
###############################################################################
#
# This file contains modified crystal structure data generated from the
# MOF subset of the Cambridge Structural Database (CSD) v543 
# hosted by the Cambridge Crystallographic Data Centre (CCDC).
#
# This work is licensed under the Creative Commons
# Attribution-NonCommercial-ShareAlike 4.0 International License.
# To view a copy of this license, visit
# http://creativecommons.org/licenses/by-nc-sa/4.0/
# or send a letter to
# Creative Commons, PO Box 1866, Mountain View, CA 94042, USA.
#
# CIF created using the CSD Python API on 29 September 2022
# The structure has been converted into the P1 space group
# The structure has a 3D framework
# The original CSD entry HASSUR is in the cubic crystal system
# The framework has been calculated to contain at least 10.0% void space
# The void calculation uses a probe of radius 1.32A, grid spacing 0.4
# H atom positions have been added when not included in the experimental data
#
###############################################################################

data_HASSUR
_chemical_formula_moiety         '(C960 H528 In48 O384)n'
_symmetry_cell_setting           triclinic
_symmetry_space_group_name_H-M   'P 1'
_symmetry_Int_Tables_number      1
_space_group_name_Hall           'P 1'
loop_
_symmetry_equiv_pos_site_id
_symmetry_equiv_pos_as_xyz
1 x,y,z
_cell_length_a                   33.975(3)
_cell_length_b                   33.975(3)
_cell_length_c                   33.975(3)
_cell_angle_alpha                90
_cell_angle_beta                 90
_cell_angle_gamma                90
_cell_volume                     39217.4
loop_
_atom_site_label
_atom_site_type_symbol
_atom_site_fract_x
_atom_site_fract_y
_atom_site_fract_z
In5 In 0.784741(19) 0.112949(17) 0.159807(19)
O20 O 0.7476(2) 0.05938(18) 0.1728(3)
O24 O 0.7471(2) 0.0779(2) 0.1125(2)
C26 C 0.7348(4) 0.0555(3) 0.1400(4)
C30 C 0.7059(3) 0.0265(3) 0.1297(3)
C32 C 0.6892(3) 0.0041(3) 0.1591(3)
H12 H 0.6951 0.0100 0.1857
C40 C 0.6936(3) 0.0190(3) 0.0915(3)
H18 H 0.7033 0.0349 0.0707
C7 C 0.6509(3) 0.8358(3) 0.0267(3)
H2 H 0.6719 0.8447 0.0428
C8 C 0.6129(3) 0.8484(3) 0.0349(3)
C9 C 0.5829(3) 0.8327(3) 0.0116(3)
H3 H 0.5563 0.8399 0.0166
C11 C 0.6042(3) 0.8764(3) 0.0662(3)
C12 C 0.5719(3) 0.8706(3) 0.0910(3)
H5 H 0.5539 0.8498 0.0860
H8 H 0.5885 0.5521 0.0053
H10 H 0.5864 0.4857 0.0049
In4 In 0.387051(17) 0.840193(19) 0.284741(19)
In6 In 0.612949(17) 0.340193(19) 0.215259(19)
O19 O 0.44062(18) 0.8272(3) 0.2476(2)
O23 O 0.4221(2) 0.8875(2) 0.2471(2)
O27 O 0.6061(4) 0.3719(3) 0.1625(3)
O31 O 0.5504(4) 0.3479(4) 0.1667(4)
C25 C 0.4445(3) 0.8600(4) 0.2348(4)
C27 C 0.5749(6) 0.3666(4) 0.1471(5)
C29 C 0.4735(3) 0.8703(3) 0.2059(3)
C31 C 0.4959(3) 0.8409(3) 0.1892(3)
H11 H 0.4900 0.8143 0.1951
C33 C 0.5267(3) 0.8491(3) 0.1642(3)
C34 C 0.6642(3) 0.9733(3) 0.1509(3)
H13 H 0.5428 0.8281 0.1553
H14 H 0.6553 0.9572 0.1719
C35 C 0.5349(3) 0.8871(3) 0.1516(3)
C36 C 0.6516(3) 0.9651(3) 0.1129(3)
C37 C 0.5116(3) 0.9171(3) 0.1673(3)
C38 C 0.6673(3) 0.9884(3) 0.0829(3)
H15 H 0.5166 0.9437 0.1601
H16 H 0.6601 0.9834 0.0563
C39 C 0.4810(3) 0.9085(3) 0.1936(3)
H17 H 0.4651 0.9293 0.2033
C41 C 0.5662(3) 0.8958(3) 0.1236(3)
C42 C 0.6236(3) 0.9338(3) 0.1042(3)
C43 C 0.5910(3) 0.9281(3) 0.1294(3)
C44 C 0.6294(3) 0.9090(3) 0.0719(3)
H19 H 0.6502 0.9140 0.0539
H20 H 0.5860 0.9461 0.1502
C45 C 0.5664(4) 0.3854(3) 0.1100(4)
C47 C 0.5951(4) 0.4026(4) 0.0879(4)
H21 H 0.6213 0.4019 0.0976
C49 C 0.5882(4) 0.4212(4) 0.0517(4)
H23 H 0.6098 0.4313 0.0371
C51 C 0.5504(3) 0.4253(3) 0.0371(3)
C53 C 0.5212(3) 0.4091(3) 0.0607(3)
H25 H 0.4947 0.4115 0.0521
C55 C 0.5281(4) 0.3894(3) 0.0967(3)
H27 H 0.5067 0.3790 0.1115
C57 C 0.5417(2) 0.4464(2) 0.0017(2)
H33 H 0.544867 0.3622 0.191583
In1 In 0.659807(19) 0.715259(19) 0.887051(17)
O1 O 0.72128(16) 0.69808(18) 0.90064(17)
O2 O 0.68356(19) 0.68265(19) 0.83423(14)
O3 O 0.76989(15) 0.65897(17) 0.88386(17)
O4 O 0.73217(15) 0.64235(16) 0.81653(16)
O5 O 0.6728(3) 0.7524(2) 0.94062(18)
O6 O 0.6125(2) 0.7529(2) 0.9221(2)
O7 O 0.6281(3) 0.6625(3) 0.8939(4)
O8 O 0.6521(4) 0.6667(4) 0.9496(4)
C1 C 0.7389(2) 0.6739(3) 0.8782(2)
C2 C 0.7166(2) 0.6663(3) 0.8392(3)
C3 C 0.6400(4) 0.7652(4) 0.9445(3)
C4 C 0.6334(4) 0.6471(5) 0.9251(6)
C5 C 0.6297(3) 0.7941(3) 0.9735(3)
C6 C 0.6591(3) 0.8108(3) 0.9959(3)
H1 H 0.6857 0.8049 0.9900
C10 C 0.5915(3) 0.8064(3) 0.9810(3)
H4 H 0.5707 0.7967 0.9651
C13 C 0.6146(3) 0.6100(4) 0.9336(4)
C14 C 0.5974(4) 0.5879(4) 0.9049(4)
H6 H 0.5981 0.5976 0.8787
C15 C 0.5788(4) 0.5517(4) 0.9118(4)
H7 H 0.5687 0.5371 0.8902
C16 C 0.5747(3) 0.5371(3) 0.9496(3)
C17 C 0.5909(3) 0.5607(3) 0.9788(3)
C18 C 0.6106(3) 0.5967(3) 0.9719(4)
H9 H 0.6210 0.6115 0.9933
C19 C 0.5536(2) 0.5017(2) 0.9583(2)
C20 C 0.5636(2) 0.4789(2) 0.9901(2)
In2 In 0.612949(17) 0.840193(19) 0.784741(19)
In3 In 0.784741(19) 0.612949(17) 0.840193(19)
In7 In 0.284741(19) 0.387051(17) 0.840193(19)
In8 In 0.715259(19) 0.887051(17) 0.659807(19)
O9 O 0.59936(17) 0.77872(16) 0.80192(18)
O10 O 0.69808(18) 0.90064(17) 0.72128(16)
O11 O 0.80192(18) 0.59936(17) 0.77872(16)
O12 O 0.66577(14) 0.81644(19) 0.81735(19)
O13 O 0.68265(19) 0.83423(14) 0.68356(19)
O14 O 0.81735(19) 0.66577(14) 0.81644(19)
O15 O 0.61614(17) 0.73011(15) 0.84103(17)
O16 O 0.65897(17) 0.88386(17) 0.76989(15)
O17 O 0.68347(16) 0.76783(15) 0.85765(16)
O18 O 0.64235(16) 0.81653(16) 0.73217(15)
O21 O 0.55938(18) 0.8272(3) 0.7476(2)
O22 O 0.7476(2) 0.55938(18) 0.8272(3)
O25 O 0.5779(2) 0.8875(2) 0.7471(2)
O26 O 0.7471(2) 0.5779(2) 0.8875(2)
O28 O 0.3375(3) 0.3939(4) 0.8719(3)
O29 O 0.6061(4) 0.8719(3) 0.8375(3)
O30 O 0.8375(3) 0.6061(4) 0.8719(3)
O32 O 0.3333(4) 0.4496(4) 0.8479(4)
C21 C 0.6218(2) 0.7611(2) 0.8261(3)
C22 C 0.6739(3) 0.8782(2) 0.7389(2)
C23 C 0.6608(3) 0.7834(2) 0.8337(3)
C24 C 0.6663(3) 0.8392(3) 0.7166(2)
C28 C 0.3529(5) 0.4251(6) 0.8666(4)
C46 C 0.3900(4) 0.4336(4) 0.8854(3)
C48 C 0.4121(4) 0.4049(4) 0.9026(4)
H22 H 0.4024 0.3787 0.9019
C50 C 0.4483(4) 0.4118(4) 0.9212(4)
H24 H 0.4629 0.3902 0.9313
C52 C 0.4629(3) 0.4496(3) 0.9253(3)
C54 C 0.4393(3) 0.4788(3) 0.9091(3)
H26 H 0.4479 0.5053 0.9115
C56 C 0.4033(3) 0.4719(4) 0.8894(3)
H28 H 0.3885 0.4933 0.8790
C58 C 0.4983(2) 0.4583(2) 0.9464(2)
C59 C 0.5099(2) 0.4364(2) 0.9789(2)
C60 C 0.5211(2) 0.4901(2) 0.9364(2)
H29 H 0.5143 0.5049 0.9136
H30 H 0.4951 0.4136 0.9857
H31 H 0.6378 0.691583 0.955133
H32 H 0.308417 0.455133 0.8622
In4_2 In 0.112949(17) 0.159807(19) 0.784741(19)
In7_2 In 0.215259(19) 0.612949(17) 0.340193(19)
O19_2 O 0.05938(18) 0.1728(3) 0.7476(2)
O23_2 O 0.0779(2) 0.1125(2) 0.7471(2)
O28_2 O 0.1625(3) 0.6061(4) 0.3719(3)
O32_2 O 0.1667(4) 0.5504(4) 0.3479(4)
C25_2 C 0.0555(3) 0.1400(4) 0.7348(4)
C28_2 C 0.1471(5) 0.5749(6) 0.3666(4)
C29_2 C 0.0265(3) 0.1297(3) 0.7059(3)
C31_2 C 0.0041(3) 0.1591(3) 0.6892(3)
H11_2 H 0.0100 0.1857 0.6951
C39_2 C 0.0190(3) 0.0915(3) 0.6936(3)
H17_2 H 0.0349 0.0707 0.7033
C46_2 C 0.1100(4) 0.5664(4) 0.3854(3)
C48_2 C 0.0879(4) 0.5951(4) 0.4026(4)
H22_2 H 0.0976 0.6213 0.4019
C50_2 C 0.0517(4) 0.5882(4) 0.4212(4)
H24_2 H 0.0371 0.6098 0.4313
C52_2 C 0.0371(3) 0.5504(3) 0.4253(3)
C54_2 C 0.0607(3) 0.5212(3) 0.4091(3)
H25_2 H 0.0053 0.5885 0.5521
H26_2 H 0.0521 0.4947 0.4115
C56_2 C 0.0967(3) 0.5281(4) 0.3894(3)
H28_2 H 0.1115 0.5067 0.3790
C58_2 C 0.0017(2) 0.5417(2) 0.4464(2)
H30_2 H 0.0049 0.5864 0.4857
H32_2 H 0.191583 0.544867 0.3622
In1_2 In 0.840193(19) 0.284741(19) 0.387051(17)
O1_2 O 0.77872(16) 0.30192(18) 0.40064(17)
O2_2 O 0.81644(19) 0.31735(19) 0.33423(14)
O3_2 O 0.73011(15) 0.34103(17) 0.38386(17)
O4_2 O 0.76783(15) 0.35765(16) 0.31653(16)
O5_2 O 0.8272(3) 0.2476(2) 0.44062(18)
O6_2 O 0.8875(2) 0.2471(2) 0.4221(2)
O7_2 O 0.8719(3) 0.3375(3) 0.3939(4)
O8_2 O 0.8479(4) 0.3333(4) 0.4496(4)
C1_2 C 0.7611(2) 0.3261(3) 0.3782(2)
C2_2 C 0.7834(2) 0.3337(3) 0.3392(3)
C3_2 C 0.8600(4) 0.2348(4) 0.4445(3)
C4_2 C 0.8666(4) 0.3529(5) 0.4251(6)
C5_2 C 0.8703(3) 0.2059(3) 0.4735(3)
C6_2 C 0.8409(3) 0.1892(3) 0.4959(3)
H1_2 H 0.8143 0.1951 0.4900
C7_2 C 0.8491(3) 0.1642(3) 0.5267(3)
H2_2 H 0.8281 0.1553 0.5428
C8_2 C 0.8871(3) 0.1516(3) 0.5349(3)
C9_2 C 0.9171(3) 0.1673(3) 0.5116(3)
H3_2 H 0.9437 0.1601 0.5166
C10_2 C 0.9085(3) 0.1936(3) 0.4810(3)
H4_2 H 0.9293 0.2033 0.4651
C11_2 C 0.8958(3) 0.1236(3) 0.5662(3)
C12_2 C 0.9281(3) 0.1294(3) 0.5910(3)
H5_2 H 0.9461 0.1502 0.5860
C13_2 C 0.8854(3) 0.3900(4) 0.4336(4)
C14_2 C 0.9026(4) 0.4121(4) 0.4049(4)
H6_2 H 0.9019 0.4024 0.3787
C15_2 C 0.9212(4) 0.4483(4) 0.4118(4)
H7_2 H 0.9313 0.4629 0.3902
C16_2 C 0.9253(3) 0.4629(3) 0.4496(3)
C17_2 C 0.9091(3) 0.4393(3) 0.4788(3)
H8_2 H 0.9115 0.4479 0.5053
C18_2 C 0.8894(3) 0.4033(3) 0.4719(4)
H9_2 H 0.8790 0.3885 0.4933
C19_2 C 0.9464(2) 0.4983(2) 0.4583(2)
C20_2 C 0.9364(2) 0.5211(2) 0.4901(2)
H10_2 H 0.9136 0.5143 0.5049
In2_2 In 0.887051(17) 0.159807(19) 0.284741(19)
In3_2 In 0.715259(19) 0.387051(17) 0.340193(19)
In6_2 In 0.887051(17) 0.659807(19) 0.715259(19)
O9_2 O 0.90064(17) 0.22128(16) 0.30192(18)
O10_2 O 0.80192(18) 0.09936(17) 0.22128(16)
O11_2 O 0.69808(18) 0.40064(17) 0.27872(16)
O12_2 O 0.83423(14) 0.18356(19) 0.31735(19)
O13_2 O 0.81735(19) 0.16577(14) 0.18356(19)
O14_2 O 0.68265(19) 0.33423(14) 0.31644(19)
O15_2 O 0.88386(17) 0.26989(15) 0.34103(17)
O16_2 O 0.84103(17) 0.11614(17) 0.26989(15)
O17_2 O 0.81653(16) 0.23217(15) 0.35765(16)
O18_2 O 0.85765(16) 0.18347(16) 0.23217(15)
O21_2 O 0.94062(18) 0.1728(3) 0.2476(2)
O22_2 O 0.7524(2) 0.44062(18) 0.3272(3)
O25_2 O 0.9221(2) 0.1125(2) 0.2471(2)
O26_2 O 0.7529(2) 0.4221(2) 0.3875(2)
O27_2 O 0.8939(4) 0.6281(3) 0.6625(3)
O29_2 O 0.8939(4) 0.1281(3) 0.3375(3)
O30_2 O 0.6625(3) 0.3939(4) 0.3719(3)
O31_2 O 0.9496(4) 0.6521(4) 0.6667(4)
C21_2 C 0.8782(2) 0.2389(2) 0.3261(3)
C22_2 C 0.8261(3) 0.1218(2) 0.2389(2)
C23_2 C 0.8392(3) 0.2166(2) 0.3337(3)
C24_2 C 0.8337(3) 0.1608(3) 0.2166(2)
C27_2 C 0.9251(6) 0.6334(4) 0.6471(5)
C33_2 C 0.9733(3) 0.1509(3) 0.6642(3)
C34_2 C 0.8358(3) 0.0267(3) 0.6509(3)
H13_2 H 0.9572 0.1719 0.6553
H14_2 H 0.8447 0.0428 0.6719
C35_2 C 0.9651(3) 0.1129(3) 0.6516(3)
C36_2 C 0.8484(3) 0.0349(3) 0.6129(3)
C37_2 C 0.9884(3) 0.0829(3) 0.6673(3)
C38_2 C 0.8327(3) 0.0116(3) 0.5829(3)
H15_2 H 0.9834 0.0563 0.6601
H16_2 H 0.8399 0.0166 0.5563
C41_2 C 0.9338(3) 0.1042(3) 0.6236(3)
C42_2 C 0.8764(3) 0.0662(3) 0.6042(3)
C43_2 C 0.9090(3) 0.0719(3) 0.6294(3)
C44_2 C 0.8706(3) 0.0910(3) 0.5719(3)
H19_2 H 0.8498 0.0860 0.5539
H20_2 H 0.9140 0.0539 0.6502
C45_2 C 0.9336(4) 0.6146(3) 0.6100(4)
C47_2 C 0.9049(4) 0.5974(4) 0.5879(4)
H21_2 H 0.8787 0.5981 0.5976
C49_2 C 0.9118(4) 0.5788(4) 0.5517(4)
H23_2 H 0.8902 0.5687 0.5371
C51_2 C 0.9496(3) 0.5747(3) 0.5371(3)
C53_2 C 0.9788(3) 0.5909(3) 0.5607(3)
C55_2 C 0.9719(4) 0.6106(3) 0.5967(3)
H27_2 H 0.9933 0.6210 0.6115
C57_2 C 0.9583(2) 0.5536(2) 0.5017(2)
C59_2 C 0.9901(2) 0.5636(2) 0.4789(2)
C60_2 C 0.9789(2) 0.5099(2) 0.4364(2)
H29_2 H 0.9857 0.4951 0.4136
H31_2 H 0.8622 0.308417 0.455133
H33_2 H 0.955133 0.6378 0.691583
O20_2 O 0.7524(2) 0.94062(18) 0.6728(3)
O24_2 O 0.7529(2) 0.9221(2) 0.6125(2)
C26_2 C 0.7652(4) 0.9445(3) 0.6400(4)
C30_2 C 0.7941(3) 0.9735(3) 0.6297(3)
C32_2 C 0.8108(3) 0.9959(3) 0.6591(3)
H12_2 H 0.8049 0.9900 0.6857
C40_2 C 0.8064(3) 0.9810(3) 0.5915(3)
H18_2 H 0.7967 0.9651 0.5707
In1_3 In 0.340193(19) 0.215259(19) 0.612949(17)
O1_3 O 0.27872(16) 0.19808(18) 0.59936(17)
O2_3 O 0.31644(19) 0.18265(19) 0.66577(14)
O3_3 O 0.23011(15) 0.15897(17) 0.61614(17)
O4_3 O 0.26783(15) 0.14235(16) 0.68347(16)
O5_3 O 0.3272(3) 0.2524(2) 0.55938(18)
O6_3 O 0.3875(2) 0.2529(2) 0.5779(2)
O7_3 O 0.3719(3) 0.1625(3) 0.6061(4)
O8_3 O 0.3479(4) 0.1667(4) 0.5504(4)
C1_3 C 0.2611(2) 0.1739(3) 0.6218(2)
C2_3 C 0.2834(2) 0.1663(3) 0.6608(3)
C3_3 C 0.3600(4) 0.2652(4) 0.5555(3)
C4_3 C 0.3666(4) 0.1471(5) 0.5749(6)
C5_3 C 0.3703(3) 0.2941(3) 0.5265(3)
C6_3 C 0.3409(3) 0.3108(3) 0.5041(3)
H1_3 H 0.3143 0.3049 0.5100
C7_3 C 0.3491(3) 0.3358(3) 0.4733(3)
H2_3 H 0.3281 0.3447 0.4572
C8_3 C 0.3871(3) 0.3484(3) 0.4651(3)
C9_3 C 0.4171(3) 0.3327(3) 0.4884(3)
H3_3 H 0.4437 0.3399 0.4834
C10_3 C 0.4085(3) 0.3064(3) 0.5190(3)
H4_3 H 0.4293 0.2967 0.5349
C11_3 C 0.3958(3) 0.3764(3) 0.4338(3)
C12_3 C 0.4281(3) 0.3706(3) 0.4090(3)
H5_3 H 0.4461 0.3498 0.4140
C13_3 C 0.3854(3) 0.1100(4) 0.5664(4)
C14_3 C 0.4026(4) 0.0879(4) 0.5951(4)
H6_3 H 0.4019 0.0976 0.6213
C15_3 C 0.4212(4) 0.0517(4) 0.5882(4)
H7_3 H 0.4313 0.0371 0.6098
C16_3 C 0.4253(3) 0.0371(3) 0.5504(3)
C17_3 C 0.4091(3) 0.0607(3) 0.5212(3)
H8_3 H 0.4115 0.0521 0.4947
C18_3 C 0.3894(3) 0.0967(3) 0.5281(4)
H9_3 H 0.3790 0.1115 0.5067
C19_3 C 0.4464(2) 0.0017(2) 0.5417(2)
In2_3 In 0.387051(17) 0.340193(19) 0.715259(19)
In3_3 In 0.215259(19) 0.112949(17) 0.659807(19)
O9_3 O 0.40064(17) 0.27872(16) 0.69808(18)
O10_3 O 0.30192(18) 0.40064(17) 0.77872(16)
O11_3 O 0.19808(18) 0.09936(17) 0.72128(16)
O12_3 O 0.33423(14) 0.31644(19) 0.68265(19)
O13_3 O 0.31735(19) 0.33423(14) 0.81644(19)
O14_3 O 0.18265(19) 0.16577(14) 0.68356(19)
O15_3 O 0.38386(17) 0.23011(15) 0.65897(17)
O16_3 O 0.34103(17) 0.38386(17) 0.73011(15)
O17_3 O 0.31653(16) 0.26783(15) 0.64235(16)
O18_3 O 0.35765(16) 0.31653(16) 0.76783(15)
O19_3 O 0.55938(18) 0.3272(3) 0.2524(2)
O20_3 O 0.2524(2) 0.55938(18) 0.3272(3)
O21_3 O 0.44062(18) 0.3272(3) 0.7524(2)
O22_3 O 0.2524(2) 0.05938(18) 0.6728(3)
O23_3 O 0.5779(2) 0.3875(2) 0.2529(2)
O24_3 O 0.2529(2) 0.5779(2) 0.3875(2)
O25_3 O 0.4221(2) 0.3875(2) 0.7529(2)
O26_3 O 0.2529(2) 0.0779(2) 0.6125(2)
O29_3 O 0.3939(4) 0.3719(3) 0.6625(3)
O30_3 O 0.1625(3) 0.1061(4) 0.6281(3)
C21_3 C 0.3782(2) 0.2611(2) 0.6739(3)
C22_3 C 0.3261(3) 0.3782(2) 0.7611(2)
C23_3 C 0.3392(3) 0.2834(2) 0.6663(3)
C24_3 C 0.3337(3) 0.3392(3) 0.7834(2)
C25_3 C 0.5555(3) 0.3600(4) 0.2652(4)
C26_3 C 0.2652(4) 0.5555(3) 0.3600(4)
C29_3 C 0.5265(3) 0.3703(3) 0.2941(3)
C30_3 C 0.2941(3) 0.5265(3) 0.3703(3)
C31_3 C 0.5041(3) 0.3409(3) 0.3108(3)
C32_3 C 0.3108(3) 0.5041(3) 0.3409(3)
H11_3 H 0.5100 0.3143 0.3049
H12_3 H 0.3049 0.5100 0.3143
C33_3 C 0.4733(3) 0.3491(3) 0.3358(3)
C34_3 C 0.3358(3) 0.4733(3) 0.3491(3)
H13_3 H 0.4572 0.3281 0.3447
H14_3 H 0.3447 0.4572 0.3281
C35_3 C 0.4651(3) 0.3871(3) 0.3484(3)
C36_3 C 0.3484(3) 0.4651(3) 0.3871(3)
C37_3 C 0.4884(3) 0.4171(3) 0.3327(3)
C38_3 C 0.3327(3) 0.4884(3) 0.4171(3)
H15_3 H 0.4834 0.4437 0.3399
H16_3 H 0.3399 0.4834 0.4437
C39_3 C 0.5190(3) 0.4085(3) 0.3064(3)
C40_3 C 0.3064(3) 0.5190(3) 0.4085(3)
H17_3 H 0.5349 0.4293 0.2967
H18_3 H 0.2967 0.5349 0.4293
C41_3 C 0.4338(3) 0.3958(3) 0.3764(3)
C42_3 C 0.3764(3) 0.4338(3) 0.3958(3)
C43_3 C 0.4090(3) 0.4281(3) 0.3706(3)
C44_3 C 0.3706(3) 0.4090(3) 0.4281(3)
H19_3 H 0.3498 0.4140 0.4461
H20_3 H 0.4140 0.4461 0.3498
H26_3 H 0.5521 0.0053 0.5885
H29_3 H 0.4857 0.0049 0.5864
H31_3 H 0.3622 0.191583 0.544867
C20_3 C 0.4364(2) 0.9789(2) 0.5099(2)
H10_3 H 0.4136 0.9857 0.4951
O27_3 O 0.3939(4) 0.8719(3) 0.3375(3)
O28_3 O 0.6625(3) 0.8939(4) 0.6281(3)
O31_3 O 0.4496(4) 0.8479(4) 0.3333(4)
O32_3 O 0.6667(4) 0.9496(4) 0.6521(4)
C27_3 C 0.4251(6) 0.8666(4) 0.3529(5)
C28_3 C 0.6471(5) 0.9251(6) 0.6334(4)
C45_3 C 0.4336(4) 0.8854(3) 0.3900(4)
C46_3 C 0.6100(4) 0.9336(4) 0.6146(3)
C47_3 C 0.4049(4) 0.9026(4) 0.4121(4)
C48_3 C 0.5879(4) 0.9049(4) 0.5974(4)
H21_3 H 0.3787 0.9019 0.4024
H22_3 H 0.5976 0.8787 0.5981
C49_3 C 0.4118(4) 0.9212(4) 0.4483(4)
C50_3 C 0.5517(4) 0.9118(4) 0.5788(4)
H23_3 H 0.3902 0.9313 0.4629
H24_3 H 0.5371 0.8902 0.5687
C51_3 C 0.4496(3) 0.9253(3) 0.4629(3)
C52_3 C 0.5371(3) 0.9496(3) 0.5747(3)
C53_3 C 0.4788(3) 0.9091(3) 0.4393(3)
C54_3 C 0.5607(3) 0.9788(3) 0.5909(3)
H25_3 H 0.5053 0.9115 0.4479
C55_3 C 0.4719(4) 0.8894(3) 0.4033(3)
C56_3 C 0.5967(3) 0.9719(4) 0.6106(3)
H27_3 H 0.4933 0.8790 0.3885
H28_3 H 0.6115 0.9933 0.6210
C57_3 C 0.4583(2) 0.9464(2) 0.4983(2)
C58_3 C 0.5017(2) 0.9583(2) 0.5536(2)
C59_3 C 0.4901(2) 0.9364(2) 0.5211(2)
C60_3 C 0.4789(2) 0.9901(2) 0.5636(2)
H30_3 H 0.5049 0.9136 0.5143
H32_3 H 0.691583 0.955133 0.6378
H33_3 H 0.455133 0.8622 0.308417
H10_4 H 0.0864 0.0143 0.9951
O27_4 O 0.1061(4) 0.1281(3) 0.8375(3)
O31_4 O 0.0504(4) 0.1521(4) 0.8333(4)
C27_4 C 0.0749(6) 0.1334(4) 0.8529(5)
C45_4 C 0.0664(4) 0.1146(3) 0.8900(4)
C47_4 C 0.0951(4) 0.0974(4) 0.9121(4)
H21_4 H 0.1213 0.0981 0.9024
C49_4 C 0.0882(4) 0.0788(4) 0.9483(4)
H23_4 H 0.1098 0.0687 0.9629
C51_4 C 0.0504(3) 0.0747(3) 0.9629(3)
C53_4 C 0.0212(3) 0.0909(3) 0.9393(3)
C55_4 C 0.0281(4) 0.1106(3) 0.9033(3)
H27_4 H 0.0067 0.1210 0.8885
C57_4 C 0.0417(2) 0.0536(2) 0.9983(2)
H33_4 H 0.0448674 0.1378 0.808417
In1_4 In 0.159807(19) 0.784741(19) 0.112949(17)
O1_4 O 0.22128(16) 0.80192(18) 0.09936(17)
O2_4 O 0.18356(19) 0.81735(19) 0.16577(14)
O3_4 O 0.26989(15) 0.84103(17) 0.11614(17)
O4_4 O 0.23217(15) 0.85765(16) 0.18347(16)
O5_4 O 0.1728(3) 0.7476(2) 0.05938(18)
O6_4 O 0.1125(2) 0.7471(2) 0.0779(2)
O7_4 O 0.1281(3) 0.8375(3) 0.1061(4)
O8_4 O 0.1521(4) 0.8333(4) 0.0504(4)
C1_4 C 0.2389(2) 0.8261(3) 0.1218(2)
C2_4 C 0.2166(2) 0.8337(3) 0.1608(3)
C3_4 C 0.1400(4) 0.7348(4) 0.0555(3)
C4_4 C 0.1334(4) 0.8529(5) 0.0749(6)
C5_4 C 0.1297(3) 0.7059(3) 0.0265(3)
C6_4 C 0.1591(3) 0.6892(3) 0.0041(3)
H1_4 H 0.1857 0.6951 0.0100
C10_4 C 0.0915(3) 0.6936(3) 0.0190(3)
H4_4 H 0.0707 0.7033 0.0349
C13_4 C 0.1146(3) 0.8900(4) 0.0664(4)
C14_4 C 0.0974(4) 0.9121(4) 0.0951(4)
H6_4 H 0.0981 0.9024 0.1213
C15_4 C 0.0788(4) 0.9483(4) 0.0882(4)
H7_4 H 0.0687 0.9629 0.1098
C16_4 C 0.0747(3) 0.9629(3) 0.0504(3)
C17_4 C 0.0909(3) 0.9393(3) 0.0212(3)
C18_4 C 0.1106(3) 0.9033(3) 0.0281(4)
H9_4 H 0.1210 0.8885 0.0067
C19_4 C 0.0536(2) 0.9983(2) 0.0417(2)
In2_4 In 0.112949(17) 0.659807(19) 0.215259(19)
In3_4 In 0.284741(19) 0.887051(17) 0.159807(19)
O9_4 O 0.09936(17) 0.72128(16) 0.19808(18)
O10_4 O 0.19808(18) 0.59936(17) 0.27872(16)
O11_4 O 0.30192(18) 0.90064(17) 0.22128(16)
O12_4 O 0.16577(14) 0.68356(19) 0.18265(19)
O13_4 O 0.18265(19) 0.66577(14) 0.31644(19)
O14_4 O 0.31735(19) 0.83423(14) 0.18356(19)
O15_4 O 0.11614(17) 0.76989(15) 0.15897(17)
O16_4 O 0.15897(17) 0.61614(17) 0.23011(15)
O17_4 O 0.18347(16) 0.73217(15) 0.14235(16)
O18_4 O 0.14235(16) 0.68347(16) 0.26783(15)
O21_4 O 0.05938(18) 0.6728(3) 0.2524(2)
O22_4 O 0.2476(2) 0.94062(18) 0.1728(3)
O25_4 O 0.0779(2) 0.6125(2) 0.2529(2)
O26_4 O 0.2471(2) 0.9221(2) 0.1125(2)
O29_4 O 0.1061(4) 0.6281(3) 0.1625(3)
O30_4 O 0.3375(3) 0.8939(4) 0.1281(3)
C21_4 C 0.1218(2) 0.7389(2) 0.1739(3)
C22_4 C 0.1739(3) 0.6218(2) 0.2611(2)
C23_4 C 0.1608(3) 0.7166(2) 0.1663(3)
C24_4 C 0.1663(3) 0.6608(3) 0.2834(2)
H29_4 H 0.0143 0.9951 0.0864
H31_4 H 0.1378 0.808417 0.0448674
C7_4 C 0.1509(3) 0.6642(3) 0.9733(3)
H2_4 H 0.1719 0.6553 0.9572
C8_4 C 0.1129(3) 0.6516(3) 0.9651(3)
C9_4 C 0.0829(3) 0.6673(3) 0.9884(3)
H3_4 H 0.0563 0.6601 0.9834
C11_4 C 0.1042(3) 0.6236(3) 0.9338(3)
C12_4 C 0.0719(3) 0.6294(3) 0.9090(3)
H5_4 H 0.0539 0.6502 0.9140
H8_4 H 0.0885 0.9479 0.9947
O20_4 O 0.2476(2) 0.44062(18) 0.8272(3)
O24_4 O 0.2471(2) 0.4221(2) 0.8875(2)
C26_4 C 0.2348(4) 0.4445(3) 0.8600(4)
C30_4 C 0.2059(3) 0.4735(3) 0.8703(3)
C32_4 C 0.1892(3) 0.4959(3) 0.8409(3)
H12_4 H 0.1951 0.4900 0.8143
C33_4 C 0.0267(3) 0.6509(3) 0.8358(3)
C34_4 C 0.1642(3) 0.5267(3) 0.8491(3)
H13_4 H 0.0428 0.6719 0.8447
H14_4 H 0.1553 0.5428 0.8281
C35_4 C 0.0349(3) 0.6129(3) 0.8484(3)
C36_4 C 0.1516(3) 0.5349(3) 0.8871(3)
C37_4 C 0.0116(3) 0.5829(3) 0.8327(3)
C38_4 C 0.1673(3) 0.5116(3) 0.9171(3)
H15_4 H 0.0166 0.5563 0.8399
H16_4 H 0.1601 0.5166 0.9437
C40_4 C 0.1936(3) 0.4810(3) 0.9085(3)
H18_4 H 0.2033 0.4651 0.9293
C41_4 C 0.0662(3) 0.6042(3) 0.8764(3)
C42_4 C 0.1236(3) 0.5662(3) 0.8958(3)
C43_4 C 0.0910(3) 0.5719(3) 0.8706(3)
C44_4 C 0.1294(3) 0.5910(3) 0.9281(3)
H19_4 H 0.1502 0.5860 0.9461
H20_4 H 0.0860 0.5539 0.8498
O28_4 O 0.8375(3) 0.1061(4) 0.1281(3)
O32_4 O 0.8333(4) 0.0504(4) 0.1521(4)
C28_4 C 0.8529(5) 0.0749(6) 0.1334(4)
C46_4 C 0.8900(4) 0.0664(4) 0.1146(3)
C48_4 C 0.9121(4) 0.0951(4) 0.0974(4)
H22_4 H 0.9024 0.1213 0.0981
C50_4 C 0.9483(4) 0.0882(4) 0.0788(4)
H24_4 H 0.9629 0.1098 0.0687
C52_4 C 0.9629(3) 0.0504(3) 0.0747(3)
C54_4 C 0.9393(3) 0.0212(3) 0.0909(3)
C56_4 C 0.9033(3) 0.0281(4) 0.1106(3)
H28_4 H 0.8885 0.0067 0.1210
C58_4 C 0.9983(2) 0.0417(2) 0.0536(2)
H30_4 H 0.9951 0.0864 0.0143
H32_4 H 0.808417 0.0448674 0.1378
H25_4 H 0.9947 0.0885 0.9479
H26_4 H 0.9479 0.9947 0.0885
O19_4 O 0.94062(18) 0.6728(3) 0.7524(2)
O23_4 O 0.9221(2) 0.6125(2) 0.7529(2)
C25_4 C 0.9445(3) 0.6400(4) 0.7652(4)
C29_4 C 0.9735(3) 0.6297(3) 0.7941(3)
C31_4 C 0.9959(3) 0.6591(3) 0.8108(3)
H11_4 H 0.9900 0.6857 0.8049
C39_4 C 0.9810(3) 0.5915(3) 0.8064(3)
H17_4 H 0.9651 0.5707 0.7967
O1_5 O 0.90064(17) 0.72128(16) 0.69808(18)
O2_5 O 0.83423(14) 0.68356(19) 0.68265(19)
O3_5 O 0.88386(17) 0.76989(15) 0.65897(17)
O4_5 O 0.81653(16) 0.73217(15) 0.64235(16)
C1_5 C 0.8782(2) 0.7389(2) 0.6739(3)
C2_5 C 0.8392(3) 0.7166(2) 0.6663(3)
In3_5 In 0.840193(19) 0.784741(19) 0.612949(17)
O11_5 O 0.77872(16) 0.80192(18) 0.59936(17)
O14_5 O 0.81644(19) 0.81735(19) 0.66577(14)
O15_5 O 0.84103(17) 0.61614(17) 0.73011(15)
O17_5 O 0.85765(16) 0.68347(16) 0.76783(15)
O22_5 O 0.8272(3) 0.7476(2) 0.55938(18)
O26_5 O 0.8875(2) 0.7471(2) 0.5779(2)
O30_5 O 0.8719(3) 0.8375(3) 0.6061(4)
C21_5 C 0.8261(3) 0.6218(2) 0.7611(2)
C23_5 C 0.8337(3) 0.6608(3) 0.7834(2)
O1_6 O 0.40064(17) 0.77872(16) 0.30192(18)
O2_6 O 0.33423(14) 0.81644(19) 0.31735(19)
O3_6 O 0.38386(17) 0.73011(15) 0.34103(17)
O4_6 O 0.31653(16) 0.76783(15) 0.35765(16)
C1_6 C 0.3782(2) 0.7611(2) 0.3261(3)
C2_6 C 0.3392(3) 0.7834(2) 0.3337(3)
In3_6 In 0.340193(19) 0.715259(19) 0.387051(17)
O11_6 O 0.27872(16) 0.69808(18) 0.40064(17)
O14_6 O 0.31644(19) 0.68265(19) 0.33423(14)
O15_6 O 0.34103(17) 0.88386(17) 0.26989(15)
O17_6 O 0.35765(16) 0.81653(16) 0.23217(15)
O22_6 O 0.3272(3) 0.7524(2) 0.44062(18)
O26_6 O 0.3875(2) 0.7529(2) 0.4221(2)
O30_6 O 0.3719(3) 0.6625(3) 0.3939(4)
C21_6 C 0.3261(3) 0.8782(2) 0.2389(2)
C23_6 C 0.3337(3) 0.8392(3) 0.2166(2)
O1_7 O 0.59936(17) 0.27872(16) 0.19808(18)
O2_7 O 0.66577(14) 0.31644(19) 0.18265(19)
O3_7 O 0.61614(17) 0.23011(15) 0.15897(17)
O4_7 O 0.68347(16) 0.26783(15) 0.14235(16)
C1_7 C 0.6218(2) 0.2611(2) 0.1739(3)
C2_7 C 0.6608(3) 0.2834(2) 0.1663(3)
In3_7 In 0.659807(19) 0.215259(19) 0.112949(17)
O11_7 O 0.72128(16) 0.19808(18) 0.09936(17)
O14_7 O 0.68356(19) 0.18265(19) 0.16577(14)
O15_7 O 0.65897(17) 0.38386(17) 0.23011(15)
O17_7 O 0.64235(16) 0.31653(16) 0.26783(15)
O22_7 O 0.6728(3) 0.2524(2) 0.05938(18)
O26_7 O 0.6125(2) 0.2529(2) 0.0779(2)
O30_7 O 0.6281(3) 0.1625(3) 0.1061(4)
C21_7 C 0.6739(3) 0.3782(2) 0.2611(2)
C23_7 C 0.6663(3) 0.3392(3) 0.2834(2)
O1_8 O 0.09936(17) 0.22128(16) 0.80192(18)
O2_8 O 0.16577(14) 0.18356(19) 0.81735(19)
O3_8 O 0.11614(17) 0.26989(15) 0.84103(17)
O4_8 O 0.18347(16) 0.23217(15) 0.85765(16)
C1_8 C 0.1218(2) 0.2389(2) 0.8261(3)
C2_8 C 0.1608(3) 0.2166(2) 0.8337(3)
In3_8 In 0.159807(19) 0.284741(19) 0.887051(17)
O11_8 O 0.22128(16) 0.30192(18) 0.90064(17)
O14_8 O 0.18356(19) 0.31735(19) 0.83423(14)
O15_8 O 0.15897(17) 0.11614(17) 0.76989(15)
O17_8 O 0.14235(16) 0.18347(16) 0.73217(15)
O22_8 O 0.1728(3) 0.2476(2) 0.94062(18)
O26_8 O 0.1125(2) 0.2471(2) 0.9221(2)
O30_8 O 0.1281(3) 0.3375(3) 0.8939(4)
C21_8 C 0.1739(3) 0.1218(2) 0.7389(2)
C23_8 C 0.1663(3) 0.1608(3) 0.7166(2)
O15_9 O 0.73011(15) 0.84103(17) 0.61614(17)
O17_9 O 0.76783(15) 0.85765(16) 0.68347(16)
C21_9 C 0.7611(2) 0.8261(3) 0.6218(2)
C23_9 C 0.7834(2) 0.8337(3) 0.6608(3)
O15_10 O 0.26989(15) 0.34103(17) 0.88386(17)
O17_10 O 0.23217(15) 0.35765(16) 0.81653(16)
C21_10 C 0.2389(2) 0.3261(3) 0.8782(2)
C23_10 C 0.2166(2) 0.3337(3) 0.8392(3)
O15_11 O 0.23011(15) 0.65897(17) 0.38386(17)
O17_11 O 0.26783(15) 0.64235(16) 0.31653(16)
C21_11 C 0.2611(2) 0.6739(3) 0.3782(2)
C23_11 C 0.2834(2) 0.6663(3) 0.3392(3)
O15_12 O 0.76989(15) 0.15897(17) 0.11614(17)
O17_12 O 0.73217(15) 0.14235(16) 0.18347(16)
C21_12 C 0.7389(2) 0.1739(3) 0.1218(2)
C23_12 C 0.7166(2) 0.1663(3) 0.1608(3)
O32_5 O 0.1667(4) 0.0504(4) 0.6521(4)
C28_5 C 0.1471(5) 0.0749(6) 0.6334(4)
C46_5 C 0.1100(4) 0.0664(4) 0.6146(3)
C48_5 C 0.0879(4) 0.0951(4) 0.5974(4)
H22_5 H 0.0976 0.1213 0.5981
C50_5 C 0.0517(4) 0.0882(4) 0.5788(4)
H24_5 H 0.0371 0.1098 0.5687
C52_5 C 0.0371(3) 0.0504(3) 0.5747(3)
C54_5 C 0.0607(3) 0.0212(3) 0.5909(3)
H25_5 H 0.0053 0.0885 0.4479
C56_5 C 0.0967(3) 0.0281(4) 0.6106(3)
H28_5 H 0.1115 0.0067 0.6210
C58_5 C 0.0017(2) 0.0417(2) 0.5536(2)
H30_5 H 0.0049 0.0864 0.5143
H32_5 H 0.191583 0.0448674 0.6378
C25_5 C 0.0555(3) 0.6400(4) 0.2652(4)
C29_5 C 0.0265(3) 0.6297(3) 0.2941(3)
C31_5 C 0.0041(3) 0.6591(3) 0.3108(3)
H11_5 H 0.0100 0.6857 0.3049
C39_5 C 0.0190(3) 0.5915(3) 0.3064(3)
H17_5 H 0.0349 0.5707 0.2967
H26_5 H 0.0521 0.9947 0.5885
C20_4 C 0.9364(2) 0.0211(2) 0.5099(2)
H10_5 H 0.9136 0.0143 0.4951
O31_5 O 0.9496(4) 0.1521(4) 0.3333(4)
C27_5 C 0.9251(6) 0.1334(4) 0.3529(5)
C45_5 C 0.9336(4) 0.1146(3) 0.3900(4)
C47_5 C 0.9049(4) 0.0974(4) 0.4121(4)
H21_5 H 0.8787 0.0981 0.4024
C49_5 C 0.9118(4) 0.0788(4) 0.4483(4)
H23_5 H 0.8902 0.0687 0.4629
C51_5 C 0.9496(3) 0.0747(3) 0.4629(3)
C53_5 C 0.9788(3) 0.0909(3) 0.4393(3)
C55_5 C 0.9719(4) 0.1106(3) 0.4033(3)
H27_5 H 0.9933 0.1210 0.3885
C57_5 C 0.9583(2) 0.0536(2) 0.4983(2)
C59_4 C 0.9901(2) 0.0636(2) 0.5211(2)
C60_4 C 0.9789(2) 0.0099(2) 0.5636(2)
H33_5 H 0.955133 0.1378 0.308417
O8_5 O 0.8479(4) 0.8333(4) 0.5504(4)
C3_5 C 0.8600(4) 0.7348(4) 0.5555(3)
C4_5 C 0.8666(4) 0.8529(5) 0.5749(6)
C5_5 C 0.8703(3) 0.7059(3) 0.5265(3)
C6_5 C 0.8409(3) 0.6892(3) 0.5041(3)
H1_5 H 0.8143 0.6951 0.5100
C7_5 C 0.8491(3) 0.6642(3) 0.4733(3)
H2_5 H 0.8281 0.6553 0.4572
C8_5 C 0.8871(3) 0.6516(3) 0.4651(3)
C9_5 C 0.9171(3) 0.6673(3) 0.4884(3)
H3_5 H 0.9437 0.6601 0.4834
C10_5 C 0.9085(3) 0.6936(3) 0.5190(3)
H4_5 H 0.9293 0.7033 0.5349
C11_5 C 0.8958(3) 0.6236(3) 0.4338(3)
C12_5 C 0.9281(3) 0.6294(3) 0.4090(3)
H5_5 H 0.9461 0.6502 0.4140
C13_5 C 0.8854(3) 0.8900(4) 0.5664(4)
C14_5 C 0.9026(4) 0.9121(4) 0.5951(4)
H6_5 H 0.9019 0.9024 0.6213
C15_5 C 0.9212(4) 0.9483(4) 0.5882(4)
H7_5 H 0.9313 0.9629 0.6098
C16_5 C 0.9253(3) 0.9629(3) 0.5504(3)
C17_5 C 0.9091(3) 0.9393(3) 0.5212(3)
H8_5 H 0.9115 0.9479 0.4947
C18_5 C 0.8894(3) 0.9033(3) 0.5281(4)
H9_5 H 0.8790 0.8885 0.5067
C19_5 C 0.9464(2) 0.9983(2) 0.5417(2)
C26_5 C 0.7652(4) 0.4445(3) 0.3600(4)
C30_5 C 0.7941(3) 0.4735(3) 0.3703(3)
C32_5 C 0.8108(3) 0.4959(3) 0.3409(3)
H12_5 H 0.8049 0.4900 0.3143
C33_5 C 0.9733(3) 0.6509(3) 0.3358(3)
C34_5 C 0.8358(3) 0.5267(3) 0.3491(3)
H13_5 H 0.9572 0.6719 0.3447
H14_5 H 0.8447 0.5428 0.3281
C35_5 C 0.9651(3) 0.6129(3) 0.3484(3)
C36_5 C 0.8484(3) 0.5349(3) 0.3871(3)
C37_5 C 0.9884(3) 0.5829(3) 0.3327(3)
C38_5 C 0.8327(3) 0.5116(3) 0.4171(3)
H15_5 H 0.9834 0.5563 0.3399
H16_5 H 0.8399 0.5166 0.4437
C40_5 C 0.8064(3) 0.4810(3) 0.4085(3)
H18_5 H 0.7967 0.4651 0.4293
C41_5 C 0.9338(3) 0.6042(3) 0.3764(3)
C42_5 C 0.8764(3) 0.5662(3) 0.3958(3)
C43_5 C 0.9090(3) 0.5719(3) 0.3706(3)
C44_5 C 0.8706(3) 0.5910(3) 0.4281(3)
H19_5 H 0.8498 0.5860 0.4461
H20_5 H 0.9140 0.5539 0.3498
H29_5 H 0.9857 0.9951 0.5864
H31_5 H 0.8622 0.808417 0.544867
O8_6 O 0.6521(4) 0.1667(4) 0.0504(4)
C3_6 C 0.6400(4) 0.2652(4) 0.0555(3)
C4_6 C 0.6334(4) 0.1471(5) 0.0749(6)
C5_6 C 0.6297(3) 0.2941(3) 0.0265(3)
C6_6 C 0.6591(3) 0.3108(3) 0.0041(3)
H1_6 H 0.6857 0.3049 0.0100
C10_6 C 0.5915(3) 0.3064(3) 0.0190(3)
H4_6 H 0.5707 0.2967 0.0349
C13_6 C 0.6146(3) 0.1100(4) 0.0664(4)
C14_6 C 0.5974(4) 0.0879(4) 0.0951(4)
H6_6 H 0.5981 0.0976 0.1213
C15_6 C 0.5788(4) 0.0517(4) 0.0882(4)
H7_6 H 0.5687 0.0371 0.1098
C16_6 C 0.5747(3) 0.0371(3) 0.0504(3)
C17_6 C 0.5909(3) 0.0607(3) 0.0212(3)
C18_6 C 0.6106(3) 0.0967(3) 0.0281(4)
H9_6 H 0.6210 0.1115 0.0067
C19_6 C 0.5536(2) 0.0017(2) 0.0417(2)
H26_6 H 0.4479 0.0053 0.0885
H29_6 H 0.5143 0.0049 0.0864
H31_6 H 0.6378 0.191583 0.0448674
C7_6 C 0.6509(3) 0.3358(3) 0.9733(3)
H2_6 H 0.6719 0.3447 0.9572
C8_6 C 0.6129(3) 0.3484(3) 0.9651(3)
C9_6 C 0.5829(3) 0.3327(3) 0.9884(3)
H3_6 H 0.5563 0.3399 0.9834
C11_6 C 0.6042(3) 0.3764(3) 0.9338(3)
C12_6 C 0.5719(3) 0.3706(3) 0.9090(3)
H5_6 H 0.5539 0.3498 0.9140
H8_6 H 0.5885 0.0521 0.9947
C25_6 C 0.4445(3) 0.3600(4) 0.7652(4)
C26_6 C 0.7348(4) 0.5555(3) 0.8600(4)
C29_6 C 0.4735(3) 0.3703(3) 0.7941(3)
C30_6 C 0.7059(3) 0.5265(3) 0.8703(3)
C31_6 C 0.4959(3) 0.3409(3) 0.8108(3)
C32_6 C 0.6892(3) 0.5041(3) 0.8409(3)
H11_6 H 0.4900 0.3143 0.8049
H12_6 H 0.6951 0.5100 0.8143
C33_6 C 0.5267(3) 0.3491(3) 0.8358(3)
C34_6 C 0.6642(3) 0.4733(3) 0.8491(3)
H13_6 H 0.5428 0.3281 0.8447
H14_6 H 0.6553 0.4572 0.8281
C35_6 C 0.5349(3) 0.3871(3) 0.8484(3)
C36_6 C 0.6516(3) 0.4651(3) 0.8871(3)
C37_6 C 0.5116(3) 0.4171(3) 0.8327(3)
C38_6 C 0.6673(3) 0.4884(3) 0.9171(3)
H15_6 H 0.5166 0.4437 0.8399
H16_6 H 0.6601 0.4834 0.9437
C39_6 C 0.4810(3) 0.4085(3) 0.8064(3)
C40_6 C 0.6936(3) 0.5190(3) 0.9085(3)
H17_6 H 0.4651 0.4293 0.7967
H18_6 H 0.7033 0.5349 0.9293
C41_6 C 0.5662(3) 0.3958(3) 0.8764(3)
C42_6 C 0.6236(3) 0.4338(3) 0.8958(3)
C43_6 C 0.5910(3) 0.4281(3) 0.8706(3)
C44_6 C 0.6294(3) 0.4090(3) 0.9281(3)
H19_6 H 0.6502 0.4140 0.9461
H20_6 H 0.5860 0.4461 0.8498
C20_5 C 0.5636(2) 0.9789(2) 0.0099(2)
O32_6 O 0.3333(4) 0.9496(4) 0.1521(4)
C28_6 C 0.3529(5) 0.9251(6) 0.1334(4)
C46_6 C 0.3900(4) 0.9336(4) 0.1146(3)
C48_6 C 0.4121(4) 0.9049(4) 0.0974(4)
H22_6 H 0.4024 0.8787 0.0981
C50_6 C 0.4483(4) 0.9118(4) 0.0788(4)
H24_6 H 0.4629 0.8902 0.0687
C52_6 C 0.4629(3) 0.9496(3) 0.0747(3)
C54_6 C 0.4393(3) 0.9788(3) 0.0909(3)
C56_6 C 0.4033(3) 0.9719(4) 0.1106(3)
H28_6 H 0.3885 0.9933 0.1210
C58_6 C 0.4983(2) 0.9583(2) 0.0536(2)
C59_5 C 0.5099(2) 0.9364(2) 0.0211(2)
C60_5 C 0.5211(2) 0.9901(2) 0.0636(2)
H30_6 H 0.4951 0.9136 0.0143
H32_6 H 0.308417 0.955133 0.1378
H10_6 H 0.5864 0.9857 0.9951
O31_6 O 0.5504(4) 0.8479(4) 0.8333(4)
C27_6 C 0.5749(6) 0.8666(4) 0.8529(5)
C45_6 C 0.5664(4) 0.8854(3) 0.8900(4)
C47_6 C 0.5951(4) 0.9026(4) 0.9121(4)
H21_6 H 0.6213 0.9019 0.9024
C49_6 C 0.5882(4) 0.9212(4) 0.9483(4)
H23_6 H 0.6098 0.9313 0.9629
C51_6 C 0.5504(3) 0.9253(3) 0.9629(3)
C53_6 C 0.5212(3) 0.9091(3) 0.9393(3)
H25_6 H 0.4947 0.9115 0.9479
C55_6 C 0.5281(4) 0.8894(3) 0.9033(3)
H27_6 H 0.5067 0.8790 0.8885
C57_6 C 0.5417(2) 0.9464(2) 0.9983(2)
H33_6 H 0.544867 0.8622 0.808417
C7_7 C 0.1509(3) 0.1642(3) 0.0267(3)
H2_7 H 0.1719 0.1553 0.0428
C8_7 C 0.1129(3) 0.1516(3) 0.0349(3)
C9_7 C 0.0829(3) 0.1673(3) 0.0116(3)
H3_7 H 0.0563 0.1601 0.0166
C11_7 C 0.1042(3) 0.1236(3) 0.0662(3)
C12_7 C 0.0719(3) 0.1294(3) 0.0910(3)
H5_7 H 0.0539 0.1502 0.0860
H8_7 H 0.0885 0.4479 0.0053
H10_7 H 0.0864 0.5143 0.0049
O31_7 O 0.0504(4) 0.6521(4) 0.1667(4)
C27_7 C 0.0749(6) 0.6334(4) 0.1471(5)
C33_7 C 0.0267(3) 0.1509(3) 0.1642(3)
C34_7 C 0.1642(3) 0.0267(3) 0.1509(3)
H13_7 H 0.0428 0.1719 0.1553
H14_7 H 0.1553 0.0428 0.1719
C35_7 C 0.0349(3) 0.1129(3) 0.1516(3)
C36_7 C 0.1516(3) 0.0349(3) 0.1129(3)
C37_7 C 0.0116(3) 0.0829(3) 0.1673(3)
C38_7 C 0.1673(3) 0.0116(3) 0.0829(3)
H15_7 H 0.0166 0.0563 0.1601
H16_7 H 0.1601 0.0166 0.0563
C41_7 C 0.0662(3) 0.1042(3) 0.1236(3)
C42_7 C 0.1236(3) 0.0662(3) 0.1042(3)
C43_7 C 0.0910(3) 0.0719(3) 0.1294(3)
C44_7 C 0.1294(3) 0.0910(3) 0.0719(3)
H19_7 H 0.1502 0.0860 0.0539
H20_7 H 0.0860 0.0539 0.1502
C45_7 C 0.0664(4) 0.6146(3) 0.1100(4)
C47_7 C 0.0951(4) 0.5974(4) 0.0879(4)
H21_7 H 0.1213 0.5981 0.0976
C49_7 C 0.0882(4) 0.5788(4) 0.0517(4)
H23_7 H 0.1098 0.5687 0.0371
C51_7 C 0.0504(3) 0.5747(3) 0.0371(3)
C53_7 C 0.0212(3) 0.5909(3) 0.0607(3)
C55_7 C 0.0281(4) 0.6106(3) 0.0967(3)
H27_7 H 0.0067 0.6210 0.1115
C57_7 C 0.0417(2) 0.5536(2) 0.0017(2)
H33_7 H 0.0448674 0.6378 0.191583
O8_7 O 0.1521(4) 0.3333(4) 0.9496(4)
C3_7 C 0.1400(4) 0.2348(4) 0.9445(3)
C4_7 C 0.1334(4) 0.3529(5) 0.9251(6)
C5_7 C 0.1297(3) 0.2059(3) 0.9735(3)
C6_7 C 0.1591(3) 0.1892(3) 0.9959(3)
H1_7 H 0.1857 0.1951 0.9900
C10_7 C 0.0915(3) 0.1936(3) 0.9810(3)
H4_7 H 0.0707 0.2033 0.9651
C13_7 C 0.1146(3) 0.3900(4) 0.9336(4)
C14_7 C 0.0974(4) 0.4121(4) 0.9049(4)
H6_7 H 0.0981 0.4024 0.8787
C15_7 C 0.0788(4) 0.4483(4) 0.9118(4)
H7_7 H 0.0687 0.4629 0.8902
C16_7 C 0.0747(3) 0.4629(3) 0.9496(3)
C17_7 C 0.0909(3) 0.4393(3) 0.9788(3)
C18_7 C 0.1106(3) 0.4033(3) 0.9719(4)
H9_7 H 0.1210 0.3885 0.9933
C19_7 C 0.0536(2) 0.4983(2) 0.9583(2)
C20_6 C 0.0636(2) 0.5211(2) 0.9901(2)
C59_6 C 0.0099(2) 0.5636(2) 0.9789(2)
C60_6 C 0.0211(2) 0.5099(2) 0.9364(2)
H29_7 H 0.0143 0.4951 0.9136
H31_7 H 0.1378 0.308417 0.955133
C26_7 C 0.2348(4) 0.9445(3) 0.1400(4)
C30_7 C 0.2059(3) 0.9735(3) 0.1297(3)
C32_7 C 0.1892(3) 0.9959(3) 0.1591(3)
H12_7 H 0.1951 0.9900 0.1857
C40_7 C 0.1936(3) 0.9810(3) 0.0915(3)
H18_7 H 0.2033 0.9651 0.0707
C25_7 C 0.9445(3) 0.1400(4) 0.2348(4)
C29_7 C 0.9735(3) 0.1297(3) 0.2059(3)
C31_7 C 0.9959(3) 0.1591(3) 0.1892(3)
H11_7 H 0.9900 0.1857 0.1951
C39_7 C 0.9810(3) 0.0915(3) 0.1936(3)
H17_7 H 0.9651 0.0707 0.2033
H25_7 H 0.9947 0.5885 0.0521
O32_7 O 0.8333(4) 0.5504(4) 0.8479(4)
C28_7 C 0.8529(5) 0.5749(6) 0.8666(4)
C46_7 C 0.8900(4) 0.5664(4) 0.8854(3)
C48_7 C 0.9121(4) 0.5951(4) 0.9026(4)
H22_7 H 0.9024 0.6213 0.9019
C50_7 C 0.9483(4) 0.5882(4) 0.9212(4)
H24_7 H 0.9629 0.6098 0.9313
C52_7 C 0.9629(3) 0.5504(3) 0.9253(3)
C54_7 C 0.9393(3) 0.5212(3) 0.9091(3)
H26_7 H 0.9479 0.4947 0.9115
C56_7 C 0.9033(3) 0.5281(4) 0.8894(3)
H28_7 H 0.8885 0.5067 0.8790
C58_7 C 0.9983(2) 0.5417(2) 0.9464(2)
H30_7 H 0.9951 0.5864 0.9857
H32_7 H 0.808417 0.544867 0.8622
C26_8 C 0.2652(4) 0.0555(3) 0.6400(4)
C30_8 C 0.2941(3) 0.0265(3) 0.6297(3)
C32_8 C 0.3108(3) 0.0041(3) 0.6591(3)
H12_8 H 0.3049 0.0100 0.6857
C40_8 C 0.3064(3) 0.0190(3) 0.5915(3)
H18_8 H 0.2967 0.0349 0.5707
O8_8 O 0.3479(4) 0.6667(4) 0.4496(4)
C3_8 C 0.3600(4) 0.7652(4) 0.4445(3)
C4_8 C 0.3666(4) 0.6471(5) 0.4251(6)
C5_8 C 0.3703(3) 0.7941(3) 0.4735(3)
C6_8 C 0.3409(3) 0.8108(3) 0.4959(3)
H1_8 H 0.3143 0.8049 0.4900
C7_8 C 0.3491(3) 0.8358(3) 0.5267(3)
H2_8 H 0.3281 0.8447 0.5428
C8_8 C 0.3871(3) 0.8484(3) 0.5349(3)
C9_8 C 0.4171(3) 0.8327(3) 0.5116(3)
H3_8 H 0.4437 0.8399 0.5166
C10_8 C 0.4085(3) 0.8064(3) 0.4810(3)
H4_8 H 0.4293 0.7967 0.4651
C11_8 C 0.3958(3) 0.8764(3) 0.5662(3)
C12_8 C 0.4281(3) 0.8706(3) 0.5910(3)
H5_8 H 0.4461 0.8498 0.5860
C13_8 C 0.3854(3) 0.6100(4) 0.4336(4)
C14_8 C 0.4026(4) 0.5879(4) 0.4049(4)
H6_8 H 0.4019 0.5976 0.3787
C15_8 C 0.4212(4) 0.5517(4) 0.4118(4)
H7_8 H 0.4313 0.5371 0.3902
C16_8 C 0.4253(3) 0.5371(3) 0.4496(3)
C17_8 C 0.4091(3) 0.5607(3) 0.4788(3)
H8_8 H 0.4115 0.5521 0.5053
C18_8 C 0.3894(3) 0.5967(3) 0.4719(4)
H9_8 H 0.3790 0.6115 0.4933
C19_8 C 0.4464(2) 0.5017(2) 0.4583(2)
C20_7 C 0.4364(2) 0.4789(2) 0.4901(2)
H10_8 H 0.4136 0.4857 0.5049
O31_8 O 0.4496(4) 0.3479(4) 0.6667(4)
O32_8 O 0.6667(4) 0.4496(4) 0.3479(4)
C25_8 C 0.5555(3) 0.8600(4) 0.7348(4)
C27_8 C 0.4251(6) 0.3666(4) 0.6471(5)
C28_8 C 0.6471(5) 0.4251(6) 0.3666(4)
C29_8 C 0.5265(3) 0.8703(3) 0.7059(3)
C31_8 C 0.5041(3) 0.8409(3) 0.6892(3)
H11_8 H 0.5100 0.8143 0.6951
C33_8 C 0.4733(3) 0.8491(3) 0.6642(3)
C34_8 C 0.3358(3) 0.9733(3) 0.6509(3)
H13_8 H 0.4572 0.8281 0.6553
H14_8 H 0.3447 0.9572 0.6719
C35_8 C 0.4651(3) 0.8871(3) 0.6516(3)
C36_8 C 0.3484(3) 0.9651(3) 0.6129(3)
C37_8 C 0.4884(3) 0.9171(3) 0.6673(3)
C38_8 C 0.3327(3) 0.9884(3) 0.5829(3)
H15_8 H 0.4834 0.9437 0.6601
H16_8 H 0.3399 0.9834 0.5563
C39_8 C 0.5190(3) 0.9085(3) 0.6936(3)
H17_8 H 0.5349 0.9293 0.7033
C41_8 C 0.4338(3) 0.8958(3) 0.6236(3)
C42_8 C 0.3764(3) 0.9338(3) 0.6042(3)
C43_8 C 0.4090(3) 0.9281(3) 0.6294(3)
C44_8 C 0.3706(3) 0.9090(3) 0.5719(3)
H19_8 H 0.3498 0.9140 0.5539
H20_8 H 0.4140 0.9461 0.6502
C45_8 C 0.4336(4) 0.3854(3) 0.6100(4)
C46_8 C 0.6100(4) 0.4336(4) 0.3854(3)
C47_8 C 0.4049(4) 0.4026(4) 0.5879(4)
C48_8 C 0.5879(4) 0.4049(4) 0.4026(4)
H21_8 H 0.3787 0.4019 0.5976
H22_8 H 0.5976 0.3787 0.4019
C49_8 C 0.4118(4) 0.4212(4) 0.5517(4)
C50_8 C 0.5517(4) 0.4118(4) 0.4212(4)
H23_8 H 0.3902 0.4313 0.5371
H24_8 H 0.5371 0.3902 0.4313
C51_8 C 0.4496(3) 0.4253(3) 0.5371(3)
C52_8 C 0.5371(3) 0.4496(3) 0.4253(3)
C53_8 C 0.4788(3) 0.4091(3) 0.5607(3)
C54_8 C 0.5607(3) 0.4788(3) 0.4091(3)
H25_8 H 0.5053 0.4115 0.5521
H26_8 H 0.5521 0.5053 0.4115
C55_8 C 0.4719(4) 0.3894(3) 0.5967(3)
C56_8 C 0.5967(3) 0.4719(4) 0.3894(3)
H27_8 H 0.4933 0.3790 0.6115
H28_8 H 0.6115 0.4933 0.3790
C57_8 C 0.4583(2) 0.4464(2) 0.5017(2)
C58_8 C 0.5017(2) 0.4583(2) 0.4464(2)
C59_7 C 0.4901(2) 0.4364(2) 0.4789(2)
C60_7 C 0.4789(2) 0.4901(2) 0.4364(2)
H29_8 H 0.4857 0.5049 0.4136
H30_8 H 0.5049 0.4136 0.4857
H31_8 H 0.3622 0.691583 0.455133
H32_8 H 0.691583 0.455133 0.3622
H33_8 H 0.455133 0.3622 0.691583
C20_8 C 0.0636(2) 0.0211(2) 0.0099(2)
C59_8 C 0.0099(2) 0.0636(2) 0.0211(2)
C60_8 C 0.0211(2) 0.0099(2) 0.0636(2)
In1_5 In 0.159807(19) 0.215259(19) 0.387051(17)
O1_9 O 0.22128(16) 0.19808(18) 0.40064(17)
O2_9 O 0.18356(19) 0.18265(19) 0.33423(14)
O3_9 O 0.26989(15) 0.15897(17) 0.38386(17)
O4_9 O 0.23217(15) 0.14235(16) 0.31653(16)
O5_5 O 0.1728(3) 0.2524(2) 0.44062(18)
O6_5 O 0.1125(2) 0.2529(2) 0.4221(2)
O7_5 O 0.1281(3) 0.1625(3) 0.3939(4)
O8_9 O 0.1521(4) 0.1667(4) 0.4496(4)
C1_9 C 0.2389(2) 0.1739(3) 0.3782(2)
C2_9 C 0.2166(2) 0.1663(3) 0.3392(3)
C3_9 C 0.1400(4) 0.2652(4) 0.4445(3)
C4_9 C 0.1334(4) 0.1471(5) 0.4251(6)
C5_9 C 0.1297(3) 0.2941(3) 0.4735(3)
C6_9 C 0.1591(3) 0.3108(3) 0.4959(3)
H1_9 H 0.1857 0.3049 0.4900
C7_9 C 0.1509(3) 0.3358(3) 0.5267(3)
H2_9 H 0.1719 0.3447 0.5428
C8_9 C 0.1129(3) 0.3484(3) 0.5349(3)
C9_9 C 0.0829(3) 0.3327(3) 0.5116(3)
H3_9 H 0.0563 0.3399 0.5166
C10_9 C 0.0915(3) 0.3064(3) 0.4810(3)
H4_9 H 0.0707 0.2967 0.4651
C11_9 C 0.1042(3) 0.3764(3) 0.5662(3)
C12_9 C 0.0719(3) 0.3706(3) 0.5910(3)
H5_9 H 0.0539 0.3498 0.5860
C13_9 C 0.1146(3) 0.1100(4) 0.4336(4)
C14_9 C 0.0974(4) 0.0879(4) 0.4049(4)
H6_9 H 0.0981 0.0976 0.3787
C15_9 C 0.0788(4) 0.0517(4) 0.4118(4)
H7_9 H 0.0687 0.0371 0.3902
C16_9 C 0.0747(3) 0.0371(3) 0.4496(3)
C17_9 C 0.0909(3) 0.0607(3) 0.4788(3)
H8_9 H 0.0885 0.0521 0.5053
C18_9 C 0.1106(3) 0.0967(3) 0.4719(4)
H9_9 H 0.1210 0.1115 0.4933
C19_9 C 0.0536(2) 0.0017(2) 0.4583(2)
In2_5 In 0.112949(17) 0.340193(19) 0.284741(19)
In3_9 In 0.284741(19) 0.112949(17) 0.340193(19)
In5_2 In 0.284741(19) 0.612949(17) 0.659807(19)
In8_2 In 0.215259(19) 0.387051(17) 0.159807(19)
O9_5 O 0.09936(17) 0.27872(16) 0.30192(18)
O10_5 O 0.19808(18) 0.40064(17) 0.22128(16)
O11_9 O 0.30192(18) 0.09936(17) 0.27872(16)
O12_5 O 0.16577(14) 0.31644(19) 0.31735(19)
O13_5 O 0.18265(19) 0.33423(14) 0.18356(19)
O14_9 O 0.31735(19) 0.16577(14) 0.31644(19)
O15_13 O 0.11614(17) 0.23011(15) 0.34103(17)
O16_5 O 0.15897(17) 0.38386(17) 0.26989(15)
O17_13 O 0.18347(16) 0.26783(15) 0.35765(16)
O18_5 O 0.14235(16) 0.31653(16) 0.23217(15)
O20_5 O 0.2476(2) 0.55938(18) 0.6728(3)
O21_5 O 0.05938(18) 0.3272(3) 0.2476(2)
O22_9 O 0.2476(2) 0.05938(18) 0.3272(3)
O24_5 O 0.2471(2) 0.5779(2) 0.6125(2)
O25_5 O 0.0779(2) 0.3875(2) 0.2471(2)
O26_9 O 0.2471(2) 0.0779(2) 0.3875(2)
O29_5 O 0.1061(4) 0.3719(3) 0.3375(3)
O30_9 O 0.3375(3) 0.1061(4) 0.3719(3)
C21_13 C 0.1218(2) 0.2611(2) 0.3261(3)
C22_5 C 0.1739(3) 0.3782(2) 0.2389(2)
C23_13 C 0.1608(3) 0.2834(2) 0.3337(3)
C24_5 C 0.1663(3) 0.3392(3) 0.2166(2)
C26_9 C 0.2348(4) 0.5555(3) 0.6400(4)
C30_9 C 0.2059(3) 0.5265(3) 0.6297(3)
C32_9 C 0.1892(3) 0.5041(3) 0.6591(3)
H12_9 H 0.1951 0.5100 0.6857
C33_9 C 0.0267(3) 0.3491(3) 0.6642(3)
C34_9 C 0.1642(3) 0.4733(3) 0.6509(3)
H13_9 H 0.0428 0.3281 0.6553
H14_9 H 0.1553 0.4572 0.6719
C35_9 C 0.0349(3) 0.3871(3) 0.6516(3)
C36_9 C 0.1516(3) 0.4651(3) 0.6129(3)
C37_9 C 0.0116(3) 0.4171(3) 0.6673(3)
C38_9 C 0.1673(3) 0.4884(3) 0.5829(3)
H15_9 H 0.0166 0.4437 0.6601
H16_9 H 0.1601 0.4834 0.5563
C40_9 C 0.1936(3) 0.5190(3) 0.5915(3)
H18_9 H 0.2033 0.5349 0.5707
C41_9 C 0.0662(3) 0.3958(3) 0.6236(3)
C42_9 C 0.1236(3) 0.4338(3) 0.6042(3)
C43_9 C 0.0910(3) 0.4281(3) 0.6294(3)
C44_9 C 0.1294(3) 0.4090(3) 0.5719(3)
H19_9 H 0.1502 0.4140 0.5539
H20_9 H 0.0860 0.4461 0.6502
H29_9 H 0.0143 0.0049 0.4136
H31_9 H 0.1378 0.191583 0.455133
C20_9 C 0.0636(2) 0.9789(2) 0.4901(2)
H10_9 H 0.0864 0.9857 0.5049
In6_3 In 0.112949(17) 0.840193(19) 0.715259(19)
O27_5 O 0.1061(4) 0.8719(3) 0.6625(3)
O31_9 O 0.0504(4) 0.8479(4) 0.6667(4)
C27_9 C 0.0749(6) 0.8666(4) 0.6471(5)
C45_9 C 0.0664(4) 0.8854(3) 0.6100(4)
C47_9 C 0.0951(4) 0.9026(4) 0.5879(4)
H21_9 H 0.1213 0.9019 0.5976
C49_9 C 0.0882(4) 0.9212(4) 0.5517(4)
H23_9 H 0.1098 0.9313 0.5371
C51_9 C 0.0504(3) 0.9253(3) 0.5371(3)
C53_9 C 0.0212(3) 0.9091(3) 0.5607(3)
C55_9 C 0.0281(4) 0.8894(3) 0.5967(3)
H27_9 H 0.0067 0.8790 0.6115
C57_9 C 0.0417(2) 0.9464(2) 0.5017(2)
C59_9 C 0.0099(2) 0.9364(2) 0.4789(2)
C60_9 C 0.0211(2) 0.9901(2) 0.4364(2)
H33_9 H 0.0448674 0.8622 0.691583
In4_3 In 0.887051(17) 0.340193(19) 0.784741(19)
O19_5 O 0.94062(18) 0.3272(3) 0.7476(2)
O23_5 O 0.9221(2) 0.3875(2) 0.7471(2)
C25_9 C 0.9445(3) 0.3600(4) 0.7348(4)
C29_9 C 0.9735(3) 0.3703(3) 0.7059(3)
C31_9 C 0.9959(3) 0.3409(3) 0.6892(3)
H11_9 H 0.9900 0.3143 0.6951
C39_9 C 0.9810(3) 0.4085(3) 0.6936(3)
H17_9 H 0.9651 0.4293 0.7033
H26_9 H 0.9479 0.0053 0.4115
In7_3 In 0.784741(19) 0.887051(17) 0.340193(19)
O28_5 O 0.8375(3) 0.8939(4) 0.3719(3)
O32_9 O 0.8333(4) 0.9496(4) 0.3479(4)
C28_9 C 0.8529(5) 0.9251(6) 0.3666(4)
C46_9 C 0.8900(4) 0.9336(4) 0.3854(3)
C48_9 C 0.9121(4) 0.9049(4) 0.4026(4)
H22_9 H 0.9024 0.8787 0.4019
C50_9 C 0.9483(4) 0.9118(4) 0.4212(4)
H24_9 H 0.9629 0.8902 0.4313
C52_9 C 0.9629(3) 0.9496(3) 0.4253(3)
C54_9 C 0.9393(3) 0.9788(3) 0.4091(3)
H25_9 H 0.9947 0.9115 0.5521
C56_9 C 0.9033(3) 0.9719(4) 0.3894(3)
H28_9 H 0.8885 0.9933 0.3790
C58_9 C 0.9983(2) 0.9583(2) 0.4464(2)
H30_9 H 0.9951 0.9136 0.4857
H32_9 H 0.808417 0.955133 0.3622
H10_10 H 0.4136 0.0143 0.0049
In6_4 In 0.387051(17) 0.159807(19) 0.215259(19)
O27_6 O 0.3939(4) 0.1281(3) 0.1625(3)
O31_10 O 0.4496(4) 0.1521(4) 0.1667(4)
C27_10 C 0.4251(6) 0.1334(4) 0.1471(5)
C45_10 C 0.4336(4) 0.1146(3) 0.1100(4)
C47_10 C 0.4049(4) 0.0974(4) 0.0879(4)
H21_10 H 0.3787 0.0981 0.0976
C49_10 C 0.4118(4) 0.0788(4) 0.0517(4)
H23_10 H 0.3902 0.0687 0.0371
C51_10 C 0.4496(3) 0.0747(3) 0.0371(3)
C53_10 C 0.4788(3) 0.0909(3) 0.0607(3)
H25_10 H 0.5053 0.0885 0.0521
C55_10 C 0.4719(4) 0.1106(3) 0.0967(3)
H27_10 H 0.4933 0.1210 0.1115
C57_10 C 0.4583(2) 0.0536(2) 0.0017(2)
H33_10 H 0.455133 0.1378 0.191583
C20_10 C 0.4364(2) 0.0211(2) 0.9901(2)
In7_4 In 0.715259(19) 0.112949(17) 0.840193(19)
O28_6 O 0.6625(3) 0.1061(4) 0.8719(3)
O32_10 O 0.6667(4) 0.0504(4) 0.8479(4)
C28_10 C 0.6471(5) 0.0749(6) 0.8666(4)
C46_10 C 0.6100(4) 0.0664(4) 0.8854(3)
C48_10 C 0.5879(4) 0.0951(4) 0.9026(4)
H22_10 H 0.5976 0.1213 0.9019
C50_10 C 0.5517(4) 0.0882(4) 0.9212(4)
H24_10 H 0.5371 0.1098 0.9313
C52_10 C 0.5371(3) 0.0504(3) 0.9253(3)
C54_10 C 0.5607(3) 0.0212(3) 0.9091(3)
C56_10 C 0.5967(3) 0.0281(4) 0.8894(3)
H28_10 H 0.6115 0.0067 0.8790
C58_10 C 0.5017(2) 0.0417(2) 0.9464(2)
C59_10 C 0.4901(2) 0.0636(2) 0.9789(2)
C60_10 C 0.4789(2) 0.0099(2) 0.9364(2)
H30_10 H 0.5049 0.0864 0.9857
H32_10 H 0.691583 0.0448674 0.8622
C7_10 C 0.3491(3) 0.6642(3) 0.0267(3)
H2_10 H 0.3281 0.6553 0.0428
C8_10 C 0.3871(3) 0.6516(3) 0.0349(3)
C9_10 C 0.4171(3) 0.6673(3) 0.0116(3)
H3_10 H 0.4437 0.6601 0.0166
C11_10 C 0.3958(3) 0.6236(3) 0.0662(3)
C12_10 C 0.4281(3) 0.6294(3) 0.0910(3)
H5_10 H 0.4461 0.6502 0.0860
H8_10 H 0.4115 0.9479 0.0053
In4_4 In 0.612949(17) 0.659807(19) 0.284741(19)
O19_6 O 0.55938(18) 0.6728(3) 0.2476(2)
O20_6 O 0.2524(2) 0.44062(18) 0.1728(3)
O23_6 O 0.5779(2) 0.6125(2) 0.2471(2)
O24_6 O 0.2529(2) 0.4221(2) 0.1125(2)
C25_10 C 0.5555(3) 0.6400(4) 0.2348(4)
C26_10 C 0.2652(4) 0.4445(3) 0.1400(4)
C29_10 C 0.5265(3) 0.6297(3) 0.2059(3)
C30_10 C 0.2941(3) 0.4735(3) 0.1297(3)
C31_10 C 0.5041(3) 0.6591(3) 0.1892(3)
C32_10 C 0.3108(3) 0.4959(3) 0.1591(3)
H11_10 H 0.5100 0.6857 0.1951
H12_10 H 0.3049 0.4900 0.1857
C33_10 C 0.4733(3) 0.6509(3) 0.1642(3)
C34_10 C 0.3358(3) 0.5267(3) 0.1509(3)
H13_10 H 0.4572 0.6719 0.1553
H14_10 H 0.3447 0.5428 0.1719
C35_10 C 0.4651(3) 0.6129(3) 0.1516(3)
C36_10 C 0.3484(3) 0.5349(3) 0.1129(3)
C37_10 C 0.4884(3) 0.5829(3) 0.1673(3)
C38_10 C 0.3327(3) 0.5116(3) 0.0829(3)
H15_10 H 0.4834 0.5563 0.1601
H16_10 H 0.3399 0.5166 0.0563
C39_10 C 0.5190(3) 0.5915(3) 0.1936(3)
C40_10 C 0.3064(3) 0.4810(3) 0.0915(3)
H17_10 H 0.5349 0.5707 0.2033
H18_10 H 0.2967 0.4651 0.0707
C41_10 C 0.4338(3) 0.6042(3) 0.1236(3)
C42_10 C 0.3764(3) 0.5662(3) 0.1042(3)
C43_10 C 0.4090(3) 0.5719(3) 0.1294(3)
C44_10 C 0.3706(3) 0.5910(3) 0.0719(3)
H19_10 H 0.3498 0.5860 0.0539
H20_10 H 0.4140 0.5539 0.1502
In1_6 In 0.340193(19) 0.784741(19) 0.887051(17)
O1_10 O 0.27872(16) 0.80192(18) 0.90064(17)
O2_10 O 0.31644(19) 0.81735(19) 0.83423(14)
O3_10 O 0.23011(15) 0.84103(17) 0.88386(17)
O4_10 O 0.26783(15) 0.85765(16) 0.81653(16)
O5_6 O 0.3272(3) 0.7476(2) 0.94062(18)
O6_6 O 0.3875(2) 0.7471(2) 0.9221(2)
O7_6 O 0.3719(3) 0.8375(3) 0.8939(4)
O8_10 O 0.3479(4) 0.8333(4) 0.9496(4)
C1_10 C 0.2611(2) 0.8261(3) 0.8782(2)
C2_10 C 0.2834(2) 0.8337(3) 0.8392(3)
C3_10 C 0.3600(4) 0.7348(4) 0.9445(3)
C4_10 C 0.3666(4) 0.8529(5) 0.9251(6)
C5_10 C 0.3703(3) 0.7059(3) 0.9735(3)
C6_10 C 0.3409(3) 0.6892(3) 0.9959(3)
H1_10 H 0.3143 0.6951 0.9900
C10_10 C 0.4085(3) 0.6936(3) 0.9810(3)
H4_10 H 0.4293 0.7033 0.9651
C13_10 C 0.3854(3) 0.8900(4) 0.9336(4)
C14_10 C 0.4026(4) 0.9121(4) 0.9049(4)
H6_10 H 0.4019 0.9024 0.8787
C15_10 C 0.4212(4) 0.9483(4) 0.9118(4)
H7_10 H 0.4313 0.9629 0.8902
C16_10 C 0.4253(3) 0.9629(3) 0.9496(3)
C17_10 C 0.4091(3) 0.9393(3) 0.9788(3)
C18_10 C 0.3894(3) 0.9033(3) 0.9719(4)
H9_10 H 0.3790 0.8885 0.9933
C19_10 C 0.4464(2) 0.9983(2) 0.9583(2)
In2_6 In 0.387051(17) 0.659807(19) 0.784741(19)
In3_10 In 0.215259(19) 0.887051(17) 0.840193(19)
O9_6 O 0.40064(17) 0.72128(16) 0.80192(18)
O10_6 O 0.30192(18) 0.59936(17) 0.72128(16)
O11_10 O 0.19808(18) 0.90064(17) 0.77872(16)
O12_6 O 0.33423(14) 0.68356(19) 0.81735(19)
O13_6 O 0.31735(19) 0.66577(14) 0.68356(19)
O14_10 O 0.18265(19) 0.83423(14) 0.81644(19)
O15_14 O 0.38386(17) 0.76989(15) 0.84103(17)
O16_6 O 0.34103(17) 0.61614(17) 0.76989(15)
O17_14 O 0.31653(16) 0.73217(15) 0.85765(16)
O18_6 O 0.35765(16) 0.68347(16) 0.73217(15)
O21_6 O 0.44062(18) 0.6728(3) 0.7476(2)
O22_10 O 0.2524(2) 0.94062(18) 0.8272(3)
O25_6 O 0.4221(2) 0.6125(2) 0.7471(2)
O26_10 O 0.2529(2) 0.9221(2) 0.8875(2)
O29_6 O 0.3939(4) 0.6281(3) 0.8375(3)
O30_10 O 0.1625(3) 0.8939(4) 0.8719(3)
C21_14 C 0.3782(2) 0.7389(2) 0.8261(3)
C22_6 C 0.3261(3) 0.6218(2) 0.7389(2)
C23_14 C 0.3392(3) 0.7166(2) 0.8337(3)
C24_6 C 0.3337(3) 0.6608(3) 0.7166(2)
H26_10 H 0.5521 0.9947 0.9115
H29_10 H 0.4857 0.9951 0.9136
H31_10 H 0.3622 0.808417 0.955133
O28_7 O 0.1625(3) 0.3939(4) 0.1281(3)
O32_11 O 0.1667(4) 0.4496(4) 0.1521(4)
C28_11 C 0.1471(5) 0.4251(6) 0.1334(4)
C46_11 C 0.1100(4) 0.4336(4) 0.1146(3)
C48_11 C 0.0879(4) 0.4049(4) 0.0974(4)
H22_11 H 0.0976 0.3787 0.0981
C50_11 C 0.0517(4) 0.4118(4) 0.0788(4)
H24_11 H 0.0371 0.3902 0.0687
C52_11 C 0.0371(3) 0.4496(3) 0.0747(3)
C54_11 C 0.0607(3) 0.4788(3) 0.0909(3)
H26_11 H 0.0521 0.5053 0.0885
C56_11 C 0.0967(3) 0.4719(4) 0.1106(3)
H28_11 H 0.1115 0.4933 0.1210
C58_11 C 0.0017(2) 0.4583(2) 0.0536(2)
H30_11 H 0.0049 0.4136 0.0143
H32_11 H 0.191583 0.455133 0.1378
O19_7 O 0.05938(18) 0.8272(3) 0.7524(2)
O23_7 O 0.0779(2) 0.8875(2) 0.7529(2)
C25_11 C 0.0555(3) 0.8600(4) 0.7652(4)
C29_11 C 0.0265(3) 0.8703(3) 0.7941(3)
C31_11 C 0.0041(3) 0.8409(3) 0.8108(3)
H11_11 H 0.0100 0.8143 0.8049
C39_11 C 0.0190(3) 0.9085(3) 0.8064(3)
H17_11 H 0.0349 0.9293 0.7967
H25_11 H 0.0053 0.4115 0.9479
O20_7 O 0.7524(2) 0.05938(18) 0.8272(3)
O24_7 O 0.7529(2) 0.0779(2) 0.8875(2)
C26_11 C 0.7652(4) 0.0555(3) 0.8600(4)
C30_11 C 0.7941(3) 0.0265(3) 0.8703(3)
C32_11 C 0.8108(3) 0.0041(3) 0.8409(3)
H12_11 H 0.8049 0.0100 0.8143
C40_11 C 0.8064(3) 0.0190(3) 0.9085(3)
H18_11 H 0.7967 0.0349 0.9293
In1_7 In 0.840193(19) 0.715259(19) 0.112949(17)
O1_11 O 0.77872(16) 0.69808(18) 0.09936(17)
O2_11 O 0.81644(19) 0.68265(19) 0.16577(14)
O3_11 O 0.73011(15) 0.65897(17) 0.11614(17)
O4_11 O 0.76783(15) 0.64235(16) 0.18347(16)
O5_7 O 0.8272(3) 0.7524(2) 0.05938(18)
O6_7 O 0.8875(2) 0.7529(2) 0.0779(2)
O7_7 O 0.8719(3) 0.6625(3) 0.1061(4)
O8_11 O 0.8479(4) 0.6667(4) 0.0504(4)
C1_11 C 0.7611(2) 0.6739(3) 0.1218(2)
C2_11 C 0.7834(2) 0.6663(3) 0.1608(3)
C3_11 C 0.8600(4) 0.7652(4) 0.0555(3)
C4_11 C 0.8666(4) 0.6471(5) 0.0749(6)
C5_11 C 0.8703(3) 0.7941(3) 0.0265(3)
C6_11 C 0.8409(3) 0.8108(3) 0.0041(3)
H1_11 H 0.8143 0.8049 0.0100
C10_11 C 0.9085(3) 0.8064(3) 0.0190(3)
H4_11 H 0.9293 0.7967 0.0349
C13_11 C 0.8854(3) 0.6100(4) 0.0664(4)
C14_11 C 0.9026(4) 0.5879(4) 0.0951(4)
H6_11 H 0.9019 0.5976 0.1213
C15_11 C 0.9212(4) 0.5517(4) 0.0882(4)
H7_11 H 0.9313 0.5371 0.1098
C16_11 C 0.9253(3) 0.5371(3) 0.0504(3)
C17_11 C 0.9091(3) 0.5607(3) 0.0212(3)
C18_11 C 0.8894(3) 0.5967(3) 0.0281(4)
H9_11 H 0.8790 0.6115 0.0067
C19_11 C 0.9464(2) 0.5017(2) 0.0417(2)
C20_11 C 0.9364(2) 0.4789(2) 0.0099(2)
In2_7 In 0.887051(17) 0.840193(19) 0.215259(19)
In3_11 In 0.715259(19) 0.612949(17) 0.159807(19)
O9_7 O 0.90064(17) 0.77872(16) 0.19808(18)
O10_7 O 0.80192(18) 0.90064(17) 0.27872(16)
O11_11 O 0.69808(18) 0.59936(17) 0.22128(16)
O12_7 O 0.83423(14) 0.81644(19) 0.18265(19)
O13_7 O 0.81735(19) 0.83423(14) 0.31644(19)
O14_11 O 0.68265(19) 0.66577(14) 0.18356(19)
O15_15 O 0.88386(17) 0.73011(15) 0.15897(17)
O16_7 O 0.84103(17) 0.88386(17) 0.23011(15)
O17_15 O 0.81653(16) 0.76783(15) 0.14235(16)
O18_7 O 0.85765(16) 0.81653(16) 0.26783(15)
O21_7 O 0.94062(18) 0.8272(3) 0.2524(2)
O22_11 O 0.7524(2) 0.55938(18) 0.1728(3)
O25_7 O 0.9221(2) 0.8875(2) 0.2529(2)
O26_11 O 0.7529(2) 0.5779(2) 0.1125(2)
O29_7 O 0.8939(4) 0.8719(3) 0.1625(3)
O30_11 O 0.6625(3) 0.6061(4) 0.1281(3)
C21_15 C 0.8782(2) 0.7611(2) 0.1739(3)
C22_7 C 0.8261(3) 0.8782(2) 0.2611(2)
C23_15 C 0.8392(3) 0.7834(2) 0.1663(3)
C24_7 C 0.8337(3) 0.8392(3) 0.2834(2)
C59_11 C 0.9901(2) 0.4364(2) 0.0211(2)
C60_11 C 0.9789(2) 0.4901(2) 0.0636(2)
H29_11 H 0.9857 0.5049 0.0864
H31_11 H 0.8622 0.691583 0.0448674
C7_11 C 0.8491(3) 0.8358(3) 0.9733(3)
H2_11 H 0.8281 0.8447 0.9572
C8_11 C 0.8871(3) 0.8484(3) 0.9651(3)
C9_11 C 0.9171(3) 0.8327(3) 0.9884(3)
H3_11 H 0.9437 0.8399 0.9834
C11_11 C 0.8958(3) 0.8764(3) 0.9338(3)
C12_11 C 0.9281(3) 0.8706(3) 0.9090(3)
H5_11 H 0.9461 0.8498 0.9140
H8_11 H 0.9115 0.5521 0.9947
H10_11 H 0.9136 0.4857 0.9951
O27_7 O 0.8939(4) 0.3719(3) 0.8375(3)
O31_11 O 0.9496(4) 0.3479(4) 0.8333(4)
C27_11 C 0.9251(6) 0.3666(4) 0.8529(5)
C33_11 C 0.9733(3) 0.8491(3) 0.8358(3)
C34_11 C 0.8358(3) 0.9733(3) 0.8491(3)
H13_11 H 0.9572 0.8281 0.8447
H14_11 H 0.8447 0.9572 0.8281
C35_11 C 0.9651(3) 0.8871(3) 0.8484(3)
C36_11 C 0.8484(3) 0.9651(3) 0.8871(3)
C37_11 C 0.9884(3) 0.9171(3) 0.8327(3)
C38_11 C 0.8327(3) 0.9884(3) 0.9171(3)
H15_11 H 0.9834 0.9437 0.8399
H16_11 H 0.8399 0.9834 0.9437
C41_11 C 0.9338(3) 0.8958(3) 0.8764(3)
C42_11 C 0.8764(3) 0.9338(3) 0.8958(3)
C43_11 C 0.9090(3) 0.9281(3) 0.8706(3)
C44_11 C 0.8706(3) 0.9090(3) 0.9281(3)
H19_11 H 0.8498 0.9140 0.9461
H20_11 H 0.9140 0.9461 0.8498
C45_11 C 0.9336(4) 0.3854(3) 0.8900(4)
C47_11 C 0.9049(4) 0.4026(4) 0.9121(4)
H21_11 H 0.8787 0.4019 0.9024
C49_11 C 0.9118(4) 0.4212(4) 0.9483(4)
H23_11 H 0.8902 0.4313 0.9629
C51_11 C 0.9496(3) 0.4253(3) 0.9629(3)
C53_11 C 0.9788(3) 0.4091(3) 0.9393(3)
C55_11 C 0.9719(4) 0.3894(3) 0.9033(3)
H27_11 H 0.9933 0.3790 0.8885
C57_11 C 0.9583(2) 0.4464(2) 0.9983(2)
H33_11 H 0.955133 0.3622 0.808417
In1_8 In 0.659807(19) 0.284741(19) 0.612949(17)
O1_12 O 0.72128(16) 0.30192(18) 0.59936(17)
O2_12 O 0.68356(19) 0.31735(19) 0.66577(14)
O3_12 O 0.76989(15) 0.34103(17) 0.61614(17)
O4_12 O 0.73217(15) 0.35765(16) 0.68347(16)
O5_8 O 0.6728(3) 0.2476(2) 0.55938(18)
O6_8 O 0.6125(2) 0.2471(2) 0.5779(2)
O7_8 O 0.6281(3) 0.3375(3) 0.6061(4)
O8_12 O 0.6521(4) 0.3333(4) 0.5504(4)
C1_12 C 0.7389(2) 0.3261(3) 0.6218(2)
C2_12 C 0.7166(2) 0.3337(3) 0.6608(3)
C3_12 C 0.6400(4) 0.2348(4) 0.5555(3)
C4_12 C 0.6334(4) 0.3529(5) 0.5749(6)
C5_12 C 0.6297(3) 0.2059(3) 0.5265(3)
C6_12 C 0.6591(3) 0.1892(3) 0.5041(3)
H1_12 H 0.6857 0.1951 0.5100
C7_12 C 0.6509(3) 0.1642(3) 0.4733(3)
H2_12 H 0.6719 0.1553 0.4572
C8_12 C 0.6129(3) 0.1516(3) 0.4651(3)
C9_12 C 0.5829(3) 0.1673(3) 0.4884(3)
H3_12 H 0.5563 0.1601 0.4834
C10_12 C 0.5915(3) 0.1936(3) 0.5190(3)
H4_12 H 0.5707 0.2033 0.5349
C11_12 C 0.6042(3) 0.1236(3) 0.4338(3)
C12_12 C 0.5719(3) 0.1294(3) 0.4090(3)
H5_12 H 0.5539 0.1502 0.4140
C13_12 C 0.6146(3) 0.3900(4) 0.5664(4)
C14_12 C 0.5974(4) 0.4121(4) 0.5951(4)
H6_12 H 0.5981 0.4024 0.6213
C15_12 C 0.5788(4) 0.4483(4) 0.5882(4)
H7_12 H 0.5687 0.4629 0.6098
C16_12 C 0.5747(3) 0.4629(3) 0.5504(3)
C17_12 C 0.5909(3) 0.4393(3) 0.5212(3)
H8_12 H 0.5885 0.4479 0.4947
C18_12 C 0.6106(3) 0.4033(3) 0.5281(4)
H9_12 H 0.6210 0.3885 0.5067
C19_12 C 0.5536(2) 0.4983(2) 0.5417(2)
C20_12 C 0.5636(2) 0.5211(2) 0.5099(2)
H10_12 H 0.5864 0.5143 0.4951
In2_8 In 0.612949(17) 0.159807(19) 0.715259(19)
In3_12 In 0.784741(19) 0.387051(17) 0.659807(19)
O9_8 O 0.59936(17) 0.22128(16) 0.69808(18)
O10_8 O 0.69808(18) 0.09936(17) 0.77872(16)
O11_12 O 0.80192(18) 0.40064(17) 0.72128(16)
O12_8 O 0.66577(14) 0.18356(19) 0.68265(19)
O13_8 O 0.68265(19) 0.16577(14) 0.81644(19)
O14_12 O 0.81735(19) 0.33423(14) 0.68356(19)
O15_16 O 0.61614(17) 0.26989(15) 0.65897(17)
O16_8 O 0.65897(17) 0.11614(17) 0.73011(15)
O17_16 O 0.68347(16) 0.23217(15) 0.64235(16)
O18_8 O 0.64235(16) 0.18347(16) 0.76783(15)
O19_8 O 0.44062(18) 0.1728(3) 0.2524(2)
O21_8 O 0.55938(18) 0.1728(3) 0.7524(2)
O22_12 O 0.7476(2) 0.44062(18) 0.6728(3)
O23_8 O 0.4221(2) 0.1125(2) 0.2529(2)
O25_8 O 0.5779(2) 0.1125(2) 0.7529(2)
O26_12 O 0.7471(2) 0.4221(2) 0.6125(2)
O27_8 O 0.6061(4) 0.6281(3) 0.3375(3)
O28_8 O 0.3375(3) 0.6061(4) 0.6281(3)
O29_8 O 0.6061(4) 0.1281(3) 0.6625(3)
O30_12 O 0.8375(3) 0.3939(4) 0.6281(3)
O31_12 O 0.5504(4) 0.6521(4) 0.3333(4)
O32_12 O 0.3333(4) 0.5504(4) 0.6521(4)
C21_16 C 0.6218(2) 0.2389(2) 0.6739(3)
C22_8 C 0.6739(3) 0.1218(2) 0.7611(2)
C23_16 C 0.6608(3) 0.2166(2) 0.6663(3)
C24_8 C 0.6663(3) 0.1608(3) 0.7834(2)
C25_12 C 0.4445(3) 0.1400(4) 0.2652(4)
C27_12 C 0.5749(6) 0.6334(4) 0.3529(5)
C28_12 C 0.3529(5) 0.5749(6) 0.6334(4)
C29_12 C 0.4735(3) 0.1297(3) 0.2941(3)
C31_12 C 0.4959(3) 0.1591(3) 0.3108(3)
H11_12 H 0.4900 0.1857 0.3049
C33_12 C 0.5267(3) 0.1509(3) 0.3358(3)
C34_12 C 0.6642(3) 0.0267(3) 0.3491(3)
H13_12 H 0.5428 0.1719 0.3447
H14_12 H 0.6553 0.0428 0.3281
C35_12 C 0.5349(3) 0.1129(3) 0.3484(3)
C36_12 C 0.6516(3) 0.0349(3) 0.3871(3)
C37_12 C 0.5116(3) 0.0829(3) 0.3327(3)
C38_12 C 0.6673(3) 0.0116(3) 0.4171(3)
H15_12 H 0.5166 0.0563 0.3399
H16_12 H 0.6601 0.0166 0.4437
C39_12 C 0.4810(3) 0.0915(3) 0.3064(3)
H17_12 H 0.4651 0.0707 0.2967
C41_12 C 0.5662(3) 0.1042(3) 0.3764(3)
C42_12 C 0.6236(3) 0.0662(3) 0.3958(3)
C43_12 C 0.5910(3) 0.0719(3) 0.3706(3)
C44_12 C 0.6294(3) 0.0910(3) 0.4281(3)
H19_12 H 0.6502 0.0860 0.4461
H20_12 H 0.5860 0.0539 0.3498
C45_12 C 0.5664(4) 0.6146(3) 0.3900(4)
C46_12 C 0.3900(4) 0.5664(4) 0.6146(3)
C47_12 C 0.5951(4) 0.5974(4) 0.4121(4)
C48_12 C 0.4121(4) 0.5951(4) 0.5974(4)
H21_12 H 0.6213 0.5981 0.4024
H22_12 H 0.4024 0.6213 0.5981
C49_12 C 0.5882(4) 0.5788(4) 0.4483(4)
C50_12 C 0.4483(4) 0.5882(4) 0.5788(4)
H23_12 H 0.6098 0.5687 0.4629
H24_12 H 0.4629 0.6098 0.5687
C51_12 C 0.5504(3) 0.5747(3) 0.4629(3)
C52_12 C 0.4629(3) 0.5504(3) 0.5747(3)
C53_12 C 0.5212(3) 0.5909(3) 0.4393(3)
C54_12 C 0.4393(3) 0.5212(3) 0.5909(3)
H25_12 H 0.4947 0.5885 0.4479
H26_12 H 0.4479 0.4947 0.5885
C55_12 C 0.5281(4) 0.6106(3) 0.4033(3)
C56_12 C 0.4033(3) 0.5281(4) 0.6106(3)
H27_12 H 0.5067 0.6210 0.3885
H28_12 H 0.3885 0.5067 0.6210
C57_12 C 0.5417(2) 0.5536(2) 0.4983(2)
C58_12 C 0.4983(2) 0.5417(2) 0.5536(2)
C59_12 C 0.5099(2) 0.5636(2) 0.5211(2)
C60_12 C 0.5211(2) 0.5099(2) 0.5636(2)
H29_12 H 0.5143 0.4951 0.5864
H30_12 H 0.4951 0.5864 0.5143
H31_12 H 0.6378 0.308417 0.544867
H32_12 H 0.308417 0.544867 0.6378
H33_12 H 0.544867 0.6378 0.308417
O20_8 O 0.7476(2) 0.94062(18) 0.3272(3)
O24_8 O 0.7471(2) 0.9221(2) 0.3875(2)
C26_12 C 0.7348(4) 0.9445(3) 0.3600(4)
C30_12 C 0.7059(3) 0.9735(3) 0.3703(3)
C32_12 C 0.6892(3) 0.9959(3) 0.3409(3)
H12_12 H 0.6951 0.9900 0.3143
C40_12 C 0.6936(3) 0.9810(3) 0.4085(3)
H18_12 H 0.7033 0.9651 0.4293
O1_13 O 0.40064(17) 0.22128(16) 0.19808(18)
O2_13 O 0.33423(14) 0.18356(19) 0.18265(19)
O3_13 O 0.38386(17) 0.26989(15) 0.15897(17)
O4_13 O 0.31653(16) 0.23217(15) 0.14235(16)
C1_13 C 0.3782(2) 0.2389(2) 0.1739(3)
C2_13 C 0.3392(3) 0.2166(2) 0.1663(3)
In3_13 In 0.340193(19) 0.284741(19) 0.112949(17)
O11_13 O 0.27872(16) 0.30192(18) 0.09936(17)
O14_13 O 0.31644(19) 0.31735(19) 0.16577(14)
O15_17 O 0.34103(17) 0.11614(17) 0.23011(15)
O17_17 O 0.35765(16) 0.18347(16) 0.26783(15)
O22_13 O 0.3272(3) 0.2476(2) 0.05938(18)
O26_13 O 0.3875(2) 0.2471(2) 0.0779(2)
O30_13 O 0.3719(3) 0.3375(3) 0.1061(4)
C21_17 C 0.3261(3) 0.1218(2) 0.2611(2)
C23_17 C 0.3337(3) 0.1608(3) 0.2834(2)
O1_14 O 0.90064(17) 0.27872(16) 0.80192(18)
O2_14 O 0.83423(14) 0.31644(19) 0.81735(19)
O3_14 O 0.88386(17) 0.23011(15) 0.84103(17)
O4_14 O 0.81653(16) 0.26783(15) 0.85765(16)
C1_14 C 0.8782(2) 0.2611(2) 0.8261(3)
C2_14 C 0.8392(3) 0.2834(2) 0.8337(3)
In3_14 In 0.840193(19) 0.215259(19) 0.887051(17)
O11_14 O 0.77872(16) 0.19808(18) 0.90064(17)
O14_14 O 0.81644(19) 0.18265(19) 0.83423(14)
O15_18 O 0.84103(17) 0.38386(17) 0.76989(15)
O17_18 O 0.85765(16) 0.31653(16) 0.73217(15)
O22_14 O 0.8272(3) 0.2524(2) 0.94062(18)
O26_14 O 0.8875(2) 0.2529(2) 0.9221(2)
O30_14 O 0.8719(3) 0.1625(3) 0.8939(4)
C21_18 C 0.8261(3) 0.3782(2) 0.7389(2)
C23_18 C 0.8337(3) 0.3392(3) 0.7166(2)
O1_15 O 0.09936(17) 0.77872(16) 0.69808(18)
O2_15 O 0.16577(14) 0.81644(19) 0.68265(19)
O3_15 O 0.11614(17) 0.73011(15) 0.65897(17)
O4_15 O 0.18347(16) 0.76783(15) 0.64235(16)
C1_15 C 0.1218(2) 0.7611(2) 0.6739(3)
C2_15 C 0.1608(3) 0.7834(2) 0.6663(3)
In3_15 In 0.159807(19) 0.715259(19) 0.612949(17)
O11_15 O 0.22128(16) 0.69808(18) 0.59936(17)
O14_15 O 0.18356(19) 0.68265(19) 0.66577(14)
O15_19 O 0.15897(17) 0.88386(17) 0.73011(15)
O17_19 O 0.14235(16) 0.81653(16) 0.76783(15)
O22_15 O 0.1728(3) 0.7524(2) 0.55938(18)
O26_15 O 0.1125(2) 0.7529(2) 0.5779(2)
O30_15 O 0.1281(3) 0.6625(3) 0.6061(4)
C21_19 C 0.1739(3) 0.8782(2) 0.7611(2)
C23_19 C 0.1663(3) 0.8392(3) 0.7834(2)
O1_16 O 0.59936(17) 0.72128(16) 0.30192(18)
O2_16 O 0.66577(14) 0.68356(19) 0.31735(19)
O3_16 O 0.61614(17) 0.76989(15) 0.34103(17)
O4_16 O 0.68347(16) 0.73217(15) 0.35765(16)
C1_16 C 0.6218(2) 0.7389(2) 0.3261(3)
C2_16 C 0.6608(3) 0.7166(2) 0.3337(3)
In3_16 In 0.659807(19) 0.784741(19) 0.387051(17)
O11_16 O 0.72128(16) 0.80192(18) 0.40064(17)
O14_16 O 0.68356(19) 0.81735(19) 0.33423(14)
O15_20 O 0.65897(17) 0.61614(17) 0.26989(15)
O17_20 O 0.64235(16) 0.68347(16) 0.23217(15)
O22_16 O 0.6728(3) 0.7476(2) 0.44062(18)
O26_16 O 0.6125(2) 0.7471(2) 0.4221(2)
O30_16 O 0.6281(3) 0.8375(3) 0.3939(4)
C21_20 C 0.6739(3) 0.6218(2) 0.2389(2)
C23_20 C 0.6663(3) 0.6608(3) 0.2166(2)
O15_21 O 0.23011(15) 0.34103(17) 0.11614(17)
O17_21 O 0.26783(15) 0.35765(16) 0.18347(16)
C21_21 C 0.2611(2) 0.3261(3) 0.1218(2)
C23_21 C 0.2834(2) 0.3337(3) 0.1608(3)
O15_22 O 0.76989(15) 0.84103(17) 0.38386(17)
O17_22 O 0.73217(15) 0.85765(16) 0.31653(16)
C21_22 C 0.7389(2) 0.8261(3) 0.3782(2)
C23_22 C 0.7166(2) 0.8337(3) 0.3392(3)
O15_23 O 0.73011(15) 0.15897(17) 0.88386(17)
O17_23 O 0.76783(15) 0.14235(16) 0.81653(16)
C21_23 C 0.7611(2) 0.1739(3) 0.8782(2)
C23_23 C 0.7834(2) 0.1663(3) 0.8392(3)
O15_24 O 0.26989(15) 0.65897(17) 0.61614(17)
O17_24 O 0.23217(15) 0.64235(16) 0.68347(16)
C21_24 C 0.2389(2) 0.6739(3) 0.6218(2)
C23_24 C 0.2166(2) 0.6663(3) 0.6608(3)
O8_13 O 0.3479(4) 0.3333(4) 0.0504(4)
C3_13 C 0.3600(4) 0.2348(4) 0.0555(3)
C4_13 C 0.3666(4) 0.3529(5) 0.0749(6)
C5_13 C 0.3703(3) 0.2059(3) 0.0265(3)
C6_13 C 0.3409(3) 0.1892(3) 0.0041(3)
H1_13 H 0.3143 0.1951 0.0100
C10_13 C 0.4085(3) 0.1936(3) 0.0190(3)
H4_13 H 0.4293 0.2033 0.0349
C13_13 C 0.3854(3) 0.3900(4) 0.0664(4)
C14_13 C 0.4026(4) 0.4121(4) 0.0951(4)
H6_13 H 0.4019 0.4024 0.1213
C15_13 C 0.4212(4) 0.4483(4) 0.0882(4)
H7_13 H 0.4313 0.4629 0.1098
C16_13 C 0.4253(3) 0.4629(3) 0.0504(3)
C17_13 C 0.4091(3) 0.4393(3) 0.0212(3)
C18_13 C 0.3894(3) 0.4033(3) 0.0281(4)
H9_13 H 0.3790 0.3885 0.0067
C19_13 C 0.4464(2) 0.4983(2) 0.0417(2)
C20_13 C 0.4364(2) 0.5211(2) 0.0099(2)
O32_13 O 0.6667(4) 0.5504(4) 0.1521(4)
C28_13 C 0.6471(5) 0.5749(6) 0.1334(4)
C46_13 C 0.6100(4) 0.5664(4) 0.1146(3)
C48_13 C 0.5879(4) 0.5951(4) 0.0974(4)
H22_13 H 0.5976 0.6213 0.0981
C50_13 C 0.5517(4) 0.5882(4) 0.0788(4)
H24_13 H 0.5371 0.6098 0.0687
C52_13 C 0.5371(3) 0.5504(3) 0.0747(3)
C54_13 C 0.5607(3) 0.5212(3) 0.0909(3)
H26_13 H 0.5521 0.4947 0.0885
C56_13 C 0.5967(3) 0.5281(4) 0.1106(3)
H28_13 H 0.6115 0.5067 0.1210
C58_13 C 0.5017(2) 0.5417(2) 0.0536(2)
C59_13 C 0.4901(2) 0.5636(2) 0.0211(2)
C60_13 C 0.4789(2) 0.5099(2) 0.0636(2)
H29_13 H 0.4857 0.4951 0.0864
H30_13 H 0.5049 0.5864 0.0143
H31_13 H 0.3622 0.308417 0.0448674
H32_13 H 0.691583 0.544867 0.1378
C7_13 C 0.3491(3) 0.1642(3) 0.9733(3)
H2_13 H 0.3281 0.1553 0.9572
C8_13 C 0.3871(3) 0.1516(3) 0.9651(3)
C9_13 C 0.4171(3) 0.1673(3) 0.9884(3)
H3_13 H 0.4437 0.1601 0.9834
C11_13 C 0.3958(3) 0.1236(3) 0.9338(3)
C12_13 C 0.4281(3) 0.1294(3) 0.9090(3)
H5_13 H 0.4461 0.1502 0.9140
H8_13 H 0.4115 0.4479 0.9947
H10_13 H 0.4136 0.5143 0.9951
O31_13 O 0.4496(4) 0.6521(4) 0.8333(4)
C25_13 C 0.5555(3) 0.1400(4) 0.7652(4)
C27_13 C 0.4251(6) 0.6334(4) 0.8529(5)
C29_13 C 0.5265(3) 0.1297(3) 0.7941(3)
C31_13 C 0.5041(3) 0.1591(3) 0.8108(3)
H11_13 H 0.5100 0.1857 0.8049
C33_13 C 0.4733(3) 0.1509(3) 0.8358(3)
C34_13 C 0.3358(3) 0.0267(3) 0.8491(3)
H13_13 H 0.4572 0.1719 0.8447
H14_13 H 0.3447 0.0428 0.8281
C35_13 C 0.4651(3) 0.1129(3) 0.8484(3)
C36_13 C 0.3484(3) 0.0349(3) 0.8871(3)
C37_13 C 0.4884(3) 0.0829(3) 0.8327(3)
C38_13 C 0.3327(3) 0.0116(3) 0.9171(3)
H15_13 H 0.4834 0.0563 0.8399
H16_13 H 0.3399 0.0166 0.9437
C39_13 C 0.5190(3) 0.0915(3) 0.8064(3)
H17_13 H 0.5349 0.0707 0.7967
C41_13 C 0.4338(3) 0.1042(3) 0.8764(3)
C42_13 C 0.3764(3) 0.0662(3) 0.8958(3)
C43_13 C 0.4090(3) 0.0719(3) 0.8706(3)
C44_13 C 0.3706(3) 0.0910(3) 0.9281(3)
H19_13 H 0.3498 0.0860 0.9461
H20_13 H 0.4140 0.0539 0.8498
C45_13 C 0.4336(4) 0.6146(3) 0.8900(4)
C47_13 C 0.4049(4) 0.5974(4) 0.9121(4)
H21_13 H 0.3787 0.5981 0.9024
C49_13 C 0.4118(4) 0.5788(4) 0.9483(4)
H23_13 H 0.3902 0.5687 0.9629
C51_13 C 0.4496(3) 0.5747(3) 0.9629(3)
C53_13 C 0.4788(3) 0.5909(3) 0.9393(3)
H25_13 H 0.5053 0.5885 0.9479
C55_13 C 0.4719(4) 0.6106(3) 0.9033(3)
H27_13 H 0.4933 0.6210 0.8885
C57_13 C 0.4583(2) 0.5536(2) 0.9983(2)
H33_13 H 0.455133 0.6378 0.808417
C26_13 C 0.2652(4) 0.9445(3) 0.8600(4)
C30_13 C 0.2941(3) 0.9735(3) 0.8703(3)
C32_13 C 0.3108(3) 0.9959(3) 0.8409(3)
H12_13 H 0.3049 0.9900 0.8143
C40_13 C 0.3064(3) 0.9810(3) 0.9085(3)
H18_13 H 0.2967 0.9651 0.9293
C26_14 C 0.2348(4) 0.0555(3) 0.3600(4)
C30_14 C 0.2059(3) 0.0265(3) 0.3703(3)
C32_14 C 0.1892(3) 0.0041(3) 0.3409(3)
H12_14 H 0.1951 0.0100 0.3143
C40_14 C 0.1936(3) 0.0190(3) 0.4085(3)
H18_14 H 0.2033 0.0349 0.4293
O8_14 O 0.1521(4) 0.6667(4) 0.5504(4)
C3_14 C 0.1400(4) 0.7652(4) 0.5555(3)
C4_14 C 0.1334(4) 0.6471(5) 0.5749(6)
C5_14 C 0.1297(3) 0.7941(3) 0.5265(3)
C6_14 C 0.1591(3) 0.8108(3) 0.5041(3)
H1_14 H 0.1857 0.8049 0.5100
C7_14 C 0.1509(3) 0.8358(3) 0.4733(3)
H2_14 H 0.1719 0.8447 0.4572
C8_14 C 0.1129(3) 0.8484(3) 0.4651(3)
C9_14 C 0.0829(3) 0.8327(3) 0.4884(3)
H3_14 H 0.0563 0.8399 0.4834
C10_14 C 0.0915(3) 0.8064(3) 0.5190(3)
H4_14 H 0.0707 0.7967 0.5349
C11_14 C 0.1042(3) 0.8764(3) 0.4338(3)
C12_14 C 0.0719(3) 0.8706(3) 0.4090(3)
H5_14 H 0.0539 0.8498 0.4140
C13_14 C 0.1146(3) 0.6100(4) 0.5664(4)
C14_14 C 0.0974(4) 0.5879(4) 0.5951(4)
H6_14 H 0.0981 0.5976 0.6213
C15_14 C 0.0788(4) 0.5517(4) 0.5882(4)
H7_14 H 0.0687 0.5371 0.6098
C16_14 C 0.0747(3) 0.5371(3) 0.5504(3)
C17_14 C 0.0909(3) 0.5607(3) 0.5212(3)
H8_14 H 0.0885 0.5521 0.4947
C18_14 C 0.1106(3) 0.5967(3) 0.5281(4)
H9_14 H 0.1210 0.6115 0.5067
C19_14 C 0.0536(2) 0.5017(2) 0.5417(2)
C20_14 C 0.0636(2) 0.4789(2) 0.5099(2)
H10_14 H 0.0864 0.4857 0.4951
O31_14 O 0.0504(4) 0.3479(4) 0.3333(4)
C27_14 C 0.0749(6) 0.3666(4) 0.3529(5)
C33_14 C 0.0267(3) 0.8491(3) 0.3358(3)
C34_14 C 0.1642(3) 0.9733(3) 0.3491(3)
H13_14 H 0.0428 0.8281 0.3447
H14_14 H 0.1553 0.9572 0.3281
C35_14 C 0.0349(3) 0.8871(3) 0.3484(3)
C36_14 C 0.1516(3) 0.9651(3) 0.3871(3)
C37_14 C 0.0116(3) 0.9171(3) 0.3327(3)
C38_14 C 0.1673(3) 0.9884(3) 0.4171(3)
H15_14 H 0.0166 0.9437 0.3399
H16_14 H 0.1601 0.9834 0.4437
C41_14 C 0.0662(3) 0.8958(3) 0.3764(3)
C42_14 C 0.1236(3) 0.9338(3) 0.3958(3)
C43_14 C 0.0910(3) 0.9281(3) 0.3706(3)
C44_14 C 0.1294(3) 0.9090(3) 0.4281(3)
H19_14 H 0.1502 0.9140 0.4461
H20_14 H 0.0860 0.9461 0.3498
C45_14 C 0.0664(4) 0.3854(3) 0.3900(4)
C47_14 C 0.0951(4) 0.4026(4) 0.4121(4)
H21_14 H 0.1213 0.4019 0.4024
C49_14 C 0.0882(4) 0.4212(4) 0.4483(4)
H23_14 H 0.1098 0.4313 0.4629
C51_14 C 0.0504(3) 0.4253(3) 0.4629(3)
C53_14 C 0.0212(3) 0.4091(3) 0.4393(3)
C55_14 C 0.0281(4) 0.3894(3) 0.4033(3)
H27_14 H 0.0067 0.3790 0.3885
C57_14 C 0.0417(2) 0.4464(2) 0.4983(2)
C59_14 C 0.0099(2) 0.4364(2) 0.5211(2)
C60_14 C 0.0211(2) 0.4901(2) 0.5636(2)
H29_14 H 0.0143 0.5049 0.5864
H31_14 H 0.1378 0.691583 0.544867
H33_14 H 0.0448674 0.3622 0.308417
O32_14 O 0.8333(4) 0.4496(4) 0.6521(4)
C25_14 C 0.9445(3) 0.8600(4) 0.2652(4)
C28_14 C 0.8529(5) 0.4251(6) 0.6334(4)
C29_14 C 0.9735(3) 0.8703(3) 0.2941(3)
C31_14 C 0.9959(3) 0.8409(3) 0.3108(3)
H11_14 H 0.9900 0.8143 0.3049
C39_14 C 0.9810(3) 0.9085(3) 0.3064(3)
H17_14 H 0.9651 0.9293 0.2967
C46_14 C 0.8900(4) 0.4336(4) 0.6146(3)
C48_14 C 0.9121(4) 0.4049(4) 0.5974(4)
H22_14 H 0.9024 0.3787 0.5981
C50_14 C 0.9483(4) 0.4118(4) 0.5788(4)
H24_14 H 0.9629 0.3902 0.5687
C52_14 C 0.9629(3) 0.4496(3) 0.5747(3)
C54_14 C 0.9393(3) 0.4788(3) 0.5909(3)
H25_14 H 0.9947 0.4115 0.4479
H26_14 H 0.9479 0.5053 0.5885
C56_14 C 0.9033(3) 0.4719(4) 0.6106(3)
H28_14 H 0.8885 0.4933 0.6210
C58_14 C 0.9983(2) 0.4583(2) 0.5536(2)
H30_14 H 0.9951 0.4136 0.5143
H32_14 H 0.808417 0.455133 0.6378
C20_15 C 0.5636(2) 0.0211(2) 0.4901(2)
H10_15 H 0.5864 0.0143 0.5049
O31_15 O 0.5504(4) 0.1521(4) 0.6667(4)
O32_15 O 0.3333(4) 0.0504(4) 0.3479(4)
C27_15 C 0.5749(6) 0.1334(4) 0.6471(5)
C28_15 C 0.3529(5) 0.0749(6) 0.3666(4)
C45_15 C 0.5664(4) 0.1146(3) 0.6100(4)
C46_15 C 0.3900(4) 0.0664(4) 0.3854(3)
C47_15 C 0.5951(4) 0.0974(4) 0.5879(4)
C48_15 C 0.4121(4) 0.0951(4) 0.4026(4)
H21_15 H 0.6213 0.0981 0.5976
H22_15 H 0.4024 0.1213 0.4019
C49_15 C 0.5882(4) 0.0788(4) 0.5517(4)
C50_15 C 0.4483(4) 0.0882(4) 0.4212(4)
H23_15 H 0.6098 0.0687 0.5371
H24_15 H 0.4629 0.1098 0.4313
C51_15 C 0.5504(3) 0.0747(3) 0.5371(3)
C52_15 C 0.4629(3) 0.0504(3) 0.4253(3)
C53_15 C 0.5212(3) 0.0909(3) 0.5607(3)
C54_15 C 0.4393(3) 0.0212(3) 0.4091(3)
H25_15 H 0.4947 0.0885 0.5521
C55_15 C 0.5281(4) 0.1106(3) 0.5967(3)
C56_15 C 0.4033(3) 0.0281(4) 0.3894(3)
H27_15 H 0.5067 0.1210 0.6115
H28_15 H 0.3885 0.0067 0.3790
C57_15 C 0.5417(2) 0.0536(2) 0.5017(2)
C58_15 C 0.4983(2) 0.0417(2) 0.4464(2)
C59_15 C 0.5099(2) 0.0636(2) 0.4789(2)
C60_15 C 0.5211(2) 0.0099(2) 0.4364(2)
H30_15 H 0.4951 0.0864 0.4857
H32_15 H 0.308417 0.0448674 0.3622
H33_15 H 0.544867 0.1378 0.691583
O8_15 O 0.6521(4) 0.8333(4) 0.4496(4)
C3_15 C 0.6400(4) 0.7348(4) 0.4445(3)
C4_15 C 0.6334(4) 0.8529(5) 0.4251(6)
C5_15 C 0.6297(3) 0.7059(3) 0.4735(3)
C6_15 C 0.6591(3) 0.6892(3) 0.4959(3)
H1_15 H 0.6857 0.6951 0.4900
C7_15 C 0.6509(3) 0.6642(3) 0.5267(3)
H2_15 H 0.6719 0.6553 0.5428
C8_15 C 0.6129(3) 0.6516(3) 0.5349(3)
C9_15 C 0.5829(3) 0.6673(3) 0.5116(3)
H3_15 H 0.5563 0.6601 0.5166
C10_15 C 0.5915(3) 0.6936(3) 0.4810(3)
H4_15 H 0.5707 0.7033 0.4651
C11_15 C 0.6042(3) 0.6236(3) 0.5662(3)
C12_15 C 0.5719(3) 0.6294(3) 0.5910(3)
H5_15 H 0.5539 0.6502 0.5860
C13_15 C 0.6146(3) 0.8900(4) 0.4336(4)
C14_15 C 0.5974(4) 0.9121(4) 0.4049(4)
H6_15 H 0.5981 0.9024 0.3787
C15_15 C 0.5788(4) 0.9483(4) 0.4118(4)
H7_15 H 0.5687 0.9629 0.3902
C16_15 C 0.5747(3) 0.9629(3) 0.4496(3)
C17_15 C 0.5909(3) 0.9393(3) 0.4788(3)
H8_15 H 0.5885 0.9479 0.5053
C18_15 C 0.6106(3) 0.9033(3) 0.4719(4)
H9_15 H 0.6210 0.8885 0.4933
C19_15 C 0.5536(2) 0.9983(2) 0.4583(2)
C25_15 C 0.4445(3) 0.6400(4) 0.7348(4)
C26_15 C 0.7348(4) 0.4445(3) 0.6400(4)
C29_15 C 0.4735(3) 0.6297(3) 0.7059(3)
C30_15 C 0.7059(3) 0.4735(3) 0.6297(3)
C31_15 C 0.4959(3) 0.6591(3) 0.6892(3)
C32_15 C 0.6892(3) 0.4959(3) 0.6591(3)
H11_15 H 0.4900 0.6857 0.6951
H12_15 H 0.6951 0.4900 0.6857
C33_15 C 0.5267(3) 0.6509(3) 0.6642(3)
C34_15 C 0.6642(3) 0.5267(3) 0.6509(3)
H13_15 H 0.5428 0.6719 0.6553
H14_15 H 0.6553 0.5428 0.6719
C35_15 C 0.5349(3) 0.6129(3) 0.6516(3)
C36_15 C 0.6516(3) 0.5349(3) 0.6129(3)
C37_15 C 0.5116(3) 0.5829(3) 0.6673(3)
C38_15 C 0.6673(3) 0.5116(3) 0.5829(3)
H15_15 H 0.5166 0.5563 0.6601
H16_15 H 0.6601 0.5166 0.5563
C39_15 C 0.4810(3) 0.5915(3) 0.6936(3)
C40_15 C 0.6936(3) 0.4810(3) 0.5915(3)
H17_15 H 0.4651 0.5707 0.7033
H18_15 H 0.7033 0.4651 0.5707
C41_15 C 0.5662(3) 0.6042(3) 0.6236(3)
C42_15 C 0.6236(3) 0.5662(3) 0.6042(3)
C43_15 C 0.5910(3) 0.5719(3) 0.6294(3)
C44_15 C 0.6294(3) 0.5910(3) 0.5719(3)
H19_15 H 0.6502 0.5860 0.5539
H20_15 H 0.5860 0.5539 0.6502
H26_15 H 0.4479 0.9947 0.4115
H29_15 H 0.5143 0.9951 0.4136
H31_15 H 0.6378 0.808417 0.455133
C25_16 C 0.0555(3) 0.3600(4) 0.2348(4)
C29_16 C 0.0265(3) 0.3703(3) 0.2059(3)
C31_16 C 0.0041(3) 0.3409(3) 0.1892(3)
H11_16 H 0.0100 0.3143 0.1951
C39_16 C 0.0190(3) 0.4085(3) 0.1936(3)
H17_16 H 0.0349 0.4293 0.2033
H26_16 H 0.0521 0.0053 0.9115
H25_16 H 0.0053 0.9115 0.0521
O32_16 O 0.1667(4) 0.9496(4) 0.8479(4)
C28_16 C 0.1471(5) 0.9251(6) 0.8666(4)
C46_16 C 0.1100(4) 0.9336(4) 0.8854(3)
C48_16 C 0.0879(4) 0.9049(4) 0.9026(4)
H22_16 H 0.0976 0.8787 0.9019
C50_16 C 0.0517(4) 0.9118(4) 0.9212(4)
H24_16 H 0.0371 0.8902 0.9313
C52_16 C 0.0371(3) 0.9496(3) 0.9253(3)
C54_16 C 0.0607(3) 0.9788(3) 0.9091(3)
C56_16 C 0.0967(3) 0.9719(4) 0.8894(3)
H28_16 H 0.1115 0.9933 0.8790
C58_16 C 0.0017(2) 0.9583(2) 0.9464(2)
H30_16 H 0.0049 0.9136 0.9857
H32_16 H 0.191583 0.955133 0.8622
C7_16 C 0.8491(3) 0.3358(3) 0.0267(3)
H2_16 H 0.8281 0.3447 0.0428
C8_16 C 0.8871(3) 0.3484(3) 0.0349(3)
C9_16 C 0.9171(3) 0.3327(3) 0.0116(3)
H3_16 H 0.9437 0.3399 0.0166
C11_16 C 0.8958(3) 0.3764(3) 0.0662(3)
C12_16 C 0.9281(3) 0.3706(3) 0.0910(3)
H5_16 H 0.9461 0.3498 0.0860
H8_16 H 0.9115 0.0521 0.0053
C26_16 C 0.7652(4) 0.5555(3) 0.1400(4)
C30_16 C 0.7941(3) 0.5265(3) 0.1297(3)
C32_16 C 0.8108(3) 0.5041(3) 0.1591(3)
H12_16 H 0.8049 0.5100 0.1857
C33_16 C 0.9733(3) 0.3491(3) 0.1642(3)
C34_16 C 0.8358(3) 0.4733(3) 0.1509(3)
H13_16 H 0.9572 0.3281 0.1553
H14_16 H 0.8447 0.4572 0.1719
C35_16 C 0.9651(3) 0.3871(3) 0.1516(3)
C36_16 C 0.8484(3) 0.4651(3) 0.1129(3)
C37_16 C 0.9884(3) 0.4171(3) 0.1673(3)
C38_16 C 0.8327(3) 0.4884(3) 0.0829(3)
H15_16 H 0.9834 0.4437 0.1601
H16_16 H 0.8399 0.4834 0.0563
C40_16 C 0.8064(3) 0.5190(3) 0.0915(3)
H18_16 H 0.7967 0.5349 0.0707
C41_16 C 0.9338(3) 0.3958(3) 0.1236(3)
C42_16 C 0.8764(3) 0.4338(3) 0.1042(3)
C43_16 C 0.9090(3) 0.4281(3) 0.1294(3)
C44_16 C 0.8706(3) 0.4090(3) 0.0719(3)
H19_16 H 0.8498 0.4140 0.0539
H20_16 H 0.9140 0.4461 0.1502
O8_16 O 0.8479(4) 0.1667(4) 0.9496(4)
C3_16 C 0.8600(4) 0.2652(4) 0.9445(3)
C4_16 C 0.8666(4) 0.1471(5) 0.9251(6)
C5_16 C 0.8703(3) 0.2941(3) 0.9735(3)
C6_16 C 0.8409(3) 0.3108(3) 0.9959(3)
H1_16 H 0.8143 0.3049 0.9900
C10_16 C 0.9085(3) 0.3064(3) 0.9810(3)
H4_16 H 0.9293 0.2967 0.9651
C13_16 C 0.8854(3) 0.1100(4) 0.9336(4)
C14_16 C 0.9026(4) 0.0879(4) 0.9049(4)
H6_16 H 0.9019 0.0976 0.8787
C15_16 C 0.9212(4) 0.0517(4) 0.9118(4)
H7_16 H 0.9313 0.0371 0.8902
C16_16 C 0.9253(3) 0.0371(3) 0.9496(3)
C17_16 C 0.9091(3) 0.0607(3) 0.9788(3)
C18_16 C 0.8894(3) 0.0967(3) 0.9719(4)
H9_16 H 0.8790 0.1115 0.9933
C19_16 C 0.9464(2) 0.0017(2) 0.9583(2)
H29_16 H 0.9857 0.0049 0.9136
H31_16 H 0.8622 0.191583 0.955133
H10_16 H 0.9136 0.9857 0.0049
O31_16 O 0.9496(4) 0.8479(4) 0.1667(4)
C27_16 C 0.9251(6) 0.8666(4) 0.1471(5)
C45_16 C 0.9336(4) 0.8854(3) 0.1100(4)
C47_16 C 0.9049(4) 0.9026(4) 0.0879(4)
H21_16 H 0.8787 0.9019 0.0976
C49_16 C 0.9118(4) 0.9212(4) 0.0517(4)
H23_16 H 0.8902 0.9313 0.0371
C51_16 C 0.9496(3) 0.9253(3) 0.0371(3)
C53_16 C 0.9788(3) 0.9091(3) 0.0607(3)
C55_16 C 0.9719(4) 0.8894(3) 0.0967(3)
H27_16 H 0.9933 0.8790 0.1115
C57_16 C 0.9583(2) 0.9464(2) 0.0017(2)
H33_16 H 0.955133 0.8622 0.191583
C20_16 C 0.9364(2) 0.9789(2) 0.9901(2)
C59_16 C 0.9901(2) 0.9364(2) 0.9789(2)
C60_16 C 0.9789(2) 0.9901(2) 0.9364(2)
loop_
_geom_bond_atom_site_label_1
_geom_bond_atom_site_label_2
_geom_bond_site_symmetry_1
_geom_bond_site_symmetry_2
In5 O20 1_555 1_555
O20 C26 1_555 1_555
O24 In5 1_555 1_555
C26 O24 1_555 1_555
C30 C26 1_555 1_555
C32 C30 1_555 1_555
H12 C32 1_555 1_555
C40 C30 1_555 1_555
H18 C40 1_555 1_555
H2 C7 1_555 1_555
C8 C7 1_555 1_555
C9 C8 1_555 1_555
H3 C9 1_555 1_555
C11 C8 1_555 1_555
C12 C11 1_555 1_555
H5 C12 1_555 1_555
In4 O19 1_555 1_555
In6 O27 1_555 1_555
O19 C25 1_555 1_555
O23 In4 1_555 1_555
O27 C27 1_555 1_555
O31 C27 1_555 1_555
C25 O23 1_555 1_555
C27 C45 1_555 1_555
C29 C25 1_555 1_555
C31 C29 1_555 1_555
H11 C31 1_555 1_555
C33 C31 1_555 1_555
H13 C33 1_555 1_555
H14 C34 1_555 1_555
C35 C33 1_555 1_555
C36 C34 1_555 1_555
C37 C35 1_555 1_555
C38 C36 1_555 1_555
H15 C37 1_555 1_555
H16 C38 1_555 1_555
C39 C29 1_555 1_555
H17 C39 1_555 1_555
C41 C12 1_555 1_555
C42 C36 1_555 1_555
C43 C41 1_555 1_555
C44 C11 1_555 1_555
H19 C44 1_555 1_555
H20 C43 1_555 1_555
C45 C47 1_555 1_555
C47 H21 1_555 1_555
C49 C47 1_555 1_555
H23 C49 1_555 1_555
C51 C49 1_555 1_555
C53 C51 1_555 1_555
H25 C53 1_555 1_555
C55 C45 1_555 1_555
H27 C55 1_555 1_555
C35 C41 1_555 1_555
C37 C39 1_555 1_555
C42 C43 1_555 1_555
C42 C44 1_555 1_555
C51 C57 1_555 1_555
C53 C55 1_555 1_555
O31 H33 1_555 1_555
In1 O1 1_555 1_555
O1 C1 1_555 1_555
O2 In1 1_555 1_555
O3 C1 1_555 1_555
O4 C2 1_555 1_555
O5 In1 1_555 1_555
O6 In1 1_555 1_555
O7 In1 1_555 1_555
O8 C4 1_555 1_555
C1 C2 1_555 1_555
C2 O2 1_555 1_555
C3 O5 1_555 1_555
C4 O7 1_555 1_555
C5 C3 1_555 1_555
C6 C5 1_555 1_555
H1 C6 1_555 1_555
C10 C5 1_555 1_555
H4 C10 1_555 1_555
C13 C4 1_555 1_555
C14 C13 1_555 1_555
H6 C14 1_555 1_555
C15 C14 1_555 1_555
H7 C15 1_555 1_555
C16 C15 1_555 1_555
C17 C16 1_555 1_555
C18 C13 1_555 1_555
H9 C18 1_555 1_555
C19 C16 1_555 1_555
C20 C19 1_555 1_555
In2 O9 1_555 1_555
In3 O3 1_555 1_555
In7 O28 1_555 1_555
In8 O10 1_555 1_555
O9 C21 1_555 1_555
O10 C22 1_555 1_555
O11 In3 1_555 1_555
O12 In2 1_555 1_555
O13 In8 1_555 1_555
O14 In3 1_555 1_555
O15 In1 1_555 1_555
O16 In2 1_555 1_555
O17 In1 1_555 1_555
O18 In2 1_555 1_555
O21 In2 1_555 1_555
O22 In3 1_555 1_555
O25 In2 1_555 1_555
O26 In3 1_555 1_555
O28 C28 1_555 1_555
O29 In2 1_555 1_555
O30 In3 1_555 1_555
O32 C28 1_555 1_555
C21 O15 1_555 1_555
C22 O16 1_555 1_555
C23 O12 1_555 1_555
C24 O13 1_555 1_555
C28 C46 1_555 1_555
C46 C48 1_555 1_555
C48 H22 1_555 1_555
C50 C48 1_555 1_555
H24 C50 1_555 1_555
C52 C50 1_555 1_555
C54 C52 1_555 1_555
H26 C54 1_555 1_555
C56 C46 1_555 1_555
H28 C56 1_555 1_555
C58 C52 1_555 1_555
C60 C19 1_555 1_555
H29 C60 1_555 1_555
H30 C59 1_555 1_555
O4 In3 1_555 1_555
O6 C3 1_555 1_555
C17 C18 1_555 1_555
O17 C23 1_555 1_555
O18 C24 1_555 1_555
C21 C23 1_555 1_555
C22 C24 1_555 1_555
C54 C56 1_555 1_555
C58 C59 1_555 1_555
C58 C60 1_555 1_555
O8 H31 1_555 1_555
O32 H32 1_555 1_555
In4_2 O19_2 1_555 1_555
In7_2 O28_2 1_555 1_555
O19_2 C25_2 1_555 1_555
O23_2 In4_2 1_555 1_555
O28_2 C28_2 1_555 1_555
O32_2 C28_2 1_555 1_555
C25_2 O23_2 1_555 1_555
C28_2 C46_2 1_555 1_555
C29_2 C25_2 1_555 1_555
C31_2 C29_2 1_555 1_555
H11_2 C31_2 1_555 1_555
C39_2 C29_2 1_555 1_555
H17_2 C39_2 1_555 1_555
C46_2 C48_2 1_555 1_555
C48_2 H22_2 1_555 1_555
C50_2 C48_2 1_555 1_555
H24_2 C50_2 1_555 1_555
C52_2 C50_2 1_555 1_555
C54_2 C52_2 1_555 1_555
H26_2 C54_2 1_555 1_555
C56_2 C46_2 1_555 1_555
H28_2 C56_2 1_555 1_555
C58_2 C52_2 1_555 1_555
C54_2 C56_2 1_555 1_555
O32_2 H32_2 1_555 1_555
In1_2 O1_2 1_555 1_555
O1_2 C1_2 1_555 1_555
O2_2 In1_2 1_555 1_555
O3_2 C1_2 1_555 1_555
O4_2 C2_2 1_555 1_555
O5_2 In1_2 1_555 1_555
O6_2 In1_2 1_555 1_555
O7_2 In1_2 1_555 1_555
O8_2 C4_2 1_555 1_555
C1_2 C2_2 1_555 1_555
C2_2 O2_2 1_555 1_555
C3_2 O5_2 1_555 1_555
C4_2 O7_2 1_555 1_555
C5_2 C3_2 1_555 1_555
C6_2 C5_2 1_555 1_555
H1_2 C6_2 1_555 1_555
C7_2 C6_2 1_555 1_555
H2_2 C7_2 1_555 1_555
C8_2 C7_2 1_555 1_555
C9_2 C8_2 1_555 1_555
H3_2 C9_2 1_555 1_555
C10_2 C5_2 1_555 1_555
H4_2 C10_2 1_555 1_555
C11_2 C8_2 1_555 1_555
C12_2 C11_2 1_555 1_555
H5_2 C12_2 1_555 1_555
C13_2 C4_2 1_555 1_555
C14_2 C13_2 1_555 1_555
H6_2 C14_2 1_555 1_555
C15_2 C14_2 1_555 1_555
H7_2 C15_2 1_555 1_555
C16_2 C15_2 1_555 1_555
C17_2 C16_2 1_555 1_555
H8_2 C17_2 1_555 1_555
C18_2 C13_2 1_555 1_555
H9_2 C18_2 1_555 1_555
C19_2 C16_2 1_555 1_555
C20_2 C19_2 1_555 1_555
H10_2 C20_2 1_555 1_555
In2_2 O9_2 1_555 1_555
In3_2 O3_2 1_555 1_555
In6_2 O27_2 1_555 1_555
In5 O10_2 1_555 1_555
O9_2 C21_2 1_555 1_555
O10_2 C22_2 1_555 1_555
O11_2 In3_2 1_555 1_555
O12_2 In2_2 1_555 1_555
O13_2 In5 1_555 1_555
O14_2 In3_2 1_555 1_555
O15_2 In1_2 1_555 1_555
O16_2 In2_2 1_555 1_555
O17_2 In1_2 1_555 1_555
O18_2 In2_2 1_555 1_555
O21_2 In2_2 1_555 1_555
O22_2 In3_2 1_555 1_555
O25_2 In2_2 1_555 1_555
O26_2 In3_2 1_555 1_555
O27_2 C27_2 1_555 1_555
O29_2 In2_2 1_555 1_555
O30_2 In3_2 1_555 1_555
O31_2 C27_2 1_555 1_555
C21_2 O15_2 1_555 1_555
C22_2 O16_2 1_555 1_555
C23_2 O12_2 1_555 1_555
C24_2 O13_2 1_555 1_555
C27_2 C45_2 1_555 1_555
H13_2 C33_2 1_555 1_555
H14_2 C34_2 1_555 1_555
C35_2 C33_2 1_555 1_555
C36_2 C34_2 1_555 1_555
C37_2 C35_2 1_555 1_555
C38_2 C36_2 1_555 1_555
H15_2 C37_2 1_555 1_555
H16_2 C38_2 1_555 1_555
C41_2 C12_2 1_555 1_555
C42_2 C36_2 1_555 1_555
C43_2 C41_2 1_555 1_555
C44_2 C11_2 1_555 1_555
H19_2 C44_2 1_555 1_555
H20_2 C43_2 1_555 1_555
C45_2 C47_2 1_555 1_555
C47_2 H21_2 1_555 1_555
C49_2 C47_2 1_555 1_555
H23_2 C49_2 1_555 1_555
C51_2 C49_2 1_555 1_555
C53_2 C51_2 1_555 1_555
C55_2 C45_2 1_555 1_555
H27_2 C55_2 1_555 1_555
C57_2 C20_2 1_555 1_555
C59_2 C57_2 1_555 1_555
C60_2 C19_2 1_555 1_555
H29_2 C60_2 1_555 1_555
O4_2 In3_2 1_555 1_555
O6_2 C3_2 1_555 1_555
C9_2 C10_2 1_555 1_555
C17_2 C18_2 1_555 1_555
O17_2 C23_2 1_555 1_555
O18_2 C24_2 1_555 1_555
C21_2 C23_2 1_555 1_555
C22_2 C24_2 1_555 1_555
C35_2 C41_2 1_555 1_555
C42_2 C43_2 1_555 1_555
C42_2 C44_2 1_555 1_555
C51_2 C57_2 1_555 1_555
C53_2 C55_2 1_555 1_555
O8_2 H31_2 1_555 1_555
O31_2 H33_2 1_555 1_555
In8 O20_2 1_555 1_555
O20_2 C26_2 1_555 1_555
O24_2 In8 1_555 1_555
C26_2 O24_2 1_555 1_555
C30_2 C26_2 1_555 1_555
C32_2 C30_2 1_555 1_555
H12_2 C32_2 1_555 1_555
C40_2 C30_2 1_555 1_555
H18_2 C40_2 1_555 1_555
In1_3 O1_3 1_555 1_555
O1_3 C1_3 1_555 1_555
O2_3 In1_3 1_555 1_555
O3_3 C1_3 1_555 1_555
O4_3 C2_3 1_555 1_555
O5_3 In1_3 1_555 1_555
O6_3 In1_3 1_555 1_555
O7_3 In1_3 1_555 1_555
O8_3 C4_3 1_555 1_555
C1_3 C2_3 1_555 1_555
C2_3 O2_3 1_555 1_555
C3_3 O5_3 1_555 1_555
C4_3 O7_3 1_555 1_555
C5_3 C3_3 1_555 1_555
C6_3 C5_3 1_555 1_555
H1_3 C6_3 1_555 1_555
C7_3 C6_3 1_555 1_555
H2_3 C7_3 1_555 1_555
C8_3 C7_3 1_555 1_555
C9_3 C8_3 1_555 1_555
H3_3 C9_3 1_555 1_555
C10_3 C5_3 1_555 1_555
H4_3 C10_3 1_555 1_555
C11_3 C8_3 1_555 1_555
C12_3 C11_3 1_555 1_555
H5_3 C12_3 1_555 1_555
C13_3 C4_3 1_555 1_555
C14_3 C13_3 1_555 1_555
H6_3 C14_3 1_555 1_555
C15_3 C14_3 1_555 1_555
H7_3 C15_3 1_555 1_555
C16_3 C15_3 1_555 1_555
C17_3 C16_3 1_555 1_555
H8_3 C17_3 1_555 1_555
C18_3 C13_3 1_555 1_555
H9_3 C18_3 1_555 1_555
C19_3 C16_3 1_555 1_555
In2_3 O9_3 1_555 1_555
In3_3 O3_3 1_555 1_555
In6 O19_3 1_555 1_555
In7_2 O20_3 1_555 1_555
In7 O10_3 1_555 1_555
O9_3 C21_3 1_555 1_555
O10_3 C22_3 1_555 1_555
O11_3 In3_3 1_555 1_555
O12_3 In2_3 1_555 1_555
O13_3 In7 1_555 1_555
O14_3 In3_3 1_555 1_555
O15_3 In1_3 1_555 1_555
O16_3 In2_3 1_555 1_555
O17_3 In1_3 1_555 1_555
O18_3 In2_3 1_555 1_555
O19_3 C25_3 1_555 1_555
O20_3 C26_3 1_555 1_555
O21_3 In2_3 1_555 1_555
O22_3 In3_3 1_555 1_555
O23_3 In6 1_555 1_555
O24_3 In7_2 1_555 1_555
O25_3 In2_3 1_555 1_555
O26_3 In3_3 1_555 1_555
O29_3 In2_3 1_555 1_555
O30_3 In3_3 1_555 1_555
C21_3 O15_3 1_555 1_555
C22_3 O16_3 1_555 1_555
C23_3 O12_3 1_555 1_555
C24_3 O13_3 1_555 1_555
C25_3 O23_3 1_555 1_555
C26_3 O24_3 1_555 1_555
C29_3 C25_3 1_555 1_555
C30_3 C26_3 1_555 1_555
C31_3 C29_3 1_555 1_555
C32_3 C30_3 1_555 1_555
H11_3 C31_3 1_555 1_555
H12_3 C32_3 1_555 1_555
C33_3 C31_3 1_555 1_555
C34_3 C32_3 1_555 1_555
H13_3 C33_3 1_555 1_555
H14_3 C34_3 1_555 1_555
C35_3 C33_3 1_555 1_555
C36_3 C34_3 1_555 1_555
C37_3 C35_3 1_555 1_555
C38_3 C36_3 1_555 1_555
H15_3 C37_3 1_555 1_555
H16_3 C38_3 1_555 1_555
C39_3 C29_3 1_555 1_555
C40_3 C30_3 1_555 1_555
H17_3 C39_3 1_555 1_555
H18_3 C40_3 1_555 1_555
C41_3 C12_3 1_555 1_555
C42_3 C36_3 1_555 1_555
C43_3 C41_3 1_555 1_555
C44_3 C11_3 1_555 1_555
H19_3 C44_3 1_555 1_555
H20_3 C43_3 1_555 1_555
O4_3 In3_3 1_555 1_555
O6_3 C3_3 1_555 1_555
C9_3 C10_3 1_555 1_555
C17_3 C18_3 1_555 1_555
O17_3 C23_3 1_555 1_555
O18_3 C24_3 1_555 1_555
C21_3 C23_3 1_555 1_555
C22_3 C24_3 1_555 1_555
C35_3 C41_3 1_555 1_555
C37_3 C39_3 1_555 1_555
C38_3 C40_3 1_555 1_555
C42_3 C43_3 1_555 1_555
C42_3 C44_3 1_555 1_555
O8_3 H31_3 1_555 1_555
H10_3 C20_3 1_555 1_555
In4 O27_3 1_555 1_555
In8 O28_3 1_555 1_555
O27_3 C27_3 1_555 1_555
O28_3 C28_3 1_555 1_555
O31_3 C27_3 1_555 1_555
O32_3 C28_3 1_555 1_555
C27_3 C45_3 1_555 1_555
C28_3 C46_3 1_555 1_555
C45_3 C47_3 1_555 1_555
C46_3 C48_3 1_555 1_555
C47_3 H21_3 1_555 1_555
C48_3 H22_3 1_555 1_555
C49_3 C47_3 1_555 1_555
C50_3 C48_3 1_555 1_555
H23_3 C49_3 1_555 1_555
H24_3 C50_3 1_555 1_555
C51_3 C49_3 1_555 1_555
C52_3 C50_3 1_555 1_555
C53_3 C51_3 1_555 1_555
C54_3 C52_3 1_555 1_555
H25_3 C53_3 1_555 1_555
C55_3 C45_3 1_555 1_555
C56_3 C46_3 1_555 1_555
H27_3 C55_3 1_555 1_555
H28_3 C56_3 1_555 1_555
C57_3 C20_3 1_555 1_555
C58_3 C52_3 1_555 1_555
C59_3 C57_3 1_555 1_555
H30_3 C59_3 1_555 1_555
C51_3 C57_3 1_555 1_555
C53_3 C55_3 1_555 1_555
C54_3 C56_3 1_555 1_555
C58_3 C59_3 1_555 1_555
C58_3 C60_3 1_555 1_555
O32_3 H32_3 1_555 1_555
O31_3 H33_3 1_555 1_555
In4_2 O27_4 1_555 1_555
O27_4 C27_4 1_555 1_555
O31_4 C27_4 1_555 1_555
C27_4 C45_4 1_555 1_555
C45_4 C47_4 1_555 1_555
C47_4 H21_4 1_555 1_555
C49_4 C47_4 1_555 1_555
H23_4 C49_4 1_555 1_555
C51_4 C49_4 1_555 1_555
C53_4 C51_4 1_555 1_555
C55_4 C45_4 1_555 1_555
H27_4 C55_4 1_555 1_555
C51_4 C57_4 1_555 1_555
C53_4 C55_4 1_555 1_555
O31_4 H33_4 1_555 1_555
In1_4 O1_4 1_555 1_555
O1_4 C1_4 1_555 1_555
O2_4 In1_4 1_555 1_555
O3_4 C1_4 1_555 1_555
O4_4 C2_4 1_555 1_555
O5_4 In1_4 1_555 1_555
O6_4 In1_4 1_555 1_555
O7_4 In1_4 1_555 1_555
O8_4 C4_4 1_555 1_555
C1_4 C2_4 1_555 1_555
C2_4 O2_4 1_555 1_555
C3_4 O5_4 1_555 1_555
C4_4 O7_4 1_555 1_555
C5_4 C3_4 1_555 1_555
C6_4 C5_4 1_555 1_555
H1_4 C6_4 1_555 1_555
C10_4 C5_4 1_555 1_555
H4_4 C10_4 1_555 1_555
C13_4 C4_4 1_555 1_555
C14_4 C13_4 1_555 1_555
H6_4 C14_4 1_555 1_555
C15_4 C14_4 1_555 1_555
H7_4 C15_4 1_555 1_555
C16_4 C15_4 1_555 1_555
C17_4 C16_4 1_555 1_555
C18_4 C13_4 1_555 1_555
H9_4 C18_4 1_555 1_555
C19_4 C16_4 1_555 1_555
In2_4 O9_4 1_555 1_555
In3_4 O3_4 1_555 1_555
In7_2 O10_4 1_555 1_555
O9_4 C21_4 1_555 1_555
O10_4 C22_4 1_555 1_555
O11_4 In3_4 1_555 1_555
O12_4 In2_4 1_555 1_555
O13_4 In7_2 1_555 1_555
O14_4 In3_4 1_555 1_555
O15_4 In1_4 1_555 1_555
O16_4 In2_4 1_555 1_555
O17_4 In1_4 1_555 1_555
O18_4 In2_4 1_555 1_555
O21_4 In2_4 1_555 1_555
O22_4 In3_4 1_555 1_555
O25_4 In2_4 1_555 1_555
O26_4 In3_4 1_555 1_555
O29_4 In2_4 1_555 1_555
O30_4 In3_4 1_555 1_555
C21_4 O15_4 1_555 1_555
C22_4 O16_4 1_555 1_555
C23_4 O12_4 1_555 1_555
C24_4 O13_4 1_555 1_555
O4_4 In3_4 1_555 1_555
O6_4 C3_4 1_555 1_555
C17_4 C18_4 1_555 1_555
O17_4 C23_4 1_555 1_555
O18_4 C24_4 1_555 1_555
C21_4 C23_4 1_555 1_555
C22_4 C24_4 1_555 1_555
O8_4 H31_4 1_555 1_555
H2_4 C7_4 1_555 1_555
C8_4 C7_4 1_555 1_555
C9_4 C8_4 1_555 1_555
H3_4 C9_4 1_555 1_555
C11_4 C8_4 1_555 1_555
C12_4 C11_4 1_555 1_555
H5_4 C12_4 1_555 1_555
In7 O20_4 1_555 1_555
O20_4 C26_4 1_555 1_555
O24_4 In7 1_555 1_555
C26_4 O24_4 1_555 1_555
C30_4 C26_4 1_555 1_555
C32_4 C30_4 1_555 1_555
H12_4 C32_4 1_555 1_555
C34_4 C32_4 1_555 1_555
H13_4 C33_4 1_555 1_555
H14_4 C34_4 1_555 1_555
C35_4 C33_4 1_555 1_555
C36_4 C34_4 1_555 1_555
C37_4 C35_4 1_555 1_555
C38_4 C36_4 1_555 1_555
H15_4 C37_4 1_555 1_555
H16_4 C38_4 1_555 1_555
C40_4 C30_4 1_555 1_555
H18_4 C40_4 1_555 1_555
C41_4 C12_4 1_555 1_555
C42_4 C36_4 1_555 1_555
C43_4 C41_4 1_555 1_555
C44_4 C11_4 1_555 1_555
H19_4 C44_4 1_555 1_555
H20_4 C43_4 1_555 1_555
C35_4 C41_4 1_555 1_555
C38_4 C40_4 1_555 1_555
C42_4 C43_4 1_555 1_555
C42_4 C44_4 1_555 1_555
In5 O28_4 1_555 1_555
O28_4 C28_4 1_555 1_555
O32_4 C28_4 1_555 1_555
C28_4 C46_4 1_555 1_555
C46_4 C48_4 1_555 1_555
C48_4 H22_4 1_555 1_555
C50_4 C48_4 1_555 1_555
H24_4 C50_4 1_555 1_555
C52_4 C50_4 1_555 1_555
C54_4 C52_4 1_555 1_555
C56_4 C46_4 1_555 1_555
H28_4 C56_4 1_555 1_555
C58_4 C52_4 1_555 1_555
C54_4 C56_4 1_555 1_555
O32_4 H32_4 1_555 1_555
In6_2 O19_4 1_555 1_555
O19_4 C25_4 1_555 1_555
O23_4 In6_2 1_555 1_555
C25_4 O23_4 1_555 1_555
C29_4 C25_4 1_555 1_555
C31_4 C29_4 1_555 1_555
H11_4 C31_4 1_555 1_555
C39_4 C29_4 1_555 1_555
H17_4 C39_4 1_555 1_555
In6_2 O1_5 1_555 1_555
O1_5 C1_5 1_555 1_555
O2_5 In6_2 1_555 1_555
O3_5 C1_5 1_555 1_555
O4_5 C2_5 1_555 1_555
C1_5 C2_5 1_555 1_555
C2_5 O2_5 1_555 1_555
In3_5 O3_5 1_555 1_555
O11 C21_5 1_555 1_555
O11_5 In3_5 1_555 1_555
O14_5 In3_5 1_555 1_555
O15_5 In6_2 1_555 1_555
O17_5 In6_2 1_555 1_555
O22_5 In3_5 1_555 1_555
O26_5 In3_5 1_555 1_555
O30_5 In3_5 1_555 1_555
C21_5 O15_5 1_555 1_555
C23_5 O14 1_555 1_555
O4_5 In3_5 1_555 1_555
O17_5 C23_5 1_555 1_555
C21_5 C23_5 1_555 1_555
In4 O1_6 1_555 1_555
O1_6 C1_6 1_555 1_555
O2_6 In4 1_555 1_555
O3_6 C1_6 1_555 1_555
O4_6 C2_6 1_555 1_555
C1_6 C2_6 1_555 1_555
C2_6 O2_6 1_555 1_555
In3_6 O3_6 1_555 1_555
O11_4 C21_6 1_555 1_555
O11_6 In3_6 1_555 1_555
O14_6 In3_6 1_555 1_555
O15_6 In4 1_555 1_555
O17_6 In4 1_555 1_555
O22_6 In3_6 1_555 1_555
O26_6 In3_6 1_555 1_555
O30_6 In3_6 1_555 1_555
C21_6 O15_6 1_555 1_555
C23_6 O14_4 1_555 1_555
O4_6 In3_6 1_555 1_555
O17_6 C23_6 1_555 1_555
C21_6 C23_6 1_555 1_555
In6 O1_7 1_555 1_555
O1_7 C1_7 1_555 1_555
O2_7 In6 1_555 1_555
O3_7 C1_7 1_555 1_555
O4_7 C2_7 1_555 1_555
C1_7 C2_7 1_555 1_555
C2_7 O2_7 1_555 1_555
In3_7 O3_7 1_555 1_555
O11_2 C21_7 1_555 1_555
O11_7 In3_7 1_555 1_555
O14_7 In3_7 1_555 1_555
O15_7 In6 1_555 1_555
O17_7 In6 1_555 1_555
O22_7 In3_7 1_555 1_555
O26_7 In3_7 1_555 1_555
O30_7 In3_7 1_555 1_555
C21_7 O15_7 1_555 1_555
C23_7 O14_2 1_555 1_555
O4_7 In3_7 1_555 1_555
O17_7 C23_7 1_555 1_555
C21_7 C23_7 1_555 1_555
In4_2 O1_8 1_555 1_555
O1_8 C1_8 1_555 1_555
O2_8 In4_2 1_555 1_555
O3_8 C1_8 1_555 1_555
O4_8 C2_8 1_555 1_555
C1_8 C2_8 1_555 1_555
C2_8 O2_8 1_555 1_555
In3_8 O3_8 1_555 1_555
O11_3 C21_8 1_555 1_555
O11_8 In3_8 1_555 1_555
O14_8 In3_8 1_555 1_555
O15_8 In4_2 1_555 1_555
O17_8 In4_2 1_555 1_555
O22_8 In3_8 1_555 1_555
O26_8 In3_8 1_555 1_555
O30_8 In3_8 1_555 1_555
C21_8 O15_8 1_555 1_555
C23_8 O14_3 1_555 1_555
O4_8 In3_8 1_555 1_555
O17_8 C23_8 1_555 1_555
C21_8 C23_8 1_555 1_555
O11_5 C21_9 1_555 1_555
O15_9 In8 1_555 1_555
O17_9 In8 1_555 1_555
C21_9 O15_9 1_555 1_555
C23_9 O14_5 1_555 1_555
O17_9 C23_9 1_555 1_555
C21_9 C23_9 1_555 1_555
O11_8 C21_10 1_555 1_555
O15_10 In7 1_555 1_555
O17_10 In7 1_555 1_555
C21_10 O15_10 1_555 1_555
C23_10 O14_8 1_555 1_555
O17_10 C23_10 1_555 1_555
C21_10 C23_10 1_555 1_555
O11_6 C21_11 1_555 1_555
O15_11 In7_2 1_555 1_555
O17_11 In7_2 1_555 1_555
C21_11 O15_11 1_555 1_555
C23_11 O14_6 1_555 1_555
O17_11 C23_11 1_555 1_555
C21_11 C23_11 1_555 1_555
O11_7 C21_12 1_555 1_555
O15_12 In5 1_555 1_555
O17_12 In5 1_555 1_555
C21_12 O15_12 1_555 1_555
C23_12 O14_7 1_555 1_555
O17_12 C23_12 1_555 1_555
C21_12 C23_12 1_555 1_555
O30_3 C28_5 1_555 1_555
O32_5 C28_5 1_555 1_555
C28_5 C46_5 1_555 1_555
C46_5 C48_5 1_555 1_555
C48_5 H22_5 1_555 1_555
C50_5 C48_5 1_555 1_555
H24_5 C50_5 1_555 1_555
C52_5 C50_5 1_555 1_555
C54_5 C52_5 1_555 1_555
C56_5 C46_5 1_555 1_555
H28_5 C56_5 1_555 1_555
C58_5 C52_5 1_555 1_555
C54_5 C56_5 1_555 1_555
O32_5 H32_5 1_555 1_555
O21_4 C25_5 1_555 1_555
C25_5 O25_4 1_555 1_555
C29_5 C25_5 1_555 1_555
C31_5 C29_5 1_555 1_555
H11_5 C31_5 1_555 1_555
C39_5 C29_5 1_555 1_555
H17_5 C39_5 1_555 1_555
H10_5 C20_4 1_555 1_555
O29_2 C27_5 1_555 1_555
O31_5 C27_5 1_555 1_555
C27_5 C45_5 1_555 1_555
C45_5 C47_5 1_555 1_555
C47_5 H21_5 1_555 1_555
C49_5 C47_5 1_555 1_555
H23_5 C49_5 1_555 1_555
C51_5 C49_5 1_555 1_555
C53_5 C51_5 1_555 1_555
C55_5 C45_5 1_555 1_555
H27_5 C55_5 1_555 1_555
C57_5 C20_4 1_555 1_555
C59_4 C57_5 1_555 1_555
C51_5 C57_5 1_555 1_555
C53_5 C55_5 1_555 1_555
O31_5 H33_5 1_555 1_555
O8_5 C4_5 1_555 1_555
C3_5 O22_5 1_555 1_555
C4_5 O30_5 1_555 1_555
C5_5 C3_5 1_555 1_555
C6_5 C5_5 1_555 1_555
H1_5 C6_5 1_555 1_555
C7_5 C6_5 1_555 1_555
H2_5 C7_5 1_555 1_555
C8_5 C7_5 1_555 1_555
C9_5 C8_5 1_555 1_555
H3_5 C9_5 1_555 1_555
C10_5 C5_5 1_555 1_555
H4_5 C10_5 1_555 1_555
C11_5 C8_5 1_555 1_555
C12_5 C11_5 1_555 1_555
H5_5 C12_5 1_555 1_555
C13_5 C4_5 1_555 1_555
C14_5 C13_5 1_555 1_555
H6_5 C14_5 1_555 1_555
C15_5 C14_5 1_555 1_555
H7_5 C15_5 1_555 1_555
C16_5 C15_5 1_555 1_555
C17_5 C16_5 1_555 1_555
H8_5 C17_5 1_555 1_555
C18_5 C13_5 1_555 1_555
H9_5 C18_5 1_555 1_555
C19_5 C16_5 1_555 1_555
O22_2 C26_5 1_555 1_555
C26_5 O26_2 1_555 1_555
C30_5 C26_5 1_555 1_555
C32_5 C30_5 1_555 1_555
H12_5 C32_5 1_555 1_555
C34_5 C32_5 1_555 1_555
H13_5 C33_5 1_555 1_555
H14_5 C34_5 1_555 1_555
C35_5 C33_5 1_555 1_555
C36_5 C34_5 1_555 1_555
C37_5 C35_5 1_555 1_555
C38_5 C36_5 1_555 1_555
H15_5 C37_5 1_555 1_555
H16_5 C38_5 1_555 1_555
C40_5 C30_5 1_555 1_555
H18_5 C40_5 1_555 1_555
C41_5 C12_5 1_555 1_555
C42_5 C36_5 1_555 1_555
C43_5 C41_5 1_555 1_555
C44_5 C11_5 1_555 1_555
H19_5 C44_5 1_555 1_555
H20_5 C43_5 1_555 1_555
O26_5 C3_5 1_555 1_555
C9_5 C10_5 1_555 1_555
C17_5 C18_5 1_555 1_555
C35_5 C41_5 1_555 1_555
C38_5 C40_5 1_555 1_555
C42_5 C43_5 1_555 1_555
C42_5 C44_5 1_555 1_555
O8_5 H31_5 1_555 1_555
O8_6 C4_6 1_555 1_555
C3_6 O22_7 1_555 1_555
C4_6 O30_7 1_555 1_555
C5_6 C3_6 1_555 1_555
C6_6 C5_6 1_555 1_555
H1_6 C6_6 1_555 1_555
C10_6 C5_6 1_555 1_555
H4_6 C10_6 1_555 1_555
C13_6 C4_6 1_555 1_555
C14_6 C13_6 1_555 1_555
H6_6 C14_6 1_555 1_555
C15_6 C14_6 1_555 1_555
H7_6 C15_6 1_555 1_555
C16_6 C15_6 1_555 1_555
C17_6 C16_6 1_555 1_555
C18_6 C13_6 1_555 1_555
H9_6 C18_6 1_555 1_555
C19_6 C16_6 1_555 1_555
O26_7 C3_6 1_555 1_555
C17_6 C18_6 1_555 1_555
O8_6 H31_6 1_555 1_555
H2_6 C7_6 1_555 1_555
C8_6 C7_6 1_555 1_555
C9_6 C8_6 1_555 1_555
H3_6 C9_6 1_555 1_555
C11_6 C8_6 1_555 1_555
C12_6 C11_6 1_555 1_555
H5_6 C12_6 1_555 1_555
O21_3 C25_6 1_555 1_555
O22 C26_6 1_555 1_555
C25_6 O25_3 1_555 1_555
C26_6 O26 1_555 1_555
C29_6 C25_6 1_555 1_555
C30_6 C26_6 1_555 1_555
C31_6 C29_6 1_555 1_555
C32_6 C30_6 1_555 1_555
H11_6 C31_6 1_555 1_555
H12_6 C32_6 1_555 1_555
C33_6 C31_6 1_555 1_555
C34_6 C32_6 1_555 1_555
H13_6 C33_6 1_555 1_555
H14_6 C34_6 1_555 1_555
C35_6 C33_6 1_555 1_555
C36_6 C34_6 1_555 1_555
C37_6 C35_6 1_555 1_555
C38_6 C36_6 1_555 1_555
H15_6 C37_6 1_555 1_555
H16_6 C38_6 1_555 1_555
C39_6 C29_6 1_555 1_555
C40_6 C30_6 1_555 1_555
H17_6 C39_6 1_555 1_555
H18_6 C40_6 1_555 1_555
C41_6 C12_6 1_555 1_555
C42_6 C36_6 1_555 1_555
C43_6 C41_6 1_555 1_555
C44_6 C11_6 1_555 1_555
H19_6 C44_6 1_555 1_555
H20_6 C43_6 1_555 1_555
C35_6 C41_6 1_555 1_555
C37_6 C39_6 1_555 1_555
C38_6 C40_6 1_555 1_555
C42_6 C43_6 1_555 1_555
C42_6 C44_6 1_555 1_555
O30_4 C28_6 1_555 1_555
O32_6 C28_6 1_555 1_555
C28_6 C46_6 1_555 1_555
C46_6 C48_6 1_555 1_555
C48_6 H22_6 1_555 1_555
C50_6 C48_6 1_555 1_555
H24_6 C50_6 1_555 1_555
C52_6 C50_6 1_555 1_555
C54_6 C52_6 1_555 1_555
C56_6 C46_6 1_555 1_555
H28_6 C56_6 1_555 1_555
C58_6 C52_6 1_555 1_555
H30_6 C59_5 1_555 1_555
C54_6 C56_6 1_555 1_555
C58_6 C59_5 1_555 1_555
C58_6 C60_5 1_555 1_555
O32_6 H32_6 1_555 1_555
O29 C27_6 1_555 1_555
O31_6 C27_6 1_555 1_555
C27_6 C45_6 1_555 1_555
C45_6 C47_6 1_555 1_555
C47_6 H21_6 1_555 1_555
C49_6 C47_6 1_555 1_555
H23_6 C49_6 1_555 1_555
C51_6 C49_6 1_555 1_555
C53_6 C51_6 1_555 1_555
H25_6 C53_6 1_555 1_555
C55_6 C45_6 1_555 1_555
H27_6 C55_6 1_555 1_555
C51_6 C57_6 1_555 1_555
C53_6 C55_6 1_555 1_555
O31_6 H33_6 1_555 1_555
H2_7 C7_7 1_555 1_555
C8_7 C7_7 1_555 1_555
C9_7 C8_7 1_555 1_555
H3_7 C9_7 1_555 1_555
C11_7 C8_7 1_555 1_555
C12_7 C11_7 1_555 1_555
H5_7 C12_7 1_555 1_555
O29_4 C27_7 1_555 1_555
O31_7 C27_7 1_555 1_555
C27_7 C45_7 1_555 1_555
H13_7 C33_7 1_555 1_555
H14_7 C34_7 1_555 1_555
C35_7 C33_7 1_555 1_555
C36_7 C34_7 1_555 1_555
C37_7 C35_7 1_555 1_555
C38_7 C36_7 1_555 1_555
H15_7 C37_7 1_555 1_555
H16_7 C38_7 1_555 1_555
C41_7 C12_7 1_555 1_555
C42_7 C36_7 1_555 1_555
C43_7 C41_7 1_555 1_555
C44_7 C11_7 1_555 1_555
H19_7 C44_7 1_555 1_555
H20_7 C43_7 1_555 1_555
C45_7 C47_7 1_555 1_555
C47_7 H21_7 1_555 1_555
C49_7 C47_7 1_555 1_555
H23_7 C49_7 1_555 1_555
C51_7 C49_7 1_555 1_555
C53_7 C51_7 1_555 1_555
C55_7 C45_7 1_555 1_555
H27_7 C55_7 1_555 1_555
C35_7 C41_7 1_555 1_555
C42_7 C43_7 1_555 1_555
C42_7 C44_7 1_555 1_555
C51_7 C57_7 1_555 1_555
C53_7 C55_7 1_555 1_555
O31_7 H33_7 1_555 1_555
O8_7 C4_7 1_555 1_555
C3_7 O22_8 1_555 1_555
C4_7 O30_8 1_555 1_555
C5_7 C3_7 1_555 1_555
C6_7 C5_7 1_555 1_555
H1_7 C6_7 1_555 1_555
C10_7 C5_7 1_555 1_555
H4_7 C10_7 1_555 1_555
C13_7 C4_7 1_555 1_555
C14_7 C13_7 1_555 1_555
H6_7 C14_7 1_555 1_555
C15_7 C14_7 1_555 1_555
H7_7 C15_7 1_555 1_555
C16_7 C15_7 1_555 1_555
C17_7 C16_7 1_555 1_555
C18_7 C13_7 1_555 1_555
H9_7 C18_7 1_555 1_555
C19_7 C16_7 1_555 1_555
C20_6 C19_7 1_555 1_555
C60_6 C19_7 1_555 1_555
H29_7 C60_6 1_555 1_555
O26_8 C3_7 1_555 1_555
C17_7 C18_7 1_555 1_555
O8_7 H31_7 1_555 1_555
O22_4 C26_7 1_555 1_555
C26_7 O26_4 1_555 1_555
C30_7 C26_7 1_555 1_555
C32_7 C30_7 1_555 1_555
H12_7 C32_7 1_555 1_555
C40_7 C30_7 1_555 1_555
H18_7 C40_7 1_555 1_555
O21_2 C25_7 1_555 1_555
C25_7 O25_2 1_555 1_555
C29_7 C25_7 1_555 1_555
C31_7 C29_7 1_555 1_555
H11_7 C31_7 1_555 1_555
C39_7 C29_7 1_555 1_555
H17_7 C39_7 1_555 1_555
O30 C28_7 1_555 1_555
O32_7 C28_7 1_555 1_555
C28_7 C46_7 1_555 1_555
C46_7 C48_7 1_555 1_555
C48_7 H22_7 1_555 1_555
C50_7 C48_7 1_555 1_555
H24_7 C50_7 1_555 1_555
C52_7 C50_7 1_555 1_555
C54_7 C52_7 1_555 1_555
H26_7 C54_7 1_555 1_555
C56_7 C46_7 1_555 1_555
H28_7 C56_7 1_555 1_555
C58_7 C52_7 1_555 1_555
C54_7 C56_7 1_555 1_555
O32_7 H32_7 1_555 1_555
O22_3 C26_8 1_555 1_555
C26_8 O26_3 1_555 1_555
C30_8 C26_8 1_555 1_555
C32_8 C30_8 1_555 1_555
H12_8 C32_8 1_555 1_555
C40_8 C30_8 1_555 1_555
H18_8 C40_8 1_555 1_555
O8_8 C4_8 1_555 1_555
C3_8 O22_6 1_555 1_555
C4_8 O30_6 1_555 1_555
C5_8 C3_8 1_555 1_555
C6_8 C5_8 1_555 1_555
H1_8 C6_8 1_555 1_555
C7_8 C6_8 1_555 1_555
H2_8 C7_8 1_555 1_555
C8_8 C7_8 1_555 1_555
C9_8 C8_8 1_555 1_555
H3_8 C9_8 1_555 1_555
C10_8 C5_8 1_555 1_555
H4_8 C10_8 1_555 1_555
C11_8 C8_8 1_555 1_555
C12_8 C11_8 1_555 1_555
H5_8 C12_8 1_555 1_555
C13_8 C4_8 1_555 1_555
C14_8 C13_8 1_555 1_555
H6_8 C14_8 1_555 1_555
C15_8 C14_8 1_555 1_555
H7_8 C15_8 1_555 1_555
C16_8 C15_8 1_555 1_555
C17_8 C16_8 1_555 1_555
H8_8 C17_8 1_555 1_555
C18_8 C13_8 1_555 1_555
H9_8 C18_8 1_555 1_555
C19_8 C16_8 1_555 1_555
C20_7 C19_8 1_555 1_555
H10_8 C20_7 1_555 1_555
O21 C25_8 1_555 1_555
O29_3 C27_8 1_555 1_555
O30_2 C28_8 1_555 1_555
O31_8 C27_8 1_555 1_555
O32_8 C28_8 1_555 1_555
C25_8 O25 1_555 1_555
C27_8 C45_8 1_555 1_555
C28_8 C46_8 1_555 1_555
C29_8 C25_8 1_555 1_555
C31_8 C29_8 1_555 1_555
H11_8 C31_8 1_555 1_555
C33_8 C31_8 1_555 1_555
H13_8 C33_8 1_555 1_555
H14_8 C34_8 1_555 1_555
C35_8 C33_8 1_555 1_555
C36_8 C34_8 1_555 1_555
C37_8 C35_8 1_555 1_555
C38_8 C36_8 1_555 1_555
H15_8 C37_8 1_555 1_555
H16_8 C38_8 1_555 1_555
C39_8 C29_8 1_555 1_555
H17_8 C39_8 1_555 1_555
C41_8 C12_8 1_555 1_555
C42_8 C36_8 1_555 1_555
C43_8 C41_8 1_555 1_555
C44_8 C11_8 1_555 1_555
H19_8 C44_8 1_555 1_555
H20_8 C43_8 1_555 1_555
C45_8 C47_8 1_555 1_555
C46_8 C48_8 1_555 1_555
C47_8 H21_8 1_555 1_555
C48_8 H22_8 1_555 1_555
C49_8 C47_8 1_555 1_555
C50_8 C48_8 1_555 1_555
H23_8 C49_8 1_555 1_555
H24_8 C50_8 1_555 1_555
C51_8 C49_8 1_555 1_555
C52_8 C50_8 1_555 1_555
C53_8 C51_8 1_555 1_555
C54_8 C52_8 1_555 1_555
H25_8 C53_8 1_555 1_555
H26_8 C54_8 1_555 1_555
C55_8 C45_8 1_555 1_555
C56_8 C46_8 1_555 1_555
H27_8 C55_8 1_555 1_555
H28_8 C56_8 1_555 1_555
C57_8 C20_7 1_555 1_555
C58_8 C52_8 1_555 1_555
C59_7 C57_8 1_555 1_555
C60_7 C19_8 1_555 1_555
H29_8 C60_7 1_555 1_555
H30_8 C59_7 1_555 1_555
O26_6 C3_8 1_555 1_555
C9_8 C10_8 1_555 1_555
C17_8 C18_8 1_555 1_555
C35_8 C41_8 1_555 1_555
C37_8 C39_8 1_555 1_555
C42_8 C43_8 1_555 1_555
C42_8 C44_8 1_555 1_555
C51_8 C57_8 1_555 1_555
C53_8 C55_8 1_555 1_555
C54_8 C56_8 1_555 1_555
C58_8 C59_7 1_555 1_555
C58_8 C60_7 1_555 1_555
O8_8 H31_8 1_555 1_555
O32_8 H32_8 1_555 1_555
O31_8 H33_8 1_555 1_555
In1_5 O1_9 1_555 1_555
O1_9 C1_9 1_555 1_555
O2_9 In1_5 1_555 1_555
O3_9 C1_9 1_555 1_555
O4_9 C2_9 1_555 1_555
O5_5 In1_5 1_555 1_555
O6_5 In1_5 1_555 1_555
O7_5 In1_5 1_555 1_555
O8_9 C4_9 1_555 1_555
C1_9 C2_9 1_555 1_555
C2_9 O2_9 1_555 1_555
C3_9 O5_5 1_555 1_555
C4_9 O7_5 1_555 1_555
C5_9 C3_9 1_555 1_555
C6_9 C5_9 1_555 1_555
H1_9 C6_9 1_555 1_555
C7_9 C6_9 1_555 1_555
H2_9 C7_9 1_555 1_555
C8_9 C7_9 1_555 1_555
C9_9 C8_9 1_555 1_555
H3_9 C9_9 1_555 1_555
C10_9 C5_9 1_555 1_555
H4_9 C10_9 1_555 1_555
C11_9 C8_9 1_555 1_555
C12_9 C11_9 1_555 1_555
H5_9 C12_9 1_555 1_555
C13_9 C4_9 1_555 1_555
C14_9 C13_9 1_555 1_555
H6_9 C14_9 1_555 1_555
C15_9 C14_9 1_555 1_555
H7_9 C15_9 1_555 1_555
C16_9 C15_9 1_555 1_555
C17_9 C16_9 1_555 1_555
H8_9 C17_9 1_555 1_555
C18_9 C13_9 1_555 1_555
H9_9 C18_9 1_555 1_555
C19_9 C16_9 1_555 1_555
In2_5 O9_5 1_555 1_555
In3_9 O3_9 1_555 1_555
In5_2 O20_5 1_555 1_555
In8_2 O10_5 1_555 1_555
O9_5 C21_13 1_555 1_555
O10_5 C22_5 1_555 1_555
O11_9 In3_9 1_555 1_555
O12_5 In2_5 1_555 1_555
O13_5 In8_2 1_555 1_555
O14_9 In3_9 1_555 1_555
O15_13 In1_5 1_555 1_555
O16_5 In2_5 1_555 1_555
O17_13 In1_5 1_555 1_555
O18_5 In2_5 1_555 1_555
O20_5 C26_9 1_555 1_555
O21_5 In2_5 1_555 1_555
O22_9 In3_9 1_555 1_555
O24_5 In5_2 1_555 1_555
O25_5 In2_5 1_555 1_555
O26_9 In3_9 1_555 1_555
O29_5 In2_5 1_555 1_555
O30_9 In3_9 1_555 1_555
C21_13 O15_13 1_555 1_555
C22_5 O16_5 1_555 1_555
C23_13 O12_5 1_555 1_555
C24_5 O13_5 1_555 1_555
C26_9 O24_5 1_555 1_555
C30_9 C26_9 1_555 1_555
C32_9 C30_9 1_555 1_555
H12_9 C32_9 1_555 1_555
C34_9 C32_9 1_555 1_555
H13_9 C33_9 1_555 1_555
H14_9 C34_9 1_555 1_555
C35_9 C33_9 1_555 1_555
C36_9 C34_9 1_555 1_555
C37_9 C35_9 1_555 1_555
C38_9 C36_9 1_555 1_555
H15_9 C37_9 1_555 1_555
H16_9 C38_9 1_555 1_555
C40_9 C30_9 1_555 1_555
H18_9 C40_9 1_555 1_555
C41_9 C12_9 1_555 1_555
C42_9 C36_9 1_555 1_555
C43_9 C41_9 1_555 1_555
C44_9 C11_9 1_555 1_555
H19_9 C44_9 1_555 1_555
H20_9 C43_9 1_555 1_555
O4_9 In3_9 1_555 1_555
O6_5 C3_9 1_555 1_555
C9_9 C10_9 1_555 1_555
C17_9 C18_9 1_555 1_555
O17_13 C23_13 1_555 1_555
O18_5 C24_5 1_555 1_555
C21_13 C23_13 1_555 1_555
C22_5 C24_5 1_555 1_555
C35_9 C41_9 1_555 1_555
C38_9 C40_9 1_555 1_555
C42_9 C43_9 1_555 1_555
C42_9 C44_9 1_555 1_555
O8_9 H31_9 1_555 1_555
H10_9 C20_9 1_555 1_555
In6_3 O27_5 1_555 1_555
O27_5 C27_9 1_555 1_555
O31_9 C27_9 1_555 1_555
C27_9 C45_9 1_555 1_555
C45_9 C47_9 1_555 1_555
C47_9 H21_9 1_555 1_555
C49_9 C47_9 1_555 1_555
H23_9 C49_9 1_555 1_555
C51_9 C49_9 1_555 1_555
C53_9 C51_9 1_555 1_555
C55_9 C45_9 1_555 1_555
H27_9 C55_9 1_555 1_555
C57_9 C20_9 1_555 1_555
C59_9 C57_9 1_555 1_555
C51_9 C57_9 1_555 1_555
C53_9 C55_9 1_555 1_555
O31_9 H33_9 1_555 1_555
In4_3 O19_5 1_555 1_555
O19_5 C25_9 1_555 1_555
O23_5 In4_3 1_555 1_555
C25_9 O23_5 1_555 1_555
C29_9 C25_9 1_555 1_555
C31_9 C29_9 1_555 1_555
H11_9 C31_9 1_555 1_555
C39_9 C29_9 1_555 1_555
H17_9 C39_9 1_555 1_555
In7_3 O28_5 1_555 1_555
O28_5 C28_9 1_555 1_555
O32_9 C28_9 1_555 1_555
C28_9 C46_9 1_555 1_555
C46_9 C48_9 1_555 1_555
C48_9 H22_9 1_555 1_555
C50_9 C48_9 1_555 1_555
H24_9 C50_9 1_555 1_555
C52_9 C50_9 1_555 1_555
C54_9 C52_9 1_555 1_555
C56_9 C46_9 1_555 1_555
H28_9 C56_9 1_555 1_555
C58_9 C52_9 1_555 1_555
C54_9 C56_9 1_555 1_555
O32_9 H32_9 1_555 1_555
In6_4 O27_6 1_555 1_555
O27_6 C27_10 1_555 1_555
O31_10 C27_10 1_555 1_555
C27_10 C45_10 1_555 1_555
C45_10 C47_10 1_555 1_555
C47_10 H21_10 1_555 1_555
C49_10 C47_10 1_555 1_555
H23_10 C49_10 1_555 1_555
C51_10 C49_10 1_555 1_555
C53_10 C51_10 1_555 1_555
H25_10 C53_10 1_555 1_555
C55_10 C45_10 1_555 1_555
H27_10 C55_10 1_555 1_555
C51_10 C57_10 1_555 1_555
C53_10 C55_10 1_555 1_555
O31_10 H33_10 1_555 1_555
In7_4 O28_6 1_555 1_555
O28_6 C28_10 1_555 1_555
O32_10 C28_10 1_555 1_555
C28_10 C46_10 1_555 1_555
C46_10 C48_10 1_555 1_555
C48_10 H22_10 1_555 1_555
C50_10 C48_10 1_555 1_555
H24_10 C50_10 1_555 1_555
C52_10 C50_10 1_555 1_555
C54_10 C52_10 1_555 1_555
C56_10 C46_10 1_555 1_555
H28_10 C56_10 1_555 1_555
C58_10 C52_10 1_555 1_555
H30_10 C59_10 1_555 1_555
C54_10 C56_10 1_555 1_555
C58_10 C59_10 1_555 1_555
C58_10 C60_10 1_555 1_555
O32_10 H32_10 1_555 1_555
H2_10 C7_10 1_555 1_555
C8_10 C7_10 1_555 1_555
C9_10 C8_10 1_555 1_555
H3_10 C9_10 1_555 1_555
C11_10 C8_10 1_555 1_555
C12_10 C11_10 1_555 1_555
H5_10 C12_10 1_555 1_555
In4_4 O19_6 1_555 1_555
In8_2 O20_6 1_555 1_555
O19_6 C25_10 1_555 1_555
O20_6 C26_10 1_555 1_555
O23_6 In4_4 1_555 1_555
O24_6 In8_2 1_555 1_555
C25_10 O23_6 1_555 1_555
C26_10 O24_6 1_555 1_555
C29_10 C25_10 1_555 1_555
C30_10 C26_10 1_555 1_555
C31_10 C29_10 1_555 1_555
C32_10 C30_10 1_555 1_555
H11_10 C31_10 1_555 1_555
H12_10 C32_10 1_555 1_555
C33_10 C31_10 1_555 1_555
C34_10 C32_10 1_555 1_555
H13_10 C33_10 1_555 1_555
H14_10 C34_10 1_555 1_555
C35_10 C33_10 1_555 1_555
C36_10 C34_10 1_555 1_555
C37_10 C35_10 1_555 1_555
C38_10 C36_10 1_555 1_555
H15_10 C37_10 1_555 1_555
H16_10 C38_10 1_555 1_555
C39_10 C29_10 1_555 1_555
C40_10 C30_10 1_555 1_555
H17_10 C39_10 1_555 1_555
H18_10 C40_10 1_555 1_555
C41_10 C12_10 1_555 1_555
C42_10 C36_10 1_555 1_555
C43_10 C41_10 1_555 1_555
C44_10 C11_10 1_555 1_555
H19_10 C44_10 1_555 1_555
H20_10 C43_10 1_555 1_555
C35_10 C41_10 1_555 1_555
C37_10 C39_10 1_555 1_555
C38_10 C40_10 1_555 1_555
C42_10 C43_10 1_555 1_555
C42_10 C44_10 1_555 1_555
In1_6 O1_10 1_555 1_555
O1_10 C1_10 1_555 1_555
O2_10 In1_6 1_555 1_555
O3_10 C1_10 1_555 1_555
O4_10 C2_10 1_555 1_555
O5_6 In1_6 1_555 1_555
O6_6 In1_6 1_555 1_555
O7_6 In1_6 1_555 1_555
O8_10 C4_10 1_555 1_555
C1_10 C2_10 1_555 1_555
C2_10 O2_10 1_555 1_555
C3_10 O5_6 1_555 1_555
C4_10 O7_6 1_555 1_555
C5_10 C3_10 1_555 1_555
C6_10 C5_10 1_555 1_555
H1_10 C6_10 1_555 1_555
C10_10 C5_10 1_555 1_555
H4_10 C10_10 1_555 1_555
C13_10 C4_10 1_555 1_555
C14_10 C13_10 1_555 1_555
H6_10 C14_10 1_555 1_555
C15_10 C14_10 1_555 1_555
H7_10 C15_10 1_555 1_555
C16_10 C15_10 1_555 1_555
C17_10 C16_10 1_555 1_555
C18_10 C13_10 1_555 1_555
H9_10 C18_10 1_555 1_555
C19_10 C16_10 1_555 1_555
In2_6 O9_6 1_555 1_555
In3_10 O3_10 1_555 1_555
In5_2 O10_6 1_555 1_555
O9_6 C21_14 1_555 1_555
O10_6 C22_6 1_555 1_555
O11_10 In3_10 1_555 1_555
O12_6 In2_6 1_555 1_555
O13_6 In5_2 1_555 1_555
O14_10 In3_10 1_555 1_555
O15_14 In1_6 1_555 1_555
O16_6 In2_6 1_555 1_555
O17_14 In1_6 1_555 1_555
O18_6 In2_6 1_555 1_555
O21_6 In2_6 1_555 1_555
O22_10 In3_10 1_555 1_555
O25_6 In2_6 1_555 1_555
O26_10 In3_10 1_555 1_555
O29_6 In2_6 1_555 1_555
O30_10 In3_10 1_555 1_555
C21_14 O15_14 1_555 1_555
C22_6 O16_6 1_555 1_555
C23_14 O12_6 1_555 1_555
C24_6 O13_6 1_555 1_555
O4_10 In3_10 1_555 1_555
O6_6 C3_10 1_555 1_555
C17_10 C18_10 1_555 1_555
O17_14 C23_14 1_555 1_555
O18_6 C24_6 1_555 1_555
C21_14 C23_14 1_555 1_555
C22_6 C24_6 1_555 1_555
O8_10 H31_10 1_555 1_555
In8_2 O28_7 1_555 1_555
O28_7 C28_11 1_555 1_555
O32_11 C28_11 1_555 1_555
C28_11 C46_11 1_555 1_555
C46_11 C48_11 1_555 1_555
C48_11 H22_11 1_555 1_555
C50_11 C48_11 1_555 1_555
H24_11 C50_11 1_555 1_555
C52_11 C50_11 1_555 1_555
C54_11 C52_11 1_555 1_555
H26_11 C54_11 1_555 1_555
C56_11 C46_11 1_555 1_555
H28_11 C56_11 1_555 1_555
C58_11 C52_11 1_555 1_555
C54_11 C56_11 1_555 1_555
O32_11 H32_11 1_555 1_555
In6_3 O19_7 1_555 1_555
O19_7 C25_11 1_555 1_555
O23_7 In6_3 1_555 1_555
C25_11 O23_7 1_555 1_555
C29_11 C25_11 1_555 1_555
C31_11 C29_11 1_555 1_555
H11_11 C31_11 1_555 1_555
C39_11 C29_11 1_555 1_555
H17_11 C39_11 1_555 1_555
In7_4 O20_7 1_555 1_555
O20_7 C26_11 1_555 1_555
O24_7 In7_4 1_555 1_555
C26_11 O24_7 1_555 1_555
C30_11 C26_11 1_555 1_555
C32_11 C30_11 1_555 1_555
H12_11 C32_11 1_555 1_555
C40_11 C30_11 1_555 1_555
H18_11 C40_11 1_555 1_555
In1_7 O1_11 1_555 1_555
O1_11 C1_11 1_555 1_555
O2_11 In1_7 1_555 1_555
O3_11 C1_11 1_555 1_555
O4_11 C2_11 1_555 1_555
O5_7 In1_7 1_555 1_555
O6_7 In1_7 1_555 1_555
O7_7 In1_7 1_555 1_555
O8_11 C4_11 1_555 1_555
C1_11 C2_11 1_555 1_555
C2_11 O2_11 1_555 1_555
C3_11 O5_7 1_555 1_555
C4_11 O7_7 1_555 1_555
C5_11 C3_11 1_555 1_555
C6_11 C5_11 1_555 1_555
H1_11 C6_11 1_555 1_555
C10_11 C5_11 1_555 1_555
H4_11 C10_11 1_555 1_555
C13_11 C4_11 1_555 1_555
C14_11 C13_11 1_555 1_555
H6_11 C14_11 1_555 1_555
C15_11 C14_11 1_555 1_555
H7_11 C15_11 1_555 1_555
C16_11 C15_11 1_555 1_555
C17_11 C16_11 1_555 1_555
C18_11 C13_11 1_555 1_555
H9_11 C18_11 1_555 1_555
C19_11 C16_11 1_555 1_555
C20_11 C19_11 1_555 1_555
In2_7 O9_7 1_555 1_555
In3_11 O3_11 1_555 1_555
In7_3 O10_7 1_555 1_555
O9_7 C21_15 1_555 1_555
O10_7 C22_7 1_555 1_555
O11_11 In3_11 1_555 1_555
O12_7 In2_7 1_555 1_555
O13_7 In7_3 1_555 1_555
O14_11 In3_11 1_555 1_555
O15_15 In1_7 1_555 1_555
O16_7 In2_7 1_555 1_555
O17_15 In1_7 1_555 1_555
O18_7 In2_7 1_555 1_555
O21_7 In2_7 1_555 1_555
O22_11 In3_11 1_555 1_555
O25_7 In2_7 1_555 1_555
O26_11 In3_11 1_555 1_555
O29_7 In2_7 1_555 1_555
O30_11 In3_11 1_555 1_555
C21_15 O15_15 1_555 1_555
C22_7 O16_7 1_555 1_555
C23_15 O12_7 1_555 1_555
C24_7 O13_7 1_555 1_555
C60_11 C19_11 1_555 1_555
H29_11 C60_11 1_555 1_555
O4_11 In3_11 1_555 1_555
O6_7 C3_11 1_555 1_555
C17_11 C18_11 1_555 1_555
O17_15 C23_15 1_555 1_555
O18_7 C24_7 1_555 1_555
C21_15 C23_15 1_555 1_555
C22_7 C24_7 1_555 1_555
O8_11 H31_11 1_555 1_555
H2_11 C7_11 1_555 1_555
C8_11 C7_11 1_555 1_555
C9_11 C8_11 1_555 1_555
H3_11 C9_11 1_555 1_555
C11_11 C8_11 1_555 1_555
C12_11 C11_11 1_555 1_555
H5_11 C12_11 1_555 1_555
In4_3 O27_7 1_555 1_555
O27_7 C27_11 1_555 1_555
O31_11 C27_11 1_555 1_555
C27_11 C45_11 1_555 1_555
H13_11 C33_11 1_555 1_555
H14_11 C34_11 1_555 1_555
C35_11 C33_11 1_555 1_555
C36_11 C34_11 1_555 1_555
C37_11 C35_11 1_555 1_555
C38_11 C36_11 1_555 1_555
H15_11 C37_11 1_555 1_555
H16_11 C38_11 1_555 1_555
C41_11 C12_11 1_555 1_555
C42_11 C36_11 1_555 1_555
C43_11 C41_11 1_555 1_555
C44_11 C11_11 1_555 1_555
H19_11 C44_11 1_555 1_555
H20_11 C43_11 1_555 1_555
C45_11 C47_11 1_555 1_555
C47_11 H21_11 1_555 1_555
C49_11 C47_11 1_555 1_555
H23_11 C49_11 1_555 1_555
C51_11 C49_11 1_555 1_555
C53_11 C51_11 1_555 1_555
C55_11 C45_11 1_555 1_555
H27_11 C55_11 1_555 1_555
C35_11 C41_11 1_555 1_555
C42_11 C43_11 1_555 1_555
C42_11 C44_11 1_555 1_555
C51_11 C57_11 1_555 1_555
C53_11 C55_11 1_555 1_555
O31_11 H33_11 1_555 1_555
In1_8 O1_12 1_555 1_555
O1_12 C1_12 1_555 1_555
O2_12 In1_8 1_555 1_555
O3_12 C1_12 1_555 1_555
O4_12 C2_12 1_555 1_555
O5_8 In1_8 1_555 1_555
O6_8 In1_8 1_555 1_555
O7_8 In1_8 1_555 1_555
O8_12 C4_12 1_555 1_555
C1_12 C2_12 1_555 1_555
C2_12 O2_12 1_555 1_555
C3_12 O5_8 1_555 1_555
C4_12 O7_8 1_555 1_555
C5_12 C3_12 1_555 1_555
C6_12 C5_12 1_555 1_555
H1_12 C6_12 1_555 1_555
C7_12 C6_12 1_555 1_555
H2_12 C7_12 1_555 1_555
C8_12 C7_12 1_555 1_555
C9_12 C8_12 1_555 1_555
H3_12 C9_12 1_555 1_555
C10_12 C5_12 1_555 1_555
H4_12 C10_12 1_555 1_555
C11_12 C8_12 1_555 1_555
C12_12 C11_12 1_555 1_555
H5_12 C12_12 1_555 1_555
C13_12 C4_12 1_555 1_555
C14_12 C13_12 1_555 1_555
H6_12 C14_12 1_555 1_555
C15_12 C14_12 1_555 1_555
H7_12 C15_12 1_555 1_555
C16_12 C15_12 1_555 1_555
C17_12 C16_12 1_555 1_555
H8_12 C17_12 1_555 1_555
C18_12 C13_12 1_555 1_555
H9_12 C18_12 1_555 1_555
C19_12 C16_12 1_555 1_555
C20_12 C19_12 1_555 1_555
H10_12 C20_12 1_555 1_555
In2_8 O9_8 1_555 1_555
In3_12 O3_12 1_555 1_555
In6_4 O19_8 1_555 1_555
In4_4 O27_8 1_555 1_555
In5_2 O28_8 1_555 1_555
In7_4 O10_8 1_555 1_555
O9_8 C21_16 1_555 1_555
O10_8 C22_8 1_555 1_555
O11_12 In3_12 1_555 1_555
O12_8 In2_8 1_555 1_555
O13_8 In7_4 1_555 1_555
O14_12 In3_12 1_555 1_555
O15_16 In1_8 1_555 1_555
O16_8 In2_8 1_555 1_555
O17_16 In1_8 1_555 1_555
O18_8 In2_8 1_555 1_555
O19_8 C25_12 1_555 1_555
O21_8 In2_8 1_555 1_555
O22_12 In3_12 1_555 1_555
O23_8 In6_4 1_555 1_555
O25_8 In2_8 1_555 1_555
O26_12 In3_12 1_555 1_555
O27_8 C27_12 1_555 1_555
O28_8 C28_12 1_555 1_555
O29_8 In2_8 1_555 1_555
O30_12 In3_12 1_555 1_555
O31_12 C27_12 1_555 1_555
O32_12 C28_12 1_555 1_555
C21_16 O15_16 1_555 1_555
C22_8 O16_8 1_555 1_555
C23_16 O12_8 1_555 1_555
C24_8 O13_8 1_555 1_555
C25_12 O23_8 1_555 1_555
C27_12 C45_12 1_555 1_555
C28_12 C46_12 1_555 1_555
C29_12 C25_12 1_555 1_555
C31_12 C29_12 1_555 1_555
H11_12 C31_12 1_555 1_555
C33_12 C31_12 1_555 1_555
H13_12 C33_12 1_555 1_555
H14_12 C34_12 1_555 1_555
C35_12 C33_12 1_555 1_555
C36_12 C34_12 1_555 1_555
C37_12 C35_12 1_555 1_555
C38_12 C36_12 1_555 1_555
H15_12 C37_12 1_555 1_555
H16_12 C38_12 1_555 1_555
C39_12 C29_12 1_555 1_555
H17_12 C39_12 1_555 1_555
C41_12 C12_12 1_555 1_555
C42_12 C36_12 1_555 1_555
C43_12 C41_12 1_555 1_555
C44_12 C11_12 1_555 1_555
H19_12 C44_12 1_555 1_555
H20_12 C43_12 1_555 1_555
C45_12 C47_12 1_555 1_555
C46_12 C48_12 1_555 1_555
C47_12 H21_12 1_555 1_555
C48_12 H22_12 1_555 1_555
C49_12 C47_12 1_555 1_555
C50_12 C48_12 1_555 1_555
H23_12 C49_12 1_555 1_555
H24_12 C50_12 1_555 1_555
C51_12 C49_12 1_555 1_555
C52_12 C50_12 1_555 1_555
C53_12 C51_12 1_555 1_555
C54_12 C52_12 1_555 1_555
H25_12 C53_12 1_555 1_555
H26_12 C54_12 1_555 1_555
C55_12 C45_12 1_555 1_555
C56_12 C46_12 1_555 1_555
H27_12 C55_12 1_555 1_555
H28_12 C56_12 1_555 1_555
C57_12 C20_12 1_555 1_555
C58_12 C52_12 1_555 1_555
C59_12 C57_12 1_555 1_555
C60_12 C19_12 1_555 1_555
H29_12 C60_12 1_555 1_555
H30_12 C59_12 1_555 1_555
O4_12 In3_12 1_555 1_555
O6_8 C3_12 1_555 1_555
C9_12 C10_12 1_555 1_555
C17_12 C18_12 1_555 1_555
O17_16 C23_16 1_555 1_555
O18_8 C24_8 1_555 1_555
C21_16 C23_16 1_555 1_555
C22_8 C24_8 1_555 1_555
C35_12 C41_12 1_555 1_555
C37_12 C39_12 1_555 1_555
C42_12 C43_12 1_555 1_555
C42_12 C44_12 1_555 1_555
C51_12 C57_12 1_555 1_555
C53_12 C55_12 1_555 1_555
C54_12 C56_12 1_555 1_555
C58_12 C59_12 1_555 1_555
C58_12 C60_12 1_555 1_555
O8_12 H31_12 1_555 1_555
O32_12 H32_12 1_555 1_555
O31_12 H33_12 1_555 1_555
In7_3 O20_8 1_555 1_555
O20_8 C26_12 1_555 1_555
O24_8 In7_3 1_555 1_555
C26_12 O24_8 1_555 1_555
C30_12 C26_12 1_555 1_555
C32_12 C30_12 1_555 1_555
H12_12 C32_12 1_555 1_555
C40_12 C30_12 1_555 1_555
H18_12 C40_12 1_555 1_555
In6_4 O1_13 1_555 1_555
O1_13 C1_13 1_555 1_555
O2_13 In6_4 1_555 1_555
O3_13 C1_13 1_555 1_555
O4_13 C2_13 1_555 1_555
C1_13 C2_13 1_555 1_555
C2_13 O2_13 1_555 1_555
In3_13 O3_13 1_555 1_555
O11_9 C21_17 1_555 1_555
O11_13 In3_13 1_555 1_555
O14_13 In3_13 1_555 1_555
O15_17 In6_4 1_555 1_555
O17_17 In6_4 1_555 1_555
O22_13 In3_13 1_555 1_555
O26_13 In3_13 1_555 1_555
O30_13 In3_13 1_555 1_555
C21_17 O15_17 1_555 1_555
C23_17 O14_9 1_555 1_555
O4_13 In3_13 1_555 1_555
O17_17 C23_17 1_555 1_555
C21_17 C23_17 1_555 1_555
In4_3 O1_14 1_555 1_555
O1_14 C1_14 1_555 1_555
O2_14 In4_3 1_555 1_555
O3_14 C1_14 1_555 1_555
O4_14 C2_14 1_555 1_555
C1_14 C2_14 1_555 1_555
C2_14 O2_14 1_555 1_555
In3_14 O3_14 1_555 1_555
O11_12 C21_18 1_555 1_555
O11_14 In3_14 1_555 1_555
O14_14 In3_14 1_555 1_555
O15_18 In4_3 1_555 1_555
O17_18 In4_3 1_555 1_555
O22_14 In3_14 1_555 1_555
O26_14 In3_14 1_555 1_555
O30_14 In3_14 1_555 1_555
C21_18 O15_18 1_555 1_555
C23_18 O14_12 1_555 1_555
O4_14 In3_14 1_555 1_555
O17_18 C23_18 1_555 1_555
C21_18 C23_18 1_555 1_555
In6_3 O1_15 1_555 1_555
O1_15 C1_15 1_555 1_555
O2_15 In6_3 1_555 1_555
O3_15 C1_15 1_555 1_555
O4_15 C2_15 1_555 1_555
C1_15 C2_15 1_555 1_555
C2_15 O2_15 1_555 1_555
In3_15 O3_15 1_555 1_555
O11_10 C21_19 1_555 1_555
O11_15 In3_15 1_555 1_555
O14_15 In3_15 1_555 1_555
O15_19 In6_3 1_555 1_555
O17_19 In6_3 1_555 1_555
O22_15 In3_15 1_555 1_555
O26_15 In3_15 1_555 1_555
O30_15 In3_15 1_555 1_555
C21_19 O15_19 1_555 1_555
C23_19 O14_10 1_555 1_555
O4_15 In3_15 1_555 1_555
O17_19 C23_19 1_555 1_555
C21_19 C23_19 1_555 1_555
In4_4 O1_16 1_555 1_555
O1_16 C1_16 1_555 1_555
O2_16 In4_4 1_555 1_555
O3_16 C1_16 1_555 1_555
O4_16 C2_16 1_555 1_555
C1_16 C2_16 1_555 1_555
C2_16 O2_16 1_555 1_555
In3_16 O3_16 1_555 1_555
O11_11 C21_20 1_555 1_555
O11_16 In3_16 1_555 1_555
O14_16 In3_16 1_555 1_555
O15_20 In4_4 1_555 1_555
O17_20 In4_4 1_555 1_555
O22_16 In3_16 1_555 1_555
O26_16 In3_16 1_555 1_555
O30_16 In3_16 1_555 1_555
C21_20 O15_20 1_555 1_555
C23_20 O14_11 1_555 1_555
O4_16 In3_16 1_555 1_555
O17_20 C23_20 1_555 1_555
C21_20 C23_20 1_555 1_555
O11_13 C21_21 1_555 1_555
O15_21 In8_2 1_555 1_555
O17_21 In8_2 1_555 1_555
C21_21 O15_21 1_555 1_555
C23_21 O14_13 1_555 1_555
O17_21 C23_21 1_555 1_555
C21_21 C23_21 1_555 1_555
O11_16 C21_22 1_555 1_555
O15_22 In7_3 1_555 1_555
O17_22 In7_3 1_555 1_555
C21_22 O15_22 1_555 1_555
C23_22 O14_16 1_555 1_555
O17_22 C23_22 1_555 1_555
C21_22 C23_22 1_555 1_555
O11_14 C21_23 1_555 1_555
O15_23 In7_4 1_555 1_555
O17_23 In7_4 1_555 1_555
C21_23 O15_23 1_555 1_555
C23_23 O14_14 1_555 1_555
O17_23 C23_23 1_555 1_555
C21_23 C23_23 1_555 1_555
O11_15 C21_24 1_555 1_555
O15_24 In5_2 1_555 1_555
O17_24 In5_2 1_555 1_555
C21_24 O15_24 1_555 1_555
C23_24 O14_15 1_555 1_555
O17_24 C23_24 1_555 1_555
C21_24 C23_24 1_555 1_555
O8_13 C4_13 1_555 1_555
C3_13 O22_13 1_555 1_555
C4_13 O30_13 1_555 1_555
C5_13 C3_13 1_555 1_555
C6_13 C5_13 1_555 1_555
H1_13 C6_13 1_555 1_555
C10_13 C5_13 1_555 1_555
H4_13 C10_13 1_555 1_555
C13_13 C4_13 1_555 1_555
C14_13 C13_13 1_555 1_555
H6_13 C14_13 1_555 1_555
C15_13 C14_13 1_555 1_555
H7_13 C15_13 1_555 1_555
C16_13 C15_13 1_555 1_555
C17_13 C16_13 1_555 1_555
C18_13 C13_13 1_555 1_555
H9_13 C18_13 1_555 1_555
C19_13 C16_13 1_555 1_555
C20_13 C19_13 1_555 1_555
O30_11 C28_13 1_555 1_555
O32_13 C28_13 1_555 1_555
C28_13 C46_13 1_555 1_555
C46_13 C48_13 1_555 1_555
C48_13 H22_13 1_555 1_555
C50_13 C48_13 1_555 1_555
H24_13 C50_13 1_555 1_555
C52_13 C50_13 1_555 1_555
C54_13 C52_13 1_555 1_555
H26_13 C54_13 1_555 1_555
C56_13 C46_13 1_555 1_555
H28_13 C56_13 1_555 1_555
C58_13 C52_13 1_555 1_555
C60_13 C19_13 1_555 1_555
H29_13 C60_13 1_555 1_555
H30_13 C59_13 1_555 1_555
O26_13 C3_13 1_555 1_555
C17_13 C18_13 1_555 1_555
C54_13 C56_13 1_555 1_555
C58_13 C59_13 1_555 1_555
C58_13 C60_13 1_555 1_555
O8_13 H31_13 1_555 1_555
O32_13 H32_13 1_555 1_555
H2_13 C7_13 1_555 1_555
C8_13 C7_13 1_555 1_555
C9_13 C8_13 1_555 1_555
H3_13 C9_13 1_555 1_555
C11_13 C8_13 1_555 1_555
C12_13 C11_13 1_555 1_555
H5_13 C12_13 1_555 1_555
O21_8 C25_13 1_555 1_555
O29_6 C27_13 1_555 1_555
O31_13 C27_13 1_555 1_555
C25_13 O25_8 1_555 1_555
C27_13 C45_13 1_555 1_555
C29_13 C25_13 1_555 1_555
C31_13 C29_13 1_555 1_555
H11_13 C31_13 1_555 1_555
C33_13 C31_13 1_555 1_555
H13_13 C33_13 1_555 1_555
H14_13 C34_13 1_555 1_555
C35_13 C33_13 1_555 1_555
C36_13 C34_13 1_555 1_555
C37_13 C35_13 1_555 1_555
C38_13 C36_13 1_555 1_555
H15_13 C37_13 1_555 1_555
H16_13 C38_13 1_555 1_555
C39_13 C29_13 1_555 1_555
H17_13 C39_13 1_555 1_555
C41_13 C12_13 1_555 1_555
C42_13 C36_13 1_555 1_555
C43_13 C41_13 1_555 1_555
C44_13 C11_13 1_555 1_555
H19_13 C44_13 1_555 1_555
H20_13 C43_13 1_555 1_555
C45_13 C47_13 1_555 1_555
C47_13 H21_13 1_555 1_555
C49_13 C47_13 1_555 1_555
H23_13 C49_13 1_555 1_555
C51_13 C49_13 1_555 1_555
C53_13 C51_13 1_555 1_555
H25_13 C53_13 1_555 1_555
C55_13 C45_13 1_555 1_555
H27_13 C55_13 1_555 1_555
C35_13 C41_13 1_555 1_555
C37_13 C39_13 1_555 1_555
C42_13 C43_13 1_555 1_555
C42_13 C44_13 1_555 1_555
C51_13 C57_13 1_555 1_555
C53_13 C55_13 1_555 1_555
O31_13 H33_13 1_555 1_555
O22_10 C26_13 1_555 1_555
C26_13 O26_10 1_555 1_555
C30_13 C26_13 1_555 1_555
C32_13 C30_13 1_555 1_555
H12_13 C32_13 1_555 1_555
C40_13 C30_13 1_555 1_555
H18_13 C40_13 1_555 1_555
O22_9 C26_14 1_555 1_555
C26_14 O26_9 1_555 1_555
C30_14 C26_14 1_555 1_555
C32_14 C30_14 1_555 1_555
H12_14 C32_14 1_555 1_555
C40_14 C30_14 1_555 1_555
H18_14 C40_14 1_555 1_555
O8_14 C4_14 1_555 1_555
C3_14 O22_15 1_555 1_555
C4_14 O30_15 1_555 1_555
C5_14 C3_14 1_555 1_555
C6_14 C5_14 1_555 1_555
H1_14 C6_14 1_555 1_555
C7_14 C6_14 1_555 1_555
H2_14 C7_14 1_555 1_555
C8_14 C7_14 1_555 1_555
C9_14 C8_14 1_555 1_555
H3_14 C9_14 1_555 1_555
C10_14 C5_14 1_555 1_555
H4_14 C10_14 1_555 1_555
C11_14 C8_14 1_555 1_555
C12_14 C11_14 1_555 1_555
H5_14 C12_14 1_555 1_555
C13_14 C4_14 1_555 1_555
C14_14 C13_14 1_555 1_555
H6_14 C14_14 1_555 1_555
C15_14 C14_14 1_555 1_555
H7_14 C15_14 1_555 1_555
C16_14 C15_14 1_555 1_555
C17_14 C16_14 1_555 1_555
H8_14 C17_14 1_555 1_555
C18_14 C13_14 1_555 1_555
H9_14 C18_14 1_555 1_555
C19_14 C16_14 1_555 1_555
C20_14 C19_14 1_555 1_555
H10_14 C20_14 1_555 1_555
O29_5 C27_14 1_555 1_555
O31_14 C27_14 1_555 1_555
C27_14 C45_14 1_555 1_555
H13_14 C33_14 1_555 1_555
H14_14 C34_14 1_555 1_555
C35_14 C33_14 1_555 1_555
C36_14 C34_14 1_555 1_555
C37_14 C35_14 1_555 1_555
C38_14 C36_14 1_555 1_555
H15_14 C37_14 1_555 1_555
H16_14 C38_14 1_555 1_555
C41_14 C12_14 1_555 1_555
C42_14 C36_14 1_555 1_555
C43_14 C41_14 1_555 1_555
C44_14 C11_14 1_555 1_555
H19_14 C44_14 1_555 1_555
H20_14 C43_14 1_555 1_555
C45_14 C47_14 1_555 1_555
C47_14 H21_14 1_555 1_555
C49_14 C47_14 1_555 1_555
H23_14 C49_14 1_555 1_555
C51_14 C49_14 1_555 1_555
C53_14 C51_14 1_555 1_555
C55_14 C45_14 1_555 1_555
H27_14 C55_14 1_555 1_555
C57_14 C20_14 1_555 1_555
C59_14 C57_14 1_555 1_555
C60_14 C19_14 1_555 1_555
H29_14 C60_14 1_555 1_555
O26_15 C3_14 1_555 1_555
C9_14 C10_14 1_555 1_555
C17_14 C18_14 1_555 1_555
C35_14 C41_14 1_555 1_555
C42_14 C43_14 1_555 1_555
C42_14 C44_14 1_555 1_555
C51_14 C57_14 1_555 1_555
C53_14 C55_14 1_555 1_555
O8_14 H31_14 1_555 1_555
O31_14 H33_14 1_555 1_555
O21_7 C25_14 1_555 1_555
O30_12 C28_14 1_555 1_555
O32_14 C28_14 1_555 1_555
C25_14 O25_7 1_555 1_555
C28_14 C46_14 1_555 1_555
C29_14 C25_14 1_555 1_555
C31_14 C29_14 1_555 1_555
H11_14 C31_14 1_555 1_555
C39_14 C29_14 1_555 1_555
H17_14 C39_14 1_555 1_555
C46_14 C48_14 1_555 1_555
C48_14 H22_14 1_555 1_555
C50_14 C48_14 1_555 1_555
H24_14 C50_14 1_555 1_555
C52_14 C50_14 1_555 1_555
C54_14 C52_14 1_555 1_555
H26_14 C54_14 1_555 1_555
C56_14 C46_14 1_555 1_555
H28_14 C56_14 1_555 1_555
C58_14 C52_14 1_555 1_555
C54_14 C56_14 1_555 1_555
O32_14 H32_14 1_555 1_555
H10_15 C20_15 1_555 1_555
O29_8 C27_15 1_555 1_555
O30_9 C28_15 1_555 1_555
O31_15 C27_15 1_555 1_555
O32_15 C28_15 1_555 1_555
C27_15 C45_15 1_555 1_555
C28_15 C46_15 1_555 1_555
C45_15 C47_15 1_555 1_555
C46_15 C48_15 1_555 1_555
C47_15 H21_15 1_555 1_555
C48_15 H22_15 1_555 1_555
C49_15 C47_15 1_555 1_555
C50_15 C48_15 1_555 1_555
H23_15 C49_15 1_555 1_555
H24_15 C50_15 1_555 1_555
C51_15 C49_15 1_555 1_555
C52_15 C50_15 1_555 1_555
C53_15 C51_15 1_555 1_555
C54_15 C52_15 1_555 1_555
H25_15 C53_15 1_555 1_555
C55_15 C45_15 1_555 1_555
C56_15 C46_15 1_555 1_555
H27_15 C55_15 1_555 1_555
H28_15 C56_15 1_555 1_555
C57_15 C20_15 1_555 1_555
C58_15 C52_15 1_555 1_555
C59_15 C57_15 1_555 1_555
H30_15 C59_15 1_555 1_555
C51_15 C57_15 1_555 1_555
C53_15 C55_15 1_555 1_555
C54_15 C56_15 1_555 1_555
C58_15 C59_15 1_555 1_555
C58_15 C60_15 1_555 1_555
O32_15 H32_15 1_555 1_555
O31_15 H33_15 1_555 1_555
O8_15 C4_15 1_555 1_555
C3_15 O22_16 1_555 1_555
C4_15 O30_16 1_555 1_555
C5_15 C3_15 1_555 1_555
C6_15 C5_15 1_555 1_555
H1_15 C6_15 1_555 1_555
C7_15 C6_15 1_555 1_555
H2_15 C7_15 1_555 1_555
C8_15 C7_15 1_555 1_555
C9_15 C8_15 1_555 1_555
H3_15 C9_15 1_555 1_555
C10_15 C5_15 1_555 1_555
H4_15 C10_15 1_555 1_555
C11_15 C8_15 1_555 1_555
C12_15 C11_15 1_555 1_555
H5_15 C12_15 1_555 1_555
C13_15 C4_15 1_555 1_555
C14_15 C13_15 1_555 1_555
H6_15 C14_15 1_555 1_555
C15_15 C14_15 1_555 1_555
H7_15 C15_15 1_555 1_555
C16_15 C15_15 1_555 1_555
C17_15 C16_15 1_555 1_555
H8_15 C17_15 1_555 1_555
C18_15 C13_15 1_555 1_555
H9_15 C18_15 1_555 1_555
C19_15 C16_15 1_555 1_555
O21_6 C25_15 1_555 1_555
O22_12 C26_15 1_555 1_555
C25_15 O25_6 1_555 1_555
C26_15 O26_12 1_555 1_555
C29_15 C25_15 1_555 1_555
C30_15 C26_15 1_555 1_555
C31_15 C29_15 1_555 1_555
C32_15 C30_15 1_555 1_555
H11_15 C31_15 1_555 1_555
H12_15 C32_15 1_555 1_555
C33_15 C31_15 1_555 1_555
C34_15 C32_15 1_555 1_555
H13_15 C33_15 1_555 1_555
H14_15 C34_15 1_555 1_555
C35_15 C33_15 1_555 1_555
C36_15 C34_15 1_555 1_555
C37_15 C35_15 1_555 1_555
C38_15 C36_15 1_555 1_555
H15_15 C37_15 1_555 1_555
H16_15 C38_15 1_555 1_555
C39_15 C29_15 1_555 1_555
C40_15 C30_15 1_555 1_555
H17_15 C39_15 1_555 1_555
H18_15 C40_15 1_555 1_555
C41_15 C12_15 1_555 1_555
C42_15 C36_15 1_555 1_555
C43_15 C41_15 1_555 1_555
C44_15 C11_15 1_555 1_555
H19_15 C44_15 1_555 1_555
H20_15 C43_15 1_555 1_555
O26_16 C3_15 1_555 1_555
C9_15 C10_15 1_555 1_555
C17_15 C18_15 1_555 1_555
C35_15 C41_15 1_555 1_555
C37_15 C39_15 1_555 1_555
C38_15 C40_15 1_555 1_555
C42_15 C43_15 1_555 1_555
C42_15 C44_15 1_555 1_555
O8_15 H31_15 1_555 1_555
O21_5 C25_16 1_555 1_555
C25_16 O25_5 1_555 1_555
C29_16 C25_16 1_555 1_555
C31_16 C29_16 1_555 1_555
H11_16 C31_16 1_555 1_555
C39_16 C29_16 1_555 1_555
H17_16 C39_16 1_555 1_555
O30_10 C28_16 1_555 1_555
O32_16 C28_16 1_555 1_555
C28_16 C46_16 1_555 1_555
C46_16 C48_16 1_555 1_555
C48_16 H22_16 1_555 1_555
C50_16 C48_16 1_555 1_555
H24_16 C50_16 1_555 1_555
C52_16 C50_16 1_555 1_555
C54_16 C52_16 1_555 1_555
C56_16 C46_16 1_555 1_555
H28_16 C56_16 1_555 1_555
C58_16 C52_16 1_555 1_555
C54_16 C56_16 1_555 1_555
O32_16 H32_16 1_555 1_555
H2_16 C7_16 1_555 1_555
C8_16 C7_16 1_555 1_555
C9_16 C8_16 1_555 1_555
H3_16 C9_16 1_555 1_555
C11_16 C8_16 1_555 1_555
C12_16 C11_16 1_555 1_555
H5_16 C12_16 1_555 1_555
O22_11 C26_16 1_555 1_555
C26_16 O26_11 1_555 1_555
C30_16 C26_16 1_555 1_555
C32_16 C30_16 1_555 1_555
H12_16 C32_16 1_555 1_555
C34_16 C32_16 1_555 1_555
H13_16 C33_16 1_555 1_555
H14_16 C34_16 1_555 1_555
C35_16 C33_16 1_555 1_555
C36_16 C34_16 1_555 1_555
C37_16 C35_16 1_555 1_555
C38_16 C36_16 1_555 1_555
H15_16 C37_16 1_555 1_555
H16_16 C38_16 1_555 1_555
C40_16 C30_16 1_555 1_555
H18_16 C40_16 1_555 1_555
C41_16 C12_16 1_555 1_555
C42_16 C36_16 1_555 1_555
C43_16 C41_16 1_555 1_555
C44_16 C11_16 1_555 1_555
H19_16 C44_16 1_555 1_555
H20_16 C43_16 1_555 1_555
C35_16 C41_16 1_555 1_555
C38_16 C40_16 1_555 1_555
C42_16 C43_16 1_555 1_555
C42_16 C44_16 1_555 1_555
O8_16 C4_16 1_555 1_555
C3_16 O22_14 1_555 1_555
C4_16 O30_14 1_555 1_555
C5_16 C3_16 1_555 1_555
C6_16 C5_16 1_555 1_555
H1_16 C6_16 1_555 1_555
C10_16 C5_16 1_555 1_555
H4_16 C10_16 1_555 1_555
C13_16 C4_16 1_555 1_555
C14_16 C13_16 1_555 1_555
H6_16 C14_16 1_555 1_555
C15_16 C14_16 1_555 1_555
H7_16 C15_16 1_555 1_555
C16_16 C15_16 1_555 1_555
C17_16 C16_16 1_555 1_555
C18_16 C13_16 1_555 1_555
H9_16 C18_16 1_555 1_555
C19_16 C16_16 1_555 1_555
O26_14 C3_16 1_555 1_555
C17_16 C18_16 1_555 1_555
O8_16 H31_16 1_555 1_555
O29_7 C27_16 1_555 1_555
O31_16 C27_16 1_555 1_555
C27_16 C45_16 1_555 1_555
C45_16 C47_16 1_555 1_555
C47_16 H21_16 1_555 1_555
C49_16 C47_16 1_555 1_555
H23_16 C49_16 1_555 1_555
C51_16 C49_16 1_555 1_555
C53_16 C51_16 1_555 1_555
C55_16 C45_16 1_555 1_555
H27_16 C55_16 1_555 1_555
C51_16 C57_16 1_555 1_555
C53_16 C55_16 1_555 1_555
O31_16 H33_16 1_555 1_555

#END
