
###############################################################################
#
# This file contains modified crystal structure data generated from the
# MOF subset of the Cambridge Structural Database (CSD) v543 
# hosted by the Cambridge Crystallographic Data Centre (CCDC).
#
# This work is licensed under the Creative Commons
# Attribution-NonCommercial-ShareAlike 4.0 International License.
# To view a copy of this license, visit
# http://creativecommons.org/licenses/by-nc-sa/4.0/
# or send a letter to
# Creative Commons, PO Box 1866, Mountain View, CA 94042, USA.
#
# CIF created using the CSD Python API on 29 September 2022
# The structure has been converted into the P1 space group
# The structure has a 3D framework
# The original CSD entry HASTAY is in the monoclinic crystal system
# The framework has been calculated to contain at least 10.0% void space
# The void calculation uses a probe of radius 1.32A, grid spacing 0.4
# H atom positions have been added when not included in the experimental data
# Generated hydrogen atom positions removed from atoms on special positions
#
###############################################################################

data_HASTAY
_chemical_formula_moiety         '(C224 H140 N52 O85 Ru6 Zn20)n'
_symmetry_cell_setting           triclinic
_symmetry_space_group_name_H-M   'P 1'
_symmetry_Int_Tables_number      1
_space_group_name_Hall           'P 1'
loop_
_symmetry_equiv_pos_site_id
_symmetry_equiv_pos_as_xyz
1 x,y,z
_cell_length_a                   21.1293(11)
_cell_length_b                   16.4835(10)
_cell_length_c                   24.9690(15)
_cell_angle_alpha                90
_cell_angle_beta                 92.760(3)
_cell_angle_gamma                90
_cell_volume                     8686.24
loop_
_atom_site_label
_atom_site_type_symbol
_atom_site_fract_x
_atom_site_fract_y
_atom_site_fract_z
O23 O 0.1496(9) 0.6008(15) 0.1940(8)
O24 O 0.0953(8) 0.5439(8) 0.2509(7)
C57 C 0.0962(8) 0.5896(9) 0.2158(7)
O26 O 0.1336(5) 0.3618(6) 0.2121(3)
C79 C 0.0425(4) 0.6399(5) 0.1963(3)
C80 C 0.0418(3) 0.6558(5) 0.1416(3)
H36 H 0.0735 0.6340 0.1207
Zn10 Zn 0.16284(8) 0.45850(11) 0.25448(7)
O36 O 0.1345(4) 0.4133(5) 0.3236(4)
O45 O 0.2500 0.4836(8) 0.2500
N16 N 0.4080(4) 0.1123(6) 0.0133(4)
O29 O 0.7919(5) 0.4285(7) 0.0731(6)
C60 C 0.7447(9) 0.4020(11) 0.0481(9)
Ru3 Ru 0.52131(4) 0.22418(6) 0.04851(4)
Zn6 Zn 0.33930(8) 0.01280(11) 0.30741(6)
Zn11 Zn 0.33716(8) 0.45850(11) 0.24552(7)
C81 C 0.5629(3) 0.2259(4) 0.1627(3)
C82 C 0.5649(3) 0.2070(5) 0.2170(2)
H37 H 0.5966 0.2293 0.2402
C83 C 0.5198(4) 0.1551(5) 0.2370(2)
H38 H 0.5212 0.1423 0.2737
C84 C 0.4729(3) 0.1220(4) 0.2027(3)
C85 C 0.4710(3) 0.1409(4) 0.1484(2)
H39 H 0.4392 0.1186 0.1252
N25 N 0.5160(3) 0.1929(4) 0.1284(2)
C86 C 0.6090(3) 0.2755(5) 0.1385(3)
C87 C 0.6615(4) 0.3106(6) 0.1651(2)
H40 H 0.6678 0.3045 0.2024
C88 C 0.7046(3) 0.3548(5) 0.1365(4)
H41 H 0.7400 0.3786 0.1545
C89 C 0.6952(3) 0.3640(5) 0.0814(4)
C90 C 0.6428(4) 0.3289(5) 0.0548(2)
H42 H 0.6364 0.3350 0.0175
N26 N 0.5997(3) 0.2847(4) 0.0834(3)
Zn13 Zn 0.34914(7) 0.01984(10) 0.00407(7)
C91 C 0.4646(3) 0.3749(4) 0.0024(2)
C93 C 0.3926(4) 0.4705(4) 0.0396(3)
H44 H 0.3673 0.5173 0.0359
C94 C 0.3951(4) 0.4276(4) 0.0876(3)
C95 C 0.4324(3) 0.3583(4) 0.0930(2)
H45 H 0.4342 0.3293 0.1254
N27 N 0.4672(3) 0.3320(3) 0.0504(3)
Zn15 Zn 0.84313(9) 0.46656(12) 0.01023(8)
O31 O 0.2847(4) 0.1079(6) 0.3118(3)
C101 C 0.5754(5) 0.1312(7) 0.0367(5)
O32 O 0.3987(4) 0.0205(6) 0.1857(4)
O34 O 0.4115(4) 0.0698(6) 0.2682(3)
N29 N 0.6066(5) 0.0743(6) 0.0269(4)
O35 O 0.3655(4) 0.4133(5) 0.1764(4)
O39 O 0.3198(5) 0.5092(6) 0.1284(4)
N31 N 0.8927(6) 0.5578(7) 0.0404(5)
C105 C 0.4501(5) 0.1574(8) 0.0235(5)
N32 N 0.2339(5) 0.2121(7) 0.3489(4)
C109 C 0.4240(6) 0.0649(8) 0.2220(5)
C110 C 0.3579(6) 0.4544(8) 0.1344(5)
C111 C 0.1929(8) 0.2281(10) 0.3008(6)
C112 C 0.2772(6) 0.1529(9) 0.3507(6)
C113 C 0.2251(11) 0.2639(10) 0.3955(7)
H60 H 0.306591 0.144034 0.387264
H61 H 0.164745 0.174346 0.290902
H62 H 0.161523 0.27876 0.308485
H63 H 0.222069 0.243044 0.267391
H64 H 0.176748 0.257654 0.40819
H65 H 0.258158 0.245765 0.428122
H66 H 0.23384 0.326857 0.384891
O3 O 0.3664(5) 0.3618(6) 0.2879(3)
C2 C 0.3662(8) 0.3691(10) 0.3378(6)
C5 C 0.4763(3) 0.1991(4) 0.4318(3)
C6 C 0.4657(4) 0.1844(4) 0.3773(3)
H1 H 0.4833 0.1383 0.3616
C7 C 0.4291(4) 0.2380(5) 0.3459(2)
H2 H 0.4219 0.2281 0.3091
C8 C 0.4030(4) 0.3062(5) 0.3691(3)
C9 C 0.4136(4) 0.3208(4) 0.4236(3)
H3 H 0.3960 0.3669 0.4393
N3 N 0.4503(3) 0.2673(5) 0.4550(2)
C10 C 0.5142(3) 0.1509(4) 0.4673(2)
C11 C 0.5423(4) 0.0788(5) 0.4519(2)
H4 H 0.5390 0.0622 0.4159
C12 C 0.5754(3) 0.0314(4) 0.4898(3)
C13 C 0.5803(3) 0.0560(4) 0.5431(3)
C14 C 0.5522(3) 0.1281(4) 0.5585(2)
H6 H 0.5556 0.1447 0.5945
N4 N 0.5192(3) 0.1755(3) 0.5205(3)
Ru2 Ru 0.47439(4) 0.28684(6) 0.53591(4)
C46 C 0.6111(6) 0.0046(9) 0.5852(6)
O15 O 0.6122(4) 0.0344(6) 0.6324(3)
O16 O 0.6873(4) 0.0720(5) 0.7423(3)
O22 O 0.3362(8) 0.4198(10) 0.3605(5)
N14 N 0.5951(5) 0.3829(7) 0.5060(5)
N15 N 0.9049(5) 0.3829(7) 0.9940(5)
O28 O 0.2768(4) 0.0454(6) 0.9555(4)
O30 O 0.6152(7) 0.1531(6) 0.8490(5)
H29 H 0.4056 0.0174 0.5205
N20 N 0.3994(3) 0.2205(4) 0.5664(3)
N23 N 0.4943(3) 0.2960(5) 0.6179(2)
Zn12 Zn 0.65863(8) 0.07129(11) 0.81354(7)
C92 C 0.4273(4) 0.4442(4) 0.9970(2)
H43 H 0.4256 0.4732 0.9646
Zn16 Zn 0.34313(9) 0.53344(12) 0.51023(8)
Zn17 Zn 0.65687(9) 0.46656(12) 0.48977(8)
C96 C 0.5025(3) 0.3464(4) 0.9618(3)
C97 C 0.5101(4) 0.3843(4) 0.9128(3)
H46 H 0.4918 0.4354 0.9059
C98 C 0.5449(4) 0.3466(5) 0.8740(2)
H47 H 0.5501 0.3723 0.8408
C99 C 0.5720(4) 0.2710(5) 0.8841(3)
C100 C 0.5644(4) 0.2331(3) 0.9331(3)
H48 H 0.5827 0.1820 0.9400
N28 N 0.5296(3) 0.2707(4) 0.9719(2)
O33 O 0.7366(4) 0.0428(6) 0.8595(4)
O37 O 0.3707(5) 0.0623(6) 0.4267(4)
N30 N 0.3927(6) 0.4422(7) 0.5404(5)
O43 O 0.7979(5) 0.5155(9) 0.9439(5)
O44 O 0.6727(4) 0.0223(5) 0.9248(3)
C103 C 0.4243(6) 0.3876(8) 0.5399(5)
C106 C 0.7274(5) 0.0237(10) 0.9073(5)
C107 C 0.5488(6) 0.3494(8) 0.5156(5)
O46 O 0.6163(12) 0.2577(10) 0.7993(5)
O47 O 0.7337(6) 0.4040(9) 0.9998(6)
C114 C 0.6066(8) 0.2264(8) 0.8442(5)
H59 H 0.76777 0.00804532 0.934066
N1 N 0.0951(5) 0.6171(7) 0.0060(5)
O6 O 0.3848(7) 0.8469(6) 0.1510(5)
Zn3 Zn 0.34137(8) 0.92871(11) 0.18646(7)
C36 C 0.5727(4) 0.5558(4) 0.0030(2)
H19 H 0.5744 0.5268 0.0354
C40 C 0.4975(3) 0.6536(4) 0.0382(3)
C41 C 0.4899(4) 0.6157(4) 0.0872(3)
H22 H 0.5082 0.5646 0.0941
C42 C 0.4551(4) 0.6534(5) 0.1260(2)
H23 H 0.4499 0.6277 0.1592
C43 C 0.4280(4) 0.7290(5) 0.1159(3)
C44 C 0.4356(4) 0.7669(3) 0.0669(3)
H24 H 0.4173 0.8180 0.0600
N10 N 0.4704(3) 0.7293(4) 0.0281(2)
O9 O 0.2634(4) 0.9572(6) 0.1405(4)
O17 O 0.2021(5) 0.4845(9) 0.0561(5)
O18 O 0.3273(4) 0.9777(5) 0.0752(3)
C49 C 0.2726(5) 0.9763(10) 0.0927(5)
C50 C 0.0488(6) 0.6506(8) 0.0156(5)
O20 O 0.3837(12) 0.7423(10) 0.2007(5)
O21 O 0.2663(6) 0.5960(9) 0.0002(6)
C56 C 0.3934(8) 0.7736(8) 0.1558(5)
O27 O 0.7232(4) 0.9546(6) 0.0445(4)
C59 C 0.7549(7) 0.8965(9) 0.0242(6)
Ru8 Ru 0.97439(4) 0.71316(6) 0.03591(4)
C71 C 0.8995(3) 0.7830(5) 0.1220(3)
C72 C 0.8530(4) 0.8268(6) 0.1468(2)
H31 H 0.8531 0.8291 0.1845
C73 C 0.8063(4) 0.8671(6) 0.1161(3)
H32 H 0.7748 0.8967 0.1329
C74 C 0.8062(3) 0.8637(5) 0.0604(3)
C75 C 0.8527(3) 0.8199(5) 0.0356(2)
N19 N 0.8994(3) 0.7795(4) 0.0664(3)
C76 C 0.9475(3) 0.7363(5) 0.1488(3)
C77 C 0.9483(4) 0.7204(7) 0.2035(3)
H34 H 0.9166 0.7422 0.2245
C78 C 0.9958(5) 0.6722(7) 0.2273(2)
H35 H 0.9962 0.6615 0.2642
N22 N 0.9943(3) 0.7040(5) 0.1179(2)
O41 O 0.3878(4) 0.9656(6) 0.3676(3)
O42 O 0.3127(4) 0.9280(5) 0.2577(3)
H49 H 0.23223 0.991955 0.0659344
N2 N 0.5920(4) 0.8877(6) 0.9867(4)
O1 O 0.6496(9) 0.3992(15) 0.6940(8)
O2 O 0.5953(8) 0.4561(8) 0.7509(7)
C1 C 0.5962(8) 0.4104(9) 0.7158(7)
O4 O 0.2232(4) 0.0454(6) 0.5445(4)
C3 C 0.2549(7) 0.1035(9) 0.5242(6)
O5 O 0.2081(5) 0.5715(7) 0.9269(6)
C4 C 0.2553(9) 0.5980(11) 0.9519(9)
Ru1 Ru 0.47869(4) 0.77582(6) 0.95149(4)
H5 H 0.5944 0.9826 0.4795
C15 C 0.3995(3) 0.2170(5) 0.6220(3)
C16 C 0.3530(4) 0.1732(6) 0.6468(2)
H7 H 0.3531 0.1709 0.6845
C17 C 0.3063(4) 0.1329(6) 0.6161(3)
H8 H 0.2748 0.1033 0.6329
C18 C 0.3062(3) 0.1363(5) 0.5604(3)
C19 C 0.3527(3) 0.1801(5) 0.5356(2)
H9 H 0.3526 0.1824 0.4980
Zn1 Zn 0.66070(8) 0.98720(11) 0.69259(6)
C20 C 0.4475(3) 0.2637(5) 0.6488(3)
C21 C 0.4483(4) 0.2796(7) 0.7035(3)
H10 H 0.4166 0.2578 0.7245
C22 C 0.4958(5) 0.3278(7) 0.7273(2)
H11 H 0.4962 0.3385 0.7642
C23 C 0.5425(4) 0.3601(5) 0.6963(3)
C24 C 0.5418(3) 0.3442(5) 0.6416(3)
H12 H 0.5735 0.3660 0.6207
Zn2 Zn 0.66284(8) 0.54150(11) 0.75448(7)
C25 C 0.4371(3) 0.7741(4) 0.8373(3)
C26 C 0.4351(3) 0.7930(5) 0.7830(2)
H13 H 0.4034 0.7707 0.7598
C27 C 0.4802(4) 0.8449(5) 0.7630(2)
H14 H 0.4788 0.8577 0.7263
C28 C 0.5271(3) 0.8780(4) 0.7973(3)
C29 C 0.5290(3) 0.8591(4) 0.8516(2)
H15 H 0.5608 0.8814 0.8748
N7 N 0.4840(3) 0.8071(4) 0.8716(2)
C30 C 0.3910(3) 0.7245(5) 0.8615(3)
C31 C 0.3385(4) 0.6894(6) 0.8349(2)
H16 H 0.3322 0.6955 0.7976
C32 C 0.2954(3) 0.6452(5) 0.8635(4)
H17 H 0.2600 0.6214 0.8455
C33 C 0.3048(3) 0.6360(5) 0.9186(4)
C34 C 0.3572(4) 0.6711(5) 0.9452(2)
H18 H 0.3636 0.6650 0.9825
N8 N 0.4003(3) 0.7153(4) 0.9166(3)
Zn4 Zn 0.65086(7) 0.98016(10) 0.99593(7)
C35 C 0.5354(3) 0.6251(4) 0.9976(2)
C37 C 0.6074(4) 0.5295(4) 0.9604(3)
H20 H 0.6327 0.4827 0.9641
C38 C 0.6049(4) 0.5724(4) 0.9124(3)
C39 C 0.5676(3) 0.6417(4) 0.9070(2)
H21 H 0.5658 0.6707 0.8746
N9 N 0.5328(3) 0.6680(3) 0.9496(3)
Zn5 Zn 0.15687(9) 0.53344(12) 0.98977(8)
O7 O 0.7153(4) 0.8921(6) 0.6882(3)
C45 C 0.4246(5) 0.8688(7) 0.9633(5)
O8 O 0.6013(4) 0.9795(6) 0.8143(4)
O10 O 0.5885(4) 0.9302(6) 0.7318(3)
N11 N 0.3934(5) 0.9257(6) 0.9731(4)
O11 O 0.6345(4) 0.5867(5) 0.8236(4)
O12 O 0.6293(5) 0.9377(6) 0.5733(4)
O13 O 0.2443(5) 0.1304(7) 0.4794(4)
O14 O 0.6802(5) 0.4908(6) 0.8716(4)
N12 N 0.1073(6) 0.4422(7) 0.9596(5)
C47 C 0.0757(6) 0.3876(8) 0.9601(5)
C48 C 0.5499(5) 0.8426(8) 0.9765(5)
N13 N 0.7661(5) 0.7879(7) 0.6511(4)
O19 O 0.7500 0.5164(8) 0.7500
C51 C 0.5760(6) 0.9351(8) 0.7780(5)
C52 C 0.6421(6) 0.5456(8) 0.8656(5)
C53 C 0.8071(8) 0.7719(10) 0.6992(6)
C54 C 0.7228(6) 0.8471(9) 0.6493(6)
C55 C 0.7749(11) 0.7361(10) 0.6045(7)
O25 O 0.6336(5) 0.6382(6) 0.7121(3)
C58 C 0.6338(8) 0.6309(10) 0.6622(6)
C61 C 0.5237(3) 0.8009(4) 0.5682(3)
C62 C 0.5343(4) 0.8156(4) 0.6227(3)
H25 H 0.5167 0.8617 0.6384
C63 C 0.5709(4) 0.7620(5) 0.6541(2)
H26 H 0.5781 0.7719 0.6909
C64 C 0.5970(4) 0.6938(5) 0.6309(3)
C65 C 0.5864(4) 0.6792(4) 0.5764(3)
H27 H 0.6040 0.6331 0.5607
N17 N 0.5497(3) 0.7327(5) 0.5450(2)
C66 C 0.4858(3) 0.8491(4) 0.5327(2)
C67 C 0.4577(4) 0.9212(5) 0.5481(2)
H28 H 0.4610 0.9378 0.5841
C68 C 0.4246(3) 0.9686(4) 0.5102(3)
C69 C 0.4197(3) 0.9440(4) 0.4569(3)
C70 C 0.4478(3) 0.8719(4) 0.4415(2)
H30 H 0.4444 0.8553 0.4055
N18 N 0.4808(3) 0.8245(3) 0.4795(3)
Ru4 Ru 0.52561(4) 0.71316(6) 0.46409(4)
Ru6 Ru 0.02561(4) 0.28684(6) 0.96409(4)
H33 H 0.8526 0.8176 0.9980
N21 N 0.6006(3) 0.7795(4) 0.4336(3)
N24 N 0.5057(3) 0.7040(5) 0.3821(2)
Zn9 Zn 0.83716(8) 0.54150(11) 0.74552(7)
Zn14 Zn 0.15086(7) 0.01984(10) 0.49593(7)
C102 C 0.3889(6) 0.9954(9) 0.4148(6)
O38 O 0.7443(5) 0.8696(7) 0.9794(4)
C104 C 0.5757(6) 0.6124(8) 0.4601(5)
C108 C 0.4512(6) 0.6506(8) 0.4844(5)
O48 O 0.6638(8) 0.5802(10) 0.6395(5)
H50 H 0.777931 0.756956 0.732609
H51 H 0.838477 0.72124 0.691515
H52 H 0.835255 0.825654 0.709098
H53 H 0.693409 0.855966 0.612736
H56 H 0.76616 0.673143 0.615109
H57 H 0.741842 0.754235 0.571878
H58 H 0.823252 0.742346 0.59181
C2_2 C 0.1338(8) 0.3691(10) 0.1622(6)
C5_2 C 0.0237(3) 0.1991(4) 0.0682(3)
C6_2 C 0.0343(4) 0.1844(4) 0.1227(3)
H1_2 H 0.0167 0.1383 0.1384
C7_2 C 0.0709(4) 0.2380(5) 0.1541(2)
H2_2 H 0.0781 0.2281 0.1909
C8_2 C 0.0970(4) 0.3062(5) 0.1309(3)
C9_2 C 0.0864(4) 0.3208(4) 0.0764(3)
H3_2 H 0.1040 0.3669 0.0607
N3_2 N 0.0497(3) 0.2673(5) 0.0450(2)
O22_2 O 0.1638(8) 0.4198(10) 0.1395(5)
Zn7 Zn 0.16070(8) 0.01280(11) 0.19259(6)
O37_2 O 0.1293(5) 0.0623(6) 0.0733(4)
N16_2 N 0.0920(4) 0.1123(6) 0.4867(4)
H29_2 H 0.0944 0.0174 0.9795
N20_2 N 0.1006(3) 0.2205(4) 0.9336(3)
N23_2 N 0.0057(3) 0.2960(5) 0.8821(2)
C84_2 C 0.0271(3) 0.1220(4) 0.2973(3)
C85_2 C 0.0290(3) 0.1409(4) 0.3516(2)
H39_2 H 0.0608 0.1186 0.3748
C91_2 C 0.0354(3) 0.3749(4) 0.4976(2)
C92_2 C 0.0727(4) 0.4442(4) 0.5030(2)
H43_2 H 0.0744 0.4732 0.5354
C93_2 C 0.1074(4) 0.4705(4) 0.4604(3)
H44_2 H 0.1327 0.5173 0.4641
C94_2 C 0.1049(4) 0.4276(4) 0.4124(3)
C95_2 C 0.0676(3) 0.3583(4) 0.4070(2)
H45_2 H 0.0658 0.3293 0.3746
N27_2 N 0.0328(3) 0.3320(3) 0.4496(3)
H46_2 H 0.0082 0.4354 0.5941
O31_2 O 0.2153(4) 0.1079(6) 0.1882(3)
O32_2 O 0.1013(4) 0.0205(6) 0.3143(4)
O34_2 O 0.0885(4) 0.0698(6) 0.2318(3)
O39_2 O 0.1802(5) 0.5092(6) 0.3716(4)
C105_2 C 0.0499(5) 0.1574(8) 0.4765(5)
N32_2 N 0.2661(5) 0.2121(7) 0.1511(4)
C109_2 C 0.0760(6) 0.0649(8) 0.2780(5)
C110_2 C 0.1421(6) 0.4544(8) 0.3656(5)
C111_2 C 0.3071(8) 0.2281(10) 0.1992(6)
C112_2 C 0.2228(6) 0.1529(9) 0.1493(6)
C113_2 C 0.2749(11) 0.2639(10) 0.1045(7)
H60_2 H 0.193409 0.144034 0.112736
H61_2 H 0.335255 0.174346 0.209098
H62_2 H 0.338477 0.27876 0.191515
H63_2 H 0.277931 0.243044 0.232609
H64_2 H 0.323252 0.257654 0.0918097
H65_2 H 0.241842 0.245765 0.0718779
H66_2 H 0.26616 0.326857 0.115109
H9_2 H 0.1474 0.1824 0.0020
O13_2 O 0.2557(5) 0.1304(7) 0.0206(4)
C69_2 C 0.0803(3) 0.9440(4) 0.0431(3)
C70_2 C 0.0522(3) 0.8719(4) 0.0585(2)
H30_2 H 0.0556 0.8553 0.0945
N18_2 N 0.0192(3) 0.8245(3) 0.0205(3)
C102_2 C 0.1111(6) 0.9954(9) 0.0852(6)
O40 O 0.1122(4) 0.9656(6) 0.1324(3)
N1_2 N 0.4049(5) 0.6171(7) 0.4940(5)
C3_2 C 0.2451(7) 0.1035(9) 0.9758(6)
O5_2 O 0.2919(5) 0.5715(7) 0.5731(6)
C4_2 C 0.2447(9) 0.5980(11) 0.5481(9)
O6_2 O 0.1152(7) 0.8469(6) 0.3490(5)
Ru1_2 Ru 0.02131(4) 0.77582(6) 0.54851(4)
C15_2 C 0.1005(3) 0.2170(5) 0.8780(3)
C16_2 C 0.1470(4) 0.1732(6) 0.8532(2)
H7_2 H 0.1469 0.1709 0.8155
C17_2 C 0.1937(4) 0.1329(6) 0.8839(3)
H8_2 H 0.2252 0.1033 0.8671
C18_2 C 0.1938(3) 0.1363(5) 0.9396(3)
C19_2 C 0.1473(3) 0.1801(5) 0.9644(2)
C20_2 C 0.0525(3) 0.2637(5) 0.8512(3)
C21_2 C 0.0517(4) 0.2796(7) 0.7965(3)
H10_2 H 0.0834 0.2578 0.7755
C22_2 C 0.0042(5) 0.3278(7) 0.7727(2)
H11_2 H 0.0038 0.3385 0.7358
C25_2 C 0.0629(3) 0.7741(4) 0.6627(3)
C26_2 C 0.0649(3) 0.7930(5) 0.7170(2)
H13_2 H 0.0966 0.7707 0.7402
C27_2 C 0.0198(4) 0.8449(5) 0.7370(2)
H14_2 H 0.0212 0.8577 0.7737
N7_2 N 0.0160(3) 0.8071(4) 0.6284(2)
Zn3_2 Zn 0.15863(8) 0.92871(11) 0.31354(7)
C30_2 C 0.1090(3) 0.7245(5) 0.6385(3)
C31_2 C 0.1615(4) 0.6894(6) 0.6651(2)
H16_2 H 0.1678 0.6955 0.7024
C32_2 C 0.2046(3) 0.6452(5) 0.6365(4)
H17_2 H 0.2400 0.6214 0.6545
C33_2 C 0.1952(3) 0.6360(5) 0.5814(4)
C34_2 C 0.1428(4) 0.6711(5) 0.5548(2)
H18_2 H 0.1364 0.6650 0.5175
N8_2 N 0.0997(3) 0.7153(4) 0.5834(3)
C40_2 C 0.0025(3) 0.6536(4) 0.4618(3)
C41_2 C 0.0101(4) 0.6157(4) 0.4128(3)
C42_2 C 0.0449(4) 0.6534(5) 0.3740(2)
H23_2 H 0.0501 0.6277 0.3408
C43_2 C 0.0720(4) 0.7290(5) 0.3841(3)
C44_2 C 0.0644(4) 0.7669(3) 0.4331(3)
H24_2 H 0.0827 0.8180 0.4400
N10_2 N 0.0296(3) 0.7293(4) 0.4719(2)
C45_2 C 0.0754(5) 0.8688(7) 0.5367(5)
O9_2 O 0.2366(4) 0.9572(6) 0.3595(4)
N11_2 N 0.1066(5) 0.9257(6) 0.5269(4)
O17_2 O 0.2979(5) 0.4845(9) 0.4439(5)
O18_2 O 0.1727(4) 0.9777(5) 0.4248(3)
C49_2 C 0.2274(5) 0.9763(10) 0.4073(5)
O20_2 O 0.1163(12) 0.7423(10) 0.2993(5)
O21_2 O 0.2337(6) 0.5960(9) 0.4998(6)
C56_2 C 0.1066(8) 0.7736(8) 0.3442(5)
C66_2 C 0.0142(3) 0.8491(4) 0.9673(2)
C67_2 C 0.0423(4) 0.9212(5) 0.9519(2)
H28_2 H 0.0390 0.9378 0.9159
C68_2 C 0.0754(3) 0.9686(4) 0.9898(3)
O42_2 O 0.1873(4) 0.9280(5) 0.2423(3)
H49_2 H 0.26777 0.991955 0.434066
C10_2 C 0.9858(3) 0.1509(4) 0.0327(2)
C11_2 C 0.9577(4) 0.0788(5) 0.0481(2)
H4_2 H 0.9610 0.0622 0.0841
C12_2 C 0.9246(3) 0.0314(4) 0.0102(3)
C13_2 C 0.9197(3) 0.0560(4) 0.9569(3)
C14_2 C 0.9478(3) 0.1281(4) 0.9415(2)
H6_2 H 0.9444 0.1447 0.9055
N4_2 N 0.9808(3) 0.1755(3) 0.9795(3)
C46_2 C 0.8889(6) 0.0046(9) 0.9148(6)
O15_2 O 0.8878(4) 0.0344(6) 0.8676(3)
O16_2 O 0.8127(4) 0.0720(5) 0.7577(3)
O29_2 O 0.7081(5) 0.4285(7) 0.4269(6)
C60_2 C 0.7553(9) 0.4020(11) 0.4519(9)
O30_2 O 0.8848(7) 0.1531(6) 0.6510(5)
Ru3_2 Ru 0.97869(4) 0.22418(6) 0.45149(4)
C81_2 C 0.9371(3) 0.2259(4) 0.3373(3)
C82_2 C 0.9351(3) 0.2070(5) 0.2830(2)
H37_2 H 0.9034 0.2293 0.2598
C83_2 C 0.9802(4) 0.1551(5) 0.2630(2)
H38_2 H 0.9788 0.1423 0.2263
N25_2 N 0.9840(3) 0.1929(4) 0.3716(2)
Zn12_2 Zn 0.84137(8) 0.07129(11) 0.68646(7)
C86_2 C 0.8910(3) 0.2755(5) 0.3615(3)
C87_2 C 0.8385(4) 0.3106(6) 0.3349(2)
H40_2 H 0.8322 0.3045 0.2976
C88_2 C 0.7954(3) 0.3548(5) 0.3635(4)
H41_2 H 0.7600 0.3786 0.3455
C89_2 C 0.8048(3) 0.3640(5) 0.4186(4)
C90_2 C 0.8572(4) 0.3289(5) 0.4452(2)
H42_2 H 0.8636 0.3350 0.4825
N26_2 N 0.9003(3) 0.2847(4) 0.4166(3)
C96_2 C 0.9975(3) 0.3464(4) 0.5382(3)
C97_2 C 0.9899(4) 0.3843(4) 0.5872(3)
C98_2 C 0.9551(4) 0.3466(5) 0.6260(2)
H47_2 H 0.9499 0.3723 0.6592
C99_2 C 0.9280(4) 0.2710(5) 0.6159(3)
C100_2 C 0.9356(4) 0.2331(3) 0.5669(3)
H48_2 H 0.9173 0.1820 0.5600
N28_2 N 0.9704(3) 0.2707(4) 0.5281(2)
C101_2 C 0.9246(5) 0.1312(7) 0.4633(5)
O33_2 O 0.7634(4) 0.0428(6) 0.6405(4)
N29_2 N 0.8934(5) 0.0743(6) 0.4731(4)
N31_2 N 0.6073(6) 0.5578(7) 0.4596(5)
O43_2 O 0.7021(5) 0.5155(9) 0.5561(5)
O44_2 O 0.8273(4) 0.0223(5) 0.5752(3)
C106_2 C 0.7726(5) 0.0237(10) 0.5927(5)
C107_2 C 0.9512(6) 0.3494(8) 0.9844(5)
O46_2 O 0.8837(12) 0.2577(10) 0.7007(5)
O47_2 O 0.7663(6) 0.4040(9) 0.5002(6)
C114_2 C 0.8934(8) 0.2264(8) 0.6558(5)
H59_2 H 0.73223 0.00804532 0.565934
H5_2 H 0.9056 0.9826 0.0205
C104_2 C 0.9243(6) 0.6124(8) 0.0399(5)
N2_2 N 0.9080(4) 0.8877(6) 0.5133(4)
O1_2 O 0.8504(9) 0.3992(15) 0.8060(8)
O2_2 O 0.9047(8) 0.4561(8) 0.7491(7)
C1_2 C 0.9038(8) 0.4104(9) 0.7842(7)
Zn1_2 Zn 0.83930(8) 0.98720(11) 0.80741(6)
C23_2 C 0.9575(4) 0.3601(5) 0.8037(3)
C24_2 C 0.9582(3) 0.3442(5) 0.8584(3)
H12_2 H 0.9265 0.3660 0.8793
C28_2 C 0.9729(3) 0.8780(4) 0.7027(3)
C29_2 C 0.9710(3) 0.8591(4) 0.6484(2)
H15_2 H 0.9392 0.8814 0.6252
Zn4_2 Zn 0.84914(7) 0.98016(10) 0.50407(7)
C35_2 C 0.9646(3) 0.6251(4) 0.5024(2)
C36_2 C 0.9273(4) 0.5558(4) 0.4970(2)
H19_2 H 0.9256 0.5268 0.4646
C37_2 C 0.8926(4) 0.5295(4) 0.5396(3)
H20_2 H 0.8673 0.4827 0.5359
C38_2 C 0.8951(4) 0.5724(4) 0.5876(3)
C39_2 C 0.9324(3) 0.6417(4) 0.5930(2)
H21_2 H 0.9342 0.6707 0.6254
N9_2 N 0.9672(3) 0.6680(3) 0.5504(3)
H22_2 H 0.9918 0.5646 0.4059
O7_2 O 0.7847(4) 0.8921(6) 0.8118(3)
O8_2 O 0.8987(4) 0.9795(6) 0.6857(4)
O10_2 O 0.9115(4) 0.9302(6) 0.7682(3)
O11_2 O 0.8655(4) 0.5867(5) 0.6764(4)
O12_2 O 0.8707(5) 0.9377(6) 0.9267(4)
O14_2 O 0.8198(5) 0.4908(6) 0.6284(4)
C48_2 C 0.9501(5) 0.8426(8) 0.5235(5)
N13_2 N 0.7339(5) 0.7879(7) 0.8489(4)
C51_2 C 0.9240(6) 0.9351(8) 0.7220(5)
C52_2 C 0.8579(6) 0.5456(8) 0.6344(5)
C53_2 C 0.6929(8) 0.7719(10) 0.8008(6)
C54_2 C 0.7772(6) 0.8471(9) 0.8507(6)
C55_2 C 0.7251(11) 0.7361(10) 0.8955(7)
O23_2 O 0.3504(9) 0.6008(15) 0.3060(8)
O24_2 O 0.4047(8) 0.5439(8) 0.2491(7)
C57_2 C 0.4038(8) 0.5896(9) 0.2842(7)
O25_2 O 0.8664(5) 0.6382(6) 0.7879(3)
C58_2 C 0.8662(8) 0.6309(10) 0.8378(6)
O27_2 O 0.7768(4) 0.9546(6) 0.4555(4)
C59_2 C 0.7451(7) 0.8965(9) 0.4758(6)
C61_2 C 0.9763(3) 0.8009(4) 0.9318(3)
C62_2 C 0.9657(4) 0.8156(4) 0.8773(3)
H25_2 H 0.9833 0.8617 0.8616
C63_2 C 0.9291(4) 0.7620(5) 0.8459(2)
H26_2 H 0.9219 0.7719 0.8091
C64_2 C 0.9030(4) 0.6938(5) 0.8691(3)
C65_2 C 0.9136(4) 0.6792(4) 0.9236(3)
H27_2 H 0.8960 0.6331 0.9393
N17_2 N 0.9503(3) 0.7327(5) 0.9550(2)
C71_2 C 0.6005(3) 0.7830(5) 0.3780(3)
C72_2 C 0.6470(4) 0.8268(6) 0.3532(2)
H31_2 H 0.6469 0.8291 0.3155
C73_2 C 0.6937(4) 0.8671(6) 0.3839(3)
H32_2 H 0.7252 0.8967 0.3671
C74_2 C 0.6938(3) 0.8637(5) 0.4396(3)
C75_2 C 0.6473(3) 0.8199(5) 0.4644(2)
H33_2 H 0.6474 0.8176 0.5020
C76_2 C 0.5525(3) 0.7363(5) 0.3512(3)
C77_2 C 0.5517(4) 0.7204(7) 0.2965(3)
H34_2 H 0.5834 0.7422 0.2755
C78_2 C 0.5042(5) 0.6722(7) 0.2727(2)
H35_2 H 0.5038 0.6615 0.2358
C79_2 C 0.4575(4) 0.6399(5) 0.3037(3)
C80_2 C 0.4582(3) 0.6558(5) 0.3584(3)
H36_2 H 0.4265 0.6340 0.3793
O38_2 O 0.7557(5) 0.8696(7) 0.5206(4)
O48_2 O 0.8362(8) 0.5802(10) 0.8605(5)
H50_2 H 0.722069 0.756956 0.767391
H51_2 H 0.661523 0.72124 0.808485
H52_2 H 0.664745 0.825654 0.790902
H53_2 H 0.806591 0.855966 0.887264
H56_2 H 0.73384 0.673143 0.884891
H57_2 H 0.758158 0.754235 0.928122
H58_2 H 0.676748 0.742346 0.90819
loop_
_geom_bond_atom_site_label_1
_geom_bond_atom_site_label_2
_geom_bond_site_symmetry_1
_geom_bond_site_symmetry_2
O23 C57 1_555 1_555
O24 C57 1_555 1_555
C57 C79 1_555 1_555
O26 Zn10 1_555 1_555
C80 C79 1_555 1_555
H36 C80 1_555 1_555
Zn10 O24 1_555 1_555
O36 Zn10 1_555 1_555
O45 Zn10 1_555 1_555
N16 Zn13 1_555 1_555
O29 C60 1_555 1_555
C60 C89 1_555 1_555
Ru3 N25 1_555 1_555
Zn6 O31 1_555 1_555
Zn11 O35 1_555 1_555
C81 C82 1_555 1_555
C82 H37 1_555 1_555
C83 C82 1_555 1_555
H38 C83 1_555 1_555
C84 C83 1_555 1_555
C85 C84 1_555 1_555
H39 C85 1_555 1_555
N25 C81 1_555 1_555
C86 C81 1_555 1_555
C87 C86 1_555 1_555
H40 C87 1_555 1_555
C88 C87 1_555 1_555
H41 C88 1_555 1_555
C89 C88 1_555 1_555
C90 C89 1_555 1_555
H42 C90 1_555 1_555
N26 Ru3 1_555 1_555
H44 C93 1_555 1_555
C94 C93 1_555 1_555
C95 C94 1_555 1_555
H45 C95 1_555 1_555
N27 Ru3 1_555 1_555
Zn15 O29 1_555 1_555
O31 C112 1_555 1_555
C101 Ru3 1_555 1_555
O34 Zn6 1_555 1_555
O35 C110 1_555 1_555
O39 C110 1_555 1_555
N31 Zn15 1_555 1_555
C105 N16 1_555 1_555
N32 C111 1_555 1_555
C109 C84 1_555 1_555
C110 C94 1_555 1_555
C112 N32 1_555 1_555
C113 N32 1_555 1_555
Ru3 C105 1_555 1_555
C85 N25 1_555 1_555
C86 N26 1_555 1_555
C90 N26 1_555 1_555
C91 N27 1_555 1_555
C95 N27 1_555 1_555
C101 N29 1_555 1_555
O32 C109 1_555 1_555
O34 C109 1_555 1_555
C112 H60 1_555 1_555
C111 H61 1_555 1_555
C111 H62 1_555 1_555
C111 H63 1_555 1_555
C113 H64 1_555 1_555
C113 H65 1_555 1_555
C113 H66 1_555 1_555
O3 C2 1_555 1_555
C2 C8 1_555 1_555
C5 C6 1_555 1_555
C6 H1 1_555 1_555
C7 C6 1_555 1_555
H2 C7 1_555 1_555
C8 C7 1_555 1_555
C9 C8 1_555 1_555
H3 C9 1_555 1_555
N3 C5 1_555 1_555
C10 C5 1_555 1_555
C11 C10 1_555 1_555
H4 C11 1_555 1_555
C12 C11 1_555 1_555
C13 C12 1_555 1_555
C14 C13 1_555 1_555
H6 C14 1_555 1_555
N4 C10 1_555 1_555
Ru2 N3 1_555 1_555
C46 C13 1_555 1_555
O22 C2 1_555 1_555
N14 Zn17 1_555 1_555
O30 Zn12 1_555 1_555
N20 Ru2 1_555 1_555
N23 Ru2 1_555 1_555
Zn11 O3 1_555 1_555
C92 H43 1_555 1_555
Zn16 N30 1_555 1_555
C97 C96 1_555 1_555
H46 C97 1_555 1_555
C98 C97 1_555 1_555
H47 C98 1_555 1_555
C99 C98 1_555 1_555
C100 C99 1_555 1_555
H48 C100 1_555 1_555
O33 Zn12 1_555 1_555
N30 C103 1_555 1_555
C103 Ru2 1_555 1_555
C106 O33 1_555 1_555
C107 Ru2 1_555 1_555
O46 C114 1_555 1_555
C114 O30 1_555 1_555
C9 N3 1_555 1_555
C14 N4 1_555 1_555
N4 Ru2 1_555 1_555
C46 O15 1_555 1_555
O16 Zn12 1_555 1_555
N14 C107 1_555 1_555
C96 N28 1_555 1_555
C99 C114 1_555 1_555
C100 N28 1_555 1_555
O44 C106 1_555 1_555
C106 H59 1_555 1_555
O6 Zn3 1_555 1_555
Zn3 O9 1_555 1_555
C36 H19 1_555 1_555
C41 C40 1_555 1_555
H22 C41 1_555 1_555
C42 C41 1_555 1_555
H23 C42 1_555 1_555
C43 C42 1_555 1_555
C44 C43 1_555 1_555
H24 C44 1_555 1_555
O9 C49 1_555 1_555
O18 C49 1_555 1_555
C50 N1 1_555 1_555
O20 C56 1_555 1_555
C56 O6 1_555 1_555
O27 C59 1_555 1_555
C59 C74 1_555 1_555
Ru8 N19 1_555 1_555
C71 C72 1_555 1_555
C72 H31 1_555 1_555
C73 C72 1_555 1_555
H32 C73 1_555 1_555
C74 C73 1_555 1_555
C75 C74 1_555 1_555
N19 C71 1_555 1_555
C76 C71 1_555 1_555
C77 C76 1_555 1_555
H34 C77 1_555 1_555
C78 C77 1_555 1_555
H35 C78 1_555 1_555
N22 Ru8 1_555 1_555
O42 Zn3 1_555 1_555
C40 N10 1_555 1_555
C43 C56 1_555 1_555
C44 N10 1_555 1_555
C75 N19 1_555 1_555
C76 N22 1_555 1_555
C49 H49 1_555 1_555
N2 Zn4 1_555 1_555
O1 C1 1_555 1_555
O2 C1 1_555 1_555
C1 C23 1_555 1_555
O4 C3 1_555 1_555
C3 C18 1_555 1_555
O5 C4 1_555 1_555
C4 C33 1_555 1_555
Ru1 N7 1_555 1_555
C15 C16 1_555 1_555
C16 H7 1_555 1_555
C17 C16 1_555 1_555
H8 C17 1_555 1_555
C18 C17 1_555 1_555
C19 C18 1_555 1_555
H9 C19 1_555 1_555
N20 C15 1_555 1_555
Zn1 O7 1_555 1_555
C20 C15 1_555 1_555
C21 C20 1_555 1_555
H10 C21 1_555 1_555
C22 C21 1_555 1_555
H11 C22 1_555 1_555
C23 C22 1_555 1_555
C24 C23 1_555 1_555
H12 C24 1_555 1_555
N23 C20 1_555 1_555
Zn2 O2 1_555 1_555
C25 C26 1_555 1_555
C26 H13 1_555 1_555
C27 C26 1_555 1_555
H14 C27 1_555 1_555
C28 C27 1_555 1_555
C29 C28 1_555 1_555
H15 C29 1_555 1_555
N7 C25 1_555 1_555
C30 C25 1_555 1_555
C31 C30 1_555 1_555
H16 C31 1_555 1_555
C32 C31 1_555 1_555
H17 C32 1_555 1_555
C33 C32 1_555 1_555
C34 C33 1_555 1_555
H18 C34 1_555 1_555
N8 Ru1 1_555 1_555
H20 C37 1_555 1_555
C38 C37 1_555 1_555
C39 C38 1_555 1_555
H21 C39 1_555 1_555
N9 Ru1 1_555 1_555
Zn5 O5 1_555 1_555
O7 C54 1_555 1_555
C45 Ru1 1_555 1_555
O8 C51 1_555 1_555
O10 Zn1 1_555 1_555
N11 C45 1_555 1_555
O11 Zn2 1_555 1_555
O13 C3 1_555 1_555
O14 C52 1_555 1_555
N12 Zn5 1_555 1_555
C47 N12 1_555 1_555
C48 N2 1_555 1_555
N13 C53 1_555 1_555
O19 Zn2 1_555 1_555
C51 C28 1_555 1_555
C52 C38 1_555 1_555
C54 N13 1_555 1_555
C55 N13 1_555 1_555
O25 Zn2 1_555 1_555
C58 O25 1_555 1_555
C61 C62 1_555 1_555
C62 H25 1_555 1_555
C63 C62 1_555 1_555
H26 C63 1_555 1_555
C64 C58 1_555 1_555
C65 C64 1_555 1_555
H27 C65 1_555 1_555
N17 C61 1_555 1_555
C66 C61 1_555 1_555
C67 C66 1_555 1_555
H28 C67 1_555 1_555
C68 C67 1_555 1_555
C69 C68 1_555 1_555
C70 C69 1_555 1_555
H30 C70 1_555 1_555
N18 C66 1_555 1_555
Ru4 N17 1_555 1_555
Ru6 C47 1_555 1_555
N21 Ru4 1_555 1_555
N24 Ru4 1_555 1_555
Zn9 O19 1_555 1_555
Zn14 O4 1_555 1_555
C102 C69 1_555 1_555
O41 C102 1_555 1_555
C104 Ru4 1_555 1_555
C108 Ru4 1_555 1_555
O48 C58 1_555 1_555
Ru1 C48 1_555 1_555
C19 N20 1_555 1_555
C24 N23 1_555 1_555
C29 N7 1_555 1_555
C30 N8 1_555 1_555
C34 N8 1_555 1_555
C35 N9 1_555 1_555
C39 N9 1_555 1_555
O10 C51 1_555 1_555
O11 C52 1_555 1_555
C63 C64 1_555 1_555
C65 N17 1_555 1_555
C70 N18 1_555 1_555
N18 Ru4 1_555 1_555
C53 H50 1_555 1_555
C53 H51 1_555 1_555
C53 H52 1_555 1_555
C54 H53 1_555 1_555
C55 H56 1_555 1_555
C55 H57 1_555 1_555
C55 H58 1_555 1_555
O26 C2_2 1_555 1_555
C2_2 C8_2 1_555 1_555
C5_2 C6_2 1_555 1_555
C6_2 H1_2 1_555 1_555
C7_2 C6_2 1_555 1_555
H2_2 C7_2 1_555 1_555
C8_2 C7_2 1_555 1_555
C9_2 C8_2 1_555 1_555
H3_2 C9_2 1_555 1_555
N3_2 C5_2 1_555 1_555
O22_2 C2_2 1_555 1_555
C9_2 N3_2 1_555 1_555
N16_2 Zn14 1_555 1_555
N20_2 Ru6 1_555 1_555
Zn7 O31_2 1_555 1_555
N23_2 Ru6 1_555 1_555
C85_2 C84_2 1_555 1_555
H39_2 C85_2 1_555 1_555
C91_2 C92_2 1_555 1_555
C92_2 H43_2 1_555 1_555
C93_2 C92_2 1_555 1_555
H44_2 C93_2 1_555 1_555
C94_2 C93_2 1_555 1_555
C95_2 C94_2 1_555 1_555
H45_2 C95_2 1_555 1_555
O31_2 C112_2 1_555 1_555
O34_2 Zn7 1_555 1_555
O36 C110_2 1_555 1_555
O39_2 C110_2 1_555 1_555
C105_2 N16_2 1_555 1_555
N32_2 C111_2 1_555 1_555
C109_2 C84_2 1_555 1_555
C110_2 C94_2 1_555 1_555
C112_2 N32_2 1_555 1_555
C113_2 N32_2 1_555 1_555
C91_2 N27_2 1_555 1_555
C95_2 N27_2 1_555 1_555
O32_2 C109_2 1_555 1_555
O34_2 C109_2 1_555 1_555
C112_2 H60_2 1_555 1_555
C111_2 H61_2 1_555 1_555
C111_2 H62_2 1_555 1_555
C111_2 H63_2 1_555 1_555
C113_2 H64_2 1_555 1_555
C113_2 H65_2 1_555 1_555
C113_2 H66_2 1_555 1_555
C70_2 C69_2 1_555 1_555
H30_2 C70_2 1_555 1_555
C102_2 C69_2 1_555 1_555
O40 C102_2 1_555 1_555
C70_2 N18_2 1_555 1_555
N1_2 Zn16 1_555 1_555
O28 C3_2 1_555 1_555
C3_2 C18_2 1_555 1_555
O5_2 C4_2 1_555 1_555
C4_2 C33_2 1_555 1_555
O6_2 Zn3_2 1_555 1_555
Ru1_2 N7_2 1_555 1_555
C15_2 C16_2 1_555 1_555
C16_2 H7_2 1_555 1_555
C17_2 C16_2 1_555 1_555
H8_2 C17_2 1_555 1_555
C18_2 C17_2 1_555 1_555
C19_2 C18_2 1_555 1_555
N20_2 C15_2 1_555 1_555
C20_2 C15_2 1_555 1_555
C21_2 C20_2 1_555 1_555
H10_2 C21_2 1_555 1_555
C22_2 C21_2 1_555 1_555
H11_2 C22_2 1_555 1_555
N23_2 C20_2 1_555 1_555
C25_2 C26_2 1_555 1_555
C26_2 H13_2 1_555 1_555
C27_2 C26_2 1_555 1_555
H14_2 C27_2 1_555 1_555
N7_2 C25_2 1_555 1_555
Zn3_2 O9_2 1_555 1_555
C30_2 C25_2 1_555 1_555
C31_2 C30_2 1_555 1_555
H16_2 C31_2 1_555 1_555
C32_2 C31_2 1_555 1_555
H17_2 C32_2 1_555 1_555
C33_2 C32_2 1_555 1_555
C34_2 C33_2 1_555 1_555
H18_2 C34_2 1_555 1_555
N8_2 Ru1_2 1_555 1_555
Zn16 O5_2 1_555 1_555
C41_2 C40_2 1_555 1_555
C42_2 C41_2 1_555 1_555
H23_2 C42_2 1_555 1_555
C43_2 C42_2 1_555 1_555
C44_2 C43_2 1_555 1_555
H24_2 C44_2 1_555 1_555
N10_2 Ru1_2 1_555 1_555
C45_2 Ru1_2 1_555 1_555
O9_2 C49_2 1_555 1_555
N11_2 C45_2 1_555 1_555
O17_2 Zn16 1_555 1_555
O18_2 C49_2 1_555 1_555
C108 N1_2 1_555 1_555
O20_2 C56_2 1_555 1_555
O21_2 C4_2 1_555 1_555
C56_2 O6_2 1_555 1_555
C67_2 C66_2 1_555 1_555
H28_2 C67_2 1_555 1_555
C68_2 C67_2 1_555 1_555
O42_2 Zn3_2 1_555 1_555
C19_2 N20_2 1_555 1_555
C30_2 N8_2 1_555 1_555
C34_2 N8_2 1_555 1_555
C40_2 N10_2 1_555 1_555
C43_2 C56_2 1_555 1_555
C44_2 N10_2 1_555 1_555
C49_2 H49_2 1_555 1_555
C11_2 C10_2 1_555 1_555
H4_2 C11_2 1_555 1_555
C12_2 C11_2 1_555 1_555
C14_2 C13_2 1_555 1_555
H6_2 C14_2 1_555 1_555
C46_2 C13_2 1_555 1_555
O29_2 C60_2 1_555 1_555
C60_2 C89_2 1_555 1_555
O30_2 Zn12_2 1_555 1_555
Ru3_2 N25_2 1_555 1_555
C81_2 C82_2 1_555 1_555
C82_2 H37_2 1_555 1_555
C83_2 C82_2 1_555 1_555
H38_2 C83_2 1_555 1_555
N25_2 C81_2 1_555 1_555
C86_2 C81_2 1_555 1_555
C87_2 C86_2 1_555 1_555
H40_2 C87_2 1_555 1_555
C88_2 C87_2 1_555 1_555
H41_2 C88_2 1_555 1_555
C89_2 C88_2 1_555 1_555
C90_2 C89_2 1_555 1_555
H42_2 C90_2 1_555 1_555
N26_2 Ru3_2 1_555 1_555
Zn17 O29_2 1_555 1_555
C97_2 C96_2 1_555 1_555
C98_2 C97_2 1_555 1_555
H47_2 C98_2 1_555 1_555
C99_2 C98_2 1_555 1_555
C100_2 C99_2 1_555 1_555
H48_2 C100_2 1_555 1_555
N28_2 Ru3_2 1_555 1_555
C101_2 Ru3_2 1_555 1_555
O33_2 Zn12_2 1_555 1_555
N31_2 Zn17 1_555 1_555
O43_2 Zn17 1_555 1_555
C106_2 O33_2 1_555 1_555
O46_2 C114_2 1_555 1_555
O47_2 C60_2 1_555 1_555
C114_2 O30_2 1_555 1_555
C14_2 N4_2 1_555 1_555
C46_2 O15_2 1_555 1_555
O16_2 Zn12_2 1_555 1_555
N15 C107_2 1_555 1_555
C86_2 N26_2 1_555 1_555
C90_2 N26_2 1_555 1_555
C96_2 N28_2 1_555 1_555
C99_2 C114_2 1_555 1_555
C100_2 N28_2 1_555 1_555
C101_2 N29_2 1_555 1_555
O44_2 C106_2 1_555 1_555
C106_2 H59_2 1_555 1_555
C104_2 Ru8 1_555 1_555
N2_2 Zn4_2 1_555 1_555
O1_2 C1_2 1_555 1_555
O2_2 C1_2 1_555 1_555
C1_2 C23_2 1_555 1_555
Zn1_2 O7_2 1_555 1_555
C24_2 C23_2 1_555 1_555
H12_2 C24_2 1_555 1_555
Zn9 O2_2 1_555 1_555
C29_2 C28_2 1_555 1_555
H15_2 C29_2 1_555 1_555
Zn4_2 O27_2 1_555 1_555
C35_2 C36_2 1_555 1_555
C36_2 H19_2 1_555 1_555
C37_2 C36_2 1_555 1_555
H20_2 C37_2 1_555 1_555
C38_2 C37_2 1_555 1_555
C39_2 C38_2 1_555 1_555
H21_2 C39_2 1_555 1_555
O7_2 C54_2 1_555 1_555
O8_2 C51_2 1_555 1_555
O10_2 Zn1_2 1_555 1_555
O11_2 Zn9 1_555 1_555
O14_2 C52_2 1_555 1_555
C48_2 N2_2 1_555 1_555
N13_2 C53_2 1_555 1_555
C51_2 C28_2 1_555 1_555
C52_2 C38_2 1_555 1_555
C54_2 N13_2 1_555 1_555
C55_2 N13_2 1_555 1_555
O23_2 C57_2 1_555 1_555
O24_2 C57_2 1_555 1_555
C57_2 C79_2 1_555 1_555
O25_2 Zn9 1_555 1_555
C58_2 O25_2 1_555 1_555
O27_2 C59_2 1_555 1_555
C59_2 C74_2 1_555 1_555
C61_2 C62_2 1_555 1_555
C62_2 H25_2 1_555 1_555
C63_2 C62_2 1_555 1_555
H26_2 C63_2 1_555 1_555
C64_2 C58_2 1_555 1_555
C65_2 C64_2 1_555 1_555
H27_2 C65_2 1_555 1_555
N17_2 C61_2 1_555 1_555
C71_2 C72_2 1_555 1_555
C72_2 H31_2 1_555 1_555
C73_2 C72_2 1_555 1_555
H32_2 C73_2 1_555 1_555
C74_2 C73_2 1_555 1_555
C75_2 C74_2 1_555 1_555
H33_2 C75_2 1_555 1_555
N21 C71_2 1_555 1_555
C76_2 C71_2 1_555 1_555
C77_2 C76_2 1_555 1_555
H34_2 C77_2 1_555 1_555
C78_2 C77_2 1_555 1_555
H35_2 C78_2 1_555 1_555
C79_2 C78_2 1_555 1_555
C80_2 C79_2 1_555 1_555
H36_2 C80_2 1_555 1_555
Zn11 O24_2 1_555 1_555
O38_2 C59_2 1_555 1_555
O45 Zn11 1_555 1_555
O48_2 C58_2 1_555 1_555
C35_2 N9_2 1_555 1_555
C39_2 N9_2 1_555 1_555
O10_2 C51_2 1_555 1_555
O11_2 C52_2 1_555 1_555
C63_2 C64_2 1_555 1_555
C65_2 N17_2 1_555 1_555
C75_2 N21 1_555 1_555
C76_2 N24 1_555 1_555
C80_2 N24 1_555 1_555
C53_2 H50_2 1_555 1_555
C53_2 H51_2 1_555 1_555
C53_2 H52_2 1_555 1_555
C54_2 H53_2 1_555 1_555
C55_2 H56_2 1_555 1_555
C55_2 H57_2 1_555 1_555
C55_2 H58_2 1_555 1_555
C104_2 N31 1_555 1_555
N31_2 C104 1_555 1_555

#END
