
###############################################################################
#
# This file contains modified crystal structure data generated from the
# MOF subset of the Cambridge Structural Database (CSD) v543 
# hosted by the Cambridge Crystallographic Data Centre (CCDC).
#
# This work is licensed under the Creative Commons
# Attribution-NonCommercial-ShareAlike 4.0 International License.
# To view a copy of this license, visit
# http://creativecommons.org/licenses/by-nc-sa/4.0/
# or send a letter to
# Creative Commons, PO Box 1866, Mountain View, CA 94042, USA.
#
# CIF created using the CSD Python API on 29 September 2022
# The structure has been converted into the P1 space group
# The structure has a 3D framework
# The original CSD entry HATYIO is in the orthorhombic crystal system
# The framework has been calculated to contain at least 10.0% void space
# The void calculation uses a probe of radius 1.32A, grid spacing 0.4
#
###############################################################################

data_HATYIO
_chemical_formula_moiety         '(C168 H128 Cd16 N24 O76)n'
_symmetry_cell_setting           triclinic
_symmetry_space_group_name_H-M   'P 1'
_symmetry_Int_Tables_number      1
_space_group_name_Hall           'P 1'
loop_
_symmetry_equiv_pos_site_id
_symmetry_equiv_pos_as_xyz
1 x,y,z
_cell_length_a                   15.4162(14)
_cell_length_b                   16.2148(15)
_cell_length_c                   20.6919(19)
_cell_angle_alpha                90
_cell_angle_beta                 90
_cell_angle_gamma                90
_cell_volume                     5172.37
loop_
_atom_site_label
_atom_site_type_symbol
_atom_site_fract_x
_atom_site_fract_y
_atom_site_fract_z
Cd1 Cd 0.47773(4) 0.12277(4) 0.19822(4)
C1 C 0.6868(6) 0.0230(6) 0.1886(5)
O2 O 0.4654(6) 0.3939(4) 0.5864(4)
O3 O 0.4805(7) 0.2346(6) 0.2736(5)
O4 O 0.5149(7) 0.1152(5) 0.3124(5)
C2 C 0.4814(8) 0.3380(6) 0.4583(6)
H1 H 0.4740 0.3943 0.4650
C3 C 0.4898(7) 0.2862(6) 0.5104(6)
O6 O 0.4971(6) 0.2716(4) 0.6251(4)
O7 O 0.6180(5) 0.0620(6) 0.2002(4)
C5 C 0.4993(6) 0.1896(7) 0.3179(7)
C6 C 0.4991(7) 0.2242(6) 0.3857(6)
C10 C 0.7108(7) 0.0449(7) 0.0074(6)
C11 C 0.4839(8) 0.3077(6) 0.3962(6)
H4 H 0.4755 0.3430 0.3613
C13 C 0.4836(8) 0.3193(6) 0.5784(6)
C15 C 0.7255(6) 0.0253(6) 0.1222(5)
C16 C 0.5091(7) 0.1732(7) 0.4380(7)
H7 H 0.5192 0.1174 0.4311
C17 C 0.6753(6) 0.0450(7) 0.0689(5)
H8 H 0.6171 0.0585 0.0745
C19 C 0.5047(8) 0.2025(6) 0.5005(7)
H10 H 0.5115 0.1669 0.5354
C20 C 0.8478(7) 0.0056(7) 0.0516(5)
C21 C 0.8117(6) 0.0059(6) 0.1130(5)
O10 O 0.3281(6) 0.1414(6) 0.2118(10)
H15 H 0.3095 0.1628 0.2466
H16 H 0.2926 0.1270 0.1825
Cd5 Cd 0.47773(4) 0.37723(4) 0.69822(4)
O23 O 0.4654(6) 0.1061(4) 0.0864(4)
O26 O 0.7120(4) 0.0420(4) 0.3839(3)
O27 O 0.4971(6) 0.2284(4) 0.1251(4)
O5 O 0.7880(4) 0.0420(4) 0.8839(3)
C4 C 0.8330(6) 0.0167(6) 0.9306(5)
C7 C 0.7962(6) 0.0241(6) 0.9983(5)
H3 H 0.6765 0.0591 0.9720
Cd4 Cd 0.88775(4) 0.50123(4) 0.30953(4)
C27 C 0.8132(6) 0.4770(6) 0.1886(5)
O14 O 0.9851(7) 0.3848(5) 0.3124(5)
O17 O 0.8820(5) 0.4380(6) 0.2002(4)
C34 C 0.7892(7) 0.4551(7) 0.0074(6)
O18 O 0.7776(5) 0.5174(5) 0.2330(4)
C37 C 0.7745(6) 0.4747(6) 0.1222(5)
C38 C 0.9909(7) 0.3268(7) 0.4380(7)
H24 H 0.9808 0.3826 0.4311
C39 C 0.8247(6) 0.4550(7) 0.0689(5)
H25 H 0.8829 0.4415 0.0745
C40 C 0.9953(8) 0.2975(6) 0.5005(7)
H26 H 0.9885 0.3331 0.5354
C41 C 0.6522(7) 0.4944(7) 0.0516(5)
H27 H 0.5938 0.5068 0.0460
C42 C 0.6883(6) 0.4941(6) 0.1130(5)
H28 H 0.6539 0.5073 0.1485
O19 O 0.8611(6) 0.6482(5) 0.3163(7)
H29 H 0.8411 0.6688 0.3511
H30 H 0.8714 0.6792 0.2841
O21 O 0.9049(4) 0.5153(4) 0.4229(3)
O25 O 0.7880(4) 0.4580(4) 0.3839(3)
O11 O 0.5951(4) 0.5153(4) 0.9229(3)
O15 O 0.7120(4) 0.4580(4) 0.8839(3)
C30 C 0.6670(6) 0.4833(6) 0.9306(5)
C33 C 0.7038(6) 0.4759(6) 0.9983(5)
H22 H 0.8235 0.4409 0.9720
Cd7 Cd 0.61225(4) 0.50123(4) 0.80953(4)
C3_2 C 0.4898(7) 0.2138(6) 0.0104(6)
C13_2 C 0.4836(8) 0.1807(6) 0.0784(6)
C19_2 C 0.5047(8) 0.2975(6) 0.0005(7)
H10_2 H 0.5115 0.3331 0.0354
C1_2 C 0.6868(6) 0.4770(6) 0.6886(5)
N1 N 0.3747(5) 0.6257(5) 0.7402(5)
O3_2 O 0.4805(7) 0.2654(6) 0.7736(5)
N2 N 0.4862(5) 0.5521(5) 0.7699(4)
O4_2 O 0.5149(7) 0.3848(5) 0.8124(5)
C2_2 C 0.4814(8) 0.1620(6) 0.9583(6)
H1_2 H 0.4740 0.1057 0.9650
C4_2 C 0.8330(6) 0.4833(6) 0.4306(5)
O7_2 O 0.6180(5) 0.4380(6) 0.7002(4)
C5_2 C 0.4993(6) 0.3104(7) 0.8179(7)
C6_2 C 0.4991(7) 0.2758(6) 0.8857(6)
C7_2 C 0.7962(6) 0.4759(6) 0.4983(5)
N3 N 0.4419(5) 0.5112(5) 0.7202(4)
C8 C 0.4426(6) 0.6197(6) 0.7802(6)
H2 H 0.4568 0.6587 0.8114
C9 C 0.3114(6) 0.6904(5) 0.7393(6)
C10_2 C 0.7108(7) 0.4551(7) 0.5074(6)
H3_2 H 0.6765 0.4409 0.4720
C11_2 C 0.4839(8) 0.1923(6) 0.8962(6)
H4_2 H 0.4755 0.1570 0.8613
C12 C 0.2820(6) 0.7190(5) 0.6815(6)
H5 H 0.3038 0.6982 0.6429
C14 C 0.3769(7) 0.5570(5) 0.7036(6)
H6 H 0.3374 0.5444 0.6711
O8 O 0.7224(5) 0.5174(5) 0.7330(4)
C15_2 C 0.7255(6) 0.4747(6) 0.6222(5)
C16_2 C 0.5091(7) 0.3268(7) 0.9380(7)
H7_2 H 0.5192 0.3826 0.9311
C17_2 C 0.6753(6) 0.4550(7) 0.5689(5)
H8_2 H 0.6171 0.4415 0.5745
C18 C 0.2819(7) 0.7187(6) 0.7982(7)
H9 H 0.3032 0.6972 0.8367
C20_2 C 0.8478(7) 0.4944(7) 0.5516(5)
H11 H 0.9062 0.5068 0.5460
C21_2 C 0.8117(6) 0.4941(6) 0.6130(5)
H12 H 0.8461 0.5073 0.6485
O9 O 0.6389(6) 0.6482(5) 0.8163(7)
H13 H 0.6589 0.6688 0.8511
H14 H 0.6286 0.6792 0.7841
O10_2 O 0.3281(6) 0.3586(6) 0.7118(10)
H15_2 H 0.3095 0.3372 0.7466
H16_2 H 0.2926 0.3730 0.6825
N4 N 0.1253(5) 0.8743(5) 0.7402(5)
N5 N 0.0138(5) 0.9479(5) 0.7699(4)
N6 N 0.0581(5) 0.9888(5) 0.7202(4)
C22 C 0.0574(6) 0.8803(6) 0.7802(6)
H17 H 0.0432 0.8413 0.8114
C23 C 0.1886(6) 0.8096(5) 0.7393(6)
C24 C 0.2180(6) 0.7810(5) 0.6815(6)
H18 H 0.1962 0.8018 0.6429
C25 C 0.1231(7) 0.9430(5) 0.7036(6)
H19 H 0.1626 0.9556 0.6711
C26 C 0.2181(7) 0.7813(6) 0.7982(7)
H20 H 0.1968 0.8028 0.8367
C27_2 C 0.8132(6) 0.0230(6) 0.6886(5)
O14_2 O 0.9851(7) 0.1152(5) 0.8124(5)
C30_2 C 0.6670(6) 0.0167(6) 0.4306(5)
O17_2 O 0.8820(5) 0.0620(6) 0.7002(4)
C33_2 C 0.7038(6) 0.0241(6) 0.4983(5)
C34_2 C 0.7892(7) 0.0449(7) 0.5074(6)
H22_2 H 0.8235 0.0591 0.4720
C37_2 C 0.7745(6) 0.0253(6) 0.6222(5)
C38_2 C 0.9909(7) 0.1732(7) 0.9380(7)
H24_2 H 0.9808 0.1174 0.9311
C39_2 C 0.8247(6) 0.0450(7) 0.5689(5)
H25_2 H 0.8829 0.0585 0.5745
C41_2 C 0.6522(7) 0.0056(7) 0.5516(5)
C42_2 C 0.6883(6) 0.0059(6) 0.6130(5)
Cd2 Cd 0.61225(4) 0.99877(4) 0.30953(4)
N1_2 N 0.3747(5) 0.8743(5) 0.2402(5)
N2_2 N 0.4862(5) 0.9479(5) 0.2699(4)
N3_2 N 0.4419(5) 0.9888(5) 0.2202(4)
C8_2 C 0.4426(6) 0.8803(6) 0.2802(6)
H2_2 H 0.4568 0.8413 0.3114
C9_2 C 0.3114(6) 0.8096(5) 0.2393(6)
C12_2 C 0.2820(6) 0.7810(5) 0.1815(6)
H5_2 H 0.3038 0.8018 0.1429
C14_2 C 0.3769(7) 0.9430(5) 0.2036(6)
H6_2 H 0.3374 0.9556 0.1711
O8_2 O 0.7224(5) 0.9826(5) 0.2330(4)
C18_2 C 0.2819(7) 0.7813(6) 0.2982(7)
H9_2 H 0.3032 0.8028 0.3367
H11_2 H 0.9062 0.9932 0.0460
H12_2 H 0.8461 0.9927 0.1485
O9_2 O 0.6389(6) 0.8518(5) 0.3163(7)
H13_2 H 0.6589 0.8312 0.3511
H14_2 H 0.6286 0.8208 0.2841
N4_2 N 0.1253(5) 0.6257(5) 0.2402(5)
N5_2 N 0.0138(5) 0.5521(5) 0.2699(4)
N6_2 N 0.0581(5) 0.5112(5) 0.2202(4)
C22_2 C 0.0574(6) 0.6197(6) 0.2802(6)
H17_2 H 0.0432 0.6587 0.3114
C23_2 C 0.1886(6) 0.6904(5) 0.2393(6)
C24_2 C 0.2180(6) 0.7190(5) 0.1815(6)
H18_2 H 0.1962 0.6982 0.1429
C25_2 C 0.1231(7) 0.5570(5) 0.2036(6)
H19_2 H 0.1626 0.5444 0.1711
C26_2 C 0.2181(7) 0.7187(6) 0.2982(7)
H20_2 H 0.1968 0.6972 0.3367
Cd3 Cd 0.02227(4) 0.37723(4) 0.19822(4)
O12 O 0.0346(6) 0.1061(4) 0.5864(4)
O13 O 0.0195(7) 0.2654(6) 0.2736(5)
C28 C 0.0186(8) 0.1620(6) 0.4583(6)
H21 H 0.0260 0.1057 0.4650
C29 C 0.0102(7) 0.2138(6) 0.5104(6)
O16 O 0.0029(6) 0.2284(4) 0.6251(4)
C31 C 0.0007(6) 0.3104(7) 0.3179(7)
C32 C 0.0009(7) 0.2758(6) 0.3857(6)
C35 C 0.0161(8) 0.1923(6) 0.3962(6)
H23 H 0.0245 0.1570 0.3613
C36 C 0.0164(8) 0.1807(6) 0.5784(6)
O20 O 0.1719(6) 0.3586(6) 0.2118(10)
H31 H 0.1905 0.3372 0.2466
H32 H 0.2074 0.3730 0.1825
Cd6 Cd 0.02227(4) 0.12277(4) 0.69822(4)
O22 O 0.5951(4) 0.9847(4) 0.4229(3)
O24 O 0.0346(6) 0.3939(4) 0.0864(4)
O28 O 0.0029(6) 0.2716(4) 0.1251(4)
O1 O 0.9049(4) 0.9847(4) 0.9229(3)
Cd8 Cd 0.88775(4) 0.99877(4) 0.80953(4)
C29_2 C 0.0102(7) 0.2862(6) 0.0104(6)
C36_2 C 0.0164(8) 0.3193(6) 0.0784(6)
O13_2 O 0.0195(7) 0.2346(6) 0.7736(5)
C28_2 C 0.0186(8) 0.3380(6) 0.9583(6)
H21_2 H 0.0260 0.3943 0.9650
C31_2 C 0.0007(6) 0.1896(7) 0.8179(7)
C32_2 C 0.0009(7) 0.2242(6) 0.8857(6)
C35_2 C 0.0161(8) 0.3077(6) 0.8962(6)
H23_2 H 0.0245 0.3430 0.8613
O20_2 O 0.1719(6) 0.1414(6) 0.7118(10)
H31_2 H 0.1905 0.1628 0.7466
H32_2 H 0.2074 0.1270 0.6825
O18_2 O 0.7776(5) 0.9826(5) 0.7330(4)
H27_2 H 0.5938 0.9932 0.5460
H28_2 H 0.6539 0.9927 0.6485
O19_2 O 0.8611(6) 0.8518(5) 0.8163(7)
H29_2 H 0.8411 0.8312 0.8511
H30_2 H 0.8714 0.8208 0.7841
Cd4_2 Cd 0.11225(4) 0.00123(4) 0.19047(4)
O11_2 O 0.4049(4) 0.0153(4) 0.5771(3)
O18_3 O 0.2224(5) 0.0174(5) 0.2670(4)
H27_3 H 0.4062 0.0068 0.4540
H28_3 H 0.3461 0.0073 0.3515
O19_3 O 0.1389(6) 0.1482(5) 0.1837(7)
H29_3 H 0.1589 0.1688 0.1489
H30_3 H 0.1286 0.1792 0.2159
Cd7_2 Cd 0.38775(4) 0.00123(4) 0.69047(4)
O21_2 O 0.0951(4) 0.0153(4) 0.0771(3)
Cd3_2 Cd 0.97773(4) 0.87723(4) 0.30178(4)
O13_3 O 0.9805(7) 0.7654(6) 0.2264(5)
C28_3 C 0.9814(8) 0.6620(6) 0.0417(6)
H21_3 H 0.9740 0.6057 0.0350
C31_3 C 0.9993(6) 0.8104(7) 0.1821(7)
C32_3 C 0.9991(7) 0.7758(6) 0.1143(6)
C35_3 C 0.9839(8) 0.6923(6) 0.1038(6)
H23_3 H 0.9755 0.6570 0.1387
O20_3 O 0.8281(6) 0.8586(6) 0.2882(10)
H31_3 H 0.8095 0.8372 0.2534
H32_3 H 0.7926 0.8730 0.3175
O24_2 O 0.9654(6) 0.8939(4) 0.4136(4)
O28_2 O 0.9971(6) 0.7716(4) 0.3749(4)
O12_2 O 0.9654(6) 0.6061(4) 0.9136(4)
C29_3 C 0.9898(7) 0.7138(6) 0.9896(6)
O16_2 O 0.9971(6) 0.7284(4) 0.8749(4)
C36_3 C 0.9836(8) 0.6807(6) 0.9216(6)
Cd6_2 Cd 0.97773(4) 0.62277(4) 0.80178(4)
N1_3 N 0.6253(5) 0.1257(5) 0.7598(5)
N2_3 N 0.5138(5) 0.0521(5) 0.7301(4)
N3_3 N 0.5581(5) 0.0112(5) 0.7798(4)
C8_3 C 0.5574(6) 0.1197(6) 0.7198(6)
H2_3 H 0.5432 0.1587 0.6886
C9_3 C 0.6886(6) 0.1904(5) 0.7607(6)
C12_3 C 0.7180(6) 0.2190(5) 0.8185(6)
H5_3 H 0.6962 0.1982 0.8571
C14_3 C 0.6231(7) 0.0570(5) 0.7964(6)
H6_3 H 0.6626 0.0444 0.8289
O8_3 O 0.2776(5) 0.0174(5) 0.7670(4)
C18_3 C 0.7181(7) 0.2187(6) 0.7018(7)
H9_3 H 0.6968 0.1972 0.6633
H11_3 H 0.0938 0.0068 0.9540
H12_3 H 0.1539 0.0073 0.8515
O9_3 O 0.3611(6) 0.1482(5) 0.6837(7)
H13_3 H 0.3411 0.1688 0.6489
H14_3 H 0.3714 0.1792 0.7159
N4_3 N 0.8747(5) 0.3743(5) 0.7598(5)
N5_3 N 0.9862(5) 0.4479(5) 0.7301(4)
N6_3 N 0.9419(5) 0.4888(5) 0.7798(4)
C22_3 C 0.9426(6) 0.3803(6) 0.7198(6)
H17_3 H 0.9568 0.3413 0.6886
C23_3 C 0.8114(6) 0.3096(5) 0.7607(6)
C24_3 C 0.7820(6) 0.2810(5) 0.8185(6)
H18_3 H 0.8038 0.3018 0.8571
C25_3 C 0.8769(7) 0.4430(5) 0.7964(6)
H19_3 H 0.8374 0.4556 0.8289
C26_3 C 0.7819(7) 0.2813(6) 0.7018(7)
H20_3 H 0.8032 0.3028 0.6633
O13_4 O 0.9805(7) 0.7346(6) 0.7264(5)
C28_4 C 0.9814(8) 0.8380(6) 0.5417(6)
H21_4 H 0.9740 0.8943 0.5350
C29_4 C 0.9898(7) 0.7862(6) 0.4896(6)
C31_4 C 0.9993(6) 0.6896(7) 0.6821(7)
C32_4 C 0.9991(7) 0.7242(6) 0.6143(6)
C35_4 C 0.9839(8) 0.8077(6) 0.6038(6)
H23_4 H 0.9755 0.8430 0.6387
C36_4 C 0.9836(8) 0.8193(6) 0.4216(6)
O20_4 O 0.8281(6) 0.6414(6) 0.7882(10)
H31_4 H 0.8095 0.6628 0.7534
H32_4 H 0.7926 0.6270 0.8175
C27_3 C 0.1868(6) 0.9770(6) 0.3114(5)
O14_3 O 0.0149(7) 0.8848(5) 0.1876(5)
O15_2 O 0.2880(4) 0.9580(4) 0.6161(3)
C30_3 C 0.3330(6) 0.9833(6) 0.5694(5)
O17_3 O 0.1180(5) 0.9380(6) 0.2998(4)
C33_3 C 0.2962(6) 0.9759(6) 0.5017(5)
C34_3 C 0.2108(7) 0.9551(7) 0.4926(6)
H22_3 H 0.1765 0.9409 0.5280
C37_3 C 0.2255(6) 0.9747(6) 0.3778(5)
C38_3 C 0.0091(7) 0.8268(7) 0.0620(7)
H24_3 H 0.0192 0.8826 0.0689
C39_3 C 0.1753(6) 0.9550(7) 0.4311(5)
H25_3 H 0.1171 0.9415 0.4255
C41_3 C 0.3478(7) 0.9944(7) 0.4484(5)
C42_3 C 0.3117(6) 0.9941(6) 0.3870(5)
O25_2 O 0.2120(4) 0.9580(4) 0.1161(3)
Cd1_2 Cd 0.52227(4) 0.62277(4) 0.30178(4)
Cd2_2 Cd 0.38775(4) 0.49877(4) 0.19047(4)
C1_3 C 0.3132(6) 0.5230(6) 0.3114(5)
N1_4 N 0.6253(5) 0.3743(5) 0.2598(5)
O1_2 O 0.0951(4) 0.4847(4) 0.5771(3)
O3_3 O 0.5195(7) 0.7346(6) 0.2264(5)
N2_4 N 0.5138(5) 0.4479(5) 0.2301(4)
O4_3 O 0.4851(7) 0.6152(5) 0.1876(5)
C2_3 C 0.5186(8) 0.8380(6) 0.0417(6)
H1_3 H 0.5260 0.8943 0.0350
O5_2 O 0.2120(4) 0.5420(4) 0.6161(3)
C4_3 C 0.1670(6) 0.5167(6) 0.5694(5)
O7_3 O 0.3820(5) 0.5620(6) 0.2998(4)
C5_3 C 0.5007(6) 0.6896(7) 0.1821(7)
C6_3 C 0.5009(7) 0.7242(6) 0.1143(6)
C7_3 C 0.2038(6) 0.5241(6) 0.5017(5)
N3_4 N 0.5581(5) 0.4888(5) 0.2798(4)
C8_4 C 0.5574(6) 0.3803(6) 0.2198(6)
H2_4 H 0.5432 0.3413 0.1886
C9_4 C 0.6886(6) 0.3096(5) 0.2607(6)
C10_3 C 0.2892(7) 0.5449(7) 0.4926(6)
H3_3 H 0.3235 0.5591 0.5280
C11_3 C 0.5161(8) 0.8077(6) 0.1038(6)
H4_3 H 0.5245 0.8430 0.1387
C12_4 C 0.7180(6) 0.2810(5) 0.3185(6)
H5_4 H 0.6962 0.3018 0.3571
C14_4 C 0.6231(7) 0.4430(5) 0.2964(6)
H6_4 H 0.6626 0.4556 0.3289
O8_4 O 0.2776(5) 0.4826(5) 0.2670(4)
C15_3 C 0.2745(6) 0.5253(6) 0.3778(5)
C16_3 C 0.4909(7) 0.6732(7) 0.0620(7)
H7_3 H 0.4808 0.6174 0.0689
C17_3 C 0.3247(6) 0.5450(7) 0.4311(5)
H8_3 H 0.3829 0.5585 0.4255
C18_4 C 0.7181(7) 0.2813(6) 0.2018(7)
H9_4 H 0.6968 0.3028 0.1633
C20_3 C 0.1522(7) 0.5056(7) 0.4484(5)
H11_4 H 0.0938 0.4932 0.4540
C21_3 C 0.1883(6) 0.5059(6) 0.3870(5)
H12_4 H 0.1539 0.4927 0.3515
O9_4 O 0.3611(6) 0.3518(5) 0.1837(7)
H13_4 H 0.3411 0.3312 0.1489
H14_4 H 0.3714 0.3208 0.2159
O10_3 O 0.6719(6) 0.6414(6) 0.2882(10)
H15_3 H 0.6905 0.6628 0.2534
H16_3 H 0.7074 0.6270 0.3175
N4_4 N 0.8747(5) 0.1257(5) 0.2598(5)
N5_4 N 0.9862(5) 0.0521(5) 0.2301(4)
N6_4 N 0.9419(5) 0.0112(5) 0.2798(4)
C22_4 C 0.9426(6) 0.1197(6) 0.2198(6)
H17_4 H 0.9568 0.1587 0.1886
C23_4 C 0.8114(6) 0.1904(5) 0.2607(6)
C24_4 C 0.7820(6) 0.2190(5) 0.3185(6)
H18_4 H 0.8038 0.1982 0.3571
C25_4 C 0.8769(7) 0.0570(5) 0.2964(6)
H19_4 H 0.8374 0.0444 0.3289
C26_4 C 0.7819(7) 0.2187(6) 0.2018(7)
H20_4 H 0.8032 0.1972 0.1633
Cd8_2 Cd 0.11225(4) 0.49877(4) 0.69047(4)
O22_2 O 0.4049(4) 0.4847(4) 0.0771(3)
O23_2 O 0.5346(6) 0.6061(4) 0.4136(4)
O26_2 O 0.2880(4) 0.5420(4) 0.1161(3)
O27_2 O 0.5029(6) 0.7284(4) 0.3749(4)
O2_2 O 0.5346(6) 0.8939(4) 0.9136(4)
C3_3 C 0.5102(7) 0.7862(6) 0.9896(6)
O6_2 O 0.5029(6) 0.7716(4) 0.8749(4)
C13_3 C 0.5164(8) 0.8193(6) 0.9216(6)
C19_3 C 0.4953(8) 0.7025(6) 0.9995(7)
H10_3 H 0.4885 0.6669 0.9646
Cd5_2 Cd 0.52227(4) 0.87723(4) 0.80178(4)
C30_4 C 0.3330(6) 0.5167(6) 0.0694(5)
C33_4 C 0.2962(6) 0.5241(6) 0.0017(5)
H22_4 H 0.1765 0.5591 0.0280
C27_4 C 0.1868(6) 0.5230(6) 0.8114(5)
O14_4 O 0.0149(7) 0.6152(5) 0.6876(5)
O17_4 O 0.1180(5) 0.5620(6) 0.7998(4)
C34_4 C 0.2108(7) 0.5449(7) 0.9926(6)
O18_4 O 0.2224(5) 0.4826(5) 0.7670(4)
C37_4 C 0.2255(6) 0.5253(6) 0.8778(5)
C38_4 C 0.0091(7) 0.6732(7) 0.5620(7)
H24_4 H 0.0192 0.6174 0.5689
C39_4 C 0.1753(6) 0.5450(7) 0.9311(5)
H25_4 H 0.1171 0.5585 0.9255
C40_2 C 0.0047(8) 0.7025(6) 0.4995(7)
H26_2 H 0.0115 0.6669 0.4646
C41_4 C 0.3478(7) 0.5056(7) 0.9484(5)
H27_4 H 0.4062 0.4932 0.9540
C42_4 C 0.3117(6) 0.5059(6) 0.8870(5)
H28_4 H 0.3461 0.4927 0.8515
O19_4 O 0.1389(6) 0.3518(5) 0.6837(7)
H29_4 H 0.1589 0.3312 0.6489
H30_4 H 0.1286 0.3208 0.7159
C4_4 C 0.1670(6) 0.9833(6) 0.0694(5)
C7_4 C 0.2038(6) 0.9759(6) 0.0017(5)
H3_4 H 0.3235 0.9409 0.0280
C1_4 C 0.3132(6) 0.9770(6) 0.8114(5)
O3_4 O 0.5195(7) 0.7654(6) 0.7264(5)
O4_4 O 0.4851(7) 0.8848(5) 0.6876(5)
C2_4 C 0.5186(8) 0.6620(6) 0.5417(6)
H1_4 H 0.5260 0.6057 0.5350
C3_4 C 0.5102(7) 0.7138(6) 0.4896(6)
O7_4 O 0.3820(5) 0.9380(6) 0.7998(4)
C5_4 C 0.5007(6) 0.8104(7) 0.6821(7)
C6_4 C 0.5009(7) 0.7758(6) 0.6143(6)
C10_4 C 0.2892(7) 0.9551(7) 0.9926(6)
C11_4 C 0.5161(8) 0.6923(6) 0.6038(6)
H4_4 H 0.5245 0.6570 0.6387
C13_4 C 0.5164(8) 0.6807(6) 0.4216(6)
C15_4 C 0.2745(6) 0.9747(6) 0.8778(5)
C16_4 C 0.4909(7) 0.8268(7) 0.5620(7)
H7_4 H 0.4808 0.8826 0.5689
C17_4 C 0.3247(6) 0.9550(7) 0.9311(5)
H8_4 H 0.3829 0.9415 0.9255
C19_4 C 0.4953(8) 0.7975(6) 0.4995(7)
H10_4 H 0.4885 0.8331 0.4646
C20_4 C 0.1522(7) 0.9944(7) 0.9484(5)
C21_4 C 0.1883(6) 0.9941(6) 0.8870(5)
O10_4 O 0.6719(6) 0.8586(6) 0.7882(10)
H15_4 H 0.6905 0.8372 0.7534
H16_4 H 0.7074 0.8730 0.8175
C40_3 C 0.0047(8) 0.7975(6) 0.9995(7)
H26_3 H 0.0115 0.8331 0.9646
C40_4 C 0.9953(8) 0.2025(6) 0.0005(7)
H26_4 H 0.9885 0.1669 0.0354
loop_
_geom_bond_atom_site_label_1
_geom_bond_atom_site_label_2
_geom_bond_site_symmetry_1
_geom_bond_site_symmetry_2
Cd1 O3 1_555 1_555
C1 O7 1_555 1_555
O2 C13 1_555 1_555
O3 C5 1_555 1_555
O4 Cd1 1_555 1_555
C2 H1 1_555 1_555
C3 C2 1_555 1_555
O6 C13 1_555 1_555
O7 Cd1 1_555 1_555
C5 O4 1_555 1_555
C6 C5 1_555 1_555
C11 C2 1_555 1_555
H4 C11 1_555 1_555
C13 C3 1_555 1_555
C15 C1 1_555 1_555
C16 C6 1_555 1_555
H7 C16 1_555 1_555
C17 C10 1_555 1_555
H8 C17 1_555 1_555
C19 C3 1_555 1_555
H10 C19 1_555 1_555
C21 C15 1_555 1_555
O10 Cd1 1_555 1_555
H15 O10 1_555 1_555
H16 O10 1_555 1_555
Cd5 O2 1_555 1_555
O23 Cd1 1_555 1_555
O27 Cd1 1_555 1_555
O6 Cd5 1_555 1_555
C6 C11 1_555 1_555
C15 C17 1_555 1_555
C16 C19 1_555 1_555
C20 C21 1_555 1_555
O5 C4 1_555 1_555
C4 C7 1_555 1_555
C27 O17 1_555 1_555
O18 Cd4 1_555 1_555
C37 C27 1_555 1_555
H24 C38 1_555 1_555
C39 C34 1_555 1_555
H25 C39 1_555 1_555
H26 C40 1_555 1_555
H27 C41 1_555 1_555
C42 C37 1_555 1_555
H28 C42 1_555 1_555
O19 Cd4 1_555 1_555
H29 O19 1_555 1_555
H30 O19 1_555 1_555
O21 Cd4 1_555 1_555
O25 Cd4 1_555 1_555
Cd4 O14 1_555 1_555
Cd4 O17 1_555 1_555
C27 O18 1_555 1_555
C37 C39 1_555 1_555
C38 C40 1_555 1_555
C41 C42 1_555 1_555
O11 C30 1_555 1_555
O15 C30 1_555 1_555
C30 C33 1_555 1_555
Cd7 O11 1_555 1_555
O15 Cd7 1_555 1_555
O23 C13_2 1_555 1_555
O27 C13_2 1_555 1_555
C13_2 C3_2 1_555 1_555
C19_2 C3_2 1_555 1_555
H10_2 C19_2 1_555 1_555
Cd5 O3_2 1_555 1_555
Cd7 N2 1_555 1_555
C1_2 O7_2 1_555 1_555
N1 C8 1_555 1_555
O21 C4_2 1_555 1_555
O3_2 C5_2 1_555 1_555
N2 N3 1_555 1_555
O4_2 Cd5 1_555 1_555
C2_2 H1_2 1_555 1_555
O25 C4_2 1_555 1_555
C4_2 C7_2 1_555 1_555
O7_2 Cd5 1_555 1_555
C5_2 O4_2 1_555 1_555
C6_2 C5_2 1_555 1_555
C7_2 C10_2 1_555 1_555
N3 Cd5 1_555 1_555
C8 N2 1_555 1_555
H2 C8 1_555 1_555
C9 N1 1_555 1_555
C10_2 H3_2 1_555 1_555
C11_2 C2_2 1_555 1_555
H4_2 C11_2 1_555 1_555
C12 C9 1_555 1_555
H5 C12 1_555 1_555
C14 N1 1_555 1_555
H6 C14 1_555 1_555
O8 Cd7 1_555 1_555
C15_2 C1_2 1_555 1_555
C16_2 C6_2 1_555 1_555
H7_2 C16_2 1_555 1_555
C17_2 C10_2 1_555 1_555
H8_2 C17_2 1_555 1_555
C18 C9 1_555 1_555
H9 C18 1_555 1_555
C20_2 C7_2 1_555 1_555
H11 C20_2 1_555 1_555
C21_2 C15_2 1_555 1_555
H12 C21_2 1_555 1_555
O9 Cd7 1_555 1_555
H13 O9 1_555 1_555
H14 O9 1_555 1_555
O10_2 Cd5 1_555 1_555
H15_2 O10_2 1_555 1_555
H16_2 O10_2 1_555 1_555
N4 C22 1_555 1_555
N5 N6 1_555 1_555
N6 C25 1_555 1_555
C22 N5 1_555 1_555
H17 C22 1_555 1_555
C23 N4 1_555 1_555
C24 C12 1_555 1_555
H18 C24 1_555 1_555
C25 N4 1_555 1_555
H19 C25 1_555 1_555
C26 C18 1_555 1_555
H20 C26 1_555 1_555
Cd7 O4_2 1_555 1_555
Cd7 O7_2 1_555 1_555
C1_2 O8 1_555 1_555
C6_2 C11_2 1_555 1_555
N3 C14 1_555 1_555
C15_2 C17_2 1_555 1_555
C20_2 C21_2 1_555 1_555
C23 C24 1_555 1_555
C23 C26 1_555 1_555
C27_2 O17_2 1_555 1_555
O26 C30_2 1_555 1_555
C30_2 C33_2 1_555 1_555
C33_2 C34_2 1_555 1_555
C34_2 H22_2 1_555 1_555
C37_2 C27_2 1_555 1_555
H24_2 C38_2 1_555 1_555
C39_2 C34_2 1_555 1_555
H25_2 C39_2 1_555 1_555
C41_2 C33_2 1_555 1_555
C42_2 C37_2 1_555 1_555
C37_2 C39_2 1_555 1_555
C41_2 C42_2 1_555 1_555
Cd2 N2_2 1_555 1_555
N1_2 C8_2 1_555 1_555
N2_2 N3_2 1_555 1_555
C8_2 N2_2 1_555 1_555
H2_2 C8_2 1_555 1_555
C9_2 N1_2 1_555 1_555
C12_2 C9_2 1_555 1_555
H5_2 C12_2 1_555 1_555
C14_2 N1_2 1_555 1_555
H6_2 C14_2 1_555 1_555
O8_2 Cd2 1_555 1_555
C18_2 C9_2 1_555 1_555
H9_2 C18_2 1_555 1_555
O9_2 Cd2 1_555 1_555
H13_2 O9_2 1_555 1_555
H14_2 O9_2 1_555 1_555
N4_2 C22_2 1_555 1_555
N5_2 N6_2 1_555 1_555
N6_2 C25_2 1_555 1_555
C22_2 N5_2 1_555 1_555
H17_2 C22_2 1_555 1_555
C23_2 N4_2 1_555 1_555
C24_2 C12_2 1_555 1_555
H18_2 C24_2 1_555 1_555
C25_2 N4_2 1_555 1_555
H19_2 C25_2 1_555 1_555
C26_2 C18_2 1_555 1_555
H20_2 C26_2 1_555 1_555
Cd3 N6_2 1_555 1_555
O12 C36 1_555 1_555
O13 Cd3 1_555 1_555
C28 H21 1_555 1_555
C29 C28 1_555 1_555
O16 C36 1_555 1_555
C31 O13 1_555 1_555
C32 C31 1_555 1_555
C35 C28 1_555 1_555
H23 C35 1_555 1_555
C36 C29 1_555 1_555
O20 Cd3 1_555 1_555
H31 O20 1_555 1_555
H32 O20 1_555 1_555
Cd6 O12 1_555 1_555
O22 Cd2 1_555 1_555
O24 Cd3 1_555 1_555
O28 Cd3 1_555 1_555
N3_2 C14_2 1_555 1_555
C23_2 C24_2 1_555 1_555
C23_2 C26_2 1_555 1_555
O16 Cd6 1_555 1_555
C32 C35 1_555 1_555
Cd8 O1 1_555 1_555
O24 C36_2 1_555 1_555
O28 C36_2 1_555 1_555
C36_2 C29_2 1_555 1_555
O13_2 Cd6 1_555 1_555
C28_2 H21_2 1_555 1_555
C31_2 O13_2 1_555 1_555
C32_2 C31_2 1_555 1_555
C35_2 C28_2 1_555 1_555
H23_2 C35_2 1_555 1_555
O20_2 Cd6 1_555 1_555
H31_2 O20_2 1_555 1_555
H32_2 O20_2 1_555 1_555
C32_2 C35_2 1_555 1_555
O18_2 Cd8 1_555 1_555
O19_2 Cd8 1_555 1_555
H29_2 O19_2 1_555 1_555
H30_2 O19_2 1_555 1_555
O18_3 Cd4_2 1_555 1_555
O19_3 Cd4_2 1_555 1_555
H29_3 O19_3 1_555 1_555
H30_3 O19_3 1_555 1_555
Cd7_2 O11_2 1_555 1_555
O21_2 Cd4_2 1_555 1_555
O13_3 Cd3_2 1_555 1_555
C28_3 H21_3 1_555 1_555
C31_3 O13_3 1_555 1_555
C32_3 C31_3 1_555 1_555
C35_3 C28_3 1_555 1_555
H23_3 C35_3 1_555 1_555
O20_3 Cd3_2 1_555 1_555
H31_3 O20_3 1_555 1_555
H32_3 O20_3 1_555 1_555
O24_2 Cd3_2 1_555 1_555
O28_2 Cd3_2 1_555 1_555
C32_3 C35_3 1_555 1_555
O12_2 C36_3 1_555 1_555
O16_2 C36_3 1_555 1_555
C36_3 C29_3 1_555 1_555
Cd6_2 O12_2 1_555 1_555
O16_2 Cd6_2 1_555 1_555
Cd7_2 N2_3 1_555 1_555
N1_3 C8_3 1_555 1_555
N2_3 N3_3 1_555 1_555
C8_3 N2_3 1_555 1_555
H2_3 C8_3 1_555 1_555
C9_3 N1_3 1_555 1_555
C12_3 C9_3 1_555 1_555
H5_3 C12_3 1_555 1_555
C14_3 N1_3 1_555 1_555
H6_3 C14_3 1_555 1_555
O8_3 Cd7_2 1_555 1_555
C18_3 C9_3 1_555 1_555
H9_3 C18_3 1_555 1_555
O9_3 Cd7_2 1_555 1_555
H13_3 O9_3 1_555 1_555
H14_3 O9_3 1_555 1_555
N4_3 C22_3 1_555 1_555
N5_3 N6_3 1_555 1_555
N6_3 C25_3 1_555 1_555
C22_3 N5_3 1_555 1_555
H17_3 C22_3 1_555 1_555
C23_3 N4_3 1_555 1_555
C24_3 C12_3 1_555 1_555
H18_3 C24_3 1_555 1_555
C25_3 N4_3 1_555 1_555
H19_3 C25_3 1_555 1_555
C26_3 C18_3 1_555 1_555
H20_3 C26_3 1_555 1_555
Cd6_2 N6_3 1_555 1_555
O24_2 C36_4 1_555 1_555
O13_4 Cd6_2 1_555 1_555
C28_4 H21_4 1_555 1_555
C29_4 C28_4 1_555 1_555
O28_2 C36_4 1_555 1_555
C31_4 O13_4 1_555 1_555
C32_4 C31_4 1_555 1_555
C35_4 C28_4 1_555 1_555
H23_4 C35_4 1_555 1_555
C36_4 C29_4 1_555 1_555
O20_4 Cd6_2 1_555 1_555
H31_4 O20_4 1_555 1_555
H32_4 O20_4 1_555 1_555
N3_3 C14_3 1_555 1_555
C23_3 C24_3 1_555 1_555
C23_3 C26_3 1_555 1_555
C32_4 C35_4 1_555 1_555
C27_3 O17_3 1_555 1_555
O15_2 C30_3 1_555 1_555
C30_3 C33_3 1_555 1_555
C33_3 C34_3 1_555 1_555
C34_3 H22_3 1_555 1_555
C37_3 C27_3 1_555 1_555
H24_3 C38_3 1_555 1_555
C39_3 C34_3 1_555 1_555
H25_3 C39_3 1_555 1_555
C41_3 C33_3 1_555 1_555
C42_3 C37_3 1_555 1_555
C37_3 C39_3 1_555 1_555
C41_3 C42_3 1_555 1_555
Cd1_2 O3_3 1_555 1_555
Cd2_2 N2_4 1_555 1_555
C1_3 O7_3 1_555 1_555
N1_4 C8_4 1_555 1_555
O1_2 C4_3 1_555 1_555
O3_3 C5_3 1_555 1_555
N2_4 N3_4 1_555 1_555
O4_3 Cd1_2 1_555 1_555
C2_3 H1_3 1_555 1_555
O5_2 C4_3 1_555 1_555
C4_3 C7_3 1_555 1_555
O7_3 Cd1_2 1_555 1_555
C5_3 O4_3 1_555 1_555
C6_3 C5_3 1_555 1_555
C7_3 C10_3 1_555 1_555
N3_4 Cd1_2 1_555 1_555
C8_4 N2_4 1_555 1_555
H2_4 C8_4 1_555 1_555
C9_4 N1_4 1_555 1_555
C10_3 H3_3 1_555 1_555
C11_3 C2_3 1_555 1_555
H4_3 C11_3 1_555 1_555
C12_4 C9_4 1_555 1_555
H5_4 C12_4 1_555 1_555
C14_4 N1_4 1_555 1_555
H6_4 C14_4 1_555 1_555
O8_4 Cd2_2 1_555 1_555
C15_3 C1_3 1_555 1_555
C16_3 C6_3 1_555 1_555
H7_3 C16_3 1_555 1_555
C17_3 C10_3 1_555 1_555
H8_3 C17_3 1_555 1_555
C18_4 C9_4 1_555 1_555
H9_4 C18_4 1_555 1_555
C20_3 C7_3 1_555 1_555
H11_4 C20_3 1_555 1_555
C21_3 C15_3 1_555 1_555
H12_4 C21_3 1_555 1_555
O9_4 Cd2_2 1_555 1_555
H13_4 O9_4 1_555 1_555
H14_4 O9_4 1_555 1_555
O10_3 Cd1_2 1_555 1_555
H15_3 O10_3 1_555 1_555
H16_3 O10_3 1_555 1_555
N4_4 C22_4 1_555 1_555
N5_4 N6_4 1_555 1_555
N6_4 C25_4 1_555 1_555
C22_4 N5_4 1_555 1_555
H17_4 C22_4 1_555 1_555
C23_4 N4_4 1_555 1_555
C24_4 C12_4 1_555 1_555
H18_4 C24_4 1_555 1_555
C25_4 N4_4 1_555 1_555
H19_4 C25_4 1_555 1_555
C26_4 C18_4 1_555 1_555
H20_4 C26_4 1_555 1_555
Cd8_2 O1_2 1_555 1_555
O22_2 Cd2_2 1_555 1_555
O23_2 Cd1_2 1_555 1_555
O26_2 Cd2_2 1_555 1_555
O27_2 Cd1_2 1_555 1_555
Cd2_2 O4_3 1_555 1_555
Cd2_2 O7_3 1_555 1_555
C1_3 O8_4 1_555 1_555
O5_2 Cd8_2 1_555 1_555
C6_3 C11_3 1_555 1_555
N3_4 C14_4 1_555 1_555
C15_3 C17_3 1_555 1_555
C20_3 C21_3 1_555 1_555
C23_4 C24_4 1_555 1_555
C23_4 C26_4 1_555 1_555
O2_2 C13_3 1_555 1_555
O6_2 C13_3 1_555 1_555
C13_3 C3_3 1_555 1_555
C19_3 C3_3 1_555 1_555
H10_3 C19_3 1_555 1_555
Cd5_2 O2_2 1_555 1_555
O6_2 Cd5_2 1_555 1_555
O22_2 C30_4 1_555 1_555
O26_2 C30_4 1_555 1_555
C30_4 C33_4 1_555 1_555
C27_4 O17_4 1_555 1_555
O18_4 Cd8_2 1_555 1_555
C37_4 C27_4 1_555 1_555
H24_4 C38_4 1_555 1_555
C39_4 C34_4 1_555 1_555
H25_4 C39_4 1_555 1_555
H26_2 C40_2 1_555 1_555
H27_4 C41_4 1_555 1_555
C42_4 C37_4 1_555 1_555
H28_4 C42_4 1_555 1_555
O19_4 Cd8_2 1_555 1_555
H29_4 O19_4 1_555 1_555
H30_4 O19_4 1_555 1_555
Cd8_2 O14_4 1_555 1_555
Cd8_2 O17_4 1_555 1_555
C27_4 O18_4 1_555 1_555
C37_4 C39_4 1_555 1_555
C38_4 C40_2 1_555 1_555
C41_4 C42_4 1_555 1_555
O25_2 C4_4 1_555 1_555
C4_4 C7_4 1_555 1_555
Cd5_2 O3_4 1_555 1_555
C1_4 O7_4 1_555 1_555
O23_2 C13_4 1_555 1_555
O3_4 C5_4 1_555 1_555
O4_4 Cd5_2 1_555 1_555
C2_4 H1_4 1_555 1_555
C3_4 C2_4 1_555 1_555
O27_2 C13_4 1_555 1_555
O7_4 Cd5_2 1_555 1_555
C5_4 O4_4 1_555 1_555
C6_4 C5_4 1_555 1_555
C11_4 C2_4 1_555 1_555
H4_4 C11_4 1_555 1_555
C13_4 C3_4 1_555 1_555
C15_4 C1_4 1_555 1_555
C16_4 C6_4 1_555 1_555
H7_4 C16_4 1_555 1_555
C17_4 C10_4 1_555 1_555
H8_4 C17_4 1_555 1_555
C19_4 C3_4 1_555 1_555
H10_4 C19_4 1_555 1_555
C21_4 C15_4 1_555 1_555
O10_4 Cd5_2 1_555 1_555
H15_4 O10_4 1_555 1_555
H16_4 O10_4 1_555 1_555
C6_4 C11_4 1_555 1_555
C15_4 C17_4 1_555 1_555
C16_4 C19_4 1_555 1_555
C20_4 C21_4 1_555 1_555
H26_3 C40_3 1_555 1_555
H26_4 C40_4 1_555 1_555

#END
