
###############################################################################
#
# This file contains modified crystal structure data generated from the
# MOF subset of the Cambridge Structural Database (CSD) v543 
# hosted by the Cambridge Crystallographic Data Centre (CCDC).
#
# This work is licensed under the Creative Commons
# Attribution-NonCommercial-ShareAlike 4.0 International License.
# To view a copy of this license, visit
# http://creativecommons.org/licenses/by-nc-sa/4.0/
# or send a letter to
# Creative Commons, PO Box 1866, Mountain View, CA 94042, USA.
#
# CIF created using the CSD Python API on 29 September 2022
# The structure has been converted into the P1 space group
# The structure has a 3D framework
# The original CSD entry HAVPUT is in the cubic crystal system
# The framework has been calculated to contain at least 10.0% void space
# The void calculation uses a probe of radius 1.32A, grid spacing 0.4
# The framework is charged, counterions have been retained in the structure
# H atom positions have been added when not included in the experimental data
# Generated hydrogen atom positions removed from atoms on special positions
#
###############################################################################

data_HAVPUT
_chemical_formula_moiety         '(C864 H2784 Cu240 Mo96 N384 O1054 P8 12-)n'
_symmetry_cell_setting           triclinic
_symmetry_space_group_name_H-M   'P 1'
_symmetry_Int_Tables_number      1
_space_group_name_Hall           'P 1'
loop_
_symmetry_equiv_pos_site_id
_symmetry_equiv_pos_as_xyz
1 x,y,z
_cell_length_a                   44.5096(2)
_cell_length_b                   44.5096(2)
_cell_length_c                   44.5096(2)
_cell_angle_alpha                90
_cell_angle_beta                 90
_cell_angle_gamma                90
_cell_volume                     88178.2
loop_
_atom_site_label
_atom_site_type_symbol
_atom_site_fract_x
_atom_site_fract_y
_atom_site_fract_z
Cu1 Cu 0.16868(2) 0.16868(2) 0.000000
Cu2 Cu 0.12646(2) 0.12646(2) 0.000000
Cu3 Cu 0.12361(3) 0.32325(3) 0.17675(3)
O1 O 0.10792(7) 0.15125(7) 0.03098(7)
O2 O 0.14352(7) 0.18704(7) 0.03093(7)
C1 C 0.12011(10) 0.17528(10) 0.04041(10)
C2 C 0.07993(11) 0.17682(15) 0.07993(11)
H1 H 0.072100 0.159103 0.072102
O3 O 0.16607(18) 0.33393(18) 0.16607(18)
C3 C 0.10496(10) 0.19009(10) 0.06665(10)
O4 O 0.20260(9) 0.20260(9) 0.000000
C4 C 0.10380(13) 0.22931(17) 0.10380(13)
N1 N 0.12511(11) 0.29255(12) 0.14568(13)
C5 C 0.11687(11) 0.21599(12) 0.07853(11)
H2 H 0.133693 0.224698 0.069715
N2 N 0.10636(11) 0.26994(12) 0.14138(12)
C6 C 0.11698(15) 0.2565(2) 0.11698(15)
O5 O 0.0921(3) 0.0921(3) 0.000000
O6 O 0.0934(4) 0.3006(3) 0.1994(3)
O7 O 0.0938(4) 0.3496(4) 0.1504(4)
O8 O 0.03098(7) 0.15125(7) 0.10792(7)
O9 O 0.03093(7) 0.18704(7) 0.14352(7)
C7 C 0.04041(10) 0.17528(10) 0.12011(10)
C8 C 0.06665(10) 0.19009(10) 0.10496(10)
N3 N 0.14568(13) 0.29255(12) 0.12511(11)
C9 C 0.07853(11) 0.21599(12) 0.11687(11)
H3 H 0.069715 0.224698 0.133693
N4 N 0.14138(12) 0.26994(12) 0.10636(11)
Cu7 Cu 0.000000 0.16868(2) 0.16868(2)
Cu8 Cu 0.000000 0.12646(2) 0.12646(2)
O21 O 0.000000 0.20260(9) 0.20260(9)
O22 O 0.000000 0.0921(3) 0.0921(3)
Cu10 Cu 0.17675(3) 0.12361(3) 0.32325(3)
O27 O 0.03098(7) 0.10792(7) 0.15125(7)
O28 O 0.03093(7) 0.14352(7) 0.18704(7)
C28 C 0.04041(10) 0.12011(10) 0.17528(10)
C29 C 0.07993(11) 0.07993(11) 0.17682(15)
H10 H 0.072102 0.072100 0.159103
C30 C 0.06665(10) 0.10496(10) 0.19009(10)
C31 C 0.10380(13) 0.10380(13) 0.22931(17)
N13 N 0.14568(13) 0.12511(11) 0.29255(12)
C32 C 0.07853(11) 0.11687(11) 0.21599(12)
H11 H 0.069715 0.133693 0.224698
N14 N 0.14138(12) 0.10636(11) 0.26994(12)
C33 C 0.11698(15) 0.11698(15) 0.2565(2)
O29 O 0.1994(3) 0.0934(4) 0.3006(3)
O30 O 0.1504(4) 0.0938(4) 0.3496(4)
O31 O 0.10792(7) 0.03098(7) 0.15125(7)
O32 O 0.14352(7) 0.03093(7) 0.18704(7)
C34 C 0.12011(10) 0.04041(10) 0.17528(10)
C35 C 0.10496(10) 0.06665(10) 0.19009(10)
N15 N 0.12511(11) 0.14568(13) 0.29255(12)
C36 C 0.11687(11) 0.07853(11) 0.21599(12)
H12 H 0.133693 0.069715 0.224698
N16 N 0.10636(11) 0.14138(12) 0.26994(12)
Cu11 Cu 0.32325(3) 0.17675(3) 0.12361(3)
O33 O 0.15125(7) 0.03098(7) 0.10792(7)
O34 O 0.18704(7) 0.03093(7) 0.14352(7)
C37 C 0.17528(10) 0.04041(10) 0.12011(10)
C38 C 0.17682(15) 0.07993(11) 0.07993(11)
H13 H 0.159103 0.072102 0.072100
C39 C 0.19009(10) 0.06665(10) 0.10496(10)
C40 C 0.22931(17) 0.10380(13) 0.10380(13)
N17 N 0.29255(12) 0.14568(13) 0.12511(11)
C41 C 0.21599(12) 0.07853(11) 0.11687(11)
H14 H 0.224698 0.069715 0.133693
N18 N 0.26994(12) 0.14138(12) 0.10636(11)
C42 C 0.2565(2) 0.11698(15) 0.11698(15)
O35 O 0.3006(3) 0.1994(3) 0.0934(4)
O36 O 0.3496(4) 0.1504(4) 0.0938(4)
O37 O 0.15125(7) 0.10792(7) 0.03098(7)
O38 O 0.18704(7) 0.14352(7) 0.03093(7)
C43 C 0.17528(10) 0.12011(10) 0.04041(10)
C44 C 0.19009(10) 0.10496(10) 0.06665(10)
N19 N 0.29255(12) 0.12511(11) 0.14568(13)
C45 C 0.21599(12) 0.11687(11) 0.07853(11)
H15 H 0.224698 0.133693 0.069715
N20 N 0.26994(12) 0.10636(11) 0.14138(12)
Cu14 Cu 0.16868(2) 0.000000 0.16868(2)
Cu17 Cu 0.12646(2) 0.000000 0.12646(2)
Cu20 Cu 0.12361(3) 0.17675(3) 0.32325(3)
Cu21 Cu 0.17675(3) 0.37639(3) 0.17675(3)
Cu23 Cu 0.32325(3) 0.12361(3) 0.17675(3)
Cu24 Cu 0.17675(3) 0.32325(3) 0.12361(3)
O54 O 0.16607(18) 0.16607(18) 0.33393(18)
O55 O 0.33393(18) 0.16607(18) 0.16607(18)
N25 N 0.12511(11) 0.35432(13) 0.20745(12)
N26 N 0.20745(12) 0.12511(11) 0.35432(13)
N28 N 0.35432(13) 0.20745(12) 0.12511(11)
Cu1_2 Cu 0.16868(2) 0.16868(2) 1.000000
Cu2_2 Cu 0.12646(2) 0.12646(2) 1.000000
O4_2 O 0.20260(9) 0.20260(9) 1.000000
O5_2 O 0.0921(3) 0.0921(3) 1.000000
Cu4 Cu 0.000000 0.16868(2) 0.83132(2)
Cu5 Cu 0.000000 0.12646(2) 0.87354(2)
Cu6 Cu 0.17675(3) 0.32325(3) 0.87639(3)
O10 O 0.03098(7) 0.15125(7) 0.89208(7)
O11 O 0.03093(7) 0.18704(7) 0.85648(7)
C10 C 0.04041(10) 0.17528(10) 0.87989(10)
C11 C 0.07993(11) 0.17682(15) 0.92007(11)
H4 H 0.072102 0.159103 0.927900
O12 O 0.16607(18) 0.33393(18) 0.83393(18)
C12 C 0.06665(10) 0.19009(10) 0.89504(10)
O13 O 0.000000 0.20260(9) 0.79740(9)
C13 C 0.10380(13) 0.22931(17) 0.89620(13)
N5 N 0.14568(13) 0.29255(12) 0.87489(11)
C14 C 0.07853(11) 0.21599(12) 0.88313(11)
H5 H 0.069715 0.224698 0.866307
N6 N 0.14138(12) 0.26994(12) 0.89364(11)
C15 C 0.11698(15) 0.2565(2) 0.88302(15)
O14 O 0.000000 0.0921(3) 0.9079(3)
O15 O 0.1994(3) 0.3006(3) 0.9066(4)
O16 O 0.1504(4) 0.3496(4) 0.9062(4)
O17 O 0.10792(7) 0.15125(7) 0.96902(7)
O18 O 0.14352(7) 0.18704(7) 0.96907(7)
C16 C 0.12011(10) 0.17528(10) 0.95959(10)
C17 C 0.10496(10) 0.19009(10) 0.93335(10)
N7 N 0.12511(11) 0.29255(12) 0.85432(13)
C18 C 0.11687(11) 0.21599(12) 0.92147(11)
H6 H 0.133693 0.224698 0.930285
N8 N 0.10636(11) 0.26994(12) 0.85862(12)
Cu12 Cu 0.32325(3) 0.12361(3) 0.82325(3)
O39 O 0.15125(7) 0.10792(7) 0.96902(7)
O40 O 0.18704(7) 0.14352(7) 0.96907(7)
C46 C 0.17528(10) 0.12011(10) 0.95959(10)
C47 C 0.17682(15) 0.07993(11) 0.92007(11)
H16 H 0.159103 0.072100 0.927898
C48 C 0.19009(10) 0.10496(10) 0.93335(10)
C49 C 0.22931(17) 0.10380(13) 0.89620(13)
N21 N 0.29255(12) 0.12511(11) 0.85432(13)
C50 C 0.21599(12) 0.11687(11) 0.92147(11)
H17 H 0.224698 0.133693 0.930285
N22 N 0.26994(12) 0.10636(11) 0.85862(12)
C51 C 0.2565(2) 0.11698(15) 0.88302(15)
O41 O 0.3006(3) 0.0934(4) 0.8006(3)
O42 O 0.3496(4) 0.0938(4) 0.8496(4)
O43 O 0.15125(7) 0.03098(7) 0.89208(7)
O44 O 0.18704(7) 0.03093(7) 0.85648(7)
C52 C 0.17528(10) 0.04041(10) 0.87989(10)
C53 C 0.19009(10) 0.06665(10) 0.89504(10)
N23 N 0.29255(12) 0.14568(13) 0.87489(11)
C54 C 0.21599(12) 0.07853(11) 0.88313(11)
H18 H 0.224698 0.069715 0.866307
N24 N 0.26994(12) 0.14138(12) 0.89364(11)
Cu15 Cu 0.16868(2) 0.000000 0.83132(2)
Cu18 Cu 0.12646(2) 0.000000 0.87354(2)
Cu19 Cu 0.12361(3) 0.32325(3) 0.82325(3)
Cu25 Cu 0.17675(3) 0.37639(3) 0.82325(3)
Cu26 Cu 0.32325(3) 0.17675(3) 0.87639(3)
O47 O 0.03098(7) 0.10792(7) 0.84875(7)
O51 O 0.03093(7) 0.14352(7) 0.81296(7)
O56 O 0.33393(18) 0.16607(18) 0.83393(18)
N27 N 0.35432(13) 0.12511(11) 0.79255(12)
N29 N 0.20745(12) 0.35432(13) 0.87489(11)
Cu14_2 Cu 0.16868(2) 1.000000 0.16868(2)
Cu17_2 Cu 0.12646(2) 1.000000 0.12646(2)
Cu15_2 Cu 0.16868(2) 1.000000 0.83132(2)
Cu18_2 Cu 0.12646(2) 1.000000 0.87354(2)
Cu7_2 Cu 1.000000 0.16868(2) 0.16868(2)
Cu8_2 Cu 1.000000 0.12646(2) 0.12646(2)
Cu9 Cu 0.82325(3) 0.32325(3) 0.12361(3)
O19 O 0.96902(7) 0.15125(7) 0.10792(7)
O20 O 0.96907(7) 0.18704(7) 0.14352(7)
C19 C 0.95959(10) 0.17528(10) 0.12011(10)
C20 C 0.92007(11) 0.17682(15) 0.07993(11)
H7 H 0.927898 0.159103 0.072100
C21 C 0.93335(10) 0.19009(10) 0.10496(10)
O21_2 O 1.000000 0.20260(9) 0.20260(9)
C22 C 0.89620(13) 0.22931(17) 0.10380(13)
N9 N 0.85432(13) 0.29255(12) 0.12511(11)
C23 C 0.92147(11) 0.21599(12) 0.11687(11)
H8 H 0.930285 0.224698 0.133693
N10 N 0.85862(12) 0.26994(12) 0.10636(11)
C24 C 0.88302(15) 0.2565(2) 0.11698(15)
O22_2 O 1.000000 0.0921(3) 0.0921(3)
O23 O 0.8006(3) 0.3006(3) 0.0934(4)
O24 O 0.8496(4) 0.3496(4) 0.0938(4)
O25 O 0.89208(7) 0.15125(7) 0.03098(7)
O26 O 0.85648(7) 0.18704(7) 0.03093(7)
C25 C 0.87989(10) 0.17528(10) 0.04041(10)
C26 C 0.89504(10) 0.19009(10) 0.06665(10)
N11 N 0.87489(11) 0.29255(12) 0.14568(13)
C27 C 0.88313(11) 0.21599(12) 0.07853(11)
H9 H 0.866307 0.224698 0.069715
N12 N 0.89364(11) 0.26994(12) 0.14138(12)
Cu13 Cu 0.83132(2) 0.16868(2) 0.000000
Cu16 Cu 0.87354(2) 0.12646(2) 0.000000
Cu22 Cu 0.87639(3) 0.32325(3) 0.17675(3)
O46 O 0.96902(7) 0.10792(7) 0.15125(7)
O50 O 0.96907(7) 0.14352(7) 0.18704(7)
O53 O 0.83393(18) 0.33393(18) 0.16607(18)
N30 N 0.79255(12) 0.35432(13) 0.12511(11)
Cu4_2 Cu 1.000000 0.16868(2) 0.83132(2)
Cu5_2 Cu 1.000000 0.12646(2) 0.87354(2)
O13_2 O 1.000000 0.20260(9) 0.79740(9)
O14_2 O 1.000000 0.0921(3) 0.9079(3)
Cu13_2 Cu 0.83132(2) 0.16868(2) 1.000000
Cu16_2 Cu 0.87354(2) 0.12646(2) 1.000000
O45 O 0.96902(7) 0.10792(7) 0.84875(7)
O48 O 0.96902(7) 0.15125(7) 0.89208(7)
O49 O 0.96907(7) 0.14352(7) 0.81296(7)
O52 O 0.96907(7) 0.18704(7) 0.85648(7)
Cu3_2 Cu 0.67675(3) 0.12361(3) 0.17675(3)
O1_2 O 0.84875(7) 0.10792(7) 0.03098(7)
O2_2 O 0.81296(7) 0.14352(7) 0.03093(7)
C1_2 C 0.82472(10) 0.12011(10) 0.04041(10)
C2_2 C 0.82318(15) 0.07993(11) 0.07993(11)
H1_2 H 0.840897 0.072100 0.072102
O3_2 O 0.66607(18) 0.16607(18) 0.16607(18)
C3_2 C 0.80991(10) 0.10496(10) 0.06665(10)
O4_3 O 0.79740(9) 0.20260(9) 0.000000
C4_2 C 0.77069(17) 0.10380(13) 0.10380(13)
N1_2 N 0.70745(12) 0.12511(11) 0.14568(13)
C5_2 C 0.78401(12) 0.11687(11) 0.07853(11)
H2_2 H 0.775302 0.133693 0.069715
N2_2 N 0.73006(12) 0.10636(11) 0.14138(12)
C6_2 C 0.7435(2) 0.11698(15) 0.11698(15)
O5_3 O 0.9079(3) 0.0921(3) 0.000000
O6_2 O 0.6994(3) 0.0934(4) 0.1994(3)
O7_2 O 0.6504(4) 0.0938(4) 0.1504(4)
O8_2 O 0.84875(7) 0.03098(7) 0.10792(7)
O9_2 O 0.81296(7) 0.03093(7) 0.14352(7)
C7_2 C 0.82472(10) 0.04041(10) 0.12011(10)
C8_2 C 0.80991(10) 0.06665(10) 0.10496(10)
N3_2 N 0.70745(12) 0.14568(13) 0.12511(11)
C9_2 C 0.78401(12) 0.07853(11) 0.11687(11)
H3_2 H 0.775302 0.069715 0.133693
N4_2 N 0.73006(12) 0.14138(12) 0.10636(11)
Cu7_3 Cu 0.83132(2) 0.000000 0.16868(2)
Cu8_3 Cu 0.87354(2) 0.000000 0.12646(2)
O21_3 O 0.79740(9) 0.000000 0.20260(9)
O22_3 O 0.9079(3) 0.000000 0.0921(3)
Cu10_2 Cu 0.87639(3) 0.17675(3) 0.32325(3)
O27_2 O 0.89208(7) 0.03098(7) 0.15125(7)
O28_2 O 0.85648(7) 0.03093(7) 0.18704(7)
C28_2 C 0.87989(10) 0.04041(10) 0.17528(10)
C29_2 C 0.92007(11) 0.07993(11) 0.17682(15)
H10_2 H 0.927900 0.072102 0.159103
C30_2 C 0.89504(10) 0.06665(10) 0.19009(10)
C31_2 C 0.89620(13) 0.10380(13) 0.22931(17)
N13_2 N 0.87489(11) 0.14568(13) 0.29255(12)
C32_2 C 0.88313(11) 0.07853(11) 0.21599(12)
H11_2 H 0.866307 0.069715 0.224698
N14_2 N 0.89364(11) 0.14138(12) 0.26994(12)
C33_2 C 0.88302(15) 0.11698(15) 0.2565(2)
O29_2 O 0.9066(4) 0.1994(3) 0.3006(3)
O30_2 O 0.9062(4) 0.1504(4) 0.3496(4)
C34_2 C 0.95959(10) 0.12011(10) 0.17528(10)
C35_2 C 0.93335(10) 0.10496(10) 0.19009(10)
N15_2 N 0.85432(13) 0.12511(11) 0.29255(12)
C36_2 C 0.92147(11) 0.11687(11) 0.21599(12)
H12_2 H 0.930285 0.133693 0.224698
N16_2 N 0.85862(12) 0.10636(11) 0.26994(12)
Cu20_2 Cu 0.82325(3) 0.12361(3) 0.32325(3)
Cu21_2 Cu 0.62361(3) 0.17675(3) 0.17675(3)
Cu24_2 Cu 0.67675(3) 0.17675(3) 0.12361(3)
O54_2 O 0.83393(18) 0.16607(18) 0.33393(18)
N25_2 N 0.64568(13) 0.12511(11) 0.20745(12)
N26_2 N 0.87489(11) 0.20745(12) 0.35432(13)
O4_4 O 0.79740(9) 0.20260(9) 1.000000
O5_4 O 0.9079(3) 0.0921(3) 1.000000
Cu4_3 Cu 0.83132(2) 0.000000 0.83132(2)
Cu5_3 Cu 0.87354(2) 0.000000 0.87354(2)
Cu6_2 Cu 0.67675(3) 0.17675(3) 0.87639(3)
O10_2 O 0.84875(7) 0.03098(7) 0.89208(7)
O11_2 O 0.81296(7) 0.03093(7) 0.85648(7)
C10_2 C 0.82472(10) 0.04041(10) 0.87989(10)
C11_2 C 0.82318(15) 0.07993(11) 0.92007(11)
H4_2 H 0.840897 0.072102 0.927900
O12_2 O 0.66607(18) 0.16607(18) 0.83393(18)
C12_2 C 0.80991(10) 0.06665(10) 0.89504(10)
O13_3 O 0.79740(9) 0.000000 0.79740(9)
C13_2 C 0.77069(17) 0.10380(13) 0.89620(13)
N5_2 N 0.70745(12) 0.14568(13) 0.87489(11)
C14_2 C 0.78401(12) 0.07853(11) 0.88313(11)
H5_2 H 0.775302 0.069715 0.866307
N6_2 N 0.73006(12) 0.14138(12) 0.89364(11)
C15_2 C 0.7435(2) 0.11698(15) 0.88302(15)
O14_3 O 0.9079(3) 0.000000 0.9079(3)
O15_2 O 0.6994(3) 0.1994(3) 0.9066(4)
O16_2 O 0.6504(4) 0.1504(4) 0.9062(4)
O17_2 O 0.84875(7) 0.10792(7) 0.96902(7)
O18_2 O 0.81296(7) 0.14352(7) 0.96907(7)
C16_2 C 0.82472(10) 0.12011(10) 0.95959(10)
C17_2 C 0.80991(10) 0.10496(10) 0.93335(10)
N7_2 N 0.70745(12) 0.12511(11) 0.85432(13)
C18_2 C 0.78401(12) 0.11687(11) 0.92147(11)
H6_2 H 0.775302 0.133693 0.930285
N8_2 N 0.73006(12) 0.10636(11) 0.85862(12)
Cu12_2 Cu 0.87639(3) 0.32325(3) 0.82325(3)
O39_2 O 0.89208(7) 0.15125(7) 0.96902(7)
O40_2 O 0.85648(7) 0.18704(7) 0.96907(7)
C46_2 C 0.87989(10) 0.17528(10) 0.95959(10)
C47_2 C 0.92007(11) 0.17682(15) 0.92007(11)
H16_2 H 0.927900 0.159103 0.927898
C48_2 C 0.89504(10) 0.19009(10) 0.93335(10)
C49_2 C 0.89620(13) 0.22931(17) 0.89620(13)
N21_2 N 0.87489(11) 0.29255(12) 0.85432(13)
C50_2 C 0.88313(11) 0.21599(12) 0.92147(11)
H17_2 H 0.866307 0.224698 0.930285
N22_2 N 0.89364(11) 0.26994(12) 0.85862(12)
C51_2 C 0.88302(15) 0.2565(2) 0.88302(15)
O41_2 O 0.9066(4) 0.3006(3) 0.8006(3)
O42_2 O 0.9062(4) 0.3496(4) 0.8496(4)
C52_2 C 0.95959(10) 0.17528(10) 0.87989(10)
C53_2 C 0.93335(10) 0.19009(10) 0.89504(10)
N23_2 N 0.85432(13) 0.29255(12) 0.87489(11)
C54_2 C 0.92147(11) 0.21599(12) 0.88313(11)
H18_2 H 0.930285 0.224698 0.866307
N24_2 N 0.85862(12) 0.26994(12) 0.89364(11)
Cu19_2 Cu 0.67675(3) 0.12361(3) 0.82325(3)
Cu25_2 Cu 0.62361(3) 0.17675(3) 0.82325(3)
Cu26_2 Cu 0.82325(3) 0.32325(3) 0.87639(3)
O47_2 O 0.89208(7) 0.03098(7) 0.84875(7)
O51_2 O 0.85648(7) 0.03093(7) 0.81296(7)
O56_2 O 0.83393(18) 0.33393(18) 0.83393(18)
N27_2 N 0.87489(11) 0.35432(13) 0.79255(12)
N29_2 N 0.64568(13) 0.20745(12) 0.87489(11)
Cu7_4 Cu 0.83132(2) 1.000000 0.16868(2)
Cu8_4 Cu 0.87354(2) 1.000000 0.12646(2)
Cu9_2 Cu 0.67675(3) 0.82325(3) 0.12361(3)
O19_2 O 0.84875(7) 0.96902(7) 0.10792(7)
O20_2 O 0.81296(7) 0.96907(7) 0.14352(7)
C19_2 C 0.82472(10) 0.95959(10) 0.12011(10)
C20_2 C 0.82318(15) 0.92007(11) 0.07993(11)
H7_2 H 0.840897 0.927898 0.072100
C21_2 C 0.80991(10) 0.93335(10) 0.10496(10)
O21_4 O 0.79740(9) 1.000000 0.20260(9)
C22_2 C 0.77069(17) 0.89620(13) 0.10380(13)
N9_2 N 0.70745(12) 0.85432(13) 0.12511(11)
C23_2 C 0.78401(12) 0.92147(11) 0.11687(11)
H8_2 H 0.775302 0.930285 0.133693
N10_2 N 0.73006(12) 0.85862(12) 0.10636(11)
C24_2 C 0.7435(2) 0.88302(15) 0.11698(15)
O22_4 O 0.9079(3) 1.000000 0.0921(3)
O23_2 O 0.6994(3) 0.8006(3) 0.0934(4)
O24_2 O 0.6504(4) 0.8496(4) 0.0938(4)
O25_2 O 0.84875(7) 0.89208(7) 0.03098(7)
O26_2 O 0.81296(7) 0.85648(7) 0.03093(7)
C25_2 C 0.82472(10) 0.87989(10) 0.04041(10)
C26_2 C 0.80991(10) 0.89504(10) 0.06665(10)
N11_2 N 0.70745(12) 0.87489(11) 0.14568(13)
C27_2 C 0.78401(12) 0.88313(11) 0.07853(11)
H9_2 H 0.775302 0.866307 0.069715
N12_2 N 0.73006(12) 0.89364(11) 0.14138(12)
Cu13_3 Cu 0.83132(2) 0.83132(2) 0.000000
Cu16_3 Cu 0.87354(2) 0.87354(2) 0.000000
Cu22_2 Cu 0.67675(3) 0.87639(3) 0.17675(3)
O46_2 O 0.89208(7) 0.96902(7) 0.15125(7)
O50_2 O 0.85648(7) 0.96907(7) 0.18704(7)
O53_2 O 0.66607(18) 0.83393(18) 0.16607(18)
N30_2 N 0.64568(13) 0.79255(12) 0.12511(11)
Cu4_4 Cu 0.83132(2) 1.000000 0.83132(2)
Cu5_4 Cu 0.87354(2) 1.000000 0.87354(2)
O13_4 O 0.79740(9) 1.000000 0.79740(9)
O14_4 O 0.9079(3) 1.000000 0.9079(3)
Cu13_4 Cu 0.83132(2) 0.83132(2) 1.000000
Cu16_4 Cu 0.87354(2) 0.87354(2) 1.000000
O45_2 O 0.89208(7) 0.96902(7) 0.84875(7)
O48_2 O 0.84875(7) 0.96902(7) 0.89208(7)
O49_2 O 0.85648(7) 0.96907(7) 0.81296(7)
O52_2 O 0.81296(7) 0.96907(7) 0.85648(7)
Cu7_5 Cu 0.000000 0.83132(2) 0.16868(2)
Cu8_5 Cu 0.000000 0.87354(2) 0.12646(2)
Cu9_3 Cu 0.17675(3) 0.67675(3) 0.12361(3)
O19_3 O 0.03098(7) 0.84875(7) 0.10792(7)
O20_3 O 0.03093(7) 0.81296(7) 0.14352(7)
C19_3 C 0.04041(10) 0.82472(10) 0.12011(10)
C20_3 C 0.07993(11) 0.82318(15) 0.07993(11)
H7_3 H 0.072102 0.840897 0.072100
C21_3 C 0.06665(10) 0.80991(10) 0.10496(10)
O21_5 O 0.000000 0.79740(9) 0.20260(9)
C22_3 C 0.10380(13) 0.77069(17) 0.10380(13)
N9_3 N 0.14568(13) 0.70745(12) 0.12511(11)
C23_3 C 0.07853(11) 0.78401(12) 0.11687(11)
H8_3 H 0.069715 0.775302 0.133693
N10_3 N 0.14138(12) 0.73006(12) 0.10636(11)
C24_3 C 0.11698(15) 0.7435(2) 0.11698(15)
O22_5 O 0.000000 0.9079(3) 0.0921(3)
O23_3 O 0.1994(3) 0.6994(3) 0.0934(4)
O24_3 O 0.1504(4) 0.6504(4) 0.0938(4)
O25_3 O 0.10792(7) 0.84875(7) 0.03098(7)
O26_3 O 0.14352(7) 0.81296(7) 0.03093(7)
C25_3 C 0.12011(10) 0.82472(10) 0.04041(10)
C26_3 C 0.10496(10) 0.80991(10) 0.06665(10)
N11_3 N 0.12511(11) 0.70745(12) 0.14568(13)
C27_3 C 0.11687(11) 0.78401(12) 0.07853(11)
H9_3 H 0.133693 0.775302 0.069715
N12_3 N 0.10636(11) 0.73006(12) 0.14138(12)
Cu13_5 Cu 0.16868(2) 0.83132(2) 0.000000
Cu16_5 Cu 0.12646(2) 0.87354(2) 0.000000
Cu22_3 Cu 0.12361(3) 0.67675(3) 0.17675(3)
O46_3 O 0.03098(7) 0.89208(7) 0.15125(7)
O50_3 O 0.03093(7) 0.85648(7) 0.18704(7)
O53_3 O 0.16607(18) 0.66607(18) 0.16607(18)
N30_3 N 0.20745(12) 0.64568(13) 0.12511(11)
Cu4_5 Cu 0.000000 0.83132(2) 0.83132(2)
Cu5_5 Cu 0.000000 0.87354(2) 0.87354(2)
O13_5 O 0.000000 0.79740(9) 0.79740(9)
O14_5 O 0.000000 0.9079(3) 0.9079(3)
Cu13_6 Cu 0.16868(2) 0.83132(2) 1.000000
Cu16_6 Cu 0.12646(2) 0.87354(2) 1.000000
O45_3 O 0.03098(7) 0.89208(7) 0.84875(7)
O48_3 O 0.03098(7) 0.84875(7) 0.89208(7)
O49_3 O 0.03093(7) 0.85648(7) 0.81296(7)
O52_3 O 0.03093(7) 0.81296(7) 0.85648(7)
Cu3_3 Cu 0.87639(3) 0.67675(3) 0.17675(3)
O1_3 O 0.89208(7) 0.84875(7) 0.03098(7)
O2_3 O 0.85648(7) 0.81296(7) 0.03093(7)
C1_3 C 0.87989(10) 0.82472(10) 0.04041(10)
C2_3 C 0.92007(11) 0.82318(15) 0.07993(11)
H1_3 H 0.927900 0.840897 0.072102
O3_3 O 0.83393(18) 0.66607(18) 0.16607(18)
C3_3 C 0.89504(10) 0.80991(10) 0.06665(10)
O4_5 O 0.79740(9) 0.79740(9) 0.000000
C4_3 C 0.89620(13) 0.77069(17) 0.10380(13)
N1_3 N 0.87489(11) 0.70745(12) 0.14568(13)
C5_3 C 0.88313(11) 0.78401(12) 0.07853(11)
H2_3 H 0.866307 0.775302 0.069715
N2_3 N 0.89364(11) 0.73006(12) 0.14138(12)
C6_3 C 0.88302(15) 0.7435(2) 0.11698(15)
O5_5 O 0.9079(3) 0.9079(3) 0.000000
O6_3 O 0.9066(4) 0.6994(3) 0.1994(3)
O7_3 O 0.9062(4) 0.6504(4) 0.1504(4)
O8_3 O 0.96902(7) 0.84875(7) 0.10792(7)
O9_3 O 0.96907(7) 0.81296(7) 0.14352(7)
C7_3 C 0.95959(10) 0.82472(10) 0.12011(10)
C8_3 C 0.93335(10) 0.80991(10) 0.10496(10)
N3_3 N 0.85432(13) 0.70745(12) 0.12511(11)
C9_3 C 0.92147(11) 0.78401(12) 0.11687(11)
H3_3 H 0.930285 0.775302 0.133693
N4_3 N 0.85862(12) 0.73006(12) 0.10636(11)
Cu7_6 Cu 1.000000 0.83132(2) 0.16868(2)
Cu8_6 Cu 1.000000 0.87354(2) 0.12646(2)
O21_6 O 1.000000 0.79740(9) 0.20260(9)
O22_6 O 1.000000 0.9079(3) 0.0921(3)
Cu10_3 Cu 0.82325(3) 0.87639(3) 0.32325(3)
O27_3 O 0.96902(7) 0.89208(7) 0.15125(7)
O28_3 O 0.96907(7) 0.85648(7) 0.18704(7)
C28_3 C 0.95959(10) 0.87989(10) 0.17528(10)
C29_3 C 0.92007(11) 0.92007(11) 0.17682(15)
H10_3 H 0.927898 0.927900 0.159103
C30_3 C 0.93335(10) 0.89504(10) 0.19009(10)
C31_3 C 0.89620(13) 0.89620(13) 0.22931(17)
N13_3 N 0.85432(13) 0.87489(11) 0.29255(12)
C32_3 C 0.92147(11) 0.88313(11) 0.21599(12)
H11_3 H 0.930285 0.866307 0.224698
N14_3 N 0.85862(12) 0.89364(11) 0.26994(12)
C33_3 C 0.88302(15) 0.88302(15) 0.2565(2)
O29_3 O 0.8006(3) 0.9066(4) 0.3006(3)
O30_3 O 0.8496(4) 0.9062(4) 0.3496(4)
C34_3 C 0.87989(10) 0.95959(10) 0.17528(10)
C35_3 C 0.89504(10) 0.93335(10) 0.19009(10)
N15_3 N 0.87489(11) 0.85432(13) 0.29255(12)
C36_3 C 0.88313(11) 0.92147(11) 0.21599(12)
H12_3 H 0.866307 0.930285 0.224698
N16_3 N 0.89364(11) 0.85862(12) 0.26994(12)
Cu20_3 Cu 0.87639(3) 0.82325(3) 0.32325(3)
Cu21_3 Cu 0.82325(3) 0.62361(3) 0.17675(3)
Cu24_3 Cu 0.82325(3) 0.67675(3) 0.12361(3)
O54_3 O 0.83393(18) 0.83393(18) 0.33393(18)
N25_3 N 0.87489(11) 0.64568(13) 0.20745(12)
N26_3 N 0.79255(12) 0.87489(11) 0.35432(13)
O4_6 O 0.79740(9) 0.79740(9) 1.000000
O5_6 O 0.9079(3) 0.9079(3) 1.000000
Cu4_6 Cu 1.000000 0.83132(2) 0.83132(2)
Cu5_6 Cu 1.000000 0.87354(2) 0.87354(2)
Cu6_3 Cu 0.82325(3) 0.67675(3) 0.87639(3)
O10_3 O 0.96902(7) 0.84875(7) 0.89208(7)
O11_3 O 0.96907(7) 0.81296(7) 0.85648(7)
C10_3 C 0.95959(10) 0.82472(10) 0.87989(10)
C11_3 C 0.92007(11) 0.82318(15) 0.92007(11)
H4_3 H 0.927898 0.840897 0.927900
O12_3 O 0.83393(18) 0.66607(18) 0.83393(18)
C12_3 C 0.93335(10) 0.80991(10) 0.89504(10)
O13_6 O 1.000000 0.79740(9) 0.79740(9)
C13_3 C 0.89620(13) 0.77069(17) 0.89620(13)
N5_3 N 0.85432(13) 0.70745(12) 0.87489(11)
C14_3 C 0.92147(11) 0.78401(12) 0.88313(11)
H5_3 H 0.930285 0.775302 0.866307
N6_3 N 0.85862(12) 0.73006(12) 0.89364(11)
C15_3 C 0.88302(15) 0.7435(2) 0.88302(15)
O14_6 O 1.000000 0.9079(3) 0.9079(3)
O15_3 O 0.8006(3) 0.6994(3) 0.9066(4)
O16_3 O 0.8496(4) 0.6504(4) 0.9062(4)
O17_3 O 0.89208(7) 0.84875(7) 0.96902(7)
O18_3 O 0.85648(7) 0.81296(7) 0.96907(7)
C16_3 C 0.87989(10) 0.82472(10) 0.95959(10)
C17_3 C 0.89504(10) 0.80991(10) 0.93335(10)
N7_3 N 0.87489(11) 0.70745(12) 0.85432(13)
C18_3 C 0.88313(11) 0.78401(12) 0.92147(11)
H6_3 H 0.866307 0.775302 0.930285
N8_3 N 0.89364(11) 0.73006(12) 0.85862(12)
Cu12_3 Cu 0.67675(3) 0.87639(3) 0.82325(3)
O39_3 O 0.84875(7) 0.89208(7) 0.96902(7)
O40_3 O 0.81296(7) 0.85648(7) 0.96907(7)
C46_3 C 0.82472(10) 0.87989(10) 0.95959(10)
C47_3 C 0.82318(15) 0.92007(11) 0.92007(11)
H16_3 H 0.840897 0.927900 0.927898
C48_3 C 0.80991(10) 0.89504(10) 0.93335(10)
C49_3 C 0.77069(17) 0.89620(13) 0.89620(13)
N21_3 N 0.70745(12) 0.87489(11) 0.85432(13)
C50_3 C 0.78401(12) 0.88313(11) 0.92147(11)
H17_3 H 0.775302 0.866307 0.930285
N22_3 N 0.73006(12) 0.89364(11) 0.85862(12)
C51_3 C 0.7435(2) 0.88302(15) 0.88302(15)
O41_3 O 0.6994(3) 0.9066(4) 0.8006(3)
O42_3 O 0.6504(4) 0.9062(4) 0.8496(4)
C52_3 C 0.82472(10) 0.95959(10) 0.87989(10)
C53_3 C 0.80991(10) 0.93335(10) 0.89504(10)
N23_3 N 0.70745(12) 0.85432(13) 0.87489(11)
C54_3 C 0.78401(12) 0.92147(11) 0.88313(11)
H18_3 H 0.775302 0.930285 0.866307
N24_3 N 0.73006(12) 0.85862(12) 0.89364(11)
Cu19_3 Cu 0.87639(3) 0.67675(3) 0.82325(3)
Cu25_3 Cu 0.82325(3) 0.62361(3) 0.82325(3)
Cu26_3 Cu 0.67675(3) 0.82325(3) 0.87639(3)
O47_3 O 0.96902(7) 0.89208(7) 0.84875(7)
O51_3 O 0.96907(7) 0.85648(7) 0.81296(7)
O56_3 O 0.66607(18) 0.83393(18) 0.83393(18)
N27_3 N 0.64568(13) 0.87489(11) 0.79255(12)
N29_3 N 0.79255(12) 0.64568(13) 0.87489(11)
O21_7 O 0.20260(9) 0.000000 0.20260(9)
O22_7 O 0.0921(3) 0.000000 0.0921(3)
O13_7 O 0.20260(9) 0.000000 0.79740(9)
O14_7 O 0.0921(3) 0.000000 0.9079(3)
O45_4 O 0.10792(7) 0.03098(7) 0.84875(7)
O49_4 O 0.14352(7) 0.03093(7) 0.81296(7)
Cu3_4 Cu 0.32325(3) 0.87639(3) 0.17675(3)
O1_4 O 0.15125(7) 0.89208(7) 0.03098(7)
O2_4 O 0.18704(7) 0.85648(7) 0.03093(7)
C1_4 C 0.17528(10) 0.87989(10) 0.04041(10)
C2_4 C 0.17682(15) 0.92007(11) 0.07993(11)
H1_4 H 0.159103 0.927900 0.072102
O3_4 O 0.33393(18) 0.83393(18) 0.16607(18)
C3_4 C 0.19009(10) 0.89504(10) 0.06665(10)
O4_7 O 0.20260(9) 0.79740(9) 0.000000
C4_4 C 0.22931(17) 0.89620(13) 0.10380(13)
N1_4 N 0.29255(12) 0.87489(11) 0.14568(13)
C5_4 C 0.21599(12) 0.88313(11) 0.07853(11)
H2_4 H 0.224698 0.866307 0.069715
N2_4 N 0.26994(12) 0.89364(11) 0.14138(12)
C6_4 C 0.2565(2) 0.88302(15) 0.11698(15)
O5_7 O 0.0921(3) 0.9079(3) 0.000000
O6_4 O 0.3006(3) 0.9066(4) 0.1994(3)
O7_4 O 0.3496(4) 0.9062(4) 0.1504(4)
O8_4 O 0.15125(7) 0.96902(7) 0.10792(7)
O9_4 O 0.18704(7) 0.96907(7) 0.14352(7)
C7_4 C 0.17528(10) 0.95959(10) 0.12011(10)
C8_4 C 0.19009(10) 0.93335(10) 0.10496(10)
N3_4 N 0.29255(12) 0.85432(13) 0.12511(11)
C9_4 C 0.21599(12) 0.92147(11) 0.11687(11)
H3_4 H 0.224698 0.930285 0.133693
N4_4 N 0.26994(12) 0.85862(12) 0.10636(11)
O21_8 O 0.20260(9) 1.000000 0.20260(9)
O22_8 O 0.0921(3) 1.000000 0.0921(3)
Cu10_4 Cu 0.12361(3) 0.82325(3) 0.32325(3)
O27_4 O 0.10792(7) 0.96902(7) 0.15125(7)
O28_4 O 0.14352(7) 0.96907(7) 0.18704(7)
C28_4 C 0.12011(10) 0.95959(10) 0.17528(10)
C29_4 C 0.07993(11) 0.92007(11) 0.17682(15)
H10_4 H 0.072100 0.927898 0.159103
C30_4 C 0.10496(10) 0.93335(10) 0.19009(10)
C31_4 C 0.10380(13) 0.89620(13) 0.22931(17)
N13_4 N 0.12511(11) 0.85432(13) 0.29255(12)
C32_4 C 0.11687(11) 0.92147(11) 0.21599(12)
H11_4 H 0.133693 0.930285 0.224698
N14_4 N 0.10636(11) 0.85862(12) 0.26994(12)
C33_4 C 0.11698(15) 0.88302(15) 0.2565(2)
O29_4 O 0.0934(4) 0.8006(3) 0.3006(3)
O30_4 O 0.0938(4) 0.8496(4) 0.3496(4)
C34_4 C 0.04041(10) 0.87989(10) 0.17528(10)
C35_4 C 0.06665(10) 0.89504(10) 0.19009(10)
N15_4 N 0.14568(13) 0.87489(11) 0.29255(12)
C36_4 C 0.07853(11) 0.88313(11) 0.21599(12)
H12_4 H 0.069715 0.866307 0.224698
N16_4 N 0.14138(12) 0.89364(11) 0.26994(12)
Cu20_4 Cu 0.17675(3) 0.87639(3) 0.32325(3)
Cu21_4 Cu 0.37639(3) 0.82325(3) 0.17675(3)
Cu24_4 Cu 0.32325(3) 0.82325(3) 0.12361(3)
O54_4 O 0.16607(18) 0.83393(18) 0.33393(18)
N25_4 N 0.35432(13) 0.87489(11) 0.20745(12)
N26_4 N 0.12511(11) 0.79255(12) 0.35432(13)
O4_8 O 0.20260(9) 0.79740(9) 1.000000
O5_8 O 0.0921(3) 0.9079(3) 1.000000
Cu6_4 Cu 0.32325(3) 0.82325(3) 0.87639(3)
O10_4 O 0.15125(7) 0.96902(7) 0.89208(7)
O11_4 O 0.18704(7) 0.96907(7) 0.85648(7)
C10_4 C 0.17528(10) 0.95959(10) 0.87989(10)
C11_4 C 0.17682(15) 0.92007(11) 0.92007(11)
H4_4 H 0.159103 0.927898 0.927900
O12_4 O 0.33393(18) 0.83393(18) 0.83393(18)
C12_4 C 0.19009(10) 0.93335(10) 0.89504(10)
O13_8 O 0.20260(9) 1.000000 0.79740(9)
C13_4 C 0.22931(17) 0.89620(13) 0.89620(13)
N5_4 N 0.29255(12) 0.85432(13) 0.87489(11)
C14_4 C 0.21599(12) 0.92147(11) 0.88313(11)
H5_4 H 0.224698 0.930285 0.866307
N6_4 N 0.26994(12) 0.85862(12) 0.89364(11)
C15_4 C 0.2565(2) 0.88302(15) 0.88302(15)
O14_8 O 0.0921(3) 1.000000 0.9079(3)
O15_4 O 0.3006(3) 0.8006(3) 0.9066(4)
O16_4 O 0.3496(4) 0.8496(4) 0.9062(4)
O17_4 O 0.15125(7) 0.89208(7) 0.96902(7)
O18_4 O 0.18704(7) 0.85648(7) 0.96907(7)
C16_4 C 0.17528(10) 0.87989(10) 0.95959(10)
C17_4 C 0.19009(10) 0.89504(10) 0.93335(10)
N7_4 N 0.29255(12) 0.87489(11) 0.85432(13)
C18_4 C 0.21599(12) 0.88313(11) 0.92147(11)
H6_4 H 0.224698 0.866307 0.930285
N8_4 N 0.26994(12) 0.89364(11) 0.85862(12)
Cu12_4 Cu 0.12361(3) 0.67675(3) 0.82325(3)
O39_4 O 0.10792(7) 0.84875(7) 0.96902(7)
O40_4 O 0.14352(7) 0.81296(7) 0.96907(7)
C46_4 C 0.12011(10) 0.82472(10) 0.95959(10)
C47_4 C 0.07993(11) 0.82318(15) 0.92007(11)
H16_4 H 0.072100 0.840897 0.927898
C48_4 C 0.10496(10) 0.80991(10) 0.93335(10)
C49_4 C 0.10380(13) 0.77069(17) 0.89620(13)
N21_4 N 0.12511(11) 0.70745(12) 0.85432(13)
C50_4 C 0.11687(11) 0.78401(12) 0.92147(11)
H17_4 H 0.133693 0.775302 0.930285
N22_4 N 0.10636(11) 0.73006(12) 0.85862(12)
C51_4 C 0.11698(15) 0.7435(2) 0.88302(15)
O41_4 O 0.0934(4) 0.6994(3) 0.8006(3)
O42_4 O 0.0938(4) 0.6504(4) 0.8496(4)
C52_4 C 0.04041(10) 0.82472(10) 0.87989(10)
C53_4 C 0.06665(10) 0.80991(10) 0.89504(10)
N23_4 N 0.14568(13) 0.70745(12) 0.87489(11)
C54_4 C 0.07853(11) 0.78401(12) 0.88313(11)
H18_4 H 0.069715 0.775302 0.866307
N24_4 N 0.14138(12) 0.73006(12) 0.89364(11)
Cu19_4 Cu 0.32325(3) 0.87639(3) 0.82325(3)
Cu25_4 Cu 0.37639(3) 0.82325(3) 0.82325(3)
Cu26_4 Cu 0.17675(3) 0.67675(3) 0.87639(3)
O47_4 O 0.10792(7) 0.96902(7) 0.84875(7)
O51_4 O 0.14352(7) 0.96907(7) 0.81296(7)
O56_4 O 0.16607(18) 0.66607(18) 0.83393(18)
N27_4 N 0.12511(11) 0.64568(13) 0.79255(12)
N29_4 N 0.35432(13) 0.79255(12) 0.87489(11)
Cu25_5 Cu 0.17675(3) 0.17675(3) 0.37639(3)
Cu21_5 Cu 0.17675(3) 0.82325(3) 0.37639(3)
Cu25_6 Cu 0.17675(3) 0.62361(3) 0.17675(3)
Cu10_5 Cu 0.17675(3) 0.87639(3) 0.67675(3)
C28_5 C 0.04041(10) 0.87989(10) 0.82472(10)
C29_5 C 0.07993(11) 0.92007(11) 0.82318(15)
H10_5 H 0.072102 0.927900 0.840897
C30_5 C 0.06665(10) 0.89504(10) 0.80991(10)
C31_5 C 0.10380(13) 0.89620(13) 0.77069(17)
N13_5 N 0.14568(13) 0.87489(11) 0.70745(12)
C32_5 C 0.07853(11) 0.88313(11) 0.78401(12)
H11_5 H 0.069715 0.866307 0.775302
N14_5 N 0.14138(12) 0.89364(11) 0.73006(12)
C33_5 C 0.11698(15) 0.88302(15) 0.7435(2)
O29_5 O 0.1994(3) 0.9066(4) 0.6994(3)
O30_5 O 0.1504(4) 0.9062(4) 0.6504(4)
C34_5 C 0.12011(10) 0.95959(10) 0.82472(10)
C35_5 C 0.10496(10) 0.93335(10) 0.80991(10)
N15_5 N 0.12511(11) 0.85432(13) 0.70745(12)
C36_5 C 0.11687(11) 0.92147(11) 0.78401(12)
H12_5 H 0.133693 0.930285 0.775302
N16_5 N 0.10636(11) 0.85862(12) 0.73006(12)
Cu20_5 Cu 0.12361(3) 0.82325(3) 0.67675(3)
Cu21_6 Cu 0.17675(3) 0.62361(3) 0.82325(3)
O54_5 O 0.16607(18) 0.83393(18) 0.66607(18)
N26_5 N 0.20745(12) 0.87489(11) 0.64568(13)
Cu3_5 Cu 0.12361(3) 0.17675(3) 0.67675(3)
C1_5 C 0.12011(10) 0.04041(10) 0.82472(10)
C2_5 C 0.07993(11) 0.07993(11) 0.82318(15)
H1_5 H 0.072100 0.072102 0.840897
O3_5 O 0.16607(18) 0.16607(18) 0.66607(18)
C3_5 C 0.10496(10) 0.06665(10) 0.80991(10)
C4_5 C 0.10380(13) 0.10380(13) 0.77069(17)
N1_5 N 0.12511(11) 0.14568(13) 0.70745(12)
C5_5 C 0.11687(11) 0.07853(11) 0.78401(12)
H2_5 H 0.133693 0.069715 0.775302
N2_5 N 0.10636(11) 0.14138(12) 0.73006(12)
C6_5 C 0.11698(15) 0.11698(15) 0.7435(2)
O6_5 O 0.0934(4) 0.1994(3) 0.6994(3)
O7_5 O 0.0938(4) 0.1504(4) 0.6504(4)
C7_5 C 0.04041(10) 0.12011(10) 0.82472(10)
C8_5 C 0.06665(10) 0.10496(10) 0.80991(10)
N3_5 N 0.14568(13) 0.12511(11) 0.70745(12)
C9_5 C 0.07853(11) 0.11687(11) 0.78401(12)
H3_5 H 0.069715 0.133693 0.775302
N4_5 N 0.14138(12) 0.10636(11) 0.73006(12)
Cu21_7 Cu 0.17675(3) 0.17675(3) 0.62361(3)
Cu24_5 Cu 0.17675(3) 0.12361(3) 0.67675(3)
N25_5 N 0.12511(11) 0.20745(12) 0.64568(13)
Cu25_7 Cu 0.17675(3) 0.82325(3) 0.62361(3)
Cu9_4 Cu 0.82325(3) 0.12361(3) 0.67675(3)
C19_4 C 0.95959(10) 0.12011(10) 0.82472(10)
C20_4 C 0.92007(11) 0.07993(11) 0.82318(15)
H7_4 H 0.927898 0.072100 0.840897
C21_4 C 0.93335(10) 0.10496(10) 0.80991(10)
C22_4 C 0.89620(13) 0.10380(13) 0.77069(17)
N9_4 N 0.85432(13) 0.12511(11) 0.70745(12)
C23_4 C 0.92147(11) 0.11687(11) 0.78401(12)
H8_4 H 0.930285 0.133693 0.775302
N10_4 N 0.85862(12) 0.10636(11) 0.73006(12)
C24_4 C 0.88302(15) 0.11698(15) 0.7435(2)
O23_4 O 0.8006(3) 0.0934(4) 0.6994(3)
O24_4 O 0.8496(4) 0.0938(4) 0.6504(4)
C25_4 C 0.87989(10) 0.04041(10) 0.82472(10)
C26_4 C 0.89504(10) 0.06665(10) 0.80991(10)
N11_4 N 0.87489(11) 0.14568(13) 0.70745(12)
C27_4 C 0.88313(11) 0.07853(11) 0.78401(12)
H9_4 H 0.866307 0.069715 0.775302
N12_4 N 0.89364(11) 0.14138(12) 0.73006(12)
Cu22_4 Cu 0.87639(3) 0.17675(3) 0.67675(3)
O53_4 O 0.83393(18) 0.16607(18) 0.66607(18)
N30_4 N 0.79255(12) 0.12511(11) 0.64568(13)
Cu25_8 Cu 0.82325(3) 0.37639(3) 0.82325(3)
Cu25_9 Cu 0.82325(3) 0.37639(3) 0.17675(3)
Cu25_10 Cu 0.82325(3) 0.17675(3) 0.37639(3)
Cu21_8 Cu 0.37639(3) 0.17675(3) 0.17675(3)
Cu21_9 Cu 0.62361(3) 0.82325(3) 0.17675(3)
Cu6_5 Cu 0.87639(3) 0.82325(3) 0.67675(3)
C10_5 C 0.87989(10) 0.95959(10) 0.82472(10)
C11_5 C 0.92007(11) 0.92007(11) 0.82318(15)
H4_5 H 0.927900 0.927898 0.840897
O12_5 O 0.83393(18) 0.83393(18) 0.66607(18)
C12_5 C 0.89504(10) 0.93335(10) 0.80991(10)
C13_5 C 0.89620(13) 0.89620(13) 0.77069(17)
N5_5 N 0.87489(11) 0.85432(13) 0.70745(12)
C14_5 C 0.88313(11) 0.92147(11) 0.78401(12)
H5_5 H 0.866307 0.930285 0.775302
N6_5 N 0.89364(11) 0.85862(12) 0.73006(12)
C15_5 C 0.88302(15) 0.88302(15) 0.7435(2)
O15_5 O 0.9066(4) 0.8006(3) 0.6994(3)
O16_5 O 0.9062(4) 0.8496(4) 0.6504(4)
C16_5 C 0.95959(10) 0.87989(10) 0.82472(10)
C17_5 C 0.93335(10) 0.89504(10) 0.80991(10)
N7_5 N 0.85432(13) 0.87489(11) 0.70745(12)
C18_5 C 0.92147(11) 0.88313(11) 0.78401(12)
H6_5 H 0.930285 0.866307 0.775302
N8_5 N 0.85862(12) 0.89364(11) 0.73006(12)
Cu19_5 Cu 0.82325(3) 0.87639(3) 0.67675(3)
Cu25_11 Cu 0.82325(3) 0.82325(3) 0.62361(3)
N29_5 N 0.87489(11) 0.79255(12) 0.64568(13)
Cu25_12 Cu 0.62361(3) 0.82325(3) 0.82325(3)
Cu21_10 Cu 0.82325(3) 0.82325(3) 0.37639(3)
Cu21_11 Cu 0.82325(3) 0.17675(3) 0.62361(3)
Cu25_13 Cu 0.37639(3) 0.17675(3) 0.82325(3)
Cu1_3 Cu 0.16868(2) 0.66868(2) 0.500000
Cu2_3 Cu 0.12646(2) 0.62646(2) 0.500000
O1_5 O 0.10792(7) 0.65125(7) 0.53098(7)
O2_5 O 0.14352(7) 0.68704(7) 0.53093(7)
C1_6 C 0.12011(10) 0.67528(10) 0.54041(10)
C2_6 C 0.07993(11) 0.67682(15) 0.57993(11)
H1_6 H 0.072100 0.659103 0.572102
C3_6 C 0.10496(10) 0.69009(10) 0.56665(10)
O4_9 O 0.20260(9) 0.70260(9) 0.500000
C4_6 C 0.10380(13) 0.72931(17) 0.60380(13)
N1_6 N 0.12511(11) 0.79255(12) 0.64568(13)
C5_6 C 0.11687(11) 0.71599(12) 0.57853(11)
H2_6 H 0.133693 0.724698 0.569715
N2_6 N 0.10636(11) 0.76994(12) 0.64138(12)
C6_6 C 0.11698(15) 0.7565(2) 0.61698(15)
O5_9 O 0.0921(3) 0.5921(3) 0.500000
O6_6 O 0.0934(4) 0.8006(3) 0.6994(3)
O7_6 O 0.0938(4) 0.8496(4) 0.6504(4)
O8_5 O 0.03098(7) 0.65125(7) 0.60792(7)
O9_5 O 0.03093(7) 0.68704(7) 0.64352(7)
C7_6 C 0.04041(10) 0.67528(10) 0.62011(10)
C8_6 C 0.06665(10) 0.69009(10) 0.60496(10)
N3_6 N 0.14568(13) 0.79255(12) 0.62511(11)
C9_6 C 0.07853(11) 0.71599(12) 0.61687(11)
H3_6 H 0.069715 0.724698 0.633693
N4_6 N 0.14138(12) 0.76994(12) 0.60636(11)
Cu4_7 Cu 0.000000 0.66868(2) 0.33132(2)
Cu5_7 Cu 0.000000 0.62646(2) 0.37354(2)
O10_5 O 0.03098(7) 0.65125(7) 0.39208(7)
O11_5 O 0.03093(7) 0.68704(7) 0.35648(7)
C10_6 C 0.04041(10) 0.67528(10) 0.37989(10)
C11_6 C 0.07993(11) 0.67682(15) 0.42007(11)
H4_6 H 0.072102 0.659103 0.427900
C12_6 C 0.06665(10) 0.69009(10) 0.39504(10)
O13_9 O 0.000000 0.70260(9) 0.29740(9)
C13_6 C 0.10380(13) 0.72931(17) 0.39620(13)
N5_6 N 0.14568(13) 0.79255(12) 0.37489(11)
C14_6 C 0.07853(11) 0.71599(12) 0.38313(11)
H5_6 H 0.069715 0.724698 0.366307
N6_6 N 0.14138(12) 0.76994(12) 0.39364(11)
C15_6 C 0.11698(15) 0.7565(2) 0.38302(15)
O14_9 O 0.000000 0.5921(3) 0.4079(3)
O15_6 O 0.1994(3) 0.8006(3) 0.4066(4)
O16_6 O 0.1504(4) 0.8496(4) 0.4062(4)
O17_5 O 0.10792(7) 0.65125(7) 0.46902(7)
O18_5 O 0.14352(7) 0.68704(7) 0.46907(7)
C16_6 C 0.12011(10) 0.67528(10) 0.45959(10)
C17_6 C 0.10496(10) 0.69009(10) 0.43335(10)
C18_6 C 0.11687(11) 0.71599(12) 0.42147(11)
H6_6 H 0.133693 0.724698 0.430285
N8_6 N 0.10636(11) 0.76994(12) 0.35862(12)
Cu7_7 Cu 0.000000 0.66868(2) 0.66868(2)
Cu8_7 Cu 0.000000 0.62646(2) 0.62646(2)
O21_9 O 0.000000 0.70260(9) 0.70260(9)
O22_9 O 0.000000 0.5921(3) 0.5921(3)
O27_5 O 0.03098(7) 0.60792(7) 0.65125(7)
O28_5 O 0.03093(7) 0.64352(7) 0.68704(7)
C28_6 C 0.04041(10) 0.62011(10) 0.67528(10)
C29_6 C 0.07993(11) 0.57993(11) 0.67682(15)
H10_6 H 0.072102 0.572100 0.659103
C30_6 C 0.06665(10) 0.60496(10) 0.69009(10)
C31_6 C 0.10380(13) 0.60380(13) 0.72931(17)
N13_6 N 0.14568(13) 0.62511(11) 0.79255(12)
C32_6 C 0.07853(11) 0.61687(11) 0.71599(12)
H11_6 H 0.069715 0.633693 0.724698
N14_6 N 0.14138(12) 0.60636(11) 0.76994(12)
C33_6 C 0.11698(15) 0.61698(15) 0.7565(2)
O29_6 O 0.1994(3) 0.5934(4) 0.8006(3)
O30_6 O 0.1504(4) 0.5938(4) 0.8496(4)
O31_2 O 0.10792(7) 0.53098(7) 0.65125(7)
O32_2 O 0.14352(7) 0.53093(7) 0.68704(7)
C34_6 C 0.12011(10) 0.54041(10) 0.67528(10)
C35_6 C 0.10496(10) 0.56665(10) 0.69009(10)
C36_6 C 0.11687(11) 0.57853(11) 0.71599(12)
H12_6 H 0.133693 0.569715 0.724698
N16_6 N 0.10636(11) 0.64138(12) 0.76994(12)
Cu11_2 Cu 0.32325(3) 0.67675(3) 0.62361(3)
O33_2 O 0.15125(7) 0.53098(7) 0.60792(7)
O34_2 O 0.18704(7) 0.53093(7) 0.64352(7)
C37_2 C 0.17528(10) 0.54041(10) 0.62011(10)
C38_2 C 0.17682(15) 0.57993(11) 0.57993(11)
H13_2 H 0.159103 0.572102 0.572100
C39_2 C 0.19009(10) 0.56665(10) 0.60496(10)
C40_2 C 0.22931(17) 0.60380(13) 0.60380(13)
N17_2 N 0.29255(12) 0.64568(13) 0.62511(11)
C41_2 C 0.21599(12) 0.57853(11) 0.61687(11)
H14_2 H 0.224698 0.569715 0.633693
N18_2 N 0.26994(12) 0.64138(12) 0.60636(11)
C42_2 C 0.2565(2) 0.61698(15) 0.61698(15)
O35_2 O 0.3006(3) 0.6994(3) 0.5934(4)
O36_2 O 0.3496(4) 0.6504(4) 0.5938(4)
O37_2 O 0.15125(7) 0.60792(7) 0.53098(7)
O38_2 O 0.18704(7) 0.64352(7) 0.53093(7)
C43_2 C 0.17528(10) 0.62011(10) 0.54041(10)
C44_2 C 0.19009(10) 0.60496(10) 0.56665(10)
N19_2 N 0.29255(12) 0.62511(11) 0.64568(13)
C45_2 C 0.21599(12) 0.61687(11) 0.57853(11)
H15_2 H 0.224698 0.633693 0.569715
N20_2 N 0.26994(12) 0.60636(11) 0.64138(12)
Cu12_5 Cu 0.32325(3) 0.62361(3) 0.32325(3)
O39_5 O 0.15125(7) 0.60792(7) 0.46902(7)
O40_5 O 0.18704(7) 0.64352(7) 0.46907(7)
C46_5 C 0.17528(10) 0.62011(10) 0.45959(10)
C47_5 C 0.17682(15) 0.57993(11) 0.42007(11)
H16_5 H 0.159103 0.572100 0.427898
C48_5 C 0.19009(10) 0.60496(10) 0.43335(10)
C49_5 C 0.22931(17) 0.60380(13) 0.39620(13)
N21_5 N 0.29255(12) 0.62511(11) 0.35432(13)
C50_5 C 0.21599(12) 0.61687(11) 0.42147(11)
H17_5 H 0.224698 0.633693 0.430285
N22_5 N 0.26994(12) 0.60636(11) 0.35862(12)
C51_5 C 0.2565(2) 0.61698(15) 0.38302(15)
O41_5 O 0.3006(3) 0.5934(4) 0.3006(3)
O42_5 O 0.3496(4) 0.5938(4) 0.3496(4)
O43_2 O 0.15125(7) 0.53098(7) 0.39208(7)
O44_2 O 0.18704(7) 0.53093(7) 0.35648(7)
C52_5 C 0.17528(10) 0.54041(10) 0.37989(10)
C53_5 C 0.19009(10) 0.56665(10) 0.39504(10)
N23_5 N 0.29255(12) 0.64568(13) 0.37489(11)
C54_5 C 0.21599(12) 0.57853(11) 0.38313(11)
H18_5 H 0.224698 0.569715 0.366307
N24_5 N 0.26994(12) 0.64138(12) 0.39364(11)
Cu14_3 Cu 0.16868(2) 0.500000 0.66868(2)
Cu15_3 Cu 0.16868(2) 0.500000 0.33132(2)
Cu17_3 Cu 0.12646(2) 0.500000 0.62646(2)
Cu18_3 Cu 0.12646(2) 0.500000 0.37354(2)
Cu23_2 Cu 0.32325(3) 0.62361(3) 0.67675(3)
Cu26_5 Cu 0.32325(3) 0.67675(3) 0.37639(3)
O47_5 O 0.03098(7) 0.60792(7) 0.34875(7)
O51_5 O 0.03093(7) 0.64352(7) 0.31296(7)
O55_2 O 0.33393(18) 0.66607(18) 0.66607(18)
O56_5 O 0.33393(18) 0.66607(18) 0.33393(18)
N26_6 N 0.20745(12) 0.62511(11) 0.85432(13)
N27_5 N 0.35432(13) 0.62511(11) 0.29255(12)
N28_2 N 0.35432(13) 0.70745(12) 0.62511(11)
N29_6 N 0.20745(12) 0.85432(13) 0.37489(11)
Cu4_8 Cu 1.000000 0.66868(2) 0.33132(2)
Cu5_8 Cu 1.000000 0.62646(2) 0.37354(2)
O13_10 O 1.000000 0.70260(9) 0.29740(9)
O14_10 O 1.000000 0.5921(3) 0.4079(3)
Cu7_8 Cu 1.000000 0.66868(2) 0.66868(2)
Cu8_8 Cu 1.000000 0.62646(2) 0.62646(2)
O19_4 O 0.96902(7) 0.65125(7) 0.60792(7)
O20_4 O 0.96907(7) 0.68704(7) 0.64352(7)
C19_5 C 0.95959(10) 0.67528(10) 0.62011(10)
C20_5 C 0.92007(11) 0.67682(15) 0.57993(11)
H7_5 H 0.927898 0.659103 0.572100
C21_5 C 0.93335(10) 0.69009(10) 0.60496(10)
O21_10 O 1.000000 0.70260(9) 0.70260(9)
C22_5 C 0.89620(13) 0.72931(17) 0.60380(13)
N9_5 N 0.85432(13) 0.79255(12) 0.62511(11)
C23_5 C 0.92147(11) 0.71599(12) 0.61687(11)
H8_5 H 0.930285 0.724698 0.633693
N10_5 N 0.85862(12) 0.76994(12) 0.60636(11)
C24_5 C 0.88302(15) 0.7565(2) 0.61698(15)
O22_10 O 1.000000 0.5921(3) 0.5921(3)
O23_5 O 0.8006(3) 0.8006(3) 0.5934(4)
O24_5 O 0.8496(4) 0.8496(4) 0.5938(4)
O25_4 O 0.89208(7) 0.65125(7) 0.53098(7)
O26_4 O 0.85648(7) 0.68704(7) 0.53093(7)
C25_5 C 0.87989(10) 0.67528(10) 0.54041(10)
C26_5 C 0.89504(10) 0.69009(10) 0.56665(10)
C27_5 C 0.88313(11) 0.71599(12) 0.57853(11)
H9_5 H 0.866307 0.724698 0.569715
N12_5 N 0.89364(11) 0.76994(12) 0.64138(12)
Cu13_7 Cu 0.83132(2) 0.66868(2) 0.500000
Cu16_7 Cu 0.87354(2) 0.62646(2) 0.500000
O45_5 O 0.96902(7) 0.60792(7) 0.34875(7)
O46_4 O 0.96902(7) 0.60792(7) 0.65125(7)
O48_4 O 0.96902(7) 0.65125(7) 0.39208(7)
O49_5 O 0.96907(7) 0.64352(7) 0.31296(7)
O50_4 O 0.96907(7) 0.64352(7) 0.68704(7)
O52_4 O 0.96907(7) 0.68704(7) 0.35648(7)
N30_5 N 0.79255(12) 0.85432(13) 0.62511(11)
Cu3_6 Cu 0.67675(3) 0.62361(3) 0.67675(3)
O1_6 O 0.84875(7) 0.60792(7) 0.53098(7)
O2_6 O 0.81296(7) 0.64352(7) 0.53093(7)
C1_7 C 0.82472(10) 0.62011(10) 0.54041(10)
C2_7 C 0.82318(15) 0.57993(11) 0.57993(11)
H1_7 H 0.840897 0.572100 0.572102
O3_6 O 0.66607(18) 0.66607(18) 0.66607(18)
C3_7 C 0.80991(10) 0.60496(10) 0.56665(10)
O4_10 O 0.79740(9) 0.70260(9) 0.500000
C4_7 C 0.77069(17) 0.60380(13) 0.60380(13)
N1_7 N 0.70745(12) 0.62511(11) 0.64568(13)
C5_7 C 0.78401(12) 0.61687(11) 0.57853(11)
H2_7 H 0.775302 0.633693 0.569715
N2_7 N 0.73006(12) 0.60636(11) 0.64138(12)
C6_7 C 0.7435(2) 0.61698(15) 0.61698(15)
O5_10 O 0.9079(3) 0.5921(3) 0.500000
O6_7 O 0.6994(3) 0.5934(4) 0.6994(3)
O7_7 O 0.6504(4) 0.5938(4) 0.6504(4)
O8_6 O 0.84875(7) 0.53098(7) 0.60792(7)
O9_6 O 0.81296(7) 0.53093(7) 0.64352(7)
C7_7 C 0.82472(10) 0.54041(10) 0.62011(10)
C8_7 C 0.80991(10) 0.56665(10) 0.60496(10)
N3_7 N 0.70745(12) 0.64568(13) 0.62511(11)
C9_7 C 0.78401(12) 0.57853(11) 0.61687(11)
H3_7 H 0.775302 0.569715 0.633693
N4_7 N 0.73006(12) 0.64138(12) 0.60636(11)
Cu4_9 Cu 0.83132(2) 0.500000 0.33132(2)
Cu5_9 Cu 0.87354(2) 0.500000 0.37354(2)
Cu6_6 Cu 0.67675(3) 0.67675(3) 0.37639(3)
O10_6 O 0.84875(7) 0.53098(7) 0.39208(7)
O11_6 O 0.81296(7) 0.53093(7) 0.35648(7)
C10_7 C 0.82472(10) 0.54041(10) 0.37989(10)
C11_7 C 0.82318(15) 0.57993(11) 0.42007(11)
H4_7 H 0.840897 0.572102 0.427900
O12_6 O 0.66607(18) 0.66607(18) 0.33393(18)
C12_7 C 0.80991(10) 0.56665(10) 0.39504(10)
O13_11 O 0.79740(9) 0.500000 0.29740(9)
C13_7 C 0.77069(17) 0.60380(13) 0.39620(13)
N5_7 N 0.70745(12) 0.64568(13) 0.37489(11)
C14_7 C 0.78401(12) 0.57853(11) 0.38313(11)
H5_7 H 0.775302 0.569715 0.366307
N6_7 N 0.73006(12) 0.64138(12) 0.39364(11)
C15_7 C 0.7435(2) 0.61698(15) 0.38302(15)
O14_11 O 0.9079(3) 0.500000 0.4079(3)
O15_7 O 0.6994(3) 0.6994(3) 0.4066(4)
O16_7 O 0.6504(4) 0.6504(4) 0.4062(4)
O17_6 O 0.84875(7) 0.60792(7) 0.46902(7)
O18_6 O 0.81296(7) 0.64352(7) 0.46907(7)
C16_7 C 0.82472(10) 0.62011(10) 0.45959(10)
C17_7 C 0.80991(10) 0.60496(10) 0.43335(10)
N7_6 N 0.70745(12) 0.62511(11) 0.35432(13)
C18_7 C 0.78401(12) 0.61687(11) 0.42147(11)
H6_7 H 0.775302 0.633693 0.430285
N8_7 N 0.73006(12) 0.60636(11) 0.35862(12)
Cu7_9 Cu 0.83132(2) 0.500000 0.66868(2)
Cu8_9 Cu 0.87354(2) 0.500000 0.62646(2)
Cu9_5 Cu 0.67675(3) 0.32325(3) 0.62361(3)
O19_5 O 0.84875(7) 0.46902(7) 0.60792(7)
O20_5 O 0.81296(7) 0.46907(7) 0.64352(7)
C19_6 C 0.82472(10) 0.45959(10) 0.62011(10)
C20_6 C 0.82318(15) 0.42007(11) 0.57993(11)
H7_6 H 0.840897 0.427898 0.572100
C21_6 C 0.80991(10) 0.43335(10) 0.60496(10)
O21_11 O 0.79740(9) 0.500000 0.70260(9)
C22_6 C 0.77069(17) 0.39620(13) 0.60380(13)
N9_6 N 0.70745(12) 0.35432(13) 0.62511(11)
C23_6 C 0.78401(12) 0.42147(11) 0.61687(11)
H8_6 H 0.775302 0.430285 0.633693
N10_6 N 0.73006(12) 0.35862(12) 0.60636(11)
C24_6 C 0.7435(2) 0.38302(15) 0.61698(15)
O22_11 O 0.9079(3) 0.500000 0.5921(3)
O23_6 O 0.6994(3) 0.3006(3) 0.5934(4)
O24_6 O 0.6504(4) 0.3496(4) 0.5938(4)
O25_5 O 0.84875(7) 0.39208(7) 0.53098(7)
O26_5 O 0.81296(7) 0.35648(7) 0.53093(7)
C25_6 C 0.82472(10) 0.37989(10) 0.54041(10)
C26_6 C 0.80991(10) 0.39504(10) 0.56665(10)
N11_5 N 0.70745(12) 0.37489(11) 0.64568(13)
C27_6 C 0.78401(12) 0.38313(11) 0.57853(11)
H9_6 H 0.775302 0.366307 0.569715
N12_6 N 0.73006(12) 0.39364(11) 0.64138(12)
O27_6 O 0.89208(7) 0.53098(7) 0.65125(7)
O28_6 O 0.85648(7) 0.53093(7) 0.68704(7)
C28_7 C 0.87989(10) 0.54041(10) 0.67528(10)
C29_7 C 0.92007(11) 0.57993(11) 0.67682(15)
H10_7 H 0.927900 0.572102 0.659103
C30_7 C 0.89504(10) 0.56665(10) 0.69009(10)
C31_7 C 0.89620(13) 0.60380(13) 0.72931(17)
N13_7 N 0.87489(11) 0.64568(13) 0.79255(12)
C32_7 C 0.88313(11) 0.57853(11) 0.71599(12)
H11_7 H 0.866307 0.569715 0.724698
N14_7 N 0.89364(11) 0.64138(12) 0.76994(12)
C33_7 C 0.88302(15) 0.61698(15) 0.7565(2)
O29_7 O 0.9066(4) 0.6994(3) 0.8006(3)
O30_7 O 0.9062(4) 0.6504(4) 0.8496(4)
C34_7 C 0.95959(10) 0.62011(10) 0.67528(10)
C35_7 C 0.93335(10) 0.60496(10) 0.69009(10)
N15_6 N 0.85432(13) 0.62511(11) 0.79255(12)
C36_7 C 0.92147(11) 0.61687(11) 0.71599(12)
H12_7 H 0.930285 0.633693 0.724698
N16_7 N 0.85862(12) 0.60636(11) 0.76994(12)
O39_6 O 0.89208(7) 0.65125(7) 0.46902(7)
O40_6 O 0.85648(7) 0.68704(7) 0.46907(7)
C46_6 C 0.87989(10) 0.67528(10) 0.45959(10)
C47_6 C 0.92007(11) 0.67682(15) 0.42007(11)
H16_6 H 0.927900 0.659103 0.427898
C48_6 C 0.89504(10) 0.69009(10) 0.43335(10)
C49_6 C 0.89620(13) 0.72931(17) 0.39620(13)
N21_6 N 0.87489(11) 0.79255(12) 0.35432(13)
C50_6 C 0.88313(11) 0.71599(12) 0.42147(11)
H17_6 H 0.866307 0.724698 0.430285
N22_6 N 0.89364(11) 0.76994(12) 0.35862(12)
C51_6 C 0.88302(15) 0.7565(2) 0.38302(15)
O41_6 O 0.9066(4) 0.8006(3) 0.3006(3)
O42_6 O 0.9062(4) 0.8496(4) 0.3496(4)
C52_6 C 0.95959(10) 0.67528(10) 0.37989(10)
C53_6 C 0.93335(10) 0.69009(10) 0.39504(10)
N23_6 N 0.85432(13) 0.79255(12) 0.37489(11)
C54_6 C 0.92147(11) 0.71599(12) 0.38313(11)
H18_6 H 0.930285 0.724698 0.366307
N24_6 N 0.85862(12) 0.76994(12) 0.39364(11)
Cu13_8 Cu 0.83132(2) 0.33132(2) 0.500000
Cu16_8 Cu 0.87354(2) 0.37354(2) 0.500000
Cu19_6 Cu 0.67675(3) 0.62361(3) 0.32325(3)
Cu21_12 Cu 0.62361(3) 0.67675(3) 0.67675(3)
Cu22_5 Cu 0.67675(3) 0.37639(3) 0.67675(3)
Cu24_6 Cu 0.67675(3) 0.67675(3) 0.62361(3)
Cu25_14 Cu 0.62361(3) 0.67675(3) 0.32325(3)
O45_6 O 0.89208(7) 0.46902(7) 0.34875(7)
O46_5 O 0.89208(7) 0.46902(7) 0.65125(7)
O47_6 O 0.89208(7) 0.53098(7) 0.34875(7)
O48_5 O 0.84875(7) 0.46902(7) 0.39208(7)
O49_6 O 0.85648(7) 0.46907(7) 0.31296(7)
O50_5 O 0.85648(7) 0.46907(7) 0.68704(7)
O51_6 O 0.85648(7) 0.53093(7) 0.31296(7)
O52_5 O 0.81296(7) 0.46907(7) 0.35648(7)
O53_5 O 0.66607(18) 0.33393(18) 0.66607(18)
N25_6 N 0.64568(13) 0.62511(11) 0.70745(12)
N29_7 N 0.64568(13) 0.70745(12) 0.37489(11)
N30_6 N 0.64568(13) 0.29255(12) 0.62511(11)
Cu4_10 Cu 0.000000 0.33132(2) 0.33132(2)
Cu5_10 Cu 0.000000 0.37354(2) 0.37354(2)
O13_12 O 0.000000 0.29740(9) 0.29740(9)
O14_12 O 0.000000 0.4079(3) 0.4079(3)
Cu7_10 Cu 0.000000 0.33132(2) 0.66868(2)
Cu8_10 Cu 0.000000 0.37354(2) 0.62646(2)
O19_6 O 0.03098(7) 0.34875(7) 0.60792(7)
O20_6 O 0.03093(7) 0.31296(7) 0.64352(7)
C19_7 C 0.04041(10) 0.32472(10) 0.62011(10)
C20_7 C 0.07993(11) 0.32318(15) 0.57993(11)
H7_7 H 0.072102 0.340897 0.572100
C21_7 C 0.06665(10) 0.30991(10) 0.60496(10)
O21_12 O 0.000000 0.29740(9) 0.70260(9)
C22_7 C 0.10380(13) 0.27069(17) 0.60380(13)
N9_7 N 0.14568(13) 0.20745(12) 0.62511(11)
C23_7 C 0.07853(11) 0.28401(12) 0.61687(11)
H8_7 H 0.069715 0.275302 0.633693
N10_7 N 0.14138(12) 0.23006(12) 0.60636(11)
C24_7 C 0.11698(15) 0.2435(2) 0.61698(15)
O22_12 O 0.000000 0.4079(3) 0.5921(3)
O23_7 O 0.1994(3) 0.1994(3) 0.5934(4)
O24_7 O 0.1504(4) 0.1504(4) 0.5938(4)
O25_6 O 0.10792(7) 0.34875(7) 0.53098(7)
O26_6 O 0.14352(7) 0.31296(7) 0.53093(7)
C25_7 C 0.12011(10) 0.32472(10) 0.54041(10)
C26_7 C 0.10496(10) 0.30991(10) 0.56665(10)
C27_7 C 0.11687(11) 0.28401(12) 0.57853(11)
H9_7 H 0.133693 0.275302 0.569715
N12_7 N 0.10636(11) 0.23006(12) 0.64138(12)
Cu13_9 Cu 0.16868(2) 0.33132(2) 0.500000
Cu16_9 Cu 0.12646(2) 0.37354(2) 0.500000
O45_7 O 0.03098(7) 0.39208(7) 0.34875(7)
O46_6 O 0.03098(7) 0.39208(7) 0.65125(7)
O48_6 O 0.03098(7) 0.34875(7) 0.39208(7)
O49_7 O 0.03093(7) 0.35648(7) 0.31296(7)
O50_6 O 0.03093(7) 0.35648(7) 0.68704(7)
O52_6 O 0.03093(7) 0.31296(7) 0.35648(7)
N30_7 N 0.20745(12) 0.14568(13) 0.62511(11)
O1_7 O 0.89208(7) 0.34875(7) 0.53098(7)
O2_7 O 0.85648(7) 0.31296(7) 0.53093(7)
C1_8 C 0.87989(10) 0.32472(10) 0.54041(10)
C2_8 C 0.92007(11) 0.32318(15) 0.57993(11)
H1_8 H 0.927900 0.340897 0.572102
C3_8 C 0.89504(10) 0.30991(10) 0.56665(10)
O4_11 O 0.79740(9) 0.29740(9) 0.500000
C4_8 C 0.89620(13) 0.27069(17) 0.60380(13)
N1_8 N 0.87489(11) 0.20745(12) 0.64568(13)
C5_8 C 0.88313(11) 0.28401(12) 0.57853(11)
H2_8 H 0.866307 0.275302 0.569715
N2_8 N 0.89364(11) 0.23006(12) 0.64138(12)
C6_8 C 0.88302(15) 0.2435(2) 0.61698(15)
O5_11 O 0.9079(3) 0.4079(3) 0.500000
O6_8 O 0.9066(4) 0.1994(3) 0.6994(3)
O7_8 O 0.9062(4) 0.1504(4) 0.6504(4)
O8_7 O 0.96902(7) 0.34875(7) 0.60792(7)
O9_7 O 0.96907(7) 0.31296(7) 0.64352(7)
C7_8 C 0.95959(10) 0.32472(10) 0.62011(10)
C8_8 C 0.93335(10) 0.30991(10) 0.60496(10)
N3_8 N 0.85432(13) 0.20745(12) 0.62511(11)
C9_8 C 0.92147(11) 0.28401(12) 0.61687(11)
H3_8 H 0.930285 0.275302 0.633693
N4_8 N 0.85862(12) 0.23006(12) 0.60636(11)
Cu4_11 Cu 1.000000 0.33132(2) 0.33132(2)
Cu5_11 Cu 1.000000 0.37354(2) 0.37354(2)
O10_7 O 0.96902(7) 0.34875(7) 0.39208(7)
O11_7 O 0.96907(7) 0.31296(7) 0.35648(7)
C10_8 C 0.95959(10) 0.32472(10) 0.37989(10)
C11_8 C 0.92007(11) 0.32318(15) 0.42007(11)
H4_8 H 0.927898 0.340897 0.427900
C12_8 C 0.93335(10) 0.30991(10) 0.39504(10)
O13_13 O 1.000000 0.29740(9) 0.29740(9)
C13_8 C 0.89620(13) 0.27069(17) 0.39620(13)
N5_8 N 0.85432(13) 0.20745(12) 0.37489(11)
C14_8 C 0.92147(11) 0.28401(12) 0.38313(11)
H5_8 H 0.930285 0.275302 0.366307
N6_8 N 0.85862(12) 0.23006(12) 0.39364(11)
C15_8 C 0.88302(15) 0.2435(2) 0.38302(15)
O14_13 O 1.000000 0.4079(3) 0.4079(3)
O15_8 O 0.8006(3) 0.1994(3) 0.4066(4)
O16_8 O 0.8496(4) 0.1504(4) 0.4062(4)
O17_7 O 0.89208(7) 0.34875(7) 0.46902(7)
O18_7 O 0.85648(7) 0.31296(7) 0.46907(7)
C16_8 C 0.87989(10) 0.32472(10) 0.45959(10)
C17_8 C 0.89504(10) 0.30991(10) 0.43335(10)
C18_8 C 0.88313(11) 0.28401(12) 0.42147(11)
H6_8 H 0.866307 0.275302 0.430285
N8_8 N 0.89364(11) 0.23006(12) 0.35862(12)
Cu7_11 Cu 1.000000 0.33132(2) 0.66868(2)
Cu8_11 Cu 1.000000 0.37354(2) 0.62646(2)
O21_13 O 1.000000 0.29740(9) 0.70260(9)
O22_13 O 1.000000 0.4079(3) 0.5921(3)
O27_7 O 0.96902(7) 0.39208(7) 0.65125(7)
O28_7 O 0.96907(7) 0.35648(7) 0.68704(7)
C28_8 C 0.95959(10) 0.37989(10) 0.67528(10)
C29_8 C 0.92007(11) 0.42007(11) 0.67682(15)
H10_8 H 0.927898 0.427900 0.659103
C30_8 C 0.93335(10) 0.39504(10) 0.69009(10)
C31_8 C 0.89620(13) 0.39620(13) 0.72931(17)
N13_8 N 0.85432(13) 0.37489(11) 0.79255(12)
C32_8 C 0.92147(11) 0.38313(11) 0.71599(12)
H11_8 H 0.930285 0.366307 0.724698
N14_8 N 0.85862(12) 0.39364(11) 0.76994(12)
C33_8 C 0.88302(15) 0.38302(15) 0.7565(2)
O29_8 O 0.8006(3) 0.4066(4) 0.8006(3)
O30_8 O 0.8496(4) 0.4062(4) 0.8496(4)
C34_8 C 0.87989(10) 0.45959(10) 0.67528(10)
C35_8 C 0.89504(10) 0.43335(10) 0.69009(10)
C36_8 C 0.88313(11) 0.42147(11) 0.71599(12)
H12_8 H 0.866307 0.430285 0.724698
N16_8 N 0.89364(11) 0.35862(12) 0.76994(12)
Cu12_6 Cu 0.67675(3) 0.37639(3) 0.32325(3)
O39_7 O 0.84875(7) 0.39208(7) 0.46902(7)
O40_7 O 0.81296(7) 0.35648(7) 0.46907(7)
C46_7 C 0.82472(10) 0.37989(10) 0.45959(10)
C47_7 C 0.82318(15) 0.42007(11) 0.42007(11)
H16_7 H 0.840897 0.427900 0.427898
C48_7 C 0.80991(10) 0.39504(10) 0.43335(10)
C49_7 C 0.77069(17) 0.39620(13) 0.39620(13)
N21_7 N 0.70745(12) 0.37489(11) 0.35432(13)
C50_7 C 0.78401(12) 0.38313(11) 0.42147(11)
H17_7 H 0.775302 0.366307 0.430285
N22_7 N 0.73006(12) 0.39364(11) 0.35862(12)
C51_7 C 0.7435(2) 0.38302(15) 0.38302(15)
O41_7 O 0.6994(3) 0.4066(4) 0.3006(3)
O42_7 O 0.6504(4) 0.4062(4) 0.3496(4)
C52_7 C 0.82472(10) 0.45959(10) 0.37989(10)
C53_7 C 0.80991(10) 0.43335(10) 0.39504(10)
N23_7 N 0.70745(12) 0.35432(13) 0.37489(11)
C54_7 C 0.78401(12) 0.42147(11) 0.38313(11)
H18_7 H 0.775302 0.430285 0.366307
N24_7 N 0.73006(12) 0.35862(12) 0.39364(11)
Cu26_6 Cu 0.67675(3) 0.32325(3) 0.37639(3)
O47_7 O 0.96902(7) 0.39208(7) 0.34875(7)
O51_7 O 0.96907(7) 0.35648(7) 0.31296(7)
O56_6 O 0.66607(18) 0.33393(18) 0.33393(18)
N26_7 N 0.79255(12) 0.37489(11) 0.85432(13)
N27_6 N 0.64568(13) 0.37489(11) 0.29255(12)
N29_8 N 0.79255(12) 0.14568(13) 0.37489(11)
Cu3_7 Cu 0.32325(3) 0.37639(3) 0.67675(3)
O1_8 O 0.15125(7) 0.39208(7) 0.53098(7)
O2_8 O 0.18704(7) 0.35648(7) 0.53093(7)
C1_9 C 0.17528(10) 0.37989(10) 0.54041(10)
C2_9 C 0.17682(15) 0.42007(11) 0.57993(11)
H1_9 H 0.159103 0.427900 0.572102
O3_7 O 0.33393(18) 0.33393(18) 0.66607(18)
C3_9 C 0.19009(10) 0.39504(10) 0.56665(10)
O4_12 O 0.20260(9) 0.29740(9) 0.500000
C4_9 C 0.22931(17) 0.39620(13) 0.60380(13)
N1_9 N 0.29255(12) 0.37489(11) 0.64568(13)
C5_9 C 0.21599(12) 0.38313(11) 0.57853(11)
H2_9 H 0.224698 0.366307 0.569715
N2_9 N 0.26994(12) 0.39364(11) 0.64138(12)
C6_9 C 0.2565(2) 0.38302(15) 0.61698(15)
O5_12 O 0.0921(3) 0.4079(3) 0.500000
O6_9 O 0.3006(3) 0.4066(4) 0.6994(3)
O7_9 O 0.3496(4) 0.4062(4) 0.6504(4)
O8_8 O 0.15125(7) 0.46902(7) 0.60792(7)
O9_8 O 0.18704(7) 0.46907(7) 0.64352(7)
C7_9 C 0.17528(10) 0.45959(10) 0.62011(10)
C8_9 C 0.19009(10) 0.43335(10) 0.60496(10)
N3_9 N 0.29255(12) 0.35432(13) 0.62511(11)
C9_9 C 0.21599(12) 0.42147(11) 0.61687(11)
H3_9 H 0.224698 0.430285 0.633693
N4_9 N 0.26994(12) 0.35862(12) 0.60636(11)
Cu6_7 Cu 0.32325(3) 0.32325(3) 0.37639(3)
O10_8 O 0.15125(7) 0.46902(7) 0.39208(7)
O11_8 O 0.18704(7) 0.46907(7) 0.35648(7)
C10_9 C 0.17528(10) 0.45959(10) 0.37989(10)
C11_9 C 0.17682(15) 0.42007(11) 0.42007(11)
H4_9 H 0.159103 0.427898 0.427900
O12_7 O 0.33393(18) 0.33393(18) 0.33393(18)
C12_9 C 0.19009(10) 0.43335(10) 0.39504(10)
O13_14 O 0.20260(9) 0.500000 0.29740(9)
C13_9 C 0.22931(17) 0.39620(13) 0.39620(13)
N5_9 N 0.29255(12) 0.35432(13) 0.37489(11)
C14_9 C 0.21599(12) 0.42147(11) 0.38313(11)
H5_9 H 0.224698 0.430285 0.366307
N6_9 N 0.26994(12) 0.35862(12) 0.39364(11)
C15_9 C 0.2565(2) 0.38302(15) 0.38302(15)
O14_14 O 0.0921(3) 0.500000 0.4079(3)
O15_9 O 0.3006(3) 0.3006(3) 0.4066(4)
O16_9 O 0.3496(4) 0.3496(4) 0.4062(4)
O17_8 O 0.15125(7) 0.39208(7) 0.46902(7)
O18_8 O 0.18704(7) 0.35648(7) 0.46907(7)
C16_9 C 0.17528(10) 0.37989(10) 0.45959(10)
C17_9 C 0.19009(10) 0.39504(10) 0.43335(10)
N7_7 N 0.29255(12) 0.37489(11) 0.35432(13)
C18_9 C 0.21599(12) 0.38313(11) 0.42147(11)
H6_9 H 0.224698 0.366307 0.430285
N8_9 N 0.26994(12) 0.39364(11) 0.35862(12)
O21_14 O 0.20260(9) 0.500000 0.70260(9)
O22_14 O 0.0921(3) 0.500000 0.5921(3)
O27_8 O 0.10792(7) 0.46902(7) 0.65125(7)
O28_8 O 0.14352(7) 0.46907(7) 0.68704(7)
C28_9 C 0.12011(10) 0.45959(10) 0.67528(10)
C29_9 C 0.07993(11) 0.42007(11) 0.67682(15)
H10_9 H 0.072100 0.427898 0.659103
C30_9 C 0.10496(10) 0.43335(10) 0.69009(10)
C31_9 C 0.10380(13) 0.39620(13) 0.72931(17)
N13_9 N 0.12511(11) 0.35432(13) 0.79255(12)
C32_9 C 0.11687(11) 0.42147(11) 0.71599(12)
H11_9 H 0.133693 0.430285 0.724698
N14_9 N 0.10636(11) 0.35862(12) 0.76994(12)
C33_9 C 0.11698(15) 0.38302(15) 0.7565(2)
O29_9 O 0.0934(4) 0.3006(3) 0.8006(3)
O30_9 O 0.0938(4) 0.3496(4) 0.8496(4)
C34_9 C 0.04041(10) 0.37989(10) 0.67528(10)
C35_9 C 0.06665(10) 0.39504(10) 0.69009(10)
N15_7 N 0.14568(13) 0.37489(11) 0.79255(12)
C36_9 C 0.07853(11) 0.38313(11) 0.71599(12)
H12_9 H 0.069715 0.366307 0.724698
N16_9 N 0.14138(12) 0.39364(11) 0.76994(12)
O39_8 O 0.10792(7) 0.34875(7) 0.46902(7)
O40_8 O 0.14352(7) 0.31296(7) 0.46907(7)
C46_8 C 0.12011(10) 0.32472(10) 0.45959(10)
C47_8 C 0.07993(11) 0.32318(15) 0.42007(11)
H16_8 H 0.072100 0.340897 0.427898
C48_8 C 0.10496(10) 0.30991(10) 0.43335(10)
C49_8 C 0.10380(13) 0.27069(17) 0.39620(13)
N21_8 N 0.12511(11) 0.20745(12) 0.35432(13)
C50_8 C 0.11687(11) 0.28401(12) 0.42147(11)
H17_8 H 0.133693 0.275302 0.430285
N22_8 N 0.10636(11) 0.23006(12) 0.35862(12)
C51_8 C 0.11698(15) 0.2435(2) 0.38302(15)
O41_8 O 0.0934(4) 0.1994(3) 0.3006(3)
O42_8 O 0.0938(4) 0.1504(4) 0.3496(4)
C52_8 C 0.04041(10) 0.32472(10) 0.37989(10)
C53_8 C 0.06665(10) 0.30991(10) 0.39504(10)
N23_8 N 0.14568(13) 0.20745(12) 0.37489(11)
C54_8 C 0.07853(11) 0.28401(12) 0.38313(11)
H18_8 H 0.069715 0.275302 0.366307
N24_8 N 0.14138(12) 0.23006(12) 0.39364(11)
Cu19_7 Cu 0.32325(3) 0.37639(3) 0.32325(3)
Cu21_13 Cu 0.37639(3) 0.32325(3) 0.67675(3)
Cu24_7 Cu 0.32325(3) 0.32325(3) 0.62361(3)
Cu25_15 Cu 0.37639(3) 0.32325(3) 0.32325(3)
O45_8 O 0.10792(7) 0.53098(7) 0.34875(7)
O47_8 O 0.10792(7) 0.46902(7) 0.34875(7)
O49_8 O 0.14352(7) 0.53093(7) 0.31296(7)
O51_8 O 0.14352(7) 0.46907(7) 0.31296(7)
N25_7 N 0.35432(13) 0.37489(11) 0.70745(12)
N29_9 N 0.35432(13) 0.29255(12) 0.37489(11)
C28_10 C 0.04041(10) 0.37989(10) 0.32472(10)
C29_10 C 0.07993(11) 0.42007(11) 0.32318(15)
H10_10 H 0.072102 0.427900 0.340897
C30_10 C 0.06665(10) 0.39504(10) 0.30991(10)
C31_10 C 0.10380(13) 0.39620(13) 0.27069(17)
N13_10 N 0.14568(13) 0.37489(11) 0.20745(12)
C32_10 C 0.07853(11) 0.38313(11) 0.28401(12)
H11_10 H 0.069715 0.366307 0.275302
N14_10 N 0.14138(12) 0.39364(11) 0.23006(12)
C33_10 C 0.11698(15) 0.38302(15) 0.2435(2)
O29_10 O 0.1994(3) 0.4066(4) 0.1994(3)
O30_10 O 0.1504(4) 0.4062(4) 0.1504(4)
C34_10 C 0.12011(10) 0.45959(10) 0.32472(10)
C35_10 C 0.10496(10) 0.43335(10) 0.30991(10)
C36_10 C 0.11687(11) 0.42147(11) 0.28401(12)
H12_10 H 0.133693 0.430285 0.275302
N16_10 N 0.10636(11) 0.35862(12) 0.23006(12)
N26_8 N 0.20745(12) 0.37489(11) 0.14568(13)
C1_10 C 0.12011(10) 0.54041(10) 0.32472(10)
C2_10 C 0.07993(11) 0.57993(11) 0.32318(15)
H1_10 H 0.072100 0.572102 0.340897
C3_10 C 0.10496(10) 0.56665(10) 0.30991(10)
C4_10 C 0.10380(13) 0.60380(13) 0.27069(17)
N1_10 N 0.12511(11) 0.64568(13) 0.20745(12)
C5_10 C 0.11687(11) 0.57853(11) 0.28401(12)
H2_10 H 0.133693 0.569715 0.275302
N2_10 N 0.10636(11) 0.64138(12) 0.23006(12)
C6_10 C 0.11698(15) 0.61698(15) 0.2435(2)
O6_10 O 0.0934(4) 0.6994(3) 0.1994(3)
O7_10 O 0.0938(4) 0.6504(4) 0.1504(4)
C7_10 C 0.04041(10) 0.62011(10) 0.32472(10)
C8_10 C 0.06665(10) 0.60496(10) 0.30991(10)
N3_10 N 0.14568(13) 0.62511(11) 0.20745(12)
C9_10 C 0.07853(11) 0.61687(11) 0.28401(12)
H3_10 H 0.069715 0.633693 0.275302
N4_10 N 0.14138(12) 0.60636(11) 0.23006(12)
C19_8 C 0.95959(10) 0.62011(10) 0.32472(10)
C20_8 C 0.92007(11) 0.57993(11) 0.32318(15)
H7_8 H 0.927898 0.572100 0.340897
C21_8 C 0.93335(10) 0.60496(10) 0.30991(10)
C22_8 C 0.89620(13) 0.60380(13) 0.27069(17)
N9_8 N 0.85432(13) 0.62511(11) 0.20745(12)
C23_8 C 0.92147(11) 0.61687(11) 0.28401(12)
H8_8 H 0.930285 0.633693 0.275302
N10_8 N 0.85862(12) 0.60636(11) 0.23006(12)
C24_8 C 0.88302(15) 0.61698(15) 0.2435(2)
O23_8 O 0.8006(3) 0.5934(4) 0.1994(3)
O24_8 O 0.8496(4) 0.5938(4) 0.1504(4)
C25_8 C 0.87989(10) 0.54041(10) 0.32472(10)
C26_8 C 0.89504(10) 0.56665(10) 0.30991(10)
C27_8 C 0.88313(11) 0.57853(11) 0.28401(12)
H9_8 H 0.866307 0.569715 0.275302
N12_8 N 0.89364(11) 0.64138(12) 0.23006(12)
N30_8 N 0.79255(12) 0.62511(11) 0.14568(13)
Cu21_14 Cu 0.37639(3) 0.67675(3) 0.67675(3)
Cu21_15 Cu 0.62361(3) 0.32325(3) 0.67675(3)
C10_10 C 0.87989(10) 0.45959(10) 0.32472(10)
C11_10 C 0.92007(11) 0.42007(11) 0.32318(15)
H4_10 H 0.927900 0.427898 0.340897
C12_10 C 0.89504(10) 0.43335(10) 0.30991(10)
C13_10 C 0.89620(13) 0.39620(13) 0.27069(17)
N5_10 N 0.87489(11) 0.35432(13) 0.20745(12)
C14_10 C 0.88313(11) 0.42147(11) 0.28401(12)
H5_10 H 0.866307 0.430285 0.275302
N6_10 N 0.89364(11) 0.35862(12) 0.23006(12)
C15_10 C 0.88302(15) 0.38302(15) 0.2435(2)
O15_10 O 0.9066(4) 0.3006(3) 0.1994(3)
O16_10 O 0.9062(4) 0.3496(4) 0.1504(4)
C16_10 C 0.95959(10) 0.37989(10) 0.32472(10)
C17_10 C 0.93335(10) 0.39504(10) 0.30991(10)
N7_8 N 0.85432(13) 0.37489(11) 0.20745(12)
C18_10 C 0.92147(11) 0.38313(11) 0.28401(12)
H6_10 H 0.930285 0.366307 0.275302
N8_10 N 0.85862(12) 0.39364(11) 0.23006(12)
Cu25_16 Cu 0.62361(3) 0.32325(3) 0.32325(3)
Cu25_17 Cu 0.37639(3) 0.67675(3) 0.32325(3)
Cu1_4 Cu 0.66868(2) 0.16868(2) 0.500000
Cu2_4 Cu 0.62646(2) 0.12646(2) 0.500000
O1_9 O 0.60792(7) 0.15125(7) 0.53098(7)
O2_9 O 0.64352(7) 0.18704(7) 0.53093(7)
C1_11 C 0.62011(10) 0.17528(10) 0.54041(10)
C2_11 C 0.57993(11) 0.17682(15) 0.57993(11)
H1_11 H 0.572100 0.159103 0.572102
C3_11 C 0.60496(10) 0.19009(10) 0.56665(10)
O4_13 O 0.70260(9) 0.20260(9) 0.500000
C4_11 C 0.60380(13) 0.22931(17) 0.60380(13)
N1_11 N 0.62511(11) 0.29255(12) 0.64568(13)
C5_11 C 0.61687(11) 0.21599(12) 0.57853(11)
H2_11 H 0.633693 0.224698 0.569715
N2_11 N 0.60636(11) 0.26994(12) 0.64138(12)
C6_11 C 0.61698(15) 0.2565(2) 0.61698(15)
O5_13 O 0.5921(3) 0.0921(3) 0.500000
O6_11 O 0.5934(4) 0.3006(3) 0.6994(3)
O7_11 O 0.5938(4) 0.3496(4) 0.6504(4)
O8_9 O 0.53098(7) 0.15125(7) 0.60792(7)
O9_9 O 0.53093(7) 0.18704(7) 0.64352(7)
C7_11 C 0.54041(10) 0.17528(10) 0.62011(10)
C8_11 C 0.56665(10) 0.19009(10) 0.60496(10)
C9_11 C 0.57853(11) 0.21599(12) 0.61687(11)
H3_11 H 0.569715 0.224698 0.633693
N4_11 N 0.64138(12) 0.26994(12) 0.60636(11)
Cu4_12 Cu 0.500000 0.16868(2) 0.33132(2)
Cu5_12 Cu 0.500000 0.12646(2) 0.37354(2)
O10_9 O 0.53098(7) 0.15125(7) 0.39208(7)
O11_9 O 0.53093(7) 0.18704(7) 0.35648(7)
C10_11 C 0.54041(10) 0.17528(10) 0.37989(10)
C11_11 C 0.57993(11) 0.17682(15) 0.42007(11)
H4_11 H 0.572102 0.159103 0.427900
C12_11 C 0.56665(10) 0.19009(10) 0.39504(10)
O13_15 O 0.500000 0.20260(9) 0.29740(9)
C13_11 C 0.60380(13) 0.22931(17) 0.39620(13)
N5_11 N 0.64568(13) 0.29255(12) 0.37489(11)
C14_11 C 0.57853(11) 0.21599(12) 0.38313(11)
H5_11 H 0.569715 0.224698 0.366307
N6_11 N 0.64138(12) 0.26994(12) 0.39364(11)
C15_11 C 0.61698(15) 0.2565(2) 0.38302(15)
O14_15 O 0.500000 0.0921(3) 0.4079(3)
O15_11 O 0.6994(3) 0.3006(3) 0.4066(4)
O16_11 O 0.6504(4) 0.3496(4) 0.4062(4)
O17_9 O 0.60792(7) 0.15125(7) 0.46902(7)
O18_9 O 0.64352(7) 0.18704(7) 0.46907(7)
C16_11 C 0.62011(10) 0.17528(10) 0.45959(10)
C17_11 C 0.60496(10) 0.19009(10) 0.43335(10)
N7_9 N 0.62511(11) 0.29255(12) 0.35432(13)
C18_11 C 0.61687(11) 0.21599(12) 0.42147(11)
H6_11 H 0.633693 0.224698 0.430285
N8_11 N 0.60636(11) 0.26994(12) 0.35862(12)
Cu7_12 Cu 0.500000 0.16868(2) 0.66868(2)
Cu8_12 Cu 0.500000 0.12646(2) 0.62646(2)
O19_7 O 0.46902(7) 0.15125(7) 0.60792(7)
O20_7 O 0.46907(7) 0.18704(7) 0.64352(7)
C19_9 C 0.45959(10) 0.17528(10) 0.62011(10)
C20_9 C 0.42007(11) 0.17682(15) 0.57993(11)
H7_9 H 0.427898 0.159103 0.572100
C21_9 C 0.43335(10) 0.19009(10) 0.60496(10)
O21_15 O 0.500000 0.20260(9) 0.70260(9)
C22_9 C 0.39620(13) 0.22931(17) 0.60380(13)
N9_9 N 0.35432(13) 0.29255(12) 0.62511(11)
C23_9 C 0.42147(11) 0.21599(12) 0.61687(11)
H8_9 H 0.430285 0.224698 0.633693
N10_9 N 0.35862(12) 0.26994(12) 0.60636(11)
C24_9 C 0.38302(15) 0.2565(2) 0.61698(15)
O22_15 O 0.500000 0.0921(3) 0.5921(3)
O23_9 O 0.3006(3) 0.3006(3) 0.5934(4)
O24_9 O 0.3496(4) 0.3496(4) 0.5938(4)
O25_7 O 0.39208(7) 0.15125(7) 0.53098(7)
O26_7 O 0.35648(7) 0.18704(7) 0.53093(7)
C25_9 C 0.37989(10) 0.17528(10) 0.54041(10)
C26_9 C 0.39504(10) 0.19009(10) 0.56665(10)
N11_6 N 0.37489(11) 0.29255(12) 0.64568(13)
C27_9 C 0.38313(11) 0.21599(12) 0.57853(11)
H9_9 H 0.366307 0.224698 0.569715
N12_9 N 0.39364(11) 0.26994(12) 0.64138(12)
O27_9 O 0.53098(7) 0.10792(7) 0.65125(7)
O28_9 O 0.53093(7) 0.14352(7) 0.68704(7)
C28_11 C 0.54041(10) 0.12011(10) 0.67528(10)
C29_11 C 0.57993(11) 0.07993(11) 0.67682(15)
H10_11 H 0.572102 0.072100 0.659103
C30_11 C 0.56665(10) 0.10496(10) 0.69009(10)
C31_11 C 0.60380(13) 0.10380(13) 0.72931(17)
N13_11 N 0.64568(13) 0.12511(11) 0.79255(12)
C32_11 C 0.57853(11) 0.11687(11) 0.71599(12)
H11_11 H 0.569715 0.133693 0.724698
N14_11 N 0.64138(12) 0.10636(11) 0.76994(12)
C33_11 C 0.61698(15) 0.11698(15) 0.7565(2)
O29_11 O 0.6994(3) 0.0934(4) 0.8006(3)
O30_11 O 0.6504(4) 0.0938(4) 0.8496(4)
O31_3 O 0.60792(7) 0.03098(7) 0.65125(7)
O32_3 O 0.64352(7) 0.03093(7) 0.68704(7)
C34_11 C 0.62011(10) 0.04041(10) 0.67528(10)
C35_11 C 0.60496(10) 0.06665(10) 0.69009(10)
N15_8 N 0.62511(11) 0.14568(13) 0.79255(12)
C36_11 C 0.61687(11) 0.07853(11) 0.71599(12)
H12_11 H 0.633693 0.069715 0.724698
N16_11 N 0.60636(11) 0.14138(12) 0.76994(12)
O33_3 O 0.65125(7) 0.03098(7) 0.60792(7)
O34_3 O 0.68704(7) 0.03093(7) 0.64352(7)
C37_3 C 0.67528(10) 0.04041(10) 0.62011(10)
C38_3 C 0.67682(15) 0.07993(11) 0.57993(11)
H13_3 H 0.659103 0.072102 0.572100
C39_3 C 0.69009(10) 0.06665(10) 0.60496(10)
C40_3 C 0.72931(17) 0.10380(13) 0.60380(13)
N17_3 N 0.79255(12) 0.14568(13) 0.62511(11)
C41_3 C 0.71599(12) 0.07853(11) 0.61687(11)
H14_3 H 0.724698 0.069715 0.633693
N18_3 N 0.76994(12) 0.14138(12) 0.60636(11)
C42_3 C 0.7565(2) 0.11698(15) 0.61698(15)
O35_3 O 0.8006(3) 0.1994(3) 0.5934(4)
O36_3 O 0.8496(4) 0.1504(4) 0.5938(4)
O37_3 O 0.65125(7) 0.10792(7) 0.53098(7)
O38_3 O 0.68704(7) 0.14352(7) 0.53093(7)
C43_3 C 0.67528(10) 0.12011(10) 0.54041(10)
C44_3 C 0.69009(10) 0.10496(10) 0.56665(10)
C45_3 C 0.71599(12) 0.11687(11) 0.57853(11)
H15_3 H 0.724698 0.133693 0.569715
N20_3 N 0.76994(12) 0.10636(11) 0.64138(12)
O39_9 O 0.65125(7) 0.10792(7) 0.46902(7)
O40_9 O 0.68704(7) 0.14352(7) 0.46907(7)
C46_9 C 0.67528(10) 0.12011(10) 0.45959(10)
C47_9 C 0.67682(15) 0.07993(11) 0.42007(11)
H16_9 H 0.659103 0.072100 0.427898
C48_9 C 0.69009(10) 0.10496(10) 0.43335(10)
C49_9 C 0.72931(17) 0.10380(13) 0.39620(13)
N21_9 N 0.79255(12) 0.12511(11) 0.35432(13)
C50_9 C 0.71599(12) 0.11687(11) 0.42147(11)
H17_9 H 0.724698 0.133693 0.430285
N22_9 N 0.76994(12) 0.10636(11) 0.35862(12)
C51_9 C 0.7565(2) 0.11698(15) 0.38302(15)
O41_9 O 0.8006(3) 0.0934(4) 0.3006(3)
O42_9 O 0.8496(4) 0.0938(4) 0.3496(4)
O43_3 O 0.65125(7) 0.03098(7) 0.39208(7)
O44_3 O 0.68704(7) 0.03093(7) 0.35648(7)
C52_9 C 0.67528(10) 0.04041(10) 0.37989(10)
C53_9 C 0.69009(10) 0.06665(10) 0.39504(10)
C54_9 C 0.71599(12) 0.07853(11) 0.38313(11)
H18_9 H 0.724698 0.069715 0.366307
N24_9 N 0.76994(12) 0.14138(12) 0.39364(11)
Cu13_10 Cu 0.33132(2) 0.16868(2) 0.500000
Cu14_4 Cu 0.66868(2) 0.000000 0.66868(2)
Cu15_4 Cu 0.66868(2) 0.000000 0.33132(2)
Cu16_10 Cu 0.37354(2) 0.12646(2) 0.500000
Cu17_4 Cu 0.62646(2) 0.000000 0.62646(2)
Cu18_4 Cu 0.62646(2) 0.000000 0.37354(2)
O45_9 O 0.46902(7) 0.10792(7) 0.34875(7)
O46_7 O 0.46902(7) 0.10792(7) 0.65125(7)
O47_9 O 0.53098(7) 0.10792(7) 0.34875(7)
O48_7 O 0.46902(7) 0.15125(7) 0.39208(7)
O49_9 O 0.46907(7) 0.14352(7) 0.31296(7)
O50_7 O 0.46907(7) 0.14352(7) 0.68704(7)
O51_9 O 0.53093(7) 0.14352(7) 0.31296(7)
O52_7 O 0.46907(7) 0.18704(7) 0.35648(7)
N25_8 N 0.62511(11) 0.35432(13) 0.70745(12)
Cu14_5 Cu 0.66868(2) 1.000000 0.66868(2)
Cu15_5 Cu 0.66868(2) 1.000000 0.33132(2)
Cu17_5 Cu 0.62646(2) 1.000000 0.62646(2)
Cu18_5 Cu 0.62646(2) 1.000000 0.37354(2)
O1_10 O 0.34875(7) 0.10792(7) 0.53098(7)
O2_10 O 0.31296(7) 0.14352(7) 0.53093(7)
C1_12 C 0.32472(10) 0.12011(10) 0.54041(10)
C2_12 C 0.32318(15) 0.07993(11) 0.57993(11)
H1_12 H 0.340897 0.072100 0.572102
C3_12 C 0.30991(10) 0.10496(10) 0.56665(10)
O4_14 O 0.29740(9) 0.20260(9) 0.500000
C4_12 C 0.27069(17) 0.10380(13) 0.60380(13)
N1_12 N 0.20745(12) 0.12511(11) 0.64568(13)
C5_12 C 0.28401(12) 0.11687(11) 0.57853(11)
H2_12 H 0.275302 0.133693 0.569715
N2_12 N 0.23006(12) 0.10636(11) 0.64138(12)
C6_12 C 0.2435(2) 0.11698(15) 0.61698(15)
O5_14 O 0.4079(3) 0.0921(3) 0.500000
O6_12 O 0.1994(3) 0.0934(4) 0.6994(3)
O7_12 O 0.1504(4) 0.0938(4) 0.6504(4)
O8_10 O 0.34875(7) 0.03098(7) 0.60792(7)
O9_10 O 0.31296(7) 0.03093(7) 0.64352(7)
C7_12 C 0.32472(10) 0.04041(10) 0.62011(10)
C8_12 C 0.30991(10) 0.06665(10) 0.60496(10)
C9_12 C 0.28401(12) 0.07853(11) 0.61687(11)
H3_12 H 0.275302 0.069715 0.633693
N4_12 N 0.23006(12) 0.14138(12) 0.60636(11)
Cu4_13 Cu 0.33132(2) 0.000000 0.33132(2)
Cu5_13 Cu 0.37354(2) 0.000000 0.37354(2)
O10_10 O 0.34875(7) 0.03098(7) 0.39208(7)
O11_10 O 0.31296(7) 0.03093(7) 0.35648(7)
C10_12 C 0.32472(10) 0.04041(10) 0.37989(10)
C11_12 C 0.32318(15) 0.07993(11) 0.42007(11)
H4_12 H 0.340897 0.072102 0.427900
C12_12 C 0.30991(10) 0.06665(10) 0.39504(10)
O13_16 O 0.29740(9) 0.000000 0.29740(9)
C13_12 C 0.27069(17) 0.10380(13) 0.39620(13)
N5_12 N 0.20745(12) 0.14568(13) 0.37489(11)
C14_12 C 0.28401(12) 0.07853(11) 0.38313(11)
H5_12 H 0.275302 0.069715 0.366307
N6_12 N 0.23006(12) 0.14138(12) 0.39364(11)
C15_12 C 0.2435(2) 0.11698(15) 0.38302(15)
O14_16 O 0.4079(3) 0.000000 0.4079(3)
O15_12 O 0.1994(3) 0.1994(3) 0.4066(4)
O16_12 O 0.1504(4) 0.1504(4) 0.4062(4)
O17_10 O 0.34875(7) 0.10792(7) 0.46902(7)
O18_10 O 0.31296(7) 0.14352(7) 0.46907(7)
C16_12 C 0.32472(10) 0.12011(10) 0.45959(10)
C17_12 C 0.30991(10) 0.10496(10) 0.43335(10)
C18_12 C 0.28401(12) 0.11687(11) 0.42147(11)
H6_12 H 0.275302 0.133693 0.430285
N8_12 N 0.23006(12) 0.10636(11) 0.35862(12)
Cu7_13 Cu 0.33132(2) 0.000000 0.66868(2)
Cu8_13 Cu 0.37354(2) 0.000000 0.62646(2)
O21_16 O 0.29740(9) 0.000000 0.70260(9)
O22_16 O 0.4079(3) 0.000000 0.5921(3)
O27_10 O 0.39208(7) 0.03098(7) 0.65125(7)
O28_10 O 0.35648(7) 0.03093(7) 0.68704(7)
C28_12 C 0.37989(10) 0.04041(10) 0.67528(10)
C29_12 C 0.42007(11) 0.07993(11) 0.67682(15)
H10_12 H 0.427900 0.072102 0.659103
C30_12 C 0.39504(10) 0.06665(10) 0.69009(10)
C31_12 C 0.39620(13) 0.10380(13) 0.72931(17)
N13_12 N 0.37489(11) 0.14568(13) 0.79255(12)
C32_12 C 0.38313(11) 0.07853(11) 0.71599(12)
H11_12 H 0.366307 0.069715 0.724698
N14_12 N 0.39364(11) 0.14138(12) 0.76994(12)
C33_12 C 0.38302(15) 0.11698(15) 0.7565(2)
O29_12 O 0.4066(4) 0.1994(3) 0.8006(3)
O30_12 O 0.4062(4) 0.1504(4) 0.8496(4)
C34_12 C 0.45959(10) 0.12011(10) 0.67528(10)
C35_12 C 0.43335(10) 0.10496(10) 0.69009(10)
C36_12 C 0.42147(11) 0.11687(11) 0.71599(12)
H12_12 H 0.430285 0.133693 0.724698
N16_12 N 0.35862(12) 0.10636(11) 0.76994(12)
O39_10 O 0.39208(7) 0.15125(7) 0.46902(7)
O40_10 O 0.35648(7) 0.18704(7) 0.46907(7)
C46_10 C 0.37989(10) 0.17528(10) 0.45959(10)
C47_10 C 0.42007(11) 0.17682(15) 0.42007(11)
H16_10 H 0.427900 0.159103 0.427898
C48_10 C 0.39504(10) 0.19009(10) 0.43335(10)
C49_10 C 0.39620(13) 0.22931(17) 0.39620(13)
N21_10 N 0.37489(11) 0.29255(12) 0.35432(13)
C50_10 C 0.38313(11) 0.21599(12) 0.42147(11)
H17_10 H 0.366307 0.224698 0.430285
N22_10 N 0.39364(11) 0.26994(12) 0.35862(12)
C51_10 C 0.38302(15) 0.2565(2) 0.38302(15)
O41_10 O 0.4066(4) 0.3006(3) 0.3006(3)
O42_10 O 0.4062(4) 0.3496(4) 0.3496(4)
C52_10 C 0.45959(10) 0.17528(10) 0.37989(10)
C53_10 C 0.43335(10) 0.19009(10) 0.39504(10)
C54_10 C 0.42147(11) 0.21599(12) 0.38313(11)
H18_10 H 0.430285 0.224698 0.366307
N24_10 N 0.35862(12) 0.26994(12) 0.39364(11)
O47_10 O 0.39208(7) 0.03098(7) 0.34875(7)
O51_10 O 0.35648(7) 0.03093(7) 0.31296(7)
N26_9 N 0.37489(11) 0.20745(12) 0.85432(13)
N27_7 N 0.37489(11) 0.35432(13) 0.29255(12)
Cu4_14 Cu 0.33132(2) 1.000000 0.33132(2)
Cu5_14 Cu 0.37354(2) 1.000000 0.37354(2)
O13_17 O 0.29740(9) 1.000000 0.29740(9)
O14_17 O 0.4079(3) 1.000000 0.4079(3)
Cu7_14 Cu 0.33132(2) 1.000000 0.66868(2)
Cu8_14 Cu 0.37354(2) 1.000000 0.62646(2)
O19_8 O 0.34875(7) 0.96902(7) 0.60792(7)
O20_8 O 0.31296(7) 0.96907(7) 0.64352(7)
C19_10 C 0.32472(10) 0.95959(10) 0.62011(10)
C20_10 C 0.32318(15) 0.92007(11) 0.57993(11)
H7_10 H 0.340897 0.927898 0.572100
C21_10 C 0.30991(10) 0.93335(10) 0.60496(10)
O21_17 O 0.29740(9) 1.000000 0.70260(9)
C22_10 C 0.27069(17) 0.89620(13) 0.60380(13)
N9_10 N 0.20745(12) 0.85432(13) 0.62511(11)
C23_10 C 0.28401(12) 0.92147(11) 0.61687(11)
H8_10 H 0.275302 0.930285 0.633693
N10_10 N 0.23006(12) 0.85862(12) 0.60636(11)
C24_10 C 0.2435(2) 0.88302(15) 0.61698(15)
O22_17 O 0.4079(3) 1.000000 0.5921(3)
O23_10 O 0.1994(3) 0.8006(3) 0.5934(4)
O24_10 O 0.1504(4) 0.8496(4) 0.5938(4)
O25_8 O 0.34875(7) 0.89208(7) 0.53098(7)
O26_8 O 0.31296(7) 0.85648(7) 0.53093(7)
C25_10 C 0.32472(10) 0.87989(10) 0.54041(10)
C26_10 C 0.30991(10) 0.89504(10) 0.56665(10)
C27_10 C 0.28401(12) 0.88313(11) 0.57853(11)
H9_10 H 0.275302 0.866307 0.569715
N12_10 N 0.23006(12) 0.89364(11) 0.64138(12)
Cu13_11 Cu 0.33132(2) 0.83132(2) 0.500000
Cu16_11 Cu 0.37354(2) 0.87354(2) 0.500000
O45_10 O 0.39208(7) 0.96902(7) 0.34875(7)
O46_8 O 0.39208(7) 0.96902(7) 0.65125(7)
O48_8 O 0.34875(7) 0.96902(7) 0.39208(7)
O49_10 O 0.35648(7) 0.96907(7) 0.31296(7)
O50_8 O 0.35648(7) 0.96907(7) 0.68704(7)
O52_8 O 0.31296(7) 0.96907(7) 0.35648(7)
O1_11 O 0.39208(7) 0.84875(7) 0.53098(7)
O2_11 O 0.35648(7) 0.81296(7) 0.53093(7)
C1_13 C 0.37989(10) 0.82472(10) 0.54041(10)
C2_13 C 0.42007(11) 0.82318(15) 0.57993(11)
H1_13 H 0.427900 0.840897 0.572102
C3_13 C 0.39504(10) 0.80991(10) 0.56665(10)
O4_15 O 0.29740(9) 0.79740(9) 0.500000
C4_13 C 0.39620(13) 0.77069(17) 0.60380(13)
N1_13 N 0.37489(11) 0.70745(12) 0.64568(13)
C5_13 C 0.38313(11) 0.78401(12) 0.57853(11)
H2_13 H 0.366307 0.775302 0.569715
N2_13 N 0.39364(11) 0.73006(12) 0.64138(12)
C6_13 C 0.38302(15) 0.7435(2) 0.61698(15)
O5_15 O 0.4079(3) 0.9079(3) 0.500000
O6_13 O 0.4066(4) 0.6994(3) 0.6994(3)
O7_13 O 0.4062(4) 0.6504(4) 0.6504(4)
O8_11 O 0.46902(7) 0.84875(7) 0.60792(7)
O9_11 O 0.46907(7) 0.81296(7) 0.64352(7)
C7_13 C 0.45959(10) 0.82472(10) 0.62011(10)
C8_13 C 0.43335(10) 0.80991(10) 0.60496(10)
C9_13 C 0.42147(11) 0.78401(12) 0.61687(11)
H3_13 H 0.430285 0.775302 0.633693
N4_13 N 0.35862(12) 0.73006(12) 0.60636(11)
Cu4_15 Cu 0.500000 0.83132(2) 0.33132(2)
Cu5_15 Cu 0.500000 0.87354(2) 0.37354(2)
O10_11 O 0.46902(7) 0.84875(7) 0.39208(7)
O11_11 O 0.46907(7) 0.81296(7) 0.35648(7)
C10_13 C 0.45959(10) 0.82472(10) 0.37989(10)
C11_13 C 0.42007(11) 0.82318(15) 0.42007(11)
H4_13 H 0.427898 0.840897 0.427900
C12_13 C 0.43335(10) 0.80991(10) 0.39504(10)
O13_18 O 0.500000 0.79740(9) 0.29740(9)
C13_13 C 0.39620(13) 0.77069(17) 0.39620(13)
N5_13 N 0.35432(13) 0.70745(12) 0.37489(11)
C14_13 C 0.42147(11) 0.78401(12) 0.38313(11)
H5_13 H 0.430285 0.775302 0.366307
N6_13 N 0.35862(12) 0.73006(12) 0.39364(11)
C15_13 C 0.38302(15) 0.7435(2) 0.38302(15)
O14_18 O 0.500000 0.9079(3) 0.4079(3)
O15_13 O 0.3006(3) 0.6994(3) 0.4066(4)
O16_13 O 0.3496(4) 0.6504(4) 0.4062(4)
O17_11 O 0.39208(7) 0.84875(7) 0.46902(7)
O18_11 O 0.35648(7) 0.81296(7) 0.46907(7)
C16_13 C 0.37989(10) 0.82472(10) 0.45959(10)
C17_13 C 0.39504(10) 0.80991(10) 0.43335(10)
N7_10 N 0.37489(11) 0.70745(12) 0.35432(13)
C18_13 C 0.38313(11) 0.78401(12) 0.42147(11)
H6_13 H 0.366307 0.775302 0.430285
N8_13 N 0.39364(11) 0.73006(12) 0.35862(12)
Cu7_15 Cu 0.500000 0.83132(2) 0.66868(2)
Cu8_15 Cu 0.500000 0.87354(2) 0.62646(2)
O19_9 O 0.53098(7) 0.84875(7) 0.60792(7)
O20_9 O 0.53093(7) 0.81296(7) 0.64352(7)
C19_11 C 0.54041(10) 0.82472(10) 0.62011(10)
C20_11 C 0.57993(11) 0.82318(15) 0.57993(11)
H7_11 H 0.572102 0.840897 0.572100
C21_11 C 0.56665(10) 0.80991(10) 0.60496(10)
O21_18 O 0.500000 0.79740(9) 0.70260(9)
C22_11 C 0.60380(13) 0.77069(17) 0.60380(13)
N9_11 N 0.64568(13) 0.70745(12) 0.62511(11)
C23_11 C 0.57853(11) 0.78401(12) 0.61687(11)
H8_11 H 0.569715 0.775302 0.633693
N10_11 N 0.64138(12) 0.73006(12) 0.60636(11)
C24_11 C 0.61698(15) 0.7435(2) 0.61698(15)
O22_18 O 0.500000 0.9079(3) 0.5921(3)
O23_11 O 0.6994(3) 0.6994(3) 0.5934(4)
O24_11 O 0.6504(4) 0.6504(4) 0.5938(4)
O25_9 O 0.60792(7) 0.84875(7) 0.53098(7)
O26_9 O 0.64352(7) 0.81296(7) 0.53093(7)
C25_11 C 0.62011(10) 0.82472(10) 0.54041(10)
C26_11 C 0.60496(10) 0.80991(10) 0.56665(10)
N11_7 N 0.62511(11) 0.70745(12) 0.64568(13)
C27_11 C 0.61687(11) 0.78401(12) 0.57853(11)
H9_11 H 0.633693 0.775302 0.569715
N12_11 N 0.60636(11) 0.73006(12) 0.64138(12)
O27_11 O 0.46902(7) 0.89208(7) 0.65125(7)
O28_11 O 0.46907(7) 0.85648(7) 0.68704(7)
C28_13 C 0.45959(10) 0.87989(10) 0.67528(10)
C29_13 C 0.42007(11) 0.92007(11) 0.67682(15)
H10_13 H 0.427898 0.927900 0.659103
C30_13 C 0.43335(10) 0.89504(10) 0.69009(10)
C31_13 C 0.39620(13) 0.89620(13) 0.72931(17)
N13_13 N 0.35432(13) 0.87489(11) 0.79255(12)
C32_13 C 0.42147(11) 0.88313(11) 0.71599(12)
H11_13 H 0.430285 0.866307 0.724698
N14_13 N 0.35862(12) 0.89364(11) 0.76994(12)
C33_13 C 0.38302(15) 0.88302(15) 0.7565(2)
O29_13 O 0.3006(3) 0.9066(4) 0.8006(3)
O30_13 O 0.3496(4) 0.9062(4) 0.8496(4)
C34_13 C 0.37989(10) 0.95959(10) 0.67528(10)
C35_13 C 0.39504(10) 0.93335(10) 0.69009(10)
N15_9 N 0.37489(11) 0.85432(13) 0.79255(12)
C36_13 C 0.38313(11) 0.92147(11) 0.71599(12)
H12_13 H 0.366307 0.930285 0.724698
N16_13 N 0.39364(11) 0.85862(12) 0.76994(12)
O39_11 O 0.34875(7) 0.89208(7) 0.46902(7)
O40_11 O 0.31296(7) 0.85648(7) 0.46907(7)
C46_11 C 0.32472(10) 0.87989(10) 0.45959(10)
C47_11 C 0.32318(15) 0.92007(11) 0.42007(11)
H16_11 H 0.340897 0.927900 0.427898
C48_11 C 0.30991(10) 0.89504(10) 0.43335(10)
C49_11 C 0.27069(17) 0.89620(13) 0.39620(13)
N21_11 N 0.20745(12) 0.87489(11) 0.35432(13)
C50_11 C 0.28401(12) 0.88313(11) 0.42147(11)
H17_11 H 0.275302 0.866307 0.430285
N22_11 N 0.23006(12) 0.89364(11) 0.35862(12)
C51_11 C 0.2435(2) 0.88302(15) 0.38302(15)
O41_11 O 0.1994(3) 0.9066(4) 0.3006(3)
O42_11 O 0.1504(4) 0.9062(4) 0.3496(4)
C52_11 C 0.32472(10) 0.95959(10) 0.37989(10)
C53_11 C 0.30991(10) 0.93335(10) 0.39504(10)
C54_11 C 0.28401(12) 0.92147(11) 0.38313(11)
H18_11 H 0.275302 0.930285 0.366307
N24_11 N 0.23006(12) 0.85862(12) 0.39364(11)
Cu13_12 Cu 0.66868(2) 0.83132(2) 0.500000
Cu16_12 Cu 0.62646(2) 0.87354(2) 0.500000
O45_11 O 0.53098(7) 0.89208(7) 0.34875(7)
O46_9 O 0.53098(7) 0.89208(7) 0.65125(7)
O47_11 O 0.46902(7) 0.89208(7) 0.34875(7)
O48_9 O 0.53098(7) 0.84875(7) 0.39208(7)
O49_11 O 0.53093(7) 0.85648(7) 0.31296(7)
O50_9 O 0.53093(7) 0.85648(7) 0.68704(7)
O51_11 O 0.46907(7) 0.85648(7) 0.31296(7)
O52_9 O 0.53093(7) 0.81296(7) 0.35648(7)
N25_9 N 0.37489(11) 0.64568(13) 0.70745(12)
O13_19 O 0.70260(9) 0.000000 0.29740(9)
O14_19 O 0.5921(3) 0.000000 0.4079(3)
O21_19 O 0.70260(9) 0.000000 0.70260(9)
O22_19 O 0.5921(3) 0.000000 0.5921(3)
O45_12 O 0.60792(7) 0.03098(7) 0.34875(7)
O49_12 O 0.64352(7) 0.03093(7) 0.31296(7)
O1_12 O 0.65125(7) 0.89208(7) 0.53098(7)
O2_12 O 0.68704(7) 0.85648(7) 0.53093(7)
C1_14 C 0.67528(10) 0.87989(10) 0.54041(10)
C2_14 C 0.67682(15) 0.92007(11) 0.57993(11)
H1_14 H 0.659103 0.927900 0.572102
C3_14 C 0.69009(10) 0.89504(10) 0.56665(10)
O4_16 O 0.70260(9) 0.79740(9) 0.500000
C4_14 C 0.72931(17) 0.89620(13) 0.60380(13)
N1_14 N 0.79255(12) 0.87489(11) 0.64568(13)
C5_14 C 0.71599(12) 0.88313(11) 0.57853(11)
H2_14 H 0.724698 0.866307 0.569715
N2_14 N 0.76994(12) 0.89364(11) 0.64138(12)
C6_14 C 0.7565(2) 0.88302(15) 0.61698(15)
O5_16 O 0.5921(3) 0.9079(3) 0.500000
O6_14 O 0.8006(3) 0.9066(4) 0.6994(3)
O7_14 O 0.8496(4) 0.9062(4) 0.6504(4)
O8_12 O 0.65125(7) 0.96902(7) 0.60792(7)
O9_12 O 0.68704(7) 0.96907(7) 0.64352(7)
C7_14 C 0.67528(10) 0.95959(10) 0.62011(10)
C8_14 C 0.69009(10) 0.93335(10) 0.60496(10)
C9_14 C 0.71599(12) 0.92147(11) 0.61687(11)
H3_14 H 0.724698 0.930285 0.633693
N4_14 N 0.76994(12) 0.85862(12) 0.60636(11)
O10_12 O 0.65125(7) 0.96902(7) 0.39208(7)
O11_12 O 0.68704(7) 0.96907(7) 0.35648(7)
C10_14 C 0.67528(10) 0.95959(10) 0.37989(10)
C11_14 C 0.67682(15) 0.92007(11) 0.42007(11)
H4_14 H 0.659103 0.927898 0.427900
C12_14 C 0.69009(10) 0.93335(10) 0.39504(10)
O13_20 O 0.70260(9) 1.000000 0.29740(9)
C13_14 C 0.72931(17) 0.89620(13) 0.39620(13)
N5_14 N 0.79255(12) 0.85432(13) 0.37489(11)
C14_14 C 0.71599(12) 0.92147(11) 0.38313(11)
H5_14 H 0.724698 0.930285 0.366307
N6_14 N 0.76994(12) 0.85862(12) 0.39364(11)
C15_14 C 0.7565(2) 0.88302(15) 0.38302(15)
O14_20 O 0.5921(3) 1.000000 0.4079(3)
O15_14 O 0.8006(3) 0.8006(3) 0.4066(4)
O16_14 O 0.8496(4) 0.8496(4) 0.4062(4)
O17_12 O 0.65125(7) 0.89208(7) 0.46902(7)
O18_12 O 0.68704(7) 0.85648(7) 0.46907(7)
C16_14 C 0.67528(10) 0.87989(10) 0.45959(10)
C17_14 C 0.69009(10) 0.89504(10) 0.43335(10)
C18_14 C 0.71599(12) 0.88313(11) 0.42147(11)
H6_14 H 0.724698 0.866307 0.430285
N8_14 N 0.76994(12) 0.89364(11) 0.35862(12)
O21_20 O 0.70260(9) 1.000000 0.70260(9)
O22_20 O 0.5921(3) 1.000000 0.5921(3)
O27_12 O 0.60792(7) 0.96902(7) 0.65125(7)
O28_12 O 0.64352(7) 0.96907(7) 0.68704(7)
C28_14 C 0.62011(10) 0.95959(10) 0.67528(10)
C29_14 C 0.57993(11) 0.92007(11) 0.67682(15)
H10_14 H 0.572100 0.927898 0.659103
C30_14 C 0.60496(10) 0.93335(10) 0.69009(10)
C31_14 C 0.60380(13) 0.89620(13) 0.72931(17)
N13_14 N 0.62511(11) 0.85432(13) 0.79255(12)
C32_14 C 0.61687(11) 0.92147(11) 0.71599(12)
H11_14 H 0.633693 0.930285 0.724698
N14_14 N 0.60636(11) 0.85862(12) 0.76994(12)
C33_14 C 0.61698(15) 0.88302(15) 0.7565(2)
O29_14 O 0.5934(4) 0.8006(3) 0.8006(3)
O30_14 O 0.5938(4) 0.8496(4) 0.8496(4)
C34_14 C 0.54041(10) 0.87989(10) 0.67528(10)
C35_14 C 0.56665(10) 0.89504(10) 0.69009(10)
C36_14 C 0.57853(11) 0.88313(11) 0.71599(12)
H12_14 H 0.569715 0.866307 0.724698
N16_14 N 0.64138(12) 0.89364(11) 0.76994(12)
O39_12 O 0.60792(7) 0.84875(7) 0.46902(7)
O40_12 O 0.64352(7) 0.81296(7) 0.46907(7)
C46_12 C 0.62011(10) 0.82472(10) 0.45959(10)
C47_12 C 0.57993(11) 0.82318(15) 0.42007(11)
H16_12 H 0.572100 0.840897 0.427898
C48_12 C 0.60496(10) 0.80991(10) 0.43335(10)
C49_12 C 0.60380(13) 0.77069(17) 0.39620(13)
N21_12 N 0.62511(11) 0.70745(12) 0.35432(13)
C50_12 C 0.61687(11) 0.78401(12) 0.42147(11)
H17_12 H 0.633693 0.775302 0.430285
N22_12 N 0.60636(11) 0.73006(12) 0.35862(12)
C51_12 C 0.61698(15) 0.7435(2) 0.38302(15)
O41_12 O 0.5934(4) 0.6994(3) 0.3006(3)
O42_12 O 0.5938(4) 0.6504(4) 0.3496(4)
C52_12 C 0.54041(10) 0.82472(10) 0.37989(10)
C53_12 C 0.56665(10) 0.80991(10) 0.39504(10)
C54_12 C 0.57853(11) 0.78401(12) 0.38313(11)
H18_12 H 0.569715 0.775302 0.366307
N24_12 N 0.64138(12) 0.73006(12) 0.39364(11)
O47_12 O 0.60792(7) 0.96902(7) 0.34875(7)
O51_12 O 0.64352(7) 0.96907(7) 0.31296(7)
N26_10 N 0.62511(11) 0.79255(12) 0.85432(13)
N27_8 N 0.62511(11) 0.64568(13) 0.29255(12)
C28_15 C 0.54041(10) 0.87989(10) 0.32472(10)
C29_15 C 0.57993(11) 0.92007(11) 0.32318(15)
H10_15 H 0.572102 0.927900 0.340897
C30_15 C 0.56665(10) 0.89504(10) 0.30991(10)
C31_15 C 0.60380(13) 0.89620(13) 0.27069(17)
N13_15 N 0.64568(13) 0.87489(11) 0.20745(12)
C32_15 C 0.57853(11) 0.88313(11) 0.28401(12)
H11_15 H 0.569715 0.866307 0.275302
N14_15 N 0.64138(12) 0.89364(11) 0.23006(12)
C33_15 C 0.61698(15) 0.88302(15) 0.2435(2)
O29_15 O 0.6994(3) 0.9066(4) 0.1994(3)
O30_15 O 0.6504(4) 0.9062(4) 0.1504(4)
C34_15 C 0.62011(10) 0.95959(10) 0.32472(10)
C35_15 C 0.60496(10) 0.93335(10) 0.30991(10)
N15_10 N 0.62511(11) 0.85432(13) 0.20745(12)
C36_15 C 0.61687(11) 0.92147(11) 0.28401(12)
H12_15 H 0.633693 0.930285 0.275302
N16_15 N 0.60636(11) 0.85862(12) 0.23006(12)
C1_15 C 0.62011(10) 0.04041(10) 0.32472(10)
C2_15 C 0.57993(11) 0.07993(11) 0.32318(15)
H1_15 H 0.572100 0.072102 0.340897
C3_15 C 0.60496(10) 0.06665(10) 0.30991(10)
C4_15 C 0.60380(13) 0.10380(13) 0.27069(17)
N1_15 N 0.62511(11) 0.14568(13) 0.20745(12)
C5_15 C 0.61687(11) 0.07853(11) 0.28401(12)
H2_15 H 0.633693 0.069715 0.275302
N2_15 N 0.60636(11) 0.14138(12) 0.23006(12)
C6_15 C 0.61698(15) 0.11698(15) 0.2435(2)
O6_15 O 0.5934(4) 0.1994(3) 0.1994(3)
O7_15 O 0.5938(4) 0.1504(4) 0.1504(4)
C7_15 C 0.54041(10) 0.12011(10) 0.32472(10)
C8_15 C 0.56665(10) 0.10496(10) 0.30991(10)
C9_15 C 0.57853(11) 0.11687(11) 0.28401(12)
H3_15 H 0.569715 0.133693 0.275302
N4_15 N 0.64138(12) 0.10636(11) 0.23006(12)
C19_12 C 0.45959(10) 0.12011(10) 0.32472(10)
C20_12 C 0.42007(11) 0.07993(11) 0.32318(15)
H7_12 H 0.427898 0.072100 0.340897
C21_12 C 0.43335(10) 0.10496(10) 0.30991(10)
C22_12 C 0.39620(13) 0.10380(13) 0.27069(17)
N9_12 N 0.35432(13) 0.12511(11) 0.20745(12)
C23_12 C 0.42147(11) 0.11687(11) 0.28401(12)
H8_12 H 0.430285 0.133693 0.275302
N10_12 N 0.35862(12) 0.10636(11) 0.23006(12)
C24_12 C 0.38302(15) 0.11698(15) 0.2435(2)
O23_12 O 0.3006(3) 0.0934(4) 0.1994(3)
O24_12 O 0.3496(4) 0.0938(4) 0.1504(4)
C25_12 C 0.37989(10) 0.04041(10) 0.32472(10)
C26_12 C 0.39504(10) 0.06665(10) 0.30991(10)
N11_8 N 0.37489(11) 0.14568(13) 0.20745(12)
C27_12 C 0.38313(11) 0.07853(11) 0.28401(12)
H9_12 H 0.366307 0.069715 0.275302
N12_12 N 0.39364(11) 0.14138(12) 0.23006(12)
N25_10 N 0.62511(11) 0.20745(12) 0.14568(13)
C10_15 C 0.37989(10) 0.95959(10) 0.32472(10)
C11_15 C 0.42007(11) 0.92007(11) 0.32318(15)
H4_15 H 0.427900 0.927898 0.340897
C12_15 C 0.39504(10) 0.93335(10) 0.30991(10)
C13_15 C 0.39620(13) 0.89620(13) 0.27069(17)
N5_15 N 0.37489(11) 0.85432(13) 0.20745(12)
C14_15 C 0.38313(11) 0.92147(11) 0.28401(12)
H5_15 H 0.366307 0.930285 0.275302
N6_15 N 0.39364(11) 0.85862(12) 0.23006(12)
C15_15 C 0.38302(15) 0.88302(15) 0.2435(2)
O15_15 O 0.4066(4) 0.8006(3) 0.1994(3)
O16_15 O 0.4062(4) 0.8496(4) 0.1504(4)
C16_15 C 0.45959(10) 0.87989(10) 0.32472(10)
C17_15 C 0.43335(10) 0.89504(10) 0.30991(10)
C18_15 C 0.42147(11) 0.88313(11) 0.28401(12)
H6_15 H 0.430285 0.866307 0.275302
N8_15 N 0.35862(12) 0.89364(11) 0.23006(12)
N29_10 N 0.37489(11) 0.79255(12) 0.14568(13)
Cu1_5 Cu 0.66868(2) 0.66868(2) 0.000000
Cu2_5 Cu 0.62646(2) 0.62646(2) 0.000000
O1_13 O 0.60792(7) 0.65125(7) 0.03098(7)
O2_13 O 0.64352(7) 0.68704(7) 0.03093(7)
C1_16 C 0.62011(10) 0.67528(10) 0.04041(10)
C2_16 C 0.57993(11) 0.67682(15) 0.07993(11)
H1_16 H 0.572100 0.659103 0.072102
C3_16 C 0.60496(10) 0.69009(10) 0.06665(10)
O4_17 O 0.70260(9) 0.70260(9) 0.000000
C4_16 C 0.60380(13) 0.72931(17) 0.10380(13)
N1_16 N 0.62511(11) 0.79255(12) 0.14568(13)
C5_16 C 0.61687(11) 0.71599(12) 0.07853(11)
H2_16 H 0.633693 0.724698 0.069715
N2_16 N 0.60636(11) 0.76994(12) 0.14138(12)
C6_16 C 0.61698(15) 0.7565(2) 0.11698(15)
O5_17 O 0.5921(3) 0.5921(3) 0.000000
O6_16 O 0.5934(4) 0.8006(3) 0.1994(3)
O7_16 O 0.5938(4) 0.8496(4) 0.1504(4)
O8_13 O 0.53098(7) 0.65125(7) 0.10792(7)
O9_13 O 0.53093(7) 0.68704(7) 0.14352(7)
C7_16 C 0.54041(10) 0.67528(10) 0.12011(10)
C8_16 C 0.56665(10) 0.69009(10) 0.10496(10)
C9_16 C 0.57853(11) 0.71599(12) 0.11687(11)
H3_16 H 0.569715 0.724698 0.133693
N4_16 N 0.64138(12) 0.76994(12) 0.10636(11)
Cu7_16 Cu 0.500000 0.66868(2) 0.16868(2)
Cu8_16 Cu 0.500000 0.62646(2) 0.12646(2)
O19_10 O 0.46902(7) 0.65125(7) 0.10792(7)
O20_10 O 0.46907(7) 0.68704(7) 0.14352(7)
C19_13 C 0.45959(10) 0.67528(10) 0.12011(10)
C20_13 C 0.42007(11) 0.67682(15) 0.07993(11)
H7_13 H 0.427898 0.659103 0.072100
C21_13 C 0.43335(10) 0.69009(10) 0.10496(10)
O21_21 O 0.500000 0.70260(9) 0.20260(9)
C22_13 C 0.39620(13) 0.72931(17) 0.10380(13)
N9_13 N 0.35432(13) 0.79255(12) 0.12511(11)
C23_13 C 0.42147(11) 0.71599(12) 0.11687(11)
H8_13 H 0.430285 0.724698 0.133693
N10_13 N 0.35862(12) 0.76994(12) 0.10636(11)
C24_13 C 0.38302(15) 0.7565(2) 0.11698(15)
O22_21 O 0.500000 0.5921(3) 0.0921(3)
O23_13 O 0.3006(3) 0.8006(3) 0.0934(4)
O24_13 O 0.3496(4) 0.8496(4) 0.0938(4)
O25_10 O 0.39208(7) 0.65125(7) 0.03098(7)
O26_10 O 0.35648(7) 0.68704(7) 0.03093(7)
C25_13 C 0.37989(10) 0.67528(10) 0.04041(10)
C26_13 C 0.39504(10) 0.69009(10) 0.06665(10)
C27_13 C 0.38313(11) 0.71599(12) 0.07853(11)
H9_13 H 0.366307 0.724698 0.069715
N12_13 N 0.39364(11) 0.76994(12) 0.14138(12)
O27_13 O 0.53098(7) 0.60792(7) 0.15125(7)
O28_13 O 0.53093(7) 0.64352(7) 0.18704(7)
C28_16 C 0.54041(10) 0.62011(10) 0.17528(10)
C29_16 C 0.57993(11) 0.57993(11) 0.17682(15)
H10_16 H 0.572102 0.572100 0.159103
C30_16 C 0.56665(10) 0.60496(10) 0.19009(10)
C31_16 C 0.60380(13) 0.60380(13) 0.22931(17)
N13_16 N 0.64568(13) 0.62511(11) 0.29255(12)
C32_16 C 0.57853(11) 0.61687(11) 0.21599(12)
H11_16 H 0.569715 0.633693 0.224698
N14_16 N 0.64138(12) 0.60636(11) 0.26994(12)
C33_16 C 0.61698(15) 0.61698(15) 0.2565(2)
O29_16 O 0.6994(3) 0.5934(4) 0.3006(3)
O30_16 O 0.6504(4) 0.5938(4) 0.3496(4)
O31_4 O 0.60792(7) 0.53098(7) 0.15125(7)
O32_4 O 0.64352(7) 0.53093(7) 0.18704(7)
C34_16 C 0.62011(10) 0.54041(10) 0.17528(10)
C35_16 C 0.60496(10) 0.56665(10) 0.19009(10)
C36_16 C 0.61687(11) 0.57853(11) 0.21599(12)
H12_16 H 0.633693 0.569715 0.224698
N16_16 N 0.60636(11) 0.64138(12) 0.26994(12)
O33_4 O 0.65125(7) 0.53098(7) 0.10792(7)
O34_4 O 0.68704(7) 0.53093(7) 0.14352(7)
C37_4 C 0.67528(10) 0.54041(10) 0.12011(10)
C38_4 C 0.67682(15) 0.57993(11) 0.07993(11)
H13_4 H 0.659103 0.572102 0.072100
C39_4 C 0.69009(10) 0.56665(10) 0.10496(10)
C40_4 C 0.72931(17) 0.60380(13) 0.10380(13)
N17_4 N 0.79255(12) 0.64568(13) 0.12511(11)
C41_4 C 0.71599(12) 0.57853(11) 0.11687(11)
H14_4 H 0.724698 0.569715 0.133693
N18_4 N 0.76994(12) 0.64138(12) 0.10636(11)
C42_4 C 0.7565(2) 0.61698(15) 0.11698(15)
O35_4 O 0.8006(3) 0.6994(3) 0.0934(4)
O36_4 O 0.8496(4) 0.6504(4) 0.0938(4)
O37_4 O 0.65125(7) 0.60792(7) 0.03098(7)
O38_4 O 0.68704(7) 0.64352(7) 0.03093(7)
C43_4 C 0.67528(10) 0.62011(10) 0.04041(10)
C44_4 C 0.69009(10) 0.60496(10) 0.06665(10)
C45_4 C 0.71599(12) 0.61687(11) 0.07853(11)
H15_4 H 0.724698 0.633693 0.069715
N20_4 N 0.76994(12) 0.60636(11) 0.14138(12)
Cu13_13 Cu 0.33132(2) 0.66868(2) 0.000000
Cu14_6 Cu 0.66868(2) 0.500000 0.16868(2)
Cu16_13 Cu 0.37354(2) 0.62646(2) 0.000000
Cu17_6 Cu 0.62646(2) 0.500000 0.12646(2)
O46_10 O 0.46902(7) 0.60792(7) 0.15125(7)
O50_10 O 0.46907(7) 0.64352(7) 0.18704(7)
Cu1_6 Cu 0.66868(2) 0.66868(2) 1.000000
Cu2_6 Cu 0.62646(2) 0.62646(2) 1.000000
O4_18 O 0.70260(9) 0.70260(9) 1.000000
O5_18 O 0.5921(3) 0.5921(3) 1.000000
Cu4_16 Cu 0.500000 0.66868(2) 0.83132(2)
Cu5_16 Cu 0.500000 0.62646(2) 0.87354(2)
O10_13 O 0.53098(7) 0.65125(7) 0.89208(7)
O11_13 O 0.53093(7) 0.68704(7) 0.85648(7)
C10_16 C 0.54041(10) 0.67528(10) 0.87989(10)
C11_16 C 0.57993(11) 0.67682(15) 0.92007(11)
H4_16 H 0.572102 0.659103 0.927900
C12_16 C 0.56665(10) 0.69009(10) 0.89504(10)
O13_21 O 0.500000 0.70260(9) 0.79740(9)
C13_16 C 0.60380(13) 0.72931(17) 0.89620(13)
N5_16 N 0.64568(13) 0.79255(12) 0.87489(11)
C14_16 C 0.57853(11) 0.71599(12) 0.88313(11)
H5_16 H 0.569715 0.724698 0.866307
N6_16 N 0.64138(12) 0.76994(12) 0.89364(11)
C15_16 C 0.61698(15) 0.7565(2) 0.88302(15)
O14_21 O 0.500000 0.5921(3) 0.9079(3)
O15_16 O 0.6994(3) 0.8006(3) 0.9066(4)
O16_16 O 0.6504(4) 0.8496(4) 0.9062(4)
O17_13 O 0.60792(7) 0.65125(7) 0.96902(7)
O18_13 O 0.64352(7) 0.68704(7) 0.96907(7)
C16_16 C 0.62011(10) 0.67528(10) 0.95959(10)
C17_16 C 0.60496(10) 0.69009(10) 0.93335(10)
C18_16 C 0.61687(11) 0.71599(12) 0.92147(11)
H6_16 H 0.633693 0.724698 0.930285
N8_16 N 0.60636(11) 0.76994(12) 0.85862(12)
O39_13 O 0.65125(7) 0.60792(7) 0.96902(7)
O40_13 O 0.68704(7) 0.64352(7) 0.96907(7)
C46_13 C 0.67528(10) 0.62011(10) 0.95959(10)
C47_13 C 0.67682(15) 0.57993(11) 0.92007(11)
H16_13 H 0.659103 0.572100 0.927898
C48_13 C 0.69009(10) 0.60496(10) 0.93335(10)
C49_13 C 0.72931(17) 0.60380(13) 0.89620(13)
N21_13 N 0.79255(12) 0.62511(11) 0.85432(13)
C50_13 C 0.71599(12) 0.61687(11) 0.92147(11)
H17_13 H 0.724698 0.633693 0.930285
N22_13 N 0.76994(12) 0.60636(11) 0.85862(12)
C51_13 C 0.7565(2) 0.61698(15) 0.88302(15)
O41_13 O 0.8006(3) 0.5934(4) 0.8006(3)
O42_13 O 0.8496(4) 0.5938(4) 0.8496(4)
O43_4 O 0.65125(7) 0.53098(7) 0.89208(7)
O44_4 O 0.68704(7) 0.53093(7) 0.85648(7)
C52_13 C 0.67528(10) 0.54041(10) 0.87989(10)
C53_13 C 0.69009(10) 0.56665(10) 0.89504(10)
C54_13 C 0.71599(12) 0.57853(11) 0.88313(11)
H18_13 H 0.724698 0.569715 0.866307
N24_13 N 0.76994(12) 0.64138(12) 0.89364(11)
Cu13_14 Cu 0.33132(2) 0.66868(2) 1.000000
Cu15_6 Cu 0.66868(2) 0.500000 0.83132(2)
Cu16_14 Cu 0.37354(2) 0.62646(2) 1.000000
Cu18_6 Cu 0.62646(2) 0.500000 0.87354(2)
O45_13 O 0.46902(7) 0.60792(7) 0.84875(7)
O47_13 O 0.53098(7) 0.60792(7) 0.84875(7)
O48_10 O 0.46902(7) 0.65125(7) 0.89208(7)
O49_13 O 0.46907(7) 0.64352(7) 0.81296(7)
O51_13 O 0.53093(7) 0.64352(7) 0.81296(7)
O52_10 O 0.46907(7) 0.68704(7) 0.85648(7)
O1_14 O 0.34875(7) 0.60792(7) 0.03098(7)
O2_14 O 0.31296(7) 0.64352(7) 0.03093(7)
C1_17 C 0.32472(10) 0.62011(10) 0.04041(10)
C2_17 C 0.32318(15) 0.57993(11) 0.07993(11)
H1_17 H 0.340897 0.572100 0.072102
C3_17 C 0.30991(10) 0.60496(10) 0.06665(10)
O4_19 O 0.29740(9) 0.70260(9) 0.000000
C4_17 C 0.27069(17) 0.60380(13) 0.10380(13)
N1_17 N 0.20745(12) 0.62511(11) 0.14568(13)
C5_17 C 0.28401(12) 0.61687(11) 0.07853(11)
H2_17 H 0.275302 0.633693 0.069715
N2_17 N 0.23006(12) 0.60636(11) 0.14138(12)
C6_17 C 0.2435(2) 0.61698(15) 0.11698(15)
O5_19 O 0.4079(3) 0.5921(3) 0.000000
O6_17 O 0.1994(3) 0.5934(4) 0.1994(3)
O7_17 O 0.1504(4) 0.5938(4) 0.1504(4)
O8_14 O 0.34875(7) 0.53098(7) 0.10792(7)
O9_14 O 0.31296(7) 0.53093(7) 0.14352(7)
C7_17 C 0.32472(10) 0.54041(10) 0.12011(10)
C8_17 C 0.30991(10) 0.56665(10) 0.10496(10)
C9_17 C 0.28401(12) 0.57853(11) 0.11687(11)
H3_17 H 0.275302 0.569715 0.133693
N4_17 N 0.23006(12) 0.64138(12) 0.10636(11)
Cu7_17 Cu 0.33132(2) 0.500000 0.16868(2)
Cu8_17 Cu 0.37354(2) 0.500000 0.12646(2)
O19_11 O 0.34875(7) 0.46902(7) 0.10792(7)
O20_11 O 0.31296(7) 0.46907(7) 0.14352(7)
C19_14 C 0.32472(10) 0.45959(10) 0.12011(10)
C20_14 C 0.32318(15) 0.42007(11) 0.07993(11)
H7_14 H 0.340897 0.427898 0.072100
C21_14 C 0.30991(10) 0.43335(10) 0.10496(10)
O21_22 O 0.29740(9) 0.500000 0.20260(9)
C22_14 C 0.27069(17) 0.39620(13) 0.10380(13)
N9_14 N 0.20745(12) 0.35432(13) 0.12511(11)
C23_14 C 0.28401(12) 0.42147(11) 0.11687(11)
H8_14 H 0.275302 0.430285 0.133693
N10_14 N 0.23006(12) 0.35862(12) 0.10636(11)
C24_14 C 0.2435(2) 0.38302(15) 0.11698(15)
O22_22 O 0.4079(3) 0.500000 0.0921(3)
O23_14 O 0.1994(3) 0.3006(3) 0.0934(4)
O24_14 O 0.1504(4) 0.3496(4) 0.0938(4)
O25_11 O 0.34875(7) 0.39208(7) 0.03098(7)
O26_11 O 0.31296(7) 0.35648(7) 0.03093(7)
C25_14 C 0.32472(10) 0.37989(10) 0.04041(10)
C26_14 C 0.30991(10) 0.39504(10) 0.06665(10)
C27_14 C 0.28401(12) 0.38313(11) 0.07853(11)
H9_14 H 0.275302 0.366307 0.069715
N12_14 N 0.23006(12) 0.39364(11) 0.14138(12)
O27_14 O 0.39208(7) 0.53098(7) 0.15125(7)
O28_14 O 0.35648(7) 0.53093(7) 0.18704(7)
C28_17 C 0.37989(10) 0.54041(10) 0.17528(10)
C29_17 C 0.42007(11) 0.57993(11) 0.17682(15)
H10_17 H 0.427900 0.572102 0.159103
C30_17 C 0.39504(10) 0.56665(10) 0.19009(10)
C31_17 C 0.39620(13) 0.60380(13) 0.22931(17)
N13_17 N 0.37489(11) 0.64568(13) 0.29255(12)
C32_17 C 0.38313(11) 0.57853(11) 0.21599(12)
H11_17 H 0.366307 0.569715 0.224698
N14_17 N 0.39364(11) 0.64138(12) 0.26994(12)
C33_17 C 0.38302(15) 0.61698(15) 0.2565(2)
O29_17 O 0.4066(4) 0.6994(3) 0.3006(3)
O30_17 O 0.4062(4) 0.6504(4) 0.3496(4)
C34_17 C 0.45959(10) 0.62011(10) 0.17528(10)
C35_17 C 0.43335(10) 0.60496(10) 0.19009(10)
C36_17 C 0.42147(11) 0.61687(11) 0.21599(12)
H12_17 H 0.430285 0.633693 0.224698
N16_17 N 0.35862(12) 0.60636(11) 0.26994(12)
Cu13_15 Cu 0.33132(2) 0.33132(2) 0.000000
Cu16_15 Cu 0.37354(2) 0.37354(2) 0.000000
O46_11 O 0.39208(7) 0.46902(7) 0.15125(7)
O50_11 O 0.35648(7) 0.46907(7) 0.18704(7)
O4_20 O 0.29740(9) 0.70260(9) 1.000000
O5_20 O 0.4079(3) 0.5921(3) 1.000000
Cu4_17 Cu 0.33132(2) 0.500000 0.83132(2)
Cu5_17 Cu 0.37354(2) 0.500000 0.87354(2)
O10_14 O 0.34875(7) 0.53098(7) 0.89208(7)
O11_14 O 0.31296(7) 0.53093(7) 0.85648(7)
C10_17 C 0.32472(10) 0.54041(10) 0.87989(10)
C11_17 C 0.32318(15) 0.57993(11) 0.92007(11)
H4_17 H 0.340897 0.572102 0.927900
C12_17 C 0.30991(10) 0.56665(10) 0.89504(10)
O13_22 O 0.29740(9) 0.500000 0.79740(9)
C13_17 C 0.27069(17) 0.60380(13) 0.89620(13)
N5_17 N 0.20745(12) 0.64568(13) 0.87489(11)
C14_17 C 0.28401(12) 0.57853(11) 0.88313(11)
H5_17 H 0.275302 0.569715 0.866307
N6_17 N 0.23006(12) 0.64138(12) 0.89364(11)
C15_17 C 0.2435(2) 0.61698(15) 0.88302(15)
O14_22 O 0.4079(3) 0.500000 0.9079(3)
O15_17 O 0.1994(3) 0.6994(3) 0.9066(4)
O16_17 O 0.1504(4) 0.6504(4) 0.9062(4)
O17_14 O 0.34875(7) 0.60792(7) 0.96902(7)
O18_14 O 0.31296(7) 0.64352(7) 0.96907(7)
C16_17 C 0.32472(10) 0.62011(10) 0.95959(10)
C17_17 C 0.30991(10) 0.60496(10) 0.93335(10)
C18_17 C 0.28401(12) 0.61687(11) 0.92147(11)
H6_17 H 0.275302 0.633693 0.930285
N8_17 N 0.23006(12) 0.60636(11) 0.85862(12)
O39_14 O 0.39208(7) 0.65125(7) 0.96902(7)
O40_14 O 0.35648(7) 0.68704(7) 0.96907(7)
C46_14 C 0.37989(10) 0.67528(10) 0.95959(10)
C47_14 C 0.42007(11) 0.67682(15) 0.92007(11)
H16_14 H 0.427900 0.659103 0.927898
C48_14 C 0.39504(10) 0.69009(10) 0.93335(10)
C49_14 C 0.39620(13) 0.72931(17) 0.89620(13)
N21_14 N 0.37489(11) 0.79255(12) 0.85432(13)
C50_14 C 0.38313(11) 0.71599(12) 0.92147(11)
H17_14 H 0.366307 0.724698 0.930285
N22_14 N 0.39364(11) 0.76994(12) 0.85862(12)
C51_14 C 0.38302(15) 0.7565(2) 0.88302(15)
O41_14 O 0.4066(4) 0.8006(3) 0.8006(3)
O42_14 O 0.4062(4) 0.8496(4) 0.8496(4)
C52_14 C 0.45959(10) 0.67528(10) 0.87989(10)
C53_14 C 0.43335(10) 0.69009(10) 0.89504(10)
C54_14 C 0.42147(11) 0.71599(12) 0.88313(11)
H18_14 H 0.430285 0.724698 0.866307
N24_14 N 0.35862(12) 0.76994(12) 0.89364(11)
Cu13_16 Cu 0.33132(2) 0.33132(2) 1.000000
Cu16_16 Cu 0.37354(2) 0.37354(2) 1.000000
O45_14 O 0.39208(7) 0.46902(7) 0.84875(7)
O47_14 O 0.39208(7) 0.53098(7) 0.84875(7)
O48_11 O 0.34875(7) 0.46902(7) 0.89208(7)
O49_14 O 0.35648(7) 0.46907(7) 0.81296(7)
O51_14 O 0.35648(7) 0.53093(7) 0.81296(7)
O52_11 O 0.31296(7) 0.46907(7) 0.85648(7)
O1_15 O 0.39208(7) 0.34875(7) 0.03098(7)
O2_15 O 0.35648(7) 0.31296(7) 0.03093(7)
C1_18 C 0.37989(10) 0.32472(10) 0.04041(10)
C2_18 C 0.42007(11) 0.32318(15) 0.07993(11)
H1_18 H 0.427900 0.340897 0.072102
C3_18 C 0.39504(10) 0.30991(10) 0.06665(10)
O4_21 O 0.29740(9) 0.29740(9) 0.000000
C4_18 C 0.39620(13) 0.27069(17) 0.10380(13)
N1_18 N 0.37489(11) 0.20745(12) 0.14568(13)
C5_18 C 0.38313(11) 0.28401(12) 0.07853(11)
H2_18 H 0.366307 0.275302 0.069715
N2_18 N 0.39364(11) 0.23006(12) 0.14138(12)
C6_18 C 0.38302(15) 0.2435(2) 0.11698(15)
O5_21 O 0.4079(3) 0.4079(3) 0.000000
O6_18 O 0.4066(4) 0.1994(3) 0.1994(3)
O7_18 O 0.4062(4) 0.1504(4) 0.1504(4)
O8_15 O 0.46902(7) 0.34875(7) 0.10792(7)
O9_15 O 0.46907(7) 0.31296(7) 0.14352(7)
C7_18 C 0.45959(10) 0.32472(10) 0.12011(10)
C8_18 C 0.43335(10) 0.30991(10) 0.10496(10)
C9_18 C 0.42147(11) 0.28401(12) 0.11687(11)
H3_18 H 0.430285 0.275302 0.133693
N4_18 N 0.35862(12) 0.23006(12) 0.10636(11)
Cu7_18 Cu 0.500000 0.33132(2) 0.16868(2)
Cu8_18 Cu 0.500000 0.37354(2) 0.12646(2)
O19_12 O 0.53098(7) 0.34875(7) 0.10792(7)
O20_12 O 0.53093(7) 0.31296(7) 0.14352(7)
C19_15 C 0.54041(10) 0.32472(10) 0.12011(10)
C20_15 C 0.57993(11) 0.32318(15) 0.07993(11)
H7_15 H 0.572102 0.340897 0.072100
C21_15 C 0.56665(10) 0.30991(10) 0.10496(10)
O21_23 O 0.500000 0.29740(9) 0.20260(9)
C22_15 C 0.60380(13) 0.27069(17) 0.10380(13)
N9_15 N 0.64568(13) 0.20745(12) 0.12511(11)
C23_15 C 0.57853(11) 0.28401(12) 0.11687(11)
H8_15 H 0.569715 0.275302 0.133693
N10_15 N 0.64138(12) 0.23006(12) 0.10636(11)
C24_15 C 0.61698(15) 0.2435(2) 0.11698(15)
O22_23 O 0.500000 0.4079(3) 0.0921(3)
O23_15 O 0.6994(3) 0.1994(3) 0.0934(4)
O24_15 O 0.6504(4) 0.1504(4) 0.0938(4)
O25_12 O 0.60792(7) 0.34875(7) 0.03098(7)
O26_12 O 0.64352(7) 0.31296(7) 0.03093(7)
C25_15 C 0.62011(10) 0.32472(10) 0.04041(10)
C26_15 C 0.60496(10) 0.30991(10) 0.06665(10)
C27_15 C 0.61687(11) 0.28401(12) 0.07853(11)
H9_15 H 0.633693 0.275302 0.069715
N12_15 N 0.60636(11) 0.23006(12) 0.14138(12)
O27_15 O 0.46902(7) 0.39208(7) 0.15125(7)
O28_15 O 0.46907(7) 0.35648(7) 0.18704(7)
C28_18 C 0.45959(10) 0.37989(10) 0.17528(10)
C29_18 C 0.42007(11) 0.42007(11) 0.17682(15)
H10_18 H 0.427898 0.427900 0.159103
C30_18 C 0.43335(10) 0.39504(10) 0.19009(10)
C31_18 C 0.39620(13) 0.39620(13) 0.22931(17)
N13_18 N 0.35432(13) 0.37489(11) 0.29255(12)
C32_18 C 0.42147(11) 0.38313(11) 0.21599(12)
H11_18 H 0.430285 0.366307 0.224698
N14_18 N 0.35862(12) 0.39364(11) 0.26994(12)
C33_18 C 0.38302(15) 0.38302(15) 0.2565(2)
O29_18 O 0.3006(3) 0.4066(4) 0.3006(3)
O30_18 O 0.3496(4) 0.4062(4) 0.3496(4)
C34_18 C 0.37989(10) 0.45959(10) 0.17528(10)
C35_18 C 0.39504(10) 0.43335(10) 0.19009(10)
C36_18 C 0.38313(11) 0.42147(11) 0.21599(12)
H12_18 H 0.366307 0.430285 0.224698
N16_18 N 0.39364(11) 0.35862(12) 0.26994(12)
Cu13_17 Cu 0.66868(2) 0.33132(2) 0.000000
Cu16_17 Cu 0.62646(2) 0.37354(2) 0.000000
O46_12 O 0.53098(7) 0.39208(7) 0.15125(7)
O50_12 O 0.53093(7) 0.35648(7) 0.18704(7)
O4_22 O 0.29740(9) 0.29740(9) 1.000000
O5_22 O 0.4079(3) 0.4079(3) 1.000000
Cu4_18 Cu 0.500000 0.33132(2) 0.83132(2)
Cu5_18 Cu 0.500000 0.37354(2) 0.87354(2)
O10_15 O 0.46902(7) 0.34875(7) 0.89208(7)
O11_15 O 0.46907(7) 0.31296(7) 0.85648(7)
C10_18 C 0.45959(10) 0.32472(10) 0.87989(10)
C11_18 C 0.42007(11) 0.32318(15) 0.92007(11)
H4_18 H 0.427898 0.340897 0.927900
C12_18 C 0.43335(10) 0.30991(10) 0.89504(10)
O13_23 O 0.500000 0.29740(9) 0.79740(9)
C13_18 C 0.39620(13) 0.27069(17) 0.89620(13)
N5_18 N 0.35432(13) 0.20745(12) 0.87489(11)
C14_18 C 0.42147(11) 0.28401(12) 0.88313(11)
H5_18 H 0.430285 0.275302 0.866307
N6_18 N 0.35862(12) 0.23006(12) 0.89364(11)
C15_18 C 0.38302(15) 0.2435(2) 0.88302(15)
O14_23 O 0.500000 0.4079(3) 0.9079(3)
O15_18 O 0.3006(3) 0.1994(3) 0.9066(4)
O16_18 O 0.3496(4) 0.1504(4) 0.9062(4)
O17_15 O 0.39208(7) 0.34875(7) 0.96902(7)
O18_15 O 0.35648(7) 0.31296(7) 0.96907(7)
C16_18 C 0.37989(10) 0.32472(10) 0.95959(10)
C17_18 C 0.39504(10) 0.30991(10) 0.93335(10)
C18_18 C 0.38313(11) 0.28401(12) 0.92147(11)
H6_18 H 0.366307 0.275302 0.930285
N8_18 N 0.39364(11) 0.23006(12) 0.85862(12)
O39_15 O 0.34875(7) 0.39208(7) 0.96902(7)
O40_15 O 0.31296(7) 0.35648(7) 0.96907(7)
C46_15 C 0.32472(10) 0.37989(10) 0.95959(10)
C47_15 C 0.32318(15) 0.42007(11) 0.92007(11)
H16_15 H 0.340897 0.427900 0.927898
C48_15 C 0.30991(10) 0.39504(10) 0.93335(10)
C49_15 C 0.27069(17) 0.39620(13) 0.89620(13)
N21_15 N 0.20745(12) 0.37489(11) 0.85432(13)
C50_15 C 0.28401(12) 0.38313(11) 0.92147(11)
H17_15 H 0.275302 0.366307 0.930285
N22_15 N 0.23006(12) 0.39364(11) 0.85862(12)
C51_15 C 0.2435(2) 0.38302(15) 0.88302(15)
O41_15 O 0.1994(3) 0.4066(4) 0.8006(3)
O42_15 O 0.1504(4) 0.4062(4) 0.8496(4)
C52_15 C 0.32472(10) 0.45959(10) 0.87989(10)
C53_15 C 0.30991(10) 0.43335(10) 0.89504(10)
C54_15 C 0.28401(12) 0.42147(11) 0.88313(11)
H18_15 H 0.275302 0.430285 0.866307
N24_15 N 0.23006(12) 0.35862(12) 0.89364(11)
Cu13_18 Cu 0.66868(2) 0.33132(2) 1.000000
Cu16_18 Cu 0.62646(2) 0.37354(2) 1.000000
O45_15 O 0.53098(7) 0.39208(7) 0.84875(7)
O47_15 O 0.46902(7) 0.39208(7) 0.84875(7)
O48_12 O 0.53098(7) 0.34875(7) 0.89208(7)
O49_15 O 0.53093(7) 0.35648(7) 0.81296(7)
O51_15 O 0.46907(7) 0.35648(7) 0.81296(7)
O52_12 O 0.53093(7) 0.31296(7) 0.85648(7)
O1_16 O 0.65125(7) 0.39208(7) 0.03098(7)
O2_16 O 0.68704(7) 0.35648(7) 0.03093(7)
C1_19 C 0.67528(10) 0.37989(10) 0.04041(10)
C2_19 C 0.67682(15) 0.42007(11) 0.07993(11)
H1_19 H 0.659103 0.427900 0.072102
C3_19 C 0.69009(10) 0.39504(10) 0.06665(10)
O4_23 O 0.70260(9) 0.29740(9) 0.000000
C4_19 C 0.72931(17) 0.39620(13) 0.10380(13)
N1_19 N 0.79255(12) 0.37489(11) 0.14568(13)
C5_19 C 0.71599(12) 0.38313(11) 0.07853(11)
H2_19 H 0.724698 0.366307 0.069715
N2_19 N 0.76994(12) 0.39364(11) 0.14138(12)
C6_19 C 0.7565(2) 0.38302(15) 0.11698(15)
O5_23 O 0.5921(3) 0.4079(3) 0.000000
O6_19 O 0.8006(3) 0.4066(4) 0.1994(3)
O7_19 O 0.8496(4) 0.4062(4) 0.1504(4)
O8_16 O 0.65125(7) 0.46902(7) 0.10792(7)
O9_16 O 0.68704(7) 0.46907(7) 0.14352(7)
C7_19 C 0.67528(10) 0.45959(10) 0.12011(10)
C8_19 C 0.69009(10) 0.43335(10) 0.10496(10)
C9_19 C 0.71599(12) 0.42147(11) 0.11687(11)
H3_19 H 0.724698 0.430285 0.133693
N4_19 N 0.76994(12) 0.35862(12) 0.10636(11)
O21_24 O 0.70260(9) 0.500000 0.20260(9)
O22_24 O 0.5921(3) 0.500000 0.0921(3)
O27_16 O 0.60792(7) 0.46902(7) 0.15125(7)
O28_16 O 0.64352(7) 0.46907(7) 0.18704(7)
C28_19 C 0.62011(10) 0.45959(10) 0.17528(10)
C29_19 C 0.57993(11) 0.42007(11) 0.17682(15)
H10_19 H 0.572100 0.427898 0.159103
C30_19 C 0.60496(10) 0.43335(10) 0.19009(10)
C31_19 C 0.60380(13) 0.39620(13) 0.22931(17)
N13_19 N 0.62511(11) 0.35432(13) 0.29255(12)
C32_19 C 0.61687(11) 0.42147(11) 0.21599(12)
H11_19 H 0.633693 0.430285 0.224698
N14_19 N 0.60636(11) 0.35862(12) 0.26994(12)
C33_19 C 0.61698(15) 0.38302(15) 0.2565(2)
O29_19 O 0.5934(4) 0.3006(3) 0.3006(3)
O30_19 O 0.5938(4) 0.3496(4) 0.3496(4)
C34_19 C 0.54041(10) 0.37989(10) 0.17528(10)
C35_19 C 0.56665(10) 0.39504(10) 0.19009(10)
C36_19 C 0.57853(11) 0.38313(11) 0.21599(12)
H12_19 H 0.569715 0.366307 0.224698
N16_19 N 0.64138(12) 0.39364(11) 0.26994(12)
O4_24 O 0.70260(9) 0.29740(9) 1.000000
O5_24 O 0.5921(3) 0.4079(3) 1.000000
O10_16 O 0.65125(7) 0.46902(7) 0.89208(7)
O11_16 O 0.68704(7) 0.46907(7) 0.85648(7)
C10_19 C 0.67528(10) 0.45959(10) 0.87989(10)
C11_19 C 0.67682(15) 0.42007(11) 0.92007(11)
H4_19 H 0.659103 0.427898 0.927900
C12_19 C 0.69009(10) 0.43335(10) 0.89504(10)
O13_24 O 0.70260(9) 0.500000 0.79740(9)
C13_19 C 0.72931(17) 0.39620(13) 0.89620(13)
N5_19 N 0.79255(12) 0.35432(13) 0.87489(11)
C14_19 C 0.71599(12) 0.42147(11) 0.88313(11)
H5_19 H 0.724698 0.430285 0.866307
N6_19 N 0.76994(12) 0.35862(12) 0.89364(11)
C15_19 C 0.7565(2) 0.38302(15) 0.88302(15)
O14_24 O 0.5921(3) 0.500000 0.9079(3)
O15_19 O 0.8006(3) 0.3006(3) 0.9066(4)
O16_19 O 0.8496(4) 0.3496(4) 0.9062(4)
O17_16 O 0.65125(7) 0.39208(7) 0.96902(7)
O18_16 O 0.68704(7) 0.35648(7) 0.96907(7)
C16_19 C 0.67528(10) 0.37989(10) 0.95959(10)
C17_19 C 0.69009(10) 0.39504(10) 0.93335(10)
C18_19 C 0.71599(12) 0.38313(11) 0.92147(11)
H6_19 H 0.724698 0.366307 0.930285
N8_19 N 0.76994(12) 0.39364(11) 0.85862(12)
O39_16 O 0.60792(7) 0.34875(7) 0.96902(7)
O40_16 O 0.64352(7) 0.31296(7) 0.96907(7)
C46_16 C 0.62011(10) 0.32472(10) 0.95959(10)
C47_16 C 0.57993(11) 0.32318(15) 0.92007(11)
H16_16 H 0.572100 0.340897 0.927898
C48_16 C 0.60496(10) 0.30991(10) 0.93335(10)
C49_16 C 0.60380(13) 0.27069(17) 0.89620(13)
N21_16 N 0.62511(11) 0.20745(12) 0.85432(13)
C50_16 C 0.61687(11) 0.28401(12) 0.92147(11)
H17_16 H 0.633693 0.275302 0.930285
N22_16 N 0.60636(11) 0.23006(12) 0.85862(12)
C51_16 C 0.61698(15) 0.2435(2) 0.88302(15)
O41_16 O 0.5934(4) 0.1994(3) 0.8006(3)
O42_16 O 0.5938(4) 0.1504(4) 0.8496(4)
C52_16 C 0.54041(10) 0.32472(10) 0.87989(10)
C53_16 C 0.56665(10) 0.30991(10) 0.89504(10)
C54_16 C 0.57853(11) 0.28401(12) 0.88313(11)
H18_16 H 0.569715 0.275302 0.866307
N24_16 N 0.64138(12) 0.23006(12) 0.89364(11)
O45_16 O 0.60792(7) 0.53098(7) 0.84875(7)
O47_16 O 0.60792(7) 0.46902(7) 0.84875(7)
O49_16 O 0.64352(7) 0.53093(7) 0.81296(7)
O51_16 O 0.64352(7) 0.46907(7) 0.81296(7)
C28_20 C 0.54041(10) 0.37989(10) 0.82472(10)
C29_20 C 0.57993(11) 0.42007(11) 0.82318(15)
H10_20 H 0.572102 0.427900 0.840897
C30_20 C 0.56665(10) 0.39504(10) 0.80991(10)
C31_20 C 0.60380(13) 0.39620(13) 0.77069(17)
N13_20 N 0.64568(13) 0.37489(11) 0.70745(12)
C32_20 C 0.57853(11) 0.38313(11) 0.78401(12)
H11_20 H 0.569715 0.366307 0.775302
N14_20 N 0.64138(12) 0.39364(11) 0.73006(12)
C33_20 C 0.61698(15) 0.38302(15) 0.7435(2)
O29_20 O 0.6994(3) 0.4066(4) 0.6994(3)
O30_20 O 0.6504(4) 0.4062(4) 0.6504(4)
C34_20 C 0.62011(10) 0.45959(10) 0.82472(10)
C35_20 C 0.60496(10) 0.43335(10) 0.80991(10)
C36_20 C 0.61687(11) 0.42147(11) 0.78401(12)
H12_20 H 0.633693 0.430285 0.775302
N16_20 N 0.60636(11) 0.35862(12) 0.73006(12)
C1_20 C 0.62011(10) 0.54041(10) 0.82472(10)
C2_20 C 0.57993(11) 0.57993(11) 0.82318(15)
H1_20 H 0.572100 0.572102 0.840897
C3_20 C 0.60496(10) 0.56665(10) 0.80991(10)
C4_20 C 0.60380(13) 0.60380(13) 0.77069(17)
N1_20 N 0.62511(11) 0.64568(13) 0.70745(12)
C5_20 C 0.61687(11) 0.57853(11) 0.78401(12)
H2_20 H 0.633693 0.569715 0.775302
N2_20 N 0.60636(11) 0.64138(12) 0.73006(12)
C6_20 C 0.61698(15) 0.61698(15) 0.7435(2)
O6_20 O 0.5934(4) 0.6994(3) 0.6994(3)
O7_20 O 0.5938(4) 0.6504(4) 0.6504(4)
C7_20 C 0.54041(10) 0.62011(10) 0.82472(10)
C8_20 C 0.56665(10) 0.60496(10) 0.80991(10)
C9_20 C 0.57853(11) 0.61687(11) 0.78401(12)
H3_20 H 0.569715 0.633693 0.775302
N4_20 N 0.64138(12) 0.60636(11) 0.73006(12)
C19_16 C 0.45959(10) 0.62011(10) 0.82472(10)
C20_16 C 0.42007(11) 0.57993(11) 0.82318(15)
H7_16 H 0.427898 0.572100 0.840897
C21_16 C 0.43335(10) 0.60496(10) 0.80991(10)
C22_16 C 0.39620(13) 0.60380(13) 0.77069(17)
N9_16 N 0.35432(13) 0.62511(11) 0.70745(12)
C23_16 C 0.42147(11) 0.61687(11) 0.78401(12)
H8_16 H 0.430285 0.633693 0.775302
N10_16 N 0.35862(12) 0.60636(11) 0.73006(12)
C24_16 C 0.38302(15) 0.61698(15) 0.7435(2)
O23_16 O 0.3006(3) 0.5934(4) 0.6994(3)
O24_16 O 0.3496(4) 0.5938(4) 0.6504(4)
C25_16 C 0.37989(10) 0.54041(10) 0.82472(10)
C26_16 C 0.39504(10) 0.56665(10) 0.80991(10)
C27_16 C 0.38313(11) 0.57853(11) 0.78401(12)
H9_16 H 0.366307 0.569715 0.775302
N12_16 N 0.39364(11) 0.64138(12) 0.73006(12)
C10_20 C 0.37989(10) 0.45959(10) 0.82472(10)
C11_20 C 0.42007(11) 0.42007(11) 0.82318(15)
H4_20 H 0.427900 0.427898 0.840897
C12_20 C 0.39504(10) 0.43335(10) 0.80991(10)
C13_20 C 0.39620(13) 0.39620(13) 0.77069(17)
N5_20 N 0.37489(11) 0.35432(13) 0.70745(12)
C14_20 C 0.38313(11) 0.42147(11) 0.78401(12)
H5_20 H 0.366307 0.430285 0.775302
N6_20 N 0.39364(11) 0.35862(12) 0.73006(12)
C15_20 C 0.38302(15) 0.38302(15) 0.7435(2)
O15_20 O 0.4066(4) 0.3006(3) 0.6994(3)
O16_20 O 0.4062(4) 0.3496(4) 0.6504(4)
C16_20 C 0.45959(10) 0.37989(10) 0.82472(10)
C17_20 C 0.43335(10) 0.39504(10) 0.80991(10)
C18_20 C 0.42147(11) 0.38313(11) 0.78401(12)
H6_20 H 0.430285 0.366307 0.775302
N8_20 N 0.35862(12) 0.39364(11) 0.73006(12)
P1 P 0.250000 0.250000 0.250000
O57 O 0.23020(18) 0.26980(18) 0.23020(18)
Mo1 Mo 0.19385(2) 0.25220(4) 0.19385(2)
O58 O 0.22512(15) 0.22512(15) 0.1845(2)
O59 O 0.1739(2) 0.28306(15) 0.21694(15)
O60 O 0.16830(16) 0.2446(2) 0.16830(16)
O61 O 0.23020(18) 0.23020(18) 0.26980(18)
O62 O 0.26980(18) 0.23020(18) 0.23020(18)
O63 O 0.26980(18) 0.26980(18) 0.26980(18)
Mo2 Mo 0.19385(2) 0.19385(2) 0.25220(4)
O64 O 0.1845(2) 0.22512(15) 0.22512(15)
O65 O 0.21694(15) 0.1739(2) 0.28306(15)
O66 O 0.16830(16) 0.16830(16) 0.2446(2)
Mo3 Mo 0.25220(4) 0.19385(2) 0.19385(2)
O67 O 0.22512(15) 0.1845(2) 0.22512(15)
O68 O 0.28306(15) 0.21694(15) 0.1739(2)
O69 O 0.2446(2) 0.16830(16) 0.16830(16)
Mo4 Mo 0.19385(2) 0.24780(4) 0.30615(2)
O70 O 0.22512(15) 0.27488(15) 0.3155(2)
O71 O 0.1739(2) 0.21694(15) 0.28306(15)
O72 O 0.16830(16) 0.2554(2) 0.33170(16)
Mo5 Mo 0.19385(2) 0.30615(2) 0.24780(4)
O73 O 0.1845(2) 0.27488(15) 0.27488(15)
O74 O 0.21694(15) 0.3261(2) 0.21694(15)
O75 O 0.16830(16) 0.33170(16) 0.2554(2)
Mo6 Mo 0.25220(4) 0.30615(2) 0.30615(2)
O76 O 0.22512(15) 0.3155(2) 0.27488(15)
O77 O 0.28306(15) 0.28306(15) 0.3261(2)
O78 O 0.2446(2) 0.33170(16) 0.33170(16)
Mo7 Mo 0.30615(2) 0.25220(4) 0.30615(2)
O79 O 0.27488(15) 0.22512(15) 0.3155(2)
O80 O 0.3261(2) 0.28306(15) 0.28306(15)
O81 O 0.33170(16) 0.2446(2) 0.33170(16)
Mo8 Mo 0.24780(4) 0.19385(2) 0.30615(2)
O82 O 0.27488(15) 0.1845(2) 0.27488(15)
O83 O 0.21694(15) 0.21694(15) 0.3261(2)
O84 O 0.2554(2) 0.16830(16) 0.33170(16)
Mo9 Mo 0.30615(2) 0.19385(2) 0.24780(4)
O85 O 0.3155(2) 0.22512(15) 0.27488(15)
O86 O 0.28306(15) 0.1739(2) 0.21694(15)
O87 O 0.33170(16) 0.16830(16) 0.2554(2)
Mo10 Mo 0.30615(2) 0.24780(4) 0.19385(2)
O88 O 0.27488(15) 0.27488(15) 0.1845(2)
O89 O 0.3261(2) 0.21694(15) 0.21694(15)
O90 O 0.33170(16) 0.2554(2) 0.16830(16)
Mo11 Mo 0.24780(4) 0.30615(2) 0.19385(2)
O91 O 0.27488(15) 0.3155(2) 0.22512(15)
O92 O 0.21694(15) 0.28306(15) 0.1739(2)
O93 O 0.2554(2) 0.33170(16) 0.16830(16)
Mo12 Mo 0.30615(2) 0.30615(2) 0.25220(4)
O94 O 0.3155(2) 0.27488(15) 0.22512(15)
O95 O 0.28306(15) 0.3261(2) 0.28306(15)
O96 O 0.33170(16) 0.33170(16) 0.2446(2)
P1_2 P 0.750000 0.250000 0.250000
O57_2 O 0.73020(18) 0.23020(18) 0.23020(18)
Mo1_2 Mo 0.74780(4) 0.19385(2) 0.19385(2)
O58_2 O 0.77488(15) 0.22512(15) 0.1845(2)
O59_2 O 0.71694(15) 0.1739(2) 0.21694(15)
O60_2 O 0.7554(2) 0.16830(16) 0.16830(16)
O61_2 O 0.76980(18) 0.23020(18) 0.26980(18)
O62_2 O 0.76980(18) 0.26980(18) 0.23020(18)
O63_2 O 0.73020(18) 0.26980(18) 0.26980(18)
Mo2_2 Mo 0.80615(2) 0.19385(2) 0.25220(4)
O64_2 O 0.77488(15) 0.1845(2) 0.22512(15)
O65_2 O 0.8261(2) 0.21694(15) 0.28306(15)
O66_2 O 0.83170(16) 0.16830(16) 0.2446(2)
Mo3_2 Mo 0.80615(2) 0.25220(4) 0.19385(2)
O67_2 O 0.8155(2) 0.22512(15) 0.22512(15)
O68_2 O 0.78306(15) 0.28306(15) 0.1739(2)
O69_2 O 0.83170(16) 0.2446(2) 0.16830(16)
Mo4_2 Mo 0.75220(4) 0.19385(2) 0.30615(2)
O70_2 O 0.72512(15) 0.22512(15) 0.3155(2)
O71_2 O 0.78306(15) 0.1739(2) 0.28306(15)
O72_2 O 0.7446(2) 0.16830(16) 0.33170(16)
Mo5_2 Mo 0.69385(2) 0.19385(2) 0.24780(4)
O73_2 O 0.72512(15) 0.1845(2) 0.27488(15)
O74_2 O 0.6739(2) 0.21694(15) 0.21694(15)
O75_2 O 0.66830(16) 0.16830(16) 0.2554(2)
Mo6_2 Mo 0.69385(2) 0.25220(4) 0.30615(2)
O76_2 O 0.6845(2) 0.22512(15) 0.27488(15)
O77_2 O 0.71694(15) 0.28306(15) 0.3261(2)
O78_2 O 0.66830(16) 0.2446(2) 0.33170(16)
Mo7_2 Mo 0.74780(4) 0.30615(2) 0.30615(2)
O79_2 O 0.77488(15) 0.27488(15) 0.3155(2)
O80_2 O 0.71694(15) 0.3261(2) 0.28306(15)
O81_2 O 0.7554(2) 0.33170(16) 0.33170(16)
Mo8_2 Mo 0.80615(2) 0.24780(4) 0.30615(2)
O82_2 O 0.8155(2) 0.27488(15) 0.27488(15)
O83_2 O 0.78306(15) 0.21694(15) 0.3261(2)
O84_2 O 0.83170(16) 0.2554(2) 0.33170(16)
Mo9_2 Mo 0.80615(2) 0.30615(2) 0.24780(4)
O85_2 O 0.77488(15) 0.3155(2) 0.27488(15)
O86_2 O 0.8261(2) 0.28306(15) 0.21694(15)
O87_2 O 0.83170(16) 0.33170(16) 0.2554(2)
Mo10_2 Mo 0.75220(4) 0.30615(2) 0.19385(2)
O88_2 O 0.72512(15) 0.27488(15) 0.1845(2)
O89_2 O 0.78306(15) 0.3261(2) 0.21694(15)
O90_2 O 0.7446(2) 0.33170(16) 0.16830(16)
Mo11_2 Mo 0.69385(2) 0.24780(4) 0.19385(2)
O91_2 O 0.6845(2) 0.27488(15) 0.22512(15)
O92_2 O 0.71694(15) 0.21694(15) 0.1739(2)
O93_2 O 0.66830(16) 0.2554(2) 0.16830(16)
Mo12_2 Mo 0.69385(2) 0.30615(2) 0.25220(4)
O94_2 O 0.72512(15) 0.3155(2) 0.22512(15)
O95_2 O 0.6739(2) 0.28306(15) 0.28306(15)
O96_2 O 0.66830(16) 0.33170(16) 0.2446(2)
P1_3 P 0.750000 0.750000 0.250000
O57_3 O 0.76980(18) 0.73020(18) 0.23020(18)
Mo1_3 Mo 0.80615(2) 0.74780(4) 0.19385(2)
O58_3 O 0.77488(15) 0.77488(15) 0.1845(2)
O59_3 O 0.8261(2) 0.71694(15) 0.21694(15)
O60_3 O 0.83170(16) 0.7554(2) 0.16830(16)
O61_3 O 0.76980(18) 0.76980(18) 0.26980(18)
O62_3 O 0.73020(18) 0.76980(18) 0.23020(18)
O63_3 O 0.73020(18) 0.73020(18) 0.26980(18)
Mo2_3 Mo 0.80615(2) 0.80615(2) 0.25220(4)
O64_3 O 0.8155(2) 0.77488(15) 0.22512(15)
O65_3 O 0.78306(15) 0.8261(2) 0.28306(15)
O66_3 O 0.83170(16) 0.83170(16) 0.2446(2)
Mo3_3 Mo 0.74780(4) 0.80615(2) 0.19385(2)
O67_3 O 0.77488(15) 0.8155(2) 0.22512(15)
O68_3 O 0.71694(15) 0.78306(15) 0.1739(2)
O69_3 O 0.7554(2) 0.83170(16) 0.16830(16)
Mo4_3 Mo 0.80615(2) 0.75220(4) 0.30615(2)
O70_3 O 0.77488(15) 0.72512(15) 0.3155(2)
O71_3 O 0.8261(2) 0.78306(15) 0.28306(15)
O72_3 O 0.83170(16) 0.7446(2) 0.33170(16)
Mo5_3 Mo 0.80615(2) 0.69385(2) 0.24780(4)
O73_3 O 0.8155(2) 0.72512(15) 0.27488(15)
O74_3 O 0.78306(15) 0.6739(2) 0.21694(15)
O75_3 O 0.83170(16) 0.66830(16) 0.2554(2)
Mo6_3 Mo 0.74780(4) 0.69385(2) 0.30615(2)
O76_3 O 0.77488(15) 0.6845(2) 0.27488(15)
O77_3 O 0.71694(15) 0.71694(15) 0.3261(2)
O78_3 O 0.7554(2) 0.66830(16) 0.33170(16)
Mo7_3 Mo 0.69385(2) 0.74780(4) 0.30615(2)
O79_3 O 0.72512(15) 0.77488(15) 0.3155(2)
O80_3 O 0.6739(2) 0.71694(15) 0.28306(15)
O81_3 O 0.66830(16) 0.7554(2) 0.33170(16)
Mo8_3 Mo 0.75220(4) 0.80615(2) 0.30615(2)
O82_3 O 0.72512(15) 0.8155(2) 0.27488(15)
O83_3 O 0.78306(15) 0.78306(15) 0.3261(2)
O84_3 O 0.7446(2) 0.83170(16) 0.33170(16)
Mo9_3 Mo 0.69385(2) 0.80615(2) 0.24780(4)
O85_3 O 0.6845(2) 0.77488(15) 0.27488(15)
O86_3 O 0.71694(15) 0.8261(2) 0.21694(15)
O87_3 O 0.66830(16) 0.83170(16) 0.2554(2)
Mo10_3 Mo 0.69385(2) 0.75220(4) 0.19385(2)
O88_3 O 0.72512(15) 0.72512(15) 0.1845(2)
O89_3 O 0.6739(2) 0.78306(15) 0.21694(15)
O90_3 O 0.66830(16) 0.7446(2) 0.16830(16)
Mo11_3 Mo 0.75220(4) 0.69385(2) 0.19385(2)
O91_3 O 0.72512(15) 0.6845(2) 0.22512(15)
O92_3 O 0.78306(15) 0.71694(15) 0.1739(2)
O93_3 O 0.7446(2) 0.66830(16) 0.16830(16)
Mo12_3 Mo 0.69385(2) 0.69385(2) 0.25220(4)
O94_3 O 0.6845(2) 0.72512(15) 0.22512(15)
O95_3 O 0.71694(15) 0.6739(2) 0.28306(15)
O96_3 O 0.66830(16) 0.66830(16) 0.2446(2)
P1_4 P 0.250000 0.750000 0.250000
O57_4 O 0.26980(18) 0.76980(18) 0.23020(18)
Mo1_4 Mo 0.25220(4) 0.80615(2) 0.19385(2)
O58_4 O 0.22512(15) 0.77488(15) 0.1845(2)
O59_4 O 0.28306(15) 0.8261(2) 0.21694(15)
O60_4 O 0.2446(2) 0.83170(16) 0.16830(16)
O61_4 O 0.23020(18) 0.76980(18) 0.26980(18)
O62_4 O 0.23020(18) 0.73020(18) 0.23020(18)
O63_4 O 0.26980(18) 0.73020(18) 0.26980(18)
Mo2_4 Mo 0.19385(2) 0.80615(2) 0.25220(4)
O64_4 O 0.22512(15) 0.8155(2) 0.22512(15)
O65_4 O 0.1739(2) 0.78306(15) 0.28306(15)
O66_4 O 0.16830(16) 0.83170(16) 0.2446(2)
Mo3_4 Mo 0.19385(2) 0.74780(4) 0.19385(2)
O67_4 O 0.1845(2) 0.77488(15) 0.22512(15)
O68_4 O 0.21694(15) 0.71694(15) 0.1739(2)
O69_4 O 0.16830(16) 0.7554(2) 0.16830(16)
Mo4_4 Mo 0.24780(4) 0.80615(2) 0.30615(2)
O70_4 O 0.27488(15) 0.77488(15) 0.3155(2)
O71_4 O 0.21694(15) 0.8261(2) 0.28306(15)
O72_4 O 0.2554(2) 0.83170(16) 0.33170(16)
Mo5_4 Mo 0.30615(2) 0.80615(2) 0.24780(4)
O73_4 O 0.27488(15) 0.8155(2) 0.27488(15)
O74_4 O 0.3261(2) 0.78306(15) 0.21694(15)
O75_4 O 0.33170(16) 0.83170(16) 0.2554(2)
Mo6_4 Mo 0.30615(2) 0.74780(4) 0.30615(2)
O76_4 O 0.3155(2) 0.77488(15) 0.27488(15)
O77_4 O 0.28306(15) 0.71694(15) 0.3261(2)
O78_4 O 0.33170(16) 0.7554(2) 0.33170(16)
Mo7_4 Mo 0.25220(4) 0.69385(2) 0.30615(2)
O79_4 O 0.22512(15) 0.72512(15) 0.3155(2)
O80_4 O 0.28306(15) 0.6739(2) 0.28306(15)
O81_4 O 0.2446(2) 0.66830(16) 0.33170(16)
Mo8_4 Mo 0.19385(2) 0.75220(4) 0.30615(2)
O82_4 O 0.1845(2) 0.72512(15) 0.27488(15)
O83_4 O 0.21694(15) 0.78306(15) 0.3261(2)
O84_4 O 0.16830(16) 0.7446(2) 0.33170(16)
Mo9_4 Mo 0.19385(2) 0.69385(2) 0.24780(4)
O85_4 O 0.22512(15) 0.6845(2) 0.27488(15)
O86_4 O 0.1739(2) 0.71694(15) 0.21694(15)
O87_4 O 0.16830(16) 0.66830(16) 0.2554(2)
Mo10_4 Mo 0.24780(4) 0.69385(2) 0.19385(2)
O88_4 O 0.27488(15) 0.72512(15) 0.1845(2)
O89_4 O 0.21694(15) 0.6739(2) 0.21694(15)
O90_4 O 0.2554(2) 0.66830(16) 0.16830(16)
Mo11_4 Mo 0.30615(2) 0.75220(4) 0.19385(2)
O91_4 O 0.3155(2) 0.72512(15) 0.22512(15)
O92_4 O 0.28306(15) 0.78306(15) 0.1739(2)
O93_4 O 0.33170(16) 0.7446(2) 0.16830(16)
Mo12_4 Mo 0.30615(2) 0.69385(2) 0.25220(4)
O94_4 O 0.27488(15) 0.6845(2) 0.22512(15)
O95_4 O 0.3261(2) 0.71694(15) 0.28306(15)
O96_4 O 0.33170(16) 0.66830(16) 0.2446(2)
P1_5 P 0.250000 0.750000 0.750000
O57_5 O 0.23020(18) 0.73020(18) 0.76980(18)
Mo1_5 Mo 0.19385(2) 0.74780(4) 0.80615(2)
O58_5 O 0.22512(15) 0.77488(15) 0.8155(2)
O59_5 O 0.1739(2) 0.71694(15) 0.78306(15)
O60_5 O 0.16830(16) 0.7554(2) 0.83170(16)
O61_5 O 0.23020(18) 0.76980(18) 0.73020(18)
O62_5 O 0.26980(18) 0.76980(18) 0.76980(18)
O63_5 O 0.26980(18) 0.73020(18) 0.73020(18)
Mo2_5 Mo 0.19385(2) 0.80615(2) 0.74780(4)
O64_5 O 0.1845(2) 0.77488(15) 0.77488(15)
O65_5 O 0.21694(15) 0.8261(2) 0.71694(15)
O66_5 O 0.16830(16) 0.83170(16) 0.7554(2)
Mo3_5 Mo 0.25220(4) 0.80615(2) 0.80615(2)
O67_5 O 0.22512(15) 0.8155(2) 0.77488(15)
O68_5 O 0.28306(15) 0.78306(15) 0.8261(2)
O69_5 O 0.2446(2) 0.83170(16) 0.83170(16)
Mo4_5 Mo 0.19385(2) 0.75220(4) 0.69385(2)
O70_5 O 0.22512(15) 0.72512(15) 0.6845(2)
O71_5 O 0.1739(2) 0.78306(15) 0.71694(15)
O72_5 O 0.16830(16) 0.7446(2) 0.66830(16)
Mo5_5 Mo 0.19385(2) 0.69385(2) 0.75220(4)
O73_5 O 0.1845(2) 0.72512(15) 0.72512(15)
O74_5 O 0.21694(15) 0.6739(2) 0.78306(15)
O75_5 O 0.16830(16) 0.66830(16) 0.7446(2)
Mo6_5 Mo 0.25220(4) 0.69385(2) 0.69385(2)
O76_5 O 0.22512(15) 0.6845(2) 0.72512(15)
O77_5 O 0.28306(15) 0.71694(15) 0.6739(2)
O78_5 O 0.2446(2) 0.66830(16) 0.66830(16)
Mo7_5 Mo 0.30615(2) 0.74780(4) 0.69385(2)
O79_5 O 0.27488(15) 0.77488(15) 0.6845(2)
O80_5 O 0.3261(2) 0.71694(15) 0.71694(15)
O81_5 O 0.33170(16) 0.7554(2) 0.66830(16)
Mo8_5 Mo 0.24780(4) 0.80615(2) 0.69385(2)
O82_5 O 0.27488(15) 0.8155(2) 0.72512(15)
O83_5 O 0.21694(15) 0.78306(15) 0.6739(2)
O84_5 O 0.2554(2) 0.83170(16) 0.66830(16)
Mo9_5 Mo 0.30615(2) 0.80615(2) 0.75220(4)
O85_5 O 0.3155(2) 0.77488(15) 0.72512(15)
O86_5 O 0.28306(15) 0.8261(2) 0.78306(15)
O87_5 O 0.33170(16) 0.83170(16) 0.7446(2)
Mo10_5 Mo 0.30615(2) 0.75220(4) 0.80615(2)
O88_5 O 0.27488(15) 0.72512(15) 0.8155(2)
O89_5 O 0.3261(2) 0.78306(15) 0.78306(15)
O90_5 O 0.33170(16) 0.7446(2) 0.83170(16)
Mo11_5 Mo 0.24780(4) 0.69385(2) 0.80615(2)
O91_5 O 0.27488(15) 0.6845(2) 0.77488(15)
O92_5 O 0.21694(15) 0.71694(15) 0.8261(2)
O93_5 O 0.2554(2) 0.66830(16) 0.83170(16)
Mo12_5 Mo 0.30615(2) 0.69385(2) 0.74780(4)
O94_5 O 0.3155(2) 0.72512(15) 0.77488(15)
O95_5 O 0.28306(15) 0.6739(2) 0.71694(15)
O96_5 O 0.33170(16) 0.66830(16) 0.7554(2)
P1_6 P 0.250000 0.250000 0.750000
O57_6 O 0.23020(18) 0.23020(18) 0.73020(18)
Mo1_6 Mo 0.19385(2) 0.19385(2) 0.74780(4)
O58_6 O 0.22512(15) 0.1845(2) 0.77488(15)
O59_6 O 0.1739(2) 0.21694(15) 0.71694(15)
O60_6 O 0.16830(16) 0.16830(16) 0.7554(2)
O61_6 O 0.23020(18) 0.26980(18) 0.76980(18)
O62_6 O 0.26980(18) 0.23020(18) 0.76980(18)
O63_6 O 0.26980(18) 0.26980(18) 0.73020(18)
Mo2_6 Mo 0.19385(2) 0.25220(4) 0.80615(2)
O64_6 O 0.1845(2) 0.22512(15) 0.77488(15)
O65_6 O 0.21694(15) 0.28306(15) 0.8261(2)
O66_6 O 0.16830(16) 0.2446(2) 0.83170(16)
Mo3_6 Mo 0.25220(4) 0.19385(2) 0.80615(2)
O67_6 O 0.22512(15) 0.22512(15) 0.8155(2)
O68_6 O 0.28306(15) 0.1739(2) 0.78306(15)
O69_6 O 0.2446(2) 0.16830(16) 0.83170(16)
Mo4_6 Mo 0.19385(2) 0.30615(2) 0.75220(4)
O70_6 O 0.22512(15) 0.3155(2) 0.72512(15)
O71_6 O 0.1739(2) 0.28306(15) 0.78306(15)
O72_6 O 0.16830(16) 0.33170(16) 0.7446(2)
Mo5_6 Mo 0.19385(2) 0.24780(4) 0.69385(2)
O73_6 O 0.1845(2) 0.27488(15) 0.72512(15)
O74_6 O 0.21694(15) 0.21694(15) 0.6739(2)
O75_6 O 0.16830(16) 0.2554(2) 0.66830(16)
Mo6_6 Mo 0.25220(4) 0.30615(2) 0.69385(2)
O76_6 O 0.22512(15) 0.27488(15) 0.6845(2)
O77_6 O 0.28306(15) 0.3261(2) 0.71694(15)
O78_6 O 0.2446(2) 0.33170(16) 0.66830(16)
Mo7_6 Mo 0.30615(2) 0.30615(2) 0.74780(4)
O79_6 O 0.27488(15) 0.3155(2) 0.77488(15)
O80_6 O 0.3261(2) 0.28306(15) 0.71694(15)
O81_6 O 0.33170(16) 0.33170(16) 0.7554(2)
Mo8_6 Mo 0.24780(4) 0.30615(2) 0.80615(2)
O82_6 O 0.27488(15) 0.27488(15) 0.8155(2)
O83_6 O 0.21694(15) 0.3261(2) 0.78306(15)
O84_6 O 0.2554(2) 0.33170(16) 0.83170(16)
Mo9_6 Mo 0.30615(2) 0.24780(4) 0.80615(2)
O85_6 O 0.3155(2) 0.27488(15) 0.77488(15)
O86_6 O 0.28306(15) 0.21694(15) 0.8261(2)
O87_6 O 0.33170(16) 0.2554(2) 0.83170(16)
Mo10_6 Mo 0.30615(2) 0.19385(2) 0.75220(4)
O88_6 O 0.27488(15) 0.1845(2) 0.72512(15)
O89_6 O 0.3261(2) 0.21694(15) 0.78306(15)
O90_6 O 0.33170(16) 0.16830(16) 0.7446(2)
Mo11_6 Mo 0.24780(4) 0.19385(2) 0.69385(2)
O91_6 O 0.27488(15) 0.22512(15) 0.6845(2)
O92_6 O 0.21694(15) 0.1739(2) 0.71694(15)
O93_6 O 0.2554(2) 0.16830(16) 0.66830(16)
Mo12_6 Mo 0.30615(2) 0.25220(4) 0.69385(2)
O94_6 O 0.3155(2) 0.22512(15) 0.72512(15)
O95_6 O 0.28306(15) 0.28306(15) 0.6739(2)
O96_6 O 0.33170(16) 0.2446(2) 0.66830(16)
P1_7 P 0.750000 0.250000 0.750000
O57_7 O 0.76980(18) 0.26980(18) 0.76980(18)
Mo1_7 Mo 0.80615(2) 0.25220(4) 0.80615(2)
O58_7 O 0.77488(15) 0.22512(15) 0.8155(2)
O59_7 O 0.8261(2) 0.28306(15) 0.78306(15)
O60_7 O 0.83170(16) 0.2446(2) 0.83170(16)
O61_7 O 0.76980(18) 0.23020(18) 0.73020(18)
O62_7 O 0.73020(18) 0.23020(18) 0.76980(18)
O63_7 O 0.73020(18) 0.26980(18) 0.73020(18)
Mo2_7 Mo 0.80615(2) 0.19385(2) 0.74780(4)
O64_7 O 0.8155(2) 0.22512(15) 0.77488(15)
O65_7 O 0.78306(15) 0.1739(2) 0.71694(15)
O66_7 O 0.83170(16) 0.16830(16) 0.7554(2)
Mo3_7 Mo 0.74780(4) 0.19385(2) 0.80615(2)
O67_7 O 0.77488(15) 0.1845(2) 0.77488(15)
O68_7 O 0.71694(15) 0.21694(15) 0.8261(2)
O69_7 O 0.7554(2) 0.16830(16) 0.83170(16)
Mo4_7 Mo 0.80615(2) 0.24780(4) 0.69385(2)
O70_7 O 0.77488(15) 0.27488(15) 0.6845(2)
O71_7 O 0.8261(2) 0.21694(15) 0.71694(15)
O72_7 O 0.83170(16) 0.2554(2) 0.66830(16)
Mo5_7 Mo 0.80615(2) 0.30615(2) 0.75220(4)
O73_7 O 0.8155(2) 0.27488(15) 0.72512(15)
O74_7 O 0.78306(15) 0.3261(2) 0.78306(15)
O75_7 O 0.83170(16) 0.33170(16) 0.7446(2)
Mo6_7 Mo 0.74780(4) 0.30615(2) 0.69385(2)
O76_7 O 0.77488(15) 0.3155(2) 0.72512(15)
O77_7 O 0.71694(15) 0.28306(15) 0.6739(2)
O78_7 O 0.7554(2) 0.33170(16) 0.66830(16)
Mo7_7 Mo 0.69385(2) 0.25220(4) 0.69385(2)
O79_7 O 0.72512(15) 0.22512(15) 0.6845(2)
O80_7 O 0.6739(2) 0.28306(15) 0.71694(15)
O81_7 O 0.66830(16) 0.2446(2) 0.66830(16)
Mo8_7 Mo 0.75220(4) 0.19385(2) 0.69385(2)
O82_7 O 0.72512(15) 0.1845(2) 0.72512(15)
O83_7 O 0.78306(15) 0.21694(15) 0.6739(2)
O84_7 O 0.7446(2) 0.16830(16) 0.66830(16)
Mo9_7 Mo 0.69385(2) 0.19385(2) 0.75220(4)
O85_7 O 0.6845(2) 0.22512(15) 0.72512(15)
O86_7 O 0.71694(15) 0.1739(2) 0.78306(15)
O87_7 O 0.66830(16) 0.16830(16) 0.7446(2)
Mo10_7 Mo 0.69385(2) 0.24780(4) 0.80615(2)
O88_7 O 0.72512(15) 0.27488(15) 0.8155(2)
O89_7 O 0.6739(2) 0.21694(15) 0.78306(15)
O90_7 O 0.66830(16) 0.2554(2) 0.83170(16)
Mo11_7 Mo 0.75220(4) 0.30615(2) 0.80615(2)
O91_7 O 0.72512(15) 0.3155(2) 0.77488(15)
O92_7 O 0.78306(15) 0.28306(15) 0.8261(2)
O93_7 O 0.7446(2) 0.33170(16) 0.83170(16)
Mo12_7 Mo 0.69385(2) 0.30615(2) 0.74780(4)
O94_7 O 0.6845(2) 0.27488(15) 0.77488(15)
O95_7 O 0.71694(15) 0.3261(2) 0.71694(15)
O96_7 O 0.66830(16) 0.33170(16) 0.7554(2)
P1_8 P 0.750000 0.750000 0.750000
O57_8 O 0.73020(18) 0.76980(18) 0.76980(18)
Mo1_8 Mo 0.74780(4) 0.80615(2) 0.80615(2)
O58_8 O 0.77488(15) 0.77488(15) 0.8155(2)
O59_8 O 0.71694(15) 0.8261(2) 0.78306(15)
O60_8 O 0.7554(2) 0.83170(16) 0.83170(16)
O61_8 O 0.76980(18) 0.76980(18) 0.73020(18)
O62_8 O 0.76980(18) 0.73020(18) 0.76980(18)
O63_8 O 0.73020(18) 0.73020(18) 0.73020(18)
Mo2_8 Mo 0.80615(2) 0.80615(2) 0.74780(4)
O64_8 O 0.77488(15) 0.8155(2) 0.77488(15)
O65_8 O 0.8261(2) 0.78306(15) 0.71694(15)
O66_8 O 0.83170(16) 0.83170(16) 0.7554(2)
Mo3_8 Mo 0.80615(2) 0.74780(4) 0.80615(2)
O67_8 O 0.8155(2) 0.77488(15) 0.77488(15)
O68_8 O 0.78306(15) 0.71694(15) 0.8261(2)
O69_8 O 0.83170(16) 0.7554(2) 0.83170(16)
Mo4_8 Mo 0.75220(4) 0.80615(2) 0.69385(2)
O70_8 O 0.72512(15) 0.77488(15) 0.6845(2)
O71_8 O 0.78306(15) 0.8261(2) 0.71694(15)
O72_8 O 0.7446(2) 0.83170(16) 0.66830(16)
Mo5_8 Mo 0.69385(2) 0.80615(2) 0.75220(4)
O73_8 O 0.72512(15) 0.8155(2) 0.72512(15)
O74_8 O 0.6739(2) 0.78306(15) 0.78306(15)
O75_8 O 0.66830(16) 0.83170(16) 0.7446(2)
Mo6_8 Mo 0.69385(2) 0.74780(4) 0.69385(2)
O76_8 O 0.6845(2) 0.77488(15) 0.72512(15)
O77_8 O 0.71694(15) 0.71694(15) 0.6739(2)
O78_8 O 0.66830(16) 0.7554(2) 0.66830(16)
Mo7_8 Mo 0.74780(4) 0.69385(2) 0.69385(2)
O79_8 O 0.77488(15) 0.72512(15) 0.6845(2)
O80_8 O 0.71694(15) 0.6739(2) 0.71694(15)
O81_8 O 0.7554(2) 0.66830(16) 0.66830(16)
Mo8_8 Mo 0.80615(2) 0.75220(4) 0.69385(2)
O82_8 O 0.8155(2) 0.72512(15) 0.72512(15)
O83_8 O 0.78306(15) 0.78306(15) 0.6739(2)
O84_8 O 0.83170(16) 0.7446(2) 0.66830(16)
Mo9_8 Mo 0.80615(2) 0.69385(2) 0.75220(4)
O85_8 O 0.77488(15) 0.6845(2) 0.72512(15)
O86_8 O 0.8261(2) 0.71694(15) 0.78306(15)
O87_8 O 0.83170(16) 0.66830(16) 0.7446(2)
Mo10_8 Mo 0.75220(4) 0.69385(2) 0.80615(2)
O88_8 O 0.72512(15) 0.72512(15) 0.8155(2)
O89_8 O 0.78306(15) 0.6739(2) 0.78306(15)
O90_8 O 0.7446(2) 0.66830(16) 0.83170(16)
Mo11_8 Mo 0.69385(2) 0.75220(4) 0.80615(2)
O91_8 O 0.6845(2) 0.72512(15) 0.77488(15)
O92_8 O 0.71694(15) 0.78306(15) 0.8261(2)
O93_8 O 0.66830(16) 0.7446(2) 0.83170(16)
Mo12_8 Mo 0.69385(2) 0.69385(2) 0.74780(4)
O94_8 O 0.72512(15) 0.6845(2) 0.77488(15)
O95_8 O 0.6739(2) 0.71694(15) 0.71694(15)
O96_8 O 0.66830(16) 0.66830(16) 0.7554(2)
loop_
_geom_bond_atom_site_label_1
_geom_bond_atom_site_label_2
_geom_bond_site_symmetry_1
_geom_bond_site_symmetry_2
Cu1 O2 1_555 1_555
Cu2 O1 1_555 1_555
Cu3 O3 1_555 1_555
O1 C1 1_555 1_555
O2 C1 1_555 1_555
C1 C3 1_555 1_555
C2 H1 1_555 1_555
O3 Cu21 1_555 1_555
C3 C2 1_555 1_555
O4 Cu1 1_555 1_555
C4 C5 1_555 1_555
N1 Cu3 1_555 1_555
C5 C3 1_555 1_555
H2 C5 1_555 1_555
N2 N1 1_555 1_555
C6 C4 1_555 1_555
O5 Cu2 1_555 1_555
O6 Cu3 1_555 1_555
O7 Cu3 1_555 1_555
O8 C7 1_555 1_555
O9 C7 1_555 1_555
C7 C8 1_555 1_555
C8 C2 1_555 1_555
N3 N1 1_555 1_555
C9 C4 1_555 1_555
H3 C9 1_555 1_555
N4 C6 1_555 1_555
Cu7 O9 1_555 1_555
Cu8 O8 1_555 1_555
O21 Cu7 1_555 1_555
O22 Cu8 1_555 1_555
Cu10 N13 1_555 1_555
O27 Cu8 1_555 1_555
O28 Cu7 1_555 1_555
C28 O27 1_555 1_555
C29 H10 1_555 1_555
C30 C28 1_555 1_555
C31 C32 1_555 1_555
N13 N14 1_555 1_555
C32 C30 1_555 1_555
H11 C32 1_555 1_555
N14 C33 1_555 1_555
C33 C31 1_555 1_555
O29 Cu10 1_555 1_555
O30 Cu10 1_555 1_555
O31 C34 1_555 1_555
O32 C34 1_555 1_555
C34 C35 1_555 1_555
C35 C29 1_555 1_555
N15 N13 1_555 1_555
C36 C31 1_555 1_555
H12 C36 1_555 1_555
N16 C33 1_555 1_555
Cu11 N17 1_555 1_555
O33 C37 1_555 1_555
O34 C37 1_555 1_555
C37 C39 1_555 1_555
C38 H13 1_555 1_555
C39 C38 1_555 1_555
C40 C41 1_555 1_555
N17 N18 1_555 1_555
C41 C39 1_555 1_555
H14 C41 1_555 1_555
N18 C42 1_555 1_555
C42 C40 1_555 1_555
O35 Cu11 1_555 1_555
O36 Cu11 1_555 1_555
O37 Cu2 1_555 1_555
O38 Cu1 1_555 1_555
C43 O37 1_555 1_555
C44 C38 1_555 1_555
N19 N17 1_555 1_555
C45 C40 1_555 1_555
H15 C45 1_555 1_555
N20 C42 1_555 1_555
Cu14 O32 1_555 1_555
Cu17 O31 1_555 1_555
Cu20 N15 1_555 1_555
Cu23 N19 1_555 1_555
Cu24 O3 1_555 1_555
O54 Cu10 1_555 1_555
O55 Cu11 1_555 1_555
N25 Cu3 1_555 1_555
N26 Cu10 1_555 1_555
N28 Cu11 1_555 1_555
N2 C6 1_555 1_555
C8 C9 1_555 1_555
N3 N4 1_555 1_555
N3 Cu24 1_555 1_555
O28 C28 1_555 1_555
C29 C30 1_555 1_555
C35 C36 1_555 1_555
N15 N16 1_555 1_555
O33 Cu17 1_555 1_555
O34 Cu14 1_555 1_555
O38 C43 1_555 1_555
C43 C44 1_555 1_555
C44 C45 1_555 1_555
N19 N20 1_555 1_555
Cu20 O54 1_555 1_555
Cu23 O55 1_555 1_555
O4_2 Cu1_2 1_555 1_555
O5_2 Cu2_2 1_555 1_555
Cu4 O11 1_555 1_555
Cu5 O10 1_555 1_555
Cu6 O12 1_555 1_555
O10 C10 1_555 1_555
O11 C10 1_555 1_555
C10 C12 1_555 1_555
C11 H4 1_555 1_555
O12 Cu19 1_555 1_555
C12 C11 1_555 1_555
O13 Cu4 1_555 1_555
C13 C14 1_555 1_555
N5 Cu6 1_555 1_555
C14 C12 1_555 1_555
H5 C14 1_555 1_555
N6 N5 1_555 1_555
C15 C13 1_555 1_555
O14 Cu5 1_555 1_555
O15 Cu6 1_555 1_555
O16 Cu6 1_555 1_555
O17 Cu2_2 1_555 1_555
O18 Cu1_2 1_555 1_555
C16 O17 1_555 1_555
C17 C11 1_555 1_555
N7 N5 1_555 1_555
C18 C13 1_555 1_555
H6 C18 1_555 1_555
N8 C15 1_555 1_555
Cu12 N21 1_555 1_555
O39 Cu2_2 1_555 1_555
O40 Cu1_2 1_555 1_555
C46 O39 1_555 1_555
C47 H16 1_555 1_555
C48 C46 1_555 1_555
C49 C50 1_555 1_555
N21 N22 1_555 1_555
C50 C48 1_555 1_555
H17 C50 1_555 1_555
N22 C51 1_555 1_555
C51 C49 1_555 1_555
O41 Cu12 1_555 1_555
O42 Cu12 1_555 1_555
O43 C52 1_555 1_555
O44 C52 1_555 1_555
C52 C53 1_555 1_555
C53 C47 1_555 1_555
N23 N21 1_555 1_555
C54 C49 1_555 1_555
H18 C54 1_555 1_555
N24 C51 1_555 1_555
Cu15 O44 1_555 1_555
Cu18 O43 1_555 1_555
Cu19 N7 1_555 1_555
Cu25 O12 1_555 1_555
Cu26 N23 1_555 1_555
O47 Cu5 1_555 1_555
O51 Cu4 1_555 1_555
O56 Cu12 1_555 1_555
N27 Cu12 1_555 1_555
N29 Cu6 1_555 1_555
N6 C15 1_555 1_555
O18 C16 1_555 1_555
C16 C17 1_555 1_555
C17 C18 1_555 1_555
N7 N8 1_555 1_555
O40 C46 1_555 1_555
C47 C48 1_555 1_555
C53 C54 1_555 1_555
N23 N24 1_555 1_555
Cu26 O56 1_555 1_555
Cu9 N9 1_555 1_555
O19 Cu8_2 1_555 1_555
O20 Cu7_2 1_555 1_555
C19 O19 1_555 1_555
C20 H7 1_555 1_555
C21 C19 1_555 1_555
O21_2 Cu7_2 1_555 1_555
C22 C23 1_555 1_555
N9 N10 1_555 1_555
C23 C21 1_555 1_555
H8 C23 1_555 1_555
N10 C24 1_555 1_555
C24 C22 1_555 1_555
O22_2 Cu8_2 1_555 1_555
O23 Cu9 1_555 1_555
O24 Cu9 1_555 1_555
O25 C25 1_555 1_555
O26 C25 1_555 1_555
C25 C26 1_555 1_555
C26 C20 1_555 1_555
N11 N9 1_555 1_555
C27 C22 1_555 1_555
H9 C27 1_555 1_555
N12 C24 1_555 1_555
Cu13 O26 1_555 1_555
Cu16 O25 1_555 1_555
Cu22 N11 1_555 1_555
O46 Cu8_2 1_555 1_555
O50 Cu7_2 1_555 1_555
O53 Cu9 1_555 1_555
N30 Cu9 1_555 1_555
O20 C19 1_555 1_555
C20 C21 1_555 1_555
C26 C27 1_555 1_555
N11 N12 1_555 1_555
Cu22 O53 1_555 1_555
O13_2 Cu4_2 1_555 1_555
O14_2 Cu5_2 1_555 1_555
O45 Cu5_2 1_555 1_555
O48 Cu5_2 1_555 1_555
O49 Cu4_2 1_555 1_555
O52 Cu4_2 1_555 1_555
Cu13 O2_2 1_555 1_555
Cu16 O1_2 1_555 1_555
Cu3_2 O3_2 1_555 1_555
O1_2 C1_2 1_555 1_555
O2_2 C1_2 1_555 1_555
C1_2 C3_2 1_555 1_555
C2_2 H1_2 1_555 1_555
O3_2 Cu21_2 1_555 1_555
C3_2 C2_2 1_555 1_555
O4_3 Cu13 1_555 1_555
C4_2 C5_2 1_555 1_555
N1_2 Cu3_2 1_555 1_555
C5_2 C3_2 1_555 1_555
H2_2 C5_2 1_555 1_555
N2_2 N1_2 1_555 1_555
C6_2 C4_2 1_555 1_555
O5_3 Cu16 1_555 1_555
O6_2 Cu3_2 1_555 1_555
O7_2 Cu3_2 1_555 1_555
O8_2 C7_2 1_555 1_555
O9_2 C7_2 1_555 1_555
C7_2 C8_2 1_555 1_555
C8_2 C2_2 1_555 1_555
N3_2 N1_2 1_555 1_555
C9_2 C4_2 1_555 1_555
H3_2 C9_2 1_555 1_555
N4_2 C6_2 1_555 1_555
Cu7_3 O9_2 1_555 1_555
Cu8_3 O8_2 1_555 1_555
O21_3 Cu7_3 1_555 1_555
O22_3 Cu8_3 1_555 1_555
Cu10_2 N13_2 1_555 1_555
O27_2 Cu8_3 1_555 1_555
O28_2 Cu7_3 1_555 1_555
C28_2 O27_2 1_555 1_555
C29_2 H10_2 1_555 1_555
C30_2 C28_2 1_555 1_555
C31_2 C32_2 1_555 1_555
N13_2 N14_2 1_555 1_555
C32_2 C30_2 1_555 1_555
H11_2 C32_2 1_555 1_555
N14_2 C33_2 1_555 1_555
C33_2 C31_2 1_555 1_555
O29_2 Cu10_2 1_555 1_555
O30_2 Cu10_2 1_555 1_555
O46 C34_2 1_555 1_555
O50 C34_2 1_555 1_555
C34_2 C35_2 1_555 1_555
C35_2 C29_2 1_555 1_555
N15_2 N13_2 1_555 1_555
C36_2 C31_2 1_555 1_555
H12_2 C36_2 1_555 1_555
N16_2 C33_2 1_555 1_555
Cu20_2 N15_2 1_555 1_555
Cu24_2 O3_2 1_555 1_555
O54_2 Cu10_2 1_555 1_555
N25_2 Cu3_2 1_555 1_555
N26_2 Cu10_2 1_555 1_555
N2_2 C6_2 1_555 1_555
C8_2 C9_2 1_555 1_555
N3_2 N4_2 1_555 1_555
N3_2 Cu24_2 1_555 1_555
O28_2 C28_2 1_555 1_555
C29_2 C30_2 1_555 1_555
C35_2 C36_2 1_555 1_555
N15_2 N16_2 1_555 1_555
Cu20_2 O54_2 1_555 1_555
O4_4 Cu13_2 1_555 1_555
O5_4 Cu16_2 1_555 1_555
Cu4_3 O11_2 1_555 1_555
Cu5_3 O10_2 1_555 1_555
Cu6_2 O12_2 1_555 1_555
O10_2 C10_2 1_555 1_555
O11_2 C10_2 1_555 1_555
C10_2 C12_2 1_555 1_555
C11_2 H4_2 1_555 1_555
O12_2 Cu19_2 1_555 1_555
C12_2 C11_2 1_555 1_555
O13_3 Cu4_3 1_555 1_555
C13_2 C14_2 1_555 1_555
N5_2 Cu6_2 1_555 1_555
C14_2 C12_2 1_555 1_555
H5_2 C14_2 1_555 1_555
N6_2 N5_2 1_555 1_555
C15_2 C13_2 1_555 1_555
O14_3 Cu5_3 1_555 1_555
O15_2 Cu6_2 1_555 1_555
O16_2 Cu6_2 1_555 1_555
O17_2 Cu16_2 1_555 1_555
O18_2 Cu13_2 1_555 1_555
C16_2 O17_2 1_555 1_555
C17_2 C11_2 1_555 1_555
N7_2 N5_2 1_555 1_555
C18_2 C13_2 1_555 1_555
H6_2 C18_2 1_555 1_555
N8_2 C15_2 1_555 1_555
Cu12_2 N21_2 1_555 1_555
O39_2 Cu16_2 1_555 1_555
O40_2 Cu13_2 1_555 1_555
C46_2 O39_2 1_555 1_555
C47_2 H16_2 1_555 1_555
C48_2 C46_2 1_555 1_555
C49_2 C50_2 1_555 1_555
N21_2 N22_2 1_555 1_555
C50_2 C48_2 1_555 1_555
H17_2 C50_2 1_555 1_555
N22_2 C51_2 1_555 1_555
C51_2 C49_2 1_555 1_555
O41_2 Cu12_2 1_555 1_555
O42_2 Cu12_2 1_555 1_555
O48 C52_2 1_555 1_555
O52 C52_2 1_555 1_555
C52_2 C53_2 1_555 1_555
C53_2 C47_2 1_555 1_555
N23_2 N21_2 1_555 1_555
C54_2 C49_2 1_555 1_555
H18_2 C54_2 1_555 1_555
N24_2 C51_2 1_555 1_555
Cu19_2 N7_2 1_555 1_555
Cu25_2 O12_2 1_555 1_555
Cu26_2 N23_2 1_555 1_555
O47_2 Cu5_3 1_555 1_555
O51_2 Cu4_3 1_555 1_555
O56_2 Cu12_2 1_555 1_555
N27_2 Cu12_2 1_555 1_555
N29_2 Cu6_2 1_555 1_555
N6_2 C15_2 1_555 1_555
O18_2 C16_2 1_555 1_555
C16_2 C17_2 1_555 1_555
C17_2 C18_2 1_555 1_555
N7_2 N8_2 1_555 1_555
O40_2 C46_2 1_555 1_555
C47_2 C48_2 1_555 1_555
C53_2 C54_2 1_555 1_555
N23_2 N24_2 1_555 1_555
Cu26_2 O56_2 1_555 1_555
Cu9_2 N9_2 1_555 1_555
O19_2 Cu8_4 1_555 1_555
O20_2 Cu7_4 1_555 1_555
C19_2 O19_2 1_555 1_555
C20_2 H7_2 1_555 1_555
C21_2 C19_2 1_555 1_555
O21_4 Cu7_4 1_555 1_555
C22_2 C23_2 1_555 1_555
N9_2 N10_2 1_555 1_555
C23_2 C21_2 1_555 1_555
H8_2 C23_2 1_555 1_555
N10_2 C24_2 1_555 1_555
C24_2 C22_2 1_555 1_555
O22_4 Cu8_4 1_555 1_555
O23_2 Cu9_2 1_555 1_555
O24_2 Cu9_2 1_555 1_555
O25_2 C25_2 1_555 1_555
O26_2 C25_2 1_555 1_555
C25_2 C26_2 1_555 1_555
C26_2 C20_2 1_555 1_555
N11_2 N9_2 1_555 1_555
C27_2 C22_2 1_555 1_555
H9_2 C27_2 1_555 1_555
N12_2 C24_2 1_555 1_555
Cu13_3 O26_2 1_555 1_555
Cu16_3 O25_2 1_555 1_555
Cu22_2 N11_2 1_555 1_555
O46_2 Cu8_4 1_555 1_555
O50_2 Cu7_4 1_555 1_555
O53_2 Cu9_2 1_555 1_555
N30_2 Cu9_2 1_555 1_555
O20_2 C19_2 1_555 1_555
C20_2 C21_2 1_555 1_555
C26_2 C27_2 1_555 1_555
N11_2 N12_2 1_555 1_555
Cu22_2 O53_2 1_555 1_555
O13_4 Cu4_4 1_555 1_555
O14_4 Cu5_4 1_555 1_555
O45_2 Cu5_4 1_555 1_555
O48_2 Cu5_4 1_555 1_555
O49_2 Cu4_4 1_555 1_555
O52_2 Cu4_4 1_555 1_555
Cu9_3 N9_3 1_555 1_555
O19_3 Cu8_5 1_555 1_555
O20_3 Cu7_5 1_555 1_555
C19_3 O19_3 1_555 1_555
C20_3 H7_3 1_555 1_555
C21_3 C19_3 1_555 1_555
O21_5 Cu7_5 1_555 1_555
C22_3 C23_3 1_555 1_555
N9_3 N10_3 1_555 1_555
C23_3 C21_3 1_555 1_555
H8_3 C23_3 1_555 1_555
N10_3 C24_3 1_555 1_555
C24_3 C22_3 1_555 1_555
O22_5 Cu8_5 1_555 1_555
O23_3 Cu9_3 1_555 1_555
O24_3 Cu9_3 1_555 1_555
O25_3 C25_3 1_555 1_555
O26_3 C25_3 1_555 1_555
C25_3 C26_3 1_555 1_555
C26_3 C20_3 1_555 1_555
N11_3 N9_3 1_555 1_555
C27_3 C22_3 1_555 1_555
H9_3 C27_3 1_555 1_555
N12_3 C24_3 1_555 1_555
Cu13_5 O26_3 1_555 1_555
Cu16_5 O25_3 1_555 1_555
Cu22_3 N11_3 1_555 1_555
O46_3 Cu8_5 1_555 1_555
O50_3 Cu7_5 1_555 1_555
O53_3 Cu9_3 1_555 1_555
N30_3 Cu9_3 1_555 1_555
O20_3 C19_3 1_555 1_555
C20_3 C21_3 1_555 1_555
C26_3 C27_3 1_555 1_555
N11_3 N12_3 1_555 1_555
Cu22_3 O53_3 1_555 1_555
O13_5 Cu4_5 1_555 1_555
O14_5 Cu5_5 1_555 1_555
O45_3 Cu5_5 1_555 1_555
O48_3 Cu5_5 1_555 1_555
O49_3 Cu4_5 1_555 1_555
O52_3 Cu4_5 1_555 1_555
Cu13_3 O2_3 1_555 1_555
Cu16_3 O1_3 1_555 1_555
Cu3_3 O3_3 1_555 1_555
O1_3 C1_3 1_555 1_555
O2_3 C1_3 1_555 1_555
C1_3 C3_3 1_555 1_555
C2_3 H1_3 1_555 1_555
O3_3 Cu21_3 1_555 1_555
C3_3 C2_3 1_555 1_555
O4_5 Cu13_3 1_555 1_555
C4_3 C5_3 1_555 1_555
N1_3 Cu3_3 1_555 1_555
C5_3 C3_3 1_555 1_555
H2_3 C5_3 1_555 1_555
N2_3 N1_3 1_555 1_555
C6_3 C4_3 1_555 1_555
O5_5 Cu16_3 1_555 1_555
O6_3 Cu3_3 1_555 1_555
O7_3 Cu3_3 1_555 1_555
O8_3 C7_3 1_555 1_555
O9_3 C7_3 1_555 1_555
C7_3 C8_3 1_555 1_555
C8_3 C2_3 1_555 1_555
N3_3 N1_3 1_555 1_555
C9_3 C4_3 1_555 1_555
H3_3 C9_3 1_555 1_555
N4_3 C6_3 1_555 1_555
Cu7_6 O9_3 1_555 1_555
Cu8_6 O8_3 1_555 1_555
O21_6 Cu7_6 1_555 1_555
O22_6 Cu8_6 1_555 1_555
Cu10_3 N13_3 1_555 1_555
O27_3 Cu8_6 1_555 1_555
O28_3 Cu7_6 1_555 1_555
C28_3 O27_3 1_555 1_555
C29_3 H10_3 1_555 1_555
C30_3 C28_3 1_555 1_555
C31_3 C32_3 1_555 1_555
N13_3 N14_3 1_555 1_555
C32_3 C30_3 1_555 1_555
H11_3 C32_3 1_555 1_555
N14_3 C33_3 1_555 1_555
C33_3 C31_3 1_555 1_555
O29_3 Cu10_3 1_555 1_555
O30_3 Cu10_3 1_555 1_555
O46_2 C34_3 1_555 1_555
O50_2 C34_3 1_555 1_555
C34_3 C35_3 1_555 1_555
C35_3 C29_3 1_555 1_555
N15_3 N13_3 1_555 1_555
C36_3 C31_3 1_555 1_555
H12_3 C36_3 1_555 1_555
N16_3 C33_3 1_555 1_555
Cu20_3 N15_3 1_555 1_555
Cu24_3 O3_3 1_555 1_555
O54_3 Cu10_3 1_555 1_555
N25_3 Cu3_3 1_555 1_555
N26_3 Cu10_3 1_555 1_555
N2_3 C6_3 1_555 1_555
C8_3 C9_3 1_555 1_555
N3_3 N4_3 1_555 1_555
N3_3 Cu24_3 1_555 1_555
O28_3 C28_3 1_555 1_555
C29_3 C30_3 1_555 1_555
C35_3 C36_3 1_555 1_555
N15_3 N16_3 1_555 1_555
Cu20_3 O54_3 1_555 1_555
O4_6 Cu13_4 1_555 1_555
O5_6 Cu16_4 1_555 1_555
Cu4_6 O11_3 1_555 1_555
Cu5_6 O10_3 1_555 1_555
Cu6_3 O12_3 1_555 1_555
O10_3 C10_3 1_555 1_555
O11_3 C10_3 1_555 1_555
C10_3 C12_3 1_555 1_555
C11_3 H4_3 1_555 1_555
O12_3 Cu19_3 1_555 1_555
C12_3 C11_3 1_555 1_555
O13_6 Cu4_6 1_555 1_555
C13_3 C14_3 1_555 1_555
N5_3 Cu6_3 1_555 1_555
C14_3 C12_3 1_555 1_555
H5_3 C14_3 1_555 1_555
N6_3 N5_3 1_555 1_555
C15_3 C13_3 1_555 1_555
O14_6 Cu5_6 1_555 1_555
O15_3 Cu6_3 1_555 1_555
O16_3 Cu6_3 1_555 1_555
O17_3 Cu16_4 1_555 1_555
O18_3 Cu13_4 1_555 1_555
C16_3 O17_3 1_555 1_555
C17_3 C11_3 1_555 1_555
N7_3 N5_3 1_555 1_555
C18_3 C13_3 1_555 1_555
H6_3 C18_3 1_555 1_555
N8_3 C15_3 1_555 1_555
Cu12_3 N21_3 1_555 1_555
O39_3 Cu16_4 1_555 1_555
O40_3 Cu13_4 1_555 1_555
C46_3 O39_3 1_555 1_555
C47_3 H16_3 1_555 1_555
C48_3 C46_3 1_555 1_555
C49_3 C50_3 1_555 1_555
N21_3 N22_3 1_555 1_555
C50_3 C48_3 1_555 1_555
H17_3 C50_3 1_555 1_555
N22_3 C51_3 1_555 1_555
C51_3 C49_3 1_555 1_555
O41_3 Cu12_3 1_555 1_555
O42_3 Cu12_3 1_555 1_555
O48_2 C52_3 1_555 1_555
O52_2 C52_3 1_555 1_555
C52_3 C53_3 1_555 1_555
C53_3 C47_3 1_555 1_555
N23_3 N21_3 1_555 1_555
C54_3 C49_3 1_555 1_555
H18_3 C54_3 1_555 1_555
N24_3 C51_3 1_555 1_555
Cu19_3 N7_3 1_555 1_555
Cu25_3 O12_3 1_555 1_555
Cu26_3 N23_3 1_555 1_555
O47_3 Cu5_6 1_555 1_555
O51_3 Cu4_6 1_555 1_555
O56_3 Cu12_3 1_555 1_555
N27_3 Cu12_3 1_555 1_555
N29_3 Cu6_3 1_555 1_555
N6_3 C15_3 1_555 1_555
O18_3 C16_3 1_555 1_555
C16_3 C17_3 1_555 1_555
C17_3 C18_3 1_555 1_555
N7_3 N8_3 1_555 1_555
O40_3 C46_3 1_555 1_555
C47_3 C48_3 1_555 1_555
C53_3 C54_3 1_555 1_555
N23_3 N24_3 1_555 1_555
Cu26_3 O56_3 1_555 1_555
O21_7 Cu14 1_555 1_555
O22_7 Cu17 1_555 1_555
O13_7 Cu15 1_555 1_555
O14_7 Cu18 1_555 1_555
O45_4 Cu18 1_555 1_555
O49_4 Cu15 1_555 1_555
Cu13_5 O2_4 1_555 1_555
Cu16_5 O1_4 1_555 1_555
Cu3_4 O3_4 1_555 1_555
O1_4 C1_4 1_555 1_555
O2_4 C1_4 1_555 1_555
C1_4 C3_4 1_555 1_555
C2_4 H1_4 1_555 1_555
O3_4 Cu21_4 1_555 1_555
C3_4 C2_4 1_555 1_555
O4_7 Cu13_5 1_555 1_555
C4_4 C5_4 1_555 1_555
N1_4 Cu3_4 1_555 1_555
C5_4 C3_4 1_555 1_555
H2_4 C5_4 1_555 1_555
N2_4 N1_4 1_555 1_555
C6_4 C4_4 1_555 1_555
O5_7 Cu16_5 1_555 1_555
O6_4 Cu3_4 1_555 1_555
O7_4 Cu3_4 1_555 1_555
O8_4 C7_4 1_555 1_555
O9_4 C7_4 1_555 1_555
C7_4 C8_4 1_555 1_555
C8_4 C2_4 1_555 1_555
N3_4 N1_4 1_555 1_555
C9_4 C4_4 1_555 1_555
H3_4 C9_4 1_555 1_555
N4_4 C6_4 1_555 1_555
Cu14_2 O9_4 1_555 1_555
Cu17_2 O8_4 1_555 1_555
O21_8 Cu14_2 1_555 1_555
O22_8 Cu17_2 1_555 1_555
Cu10_4 N13_4 1_555 1_555
O27_4 Cu17_2 1_555 1_555
O28_4 Cu14_2 1_555 1_555
C28_4 O27_4 1_555 1_555
C29_4 H10_4 1_555 1_555
C30_4 C28_4 1_555 1_555
C31_4 C32_4 1_555 1_555
N13_4 N14_4 1_555 1_555
C32_4 C30_4 1_555 1_555
H11_4 C32_4 1_555 1_555
N14_4 C33_4 1_555 1_555
C33_4 C31_4 1_555 1_555
O29_4 Cu10_4 1_555 1_555
O30_4 Cu10_4 1_555 1_555
O46_3 C34_4 1_555 1_555
O50_3 C34_4 1_555 1_555
C34_4 C35_4 1_555 1_555
C35_4 C29_4 1_555 1_555
N15_4 N13_4 1_555 1_555
C36_4 C31_4 1_555 1_555
H12_4 C36_4 1_555 1_555
N16_4 C33_4 1_555 1_555
Cu20_4 N15_4 1_555 1_555
Cu24_4 O3_4 1_555 1_555
O54_4 Cu10_4 1_555 1_555
N25_4 Cu3_4 1_555 1_555
N26_4 Cu10_4 1_555 1_555
N2_4 C6_4 1_555 1_555
C8_4 C9_4 1_555 1_555
N3_4 N4_4 1_555 1_555
N3_4 Cu24_4 1_555 1_555
O28_4 C28_4 1_555 1_555
C29_4 C30_4 1_555 1_555
C35_4 C36_4 1_555 1_555
N15_4 N16_4 1_555 1_555
Cu20_4 O54_4 1_555 1_555
O4_8 Cu13_6 1_555 1_555
O5_8 Cu16_6 1_555 1_555
Cu15_2 O11_4 1_555 1_555
Cu18_2 O10_4 1_555 1_555
Cu6_4 O12_4 1_555 1_555
O10_4 C10_4 1_555 1_555
O11_4 C10_4 1_555 1_555
C10_4 C12_4 1_555 1_555
C11_4 H4_4 1_555 1_555
O12_4 Cu19_4 1_555 1_555
C12_4 C11_4 1_555 1_555
O13_8 Cu15_2 1_555 1_555
C13_4 C14_4 1_555 1_555
N5_4 Cu6_4 1_555 1_555
C14_4 C12_4 1_555 1_555
H5_4 C14_4 1_555 1_555
N6_4 N5_4 1_555 1_555
C15_4 C13_4 1_555 1_555
O14_8 Cu18_2 1_555 1_555
O15_4 Cu6_4 1_555 1_555
O16_4 Cu6_4 1_555 1_555
O17_4 Cu16_6 1_555 1_555
O18_4 Cu13_6 1_555 1_555
C16_4 O17_4 1_555 1_555
C17_4 C11_4 1_555 1_555
N7_4 N5_4 1_555 1_555
C18_4 C13_4 1_555 1_555
H6_4 C18_4 1_555 1_555
N8_4 C15_4 1_555 1_555
Cu12_4 N21_4 1_555 1_555
O39_4 Cu16_6 1_555 1_555
O40_4 Cu13_6 1_555 1_555
C46_4 O39_4 1_555 1_555
C47_4 H16_4 1_555 1_555
C48_4 C46_4 1_555 1_555
C49_4 C50_4 1_555 1_555
N21_4 N22_4 1_555 1_555
C50_4 C48_4 1_555 1_555
H17_4 C50_4 1_555 1_555
N22_4 C51_4 1_555 1_555
C51_4 C49_4 1_555 1_555
O41_4 Cu12_4 1_555 1_555
O42_4 Cu12_4 1_555 1_555
O48_3 C52_4 1_555 1_555
O52_3 C52_4 1_555 1_555
C52_4 C53_4 1_555 1_555
C53_4 C47_4 1_555 1_555
N23_4 N21_4 1_555 1_555
C54_4 C49_4 1_555 1_555
H18_4 C54_4 1_555 1_555
N24_4 C51_4 1_555 1_555
Cu19_4 N7_4 1_555 1_555
Cu25_4 O12_4 1_555 1_555
Cu26_4 N23_4 1_555 1_555
O47_4 Cu18_2 1_555 1_555
O51_4 Cu15_2 1_555 1_555
O56_4 Cu12_4 1_555 1_555
N27_4 Cu12_4 1_555 1_555
N29_4 Cu6_4 1_555 1_555
N6_4 C15_4 1_555 1_555
O18_4 C16_4 1_555 1_555
C16_4 C17_4 1_555 1_555
C17_4 C18_4 1_555 1_555
N7_4 N8_4 1_555 1_555
O40_4 C46_4 1_555 1_555
C47_4 C48_4 1_555 1_555
C53_4 C54_4 1_555 1_555
N23_4 N24_4 1_555 1_555
Cu26_4 O56_4 1_555 1_555
Cu25_5 O54 1_555 1_555
O54_4 Cu21_5 1_555 1_555
Cu25_6 O53_3 1_555 1_555
O56_4 Cu21_6 1_555 1_555
Cu10_5 N13_5 1_555 1_555
C28_5 O45_3 1_555 1_555
C29_5 H10_5 1_555 1_555
C30_5 C28_5 1_555 1_555
C31_5 C32_5 1_555 1_555
N13_5 N14_5 1_555 1_555
C32_5 C30_5 1_555 1_555
H11_5 C32_5 1_555 1_555
N14_5 C33_5 1_555 1_555
C33_5 C31_5 1_555 1_555
O29_5 Cu10_5 1_555 1_555
O30_5 Cu10_5 1_555 1_555
O47_4 C34_5 1_555 1_555
O51_4 C34_5 1_555 1_555
C34_5 C35_5 1_555 1_555
C35_5 C29_5 1_555 1_555
N15_5 N13_5 1_555 1_555
C36_5 C31_5 1_555 1_555
H12_5 C36_5 1_555 1_555
N16_5 C33_5 1_555 1_555
Cu20_5 N15_5 1_555 1_555
O54_5 Cu10_5 1_555 1_555
N26_5 Cu10_5 1_555 1_555
O49_3 C28_5 1_555 1_555
C29_5 C30_5 1_555 1_555
C35_5 C36_5 1_555 1_555
N15_5 N16_5 1_555 1_555
Cu20_5 O54_5 1_555 1_555
Cu3_5 O3_5 1_555 1_555
O45_4 C1_5 1_555 1_555
O49_4 C1_5 1_555 1_555
C1_5 C3_5 1_555 1_555
C2_5 H1_5 1_555 1_555
O3_5 Cu21_7 1_555 1_555
C3_5 C2_5 1_555 1_555
C4_5 C5_5 1_555 1_555
N1_5 Cu3_5 1_555 1_555
C5_5 C3_5 1_555 1_555
H2_5 C5_5 1_555 1_555
N2_5 N1_5 1_555 1_555
C6_5 C4_5 1_555 1_555
O6_5 Cu3_5 1_555 1_555
O7_5 Cu3_5 1_555 1_555
O47 C7_5 1_555 1_555
O51 C7_5 1_555 1_555
C7_5 C8_5 1_555 1_555
C8_5 C2_5 1_555 1_555
N3_5 N1_5 1_555 1_555
C9_5 C4_5 1_555 1_555
H3_5 C9_5 1_555 1_555
N4_5 C6_5 1_555 1_555
Cu24_5 O3_5 1_555 1_555
N25_5 Cu3_5 1_555 1_555
N2_5 C6_5 1_555 1_555
C8_5 C9_5 1_555 1_555
N3_5 N4_5 1_555 1_555
N3_5 Cu24_5 1_555 1_555
Cu25_7 O54_5 1_555 1_555
Cu9_4 N9_4 1_555 1_555
C19_4 O45 1_555 1_555
C20_4 H7_4 1_555 1_555
C21_4 C19_4 1_555 1_555
C22_4 C23_4 1_555 1_555
N9_4 N10_4 1_555 1_555
C23_4 C21_4 1_555 1_555
H8_4 C23_4 1_555 1_555
N10_4 C24_4 1_555 1_555
C24_4 C22_4 1_555 1_555
O23_4 Cu9_4 1_555 1_555
O24_4 Cu9_4 1_555 1_555
O47_2 C25_4 1_555 1_555
O51_2 C25_4 1_555 1_555
C25_4 C26_4 1_555 1_555
C26_4 C20_4 1_555 1_555
N11_4 N9_4 1_555 1_555
C27_4 C22_4 1_555 1_555
H9_4 C27_4 1_555 1_555
N12_4 C24_4 1_555 1_555
Cu22_4 N11_4 1_555 1_555
O53_4 Cu9_4 1_555 1_555
N30_4 Cu9_4 1_555 1_555
O49 C19_4 1_555 1_555
C20_4 C21_4 1_555 1_555
C26_4 C27_4 1_555 1_555
N11_4 N12_4 1_555 1_555
Cu22_4 O53_4 1_555 1_555
Cu25_8 O56_2 1_555 1_555
Cu25_9 O53 1_555 1_555
Cu25_10 O54_2 1_555 1_555
O55 Cu21_8 1_555 1_555
O53_2 Cu21_9 1_555 1_555
Cu6_5 O12_5 1_555 1_555
O45_2 C10_5 1_555 1_555
O49_2 C10_5 1_555 1_555
C10_5 C12_5 1_555 1_555
C11_5 H4_5 1_555 1_555
O12_5 Cu19_5 1_555 1_555
C12_5 C11_5 1_555 1_555
C13_5 C14_5 1_555 1_555
N5_5 Cu6_5 1_555 1_555
C14_5 C12_5 1_555 1_555
H5_5 C14_5 1_555 1_555
N6_5 N5_5 1_555 1_555
C15_5 C13_5 1_555 1_555
O15_5 Cu6_5 1_555 1_555
O16_5 Cu6_5 1_555 1_555
C16_5 O47_3 1_555 1_555
C17_5 C11_5 1_555 1_555
N7_5 N5_5 1_555 1_555
C18_5 C13_5 1_555 1_555
H6_5 C18_5 1_555 1_555
N8_5 C15_5 1_555 1_555
Cu19_5 N7_5 1_555 1_555
Cu25_11 O12_5 1_555 1_555
N29_5 Cu6_5 1_555 1_555
N6_5 C15_5 1_555 1_555
O51_3 C16_5 1_555 1_555
C16_5 C17_5 1_555 1_555
C17_5 C18_5 1_555 1_555
N7_5 N8_5 1_555 1_555
Cu25_12 O56_3 1_555 1_555
O54_3 Cu21_10 1_555 1_555
O53_4 Cu21_11 1_555 1_555
Cu25_13 O56 1_555 1_555
Cu1_3 O2_5 1_555 1_555
Cu2_3 O1_5 1_555 1_555
O1_5 C1_6 1_555 1_555
O2_5 C1_6 1_555 1_555
C1_6 C3_6 1_555 1_555
C2_6 H1_6 1_555 1_555
C3_6 C2_6 1_555 1_555
O4_9 Cu1_3 1_555 1_555
C4_6 C5_6 1_555 1_555
N1_6 Cu20_5 1_555 1_555
C5_6 C3_6 1_555 1_555
H2_6 C5_6 1_555 1_555
N2_6 N1_6 1_555 1_555
C6_6 C4_6 1_555 1_555
O5_9 Cu2_3 1_555 1_555
O6_6 Cu20_5 1_555 1_555
O7_6 Cu20_5 1_555 1_555
O8_5 C7_6 1_555 1_555
O9_5 C7_6 1_555 1_555
C7_6 C8_6 1_555 1_555
C8_6 C2_6 1_555 1_555
N3_6 N1_6 1_555 1_555
C9_6 C4_6 1_555 1_555
H3_6 C9_6 1_555 1_555
N4_6 C6_6 1_555 1_555
Cu4_7 O11_5 1_555 1_555
Cu5_7 O10_5 1_555 1_555
O10_5 C10_6 1_555 1_555
O11_5 C10_6 1_555 1_555
C10_6 C12_6 1_555 1_555
C11_6 H4_6 1_555 1_555
C12_6 C11_6 1_555 1_555
O13_9 Cu4_7 1_555 1_555
C13_6 C14_6 1_555 1_555
N5_6 Cu21_5 1_555 1_555
C14_6 C12_6 1_555 1_555
H5_6 C14_6 1_555 1_555
N6_6 N5_6 1_555 1_555
C15_6 C13_6 1_555 1_555
O14_9 Cu5_7 1_555 1_555
O15_6 Cu21_5 1_555 1_555
O16_6 Cu21_5 1_555 1_555
O17_5 Cu2_3 1_555 1_555
O18_5 Cu1_3 1_555 1_555
C16_6 O17_5 1_555 1_555
C17_6 C11_6 1_555 1_555
N26_4 N5_6 1_555 1_555
C18_6 C13_6 1_555 1_555
H6_6 C18_6 1_555 1_555
N8_6 C15_6 1_555 1_555
Cu7_7 O9_5 1_555 1_555
Cu8_7 O8_5 1_555 1_555
O21_9 Cu7_7 1_555 1_555
O22_9 Cu8_7 1_555 1_555
Cu21_6 N13_6 1_555 1_555
O27_5 Cu8_7 1_555 1_555
O28_5 Cu7_7 1_555 1_555
C28_6 O27_5 1_555 1_555
C29_6 H10_6 1_555 1_555
C30_6 C28_6 1_555 1_555
C31_6 C32_6 1_555 1_555
N13_6 N14_6 1_555 1_555
C32_6 C30_6 1_555 1_555
H11_6 C32_6 1_555 1_555
N14_6 C33_6 1_555 1_555
C33_6 C31_6 1_555 1_555
O29_6 Cu21_6 1_555 1_555
O30_6 Cu21_6 1_555 1_555
O31_2 C34_6 1_555 1_555
O32_2 C34_6 1_555 1_555
C34_6 C35_6 1_555 1_555
C35_6 C29_6 1_555 1_555
N27_4 N13_6 1_555 1_555
C36_6 C31_6 1_555 1_555
H12_6 C36_6 1_555 1_555
N16_6 C33_6 1_555 1_555
Cu11_2 N17_2 1_555 1_555
O33_2 C37_2 1_555 1_555
O34_2 C37_2 1_555 1_555
C37_2 C39_2 1_555 1_555
C38_2 H13_2 1_555 1_555
C39_2 C38_2 1_555 1_555
C40_2 C41_2 1_555 1_555
N17_2 N18_2 1_555 1_555
C41_2 C39_2 1_555 1_555
H14_2 C41_2 1_555 1_555
N18_2 C42_2 1_555 1_555
C42_2 C40_2 1_555 1_555
O35_2 Cu11_2 1_555 1_555
O36_2 Cu11_2 1_555 1_555
O37_2 Cu2_3 1_555 1_555
O38_2 Cu1_3 1_555 1_555
C43_2 O37_2 1_555 1_555
C44_2 C38_2 1_555 1_555
N19_2 N17_2 1_555 1_555
C45_2 C40_2 1_555 1_555
H15_2 C45_2 1_555 1_555
N20_2 C42_2 1_555 1_555
Cu12_5 N21_5 1_555 1_555
O39_5 Cu2_3 1_555 1_555
O40_5 Cu1_3 1_555 1_555
C46_5 O39_5 1_555 1_555
C47_5 H16_5 1_555 1_555
C48_5 C46_5 1_555 1_555
C49_5 C50_5 1_555 1_555
N21_5 N22_5 1_555 1_555
C50_5 C48_5 1_555 1_555
H17_5 C50_5 1_555 1_555
N22_5 C51_5 1_555 1_555
C51_5 C49_5 1_555 1_555
O41_5 Cu12_5 1_555 1_555
O42_5 Cu12_5 1_555 1_555
O43_2 C52_5 1_555 1_555
O44_2 C52_5 1_555 1_555
C52_5 C53_5 1_555 1_555
C53_5 C47_5 1_555 1_555
N23_5 N21_5 1_555 1_555
C54_5 C49_5 1_555 1_555
H18_5 C54_5 1_555 1_555
N24_5 C51_5 1_555 1_555
Cu14_3 O32_2 1_555 1_555
Cu15_3 O44_2 1_555 1_555
Cu17_3 O31_2 1_555 1_555
Cu18_3 O43_2 1_555 1_555
Cu23_2 N19_2 1_555 1_555
Cu26_5 N23_5 1_555 1_555
O47_5 Cu5_7 1_555 1_555
O51_5 Cu4_7 1_555 1_555
O55_2 Cu11_2 1_555 1_555
O56_5 Cu12_5 1_555 1_555
N26_6 Cu21_6 1_555 1_555
N27_5 Cu12_5 1_555 1_555
N28_2 Cu11_2 1_555 1_555
N29_6 Cu21_5 1_555 1_555
N2_6 C6_6 1_555 1_555
C8_6 C9_6 1_555 1_555
N3_6 N4_6 1_555 1_555
N3_6 Cu25_7 1_555 1_555
N6_6 C15_6 1_555 1_555
O18_5 C16_6 1_555 1_555
C16_6 C17_6 1_555 1_555
C17_6 C18_6 1_555 1_555
N26_4 N8_6 1_555 1_555
O28_5 C28_6 1_555 1_555
C29_6 C30_6 1_555 1_555
C35_6 C36_6 1_555 1_555
N27_4 N16_6 1_555 1_555
O33_2 Cu17_3 1_555 1_555
O34_2 Cu14_3 1_555 1_555
O38_2 C43_2 1_555 1_555
C43_2 C44_2 1_555 1_555
C44_2 C45_2 1_555 1_555
N19_2 N20_2 1_555 1_555
O40_5 C46_5 1_555 1_555
C47_5 C48_5 1_555 1_555
C53_5 C54_5 1_555 1_555
N23_5 N24_5 1_555 1_555
Cu23_2 O55_2 1_555 1_555
Cu26_5 O56_5 1_555 1_555
O13_10 Cu4_8 1_555 1_555
O14_10 Cu5_8 1_555 1_555
Cu25_11 N9_5 1_555 1_555
O19_4 Cu8_8 1_555 1_555
O20_4 Cu7_8 1_555 1_555
C19_5 O19_4 1_555 1_555
C20_5 H7_5 1_555 1_555
C21_5 C19_5 1_555 1_555
O21_10 Cu7_8 1_555 1_555
C22_5 C23_5 1_555 1_555
N9_5 N10_5 1_555 1_555
C23_5 C21_5 1_555 1_555
H8_5 C23_5 1_555 1_555
N10_5 C24_5 1_555 1_555
C24_5 C22_5 1_555 1_555
O22_10 Cu8_8 1_555 1_555
O23_5 Cu25_11 1_555 1_555
O24_5 Cu25_11 1_555 1_555
O25_4 C25_5 1_555 1_555
O26_4 C25_5 1_555 1_555
C25_5 C26_5 1_555 1_555
C26_5 C20_5 1_555 1_555
N29_5 N9_5 1_555 1_555
C27_5 C22_5 1_555 1_555
H9_5 C27_5 1_555 1_555
N12_5 C24_5 1_555 1_555
Cu13_7 O26_4 1_555 1_555
Cu16_7 O25_4 1_555 1_555
O45_5 Cu5_8 1_555 1_555
O46_4 Cu8_8 1_555 1_555
O48_4 Cu5_8 1_555 1_555
O49_5 Cu4_8 1_555 1_555
O50_4 Cu7_8 1_555 1_555
O52_4 Cu4_8 1_555 1_555
N30_5 Cu25_11 1_555 1_555
O20_4 C19_5 1_555 1_555
C20_5 C21_5 1_555 1_555
C26_5 C27_5 1_555 1_555
N29_5 N12_5 1_555 1_555
Cu13_7 O2_6 1_555 1_555
Cu16_7 O1_6 1_555 1_555
Cu3_6 O3_6 1_555 1_555
O1_6 C1_7 1_555 1_555
O2_6 C1_7 1_555 1_555
C1_7 C3_7 1_555 1_555
C2_7 H1_7 1_555 1_555
O3_6 Cu21_12 1_555 1_555
C3_7 C2_7 1_555 1_555
O4_10 Cu13_7 1_555 1_555
C4_7 C5_7 1_555 1_555
N1_7 Cu3_6 1_555 1_555
C5_7 C3_7 1_555 1_555
H2_7 C5_7 1_555 1_555
N2_7 N1_7 1_555 1_555
C6_7 C4_7 1_555 1_555
O5_10 Cu16_7 1_555 1_555
O6_7 Cu3_6 1_555 1_555
O7_7 Cu3_6 1_555 1_555
O8_6 C7_7 1_555 1_555
O9_6 C7_7 1_555 1_555
C7_7 C8_7 1_555 1_555
C8_7 C2_7 1_555 1_555
N3_7 N1_7 1_555 1_555
C9_7 C4_7 1_555 1_555
H3_7 C9_7 1_555 1_555
N4_7 C6_7 1_555 1_555
Cu4_9 O11_6 1_555 1_555
Cu5_9 O10_6 1_555 1_555
Cu6_6 O12_6 1_555 1_555
O10_6 C10_7 1_555 1_555
O11_6 C10_7 1_555 1_555
C10_7 C12_7 1_555 1_555
C11_7 H4_7 1_555 1_555
O12_6 Cu19_6 1_555 1_555
C12_7 C11_7 1_555 1_555
O13_11 Cu4_9 1_555 1_555
C13_7 C14_7 1_555 1_555
N5_7 Cu6_6 1_555 1_555
C14_7 C12_7 1_555 1_555
H5_7 C14_7 1_555 1_555
N6_7 N5_7 1_555 1_555
C15_7 C13_7 1_555 1_555
O14_11 Cu5_9 1_555 1_555
O15_7 Cu6_6 1_555 1_555
O16_7 Cu6_6 1_555 1_555
O17_6 Cu16_7 1_555 1_555
O18_6 Cu13_7 1_555 1_555
C16_7 O17_6 1_555 1_555
C17_7 C11_7 1_555 1_555
N7_6 N5_7 1_555 1_555
C18_7 C13_7 1_555 1_555
H6_7 C18_7 1_555 1_555
N8_7 C15_7 1_555 1_555
Cu7_9 O9_6 1_555 1_555
Cu8_9 O8_6 1_555 1_555
Cu9_5 N9_6 1_555 1_555
O19_5 Cu8_9 1_555 1_555
O20_5 Cu7_9 1_555 1_555
C19_6 O19_5 1_555 1_555
C20_6 H7_6 1_555 1_555
C21_6 C19_6 1_555 1_555
O21_11 Cu7_9 1_555 1_555
C22_6 C23_6 1_555 1_555
N9_6 N10_6 1_555 1_555
C23_6 C21_6 1_555 1_555
H8_6 C23_6 1_555 1_555
N10_6 C24_6 1_555 1_555
C24_6 C22_6 1_555 1_555
O22_11 Cu8_9 1_555 1_555
O23_6 Cu9_5 1_555 1_555
O24_6 Cu9_5 1_555 1_555
O25_5 C25_6 1_555 1_555
O26_5 C25_6 1_555 1_555
C25_6 C26_6 1_555 1_555
C26_6 C20_6 1_555 1_555
N11_5 N9_6 1_555 1_555
C27_6 C22_6 1_555 1_555
H9_6 C27_6 1_555 1_555
N12_6 C24_6 1_555 1_555
Cu19_3 N13_7 1_555 1_555
O27_6 Cu8_9 1_555 1_555
O28_6 Cu7_9 1_555 1_555
C28_7 O27_6 1_555 1_555
C29_7 H10_7 1_555 1_555
C30_7 C28_7 1_555 1_555
C31_7 C32_7 1_555 1_555
N13_7 N14_7 1_555 1_555
C32_7 C30_7 1_555 1_555
H11_7 C32_7 1_555 1_555
N14_7 C33_7 1_555 1_555
C33_7 C31_7 1_555 1_555
O29_7 Cu19_3 1_555 1_555
O30_7 Cu19_3 1_555 1_555
O46_4 C34_7 1_555 1_555
O50_4 C34_7 1_555 1_555
C34_7 C35_7 1_555 1_555
C35_7 C29_7 1_555 1_555
N15_6 N13_7 1_555 1_555
C36_7 C31_7 1_555 1_555
H12_7 C36_7 1_555 1_555
N16_7 C33_7 1_555 1_555
Cu20_3 N21_6 1_555 1_555
O39_6 Cu16_7 1_555 1_555
O40_6 Cu13_7 1_555 1_555
C46_6 O39_6 1_555 1_555
C47_6 H16_6 1_555 1_555
C48_6 C46_6 1_555 1_555
C49_6 C50_6 1_555 1_555
N21_6 N22_6 1_555 1_555
C50_6 C48_6 1_555 1_555
H17_6 C50_6 1_555 1_555
N22_6 C51_6 1_555 1_555
C51_6 C49_6 1_555 1_555
O41_6 Cu20_3 1_555 1_555
O42_6 Cu20_3 1_555 1_555
O48_4 C52_6 1_555 1_555
O52_4 C52_6 1_555 1_555
C52_6 C53_6 1_555 1_555
C53_6 C47_6 1_555 1_555
N23_6 N21_6 1_555 1_555
C54_6 C49_6 1_555 1_555
H18_6 C54_6 1_555 1_555
N24_6 C51_6 1_555 1_555
Cu13_8 O26_5 1_555 1_555
Cu16_8 O25_5 1_555 1_555
Cu19_6 N7_6 1_555 1_555
Cu25_3 N15_6 1_555 1_555
Cu22_5 N11_5 1_555 1_555
Cu24_6 O3_6 1_555 1_555
Cu25_14 O12_6 1_555 1_555
Cu21_10 N23_6 1_555 1_555
O45_6 Cu5_9 1_555 1_555
O46_5 Cu8_9 1_555 1_555
O47_6 Cu5_9 1_555 1_555
O48_5 Cu5_9 1_555 1_555
O49_6 Cu4_9 1_555 1_555
O50_5 Cu7_9 1_555 1_555
O51_6 Cu4_9 1_555 1_555
O52_5 Cu4_9 1_555 1_555
O53_5 Cu9_5 1_555 1_555
N25_6 Cu3_6 1_555 1_555
N29_7 Cu6_6 1_555 1_555
N30_6 Cu9_5 1_555 1_555
N2_7 C6_7 1_555 1_555
C8_7 C9_7 1_555 1_555
N3_7 N4_7 1_555 1_555
N3_7 Cu24_6 1_555 1_555
N6_7 C15_7 1_555 1_555
O18_6 C16_7 1_555 1_555
C16_7 C17_7 1_555 1_555
C17_7 C18_7 1_555 1_555
N7_6 N8_7 1_555 1_555
O20_5 C19_6 1_555 1_555
C20_6 C21_6 1_555 1_555
C26_6 C27_6 1_555 1_555
N11_5 N12_6 1_555 1_555
O28_6 C28_7 1_555 1_555
C29_7 C30_7 1_555 1_555
C35_7 C36_7 1_555 1_555
N15_6 N16_7 1_555 1_555
O40_6 C46_6 1_555 1_555
C47_6 C48_6 1_555 1_555
C53_6 C54_6 1_555 1_555
N23_6 N24_6 1_555 1_555
Cu22_5 O53_5 1_555 1_555
O13_12 Cu4_10 1_555 1_555
O14_12 Cu5_10 1_555 1_555
Cu21_7 N9_7 1_555 1_555
O19_6 Cu8_10 1_555 1_555
O20_6 Cu7_10 1_555 1_555
C19_7 O19_6 1_555 1_555
C20_7 H7_7 1_555 1_555
C21_7 C19_7 1_555 1_555
O21_12 Cu7_10 1_555 1_555
C22_7 C23_7 1_555 1_555
N9_7 N10_7 1_555 1_555
C23_7 C21_7 1_555 1_555
H8_7 C23_7 1_555 1_555
N10_7 C24_7 1_555 1_555
C24_7 C22_7 1_555 1_555
O22_12 Cu8_10 1_555 1_555
O23_7 Cu21_7 1_555 1_555
O24_7 Cu21_7 1_555 1_555
O25_6 C25_7 1_555 1_555
O26_6 C25_7 1_555 1_555
C25_7 C26_7 1_555 1_555
C26_7 C20_7 1_555 1_555
N25_5 N9_7 1_555 1_555
C27_7 C22_7 1_555 1_555
H9_7 C27_7 1_555 1_555
N12_7 C24_7 1_555 1_555
Cu13_9 O26_6 1_555 1_555
Cu16_9 O25_6 1_555 1_555
O45_7 Cu5_10 1_555 1_555
O46_6 Cu8_10 1_555 1_555
O48_6 Cu5_10 1_555 1_555
O49_7 Cu4_10 1_555 1_555
O50_6 Cu7_10 1_555 1_555
O52_6 Cu4_10 1_555 1_555
N30_7 Cu21_7 1_555 1_555
O20_6 C19_7 1_555 1_555
C20_7 C21_7 1_555 1_555
C26_7 C27_7 1_555 1_555
N25_5 N12_7 1_555 1_555
Cu13_8 O2_7 1_555 1_555
Cu16_8 O1_7 1_555 1_555
O1_7 C1_8 1_555 1_555
O2_7 C1_8 1_555 1_555
C1_8 C3_8 1_555 1_555
C2_8 H1_8 1_555 1_555
C3_8 C2_8 1_555 1_555
O4_11 Cu13_8 1_555 1_555
C4_8 C5_8 1_555 1_555
N1_8 Cu22_4 1_555 1_555
C5_8 C3_8 1_555 1_555
H2_8 C5_8 1_555 1_555
N2_8 N1_8 1_555 1_555
C6_8 C4_8 1_555 1_555
O5_11 Cu16_8 1_555 1_555
O6_8 Cu22_4 1_555 1_555
O7_8 Cu22_4 1_555 1_555
O8_7 C7_8 1_555 1_555
O9_7 C7_8 1_555 1_555
C7_8 C8_8 1_555 1_555
C8_8 C2_8 1_555 1_555
N3_8 N1_8 1_555 1_555
C9_8 C4_8 1_555 1_555
H3_8 C9_8 1_555 1_555
N4_8 C6_8 1_555 1_555
Cu4_11 O11_7 1_555 1_555
Cu5_11 O10_7 1_555 1_555
O10_7 C10_8 1_555 1_555
O11_7 C10_8 1_555 1_555
C10_8 C12_8 1_555 1_555
C11_8 H4_8 1_555 1_555
C12_8 C11_8 1_555 1_555
O13_13 Cu4_11 1_555 1_555
C13_8 C14_8 1_555 1_555
N5_8 Cu25_10 1_555 1_555
C14_8 C12_8 1_555 1_555
H5_8 C14_8 1_555 1_555
N6_8 N5_8 1_555 1_555
C15_8 C13_8 1_555 1_555
O14_13 Cu5_11 1_555 1_555
O15_8 Cu25_10 1_555 1_555
O16_8 Cu25_10 1_555 1_555
O17_7 Cu16_8 1_555 1_555
O18_7 Cu13_8 1_555 1_555
C16_8 O17_7 1_555 1_555
C17_8 C11_8 1_555 1_555
N26_2 N5_8 1_555 1_555
C18_8 C13_8 1_555 1_555
H6_8 C18_8 1_555 1_555
N8_8 C15_8 1_555 1_555
Cu7_11 O9_7 1_555 1_555
Cu8_11 O8_7 1_555 1_555
O21_13 Cu7_11 1_555 1_555
O22_13 Cu8_11 1_555 1_555
Cu25_8 N13_8 1_555 1_555
O27_7 Cu8_11 1_555 1_555
O28_7 Cu7_11 1_555 1_555
C28_8 O27_7 1_555 1_555
C29_8 H10_8 1_555 1_555
C30_8 C28_8 1_555 1_555
C31_8 C32_8 1_555 1_555
N13_8 N14_8 1_555 1_555
C32_8 C30_8 1_555 1_555
H11_8 C32_8 1_555 1_555
N14_8 C33_8 1_555 1_555
C33_8 C31_8 1_555 1_555
O29_8 Cu25_8 1_555 1_555
O30_8 Cu25_8 1_555 1_555
O46_5 C34_8 1_555 1_555
O50_5 C34_8 1_555 1_555
C34_8 C35_8 1_555 1_555
C35_8 C29_8 1_555 1_555
N27_2 N13_8 1_555 1_555
C36_8 C31_8 1_555 1_555
H12_8 C36_8 1_555 1_555
N16_8 C33_8 1_555 1_555
Cu12_6 N21_7 1_555 1_555
O39_7 Cu16_8 1_555 1_555
O40_7 Cu13_8 1_555 1_555
C46_7 O39_7 1_555 1_555
C47_7 H16_7 1_555 1_555
C48_7 C46_7 1_555 1_555
C49_7 C50_7 1_555 1_555
N21_7 N22_7 1_555 1_555
C50_7 C48_7 1_555 1_555
H17_7 C50_7 1_555 1_555
N22_7 C51_7 1_555 1_555
C51_7 C49_7 1_555 1_555
O41_7 Cu12_6 1_555 1_555
O42_7 Cu12_6 1_555 1_555
O48_5 C52_7 1_555 1_555
O52_5 C52_7 1_555 1_555
C52_7 C53_7 1_555 1_555
C53_7 C47_7 1_555 1_555
N23_7 N21_7 1_555 1_555
C54_7 C49_7 1_555 1_555
H18_7 C54_7 1_555 1_555
N24_7 C51_7 1_555 1_555
Cu26_6 N23_7 1_555 1_555
O47_7 Cu5_11 1_555 1_555
O51_7 Cu4_11 1_555 1_555
O56_6 Cu12_6 1_555 1_555
N26_7 Cu25_8 1_555 1_555
N27_6 Cu12_6 1_555 1_555
N29_8 Cu25_10 1_555 1_555
N2_8 C6_8 1_555 1_555
C8_8 C9_8 1_555 1_555
N3_8 N4_8 1_555 1_555
N3_8 Cu21_11 1_555 1_555
N6_8 C15_8 1_555 1_555
O18_7 C16_8 1_555 1_555
C16_8 C17_8 1_555 1_555
C17_8 C18_8 1_555 1_555
N26_2 N8_8 1_555 1_555
O28_7 C28_8 1_555 1_555
C29_8 C30_8 1_555 1_555
C35_8 C36_8 1_555 1_555
N27_2 N16_8 1_555 1_555
O40_7 C46_7 1_555 1_555
C47_7 C48_7 1_555 1_555
C53_7 C54_7 1_555 1_555
N23_7 N24_7 1_555 1_555
Cu26_6 O56_6 1_555 1_555
Cu13_9 O2_8 1_555 1_555
Cu16_9 O1_8 1_555 1_555
Cu3_7 O3_7 1_555 1_555
O1_8 C1_9 1_555 1_555
O2_8 C1_9 1_555 1_555
C1_9 C3_9 1_555 1_555
C2_9 H1_9 1_555 1_555
O3_7 Cu21_13 1_555 1_555
C3_9 C2_9 1_555 1_555
O4_12 Cu13_9 1_555 1_555
C4_9 C5_9 1_555 1_555
N1_9 Cu3_7 1_555 1_555
C5_9 C3_9 1_555 1_555
H2_9 C5_9 1_555 1_555
N2_9 N1_9 1_555 1_555
C6_9 C4_9 1_555 1_555
O5_12 Cu16_9 1_555 1_555
O6_9 Cu3_7 1_555 1_555
O7_9 Cu3_7 1_555 1_555
O8_8 C7_9 1_555 1_555
O9_8 C7_9 1_555 1_555
C7_9 C8_9 1_555 1_555
C8_9 C2_9 1_555 1_555
N3_9 N1_9 1_555 1_555
C9_9 C4_9 1_555 1_555
H3_9 C9_9 1_555 1_555
N4_9 C6_9 1_555 1_555
Cu15_3 O11_8 1_555 1_555
Cu18_3 O10_8 1_555 1_555
Cu6_7 O12_7 1_555 1_555
O10_8 C10_9 1_555 1_555
O11_8 C10_9 1_555 1_555
C10_9 C12_9 1_555 1_555
C11_9 H4_9 1_555 1_555
O12_7 Cu19_7 1_555 1_555
C12_9 C11_9 1_555 1_555
O13_14 Cu15_3 1_555 1_555
C13_9 C14_9 1_555 1_555
N5_9 Cu6_7 1_555 1_555
C14_9 C12_9 1_555 1_555
H5_9 C14_9 1_555 1_555
N6_9 N5_9 1_555 1_555
C15_9 C13_9 1_555 1_555
O14_14 Cu18_3 1_555 1_555
O15_9 Cu6_7 1_555 1_555
O16_9 Cu6_7 1_555 1_555
O17_8 Cu16_9 1_555 1_555
O18_8 Cu13_9 1_555 1_555
C16_9 O17_8 1_555 1_555
C17_9 C11_9 1_555 1_555
N7_7 N5_9 1_555 1_555
C18_9 C13_9 1_555 1_555
H6_9 C18_9 1_555 1_555
N8_9 C15_9 1_555 1_555
Cu14_3 O9_8 1_555 1_555
Cu17_3 O8_8 1_555 1_555
O21_14 Cu14_3 1_555 1_555
O22_14 Cu17_3 1_555 1_555
Cu19 N13_9 1_555 1_555
O27_8 Cu17_3 1_555 1_555
O28_8 Cu14_3 1_555 1_555
C28_9 O27_8 1_555 1_555
C29_9 H10_9 1_555 1_555
C30_9 C28_9 1_555 1_555
C31_9 C32_9 1_555 1_555
N13_9 N14_9 1_555 1_555
C32_9 C30_9 1_555 1_555
H11_9 C32_9 1_555 1_555
N14_9 C33_9 1_555 1_555
C33_9 C31_9 1_555 1_555
O29_9 Cu19 1_555 1_555
O30_9 Cu19 1_555 1_555
O46_6 C34_9 1_555 1_555
O50_6 C34_9 1_555 1_555
C34_9 C35_9 1_555 1_555
C35_9 C29_9 1_555 1_555
N15_7 N13_9 1_555 1_555
C36_9 C31_9 1_555 1_555
H12_9 C36_9 1_555 1_555
N16_9 C33_9 1_555 1_555
Cu20 N21_8 1_555 1_555
O39_8 Cu16_9 1_555 1_555
O40_8 Cu13_9 1_555 1_555
C46_8 O39_8 1_555 1_555
C47_8 H16_8 1_555 1_555
C48_8 C46_8 1_555 1_555
C49_8 C50_8 1_555 1_555
N21_8 N22_8 1_555 1_555
C50_8 C48_8 1_555 1_555
H17_8 C50_8 1_555 1_555
N22_8 C51_8 1_555 1_555
C51_8 C49_8 1_555 1_555
O41_8 Cu20 1_555 1_555
O42_8 Cu20 1_555 1_555
O48_6 C52_8 1_555 1_555
O52_6 C52_8 1_555 1_555
C52_8 C53_8 1_555 1_555
C53_8 C47_8 1_555 1_555
N23_8 N21_8 1_555 1_555
C54_8 C49_8 1_555 1_555
H18_8 C54_8 1_555 1_555
N24_8 C51_8 1_555 1_555
Cu19_7 N7_7 1_555 1_555
Cu25 N15_7 1_555 1_555
Cu24_7 O3_7 1_555 1_555
Cu25_15 O12_7 1_555 1_555
Cu25_5 N23_8 1_555 1_555
O45_8 Cu18_3 1_555 1_555
O47_8 Cu18_3 1_555 1_555
O49_8 Cu15_3 1_555 1_555
O51_8 Cu15_3 1_555 1_555
N25_7 Cu3_7 1_555 1_555
N29_9 Cu6_7 1_555 1_555
N2_9 C6_9 1_555 1_555
C8_9 C9_9 1_555 1_555
N3_9 N4_9 1_555 1_555
N3_9 Cu24_7 1_555 1_555
N6_9 C15_9 1_555 1_555
O18_8 C16_9 1_555 1_555
C16_9 C17_9 1_555 1_555
C17_9 C18_9 1_555 1_555
N7_7 N8_9 1_555 1_555
O28_8 C28_9 1_555 1_555
C29_9 C30_9 1_555 1_555
C35_9 C36_9 1_555 1_555
N15_7 N16_9 1_555 1_555
O40_8 C46_8 1_555 1_555
C47_8 C48_8 1_555 1_555
C53_8 C54_8 1_555 1_555
N23_8 N24_8 1_555 1_555
Cu21 N13_10 1_555 1_555
C28_10 O45_7 1_555 1_555
C29_10 H10_10 1_555 1_555
C30_10 C28_10 1_555 1_555
C31_10 C32_10 1_555 1_555
N13_10 N14_10 1_555 1_555
C32_10 C30_10 1_555 1_555
H11_10 C32_10 1_555 1_555
N14_10 C33_10 1_555 1_555
C33_10 C31_10 1_555 1_555
O29_10 Cu21 1_555 1_555
O30_10 Cu21 1_555 1_555
O47_8 C34_10 1_555 1_555
O51_8 C34_10 1_555 1_555
C34_10 C35_10 1_555 1_555
C35_10 C29_10 1_555 1_555
N25 N13_10 1_555 1_555
C36_10 C31_10 1_555 1_555
H12_10 C36_10 1_555 1_555
N16_10 C33_10 1_555 1_555
N26_8 Cu21 1_555 1_555
O49_7 C28_10 1_555 1_555
C29_10 C30_10 1_555 1_555
C35_10 C36_10 1_555 1_555
N25 N16_10 1_555 1_555
O45_8 C1_10 1_555 1_555
O49_8 C1_10 1_555 1_555
C1_10 C3_10 1_555 1_555
C2_10 H1_10 1_555 1_555
C3_10 C2_10 1_555 1_555
C4_10 C5_10 1_555 1_555
N1_10 Cu22_3 1_555 1_555
C5_10 C3_10 1_555 1_555
H2_10 C5_10 1_555 1_555
N2_10 N1_10 1_555 1_555
C6_10 C4_10 1_555 1_555
O6_10 Cu22_3 1_555 1_555
O7_10 Cu22_3 1_555 1_555
O47_5 C7_10 1_555 1_555
O51_5 C7_10 1_555 1_555
C7_10 C8_10 1_555 1_555
C8_10 C2_10 1_555 1_555
N3_10 N1_10 1_555 1_555
C9_10 C4_10 1_555 1_555
H3_10 C9_10 1_555 1_555
N4_10 C6_10 1_555 1_555
N2_10 C6_10 1_555 1_555
C8_10 C9_10 1_555 1_555
N3_10 N4_10 1_555 1_555
N3_10 Cu25_6 1_555 1_555
Cu21_3 N9_8 1_555 1_555
C19_8 O45_5 1_555 1_555
C20_8 H7_8 1_555 1_555
C21_8 C19_8 1_555 1_555
C22_8 C23_8 1_555 1_555
N9_8 N10_8 1_555 1_555
C23_8 C21_8 1_555 1_555
H8_8 C23_8 1_555 1_555
N10_8 C24_8 1_555 1_555
C24_8 C22_8 1_555 1_555
O23_8 Cu21_3 1_555 1_555
O24_8 Cu21_3 1_555 1_555
O47_6 C25_8 1_555 1_555
O51_6 C25_8 1_555 1_555
C25_8 C26_8 1_555 1_555
C26_8 C20_8 1_555 1_555
N25_3 N9_8 1_555 1_555
C27_8 C22_8 1_555 1_555
H9_8 C27_8 1_555 1_555
N12_8 C24_8 1_555 1_555
N30_8 Cu21_3 1_555 1_555
O49_5 C19_8 1_555 1_555
C20_8 C21_8 1_555 1_555
C26_8 C27_8 1_555 1_555
N25_3 N12_8 1_555 1_555
O55_2 Cu21_14 1_555 1_555
O53_5 Cu21_15 1_555 1_555
O45_6 C10_10 1_555 1_555
O49_6 C10_10 1_555 1_555
C10_10 C12_10 1_555 1_555
C11_10 H4_10 1_555 1_555
C12_10 C11_10 1_555 1_555
C13_10 C14_10 1_555 1_555
N5_10 Cu22 1_555 1_555
C14_10 C12_10 1_555 1_555
H5_10 C14_10 1_555 1_555
N6_10 N5_10 1_555 1_555
C15_10 C13_10 1_555 1_555
O15_10 Cu22 1_555 1_555
O16_10 Cu22 1_555 1_555
C16_10 O47_7 1_555 1_555
C17_10 C11_10 1_555 1_555
N7_8 N5_10 1_555 1_555
C18_10 C13_10 1_555 1_555
H6_10 C18_10 1_555 1_555
N8_10 C15_10 1_555 1_555
Cu25_9 N7_8 1_555 1_555
N6_10 C15_10 1_555 1_555
O51_7 C16_10 1_555 1_555
C16_10 C17_10 1_555 1_555
C17_10 C18_10 1_555 1_555
N7_8 N8_10 1_555 1_555
Cu25_16 O56_6 1_555 1_555
Cu25_17 O56_5 1_555 1_555
Cu1_4 O2_9 1_555 1_555
Cu2_4 O1_9 1_555 1_555
O1_9 C1_11 1_555 1_555
O2_9 C1_11 1_555 1_555
C1_11 C3_11 1_555 1_555
C2_11 H1_11 1_555 1_555
C3_11 C2_11 1_555 1_555
O4_13 Cu1_4 1_555 1_555
C4_11 C5_11 1_555 1_555
N1_11 Cu21_15 1_555 1_555
C5_11 C3_11 1_555 1_555
H2_11 C5_11 1_555 1_555
N2_11 N1_11 1_555 1_555
C6_11 C4_11 1_555 1_555
O5_13 Cu2_4 1_555 1_555
O6_11 Cu21_15 1_555 1_555
O7_11 Cu21_15 1_555 1_555
O8_9 C7_11 1_555 1_555
O9_9 C7_11 1_555 1_555
C7_11 C8_11 1_555 1_555
C8_11 C2_11 1_555 1_555
N30_6 N1_11 1_555 1_555
C9_11 C4_11 1_555 1_555
H3_11 C9_11 1_555 1_555
N4_11 C6_11 1_555 1_555
Cu4_12 O11_9 1_555 1_555
Cu5_12 O10_9 1_555 1_555
O10_9 C10_11 1_555 1_555
O11_9 C10_11 1_555 1_555
C10_11 C12_11 1_555 1_555
C11_11 H4_11 1_555 1_555
C12_11 C11_11 1_555 1_555
O13_15 Cu4_12 1_555 1_555
C13_11 C14_11 1_555 1_555
N5_11 Cu26_6 1_555 1_555
C14_11 C12_11 1_555 1_555
H5_11 C14_11 1_555 1_555
N6_11 N5_11 1_555 1_555
C15_11 C13_11 1_555 1_555
O14_15 Cu5_12 1_555 1_555
O15_11 Cu26_6 1_555 1_555
O16_11 Cu26_6 1_555 1_555
O17_9 Cu2_4 1_555 1_555
O18_9 Cu1_4 1_555 1_555
C16_11 O17_9 1_555 1_555
C17_11 C11_11 1_555 1_555
N7_9 N5_11 1_555 1_555
C18_11 C13_11 1_555 1_555
H6_11 C18_11 1_555 1_555
N8_11 C15_11 1_555 1_555
Cu7_12 O9_9 1_555 1_555
Cu8_12 O8_9 1_555 1_555
Cu24_7 N9_9 1_555 1_555
O19_7 Cu8_12 1_555 1_555
O20_7 Cu7_12 1_555 1_555
C19_9 O19_7 1_555 1_555
C20_9 H7_9 1_555 1_555
C21_9 C19_9 1_555 1_555
O21_15 Cu7_12 1_555 1_555
C22_9 C23_9 1_555 1_555
N9_9 N10_9 1_555 1_555
C23_9 C21_9 1_555 1_555
H8_9 C23_9 1_555 1_555
N10_9 C24_9 1_555 1_555
C24_9 C22_9 1_555 1_555
O22_15 Cu8_12 1_555 1_555
O23_9 Cu24_7 1_555 1_555
O24_9 Cu24_7 1_555 1_555
O25_7 C25_9 1_555 1_555
O26_7 C25_9 1_555 1_555
C25_9 C26_9 1_555 1_555
C26_9 C20_9 1_555 1_555
N11_6 N9_9 1_555 1_555
C27_9 C22_9 1_555 1_555
H9_9 C27_9 1_555 1_555
N12_9 C24_9 1_555 1_555
Cu19_2 N13_11 1_555 1_555
O27_9 Cu8_12 1_555 1_555
O28_9 Cu7_12 1_555 1_555
C28_11 O27_9 1_555 1_555
C29_11 H10_11 1_555 1_555
C30_11 C28_11 1_555 1_555
C31_11 C32_11 1_555 1_555
N13_11 N14_11 1_555 1_555
C32_11 C30_11 1_555 1_555
H11_11 C32_11 1_555 1_555
N14_11 C33_11 1_555 1_555
C33_11 C31_11 1_555 1_555
O29_11 Cu19_2 1_555 1_555
O30_11 Cu19_2 1_555 1_555
O31_3 C34_11 1_555 1_555
O32_3 C34_11 1_555 1_555
C34_11 C35_11 1_555 1_555
C35_11 C29_11 1_555 1_555
N15_8 N13_11 1_555 1_555
C36_11 C31_11 1_555 1_555
H12_11 C36_11 1_555 1_555
N16_11 C33_11 1_555 1_555
Cu21_11 N17_3 1_555 1_555
O33_3 C37_3 1_555 1_555
O34_3 C37_3 1_555 1_555
C37_3 C39_3 1_555 1_555
C38_3 H13_3 1_555 1_555
C39_3 C38_3 1_555 1_555
C40_3 C41_3 1_555 1_555
N17_3 N18_3 1_555 1_555
C41_3 C39_3 1_555 1_555
H14_3 C41_3 1_555 1_555
N18_3 C42_3 1_555 1_555
C42_3 C40_3 1_555 1_555
O35_3 Cu21_11 1_555 1_555
O36_3 Cu21_11 1_555 1_555
O37_3 Cu2_4 1_555 1_555
O38_3 Cu1_4 1_555 1_555
C43_3 O37_3 1_555 1_555
C44_3 C38_3 1_555 1_555
N30_4 N17_3 1_555 1_555
C45_3 C40_3 1_555 1_555
H15_3 C45_3 1_555 1_555
N20_3 C42_3 1_555 1_555
Cu20_2 N21_9 1_555 1_555
O39_9 Cu2_4 1_555 1_555
O40_9 Cu1_4 1_555 1_555
C46_9 O39_9 1_555 1_555
C47_9 H16_9 1_555 1_555
C48_9 C46_9 1_555 1_555
C49_9 C50_9 1_555 1_555
N21_9 N22_9 1_555 1_555
C50_9 C48_9 1_555 1_555
H17_9 C50_9 1_555 1_555
N22_9 C51_9 1_555 1_555
C51_9 C49_9 1_555 1_555
O41_9 Cu20_2 1_555 1_555
O42_9 Cu20_2 1_555 1_555
O43_3 C52_9 1_555 1_555
O44_3 C52_9 1_555 1_555
C52_9 C53_9 1_555 1_555
C53_9 C47_9 1_555 1_555
N29_8 N21_9 1_555 1_555
C54_9 C49_9 1_555 1_555
H18_9 C54_9 1_555 1_555
N24_9 C51_9 1_555 1_555
Cu13_10 O26_7 1_555 1_555
Cu14_4 O32_3 1_555 1_555
Cu15_4 O44_3 1_555 1_555
Cu16_10 O25_7 1_555 1_555
Cu17_4 O31_3 1_555 1_555
Cu18_4 O43_3 1_555 1_555
Cu25_16 N7_9 1_555 1_555
Cu25_2 N15_8 1_555 1_555
Cu21_13 N11_6 1_555 1_555
O45_9 Cu5_12 1_555 1_555
O46_7 Cu8_12 1_555 1_555
O47_9 Cu5_12 1_555 1_555
O48_7 Cu5_12 1_555 1_555
O49_9 Cu4_12 1_555 1_555
O50_7 Cu7_12 1_555 1_555
O51_9 Cu4_12 1_555 1_555
O52_7 Cu4_12 1_555 1_555
N25_8 Cu21_15 1_555 1_555
N2_11 C6_11 1_555 1_555
C8_11 C9_11 1_555 1_555
N30_6 N4_11 1_555 1_555
N6_11 C15_11 1_555 1_555
O18_9 C16_11 1_555 1_555
C16_11 C17_11 1_555 1_555
C17_11 C18_11 1_555 1_555
N7_9 N8_11 1_555 1_555
O20_7 C19_9 1_555 1_555
C20_9 C21_9 1_555 1_555
C26_9 C27_9 1_555 1_555
N11_6 N12_9 1_555 1_555
O28_9 C28_11 1_555 1_555
C29_11 C30_11 1_555 1_555
C35_11 C36_11 1_555 1_555
N15_8 N16_11 1_555 1_555
O33_3 Cu17_4 1_555 1_555
O34_3 Cu14_4 1_555 1_555
O38_3 C43_3 1_555 1_555
C43_3 C44_3 1_555 1_555
C44_3 C45_3 1_555 1_555
N30_4 N20_3 1_555 1_555
O40_9 C46_9 1_555 1_555
C47_9 C48_9 1_555 1_555
C53_9 C54_9 1_555 1_555
N29_8 N24_9 1_555 1_555
Cu13_10 O2_10 1_555 1_555
Cu16_10 O1_10 1_555 1_555
O1_10 C1_12 1_555 1_555
O2_10 C1_12 1_555 1_555
C1_12 C3_12 1_555 1_555
C2_12 H1_12 1_555 1_555
C3_12 C2_12 1_555 1_555
O4_14 Cu13_10 1_555 1_555
C4_12 C5_12 1_555 1_555
N1_12 Cu24_5 1_555 1_555
C5_12 C3_12 1_555 1_555
H2_12 C5_12 1_555 1_555
N2_12 N1_12 1_555 1_555
C6_12 C4_12 1_555 1_555
O5_14 Cu16_10 1_555 1_555
O6_12 Cu24_5 1_555 1_555
O7_12 Cu24_5 1_555 1_555
O8_10 C7_12 1_555 1_555
O9_10 C7_12 1_555 1_555
C7_12 C8_12 1_555 1_555
C8_12 C2_12 1_555 1_555
N30_7 N1_12 1_555 1_555
C9_12 C4_12 1_555 1_555
H3_12 C9_12 1_555 1_555
N4_12 C6_12 1_555 1_555
Cu4_13 O11_10 1_555 1_555
Cu5_13 O10_10 1_555 1_555
O10_10 C10_12 1_555 1_555
O11_10 C10_12 1_555 1_555
C10_12 C12_12 1_555 1_555
C11_12 H4_12 1_555 1_555
C12_12 C11_12 1_555 1_555
O13_16 Cu4_13 1_555 1_555
C13_12 C14_12 1_555 1_555
N5_12 Cu25_5 1_555 1_555
C14_12 C12_12 1_555 1_555
H5_12 C14_12 1_555 1_555
N6_12 N5_12 1_555 1_555
C15_12 C13_12 1_555 1_555
O14_16 Cu5_13 1_555 1_555
O15_12 Cu25_5 1_555 1_555
O16_12 Cu25_5 1_555 1_555
O17_10 Cu16_10 1_555 1_555
O18_10 Cu13_10 1_555 1_555
C16_12 O17_10 1_555 1_555
C17_12 C11_12 1_555 1_555
N26 N5_12 1_555 1_555
C18_12 C13_12 1_555 1_555
H6_12 C18_12 1_555 1_555
N8_12 C15_12 1_555 1_555
Cu7_13 O9_10 1_555 1_555
Cu8_13 O8_10 1_555 1_555
O21_16 Cu7_13 1_555 1_555
O22_16 Cu8_13 1_555 1_555
Cu25_13 N13_12 1_555 1_555
O27_10 Cu8_13 1_555 1_555
O28_10 Cu7_13 1_555 1_555
C28_12 O27_10 1_555 1_555
C29_12 H10_12 1_555 1_555
C30_12 C28_12 1_555 1_555
C31_12 C32_12 1_555 1_555
N13_12 N14_12 1_555 1_555
C32_12 C30_12 1_555 1_555
H11_12 C32_12 1_555 1_555
N14_12 C33_12 1_555 1_555
C33_12 C31_12 1_555 1_555
O29_12 Cu25_13 1_555 1_555
O30_12 Cu25_13 1_555 1_555
O46_7 C34_12 1_555 1_555
O50_7 C34_12 1_555 1_555
C34_12 C35_12 1_555 1_555
C35_12 C29_12 1_555 1_555
N27 N13_12 1_555 1_555
C36_12 C31_12 1_555 1_555
H12_12 C36_12 1_555 1_555
N16_12 C33_12 1_555 1_555
Cu25_15 N21_10 1_555 1_555
O39_10 Cu16_10 1_555 1_555
O40_10 Cu13_10 1_555 1_555
C46_10 O39_10 1_555 1_555
C47_10 H16_10 1_555 1_555
C48_10 C46_10 1_555 1_555
C49_10 C50_10 1_555 1_555
N21_10 N22_10 1_555 1_555
C50_10 C48_10 1_555 1_555
H17_10 C50_10 1_555 1_555
N22_10 C51_10 1_555 1_555
C51_10 C49_10 1_555 1_555
O41_10 Cu25_15 1_555 1_555
O42_10 Cu25_15 1_555 1_555
O48_7 C52_10 1_555 1_555
O52_7 C52_10 1_555 1_555
C52_10 C53_10 1_555 1_555
C53_10 C47_10 1_555 1_555
N29_9 N21_10 1_555 1_555
C54_10 C49_10 1_555 1_555
H18_10 C54_10 1_555 1_555
N24_10 C51_10 1_555 1_555
O47_10 Cu5_13 1_555 1_555
O51_10 Cu4_13 1_555 1_555
N26_9 Cu25_13 1_555 1_555
N27_7 Cu25_15 1_555 1_555
N2_12 C6_12 1_555 1_555
C8_12 C9_12 1_555 1_555
N30_7 N4_12 1_555 1_555
N6_12 C15_12 1_555 1_555
O18_10 C16_12 1_555 1_555
C16_12 C17_12 1_555 1_555
C17_12 C18_12 1_555 1_555
N26 N8_12 1_555 1_555
O28_10 C28_12 1_555 1_555
C29_12 C30_12 1_555 1_555
C35_12 C36_12 1_555 1_555
N27 N16_12 1_555 1_555
O40_10 C46_10 1_555 1_555
C47_10 C48_10 1_555 1_555
C53_10 C54_10 1_555 1_555
N29_9 N24_10 1_555 1_555
O13_17 Cu4_14 1_555 1_555
O14_17 Cu5_14 1_555 1_555
Cu25_7 N9_10 1_555 1_555
O19_8 Cu8_14 1_555 1_555
O20_8 Cu7_14 1_555 1_555
C19_10 O19_8 1_555 1_555
C20_10 H7_10 1_555 1_555
C21_10 C19_10 1_555 1_555
O21_17 Cu7_14 1_555 1_555
C22_10 C23_10 1_555 1_555
N9_10 N10_10 1_555 1_555
C23_10 C21_10 1_555 1_555
H8_10 C23_10 1_555 1_555
N10_10 C24_10 1_555 1_555
C24_10 C22_10 1_555 1_555
O22_17 Cu8_14 1_555 1_555
O23_10 Cu25_7 1_555 1_555
O24_10 Cu25_7 1_555 1_555
O25_8 C25_10 1_555 1_555
O26_8 C25_10 1_555 1_555
C25_10 C26_10 1_555 1_555
C26_10 C20_10 1_555 1_555
N26_5 N9_10 1_555 1_555
C27_10 C22_10 1_555 1_555
H9_10 C27_10 1_555 1_555
N12_10 C24_10 1_555 1_555
Cu13_11 O26_8 1_555 1_555
Cu16_11 O25_8 1_555 1_555
O45_10 Cu5_14 1_555 1_555
O46_8 Cu8_14 1_555 1_555
O48_8 Cu5_14 1_555 1_555
O49_10 Cu4_14 1_555 1_555
O50_8 Cu7_14 1_555 1_555
O52_8 Cu4_14 1_555 1_555
O20_8 C19_10 1_555 1_555
C20_10 C21_10 1_555 1_555
C26_10 C27_10 1_555 1_555
N26_5 N12_10 1_555 1_555
Cu13_11 O2_11 1_555 1_555
Cu16_11 O1_11 1_555 1_555
O1_11 C1_13 1_555 1_555
O2_11 C1_13 1_555 1_555
C1_13 C3_13 1_555 1_555
C2_13 H1_13 1_555 1_555
C3_13 C2_13 1_555 1_555
O4_15 Cu13_11 1_555 1_555
C4_13 C5_13 1_555 1_555
N1_13 Cu21_14 1_555 1_555
C5_13 C3_13 1_555 1_555
H2_13 C5_13 1_555 1_555
N2_13 N1_13 1_555 1_555
C6_13 C4_13 1_555 1_555
O5_15 Cu16_11 1_555 1_555
O6_13 Cu21_14 1_555 1_555
O7_13 Cu21_14 1_555 1_555
O8_11 C7_13 1_555 1_555
O9_11 C7_13 1_555 1_555
C7_13 C8_13 1_555 1_555
C8_13 C2_13 1_555 1_555
N28_2 N1_13 1_555 1_555
C9_13 C4_13 1_555 1_555
H3_13 C9_13 1_555 1_555
N4_13 C6_13 1_555 1_555
Cu4_15 O11_11 1_555 1_555
Cu5_15 O10_11 1_555 1_555
O10_11 C10_13 1_555 1_555
O11_11 C10_13 1_555 1_555
C10_13 C12_13 1_555 1_555
C11_13 H4_13 1_555 1_555
C12_13 C11_13 1_555 1_555
O13_18 Cu4_15 1_555 1_555
C13_13 C14_13 1_555 1_555
N5_13 Cu26_5 1_555 1_555
C14_13 C12_13 1_555 1_555
H5_13 C14_13 1_555 1_555
N6_13 N5_13 1_555 1_555
C15_13 C13_13 1_555 1_555
O14_18 Cu5_15 1_555 1_555
O15_13 Cu26_5 1_555 1_555
O16_13 Cu26_5 1_555 1_555
O17_11 Cu16_11 1_555 1_555
O18_11 Cu13_11 1_555 1_555
C16_13 O17_11 1_555 1_555
C17_13 C11_13 1_555 1_555
N7_10 N5_13 1_555 1_555
C18_13 C13_13 1_555 1_555
H6_13 C18_13 1_555 1_555
N8_13 C15_13 1_555 1_555
Cu7_15 O9_11 1_555 1_555
Cu8_15 O8_11 1_555 1_555
Cu24_6 N9_11 1_555 1_555
O19_9 Cu8_15 1_555 1_555
O20_9 Cu7_15 1_555 1_555
C19_11 O19_9 1_555 1_555
C20_11 H7_11 1_555 1_555
C21_11 C19_11 1_555 1_555
O21_18 Cu7_15 1_555 1_555
C22_11 C23_11 1_555 1_555
N9_11 N10_11 1_555 1_555
C23_11 C21_11 1_555 1_555
H8_11 C23_11 1_555 1_555
N10_11 C24_11 1_555 1_555
C24_11 C22_11 1_555 1_555
O22_18 Cu8_15 1_555 1_555
O23_11 Cu24_6 1_555 1_555
O24_11 Cu24_6 1_555 1_555
O25_9 C25_11 1_555 1_555
O26_9 C25_11 1_555 1_555
C25_11 C26_11 1_555 1_555
C26_11 C20_11 1_555 1_555
N11_7 N9_11 1_555 1_555
C27_11 C22_11 1_555 1_555
H9_11 C27_11 1_555 1_555
N12_11 C24_11 1_555 1_555
Cu19_4 N13_13 1_555 1_555
O27_11 Cu8_15 1_555 1_555
O28_11 Cu7_15 1_555 1_555
C28_13 O27_11 1_555 1_555
C29_13 H10_13 1_555 1_555
C30_13 C28_13 1_555 1_555
C31_13 C32_13 1_555 1_555
N13_13 N14_13 1_555 1_555
C32_13 C30_13 1_555 1_555
H11_13 C32_13 1_555 1_555
N14_13 C33_13 1_555 1_555
C33_13 C31_13 1_555 1_555
O29_13 Cu19_4 1_555 1_555
O30_13 Cu19_4 1_555 1_555
O46_8 C34_13 1_555 1_555
O50_8 C34_13 1_555 1_555
C34_13 C35_13 1_555 1_555
C35_13 C29_13 1_555 1_555
N15_9 N13_13 1_555 1_555
C36_13 C31_13 1_555 1_555
H12_13 C36_13 1_555 1_555
N16_13 C33_13 1_555 1_555
Cu20_4 N21_11 1_555 1_555
O39_11 Cu16_11 1_555 1_555
O40_11 Cu13_11 1_555 1_555
C46_11 O39_11 1_555 1_555
C47_11 H16_11 1_555 1_555
C48_11 C46_11 1_555 1_555
C49_11 C50_11 1_555 1_555
N21_11 N22_11 1_555 1_555
C50_11 C48_11 1_555 1_555
H17_11 C50_11 1_555 1_555
N22_11 C51_11 1_555 1_555
C51_11 C49_11 1_555 1_555
O41_11 Cu20_4 1_555 1_555
O42_11 Cu20_4 1_555 1_555
O48_8 C52_11 1_555 1_555
O52_8 C52_11 1_555 1_555
C52_11 C53_11 1_555 1_555
C53_11 C47_11 1_555 1_555
N29_6 N21_11 1_555 1_555
C54_11 C49_11 1_555 1_555
H18_11 C54_11 1_555 1_555
N24_11 C51_11 1_555 1_555
Cu13_12 O26_9 1_555 1_555
Cu16_12 O25_9 1_555 1_555
Cu25_17 N7_10 1_555 1_555
Cu25_4 N15_9 1_555 1_555
Cu21_12 N11_7 1_555 1_555
O45_11 Cu5_15 1_555 1_555
O46_9 Cu8_15 1_555 1_555
O47_11 Cu5_15 1_555 1_555
O48_9 Cu5_15 1_555 1_555
O49_11 Cu4_15 1_555 1_555
O50_9 Cu7_15 1_555 1_555
O51_11 Cu4_15 1_555 1_555
O52_9 Cu4_15 1_555 1_555
N25_9 Cu21_14 1_555 1_555
N2_13 C6_13 1_555 1_555
C8_13 C9_13 1_555 1_555
N28_2 N4_13 1_555 1_555
N6_13 C15_13 1_555 1_555
O18_11 C16_13 1_555 1_555
C16_13 C17_13 1_555 1_555
C17_13 C18_13 1_555 1_555
N7_10 N8_13 1_555 1_555
O20_9 C19_11 1_555 1_555
C20_11 C21_11 1_555 1_555
C26_11 C27_11 1_555 1_555
N11_7 N12_11 1_555 1_555
O28_11 C28_13 1_555 1_555
C29_13 C30_13 1_555 1_555
C35_13 C36_13 1_555 1_555
N15_9 N16_13 1_555 1_555
O40_11 C46_11 1_555 1_555
C47_11 C48_11 1_555 1_555
C53_11 C54_11 1_555 1_555
N29_6 N24_11 1_555 1_555
O13_19 Cu15_4 1_555 1_555
O14_19 Cu18_4 1_555 1_555
O21_19 Cu14_4 1_555 1_555
O22_19 Cu17_4 1_555 1_555
O45_12 Cu18_4 1_555 1_555
O49_12 Cu15_4 1_555 1_555
Cu13_12 O2_12 1_555 1_555
Cu16_12 O1_12 1_555 1_555
O1_12 C1_14 1_555 1_555
O2_12 C1_14 1_555 1_555
C1_14 C3_14 1_555 1_555
C2_14 H1_14 1_555 1_555
C3_14 C2_14 1_555 1_555
O4_16 Cu13_12 1_555 1_555
C4_14 C5_14 1_555 1_555
N1_14 Cu19_5 1_555 1_555
C5_14 C3_14 1_555 1_555
H2_14 C5_14 1_555 1_555
N2_14 N1_14 1_555 1_555
C6_14 C4_14 1_555 1_555
O5_16 Cu16_12 1_555 1_555
O6_14 Cu19_5 1_555 1_555
O7_14 Cu19_5 1_555 1_555
O8_12 C7_14 1_555 1_555
O9_12 C7_14 1_555 1_555
C7_14 C8_14 1_555 1_555
C8_14 C2_14 1_555 1_555
N30_5 N1_14 1_555 1_555
C9_14 C4_14 1_555 1_555
H3_14 C9_14 1_555 1_555
N4_14 C6_14 1_555 1_555
Cu15_5 O11_12 1_555 1_555
Cu18_5 O10_12 1_555 1_555
O10_12 C10_14 1_555 1_555
O11_12 C10_14 1_555 1_555
C10_14 C12_14 1_555 1_555
C11_14 H4_14 1_555 1_555
C12_14 C11_14 1_555 1_555
O13_20 Cu15_5 1_555 1_555
C13_14 C14_14 1_555 1_555
N5_14 Cu21_10 1_555 1_555
C14_14 C12_14 1_555 1_555
H5_14 C14_14 1_555 1_555
N6_14 N5_14 1_555 1_555
C15_14 C13_14 1_555 1_555
O14_20 Cu18_5 1_555 1_555
O15_14 Cu21_10 1_555 1_555
O16_14 Cu21_10 1_555 1_555
O17_12 Cu16_12 1_555 1_555
O18_12 Cu13_12 1_555 1_555
C16_14 O17_12 1_555 1_555
C17_14 C11_14 1_555 1_555
N26_3 N5_14 1_555 1_555
C18_14 C13_14 1_555 1_555
H6_14 C18_14 1_555 1_555
N8_14 C15_14 1_555 1_555
Cu14_5 O9_12 1_555 1_555
Cu17_5 O8_12 1_555 1_555
O21_20 Cu14_5 1_555 1_555
O22_20 Cu17_5 1_555 1_555
Cu25_12 N13_14 1_555 1_555
O27_12 Cu17_5 1_555 1_555
O28_12 Cu14_5 1_555 1_555
C28_14 O27_12 1_555 1_555
C29_14 H10_14 1_555 1_555
C30_14 C28_14 1_555 1_555
C31_14 C32_14 1_555 1_555
N13_14 N14_14 1_555 1_555
C32_14 C30_14 1_555 1_555
H11_14 C32_14 1_555 1_555
N14_14 C33_14 1_555 1_555
C33_14 C31_14 1_555 1_555
O29_14 Cu25_12 1_555 1_555
O30_14 Cu25_12 1_555 1_555
O46_9 C34_14 1_555 1_555
O50_9 C34_14 1_555 1_555
C34_14 C35_14 1_555 1_555
C35_14 C29_14 1_555 1_555
N27_3 N13_14 1_555 1_555
C36_14 C31_14 1_555 1_555
H12_14 C36_14 1_555 1_555
N16_14 C33_14 1_555 1_555
Cu25_14 N21_12 1_555 1_555
O39_12 Cu16_12 1_555 1_555
O40_12 Cu13_12 1_555 1_555
C46_12 O39_12 1_555 1_555
C47_12 H16_12 1_555 1_555
C48_12 C46_12 1_555 1_555
C49_12 C50_12 1_555 1_555
N21_12 N22_12 1_555 1_555
C50_12 C48_12 1_555 1_555
H17_12 C50_12 1_555 1_555
N22_12 C51_12 1_555 1_555
C51_12 C49_12 1_555 1_555
O41_12 Cu25_14 1_555 1_555
O42_12 Cu25_14 1_555 1_555
O48_9 C52_12 1_555 1_555
O52_9 C52_12 1_555 1_555
C52_12 C53_12 1_555 1_555
C53_12 C47_12 1_555 1_555
N29_7 N21_12 1_555 1_555
C54_12 C49_12 1_555 1_555
H18_12 C54_12 1_555 1_555
N24_12 C51_12 1_555 1_555
O47_12 Cu18_5 1_555 1_555
O51_12 Cu15_5 1_555 1_555
N26_10 Cu25_12 1_555 1_555
N27_8 Cu25_14 1_555 1_555
N2_14 C6_14 1_555 1_555
C8_14 C9_14 1_555 1_555
N30_5 N4_14 1_555 1_555
N6_14 C15_14 1_555 1_555
O18_12 C16_14 1_555 1_555
C16_14 C17_14 1_555 1_555
C17_14 C18_14 1_555 1_555
N26_3 N8_14 1_555 1_555
O28_12 C28_14 1_555 1_555
C29_14 C30_14 1_555 1_555
C35_14 C36_14 1_555 1_555
N27_3 N16_14 1_555 1_555
O40_12 C46_12 1_555 1_555
C47_12 C48_12 1_555 1_555
C53_12 C54_12 1_555 1_555
N29_7 N24_12 1_555 1_555
Cu22_2 N13_15 1_555 1_555
C28_15 O45_11 1_555 1_555
C29_15 H10_15 1_555 1_555
C30_15 C28_15 1_555 1_555
C31_15 C32_15 1_555 1_555
N13_15 N14_15 1_555 1_555
C32_15 C30_15 1_555 1_555
H11_15 C32_15 1_555 1_555
N14_15 C33_15 1_555 1_555
C33_15 C31_15 1_555 1_555
O29_15 Cu22_2 1_555 1_555
O30_15 Cu22_2 1_555 1_555
O47_12 C34_15 1_555 1_555
O51_12 C34_15 1_555 1_555
C34_15 C35_15 1_555 1_555
C35_15 C29_15 1_555 1_555
N15_10 N13_15 1_555 1_555
C36_15 C31_15 1_555 1_555
H12_15 C36_15 1_555 1_555
N16_15 C33_15 1_555 1_555
Cu21_9 N15_10 1_555 1_555
O49_11 C28_15 1_555 1_555
C29_15 C30_15 1_555 1_555
C35_15 C36_15 1_555 1_555
N15_10 N16_15 1_555 1_555
O45_12 C1_15 1_555 1_555
O49_12 C1_15 1_555 1_555
C1_15 C3_15 1_555 1_555
C2_15 H1_15 1_555 1_555
C3_15 C2_15 1_555 1_555
C4_15 C5_15 1_555 1_555
N1_15 Cu21_2 1_555 1_555
C5_15 C3_15 1_555 1_555
H2_15 C5_15 1_555 1_555
N2_15 N1_15 1_555 1_555
C6_15 C4_15 1_555 1_555
O6_15 Cu21_2 1_555 1_555
O7_15 Cu21_2 1_555 1_555
O47_9 C7_15 1_555 1_555
O51_9 C7_15 1_555 1_555
C7_15 C8_15 1_555 1_555
C8_15 C2_15 1_555 1_555
N25_2 N1_15 1_555 1_555
C9_15 C4_15 1_555 1_555
H3_15 C9_15 1_555 1_555
N4_15 C6_15 1_555 1_555
Cu23 N9_12 1_555 1_555
C19_12 O45_9 1_555 1_555
C20_12 H7_12 1_555 1_555
C21_12 C19_12 1_555 1_555
C22_12 C23_12 1_555 1_555
N9_12 N10_12 1_555 1_555
C23_12 C21_12 1_555 1_555
H8_12 C23_12 1_555 1_555
N10_12 C24_12 1_555 1_555
C24_12 C22_12 1_555 1_555
O23_12 Cu23 1_555 1_555
O24_12 Cu23 1_555 1_555
O47_10 C25_12 1_555 1_555
O51_10 C25_12 1_555 1_555
C25_12 C26_12 1_555 1_555
C26_12 C20_12 1_555 1_555
N11_8 N9_12 1_555 1_555
C27_12 C22_12 1_555 1_555
H9_12 C27_12 1_555 1_555
N12_12 C24_12 1_555 1_555
Cu21_8 N11_8 1_555 1_555
N25_10 Cu21_2 1_555 1_555
N2_15 C6_15 1_555 1_555
C8_15 C9_15 1_555 1_555
N25_2 N4_15 1_555 1_555
O49_9 C19_12 1_555 1_555
C20_12 C21_12 1_555 1_555
C26_12 C27_12 1_555 1_555
N11_8 N12_12 1_555 1_555
O45_10 C10_15 1_555 1_555
O49_10 C10_15 1_555 1_555
C10_15 C12_15 1_555 1_555
C11_15 H4_15 1_555 1_555
C12_15 C11_15 1_555 1_555
C13_15 C14_15 1_555 1_555
N5_15 Cu21_4 1_555 1_555
C14_15 C12_15 1_555 1_555
H5_15 C14_15 1_555 1_555
N6_15 N5_15 1_555 1_555
C15_15 C13_15 1_555 1_555
O15_15 Cu21_4 1_555 1_555
O16_15 Cu21_4 1_555 1_555
C16_15 O47_11 1_555 1_555
C17_15 C11_15 1_555 1_555
N25_4 N5_15 1_555 1_555
C18_15 C13_15 1_555 1_555
H6_15 C18_15 1_555 1_555
N8_15 C15_15 1_555 1_555
N29_10 Cu21_4 1_555 1_555
N6_15 C15_15 1_555 1_555
O51_11 C16_15 1_555 1_555
C16_15 C17_15 1_555 1_555
C17_15 C18_15 1_555 1_555
N25_4 N8_15 1_555 1_555
Cu1_5 O2_13 1_555 1_555
Cu2_5 O1_13 1_555 1_555
O1_13 C1_16 1_555 1_555
O2_13 C1_16 1_555 1_555
C1_16 C3_16 1_555 1_555
C2_16 H1_16 1_555 1_555
C3_16 C2_16 1_555 1_555
O4_17 Cu1_5 1_555 1_555
C4_16 C5_16 1_555 1_555
N1_16 Cu21_9 1_555 1_555
C5_16 C3_16 1_555 1_555
H2_16 C5_16 1_555 1_555
N2_16 N1_16 1_555 1_555
C6_16 C4_16 1_555 1_555
O5_17 Cu2_5 1_555 1_555
O6_16 Cu21_9 1_555 1_555
O7_16 Cu21_9 1_555 1_555
O8_13 C7_16 1_555 1_555
O9_13 C7_16 1_555 1_555
C7_16 C8_16 1_555 1_555
C8_16 C2_16 1_555 1_555
N30_2 N1_16 1_555 1_555
C9_16 C4_16 1_555 1_555
H3_16 C9_16 1_555 1_555
N4_16 C6_16 1_555 1_555
Cu7_16 O9_13 1_555 1_555
Cu8_16 O8_13 1_555 1_555
Cu24_4 N9_13 1_555 1_555
O19_10 Cu8_16 1_555 1_555
O20_10 Cu7_16 1_555 1_555
C19_13 O19_10 1_555 1_555
C20_13 H7_13 1_555 1_555
C21_13 C19_13 1_555 1_555
O21_21 Cu7_16 1_555 1_555
C22_13 C23_13 1_555 1_555
N9_13 N10_13 1_555 1_555
C23_13 C21_13 1_555 1_555
H8_13 C23_13 1_555 1_555
N10_13 C24_13 1_555 1_555
C24_13 C22_13 1_555 1_555
O22_21 Cu8_16 1_555 1_555
O23_13 Cu24_4 1_555 1_555
O24_13 Cu24_4 1_555 1_555
O25_10 C25_13 1_555 1_555
O26_10 C25_13 1_555 1_555
C25_13 C26_13 1_555 1_555
C26_13 C20_13 1_555 1_555
N29_10 N9_13 1_555 1_555
C27_13 C22_13 1_555 1_555
H9_13 C27_13 1_555 1_555
N12_13 C24_13 1_555 1_555
Cu19_6 N13_16 1_555 1_555
O27_13 Cu8_16 1_555 1_555
O28_13 Cu7_16 1_555 1_555
C28_16 O27_13 1_555 1_555
C29_16 H10_16 1_555 1_555
C30_16 C28_16 1_555 1_555
C31_16 C32_16 1_555 1_555
N13_16 N14_16 1_555 1_555
C32_16 C30_16 1_555 1_555
H11_16 C32_16 1_555 1_555
N14_16 C33_16 1_555 1_555
C33_16 C31_16 1_555 1_555
O29_16 Cu19_6 1_555 1_555
O30_16 Cu19_6 1_555 1_555
O31_4 C34_16 1_555 1_555
O32_4 C34_16 1_555 1_555
C34_16 C35_16 1_555 1_555
C35_16 C29_16 1_555 1_555
N27_8 N13_16 1_555 1_555
C36_16 C31_16 1_555 1_555
H12_16 C36_16 1_555 1_555
N16_16 C33_16 1_555 1_555
Cu24_3 N17_4 1_555 1_555
O33_4 C37_4 1_555 1_555
O34_4 C37_4 1_555 1_555
C37_4 C39_4 1_555 1_555
C38_4 H13_4 1_555 1_555
C39_4 C38_4 1_555 1_555
C40_4 C41_4 1_555 1_555
N17_4 N18_4 1_555 1_555
C41_4 C39_4 1_555 1_555
H14_4 C41_4 1_555 1_555
N18_4 C42_4 1_555 1_555
C42_4 C40_4 1_555 1_555
O35_4 Cu24_3 1_555 1_555
O36_4 Cu24_3 1_555 1_555
O37_4 Cu2_5 1_555 1_555
O38_4 Cu1_5 1_555 1_555
C43_4 O37_4 1_555 1_555
C44_4 C38_4 1_555 1_555
N30_8 N17_4 1_555 1_555
C45_4 C40_4 1_555 1_555
H15_4 C45_4 1_555 1_555
N20_4 C42_4 1_555 1_555
Cu13_13 O26_10 1_555 1_555
Cu14_6 O32_4 1_555 1_555
Cu16_13 O25_10 1_555 1_555
Cu17_6 O31_4 1_555 1_555
O46_10 Cu8_16 1_555 1_555
O50_10 Cu7_16 1_555 1_555
N2_16 C6_16 1_555 1_555
C8_16 C9_16 1_555 1_555
N30_2 N4_16 1_555 1_555
O20_10 C19_13 1_555 1_555
C20_13 C21_13 1_555 1_555
C26_13 C27_13 1_555 1_555
N29_10 N12_13 1_555 1_555
O28_13 C28_16 1_555 1_555
C29_16 C30_16 1_555 1_555
C35_16 C36_16 1_555 1_555
N27_8 N16_16 1_555 1_555
O33_4 Cu17_6 1_555 1_555
O34_4 Cu14_6 1_555 1_555
O38_4 C43_4 1_555 1_555
C43_4 C44_4 1_555 1_555
C44_4 C45_4 1_555 1_555
N30_8 N20_4 1_555 1_555
O4_18 Cu1_6 1_555 1_555
O5_18 Cu2_6 1_555 1_555
Cu4_16 O11_13 1_555 1_555
Cu5_16 O10_13 1_555 1_555
O10_13 C10_16 1_555 1_555
O11_13 C10_16 1_555 1_555
C10_16 C12_16 1_555 1_555
C11_16 H4_16 1_555 1_555
C12_16 C11_16 1_555 1_555
O13_21 Cu4_16 1_555 1_555
C13_16 C14_16 1_555 1_555
N5_16 Cu26_3 1_555 1_555
C14_16 C12_16 1_555 1_555
H5_16 C14_16 1_555 1_555
N6_16 N5_16 1_555 1_555
C15_16 C13_16 1_555 1_555
O14_21 Cu5_16 1_555 1_555
O15_16 Cu26_3 1_555 1_555
O16_16 Cu26_3 1_555 1_555
O17_13 Cu2_6 1_555 1_555
O18_13 Cu1_6 1_555 1_555
C16_16 O17_13 1_555 1_555
C17_16 C11_16 1_555 1_555
N26_10 N5_16 1_555 1_555
C18_16 C13_16 1_555 1_555
H6_16 C18_16 1_555 1_555
N8_16 C15_16 1_555 1_555
Cu25_3 N21_13 1_555 1_555
O39_13 Cu2_6 1_555 1_555
O40_13 Cu1_6 1_555 1_555
C46_13 O39_13 1_555 1_555
C47_13 H16_13 1_555 1_555
C48_13 C46_13 1_555 1_555
C49_13 C50_13 1_555 1_555
N21_13 N22_13 1_555 1_555
C50_13 C48_13 1_555 1_555
H17_13 C50_13 1_555 1_555
N22_13 C51_13 1_555 1_555
C51_13 C49_13 1_555 1_555
O41_13 Cu25_3 1_555 1_555
O42_13 Cu25_3 1_555 1_555
O43_4 C52_13 1_555 1_555
O44_4 C52_13 1_555 1_555
C52_13 C53_13 1_555 1_555
C53_13 C47_13 1_555 1_555
N29_3 N21_13 1_555 1_555
C54_13 C49_13 1_555 1_555
H18_13 C54_13 1_555 1_555
N24_13 C51_13 1_555 1_555
Cu15_6 O44_4 1_555 1_555
Cu18_6 O43_4 1_555 1_555
O45_13 Cu5_16 1_555 1_555
O47_13 Cu5_16 1_555 1_555
O48_10 Cu5_16 1_555 1_555
O49_13 Cu4_16 1_555 1_555
O51_13 Cu4_16 1_555 1_555
O52_10 Cu4_16 1_555 1_555
N6_16 C15_16 1_555 1_555
O18_13 C16_16 1_555 1_555
C16_16 C17_16 1_555 1_555
C17_16 C18_16 1_555 1_555
N26_10 N8_16 1_555 1_555
O40_13 C46_13 1_555 1_555
C47_13 C48_13 1_555 1_555
C53_13 C54_13 1_555 1_555
N29_3 N24_13 1_555 1_555
Cu13_13 O2_14 1_555 1_555
Cu16_13 O1_14 1_555 1_555
O1_14 C1_17 1_555 1_555
O2_14 C1_17 1_555 1_555
C1_17 C3_17 1_555 1_555
C2_17 H1_17 1_555 1_555
C3_17 C2_17 1_555 1_555
O4_19 Cu13_13 1_555 1_555
C4_17 C5_17 1_555 1_555
N1_17 Cu25_6 1_555 1_555
C5_17 C3_17 1_555 1_555
H2_17 C5_17 1_555 1_555
N2_17 N1_17 1_555 1_555
C6_17 C4_17 1_555 1_555
O5_19 Cu16_13 1_555 1_555
O6_17 Cu25_6 1_555 1_555
O7_17 Cu25_6 1_555 1_555
O8_14 C7_17 1_555 1_555
O9_14 C7_17 1_555 1_555
C7_17 C8_17 1_555 1_555
C8_17 C2_17 1_555 1_555
N30_3 N1_17 1_555 1_555
C9_17 C4_17 1_555 1_555
H3_17 C9_17 1_555 1_555
N4_17 C6_17 1_555 1_555
Cu7_17 O9_14 1_555 1_555
Cu8_17 O8_14 1_555 1_555
Cu24 N9_14 1_555 1_555
O19_11 Cu8_17 1_555 1_555
O20_11 Cu7_17 1_555 1_555
C19_14 O19_11 1_555 1_555
C20_14 H7_14 1_555 1_555
C21_14 C19_14 1_555 1_555
O21_22 Cu7_17 1_555 1_555
C22_14 C23_14 1_555 1_555
N9_14 N10_14 1_555 1_555
C23_14 C21_14 1_555 1_555
H8_14 C23_14 1_555 1_555
N10_14 C24_14 1_555 1_555
C24_14 C22_14 1_555 1_555
O22_22 Cu8_17 1_555 1_555
O23_14 Cu24 1_555 1_555
O24_14 Cu24 1_555 1_555
O25_11 C25_14 1_555 1_555
O26_11 C25_14 1_555 1_555
C25_14 C26_14 1_555 1_555
C26_14 C20_14 1_555 1_555
N26_8 N9_14 1_555 1_555
C27_14 C22_14 1_555 1_555
H9_14 C27_14 1_555 1_555
N12_14 C24_14 1_555 1_555
Cu25_17 N13_17 1_555 1_555
O27_14 Cu8_17 1_555 1_555
O28_14 Cu7_17 1_555 1_555
C28_17 O27_14 1_555 1_555
C29_17 H10_17 1_555 1_555
C30_17 C28_17 1_555 1_555
C31_17 C32_17 1_555 1_555
N13_17 N14_17 1_555 1_555
C32_17 C30_17 1_555 1_555
H11_17 C32_17 1_555 1_555
N14_17 C33_17 1_555 1_555
C33_17 C31_17 1_555 1_555
O29_17 Cu25_17 1_555 1_555
O30_17 Cu25_17 1_555 1_555
O46_10 C34_17 1_555 1_555
O50_10 C34_17 1_555 1_555
C34_17 C35_17 1_555 1_555
C35_17 C29_17 1_555 1_555
N27_5 N13_17 1_555 1_555
C36_17 C31_17 1_555 1_555
H12_17 C36_17 1_555 1_555
N16_17 C33_17 1_555 1_555
Cu13_15 O26_11 1_555 1_555
Cu16_15 O25_11 1_555 1_555
O46_11 Cu8_17 1_555 1_555
O50_11 Cu7_17 1_555 1_555
N2_17 C6_17 1_555 1_555
C8_17 C9_17 1_555 1_555
N30_3 N4_17 1_555 1_555
O20_11 C19_14 1_555 1_555
C20_14 C21_14 1_555 1_555
C26_14 C27_14 1_555 1_555
N26_8 N12_14 1_555 1_555
O28_14 C28_17 1_555 1_555
C29_17 C30_17 1_555 1_555
C35_17 C36_17 1_555 1_555
N27_5 N16_17 1_555 1_555
O4_20 Cu13_14 1_555 1_555
O5_20 Cu16_14 1_555 1_555
Cu4_17 O11_14 1_555 1_555
Cu5_17 O10_14 1_555 1_555
O10_14 C10_17 1_555 1_555
O11_14 C10_17 1_555 1_555
C10_17 C12_17 1_555 1_555
C11_17 H4_17 1_555 1_555
C12_17 C11_17 1_555 1_555
O13_22 Cu4_17 1_555 1_555
C13_17 C14_17 1_555 1_555
N5_17 Cu26_4 1_555 1_555
C14_17 C12_17 1_555 1_555
H5_17 C14_17 1_555 1_555
N6_17 N5_17 1_555 1_555
C15_17 C13_17 1_555 1_555
O14_22 Cu5_17 1_555 1_555
O15_17 Cu26_4 1_555 1_555
O16_17 Cu26_4 1_555 1_555
O17_14 Cu16_14 1_555 1_555
O18_14 Cu13_14 1_555 1_555
C16_17 O17_14 1_555 1_555
C17_17 C11_17 1_555 1_555
N26_6 N5_17 1_555 1_555
C18_17 C13_17 1_555 1_555
H6_17 C18_17 1_555 1_555
N8_17 C15_17 1_555 1_555
Cu25_4 N21_14 1_555 1_555
O39_14 Cu16_14 1_555 1_555
O40_14 Cu13_14 1_555 1_555
C46_14 O39_14 1_555 1_555
C47_14 H16_14 1_555 1_555
C48_14 C46_14 1_555 1_555
C49_14 C50_14 1_555 1_555
N21_14 N22_14 1_555 1_555
C50_14 C48_14 1_555 1_555
H17_14 C50_14 1_555 1_555
N22_14 C51_14 1_555 1_555
C51_14 C49_14 1_555 1_555
O41_14 Cu25_4 1_555 1_555
O42_14 Cu25_4 1_555 1_555
O48_10 C52_14 1_555 1_555
O52_10 C52_14 1_555 1_555
C52_14 C53_14 1_555 1_555
C53_14 C47_14 1_555 1_555
N29_4 N21_14 1_555 1_555
C54_14 C49_14 1_555 1_555
H18_14 C54_14 1_555 1_555
N24_14 C51_14 1_555 1_555
O45_14 Cu5_17 1_555 1_555
O47_14 Cu5_17 1_555 1_555
O48_11 Cu5_17 1_555 1_555
O49_14 Cu4_17 1_555 1_555
O51_14 Cu4_17 1_555 1_555
O52_11 Cu4_17 1_555 1_555
N6_17 C15_17 1_555 1_555
O18_14 C16_17 1_555 1_555
C16_17 C17_17 1_555 1_555
C17_17 C18_17 1_555 1_555
N26_6 N8_17 1_555 1_555
O40_14 C46_14 1_555 1_555
C47_14 C48_14 1_555 1_555
C53_14 C54_14 1_555 1_555
N29_4 N24_14 1_555 1_555
Cu13_15 O2_15 1_555 1_555
Cu16_15 O1_15 1_555 1_555
O1_15 C1_18 1_555 1_555
O2_15 C1_18 1_555 1_555
C1_18 C3_18 1_555 1_555
C2_18 H1_18 1_555 1_555
C3_18 C2_18 1_555 1_555
O4_21 Cu13_15 1_555 1_555
C4_18 C5_18 1_555 1_555
N1_18 Cu21_8 1_555 1_555
C5_18 C3_18 1_555 1_555
H2_18 C5_18 1_555 1_555
N2_18 N1_18 1_555 1_555
C6_18 C4_18 1_555 1_555
O5_21 Cu16_15 1_555 1_555
O6_18 Cu21_8 1_555 1_555
O7_18 Cu21_8 1_555 1_555
O8_15 C7_18 1_555 1_555
O9_15 C7_18 1_555 1_555
C7_18 C8_18 1_555 1_555
C8_18 C2_18 1_555 1_555
N28 N1_18 1_555 1_555
C9_18 C4_18 1_555 1_555
H3_18 C9_18 1_555 1_555
N4_18 C6_18 1_555 1_555
Cu7_18 O9_15 1_555 1_555
Cu8_18 O8_15 1_555 1_555
Cu24_2 N9_15 1_555 1_555
O19_12 Cu8_18 1_555 1_555
O20_12 Cu7_18 1_555 1_555
C19_15 O19_12 1_555 1_555
C20_15 H7_15 1_555 1_555
C21_15 C19_15 1_555 1_555
O21_23 Cu7_18 1_555 1_555
C22_15 C23_15 1_555 1_555
N9_15 N10_15 1_555 1_555
C23_15 C21_15 1_555 1_555
H8_15 C23_15 1_555 1_555
N10_15 C24_15 1_555 1_555
C24_15 C22_15 1_555 1_555
O22_23 Cu8_18 1_555 1_555
O23_15 Cu24_2 1_555 1_555
O24_15 Cu24_2 1_555 1_555
O25_12 C25_15 1_555 1_555
O26_12 C25_15 1_555 1_555
C25_15 C26_15 1_555 1_555
C26_15 C20_15 1_555 1_555
N25_10 N9_15 1_555 1_555
C27_15 C22_15 1_555 1_555
H9_15 C27_15 1_555 1_555
N12_15 C24_15 1_555 1_555
Cu19_7 N13_18 1_555 1_555
O27_15 Cu8_18 1_555 1_555
O28_15 Cu7_18 1_555 1_555
C28_18 O27_15 1_555 1_555
C29_18 H10_18 1_555 1_555
C30_18 C28_18 1_555 1_555
C31_18 C32_18 1_555 1_555
N13_18 N14_18 1_555 1_555
C32_18 C30_18 1_555 1_555
H11_18 C32_18 1_555 1_555
N14_18 C33_18 1_555 1_555
C33_18 C31_18 1_555 1_555
O29_18 Cu19_7 1_555 1_555
O30_18 Cu19_7 1_555 1_555
O46_11 C34_18 1_555 1_555
O50_11 C34_18 1_555 1_555
C34_18 C35_18 1_555 1_555
C35_18 C29_18 1_555 1_555
N27_7 N13_18 1_555 1_555
C36_18 C31_18 1_555 1_555
H12_18 C36_18 1_555 1_555
N16_18 C33_18 1_555 1_555
Cu13_17 O26_12 1_555 1_555
Cu16_17 O25_12 1_555 1_555
O46_12 Cu8_18 1_555 1_555
O50_12 Cu7_18 1_555 1_555
N2_18 C6_18 1_555 1_555
C8_18 C9_18 1_555 1_555
N28 N4_18 1_555 1_555
O20_12 C19_15 1_555 1_555
C20_15 C21_15 1_555 1_555
C26_15 C27_15 1_555 1_555
N25_10 N12_15 1_555 1_555
O28_15 C28_18 1_555 1_555
C29_18 C30_18 1_555 1_555
C35_18 C36_18 1_555 1_555
N27_7 N16_18 1_555 1_555
O4_22 Cu13_16 1_555 1_555
O5_22 Cu16_16 1_555 1_555
Cu4_18 O11_15 1_555 1_555
Cu5_18 O10_15 1_555 1_555
O10_15 C10_18 1_555 1_555
O11_15 C10_18 1_555 1_555
C10_18 C12_18 1_555 1_555
C11_18 H4_18 1_555 1_555
C12_18 C11_18 1_555 1_555
O13_23 Cu4_18 1_555 1_555
C13_18 C14_18 1_555 1_555
N5_18 Cu26 1_555 1_555
C14_18 C12_18 1_555 1_555
H5_18 C14_18 1_555 1_555
N6_18 N5_18 1_555 1_555
C15_18 C13_18 1_555 1_555
O14_23 Cu5_18 1_555 1_555
O15_18 Cu26 1_555 1_555
O16_18 Cu26 1_555 1_555
O17_15 Cu16_16 1_555 1_555
O18_15 Cu13_16 1_555 1_555
C16_18 O17_15 1_555 1_555
C17_18 C11_18 1_555 1_555
N26_9 N5_18 1_555 1_555
C18_18 C13_18 1_555 1_555
H6_18 C18_18 1_555 1_555
N8_18 C15_18 1_555 1_555
Cu25 N21_15 1_555 1_555
O39_15 Cu16_16 1_555 1_555
O40_15 Cu13_16 1_555 1_555
C46_15 O39_15 1_555 1_555
C47_15 H16_15 1_555 1_555
C48_15 C46_15 1_555 1_555
C49_15 C50_15 1_555 1_555
N21_15 N22_15 1_555 1_555
C50_15 C48_15 1_555 1_555
H17_15 C50_15 1_555 1_555
N22_15 C51_15 1_555 1_555
C51_15 C49_15 1_555 1_555
O41_15 Cu25 1_555 1_555
O42_15 Cu25 1_555 1_555
O48_11 C52_15 1_555 1_555
O52_11 C52_15 1_555 1_555
C52_15 C53_15 1_555 1_555
C53_15 C47_15 1_555 1_555
N29 N21_15 1_555 1_555
C54_15 C49_15 1_555 1_555
H18_15 C54_15 1_555 1_555
N24_15 C51_15 1_555 1_555
O45_15 Cu5_18 1_555 1_555
O47_15 Cu5_18 1_555 1_555
O48_12 Cu5_18 1_555 1_555
O49_15 Cu4_18 1_555 1_555
O51_15 Cu4_18 1_555 1_555
O52_12 Cu4_18 1_555 1_555
N6_18 C15_18 1_555 1_555
O18_15 C16_18 1_555 1_555
C16_18 C17_18 1_555 1_555
C17_18 C18_18 1_555 1_555
N26_9 N8_18 1_555 1_555
O40_15 C46_15 1_555 1_555
C47_15 C48_15 1_555 1_555
C53_15 C54_15 1_555 1_555
N29 N24_15 1_555 1_555
Cu13_17 O2_16 1_555 1_555
Cu16_17 O1_16 1_555 1_555
O1_16 C1_19 1_555 1_555
O2_16 C1_19 1_555 1_555
C1_19 C3_19 1_555 1_555
C2_19 H1_19 1_555 1_555
C3_19 C2_19 1_555 1_555
O4_23 Cu13_17 1_555 1_555
C4_19 C5_19 1_555 1_555
N1_19 Cu25_9 1_555 1_555
C5_19 C3_19 1_555 1_555
H2_19 C5_19 1_555 1_555
N2_19 N1_19 1_555 1_555
C6_19 C4_19 1_555 1_555
O5_23 Cu16_17 1_555 1_555
O6_19 Cu25_9 1_555 1_555
O7_19 Cu25_9 1_555 1_555
O8_16 C7_19 1_555 1_555
O9_16 C7_19 1_555 1_555
C7_19 C8_19 1_555 1_555
C8_19 C2_19 1_555 1_555
N30 N1_19 1_555 1_555
C9_19 C4_19 1_555 1_555
H3_19 C9_19 1_555 1_555
N4_19 C6_19 1_555 1_555
Cu14_6 O9_16 1_555 1_555
Cu17_6 O8_16 1_555 1_555
O21_24 Cu14_6 1_555 1_555
O22_24 Cu17_6 1_555 1_555
Cu25_16 N13_19 1_555 1_555
O27_16 Cu17_6 1_555 1_555
O28_16 Cu14_6 1_555 1_555
C28_19 O27_16 1_555 1_555
C29_19 H10_19 1_555 1_555
C30_19 C28_19 1_555 1_555
C31_19 C32_19 1_555 1_555
N13_19 N14_19 1_555 1_555
C32_19 C30_19 1_555 1_555
H11_19 C32_19 1_555 1_555
N14_19 C33_19 1_555 1_555
C33_19 C31_19 1_555 1_555
O29_19 Cu25_16 1_555 1_555
O30_19 Cu25_16 1_555 1_555
O46_12 C34_19 1_555 1_555
O50_12 C34_19 1_555 1_555
C34_19 C35_19 1_555 1_555
C35_19 C29_19 1_555 1_555
N27_6 N13_19 1_555 1_555
C36_19 C31_19 1_555 1_555
H12_19 C36_19 1_555 1_555
N16_19 C33_19 1_555 1_555
N2_19 C6_19 1_555 1_555
C8_19 C9_19 1_555 1_555
N30 N4_19 1_555 1_555
O28_16 C28_19 1_555 1_555
C29_19 C30_19 1_555 1_555
C35_19 C36_19 1_555 1_555
N27_6 N16_19 1_555 1_555
O4_24 Cu13_18 1_555 1_555
O5_24 Cu16_18 1_555 1_555
Cu15_6 O11_16 1_555 1_555
Cu18_6 O10_16 1_555 1_555
O10_16 C10_19 1_555 1_555
O11_16 C10_19 1_555 1_555
C10_19 C12_19 1_555 1_555
C11_19 H4_19 1_555 1_555
C12_19 C11_19 1_555 1_555
O13_24 Cu15_6 1_555 1_555
C13_19 C14_19 1_555 1_555
N5_19 Cu26_2 1_555 1_555
C14_19 C12_19 1_555 1_555
H5_19 C14_19 1_555 1_555
N6_19 N5_19 1_555 1_555
C15_19 C13_19 1_555 1_555
O14_24 Cu18_6 1_555 1_555
O15_19 Cu26_2 1_555 1_555
O16_19 Cu26_2 1_555 1_555
O17_16 Cu16_18 1_555 1_555
O18_16 Cu13_18 1_555 1_555
C16_19 O17_16 1_555 1_555
C17_19 C11_19 1_555 1_555
N26_7 N5_19 1_555 1_555
C18_19 C13_19 1_555 1_555
H6_19 C18_19 1_555 1_555
N8_19 C15_19 1_555 1_555
Cu25_2 N21_16 1_555 1_555
O39_16 Cu16_18 1_555 1_555
O40_16 Cu13_18 1_555 1_555
C46_16 O39_16 1_555 1_555
C47_16 H16_16 1_555 1_555
C48_16 C46_16 1_555 1_555
C49_16 C50_16 1_555 1_555
N21_16 N22_16 1_555 1_555
C50_16 C48_16 1_555 1_555
H17_16 C50_16 1_555 1_555
N22_16 C51_16 1_555 1_555
C51_16 C49_16 1_555 1_555
O41_16 Cu25_2 1_555 1_555
O42_16 Cu25_2 1_555 1_555
O48_12 C52_16 1_555 1_555
O52_12 C52_16 1_555 1_555
C52_16 C53_16 1_555 1_555
C53_16 C47_16 1_555 1_555
N29_2 N21_16 1_555 1_555
C54_16 C49_16 1_555 1_555
H18_16 C54_16 1_555 1_555
N24_16 C51_16 1_555 1_555
O45_16 Cu18_6 1_555 1_555
O47_16 Cu18_6 1_555 1_555
O49_16 Cu15_6 1_555 1_555
O51_16 Cu15_6 1_555 1_555
N6_19 C15_19 1_555 1_555
O18_16 C16_19 1_555 1_555
C16_19 C17_19 1_555 1_555
C17_19 C18_19 1_555 1_555
N26_7 N8_19 1_555 1_555
O40_16 C46_16 1_555 1_555
C47_16 C48_16 1_555 1_555
C53_16 C54_16 1_555 1_555
N29_2 N24_16 1_555 1_555
Cu22_5 N13_20 1_555 1_555
C28_20 O45_15 1_555 1_555
C29_20 H10_20 1_555 1_555
C30_20 C28_20 1_555 1_555
C31_20 C32_20 1_555 1_555
N13_20 N14_20 1_555 1_555
C32_20 C30_20 1_555 1_555
H11_20 C32_20 1_555 1_555
N14_20 C33_20 1_555 1_555
C33_20 C31_20 1_555 1_555
O29_20 Cu22_5 1_555 1_555
O30_20 Cu22_5 1_555 1_555
O47_16 C34_20 1_555 1_555
O51_16 C34_20 1_555 1_555
C34_20 C35_20 1_555 1_555
C35_20 C29_20 1_555 1_555
N25_8 N13_20 1_555 1_555
C36_20 C31_20 1_555 1_555
H12_20 C36_20 1_555 1_555
N16_20 C33_20 1_555 1_555
O49_15 C28_20 1_555 1_555
C29_20 C30_20 1_555 1_555
C35_20 C36_20 1_555 1_555
N25_8 N16_20 1_555 1_555
O45_16 C1_20 1_555 1_555
O49_16 C1_20 1_555 1_555
C1_20 C3_20 1_555 1_555
C2_20 H1_20 1_555 1_555
C3_20 C2_20 1_555 1_555
C4_20 C5_20 1_555 1_555
N1_20 Cu21_12 1_555 1_555
C5_20 C3_20 1_555 1_555
H2_20 C5_20 1_555 1_555
N2_20 N1_20 1_555 1_555
C6_20 C4_20 1_555 1_555
O6_20 Cu21_12 1_555 1_555
O7_20 Cu21_12 1_555 1_555
O47_13 C7_20 1_555 1_555
O51_13 C7_20 1_555 1_555
C7_20 C8_20 1_555 1_555
C8_20 C2_20 1_555 1_555
N25_6 N1_20 1_555 1_555
C9_20 C4_20 1_555 1_555
H3_20 C9_20 1_555 1_555
N4_20 C6_20 1_555 1_555
Cu23_2 N9_16 1_555 1_555
C19_16 O45_13 1_555 1_555
C20_16 H7_16 1_555 1_555
C21_16 C19_16 1_555 1_555
C22_16 C23_16 1_555 1_555
N9_16 N10_16 1_555 1_555
C23_16 C21_16 1_555 1_555
H8_16 C23_16 1_555 1_555
N10_16 C24_16 1_555 1_555
C24_16 C22_16 1_555 1_555
O23_16 Cu23_2 1_555 1_555
O24_16 Cu23_2 1_555 1_555
O47_14 C25_16 1_555 1_555
O51_14 C25_16 1_555 1_555
C25_16 C26_16 1_555 1_555
C26_16 C20_16 1_555 1_555
N25_9 N9_16 1_555 1_555
C27_16 C22_16 1_555 1_555
H9_16 C27_16 1_555 1_555
N12_16 C24_16 1_555 1_555
N2_20 C6_20 1_555 1_555
C8_20 C9_20 1_555 1_555
N25_6 N4_20 1_555 1_555
O49_13 C19_16 1_555 1_555
C20_16 C21_16 1_555 1_555
C26_16 C27_16 1_555 1_555
N25_9 N12_16 1_555 1_555
O45_14 C10_20 1_555 1_555
O49_14 C10_20 1_555 1_555
C10_20 C12_20 1_555 1_555
C11_20 H4_20 1_555 1_555
C12_20 C11_20 1_555 1_555
C13_20 C14_20 1_555 1_555
N5_20 Cu21_13 1_555 1_555
C14_20 C12_20 1_555 1_555
H5_20 C14_20 1_555 1_555
N6_20 N5_20 1_555 1_555
C15_20 C13_20 1_555 1_555
O15_20 Cu21_13 1_555 1_555
O16_20 Cu21_13 1_555 1_555
C16_20 O47_15 1_555 1_555
C17_20 C11_20 1_555 1_555
N25_7 N5_20 1_555 1_555
C18_20 C13_20 1_555 1_555
H6_20 C18_20 1_555 1_555
N8_20 C15_20 1_555 1_555
N6_20 C15_20 1_555 1_555
O51_15 C16_20 1_555 1_555
C16_20 C17_20 1_555 1_555
C17_20 C18_20 1_555 1_555
N25_7 N8_20 1_555 1_555
P1 O57 1_555 1_555
O57 Mo1 1_555 1_555
Mo1 O58 1_555 1_555
O58 Mo3 1_555 1_555
O59 Mo1 1_555 1_555
O60 Mo1 1_555 1_555
O61 P1 1_555 1_555
O62 P1 1_555 1_555
O63 P1 1_555 1_555
Mo2 O61 1_555 1_555
O64 Mo1 1_555 1_555
O65 Mo2 1_555 1_555
O66 Mo2 1_555 1_555
Mo3 O62 1_555 1_555
O67 Mo2 1_555 1_555
O68 Mo3 1_555 1_555
O69 Mo3 1_555 1_555
Mo4 O61 1_555 1_555
O70 Mo4 1_555 1_555
O71 Mo2 1_555 1_555
O72 Mo4 1_555 1_555
Mo5 O57 1_555 1_555
O73 Mo4 1_555 1_555
O74 Mo5 1_555 1_555
O75 Mo5 1_555 1_555
Mo6 O63 1_555 1_555
O76 Mo5 1_555 1_555
O77 Mo6 1_555 1_555
O78 Mo6 1_555 1_555
Mo7 O63 1_555 1_555
O79 Mo7 1_555 1_555
O80 Mo7 1_555 1_555
O81 Mo7 1_555 1_555
Mo8 O61 1_555 1_555
O82 Mo8 1_555 1_555
O83 Mo4 1_555 1_555
O84 Mo8 1_555 1_555
Mo9 O62 1_555 1_555
O85 Mo7 1_555 1_555
O86 Mo3 1_555 1_555
O87 Mo9 1_555 1_555
Mo10 O62 1_555 1_555
O88 Mo10 1_555 1_555
O89 Mo9 1_555 1_555
O90 Mo10 1_555 1_555
Mo11 O57 1_555 1_555
O91 Mo11 1_555 1_555
O92 Mo1 1_555 1_555
O93 Mo11 1_555 1_555
Mo12 O63 1_555 1_555
O94 Mo10 1_555 1_555
O95 Mo6 1_555 1_555
O96 Mo12 1_555 1_555
O59 Mo5 1_555 1_555
Mo2 O64 1_555 1_555
O65 Mo8 1_555 1_555
Mo3 O67 1_555 1_555
O68 Mo10 1_555 1_555
Mo4 O71 1_555 1_555
O70 Mo6 1_555 1_555
Mo5 O73 1_555 1_555
O74 Mo11 1_555 1_555
Mo6 O76 1_555 1_555
O77 Mo7 1_555 1_555
O79 Mo8 1_555 1_555
O80 Mo12 1_555 1_555
Mo8 O83 1_555 1_555
O82 Mo9 1_555 1_555
Mo9 O85 1_555 1_555
Mo9 O86 1_555 1_555
Mo10 O89 1_555 1_555
O88 Mo11 1_555 1_555
Mo11 O92 1_555 1_555
O91 Mo12 1_555 1_555
Mo12 O94 1_555 1_555
Mo12 O95 1_555 1_555
P1_2 O57_2 1_555 1_555
O57_2 Mo1_2 1_555 1_555
Mo1_2 O58_2 1_555 1_555
O58_2 Mo3_2 1_555 1_555
O59_2 Mo1_2 1_555 1_555
O60_2 Mo1_2 1_555 1_555
O61_2 P1_2 1_555 1_555
O62_2 P1_2 1_555 1_555
O63_2 P1_2 1_555 1_555
Mo2_2 O61_2 1_555 1_555
O64_2 Mo1_2 1_555 1_555
O65_2 Mo2_2 1_555 1_555
O66_2 Mo2_2 1_555 1_555
Mo3_2 O62_2 1_555 1_555
O67_2 Mo2_2 1_555 1_555
O68_2 Mo3_2 1_555 1_555
O69_2 Mo3_2 1_555 1_555
Mo4_2 O61_2 1_555 1_555
O70_2 Mo4_2 1_555 1_555
O71_2 Mo2_2 1_555 1_555
O72_2 Mo4_2 1_555 1_555
Mo5_2 O57_2 1_555 1_555
O73_2 Mo4_2 1_555 1_555
O74_2 Mo5_2 1_555 1_555
O75_2 Mo5_2 1_555 1_555
Mo6_2 O63_2 1_555 1_555
O76_2 Mo5_2 1_555 1_555
O77_2 Mo6_2 1_555 1_555
O78_2 Mo6_2 1_555 1_555
Mo7_2 O63_2 1_555 1_555
O79_2 Mo7_2 1_555 1_555
O80_2 Mo7_2 1_555 1_555
O81_2 Mo7_2 1_555 1_555
Mo8_2 O61_2 1_555 1_555
O82_2 Mo8_2 1_555 1_555
O83_2 Mo4_2 1_555 1_555
O84_2 Mo8_2 1_555 1_555
Mo9_2 O62_2 1_555 1_555
O85_2 Mo7_2 1_555 1_555
O86_2 Mo3_2 1_555 1_555
O87_2 Mo9_2 1_555 1_555
Mo10_2 O62_2 1_555 1_555
O88_2 Mo10_2 1_555 1_555
O89_2 Mo9_2 1_555 1_555
O90_2 Mo10_2 1_555 1_555
Mo11_2 O57_2 1_555 1_555
O91_2 Mo11_2 1_555 1_555
O92_2 Mo1_2 1_555 1_555
O93_2 Mo11_2 1_555 1_555
Mo12_2 O63_2 1_555 1_555
O94_2 Mo10_2 1_555 1_555
O95_2 Mo6_2 1_555 1_555
O96_2 Mo12_2 1_555 1_555
O59_2 Mo5_2 1_555 1_555
Mo2_2 O64_2 1_555 1_555
O65_2 Mo8_2 1_555 1_555
Mo3_2 O67_2 1_555 1_555
O68_2 Mo10_2 1_555 1_555
Mo4_2 O71_2 1_555 1_555
O70_2 Mo6_2 1_555 1_555
Mo5_2 O73_2 1_555 1_555
O74_2 Mo11_2 1_555 1_555
Mo6_2 O76_2 1_555 1_555
O77_2 Mo7_2 1_555 1_555
O79_2 Mo8_2 1_555 1_555
O80_2 Mo12_2 1_555 1_555
Mo8_2 O83_2 1_555 1_555
O82_2 Mo9_2 1_555 1_555
Mo9_2 O85_2 1_555 1_555
Mo9_2 O86_2 1_555 1_555
Mo10_2 O89_2 1_555 1_555
O88_2 Mo11_2 1_555 1_555
Mo11_2 O92_2 1_555 1_555
O91_2 Mo12_2 1_555 1_555
Mo12_2 O94_2 1_555 1_555
Mo12_2 O95_2 1_555 1_555
P1_3 O57_3 1_555 1_555
O57_3 Mo1_3 1_555 1_555
Mo1_3 O58_3 1_555 1_555
O58_3 Mo3_3 1_555 1_555
O59_3 Mo1_3 1_555 1_555
O60_3 Mo1_3 1_555 1_555
O61_3 P1_3 1_555 1_555
O62_3 P1_3 1_555 1_555
O63_3 P1_3 1_555 1_555
Mo2_3 O61_3 1_555 1_555
O64_3 Mo1_3 1_555 1_555
O65_3 Mo2_3 1_555 1_555
O66_3 Mo2_3 1_555 1_555
Mo3_3 O62_3 1_555 1_555
O67_3 Mo2_3 1_555 1_555
O68_3 Mo3_3 1_555 1_555
O69_3 Mo3_3 1_555 1_555
Mo4_3 O61_3 1_555 1_555
O70_3 Mo4_3 1_555 1_555
O71_3 Mo2_3 1_555 1_555
O72_3 Mo4_3 1_555 1_555
Mo5_3 O57_3 1_555 1_555
O73_3 Mo4_3 1_555 1_555
O74_3 Mo5_3 1_555 1_555
O75_3 Mo5_3 1_555 1_555
Mo6_3 O63_3 1_555 1_555
O76_3 Mo5_3 1_555 1_555
O77_3 Mo6_3 1_555 1_555
O78_3 Mo6_3 1_555 1_555
Mo7_3 O63_3 1_555 1_555
O79_3 Mo7_3 1_555 1_555
O80_3 Mo7_3 1_555 1_555
O81_3 Mo7_3 1_555 1_555
Mo8_3 O61_3 1_555 1_555
O82_3 Mo8_3 1_555 1_555
O83_3 Mo4_3 1_555 1_555
O84_3 Mo8_3 1_555 1_555
Mo9_3 O62_3 1_555 1_555
O85_3 Mo7_3 1_555 1_555
O86_3 Mo3_3 1_555 1_555
O87_3 Mo9_3 1_555 1_555
Mo10_3 O62_3 1_555 1_555
O88_3 Mo10_3 1_555 1_555
O89_3 Mo9_3 1_555 1_555
O90_3 Mo10_3 1_555 1_555
Mo11_3 O57_3 1_555 1_555
O91_3 Mo11_3 1_555 1_555
O92_3 Mo1_3 1_555 1_555
O93_3 Mo11_3 1_555 1_555
Mo12_3 O63_3 1_555 1_555
O94_3 Mo10_3 1_555 1_555
O95_3 Mo6_3 1_555 1_555
O96_3 Mo12_3 1_555 1_555
O59_3 Mo5_3 1_555 1_555
Mo2_3 O64_3 1_555 1_555
O65_3 Mo8_3 1_555 1_555
Mo3_3 O67_3 1_555 1_555
O68_3 Mo10_3 1_555 1_555
Mo4_3 O71_3 1_555 1_555
O70_3 Mo6_3 1_555 1_555
Mo5_3 O73_3 1_555 1_555
O74_3 Mo11_3 1_555 1_555
Mo6_3 O76_3 1_555 1_555
O77_3 Mo7_3 1_555 1_555
O79_3 Mo8_3 1_555 1_555
O80_3 Mo12_3 1_555 1_555
Mo8_3 O83_3 1_555 1_555
O82_3 Mo9_3 1_555 1_555
Mo9_3 O85_3 1_555 1_555
Mo9_3 O86_3 1_555 1_555
Mo10_3 O89_3 1_555 1_555
O88_3 Mo11_3 1_555 1_555
Mo11_3 O92_3 1_555 1_555
O91_3 Mo12_3 1_555 1_555
Mo12_3 O94_3 1_555 1_555
Mo12_3 O95_3 1_555 1_555
P1_4 O57_4 1_555 1_555
O57_4 Mo1_4 1_555 1_555
Mo1_4 O58_4 1_555 1_555
O58_4 Mo3_4 1_555 1_555
O59_4 Mo1_4 1_555 1_555
O60_4 Mo1_4 1_555 1_555
O61_4 P1_4 1_555 1_555
O62_4 P1_4 1_555 1_555
O63_4 P1_4 1_555 1_555
Mo2_4 O61_4 1_555 1_555
O64_4 Mo1_4 1_555 1_555
O65_4 Mo2_4 1_555 1_555
O66_4 Mo2_4 1_555 1_555
Mo3_4 O62_4 1_555 1_555
O67_4 Mo2_4 1_555 1_555
O68_4 Mo3_4 1_555 1_555
O69_4 Mo3_4 1_555 1_555
Mo4_4 O61_4 1_555 1_555
O70_4 Mo4_4 1_555 1_555
O71_4 Mo2_4 1_555 1_555
O72_4 Mo4_4 1_555 1_555
Mo5_4 O57_4 1_555 1_555
O73_4 Mo4_4 1_555 1_555
O74_4 Mo5_4 1_555 1_555
O75_4 Mo5_4 1_555 1_555
Mo6_4 O63_4 1_555 1_555
O76_4 Mo5_4 1_555 1_555
O77_4 Mo6_4 1_555 1_555
O78_4 Mo6_4 1_555 1_555
Mo7_4 O63_4 1_555 1_555
O79_4 Mo7_4 1_555 1_555
O80_4 Mo7_4 1_555 1_555
O81_4 Mo7_4 1_555 1_555
Mo8_4 O61_4 1_555 1_555
O82_4 Mo8_4 1_555 1_555
O83_4 Mo4_4 1_555 1_555
O84_4 Mo8_4 1_555 1_555
Mo9_4 O62_4 1_555 1_555
O85_4 Mo7_4 1_555 1_555
O86_4 Mo3_4 1_555 1_555
O87_4 Mo9_4 1_555 1_555
Mo10_4 O62_4 1_555 1_555
O88_4 Mo10_4 1_555 1_555
O89_4 Mo9_4 1_555 1_555
O90_4 Mo10_4 1_555 1_555
Mo11_4 O57_4 1_555 1_555
O91_4 Mo11_4 1_555 1_555
O92_4 Mo1_4 1_555 1_555
O93_4 Mo11_4 1_555 1_555
Mo12_4 O63_4 1_555 1_555
O94_4 Mo10_4 1_555 1_555
O95_4 Mo6_4 1_555 1_555
O96_4 Mo12_4 1_555 1_555
O59_4 Mo5_4 1_555 1_555
Mo2_4 O64_4 1_555 1_555
O65_4 Mo8_4 1_555 1_555
Mo3_4 O67_4 1_555 1_555
O68_4 Mo10_4 1_555 1_555
Mo4_4 O71_4 1_555 1_555
O70_4 Mo6_4 1_555 1_555
Mo5_4 O73_4 1_555 1_555
O74_4 Mo11_4 1_555 1_555
Mo6_4 O76_4 1_555 1_555
O77_4 Mo7_4 1_555 1_555
O79_4 Mo8_4 1_555 1_555
O80_4 Mo12_4 1_555 1_555
Mo8_4 O83_4 1_555 1_555
O82_4 Mo9_4 1_555 1_555
Mo9_4 O85_4 1_555 1_555
Mo9_4 O86_4 1_555 1_555
Mo10_4 O89_4 1_555 1_555
O88_4 Mo11_4 1_555 1_555
Mo11_4 O92_4 1_555 1_555
O91_4 Mo12_4 1_555 1_555
Mo12_4 O94_4 1_555 1_555
Mo12_4 O95_4 1_555 1_555
P1_5 O57_5 1_555 1_555
O57_5 Mo1_5 1_555 1_555
Mo1_5 O58_5 1_555 1_555
O58_5 Mo3_5 1_555 1_555
O59_5 Mo1_5 1_555 1_555
O60_5 Mo1_5 1_555 1_555
O61_5 P1_5 1_555 1_555
O62_5 P1_5 1_555 1_555
O63_5 P1_5 1_555 1_555
Mo2_5 O61_5 1_555 1_555
O64_5 Mo1_5 1_555 1_555
O65_5 Mo2_5 1_555 1_555
O66_5 Mo2_5 1_555 1_555
Mo3_5 O62_5 1_555 1_555
O67_5 Mo2_5 1_555 1_555
O68_5 Mo3_5 1_555 1_555
O69_5 Mo3_5 1_555 1_555
Mo4_5 O61_5 1_555 1_555
O70_5 Mo4_5 1_555 1_555
O71_5 Mo2_5 1_555 1_555
O72_5 Mo4_5 1_555 1_555
Mo5_5 O57_5 1_555 1_555
O73_5 Mo4_5 1_555 1_555
O74_5 Mo5_5 1_555 1_555
O75_5 Mo5_5 1_555 1_555
Mo6_5 O63_5 1_555 1_555
O76_5 Mo5_5 1_555 1_555
O77_5 Mo6_5 1_555 1_555
O78_5 Mo6_5 1_555 1_555
Mo7_5 O63_5 1_555 1_555
O79_5 Mo7_5 1_555 1_555
O80_5 Mo7_5 1_555 1_555
O81_5 Mo7_5 1_555 1_555
Mo8_5 O61_5 1_555 1_555
O82_5 Mo8_5 1_555 1_555
O83_5 Mo4_5 1_555 1_555
O84_5 Mo8_5 1_555 1_555
Mo9_5 O62_5 1_555 1_555
O85_5 Mo7_5 1_555 1_555
O86_5 Mo3_5 1_555 1_555
O87_5 Mo9_5 1_555 1_555
Mo10_5 O62_5 1_555 1_555
O88_5 Mo10_5 1_555 1_555
O89_5 Mo9_5 1_555 1_555
O90_5 Mo10_5 1_555 1_555
Mo11_5 O57_5 1_555 1_555
O91_5 Mo11_5 1_555 1_555
O92_5 Mo1_5 1_555 1_555
O93_5 Mo11_5 1_555 1_555
Mo12_5 O63_5 1_555 1_555
O94_5 Mo10_5 1_555 1_555
O95_5 Mo6_5 1_555 1_555
O96_5 Mo12_5 1_555 1_555
O59_5 Mo5_5 1_555 1_555
Mo2_5 O64_5 1_555 1_555
O65_5 Mo8_5 1_555 1_555
Mo3_5 O67_5 1_555 1_555
O68_5 Mo10_5 1_555 1_555
Mo4_5 O71_5 1_555 1_555
O70_5 Mo6_5 1_555 1_555
Mo5_5 O73_5 1_555 1_555
O74_5 Mo11_5 1_555 1_555
Mo6_5 O76_5 1_555 1_555
O77_5 Mo7_5 1_555 1_555
O79_5 Mo8_5 1_555 1_555
O80_5 Mo12_5 1_555 1_555
Mo8_5 O83_5 1_555 1_555
O82_5 Mo9_5 1_555 1_555
Mo9_5 O85_5 1_555 1_555
Mo9_5 O86_5 1_555 1_555
Mo10_5 O89_5 1_555 1_555
O88_5 Mo11_5 1_555 1_555
Mo11_5 O92_5 1_555 1_555
O91_5 Mo12_5 1_555 1_555
Mo12_5 O94_5 1_555 1_555
Mo12_5 O95_5 1_555 1_555
P1_6 O57_6 1_555 1_555
O57_6 Mo1_6 1_555 1_555
Mo1_6 O58_6 1_555 1_555
O58_6 Mo3_6 1_555 1_555
O59_6 Mo1_6 1_555 1_555
O60_6 Mo1_6 1_555 1_555
O61_6 P1_6 1_555 1_555
O62_6 P1_6 1_555 1_555
O63_6 P1_6 1_555 1_555
Mo2_6 O61_6 1_555 1_555
O64_6 Mo1_6 1_555 1_555
O65_6 Mo2_6 1_555 1_555
O66_6 Mo2_6 1_555 1_555
Mo3_6 O62_6 1_555 1_555
O67_6 Mo2_6 1_555 1_555
O68_6 Mo3_6 1_555 1_555
O69_6 Mo3_6 1_555 1_555
Mo4_6 O61_6 1_555 1_555
O70_6 Mo4_6 1_555 1_555
O71_6 Mo2_6 1_555 1_555
O72_6 Mo4_6 1_555 1_555
Mo5_6 O57_6 1_555 1_555
O73_6 Mo4_6 1_555 1_555
O74_6 Mo5_6 1_555 1_555
O75_6 Mo5_6 1_555 1_555
Mo6_6 O63_6 1_555 1_555
O76_6 Mo5_6 1_555 1_555
O77_6 Mo6_6 1_555 1_555
O78_6 Mo6_6 1_555 1_555
Mo7_6 O63_6 1_555 1_555
O79_6 Mo7_6 1_555 1_555
O80_6 Mo7_6 1_555 1_555
O81_6 Mo7_6 1_555 1_555
Mo8_6 O61_6 1_555 1_555
O82_6 Mo8_6 1_555 1_555
O83_6 Mo4_6 1_555 1_555
O84_6 Mo8_6 1_555 1_555
Mo9_6 O62_6 1_555 1_555
O85_6 Mo7_6 1_555 1_555
O86_6 Mo3_6 1_555 1_555
O87_6 Mo9_6 1_555 1_555
Mo10_6 O62_6 1_555 1_555
O88_6 Mo10_6 1_555 1_555
O89_6 Mo9_6 1_555 1_555
O90_6 Mo10_6 1_555 1_555
Mo11_6 O57_6 1_555 1_555
O91_6 Mo11_6 1_555 1_555
O92_6 Mo1_6 1_555 1_555
O93_6 Mo11_6 1_555 1_555
Mo12_6 O63_6 1_555 1_555
O94_6 Mo10_6 1_555 1_555
O95_6 Mo6_6 1_555 1_555
O96_6 Mo12_6 1_555 1_555
O59_6 Mo5_6 1_555 1_555
Mo2_6 O64_6 1_555 1_555
O65_6 Mo8_6 1_555 1_555
Mo3_6 O67_6 1_555 1_555
O68_6 Mo10_6 1_555 1_555
Mo4_6 O71_6 1_555 1_555
O70_6 Mo6_6 1_555 1_555
Mo5_6 O73_6 1_555 1_555
O74_6 Mo11_6 1_555 1_555
Mo6_6 O76_6 1_555 1_555
O77_6 Mo7_6 1_555 1_555
O79_6 Mo8_6 1_555 1_555
O80_6 Mo12_6 1_555 1_555
Mo8_6 O83_6 1_555 1_555
O82_6 Mo9_6 1_555 1_555
Mo9_6 O85_6 1_555 1_555
Mo9_6 O86_6 1_555 1_555
Mo10_6 O89_6 1_555 1_555
O88_6 Mo11_6 1_555 1_555
Mo11_6 O92_6 1_555 1_555
O91_6 Mo12_6 1_555 1_555
Mo12_6 O94_6 1_555 1_555
Mo12_6 O95_6 1_555 1_555
P1_7 O57_7 1_555 1_555
O57_7 Mo1_7 1_555 1_555
Mo1_7 O58_7 1_555 1_555
O58_7 Mo3_7 1_555 1_555
O59_7 Mo1_7 1_555 1_555
O60_7 Mo1_7 1_555 1_555
O61_7 P1_7 1_555 1_555
O62_7 P1_7 1_555 1_555
O63_7 P1_7 1_555 1_555
Mo2_7 O61_7 1_555 1_555
O64_7 Mo1_7 1_555 1_555
O65_7 Mo2_7 1_555 1_555
O66_7 Mo2_7 1_555 1_555
Mo3_7 O62_7 1_555 1_555
O67_7 Mo2_7 1_555 1_555
O68_7 Mo3_7 1_555 1_555
O69_7 Mo3_7 1_555 1_555
Mo4_7 O61_7 1_555 1_555
O70_7 Mo4_7 1_555 1_555
O71_7 Mo2_7 1_555 1_555
O72_7 Mo4_7 1_555 1_555
Mo5_7 O57_7 1_555 1_555
O73_7 Mo4_7 1_555 1_555
O74_7 Mo5_7 1_555 1_555
O75_7 Mo5_7 1_555 1_555
Mo6_7 O63_7 1_555 1_555
O76_7 Mo5_7 1_555 1_555
O77_7 Mo6_7 1_555 1_555
O78_7 Mo6_7 1_555 1_555
Mo7_7 O63_7 1_555 1_555
O79_7 Mo7_7 1_555 1_555
O80_7 Mo7_7 1_555 1_555
O81_7 Mo7_7 1_555 1_555
Mo8_7 O61_7 1_555 1_555
O82_7 Mo8_7 1_555 1_555
O83_7 Mo4_7 1_555 1_555
O84_7 Mo8_7 1_555 1_555
Mo9_7 O62_7 1_555 1_555
O85_7 Mo7_7 1_555 1_555
O86_7 Mo3_7 1_555 1_555
O87_7 Mo9_7 1_555 1_555
Mo10_7 O62_7 1_555 1_555
O88_7 Mo10_7 1_555 1_555
O89_7 Mo9_7 1_555 1_555
O90_7 Mo10_7 1_555 1_555
Mo11_7 O57_7 1_555 1_555
O91_7 Mo11_7 1_555 1_555
O92_7 Mo1_7 1_555 1_555
O93_7 Mo11_7 1_555 1_555
Mo12_7 O63_7 1_555 1_555
O94_7 Mo10_7 1_555 1_555
O95_7 Mo6_7 1_555 1_555
O96_7 Mo12_7 1_555 1_555
O59_7 Mo5_7 1_555 1_555
Mo2_7 O64_7 1_555 1_555
O65_7 Mo8_7 1_555 1_555
Mo3_7 O67_7 1_555 1_555
O68_7 Mo10_7 1_555 1_555
Mo4_7 O71_7 1_555 1_555
O70_7 Mo6_7 1_555 1_555
Mo5_7 O73_7 1_555 1_555
O74_7 Mo11_7 1_555 1_555
Mo6_7 O76_7 1_555 1_555
O77_7 Mo7_7 1_555 1_555
O79_7 Mo8_7 1_555 1_555
O80_7 Mo12_7 1_555 1_555
Mo8_7 O83_7 1_555 1_555
O82_7 Mo9_7 1_555 1_555
Mo9_7 O85_7 1_555 1_555
Mo9_7 O86_7 1_555 1_555
Mo10_7 O89_7 1_555 1_555
O88_7 Mo11_7 1_555 1_555
Mo11_7 O92_7 1_555 1_555
O91_7 Mo12_7 1_555 1_555
Mo12_7 O94_7 1_555 1_555
Mo12_7 O95_7 1_555 1_555
P1_8 O57_8 1_555 1_555
O57_8 Mo1_8 1_555 1_555
Mo1_8 O58_8 1_555 1_555
O58_8 Mo3_8 1_555 1_555
O59_8 Mo1_8 1_555 1_555
O60_8 Mo1_8 1_555 1_555
O61_8 P1_8 1_555 1_555
O62_8 P1_8 1_555 1_555
O63_8 P1_8 1_555 1_555
Mo2_8 O61_8 1_555 1_555
O64_8 Mo1_8 1_555 1_555
O65_8 Mo2_8 1_555 1_555
O66_8 Mo2_8 1_555 1_555
Mo3_8 O62_8 1_555 1_555
O67_8 Mo2_8 1_555 1_555
O68_8 Mo3_8 1_555 1_555
O69_8 Mo3_8 1_555 1_555
Mo4_8 O61_8 1_555 1_555
O70_8 Mo4_8 1_555 1_555
O71_8 Mo2_8 1_555 1_555
O72_8 Mo4_8 1_555 1_555
Mo5_8 O57_8 1_555 1_555
O73_8 Mo4_8 1_555 1_555
O74_8 Mo5_8 1_555 1_555
O75_8 Mo5_8 1_555 1_555
Mo6_8 O63_8 1_555 1_555
O76_8 Mo5_8 1_555 1_555
O77_8 Mo6_8 1_555 1_555
O78_8 Mo6_8 1_555 1_555
Mo7_8 O63_8 1_555 1_555
O79_8 Mo7_8 1_555 1_555
O80_8 Mo7_8 1_555 1_555
O81_8 Mo7_8 1_555 1_555
Mo8_8 O61_8 1_555 1_555
O82_8 Mo8_8 1_555 1_555
O83_8 Mo4_8 1_555 1_555
O84_8 Mo8_8 1_555 1_555
Mo9_8 O62_8 1_555 1_555
O85_8 Mo7_8 1_555 1_555
O86_8 Mo3_8 1_555 1_555
O87_8 Mo9_8 1_555 1_555
Mo10_8 O62_8 1_555 1_555
O88_8 Mo10_8 1_555 1_555
O89_8 Mo9_8 1_555 1_555
O90_8 Mo10_8 1_555 1_555
Mo11_8 O57_8 1_555 1_555
O91_8 Mo11_8 1_555 1_555
O92_8 Mo1_8 1_555 1_555
O93_8 Mo11_8 1_555 1_555
Mo12_8 O63_8 1_555 1_555
O94_8 Mo10_8 1_555 1_555
O95_8 Mo6_8 1_555 1_555
O96_8 Mo12_8 1_555 1_555
O59_8 Mo5_8 1_555 1_555
Mo2_8 O64_8 1_555 1_555
O65_8 Mo8_8 1_555 1_555
Mo3_8 O67_8 1_555 1_555
O68_8 Mo10_8 1_555 1_555
Mo4_8 O71_8 1_555 1_555
O70_8 Mo6_8 1_555 1_555
Mo5_8 O73_8 1_555 1_555
O74_8 Mo11_8 1_555 1_555
Mo6_8 O76_8 1_555 1_555
O77_8 Mo7_8 1_555 1_555
O79_8 Mo8_8 1_555 1_555
O80_8 Mo12_8 1_555 1_555
Mo8_8 O83_8 1_555 1_555
O82_8 Mo9_8 1_555 1_555
Mo9_8 O85_8 1_555 1_555
Mo9_8 O86_8 1_555 1_555
Mo10_8 O89_8 1_555 1_555
O88_8 Mo11_8 1_555 1_555
Mo11_8 O92_8 1_555 1_555
O91_8 Mo12_8 1_555 1_555
Mo12_8 O94_8 1_555 1_555
Mo12_8 O95_8 1_555 1_555

#END
