
###############################################################################
#
# This file contains modified crystal structure data generated from the
# MOF subset of the Cambridge Structural Database (CSD) v543 
# hosted by the Cambridge Crystallographic Data Centre (CCDC).
#
# This work is licensed under the Creative Commons
# Attribution-NonCommercial-ShareAlike 4.0 International License.
# To view a copy of this license, visit
# http://creativecommons.org/licenses/by-nc-sa/4.0/
# or send a letter to
# Creative Commons, PO Box 1866, Mountain View, CA 94042, USA.
#
# CIF created using the CSD Python API on 29 September 2022
# The structure has been converted into the P1 space group
# The structure has a 3D framework
# The original CSD entry HAVZIP is in the monoclinic crystal system
# The framework has been calculated to contain at least 10.0% void space
# The void calculation uses a probe of radius 1.32A, grid spacing 0.4
# The framework is charged, counterions have been retained in the structure
# H atom positions have been added when not included in the experimental data
# Generated hydrogen atom positions removed from atoms on special positions
#
###############################################################################

data_HAVZIP
_chemical_formula_moiety         '(C104 H100 As4 Co4 N19 O136 W36)n'
_symmetry_cell_setting           triclinic
_symmetry_space_group_name_H-M   'P 1'
_symmetry_Int_Tables_number      1
_space_group_name_Hall           'P 1'
loop_
_symmetry_equiv_pos_site_id
_symmetry_equiv_pos_as_xyz
1 x,y,z
_cell_length_a                   15.1316(6)
_cell_length_b                   24.7369(7)
_cell_length_c                   15.3613(8)
_cell_angle_alpha                90
_cell_angle_beta                 110.847(5)
_cell_angle_gamma                90
_cell_volume                     5373.45
loop_
_atom_site_label
_atom_site_type_symbol
_atom_site_fract_x
_atom_site_fract_y
_atom_site_fract_z
O1 O 0.0337(8) 0.3043(4) 0.4724(10)
O2 O 0.0916(12) 0.2500 0.6423(15)
O11 O 0.0019(12) 0.2500 0.3161(16)
O24 O 0.0440(7) 0.3615(4) 0.3176(10)
O38 O 0.0337(8) 0.1957(4) 0.4724(10)
O53 O 0.0440(7) 0.1385(4) 0.3176(10)
As1 As 0.76655(17) 0.2500 0.3633(2)
As2 As 0.49754(17) 0.2500 0.3050(2)
W1 W 0.73142(5) 0.31825(3) 0.15260(6)
W2 W 0.46931(5) 0.31814(3) 0.09487(6)
W3 W 0.76542(5) 0.39319(3) 0.37020(7)
W4 W 0.53060(6) 0.32471(3) 0.51026(7)
W5 W 0.79425(6) 0.32495(3) 0.56748(7)
W6 W 0.50242(5) 0.39338(3) 0.31330(7)
W7 W 0.99653(8) 0.2500 0.54151(11)
W8 W 0.30657(8) 0.2500 0.39258(11)
W9 W 0.96700(5) 0.31797(3) 0.34271(7)
O3 O 0.8832(10) 0.2500 0.3876(12)
O4 O 0.4396(10) 0.2500 0.0287(12)
O5 O 0.5957(7) 0.3128(4) 0.1046(9)
O6 O 0.5035(7) 0.3902(4) 0.4357(9)
O7 O 0.2445(13) 0.2500 0.4649(17)
O8 O 0.5074(7) 0.3669(4) 0.1995(9)
O9 O 0.4043(8) 0.3018(4) 0.4544(9)
O10 O 0.3801(11) 0.2500 0.2795(13)
O12 O 0.7437(7) 0.3628(4) 0.0743(10)
O13 O 0.7238(7) 0.3633(4) 0.2455(8)
O14 O 0.8616(7) 0.3129(4) 0.2304(9)
O15 O 0.9199(9) 0.3028(4) 0.5609(10)
O16 O 0.6360(8) 0.3992(3) 0.3568(9)
W10 W 0.27940(5) 0.18185(3) 0.19530(7)
O17 O 0.2203(11) 0.2500 0.1471(14)
O18 O 0.7977(7) 0.3905(4) 0.4951(10)
O19 O 0.5219(8) 0.3450(5) 0.6081(11)
O20 O 0.7397(10) 0.2500 0.0944(12)
O21 O 0.7833(8) 0.4589(4) 0.3511(11)
O22 O 0.4274(9) 0.3603(4) 0.0030(9)
O23 O 0.5410(7) 0.1929(3) 0.3677(8)
O25 O 0.4747(8) 0.4597(4) 0.2902(11)
O26 O 0.3520(7) 0.3124(4) 0.1183(9)
O27 O 0.7167(9) 0.2500 0.2429(12)
O28 O 0.7390(7) 0.3058(4) 0.4106(8)
O29 O 0.5126(10) 0.2500 0.2003(15)
O30 O 0.2462(8) 0.1965(4) 0.3045(9)
O31 O 0.3765(7) 0.3644(4) 0.2711(9)
O32 O 0.8865(7) 0.3662(4) 0.3779(10)
O33 O 0.1923(8) 0.1384(4) 0.1334(9)
O34 O 0.7781(12) 0.2500 0.5802(16)
O35 O 0.8330(9) 0.3470(5) 0.6787(10)
O36 O 0.5570(13) 0.2500 0.5351(14)
O37 O 0.6630(8) 0.3372(4) 0.5417(9)
W11 W 0.73142(5) 0.18175(3) 0.15260(6)
W12 W 0.46931(5) 0.18186(3) 0.09487(6)
W13 W 0.76542(5) 0.10681(3) 0.37020(7)
W14 W 0.53060(6) 0.17529(3) 0.51026(7)
W15 W 0.79425(6) 0.17505(3) 0.56748(7)
W16 W 0.50242(5) 0.10662(3) 0.31330(7)
W17 W 0.96700(5) 0.18203(3) 0.34271(7)
O39 O 0.5957(7) 0.1872(4) 0.1046(9)
O40 O 0.5035(7) 0.1098(4) 0.4357(9)
O41 O 0.5074(7) 0.1331(4) 0.1995(9)
O42 O 0.4043(8) 0.1982(4) 0.4544(9)
O43 O 0.7437(7) 0.1372(4) 0.0743(10)
O44 O 0.7238(7) 0.1367(4) 0.2455(8)
O45 O 0.8616(7) 0.1871(4) 0.2304(9)
O46 O 0.9199(9) 0.1972(4) 0.5609(10)
O47 O 0.6360(8) 0.1008(3) 0.3568(9)
W18 W 0.27940(5) 0.31815(3) 0.19530(7)
O48 O 0.7977(7) 0.1095(4) 0.4951(10)
O49 O 0.5219(8) 0.1550(5) 0.6081(11)
O50 O 0.7833(8) 0.0411(4) 0.3511(11)
O51 O 0.4274(9) 0.1397(4) 0.0030(9)
O52 O 0.5410(7) 0.3071(3) 0.3677(8)
O54 O 0.4747(8) 0.0403(4) 0.2902(11)
O55 O 0.3520(7) 0.1876(4) 0.1183(9)
O56 O 0.7390(7) 0.1942(4) 0.4106(8)
O57 O 0.2462(8) 0.3035(4) 0.3045(9)
O58 O 0.3765(7) 0.1356(4) 0.2711(9)
O59 O 0.8865(7) 0.1338(4) 0.3779(10)
O60 O 0.1923(8) 0.3616(4) 0.1334(9)
O61 O 0.8330(9) 0.1530(5) 0.6787(10)
O62 O 0.6630(8) 0.1628(4) 0.5417(9)
As1_2 As 0.23345(17) 0.7500 0.6367(2)
As2_2 As 0.50246(17) 0.7500 0.6950(2)
W1_2 W 0.26858(5) 0.81825(3) 0.84740(6)
W2_2 W 0.53069(5) 0.81814(3) 0.90513(6)
W3_2 W 0.23458(5) 0.89319(3) 0.62980(7)
W4_2 W 0.46940(6) 0.82471(3) 0.48974(7)
W5_2 W 0.20575(6) 0.82495(3) 0.43252(7)
W6_2 W 0.49758(5) 0.89338(3) 0.68670(7)
W7_2 W 0.00347(8) 0.7500 0.45849(11)
W8_2 W 0.69343(8) 0.7500 0.60742(11)
W9_2 W 0.03300(5) 0.81797(3) 0.65729(7)
O3_2 O 0.1168(10) 0.7500 0.6124(12)
O4_2 O 0.5604(10) 0.7500 0.9713(12)
O5_2 O 0.4043(7) 0.8128(4) 0.8954(9)
O6_2 O 0.4965(7) 0.8902(4) 0.5643(9)
O7_2 O 0.7555(13) 0.7500 0.5351(17)
O8_2 O 0.4926(7) 0.8669(4) 0.8005(9)
O9_2 O 0.5957(8) 0.8018(4) 0.5456(9)
O10_2 O 0.6199(11) 0.7500 0.7205(13)
O12_2 O 0.2563(7) 0.8628(4) 0.9257(10)
O13_2 O 0.2762(7) 0.8633(4) 0.7545(8)
O14_2 O 0.1384(7) 0.8129(4) 0.7696(9)
O15_2 O 0.0801(9) 0.8028(4) 0.4391(10)
O16_2 O 0.3640(8) 0.8992(3) 0.6432(9)
W10_2 W 0.72060(5) 0.68185(3) 0.80470(7)
O17_2 O 0.7797(11) 0.7500 0.8529(14)
O18_2 O 0.2023(7) 0.8905(4) 0.5049(10)
O19_2 O 0.4781(8) 0.8450(5) 0.3919(11)
O20_2 O 0.2603(10) 0.7500 0.9056(12)
O21_2 O 0.2167(8) 0.9589(4) 0.6489(11)
O22_2 O 0.5726(9) 0.8603(4) 0.9970(9)
O23_2 O 0.4590(7) 0.6929(3) 0.6323(8)
O25_2 O 0.5253(8) 0.9597(4) 0.7098(11)
O26_2 O 0.6480(7) 0.8124(4) 0.8817(9)
O27_2 O 0.2833(9) 0.7500 0.7571(12)
O28_2 O 0.2610(7) 0.8058(4) 0.5894(8)
O29_2 O 0.4874(10) 0.7500 0.7997(15)
O30_2 O 0.7538(8) 0.6965(4) 0.6955(9)
O31_2 O 0.6235(7) 0.8644(4) 0.7289(9)
O32_2 O 0.1135(7) 0.8662(4) 0.6221(10)
O33_2 O 0.8077(8) 0.6384(4) 0.8666(9)
O34_2 O 0.2219(12) 0.7500 0.4198(16)
O35_2 O 0.1670(9) 0.8470(5) 0.3213(10)
O36_2 O 0.4430(13) 0.7500 0.4649(14)
O37_2 O 0.3370(8) 0.8372(4) 0.4583(9)
W11_2 W 0.26858(5) 0.68175(3) 0.84740(6)
W12_2 W 0.53069(5) 0.68186(3) 0.90513(6)
W13_2 W 0.23458(5) 0.60681(3) 0.62980(7)
W14_2 W 0.46940(6) 0.67529(3) 0.48974(7)
W15_2 W 0.20575(6) 0.67505(3) 0.43252(7)
W16_2 W 0.49758(5) 0.60662(3) 0.68670(7)
W17_2 W 0.03300(5) 0.68203(3) 0.65729(7)
O39_2 O 0.4043(7) 0.6872(4) 0.8954(9)
O40_2 O 0.4965(7) 0.6098(4) 0.5643(9)
O41_2 O 0.4926(7) 0.6331(4) 0.8005(9)
O42_2 O 0.5957(8) 0.6982(4) 0.5456(9)
O43_2 O 0.2563(7) 0.6372(4) 0.9257(10)
O44_2 O 0.2762(7) 0.6367(4) 0.7545(8)
O45_2 O 0.1384(7) 0.6871(4) 0.7696(9)
O46_2 O 0.0801(9) 0.6972(4) 0.4391(10)
O47_2 O 0.3640(8) 0.6008(3) 0.6432(9)
W18_2 W 0.72060(5) 0.81815(3) 0.80470(7)
O48_2 O 0.2023(7) 0.6095(4) 0.5049(10)
O49_2 O 0.4781(8) 0.6550(5) 0.3919(11)
O50_2 O 0.2167(8) 0.5411(4) 0.6489(11)
O51_2 O 0.5726(9) 0.6397(4) 0.9970(9)
O52_2 O 0.4590(7) 0.8071(3) 0.6323(8)
O54_2 O 0.5253(8) 0.5403(4) 0.7098(11)
O55_2 O 0.6480(7) 0.6876(4) 0.8817(9)
O56_2 O 0.2610(7) 0.6942(4) 0.5894(8)
O57_2 O 0.7538(8) 0.8035(4) 0.6955(9)
O58_2 O 0.6235(7) 0.6356(4) 0.7289(9)
O59_2 O 0.1135(7) 0.6338(4) 0.6221(10)
O60_2 O 0.8077(8) 0.8616(4) 0.8666(9)
O61_2 O 0.1670(9) 0.6530(5) 0.3213(10)
O62_2 O 0.3370(8) 0.6628(4) 0.4583(9)
O1_2 O 0.9663(8) 0.8043(4) 0.5276(10)
O2_2 O 0.9084(12) 0.7500 0.3577(15)
O11_2 O 0.9981(12) 0.7500 0.6839(16)
O24_2 O 0.9560(7) 0.8615(4) 0.6824(10)
O38_2 O 0.9663(8) 0.6957(4) 0.5276(10)
O53_2 O 0.9560(7) 0.6385(4) 0.6824(10)
O69 O 0.1187(7) 0.4841(4) 0.0297(9)
O63 O 0.0395(7) 0.5091(4) 0.1222(9)
C1 C 0.0238(11) 0.4714(6) 0.4001(14)
H1 H 0.0608 0.4418 0.4281
C3 C 0.0441(11) 0.4983(6) 0.0436(14)
C6 C 0.0011(13) 0.4802(6) 0.3100(15)
H3 H 0.0261 0.4573 0.2767
H9 H 0.0308 0.6129 0.1703
H10 H 0.0414 0.7074 0.1805
Co2 Co 0.10212(14) 0.47935(7) 0.88986(17)
N4 N 0.0574(9) 0.4787(5) 0.7375(11)
N6 N 0.2522(9) 0.4855(5) 0.9283(12)
N8 N 0.1016(9) 0.3940(5) 0.8884(11)
O70 O 0.1108(8) 0.5660(4) 0.8899(10)
C18 C 0.0072(12) 0.4942(6) 0.5488(13)
C25 C 0.0624(14) 0.4510(7) 0.5922(18)
H17 H 0.0870 0.4277 0.5590
C27 C 0.0812(13) 0.4425(6) 0.6891(15)
H19 H 0.1106 0.4108 0.7175
H21 H 0.0308 0.8871 0.1703
H22 H 0.0414 0.7926 0.1805
Co1 Co 0.89788(14) 0.52065(7) 0.11014(17)
N1 N 0.9426(9) 0.5213(5) 0.2625(11)
N2 N 0.7478(9) 0.5145(5) 0.0717(12)
N3 N 0.8984(9) 0.6060(5) 0.1116(11)
O65 O 0.8892(8) 0.4340(4) 0.1101(10)
C2 C 0.9928(12) 0.5058(6) 0.4512(13)
C5 C 0.5519(10) 0.5019(6) 0.0150(13)
C7 C 0.9030(12) 0.7220(5) 0.1160(14)
C8 C 0.7106(13) 0.4979(6) 0.1347(16)
H4 H 0.7479 0.4917 0.1967
C9 C 0.9376(14) 0.5490(7) 0.4078(18)
H5 H 0.9130 0.5723 0.4410
C11 C 0.9188(13) 0.5575(6) 0.3109(15)
H7 H 0.8894 0.5892 0.2825
C12 C 0.6116(14) 0.4904(7) 0.1014(16)
H8 H 0.5854 0.4763 0.1428
C13 C 0.9750(13) 0.6326(7) 0.1465(15)
C14 C 0.9827(14) 0.6911(8) 0.1523(18)
C15 C 0.8217(13) 0.6919(7) 0.0813(15)
H11 H 0.7639 0.7098 0.0590
C16 C 0.8222(15) 0.6357(7) 0.0780(17)
H12 H 0.7647 0.6181 0.0502
Co5 Co 0.89788(14) 0.97935(7) 0.11014(17)
O67 O 0.9605(7) 0.4909(4) 0.8778(9)
N7 N 0.8984(9) 0.8940(5) 0.1116(11)
C17 C 0.9762(11) 0.5286(6) 0.5999(14)
H13 H 0.9392 0.5582 0.5719
C20 C 0.4043(11) 0.4790(5) 0.0416(14)
H14 H 0.4399 0.4703 0.1030
C22 C 0.9989(13) 0.5198(6) 0.6900(15)
H15 H 0.9739 0.5427 0.7233
C23 C 0.9030(12) 0.7780(5) 0.1160(14)
C26 C 0.3124(12) 0.4726(6) 0.0111(15)
H18 H 0.2871 0.4574 0.0525
C29 C 0.9750(13) 0.8674(7) 0.1465(15)
C30 C 0.9827(14) 0.8089(8) 0.1523(18)
C31 C 0.8217(13) 0.8081(7) 0.0813(15)
H23 H 0.7639 0.7902 0.0590
C32 C 0.8222(15) 0.8643(7) 0.0780(17)
H24 H 0.7647 0.8819 0.0502
C4 C 0.5957(11) 0.5210(5) 0.9584(14)
H2 H 0.5601 0.5297 0.8970
C10 C 0.6876(12) 0.5274(6) 0.9889(15)
H6 H 0.7129 0.5426 0.9475
O68 O 0.8813(7) 0.5159(4) 0.9703(9)
C19 C 0.9559(11) 0.5017(6) 0.9564(14)
C21 C 0.4481(10) 0.4981(6) 0.9850(13)
C24 C 0.2894(13) 0.5021(6) 0.8653(16)
H16 H 0.2521 0.5083 0.8033
C28 C 0.3884(14) 0.5096(7) 0.8986(16)
H20 H 0.4146 0.5237 0.8572
C4_2 C 0.4043(11) 0.0210(5) 0.0416(14)
H2_2 H 0.4399 0.0297 0.1030
C10_2 C 0.3124(12) 0.0274(6) 0.0111(15)
H6_2 H 0.2871 0.0426 0.0525
O68_2 O 0.1187(7) 0.0159(4) 0.0297(9)
C19_2 C 0.0441(11) 0.0017(6) 0.0436(14)
C24_2 C 0.7106(13) 0.0021(6) 0.1347(16)
H16_2 H 0.7479 0.0083 0.1967
C28_2 C 0.6116(14) 0.0096(7) 0.1014(16)
H20_2 H 0.5854 0.0237 0.1428
Co1_2 Co 0.10212(14) 0.02065(7) 0.88986(17)
N1_2 N 0.0574(9) 0.0213(5) 0.7375(11)
N2_2 N 0.2522(9) 0.0145(5) 0.9283(12)
N3_2 N 0.1016(9) 0.1060(5) 0.8884(11)
C2_2 C 0.0072(12) 0.0058(6) 0.5488(13)
C5_2 C 0.4481(10) 0.0019(6) 0.9850(13)
C7_2 C 0.0970(12) 0.2220(5) 0.8840(14)
C9_2 C 0.0624(14) 0.0490(7) 0.5922(18)
H5_2 H 0.0870 0.0723 0.5590
C11_2 C 0.0812(13) 0.0575(6) 0.6891(15)
H7_2 H 0.1106 0.0892 0.7175
C13_2 C 0.0250(13) 0.1326(7) 0.8535(15)
C14_2 C 0.0173(14) 0.1911(8) 0.8477(18)
C15_2 C 0.1783(13) 0.1919(7) 0.9187(15)
H11_2 H 0.2361 0.2098 0.9410
C16_2 C 0.1778(15) 0.1357(7) 0.9220(17)
H12_2 H 0.2353 0.1181 0.9498
C17_2 C 0.0238(11) 0.0286(6) 0.4001(14)
H13_2 H 0.0608 0.0582 0.4281
C22_2 C 0.0011(13) 0.0198(6) 0.3100(15)
H15_2 H 0.0261 0.0427 0.2767
C23_2 C 0.0970(12) 0.2780(5) 0.8840(14)
C29_2 C 0.0250(13) 0.3674(7) 0.8535(15)
C30_2 C 0.0173(14) 0.3089(8) 0.8477(18)
C31_2 C 0.1783(13) 0.3081(7) 0.9187(15)
H23_2 H 0.2361 0.2902 0.9410
C32_2 C 0.1778(15) 0.3643(7) 0.9220(17)
H24_2 H 0.2353 0.3819 0.9498
O66 O 0.0395(7) 0.9909(4) 0.1222(9)
N5 N 0.7478(9) 0.9855(5) 0.0717(12)
C21_2 C 0.5519(10) 0.9981(6) 0.0150(13)
O65_2 O 0.1108(8) 0.9340(4) 0.8899(10)
C8_2 C 0.2894(13) 0.9979(6) 0.8653(16)
H4_2 H 0.2521 0.9917 0.8033
C12_2 C 0.3884(14) 0.9904(7) 0.8986(16)
H8_2 H 0.4146 0.9763 0.8572
C20_2 C 0.5957(11) 0.9790(5) 0.9584(14)
H14_2 H 0.5601 0.9703 0.8970
C26_2 C 0.6876(12) 0.9726(6) 0.9889(15)
H18_2 H 0.7129 0.9574 0.9475
O63_2 O 0.9605(7) 0.0091(4) 0.8778(9)
H9_2 H 0.9692 0.1129 0.8297
H10_2 H 0.9586 0.2074 0.8195
O70_2 O 0.8892(8) 0.0660(4) 0.1101(10)
H21_2 H 0.9692 0.3871 0.8297
H22_2 H 0.9586 0.2926 0.8195
O64 O 0.8813(7) 0.9841(4) 0.9703(9)
C1_2 C 0.9762(11) 0.9714(6) 0.5999(14)
H1_2 H 0.9392 0.9418 0.5719
C3_2 C 0.9559(11) 0.9983(6) 0.9564(14)
C6_2 C 0.9989(13) 0.9802(6) 0.6900(15)
H3_2 H 0.9739 0.9573 0.7233
N4_2 N 0.9426(9) 0.9787(5) 0.2625(11)
C18_2 C 0.9928(12) 0.9942(6) 0.4512(13)
C25_2 C 0.9376(14) 0.9510(7) 0.4078(18)
H17_2 H 0.9130 0.9277 0.4410
C27_2 C 0.9188(13) 0.9425(6) 0.3109(15)
H19_2 H 0.8894 0.9108 0.2825
N9 N 0.2745(17) 0.5355(9) 0.254(2)
C33 C 0.3003(16) 0.4365(9) 0.498(2)
C34 C 0.2907(16) 0.4648(10) 0.4247(19)
C35 C 0.2459(14) 0.4465(8) 0.3361(18)
H25 H 0.2176 0.4127 0.3214
C36 C 0.2478(18) 0.4844(10) 0.271(2)
H26 H 0.2178 0.4685 0.2130
C37 C 0.367(2) 0.4481(11) 0.592(3)
H27 H 0.4058 0.4785 0.6016
N10 N 0.324(2) 0.3684(14) 0.662(2)
C38 C 0.2570(18) 0.3897(10) 0.504(2)
H28 H 0.2167 0.3766 0.4469
C39 C 0.2611(17) 0.3597(10) 0.574(2)
H29 H 0.2195 0.3307 0.5637
C40 C 0.312(2) 0.5411(11) 0.348(3)
H30 H 0.3379 0.5755 0.3613
C41 C 0.3740(19) 0.4164(12) 0.665(2)
H31 H 0.4162 0.4272 0.7225
C42 C 0.3237(18) 0.5166(10) 0.423(2)
H32 H 0.3556 0.5341 0.4794
H37 H 0.33318 0.343653 0.717241
H38 H 0.268754 0.558351 0.19736
N9_2 N 0.7255(17) 0.0355(9) 0.746(2)
C40_2 C 0.688(2) 0.0411(11) 0.652(3)
H30_2 H 0.6621 0.0755 0.6387
C42_2 C 0.6763(18) 0.0166(10) 0.577(2)
H32_2 H 0.6444 0.0341 0.5206
H38_2 H 0.731246 0.0583506 0.80264
C33_2 C 0.6997(16) 0.9365(9) 0.502(2)
C34_2 C 0.7093(16) 0.9648(10) 0.5753(19)
C35_2 C 0.7541(14) 0.9465(8) 0.6639(18)
H25_2 H 0.7824 0.9127 0.6786
C36_2 C 0.7522(18) 0.9844(10) 0.729(2)
H26_2 H 0.7822 0.9685 0.7870
C37_2 C 0.633(2) 0.9481(11) 0.408(3)
H27_2 H 0.5942 0.9785 0.3984
N10_2 N 0.676(2) 0.8684(14) 0.338(2)
C38_2 C 0.7430(18) 0.8897(10) 0.496(2)
H28_2 H 0.7833 0.8766 0.5531
C39_2 C 0.7389(17) 0.8597(10) 0.426(2)
H29_2 H 0.7805 0.8307 0.4363
C41_2 C 0.6260(19) 0.9164(12) 0.335(2)
H31_2 H 0.5838 0.9272 0.2775
H37_2 H 0.66682 0.843653 0.282759
N9_3 N 0.7255(17) 0.4645(9) 0.746(2)
C33_3 C 0.6997(16) 0.5635(9) 0.502(2)
C34_3 C 0.7093(16) 0.5352(10) 0.5753(19)
C35_3 C 0.7541(14) 0.5535(8) 0.6639(18)
H25_3 H 0.7824 0.5873 0.6786
C36_3 C 0.7522(18) 0.5156(10) 0.729(2)
H26_3 H 0.7822 0.5315 0.7870
C37_3 C 0.633(2) 0.5519(11) 0.408(3)
H27_3 H 0.5942 0.5215 0.3984
N10_3 N 0.676(2) 0.6316(14) 0.338(2)
C38_3 C 0.7430(18) 0.6103(10) 0.496(2)
H28_3 H 0.7833 0.6234 0.5531
C39_3 C 0.7389(17) 0.6403(10) 0.426(2)
H29_3 H 0.7805 0.6693 0.4363
C40_3 C 0.688(2) 0.4589(11) 0.652(3)
H30_3 H 0.6621 0.4245 0.6387
C41_3 C 0.6260(19) 0.5836(12) 0.335(2)
H31_3 H 0.5838 0.5728 0.2775
C42_3 C 0.6763(18) 0.4834(10) 0.577(2)
H32_3 H 0.6444 0.4659 0.5206
H37_3 H 0.66682 0.656347 0.282759
H38_3 H 0.731246 0.441649 0.80264
C33_4 C 0.3003(16) 0.0635(9) 0.498(2)
C34_4 C 0.2907(16) 0.0352(10) 0.4247(19)
C35_4 C 0.2459(14) 0.0535(8) 0.3361(18)
H25_4 H 0.2176 0.0873 0.3214
C36_4 C 0.2478(18) 0.0156(10) 0.271(2)
H26_4 H 0.2178 0.0315 0.2130
C37_4 C 0.367(2) 0.0519(11) 0.592(3)
H27_4 H 0.4058 0.0215 0.6016
N10_4 N 0.324(2) 0.1316(14) 0.662(2)
C38_4 C 0.2570(18) 0.1103(10) 0.504(2)
H28_4 H 0.2167 0.1234 0.4469
C39_4 C 0.2611(17) 0.1403(10) 0.574(2)
H29_4 H 0.2195 0.1693 0.5637
C41_4 C 0.3740(19) 0.0836(12) 0.665(2)
H31_4 H 0.4162 0.0728 0.7225
H37_4 H 0.33318 0.156347 0.717241
N9_4 N 0.2745(17) 0.9645(9) 0.254(2)
C40_4 C 0.312(2) 0.9589(11) 0.348(3)
H30_4 H 0.3379 0.9245 0.3613
C42_4 C 0.3237(18) 0.9834(10) 0.423(2)
H32_4 H 0.3556 0.9659 0.4794
H38_4 H 0.268754 0.941649 0.19736
loop_
_geom_bond_atom_site_label_1
_geom_bond_atom_site_label_2
_geom_bond_site_symmetry_1
_geom_bond_site_symmetry_2
As1 O3 1_555 1_555
As2 O10 1_555 1_555
W1 O5 1_555 1_555
W2 O4 1_555 1_555
W3 O13 1_555 1_555
W4 O6 1_555 1_555
W5 O15 1_555 1_555
W6 O6 1_555 1_555
W8 O7 1_555 1_555
O3 W7 1_555 1_555
O4 W12 1_555 1_555
O5 W2 1_555 1_555
O8 W2 1_555 1_555
O9 W4 1_555 1_555
O10 W8 1_555 1_555
O12 W1 1_555 1_555
O13 W1 1_555 1_555
O14 W1 1_555 1_555
O15 W7 1_555 1_555
O16 W3 1_555 1_555
W10 O10 1_555 1_555
O17 W10 1_555 1_555
O18 W3 1_555 1_555
O19 W4 1_555 1_555
O20 W1 1_555 1_555
O21 W3 1_555 1_555
O22 W2 1_555 1_555
O23 As2 1_555 1_555
O25 W6 1_555 1_555
O26 W2 1_555 1_555
O27 As1 1_555 1_555
O28 As1 1_555 1_555
O29 As2 1_555 1_555
O30 W8 1_555 1_555
O31 W6 1_555 1_555
O32 W3 1_555 1_555
O33 W10 1_555 1_555
O34 W5 1_555 1_555
O35 W5 1_555 1_555
O36 W4 1_555 1_555
O37 W4 1_555 1_555
W11 O20 1_555 1_555
W12 O29 1_555 1_555
W13 O44 1_555 1_555
W14 O23 1_555 1_555
W15 O34 1_555 1_555
W16 O23 1_555 1_555
W17 O3 1_555 1_555
O39 W11 1_555 1_555
O40 W14 1_555 1_555
O41 W12 1_555 1_555
O42 W8 1_555 1_555
O43 W11 1_555 1_555
O44 W11 1_555 1_555
O45 W11 1_555 1_555
O46 W7 1_555 1_555
O47 W13 1_555 1_555
W18 O10 1_555 1_555
O48 W13 1_555 1_555
O49 W14 1_555 1_555
O50 W13 1_555 1_555
O51 W12 1_555 1_555
O52 As2 1_555 1_555
O54 W16 1_555 1_555
O55 W10 1_555 1_555
O56 As1 1_555 1_555
O57 W8 1_555 1_555
O58 W10 1_555 1_555
O59 W13 1_555 1_555
O60 W18 1_555 1_555
O61 W15 1_555 1_555
O62 W14 1_555 1_555
W1 O27 1_555 1_555
W2 O29 1_555 1_555
W3 O28 1_555 1_555
W4 O52 1_555 1_555
W5 O18 1_555 1_555
W5 O28 1_555 1_555
W5 O37 1_555 1_555
W6 O8 1_555 1_555
W6 O16 1_555 1_555
W6 O52 1_555 1_555
W8 O9 1_555 1_555
W9 O3 1_555 1_555
W9 O14 1_555 1_555
W9 O32 1_555 1_555
W10 O30 1_555 1_555
O17 W18 1_555 1_555
O26 W18 1_555 1_555
O27 W11 1_555 1_555
O31 W18 1_555 1_555
O36 W14 1_555 1_555
W12 O39 1_555 1_555
W12 O55 1_555 1_555
W13 O56 1_555 1_555
W14 O42 1_555 1_555
W15 O46 1_555 1_555
W15 O48 1_555 1_555
W15 O56 1_555 1_555
W15 O62 1_555 1_555
W16 O40 1_555 1_555
W16 O41 1_555 1_555
W16 O47 1_555 1_555
W16 O58 1_555 1_555
W17 O45 1_555 1_555
W17 O59 1_555 1_555
W18 O57 1_555 1_555
As1_2 O3_2 1_555 1_555
As2_2 O10_2 1_555 1_555
W1_2 O5_2 1_555 1_555
W2_2 O4_2 1_555 1_555
W3_2 O13_2 1_555 1_555
W4_2 O6_2 1_555 1_555
W5_2 O15_2 1_555 1_555
W6_2 O6_2 1_555 1_555
W8_2 O7_2 1_555 1_555
O3_2 W7_2 1_555 1_555
O4_2 W12_2 1_555 1_555
O5_2 W2_2 1_555 1_555
O8_2 W2_2 1_555 1_555
O9_2 W4_2 1_555 1_555
O10_2 W8_2 1_555 1_555
O12_2 W1_2 1_555 1_555
O13_2 W1_2 1_555 1_555
O14_2 W1_2 1_555 1_555
O15_2 W7_2 1_555 1_555
O16_2 W3_2 1_555 1_555
W10_2 O10_2 1_555 1_555
O17_2 W10_2 1_555 1_555
O18_2 W3_2 1_555 1_555
O19_2 W4_2 1_555 1_555
O20_2 W1_2 1_555 1_555
O21_2 W3_2 1_555 1_555
O22_2 W2_2 1_555 1_555
O23_2 As2_2 1_555 1_555
O25_2 W6_2 1_555 1_555
O26_2 W2_2 1_555 1_555
O27_2 As1_2 1_555 1_555
O28_2 As1_2 1_555 1_555
O29_2 As2_2 1_555 1_555
O30_2 W8_2 1_555 1_555
O31_2 W6_2 1_555 1_555
O32_2 W3_2 1_555 1_555
O33_2 W10_2 1_555 1_555
O34_2 W5_2 1_555 1_555
O35_2 W5_2 1_555 1_555
O36_2 W4_2 1_555 1_555
O37_2 W4_2 1_555 1_555
W11_2 O20_2 1_555 1_555
W12_2 O29_2 1_555 1_555
W13_2 O44_2 1_555 1_555
W14_2 O23_2 1_555 1_555
W15_2 O34_2 1_555 1_555
W16_2 O23_2 1_555 1_555
W17_2 O3_2 1_555 1_555
O39_2 W11_2 1_555 1_555
O40_2 W14_2 1_555 1_555
O41_2 W12_2 1_555 1_555
O42_2 W8_2 1_555 1_555
O43_2 W11_2 1_555 1_555
O44_2 W11_2 1_555 1_555
O45_2 W11_2 1_555 1_555
O46_2 W7_2 1_555 1_555
O47_2 W13_2 1_555 1_555
W18_2 O10_2 1_555 1_555
O48_2 W13_2 1_555 1_555
O49_2 W14_2 1_555 1_555
O50_2 W13_2 1_555 1_555
O51_2 W12_2 1_555 1_555
O52_2 As2_2 1_555 1_555
O54_2 W16_2 1_555 1_555
O55_2 W10_2 1_555 1_555
O56_2 As1_2 1_555 1_555
O57_2 W8_2 1_555 1_555
O58_2 W10_2 1_555 1_555
O59_2 W13_2 1_555 1_555
O60_2 W18_2 1_555 1_555
O61_2 W15_2 1_555 1_555
O62_2 W14_2 1_555 1_555
W1_2 O27_2 1_555 1_555
W2_2 O29_2 1_555 1_555
W3_2 O28_2 1_555 1_555
W4_2 O52_2 1_555 1_555
W5_2 O18_2 1_555 1_555
W5_2 O28_2 1_555 1_555
W5_2 O37_2 1_555 1_555
W6_2 O8_2 1_555 1_555
W6_2 O16_2 1_555 1_555
W6_2 O52_2 1_555 1_555
W8_2 O9_2 1_555 1_555
W9_2 O3_2 1_555 1_555
W9_2 O14_2 1_555 1_555
W9_2 O32_2 1_555 1_555
W10_2 O30_2 1_555 1_555
O17_2 W18_2 1_555 1_555
O26_2 W18_2 1_555 1_555
O27_2 W11_2 1_555 1_555
O31_2 W18_2 1_555 1_555
O36_2 W14_2 1_555 1_555
W12_2 O39_2 1_555 1_555
W12_2 O55_2 1_555 1_555
W13_2 O56_2 1_555 1_555
W14_2 O42_2 1_555 1_555
W15_2 O46_2 1_555 1_555
W15_2 O48_2 1_555 1_555
W15_2 O56_2 1_555 1_555
W15_2 O62_2 1_555 1_555
W16_2 O40_2 1_555 1_555
W16_2 O41_2 1_555 1_555
W16_2 O47_2 1_555 1_555
W16_2 O58_2 1_555 1_555
W17_2 O45_2 1_555 1_555
W17_2 O59_2 1_555 1_555
W18_2 O57_2 1_555 1_555
O69 C3 1_555 1_555
C1 H1 1_555 1_555
C3 O63 1_555 1_555
C6 C1 1_555 1_555
H3 C6 1_555 1_555
Co2 N4 1_555 1_555
N6 Co2 1_555 1_555
N8 Co2 1_555 1_555
O70 Co2 1_555 1_555
C25 C18 1_555 1_555
H17 C25 1_555 1_555
C27 N4 1_555 1_555
H19 C27 1_555 1_555
C25 C27 1_555 1_555
Co1 N1 1_555 1_555
N2 Co1 1_555 1_555
N3 Co1 1_555 1_555
O65 Co1 1_555 1_555
C7 C14 1_555 1_555
C8 N2 1_555 1_555
H4 C8 1_555 1_555
C9 C2 1_555 1_555
H5 C9 1_555 1_555
C11 N1 1_555 1_555
H7 C11 1_555 1_555
C12 C5 1_555 1_555
H8 C12 1_555 1_555
C13 N3 1_555 1_555
C14 C13 1_555 1_555
C15 C7 1_555 1_555
H11 C15 1_555 1_555
C16 N3 1_555 1_555
H12 C16 1_555 1_555
Co5 N7 1_555 1_555
N7 C29 1_555 1_555
C17 H13 1_555 1_555
C20 H14 1_555 1_555
C22 C17 1_555 1_555
H15 C22 1_555 1_555
C23 C7 1_555 1_555
H18 C26 1_555 1_555
C30 C23 1_555 1_555
C31 C23 1_555 1_555
H23 C31 1_555 1_555
C32 N7 1_555 1_555
H24 C32 1_555 1_555
C8 C12 1_555 1_555
C9 C11 1_555 1_555
C15 C16 1_555 1_555
C20 C26 1_555 1_555
C29 C30 1_555 1_555
C31 C32 1_555 1_555
C4 H2 1_555 1_555
H6 C10 1_555 1_555
N6 C24 1_555 1_555
C24 H16 1_555 1_555
C28 C21 1_555 1_555
H20 C28 1_555 1_555
C4 C10 1_555 1_555
O67 C19 1_555 1_555
O68 C19 1_555 1_555
C24 C28 1_555 1_555
C4_2 H2_2 1_555 1_555
H6_2 C10_2 1_555 1_555
C24_2 H16_2 1_555 1_555
H20_2 C28_2 1_555 1_555
C4_2 C10_2 1_555 1_555
O68_2 C19_2 1_555 1_555
C24_2 C28_2 1_555 1_555
Co1_2 N1_2 1_555 1_555
N2_2 Co1_2 1_555 1_555
N3_2 Co1_2 1_555 1_555
C7_2 C14_2 1_555 1_555
C9_2 C2_2 1_555 1_555
H5_2 C9_2 1_555 1_555
C11_2 N1_2 1_555 1_555
H7_2 C11_2 1_555 1_555
C13_2 N3_2 1_555 1_555
C14_2 C13_2 1_555 1_555
C15_2 C7_2 1_555 1_555
H11_2 C15_2 1_555 1_555
C16_2 N3_2 1_555 1_555
H12_2 C16_2 1_555 1_555
N8 C29_2 1_555 1_555
C17_2 H13_2 1_555 1_555
C22_2 C17_2 1_555 1_555
H15_2 C22_2 1_555 1_555
C23_2 C7_2 1_555 1_555
C30_2 C23_2 1_555 1_555
C31_2 C23_2 1_555 1_555
H23_2 C31_2 1_555 1_555
C32_2 N8 1_555 1_555
H24_2 C32_2 1_555 1_555
C9_2 C11_2 1_555 1_555
C15_2 C16_2 1_555 1_555
C29_2 C30_2 1_555 1_555
C31_2 C32_2 1_555 1_555
Co5 N5 1_555 1_555
H4_2 C8_2 1_555 1_555
H8_2 C12_2 1_555 1_555
C20_2 H14_2 1_555 1_555
H18_2 C26_2 1_555 1_555
C8_2 C12_2 1_555 1_555
C20_2 C26_2 1_555 1_555
O64 C3_2 1_555 1_555
C1_2 H1_2 1_555 1_555
C6_2 C1_2 1_555 1_555
H3_2 C6_2 1_555 1_555
Co5 N4_2 1_555 1_555
C25_2 C18_2 1_555 1_555
H17_2 C25_2 1_555 1_555
C27_2 N4_2 1_555 1_555
H19_2 C27_2 1_555 1_555
C25_2 C27_2 1_555 1_555
N9 C36 1_555 1_555
C33 C34 1_555 1_555
C34 C35 1_555 1_555
C35 H25 1_555 1_555
C36 C35 1_555 1_555
H26 C36 1_555 1_555
C37 C33 1_555 1_555
H27 C37 1_555 1_555
N10 C39 1_555 1_555
C38 C33 1_555 1_555
H28 C38 1_555 1_555
C39 C38 1_555 1_555
H29 C39 1_555 1_555
C40 N9 1_555 1_555
H30 C40 1_555 1_555
C41 C37 1_555 1_555
H31 C41 1_555 1_555
C42 C34 1_555 1_555
H32 C42 1_555 1_555
N10 C41 1_555 1_555
C40 C42 1_555 1_555
N10 H37 1_555 1_555
N9 H38 1_555 1_555
C40_2 N9_2 1_555 1_555
H30_2 C40_2 1_555 1_555
H32_2 C42_2 1_555 1_555
C40_2 C42_2 1_555 1_555
N9_2 H38_2 1_555 1_555
C33_2 C34_2 1_555 1_555
C34_2 C35_2 1_555 1_555
C35_2 H25_2 1_555 1_555
C36_2 C35_2 1_555 1_555
H26_2 C36_2 1_555 1_555
C37_2 C33_2 1_555 1_555
H27_2 C37_2 1_555 1_555
N10_2 C39_2 1_555 1_555
C38_2 C33_2 1_555 1_555
H28_2 C38_2 1_555 1_555
C39_2 C38_2 1_555 1_555
H29_2 C39_2 1_555 1_555
C41_2 C37_2 1_555 1_555
H31_2 C41_2 1_555 1_555
N10_2 C41_2 1_555 1_555
N10_2 H37_2 1_555 1_555
N9_3 C36_3 1_555 1_555
C33_3 C34_3 1_555 1_555
C34_3 C35_3 1_555 1_555
C35_3 H25_3 1_555 1_555
C36_3 C35_3 1_555 1_555
H26_3 C36_3 1_555 1_555
C37_3 C33_3 1_555 1_555
H27_3 C37_3 1_555 1_555
N10_3 C39_3 1_555 1_555
C38_3 C33_3 1_555 1_555
H28_3 C38_3 1_555 1_555
C39_3 C38_3 1_555 1_555
H29_3 C39_3 1_555 1_555
C40_3 N9_3 1_555 1_555
H30_3 C40_3 1_555 1_555
C41_3 C37_3 1_555 1_555
H31_3 C41_3 1_555 1_555
C42_3 C34_3 1_555 1_555
H32_3 C42_3 1_555 1_555
N10_3 C41_3 1_555 1_555
C40_3 C42_3 1_555 1_555
N10_3 H37_3 1_555 1_555
N9_3 H38_3 1_555 1_555
C33_4 C34_4 1_555 1_555
C34_4 C35_4 1_555 1_555
C35_4 H25_4 1_555 1_555
C36_4 C35_4 1_555 1_555
H26_4 C36_4 1_555 1_555
C37_4 C33_4 1_555 1_555
H27_4 C37_4 1_555 1_555
N10_4 C39_4 1_555 1_555
C38_4 C33_4 1_555 1_555
H28_4 C38_4 1_555 1_555
C39_4 C38_4 1_555 1_555
H29_4 C39_4 1_555 1_555
C41_4 C37_4 1_555 1_555
H31_4 C41_4 1_555 1_555
N10_4 C41_4 1_555 1_555
N10_4 H37_4 1_555 1_555
C40_4 N9_4 1_555 1_555
H30_4 C40_4 1_555 1_555
H32_4 C42_4 1_555 1_555
C40_4 C42_4 1_555 1_555
N9_4 H38_4 1_555 1_555

#END
