
###############################################################################
#
# This file contains modified crystal structure data generated from the
# MOF subset of the Cambridge Structural Database (CSD) v543 
# hosted by the Cambridge Crystallographic Data Centre (CCDC).
#
# This work is licensed under the Creative Commons
# Attribution-NonCommercial-ShareAlike 4.0 International License.
# To view a copy of this license, visit
# http://creativecommons.org/licenses/by-nc-sa/4.0/
# or send a letter to
# Creative Commons, PO Box 1866, Mountain View, CA 94042, USA.
#
# CIF created using the CSD Python API on 29 September 2022
# The structure has been converted into the P1 space group
# The structure has a 3D framework
# The original CSD entry HAWGUL is in the triclinic crystal system
# The framework has been calculated to contain at least 10.0% void space
# The void calculation uses a probe of radius 1.32A, grid spacing 0.4
#
###############################################################################

data_HAWGUL
_chemical_formula_moiety         '(C28 H22 N2 Ni2 O20)n'
_symmetry_cell_setting           triclinic
_symmetry_space_group_name_H-M   'P 1'
_symmetry_Int_Tables_number      1
_space_group_name_Hall           'P 1'
loop_
_symmetry_equiv_pos_site_id
_symmetry_equiv_pos_as_xyz
1 x,y,z
_cell_length_a                   8.9744(3)
_cell_length_b                   11.0999(3)
_cell_length_c                   11.1627(3)
_cell_angle_alpha                79.8420(10)
_cell_angle_beta                 84.4110(10)
_cell_angle_gamma                80.1440(10)
_cell_volume                     1075.8
loop_
_atom_site_label
_atom_site_type_symbol
_atom_site_fract_x
_atom_site_fract_y
_atom_site_fract_z
O14 O 0.0287(2) 0.02986(19) 0.19670(18)
Ni2 Ni 0.01527(4) 0.86053(3) 0.48972(3)
O11 O 0.1283(2) 0.97902(17) 0.55627(16)
O13 O 0.1625(2) 0.70695(18) 0.55611(18)
O15 O 0.1513(2) 0.8747(2) 0.32707(18)
Ni1 Ni 0.80432(4) 0.05353(3) 0.27469(3)
O1 O 0.8717(2) 0.02098(17) 0.44373(16)
H1 H 0.777902 0.014037 0.499075
O10 O 0.5779(2) 0.0640(2) 0.3443(2)
H4 H 0.524385 0.119088 0.391374
H5 H 0.540985 0.073528 0.267644
Ni8 Ni 0.98473(4) 0.13947(3) 0.51028(3)
O12 O 0.7914(2) 0.24245(18) 0.26610(18)
N2 N 0.7249(3) 0.0995(2) 0.0988(2)
O3 O 0.8375(2) 0.29305(18) 0.44389(18)
O5 O 0.5286(2) 0.64009(18) 0.04364(17)
O7 O 0.8963(3) 0.7446(2) 0.4243(2)
O8 O 0.8072(3) 0.87398(19) 0.26079(19)
O9 O 0.8744(2) 0.8330(2) 0.65130(19)
H2 H 0.907816 0.863991 0.708223
H3 H 0.784245 0.876232 0.639962
C2 C 0.4205(3) 0.7448(3) 0.0375(2)
C3 C 0.1276(3) 0.9346(3) 0.2224(3)
C4 C 0.6747(3) 0.7020(3) 0.1869(2)
H7 H 0.648980 0.786656 0.151851
C5 C 0.7971(3) 0.3178(3) 0.3363(3)
C6 C 0.2256(3) 0.8889(3) 0.1178(3)
C8 C 0.6188(3) 0.6113(3) 0.1428(2)
C9 C 0.8294(3) 0.7699(3) 0.3276(3)
C10 C 0.8065(3) 0.5441(3) 0.3335(2)
H9 H 0.868920 0.520965 0.400448
C11 C 0.7691(3) 0.6685(3) 0.2833(2)
C12 C 0.7522(3) 0.4538(3) 0.2857(2)
C13 C 0.3372(3) 0.7848(3) 0.1374(3)
H10 H 0.355419 0.742503 0.217557
C14 C 0.6580(3) 0.4875(3) 0.1891(3)
H11 H 0.621357 0.426029 0.155790
N1 N 0.2751(3) 0.9005(2) 0.9012(2)
C1 C 0.3871(3) 0.8038(3) 0.9208(3)
H6 H 0.445125 0.774826 0.852819
C7 C 0.1997(3) 0.9440(3) 0.9978(2)
Ni5 Ni 0.19568(4) 0.94647(3) 0.72531(3)
C1_2 C 0.6129(3) 0.1962(3) 0.0792(3)
H6_2 H 0.554875 0.225174 0.147181
C7_2 C 0.8003(3) 0.0560(3) 0.0022(2)
O2 O 0.2086(2) 0.75755(18) 0.73390(18)
O5_2 O 0.4714(2) 0.35991(18) 0.95636(17)
O6 O 0.8487(2) 0.1253(2) 0.67293(18)
O7_2 O 0.1037(3) 0.2554(2) 0.5757(2)
O8_2 O 0.1928(3) 0.12602(19) 0.73921(19)
O9_2 O 0.1256(2) 0.1670(2) 0.34870(19)
H2_2 H 0.092184 0.136009 0.291777
H3_2 H 0.215755 0.123768 0.360038
C2_2 C 0.5795(3) 0.2552(3) 0.9625(2)
C3_2 C 0.8724(3) 0.0654(3) 0.7776(3)
C4_2 C 0.3253(3) 0.2980(3) 0.8131(2)
H7_2 H 0.351020 0.213344 0.848149
C5_2 C 0.2029(3) 0.6822(3) 0.6637(3)
C6_2 C 0.7744(3) 0.1111(3) 0.8822(3)
C8_2 C 0.3812(3) 0.3887(3) 0.8572(2)
C9_2 C 0.1706(3) 0.2301(3) 0.6724(3)
C10_2 C 0.1935(3) 0.4559(3) 0.6665(2)
H9_2 H 0.131080 0.479035 0.599552
C11_2 C 0.2309(3) 0.3315(3) 0.7167(2)
C12_2 C 0.2478(3) 0.5462(3) 0.7143(2)
C13_2 C 0.6628(3) 0.2152(3) 0.8626(3)
H10_2 H 0.644581 0.257497 0.782443
C14_2 C 0.3420(3) 0.5125(3) 0.8109(3)
H11_2 H 0.378643 0.573971 0.844210
H1_2 H 0.222098 0.985963 0.500925
O4 O 0.9713(2) 0.97014(19) 0.80330(18)
O10_2 O 0.4221(2) 0.9360(2) 0.6557(2)
H4_2 H 0.475615 0.880912 0.608626
H5_2 H 0.459015 0.926472 0.732356
H8 H 0.124990 0.015882 0.984164
H8_2 H 0.875010 0.984118 0.015836
loop_
_geom_bond_atom_site_label_1
_geom_bond_atom_site_label_2
_geom_bond_site_symmetry_1
_geom_bond_site_symmetry_2
O11 Ni2 1_555 1_555
O13 Ni2 1_555 1_555
O15 Ni2 1_555 1_555
Ni1 O1 1_555 1_555
O1 H1 1_555 1_555
O10 Ni1 1_555 1_555
H4 O10 1_555 1_555
H5 O10 1_555 1_555
Ni8 O1 1_555 1_555
O12 Ni1 1_555 1_555
N2 Ni1 1_555 1_555
O12 C5 1_555 1_555
O3 C5 1_555 1_555
O5 C2 1_555 1_555
O15 C3 1_555 1_555
H2 O9 1_555 1_555
H3 O9 1_555 1_555
C3 C6 1_555 1_555
C4 H7 1_555 1_555
C5 C12 1_555 1_555
C8 O5 1_555 1_555
C9 O7 1_555 1_555
C10 H9 1_555 1_555
C11 C4 1_555 1_555
C12 C10 1_555 1_555
C13 C2 1_555 1_555
H10 C13 1_555 1_555
C14 C8 1_555 1_555
H11 C14 1_555 1_555
Ni8 O3 1_555 1_555
O8 C9 1_555 1_555
C4 C8 1_555 1_555
C6 C13 1_555 1_555
C9 C11 1_555 1_555
C10 C11 1_555 1_555
C12 C14 1_555 1_555
N1 C1 1_555 1_555
C1 H6 1_555 1_555
C7 N1 1_555 1_555
Ni5 N1 1_555 1_555
N2 C1_2 1_555 1_555
C1_2 H6_2 1_555 1_555
C7_2 N2 1_555 1_555
O2 C5_2 1_555 1_555
O13 C5_2 1_555 1_555
O5_2 C2_2 1_555 1_555
O6 C3_2 1_555 1_555
H2_2 O9_2 1_555 1_555
H3_2 O9_2 1_555 1_555
C3_2 C6_2 1_555 1_555
C4_2 H7_2 1_555 1_555
C5_2 C12_2 1_555 1_555
C8_2 O5_2 1_555 1_555
C9_2 O7_2 1_555 1_555
C10_2 H9_2 1_555 1_555
C11_2 C4_2 1_555 1_555
C12_2 C10_2 1_555 1_555
C13_2 C2_2 1_555 1_555
H10_2 C13_2 1_555 1_555
C14_2 C8_2 1_555 1_555
H11_2 C14_2 1_555 1_555
Ni5 O2 1_555 1_555
Ni8 O6 1_555 1_555
O8_2 C9_2 1_555 1_555
C4_2 C8_2 1_555 1_555
C6_2 C13_2 1_555 1_555
C9_2 C11_2 1_555 1_555
C10_2 C11_2 1_555 1_555
C12_2 C14_2 1_555 1_555
Ni5 O11 1_555 1_555
O11 H1_2 1_555 1_555
O10_2 Ni5 1_555 1_555
H4_2 O10_2 1_555 1_555
H5_2 O10_2 1_555 1_555

#END
