
###############################################################################
#
# This file contains modified crystal structure data generated from the
# MOF subset of the Cambridge Structural Database (CSD) v543 
# hosted by the Cambridge Crystallographic Data Centre (CCDC).
#
# This work is licensed under the Creative Commons
# Attribution-NonCommercial-ShareAlike 4.0 International License.
# To view a copy of this license, visit
# http://creativecommons.org/licenses/by-nc-sa/4.0/
# or send a letter to
# Creative Commons, PO Box 1866, Mountain View, CA 94042, USA.
#
# CIF created using the CSD Python API on 29 September 2022
# The structure has been converted into the P1 space group
# The structure has a 3D framework
# The original CSD entry HAWREE is in the triclinic crystal system
# The framework has been calculated to contain at least 10.0% void space
# The void calculation uses a probe of radius 1.32A, grid spacing 0.4
# H atom positions have been added when not included in the experimental data
#
###############################################################################

data_HAWREE
_chemical_formula_moiety         '(C64 H54 Mn10 N24 O24)n'
_symmetry_cell_setting           triclinic
_symmetry_space_group_name_H-M   'P 1'
_symmetry_Int_Tables_number      1
_space_group_name_Hall           'P 1'
loop_
_symmetry_equiv_pos_site_id
_symmetry_equiv_pos_as_xyz
1 x,y,z
_cell_length_a                   11.1053(10)
_cell_length_b                   12.5767(12)
_cell_length_c                   20.0751(19)
_cell_angle_alpha                82.8400(10)
_cell_angle_beta                 77.765(2)
_cell_angle_gamma                79.2580(10)
_cell_volume                     2681.54
loop_
_atom_site_label
_atom_site_type_symbol
_atom_site_fract_x
_atom_site_fract_y
_atom_site_fract_z
H1 H 0.0563 0.1136 0.2505
C1 C 0.1631(4) 0.9068(4) 0.2529(2)
C2 C 0.0304(4) 0.9565(4) 0.2481(3)
O1 O 0.2285(3) 0.9676(3) 0.26759(19)
O2 O 0.1988(3) 0.8081(3) 0.24261(18)
Mn8 Mn 0.37152(6) 0.71754(5) 0.26540(3)
Mn13 Mn 0.41963(6) 0.97470(5) 0.25766(3)
Mn1 Mn 0.52324(6) 0.23138(5) 0.24474(3)
Mn2 Mn 0.62858(6) 0.48945(5) 0.22780(3)
C3 C 0.9946(5) 0.0712(4) 0.2492(3)
C4 C 0.8754(5) 0.1224(4) 0.2483(3)
H2 H 0.8526 0.1989 0.2490
C5 C 0.7872(4) 0.0553(4) 0.2462(3)
C9 C 0.0184(4) 0.5074(4) 0.2372(3)
C10 C 0.0554(5) 0.3932(4) 0.2319(3)
C11 C 0.1753(4) 0.3423(4) 0.2331(3)
H5 H 0.1993 0.2661 0.2304
C12 C 0.2616(4) 0.4089(4) 0.2387(2)
C13 C 0.2245(4) 0.5209(4) 0.2433(2)
C14 C 0.1010(4) 0.5717(4) 0.2435(3)
H6 H 0.0758 0.6473 0.2478
C15 C 0.6241(5) 0.1869(4) 0.6075(2)
C16 C 0.6232(5) 0.2025(4) 0.5318(2)
C17 C 0.5758(6) 0.1281(4) 0.5007(3)
H7 H 0.5505 0.0656 0.5277
C18 C 0.5650(5) 0.1431(4) 0.4327(3)
H8 H 0.5350 0.0918 0.4122
C19 C 0.6006(5) 0.2382(4) 0.3956(2)
C20 C 0.6502(6) 0.3107(4) 0.4254(3)
C21 C 0.6649(6) 0.2923(4) 0.4937(3)
H9 H 0.7022 0.3399 0.5132
C24 C 0.4193(5) 0.3746(4) 0.0051(3)
C25 C 0.4499(5) 0.3444(4) 0.0680(3)
H11 H 0.4817 0.3919 0.0906
C26 C 0.4319(4) 0.2392(4) 0.0977(2)
C27 C 0.3840(5) 0.1699(4) 0.0642(2)
C29 C 0.7356(5) 0.3186(5) 0.1269(3)
H13 H 0.7138 0.3804 0.0936
H14 H 0.8160 0.3276 0.1376
C30 C 0.7596(5) 0.2357(4) 0.0946(2)
H15 H 0.8254 0.2451 0.0543
H16 H 0.6841 0.2251 0.0800
H17 H 0.7880 0.1720 0.1242
C31 C 0.3015(5) 0.1434(4) 0.3576(3)
H18 H 0.2229 0.1428 0.3420
H19 H 0.3134 0.0778 0.3899
C32 C 0.2809(5) 0.2229(4) 0.3925(3)
H20 H 0.2087 0.2165 0.4296
H21 H 0.2636 0.2902 0.3633
H22 H 0.3544 0.2244 0.4119
N1 N 0.6623(3) 0.0792(3) 0.2468(2)
N4 N 0.3293(3) 0.5621(3) 0.2466(2)
N5 N 0.4230(3) 0.4775(3) 0.2443(2)
N6 N 0.3852(3) 0.3851(3) 0.2400(2)
N7 N 0.6723(5) 0.3956(4) 0.3783(2)
N8 N 0.6360(4) 0.3764(3) 0.3233(2)
N9 N 0.5928(4) 0.2822(3) 0.33090(19)
N10 N 0.4533(4) 0.1846(3) 0.1582(2)
N11 N 0.4188(4) 0.0869(3) 0.1603(2)
N12 N 0.3779(4) 0.0738(3) 0.1051(2)
O5 O 0.6738(3) 0.2522(3) 0.63117(17)
O6 O 0.5727(3) 0.1109(3) 0.64169(17)
O9 O 0.4860(3) 0.8264(2) 0.20931(16)
H23 H 0.4827 0.8357 0.1595
O10 O 0.5581(3) 0.6332(2) 0.28255(16)
H24 H 0.5624 0.6193 0.3322
O11 O 0.6559(3) 0.3342(3) 0.18091(16)
H25 H 0.7205 0.3018 0.2088
O12 O 0.3881(3) 0.1284(2) 0.30598(16)
H26 H 0.4197 0.0623 0.3065
Mn9 Mn 0.62848(6) 0.28246(5) 0.73460(3)
Mn12 Mn 0.67370(6) 0.74453(5) 0.22973(4)
Mn14 Mn 0.58037(6) 0.02530(5) 0.74234(3)
O16 O 0.8201(3) 0.4967(3) 0.21619(18)
O17 O 0.3262(3) 0.7478(3) 0.36883(17)
O19 O 0.6115(4) 0.5769(3) 0.13050(17)
C22 C 0.3464(5) 0.3403(4) 0.8999(2)
C23 C 0.3722(5) 0.3048(4) 0.9704(2)
H10 H 0.4301 0.4450 0.9839
C28 C 0.3535(5) 0.2020(4) 0.9995(3)
H12 H 0.3214 0.1550 0.9766
O7 O 0.3885(4) 0.4231(3) 0.86950(17)
O8 O 0.2893(3) 0.2829(3) 0.87448(17)
Mn7 Mn 0.37142(6) 0.51055(5) 0.77220(3)
Mn11 Mn 0.32630(6) 0.25547(5) 0.77027(4)
C6 C 0.8226(4) 0.9428(4) 0.2435(2)
C7 C 0.9453(4) 0.8909(4) 0.2444(3)
H3 H 0.9689 0.8146 0.2425
N2 N 0.6241(3) 0.9860(3) 0.2447(2)
N3 N 0.7167(3) 0.9015(3) 0.2426(2)
O15 O 0.8473(3) 0.6526(3) 0.24906(19)
O18 O 0.4273(3) 0.8891(3) 0.35831(17)
O20 O 0.7107(3) 0.7171(3) 0.12552(17)
H29 H 0.584747 0.56333 0.261231
C8 C 0.8850(4) 0.5558(4) 0.2339(2)
H4 H 0.9951 0.3514 0.2274
C8_2 C 0.1150(4) 0.4442(4) 0.7661(2)
H4_2 H 0.0049 0.6486 0.7726
O3 O 0.1527(3) 0.3474(3) 0.75094(19)
O4 O 0.1799(3) 0.5033(3) 0.78381(18)
C6_2 C 0.1774(4) 0.0572(4) 0.7565(2)
C7_2 C 0.0547(4) 0.1091(4) 0.7556(3)
H3_2 H 0.0311 0.1854 0.7575
N2_2 N 0.3759(3) 0.0140(3) 0.7553(2)
N3_2 N 0.2833(3) 0.0985(3) 0.7574(2)
O13 O 0.7715(3) 0.0324(3) 0.73241(19)
O21 O 0.5140(3) 0.1736(2) 0.79069(16)
H27 H 0.5173 0.1643 0.8405
O22 O 0.4419(3) 0.3668(2) 0.71745(16)
H28 H 0.4376 0.3807 0.6678
H29_2 H 0.415253 0.43667 0.738769
C22_2 C 0.6536(5) 0.6597(4) 0.1001(2)
C23_2 C 0.6278(5) 0.6952(4) 0.0296(2)
H10_2 H 0.5699 0.5550 0.0161
C28_2 C 0.6465(5) 0.7980(4) 0.0005(3)
H12_2 H 0.6786 0.8450 0.0234
Mn1_2 Mn 0.47676(6) 0.76862(5) 0.75526(3)
C3_2 C 0.0054(5) 0.9288(4) 0.7508(3)
C4_2 C 0.1246(5) 0.8776(4) 0.7517(3)
H2_2 H 0.1474 0.8011 0.7510
C5_2 C 0.2128(4) 0.9447(4) 0.7538(3)
C9_2 C 0.9816(4) 0.4926(4) 0.7628(3)
C10_2 C 0.9446(5) 0.6068(4) 0.7681(3)
C11_2 C 0.8247(4) 0.6577(4) 0.7669(3)
H5_2 H 0.8007 0.7339 0.7696
C12_2 C 0.7384(4) 0.5911(4) 0.7613(2)
C13_2 C 0.7755(4) 0.4791(4) 0.7567(2)
C14_2 C 0.8990(4) 0.4283(4) 0.7565(3)
H6_2 H 0.9242 0.3527 0.7522
C15_2 C 0.3759(5) 0.8131(4) 0.3925(2)
C16_2 C 0.3768(5) 0.7975(4) 0.4682(2)
C17_2 C 0.4242(6) 0.8719(4) 0.4993(3)
H7_2 H 0.4495 0.9344 0.4723
C18_2 C 0.4350(5) 0.8569(4) 0.5673(3)
H8_2 H 0.4650 0.9082 0.5878
C19_2 C 0.3994(5) 0.7618(4) 0.6044(2)
C20_2 C 0.3498(6) 0.6893(4) 0.5746(3)
C21_2 C 0.3351(6) 0.7077(4) 0.5063(3)
H9_2 H 0.2978 0.6601 0.4868
C24_2 C 0.5807(5) 0.6254(4) 0.9949(3)
C25_2 C 0.5501(5) 0.6556(4) 0.9320(3)
H11_2 H 0.5183 0.6081 0.9094
C26_2 C 0.5681(4) 0.7608(4) 0.9023(2)
C27_2 C 0.6160(5) 0.8301(4) 0.9358(2)
C29_2 C 0.2644(5) 0.6814(5) 0.8731(3)
H13_2 H 0.2862 0.6196 0.9064
H14_2 H 0.1840 0.6724 0.8624
C30_2 C 0.2404(5) 0.7643(4) 0.9054(2)
H15_2 H 0.1746 0.7549 0.9457
H16_2 H 0.3159 0.7749 0.9200
H17_2 H 0.2120 0.8280 0.8758
C31_2 C 0.6985(5) 0.8566(4) 0.6424(3)
H18_2 H 0.7771 0.8572 0.6580
H19_2 H 0.6866 0.9222 0.6101
C32_2 C 0.7191(5) 0.7771(4) 0.6075(3)
H20_2 H 0.7913 0.7835 0.5704
H21_2 H 0.7364 0.7098 0.6367
H22_2 H 0.6456 0.7756 0.5881
N1_2 N 0.3377(3) 0.9208(3) 0.7532(2)
N4_2 N 0.6707(3) 0.4379(3) 0.7534(2)
N5_2 N 0.5770(3) 0.5225(3) 0.7557(2)
N6_2 N 0.6148(3) 0.6149(3) 0.7600(2)
N7_2 N 0.3277(5) 0.6044(4) 0.6217(2)
N8_2 N 0.3640(4) 0.6236(3) 0.6767(2)
N9_2 N 0.4072(4) 0.7178(3) 0.66910(19)
N10_2 N 0.5467(4) 0.8154(3) 0.8418(2)
N11_2 N 0.5812(4) 0.9131(3) 0.8397(2)
N12_2 N 0.6221(4) 0.9262(3) 0.8949(2)
O11_2 O 0.3441(3) 0.6658(3) 0.81909(16)
H25_2 H 0.2795 0.6982 0.7912
O12_2 O 0.6119(3) 0.8716(2) 0.69402(16)
H26_2 H 0.5803 0.9377 0.6935
O14 O 0.8012(3) 0.1919(3) 0.75739(18)
C1_2 C 0.8369(4) 0.0932(4) 0.7471(2)
C2_2 C 0.9696(4) 0.0435(4) 0.7519(3)
H1_2 H 0.9437 0.8864 0.7495
loop_
_geom_bond_atom_site_label_1
_geom_bond_atom_site_label_2
_geom_bond_site_symmetry_1
_geom_bond_site_symmetry_2
C1 C2 1_555 1_555
O1 C1 1_555 1_555
O2 C1 1_555 1_555
Mn8 O2 1_555 1_555
Mn13 O1 1_555 1_555
Mn1 N1 1_555 1_555
Mn2 N5 1_555 1_555
Mn8 N4 1_555 1_555
C4 C3 1_555 1_555
H2 C4 1_555 1_555
C5 C4 1_555 1_555
C9 C10 1_555 1_555
C11 C10 1_555 1_555
H5 C11 1_555 1_555
C12 C11 1_555 1_555
C13 C12 1_555 1_555
C14 C9 1_555 1_555
H6 C14 1_555 1_555
C15 C16 1_555 1_555
C16 C17 1_555 1_555
C17 H7 1_555 1_555
C18 C17 1_555 1_555
H8 C18 1_555 1_555
C19 C18 1_555 1_555
C20 C19 1_555 1_555
C21 C16 1_555 1_555
H9 C21 1_555 1_555
C25 C24 1_555 1_555
H11 C25 1_555 1_555
C26 C25 1_555 1_555
C27 C26 1_555 1_555
C29 H13 1_555 1_555
H14 C29 1_555 1_555
C30 C29 1_555 1_555
H15 C30 1_555 1_555
H16 C30 1_555 1_555
H17 C30 1_555 1_555
C31 H18 1_555 1_555
H19 C31 1_555 1_555
C32 C31 1_555 1_555
H20 C32 1_555 1_555
H21 C32 1_555 1_555
H22 C32 1_555 1_555
N1 C5 1_555 1_555
N4 C13 1_555 1_555
N5 N4 1_555 1_555
N6 Mn1 1_555 1_555
N7 C20 1_555 1_555
N8 Mn2 1_555 1_555
N9 Mn1 1_555 1_555
N10 Mn1 1_555 1_555
N12 C27 1_555 1_555
O5 C15 1_555 1_555
O6 C15 1_555 1_555
O9 Mn8 1_555 1_555
H23 O9 1_555 1_555
O10 Mn2 1_555 1_555
H24 O10 1_555 1_555
O11 Mn1 1_555 1_555
H25 O11 1_555 1_555
O12 Mn1 1_555 1_555
H26 O12 1_555 1_555
Mn9 O5 1_555 1_555
Mn12 O9 1_555 1_555
Mn14 O6 1_555 1_555
Mn13 O9 1_555 1_555
O16 Mn2 1_555 1_555
O17 Mn8 1_555 1_555
O19 Mn2 1_555 1_555
Mn2 O11 1_555 1_555
Mn8 O10 1_555 1_555
C12 N6 1_555 1_555
C13 C14 1_555 1_555
C19 N9 1_555 1_555
C20 C21 1_555 1_555
C26 N10 1_555 1_555
C29 O11 1_555 1_555
C31 O12 1_555 1_555
N5 N6 1_555 1_555
N7 N8 1_555 1_555
N8 N9 1_555 1_555
N10 N11 1_555 1_555
N11 N12 1_555 1_555
O10 Mn12 1_555 1_555
C22 C23 1_555 1_555
C28 C23 1_555 1_555
H12 C28 1_555 1_555
O7 C22 1_555 1_555
O8 C22 1_555 1_555
Mn7 O7 1_555 1_555
Mn11 O8 1_555 1_555
Mn12 N3 1_555 1_555
Mn13 N2 1_555 1_555
H3 C7 1_555 1_555
N3 C6 1_555 1_555
O15 Mn12 1_555 1_555
O18 Mn13 1_555 1_555
O20 Mn12 1_555 1_555
C6 C7 1_555 1_555
N2 N3 1_555 1_555
O10 H29 1_555 1_555
O15 C8 1_555 1_555
O16 C8 1_555 1_555
O3 C8_2 1_555 1_555
O4 C8_2 1_555 1_555
Mn7 O4 1_555 1_555
Mn11 O3 1_555 1_555
Mn11 N3_2 1_555 1_555
Mn14 N2_2 1_555 1_555
H3_2 C7_2 1_555 1_555
N3_2 C6_2 1_555 1_555
O13 Mn14 1_555 1_555
O21 Mn11 1_555 1_555
H27 O21 1_555 1_555
O22 Mn11 1_555 1_555
H28 O22 1_555 1_555
Mn14 O21 1_555 1_555
C6_2 C7_2 1_555 1_555
N2_2 N3_2 1_555 1_555
O22 H29_2 1_555 1_555
C22_2 C23_2 1_555 1_555
C28_2 C23_2 1_555 1_555
H12_2 C28_2 1_555 1_555
O19 C22_2 1_555 1_555
O20 C22_2 1_555 1_555
Mn1_2 N1_2 1_555 1_555
Mn7 N5_2 1_555 1_555
Mn9 N4_2 1_555 1_555
C4_2 C3_2 1_555 1_555
H2_2 C4_2 1_555 1_555
C5_2 C4_2 1_555 1_555
C9_2 C10_2 1_555 1_555
C11_2 C10_2 1_555 1_555
H5_2 C11_2 1_555 1_555
C12_2 C11_2 1_555 1_555
C13_2 C12_2 1_555 1_555
C14_2 C9_2 1_555 1_555
H6_2 C14_2 1_555 1_555
C15_2 C16_2 1_555 1_555
C16_2 C17_2 1_555 1_555
C17_2 H7_2 1_555 1_555
C18_2 C17_2 1_555 1_555
H8_2 C18_2 1_555 1_555
C19_2 C18_2 1_555 1_555
C20_2 C19_2 1_555 1_555
C21_2 C16_2 1_555 1_555
H9_2 C21_2 1_555 1_555
C25_2 C24_2 1_555 1_555
H11_2 C25_2 1_555 1_555
C26_2 C25_2 1_555 1_555
C27_2 C26_2 1_555 1_555
C29_2 H13_2 1_555 1_555
H14_2 C29_2 1_555 1_555
C30_2 C29_2 1_555 1_555
H15_2 C30_2 1_555 1_555
H16_2 C30_2 1_555 1_555
H17_2 C30_2 1_555 1_555
C31_2 H18_2 1_555 1_555
H19_2 C31_2 1_555 1_555
C32_2 C31_2 1_555 1_555
H20_2 C32_2 1_555 1_555
H21_2 C32_2 1_555 1_555
H22_2 C32_2 1_555 1_555
N1_2 C5_2 1_555 1_555
N4_2 C13_2 1_555 1_555
N5_2 N4_2 1_555 1_555
N6_2 Mn1_2 1_555 1_555
N7_2 C20_2 1_555 1_555
N8_2 Mn7 1_555 1_555
N9_2 Mn1_2 1_555 1_555
N10_2 Mn1_2 1_555 1_555
N12_2 C27_2 1_555 1_555
O17 C15_2 1_555 1_555
O18 C15_2 1_555 1_555
O21 Mn9 1_555 1_555
O22 Mn7 1_555 1_555
O11_2 Mn1_2 1_555 1_555
H25_2 O11_2 1_555 1_555
O12_2 Mn1_2 1_555 1_555
H26_2 O12_2 1_555 1_555
O14 Mn9 1_555 1_555
Mn7 O11_2 1_555 1_555
Mn9 O22 1_555 1_555
C12_2 N6_2 1_555 1_555
C13_2 C14_2 1_555 1_555
C19_2 N9_2 1_555 1_555
C20_2 C21_2 1_555 1_555
C26_2 N10_2 1_555 1_555
C29_2 O11_2 1_555 1_555
C31_2 O12_2 1_555 1_555
N5_2 N6_2 1_555 1_555
N7_2 N8_2 1_555 1_555
N8_2 N9_2 1_555 1_555
N10_2 N11_2 1_555 1_555
N11_2 N12_2 1_555 1_555
C1_2 C2_2 1_555 1_555
O13 C1_2 1_555 1_555
O14 C1_2 1_555 1_555

#END
