
###############################################################################
#
# This file contains modified crystal structure data generated from the
# MOF subset of the Cambridge Structural Database (CSD) v543 
# hosted by the Cambridge Crystallographic Data Centre (CCDC).
#
# This work is licensed under the Creative Commons
# Attribution-NonCommercial-ShareAlike 4.0 International License.
# To view a copy of this license, visit
# http://creativecommons.org/licenses/by-nc-sa/4.0/
# or send a letter to
# Creative Commons, PO Box 1866, Mountain View, CA 94042, USA.
#
# CIF created using the CSD Python API on 29 September 2022
# The structure has been converted into the P1 space group
# The structure has a 3D framework
# The original CSD entry HAWWOT is in the monoclinic crystal system
# The framework has been calculated to contain at least 10.0% void space
# The void calculation uses a probe of radius 1.32A, grid spacing 0.4
#
###############################################################################

data_HAWWOT
_chemical_formula_moiety         '(C120 H120 N32 Nd8 O60 S12)n'
_symmetry_cell_setting           triclinic
_symmetry_space_group_name_H-M   'P 1'
_symmetry_Int_Tables_number      1
_space_group_name_Hall           'P 1'
loop_
_symmetry_equiv_pos_site_id
_symmetry_equiv_pos_as_xyz
1 x,y,z
_cell_length_a                   16.9836(6)
_cell_length_b                   12.1799(4)
_cell_length_c                   27.7375(11)
_cell_angle_alpha                90
_cell_angle_beta                 114.666(3)
_cell_angle_gamma                90
_cell_volume                     5214.2
loop_
_atom_site_label
_atom_site_type_symbol
_atom_site_fract_x
_atom_site_fract_y
_atom_site_fract_z
N3 N 0.0544(17) 0.446(3) 0.3321(10)
H3 H 0.0265 0.3914 0.3370
N4 N 0.082(2) 0.603(3) 0.3128(11)
H4 H 0.0730 0.6721 0.3074
C22 C 0.132(2) 0.440(3) 0.3092(14)
H19 H 0.1871 0.4183 0.3374
H20 H 0.1169 0.3875 0.2806
C23 C 0.139(2) 0.539(3) 0.2921(14)
H21 H 0.1167 0.5414 0.2538
H22 H 0.1986 0.5650 0.3076
C24 C 0.0452(11) 0.5444(16) 0.3402(7)
Nd3 Nd 0.06718(3) 0.47639(5) 0.58152(2)
O17 O 0.0476(4) 0.6085(7) 0.4944(3)
O22 O 0.0575(4) 0.4000(7) 0.4420(3)
Nd2 Nd 0.45692(3) 0.00155(4) 0.41749(2)
O15 O 0.5126(6) 0.0035(7) 0.3484(3)
N5 N 0.6026(10) 0.0252(12) 0.3096(6)
N6 N 0.5616(7) 0.1702(11) 0.3341(5)
H6 H 0.5333 0.2117 0.3464
H18 H 0.7978 0.0160 0.4134
C25 C 0.6204(10) 0.2113(15) 0.3135(6)
H23 H 0.6703 0.2458 0.3412
H24 H 0.5922 0.2639 0.2853
C26 C 0.6462(11) 0.1082(14) 0.2927(7)
H25 H 0.6254 0.1098 0.2544
H26 H 0.7085 0.0976 0.3087
C27 C 0.5551(8) 0.0611(13) 0.3322(5)
O18 O 0.6016(4) 0.0765(6) 0.4650(3)
O20 O 0.4472(5) 0.2011(7) 0.3874(3)
O21 O 0.3292(5) 0.1038(6) 0.3467(3)
O23 O 0.4439(5) 0.1128(6) 0.4865(3)
Nd1 Nd 0.93282(3) 0.52361(5) 0.41848(2)
S1 S 0.74050(16) 0.2178(2) 0.46236(10)
S2 S 0.76126(16) 0.2676(2) 0.24149(10)
S3 S 0.71047(17) 0.7106(2) 0.47207(10)
O1 O 0.9524(4) 0.3915(7) 0.5056(3)
O2 O 0.8448(5) 0.3665(7) 0.4276(3)
O4 O 0.6455(5) 0.0810(7) 0.5527(3)
O5 O 0.8856(4) 0.3894(7) 0.3380(3)
O6 O 0.7977(5) 0.5223(6) 0.3345(3)
O7 O 0.5528(5) 0.2011(7) 0.1126(3)
O8 O 0.6708(5) 0.1038(6) 0.1533(3)
O9 O 0.8579(5) 0.5905(7) 0.4711(3)
O10 O 0.9425(4) 0.6000(7) 0.5580(3)
O11 O 0.5493(5) 0.8349(6) 0.4360(3)
O12 O 0.5561(5) 0.8872(6) 0.5135(3)
O13 O 0.9007(6) 0.7199(7) 0.4002(3)
O14 O 0.9983(6) 0.5867(7) 0.3596(3)
O16 O 0.3798(5) 0.8583(7) 0.3546(3)
N1 N 0.8083(9) 0.8577(10) 0.3970(5)
H1 H 0.7707 0.8447 0.3652
N2 N 0.9273(8) 0.8440(10) 0.4678(5)
H2 H 0.9790 0.8236 0.4885
H5 H 0.6080 0.9563 0.3050
N7 N 0.2767(12) 0.7467(16) 0.2968(7)
H7 H 0.2930 0.6847 0.3127
N8 N 0.2704(16) 0.910(2) 0.2788(10)
H8 H 0.2862 0.9778 0.2798
C1 C 0.8353(7) 0.2800(11) 0.4996(4)
C2 C 0.8583(11) 0.260(2) 0.5522(5)
H9 H 0.9092 0.2853 0.5792
C3 C 0.7957(10) 0.1949(18) 0.5611(5)
H10 H 0.8006 0.1750 0.5946
C4 C 0.7293(7) 0.1659(10) 0.5159(4)
C5 C 0.8797(6) 0.3497(9) 0.4754(4)
C6 C 0.6527(6) 0.1027(9) 0.5112(4)
C7 C 0.7492(6) 0.3933(9) 0.2653(4)
C8 C 0.6753(7) 0.4413(10) 0.2326(4)
H11 H 0.6582 0.5103 0.2390
C9 C 0.6258(7) 0.3779(10) 0.1878(5)
H12 H 0.5729 0.4000 0.1615
C10 C 0.6647(6) 0.2798(9) 0.1876(4)
C11 C 0.8152(6) 0.4369(9) 0.3156(4)
C12 C 0.6286(7) 0.1893(10) 0.1494(4)
C13 C 0.8072(7) 0.6852(9) 0.5252(4)
C14 C 0.8101(7) 0.7348(10) 0.5700(4)
H13 H 0.8582 0.7317 0.6024
C15 C 0.7335(7) 0.7910(10) 0.5624(4)
H14 H 0.7246 0.8268 0.5893
C16 C 0.6737(6) 0.7866(8) 0.5108(4)
C17 C 0.8743(6) 0.6188(9) 0.5173(4)
C18 C 0.5875(7) 0.8400(8) 0.4852(4)
C19 C 0.8807(13) 0.9312(14) 0.4794(7)
H15 H 0.9144 0.9984 0.4881
H16 H 0.8669 0.9115 0.5089
C20 C 0.7998(13) 0.9447(13) 0.4295(7)
H17 H 0.7483 0.9353 0.4360
C21 C 0.8804(9) 0.7993(11) 0.4211(5)
C28 C 0.2051(14) 0.7609(17) 0.2449(8)
H27 H 0.2178 0.7237 0.2180
H28 H 0.1525 0.7297 0.2449
C29 C 0.1941(14) 0.8706(17) 0.2341(8)
H29 H 0.1409 0.8980 0.2347
H30 H 0.1955 0.8885 0.2004
C30 C 0.3141(9) 0.8447(12) 0.3167(6)
Nd5 Nd 0.54308(3) 0.00155(4) 0.08251(2)
Nd7 Nd 0.54308(3) 0.99845(4) 0.58251(2)
O19 O 0.3545(5) 0.9190(7) 0.4473(3)
O15_2 O 0.4874(6) 0.0035(7) 0.1516(3)
N5_2 N 0.3974(10) 0.0252(12) 0.1904(6)
N6_2 N 0.4384(7) 0.1702(11) 0.1659(5)
H6_2 H 0.4667 0.2117 0.1536
H18_2 H 0.2022 0.0160 0.0866
C25_2 C 0.3796(10) 0.2113(15) 0.1865(6)
H23_2 H 0.3297 0.2458 0.1588
H24_2 H 0.4078 0.2639 0.2147
C26_2 C 0.3538(11) 0.1082(14) 0.2073(7)
H25_2 H 0.3746 0.1098 0.2456
H26_2 H 0.2915 0.0976 0.1913
C27_2 C 0.4449(8) 0.0611(13) 0.1678(5)
O18_2 O 0.3984(4) 0.0765(6) 0.0350(3)
O23_2 O 0.5561(5) 0.1128(6) 0.0135(3)
Nd1_2 Nd 0.06718(3) 0.52361(5) 0.08152(2)
S1_2 S 0.25950(16) 0.2178(2) 0.03764(10)
S2_2 S 0.23874(16) 0.2676(2) 0.25851(10)
S3_2 S 0.28953(17) 0.7106(2) 0.02793(10)
O2_2 O 0.1552(5) 0.3665(7) 0.0724(3)
O5_2 O 0.1144(4) 0.3894(7) 0.1620(3)
O6_2 O 0.2023(5) 0.5223(6) 0.1655(3)
O9_2 O 0.1421(5) 0.5905(7) 0.0289(3)
O11_2 O 0.4507(5) 0.8349(6) 0.0640(3)
O13_2 O 0.0993(6) 0.7199(7) 0.0998(3)
O14_2 O 0.0017(6) 0.5867(7) 0.1404(3)
O16_2 O 0.6202(5) 0.8583(7) 0.1454(3)
N1_2 N 0.1917(9) 0.8577(10) 0.1030(5)
H1_2 H 0.2293 0.8447 0.1348
N2_2 N 0.0727(8) 0.8440(10) 0.0322(5)
H2_2 H 0.0210 0.8236 0.0115
H5_2 H 0.3920 0.9563 0.1950
N7_2 N 0.7233(12) 0.7467(16) 0.2032(7)
H7_2 H 0.7070 0.6847 0.1873
N8_2 N 0.7296(16) 0.910(2) 0.2212(10)
H8_2 H 0.7138 0.9778 0.2202
C1_2 C 0.1647(7) 0.2800(11) 0.0004(4)
C5_2 C 0.1203(6) 0.3497(9) 0.0246(4)
C7_2 C 0.2508(6) 0.3933(9) 0.2347(4)
C8_2 C 0.3247(7) 0.4413(10) 0.2674(4)
H11_2 H 0.3418 0.5103 0.2610
C9_2 C 0.3742(7) 0.3779(10) 0.3122(5)
H12_2 H 0.4271 0.4000 0.3385
C10_2 C 0.3353(6) 0.2798(9) 0.3124(4)
C11_2 C 0.1848(6) 0.4369(9) 0.1844(4)
C12_2 C 0.3714(7) 0.1893(10) 0.3506(4)
C18_2 C 0.4125(7) 0.8400(8) 0.0148(4)
C19_2 C 0.1193(13) 0.9312(14) 0.0206(7)
H15_2 H 0.0856 0.9984 0.0119
C20_2 C 0.2002(13) 0.9447(13) 0.0705(7)
H17_2 H 0.2517 0.9353 0.0640
C21_2 C 0.1196(9) 0.7993(11) 0.0789(5)
C28_2 C 0.7949(14) 0.7609(17) 0.2551(8)
H27_2 H 0.7822 0.7237 0.2820
H28_2 H 0.8475 0.7297 0.2551
C29_2 C 0.8059(14) 0.8706(17) 0.2659(8)
H29_2 H 0.8591 0.8980 0.2653
H30_2 H 0.8045 0.8885 0.2996
C30_2 C 0.6859(9) 0.8447(12) 0.1833(6)
O19_2 O 0.6455(5) 0.9190(7) 0.0527(3)
O1_2 O 0.0476(4) 0.3915(7) 0.9944(3)
O4_2 O 0.3545(5) 0.0810(7) 0.9473(3)
O10_2 O 0.0575(4) 0.6000(7) 0.9420(3)
O12_2 O 0.4439(5) 0.8872(6) 0.9865(3)
C2_2 C 0.1417(11) 0.260(2) 0.9478(5)
H9_2 H 0.0908 0.2853 0.9208
C3_2 C 0.2043(10) 0.1949(18) 0.9389(5)
H10_2 H 0.1994 0.1750 0.9054
C4_2 C 0.2707(7) 0.1659(10) 0.9841(4)
C6_2 C 0.3473(6) 0.1027(9) 0.9888(4)
C13_2 C 0.1928(7) 0.6852(9) 0.9748(4)
C14_2 C 0.1899(7) 0.7348(10) 0.9300(4)
H13_2 H 0.1418 0.7317 0.8976
C15_2 C 0.2665(7) 0.7910(10) 0.9376(4)
H14_2 H 0.2754 0.8268 0.9107
C16_2 C 0.3263(6) 0.7866(8) 0.9892(4)
C17_2 C 0.1257(6) 0.6188(9) 0.9827(4)
H16_2 H 0.1331 0.9115 0.9911
Nd7_2 Nd 0.45692(3) 0.99845(4) 0.91749(2)
N3_2 N 0.9456(17) 0.446(3) 0.1679(10)
H3_2 H 0.9735 0.3914 0.1630
N4_2 N 0.918(2) 0.603(3) 0.1872(11)
H4_2 H 0.9270 0.6721 0.1926
C22_2 C 0.868(2) 0.440(3) 0.1908(14)
H19_2 H 0.8129 0.4183 0.1626
H20_2 H 0.8831 0.3875 0.2194
C23_2 C 0.861(2) 0.539(3) 0.2079(14)
H21_2 H 0.8833 0.5414 0.2462
H22_2 H 0.8014 0.5650 0.1924
C24_2 C 0.9548(11) 0.5444(16) 0.1598(7)
O17_2 O 0.9524(4) 0.6085(7) 0.0056(3)
O22_2 O 0.9425(4) 0.4000(7) 0.0580(3)
Nd3_2 Nd 0.93282(3) 0.47639(5) 0.91848(2)
S1_3 S 0.25950(16) 0.7822(2) 0.53764(10)
S2_3 S 0.23874(16) 0.7324(2) 0.75851(10)
S3_3 S 0.28953(17) 0.2894(2) 0.52793(10)
O2_3 O 0.1552(5) 0.6335(7) 0.5724(3)
O3 O 0.3984(4) 0.9235(6) 0.5350(3)
O5_3 O 0.1144(4) 0.6106(7) 0.6620(3)
O6_3 O 0.2023(5) 0.4777(6) 0.6655(3)
O7_2 O 0.4472(5) 0.7989(7) 0.8874(3)
O8_2 O 0.3292(5) 0.8962(6) 0.8467(3)
O9_3 O 0.1421(5) 0.4095(7) 0.5289(3)
O11_3 O 0.4507(5) 0.1651(6) 0.5640(3)
O13_3 O 0.0993(6) 0.2801(7) 0.5998(3)
O14_3 O 0.0017(6) 0.4133(7) 0.6404(3)
O16_3 O 0.6202(5) 0.1417(7) 0.6454(3)
N1_3 N 0.1917(9) 0.1423(10) 0.6030(5)
H1_3 H 0.2293 0.1553 0.6348
N2_3 N 0.0727(8) 0.1560(10) 0.5322(5)
H2_3 H 0.0210 0.1764 0.5115
H5_3 H 0.3920 0.0437 0.6950
N7_3 N 0.7233(12) 0.2533(16) 0.7032(7)
H7_3 H 0.7070 0.3153 0.6873
N8_3 N 0.7296(16) 0.090(2) 0.7212(10)
H8_3 H 0.7138 0.0222 0.7202
C1_3 C 0.1647(7) 0.7200(11) 0.5004(4)
C2_3 C 0.1417(11) 0.740(2) 0.4478(5)
H9_3 H 0.0908 0.7147 0.4208
C3_3 C 0.2043(10) 0.8051(18) 0.4389(5)
H10_3 H 0.1994 0.8250 0.4054
C4_3 C 0.2707(7) 0.8341(10) 0.4841(4)
C5_3 C 0.1203(6) 0.6503(9) 0.5246(4)
C6_3 C 0.3473(6) 0.8973(9) 0.4888(4)
C7_3 C 0.2508(6) 0.6067(9) 0.7347(4)
C8_3 C 0.3247(7) 0.5587(10) 0.7674(4)
H11_3 H 0.3418 0.4897 0.7610
C9_3 C 0.3742(7) 0.6221(10) 0.8122(5)
H12_3 H 0.4271 0.6000 0.8385
C10_3 C 0.3353(6) 0.7202(9) 0.8124(4)
C11_3 C 0.1848(6) 0.5631(9) 0.6844(4)
C12_3 C 0.3714(7) 0.8107(10) 0.8506(4)
C13_3 C 0.1928(7) 0.3148(9) 0.4748(4)
C14_3 C 0.1899(7) 0.2652(10) 0.4300(4)
H13_3 H 0.1418 0.2683 0.3976
C15_3 C 0.2665(7) 0.2090(10) 0.4376(4)
H14_3 H 0.2754 0.1732 0.4107
C16_3 C 0.3263(6) 0.2134(8) 0.4892(4)
C17_3 C 0.1257(6) 0.3812(9) 0.4827(4)
C18_3 C 0.4125(7) 0.1600(8) 0.5148(4)
C19_3 C 0.1193(13) 0.0688(14) 0.5206(7)
H15_3 H 0.0856 0.0016 0.5119
H16_3 H 0.1331 0.0885 0.4911
C20_3 C 0.2002(13) 0.0553(13) 0.5705(7)
H17_3 H 0.2517 0.0647 0.5640
C21_3 C 0.1196(9) 0.2007(11) 0.5789(5)
C28_3 C 0.7949(14) 0.2391(17) 0.7551(8)
H27_3 H 0.7822 0.2763 0.7820
H28_3 H 0.8475 0.2703 0.7551
C29_3 C 0.8059(14) 0.1294(17) 0.7659(8)
H29_3 H 0.8591 0.1020 0.7653
H30_3 H 0.8045 0.1115 0.7996
C30_3 C 0.6859(9) 0.1553(12) 0.6833(6)
O15_3 O 0.4874(6) 0.9965(7) 0.6516(3)
N5_3 N 0.3974(10) 0.9748(12) 0.6904(6)
N6_3 N 0.4384(7) 0.8298(11) 0.6659(5)
H6_3 H 0.4667 0.7883 0.6536
H18_3 H 0.2022 0.9840 0.5866
C25_3 C 0.3796(10) 0.7887(15) 0.6865(6)
H23_3 H 0.3297 0.7542 0.6588
H24_3 H 0.4078 0.7361 0.7147
C26_3 C 0.3538(11) 0.8918(14) 0.7073(7)
H25_3 H 0.3746 0.8902 0.7456
H26_3 H 0.2915 0.9024 0.6913
C27_3 C 0.4449(8) 0.9389(13) 0.6678(5)
O20_2 O 0.5528(5) 0.7989(7) 0.6126(3)
O21_2 O 0.6708(5) 0.8962(6) 0.6533(3)
N3_3 N 0.9456(17) 0.554(3) 0.6679(10)
H3_3 H 0.9735 0.6086 0.6630
N4_3 N 0.918(2) 0.397(3) 0.6872(11)
H4_3 H 0.9270 0.3279 0.6926
C22_3 C 0.868(2) 0.560(3) 0.6908(14)
H19_3 H 0.8129 0.5817 0.6626
H20_3 H 0.8831 0.6125 0.7194
C23_3 C 0.861(2) 0.461(3) 0.7079(14)
H21_3 H 0.8833 0.4586 0.7462
H22_3 H 0.8014 0.4350 0.6924
C24_3 C 0.9548(11) 0.4556(16) 0.6598(7)
N3_4 N 0.0544(17) 0.554(3) 0.8321(10)
H3_4 H 0.0265 0.6086 0.8370
N4_4 N 0.082(2) 0.397(3) 0.8128(11)
H4_4 H 0.0730 0.3279 0.8074
C22_4 C 0.132(2) 0.560(3) 0.8092(14)
H19_4 H 0.1871 0.5817 0.8374
H20_4 H 0.1169 0.6125 0.7806
C23_4 C 0.139(2) 0.461(3) 0.7921(14)
H21_4 H 0.1167 0.4586 0.7538
H22_4 H 0.1986 0.4350 0.8076
C24_4 C 0.0452(11) 0.4556(16) 0.8402(7)
C2_4 C 0.8583(11) 0.740(2) 0.0522(5)
H9_4 H 0.9092 0.7147 0.0792
C3_4 C 0.7957(10) 0.8051(18) 0.0611(5)
H10_4 H 0.8006 0.8250 0.0946
C4_4 C 0.7293(7) 0.8341(10) 0.0159(4)
C6_4 C 0.6527(6) 0.8973(9) 0.0112(4)
C13_4 C 0.8072(7) 0.3148(9) 0.0252(4)
C14_4 C 0.8101(7) 0.2652(10) 0.0700(4)
H13_4 H 0.8582 0.2683 0.1024
C15_4 C 0.7335(7) 0.2090(10) 0.0624(4)
H14_4 H 0.7246 0.1732 0.0893
C16_4 C 0.6737(6) 0.2134(8) 0.0108(4)
C17_4 C 0.8743(6) 0.3812(9) 0.0173(4)
H16_4 H 0.8669 0.0885 0.0089
S1_4 S 0.74050(16) 0.7822(2) 0.96236(10)
S2_4 S 0.76126(16) 0.7324(2) 0.74149(10)
S3_4 S 0.71047(17) 0.2894(2) 0.97207(10)
O2_4 O 0.8448(5) 0.6335(7) 0.9276(3)
O3_2 O 0.6016(4) 0.9235(6) 0.9650(3)
O5_4 O 0.8856(4) 0.6106(7) 0.8380(3)
O6_4 O 0.7977(5) 0.4777(6) 0.8345(3)
O9_4 O 0.8579(5) 0.4095(7) 0.9711(3)
O11_4 O 0.5493(5) 0.1651(6) 0.9360(3)
O13_4 O 0.9007(6) 0.2801(7) 0.9002(3)
O14_4 O 0.9983(6) 0.4133(7) 0.8596(3)
O16_4 O 0.3798(5) 0.1417(7) 0.8546(3)
N1_4 N 0.8083(9) 0.1423(10) 0.8970(5)
H1_4 H 0.7707 0.1553 0.8652
N2_4 N 0.9273(8) 0.1560(10) 0.9678(5)
H2_4 H 0.9790 0.1764 0.9885
H5_4 H 0.6080 0.0437 0.8050
N7_4 N 0.2767(12) 0.2533(16) 0.7968(7)
H7_4 H 0.2930 0.3153 0.8127
N8_4 N 0.2704(16) 0.090(2) 0.7788(10)
H8_4 H 0.2862 0.0222 0.7798
C1_4 C 0.8353(7) 0.7200(11) 0.9996(4)
C5_4 C 0.8797(6) 0.6503(9) 0.9754(4)
C7_4 C 0.7492(6) 0.6067(9) 0.7653(4)
C8_4 C 0.6753(7) 0.5587(10) 0.7326(4)
H11_4 H 0.6582 0.4897 0.7390
C9_4 C 0.6258(7) 0.6221(10) 0.6878(5)
H12_4 H 0.5729 0.6000 0.6615
C10_4 C 0.6647(6) 0.7202(9) 0.6876(4)
C11_4 C 0.8152(6) 0.5631(9) 0.8156(4)
C12_4 C 0.6286(7) 0.8107(10) 0.6494(4)
C18_4 C 0.5875(7) 0.1600(8) 0.9852(4)
C19_4 C 0.8807(13) 0.0688(14) 0.9794(7)
H15_4 H 0.9144 0.0016 0.9881
C20_4 C 0.7998(13) 0.0553(13) 0.9295(7)
H17_4 H 0.7483 0.0647 0.9360
C21_4 C 0.8804(9) 0.2007(11) 0.9211(5)
C28_4 C 0.2051(14) 0.2391(17) 0.7449(8)
H27_4 H 0.2178 0.2763 0.7180
H28_4 H 0.1525 0.2703 0.7449
C29_4 C 0.1941(14) 0.1294(17) 0.7341(8)
H29_4 H 0.1409 0.1020 0.7347
H30_4 H 0.1955 0.1115 0.7004
C30_4 C 0.3141(9) 0.1553(12) 0.8167(6)
O15_4 O 0.5126(6) 0.9965(7) 0.8484(3)
N5_4 N 0.6026(10) 0.9748(12) 0.8096(6)
N6_4 N 0.5616(7) 0.8298(11) 0.8341(5)
H6_4 H 0.5333 0.7883 0.8464
H18_4 H 0.7978 0.9840 0.9134
C25_4 C 0.6204(10) 0.7887(15) 0.8135(6)
H23_4 H 0.6703 0.7542 0.8412
H24_4 H 0.5922 0.7361 0.7853
C26_4 C 0.6462(11) 0.8918(14) 0.7927(7)
H25_4 H 0.6254 0.8902 0.7544
H26_4 H 0.7085 0.9024 0.8087
C27_4 C 0.5551(8) 0.9389(13) 0.8322(5)
loop_
_geom_bond_atom_site_label_1
_geom_bond_atom_site_label_2
_geom_bond_site_symmetry_1
_geom_bond_site_symmetry_2
N3 H3 1_555 1_555
N4 H4 1_555 1_555
C22 N3 1_555 1_555
H19 C22 1_555 1_555
H20 C22 1_555 1_555
C23 N4 1_555 1_555
H21 C23 1_555 1_555
H22 C23 1_555 1_555
N3 C24 1_555 1_555
N4 C24 1_555 1_555
C22 C23 1_555 1_555
Nd3 O17 1_555 1_555
O15 Nd2 1_555 1_555
N6 H6 1_555 1_555
C25 N6 1_555 1_555
H23 C25 1_555 1_555
H24 C25 1_555 1_555
C26 N5 1_555 1_555
H25 C26 1_555 1_555
H26 C26 1_555 1_555
C27 O15 1_555 1_555
O18 Nd2 1_555 1_555
O20 Nd2 1_555 1_555
O21 Nd2 1_555 1_555
O23 Nd2 1_555 1_555
N5 C27 1_555 1_555
N6 C27 1_555 1_555
C25 C26 1_555 1_555
Nd1 O1 1_555 1_555
S1 C1 1_555 1_555
S2 C7 1_555 1_555
S3 C13 1_555 1_555
O1 C5 1_555 1_555
O2 Nd1 1_555 1_555
O18 C6 1_555 1_555
O4 C6 1_555 1_555
O5 Nd1 1_555 1_555
O6 Nd1 1_555 1_555
O7 C12 1_555 1_555
O8 C12 1_555 1_555
O9 Nd1 1_555 1_555
O10 C17 1_555 1_555
O11 C18 1_555 1_555
O13 Nd1 1_555 1_555
O14 Nd1 1_555 1_555
N1 H1 1_555 1_555
N2 H2 1_555 1_555
N7 H7 1_555 1_555
N8 H8 1_555 1_555
C1 C2 1_555 1_555
C2 H9 1_555 1_555
C3 C2 1_555 1_555
H10 C3 1_555 1_555
C4 S1 1_555 1_555
C5 O2 1_555 1_555
C6 C4 1_555 1_555
C7 C8 1_555 1_555
C8 H11 1_555 1_555
C9 C8 1_555 1_555
H12 C9 1_555 1_555
C10 S2 1_555 1_555
C11 O5 1_555 1_555
C12 C10 1_555 1_555
C13 C14 1_555 1_555
C14 H13 1_555 1_555
C15 C14 1_555 1_555
H14 C15 1_555 1_555
C16 S3 1_555 1_555
C17 O9 1_555 1_555
C18 O12 1_555 1_555
C19 N2 1_555 1_555
H15 C19 1_555 1_555
H16 C19 1_555 1_555
C20 N1 1_555 1_555
H17 C20 1_555 1_555
C21 O13 1_555 1_555
C28 N7 1_555 1_555
H27 C28 1_555 1_555
H28 C28 1_555 1_555
C29 N8 1_555 1_555
H29 C29 1_555 1_555
H30 C29 1_555 1_555
C30 O16 1_555 1_555
Nd5 O7 1_555 1_555
Nd7 O12 1_555 1_555
O6 C11 1_555 1_555
O8 Nd5 1_555 1_555
N1 C21 1_555 1_555
N2 C21 1_555 1_555
N7 C30 1_555 1_555
N8 C30 1_555 1_555
C1 C5 1_555 1_555
C3 C4 1_555 1_555
C7 C11 1_555 1_555
C9 C10 1_555 1_555
C13 C17 1_555 1_555
C15 C16 1_555 1_555
C16 C18 1_555 1_555
C19 C20 1_555 1_555
C28 C29 1_555 1_555
O15_2 Nd5 1_555 1_555
N6_2 H6_2 1_555 1_555
C25_2 N6_2 1_555 1_555
H23_2 C25_2 1_555 1_555
H24_2 C25_2 1_555 1_555
C26_2 N5_2 1_555 1_555
H25_2 C26_2 1_555 1_555
H26_2 C26_2 1_555 1_555
C27_2 O15_2 1_555 1_555
O18_2 Nd5 1_555 1_555
O23_2 Nd5 1_555 1_555
N5_2 C27_2 1_555 1_555
N6_2 C27_2 1_555 1_555
C25_2 C26_2 1_555 1_555
S1_2 C1_2 1_555 1_555
S2_2 C7_2 1_555 1_555
O2_2 Nd1_2 1_555 1_555
O5_2 Nd1_2 1_555 1_555
O6_2 Nd1_2 1_555 1_555
O20 C12_2 1_555 1_555
O21 C12_2 1_555 1_555
O9_2 Nd1_2 1_555 1_555
O11_2 C18_2 1_555 1_555
O13_2 Nd1_2 1_555 1_555
O14_2 Nd1_2 1_555 1_555
N1_2 H1_2 1_555 1_555
N2_2 H2_2 1_555 1_555
N7_2 H7_2 1_555 1_555
N8_2 H8_2 1_555 1_555
C5_2 O2_2 1_555 1_555
C7_2 C8_2 1_555 1_555
C8_2 H11_2 1_555 1_555
C9_2 C8_2 1_555 1_555
H12_2 C9_2 1_555 1_555
C10_2 S2_2 1_555 1_555
C11_2 O5_2 1_555 1_555
C12_2 C10_2 1_555 1_555
C19_2 N2_2 1_555 1_555
H15_2 C19_2 1_555 1_555
C20_2 N1_2 1_555 1_555
H17_2 C20_2 1_555 1_555
C21_2 O13_2 1_555 1_555
C28_2 N7_2 1_555 1_555
H27_2 C28_2 1_555 1_555
H28_2 C28_2 1_555 1_555
C29_2 N8_2 1_555 1_555
H29_2 C29_2 1_555 1_555
H30_2 C29_2 1_555 1_555
C30_2 O16_2 1_555 1_555
O6_2 C11_2 1_555 1_555
N1_2 C21_2 1_555 1_555
N2_2 C21_2 1_555 1_555
N7_2 C30_2 1_555 1_555
N8_2 C30_2 1_555 1_555
C1_2 C5_2 1_555 1_555
C7_2 C11_2 1_555 1_555
C9_2 C10_2 1_555 1_555
C19_2 C20_2 1_555 1_555
C28_2 C29_2 1_555 1_555
O4_2 C6_2 1_555 1_555
O10_2 C17_2 1_555 1_555
C2_2 H9_2 1_555 1_555
C3_2 C2_2 1_555 1_555
H10_2 C3_2 1_555 1_555
C6_2 C4_2 1_555 1_555
C13_2 C14_2 1_555 1_555
C14_2 H13_2 1_555 1_555
C15_2 C14_2 1_555 1_555
H14_2 C15_2 1_555 1_555
Nd7_2 O12_2 1_555 1_555
C3_2 C4_2 1_555 1_555
C13_2 C17_2 1_555 1_555
C15_2 C16_2 1_555 1_555
N3_2 H3_2 1_555 1_555
N4_2 H4_2 1_555 1_555
C22_2 N3_2 1_555 1_555
H19_2 C22_2 1_555 1_555
H20_2 C22_2 1_555 1_555
C23_2 N4_2 1_555 1_555
H21_2 C23_2 1_555 1_555
H22_2 C23_2 1_555 1_555
N3_2 C24_2 1_555 1_555
N4_2 C24_2 1_555 1_555
C22_2 C23_2 1_555 1_555
S1_3 C1_3 1_555 1_555
S2_3 C7_3 1_555 1_555
S3_3 C13_3 1_555 1_555
O17 C5_3 1_555 1_555
O2_3 Nd3 1_555 1_555
O3 C6_3 1_555 1_555
O19 C6_3 1_555 1_555
O5_3 Nd3 1_555 1_555
O6_3 Nd3 1_555 1_555
O7_2 C12_3 1_555 1_555
O8_2 C12_3 1_555 1_555
O9_3 Nd3 1_555 1_555
O22 C17_3 1_555 1_555
O11_3 C18_3 1_555 1_555
O13_3 Nd3 1_555 1_555
O14_3 Nd3 1_555 1_555
N1_3 H1_3 1_555 1_555
N2_3 H2_3 1_555 1_555
N7_3 H7_3 1_555 1_555
N8_3 H8_3 1_555 1_555
C1_3 C2_3 1_555 1_555
C2_3 H9_3 1_555 1_555
C3_3 C2_3 1_555 1_555
H10_3 C3_3 1_555 1_555
C4_3 S1_3 1_555 1_555
C5_3 O2_3 1_555 1_555
C6_3 C4_3 1_555 1_555
C7_3 C8_3 1_555 1_555
C8_3 H11_3 1_555 1_555
C9_3 C8_3 1_555 1_555
H12_3 C9_3 1_555 1_555
C10_3 S2_3 1_555 1_555
C11_3 O5_3 1_555 1_555
C12_3 C10_3 1_555 1_555
C13_3 C14_3 1_555 1_555
C14_3 H13_3 1_555 1_555
C15_3 C14_3 1_555 1_555
H14_3 C15_3 1_555 1_555
C16_3 S3_3 1_555 1_555
C17_3 O9_3 1_555 1_555
C18_3 O23 1_555 1_555
C19_3 N2_3 1_555 1_555
H15_3 C19_3 1_555 1_555
H16_3 C19_3 1_555 1_555
C20_3 N1_3 1_555 1_555
H17_3 C20_3 1_555 1_555
C21_3 O13_3 1_555 1_555
C28_3 N7_3 1_555 1_555
H27_3 C28_3 1_555 1_555
H28_3 C28_3 1_555 1_555
C29_3 N8_3 1_555 1_555
H29_3 C29_3 1_555 1_555
H30_3 C29_3 1_555 1_555
C30_3 O16_3 1_555 1_555
Nd7_2 O7_2 1_555 1_555
Nd7 O3 1_555 1_555
O6_3 C11_3 1_555 1_555
O8_2 Nd7_2 1_555 1_555
N1_3 C21_3 1_555 1_555
N2_3 C21_3 1_555 1_555
N7_3 C30_3 1_555 1_555
N8_3 C30_3 1_555 1_555
C1_3 C5_3 1_555 1_555
C3_3 C4_3 1_555 1_555
C7_3 C11_3 1_555 1_555
C9_3 C10_3 1_555 1_555
C13_3 C17_3 1_555 1_555
C15_3 C16_3 1_555 1_555
C16_3 C18_3 1_555 1_555
C19_3 C20_3 1_555 1_555
C28_3 C29_3 1_555 1_555
O15_3 Nd7 1_555 1_555
N6_3 H6_3 1_555 1_555
C25_3 N6_3 1_555 1_555
H23_3 C25_3 1_555 1_555
H24_3 C25_3 1_555 1_555
C26_3 N5_3 1_555 1_555
H25_3 C26_3 1_555 1_555
H26_3 C26_3 1_555 1_555
C27_3 O15_3 1_555 1_555
O20_2 Nd7 1_555 1_555
O21_2 Nd7 1_555 1_555
N5_3 C27_3 1_555 1_555
N6_3 C27_3 1_555 1_555
C25_3 C26_3 1_555 1_555
N3_3 H3_3 1_555 1_555
N4_3 H4_3 1_555 1_555
C22_3 N3_3 1_555 1_555
H19_3 C22_3 1_555 1_555
H20_3 C22_3 1_555 1_555
C23_3 N4_3 1_555 1_555
H21_3 C23_3 1_555 1_555
H22_3 C23_3 1_555 1_555
N3_3 C24_3 1_555 1_555
N4_3 C24_3 1_555 1_555
C22_3 C23_3 1_555 1_555
N3_4 H3_4 1_555 1_555
N4_4 H4_4 1_555 1_555
C22_4 N3_4 1_555 1_555
H19_4 C22_4 1_555 1_555
H20_4 C22_4 1_555 1_555
C23_4 N4_4 1_555 1_555
H21_4 C23_4 1_555 1_555
H22_4 C23_4 1_555 1_555
N3_4 C24_4 1_555 1_555
N4_4 C24_4 1_555 1_555
C22_4 C23_4 1_555 1_555
O19_2 C6_4 1_555 1_555
O22_2 C17_4 1_555 1_555
C2_4 H9_4 1_555 1_555
C3_4 C2_4 1_555 1_555
H10_4 C3_4 1_555 1_555
C6_4 C4_4 1_555 1_555
C13_4 C14_4 1_555 1_555
C14_4 H13_4 1_555 1_555
C15_4 C14_4 1_555 1_555
H14_4 C15_4 1_555 1_555
C3_4 C4_4 1_555 1_555
C13_4 C17_4 1_555 1_555
C15_4 C16_4 1_555 1_555
S1_4 C1_4 1_555 1_555
S2_4 C7_4 1_555 1_555
O2_4 Nd3_2 1_555 1_555
O5_4 Nd3_2 1_555 1_555
O6_4 Nd3_2 1_555 1_555
O20_2 C12_4 1_555 1_555
O21_2 C12_4 1_555 1_555
O9_4 Nd3_2 1_555 1_555
O11_4 C18_4 1_555 1_555
O13_4 Nd3_2 1_555 1_555
O14_4 Nd3_2 1_555 1_555
N1_4 H1_4 1_555 1_555
N2_4 H2_4 1_555 1_555
N7_4 H7_4 1_555 1_555
N8_4 H8_4 1_555 1_555
C5_4 O2_4 1_555 1_555
C7_4 C8_4 1_555 1_555
C8_4 H11_4 1_555 1_555
C9_4 C8_4 1_555 1_555
H12_4 C9_4 1_555 1_555
C10_4 S2_4 1_555 1_555
C11_4 O5_4 1_555 1_555
C12_4 C10_4 1_555 1_555
C19_4 N2_4 1_555 1_555
H15_4 C19_4 1_555 1_555
C20_4 N1_4 1_555 1_555
H17_4 C20_4 1_555 1_555
C21_4 O13_4 1_555 1_555
C28_4 N7_4 1_555 1_555
H27_4 C28_4 1_555 1_555
H28_4 C28_4 1_555 1_555
C29_4 N8_4 1_555 1_555
H29_4 C29_4 1_555 1_555
H30_4 C29_4 1_555 1_555
C30_4 O16_4 1_555 1_555
Nd7_2 O3_2 1_555 1_555
O6_4 C11_4 1_555 1_555
N1_4 C21_4 1_555 1_555
N2_4 C21_4 1_555 1_555
N7_4 C30_4 1_555 1_555
N8_4 C30_4 1_555 1_555
C1_4 C5_4 1_555 1_555
C7_4 C11_4 1_555 1_555
C9_4 C10_4 1_555 1_555
C19_4 C20_4 1_555 1_555
C28_4 C29_4 1_555 1_555
O15_4 Nd7_2 1_555 1_555
N6_4 H6_4 1_555 1_555
C25_4 N6_4 1_555 1_555
H23_4 C25_4 1_555 1_555
H24_4 C25_4 1_555 1_555
C26_4 N5_4 1_555 1_555
H25_4 C26_4 1_555 1_555
H26_4 C26_4 1_555 1_555
C27_4 O15_4 1_555 1_555
N5_4 C27_4 1_555 1_555
N6_4 C27_4 1_555 1_555
C25_4 C26_4 1_555 1_555

#END
