
###############################################################################
#
# This file contains modified crystal structure data generated from the
# MOF subset of the Cambridge Structural Database (CSD) v543 
# hosted by the Cambridge Crystallographic Data Centre (CCDC).
#
# This work is licensed under the Creative Commons
# Attribution-NonCommercial-ShareAlike 4.0 International License.
# To view a copy of this license, visit
# http://creativecommons.org/licenses/by-nc-sa/4.0/
# or send a letter to
# Creative Commons, PO Box 1866, Mountain View, CA 94042, USA.
#
# CIF created using the CSD Python API on 29 September 2022
# The structure has been converted into the P1 space group
# The structure has a 3D framework
# The original CSD entry HAWWUZ is in the monoclinic crystal system
# The framework has been calculated to contain at least 10.0% void space
# The void calculation uses a probe of radius 1.32A, grid spacing 0.4
#
###############################################################################

data_HAWWUZ
_chemical_formula_moiety         '(C120 H120 N32 Nd8 O60 S12)n'
_symmetry_cell_setting           triclinic
_symmetry_space_group_name_H-M   'P 1'
_symmetry_Int_Tables_number      1
_space_group_name_Hall           'P 1'
loop_
_symmetry_equiv_pos_site_id
_symmetry_equiv_pos_as_xyz
1 x,y,z
_cell_length_a                   17.0072(19)
_cell_length_b                   12.1455(7)
_cell_length_c                   27.524(3)
_cell_angle_alpha                90
_cell_angle_beta                 114.738(7)
_cell_angle_gamma                90
_cell_volume                     5163.64
loop_
_atom_site_label
_atom_site_type_symbol
_atom_site_fract_x
_atom_site_fract_y
_atom_site_fract_z
S1 S 0.26361(12) 0.23017(15) 0.24148(7)
S3 S 0.23676(11) 0.27527(16) 0.46174(7)
O1 O 0.3891(3) 0.1048(4) 0.3372(2)
O3 O 0.0535(4) 0.2995(5) 0.1127(2)
O4 O 0.1717(3) 0.3989(4) 0.1543(2)
O9 O 0.1000(3) 0.4203(4) 0.4651(2)
O10 O 0.1487(3) 0.4201(5) 0.5545(2)
O11 O 0.3419(3) 0.1304(4) 0.4252(2)
O12 O 0.4539(3) 0.1122(4) 0.50245(19)
N1 N 0.5761(17) 0.027(2) 0.3399(10)
H1 H 0.5653 0.0815 0.3558
C1 C 0.2512(5) 0.1028(6) 0.2633(3)
C2 C 0.1772(6) 0.0539(7) 0.2301(3)
C3 C 0.1283(6) 0.1209(7) 0.1860(3)
H10 H 0.0755 0.0997 0.1590
C4 C 0.1660(5) 0.2188(6) 0.1870(3)
C5 C 0.3177(4) 0.0569(6) 0.3143(3)
C6 C 0.1289(5) 0.3103(6) 0.1491(3)
C13 C 0.2350(5) 0.3412(6) 0.5156(3)
C14 C 0.3123(6) 0.3332(9) 0.5589(4)
H13 H 0.3240 0.3670 0.5915
C15 C 0.3722(6) 0.2690(9) 0.5493(4)
H14 H 0.4281 0.2550 0.5747
C16 C 0.3397(5) 0.2291(6) 0.4982(3)
C17 C 0.1547(4) 0.3991(6) 0.5114(3)
C18 C 0.3814(4) 0.1533(6) 0.4736(3)
C20 C 0.6271(16) 0.0377(19) 0.3100(9)
H17 H 0.5969 0.0805 0.2777
H18 H 0.6823 0.0724 0.3312
Nd3 Nd 0.56638(2) 0.02740(3) 0.581015(13)
Nd5 Nd 0.04357(2) 0.49908(3) 0.082820(14)
Nd7 Nd 0.04357(2) 0.50092(3) 0.582820(14)
O19 O 0.5591(3) 0.0930(5) 0.4399(2)
Nd1 Nd 0.43362(2) 0.97260(3) 0.418985(13)
S2 S 0.21084(11) 0.79009(16) 0.47243(7)
O2 O 0.2996(3) 0.9716(4) 0.3335(2)
O5 O 0.3581(3) 0.9112(4) 0.47208(19)
O6 O 0.4409(3) 0.9070(5) 0.5601(2)
O7 O 0.0544(3) 0.6111(4) 0.5120(2)
O8 O 0.0491(4) 0.6651(5) 0.4347(2)
O13 O 0.5019(4) 0.9024(5) 0.3623(2)
O14 O 0.3991(4) 0.7764(4) 0.4012(2)
O15 O 0.0115(4) 0.4970(5) 0.3481(2)
N2 N 0.590(2) 0.8747(19) 0.3223(13)
H2 H 0.5896 0.8039 0.3235
N3 N 0.4223(6) 0.6535(7) 0.4689(3)
H3 H 0.4734 0.6754 0.4899
N4 N 0.3064(6) 0.6373(7) 0.3967(4)
H4 H 0.2693 0.6503 0.3645
N5 N 0.0609(6) 0.3297(8) 0.3333(4)
H5 H 0.0321 0.2882 0.3453
N6 N 0.1044(7) 0.4773(9) 0.3083(4)
H6 H 0.1105 0.5465 0.3042
H9 H 0.1603 0.9839 0.2357
C7 C 0.3056(4) 0.8165(6) 0.5264(3)
C8 C 0.3082(5) 0.7653(7) 0.5710(3)
H11 H 0.3559 0.7681 0.6039
C9 C 0.2321(5) 0.7079(7) 0.5626(3)
H12 H 0.2232 0.6705 0.5894
C10 C 0.1731(4) 0.7132(6) 0.5111(3)
C11 C 0.3739(4) 0.8841(6) 0.5189(3)
C12 C 0.0878(4) 0.6609(6) 0.4850(3)
C19 C 0.6380(17) 0.932(2) 0.2982(10)
H15 H 0.6986 0.9106 0.3141
H16 H 0.6141 0.9196 0.2598
C21 C 0.5476(9) 0.9296(12) 0.3414(5)
C22 C 0.3768(9) 0.5661(9) 0.4825(5)
H19 H 0.3602 0.5887 0.5107
H20 H 0.4117 0.4998 0.4934
C23 C 0.2963(10) 0.5490(8) 0.4287(6)
H21 H 0.2976 0.4776 0.4133
H22 H 0.2429 0.5563 0.4332
C24 C 0.3768(6) 0.6961(6) 0.4208(3)
C25 C 0.1452(8) 0.3944(12) 0.2910(5)
H23 H 0.2074 0.4048 0.3062
H24 H 0.1230 0.3931 0.2523
C26 C 0.1210(8) 0.2884(12) 0.3123(5)
H25 H 0.0934 0.2353 0.2839
H26 H 0.1715 0.2549 0.3402
C27 C 0.0559(5) 0.4381(9) 0.3317(3)
O23 O 0.5461(3) 0.8878(4) 0.49755(19)
Nd6 Nd 0.95643(2) 0.49908(3) 0.417180(14)
O16 O 0.8785(4) 0.6424(6) 0.3503(3)
N7 N 0.7310(9) 0.633(9) 0.3227(19)
H7 H 0.7250 0.6294 0.3522
N8 N 0.7823(11) 0.695(4) 0.2658(8)
H8 H 0.8188 0.7154 0.2534
C28 C 0.663(7) 0.607(9) 0.2693(19)
H27 H 0.6053 0.6229 0.2672
H28 H 0.6653 0.5316 0.2590
C29 C 0.6895(15) 0.692(3) 0.2346(13)
H29 H 0.6746 0.6639 0.1988
H30 H 0.6632 0.7633 0.2326
C30 C 0.8053(10) 0.662(2) 0.3185(7)
O17 O 0.9465(4) 0.2995(5) 0.3873(2)
O18 O 0.8283(3) 0.3989(4) 0.3457(2)
O20 O 0.9456(3) 0.3889(4) 0.4880(2)
O22 O 0.8513(3) 0.5799(5) 0.4455(2)
O16_2 O 0.1215(4) 0.6424(6) 0.1497(3)
N7_2 N 0.2690(9) 0.633(9) 0.1773(19)
H7_2 H 0.2750 0.6294 0.1478
N8_2 N 0.2177(11) 0.695(4) 0.2342(8)
H8_2 H 0.1812 0.7154 0.2466
C28_2 C 0.337(7) 0.607(9) 0.2307(19)
H27_2 H 0.3947 0.6229 0.2328
H28_2 H 0.3347 0.5316 0.2410
C29_2 C 0.3105(15) 0.692(3) 0.2654(13)
H29_2 H 0.3254 0.6639 0.3012
H30_2 H 0.3368 0.7633 0.2674
C30_2 C 0.1947(10) 0.662(2) 0.1815(7)
O20_2 O 0.0544(3) 0.3889(4) 0.0120(2)
O22_2 O 0.1487(3) 0.5799(5) 0.0545(2)
S1_2 S 0.73639(12) 0.23017(15) 0.25852(7)
S3_2 S 0.76324(11) 0.27527(16) 0.03826(7)
O1_2 O 0.6109(3) 0.1048(4) 0.1628(2)
O9_2 O 0.9000(3) 0.4203(4) 0.0349(2)
O11_2 O 0.6581(3) 0.1304(4) 0.0748(2)
N1_2 N 0.4239(17) 0.027(2) 0.1601(10)
H1_2 H 0.4347 0.0815 0.1442
C1_2 C 0.7488(5) 0.1028(6) 0.2367(3)
C2_2 C 0.8228(6) 0.0539(7) 0.2699(3)
C3_2 C 0.8717(6) 0.1209(7) 0.3140(3)
H10_2 H 0.9245 0.0997 0.3410
C4_2 C 0.8340(5) 0.2188(6) 0.3130(3)
C5_2 C 0.6823(4) 0.0569(6) 0.1857(3)
C6_2 C 0.8711(5) 0.3103(6) 0.3509(3)
C16_2 C 0.6603(5) 0.2291(6) 0.0018(3)
C18_2 C 0.6186(4) 0.1533(6) 0.0264(3)
C20_2 C 0.3729(16) 0.0377(19) 0.1900(9)
H17_2 H 0.4031 0.0805 0.2223
H18_2 H 0.3177 0.0724 0.1688
O19_2 O 0.4409(3) 0.0930(5) 0.0601(2)
O10_2 O 0.8513(3) 0.4201(5) 0.9455(2)
O12_2 O 0.5461(3) 0.1122(4) 0.99755(19)
C13_2 C 0.7650(5) 0.3412(6) 0.9844(3)
C14_2 C 0.6877(6) 0.3332(9) 0.9411(4)
H13_2 H 0.6760 0.3670 0.9085
C15_2 C 0.6278(6) 0.2690(9) 0.9507(4)
H14_2 H 0.5719 0.2550 0.9253
C17_2 C 0.8453(4) 0.3991(6) 0.9886(3)
Nd3_2 Nd 0.43362(2) 0.02740(3) 0.918985(13)
Nd7_2 Nd 0.95643(2) 0.50092(3) 0.917180(14)
Nd1_2 Nd 0.56638(2) 0.97260(3) 0.081015(13)
S2_2 S 0.78916(11) 0.79009(16) 0.02757(7)
O2_2 O 0.7004(3) 0.9716(4) 0.1665(2)
O5_2 O 0.6419(3) 0.9112(4) 0.02792(19)
O8_2 O 0.9509(4) 0.6651(5) 0.0653(2)
O13_2 O 0.4981(4) 0.9024(5) 0.1377(2)
O14_2 O 0.6009(4) 0.7764(4) 0.0988(2)
O15_2 O 0.9885(4) 0.4970(5) 0.1519(2)
N2_2 N 0.410(2) 0.8747(19) 0.1777(13)
H2_2 H 0.4104 0.8039 0.1765
N3_2 N 0.5777(6) 0.6535(7) 0.0311(3)
H3_2 H 0.5266 0.6754 0.0101
N4_2 N 0.6936(6) 0.6373(7) 0.1033(4)
H4_2 H 0.7307 0.6503 0.1355
N5_2 N 0.9391(6) 0.3297(8) 0.1667(4)
H5_2 H 0.9679 0.2882 0.1547
N6_2 N 0.8956(7) 0.4773(9) 0.1917(4)
H6_2 H 0.8895 0.5465 0.1958
H9_2 H 0.8397 0.9839 0.2643
C12_2 C 0.9122(4) 0.6609(6) 0.0150(3)
C19_2 C 0.3620(17) 0.932(2) 0.2018(10)
H15_2 H 0.3014 0.9106 0.1859
H16_2 H 0.3859 0.9196 0.2402
C21_2 C 0.4524(9) 0.9296(12) 0.1586(5)
C22_2 C 0.6232(9) 0.5661(9) 0.0175(5)
H20_2 H 0.5883 0.4998 0.0066
C23_2 C 0.7037(10) 0.5490(8) 0.0713(6)
H21_2 H 0.7024 0.4776 0.0867
H22_2 H 0.7571 0.5563 0.0668
C24_2 C 0.6232(6) 0.6961(6) 0.0792(3)
C25_2 C 0.8548(8) 0.3944(12) 0.2090(5)
H23_2 H 0.7926 0.4048 0.1938
H24_2 H 0.8770 0.3931 0.2477
C26_2 C 0.8790(8) 0.2884(12) 0.1877(5)
H25_2 H 0.9066 0.2353 0.2161
H26_2 H 0.8285 0.2549 0.1598
C27_2 C 0.9441(5) 0.4381(9) 0.1683(3)
O23_2 O 0.4539(3) 0.8878(4) 0.00245(19)
O6_2 O 0.5591(3) 0.9070(5) 0.9399(2)
O7_2 O 0.9456(3) 0.6111(4) 0.9880(2)
C7_2 C 0.6944(4) 0.8165(6) 0.9736(3)
C8_2 C 0.6918(5) 0.7653(7) 0.9290(3)
H11_2 H 0.6441 0.7681 0.8961
C9_2 C 0.7679(5) 0.7079(7) 0.9374(3)
H12_2 H 0.7768 0.6705 0.9106
C10_2 C 0.8269(4) 0.7132(6) 0.9889(3)
C11_2 C 0.6261(4) 0.8841(6) 0.9811(3)
H19_2 H 0.6398 0.5887 0.9893
O16_3 O 0.1215(4) 0.3576(6) 0.6497(3)
N7_3 N 0.2690(9) 0.367(9) 0.6773(19)
H7_3 H 0.2750 0.3706 0.6478
N8_3 N 0.2177(11) 0.305(4) 0.7342(8)
H8_3 H 0.1812 0.2846 0.7466
C28_3 C 0.337(7) 0.393(9) 0.7307(19)
H27_3 H 0.3947 0.3771 0.7328
H28_3 H 0.3347 0.4684 0.7410
C29_3 C 0.3105(15) 0.308(3) 0.7654(13)
H29_3 H 0.3254 0.3361 0.8012
H30_3 H 0.3368 0.2367 0.7674
C30_3 C 0.1947(10) 0.338(2) 0.6815(7)
O17_2 O 0.0535(4) 0.7005(5) 0.6127(2)
O18_2 O 0.1717(3) 0.6011(4) 0.6543(2)
S2_3 S 0.78916(11) 0.20991(16) 0.52757(7)
O2_3 O 0.7004(3) 0.0284(4) 0.6665(2)
O5_3 O 0.6419(3) 0.0888(4) 0.52792(19)
O8_3 O 0.9509(4) 0.3349(5) 0.5653(2)
O13_3 O 0.4981(4) 0.0976(5) 0.6377(2)
O14_3 O 0.6009(4) 0.2236(4) 0.5988(2)
O15_3 O 0.9885(4) 0.5030(5) 0.6519(2)
N2_3 N 0.410(2) 0.1253(19) 0.6777(13)
H2_3 H 0.4104 0.1961 0.6765
N3_3 N 0.5777(6) 0.3465(7) 0.5311(3)
H3_3 H 0.5266 0.3246 0.5101
N4_3 N 0.6936(6) 0.3627(7) 0.6033(4)
H4_3 H 0.7307 0.3497 0.6355
N5_3 N 0.9391(6) 0.6703(8) 0.6667(4)
H5_3 H 0.9679 0.7118 0.6547
N6_3 N 0.8956(7) 0.5227(9) 0.6917(4)
H6_3 H 0.8895 0.4535 0.6958
H9_3 H 0.8397 0.0161 0.7643
C7_3 C 0.6944(4) 0.1835(6) 0.4736(3)
C8_3 C 0.6918(5) 0.2347(7) 0.4290(3)
H11_3 H 0.6441 0.2319 0.3961
C9_3 C 0.7679(5) 0.2921(7) 0.4374(3)
H12_3 H 0.7768 0.3295 0.4106
C10_3 C 0.8269(4) 0.2868(6) 0.4889(3)
C11_3 C 0.6261(4) 0.1159(6) 0.4811(3)
C12_3 C 0.9122(4) 0.3391(6) 0.5150(3)
C19_3 C 0.3620(17) 0.068(2) 0.7018(10)
H15_3 H 0.3014 0.0894 0.6859
H16_3 H 0.3859 0.0804 0.7402
C21_3 C 0.4524(9) 0.0704(12) 0.6586(5)
C22_3 C 0.6232(9) 0.4339(9) 0.5175(5)
H19_3 H 0.6398 0.4113 0.4893
H20_3 H 0.5883 0.5002 0.5066
C23_3 C 0.7037(10) 0.4510(8) 0.5713(6)
H21_3 H 0.7024 0.5224 0.5867
H22_3 H 0.7571 0.4437 0.5668
C24_3 C 0.6232(6) 0.3039(6) 0.5792(3)
C25_3 C 0.8548(8) 0.6056(12) 0.7090(5)
H23_3 H 0.7926 0.5952 0.6938
H24_3 H 0.8770 0.6069 0.7477
C26_3 C 0.8790(8) 0.7116(12) 0.6877(5)
H25_3 H 0.9066 0.7647 0.7161
H26_3 H 0.8285 0.7451 0.6598
C27_3 C 0.9441(5) 0.5619(9) 0.6683(3)
O21 O 0.9000(3) 0.5797(4) 0.5349(2)
S1_3 S 0.73639(12) 0.76983(15) 0.75852(7)
S3_3 S 0.76324(11) 0.72473(16) 0.53826(7)
O1_3 O 0.6109(3) 0.8952(4) 0.6628(2)
O3_2 O 0.9465(4) 0.7005(5) 0.8873(2)
O4_2 O 0.8283(3) 0.6011(4) 0.8457(2)
O11_3 O 0.6581(3) 0.8696(4) 0.5748(2)
N1_3 N 0.4239(17) 0.973(2) 0.6601(10)
H1_3 H 0.4347 0.9185 0.6442
C1_3 C 0.7488(5) 0.8972(6) 0.7367(3)
C2_3 C 0.8228(6) 0.9461(7) 0.7699(3)
C3_3 C 0.8717(6) 0.8791(7) 0.8140(3)
H10_3 H 0.9245 0.9003 0.8410
C4_3 C 0.8340(5) 0.7812(6) 0.8130(3)
C5_3 C 0.6823(4) 0.9431(6) 0.6857(3)
C6_3 C 0.8711(5) 0.6897(6) 0.8509(3)
C13_3 C 0.7650(5) 0.6588(6) 0.4844(3)
C14_3 C 0.6877(6) 0.6668(9) 0.4411(4)
H13_3 H 0.6760 0.6330 0.4085
C15_3 C 0.6278(6) 0.7310(9) 0.4507(4)
H14_3 H 0.5719 0.7450 0.4253
C16_3 C 0.6603(5) 0.7709(6) 0.5018(3)
C17_3 C 0.8453(4) 0.6009(6) 0.4886(3)
C18_3 C 0.6186(4) 0.8467(6) 0.5264(3)
C20_3 C 0.3729(16) 0.9623(19) 0.6900(9)
H17_3 H 0.4031 0.9195 0.7223
H18_3 H 0.3177 0.9276 0.6688
C7_4 C 0.3056(4) 0.1835(6) 0.0264(3)
C8_4 C 0.3082(5) 0.2347(7) 0.0710(3)
H11_4 H 0.3559 0.2319 0.1039
C9_4 C 0.2321(5) 0.2921(7) 0.0626(3)
H12_4 H 0.2232 0.3295 0.0894
C10_4 C 0.1731(4) 0.2868(6) 0.0111(3)
C11_4 C 0.3739(4) 0.1159(6) 0.0189(3)
H19_4 H 0.3602 0.4113 0.0107
S2_4 S 0.21084(11) 0.20991(16) 0.97243(7)
O2_4 O 0.2996(3) 0.0284(4) 0.8335(2)
O5_4 O 0.3581(3) 0.0888(4) 0.97208(19)
O8_4 O 0.0491(4) 0.3349(5) 0.9347(2)
O13_4 O 0.5019(4) 0.0976(5) 0.8623(2)
O14_4 O 0.3991(4) 0.2236(4) 0.9012(2)
O15_4 O 0.0115(4) 0.5030(5) 0.8481(2)
N2_4 N 0.590(2) 0.1253(19) 0.8223(13)
H2_4 H 0.5896 0.1961 0.8235
N3_4 N 0.4223(6) 0.3465(7) 0.9689(3)
H3_4 H 0.4734 0.3246 0.9899
N4_4 N 0.3064(6) 0.3627(7) 0.8967(4)
H4_4 H 0.2693 0.3497 0.8645
N5_4 N 0.0609(6) 0.6703(8) 0.8333(4)
H5_4 H 0.0321 0.7118 0.8453
N6_4 N 0.1044(7) 0.5227(9) 0.8083(4)
H6_4 H 0.1105 0.4535 0.8042
H9_4 H 0.1603 0.0161 0.7357
C12_4 C 0.0878(4) 0.3391(6) 0.9850(3)
C19_4 C 0.6380(17) 0.068(2) 0.7982(10)
H15_4 H 0.6986 0.0894 0.8141
H16_4 H 0.6141 0.0804 0.7598
C21_4 C 0.5476(9) 0.0704(12) 0.8414(5)
C22_4 C 0.3768(9) 0.4339(9) 0.9825(5)
H20_4 H 0.4117 0.5002 0.9934
C23_4 C 0.2963(10) 0.4510(8) 0.9287(6)
H21_4 H 0.2976 0.5224 0.9133
H22_4 H 0.2429 0.4437 0.9332
C24_4 C 0.3768(6) 0.3039(6) 0.9208(3)
C25_4 C 0.1452(8) 0.6056(12) 0.7910(5)
H23_4 H 0.2074 0.5952 0.8062
H24_4 H 0.1230 0.6069 0.7523
C26_4 C 0.1210(8) 0.7116(12) 0.8123(5)
H25_4 H 0.0934 0.7647 0.7839
H26_4 H 0.1715 0.7451 0.8402
C27_4 C 0.0559(5) 0.5619(9) 0.8317(3)
O21_2 O 0.1000(3) 0.5797(4) 0.9651(2)
C13_4 C 0.2350(5) 0.6588(6) 0.0156(3)
C14_4 C 0.3123(6) 0.6668(9) 0.0589(4)
H13_4 H 0.3240 0.6330 0.0915
C15_4 C 0.3722(6) 0.7310(9) 0.0493(4)
H14_4 H 0.4281 0.7450 0.0747
C17_4 C 0.1547(4) 0.6009(6) 0.0114(3)
S1_4 S 0.26361(12) 0.76983(15) 0.74148(7)
S3_4 S 0.23676(11) 0.72473(16) 0.96174(7)
O1_4 O 0.3891(3) 0.8952(4) 0.8372(2)
O11_4 O 0.3419(3) 0.8696(4) 0.9252(2)
N1_4 N 0.5761(17) 0.973(2) 0.8399(10)
H1_4 H 0.5653 0.9185 0.8558
C1_4 C 0.2512(5) 0.8972(6) 0.7633(3)
C2_4 C 0.1772(6) 0.9461(7) 0.7301(3)
C3_4 C 0.1283(6) 0.8791(7) 0.6860(3)
H10_4 H 0.0755 0.9003 0.6590
C4_4 C 0.1660(5) 0.7812(6) 0.6870(3)
C5_4 C 0.3177(4) 0.9431(6) 0.8143(3)
C6_4 C 0.1289(5) 0.6897(6) 0.6491(3)
C16_4 C 0.3397(5) 0.7709(6) 0.9982(3)
C18_4 C 0.3814(4) 0.8467(6) 0.9736(3)
C20_4 C 0.6271(16) 0.9623(19) 0.8100(9)
H17_4 H 0.5969 0.9195 0.7777
H18_4 H 0.6823 0.9276 0.8312
O16_4 O 0.8785(4) 0.3576(6) 0.8503(3)
N7_4 N 0.7310(9) 0.367(9) 0.8227(19)
H7_4 H 0.7250 0.3706 0.8522
N8_4 N 0.7823(11) 0.305(4) 0.7658(8)
H8_4 H 0.8188 0.2846 0.7534
C28_4 C 0.663(7) 0.393(9) 0.7693(19)
H27_4 H 0.6053 0.3771 0.7672
H28_4 H 0.6653 0.4684 0.7590
C29_4 C 0.6895(15) 0.308(3) 0.7346(13)
H29_4 H 0.6746 0.3361 0.6988
H30_4 H 0.6632 0.2367 0.7326
C30_4 C 0.8053(10) 0.338(2) 0.8185(7)
loop_
_geom_bond_atom_site_label_1
_geom_bond_atom_site_label_2
_geom_bond_site_symmetry_1
_geom_bond_site_symmetry_2
S1 C1 1_555 1_555
S3 C13 1_555 1_555
O1 C5 1_555 1_555
O3 C6 1_555 1_555
O4 C6 1_555 1_555
O9 C17 1_555 1_555
O10 C17 1_555 1_555
N1 H1 1_555 1_555
C1 C2 1_555 1_555
C3 C2 1_555 1_555
H10 C3 1_555 1_555
C4 S1 1_555 1_555
C6 C4 1_555 1_555
C13 C14 1_555 1_555
C14 H13 1_555 1_555
C15 C14 1_555 1_555
H14 C15 1_555 1_555
C16 S3 1_555 1_555
C17 C13 1_555 1_555
C18 O11 1_555 1_555
C20 N1 1_555 1_555
H17 C20 1_555 1_555
H18 C20 1_555 1_555
Nd5 O3 1_555 1_555
Nd7 O10 1_555 1_555
O4 Nd5 1_555 1_555
O12 C18 1_555 1_555
O12 Nd3 1_555 1_555
C1 C5 1_555 1_555
C3 C4 1_555 1_555
C15 C16 1_555 1_555
C16 C18 1_555 1_555
S2 C7 1_555 1_555
O2 Nd1 1_555 1_555
O5 Nd1 1_555 1_555
O6 C11 1_555 1_555
O7 C12 1_555 1_555
O13 Nd1 1_555 1_555
O14 Nd1 1_555 1_555
N2 H2 1_555 1_555
N3 H3 1_555 1_555
N4 H4 1_555 1_555
N5 H5 1_555 1_555
N6 H6 1_555 1_555
C7 C8 1_555 1_555
C8 H11 1_555 1_555
C9 C8 1_555 1_555
H12 C9 1_555 1_555
C10 S2 1_555 1_555
C11 O5 1_555 1_555
C12 O8 1_555 1_555
C19 N2 1_555 1_555
H15 C19 1_555 1_555
H16 C19 1_555 1_555
C21 O13 1_555 1_555
C22 N3 1_555 1_555
H19 C22 1_555 1_555
H20 C22 1_555 1_555
C23 N4 1_555 1_555
H21 C23 1_555 1_555
H22 C23 1_555 1_555
C24 O14 1_555 1_555
C25 N6 1_555 1_555
H23 C25 1_555 1_555
H24 C25 1_555 1_555
C26 N5 1_555 1_555
H25 C26 1_555 1_555
H26 C26 1_555 1_555
C27 O15 1_555 1_555
Nd7 O7 1_555 1_555
O23 Nd1 1_555 1_555
N2 C21 1_555 1_555
N3 C24 1_555 1_555
N4 C24 1_555 1_555
N5 C27 1_555 1_555
N6 C27 1_555 1_555
C7 C11 1_555 1_555
C9 C10 1_555 1_555
C10 C12 1_555 1_555
C22 C23 1_555 1_555
C25 C26 1_555 1_555
O16 Nd6 1_555 1_555
N7 H7 1_555 1_555
N8 H8 1_555 1_555
C28 N7 1_555 1_555
H27 C28 1_555 1_555
H28 C28 1_555 1_555
C29 N8 1_555 1_555
H29 C29 1_555 1_555
H30 C29 1_555 1_555
C30 O16 1_555 1_555
O17 Nd6 1_555 1_555
O18 Nd6 1_555 1_555
O20 Nd6 1_555 1_555
O22 Nd6 1_555 1_555
N7 C30 1_555 1_555
N8 C30 1_555 1_555
C28 C29 1_555 1_555
O16_2 Nd5 1_555 1_555
N7_2 H7_2 1_555 1_555
N8_2 H8_2 1_555 1_555
C28_2 N7_2 1_555 1_555
H27_2 C28_2 1_555 1_555
H28_2 C28_2 1_555 1_555
C29_2 N8_2 1_555 1_555
H29_2 C29_2 1_555 1_555
H30_2 C29_2 1_555 1_555
C30_2 O16_2 1_555 1_555
O20_2 Nd5 1_555 1_555
O22_2 Nd5 1_555 1_555
N7_2 C30_2 1_555 1_555
N8_2 C30_2 1_555 1_555
C28_2 C29_2 1_555 1_555
S1_2 C1_2 1_555 1_555
O1_2 C5_2 1_555 1_555
O17 C6_2 1_555 1_555
O18 C6_2 1_555 1_555
N1_2 H1_2 1_555 1_555
C1_2 C2_2 1_555 1_555
C3_2 C2_2 1_555 1_555
H10_2 C3_2 1_555 1_555
C4_2 S1_2 1_555 1_555
C6_2 C4_2 1_555 1_555
C16_2 S3_2 1_555 1_555
C18_2 O11_2 1_555 1_555
C20_2 N1_2 1_555 1_555
H17_2 C20_2 1_555 1_555
H18_2 C20_2 1_555 1_555
C1_2 C5_2 1_555 1_555
C3_2 C4_2 1_555 1_555
C16_2 C18_2 1_555 1_555
O10_2 C17_2 1_555 1_555
C13_2 C14_2 1_555 1_555
C14_2 H13_2 1_555 1_555
C15_2 C14_2 1_555 1_555
H14_2 C15_2 1_555 1_555
C17_2 C13_2 1_555 1_555
Nd7_2 O10_2 1_555 1_555
O12_2 Nd3_2 1_555 1_555
O2_2 Nd1_2 1_555 1_555
O5_2 Nd1_2 1_555 1_555
O13_2 Nd1_2 1_555 1_555
O14_2 Nd1_2 1_555 1_555
N2_2 H2_2 1_555 1_555
N3_2 H3_2 1_555 1_555
N4_2 H4_2 1_555 1_555
N5_2 H5_2 1_555 1_555
N6_2 H6_2 1_555 1_555
C12_2 O8_2 1_555 1_555
C19_2 N2_2 1_555 1_555
H15_2 C19_2 1_555 1_555
H16_2 C19_2 1_555 1_555
C21_2 O13_2 1_555 1_555
C22_2 N3_2 1_555 1_555
H20_2 C22_2 1_555 1_555
C23_2 N4_2 1_555 1_555
H21_2 C23_2 1_555 1_555
H22_2 C23_2 1_555 1_555
C24_2 O14_2 1_555 1_555
C25_2 N6_2 1_555 1_555
H23_2 C25_2 1_555 1_555
H24_2 C25_2 1_555 1_555
C26_2 N5_2 1_555 1_555
H25_2 C26_2 1_555 1_555
H26_2 C26_2 1_555 1_555
C27_2 O15_2 1_555 1_555
O23_2 Nd1_2 1_555 1_555
N2_2 C21_2 1_555 1_555
N3_2 C24_2 1_555 1_555
N4_2 C24_2 1_555 1_555
N5_2 C27_2 1_555 1_555
N6_2 C27_2 1_555 1_555
C22_2 C23_2 1_555 1_555
C25_2 C26_2 1_555 1_555
O6_2 C11_2 1_555 1_555
C7_2 C8_2 1_555 1_555
C8_2 H11_2 1_555 1_555
C9_2 C8_2 1_555 1_555
H12_2 C9_2 1_555 1_555
Nd7_2 O7_2 1_555 1_555
C7_2 C11_2 1_555 1_555
C9_2 C10_2 1_555 1_555
O16_3 Nd7 1_555 1_555
N7_3 H7_3 1_555 1_555
N8_3 H8_3 1_555 1_555
C28_3 N7_3 1_555 1_555
H27_3 C28_3 1_555 1_555
H28_3 C28_3 1_555 1_555
C29_3 N8_3 1_555 1_555
H29_3 C29_3 1_555 1_555
H30_3 C29_3 1_555 1_555
C30_3 O16_3 1_555 1_555
O17_2 Nd7 1_555 1_555
O18_2 Nd7 1_555 1_555
N7_3 C30_3 1_555 1_555
N8_3 C30_3 1_555 1_555
C28_3 C29_3 1_555 1_555
S2_3 C7_3 1_555 1_555
O2_3 Nd3 1_555 1_555
O5_3 Nd3 1_555 1_555
O19 C11_3 1_555 1_555
O20 C12_3 1_555 1_555
O13_3 Nd3 1_555 1_555
O14_3 Nd3 1_555 1_555
N2_3 H2_3 1_555 1_555
N3_3 H3_3 1_555 1_555
N4_3 H4_3 1_555 1_555
N5_3 H5_3 1_555 1_555
N6_3 H6_3 1_555 1_555
C7_3 C8_3 1_555 1_555
C8_3 H11_3 1_555 1_555
C9_3 C8_3 1_555 1_555
H12_3 C9_3 1_555 1_555
C10_3 S2_3 1_555 1_555
C11_3 O5_3 1_555 1_555
C12_3 O8_3 1_555 1_555
C19_3 N2_3 1_555 1_555
H15_3 C19_3 1_555 1_555
H16_3 C19_3 1_555 1_555
C21_3 O13_3 1_555 1_555
C22_3 N3_3 1_555 1_555
H19_3 C22_3 1_555 1_555
H20_3 C22_3 1_555 1_555
C23_3 N4_3 1_555 1_555
H21_3 C23_3 1_555 1_555
H22_3 C23_3 1_555 1_555
C24_3 O14_3 1_555 1_555
C25_3 N6_3 1_555 1_555
H23_3 C25_3 1_555 1_555
H24_3 C25_3 1_555 1_555
C26_3 N5_3 1_555 1_555
H25_3 C26_3 1_555 1_555
H26_3 C26_3 1_555 1_555
C27_3 O15_3 1_555 1_555
N2_3 C21_3 1_555 1_555
N3_3 C24_3 1_555 1_555
N4_3 C24_3 1_555 1_555
N5_3 C27_3 1_555 1_555
N6_3 C27_3 1_555 1_555
C7_3 C11_3 1_555 1_555
C9_3 C10_3 1_555 1_555
C10_3 C12_3 1_555 1_555
C22_3 C23_3 1_555 1_555
C25_3 C26_3 1_555 1_555
S1_3 C1_3 1_555 1_555
S3_3 C13_3 1_555 1_555
O1_3 C5_3 1_555 1_555
O3_2 C6_3 1_555 1_555
O4_2 C6_3 1_555 1_555
O21 C17_3 1_555 1_555
O22 C17_3 1_555 1_555
N1_3 H1_3 1_555 1_555
C1_3 C2_3 1_555 1_555
C3_3 C2_3 1_555 1_555
H10_3 C3_3 1_555 1_555
C4_3 S1_3 1_555 1_555
C6_3 C4_3 1_555 1_555
C13_3 C14_3 1_555 1_555
C14_3 H13_3 1_555 1_555
C15_3 C14_3 1_555 1_555
H14_3 C15_3 1_555 1_555
C16_3 S3_3 1_555 1_555
C17_3 C13_3 1_555 1_555
C18_3 O11_3 1_555 1_555
C20_3 N1_3 1_555 1_555
H17_3 C20_3 1_555 1_555
H18_3 C20_3 1_555 1_555
Nd7_2 O3_2 1_555 1_555
O4_2 Nd7_2 1_555 1_555
O23 C18_3 1_555 1_555
C1_3 C5_3 1_555 1_555
C3_3 C4_3 1_555 1_555
C15_3 C16_3 1_555 1_555
C16_3 C18_3 1_555 1_555
O19_2 C11_4 1_555 1_555
C7_4 C8_4 1_555 1_555
C8_4 H11_4 1_555 1_555
C9_4 C8_4 1_555 1_555
H12_4 C9_4 1_555 1_555
C7_4 C11_4 1_555 1_555
C9_4 C10_4 1_555 1_555
O2_4 Nd3_2 1_555 1_555
O5_4 Nd3_2 1_555 1_555
O13_4 Nd3_2 1_555 1_555
O14_4 Nd3_2 1_555 1_555
N2_4 H2_4 1_555 1_555
N3_4 H3_4 1_555 1_555
N4_4 H4_4 1_555 1_555
N5_4 H5_4 1_555 1_555
N6_4 H6_4 1_555 1_555
C12_4 O8_4 1_555 1_555
C19_4 N2_4 1_555 1_555
H15_4 C19_4 1_555 1_555
H16_4 C19_4 1_555 1_555
C21_4 O13_4 1_555 1_555
C22_4 N3_4 1_555 1_555
H20_4 C22_4 1_555 1_555
C23_4 N4_4 1_555 1_555
H21_4 C23_4 1_555 1_555
H22_4 C23_4 1_555 1_555
C24_4 O14_4 1_555 1_555
C25_4 N6_4 1_555 1_555
H23_4 C25_4 1_555 1_555
H24_4 C25_4 1_555 1_555
C26_4 N5_4 1_555 1_555
H25_4 C26_4 1_555 1_555
H26_4 C26_4 1_555 1_555
C27_4 O15_4 1_555 1_555
N2_4 C21_4 1_555 1_555
N3_4 C24_4 1_555 1_555
N4_4 C24_4 1_555 1_555
N5_4 C27_4 1_555 1_555
N6_4 C27_4 1_555 1_555
C22_4 C23_4 1_555 1_555
C25_4 C26_4 1_555 1_555
O22_2 C17_4 1_555 1_555
C13_4 C14_4 1_555 1_555
C14_4 H13_4 1_555 1_555
C15_4 C14_4 1_555 1_555
H14_4 C15_4 1_555 1_555
C17_4 C13_4 1_555 1_555
S1_4 C1_4 1_555 1_555
O1_4 C5_4 1_555 1_555
O17_2 C6_4 1_555 1_555
O18_2 C6_4 1_555 1_555
N1_4 H1_4 1_555 1_555
C1_4 C2_4 1_555 1_555
C3_4 C2_4 1_555 1_555
H10_4 C3_4 1_555 1_555
C4_4 S1_4 1_555 1_555
C6_4 C4_4 1_555 1_555
C16_4 S3_4 1_555 1_555
C18_4 O11_4 1_555 1_555
C20_4 N1_4 1_555 1_555
H17_4 C20_4 1_555 1_555
H18_4 C20_4 1_555 1_555
C1_4 C5_4 1_555 1_555
C3_4 C4_4 1_555 1_555
C16_4 C18_4 1_555 1_555
O16_4 Nd7_2 1_555 1_555
N7_4 H7_4 1_555 1_555
N8_4 H8_4 1_555 1_555
C28_4 N7_4 1_555 1_555
H27_4 C28_4 1_555 1_555
H28_4 C28_4 1_555 1_555
C29_4 N8_4 1_555 1_555
H29_4 C29_4 1_555 1_555
H30_4 C29_4 1_555 1_555
C30_4 O16_4 1_555 1_555
N7_4 C30_4 1_555 1_555
N8_4 C30_4 1_555 1_555
C28_4 C29_4 1_555 1_555

#END
