
###############################################################################
#
# This file contains modified crystal structure data generated from the
# MOF subset of the Cambridge Structural Database (CSD) v543 
# hosted by the Cambridge Crystallographic Data Centre (CCDC).
#
# This work is licensed under the Creative Commons
# Attribution-NonCommercial-ShareAlike 4.0 International License.
# To view a copy of this license, visit
# http://creativecommons.org/licenses/by-nc-sa/4.0/
# or send a letter to
# Creative Commons, PO Box 1866, Mountain View, CA 94042, USA.
#
# CIF created using the CSD Python API on 29 September 2022
# The structure has been converted into the P1 space group
# The structure has a 3D framework
# The original CSD entry HAWWIN is in the monoclinic crystal system
# The framework has been calculated to contain at least 10.0% void space
# The void calculation uses a probe of radius 1.32A, grid spacing 0.4
#
###############################################################################

data_HAWWIN
_chemical_formula_moiety         '(C120 H120 N32 Nd8 O58 S12)n'
_symmetry_cell_setting           triclinic
_symmetry_space_group_name_H-M   'P 1'
_symmetry_Int_Tables_number      1
_space_group_name_Hall           'P 1'
loop_
_symmetry_equiv_pos_site_id
_symmetry_equiv_pos_as_xyz
1 x,y,z
_cell_length_a                   17.3413(5)
_cell_length_b                   11.6871(3)
_cell_length_c                   27.8924(10)
_cell_angle_alpha                90
_cell_angle_beta                 115.104(3)
_cell_angle_gamma                90
_cell_volume                     5118.96
loop_
_atom_site_label
_atom_site_type_symbol
_atom_site_fract_x
_atom_site_fract_y
_atom_site_fract_z
Nd2 Nd 0.541306(17) 0.50794(2) 0.580594(10)
S1 S 0.28362(9) 0.21398(13) 0.52769(5)
O1 O 0.0571(2) 0.0951(3) 0.43932(14)
O2 O 0.1390(2) 0.0904(3) 0.52675(14)
O3 O 0.4368(3) 0.3513(4) 0.56656(15)
O4 O 0.4452(2) 0.3876(3) 0.49187(14)
O15 O 0.4889(3) 0.5314(4) 0.64817(17)
O16 O 0.6060(3) 0.3570(4) 0.64581(16)
N1 N 0.0551(10) 0.0283(10) 0.3311(6)
H1 H 0.0266 0.0852 0.3348
N5 N 0.7473(4) 0.3459(10) 0.6678(3)
H5 H 0.7462 0.3315 0.6373
N6 N 0.7043(4) 0.3356(11) 0.7296(2)
H6 H 0.6698 0.3333 0.7445
N7 N 0.3992(5) 0.5654(7) 0.6866(3)
H7 H 0.3924 0.4947 0.6925
N8 N 0.4401(4) 0.7105(5) 0.6571(2)
H8 H 0.4659 0.7497 0.6423
C1 C 0.1911(3) 0.1836(5) 0.4731(2)
C2 C 0.1911(4) 0.2309(5) 0.4286(2)
H9 H 0.1458 0.2243 0.3953
C3 C 0.2669(3) 0.2910(5) 0.4381(2)
H10 H 0.2772 0.3278 0.4118
C4 C 0.3229(3) 0.2891(5) 0.4899(2)
C5 C 0.1236(3) 0.1174(5) 0.4804(2)
C6 C 0.4072(3) 0.3449(5) 0.5176(2)
C20 C 0.1159(10) 0.0407(14) 0.3089(6)
H17 H 0.1664 0.0812 0.3329
H18 H 0.0914 0.0804 0.2752
C25 C 0.7958(6) 0.326(2) 0.7585(4)
H23 H 0.8136 0.2474 0.7680
H24 H 0.8174 0.3732 0.7901
C26 C 0.8229(6) 0.372(2) 0.7157(4)
H25 H 0.8341 0.4539 0.7195
H26 H 0.8727 0.3326 0.7166
C27 C 0.6795(5) 0.3479(8) 0.6791(3)
C28 C 0.3604(6) 0.6566(8) 0.7011(4)
H27 H 0.3821 0.6625 0.7393
H28 H 0.2991 0.6473 0.6860
C29 C 0.3851(5) 0.7601(7) 0.6781(3)
H29 H 0.3357 0.7956 0.6505
H30 H 0.4150 0.8163 0.7052
C30 C 0.4469(4) 0.5985(6) 0.6629(2)
Nd3 Nd 0.067746(16) 0.02827(2) 0.580973(10)
Nd4 Nd 0.458694(17) 0.49206(2) 0.419406(10)
O18 O 0.5548(2) 0.6124(3) 0.50813(14)
O19 O 0.6724(2) 0.6035(4) 0.65265(14)
O20 O 0.5634(3) 0.7137(4) 0.60703(15)
O22 O 0.4034(2) 0.5981(4) 0.53100(14)
O23 O 0.6513(2) 0.4188(4) 0.55717(14)
N2 N 0.0799(14) 0.8613(12) 0.3228(9)
H2 H 0.0711 0.7887 0.3204
C19 C 0.1348(12) 0.9206(18) 0.3025(9)
H15 H 0.1944 0.9028 0.3233
H16 H 0.1193 0.9019 0.2657
C21 C 0.0468(6) 0.9302(10) 0.3445(3)
O21 O 0.0423(2) 0.8802(3) 0.49655(14)
S2 S 0.73608(8) 0.26632(13) 0.46525(5)
S3 S 0.76506(9) 0.22462(12) 0.23949(5)
O6 O 0.8867(2) 0.0989(3) 0.33664(14)
O7 O 0.6724(2) 0.3965(4) 0.15265(14)
O8 O 0.5634(3) 0.2863(4) 0.10703(15)
O9 O 0.9577(2) 0.1198(3) 0.50345(14)
O10 O 0.8465(2) 0.1370(4) 0.42681(14)
O11 O 0.5966(2) 0.4019(4) 0.46900(14)
C7 C 0.7522(4) 0.0944(5) 0.2637(2)
C8 C 0.6777(4) 0.0433(6) 0.2303(2)
C9 C 0.6306(4) 0.1102(6) 0.1853(2)
H12 H 0.5786 0.0878 0.1587
C10 C 0.6690(3) 0.2102(5) 0.1851(2)
C11 C 0.8151(3) 0.0504(5) 0.31509(19)
C12 C 0.6343(4) 0.3040(5) 0.1462(2)
C13 C 0.8409(3) 0.2310(4) 0.49975(19)
C14 C 0.8733(3) 0.2747(5) 0.5494(2)
H13 H 0.9296 0.2650 0.5738
C15 C 0.8129(3) 0.3358(5) 0.5600(2)
H14 H 0.8251 0.3717 0.5922
C16 C 0.7351(3) 0.3375(5) 0.5188(2)
C17 C 0.8835(3) 0.1595(4) 0.4748(2)
C18 C 0.6547(3) 0.3907(5) 0.5148(2)
Nd5 Nd 0.541306(17) 0.49206(2) 0.080594(10)
Nd1 Nd 0.932254(16) 0.97173(2) 0.419027(10)
O5 O 0.7960(3) 0.9666(3) 0.33551(14)
O13 O 0.9985(4) 0.8951(5) 0.3644(2)
O14 O 0.8951(3) 0.7687(3) 0.40120(16)
N3 N 0.8048(4) 0.6234(5) 0.3983(2)
H3 H 0.7678 0.6340 0.3663
N4 N 0.9205(5) 0.6460(5) 0.4706(2)
H4 H 0.9712 0.6682 0.4911
H11 H 0.6601 0.9719 0.2366
C22 C 0.8734(7) 0.5584(7) 0.4847(4)
H19 H 0.8551 0.5867 0.5109
H20 H 0.9076 0.4901 0.4983
C23 C 0.7970(7) 0.5345(7) 0.4318(4)
H21 H 0.8009 0.4591 0.4184
H22 H 0.7437 0.5407 0.4352
C24 C 0.8744(4) 0.6878(5) 0.4212(2)
O17 O 0.8610(2) 0.9096(3) 0.47325(14)
S2_2 S 0.26392(8) 0.26632(13) 0.03475(5)
S3_2 S 0.23494(9) 0.22462(12) 0.26051(5)
O6_2 O 0.1133(2) 0.0989(3) 0.16336(14)
O7_2 O 0.3276(2) 0.3965(4) 0.34735(14)
O8_2 O 0.4366(3) 0.2863(4) 0.39297(15)
O10_2 O 0.1535(2) 0.1370(4) 0.07319(14)
O11_2 O 0.4034(2) 0.4019(4) 0.03100(14)
C7_2 C 0.2478(4) 0.0944(5) 0.2363(2)
C8_2 C 0.3223(4) 0.0433(6) 0.2697(2)
C9_2 C 0.3694(4) 0.1102(6) 0.3147(2)
H12_2 H 0.4214 0.0878 0.3413
C10_2 C 0.3310(3) 0.2102(5) 0.3149(2)
C11_2 C 0.1849(3) 0.0504(5) 0.18491(19)
C12_2 C 0.3657(4) 0.3040(5) 0.3538(2)
C13_2 C 0.1591(3) 0.2310(4) 0.00025(19)
C17_2 C 0.1165(3) 0.1595(4) 0.0252(2)
O9_2 O 0.0423(2) 0.1198(3) 0.99655(14)
O12 O 0.3487(2) 0.4188(4) 0.94283(14)
C14_2 C 0.1267(3) 0.2747(5) 0.9506(2)
H13_2 H 0.0704 0.2650 0.9262
C15_2 C 0.1871(3) 0.3358(5) 0.9400(2)
H14_2 H 0.1749 0.3717 0.9078
C16_2 C 0.2649(3) 0.3375(5) 0.9812(2)
C18_2 C 0.3453(3) 0.3907(5) 0.9852(2)
Nd7 Nd 0.458694(17) 0.50794(2) 0.919406(10)
Nd1_2 Nd 0.067746(16) 0.97173(2) 0.080973(10)
O5_2 O 0.2040(3) 0.9666(3) 0.16449(14)
O13_2 O 0.0015(4) 0.8951(5) 0.1356(2)
O14_2 O 0.1049(3) 0.7687(3) 0.09880(16)
N3_2 N 0.1952(4) 0.6234(5) 0.1017(2)
H3_2 H 0.2322 0.6340 0.1337
N4_2 N 0.0795(5) 0.6460(5) 0.0294(2)
H4_2 H 0.0288 0.6682 0.0089
H11_2 H 0.3399 0.9719 0.2634
C22_2 C 0.1266(7) 0.5584(7) 0.0153(4)
H20_2 H 0.0924 0.4901 0.0017
C23_2 C 0.2030(7) 0.5345(7) 0.0682(4)
H21_2 H 0.1991 0.4591 0.0816
H22_2 H 0.2563 0.5407 0.0648
C24_2 C 0.1256(4) 0.6878(5) 0.0788(2)
O17_2 O 0.1390(2) 0.9096(3) 0.02675(14)
O1_2 O 0.9429(2) 0.0951(3) 0.06068(14)
O4_2 O 0.5548(2) 0.3876(3) 0.00813(14)
N1_2 N 0.9449(10) 0.0283(10) 0.1689(6)
H1_2 H 0.9734 0.0852 0.1652
C1_2 C 0.8089(3) 0.1836(5) 0.0269(2)
C2_2 C 0.8089(4) 0.2309(5) 0.0714(2)
H9_2 H 0.8542 0.2243 0.1047
C3_2 C 0.7331(3) 0.2910(5) 0.0619(2)
H10_2 H 0.7228 0.3278 0.0882
C4_2 C 0.6771(3) 0.2891(5) 0.0101(2)
C5_2 C 0.8764(3) 0.1174(5) 0.0196(2)
C20_2 C 0.8841(10) 0.0407(14) 0.1911(6)
H17_2 H 0.8336 0.0812 0.1671
H18_2 H 0.9086 0.0804 0.2248
S1_2 S 0.71638(9) 0.21398(13) 0.97231(5)
O2_2 O 0.8610(2) 0.0904(3) 0.97325(14)
O3_2 O 0.5632(3) 0.3513(4) 0.93344(15)
O15_2 O 0.5111(3) 0.5314(4) 0.85183(17)
O16_2 O 0.3940(3) 0.3570(4) 0.85419(16)
N5_2 N 0.2527(4) 0.3459(10) 0.8322(3)
H5_2 H 0.2538 0.3315 0.8627
N6_2 N 0.2957(4) 0.3356(11) 0.7704(2)
H6_2 H 0.3302 0.3333 0.7555
N7_2 N 0.6008(5) 0.5654(7) 0.8134(3)
H7_2 H 0.6076 0.4947 0.8075
N8_2 N 0.5599(4) 0.7105(5) 0.8429(2)
H8_2 H 0.5341 0.7497 0.8577
C6_2 C 0.5928(3) 0.3449(5) 0.9824(2)
C25_2 C 0.2042(6) 0.326(2) 0.7415(4)
H23_2 H 0.1864 0.2474 0.7320
H24_2 H 0.1826 0.3732 0.7099
C26_2 C 0.1771(6) 0.372(2) 0.7843(4)
H25_2 H 0.1659 0.4539 0.7805
H26_2 H 0.1273 0.3326 0.7834
C27_2 C 0.3205(5) 0.3479(8) 0.8209(3)
C28_2 C 0.6396(6) 0.6566(8) 0.7989(4)
H27_2 H 0.6179 0.6625 0.7607
H28_2 H 0.7009 0.6473 0.8140
C29_2 C 0.6149(5) 0.7601(7) 0.8219(3)
H29_2 H 0.6643 0.7956 0.8495
H30_2 H 0.5850 0.8163 0.7948
C30_2 C 0.5531(4) 0.5985(6) 0.8371(2)
Nd3_2 Nd 0.932254(16) 0.02827(2) 0.919027(10)
O18_2 O 0.4452(2) 0.6124(3) 0.99187(14)
O19_2 O 0.3276(2) 0.6035(4) 0.84735(14)
O20_2 O 0.4366(3) 0.7137(4) 0.89297(15)
O22_2 O 0.5966(2) 0.5981(4) 0.96900(14)
N2_2 N 0.9201(14) 0.8613(12) 0.1772(9)
H2_2 H 0.9289 0.7887 0.1796
C19_2 C 0.8652(12) 0.9206(18) 0.1975(9)
H15_2 H 0.8056 0.9028 0.1767
H16_2 H 0.8807 0.9019 0.2343
C21_2 C 0.9532(6) 0.9302(10) 0.1555(3)
O21_2 O 0.9577(2) 0.8802(3) 0.00345(14)
O5_3 O 0.2040(3) 0.0334(3) 0.66449(14)
O13_3 O 0.0015(4) 0.1049(5) 0.6356(2)
O14_3 O 0.1049(3) 0.2313(3) 0.59880(16)
N3_3 N 0.1952(4) 0.3766(5) 0.6017(2)
H3_3 H 0.2322 0.3660 0.6337
N4_3 N 0.0795(5) 0.3540(5) 0.5294(2)
H4_3 H 0.0288 0.3318 0.5089
H11_3 H 0.3399 0.0281 0.7634
C22_3 C 0.1266(7) 0.4416(7) 0.5153(4)
H19_2 H 0.1449 0.4133 0.4891
H20_3 H 0.0924 0.5099 0.5017
C23_3 C 0.2030(7) 0.4655(7) 0.5682(4)
H21_3 H 0.1991 0.5409 0.5816
H22_3 H 0.2563 0.4593 0.5648
C24_3 C 0.1256(4) 0.3122(5) 0.5788(2)
S2_3 S 0.26392(8) 0.73368(13) 0.53475(5)
S3_3 S 0.23494(9) 0.77538(12) 0.76051(5)
O6_3 O 0.1133(2) 0.9011(3) 0.66336(14)
O10_3 O 0.1535(2) 0.8630(4) 0.57319(14)
O12_2 O 0.3487(2) 0.5812(4) 0.44283(14)
C7_3 C 0.2478(4) 0.9056(5) 0.7363(2)
C8_3 C 0.3223(4) 0.9567(6) 0.7697(2)
C9_3 C 0.3694(4) 0.8898(6) 0.8147(2)
H12_3 H 0.4214 0.9122 0.8413
C10_3 C 0.3310(3) 0.7898(5) 0.8149(2)
C11_3 C 0.1849(3) 0.9496(5) 0.68491(19)
C12_3 C 0.3657(4) 0.6960(5) 0.8538(2)
C13_3 C 0.1591(3) 0.7690(4) 0.50025(19)
C14_3 C 0.1267(3) 0.7253(5) 0.4506(2)
H13_3 H 0.0704 0.7350 0.4262
C15_3 C 0.1871(3) 0.6642(5) 0.4400(2)
H14_3 H 0.1749 0.6283 0.4078
C16_3 C 0.2649(3) 0.6625(5) 0.4812(2)
C17_3 C 0.1165(3) 0.8405(4) 0.5252(2)
C18_3 C 0.3453(3) 0.6093(5) 0.4852(2)
N2_3 N 0.9201(14) 0.1387(12) 0.6772(9)
H2_3 H 0.9289 0.2113 0.6796
C19_3 C 0.8652(12) 0.0794(18) 0.6975(9)
H15_3 H 0.8056 0.0972 0.6767
H16_3 H 0.8807 0.0981 0.7343
C21_3 C 0.9532(6) 0.0698(10) 0.6555(3)
S1_3 S 0.71638(9) 0.78602(13) 0.47231(5)
O1_3 O 0.9429(2) 0.9049(3) 0.56068(14)
O3_3 O 0.5632(3) 0.6487(4) 0.43344(15)
O15_3 O 0.5111(3) 0.4686(4) 0.35183(17)
O16_3 O 0.3940(3) 0.6430(4) 0.35419(16)
N1_3 N 0.9449(10) 0.9717(10) 0.6689(6)
H1_3 H 0.9734 0.9148 0.6652
N5_3 N 0.2527(4) 0.6541(10) 0.3322(3)
H5_3 H 0.2538 0.6685 0.3627
N6_3 N 0.2957(4) 0.6644(11) 0.2704(2)
H6_3 H 0.3302 0.6667 0.2555
N7_3 N 0.6008(5) 0.4346(7) 0.3134(3)
H7_3 H 0.6076 0.5053 0.3075
N8_3 N 0.5599(4) 0.2895(5) 0.3429(2)
H8_3 H 0.5341 0.2503 0.3577
C1_3 C 0.8089(3) 0.8164(5) 0.5269(2)
C2_3 C 0.8089(4) 0.7691(5) 0.5714(2)
H9_3 H 0.8542 0.7757 0.6047
C3_3 C 0.7331(3) 0.7090(5) 0.5619(2)
H10_3 H 0.7228 0.6722 0.5882
C4_3 C 0.6771(3) 0.7109(5) 0.5101(2)
C5_3 C 0.8764(3) 0.8826(5) 0.5196(2)
C6_3 C 0.5928(3) 0.6551(5) 0.4824(2)
C20_3 C 0.8841(10) 0.9593(14) 0.6911(6)
H17_3 H 0.8336 0.9188 0.6671
H18_3 H 0.9086 0.9196 0.7248
C25_3 C 0.2042(6) 0.674(2) 0.2415(4)
H23_3 H 0.1864 0.7526 0.2320
H24_3 H 0.1826 0.6268 0.2099
C26_3 C 0.1771(6) 0.628(2) 0.2843(4)
H25_3 H 0.1659 0.5461 0.2805
H26_3 H 0.1273 0.6674 0.2834
C27_3 C 0.3205(5) 0.6521(8) 0.3209(3)
C28_3 C 0.6396(6) 0.3434(8) 0.2989(4)
H27_3 H 0.6179 0.3375 0.2607
H28_3 H 0.7009 0.3527 0.3140
C29_3 C 0.6149(5) 0.2399(7) 0.3219(3)
H29_3 H 0.6643 0.2044 0.3495
H30_3 H 0.5850 0.1837 0.2948
C30_3 C 0.5531(4) 0.4015(6) 0.3371(2)
N2_4 N 0.0799(14) 0.1387(12) 0.8228(9)
H2_4 H 0.0711 0.2113 0.8204
C19_4 C 0.1348(12) 0.0794(18) 0.8025(9)
H15_4 H 0.1944 0.0972 0.8233
H16_4 H 0.1193 0.0981 0.7657
C21_4 C 0.0468(6) 0.0698(10) 0.8445(3)
S1_4 S 0.28362(9) 0.78602(13) 0.02769(5)
O3_4 O 0.4368(3) 0.6487(4) 0.06656(15)
O15_4 O 0.4889(3) 0.4686(4) 0.14817(17)
O16_4 O 0.6060(3) 0.6430(4) 0.14581(16)
N5_4 N 0.7473(4) 0.6541(10) 0.1678(3)
H5_4 H 0.7462 0.6685 0.1373
N6_4 N 0.7043(4) 0.6644(11) 0.2296(2)
H6_4 H 0.6698 0.6667 0.2445
N7_4 N 0.3992(5) 0.4346(7) 0.1866(3)
H7_4 H 0.3924 0.5053 0.1925
N8_4 N 0.4401(4) 0.2895(5) 0.1571(2)
H8_4 H 0.4659 0.2503 0.1423
C6_4 C 0.4072(3) 0.6551(5) 0.0176(2)
C25_4 C 0.7958(6) 0.674(2) 0.2585(4)
H23_4 H 0.8136 0.7526 0.2680
H24_4 H 0.8174 0.6268 0.2901
C26_4 C 0.8229(6) 0.628(2) 0.2157(4)
H25_4 H 0.8341 0.5461 0.2195
H26_4 H 0.8727 0.6674 0.2166
C27_4 C 0.6795(5) 0.6521(8) 0.1791(3)
C28_4 C 0.3604(6) 0.3434(8) 0.2011(4)
H27_4 H 0.3821 0.3375 0.2393
H28_4 H 0.2991 0.3527 0.1860
C29_4 C 0.3851(5) 0.2399(7) 0.1781(3)
H29_4 H 0.3357 0.2044 0.1505
H30_4 H 0.4150 0.1837 0.2052
C30_4 C 0.4469(4) 0.4015(6) 0.1629(2)
O23_2 O 0.6513(2) 0.5812(4) 0.05717(14)
O1_4 O 0.0571(2) 0.9049(3) 0.93932(14)
N1_4 N 0.0551(10) 0.9717(10) 0.8311(6)
H1_4 H 0.0266 0.9148 0.8348
C1_4 C 0.1911(3) 0.8164(5) 0.9731(2)
C2_4 C 0.1911(4) 0.7691(5) 0.9286(2)
H9_4 H 0.1458 0.7757 0.8953
C3_4 C 0.2669(3) 0.7090(5) 0.9381(2)
H10_4 H 0.2772 0.6722 0.9118
C4_4 C 0.3229(3) 0.7109(5) 0.9899(2)
C5_4 C 0.1236(3) 0.8826(5) 0.9804(2)
C20_4 C 0.1159(10) 0.9593(14) 0.8089(6)
H17_4 H 0.1664 0.9188 0.8329
H18_4 H 0.0914 0.9196 0.7752
O5_4 O 0.7960(3) 0.0334(3) 0.83551(14)
O13_4 O 0.9985(4) 0.1049(5) 0.8644(2)
O14_4 O 0.8951(3) 0.2313(3) 0.90120(16)
N3_4 N 0.8048(4) 0.3766(5) 0.8983(2)
H3_4 H 0.7678 0.3660 0.8663
N4_4 N 0.9205(5) 0.3540(5) 0.9706(2)
H4_4 H 0.9712 0.3318 0.9911
H11_4 H 0.6601 0.0281 0.7366
C22_4 C 0.8734(7) 0.4416(7) 0.9847(4)
H20_4 H 0.9076 0.5099 0.9983
C23_4 C 0.7970(7) 0.4655(7) 0.9318(4)
H21_4 H 0.8009 0.5409 0.9184
H22_4 H 0.7437 0.4593 0.9352
C24_4 C 0.8744(4) 0.3122(5) 0.9212(2)
C14_4 C 0.8733(3) 0.7253(5) 0.0494(2)
H13_4 H 0.9296 0.7350 0.0738
C15_4 C 0.8129(3) 0.6642(5) 0.0600(2)
H14_4 H 0.8251 0.6283 0.0922
C16_4 C 0.7351(3) 0.6625(5) 0.0188(2)
C18_4 C 0.6547(3) 0.6093(5) 0.0148(2)
S2_4 S 0.73608(8) 0.73368(13) 0.96525(5)
S3_4 S 0.76506(9) 0.77538(12) 0.73949(5)
O6_4 O 0.8867(2) 0.9011(3) 0.83664(14)
O10_4 O 0.8465(2) 0.8630(4) 0.92681(14)
C7_4 C 0.7522(4) 0.9056(5) 0.7637(2)
C8_4 C 0.6777(4) 0.9567(6) 0.7303(2)
C9_4 C 0.6306(4) 0.8898(6) 0.6853(2)
H12_4 H 0.5786 0.9122 0.6587
C10_4 C 0.6690(3) 0.7898(5) 0.6851(2)
C11_4 C 0.8151(3) 0.9496(5) 0.81509(19)
C12_4 C 0.6343(4) 0.6960(5) 0.6462(2)
C13_4 C 0.8409(3) 0.7690(4) 0.99975(19)
C17_4 C 0.8835(3) 0.8405(4) 0.9748(2)
H19_3 H 0.1449 0.5867 0.9891
H19_4 H 0.8551 0.4133 0.0109
loop_
_geom_bond_atom_site_label_1
_geom_bond_atom_site_label_2
_geom_bond_site_symmetry_1
_geom_bond_site_symmetry_2
Nd2 O3 1_555 1_555
S1 C1 1_555 1_555
O1 C5 1_555 1_555
O2 C5 1_555 1_555
O3 C6 1_555 1_555
O4 Nd2 1_555 1_555
O15 Nd2 1_555 1_555
O16 Nd2 1_555 1_555
N1 H1 1_555 1_555
N5 H5 1_555 1_555
N6 H6 1_555 1_555
N7 H7 1_555 1_555
N8 H8 1_555 1_555
C1 C2 1_555 1_555
C2 H9 1_555 1_555
C3 C2 1_555 1_555
H10 C3 1_555 1_555
C4 S1 1_555 1_555
C5 C1 1_555 1_555
C6 O4 1_555 1_555
C20 N1 1_555 1_555
H17 C20 1_555 1_555
H18 C20 1_555 1_555
C25 N6 1_555 1_555
H23 C25 1_555 1_555
H24 C25 1_555 1_555
C26 N5 1_555 1_555
H25 C26 1_555 1_555
H26 C26 1_555 1_555
C27 O16 1_555 1_555
C28 N7 1_555 1_555
H27 C28 1_555 1_555
H28 C28 1_555 1_555
C29 N8 1_555 1_555
H29 C29 1_555 1_555
H30 C29 1_555 1_555
C30 O15 1_555 1_555
Nd3 O2 1_555 1_555
Nd4 O4 1_555 1_555
O18 Nd2 1_555 1_555
O19 Nd2 1_555 1_555
O20 Nd2 1_555 1_555
O22 Nd2 1_555 1_555
O23 Nd2 1_555 1_555
N5 C27 1_555 1_555
N6 C27 1_555 1_555
N7 C30 1_555 1_555
N8 C30 1_555 1_555
C3 C4 1_555 1_555
C4 C6 1_555 1_555
C25 C26 1_555 1_555
C28 C29 1_555 1_555
Nd4 O18 1_555 1_555
N2 H2 1_555 1_555
C19 N2 1_555 1_555
H15 C19 1_555 1_555
H16 C19 1_555 1_555
N2 C21 1_555 1_555
S2 C13 1_555 1_555
S3 C7 1_555 1_555
O7 C12 1_555 1_555
O8 C12 1_555 1_555
O11 C18 1_555 1_555
O23 C18 1_555 1_555
C7 C8 1_555 1_555
C9 C8 1_555 1_555
H12 C9 1_555 1_555
C10 S3 1_555 1_555
C12 C10 1_555 1_555
C13 C14 1_555 1_555
C14 H13 1_555 1_555
C15 C14 1_555 1_555
H14 C15 1_555 1_555
C16 S2 1_555 1_555
C17 O9 1_555 1_555
C18 C16 1_555 1_555
Nd5 O7 1_555 1_555
Nd4 O11 1_555 1_555
O6 C11 1_555 1_555
O8 Nd5 1_555 1_555
O10 C17 1_555 1_555
C7 C11 1_555 1_555
C9 C10 1_555 1_555
C13 C17 1_555 1_555
C15 C16 1_555 1_555
O5 Nd1 1_555 1_555
O13 Nd1 1_555 1_555
O14 Nd1 1_555 1_555
N3 H3 1_555 1_555
N4 H4 1_555 1_555
C22 N4 1_555 1_555
H19 C22 1_555 1_555
H20 C22 1_555 1_555
C23 N3 1_555 1_555
H21 C23 1_555 1_555
H22 C23 1_555 1_555
C24 O14 1_555 1_555
O17 Nd1 1_555 1_555
N3 C24 1_555 1_555
N4 C24 1_555 1_555
C22 C23 1_555 1_555
S2_2 C13_2 1_555 1_555
S3_2 C7_2 1_555 1_555
O7_2 C12_2 1_555 1_555
O8_2 C12_2 1_555 1_555
C7_2 C8_2 1_555 1_555
C9_2 C8_2 1_555 1_555
H12_2 C9_2 1_555 1_555
C10_2 S3_2 1_555 1_555
C12_2 C10_2 1_555 1_555
Nd4 O7_2 1_555 1_555
Nd5 O11_2 1_555 1_555
O6_2 C11_2 1_555 1_555
O8_2 Nd4 1_555 1_555
O10_2 C17_2 1_555 1_555
C7_2 C11_2 1_555 1_555
C9_2 C10_2 1_555 1_555
C13_2 C17_2 1_555 1_555
O12 C18_2 1_555 1_555
C14_2 H13_2 1_555 1_555
C15_2 C14_2 1_555 1_555
H14_2 C15_2 1_555 1_555
C18_2 C16_2 1_555 1_555
Nd7 O12 1_555 1_555
C15_2 C16_2 1_555 1_555
O5_2 Nd1_2 1_555 1_555
O13_2 Nd1_2 1_555 1_555
O14_2 Nd1_2 1_555 1_555
N3_2 H3_2 1_555 1_555
N4_2 H4_2 1_555 1_555
C22_2 N4_2 1_555 1_555
H20_2 C22_2 1_555 1_555
C23_2 N3_2 1_555 1_555
H21_2 C23_2 1_555 1_555
H22_2 C23_2 1_555 1_555
C24_2 O14_2 1_555 1_555
O17_2 Nd1_2 1_555 1_555
N3_2 C24_2 1_555 1_555
N4_2 C24_2 1_555 1_555
C22_2 C23_2 1_555 1_555
O1_2 C5_2 1_555 1_555
N1_2 H1_2 1_555 1_555
C1_2 C2_2 1_555 1_555
C2_2 H9_2 1_555 1_555
C3_2 C2_2 1_555 1_555
H10_2 C3_2 1_555 1_555
C5_2 C1_2 1_555 1_555
C20_2 N1_2 1_555 1_555
H17_2 C20_2 1_555 1_555
H18_2 C20_2 1_555 1_555
Nd5 O4_2 1_555 1_555
C3_2 C4_2 1_555 1_555
Nd7 O3_2 1_555 1_555
O3_2 C6_2 1_555 1_555
O15_2 Nd7 1_555 1_555
O16_2 Nd7 1_555 1_555
N5_2 H5_2 1_555 1_555
N6_2 H6_2 1_555 1_555
N7_2 H7_2 1_555 1_555
N8_2 H8_2 1_555 1_555
C25_2 N6_2 1_555 1_555
H23_2 C25_2 1_555 1_555
H24_2 C25_2 1_555 1_555
C26_2 N5_2 1_555 1_555
H25_2 C26_2 1_555 1_555
H26_2 C26_2 1_555 1_555
C27_2 O16_2 1_555 1_555
C28_2 N7_2 1_555 1_555
H27_2 C28_2 1_555 1_555
H28_2 C28_2 1_555 1_555
C29_2 N8_2 1_555 1_555
H29_2 C29_2 1_555 1_555
H30_2 C29_2 1_555 1_555
C30_2 O15_2 1_555 1_555
Nd3_2 O2_2 1_555 1_555
O18_2 Nd7 1_555 1_555
O19_2 Nd7 1_555 1_555
O20_2 Nd7 1_555 1_555
O22_2 Nd7 1_555 1_555
N5_2 C27_2 1_555 1_555
N6_2 C27_2 1_555 1_555
N7_2 C30_2 1_555 1_555
N8_2 C30_2 1_555 1_555
C25_2 C26_2 1_555 1_555
C28_2 C29_2 1_555 1_555
N2_2 H2_2 1_555 1_555
C19_2 N2_2 1_555 1_555
H15_2 C19_2 1_555 1_555
H16_2 C19_2 1_555 1_555
N2_2 C21_2 1_555 1_555
O5_3 Nd3 1_555 1_555
O13_3 Nd3 1_555 1_555
O14_3 Nd3 1_555 1_555
N3_3 H3_3 1_555 1_555
N4_3 H4_3 1_555 1_555
C22_3 N4_3 1_555 1_555
H19_2 C22_3 1_555 1_555
H20_3 C22_3 1_555 1_555
C23_3 N3_3 1_555 1_555
H21_3 C23_3 1_555 1_555
H22_3 C23_3 1_555 1_555
C24_3 O14_3 1_555 1_555
N3_3 C24_3 1_555 1_555
N4_3 C24_3 1_555 1_555
C22_3 C23_3 1_555 1_555
S2_3 C13_3 1_555 1_555
S3_3 C7_3 1_555 1_555
O19_2 C12_3 1_555 1_555
O20_2 C12_3 1_555 1_555
O22 C18_3 1_555 1_555
O12_2 C18_3 1_555 1_555
C7_3 C8_3 1_555 1_555
C9_3 C8_3 1_555 1_555
H12_3 C9_3 1_555 1_555
C10_3 S3_3 1_555 1_555
C12_3 C10_3 1_555 1_555
C13_3 C14_3 1_555 1_555
C14_3 H13_3 1_555 1_555
C15_3 C14_3 1_555 1_555
H14_3 C15_3 1_555 1_555
C16_3 S2_3 1_555 1_555
C17_3 O21 1_555 1_555
C18_3 C16_3 1_555 1_555
Nd4 O12_2 1_555 1_555
O6_3 C11_3 1_555 1_555
O10_3 C17_3 1_555 1_555
C7_3 C11_3 1_555 1_555
C9_3 C10_3 1_555 1_555
C13_3 C17_3 1_555 1_555
C15_3 C16_3 1_555 1_555
N2_3 H2_3 1_555 1_555
C19_3 N2_3 1_555 1_555
H15_3 C19_3 1_555 1_555
H16_3 C19_3 1_555 1_555
N2_3 C21_3 1_555 1_555
Nd4 O3_3 1_555 1_555
S1_3 C1_3 1_555 1_555
O1_3 C5_3 1_555 1_555
O17 C5_3 1_555 1_555
O3_3 C6_3 1_555 1_555
O15_3 Nd4 1_555 1_555
O16_3 Nd4 1_555 1_555
N1_3 H1_3 1_555 1_555
N5_3 H5_3 1_555 1_555
N6_3 H6_3 1_555 1_555
N7_3 H7_3 1_555 1_555
N8_3 H8_3 1_555 1_555
C1_3 C2_3 1_555 1_555
C2_3 H9_3 1_555 1_555
C3_3 C2_3 1_555 1_555
H10_3 C3_3 1_555 1_555
C4_3 S1_3 1_555 1_555
C5_3 C1_3 1_555 1_555
C6_3 O18 1_555 1_555
C20_3 N1_3 1_555 1_555
H17_3 C20_3 1_555 1_555
H18_3 C20_3 1_555 1_555
C25_3 N6_3 1_555 1_555
H23_3 C25_3 1_555 1_555
H24_3 C25_3 1_555 1_555
C26_3 N5_3 1_555 1_555
H25_3 C26_3 1_555 1_555
H26_3 C26_3 1_555 1_555
C27_3 O16_3 1_555 1_555
C28_3 N7_3 1_555 1_555
H27_3 C28_3 1_555 1_555
H28_3 C28_3 1_555 1_555
C29_3 N8_3 1_555 1_555
H29_3 C29_3 1_555 1_555
H30_3 C29_3 1_555 1_555
C30_3 O15_3 1_555 1_555
N5_3 C27_3 1_555 1_555
N6_3 C27_3 1_555 1_555
N7_3 C30_3 1_555 1_555
N8_3 C30_3 1_555 1_555
C3_3 C4_3 1_555 1_555
C4_3 C6_3 1_555 1_555
C25_3 C26_3 1_555 1_555
C28_3 C29_3 1_555 1_555
N2_4 H2_4 1_555 1_555
C19_4 N2_4 1_555 1_555
H15_4 C19_4 1_555 1_555
H16_4 C19_4 1_555 1_555
N2_4 C21_4 1_555 1_555
Nd5 O3_4 1_555 1_555
O3_4 C6_4 1_555 1_555
O15_4 Nd5 1_555 1_555
O16_4 Nd5 1_555 1_555
N5_4 H5_4 1_555 1_555
N6_4 H6_4 1_555 1_555
N7_4 H7_4 1_555 1_555
N8_4 H8_4 1_555 1_555
C25_4 N6_4 1_555 1_555
H23_4 C25_4 1_555 1_555
H24_4 C25_4 1_555 1_555
C26_4 N5_4 1_555 1_555
H25_4 C26_4 1_555 1_555
H26_4 C26_4 1_555 1_555
C27_4 O16_4 1_555 1_555
C28_4 N7_4 1_555 1_555
H27_4 C28_4 1_555 1_555
H28_4 C28_4 1_555 1_555
C29_4 N8_4 1_555 1_555
H29_4 C29_4 1_555 1_555
H30_4 C29_4 1_555 1_555
C30_4 O15_4 1_555 1_555
O23_2 Nd5 1_555 1_555
N5_4 C27_4 1_555 1_555
N6_4 C27_4 1_555 1_555
N7_4 C30_4 1_555 1_555
N8_4 C30_4 1_555 1_555
C25_4 C26_4 1_555 1_555
C28_4 C29_4 1_555 1_555
O1_4 C5_4 1_555 1_555
N1_4 H1_4 1_555 1_555
C1_4 C2_4 1_555 1_555
C2_4 H9_4 1_555 1_555
C3_4 C2_4 1_555 1_555
H10_4 C3_4 1_555 1_555
C5_4 C1_4 1_555 1_555
C20_4 N1_4 1_555 1_555
H17_4 C20_4 1_555 1_555
H18_4 C20_4 1_555 1_555
C3_4 C4_4 1_555 1_555
O5_4 Nd3_2 1_555 1_555
O13_4 Nd3_2 1_555 1_555
O14_4 Nd3_2 1_555 1_555
N3_4 H3_4 1_555 1_555
N4_4 H4_4 1_555 1_555
C22_4 N4_4 1_555 1_555
H20_4 C22_4 1_555 1_555
C23_4 N3_4 1_555 1_555
H21_4 C23_4 1_555 1_555
H22_4 C23_4 1_555 1_555
C24_4 O14_4 1_555 1_555
N3_4 C24_4 1_555 1_555
N4_4 C24_4 1_555 1_555
C22_4 C23_4 1_555 1_555
O23_2 C18_4 1_555 1_555
C14_4 H13_4 1_555 1_555
C15_4 C14_4 1_555 1_555
H14_4 C15_4 1_555 1_555
C18_4 C16_4 1_555 1_555
C15_4 C16_4 1_555 1_555
S2_4 C13_4 1_555 1_555
S3_4 C7_4 1_555 1_555
O19 C12_4 1_555 1_555
O20 C12_4 1_555 1_555
C7_4 C8_4 1_555 1_555
C9_4 C8_4 1_555 1_555
H12_4 C9_4 1_555 1_555
C10_4 S3_4 1_555 1_555
C12_4 C10_4 1_555 1_555
O6_4 C11_4 1_555 1_555
O10_4 C17_4 1_555 1_555
C7_4 C11_4 1_555 1_555
C9_4 C10_4 1_555 1_555
C13_4 C17_4 1_555 1_555

#END
