
###############################################################################
#
# This file contains modified crystal structure data generated from the
# MOF subset of the Cambridge Structural Database (CSD) v543 
# hosted by the Cambridge Crystallographic Data Centre (CCDC).
#
# This work is licensed under the Creative Commons
# Attribution-NonCommercial-ShareAlike 4.0 International License.
# To view a copy of this license, visit
# http://creativecommons.org/licenses/by-nc-sa/4.0/
# or send a letter to
# Creative Commons, PO Box 1866, Mountain View, CA 94042, USA.
#
# CIF created using the CSD Python API on 29 September 2022
# The structure has been converted into the P1 space group
# The structure has a 3D framework
# The original CSD entry HAWYUB is in the monoclinic crystal system
# The framework has been calculated to contain at least 10.0% void space
# The void calculation uses a probe of radius 1.32A, grid spacing 0.4
#
###############################################################################

data_HAWYUB
_chemical_formula_moiety         '(C48 H28 Cd4 N4 O16)n'
_symmetry_cell_setting           triclinic
_symmetry_space_group_name_H-M   'P 1'
_symmetry_Int_Tables_number      1
_space_group_name_Hall           'P 1'
loop_
_symmetry_equiv_pos_site_id
_symmetry_equiv_pos_as_xyz
1 x,y,z
_cell_length_a                   15.385(6)
_cell_length_b                   14.237(5)
_cell_length_c                   6.918(3)
_cell_angle_alpha                90
_cell_angle_beta                 96.622(8)
_cell_angle_gamma                90
_cell_volume                     1505.18
loop_
_atom_site_label
_atom_site_type_symbol
_atom_site_fract_x
_atom_site_fract_y
_atom_site_fract_z
C10 C 0.0010(13) 0.9886(16) 0.099(3)
C11 C 0.0639(16) 0.923(2) 0.184(3)
H6 H 0.0644 0.9061 0.3139
C24 C 0.1228(15) 0.8869(18) 0.076(3)
H14 H 0.1669 0.8486 0.1357
Cd7 Cd 0.31395(8) 0.69590(8) 0.04525(18)
C19 C 0.1876(11) 0.8637(12) 0.762(3)
C20 C 0.1200(12) 0.9048(17) 0.875(3)
C21 C 0.0618(13) 0.9701(16) 0.786(3)
H12 H 0.0630 0.9869 0.6561
O11 O 0.2368(8) 0.7995(9) 0.8332(19)
O15 O 0.1935(10) 0.8973(11) 0.5883(19)
Cd6 Cd 0.31395(8) 0.80410(8) 0.54525(18)
C5 C 0.5062(12) 0.0906(13) 0.311(3)
H3 H 0.4848 0.1496 0.3386
C6 C 0.4474(12) 0.0199(14) 0.262(3)
H4 H 0.3877 0.0306 0.2603
C7 C 0.8124(11) 0.1363(12) 0.238(3)
C8 C 0.8800(12) 0.0952(17) 0.125(3)
C9 C 0.9382(13) 0.0299(16) 0.214(3)
H5 H 0.9370 0.0131 0.3439
N1 N 0.5928(11) 0.0790(11) 0.320(2)
O3 O 0.7632(8) 0.2005(9) 0.1668(19)
O4 O 0.8065(10) 0.1027(11) 0.4117(19)
Cd1 Cd 0.68605(8) 0.19590(8) 0.45475(18)
C13 C 0.5853(11) 0.3537(12) 0.335(3)
C14 C 0.5219(12) 0.4324(13) 0.285(3)
C15 C 0.4335(12) 0.4186(12) 0.279(3)
H8 H 0.4115 0.3604 0.3101
C16 C 0.3777(12) 0.4919(13) 0.226(3)
H9 H 0.3178 0.4822 0.2226
C17 C 0.4938(12) 0.5906(13) 0.189(3)
H10 H 0.5152 0.6496 0.1614
C18 C 0.5526(12) 0.5199(14) 0.238(3)
H11 H 0.6123 0.5306 0.2397
N2 N 0.4072(11) 0.5790(11) 0.180(2)
O5 O 0.6611(11) 0.3496(14) 0.268(2)
O6 O 0.6611(11) 0.1504(14) 0.768(2)
O7 O 0.3389(11) 0.8496(14) 0.232(2)
O9 O 0.5646(9) 0.2897(9) 0.448(2)
O10 O 0.4354(9) 0.7897(9) 0.052(2)
O12 O 0.7632(8) 0.2995(9) 0.6668(19)
O13 O 0.2368(8) 0.7005(9) 0.3332(19)
O16 O 0.1935(10) 0.6027(11) 0.0883(19)
C12 C 0.8772(15) 0.1131(18) 0.924(3)
H7 H 0.8331 0.1514 0.8643
C22 C 0.9990(13) 0.0114(16) 0.901(3)
C23 C 0.9361(16) 0.077(2) 0.816(3)
H13 H 0.9356 0.0939 0.6861
O8 O 0.3389(11) 0.6504(14) 0.732(2)
Cd5 Cd 0.68605(8) 0.30410(8) 0.95475(18)
C1 C 0.4147(11) 0.8537(12) 0.165(3)
C2 C 0.4781(12) 0.9324(13) 0.215(3)
C3 C 0.5665(12) 0.9186(12) 0.221(3)
H1 H 0.5885 0.8604 0.1899
C4 C 0.6223(12) 0.9919(13) 0.274(3)
H2 H 0.6822 0.9822 0.2774
C7_2 C 0.1876(11) 0.6363(12) 0.262(3)
C8_2 C 0.1200(12) 0.5952(17) 0.375(3)
C9_2 C 0.0618(13) 0.5299(16) 0.286(3)
H5_2 H 0.0630 0.5131 0.1561
C12_2 C 0.1228(15) 0.6131(18) 0.576(3)
H7_2 H 0.1669 0.6514 0.6357
C22_2 C 0.0010(13) 0.5114(16) 0.599(3)
C23_2 C 0.0639(16) 0.577(2) 0.684(3)
H13_2 H 0.0644 0.5939 0.8139
C10_2 C 0.9990(13) 0.4886(16) 0.401(3)
C11_2 C 0.9361(16) 0.423(2) 0.316(3)
H6_2 H 0.9356 0.4061 0.1861
C19_2 C 0.8124(11) 0.3637(12) 0.738(3)
C20_2 C 0.8800(12) 0.4048(17) 0.625(3)
C21_2 C 0.9382(13) 0.4701(16) 0.714(3)
H12_2 H 0.9370 0.4869 0.8439
C24_2 C 0.8772(15) 0.3869(18) 0.424(3)
H14_2 H 0.8331 0.3486 0.3643
O15_2 O 0.8065(10) 0.3973(11) 0.9117(19)
C1_2 C 0.5853(11) 0.1463(12) 0.835(3)
C2_2 C 0.5219(12) 0.0676(13) 0.785(3)
C3_2 C 0.4335(12) 0.0814(12) 0.779(3)
H1_2 H 0.4115 0.1396 0.8101
C4_2 C 0.3777(12) 0.0081(13) 0.726(3)
H2_2 H 0.3178 0.0178 0.7226
O2 O 0.5646(9) 0.2103(9) 0.948(2)
C5_2 C 0.4938(12) 0.9094(13) 0.689(3)
H3_2 H 0.5152 0.8504 0.6614
C6_2 C 0.5526(12) 0.9801(14) 0.738(3)
H4_2 H 0.6123 0.9694 0.7397
N1_2 N 0.4072(11) 0.9210(11) 0.680(2)
C13_2 C 0.4147(11) 0.6463(12) 0.665(3)
C14_2 C 0.4781(12) 0.5676(13) 0.715(3)
C15_2 C 0.5665(12) 0.5814(12) 0.721(3)
H8_2 H 0.5885 0.6396 0.6899
C16_2 C 0.6223(12) 0.5081(13) 0.774(3)
H9_2 H 0.6822 0.5178 0.7774
C17_2 C 0.5062(12) 0.4094(13) 0.811(3)
H10_2 H 0.4848 0.3504 0.8386
C18_2 C 0.4474(12) 0.4801(14) 0.762(3)
H11_2 H 0.3877 0.4694 0.7603
N2_2 N 0.5928(11) 0.4210(11) 0.820(2)
O9_2 O 0.4354(9) 0.7103(9) 0.552(2)
loop_
_geom_bond_atom_site_label_1
_geom_bond_atom_site_label_2
_geom_bond_site_symmetry_1
_geom_bond_site_symmetry_2
C11 C10 1_555 1_555
H6 C11 1_555 1_555
C24 C11 1_555 1_555
H14 C24 1_555 1_555
C19 C20 1_555 1_555
C20 C21 1_555 1_555
C21 H12 1_555 1_555
O11 C19 1_555 1_555
O15 C19 1_555 1_555
Cd6 O11 1_555 1_555
O15 Cd6 1_555 1_555
C5 H3 1_555 1_555
H4 C6 1_555 1_555
C7 C8 1_555 1_555
C8 C9 1_555 1_555
C9 H5 1_555 1_555
O3 C7 1_555 1_555
O4 C7 1_555 1_555
Cd1 N1 1_555 1_555
C13 C14 1_555 1_555
C14 C15 1_555 1_555
C15 H8 1_555 1_555
C16 C15 1_555 1_555
H9 C16 1_555 1_555
C17 H10 1_555 1_555
C18 C14 1_555 1_555
H11 C18 1_555 1_555
N2 C16 1_555 1_555
O5 Cd1 1_555 1_555
O6 Cd1 1_555 1_555
O7 Cd7 1_555 1_555
O9 Cd1 1_555 1_555
O10 Cd7 1_555 1_555
O12 Cd1 1_555 1_555
O13 Cd7 1_555 1_555
O16 Cd7 1_555 1_555
Cd7 N2 1_555 1_555
C5 C6 1_555 1_555
C5 N1 1_555 1_555
O3 Cd1 1_555 1_555
O4 Cd1 1_555 1_555
C13 O5 1_555 1_555
C13 O9 1_555 1_555
C17 C18 1_555 1_555
C17 N2 1_555 1_555
H7 C12 1_555 1_555
C23 C12 1_555 1_555
H13 C23 1_555 1_555
C22 C23 1_555 1_555
C1 C2 1_555 1_555
C2 C3 1_555 1_555
C3 H1 1_555 1_555
C4 C3 1_555 1_555
H2 C4 1_555 1_555
O7 C1 1_555 1_555
O10 C1 1_555 1_555
Cd6 O7 1_555 1_555
C7_2 C8_2 1_555 1_555
C8_2 C9_2 1_555 1_555
C9_2 H5_2 1_555 1_555
C12_2 C8_2 1_555 1_555
H7_2 C12_2 1_555 1_555
O13 C7_2 1_555 1_555
O16 C7_2 1_555 1_555
C23_2 C12_2 1_555 1_555
H13_2 C23_2 1_555 1_555
Cd6 O13 1_555 1_555
C22_2 C23_2 1_555 1_555
C11_2 C10_2 1_555 1_555
H6_2 C11_2 1_555 1_555
C19_2 C20_2 1_555 1_555
C20_2 C21_2 1_555 1_555
C21_2 H12_2 1_555 1_555
C24_2 C11_2 1_555 1_555
H14_2 C24_2 1_555 1_555
O12 C19_2 1_555 1_555
O15_2 C19_2 1_555 1_555
Cd5 O12 1_555 1_555
C20_2 C24_2 1_555 1_555
O15_2 Cd5 1_555 1_555
C1_2 C2_2 1_555 1_555
C2_2 C3_2 1_555 1_555
C3_2 H1_2 1_555 1_555
C4_2 C3_2 1_555 1_555
H2_2 C4_2 1_555 1_555
O6 C1_2 1_555 1_555
O2 C1_2 1_555 1_555
Cd5 O6 1_555 1_555
O2 Cd5 1_555 1_555
C5_2 H3_2 1_555 1_555
H4_2 C6_2 1_555 1_555
Cd6 N1_2 1_555 1_555
C13_2 C14_2 1_555 1_555
C14_2 C15_2 1_555 1_555
C15_2 H8_2 1_555 1_555
C16_2 C15_2 1_555 1_555
H9_2 C16_2 1_555 1_555
C17_2 H10_2 1_555 1_555
C18_2 C14_2 1_555 1_555
H11_2 C18_2 1_555 1_555
N2_2 C16_2 1_555 1_555
O8 Cd6 1_555 1_555
O9_2 Cd6 1_555 1_555
Cd5 N2_2 1_555 1_555
C5_2 C6_2 1_555 1_555
C5_2 N1_2 1_555 1_555
C13_2 O8 1_555 1_555
C13_2 O9_2 1_555 1_555
C17_2 C18_2 1_555 1_555
C17_2 N2_2 1_555 1_555

#END
