
###############################################################################
#
# This file contains modified crystal structure data generated from the
# MOF subset of the Cambridge Structural Database (CSD) v543 
# hosted by the Cambridge Crystallographic Data Centre (CCDC).
#
# This work is licensed under the Creative Commons
# Attribution-NonCommercial-ShareAlike 4.0 International License.
# To view a copy of this license, visit
# http://creativecommons.org/licenses/by-nc-sa/4.0/
# or send a letter to
# Creative Commons, PO Box 1866, Mountain View, CA 94042, USA.
#
# CIF created using the CSD Python API on 29 September 2022
# The structure has been converted into the P1 space group
# The structure has a 3D framework
# The original CSD entry HAWZEM is in the monoclinic crystal system
# The framework has been calculated to contain at least 10.0% void space
# The void calculation uses a probe of radius 1.32A, grid spacing 0.4
#
###############################################################################

data_HAWZEM
_chemical_formula_moiety         '(C48 H32 Cu4 N8 O16)n'
_symmetry_cell_setting           triclinic
_symmetry_space_group_name_H-M   'P 1'
_symmetry_Int_Tables_number      1
_space_group_name_Hall           'P 1'
loop_
_symmetry_equiv_pos_site_id
_symmetry_equiv_pos_as_xyz
1 x,y,z
_cell_length_a                   11.6755(3)
_cell_length_b                   12.2521(2)
_cell_length_c                   12.6399(8)
_cell_angle_alpha                90
_cell_angle_beta                 118.308(3)
_cell_angle_gamma                90
_cell_volume                     1591.9
loop_
_atom_site_label
_atom_site_type_symbol
_atom_site_fract_x
_atom_site_fract_y
_atom_site_fract_z
Cu1 Cu 0.28858(4) 0.03562(3) 0.46738(3)
O1 O 0.4193(2) 0.0436(2) 0.3758(2)
O2 O 0.6190(2) 0.06407(19) 0.3967(2)
O3 O 0.1607(2) 0.13287(18) 0.34204(19)
O4 O 0.0320(2) 0.1048(2) 0.4245(2)
N2 N 0.3603(3) 0.3373(2) 0.0807(2)
C1 C 0.0582(3) 0.1491(3) 0.3515(3)
C2 C 0.4987(3) 0.0858(3) 0.3502(3)
H1 H 0.0357 0.2426 0.1476
C4 C 0.4518(3) 0.1731(3) 0.2539(3)
C5 C 0.3348(4) 0.2247(4) 0.2214(4)
H2 H 0.2837 0.2046 0.2565
C6 C 0.2945(4) 0.3064(4) 0.1362(4)
H3 H 0.2165 0.3416 0.1168
C10 C 0.5200(4) 0.2053(3) 0.1965(3)
H6 H 0.5991 0.1722 0.2152
C11 C 0.4716(4) 0.2873(3) 0.1102(3)
H7 H 0.5194 0.3077 0.0719
N4 N 0.3603(3) 0.1627(2) 0.5807(2)
Cu4 Cu 0.28858(4) 0.46438(3) 0.96738(3)
Cu2 Cu 0.71142(4) 0.96438(3) 0.53262(3)
O5 O 0.3810(2) 0.93593(19) 0.6033(2)
N3 N 0.1893(3) 0.9051(2) 0.3718(2)
N1 N 0.8107(3) 0.4051(2) 0.1282(2)
C3 C 0.9762(3) 0.2733(3) 0.1683(3)
C7 C 0.8964(3) 0.3567(3) 0.1014(3)
H4 H 0.9022 0.3807 0.0343
C8 C 0.9668(3) 0.2352(3) 0.2679(3)
C9 C 0.8011(4) 0.3675(3) 0.2228(3)
H5 H 0.7419 0.4002 0.2426
C12 C 0.8752(4) 0.2823(3) 0.2920(3)
H8 H 0.8632 0.2566 0.3552
Cu3 Cu 0.71142(4) 0.53562(3) 0.03262(3)
C3_2 C 0.0238(3) 0.7733(3) 0.3317(3)
C7_2 C 0.1036(3) 0.8567(3) 0.3986(3)
H4_2 H 0.0978 0.8807 0.4657
C8_2 C 0.0332(3) 0.7352(3) 0.2321(3)
C9_2 C 0.1989(4) 0.8675(3) 0.2772(3)
H5_2 H 0.2581 0.9002 0.2574
C12_2 C 0.1248(4) 0.7823(3) 0.2080(3)
H8_2 H 0.1368 0.7566 0.1448
O1_2 O 0.5807(2) 0.5436(2) 0.1242(2)
O2_2 O 0.3810(2) 0.56407(19) 0.1033(2)
O3_2 O 0.8393(2) 0.63287(18) 0.15796(19)
O4_2 O 0.9680(2) 0.6048(2) 0.0755(2)
N2_2 N 0.6397(3) 0.8373(2) 0.4193(2)
C1_2 C 0.9418(3) 0.6491(3) 0.1485(3)
C2_2 C 0.5013(3) 0.5858(3) 0.1498(3)
H1_2 H 0.9643 0.7426 0.3524
C4_2 C 0.5482(3) 0.6731(3) 0.2461(3)
C5_2 C 0.6652(4) 0.7247(4) 0.2786(4)
H2_2 H 0.7163 0.7046 0.2435
C6_2 C 0.7055(4) 0.8064(4) 0.3638(4)
H3_2 H 0.7835 0.8416 0.3832
C10_2 C 0.4800(4) 0.7053(3) 0.3035(3)
H6_2 H 0.4009 0.6722 0.2848
C11_2 C 0.5284(4) 0.7873(3) 0.3898(3)
H7_2 H 0.4806 0.8077 0.4281
O5_2 O 0.6190(2) 0.43593(19) 0.8967(2)
N4_2 N 0.6397(3) 0.6627(2) 0.9193(2)
N1_2 N 0.1893(3) 0.5949(2) 0.8718(2)
C3_3 C 0.0238(3) 0.7267(3) 0.8317(3)
C7_3 C 0.1036(3) 0.6433(3) 0.8986(3)
H4_3 H 0.0978 0.6193 0.9657
C8_3 C 0.0332(3) 0.7648(3) 0.7321(3)
C9_3 C 0.1989(4) 0.6325(3) 0.7772(3)
H5_3 H 0.2581 0.5998 0.7574
C12_3 C 0.1248(4) 0.7177(3) 0.7080(3)
H8_3 H 0.1368 0.7434 0.6448
N3_2 N 0.8107(3) 0.0949(2) 0.6282(2)
O1_3 O 0.5807(2) 0.9564(2) 0.6242(2)
O3_3 O 0.8393(2) 0.86713(18) 0.65796(19)
O4_3 O 0.9680(2) 0.8952(2) 0.5755(2)
C1_3 C 0.9418(3) 0.8509(3) 0.6485(3)
C2_3 C 0.5013(3) 0.9142(3) 0.6498(3)
H1_3 H 0.9643 0.7574 0.8524
C4_3 C 0.5482(3) 0.8269(3) 0.7461(3)
C5_3 C 0.6652(4) 0.7753(4) 0.7786(4)
H2_3 H 0.7163 0.7954 0.7435
C6_3 C 0.7055(4) 0.6936(4) 0.8638(4)
H3_3 H 0.7835 0.6584 0.8832
C10_3 C 0.4800(4) 0.7947(3) 0.8035(3)
H6_3 H 0.4009 0.8278 0.7848
C11_3 C 0.5284(4) 0.7127(3) 0.8898(3)
H7_3 H 0.4806 0.6923 0.9281
O1_4 O 0.4193(2) 0.4564(2) 0.8758(2)
O3_4 O 0.1607(2) 0.36713(18) 0.84204(19)
O4_4 O 0.0320(2) 0.3952(2) 0.9245(2)
C1_4 C 0.0582(3) 0.3509(3) 0.8515(3)
C2_4 C 0.4987(3) 0.4142(3) 0.8502(3)
H1_4 H 0.0357 0.2574 0.6476
C4_4 C 0.4518(3) 0.3269(3) 0.7539(3)
C5_4 C 0.3348(4) 0.2753(4) 0.7214(4)
H2_4 H 0.2837 0.2954 0.7565
C6_4 C 0.2945(4) 0.1936(4) 0.6362(4)
H3_4 H 0.2165 0.1584 0.6168
C10_4 C 0.5200(4) 0.2947(3) 0.6965(3)
H6_4 H 0.5991 0.3278 0.7152
C11_4 C 0.4716(4) 0.2127(3) 0.6102(3)
H7_4 H 0.5194 0.1923 0.5719
C3_4 C 0.9762(3) 0.2267(3) 0.6683(3)
C7_4 C 0.8964(3) 0.1433(3) 0.6014(3)
H4_4 H 0.9022 0.1193 0.5343
C8_4 C 0.9668(3) 0.2648(3) 0.7679(3)
C9_4 C 0.8011(4) 0.1325(3) 0.7228(3)
H5_4 H 0.7419 0.0998 0.7426
C12_4 C 0.8752(4) 0.2177(3) 0.7920(3)
H8_4 H 0.8632 0.2434 0.8552
loop_
_geom_bond_atom_site_label_1
_geom_bond_atom_site_label_2
_geom_bond_site_symmetry_1
_geom_bond_site_symmetry_2
Cu1 O1 1_555 1_555
O1 C2 1_555 1_555
O2 C2 1_555 1_555
O3 Cu1 1_555 1_555
O4 C1 1_555 1_555
N2 C6 1_555 1_555
C1 O3 1_555 1_555
C2 C4 1_555 1_555
C4 C5 1_555 1_555
C5 H2 1_555 1_555
C6 C5 1_555 1_555
H3 C6 1_555 1_555
C10 C4 1_555 1_555
H6 C10 1_555 1_555
C11 N2 1_555 1_555
H7 C11 1_555 1_555
N4 Cu1 1_555 1_555
C10 C11 1_555 1_555
N1 C7 1_555 1_555
C7 C3 1_555 1_555
H4 C7 1_555 1_555
C9 N1 1_555 1_555
H5 C9 1_555 1_555
C12 C8 1_555 1_555
H8 C12 1_555 1_555
Cu3 N1 1_555 1_555
C3 C8 1_555 1_555
C9 C12 1_555 1_555
N3 C7_2 1_555 1_555
C7_2 C3_2 1_555 1_555
H4_2 C7_2 1_555 1_555
C9_2 N3 1_555 1_555
H5_2 C9_2 1_555 1_555
C12_2 C8_2 1_555 1_555
H8_2 C12_2 1_555 1_555
C3_2 C8_2 1_555 1_555
C9_2 C12_2 1_555 1_555
Cu3 O1_2 1_555 1_555
O1_2 C2_2 1_555 1_555
O2_2 C2_2 1_555 1_555
O3_2 Cu3 1_555 1_555
O4_2 C1_2 1_555 1_555
N2_2 C6_2 1_555 1_555
C1_2 O3_2 1_555 1_555
C2_2 C4_2 1_555 1_555
C4_2 C5_2 1_555 1_555
C5_2 H2_2 1_555 1_555
C6_2 C5_2 1_555 1_555
H3_2 C6_2 1_555 1_555
C10_2 C4_2 1_555 1_555
H6_2 C10_2 1_555 1_555
C11_2 N2_2 1_555 1_555
H7_2 C11_2 1_555 1_555
Cu2 N2_2 1_555 1_555
C10_2 C11_2 1_555 1_555
N1_2 C7_3 1_555 1_555
C7_3 C3_3 1_555 1_555
H4_3 C7_3 1_555 1_555
C9_3 N1_2 1_555 1_555
H5_3 C9_3 1_555 1_555
C12_3 C8_3 1_555 1_555
H8_3 C12_3 1_555 1_555
Cu4 N1_2 1_555 1_555
C3_3 C8_3 1_555 1_555
C9_3 C12_3 1_555 1_555
Cu2 O1_3 1_555 1_555
O1_3 C2_3 1_555 1_555
O5 C2_3 1_555 1_555
O3_3 Cu2 1_555 1_555
O4_3 C1_3 1_555 1_555
N4_2 C6_3 1_555 1_555
C1_3 O3_3 1_555 1_555
C2_3 C4_3 1_555 1_555
C4_3 C5_3 1_555 1_555
C5_3 H2_3 1_555 1_555
C6_3 C5_3 1_555 1_555
H3_3 C6_3 1_555 1_555
C10_3 C4_3 1_555 1_555
H6_3 C10_3 1_555 1_555
C11_3 N4_2 1_555 1_555
H7_3 C11_3 1_555 1_555
C10_3 C11_3 1_555 1_555
Cu4 O1_4 1_555 1_555
O1_4 C2_4 1_555 1_555
O5_2 C2_4 1_555 1_555
O3_4 Cu4 1_555 1_555
O4_4 C1_4 1_555 1_555
N4 C6_4 1_555 1_555
C1_4 O3_4 1_555 1_555
C2_4 C4_4 1_555 1_555
C4_4 C5_4 1_555 1_555
C5_4 H2_4 1_555 1_555
C6_4 C5_4 1_555 1_555
H3_4 C6_4 1_555 1_555
C10_4 C4_4 1_555 1_555
H6_4 C10_4 1_555 1_555
C11_4 N4 1_555 1_555
H7_4 C11_4 1_555 1_555
C10_4 C11_4 1_555 1_555
N3_2 C7_4 1_555 1_555
C7_4 C3_4 1_555 1_555
H4_4 C7_4 1_555 1_555
C9_4 N3_2 1_555 1_555
H5_4 C9_4 1_555 1_555
C12_4 C8_4 1_555 1_555
H8_4 C12_4 1_555 1_555
C3_4 C8_4 1_555 1_555
C9_4 C12_4 1_555 1_555

#END
