
###############################################################################
#
# This file contains modified crystal structure data generated from the
# MOF subset of the Cambridge Structural Database (CSD) v543 
# hosted by the Cambridge Crystallographic Data Centre (CCDC).
#
# This work is licensed under the Creative Commons
# Attribution-NonCommercial-ShareAlike 4.0 International License.
# To view a copy of this license, visit
# http://creativecommons.org/licenses/by-nc-sa/4.0/
# or send a letter to
# Creative Commons, PO Box 1866, Mountain View, CA 94042, USA.
#
# CIF created using the CSD Python API on 29 September 2022
# The structure has been converted into the P1 space group
# The structure has a 3D framework
# The original CSD entry HAXJEX is in the monoclinic crystal system
# The framework has been calculated to contain at least 10.0% void space
# The void calculation uses a probe of radius 1.32A, grid spacing 0.4
#
###############################################################################

data_HAXJEX
_chemical_formula_moiety         '(C168 H88 N16 O50 Zn16)n'
_symmetry_cell_setting           triclinic
_symmetry_space_group_name_H-M   'P 1'
_symmetry_Int_Tables_number      1
_space_group_name_Hall           'P 1'
loop_
_symmetry_equiv_pos_site_id
_symmetry_equiv_pos_as_xyz
1 x,y,z
_cell_length_a                   15.4925(4)
_cell_length_b                   15.6741(6)
_cell_length_c                   17.0388(5)
_cell_angle_alpha                90
_cell_angle_beta                 92.353(3)
_cell_angle_gamma                90
_cell_volume                     4134.06
loop_
_atom_site_label
_atom_site_type_symbol
_atom_site_fract_x
_atom_site_fract_y
_atom_site_fract_z
O7 O -0.00000 0.3197(3) 0.25000
Zn5 Zn 0.05967(3) 0.40331(4) 0.31743(3)
Zn6 Zn 0.55900(3) 0.74349(4) 0.17482(3)
Zn8 Zn 0.05900(3) 0.24349(4) 0.17482(3)
Zn10 Zn 0.44100(3) 0.74349(4) 0.32518(3)
N3 N 0.6873(3) 0.7945(3) 0.1644(3)
N4 N 0.5635(3) 0.7802(2) 0.0516(2)
O10 O 0.4509(2) 0.6745(2) 0.13914(18)
O11 O 0.3891(2) 0.6532(2) 0.25296(18)
O13 O 0.6109(2) 0.6532(2) 0.24704(18)
O14 O 0.0418(2) 0.4697(2) 0.14645(19)
O15 O 0.1242(2) 0.4850(2) 0.25664(19)
O20 O 0.50000 0.8197(3) 0.25000
C22 C 0.3099(3) 0.6171(3) 0.1372(3)
C23 C 0.1575(3) 0.5633(3) 0.0619(3)
H12 H 0.106 0.5457 0.0371
C24 C 0.3884(3) 0.6507(3) 0.1787(3)
C25 C 0.2178(3) 0.6061(3) 0.0196(3)
C26 C 0.2488(3) 0.5744(3) 0.1784(3)
H13 H 0.2587 0.5643 0.2318
C28 C 0.1731(3) 0.5461(3) 0.1417(3)
C29 C 0.2948(3) 0.6315(3) 0.0578(3)
H14 H 0.3368 0.6586 0.0294
C30 C 0.1072(3) 0.4964(3) 0.1843(3)
C31 C 0.8461(4) 0.8681(4) 0.1364(4)
H15 H 0.8996 0.8924 0.1277
C36 C 0.8295(4) 0.8367(4) 0.2074(4)
H20 H 0.871 0.8397 0.2482
C38 C 0.7828(4) 0.8642(3) 0.0748(4)
H21 H 0.4514 0.7452 0.0072
C40 C 0.7036(3) 0.8269(3) 0.0921(3)
C41 C 0.7491(4) 0.7996(4) 0.2195(3)
H22 H 0.7389 0.7774 0.2689
C42 C 0.6371(3) 0.8196(3) 0.0326(3)
Zn3 Zn 0.05967(3) 0.59669(4) 0.81743(3)
O8 O 0.1192(2) 0.6188(2) 0.91331(18)
O9 O 0.2578(2) 0.6412(3) 0.8907(2)
O17 O 0.1242(2) 0.5150(2) 0.75664(19)
O19 O -0.00000 0.6803(3) 0.75000
C27 C 0.1998(4) 0.6240(3) 0.9332(3)
C32 C 0.7932(4) 0.8965(4) 0.9967(4)
H16 H 0.845 0.9223 0.9845
C33 C 0.5100(4) 0.8014(4) 0.9201(3)
H17 H 0.4657 0.7933 0.8823
C34 C 0.5836(4) 0.8423(4) 0.9022(3)
H18 H 0.5892 0.8643 0.8519
C35 C 0.7306(5) 0.8904(4) 0.9417(4)
H19 H 0.7397 0.9118 0.8919
C37 C 0.6498(4) 0.8518(3) 0.9568(3)
C39 C 0.5026(3) 0.7723(3) 0.9950(3)
Zn1 Zn 0.94033(3) 0.40331(4) 0.18257(3)
O1 O 0.8808(2) 0.3812(2) 0.08669(18)
O2 O 0.7422(2) 0.3588(3) 0.1093(2)
O7_2 O 1.00000 0.3197(3) 0.25000
C6 C 0.8002(4) 0.3760(3) 0.0668(3)
C11 C 0.2068(4) 0.1035(4) 0.0033(4)
H5 H 0.155 0.0777 0.0155
C12 C 0.4900(4) 0.1986(4) 0.0799(3)
H6 H 0.5343 0.2067 0.1177
C13 C 0.4164(4) 0.1577(4) 0.0978(3)
H7 H 0.4108 0.1357 0.1481
C14 C 0.2694(5) 0.1096(4) 0.0583(4)
H8 H 0.2603 0.0882 0.1081
C16 C 0.3502(4) 0.1482(3) 0.0432(3)
C18 C 0.4974(3) 0.2277(3) 0.0050(3)
Zn9 Zn 0.94100(3) 0.24349(4) 0.32518(3)
O16 O 0.8758(2) 0.4850(2) 0.24336(19)
Zn2 Zn 0.44100(3) 0.25651(4) 0.82518(3)
N1 N 0.3127(3) 0.2055(3) 0.8356(3)
N2 N 0.4365(3) 0.2198(2) 0.9484(2)
O3 O 0.5491(2) 0.3255(2) 0.86086(18)
O4 O 0.6109(2) 0.3468(2) 0.74704(18)
O5 O 0.9582(2) 0.5303(2) 0.85355(19)
O6 O 0.8758(2) 0.5150(2) 0.74336(19)
C1 C 0.6901(3) 0.3829(3) 0.8628(3)
C2 C 0.8425(3) 0.4367(3) 0.9381(3)
H1 H 0.894 0.4543 0.9629
C3 C 0.6116(3) 0.3493(3) 0.8213(3)
C4 C 0.7822(3) 0.3939(3) 0.9804(3)
C5 C 0.7512(3) 0.4256(3) 0.8216(3)
H2 H 0.7413 0.4357 0.7682
C7 C 0.8269(3) 0.4539(3) 0.8583(3)
C8 C 0.7052(3) 0.3685(3) 0.9422(3)
H3 H 0.6632 0.3414 0.9706
C9 C 0.8928(3) 0.5036(3) 0.8157(3)
C10 C 0.1539(4) 0.1319(4) 0.8636(4)
H4 H 0.1004 0.1076 0.8723
C15 C 0.1705(4) 0.1633(4) 0.7926(4)
H9 H 0.129 0.1603 0.7518
C17 C 0.2172(4) 0.1358(3) 0.9252(4)
H10 H 0.5486 0.2548 0.9928
C19 C 0.2964(3) 0.1731(3) 0.9079(3)
C20 C 0.2509(4) 0.2004(4) 0.7805(3)
H11 H 0.2611 0.2226 0.7311
C21 C 0.3629(3) 0.1804(3) 0.9674(3)
Zn4 Zn 0.94033(3) 0.59669(4) 0.68257(3)
Zn7 Zn 0.55900(3) 0.25651(4) 0.67482(3)
O12 O 0.3891(2) 0.3468(2) 0.75296(18)
O18 O 0.50000 0.1803(3) 0.75000
O19_2 O 1.00000 0.6803(3) 0.75000
N1_2 N 0.6873(3) 0.2055(3) 0.6644(3)
N2_2 N 0.5635(3) 0.2198(2) 0.5516(2)
O1_2 O 0.1192(2) 0.3812(2) 0.41331(18)
O2_2 O 0.2578(2) 0.3588(3) 0.3907(2)
O3_2 O 0.4509(2) 0.3255(2) 0.63914(18)
O5_2 O 0.0418(2) 0.5303(2) 0.64645(19)
C1_2 C 0.3099(3) 0.3829(3) 0.6372(3)
C2_2 C 0.1575(3) 0.4367(3) 0.5619(3)
H1_2 H 0.106 0.4543 0.5371
C3_2 C 0.3884(3) 0.3493(3) 0.6787(3)
C4_2 C 0.2178(3) 0.3939(3) 0.5196(3)
C5_2 C 0.2488(3) 0.4256(3) 0.6784(3)
H2_2 H 0.2587 0.4357 0.7318
C6_2 C 0.1998(4) 0.3760(3) 0.4332(3)
C7_2 C 0.1731(3) 0.4539(3) 0.6417(3)
C8_2 C 0.2948(3) 0.3685(3) 0.5578(3)
H3_2 H 0.3368 0.3414 0.5294
C9_2 C 0.1072(3) 0.5036(3) 0.6843(3)
C10_2 C 0.8461(4) 0.1319(4) 0.6364(4)
H4_2 H 0.8996 0.1076 0.6277
C11_2 C 0.7932(4) 0.1035(4) 0.4967(4)
H5_2 H 0.845 0.0777 0.4845
C12_2 C 0.5100(4) 0.1986(4) 0.4201(3)
H6_2 H 0.4657 0.2067 0.3823
C13_2 C 0.5836(4) 0.1577(4) 0.4022(3)
H7_2 H 0.5892 0.1357 0.3519
C14_2 C 0.7306(5) 0.1096(4) 0.4417(4)
H8_2 H 0.7397 0.0882 0.3919
C15_2 C 0.8295(4) 0.1633(4) 0.7074(4)
H9_2 H 0.871 0.1603 0.7482
C16_2 C 0.6498(4) 0.1482(3) 0.4568(3)
C17_2 C 0.7828(4) 0.1358(3) 0.5748(4)
C18_2 C 0.5026(3) 0.2277(3) 0.4950(3)
H10_2 H 0.4514 0.2548 0.5072
C19_2 C 0.7036(3) 0.1731(3) 0.5921(3)
C20_2 C 0.7491(4) 0.2004(4) 0.7195(3)
H11_2 H 0.7389 0.2226 0.7689
C21_2 C 0.6371(3) 0.1804(3) 0.5326(3)
N3_2 N 0.3127(3) 0.7945(3) 0.3356(3)
N4_2 N 0.4365(3) 0.7802(2) 0.4484(2)
O8_2 O 0.8808(2) 0.6188(2) 0.58669(18)
O9_2 O 0.7422(2) 0.6412(3) 0.6093(2)
O10_2 O 0.5491(2) 0.6745(2) 0.36086(18)
O14_2 O 0.9582(2) 0.4697(2) 0.35355(19)
C22_2 C 0.6901(3) 0.6171(3) 0.3628(3)
C23_2 C 0.8425(3) 0.5633(3) 0.4381(3)
H12_2 H 0.894 0.5457 0.4629
C24_2 C 0.6116(3) 0.6507(3) 0.3213(3)
C25_2 C 0.7822(3) 0.6061(3) 0.4804(3)
C26_2 C 0.7512(3) 0.5744(3) 0.3216(3)
H13_2 H 0.7413 0.5643 0.2682
C27_2 C 0.8002(4) 0.6240(3) 0.5668(3)
C28_2 C 0.8269(3) 0.5461(3) 0.3583(3)
C29_2 C 0.7052(3) 0.6315(3) 0.4422(3)
H14_2 H 0.6632 0.6586 0.4706
C30_2 C 0.8928(3) 0.4964(3) 0.3157(3)
C31_2 C 0.1539(4) 0.8681(4) 0.3636(4)
H15_2 H 0.1004 0.8924 0.3723
C32_2 C 0.2068(4) 0.8965(4) 0.5033(4)
H16_2 H 0.155 0.9223 0.5155
C33_2 C 0.4900(4) 0.8014(4) 0.5799(3)
H17_2 H 0.5343 0.7933 0.6177
C34_2 C 0.4164(4) 0.8423(4) 0.5978(3)
H18_2 H 0.4108 0.8643 0.6481
C35_2 C 0.2694(5) 0.8904(4) 0.5583(4)
H19_2 H 0.2603 0.9118 0.6081
C36_2 C 0.1705(4) 0.8367(4) 0.2926(4)
H20_2 H 0.129 0.8397 0.2518
C37_2 C 0.3502(4) 0.8518(3) 0.5432(3)
C38_2 C 0.2172(4) 0.8642(3) 0.4252(4)
C39_2 C 0.4974(3) 0.7723(3) 0.5050(3)
H21_2 H 0.5486 0.7452 0.4928
C40_2 C 0.2964(3) 0.8269(3) 0.4079(3)
C41_2 C 0.2509(4) 0.7996(4) 0.2805(3)
H22_2 H 0.2611 0.7774 0.2311
C42_2 C 0.3629(3) 0.8196(3) 0.4674(3)
N3_3 N 0.1873(3) 0.2945(3) 0.1644(3)
N4_3 N 0.0635(3) 0.2802(2) 0.0516(2)
O13_2 O 0.1109(2) 0.1532(2) 0.24704(18)
C31_3 C 0.3461(4) 0.3681(4) 0.1364(4)
H15_3 H 0.3996 0.3924 0.1277
C36_3 C 0.3295(4) 0.3367(4) 0.2074(4)
H20_3 H 0.371 0.3397 0.2482
C38_3 C 0.2828(4) 0.3642(3) 0.0748(4)
C40_3 C 0.2036(3) 0.3269(3) 0.0921(3)
C41_3 C 0.2491(4) 0.2996(4) 0.2195(3)
H22_3 H 0.2389 0.2774 0.2689
C42_3 C 0.1371(3) 0.3196(3) 0.0326(3)
O10_3 O 0.9509(2) 0.1745(2) 0.13914(18)
O11_2 O 0.8891(2) 0.1532(2) 0.25296(18)
C22_3 C 0.8099(3) 0.1171(3) 0.1372(3)
C23_3 C 0.6575(3) 0.0633(3) 0.0619(3)
H12_3 H 0.606 0.0457 0.0371
C24_3 C 0.8884(3) 0.1507(3) 0.1787(3)
C25_3 C 0.7178(3) 0.1061(3) 0.0196(3)
C26_3 C 0.7488(3) 0.0744(3) 0.1784(3)
H13_3 H 0.7587 0.0643 0.2318
C28_3 C 0.6731(3) 0.0461(3) 0.1417(3)
C29_3 C 0.7948(3) 0.1315(3) 0.0578(3)
H14_3 H 0.8368 0.1586 0.0294
H21_3 H 0.9514 0.2452 0.0072
O5_3 O 0.4582(2) 0.0303(2) 0.85355(19)
O6_2 O 0.3758(2) 0.0150(2) 0.74336(19)
C9_3 C 0.3928(3) 0.0036(3) 0.8157(3)
Zn3_2 Zn 0.55967(3) 0.09669(4) 0.81743(3)
Zn4_2 Zn 0.44033(3) 0.09669(4) 0.68257(3)
O8_3 O 0.6192(2) 0.1188(2) 0.91331(18)
O9_3 O 0.7578(2) 0.1412(3) 0.8907(2)
O17_2 O 0.6242(2) 0.0150(2) 0.75664(19)
C27_3 C 0.6998(4) 0.1240(3) 0.9332(3)
H17_3 H 0.9657 0.2933 0.8823
Zn1_2 Zn 0.44033(3) 0.90331(4) 0.18257(3)
O1_3 O 0.3808(2) 0.8812(2) 0.08669(18)
O2_3 O 0.2422(2) 0.8588(3) 0.1093(2)
C6_3 C 0.3002(4) 0.8760(3) 0.0668(3)
H6_3 H 0.0343 0.7067 0.1177
Zn5_2 Zn 0.55967(3) 0.90331(4) 0.31743(3)
O14_3 O 0.5418(2) 0.9697(2) 0.14645(19)
O15_2 O 0.6242(2) 0.9850(2) 0.25664(19)
O16_2 O 0.3758(2) 0.9850(2) 0.24336(19)
C30_3 C 0.6072(3) 0.9964(3) 0.1843(3)
O3_3 O 0.0491(2) 0.8255(2) 0.86086(18)
O4_2 O 0.1109(2) 0.8468(2) 0.74704(18)
C1_3 C 0.1901(3) 0.8829(3) 0.8628(3)
C2_3 C 0.3425(3) 0.9367(3) 0.9381(3)
H1_3 H 0.394 0.9543 0.9629
C3_3 C 0.1116(3) 0.8493(3) 0.8213(3)
C4_3 C 0.2822(3) 0.8939(3) 0.9804(3)
C5_3 C 0.2512(3) 0.9256(3) 0.8216(3)
H2_3 H 0.2413 0.9357 0.7682
C7_3 C 0.3269(3) 0.9539(3) 0.8583(3)
C8_3 C 0.2052(3) 0.8685(3) 0.9422(3)
H3_3 H 0.1632 0.8414 0.9706
H10_3 H 0.0486 0.7548 0.9928
Zn7_2 Zn 0.05900(3) 0.75651(4) 0.67482(3)
Zn2_2 Zn 0.94100(3) 0.75651(4) 0.82518(3)
N1_3 N 0.8127(3) 0.7055(3) 0.8356(3)
N2_3 N 0.9365(3) 0.7198(2) 0.9484(2)
C10_3 C 0.6539(4) 0.6319(4) 0.8636(4)
H4_3 H 0.6004 0.6076 0.8723
C15_3 C 0.6705(4) 0.6633(4) 0.7926(4)
H9_3 H 0.629 0.6603 0.7518
C17_3 C 0.7172(4) 0.6358(3) 0.9252(4)
C19_3 C 0.7964(3) 0.6731(3) 0.9079(3)
C20_3 C 0.7509(4) 0.7004(4) 0.7805(3)
H11_3 H 0.7611 0.7226 0.7311
C21_3 C 0.8629(3) 0.6804(3) 0.9674(3)
O12_2 O 0.8891(2) 0.8468(2) 0.75296(18)
N1_4 N 0.1873(3) 0.7055(3) 0.6644(3)
N2_4 N 0.0635(3) 0.7198(2) 0.5516(2)
C10_4 C 0.3461(4) 0.6319(4) 0.6364(4)
H4_4 H 0.3996 0.6076 0.6277
C11_3 C 0.2932(4) 0.6035(4) 0.4967(4)
H5_3 H 0.345 0.5777 0.4845
C12_3 C 0.0100(4) 0.6986(4) 0.4201(3)
C13_3 C 0.0836(4) 0.6577(4) 0.4022(3)
H7_3 H 0.0892 0.6357 0.3519
C14_3 C 0.2306(5) 0.6096(4) 0.4417(4)
H8_3 H 0.2397 0.5882 0.3919
C15_4 C 0.3295(4) 0.6633(4) 0.7074(4)
H9_4 H 0.371 0.6603 0.7482
C16_3 C 0.1498(4) 0.6482(3) 0.4568(3)
C17_4 C 0.2828(4) 0.6358(3) 0.5748(4)
C18_3 C 0.0026(3) 0.7277(3) 0.4950(3)
C19_4 C 0.2036(3) 0.6731(3) 0.5921(3)
C20_4 C 0.2491(4) 0.7004(4) 0.7195(3)
H11_4 H 0.2389 0.7226 0.7689
C21_4 C 0.1371(3) 0.6804(3) 0.5326(3)
O5_4 O 0.5418(2) 0.0303(2) 0.64645(19)
C9_4 C 0.6072(3) 0.0036(3) 0.6843(3)
O8_4 O 0.3808(2) 0.1188(2) 0.58669(18)
O9_4 O 0.2422(2) 0.1412(3) 0.6093(2)
O10_4 O 0.0491(2) 0.1745(2) 0.36086(18)
C22_4 C 0.1901(3) 0.1171(3) 0.3628(3)
C23_4 C 0.3425(3) 0.0633(3) 0.4381(3)
H12_4 H 0.394 0.0457 0.4629
C24_4 C 0.1116(3) 0.1507(3) 0.3213(3)
C25_4 C 0.2822(3) 0.1061(3) 0.4804(3)
C26_4 C 0.2512(3) 0.0744(3) 0.3216(3)
H13_4 H 0.2413 0.0643 0.2682
C27_4 C 0.3002(4) 0.1240(3) 0.5668(3)
C28_4 C 0.3269(3) 0.0461(3) 0.3583(3)
C29_4 C 0.2052(3) 0.1315(3) 0.4422(3)
H14_4 H 0.1632 0.1586 0.4706
H17_4 H 0.0343 0.2933 0.6177
H21_4 H 0.0486 0.2452 0.4928
O1_4 O 0.6192(2) 0.8812(2) 0.41331(18)
O2_4 O 0.7578(2) 0.8588(3) 0.3907(2)
O3_4 O 0.9509(2) 0.8255(2) 0.63914(18)
C1_4 C 0.8099(3) 0.8829(3) 0.6372(3)
C2_4 C 0.6575(3) 0.9367(3) 0.5619(3)
H1_4 H 0.606 0.9543 0.5371
C3_4 C 0.8884(3) 0.8493(3) 0.6787(3)
C4_4 C 0.7178(3) 0.8939(3) 0.5196(3)
C5_4 C 0.7488(3) 0.9256(3) 0.6784(3)
H2_4 H 0.7587 0.9357 0.7318
C6_4 C 0.6998(4) 0.8760(3) 0.4332(3)
C7_4 C 0.6731(3) 0.9539(3) 0.6417(3)
C8_4 C 0.7948(3) 0.8685(3) 0.5578(3)
H3_4 H 0.8368 0.8414 0.5294
H6_4 H 0.9657 0.7067 0.3823
H10_4 H 0.9514 0.7548 0.5072
O14_4 O 0.4582(2) 0.9697(2) 0.35355(19)
C30_4 C 0.3928(3) 0.9964(3) 0.3157(3)
N3_4 N 0.8127(3) 0.2945(3) 0.3356(3)
N4_4 N 0.9365(3) 0.2802(2) 0.4484(2)
C31_4 C 0.6539(4) 0.3681(4) 0.3636(4)
H15_4 H 0.6004 0.3924 0.3723
C32_3 C 0.7068(4) 0.3965(4) 0.5033(4)
H16_3 H 0.655 0.4223 0.5155
C33_3 C 0.9900(4) 0.3014(4) 0.5799(3)
C34_3 C 0.9164(4) 0.3423(4) 0.5978(3)
H18_3 H 0.9108 0.3643 0.6481
C35_3 C 0.7694(5) 0.3904(4) 0.5583(4)
H19_3 H 0.7603 0.4118 0.6081
C36_4 C 0.6705(4) 0.3367(4) 0.2926(4)
H20_4 H 0.629 0.3397 0.2518
C37_3 C 0.8502(4) 0.3518(3) 0.5432(3)
C38_4 C 0.7172(4) 0.3642(3) 0.4252(4)
C39_3 C 0.9974(3) 0.2723(3) 0.5050(3)
C40_4 C 0.7964(3) 0.3269(3) 0.4079(3)
C41_4 C 0.7509(4) 0.2996(4) 0.2805(3)
H22_4 H 0.7611 0.2774 0.2311
C42_4 C 0.8629(3) 0.3196(3) 0.4674(3)
C32_4 C 0.2932(4) 0.3965(4) 0.9967(4)
H16_4 H 0.345 0.4223 0.9845
C33_4 C 0.0100(4) 0.3014(4) 0.9201(3)
C34_4 C 0.0836(4) 0.3423(4) 0.9022(3)
H18_4 H 0.0892 0.3643 0.8519
C35_4 C 0.2306(5) 0.3904(4) 0.9417(4)
H19_4 H 0.2397 0.4118 0.8919
C37_4 C 0.1498(4) 0.3518(3) 0.9568(3)
C39_4 C 0.0026(3) 0.2723(3) 0.9950(3)
C11_4 C 0.7068(4) 0.6035(4) 0.0033(4)
H5_4 H 0.655 0.5777 0.0155
C12_4 C 0.9900(4) 0.6986(4) 0.0799(3)
C13_4 C 0.9164(4) 0.6577(4) 0.0978(3)
H7_4 H 0.9108 0.6357 0.1481
C14_4 C 0.7694(5) 0.6096(4) 0.0583(4)
H8_4 H 0.7603 0.5882 0.1081
C16_4 C 0.8502(4) 0.6482(3) 0.0432(3)
C18_4 C 0.9974(3) 0.7277(3) 0.0050(3)
loop_
_geom_bond_atom_site_label_1
_geom_bond_atom_site_label_2
_geom_bond_site_symmetry_1
_geom_bond_site_symmetry_2
Zn5 O7 1_555 1_555
Zn6 N3 1_555 1_555
Zn8 O7 1_555 1_555
Zn10 O11 1_555 1_555
N3 C40 1_555 1_555
N4 Zn6 1_555 1_555
O10 Zn6 1_555 1_555
O11 C24 1_555 1_555
O13 Zn6 1_555 1_555
O15 Zn5 1_555 1_555
O20 Zn6 1_555 1_555
C22 C24 1_555 1_555
C23 H12 1_555 1_555
C24 O10 1_555 1_555
C25 C23 1_555 1_555
C26 C22 1_555 1_555
H13 C26 1_555 1_555
C28 C23 1_555 1_555
C29 C22 1_555 1_555
H14 C29 1_555 1_555
C30 O14 1_555 1_555
C31 H15 1_555 1_555
C36 C31 1_555 1_555
H20 C36 1_555 1_555
C38 C31 1_555 1_555
C40 C38 1_555 1_555
C41 N3 1_555 1_555
H22 C41 1_555 1_555
C42 N4 1_555 1_555
Zn10 O20 1_555 1_555
O15 C30 1_555 1_555
C25 C29 1_555 1_555
C26 C28 1_555 1_555
C28 C30 1_555 1_555
C36 C41 1_555 1_555
C40 C42 1_555 1_555
O8 Zn3 1_555 1_555
O9 C27 1_555 1_555
O17 Zn3 1_555 1_555
O19 Zn3 1_555 1_555
C27 O8 1_555 1_555
C32 H16 1_555 1_555
C33 H17 1_555 1_555
C34 C33 1_555 1_555
H18 C34 1_555 1_555
C35 C32 1_555 1_555
H19 C35 1_555 1_555
C37 C34 1_555 1_555
C33 C39 1_555 1_555
C35 C37 1_555 1_555
Zn1 O1 1_555 1_555
O1 C6 1_555 1_555
O2 C6 1_555 1_555
O7_2 Zn1 1_555 1_555
C11 H5 1_555 1_555
C12 H6 1_555 1_555
C13 C12 1_555 1_555
H7 C13 1_555 1_555
C14 C11 1_555 1_555
H8 C14 1_555 1_555
C16 C13 1_555 1_555
Zn9 O7_2 1_555 1_555
O16 Zn1 1_555 1_555
C12 C18 1_555 1_555
C14 C16 1_555 1_555
Zn2 N1 1_555 1_555
N1 C19 1_555 1_555
N2 Zn2 1_555 1_555
O3 Zn2 1_555 1_555
O4 C3 1_555 1_555
O5 C9 1_555 1_555
O6 C9 1_555 1_555
C1 C3 1_555 1_555
C2 H1 1_555 1_555
C3 O3 1_555 1_555
C4 C2 1_555 1_555
C5 C1 1_555 1_555
H2 C5 1_555 1_555
C7 C2 1_555 1_555
C8 C1 1_555 1_555
H3 C8 1_555 1_555
C9 C7 1_555 1_555
C10 H4 1_555 1_555
C15 C10 1_555 1_555
H9 C15 1_555 1_555
C17 C10 1_555 1_555
C19 C17 1_555 1_555
C20 N1 1_555 1_555
H11 C20 1_555 1_555
C21 N2 1_555 1_555
Zn4 O6 1_555 1_555
Zn7 O4 1_555 1_555
O12 Zn2 1_555 1_555
O18 Zn2 1_555 1_555
C4 C8 1_555 1_555
C5 C7 1_555 1_555
C15 C20 1_555 1_555
C19 C21 1_555 1_555
Zn4 O19_2 1_555 1_555
Zn7 O18 1_555 1_555
Zn5 O1_2 1_555 1_555
Zn7 N1_2 1_555 1_555
N1_2 C19_2 1_555 1_555
N2_2 Zn7 1_555 1_555
O1_2 C6_2 1_555 1_555
O2_2 C6_2 1_555 1_555
O3_2 Zn7 1_555 1_555
O12 C3_2 1_555 1_555
O5_2 C9_2 1_555 1_555
O17 C9_2 1_555 1_555
C1_2 C3_2 1_555 1_555
C2_2 H1_2 1_555 1_555
C3_2 O3_2 1_555 1_555
C4_2 C2_2 1_555 1_555
C5_2 C1_2 1_555 1_555
H2_2 C5_2 1_555 1_555
C6_2 C4_2 1_555 1_555
C7_2 C2_2 1_555 1_555
C8_2 C1_2 1_555 1_555
H3_2 C8_2 1_555 1_555
C9_2 C7_2 1_555 1_555
C10_2 H4_2 1_555 1_555
C11_2 H5_2 1_555 1_555
C12_2 H6_2 1_555 1_555
C13_2 C12_2 1_555 1_555
H7_2 C13_2 1_555 1_555
C14_2 C11_2 1_555 1_555
H8_2 C14_2 1_555 1_555
C15_2 C10_2 1_555 1_555
H9_2 C15_2 1_555 1_555
C16_2 C13_2 1_555 1_555
C17_2 C10_2 1_555 1_555
C18_2 N2_2 1_555 1_555
H10_2 C18_2 1_555 1_555
C19_2 C17_2 1_555 1_555
C20_2 N1_2 1_555 1_555
H11_2 C20_2 1_555 1_555
C21_2 N2_2 1_555 1_555
C4_2 C8_2 1_555 1_555
C5_2 C7_2 1_555 1_555
C11_2 C17_2 1_555 1_555
C12_2 C18_2 1_555 1_555
C14_2 C16_2 1_555 1_555
C15_2 C20_2 1_555 1_555
C16_2 C21_2 1_555 1_555
C19_2 C21_2 1_555 1_555
Zn10 N3_2 1_555 1_555
N3_2 C40_2 1_555 1_555
N4_2 Zn10 1_555 1_555
O8_2 Zn4 1_555 1_555
O9_2 C27_2 1_555 1_555
O10_2 Zn10 1_555 1_555
O13 C24_2 1_555 1_555
C22_2 C24_2 1_555 1_555
C23_2 H12_2 1_555 1_555
C24_2 O10_2 1_555 1_555
C25_2 C23_2 1_555 1_555
C26_2 C22_2 1_555 1_555
H13_2 C26_2 1_555 1_555
C27_2 O8_2 1_555 1_555
C28_2 C23_2 1_555 1_555
C29_2 C22_2 1_555 1_555
H14_2 C29_2 1_555 1_555
C30_2 O14_2 1_555 1_555
C31_2 H15_2 1_555 1_555
C32_2 H16_2 1_555 1_555
C33_2 H17_2 1_555 1_555
C34_2 C33_2 1_555 1_555
H18_2 C34_2 1_555 1_555
C35_2 C32_2 1_555 1_555
H19_2 C35_2 1_555 1_555
C36_2 C31_2 1_555 1_555
H20_2 C36_2 1_555 1_555
C37_2 C34_2 1_555 1_555
C38_2 C31_2 1_555 1_555
C39_2 N4_2 1_555 1_555
H21_2 C39_2 1_555 1_555
C40_2 C38_2 1_555 1_555
C41_2 N3_2 1_555 1_555
H22_2 C41_2 1_555 1_555
C42_2 N4_2 1_555 1_555
O16 C30_2 1_555 1_555
C25_2 C27_2 1_555 1_555
C25_2 C29_2 1_555 1_555
C26_2 C28_2 1_555 1_555
C28_2 C30_2 1_555 1_555
C32_2 C38_2 1_555 1_555
C33_2 C39_2 1_555 1_555
C35_2 C37_2 1_555 1_555
C36_2 C41_2 1_555 1_555
C37_2 C42_2 1_555 1_555
C40_2 C42_2 1_555 1_555
Zn8 N3_3 1_555 1_555
N3_3 C40_3 1_555 1_555
N4_3 Zn8 1_555 1_555
O13_2 Zn8 1_555 1_555
C31_3 H15_3 1_555 1_555
C36_3 C31_3 1_555 1_555
H20_3 C36_3 1_555 1_555
C38_3 C31_3 1_555 1_555
C40_3 C38_3 1_555 1_555
C41_3 N3_3 1_555 1_555
H22_3 C41_3 1_555 1_555
C42_3 N4_3 1_555 1_555
C36_3 C41_3 1_555 1_555
C40_3 C42_3 1_555 1_555
Zn9 O11_2 1_555 1_555
O11_2 C24_3 1_555 1_555
C22_3 C24_3 1_555 1_555
C23_3 H12_3 1_555 1_555
C24_3 O10_3 1_555 1_555
C25_3 C23_3 1_555 1_555
C26_3 C22_3 1_555 1_555
H13_3 C26_3 1_555 1_555
C28_3 C23_3 1_555 1_555
C29_3 C22_3 1_555 1_555
H14_3 C29_3 1_555 1_555
C25_3 C29_3 1_555 1_555
C26_3 C28_3 1_555 1_555
O5_3 C9_3 1_555 1_555
O6_2 C9_3 1_555 1_555
Zn3_2 O5_3 1_555 1_555
Zn4_2 O6_2 1_555 1_555
O8_3 Zn3_2 1_555 1_555
O9_3 C27_3 1_555 1_555
O17_2 Zn3_2 1_555 1_555
O18 Zn3_2 1_555 1_555
C27_3 O8_3 1_555 1_555
Zn4_2 O18 1_555 1_555
Zn1_2 O1_3 1_555 1_555
O1_3 C6_3 1_555 1_555
O2_3 C6_3 1_555 1_555
O20 Zn1_2 1_555 1_555
Zn5_2 O20 1_555 1_555
O14_3 Zn1_2 1_555 1_555
O15_2 Zn5_2 1_555 1_555
O16_2 Zn1_2 1_555 1_555
C30_3 O14_3 1_555 1_555
O15_2 C30_3 1_555 1_555
O4_2 C3_3 1_555 1_555
C1_3 C3_3 1_555 1_555
C2_3 H1_3 1_555 1_555
C3_3 O3_3 1_555 1_555
C4_3 C2_3 1_555 1_555
C5_3 C1_3 1_555 1_555
H2_3 C5_3 1_555 1_555
C7_3 C2_3 1_555 1_555
C8_3 C1_3 1_555 1_555
H3_3 C8_3 1_555 1_555
Zn7_2 O4_2 1_555 1_555
C4_3 C8_3 1_555 1_555
C5_3 C7_3 1_555 1_555
Zn7_2 O19 1_555 1_555
Zn2_2 N1_3 1_555 1_555
N1_3 C19_3 1_555 1_555
N2_3 Zn2_2 1_555 1_555
C10_3 H4_3 1_555 1_555
C15_3 C10_3 1_555 1_555
H9_3 C15_3 1_555 1_555
C17_3 C10_3 1_555 1_555
C19_3 C17_3 1_555 1_555
C20_3 N1_3 1_555 1_555
H11_3 C20_3 1_555 1_555
C21_3 N2_3 1_555 1_555
O12_2 Zn2_2 1_555 1_555
O19_2 Zn2_2 1_555 1_555
C15_3 C20_3 1_555 1_555
C19_3 C21_3 1_555 1_555
Zn7_2 N1_4 1_555 1_555
N1_4 C19_4 1_555 1_555
N2_4 Zn7_2 1_555 1_555
C10_4 H4_4 1_555 1_555
C11_3 H5_3 1_555 1_555
C13_3 C12_3 1_555 1_555
H7_3 C13_3 1_555 1_555
C14_3 C11_3 1_555 1_555
H8_3 C14_3 1_555 1_555
C15_4 C10_4 1_555 1_555
H9_4 C15_4 1_555 1_555
C16_3 C13_3 1_555 1_555
C17_4 C10_4 1_555 1_555
C18_3 N2_4 1_555 1_555
C19_4 C17_4 1_555 1_555
C20_4 N1_4 1_555 1_555
H11_4 C20_4 1_555 1_555
C21_4 N2_4 1_555 1_555
C11_3 C17_4 1_555 1_555
C12_3 C18_3 1_555 1_555
C14_3 C16_3 1_555 1_555
C15_4 C20_4 1_555 1_555
C16_3 C21_4 1_555 1_555
C19_4 C21_4 1_555 1_555
O5_4 C9_4 1_555 1_555
O17_2 C9_4 1_555 1_555
Zn4_2 O5_4 1_555 1_555
O8_4 Zn4_2 1_555 1_555
O9_4 C27_4 1_555 1_555
O13_2 C24_4 1_555 1_555
C22_4 C24_4 1_555 1_555
C23_4 H12_4 1_555 1_555
C24_4 O10_4 1_555 1_555
C25_4 C23_4 1_555 1_555
C26_4 C22_4 1_555 1_555
H13_4 C26_4 1_555 1_555
C27_4 O8_4 1_555 1_555
C28_4 C23_4 1_555 1_555
C29_4 C22_4 1_555 1_555
H14_4 C29_4 1_555 1_555
C25_4 C27_4 1_555 1_555
C25_4 C29_4 1_555 1_555
C26_4 C28_4 1_555 1_555
Zn5_2 O1_4 1_555 1_555
O1_4 C6_4 1_555 1_555
O2_4 C6_4 1_555 1_555
O12_2 C3_4 1_555 1_555
C1_4 C3_4 1_555 1_555
C2_4 H1_4 1_555 1_555
C3_4 O3_4 1_555 1_555
C4_4 C2_4 1_555 1_555
C5_4 C1_4 1_555 1_555
H2_4 C5_4 1_555 1_555
C6_4 C4_4 1_555 1_555
C7_4 C2_4 1_555 1_555
C8_4 C1_4 1_555 1_555
H3_4 C8_4 1_555 1_555
O14_4 Zn5_2 1_555 1_555
C30_4 O14_4 1_555 1_555
C4_4 C8_4 1_555 1_555
C5_4 C7_4 1_555 1_555
O16_2 C30_4 1_555 1_555
Zn9 N3_4 1_555 1_555
N3_4 C40_4 1_555 1_555
N4_4 Zn9 1_555 1_555
C31_4 H15_4 1_555 1_555
C32_3 H16_3 1_555 1_555
C34_3 C33_3 1_555 1_555
H18_3 C34_3 1_555 1_555
C35_3 C32_3 1_555 1_555
H19_3 C35_3 1_555 1_555
C36_4 C31_4 1_555 1_555
H20_4 C36_4 1_555 1_555
C37_3 C34_3 1_555 1_555
C38_4 C31_4 1_555 1_555
C39_3 N4_4 1_555 1_555
C40_4 C38_4 1_555 1_555
C41_4 N3_4 1_555 1_555
H22_4 C41_4 1_555 1_555
C42_4 N4_4 1_555 1_555
C32_3 C38_4 1_555 1_555
C33_3 C39_3 1_555 1_555
C35_3 C37_3 1_555 1_555
C36_4 C41_4 1_555 1_555
C37_3 C42_4 1_555 1_555
C40_4 C42_4 1_555 1_555
C32_4 H16_4 1_555 1_555
C34_4 C33_4 1_555 1_555
H18_4 C34_4 1_555 1_555
C35_4 C32_4 1_555 1_555
H19_4 C35_4 1_555 1_555
C37_4 C34_4 1_555 1_555
C33_4 C39_4 1_555 1_555
C35_4 C37_4 1_555 1_555
C11_4 H5_4 1_555 1_555
C13_4 C12_4 1_555 1_555
H7_4 C13_4 1_555 1_555
C14_4 C11_4 1_555 1_555
H8_4 C14_4 1_555 1_555
C16_4 C13_4 1_555 1_555
C12_4 C18_4 1_555 1_555
C14_4 C16_4 1_555 1_555

#END
