
###############################################################################
#
# This file contains modified crystal structure data generated from the
# MOF subset of the Cambridge Structural Database (CSD) v543 
# hosted by the Cambridge Crystallographic Data Centre (CCDC).
#
# This work is licensed under the Creative Commons
# Attribution-NonCommercial-ShareAlike 4.0 International License.
# To view a copy of this license, visit
# http://creativecommons.org/licenses/by-nc-sa/4.0/
# or send a letter to
# Creative Commons, PO Box 1866, Mountain View, CA 94042, USA.
#
# CIF created using the CSD Python API on 29 September 2022
# The structure has been converted into the P1 space group
# The structure has a 3D framework
# The original CSD entry HAYFEW is in the monoclinic crystal system
# The framework has been calculated to contain at least 10.0% void space
# The void calculation uses a probe of radius 1.32A, grid spacing 0.4
#
###############################################################################

data_HAYFEW
_chemical_formula_moiety         '(C176 H112 Co8 N24 O28)n'
_symmetry_cell_setting           triclinic
_symmetry_space_group_name_H-M   'P 1'
_symmetry_Int_Tables_number      1
_space_group_name_Hall           'P 1'
loop_
_symmetry_equiv_pos_site_id
_symmetry_equiv_pos_as_xyz
1 x,y,z
_cell_length_a                   30.81(4)
_cell_length_b                   11.196(16)
_cell_length_c                   17.62(2)
_cell_angle_alpha                90
_cell_angle_beta                 109.52(2)
_cell_angle_gamma                90
_cell_volume                     5728.66
loop_
_atom_site_label
_atom_site_type_symbol
_atom_site_fract_x
_atom_site_fract_y
_atom_site_fract_z
N1 N 0.20922(11) 0.0919(2) 0.61713(18)
C9 C 0.17490(15) 0.1225(3) 0.6411(2)
H4 H 0.1713 0.2029 0.6510
C14 C 0.14415(15) 0.0432(4) 0.6524(3)
H8 H 0.1205 0.0689 0.6701
Co3 Co 0.26265(2) 0.21281(4) 0.61838(3)
O1 O 0.21376(9) 0.3322(2) 0.56241(14)
O2 O 0.23596(10) 0.7745(2) 0.76356(15)
O3 O 0.21635(10) 0.4049(2) 0.44827(16)
O4 O 0.19409(10) 0.6218(2) 0.76903(15)
N2 N 0.31360(12) 0.3355(3) 0.61934(19)
N3 N 0.37138(12) 0.4262(3) 0.5992(2)
C1 C 0.20207(13) 0.5363(3) 0.5391(2)
C2 C 0.21286(14) 0.9765(3) 0.6002(2)
H1 H 0.2361 0.9540 0.5805
C3 C 0.20485(13) 0.5589(3) 0.6172(2)
H2 H 0.2100 0.4959 0.6536
C4 C 0.20022(13) 0.6728(3) 0.6427(2)
C5 C 0.19310(14) 0.6295(3) 0.4847(2)
H3 H 0.1913 0.6158 0.4317
C6 C 0.21132(13) 0.4146(3) 0.5154(2)
C7 C 0.21039(14) 0.6922(3) 0.7300(2)
C8 C 0.18367(14) 0.8899(3) 0.6106(2)
C10 C 0.19056(14) 0.7655(3) 0.5877(2)
C11 C 0.18693(15) 0.7426(3) 0.5095(2)
H5 H 0.1802 0.8049 0.4725
C12 C 0.14883(14) 0.9243(3) 0.6372(2)
H6 H 0.1285 0.8681 0.6449
C13 C 0.34418(16) 0.3288(4) 0.5854(3)
H7 H 0.3473 0.2640 0.5546
C15 C 0.32030(15) 0.4440(4) 0.6570(3)
H9 H 0.3027 0.4743 0.6864
C16 C 0.35506(17) 0.4991(4) 0.6457(3)
H10 H 0.3665 0.5738 0.6655
C17 C 0.40790(17) 0.4479(5) 0.5713(3)
C18 C 0.4253(2) 0.3617(5) 0.5378(4)
H11 H 0.4127 0.2855 0.5335
C19 C 0.4805(2) 0.4893(5) 0.5150(4)
C20 C 0.4605(2) 0.3812(5) 0.5098(4)
H12 H 0.4712 0.3185 0.4863
C21 C 0.4241(2) 0.5594(6) 0.5703(5)
H13 H 0.4110 0.6230 0.5888
C22 C 0.4600(3) 0.5798(6) 0.5419(5)
H14 H 0.4705 0.6575 0.5411
N4 N 0.68640(12) 0.6645(3) 0.38066(19)
N5 N 0.62862(12) 0.5738(3) 0.4008(2)
C23 C 0.65582(16) 0.6712(4) 0.4146(3)
H15 H 0.6527 0.7360 0.4454
C24 C 0.67970(15) 0.5560(4) 0.3430(3)
H16 H 0.6973 0.5257 0.3136
C25 C 0.64494(17) 0.5009(4) 0.3543(3)
H17 H 0.6335 0.4262 0.3345
C26 C 0.59210(17) 0.5521(5) 0.4287(3)
C27 C 0.5747(2) 0.6383(5) 0.4622(4)
H18 H 0.5873 0.7145 0.4665
C28 C 0.5195(2) 0.5107(5) 0.4850(4)
C29 C 0.5395(2) 0.6188(5) 0.4902(4)
H19 H 0.5288 0.6815 0.5137
C30 C 0.5759(2) 0.4406(6) 0.4297(5)
H20 H 0.5890 0.3770 0.4112
C31 C 0.5400(3) 0.4202(6) 0.4581(5)
H21 H 0.5295 0.3425 0.4589
Co2 Co 0.73735(2) 0.78719(4) 0.38162(3)
O5 O 0.78624(9) 0.6678(2) 0.43759(14)
O6 O 0.76404(10) 0.2255(2) 0.23644(15)
O7 O 0.78365(10) 0.5951(2) 0.55173(16)
O8 O 0.80591(10) 0.3782(2) 0.23097(15)
C32 C 0.79793(13) 0.4637(3) 0.4609(2)
C33 C 0.78714(14) 0.0235(3) 0.3998(2)
H22 H 0.7639 0.0460 0.4195
C34 C 0.79515(13) 0.4411(3) 0.3828(2)
H23 H 0.7900 0.5041 0.3464
C35 C 0.79978(13) 0.3272(3) 0.3573(2)
C36 C 0.80690(14) 0.3705(3) 0.5153(2)
H24 H 0.8087 0.3842 0.5683
C37 C 0.78868(13) 0.5854(3) 0.4846(2)
C38 C 0.78961(14) 0.3078(3) 0.2700(2)
C39 C 0.81633(14) 0.1101(3) 0.3894(2)
C41 C 0.80944(14) 0.2345(3) 0.4123(2)
C42 C 0.81307(15) 0.2574(3) 0.4905(2)
H26 H 0.8198 0.1951 0.5275
C43 C 0.85117(14) 0.0757(3) 0.3628(2)
H27 H 0.8715 0.1319 0.3551
Co4 Co 0.76265(2) 0.71281(4) 0.61838(3)
Co5 Co 0.23735(2) 0.71281(4) 0.88162(3)
Co7 Co 0.23735(2) 0.28719(4) 0.38162(3)
Co8 Co 0.76265(2) 0.28719(4) 0.11838(3)
O9 O 0.26404(10) 0.2745(2) 0.73644(15)
O10 O 0.73596(10) 0.7255(2) 0.26356(15)
O11 O 0.71635(10) 0.9049(2) 0.44827(16)
O12 O 0.28365(10) 0.0951(2) 0.55173(16)
O13 O 0.30591(10) 0.1218(2) 0.73097(15)
O14 O 0.69409(10) 0.8782(2) 0.26903(15)
N8 N 0.79078(11) 0.9081(2) 0.38287(18)
C40 C 0.82510(15) 0.8775(3) 0.3589(2)
H25 H 0.8287 0.7971 0.3490
C44 C 0.85585(15) 0.9568(4) 0.3476(3)
H28 H 0.8795 0.9311 0.3299
N1_2 N 0.79078(11) 0.0919(2) 0.88287(18)
C9_2 C 0.82510(15) 0.1225(3) 0.8589(2)
H4_2 H 0.8287 0.2029 0.8490
C14_2 C 0.85585(15) 0.0432(4) 0.8476(3)
H8_2 H 0.8795 0.0689 0.8299
Co3_2 Co 0.73735(2) 0.21281(4) 0.88162(3)
O3_2 O 0.78365(10) 0.4049(2) 0.05173(16)
C5_2 C 0.80690(14) 0.6295(3) 0.0153(2)
H3_2 H 0.8087 0.6158 0.0683
H5_2 H 0.8198 0.8049 0.0275
H12_2 H 0.5288 0.3185 0.0137
N4_2 N 0.31360(12) 0.6645(3) 0.11934(19)
N5_2 N 0.37138(12) 0.5738(3) 0.0992(2)
C23_2 C 0.34418(16) 0.6712(4) 0.0854(3)
H15_2 H 0.3473 0.7360 0.0546
C24_2 C 0.32030(15) 0.5560(4) 0.1570(3)
H16_2 H 0.3027 0.5257 0.1864
C25_2 C 0.35506(17) 0.5009(4) 0.1457(3)
H17_2 H 0.3665 0.4262 0.1655
C26_2 C 0.40790(17) 0.5521(5) 0.0713(3)
C27_2 C 0.4253(2) 0.6383(5) 0.0378(4)
H18_2 H 0.4127 0.7145 0.0335
C28_2 C 0.4805(2) 0.5107(5) 0.0150(4)
C29_2 C 0.4605(2) 0.6188(5) 0.0098(4)
C30_2 C 0.4241(2) 0.4406(6) 0.0703(5)
H20_2 H 0.4110 0.3770 0.0888
C31_2 C 0.4600(3) 0.4202(6) 0.0419(5)
H21_2 H 0.4705 0.3425 0.0411
Co2_2 Co 0.26265(2) 0.78719(4) 0.11838(3)
O5_2 O 0.21376(9) 0.6678(2) 0.06241(14)
O6_2 O 0.23596(10) 0.2255(2) 0.26356(15)
O8_2 O 0.19409(10) 0.3782(2) 0.26903(15)
C32_2 C 0.20207(13) 0.4637(3) 0.0391(2)
C33_2 C 0.21286(14) 0.0235(3) 0.1002(2)
H22_2 H 0.2361 0.0460 0.0805
C34_2 C 0.20485(13) 0.4411(3) 0.1172(2)
H23_2 H 0.2100 0.5041 0.1536
C35_2 C 0.20022(13) 0.3272(3) 0.1427(2)
C37_2 C 0.21132(13) 0.5854(3) 0.0154(2)
C38_2 C 0.21039(14) 0.3078(3) 0.2300(2)
C39_2 C 0.18367(14) 0.1101(3) 0.1106(2)
C41_2 C 0.19056(14) 0.2345(3) 0.0877(2)
C42_2 C 0.18693(15) 0.2574(3) 0.0095(2)
C43_2 C 0.14883(14) 0.0757(3) 0.1372(2)
H27_2 H 0.1285 0.1319 0.1449
O10_2 O 0.26404(10) 0.7255(2) 0.23644(15)
O11_2 O 0.28365(10) 0.9049(2) 0.05173(16)
O14_2 O 0.30591(10) 0.8782(2) 0.23097(15)
N8_2 N 0.20922(11) 0.9081(2) 0.11713(18)
O1_2 O 0.78624(9) 0.3322(2) 0.93759(14)
O2_2 O 0.76404(10) 0.7745(2) 0.73644(15)
O4_2 O 0.80591(10) 0.6218(2) 0.73097(15)
N2_2 N 0.68640(12) 0.3355(3) 0.88066(19)
N3_2 N 0.62862(12) 0.4262(3) 0.9008(2)
C1_2 C 0.79793(13) 0.5363(3) 0.9609(2)
C2_2 C 0.78714(14) 0.9765(3) 0.8998(2)
H1_2 H 0.7639 0.9540 0.9195
C3_2 C 0.79515(13) 0.5589(3) 0.8828(2)
H2_2 H 0.7900 0.4959 0.8464
C4_2 C 0.79978(13) 0.6728(3) 0.8573(2)
C6_2 C 0.78868(13) 0.4146(3) 0.9846(2)
C7_2 C 0.78961(14) 0.6922(3) 0.7700(2)
C8_2 C 0.81633(14) 0.8899(3) 0.8894(2)
C10_2 C 0.80944(14) 0.7655(3) 0.9123(2)
C11_2 C 0.81307(15) 0.7426(3) 0.9905(2)
C12_2 C 0.85117(14) 0.9243(3) 0.8628(2)
H6_2 H 0.8715 0.8681 0.8551
C13_2 C 0.65582(16) 0.3288(4) 0.9146(3)
H7_2 H 0.6527 0.2640 0.9454
C15_2 C 0.67970(15) 0.4440(4) 0.8430(3)
H9_2 H 0.6973 0.4743 0.8136
C16_2 C 0.64494(17) 0.4991(4) 0.8543(3)
H10_2 H 0.6335 0.5738 0.8345
C17_2 C 0.59210(17) 0.4479(5) 0.9287(3)
C18_2 C 0.5747(2) 0.3617(5) 0.9622(4)
H11_2 H 0.5873 0.2855 0.9665
C19_2 C 0.5195(2) 0.4893(5) 0.9850(4)
C20_2 C 0.5395(2) 0.3812(5) 0.9902(4)
C21_2 C 0.5759(2) 0.5594(6) 0.9297(5)
H13_2 H 0.5890 0.6230 0.9112
C22_2 C 0.5400(3) 0.5798(6) 0.9581(5)
H14_2 H 0.5295 0.6575 0.9589
H19_2 H 0.4712 0.6815 0.9863
O7_2 O 0.21635(10) 0.5951(2) 0.94827(16)
C36_2 C 0.19310(14) 0.3705(3) 0.9847(2)
H24_2 H 0.1913 0.3842 0.9317
H26_2 H 0.1802 0.1951 0.9725
O9_2 O 0.73596(10) 0.2745(2) 0.76356(15)
O12_2 O 0.71635(10) 0.0951(2) 0.94827(16)
O13_2 O 0.69409(10) 0.1218(2) 0.76903(15)
C40_2 C 0.17490(15) 0.8775(3) 0.1411(2)
H25_2 H 0.1713 0.7971 0.1510
C44_2 C 0.14415(15) 0.9568(4) 0.1524(3)
H28_2 H 0.1205 0.9311 0.1701
N4_3 N 0.18640(12) 0.1645(3) 0.38066(19)
N5_3 N 0.12862(12) 0.0738(3) 0.4008(2)
C23_3 C 0.15582(16) 0.1712(4) 0.4146(3)
H15_3 H 0.1527 0.2360 0.4454
C24_3 C 0.17970(15) 0.0560(4) 0.3430(3)
H16_3 H 0.1973 0.0257 0.3136
C25_3 C 0.14494(17) 0.0009(4) 0.3543(3)
C26_3 C 0.09210(17) 0.0521(5) 0.4287(3)
C27_3 C 0.0747(2) 0.1383(5) 0.4622(4)
H18_3 H 0.0873 0.2145 0.4665
C28_3 C 0.0195(2) 0.0107(5) 0.4850(4)
C29_3 C 0.0395(2) 0.1188(5) 0.4902(4)
H19_3 H 0.0288 0.1815 0.5137
O5_3 O 0.28624(9) 0.1678(2) 0.43759(14)
H23_3 H 0.2900 0.0041 0.3464
C37_3 C 0.28868(13) 0.0854(3) 0.4846(2)
N8_3 N 0.29078(11) 0.4081(2) 0.38287(18)
H17_3 H 0.1335 0.9262 0.3345
C30_3 C 0.0759(2) 0.9406(6) 0.4297(5)
H20_3 H 0.0890 0.8770 0.4112
C31_3 C 0.0400(3) 0.9202(6) 0.4581(5)
H21_3 H 0.0295 0.8425 0.4589
C32_3 C 0.29793(13) 0.9637(3) 0.4609(2)
C33_3 C 0.28714(14) 0.5235(3) 0.3998(2)
H22_3 H 0.2639 0.5460 0.4195
C34_3 C 0.29515(13) 0.9411(3) 0.3828(2)
C35_3 C 0.29978(13) 0.8272(3) 0.3573(2)
C36_3 C 0.30690(14) 0.8705(3) 0.5153(2)
H24_3 H 0.3087 0.8842 0.5683
C38_3 C 0.28961(14) 0.8078(3) 0.2700(2)
C39_3 C 0.31633(14) 0.6101(3) 0.3894(2)
C40_3 C 0.32510(15) 0.3775(3) 0.3589(2)
H25_3 H 0.3287 0.2971 0.3490
C41_3 C 0.30944(14) 0.7345(3) 0.4123(2)
C42_3 C 0.31307(15) 0.7574(3) 0.4905(2)
H26_3 H 0.3198 0.6951 0.5275
C43_3 C 0.35117(14) 0.5757(3) 0.3628(2)
H27_3 H 0.3715 0.6319 0.3551
C44_3 C 0.35585(15) 0.4568(4) 0.3476(3)
H28_3 H 0.3795 0.4311 0.3299
N1_3 N 0.70922(11) 0.5919(2) 0.61713(18)
C1_3 C 0.70207(13) 0.0363(3) 0.5391(2)
C2_3 C 0.71286(14) 0.4765(3) 0.6002(2)
H1_3 H 0.7361 0.4540 0.5805
C3_3 C 0.70485(13) 0.0589(3) 0.6172(2)
C4_3 C 0.70022(13) 0.1728(3) 0.6427(2)
C5_3 C 0.69310(14) 0.1295(3) 0.4847(2)
H3_3 H 0.6913 0.1158 0.4317
C7_3 C 0.71039(14) 0.1922(3) 0.7300(2)
C8_3 C 0.68367(14) 0.3899(3) 0.6106(2)
C9_3 C 0.67490(15) 0.6225(3) 0.6411(2)
H4_3 H 0.6713 0.7029 0.6510
C10_3 C 0.69056(14) 0.2655(3) 0.5877(2)
C11_3 C 0.68693(15) 0.2426(3) 0.5095(2)
H5_3 H 0.6802 0.3049 0.4725
C12_3 C 0.64883(14) 0.4243(3) 0.6372(2)
H6_3 H 0.6285 0.3681 0.6449
C14_3 C 0.64415(15) 0.5432(4) 0.6524(3)
H8_3 H 0.6205 0.5689 0.6701
H10_3 H 0.8665 0.0738 0.6655
C21_3 C 0.9241(2) 0.0594(6) 0.5703(5)
H13_3 H 0.9110 0.1230 0.5888
C22_3 C 0.9600(3) 0.0798(6) 0.5419(5)
H14_3 H 0.9705 0.1575 0.5411
O1_3 O 0.71376(9) 0.8322(2) 0.56241(14)
N2_3 N 0.81360(12) 0.8355(3) 0.61934(19)
N3_3 N 0.87138(12) 0.9262(3) 0.5992(2)
H2_3 H 0.7100 0.9959 0.6536
C6_3 C 0.71132(13) 0.9146(3) 0.5154(2)
C13_3 C 0.84418(16) 0.8288(4) 0.5854(3)
H7_3 H 0.8473 0.7640 0.5546
C15_3 C 0.82030(15) 0.9440(4) 0.6570(3)
H9_3 H 0.8027 0.9743 0.6864
C16_3 C 0.85506(17) 0.9991(4) 0.6457(3)
C17_3 C 0.90790(17) 0.9479(5) 0.5713(3)
C18_3 C 0.9253(2) 0.8617(5) 0.5378(4)
H11_3 H 0.9127 0.7855 0.5335
C19_3 C 0.9805(2) 0.9893(5) 0.5150(4)
C20_3 C 0.9605(2) 0.8812(5) 0.5098(4)
H12_3 H 0.9712 0.8185 0.4863
N1_4 N 0.29078(11) 0.5919(2) 0.88287(18)
C1_4 C 0.29793(13) 0.0363(3) 0.9609(2)
C2_4 C 0.28714(14) 0.4765(3) 0.8998(2)
H1_4 H 0.2639 0.4540 0.9195
C3_4 C 0.29515(13) 0.0589(3) 0.8828(2)
C4_4 C 0.29978(13) 0.1728(3) 0.8573(2)
C7_4 C 0.28961(14) 0.1922(3) 0.7700(2)
C8_4 C 0.31633(14) 0.3899(3) 0.8894(2)
C9_4 C 0.32510(15) 0.6225(3) 0.8589(2)
H4_4 H 0.3287 0.7029 0.8490
C10_4 C 0.30944(14) 0.2655(3) 0.9123(2)
C11_4 C 0.31307(15) 0.2426(3) 0.9905(2)
C12_4 C 0.35117(14) 0.4243(3) 0.8628(2)
H6_4 H 0.3715 0.3681 0.8551
C14_4 C 0.35585(15) 0.5432(4) 0.8476(3)
H8_4 H 0.3795 0.5689 0.8299
H10_4 H 0.1335 0.0738 0.8345
C21_4 C 0.0759(2) 0.0594(6) 0.9297(5)
H13_4 H 0.0890 0.1230 0.9112
C22_4 C 0.0400(3) 0.0798(6) 0.9581(5)
H14_4 H 0.0295 0.1575 0.9589
H12_4 H 0.0288 0.8185 0.0137
O1_4 O 0.28624(9) 0.8322(2) 0.93759(14)
N2_4 N 0.18640(12) 0.8355(3) 0.88066(19)
N3_4 N 0.12862(12) 0.9262(3) 0.9008(2)
H2_4 H 0.2900 0.9959 0.8464
C6_4 C 0.28868(13) 0.9146(3) 0.9846(2)
C13_4 C 0.15582(16) 0.8288(4) 0.9146(3)
H7_4 H 0.1527 0.7640 0.9454
C15_4 C 0.17970(15) 0.9440(4) 0.8430(3)
H9_4 H 0.1973 0.9743 0.8136
C16_4 C 0.14494(17) 0.9991(4) 0.8543(3)
C17_4 C 0.09210(17) 0.9479(5) 0.9287(3)
C18_4 C 0.0747(2) 0.8617(5) 0.9622(4)
H11_4 H 0.0873 0.7855 0.9665
C19_4 C 0.0195(2) 0.9893(5) 0.9850(4)
C20_4 C 0.0395(2) 0.8812(5) 0.9902(4)
N4_4 N 0.81360(12) 0.1645(3) 0.11934(19)
N5_4 N 0.87138(12) 0.0738(3) 0.0992(2)
C23_4 C 0.84418(16) 0.1712(4) 0.0854(3)
H15_4 H 0.8473 0.2360 0.0546
C24_4 C 0.82030(15) 0.0560(4) 0.1570(3)
H16_4 H 0.8027 0.0257 0.1864
C25_4 C 0.85506(17) 0.0009(4) 0.1457(3)
C26_4 C 0.90790(17) 0.0521(5) 0.0713(3)
C27_4 C 0.9253(2) 0.1383(5) 0.0378(4)
H18_4 H 0.9127 0.2145 0.0335
C28_4 C 0.9805(2) 0.0107(5) 0.0150(4)
C29_4 C 0.9605(2) 0.1188(5) 0.0098(4)
O5_4 O 0.71376(9) 0.1678(2) 0.06241(14)
H23_4 H 0.7100 0.0041 0.1536
C37_4 C 0.71132(13) 0.0854(3) 0.0154(2)
N8_4 N 0.70922(11) 0.4081(2) 0.11713(18)
H19_4 H 0.9712 0.1815 0.9863
H17_4 H 0.8665 0.9262 0.1655
C30_4 C 0.9241(2) 0.9406(6) 0.0703(5)
H20_4 H 0.9110 0.8770 0.0888
C31_4 C 0.9600(3) 0.9202(6) 0.0419(5)
H21_4 H 0.9705 0.8425 0.0411
C32_4 C 0.70207(13) 0.9637(3) 0.0391(2)
C33_4 C 0.71286(14) 0.5235(3) 0.1002(2)
H22_4 H 0.7361 0.5460 0.0805
C34_4 C 0.70485(13) 0.9411(3) 0.1172(2)
C35_4 C 0.70022(13) 0.8272(3) 0.1427(2)
C38_4 C 0.71039(14) 0.8078(3) 0.2300(2)
C39_4 C 0.68367(14) 0.6101(3) 0.1106(2)
C40_4 C 0.67490(15) 0.3775(3) 0.1411(2)
H25_4 H 0.6713 0.2971 0.1510
C41_4 C 0.69056(14) 0.7345(3) 0.0877(2)
C42_4 C 0.68693(15) 0.7574(3) 0.0095(2)
C43_4 C 0.64883(14) 0.5757(3) 0.1372(2)
H27_4 H 0.6285 0.6319 0.1449
C44_4 C 0.64415(15) 0.4568(4) 0.1524(3)
H28_4 H 0.6205 0.4311 0.1701
C5_4 C 0.30690(14) 0.1295(3) 0.0153(2)
H3_4 H 0.3087 0.1158 0.0683
H5_4 H 0.3198 0.3049 0.0275
C36_4 C 0.69310(14) 0.8705(3) 0.9847(2)
H24_4 H 0.6913 0.8842 0.9317
H26_4 H 0.6802 0.6951 0.9725
loop_
_geom_bond_atom_site_label_1
_geom_bond_atom_site_label_2
_geom_bond_site_symmetry_1
_geom_bond_site_symmetry_2
C9 N1 1_555 1_555
H4 C9 1_555 1_555
C14 C9 1_555 1_555
H8 C14 1_555 1_555
Co3 N1 1_555 1_555
Co3 O1 1_555 1_555
O1 C6 1_555 1_555
O2 C7 1_555 1_555
O3 C6 1_555 1_555
O4 C7 1_555 1_555
N2 Co3 1_555 1_555
N3 C13 1_555 1_555
C1 C3 1_555 1_555
C2 H1 1_555 1_555
C3 H2 1_555 1_555
C4 C3 1_555 1_555
C5 C1 1_555 1_555
H3 C5 1_555 1_555
C6 C1 1_555 1_555
C7 C4 1_555 1_555
C8 C2 1_555 1_555
C10 C4 1_555 1_555
C11 C5 1_555 1_555
H5 C11 1_555 1_555
C12 C8 1_555 1_555
H6 C12 1_555 1_555
C13 N2 1_555 1_555
H7 C13 1_555 1_555
C15 N2 1_555 1_555
H9 C15 1_555 1_555
C16 N3 1_555 1_555
H10 C16 1_555 1_555
C17 N3 1_555 1_555
C18 C17 1_555 1_555
H11 C18 1_555 1_555
C19 C20 1_555 1_555
C20 C18 1_555 1_555
H12 C20 1_555 1_555
C21 C17 1_555 1_555
H13 C21 1_555 1_555
C22 C19 1_555 1_555
H14 C22 1_555 1_555
N4 C23 1_555 1_555
N5 C23 1_555 1_555
C23 H15 1_555 1_555
C24 N4 1_555 1_555
H16 C24 1_555 1_555
C25 N5 1_555 1_555
H17 C25 1_555 1_555
C26 N5 1_555 1_555
C27 C26 1_555 1_555
H18 C27 1_555 1_555
C28 C19 1_555 1_555
C29 C27 1_555 1_555
H19 C29 1_555 1_555
C30 C26 1_555 1_555
H20 C30 1_555 1_555
C31 C28 1_555 1_555
H21 C31 1_555 1_555
Co2 N4 1_555 1_555
O5 Co2 1_555 1_555
O6 C38 1_555 1_555
O7 C37 1_555 1_555
O8 C38 1_555 1_555
C32 C34 1_555 1_555
C33 H22 1_555 1_555
C34 H23 1_555 1_555
C35 C34 1_555 1_555
C36 C32 1_555 1_555
H24 C36 1_555 1_555
C37 O5 1_555 1_555
C38 C35 1_555 1_555
C39 C33 1_555 1_555
C41 C35 1_555 1_555
C42 C36 1_555 1_555
H26 C42 1_555 1_555
C43 C39 1_555 1_555
H27 C43 1_555 1_555
Co4 O7 1_555 1_555
Co5 O2 1_555 1_555
Co7 O3 1_555 1_555
Co8 O6 1_555 1_555
O9 Co3 1_555 1_555
O10 Co2 1_555 1_555
O11 Co2 1_555 1_555
O12 Co3 1_555 1_555
O13 Co3 1_555 1_555
O14 Co2 1_555 1_555
N8 Co2 1_555 1_555
O4 Co5 1_555 1_555
C8 C10 1_555 1_555
C10 C11 1_555 1_555
C15 C16 1_555 1_555
C21 C22 1_555 1_555
C24 C25 1_555 1_555
C28 C29 1_555 1_555
C30 C31 1_555 1_555
O8 Co8 1_555 1_555
C32 C37 1_555 1_555
C39 C41 1_555 1_555
C41 C42 1_555 1_555
C40 N8 1_555 1_555
H25 C40 1_555 1_555
C44 C40 1_555 1_555
H28 C44 1_555 1_555
C9_2 N1_2 1_555 1_555
H4_2 C9_2 1_555 1_555
C14_2 C9_2 1_555 1_555
H8_2 C14_2 1_555 1_555
Co3_2 N1_2 1_555 1_555
H3_2 C5_2 1_555 1_555
N4_2 C23_2 1_555 1_555
N5_2 C23_2 1_555 1_555
C23_2 H15_2 1_555 1_555
C24_2 N4_2 1_555 1_555
H16_2 C24_2 1_555 1_555
C25_2 N5_2 1_555 1_555
H17_2 C25_2 1_555 1_555
C26_2 N5_2 1_555 1_555
C27_2 C26_2 1_555 1_555
H18_2 C27_2 1_555 1_555
C29_2 C27_2 1_555 1_555
C30_2 C26_2 1_555 1_555
H20_2 C30_2 1_555 1_555
C31_2 C28_2 1_555 1_555
H21_2 C31_2 1_555 1_555
Co2_2 N4_2 1_555 1_555
O5_2 Co2_2 1_555 1_555
O6_2 C38_2 1_555 1_555
O8_2 C38_2 1_555 1_555
C32_2 C34_2 1_555 1_555
C33_2 H22_2 1_555 1_555
C34_2 H23_2 1_555 1_555
C35_2 C34_2 1_555 1_555
C37_2 O5_2 1_555 1_555
C38_2 C35_2 1_555 1_555
C39_2 C33_2 1_555 1_555
C41_2 C35_2 1_555 1_555
C43_2 C39_2 1_555 1_555
H27_2 C43_2 1_555 1_555
Co8 O3_2 1_555 1_555
Co7 O6_2 1_555 1_555
O10_2 Co2_2 1_555 1_555
O11_2 Co2_2 1_555 1_555
O14_2 Co2_2 1_555 1_555
N8_2 Co2_2 1_555 1_555
C24_2 C25_2 1_555 1_555
C28_2 C29_2 1_555 1_555
C30_2 C31_2 1_555 1_555
O8_2 Co7 1_555 1_555
C32_2 C37_2 1_555 1_555
C39_2 C41_2 1_555 1_555
C41_2 C42_2 1_555 1_555
Co3_2 O1_2 1_555 1_555
O1_2 C6_2 1_555 1_555
O2_2 C7_2 1_555 1_555
O4_2 C7_2 1_555 1_555
N2_2 Co3_2 1_555 1_555
N3_2 C13_2 1_555 1_555
C1_2 C3_2 1_555 1_555
C2_2 H1_2 1_555 1_555
C3_2 H2_2 1_555 1_555
C4_2 C3_2 1_555 1_555
C6_2 C1_2 1_555 1_555
C7_2 C4_2 1_555 1_555
C8_2 C2_2 1_555 1_555
C10_2 C4_2 1_555 1_555
C12_2 C8_2 1_555 1_555
H6_2 C12_2 1_555 1_555
C13_2 N2_2 1_555 1_555
H7_2 C13_2 1_555 1_555
C15_2 N2_2 1_555 1_555
H9_2 C15_2 1_555 1_555
C16_2 N3_2 1_555 1_555
H10_2 C16_2 1_555 1_555
C17_2 N3_2 1_555 1_555
C18_2 C17_2 1_555 1_555
H11_2 C18_2 1_555 1_555
C19_2 C20_2 1_555 1_555
C20_2 C18_2 1_555 1_555
C21_2 C17_2 1_555 1_555
H13_2 C21_2 1_555 1_555
C22_2 C19_2 1_555 1_555
H14_2 C22_2 1_555 1_555
H24_2 C36_2 1_555 1_555
Co5 O7_2 1_555 1_555
Co4 O2_2 1_555 1_555
O9_2 Co3_2 1_555 1_555
O12_2 Co3_2 1_555 1_555
O13_2 Co3_2 1_555 1_555
O4_2 Co4 1_555 1_555
C8_2 C10_2 1_555 1_555
C10_2 C11_2 1_555 1_555
C15_2 C16_2 1_555 1_555
C21_2 C22_2 1_555 1_555
C40_2 N8_2 1_555 1_555
H25_2 C40_2 1_555 1_555
C44_2 C40_2 1_555 1_555
H28_2 C44_2 1_555 1_555
N4_3 C23_3 1_555 1_555
N5_3 C23_3 1_555 1_555
C23_3 H15_3 1_555 1_555
C24_3 N4_3 1_555 1_555
H16_3 C24_3 1_555 1_555
C25_3 N5_3 1_555 1_555
C26_3 N5_3 1_555 1_555
C27_3 C26_3 1_555 1_555
H18_3 C27_3 1_555 1_555
C29_3 C27_3 1_555 1_555
H19_3 C29_3 1_555 1_555
Co7 N4_3 1_555 1_555
O5_3 Co7 1_555 1_555
O12 C37_3 1_555 1_555
C37_3 O5_3 1_555 1_555
N8_3 Co7 1_555 1_555
C24_3 C25_3 1_555 1_555
C28_3 C29_3 1_555 1_555
H20_3 C30_3 1_555 1_555
H21_3 C31_3 1_555 1_555
O10_2 C38_3 1_555 1_555
O14_2 C38_3 1_555 1_555
N8_3 C33_3 1_555 1_555
C32_3 C34_3 1_555 1_555
C33_3 H22_3 1_555 1_555
C35_3 C34_3 1_555 1_555
C36_3 C32_3 1_555 1_555
H24_3 C36_3 1_555 1_555
C38_3 C35_3 1_555 1_555
C39_3 C33_3 1_555 1_555
C40_3 N8_3 1_555 1_555
H25_3 C40_3 1_555 1_555
C41_3 C35_3 1_555 1_555
C42_3 C36_3 1_555 1_555
H26_3 C42_3 1_555 1_555
C43_3 C39_3 1_555 1_555
H27_3 C43_3 1_555 1_555
C44_3 C40_3 1_555 1_555
H28_3 C44_3 1_555 1_555
C30_3 C31_3 1_555 1_555
C39_3 C41_3 1_555 1_555
C41_3 C42_3 1_555 1_555
C43_3 C44_3 1_555 1_555
O9_2 C7_3 1_555 1_555
O13_2 C7_3 1_555 1_555
N1_3 C2_3 1_555 1_555
C1_3 C3_3 1_555 1_555
C2_3 H1_3 1_555 1_555
C4_3 C3_3 1_555 1_555
C5_3 C1_3 1_555 1_555
H3_3 C5_3 1_555 1_555
C7_3 C4_3 1_555 1_555
C8_3 C2_3 1_555 1_555
C9_3 N1_3 1_555 1_555
H4_3 C9_3 1_555 1_555
C10_3 C4_3 1_555 1_555
C11_3 C5_3 1_555 1_555
H5_3 C11_3 1_555 1_555
C12_3 C8_3 1_555 1_555
H6_3 C12_3 1_555 1_555
C14_3 C9_3 1_555 1_555
H8_3 C14_3 1_555 1_555
H13_3 C21_3 1_555 1_555
H14_3 C22_3 1_555 1_555
Co4 N1_3 1_555 1_555
C8_3 C10_3 1_555 1_555
C10_3 C11_3 1_555 1_555
C12_3 C14_3 1_555 1_555
C21_3 C22_3 1_555 1_555
Co4 O1_3 1_555 1_555
O1_3 C6_3 1_555 1_555
O11 C6_3 1_555 1_555
N2_3 Co4 1_555 1_555
N3_3 C13_3 1_555 1_555
C13_3 N2_3 1_555 1_555
H7_3 C13_3 1_555 1_555
C15_3 N2_3 1_555 1_555
H9_3 C15_3 1_555 1_555
C16_3 N3_3 1_555 1_555
C17_3 N3_3 1_555 1_555
C18_3 C17_3 1_555 1_555
H11_3 C18_3 1_555 1_555
C19_3 C20_3 1_555 1_555
C20_3 C18_3 1_555 1_555
H12_3 C20_3 1_555 1_555
C15_3 C16_3 1_555 1_555
O9 C7_4 1_555 1_555
O13 C7_4 1_555 1_555
N1_4 C2_4 1_555 1_555
C1_4 C3_4 1_555 1_555
C2_4 H1_4 1_555 1_555
C4_4 C3_4 1_555 1_555
C7_4 C4_4 1_555 1_555
C8_4 C2_4 1_555 1_555
C9_4 N1_4 1_555 1_555
H4_4 C9_4 1_555 1_555
C10_4 C4_4 1_555 1_555
C12_4 C8_4 1_555 1_555
H6_4 C12_4 1_555 1_555
C14_4 C9_4 1_555 1_555
H8_4 C14_4 1_555 1_555
H13_4 C21_4 1_555 1_555
H14_4 C22_4 1_555 1_555
Co5 N1_4 1_555 1_555
C8_4 C10_4 1_555 1_555
C10_4 C11_4 1_555 1_555
C12_4 C14_4 1_555 1_555
C21_4 C22_4 1_555 1_555
Co5 O1_4 1_555 1_555
O1_4 C6_4 1_555 1_555
N2_4 Co5 1_555 1_555
N3_4 C13_4 1_555 1_555
C13_4 N2_4 1_555 1_555
H7_4 C13_4 1_555 1_555
C15_4 N2_4 1_555 1_555
H9_4 C15_4 1_555 1_555
C16_4 N3_4 1_555 1_555
C17_4 N3_4 1_555 1_555
C18_4 C17_4 1_555 1_555
H11_4 C18_4 1_555 1_555
C19_4 C20_4 1_555 1_555
C20_4 C18_4 1_555 1_555
C15_4 C16_4 1_555 1_555
N4_4 C23_4 1_555 1_555
N5_4 C23_4 1_555 1_555
C23_4 H15_4 1_555 1_555
C24_4 N4_4 1_555 1_555
H16_4 C24_4 1_555 1_555
C25_4 N5_4 1_555 1_555
C26_4 N5_4 1_555 1_555
C27_4 C26_4 1_555 1_555
H18_4 C27_4 1_555 1_555
C29_4 C27_4 1_555 1_555
Co8 N4_4 1_555 1_555
O5_4 Co8 1_555 1_555
C37_4 O5_4 1_555 1_555
N8_4 Co8 1_555 1_555
C24_4 C25_4 1_555 1_555
C28_4 C29_4 1_555 1_555
H20_4 C30_4 1_555 1_555
H21_4 C31_4 1_555 1_555
O10 C38_4 1_555 1_555
O14 C38_4 1_555 1_555
N8_4 C33_4 1_555 1_555
C32_4 C34_4 1_555 1_555
C33_4 H22_4 1_555 1_555
C35_4 C34_4 1_555 1_555
C38_4 C35_4 1_555 1_555
C39_4 C33_4 1_555 1_555
C40_4 N8_4 1_555 1_555
H25_4 C40_4 1_555 1_555
C41_4 C35_4 1_555 1_555
C43_4 C39_4 1_555 1_555
H27_4 C43_4 1_555 1_555
C44_4 C40_4 1_555 1_555
H28_4 C44_4 1_555 1_555
C30_4 C31_4 1_555 1_555
C39_4 C41_4 1_555 1_555
C41_4 C42_4 1_555 1_555
C43_4 C44_4 1_555 1_555
H3_4 C5_4 1_555 1_555
H24_4 C36_4 1_555 1_555

#END
