
###############################################################################
#
# This file contains modified crystal structure data generated from the
# MOF subset of the Cambridge Structural Database (CSD) v543 
# hosted by the Cambridge Crystallographic Data Centre (CCDC).
#
# This work is licensed under the Creative Commons
# Attribution-NonCommercial-ShareAlike 4.0 International License.
# To view a copy of this license, visit
# http://creativecommons.org/licenses/by-nc-sa/4.0/
# or send a letter to
# Creative Commons, PO Box 1866, Mountain View, CA 94042, USA.
#
# CIF created using the CSD Python API on 29 September 2022
# The structure has been converted into the P1 space group
# The structure has a 3D framework
# The original CSD entry HAYLIE is in the monoclinic crystal system
# The original CSD entry HAYLIE is in a Sohncke space group
# The framework has been calculated to contain at least 10.0% void space
# The void calculation uses a probe of radius 1.32A, grid spacing 0.4
# The framework is charged, counterions have been retained in the structure
#
###############################################################################

data_HAYLIE
_chemical_formula_moiety         '(C84 H104 N28 O32 Zn4)n'
_symmetry_cell_setting           triclinic
_symmetry_space_group_name_H-M   'P 1'
_symmetry_Int_Tables_number      1
_space_group_name_Hall           'P 1'
loop_
_symmetry_equiv_pos_site_id
_symmetry_equiv_pos_as_xyz
1 x,y,z
_cell_length_a                   10.3039(4)
_cell_length_b                   24.9425(10)
_cell_length_c                   11.5740(4)
_cell_angle_alpha                90
_cell_angle_beta                 93.1970(10)
_cell_angle_gamma                90
_cell_volume                     2969.95
loop_
_atom_site_label
_atom_site_type_symbol
_atom_site_fract_x
_atom_site_fract_y
_atom_site_fract_z
Zn4 Zn 0.06993(3) 0.146780(14) 0.43502(3)
Zn1 Zn 0.56823(4) 0.220094(14) 0.41441(3)
O1 O 0.7620(2) 0.19164(10) 0.4199(2)
O2 O 0.8839(2) 0.11711(10) 0.4272(2)
O3 O 0.2628(2) 0.17874(10) 0.4451(2)
O4 O 0.3796(2) 0.25003(10) 0.4005(2)
N1 N 0.6347(3) 0.30147(14) 0.4389(3)
N2 N 0.8485(3) 0.56755(12) 0.5548(2)
N3 N 0.5749(3) 0.23036(15) 0.2219(3)
N5 N 0.0646(3) 0.13940(14) 0.2394(2)
N7 N 0.5354(3) 0.13638(14) 0.4023(3)
H1 H 0.4746 0.1266 0.4537
H2 H 0.5024 0.1281 0.3290
N9 N 0.0375(3) 0.23065(13) 0.4242(3)
H7 H 0.0250 0.2441 0.4968
N10 N 0.1894(4) 0.44545(17) 0.2257(4)
H8 H 0.1985 0.4123 0.1942
H9 H 0.2636 0.4646 0.2181
H10 H 0.1214 0.4627 0.1884
C1 C 0.5721(4) 0.34315(16) 0.3901(3)
H11 H 0.5006 0.3366 0.3365
C2 C 0.6079(4) 0.39617(16) 0.4148(3)
H12 H 0.5605 0.4249 0.3790
C3 C 0.7122(4) 0.40660(15) 0.4913(3)
C4 C 0.7785(4) 0.36297(16) 0.5417(3)
H13 H 0.8515 0.3684 0.5942
C5 C 0.7360(3) 0.31163(15) 0.5139(3)
H14 H 0.7807 0.2821 0.5496
C6 C 0.7558(4) 0.55603(16) 0.4730(3)
H15 H 0.7195 0.5847 0.4280
C7 C 0.7106(4) 0.50566(15) 0.4503(3)
H16 H 0.6470 0.4998 0.3890
C8 C 0.7575(3) 0.46277(15) 0.5168(3)
C9 C 0.8495(4) 0.47439(16) 0.6051(3)
H17 H 0.8823 0.4467 0.6549
C10 C 0.8935(4) 0.52661(17) 0.6205(3)
H18 H 0.9583 0.5337 0.6801
C11 C 0.4679(4) 0.24046(18) 0.1545(3)
H19 H 0.3899 0.2483 0.1912
C12 C 0.4639(4) 0.24026(17) 0.0350(3)
C14 C 0.6897(4) 0.2229(2) 0.0483(3)
H21 H 0.7709 0.2186 0.0143
C15 C 0.6835(4) 0.2221(2) 0.1664(3)
H22 H 0.7615 0.2152 0.2117
C21 C 0.1705(4) 0.1508(2) 0.1826(3)
H27 H 0.2486 0.1586 0.2269
C22 C 0.1735(4) 0.1521(2) 0.0637(3)
H28 H 0.2512 0.1619 0.0286
C31 C 0.7762(3) 0.14177(17) 0.4243(3)
C32 C 0.6570(3) 0.10546(16) 0.4278(3)
H35 H 0.6540 0.0922 0.5091
C33 C 0.6704(4) 0.05621(17) 0.3512(4)
H36 H 0.6645 0.0680 0.2694
H37 H 0.7583 0.0409 0.3670
C34 C 0.5725(5) 0.0125(2) 0.3652(5)
H38 H 0.4840 0.0281 0.3616
C37 C 0.2738(3) 0.22627(15) 0.4116(2)
C38 C 0.1500(3) 0.25806(14) 0.3751(3)
H44 H 0.1378 0.2542 0.2892
C39 C 0.1606(4) 0.31792(16) 0.3992(4)
H45 H 0.1613 0.3239 0.4838
H46 H 0.2441 0.3312 0.3721
C40 C 0.0507(5) 0.34975(19) 0.3410(5)
H48 H 0.0572 0.3475 0.2561
C41 C 0.0497(5) 0.40914(19) 0.3768(5)
H50 H 0.0394 0.4110 0.4613
C42 C 0.1645(6) 0.4400(2) 0.3504(5)
H51 H 0.2414 0.4230 0.3902
H52 H 0.1561 0.4764 0.3834
Zn5 Zn 0.93007(3) 0.646780(14) 0.56498(3)
N11 N 0.1515(3) 0.06755(12) 0.4452(2)
N12 N 0.5693(3) 0.21814(15) 0.6081(2)
N13 N 0.0663(3) 0.14466(16) 0.6257(2)
H20 H 0.3845 0.2469 0.9916
C13 C 0.5770(4) 0.23018(17) 0.9789(3)
C16 C 0.4819(4) 0.24829(18) 0.6614(3)
H23 H 0.4180 0.2670 0.6149
C17 C 0.4805(4) 0.25351(17) 0.7812(3)
H24 H 0.4164 0.2748 0.8152
C18 C 0.5756(4) 0.22671(19) 0.8505(3)
C19 C 0.6641(4) 0.19624(18) 0.7961(3)
H25 H 0.7296 0.1772 0.8401
C20 C 0.6575(4) 0.19326(18) 0.6763(3)
H26 H 0.7205 0.1720 0.6408
C23 C 0.0629(4) 0.13896(17) 0.9954(3)
C26 C 0.1414(4) 0.17658(18) 0.6934(3)
H31 H 0.1968 0.2011 0.6572
C27 C 0.1437(4) 0.17624(19) 0.8118(3)
H32 H 0.1990 0.2001 0.8555
C28 C 0.0632(4) 0.14021(18) 0.8679(3)
H6 H 0.9636 0.2373 0.3781
C24 C 0.9555(4) 0.12388(17) 0.0540(3)
H29 H 0.8789 0.1121 0.0120
C25 C 0.9589(4) 0.12576(17) 0.1723(3)
H30 H 0.8819 0.1169 0.2094
H47 H 0.9671 0.3332 0.3599
H49 H 0.9726 0.4265 0.3380
H6_2 H 0.0364 0.7373 0.6219
C24_2 C 0.0445(4) 0.62388(17) 0.9460(3)
H29_2 H 0.1211 0.6121 0.9880
C25_2 C 0.0411(4) 0.62576(17) 0.8277(3)
H30_2 H 0.1181 0.6169 0.7906
H47_2 H 0.0329 0.8332 0.6401
H49_2 H 0.0274 0.9265 0.6620
O5 O 0.1161(2) 0.61711(10) 0.5728(2)
C6_2 C 0.2442(4) 0.05603(16) 0.5270(3)
H15_2 H 0.2805 0.0847 0.5720
C7_2 C 0.2894(4) 0.00566(15) 0.5497(3)
C10_2 C 0.1065(4) 0.02661(17) 0.3795(3)
H18_2 H 0.0417 0.0337 0.3199
N4 N 0.4307(3) 0.71814(15) 0.3919(2)
N6 N 0.9337(3) 0.64466(16) 0.3743(2)
H20_2 H 0.6155 0.7469 0.0084
C13_2 C 0.4230(4) 0.73018(17) 0.0211(3)
C16_2 C 0.5181(4) 0.74829(18) 0.3386(3)
H23_2 H 0.5820 0.7670 0.3851
C17_2 C 0.5195(4) 0.75351(17) 0.2188(3)
H24_2 H 0.5836 0.7748 0.1848
C18_2 C 0.4244(4) 0.72671(19) 0.1495(3)
C19_2 C 0.3359(4) 0.69624(18) 0.2039(3)
H25_2 H 0.2704 0.6772 0.1599
C20_2 C 0.3425(4) 0.69326(18) 0.3237(3)
H26_2 H 0.2795 0.6720 0.3592
C23_2 C 0.9371(4) 0.63896(17) 0.0046(3)
C26_2 C 0.8586(4) 0.67658(18) 0.3066(3)
H31_2 H 0.8032 0.7011 0.3428
C27_2 C 0.8563(4) 0.67624(19) 0.1882(3)
H32_2 H 0.8010 0.7001 0.1445
C28_2 C 0.9368(4) 0.64021(18) 0.1321(3)
Zn3 Zn 0.43177(4) 0.720094(14) 0.58559(3)
O1_2 O 0.2380(2) 0.69164(10) 0.5801(2)
O3_2 O 0.7372(2) 0.67874(10) 0.5549(2)
O4_2 O 0.6204(2) 0.75003(10) 0.5995(2)
N1_2 N 0.3653(3) 0.80147(14) 0.5611(3)
N3_2 N 0.4251(3) 0.73036(15) 0.7781(3)
N5_2 N 0.9354(3) 0.63940(14) 0.7606(2)
N7_2 N 0.4646(3) 0.63638(14) 0.5977(3)
H1_2 H 0.5254 0.6266 0.5463
H2_2 H 0.4976 0.6281 0.6710
N8 N 0.2724(5) 0.40999(18) 0.8319(4)
H3 H 0.3455 0.3925 0.8589
H4 H 0.2068 0.3859 0.8191
H5 H 0.2491 0.4345 0.8852
N9_2 N 0.9625(3) 0.73065(13) 0.5758(3)
H7_2 H 0.9750 0.7441 0.5032
N10_2 N 0.8106(4) 0.94545(17) 0.7743(4)
H8_2 H 0.8015 0.9123 0.8058
H9_2 H 0.7364 0.9646 0.7819
H10_2 H 0.8786 0.9627 0.8116
C1_2 C 0.4279(4) 0.84315(16) 0.6099(3)
H11_2 H 0.4994 0.8366 0.6635
C2_2 C 0.3921(4) 0.89617(16) 0.5852(3)
H12_2 H 0.4395 0.9249 0.6210
C3_2 C 0.2878(4) 0.90660(15) 0.5087(3)
C4_2 C 0.2215(4) 0.86297(16) 0.4583(3)
H13_2 H 0.1485 0.8684 0.4058
C5_2 C 0.2640(3) 0.81163(15) 0.4861(3)
H14_2 H 0.2193 0.7821 0.4504
H16_2 H 0.3530 0.9998 0.6110
C8_2 C 0.2425(3) 0.96277(15) 0.4832(3)
C9_2 C 0.1505(4) 0.97439(16) 0.3949(3)
H17_2 H 0.1177 0.9467 0.3451
C11_2 C 0.5321(4) 0.74046(18) 0.8455(3)
H19_2 H 0.6101 0.7483 0.8088
C12_2 C 0.5361(4) 0.74026(17) 0.9650(3)
C14_2 C 0.3103(4) 0.7229(2) 0.9517(3)
H21_2 H 0.2291 0.7186 0.9857
C15_2 C 0.3165(4) 0.7221(2) 0.8336(3)
H22_2 H 0.2385 0.7152 0.7883
C21_2 C 0.8295(4) 0.6508(2) 0.8174(3)
H27_2 H 0.7514 0.6586 0.7731
C22_2 C 0.8265(4) 0.6521(2) 0.9363(3)
H28_2 H 0.7488 0.6619 0.9714
C31_2 C 0.2238(3) 0.64177(17) 0.5757(3)
C32_2 C 0.3430(3) 0.60546(16) 0.5722(3)
H35_2 H 0.3460 0.5922 0.4909
C33_2 C 0.3296(4) 0.55621(17) 0.6488(4)
H36_2 H 0.3355 0.5680 0.7306
H37_2 H 0.2417 0.5409 0.6330
C34_2 C 0.4275(5) 0.5125(2) 0.6348(5)
H38_2 H 0.5160 0.5281 0.6384
H39 H 0.4119 0.4954 0.5581
C35 C 0.4182(6) 0.4697(2) 0.7308(6)
H40 H 0.4935 0.4452 0.7281
H41 H 0.4235 0.4878 0.8071
C36 C 0.2985(6) 0.4383(3) 0.7199(6)
H42 H 0.3055 0.4114 0.6577
H43 H 0.2246 0.4622 0.6979
C37_2 C 0.7262(3) 0.72627(15) 0.5884(2)
C38_2 C 0.8500(3) 0.75806(14) 0.6249(3)
H44_2 H 0.8622 0.7542 0.7108
C39_2 C 0.8394(4) 0.81792(16) 0.6008(4)
H45_2 H 0.8387 0.8239 0.5162
H46_2 H 0.7559 0.8312 0.6279
C40_2 C 0.9493(5) 0.84975(19) 0.6590(5)
H48_2 H 0.9428 0.8475 0.7439
C41_2 C 0.9503(5) 0.90914(19) 0.6232(5)
H50_2 H 0.9606 0.9110 0.5387
C42_2 C 0.8355(6) 0.9400(2) 0.6496(5)
H51_2 H 0.7586 0.9230 0.6098
H52_2 H 0.8439 0.9764 0.6166
N8_2 N 0.7276(5) 0.90999(18) 0.1681(4)
H3_2 H 0.6545 0.8925 0.1411
H4_2 H 0.7932 0.8859 0.1809
H5_2 H 0.7509 0.9345 0.1148
H39_2 H 0.5881 0.9954 0.4419
C35_2 C 0.5818(6) 0.9697(2) 0.2692(6)
H40_2 H 0.5065 0.9452 0.2719
H41_2 H 0.5765 0.9878 0.1929
C36_2 C 0.7015(6) 0.9383(3) 0.2801(6)
H42_2 H 0.6945 0.9114 0.3423
H43_2 H 0.7754 0.9622 0.3021
C29 C 0.9853(4) 0.10713(18) 0.7973(3)
H33 H 0.9300 0.0817 0.8306
C30 C 0.9881(4) 0.11110(17) 0.6800(3)
H34 H 0.9313 0.0888 0.6339
C29_2 C 0.0147(4) 0.60713(18) 0.2027(3)
H33_2 H 0.0700 0.5817 0.1694
C30_2 C 0.0119(4) 0.61110(17) 0.3200(3)
H34_2 H 0.0687 0.5888 0.3661
O8 O 0.0058(5) 0.9887(2) 0.9409(5)
N14 N 0.9419(6) 0.9875(2) 0.0281(5)
O6 O 0.8211(5) 0.9923(2) 0.0153(4)
O7 O 0.9935(6) 0.9850(2) 0.1267(4)
N14_2 N 0.0581(6) 0.4875(2) 0.9719(5)
O6_2 O 0.1789(5) 0.4923(2) 0.9847(4)
O7_2 O 0.0065(6) 0.4850(2) 0.8733(4)
O8_2 O 0.9942(5) 0.4887(2) 0.0591(5)
O11 O 0.0025(3) 0.78428(14) 0.3412(3)
N15 N 0.9215(4) 0.81777(17) 0.3054(3)
O9 O 0.9535(4) 0.86466(16) 0.2816(4)
O10 O 0.8025(4) 0.80580(18) 0.2939(4)
N15_2 N 0.0785(4) 0.31777(17) 0.6946(3)
O9_2 O 0.0465(4) 0.36466(16) 0.7184(4)
O10_2 O 0.1975(4) 0.30580(18) 0.7061(4)
O11_2 O 0.9975(3) 0.28428(14) 0.6588(3)
N16 N 0.5965(4) 0.04442(16) 0.7044(3)
O13 O 0.7113(3) 0.05824(15) 0.7120(3)
O14 O 0.5102(3) 0.07704(15) 0.6750(3)
O12 O 0.5668(3) 0.99631(14) 0.7245(3)
N16_2 N 0.4035(4) 0.54442(16) 0.2956(3)
O12_2 O 0.4332(3) 0.49631(14) 0.2755(3)
O13_2 O 0.2887(3) 0.55824(15) 0.2880(3)
O14_2 O 0.4898(3) 0.57704(15) 0.3250(3)
N17 N 0.8082(6) 0.8281(2) 0.9323(6)
O15 O 0.7168(5) 0.8458(2) 0.8613(5)
O16 O 0.8287(5) 0.7804(2) 0.9411(7)
O17 O 0.8814(6) 0.8622(2) 0.9766(6)
N17_2 N 0.1918(6) 0.3281(2) 0.0677(6)
O15_2 O 0.2832(5) 0.3458(2) 0.1387(5)
O16_2 O 0.1713(5) 0.2804(2) 0.0589(7)
O17_2 O 0.1186(6) 0.3622(2) 0.0234(6)
loop_
_geom_bond_atom_site_label_1
_geom_bond_atom_site_label_2
_geom_bond_site_symmetry_1
_geom_bond_site_symmetry_2
Zn1 O1 1_555 1_555
Zn4 O3 1_555 1_555
O1 C31 1_555 1_555
O2 C31 1_555 1_555
O3 C37 1_555 1_555
O4 Zn1 1_555 1_555
N1 Zn1 1_555 1_555
N2 C6 1_555 1_555
N3 Zn1 1_555 1_555
N5 Zn4 1_555 1_555
N7 Zn1 1_555 1_555
H1 N7 1_555 1_555
H2 N7 1_555 1_555
N9 Zn4 1_555 1_555
H7 N9 1_555 1_555
N10 H8 1_555 1_555
H9 N10 1_555 1_555
H10 N10 1_555 1_555
C1 N1 1_555 1_555
H11 C1 1_555 1_555
C2 C1 1_555 1_555
H12 C2 1_555 1_555
C3 C2 1_555 1_555
C4 C3 1_555 1_555
H13 C4 1_555 1_555
C5 N1 1_555 1_555
H14 C5 1_555 1_555
C6 H15 1_555 1_555
C7 C6 1_555 1_555
H16 C7 1_555 1_555
C8 C3 1_555 1_555
C9 C8 1_555 1_555
H17 C9 1_555 1_555
C10 N2 1_555 1_555
H18 C10 1_555 1_555
C11 N3 1_555 1_555
H19 C11 1_555 1_555
C12 C11 1_555 1_555
H21 C14 1_555 1_555
C15 N3 1_555 1_555
H22 C15 1_555 1_555
C21 N5 1_555 1_555
H27 C21 1_555 1_555
C22 C21 1_555 1_555
H28 C22 1_555 1_555
C31 C32 1_555 1_555
C32 N7 1_555 1_555
H35 C32 1_555 1_555
C33 C32 1_555 1_555
H36 C33 1_555 1_555
H37 C33 1_555 1_555
C34 C33 1_555 1_555
H38 C34 1_555 1_555
C37 O4 1_555 1_555
C38 N9 1_555 1_555
H44 C38 1_555 1_555
C39 C38 1_555 1_555
H45 C39 1_555 1_555
H46 C39 1_555 1_555
C40 C39 1_555 1_555
H48 C40 1_555 1_555
C41 C40 1_555 1_555
H50 C41 1_555 1_555
C42 N10 1_555 1_555
H51 C42 1_555 1_555
H52 C42 1_555 1_555
Zn5 N2 1_555 1_555
N11 Zn4 1_555 1_555
N12 Zn1 1_555 1_555
N13 Zn4 1_555 1_555
C4 C5 1_555 1_555
C7 C8 1_555 1_555
C9 C10 1_555 1_555
C14 C15 1_555 1_555
C37 C38 1_555 1_555
C41 C42 1_555 1_555
N12 C16 1_555 1_555
N13 C26 1_555 1_555
C16 H23 1_555 1_555
C17 C16 1_555 1_555
H24 C17 1_555 1_555
C18 C13 1_555 1_555
C19 C18 1_555 1_555
H25 C19 1_555 1_555
C20 N12 1_555 1_555
H26 C20 1_555 1_555
C26 H31 1_555 1_555
C27 C26 1_555 1_555
H32 C27 1_555 1_555
C28 C23 1_555 1_555
C17 C18 1_555 1_555
C19 C20 1_555 1_555
C27 C28 1_555 1_555
H29 C24 1_555 1_555
H30 C25 1_555 1_555
C24 C25 1_555 1_555
H29_2 C24_2 1_555 1_555
H30_2 C25_2 1_555 1_555
C24_2 C25_2 1_555 1_555
N11 C6_2 1_555 1_555
C6_2 H15_2 1_555 1_555
C7_2 C6_2 1_555 1_555
C10_2 N11 1_555 1_555
H18_2 C10_2 1_555 1_555
N4 C16_2 1_555 1_555
N6 C26_2 1_555 1_555
C16_2 H23_2 1_555 1_555
C17_2 C16_2 1_555 1_555
H24_2 C17_2 1_555 1_555
C18_2 C13_2 1_555 1_555
C19_2 C18_2 1_555 1_555
H25_2 C19_2 1_555 1_555
C20_2 N4 1_555 1_555
H26_2 C20_2 1_555 1_555
C26_2 H31_2 1_555 1_555
C27_2 C26_2 1_555 1_555
H32_2 C27_2 1_555 1_555
C28_2 C23_2 1_555 1_555
Zn3 N4 1_555 1_555
Zn5 N6 1_555 1_555
C17_2 C18_2 1_555 1_555
C19_2 C20_2 1_555 1_555
C27_2 C28_2 1_555 1_555
Zn3 O1_2 1_555 1_555
Zn5 O3_2 1_555 1_555
O1_2 C31_2 1_555 1_555
O5 C31_2 1_555 1_555
O3_2 C37_2 1_555 1_555
O4_2 Zn3 1_555 1_555
N1_2 Zn3 1_555 1_555
N3_2 Zn3 1_555 1_555
N5_2 Zn5 1_555 1_555
N7_2 Zn3 1_555 1_555
H1_2 N7_2 1_555 1_555
H2_2 N7_2 1_555 1_555
N8 H3 1_555 1_555
H4 N8 1_555 1_555
H5 N8 1_555 1_555
N9_2 Zn5 1_555 1_555
H7_2 N9_2 1_555 1_555
N10_2 H8_2 1_555 1_555
H9_2 N10_2 1_555 1_555
H10_2 N10_2 1_555 1_555
C1_2 N1_2 1_555 1_555
H11_2 C1_2 1_555 1_555
C2_2 C1_2 1_555 1_555
H12_2 C2_2 1_555 1_555
C3_2 C2_2 1_555 1_555
C4_2 C3_2 1_555 1_555
H13_2 C4_2 1_555 1_555
C5_2 N1_2 1_555 1_555
H14_2 C5_2 1_555 1_555
C8_2 C3_2 1_555 1_555
C9_2 C8_2 1_555 1_555
H17_2 C9_2 1_555 1_555
C11_2 N3_2 1_555 1_555
H19_2 C11_2 1_555 1_555
C12_2 C11_2 1_555 1_555
H21_2 C14_2 1_555 1_555
C15_2 N3_2 1_555 1_555
H22_2 C15_2 1_555 1_555
C21_2 N5_2 1_555 1_555
H27_2 C21_2 1_555 1_555
C22_2 C21_2 1_555 1_555
H28_2 C22_2 1_555 1_555
C31_2 C32_2 1_555 1_555
C32_2 N7_2 1_555 1_555
H35_2 C32_2 1_555 1_555
C33_2 C32_2 1_555 1_555
H36_2 C33_2 1_555 1_555
H37_2 C33_2 1_555 1_555
C34_2 C33_2 1_555 1_555
H38_2 C34_2 1_555 1_555
H39 C34_2 1_555 1_555
C35 C34_2 1_555 1_555
H40 C35 1_555 1_555
H41 C35 1_555 1_555
C36 N8 1_555 1_555
H42 C36 1_555 1_555
H43 C36 1_555 1_555
C37_2 O4_2 1_555 1_555
C38_2 N9_2 1_555 1_555
H44_2 C38_2 1_555 1_555
C39_2 C38_2 1_555 1_555
H45_2 C39_2 1_555 1_555
H46_2 C39_2 1_555 1_555
C40_2 C39_2 1_555 1_555
H48_2 C40_2 1_555 1_555
C41_2 C40_2 1_555 1_555
H50_2 C41_2 1_555 1_555
C42_2 N10_2 1_555 1_555
H51_2 C42_2 1_555 1_555
H52_2 C42_2 1_555 1_555
C4_2 C5_2 1_555 1_555
C14_2 C15_2 1_555 1_555
C35 C36 1_555 1_555
C37_2 C38_2 1_555 1_555
C41_2 C42_2 1_555 1_555
N8_2 H3_2 1_555 1_555
H4_2 N8_2 1_555 1_555
H5_2 N8_2 1_555 1_555
H40_2 C35_2 1_555 1_555
H41_2 C35_2 1_555 1_555
C36_2 N8_2 1_555 1_555
H42_2 C36_2 1_555 1_555
H43_2 C36_2 1_555 1_555
C35_2 C36_2 1_555 1_555
H33 C29 1_555 1_555
H34 C30 1_555 1_555
C29 C30 1_555 1_555
H33_2 C29_2 1_555 1_555
H34_2 C30_2 1_555 1_555
C29_2 C30_2 1_555 1_555
N14 O6 1_555 1_555
O7 N14 1_555 1_555
N14_2 O6_2 1_555 1_555
O7_2 N14_2 1_555 1_555
N15 O9 1_555 1_555
O10 N15 1_555 1_555
N15_2 O9_2 1_555 1_555
O10_2 N15_2 1_555 1_555
O13 N16 1_555 1_555
O14 N16 1_555 1_555
N16_2 O12_2 1_555 1_555
O13_2 N16_2 1_555 1_555
O14_2 N16_2 1_555 1_555
N17 O15 1_555 1_555
O16 N17 1_555 1_555
O17 N17 1_555 1_555
N17_2 O15_2 1_555 1_555
O16_2 N17_2 1_555 1_555
O17_2 N17_2 1_555 1_555

#END
