
###############################################################################
#
# This file contains modified crystal structure data generated from the
# MOF subset of the Cambridge Structural Database (CSD) v543 
# hosted by the Cambridge Crystallographic Data Centre (CCDC).
#
# This work is licensed under the Creative Commons
# Attribution-NonCommercial-ShareAlike 4.0 International License.
# To view a copy of this license, visit
# http://creativecommons.org/licenses/by-nc-sa/4.0/
# or send a letter to
# Creative Commons, PO Box 1866, Mountain View, CA 94042, USA.
#
# CIF created using the CSD Python API on 29 September 2022
# The structure has been converted into the P1 space group
# The structure has a 3D framework
# The original CSD entry HAYSUY is in the monoclinic crystal system
# The framework has been calculated to contain at least 10.0% void space
# The void calculation uses a probe of radius 1.32A, grid spacing 0.4
#
###############################################################################

data_HAYSUY
_chemical_formula_moiety         '(C288 H302 In26 O163)n'
_symmetry_cell_setting           triclinic
_symmetry_space_group_name_H-M   'P 1'
_symmetry_Int_Tables_number      1
_space_group_name_Hall           'P 1'
loop_
_symmetry_equiv_pos_site_id
_symmetry_equiv_pos_as_xyz
1 x,y,z
_cell_length_a                   28.6416(3)
_cell_length_b                   12.87410(10)
_cell_length_c                   27.4992(2)
_cell_angle_alpha                90
_cell_angle_beta                 100.7780(10)
_cell_angle_gamma                90
_cell_volume                     9961.04
loop_
_atom_site_label
_atom_site_type_symbol
_atom_site_fract_x
_atom_site_fract_y
_atom_site_fract_z
In2 In 0.0000 -0.0000 0.0000
O6 O 0.42141(17) 0.1922(4) 0.30892(18)
O10 O 0.42562(18) 0.1400(4) 0.38734(19)
C6 C 0.1816(2) 0.0114(5) 0.2534(2)
C10 C 0.2090(2) 0.0165(5) 0.3012(2)
C22 C 0.2589(2) 0.0536(5) 0.3102(2)
C23 C 0.2702(2) 0.1590(5) 0.3084(2)
O14 O 0.23199(17) 0.2230(4) 0.29749(19)
C24 C 0.3431(2) 0.0122(6) 0.3324(2)
C25 C 0.3174(2) 0.1914(6) 0.3181(3)
H13 H 0.3249 0.2614 0.3162
C27 C 0.2418(3) 0.3326(6) 0.2976(3)
H17 H 0.2125 0.3703 0.2893
H18 H 0.2613 0.3475 0.2737
H19 H 0.2581 0.3532 0.3299
O19 O 0.20319(16) 0.0468(3) 0.21645(16)
C31 C 0.1779(2) 0.0337(6) 0.1667(2)
H29 H 0.1965 0.0614 0.1441
H30 H 0.1481 0.0698 0.1626
C32 C 0.3533(2) 0.1184(6) 0.3307(2)
C35 C 0.4039(2) 0.1535(5) 0.3431(2)
In9 In 0.471229(17) 0.24197(3) 0.439505(17)
In10 In 0.0000 -0.0000 0.5000
In14 In 0.491142(14) 0.25998(3) 0.312974(14)
In2_2 In 0.0000 -0.0000 1.0000
O44 O 0.0121(2) 0.1574(5) 0.9902(2)
In1 In 0.028771(17) 0.74197(3) 0.060495(17)
In2_3 In 0.0000 1.0000 0.0000
O1 O 0.01861(17) 0.8327(4) 0.12162(17)
H1 H 0.0185 0.9048 0.1195
O2 O 0.04741(16) 0.8808(4) 0.23215(16)
O5 O 0.05615(17) 0.8430(4) 0.31338(17)
H2 H 0.0585 0.5704 0.0066
C1 C 0.0704(2) 0.8810(5) 0.2761(2)
C3 C 0.1893(2) 0.9790(5) 0.3412(2)
C7 C 0.1178(2) 0.9326(5) 0.2853(2)
C9 C 0.1438(2) 0.9365(5) 0.3334(2)
H4 H 0.1311 0.9112 0.3598
C13 C 0.1361(2) 0.9708(5) 0.2452(2)
H5 H 0.1180 0.9690 0.2134
C21 C 0.2961(2) 0.9809(5) 0.3218(2)
O16 O 0.28160(18) 0.8803(4) 0.3227(2)
H12 H 0.3674 0.9638 0.3404
O20 O 0.21794(17) 0.9872(4) 0.38640(17)
H31 H 0.1722 0.9611 0.1601
C33 C 0.2008(3) 0.9439(7) 0.4273(3)
H32 H 0.2239 0.9547 0.4570
H33 H 0.1955 0.8708 0.4220
H34 H 0.1715 0.9770 0.4304
C34 C 0.3175(3) 0.8018(7) 0.3317(5)
H35 H 0.3028 0.7348 0.3313
H36 H 0.3375 0.8134 0.3633
H37 H 0.3363 0.8046 0.3063
In3 In 0.008858(14) 0.75998(3) 0.187026(14)
O21 O -0.0000 0.6758(5) 0.2500
H38 H 0.0000 0.6036 0.2500
O24 O 0.03443(16) 0.6428(4) 0.35579(16)
O25 O 0.03502(16) 0.6536(4) 0.43757(17)
O28 O 0.0121(2) 0.8426(5) 0.4902(2)
O29 O 0.4057(2) 0.3161(4) 0.4476(2)
C38 C 0.0547(2) 0.6337(5) 0.4008(2)
C40 C 0.2628(2) 0.3950(6) 0.4377(2)
C41 C 0.1706(2) 0.5185(5) 0.4656(2)
C44 C 0.2504(2) 0.4999(5) 0.4397(2)
C47 C 0.1051(2) 0.5972(5) 0.4112(2)
C48 C 0.1800(3) 0.5798(6) 0.3850(2)
C50 C 0.3345(2) 0.5448(6) 0.4567(2)
H44 H 0.3583 0.5948 0.4638
C51 C 0.1240(2) 0.5517(5) 0.4567(2)
H45 H 0.1053 0.5438 0.4807
C52 C 0.2865(2) 0.5730(5) 0.4504(2)
C53 C 0.3459(3) 0.4417(6) 0.4521(3)
C54 C 0.1997(2) 0.5330(5) 0.4300(2)
C55 C 0.3101(3) 0.3647(6) 0.4432(2)
H46 H 0.3181 0.2950 0.4411
C56 C 0.1329(2) 0.6112(6) 0.3753(2)
H47 H 0.1200 0.6415 0.3451
O32 O 0.4275(2) 0.4827(6) 0.4636(3)
O33 O 0.19251(16) 0.4732(4) 0.50873(17)
O35 O 0.22558(18) 0.3282(4) 0.42884(19)
O37 O 0.21012(19) 0.5908(4) 0.35255(19)
O38 O 0.27151(18) 0.6735(4) 0.45389(19)
C62 C 0.1659(3) 0.4640(6) 0.5476(2)
H50 H 0.1851 0.4308 0.5756
H51 H 0.1379 0.4232 0.5363
H52 H 0.1568 0.5319 0.5569
C64 C 0.1931(3) 0.6452(8) 0.3075(3)
H56 H 0.2176 0.6473 0.2880
H57 H 0.1846 0.7147 0.3149
H58 H 0.1658 0.6101 0.2894
C65 C 0.2359(3) 0.2183(6) 0.4290(4)
H59 H 0.2067 0.1798 0.4224
H60 H 0.2538 0.1987 0.4607
H61 H 0.2541 0.2033 0.4038
C66 C 0.3072(3) 0.7502(7) 0.4715(4)
H62 H 0.2924 0.8169 0.4724
H63 H 0.3297 0.7530 0.4497
H64 H 0.3233 0.7319 0.5042
C72 C 0.3968(3) 0.4110(7) 0.4555(3)
In10_2 In 0.0000 1.0000 0.5000
In12 In 0.5000 0.5000 0.5000
O43 O 0.07859(17) 0.6922(4) 0.19108(18)
O45 O 0.0943(2) 0.8161(4) 0.0524(2)
O48 O 0.07438(18) 0.6400(4) 0.11266(19)
O49 O 0.0725(2) 0.9827(6) 0.0364(3)
In2_4 In 0.0000 1.0000 1.0000
O9 O 0.04116(16) 0.6236(4) 0.99875(17)
H3 H 0.0283 0.6341 0.9687
O41 O 0.0270(2) 0.9571(5) 0.9202(2)
H74 H 0.0069 0.9552 0.8932
H75 H 0.0561 0.9444 0.9203
In2_5 In 1.0000 -0.0000 0.0000
O11 O 0.9730(2) 0.0429(5) 0.0798(2)
H10 H 0.9931 0.0448 0.1068
H11 H 0.9439 0.0556 0.0797
O27 O 0.57859(17) 0.1922(4) 0.19108(18)
O31 O 0.57438(18) 0.1400(4) 0.11266(19)
C42 C 0.8184(2) 0.0114(5) 0.2466(2)
C46 C 0.7910(2) 0.0165(5) 0.1988(2)
C58 C 0.7411(2) 0.0536(5) 0.1898(2)
C59 C 0.7298(2) 0.1590(5) 0.1916(2)
O34 O 0.76801(17) 0.2230(4) 0.20251(19)
C60 C 0.6569(2) 0.0122(6) 0.1676(2)
C61 C 0.6826(2) 0.1914(6) 0.1819(3)
H49 H 0.6751 0.2614 0.1838
C63 C 0.7582(3) 0.3326(6) 0.2024(3)
H53 H 0.7875 0.3703 0.2107
H54 H 0.7387 0.3475 0.2263
H55 H 0.7419 0.3532 0.1701
O39 O 0.79681(16) 0.0468(3) 0.28355(16)
C67 C 0.8221(2) 0.0337(6) 0.3333(2)
H65 H 0.8035 0.0614 0.3559
H66 H 0.8519 0.0698 0.3374
C68 C 0.6467(2) 0.1184(6) 0.1693(2)
C71 C 0.5961(2) 0.1535(5) 0.1569(2)
In7 In 0.528771(17) 0.24197(3) 0.060495(17)
In10_3 In 1.0000 -0.0000 0.5000
In13 In 0.508858(14) 0.25998(3) 0.187026(14)
In2_6 In 1.0000 -0.0000 1.0000
O50 O 0.9275(2) 0.0173(6) 0.9636(3)
In2_7 In 1.0000 1.0000 0.0000
O3 O 0.96557(16) 0.6428(4) 0.14421(16)
O4 O 0.96498(16) 0.6536(4) 0.06243(17)
O7 O 0.9879(2) 0.8426(5) 0.0098(2)
O8 O 0.5943(2) 0.3161(4) 0.0524(2)
C2 C 0.9453(2) 0.6337(5) 0.0992(2)
C4 C 0.7372(2) 0.3950(6) 0.0623(2)
C5 C 0.8294(2) 0.5185(5) 0.0344(2)
C8 C 0.7496(2) 0.4999(5) 0.0603(2)
C11 C 0.8949(2) 0.5972(5) 0.0888(2)
C12 C 0.8200(3) 0.5798(6) 0.1150(2)
C14 C 0.6655(2) 0.5448(6) 0.0433(2)
H6 H 0.6417 0.5948 0.0362
C15 C 0.8760(2) 0.5517(5) 0.0433(2)
H7 H 0.8947 0.5438 0.0193
C16 C 0.7135(2) 0.5730(5) 0.0496(2)
C17 C 0.6541(3) 0.4417(6) 0.0479(3)
C18 C 0.8003(2) 0.5330(5) 0.0700(2)
C19 C 0.6899(3) 0.3647(6) 0.0568(2)
H8 H 0.6819 0.2950 0.0589
C20 C 0.8671(2) 0.6112(6) 0.1247(2)
H9 H 0.8800 0.6415 0.1549
O12 O 0.5725(2) 0.4827(6) 0.0364(3)
O15 O 0.77442(18) 0.3282(4) 0.07116(19)
O17 O 0.78988(19) 0.5908(4) 0.14745(19)
O18 O 0.72849(18) 0.6735(4) 0.04611(19)
C28 C 0.8069(3) 0.6452(8) 0.1925(3)
H20 H 0.7824 0.6473 0.2120
H21 H 0.8154 0.7147 0.1851
H22 H 0.8342 0.6101 0.2106
C29 C 0.7641(3) 0.2183(6) 0.0710(4)
H23 H 0.7933 0.1798 0.0776
H24 H 0.7462 0.1987 0.0393
H25 H 0.7459 0.2033 0.0962
C30 C 0.6928(3) 0.7502(7) 0.0285(4)
H26 H 0.7076 0.8169 0.0276
H27 H 0.6703 0.7530 0.0503
C36 C 0.6032(3) 0.4110(7) 0.0445(3)
O21_2 O 1.0000 0.6758(5) 0.2500
H38_2 H 1.0000 0.6036 0.2500
In4 In 0.971229(17) 0.74197(3) 0.439505(17)
O22 O 0.98139(17) 0.8327(4) 0.37838(17)
H39 H 0.9815 0.9048 0.3805
O23 O 0.95259(16) 0.8808(4) 0.26785(16)
O26 O 0.94385(17) 0.8430(4) 0.18662(17)
O30 O 0.95884(16) 0.6236(4) 0.50125(17)
H40 H 0.9415 0.5704 0.4934
H41 H 0.9717 0.6341 0.5313
C37 C 0.9296(2) 0.8810(5) 0.2239(2)
C39 C 0.8107(2) 0.9790(5) 0.1588(2)
C43 C 0.8822(2) 0.9326(5) 0.2147(2)
C45 C 0.8562(2) 0.9365(5) 0.1666(2)
H42 H 0.8689 0.9112 0.1402
C49 C 0.8639(2) 0.9708(5) 0.2548(2)
H43 H 0.8820 0.9690 0.2866
C57 C 0.7039(2) 0.9809(5) 0.1782(2)
O36 O 0.71840(18) 0.8803(4) 0.1773(2)
H48 H 0.6326 0.9638 0.1596
O40 O 0.78206(17) 0.9872(4) 0.11360(17)
H67 H 0.8278 0.9611 0.3399
C69 C 0.7992(3) 0.9439(7) 0.0727(3)
H68 H 0.7761 0.9547 0.0430
H69 H 0.8045 0.8708 0.0780
H70 H 0.8285 0.9770 0.0696
C70 C 0.6825(3) 0.8018(7) 0.1683(5)
H71 H 0.6972 0.7348 0.1687
H72 H 0.6625 0.8134 0.1367
H73 H 0.6637 0.8046 0.1937
In5 In 0.991142(14) 0.75998(3) 0.312974(14)
In10_4 In 1.0000 1.0000 0.5000
In11 In 0.5000 0.5000 0.0000
O42 O 0.92141(17) 0.6922(4) 0.30892(18)
O46 O 0.9057(2) 0.8161(4) 0.4476(2)
O47 O 0.92562(18) 0.6400(4) 0.38734(19)
In2_8 In 1.0000 1.0000 1.0000
O13 O 0.80749(16) 0.4732(4) 0.99127(17)
C26 C 0.8341(3) 0.4640(6) 0.9524(2)
H14 H 0.8149 0.4308 0.9244
H15 H 0.8621 0.4232 0.9637
H16 H 0.8432 0.5319 0.9431
H28 H 0.6767 0.7319 0.9958
In11_2 In 0.5000 0.5000 1.0000
O11_2 O 0.0270(2) 0.0429(5) 0.4202(2)
H10_2 H 0.0069 0.0448 0.3932
H11_2 H 0.0561 0.0556 0.4203
O50_2 O 0.0725(2) 0.0173(6) 0.5364(3)
O44_2 O 0.9879(2) 0.1574(5) 0.5098(2)
O41_2 O 0.9730(2) 0.9571(5) 0.5798(2)
H74_2 H 0.9931 0.9552 0.6068
H75_2 H 0.9439 0.9444 0.5797
O49_2 O 0.9275(2) 0.9827(6) 0.4636(3)
O1_2 O 0.51861(17) 0.3327(4) 0.12162(17)
H1_2 H 0.5185 0.4048 0.1195
O2_2 O 0.54741(16) 0.3808(4) 0.23215(16)
O3_2 O 0.46557(16) 0.1428(4) 0.14421(16)
O4_2 O 0.46498(16) 0.1536(4) 0.06243(17)
O5_2 O 0.55615(17) 0.3430(4) 0.31338(17)
O7_2 O 0.4879(2) 0.3426(5) 0.0098(2)
H2_2 H 0.5585 0.0704 0.0066
C1_2 C 0.5704(2) 0.3810(5) 0.2761(2)
C2_2 C 0.4453(2) 0.1337(5) 0.0992(2)
C3_2 C 0.6893(2) 0.4790(5) 0.3412(2)
C5_2 C 0.3294(2) 0.0185(5) 0.0344(2)
C6_2 C 0.6816(2) 0.5114(5) 0.2534(2)
C7_2 C 0.6178(2) 0.4326(5) 0.2853(2)
C9_2 C 0.6438(2) 0.4365(5) 0.3334(2)
H4_2 H 0.6311 0.4112 0.3598
C10_2 C 0.7090(2) 0.5165(5) 0.3012(2)
C11_2 C 0.3949(2) 0.0972(5) 0.0888(2)
C12_2 C 0.3200(3) 0.0798(6) 0.1150(2)
C13_2 C 0.6361(2) 0.4708(5) 0.2452(2)
H5_2 H 0.6180 0.4690 0.2134
C14_2 C 0.1655(2) 0.0448(6) 0.0433(2)
H6_2 H 0.1417 0.0948 0.0362
C15_2 C 0.3760(2) 0.0517(5) 0.0433(2)
H7_2 H 0.3947 0.0438 0.0193
C16_2 C 0.2135(2) 0.0730(5) 0.0496(2)
C18_2 C 0.3003(2) 0.0330(5) 0.0700(2)
C20_2 C 0.3671(2) 0.1112(6) 0.1247(2)
H9_2 H 0.3800 0.1415 0.1549
O11_3 O 0.4730(2) 0.5429(5) 0.0798(2)
H10_3 H 0.4931 0.5448 0.1068
H11_3 H 0.4439 0.5556 0.0797
C21_2 C 0.7961(2) 0.4809(5) 0.3218(2)
C22_2 C 0.7589(2) 0.5536(5) 0.3102(2)
C23_2 C 0.7702(2) 0.6590(5) 0.3084(2)
O14_2 O 0.73199(17) 0.7230(4) 0.29749(19)
O16_2 O 0.78160(18) 0.3803(4) 0.3227(2)
O17_2 O 0.28988(19) 0.0908(4) 0.14745(19)
O18_2 O 0.22849(18) 0.1735(4) 0.04611(19)
C24_2 C 0.8431(2) 0.5122(6) 0.3324(2)
H12_2 H 0.8674 0.4638 0.3404
C25_2 C 0.8174(2) 0.6914(6) 0.3181(3)
H13_2 H 0.8249 0.7614 0.3162
C27_2 C 0.7418(3) 0.8326(6) 0.2976(3)
H17_2 H 0.7125 0.8703 0.2893
H18_2 H 0.7613 0.8475 0.2737
H19_2 H 0.7581 0.8532 0.3299
C28_2 C 0.3069(3) 0.1452(8) 0.1925(3)
H20_2 H 0.2824 0.1473 0.2120
H21_2 H 0.3154 0.2147 0.1851
H22_2 H 0.3342 0.1101 0.2106
C30_2 C 0.1928(3) 0.2502(7) 0.0285(4)
H26_2 H 0.2076 0.3169 0.0276
H27_2 H 0.1703 0.2530 0.0503
O19_2 O 0.70319(16) 0.5468(3) 0.21645(16)
O20_2 O 0.71794(17) 0.4872(4) 0.38640(17)
C31_2 C 0.6779(2) 0.5337(6) 0.1667(2)
H29_2 H 0.6965 0.5614 0.1441
H30_2 H 0.6481 0.5698 0.1626
H31_2 H 0.6722 0.4611 0.1601
C32_2 C 0.8533(2) 0.6184(6) 0.3307(2)
C33_2 C 0.7008(3) 0.4439(7) 0.4273(3)
H32_2 H 0.7239 0.4547 0.4570
H33_2 H 0.6955 0.3708 0.4220
H34_2 H 0.6715 0.4770 0.4304
C34_2 C 0.8175(3) 0.3018(7) 0.3317(5)
H35_2 H 0.8028 0.2348 0.3313
H36_2 H 0.8375 0.3134 0.3633
H37_2 H 0.8363 0.3046 0.3063
C35_2 C 0.9039(2) 0.6535(5) 0.3431(2)
O21_3 O 0.5000 0.1758(5) 0.2500
H38_3 H 0.5000 0.1036 0.2500
O22_2 O 0.48139(17) 0.3327(4) 0.37838(17)
H39_2 H 0.4815 0.4048 0.3805
O23_2 O 0.45259(16) 0.3808(4) 0.26785(16)
O24_2 O 0.53443(16) 0.1428(4) 0.35579(16)
O25_2 O 0.53502(16) 0.1536(4) 0.43757(17)
O26_2 O 0.44385(17) 0.3430(4) 0.18662(17)
O28_2 O 0.5121(2) 0.3426(5) 0.4902(2)
O30_2 O 0.45884(16) 0.1236(4) 0.50125(17)
H40_2 H 0.4415 0.0704 0.4934
H41_2 H 0.4717 0.1341 0.5313
C37_2 C 0.4296(2) 0.3810(5) 0.2239(2)
C38_2 C 0.5547(2) 0.1337(5) 0.4008(2)
C39_2 C 0.3107(2) 0.4790(5) 0.1588(2)
C41_2 C 0.6706(2) 0.0185(5) 0.4656(2)
C42_2 C 0.3184(2) 0.5114(5) 0.2466(2)
C43_2 C 0.3822(2) 0.4326(5) 0.2147(2)
C45_2 C 0.3562(2) 0.4365(5) 0.1666(2)
H42_2 H 0.3689 0.4112 0.1402
C46_2 C 0.2910(2) 0.5165(5) 0.1988(2)
C47_2 C 0.6051(2) 0.0972(5) 0.4112(2)
C48_2 C 0.6800(3) 0.0798(6) 0.3850(2)
C49_2 C 0.3639(2) 0.4708(5) 0.2548(2)
H43_2 H 0.3820 0.4690 0.2866
C50_2 C 0.8345(2) 0.0448(6) 0.4567(2)
H44_2 H 0.8583 0.0948 0.4638
C51_2 C 0.6240(2) 0.0517(5) 0.4567(2)
H45_2 H 0.6053 0.0438 0.4807
C52_2 C 0.7865(2) 0.0730(5) 0.4504(2)
C54_2 C 0.6997(2) 0.0330(5) 0.4300(2)
C56_2 C 0.6329(2) 0.1112(6) 0.3753(2)
H47_2 H 0.6200 0.1415 0.3451
C57_2 C 0.2039(2) 0.4809(5) 0.1782(2)
C58_2 C 0.2411(2) 0.5536(5) 0.1898(2)
C59_2 C 0.2298(2) 0.6590(5) 0.1916(2)
O34_2 O 0.26801(17) 0.7230(4) 0.20251(19)
O36_2 O 0.21840(18) 0.3803(4) 0.1773(2)
O37_2 O 0.71012(19) 0.0908(4) 0.35255(19)
O38_2 O 0.77151(18) 0.1735(4) 0.45389(19)
C60_2 C 0.1569(2) 0.5122(6) 0.1676(2)
H48_2 H 0.1326 0.4638 0.1596
C61_2 C 0.1826(2) 0.6914(6) 0.1819(3)
H49_2 H 0.1751 0.7614 0.1838
H52_2 H 0.6568 0.0319 0.5569
C63_2 C 0.2582(3) 0.8326(6) 0.2024(3)
H53_2 H 0.2875 0.8703 0.2107
H54_2 H 0.2387 0.8475 0.2263
H55_2 H 0.2419 0.8532 0.1701
C64_2 C 0.6931(3) 0.1452(8) 0.3075(3)
H56_2 H 0.7176 0.1473 0.2880
H57_2 H 0.6846 0.2147 0.3149
H58_2 H 0.6658 0.1101 0.2894
C66_2 C 0.8072(3) 0.2502(7) 0.4715(4)
H62_2 H 0.7924 0.3169 0.4724
H63_2 H 0.8297 0.2530 0.4497
H64_2 H 0.8233 0.2319 0.5042
O39_2 O 0.29681(16) 0.5468(3) 0.28355(16)
O40_2 O 0.28206(17) 0.4872(4) 0.11360(17)
C67_2 C 0.3221(2) 0.5337(6) 0.3333(2)
H65_2 H 0.3035 0.5614 0.3559
H66_2 H 0.3519 0.5698 0.3374
H67_2 H 0.3278 0.4611 0.3399
C68_2 C 0.1467(2) 0.6184(6) 0.1693(2)
C69_2 C 0.2992(3) 0.4439(7) 0.0727(3)
H68_2 H 0.2761 0.4547 0.0430
H69_2 H 0.3045 0.3708 0.0780
H70_2 H 0.3285 0.4770 0.0696
C70_2 C 0.1825(3) 0.3018(7) 0.1683(5)
H71_2 H 0.1972 0.2348 0.1687
H72_2 H 0.1625 0.3134 0.1367
H73_2 H 0.1637 0.3046 0.1937
C71_2 C 0.0961(2) 0.6535(5) 0.1569(2)
O9_2 O 0.54116(16) 0.1236(4) 0.99875(17)
H3_2 H 0.5283 0.1341 0.9687
H16_2 H 0.3432 0.0319 0.9431
H28_2 H 0.1767 0.2319 0.9958
O41_3 O 0.5270(2) 0.4571(5) 0.9202(2)
H74_3 H 0.5069 0.4552 0.8932
H75_3 H 0.5561 0.4444 0.9203
O44_3 O 0.5121(2) 0.6574(5) 0.9902(2)
O50_3 O 0.4275(2) 0.5173(6) 0.9636(3)
C4_2 C 0.2372(2) 0.8950(6) 0.0623(2)
C8_2 C 0.2496(2) 0.9999(5) 0.0603(2)
C17_2 C 0.1541(3) 0.9417(6) 0.0479(3)
C19_2 C 0.1899(3) 0.8647(6) 0.0568(2)
H8_2 H 0.1819 0.7950 0.0589
O15_2 O 0.27442(18) 0.8282(4) 0.07116(19)
C29_2 C 0.2641(3) 0.7183(6) 0.0710(4)
H23_2 H 0.2933 0.6798 0.0776
H24_2 H 0.2462 0.6987 0.0393
H25_2 H 0.2459 0.7033 0.0962
C36_2 C 0.1032(3) 0.9110(7) 0.0445(3)
C40_2 C 0.7628(2) 0.8950(6) 0.4377(2)
C44_2 C 0.7504(2) 0.9999(5) 0.4397(2)
C53_2 C 0.8459(3) 0.9417(6) 0.4521(3)
C55_2 C 0.8101(3) 0.8647(6) 0.4432(2)
H46_2 H 0.8181 0.7950 0.4411
O33_2 O 0.69251(16) 0.9732(4) 0.50873(17)
O35_2 O 0.72558(18) 0.8282(4) 0.42884(19)
C62_2 C 0.6659(3) 0.9640(6) 0.5476(2)
H50_2 H 0.6851 0.9308 0.5756
H51_2 H 0.6379 0.9232 0.5363
C65_2 C 0.7359(3) 0.7183(6) 0.4290(4)
H59_2 H 0.7067 0.6798 0.4224
H60_2 H 0.7538 0.6987 0.4607
H61_2 H 0.7541 0.7033 0.4038
C72_2 C 0.8968(3) 0.9110(7) 0.4555(3)
O13_2 O 0.30749(16) 0.9732(4) 0.99127(17)
C26_2 C 0.3341(3) 0.9640(6) 0.9524(2)
H14_2 H 0.3149 0.9308 0.9244
H15_2 H 0.3621 0.9232 0.9637
O11_4 O 0.5270(2) 0.5429(5) 0.4202(2)
H10_4 H 0.5069 0.5448 0.3932
H11_4 H 0.5561 0.5556 0.4203
O41_4 O 0.4730(2) 0.4571(5) 0.5798(2)
H74_4 H 0.4931 0.4552 0.6068
H75_4 H 0.4439 0.4444 0.5797
O44_4 O 0.4879(2) 0.6574(5) 0.5098(2)
O50_4 O 0.5725(2) 0.5173(6) 0.5364(3)
O13_3 O 0.19251(16) 0.5268(4) 0.00873(17)
C26_3 C 0.1659(3) 0.5360(6) 0.0476(2)
H14_3 H 0.1851 0.5692 0.0756
H15_3 H 0.1379 0.5768 0.0363
H16_3 H 0.1568 0.4681 0.0569
H28_3 H 0.3233 0.2681 0.0042
O3_3 O 0.03443(16) 0.3572(4) 0.85579(16)
O4_3 O 0.03502(16) 0.3464(4) 0.93757(17)
O8_2 O 0.4057(2) 0.6839(4) 0.9476(2)
C2_3 C 0.0547(2) 0.3663(5) 0.9008(2)
C4_3 C 0.2628(2) 0.6050(6) 0.9377(2)
C5_3 C 0.1706(2) 0.4815(5) 0.9656(2)
C8_3 C 0.2504(2) 0.5001(5) 0.9397(2)
C11_3 C 0.1051(2) 0.4028(5) 0.9112(2)
C12_3 C 0.1800(3) 0.4202(6) 0.8850(2)
C14_3 C 0.3345(2) 0.4552(6) 0.9567(2)
H6_3 H 0.3583 0.4052 0.9638
C15_3 C 0.1240(2) 0.4483(5) 0.9567(2)
H7_3 H 0.1053 0.4562 0.9807
C16_3 C 0.2865(2) 0.4270(5) 0.9504(2)
C17_3 C 0.3459(3) 0.5583(6) 0.9521(3)
C18_3 C 0.1997(2) 0.4670(5) 0.9300(2)
C19_3 C 0.3101(3) 0.6353(6) 0.9432(2)
H8_3 H 0.3181 0.7050 0.9411
C20_3 C 0.1329(2) 0.3888(6) 0.8753(2)
H9_3 H 0.1200 0.3585 0.8451
O15_3 O 0.22558(18) 0.6718(4) 0.92884(19)
O17_3 O 0.21012(19) 0.4092(4) 0.85255(19)
O18_3 O 0.27151(18) 0.3265(4) 0.95389(19)
C28_3 C 0.1931(3) 0.3548(8) 0.8075(3)
H20_3 H 0.2176 0.3527 0.7880
H21_3 H 0.1846 0.2853 0.8149
H22_3 H 0.1658 0.3899 0.7894
C29_3 C 0.2359(3) 0.7817(6) 0.9290(4)
H23_3 H 0.2067 0.8202 0.9224
H24_3 H 0.2538 0.8013 0.9607
H25_3 H 0.2541 0.7967 0.9038
C30_3 C 0.3072(3) 0.2498(7) 0.9715(4)
H26_3 H 0.2924 0.1831 0.9724
H27_3 H 0.3297 0.2470 0.9497
C36_3 C 0.3968(3) 0.5890(7) 0.9555(3)
O21_4 O 0.0000 0.3242(5) 0.7500
H38_4 H 0.0000 0.3964 0.7500
In4_2 In 0.028771(17) 0.25803(3) 0.560495(17)
O22_3 O 0.01861(17) 0.1673(4) 0.62162(17)
H39_3 H 0.0185 0.0952 0.6195
O23_3 O 0.04741(16) 0.1192(4) 0.73215(16)
O26_3 O 0.05615(17) 0.1570(4) 0.81338(17)
O30_3 O 0.04116(16) 0.3764(4) 0.49875(17)
H40_3 H 0.0585 0.4296 0.5066
H41_3 H 0.0283 0.3659 0.4687
C37_3 C 0.0704(2) 0.1190(5) 0.7761(2)
C39_3 C 0.1893(2) 0.0210(5) 0.8412(2)
C43_3 C 0.1178(2) 0.0674(5) 0.7853(2)
C45_3 C 0.1438(2) 0.0635(5) 0.8334(2)
H42_3 H 0.1311 0.0888 0.8598
C49_3 C 0.1361(2) 0.0292(5) 0.7452(2)
H43_3 H 0.1180 0.0310 0.7134
C57_3 C 0.2961(2) 0.0191(5) 0.8218(2)
O36_3 O 0.28160(18) 0.1197(4) 0.8227(2)
H48_3 H 0.3674 0.0362 0.8404
O40_3 O 0.21794(17) 0.0128(4) 0.88640(17)
H67_3 H 0.1722 0.0389 0.6601
C69_3 C 0.2008(3) 0.0561(7) 0.9273(3)
H68_3 H 0.2239 0.0453 0.9570
H69_3 H 0.1955 0.1292 0.9220
H70_3 H 0.1715 0.0230 0.9304
C70_3 C 0.3175(3) 0.1982(7) 0.8317(5)
H71_3 H 0.3028 0.2652 0.8313
H72_3 H 0.3375 0.1866 0.8633
H73_3 H 0.3363 0.1954 0.8063
In5_2 In 0.008858(14) 0.24002(3) 0.687026(14)
In6 In 0.471229(17) 0.75803(3) 0.939505(17)
O42_2 O 0.07859(17) 0.3078(4) 0.69108(18)
O46_2 O 0.0943(2) 0.1839(4) 0.5524(2)
O47_2 O 0.07438(18) 0.3600(4) 0.61266(19)
O27_2 O 0.42141(17) 0.8078(4) 0.80892(18)
O31_2 O 0.42562(18) 0.8600(4) 0.88734(19)
C42_3 C 0.1816(2) 0.9886(5) 0.7534(2)
C46_3 C 0.2090(2) 0.9835(5) 0.8012(2)
C58_3 C 0.2589(2) 0.9464(5) 0.8102(2)
C59_3 C 0.2702(2) 0.8410(5) 0.8084(2)
O34_3 O 0.23199(17) 0.7770(4) 0.79749(19)
C60_3 C 0.3431(2) 0.9878(6) 0.8324(2)
C61_3 C 0.3174(2) 0.8086(6) 0.8181(3)
H49_3 H 0.3249 0.7386 0.8162
C63_3 C 0.2418(3) 0.6674(6) 0.7976(3)
H53_3 H 0.2125 0.6297 0.7893
H54_3 H 0.2613 0.6525 0.7737
H55_3 H 0.2581 0.6468 0.8299
O39_3 O 0.20319(16) 0.9532(3) 0.71645(16)
C67_3 C 0.1779(2) 0.9663(6) 0.6667(2)
H65_3 H 0.1965 0.9386 0.6441
H66_3 H 0.1481 0.9302 0.6626
C68_3 C 0.3533(2) 0.8816(6) 0.8307(2)
C71_3 C 0.4039(2) 0.8465(5) 0.8431(2)
In13_2 In 0.491142(14) 0.74002(3) 0.812974(14)
O9_3 O 0.95884(16) 0.3764(4) 0.00125(17)
H3_3 H 0.9717 0.3659 0.0313
In1_2 In 0.971229(17) 0.25803(3) 0.939505(17)
O1_3 O 0.98139(17) 0.1673(4) 0.87838(17)
H1_3 H 0.9815 0.0952 0.8805
O2_3 O 0.95259(16) 0.1192(4) 0.76785(16)
O5_3 O 0.94385(17) 0.1570(4) 0.68662(17)
H2_3 H 0.9415 0.4296 0.9934
C1_3 C 0.9296(2) 0.1190(5) 0.7239(2)
C3_3 C 0.8107(2) 0.0210(5) 0.6588(2)
C7_3 C 0.8822(2) 0.0674(5) 0.7147(2)
C9_3 C 0.8562(2) 0.0635(5) 0.6666(2)
H4_3 H 0.8689 0.0888 0.6402
C13_3 C 0.8639(2) 0.0292(5) 0.7548(2)
H5_3 H 0.8820 0.0310 0.7866
C21_3 C 0.7039(2) 0.0191(5) 0.6782(2)
O16_3 O 0.71840(18) 0.1197(4) 0.6773(2)
H12_3 H 0.6326 0.0362 0.6596
O20_3 O 0.78206(17) 0.0128(4) 0.61360(17)
H31_3 H 0.8278 0.0389 0.8399
C33_3 C 0.7992(3) 0.0561(7) 0.5727(3)
H32_3 H 0.7761 0.0453 0.5430
H33_3 H 0.8045 0.1292 0.5780
H34_3 H 0.8285 0.0230 0.5696
C34_3 C 0.6825(3) 0.1982(7) 0.6683(5)
H35_3 H 0.6972 0.2652 0.6687
H36_3 H 0.6625 0.1866 0.6367
H37_3 H 0.6637 0.1954 0.6937
In3_2 In 0.991142(14) 0.24002(3) 0.812974(14)
O21_5 O 1.0000 0.3242(5) 0.7500
H38_5 H 1.0000 0.3964 0.7500
O24_3 O 0.96557(16) 0.3572(4) 0.64421(16)
O25_3 O 0.96498(16) 0.3464(4) 0.56243(17)
O29_2 O 0.5943(2) 0.6839(4) 0.5524(2)
C38_3 C 0.9453(2) 0.3663(5) 0.5992(2)
C40_3 C 0.7372(2) 0.6050(6) 0.5623(2)
C41_3 C 0.8294(2) 0.4815(5) 0.5344(2)
C44_3 C 0.7496(2) 0.5001(5) 0.5603(2)
C47_3 C 0.8949(2) 0.4028(5) 0.5888(2)
C48_3 C 0.8200(3) 0.4202(6) 0.6150(2)
C50_3 C 0.6655(2) 0.4552(6) 0.5433(2)
H44_3 H 0.6417 0.4052 0.5362
C51_3 C 0.8760(2) 0.4483(5) 0.5433(2)
H45_3 H 0.8947 0.4562 0.5193
C52_3 C 0.7135(2) 0.4270(5) 0.5496(2)
C53_3 C 0.6541(3) 0.5583(6) 0.5479(3)
C54_3 C 0.8003(2) 0.4670(5) 0.5700(2)
C55_3 C 0.6899(3) 0.6353(6) 0.5568(2)
H46_3 H 0.6819 0.7050 0.5589
C56_3 C 0.8671(2) 0.3888(6) 0.6247(2)
H47_3 H 0.8800 0.3585 0.6549
O33_3 O 0.80749(16) 0.5268(4) 0.49127(17)
O35_3 O 0.77442(18) 0.6718(4) 0.57116(19)
O37_3 O 0.78988(19) 0.4092(4) 0.64745(19)
O38_3 O 0.72849(18) 0.3265(4) 0.54611(19)
C62_3 C 0.8341(3) 0.5360(6) 0.4524(2)
H50_3 H 0.8149 0.5692 0.4244
H51_3 H 0.8621 0.5768 0.4637
H52_3 H 0.8432 0.4681 0.4431
C64_3 C 0.8069(3) 0.3548(8) 0.6925(3)
H56_3 H 0.7824 0.3527 0.7120
H57_3 H 0.8154 0.2853 0.6851
H58_3 H 0.8342 0.3899 0.7106
C65_3 C 0.7641(3) 0.7817(6) 0.5710(4)
H59_3 H 0.7933 0.8202 0.5776
H60_3 H 0.7462 0.8013 0.5393
H61_3 H 0.7459 0.7967 0.5962
C66_3 C 0.6928(3) 0.2498(7) 0.5285(4)
H62_3 H 0.7076 0.1831 0.5276
H63_3 H 0.6703 0.2470 0.5503
H64_3 H 0.6767 0.2681 0.4958
C72_3 C 0.6032(3) 0.5890(7) 0.5445(3)
In8 In 0.528771(17) 0.75803(3) 0.560495(17)
O43_2 O 0.92141(17) 0.3078(4) 0.80892(18)
O45_2 O 0.9057(2) 0.1839(4) 0.9476(2)
O48_2 O 0.92562(18) 0.3600(4) 0.88734(19)
O6_2 O 0.57859(17) 0.8078(4) 0.69108(18)
O10_2 O 0.57438(18) 0.8600(4) 0.61266(19)
C6_3 C 0.8184(2) 0.9886(5) 0.7466(2)
C10_3 C 0.7910(2) 0.9835(5) 0.6988(2)
C22_3 C 0.7411(2) 0.9464(5) 0.6898(2)
C23_3 C 0.7298(2) 0.8410(5) 0.6916(2)
O14_3 O 0.76801(17) 0.7770(4) 0.70251(19)
C24_3 C 0.6569(2) 0.9878(6) 0.6676(2)
C25_3 C 0.6826(2) 0.8086(6) 0.6819(3)
H13_3 H 0.6751 0.7386 0.6838
C27_3 C 0.7582(3) 0.6674(6) 0.7024(3)
H17_3 H 0.7875 0.6297 0.7107
H18_3 H 0.7387 0.6525 0.7263
H19_3 H 0.7419 0.6468 0.6701
O19_3 O 0.79681(16) 0.9532(3) 0.78355(16)
C31_3 C 0.8221(2) 0.9663(6) 0.8333(2)
H29_3 H 0.8035 0.9386 0.8559
H30_3 H 0.8519 0.9302 0.8374
C32_3 C 0.6467(2) 0.8816(6) 0.6693(2)
C35_3 C 0.5961(2) 0.8465(5) 0.6569(2)
In14_2 In 0.508858(14) 0.74002(3) 0.687026(14)
O13_4 O 0.69251(16) 0.0268(4) 0.00873(17)
C26_4 C 0.6659(3) 0.0360(6) 0.0476(2)
H14_4 H 0.6851 0.0692 0.0756
H15_4 H 0.6379 0.0768 0.0363
C4_4 C 0.7628(2) 0.1050(6) 0.9377(2)
C8_4 C 0.7504(2) 0.0001(5) 0.9397(2)
C17_4 C 0.8459(3) 0.0583(6) 0.9521(3)
C19_4 C 0.8101(3) 0.1353(6) 0.9432(2)
H8_4 H 0.8181 0.2050 0.9411
O15_4 O 0.72558(18) 0.1718(4) 0.92884(19)
C29_4 C 0.7359(3) 0.2817(6) 0.9290(4)
H23_4 H 0.7067 0.3202 0.9224
H24_4 H 0.7538 0.3013 0.9607
H25_4 H 0.7541 0.2967 0.9038
C36_4 C 0.8968(3) 0.0890(7) 0.9555(3)
C40_4 C 0.2372(2) 0.1050(6) 0.5623(2)
C44_4 C 0.2496(2) 0.0001(5) 0.5603(2)
C53_4 C 0.1541(3) 0.0583(6) 0.5479(3)
C55_4 C 0.1899(3) 0.1353(6) 0.5568(2)
H46_4 H 0.1819 0.2050 0.5589
O33_4 O 0.30749(16) 0.0268(4) 0.49127(17)
O35_4 O 0.27442(18) 0.1718(4) 0.57116(19)
C62_4 C 0.3341(3) 0.0360(6) 0.4524(2)
H50_4 H 0.3149 0.0692 0.4244
H51_4 H 0.3621 0.0768 0.4637
C65_4 C 0.2641(3) 0.2817(6) 0.5710(4)
H59_4 H 0.2933 0.3202 0.5776
H60_4 H 0.2462 0.3013 0.5393
H61_4 H 0.2459 0.2967 0.5962
C72_4 C 0.1032(3) 0.0890(7) 0.5445(3)
O9_4 O 0.45884(16) 0.8764(4) 0.00125(17)
H3_4 H 0.4717 0.8659 0.0313
H16_4 H 0.6568 0.9681 0.0569
H28_4 H 0.8233 0.7681 0.0042
O1_4 O 0.48139(17) 0.6673(4) 0.87838(17)
H1_4 H 0.4815 0.5952 0.8805
O2_4 O 0.45259(16) 0.6192(4) 0.76785(16)
O3_4 O 0.53443(16) 0.8572(4) 0.85579(16)
O4_4 O 0.53502(16) 0.8464(4) 0.93757(17)
O5_4 O 0.44385(17) 0.6570(4) 0.68662(17)
H2_4 H 0.4415 0.9296 0.9934
C1_4 C 0.4296(2) 0.6190(5) 0.7239(2)
C2_4 C 0.5547(2) 0.8663(5) 0.9008(2)
C3_4 C 0.3107(2) 0.5210(5) 0.6588(2)
C5_4 C 0.6706(2) 0.9815(5) 0.9656(2)
C6_4 C 0.3184(2) 0.4886(5) 0.7466(2)
C7_4 C 0.3822(2) 0.5674(5) 0.7147(2)
C9_4 C 0.3562(2) 0.5635(5) 0.6666(2)
H4_4 H 0.3689 0.5888 0.6402
C10_4 C 0.2910(2) 0.4835(5) 0.6988(2)
C11_4 C 0.6051(2) 0.9028(5) 0.9112(2)
C12_4 C 0.6800(3) 0.9202(6) 0.8850(2)
C13_4 C 0.3639(2) 0.5292(5) 0.7548(2)
H5_4 H 0.3820 0.5310 0.7866
C14_4 C 0.8345(2) 0.9552(6) 0.9567(2)
H6_4 H 0.8583 0.9052 0.9638
C15_4 C 0.6240(2) 0.9483(5) 0.9567(2)
H7_4 H 0.6053 0.9562 0.9807
C16_4 C 0.7865(2) 0.9270(5) 0.9504(2)
C18_4 C 0.6997(2) 0.9670(5) 0.9300(2)
C20_4 C 0.6329(2) 0.8888(6) 0.8753(2)
H9_4 H 0.6200 0.8585 0.8451
C21_4 C 0.2039(2) 0.5191(5) 0.6782(2)
C22_4 C 0.2411(2) 0.4464(5) 0.6898(2)
C23_4 C 0.2298(2) 0.3410(5) 0.6916(2)
O14_4 O 0.26801(17) 0.2770(4) 0.70251(19)
O16_4 O 0.21840(18) 0.6197(4) 0.6773(2)
O17_4 O 0.71012(19) 0.9092(4) 0.85255(19)
O18_4 O 0.77151(18) 0.8265(4) 0.95389(19)
C24_4 C 0.1569(2) 0.4878(6) 0.6676(2)
H12_4 H 0.1326 0.5362 0.6596
C25_4 C 0.1826(2) 0.3086(6) 0.6819(3)
H13_4 H 0.1751 0.2386 0.6838
C27_4 C 0.2582(3) 0.1674(6) 0.7024(3)
H17_4 H 0.2875 0.1297 0.7107
H18_4 H 0.2387 0.1525 0.7263
H19_4 H 0.2419 0.1468 0.6701
C28_4 C 0.6931(3) 0.8548(8) 0.8075(3)
H20_4 H 0.7176 0.8527 0.7880
H21_4 H 0.6846 0.7853 0.8149
H22_4 H 0.6658 0.8899 0.7894
C30_4 C 0.8072(3) 0.7498(7) 0.9715(4)
H26_4 H 0.7924 0.6831 0.9724
H27_4 H 0.8297 0.7470 0.9497
O19_4 O 0.29681(16) 0.4532(3) 0.78355(16)
O20_4 O 0.28206(17) 0.5128(4) 0.61360(17)
C31_4 C 0.3221(2) 0.4663(6) 0.8333(2)
H29_4 H 0.3035 0.4386 0.8559
H30_4 H 0.3519 0.4302 0.8374
H31_4 H 0.3278 0.5389 0.8399
C32_4 C 0.1467(2) 0.3816(6) 0.6693(2)
C33_4 C 0.2992(3) 0.5561(7) 0.5727(3)
H32_4 H 0.2761 0.5453 0.5430
H33_4 H 0.3045 0.6292 0.5780
H34_4 H 0.3285 0.5230 0.5696
C34_4 C 0.1825(3) 0.6982(7) 0.6683(5)
H35_4 H 0.1972 0.7652 0.6687
H36_4 H 0.1625 0.6866 0.6367
H37_4 H 0.1637 0.6954 0.6937
C35_4 C 0.0961(2) 0.3465(5) 0.6569(2)
O21_6 O 0.5000 0.8242(5) 0.7500
H38_6 H 0.5000 0.8964 0.7500
O22_4 O 0.51861(17) 0.6673(4) 0.62162(17)
H39_4 H 0.5185 0.5952 0.6195
O23_4 O 0.54741(16) 0.6192(4) 0.73215(16)
O24_4 O 0.46557(16) 0.8572(4) 0.64421(16)
O25_4 O 0.46498(16) 0.8464(4) 0.56243(17)
O26_4 O 0.55615(17) 0.6570(4) 0.81338(17)
O30_4 O 0.54116(16) 0.8764(4) 0.49875(17)
H40_4 H 0.5585 0.9296 0.5066
H41_4 H 0.5283 0.8659 0.4687
C37_4 C 0.5704(2) 0.6190(5) 0.7761(2)
C38_4 C 0.4453(2) 0.8663(5) 0.5992(2)
C39_4 C 0.6893(2) 0.5210(5) 0.8412(2)
C41_4 C 0.3294(2) 0.9815(5) 0.5344(2)
C42_4 C 0.6816(2) 0.4886(5) 0.7534(2)
C43_4 C 0.6178(2) 0.5674(5) 0.7853(2)
C45_4 C 0.6438(2) 0.5635(5) 0.8334(2)
H42_4 H 0.6311 0.5888 0.8598
C46_4 C 0.7090(2) 0.4835(5) 0.8012(2)
C47_4 C 0.3949(2) 0.9028(5) 0.5888(2)
C48_4 C 0.3200(3) 0.9202(6) 0.6150(2)
C49_4 C 0.6361(2) 0.5292(5) 0.7452(2)
H43_4 H 0.6180 0.5310 0.7134
C50_4 C 0.1655(2) 0.9552(6) 0.5433(2)
H44_4 H 0.1417 0.9052 0.5362
C51_4 C 0.3760(2) 0.9483(5) 0.5433(2)
H45_4 H 0.3947 0.9562 0.5193
C52_4 C 0.2135(2) 0.9270(5) 0.5496(2)
C54_4 C 0.3003(2) 0.9670(5) 0.5700(2)
C56_4 C 0.3671(2) 0.8888(6) 0.6247(2)
H47_4 H 0.3800 0.8585 0.6549
C57_4 C 0.7961(2) 0.5191(5) 0.8218(2)
C58_4 C 0.7589(2) 0.4464(5) 0.8102(2)
C59_4 C 0.7702(2) 0.3410(5) 0.8084(2)
O34_4 O 0.73199(17) 0.2770(4) 0.79749(19)
O36_4 O 0.78160(18) 0.6197(4) 0.8227(2)
O37_4 O 0.28988(19) 0.9092(4) 0.64745(19)
O38_4 O 0.22849(18) 0.8265(4) 0.54611(19)
C60_4 C 0.8431(2) 0.4878(6) 0.8324(2)
H48_4 H 0.8674 0.5362 0.8404
C61_4 C 0.8174(2) 0.3086(6) 0.8181(3)
H49_4 H 0.8249 0.2386 0.8162
H52_4 H 0.3432 0.9681 0.4431
C63_4 C 0.7418(3) 0.1674(6) 0.7976(3)
H53_4 H 0.7125 0.1297 0.7893
H54_4 H 0.7613 0.1525 0.7737
H55_4 H 0.7581 0.1468 0.8299
C64_4 C 0.3069(3) 0.8548(8) 0.6925(3)
H56_4 H 0.2824 0.8527 0.7120
H57_4 H 0.3154 0.7853 0.6851
H58_4 H 0.3342 0.8899 0.7106
C66_4 C 0.1928(3) 0.7498(7) 0.5285(4)
H62_4 H 0.2076 0.6831 0.5276
H63_4 H 0.1703 0.7470 0.5503
H64_4 H 0.1767 0.7681 0.4958
O39_4 O 0.70319(16) 0.4532(3) 0.71645(16)
O40_4 O 0.71794(17) 0.5128(4) 0.88640(17)
C67_4 C 0.6779(2) 0.4663(6) 0.6667(2)
H65_4 H 0.6965 0.4386 0.6441
H66_4 H 0.6481 0.4302 0.6626
H67_4 H 0.6722 0.5389 0.6601
C68_4 C 0.8533(2) 0.3816(6) 0.8307(2)
C69_4 C 0.7008(3) 0.5561(7) 0.9273(3)
H68_4 H 0.7239 0.5453 0.9570
H69_4 H 0.6955 0.6292 0.9220
H70_4 H 0.6715 0.5230 0.9304
C70_4 C 0.8175(3) 0.6982(7) 0.8317(5)
H71_4 H 0.8028 0.7652 0.8313
H72_4 H 0.8375 0.6866 0.8633
H73_4 H 0.8363 0.6954 0.8063
C71_4 C 0.9039(2) 0.3465(5) 0.8431(2)
loop_
_geom_bond_atom_site_label_1
_geom_bond_atom_site_label_2
_geom_bond_site_symmetry_1
_geom_bond_site_symmetry_2
O6 C35 1_555 1_555
O10 C35 1_555 1_555
C6 C10 1_555 1_555
C22 C10 1_555 1_555
C23 C22 1_555 1_555
O14 C23 1_555 1_555
C25 C23 1_555 1_555
H13 C25 1_555 1_555
C27 O14 1_555 1_555
H17 C27 1_555 1_555
H18 C27 1_555 1_555
H19 C27 1_555 1_555
O19 C6 1_555 1_555
C31 O19 1_555 1_555
H29 C31 1_555 1_555
H30 C31 1_555 1_555
C32 C24 1_555 1_555
C35 C32 1_555 1_555
In9 O10 1_555 1_555
In14 O6 1_555 1_555
C25 C32 1_555 1_555
O44 In2_2 1_555 1_555
In1 O1 1_555 1_555
O1 H1 1_555 1_555
O2 C1 1_555 1_555
O5 C1 1_555 1_555
C1 C7 1_555 1_555
C3 C9 1_555 1_555
C7 C9 1_555 1_555
C9 H4 1_555 1_555
H5 C13 1_555 1_555
O16 C21 1_555 1_555
O20 C3 1_555 1_555
C33 O20 1_555 1_555
H32 C33 1_555 1_555
H33 C33 1_555 1_555
H34 C33 1_555 1_555
C34 O16 1_555 1_555
H35 C34 1_555 1_555
H36 C34 1_555 1_555
H37 C34 1_555 1_555
In3 O1 1_555 1_555
O21 In3 1_555 1_555
H38 O21 1_555 1_555
O24 C38 1_555 1_555
O29 C72 1_555 1_555
C38 O25 1_555 1_555
C40 C44 1_555 1_555
C41 C51 1_555 1_555
C44 C52 1_555 1_555
C47 C38 1_555 1_555
C48 C54 1_555 1_555
C50 H44 1_555 1_555
C51 C47 1_555 1_555
H45 C51 1_555 1_555
C52 C50 1_555 1_555
C53 C50 1_555 1_555
C54 C41 1_555 1_555
C55 C40 1_555 1_555
H46 C55 1_555 1_555
C56 C47 1_555 1_555
H47 C56 1_555 1_555
O32 C72 1_555 1_555
O33 C41 1_555 1_555
O35 C40 1_555 1_555
O37 C48 1_555 1_555
O38 C52 1_555 1_555
C62 O33 1_555 1_555
H50 C62 1_555 1_555
H51 C62 1_555 1_555
H52 C62 1_555 1_555
C64 O37 1_555 1_555
H56 C64 1_555 1_555
H57 C64 1_555 1_555
H58 C64 1_555 1_555
C65 O35 1_555 1_555
H59 C65 1_555 1_555
H60 C65 1_555 1_555
H61 C65 1_555 1_555
C66 O38 1_555 1_555
H62 C66 1_555 1_555
H63 C66 1_555 1_555
H64 C66 1_555 1_555
C72 C53 1_555 1_555
In9 O29 1_555 1_555
In10_2 O28 1_555 1_555
In12 O32 1_555 1_555
O43 In3 1_555 1_555
O45 In1 1_555 1_555
O48 In1 1_555 1_555
O49 In2_3 1_555 1_555
O2 In3 1_555 1_555
C7 C13 1_555 1_555
C44 C54 1_555 1_555
C48 C56 1_555 1_555
C53 C55 1_555 1_555
H3 O9 1_555 1_555
O41 In2_4 1_555 1_555
H74 O41 1_555 1_555
H75 O41 1_555 1_555
O11 In2_5 1_555 1_555
H10 O11 1_555 1_555
H11 O11 1_555 1_555
O27 C71 1_555 1_555
O31 C71 1_555 1_555
C42 C46 1_555 1_555
C58 C46 1_555 1_555
C59 C58 1_555 1_555
O34 C59 1_555 1_555
C61 C59 1_555 1_555
H49 C61 1_555 1_555
C63 O34 1_555 1_555
H53 C63 1_555 1_555
H54 C63 1_555 1_555
H55 C63 1_555 1_555
O39 C42 1_555 1_555
C67 O39 1_555 1_555
H65 C67 1_555 1_555
H66 C67 1_555 1_555
C68 C60 1_555 1_555
C71 C68 1_555 1_555
In7 O31 1_555 1_555
In13 O27 1_555 1_555
C61 C68 1_555 1_555
O50 In2_6 1_555 1_555
In2_7 O7 1_555 1_555
O3 C2 1_555 1_555
O8 C36 1_555 1_555
C2 O4 1_555 1_555
C4 C8 1_555 1_555
C5 C15 1_555 1_555
C8 C16 1_555 1_555
C11 C2 1_555 1_555
C12 C18 1_555 1_555
C14 H6 1_555 1_555
C15 C11 1_555 1_555
H7 C15 1_555 1_555
C16 C14 1_555 1_555
C17 C14 1_555 1_555
C18 C5 1_555 1_555
C19 C4 1_555 1_555
H8 C19 1_555 1_555
C20 C11 1_555 1_555
H9 C20 1_555 1_555
O12 C36 1_555 1_555
O15 C4 1_555 1_555
O17 C12 1_555 1_555
O18 C16 1_555 1_555
C28 O17 1_555 1_555
H20 C28 1_555 1_555
H21 C28 1_555 1_555
H22 C28 1_555 1_555
C29 O15 1_555 1_555
H23 C29 1_555 1_555
H24 C29 1_555 1_555
H25 C29 1_555 1_555
C30 O18 1_555 1_555
H26 C30 1_555 1_555
H27 C30 1_555 1_555
C36 C17 1_555 1_555
H38_2 O21_2 1_555 1_555
In4 O22 1_555 1_555
O22 H39 1_555 1_555
O23 C37 1_555 1_555
O30 In4 1_555 1_555
H40 O30 1_555 1_555
H41 O30 1_555 1_555
C37 O26 1_555 1_555
C39 C45 1_555 1_555
C43 C37 1_555 1_555
C45 C43 1_555 1_555
H42 C45 1_555 1_555
H43 C49 1_555 1_555
O36 C57 1_555 1_555
O40 C39 1_555 1_555
C69 O40 1_555 1_555
H68 C69 1_555 1_555
H69 C69 1_555 1_555
H70 C69 1_555 1_555
C70 O36 1_555 1_555
H71 C70 1_555 1_555
H72 C70 1_555 1_555
H73 C70 1_555 1_555
In7 O8 1_555 1_555
In11 O12 1_555 1_555
O42 In5 1_555 1_555
O46 In4 1_555 1_555
O47 In4 1_555 1_555
C8 C18 1_555 1_555
C12 C20 1_555 1_555
C17 C19 1_555 1_555
O21_2 In5 1_555 1_555
O22 In5 1_555 1_555
O23 In5 1_555 1_555
C43 C49 1_555 1_555
C26 O13 1_555 1_555
H14 C26 1_555 1_555
H15 C26 1_555 1_555
H16 C26 1_555 1_555
O11_2 In10 1_555 1_555
H10_2 O11_2 1_555 1_555
H11_2 O11_2 1_555 1_555
O50_2 In10 1_555 1_555
O44_2 In10_3 1_555 1_555
O41_2 In10_4 1_555 1_555
H74_2 O41_2 1_555 1_555
H75_2 O41_2 1_555 1_555
O49_2 In10_4 1_555 1_555
In7 O1_2 1_555 1_555
In11 O7_2 1_555 1_555
O1_2 H1_2 1_555 1_555
O2_2 C1_2 1_555 1_555
O3_2 C2_2 1_555 1_555
O4_2 In7 1_555 1_555
O5_2 C1_2 1_555 1_555
O42 C35_2 1_555 1_555
O7_2 In7 1_555 1_555
O47 C35_2 1_555 1_555
C1_2 C7_2 1_555 1_555
C2_2 O4_2 1_555 1_555
C3_2 C9_2 1_555 1_555
C5_2 C15_2 1_555 1_555
C6_2 C10_2 1_555 1_555
C7_2 C9_2 1_555 1_555
C9_2 H4_2 1_555 1_555
C10_2 C3_2 1_555 1_555
C11_2 C2_2 1_555 1_555
C12_2 C18_2 1_555 1_555
C13_2 C6_2 1_555 1_555
H5_2 C13_2 1_555 1_555
C14_2 H6_2 1_555 1_555
C15_2 C11_2 1_555 1_555
H7_2 C15_2 1_555 1_555
C16_2 C14_2 1_555 1_555
C18_2 C5_2 1_555 1_555
C20_2 C11_2 1_555 1_555
H9_2 C20_2 1_555 1_555
O11_3 In11 1_555 1_555
H10_3 O11_3 1_555 1_555
H11_3 O11_3 1_555 1_555
C21_2 C22_2 1_555 1_555
C22_2 C10_2 1_555 1_555
C23_2 C22_2 1_555 1_555
O14_2 C23_2 1_555 1_555
O16_2 C21_2 1_555 1_555
O17_2 C12_2 1_555 1_555
O18_2 C16_2 1_555 1_555
C24_2 C21_2 1_555 1_555
H12_2 C24_2 1_555 1_555
C25_2 C23_2 1_555 1_555
H13_2 C25_2 1_555 1_555
C27_2 O14_2 1_555 1_555
H17_2 C27_2 1_555 1_555
H18_2 C27_2 1_555 1_555
H19_2 C27_2 1_555 1_555
C28_2 O17_2 1_555 1_555
H20_2 C28_2 1_555 1_555
H21_2 C28_2 1_555 1_555
H22_2 C28_2 1_555 1_555
C30_2 O18_2 1_555 1_555
H26_2 C30_2 1_555 1_555
H27_2 C30_2 1_555 1_555
O19_2 C6_2 1_555 1_555
O20_2 C3_2 1_555 1_555
C31_2 O19_2 1_555 1_555
H29_2 C31_2 1_555 1_555
H30_2 C31_2 1_555 1_555
H31_2 C31_2 1_555 1_555
C32_2 C24_2 1_555 1_555
C33_2 O20_2 1_555 1_555
H32_2 C33_2 1_555 1_555
H33_2 C33_2 1_555 1_555
H34_2 C33_2 1_555 1_555
C34_2 O16_2 1_555 1_555
H35_2 C34_2 1_555 1_555
H36_2 C34_2 1_555 1_555
H37_2 C34_2 1_555 1_555
C35_2 C32_2 1_555 1_555
In13 O1_2 1_555 1_555
O21_3 In13 1_555 1_555
H38_3 O21_3 1_555 1_555
In9 O22_2 1_555 1_555
O22_2 H39_2 1_555 1_555
O23_2 C37_2 1_555 1_555
O24_2 C38_2 1_555 1_555
O25_2 In9 1_555 1_555
O26_2 In13 1_555 1_555
O43 C71_2 1_555 1_555
O28_2 In9 1_555 1_555
O30_2 In9 1_555 1_555
H40_2 O30_2 1_555 1_555
H41_2 O30_2 1_555 1_555
O48 C71_2 1_555 1_555
C37_2 O26_2 1_555 1_555
C38_2 O25_2 1_555 1_555
C39_2 C45_2 1_555 1_555
C41_2 C51_2 1_555 1_555
C42_2 C46_2 1_555 1_555
C43_2 C37_2 1_555 1_555
C45_2 C43_2 1_555 1_555
H42_2 C45_2 1_555 1_555
C46_2 C39_2 1_555 1_555
C47_2 C38_2 1_555 1_555
C48_2 C54_2 1_555 1_555
C49_2 C42_2 1_555 1_555
H43_2 C49_2 1_555 1_555
C50_2 H44_2 1_555 1_555
C51_2 C47_2 1_555 1_555
H45_2 C51_2 1_555 1_555
C52_2 C50_2 1_555 1_555
C54_2 C41_2 1_555 1_555
C56_2 C47_2 1_555 1_555
H47_2 C56_2 1_555 1_555
C57_2 C58_2 1_555 1_555
C58_2 C46_2 1_555 1_555
C59_2 C58_2 1_555 1_555
O34_2 C59_2 1_555 1_555
O36_2 C57_2 1_555 1_555
O37_2 C48_2 1_555 1_555
O38_2 C52_2 1_555 1_555
C60_2 C57_2 1_555 1_555
H48_2 C60_2 1_555 1_555
C61_2 C59_2 1_555 1_555
H49_2 C61_2 1_555 1_555
C63_2 O34_2 1_555 1_555
H53_2 C63_2 1_555 1_555
H54_2 C63_2 1_555 1_555
H55_2 C63_2 1_555 1_555
C64_2 O37_2 1_555 1_555
H56_2 C64_2 1_555 1_555
H57_2 C64_2 1_555 1_555
H58_2 C64_2 1_555 1_555
C66_2 O38_2 1_555 1_555
H62_2 C66_2 1_555 1_555
H63_2 C66_2 1_555 1_555
H64_2 C66_2 1_555 1_555
O39_2 C42_2 1_555 1_555
O40_2 C39_2 1_555 1_555
C67_2 O39_2 1_555 1_555
H65_2 C67_2 1_555 1_555
H66_2 C67_2 1_555 1_555
H67_2 C67_2 1_555 1_555
C68_2 C60_2 1_555 1_555
C69_2 O40_2 1_555 1_555
H68_2 C69_2 1_555 1_555
H69_2 C69_2 1_555 1_555
H70_2 C69_2 1_555 1_555
C70_2 O36_2 1_555 1_555
H71_2 C70_2 1_555 1_555
H72_2 C70_2 1_555 1_555
H73_2 C70_2 1_555 1_555
C71_2 C68_2 1_555 1_555
In14 O5_2 1_555 1_555
In12 O28_2 1_555 1_555
O2_2 In13 1_555 1_555
O3_2 In13 1_555 1_555
C7_2 C13_2 1_555 1_555
C12_2 C20_2 1_555 1_555
C25_2 C32_2 1_555 1_555
O21_3 In14 1_555 1_555
O22_2 In14 1_555 1_555
O23_2 In14 1_555 1_555
O24_2 In14 1_555 1_555
C43_2 C49_2 1_555 1_555
C48_2 C56_2 1_555 1_555
C61_2 C68_2 1_555 1_555
H3_2 O9_2 1_555 1_555
O41_3 In11_2 1_555 1_555
H74_3 O41_3 1_555 1_555
H75_3 O41_3 1_555 1_555
O44_3 In11_2 1_555 1_555
O50_3 In11_2 1_555 1_555
O45 C36_2 1_555 1_555
C4_2 C8_2 1_555 1_555
C19_2 C4_2 1_555 1_555
H8_2 C19_2 1_555 1_555
O49 C36_2 1_555 1_555
O15_2 C4_2 1_555 1_555
C29_2 O15_2 1_555 1_555
H23_2 C29_2 1_555 1_555
H24_2 C29_2 1_555 1_555
H25_2 C29_2 1_555 1_555
C36_2 C17_2 1_555 1_555
O46 C72_2 1_555 1_555
C40_2 C44_2 1_555 1_555
C55_2 C40_2 1_555 1_555
H46_2 C55_2 1_555 1_555
O49_2 C72_2 1_555 1_555
O35_2 C40_2 1_555 1_555
C62_2 O33_2 1_555 1_555
H50_2 C62_2 1_555 1_555
H51_2 C62_2 1_555 1_555
C65_2 O35_2 1_555 1_555
H59_2 C65_2 1_555 1_555
H60_2 C65_2 1_555 1_555
H61_2 C65_2 1_555 1_555
C72_2 C53_2 1_555 1_555
C17_2 C19_2 1_555 1_555
C53_2 C55_2 1_555 1_555
C26_2 O13_2 1_555 1_555
H14_2 C26_2 1_555 1_555
H15_2 C26_2 1_555 1_555
O11_4 In12 1_555 1_555
H10_4 O11_4 1_555 1_555
H11_4 O11_4 1_555 1_555
O41_4 In12 1_555 1_555
H74_4 O41_4 1_555 1_555
H75_4 O41_4 1_555 1_555
O44_4 In12 1_555 1_555
O50_4 In12 1_555 1_555
C26_3 O13_3 1_555 1_555
H14_3 C26_3 1_555 1_555
H15_3 C26_3 1_555 1_555
H16_3 C26_3 1_555 1_555
O3_3 C2_3 1_555 1_555
O8_2 C36_3 1_555 1_555
C2_3 O4_3 1_555 1_555
C4_3 C8_3 1_555 1_555
C5_3 C15_3 1_555 1_555
C8_3 C16_3 1_555 1_555
C11_3 C2_3 1_555 1_555
C12_3 C18_3 1_555 1_555
C14_3 H6_3 1_555 1_555
C15_3 C11_3 1_555 1_555
H7_3 C15_3 1_555 1_555
C16_3 C14_3 1_555 1_555
C17_3 C14_3 1_555 1_555
C18_3 C5_3 1_555 1_555
C19_3 C4_3 1_555 1_555
H8_3 C19_3 1_555 1_555
C20_3 C11_3 1_555 1_555
H9_3 C20_3 1_555 1_555
O50_3 C36_3 1_555 1_555
O15_3 C4_3 1_555 1_555
O17_3 C12_3 1_555 1_555
O18_3 C16_3 1_555 1_555
C28_3 O17_3 1_555 1_555
H20_3 C28_3 1_555 1_555
H21_3 C28_3 1_555 1_555
H22_3 C28_3 1_555 1_555
C29_3 O15_3 1_555 1_555
H23_3 C29_3 1_555 1_555
H24_3 C29_3 1_555 1_555
H25_3 C29_3 1_555 1_555
C30_3 O18_3 1_555 1_555
H26_3 C30_3 1_555 1_555
H27_3 C30_3 1_555 1_555
C36_3 C17_3 1_555 1_555
H38_4 O21_4 1_555 1_555
In4_2 O22_3 1_555 1_555
O22_3 H39_3 1_555 1_555
O23_3 C37_3 1_555 1_555
O30_3 In4_2 1_555 1_555
H40_3 O30_3 1_555 1_555
H41_3 O30_3 1_555 1_555
C37_3 O26_3 1_555 1_555
C39_3 C45_3 1_555 1_555
C43_3 C37_3 1_555 1_555
C45_3 C43_3 1_555 1_555
H42_3 C45_3 1_555 1_555
H43_3 C49_3 1_555 1_555
O36_3 C57_3 1_555 1_555
O40_3 C39_3 1_555 1_555
C69_3 O40_3 1_555 1_555
H68_3 C69_3 1_555 1_555
H69_3 C69_3 1_555 1_555
H70_3 C69_3 1_555 1_555
C70_3 O36_3 1_555 1_555
H71_3 C70_3 1_555 1_555
H72_3 C70_3 1_555 1_555
H73_3 C70_3 1_555 1_555
In6 O8_2 1_555 1_555
O42_2 In5_2 1_555 1_555
O46_2 In4_2 1_555 1_555
O47_2 In4_2 1_555 1_555
C8_3 C18_3 1_555 1_555
C12_3 C20_3 1_555 1_555
C17_3 C19_3 1_555 1_555
O21_4 In5_2 1_555 1_555
O22_3 In5_2 1_555 1_555
O23_3 In5_2 1_555 1_555
C43_3 C49_3 1_555 1_555
O27_2 C71_3 1_555 1_555
O31_2 C71_3 1_555 1_555
C42_3 C46_3 1_555 1_555
C58_3 C46_3 1_555 1_555
C59_3 C58_3 1_555 1_555
O34_3 C59_3 1_555 1_555
C61_3 C59_3 1_555 1_555
H49_3 C61_3 1_555 1_555
C63_3 O34_3 1_555 1_555
H53_3 C63_3 1_555 1_555
H54_3 C63_3 1_555 1_555
H55_3 C63_3 1_555 1_555
O39_3 C42_3 1_555 1_555
C67_3 O39_3 1_555 1_555
H65_3 C67_3 1_555 1_555
H66_3 C67_3 1_555 1_555
C68_3 C60_3 1_555 1_555
C71_3 C68_3 1_555 1_555
In6 O31_2 1_555 1_555
In13_2 O27_2 1_555 1_555
C61_3 C68_3 1_555 1_555
H3_3 O9_3 1_555 1_555
In1_2 O1_3 1_555 1_555
O1_3 H1_3 1_555 1_555
O2_3 C1_3 1_555 1_555
O5_3 C1_3 1_555 1_555
C1_3 C7_3 1_555 1_555
C3_3 C9_3 1_555 1_555
C7_3 C9_3 1_555 1_555
C9_3 H4_3 1_555 1_555
H5_3 C13_3 1_555 1_555
O16_3 C21_3 1_555 1_555
O20_3 C3_3 1_555 1_555
C33_3 O20_3 1_555 1_555
H32_3 C33_3 1_555 1_555
H33_3 C33_3 1_555 1_555
H34_3 C33_3 1_555 1_555
C34_3 O16_3 1_555 1_555
H35_3 C34_3 1_555 1_555
H36_3 C34_3 1_555 1_555
H37_3 C34_3 1_555 1_555
In3_2 O1_3 1_555 1_555
O21_5 In3_2 1_555 1_555
H38_5 O21_5 1_555 1_555
O24_3 C38_3 1_555 1_555
O29_2 C72_3 1_555 1_555
C38_3 O25_3 1_555 1_555
C40_3 C44_3 1_555 1_555
C41_3 C51_3 1_555 1_555
C44_3 C52_3 1_555 1_555
C47_3 C38_3 1_555 1_555
C48_3 C54_3 1_555 1_555
C50_3 H44_3 1_555 1_555
C51_3 C47_3 1_555 1_555
H45_3 C51_3 1_555 1_555
C52_3 C50_3 1_555 1_555
C53_3 C50_3 1_555 1_555
C54_3 C41_3 1_555 1_555
C55_3 C40_3 1_555 1_555
H46_3 C55_3 1_555 1_555
C56_3 C47_3 1_555 1_555
H47_3 C56_3 1_555 1_555
O50_4 C72_3 1_555 1_555
O33_3 C41_3 1_555 1_555
O35_3 C40_3 1_555 1_555
O37_3 C48_3 1_555 1_555
O38_3 C52_3 1_555 1_555
C62_3 O33_3 1_555 1_555
H50_3 C62_3 1_555 1_555
H51_3 C62_3 1_555 1_555
H52_3 C62_3 1_555 1_555
C64_3 O37_3 1_555 1_555
H56_3 C64_3 1_555 1_555
H57_3 C64_3 1_555 1_555
H58_3 C64_3 1_555 1_555
C65_3 O35_3 1_555 1_555
H59_3 C65_3 1_555 1_555
H60_3 C65_3 1_555 1_555
H61_3 C65_3 1_555 1_555
C66_3 O38_3 1_555 1_555
H62_3 C66_3 1_555 1_555
H63_3 C66_3 1_555 1_555
H64_3 C66_3 1_555 1_555
C72_3 C53_3 1_555 1_555
In8 O29_2 1_555 1_555
O43_2 In3_2 1_555 1_555
O45_2 In1_2 1_555 1_555
O48_2 In1_2 1_555 1_555
O2_3 In3_2 1_555 1_555
C7_3 C13_3 1_555 1_555
C44_3 C54_3 1_555 1_555
C48_3 C56_3 1_555 1_555
C53_3 C55_3 1_555 1_555
O6_2 C35_3 1_555 1_555
O10_2 C35_3 1_555 1_555
C6_3 C10_3 1_555 1_555
C22_3 C10_3 1_555 1_555
C23_3 C22_3 1_555 1_555
O14_3 C23_3 1_555 1_555
C25_3 C23_3 1_555 1_555
H13_3 C25_3 1_555 1_555
C27_3 O14_3 1_555 1_555
H17_3 C27_3 1_555 1_555
H18_3 C27_3 1_555 1_555
H19_3 C27_3 1_555 1_555
O19_3 C6_3 1_555 1_555
C31_3 O19_3 1_555 1_555
H29_3 C31_3 1_555 1_555
H30_3 C31_3 1_555 1_555
C32_3 C24_3 1_555 1_555
C35_3 C32_3 1_555 1_555
In8 O10_2 1_555 1_555
In14_2 O6_2 1_555 1_555
C25_3 C32_3 1_555 1_555
C26_4 O13_4 1_555 1_555
H14_4 C26_4 1_555 1_555
H15_4 C26_4 1_555 1_555
O45_2 C36_4 1_555 1_555
C4_4 C8_4 1_555 1_555
C19_4 C4_4 1_555 1_555
H8_4 C19_4 1_555 1_555
O50 C36_4 1_555 1_555
O15_4 C4_4 1_555 1_555
C29_4 O15_4 1_555 1_555
H23_4 C29_4 1_555 1_555
H24_4 C29_4 1_555 1_555
H25_4 C29_4 1_555 1_555
C36_4 C17_4 1_555 1_555
O46_2 C72_4 1_555 1_555
C40_4 C44_4 1_555 1_555
C55_4 C40_4 1_555 1_555
H46_4 C55_4 1_555 1_555
O50_2 C72_4 1_555 1_555
O35_4 C40_4 1_555 1_555
C62_4 O33_4 1_555 1_555
H50_4 C62_4 1_555 1_555
H51_4 C62_4 1_555 1_555
C65_4 O35_4 1_555 1_555
H59_4 C65_4 1_555 1_555
H60_4 C65_4 1_555 1_555
H61_4 C65_4 1_555 1_555
C72_4 C53_4 1_555 1_555
C17_4 C19_4 1_555 1_555
C53_4 C55_4 1_555 1_555
H3_4 O9_4 1_555 1_555
In6 O1_4 1_555 1_555
O1_4 H1_4 1_555 1_555
O2_4 C1_4 1_555 1_555
O3_4 C2_4 1_555 1_555
O4_4 In6 1_555 1_555
O5_4 C1_4 1_555 1_555
O42_2 C35_4 1_555 1_555
O44_3 In6 1_555 1_555
O47_2 C35_4 1_555 1_555
C1_4 C7_4 1_555 1_555
C2_4 O4_4 1_555 1_555
C3_4 C9_4 1_555 1_555
C5_4 C15_4 1_555 1_555
C6_4 C10_4 1_555 1_555
C7_4 C9_4 1_555 1_555
C9_4 H4_4 1_555 1_555
C10_4 C3_4 1_555 1_555
C11_4 C2_4 1_555 1_555
C12_4 C18_4 1_555 1_555
C13_4 C6_4 1_555 1_555
H5_4 C13_4 1_555 1_555
C14_4 H6_4 1_555 1_555
C15_4 C11_4 1_555 1_555
H7_4 C15_4 1_555 1_555
C16_4 C14_4 1_555 1_555
C18_4 C5_4 1_555 1_555
C20_4 C11_4 1_555 1_555
H9_4 C20_4 1_555 1_555
C21_4 C22_4 1_555 1_555
C22_4 C10_4 1_555 1_555
C23_4 C22_4 1_555 1_555
O14_4 C23_4 1_555 1_555
O16_4 C21_4 1_555 1_555
O17_4 C12_4 1_555 1_555
O18_4 C16_4 1_555 1_555
C24_4 C21_4 1_555 1_555
H12_4 C24_4 1_555 1_555
C25_4 C23_4 1_555 1_555
H13_4 C25_4 1_555 1_555
C27_4 O14_4 1_555 1_555
H17_4 C27_4 1_555 1_555
H18_4 C27_4 1_555 1_555
H19_4 C27_4 1_555 1_555
C28_4 O17_4 1_555 1_555
H20_4 C28_4 1_555 1_555
H21_4 C28_4 1_555 1_555
H22_4 C28_4 1_555 1_555
C30_4 O18_4 1_555 1_555
H26_4 C30_4 1_555 1_555
H27_4 C30_4 1_555 1_555
O19_4 C6_4 1_555 1_555
O20_4 C3_4 1_555 1_555
C31_4 O19_4 1_555 1_555
H29_4 C31_4 1_555 1_555
H30_4 C31_4 1_555 1_555
H31_4 C31_4 1_555 1_555
C32_4 C24_4 1_555 1_555
C33_4 O20_4 1_555 1_555
H32_4 C33_4 1_555 1_555
H33_4 C33_4 1_555 1_555
H34_4 C33_4 1_555 1_555
C34_4 O16_4 1_555 1_555
H35_4 C34_4 1_555 1_555
H36_4 C34_4 1_555 1_555
H37_4 C34_4 1_555 1_555
C35_4 C32_4 1_555 1_555
In13_2 O1_4 1_555 1_555
O21_6 In13_2 1_555 1_555
H38_6 O21_6 1_555 1_555
In8 O22_4 1_555 1_555
O22_4 H39_4 1_555 1_555
O23_4 C37_4 1_555 1_555
O24_4 C38_4 1_555 1_555
O25_4 In8 1_555 1_555
O26_4 In13_2 1_555 1_555
O43_2 C71_4 1_555 1_555
O44_4 In8 1_555 1_555
O30_4 In8 1_555 1_555
H40_4 O30_4 1_555 1_555
H41_4 O30_4 1_555 1_555
O48_2 C71_4 1_555 1_555
C37_4 O26_4 1_555 1_555
C38_4 O25_4 1_555 1_555
C39_4 C45_4 1_555 1_555
C41_4 C51_4 1_555 1_555
C42_4 C46_4 1_555 1_555
C43_4 C37_4 1_555 1_555
C45_4 C43_4 1_555 1_555
H42_4 C45_4 1_555 1_555
C46_4 C39_4 1_555 1_555
C47_4 C38_4 1_555 1_555
C48_4 C54_4 1_555 1_555
C49_4 C42_4 1_555 1_555
H43_4 C49_4 1_555 1_555
C50_4 H44_4 1_555 1_555
C51_4 C47_4 1_555 1_555
H45_4 C51_4 1_555 1_555
C52_4 C50_4 1_555 1_555
C54_4 C41_4 1_555 1_555
C56_4 C47_4 1_555 1_555
H47_4 C56_4 1_555 1_555
C57_4 C58_4 1_555 1_555
C58_4 C46_4 1_555 1_555
C59_4 C58_4 1_555 1_555
O34_4 C59_4 1_555 1_555
O36_4 C57_4 1_555 1_555
O37_4 C48_4 1_555 1_555
O38_4 C52_4 1_555 1_555
C60_4 C57_4 1_555 1_555
H48_4 C60_4 1_555 1_555
C61_4 C59_4 1_555 1_555
H49_4 C61_4 1_555 1_555
C63_4 O34_4 1_555 1_555
H53_4 C63_4 1_555 1_555
H54_4 C63_4 1_555 1_555
H55_4 C63_4 1_555 1_555
C64_4 O37_4 1_555 1_555
H56_4 C64_4 1_555 1_555
H57_4 C64_4 1_555 1_555
H58_4 C64_4 1_555 1_555
C66_4 O38_4 1_555 1_555
H62_4 C66_4 1_555 1_555
H63_4 C66_4 1_555 1_555
H64_4 C66_4 1_555 1_555
O39_4 C42_4 1_555 1_555
O40_4 C39_4 1_555 1_555
C67_4 O39_4 1_555 1_555
H65_4 C67_4 1_555 1_555
H66_4 C67_4 1_555 1_555
H67_4 C67_4 1_555 1_555
C68_4 C60_4 1_555 1_555
C69_4 O40_4 1_555 1_555
H68_4 C69_4 1_555 1_555
H69_4 C69_4 1_555 1_555
H70_4 C69_4 1_555 1_555
C70_4 O36_4 1_555 1_555
H71_4 C70_4 1_555 1_555
H72_4 C70_4 1_555 1_555
H73_4 C70_4 1_555 1_555
C71_4 C68_4 1_555 1_555
In14_2 O5_4 1_555 1_555
O2_4 In13_2 1_555 1_555
O3_4 In13_2 1_555 1_555
C7_4 C13_4 1_555 1_555
C12_4 C20_4 1_555 1_555
C25_4 C32_4 1_555 1_555
O21_6 In14_2 1_555 1_555
O22_4 In14_2 1_555 1_555
O23_4 In14_2 1_555 1_555
O24_4 In14_2 1_555 1_555
C43_4 C49_4 1_555 1_555
C48_4 C56_4 1_555 1_555
C61_4 C68_4 1_555 1_555

#END
