
###############################################################################
#
# This file contains modified crystal structure data generated from the
# MOF subset of the Cambridge Structural Database (CSD) v543 
# hosted by the Cambridge Crystallographic Data Centre (CCDC).
#
# This work is licensed under the Creative Commons
# Attribution-NonCommercial-ShareAlike 4.0 International License.
# To view a copy of this license, visit
# http://creativecommons.org/licenses/by-nc-sa/4.0/
# or send a letter to
# Creative Commons, PO Box 1866, Mountain View, CA 94042, USA.
#
# CIF created using the CSD Python API on 29 September 2022
# The structure has been converted into the P1 space group
# The structure has a 3D framework
# The original CSD entry HAYTAG is in the monoclinic crystal system
# The framework has been calculated to contain at least 10.0% void space
# The void calculation uses a probe of radius 1.32A, grid spacing 0.4
#
###############################################################################

data_HAYTAG
_chemical_formula_moiety         '(C230 H208 N16 O48 Si8 Zn8)n'
_symmetry_cell_setting           triclinic
_symmetry_space_group_name_H-M   'P 1'
_symmetry_Int_Tables_number      1
_space_group_name_Hall           'P 1'
loop_
_symmetry_equiv_pos_site_id
_symmetry_equiv_pos_as_xyz
1 x,y,z
_cell_length_a                   18.343(5)
_cell_length_b                   21.595(6)
_cell_length_c                   16.290(4)
_cell_angle_alpha                90
_cell_angle_beta                 95.340(3)
_cell_angle_gamma                90
_cell_volume                     6424.74
loop_
_atom_site_label
_atom_site_type_symbol
_atom_site_fract_x
_atom_site_fract_y
_atom_site_fract_z
Zn1 Zn 0.36325(3) 0.37825(2) 0.48960(3)
Si1 Si 0.59463(8) 0.03038(7) 0.39778(9)
O1 O 0.82156(18) 0.12052(16) 0.0971(2)
O2 O 0.81897(18) 0.01829(18) 0.0815(2)
O3 O 0.42315(17) 0.30510(15) 0.4796(2)
O4 O 0.5392(3) 0.3321(2) 0.5089(3)
O5 O 0.49364(16) 0.60591(14) 0.3339(2)
O6 O 0.60084(17) 0.76673(13) 0.27264(17)
N1 N 0.40282(19) 0.45050(16) 0.4302(2)
N2 N 0.77162(18) 0.85119(15) 0.4166(2)
C1 C 0.8010(2) 0.0657(3) 0.1165(3)
C2 C 0.7513(2) 0.0599(3) 0.1867(3)
C3 C 0.7279(3) 0.0019(3) 0.2078(3)
C5 C 0.6557(3) 0.0439(2) 0.3113(3)
C6 C 0.6802(3) 0.1024(3) 0.2899(3)
H3 H 0.6647 0.1378 0.3183
C7 C 0.7275(3) 0.1104(3) 0.2272(3)
H4 H 0.7427 0.1508 0.2131
H7 H 0.6884 0.0254 0.5070
C10 C 0.5578(3) 0.1073(3) 0.4269(3)
C11 C 0.4899(3) 0.1286(3) 0.3998(4)
H11 H 0.4572 0.1027 0.3667
C12 C 0.4671(3) 0.1894(3) 0.4207(4)
H12 H 0.4195 0.2040 0.4022
C13 C 0.5154(3) 0.2264(3) 0.4682(3)
C14 C 0.5834(4) 0.2058(3) 0.4948(4)
H13 H 0.6172 0.2318 0.5262
C15 C 0.6020(4) 0.1465(3) 0.4752(4)
H14 H 0.6487 0.1316 0.4966
C16 C 0.4908(4) 0.2926(3) 0.4857(4)
C17 C 0.3604(2) 0.4994(2) 0.4092(3)
H15 H 0.3100 0.4971 0.4180
C18 C 0.3857(2) 0.5531(2) 0.3754(3)
H16 H 0.3537 0.5867 0.3609
C19 C 0.4602(2) 0.55613(19) 0.3633(3)
C20 C 0.5046(2) 0.5053(2) 0.3828(3)
H17 H 0.5548 0.5061 0.3732
C21 C 0.4748(2) 0.45351(19) 0.4162(3)
H18 H 0.5055 0.4189 0.4299
C22 C 0.4485(2) 0.65508(19) 0.2951(3)
H19 H 0.4255 0.6796 0.3371
H20 H 0.4094 0.6376 0.2558
C23 C 0.5000 0.6953(3) 0.2500
C24 C 0.5452(2) 0.73492(19) 0.3136(3)
H21 H 0.5133 0.7653 0.3383
H22 H 0.5683 0.7084 0.3582
C25 C 0.6555(2) 0.79920(19) 0.4080(3)
H23 H 0.6162 0.7833 0.4357
C26 C 0.7144(2) 0.82734(19) 0.4510(3)
H24 H 0.7145 0.8301 0.5092
C27 C 0.7699(3) 0.8474(2) 0.3331(3)
H25 H 0.8095 0.8644 0.3069
C28 C 0.7129(3) 0.8197(2) 0.2847(3)
H26 H 0.7136 0.8180 0.2265
C29 C 0.6549(2) 0.79460(18) 0.3222(3)
O7 O 0.50636(16) 0.60591(14) 0.1661(2)
O8 O 0.39916(17) 0.76673(13) 0.22736(17)
N3 N 0.59718(19) 0.45050(16) 0.0698(2)
N4 N 0.22838(18) 0.85119(15) 0.0834(2)
C30 C 0.6396(2) 0.4994(2) 0.0908(3)
H27 H 0.6900 0.4971 0.0820
C31 C 0.6143(2) 0.5531(2) 0.1246(3)
H28 H 0.6463 0.5867 0.1391
C32 C 0.5398(2) 0.55613(19) 0.1367(3)
C33 C 0.4954(2) 0.5053(2) 0.1172(3)
H29 H 0.4452 0.5061 0.1268
C34 C 0.5252(2) 0.45351(19) 0.0838(3)
H30 H 0.4945 0.4189 0.0701
C35 C 0.5515(2) 0.65508(19) 0.2049(3)
H31 H 0.5745 0.6796 0.1629
H32 H 0.5906 0.6376 0.2442
C36 C 0.4548(2) 0.73492(19) 0.1864(3)
H33 H 0.4867 0.7653 0.1617
H34 H 0.4317 0.7084 0.1418
C37 C 0.3445(2) 0.79920(19) 0.0920(3)
H35 H 0.3838 0.7833 0.0643
C38 C 0.2856(2) 0.82734(19) 0.0490(3)
C39 C 0.2301(3) 0.8474(2) 0.1669(3)
H37 H 0.1905 0.8644 0.1931
C40 C 0.2871(3) 0.8197(2) 0.2153(3)
H38 H 0.2864 0.8180 0.2735
C41 C 0.3451(2) 0.79460(18) 0.1778(3)
Zn2 Zn 0.63675(3) 0.37825(2) 0.01040(3)
Si2 Si 0.40537(8) 0.03038(7) 0.10222(9)
O9 O 0.17844(18) 0.12052(16) 0.4029(2)
O10 O 0.18103(18) 0.01829(18) 0.4185(2)
O11 O 0.57685(17) 0.30510(15) 0.0204(2)
C42 C 0.1990(2) 0.0657(3) 0.3835(3)
C43 C 0.2487(2) 0.0599(3) 0.3133(3)
C44 C 0.2721(3) 0.0019(3) 0.2922(3)
C46 C 0.3443(3) 0.0439(2) 0.1887(3)
C47 C 0.3198(3) 0.1024(3) 0.2101(3)
H41 H 0.3353 0.1378 0.1817
C48 C 0.2725(3) 0.1104(3) 0.2728(3)
H42 H 0.2573 0.1508 0.2869
C51 C 0.4422(3) 0.1073(3) 0.0731(3)
C52 C 0.5101(3) 0.1286(3) 0.1002(4)
H49 H 0.5428 0.1027 0.1333
C53 C 0.5329(3) 0.1894(3) 0.0793(4)
H50 H 0.5805 0.2040 0.0978
C54 C 0.4846(3) 0.2264(3) 0.0318(3)
C55 C 0.4166(4) 0.2058(3) 0.0052(4)
C56 C 0.3980(4) 0.1465(3) 0.0248(4)
H52 H 0.3513 0.1316 0.0034
C57 C 0.5092(4) 0.2926(3) 0.0143(4)
Zn3 Zn 0.86325(3) 0.87825(2) 0.48960(3)
Zn4 Zn 0.13675(3) 0.87825(2) 0.01040(3)
Zn5 Zn 0.13675(3) 0.12175(2) 0.51040(3)
O14 O 0.32156(18) 0.37948(16) 0.5971(2)
N5 N 0.27162(18) 0.35119(15) 0.4166(2)
N6 N 0.72838(18) 0.35119(15) 0.0834(2)
H36 H 0.2855 0.8301 0.9908
O12 O 0.4608(3) 0.3321(2) 0.9911(3)
H45 H 0.3116 0.0254 0.9930
H51 H 0.3828 0.2318 0.9738
Zn6 Zn 0.86325(3) 0.12175(2) 0.98960(3)
O13 O 0.67844(18) 0.37948(16) 0.9029(2)
O6_2 O 0.10084(17) 0.26673(13) 0.27264(17)
C20_2 C 0.0046(2) 0.0053(2) 0.3828(3)
H17_2 H 0.0548 0.0061 0.3732
C23_2 C 0.0000 0.1953(3) 0.2500
C24_2 C 0.0452(2) 0.23492(19) 0.3136(3)
H21_2 H 0.0133 0.2653 0.3383
H22_2 H 0.0683 0.2084 0.3582
C25_2 C 0.1555(2) 0.29920(19) 0.4080(3)
H23_2 H 0.1162 0.2833 0.4357
C26_2 C 0.2144(2) 0.32734(19) 0.4510(3)
H24_2 H 0.2145 0.3301 0.5092
C27_2 C 0.2699(3) 0.3474(2) 0.3331(3)
H25_2 H 0.3095 0.3644 0.3069
C28_2 C 0.2129(3) 0.3197(2) 0.2847(3)
H26_2 H 0.2136 0.3180 0.2265
C29_2 C 0.1549(2) 0.29460(18) 0.3222(3)
O7_2 O 0.00636(16) 0.10591(14) 0.1661(2)
C31_2 C 0.1143(2) 0.0531(2) 0.1246(3)
H28_2 H 0.1463 0.0867 0.1391
C32_2 C 0.0398(2) 0.05613(19) 0.1367(3)
C35_2 C 0.0515(2) 0.15508(19) 0.2049(3)
H31_2 H 0.0745 0.1796 0.1629
H32_2 H 0.0906 0.1376 0.2442
Si1_2 Si 0.09463(8) 0.53038(7) 0.39778(9)
O1_2 O 0.32156(18) 0.62052(16) 0.0971(2)
O2_2 O 0.31897(18) 0.51829(18) 0.0815(2)
O4_2 O 0.0392(3) 0.8321(2) 0.5089(3)
C1_2 C 0.3010(2) 0.5657(3) 0.1165(3)
C2_2 C 0.2513(2) 0.5599(3) 0.1867(3)
C3_2 C 0.2279(3) 0.5019(3) 0.2078(3)
H1 H 0.2446 0.4668 0.1799
C4 C 0.1806(3) 0.4934(3) 0.2688(3)
H2 H 0.1652 0.4528 0.2815
C5_2 C 0.1557(3) 0.5439(2) 0.3113(3)
C6_2 C 0.1802(3) 0.6024(3) 0.2899(3)
H3_2 H 0.1647 0.6378 0.3183
C7_2 C 0.2275(3) 0.6104(3) 0.2272(3)
H4_2 H 0.2427 0.6508 0.2131
C8 C 0.1506(3) 0.4959(3) 0.4861(4)
H5 H 0.1737 0.4579 0.4684
H6 H 0.1192 0.4861 0.5299
H7_2 H 0.1884 0.5254 0.5070
C9 C 0.0198(3) 0.4755(3) 0.3653(4)
H10 H 0.0405 0.4375 0.3443
C10_2 C 0.0578(3) 0.6073(3) 0.4269(3)
C13_2 C 0.0154(3) 0.7264(3) 0.4682(3)
C14_2 C 0.0834(4) 0.7058(3) 0.4948(4)
H13_2 H 0.1172 0.7318 0.5262
C15_2 C 0.1020(4) 0.6465(3) 0.4752(4)
H14_2 H 0.1487 0.6316 0.4966
H18_2 H 0.0055 0.9189 0.4299
N3_2 N 0.09718(19) 0.95050(16) 0.0698(2)
C30_2 C 0.1396(2) 0.9994(2) 0.0908(3)
H27_2 H 0.1900 0.9971 0.0820
C34_2 C 0.0252(2) 0.95351(19) 0.0838(3)
O11_2 O 0.07685(17) 0.80510(15) 0.0204(2)
H46 H 0.0135 0.4945 0.1781
H47 H 0.0074 0.4655 0.0873
C52_2 C 0.0101(3) 0.6286(3) 0.1002(4)
H49_2 H 0.0428 0.6027 0.1333
C53_2 C 0.0329(3) 0.6894(3) 0.0793(4)
H50_2 H 0.0805 0.7040 0.0978
C57_2 C 0.0092(4) 0.7926(3) 0.0143(4)
Zn6_2 Zn 0.36325(3) 0.62175(2) 0.98960(3)
O13_2 O 0.17844(18) 0.87948(16) 0.9029(2)
O5_2 O 0.99364(16) 0.10591(14) 0.3339(2)
C18_2 C 0.8857(2) 0.0531(2) 0.3754(3)
H16_2 H 0.8537 0.0867 0.3609
C19_2 C 0.9602(2) 0.05613(19) 0.3633(3)
C22_2 C 0.9485(2) 0.15508(19) 0.2951(3)
H19_2 H 0.9255 0.1796 0.3371
H20_2 H 0.9094 0.1376 0.2558
C23_3 C 1.0000 0.1953(3) 0.2500
O8_2 O 0.89916(17) 0.26673(13) 0.22736(17)
C33_2 C 0.9954(2) 0.0053(2) 0.1172(3)
H29_2 H 0.9452 0.0061 0.1268
C36_2 C 0.9548(2) 0.23492(19) 0.1864(3)
H33_2 H 0.9867 0.2653 0.1617
H34_2 H 0.9317 0.2084 0.1418
C37_2 C 0.8445(2) 0.29920(19) 0.0920(3)
H35_2 H 0.8838 0.2833 0.0643
C38_2 C 0.7856(2) 0.32734(19) 0.0490(3)
C39_2 C 0.7301(3) 0.3474(2) 0.1669(3)
H37_2 H 0.6905 0.3644 0.1931
C40_2 C 0.7871(3) 0.3197(2) 0.2153(3)
H38_2 H 0.7864 0.3180 0.2735
C41_2 C 0.8451(2) 0.29460(18) 0.1778(3)
O3_2 O 0.92315(17) 0.80510(15) 0.4796(2)
N1_2 N 0.90282(19) 0.95050(16) 0.4302(2)
H8 H 0.9865 0.4945 0.3219
H9 H 0.9926 0.4655 0.4127
C11_2 C 0.9899(3) 0.6286(3) 0.3998(4)
H11_2 H 0.9572 0.6027 0.3667
C12_2 C 0.9671(3) 0.6894(3) 0.4207(4)
H12_2 H 0.9195 0.7040 0.4022
C16_2 C 0.9908(4) 0.7926(3) 0.4857(4)
C17_2 C 0.8604(2) 0.9994(2) 0.4092(3)
H15_2 H 0.8100 0.9971 0.4180
C21_2 C 0.9748(2) 0.95351(19) 0.4162(3)
H30_2 H 0.9945 0.9189 0.0701
Si2_2 Si 0.90537(8) 0.53038(7) 0.10222(9)
O9_2 O 0.67844(18) 0.62052(16) 0.4029(2)
O10_2 O 0.68103(18) 0.51829(18) 0.4185(2)
C42_2 C 0.6990(2) 0.5657(3) 0.3835(3)
C43_2 C 0.7487(2) 0.5599(3) 0.3133(3)
C44_2 C 0.7721(3) 0.5019(3) 0.2922(3)
H39 H 0.7554 0.4668 0.3201
C45 C 0.8194(3) 0.4934(3) 0.2312(3)
H40 H 0.8348 0.4528 0.2185
C46_2 C 0.8443(3) 0.5439(2) 0.1887(3)
C47_2 C 0.8198(3) 0.6024(3) 0.2101(3)
H41_2 H 0.8353 0.6378 0.1817
C48_2 C 0.7725(3) 0.6104(3) 0.2728(3)
H42_2 H 0.7573 0.6508 0.2869
C49 C 0.8494(3) 0.4959(3) 0.0139(4)
H43 H 0.8263 0.4579 0.0316
C50 C 0.9802(3) 0.4755(3) 0.1347(4)
H48 H 0.9595 0.4375 0.1557
C51_2 C 0.9422(3) 0.6073(3) 0.0731(3)
C54_2 C 0.9846(3) 0.7264(3) 0.0318(3)
C55_2 C 0.9166(4) 0.7058(3) 0.0052(4)
C56_2 C 0.8980(4) 0.6465(3) 0.0248(4)
H52_2 H 0.8513 0.6316 0.0034
Zn5_2 Zn 0.63675(3) 0.62175(2) 0.51040(3)
O14_2 O 0.82156(18) 0.87948(16) 0.5971(2)
H36_2 H 0.7145 0.1699 0.0092
O12_2 O 0.5392(3) 0.6679(2) 0.0089(3)
H45_2 H 0.6884 0.9746 0.0070
H51_2 H 0.6172 0.7682 0.0262
Si1_3 Si 0.40537(8) 0.96962(7) 0.60222(9)
O2_3 O 0.18103(18) 0.98171(18) 0.9185(2)
O3_3 O 0.57685(17) 0.69490(15) 0.5204(2)
O4_3 O 0.4608(3) 0.6679(2) 0.4911(3)
O5_3 O 0.50636(16) 0.39409(14) 0.6661(2)
O6_3 O 0.39916(17) 0.23327(13) 0.72736(17)
N1_3 N 0.59718(19) 0.54950(16) 0.5698(2)
N2_2 N 0.22838(18) 0.14881(15) 0.5834(2)
C1_3 C 0.1990(2) 0.9343(3) 0.8835(3)
C2_3 C 0.2487(2) 0.9401(3) 0.8133(3)
C3_3 C 0.2721(3) 0.9981(3) 0.7922(3)
C5_3 C 0.3443(3) 0.9561(2) 0.6887(3)
C6_3 C 0.3198(3) 0.8976(3) 0.7101(3)
H3_3 H 0.3353 0.8622 0.6817
C7_3 C 0.2725(3) 0.8896(3) 0.7728(3)
H4_3 H 0.2573 0.8492 0.7869
H7_3 H 0.3116 0.9746 0.4930
C10_3 C 0.4422(3) 0.8927(3) 0.5731(3)
C11_3 C 0.5101(3) 0.8714(3) 0.6002(4)
H11_3 H 0.5428 0.8973 0.6333
C12_3 C 0.5329(3) 0.8106(3) 0.5793(4)
H12_3 H 0.5805 0.7960 0.5978
C13_3 C 0.4846(3) 0.7736(3) 0.5318(3)
C14_3 C 0.4166(4) 0.7942(3) 0.5052(4)
H13_3 H 0.3828 0.7682 0.4738
C15_3 C 0.3980(4) 0.8535(3) 0.5248(4)
H14_3 H 0.3513 0.8684 0.5034
C16_3 C 0.5092(4) 0.7074(3) 0.5143(4)
C17_3 C 0.6396(2) 0.5006(2) 0.5908(3)
H15_3 H 0.6900 0.5029 0.5820
C18_3 C 0.6143(2) 0.4469(2) 0.6246(3)
H16_3 H 0.6463 0.4133 0.6391
C19_3 C 0.5398(2) 0.44387(19) 0.6367(3)
C20_3 C 0.4954(2) 0.4947(2) 0.6172(3)
H17_3 H 0.4452 0.4939 0.6268
C21_3 C 0.5252(2) 0.54649(19) 0.5838(3)
H18_3 H 0.4945 0.5811 0.5701
C22_3 C 0.5515(2) 0.34492(19) 0.7049(3)
H19_3 H 0.5745 0.3204 0.6629
H20_3 H 0.5906 0.3624 0.7442
C23_4 C 0.5000 0.3047(3) 0.7500
C24_3 C 0.4548(2) 0.26508(19) 0.6864(3)
H21_3 H 0.4867 0.2347 0.6617
H22_3 H 0.4317 0.2916 0.6418
C25_3 C 0.3445(2) 0.20080(19) 0.5920(3)
H23_3 H 0.3838 0.2167 0.5643
C26_3 C 0.2856(2) 0.17266(19) 0.5490(3)
H24_3 H 0.2855 0.1699 0.4908
C27_3 C 0.2301(3) 0.1526(2) 0.6669(3)
H25_3 H 0.1905 0.1356 0.6931
C28_3 C 0.2871(3) 0.1803(2) 0.7153(3)
H26_3 H 0.2864 0.1820 0.7735
C29_3 C 0.3451(2) 0.20540(18) 0.6778(3)
O7_3 O 0.49364(16) 0.39409(14) 0.8339(2)
O8_3 O 0.60084(17) 0.23327(13) 0.77264(17)
N3_3 N 0.40282(19) 0.54950(16) 0.9302(2)
N4_2 N 0.77162(18) 0.14881(15) 0.9166(2)
C30_3 C 0.3604(2) 0.5006(2) 0.9092(3)
H27_3 H 0.3100 0.5029 0.9180
C31_3 C 0.3857(2) 0.4469(2) 0.8754(3)
H28_3 H 0.3537 0.4133 0.8609
C32_3 C 0.4602(2) 0.44387(19) 0.8633(3)
C33_3 C 0.5046(2) 0.4947(2) 0.8828(3)
H29_3 H 0.5548 0.4939 0.8732
C34_3 C 0.4748(2) 0.54649(19) 0.9162(3)
H30_3 H 0.5055 0.5811 0.9299
C35_3 C 0.4485(2) 0.34492(19) 0.7951(3)
H31_3 H 0.4255 0.3204 0.8371
H32_3 H 0.4094 0.3624 0.7558
C36_3 C 0.5452(2) 0.26508(19) 0.8136(3)
H33_3 H 0.5133 0.2347 0.8383
H34_3 H 0.5683 0.2916 0.8582
C37_3 C 0.6555(2) 0.20080(19) 0.9080(3)
H35_3 H 0.6162 0.2167 0.9357
C38_3 C 0.7144(2) 0.17266(19) 0.9510(3)
C39_3 C 0.7699(3) 0.1526(2) 0.8331(3)
H37_3 H 0.8095 0.1356 0.8069
C40_3 C 0.7129(3) 0.1803(2) 0.7847(3)
H38_3 H 0.7136 0.1820 0.7265
C41_3 C 0.6549(2) 0.20540(18) 0.8222(3)
Si2_3 Si 0.59463(8) 0.96962(7) 0.89778(9)
O10_3 O 0.81897(18) 0.98171(18) 0.5815(2)
O11_3 O 0.42315(17) 0.69490(15) 0.9796(2)
C42_3 C 0.8010(2) 0.9343(3) 0.6165(3)
C43_3 C 0.7513(2) 0.9401(3) 0.6867(3)
C44_3 C 0.7279(3) 0.9981(3) 0.7078(3)
C46_3 C 0.6557(3) 0.9561(2) 0.8113(3)
C47_3 C 0.6802(3) 0.8976(3) 0.7899(3)
H41_3 H 0.6647 0.8622 0.8183
C48_3 C 0.7275(3) 0.8896(3) 0.7272(3)
H42_3 H 0.7427 0.8492 0.7131
C51_3 C 0.5578(3) 0.8927(3) 0.9269(3)
C52_3 C 0.4899(3) 0.8714(3) 0.8998(4)
H49_3 H 0.4572 0.8973 0.8667
C53_3 C 0.4671(3) 0.8106(3) 0.9207(4)
H50_3 H 0.4195 0.7960 0.9022
C54_3 C 0.5154(3) 0.7736(3) 0.9682(3)
C55_3 C 0.5834(4) 0.7942(3) 0.9948(4)
C56_3 C 0.6020(4) 0.8535(3) 0.9752(4)
H52_3 H 0.6487 0.8684 0.9966
C57_3 C 0.4908(4) 0.7074(3) 0.9857(4)
N5_2 N 0.72838(18) 0.64881(15) 0.5834(2)
N6_2 N 0.27162(18) 0.64881(15) 0.9166(2)
O3_4 O 0.07685(17) 0.19490(15) 0.5204(2)
N1_4 N 0.09718(19) 0.04950(16) 0.5698(2)
H8_2 H 0.0135 0.5055 0.6781
H9_2 H 0.0074 0.5345 0.5873
C11_4 C 0.0101(3) 0.3714(3) 0.6002(4)
H11_4 H 0.0428 0.3973 0.6333
C12_4 C 0.0329(3) 0.3106(3) 0.5793(4)
H12_4 H 0.0805 0.2960 0.5978
C16_4 C 0.0092(4) 0.2074(3) 0.5143(4)
C17_4 C 0.1396(2) 0.0006(2) 0.5908(3)
H15_4 H 0.1900 0.0029 0.5820
C21_4 C 0.0252(2) 0.04649(19) 0.5838(3)
H30_4 H 0.0055 0.0811 0.9299
Si2_4 Si 0.09463(8) 0.46962(7) 0.89778(9)
O10_4 O 0.31897(18) 0.48171(18) 0.5815(2)
C42_4 C 0.3010(2) 0.4343(3) 0.6165(3)
C43_4 C 0.2513(2) 0.4401(3) 0.6867(3)
C44_4 C 0.2279(3) 0.4981(3) 0.7078(3)
H39_2 H 0.2446 0.5332 0.6799
C45_2 C 0.1806(3) 0.5066(3) 0.7688(3)
H40_2 H 0.1652 0.5472 0.7815
C46_4 C 0.1557(3) 0.4561(2) 0.8113(3)
C47_4 C 0.1802(3) 0.3976(3) 0.7899(3)
H41_4 H 0.1647 0.3622 0.8183
C48_4 C 0.2275(3) 0.3896(3) 0.7272(3)
H42_4 H 0.2427 0.3492 0.7131
C49_2 C 0.1506(3) 0.5041(3) 0.9861(4)
H43_2 H 0.1737 0.5421 0.9684
C50_2 C 0.0198(3) 0.5245(3) 0.8653(4)
H48_2 H 0.0405 0.5625 0.8443
C51_4 C 0.0578(3) 0.3927(3) 0.9269(3)
C54_4 C 0.0154(3) 0.2736(3) 0.9682(3)
C55_4 C 0.0834(4) 0.2942(3) 0.9948(4)
C56_4 C 0.1020(4) 0.3535(3) 0.9752(4)
H52_4 H 0.1487 0.3684 0.9966
O5_4 O 0.00636(16) 0.89409(14) 0.6661(2)
C18_4 C 0.1143(2) 0.9469(2) 0.6246(3)
H16_4 H 0.1463 0.9133 0.6391
C19_4 C 0.0398(2) 0.94387(19) 0.6367(3)
C22_4 C 0.0515(2) 0.84492(19) 0.7049(3)
H19_4 H 0.0745 0.8204 0.6629
H20_4 H 0.0906 0.8624 0.7442
C23_5 C 0.0000 0.8047(3) 0.7500
O8_4 O 0.10084(17) 0.73327(13) 0.77264(17)
C33_4 C 0.0046(2) 0.9947(2) 0.8828(3)
H29_4 H 0.0548 0.9939 0.8732
C36_4 C 0.0452(2) 0.76508(19) 0.8136(3)
H33_4 H 0.0133 0.7347 0.8383
H34_4 H 0.0683 0.7916 0.8582
C37_4 C 0.1555(2) 0.70080(19) 0.9080(3)
H35_4 H 0.1162 0.7167 0.9357
C38_4 C 0.2144(2) 0.67266(19) 0.9510(3)
C39_4 C 0.2699(3) 0.6526(2) 0.8331(3)
H37_4 H 0.3095 0.6356 0.8069
C40_4 C 0.2129(3) 0.6803(2) 0.7847(3)
H38_4 H 0.2136 0.6820 0.7265
C41_4 C 0.1549(2) 0.70540(18) 0.8222(3)
Si1_4 Si 0.90537(8) 0.46962(7) 0.60222(9)
O2_4 O 0.68103(18) 0.48171(18) 0.9185(2)
O4_4 O 0.9608(3) 0.1679(2) 0.4911(3)
C1_4 C 0.6990(2) 0.4343(3) 0.8835(3)
C2_4 C 0.7487(2) 0.4401(3) 0.8133(3)
C3_4 C 0.7721(3) 0.4981(3) 0.7922(3)
H1_2 H 0.7554 0.5332 0.8201
C4_2 C 0.8194(3) 0.5066(3) 0.7312(3)
H2_2 H 0.8348 0.5472 0.7185
C5_4 C 0.8443(3) 0.4561(2) 0.6887(3)
C6_4 C 0.8198(3) 0.3976(3) 0.7101(3)
H3_4 H 0.8353 0.3622 0.6817
C7_4 C 0.7725(3) 0.3896(3) 0.7728(3)
H4_4 H 0.7573 0.3492 0.7869
C8_2 C 0.8494(3) 0.5041(3) 0.5139(4)
H5_2 H 0.8263 0.5421 0.5316
H6_2 H 0.8808 0.5139 0.4701
H7_4 H 0.8116 0.4746 0.4930
C9_2 C 0.9802(3) 0.5245(3) 0.6347(4)
H10_2 H 0.9595 0.5625 0.6557
C10_4 C 0.9422(3) 0.3927(3) 0.5731(3)
C13_4 C 0.9846(3) 0.2736(3) 0.5318(3)
C14_4 C 0.9166(4) 0.2942(3) 0.5052(4)
H13_4 H 0.8828 0.2682 0.4738
C15_4 C 0.8980(4) 0.3535(3) 0.5248(4)
H14_4 H 0.8513 0.3684 0.5034
H18_4 H 0.9945 0.0811 0.5701
N3_4 N 0.90282(19) 0.04950(16) 0.9302(2)
C30_4 C 0.8604(2) 0.0006(2) 0.9092(3)
H27_4 H 0.8100 0.0029 0.9180
C34_4 C 0.9748(2) 0.04649(19) 0.9162(3)
O11_4 O 0.92315(17) 0.19490(15) 0.9796(2)
H46_2 H 0.9865 0.5055 0.8219
H47_2 H 0.9926 0.5345 0.9127
C52_4 C 0.9899(3) 0.3714(3) 0.8998(4)
H49_4 H 0.9572 0.3973 0.8667
C53_4 C 0.9671(3) 0.3106(3) 0.9207(4)
H50_4 H 0.9195 0.2960 0.9022
C57_4 C 0.9908(4) 0.2074(3) 0.9857(4)
O6_4 O 0.89916(17) 0.73327(13) 0.72736(17)
C20_4 C 0.9954(2) 0.9947(2) 0.6172(3)
H17_4 H 0.9452 0.9939 0.6268
C23_6 C 1.0000 0.8047(3) 0.7500
C24_4 C 0.9548(2) 0.76508(19) 0.6864(3)
H21_4 H 0.9867 0.7347 0.6617
H22_4 H 0.9317 0.7916 0.6418
C25_4 C 0.8445(2) 0.70080(19) 0.5920(3)
H23_4 H 0.8838 0.7167 0.5643
C26_4 C 0.7856(2) 0.67266(19) 0.5490(3)
H24_4 H 0.7855 0.6699 0.4908
C27_4 C 0.7301(3) 0.6526(2) 0.6669(3)
H25_4 H 0.6905 0.6356 0.6931
C28_4 C 0.7871(3) 0.6803(2) 0.7153(3)
H26_4 H 0.7864 0.6820 0.7735
C29_4 C 0.8451(2) 0.70540(18) 0.6778(3)
O7_4 O 0.99364(16) 0.89409(14) 0.8339(2)
C31_4 C 0.8857(2) 0.9469(2) 0.8754(3)
H28_4 H 0.8537 0.9133 0.8609
C32_4 C 0.9602(2) 0.94387(19) 0.8633(3)
C35_4 C 0.9485(2) 0.84492(19) 0.7951(3)
H31_4 H 0.9255 0.8204 0.8371
H32_4 H 0.9094 0.8624 0.7558
H1_3 H 0.7446 0.9668 0.1799
C4_3 C 0.6806(3) 0.9934(3) 0.2688(3)
H2_3 H 0.6652 0.9528 0.2815
C8_3 C 0.6506(3) 0.9959(3) 0.4861(4)
H5_3 H 0.6737 0.9579 0.4684
H6_3 H 0.6192 0.9861 0.5299
C9_3 C 0.5198(3) 0.9755(3) 0.3653(4)
H8_3 H 0.4865 0.9945 0.3219
H9_3 H 0.4926 0.9655 0.4127
H10_3 H 0.5405 0.9375 0.3443
H39_3 H 0.2554 0.9668 0.3201
C45_3 C 0.3194(3) 0.9934(3) 0.2312(3)
H40_3 H 0.3348 0.9528 0.2185
C49_3 C 0.3494(3) 0.9959(3) 0.0139(4)
H43_3 H 0.3263 0.9579 0.0316
C50_3 C 0.4802(3) 0.9755(3) 0.1347(4)
H46_3 H 0.5135 0.9945 0.1781
H47_3 H 0.5074 0.9655 0.0873
H48_3 H 0.4595 0.9375 0.1557
H44 H 0.3808 0.9861 0.9701
H36_3 H 0.7855 0.3301 0.9908
O12_3 O 0.9608(3) 0.8321(2) 0.9911(3)
H44_2 H 0.8808 0.4861 0.9701
H45_3 H 0.8116 0.5254 0.9930
H51_3 H 0.8828 0.7318 0.9738
H44_3 H 0.6192 0.0139 0.0299
H1_4 H 0.2554 0.0332 0.8201
C4_4 C 0.3194(3) 0.0066(3) 0.7312(3)
H2_4 H 0.3348 0.0472 0.7185
C8_4 C 0.3494(3) 0.0041(3) 0.5139(4)
H5_4 H 0.3263 0.0421 0.5316
H6_4 H 0.3808 0.0139 0.4701
C9_4 C 0.4802(3) 0.0245(3) 0.6347(4)
H8_4 H 0.5135 0.0055 0.6781
H9_4 H 0.5074 0.0345 0.5873
H10_4 H 0.4595 0.0625 0.6557
H39_4 H 0.7446 0.0332 0.6799
C45_4 C 0.6806(3) 0.0066(3) 0.7688(3)
H40_4 H 0.6652 0.0472 0.7815
C49_4 C 0.6506(3) 0.0041(3) 0.9861(4)
H43_4 H 0.6737 0.0421 0.9684
C50_4 C 0.5198(3) 0.0245(3) 0.8653(4)
H46_4 H 0.4865 0.0055 0.8219
H47_4 H 0.4926 0.0345 0.9127
H48_4 H 0.5405 0.0625 0.8443
O12_4 O 0.0392(3) 0.1679(2) 0.0089(3)
H44_4 H 0.1192 0.5139 0.0299
H45_4 H 0.1884 0.4746 0.0070
H51_4 H 0.1172 0.2682 0.0262
H36_4 H 0.2145 0.6699 0.0092
loop_
_geom_bond_atom_site_label_1
_geom_bond_atom_site_label_2
_geom_bond_site_symmetry_1
_geom_bond_site_symmetry_2
Zn1 O3 1_555 1_555
Si1 C5 1_555 1_555
O1 C1 1_555 1_555
O2 C1 1_555 1_555
O3 C16 1_555 1_555
O4 C16 1_555 1_555
O5 C19 1_555 1_555
O6 C24 1_555 1_555
N1 Zn1 1_555 1_555
N2 C26 1_555 1_555
C1 C2 1_555 1_555
C2 C3 1_555 1_555
C6 C5 1_555 1_555
H3 C6 1_555 1_555
C7 C2 1_555 1_555
H4 C7 1_555 1_555
C10 Si1 1_555 1_555
C11 C10 1_555 1_555
H11 C11 1_555 1_555
C12 C11 1_555 1_555
H12 C12 1_555 1_555
C13 C12 1_555 1_555
C14 C13 1_555 1_555
H13 C14 1_555 1_555
C15 C10 1_555 1_555
H14 C15 1_555 1_555
C16 C13 1_555 1_555
C17 N1 1_555 1_555
H15 C17 1_555 1_555
C18 C17 1_555 1_555
H16 C18 1_555 1_555
C19 C18 1_555 1_555
C20 C19 1_555 1_555
H17 C20 1_555 1_555
C21 N1 1_555 1_555
H18 C21 1_555 1_555
C22 O5 1_555 1_555
H19 C22 1_555 1_555
H20 C22 1_555 1_555
C23 C22 1_555 1_555
C24 C23 1_555 1_555
H21 C24 1_555 1_555
H22 C24 1_555 1_555
C25 H23 1_555 1_555
C26 C25 1_555 1_555
H24 C26 1_555 1_555
C27 N2 1_555 1_555
H25 C27 1_555 1_555
C28 C27 1_555 1_555
H26 C28 1_555 1_555
C29 O6 1_555 1_555
O7 C32 1_555 1_555
O8 C36 1_555 1_555
N3 C30 1_555 1_555
N4 C38 1_555 1_555
C30 H27 1_555 1_555
C31 C30 1_555 1_555
H28 C31 1_555 1_555
C32 C31 1_555 1_555
C33 C32 1_555 1_555
H29 C33 1_555 1_555
C34 N3 1_555 1_555
H30 C34 1_555 1_555
C35 C23 1_555 1_555
H31 C35 1_555 1_555
H32 C35 1_555 1_555
C36 C23 1_555 1_555
H33 C36 1_555 1_555
H34 C36 1_555 1_555
C37 H35 1_555 1_555
C38 C37 1_555 1_555
C39 N4 1_555 1_555
H37 C39 1_555 1_555
C40 C39 1_555 1_555
H38 C40 1_555 1_555
C41 O8 1_555 1_555
Zn2 N3 1_555 1_555
Si2 C46 1_555 1_555
O9 C42 1_555 1_555
O10 C42 1_555 1_555
O11 Zn2 1_555 1_555
C42 C43 1_555 1_555
C43 C44 1_555 1_555
C47 C46 1_555 1_555
H41 C47 1_555 1_555
C48 C43 1_555 1_555
H42 C48 1_555 1_555
C51 Si2 1_555 1_555
C52 C51 1_555 1_555
H49 C52 1_555 1_555
C53 C52 1_555 1_555
H50 C53 1_555 1_555
C54 C53 1_555 1_555
C55 C54 1_555 1_555
C56 C51 1_555 1_555
H52 C56 1_555 1_555
C57 O11 1_555 1_555
Zn3 N2 1_555 1_555
Zn4 N4 1_555 1_555
Zn5 O9 1_555 1_555
O14 Zn1 1_555 1_555
N5 Zn1 1_555 1_555
N6 Zn2 1_555 1_555
C6 C7 1_555 1_555
C14 C15 1_555 1_555
C20 C21 1_555 1_555
C25 C29 1_555 1_555
C28 C29 1_555 1_555
O7 C35 1_555 1_555
C33 C34 1_555 1_555
C37 C41 1_555 1_555
C40 C41 1_555 1_555
C47 C48 1_555 1_555
C54 C57 1_555 1_555
C55 C56 1_555 1_555
O6_2 C24_2 1_555 1_555
N5 C26_2 1_555 1_555
H17_2 C20_2 1_555 1_555
C24_2 C23_2 1_555 1_555
H21_2 C24_2 1_555 1_555
H22_2 C24_2 1_555 1_555
C25_2 H23_2 1_555 1_555
C26_2 C25_2 1_555 1_555
H24_2 C26_2 1_555 1_555
C27_2 N5 1_555 1_555
H25_2 C27_2 1_555 1_555
C28_2 C27_2 1_555 1_555
H26_2 C28_2 1_555 1_555
C29_2 O6_2 1_555 1_555
O7_2 C32_2 1_555 1_555
H28_2 C31_2 1_555 1_555
C32_2 C31_2 1_555 1_555
C35_2 C23_2 1_555 1_555
H31_2 C35_2 1_555 1_555
H32_2 C35_2 1_555 1_555
C25_2 C29_2 1_555 1_555
C28_2 C29_2 1_555 1_555
O7_2 C35_2 1_555 1_555
Si1_2 C5_2 1_555 1_555
O1_2 C1_2 1_555 1_555
O2_2 C1_2 1_555 1_555
C1_2 C2_2 1_555 1_555
C2_2 C3_2 1_555 1_555
C3_2 H1 1_555 1_555
C4 C3_2 1_555 1_555
H2 C4 1_555 1_555
C5_2 C4 1_555 1_555
C6_2 C5_2 1_555 1_555
H3_2 C6_2 1_555 1_555
C7_2 C2_2 1_555 1_555
H4_2 C7_2 1_555 1_555
C8 Si1_2 1_555 1_555
H5 C8 1_555 1_555
H6 C8 1_555 1_555
H7_2 C8 1_555 1_555
C9 Si1_2 1_555 1_555
H10 C9 1_555 1_555
C10_2 Si1_2 1_555 1_555
C14_2 C13_2 1_555 1_555
H13_2 C14_2 1_555 1_555
C15_2 C10_2 1_555 1_555
H14_2 C15_2 1_555 1_555
N3_2 C30_2 1_555 1_555
C30_2 H27_2 1_555 1_555
C34_2 N3_2 1_555 1_555
Zn4 N3_2 1_555 1_555
O11_2 Zn4 1_555 1_555
H49_2 C52_2 1_555 1_555
C53_2 C52_2 1_555 1_555
H50_2 C53_2 1_555 1_555
C57_2 O11_2 1_555 1_555
C6_2 C7_2 1_555 1_555
C14_2 C15_2 1_555 1_555
O5_2 C19_2 1_555 1_555
H16_2 C18_2 1_555 1_555
C19_2 C18_2 1_555 1_555
C22_2 O5_2 1_555 1_555
H19_2 C22_2 1_555 1_555
H20_2 C22_2 1_555 1_555
C23_3 C22_2 1_555 1_555
O8_2 C36_2 1_555 1_555
N6 C38_2 1_555 1_555
H29_2 C33_2 1_555 1_555
C36_2 C23_3 1_555 1_555
H33_2 C36_2 1_555 1_555
H34_2 C36_2 1_555 1_555
C37_2 H35_2 1_555 1_555
C38_2 C37_2 1_555 1_555
C39_2 N6 1_555 1_555
H37_2 C39_2 1_555 1_555
C40_2 C39_2 1_555 1_555
H38_2 C40_2 1_555 1_555
C41_2 O8_2 1_555 1_555
C37_2 C41_2 1_555 1_555
C40_2 C41_2 1_555 1_555
Zn3 O3_2 1_555 1_555
O3_2 C16_2 1_555 1_555
N1_2 Zn3 1_555 1_555
H11_2 C11_2 1_555 1_555
C12_2 C11_2 1_555 1_555
H12_2 C12_2 1_555 1_555
C17_2 N1_2 1_555 1_555
H15_2 C17_2 1_555 1_555
C21_2 N1_2 1_555 1_555
Si2_2 C46_2 1_555 1_555
O9_2 C42_2 1_555 1_555
O10_2 C42_2 1_555 1_555
C42_2 C43_2 1_555 1_555
C43_2 C44_2 1_555 1_555
C44_2 H39 1_555 1_555
C45 C44_2 1_555 1_555
H40 C45 1_555 1_555
C46_2 C45 1_555 1_555
C47_2 C46_2 1_555 1_555
H41_2 C47_2 1_555 1_555
C48_2 C43_2 1_555 1_555
H42_2 C48_2 1_555 1_555
C49 Si2_2 1_555 1_555
H43 C49 1_555 1_555
C50 Si2_2 1_555 1_555
H48 C50 1_555 1_555
C51_2 Si2_2 1_555 1_555
C55_2 C54_2 1_555 1_555
C56_2 C51_2 1_555 1_555
H52_2 C56_2 1_555 1_555
Zn5_2 O9_2 1_555 1_555
O14_2 Zn3 1_555 1_555
C47_2 C48_2 1_555 1_555
C55_2 C56_2 1_555 1_555
Zn5_2 O3_3 1_555 1_555
Si1_3 C5_3 1_555 1_555
O13_2 C1_3 1_555 1_555
O2_3 C1_3 1_555 1_555
O3_3 C16_3 1_555 1_555
O4_3 C16_3 1_555 1_555
O5_3 C19_3 1_555 1_555
O6_3 C24_3 1_555 1_555
N1_3 Zn5_2 1_555 1_555
N2_2 C26_3 1_555 1_555
C1_3 C2_3 1_555 1_555
C2_3 C3_3 1_555 1_555
C6_3 C5_3 1_555 1_555
H3_3 C6_3 1_555 1_555
C7_3 C2_3 1_555 1_555
H4_3 C7_3 1_555 1_555
C10_3 Si1_3 1_555 1_555
C11_3 C10_3 1_555 1_555
H11_3 C11_3 1_555 1_555
C12_3 C11_3 1_555 1_555
H12_3 C12_3 1_555 1_555
C13_3 C12_3 1_555 1_555
C14_3 C13_3 1_555 1_555
H13_3 C14_3 1_555 1_555
C15_3 C10_3 1_555 1_555
H14_3 C15_3 1_555 1_555
C16_3 C13_3 1_555 1_555
C17_3 N1_3 1_555 1_555
H15_3 C17_3 1_555 1_555
C18_3 C17_3 1_555 1_555
H16_3 C18_3 1_555 1_555
C19_3 C18_3 1_555 1_555
C20_3 C19_3 1_555 1_555
H17_3 C20_3 1_555 1_555
C21_3 N1_3 1_555 1_555
H18_3 C21_3 1_555 1_555
C22_3 O5_3 1_555 1_555
H19_3 C22_3 1_555 1_555
H20_3 C22_3 1_555 1_555
C23_4 C22_3 1_555 1_555
C24_3 C23_4 1_555 1_555
H21_3 C24_3 1_555 1_555
H22_3 C24_3 1_555 1_555
C25_3 H23_3 1_555 1_555
C26_3 C25_3 1_555 1_555
H24_3 C26_3 1_555 1_555
C27_3 N2_2 1_555 1_555
H25_3 C27_3 1_555 1_555
C28_3 C27_3 1_555 1_555
H26_3 C28_3 1_555 1_555
C29_3 O6_3 1_555 1_555
O7_3 C32_3 1_555 1_555
O8_3 C36_3 1_555 1_555
N3_3 C30_3 1_555 1_555
N4_2 C38_3 1_555 1_555
C30_3 H27_3 1_555 1_555
C31_3 C30_3 1_555 1_555
H28_3 C31_3 1_555 1_555
C32_3 C31_3 1_555 1_555
C33_3 C32_3 1_555 1_555
H29_3 C33_3 1_555 1_555
C34_3 N3_3 1_555 1_555
H30_3 C34_3 1_555 1_555
C35_3 C23_4 1_555 1_555
H31_3 C35_3 1_555 1_555
H32_3 C35_3 1_555 1_555
C36_3 C23_4 1_555 1_555
H33_3 C36_3 1_555 1_555
H34_3 C36_3 1_555 1_555
C37_3 H35_3 1_555 1_555
C38_3 C37_3 1_555 1_555
C39_3 N4_2 1_555 1_555
H37_3 C39_3 1_555 1_555
C40_3 C39_3 1_555 1_555
H38_3 C40_3 1_555 1_555
C41_3 O8_3 1_555 1_555
Zn6_2 N3_3 1_555 1_555
Si2_3 C46_3 1_555 1_555
O14_2 C42_3 1_555 1_555
O10_3 C42_3 1_555 1_555
O11_3 Zn6_2 1_555 1_555
C42_3 C43_3 1_555 1_555
C43_3 C44_3 1_555 1_555
C47_3 C46_3 1_555 1_555
H41_3 C47_3 1_555 1_555
C48_3 C43_3 1_555 1_555
H42_3 C48_3 1_555 1_555
C51_3 Si2_3 1_555 1_555
C52_3 C51_3 1_555 1_555
H49_3 C52_3 1_555 1_555
C53_3 C52_3 1_555 1_555
H50_3 C53_3 1_555 1_555
C54_3 C53_3 1_555 1_555
C55_3 C54_3 1_555 1_555
C56_3 C51_3 1_555 1_555
H52_3 C56_3 1_555 1_555
C57_3 O11_3 1_555 1_555
Zn5 N2_2 1_555 1_555
Zn6 N4_2 1_555 1_555
N5_2 Zn5_2 1_555 1_555
N6_2 Zn6_2 1_555 1_555
C6_3 C7_3 1_555 1_555
C14_3 C15_3 1_555 1_555
C20_3 C21_3 1_555 1_555
C25_3 C29_3 1_555 1_555
C28_3 C29_3 1_555 1_555
O7_3 C35_3 1_555 1_555
C33_3 C34_3 1_555 1_555
C37_3 C41_3 1_555 1_555
C40_3 C41_3 1_555 1_555
C47_3 C48_3 1_555 1_555
C54_3 C57_3 1_555 1_555
C55_3 C56_3 1_555 1_555
Zn5 O3_4 1_555 1_555
O3_4 C16_4 1_555 1_555
N1_4 Zn5 1_555 1_555
H11_4 C11_4 1_555 1_555
C12_4 C11_4 1_555 1_555
H12_4 C12_4 1_555 1_555
C17_4 N1_4 1_555 1_555
H15_4 C17_4 1_555 1_555
C21_4 N1_4 1_555 1_555
Si2_4 C46_4 1_555 1_555
O14 C42_4 1_555 1_555
O10_4 C42_4 1_555 1_555
C42_4 C43_4 1_555 1_555
C43_4 C44_4 1_555 1_555
C44_4 H39_2 1_555 1_555
C45_2 C44_4 1_555 1_555
H40_2 C45_2 1_555 1_555
C46_4 C45_2 1_555 1_555
C47_4 C46_4 1_555 1_555
H41_4 C47_4 1_555 1_555
C48_4 C43_4 1_555 1_555
H42_4 C48_4 1_555 1_555
C49_2 Si2_4 1_555 1_555
H43_2 C49_2 1_555 1_555
C50_2 Si2_4 1_555 1_555
H48_2 C50_2 1_555 1_555
C51_4 Si2_4 1_555 1_555
C55_4 C54_4 1_555 1_555
C56_4 C51_4 1_555 1_555
H52_4 C56_4 1_555 1_555
C47_4 C48_4 1_555 1_555
C55_4 C56_4 1_555 1_555
O5_4 C19_4 1_555 1_555
H16_4 C18_4 1_555 1_555
C19_4 C18_4 1_555 1_555
C22_4 O5_4 1_555 1_555
H19_4 C22_4 1_555 1_555
H20_4 C22_4 1_555 1_555
C23_5 C22_4 1_555 1_555
O8_4 C36_4 1_555 1_555
N6_2 C38_4 1_555 1_555
H29_4 C33_4 1_555 1_555
C36_4 C23_5 1_555 1_555
H33_4 C36_4 1_555 1_555
H34_4 C36_4 1_555 1_555
C37_4 H35_4 1_555 1_555
C38_4 C37_4 1_555 1_555
C39_4 N6_2 1_555 1_555
H37_4 C39_4 1_555 1_555
C40_4 C39_4 1_555 1_555
H38_4 C40_4 1_555 1_555
C41_4 O8_4 1_555 1_555
C37_4 C41_4 1_555 1_555
C40_4 C41_4 1_555 1_555
Si1_4 C5_4 1_555 1_555
O13 C1_4 1_555 1_555
O2_4 C1_4 1_555 1_555
C1_4 C2_4 1_555 1_555
C2_4 C3_4 1_555 1_555
C3_4 H1_2 1_555 1_555
C4_2 C3_4 1_555 1_555
H2_2 C4_2 1_555 1_555
C5_4 C4_2 1_555 1_555
C6_4 C5_4 1_555 1_555
H3_4 C6_4 1_555 1_555
C7_4 C2_4 1_555 1_555
H4_4 C7_4 1_555 1_555
C8_2 Si1_4 1_555 1_555
H5_2 C8_2 1_555 1_555
H6_2 C8_2 1_555 1_555
H7_4 C8_2 1_555 1_555
C9_2 Si1_4 1_555 1_555
H10_2 C9_2 1_555 1_555
C10_4 Si1_4 1_555 1_555
C14_4 C13_4 1_555 1_555
H13_4 C14_4 1_555 1_555
C15_4 C10_4 1_555 1_555
H14_4 C15_4 1_555 1_555
N3_4 C30_4 1_555 1_555
C30_4 H27_4 1_555 1_555
C34_4 N3_4 1_555 1_555
Zn6 N3_4 1_555 1_555
O11_4 Zn6 1_555 1_555
H49_4 C52_4 1_555 1_555
C53_4 C52_4 1_555 1_555
H50_4 C53_4 1_555 1_555
C57_4 O11_4 1_555 1_555
C6_4 C7_4 1_555 1_555
C14_4 C15_4 1_555 1_555
O6_4 C24_4 1_555 1_555
N5_2 C26_4 1_555 1_555
H17_4 C20_4 1_555 1_555
C24_4 C23_6 1_555 1_555
H21_4 C24_4 1_555 1_555
H22_4 C24_4 1_555 1_555
C25_4 H23_4 1_555 1_555
C26_4 C25_4 1_555 1_555
H24_4 C26_4 1_555 1_555
C27_4 N5_2 1_555 1_555
H25_4 C27_4 1_555 1_555
C28_4 C27_4 1_555 1_555
H26_4 C28_4 1_555 1_555
C29_4 O6_4 1_555 1_555
O7_4 C32_4 1_555 1_555
H28_4 C31_4 1_555 1_555
C32_4 C31_4 1_555 1_555
C35_4 C23_6 1_555 1_555
H31_4 C35_4 1_555 1_555
H32_4 C35_4 1_555 1_555
C25_4 C29_4 1_555 1_555
C28_4 C29_4 1_555 1_555
O7_4 C35_4 1_555 1_555
H2_3 C4_3 1_555 1_555
H5_3 C8_3 1_555 1_555
H6_3 C8_3 1_555 1_555
H8_3 C9_3 1_555 1_555
H9_3 C9_3 1_555 1_555
H10_3 C9_3 1_555 1_555
H40_3 C45_3 1_555 1_555
H43_3 C49_3 1_555 1_555
H46_3 C50_3 1_555 1_555
H47_3 C50_3 1_555 1_555
H48_3 C50_3 1_555 1_555
H2_4 C4_4 1_555 1_555
H5_4 C8_4 1_555 1_555
H6_4 C8_4 1_555 1_555
H8_4 C9_4 1_555 1_555
H9_4 C9_4 1_555 1_555
H10_4 C9_4 1_555 1_555
H40_4 C45_4 1_555 1_555
H43_4 C49_4 1_555 1_555
H46_4 C50_4 1_555 1_555
H47_4 C50_4 1_555 1_555
H48_4 C50_4 1_555 1_555

#END
