
###############################################################################
#
# This file contains modified crystal structure data generated from the
# MOF subset of the Cambridge Structural Database (CSD) v543 
# hosted by the Cambridge Crystallographic Data Centre (CCDC).
#
# This work is licensed under the Creative Commons
# Attribution-NonCommercial-ShareAlike 4.0 International License.
# To view a copy of this license, visit
# http://creativecommons.org/licenses/by-nc-sa/4.0/
# or send a letter to
# Creative Commons, PO Box 1866, Mountain View, CA 94042, USA.
#
# CIF created using the CSD Python API on 29 September 2022
# The structure has been converted into the P1 space group
# The structure has a 3D framework
# The original CSD entry HAYTEI is in the monoclinic crystal system
# The framework has been calculated to contain at least 10.0% void space
# The void calculation uses a probe of radius 1.32A, grid spacing 0.4
#
###############################################################################

data_HAYTEI
_chemical_formula_moiety         '(C84 H84 Ca19 Eu4 N12 O72)n'
_symmetry_cell_setting           triclinic
_symmetry_space_group_name_H-M   'P 1'
_symmetry_Int_Tables_number      1
_space_group_name_Hall           'P 1'
loop_
_symmetry_equiv_pos_site_id
_symmetry_equiv_pos_as_xyz
1 x,y,z
_cell_length_a                   16.070(4)
_cell_length_b                   9.471(2)
_cell_length_c                   23.540(6)
_cell_angle_alpha                90
_cell_angle_beta                 107.685(4)
_cell_angle_gamma                90
_cell_volume                     3413.45
loop_
_atom_site_label
_atom_site_type_symbol
_atom_site_fract_x
_atom_site_fract_y
_atom_site_fract_z
Ca6 Ca 0.0000 0.0000 0.0000
Ca2 Ca 0.5000 0.00350(17) 0.2500
O16 O 0.4648(3) 0.0983(4) 0.14661(18)
H7 H 0.504(4) 0.121(7) 0.135(3)
H8 H 0.437(4) 0.172(7) 0.148(3)
Eu3 Eu 0.296251(16) 0.50554(3) 0.097315(11)
O19 O 0.3736(2) 0.3233(4) 0.16621(16)
O21 O 0.4013(3) 0.2000(4) 0.25127(16)
O22 O 0.5987(3) 0.2000(4) 0.24873(16)
O23 O 0.1929(2) 0.6789(4) 0.11297(16)
O25 O 0.1130(3) 0.7722(5) 0.16683(18)
O39 O 0.5352(3) 0.0983(4) 0.35339(18)
H28 H 0.496(4) 0.121(7) 0.365(3)
H29 H 0.563(4) 0.172(7) 0.352(3)
N4 N 0.2624(3) 0.4885(5) 0.19488(18)
C22 C 0.3627(4) 0.2941(6) 0.2164(2)
C23 C 0.2960(4) 0.3823(6) 0.2330(2)
C24 C 0.2680(4) 0.3533(7) 0.2820(2)
H34 H 0.2916 0.2765 0.3078
C25 C 0.2045(4) 0.4396(8) 0.2922(3)
H35 H 0.1838 0.4223 0.3253
C26 C 0.1711(4) 0.5518(7) 0.2539(3)
H36 H 0.1283 0.6128 0.2608
C27 C 0.2015(4) 0.5727(6) 0.2057(2)
C28 C 0.1659(4) 0.6849(6) 0.1585(2)
Ca1 Ca 0.5000 0.0000 0.0000
O5 O 0.3886(2) 0.6872(4) 0.15705(16)
O6 O 0.5155(2) 0.8058(4) 0.18919(16)
O7 O 0.3344(2) 0.3313(4) 0.03339(16)
O8 O 0.4335(2) 0.2095(4) 0.00428(16)
O9 O 0.2999(2) 0.6871(4) 0.02212(16)
O11 O 0.1823(2) 0.3273(4) 0.08688(16)
O12 O 0.0604(3) 0.2142(4) 0.03527(18)
O13 O 0.6116(2) 0.0662(4) 0.08852(17)
H1 H 0.647(2) 0.113(5) 0.075(2)
H2 H 0.639(3) 0.012(5) 0.1167(18)
O15 O 0.3478(3) 0.9194(4) 0.21233(17)
H5 H 0.306(3) 0.974(5) 0.194(2)
H6 H 0.354(4) 0.854(4) 0.1894(18)
N2 N 0.4526(3) 0.5088(4) 0.09633(18)
N3 N 0.1693(3) 0.5085(5) 0.00041(19)
C8 C 0.4686(4) 0.7088(6) 0.1610(2)
C9 C 0.5084(3) 0.6070(5) 0.1267(2)
C10 C 0.5932(4) 0.6158(6) 0.1249(2)
H16 H 0.6311 0.6876 0.1464
C11 C 0.6218(4) 0.5190(6) 0.0915(2)
H17 H 0.6800 0.5233 0.0896
C12 C 0.5646(4) 0.4142(6) 0.0603(2)
H18 H 0.5832 0.3458 0.0372
C13 C 0.4797(3) 0.4130(5) 0.0640(2)
C14 C 0.4114(4) 0.3098(6) 0.0316(2)
C21 C 0.1156(4) 0.3100(6) 0.0415(2)
Ca6_2 Ca 1.0000 0.0000 0.0000
O28 O 0.4845(2) 0.8058(4) 0.31081(16)
O38 O 0.6522(3) 0.9194(4) 0.28767(17)
H26 H 0.694(3) 0.974(5) 0.306(2)
H27 H 0.646(4) 0.854(4) 0.3106(18)
Ca3 Ca 0.0000 0.0000 0.5000
H20 H 0.0243 0.5285 0.6346
H21 H 0.0142 0.3524 0.5622
O40 O 0.1405(3) 0.0914(5) 0.5396(2)
H30 H 0.164(3) 0.161(4) 0.561(3)
H31 H 0.179(3) 0.033(5) 0.536(3)
H33 H 0.011(3) 0.118(6) 0.618(3)
Eu3_2 Eu 0.703749(16) 0.50554(3) 0.402685(11)
O19_2 O 0.6264(2) 0.3233(4) 0.33379(16)
O23_2 O 0.8071(2) 0.6789(4) 0.38703(16)
O25_2 O 0.8870(3) 0.7722(5) 0.33317(18)
N4_2 N 0.7376(3) 0.4885(5) 0.30512(18)
C22_2 C 0.6373(4) 0.2941(6) 0.2836(2)
C23_2 C 0.7040(4) 0.3823(6) 0.2670(2)
C24_2 C 0.7320(4) 0.3533(7) 0.2180(2)
H34_2 H 0.7084 0.2765 0.1922
C25_2 C 0.7955(4) 0.4396(8) 0.2078(3)
H35_2 H 0.8162 0.4223 0.1747
C26_2 C 0.8289(4) 0.5518(7) 0.2461(3)
H36_2 H 0.8717 0.6128 0.2392
C27_2 C 0.7985(4) 0.5727(6) 0.2943(2)
C28_2 C 0.8341(4) 0.6849(6) 0.3415(2)
Ca1_2 Ca 0.5000 0.0000 0.5000
Ca3_2 Ca 1.0000 0.0000 0.5000
O5_2 O 0.6114(2) 0.6872(4) 0.34295(16)
O7_2 O 0.6656(2) 0.3313(4) 0.46661(16)
O8_2 O 0.5665(2) 0.2095(4) 0.49572(16)
O9_2 O 0.7001(2) 0.6871(4) 0.47788(16)
O10 O 0.7505(3) 0.7858(4) 0.56830(18)
O11_2 O 0.8177(2) 0.3273(4) 0.41312(16)
O12_2 O 0.9396(3) 0.2142(4) 0.46473(18)
O13_2 O 0.3884(2) 0.0662(4) 0.41148(17)
H1_2 H 0.353(2) 0.113(5) 0.425(2)
H2_2 H 0.361(3) 0.012(5) 0.3833(18)
N2_2 N 0.5474(3) 0.5088(4) 0.40367(18)
N3_2 N 0.8307(3) 0.5085(5) 0.49959(19)
C8_2 C 0.5314(4) 0.7088(6) 0.3390(2)
C9_2 C 0.4916(3) 0.6070(5) 0.3733(2)
C10_2 C 0.4068(4) 0.6158(6) 0.3751(2)
H16_2 H 0.3689 0.6876 0.3536
C11_2 C 0.3782(4) 0.5190(6) 0.4085(2)
H17_2 H 0.3200 0.5233 0.4104
C12_2 C 0.4354(4) 0.4142(6) 0.4397(2)
H18_2 H 0.4168 0.3458 0.4628
C13_2 C 0.5203(3) 0.4130(5) 0.4360(2)
C14_2 C 0.5886(4) 0.3098(6) 0.4684(2)
C15 C 0.7563(4) 0.7017(6) 0.5285(3)
C16 C 0.8354(4) 0.6081(6) 0.5416(2)
C17 C 0.9073(4) 0.6196(6) 0.5923(2)
H19 H 0.9102 0.6920 0.6207
C18 C 0.9746(4) 0.5236(7) 0.6002(3)
C19 C 0.9688(4) 0.4197(6) 0.5574(3)
C20 C 0.8962(3) 0.4157(6) 0.5079(2)
C21_2 C 0.8844(4) 0.3100(6) 0.4585(2)
O37 O 0.4145(3) 0.0939(4) 0.55348(17)
H24 H 0.419(4) 0.043(5) 0.5840(16)
H25 H 0.380(3) 0.162(4) 0.552(2)
O41 O 0.9860(3) 0.0554(5) 0.5933(2)
H32 H 0.9322(13) 0.048(7) 0.590(3)
Ca6_3 Ca 0.0000 0.0000 1.0000
Ca1_3 Ca 0.5000 0.0000 1.0000
O10_2 O 0.2495(3) 0.7858(4) 0.93170(18)
C15_2 C 0.2437(4) 0.7017(6) 0.9715(3)
C16_2 C 0.1646(4) 0.6081(6) 0.9584(2)
C17_2 C 0.0927(4) 0.6196(6) 0.9077(2)
H19_2 H 0.0898 0.6920 0.8793
C18_2 C 0.0254(4) 0.5236(7) 0.8998(3)
C19_2 C 0.0312(4) 0.4197(6) 0.9426(3)
C20_2 C 0.1038(3) 0.4157(6) 0.9921(2)
Ca6_4 Ca 1.0000 0.0000 1.0000
O37_2 O 0.5855(3) 0.0939(4) 0.94652(17)
H24_2 H 0.581(4) 0.043(5) 0.9160(16)
H25_2 H 0.620(3) 0.162(4) 0.948(2)
O41_2 O 0.0140(3) 0.0554(5) 0.9067(2)
H32_2 H 0.0678(13) 0.048(7) 0.910(3)
H20_2 H 0.9757 0.5285 0.8654
H21_2 H 0.9858 0.3524 0.9378
O40_2 O 0.8595(3) 0.0914(5) 0.9604(2)
H30_2 H 0.836(3) 0.161(4) 0.939(3)
H31_2 H 0.821(3) 0.033(5) 0.964(3)
H33_2 H 0.989(3) 0.118(6) 0.882(3)
Ca6_5 Ca 0.0000 1.0000 0.0000
H41 H 0.0243 0.4715 0.1346
H42 H 0.0142 0.6476 0.0622
Ca1_4 Ca 0.5000 1.0000 0.0000
O14 O 0.4145(3) 0.9061(4) 0.05348(17)
H3 H 0.419(4) 0.957(5) 0.0840(16)
H4 H 0.380(3) 0.838(4) 0.052(2)
O17 O 0.1405(3) 0.9086(5) 0.0396(2)
H9 H 0.164(3) 0.839(4) 0.061(3)
H10 H 0.179(3) 0.967(5) 0.036(3)
H12 H 0.011(3) 0.882(6) 0.118(3)
Ca6_6 Ca 1.0000 1.0000 0.0000
O32 O 0.7505(3) 0.2142(4) 0.06830(18)
C36 C 0.7563(4) 0.2983(6) 0.0285(3)
C37 C 0.8354(4) 0.3919(6) 0.0416(2)
C38 C 0.9073(4) 0.3804(6) 0.0923(2)
H40 H 0.9102 0.3080 0.1207
C39 C 0.9746(4) 0.4764(7) 0.1002(3)
C40 C 0.9688(4) 0.5803(6) 0.0574(3)
C41 C 0.8962(3) 0.5843(6) 0.0079(2)
O18 O 0.9860(3) 0.9446(5) 0.0933(2)
H11 H 0.9322(13) 0.952(7) 0.090(3)
Ca6_7 Ca 0.0000 1.0000 1.0000
Ca1_5 Ca 0.5000 1.0000 1.0000
Eu2 Eu 0.703749(16) 0.49446(3) 0.902685(11)
Ca6_8 Ca 1.0000 1.0000 1.0000
O20 O 0.6264(2) 0.6767(4) 0.83379(16)
O24 O 0.8071(2) 0.3211(4) 0.88703(16)
O26 O 0.6114(2) 0.3128(4) 0.84295(16)
O27 O 0.4845(2) 0.1942(4) 0.81081(16)
O29 O 0.6656(2) 0.6687(4) 0.96661(16)
O30 O 0.5665(2) 0.7905(4) 0.99572(16)
O31 O 0.7001(2) 0.3129(4) 0.97788(16)
O33 O 0.8177(2) 0.6727(4) 0.91312(16)
O34 O 0.9396(3) 0.7858(4) 0.96473(18)
O36 O 0.3884(2) 0.9338(4) 0.91148(17)
H22 H 0.353(2) 0.887(5) 0.925(2)
H23 H 0.361(3) 0.988(5) 0.8833(18)
N5 N 0.7376(3) 0.5115(5) 0.80512(18)
N6 N 0.5474(3) 0.4912(4) 0.90367(18)
N7 N 0.8307(3) 0.4915(5) 0.99959(19)
C29 C 0.5314(4) 0.2912(6) 0.8390(2)
C30 C 0.4916(3) 0.3930(5) 0.8733(2)
C31 C 0.4068(4) 0.3842(6) 0.8751(2)
H37 H 0.3689 0.3124 0.8536
C32 C 0.3782(4) 0.4810(6) 0.9085(2)
H38 H 0.3200 0.4767 0.9104
C33 C 0.4354(4) 0.5858(6) 0.9397(2)
H39 H 0.4168 0.6542 0.9628
C34 C 0.5203(3) 0.5870(5) 0.9360(2)
C35 C 0.5886(4) 0.6902(6) 0.9684(2)
C42 C 0.8844(4) 0.6900(6) 0.9585(2)
Ca5 Ca 0.5000 0.99650(17) 0.7500
Ca3_3 Ca 0.0000 1.0000 0.5000
O18_2 O 0.0140(3) 0.9446(5) 0.4067(2)
H11_2 H 0.0678(13) 0.952(7) 0.410(3)
O35 O 0.0604(3) 0.7858(4) 0.53527(18)
Ca1_6 Ca 0.5000 1.0000 0.5000
Ca3_4 Ca 1.0000 1.0000 0.5000
O14_2 O 0.5855(3) 0.9061(4) 0.44652(17)
H3_2 H 0.581(4) 0.957(5) 0.4160(16)
H4_2 H 0.620(3) 0.838(4) 0.448(2)
O17_2 O 0.8595(3) 0.9086(5) 0.4604(2)
H9_2 H 0.836(3) 0.839(4) 0.439(3)
H10_2 H 0.821(3) 0.967(5) 0.464(3)
H12_2 H 0.989(3) 0.882(6) 0.382(3)
Eu2_2 Eu 0.296251(16) 0.49446(3) 0.597315(11)
O20_2 O 0.3736(2) 0.6767(4) 0.66621(16)
O24_2 O 0.1929(2) 0.3211(4) 0.61297(16)
O26_2 O 0.3886(2) 0.3128(4) 0.65705(16)
O27_2 O 0.5155(2) 0.1942(4) 0.68919(16)
O29_2 O 0.3344(2) 0.6687(4) 0.53339(16)
O30_2 O 0.4335(2) 0.7905(4) 0.50428(16)
O31_2 O 0.2999(2) 0.3129(4) 0.52212(16)
O32_2 O 0.2495(3) 0.2142(4) 0.43170(18)
O33_2 O 0.1823(2) 0.6727(4) 0.58688(16)
O36_2 O 0.6116(2) 0.9338(4) 0.58852(17)
H22_2 H 0.647(2) 0.887(5) 0.575(2)
H23_2 H 0.639(3) 0.988(5) 0.6167(18)
N5_2 N 0.2624(3) 0.5115(5) 0.69488(18)
N6_2 N 0.4526(3) 0.4912(4) 0.59633(18)
N7_2 N 0.1693(3) 0.4915(5) 0.50041(19)
C29_2 C 0.4686(4) 0.2912(6) 0.6610(2)
C30_2 C 0.5084(3) 0.3930(5) 0.6267(2)
C31_2 C 0.5932(4) 0.3842(6) 0.6249(2)
H37_2 H 0.6311 0.3124 0.6464
C32_2 C 0.6218(4) 0.4810(6) 0.5915(2)
H38_2 H 0.6800 0.4767 0.5896
C33_2 C 0.5646(4) 0.5858(6) 0.5603(2)
H39_2 H 0.5832 0.6542 0.5372
C34_2 C 0.4797(3) 0.5870(5) 0.5640(2)
C35_2 C 0.4114(4) 0.6902(6) 0.5316(2)
C36_2 C 0.2437(4) 0.2983(6) 0.4715(3)
C37_2 C 0.1646(4) 0.3919(6) 0.4584(2)
C38_2 C 0.0927(4) 0.3804(6) 0.4077(2)
H40_2 H 0.0898 0.3080 0.3793
C39_2 C 0.0254(4) 0.4764(7) 0.3998(3)
C40_2 C 0.0312(4) 0.5803(6) 0.4426(3)
C41_2 C 0.1038(3) 0.5843(6) 0.4921(2)
C42_2 C 0.1156(4) 0.6900(6) 0.5415(2)
H41_2 H 0.9757 0.4715 0.3654
H42_2 H 0.9858 0.6476 0.4378
O2 O 0.5987(3) 0.8000(4) 0.74873(16)
O4 O 0.8870(3) 0.2278(5) 0.83317(18)
O15_2 O 0.6522(3) 0.0806(4) 0.78767(17)
H5_2 H 0.694(3) 0.026(5) 0.806(2)
H6_2 H 0.646(4) 0.146(4) 0.8106(18)
C1 C 0.6373(4) 0.7059(6) 0.7836(2)
C2 C 0.7040(4) 0.6177(6) 0.7670(2)
C3 C 0.7320(4) 0.6467(7) 0.7180(2)
H13 H 0.7084 0.7235 0.6922
C4 C 0.7955(4) 0.5604(8) 0.7078(3)
H14 H 0.8162 0.5777 0.6747
C5 C 0.8289(4) 0.4482(7) 0.7461(3)
H15 H 0.8717 0.3872 0.7392
C6 C 0.7985(4) 0.4273(6) 0.7943(2)
C7 C 0.8341(4) 0.3151(6) 0.8415(2)
O38_2 O 0.3478(3) 0.0806(4) 0.71233(17)
H26_2 H 0.306(3) 0.026(5) 0.694(2)
H27_2 H 0.354(4) 0.146(4) 0.6894(18)
O16_2 O 0.5352(3) 0.9017(4) 0.85339(18)
H7_2 H 0.496(4) 0.879(7) 0.865(3)
H8_2 H 0.563(4) 0.828(7) 0.852(3)
O22_2 O 0.4013(3) 0.8000(4) 0.75127(16)
O39_2 O 0.4648(3) 0.9017(4) 0.64661(18)
H28_2 H 0.504(4) 0.879(7) 0.635(3)
H29_2 H 0.437(4) 0.828(7) 0.648(3)
O4_2 O 0.1130(3) 0.2278(5) 0.66683(18)
C1_2 C 0.3627(4) 0.7059(6) 0.7164(2)
C2_2 C 0.2960(4) 0.6177(6) 0.7330(2)
C3_2 C 0.2680(4) 0.6467(7) 0.7820(2)
H13_2 H 0.2916 0.7235 0.8078
C4_2 C 0.2045(4) 0.5604(8) 0.7922(3)
H14_2 H 0.1838 0.5777 0.8253
C5_2 C 0.1711(4) 0.4482(7) 0.7539(3)
H15_2 H 0.1283 0.3872 0.7608
C6_2 C 0.2015(4) 0.4273(6) 0.7057(2)
C7_2 C 0.1659(4) 0.3151(6) 0.6585(2)
loop_
_geom_bond_atom_site_label_1
_geom_bond_atom_site_label_2
_geom_bond_site_symmetry_1
_geom_bond_site_symmetry_2
O16 Ca2 1_555 1_555
H7 O16 1_555 1_555
H8 O16 1_555 1_555
Eu3 O19 1_555 1_555
O19 C22 1_555 1_555
O21 Ca2 1_555 1_555
O22 Ca2 1_555 1_555
O23 Eu3 1_555 1_555
O25 C28 1_555 1_555
O39 Ca2 1_555 1_555
H28 O39 1_555 1_555
H29 O39 1_555 1_555
N4 Eu3 1_555 1_555
C22 O21 1_555 1_555
C23 N4 1_555 1_555
C24 C23 1_555 1_555
H34 C24 1_555 1_555
C25 C24 1_555 1_555
H35 C25 1_555 1_555
C26 C25 1_555 1_555
H36 C26 1_555 1_555
C27 N4 1_555 1_555
C28 O23 1_555 1_555
C22 C23 1_555 1_555
C26 C27 1_555 1_555
C27 C28 1_555 1_555
Ca1 O8 1_555 1_555
Ca6 O12 1_555 1_555
O5 Eu3 1_555 1_555
O6 C8 1_555 1_555
O7 Eu3 1_555 1_555
O8 C14 1_555 1_555
O9 Eu3 1_555 1_555
O11 Eu3 1_555 1_555
O12 C21 1_555 1_555
O13 Ca1 1_555 1_555
H1 O13 1_555 1_555
H2 O13 1_555 1_555
H5 O15 1_555 1_555
H6 O15 1_555 1_555
N2 Eu3 1_555 1_555
N3 Eu3 1_555 1_555
C8 O5 1_555 1_555
C9 N2 1_555 1_555
C10 C9 1_555 1_555
H16 C10 1_555 1_555
C11 C10 1_555 1_555
H17 C11 1_555 1_555
C12 C11 1_555 1_555
H18 C12 1_555 1_555
C13 N2 1_555 1_555
C14 O7 1_555 1_555
C21 O11 1_555 1_555
H26 O38 1_555 1_555
H27 O38 1_555 1_555
C8 C9 1_555 1_555
C12 C13 1_555 1_555
C13 C14 1_555 1_555
O40 Ca3 1_555 1_555
H30 O40 1_555 1_555
H31 O40 1_555 1_555
Eu3_2 O19_2 1_555 1_555
O19_2 C22_2 1_555 1_555
O23_2 Eu3_2 1_555 1_555
O25_2 C28_2 1_555 1_555
N4_2 Eu3_2 1_555 1_555
C22_2 O22 1_555 1_555
C23_2 N4_2 1_555 1_555
C24_2 C23_2 1_555 1_555
H34_2 C24_2 1_555 1_555
C25_2 C24_2 1_555 1_555
H35_2 C25_2 1_555 1_555
C26_2 C25_2 1_555 1_555
H36_2 C26_2 1_555 1_555
C27_2 N4_2 1_555 1_555
C28_2 O23_2 1_555 1_555
C22_2 C23_2 1_555 1_555
C26_2 C27_2 1_555 1_555
C27_2 C28_2 1_555 1_555
Ca1_2 O8_2 1_555 1_555
Ca3_2 O12_2 1_555 1_555
O5_2 Eu3_2 1_555 1_555
O28 C8_2 1_555 1_555
O7_2 Eu3_2 1_555 1_555
O8_2 C14_2 1_555 1_555
O9_2 Eu3_2 1_555 1_555
O10 C15 1_555 1_555
O11_2 Eu3_2 1_555 1_555
O12_2 C21_2 1_555 1_555
O13_2 Ca1_2 1_555 1_555
H1_2 O13_2 1_555 1_555
H2_2 O13_2 1_555 1_555
N2_2 Eu3_2 1_555 1_555
N3_2 Eu3_2 1_555 1_555
C8_2 O5_2 1_555 1_555
C9_2 N2_2 1_555 1_555
C10_2 C9_2 1_555 1_555
H16_2 C10_2 1_555 1_555
C11_2 C10_2 1_555 1_555
H17_2 C11_2 1_555 1_555
C12_2 C11_2 1_555 1_555
H18_2 C12_2 1_555 1_555
C13_2 N2_2 1_555 1_555
C14_2 O7_2 1_555 1_555
C15 O9_2 1_555 1_555
C16 N3_2 1_555 1_555
C17 C16 1_555 1_555
H19 C17 1_555 1_555
C18 C17 1_555 1_555
C19 C18 1_555 1_555
C20 N3_2 1_555 1_555
C21_2 O11_2 1_555 1_555
O37 Ca1_2 1_555 1_555
H24 O37 1_555 1_555
H25 O37 1_555 1_555
O41 Ca3_2 1_555 1_555
H32 O41 1_555 1_555
C8_2 C9_2 1_555 1_555
C12_2 C13_2 1_555 1_555
C13_2 C14_2 1_555 1_555
C15 C16 1_555 1_555
C19 C20 1_555 1_555
C20 C21_2 1_555 1_555
O10_2 C15_2 1_555 1_555
C17_2 C16_2 1_555 1_555
H19_2 C17_2 1_555 1_555
C18_2 C17_2 1_555 1_555
C19_2 C18_2 1_555 1_555
O37_2 Ca1_3 1_555 1_555
H24_2 O37_2 1_555 1_555
H25_2 O37_2 1_555 1_555
O41_2 Ca6_3 1_555 1_555
H32_2 O41_2 1_555 1_555
C15_2 C16_2 1_555 1_555
C19_2 C20_2 1_555 1_555
O40_2 Ca6_4 1_555 1_555
H30_2 O40_2 1_555 1_555
H31_2 O40_2 1_555 1_555
O14 Ca1_4 1_555 1_555
H3 O14 1_555 1_555
H4 O14 1_555 1_555
O17 Ca6_5 1_555 1_555
H9 O17 1_555 1_555
H10 O17 1_555 1_555
O32 C36 1_555 1_555
C38 C37 1_555 1_555
H40 C38 1_555 1_555
C39 C38 1_555 1_555
C40 C39 1_555 1_555
C36 C37 1_555 1_555
C40 C41 1_555 1_555
O18 Ca6_6 1_555 1_555
H11 O18 1_555 1_555
Eu2 O20 1_555 1_555
Ca6_8 O34 1_555 1_555
O24 Eu2 1_555 1_555
O26 Eu2 1_555 1_555
O27 C29 1_555 1_555
O29 Eu2 1_555 1_555
O30 Ca1_5 1_555 1_555
O31 Eu2 1_555 1_555
O33 Eu2 1_555 1_555
O34 C42 1_555 1_555
O36 Ca1_5 1_555 1_555
H22 O36 1_555 1_555
H23 O36 1_555 1_555
N5 Eu2 1_555 1_555
N6 Eu2 1_555 1_555
N7 Eu2 1_555 1_555
C29 O26 1_555 1_555
C30 N6 1_555 1_555
C31 C30 1_555 1_555
H37 C31 1_555 1_555
C32 C31 1_555 1_555
H38 C32 1_555 1_555
C33 C32 1_555 1_555
H39 C33 1_555 1_555
C34 N6 1_555 1_555
C35 O29 1_555 1_555
C42 O33 1_555 1_555
O30 C35 1_555 1_555
C29 C30 1_555 1_555
C33 C34 1_555 1_555
C34 C35 1_555 1_555
O18_2 Ca3_3 1_555 1_555
H11_2 O18_2 1_555 1_555
O35 Ca3_3 1_555 1_555
O14_2 Ca1_6 1_555 1_555
H3_2 O14_2 1_555 1_555
H4_2 O14_2 1_555 1_555
O17_2 Ca3_4 1_555 1_555
H9_2 O17_2 1_555 1_555
H10_2 O17_2 1_555 1_555
Eu2_2 O20_2 1_555 1_555
O24_2 Eu2_2 1_555 1_555
O26_2 Eu2_2 1_555 1_555
O27_2 C29_2 1_555 1_555
O29_2 Eu2_2 1_555 1_555
O30_2 Ca1_6 1_555 1_555
O31_2 Eu2_2 1_555 1_555
O32_2 C36_2 1_555 1_555
O33_2 Eu2_2 1_555 1_555
O35 C42_2 1_555 1_555
O36_2 Ca1_6 1_555 1_555
H22_2 O36_2 1_555 1_555
H23_2 O36_2 1_555 1_555
N5_2 Eu2_2 1_555 1_555
N6_2 Eu2_2 1_555 1_555
N7_2 Eu2_2 1_555 1_555
C29_2 O26_2 1_555 1_555
C30_2 N6_2 1_555 1_555
C31_2 C30_2 1_555 1_555
H37_2 C31_2 1_555 1_555
C32_2 C31_2 1_555 1_555
H38_2 C32_2 1_555 1_555
C33_2 C32_2 1_555 1_555
H39_2 C33_2 1_555 1_555
C34_2 N6_2 1_555 1_555
C35_2 O29_2 1_555 1_555
C36_2 O31_2 1_555 1_555
C37_2 N7_2 1_555 1_555
C38_2 C37_2 1_555 1_555
H40_2 C38_2 1_555 1_555
C39_2 C38_2 1_555 1_555
C40_2 C39_2 1_555 1_555
C41_2 N7_2 1_555 1_555
C42_2 O33_2 1_555 1_555
O30_2 C35_2 1_555 1_555
C29_2 C30_2 1_555 1_555
C33_2 C34_2 1_555 1_555
C34_2 C35_2 1_555 1_555
C36_2 C37_2 1_555 1_555
C40_2 C41_2 1_555 1_555
C41_2 C42_2 1_555 1_555
O20 C1 1_555 1_555
O2 C1 1_555 1_555
O4 C7 1_555 1_555
H5_2 O15_2 1_555 1_555
H6_2 O15_2 1_555 1_555
C1 C2 1_555 1_555
C2 N5 1_555 1_555
C3 C2 1_555 1_555
H13 C3 1_555 1_555
C4 C3 1_555 1_555
H14 C4 1_555 1_555
C5 C4 1_555 1_555
H15 C5 1_555 1_555
C6 N5 1_555 1_555
C7 O24 1_555 1_555
Ca5 O2 1_555 1_555
H26_2 O38_2 1_555 1_555
H27_2 O38_2 1_555 1_555
C5 C6 1_555 1_555
C6 C7 1_555 1_555
O16_2 Ca5 1_555 1_555
H7_2 O16_2 1_555 1_555
H8_2 O16_2 1_555 1_555
O22_2 Ca5 1_555 1_555
O39_2 Ca5 1_555 1_555
H28_2 O39_2 1_555 1_555
H29_2 O39_2 1_555 1_555
O20_2 C1_2 1_555 1_555
O22_2 C1_2 1_555 1_555
O4_2 C7_2 1_555 1_555
C1_2 C2_2 1_555 1_555
C2_2 N5_2 1_555 1_555
C3_2 C2_2 1_555 1_555
H13_2 C3_2 1_555 1_555
C4_2 C3_2 1_555 1_555
H14_2 C4_2 1_555 1_555
C5_2 C4_2 1_555 1_555
H15_2 C5_2 1_555 1_555
C6_2 N5_2 1_555 1_555
C7_2 O24_2 1_555 1_555
C5_2 C6_2 1_555 1_555
C6_2 C7_2 1_555 1_555

#END
