
###############################################################################
#
# This file contains modified crystal structure data generated from the
# MOF subset of the Cambridge Structural Database (CSD) v543 
# hosted by the Cambridge Crystallographic Data Centre (CCDC).
#
# This work is licensed under the Creative Commons
# Attribution-NonCommercial-ShareAlike 4.0 International License.
# To view a copy of this license, visit
# http://creativecommons.org/licenses/by-nc-sa/4.0/
# or send a letter to
# Creative Commons, PO Box 1866, Mountain View, CA 94042, USA.
#
# CIF created using the CSD Python API on 29 September 2022
# The structure has been converted into the P1 space group
# The structure has a 3D framework
# The original CSD entry HAYYOY is in the rhombohedral crystal system
# The framework has been calculated to contain at least 10.0% void space
# The void calculation uses a probe of radius 1.32A, grid spacing 0.4
#
###############################################################################

data_HAYYOY
_chemical_formula_moiety         '(C86 H18 Cl9 Fe32 N60 O32)n'
_symmetry_cell_setting           triclinic
_symmetry_space_group_name_H-M   'P 1'
_symmetry_Int_Tables_number      1
_space_group_name_Hall           'P 1'
loop_
_symmetry_equiv_pos_site_id
_symmetry_equiv_pos_as_xyz
1 x,y,z
_cell_length_a                   23.9689(8)
_cell_length_b                   23.9689(8)
_cell_length_c                   8.0046(3)
_cell_angle_alpha                90
_cell_angle_beta                 90
_cell_angle_gamma                120
_cell_volume                     3982.6
loop_
_atom_site_label
_atom_site_type_symbol
_atom_site_fract_x
_atom_site_fract_y
_atom_site_fract_z
_atom_site_U_iso_or_equiv
_atom_site_thermal_displace_type
Fe1 Fe 0.28374(18) 0.28374(18) 0.000000 0.0205 Uiso
Cl1 Cl 0.3333(3) 0.2458(2) 0.166667 0.0300 Uiso
N1 N 0.2599(3) 0.3136(2) 0.2029(6) 0.0100 Uiso
N2 N 0.2999(3) 0.333333 0.333333 0.0100 Uiso
C1 C 0.2090(8) 0.3205(6) 0.2522(6) 0.0100 Uiso
C2 C 0.1530(9) 0.3059(8) 0.170(2) 0.0100 Uiso
H1 H 0.141942 0.283869 0.046892 0.0100 Uiso
C3 C 0.2097(14) 0.2097(14) 0.000000 0.0127 Uiso
O1 O 0.1604(7) 0.1604(7) 0.000000 0.0367 Uiso
N3 N 0.0537(4) 0.3136(2) 0.2029(6) 0.0100 Uiso
N4 N 0.03343(30) 0.333333 0.333333 0.0100 Uiso
C4 C 0.1115(10) 0.3205(6) 0.2522(6) 0.0100 Uiso
N5 N 0.0734(3) 0.3531(2) 0.4638(6) 0.0100 Uiso
C5 C 0.1243(8) 0.3462(6) 0.4145(6) 0.0100 Uiso
C6 C 0.1803(9) 0.3608(8) 0.497(2) 0.0100 Uiso
H2 H 0.191391 0.382798 0.619775 0.0100 Uiso
N6 N 0.2796(4) 0.3531(2) 0.4638(6) 0.0100 Uiso
C7 C 0.2218(10) 0.3462(6) 0.4145(6) 0.0100 Uiso
Fe2 Fe 0.00000(25) 0.28374(18) 0.000000 0.0205 Uiso
C8 C -0.0000(20) 0.2097(14) 0.000000 0.0127 Uiso
O2 O -0.0000(10) 0.1604(7) 0.000000 0.0367 Uiso
Fe3 Fe 0.38293(18) 0.33333(25) 0.333333 0.0205 Uiso
Fe5 Fe 0.04959(18) 0.38293(18) 0.666667 0.0205 Uiso
Fe6 Fe 0.33333(25) 0.38293(18) 0.666667 0.0205 Uiso
N9 N 0.3668(3) 0.36677(30) 0.000000 0.0100 Uiso
N10 N -0.000000 0.36677(30) 0.000000 0.0100 Uiso
Fe1_2 Fe 0.28374(18) 0.28374(18) 1.000000 0.0205 Uiso
C3_2 C 0.2097(14) 0.2097(14) 1.000000 0.0127 Uiso
O1_2 O 0.1604(7) 0.1604(7) 1.000000 0.0367 Uiso
Fe2_2 Fe 0.00000(25) 0.28374(18) 1.000000 0.0205 Uiso
C8_2 C -0.0000(20) 0.2097(14) 1.000000 0.0127 Uiso
O2_2 O -0.0000(10) 0.1604(7) 1.000000 0.0367 Uiso
Cl3 Cl 0.2458(2) 0.3333(3) 0.833333 0.0300 Uiso
Cl4 Cl 0.0875(4) 0.3333(3) 0.833333 0.0300 Uiso
N7 N 0.3136(2) 0.2599(3) 0.7971(6) 0.0100 Uiso
N9_2 N 0.3668(3) 0.36677(30) 1.000000 0.0100 Uiso
N10_2 N -0.000000 0.36677(30) 1.000000 0.0100 Uiso
Fe2_3 Fe 1.00000(25) 0.28374(18) 0.000000 0.0205 Uiso
Cl2 Cl 0.9125(4) 0.2458(2) 0.166667 0.0300 Uiso
C8_3 C 1.0000(20) 0.2097(14) 0.000000 0.0127 Uiso
O2_3 O 1.0000(10) 0.1604(7) 0.000000 0.0367 Uiso
Fe4 Fe 0.95041(18) 0.33333(25) 0.333333 0.0205 Uiso
N10_3 N 1.000000 0.36677(30) 0.000000 0.0100 Uiso
Fe2_4 Fe 1.00000(25) 0.28374(18) 1.000000 0.0205 Uiso
C8_4 C 1.0000(20) 0.2097(14) 1.000000 0.0127 Uiso
O2_4 O 1.0000(10) 0.1604(7) 1.000000 0.0367 Uiso
N8 N 0.9463(4) 0.2599(3) 0.7971(6) 0.0100 Uiso
N10_4 N 1.000000 0.36677(30) 1.000000 0.0100 Uiso
Fe1_3 Fe 0.71626(18) -0.00000(25) 0.000000 0.0205 Uiso
C3_3 C 0.7903(14) -0.0000(20) 0.000000 0.0127 Uiso
O1_3 O 0.8396(7) 0.0000(10) 0.000000 0.0367 Uiso
Cl3_2 Cl 0.7542(2) 0.0875(4) 0.166667 0.0300 Uiso
N9_3 N 0.6332(3) -0.00000(42) -0.000000 0.0100 Uiso
Fe1_4 Fe 0.71626(18) -0.00000(25) 1.000000 0.0205 Uiso
N1_2 N 0.7401(3) 0.0537(4) 0.7971(6) 0.0100 Uiso
N2_2 N 0.7001(3) 0.03343(30) 0.666667 0.0100 Uiso
C1_2 C 0.7910(8) 0.1115(10) 0.7478(6) 0.0100 Uiso
C2_2 C 0.8470(9) 0.1529(12) 0.830(2) 0.0100 Uiso
H1_2 H 0.858058 0.141927 0.953108 0.0100 Uiso
C3_4 C 0.7903(14) -0.0000(20) 1.000000 0.0127 Uiso
O1_4 O 0.8396(7) 0.0000(10) 1.000000 0.0367 Uiso
N4_2 N 0.96657(30) 0.29990(30) 0.666667 0.0100 Uiso
C4_2 C 0.8885(10) 0.2090(12) 0.7478(6) 0.0100 Uiso
N5_2 N 0.9266(3) 0.2796(4) 0.5362(6) 0.0100 Uiso
C5_2 C 0.8757(8) 0.2218(10) 0.5855(6) 0.0100 Uiso
C6_2 C 0.8197(9) 0.1804(12) 0.503(2) 0.0100 Uiso
H2_2 H 0.808609 0.191406 0.380225 0.0100 Uiso
N6_2 N 0.7204(4) 0.0734(4) 0.5362(6) 0.0100 Uiso
C7_2 C 0.7782(10) 0.1243(12) 0.5855(6) 0.0100 Uiso
Fe6_2 Fe 0.66667(25) 0.04959(31) 0.333333 0.0205 Uiso
N9_4 N 0.6332(3) -0.00000(42) 1.000000 0.0100 Uiso
Fe1_5 Fe 0.71626(18) 1.00000(25) 0.000000 0.0205 Uiso
C3_5 C 0.7903(14) 1.0000(20) 0.000000 0.0127 Uiso
O1_5 O 0.8396(7) 1.0000(10) 0.000000 0.0367 Uiso
N7_2 N 0.6864(2) 0.9463(4) 0.2029(6) 0.0100 Uiso
N9_5 N 0.6332(3) 1.00000(42) -0.000000 0.0100 Uiso
Fe1_6 Fe 0.71626(18) 1.00000(25) 1.000000 0.0205 Uiso
Cl1_2 Cl 0.6667(3) 0.9125(4) 0.833333 0.0300 Uiso
C3_6 C 0.7903(14) 1.0000(20) 1.000000 0.0127 Uiso
O1_6 O 0.8396(7) 1.0000(10) 1.000000 0.0367 Uiso
Fe3_2 Fe 0.61707(18) 0.95041(31) 0.666667 0.0205 Uiso
N9_6 N 0.6332(3) 1.00000(42) 1.000000 0.0100 Uiso
Fe2_5 Fe 0.28374(31) 0.00000(25) 0.000000 0.0205 Uiso
Cl2_2 Cl 0.3333(4) 0.0875(4) 0.166667 0.0300 Uiso
C8_5 C 0.2097(24) 0.0000(20) 0.000000 0.0127 Uiso
O2_5 O 0.1604(12) 0.0000(10) 0.000000 0.0367 Uiso
Fe4_2 Fe 0.38293(31) 0.04959(18) 0.333333 0.0205 Uiso
N10_5 N 0.36677(30) 0.000000 0.000000 0.0100 Uiso
Fe2_6 Fe 0.28374(31) 0.00000(25) 1.000000 0.0205 Uiso
C8_6 C 0.2097(24) 0.0000(20) 1.000000 0.0127 Uiso
O2_6 O 0.1604(12) 0.0000(10) 1.000000 0.0367 Uiso
N8_2 N 0.3136(5) 0.0537(4) 0.7971(6) 0.0100 Uiso
N10_6 N 0.36677(30) 0.000000 1.000000 0.0100 Uiso
Fe1_7 Fe -0.00000(25) 0.71626(18) 0.000000 0.0205 Uiso
N1_3 N 0.0537(4) 0.7401(3) 0.2029(6) 0.0100 Uiso
N2_3 N 0.03343(30) 0.7001(3) 0.333333 0.0100 Uiso
C1_3 C 0.1115(10) 0.7910(8) 0.2522(6) 0.0100 Uiso
C2_3 C 0.1529(12) 0.8470(9) 0.170(2) 0.0100 Uiso
H1_3 H 0.141927 0.858058 0.046892 0.0100 Uiso
C3_7 C -0.0000(20) 0.7903(14) 0.000000 0.0127 Uiso
O1_7 O -0.0000(10) 0.8396(7) 0.000000 0.0367 Uiso
N3_2 N 0.2599(4) 0.9463(4) 0.2029(6) 0.0100 Uiso
N4_3 N 0.29990(30) 0.96657(30) 0.333333 0.0100 Uiso
C4_3 C 0.2090(12) 0.8885(10) 0.2522(6) 0.0100 Uiso
N5_3 N 0.2796(4) 0.9266(3) 0.4638(6) 0.0100 Uiso
C5_3 C 0.2218(10) 0.8757(8) 0.4145(6) 0.0100 Uiso
C6_3 C 0.1804(12) 0.8197(9) 0.497(2) 0.0100 Uiso
H2_3 H 0.191406 0.808609 0.619775 0.0100 Uiso
N6_3 N 0.0734(4) 0.7204(4) 0.4638(6) 0.0100 Uiso
C7_3 C 0.1243(12) 0.7782(10) 0.4145(6) 0.0100 Uiso
Fe2_7 Fe 0.28374(31) 1.00000(25) 0.000000 0.0205 Uiso
C8_7 C 0.2097(24) 1.0000(20) 0.000000 0.0127 Uiso
O2_7 O 0.1604(12) 1.0000(10) 0.000000 0.0367 Uiso
Fe5_2 Fe 0.33333(25) 0.95041(18) 0.666667 0.0205 Uiso
Fe6_3 Fe 0.04959(31) 0.66667(25) 0.666667 0.0205 Uiso
N9_7 N -0.00000(42) 0.6332(3) 0.000000 0.0100 Uiso
N10_7 N 0.36677(30) 1.000000 0.000000 0.0100 Uiso
Fe1_8 Fe -0.00000(25) 0.71626(18) 1.000000 0.0205 Uiso
C3_8 C -0.0000(20) 0.7903(14) 1.000000 0.0127 Uiso
O1_8 O -0.0000(10) 0.8396(7) 1.000000 0.0367 Uiso
Fe2_8 Fe 0.28374(31) 1.00000(25) 1.000000 0.0205 Uiso
C8_8 C 0.2097(24) 1.0000(20) 1.000000 0.0127 Uiso
O2_8 O 0.1604(12) 1.0000(10) 1.000000 0.0367 Uiso
Cl3_3 Cl 0.0875(4) 0.7542(2) 0.833333 0.0300 Uiso
Cl4_2 Cl 0.2458(5) 0.9125(4) 0.833333 0.0300 Uiso
N9_8 N -0.00000(42) 0.6332(3) 1.000000 0.0100 Uiso
N10_8 N 0.36677(30) 1.000000 1.000000 0.0100 Uiso
Fe1_9 Fe 1.00000(25) 0.71626(18) 0.000000 0.0205 Uiso
Cl1_3 Cl 0.9125(4) 0.6667(3) 0.166667 0.0300 Uiso
C3_9 C 1.0000(20) 0.7903(14) 0.000000 0.0127 Uiso
O1_9 O 1.0000(10) 0.8396(7) 0.000000 0.0367 Uiso
Fe3_3 Fe 0.95041(31) 0.61707(18) 0.333333 0.0205 Uiso
N9_9 N 1.00000(42) 0.6332(3) 0.000000 0.0100 Uiso
Fe1_10 Fe 1.00000(25) 0.71626(18) 1.000000 0.0205 Uiso
C3_10 C 1.0000(20) 0.7903(14) 1.000000 0.0127 Uiso
O1_10 O 1.0000(10) 0.8396(7) 1.000000 0.0367 Uiso
N7_3 N 0.9463(4) 0.6864(2) 0.7971(6) 0.0100 Uiso
N9_10 N 1.00000(42) 0.6332(3) 1.000000 0.0100 Uiso
N2_4 N 0.666667 0.96657(30) 0.333333 0.0100 Uiso
C1_4 C 0.6795(6) 0.8885(10) 0.2522(6) 0.0100 Uiso
C2_4 C 0.6941(8) 0.8471(12) 0.170(2) 0.0100 Uiso
H1_4 H 0.716131 0.858073 0.046892 0.0100 Uiso
N3_3 N 0.6864(2) 0.7401(4) 0.2029(6) 0.0100 Uiso
N4_4 N 0.666667 0.70010(30) 0.333333 0.0100 Uiso
C4_4 C 0.6795(6) 0.7910(12) 0.2522(6) 0.0100 Uiso
N5_4 N 0.6469(2) 0.7204(4) 0.4638(6) 0.0100 Uiso
C5_4 C 0.6538(6) 0.7782(10) 0.4145(6) 0.0100 Uiso
C6_4 C 0.6392(8) 0.8196(12) 0.497(2) 0.0100 Uiso
H2_4 H 0.617202 0.808594 0.619775 0.0100 Uiso
N6_4 N 0.6469(2) 0.9266(4) 0.4638(6) 0.0100 Uiso
C7_4 C 0.6538(6) 0.8757(12) 0.4145(6) 0.0100 Uiso
Fe2_9 Fe 0.71626(18) 0.71626(31) 0.000000 0.0205 Uiso
Cl2_3 Cl 0.7542(2) 0.6667(4) 0.166667 0.0300 Uiso
C8_9 C 0.7903(14) 0.7903(24) 0.000000 0.0127 Uiso
O2_9 O 0.8396(7) 0.8396(12) 0.000000 0.0367 Uiso
Fe4_3 Fe 0.66667(25) 0.61707(31) 0.333333 0.0205 Uiso
Fe5_3 Fe 0.61707(18) 0.66667(25) 0.666667 0.0205 Uiso
N10_9 N 0.63323(30) 0.63323(30) 0.000000 0.0100 Uiso
Fe2_10 Fe 0.71626(18) 0.71626(31) 1.000000 0.0205 Uiso
C8_10 C 0.7903(14) 0.7903(24) 1.000000 0.0127 Uiso
O2_10 O 0.8396(7) 0.8396(12) 1.000000 0.0367 Uiso
Cl4_3 Cl 0.6667(3) 0.7542(5) 0.833333 0.0300 Uiso
N8_3 N 0.7401(3) 0.6864(5) 0.7971(6) 0.0100 Uiso
N10_10 N 0.63323(30) 0.63323(30) 1.000000 0.0100 Uiso
N2_5 N 0.333333 0.2999(3) 0.666667 0.0100 Uiso
C1_5 C 0.3205(6) 0.2090(8) 0.7478(6) 0.0100 Uiso
C2_5 C 0.3059(8) 0.1530(9) 0.830(2) 0.0100 Uiso
H1_5 H 0.283869 0.141942 0.953108 0.0100 Uiso
N4_5 N 0.333333 0.03343(30) 0.666667 0.0100 Uiso
C4_5 C 0.3205(6) 0.1115(10) 0.7478(6) 0.0100 Uiso
N5_5 N 0.3531(2) 0.0734(3) 0.5362(6) 0.0100 Uiso
C5_5 C 0.3462(6) 0.1243(8) 0.5855(6) 0.0100 Uiso
C6_5 C 0.3608(8) 0.1803(9) 0.503(2) 0.0100 Uiso
H2_5 H 0.382798 0.191391 0.380225 0.0100 Uiso
N6_5 N 0.3531(2) 0.2796(4) 0.5362(6) 0.0100 Uiso
C7_5 C 0.3462(6) 0.2218(10) 0.5855(6) 0.0100 Uiso
N2_6 N 0.96657(30) 0.666667 0.666667 0.0100 Uiso
C1_6 C 0.8885(10) 0.6795(6) 0.7478(6) 0.0100 Uiso
C2_6 C 0.8471(12) 0.6941(8) 0.830(2) 0.0100 Uiso
H1_6 H 0.858073 0.716131 0.953108 0.0100 Uiso
N4_6 N 0.70010(30) 0.666667 0.666667 0.0100 Uiso
C4_6 C 0.7910(12) 0.6795(6) 0.7478(6) 0.0100 Uiso
N5_6 N 0.7204(4) 0.6469(2) 0.5362(6) 0.0100 Uiso
C5_6 C 0.7782(10) 0.6538(6) 0.5855(6) 0.0100 Uiso
C6_6 C 0.8196(12) 0.6392(8) 0.503(2) 0.0100 Uiso
H2_6 H 0.808594 0.617202 0.380225 0.0100 Uiso
N6_6 N 0.9266(4) 0.6469(2) 0.5362(6) 0.0100 Uiso
C7_6 C 0.8757(12) 0.6538(6) 0.5855(6) 0.0100 Uiso
N1_4 N 0.4068(3) 0.3870(4) 0.1304(6) 0.0100 Uiso
C1_7 C 0.4577(8) 0.4448(10) 0.0811(6) 0.0100 Uiso
C2_7 C 0.5137(9) 0.4862(12) 0.163(2) 0.0100 Uiso
H1_7 H 0.524725 0.475260 0.286441 0.0100 Uiso
C3_11 C 0.4570(14) 0.3333(20) 0.333333 0.0127 Uiso
O1_11 O 0.5063(7) 0.3333(10) 0.333333 0.0367 Uiso
N3_4 N 0.6130(4) 0.5932(4) 0.1304(6) 0.0100 Uiso
C4_7 C 0.5552(10) 0.5423(12) 0.0811(6) 0.0100 Uiso
C8_11 C 0.6667(20) 0.5430(24) 0.333333 0.0127 Uiso
O2_11 O 0.6667(10) 0.4937(12) 0.333333 0.0367 Uiso
Cl3_4 Cl 0.4209(2) 0.4208(4) 0.500000 0.0300 Uiso
Cl4_4 Cl 0.5792(4) 0.5791(5) 0.500000 0.0300 Uiso
N5_7 N 0.5932(3) 0.6130(4) 0.8696(6) 0.0100 Uiso
C5_7 C 0.5423(8) 0.5552(10) 0.9189(6) 0.0100 Uiso
C6_7 C 0.4863(9) 0.5138(12) 0.837(2) 0.0100 Uiso
H2_7 H 0.475275 0.524740 0.713559 0.0100 Uiso
N6_7 N 0.3870(4) 0.4068(4) 0.8696(6) 0.0100 Uiso
C7_7 C 0.4448(10) 0.4577(12) 0.9189(6) 0.0100 Uiso
Cl2_4 Cl -0.0000(4) 0.4208(4) 0.500000 0.0300 Uiso
Cl1_4 Cl 0.5792(4) 0.0000(3) 0.500000 0.0300 Uiso
C3_12 C 0.6667(20) 0.1236(14) 0.333333 0.0127 Uiso
O1_12 O 0.6667(10) 0.1729(7) 0.333333 0.0367 Uiso
Cl2_5 Cl 1.0000(4) 0.4208(4) 0.500000 0.0300 Uiso
C8_12 C 0.8764(24) 0.3333(20) 0.333333 0.0127 Uiso
O2_12 O 0.8271(12) 0.3333(10) 0.333333 0.0367 Uiso
N7_4 N 0.6130(4) 0.0197(2) 0.1304(6) 0.0100 Uiso
N8_4 N 0.9803(5) 0.3870(4) 0.1304(6) 0.0100 Uiso
Cl1_5 Cl 0.5792(4) 1.0000(3) 0.500000 0.0300 Uiso
Cl2_6 Cl 0.4209(2) 0.0000(4) 0.500000 0.0300 Uiso
C8_13 C 0.4570(14) 0.1236(24) 0.333333 0.0127 Uiso
O2_13 O 0.5063(7) 0.1729(12) 0.333333 0.0367 Uiso
N8_5 N 0.4068(3) 0.0197(5) 0.1304(6) 0.0100 Uiso
Cl2_7 Cl 0.4209(2) 1.0000(4) 0.500000 0.0300 Uiso
Cl3_5 Cl -0.0000(3) 0.5791(2) 0.500000 0.0300 Uiso
N5_8 N 0.0197(2) 0.4068(3) 0.8696(6) 0.0100 Uiso
C5_8 C 0.0128(6) 0.4577(8) 0.9189(6) 0.0100 Uiso
C6_8 C 0.0274(8) 0.5137(9) 0.837(2) 0.0100 Uiso
H2_8 H 0.049464 0.524725 0.713559 0.0100 Uiso
N6_8 N 0.0197(2) 0.6130(4) 0.8696(6) 0.0100 Uiso
C7_8 C 0.0128(6) 0.5552(10) 0.9189(6) 0.0100 Uiso
N1_5 N 0.9803(2) 0.5932(3) 0.1304(6) 0.0100 Uiso
C1_8 C 0.9872(6) 0.5423(8) 0.0811(6) 0.0100 Uiso
C2_8 C 0.9726(8) 0.4863(9) 0.163(2) 0.0100 Uiso
H1_8 H 0.950536 0.475275 0.286441 0.0100 Uiso
C3_13 C 0.8764(14) 0.5430(14) 0.333333 0.0127 Uiso
O1_13 O 0.8271(7) 0.4937(7) 0.333333 0.0367 Uiso
C4_8 C 0.9872(6) 0.4448(10) 0.0811(6) 0.0100 Uiso
Cl3_6 Cl 1.0000(3) 0.5791(2) 0.500000 0.0300 Uiso
C1_9 C 0.5552(10) 0.0128(6) 0.0811(6) 0.0100 Uiso
C2_9 C 0.5138(12) 0.0274(8) 0.163(2) 0.0100 Uiso
H1_9 H 0.524740 0.049464 0.286441 0.0100 Uiso
C4_9 C 0.4577(12) 0.0128(6) 0.0811(6) 0.0100 Uiso
N5_9 N 0.3870(4) 0.9803(2) 0.8696(6) 0.0100 Uiso
C5_9 C 0.4448(10) 0.9872(6) 0.9189(6) 0.0100 Uiso
C6_9 C 0.4862(12) 0.9726(8) 0.837(2) 0.0100 Uiso
H2_9 H 0.475260 0.950536 0.713559 0.0100 Uiso
N6_9 N 0.5932(4) 0.9803(2) 0.8696(6) 0.0100 Uiso
C7_9 C 0.5423(12) 0.9872(6) 0.9189(6) 0.0100 Uiso
C3_14 C 0.1236(14) 0.6667(20) 0.666667 0.0127 Uiso
O1_14 O 0.1729(7) 0.6667(10) 0.666667 0.0367 Uiso
C8_14 C 0.3333(20) 0.8764(24) 0.666667 0.0127 Uiso
O2_14 O 0.3333(10) 0.8271(12) 0.666667 0.0367 Uiso
C3_15 C 0.3333(20) 0.4570(14) 0.666667 0.0127 Uiso
O1_15 O 0.3333(10) 0.5063(7) 0.666667 0.0367 Uiso
C8_15 C 0.5430(24) 0.6667(20) 0.666667 0.0127 Uiso
O2_15 O 0.4937(12) 0.6667(10) 0.666667 0.0367 Uiso
C8_16 C 0.1236(14) 0.4570(24) 0.666667 0.0127 Uiso
O2_16 O 0.1729(7) 0.5063(12) 0.666667 0.0367 Uiso
C3_16 C 0.5430(14) 0.8764(14) 0.666667 0.0127 Uiso
O1_16 O 0.4937(7) 0.8271(7) 0.666667 0.0367 Uiso
loop_
_geom_bond_atom_site_label_1
_geom_bond_atom_site_label_2
_geom_bond_site_symmetry_1
_geom_bond_site_symmetry_2
Fe1 Cl1 1_555 1_555
Cl1 Fe3 1_555 1_555
N1 Fe1 1_555 1_555
N2 N1 1_555 1_555
C1 N1 1_555 1_555
C2 C1 1_555 1_555
H1 C2 1_555 1_555
C3 Fe1 1_555 1_555
O1 C3 1_555 1_555
N3 N4 1_555 1_555
N4 N5 1_555 1_555
C4 C2 1_555 1_555
N5 C5 1_555 1_555
C5 C4 1_555 1_555
C6 C5 1_555 1_555
H2 C6 1_555 1_555
N6 N2 1_555 1_555
C7 C1 1_555 1_555
Fe2 N3 1_555 1_555
C8 Fe2 1_555 1_555
O2 C8 1_555 1_555
Fe3 N2 1_555 1_555
Fe5 N5 1_555 1_555
Fe6 N6 1_555 1_555
N9 Fe1 1_555 1_555
N10 Fe2 1_555 1_555
N3 C4 1_555 1_555
C6 C7 1_555 1_555
N6 C7 1_555 1_555
C3_2 Fe1_2 1_555 1_555
O1_2 C3_2 1_555 1_555
C8_2 Fe2_2 1_555 1_555
O2_2 C8_2 1_555 1_555
Cl3 Fe1_2 1_555 1_555
Cl4 Fe2_2 1_555 1_555
N7 Fe1_2 1_555 1_555
N9_2 Fe1_2 1_555 1_555
N10_2 Fe2_2 1_555 1_555
Cl2 Fe2_3 1_555 1_555
C8_3 Fe2_3 1_555 1_555
O2_3 C8_3 1_555 1_555
N10_3 Fe2_3 1_555 1_555
Cl2 Fe4 1_555 1_555
C8_4 Fe2_4 1_555 1_555
O2_4 C8_4 1_555 1_555
N8 Fe2_4 1_555 1_555
N10_4 Fe2_4 1_555 1_555
Cl4 Fe5 1_555 1_555
C3_3 Fe1_3 1_555 1_555
O1_3 C3_3 1_555 1_555
Cl3_2 Fe1_3 1_555 1_555
N9_3 Fe1_3 1_555 1_555
N1_2 Fe1_4 1_555 1_555
N2_2 N1_2 1_555 1_555
C1_2 N1_2 1_555 1_555
C2_2 C1_2 1_555 1_555
H1_2 C2_2 1_555 1_555
C3_4 Fe1_4 1_555 1_555
O1_4 C3_4 1_555 1_555
N8 N4_2 1_555 1_555
N4_2 N5_2 1_555 1_555
C4_2 C2_2 1_555 1_555
N5_2 C5_2 1_555 1_555
C5_2 C4_2 1_555 1_555
C6_2 C5_2 1_555 1_555
H2_2 C6_2 1_555 1_555
N6_2 N2_2 1_555 1_555
C7_2 C1_2 1_555 1_555
Fe4 N5_2 1_555 1_555
Fe6_2 N6_2 1_555 1_555
N9_4 Fe1_4 1_555 1_555
N8 C4_2 1_555 1_555
C6_2 C7_2 1_555 1_555
N6_2 C7_2 1_555 1_555
C3_5 Fe1_5 1_555 1_555
O1_5 C3_5 1_555 1_555
N7_2 Fe1_5 1_555 1_555
N9_5 Fe1_5 1_555 1_555
Fe1_6 Cl1_2 1_555 1_555
Cl1_2 Fe3_2 1_555 1_555
C3_6 Fe1_6 1_555 1_555
O1_6 C3_6 1_555 1_555
N9_6 Fe1_6 1_555 1_555
Cl2_2 Fe2_5 1_555 1_555
C8_5 Fe2_5 1_555 1_555
O2_5 C8_5 1_555 1_555
N10_5 Fe2_5 1_555 1_555
Cl2_2 Fe4_2 1_555 1_555
C8_6 Fe2_6 1_555 1_555
O2_6 C8_6 1_555 1_555
N8_2 Fe2_6 1_555 1_555
N10_6 Fe2_6 1_555 1_555
N1_3 Fe1_7 1_555 1_555
N2_3 N1_3 1_555 1_555
C1_3 N1_3 1_555 1_555
C2_3 C1_3 1_555 1_555
H1_3 C2_3 1_555 1_555
C3_7 Fe1_7 1_555 1_555
O1_7 C3_7 1_555 1_555
N3_2 N4_3 1_555 1_555
N4_3 N5_3 1_555 1_555
C4_3 C2_3 1_555 1_555
N5_3 C5_3 1_555 1_555
C5_3 C4_3 1_555 1_555
C6_3 C5_3 1_555 1_555
H2_3 C6_3 1_555 1_555
N6_3 N2_3 1_555 1_555
C7_3 C1_3 1_555 1_555
Fe2_7 N3_2 1_555 1_555
C8_7 Fe2_7 1_555 1_555
O2_7 C8_7 1_555 1_555
Fe5_2 N5_3 1_555 1_555
Fe6_3 N6_3 1_555 1_555
N9_7 Fe1_7 1_555 1_555
N10_7 Fe2_7 1_555 1_555
N3_2 C4_3 1_555 1_555
C6_3 C7_3 1_555 1_555
N6_3 C7_3 1_555 1_555
C3_8 Fe1_8 1_555 1_555
O1_8 C3_8 1_555 1_555
C8_8 Fe2_8 1_555 1_555
O2_8 C8_8 1_555 1_555
Cl3_3 Fe1_8 1_555 1_555
Cl4_2 Fe2_8 1_555 1_555
N9_8 Fe1_8 1_555 1_555
N10_8 Fe2_8 1_555 1_555
Fe1_9 Cl1_3 1_555 1_555
Cl1_3 Fe3_3 1_555 1_555
C3_9 Fe1_9 1_555 1_555
O1_9 C3_9 1_555 1_555
N9_9 Fe1_9 1_555 1_555
C3_10 Fe1_10 1_555 1_555
O1_10 C3_10 1_555 1_555
N7_3 Fe1_10 1_555 1_555
N9_10 Fe1_10 1_555 1_555
Cl3_2 Fe6_2 1_555 1_555
N2_4 N7_2 1_555 1_555
C1_4 N7_2 1_555 1_555
C2_4 C1_4 1_555 1_555
H1_4 C2_4 1_555 1_555
N3_3 N4_4 1_555 1_555
N4_4 N5_4 1_555 1_555
C4_4 C2_4 1_555 1_555
N5_4 C5_4 1_555 1_555
C5_4 C4_4 1_555 1_555
C6_4 C5_4 1_555 1_555
H2_4 C6_4 1_555 1_555
N6_4 N2_4 1_555 1_555
C7_4 C1_4 1_555 1_555
Fe2_9 N3_3 1_555 1_555
Cl2_3 Fe2_9 1_555 1_555
C8_9 Fe2_9 1_555 1_555
O2_9 C8_9 1_555 1_555
Fe4_3 N4_4 1_555 1_555
Fe5_3 N5_4 1_555 1_555
Fe3_2 N6_4 1_555 1_555
N10_9 Fe2_9 1_555 1_555
N3_3 C4_4 1_555 1_555
C6_4 C7_4 1_555 1_555
N6_4 C7_4 1_555 1_555
Cl2_3 Fe4_3 1_555 1_555
C8_10 Fe2_10 1_555 1_555
O2_10 C8_10 1_555 1_555
Cl4_3 Fe2_10 1_555 1_555
N8_3 Fe2_10 1_555 1_555
N10_10 Fe2_10 1_555 1_555
Cl3 Fe6 1_555 1_555
N2_5 N7 1_555 1_555
C1_5 N7 1_555 1_555
C2_5 C1_5 1_555 1_555
H1_5 C2_5 1_555 1_555
N8_2 N4_5 1_555 1_555
N4_5 N5_5 1_555 1_555
C4_5 C2_5 1_555 1_555
N5_5 C5_5 1_555 1_555
C5_5 C4_5 1_555 1_555
C6_5 C5_5 1_555 1_555
H2_5 C6_5 1_555 1_555
N6_5 N2_5 1_555 1_555
C7_5 C1_5 1_555 1_555
Fe6 N2_5 1_555 1_555
Fe4_2 N5_5 1_555 1_555
Fe3 N6_5 1_555 1_555
N8_2 C4_5 1_555 1_555
C6_5 C7_5 1_555 1_555
N6_5 C7_5 1_555 1_555
Cl4_2 Fe5_2 1_555 1_555
Cl3_3 Fe6_3 1_555 1_555
N2_6 N7_3 1_555 1_555
C1_6 N7_3 1_555 1_555
C2_6 C1_6 1_555 1_555
H1_6 C2_6 1_555 1_555
N8_3 N4_6 1_555 1_555
N4_6 N5_6 1_555 1_555
C4_6 C2_6 1_555 1_555
N5_6 C5_6 1_555 1_555
C5_6 C4_6 1_555 1_555
C6_6 C5_6 1_555 1_555
H2_6 C6_6 1_555 1_555
N6_6 N2_6 1_555 1_555
C7_6 C1_6 1_555 1_555
Fe5_3 N4_6 1_555 1_555
Fe4_3 N5_6 1_555 1_555
Fe3_3 N6_6 1_555 1_555
N8_3 C4_6 1_555 1_555
C6_6 C7_6 1_555 1_555
N6_6 C7_6 1_555 1_555
Cl4_3 Fe5_3 1_555 1_555
N1_4 Fe3 1_555 1_555
N9 N1_4 1_555 1_555
C1_7 N1_4 1_555 1_555
C2_7 C1_7 1_555 1_555
H1_7 C2_7 1_555 1_555
C3_11 Fe3 1_555 1_555
O1_11 C3_11 1_555 1_555
N3_4 N10_9 1_555 1_555
C4_7 C2_7 1_555 1_555
Fe4_3 N3_4 1_555 1_555
C8_11 Fe4_3 1_555 1_555
O2_11 C8_11 1_555 1_555
Cl3_4 Fe3 1_555 1_555
Cl4_4 Fe4_3 1_555 1_555
N3_4 C4_7 1_555 1_555
N10_10 N5_7 1_555 1_555
N5_7 C5_7 1_555 1_555
C6_7 C5_7 1_555 1_555
H2_7 C6_7 1_555 1_555
N6_7 N9_2 1_555 1_555
Fe5_3 N5_7 1_555 1_555
Fe6 N6_7 1_555 1_555
C6_7 C7_7 1_555 1_555
N6_7 C7_7 1_555 1_555
Cl2_4 Fe5 1_555 1_555
Fe6_2 Cl1_4 1_555 1_555
C3_12 Fe6_2 1_555 1_555
O1_12 C3_12 1_555 1_555
Cl2_5 Fe4 1_555 1_555
C8_12 Fe4 1_555 1_555
O2_12 C8_12 1_555 1_555
N7_4 Fe6_2 1_555 1_555
N8_4 Fe4 1_555 1_555
Cl1_5 Fe3_2 1_555 1_555
Cl3_4 Fe6 1_555 1_555
Cl2_6 Fe4_2 1_555 1_555
C8_13 Fe4_2 1_555 1_555
O2_13 C8_13 1_555 1_555
N8_5 Fe4_2 1_555 1_555
Cl2_7 Fe5_2 1_555 1_555
N10_2 N5_8 1_555 1_555
N5_8 C5_8 1_555 1_555
C6_8 C5_8 1_555 1_555
H2_8 C6_8 1_555 1_555
N6_8 N9_8 1_555 1_555
Fe5 N5_8 1_555 1_555
Fe6_3 N6_8 1_555 1_555
C6_8 C7_8 1_555 1_555
N6_8 C7_8 1_555 1_555
N1_5 Fe3_3 1_555 1_555
N9_9 N1_5 1_555 1_555
C1_8 N1_5 1_555 1_555
C2_8 C1_8 1_555 1_555
H1_8 C2_8 1_555 1_555
C3_13 Fe3_3 1_555 1_555
O1_13 C3_13 1_555 1_555
N8_4 N10_3 1_555 1_555
C4_8 C2_8 1_555 1_555
Cl3_6 Fe3_3 1_555 1_555
N8_4 C4_8 1_555 1_555
N9_3 N7_4 1_555 1_555
C1_9 N7_4 1_555 1_555
C2_9 C1_9 1_555 1_555
H1_9 C2_9 1_555 1_555
N8_5 N10_5 1_555 1_555
C4_9 C2_9 1_555 1_555
N8_5 C4_9 1_555 1_555
N10_8 N5_9 1_555 1_555
N5_9 C5_9 1_555 1_555
C6_9 C5_9 1_555 1_555
H2_9 C6_9 1_555 1_555
N6_9 N9_6 1_555 1_555
Fe5_2 N5_9 1_555 1_555
Fe3_2 N6_9 1_555 1_555
C6_9 C7_9 1_555 1_555
N6_9 C7_9 1_555 1_555
Cl3_5 Fe6_3 1_555 1_555
Cl4_4 Fe5_3 1_555 1_555
C3_14 Fe6_3 1_555 1_555
O1_14 C3_14 1_555 1_555
C8_14 Fe5_2 1_555 1_555
O2_14 C8_14 1_555 1_555
C3_15 Fe6 1_555 1_555
O1_15 C3_15 1_555 1_555
C8_15 Fe5_3 1_555 1_555
O2_15 C8_15 1_555 1_555
C8_16 Fe5 1_555 1_555
O2_16 C8_16 1_555 1_555
C3_16 Fe3_2 1_555 1_555
O1_16 C3_16 1_555 1_555

#END
