
###############################################################################
#
# This file contains modified crystal structure data generated from the
# MOF subset of the Cambridge Structural Database (CSD) v543 
# hosted by the Cambridge Crystallographic Data Centre (CCDC).
#
# This work is licensed under the Creative Commons
# Attribution-NonCommercial-ShareAlike 4.0 International License.
# To view a copy of this license, visit
# http://creativecommons.org/licenses/by-nc-sa/4.0/
# or send a letter to
# Creative Commons, PO Box 1866, Mountain View, CA 94042, USA.
#
# CIF created using the CSD Python API on 29 September 2022
# The structure has been converted into the P1 space group
# The structure has a 3D framework
# The original CSD entry HAYZAL is in the rhombohedral crystal system
# The framework has been calculated to contain at least 10.0% void space
# The void calculation uses a probe of radius 1.32A, grid spacing 0.4
#
###############################################################################

data_HAYZAL
_chemical_formula_moiety         '(C108 H36 Cl18 Fe16 N58 O18)n'
_symmetry_cell_setting           triclinic
_symmetry_space_group_name_H-M   'P 1'
_symmetry_Int_Tables_number      1
_space_group_name_Hall           'P 1'
loop_
_symmetry_equiv_pos_site_id
_symmetry_equiv_pos_as_xyz
1 x,y,z
_cell_length_a                   39.166(9)
_cell_length_b                   39.166(9)
_cell_length_c                   8.1664(19)
_cell_angle_alpha                90
_cell_angle_beta                 90
_cell_angle_gamma                120
_cell_volume                     10848.8
loop_
_atom_site_label
_atom_site_type_symbol
_atom_site_fract_x
_atom_site_fract_y
_atom_site_fract_z
_atom_site_U_iso_or_equiv
_atom_site_thermal_displace_type
C1 C 0.326(3) 0.256(4) 0.247(7) 0.1080 Uiso
C2 C 0.3181(18) 0.221(3) 0.328(8) 0.1080 Uiso
C3 C 0.326(3) 0.192(5) 0.248(9) 0.1080 Uiso
H1 H 0.306471 0.215269 0.452434 0.1080 Uiso
Fe1 Fe 0.29850(15) 0.2985(3) 0.500000 0.0960 Uiso
Cl1 Cl 0.2707(6) 0.333333 0.333333 0.1270 Uiso
N1 N 0.3215(13) 0.287(2) 0.295(6) 0.1080 Uiso
N2 N 0.333333 0.3116(20) 0.166667 0.1080 Uiso
O1 O 0.3181(16) 0.159(3) 0.326(7) 0.1080 Uiso
C4 C 0.326(3) 0.070(5) 0.247(7) 0.1080 Uiso
C5 C 0.3181(18) 0.0971(35) 0.328(8) 0.1080 Uiso
C6 C 0.326(3) 0.134(6) 0.248(9) 0.1080 Uiso
H2 H 0.306471 0.091202 0.452434 0.1080 Uiso
N3 N 0.3215(13) 0.0345(24) 0.295(6) 0.1080 Uiso
N4 N 0.333333 0.0217(20) 0.166667 0.1080 Uiso
C7 C 0.341(3) 0.263(5) 0.086(7) 0.1080 Uiso
C8 C 0.3486(18) 0.2362(35) 0.005(8) 0.1080 Uiso
C9 C 0.341(3) 0.199(6) 0.085(9) 0.1080 Uiso
N5 N 0.3452(13) 0.2988(24) 0.038(6) 0.1080 Uiso
O2 O 0.3486(16) 0.1742(34) 0.007(7) 0.1080 Uiso
C10 C 0.341(3) 0.077(4) 0.086(7) 0.1080 Uiso
C11 C 0.3486(18) 0.112(3) 0.005(8) 0.1080 Uiso
C12 C 0.341(3) 0.141(5) 0.085(9) 0.1080 Uiso
N6 N 0.3452(13) 0.046(2) 0.038(6) 0.1080 Uiso
Fe2 Fe 0.2985(3) -0.00000(34) 0.500000 0.0960 Uiso
Fe5 Fe 0.33333(34) 0.36817(15) 0.166667 0.0960 Uiso
Cl3 Cl 0.333333 0.06263(60) 0.666667 0.1270 Uiso
Cl4 Cl 0.333333 0.2707(6) 0.666667 0.1270 Uiso
N8 N 0.287(2) 0.3215(13) 0.705(6) 0.1080 Uiso
N9 N 0.3551(20) 0.000000 0.500000 0.1080 Uiso
N10 N 0.3551(20) 0.3551(20) 0.500000 0.1080 Uiso
H3 H 0.360196 0.242131 0.880899 0.1080 Uiso
H4 H 0.360196 0.118064 0.880899 0.1080 Uiso
Fe3 Fe 0.36817(15) 0.33333(34) 0.833333 0.0960 Uiso
Fe4 Fe 0.36817(15) 0.0348(3) 0.833333 0.0960 Uiso
Fe2_2 Fe 0.2985(3) 1.00000(34) 0.500000 0.0960 Uiso
Cl2 Cl 0.2707(6) 0.93737(60) 0.333333 0.1270 Uiso
Fe6 Fe 0.33333(34) 0.9652(3) 0.166667 0.0960 Uiso
N7 N 0.287(2) 0.9655(24) 0.705(6) 0.1080 Uiso
N9_2 N 0.3551(20) 1.000000 0.500000 0.1080 Uiso
Fe1_2 Fe 0.70150(15) -0.00000(34) 0.500000 0.0960 Uiso
Cl1_2 Cl 0.7293(6) 0.06263(60) 0.666667 0.1270 Uiso
Fe5_2 Fe 0.66667(34) 0.03483(37) 0.833333 0.0960 Uiso
N8_2 N 0.713(2) 0.0345(24) 0.295(6) 0.1080 Uiso
N10_2 N 0.6449(20) -0.0000(28) 0.500000 0.1080 Uiso
H3_2 H 0.639804 0.881936 0.119101 0.1080 Uiso
H4_2 H 0.639804 0.757869 0.119101 0.1080 Uiso
Fe3_2 Fe 0.63183(15) 0.96517(37) 0.166667 0.0960 Uiso
Fe4_2 Fe 0.63183(15) 0.66667(34) 0.166667 0.0960 Uiso
C1_2 C 0.674(3) 0.930(5) 0.753(7) 0.1080 Uiso
C2_2 C 0.6819(18) 0.9029(35) 0.672(8) 0.1080 Uiso
C3_2 C 0.674(3) 0.866(6) 0.752(9) 0.1080 Uiso
H1_2 H 0.693529 0.908798 0.547566 0.1080 Uiso
Fe1_3 Fe 0.70150(15) 1.00000(34) 0.500000 0.0960 Uiso
N1_2 N 0.6785(13) 0.9655(24) 0.705(6) 0.1080 Uiso
N2_2 N 0.666667 0.9783(20) 0.833333 0.1080 Uiso
O1_2 O 0.6819(16) 0.8409(34) 0.674(7) 0.1080 Uiso
C4_2 C 0.674(3) 0.744(6) 0.753(7) 0.1080 Uiso
C5_2 C 0.6819(18) 0.7790(39) 0.672(8) 0.1080 Uiso
C6_2 C 0.674(3) 0.808(7) 0.752(9) 0.1080 Uiso
H2_2 H 0.693529 0.784731 0.547566 0.1080 Uiso
N3_2 N 0.6785(13) 0.7130(27) 0.705(6) 0.1080 Uiso
N4_2 N 0.666667 0.6884(20) 0.833333 0.1080 Uiso
C7_2 C 0.659(3) 0.923(6) 0.914(7) 0.1080 Uiso
C8_2 C 0.6514(18) 0.8877(39) 0.995(8) 0.1080 Uiso
C9_2 C 0.659(3) 0.859(7) 0.915(9) 0.1080 Uiso
N5_2 N 0.6548(13) 0.9537(27) 0.962(6) 0.1080 Uiso
O2_2 O 0.6514(16) 0.8257(38) 0.993(7) 0.1080 Uiso
C10_2 C 0.659(3) 0.737(5) 0.914(7) 0.1080 Uiso
C11_2 C 0.6514(18) 0.7638(35) 0.995(8) 0.1080 Uiso
C12_2 C 0.659(3) 0.801(6) 0.915(9) 0.1080 Uiso
N6_2 N 0.6548(13) 0.7012(24) 0.962(6) 0.1080 Uiso
Fe2_3 Fe 0.7015(3) 0.70150(45) 0.500000 0.0960 Uiso
Cl2_2 Cl 0.7293(6) 0.66667(85) 0.666667 0.1270 Uiso
Fe6_2 Fe 0.66667(34) 0.63183(45) 0.833333 0.0960 Uiso
Cl3_2 Cl 0.666667 0.72930(60) 0.333333 0.1270 Uiso
Cl4_2 Cl 0.666667 0.93737(60) 0.333333 0.1270 Uiso
N7_2 N 0.713(2) 0.6785(31) 0.295(6) 0.1080 Uiso
N9_3 N 0.6449(20) 0.6449(20) 0.500000 0.1080 Uiso
N10_3 N 0.6449(20) 1.0000(28) 0.500000 0.1080 Uiso
Fe1_4 Fe -0.00000(34) 0.70150(15) 0.500000 0.0960 Uiso
Cl1_3 Cl 0.06263(60) 0.7293(6) 0.333333 0.1270 Uiso
Fe5_3 Fe 0.03483(37) 0.66667(34) 0.166667 0.0960 Uiso
N8_3 N 0.0345(24) 0.713(2) 0.705(6) 0.1080 Uiso
N10_4 N -0.0000(28) 0.6449(20) 0.500000 0.1080 Uiso
C1_3 C 0.930(5) 0.674(3) 0.247(7) 0.1080 Uiso
C2_3 C 0.9029(35) 0.6819(18) 0.328(8) 0.1080 Uiso
C3_3 C 0.866(6) 0.674(3) 0.248(9) 0.1080 Uiso
H1_3 H 0.908798 0.693529 0.452434 0.1080 Uiso
Fe1_5 Fe 1.00000(34) 0.70150(15) 0.500000 0.0960 Uiso
N1_3 N 0.9655(24) 0.6785(13) 0.295(6) 0.1080 Uiso
N2_3 N 0.9783(20) 0.666667 0.166667 0.1080 Uiso
O1_3 O 0.8409(34) 0.6819(16) 0.326(7) 0.1080 Uiso
C4_3 C 0.744(6) 0.674(3) 0.247(7) 0.1080 Uiso
C5_3 C 0.7790(39) 0.6819(18) 0.328(8) 0.1080 Uiso
C6_3 C 0.808(7) 0.674(3) 0.248(9) 0.1080 Uiso
H2_3 H 0.784731 0.693529 0.452434 0.1080 Uiso
N4_3 N 0.6884(20) 0.666667 0.166667 0.1080 Uiso
C7_3 C 0.923(6) 0.659(3) 0.086(7) 0.1080 Uiso
C8_3 C 0.8877(39) 0.6514(18) 0.005(8) 0.1080 Uiso
C9_3 C 0.859(7) 0.659(3) 0.085(9) 0.1080 Uiso
N5_3 N 0.9537(27) 0.6548(13) 0.038(6) 0.1080 Uiso
O2_3 O 0.8257(38) 0.6514(16) 0.007(7) 0.1080 Uiso
C10_3 C 0.737(5) 0.659(3) 0.086(7) 0.1080 Uiso
C11_3 C 0.7638(35) 0.6514(18) 0.005(8) 0.1080 Uiso
C12_3 C 0.801(6) 0.659(3) 0.085(9) 0.1080 Uiso
N6_3 N 0.7012(24) 0.6548(13) 0.038(6) 0.1080 Uiso
Cl4_3 Cl 0.93737(60) 0.666667 0.666667 0.1270 Uiso
N10_5 N 1.0000(28) 0.6449(20) 0.500000 0.1080 Uiso
H3_3 H 0.881936 0.639804 0.880899 0.1080 Uiso
H4_3 H 0.757869 0.639804 0.880899 0.1080 Uiso
Fe3_3 Fe 0.96517(37) 0.63183(15) 0.833333 0.0960 Uiso
Fe2_4 Fe -0.00000(34) 0.29850(45) 0.500000 0.0960 Uiso
Cl2_3 Cl 0.06263(60) 0.33333(85) 0.333333 0.1270 Uiso
Fe6_3 Fe 0.0348(3) 0.36817(45) 0.166667 0.0960 Uiso
N7_3 N 0.0345(24) 0.3215(31) 0.705(6) 0.1080 Uiso
N9_4 N -0.000000 0.3551(20) 0.500000 0.1080 Uiso
C1_4 C 0.744(4) 0.070(5) 0.247(7) 0.1080 Uiso
C2_4 C 0.779(3) 0.0971(35) 0.328(8) 0.1080 Uiso
C3_4 C 0.808(5) 0.134(6) 0.248(9) 0.1080 Uiso
H1_4 H 0.784731 0.091202 0.452434 0.1080 Uiso
N2_4 N 0.6884(20) 0.0217(20) 0.166667 0.1080 Uiso
O1_4 O 0.841(3) 0.1591(34) 0.326(7) 0.1080 Uiso
C4_4 C 0.930(5) 0.256(6) 0.247(7) 0.1080 Uiso
C5_4 C 0.9029(35) 0.2210(39) 0.328(8) 0.1080 Uiso
C6_4 C 0.866(6) 0.192(7) 0.248(9) 0.1080 Uiso
H2_4 H 0.908798 0.215269 0.452434 0.1080 Uiso
N3_3 N 0.9655(24) 0.2870(27) 0.295(6) 0.1080 Uiso
N4_4 N 0.9783(20) 0.3116(20) 0.166667 0.1080 Uiso
C7_4 C 0.737(5) 0.077(6) 0.086(7) 0.1080 Uiso
C8_4 C 0.7638(35) 0.1123(39) 0.005(8) 0.1080 Uiso
C9_4 C 0.801(6) 0.141(7) 0.085(9) 0.1080 Uiso
N5_4 N 0.7012(24) 0.0463(27) 0.038(6) 0.1080 Uiso
O2_4 O 0.8258(34) 0.1743(38) 0.007(7) 0.1080 Uiso
C10_4 C 0.923(4) 0.263(5) 0.086(7) 0.1080 Uiso
C11_4 C 0.888(3) 0.2362(35) 0.005(8) 0.1080 Uiso
C12_4 C 0.859(5) 0.199(6) 0.085(9) 0.1080 Uiso
N6_4 N 0.954(2) 0.2988(24) 0.038(6) 0.1080 Uiso
Fe2_5 Fe 1.00000(34) 0.29850(45) 0.500000 0.0960 Uiso
Cl3_3 Cl 0.93737(60) 0.27070(60) 0.666667 0.1270 Uiso
N9_5 N 1.000000 0.3551(20) 0.500000 0.1080 Uiso
H3_4 H 0.757869 0.118064 0.880899 0.1080 Uiso
H4_4 H 0.881936 0.242131 0.880899 0.1080 Uiso
Fe4_3 Fe 0.9652(3) 0.33333(34) 0.833333 0.0960 Uiso
H3_5 H 0.242131 0.360196 0.119101 0.1080 Uiso
H4_5 H 0.118064 0.360196 0.119101 0.1080 Uiso
C1_5 C 0.256(4) 0.326(3) 0.753(7) 0.1080 Uiso
C2_5 C 0.221(3) 0.3181(18) 0.672(8) 0.1080 Uiso
C3_5 C 0.192(5) 0.326(3) 0.752(9) 0.1080 Uiso
H1_5 H 0.215269 0.306471 0.547566 0.1080 Uiso
N2_5 N 0.3116(20) 0.333333 0.833333 0.1080 Uiso
O1_5 O 0.159(3) 0.3181(16) 0.674(7) 0.1080 Uiso
C4_5 C 0.070(5) 0.326(3) 0.753(7) 0.1080 Uiso
C5_5 C 0.0971(35) 0.3181(18) 0.672(8) 0.1080 Uiso
C6_5 C 0.134(6) 0.326(3) 0.752(9) 0.1080 Uiso
H2_5 H 0.091202 0.306471 0.547566 0.1080 Uiso
N4_5 N 0.0217(20) 0.333333 0.833333 0.1080 Uiso
C7_5 C 0.263(5) 0.341(3) 0.914(7) 0.1080 Uiso
C8_5 C 0.2362(35) 0.3486(18) 0.995(8) 0.1080 Uiso
C9_5 C 0.199(6) 0.341(3) 0.915(9) 0.1080 Uiso
N5_5 N 0.2988(24) 0.3452(13) 0.962(6) 0.1080 Uiso
O2_5 O 0.1742(34) 0.3486(16) 0.993(7) 0.1080 Uiso
C10_5 C 0.077(4) 0.341(3) 0.914(7) 0.1080 Uiso
C11_5 C 0.112(3) 0.3486(18) 0.995(8) 0.1080 Uiso
C12_5 C 0.141(5) 0.341(3) 0.915(9) 0.1080 Uiso
N6_5 N 0.046(2) 0.3452(13) 0.962(6) 0.1080 Uiso
H3_6 H 0.118064 0.757869 0.119101 0.1080 Uiso
H4_6 H 0.242131 0.881936 0.119101 0.1080 Uiso
C1_6 C 0.070(5) 0.744(4) 0.753(7) 0.1080 Uiso
C2_6 C 0.0971(35) 0.779(3) 0.672(8) 0.1080 Uiso
C3_6 C 0.134(6) 0.808(5) 0.752(9) 0.1080 Uiso
H1_6 H 0.091202 0.784731 0.547566 0.1080 Uiso
N2_6 N 0.0217(20) 0.6884(20) 0.833333 0.1080 Uiso
O1_6 O 0.1591(34) 0.841(3) 0.674(7) 0.1080 Uiso
C4_6 C 0.256(6) 0.930(5) 0.753(7) 0.1080 Uiso
C5_6 C 0.2210(39) 0.9029(35) 0.672(8) 0.1080 Uiso
C6_6 C 0.192(7) 0.866(6) 0.752(9) 0.1080 Uiso
H2_6 H 0.215269 0.908798 0.547566 0.1080 Uiso
N4_6 N 0.3116(20) 0.9783(20) 0.833333 0.1080 Uiso
C7_6 C 0.077(6) 0.737(5) 0.914(7) 0.1080 Uiso
C8_6 C 0.1123(39) 0.7638(35) 0.995(8) 0.1080 Uiso
C9_6 C 0.141(7) 0.801(6) 0.915(9) 0.1080 Uiso
N5_6 N 0.0463(27) 0.7012(24) 0.962(6) 0.1080 Uiso
O2_6 O 0.1743(38) 0.8258(34) 0.993(7) 0.1080 Uiso
C10_6 C 0.263(5) 0.923(4) 0.914(7) 0.1080 Uiso
C11_6 C 0.2362(35) 0.888(3) 0.995(8) 0.1080 Uiso
C12_6 C 0.199(6) 0.859(5) 0.915(9) 0.1080 Uiso
N6_6 N 0.2988(24) 0.954(2) 0.962(6) 0.1080 Uiso
Cl1_4 Cl 0.3960(6) 0.39597(60) 0.000000 0.1270 Uiso
Cl2_4 Cl 0.3960(6) 0.00000(85) 0.000000 0.1270 Uiso
Cl1_5 Cl 0.3960(6) 0.39597(60) 1.000000 0.1270 Uiso
Cl2_5 Cl 0.3960(6) 0.00000(85) 1.000000 0.1270 Uiso
N7_4 N 0.380(2) 0.0118(31) 0.628(6) 0.1080 Uiso
N8_4 N 0.380(2) 0.3678(24) 0.628(6) 0.1080 Uiso
Cl2_6 Cl 0.3960(6) 1.00000(85) 0.000000 0.1270 Uiso
Cl2_7 Cl 0.3960(6) 1.00000(85) 1.000000 0.1270 Uiso
Cl4_4 Cl 0.60403(60) 0.000000 0.000000 0.1270 Uiso
C1_7 C 0.597(5) 0.007(3) 0.580(7) 0.1080 Uiso
C2_7 C 0.5696(35) 0.0152(18) 0.661(8) 0.1080 Uiso
C3_7 C 0.533(6) 0.007(3) 0.581(9) 0.1080 Uiso
H1_7 H 0.575465 0.026862 0.785767 0.1080 Uiso
N1_4 N 0.6322(24) 0.0118(13) 0.628(6) 0.1080 Uiso
O1_7 O 0.5076(34) 0.0152(16) 0.659(7) 0.1080 Uiso
C4_7 C 0.411(6) 0.007(3) 0.580(7) 0.1080 Uiso
C5_7 C 0.4457(39) 0.0152(18) 0.661(8) 0.1080 Uiso
C6_7 C 0.475(7) 0.007(3) 0.581(9) 0.1080 Uiso
H2_7 H 0.451398 0.026862 0.785767 0.1080 Uiso
Cl4_5 Cl 0.60403(60) 0.000000 1.000000 0.1270 Uiso
Cl4_6 Cl 0.60403(60) 1.000000 0.000000 0.1270 Uiso
C7_7 C 0.589(6) 0.993(3) 0.420(7) 0.1080 Uiso
C8_7 C 0.5543(39) 0.9848(18) 0.339(8) 0.1080 Uiso
C9_7 C 0.525(7) 0.993(3) 0.419(9) 0.1080 Uiso
H3_7 H 0.548602 0.973138 0.214233 0.1080 Uiso
N5_7 N 0.6203(27) 0.9882(13) 0.372(6) 0.1080 Uiso
O2_7 O 0.4923(38) 0.9848(16) 0.341(7) 0.1080 Uiso
C10_7 C 0.403(5) 0.993(3) 0.420(7) 0.1080 Uiso
C11_7 C 0.4304(35) 0.9848(18) 0.339(8) 0.1080 Uiso
C12_7 C 0.467(6) 0.993(3) 0.419(9) 0.1080 Uiso
H4_7 H 0.424535 0.973138 0.214233 0.1080 Uiso
N6_7 N 0.3678(24) 0.9882(13) 0.372(6) 0.1080 Uiso
Cl4_7 Cl 0.60403(60) 1.000000 1.000000 0.1270 Uiso
Cl3_4 Cl 0.60403(60) 0.60403(60) 0.000000 0.1270 Uiso
C1_8 C 0.411(4) 0.403(5) 0.580(7) 0.1080 Uiso
C2_8 C 0.446(3) 0.4304(35) 0.661(8) 0.1080 Uiso
C3_8 C 0.475(5) 0.467(6) 0.581(9) 0.1080 Uiso
H1_8 H 0.451398 0.424535 0.785767 0.1080 Uiso
O1_8 O 0.508(3) 0.4924(34) 0.659(7) 0.1080 Uiso
C4_8 C 0.597(5) 0.589(6) 0.580(7) 0.1080 Uiso
C5_8 C 0.5696(35) 0.5543(39) 0.661(8) 0.1080 Uiso
C6_8 C 0.533(6) 0.525(7) 0.581(9) 0.1080 Uiso
H2_8 H 0.575465 0.548602 0.785767 0.1080 Uiso
N3_4 N 0.6322(24) 0.6203(27) 0.628(6) 0.1080 Uiso
C7_8 C 0.403(5) 0.411(6) 0.420(7) 0.1080 Uiso
C8_8 C 0.4304(35) 0.4457(39) 0.339(8) 0.1080 Uiso
C9_8 C 0.467(6) 0.475(7) 0.419(9) 0.1080 Uiso
H3_8 H 0.424535 0.451398 0.214233 0.1080 Uiso
N5_8 N 0.3678(24) 0.3797(27) 0.372(6) 0.1080 Uiso
O2_8 O 0.4924(34) 0.5077(38) 0.341(7) 0.1080 Uiso
C10_8 C 0.589(4) 0.597(5) 0.420(7) 0.1080 Uiso
C11_8 C 0.554(3) 0.5696(35) 0.339(8) 0.1080 Uiso
C12_8 C 0.525(5) 0.533(6) 0.419(9) 0.1080 Uiso
H4_8 H 0.548602 0.575465 0.214233 0.1080 Uiso
N6_8 N 0.620(2) 0.6322(24) 0.372(6) 0.1080 Uiso
Cl3_5 Cl 0.60403(60) 0.60403(60) 1.000000 0.1270 Uiso
Cl1_6 Cl -0.000000 0.6040(6) 0.000000 0.1270 Uiso
Cl1_7 Cl -0.000000 0.6040(6) 1.000000 0.1270 Uiso
Cl1_8 Cl 1.000000 0.6040(6) 0.000000 0.1270 Uiso
Cl1_9 Cl 1.000000 0.6040(6) 1.000000 0.1270 Uiso
N8_5 N 0.9882(13) 0.620(2) 0.628(6) 0.1080 Uiso
Cl2_8 Cl -0.00000(85) 0.39597(60) 0.000000 0.1270 Uiso
Cl2_9 Cl -0.00000(85) 0.39597(60) 1.000000 0.1270 Uiso
Cl2_10 Cl 1.00000(85) 0.39597(60) 0.000000 0.1270 Uiso
Cl2_11 Cl 1.00000(85) 0.39597(60) 1.000000 0.1270 Uiso
N7_5 N 0.9882(31) 0.3678(24) 0.628(6) 0.1080 Uiso
C7_9 C 0.007(3) 0.597(5) 0.420(7) 0.1080 Uiso
C8_9 C 0.0152(18) 0.5696(35) 0.339(8) 0.1080 Uiso
C9_9 C 0.007(3) 0.533(6) 0.419(9) 0.1080 Uiso
H3_9 H 0.026862 0.575465 0.214233 0.1080 Uiso
N5_9 N 0.0118(13) 0.6322(24) 0.372(6) 0.1080 Uiso
O2_9 O 0.0152(16) 0.5076(34) 0.341(7) 0.1080 Uiso
C10_9 C 0.007(3) 0.411(4) 0.420(7) 0.1080 Uiso
C11_9 C 0.0152(18) 0.446(3) 0.339(8) 0.1080 Uiso
C12_9 C 0.007(3) 0.475(5) 0.419(9) 0.1080 Uiso
H4_9 H 0.026862 0.451398 0.214233 0.1080 Uiso
N6_9 N 0.0118(13) 0.380(2) 0.372(6) 0.1080 Uiso
C1_9 C 0.993(3) 0.589(4) 0.580(7) 0.1080 Uiso
C2_9 C 0.9848(18) 0.554(3) 0.661(8) 0.1080 Uiso
C3_9 C 0.993(3) 0.525(5) 0.581(9) 0.1080 Uiso
H1_9 H 0.973138 0.548602 0.785767 0.1080 Uiso
O1_9 O 0.9848(16) 0.492(3) 0.659(7) 0.1080 Uiso
C4_9 C 0.993(3) 0.403(5) 0.580(7) 0.1080 Uiso
C5_9 C 0.9848(18) 0.4304(35) 0.661(8) 0.1080 Uiso
C6_9 C 0.993(3) 0.467(6) 0.581(9) 0.1080 Uiso
H2_9 H 0.973138 0.424535 0.785767 0.1080 Uiso
loop_
_geom_bond_atom_site_label_1
_geom_bond_atom_site_label_2
_geom_bond_site_symmetry_1
_geom_bond_site_symmetry_2
C1 C2 1_555 1_555
C2 C3 1_555 1_555
C3 O1 1_555 1_555
H1 C2 1_555 1_555
Fe1 Cl1 1_555 1_555
Cl1 Fe5 1_555 1_555
N1 C1 1_555 1_555
N2 N1 1_555 1_555
O1 C6 1_555 1_555
C4 C5 1_555 1_555
C5 C6 1_555 1_555
C6 C12 1_555 1_555
H2 C5 1_555 1_555
N3 C4 1_555 1_555
N4 N3 1_555 1_555
C7 C1 1_555 1_555
C8 C7 1_555 1_555
C9 C3 1_555 1_555
N5 N2 1_555 1_555
O2 C9 1_555 1_555
C10 C4 1_555 1_555
C11 C10 1_555 1_555
C12 O2 1_555 1_555
N6 N4 1_555 1_555
Fe2 N3 1_555 1_555
Fe5 N2 1_555 1_555
Cl3 Fe2 1_555 1_555
Cl4 Fe1 1_555 1_555
N8 Fe1 1_555 1_555
N9 Fe2 1_555 1_555
N10 Fe1 1_555 1_555
Fe1 N1 1_555 1_555
C7 N5 1_555 1_555
C8 C9 1_555 1_555
C10 N6 1_555 1_555
C11 C12 1_555 1_555
Cl2 Fe2_2 1_555 1_555
N7 Fe2_2 1_555 1_555
N9_2 Fe2_2 1_555 1_555
Cl2 Fe6 1_555 1_555
Fe1_2 Cl1_2 1_555 1_555
Cl1_2 Fe5_2 1_555 1_555
N8_2 Fe1_2 1_555 1_555
N10_2 Fe1_2 1_555 1_555
C1_2 C2_2 1_555 1_555
C2_2 C3_2 1_555 1_555
C3_2 O1_2 1_555 1_555
H1_2 C2_2 1_555 1_555
N1_2 C1_2 1_555 1_555
N2_2 N1_2 1_555 1_555
O1_2 C6_2 1_555 1_555
C4_2 C5_2 1_555 1_555
C5_2 C6_2 1_555 1_555
C6_2 C12_2 1_555 1_555
H2_2 C5_2 1_555 1_555
N3_2 C4_2 1_555 1_555
N4_2 N3_2 1_555 1_555
C7_2 C1_2 1_555 1_555
C8_2 C7_2 1_555 1_555
C9_2 C3_2 1_555 1_555
N5_2 N2_2 1_555 1_555
O2_2 C9_2 1_555 1_555
C10_2 C4_2 1_555 1_555
C11_2 C10_2 1_555 1_555
C12_2 O2_2 1_555 1_555
N6_2 N4_2 1_555 1_555
Fe2_3 N3_2 1_555 1_555
Cl2_2 Fe2_3 1_555 1_555
Fe6_2 N4_2 1_555 1_555
Cl3_2 Fe2_3 1_555 1_555
Cl4_2 Fe1_3 1_555 1_555
N7_2 Fe2_3 1_555 1_555
N9_3 Fe2_3 1_555 1_555
N10_3 Fe1_3 1_555 1_555
Fe1_3 N1_2 1_555 1_555
C7_2 N5_2 1_555 1_555
C8_2 C9_2 1_555 1_555
C10_2 N6_2 1_555 1_555
C11_2 C12_2 1_555 1_555
Cl2_2 Fe6_2 1_555 1_555
Fe1_4 Cl1_3 1_555 1_555
Cl1_3 Fe5_3 1_555 1_555
N8_3 Fe1_4 1_555 1_555
N10_4 Fe1_4 1_555 1_555
C1_3 C2_3 1_555 1_555
C2_3 C3_3 1_555 1_555
C3_3 O1_3 1_555 1_555
H1_3 C2_3 1_555 1_555
N1_3 C1_3 1_555 1_555
N2_3 N1_3 1_555 1_555
O1_3 C6_3 1_555 1_555
C4_3 C5_3 1_555 1_555
C5_3 C6_3 1_555 1_555
C6_3 C12_3 1_555 1_555
H2_3 C5_3 1_555 1_555
N7_2 C4_3 1_555 1_555
N4_3 N7_2 1_555 1_555
C7_3 C1_3 1_555 1_555
C8_3 C7_3 1_555 1_555
C9_3 C3_3 1_555 1_555
N5_3 N2_3 1_555 1_555
O2_3 C9_3 1_555 1_555
C10_3 C4_3 1_555 1_555
C11_3 C10_3 1_555 1_555
C12_3 O2_3 1_555 1_555
N6_3 N4_3 1_555 1_555
Fe4_2 N4_3 1_555 1_555
Cl4_3 Fe1_5 1_555 1_555
N10_5 Fe1_5 1_555 1_555
Fe1_5 N1_3 1_555 1_555
C7_3 N5_3 1_555 1_555
C8_3 C9_3 1_555 1_555
C10_3 N6_3 1_555 1_555
C11_3 C12_3 1_555 1_555
Cl3_2 Fe4_2 1_555 1_555
Cl2_3 Fe2_4 1_555 1_555
N7_3 Fe2_4 1_555 1_555
N9_4 Fe2_4 1_555 1_555
Cl2_3 Fe6_3 1_555 1_555
C1_4 C2_4 1_555 1_555
C2_4 C3_4 1_555 1_555
C3_4 O1_4 1_555 1_555
H1_4 C2_4 1_555 1_555
N8_2 C1_4 1_555 1_555
N2_4 N8_2 1_555 1_555
O1_4 C6_4 1_555 1_555
C4_4 C5_4 1_555 1_555
C5_4 C6_4 1_555 1_555
C6_4 C12_4 1_555 1_555
H2_4 C5_4 1_555 1_555
N3_3 C4_4 1_555 1_555
N4_4 N3_3 1_555 1_555
C7_4 C1_4 1_555 1_555
C8_4 C7_4 1_555 1_555
C9_4 C3_4 1_555 1_555
N5_4 N2_4 1_555 1_555
O2_4 C9_4 1_555 1_555
C10_4 C4_4 1_555 1_555
C11_4 C10_4 1_555 1_555
C12_4 O2_4 1_555 1_555
N6_4 N4_4 1_555 1_555
Fe2_5 N3_3 1_555 1_555
Cl3_3 Fe2_5 1_555 1_555
N9_5 Fe2_5 1_555 1_555
C7_4 N5_4 1_555 1_555
C8_4 C9_4 1_555 1_555
C10_4 N6_4 1_555 1_555
C11_4 C12_4 1_555 1_555
Cl4_2 Fe3_2 1_555 1_555
C1_5 C2_5 1_555 1_555
C2_5 C3_5 1_555 1_555
C3_5 O1_5 1_555 1_555
H1_5 C2_5 1_555 1_555
Cl4 Fe3 1_555 1_555
N8 C1_5 1_555 1_555
N2_5 N8 1_555 1_555
O1_5 C6_5 1_555 1_555
C4_5 C5_5 1_555 1_555
C5_5 C6_5 1_555 1_555
C6_5 C12_5 1_555 1_555
H2_5 C5_5 1_555 1_555
N7_3 C4_5 1_555 1_555
N4_5 N7_3 1_555 1_555
C7_5 C1_5 1_555 1_555
C8_5 C7_5 1_555 1_555
C9_5 C3_5 1_555 1_555
N5_5 N2_5 1_555 1_555
O2_5 C9_5 1_555 1_555
C10_5 C4_5 1_555 1_555
C11_5 C10_5 1_555 1_555
C12_5 O2_5 1_555 1_555
N6_5 N4_5 1_555 1_555
Fe3 N2_5 1_555 1_555
C7_5 N5_5 1_555 1_555
C8_5 C9_5 1_555 1_555
C10_5 N6_5 1_555 1_555
C11_5 C12_5 1_555 1_555
Cl3_3 Fe4_3 1_555 1_555
Cl3 Fe4 1_555 1_555
C1_6 C2_6 1_555 1_555
C2_6 C3_6 1_555 1_555
C3_6 O1_6 1_555 1_555
H1_6 C2_6 1_555 1_555
N8_3 C1_6 1_555 1_555
N2_6 N8_3 1_555 1_555
O1_6 C6_6 1_555 1_555
C4_6 C5_6 1_555 1_555
C5_6 C6_6 1_555 1_555
C6_6 C12_6 1_555 1_555
H2_6 C5_6 1_555 1_555
N7 C4_6 1_555 1_555
N4_6 N7 1_555 1_555
C7_6 C1_6 1_555 1_555
C8_6 C7_6 1_555 1_555
C9_6 C3_6 1_555 1_555
N5_6 N2_6 1_555 1_555
O2_6 C9_6 1_555 1_555
C10_6 C4_6 1_555 1_555
C11_6 C10_6 1_555 1_555
C12_6 O2_6 1_555 1_555
N6_6 N4_6 1_555 1_555
C7_6 N5_6 1_555 1_555
C8_6 C9_6 1_555 1_555
C10_6 N6_6 1_555 1_555
C11_6 C12_6 1_555 1_555
Cl4_3 Fe3_3 1_555 1_555
Cl1_4 Fe5 1_555 1_555
Fe3 Cl1_5 1_555 1_555
Cl2_5 Fe4 1_555 1_555
N7_4 Fe4 1_555 1_555
N8_4 Fe3 1_555 1_555
Cl2_6 Fe6 1_555 1_555
C1_7 C2_7 1_555 1_555
C2_7 C3_7 1_555 1_555
C3_7 O1_7 1_555 1_555
H1_7 C2_7 1_555 1_555
N1_4 C1_7 1_555 1_555
N10_2 N1_4 1_555 1_555
O1_7 C6_7 1_555 1_555
C4_7 C5_7 1_555 1_555
C5_7 C6_7 1_555 1_555
H2_7 C5_7 1_555 1_555
N7_4 C4_7 1_555 1_555
N9 N7_4 1_555 1_555
Cl4_5 Fe5_2 1_555 1_555
Fe5_2 N1_4 1_555 1_555
C8_7 C7_7 1_555 1_555
H3_7 C8_7 1_555 1_555
N5_7 N10_3 1_555 1_555
O2_7 C9_7 1_555 1_555
C11_7 C10_7 1_555 1_555
C12_7 O2_7 1_555 1_555
H4_7 C11_7 1_555 1_555
N6_7 N9_2 1_555 1_555
Fe3_2 N5_7 1_555 1_555
Fe6 N6_7 1_555 1_555
C7_7 N5_7 1_555 1_555
C8_7 C9_7 1_555 1_555
C10_7 N6_7 1_555 1_555
C11_7 C12_7 1_555 1_555
C1_8 C2_8 1_555 1_555
C2_8 C3_8 1_555 1_555
C3_8 O1_8 1_555 1_555
H1_8 C2_8 1_555 1_555
N8_4 C1_8 1_555 1_555
N10 N8_4 1_555 1_555
O1_8 C6_8 1_555 1_555
C4_8 C5_8 1_555 1_555
C5_8 C6_8 1_555 1_555
C6_8 C12_8 1_555 1_555
H2_8 C5_8 1_555 1_555
N3_4 C4_8 1_555 1_555
N9_3 N3_4 1_555 1_555
C7_8 C1_8 1_555 1_555
C8_8 C7_8 1_555 1_555
C9_8 C3_8 1_555 1_555
H3_8 C8_8 1_555 1_555
N5_8 N10 1_555 1_555
O2_8 C9_8 1_555 1_555
C10_8 C4_8 1_555 1_555
C11_8 C10_8 1_555 1_555
C12_8 O2_8 1_555 1_555
H4_8 C11_8 1_555 1_555
N6_8 N9_3 1_555 1_555
Fe6_2 N3_4 1_555 1_555
Fe5 N5_8 1_555 1_555
Fe4_2 N6_8 1_555 1_555
Cl3_5 Fe6_2 1_555 1_555
C7_8 N5_8 1_555 1_555
C8_8 C9_8 1_555 1_555
C10_8 N6_8 1_555 1_555
C11_8 C12_8 1_555 1_555
Cl1_6 Fe5_3 1_555 1_555
Cl3_4 Fe4_2 1_555 1_555
Fe3_3 Cl1_9 1_555 1_555
N8_5 Fe3_3 1_555 1_555
Cl2_8 Fe6_3 1_555 1_555
Cl2_11 Fe4_3 1_555 1_555
N7_5 Fe4_3 1_555 1_555
Cl4_6 Fe3_2 1_555 1_555
C8_9 C7_9 1_555 1_555
H3_9 C8_9 1_555 1_555
N5_9 N10_4 1_555 1_555
O2_9 C9_9 1_555 1_555
C11_9 C10_9 1_555 1_555
C12_9 O2_9 1_555 1_555
H4_9 C11_9 1_555 1_555
N6_9 N9_4 1_555 1_555
Fe5_3 N5_9 1_555 1_555
Fe6_3 N6_9 1_555 1_555
C7_9 N5_9 1_555 1_555
C8_9 C9_9 1_555 1_555
C10_9 N6_9 1_555 1_555
C11_9 C12_9 1_555 1_555
C1_9 C2_9 1_555 1_555
C2_9 C3_9 1_555 1_555
C3_9 O1_9 1_555 1_555
H1_9 C2_9 1_555 1_555
N8_5 C1_9 1_555 1_555
N10_5 N8_5 1_555 1_555
O1_9 C6_9 1_555 1_555
C4_9 C5_9 1_555 1_555
C5_9 C6_9 1_555 1_555
H2_9 C5_9 1_555 1_555
N7_5 C4_9 1_555 1_555
N9_5 N7_5 1_555 1_555

#END
