
###############################################################################
#
# This file contains modified crystal structure data generated from the
# MOF subset of the Cambridge Structural Database (CSD) v543 
# hosted by the Cambridge Crystallographic Data Centre (CCDC).
#
# This work is licensed under the Creative Commons
# Attribution-NonCommercial-ShareAlike 4.0 International License.
# To view a copy of this license, visit
# http://creativecommons.org/licenses/by-nc-sa/4.0/
# or send a letter to
# Creative Commons, PO Box 1866, Mountain View, CA 94042, USA.
#
# CIF created using the CSD Python API on 29 September 2022
# The structure has been converted into the P1 space group
# The structure has a 3D framework
# The original CSD entry HAYZEP is in the rhombohedral crystal system
# The framework has been calculated to contain at least 10.0% void space
# The void calculation uses a probe of radius 1.32A, grid spacing 0.4
#
###############################################################################

data_HAYZEP
_chemical_formula_moiety         '(C130 H36 Cl18 Fe22 N58 O40)n'
_symmetry_cell_setting           triclinic
_symmetry_space_group_name_H-M   'P 1'
_symmetry_Int_Tables_number      1
_space_group_name_Hall           'P 1'
loop_
_symmetry_equiv_pos_site_id
_symmetry_equiv_pos_as_xyz
1 x,y,z
_cell_length_a                   38.082(5)
_cell_length_b                   38.082(5)
_cell_length_c                   7.9951(9)
_cell_angle_alpha                90
_cell_angle_beta                 90
_cell_angle_gamma                120
_cell_volume                     10041.4
loop_
_atom_site_label
_atom_site_type_symbol
_atom_site_fract_x
_atom_site_fract_y
_atom_site_fract_z
_atom_site_U_iso_or_equiv
_atom_site_thermal_displace_type
C1 C 0.3250(16) 0.2554(11) 0.246(4) 0.0750 Uiso
C2 C 0.3161(12) 0.2200(9) 0.331(6) 0.0750 Uiso
C3 C 0.3247(15) 0.1922(10) 0.249(4) 0.0750 Uiso
C4 C 0.2511(14) 0.2511(14) 0.500000 0.0300 Uiso
H1 H 0.303014 0.213951 0.455639 0.0750 Uiso
Fe1 Fe 0.2993(3) 0.2993(3) 0.500000 0.0820 Uiso
Cl1 Cl 0.2726(4) 0.333333 0.333333 0.0870 Uiso
N1 N 0.3200(9) 0.2866(7) 0.293(4) 0.0750 Uiso
N2 N 0.333333 0.3120(15) 0.166667 0.0750 Uiso
O1 O 0.3164(9) 0.1582(10) 0.329(5) 0.0750 Uiso
O2 O 0.2204(4) 0.2204(4) 0.500000 0.1300 Uiso
C5 C 0.3250(16) 0.0696(19) 0.246(4) 0.0750 Uiso
C6 C 0.3161(12) 0.0961(15) 0.331(6) 0.0750 Uiso
C7 C 0.3247(15) 0.1325(18) 0.249(4) 0.0750 Uiso
H2 H 0.303014 0.089063 0.455639 0.0750 Uiso
N3 N 0.3200(9) 0.0334(11) 0.293(4) 0.0750 Uiso
N4 N 0.333333 0.0213(15) 0.166667 0.0750 Uiso
C8 C 0.3417(16) 0.2637(19) 0.087(4) 0.0750 Uiso
C9 C 0.3506(12) 0.2372(15) 0.002(6) 0.0750 Uiso
C10 C 0.3420(15) 0.2008(18) 0.084(4) 0.0750 Uiso
N5 N 0.3467(9) 0.2999(11) 0.040(4) 0.0750 Uiso
O3 O 0.3503(9) 0.1751(13) 0.004(5) 0.0750 Uiso
C11 C 0.3417(16) 0.0779(11) 0.087(4) 0.0750 Uiso
C12 C 0.3506(12) 0.1133(9) 0.002(6) 0.0750 Uiso
C13 C 0.3420(15) 0.1411(10) 0.084(4) 0.0750 Uiso
N6 N 0.3467(9) 0.0467(7) 0.040(4) 0.0750 Uiso
C14 C 0.2511(14) 0.0000(20) 0.500000 0.0300 Uiso
Fe2 Fe 0.2993(3) 0.0000(4) 0.500000 0.0820 Uiso
O4 O 0.2204(4) 0.0000(6) 0.500000 0.1300 Uiso
Fe5 Fe 0.3333(4) 0.3674(3) 0.166667 0.0820 Uiso
Cl3 Cl 0.333333 0.06073(40) 0.666667 0.0870 Uiso
Cl4 Cl 0.333333 0.2726(4) 0.666667 0.0870 Uiso
N8 N 0.2866(7) 0.3200(9) 0.707(4) 0.0750 Uiso
N9 N 0.3547(15) 0.000000 0.500000 0.0750 Uiso
N10 N 0.3547(15) 0.3547(15) 0.500000 0.0750 Uiso
H3 H 0.363653 0.244270 0.877694 0.0750 Uiso
H4 H 0.363653 0.119382 0.877694 0.0750 Uiso
Fe3 Fe 0.3674(3) 0.3333(4) 0.833333 0.0820 Uiso
Fe4 Fe 0.3674(3) 0.0340(3) 0.833333 0.0820 Uiso
C14_2 C 0.2511(14) 1.0000(20) 0.500000 0.0300 Uiso
Fe2_2 Fe 0.2993(3) 1.0000(4) 0.500000 0.0820 Uiso
O4_2 O 0.2204(4) 1.0000(6) 0.500000 0.1300 Uiso
Cl2 Cl 0.2726(4) 0.93927(40) 0.333333 0.0870 Uiso
Fe6 Fe 0.3333(4) 0.9660(3) 0.166667 0.0820 Uiso
N7 N 0.2866(7) 0.9666(11) 0.707(4) 0.0750 Uiso
N9_2 N 0.3547(15) 1.000000 0.500000 0.0750 Uiso
C4_2 C 0.7489(14) 0.0000(20) 0.500000 0.0300 Uiso
Fe1_2 Fe 0.7007(3) 0.0000(4) 0.500000 0.0820 Uiso
Cl1_2 Cl 0.7274(4) 0.06073(40) 0.666667 0.0870 Uiso
O2_2 O 0.7796(4) 0.0000(6) 0.500000 0.1300 Uiso
Fe5_2 Fe 0.6667(4) 0.0340(5) 0.833333 0.0820 Uiso
N8_2 N 0.7134(7) 0.0334(11) 0.293(4) 0.0750 Uiso
N10_2 N 0.6453(15) -0.0000(21) 0.500000 0.0750 Uiso
H3_2 H 0.636347 0.880618 0.122306 0.0750 Uiso
H4_2 H 0.636347 0.755730 0.122306 0.0750 Uiso
Fe3_2 Fe 0.6326(3) 0.9660(5) 0.166667 0.0820 Uiso
Fe4_2 Fe 0.6326(3) 0.6667(4) 0.166667 0.0820 Uiso
C1_2 C 0.6750(16) 0.9304(19) 0.754(4) 0.0750 Uiso
C2_2 C 0.6839(12) 0.9039(15) 0.669(6) 0.0750 Uiso
C3_2 C 0.6753(15) 0.8675(18) 0.751(4) 0.0750 Uiso
C4_3 C 0.7489(14) 1.0000(20) 0.500000 0.0300 Uiso
H1_2 H 0.696986 0.910937 0.544361 0.0750 Uiso
Fe1_3 Fe 0.7007(3) 1.0000(4) 0.500000 0.0820 Uiso
N1_2 N 0.6800(9) 0.9666(11) 0.707(4) 0.0750 Uiso
N2_2 N 0.666667 0.9787(15) 0.833333 0.0750 Uiso
O1_2 O 0.6836(9) 0.8418(13) 0.671(5) 0.0750 Uiso
O2_3 O 0.7796(4) 1.0000(6) 0.500000 0.1300 Uiso
C5_2 C 0.6750(16) 0.7446(25) 0.754(4) 0.0750 Uiso
C6_2 C 0.6839(12) 0.7800(19) 0.669(6) 0.0750 Uiso
C7_2 C 0.6753(15) 0.8078(23) 0.751(4) 0.0750 Uiso
H2_2 H 0.696986 0.786049 0.544361 0.0750 Uiso
N3_2 N 0.6800(9) 0.7134(14) 0.707(4) 0.0750 Uiso
N4_2 N 0.666667 0.6880(15) 0.833333 0.0750 Uiso
C8_2 C 0.6583(16) 0.9221(25) 0.913(4) 0.0750 Uiso
C9_2 C 0.6494(12) 0.8867(19) 0.998(6) 0.0750 Uiso
C10_2 C 0.6580(15) 0.8589(23) 0.916(4) 0.0750 Uiso
N5_2 N 0.6533(9) 0.9533(14) 0.960(4) 0.0750 Uiso
O3_2 O 0.6497(9) 0.8249(16) 0.996(5) 0.0750 Uiso
C11_2 C 0.6583(16) 0.7363(19) 0.913(4) 0.0750 Uiso
C12_2 C 0.6494(12) 0.7628(15) 0.998(6) 0.0750 Uiso
C13_2 C 0.6580(15) 0.7992(18) 0.916(4) 0.0750 Uiso
N6_2 N 0.6533(9) 0.7001(11) 0.960(4) 0.0750 Uiso
C14_3 C 0.7489(14) 0.7489(24) 0.500000 0.0300 Uiso
Fe2_3 Fe 0.7007(3) 0.7007(5) 0.500000 0.0820 Uiso
O4_3 O 0.7796(4) 0.7796(7) 0.500000 0.1300 Uiso
Cl2_2 Cl 0.7274(4) 0.66667(57) 0.666667 0.0870 Uiso
Fe6_2 Fe 0.6667(4) 0.6326(5) 0.833333 0.0820 Uiso
Cl3_2 Cl 0.666667 0.72740(40) 0.333333 0.0870 Uiso
Cl4_2 Cl 0.666667 0.93927(40) 0.333333 0.0870 Uiso
N7_2 N 0.7134(7) 0.6800(13) 0.293(4) 0.0750 Uiso
N9_3 N 0.6453(15) 0.6453(15) 0.500000 0.0750 Uiso
N10_3 N 0.6453(15) 1.0000(21) 0.500000 0.0750 Uiso
C4_4 C 0.0000(20) 0.7489(14) 0.500000 0.0300 Uiso
Fe1_4 Fe -0.0000(4) 0.7007(3) 0.500000 0.0820 Uiso
Cl1_3 Cl 0.06073(40) 0.7274(4) 0.333333 0.0870 Uiso
O2_4 O 0.0000(6) 0.7796(4) 0.500000 0.1300 Uiso
Fe5_3 Fe 0.0340(5) 0.6667(4) 0.166667 0.0820 Uiso
N8_3 N 0.0334(11) 0.7134(7) 0.707(4) 0.0750 Uiso
N10_4 N -0.0000(21) 0.6453(15) 0.500000 0.0750 Uiso
C1_3 C 0.9304(19) 0.6750(16) 0.246(4) 0.0750 Uiso
C2_3 C 0.9039(15) 0.6839(12) 0.331(6) 0.0750 Uiso
C3_3 C 0.8675(18) 0.6753(15) 0.249(4) 0.0750 Uiso
C4_5 C 1.0000(20) 0.7489(14) 0.500000 0.0300 Uiso
H1_3 H 0.910937 0.696986 0.455639 0.0750 Uiso
Fe1_5 Fe 1.0000(4) 0.7007(3) 0.500000 0.0820 Uiso
N1_3 N 0.9666(11) 0.6800(9) 0.293(4) 0.0750 Uiso
N2_3 N 0.9787(15) 0.666667 0.166667 0.0750 Uiso
O1_3 O 0.8418(13) 0.6836(9) 0.329(5) 0.0750 Uiso
O2_5 O 1.0000(6) 0.7796(4) 0.500000 0.1300 Uiso
C5_3 C 0.7446(25) 0.6750(16) 0.246(4) 0.0750 Uiso
C6_3 C 0.7800(19) 0.6839(12) 0.331(6) 0.0750 Uiso
C7_3 C 0.8078(23) 0.6753(15) 0.249(4) 0.0750 Uiso
H2_3 H 0.786049 0.696986 0.455639 0.0750 Uiso
N4_3 N 0.6880(15) 0.666667 0.166667 0.0750 Uiso
C8_3 C 0.9221(25) 0.6583(16) 0.087(4) 0.0750 Uiso
C9_3 C 0.8867(19) 0.6494(12) 0.002(6) 0.0750 Uiso
C10_3 C 0.8589(23) 0.6580(15) 0.084(4) 0.0750 Uiso
N5_3 N 0.9533(14) 0.6533(9) 0.040(4) 0.0750 Uiso
O3_3 O 0.8249(16) 0.6497(9) 0.004(5) 0.0750 Uiso
C11_3 C 0.7363(19) 0.6583(16) 0.087(4) 0.0750 Uiso
C12_3 C 0.7628(15) 0.6494(12) 0.002(6) 0.0750 Uiso
C13_3 C 0.7992(18) 0.6580(15) 0.084(4) 0.0750 Uiso
N6_3 N 0.7001(11) 0.6533(9) 0.040(4) 0.0750 Uiso
Cl4_3 Cl 0.93927(40) 0.666667 0.666667 0.0870 Uiso
N10_5 N 1.0000(21) 0.6453(15) 0.500000 0.0750 Uiso
H3_3 H 0.880618 0.636347 0.877694 0.0750 Uiso
H4_3 H 0.755730 0.636347 0.877694 0.0750 Uiso
Fe3_3 Fe 0.9660(5) 0.6326(3) 0.833333 0.0820 Uiso
C14_4 C 0.0000(20) 0.2511(24) 0.500000 0.0300 Uiso
Fe2_4 Fe -0.0000(4) 0.2993(5) 0.500000 0.0820 Uiso
O4_4 O -0.0000(6) 0.2204(7) 0.500000 0.1300 Uiso
Cl2_3 Cl 0.06073(40) 0.33333(57) 0.333333 0.0870 Uiso
Fe6_3 Fe 0.0340(3) 0.3674(5) 0.166667 0.0820 Uiso
N7_3 N 0.0334(11) 0.3200(13) 0.707(4) 0.0750 Uiso
N9_4 N -0.000000 0.3547(15) 0.500000 0.0750 Uiso
C1_4 C 0.7446(11) 0.0696(19) 0.246(4) 0.0750 Uiso
C2_4 C 0.7800(9) 0.0961(15) 0.331(6) 0.0750 Uiso
C3_4 C 0.8078(10) 0.1325(18) 0.249(4) 0.0750 Uiso
H1_4 H 0.786049 0.089063 0.455639 0.0750 Uiso
N2_4 N 0.6880(15) 0.0213(15) 0.166667 0.0750 Uiso
O1_4 O 0.8418(10) 0.1582(13) 0.329(5) 0.0750 Uiso
C5_4 C 0.9304(19) 0.2554(25) 0.246(4) 0.0750 Uiso
C6_4 C 0.9039(15) 0.2200(19) 0.331(6) 0.0750 Uiso
C7_4 C 0.8675(18) 0.1922(23) 0.249(4) 0.0750 Uiso
H2_4 H 0.910937 0.213951 0.455639 0.0750 Uiso
N3_3 N 0.9666(11) 0.2866(14) 0.293(4) 0.0750 Uiso
N4_4 N 0.9787(15) 0.3120(15) 0.166667 0.0750 Uiso
C8_4 C 0.7363(19) 0.0779(25) 0.087(4) 0.0750 Uiso
C9_4 C 0.7628(15) 0.1133(19) 0.002(6) 0.0750 Uiso
C10_4 C 0.7992(18) 0.1411(23) 0.084(4) 0.0750 Uiso
N5_4 N 0.7001(11) 0.0467(14) 0.040(4) 0.0750 Uiso
O3_4 O 0.8249(13) 0.1751(16) 0.004(5) 0.0750 Uiso
C11_4 C 0.9221(11) 0.2637(19) 0.087(4) 0.0750 Uiso
C12_4 C 0.8867(9) 0.2372(15) 0.002(6) 0.0750 Uiso
C13_4 C 0.8589(10) 0.2008(18) 0.084(4) 0.0750 Uiso
N6_4 N 0.9533(7) 0.2999(11) 0.040(4) 0.0750 Uiso
C14_5 C 1.0000(20) 0.2511(24) 0.500000 0.0300 Uiso
Fe2_5 Fe 1.0000(4) 0.2993(5) 0.500000 0.0820 Uiso
O4_5 O 1.0000(6) 0.2204(7) 0.500000 0.1300 Uiso
Cl3_3 Cl 0.93927(40) 0.27260(40) 0.666667 0.0870 Uiso
N9_5 N 1.000000 0.3547(15) 0.500000 0.0750 Uiso
H3_4 H 0.755730 0.119382 0.877694 0.0750 Uiso
H4_4 H 0.880618 0.244270 0.877694 0.0750 Uiso
Fe4_3 Fe 0.9660(3) 0.3333(4) 0.833333 0.0820 Uiso
H3_5 H 0.244270 0.363653 0.122306 0.0750 Uiso
H4_5 H 0.119382 0.363653 0.122306 0.0750 Uiso
C1_5 C 0.2554(11) 0.3250(16) 0.754(4) 0.0750 Uiso
C2_5 C 0.2200(9) 0.3161(12) 0.669(6) 0.0750 Uiso
C3_5 C 0.1922(10) 0.3247(15) 0.751(4) 0.0750 Uiso
H1_5 H 0.213951 0.303014 0.544361 0.0750 Uiso
N2_5 N 0.3120(15) 0.333333 0.833333 0.0750 Uiso
O1_5 O 0.1582(10) 0.3164(9) 0.671(5) 0.0750 Uiso
C5_5 C 0.0696(19) 0.3250(16) 0.754(4) 0.0750 Uiso
C6_5 C 0.0961(15) 0.3161(12) 0.669(6) 0.0750 Uiso
C7_5 C 0.1325(18) 0.3247(15) 0.751(4) 0.0750 Uiso
H2_5 H 0.089063 0.303014 0.544361 0.0750 Uiso
N4_5 N 0.0213(15) 0.333333 0.833333 0.0750 Uiso
C8_5 C 0.2637(19) 0.3417(16) 0.913(4) 0.0750 Uiso
C9_5 C 0.2372(15) 0.3506(12) 0.998(6) 0.0750 Uiso
C10_5 C 0.2008(18) 0.3420(15) 0.916(4) 0.0750 Uiso
N5_5 N 0.2999(11) 0.3467(9) 0.960(4) 0.0750 Uiso
O3_5 O 0.1751(13) 0.3503(9) 0.996(5) 0.0750 Uiso
C11_5 C 0.0779(11) 0.3417(16) 0.913(4) 0.0750 Uiso
C12_5 C 0.1133(9) 0.3506(12) 0.998(6) 0.0750 Uiso
C13_5 C 0.1411(10) 0.3420(15) 0.916(4) 0.0750 Uiso
N6_5 N 0.0467(7) 0.3467(9) 0.960(4) 0.0750 Uiso
H3_6 H 0.119382 0.755730 0.122306 0.0750 Uiso
H4_6 H 0.244270 0.880618 0.122306 0.0750 Uiso
C1_6 C 0.0696(19) 0.7446(11) 0.754(4) 0.0750 Uiso
C2_6 C 0.0961(15) 0.7800(9) 0.669(6) 0.0750 Uiso
C3_6 C 0.1325(18) 0.8078(10) 0.751(4) 0.0750 Uiso
H1_6 H 0.089063 0.786049 0.544361 0.0750 Uiso
N2_6 N 0.0213(15) 0.6880(15) 0.833333 0.0750 Uiso
O1_6 O 0.1582(13) 0.8418(10) 0.671(5) 0.0750 Uiso
C5_6 C 0.2554(25) 0.9304(19) 0.754(4) 0.0750 Uiso
C6_6 C 0.2200(19) 0.9039(15) 0.669(6) 0.0750 Uiso
C7_6 C 0.1922(23) 0.8675(18) 0.751(4) 0.0750 Uiso
H2_6 H 0.213951 0.910937 0.544361 0.0750 Uiso
N4_6 N 0.3120(15) 0.9787(15) 0.833333 0.0750 Uiso
C8_6 C 0.0779(25) 0.7363(19) 0.913(4) 0.0750 Uiso
C9_6 C 0.1133(19) 0.7628(15) 0.998(6) 0.0750 Uiso
C10_6 C 0.1411(23) 0.7992(18) 0.916(4) 0.0750 Uiso
N5_6 N 0.0467(14) 0.7001(11) 0.960(4) 0.0750 Uiso
O3_6 O 0.1751(16) 0.8249(13) 0.996(5) 0.0750 Uiso
C11_6 C 0.2637(19) 0.9221(11) 0.913(4) 0.0750 Uiso
C12_6 C 0.2372(15) 0.8867(9) 0.998(6) 0.0750 Uiso
C13_6 C 0.2008(18) 0.8589(10) 0.916(4) 0.0750 Uiso
N6_6 N 0.2999(11) 0.9533(7) 0.960(4) 0.0750 Uiso
Cl1_4 Cl 0.3941(4) 0.39407(40) 0.000000 0.0870 Uiso
Cl2_4 Cl 0.3941(4) 0.00000(57) 0.000000 0.0870 Uiso
C4_6 C 0.4156(14) 0.3333(20) 0.833333 0.0300 Uiso
Cl1_5 Cl 0.3941(4) 0.39407(40) 1.000000 0.0870 Uiso
O2_6 O 0.4463(4) 0.3333(6) 0.833333 0.1300 Uiso
C14_6 C 0.4156(14) 0.0822(24) 0.833333 0.0300 Uiso
O4_6 O 0.4463(4) 0.1129(7) 0.833333 0.1300 Uiso
Cl2_5 Cl 0.3941(4) 0.00000(57) 1.000000 0.0870 Uiso
N7_4 N 0.3801(7) 0.0133(13) 0.626(4) 0.0750 Uiso
N8_4 N 0.3801(7) 0.3667(11) 0.626(4) 0.0750 Uiso
Cl2_6 Cl 0.3941(4) 1.00000(57) 0.000000 0.0870 Uiso
Cl2_7 Cl 0.3941(4) 1.00000(57) 1.000000 0.0870 Uiso
Cl4_4 Cl 0.60593(40) 0.000000 0.000000 0.0870 Uiso
C1_7 C 0.5971(19) 0.0083(16) 0.579(4) 0.0750 Uiso
C2_7 C 0.5706(15) 0.0172(12) 0.664(6) 0.0750 Uiso
C3_7 C 0.5342(18) 0.0086(15) 0.582(4) 0.0750 Uiso
C4_7 C 0.6667(20) 0.0822(14) 0.833333 0.0300 Uiso
H1_7 H 0.577604 0.030319 0.788972 0.0750 Uiso
N1_4 N 0.6333(11) 0.0133(9) 0.626(4) 0.0750 Uiso
O1_7 O 0.5085(13) 0.0169(9) 0.662(5) 0.0750 Uiso
O2_7 O 0.6667(6) 0.1129(4) 0.833333 0.1300 Uiso
C5_7 C 0.4113(25) 0.0083(16) 0.579(4) 0.0750 Uiso
C6_7 C 0.4467(19) 0.0172(12) 0.664(6) 0.0750 Uiso
C7_7 C 0.4745(23) 0.0086(15) 0.582(4) 0.0750 Uiso
H2_7 H 0.452716 0.030319 0.788972 0.0750 Uiso
Cl4_5 Cl 0.60593(40) 0.000000 1.000000 0.0870 Uiso
Cl4_6 Cl 0.60593(40) 1.000000 0.000000 0.0870 Uiso
C8_7 C 0.5887(25) 0.9917(16) 0.421(4) 0.0750 Uiso
C9_7 C 0.5533(19) 0.9828(12) 0.336(6) 0.0750 Uiso
C10_7 C 0.5255(23) 0.9914(15) 0.418(4) 0.0750 Uiso
H3_7 H 0.547284 0.969681 0.211028 0.0750 Uiso
N5_7 N 0.6199(14) 0.9867(9) 0.374(4) 0.0750 Uiso
O3_7 O 0.4915(16) 0.9831(9) 0.338(5) 0.0750 Uiso
C11_7 C 0.4029(19) 0.9917(16) 0.421(4) 0.0750 Uiso
C12_7 C 0.4294(15) 0.9828(12) 0.336(6) 0.0750 Uiso
C13_7 C 0.4658(18) 0.9914(15) 0.418(4) 0.0750 Uiso
H4_7 H 0.422396 0.969681 0.211028 0.0750 Uiso
N6_7 N 0.3667(11) 0.9867(9) 0.374(4) 0.0750 Uiso
Cl4_7 Cl 0.60593(40) 1.000000 1.000000 0.0870 Uiso
Cl3_4 Cl 0.60593(40) 0.60593(40) 0.000000 0.0870 Uiso
C1_8 C 0.4113(11) 0.4029(19) 0.579(4) 0.0750 Uiso
C2_8 C 0.4467(9) 0.4294(15) 0.664(6) 0.0750 Uiso
C3_8 C 0.4745(10) 0.4658(18) 0.582(4) 0.0750 Uiso
H1_8 H 0.452716 0.422396 0.788972 0.0750 Uiso
O1_8 O 0.5085(10) 0.4915(13) 0.662(5) 0.0750 Uiso
C5_8 C 0.5971(19) 0.5887(25) 0.579(4) 0.0750 Uiso
C6_8 C 0.5706(15) 0.5533(19) 0.664(6) 0.0750 Uiso
C7_8 C 0.5342(18) 0.5255(23) 0.582(4) 0.0750 Uiso
H2_8 H 0.577604 0.547284 0.788972 0.0750 Uiso
N3_4 N 0.6333(11) 0.6199(14) 0.626(4) 0.0750 Uiso
C8_8 C 0.4029(19) 0.4113(25) 0.421(4) 0.0750 Uiso
C9_8 C 0.4294(15) 0.4467(19) 0.336(6) 0.0750 Uiso
C10_8 C 0.4658(18) 0.4745(23) 0.418(4) 0.0750 Uiso
H3_8 H 0.422396 0.452716 0.211028 0.0750 Uiso
N5_8 N 0.3667(11) 0.3801(14) 0.374(4) 0.0750 Uiso
O3_8 O 0.4915(13) 0.5085(16) 0.338(5) 0.0750 Uiso
C11_8 C 0.5887(11) 0.5971(19) 0.421(4) 0.0750 Uiso
C12_8 C 0.5533(9) 0.5706(15) 0.336(6) 0.0750 Uiso
C13_8 C 0.5255(10) 0.5342(18) 0.418(4) 0.0750 Uiso
H4_8 H 0.547284 0.577604 0.211028 0.0750 Uiso
N6_8 N 0.6199(7) 0.6333(11) 0.374(4) 0.0750 Uiso
C14_7 C 0.6667(20) 0.5844(24) 0.833333 0.0300 Uiso
O4_7 O 0.6667(6) 0.5537(7) 0.833333 0.1300 Uiso
Cl3_5 Cl 0.60593(40) 0.60593(40) 1.000000 0.0870 Uiso
Cl1_6 Cl -0.000000 0.6059(4) 0.000000 0.0870 Uiso
Cl1_7 Cl -0.000000 0.6059(4) 1.000000 0.0870 Uiso
Cl1_8 Cl 1.000000 0.6059(4) 0.000000 0.0870 Uiso
C4_8 C 0.9178(14) 0.5844(14) 0.833333 0.0300 Uiso
Cl1_9 Cl 1.000000 0.6059(4) 1.000000 0.0870 Uiso
O2_8 O 0.8871(4) 0.5537(4) 0.833333 0.1300 Uiso
N8_5 N 0.9867(9) 0.6199(7) 0.626(4) 0.0750 Uiso
Cl2_8 Cl -0.00000(57) 0.39407(40) 0.000000 0.0870 Uiso
Cl2_9 Cl -0.00000(57) 0.39407(40) 1.000000 0.0870 Uiso
Cl2_10 Cl 1.00000(57) 0.39407(40) 0.000000 0.0870 Uiso
C14_8 C 0.9178(24) 0.3333(20) 0.833333 0.0300 Uiso
O4_8 O 0.8871(7) 0.3333(6) 0.833333 0.1300 Uiso
Cl2_11 Cl 1.00000(57) 0.39407(40) 1.000000 0.0870 Uiso
N7_5 N 0.9867(13) 0.3667(11) 0.626(4) 0.0750 Uiso
C8_9 C 0.0083(16) 0.5971(19) 0.421(4) 0.0750 Uiso
C9_9 C 0.0172(12) 0.5706(15) 0.336(6) 0.0750 Uiso
C10_9 C 0.0086(15) 0.5342(18) 0.418(4) 0.0750 Uiso
H3_9 H 0.030319 0.577604 0.211028 0.0750 Uiso
N5_9 N 0.0133(9) 0.6333(11) 0.374(4) 0.0750 Uiso
O3_9 O 0.0169(9) 0.5085(13) 0.338(5) 0.0750 Uiso
C11_9 C 0.0083(16) 0.4113(11) 0.421(4) 0.0750 Uiso
C12_9 C 0.0172(12) 0.4467(9) 0.336(6) 0.0750 Uiso
C13_9 C 0.0086(15) 0.4745(10) 0.418(4) 0.0750 Uiso
H4_9 H 0.030319 0.452716 0.211028 0.0750 Uiso
N6_9 N 0.0133(9) 0.3801(7) 0.374(4) 0.0750 Uiso
C1_9 C 0.9917(16) 0.5887(11) 0.579(4) 0.0750 Uiso
C2_9 C 0.9828(12) 0.5533(9) 0.664(6) 0.0750 Uiso
C3_9 C 0.9914(15) 0.5255(10) 0.582(4) 0.0750 Uiso
H1_9 H 0.969681 0.547284 0.788972 0.0750 Uiso
O1_9 O 0.9831(9) 0.4915(10) 0.662(5) 0.0750 Uiso
C5_9 C 0.9917(16) 0.4029(19) 0.579(4) 0.0750 Uiso
C6_9 C 0.9828(12) 0.4294(15) 0.664(6) 0.0750 Uiso
C7_9 C 0.9914(15) 0.4658(18) 0.582(4) 0.0750 Uiso
H2_9 H 0.969681 0.422396 0.788972 0.0750 Uiso
C4_9 C 0.0822(14) 0.6667(20) 0.166667 0.0300 Uiso
O2_9 O 0.1129(4) 0.6667(6) 0.166667 0.1300 Uiso
C14_9 C 0.0822(14) 0.4156(24) 0.166667 0.0300 Uiso
O4_9 O 0.1129(4) 0.4463(7) 0.166667 0.1300 Uiso
C4_10 C 0.3333(20) 0.4156(14) 0.166667 0.0300 Uiso
O2_10 O 0.3333(6) 0.4463(4) 0.166667 0.1300 Uiso
C14_10 C 0.3333(20) 0.9178(24) 0.166667 0.0300 Uiso
O4_10 O 0.3333(6) 0.8871(7) 0.166667 0.1300 Uiso
C4_11 C 0.5844(14) 0.9178(14) 0.166667 0.0300 Uiso
O2_11 O 0.5537(4) 0.8871(4) 0.166667 0.1300 Uiso
C14_11 C 0.5844(24) 0.6667(20) 0.166667 0.0300 Uiso
O4_11 O 0.5537(7) 0.6667(6) 0.166667 0.1300 Uiso
loop_
_geom_bond_atom_site_label_1
_geom_bond_atom_site_label_2
_geom_bond_site_symmetry_1
_geom_bond_site_symmetry_2
C1 C2 1_555 1_555
C2 C3 1_555 1_555
C3 O1 1_555 1_555
C4 Fe1 1_555 1_555
H1 C2 1_555 1_555
Fe1 Cl1 1_555 1_555
Cl1 Fe5 1_555 1_555
N1 C1 1_555 1_555
N2 N1 1_555 1_555
O1 C7 1_555 1_555
O2 C4 1_555 1_555
C5 C6 1_555 1_555
C6 C7 1_555 1_555
C7 C13 1_555 1_555
H2 C6 1_555 1_555
N3 C5 1_555 1_555
N4 N3 1_555 1_555
C8 C1 1_555 1_555
C9 C8 1_555 1_555
C10 C3 1_555 1_555
N5 N2 1_555 1_555
O3 C10 1_555 1_555
C11 C5 1_555 1_555
C12 C11 1_555 1_555
C13 O3 1_555 1_555
N6 N4 1_555 1_555
C14 Fe2 1_555 1_555
Fe2 N3 1_555 1_555
O4 C14 1_555 1_555
Fe5 N2 1_555 1_555
Cl3 Fe2 1_555 1_555
Cl4 Fe1 1_555 1_555
N8 Fe1 1_555 1_555
N9 Fe2 1_555 1_555
N10 Fe1 1_555 1_555
Fe1 N1 1_555 1_555
C8 N5 1_555 1_555
C9 C10 1_555 1_555
C11 N6 1_555 1_555
C12 C13 1_555 1_555
C14_2 Fe2_2 1_555 1_555
O4_2 C14_2 1_555 1_555
Cl2 Fe2_2 1_555 1_555
N7 Fe2_2 1_555 1_555
N9_2 Fe2_2 1_555 1_555
Cl2 Fe6 1_555 1_555
C4_2 Fe1_2 1_555 1_555
Fe1_2 Cl1_2 1_555 1_555
Cl1_2 Fe5_2 1_555 1_555
O2_2 C4_2 1_555 1_555
N8_2 Fe1_2 1_555 1_555
N10_2 Fe1_2 1_555 1_555
C1_2 C2_2 1_555 1_555
C2_2 C3_2 1_555 1_555
C3_2 O1_2 1_555 1_555
C4_3 Fe1_3 1_555 1_555
H1_2 C2_2 1_555 1_555
N1_2 C1_2 1_555 1_555
N2_2 N1_2 1_555 1_555
O1_2 C7_2 1_555 1_555
O2_3 C4_3 1_555 1_555
C5_2 C6_2 1_555 1_555
C6_2 C7_2 1_555 1_555
C7_2 C13_2 1_555 1_555
H2_2 C6_2 1_555 1_555
N3_2 C5_2 1_555 1_555
N4_2 N3_2 1_555 1_555
C8_2 C1_2 1_555 1_555
C9_2 C8_2 1_555 1_555
C10_2 C3_2 1_555 1_555
N5_2 N2_2 1_555 1_555
O3_2 C10_2 1_555 1_555
C11_2 C5_2 1_555 1_555
C12_2 C11_2 1_555 1_555
C13_2 O3_2 1_555 1_555
N6_2 N4_2 1_555 1_555
C14_3 Fe2_3 1_555 1_555
Fe2_3 N3_2 1_555 1_555
O4_3 C14_3 1_555 1_555
Cl2_2 Fe2_3 1_555 1_555
Fe6_2 N4_2 1_555 1_555
Cl3_2 Fe2_3 1_555 1_555
Cl4_2 Fe1_3 1_555 1_555
N7_2 Fe2_3 1_555 1_555
N9_3 Fe2_3 1_555 1_555
N10_3 Fe1_3 1_555 1_555
Fe1_3 N1_2 1_555 1_555
C8_2 N5_2 1_555 1_555
C9_2 C10_2 1_555 1_555
C11_2 N6_2 1_555 1_555
C12_2 C13_2 1_555 1_555
Cl2_2 Fe6_2 1_555 1_555
C4_4 Fe1_4 1_555 1_555
Fe1_4 Cl1_3 1_555 1_555
Cl1_3 Fe5_3 1_555 1_555
O2_4 C4_4 1_555 1_555
N8_3 Fe1_4 1_555 1_555
N10_4 Fe1_4 1_555 1_555
C1_3 C2_3 1_555 1_555
C2_3 C3_3 1_555 1_555
C3_3 O1_3 1_555 1_555
C4_5 Fe1_5 1_555 1_555
H1_3 C2_3 1_555 1_555
N1_3 C1_3 1_555 1_555
N2_3 N1_3 1_555 1_555
O1_3 C7_3 1_555 1_555
O2_5 C4_5 1_555 1_555
C5_3 C6_3 1_555 1_555
C6_3 C7_3 1_555 1_555
C7_3 C13_3 1_555 1_555
H2_3 C6_3 1_555 1_555
N7_2 C5_3 1_555 1_555
N4_3 N7_2 1_555 1_555
C8_3 C1_3 1_555 1_555
C9_3 C8_3 1_555 1_555
C10_3 C3_3 1_555 1_555
N5_3 N2_3 1_555 1_555
O3_3 C10_3 1_555 1_555
C11_3 C5_3 1_555 1_555
C12_3 C11_3 1_555 1_555
C13_3 O3_3 1_555 1_555
N6_3 N4_3 1_555 1_555
Fe4_2 N4_3 1_555 1_555
Cl4_3 Fe1_5 1_555 1_555
N10_5 Fe1_5 1_555 1_555
Fe1_5 N1_3 1_555 1_555
C8_3 N5_3 1_555 1_555
C9_3 C10_3 1_555 1_555
C11_3 N6_3 1_555 1_555
C12_3 C13_3 1_555 1_555
Cl3_2 Fe4_2 1_555 1_555
C14_4 Fe2_4 1_555 1_555
O4_4 C14_4 1_555 1_555
Cl2_3 Fe2_4 1_555 1_555
N7_3 Fe2_4 1_555 1_555
N9_4 Fe2_4 1_555 1_555
Cl2_3 Fe6_3 1_555 1_555
C1_4 C2_4 1_555 1_555
C2_4 C3_4 1_555 1_555
C3_4 O1_4 1_555 1_555
H1_4 C2_4 1_555 1_555
N8_2 C1_4 1_555 1_555
N2_4 N8_2 1_555 1_555
O1_4 C7_4 1_555 1_555
C5_4 C6_4 1_555 1_555
C6_4 C7_4 1_555 1_555
C7_4 C13_4 1_555 1_555
H2_4 C6_4 1_555 1_555
N3_3 C5_4 1_555 1_555
N4_4 N3_3 1_555 1_555
C8_4 C1_4 1_555 1_555
C9_4 C8_4 1_555 1_555
C10_4 C3_4 1_555 1_555
N5_4 N2_4 1_555 1_555
O3_4 C10_4 1_555 1_555
C11_4 C5_4 1_555 1_555
C12_4 C11_4 1_555 1_555
C13_4 O3_4 1_555 1_555
N6_4 N4_4 1_555 1_555
C14_5 Fe2_5 1_555 1_555
Fe2_5 N3_3 1_555 1_555
O4_5 C14_5 1_555 1_555
Cl3_3 Fe2_5 1_555 1_555
N9_5 Fe2_5 1_555 1_555
C8_4 N5_4 1_555 1_555
C9_4 C10_4 1_555 1_555
C11_4 N6_4 1_555 1_555
C12_4 C13_4 1_555 1_555
Cl4_2 Fe3_2 1_555 1_555
C1_5 C2_5 1_555 1_555
C2_5 C3_5 1_555 1_555
C3_5 O1_5 1_555 1_555
H1_5 C2_5 1_555 1_555
Cl4 Fe3 1_555 1_555
N8 C1_5 1_555 1_555
N2_5 N8 1_555 1_555
O1_5 C7_5 1_555 1_555
C5_5 C6_5 1_555 1_555
C6_5 C7_5 1_555 1_555
C7_5 C13_5 1_555 1_555
H2_5 C6_5 1_555 1_555
N7_3 C5_5 1_555 1_555
N4_5 N7_3 1_555 1_555
C8_5 C1_5 1_555 1_555
C9_5 C8_5 1_555 1_555
C10_5 C3_5 1_555 1_555
N5_5 N2_5 1_555 1_555
O3_5 C10_5 1_555 1_555
C11_5 C5_5 1_555 1_555
C12_5 C11_5 1_555 1_555
C13_5 O3_5 1_555 1_555
N6_5 N4_5 1_555 1_555
Fe3 N2_5 1_555 1_555
C8_5 N5_5 1_555 1_555
C9_5 C10_5 1_555 1_555
C11_5 N6_5 1_555 1_555
C12_5 C13_5 1_555 1_555
Cl3_3 Fe4_3 1_555 1_555
Cl3 Fe4 1_555 1_555
C1_6 C2_6 1_555 1_555
C2_6 C3_6 1_555 1_555
C3_6 O1_6 1_555 1_555
H1_6 C2_6 1_555 1_555
N8_3 C1_6 1_555 1_555
N2_6 N8_3 1_555 1_555
O1_6 C7_6 1_555 1_555
C5_6 C6_6 1_555 1_555
C6_6 C7_6 1_555 1_555
C7_6 C13_6 1_555 1_555
H2_6 C6_6 1_555 1_555
N7 C5_6 1_555 1_555
N4_6 N7 1_555 1_555
C8_6 C1_6 1_555 1_555
C9_6 C8_6 1_555 1_555
C10_6 C3_6 1_555 1_555
N5_6 N2_6 1_555 1_555
O3_6 C10_6 1_555 1_555
C11_6 C5_6 1_555 1_555
C12_6 C11_6 1_555 1_555
C13_6 O3_6 1_555 1_555
N6_6 N4_6 1_555 1_555
C8_6 N5_6 1_555 1_555
C9_6 C10_6 1_555 1_555
C11_6 N6_6 1_555 1_555
C12_6 C13_6 1_555 1_555
Cl4_3 Fe3_3 1_555 1_555
Cl1_4 Fe5 1_555 1_555
C4_6 Fe3 1_555 1_555
Fe3 Cl1_5 1_555 1_555
O2_6 C4_6 1_555 1_555
C14_6 Fe4 1_555 1_555
O4_6 C14_6 1_555 1_555
Cl2_5 Fe4 1_555 1_555
N7_4 Fe4 1_555 1_555
N8_4 Fe3 1_555 1_555
Cl2_6 Fe6 1_555 1_555
C1_7 C2_7 1_555 1_555
C2_7 C3_7 1_555 1_555
C3_7 O1_7 1_555 1_555
C4_7 Fe5_2 1_555 1_555
H1_7 C2_7 1_555 1_555
N1_4 C1_7 1_555 1_555
N10_2 N1_4 1_555 1_555
O1_7 C7_7 1_555 1_555
O2_7 C4_7 1_555 1_555
C5_7 C6_7 1_555 1_555
C6_7 C7_7 1_555 1_555
H2_7 C6_7 1_555 1_555
N7_4 C5_7 1_555 1_555
N9 N7_4 1_555 1_555
Cl4_5 Fe5_2 1_555 1_555
Fe5_2 N1_4 1_555 1_555
C9_7 C8_7 1_555 1_555
H3_7 C9_7 1_555 1_555
N5_7 N10_3 1_555 1_555
O3_7 C10_7 1_555 1_555
C12_7 C11_7 1_555 1_555
C13_7 O3_7 1_555 1_555
H4_7 C12_7 1_555 1_555
N6_7 N9_2 1_555 1_555
Fe3_2 N5_7 1_555 1_555
Fe6 N6_7 1_555 1_555
C8_7 N5_7 1_555 1_555
C9_7 C10_7 1_555 1_555
C11_7 N6_7 1_555 1_555
C12_7 C13_7 1_555 1_555
C1_8 C2_8 1_555 1_555
C2_8 C3_8 1_555 1_555
C3_8 O1_8 1_555 1_555
H1_8 C2_8 1_555 1_555
N8_4 C1_8 1_555 1_555
N10 N8_4 1_555 1_555
O1_8 C7_8 1_555 1_555
C5_8 C6_8 1_555 1_555
C6_8 C7_8 1_555 1_555
C7_8 C13_8 1_555 1_555
H2_8 C6_8 1_555 1_555
N3_4 C5_8 1_555 1_555
N9_3 N3_4 1_555 1_555
C8_8 C1_8 1_555 1_555
C9_8 C8_8 1_555 1_555
C10_8 C3_8 1_555 1_555
H3_8 C9_8 1_555 1_555
N5_8 N10 1_555 1_555
O3_8 C10_8 1_555 1_555
C11_8 C5_8 1_555 1_555
C12_8 C11_8 1_555 1_555
C13_8 O3_8 1_555 1_555
H4_8 C12_8 1_555 1_555
N6_8 N9_3 1_555 1_555
C14_7 Fe6_2 1_555 1_555
Fe6_2 N3_4 1_555 1_555
O4_7 C14_7 1_555 1_555
Fe5 N5_8 1_555 1_555
Fe4_2 N6_8 1_555 1_555
Cl3_5 Fe6_2 1_555 1_555
C8_8 N5_8 1_555 1_555
C9_8 C10_8 1_555 1_555
C11_8 N6_8 1_555 1_555
C12_8 C13_8 1_555 1_555
Cl1_6 Fe5_3 1_555 1_555
Cl3_4 Fe4_2 1_555 1_555
C4_8 Fe3_3 1_555 1_555
Fe3_3 Cl1_9 1_555 1_555
O2_8 C4_8 1_555 1_555
N8_5 Fe3_3 1_555 1_555
Cl2_8 Fe6_3 1_555 1_555
C14_8 Fe4_3 1_555 1_555
O4_8 C14_8 1_555 1_555
Cl2_11 Fe4_3 1_555 1_555
N7_5 Fe4_3 1_555 1_555
Cl4_6 Fe3_2 1_555 1_555
C9_9 C8_9 1_555 1_555
H3_9 C9_9 1_555 1_555
N5_9 N10_4 1_555 1_555
O3_9 C10_9 1_555 1_555
C12_9 C11_9 1_555 1_555
C13_9 O3_9 1_555 1_555
H4_9 C12_9 1_555 1_555
N6_9 N9_4 1_555 1_555
Fe5_3 N5_9 1_555 1_555
Fe6_3 N6_9 1_555 1_555
C8_9 N5_9 1_555 1_555
C9_9 C10_9 1_555 1_555
C11_9 N6_9 1_555 1_555
C12_9 C13_9 1_555 1_555
C1_9 C2_9 1_555 1_555
C2_9 C3_9 1_555 1_555
C3_9 O1_9 1_555 1_555
H1_9 C2_9 1_555 1_555
N8_5 C1_9 1_555 1_555
N10_5 N8_5 1_555 1_555
O1_9 C7_9 1_555 1_555
C5_9 C6_9 1_555 1_555
C6_9 C7_9 1_555 1_555
H2_9 C6_9 1_555 1_555
N7_5 C5_9 1_555 1_555
N9_5 N7_5 1_555 1_555
C4_9 Fe5_3 1_555 1_555
O2_9 C4_9 1_555 1_555
C14_9 Fe6_3 1_555 1_555
O4_9 C14_9 1_555 1_555
C4_10 Fe5 1_555 1_555
O2_10 C4_10 1_555 1_555
C14_10 Fe6 1_555 1_555
O4_10 C14_10 1_555 1_555
C4_11 Fe3_2 1_555 1_555
O2_11 C4_11 1_555 1_555
C14_11 Fe4_2 1_555 1_555
O4_11 C14_11 1_555 1_555

#END
