
###############################################################################
#
# This file contains modified crystal structure data generated from the
# MOF subset of the Cambridge Structural Database (CSD) v543 
# hosted by the Cambridge Crystallographic Data Centre (CCDC).
#
# This work is licensed under the Creative Commons
# Attribution-NonCommercial-ShareAlike 4.0 International License.
# To view a copy of this license, visit
# http://creativecommons.org/licenses/by-nc-sa/4.0/
# or send a letter to
# Creative Commons, PO Box 1866, Mountain View, CA 94042, USA.
#
# CIF created using the CSD Python API on 29 September 2022
# The structure has been converted into the P1 space group
# The structure has a 3D framework
# The original CSD entry HAZGOF16 is in the orthorhombic crystal system
# The framework has been calculated to contain at least 10.0% void space
# The void calculation uses a probe of radius 1.32A, grid spacing 0.4
#
###############################################################################

data_HAZGOF16
_chemical_formula_moiety         '(C192 H96 O96 Sc16)n'
_symmetry_cell_setting           triclinic
_symmetry_space_group_name_H-M   'P 1'
_symmetry_Int_Tables_number      1
_space_group_name_Hall           'P 1'
loop_
_symmetry_equiv_pos_site_id
_symmetry_equiv_pos_as_xyz
1 x,y,z
_cell_length_a                   8.798(2)
_cell_length_b                   20.865(4)
_cell_length_c                   34.551(6)
_cell_angle_alpha                90
_cell_angle_beta                 90
_cell_angle_gamma                90
_cell_volume                     6342.54
loop_
_atom_site_label
_atom_site_type_symbol
_atom_site_fract_x
_atom_site_fract_y
_atom_site_fract_z
H11 H 0.0075 0.5233 0.7580
Sc3 Sc 0.1250 0.6250 0.86437(4)
Sc1 Sc 0.3750 0.3750 0.63563(4)
O1 O 0.2413(5) 0.3335(2) 0.67950(10)
C1 C 0.1052(8) 0.3198(3) 0.68212(15)
O2 O 0.0051(5) 0.3344(2) 0.65761(11)
C2 C 0.0496(7) 0.2834(3) 0.71732(15)
C3 C 0.1532(8) 0.2641(4) 0.74503(17)
C4 C 0.1024(8) 0.2307(3) 0.77787(16)
O3 O 0.2453(5) 0.45802(19) 0.63514(12)
C5 C 0.1250 0.4859(4) 0.6250
C6 C 0.1250 0.5571(4) 0.6250
C7 C 0.2604(9) 0.5922(3) 0.6253(2)
H1 H 0.2575 0.2733 0.7420
H2 H 0.1738 0.2176 0.7969
H3 H 0.3538 0.5693 0.6260
O6 O 0.2453(5) 0.79198(19) 0.61486(12)
C12 C 0.1250 0.7641(4) 0.6250
C13 C 0.1250 0.6929(4) 0.6250
C14 C 0.2604(9) 0.6578(3) 0.6247(2)
H6 H 0.3538 0.6807 0.6240
O7 O 0.0047(5) 0.45802(19) 0.61486(12)
O8 O 0.0047(5) 0.79198(19) 0.63514(12)
O9 O 0.5087(5) 0.4165(2) 0.67950(10)
C17 C 0.6448(8) 0.4302(3) 0.68212(15)
O10 O 0.7449(5) 0.4156(2) 0.65761(11)
C18 C 0.7004(7) 0.4666(3) 0.71732(15)
C19 C 0.5968(8) 0.4859(4) 0.74503(17)
C20 C 0.6476(8) 0.5193(3) 0.77787(16)
H9 H 0.4925 0.4767 0.7420
H10 H 0.5762 0.5324 0.7969
O11 O 0.9913(5) 0.5835(2) 0.82050(10)
C21 C 0.8552(8) 0.5698(3) 0.81788(15)
O12 O 0.7551(5) 0.5844(2) 0.84239(11)
C22 C 0.7996(7) 0.5334(3) 0.78268(15)
C23 C 0.9032(8) 0.5141(4) 0.75497(17)
C24 C 0.8524(8) 0.4807(3) 0.72213(16)
H12 H 0.9238 0.4676 0.7031
Sc5 Sc 0.6250 0.6250 0.88563(4)
Sc6 Sc 0.3750 0.8750 0.61437(4)
Sc7 Sc 0.1250 0.1250 0.88563(4)
Sc9 Sc 0.8750 0.3750 0.61437(4)
O15 O 0.5051(5) 0.4156(2) 0.59239(11)
O16 O 0.2449(5) 0.3344(2) 0.59239(11)
O20 O 0.5047(5) 0.29198(19) 0.63514(12)
O4 O 0.7587(5) 0.1665(2) 0.82050(10)
C8 C 0.8948(8) 0.1802(3) 0.81788(15)
O5 O 0.9949(5) 0.1656(2) 0.84239(11)
C9 C 0.9504(7) 0.2166(3) 0.78268(15)
C10 C 0.8468(8) 0.2359(4) 0.75497(17)
C11 C 0.8976(8) 0.2693(3) 0.72213(16)
H4 H 0.7425 0.2267 0.7580
H5 H 0.8262 0.2824 0.7031
C15 C 0.9896(9) 0.5922(3) 0.6247(2)
H7 H 0.8962 0.5693 0.6240
C16 C 0.9896(9) 0.6578(3) 0.6253(2)
H8 H 0.8962 0.6807 0.6260
Sc2 Sc 0.6250 0.1250 0.86437(4)
Sc4 Sc 0.8750 0.8750 0.63563(4)
O13 O 0.4913(5) 0.0835(2) 0.82050(10)
O14 O 0.4949(5) 0.0844(2) 0.90761(11)
O17 O 0.7551(5) 0.1656(2) 0.90761(11)
O18 O 0.7547(5) 0.04198(19) 0.86486(12)
O19 O 0.4953(5) 0.20802(19) 0.86486(12)
H11_2 H 0.0075 0.0233 0.2580
Sc3_2 Sc 0.1250 0.1250 0.36437(4)
C6_2 C 0.1250 0.0571(4) 0.1250
C7_2 C 0.2604(9) 0.0922(3) 0.1253(2)
H3_2 H 0.3538 0.0693 0.1260
O6_2 O 0.2453(5) 0.29198(19) 0.11486(12)
C12_2 C 0.1250 0.2641(4) 0.1250
C13_2 C 0.1250 0.1929(4) 0.1250
C14_2 C 0.2604(9) 0.1578(3) 0.1247(2)
H6_2 H 0.3538 0.1807 0.1240
O8_2 O 0.0047(5) 0.29198(19) 0.13514(12)
C20_2 C 0.6476(8) 0.0193(3) 0.27787(16)
H10_2 H 0.5762 0.0324 0.2969
O11_2 O 0.9913(5) 0.0835(2) 0.32050(10)
C21_2 C 0.8552(8) 0.0698(3) 0.31788(15)
O12_2 O 0.7551(5) 0.0844(2) 0.34239(11)
C22_2 C 0.7996(7) 0.0334(3) 0.28268(15)
C23_2 C 0.9032(8) 0.0141(4) 0.25497(17)
Sc5_2 Sc 0.6250 0.1250 0.38563(4)
Sc6_2 Sc 0.3750 0.3750 0.11437(4)
Sc1_2 Sc 0.3750 0.8750 0.13563(4)
O1_2 O 0.2413(5) 0.8335(2) 0.17950(10)
C1_2 C 0.1052(8) 0.8198(3) 0.18212(15)
O2_2 O 0.0051(5) 0.8344(2) 0.15761(11)
C2_2 C 0.0496(7) 0.7834(3) 0.21732(15)
C3_2 C 0.1532(8) 0.7641(4) 0.24503(17)
C4_2 C 0.1024(8) 0.7307(3) 0.27787(16)
O3_2 O 0.2453(5) 0.95802(19) 0.13514(12)
C5_2 C 0.1250 0.9859(4) 0.1250
H1_2 H 0.2575 0.7733 0.2420
H2_2 H 0.1738 0.7176 0.2969
O7_2 O 0.0047(5) 0.95802(19) 0.11486(12)
O9_2 O 0.5087(5) 0.9165(2) 0.17950(10)
C17_2 C 0.6448(8) 0.9302(3) 0.18212(15)
O10_2 O 0.7449(5) 0.9156(2) 0.15761(11)
C18_2 C 0.7004(7) 0.9666(3) 0.21732(15)
C19_2 C 0.5968(8) 0.9859(4) 0.24503(17)
H9_2 H 0.4925 0.9767 0.2420
C24_2 C 0.8524(8) 0.9807(3) 0.22213(16)
H12_2 H 0.9238 0.9676 0.2031
Sc7_2 Sc 0.1250 0.6250 0.38563(4)
Sc9_2 Sc 0.8750 0.8750 0.11437(4)
O15_2 O 0.5051(5) 0.9156(2) 0.09239(11)
O16_2 O 0.2449(5) 0.8344(2) 0.09239(11)
O20_2 O 0.5047(5) 0.79198(19) 0.13514(12)
C15_2 C 0.9896(9) 0.0922(3) 0.1247(2)
H7_2 H 0.8962 0.0693 0.1240
C16_2 C 0.9896(9) 0.1578(3) 0.1253(2)
H8_2 H 0.8962 0.1807 0.1260
Sc4_2 Sc 0.8750 0.3750 0.13563(4)
O4_2 O 0.7587(5) 0.6665(2) 0.32050(10)
C8_2 C 0.8948(8) 0.6802(3) 0.31788(15)
O5_2 O 0.9949(5) 0.6656(2) 0.34239(11)
C9_2 C 0.9504(7) 0.7166(3) 0.28268(15)
C10_2 C 0.8468(8) 0.7359(4) 0.25497(17)
C11_2 C 0.8976(8) 0.7693(3) 0.22213(16)
H4_2 H 0.7425 0.7267 0.2580
H5_2 H 0.8262 0.7824 0.2031
Sc2_2 Sc 0.6250 0.6250 0.36437(4)
O13_2 O 0.4913(5) 0.5835(2) 0.32050(10)
O14_2 O 0.4949(5) 0.5844(2) 0.40761(11)
O17_2 O 0.7551(5) 0.6656(2) 0.40761(11)
O18_2 O 0.7547(5) 0.54198(19) 0.36486(12)
O19_2 O 0.4953(5) 0.70802(19) 0.36486(12)
O9_3 O 0.0087(5) 0.4165(2) 0.17950(10)
C17_3 C 0.1448(8) 0.4302(3) 0.18212(15)
O10_3 O 0.2449(5) 0.4156(2) 0.15761(11)
C18_3 C 0.2004(7) 0.4666(3) 0.21732(15)
C19_3 C 0.0968(8) 0.4859(4) 0.24503(17)
C20_3 C 0.1476(8) 0.5193(3) 0.27787(16)
H10_3 H 0.0762 0.5324 0.2969
C21_3 C 0.3552(8) 0.5698(3) 0.31788(15)
O12_3 O 0.2551(5) 0.5844(2) 0.34239(11)
C22_3 C 0.2996(7) 0.5334(3) 0.28268(15)
C23_3 C 0.4032(8) 0.5141(4) 0.25497(17)
C24_3 C 0.3524(8) 0.4807(3) 0.22213(16)
H11_3 H 0.5075 0.5233 0.2580
H12_3 H 0.4238 0.4676 0.2031
O15_3 O 0.0051(5) 0.4156(2) 0.09239(11)
O1_3 O 0.7413(5) 0.3335(2) 0.17950(10)
C1_3 C 0.6052(8) 0.3198(3) 0.18212(15)
O2_3 O 0.5051(5) 0.3344(2) 0.15761(11)
C2_3 C 0.5496(7) 0.2834(3) 0.21732(15)
C3_3 C 0.6532(8) 0.2641(4) 0.24503(17)
C4_3 C 0.6024(8) 0.2307(3) 0.27787(16)
O3_3 O 0.7453(5) 0.45802(19) 0.13514(12)
C5_3 C 0.6250 0.4859(4) 0.1250
C6_3 C 0.6250 0.5571(4) 0.1250
C7_3 C 0.7604(9) 0.5922(3) 0.1253(2)
H1_3 H 0.7575 0.2733 0.2420
H2_3 H 0.6738 0.2176 0.2969
H3_3 H 0.8538 0.5693 0.1260
O4_3 O 0.2587(5) 0.1665(2) 0.32050(10)
C8_3 C 0.3948(8) 0.1802(3) 0.31788(15)
O5_3 O 0.4949(5) 0.1656(2) 0.34239(11)
C9_3 C 0.4504(7) 0.2166(3) 0.28268(15)
C10_3 C 0.3468(8) 0.2359(4) 0.25497(17)
C11_3 C 0.3976(8) 0.2693(3) 0.22213(16)
H4_3 H 0.2425 0.2267 0.2580
H5_3 H 0.3262 0.2824 0.2031
O6_3 O 0.7453(5) 0.79198(19) 0.11486(12)
C12_3 C 0.6250 0.7641(4) 0.1250
C13_3 C 0.6250 0.6929(4) 0.1250
C14_3 C 0.7604(9) 0.6578(3) 0.1247(2)
H6_3 H 0.8538 0.6807 0.1240
O7_3 O 0.5047(5) 0.45802(19) 0.11486(12)
C15_3 C 0.4896(9) 0.5922(3) 0.1247(2)
H7_3 H 0.3962 0.5693 0.1240
C16_3 C 0.4896(9) 0.6578(3) 0.1253(2)
H8_3 H 0.3962 0.6807 0.1260
H9_3 H 0.9925 0.4767 0.2420
O16_3 O 0.7449(5) 0.3344(2) 0.09239(11)
O17_3 O 0.2551(5) 0.1656(2) 0.40761(11)
O18_3 O 0.2547(5) 0.04198(19) 0.36486(12)
O14_3 O 0.9949(5) 0.0844(2) 0.40761(11)
O19_3 O 0.9953(5) 0.20802(19) 0.36486(12)
C20_4 C 0.1476(8) 0.0193(3) 0.77787(16)
H10_4 H 0.0762 0.0324 0.7969
C21_4 C 0.3552(8) 0.0698(3) 0.81788(15)
O12_4 O 0.2551(5) 0.0844(2) 0.84239(11)
C22_4 C 0.2996(7) 0.0334(3) 0.78268(15)
C23_4 C 0.4032(8) 0.0141(4) 0.75497(17)
H11_4 H 0.5075 0.0233 0.7580
O9_4 O 0.0087(5) 0.9165(2) 0.67950(10)
C17_4 C 0.1448(8) 0.9302(3) 0.68212(15)
O10_4 O 0.2449(5) 0.9156(2) 0.65761(11)
C18_4 C 0.2004(7) 0.9666(3) 0.71732(15)
C19_4 C 0.0968(8) 0.9859(4) 0.74503(17)
C24_4 C 0.3524(8) 0.9807(3) 0.72213(16)
H12_4 H 0.4238 0.9676 0.7031
O15_4 O 0.0051(5) 0.9156(2) 0.59239(11)
C6_4 C 0.6250 0.0571(4) 0.6250
C7_4 C 0.7604(9) 0.0922(3) 0.6253(2)
H3_4 H 0.8538 0.0693 0.6260
O6_4 O 0.7453(5) 0.29198(19) 0.61486(12)
C12_4 C 0.6250 0.2641(4) 0.6250
C13_4 C 0.6250 0.1929(4) 0.6250
C14_4 C 0.7604(9) 0.1578(3) 0.6247(2)
H6_4 H 0.8538 0.1807 0.6240
C15_4 C 0.4896(9) 0.0922(3) 0.6247(2)
H7_4 H 0.3962 0.0693 0.6240
C16_4 C 0.4896(9) 0.1578(3) 0.6253(2)
H8_4 H 0.3962 0.1807 0.6260
O1_4 O 0.7413(5) 0.8335(2) 0.67950(10)
C1_4 C 0.6052(8) 0.8198(3) 0.68212(15)
O2_4 O 0.5051(5) 0.8344(2) 0.65761(11)
C2_4 C 0.5496(7) 0.7834(3) 0.71732(15)
C3_4 C 0.6532(8) 0.7641(4) 0.74503(17)
C4_4 C 0.6024(8) 0.7307(3) 0.77787(16)
O3_4 O 0.7453(5) 0.95802(19) 0.63514(12)
C5_4 C 0.6250 0.9859(4) 0.6250
H1_4 H 0.7575 0.7733 0.7420
H2_4 H 0.6738 0.7176 0.7969
O4_4 O 0.2587(5) 0.6665(2) 0.82050(10)
C8_4 C 0.3948(8) 0.6802(3) 0.81788(15)
O5_4 O 0.4949(5) 0.6656(2) 0.84239(11)
C9_4 C 0.4504(7) 0.7166(3) 0.78268(15)
C10_4 C 0.3468(8) 0.7359(4) 0.75497(17)
C11_4 C 0.3976(8) 0.7693(3) 0.72213(16)
H4_4 H 0.2425 0.7267 0.7580
H5_4 H 0.3262 0.7824 0.7031
O7_4 O 0.5047(5) 0.95802(19) 0.61486(12)
H9_4 H 0.9925 0.9767 0.7420
O16_4 O 0.7449(5) 0.8344(2) 0.59239(11)
O17_4 O 0.2551(5) 0.6656(2) 0.90761(11)
O18_4 O 0.2547(5) 0.54198(19) 0.86486(12)
O14_4 O 0.9949(5) 0.5844(2) 0.90761(11)
O19_4 O 0.9953(5) 0.70802(19) 0.86486(12)
H11_5 H 0.0075 0.7267 0.4920
C4_5 C 0.1024(8) 0.0193(3) 0.47213(16)
H2_5 H 0.1738 0.0324 0.4531
O1_5 O 0.2413(5) 0.9165(2) 0.57050(10)
C1_5 C 0.1052(8) 0.9302(3) 0.56788(15)
C2_5 C 0.0496(7) 0.9666(3) 0.53268(15)
C3_5 C 0.1532(8) 0.9859(4) 0.50497(17)
H1_5 H 0.2575 0.9767 0.5080
O9_5 O 0.5087(5) 0.8335(2) 0.57050(10)
C17_5 C 0.6448(8) 0.8198(3) 0.56788(15)
C18_5 C 0.7004(7) 0.7834(3) 0.53268(15)
C19_5 C 0.5968(8) 0.7641(4) 0.50497(17)
C20_5 C 0.6476(8) 0.7307(3) 0.47213(16)
H9_5 H 0.4925 0.7733 0.5080
H10_5 H 0.5762 0.7176 0.4531
O11_3 O 0.9913(5) 0.6665(2) 0.42950(10)
C21_5 C 0.8552(8) 0.6802(3) 0.43212(15)
C22_5 C 0.7996(7) 0.7166(3) 0.46732(15)
C23_5 C 0.9032(8) 0.7359(4) 0.49503(17)
C24_5 C 0.8524(8) 0.7693(3) 0.52787(16)
H12_5 H 0.9238 0.7824 0.5469
O4_5 O 0.7587(5) 0.0835(2) 0.42950(10)
C8_5 C 0.8948(8) 0.0698(3) 0.43212(15)
C9_5 C 0.9504(7) 0.0334(3) 0.46732(15)
C10_5 C 0.8468(8) 0.0141(4) 0.49503(17)
H4_5 H 0.7425 0.0233 0.4920
O13_3 O 0.4913(5) 0.1665(2) 0.42950(10)
O18_5 O 0.7547(5) 0.20802(19) 0.38514(12)
O19_5 O 0.4953(5) 0.04198(19) 0.38514(12)
C11_5 C 0.8976(8) 0.9807(3) 0.52787(16)
H5_5 H 0.8262 0.9676 0.5469
H11_6 H 0.0075 0.2267 0.9920
O1_6 O 0.2413(5) 0.4165(2) 0.07050(10)
C1_6 C 0.1052(8) 0.4302(3) 0.06788(15)
C2_6 C 0.0496(7) 0.4666(3) 0.03268(15)
C3_6 C 0.1532(8) 0.4859(4) 0.00497(17)
H1_6 H 0.2575 0.4767 0.0080
O9_6 O 0.5087(5) 0.3335(2) 0.07050(10)
C17_6 C 0.6448(8) 0.3198(3) 0.06788(15)
C18_6 C 0.7004(7) 0.2834(3) 0.03268(15)
C19_6 C 0.5968(8) 0.2641(4) 0.00497(17)
H9_6 H 0.4925 0.2733 0.0080
C24_6 C 0.8524(8) 0.2693(3) 0.02787(16)
H12_6 H 0.9238 0.2824 0.0469
C4_6 C 0.1024(8) 0.5193(3) 0.97213(16)
H2_6 H 0.1738 0.5324 0.9531
C20_6 C 0.6476(8) 0.2307(3) 0.97213(16)
H10_6 H 0.5762 0.2176 0.9531
O11_4 O 0.9913(5) 0.1665(2) 0.92950(10)
C21_6 C 0.8552(8) 0.1802(3) 0.93212(15)
C22_6 C 0.7996(7) 0.2166(3) 0.96732(15)
C23_6 C 0.9032(8) 0.2359(4) 0.99503(17)
C11_6 C 0.8976(8) 0.4807(3) 0.02787(16)
H5_6 H 0.8262 0.4676 0.0469
O4_6 O 0.7587(5) 0.5835(2) 0.92950(10)
C8_6 C 0.8948(8) 0.5698(3) 0.93212(15)
C9_6 C 0.9504(7) 0.5334(3) 0.96732(15)
C10_6 C 0.8468(8) 0.5141(4) 0.99503(17)
H4_6 H 0.7425 0.5233 0.9920
O13_4 O 0.4913(5) 0.6665(2) 0.92950(10)
O18_6 O 0.7547(5) 0.70802(19) 0.88514(12)
O19_6 O 0.4953(5) 0.54198(19) 0.88514(12)
O9_7 O 0.0087(5) 0.8335(2) 0.07050(10)
C17_7 C 0.1448(8) 0.8198(3) 0.06788(15)
C18_7 C 0.2004(7) 0.7834(3) 0.03268(15)
C19_7 C 0.0968(8) 0.7641(4) 0.00497(17)
C24_7 C 0.3524(8) 0.7693(3) 0.02787(16)
H12_7 H 0.4238 0.7824 0.0469
C20_7 C 0.1476(8) 0.7307(3) 0.97213(16)
H10_7 H 0.0762 0.7176 0.9531
C21_7 C 0.3552(8) 0.6802(3) 0.93212(15)
C22_7 C 0.2996(7) 0.7166(3) 0.96732(15)
C23_7 C 0.4032(8) 0.7359(4) 0.99503(17)
H11_7 H 0.5075 0.7267 0.9920
C4_7 C 0.6024(8) 0.0193(3) 0.97213(16)
H2_7 H 0.6738 0.0324 0.9531
O4_7 O 0.2587(5) 0.0835(2) 0.92950(10)
C8_7 C 0.3948(8) 0.0698(3) 0.93212(15)
C9_7 C 0.4504(7) 0.0334(3) 0.96732(15)
C10_7 C 0.3468(8) 0.0141(4) 0.99503(17)
H4_7 H 0.2425 0.0233 0.9920
O18_7 O 0.2547(5) 0.20802(19) 0.88514(12)
O1_7 O 0.7413(5) 0.9165(2) 0.07050(10)
C1_7 C 0.6052(8) 0.9302(3) 0.06788(15)
C2_7 C 0.5496(7) 0.9666(3) 0.03268(15)
C3_7 C 0.6532(8) 0.9859(4) 0.00497(17)
H1_7 H 0.7575 0.9767 0.0080
C11_7 C 0.3976(8) 0.9807(3) 0.02787(16)
H5_7 H 0.3262 0.9676 0.0469
H9_7 H 0.9925 0.7733 0.0080
O19_7 O 0.9953(5) 0.04198(19) 0.88514(12)
O9_8 O 0.0087(5) 0.3335(2) 0.57050(10)
C17_8 C 0.1448(8) 0.3198(3) 0.56788(15)
C18_8 C 0.2004(7) 0.2834(3) 0.53268(15)
C19_8 C 0.0968(8) 0.2641(4) 0.50497(17)
C20_8 C 0.1476(8) 0.2307(3) 0.47213(16)
H10_8 H 0.0762 0.2176 0.4531
C21_8 C 0.3552(8) 0.1802(3) 0.43212(15)
C22_8 C 0.2996(7) 0.2166(3) 0.46732(15)
C23_8 C 0.4032(8) 0.2359(4) 0.49503(17)
C24_8 C 0.3524(8) 0.2693(3) 0.52787(16)
H11_8 H 0.5075 0.2267 0.4920
H12_8 H 0.4238 0.2824 0.5469
O1_8 O 0.7413(5) 0.4165(2) 0.57050(10)
C1_8 C 0.6052(8) 0.4302(3) 0.56788(15)
C2_8 C 0.5496(7) 0.4666(3) 0.53268(15)
C3_8 C 0.6532(8) 0.4859(4) 0.50497(17)
C4_8 C 0.6024(8) 0.5193(3) 0.47213(16)
H1_8 H 0.7575 0.4767 0.5080
H2_8 H 0.6738 0.5324 0.4531
O4_8 O 0.2587(5) 0.5835(2) 0.42950(10)
C8_8 C 0.3948(8) 0.5698(3) 0.43212(15)
C9_8 C 0.4504(7) 0.5334(3) 0.46732(15)
C10_8 C 0.3468(8) 0.5141(4) 0.49503(17)
C11_8 C 0.3976(8) 0.4807(3) 0.52787(16)
H4_8 H 0.2425 0.5233 0.4920
H5_8 H 0.3262 0.4676 0.5469
H9_8 H 0.9925 0.2733 0.5080
O18_8 O 0.2547(5) 0.70802(19) 0.38514(12)
O19_8 O 0.9953(5) 0.54198(19) 0.38514(12)
C15_5 C 0.0104(9) 0.4078(3) 0.3753(2)
H7_5 H 0.1038 0.4307 0.3760
C16_5 C 0.0104(9) 0.3422(3) 0.3747(2)
H8_5 H 0.1038 0.3193 0.3740
C5_5 C 0.8750 0.5141(4) 0.3750
C6_5 C 0.8750 0.4429(4) 0.3750
C7_5 C 0.7396(9) 0.4078(3) 0.3747(2)
H3_5 H 0.6462 0.4307 0.3740
C12_5 C 0.8750 0.2359(4) 0.3750
C13_5 C 0.8750 0.3071(4) 0.3750
C14_5 C 0.7396(9) 0.3422(3) 0.3753(2)
H6_5 H 0.6462 0.3193 0.3760
C15_6 C 0.0104(9) 0.9078(3) 0.8753(2)
H7_6 H 0.1038 0.9307 0.8760
C16_6 C 0.0104(9) 0.8422(3) 0.8747(2)
H8_6 H 0.1038 0.8193 0.8740
C5_6 C 0.8750 0.0141(4) 0.8750
C6_6 C 0.8750 0.9429(4) 0.8750
C7_6 C 0.7396(9) 0.9078(3) 0.8747(2)
H3_6 H 0.6462 0.9307 0.8740
C12_6 C 0.8750 0.7359(4) 0.8750
C13_6 C 0.8750 0.8071(4) 0.8750
C14_6 C 0.7396(9) 0.8422(3) 0.8753(2)
H6_6 H 0.6462 0.8193 0.8760
C5_7 C 0.3750 0.5141(4) 0.8750
C6_7 C 0.3750 0.4429(4) 0.8750
C7_7 C 0.2396(9) 0.4078(3) 0.8747(2)
H3_7 H 0.1462 0.4307 0.8740
C12_7 C 0.3750 0.2359(4) 0.8750
C13_7 C 0.3750 0.3071(4) 0.8750
C14_7 C 0.2396(9) 0.3422(3) 0.8753(2)
H6_7 H 0.1462 0.3193 0.8760
C15_7 C 0.5104(9) 0.4078(3) 0.8753(2)
H7_7 H 0.6038 0.4307 0.8760
C16_7 C 0.5104(9) 0.3422(3) 0.8747(2)
H8_7 H 0.6038 0.3193 0.8740
C5_8 C 0.3750 0.0141(4) 0.3750
C6_8 C 0.3750 0.9429(4) 0.3750
C7_8 C 0.2396(9) 0.9078(3) 0.3747(2)
H3_8 H 0.1462 0.9307 0.3740
C12_8 C 0.3750 0.7359(4) 0.3750
C13_8 C 0.3750 0.8071(4) 0.3750
C14_8 C 0.2396(9) 0.8422(3) 0.3753(2)
H6_8 H 0.1462 0.8193 0.3760
C15_8 C 0.5104(9) 0.9078(3) 0.3753(2)
H7_8 H 0.6038 0.9307 0.3760
C16_8 C 0.5104(9) 0.8422(3) 0.3747(2)
H8_8 H 0.6038 0.8193 0.3740
loop_
_geom_bond_atom_site_label_1
_geom_bond_atom_site_label_2
_geom_bond_site_symmetry_1
_geom_bond_site_symmetry_2
Sc1 O1 1_555 1_555
O1 C1 1_555 1_555
C1 O2 1_555 1_555
C2 C1 1_555 1_555
C3 C2 1_555 1_555
C4 C3 1_555 1_555
O3 Sc1 1_555 1_555
C5 O3 1_555 1_555
C6 C5 1_555 1_555
C7 C6 1_555 1_555
H1 C3 1_555 1_555
H2 C4 1_555 1_555
H3 C7 1_555 1_555
O6 C12 1_555 1_555
C12 C13 1_555 1_555
C13 C14 1_555 1_555
C14 C7 1_555 1_555
H6 C14 1_555 1_555
O7 C5 1_555 1_555
O8 C12 1_555 1_555
O9 Sc1 1_555 1_555
C17 O9 1_555 1_555
O10 C17 1_555 1_555
C18 C17 1_555 1_555
C19 C18 1_555 1_555
C20 C19 1_555 1_555
H9 C19 1_555 1_555
H10 C20 1_555 1_555
O11 C21 1_555 1_555
C21 O12 1_555 1_555
O12 Sc5 1_555 1_555
C22 C20 1_555 1_555
C23 C22 1_555 1_555
C24 C18 1_555 1_555
H12 C24 1_555 1_555
Sc6 O6 1_555 1_555
Sc9 O10 1_555 1_555
O15 Sc1 1_555 1_555
O16 Sc1 1_555 1_555
O20 Sc1 1_555 1_555
C21 C22 1_555 1_555
C23 C24 1_555 1_555
O4 C8 1_555 1_555
C8 O5 1_555 1_555
C10 C9 1_555 1_555
H4 C10 1_555 1_555
H5 C11 1_555 1_555
H7 C15 1_555 1_555
H8 C16 1_555 1_555
Sc2 O4 1_555 1_555
O13 Sc2 1_555 1_555
O14 Sc2 1_555 1_555
O17 Sc2 1_555 1_555
O18 Sc2 1_555 1_555
O19 Sc2 1_555 1_555
C8 C9 1_555 1_555
C10 C11 1_555 1_555
C15 C16 1_555 1_555
C7_2 C6_2 1_555 1_555
H3_2 C7_2 1_555 1_555
O6_2 C12_2 1_555 1_555
C12_2 C13_2 1_555 1_555
C13_2 C14_2 1_555 1_555
C14_2 C7_2 1_555 1_555
H6_2 C14_2 1_555 1_555
O8_2 C12_2 1_555 1_555
H10_2 C20_2 1_555 1_555
O11_2 C21_2 1_555 1_555
C21_2 O12_2 1_555 1_555
O12_2 Sc5_2 1_555 1_555
C22_2 C20_2 1_555 1_555
C23_2 C22_2 1_555 1_555
Sc6_2 O6_2 1_555 1_555
C21_2 C22_2 1_555 1_555
Sc1_2 O1_2 1_555 1_555
O1_2 C1_2 1_555 1_555
C1_2 O2_2 1_555 1_555
C2_2 C1_2 1_555 1_555
C3_2 C2_2 1_555 1_555
C4_2 C3_2 1_555 1_555
O3_2 Sc1_2 1_555 1_555
C5_2 O3_2 1_555 1_555
H1_2 C3_2 1_555 1_555
H2_2 C4_2 1_555 1_555
O7_2 C5_2 1_555 1_555
O9_2 Sc1_2 1_555 1_555
C17_2 O9_2 1_555 1_555
O10_2 C17_2 1_555 1_555
C18_2 C17_2 1_555 1_555
C19_2 C18_2 1_555 1_555
H9_2 C19_2 1_555 1_555
C24_2 C18_2 1_555 1_555
H12_2 C24_2 1_555 1_555
Sc9_2 O10_2 1_555 1_555
O15_2 Sc1_2 1_555 1_555
O16_2 Sc1_2 1_555 1_555
O20_2 Sc1_2 1_555 1_555
H7_2 C15_2 1_555 1_555
H8_2 C16_2 1_555 1_555
C15_2 C16_2 1_555 1_555
O4_2 C8_2 1_555 1_555
C8_2 O5_2 1_555 1_555
C10_2 C9_2 1_555 1_555
H4_2 C10_2 1_555 1_555
H5_2 C11_2 1_555 1_555
Sc2_2 O4_2 1_555 1_555
O13_2 Sc2_2 1_555 1_555
O14_2 Sc2_2 1_555 1_555
O17_2 Sc2_2 1_555 1_555
O18_2 Sc2_2 1_555 1_555
O19_2 Sc2_2 1_555 1_555
C8_2 C9_2 1_555 1_555
C10_2 C11_2 1_555 1_555
C17_3 O9_3 1_555 1_555
O10_3 C17_3 1_555 1_555
C18_3 C17_3 1_555 1_555
C19_3 C18_3 1_555 1_555
C20_3 C19_3 1_555 1_555
H10_3 C20_3 1_555 1_555
O13_2 C21_3 1_555 1_555
C21_3 O12_3 1_555 1_555
O12_3 Sc7_2 1_555 1_555
C22_3 C20_3 1_555 1_555
C23_3 C22_3 1_555 1_555
C24_3 C18_3 1_555 1_555
H11_3 C23_3 1_555 1_555
H12_3 C24_3 1_555 1_555
Sc6_2 O10_3 1_555 1_555
C21_3 C22_3 1_555 1_555
C23_3 C24_3 1_555 1_555
Sc4_2 O1_3 1_555 1_555
O1_3 C1_3 1_555 1_555
C1_3 O2_3 1_555 1_555
O2_3 Sc6_2 1_555 1_555
C2_3 C1_3 1_555 1_555
C3_3 C2_3 1_555 1_555
C4_3 C3_3 1_555 1_555
O3_3 Sc4_2 1_555 1_555
C5_3 O3_3 1_555 1_555
C6_3 C5_3 1_555 1_555
C7_3 C6_3 1_555 1_555
H1_3 C3_3 1_555 1_555
H2_3 C4_3 1_555 1_555
H3_3 C7_3 1_555 1_555
O4_3 C8_3 1_555 1_555
C8_3 O5_3 1_555 1_555
O5_3 Sc5_2 1_555 1_555
C9_3 C4_3 1_555 1_555
C10_3 C9_3 1_555 1_555
C11_3 C2_3 1_555 1_555
H4_3 C10_3 1_555 1_555
H5_3 C11_3 1_555 1_555
O6_3 C12_3 1_555 1_555
C12_3 C13_3 1_555 1_555
C13_3 C14_3 1_555 1_555
C14_3 C7_3 1_555 1_555
H6_3 C14_3 1_555 1_555
O7_3 C5_3 1_555 1_555
C15_3 C6_3 1_555 1_555
H7_3 C15_3 1_555 1_555
O20_2 C12_3 1_555 1_555
C16_3 C13_3 1_555 1_555
H8_3 C16_3 1_555 1_555
Sc3_2 O4_3 1_555 1_555
Sc9_2 O6_3 1_555 1_555
Sc6_2 O7_3 1_555 1_555
O16_3 Sc4_2 1_555 1_555
O17_3 Sc3_2 1_555 1_555
O18_3 Sc3_2 1_555 1_555
C8_3 C9_3 1_555 1_555
C10_3 C11_3 1_555 1_555
C15_3 C16_3 1_555 1_555
H10_4 C20_4 1_555 1_555
O13 C21_4 1_555 1_555
C21_4 O12_4 1_555 1_555
O12_4 Sc7 1_555 1_555
C22_4 C20_4 1_555 1_555
C23_4 C22_4 1_555 1_555
H11_4 C23_4 1_555 1_555
C21_4 C22_4 1_555 1_555
C17_4 O9_4 1_555 1_555
O10_4 C17_4 1_555 1_555
C18_4 C17_4 1_555 1_555
C19_4 C18_4 1_555 1_555
C24_4 C18_4 1_555 1_555
H12_4 C24_4 1_555 1_555
Sc6 O10_4 1_555 1_555
C7_4 C6_4 1_555 1_555
H3_4 C7_4 1_555 1_555
O6_4 C12_4 1_555 1_555
C12_4 C13_4 1_555 1_555
C13_4 C14_4 1_555 1_555
C14_4 C7_4 1_555 1_555
H6_4 C14_4 1_555 1_555
C15_4 C6_4 1_555 1_555
H7_4 C15_4 1_555 1_555
O20 C12_4 1_555 1_555
C16_4 C13_4 1_555 1_555
H8_4 C16_4 1_555 1_555
Sc9 O6_4 1_555 1_555
C15_4 C16_4 1_555 1_555
Sc4 O1_4 1_555 1_555
O1_4 C1_4 1_555 1_555
C1_4 O2_4 1_555 1_555
O2_4 Sc6 1_555 1_555
C2_4 C1_4 1_555 1_555
C3_4 C2_4 1_555 1_555
C4_4 C3_4 1_555 1_555
O3_4 Sc4 1_555 1_555
C5_4 O3_4 1_555 1_555
H1_4 C3_4 1_555 1_555
H2_4 C4_4 1_555 1_555
O4_4 C8_4 1_555 1_555
C8_4 O5_4 1_555 1_555
O5_4 Sc5 1_555 1_555
C9_4 C4_4 1_555 1_555
C10_4 C9_4 1_555 1_555
C11_4 C2_4 1_555 1_555
H4_4 C10_4 1_555 1_555
H5_4 C11_4 1_555 1_555
O7_4 C5_4 1_555 1_555
Sc3 O4_4 1_555 1_555
Sc6 O7_4 1_555 1_555
O16_4 Sc4 1_555 1_555
O17_4 Sc3 1_555 1_555
O18_4 Sc3 1_555 1_555
C8_4 C9_4 1_555 1_555
C10_4 C11_4 1_555 1_555
H2_5 C4_5 1_555 1_555
Sc6 O1_5 1_555 1_555
O1_5 C1_5 1_555 1_555
C1_5 O15_4 1_555 1_555
C2_5 C1_5 1_555 1_555
C3_5 C2_5 1_555 1_555
H1_5 C3_5 1_555 1_555
O9_5 Sc6 1_555 1_555
C17_5 O9_5 1_555 1_555
O16_4 C17_5 1_555 1_555
C18_5 C17_5 1_555 1_555
C19_5 C18_5 1_555 1_555
C20_5 C19_5 1_555 1_555
H9_5 C19_5 1_555 1_555
H10_5 C20_5 1_555 1_555
O11_3 C21_5 1_555 1_555
C21_5 O17_2 1_555 1_555
C22_5 C20_5 1_555 1_555
C23_5 C22_5 1_555 1_555
C24_5 C18_5 1_555 1_555
H12_5 C24_5 1_555 1_555
C21_5 C22_5 1_555 1_555
C23_5 C24_5 1_555 1_555
O4_5 C8_5 1_555 1_555
C8_5 O14_3 1_555 1_555
C10_5 C9_5 1_555 1_555
H4_5 C10_5 1_555 1_555
Sc5_2 O4_5 1_555 1_555
O13_3 Sc5_2 1_555 1_555
O18_5 Sc5_2 1_555 1_555
O19_5 Sc5_2 1_555 1_555
C8_5 C9_5 1_555 1_555
H5_5 C11_5 1_555 1_555
Sc6_2 O1_6 1_555 1_555
O1_6 C1_6 1_555 1_555
C1_6 O15_3 1_555 1_555
C2_6 C1_6 1_555 1_555
C3_6 C2_6 1_555 1_555
H1_6 C3_6 1_555 1_555
O9_6 Sc6_2 1_555 1_555
C17_6 O9_6 1_555 1_555
O16_3 C17_6 1_555 1_555
C18_6 C17_6 1_555 1_555
C19_6 C18_6 1_555 1_555
H9_6 C19_6 1_555 1_555
C24_6 C18_6 1_555 1_555
H12_6 C24_6 1_555 1_555
H2_6 C4_6 1_555 1_555
H10_6 C20_6 1_555 1_555
O11_4 C21_6 1_555 1_555
C21_6 O17 1_555 1_555
C22_6 C20_6 1_555 1_555
C23_6 C22_6 1_555 1_555
C21_6 C22_6 1_555 1_555
H5_6 C11_6 1_555 1_555
O4_6 C8_6 1_555 1_555
C8_6 O14_4 1_555 1_555
C10_6 C9_6 1_555 1_555
H4_6 C10_6 1_555 1_555
Sc5 O4_6 1_555 1_555
O13_4 Sc5 1_555 1_555
O18_6 Sc5 1_555 1_555
O19_6 Sc5 1_555 1_555
C8_6 C9_6 1_555 1_555
C17_7 O9_7 1_555 1_555
O16_2 C17_7 1_555 1_555
C18_7 C17_7 1_555 1_555
C19_7 C18_7 1_555 1_555
C24_7 C18_7 1_555 1_555
H12_7 C24_7 1_555 1_555
H10_7 C20_7 1_555 1_555
O13_4 C21_7 1_555 1_555
C21_7 O17_4 1_555 1_555
C22_7 C20_7 1_555 1_555
C23_7 C22_7 1_555 1_555
H11_7 C23_7 1_555 1_555
C21_7 C22_7 1_555 1_555
H2_7 C4_7 1_555 1_555
O4_7 C8_7 1_555 1_555
C8_7 O14 1_555 1_555
C9_7 C4_7 1_555 1_555
C10_7 C9_7 1_555 1_555
H4_7 C10_7 1_555 1_555
Sc7 O4_7 1_555 1_555
O18_7 Sc7 1_555 1_555
C8_7 C9_7 1_555 1_555
Sc9_2 O1_7 1_555 1_555
O1_7 C1_7 1_555 1_555
C1_7 O15_2 1_555 1_555
C2_7 C1_7 1_555 1_555
C3_7 C2_7 1_555 1_555
H1_7 C3_7 1_555 1_555
C11_7 C2_7 1_555 1_555
H5_7 C11_7 1_555 1_555
C17_8 O9_8 1_555 1_555
O16 C17_8 1_555 1_555
C18_8 C17_8 1_555 1_555
C19_8 C18_8 1_555 1_555
C20_8 C19_8 1_555 1_555
H10_8 C20_8 1_555 1_555
O13_3 C21_8 1_555 1_555
C21_8 O17_3 1_555 1_555
C22_8 C20_8 1_555 1_555
C23_8 C22_8 1_555 1_555
C24_8 C18_8 1_555 1_555
H11_8 C23_8 1_555 1_555
H12_8 C24_8 1_555 1_555
C21_8 C22_8 1_555 1_555
C23_8 C24_8 1_555 1_555
Sc9 O1_8 1_555 1_555
O1_8 C1_8 1_555 1_555
C1_8 O15 1_555 1_555
C2_8 C1_8 1_555 1_555
C3_8 C2_8 1_555 1_555
C4_8 C3_8 1_555 1_555
H1_8 C3_8 1_555 1_555
H2_8 C4_8 1_555 1_555
O4_8 C8_8 1_555 1_555
C8_8 O14_2 1_555 1_555
C9_8 C4_8 1_555 1_555
C10_8 C9_8 1_555 1_555
C11_8 C2_8 1_555 1_555
H4_8 C10_8 1_555 1_555
H5_8 C11_8 1_555 1_555
Sc7_2 O4_8 1_555 1_555
O18_8 Sc7_2 1_555 1_555
C8_8 C9_8 1_555 1_555
C10_8 C11_8 1_555 1_555
H7_5 C15_5 1_555 1_555
H8_5 C16_5 1_555 1_555
C15_5 C16_5 1_555 1_555
C5_5 O18_2 1_555 1_555
C6_5 C5_5 1_555 1_555
C7_5 C6_5 1_555 1_555
H3_5 C7_5 1_555 1_555
O18_5 C12_5 1_555 1_555
C12_5 C13_5 1_555 1_555
C13_5 C14_5 1_555 1_555
C14_5 C7_5 1_555 1_555
H6_5 C14_5 1_555 1_555
O19_8 C5_5 1_555 1_555
O19_3 C12_5 1_555 1_555
H7_6 C15_6 1_555 1_555
H8_6 C16_6 1_555 1_555
C15_6 C16_6 1_555 1_555
C5_6 O18 1_555 1_555
O19_7 C5_6 1_555 1_555
C7_6 C6_6 1_555 1_555
H3_6 C7_6 1_555 1_555
O18_6 C12_6 1_555 1_555
C12_6 C13_6 1_555 1_555
C13_6 C14_6 1_555 1_555
C14_6 C7_6 1_555 1_555
H6_6 C14_6 1_555 1_555
O19_4 C12_6 1_555 1_555
C5_7 O18_4 1_555 1_555
C6_7 C5_7 1_555 1_555
C7_7 C6_7 1_555 1_555
H3_7 C7_7 1_555 1_555
O18_7 C12_7 1_555 1_555
C12_7 C13_7 1_555 1_555
C13_7 C14_7 1_555 1_555
C14_7 C7_7 1_555 1_555
H6_7 C14_7 1_555 1_555
O19_6 C5_7 1_555 1_555
C15_7 C6_7 1_555 1_555
H7_7 C15_7 1_555 1_555
O19 C12_7 1_555 1_555
C16_7 C13_7 1_555 1_555
H8_7 C16_7 1_555 1_555
C15_7 C16_7 1_555 1_555
C5_8 O18_3 1_555 1_555
O19_5 C5_8 1_555 1_555
C7_8 C6_8 1_555 1_555
H3_8 C7_8 1_555 1_555
O18_8 C12_8 1_555 1_555
C12_8 C13_8 1_555 1_555
C13_8 C14_8 1_555 1_555
C14_8 C7_8 1_555 1_555
H6_8 C14_8 1_555 1_555
C15_8 C6_8 1_555 1_555
H7_8 C15_8 1_555 1_555
O19_2 C12_8 1_555 1_555
C16_8 C13_8 1_555 1_555
H8_8 C16_8 1_555 1_555
C15_8 C16_8 1_555 1_555

#END
