
###############################################################################
#
# This file contains modified crystal structure data generated from the
# MOF subset of the Cambridge Structural Database (CSD) v543 
# hosted by the Cambridge Crystallographic Data Centre (CCDC).
#
# This work is licensed under the Creative Commons
# Attribution-NonCommercial-ShareAlike 4.0 International License.
# To view a copy of this license, visit
# http://creativecommons.org/licenses/by-nc-sa/4.0/
# or send a letter to
# Creative Commons, PO Box 1866, Mountain View, CA 94042, USA.
#
# CIF created using the CSD Python API on 29 September 2022
# The structure has been converted into the P1 space group
# The structure has a 3D framework
# The original CSD entry HAZGOF15 is in the orthorhombic crystal system
# The framework has been calculated to contain at least 10.0% void space
# The void calculation uses a probe of radius 1.32A, grid spacing 0.4
#
###############################################################################

data_HAZGOF15
_chemical_formula_moiety         '(C192 H96 O96 Sc14)n'
_symmetry_cell_setting           triclinic
_symmetry_space_group_name_H-M   'P 1'
_symmetry_Int_Tables_number      1
_space_group_name_Hall           'P 1'
loop_
_symmetry_equiv_pos_site_id
_symmetry_equiv_pos_as_xyz
1 x,y,z
_cell_length_a                   8.785(6)
_cell_length_b                   20.810(14)
_cell_length_c                   34.48(2)
_cell_angle_alpha                90
_cell_angle_beta                 90
_cell_angle_gamma                90
_cell_volume                     6303.49
loop_
_atom_site_label
_atom_site_type_symbol
_atom_site_fract_x
_atom_site_fract_y
_atom_site_fract_z
H11 H 0.0070 0.5234 0.7579
Sc3 Sc 0.1250 0.6250 0.86421(2)
Sc1 Sc 0.3750 0.3750 0.63579(2)
O1 O 0.2413(3) 0.33339(12) 0.67955(6)
O2 O 0.2452(3) 0.45827(10) 0.63537(7)
O3 O 0.0045(3) 0.33425(13) 0.65734(6)
C1 C 0.1025(4) 0.31979(16) 0.68231(9)
C2 C 0.1250 0.4862(2) 0.6250
C3 C 0.0494(4) 0.28366(17) 0.71756(9)
C4 C 0.1250 0.5586(2) 0.6250
C5 C 0.1520(4) 0.26415(19) 0.74520(10)
C7 C 0.2600(4) 0.59161(15) 0.62533(14)
H1 H 0.2570 0.2734 0.7421
H3 H 0.3539 0.5691 0.6266
C11 C 0.1029(4) 0.2310(2) 0.77766(10)
H5 H 0.1743 0.2179 0.7967
O6 O 0.0048(3) 0.45827(10) 0.61463(7)
O7 O 0.0048(3) 0.79173(10) 0.63537(7)
C13 C 0.1250 0.7638(2) 0.6250
C14 C 0.1250 0.6914(2) 0.6250
O8 O 0.2452(3) 0.79173(10) 0.61463(7)
C16 C 0.2600(4) 0.65839(15) 0.62467(14)
H8 H 0.3539 0.6809 0.6234
O9 O 0.5087(3) 0.41661(12) 0.67955(6)
O10 O 0.7455(3) 0.41575(13) 0.65734(6)
C17 C 0.6475(4) 0.43021(16) 0.68231(9)
C18 C 0.7006(4) 0.46634(17) 0.71756(9)
C19 C 0.5980(4) 0.48585(19) 0.74520(10)
C20 C 0.8529(4) 0.4810(2) 0.72234(10)
H9 H 0.4930 0.4766 0.7421
H10 H 0.9243 0.4679 0.7033
O11 O 0.9913(3) 0.58339(12) 0.82045(6)
C21 C 0.8525(4) 0.56979(16) 0.81769(9)
C22 C 0.7994(4) 0.53366(17) 0.78244(9)
C23 C 0.9020(4) 0.51415(19) 0.75480(10)
C24 C 0.6471(4) 0.5190(2) 0.77766(10)
H12 H 0.5757 0.5321 0.7967
O12 O 0.7545(3) 0.58425(13) 0.84266(6)
Sc5 Sc 0.1250 0.1250 0.88579(2)
Sc6 Sc 0.3750 0.8750 0.61421(2)
Sc7 Sc 0.6250 0.6250 0.88579(2)
Sc9 Sc 0.8750 0.3750 0.61421(2)
O16 O 0.5048(3) 0.29173(10) 0.63537(7)
O18 O 0.2455(3) 0.33425(13) 0.59266(6)
O19 O 0.5045(3) 0.41575(13) 0.59266(6)
C6 C 0.8971(4) 0.2690(2) 0.72234(10)
H2 H 0.8257 0.2821 0.7033
O4 O 0.7587(3) 0.16661(12) 0.82045(6)
C8 C 0.8975(4) 0.18021(16) 0.81769(9)
C9 C 0.9506(4) 0.21634(17) 0.78244(9)
C10 C 0.8480(4) 0.23585(19) 0.75480(10)
H4 H 0.7430 0.2266 0.7579
O5 O 0.9955(3) 0.16575(13) 0.84266(6)
C12 C 0.9900(4) 0.59161(15) 0.62467(14)
H6 H 0.8961 0.5691 0.6234
C15 C 0.9900(4) 0.65839(15) 0.62533(14)
H7 H 0.8961 0.6809 0.6266
Sc2 Sc 0.6250 0.1250 0.86421(2)
Sc4 Sc 0.8750 0.8750 0.63579(2)
O13 O 0.4913(3) 0.08339(12) 0.82045(6)
O14 O 0.7548(3) 0.04173(10) 0.86463(7)
O15 O 0.4952(3) 0.20827(10) 0.86463(7)
O17 O 0.7545(3) 0.16575(13) 0.90734(6)
O20 O 0.4955(3) 0.08425(13) 0.90734(6)
H11_2 H 0.0070 0.0234 0.2579
Sc3_2 Sc 0.1250 0.1250 0.36421(2)
C4_2 C 0.1250 0.0586(2) 0.1250
C7_2 C 0.2600(4) 0.09161(15) 0.12533(14)
H3_2 H 0.3539 0.0691 0.1266
O7_2 O 0.0048(3) 0.29173(10) 0.13537(7)
C13_2 C 0.1250 0.2638(2) 0.1250
C14_2 C 0.1250 0.1914(2) 0.1250
O8_2 O 0.2452(3) 0.29173(10) 0.11463(7)
C16_2 C 0.2600(4) 0.15839(15) 0.12467(14)
H8_2 H 0.3539 0.1809 0.1234
O11_2 O 0.9913(3) 0.08339(12) 0.32045(6)
C21_2 C 0.8525(4) 0.06979(16) 0.31769(9)
C22_2 C 0.7994(4) 0.03366(17) 0.28244(9)
C23_2 C 0.9020(4) 0.01415(19) 0.25480(10)
C24_2 C 0.6471(4) 0.0190(2) 0.27766(10)
H12_2 H 0.5757 0.0321 0.2967
O12_2 O 0.7545(3) 0.08425(13) 0.34266(6)
Sc6_2 Sc 0.3750 0.3750 0.11421(2)
Sc7_2 Sc 0.6250 0.1250 0.38579(2)
Sc1_2 Sc 0.3750 0.8750 0.13579(2)
O1_2 O 0.2413(3) 0.83339(12) 0.17955(6)
O2_2 O 0.2452(3) 0.95827(10) 0.13537(7)
O3_2 O 0.0045(3) 0.83425(13) 0.15734(6)
C1_2 C 0.1025(4) 0.81979(16) 0.18231(9)
C2_2 C 0.1250 0.9862(2) 0.1250
C3_2 C 0.0494(4) 0.78366(17) 0.21756(9)
C5_2 C 0.1520(4) 0.76415(19) 0.24520(10)
H1_2 H 0.2570 0.7734 0.2421
C11_2 C 0.1029(4) 0.7310(2) 0.27766(10)
H5_2 H 0.1743 0.7179 0.2967
O6_2 O 0.0048(3) 0.95827(10) 0.11463(7)
O9_2 O 0.5087(3) 0.91661(12) 0.17955(6)
O10_2 O 0.7455(3) 0.91575(13) 0.15734(6)
C17_2 C 0.6475(4) 0.93021(16) 0.18231(9)
C18_2 C 0.7006(4) 0.96634(17) 0.21756(9)
C19_2 C 0.5980(4) 0.98585(19) 0.24520(10)
C20_2 C 0.8529(4) 0.9810(2) 0.22234(10)
H9_2 H 0.4930 0.9766 0.2421
H10_2 H 0.9243 0.9679 0.2033
Sc5_2 Sc 0.1250 0.6250 0.38579(2)
Sc9_2 Sc 0.8750 0.8750 0.11421(2)
O16_2 O 0.5048(3) 0.79173(10) 0.13537(7)
O18_2 O 0.2455(3) 0.83425(13) 0.09266(6)
O19_2 O 0.5045(3) 0.91575(13) 0.09266(6)
C12_2 C 0.9900(4) 0.09161(15) 0.12467(14)
H6_2 H 0.8961 0.0691 0.1234
C15_2 C 0.9900(4) 0.15839(15) 0.12533(14)
H7_2 H 0.8961 0.1809 0.1266
Sc4_2 Sc 0.8750 0.3750 0.13579(2)
C6_2 C 0.8971(4) 0.7690(2) 0.22234(10)
H2_2 H 0.8257 0.7821 0.2033
O4_2 O 0.7587(3) 0.66661(12) 0.32045(6)
C8_2 C 0.8975(4) 0.68021(16) 0.31769(9)
C9_2 C 0.9506(4) 0.71634(17) 0.28244(9)
C10_2 C 0.8480(4) 0.73585(19) 0.25480(10)
H4_2 H 0.7430 0.7266 0.2579
O5_2 O 0.9955(3) 0.66575(13) 0.34266(6)
Sc2_2 Sc 0.6250 0.6250 0.36421(2)
O13_2 O 0.4913(3) 0.58339(12) 0.32045(6)
O14_2 O 0.7548(3) 0.54173(10) 0.36463(7)
O15_2 O 0.4952(3) 0.70827(10) 0.36463(7)
O17_2 O 0.7545(3) 0.66575(13) 0.40734(6)
O20_2 O 0.4955(3) 0.58425(13) 0.40734(6)
O9_3 O 0.0087(3) 0.41661(12) 0.17955(6)
O10_3 O 0.2455(3) 0.41575(13) 0.15734(6)
C17_3 C 0.1475(4) 0.43021(16) 0.18231(9)
C18_3 C 0.2006(4) 0.46634(17) 0.21756(9)
C19_3 C 0.0980(4) 0.48585(19) 0.24520(10)
C20_3 C 0.3529(4) 0.4810(2) 0.22234(10)
H10_3 H 0.4243 0.4679 0.2033
C21_3 C 0.3525(4) 0.56979(16) 0.31769(9)
C22_3 C 0.2994(4) 0.53366(17) 0.28244(9)
C23_3 C 0.4020(4) 0.51415(19) 0.25480(10)
C24_3 C 0.1471(4) 0.5190(2) 0.27766(10)
H11_3 H 0.5070 0.5234 0.2579
H12_3 H 0.0757 0.5321 0.2967
O12_3 O 0.2545(3) 0.58425(13) 0.34266(6)
O19_3 O 0.0045(3) 0.41575(13) 0.09266(6)
O1_3 O 0.7413(3) 0.33339(12) 0.17955(6)
O2_3 O 0.7452(3) 0.45827(10) 0.13537(7)
O3_3 O 0.5045(3) 0.33425(13) 0.15734(6)
C1_3 C 0.6025(4) 0.31979(16) 0.18231(9)
C2_3 C 0.6250 0.4862(2) 0.1250
C3_3 C 0.5494(4) 0.28366(17) 0.21756(9)
C4_3 C 0.6250 0.5586(2) 0.1250
C5_3 C 0.6520(4) 0.26415(19) 0.24520(10)
C6_3 C 0.3971(4) 0.2690(2) 0.22234(10)
C7_3 C 0.7600(4) 0.59161(15) 0.12533(14)
H1_3 H 0.7570 0.2734 0.2421
H2_3 H 0.3257 0.2821 0.2033
H3_3 H 0.8539 0.5691 0.1266
O4_3 O 0.2587(3) 0.16661(12) 0.32045(6)
C8_3 C 0.3975(4) 0.18021(16) 0.31769(9)
C9_3 C 0.4506(4) 0.21634(17) 0.28244(9)
C10_3 C 0.3480(4) 0.23585(19) 0.25480(10)
C11_3 C 0.6029(4) 0.2310(2) 0.27766(10)
H4_3 H 0.2430 0.2266 0.2579
H5_3 H 0.6743 0.2179 0.2967
O5_3 O 0.4955(3) 0.16575(13) 0.34266(6)
O6_3 O 0.5048(3) 0.45827(10) 0.11463(7)
C12_3 C 0.4900(4) 0.59161(15) 0.12467(14)
H6_3 H 0.3961 0.5691 0.1234
C13_3 C 0.6250 0.7638(2) 0.1250
C14_3 C 0.6250 0.6914(2) 0.1250
C15_3 C 0.4900(4) 0.65839(15) 0.12533(14)
H7_3 H 0.3961 0.6809 0.1266
O8_3 O 0.7452(3) 0.79173(10) 0.11463(7)
C16_3 C 0.7600(4) 0.65839(15) 0.12467(14)
H8_3 H 0.8539 0.6809 0.1234
H9_3 H 0.9930 0.4766 0.2421
O14_3 O 0.2548(3) 0.04173(10) 0.36463(7)
O17_3 O 0.2545(3) 0.16575(13) 0.40734(6)
O18_3 O 0.7455(3) 0.33425(13) 0.09266(6)
O15_3 O 0.9952(3) 0.20827(10) 0.36463(7)
O20_3 O 0.9955(3) 0.08425(13) 0.40734(6)
C21_4 C 0.3525(4) 0.06979(16) 0.81769(9)
C22_4 C 0.2994(4) 0.03366(17) 0.78244(9)
C23_4 C 0.4020(4) 0.01415(19) 0.75480(10)
C24_4 C 0.1471(4) 0.0190(2) 0.77766(10)
H11_4 H 0.5070 0.0234 0.7579
H12_4 H 0.0757 0.0321 0.7967
O12_4 O 0.2545(3) 0.08425(13) 0.84266(6)
O9_4 O 0.0087(3) 0.91661(12) 0.67955(6)
O10_4 O 0.2455(3) 0.91575(13) 0.65734(6)
C17_4 C 0.1475(4) 0.93021(16) 0.68231(9)
C18_4 C 0.2006(4) 0.96634(17) 0.71756(9)
C19_4 C 0.0980(4) 0.98585(19) 0.74520(10)
C20_4 C 0.3529(4) 0.9810(2) 0.72234(10)
H10_4 H 0.4243 0.9679 0.7033
O19_4 O 0.0045(3) 0.91575(13) 0.59266(6)
C4_4 C 0.6250 0.0586(2) 0.6250
C7_4 C 0.7600(4) 0.09161(15) 0.62533(14)
H3_4 H 0.8539 0.0691 0.6266
C12_4 C 0.4900(4) 0.09161(15) 0.62467(14)
H6_4 H 0.3961 0.0691 0.6234
C13_4 C 0.6250 0.2638(2) 0.6250
C14_4 C 0.6250 0.1914(2) 0.6250
C15_4 C 0.4900(4) 0.15839(15) 0.62533(14)
H7_4 H 0.3961 0.1809 0.6266
O8_4 O 0.7452(3) 0.29173(10) 0.61463(7)
C16_4 C 0.7600(4) 0.15839(15) 0.62467(14)
H8_4 H 0.8539 0.1809 0.6234
O1_4 O 0.7413(3) 0.83339(12) 0.67955(6)
O2_4 O 0.7452(3) 0.95827(10) 0.63537(7)
O3_4 O 0.5045(3) 0.83425(13) 0.65734(6)
C1_4 C 0.6025(4) 0.81979(16) 0.68231(9)
C2_4 C 0.6250 0.9862(2) 0.6250
C3_4 C 0.5494(4) 0.78366(17) 0.71756(9)
C5_4 C 0.6520(4) 0.76415(19) 0.74520(10)
C6_4 C 0.3971(4) 0.7690(2) 0.72234(10)
H1_4 H 0.7570 0.7734 0.7421
H2_4 H 0.3257 0.7821 0.7033
O4_4 O 0.2587(3) 0.66661(12) 0.82045(6)
C8_4 C 0.3975(4) 0.68021(16) 0.81769(9)
C9_4 C 0.4506(4) 0.71634(17) 0.78244(9)
C10_4 C 0.3480(4) 0.73585(19) 0.75480(10)
C11_4 C 0.6029(4) 0.7310(2) 0.77766(10)
H4_4 H 0.2430 0.7266 0.7579
H5_4 H 0.6743 0.7179 0.7967
O5_4 O 0.4955(3) 0.66575(13) 0.84266(6)
O6_4 O 0.5048(3) 0.95827(10) 0.61463(7)
H9_4 H 0.9930 0.9766 0.7421
O14_4 O 0.2548(3) 0.54173(10) 0.86463(7)
O17_4 O 0.2545(3) 0.66575(13) 0.90734(6)
O18_4 O 0.7455(3) 0.83425(13) 0.59266(6)
O15_4 O 0.9952(3) 0.70827(10) 0.86463(7)
O20_4 O 0.9955(3) 0.58425(13) 0.90734(6)
H4_5 H 0.0070 0.2266 0.9921
O13_3 O 0.2587(3) 0.08339(12) 0.92955(6)
O15_5 O 0.2548(3) 0.20827(10) 0.88537(7)
O1_5 O 0.5087(3) 0.33339(12) 0.07045(6)
C1_5 C 0.6475(4) 0.31979(16) 0.06769(9)
C3_5 C 0.7006(4) 0.28366(17) 0.03244(9)
C5_5 C 0.5980(4) 0.26415(19) 0.00480(10)
C6_5 C 0.8529(4) 0.2690(2) 0.02766(10)
H1_5 H 0.4930 0.2734 0.0079
H2_5 H 0.9243 0.2821 0.0467
O9_5 O 0.2413(3) 0.41661(12) 0.07045(6)
C17_5 C 0.1025(4) 0.43021(16) 0.06769(9)
C18_5 C 0.0494(4) 0.46634(17) 0.03244(9)
C19_5 C 0.1520(4) 0.48585(19) 0.00480(10)
H9_5 H 0.2570 0.4766 0.0079
O4_5 O 0.9913(3) 0.16661(12) 0.92955(6)
C8_5 C 0.8525(4) 0.18021(16) 0.93231(9)
C9_5 C 0.7994(4) 0.21634(17) 0.96756(9)
C10_5 C 0.9020(4) 0.23585(19) 0.99520(10)
C11_5 C 0.6471(4) 0.2310(2) 0.97234(10)
H5_5 H 0.5757 0.2179 0.9533
C24_5 C 0.1029(4) 0.5190(2) 0.97234(10)
H12_5 H 0.1743 0.5321 0.9533
O14_5 O 0.9952(3) 0.04173(10) 0.88537(7)
C20_5 C 0.8971(4) 0.4810(2) 0.02766(10)
H10_5 H 0.8257 0.4679 0.0467
O11_3 O 0.7587(3) 0.58339(12) 0.92955(6)
C21_5 C 0.8975(4) 0.56979(16) 0.93231(9)
C22_5 C 0.9506(4) 0.53366(17) 0.96756(9)
C23_5 C 0.8480(4) 0.51415(19) 0.99520(10)
H11_5 H 0.7430 0.5234 0.9921
H4_6 H 0.0070 0.7266 0.4921
O13_4 O 0.2587(3) 0.58339(12) 0.42955(6)
O15_6 O 0.2548(3) 0.70827(10) 0.38537(7)
C24_6 C 0.1029(4) 0.0190(2) 0.47234(10)
H12_6 H 0.1743 0.0321 0.4533
O1_6 O 0.5087(3) 0.83339(12) 0.57045(6)
C1_6 C 0.6475(4) 0.81979(16) 0.56769(9)
C3_6 C 0.7006(4) 0.78366(17) 0.53244(9)
C5_6 C 0.5980(4) 0.76415(19) 0.50480(10)
C6_6 C 0.8529(4) 0.7690(2) 0.52766(10)
H1_6 H 0.4930 0.7734 0.5079
H2_6 H 0.9243 0.7821 0.5467
O4_6 O 0.9913(3) 0.66661(12) 0.42955(6)
C8_6 C 0.8525(4) 0.68021(16) 0.43231(9)
C9_6 C 0.7994(4) 0.71634(17) 0.46756(9)
C10_6 C 0.9020(4) 0.73585(19) 0.49520(10)
C11_6 C 0.6471(4) 0.7310(2) 0.47234(10)
H5_6 H 0.5757 0.7179 0.4533
O9_6 O 0.2413(3) 0.91661(12) 0.57045(6)
C17_6 C 0.1025(4) 0.93021(16) 0.56769(9)
C18_6 C 0.0494(4) 0.96634(17) 0.53244(9)
C19_6 C 0.1520(4) 0.98585(19) 0.50480(10)
H9_6 H 0.2570 0.9766 0.5079
O14_6 O 0.9952(3) 0.54173(10) 0.38537(7)
O11_4 O 0.7587(3) 0.08339(12) 0.42955(6)
C21_6 C 0.8975(4) 0.06979(16) 0.43231(9)
C22_6 C 0.9506(4) 0.03366(17) 0.46756(9)
C23_6 C 0.8480(4) 0.01415(19) 0.49520(10)
H11_6 H 0.7430 0.0234 0.4921
C20_6 C 0.8971(4) 0.9810(2) 0.52766(10)
H10_6 H 0.8257 0.9679 0.5467
O1_7 O 0.0087(3) 0.33339(12) 0.57045(6)
C1_7 C 0.1475(4) 0.31979(16) 0.56769(9)
C3_7 C 0.2006(4) 0.28366(17) 0.53244(9)
C5_7 C 0.0980(4) 0.26415(19) 0.50480(10)
C6_7 C 0.3529(4) 0.2690(2) 0.52766(10)
H2_7 H 0.4243 0.2821 0.5467
O4_7 O 0.4913(3) 0.16661(12) 0.42955(6)
C8_7 C 0.3525(4) 0.18021(16) 0.43231(9)
C9_7 C 0.2994(4) 0.21634(17) 0.46756(9)
C10_7 C 0.4020(4) 0.23585(19) 0.49520(10)
C11_7 C 0.1471(4) 0.2310(2) 0.47234(10)
H4_7 H 0.5070 0.2266 0.4921
H5_7 H 0.0757 0.2179 0.4533
O14_7 O 0.4952(3) 0.04173(10) 0.38537(7)
O15_7 O 0.7548(3) 0.20827(10) 0.38537(7)
H1_7 H 0.9930 0.2734 0.5079
O9_7 O 0.7413(3) 0.41661(12) 0.57045(6)
C17_7 C 0.6025(4) 0.43021(16) 0.56769(9)
C18_7 C 0.5494(4) 0.46634(17) 0.53244(9)
C19_7 C 0.6520(4) 0.48585(19) 0.50480(10)
C20_7 C 0.3971(4) 0.4810(2) 0.52766(10)
H9_7 H 0.7570 0.4766 0.5079
H10_7 H 0.3257 0.4679 0.5467
C21_7 C 0.3975(4) 0.56979(16) 0.43231(9)
C22_7 C 0.4506(4) 0.53366(17) 0.46756(9)
C23_7 C 0.3480(4) 0.51415(19) 0.49520(10)
C24_7 C 0.6029(4) 0.5190(2) 0.47234(10)
H11_7 H 0.2430 0.5234 0.4921
H12_7 H 0.6743 0.5321 0.4533
O1_8 O 0.0087(3) 0.83339(12) 0.07045(6)
C1_8 C 0.1475(4) 0.81979(16) 0.06769(9)
C3_8 C 0.2006(4) 0.78366(17) 0.03244(9)
C5_8 C 0.0980(4) 0.76415(19) 0.00480(10)
C6_8 C 0.3529(4) 0.7690(2) 0.02766(10)
H2_8 H 0.4243 0.7821 0.0467
O4_8 O 0.4913(3) 0.66661(12) 0.92955(6)
C8_8 C 0.3525(4) 0.68021(16) 0.93231(9)
C9_8 C 0.2994(4) 0.71634(17) 0.96756(9)
C10_8 C 0.4020(4) 0.73585(19) 0.99520(10)
C11_8 C 0.1471(4) 0.7310(2) 0.97234(10)
H4_8 H 0.5070 0.7266 0.9921
H5_8 H 0.0757 0.7179 0.9533
O14_8 O 0.4952(3) 0.54173(10) 0.88537(7)
O15_8 O 0.7548(3) 0.70827(10) 0.88537(7)
C21_8 C 0.3975(4) 0.06979(16) 0.93231(9)
C22_8 C 0.4506(4) 0.03366(17) 0.96756(9)
C23_8 C 0.3480(4) 0.01415(19) 0.99520(10)
C24_8 C 0.6029(4) 0.0190(2) 0.97234(10)
H11_8 H 0.2430 0.0234 0.9921
H12_8 H 0.6743 0.0321 0.9533
H1_8 H 0.9930 0.7734 0.0079
O9_8 O 0.7413(3) 0.91661(12) 0.07045(6)
C17_8 C 0.6025(4) 0.93021(16) 0.06769(9)
C18_8 C 0.5494(4) 0.96634(17) 0.03244(9)
C19_8 C 0.6520(4) 0.98585(19) 0.00480(10)
C20_8 C 0.3971(4) 0.9810(2) 0.02766(10)
H9_8 H 0.7570 0.9766 0.0079
H10_8 H 0.3257 0.9679 0.0467
C12_5 C 0.0100(4) 0.40839(15) 0.37533(14)
H6_5 H 0.1039 0.4309 0.3766
C15_5 C 0.0100(4) 0.34161(15) 0.37467(14)
H7_5 H 0.1039 0.3191 0.3734
C2_5 C 0.8750 0.5138(2) 0.3750
C4_5 C 0.8750 0.4414(2) 0.3750
C7_5 C 0.7400(4) 0.40839(15) 0.37467(14)
H3_5 H 0.6461 0.4309 0.3734
C13_5 C 0.8750 0.2362(2) 0.3750
C14_5 C 0.8750 0.3086(2) 0.3750
C16_5 C 0.7400(4) 0.34161(15) 0.37533(14)
H8_5 H 0.6461 0.3191 0.3766
C12_6 C 0.0100(4) 0.90839(15) 0.87533(14)
H6_6 H 0.1039 0.9309 0.8766
C15_6 C 0.0100(4) 0.84161(15) 0.87467(14)
H7_6 H 0.1039 0.8191 0.8734
C2_6 C 0.8750 0.0138(2) 0.8750
C4_6 C 0.8750 0.9414(2) 0.8750
C7_6 C 0.7400(4) 0.90839(15) 0.87467(14)
H3_6 H 0.6461 0.9309 0.8734
C13_6 C 0.8750 0.7362(2) 0.8750
C14_6 C 0.8750 0.8086(2) 0.8750
C16_6 C 0.7400(4) 0.84161(15) 0.87533(14)
H8_6 H 0.6461 0.8191 0.8766
C2_7 C 0.3750 0.5138(2) 0.8750
C4_7 C 0.3750 0.4414(2) 0.8750
C7_7 C 0.2400(4) 0.40839(15) 0.87467(14)
H3_7 H 0.1461 0.4309 0.8734
C12_7 C 0.5100(4) 0.40839(15) 0.87533(14)
H6_7 H 0.6039 0.4309 0.8766
C13_7 C 0.3750 0.2362(2) 0.8750
C14_7 C 0.3750 0.3086(2) 0.8750
C15_7 C 0.5100(4) 0.34161(15) 0.87467(14)
H7_7 H 0.6039 0.3191 0.8734
C16_7 C 0.2400(4) 0.34161(15) 0.87533(14)
H8_7 H 0.1461 0.3191 0.8766
C2_8 C 0.3750 0.0138(2) 0.3750
C4_8 C 0.3750 0.9414(2) 0.3750
C7_8 C 0.2400(4) 0.90839(15) 0.37467(14)
H3_8 H 0.1461 0.9309 0.3734
C12_8 C 0.5100(4) 0.90839(15) 0.37533(14)
H6_8 H 0.6039 0.9309 0.3766
C13_8 C 0.3750 0.7362(2) 0.3750
C14_8 C 0.3750 0.8086(2) 0.3750
C15_8 C 0.5100(4) 0.84161(15) 0.37467(14)
H7_8 H 0.6039 0.8191 0.3734
C16_8 C 0.2400(4) 0.84161(15) 0.37533(14)
H8_8 H 0.1461 0.8191 0.3766
loop_
_geom_bond_atom_site_label_1
_geom_bond_atom_site_label_2
_geom_bond_site_symmetry_1
_geom_bond_site_symmetry_2
Sc1 O1 1_555 1_555
O1 C1 1_555 1_555
O2 Sc1 1_555 1_555
O3 C1 1_555 1_555
C1 C3 1_555 1_555
C2 O2 1_555 1_555
C3 C5 1_555 1_555
C4 C2 1_555 1_555
C5 H1 1_555 1_555
C7 C4 1_555 1_555
H3 C7 1_555 1_555
C11 C5 1_555 1_555
H5 C11 1_555 1_555
O6 C2 1_555 1_555
O7 C13 1_555 1_555
C13 C14 1_555 1_555
O8 C13 1_555 1_555
C16 C7 1_555 1_555
H8 C16 1_555 1_555
O9 Sc1 1_555 1_555
O10 C17 1_555 1_555
C17 O9 1_555 1_555
C18 C17 1_555 1_555
C19 C18 1_555 1_555
C20 C18 1_555 1_555
H9 C19 1_555 1_555
H10 C20 1_555 1_555
O11 C21 1_555 1_555
C21 C22 1_555 1_555
C22 C23 1_555 1_555
C23 C20 1_555 1_555
C24 C19 1_555 1_555
H12 C24 1_555 1_555
O12 C21 1_555 1_555
Sc6 O8 1_555 1_555
Sc7 O12 1_555 1_555
Sc9 O10 1_555 1_555
O16 Sc1 1_555 1_555
O18 Sc1 1_555 1_555
O19 Sc1 1_555 1_555
C14 C16 1_555 1_555
C22 C24 1_555 1_555
H2 C6 1_555 1_555
O4 C8 1_555 1_555
C8 C9 1_555 1_555
C9 C10 1_555 1_555
C10 C6 1_555 1_555
H4 C10 1_555 1_555
O5 C8 1_555 1_555
H6 C12 1_555 1_555
C15 C12 1_555 1_555
H7 C15 1_555 1_555
Sc2 O4 1_555 1_555
O13 Sc2 1_555 1_555
O14 Sc2 1_555 1_555
O15 Sc2 1_555 1_555
O17 Sc2 1_555 1_555
O20 Sc2 1_555 1_555
C7_2 C4_2 1_555 1_555
H3_2 C7_2 1_555 1_555
O7_2 C13_2 1_555 1_555
C13_2 C14_2 1_555 1_555
O8_2 C13_2 1_555 1_555
C16_2 C7_2 1_555 1_555
H8_2 C16_2 1_555 1_555
O11_2 C21_2 1_555 1_555
C21_2 C22_2 1_555 1_555
C22_2 C23_2 1_555 1_555
H12_2 C24_2 1_555 1_555
O12_2 C21_2 1_555 1_555
Sc6_2 O8_2 1_555 1_555
Sc7_2 O12_2 1_555 1_555
C14_2 C16_2 1_555 1_555
C22_2 C24_2 1_555 1_555
Sc1_2 O1_2 1_555 1_555
O1_2 C1_2 1_555 1_555
O2_2 Sc1_2 1_555 1_555
O3_2 C1_2 1_555 1_555
C1_2 C3_2 1_555 1_555
C2_2 O2_2 1_555 1_555
C3_2 C5_2 1_555 1_555
C5_2 H1_2 1_555 1_555
C11_2 C5_2 1_555 1_555
H5_2 C11_2 1_555 1_555
O6_2 C2_2 1_555 1_555
O9_2 Sc1_2 1_555 1_555
O10_2 C17_2 1_555 1_555
C17_2 O9_2 1_555 1_555
C18_2 C17_2 1_555 1_555
C19_2 C18_2 1_555 1_555
C20_2 C18_2 1_555 1_555
H9_2 C19_2 1_555 1_555
H10_2 C20_2 1_555 1_555
Sc9_2 O10_2 1_555 1_555
O16_2 Sc1_2 1_555 1_555
O18_2 Sc1_2 1_555 1_555
O19_2 Sc1_2 1_555 1_555
H6_2 C12_2 1_555 1_555
C15_2 C12_2 1_555 1_555
H7_2 C15_2 1_555 1_555
H2_2 C6_2 1_555 1_555
O4_2 C8_2 1_555 1_555
C8_2 C9_2 1_555 1_555
C9_2 C10_2 1_555 1_555
C10_2 C6_2 1_555 1_555
H4_2 C10_2 1_555 1_555
O5_2 C8_2 1_555 1_555
Sc2_2 O4_2 1_555 1_555
O13_2 Sc2_2 1_555 1_555
O14_2 Sc2_2 1_555 1_555
O15_2 Sc2_2 1_555 1_555
O17_2 Sc2_2 1_555 1_555
O20_2 Sc2_2 1_555 1_555
O10_3 C17_3 1_555 1_555
C17_3 O9_3 1_555 1_555
C18_3 C17_3 1_555 1_555
C19_3 C18_3 1_555 1_555
C20_3 C18_3 1_555 1_555
H10_3 C20_3 1_555 1_555
O13_2 C21_3 1_555 1_555
C21_3 C22_3 1_555 1_555
C22_3 C23_3 1_555 1_555
C23_3 C20_3 1_555 1_555
C24_3 C19_3 1_555 1_555
H11_3 C23_3 1_555 1_555
H12_3 C24_3 1_555 1_555
O12_3 C21_3 1_555 1_555
Sc5_2 O12_3 1_555 1_555
Sc6_2 O10_3 1_555 1_555
C22_3 C24_3 1_555 1_555
Sc4_2 O1_3 1_555 1_555
O1_3 C1_3 1_555 1_555
O2_3 Sc4_2 1_555 1_555
O3_3 C1_3 1_555 1_555
C1_3 C3_3 1_555 1_555
C2_3 O2_3 1_555 1_555
C3_3 C5_3 1_555 1_555
C4_3 C2_3 1_555 1_555
C5_3 H1_3 1_555 1_555
C6_3 C3_3 1_555 1_555
C7_3 C4_3 1_555 1_555
H2_3 C6_3 1_555 1_555
H3_3 C7_3 1_555 1_555
O4_3 C8_3 1_555 1_555
C8_3 C9_3 1_555 1_555
C9_3 C10_3 1_555 1_555
C10_3 C6_3 1_555 1_555
C11_3 C5_3 1_555 1_555
H4_3 C10_3 1_555 1_555
H5_3 C11_3 1_555 1_555
O5_3 C8_3 1_555 1_555
O6_3 C2_3 1_555 1_555
C12_3 C4_3 1_555 1_555
H6_3 C12_3 1_555 1_555
O16_2 C13_3 1_555 1_555
C13_3 C14_3 1_555 1_555
C14_3 C15_3 1_555 1_555
C15_3 C12_3 1_555 1_555
H7_3 C15_3 1_555 1_555
O8_3 C13_3 1_555 1_555
C16_3 C7_3 1_555 1_555
H8_3 C16_3 1_555 1_555
Sc3_2 O4_3 1_555 1_555
Sc7_2 O5_3 1_555 1_555
Sc9_2 O8_3 1_555 1_555
Sc6_2 O3_3 1_555 1_555
O14_3 Sc3_2 1_555 1_555
O17_3 Sc3_2 1_555 1_555
O18_3 Sc4_2 1_555 1_555
C9_3 C11_3 1_555 1_555
O6_3 Sc6_2 1_555 1_555
C14_3 C16_3 1_555 1_555
O13 C21_4 1_555 1_555
C21_4 C22_4 1_555 1_555
C22_4 C23_4 1_555 1_555
H11_4 C23_4 1_555 1_555
H12_4 C24_4 1_555 1_555
O12_4 C21_4 1_555 1_555
Sc5 O12_4 1_555 1_555
C22_4 C24_4 1_555 1_555
O10_4 C17_4 1_555 1_555
C17_4 O9_4 1_555 1_555
C18_4 C17_4 1_555 1_555
C19_4 C18_4 1_555 1_555
C20_4 C18_4 1_555 1_555
H10_4 C20_4 1_555 1_555
Sc6 O10_4 1_555 1_555
C7_4 C4_4 1_555 1_555
H3_4 C7_4 1_555 1_555
C12_4 C4_4 1_555 1_555
H6_4 C12_4 1_555 1_555
O16 C13_4 1_555 1_555
C13_4 C14_4 1_555 1_555
C14_4 C15_4 1_555 1_555
C15_4 C12_4 1_555 1_555
H7_4 C15_4 1_555 1_555
O8_4 C13_4 1_555 1_555
C16_4 C7_4 1_555 1_555
H8_4 C16_4 1_555 1_555
Sc9 O8_4 1_555 1_555
C14_4 C16_4 1_555 1_555
Sc4 O1_4 1_555 1_555
O1_4 C1_4 1_555 1_555
O2_4 Sc4 1_555 1_555
O3_4 C1_4 1_555 1_555
C1_4 C3_4 1_555 1_555
C2_4 O2_4 1_555 1_555
C3_4 C5_4 1_555 1_555
C5_4 H1_4 1_555 1_555
C6_4 C3_4 1_555 1_555
H2_4 C6_4 1_555 1_555
O4_4 C8_4 1_555 1_555
C8_4 C9_4 1_555 1_555
C9_4 C10_4 1_555 1_555
C10_4 C6_4 1_555 1_555
C11_4 C5_4 1_555 1_555
H4_4 C10_4 1_555 1_555
H5_4 C11_4 1_555 1_555
O5_4 C8_4 1_555 1_555
O6_4 C2_4 1_555 1_555
Sc3 O4_4 1_555 1_555
Sc7 O5_4 1_555 1_555
Sc6 O3_4 1_555 1_555
O14_4 Sc3 1_555 1_555
O17_4 Sc3 1_555 1_555
O18_4 Sc4 1_555 1_555
C9_4 C11_4 1_555 1_555
O6_4 Sc6 1_555 1_555
O13_3 Sc5 1_555 1_555
O15_5 Sc5 1_555 1_555
Sc6_2 O1_5 1_555 1_555
O1_5 C1_5 1_555 1_555
O18_3 C1_5 1_555 1_555
C1_5 C3_5 1_555 1_555
C3_5 C5_5 1_555 1_555
C5_5 H1_5 1_555 1_555
C6_5 C3_5 1_555 1_555
H2_5 C6_5 1_555 1_555
O9_5 Sc6_2 1_555 1_555
O19_3 C17_5 1_555 1_555
C17_5 O9_5 1_555 1_555
C18_5 C17_5 1_555 1_555
C19_5 C18_5 1_555 1_555
H9_5 C19_5 1_555 1_555
O4_5 C8_5 1_555 1_555
C8_5 C9_5 1_555 1_555
C9_5 C10_5 1_555 1_555
H5_5 C11_5 1_555 1_555
O17 C8_5 1_555 1_555
H12_5 C24_5 1_555 1_555
C9_5 C11_5 1_555 1_555
H10_5 C20_5 1_555 1_555
O11_3 C21_5 1_555 1_555
C21_5 C22_5 1_555 1_555
C22_5 C23_5 1_555 1_555
H11_5 C23_5 1_555 1_555
O20_4 C21_5 1_555 1_555
Sc7 O11_3 1_555 1_555
O13_4 Sc5_2 1_555 1_555
O15_6 Sc5_2 1_555 1_555
H12_6 C24_6 1_555 1_555
Sc6 O1_6 1_555 1_555
O1_6 C1_6 1_555 1_555
O18_4 C1_6 1_555 1_555
C1_6 C3_6 1_555 1_555
C3_6 C5_6 1_555 1_555
C5_6 H1_6 1_555 1_555
C6_6 C3_6 1_555 1_555
H2_6 C6_6 1_555 1_555
O4_6 C8_6 1_555 1_555
C8_6 C9_6 1_555 1_555
C9_6 C10_6 1_555 1_555
C10_6 C6_6 1_555 1_555
C11_6 C5_6 1_555 1_555
H5_6 C11_6 1_555 1_555
O17_2 C8_6 1_555 1_555
O9_6 Sc6 1_555 1_555
O19_4 C17_6 1_555 1_555
C17_6 O9_6 1_555 1_555
C18_6 C17_6 1_555 1_555
C19_6 C18_6 1_555 1_555
H9_6 C19_6 1_555 1_555
C9_6 C11_6 1_555 1_555
O11_4 C21_6 1_555 1_555
C21_6 C22_6 1_555 1_555
C22_6 C23_6 1_555 1_555
H11_6 C23_6 1_555 1_555
O20_3 C21_6 1_555 1_555
Sc7_2 O11_4 1_555 1_555
H10_6 C20_6 1_555 1_555
O1_7 C1_7 1_555 1_555
O18 C1_7 1_555 1_555
C1_7 C3_7 1_555 1_555
C3_7 C5_7 1_555 1_555
C6_7 C3_7 1_555 1_555
H2_7 C6_7 1_555 1_555
O4_7 C8_7 1_555 1_555
C8_7 C9_7 1_555 1_555
C9_7 C10_7 1_555 1_555
C10_7 C6_7 1_555 1_555
C11_7 C5_7 1_555 1_555
H4_7 C10_7 1_555 1_555
H5_7 C11_7 1_555 1_555
O17_3 C8_7 1_555 1_555
Sc7_2 O4_7 1_555 1_555
O14_7 Sc7_2 1_555 1_555
O15_7 Sc7_2 1_555 1_555
C9_7 C11_7 1_555 1_555
O9_7 Sc9 1_555 1_555
O19 C17_7 1_555 1_555
C17_7 O9_7 1_555 1_555
C18_7 C17_7 1_555 1_555
C19_7 C18_7 1_555 1_555
C20_7 C18_7 1_555 1_555
H9_7 C19_7 1_555 1_555
H10_7 C20_7 1_555 1_555
O13_4 C21_7 1_555 1_555
C21_7 C22_7 1_555 1_555
C22_7 C23_7 1_555 1_555
C23_7 C20_7 1_555 1_555
C24_7 C19_7 1_555 1_555
H11_7 C23_7 1_555 1_555
H12_7 C24_7 1_555 1_555
O20_2 C21_7 1_555 1_555
C22_7 C24_7 1_555 1_555
O1_8 C1_8 1_555 1_555
O18_2 C1_8 1_555 1_555
C1_8 C3_8 1_555 1_555
C3_8 C5_8 1_555 1_555
C6_8 C3_8 1_555 1_555
H2_8 C6_8 1_555 1_555
O4_8 C8_8 1_555 1_555
C8_8 C9_8 1_555 1_555
C9_8 C10_8 1_555 1_555
H4_8 C10_8 1_555 1_555
H5_8 C11_8 1_555 1_555
O17_4 C8_8 1_555 1_555
Sc7 O4_8 1_555 1_555
O14_8 Sc7 1_555 1_555
O15_8 Sc7 1_555 1_555
C9_8 C11_8 1_555 1_555
O13_3 C21_8 1_555 1_555
C21_8 C22_8 1_555 1_555
C22_8 C23_8 1_555 1_555
H11_8 C23_8 1_555 1_555
H12_8 C24_8 1_555 1_555
O20 C21_8 1_555 1_555
C22_8 C24_8 1_555 1_555
O9_8 Sc9_2 1_555 1_555
O19_2 C17_8 1_555 1_555
C17_8 O9_8 1_555 1_555
C18_8 C17_8 1_555 1_555
C19_8 C18_8 1_555 1_555
C20_8 C18_8 1_555 1_555
H9_8 C19_8 1_555 1_555
H10_8 C20_8 1_555 1_555
H6_5 C12_5 1_555 1_555
C15_5 C12_5 1_555 1_555
H7_5 C15_5 1_555 1_555
C2_5 O14_2 1_555 1_555
C4_5 C2_5 1_555 1_555
C7_5 C4_5 1_555 1_555
H3_5 C7_5 1_555 1_555
O14_6 C2_5 1_555 1_555
O15_3 C13_5 1_555 1_555
C13_5 C14_5 1_555 1_555
O15_7 C13_5 1_555 1_555
C16_5 C7_5 1_555 1_555
H8_5 C16_5 1_555 1_555
C14_5 C16_5 1_555 1_555
H6_6 C12_6 1_555 1_555
C15_6 C12_6 1_555 1_555
H7_6 C15_6 1_555 1_555
C2_6 O14 1_555 1_555
O14_5 C2_6 1_555 1_555
C7_6 C4_6 1_555 1_555
H3_6 C7_6 1_555 1_555
O15_4 C13_6 1_555 1_555
C13_6 C14_6 1_555 1_555
O15_8 C13_6 1_555 1_555
C16_6 C7_6 1_555 1_555
H8_6 C16_6 1_555 1_555
C14_6 C16_6 1_555 1_555
C2_7 O14_4 1_555 1_555
C4_7 C2_7 1_555 1_555
C7_7 C4_7 1_555 1_555
H3_7 C7_7 1_555 1_555
O14_8 C2_7 1_555 1_555
C12_7 C4_7 1_555 1_555
H6_7 C12_7 1_555 1_555
O15 C13_7 1_555 1_555
C13_7 C14_7 1_555 1_555
C14_7 C15_7 1_555 1_555
C15_7 C12_7 1_555 1_555
H7_7 C15_7 1_555 1_555
O15_5 C13_7 1_555 1_555
C16_7 C7_7 1_555 1_555
H8_7 C16_7 1_555 1_555
C14_7 C16_7 1_555 1_555
C2_8 O14_3 1_555 1_555
O14_7 C2_8 1_555 1_555
C7_8 C4_8 1_555 1_555
H3_8 C7_8 1_555 1_555
C12_8 C4_8 1_555 1_555
H6_8 C12_8 1_555 1_555
O15_2 C13_8 1_555 1_555
C13_8 C14_8 1_555 1_555
C14_8 C15_8 1_555 1_555
C15_8 C12_8 1_555 1_555
H7_8 C15_8 1_555 1_555
O15_6 C13_8 1_555 1_555
C16_8 C7_8 1_555 1_555
H8_8 C16_8 1_555 1_555
C14_8 C16_8 1_555 1_555

#END
