
###############################################################################
#
# This file contains modified crystal structure data generated from the
# MOF subset of the Cambridge Structural Database (CSD) v543 
# hosted by the Cambridge Crystallographic Data Centre (CCDC).
#
# This work is licensed under the Creative Commons
# Attribution-NonCommercial-ShareAlike 4.0 International License.
# To view a copy of this license, visit
# http://creativecommons.org/licenses/by-nc-sa/4.0/
# or send a letter to
# Creative Commons, PO Box 1866, Mountain View, CA 94042, USA.
#
# CIF created using the CSD Python API on 29 September 2022
# The structure has been converted into the P1 space group
# The structure has a 3D framework
# The original CSD entry HAZGOF11 is in the orthorhombic crystal system
# The framework has been calculated to contain at least 10.0% void space
# The void calculation uses a probe of radius 1.32A, grid spacing 0.4
#
###############################################################################

data_HAZGOF11
_chemical_formula_moiety         '(C192 H96 O96 Sc16)n'
_symmetry_cell_setting           triclinic
_symmetry_space_group_name_H-M   'P 1'
_symmetry_Int_Tables_number      1
_space_group_name_Hall           'P 1'
loop_
_symmetry_equiv_pos_site_id
_symmetry_equiv_pos_as_xyz
1 x,y,z
_cell_length_a                   8.7316(5)
_cell_length_b                   20.7231(7)
_cell_length_c                   34.3055(14)
_cell_angle_alpha                90
_cell_angle_beta                 90
_cell_angle_gamma                90
_cell_volume                     6207.44
loop_
_atom_site_label
_atom_site_type_symbol
_atom_site_fract_x
_atom_site_fract_y
_atom_site_fract_z
H11 H 0.0096 0.5239 0.7577
Sc3 Sc 0.1250 0.6250 0.86431(3)
Sc1 Sc 0.3750 0.3750 0.63569(3)
O1 O 0.2418(5) 0.33313(12) 0.67920(9)
C1 C 0.1041(7) 0.32000(17) 0.68219(13)
O2 O 0.0044(4) 0.33409(14) 0.65723(10)
C2 C 0.0490(7) 0.28389(18) 0.71759(12)
C3 C 0.1541(7) 0.2642(3) 0.74521(15)
C4 C 0.1013(8) 0.2300(2) 0.77757(14)
O3 O 0.2447(4) 0.45794(10) 0.63518(10)
C5 C 0.1250 0.4860(2) 0.6250
C6 C 0.1250 0.5587(2) 0.6250
C7 C 0.2600(7) 0.59126(15) 0.62555(19)
H1 H 0.2596 0.2739 0.7423
H2 H 0.1725 0.2159 0.7966
H3 H 0.3539 0.5683 0.6267
O6 O 0.2447(4) 0.79206(10) 0.61482(10)
C12 C 0.1250 0.7640(2) 0.6250
C13 C 0.1250 0.6913(2) 0.6250
C14 C 0.2600(7) 0.65874(15) 0.62445(19)
H6 H 0.3539 0.6817 0.6233
O7 O 0.0053(4) 0.45794(10) 0.61482(10)
O8 O 0.0053(4) 0.79206(10) 0.63518(10)
O9 O 0.5082(5) 0.41687(12) 0.67920(9)
C17 C 0.6459(7) 0.43000(17) 0.68219(13)
O10 O 0.7456(4) 0.41591(14) 0.65723(10)
C18 C 0.7010(7) 0.46611(18) 0.71759(12)
C19 C 0.5959(7) 0.4858(3) 0.74521(15)
C20 C 0.6487(8) 0.5200(2) 0.77757(14)
H9 H 0.4904 0.4761 0.7423
H10 H 0.5775 0.5341 0.7966
O11 O 0.9918(5) 0.58313(12) 0.82080(9)
C21 C 0.8541(7) 0.57000(17) 0.81781(13)
O12 O 0.7544(4) 0.58409(14) 0.84277(10)
C22 C 0.7990(7) 0.53389(18) 0.78241(12)
C23 C 0.9041(7) 0.5142(3) 0.75479(15)
C24 C 0.8513(8) 0.4800(2) 0.72243(14)
H12 H 0.9225 0.4659 0.7034
Sc5 Sc 0.6250 0.6250 0.88569(3)
Sc6 Sc 0.3750 0.8750 0.61431(3)
Sc7 Sc 0.1250 0.1250 0.88569(3)
Sc9 Sc 0.8750 0.3750 0.61431(3)
O15 O 0.5044(4) 0.41591(14) 0.59277(10)
O16 O 0.2456(4) 0.33409(14) 0.59277(10)
O20 O 0.5053(4) 0.29206(10) 0.63518(10)
O4 O 0.7582(5) 0.16687(12) 0.82080(9)
C8 C 0.8959(7) 0.18000(17) 0.81781(13)
O5 O 0.9956(4) 0.16591(14) 0.84277(10)
C9 C 0.9510(7) 0.21611(18) 0.78241(12)
C10 C 0.8459(7) 0.2358(3) 0.75479(15)
C11 C 0.8987(8) 0.2700(2) 0.72243(14)
H4 H 0.7404 0.2261 0.7577
H5 H 0.8275 0.2841 0.7034
C15 C 0.9900(7) 0.59126(15) 0.62445(19)
H7 H 0.8961 0.5683 0.6233
C16 C 0.9900(7) 0.65874(15) 0.62555(19)
H8 H 0.8961 0.6817 0.6267
Sc2 Sc 0.6250 0.1250 0.86431(3)
Sc4 Sc 0.8750 0.8750 0.63569(3)
O13 O 0.4918(5) 0.08313(12) 0.82080(9)
O14 O 0.4956(4) 0.08409(14) 0.90723(10)
O17 O 0.7544(4) 0.16591(14) 0.90723(10)
O18 O 0.7553(4) 0.04206(10) 0.86482(10)
O19 O 0.4947(4) 0.20794(10) 0.86482(10)
H11_2 H 0.0096 0.0239 0.2577
Sc3_2 Sc 0.1250 0.1250 0.36431(3)
C6_2 C 0.1250 0.0587(2) 0.1250
C7_2 C 0.2600(7) 0.09126(15) 0.12555(19)
H3_2 H 0.3539 0.0683 0.1267
O6_2 O 0.2447(4) 0.29206(10) 0.11482(10)
C12_2 C 0.1250 0.2640(2) 0.1250
C13_2 C 0.1250 0.1913(2) 0.1250
C14_2 C 0.2600(7) 0.15874(15) 0.12445(19)
H6_2 H 0.3539 0.1817 0.1233
O8_2 O 0.0053(4) 0.29206(10) 0.13518(10)
C20_2 C 0.6487(8) 0.0200(2) 0.27757(14)
H10_2 H 0.5775 0.0341 0.2966
O11_2 O 0.9918(5) 0.08313(12) 0.32080(9)
C21_2 C 0.8541(7) 0.07000(17) 0.31781(13)
O12_2 O 0.7544(4) 0.08409(14) 0.34277(10)
C22_2 C 0.7990(7) 0.03389(18) 0.28241(12)
C23_2 C 0.9041(7) 0.0142(3) 0.25479(15)
Sc5_2 Sc 0.6250 0.1250 0.38569(3)
Sc6_2 Sc 0.3750 0.3750 0.11431(3)
Sc1_2 Sc 0.3750 0.8750 0.13569(3)
O1_2 O 0.2418(5) 0.83313(12) 0.17920(9)
C1_2 C 0.1041(7) 0.82000(17) 0.18219(13)
O2_2 O 0.0044(4) 0.83409(14) 0.15723(10)
C2_2 C 0.0490(7) 0.78389(18) 0.21759(12)
C3_2 C 0.1541(7) 0.7642(3) 0.24521(15)
C4_2 C 0.1013(8) 0.7300(2) 0.27757(14)
O3_2 O 0.2447(4) 0.95794(10) 0.13518(10)
C5_2 C 0.1250 0.9860(2) 0.1250
H1_2 H 0.2596 0.7739 0.2423
H2_2 H 0.1725 0.7159 0.2966
O7_2 O 0.0053(4) 0.95794(10) 0.11482(10)
O9_2 O 0.5082(5) 0.91687(12) 0.17920(9)
C17_2 C 0.6459(7) 0.93000(17) 0.18219(13)
O10_2 O 0.7456(4) 0.91591(14) 0.15723(10)
C18_2 C 0.7010(7) 0.96611(18) 0.21759(12)
C19_2 C 0.5959(7) 0.9858(3) 0.24521(15)
H9_2 H 0.4904 0.9761 0.2423
C24_2 C 0.8513(8) 0.9800(2) 0.22243(14)
H12_2 H 0.9225 0.9659 0.2034
Sc7_2 Sc 0.1250 0.6250 0.38569(3)
Sc9_2 Sc 0.8750 0.8750 0.11431(3)
O15_2 O 0.5044(4) 0.91591(14) 0.09277(10)
O16_2 O 0.2456(4) 0.83409(14) 0.09277(10)
O20_2 O 0.5053(4) 0.79206(10) 0.13518(10)
C15_2 C 0.9900(7) 0.09126(15) 0.12445(19)
H7_2 H 0.8961 0.0683 0.1233
C16_2 C 0.9900(7) 0.15874(15) 0.12555(19)
H8_2 H 0.8961 0.1817 0.1267
Sc4_2 Sc 0.8750 0.3750 0.13569(3)
O4_2 O 0.7582(5) 0.66687(12) 0.32080(9)
C8_2 C 0.8959(7) 0.68000(17) 0.31781(13)
O5_2 O 0.9956(4) 0.66591(14) 0.34277(10)
C9_2 C 0.9510(7) 0.71611(18) 0.28241(12)
C10_2 C 0.8459(7) 0.7358(3) 0.25479(15)
C11_2 C 0.8987(8) 0.7700(2) 0.22243(14)
H4_2 H 0.7404 0.7261 0.2577
H5_2 H 0.8275 0.7841 0.2034
Sc2_2 Sc 0.6250 0.6250 0.36431(3)
O13_2 O 0.4918(5) 0.58313(12) 0.32080(9)
O14_2 O 0.4956(4) 0.58409(14) 0.40723(10)
O17_2 O 0.7544(4) 0.66591(14) 0.40723(10)
O18_2 O 0.7553(4) 0.54206(10) 0.36482(10)
O19_2 O 0.4947(4) 0.70794(10) 0.36482(10)
O9_3 O 0.0082(5) 0.41687(12) 0.17920(9)
C17_3 C 0.1459(7) 0.43000(17) 0.18219(13)
O10_3 O 0.2456(4) 0.41591(14) 0.15723(10)
C18_3 C 0.2010(7) 0.46611(18) 0.21759(12)
C19_3 C 0.0959(7) 0.4858(3) 0.24521(15)
C20_3 C 0.1487(8) 0.5200(2) 0.27757(14)
H10_3 H 0.0775 0.5341 0.2966
C21_3 C 0.3541(7) 0.57000(17) 0.31781(13)
O12_3 O 0.2544(4) 0.58409(14) 0.34277(10)
C22_3 C 0.2990(7) 0.53389(18) 0.28241(12)
C23_3 C 0.4041(7) 0.5142(3) 0.25479(15)
C24_3 C 0.3513(8) 0.4800(2) 0.22243(14)
H11_3 H 0.5096 0.5239 0.2577
H12_3 H 0.4225 0.4659 0.2034
O15_3 O 0.0044(4) 0.41591(14) 0.09277(10)
O1_3 O 0.7418(5) 0.33313(12) 0.17920(9)
C1_3 C 0.6041(7) 0.32000(17) 0.18219(13)
O2_3 O 0.5044(4) 0.33409(14) 0.15723(10)
C2_3 C 0.5490(7) 0.28389(18) 0.21759(12)
C3_3 C 0.6541(7) 0.2642(3) 0.24521(15)
C4_3 C 0.6013(8) 0.2300(2) 0.27757(14)
O3_3 O 0.7447(4) 0.45794(10) 0.13518(10)
C5_3 C 0.6250 0.4860(2) 0.1250
C6_3 C 0.6250 0.5587(2) 0.1250
C7_3 C 0.7600(7) 0.59126(15) 0.12555(19)
H1_3 H 0.7596 0.2739 0.2423
H2_3 H 0.6725 0.2159 0.2966
H3_3 H 0.8539 0.5683 0.1267
O4_3 O 0.2582(5) 0.16687(12) 0.32080(9)
C8_3 C 0.3959(7) 0.18000(17) 0.31781(13)
O5_3 O 0.4956(4) 0.16591(14) 0.34277(10)
C9_3 C 0.4510(7) 0.21611(18) 0.28241(12)
C10_3 C 0.3459(7) 0.2358(3) 0.25479(15)
C11_3 C 0.3987(8) 0.2700(2) 0.22243(14)
H4_3 H 0.2404 0.2261 0.2577
H5_3 H 0.3275 0.2841 0.2034
O6_3 O 0.7447(4) 0.79206(10) 0.11482(10)
C12_3 C 0.6250 0.7640(2) 0.1250
C13_3 C 0.6250 0.6913(2) 0.1250
C14_3 C 0.7600(7) 0.65874(15) 0.12445(19)
H6_3 H 0.8539 0.6817 0.1233
O7_3 O 0.5053(4) 0.45794(10) 0.11482(10)
C15_3 C 0.4900(7) 0.59126(15) 0.12445(19)
H7_3 H 0.3961 0.5683 0.1233
C16_3 C 0.4900(7) 0.65874(15) 0.12555(19)
H8_3 H 0.3961 0.6817 0.1267
H9_3 H 0.9904 0.4761 0.2423
O16_3 O 0.7456(4) 0.33409(14) 0.09277(10)
O17_3 O 0.2544(4) 0.16591(14) 0.40723(10)
O18_3 O 0.2553(4) 0.04206(10) 0.36482(10)
O14_3 O 0.9956(4) 0.08409(14) 0.40723(10)
O19_3 O 0.9947(4) 0.20794(10) 0.36482(10)
C20_4 C 0.1487(8) 0.0200(2) 0.77757(14)
H10_4 H 0.0775 0.0341 0.7966
C21_4 C 0.3541(7) 0.07000(17) 0.81781(13)
O12_4 O 0.2544(4) 0.08409(14) 0.84277(10)
C22_4 C 0.2990(7) 0.03389(18) 0.78241(12)
C23_4 C 0.4041(7) 0.0142(3) 0.75479(15)
H11_4 H 0.5096 0.0239 0.7577
O9_4 O 0.0082(5) 0.91687(12) 0.67920(9)
C17_4 C 0.1459(7) 0.93000(17) 0.68219(13)
O10_4 O 0.2456(4) 0.91591(14) 0.65723(10)
C18_4 C 0.2010(7) 0.96611(18) 0.71759(12)
C19_4 C 0.0959(7) 0.9858(3) 0.74521(15)
C24_4 C 0.3513(8) 0.9800(2) 0.72243(14)
H12_4 H 0.4225 0.9659 0.7034
O15_4 O 0.0044(4) 0.91591(14) 0.59277(10)
C6_4 C 0.6250 0.0587(2) 0.6250
C7_4 C 0.7600(7) 0.09126(15) 0.62555(19)
H3_4 H 0.8539 0.0683 0.6267
O6_4 O 0.7447(4) 0.29206(10) 0.61482(10)
C12_4 C 0.6250 0.2640(2) 0.6250
C13_4 C 0.6250 0.1913(2) 0.6250
C14_4 C 0.7600(7) 0.15874(15) 0.62445(19)
H6_4 H 0.8539 0.1817 0.6233
C15_4 C 0.4900(7) 0.09126(15) 0.62445(19)
H7_4 H 0.3961 0.0683 0.6233
C16_4 C 0.4900(7) 0.15874(15) 0.62555(19)
H8_4 H 0.3961 0.1817 0.6267
O1_4 O 0.7418(5) 0.83313(12) 0.67920(9)
C1_4 C 0.6041(7) 0.82000(17) 0.68219(13)
O2_4 O 0.5044(4) 0.83409(14) 0.65723(10)
C2_4 C 0.5490(7) 0.78389(18) 0.71759(12)
C3_4 C 0.6541(7) 0.7642(3) 0.74521(15)
C4_4 C 0.6013(8) 0.7300(2) 0.77757(14)
O3_4 O 0.7447(4) 0.95794(10) 0.63518(10)
C5_4 C 0.6250 0.9860(2) 0.6250
H1_4 H 0.7596 0.7739 0.7423
H2_4 H 0.6725 0.7159 0.7966
O4_4 O 0.2582(5) 0.66687(12) 0.82080(9)
C8_4 C 0.3959(7) 0.68000(17) 0.81781(13)
O5_4 O 0.4956(4) 0.66591(14) 0.84277(10)
C9_4 C 0.4510(7) 0.71611(18) 0.78241(12)
C10_4 C 0.3459(7) 0.7358(3) 0.75479(15)
C11_4 C 0.3987(8) 0.7700(2) 0.72243(14)
H4_4 H 0.2404 0.7261 0.7577
H5_4 H 0.3275 0.7841 0.7034
O7_4 O 0.5053(4) 0.95794(10) 0.61482(10)
H9_4 H 0.9904 0.9761 0.7423
O16_4 O 0.7456(4) 0.83409(14) 0.59277(10)
O17_4 O 0.2544(4) 0.66591(14) 0.90723(10)
O18_4 O 0.2553(4) 0.54206(10) 0.86482(10)
O14_4 O 0.9956(4) 0.58409(14) 0.90723(10)
O19_4 O 0.9947(4) 0.70794(10) 0.86482(10)
H11_5 H 0.0096 0.7261 0.4923
C4_5 C 0.1013(8) 0.0200(2) 0.47243(14)
H2_5 H 0.1725 0.0341 0.4534
O1_5 O 0.2418(5) 0.91687(12) 0.57080(9)
C1_5 C 0.1041(7) 0.93000(17) 0.56781(13)
C2_5 C 0.0490(7) 0.96611(18) 0.53241(12)
C3_5 C 0.1541(7) 0.9858(3) 0.50479(15)
H1_5 H 0.2596 0.9761 0.5077
O9_5 O 0.5082(5) 0.83313(12) 0.57080(9)
C17_5 C 0.6459(7) 0.82000(17) 0.56781(13)
C18_5 C 0.7010(7) 0.78389(18) 0.53241(12)
C19_5 C 0.5959(7) 0.7642(3) 0.50479(15)
C20_5 C 0.6487(8) 0.7300(2) 0.47243(14)
H9_5 H 0.4904 0.7739 0.5077
H10_5 H 0.5775 0.7159 0.4534
O11_3 O 0.9918(5) 0.66687(12) 0.42920(9)
C21_5 C 0.8541(7) 0.68000(17) 0.43219(13)
C22_5 C 0.7990(7) 0.71611(18) 0.46759(12)
C23_5 C 0.9041(7) 0.7358(3) 0.49521(15)
C24_5 C 0.8513(8) 0.7700(2) 0.52757(14)
H12_5 H 0.9225 0.7841 0.5466
O4_5 O 0.7582(5) 0.08313(12) 0.42920(9)
C8_5 C 0.8959(7) 0.07000(17) 0.43219(13)
C9_5 C 0.9510(7) 0.03389(18) 0.46759(12)
C10_5 C 0.8459(7) 0.0142(3) 0.49521(15)
H4_5 H 0.7404 0.0239 0.4923
O13_3 O 0.4918(5) 0.16687(12) 0.42920(9)
O18_5 O 0.7553(4) 0.20794(10) 0.38518(10)
O19_5 O 0.4947(4) 0.04206(10) 0.38518(10)
C11_5 C 0.8987(8) 0.9800(2) 0.52757(14)
H5_5 H 0.8275 0.9659 0.5466
H11_6 H 0.0096 0.2261 0.9923
O1_6 O 0.2418(5) 0.41687(12) 0.07080(9)
C1_6 C 0.1041(7) 0.43000(17) 0.06781(13)
C2_6 C 0.0490(7) 0.46611(18) 0.03241(12)
C3_6 C 0.1541(7) 0.4858(3) 0.00479(15)
H1_6 H 0.2596 0.4761 0.0077
O9_6 O 0.5082(5) 0.33313(12) 0.07080(9)
C17_6 C 0.6459(7) 0.32000(17) 0.06781(13)
C18_6 C 0.7010(7) 0.28389(18) 0.03241(12)
C19_6 C 0.5959(7) 0.2642(3) 0.00479(15)
H9_6 H 0.4904 0.2739 0.0077
C24_6 C 0.8513(8) 0.2700(2) 0.02757(14)
H12_6 H 0.9225 0.2841 0.0466
C4_6 C 0.1013(8) 0.5200(2) 0.97243(14)
H2_6 H 0.1725 0.5341 0.9534
C20_6 C 0.6487(8) 0.2300(2) 0.97243(14)
H10_6 H 0.5775 0.2159 0.9534
O11_4 O 0.9918(5) 0.16687(12) 0.92920(9)
C21_6 C 0.8541(7) 0.18000(17) 0.93219(13)
C22_6 C 0.7990(7) 0.21611(18) 0.96759(12)
C23_6 C 0.9041(7) 0.2358(3) 0.99521(15)
C11_6 C 0.8987(8) 0.4800(2) 0.02757(14)
H5_6 H 0.8275 0.4659 0.0466
O4_6 O 0.7582(5) 0.58313(12) 0.92920(9)
C8_6 C 0.8959(7) 0.57000(17) 0.93219(13)
C9_6 C 0.9510(7) 0.53389(18) 0.96759(12)
C10_6 C 0.8459(7) 0.5142(3) 0.99521(15)
H4_6 H 0.7404 0.5239 0.9923
O13_4 O 0.4918(5) 0.66687(12) 0.92920(9)
O18_6 O 0.7553(4) 0.70794(10) 0.88518(10)
O19_6 O 0.4947(4) 0.54206(10) 0.88518(10)
O9_7 O 0.0082(5) 0.83313(12) 0.07080(9)
C17_7 C 0.1459(7) 0.82000(17) 0.06781(13)
C18_7 C 0.2010(7) 0.78389(18) 0.03241(12)
C19_7 C 0.0959(7) 0.7642(3) 0.00479(15)
C24_7 C 0.3513(8) 0.7700(2) 0.02757(14)
H12_7 H 0.4225 0.7841 0.0466
C20_7 C 0.1487(8) 0.7300(2) 0.97243(14)
H10_7 H 0.0775 0.7159 0.9534
C21_7 C 0.3541(7) 0.68000(17) 0.93219(13)
C22_7 C 0.2990(7) 0.71611(18) 0.96759(12)
C23_7 C 0.4041(7) 0.7358(3) 0.99521(15)
H11_7 H 0.5096 0.7261 0.9923
C4_7 C 0.6013(8) 0.0200(2) 0.97243(14)
H2_7 H 0.6725 0.0341 0.9534
O4_7 O 0.2582(5) 0.08313(12) 0.92920(9)
C8_7 C 0.3959(7) 0.07000(17) 0.93219(13)
C9_7 C 0.4510(7) 0.03389(18) 0.96759(12)
C10_7 C 0.3459(7) 0.0142(3) 0.99521(15)
H4_7 H 0.2404 0.0239 0.9923
O18_7 O 0.2553(4) 0.20794(10) 0.88518(10)
O1_7 O 0.7418(5) 0.91687(12) 0.07080(9)
C1_7 C 0.6041(7) 0.93000(17) 0.06781(13)
C2_7 C 0.5490(7) 0.96611(18) 0.03241(12)
C3_7 C 0.6541(7) 0.9858(3) 0.00479(15)
H1_7 H 0.7596 0.9761 0.0077
C11_7 C 0.3987(8) 0.9800(2) 0.02757(14)
H5_7 H 0.3275 0.9659 0.0466
H9_7 H 0.9904 0.7739 0.0077
O19_7 O 0.9947(4) 0.04206(10) 0.88518(10)
O9_8 O 0.0082(5) 0.33313(12) 0.57080(9)
C17_8 C 0.1459(7) 0.32000(17) 0.56781(13)
C18_8 C 0.2010(7) 0.28389(18) 0.53241(12)
C19_8 C 0.0959(7) 0.2642(3) 0.50479(15)
C20_8 C 0.1487(8) 0.2300(2) 0.47243(14)
H10_8 H 0.0775 0.2159 0.4534
C21_8 C 0.3541(7) 0.18000(17) 0.43219(13)
C22_8 C 0.2990(7) 0.21611(18) 0.46759(12)
C23_8 C 0.4041(7) 0.2358(3) 0.49521(15)
C24_8 C 0.3513(8) 0.2700(2) 0.52757(14)
H11_8 H 0.5096 0.2261 0.4923
H12_8 H 0.4225 0.2841 0.5466
O1_8 O 0.7418(5) 0.41687(12) 0.57080(9)
C1_8 C 0.6041(7) 0.43000(17) 0.56781(13)
C2_8 C 0.5490(7) 0.46611(18) 0.53241(12)
C3_8 C 0.6541(7) 0.4858(3) 0.50479(15)
C4_8 C 0.6013(8) 0.5200(2) 0.47243(14)
H1_8 H 0.7596 0.4761 0.5077
H2_8 H 0.6725 0.5341 0.4534
O4_8 O 0.2582(5) 0.58313(12) 0.42920(9)
C8_8 C 0.3959(7) 0.57000(17) 0.43219(13)
C9_8 C 0.4510(7) 0.53389(18) 0.46759(12)
C10_8 C 0.3459(7) 0.5142(3) 0.49521(15)
C11_8 C 0.3987(8) 0.4800(2) 0.52757(14)
H4_8 H 0.2404 0.5239 0.4923
H5_8 H 0.3275 0.4659 0.5466
H9_8 H 0.9904 0.2739 0.5077
O18_8 O 0.2553(4) 0.70794(10) 0.38518(10)
O19_8 O 0.9947(4) 0.54206(10) 0.38518(10)
C15_5 C 0.0100(7) 0.40874(15) 0.37555(19)
H7_5 H 0.1039 0.4317 0.3767
C16_5 C 0.0100(7) 0.34126(15) 0.37445(19)
H8_5 H 0.1039 0.3183 0.3733
C5_5 C 0.8750 0.5140(2) 0.3750
C6_5 C 0.8750 0.4413(2) 0.3750
C7_5 C 0.7400(7) 0.40874(15) 0.37445(19)
H3_5 H 0.6461 0.4317 0.3733
C12_5 C 0.8750 0.2360(2) 0.3750
C13_5 C 0.8750 0.3087(2) 0.3750
C14_5 C 0.7400(7) 0.34126(15) 0.37555(19)
H6_5 H 0.6461 0.3183 0.3767
C15_6 C 0.0100(7) 0.90874(15) 0.87555(19)
H7_6 H 0.1039 0.9317 0.8767
C16_6 C 0.0100(7) 0.84126(15) 0.87445(19)
H8_6 H 0.1039 0.8183 0.8733
C5_6 C 0.8750 0.0140(2) 0.8750
C6_6 C 0.8750 0.9413(2) 0.8750
C7_6 C 0.7400(7) 0.90874(15) 0.87445(19)
H3_6 H 0.6461 0.9317 0.8733
C12_6 C 0.8750 0.7360(2) 0.8750
C13_6 C 0.8750 0.8087(2) 0.8750
C14_6 C 0.7400(7) 0.84126(15) 0.87555(19)
H6_6 H 0.6461 0.8183 0.8767
C5_7 C 0.3750 0.5140(2) 0.8750
C6_7 C 0.3750 0.4413(2) 0.8750
C7_7 C 0.2400(7) 0.40874(15) 0.87445(19)
H3_7 H 0.1461 0.4317 0.8733
C12_7 C 0.3750 0.2360(2) 0.8750
C13_7 C 0.3750 0.3087(2) 0.8750
C14_7 C 0.2400(7) 0.34126(15) 0.87555(19)
H6_7 H 0.1461 0.3183 0.8767
C15_7 C 0.5100(7) 0.40874(15) 0.87555(19)
H7_7 H 0.6039 0.4317 0.8767
C16_7 C 0.5100(7) 0.34126(15) 0.87445(19)
H8_7 H 0.6039 0.3183 0.8733
C5_8 C 0.3750 0.0140(2) 0.3750
C6_8 C 0.3750 0.9413(2) 0.3750
C7_8 C 0.2400(7) 0.90874(15) 0.37445(19)
H3_8 H 0.1461 0.9317 0.3733
C12_8 C 0.3750 0.7360(2) 0.3750
C13_8 C 0.3750 0.8087(2) 0.3750
C14_8 C 0.2400(7) 0.84126(15) 0.37555(19)
H6_8 H 0.1461 0.8183 0.3767
C15_8 C 0.5100(7) 0.90874(15) 0.37555(19)
H7_8 H 0.6039 0.9317 0.3767
C16_8 C 0.5100(7) 0.84126(15) 0.37445(19)
H8_8 H 0.6039 0.8183 0.3733
loop_
_geom_bond_atom_site_label_1
_geom_bond_atom_site_label_2
_geom_bond_site_symmetry_1
_geom_bond_site_symmetry_2
Sc1 O1 1_555 1_555
O1 C1 1_555 1_555
C1 O2 1_555 1_555
C2 C1 1_555 1_555
C3 C2 1_555 1_555
C4 C3 1_555 1_555
O3 Sc1 1_555 1_555
C5 O3 1_555 1_555
C6 C5 1_555 1_555
C7 C6 1_555 1_555
H1 C3 1_555 1_555
H2 C4 1_555 1_555
H3 C7 1_555 1_555
O6 C12 1_555 1_555
C12 C13 1_555 1_555
C13 C14 1_555 1_555
C14 C7 1_555 1_555
H6 C14 1_555 1_555
O7 C5 1_555 1_555
O8 C12 1_555 1_555
O9 Sc1 1_555 1_555
C17 O9 1_555 1_555
O10 C17 1_555 1_555
C18 C17 1_555 1_555
C19 C18 1_555 1_555
C20 C19 1_555 1_555
H9 C19 1_555 1_555
H10 C20 1_555 1_555
O11 C21 1_555 1_555
C21 O12 1_555 1_555
O12 Sc5 1_555 1_555
C22 C20 1_555 1_555
C23 C22 1_555 1_555
C24 C18 1_555 1_555
H12 C24 1_555 1_555
Sc6 O6 1_555 1_555
Sc9 O10 1_555 1_555
O15 Sc1 1_555 1_555
O16 Sc1 1_555 1_555
O20 Sc1 1_555 1_555
C21 C22 1_555 1_555
C23 C24 1_555 1_555
O4 C8 1_555 1_555
C8 O5 1_555 1_555
C10 C9 1_555 1_555
H4 C10 1_555 1_555
H5 C11 1_555 1_555
H7 C15 1_555 1_555
H8 C16 1_555 1_555
Sc2 O4 1_555 1_555
O13 Sc2 1_555 1_555
O14 Sc2 1_555 1_555
O17 Sc2 1_555 1_555
O18 Sc2 1_555 1_555
O19 Sc2 1_555 1_555
C8 C9 1_555 1_555
C10 C11 1_555 1_555
C15 C16 1_555 1_555
C7_2 C6_2 1_555 1_555
H3_2 C7_2 1_555 1_555
O6_2 C12_2 1_555 1_555
C12_2 C13_2 1_555 1_555
C13_2 C14_2 1_555 1_555
C14_2 C7_2 1_555 1_555
H6_2 C14_2 1_555 1_555
O8_2 C12_2 1_555 1_555
H10_2 C20_2 1_555 1_555
O11_2 C21_2 1_555 1_555
C21_2 O12_2 1_555 1_555
O12_2 Sc5_2 1_555 1_555
C22_2 C20_2 1_555 1_555
C23_2 C22_2 1_555 1_555
Sc6_2 O6_2 1_555 1_555
C21_2 C22_2 1_555 1_555
Sc1_2 O1_2 1_555 1_555
O1_2 C1_2 1_555 1_555
C1_2 O2_2 1_555 1_555
C2_2 C1_2 1_555 1_555
C3_2 C2_2 1_555 1_555
C4_2 C3_2 1_555 1_555
O3_2 Sc1_2 1_555 1_555
C5_2 O3_2 1_555 1_555
H1_2 C3_2 1_555 1_555
H2_2 C4_2 1_555 1_555
O7_2 C5_2 1_555 1_555
O9_2 Sc1_2 1_555 1_555
C17_2 O9_2 1_555 1_555
O10_2 C17_2 1_555 1_555
C18_2 C17_2 1_555 1_555
C19_2 C18_2 1_555 1_555
H9_2 C19_2 1_555 1_555
C24_2 C18_2 1_555 1_555
H12_2 C24_2 1_555 1_555
Sc9_2 O10_2 1_555 1_555
O15_2 Sc1_2 1_555 1_555
O16_2 Sc1_2 1_555 1_555
O20_2 Sc1_2 1_555 1_555
H7_2 C15_2 1_555 1_555
H8_2 C16_2 1_555 1_555
C15_2 C16_2 1_555 1_555
O4_2 C8_2 1_555 1_555
C8_2 O5_2 1_555 1_555
C10_2 C9_2 1_555 1_555
H4_2 C10_2 1_555 1_555
H5_2 C11_2 1_555 1_555
Sc2_2 O4_2 1_555 1_555
O13_2 Sc2_2 1_555 1_555
O14_2 Sc2_2 1_555 1_555
O17_2 Sc2_2 1_555 1_555
O18_2 Sc2_2 1_555 1_555
O19_2 Sc2_2 1_555 1_555
C8_2 C9_2 1_555 1_555
C10_2 C11_2 1_555 1_555
C17_3 O9_3 1_555 1_555
O10_3 C17_3 1_555 1_555
C18_3 C17_3 1_555 1_555
C19_3 C18_3 1_555 1_555
C20_3 C19_3 1_555 1_555
H10_3 C20_3 1_555 1_555
O13_2 C21_3 1_555 1_555
C21_3 O12_3 1_555 1_555
O12_3 Sc7_2 1_555 1_555
C22_3 C20_3 1_555 1_555
C23_3 C22_3 1_555 1_555
C24_3 C18_3 1_555 1_555
H11_3 C23_3 1_555 1_555
H12_3 C24_3 1_555 1_555
Sc6_2 O10_3 1_555 1_555
C21_3 C22_3 1_555 1_555
C23_3 C24_3 1_555 1_555
Sc4_2 O1_3 1_555 1_555
O1_3 C1_3 1_555 1_555
C1_3 O2_3 1_555 1_555
O2_3 Sc6_2 1_555 1_555
C2_3 C1_3 1_555 1_555
C3_3 C2_3 1_555 1_555
C4_3 C3_3 1_555 1_555
O3_3 Sc4_2 1_555 1_555
C5_3 O3_3 1_555 1_555
C6_3 C5_3 1_555 1_555
C7_3 C6_3 1_555 1_555
H1_3 C3_3 1_555 1_555
H2_3 C4_3 1_555 1_555
H3_3 C7_3 1_555 1_555
O4_3 C8_3 1_555 1_555
C8_3 O5_3 1_555 1_555
O5_3 Sc5_2 1_555 1_555
C9_3 C4_3 1_555 1_555
C10_3 C9_3 1_555 1_555
C11_3 C2_3 1_555 1_555
H4_3 C10_3 1_555 1_555
H5_3 C11_3 1_555 1_555
O6_3 C12_3 1_555 1_555
C12_3 C13_3 1_555 1_555
C13_3 C14_3 1_555 1_555
C14_3 C7_3 1_555 1_555
H6_3 C14_3 1_555 1_555
O7_3 C5_3 1_555 1_555
C15_3 C6_3 1_555 1_555
H7_3 C15_3 1_555 1_555
O20_2 C12_3 1_555 1_555
C16_3 C13_3 1_555 1_555
H8_3 C16_3 1_555 1_555
Sc3_2 O4_3 1_555 1_555
Sc9_2 O6_3 1_555 1_555
Sc6_2 O7_3 1_555 1_555
O16_3 Sc4_2 1_555 1_555
O17_3 Sc3_2 1_555 1_555
O18_3 Sc3_2 1_555 1_555
C8_3 C9_3 1_555 1_555
C10_3 C11_3 1_555 1_555
C15_3 C16_3 1_555 1_555
H10_4 C20_4 1_555 1_555
O13 C21_4 1_555 1_555
C21_4 O12_4 1_555 1_555
O12_4 Sc7 1_555 1_555
C22_4 C20_4 1_555 1_555
C23_4 C22_4 1_555 1_555
H11_4 C23_4 1_555 1_555
C21_4 C22_4 1_555 1_555
C17_4 O9_4 1_555 1_555
O10_4 C17_4 1_555 1_555
C18_4 C17_4 1_555 1_555
C19_4 C18_4 1_555 1_555
C24_4 C18_4 1_555 1_555
H12_4 C24_4 1_555 1_555
Sc6 O10_4 1_555 1_555
C7_4 C6_4 1_555 1_555
H3_4 C7_4 1_555 1_555
O6_4 C12_4 1_555 1_555
C12_4 C13_4 1_555 1_555
C13_4 C14_4 1_555 1_555
C14_4 C7_4 1_555 1_555
H6_4 C14_4 1_555 1_555
C15_4 C6_4 1_555 1_555
H7_4 C15_4 1_555 1_555
O20 C12_4 1_555 1_555
C16_4 C13_4 1_555 1_555
H8_4 C16_4 1_555 1_555
Sc9 O6_4 1_555 1_555
C15_4 C16_4 1_555 1_555
Sc4 O1_4 1_555 1_555
O1_4 C1_4 1_555 1_555
C1_4 O2_4 1_555 1_555
O2_4 Sc6 1_555 1_555
C2_4 C1_4 1_555 1_555
C3_4 C2_4 1_555 1_555
C4_4 C3_4 1_555 1_555
O3_4 Sc4 1_555 1_555
C5_4 O3_4 1_555 1_555
H1_4 C3_4 1_555 1_555
H2_4 C4_4 1_555 1_555
O4_4 C8_4 1_555 1_555
C8_4 O5_4 1_555 1_555
O5_4 Sc5 1_555 1_555
C9_4 C4_4 1_555 1_555
C10_4 C9_4 1_555 1_555
C11_4 C2_4 1_555 1_555
H4_4 C10_4 1_555 1_555
H5_4 C11_4 1_555 1_555
O7_4 C5_4 1_555 1_555
Sc3 O4_4 1_555 1_555
Sc6 O7_4 1_555 1_555
O16_4 Sc4 1_555 1_555
O17_4 Sc3 1_555 1_555
O18_4 Sc3 1_555 1_555
C8_4 C9_4 1_555 1_555
C10_4 C11_4 1_555 1_555
H2_5 C4_5 1_555 1_555
Sc6 O1_5 1_555 1_555
O1_5 C1_5 1_555 1_555
C1_5 O15_4 1_555 1_555
C2_5 C1_5 1_555 1_555
C3_5 C2_5 1_555 1_555
H1_5 C3_5 1_555 1_555
O9_5 Sc6 1_555 1_555
C17_5 O9_5 1_555 1_555
O16_4 C17_5 1_555 1_555
C18_5 C17_5 1_555 1_555
C19_5 C18_5 1_555 1_555
C20_5 C19_5 1_555 1_555
H9_5 C19_5 1_555 1_555
H10_5 C20_5 1_555 1_555
O11_3 C21_5 1_555 1_555
C21_5 O17_2 1_555 1_555
C22_5 C20_5 1_555 1_555
C23_5 C22_5 1_555 1_555
C24_5 C18_5 1_555 1_555
H12_5 C24_5 1_555 1_555
C21_5 C22_5 1_555 1_555
C23_5 C24_5 1_555 1_555
O4_5 C8_5 1_555 1_555
C8_5 O14_3 1_555 1_555
C10_5 C9_5 1_555 1_555
H4_5 C10_5 1_555 1_555
Sc5_2 O4_5 1_555 1_555
O13_3 Sc5_2 1_555 1_555
O18_5 Sc5_2 1_555 1_555
O19_5 Sc5_2 1_555 1_555
C8_5 C9_5 1_555 1_555
H5_5 C11_5 1_555 1_555
Sc6_2 O1_6 1_555 1_555
O1_6 C1_6 1_555 1_555
C1_6 O15_3 1_555 1_555
C2_6 C1_6 1_555 1_555
C3_6 C2_6 1_555 1_555
H1_6 C3_6 1_555 1_555
O9_6 Sc6_2 1_555 1_555
C17_6 O9_6 1_555 1_555
O16_3 C17_6 1_555 1_555
C18_6 C17_6 1_555 1_555
C19_6 C18_6 1_555 1_555
H9_6 C19_6 1_555 1_555
C24_6 C18_6 1_555 1_555
H12_6 C24_6 1_555 1_555
H2_6 C4_6 1_555 1_555
H10_6 C20_6 1_555 1_555
O11_4 C21_6 1_555 1_555
C21_6 O17 1_555 1_555
C22_6 C20_6 1_555 1_555
C23_6 C22_6 1_555 1_555
C21_6 C22_6 1_555 1_555
H5_6 C11_6 1_555 1_555
O4_6 C8_6 1_555 1_555
C8_6 O14_4 1_555 1_555
C10_6 C9_6 1_555 1_555
H4_6 C10_6 1_555 1_555
Sc5 O4_6 1_555 1_555
O13_4 Sc5 1_555 1_555
O18_6 Sc5 1_555 1_555
O19_6 Sc5 1_555 1_555
C8_6 C9_6 1_555 1_555
C17_7 O9_7 1_555 1_555
O16_2 C17_7 1_555 1_555
C18_7 C17_7 1_555 1_555
C19_7 C18_7 1_555 1_555
C24_7 C18_7 1_555 1_555
H12_7 C24_7 1_555 1_555
H10_7 C20_7 1_555 1_555
O13_4 C21_7 1_555 1_555
C21_7 O17_4 1_555 1_555
C22_7 C20_7 1_555 1_555
C23_7 C22_7 1_555 1_555
H11_7 C23_7 1_555 1_555
C21_7 C22_7 1_555 1_555
H2_7 C4_7 1_555 1_555
O4_7 C8_7 1_555 1_555
C8_7 O14 1_555 1_555
C9_7 C4_7 1_555 1_555
C10_7 C9_7 1_555 1_555
H4_7 C10_7 1_555 1_555
Sc7 O4_7 1_555 1_555
O18_7 Sc7 1_555 1_555
C8_7 C9_7 1_555 1_555
Sc9_2 O1_7 1_555 1_555
O1_7 C1_7 1_555 1_555
C1_7 O15_2 1_555 1_555
C2_7 C1_7 1_555 1_555
C3_7 C2_7 1_555 1_555
H1_7 C3_7 1_555 1_555
C11_7 C2_7 1_555 1_555
H5_7 C11_7 1_555 1_555
C17_8 O9_8 1_555 1_555
O16 C17_8 1_555 1_555
C18_8 C17_8 1_555 1_555
C19_8 C18_8 1_555 1_555
C20_8 C19_8 1_555 1_555
H10_8 C20_8 1_555 1_555
O13_3 C21_8 1_555 1_555
C21_8 O17_3 1_555 1_555
C22_8 C20_8 1_555 1_555
C23_8 C22_8 1_555 1_555
C24_8 C18_8 1_555 1_555
H11_8 C23_8 1_555 1_555
H12_8 C24_8 1_555 1_555
C21_8 C22_8 1_555 1_555
C23_8 C24_8 1_555 1_555
Sc9 O1_8 1_555 1_555
O1_8 C1_8 1_555 1_555
C1_8 O15 1_555 1_555
C2_8 C1_8 1_555 1_555
C3_8 C2_8 1_555 1_555
C4_8 C3_8 1_555 1_555
H1_8 C3_8 1_555 1_555
H2_8 C4_8 1_555 1_555
O4_8 C8_8 1_555 1_555
C8_8 O14_2 1_555 1_555
C9_8 C4_8 1_555 1_555
C10_8 C9_8 1_555 1_555
C11_8 C2_8 1_555 1_555
H4_8 C10_8 1_555 1_555
H5_8 C11_8 1_555 1_555
Sc7_2 O4_8 1_555 1_555
O18_8 Sc7_2 1_555 1_555
C8_8 C9_8 1_555 1_555
C10_8 C11_8 1_555 1_555
H7_5 C15_5 1_555 1_555
H8_5 C16_5 1_555 1_555
C15_5 C16_5 1_555 1_555
C5_5 O18_2 1_555 1_555
C6_5 C5_5 1_555 1_555
C7_5 C6_5 1_555 1_555
H3_5 C7_5 1_555 1_555
O18_5 C12_5 1_555 1_555
C12_5 C13_5 1_555 1_555
C13_5 C14_5 1_555 1_555
C14_5 C7_5 1_555 1_555
H6_5 C14_5 1_555 1_555
O19_8 C5_5 1_555 1_555
O19_3 C12_5 1_555 1_555
H7_6 C15_6 1_555 1_555
H8_6 C16_6 1_555 1_555
C15_6 C16_6 1_555 1_555
C5_6 O18 1_555 1_555
O19_7 C5_6 1_555 1_555
C7_6 C6_6 1_555 1_555
H3_6 C7_6 1_555 1_555
O18_6 C12_6 1_555 1_555
C12_6 C13_6 1_555 1_555
C13_6 C14_6 1_555 1_555
C14_6 C7_6 1_555 1_555
H6_6 C14_6 1_555 1_555
O19_4 C12_6 1_555 1_555
C5_7 O18_4 1_555 1_555
C6_7 C5_7 1_555 1_555
C7_7 C6_7 1_555 1_555
H3_7 C7_7 1_555 1_555
O18_7 C12_7 1_555 1_555
C12_7 C13_7 1_555 1_555
C13_7 C14_7 1_555 1_555
C14_7 C7_7 1_555 1_555
H6_7 C14_7 1_555 1_555
O19_6 C5_7 1_555 1_555
C15_7 C6_7 1_555 1_555
H7_7 C15_7 1_555 1_555
O19 C12_7 1_555 1_555
C16_7 C13_7 1_555 1_555
H8_7 C16_7 1_555 1_555
C15_7 C16_7 1_555 1_555
C5_8 O18_3 1_555 1_555
O19_5 C5_8 1_555 1_555
C7_8 C6_8 1_555 1_555
H3_8 C7_8 1_555 1_555
O18_8 C12_8 1_555 1_555
C12_8 C13_8 1_555 1_555
C13_8 C14_8 1_555 1_555
C14_8 C7_8 1_555 1_555
H6_8 C14_8 1_555 1_555
C15_8 C6_8 1_555 1_555
H7_8 C15_8 1_555 1_555
O19_2 C12_8 1_555 1_555
C16_8 C13_8 1_555 1_555
H8_8 C16_8 1_555 1_555
C15_8 C16_8 1_555 1_555

#END
