
###############################################################################
#
# This file contains modified crystal structure data generated from the
# MOF subset of the Cambridge Structural Database (CSD) v543 
# hosted by the Cambridge Crystallographic Data Centre (CCDC).
#
# This work is licensed under the Creative Commons
# Attribution-NonCommercial-ShareAlike 4.0 International License.
# To view a copy of this license, visit
# http://creativecommons.org/licenses/by-nc-sa/4.0/
# or send a letter to
# Creative Commons, PO Box 1866, Mountain View, CA 94042, USA.
#
# CIF created using the CSD Python API on 29 September 2022
# The structure has been converted into the P1 space group
# The structure has a 3D framework
# The original CSD entry HAZGOF14 is in the orthorhombic crystal system
# The framework has been calculated to contain at least 10.0% void space
# The void calculation uses a probe of radius 1.32A, grid spacing 0.4
#
###############################################################################

data_HAZGOF14
_chemical_formula_moiety         '(C192 H96 O96 Sc10)n'
_symmetry_cell_setting           triclinic
_symmetry_space_group_name_H-M   'P 1'
_symmetry_Int_Tables_number      1
_space_group_name_Hall           'P 1'
loop_
_symmetry_equiv_pos_site_id
_symmetry_equiv_pos_as_xyz
1 x,y,z
_cell_length_a                   8.75040(10)
_cell_length_b                   20.7567(3)
_cell_length_c                   34.3676(5)
_cell_angle_alpha                90
_cell_angle_beta                 90
_cell_angle_gamma                90
_cell_volume                     6242.17
loop_
_atom_site_label
_atom_site_type_symbol
_atom_site_fract_x
_atom_site_fract_y
_atom_site_fract_z
Sc1 Sc 0.3750 0.3750 0.61429(2)
O1 O 0.74122(16) 0.33334(8) 0.67950(4)
O2 O 0.50518(18) 0.45831(7) 0.61468(5)
O3 O 0.50465(18) 0.33436(9) 0.65741(5)
C1 C 0.6024(2) 0.31968(11) 0.68233(6)
C2 C 0.5495(2) 0.28356(12) 0.71749(6)
C3 C 0.6250 0.55843(14) 0.6250
C4 C 0.6250 0.48622(14) 0.6250
C5 C 0.6034(3) 0.23068(15) 0.77766(7)
H1 H 0.6739 0.2176 0.7963
C6 C 0.6522(3) 0.26423(15) 0.74531(7)
H2 H 0.7553 0.2738 0.7423
C7 C 0.7603(3) 0.59171(11) 0.62544(11)
H3 H 0.8525 0.5694 0.6263
O4 O 0.25878(16) 0.16666(8) 0.82050(4)
O5 O 0.49535(18) 0.16564(9) 0.84259(5)
C8 C 0.3976(2) 0.18032(11) 0.81767(6)
C9 C 0.4505(2) 0.21644(12) 0.78251(6)
C10 C 0.3966(3) 0.26932(15) 0.72234(7)
H4 H 0.3261 0.2824 0.7037
C11 C 0.3478(3) 0.23577(15) 0.75469(7)
H5 H 0.2447 0.2262 0.7577
O6 O 0.50518(18) 0.79169(7) 0.63532(5)
C12 C 0.6250 0.69157(14) 0.6250
C13 C 0.6250 0.76378(14) 0.6250
C14 C 0.7603(3) 0.65829(11) 0.62456(11)
H6 H 0.8525 0.6806 0.6237
O7 O 0.74482(18) 0.45831(7) 0.63532(5)
C15 C 0.4897(3) 0.59171(11) 0.62456(11)
H7 H 0.3975 0.5694 0.6237
O8 O 0.74482(18) 0.79169(7) 0.61468(5)
C16 C 0.4897(3) 0.65829(11) 0.62544(11)
H8 H 0.3975 0.6806 0.6263
O9 O 0.00878(16) 0.41666(8) 0.67950(4)
O10 O 0.24535(18) 0.41564(9) 0.65741(5)
C17 C 0.1476(2) 0.43032(11) 0.68233(6)
C18 C 0.2005(2) 0.46644(12) 0.71749(6)
C19 C 0.1466(3) 0.51932(15) 0.77766(7)
H9 H 0.0761 0.5324 0.7963
C20 C 0.0978(3) 0.48577(15) 0.74531(7)
O11 O 0.49122(16) 0.58334(8) 0.82050(4)
O12 O 0.25465(18) 0.58436(9) 0.84259(5)
C21 C 0.3524(2) 0.56968(11) 0.81767(6)
C22 C 0.2995(2) 0.53356(12) 0.78251(6)
C23 C 0.3534(3) 0.48068(15) 0.72234(7)
H11 H 0.4239 0.4676 0.7037
C24 C 0.4022(3) 0.51423(15) 0.75469(7)
H12 H 0.5053 0.5238 0.7577
Sc2 Sc 0.3750 0.8750 0.63571(2)
Sc4 Sc 0.8750 0.3750 0.63571(2)
Sc5 Sc 0.8750 0.8750 0.61429(2)
Sc6 Sc 0.6250 0.6250 0.86429(2)
Sc7 Sc 0.6250 0.1250 0.88571(2)
Sc8 Sc 0.1250 0.6250 0.88571(2)
Sc9 Sc 0.1250 0.1250 0.86429(2)
O13 O 0.50878(16) 0.33334(8) 0.57050(4)
O14 O 0.24122(16) 0.41666(8) 0.57050(4)
O15 O 0.24122(16) 0.83334(8) 0.67950(4)
O16 O 0.50878(16) 0.91666(8) 0.67950(4)
O17 O 0.24482(18) 0.29169(7) 0.61468(5)
O18 O 0.24482(18) 0.95831(7) 0.63532(5)
O19 O 0.24535(18) 0.83436(9) 0.59259(5)
O20 O 0.50465(18) 0.91564(9) 0.59259(5)
H10 H 0.9947 0.4762 0.7423
C3_2 C 0.1250 0.19157(14) 0.6250
C4_2 C 0.1250 0.26378(14) 0.6250
C12_2 C 0.1250 0.05843(14) 0.6250
O7_2 O 0.00518(18) 0.29169(7) 0.63532(5)
C15_2 C 0.2603(3) 0.15829(11) 0.62456(11)
H7_2 H 0.3525 0.1806 0.6237
C16_2 C 0.2603(3) 0.09171(11) 0.62544(11)
H8_2 H 0.3525 0.0694 0.6263
C13_2 C 0.1250 0.98622(14) 0.6250
O8_2 O 0.00518(18) 0.95831(7) 0.61468(5)
C7_2 C 0.9897(3) 0.15829(11) 0.62544(11)
H3_2 H 0.8975 0.1806 0.6263
C14_2 C 0.9897(3) 0.09171(11) 0.62456(11)
H6_2 H 0.8975 0.0694 0.6237
Sc1_2 Sc 0.3750 0.3750 0.13571(2)
O1_2 O 0.00878(16) 0.33334(8) 0.07050(4)
O2_2 O 0.24482(18) 0.45831(7) 0.13532(5)
O3_2 O 0.24535(18) 0.33436(9) 0.09259(5)
C1_2 C 0.1476(2) 0.31968(11) 0.06767(6)
C2_2 C 0.2005(2) 0.28356(12) 0.03251(6)
C3_3 C 0.1250 0.55843(14) 0.1250
C4_3 C 0.1250 0.48622(14) 0.1250
C6_2 C 0.0978(3) 0.26423(15) 0.00469(7)
C10_2 C 0.3534(3) 0.26932(15) 0.02766(7)
H4_2 H 0.4239 0.2824 0.0463
O6_2 O 0.24482(18) 0.79169(7) 0.11468(5)
C12_3 C 0.1250 0.69157(14) 0.1250
C13_3 C 0.1250 0.76378(14) 0.1250
O7_3 O 0.00518(18) 0.45831(7) 0.11468(5)
C15_3 C 0.2603(3) 0.59171(11) 0.12544(11)
H7_3 H 0.3525 0.5694 0.1263
O8_3 O 0.00518(18) 0.79169(7) 0.13532(5)
C16_3 C 0.2603(3) 0.65829(11) 0.12456(11)
H8_3 H 0.3525 0.6806 0.1237
O9_2 O 0.74122(16) 0.41666(8) 0.07050(4)
O10_2 O 0.50465(18) 0.41564(9) 0.09259(5)
C17_2 C 0.6024(2) 0.43032(11) 0.06767(6)
C18_2 C 0.5495(2) 0.46644(12) 0.03251(6)
C20_2 C 0.6522(3) 0.48577(15) 0.00469(7)
H10_2 H 0.7553 0.4762 0.0077
C23_2 C 0.3966(3) 0.48068(15) 0.02766(7)
H11_2 H 0.3261 0.4676 0.0463
Sc2_2 Sc 0.3750 0.8750 0.11429(2)
Sc3 Sc 0.8750 0.3750 0.11429(2)
O13_2 O 0.24122(16) 0.33334(8) 0.17950(4)
O14_2 O 0.50878(16) 0.41666(8) 0.17950(4)
O15_2 O 0.50878(16) 0.83334(8) 0.07050(4)
O16_2 O 0.24122(16) 0.91666(8) 0.07050(4)
O17_2 O 0.50518(18) 0.29169(7) 0.13532(5)
O18_2 O 0.50518(18) 0.95831(7) 0.11468(5)
O19_2 O 0.50465(18) 0.83436(9) 0.15741(5)
O20_2 O 0.24535(18) 0.91564(9) 0.15741(5)
C5_2 C 0.1466(3) 0.23068(15) 0.97234(7)
H1_2 H 0.0761 0.2176 0.9537
O4_2 O 0.49122(16) 0.16666(8) 0.92950(4)
O5_2 O 0.25465(18) 0.16564(9) 0.90741(5)
C8_2 C 0.3524(2) 0.18032(11) 0.93233(6)
C9_2 C 0.2995(2) 0.21644(12) 0.96749(6)
C11_2 C 0.4022(3) 0.23577(15) 0.99531(7)
H5_2 H 0.5053 0.2262 0.9923
C19_2 C 0.6034(3) 0.51932(15) 0.97234(7)
H9_2 H 0.6739 0.5324 0.9537
O11_2 O 0.25878(16) 0.58334(8) 0.92950(4)
O12_2 O 0.49535(18) 0.58436(9) 0.90741(5)
C21_2 C 0.3976(2) 0.56968(11) 0.93233(6)
C22_2 C 0.4505(2) 0.53356(12) 0.96749(6)
C24_2 C 0.3478(3) 0.51423(15) 0.99531(7)
H12_2 H 0.2447 0.5238 0.9923
H2_2 H 0.9947 0.2738 0.0077
C7_3 C 0.9897(3) 0.59171(11) 0.12456(11)
H3_3 H 0.8975 0.5694 0.1237
C14_3 C 0.9897(3) 0.65829(11) 0.12544(11)
H6_3 H 0.8975 0.6806 0.1263
Sc5_2 Sc 0.8750 0.8750 0.13571(2)
C3_4 C 0.6250 0.19157(14) 0.1250
C4_4 C 0.6250 0.26378(14) 0.1250
C7_4 C 0.7603(3) 0.15829(11) 0.12456(11)
H3_4 H 0.8525 0.1806 0.1237
C12_4 C 0.6250 0.05843(14) 0.1250
C14_4 C 0.7603(3) 0.09171(11) 0.12544(11)
H6_4 H 0.8525 0.0694 0.1263
O7_4 O 0.74482(18) 0.29169(7) 0.11468(5)
C15_4 C 0.4897(3) 0.15829(11) 0.12544(11)
H7_4 H 0.3975 0.1806 0.1263
C16_4 C 0.4897(3) 0.09171(11) 0.12456(11)
H8_4 H 0.3975 0.0694 0.1237
C13_4 C 0.6250 0.98622(14) 0.1250
O8_4 O 0.74482(18) 0.95831(7) 0.13532(5)
C19_3 C 0.1466(3) 0.01932(15) 0.27766(7)
H9_3 H 0.0761 0.0324 0.2963
O11_3 O 0.49122(16) 0.08334(8) 0.32050(4)
O12_3 O 0.25465(18) 0.08436(9) 0.34259(5)
C21_3 C 0.3524(2) 0.06968(11) 0.31767(6)
C22_3 C 0.2995(2) 0.03356(12) 0.28251(6)
C24_3 C 0.4022(3) 0.01423(15) 0.25469(7)
H12_3 H 0.5053 0.0238 0.2577
Sc6_2 Sc 0.6250 0.1250 0.36429(2)
Sc8_2 Sc 0.1250 0.1250 0.38571(2)
O1_3 O 0.74122(16) 0.83334(8) 0.17950(4)
C1_3 C 0.6024(2) 0.81968(11) 0.18233(6)
C2_3 C 0.5495(2) 0.78356(12) 0.21749(6)
C5_3 C 0.6034(3) 0.73068(15) 0.27766(7)
H1_3 H 0.6739 0.7176 0.2963
C6_3 C 0.6522(3) 0.76423(15) 0.24531(7)
H2_3 H 0.7553 0.7738 0.2423
O4_3 O 0.25878(16) 0.66666(8) 0.32050(4)
O5_3 O 0.49535(18) 0.66564(9) 0.34259(5)
C8_3 C 0.3976(2) 0.68032(11) 0.31767(6)
C9_3 C 0.4505(2) 0.71644(12) 0.28251(6)
C10_3 C 0.3966(3) 0.76932(15) 0.22234(7)
H4_3 H 0.3261 0.7824 0.2037
C11_3 C 0.3478(3) 0.73577(15) 0.25469(7)
H5_3 H 0.2447 0.7262 0.2577
O9_3 O 0.00878(16) 0.91666(8) 0.17950(4)
C17_3 C 0.1476(2) 0.93032(11) 0.18233(6)
C18_3 C 0.2005(2) 0.96644(12) 0.21749(6)
C20_3 C 0.0978(3) 0.98577(15) 0.24531(7)
C23_3 C 0.3534(3) 0.98068(15) 0.22234(7)
H11_3 H 0.4239 0.9676 0.2037
Sc7_2 Sc 0.6250 0.6250 0.38571(2)
Sc9_2 Sc 0.1250 0.6250 0.36429(2)
H10_3 H 0.9947 0.9762 0.2423
C19_4 C 0.6034(3) 0.01932(15) 0.47234(7)
H9_4 H 0.6739 0.0324 0.4537
O11_4 O 0.25878(16) 0.08334(8) 0.42950(4)
O12_4 O 0.49535(18) 0.08436(9) 0.40741(5)
C21_4 C 0.3976(2) 0.06968(11) 0.43233(6)
C22_4 C 0.4505(2) 0.03356(12) 0.46749(6)
C24_4 C 0.3478(3) 0.01423(15) 0.49531(7)
H12_4 H 0.2447 0.0238 0.4923
O1_4 O 0.00878(16) 0.83334(8) 0.57050(4)
C1_4 C 0.1476(2) 0.81968(11) 0.56767(6)
C2_4 C 0.2005(2) 0.78356(12) 0.53251(6)
C5_4 C 0.1466(3) 0.73068(15) 0.47234(7)
H1_4 H 0.0761 0.7176 0.4537
C6_4 C 0.0978(3) 0.76423(15) 0.50469(7)
O4_4 O 0.49122(16) 0.66666(8) 0.42950(4)
O5_4 O 0.25465(18) 0.66564(9) 0.40741(5)
C8_4 C 0.3524(2) 0.68032(11) 0.43233(6)
C9_4 C 0.2995(2) 0.71644(12) 0.46749(6)
C10_4 C 0.3534(3) 0.76932(15) 0.52766(7)
H4_4 H 0.4239 0.7824 0.5463
C11_4 C 0.4022(3) 0.73577(15) 0.49531(7)
H5_4 H 0.5053 0.7262 0.4923
O9_4 O 0.74122(16) 0.91666(8) 0.57050(4)
C17_4 C 0.6024(2) 0.93032(11) 0.56767(6)
C18_4 C 0.5495(2) 0.96644(12) 0.53251(6)
C20_4 C 0.6522(3) 0.98577(15) 0.50469(7)
H10_4 H 0.7553 0.9762 0.5077
C23_4 C 0.3966(3) 0.98068(15) 0.52766(7)
H11_4 H 0.3261 0.9676 0.5463
H2_4 H 0.9947 0.7738 0.5077
O3_3 O 0.00465(18) 0.33436(9) 0.15741(5)
C1_5 C 0.1024(2) 0.31968(11) 0.18233(6)
C2_5 C 0.0495(2) 0.28356(12) 0.21749(6)
C5_5 C 0.1034(3) 0.23068(15) 0.27766(7)
H1_5 H 0.1739 0.2176 0.2963
C6_5 C 0.1522(3) 0.26423(15) 0.24531(7)
H2_5 H 0.2553 0.2738 0.2423
H12_5 H 0.0053 0.5238 0.2577
O20_3 O 0.00465(18) 0.91564(9) 0.09259(5)
O4_5 O 0.75878(16) 0.16666(8) 0.32050(4)
O5_5 O 0.99535(18) 0.16564(9) 0.34259(5)
C8_5 C 0.8976(2) 0.18032(11) 0.31767(6)
C9_5 C 0.9505(2) 0.21644(12) 0.28251(6)
C10_5 C 0.8966(3) 0.26932(15) 0.22234(7)
H4_5 H 0.8261 0.2824 0.2037
C11_5 C 0.8478(3) 0.23577(15) 0.25469(7)
H5_5 H 0.7447 0.2262 0.2577
O10_3 O 0.74535(18) 0.41564(9) 0.15741(5)
C17_5 C 0.6476(2) 0.43032(11) 0.18233(6)
C18_5 C 0.7005(2) 0.46644(12) 0.21749(6)
C19_5 C 0.6466(3) 0.51932(15) 0.27766(7)
H9_5 H 0.5761 0.5324 0.2963
C20_5 C 0.5978(3) 0.48577(15) 0.24531(7)
H10_5 H 0.4947 0.4762 0.2423
O11_5 O 0.99122(16) 0.58334(8) 0.32050(4)
O12_5 O 0.75465(18) 0.58436(9) 0.34259(5)
C21_5 C 0.8524(2) 0.56968(11) 0.31767(6)
C22_5 C 0.7995(2) 0.53356(12) 0.28251(6)
C23_5 C 0.8534(3) 0.48068(15) 0.22234(7)
H11_5 H 0.9239 0.4676 0.2037
C24_5 C 0.9022(3) 0.51423(15) 0.25469(7)
O19_3 O 0.74535(18) 0.83436(9) 0.09259(5)
H5_6 H 0.0053 0.2262 0.4923
O10_4 O 0.00465(18) 0.41564(9) 0.59259(5)
C17_6 C 0.1024(2) 0.43032(11) 0.56767(6)
C18_6 C 0.0495(2) 0.46644(12) 0.53251(6)
C19_6 C 0.1034(3) 0.51932(15) 0.47234(7)
H9_6 H 0.1739 0.5324 0.4537
C20_6 C 0.1522(3) 0.48577(15) 0.50469(7)
H10_6 H 0.2553 0.4762 0.5077
O19_4 O 0.00465(18) 0.83436(9) 0.65741(5)
O3_4 O 0.74535(18) 0.33436(9) 0.59259(5)
C1_6 C 0.6476(2) 0.31968(11) 0.56767(6)
C2_6 C 0.7005(2) 0.28356(12) 0.53251(6)
C5_6 C 0.6466(3) 0.23068(15) 0.47234(7)
H1_6 H 0.5761 0.2176 0.4537
C6_6 C 0.5978(3) 0.26423(15) 0.50469(7)
H2_6 H 0.4947 0.2738 0.5077
O4_6 O 0.99122(16) 0.16666(8) 0.42950(4)
O5_6 O 0.75465(18) 0.16564(9) 0.40741(5)
C8_6 C 0.8524(2) 0.18032(11) 0.43233(6)
C9_6 C 0.7995(2) 0.21644(12) 0.46749(6)
C10_6 C 0.8534(3) 0.26932(15) 0.52766(7)
H4_6 H 0.9239 0.2824 0.5463
C11_6 C 0.9022(3) 0.23577(15) 0.49531(7)
O11_6 O 0.75878(16) 0.58334(8) 0.42950(4)
O12_6 O 0.99535(18) 0.58436(9) 0.40741(5)
C21_6 C 0.8976(2) 0.56968(11) 0.43233(6)
C22_6 C 0.9505(2) 0.53356(12) 0.46749(6)
C23_6 C 0.8966(3) 0.48068(15) 0.52766(7)
H11_6 H 0.8261 0.4676 0.5463
C24_6 C 0.8478(3) 0.51423(15) 0.49531(7)
H12_6 H 0.7447 0.5238 0.4923
O20_4 O 0.74535(18) 0.91564(9) 0.65741(5)
H12_7 H 0.0053 0.0238 0.7577
C1_7 C 0.1024(2) 0.81968(11) 0.68233(6)
C2_7 C 0.0495(2) 0.78356(12) 0.71749(6)
C5_7 C 0.1034(3) 0.73068(15) 0.77766(7)
H1_7 H 0.1739 0.7176 0.7963
C6_7 C 0.1522(3) 0.76423(15) 0.74531(7)
H2_7 H 0.2553 0.7738 0.7423
C19_7 C 0.6466(3) 0.01932(15) 0.77766(7)
H9_7 H 0.5761 0.0324 0.7963
O11_7 O 0.99122(16) 0.08334(8) 0.82050(4)
O12_7 O 0.75465(18) 0.08436(9) 0.84259(5)
C21_7 C 0.8524(2) 0.06968(11) 0.81767(6)
C22_7 C 0.7995(2) 0.03356(12) 0.78251(6)
C24_7 C 0.9022(3) 0.01423(15) 0.75469(7)
O4_7 O 0.75878(16) 0.66666(8) 0.82050(4)
O5_7 O 0.99535(18) 0.66564(9) 0.84259(5)
C8_7 C 0.8976(2) 0.68032(11) 0.81767(6)
C9_7 C 0.9505(2) 0.71644(12) 0.78251(6)
C10_7 C 0.8966(3) 0.76932(15) 0.72234(7)
H4_7 H 0.8261 0.7824 0.7037
C11_7 C 0.8478(3) 0.73577(15) 0.75469(7)
H5_7 H 0.7447 0.7262 0.7577
C17_7 C 0.6476(2) 0.93032(11) 0.68233(6)
C18_7 C 0.7005(2) 0.96644(12) 0.71749(6)
C20_7 C 0.5978(3) 0.98577(15) 0.74531(7)
H10_7 H 0.4947 0.9762 0.7423
C23_7 C 0.8534(3) 0.98068(15) 0.72234(7)
H11_7 H 0.9239 0.9676 0.7037
C19_8 C 0.1034(3) 0.01932(15) 0.97234(7)
H9_8 H 0.1739 0.0324 0.9537
C17_8 C 0.1024(2) 0.93032(11) 0.06767(6)
C18_8 C 0.0495(2) 0.96644(12) 0.03251(6)
C20_8 C 0.1522(3) 0.98577(15) 0.00469(7)
H10_8 H 0.2553 0.9762 0.0077
H5_8 H 0.0053 0.7262 0.9923
O11_8 O 0.75878(16) 0.08334(8) 0.92950(4)
O12_8 O 0.99535(18) 0.08436(9) 0.90741(5)
C21_8 C 0.8976(2) 0.06968(11) 0.93233(6)
C22_8 C 0.9505(2) 0.03356(12) 0.96749(6)
C24_8 C 0.8478(3) 0.01423(15) 0.99531(7)
H12_8 H 0.7447 0.0238 0.9923
C1_8 C 0.6476(2) 0.81968(11) 0.06767(6)
C2_8 C 0.7005(2) 0.78356(12) 0.03251(6)
C6_8 C 0.5978(3) 0.76423(15) 0.00469(7)
H2_8 H 0.4947 0.7738 0.0077
C10_8 C 0.8534(3) 0.76932(15) 0.02766(7)
H4_8 H 0.9239 0.7824 0.0463
C23_8 C 0.8966(3) 0.98068(15) 0.02766(7)
H11_8 H 0.8261 0.9676 0.0463
C5_8 C 0.6466(3) 0.73068(15) 0.97234(7)
H1_8 H 0.5761 0.7176 0.9537
O4_8 O 0.99122(16) 0.66666(8) 0.92950(4)
O5_8 O 0.75465(18) 0.66564(9) 0.90741(5)
C8_8 C 0.8524(2) 0.68032(11) 0.93233(6)
C9_8 C 0.7995(2) 0.71644(12) 0.96749(6)
C11_8 C 0.9022(3) 0.73577(15) 0.99531(7)
O2_3 O 0.49482(18) 0.54169(7) 0.38532(5)
C3_5 C 0.3750 0.44157(14) 0.3750
C4_5 C 0.3750 0.51378(14) 0.3750
C7_5 C 0.2397(3) 0.40829(11) 0.37456(11)
H3_5 H 0.1475 0.4306 0.3737
O6_3 O 0.49482(18) 0.20831(7) 0.36468(5)
C12_5 C 0.3750 0.30843(14) 0.3750
C13_5 C 0.3750 0.23622(14) 0.3750
C14_5 C 0.2397(3) 0.34171(11) 0.37544(11)
H6_5 H 0.1475 0.3194 0.3763
O7_5 O 0.25518(18) 0.54169(7) 0.36468(5)
C15_5 C 0.5103(3) 0.40829(11) 0.37544(11)
H7_5 H 0.6025 0.4306 0.3763
O8_5 O 0.25518(18) 0.20831(7) 0.38532(5)
C16_5 C 0.5103(3) 0.34171(11) 0.37456(11)
H8_5 H 0.6025 0.3194 0.3737
O17_3 O 0.75518(18) 0.70831(7) 0.38532(5)
O18_3 O 0.75518(18) 0.04169(7) 0.36468(5)
C7_6 C 0.0103(3) 0.84171(11) 0.37456(11)
H3_6 H 0.1025 0.8194 0.3737
C14_6 C 0.0103(3) 0.90829(11) 0.37544(11)
H6_6 H 0.1025 0.9306 0.3763
C13_6 C 0.8750 0.01378(14) 0.3750
O8_6 O 0.99482(18) 0.04169(7) 0.38532(5)
C3_6 C 0.8750 0.80843(14) 0.3750
C4_6 C 0.8750 0.73622(14) 0.3750
C12_6 C 0.8750 0.94157(14) 0.3750
O7_6 O 0.99482(18) 0.70831(7) 0.36468(5)
C15_6 C 0.7397(3) 0.84171(11) 0.37544(11)
H7_6 H 0.6475 0.8194 0.3763
C16_6 C 0.7397(3) 0.90829(11) 0.37456(11)
H8_6 H 0.6475 0.9306 0.3737
C7_7 C 0.0103(3) 0.40829(11) 0.87544(11)
H3_7 H 0.1025 0.4306 0.8763
C14_7 C 0.0103(3) 0.34171(11) 0.87456(11)
H6_7 H 0.1025 0.3194 0.8737
O2_4 O 0.75518(18) 0.54169(7) 0.86468(5)
C3_7 C 0.8750 0.44157(14) 0.8750
C4_7 C 0.8750 0.51378(14) 0.8750
O6_4 O 0.75518(18) 0.20831(7) 0.88532(5)
C12_7 C 0.8750 0.30843(14) 0.8750
C13_7 C 0.8750 0.23622(14) 0.8750
O7_7 O 0.99482(18) 0.54169(7) 0.88532(5)
C15_7 C 0.7397(3) 0.40829(11) 0.87456(11)
H7_7 H 0.6475 0.4306 0.8737
O8_7 O 0.99482(18) 0.20831(7) 0.86468(5)
C16_7 C 0.7397(3) 0.34171(11) 0.87544(11)
H8_7 H 0.6475 0.3194 0.8763
O17_4 O 0.49482(18) 0.70831(7) 0.86468(5)
O18_4 O 0.49482(18) 0.04169(7) 0.88532(5)
C13_8 C 0.3750 0.01378(14) 0.8750
O8_8 O 0.25518(18) 0.04169(7) 0.86468(5)
C3_8 C 0.3750 0.80843(14) 0.8750
C4_8 C 0.3750 0.73622(14) 0.8750
C7_8 C 0.2397(3) 0.84171(11) 0.87544(11)
H3_8 H 0.1475 0.8194 0.8763
C12_8 C 0.3750 0.94157(14) 0.8750
C14_8 C 0.2397(3) 0.90829(11) 0.87456(11)
H6_8 H 0.1475 0.9306 0.8737
O7_8 O 0.25518(18) 0.70831(7) 0.88532(5)
C15_8 C 0.5103(3) 0.84171(11) 0.87456(11)
H7_8 H 0.6025 0.8194 0.8737
C16_8 C 0.5103(3) 0.90829(11) 0.87544(11)
H8_8 H 0.6025 0.9306 0.8763
loop_
_geom_bond_atom_site_label_1
_geom_bond_atom_site_label_2
_geom_bond_site_symmetry_1
_geom_bond_site_symmetry_2
Sc1 O2 1_555 1_555
O1 C1 1_555 1_555
O2 C4 1_555 1_555
O3 Sc1 1_555 1_555
C1 O3 1_555 1_555
C2 C1 1_555 1_555
C3 C4 1_555 1_555
C4 O7 1_555 1_555
C5 H1 1_555 1_555
C6 C2 1_555 1_555
H2 C6 1_555 1_555
C7 C3 1_555 1_555
H3 C7 1_555 1_555
O4 C8 1_555 1_555
O5 C8 1_555 1_555
C8 C9 1_555 1_555
C9 C5 1_555 1_555
C10 C2 1_555 1_555
H4 C10 1_555 1_555
C11 C9 1_555 1_555
H5 C11 1_555 1_555
O6 C13 1_555 1_555
C12 C13 1_555 1_555
C13 O8 1_555 1_555
C14 C7 1_555 1_555
H6 C14 1_555 1_555
O7 Sc4 1_555 1_555
C15 C3 1_555 1_555
H7 C15 1_555 1_555
O8 Sc5 1_555 1_555
C16 C12 1_555 1_555
H8 C16 1_555 1_555
O9 C17 1_555 1_555
O10 Sc1 1_555 1_555
C17 O10 1_555 1_555
C18 C17 1_555 1_555
C19 H9 1_555 1_555
C20 C18 1_555 1_555
O11 C21 1_555 1_555
O12 C21 1_555 1_555
C21 C22 1_555 1_555
C22 C19 1_555 1_555
C23 C18 1_555 1_555
H11 C23 1_555 1_555
C24 C22 1_555 1_555
H12 C24 1_555 1_555
Sc2 O6 1_555 1_555
Sc4 O1 1_555 1_555
Sc6 O11 1_555 1_555
Sc7 O5 1_555 1_555
Sc8 O12 1_555 1_555
Sc9 O4 1_555 1_555
O13 Sc1 1_555 1_555
O14 Sc1 1_555 1_555
O15 Sc2 1_555 1_555
O16 Sc2 1_555 1_555
O17 Sc1 1_555 1_555
O18 Sc2 1_555 1_555
O19 Sc2 1_555 1_555
O20 Sc2 1_555 1_555
C5 C6 1_555 1_555
C10 C11 1_555 1_555
C12 C14 1_555 1_555
C15 C16 1_555 1_555
C19 C20 1_555 1_555
C23 C24 1_555 1_555
O17 C4_2 1_555 1_555
C3_2 C4_2 1_555 1_555
C4_2 O7_2 1_555 1_555
C15_2 C3_2 1_555 1_555
H7_2 C15_2 1_555 1_555
C16_2 C12_2 1_555 1_555
H8_2 C16_2 1_555 1_555
C15_2 C16_2 1_555 1_555
O18 C13_2 1_555 1_555
C13_2 O8_2 1_555 1_555
H3_2 C7_2 1_555 1_555
C14_2 C7_2 1_555 1_555
H6_2 C14_2 1_555 1_555
Sc1_2 O2_2 1_555 1_555
O1_2 C1_2 1_555 1_555
O2_2 C4_3 1_555 1_555
O3_2 Sc1_2 1_555 1_555
C1_2 O3_2 1_555 1_555
C2_2 C1_2 1_555 1_555
C3_3 C4_3 1_555 1_555
C4_3 O7_3 1_555 1_555
C6_2 C2_2 1_555 1_555
C10_2 C2_2 1_555 1_555
H4_2 C10_2 1_555 1_555
O6_2 C13_3 1_555 1_555
C12_3 C13_3 1_555 1_555
C13_3 O8_3 1_555 1_555
C15_3 C3_3 1_555 1_555
H7_3 C15_3 1_555 1_555
C16_3 C12_3 1_555 1_555
H8_3 C16_3 1_555 1_555
O9_2 C17_2 1_555 1_555
O10_2 Sc1_2 1_555 1_555
C17_2 O10_2 1_555 1_555
C18_2 C17_2 1_555 1_555
C20_2 C18_2 1_555 1_555
H10_2 C20_2 1_555 1_555
C23_2 C18_2 1_555 1_555
H11_2 C23_2 1_555 1_555
Sc2_2 O6_2 1_555 1_555
Sc3 O9_2 1_555 1_555
O13_2 Sc1_2 1_555 1_555
O14_2 Sc1_2 1_555 1_555
O15_2 Sc2_2 1_555 1_555
O16_2 Sc2_2 1_555 1_555
O17_2 Sc1_2 1_555 1_555
O18_2 Sc2_2 1_555 1_555
O19_2 Sc2_2 1_555 1_555
O20_2 Sc2_2 1_555 1_555
C15_3 C16_3 1_555 1_555
C5_2 H1_2 1_555 1_555
O4_2 C8_2 1_555 1_555
O5_2 C8_2 1_555 1_555
C8_2 C9_2 1_555 1_555
C9_2 C5_2 1_555 1_555
C11_2 C9_2 1_555 1_555
H5_2 C11_2 1_555 1_555
C19_2 H9_2 1_555 1_555
O11_2 C21_2 1_555 1_555
O12_2 C21_2 1_555 1_555
C21_2 C22_2 1_555 1_555
C22_2 C19_2 1_555 1_555
C24_2 C22_2 1_555 1_555
H12_2 C24_2 1_555 1_555
Sc8 O11_2 1_555 1_555
Sc9 O5_2 1_555 1_555
Sc6 O12_2 1_555 1_555
Sc7 O4_2 1_555 1_555
H3_3 C7_3 1_555 1_555
C14_3 C7_3 1_555 1_555
H6_3 C14_3 1_555 1_555
O17_2 C4_4 1_555 1_555
C3_4 C4_4 1_555 1_555
C4_4 O7_4 1_555 1_555
C7_4 C3_4 1_555 1_555
H3_4 C7_4 1_555 1_555
C14_4 C7_4 1_555 1_555
H6_4 C14_4 1_555 1_555
O7_4 Sc3 1_555 1_555
C15_4 C3_4 1_555 1_555
H7_4 C15_4 1_555 1_555
C16_4 C12_4 1_555 1_555
H8_4 C16_4 1_555 1_555
C12_4 C14_4 1_555 1_555
C15_4 C16_4 1_555 1_555
O18_2 C13_4 1_555 1_555
C13_4 O8_4 1_555 1_555
O8_4 Sc5_2 1_555 1_555
C19_3 H9_3 1_555 1_555
O11_3 C21_3 1_555 1_555
O12_3 C21_3 1_555 1_555
C21_3 C22_3 1_555 1_555
C22_3 C19_3 1_555 1_555
C24_3 C22_3 1_555 1_555
H12_3 C24_3 1_555 1_555
Sc6_2 O11_3 1_555 1_555
Sc8_2 O12_3 1_555 1_555
O1_3 C1_3 1_555 1_555
C1_3 O19_2 1_555 1_555
C2_3 C1_3 1_555 1_555
C5_3 H1_3 1_555 1_555
C6_3 C2_3 1_555 1_555
H2_3 C6_3 1_555 1_555
O4_3 C8_3 1_555 1_555
O5_3 C8_3 1_555 1_555
C8_3 C9_3 1_555 1_555
C9_3 C5_3 1_555 1_555
C10_3 C2_3 1_555 1_555
H4_3 C10_3 1_555 1_555
C11_3 C9_3 1_555 1_555
H5_3 C11_3 1_555 1_555
O9_3 C17_3 1_555 1_555
C17_3 O20_2 1_555 1_555
C18_3 C17_3 1_555 1_555
C20_3 C18_3 1_555 1_555
C23_3 C18_3 1_555 1_555
H11_3 C23_3 1_555 1_555
Sc5_2 O1_3 1_555 1_555
Sc7_2 O5_3 1_555 1_555
Sc9_2 O4_3 1_555 1_555
C5_3 C6_3 1_555 1_555
C10_3 C11_3 1_555 1_555
C19_4 H9_4 1_555 1_555
O11_4 C21_4 1_555 1_555
O12_4 C21_4 1_555 1_555
C21_4 C22_4 1_555 1_555
C22_4 C19_4 1_555 1_555
C24_4 C22_4 1_555 1_555
H12_4 C24_4 1_555 1_555
Sc8_2 O11_4 1_555 1_555
Sc6_2 O12_4 1_555 1_555
O1_4 C1_4 1_555 1_555
C1_4 O19 1_555 1_555
C2_4 C1_4 1_555 1_555
C5_4 H1_4 1_555 1_555
C6_4 C2_4 1_555 1_555
O4_4 C8_4 1_555 1_555
O5_4 C8_4 1_555 1_555
C8_4 C9_4 1_555 1_555
C9_4 C5_4 1_555 1_555
C10_4 C2_4 1_555 1_555
H4_4 C10_4 1_555 1_555
C11_4 C9_4 1_555 1_555
H5_4 C11_4 1_555 1_555
O9_4 C17_4 1_555 1_555
C17_4 O20 1_555 1_555
C18_4 C17_4 1_555 1_555
C20_4 C18_4 1_555 1_555
H10_4 C20_4 1_555 1_555
C23_4 C18_4 1_555 1_555
H11_4 C23_4 1_555 1_555
Sc5 O9_4 1_555 1_555
Sc9_2 O5_4 1_555 1_555
Sc7_2 O4_4 1_555 1_555
C5_4 C6_4 1_555 1_555
C10_4 C11_4 1_555 1_555
O13_2 C1_5 1_555 1_555
C1_5 O3_3 1_555 1_555
C2_5 C1_5 1_555 1_555
C5_5 H1_5 1_555 1_555
C6_5 C2_5 1_555 1_555
H2_5 C6_5 1_555 1_555
C5_5 C6_5 1_555 1_555
O4_5 C8_5 1_555 1_555
O5_5 C8_5 1_555 1_555
C8_5 C9_5 1_555 1_555
H4_5 C10_5 1_555 1_555
C11_5 C9_5 1_555 1_555
H5_5 C11_5 1_555 1_555
O14_2 C17_5 1_555 1_555
O10_3 Sc3 1_555 1_555
C17_5 O10_3 1_555 1_555
C18_5 C17_5 1_555 1_555
C19_5 H9_5 1_555 1_555
C20_5 C18_5 1_555 1_555
H10_5 C20_5 1_555 1_555
O11_5 C21_5 1_555 1_555
O12_5 C21_5 1_555 1_555
C21_5 C22_5 1_555 1_555
C22_5 C19_5 1_555 1_555
C23_5 C18_5 1_555 1_555
H11_5 C23_5 1_555 1_555
C24_5 C22_5 1_555 1_555
Sc7_2 O12_5 1_555 1_555
Sc6_2 O4_5 1_555 1_555
O19_3 Sc5_2 1_555 1_555
C10_5 C11_5 1_555 1_555
C19_5 C20_5 1_555 1_555
C23_5 C24_5 1_555 1_555
O14 C17_6 1_555 1_555
C17_6 O10_4 1_555 1_555
C18_6 C17_6 1_555 1_555
C19_6 H9_6 1_555 1_555
C20_6 C18_6 1_555 1_555
H10_6 C20_6 1_555 1_555
C19_6 C20_6 1_555 1_555
O13 C1_6 1_555 1_555
O3_4 Sc4 1_555 1_555
C1_6 O3_4 1_555 1_555
C2_6 C1_6 1_555 1_555
C5_6 H1_6 1_555 1_555
C6_6 C2_6 1_555 1_555
H2_6 C6_6 1_555 1_555
O4_6 C8_6 1_555 1_555
O5_6 C8_6 1_555 1_555
C8_6 C9_6 1_555 1_555
C9_6 C5_6 1_555 1_555
C10_6 C2_6 1_555 1_555
H4_6 C10_6 1_555 1_555
C11_6 C9_6 1_555 1_555
O11_6 C21_6 1_555 1_555
O12_6 C21_6 1_555 1_555
C21_6 C22_6 1_555 1_555
H11_6 C23_6 1_555 1_555
C24_6 C22_6 1_555 1_555
H12_6 C24_6 1_555 1_555
Sc7_2 O11_6 1_555 1_555
Sc6_2 O5_6 1_555 1_555
O20_4 Sc5 1_555 1_555
C5_6 C6_6 1_555 1_555
C10_6 C11_6 1_555 1_555
C23_6 C24_6 1_555 1_555
O15 C1_7 1_555 1_555
C1_7 O19_4 1_555 1_555
C2_7 C1_7 1_555 1_555
C5_7 H1_7 1_555 1_555
C6_7 C2_7 1_555 1_555
H2_7 C6_7 1_555 1_555
C5_7 C6_7 1_555 1_555
C19_7 H9_7 1_555 1_555
O11_7 C21_7 1_555 1_555
O12_7 C21_7 1_555 1_555
C21_7 C22_7 1_555 1_555
C22_7 C19_7 1_555 1_555
C24_7 C22_7 1_555 1_555
Sc7 O12_7 1_555 1_555
O4_7 C8_7 1_555 1_555
O5_7 C8_7 1_555 1_555
C8_7 C9_7 1_555 1_555
H4_7 C10_7 1_555 1_555
C11_7 C9_7 1_555 1_555
H5_7 C11_7 1_555 1_555
O16 C17_7 1_555 1_555
C17_7 O20_4 1_555 1_555
C18_7 C17_7 1_555 1_555
C20_7 C18_7 1_555 1_555
H10_7 C20_7 1_555 1_555
C23_7 C18_7 1_555 1_555
H11_7 C23_7 1_555 1_555
Sc6 O4_7 1_555 1_555
C10_7 C11_7 1_555 1_555
C19_8 H9_8 1_555 1_555
O16_2 C17_8 1_555 1_555
C17_8 O20_3 1_555 1_555
C18_8 C17_8 1_555 1_555
C20_8 C18_8 1_555 1_555
H10_8 C20_8 1_555 1_555
O11_8 C21_8 1_555 1_555
O12_8 C21_8 1_555 1_555
C21_8 C22_8 1_555 1_555
C24_8 C22_8 1_555 1_555
H12_8 C24_8 1_555 1_555
Sc7 O11_8 1_555 1_555
O15_2 C1_8 1_555 1_555
C1_8 O19_3 1_555 1_555
C2_8 C1_8 1_555 1_555
C6_8 C2_8 1_555 1_555
H2_8 C6_8 1_555 1_555
C10_8 C2_8 1_555 1_555
H4_8 C10_8 1_555 1_555
H11_8 C23_8 1_555 1_555
C5_8 H1_8 1_555 1_555
O4_8 C8_8 1_555 1_555
O5_8 C8_8 1_555 1_555
C8_8 C9_8 1_555 1_555
C9_8 C5_8 1_555 1_555
C11_8 C9_8 1_555 1_555
Sc6 O5_8 1_555 1_555
Sc7_2 O2_3 1_555 1_555
O2_3 C4_5 1_555 1_555
C3_5 C4_5 1_555 1_555
C4_5 O7_5 1_555 1_555
C7_5 C3_5 1_555 1_555
H3_5 C7_5 1_555 1_555
O6_3 C13_5 1_555 1_555
C12_5 C13_5 1_555 1_555
C13_5 O8_5 1_555 1_555
C14_5 C7_5 1_555 1_555
H6_5 C14_5 1_555 1_555
O7_5 Sc9_2 1_555 1_555
C15_5 C3_5 1_555 1_555
H7_5 C15_5 1_555 1_555
O8_5 Sc8_2 1_555 1_555
C16_5 C12_5 1_555 1_555
H8_5 C16_5 1_555 1_555
Sc6_2 O6_3 1_555 1_555
O17_3 Sc7_2 1_555 1_555
O18_3 Sc6_2 1_555 1_555
C12_5 C14_5 1_555 1_555
C15_5 C16_5 1_555 1_555
H3_6 C7_6 1_555 1_555
C14_6 C7_6 1_555 1_555
H6_6 C14_6 1_555 1_555
O18_3 C13_6 1_555 1_555
C13_6 O8_6 1_555 1_555
O17_3 C4_6 1_555 1_555
C3_6 C4_6 1_555 1_555
C4_6 O7_6 1_555 1_555
C15_6 C3_6 1_555 1_555
H7_6 C15_6 1_555 1_555
C16_6 C12_6 1_555 1_555
H8_6 C16_6 1_555 1_555
C15_6 C16_6 1_555 1_555
H3_7 C7_7 1_555 1_555
C14_7 C7_7 1_555 1_555
H6_7 C14_7 1_555 1_555
Sc6 O2_4 1_555 1_555
O2_4 C4_7 1_555 1_555
C3_7 C4_7 1_555 1_555
C4_7 O7_7 1_555 1_555
O6_4 C13_7 1_555 1_555
C12_7 C13_7 1_555 1_555
C13_7 O8_7 1_555 1_555
C15_7 C3_7 1_555 1_555
H7_7 C15_7 1_555 1_555
C16_7 C12_7 1_555 1_555
H8_7 C16_7 1_555 1_555
Sc7 O6_4 1_555 1_555
O17_4 Sc6 1_555 1_555
O18_4 Sc7 1_555 1_555
C15_7 C16_7 1_555 1_555
O18_4 C13_8 1_555 1_555
C13_8 O8_8 1_555 1_555
O8_8 Sc9 1_555 1_555
O17_4 C4_8 1_555 1_555
C3_8 C4_8 1_555 1_555
C4_8 O7_8 1_555 1_555
C7_8 C3_8 1_555 1_555
H3_8 C7_8 1_555 1_555
C14_8 C7_8 1_555 1_555
H6_8 C14_8 1_555 1_555
O7_8 Sc8 1_555 1_555
C15_8 C3_8 1_555 1_555
H7_8 C15_8 1_555 1_555
C16_8 C12_8 1_555 1_555
H8_8 C16_8 1_555 1_555
C12_8 C14_8 1_555 1_555
C15_8 C16_8 1_555 1_555

#END
