
###############################################################################
#
# This file contains modified crystal structure data generated from the
# MOF subset of the Cambridge Structural Database (CSD) v543 
# hosted by the Cambridge Crystallographic Data Centre (CCDC).
#
# This work is licensed under the Creative Commons
# Attribution-NonCommercial-ShareAlike 4.0 International License.
# To view a copy of this license, visit
# http://creativecommons.org/licenses/by-nc-sa/4.0/
# or send a letter to
# Creative Commons, PO Box 1866, Mountain View, CA 94042, USA.
#
# CIF created using the CSD Python API on 29 September 2022
# The structure has been converted into the P1 space group
# The structure has a 3D framework
# The original CSD entry HAZGOF03 is in the orthorhombic crystal system
# The framework has been calculated to contain at least 10.0% void space
# The void calculation uses a probe of radius 1.32A, grid spacing 0.4
# H atom positions have been added when not included in the experimental data
#
###############################################################################

data_HAZGOF03
_chemical_formula_moiety         '(C192 H96 O96 Sc9)n'
_symmetry_cell_setting           triclinic
_symmetry_space_group_name_H-M   'P 1'
_symmetry_Int_Tables_number      1
_space_group_name_Hall           'P 1'
loop_
_symmetry_equiv_pos_site_id
_symmetry_equiv_pos_as_xyz
1 x,y,z
_cell_length_a                   8.75292(4)
_cell_length_b                   20.75510(5)
_cell_length_c                   34.35779(8)
_cell_angle_alpha                90
_cell_angle_beta                 90
_cell_angle_gamma                90
_cell_volume                     6241.7
loop_
_atom_site_label
_atom_site_type_symbol
_atom_site_fract_x
_atom_site_fract_y
_atom_site_fract_z
_atom_site_U_iso_or_equiv
_atom_site_thermal_displace_type
Sc1 Sc 0.125 0.125 0.36422(6) 0.0097 Uiso
O2 O 0.2610(5) 0.16519(23) 0.31999(12) 0.0314 Uiso
O3 O 0.4939(5) 0.16628(24) 0.34219(11) 0.0314 Uiso
C4 C 0.4003(6) 0.17954(30) 0.31514(15) 0.0356 Uiso
C5 C 0.4518(4) 0.21690(26) 0.28225(10) 0.0356 Uiso
C6 C 0.34627(30) 0.23317(24) 0.25369(11) 0.0356 Uiso
C7 C 0.60608(34) 0.23055(25) 0.27789(10) 0.0356 Uiso
Sc3 Sc 0.625 0.125 0.38578(6) 0.0097 Uiso
Sc4 Sc 0.125 0.625 0.38578(6) 0.0097 Uiso
Sc6 Sc 0.875 0.375 0.13578(6) 0.0097 Uiso
Sc7 Sc 0.375 0.375 0.11422(6) 0.0097 Uiso
O7 O 0.2568(5) 0.04180(18) 0.36454(13) 0.0314 Uiso
O9 O 0.7390(5) 0.33481(23) 0.18001(12) 0.0314 Uiso
O14 O 0.5061(5) 0.33372(24) 0.15781(11) 0.0314 Uiso
O17 O 0.2561(5) 0.16628(24) 0.40781(11) 0.0314 Uiso
C11 C 0.01268(21) 0.40846(5) 0.37461(24) 0.0356 Uiso
C12 C 0.01268(21) 0.34154(5) 0.37539(24) 0.0356 Uiso
C13 C 0.5997(6) 0.32046(30) 0.18486(15) 0.0356 Uiso
C16 C 0.5482(4) 0.28310(26) 0.21775(10) 0.0356 Uiso
C19 C 0.65373(30) 0.26683(24) 0.24631(11) 0.0356 Uiso
C22 C 0.39392(34) 0.26945(25) 0.22211(10) 0.0356 Uiso
H2 H 0.227817 0.217625 0.256099 . .
H3 H 0.688725 0.212935 0.299058 . .
H5 H 0.120244 0.434785 0.373697 . .
H6 H 0.120244 0.315215 0.376303 . .
H7 H 0.0221829 0.0323754 0.256099 . .
H10 H 0.772183 0.282375 0.243901 . .
H11 H 0.311275 0.287065 0.200942 . .
O1 O 0.9932(5) 0.20820(18) 0.36454(13) 0.0314 Uiso
C1 C 0.875 0.23899(25) 0.375 0.0356 Uiso
C2 C 0.875 0.30838(12) 0.375 0.0356 Uiso
C3 C 0.73732(21) 0.34154(5) 0.37461(24) 0.0356 Uiso
Sc5 Sc 0.625 0.625 0.36422(6) 0.0097 Uiso
O4 O 0.7568(5) 0.20820(18) 0.38546(13) 0.0314 Uiso
O5 O 0.9932(5) 0.54180(18) 0.38546(13) 0.0314 Uiso
O6 O 0.7568(5) 0.54180(18) 0.36454(13) 0.0314 Uiso
O8 O 0.4932(5) 0.04180(18) 0.38546(13) 0.0314 Uiso
O10 O 0.9890(5) 0.08481(23) 0.31999(12) 0.0314 Uiso
O12 O 0.4890(5) 0.16519(23) 0.43001(12) 0.0314 Uiso
O13 O 0.7610(5) 0.08481(23) 0.43001(12) 0.0314 Uiso
O15 O 0.7561(5) 0.08372(24) 0.34219(11) 0.0314 Uiso
O18 O 0.9939(5) 0.08372(24) 0.40781(11) 0.0314 Uiso
C8 C 0.875 0.51101(25) 0.375 0.0356 Uiso
C9 C 0.875 0.44162(12) 0.375 0.0356 Uiso
C10 C 0.73732(21) 0.40846(5) 0.37539(24) 0.0356 Uiso
C14 C 0.8497(6) 0.07046(30) 0.31514(15) 0.0356 Uiso
C17 C 0.7982(4) 0.03310(26) 0.28225(10) 0.0356 Uiso
C20 C 0.90373(30) 0.01683(24) 0.25369(11) 0.0356 Uiso
C23 C 0.64392(34) 0.01945(25) 0.27789(10) 0.0356 Uiso
H1 H 0.629756 0.315215 0.373697 . .
H4 H 0.629756 0.434785 0.376303 . .
H12 H 0.561275 0.0370652 0.299058 . .
Sc8 Sc 0.375 0.875 0.13578(6) 0.0097 Uiso
Sc9 Sc 0.875 0.875 0.11422(6) 0.0097 Uiso
O11 O 0.5110(5) 0.91519(23) 0.18001(12) 0.0314 Uiso
O16 O 0.7439(5) 0.91628(24) 0.15781(11) 0.0314 Uiso
C15 C 0.6503(6) 0.92954(30) 0.18486(15) 0.0356 Uiso
C18 C 0.7018(4) 0.96690(26) 0.21775(10) 0.0356 Uiso
C21 C 0.59627(30) 0.98317(24) 0.24631(11) 0.0356 Uiso
C24 C 0.85608(34) 0.98055(25) 0.22211(10) 0.0356 Uiso
H8 H 0.477817 0.967625 0.243901 . .
H9 H 0.938725 0.962935 0.200942 . .
Sc2 Sc 0.125 0.125 0.88578(6) 0.0097 Uiso
Sc8_2 Sc 0.375 0.375 0.63578(6) 0.0097 Uiso
O8_2 O 0.2568(5) 0.20820(18) 0.88546(13) 0.0314 Uiso
O11_2 O 0.2390(5) 0.33481(23) 0.68001(12) 0.0314 Uiso
O12_2 O 0.2610(5) 0.08481(23) 0.93001(12) 0.0314 Uiso
O16_2 O 0.0061(5) 0.33372(24) 0.65781(11) 0.0314 Uiso
O19 O 0.2561(5) 0.08372(24) 0.84219(11) 0.0314 Uiso
C15_2 C 0.0997(6) 0.32046(30) 0.68486(15) 0.0356 Uiso
C18_2 C 0.0482(4) 0.28310(26) 0.71775(10) 0.0356 Uiso
C21_2 C 0.15373(30) 0.26683(24) 0.74631(11) 0.0356 Uiso
C23_2 C 0.10608(34) 0.23055(25) 0.77789(10) 0.0356 Uiso
H8_2 H 0.272183 0.282375 0.743901 . .
H12_2 H 0.188725 0.212935 0.799058 . .
C3_2 C 0.01268(21) 0.90846(5) 0.87461(24) 0.0356 Uiso
Sc5_2 Sc 0.125 0.625 0.86422(6) 0.0097 Uiso
C10_2 C 0.01268(21) 0.84154(5) 0.87539(24) 0.0356 Uiso
H1_2 H 0.120244 0.934785 0.873697 . .
H4_2 H 0.120244 0.815215 0.876303 . .
Sc1_2 Sc 0.625 0.125 0.86422(6) 0.0097 Uiso
O1_2 O 0.7568(5) 0.04180(18) 0.86454(13) 0.0314 Uiso
O2_2 O 0.4890(5) 0.08481(23) 0.81999(12) 0.0314 Uiso
C1_2 C 0.875 0.01101(25) 0.875 0.0356 Uiso
C4_2 C 0.3497(6) 0.07046(30) 0.81514(15) 0.0356 Uiso
C5_2 C 0.2982(4) 0.03310(26) 0.78225(10) 0.0356 Uiso
C6_2 C 0.40373(30) 0.01683(24) 0.75369(11) 0.0356 Uiso
C7_2 C 0.14392(34) 0.01945(25) 0.77789(10) 0.0356 Uiso
Sc9_2 Sc 0.875 0.375 0.61422(6) 0.0097 Uiso
O4_2 O 0.9932(5) 0.04180(18) 0.88546(13) 0.0314 Uiso
O7_2 O 0.4932(5) 0.20820(18) 0.86454(13) 0.0314 Uiso
O10_2 O 0.7610(5) 0.16519(23) 0.81999(12) 0.0314 Uiso
O13_2 O 0.9890(5) 0.16519(23) 0.93001(12) 0.0314 Uiso
O15_2 O 0.9939(5) 0.16628(24) 0.84219(11) 0.0314 Uiso
O17_2 O 0.4939(5) 0.08372(24) 0.90781(11) 0.0314 Uiso
O18_2 O 0.7561(5) 0.16628(24) 0.90781(11) 0.0314 Uiso
C14_2 C 0.9003(6) 0.17954(30) 0.81514(15) 0.0356 Uiso
C17_2 C 0.9518(4) 0.21690(26) 0.78225(10) 0.0356 Uiso
C20_2 C 0.84627(30) 0.23317(24) 0.75369(11) 0.0356 Uiso
C24_2 C 0.89392(34) 0.26945(25) 0.72211(10) 0.0356 Uiso
H2_2 H 0.522183 0.0323754 0.756099 . .
H3_2 H 0.061275 0.0370652 0.799058 . .
H7_2 H 0.727817 0.217625 0.756099 . .
H9_2 H 0.811275 0.287065 0.700942 . .
C2_2 C 0.875 0.94162(12) 0.875 0.0356 Uiso
Sc4_2 Sc 0.625 0.625 0.88578(6) 0.0097 Uiso
Sc7_2 Sc 0.375 0.875 0.61422(6) 0.0097 Uiso
O5_2 O 0.7568(5) 0.70820(18) 0.88546(13) 0.0314 Uiso
O6_2 O 0.9932(5) 0.70820(18) 0.86454(13) 0.0314 Uiso
O9_2 O 0.0110(5) 0.91519(23) 0.68001(12) 0.0314 Uiso
O14_2 O 0.2439(5) 0.91628(24) 0.65781(11) 0.0314 Uiso
C8_2 C 0.875 0.73899(25) 0.875 0.0356 Uiso
C9_2 C 0.875 0.80838(12) 0.875 0.0356 Uiso
C11_2 C 0.73732(21) 0.84154(5) 0.87461(24) 0.0356 Uiso
C12_2 C 0.73732(21) 0.90846(5) 0.87539(24) 0.0356 Uiso
C13_2 C 0.1503(6) 0.92954(30) 0.68486(15) 0.0356 Uiso
C16_2 C 0.2018(4) 0.96690(26) 0.71775(10) 0.0356 Uiso
C19_2 C 0.09627(30) 0.98317(24) 0.74631(11) 0.0356 Uiso
C22_2 C 0.35608(34) 0.98055(25) 0.72211(10) 0.0356 Uiso
H5_2 H 0.629756 0.815215 0.873697 . .
H6_2 H 0.629756 0.934785 0.876303 . .
H11_2 H 0.438725 0.962935 0.700942 . .
Sc6_2 Sc 0.875 0.875 0.63578(6) 0.0097 Uiso
H10_2 H 0.977817 0.967625 0.743901 . .
O2_3 O 0.2610(5) 0.58481(23) 0.43001(12) 0.0314 Uiso
O3_2 O 0.4939(5) 0.58372(24) 0.40781(11) 0.0314 Uiso
C4_3 C 0.4003(6) 0.57046(30) 0.43486(15) 0.0356 Uiso
C5_3 C 0.4518(4) 0.53310(26) 0.46775(10) 0.0356 Uiso
C6_3 C 0.34627(30) 0.51683(24) 0.49631(11) 0.0356 Uiso
C7_3 C 0.60608(34) 0.51945(25) 0.47211(10) 0.0356 Uiso
O7_3 O 0.2568(5) 0.70820(18) 0.38546(13) 0.0314 Uiso
O9_3 O 0.7390(5) 0.41519(23) 0.56999(12) 0.0314 Uiso
O14_3 O 0.5061(5) 0.41628(24) 0.59219(11) 0.0314 Uiso
O17_3 O 0.2561(5) 0.58372(24) 0.34219(11) 0.0314 Uiso
C13_3 C 0.5997(6) 0.42954(30) 0.56514(15) 0.0356 Uiso
C16_3 C 0.5482(4) 0.46690(26) 0.53225(10) 0.0356 Uiso
C19_3 C 0.65373(30) 0.48317(24) 0.50369(11) 0.0356 Uiso
C22_3 C 0.39392(34) 0.48055(25) 0.52789(10) 0.0356 Uiso
H2_3 H 0.227817 0.532375 0.493901 . .
H3_3 H 0.688725 0.537065 0.450942 . .
H7_3 H 0.0221829 0.717625 0.493901 . .
H10_3 H 0.772183 0.467625 0.506099 . .
H11_3 H 0.311275 0.462935 0.549058 . .
O8_3 O 0.4932(5) 0.70820(18) 0.36454(13) 0.0314 Uiso
O10_3 O 0.9890(5) 0.66519(23) 0.43001(12) 0.0314 Uiso
O11_3 O 0.5110(5) 0.83481(23) 0.56999(12) 0.0314 Uiso
O12_3 O 0.4890(5) 0.58481(23) 0.31999(12) 0.0314 Uiso
O13_3 O 0.7610(5) 0.66519(23) 0.31999(12) 0.0314 Uiso
O15_3 O 0.7561(5) 0.66628(24) 0.40781(11) 0.0314 Uiso
O16_3 O 0.7439(5) 0.83372(24) 0.59219(11) 0.0314 Uiso
O18_3 O 0.9939(5) 0.66628(24) 0.34219(11) 0.0314 Uiso
C14_3 C 0.8497(6) 0.67954(30) 0.43486(15) 0.0356 Uiso
C15_3 C 0.6503(6) 0.82046(30) 0.56514(15) 0.0356 Uiso
C17_3 C 0.7982(4) 0.71690(26) 0.46775(10) 0.0356 Uiso
C18_3 C 0.7018(4) 0.78310(26) 0.53225(10) 0.0356 Uiso
C20_3 C 0.90373(30) 0.73317(24) 0.49631(11) 0.0356 Uiso
C21_3 C 0.59627(30) 0.76683(24) 0.50369(11) 0.0356 Uiso
C23_3 C 0.64392(34) 0.73055(25) 0.47211(10) 0.0356 Uiso
C24_3 C 0.85608(34) 0.76945(25) 0.52789(10) 0.0356 Uiso
H8_3 H 0.477817 0.782375 0.506099 . .
H9_3 H 0.938725 0.787065 0.549058 . .
H12_3 H 0.561275 0.712935 0.450942 . .
C23_4 C 0.10608(34) 0.01945(25) 0.47211(10) 0.0356 Uiso
H12_4 H 0.188725 0.0370652 0.450942 . .
O11_4 O 0.2390(5) 0.91519(23) 0.56999(12) 0.0314 Uiso
O16_4 O 0.0061(5) 0.91628(24) 0.59219(11) 0.0314 Uiso
C15_4 C 0.0997(6) 0.92954(30) 0.56514(15) 0.0356 Uiso
C18_4 C 0.0482(4) 0.96690(26) 0.53225(10) 0.0356 Uiso
C21_4 C 0.15373(30) 0.98317(24) 0.50369(11) 0.0356 Uiso
H8_4 H 0.272183 0.967625 0.506099 . .
C4_4 C 0.3497(6) 0.17954(30) 0.43486(15) 0.0356 Uiso
C5_4 C 0.2982(4) 0.21690(26) 0.46775(10) 0.0356 Uiso
C6_4 C 0.40373(30) 0.23317(24) 0.49631(11) 0.0356 Uiso
C7_4 C 0.14392(34) 0.23055(25) 0.47211(10) 0.0356 Uiso
O9_4 O 0.0110(5) 0.33481(23) 0.56999(12) 0.0314 Uiso
O14_4 O 0.2439(5) 0.33372(24) 0.59219(11) 0.0314 Uiso
C13_4 C 0.1503(6) 0.32046(30) 0.56514(15) 0.0356 Uiso
C14_4 C 0.9003(6) 0.07046(30) 0.43486(15) 0.0356 Uiso
C16_4 C 0.2018(4) 0.28310(26) 0.53225(10) 0.0356 Uiso
C17_4 C 0.9518(4) 0.03310(26) 0.46775(10) 0.0356 Uiso
C19_4 C 0.09627(30) 0.26683(24) 0.50369(11) 0.0356 Uiso
C20_4 C 0.84627(30) 0.01683(24) 0.49631(11) 0.0356 Uiso
C22_4 C 0.35608(34) 0.26945(25) 0.52789(10) 0.0356 Uiso
H2_4 H 0.522183 0.217625 0.493901 . .
H3_4 H 0.061275 0.212935 0.450942 . .
H7_4 H 0.727817 0.0323754 0.493901 . .
H11_4 H 0.438725 0.287065 0.549058 . .
C24_4 C 0.89392(34) 0.98055(25) 0.52789(10) 0.0356 Uiso
H9_4 H 0.811275 0.962935 0.549058 . .
H10_4 H 0.977817 0.282375 0.506099 . .
O2_4 O 0.2610(5) 0.66519(23) 0.81999(12) 0.0314 Uiso
O3_3 O 0.4939(5) 0.66628(24) 0.84219(11) 0.0314 Uiso
C4_5 C 0.4003(6) 0.67954(30) 0.81514(15) 0.0356 Uiso
C5_5 C 0.4518(4) 0.71690(26) 0.78225(10) 0.0356 Uiso
C6_5 C 0.34627(30) 0.73317(24) 0.75369(11) 0.0356 Uiso
C7_5 C 0.60608(34) 0.73055(25) 0.77789(10) 0.0356 Uiso
O7_4 O 0.2568(5) 0.54180(18) 0.86454(13) 0.0314 Uiso
O9_5 O 0.7390(5) 0.83481(23) 0.68001(12) 0.0314 Uiso
O14_5 O 0.5061(5) 0.83372(24) 0.65781(11) 0.0314 Uiso
O17_4 O 0.2561(5) 0.66628(24) 0.90781(11) 0.0314 Uiso
C13_5 C 0.5997(6) 0.82046(30) 0.68486(15) 0.0356 Uiso
C16_5 C 0.5482(4) 0.78310(26) 0.71775(10) 0.0356 Uiso
C19_5 C 0.65373(30) 0.76683(24) 0.74631(11) 0.0356 Uiso
C22_5 C 0.39392(34) 0.76945(25) 0.72211(10) 0.0356 Uiso
H2_5 H 0.227817 0.717625 0.756099 . .
H3_5 H 0.688725 0.712935 0.799058 . .
H7_5 H 0.0221829 0.532375 0.756099 . .
H10_5 H 0.772183 0.782375 0.743901 . .
H11_5 H 0.311275 0.787065 0.700942 . .
O8_4 O 0.4932(5) 0.54180(18) 0.88546(13) 0.0314 Uiso
O10_4 O 0.9890(5) 0.58481(23) 0.81999(12) 0.0314 Uiso
O11_5 O 0.5110(5) 0.41519(23) 0.68001(12) 0.0314 Uiso
O12_4 O 0.4890(5) 0.66519(23) 0.93001(12) 0.0314 Uiso
O13_4 O 0.7610(5) 0.58481(23) 0.93001(12) 0.0314 Uiso
O15_4 O 0.7561(5) 0.58372(24) 0.84219(11) 0.0314 Uiso
O16_5 O 0.7439(5) 0.41628(24) 0.65781(11) 0.0314 Uiso
O18_4 O 0.9939(5) 0.58372(24) 0.90781(11) 0.0314 Uiso
C14_5 C 0.8497(6) 0.57046(30) 0.81514(15) 0.0356 Uiso
C15_5 C 0.6503(6) 0.42954(30) 0.68486(15) 0.0356 Uiso
C17_5 C 0.7982(4) 0.53310(26) 0.78225(10) 0.0356 Uiso
C18_5 C 0.7018(4) 0.46690(26) 0.71775(10) 0.0356 Uiso
C20_5 C 0.90373(30) 0.51683(24) 0.75369(11) 0.0356 Uiso
C21_5 C 0.59627(30) 0.48317(24) 0.74631(11) 0.0356 Uiso
C23_5 C 0.64392(34) 0.51945(25) 0.77789(10) 0.0356 Uiso
C24_5 C 0.85608(34) 0.48055(25) 0.72211(10) 0.0356 Uiso
H8_5 H 0.477817 0.467625 0.743901 . .
H9_5 H 0.938725 0.462935 0.700942 . .
H12_5 H 0.561275 0.537065 0.799058 . .
O11_6 O 0.2390(5) 0.83481(23) 0.18001(12) 0.0314 Uiso
O16_6 O 0.0061(5) 0.83372(24) 0.15781(11) 0.0314 Uiso
C15_6 C 0.0997(6) 0.82046(30) 0.18486(15) 0.0356 Uiso
C18_6 C 0.0482(4) 0.78310(26) 0.21775(10) 0.0356 Uiso
C21_6 C 0.15373(30) 0.76683(24) 0.24631(11) 0.0356 Uiso
C23_6 C 0.10608(34) 0.73055(25) 0.27789(10) 0.0356 Uiso
H8_6 H 0.272183 0.782375 0.243901 . .
H12_6 H 0.188725 0.712935 0.299058 . .
C4_6 C 0.3497(6) 0.57046(30) 0.31514(15) 0.0356 Uiso
C5_6 C 0.2982(4) 0.53310(26) 0.28225(10) 0.0356 Uiso
C6_6 C 0.40373(30) 0.51683(24) 0.25369(11) 0.0356 Uiso
C7_6 C 0.14392(34) 0.51945(25) 0.27789(10) 0.0356 Uiso
O9_6 O 0.0110(5) 0.41519(23) 0.18001(12) 0.0314 Uiso
O14_6 O 0.2439(5) 0.41628(24) 0.15781(11) 0.0314 Uiso
C13_6 C 0.1503(6) 0.42954(30) 0.18486(15) 0.0356 Uiso
C14_6 C 0.9003(6) 0.67954(30) 0.31514(15) 0.0356 Uiso
C16_6 C 0.2018(4) 0.46690(26) 0.21775(10) 0.0356 Uiso
C17_6 C 0.9518(4) 0.71690(26) 0.28225(10) 0.0356 Uiso
C19_6 C 0.09627(30) 0.48317(24) 0.24631(11) 0.0356 Uiso
C20_6 C 0.84627(30) 0.73317(24) 0.25369(11) 0.0356 Uiso
C22_6 C 0.35608(34) 0.48055(25) 0.22211(10) 0.0356 Uiso
C24_6 C 0.89392(34) 0.76945(25) 0.22211(10) 0.0356 Uiso
H2_6 H 0.522183 0.532375 0.256099 . .
H3_6 H 0.061275 0.537065 0.299058 . .
H7_6 H 0.727817 0.717625 0.256099 . .
H9_6 H 0.811275 0.787065 0.200942 . .
H11_6 H 0.438725 0.462935 0.200942 . .
H10_6 H 0.977817 0.467625 0.243901 . .
C4_7 C 0.4003(6) 0.07046(30) 0.93486(15) 0.0356 Uiso
C5_7 C 0.4518(4) 0.03310(26) 0.96775(10) 0.0356 Uiso
C6_7 C 0.34627(30) 0.01683(24) 0.99631(11) 0.0356 Uiso
C7_7 C 0.60608(34) 0.01945(25) 0.97211(10) 0.0356 Uiso
H2_7 H 0.227817 0.0323754 0.993901 . .
H3_7 H 0.688725 0.0370652 0.950942 . .
H7_7 H 0.0221829 0.217625 0.993901 . .
O9_7 O 0.7390(5) 0.91519(23) 0.06999(12) 0.0314 Uiso
O14_7 O 0.5061(5) 0.91628(24) 0.09219(11) 0.0314 Uiso
C13_7 C 0.5997(6) 0.92954(30) 0.06514(15) 0.0356 Uiso
C16_7 C 0.5482(4) 0.96690(26) 0.03225(10) 0.0356 Uiso
C19_7 C 0.65373(30) 0.98317(24) 0.00369(11) 0.0356 Uiso
C22_7 C 0.39392(34) 0.98055(25) 0.02789(10) 0.0356 Uiso
H10_7 H 0.772183 0.967625 0.00609861 . .
H11_7 H 0.311275 0.962935 0.0490585 . .
O11_7 O 0.5110(5) 0.33481(23) 0.06999(12) 0.0314 Uiso
O16_7 O 0.7439(5) 0.33372(24) 0.09219(11) 0.0314 Uiso
C15_7 C 0.6503(6) 0.32046(30) 0.06514(15) 0.0356 Uiso
C18_7 C 0.7018(4) 0.28310(26) 0.03225(10) 0.0356 Uiso
C21_7 C 0.59627(30) 0.26683(24) 0.00369(11) 0.0356 Uiso
C24_7 C 0.85608(34) 0.26945(25) 0.02789(10) 0.0356 Uiso
H8_7 H 0.477817 0.282375 0.00609861 . .
H9_7 H 0.938725 0.287065 0.0490585 . .
C14_7 C 0.8497(6) 0.17954(30) 0.93486(15) 0.0356 Uiso
C17_7 C 0.7982(4) 0.21690(26) 0.96775(10) 0.0356 Uiso
C20_7 C 0.90373(30) 0.23317(24) 0.99631(11) 0.0356 Uiso
C23_7 C 0.64392(34) 0.23055(25) 0.97211(10) 0.0356 Uiso
H12_7 H 0.561275 0.212935 0.950942 . .
O11_8 O 0.2390(5) 0.41519(23) 0.06999(12) 0.0314 Uiso
O16_8 O 0.0061(5) 0.41628(24) 0.09219(11) 0.0314 Uiso
C15_8 C 0.0997(6) 0.42954(30) 0.06514(15) 0.0356 Uiso
C18_8 C 0.0482(4) 0.46690(26) 0.03225(10) 0.0356 Uiso
C21_8 C 0.15373(30) 0.48317(24) 0.00369(11) 0.0356 Uiso
H8_8 H 0.272183 0.467625 0.00609861 . .
C23_8 C 0.10608(34) 0.51945(25) 0.97211(10) 0.0356 Uiso
H12_8 H 0.188725 0.537065 0.950942 . .
O9_8 O 0.0110(5) 0.83481(23) 0.06999(12) 0.0314 Uiso
O14_8 O 0.2439(5) 0.83372(24) 0.09219(11) 0.0314 Uiso
C13_8 C 0.1503(6) 0.82046(30) 0.06514(15) 0.0356 Uiso
C16_8 C 0.2018(4) 0.78310(26) 0.03225(10) 0.0356 Uiso
C19_8 C 0.09627(30) 0.76683(24) 0.00369(11) 0.0356 Uiso
C22_8 C 0.35608(34) 0.76945(25) 0.02789(10) 0.0356 Uiso
C24_8 C 0.89392(34) 0.48055(25) 0.02789(10) 0.0356 Uiso
H9_8 H 0.811275 0.462935 0.0490585 . .
H11_8 H 0.438725 0.787065 0.0490585 . .
C4_8 C 0.3497(6) 0.67954(30) 0.93486(15) 0.0356 Uiso
C5_8 C 0.2982(4) 0.71690(26) 0.96775(10) 0.0356 Uiso
C6_8 C 0.40373(30) 0.73317(24) 0.99631(11) 0.0356 Uiso
C7_8 C 0.14392(34) 0.73055(25) 0.97211(10) 0.0356 Uiso
C14_8 C 0.9003(6) 0.57046(30) 0.93486(15) 0.0356 Uiso
C17_8 C 0.9518(4) 0.53310(26) 0.96775(10) 0.0356 Uiso
C20_8 C 0.84627(30) 0.51683(24) 0.99631(11) 0.0356 Uiso
H2_8 H 0.522183 0.717625 0.993901 . .
H3_8 H 0.061275 0.712935 0.950942 . .
H7_8 H 0.727817 0.532375 0.993901 . .
H10_8 H 0.977817 0.782375 0.00609861 . .
C1_3 C 0.375 0.23899(25) 0.875 0.0356 Uiso
C2_3 C 0.375 0.30838(12) 0.875 0.0356 Uiso
C3_3 C 0.23732(21) 0.34154(5) 0.87461(24) 0.0356 Uiso
C8_3 C 0.375 0.51101(25) 0.875 0.0356 Uiso
C9_3 C 0.375 0.44162(12) 0.875 0.0356 Uiso
C10_3 C 0.23732(21) 0.40846(5) 0.87539(24) 0.0356 Uiso
C11_3 C 0.51268(21) 0.40846(5) 0.87461(24) 0.0356 Uiso
C12_3 C 0.51268(21) 0.34154(5) 0.87539(24) 0.0356 Uiso
H1_3 H 0.129756 0.315215 0.873697 . .
H4_3 H 0.129756 0.434785 0.876303 . .
H5_3 H 0.620244 0.434785 0.873697 . .
H6_3 H 0.620244 0.315215 0.876303 . .
C1_4 C 0.375 0.01101(25) 0.375 0.0356 Uiso
C2_4 C 0.375 0.94162(12) 0.375 0.0356 Uiso
C3_4 C 0.51268(21) 0.90846(5) 0.37461(24) 0.0356 Uiso
C8_4 C 0.375 0.73899(25) 0.375 0.0356 Uiso
C9_4 C 0.375 0.80838(12) 0.375 0.0356 Uiso
C10_4 C 0.51268(21) 0.84154(5) 0.37539(24) 0.0356 Uiso
C11_4 C 0.23732(21) 0.84154(5) 0.37461(24) 0.0356 Uiso
C12_4 C 0.23732(21) 0.90846(5) 0.37539(24) 0.0356 Uiso
H1_4 H 0.620244 0.934785 0.373697 . .
H4_4 H 0.620244 0.815215 0.376303 . .
H5_4 H 0.129756 0.815215 0.373697 . .
H6_4 H 0.129756 0.934785 0.376303 . .
O1_3 O 0.0068(5) 0.79180(18) 0.63546(13) 0.0314 Uiso
C1_5 C 0.125 0.76101(25) 0.625 0.0356 Uiso
C2_5 C 0.125 0.69162(12) 0.625 0.0356 Uiso
C3_5 C 0.26268(21) 0.65846(5) 0.62539(24) 0.0356 Uiso
O4_3 O 0.2432(5) 0.79180(18) 0.61454(13) 0.0314 Uiso
O5_3 O 0.0068(5) 0.45820(18) 0.61454(13) 0.0314 Uiso
O6_3 O 0.2432(5) 0.45820(18) 0.63546(13) 0.0314 Uiso
O8_5 O 0.5068(5) 0.95820(18) 0.61454(13) 0.0314 Uiso
C8_5 C 0.125 0.48899(25) 0.625 0.0356 Uiso
C9_5 C 0.125 0.55838(12) 0.625 0.0356 Uiso
C10_5 C 0.26268(21) 0.59154(5) 0.62461(24) 0.0356 Uiso
H1_5 H 0.370244 0.684785 0.626303 . .
H4_5 H 0.370244 0.565215 0.623697 . .
O7_5 O 0.7432(5) 0.95820(18) 0.63546(13) 0.0314 Uiso
C11_5 C 0.98732(21) 0.59154(5) 0.62539(24) 0.0356 Uiso
C12_5 C 0.98732(21) 0.65846(5) 0.62461(24) 0.0356 Uiso
H5_5 H 0.879756 0.565215 0.626303 . .
H6_5 H 0.879756 0.684785 0.623697 . .
C2_6 C 0.125 0.05838(12) 0.125 0.0356 Uiso
O5_4 O 0.2432(5) 0.29180(18) 0.11454(13) 0.0314 Uiso
O6_4 O 0.0068(5) 0.29180(18) 0.13546(13) 0.0314 Uiso
C8_6 C 0.125 0.26101(25) 0.125 0.0356 Uiso
C9_6 C 0.125 0.19162(12) 0.125 0.0356 Uiso
C11_6 C 0.26268(21) 0.15846(5) 0.12539(24) 0.0356 Uiso
C12_6 C 0.26268(21) 0.09154(5) 0.12461(24) 0.0356 Uiso
H5_6 H 0.370244 0.184785 0.126303 . .
H6_6 H 0.370244 0.0652152 0.123697 . .
O1_4 O 0.2432(5) 0.95820(18) 0.13546(13) 0.0314 Uiso
C1_6 C 0.125 0.98899(25) 0.125 0.0356 Uiso
O4_4 O 0.0068(5) 0.95820(18) 0.11454(13) 0.0314 Uiso
O7_6 O 0.5068(5) 0.79180(18) 0.13546(13) 0.0314 Uiso
C3_6 C 0.98732(21) 0.09154(5) 0.12539(24) 0.0356 Uiso
C10_6 C 0.98732(21) 0.15846(5) 0.12461(24) 0.0356 Uiso
H1_6 H 0.879756 0.0652152 0.126303 . .
H4_6 H 0.879756 0.184785 0.123697 . .
O8_6 O 0.7432(5) 0.79180(18) 0.11454(13) 0.0314 Uiso
O8_7 O 0.5068(5) 0.29180(18) 0.63546(13) 0.0314 Uiso
O7_7 O 0.7432(5) 0.29180(18) 0.61454(13) 0.0314 Uiso
O8_8 O 0.5068(5) 0.45820(18) 0.11454(13) 0.0314 Uiso
O7_8 O 0.7432(5) 0.45820(18) 0.13546(13) 0.0314 Uiso
C1_7 C 0.625 0.76101(25) 0.125 0.0356 Uiso
C2_7 C 0.625 0.69162(12) 0.125 0.0356 Uiso
C3_7 C 0.76268(21) 0.65846(5) 0.12539(24) 0.0356 Uiso
C8_7 C 0.625 0.48899(25) 0.125 0.0356 Uiso
C9_7 C 0.625 0.55838(12) 0.125 0.0356 Uiso
C10_7 C 0.76268(21) 0.59154(5) 0.12461(24) 0.0356 Uiso
C11_7 C 0.48732(21) 0.59154(5) 0.12539(24) 0.0356 Uiso
C12_7 C 0.48732(21) 0.65846(5) 0.12461(24) 0.0356 Uiso
H1_7 H 0.870244 0.684785 0.126303 . .
H4_7 H 0.870244 0.565215 0.123697 . .
H5_7 H 0.379756 0.565215 0.126303 . .
H6_7 H 0.379756 0.684785 0.123697 . .
C2_8 C 0.625 0.05838(12) 0.625 0.0356 Uiso
C3_8 C 0.48732(21) 0.09154(5) 0.62539(24) 0.0356 Uiso
C8_8 C 0.625 0.26101(25) 0.625 0.0356 Uiso
C9_8 C 0.625 0.19162(12) 0.625 0.0356 Uiso
C10_8 C 0.48732(21) 0.15846(5) 0.62461(24) 0.0356 Uiso
C11_8 C 0.76268(21) 0.15846(5) 0.62539(24) 0.0356 Uiso
C12_8 C 0.76268(21) 0.09154(5) 0.62461(24) 0.0356 Uiso
H1_8 H 0.379756 0.0652152 0.626303 . .
H4_8 H 0.379756 0.184785 0.623697 . .
H5_8 H 0.870244 0.184785 0.626303 . .
H6_8 H 0.870244 0.0652152 0.623697 . .
C1_8 C 0.625 0.98899(25) 0.625 0.0356 Uiso
loop_
_geom_bond_atom_site_label_1
_geom_bond_atom_site_label_2
_geom_bond_site_symmetry_1
_geom_bond_site_symmetry_2
O2 Sc1 1_555 1_555
O3 C4 1_555 1_555
C4 O2 1_555 1_555
C5 C4 1_555 1_555
C6 C5 1_555 1_555
C7 C5 1_555 1_555
Sc3 O3 1_555 1_555
Sc6 O9 1_555 1_555
Sc7 O14 1_555 1_555
O7 Sc1 1_555 1_555
O9 C13 1_555 1_555
O14 C13 1_555 1_555
O17 Sc1 1_555 1_555
C13 C16 1_555 1_555
C16 C19 1_555 1_555
C19 C7 1_555 1_555
C22 C6 1_555 1_555
C11 C12 1_555 1_555
C16 C22 1_555 1_555
C6 H2 1_555 1_555
C7 H3 1_555 1_555
C11 H5 1_555 1_555
C12 H6 1_555 1_555
C19 H10 1_555 1_555
C22 H11 1_555 1_555
O1 C1 1_555 1_555
C1 C2 1_555 1_555
C2 C3 1_555 1_555
C3 C10 1_555 1_555
Sc3 O4 1_555 1_555
Sc5 O6 1_555 1_555
O4 C1 1_555 1_555
O5 C8 1_555 1_555
O6 C8 1_555 1_555
O8 Sc3 1_555 1_555
O12 Sc3 1_555 1_555
O13 Sc3 1_555 1_555
O15 Sc3 1_555 1_555
C8 C9 1_555 1_555
C9 C10 1_555 1_555
C14 O10 1_555 1_555
C17 C14 1_555 1_555
C20 C17 1_555 1_555
C23 C17 1_555 1_555
O15 C14 1_555 1_555
C3 H1 1_555 1_555
C10 H4 1_555 1_555
C23 H12 1_555 1_555
Sc8 O11 1_555 1_555
Sc9 O16 1_555 1_555
O11 C15 1_555 1_555
O16 C15 1_555 1_555
C15 C18 1_555 1_555
C18 C21 1_555 1_555
C24 C18 1_555 1_555
C21 H8 1_555 1_555
C24 H9 1_555 1_555
Sc8_2 O11_2 1_555 1_555
O8_2 Sc2 1_555 1_555
O11_2 C15_2 1_555 1_555
O12_2 Sc2 1_555 1_555
O16_2 C15_2 1_555 1_555
O19 Sc2 1_555 1_555
C15_2 C18_2 1_555 1_555
C18_2 C21_2 1_555 1_555
C21_2 C23_2 1_555 1_555
C21_2 H8_2 1_555 1_555
C23_2 H12_2 1_555 1_555
C3_2 C10_2 1_555 1_555
C3_2 H1_2 1_555 1_555
C10_2 H4_2 1_555 1_555
Sc1_2 O1_2 1_555 1_555
O1_2 C1_2 1_555 1_555
O2_2 Sc1_2 1_555 1_555
O19 C4_2 1_555 1_555
C4_2 O2_2 1_555 1_555
C5_2 C4_2 1_555 1_555
C6_2 C5_2 1_555 1_555
C7_2 C5_2 1_555 1_555
O4_2 C1_2 1_555 1_555
O7_2 Sc1_2 1_555 1_555
O10_2 Sc1_2 1_555 1_555
O17_2 Sc1_2 1_555 1_555
O18_2 Sc1_2 1_555 1_555
C14_2 O10_2 1_555 1_555
C17_2 C14_2 1_555 1_555
C20_2 C17_2 1_555 1_555
O15_2 C14_2 1_555 1_555
C20_2 C24_2 1_555 1_555
C6_2 H2_2 1_555 1_555
C7_2 H3_2 1_555 1_555
C20_2 H7_2 1_555 1_555
C24_2 H9_2 1_555 1_555
Sc4_2 O5_2 1_555 1_555
Sc7_2 O14_2 1_555 1_555
O5_2 C8_2 1_555 1_555
O6_2 C8_2 1_555 1_555
O9_2 C13_2 1_555 1_555
O14_2 C13_2 1_555 1_555
C8_2 C9_2 1_555 1_555
C11_2 C9_2 1_555 1_555
C12_2 C2_2 1_555 1_555
C13_2 C16_2 1_555 1_555
C16_2 C19_2 1_555 1_555
C11_2 C12_2 1_555 1_555
C16_2 C22_2 1_555 1_555
C11_2 H5_2 1_555 1_555
C12_2 H6_2 1_555 1_555
C22_2 H11_2 1_555 1_555
O2_3 Sc4 1_555 1_555
O3_2 C4_3 1_555 1_555
C4_3 O2_3 1_555 1_555
C5_3 C4_3 1_555 1_555
C6_3 C5_3 1_555 1_555
C7_3 C5_3 1_555 1_555
Sc5 O3_2 1_555 1_555
Sc9_2 O9_3 1_555 1_555
Sc8_2 O14_3 1_555 1_555
O7_3 Sc4 1_555 1_555
O9_3 C13_3 1_555 1_555
O14_3 C13_3 1_555 1_555
O17_3 Sc4 1_555 1_555
C13_3 C16_3 1_555 1_555
C16_3 C19_3 1_555 1_555
C19_3 C7_3 1_555 1_555
C22_3 C6_3 1_555 1_555
C16_3 C22_3 1_555 1_555
C6_3 H2_3 1_555 1_555
C7_3 H3_3 1_555 1_555
C19_3 H10_3 1_555 1_555
C22_3 H11_3 1_555 1_555
Sc7_2 O11_3 1_555 1_555
Sc6_2 O16_3 1_555 1_555
O8_3 Sc5 1_555 1_555
O11_3 C15_3 1_555 1_555
O12_3 Sc5 1_555 1_555
O13_3 Sc5 1_555 1_555
O15_3 Sc5 1_555 1_555
O16_3 C15_3 1_555 1_555
C14_3 O10_3 1_555 1_555
C15_3 C18_3 1_555 1_555
C17_3 C14_3 1_555 1_555
C18_3 C21_3 1_555 1_555
C20_3 C17_3 1_555 1_555
C21_3 C23_3 1_555 1_555
C23_3 C17_3 1_555 1_555
C24_3 C18_3 1_555 1_555
O15_3 C14_3 1_555 1_555
C20_3 C24_3 1_555 1_555
C21_3 H8_3 1_555 1_555
C24_3 H9_3 1_555 1_555
C23_3 H12_3 1_555 1_555
C23_4 H12_4 1_555 1_555
Sc7_2 O11_4 1_555 1_555
O11_4 C15_4 1_555 1_555
O16_4 C15_4 1_555 1_555
C15_4 C18_4 1_555 1_555
C18_4 C21_4 1_555 1_555
C21_4 H8_4 1_555 1_555
O17 C4_4 1_555 1_555
C4_4 O12 1_555 1_555
C5_4 C4_4 1_555 1_555
C6_4 C5_4 1_555 1_555
C7_4 C5_4 1_555 1_555
Sc8_2 O14_4 1_555 1_555
O9_4 C13_4 1_555 1_555
O14_4 C13_4 1_555 1_555
C13_4 C16_4 1_555 1_555
C14_4 O13 1_555 1_555
C16_4 C19_4 1_555 1_555
C17_4 C14_4 1_555 1_555
C19_4 C7_4 1_555 1_555
C20_4 C17_4 1_555 1_555
C22_4 C6_4 1_555 1_555
O18 C14_4 1_555 1_555
C16_4 C22_4 1_555 1_555
C6_4 H2_4 1_555 1_555
C7_4 H3_4 1_555 1_555
C20_4 H7_4 1_555 1_555
C22_4 H11_4 1_555 1_555
C24_4 H9_4 1_555 1_555
O2_4 Sc5_2 1_555 1_555
O3_3 C4_5 1_555 1_555
C4_5 O2_4 1_555 1_555
C5_5 C4_5 1_555 1_555
C6_5 C5_5 1_555 1_555
C7_5 C5_5 1_555 1_555
Sc4_2 O3_3 1_555 1_555
Sc6_2 O9_5 1_555 1_555
Sc7_2 O14_5 1_555 1_555
O7_4 Sc5_2 1_555 1_555
O9_5 C13_5 1_555 1_555
O14_5 C13_5 1_555 1_555
O17_4 Sc5_2 1_555 1_555
C13_5 C16_5 1_555 1_555
C16_5 C19_5 1_555 1_555
C19_5 C7_5 1_555 1_555
C22_5 C6_5 1_555 1_555
C16_5 C22_5 1_555 1_555
C6_5 H2_5 1_555 1_555
C7_5 H3_5 1_555 1_555
C19_5 H10_5 1_555 1_555
C22_5 H11_5 1_555 1_555
Sc8_2 O11_5 1_555 1_555
Sc9_2 O16_5 1_555 1_555
O8_4 Sc4_2 1_555 1_555
O11_5 C15_5 1_555 1_555
O12_4 Sc4_2 1_555 1_555
O13_4 Sc4_2 1_555 1_555
O15_4 Sc4_2 1_555 1_555
O16_5 C15_5 1_555 1_555
C14_5 O10_4 1_555 1_555
C15_5 C18_5 1_555 1_555
C17_5 C14_5 1_555 1_555
C18_5 C21_5 1_555 1_555
C20_5 C17_5 1_555 1_555
C21_5 C23_5 1_555 1_555
C23_5 C17_5 1_555 1_555
C24_5 C18_5 1_555 1_555
O15_4 C14_5 1_555 1_555
C20_5 C24_5 1_555 1_555
C21_5 H8_5 1_555 1_555
C24_5 H9_5 1_555 1_555
C23_5 H12_5 1_555 1_555
Sc8 O11_6 1_555 1_555
O11_6 C15_6 1_555 1_555
O16_6 C15_6 1_555 1_555
C15_6 C18_6 1_555 1_555
C18_6 C21_6 1_555 1_555
C21_6 C23_6 1_555 1_555
C21_6 H8_6 1_555 1_555
C23_6 H12_6 1_555 1_555
O17_3 C4_6 1_555 1_555
C4_6 O12_3 1_555 1_555
C5_6 C4_6 1_555 1_555
C6_6 C5_6 1_555 1_555
C7_6 C5_6 1_555 1_555
Sc7 O14_6 1_555 1_555
O9_6 C13_6 1_555 1_555
O14_6 C13_6 1_555 1_555
C13_6 C16_6 1_555 1_555
C14_6 O13_3 1_555 1_555
C16_6 C19_6 1_555 1_555
C17_6 C14_6 1_555 1_555
C19_6 C7_6 1_555 1_555
C20_6 C17_6 1_555 1_555
C22_6 C6_6 1_555 1_555
O18_3 C14_6 1_555 1_555
C16_6 C22_6 1_555 1_555
C20_6 C24_6 1_555 1_555
C6_6 H2_6 1_555 1_555
C7_6 H3_6 1_555 1_555
C20_6 H7_6 1_555 1_555
C24_6 H9_6 1_555 1_555
C22_6 H11_6 1_555 1_555
O17_2 C4_7 1_555 1_555
C4_7 O12_2 1_555 1_555
C5_7 C4_7 1_555 1_555
C6_7 C5_7 1_555 1_555
C7_7 C5_7 1_555 1_555
C6_7 H2_7 1_555 1_555
C7_7 H3_7 1_555 1_555
Sc9 O9_7 1_555 1_555
Sc8 O14_7 1_555 1_555
O9_7 C13_7 1_555 1_555
O14_7 C13_7 1_555 1_555
C13_7 C16_7 1_555 1_555
C16_7 C19_7 1_555 1_555
C16_7 C22_7 1_555 1_555
C19_7 H10_7 1_555 1_555
C22_7 H11_7 1_555 1_555
Sc7 O11_7 1_555 1_555
Sc6 O16_7 1_555 1_555
O11_7 C15_7 1_555 1_555
O16_7 C15_7 1_555 1_555
C15_7 C18_7 1_555 1_555
C18_7 C21_7 1_555 1_555
C24_7 C18_7 1_555 1_555
C21_7 H8_7 1_555 1_555
C24_7 H9_7 1_555 1_555
C14_7 O13_2 1_555 1_555
C17_7 C14_7 1_555 1_555
C20_7 C17_7 1_555 1_555
C23_7 C17_7 1_555 1_555
O18_2 C14_7 1_555 1_555
C23_7 H12_7 1_555 1_555
Sc7 O11_8 1_555 1_555
O11_8 C15_8 1_555 1_555
O16_8 C15_8 1_555 1_555
C15_8 C18_8 1_555 1_555
C18_8 C21_8 1_555 1_555
C21_8 H8_8 1_555 1_555
C23_8 H12_8 1_555 1_555
Sc8 O14_8 1_555 1_555
O9_8 C13_8 1_555 1_555
O14_8 C13_8 1_555 1_555
C13_8 C16_8 1_555 1_555
C16_8 C19_8 1_555 1_555
C16_8 C22_8 1_555 1_555
C24_8 H9_8 1_555 1_555
C22_8 H11_8 1_555 1_555
O17_4 C4_8 1_555 1_555
C4_8 O12_4 1_555 1_555
C5_8 C4_8 1_555 1_555
C6_8 C5_8 1_555 1_555
C7_8 C5_8 1_555 1_555
C14_8 O13_4 1_555 1_555
C17_8 C14_8 1_555 1_555
C20_8 C17_8 1_555 1_555
O18_4 C14_8 1_555 1_555
C6_8 H2_8 1_555 1_555
C7_8 H3_8 1_555 1_555
C20_8 H7_8 1_555 1_555
O7_2 C1_3 1_555 1_555
C1_3 C2_3 1_555 1_555
C2_3 C3_3 1_555 1_555
C3_3 C10_3 1_555 1_555
O8_2 C1_3 1_555 1_555
O8_4 C8_3 1_555 1_555
O7_4 C8_3 1_555 1_555
C8_3 C9_3 1_555 1_555
C9_3 C10_3 1_555 1_555
C11_3 C9_3 1_555 1_555
C12_3 C2_3 1_555 1_555
C11_3 C12_3 1_555 1_555
C3_3 H1_3 1_555 1_555
C10_3 H4_3 1_555 1_555
C11_3 H5_3 1_555 1_555
C12_3 H6_3 1_555 1_555
O7 C1_4 1_555 1_555
O8 C1_4 1_555 1_555
C2_4 C3_4 1_555 1_555
C3_4 C10_4 1_555 1_555
O7_3 C8_4 1_555 1_555
O8_3 C8_4 1_555 1_555
C8_4 C9_4 1_555 1_555
C9_4 C10_4 1_555 1_555
C11_4 C9_4 1_555 1_555
C12_4 C2_4 1_555 1_555
C11_4 C12_4 1_555 1_555
C3_4 H1_4 1_555 1_555
C10_4 H4_4 1_555 1_555
C11_4 H5_4 1_555 1_555
C12_4 H6_4 1_555 1_555
O1_3 C1_5 1_555 1_555
C1_5 C2_5 1_555 1_555
C2_5 C3_5 1_555 1_555
C3_5 C10_5 1_555 1_555
Sc7_2 O4_3 1_555 1_555
Sc8_2 O6_3 1_555 1_555
O4_3 C1_5 1_555 1_555
O5_3 C8_5 1_555 1_555
O6_3 C8_5 1_555 1_555
O8_5 Sc7_2 1_555 1_555
C8_5 C9_5 1_555 1_555
C9_5 C10_5 1_555 1_555
C3_5 H1_5 1_555 1_555
C10_5 H4_5 1_555 1_555
O7_5 Sc6_2 1_555 1_555
C11_5 C12_5 1_555 1_555
C11_5 H5_5 1_555 1_555
C12_5 H6_5 1_555 1_555
Sc7 O5_4 1_555 1_555
O5_4 C8_6 1_555 1_555
O6_4 C8_6 1_555 1_555
C8_6 C9_6 1_555 1_555
C11_6 C9_6 1_555 1_555
C12_6 C2_6 1_555 1_555
C11_6 C12_6 1_555 1_555
C11_6 H5_6 1_555 1_555
C12_6 H6_6 1_555 1_555
Sc8 O1_4 1_555 1_555
O1_4 C1_6 1_555 1_555
O4_4 C1_6 1_555 1_555
O7_6 Sc8 1_555 1_555
C3_6 C10_6 1_555 1_555
C3_6 H1_6 1_555 1_555
C10_6 H4_6 1_555 1_555
O8_6 Sc9 1_555 1_555
O8_7 Sc8_2 1_555 1_555
O7_7 Sc9_2 1_555 1_555
O8_8 Sc7 1_555 1_555
O7_8 Sc6 1_555 1_555
O7_6 C1_7 1_555 1_555
C1_7 C2_7 1_555 1_555
C2_7 C3_7 1_555 1_555
C3_7 C10_7 1_555 1_555
O8_6 C1_7 1_555 1_555
O8_8 C8_7 1_555 1_555
O7_8 C8_7 1_555 1_555
C8_7 C9_7 1_555 1_555
C9_7 C10_7 1_555 1_555
C11_7 C9_7 1_555 1_555
C12_7 C2_7 1_555 1_555
C11_7 C12_7 1_555 1_555
C3_7 H1_7 1_555 1_555
C10_7 H4_7 1_555 1_555
C11_7 H5_7 1_555 1_555
C12_7 H6_7 1_555 1_555
C2_8 C3_8 1_555 1_555
C3_8 C10_8 1_555 1_555
O7_7 C8_8 1_555 1_555
O8_7 C8_8 1_555 1_555
C8_8 C9_8 1_555 1_555
C9_8 C10_8 1_555 1_555
C11_8 C9_8 1_555 1_555
C12_8 C2_8 1_555 1_555
C11_8 C12_8 1_555 1_555
C3_8 H1_8 1_555 1_555
C10_8 H4_8 1_555 1_555
C11_8 H5_8 1_555 1_555
C12_8 H6_8 1_555 1_555
O7_5 C1_8 1_555 1_555
O8_5 C1_8 1_555 1_555

#END
