
###############################################################################
#
# This file contains modified crystal structure data generated from the
# MOF subset of the Cambridge Structural Database (CSD) v543 
# hosted by the Cambridge Crystallographic Data Centre (CCDC).
#
# This work is licensed under the Creative Commons
# Attribution-NonCommercial-ShareAlike 4.0 International License.
# To view a copy of this license, visit
# http://creativecommons.org/licenses/by-nc-sa/4.0/
# or send a letter to
# Creative Commons, PO Box 1866, Mountain View, CA 94042, USA.
#
# CIF created using the CSD Python API on 29 September 2022
# The structure has been converted into the P1 space group
# The structure has a 3D framework
# The original CSD entry HAZGOF12 is in the orthorhombic crystal system
# The framework has been calculated to contain at least 10.0% void space
# The void calculation uses a probe of radius 1.32A, grid spacing 0.4
#
###############################################################################

data_HAZGOF12
_chemical_formula_moiety         '(C192 H96 O96 Sc16)n'
_symmetry_cell_setting           triclinic
_symmetry_space_group_name_H-M   'P 1'
_symmetry_Int_Tables_number      1
_space_group_name_Hall           'P 1'
loop_
_symmetry_equiv_pos_site_id
_symmetry_equiv_pos_as_xyz
1 x,y,z
_cell_length_a                   8.744(3)
_cell_length_b                   20.762(6)
_cell_length_c                   34.408(11)
_cell_angle_alpha                90
_cell_angle_beta                 90
_cell_angle_gamma                90
_cell_volume                     6246.53
loop_
_atom_site_label
_atom_site_type_symbol
_atom_site_fract_x
_atom_site_fract_y
_atom_site_fract_z
H11 H 0.0076 0.5237 0.7577
Sc3 Sc 0.1250 0.6250 0.864281(16)
Sc1 Sc 0.3750 0.3750 0.635719(16)
O1 O 0.24144(19) 0.33329(10) 0.67945(5)
C1 C 0.1026(3) 0.31962(13) 0.68231(7)
O2 O 0.0045(2) 0.33430(11) 0.65742(6)
C2 C 0.0497(3) 0.28361(14) 0.71745(7)
C3 C 0.1521(3) 0.26411(18) 0.74533(8)
C4 C 0.1031(3) 0.23075(18) 0.77770(8)
O3 O 0.2448(2) 0.45826(9) 0.63538(6)
C5 C 0.1250 0.48612(16) 0.6250
C6 C 0.1250 0.55854(17) 0.6250
C7 C 0.2606(3) 0.59173(13) 0.62538(13)
H1 H 0.2576 0.2737 0.7423
H2 H 0.1751 0.2176 0.7968
H3 H 0.3547 0.5689 0.6262
O6 O 0.2448(2) 0.79174(9) 0.61462(6)
C12 C 0.1250 0.76388(16) 0.6250
C13 C 0.1250 0.69146(17) 0.6250
C14 C 0.2606(3) 0.65827(13) 0.62462(13)
H6 H 0.3547 0.6811 0.6238
O7 O 0.0052(2) 0.45826(9) 0.61462(6)
O8 O 0.0052(2) 0.79174(9) 0.63538(6)
O9 O 0.50856(19) 0.41671(10) 0.67945(5)
C17 C 0.6474(3) 0.43038(13) 0.68231(7)
O10 O 0.7455(2) 0.41570(11) 0.65742(6)
C18 C 0.7003(3) 0.46639(14) 0.71745(7)
C19 C 0.5979(3) 0.48589(18) 0.74533(8)
C20 C 0.6469(3) 0.51925(18) 0.77770(8)
H9 H 0.4924 0.4763 0.7423
H10 H 0.5749 0.5324 0.7968
O11 O 0.99144(19) 0.58329(10) 0.82055(5)
C21 C 0.8526(3) 0.56962(13) 0.81769(7)
O12 O 0.7545(2) 0.58430(11) 0.84258(6)
C22 C 0.7997(3) 0.53361(14) 0.78255(7)
C23 C 0.9021(3) 0.51411(18) 0.75467(8)
C24 C 0.8531(3) 0.48075(18) 0.72230(8)
H12 H 0.9251 0.4676 0.7032
Sc5 Sc 0.6250 0.6250 0.885719(16)
Sc6 Sc 0.3750 0.8750 0.614281(16)
Sc7 Sc 0.1250 0.1250 0.885719(16)
Sc9 Sc 0.8750 0.3750 0.614281(16)
O15 O 0.5045(2) 0.41570(11) 0.59258(6)
O16 O 0.2455(2) 0.33430(11) 0.59258(6)
O20 O 0.5052(2) 0.29174(9) 0.63538(6)
O4 O 0.75856(19) 0.16671(10) 0.82055(5)
C8 C 0.8974(3) 0.18038(13) 0.81769(7)
O5 O 0.9955(2) 0.16570(11) 0.84258(6)
C9 C 0.9503(3) 0.21639(14) 0.78255(7)
C10 C 0.8479(3) 0.23589(18) 0.75467(8)
C11 C 0.8969(3) 0.26925(18) 0.72230(8)
H4 H 0.7424 0.2263 0.7577
H5 H 0.8249 0.2824 0.7032
C15 C 0.9894(3) 0.59173(13) 0.62462(13)
H7 H 0.8953 0.5689 0.6238
C16 C 0.9894(3) 0.65827(13) 0.62538(13)
H8 H 0.8953 0.6811 0.6262
Sc2 Sc 0.6250 0.1250 0.864281(16)
Sc4 Sc 0.8750 0.8750 0.635719(16)
O13 O 0.49144(19) 0.08329(10) 0.82055(5)
O14 O 0.4955(2) 0.08430(11) 0.90742(6)
O17 O 0.7545(2) 0.16570(11) 0.90742(6)
O18 O 0.7552(2) 0.04174(9) 0.86462(6)
O19 O 0.4948(2) 0.20826(9) 0.86462(6)
H11_2 H 0.0076 0.0237 0.2577
Sc3_2 Sc 0.1250 0.1250 0.364281(16)
C6_2 C 0.1250 0.05854(17) 0.1250
C7_2 C 0.2606(3) 0.09173(13) 0.12538(13)
H3_2 H 0.3547 0.0689 0.1262
O6_2 O 0.2448(2) 0.29174(9) 0.11462(6)
C12_2 C 0.1250 0.26388(16) 0.1250
C13_2 C 0.1250 0.19146(17) 0.1250
C14_2 C 0.2606(3) 0.15827(13) 0.12462(13)
H6_2 H 0.3547 0.1811 0.1238
O8_2 O 0.0052(2) 0.29174(9) 0.13538(6)
C20_2 C 0.6469(3) 0.01925(18) 0.27770(8)
H10_2 H 0.5749 0.0324 0.2968
O11_2 O 0.99144(19) 0.08329(10) 0.32055(5)
C21_2 C 0.8526(3) 0.06962(13) 0.31769(7)
O12_2 O 0.7545(2) 0.08430(11) 0.34258(6)
C22_2 C 0.7997(3) 0.03361(14) 0.28255(7)
C23_2 C 0.9021(3) 0.01411(18) 0.25467(8)
Sc5_2 Sc 0.6250 0.1250 0.385719(16)
Sc6_2 Sc 0.3750 0.3750 0.114281(16)
Sc1_2 Sc 0.3750 0.8750 0.135719(16)
O1_2 O 0.24144(19) 0.83329(10) 0.17945(5)
C1_2 C 0.1026(3) 0.81962(13) 0.18231(7)
O2_2 O 0.0045(2) 0.83430(11) 0.15742(6)
C2_2 C 0.0497(3) 0.78361(14) 0.21745(7)
C3_2 C 0.1521(3) 0.76411(18) 0.24533(8)
C4_2 C 0.1031(3) 0.73075(18) 0.27770(8)
O3_2 O 0.2448(2) 0.95826(9) 0.13538(6)
C5_2 C 0.1250 0.98612(16) 0.1250
H1_2 H 0.2576 0.7737 0.2423
H2_2 H 0.1751 0.7176 0.2968
O7_2 O 0.0052(2) 0.95826(9) 0.11462(6)
O9_2 O 0.50856(19) 0.91671(10) 0.17945(5)
C17_2 C 0.6474(3) 0.93038(13) 0.18231(7)
O10_2 O 0.7455(2) 0.91570(11) 0.15742(6)
C18_2 C 0.7003(3) 0.96639(14) 0.21745(7)
C19_2 C 0.5979(3) 0.98589(18) 0.24533(8)
H9_2 H 0.4924 0.9763 0.2423
C24_2 C 0.8531(3) 0.98075(18) 0.22230(8)
H12_2 H 0.9251 0.9676 0.2032
Sc7_2 Sc 0.1250 0.6250 0.385719(16)
Sc9_2 Sc 0.8750 0.8750 0.114281(16)
O15_2 O 0.5045(2) 0.91570(11) 0.09258(6)
O16_2 O 0.2455(2) 0.83430(11) 0.09258(6)
O20_2 O 0.5052(2) 0.79174(9) 0.13538(6)
C15_2 C 0.9894(3) 0.09173(13) 0.12462(13)
H7_2 H 0.8953 0.0689 0.1238
C16_2 C 0.9894(3) 0.15827(13) 0.12538(13)
H8_2 H 0.8953 0.1811 0.1262
Sc4_2 Sc 0.8750 0.3750 0.135719(16)
O4_2 O 0.75856(19) 0.66671(10) 0.32055(5)
C8_2 C 0.8974(3) 0.68038(13) 0.31769(7)
O5_2 O 0.9955(2) 0.66570(11) 0.34258(6)
C9_2 C 0.9503(3) 0.71639(14) 0.28255(7)
C10_2 C 0.8479(3) 0.73589(18) 0.25467(8)
C11_2 C 0.8969(3) 0.76925(18) 0.22230(8)
H4_2 H 0.7424 0.7263 0.2577
H5_2 H 0.8249 0.7824 0.2032
Sc2_2 Sc 0.6250 0.6250 0.364281(16)
O13_2 O 0.49144(19) 0.58329(10) 0.32055(5)
O14_2 O 0.4955(2) 0.58430(11) 0.40742(6)
O17_2 O 0.7545(2) 0.66570(11) 0.40742(6)
O18_2 O 0.7552(2) 0.54174(9) 0.36462(6)
O19_2 O 0.4948(2) 0.70826(9) 0.36462(6)
O9_3 O 0.00856(19) 0.41671(10) 0.17945(5)
C17_3 C 0.1474(3) 0.43038(13) 0.18231(7)
O10_3 O 0.2455(2) 0.41570(11) 0.15742(6)
C18_3 C 0.2003(3) 0.46639(14) 0.21745(7)
C19_3 C 0.0979(3) 0.48589(18) 0.24533(8)
C20_3 C 0.1469(3) 0.51925(18) 0.27770(8)
H10_3 H 0.0749 0.5324 0.2968
C21_3 C 0.3526(3) 0.56962(13) 0.31769(7)
O12_3 O 0.2545(2) 0.58430(11) 0.34258(6)
C22_3 C 0.2997(3) 0.53361(14) 0.28255(7)
C23_3 C 0.4021(3) 0.51411(18) 0.25467(8)
C24_3 C 0.3531(3) 0.48075(18) 0.22230(8)
H11_3 H 0.5076 0.5237 0.2577
H12_3 H 0.4251 0.4676 0.2032
O15_3 O 0.0045(2) 0.41570(11) 0.09258(6)
O1_3 O 0.74144(19) 0.33329(10) 0.17945(5)
C1_3 C 0.6026(3) 0.31962(13) 0.18231(7)
O2_3 O 0.5045(2) 0.33430(11) 0.15742(6)
C2_3 C 0.5497(3) 0.28361(14) 0.21745(7)
C3_3 C 0.6521(3) 0.26411(18) 0.24533(8)
C4_3 C 0.6031(3) 0.23075(18) 0.27770(8)
O3_3 O 0.7448(2) 0.45826(9) 0.13538(6)
C5_3 C 0.6250 0.48612(16) 0.1250
C6_3 C 0.6250 0.55854(17) 0.1250
C7_3 C 0.7606(3) 0.59173(13) 0.12538(13)
H1_3 H 0.7576 0.2737 0.2423
H2_3 H 0.6751 0.2176 0.2968
H3_3 H 0.8547 0.5689 0.1262
O4_3 O 0.25856(19) 0.16671(10) 0.32055(5)
C8_3 C 0.3974(3) 0.18038(13) 0.31769(7)
O5_3 O 0.4955(2) 0.16570(11) 0.34258(6)
C9_3 C 0.4503(3) 0.21639(14) 0.28255(7)
C10_3 C 0.3479(3) 0.23589(18) 0.25467(8)
C11_3 C 0.3969(3) 0.26925(18) 0.22230(8)
H4_3 H 0.2424 0.2263 0.2577
H5_3 H 0.3249 0.2824 0.2032
O6_3 O 0.7448(2) 0.79174(9) 0.11462(6)
C12_3 C 0.6250 0.76388(16) 0.1250
C13_3 C 0.6250 0.69146(17) 0.1250
C14_3 C 0.7606(3) 0.65827(13) 0.12462(13)
H6_3 H 0.8547 0.6811 0.1238
O7_3 O 0.5052(2) 0.45826(9) 0.11462(6)
C15_3 C 0.4894(3) 0.59173(13) 0.12462(13)
H7_3 H 0.3953 0.5689 0.1238
C16_3 C 0.4894(3) 0.65827(13) 0.12538(13)
H8_3 H 0.3953 0.6811 0.1262
H9_3 H 0.9924 0.4763 0.2423
O16_3 O 0.7455(2) 0.33430(11) 0.09258(6)
O17_3 O 0.2545(2) 0.16570(11) 0.40742(6)
O18_3 O 0.2552(2) 0.04174(9) 0.36462(6)
O14_3 O 0.9955(2) 0.08430(11) 0.40742(6)
O19_3 O 0.9948(2) 0.20826(9) 0.36462(6)
C20_4 C 0.1469(3) 0.01925(18) 0.77770(8)
H10_4 H 0.0749 0.0324 0.7968
C21_4 C 0.3526(3) 0.06962(13) 0.81769(7)
O12_4 O 0.2545(2) 0.08430(11) 0.84258(6)
C22_4 C 0.2997(3) 0.03361(14) 0.78255(7)
C23_4 C 0.4021(3) 0.01411(18) 0.75467(8)
H11_4 H 0.5076 0.0237 0.7577
O9_4 O 0.00856(19) 0.91671(10) 0.67945(5)
C17_4 C 0.1474(3) 0.93038(13) 0.68231(7)
O10_4 O 0.2455(2) 0.91570(11) 0.65742(6)
C18_4 C 0.2003(3) 0.96639(14) 0.71745(7)
C19_4 C 0.0979(3) 0.98589(18) 0.74533(8)
C24_4 C 0.3531(3) 0.98075(18) 0.72230(8)
H12_4 H 0.4251 0.9676 0.7032
O15_4 O 0.0045(2) 0.91570(11) 0.59258(6)
C6_4 C 0.6250 0.05854(17) 0.6250
C7_4 C 0.7606(3) 0.09173(13) 0.62538(13)
H3_4 H 0.8547 0.0689 0.6262
O6_4 O 0.7448(2) 0.29174(9) 0.61462(6)
C12_4 C 0.6250 0.26388(16) 0.6250
C13_4 C 0.6250 0.19146(17) 0.6250
C14_4 C 0.7606(3) 0.15827(13) 0.62462(13)
H6_4 H 0.8547 0.1811 0.6238
C15_4 C 0.4894(3) 0.09173(13) 0.62462(13)
H7_4 H 0.3953 0.0689 0.6238
C16_4 C 0.4894(3) 0.15827(13) 0.62538(13)
H8_4 H 0.3953 0.1811 0.6262
O1_4 O 0.74144(19) 0.83329(10) 0.67945(5)
C1_4 C 0.6026(3) 0.81962(13) 0.68231(7)
O2_4 O 0.5045(2) 0.83430(11) 0.65742(6)
C2_4 C 0.5497(3) 0.78361(14) 0.71745(7)
C3_4 C 0.6521(3) 0.76411(18) 0.74533(8)
C4_4 C 0.6031(3) 0.73075(18) 0.77770(8)
O3_4 O 0.7448(2) 0.95826(9) 0.63538(6)
C5_4 C 0.6250 0.98612(16) 0.6250
H1_4 H 0.7576 0.7737 0.7423
H2_4 H 0.6751 0.7176 0.7968
O4_4 O 0.25856(19) 0.66671(10) 0.82055(5)
C8_4 C 0.3974(3) 0.68038(13) 0.81769(7)
O5_4 O 0.4955(2) 0.66570(11) 0.84258(6)
C9_4 C 0.4503(3) 0.71639(14) 0.78255(7)
C10_4 C 0.3479(3) 0.73589(18) 0.75467(8)
C11_4 C 0.3969(3) 0.76925(18) 0.72230(8)
H4_4 H 0.2424 0.7263 0.7577
H5_4 H 0.3249 0.7824 0.7032
O7_4 O 0.5052(2) 0.95826(9) 0.61462(6)
H9_4 H 0.9924 0.9763 0.7423
O16_4 O 0.7455(2) 0.83430(11) 0.59258(6)
O17_4 O 0.2545(2) 0.66570(11) 0.90742(6)
O18_4 O 0.2552(2) 0.54174(9) 0.86462(6)
O14_4 O 0.9955(2) 0.58430(11) 0.90742(6)
O19_4 O 0.9948(2) 0.70826(9) 0.86462(6)
H11_5 H 0.0076 0.7263 0.4923
C4_5 C 0.1031(3) 0.01925(18) 0.47230(8)
H2_5 H 0.1751 0.0324 0.4532
O1_5 O 0.24144(19) 0.91671(10) 0.57055(5)
C1_5 C 0.1026(3) 0.93038(13) 0.56769(7)
C2_5 C 0.0497(3) 0.96639(14) 0.53255(7)
C3_5 C 0.1521(3) 0.98589(18) 0.50467(8)
H1_5 H 0.2576 0.9763 0.5077
O9_5 O 0.50856(19) 0.83329(10) 0.57055(5)
C17_5 C 0.6474(3) 0.81962(13) 0.56769(7)
C18_5 C 0.7003(3) 0.78361(14) 0.53255(7)
C19_5 C 0.5979(3) 0.76411(18) 0.50467(8)
C20_5 C 0.6469(3) 0.73075(18) 0.47230(8)
H9_5 H 0.4924 0.7737 0.5077
H10_5 H 0.5749 0.7176 0.4532
O11_3 O 0.99144(19) 0.66671(10) 0.42945(5)
C21_5 C 0.8526(3) 0.68038(13) 0.43231(7)
C22_5 C 0.7997(3) 0.71639(14) 0.46745(7)
C23_5 C 0.9021(3) 0.73589(18) 0.49533(8)
C24_5 C 0.8531(3) 0.76925(18) 0.52770(8)
H12_5 H 0.9251 0.7824 0.5468
O4_5 O 0.75856(19) 0.08329(10) 0.42945(5)
C8_5 C 0.8974(3) 0.06962(13) 0.43231(7)
C9_5 C 0.9503(3) 0.03361(14) 0.46745(7)
C10_5 C 0.8479(3) 0.01411(18) 0.49533(8)
H4_5 H 0.7424 0.0237 0.4923
O13_3 O 0.49144(19) 0.16671(10) 0.42945(5)
O18_5 O 0.7552(2) 0.20826(9) 0.38538(6)
O19_5 O 0.4948(2) 0.04174(9) 0.38538(6)
C11_5 C 0.8969(3) 0.98075(18) 0.52770(8)
H5_5 H 0.8249 0.9676 0.5468
H11_6 H 0.0076 0.2263 0.9923
O1_6 O 0.24144(19) 0.41671(10) 0.07055(5)
C1_6 C 0.1026(3) 0.43038(13) 0.06769(7)
C2_6 C 0.0497(3) 0.46639(14) 0.03255(7)
C3_6 C 0.1521(3) 0.48589(18) 0.00467(8)
H1_6 H 0.2576 0.4763 0.0077
O9_6 O 0.50856(19) 0.33329(10) 0.07055(5)
C17_6 C 0.6474(3) 0.31962(13) 0.06769(7)
C18_6 C 0.7003(3) 0.28361(14) 0.03255(7)
C19_6 C 0.5979(3) 0.26411(18) 0.00467(8)
H9_6 H 0.4924 0.2737 0.0077
C24_6 C 0.8531(3) 0.26925(18) 0.02770(8)
H12_6 H 0.9251 0.2824 0.0468
C4_6 C 0.1031(3) 0.51925(18) 0.97230(8)
H2_6 H 0.1751 0.5324 0.9532
C20_6 C 0.6469(3) 0.23075(18) 0.97230(8)
H10_6 H 0.5749 0.2176 0.9532
O11_4 O 0.99144(19) 0.16671(10) 0.92945(5)
C21_6 C 0.8526(3) 0.18038(13) 0.93231(7)
C22_6 C 0.7997(3) 0.21639(14) 0.96745(7)
C23_6 C 0.9021(3) 0.23589(18) 0.99533(8)
C11_6 C 0.8969(3) 0.48075(18) 0.02770(8)
H5_6 H 0.8249 0.4676 0.0468
O4_6 O 0.75856(19) 0.58329(10) 0.92945(5)
C8_6 C 0.8974(3) 0.56962(13) 0.93231(7)
C9_6 C 0.9503(3) 0.53361(14) 0.96745(7)
C10_6 C 0.8479(3) 0.51411(18) 0.99533(8)
H4_6 H 0.7424 0.5237 0.9923
O13_4 O 0.49144(19) 0.66671(10) 0.92945(5)
O18_6 O 0.7552(2) 0.70826(9) 0.88538(6)
O19_6 O 0.4948(2) 0.54174(9) 0.88538(6)
O9_7 O 0.00856(19) 0.83329(10) 0.07055(5)
C17_7 C 0.1474(3) 0.81962(13) 0.06769(7)
C18_7 C 0.2003(3) 0.78361(14) 0.03255(7)
C19_7 C 0.0979(3) 0.76411(18) 0.00467(8)
C24_7 C 0.3531(3) 0.76925(18) 0.02770(8)
H12_7 H 0.4251 0.7824 0.0468
C20_7 C 0.1469(3) 0.73075(18) 0.97230(8)
H10_7 H 0.0749 0.7176 0.9532
C21_7 C 0.3526(3) 0.68038(13) 0.93231(7)
C22_7 C 0.2997(3) 0.71639(14) 0.96745(7)
C23_7 C 0.4021(3) 0.73589(18) 0.99533(8)
H11_7 H 0.5076 0.7263 0.9923
C4_7 C 0.6031(3) 0.01925(18) 0.97230(8)
H2_7 H 0.6751 0.0324 0.9532
O4_7 O 0.25856(19) 0.08329(10) 0.92945(5)
C8_7 C 0.3974(3) 0.06962(13) 0.93231(7)
C9_7 C 0.4503(3) 0.03361(14) 0.96745(7)
C10_7 C 0.3479(3) 0.01411(18) 0.99533(8)
H4_7 H 0.2424 0.0237 0.9923
O18_7 O 0.2552(2) 0.20826(9) 0.88538(6)
O1_7 O 0.74144(19) 0.91671(10) 0.07055(5)
C1_7 C 0.6026(3) 0.93038(13) 0.06769(7)
C2_7 C 0.5497(3) 0.96639(14) 0.03255(7)
C3_7 C 0.6521(3) 0.98589(18) 0.00467(8)
H1_7 H 0.7576 0.9763 0.0077
C11_7 C 0.3969(3) 0.98075(18) 0.02770(8)
H5_7 H 0.3249 0.9676 0.0468
H9_7 H 0.9924 0.7737 0.0077
O19_7 O 0.9948(2) 0.04174(9) 0.88538(6)
O9_8 O 0.00856(19) 0.33329(10) 0.57055(5)
C17_8 C 0.1474(3) 0.31962(13) 0.56769(7)
C18_8 C 0.2003(3) 0.28361(14) 0.53255(7)
C19_8 C 0.0979(3) 0.26411(18) 0.50467(8)
C20_8 C 0.1469(3) 0.23075(18) 0.47230(8)
H10_8 H 0.0749 0.2176 0.4532
C21_8 C 0.3526(3) 0.18038(13) 0.43231(7)
C22_8 C 0.2997(3) 0.21639(14) 0.46745(7)
C23_8 C 0.4021(3) 0.23589(18) 0.49533(8)
C24_8 C 0.3531(3) 0.26925(18) 0.52770(8)
H11_8 H 0.5076 0.2263 0.4923
H12_8 H 0.4251 0.2824 0.5468
O1_8 O 0.74144(19) 0.41671(10) 0.57055(5)
C1_8 C 0.6026(3) 0.43038(13) 0.56769(7)
C2_8 C 0.5497(3) 0.46639(14) 0.53255(7)
C3_8 C 0.6521(3) 0.48589(18) 0.50467(8)
C4_8 C 0.6031(3) 0.51925(18) 0.47230(8)
H1_8 H 0.7576 0.4763 0.5077
H2_8 H 0.6751 0.5324 0.4532
O4_8 O 0.25856(19) 0.58329(10) 0.42945(5)
C8_8 C 0.3974(3) 0.56962(13) 0.43231(7)
C9_8 C 0.4503(3) 0.53361(14) 0.46745(7)
C10_8 C 0.3479(3) 0.51411(18) 0.49533(8)
C11_8 C 0.3969(3) 0.48075(18) 0.52770(8)
H4_8 H 0.2424 0.5237 0.4923
H5_8 H 0.3249 0.4676 0.5468
H9_8 H 0.9924 0.2737 0.5077
O18_8 O 0.2552(2) 0.70826(9) 0.38538(6)
O19_8 O 0.9948(2) 0.54174(9) 0.38538(6)
C15_5 C 0.0106(3) 0.40827(13) 0.37538(13)
H7_5 H 0.1047 0.4311 0.3762
C16_5 C 0.0106(3) 0.34173(13) 0.37462(13)
H8_5 H 0.1047 0.3189 0.3738
C5_5 C 0.8750 0.51388(16) 0.3750
C6_5 C 0.8750 0.44146(17) 0.3750
C7_5 C 0.7394(3) 0.40827(13) 0.37462(13)
H3_5 H 0.6453 0.4311 0.3738
C12_5 C 0.8750 0.23612(16) 0.3750
C13_5 C 0.8750 0.30854(17) 0.3750
C14_5 C 0.7394(3) 0.34173(13) 0.37538(13)
H6_5 H 0.6453 0.3189 0.3762
C15_6 C 0.0106(3) 0.90827(13) 0.87538(13)
H7_6 H 0.1047 0.9311 0.8762
C16_6 C 0.0106(3) 0.84173(13) 0.87462(13)
H8_6 H 0.1047 0.8189 0.8738
C5_6 C 0.8750 0.01388(16) 0.8750
C6_6 C 0.8750 0.94146(17) 0.8750
C7_6 C 0.7394(3) 0.90827(13) 0.87462(13)
H3_6 H 0.6453 0.9311 0.8738
C12_6 C 0.8750 0.73612(16) 0.8750
C13_6 C 0.8750 0.80854(17) 0.8750
C14_6 C 0.7394(3) 0.84173(13) 0.87538(13)
H6_6 H 0.6453 0.8189 0.8762
C5_7 C 0.3750 0.51388(16) 0.8750
C6_7 C 0.3750 0.44146(17) 0.8750
C7_7 C 0.2394(3) 0.40827(13) 0.87462(13)
H3_7 H 0.1453 0.4311 0.8738
C12_7 C 0.3750 0.23612(16) 0.8750
C13_7 C 0.3750 0.30854(17) 0.8750
C14_7 C 0.2394(3) 0.34173(13) 0.87538(13)
H6_7 H 0.1453 0.3189 0.8762
C15_7 C 0.5106(3) 0.40827(13) 0.87538(13)
H7_7 H 0.6047 0.4311 0.8762
C16_7 C 0.5106(3) 0.34173(13) 0.87462(13)
H8_7 H 0.6047 0.3189 0.8738
C5_8 C 0.3750 0.01388(16) 0.3750
C6_8 C 0.3750 0.94146(17) 0.3750
C7_8 C 0.2394(3) 0.90827(13) 0.37462(13)
H3_8 H 0.1453 0.9311 0.3738
C12_8 C 0.3750 0.73612(16) 0.3750
C13_8 C 0.3750 0.80854(17) 0.3750
C14_8 C 0.2394(3) 0.84173(13) 0.37538(13)
H6_8 H 0.1453 0.8189 0.3762
C15_8 C 0.5106(3) 0.90827(13) 0.37538(13)
H7_8 H 0.6047 0.9311 0.3762
C16_8 C 0.5106(3) 0.84173(13) 0.37462(13)
H8_8 H 0.6047 0.8189 0.3738
loop_
_geom_bond_atom_site_label_1
_geom_bond_atom_site_label_2
_geom_bond_site_symmetry_1
_geom_bond_site_symmetry_2
Sc1 O1 1_555 1_555
O1 C1 1_555 1_555
C1 O2 1_555 1_555
C2 C1 1_555 1_555
C3 C2 1_555 1_555
C4 C3 1_555 1_555
O3 Sc1 1_555 1_555
C5 O3 1_555 1_555
C6 C5 1_555 1_555
C7 C6 1_555 1_555
H1 C3 1_555 1_555
H2 C4 1_555 1_555
H3 C7 1_555 1_555
O6 C12 1_555 1_555
C12 C13 1_555 1_555
C13 C14 1_555 1_555
C14 C7 1_555 1_555
H6 C14 1_555 1_555
O7 C5 1_555 1_555
O8 C12 1_555 1_555
O9 Sc1 1_555 1_555
C17 O9 1_555 1_555
O10 C17 1_555 1_555
C18 C17 1_555 1_555
C19 C18 1_555 1_555
C20 C19 1_555 1_555
H9 C19 1_555 1_555
H10 C20 1_555 1_555
O11 C21 1_555 1_555
C21 O12 1_555 1_555
O12 Sc5 1_555 1_555
C22 C20 1_555 1_555
C23 C22 1_555 1_555
C24 C18 1_555 1_555
H12 C24 1_555 1_555
Sc6 O6 1_555 1_555
Sc9 O10 1_555 1_555
O15 Sc1 1_555 1_555
O16 Sc1 1_555 1_555
O20 Sc1 1_555 1_555
C21 C22 1_555 1_555
C23 C24 1_555 1_555
O4 C8 1_555 1_555
C8 O5 1_555 1_555
C10 C9 1_555 1_555
H4 C10 1_555 1_555
H5 C11 1_555 1_555
H7 C15 1_555 1_555
H8 C16 1_555 1_555
Sc2 O4 1_555 1_555
O13 Sc2 1_555 1_555
O14 Sc2 1_555 1_555
O17 Sc2 1_555 1_555
O18 Sc2 1_555 1_555
O19 Sc2 1_555 1_555
C8 C9 1_555 1_555
C10 C11 1_555 1_555
C15 C16 1_555 1_555
C7_2 C6_2 1_555 1_555
H3_2 C7_2 1_555 1_555
O6_2 C12_2 1_555 1_555
C12_2 C13_2 1_555 1_555
C13_2 C14_2 1_555 1_555
C14_2 C7_2 1_555 1_555
H6_2 C14_2 1_555 1_555
O8_2 C12_2 1_555 1_555
H10_2 C20_2 1_555 1_555
O11_2 C21_2 1_555 1_555
C21_2 O12_2 1_555 1_555
O12_2 Sc5_2 1_555 1_555
C22_2 C20_2 1_555 1_555
C23_2 C22_2 1_555 1_555
Sc6_2 O6_2 1_555 1_555
C21_2 C22_2 1_555 1_555
Sc1_2 O1_2 1_555 1_555
O1_2 C1_2 1_555 1_555
C1_2 O2_2 1_555 1_555
C2_2 C1_2 1_555 1_555
C3_2 C2_2 1_555 1_555
C4_2 C3_2 1_555 1_555
O3_2 Sc1_2 1_555 1_555
C5_2 O3_2 1_555 1_555
H1_2 C3_2 1_555 1_555
H2_2 C4_2 1_555 1_555
O7_2 C5_2 1_555 1_555
O9_2 Sc1_2 1_555 1_555
C17_2 O9_2 1_555 1_555
O10_2 C17_2 1_555 1_555
C18_2 C17_2 1_555 1_555
C19_2 C18_2 1_555 1_555
H9_2 C19_2 1_555 1_555
C24_2 C18_2 1_555 1_555
H12_2 C24_2 1_555 1_555
Sc9_2 O10_2 1_555 1_555
O15_2 Sc1_2 1_555 1_555
O16_2 Sc1_2 1_555 1_555
O20_2 Sc1_2 1_555 1_555
H7_2 C15_2 1_555 1_555
H8_2 C16_2 1_555 1_555
C15_2 C16_2 1_555 1_555
O4_2 C8_2 1_555 1_555
C8_2 O5_2 1_555 1_555
C10_2 C9_2 1_555 1_555
H4_2 C10_2 1_555 1_555
H5_2 C11_2 1_555 1_555
Sc2_2 O4_2 1_555 1_555
O13_2 Sc2_2 1_555 1_555
O14_2 Sc2_2 1_555 1_555
O17_2 Sc2_2 1_555 1_555
O18_2 Sc2_2 1_555 1_555
O19_2 Sc2_2 1_555 1_555
C8_2 C9_2 1_555 1_555
C10_2 C11_2 1_555 1_555
C17_3 O9_3 1_555 1_555
O10_3 C17_3 1_555 1_555
C18_3 C17_3 1_555 1_555
C19_3 C18_3 1_555 1_555
C20_3 C19_3 1_555 1_555
H10_3 C20_3 1_555 1_555
O13_2 C21_3 1_555 1_555
C21_3 O12_3 1_555 1_555
O12_3 Sc7_2 1_555 1_555
C22_3 C20_3 1_555 1_555
C23_3 C22_3 1_555 1_555
C24_3 C18_3 1_555 1_555
H11_3 C23_3 1_555 1_555
H12_3 C24_3 1_555 1_555
Sc6_2 O10_3 1_555 1_555
C21_3 C22_3 1_555 1_555
C23_3 C24_3 1_555 1_555
Sc4_2 O1_3 1_555 1_555
O1_3 C1_3 1_555 1_555
C1_3 O2_3 1_555 1_555
O2_3 Sc6_2 1_555 1_555
C2_3 C1_3 1_555 1_555
C3_3 C2_3 1_555 1_555
C4_3 C3_3 1_555 1_555
O3_3 Sc4_2 1_555 1_555
C5_3 O3_3 1_555 1_555
C6_3 C5_3 1_555 1_555
C7_3 C6_3 1_555 1_555
H1_3 C3_3 1_555 1_555
H2_3 C4_3 1_555 1_555
H3_3 C7_3 1_555 1_555
O4_3 C8_3 1_555 1_555
C8_3 O5_3 1_555 1_555
O5_3 Sc5_2 1_555 1_555
C9_3 C4_3 1_555 1_555
C10_3 C9_3 1_555 1_555
C11_3 C2_3 1_555 1_555
H4_3 C10_3 1_555 1_555
H5_3 C11_3 1_555 1_555
O6_3 C12_3 1_555 1_555
C12_3 C13_3 1_555 1_555
C13_3 C14_3 1_555 1_555
C14_3 C7_3 1_555 1_555
H6_3 C14_3 1_555 1_555
O7_3 C5_3 1_555 1_555
C15_3 C6_3 1_555 1_555
H7_3 C15_3 1_555 1_555
O20_2 C12_3 1_555 1_555
C16_3 C13_3 1_555 1_555
H8_3 C16_3 1_555 1_555
Sc3_2 O4_3 1_555 1_555
Sc9_2 O6_3 1_555 1_555
Sc6_2 O7_3 1_555 1_555
O16_3 Sc4_2 1_555 1_555
O17_3 Sc3_2 1_555 1_555
O18_3 Sc3_2 1_555 1_555
C8_3 C9_3 1_555 1_555
C10_3 C11_3 1_555 1_555
C15_3 C16_3 1_555 1_555
H10_4 C20_4 1_555 1_555
O13 C21_4 1_555 1_555
C21_4 O12_4 1_555 1_555
O12_4 Sc7 1_555 1_555
C22_4 C20_4 1_555 1_555
C23_4 C22_4 1_555 1_555
H11_4 C23_4 1_555 1_555
C21_4 C22_4 1_555 1_555
C17_4 O9_4 1_555 1_555
O10_4 C17_4 1_555 1_555
C18_4 C17_4 1_555 1_555
C19_4 C18_4 1_555 1_555
C24_4 C18_4 1_555 1_555
H12_4 C24_4 1_555 1_555
Sc6 O10_4 1_555 1_555
C7_4 C6_4 1_555 1_555
H3_4 C7_4 1_555 1_555
O6_4 C12_4 1_555 1_555
C12_4 C13_4 1_555 1_555
C13_4 C14_4 1_555 1_555
C14_4 C7_4 1_555 1_555
H6_4 C14_4 1_555 1_555
C15_4 C6_4 1_555 1_555
H7_4 C15_4 1_555 1_555
O20 C12_4 1_555 1_555
C16_4 C13_4 1_555 1_555
H8_4 C16_4 1_555 1_555
Sc9 O6_4 1_555 1_555
C15_4 C16_4 1_555 1_555
Sc4 O1_4 1_555 1_555
O1_4 C1_4 1_555 1_555
C1_4 O2_4 1_555 1_555
O2_4 Sc6 1_555 1_555
C2_4 C1_4 1_555 1_555
C3_4 C2_4 1_555 1_555
C4_4 C3_4 1_555 1_555
O3_4 Sc4 1_555 1_555
C5_4 O3_4 1_555 1_555
H1_4 C3_4 1_555 1_555
H2_4 C4_4 1_555 1_555
O4_4 C8_4 1_555 1_555
C8_4 O5_4 1_555 1_555
O5_4 Sc5 1_555 1_555
C9_4 C4_4 1_555 1_555
C10_4 C9_4 1_555 1_555
C11_4 C2_4 1_555 1_555
H4_4 C10_4 1_555 1_555
H5_4 C11_4 1_555 1_555
O7_4 C5_4 1_555 1_555
Sc3 O4_4 1_555 1_555
Sc6 O7_4 1_555 1_555
O16_4 Sc4 1_555 1_555
O17_4 Sc3 1_555 1_555
O18_4 Sc3 1_555 1_555
C8_4 C9_4 1_555 1_555
C10_4 C11_4 1_555 1_555
H2_5 C4_5 1_555 1_555
Sc6 O1_5 1_555 1_555
O1_5 C1_5 1_555 1_555
C1_5 O15_4 1_555 1_555
C2_5 C1_5 1_555 1_555
C3_5 C2_5 1_555 1_555
H1_5 C3_5 1_555 1_555
O9_5 Sc6 1_555 1_555
C17_5 O9_5 1_555 1_555
O16_4 C17_5 1_555 1_555
C18_5 C17_5 1_555 1_555
C19_5 C18_5 1_555 1_555
C20_5 C19_5 1_555 1_555
H9_5 C19_5 1_555 1_555
H10_5 C20_5 1_555 1_555
O11_3 C21_5 1_555 1_555
C21_5 O17_2 1_555 1_555
C22_5 C20_5 1_555 1_555
C23_5 C22_5 1_555 1_555
C24_5 C18_5 1_555 1_555
H12_5 C24_5 1_555 1_555
C21_5 C22_5 1_555 1_555
C23_5 C24_5 1_555 1_555
O4_5 C8_5 1_555 1_555
C8_5 O14_3 1_555 1_555
C10_5 C9_5 1_555 1_555
H4_5 C10_5 1_555 1_555
Sc5_2 O4_5 1_555 1_555
O13_3 Sc5_2 1_555 1_555
O18_5 Sc5_2 1_555 1_555
O19_5 Sc5_2 1_555 1_555
C8_5 C9_5 1_555 1_555
H5_5 C11_5 1_555 1_555
Sc6_2 O1_6 1_555 1_555
O1_6 C1_6 1_555 1_555
C1_6 O15_3 1_555 1_555
C2_6 C1_6 1_555 1_555
C3_6 C2_6 1_555 1_555
H1_6 C3_6 1_555 1_555
O9_6 Sc6_2 1_555 1_555
C17_6 O9_6 1_555 1_555
O16_3 C17_6 1_555 1_555
C18_6 C17_6 1_555 1_555
C19_6 C18_6 1_555 1_555
H9_6 C19_6 1_555 1_555
C24_6 C18_6 1_555 1_555
H12_6 C24_6 1_555 1_555
H2_6 C4_6 1_555 1_555
H10_6 C20_6 1_555 1_555
O11_4 C21_6 1_555 1_555
C21_6 O17 1_555 1_555
C22_6 C20_6 1_555 1_555
C23_6 C22_6 1_555 1_555
C21_6 C22_6 1_555 1_555
H5_6 C11_6 1_555 1_555
O4_6 C8_6 1_555 1_555
C8_6 O14_4 1_555 1_555
C10_6 C9_6 1_555 1_555
H4_6 C10_6 1_555 1_555
Sc5 O4_6 1_555 1_555
O13_4 Sc5 1_555 1_555
O18_6 Sc5 1_555 1_555
O19_6 Sc5 1_555 1_555
C8_6 C9_6 1_555 1_555
C17_7 O9_7 1_555 1_555
O16_2 C17_7 1_555 1_555
C18_7 C17_7 1_555 1_555
C19_7 C18_7 1_555 1_555
C24_7 C18_7 1_555 1_555
H12_7 C24_7 1_555 1_555
H10_7 C20_7 1_555 1_555
O13_4 C21_7 1_555 1_555
C21_7 O17_4 1_555 1_555
C22_7 C20_7 1_555 1_555
C23_7 C22_7 1_555 1_555
H11_7 C23_7 1_555 1_555
C21_7 C22_7 1_555 1_555
H2_7 C4_7 1_555 1_555
O4_7 C8_7 1_555 1_555
C8_7 O14 1_555 1_555
C9_7 C4_7 1_555 1_555
C10_7 C9_7 1_555 1_555
H4_7 C10_7 1_555 1_555
Sc7 O4_7 1_555 1_555
O18_7 Sc7 1_555 1_555
C8_7 C9_7 1_555 1_555
Sc9_2 O1_7 1_555 1_555
O1_7 C1_7 1_555 1_555
C1_7 O15_2 1_555 1_555
C2_7 C1_7 1_555 1_555
C3_7 C2_7 1_555 1_555
H1_7 C3_7 1_555 1_555
C11_7 C2_7 1_555 1_555
H5_7 C11_7 1_555 1_555
C17_8 O9_8 1_555 1_555
O16 C17_8 1_555 1_555
C18_8 C17_8 1_555 1_555
C19_8 C18_8 1_555 1_555
C20_8 C19_8 1_555 1_555
H10_8 C20_8 1_555 1_555
O13_3 C21_8 1_555 1_555
C21_8 O17_3 1_555 1_555
C22_8 C20_8 1_555 1_555
C23_8 C22_8 1_555 1_555
C24_8 C18_8 1_555 1_555
H11_8 C23_8 1_555 1_555
H12_8 C24_8 1_555 1_555
C21_8 C22_8 1_555 1_555
C23_8 C24_8 1_555 1_555
Sc9 O1_8 1_555 1_555
O1_8 C1_8 1_555 1_555
C1_8 O15 1_555 1_555
C2_8 C1_8 1_555 1_555
C3_8 C2_8 1_555 1_555
C4_8 C3_8 1_555 1_555
H1_8 C3_8 1_555 1_555
H2_8 C4_8 1_555 1_555
O4_8 C8_8 1_555 1_555
C8_8 O14_2 1_555 1_555
C9_8 C4_8 1_555 1_555
C10_8 C9_8 1_555 1_555
C11_8 C2_8 1_555 1_555
H4_8 C10_8 1_555 1_555
H5_8 C11_8 1_555 1_555
Sc7_2 O4_8 1_555 1_555
O18_8 Sc7_2 1_555 1_555
C8_8 C9_8 1_555 1_555
C10_8 C11_8 1_555 1_555
H7_5 C15_5 1_555 1_555
H8_5 C16_5 1_555 1_555
C15_5 C16_5 1_555 1_555
C5_5 O18_2 1_555 1_555
C6_5 C5_5 1_555 1_555
C7_5 C6_5 1_555 1_555
H3_5 C7_5 1_555 1_555
O18_5 C12_5 1_555 1_555
C12_5 C13_5 1_555 1_555
C13_5 C14_5 1_555 1_555
C14_5 C7_5 1_555 1_555
H6_5 C14_5 1_555 1_555
O19_8 C5_5 1_555 1_555
O19_3 C12_5 1_555 1_555
H7_6 C15_6 1_555 1_555
H8_6 C16_6 1_555 1_555
C15_6 C16_6 1_555 1_555
C5_6 O18 1_555 1_555
O19_7 C5_6 1_555 1_555
C7_6 C6_6 1_555 1_555
H3_6 C7_6 1_555 1_555
O18_6 C12_6 1_555 1_555
C12_6 C13_6 1_555 1_555
C13_6 C14_6 1_555 1_555
C14_6 C7_6 1_555 1_555
H6_6 C14_6 1_555 1_555
O19_4 C12_6 1_555 1_555
C5_7 O18_4 1_555 1_555
C6_7 C5_7 1_555 1_555
C7_7 C6_7 1_555 1_555
H3_7 C7_7 1_555 1_555
O18_7 C12_7 1_555 1_555
C12_7 C13_7 1_555 1_555
C13_7 C14_7 1_555 1_555
C14_7 C7_7 1_555 1_555
H6_7 C14_7 1_555 1_555
O19_6 C5_7 1_555 1_555
C15_7 C6_7 1_555 1_555
H7_7 C15_7 1_555 1_555
O19 C12_7 1_555 1_555
C16_7 C13_7 1_555 1_555
H8_7 C16_7 1_555 1_555
C15_7 C16_7 1_555 1_555
C5_8 O18_3 1_555 1_555
O19_5 C5_8 1_555 1_555
C7_8 C6_8 1_555 1_555
H3_8 C7_8 1_555 1_555
O18_8 C12_8 1_555 1_555
C12_8 C13_8 1_555 1_555
C13_8 C14_8 1_555 1_555
C14_8 C7_8 1_555 1_555
H6_8 C14_8 1_555 1_555
C15_8 C6_8 1_555 1_555
H7_8 C15_8 1_555 1_555
O19_2 C12_8 1_555 1_555
C16_8 C13_8 1_555 1_555
H8_8 C16_8 1_555 1_555
C15_8 C16_8 1_555 1_555

#END
