
###############################################################################
#
# This file contains modified crystal structure data generated from the
# MOF subset of the Cambridge Structural Database (CSD) v543 
# hosted by the Cambridge Crystallographic Data Centre (CCDC).
#
# This work is licensed under the Creative Commons
# Attribution-NonCommercial-ShareAlike 4.0 International License.
# To view a copy of this license, visit
# http://creativecommons.org/licenses/by-nc-sa/4.0/
# or send a letter to
# Creative Commons, PO Box 1866, Mountain View, CA 94042, USA.
#
# CIF created using the CSD Python API on 29 September 2022
# The structure has been converted into the P1 space group
# The structure has a 3D framework
# The original CSD entry HAZGOF is in the orthorhombic crystal system
# The framework has been calculated to contain at least 10.0% void space
# The void calculation uses a probe of radius 1.32A, grid spacing 0.4
# H atom positions have been added when not included in the experimental data
#
###############################################################################

data_HAZGOF
_chemical_formula_moiety         '(C192 H96 O96 Sc10)n'
_symmetry_cell_setting           triclinic
_symmetry_space_group_name_H-M   'P 1'
_symmetry_Int_Tables_number      1
_space_group_name_Hall           'P 1'
loop_
_symmetry_equiv_pos_site_id
_symmetry_equiv_pos_as_xyz
1 x,y,z
_cell_length_a                   8.7433(5)
_cell_length_b                   20.7448(11)
_cell_length_c                   34.3664(18)
_cell_angle_alpha                90
_cell_angle_beta                 90
_cell_angle_gamma                90
_cell_volume                     6233.31
loop_
_atom_site_label
_atom_site_type_symbol
_atom_site_fract_x
_atom_site_fract_y
_atom_site_fract_z
Sc1 Sc 0.3750 0.8750 0.135677(9)
O1 O 0.50527(14) 0.79181(6) 0.13531(5)
O2 O 0.24530(14) 0.83425(8) 0.09257(4)
O3 O 0.00875(13) 0.83332(7) 0.07054(3)
C1 C 0.6250 0.76357(12) 0.1250
C2 C 0.14781(18) 0.81972(9) 0.06770(4)
C3 C 0.6250 0.69190(12) 0.1250
C4 C 0.20039(18) 0.78357(10) 0.03248(5)
C5 C 0.4891(2) 0.65830(11) 0.12549(10)
C6 C 0.3537(2) 0.76946(13) 0.02772(6)
C7 C 0.0968(2) 0.76415(13) 0.00473(6)
O4 O 0.50527(14) 0.45819(6) 0.11469(5)
C8 C 0.6250 0.48643(12) 0.1250
C9 C 0.6250 0.55810(12) 0.1250
C10 C 0.4891(2) 0.59170(11) 0.12451(10)
O5 O 0.74473(14) 0.79181(6) 0.11469(5)
C11 C 0.7609(2) 0.65830(11) 0.12451(10)
O6 O 0.74473(14) 0.45819(6) 0.13531(5)
C12 C 0.7609(2) 0.59170(11) 0.12549(10)
Sc2 Sc 0.3750 0.3750 0.114323(9)
O9 O 0.24530(14) 0.41575(8) 0.15743(4)
O10 O 0.00875(13) 0.41668(7) 0.17946(3)
C17 C 0.14781(18) 0.43028(9) 0.18230(4)
C18 C 0.20039(18) 0.46643(10) 0.21752(5)
C19 C 0.3537(2) 0.48054(13) 0.22228(6)
C20 C 0.0968(2) 0.48585(13) 0.24527(6)
O11 O 0.25470(14) 0.58425(8) 0.34257(4)
O12 O 0.49125(13) 0.58332(7) 0.32054(3)
C21 C 0.35219(18) 0.56972(9) 0.31770(4)
C22 C 0.29961(18) 0.53357(10) 0.28248(5)
C23 C 0.1463(2) 0.51946(13) 0.27772(6)
C24 C 0.4032(2) 0.51415(13) 0.25473(6)
Sc4 Sc 0.8750 0.8750 0.114323(9)
Sc6 Sc 0.8750 0.3750 0.135677(9)
Sc7 Sc 0.6250 0.6250 0.364323(9)
Sc10 Sc 0.1250 0.6250 0.385677(9)
O13 O 0.24473(14) 0.95819(6) 0.13531(5)
O14 O 0.24473(14) 0.29181(6) 0.11469(5)
O15 O 0.50470(14) 0.91575(8) 0.09257(4)
O16 O 0.50470(14) 0.33425(8) 0.15743(4)
O17 O 0.24125(13) 0.83332(7) 0.17946(3)
O18 O 0.50875(13) 0.33332(7) 0.07054(3)
O19 O 0.24125(13) 0.41668(7) 0.07054(3)
O20 O 0.50875(13) 0.91668(7) 0.17946(3)
H1 H 0.381081 0.684364 0.126656
H2 H 0.436031 0.784855 0.0496064
H3 H 0.868919 0.684364 0.123344
H5 H 0.524153 0.525211 0.258283
H6 H 0.0639686 0.534855 0.299606
H7 H 0.868919 0.565636 0.126656
H9 H 0.381081 0.565636 0.123344
H11 H 0.436031 0.465145 0.200394
O7 O 0.25470(14) 0.66575(8) 0.90743(4)
O8 O 0.49125(13) 0.66668(7) 0.92946(3)
C13 C 0.35219(18) 0.68028(9) 0.93230(4)
C14 C 0.29961(18) 0.71643(10) 0.96752(5)
C15 C 0.1463(2) 0.73054(13) 0.97228(6)
C16 C 0.4032(2) 0.73585(13) 0.99527(6)
Sc8 Sc 0.6250 0.6250 0.885677(9)
Sc9 Sc 0.1250 0.6250 0.864323(9)
H4 H 0.524153 0.724789 0.991717
H10 H 0.0639686 0.715145 0.950394
H8 H 0.975847 0.775211 0.00828325
H12 H 0.975847 0.474789 0.241717
Sc1_2 Sc 0.3750 0.3750 0.635677(9)
O1_2 O 0.50527(14) 0.29181(6) 0.63531(5)
O2_2 O 0.24530(14) 0.33425(8) 0.59257(4)
O3_2 O 0.00875(13) 0.33332(7) 0.57054(3)
C1_2 C 0.6250 0.26357(12) 0.6250
C2_2 C 0.14781(18) 0.31972(9) 0.56770(4)
C3_2 C 0.6250 0.19190(12) 0.6250
C4_2 C 0.20039(18) 0.28357(10) 0.53248(5)
C5_2 C 0.4891(2) 0.15830(11) 0.62549(10)
C6_2 C 0.3537(2) 0.26946(13) 0.52772(6)
C7_2 C 0.0968(2) 0.26415(13) 0.50473(6)
C9_2 C 0.6250 0.05810(12) 0.6250
C10_2 C 0.4891(2) 0.09170(11) 0.62451(10)
O5_2 O 0.74473(14) 0.29181(6) 0.61469(5)
C11_2 C 0.7609(2) 0.15830(11) 0.62451(10)
C12_2 C 0.7609(2) 0.09170(11) 0.62549(10)
O7_2 O 0.25470(14) 0.16575(8) 0.40743(4)
O8_2 O 0.49125(13) 0.16668(7) 0.42946(3)
C13_2 C 0.35219(18) 0.18028(9) 0.43230(4)
C14_2 C 0.29961(18) 0.21643(10) 0.46752(5)
C15_2 C 0.1463(2) 0.23054(13) 0.47228(6)
C16_2 C 0.4032(2) 0.23585(13) 0.49527(6)
O11_2 O 0.25470(14) 0.08425(8) 0.84257(4)
O12_2 O 0.49125(13) 0.08332(7) 0.82054(3)
C21_2 C 0.35219(18) 0.06972(9) 0.81770(4)
C22_2 C 0.29961(18) 0.03357(10) 0.78248(5)
C23_2 C 0.1463(2) 0.01946(13) 0.77772(6)
C24_2 C 0.4032(2) 0.01415(13) 0.75473(6)
Sc4_2 Sc 0.8750 0.3750 0.614323(9)
Sc7_2 Sc 0.6250 0.1250 0.864323(9)
Sc8_2 Sc 0.6250 0.1250 0.385677(9)
Sc9_2 Sc 0.1250 0.1250 0.364323(9)
Sc10_2 Sc 0.1250 0.1250 0.885677(9)
O13_2 O 0.24473(14) 0.45819(6) 0.63531(5)
O15_2 O 0.50470(14) 0.41575(8) 0.59257(4)
O17_2 O 0.24125(13) 0.33332(7) 0.67946(3)
O20_2 O 0.50875(13) 0.41668(7) 0.67946(3)
H1_2 H 0.381081 0.184364 0.626656
H2_2 H 0.436031 0.284855 0.549606
H3_2 H 0.868919 0.184364 0.623344
H4_2 H 0.524153 0.224789 0.491717
H5_2 H 0.524153 0.0252109 0.758283
H6_2 H 0.0639686 0.0348554 0.799606
H7_2 H 0.868919 0.0656364 0.626656
H9_2 H 0.381081 0.0656364 0.623344
H10_2 H 0.0639686 0.215145 0.450394
O4_2 O 0.50527(14) 0.95819(6) 0.61469(5)
C8_2 C 0.6250 0.98643(12) 0.6250
O6_2 O 0.74473(14) 0.95819(6) 0.63531(5)
Sc2_2 Sc 0.3750 0.8750 0.614323(9)
O9_2 O 0.24530(14) 0.91575(8) 0.65743(4)
O10_2 O 0.00875(13) 0.91668(7) 0.67946(3)
C17_2 C 0.14781(18) 0.93028(9) 0.68230(4)
C18_2 C 0.20039(18) 0.96643(10) 0.71752(5)
C19_2 C 0.3537(2) 0.98054(13) 0.72228(6)
C20_2 C 0.0968(2) 0.98585(13) 0.74527(6)
Sc6_2 Sc 0.8750 0.8750 0.635677(9)
O14_2 O 0.24473(14) 0.79181(6) 0.61469(5)
O16_2 O 0.50470(14) 0.83425(8) 0.65743(4)
O18_2 O 0.50875(13) 0.83332(7) 0.57054(3)
O19_2 O 0.24125(13) 0.91668(7) 0.57054(3)
H11_2 H 0.436031 0.965145 0.700394
H8_2 H 0.975847 0.275211 0.508283
H12_2 H 0.975847 0.974789 0.741717
O1_3 O 0.00527(14) 0.79181(6) 0.63531(5)
C1_3 C 0.1250 0.76357(12) 0.6250
C3_3 C 0.1250 0.69190(12) 0.6250
O4_3 O 0.00527(14) 0.45819(6) 0.61469(5)
C8_3 C 0.1250 0.48643(12) 0.6250
C9_3 C 0.1250 0.55810(12) 0.6250
C11_3 C 0.2609(2) 0.65830(11) 0.62451(10)
C12_3 C 0.2609(2) 0.59170(11) 0.62549(10)
O15_3 O 0.00470(14) 0.91575(8) 0.59257(4)
O16_3 O 0.00470(14) 0.33425(8) 0.65743(4)
H3_3 H 0.368919 0.684364 0.623344
H4_3 H 0.0241526 0.724789 0.491717
H5_3 H 0.0241526 0.525211 0.758283
H7_3 H 0.368919 0.565636 0.626656
O2_3 O 0.74530(14) 0.83425(8) 0.59257(4)
C2_3 C 0.64781(18) 0.81972(9) 0.56770(4)
C4_3 C 0.70039(18) 0.78357(10) 0.53248(5)
C5_3 C 0.9891(2) 0.65830(11) 0.62549(10)
C6_3 C 0.8537(2) 0.76946(13) 0.52772(6)
C7_3 C 0.5968(2) 0.76415(13) 0.50473(6)
C10_3 C 0.9891(2) 0.59170(11) 0.62451(10)
O7_3 O 0.75470(14) 0.66575(8) 0.40743(4)
O8_3 O 0.99125(13) 0.66668(7) 0.42946(3)
C13_3 C 0.85219(18) 0.68028(9) 0.43230(4)
C14_3 C 0.79961(18) 0.71643(10) 0.46752(5)
C15_3 C 0.6463(2) 0.73054(13) 0.47228(6)
C16_3 C 0.9032(2) 0.73585(13) 0.49527(6)
O9_3 O 0.74530(14) 0.41575(8) 0.65743(4)
C17_3 C 0.64781(18) 0.43028(9) 0.68230(4)
C18_3 C 0.70039(18) 0.46643(10) 0.71752(5)
C19_3 C 0.8537(2) 0.48054(13) 0.72228(6)
C20_3 C 0.5968(2) 0.48585(13) 0.74527(6)
O11_3 O 0.75470(14) 0.58425(8) 0.84257(4)
O12_3 O 0.99125(13) 0.58332(7) 0.82054(3)
C21_3 C 0.85219(18) 0.56972(9) 0.81770(4)
C22_3 C 0.79961(18) 0.53357(10) 0.78248(5)
C23_3 C 0.6463(2) 0.51946(13) 0.77772(6)
C24_3 C 0.9032(2) 0.51415(13) 0.75473(6)
O17_3 O 0.74125(13) 0.83332(7) 0.67946(3)
O19_3 O 0.74125(13) 0.41668(7) 0.57054(3)
H1_3 H 0.881081 0.684364 0.626656
H2_3 H 0.936031 0.784855 0.549606
H6_3 H 0.563969 0.534855 0.799606
H8_3 H 0.475847 0.775211 0.508283
H9_3 H 0.881081 0.565636 0.623344
H10_3 H 0.563969 0.715145 0.450394
H11_3 H 0.936031 0.465145 0.700394
H12_3 H 0.475847 0.474789 0.741717
O2_4 O 0.00470(14) 0.83425(8) 0.15743(4)
C2_4 C 0.10219(18) 0.81972(9) 0.18230(4)
C4_4 C 0.04961(18) 0.78357(10) 0.21752(5)
C7_4 C 0.1532(2) 0.76415(13) 0.24527(6)
C15_4 C 0.1037(2) 0.73054(13) 0.27772(6)
O9_4 O 0.00470(14) 0.41575(8) 0.09257(4)
C17_4 C 0.10219(18) 0.43028(9) 0.06770(4)
C18_4 C 0.04961(18) 0.46643(10) 0.03248(5)
C20_4 C 0.1532(2) 0.48585(13) 0.00473(6)
O13_3 O 0.00527(14) 0.95819(6) 0.11469(5)
O14_3 O 0.00527(14) 0.29181(6) 0.13531(5)
H8_4 H 0.274153 0.775211 0.241717
H10_4 H 0.186031 0.715145 0.299606
H12_4 H 0.274153 0.474789 0.00828325
C23_4 C 0.1037(2) 0.51946(13) 0.97228(6)
H6_4 H 0.186031 0.534855 0.950394
C6_4 C 0.8963(2) 0.76946(13) 0.22228(6)
O7_4 O 0.99530(14) 0.66575(8) 0.34257(4)
O8_4 O 0.75875(13) 0.66668(7) 0.32054(3)
C13_4 C 0.89781(18) 0.68028(9) 0.31770(4)
C14_4 C 0.95039(18) 0.71643(10) 0.28248(5)
C16_4 C 0.8468(2) 0.73585(13) 0.25473(6)
C19_4 C 0.8963(2) 0.48054(13) 0.02772(6)
O15_4 O 0.74530(14) 0.91575(8) 0.15743(4)
O16_4 O 0.74530(14) 0.33425(8) 0.09257(4)
O18_3 O 0.74125(13) 0.33332(7) 0.17946(3)
O20_3 O 0.74125(13) 0.91668(7) 0.07054(3)
H2_4 H 0.813969 0.784855 0.200394
H4_4 H 0.725847 0.724789 0.258283
H11_4 H 0.813969 0.465145 0.0496064
O11_4 O 0.99530(14) 0.58425(8) 0.90743(4)
O12_4 O 0.75875(13) 0.58332(7) 0.92946(3)
C21_4 C 0.89781(18) 0.56972(9) 0.93230(4)
C22_4 C 0.95039(18) 0.53357(10) 0.96752(5)
C24_4 C 0.8468(2) 0.51415(13) 0.99527(6)
H5_4 H 0.725847 0.525211 0.991717
C1_4 C 0.1250 0.26357(12) 0.1250
C3_4 C 0.1250 0.19190(12) 0.1250
C9_4 C 0.1250 0.05810(12) 0.1250
C11_4 C 0.2609(2) 0.15830(11) 0.12451(10)
C12_4 C 0.2609(2) 0.09170(11) 0.12549(10)
H3_4 H 0.368919 0.184364 0.123344
H5_5 H 0.0241526 0.0252109 0.258283
H7_4 H 0.368919 0.0656364 0.126656
H4_5 H 0.0241526 0.224789 0.991717
C8_4 C 0.1250 0.98643(12) 0.1250
C2_5 C 0.64781(18) 0.31972(9) 0.06770(4)
C4_5 C 0.70039(18) 0.28357(10) 0.03248(5)
C5_4 C 0.9891(2) 0.15830(11) 0.12549(10)
C6_5 C 0.8537(2) 0.26946(13) 0.02772(6)
C7_5 C 0.5968(2) 0.26415(13) 0.00473(6)
C10_4 C 0.9891(2) 0.09170(11) 0.12451(10)
O11_5 O 0.75470(14) 0.08425(8) 0.34257(4)
O12_5 O 0.99125(13) 0.08332(7) 0.32054(3)
C21_5 C 0.85219(18) 0.06972(9) 0.31770(4)
C22_5 C 0.79961(18) 0.03357(10) 0.28248(5)
C23_5 C 0.6463(2) 0.01946(13) 0.27772(6)
C24_5 C 0.9032(2) 0.01415(13) 0.25473(6)
H1_4 H 0.881081 0.184364 0.126656
H2_5 H 0.936031 0.284855 0.0496064
H6_5 H 0.563969 0.0348554 0.299606
H8_5 H 0.475847 0.275211 0.00828325
H9_4 H 0.881081 0.0656364 0.123344
O7_5 O 0.75470(14) 0.16575(8) 0.90743(4)
O8_5 O 0.99125(13) 0.16668(7) 0.92946(3)
C13_5 C 0.85219(18) 0.18028(9) 0.93230(4)
C14_5 C 0.79961(18) 0.21643(10) 0.96752(5)
C15_5 C 0.6463(2) 0.23054(13) 0.97228(6)
C16_5 C 0.9032(2) 0.23585(13) 0.99527(6)
H10_5 H 0.563969 0.215145 0.950394
C17_5 C 0.64781(18) 0.93028(9) 0.18230(4)
C18_5 C 0.70039(18) 0.96643(10) 0.21752(5)
C19_5 C 0.8537(2) 0.98054(13) 0.22228(6)
C20_5 C 0.5968(2) 0.98585(13) 0.24527(6)
H11_5 H 0.936031 0.965145 0.200394
H12_5 H 0.475847 0.974789 0.241717
C17_6 C 0.60219(18) 0.31972(9) 0.18230(4)
C18_6 C 0.54961(18) 0.28357(10) 0.21752(5)
C19_6 C 0.3963(2) 0.26946(13) 0.22228(6)
C20_6 C 0.6532(2) 0.26415(13) 0.24527(6)
O11_6 O 0.49530(14) 0.16575(8) 0.34257(4)
O12_6 O 0.25875(13) 0.16668(7) 0.32054(3)
C21_6 C 0.39781(18) 0.18028(9) 0.31770(4)
C22_6 C 0.45039(18) 0.21643(10) 0.28248(5)
C23_6 C 0.6037(2) 0.23054(13) 0.27772(6)
C24_6 C 0.3468(2) 0.23585(13) 0.25473(6)
H5_6 H 0.225847 0.224789 0.258283
H6_6 H 0.686031 0.215145 0.299606
H11_6 H 0.313969 0.284855 0.200394
H12_6 H 0.774153 0.275211 0.241717
O7_6 O 0.49530(14) 0.08425(8) 0.90743(4)
O8_6 O 0.25875(13) 0.08332(7) 0.92946(3)
C13_6 C 0.39781(18) 0.06972(9) 0.93230(4)
C14_6 C 0.45039(18) 0.03357(10) 0.96752(5)
C15_6 C 0.6037(2) 0.01946(13) 0.97228(6)
C16_6 C 0.3468(2) 0.01415(13) 0.99527(6)
H4_6 H 0.225847 0.0252109 0.991717
H10_6 H 0.686031 0.0348554 0.950394
C2_6 C 0.60219(18) 0.93028(9) 0.06770(4)
C4_6 C 0.54961(18) 0.96643(10) 0.03248(5)
C6_6 C 0.3963(2) 0.98054(13) 0.02772(6)
C7_6 C 0.6532(2) 0.98585(13) 0.00473(6)
H2_6 H 0.313969 0.965145 0.0496064
H8_6 H 0.774153 0.974789 0.00828325
C2_7 C 0.60219(18) 0.81972(9) 0.68230(4)
C4_7 C 0.54961(18) 0.78357(10) 0.71752(5)
C6_7 C 0.3963(2) 0.76946(13) 0.72228(6)
C7_7 C 0.6532(2) 0.76415(13) 0.74527(6)
O7_7 O 0.49530(14) 0.66575(8) 0.84257(4)
O8_7 O 0.25875(13) 0.66668(7) 0.82054(3)
C13_7 C 0.39781(18) 0.68028(9) 0.81770(4)
C14_7 C 0.45039(18) 0.71643(10) 0.78248(5)
C15_7 C 0.6037(2) 0.73054(13) 0.77772(6)
C16_7 C 0.3468(2) 0.73585(13) 0.75473(6)
C17_7 C 0.60219(18) 0.43028(9) 0.56770(4)
C18_7 C 0.54961(18) 0.46643(10) 0.53248(5)
C19_7 C 0.3963(2) 0.48054(13) 0.52772(6)
C20_7 C 0.6532(2) 0.48585(13) 0.50473(6)
O11_7 O 0.49530(14) 0.58425(8) 0.40743(4)
O12_7 O 0.25875(13) 0.58332(7) 0.42946(3)
C21_7 C 0.39781(18) 0.56972(9) 0.43230(4)
C22_7 C 0.45039(18) 0.53357(10) 0.46752(5)
C23_7 C 0.6037(2) 0.51946(13) 0.47228(6)
C24_7 C 0.3468(2) 0.51415(13) 0.49527(6)
H2_7 H 0.313969 0.784855 0.700394
H4_7 H 0.225847 0.724789 0.758283
H5_7 H 0.225847 0.525211 0.491717
H6_7 H 0.686031 0.534855 0.450394
H8_7 H 0.774153 0.775211 0.741717
H10_7 H 0.686031 0.715145 0.799606
H11_7 H 0.313969 0.465145 0.549606
H12_7 H 0.774153 0.474789 0.508283
C15_8 C 0.1037(2) 0.01946(13) 0.47228(6)
C17_8 C 0.10219(18) 0.31972(9) 0.68230(4)
C18_8 C 0.04961(18) 0.28357(10) 0.71752(5)
C20_8 C 0.1532(2) 0.26415(13) 0.74527(6)
C23_8 C 0.1037(2) 0.23054(13) 0.77772(6)
H6_8 H 0.186031 0.215145 0.799606
H10_8 H 0.186031 0.0348554 0.450394
H12_8 H 0.274153 0.275211 0.741717
C2_8 C 0.10219(18) 0.93028(9) 0.56770(4)
C4_8 C 0.04961(18) 0.96643(10) 0.53248(5)
C7_8 C 0.1532(2) 0.98585(13) 0.50473(6)
H8_8 H 0.274153 0.974789 0.508283
O7_8 O 0.99530(14) 0.08425(8) 0.40743(4)
O8_8 O 0.75875(13) 0.08332(7) 0.42946(3)
C13_8 C 0.89781(18) 0.06972(9) 0.43230(4)
C14_8 C 0.95039(18) 0.03357(10) 0.46752(5)
C16_8 C 0.8468(2) 0.01415(13) 0.49527(6)
C19_8 C 0.8963(2) 0.26946(13) 0.72228(6)
O11_8 O 0.99530(14) 0.16575(8) 0.84257(4)
O12_8 O 0.75875(13) 0.16668(7) 0.82054(3)
C21_8 C 0.89781(18) 0.18028(9) 0.81770(4)
C22_8 C 0.95039(18) 0.21643(10) 0.78248(5)
C24_8 C 0.8468(2) 0.23585(13) 0.75473(6)
H4_8 H 0.725847 0.0252109 0.491717
H5_8 H 0.725847 0.224789 0.758283
H11_8 H 0.813969 0.284855 0.700394
C6_8 C 0.8963(2) 0.98054(13) 0.52772(6)
H2_8 H 0.813969 0.965145 0.549606
O1_4 O 0.49473(14) 0.20819(6) 0.86469(5)
C1_5 C 0.3750 0.23643(12) 0.8750
C3_5 C 0.3750 0.30810(12) 0.8750
C5_5 C 0.5109(2) 0.34170(11) 0.87451(10)
O4_4 O 0.49473(14) 0.54181(6) 0.88531(5)
C8_5 C 0.3750 0.51357(12) 0.8750
C9_5 C 0.3750 0.44190(12) 0.8750
C10_5 C 0.5109(2) 0.40830(11) 0.87549(10)
O5_3 O 0.25527(14) 0.20819(6) 0.88531(5)
C11_5 C 0.2391(2) 0.34170(11) 0.87549(10)
O6_3 O 0.25527(14) 0.54181(6) 0.86469(5)
C12_5 C 0.2391(2) 0.40830(11) 0.87451(10)
O13_4 O 0.75527(14) 0.04181(6) 0.86469(5)
O14_4 O 0.75527(14) 0.70819(6) 0.88531(5)
H1_5 H 0.618919 0.315636 0.873344
H3_5 H 0.131081 0.315636 0.876656
H7_5 H 0.131081 0.434364 0.873344
H9_5 H 0.618919 0.434364 0.876656
O4_5 O 0.49473(14) 0.04181(6) 0.38531(5)
C8_6 C 0.3750 0.01357(12) 0.3750
O6_4 O 0.25527(14) 0.04181(6) 0.36469(5)
O14_5 O 0.75527(14) 0.20819(6) 0.38531(5)
O1_5 O 0.49473(14) 0.70819(6) 0.36469(5)
C1_6 C 0.3750 0.73643(12) 0.3750
C3_6 C 0.3750 0.80810(12) 0.3750
C5_6 C 0.5109(2) 0.84170(11) 0.37451(10)
C9_6 C 0.3750 0.94190(12) 0.3750
C10_6 C 0.5109(2) 0.90830(11) 0.37549(10)
O5_4 O 0.25527(14) 0.70819(6) 0.38531(5)
C11_6 C 0.2391(2) 0.84170(11) 0.37549(10)
C12_6 C 0.2391(2) 0.90830(11) 0.37451(10)
O13_5 O 0.75527(14) 0.54181(6) 0.36469(5)
H1_6 H 0.618919 0.815636 0.373344
H3_6 H 0.131081 0.815636 0.376656
H7_6 H 0.131081 0.934364 0.373344
H9_6 H 0.618919 0.934364 0.376656
C5_7 C 0.0109(2) 0.34170(11) 0.37451(10)
C10_7 C 0.0109(2) 0.40830(11) 0.37549(10)
H1_7 H 0.118919 0.315636 0.373344
H9_7 H 0.118919 0.434364 0.376656
O1_6 O 0.99473(14) 0.20819(6) 0.36469(5)
C1_7 C 0.8750 0.23643(12) 0.3750
C3_7 C 0.8750 0.30810(12) 0.3750
O4_6 O 0.99473(14) 0.54181(6) 0.38531(5)
C8_7 C 0.8750 0.51357(12) 0.3750
C9_7 C 0.8750 0.44190(12) 0.3750
C11_7 C 0.7391(2) 0.34170(11) 0.37549(10)
C12_7 C 0.7391(2) 0.40830(11) 0.37451(10)
H3_7 H 0.631081 0.315636 0.376656
H7_7 H 0.631081 0.434364 0.373344
O13_6 O 0.99473(14) 0.04181(6) 0.88531(5)
O14_6 O 0.99473(14) 0.70819(6) 0.86469(5)
C5_8 C 0.0109(2) 0.84170(11) 0.87451(10)
C10_8 C 0.0109(2) 0.90830(11) 0.87549(10)
H1_8 H 0.118919 0.815636 0.873344
H9_8 H 0.118919 0.934364 0.876656
C8_8 C 0.8750 0.01357(12) 0.8750
C1_8 C 0.8750 0.73643(12) 0.8750
C3_8 C 0.8750 0.80810(12) 0.8750
C9_8 C 0.8750 0.94190(12) 0.8750
C11_8 C 0.7391(2) 0.84170(11) 0.87549(10)
C12_8 C 0.7391(2) 0.90830(11) 0.87451(10)
H3_8 H 0.631081 0.815636 0.876656
H7_8 H 0.631081 0.934364 0.873344
loop_
_geom_bond_atom_site_label_1
_geom_bond_atom_site_label_2
_geom_bond_site_symmetry_1
_geom_bond_site_symmetry_2
Sc1 O1 1_555 1_555
O1 C1 1_555 1_555
O2 Sc1 1_555 1_555
O3 C2 1_555 1_555
C1 C3 1_555 1_555
C2 O2 1_555 1_555
C3 C5 1_555 1_555
C4 C2 1_555 1_555
C5 C10 1_555 1_555
C6 C4 1_555 1_555
C7 C4 1_555 1_555
O4 C8 1_555 1_555
C8 C9 1_555 1_555
C9 C10 1_555 1_555
O5 C1 1_555 1_555
C11 C3 1_555 1_555
O6 C8 1_555 1_555
C12 C9 1_555 1_555
Sc2 O4 1_555 1_555
O9 Sc2 1_555 1_555
O10 C17 1_555 1_555
C17 O9 1_555 1_555
C18 C17 1_555 1_555
C19 C18 1_555 1_555
C20 C18 1_555 1_555
O11 C21 1_555 1_555
O12 C21 1_555 1_555
C21 C22 1_555 1_555
C22 C23 1_555 1_555
C23 C20 1_555 1_555
C24 C19 1_555 1_555
Sc4 O5 1_555 1_555
Sc6 O6 1_555 1_555
Sc7 O12 1_555 1_555
Sc10 O11 1_555 1_555
O13 Sc1 1_555 1_555
O14 Sc2 1_555 1_555
O15 Sc1 1_555 1_555
O16 Sc2 1_555 1_555
O17 Sc1 1_555 1_555
O18 Sc2 1_555 1_555
O19 Sc2 1_555 1_555
O20 Sc1 1_555 1_555
C11 C12 1_555 1_555
C22 C24 1_555 1_555
C5 H1 1_555 1_555
C6 H2 1_555 1_555
C11 H3 1_555 1_555
C24 H5 1_555 1_555
C23 H6 1_555 1_555
C12 H7 1_555 1_555
C10 H9 1_555 1_555
C19 H11 1_555 1_555
O7 C13 1_555 1_555
O8 C13 1_555 1_555
C13 C14 1_555 1_555
C14 C15 1_555 1_555
Sc8 O8 1_555 1_555
Sc9 O7 1_555 1_555
C14 C16 1_555 1_555
C16 H4 1_555 1_555
C15 H10 1_555 1_555
Sc1_2 O1_2 1_555 1_555
O1_2 C1_2 1_555 1_555
O2_2 Sc1_2 1_555 1_555
O3_2 C2_2 1_555 1_555
C1_2 C3_2 1_555 1_555
C2_2 O2_2 1_555 1_555
C3_2 C5_2 1_555 1_555
C4_2 C2_2 1_555 1_555
C5_2 C10_2 1_555 1_555
C6_2 C4_2 1_555 1_555
C7_2 C4_2 1_555 1_555
C9_2 C10_2 1_555 1_555
O5_2 C1_2 1_555 1_555
C11_2 C3_2 1_555 1_555
C12_2 C9_2 1_555 1_555
O7_2 C13_2 1_555 1_555
O8_2 C13_2 1_555 1_555
C13_2 C14_2 1_555 1_555
C14_2 C15_2 1_555 1_555
C15_2 C7_2 1_555 1_555
C16_2 C6_2 1_555 1_555
O11_2 C21_2 1_555 1_555
O12_2 C21_2 1_555 1_555
C21_2 C22_2 1_555 1_555
C22_2 C23_2 1_555 1_555
Sc4_2 O5_2 1_555 1_555
Sc7_2 O12_2 1_555 1_555
Sc8_2 O8_2 1_555 1_555
Sc9_2 O7_2 1_555 1_555
Sc10_2 O11_2 1_555 1_555
O13_2 Sc1_2 1_555 1_555
O15_2 Sc1_2 1_555 1_555
O17_2 Sc1_2 1_555 1_555
O20_2 Sc1_2 1_555 1_555
C11_2 C12_2 1_555 1_555
C14_2 C16_2 1_555 1_555
C22_2 C24_2 1_555 1_555
C5_2 H1_2 1_555 1_555
C6_2 H2_2 1_555 1_555
C11_2 H3_2 1_555 1_555
C16_2 H4_2 1_555 1_555
C24_2 H5_2 1_555 1_555
C23_2 H6_2 1_555 1_555
C12_2 H7_2 1_555 1_555
C10_2 H9_2 1_555 1_555
C15_2 H10_2 1_555 1_555
O4_2 C8_2 1_555 1_555
O6_2 C8_2 1_555 1_555
Sc2_2 O4_2 1_555 1_555
O9_2 Sc2_2 1_555 1_555
O10_2 C17_2 1_555 1_555
C17_2 O9_2 1_555 1_555
C18_2 C17_2 1_555 1_555
C19_2 C18_2 1_555 1_555
C20_2 C18_2 1_555 1_555
Sc6_2 O6_2 1_555 1_555
O14_2 Sc2_2 1_555 1_555
O16_2 Sc2_2 1_555 1_555
O18_2 Sc2_2 1_555 1_555
O19_2 Sc2_2 1_555 1_555
C19_2 H11_2 1_555 1_555
O1_3 C1_3 1_555 1_555
C1_3 C3_3 1_555 1_555
O4_3 C8_3 1_555 1_555
C8_3 C9_3 1_555 1_555
O14_2 C1_3 1_555 1_555
C11_3 C3_3 1_555 1_555
O13_2 C8_3 1_555 1_555
C12_3 C9_3 1_555 1_555
C11_3 C12_3 1_555 1_555
C11_3 H3_3 1_555 1_555
C12_3 H7_3 1_555 1_555
O2_3 Sc6_2 1_555 1_555
O18_2 C2_3 1_555 1_555
C2_3 O2_3 1_555 1_555
C4_3 C2_3 1_555 1_555
C5_3 C10_3 1_555 1_555
C6_3 C4_3 1_555 1_555
C7_3 C4_3 1_555 1_555
O7_3 C13_3 1_555 1_555
O8_3 C13_3 1_555 1_555
C13_3 C14_3 1_555 1_555
C14_3 C15_3 1_555 1_555
C15_3 C7_3 1_555 1_555
C16_3 C6_3 1_555 1_555
O9_3 Sc4_2 1_555 1_555
O20_2 C17_3 1_555 1_555
C17_3 O9_3 1_555 1_555
C18_3 C17_3 1_555 1_555
C19_3 C18_3 1_555 1_555
C20_3 C18_3 1_555 1_555
O11_3 C21_3 1_555 1_555
O12_3 C21_3 1_555 1_555
C21_3 C22_3 1_555 1_555
C22_3 C23_3 1_555 1_555
C23_3 C20_3 1_555 1_555
C24_3 C19_3 1_555 1_555
Sc7 O7_3 1_555 1_555
Sc8 O11_3 1_555 1_555
O17_3 Sc6_2 1_555 1_555
O19_3 Sc4_2 1_555 1_555
C14_3 C16_3 1_555 1_555
C22_3 C24_3 1_555 1_555
C5_3 H1_3 1_555 1_555
C6_3 H2_3 1_555 1_555
C23_3 H6_3 1_555 1_555
C7_3 H8_3 1_555 1_555
C10_3 H9_3 1_555 1_555
C15_3 H10_3 1_555 1_555
C19_3 H11_3 1_555 1_555
C20_3 H12_3 1_555 1_555
O17 C2_4 1_555 1_555
C2_4 O2_4 1_555 1_555
C4_4 C2_4 1_555 1_555
C7_4 C4_4 1_555 1_555
C15_4 C7_4 1_555 1_555
O19 C17_4 1_555 1_555
C17_4 O9_4 1_555 1_555
C18_4 C17_4 1_555 1_555
C20_4 C18_4 1_555 1_555
C7_4 H8_4 1_555 1_555
C15_4 H10_4 1_555 1_555
C20_4 H12_4 1_555 1_555
C23_4 H6_4 1_555 1_555
O7_4 C13_4 1_555 1_555
O8_4 C13_4 1_555 1_555
C13_4 C14_4 1_555 1_555
C16_4 C6_4 1_555 1_555
Sc7 O8_4 1_555 1_555
O15_4 Sc4 1_555 1_555
O16_4 Sc6 1_555 1_555
O18_3 Sc6 1_555 1_555
O20_3 Sc4 1_555 1_555
C14_4 C16_4 1_555 1_555
C6_4 H2_4 1_555 1_555
C16_4 H4_4 1_555 1_555
C19_4 H11_4 1_555 1_555
O11_4 C21_4 1_555 1_555
O12_4 C21_4 1_555 1_555
C21_4 C22_4 1_555 1_555
Sc8 O12_4 1_555 1_555
C22_4 C24_4 1_555 1_555
C24_4 H5_4 1_555 1_555
O14_3 C1_4 1_555 1_555
C1_4 C3_4 1_555 1_555
O14 C1_4 1_555 1_555
C11_4 C3_4 1_555 1_555
C12_4 C9_4 1_555 1_555
C11_4 C12_4 1_555 1_555
C11_4 H3_4 1_555 1_555
C12_4 H7_4 1_555 1_555
O13_3 C8_4 1_555 1_555
O13 C8_4 1_555 1_555
O18 C2_5 1_555 1_555
C2_5 O16_4 1_555 1_555
C4_5 C2_5 1_555 1_555
C5_4 C10_4 1_555 1_555
C6_5 C4_5 1_555 1_555
C7_5 C4_5 1_555 1_555
O11_5 C21_5 1_555 1_555
O12_5 C21_5 1_555 1_555
C21_5 C22_5 1_555 1_555
C22_5 C23_5 1_555 1_555
Sc8_2 O11_5 1_555 1_555
C22_5 C24_5 1_555 1_555
C5_4 H1_4 1_555 1_555
C6_5 H2_5 1_555 1_555
C23_5 H6_5 1_555 1_555
C7_5 H8_5 1_555 1_555
C10_4 H9_4 1_555 1_555
O7_5 C13_5 1_555 1_555
O8_5 C13_5 1_555 1_555
C13_5 C14_5 1_555 1_555
C14_5 C15_5 1_555 1_555
Sc7_2 O7_5 1_555 1_555
C14_5 C16_5 1_555 1_555
C15_5 H10_5 1_555 1_555
O20 C17_5 1_555 1_555
C17_5 O15_4 1_555 1_555
C18_5 C17_5 1_555 1_555
C19_5 C18_5 1_555 1_555
C20_5 C18_5 1_555 1_555
C19_5 H11_5 1_555 1_555
C20_5 H12_5 1_555 1_555
O18_3 C17_6 1_555 1_555
C17_6 O16 1_555 1_555
C18_6 C17_6 1_555 1_555
C19_6 C18_6 1_555 1_555
C20_6 C18_6 1_555 1_555
O11_6 C21_6 1_555 1_555
O12_6 C21_6 1_555 1_555
C21_6 C22_6 1_555 1_555
C22_6 C23_6 1_555 1_555
C23_6 C20_6 1_555 1_555
C24_6 C19_6 1_555 1_555
Sc9_2 O12_6 1_555 1_555
Sc8_2 O11_6 1_555 1_555
C22_6 C24_6 1_555 1_555
C24_6 H5_6 1_555 1_555
C23_6 H6_6 1_555 1_555
C19_6 H11_6 1_555 1_555
C20_6 H12_6 1_555 1_555
O7_6 C13_6 1_555 1_555
O8_6 C13_6 1_555 1_555
C13_6 C14_6 1_555 1_555
C14_6 C15_6 1_555 1_555
Sc10_2 O8_6 1_555 1_555
Sc7_2 O7_6 1_555 1_555
C14_6 C16_6 1_555 1_555
C16_6 H4_6 1_555 1_555
C15_6 H10_6 1_555 1_555
O20_3 C2_6 1_555 1_555
C2_6 O15 1_555 1_555
C4_6 C2_6 1_555 1_555
C6_6 C4_6 1_555 1_555
C7_6 C4_6 1_555 1_555
C6_6 H2_6 1_555 1_555
C7_6 H8_6 1_555 1_555
O17_3 C2_7 1_555 1_555
C2_7 O16_2 1_555 1_555
C4_7 C2_7 1_555 1_555
C6_7 C4_7 1_555 1_555
C7_7 C4_7 1_555 1_555
O7_7 C13_7 1_555 1_555
O8_7 C13_7 1_555 1_555
C13_7 C14_7 1_555 1_555
C14_7 C15_7 1_555 1_555
C15_7 C7_7 1_555 1_555
C16_7 C6_7 1_555 1_555
O19_3 C17_7 1_555 1_555
C17_7 O15_2 1_555 1_555
C18_7 C17_7 1_555 1_555
C19_7 C18_7 1_555 1_555
C20_7 C18_7 1_555 1_555
O11_7 C21_7 1_555 1_555
O12_7 C21_7 1_555 1_555
C21_7 C22_7 1_555 1_555
C22_7 C23_7 1_555 1_555
C23_7 C20_7 1_555 1_555
C24_7 C19_7 1_555 1_555
Sc10 O12_7 1_555 1_555
Sc9 O8_7 1_555 1_555
Sc8 O7_7 1_555 1_555
Sc7 O11_7 1_555 1_555
C14_7 C16_7 1_555 1_555
C22_7 C24_7 1_555 1_555
C6_7 H2_7 1_555 1_555
C16_7 H4_7 1_555 1_555
C24_7 H5_7 1_555 1_555
C23_7 H6_7 1_555 1_555
C7_7 H8_7 1_555 1_555
C15_7 H10_7 1_555 1_555
C19_7 H11_7 1_555 1_555
C20_7 H12_7 1_555 1_555
O17_2 C17_8 1_555 1_555
C17_8 O16_3 1_555 1_555
C18_8 C17_8 1_555 1_555
C20_8 C18_8 1_555 1_555
C23_8 C20_8 1_555 1_555
C23_8 H6_8 1_555 1_555
C15_8 H10_8 1_555 1_555
C20_8 H12_8 1_555 1_555
O19_2 C2_8 1_555 1_555
C2_8 O15_3 1_555 1_555
C4_8 C2_8 1_555 1_555
C7_8 C4_8 1_555 1_555
C7_8 H8_8 1_555 1_555
O7_8 C13_8 1_555 1_555
O8_8 C13_8 1_555 1_555
C13_8 C14_8 1_555 1_555
O11_8 C21_8 1_555 1_555
O12_8 C21_8 1_555 1_555
C21_8 C22_8 1_555 1_555
C24_8 C19_8 1_555 1_555
Sc7_2 O12_8 1_555 1_555
Sc8_2 O8_8 1_555 1_555
C14_8 C16_8 1_555 1_555
C22_8 C24_8 1_555 1_555
C16_8 H4_8 1_555 1_555
C24_8 H5_8 1_555 1_555
C19_8 H11_8 1_555 1_555
C6_8 H2_8 1_555 1_555
Sc7_2 O1_4 1_555 1_555
O1_4 C1_5 1_555 1_555
C1_5 C3_5 1_555 1_555
C3_5 C5_5 1_555 1_555
C5_5 C10_5 1_555 1_555
O4_4 C8_5 1_555 1_555
C8_5 C9_5 1_555 1_555
C9_5 C10_5 1_555 1_555
O5_3 C1_5 1_555 1_555
C11_5 C3_5 1_555 1_555
O6_3 C8_5 1_555 1_555
C12_5 C9_5 1_555 1_555
Sc8 O4_4 1_555 1_555
Sc10_2 O5_3 1_555 1_555
Sc9 O6_3 1_555 1_555
O13_4 Sc7_2 1_555 1_555
O14_4 Sc8 1_555 1_555
C11_5 C12_5 1_555 1_555
C5_5 H1_5 1_555 1_555
C11_5 H3_5 1_555 1_555
C12_5 H7_5 1_555 1_555
C10_5 H9_5 1_555 1_555
O4_5 C8_6 1_555 1_555
O6_4 C8_6 1_555 1_555
Sc8_2 O4_5 1_555 1_555
Sc9_2 O6_4 1_555 1_555
O14_5 Sc8_2 1_555 1_555
Sc7 O1_5 1_555 1_555
O1_5 C1_6 1_555 1_555
C1_6 C3_6 1_555 1_555
C3_6 C5_6 1_555 1_555
C5_6 C10_6 1_555 1_555
C9_6 C10_6 1_555 1_555
O5_4 C1_6 1_555 1_555
C11_6 C3_6 1_555 1_555
C12_6 C9_6 1_555 1_555
Sc10 O5_4 1_555 1_555
O13_5 Sc7 1_555 1_555
C11_6 C12_6 1_555 1_555
C5_6 H1_6 1_555 1_555
C11_6 H3_6 1_555 1_555
C12_6 H7_6 1_555 1_555
C10_6 H9_6 1_555 1_555
C5_7 C10_7 1_555 1_555
C5_7 H1_7 1_555 1_555
C10_7 H9_7 1_555 1_555
O1_6 C1_7 1_555 1_555
C1_7 C3_7 1_555 1_555
O4_6 C8_7 1_555 1_555
C8_7 C9_7 1_555 1_555
O14_5 C1_7 1_555 1_555
C11_7 C3_7 1_555 1_555
O13_5 C8_7 1_555 1_555
C12_7 C9_7 1_555 1_555
C11_7 C12_7 1_555 1_555
C11_7 H3_7 1_555 1_555
C12_7 H7_7 1_555 1_555
C5_8 C10_8 1_555 1_555
C5_8 H1_8 1_555 1_555
C10_8 H9_8 1_555 1_555
O13_6 C8_8 1_555 1_555
O13_4 C8_8 1_555 1_555
O14_6 C1_8 1_555 1_555
C1_8 C3_8 1_555 1_555
O14_4 C1_8 1_555 1_555
C11_8 C3_8 1_555 1_555
C12_8 C9_8 1_555 1_555
C11_8 C12_8 1_555 1_555
C11_8 H3_8 1_555 1_555
C12_8 H7_8 1_555 1_555

#END
