
###############################################################################
#
# This file contains modified crystal structure data generated from the
# MOF subset of the Cambridge Structural Database (CSD) v543 
# hosted by the Cambridge Crystallographic Data Centre (CCDC).
#
# This work is licensed under the Creative Commons
# Attribution-NonCommercial-ShareAlike 4.0 International License.
# To view a copy of this license, visit
# http://creativecommons.org/licenses/by-nc-sa/4.0/
# or send a letter to
# Creative Commons, PO Box 1866, Mountain View, CA 94042, USA.
#
# CIF created using the CSD Python API on 29 September 2022
# The structure has been converted into the P1 space group
# The structure has a 3D framework
# The original CSD entry HAZPOP is in the monoclinic crystal system
# The framework has been calculated to contain at least 10.0% void space
# The void calculation uses a probe of radius 1.32A, grid spacing 0.4
#
###############################################################################

data_HAZPOP
_chemical_formula_moiety         '(C96 H56 Br16 Cd8 N16 O36)n'
_symmetry_cell_setting           triclinic
_symmetry_space_group_name_H-M   'P 1'
_symmetry_Int_Tables_number      1
_space_group_name_Hall           'P 1'
loop_
_symmetry_equiv_pos_site_id
_symmetry_equiv_pos_as_xyz
1 x,y,z
_cell_length_a                   11.690(2)
_cell_length_b                   24.154(4)
_cell_length_c                   11.3138(19)
_cell_angle_alpha                90
_cell_angle_beta                 95.491(3)
_cell_angle_gamma                90
_cell_volume                     3179.91
loop_
_atom_site_label
_atom_site_type_symbol
_atom_site_fract_x
_atom_site_fract_y
_atom_site_fract_z
Cd1 Cd 0.14047(4) 0.654330(18) 0.36176(4)
Cd2 Cd 0.36552(4) 0.617310(18) 0.60461(4)
Br2 Br 0.15661(11) 0.99929(3) 0.45242(8)
Br3 Br 0.12147(7) 0.34023(3) 0.30978(9)
Br4 Br 0.46331(11) 0.93168(4) 0.62982(8)
O3 O 0.0740(4) 0.73560(17) 0.4119(4)
O4 O 0.1116(4) 0.78851(18) 0.2597(4)
O5 O 0.3787(4) 0.57200(18) 0.4297(4)
O6 O 0.1907(4) 0.56357(17) 0.3737(4)
O7 O 0.4049(4) 0.70631(17) 0.5729(4)
O8 O 0.3162(4) 0.69758(18) 0.3901(4)
O9 O 0.1691(4) 0.64133(17) 0.5766(4)
H1 H 0.1500 0.6092 0.5983
H2 H 0.1547 0.6682 0.6215
N2 N 0.1316(5) 0.8601(2) 0.6533(5)
N3 N 0.4421(5) 0.4095(2) 0.3616(5)
N4 N 0.3842(5) 0.8581(2) 0.3068(5)
C7 C 0.0983(5) 0.7810(3) 0.3649(6)
C8 C 0.1097(6) 0.8297(2) 0.4493(6)
C9 C 0.1168(6) 0.8197(3) 0.5723(6)
H6 H 0.1109 0.7834 0.5986
C10 C 0.1405(7) 0.9125(3) 0.6141(6)
H7 H 0.1502 0.9412 0.6688
C11 C 0.1356(7) 0.9243(3) 0.4942(6)
C12 C 0.1218(6) 0.8835(2) 0.4109(6)
H8 H 0.1205 0.8916 0.3304
C13 C 0.2916(6) 0.5448(2) 0.3916(5)
C14 C 0.3082(6) 0.4843(3) 0.3661(5)
C15 C 0.4196(5) 0.4633(2) 0.3739(6)
H9 H 0.4809 0.4878 0.3883
C16 C 0.3544(6) 0.3746(3) 0.3416(6)
H10 H 0.3692 0.3371 0.3331
C17 C 0.2420(6) 0.3927(3) 0.3333(6)
C18 C 0.2180(6) 0.4478(3) 0.3453(6)
H11 H 0.1425 0.4603 0.3396
C19 C 0.3677(6) 0.7245(3) 0.4720(6)
C20 C 0.3887(5) 0.7849(2) 0.4503(6)
C21 C 0.3728(6) 0.8045(3) 0.3341(6)
H12 H 0.3535 0.7794 0.2731
C22 C 0.4117(6) 0.8944(3) 0.3944(6)
H13 H 0.4189 0.9317 0.3764
C23 C 0.4296(7) 0.8772(3) 0.5115(6)
C24 C 0.4182(6) 0.8227(3) 0.5415(6)
H14 H 0.4299 0.8112 0.6202
Cd3 Cd 0.14047(4) 0.845670(18) 0.86176(4)
Cd5 Cd 0.63448(4) 0.382690(18) 0.39539(4)
Cd6 Cd 0.36552(4) 0.882690(18) 0.10461(4)
O10 O 0.3045(4) 0.53075(18) 0.6578(4)
N5 N 0.1316(5) 0.6399(2) 0.1533(5)
N6 N 0.5579(5) 0.5905(2) 0.6384(5)
N7 N 0.3842(5) 0.6419(2) 0.8068(5)
Br1 Br 0.62932(8) 0.69344(4) 0.34971(11)
O1 O 0.8863(4) 0.45662(18) 0.3583(5)
O2 O 0.6955(4) 0.46925(18) 0.3422(4)
N1 N 0.9490(5) 0.6236(2) 0.3590(5)
C1 C 0.7981(6) 0.4859(3) 0.3501(6)
C2 C 0.8144(6) 0.5480(2) 0.3514(6)
C3 C 0.7250(6) 0.5846(3) 0.3489(6)
H3 H 0.6495 0.5720 0.3456
C4 C 0.7490(6) 0.6403(3) 0.3515(7)
C5 C 0.8614(6) 0.6590(3) 0.3564(6)
H4 H 0.8760 0.6969 0.3579
C6 C 0.9255(6) 0.5691(3) 0.3568(6)
H5 H 0.9865 0.5443 0.3589
O1_2 O 0.1137(4) 0.95662(18) 0.1417(5)
O2_2 O 0.3045(4) 0.96925(18) 0.1578(4)
C1_2 C 0.2019(6) 0.9859(3) 0.1499(6)
Cd1_2 Cd 0.85953(4) 0.154330(18) 0.13824(4)
Br2_2 Br 0.84339(11) 0.49929(3) 0.04758(8)
O3_2 O 0.9260(4) 0.23560(17) 0.0881(4)
O4_2 O 0.8884(4) 0.28851(18) 0.2403(4)
O5_2 O 0.6213(4) 0.07200(18) 0.0703(4)
O6_2 O 0.8093(4) 0.06357(17) 0.1263(4)
O8_2 O 0.6838(4) 0.19758(18) 0.1099(4)
N4_2 N 0.6158(5) 0.3581(2) 0.1932(5)
C7_2 C 0.9017(5) 0.2810(3) 0.1351(6)
C8_2 C 0.8903(6) 0.3297(2) 0.0507(6)
C11_2 C 0.8644(7) 0.4243(3) 0.0058(6)
C12_2 C 0.8782(6) 0.3835(2) 0.0891(6)
H8_2 H 0.8795 0.3916 0.1696
C13_2 C 0.7084(6) 0.0448(2) 0.1084(5)
C19_2 C 0.6323(6) 0.2245(3) 0.0280(6)
C20_2 C 0.6113(5) 0.2849(2) 0.0497(6)
C21_2 C 0.6272(6) 0.3045(3) 0.1659(6)
H12_2 H 0.6465 0.2794 0.2269
C22_2 C 0.5883(6) 0.3944(3) 0.1056(6)
H13_2 H 0.5811 0.4317 0.1236
N5_2 N 0.8684(5) 0.1399(2) 0.3467(5)
Cd2_2 Cd 0.63448(4) 0.117310(18) 0.89539(4)
Br4_2 Br 0.53669(11) 0.43168(4) 0.87018(8)
O7_2 O 0.5951(4) 0.20631(17) 0.9271(4)
O9_2 O 0.8309(4) 0.14133(17) 0.9234(4)
H1_2 H 0.8500 0.1092 0.9017
H2_2 H 0.8453 0.1682 0.8785
N2_2 N 0.8684(5) 0.3601(2) 0.8467(5)
C9_2 C 0.8832(6) 0.3197(3) 0.9277(6)
H6_2 H 0.8891 0.2834 0.9014
C10_2 C 0.8595(7) 0.4125(3) 0.8859(6)
H7_2 H 0.8498 0.4412 0.8312
C23_2 C 0.5704(7) 0.3772(3) 0.9885(6)
C24_2 C 0.5818(6) 0.3227(3) 0.9585(6)
H14_2 H 0.5701 0.3112 0.8798
Cd3_2 Cd 0.85953(4) 0.345670(18) 0.63824(4)
O10_2 O 0.6955(4) 0.03075(18) 0.8422(4)
N6_2 N 0.4421(5) 0.0905(2) 0.8616(5)
N7_2 N 0.6158(5) 0.1419(2) 0.6932(5)
Br3_2 Br 0.87853(7) 0.84023(3) 0.19022(9)
N3_2 N 0.5579(5) 0.9095(2) 0.1384(5)
C14_2 C 0.6918(6) 0.9843(3) 0.1339(5)
C15_2 C 0.5804(5) 0.9633(2) 0.1261(6)
H9_2 H 0.5191 0.9878 0.1117
C16_2 C 0.6456(6) 0.8746(3) 0.1584(6)
H10_2 H 0.6308 0.8371 0.1669
C17_2 C 0.7580(6) 0.8927(3) 0.1667(6)
C18_2 C 0.7820(6) 0.9478(3) 0.1547(6)
H11_2 H 0.8575 0.9603 0.1604
Br1_2 Br 0.37068(8) 0.30656(4) 0.65029(11)
O1_3 O 0.1137(4) 0.54338(18) 0.6417(5)
N1_2 N 0.0510(5) 0.3764(2) 0.6410(5)
C1_3 C 0.2019(6) 0.5141(3) 0.6499(6)
C2_2 C 0.1856(6) 0.4520(2) 0.6486(6)
C3_2 C 0.2750(6) 0.4154(3) 0.6511(6)
H3_2 H 0.3505 0.4280 0.6544
C4_2 C 0.2510(6) 0.3597(3) 0.6485(7)
C5_2 C 0.1386(6) 0.3410(3) 0.6436(6)
H4_2 H 0.1240 0.3031 0.6421
C6_2 C 0.0745(6) 0.4309(3) 0.6432(6)
H5_2 H 0.0135 0.4557 0.6411
Br2_3 Br 0.84339(11) 0.00071(3) 0.54758(8)
Br3_3 Br 0.87853(7) 0.65977(3) 0.69022(9)
Br4_3 Br 0.53669(11) 0.06832(4) 0.37018(8)
O3_3 O 0.9260(4) 0.26440(17) 0.5881(4)
O4_3 O 0.8884(4) 0.21149(18) 0.7403(4)
O5_3 O 0.6213(4) 0.42800(18) 0.5703(4)
O6_3 O 0.8093(4) 0.43643(17) 0.6263(4)
O7_3 O 0.5951(4) 0.29369(17) 0.4271(4)
O8_3 O 0.6838(4) 0.30242(18) 0.6099(4)
O9_3 O 0.8309(4) 0.35867(17) 0.4234(4)
H1_3 H 0.8500 0.3908 0.4017
H2_3 H 0.8453 0.3318 0.3785
C7_3 C 0.9017(5) 0.2190(3) 0.6351(6)
C8_3 C 0.8903(6) 0.1703(2) 0.5507(6)
C9_3 C 0.8832(6) 0.1803(3) 0.4277(6)
H6_3 H 0.8891 0.2166 0.4014
C10_3 C 0.8595(7) 0.0875(3) 0.3859(6)
H7_3 H 0.8498 0.0588 0.3312
C11_3 C 0.8644(7) 0.0757(3) 0.5058(6)
C12_3 C 0.8782(6) 0.1165(2) 0.5891(6)
H8_3 H 0.8795 0.1084 0.6696
C13_3 C 0.7084(6) 0.4552(2) 0.6084(5)
C14_3 C 0.6918(6) 0.5157(3) 0.6339(5)
C15_3 C 0.5804(5) 0.5367(2) 0.6261(6)
H9_3 H 0.5191 0.5122 0.6117
C16_3 C 0.6456(6) 0.6254(3) 0.6584(6)
H10_3 H 0.6308 0.6629 0.6669
C17_3 C 0.7580(6) 0.6073(3) 0.6667(6)
C18_3 C 0.7820(6) 0.5522(3) 0.6547(6)
H11_3 H 0.8575 0.5397 0.6604
C19_3 C 0.6323(6) 0.2755(3) 0.5280(6)
C20_3 C 0.6113(5) 0.2151(2) 0.5497(6)
C21_3 C 0.6272(6) 0.1955(3) 0.6659(6)
H12_3 H 0.6465 0.2206 0.7269
C22_3 C 0.5883(6) 0.1056(3) 0.6056(6)
H13_3 H 0.5811 0.0683 0.6236
C23_3 C 0.5704(7) 0.1228(3) 0.4885(6)
C24_3 C 0.5818(6) 0.1773(3) 0.4585(6)
H14_3 H 0.5701 0.1888 0.3798
Br3_4 Br 0.12147(7) 0.15977(3) 0.80978(9)
C14_4 C 0.3082(6) 0.0157(3) 0.8661(5)
C15_4 C 0.4196(5) 0.0367(2) 0.8739(6)
H9_4 H 0.4809 0.0122 0.8883
C16_4 C 0.3544(6) 0.1254(3) 0.8416(6)
H10_4 H 0.3692 0.1629 0.8331
C17_4 C 0.2420(6) 0.1073(3) 0.8333(6)
C18_4 C 0.2180(6) 0.0522(3) 0.8453(6)
H11_4 H 0.1425 0.0397 0.8396
Br4_4 Br 0.46331(11) 0.56832(4) 0.12982(8)
O7_4 O 0.4049(4) 0.79369(17) 0.0729(4)
O9_4 O 0.1691(4) 0.85867(17) 0.0766(4)
H1_4 H 0.1500 0.8908 0.0983
H2_4 H 0.1547 0.8318 0.1215
C9_4 C 0.1168(6) 0.6803(3) 0.0723(6)
H6_4 H 0.1109 0.7166 0.0986
C10_4 C 0.1405(7) 0.5875(3) 0.1141(6)
H7_4 H 0.1502 0.5588 0.1688
C23_4 C 0.4296(7) 0.6228(3) 0.0115(6)
C24_4 C 0.4182(6) 0.6773(3) 0.0415(6)
H14_4 H 0.4299 0.6888 0.1202
Br2_4 Br 0.15661(11) 0.50071(3) 0.95242(8)
O3_4 O 0.0740(4) 0.76440(17) 0.9119(4)
O4_4 O 0.1116(4) 0.71149(18) 0.7597(4)
O5_4 O 0.3787(4) 0.92800(18) 0.9297(4)
O6_4 O 0.1907(4) 0.93643(17) 0.8737(4)
O8_4 O 0.3162(4) 0.80242(18) 0.8901(4)
C7_4 C 0.0983(5) 0.7190(3) 0.8649(6)
C8_4 C 0.1097(6) 0.6703(2) 0.9493(6)
C11_4 C 0.1356(7) 0.5757(3) 0.9942(6)
C12_4 C 0.1218(6) 0.6165(2) 0.9109(6)
H8_4 H 0.1205 0.6084 0.8304
C13_4 C 0.2916(6) 0.9552(2) 0.8916(5)
C19_4 C 0.3677(6) 0.7755(3) 0.9720(6)
C20_4 C 0.3887(5) 0.7151(2) 0.9503(6)
C21_4 C 0.3728(6) 0.6955(3) 0.8341(6)
H12_4 H 0.3535 0.7206 0.7731
C22_4 C 0.4117(6) 0.6056(3) 0.8944(6)
H13_4 H 0.4189 0.5683 0.8764
O1_4 O 0.8863(4) 0.04338(18) 0.8583(5)
C1_4 C 0.7981(6) 0.0141(3) 0.8501(6)
Br1_3 Br 0.37068(8) 0.19344(4) 0.15029(11)
N1_3 N 0.0510(5) 0.1236(2) 0.1410(5)
C2_3 C 0.1856(6) 0.0480(2) 0.1486(6)
C3_3 C 0.2750(6) 0.0846(3) 0.1511(6)
H3_3 H 0.3505 0.0720 0.1544
C4_3 C 0.2510(6) 0.1403(3) 0.1485(7)
C5_3 C 0.1386(6) 0.1590(3) 0.1436(6)
H4_3 H 0.1240 0.1969 0.1421
C6_3 C 0.0745(6) 0.0691(3) 0.1432(6)
H5_3 H 0.0135 0.0443 0.1411
Br1_4 Br 0.62932(8) 0.80656(4) 0.84971(11)
N1_4 N 0.9490(5) 0.8764(2) 0.8590(5)
C2_4 C 0.8144(6) 0.9520(2) 0.8514(6)
C3_4 C 0.7250(6) 0.9154(3) 0.8489(6)
H3_4 H 0.6495 0.9280 0.8456
C4_4 C 0.7490(6) 0.8597(3) 0.8515(7)
C5_4 C 0.8614(6) 0.8410(3) 0.8564(6)
H4_4 H 0.8760 0.8031 0.8579
C6_4 C 0.9255(6) 0.9309(3) 0.8568(6)
H5_4 H 0.9865 0.9557 0.8589
loop_
_geom_bond_atom_site_label_1
_geom_bond_atom_site_label_2
_geom_bond_site_symmetry_1
_geom_bond_site_symmetry_2
Cd1 O3 1_555 1_555
Cd2 O5 1_555 1_555
Br2 C11 1_555 1_555
Br3 C17 1_555 1_555
Br4 C23 1_555 1_555
O3 C7 1_555 1_555
O4 C7 1_555 1_555
O5 C13 1_555 1_555
O6 Cd1 1_555 1_555
O7 Cd2 1_555 1_555
O8 Cd1 1_555 1_555
O9 Cd1 1_555 1_555
H1 O9 1_555 1_555
H2 O9 1_555 1_555
N2 C9 1_555 1_555
N3 C15 1_555 1_555
N4 C21 1_555 1_555
C7 C8 1_555 1_555
C8 C9 1_555 1_555
C9 H6 1_555 1_555
C10 N2 1_555 1_555
H7 C10 1_555 1_555
C11 C10 1_555 1_555
C12 C8 1_555 1_555
H8 C12 1_555 1_555
C13 O6 1_555 1_555
C14 C13 1_555 1_555
C15 C14 1_555 1_555
H9 C15 1_555 1_555
C16 N3 1_555 1_555
H10 C16 1_555 1_555
C17 C16 1_555 1_555
C18 C14 1_555 1_555
H11 C18 1_555 1_555
C19 O7 1_555 1_555
C20 C19 1_555 1_555
C21 C20 1_555 1_555
H12 C21 1_555 1_555
C22 N4 1_555 1_555
H13 C22 1_555 1_555
C23 C22 1_555 1_555
C24 C20 1_555 1_555
H14 C24 1_555 1_555
Cd3 N2 1_555 1_555
Cd5 N3 1_555 1_555
Cd6 N4 1_555 1_555
O10 Cd2 1_555 1_555
N5 Cd1 1_555 1_555
N6 Cd2 1_555 1_555
N7 Cd2 1_555 1_555
Cd2 O9 1_555 1_555
O8 C19 1_555 1_555
C11 C12 1_555 1_555
C17 C18 1_555 1_555
C23 C24 1_555 1_555
Br1 C4 1_555 1_555
O1 C1 1_555 1_555
O2 C1 1_555 1_555
C1 C2 1_555 1_555
C2 C3 1_555 1_555
C3 H3 1_555 1_555
C4 C3 1_555 1_555
C5 N1 1_555 1_555
H4 C5 1_555 1_555
C6 N1 1_555 1_555
H5 C6 1_555 1_555
Cd5 O2 1_555 1_555
C2 C6 1_555 1_555
C4 C5 1_555 1_555
O1_2 C1_2 1_555 1_555
O2_2 C1_2 1_555 1_555
Cd6 O2_2 1_555 1_555
Cd1_2 O3_2 1_555 1_555
Br2_2 C11_2 1_555 1_555
O3_2 C7_2 1_555 1_555
O4_2 C7_2 1_555 1_555
O5_2 C13_2 1_555 1_555
O6_2 Cd1_2 1_555 1_555
O8_2 Cd1_2 1_555 1_555
N4_2 C21_2 1_555 1_555
C7_2 C8_2 1_555 1_555
C12_2 C8_2 1_555 1_555
H8_2 C12_2 1_555 1_555
C13_2 O6_2 1_555 1_555
C20_2 C19_2 1_555 1_555
C21_2 C20_2 1_555 1_555
H12_2 C21_2 1_555 1_555
C22_2 N4_2 1_555 1_555
H13_2 C22_2 1_555 1_555
Cd5 N4_2 1_555 1_555
N5_2 Cd1_2 1_555 1_555
O8_2 C19_2 1_555 1_555
C11_2 C12_2 1_555 1_555
Br4_2 C23_2 1_555 1_555
O7_2 Cd2_2 1_555 1_555
H1_2 O9_2 1_555 1_555
H2_2 O9_2 1_555 1_555
N2_2 C9_2 1_555 1_555
C9_2 H6_2 1_555 1_555
C10_2 N2_2 1_555 1_555
H7_2 C10_2 1_555 1_555
H14_2 C24_2 1_555 1_555
Cd3_2 N2_2 1_555 1_555
O10_2 Cd2_2 1_555 1_555
N6_2 Cd2_2 1_555 1_555
N7_2 Cd2_2 1_555 1_555
Cd2_2 O9_2 1_555 1_555
C23_2 C24_2 1_555 1_555
Br3_2 C17_2 1_555 1_555
N3_2 C15_2 1_555 1_555
C15_2 C14_2 1_555 1_555
H9_2 C15_2 1_555 1_555
C16_2 N3_2 1_555 1_555
H10_2 C16_2 1_555 1_555
C17_2 C16_2 1_555 1_555
C18_2 C14_2 1_555 1_555
H11_2 C18_2 1_555 1_555
Cd6 N3_2 1_555 1_555
C17_2 C18_2 1_555 1_555
Br1_2 C4_2 1_555 1_555
O1_3 C1_3 1_555 1_555
O10 C1_3 1_555 1_555
C1_3 C2_2 1_555 1_555
C2_2 C3_2 1_555 1_555
C3_2 H3_2 1_555 1_555
C4_2 C3_2 1_555 1_555
C5_2 N1_2 1_555 1_555
H4_2 C5_2 1_555 1_555
C6_2 N1_2 1_555 1_555
H5_2 C6_2 1_555 1_555
C2_2 C6_2 1_555 1_555
C4_2 C5_2 1_555 1_555
Cd3_2 O3_3 1_555 1_555
Cd5 O5_3 1_555 1_555
Br2_3 C11_3 1_555 1_555
Br3_3 C17_3 1_555 1_555
Br4_3 C23_3 1_555 1_555
O3_3 C7_3 1_555 1_555
O4_3 C7_3 1_555 1_555
O5_3 C13_3 1_555 1_555
O6_3 Cd3_2 1_555 1_555
O7_3 Cd5 1_555 1_555
O8_3 Cd3_2 1_555 1_555
O9_3 Cd3_2 1_555 1_555
H1_3 O9_3 1_555 1_555
H2_3 O9_3 1_555 1_555
N5_2 C9_3 1_555 1_555
N6 C15_3 1_555 1_555
N7_2 C21_3 1_555 1_555
C7_3 C8_3 1_555 1_555
C8_3 C9_3 1_555 1_555
C9_3 H6_3 1_555 1_555
C10_3 N5_2 1_555 1_555
H7_3 C10_3 1_555 1_555
C11_3 C10_3 1_555 1_555
C12_3 C8_3 1_555 1_555
H8_3 C12_3 1_555 1_555
C13_3 O6_3 1_555 1_555
C14_3 C13_3 1_555 1_555
C15_3 C14_3 1_555 1_555
H9_3 C15_3 1_555 1_555
C16_3 N6 1_555 1_555
H10_3 C16_3 1_555 1_555
C17_3 C16_3 1_555 1_555
C18_3 C14_3 1_555 1_555
H11_3 C18_3 1_555 1_555
C19_3 O7_3 1_555 1_555
C20_3 C19_3 1_555 1_555
C21_3 C20_3 1_555 1_555
H12_3 C21_3 1_555 1_555
C22_3 N7_2 1_555 1_555
H13_3 C22_3 1_555 1_555
C23_3 C22_3 1_555 1_555
C24_3 C20_3 1_555 1_555
H14_3 C24_3 1_555 1_555
Cd5 O9_3 1_555 1_555
O8_3 C19_3 1_555 1_555
C11_3 C12_3 1_555 1_555
C17_3 C18_3 1_555 1_555
C23_3 C24_3 1_555 1_555
Br3_4 C17_4 1_555 1_555
N6_2 C15_4 1_555 1_555
C15_4 C14_4 1_555 1_555
H9_4 C15_4 1_555 1_555
C16_4 N6_2 1_555 1_555
H10_4 C16_4 1_555 1_555
C17_4 C16_4 1_555 1_555
C18_4 C14_4 1_555 1_555
H11_4 C18_4 1_555 1_555
C17_4 C18_4 1_555 1_555
Br4_4 C23_4 1_555 1_555
O7_4 Cd6 1_555 1_555
H1_4 O9_4 1_555 1_555
H2_4 O9_4 1_555 1_555
N5 C9_4 1_555 1_555
C9_4 H6_4 1_555 1_555
C10_4 N5 1_555 1_555
H7_4 C10_4 1_555 1_555
H14_4 C24_4 1_555 1_555
Cd6 O9_4 1_555 1_555
C23_4 C24_4 1_555 1_555
Cd3 O3_4 1_555 1_555
Br2_4 C11_4 1_555 1_555
O3_4 C7_4 1_555 1_555
O4_4 C7_4 1_555 1_555
O5_4 C13_4 1_555 1_555
O6_4 Cd3 1_555 1_555
O8_4 Cd3 1_555 1_555
N7 C21_4 1_555 1_555
C7_4 C8_4 1_555 1_555
C12_4 C8_4 1_555 1_555
H8_4 C12_4 1_555 1_555
C13_4 O6_4 1_555 1_555
C20_4 C19_4 1_555 1_555
C21_4 C20_4 1_555 1_555
H12_4 C21_4 1_555 1_555
C22_4 N7 1_555 1_555
H13_4 C22_4 1_555 1_555
O8_4 C19_4 1_555 1_555
C11_4 C12_4 1_555 1_555
O1_4 C1_4 1_555 1_555
O10_2 C1_4 1_555 1_555
Br1_3 C4_3 1_555 1_555
C2_3 C3_3 1_555 1_555
C3_3 H3_3 1_555 1_555
C4_3 C3_3 1_555 1_555
C5_3 N1_3 1_555 1_555
H4_3 C5_3 1_555 1_555
C6_3 N1_3 1_555 1_555
H5_3 C6_3 1_555 1_555
C2_3 C6_3 1_555 1_555
C4_3 C5_3 1_555 1_555
Br1_4 C4_4 1_555 1_555
C2_4 C3_4 1_555 1_555
C3_4 H3_4 1_555 1_555
C4_4 C3_4 1_555 1_555
C5_4 N1_4 1_555 1_555
H4_4 C5_4 1_555 1_555
C6_4 N1_4 1_555 1_555
H5_4 C6_4 1_555 1_555
C2_4 C6_4 1_555 1_555
C4_4 C5_4 1_555 1_555

#END
