
###############################################################################
#
# This file contains modified crystal structure data generated from the
# MOF subset of the Cambridge Structural Database (CSD) v543 
# hosted by the Cambridge Crystallographic Data Centre (CCDC).
#
# This work is licensed under the Creative Commons
# Attribution-NonCommercial-ShareAlike 4.0 International License.
# To view a copy of this license, visit
# http://creativecommons.org/licenses/by-nc-sa/4.0/
# or send a letter to
# Creative Commons, PO Box 1866, Mountain View, CA 94042, USA.
#
# CIF created using the CSD Python API on 29 September 2022
# The structure has been converted into the P1 space group
# The structure has a 3D framework
# The original CSD entry HAZSIL is in the orthorhombic crystal system
# The framework has been calculated to contain at least 10.0% void space
# The void calculation uses a probe of radius 1.32A, grid spacing 0.4
# H atom positions have been added when not included in the experimental data
# Generated hydrogen atom positions removed from atoms on special positions
#
###############################################################################

data_HAZSIL
_chemical_formula_moiety         '(C112 H272 Cu32 N32 O109 P32)n'
_symmetry_cell_setting           triclinic
_symmetry_space_group_name_H-M   'P 1'
_symmetry_Int_Tables_number      1
_space_group_name_Hall           'P 1'
loop_
_symmetry_equiv_pos_site_id
_symmetry_equiv_pos_as_xyz
1 x,y,z
_cell_length_a                   15.4398(8)
_cell_length_b                   52.022(3)
_cell_length_c                   11.2107(7)
_cell_angle_alpha                90
_cell_angle_beta                 90
_cell_angle_gamma                90
_cell_volume                     9004.54
loop_
_atom_site_label
_atom_site_type_symbol
_atom_site_fract_x
_atom_site_fract_y
_atom_site_fract_z
N1 N 0.4948(4) 0.85591(13) 0.0012(9)
H1 H 0.5533 0.8542 0.0084
O4 O 0.8143(5) 0.88539(15) 0.0222(7)
O5 O 0.6559(5) 0.88837(16) 0.0785(7)
Cu7 Cu 0.91985(7) 0.86637(2) 0.00077(12)
Cu8 Cu 0.66985(7) 0.88363(2) 0.25077(12)
Cu9 Cu 0.41985(7) 0.86637(2) 0.50077(12)
P4 P 0.47055(16) 0.86735(5) 0.2289(3)
C9 C 0.4552(7) 0.8447(2) 0.1084(9)
H13 H 0.4827 0.8284 0.1275
H14 H 0.3940 0.8416 0.0953
O15 O 0.5643(5) 0.86461(15) 0.2722(7)
O18 O 0.4059(5) 0.86163(16) 0.3285(7)
O19 O 0.4537(5) 0.89339(14) 0.1711(7)
Cu1 Cu 0.46836(8) 0.89403(2) 0.99556(13)
P1 P 0.49217(17) 0.86529(5) 0.7642(3)
P2 P 0.72055(16) 0.88265(5) 0.9789(3)
N2 N 0.7270(5) 0.81766(14) 0.7446(11)
C1 C 0.4684(8) 0.8433(3) 0.8857(10)
H2 H 0.6570 0.9106 0.6371
H3 H 0.7501 0.9226 0.6249
C2 C 0.7052(7) 0.9053(2) 0.8584(9)
H4 H 0.7327 0.9216 0.8775
H5 H 0.6440 0.9084 0.8453
C3 C 0.6622(8) 0.8024(2) 0.7129(12)
H6 H 0.6094 0.8097 0.6920
C4 C 0.6703(8) 0.7759(2) 0.7100(12)
H7 H 0.6249 0.7658 0.6821
C5 C 0.7453(7) 0.76456(18) 0.7482(15)
C6 C 0.6888(8) 0.7197(2) 0.7840(12)
H8 H 0.6369 0.7268 0.8102
C7 C 0.6985(7) 0.6936(2) 0.7814(11)
H9 H 0.6527 0.6833 0.8057
O1 O 0.5776(5) 0.85869(15) 0.7078(6)
O2 O 0.7411(5) 0.85815(15) 0.5739(7)
O3 O 0.6684(5) 0.88823(16) 0.4250(7)
O6 O 0.7037(5) 0.85661(14) 0.9211(7)
O7 O 0.5012(5) 0.90402(15) 0.4852(9)
O8 O 0.5300(4) 0.84611(12) 0.4936(9)
Cu3 Cu 0.71836(8) 0.85597(2) 0.74556(13)
Cu4 Cu 0.96836(8) 0.89403(2) 0.49556(13)
Cu5 Cu 0.78164(8) 0.64403(2) 0.74556(13)
P3 P 0.74217(17) 0.88471(5) 0.5142(3)
N3 N 0.7448(4) 0.89409(13) 0.7512(9)
H10 H 0.8033 0.8958 0.7584
N4 N 0.4770(5) 0.93234(14) 0.9946(11)
N5 N 0.7730(5) 0.68234(14) 0.7446(11)
C8 C 0.7184(8) 0.9067(3) 0.6357(10)
H11 H 0.4070 0.8394 0.8871
H12 H 0.5001 0.8274 0.8749
C10 C 0.8378(8) 0.6976(2) 0.7129(12)
H15 H 0.8906 0.6903 0.6920
C11 C 0.8297(8) 0.7241(2) 0.7100(12)
H16 H 0.8751 0.7342 0.6821
C12 C 0.7547(7) 0.73544(18) 0.7482(15)
C13 C 0.8112(8) 0.7803(2) 0.7840(12)
H17 H 0.8631 0.7732 0.8102
C14 C 0.8015(7) 0.8064(2) 0.7814(11)
H18 H 0.8473 0.8167 0.8057
O9 O 0.8276(5) 0.89131(15) 0.4578(6)
O10 O 0.3276(5) 0.89131(15) 0.9578(6)
O11 O 0.4911(5) 0.89185(15) 0.8239(7)
O12 O 0.4184(5) 0.86177(16) 0.6750(7)
O14 O 0.3143(5) 0.88539(15) 0.5222(7)
O20 O 0.7512(5) 0.84598(15) 0.2352(9)
O21 O 0.7800(4) 0.90389(12) 0.2436(9)
N1_2 N 0.5052(4) 0.14409(13) 0.0012(9)
H1_2 H 0.4467 0.1458 0.0084
O4_2 O 0.1857(5) 0.11461(15) 0.0222(7)
O5_2 O 0.3441(5) 0.11163(16) 0.0785(7)
Cu7_2 Cu 0.08015(7) 0.13363(2) 0.00077(12)
Cu8_2 Cu 0.33015(7) 0.11637(2) 0.25077(12)
Cu9_2 Cu 0.58015(7) 0.13363(2) 0.50077(12)
P4_2 P 0.52945(16) 0.13265(5) 0.2289(3)
C9_2 C 0.5448(7) 0.1553(2) 0.1084(9)
H13_2 H 0.5173 0.1716 0.1275
H14_2 H 0.6060 0.1584 0.0953
O15_2 O 0.4357(5) 0.13539(15) 0.2722(7)
O18_2 O 0.5941(5) 0.13837(16) 0.3285(7)
O19_2 O 0.5463(5) 0.10661(14) 0.1711(7)
Cu1_2 Cu 0.53164(8) 0.10597(2) 0.99556(13)
P1_2 P 0.50783(17) 0.13471(5) 0.7642(3)
P2_2 P 0.27945(16) 0.11735(5) 0.9789(3)
N2_2 N 0.2730(5) 0.18234(14) 0.7446(11)
C1_2 C 0.5316(8) 0.1567(3) 0.8857(10)
H2_2 H 0.3430 0.0894 0.6371
H3_2 H 0.2499 0.0774 0.6249
C2_2 C 0.2948(7) 0.0947(2) 0.8584(9)
H4_2 H 0.2673 0.0784 0.8775
H5_2 H 0.3560 0.0916 0.8453
C3_2 C 0.3378(8) 0.1976(2) 0.7129(12)
H6_2 H 0.3906 0.1903 0.6920
C4_2 C 0.3297(8) 0.2241(2) 0.7100(12)
H7_2 H 0.3751 0.2342 0.6821
C5_2 C 0.2547(7) 0.23544(18) 0.7482(15)
C6_2 C 0.3112(8) 0.2803(2) 0.7840(12)
H8_2 H 0.3631 0.2732 0.8102
C7_2 C 0.3015(7) 0.3064(2) 0.7814(11)
H9_2 H 0.3473 0.3167 0.8057
O1_2 O 0.4224(5) 0.14131(15) 0.7078(6)
O2_2 O 0.2589(5) 0.14185(15) 0.5739(7)
O3_2 O 0.3316(5) 0.11177(16) 0.4250(7)
O6_2 O 0.2963(5) 0.14339(14) 0.9211(7)
O7_2 O 0.4988(5) 0.09598(15) 0.4852(9)
O8_2 O 0.4700(4) 0.15389(12) 0.4936(9)
Cu3_2 Cu 0.28164(8) 0.14403(2) 0.74556(13)
Cu4_2 Cu 0.03164(8) 0.10597(2) 0.49556(13)
Cu5_2 Cu 0.21836(8) 0.35597(2) 0.74556(13)
P3_2 P 0.25783(17) 0.11529(5) 0.5142(3)
N3_2 N 0.2552(4) 0.10591(13) 0.7512(9)
H10_2 H 0.1967 0.1042 0.7584
N4_2 N 0.5230(5) 0.06766(14) 0.9946(11)
N5_2 N 0.2270(5) 0.31766(14) 0.7446(11)
C8_2 C 0.2816(8) 0.0933(3) 0.6357(10)
H11_2 H 0.5930 0.1606 0.8871
H12_2 H 0.4999 0.1726 0.8749
C10_2 C 0.1622(8) 0.3024(2) 0.7129(12)
H15_2 H 0.1094 0.3097 0.6920
C11_2 C 0.1703(8) 0.2759(2) 0.7100(12)
H16_2 H 0.1249 0.2658 0.6821
C12_2 C 0.2453(7) 0.26456(18) 0.7482(15)
C13_2 C 0.1888(8) 0.2197(2) 0.7840(12)
H17_2 H 0.1369 0.2268 0.8102
C14_2 C 0.1985(7) 0.1936(2) 0.7814(11)
H18_2 H 0.1527 0.1833 0.8057
O9_2 O 0.1724(5) 0.10869(15) 0.4578(6)
O10_2 O 0.6724(5) 0.10869(15) 0.9578(6)
O11_2 O 0.5089(5) 0.10815(15) 0.8239(7)
O12_2 O 0.5816(5) 0.13823(16) 0.6750(7)
O14_2 O 0.6857(5) 0.11461(15) 0.5222(7)
O20_2 O 0.2488(5) 0.15402(15) 0.2352(9)
O21_2 O 0.2200(4) 0.09611(12) 0.2436(9)
O4_3 O 0.0643(5) 0.36461(15) 0.2722(7)
Cu7_3 Cu 0.16985(7) 0.38363(2) 0.25077(12)
H10_3 H 0.0533 0.3542 0.0084
C13_3 C 0.0612(8) 0.4697(2) 0.0340(12)
H17_3 H 0.1131 0.4768 0.0602
C14_3 C 0.0515(7) 0.4436(2) 0.0314(11)
H18_3 H 0.0973 0.4333 0.0557
H3_3 H 0.0001 0.3274 0.8749
Cu5_3 Cu 0.03164(8) 0.60597(2) 0.99556(13)
N5_3 N 0.0230(5) 0.56766(14) 0.9946(11)
C10_3 C 0.0878(8) 0.5524(2) 0.9629(12)
H15_3 H 0.1406 0.5597 0.9420
C11_3 C 0.0797(8) 0.5259(2) 0.9600(12)
H16_3 H 0.1251 0.5158 0.9321
C12_3 C 0.0047(7) 0.51456(18) 0.9982(15)
O9_3 O 0.0776(5) 0.35869(15) 0.7078(6)
O20_3 O 0.0012(5) 0.40402(15) 0.4852(9)
O21_3 O 0.0300(4) 0.34611(12) 0.4936(9)
H24 H 0.00738504 0.408784 0.39985
Cu1_3 Cu 0.71836(8) 0.35597(2) 0.24556(13)
P1_3 P 0.74217(17) 0.38471(5) 0.0142(3)
P2_3 P 0.97055(16) 0.36735(5) 0.2289(3)
N1_3 N 0.7448(4) 0.39409(13) 0.2512(9)
H1_3 H 0.8033 0.3958 0.2584
C1_3 C 0.7184(8) 0.4067(3) 0.1357(10)
C2_3 C 0.9552(7) 0.3447(2) 0.1084(9)
H4_3 H 0.9827 0.3284 0.1275
H5_3 H 0.8940 0.3416 0.0953
C6_3 C 0.9388(8) 0.5303(2) 0.0340(12)
H8_3 H 0.8869 0.5232 0.0602
C7_3 C 0.9485(7) 0.5564(2) 0.0314(11)
H9_3 H 0.9027 0.5667 0.0557
O5_3 O 0.9059(5) 0.36163(16) 0.3285(7)
O6_3 O 0.9537(5) 0.39339(14) 0.1711(7)
Cu8_3 Cu 0.91985(7) 0.36637(2) 0.50077(12)
Cu9_3 Cu 0.66985(7) 0.38363(2) 0.75077(12)
P4_3 P 0.72055(16) 0.38265(5) 0.4789(3)
N3_3 N 0.9948(4) 0.35591(13) 0.0012(9)
N4_3 N 0.7270(5) 0.31766(14) 0.2446(11)
H11_3 H 0.6570 0.4106 0.1371
H12_3 H 0.7501 0.4226 0.1249
C9_3 C 0.7052(7) 0.4053(2) 0.3584(9)
H13_3 H 0.7327 0.4216 0.3775
H14_3 H 0.6440 0.4084 0.3453
O10_3 O 0.5776(5) 0.35869(15) 0.2078(6)
O11_3 O 0.7411(5) 0.35815(15) 0.0739(7)
O15_3 O 0.8143(5) 0.38539(15) 0.5222(7)
O18_3 O 0.6559(5) 0.38837(16) 0.5785(7)
O19_3 O 0.7037(5) 0.35661(14) 0.4211(7)
N2_3 N 0.9770(5) 0.43234(14) 0.9946(11)
H2_3 H 0.9070 0.3394 0.8871
C3_3 C 0.9122(8) 0.4476(2) 0.9629(12)
H6_3 H 0.8594 0.4403 0.9420
C4_3 C 0.9203(8) 0.4741(2) 0.9600(12)
H7_3 H 0.8749 0.4842 0.9321
C5_3 C 0.9953(7) 0.48544(18) 0.9982(15)
O1_3 O 0.8276(5) 0.39131(15) 0.9578(6)
O2_3 O 0.9911(5) 0.39185(15) 0.8239(7)
O3_3 O 0.9184(5) 0.36177(16) 0.6750(7)
O7_3 O 0.7512(5) 0.34598(15) 0.7352(9)
O8_3 O 0.7800(4) 0.40389(12) 0.7436(9)
Cu3_3 Cu 0.96836(8) 0.39403(2) 0.99556(13)
P3_3 P 0.99217(17) 0.36529(5) 0.7642(3)
C8_3 C 0.9684(8) 0.3433(3) 0.8857(10)
O12_3 O 0.6684(5) 0.38823(16) 0.9250(7)
O14_3 O 0.5643(5) 0.36461(15) 0.7722(7)
H23 H 0.971407 0.418105 0.528674
Cu1_4 Cu 0.78164(8) 0.14403(2) 0.24556(13)
P1_4 P 0.75783(17) 0.11529(5) 0.0142(3)
N1_4 N 0.7552(4) 0.10591(13) 0.2512(9)
H1_4 H 0.6967 0.1042 0.2584
C1_4 C 0.7816(8) 0.0933(3) 0.1357(10)
Cu9_4 Cu 0.83015(7) 0.11637(2) 0.75077(12)
P4_4 P 0.77945(16) 0.11735(5) 0.4789(3)
N4_4 N 0.7730(5) 0.18234(14) 0.2446(11)
H11_4 H 0.8430 0.0894 0.1371
H12_4 H 0.7499 0.0774 0.1249
C9_4 C 0.7948(7) 0.0947(2) 0.3584(9)
H13_4 H 0.7673 0.0784 0.3775
H14_4 H 0.8560 0.0916 0.3453
C13_4 C 0.4388(8) 0.0303(2) 0.0340(12)
H17_4 H 0.3869 0.0232 0.0602
C14_4 C 0.4485(7) 0.0564(2) 0.0314(11)
H18_4 H 0.4027 0.0667 0.0557
O10_4 O 0.9224(5) 0.14131(15) 0.2078(6)
O11_4 O 0.7589(5) 0.14185(15) 0.0739(7)
O18_4 O 0.8441(5) 0.11163(16) 0.5785(7)
O19_4 O 0.7963(5) 0.14339(14) 0.4211(7)
C3_4 C 0.5878(8) 0.0524(2) 0.9629(12)
H6_4 H 0.6406 0.0597 0.9420
C4_4 C 0.5797(8) 0.0259(2) 0.9600(12)
H7_4 H 0.6251 0.0158 0.9321
C5_4 C 0.5047(7) 0.01456(18) 0.9982(15)
O7_4 O 0.7488(5) 0.15402(15) 0.7352(9)
O8_4 O 0.7200(4) 0.09611(12) 0.7436(9)
O12_4 O 0.8316(5) 0.11177(16) 0.9250(7)
O14_4 O 0.9357(5) 0.13539(15) 0.7722(7)
C6_4 C 0.5612(8) 0.9697(2) 0.0340(12)
H8_4 H 0.6131 0.9768 0.0602
C7_4 C 0.5515(7) 0.9436(2) 0.0314(11)
H9_4 H 0.5973 0.9333 0.0557
C10_4 C 0.4122(8) 0.9476(2) 0.9629(12)
H15_4 H 0.3594 0.9403 0.9420
C11_4 C 0.4203(8) 0.9741(2) 0.9600(12)
H16_4 H 0.3749 0.9842 0.9321
C12_4 C 0.4953(7) 0.98544(18) 0.9982(15)
Cu9_5 Cu 0.41985(7) 0.36637(2) 0.00077(12)
Cu1_5 Cu 0.46836(8) 0.39403(2) 0.49556(13)
P1_5 P 0.49217(17) 0.36529(5) 0.2642(3)
N1_5 N 0.4948(4) 0.35591(13) 0.5012(9)
H1_5 H 0.5533 0.3542 0.5084
C1_5 C 0.4684(8) 0.3433(3) 0.3857(10)
C3_5 C 0.6622(8) 0.3024(2) 0.2129(12)
H6_5 H 0.6094 0.3097 0.1920
C4_5 C 0.6703(8) 0.2759(2) 0.2100(12)
H7_5 H 0.6249 0.2658 0.1821
C5_5 C 0.7453(7) 0.26456(18) 0.2482(15)
C6_5 C 0.6888(8) 0.2197(2) 0.2840(12)
H8_5 H 0.6369 0.2268 0.3102
C7_5 C 0.6985(7) 0.1936(2) 0.2814(11)
H9_5 H 0.6527 0.1833 0.3057
P4_5 P 0.47055(16) 0.36735(5) 0.7289(3)
N4_5 N 0.4770(5) 0.43234(14) 0.4946(11)
H11_5 H 0.4070 0.3394 0.3871
H12_5 H 0.5001 0.3274 0.3749
C9_5 C 0.4552(7) 0.3447(2) 0.6084(9)
H13_5 H 0.4827 0.3284 0.6275
H14_5 H 0.3940 0.3416 0.5953
C10_5 C 0.8378(8) 0.1976(2) 0.2129(12)
H15_5 H 0.8906 0.1903 0.1920
C11_5 C 0.8297(8) 0.2241(2) 0.2100(12)
H16_5 H 0.8751 0.2342 0.1821
C12_5 C 0.7547(7) 0.23544(18) 0.2482(15)
C13_5 C 0.8112(8) 0.2803(2) 0.2840(12)
H17_5 H 0.8631 0.2732 0.3102
C14_5 C 0.8015(7) 0.3064(2) 0.2814(11)
H18_5 H 0.8473 0.3167 0.3057
O10_5 O 0.3276(5) 0.39131(15) 0.4578(6)
O11_5 O 0.4911(5) 0.39185(15) 0.3239(7)
O12_5 O 0.4184(5) 0.36177(16) 0.1750(7)
O14_5 O 0.3143(5) 0.38539(15) 0.0222(7)
O18_5 O 0.4059(5) 0.36163(16) 0.8285(7)
O19_5 O 0.4537(5) 0.39339(14) 0.6711(7)
H19 H 0.567896 0.351056 0.0613863
O7_5 O 0.5012(5) 0.40402(15) 0.9852(9)
O8_5 O 0.5300(4) 0.34611(12) 0.9936(9)
H20 H 0.516508 0.327478 0.998602
Cu9_6 Cu 0.58015(7) 0.63363(2) 0.00077(12)
Cu1_6 Cu 0.53164(8) 0.60597(2) 0.49556(13)
P1_6 P 0.50783(17) 0.63471(5) 0.2642(3)
P2_4 P 0.27945(16) 0.61735(5) 0.4789(3)
N1_6 N 0.5052(4) 0.64409(13) 0.5012(9)
H1_6 H 0.4467 0.6458 0.5084
N2_4 N 0.2730(5) 0.68234(14) 0.2446(11)
C1_6 C 0.5316(8) 0.6567(3) 0.3857(10)
H2_4 H 0.3430 0.5894 0.1371
H3_4 H 0.2499 0.5774 0.1249
C2_4 C 0.2948(7) 0.5947(2) 0.3584(9)
H4_4 H 0.2673 0.5784 0.3775
H5_4 H 0.3560 0.5916 0.3453
C3_6 C 0.3378(8) 0.6976(2) 0.2129(12)
H6_6 H 0.3906 0.6903 0.1920
C4_6 C 0.3297(8) 0.7241(2) 0.2100(12)
H7_6 H 0.3751 0.7342 0.1821
C5_6 C 0.2547(7) 0.73544(18) 0.2482(15)
C6_6 C 0.3112(8) 0.7803(2) 0.2840(12)
H8_6 H 0.3631 0.7732 0.3102
C7_6 C 0.3015(7) 0.8064(2) 0.2814(11)
H9_6 H 0.3473 0.8167 0.3057
O1_4 O 0.4224(5) 0.64131(15) 0.2078(6)
O2_4 O 0.2589(5) 0.64185(15) 0.0739(7)
O4_4 O 0.1857(5) 0.61461(15) 0.5222(7)
O5_4 O 0.3441(5) 0.61163(16) 0.5785(7)
O6_4 O 0.2963(5) 0.64339(14) 0.4211(7)
Cu3_4 Cu 0.28164(8) 0.64403(2) 0.24556(13)
Cu5_4 Cu 0.21836(8) 0.85597(2) 0.24556(13)
Cu7_4 Cu 0.08015(7) 0.63363(2) 0.50077(12)
Cu8_4 Cu 0.33015(7) 0.61637(2) 0.75077(12)
P3_4 P 0.25783(17) 0.61529(5) 0.0142(3)
P4_6 P 0.52945(16) 0.63265(5) 0.7289(3)
N3_4 N 0.2552(4) 0.60591(13) 0.2512(9)
H10_4 H 0.1967 0.6042 0.2584
N4_6 N 0.5230(5) 0.56766(14) 0.4946(11)
N5_4 N 0.2270(5) 0.81766(14) 0.2446(11)
C8_4 C 0.2816(8) 0.5933(3) 0.1357(10)
H11_6 H 0.5930 0.6606 0.3871
H12_6 H 0.4999 0.6726 0.3749
C9_6 C 0.5448(7) 0.6553(2) 0.6084(9)
H13_6 H 0.5173 0.6716 0.6275
H14_6 H 0.6060 0.6584 0.5953
C10_6 C 0.1622(8) 0.8024(2) 0.2129(12)
H15_6 H 0.1094 0.8097 0.1920
C11_6 C 0.1703(8) 0.7759(2) 0.2100(12)
H16_6 H 0.1249 0.7658 0.1821
C12_6 C 0.2453(7) 0.76456(18) 0.2482(15)
C13_6 C 0.1888(8) 0.7197(2) 0.2840(12)
H17_6 H 0.1369 0.7268 0.3102
C14_6 C 0.1985(7) 0.6936(2) 0.2814(11)
H18_6 H 0.1527 0.6833 0.3057
O10_6 O 0.6724(5) 0.60869(15) 0.4578(6)
O11_6 O 0.5089(5) 0.60815(15) 0.3239(7)
O12_6 O 0.5816(5) 0.63823(16) 0.1750(7)
O14_6 O 0.6857(5) 0.61461(15) 0.0222(7)
O15_4 O 0.4357(5) 0.63539(15) 0.7722(7)
O18_6 O 0.5941(5) 0.63837(16) 0.8285(7)
O19_6 O 0.5463(5) 0.60661(14) 0.6711(7)
H19_2 H 0.432104 0.648944 0.0613863
O3_4 O 0.3316(5) 0.61177(16) 0.9250(7)
O7_6 O 0.4988(5) 0.59598(15) 0.9852(9)
O8_6 O 0.4700(4) 0.65389(12) 0.9936(9)
O9_4 O 0.1724(5) 0.60869(15) 0.9578(6)
O20_4 O 0.2488(5) 0.65402(15) 0.7352(9)
O21_4 O 0.2200(4) 0.59611(12) 0.7436(9)
H20_2 H 0.483492 0.672522 0.998602
N5_5 N 0.0230(5) 0.06766(14) 0.4946(11)
C10_7 C 0.0878(8) 0.0524(2) 0.4629(12)
H15_7 H 0.1406 0.0597 0.4420
C11_7 C 0.0797(8) 0.0259(2) 0.4600(12)
H16_7 H 0.1251 0.0158 0.4321
C12_7 C 0.0047(7) 0.01456(18) 0.4982(15)
H3_5 H 0.0001 0.8274 0.3749
O4_5 O 0.0643(5) 0.86461(15) 0.7722(7)
Cu7_5 Cu 0.16985(7) 0.88363(2) 0.75077(12)
H10_5 H 0.0533 0.8542 0.5084
C13_7 C 0.0612(8) 0.9697(2) 0.5340(12)
H17_7 H 0.1131 0.9768 0.5602
C14_7 C 0.0515(7) 0.9436(2) 0.5314(11)
H18_7 H 0.0973 0.9333 0.5557
O9_5 O 0.0776(5) 0.85869(15) 0.2078(6)
H25 H 0.0751816 0.854868 0.041789
O20_5 O 0.0012(5) 0.90402(15) 0.9852(9)
O21_5 O 0.0300(4) 0.84611(12) 0.9936(9)
H24_2 H 0.00738504 0.908784 0.89985
H26 H 0.0496445 0.844812 0.909472
C6_7 C 0.9388(8) 0.0303(2) 0.5340(12)
H8_7 H 0.8869 0.0232 0.5602
C7_7 C 0.9485(7) 0.0564(2) 0.5314(11)
H9_7 H 0.9027 0.0667 0.5557
P2_5 P 0.97055(16) 0.86735(5) 0.7289(3)
N2_5 N 0.9770(5) 0.93234(14) 0.4946(11)
H2_5 H 0.9070 0.8394 0.3871
C2_5 C 0.9552(7) 0.8447(2) 0.6084(9)
H4_5 H 0.9827 0.8284 0.6275
H5_5 H 0.8940 0.8416 0.5953
C3_7 C 0.9122(8) 0.9476(2) 0.4629(12)
H6_7 H 0.8594 0.9403 0.4420
C4_7 C 0.9203(8) 0.9741(2) 0.4600(12)
H7_7 H 0.8749 0.9842 0.4321
C5_7 C 0.9953(7) 0.98544(18) 0.4982(15)
O2_5 O 0.9911(5) 0.89185(15) 0.3239(7)
O3_5 O 0.9184(5) 0.86177(16) 0.1750(7)
O5_5 O 0.9059(5) 0.86163(16) 0.8285(7)
O6_5 O 0.9537(5) 0.89339(14) 0.6711(7)
P3_5 P 0.99217(17) 0.86529(5) 0.2642(3)
N3_5 N 0.9948(4) 0.85591(13) 0.5012(9)
C8_5 C 0.9684(8) 0.8433(3) 0.3857(10)
H23_2 H 0.971407 0.918105 0.028674
Cu9_7 Cu 0.83015(7) 0.61637(2) 0.25077(12)
O18_7 O 0.8441(5) 0.61163(16) 0.0785(7)
P1_7 P 0.75783(17) 0.61529(5) 0.5142(3)
N1_7 N 0.7552(4) 0.60591(13) 0.7512(9)
H1_7 H 0.6967 0.6042 0.7584
C1_7 C 0.7816(8) 0.5933(3) 0.6357(10)
C3_8 C 0.5878(8) 0.5524(2) 0.4629(12)
H6_8 H 0.6406 0.5597 0.4420
C4_8 C 0.5797(8) 0.5259(2) 0.4600(12)
H7_8 H 0.6251 0.5158 0.4321
C5_8 C 0.5047(7) 0.51456(18) 0.4982(15)
C6_8 C 0.5612(8) 0.4697(2) 0.5340(12)
H8_8 H 0.6131 0.4768 0.5602
C7_8 C 0.5515(7) 0.4436(2) 0.5314(11)
H9_8 H 0.5973 0.4333 0.5557
O7_7 O 0.7488(5) 0.65402(15) 0.2352(9)
O8_7 O 0.7200(4) 0.59611(12) 0.2436(9)
P4_7 P 0.77945(16) 0.61735(5) 0.9789(3)
H11_7 H 0.8430 0.5894 0.6371
H12_7 H 0.7499 0.5774 0.6249
C9_7 C 0.7948(7) 0.5947(2) 0.8584(9)
H13_7 H 0.7673 0.5784 0.8775
H14_7 H 0.8560 0.5916 0.8453
C10_8 C 0.4122(8) 0.4476(2) 0.4629(12)
H15_8 H 0.3594 0.4403 0.4420
C11_8 C 0.4203(8) 0.4741(2) 0.4600(12)
H16_8 H 0.3749 0.4842 0.4321
C12_8 C 0.4953(7) 0.48544(18) 0.4982(15)
C13_8 C 0.4388(8) 0.5303(2) 0.5340(12)
H17_8 H 0.3869 0.5232 0.5602
C14_8 C 0.4485(7) 0.5564(2) 0.5314(11)
H18_8 H 0.4027 0.5667 0.5557
O10_7 O 0.9224(5) 0.64131(15) 0.7078(6)
O11_7 O 0.7589(5) 0.64185(15) 0.5739(7)
O12_7 O 0.8316(5) 0.61177(16) 0.4250(7)
O14_7 O 0.9357(5) 0.63539(15) 0.2722(7)
O19_7 O 0.7963(5) 0.64339(14) 0.9211(7)
H23_3 H 0.528593 0.581895 0.028674
H25_2 H 0.424818 0.645132 0.041789
H26_2 H 0.450355 0.655188 0.909472
P2_6 P 0.22055(16) 0.88265(5) 0.4789(3)
H2_6 H 0.1570 0.9106 0.1371
H3_6 H 0.2501 0.9226 0.1249
C2_6 C 0.2052(7) 0.9053(2) 0.3584(9)
H4_6 H 0.2327 0.9216 0.3775
H5_6 H 0.1440 0.9084 0.3453
O2_6 O 0.2411(5) 0.85815(15) 0.0739(7)
O5_6 O 0.1559(5) 0.88837(16) 0.5785(7)
O6_6 O 0.2037(5) 0.85661(14) 0.4211(7)
P3_6 P 0.24217(17) 0.88471(5) 0.0142(3)
N3_6 N 0.2448(4) 0.89409(13) 0.2512(9)
H10_6 H 0.3033 0.8958 0.2584
C8_6 C 0.2184(8) 0.9067(3) 0.1357(10)
H19_3 H 0.0678957 0.851056 0.0613863
O3_6 O 0.1684(5) 0.88823(16) 0.9250(7)
O20_6 O 0.2512(5) 0.84598(15) 0.7352(9)
O21_6 O 0.2800(4) 0.90389(12) 0.7436(9)
H20_3 H 0.0165078 0.827478 0.998602
H21 H 0.0343567 0.903832 0.909307
H22 H 0.961832 0.919112 0.986229
P1_8 P 0.00783(17) 0.13471(5) 0.2642(3)
N1_8 N 0.0052(4) 0.14409(13) 0.5012(9)
C1_8 C 0.0316(8) 0.1567(3) 0.3857(10)
P4_8 P 0.02945(16) 0.13265(5) 0.7289(3)
H11_8 H 0.0930 0.1606 0.3871
C9_8 C 0.0448(7) 0.1553(2) 0.6084(9)
H13_8 H 0.0173 0.1716 0.6275
H14_8 H 0.1060 0.1584 0.5953
O11_8 O 0.0089(5) 0.10815(15) 0.3239(7)
O12_8 O 0.0816(5) 0.13823(16) 0.1750(7)
O18_8 O 0.0941(5) 0.13837(16) 0.8285(7)
O19_8 O 0.0463(5) 0.10661(14) 0.6711(7)
H22_2 H 0.0381683 0.0808875 0.986229
H1_8 H 0.9467 0.1458 0.5084
H12_8 H 0.9999 0.1726 0.3749
H19_4 H 0.932104 0.148944 0.0613863
O7_8 O 0.9988(5) 0.09598(15) 0.9852(9)
O8_8 O 0.9700(4) 0.15389(12) 0.9936(9)
H20_4 H 0.983492 0.172522 0.998602
H21_2 H 0.965643 0.0961683 0.909307
O18_9 O 0.1559(5) 0.38837(16) 0.0785(7)
P1_9 P 0.24217(17) 0.38471(5) 0.5142(3)
N1_9 N 0.2448(4) 0.39409(13) 0.7512(9)
H1_9 H 0.3033 0.3958 0.7584
C1_9 C 0.2184(8) 0.4067(3) 0.6357(10)
O7_9 O 0.2512(5) 0.34598(15) 0.2352(9)
O8_9 O 0.2800(4) 0.40389(12) 0.2436(9)
P4_9 P 0.22055(16) 0.38265(5) 0.9789(3)
H11_9 H 0.1570 0.4106 0.6371
H12_9 H 0.2501 0.4226 0.6249
C9_9 C 0.2052(7) 0.4053(2) 0.8584(9)
H13_9 H 0.2327 0.4216 0.8775
H14_9 H 0.1440 0.4084 0.8453
O11_9 O 0.2411(5) 0.35815(15) 0.5739(7)
O12_9 O 0.1684(5) 0.38823(16) 0.4250(7)
O19_9 O 0.2037(5) 0.35661(14) 0.9211(7)
H23_4 H 0.471407 0.418105 0.028674
H25_3 H 0.575182 0.354868 0.041789
H26_3 H 0.549645 0.344812 0.909472
H23_5 H 0.0285933 0.0818947 0.028674
H25_4 H 0.924818 0.145132 0.041789
H24_3 H 0.992615 0.0912165 0.89985
H26_4 H 0.950355 0.155188 0.909472
H21_3 H 0.0343567 0.403832 0.409307
H22_3 H 0.961832 0.419112 0.486229
N1_10 N 0.0052(4) 0.64409(13) 0.0012(9)
P4_10 P 0.02945(16) 0.63265(5) 0.2289(3)
C9_10 C 0.0448(7) 0.6553(2) 0.1084(9)
H13_10 H 0.0173 0.6716 0.1275
H14_10 H 0.1060 0.6584 0.0953
O18_10 O 0.0941(5) 0.63837(16) 0.3285(7)
O19_10 O 0.0463(5) 0.60661(14) 0.1711(7)
P1_10 P 0.00783(17) 0.63471(5) 0.7642(3)
C1_10 C 0.0316(8) 0.6567(3) 0.8857(10)
H11_10 H 0.0930 0.6606 0.8871
O11_10 O 0.0089(5) 0.60815(15) 0.8239(7)
O12_10 O 0.0816(5) 0.63823(16) 0.6750(7)
H22_4 H 0.0381683 0.580888 0.486229
H1_10 H 0.9467 0.6458 0.0084
O7_10 O 0.9988(5) 0.59598(15) 0.4852(9)
O8_10 O 0.9700(4) 0.65389(12) 0.4936(9)
H12_10 H 0.9999 0.6726 0.8749
H21_4 H 0.965643 0.596168 0.409307
H23_6 H 0.0285933 0.581895 0.528674
H24_4 H 0.992615 0.591216 0.39985
loop_
_geom_bond_atom_site_label_1
_geom_bond_atom_site_label_2
_geom_bond_site_symmetry_1
_geom_bond_site_symmetry_2
N1 H1 1_555 1_555
Cu7 O4 1_555 1_555
Cu8 O5 1_555 1_555
Cu9 O18 1_555 1_555
P4 C9 1_555 1_555
C9 N1 1_555 1_555
H13 C9 1_555 1_555
H14 C9 1_555 1_555
O15 Cu8 1_555 1_555
O18 P4 1_555 1_555
P4 O15 1_555 1_555
P4 O19 1_555 1_555
Cu8 O3 1_555 1_555
P1 C1 1_555 1_555
P2 C2 1_555 1_555
N2 C3 1_555 1_555
H2 C8 1_555 1_555
H3 C8 1_555 1_555
C2 H4 1_555 1_555
H5 C2 1_555 1_555
C3 H6 1_555 1_555
C4 C3 1_555 1_555
H7 C4 1_555 1_555
C5 C4 1_555 1_555
C6 H8 1_555 1_555
C7 C6 1_555 1_555
H9 C7 1_555 1_555
O1 P1 1_555 1_555
O2 Cu3 1_555 1_555
O3 P3 1_555 1_555
O6 P2 1_555 1_555
O7 Cu9 1_555 1_555
O8 Cu9 1_555 1_555
Cu3 N2 1_555 1_555
Cu4 O9 1_555 1_555
Cu5 N5 1_555 1_555
Cu9 O12 1_555 1_555
P3 O2 1_555 1_555
N3 C2 1_555 1_555
H10 N3 1_555 1_555
N4 Cu1 1_555 1_555
N5 C7 1_555 1_555
C8 P3 1_555 1_555
H11 C1 1_555 1_555
H12 C1 1_555 1_555
C10 N5 1_555 1_555
H15 C10 1_555 1_555
C11 C10 1_555 1_555
H16 C11 1_555 1_555
C12 C5 1_555 1_555
C13 C5 1_555 1_555
H17 C13 1_555 1_555
C14 N2 1_555 1_555
H18 C14 1_555 1_555
O9 P3 1_555 1_555
O10 Cu1 1_555 1_555
O11 Cu1 1_555 1_555
O12 P1 1_555 1_555
O14 Cu9 1_555 1_555
O20 Cu8 1_555 1_555
O21 Cu8 1_555 1_555
P1 O11 1_555 1_555
C6 C12 1_555 1_555
O1 Cu3 1_555 1_555
O6 Cu3 1_555 1_555
Cu3 N3 1_555 1_555
N3 C8 1_555 1_555
C11 C12 1_555 1_555
C13 C14 1_555 1_555
N1_2 H1_2 1_555 1_555
Cu7_2 O4_2 1_555 1_555
Cu8_2 O5_2 1_555 1_555
Cu9_2 O18_2 1_555 1_555
P4_2 C9_2 1_555 1_555
C9_2 N1_2 1_555 1_555
H13_2 C9_2 1_555 1_555
H14_2 C9_2 1_555 1_555
O15_2 Cu8_2 1_555 1_555
O18_2 P4_2 1_555 1_555
P4_2 O15_2 1_555 1_555
P4_2 O19_2 1_555 1_555
Cu8_2 O3_2 1_555 1_555
P1_2 C1_2 1_555 1_555
P2_2 C2_2 1_555 1_555
N2_2 C3_2 1_555 1_555
H2_2 C8_2 1_555 1_555
H3_2 C8_2 1_555 1_555
C2_2 H4_2 1_555 1_555
H5_2 C2_2 1_555 1_555
C3_2 H6_2 1_555 1_555
C4_2 C3_2 1_555 1_555
H7_2 C4_2 1_555 1_555
C5_2 C4_2 1_555 1_555
C6_2 H8_2 1_555 1_555
C7_2 C6_2 1_555 1_555
H9_2 C7_2 1_555 1_555
O1_2 P1_2 1_555 1_555
O2_2 Cu3_2 1_555 1_555
O3_2 P3_2 1_555 1_555
O6_2 P2_2 1_555 1_555
O7_2 Cu9_2 1_555 1_555
O8_2 Cu9_2 1_555 1_555
Cu3_2 N2_2 1_555 1_555
Cu4_2 O9_2 1_555 1_555
Cu5_2 N5_2 1_555 1_555
Cu9_2 O12_2 1_555 1_555
P3_2 O2_2 1_555 1_555
N3_2 C2_2 1_555 1_555
H10_2 N3_2 1_555 1_555
N4_2 Cu1_2 1_555 1_555
N5_2 C7_2 1_555 1_555
C8_2 P3_2 1_555 1_555
H11_2 C1_2 1_555 1_555
H12_2 C1_2 1_555 1_555
C10_2 N5_2 1_555 1_555
H15_2 C10_2 1_555 1_555
C11_2 C10_2 1_555 1_555
H16_2 C11_2 1_555 1_555
C12_2 C5_2 1_555 1_555
C13_2 C5_2 1_555 1_555
H17_2 C13_2 1_555 1_555
C14_2 N2_2 1_555 1_555
H18_2 C14_2 1_555 1_555
O9_2 P3_2 1_555 1_555
O10_2 Cu1_2 1_555 1_555
O11_2 Cu1_2 1_555 1_555
O12_2 P1_2 1_555 1_555
O14_2 Cu9_2 1_555 1_555
O20_2 Cu8_2 1_555 1_555
O21_2 Cu8_2 1_555 1_555
P1_2 O11_2 1_555 1_555
C6_2 C12_2 1_555 1_555
O1_2 Cu3_2 1_555 1_555
O6_2 Cu3_2 1_555 1_555
Cu3_2 N3_2 1_555 1_555
N3_2 C8_2 1_555 1_555
C11_2 C12_2 1_555 1_555
C13_2 C14_2 1_555 1_555
Cu7_3 O4_3 1_555 1_555
H17_3 C13_3 1_555 1_555
H18_3 C14_3 1_555 1_555
C13_3 C14_3 1_555 1_555
Cu5_2 O9_3 1_555 1_555
Cu5_3 N5_3 1_555 1_555
C10_3 N5_3 1_555 1_555
H15_3 C10_3 1_555 1_555
C11_3 C10_3 1_555 1_555
H16_3 C11_3 1_555 1_555
C11_3 C12_3 1_555 1_555
O20_3 H24 1_555 1_555
Cu1_3 N1_3 1_555 1_555
P1_3 C1_3 1_555 1_555
P2_3 C2_3 1_555 1_555
N1_3 H1_3 1_555 1_555
C1_3 N1_3 1_555 1_555
C2_3 H4_3 1_555 1_555
H5_3 C2_3 1_555 1_555
C6_3 H8_3 1_555 1_555
C7_3 C6_3 1_555 1_555
H9_3 C7_3 1_555 1_555
O5_3 P2_3 1_555 1_555
O6_3 P2_3 1_555 1_555
Cu8_3 O5_3 1_555 1_555
Cu9_3 O18_3 1_555 1_555
P4_3 C9_3 1_555 1_555
N3_3 C2_3 1_555 1_555
N4_3 Cu1_3 1_555 1_555
H11_3 C1_3 1_555 1_555
H12_3 C1_3 1_555 1_555
C9_3 N1_3 1_555 1_555
H13_3 C9_3 1_555 1_555
H14_3 C9_3 1_555 1_555
O10_3 Cu1_3 1_555 1_555
O11_3 Cu1_3 1_555 1_555
O15_3 Cu8_3 1_555 1_555
O18_3 P4_3 1_555 1_555
O19_3 Cu1_3 1_555 1_555
P1_3 O11_3 1_555 1_555
P4_3 O15_3 1_555 1_555
P4_3 O19_3 1_555 1_555
Cu8_3 O3_3 1_555 1_555
N2_3 C3_3 1_555 1_555
H2_3 C8_3 1_555 1_555
C3_3 H6_3 1_555 1_555
C4_3 C3_3 1_555 1_555
H7_3 C4_3 1_555 1_555
C5_3 C4_3 1_555 1_555
O2_3 Cu3_3 1_555 1_555
O3_3 P3_3 1_555 1_555
O7_3 Cu9_3 1_555 1_555
O8_3 Cu9_3 1_555 1_555
Cu3_3 N2_3 1_555 1_555
Cu9_3 O12_3 1_555 1_555
P3_3 O2_3 1_555 1_555
C8_3 P3_3 1_555 1_555
O14_3 Cu9_3 1_555 1_555
O1_3 Cu3_3 1_555 1_555
Cu1_4 N1_4 1_555 1_555
P1_4 C1_4 1_555 1_555
N1_4 H1_4 1_555 1_555
C1_4 N1_4 1_555 1_555
Cu9_4 O18_4 1_555 1_555
P4_4 C9_4 1_555 1_555
N4_4 Cu1_4 1_555 1_555
H11_4 C1_4 1_555 1_555
H12_4 C1_4 1_555 1_555
C9_4 N1_4 1_555 1_555
H13_4 C9_4 1_555 1_555
H14_4 C9_4 1_555 1_555
H17_4 C13_4 1_555 1_555
H18_4 C14_4 1_555 1_555
O10_4 Cu1_4 1_555 1_555
O11_4 Cu1_4 1_555 1_555
O18_4 P4_4 1_555 1_555
O19_4 Cu1_4 1_555 1_555
P1_4 O11_4 1_555 1_555
P4_4 O14_2 1_555 1_555
P4_4 O19_4 1_555 1_555
C13_4 C14_4 1_555 1_555
N4_2 C3_4 1_555 1_555
C3_4 H6_4 1_555 1_555
C4_4 C3_4 1_555 1_555
H7_4 C4_4 1_555 1_555
C5_4 C4_4 1_555 1_555
O7_4 Cu9_4 1_555 1_555
O8_4 Cu9_4 1_555 1_555
Cu9_4 O12_4 1_555 1_555
O14_4 Cu9_4 1_555 1_555
C6_4 H8_4 1_555 1_555
C7_4 C6_4 1_555 1_555
H9_4 C7_4 1_555 1_555
C10_4 N4 1_555 1_555
H15_4 C10_4 1_555 1_555
C11_4 C10_4 1_555 1_555
H16_4 C11_4 1_555 1_555
C11_4 C12_4 1_555 1_555
Cu1_5 N1_5 1_555 1_555
P1_5 C1_5 1_555 1_555
N1_5 H1_5 1_555 1_555
N4_3 C3_5 1_555 1_555
C1_5 N1_5 1_555 1_555
C3_5 H6_5 1_555 1_555
C4_5 C3_5 1_555 1_555
H7_5 C4_5 1_555 1_555
C5_5 C4_5 1_555 1_555
C6_5 H8_5 1_555 1_555
C7_5 C6_5 1_555 1_555
H9_5 C7_5 1_555 1_555
O10_3 P1_5 1_555 1_555
Cu9_5 O12_5 1_555 1_555
P4_5 C9_5 1_555 1_555
N4_5 Cu1_5 1_555 1_555
N4_4 C7_5 1_555 1_555
H11_5 C1_5 1_555 1_555
H12_5 C1_5 1_555 1_555
C9_5 N1_5 1_555 1_555
H13_5 C9_5 1_555 1_555
H14_5 C9_5 1_555 1_555
C10_5 N4_4 1_555 1_555
H15_5 C10_5 1_555 1_555
C11_5 C10_5 1_555 1_555
H16_5 C11_5 1_555 1_555
C12_5 C5_5 1_555 1_555
C13_5 C5_5 1_555 1_555
H17_5 C13_5 1_555 1_555
C14_5 N4_3 1_555 1_555
H18_5 C14_5 1_555 1_555
O10_5 Cu1_5 1_555 1_555
O11_5 Cu1_5 1_555 1_555
O12_5 P1_5 1_555 1_555
O14_5 Cu9_5 1_555 1_555
O18_5 P4_5 1_555 1_555
O19_5 Cu1_5 1_555 1_555
P1_5 O11_5 1_555 1_555
C6_5 C12_5 1_555 1_555
P4_5 O14_3 1_555 1_555
P4_5 O19_5 1_555 1_555
C11_5 C12_5 1_555 1_555
C13_5 C14_5 1_555 1_555
O8_5 H20 1_555 1_555
Cu1_6 N1_6 1_555 1_555
P1_6 C1_6 1_555 1_555
P2_4 C2_4 1_555 1_555
N1_6 H1_6 1_555 1_555
N2_4 C3_6 1_555 1_555
C1_6 N1_6 1_555 1_555
H2_4 C8_4 1_555 1_555
H3_4 C8_4 1_555 1_555
C2_4 H4_4 1_555 1_555
H5_4 C2_4 1_555 1_555
C3_6 H6_6 1_555 1_555
C4_6 C3_6 1_555 1_555
H7_6 C4_6 1_555 1_555
C5_6 C4_6 1_555 1_555
C6_6 H8_6 1_555 1_555
C7_6 C6_6 1_555 1_555
H9_6 C7_6 1_555 1_555
O1_4 P1_6 1_555 1_555
O2_4 Cu3_4 1_555 1_555
O4_4 P2_4 1_555 1_555
O5_4 P2_4 1_555 1_555
O6_4 P2_4 1_555 1_555
Cu3_4 N2_4 1_555 1_555
Cu5_4 N5_4 1_555 1_555
Cu9_6 O12_6 1_555 1_555
Cu7_4 O4_4 1_555 1_555
Cu8_4 O5_4 1_555 1_555
P3_4 O2_4 1_555 1_555
P4_6 C9_6 1_555 1_555
N3_4 C2_4 1_555 1_555
H10_4 N3_4 1_555 1_555
N4_6 Cu1_6 1_555 1_555
N5_4 C7_6 1_555 1_555
C8_4 P3_4 1_555 1_555
H11_6 C1_6 1_555 1_555
H12_6 C1_6 1_555 1_555
C9_6 N1_6 1_555 1_555
H13_6 C9_6 1_555 1_555
H14_6 C9_6 1_555 1_555
C10_6 N5_4 1_555 1_555
H15_6 C10_6 1_555 1_555
C11_6 C10_6 1_555 1_555
H16_6 C11_6 1_555 1_555
C12_6 C5_6 1_555 1_555
C13_6 C5_6 1_555 1_555
H17_6 C13_6 1_555 1_555
C14_6 N2_4 1_555 1_555
H18_6 C14_6 1_555 1_555
O10_6 Cu1_6 1_555 1_555
O11_6 Cu1_6 1_555 1_555
O12_6 P1_6 1_555 1_555
O14_6 Cu9_6 1_555 1_555
O15_4 Cu8_4 1_555 1_555
O18_6 P4_6 1_555 1_555
O19_6 Cu1_6 1_555 1_555
P1_6 O11_6 1_555 1_555
C6_6 C12_6 1_555 1_555
O1_4 Cu3_4 1_555 1_555
O6_4 Cu3_4 1_555 1_555
Cu3_4 N3_4 1_555 1_555
P4_6 O15_4 1_555 1_555
P4_6 O19_6 1_555 1_555
N3_4 C8_4 1_555 1_555
C11_6 C12_6 1_555 1_555
C13_6 C14_6 1_555 1_555
Cu8_4 O3_4 1_555 1_555
Cu5_3 O9_4 1_555 1_555
O20_4 Cu8_4 1_555 1_555
O21_4 Cu8_4 1_555 1_555
O8_6 H20_2 1_555 1_555
Cu4_2 N5_5 1_555 1_555
C10_7 N5_5 1_555 1_555
H15_7 C10_7 1_555 1_555
C11_7 C10_7 1_555 1_555
H16_7 C11_7 1_555 1_555
C11_7 C12_7 1_555 1_555
Cu5_4 O9_5 1_555 1_555
Cu7_5 O4_5 1_555 1_555
H17_7 C13_7 1_555 1_555
H18_7 C14_7 1_555 1_555
C13_7 C14_7 1_555 1_555
O20_5 H24_2 1_555 1_555
O21_5 H26 1_555 1_555
C6_7 H8_7 1_555 1_555
C7_7 C6_7 1_555 1_555
H9_7 C7_7 1_555 1_555
Cu7 O3_5 1_555 1_555
P2_5 C2_5 1_555 1_555
N2_5 C3_7 1_555 1_555
H2_5 C8_5 1_555 1_555
C2_5 H4_5 1_555 1_555
H5_5 C2_5 1_555 1_555
C3_7 H6_7 1_555 1_555
C4_7 C3_7 1_555 1_555
H7_7 C4_7 1_555 1_555
C5_7 C4_7 1_555 1_555
O2_5 Cu4 1_555 1_555
O3_5 P3_5 1_555 1_555
O5_5 P2_5 1_555 1_555
O6_5 P2_5 1_555 1_555
Cu4 N2_5 1_555 1_555
P3_5 O2_5 1_555 1_555
N3_5 C2_5 1_555 1_555
C8_5 P3_5 1_555 1_555
O6_5 Cu4 1_555 1_555
Cu4 N3_5 1_555 1_555
N3_5 C8_5 1_555 1_555
Cu9_7 O18_7 1_555 1_555
Cu5 N1_7 1_555 1_555
P1_7 C1_7 1_555 1_555
N1_7 H1_7 1_555 1_555
N4_6 C3_8 1_555 1_555
C1_7 N1_7 1_555 1_555
C3_8 H6_8 1_555 1_555
C4_8 C3_8 1_555 1_555
H7_8 C4_8 1_555 1_555
C5_8 C4_8 1_555 1_555
C6_8 H8_8 1_555 1_555
C7_8 C6_8 1_555 1_555
H9_8 C7_8 1_555 1_555
O10_6 P1_7 1_555 1_555
O7_7 Cu9_7 1_555 1_555
O8_7 Cu9_7 1_555 1_555
Cu9_7 O12_7 1_555 1_555
P4_7 C9_7 1_555 1_555
N4_5 C7_8 1_555 1_555
H11_7 C1_7 1_555 1_555
H12_7 C1_7 1_555 1_555
C9_7 N1_7 1_555 1_555
H13_7 C9_7 1_555 1_555
H14_7 C9_7 1_555 1_555
C10_8 N4_5 1_555 1_555
H15_8 C10_8 1_555 1_555
C11_8 C10_8 1_555 1_555
H16_8 C11_8 1_555 1_555
C12_8 C5_8 1_555 1_555
C13_8 C5_8 1_555 1_555
H17_8 C13_8 1_555 1_555
C14_8 N4_6 1_555 1_555
H18_8 C14_8 1_555 1_555
O10_7 Cu5 1_555 1_555
O11_7 Cu5 1_555 1_555
O12_7 P1_7 1_555 1_555
O14_7 Cu9_7 1_555 1_555
O19_7 Cu5 1_555 1_555
P1_7 O11_7 1_555 1_555
C6_8 C12_8 1_555 1_555
P4_7 O19_7 1_555 1_555
C11_8 C12_8 1_555 1_555
C13_8 C14_8 1_555 1_555
O8_6 H26_2 1_555 1_555
P2_6 C2_6 1_555 1_555
H2_6 C8_6 1_555 1_555
H3_6 C8_6 1_555 1_555
C2_6 H4_6 1_555 1_555
H5_6 C2_6 1_555 1_555
O2_6 Cu5_4 1_555 1_555
O14 P2_6 1_555 1_555
O5_6 P2_6 1_555 1_555
O6_6 P2_6 1_555 1_555
Cu7_5 O5_6 1_555 1_555
P3_6 O2_6 1_555 1_555
N3_6 C2_6 1_555 1_555
H10_6 N3_6 1_555 1_555
C8_6 P3_6 1_555 1_555
O6_6 Cu5_4 1_555 1_555
Cu5_4 N3_6 1_555 1_555
N3_6 C8_6 1_555 1_555
Cu7_5 O3_6 1_555 1_555
O20_6 Cu7_5 1_555 1_555
O21_6 Cu7_5 1_555 1_555
O21_5 H20_3 1_555 1_555
O20_5 H21 1_555 1_555
Cu4_2 N1_8 1_555 1_555
P1_8 C1_8 1_555 1_555
C1_8 N1_8 1_555 1_555
Cu7_2 O12_8 1_555 1_555
P4_8 C9_8 1_555 1_555
H11_8 C1_8 1_555 1_555
C9_8 N1_8 1_555 1_555
H13_8 C9_8 1_555 1_555
H14_8 C9_8 1_555 1_555
O11_8 Cu4_2 1_555 1_555
O12_8 P1_8 1_555 1_555
O18_8 P4_8 1_555 1_555
O19_8 Cu4_2 1_555 1_555
P1_8 O11_8 1_555 1_555
P4_8 O19_8 1_555 1_555
O8_8 H20_4 1_555 1_555
O7_8 H21_2 1_555 1_555
Cu7_3 O18_9 1_555 1_555
Cu5_2 N1_9 1_555 1_555
P1_9 C1_9 1_555 1_555
N1_9 H1_9 1_555 1_555
C1_9 N1_9 1_555 1_555
O10_5 P1_9 1_555 1_555
O7_9 Cu7_3 1_555 1_555
O8_9 Cu7_3 1_555 1_555
Cu7_3 O12_9 1_555 1_555
P4_9 C9_9 1_555 1_555
H11_9 C1_9 1_555 1_555
H12_9 C1_9 1_555 1_555
C9_9 N1_9 1_555 1_555
H13_9 C9_9 1_555 1_555
H14_9 C9_9 1_555 1_555
O11_9 Cu5_2 1_555 1_555
O12_9 P1_9 1_555 1_555
O19_9 Cu5_2 1_555 1_555
P1_9 O11_9 1_555 1_555
P4_9 O19_9 1_555 1_555
O8_5 H26_3 1_555 1_555
O7_8 H24_3 1_555 1_555
O8_8 H26_4 1_555 1_555
O20_3 H21_3 1_555 1_555
Cu7_4 O18_10 1_555 1_555
P4_10 C9_10 1_555 1_555
C9_10 N1_10 1_555 1_555
H13_10 C9_10 1_555 1_555
H14_10 C9_10 1_555 1_555
O18_10 P4_10 1_555 1_555
P4_10 O19_10 1_555 1_555
P1_10 C1_10 1_555 1_555
Cu7_4 O12_10 1_555 1_555
H11_10 C1_10 1_555 1_555
O11_10 Cu5_3 1_555 1_555
O12_10 P1_10 1_555 1_555
P1_10 O11_10 1_555 1_555
O7_10 H21_4 1_555 1_555
O7_10 H24_4 1_555 1_555

#END
