
###############################################################################
#
# This file contains modified crystal structure data generated from the
# MOF subset of the Cambridge Structural Database (CSD) v543 
# hosted by the Cambridge Crystallographic Data Centre (CCDC).
#
# This work is licensed under the Creative Commons
# Attribution-NonCommercial-ShareAlike 4.0 International License.
# To view a copy of this license, visit
# http://creativecommons.org/licenses/by-nc-sa/4.0/
# or send a letter to
# Creative Commons, PO Box 1866, Mountain View, CA 94042, USA.
#
# CIF created using the CSD Python API on 29 September 2022
# The structure has been converted into the P1 space group
# The structure has a 3D framework
# The original CSD entry HEBFUS is in the trigonal crystal system
# The framework has been calculated to contain at least 10.0% void space
# The void calculation uses a probe of radius 1.32A, grid spacing 0.4
#
###############################################################################

data_HEBFUS
_chemical_formula_moiety         '(C264 H228 N24 Ni16 O84)n'
_symmetry_cell_setting           triclinic
_symmetry_space_group_name_H-M   'P 1'
_symmetry_Int_Tables_number      1
_space_group_name_Hall           'P 1'
loop_
_symmetry_equiv_pos_site_id
_symmetry_equiv_pos_as_xyz
1 x,y,z
_cell_length_a                   19.403(2)
_cell_length_b                   19.403(2)
_cell_length_c                   21.606(5)
_cell_angle_alpha                90
_cell_angle_beta                 90
_cell_angle_gamma                120
_cell_volume                     7044.38
loop_
_atom_site_label
_atom_site_type_symbol
_atom_site_fract_x
_atom_site_fract_y
_atom_site_fract_z
Ni2 Ni 0.3333 0.6667 0.33690(6)
Ni3 Ni 0.0000 0.0000 0.2500
O2 O 0.0680(4) 0.1213(4) 0.3095(3)
O3 O 0.0466(3) 0.1949(3) 0.4578(2)
O4 O 0.1695(3) 0.2720(3) 0.4909(2)
O5 O 0.2832(4) 0.5452(3) 0.3864(3)
O6 O 0.2742(4) 0.5470(4) 0.2855(3)
C1 C 0.0455(4) 0.1688(5) 0.3277(3)
C2 C 0.1165(4) 0.2506(4) 0.4512(3)
C3 C 0.2582(5) 0.5077(5) 0.3354(4)
C4 C 0.1080(4) 0.2557(5) 0.3338(3)
C5 C 0.1392(4) 0.2959(4) 0.3901(3)
C6 C 0.1906(4) 0.3763(4) 0.3902(3)
H1 H 0.2122 0.4020 0.4275
C7 C 0.2114(4) 0.4209(4) 0.3354(3)
C8 C 0.1836(5) 0.3795(5) 0.2802(3)
H2 H 0.1997 0.4074 0.2431
C9 C 0.1336(4) 0.2995(5) 0.2787(3)
H3 H 0.1162 0.2737 0.2409
H64 H 0.3154 0.0235 0.6889
H65 H 0.4390 0.0143 0.6967
C82 C 0.4721(4) 0.0504(5) 0.6067(4)
H67 H 0.4632 0.0235 0.5671
H68 H 0.4506 0.0859 0.6040
C83 C 0.5628(4) 0.1004(5) 0.6183(4)
H69 H 0.5720 0.1209 0.6603
H70 H 0.5857 0.1455 0.5903
C84 C 0.6037(4) 0.0520(4) 0.6091(3)
C85 C 0.6215(5) 0.0166(5) 0.6570(3)
H71 H 0.6055 0.0193 0.6970
C87 C 0.6676(4) 0.0024(4) 0.5423(3)
C88 C 0.6271(4) 0.0426(5) 0.5506(4)
H74 H 0.6151 0.0639 0.5165
Ni15 Ni 0.16357(5) 0.22768(7) 0.57905(4)
Ni23 Ni -0.0000 0.0000 0.7500
O44 O 0.1213(4) 0.0680(4) 0.1905(3)
O52 O 0.4548(3) 0.7380(5) 0.3864(3)
O53 O 0.2620(5) 0.7168(4) 0.3864(3)
O56 O 0.4530(4) 0.7272(6) 0.2855(3)
O57 O 0.2728(6) 0.7258(4) 0.2855(3)
Ni3_2 Ni -0.0000 1.0000 0.2500
H26 H 0.0235 0.7081 0.3111
H27 H 0.0143 0.5753 0.3033
C38 C 0.0504(5) 0.5783(6) 0.3933(4)
H29 H 0.0235 0.5603 0.4329
H30 H 0.0859 0.6353 0.3960
C39 C 0.1004(5) 0.5376(6) 0.3817(4)
H31 H 0.1209 0.5489 0.3397
H32 H 0.1455 0.5598 0.4097
C40 C 0.0520(4) 0.4483(6) 0.3909(3)
C41 C 0.0166(5) 0.3951(7) 0.3430(3)
H33 H 0.0193 0.4138 0.3030
C43 C 0.0024(4) 0.3348(6) 0.4577(3)
C44 C 0.0426(5) 0.4155(6) 0.4494(4)
H36 H 0.0639 0.4488 0.4835
Ni7 Ni 0.06411(5) 0.83643(5) 0.57905(4)
O22 O 0.0247(3) 0.8497(3) 0.6645(2)
N7 N 0.1779(3) 0.8785(3) 0.6132(3)
N8 N 0.6871(3) 0.9704(3) 0.5899(3)
C76 C 0.3004(5) 0.8774(5) 0.6102(4)
H61 H 0.3282 0.8522 0.5980
C77 C 0.2216(4) 0.8455(5) 0.5942(4)
H62 H 0.1976 0.8000 0.5697
C78 C 0.2137(4) 0.9436(4) 0.6476(3)
H63 H 0.1845 0.9668 0.6611
C79 C 0.2929(4) 0.9783(4) 0.6640(3)
C80 C 0.3386(4) 0.9475(5) 0.6446(4)
C81 C 0.4273(5) 0.9886(6) 0.6565(4)
H66 H 0.4446 0.9496 0.6567
C86 C 0.6627(4) 0.9773(5) 0.6461(3)
H72 H 0.6741 0.9544 0.6795
H73 H 0.6823 0.9969 0.5025
O28 O 0.0844(3) 0.9520(3) 0.5659(2)
H75 H 0.1062 0.9876 0.5936
H76 H 0.1155 0.9647 0.5350
O29 O 0.1503(3) 0.1750(4) 0.6645(2)
O30 O 0.1213(4) 0.0533(6) 0.6905(3)
O31 O 0.1949(3) 0.1483(4) 0.5422(2)
O32 O 0.2720(3) 0.1025(4) 0.5091(2)
O33 O 0.5452(3) 0.2620(5) 0.6136(3)
O34 O 0.5470(4) 0.2728(6) 0.7145(3)
C89 C 0.1688(5) 0.1233(6) 0.6723(3)
C90 C 0.2506(4) 0.1341(6) 0.5488(3)
C91 C 0.5077(5) 0.2495(7) 0.6646(4)
C92 C 0.2557(5) 0.1477(6) 0.6662(3)
C93 C 0.2959(4) 0.1567(6) 0.6099(3)
C94 C 0.3763(4) 0.1857(6) 0.6098(3)
H77 H 0.4020 0.1898 0.5725
C95 C 0.4209(4) 0.2095(6) 0.6646(3)
C96 C 0.3795(5) 0.1959(7) 0.7198(3)
H78 H 0.4074 0.2077 0.7569
C97 C 0.2995(5) 0.1659(6) 0.7213(3)
H79 H 0.2737 0.1575 0.7591
N9 N 0.1215(3) 0.2994(4) 0.6132(3)
N10 N 0.0296(3) 0.7167(4) 0.5899(3)
C98 C 0.1226(5) 0.4230(7) 0.6102(4)
H80 H 0.1478 0.4760 0.5980
C99 C 0.1545(5) 0.3761(6) 0.5942(4)
H81 H 0.2000 0.3976 0.5697
C100 C 0.0564(4) 0.2701(6) 0.6476(3)
H82 H 0.0332 0.2177 0.6611
C101 C 0.0217(4) 0.3146(6) 0.6640(3)
C102 C 0.0525(5) 0.3911(6) 0.6446(4)
C103 C 0.0114(6) 0.4387(8) 0.6565(4)
H85 H 0.0504 0.4950 0.6567
C108 C 0.0227(5) 0.6854(6) 0.6461(3)
H91 H 0.0456 0.7197 0.6795
H92 H 0.0031 0.6854 0.5025
O35 O 0.0480(3) 0.1324(4) 0.5659(2)
H94 H 0.0124 0.1186 0.5936
H95 H 0.0353 0.1508 0.5350
Ni12 Ni 0.22768(7) 0.06411(5) 0.42095(4)
Ni16 Ni 0.77232(7) 0.93589(5) 0.57905(4)
Ni20 Ni 0.6667 0.3333 0.66310(6)
Ni23_2 Ni -0.0000 1.0000 0.7500
O43 O 0.0533(6) 0.9320(4) 0.3095(3)
O48 O 0.1025(4) 0.8305(3) 0.4909(2)
N16 N 0.2833(4) 0.3129(3) 0.5899(3)
Ni1 Ni 0.93589(5) 0.16357(5) 0.42095(4)
Ni3_3 Ni 1.0000 0.0000 0.2500
O1 O 0.9753(3) 0.1503(3) 0.3355(2)
N1 N 0.8221(3) 0.1215(3) 0.3868(3)
N2 N 0.3129(3) 0.0296(3) 0.4101(3)
C10 C 0.6996(5) 0.1226(5) 0.3898(4)
H4 H 0.6718 0.1478 0.4020
C11 C 0.7784(4) 0.1545(5) 0.4058(4)
H5 H 0.8024 0.2000 0.4303
C12 C 0.7863(4) 0.0564(4) 0.3524(3)
H6 H 0.8155 0.0332 0.3389
C13 C 0.7071(4) 0.0217(4) 0.3360(3)
C14 C 0.6614(4) 0.0525(5) 0.3554(4)
C15 C 0.5727(5) 0.0114(6) 0.3435(4)
H9 H 0.5554 0.0504 0.3433
C20 C 0.3373(4) 0.0227(5) 0.3539(3)
H15 H 0.3259 0.0456 0.3205
H16 H 0.3177 0.0031 0.4975
O7 O 0.9156(3) 0.0480(3) 0.4341(2)
H18 H 0.8938 0.0124 0.4064
H19 H 0.8845 0.0353 0.4650
O37 O 0.9467(6) 0.0680(4) 0.6905(3)
O38 O 0.8517(4) 0.0466(3) 0.5422(2)
O39 O 0.8975(4) 0.1695(3) 0.5091(2)
O40 O 0.7380(5) 0.2832(4) 0.6136(3)
O41 O 0.7272(6) 0.2742(4) 0.7145(3)
C111 C 0.8767(6) 0.0455(4) 0.6723(3)
C112 C 0.8659(6) 0.1165(4) 0.5488(3)
C113 C 0.7505(7) 0.2582(5) 0.6646(4)
C114 C 0.8523(6) 0.1080(4) 0.6662(3)
C115 C 0.8433(6) 0.1392(4) 0.6099(3)
C116 C 0.8143(6) 0.1906(4) 0.6098(3)
H96 H 0.8102 0.2122 0.5725
C117 C 0.7905(6) 0.2114(4) 0.6646(3)
C118 C 0.8041(7) 0.1836(5) 0.7198(3)
H97 H 0.7923 0.1997 0.7569
C119 C 0.8341(6) 0.1336(4) 0.7213(3)
H98 H 0.8425 0.1162 0.7591
Ni23_3 Ni 1.0000 0.0000 0.7500
O46 O 0.9320(4) 0.0533(6) 0.1905(3)
N14 N 0.9704(3) 0.2833(4) 0.4101(3)
Ni3_4 Ni 1.0000 1.0000 0.2500
H7 H 0.6846 0.9765 0.3111
H8 H 0.5610 0.9857 0.3033
C16 C 0.5279(4) 0.9496(5) 0.3933(4)
H10 H 0.5368 0.9765 0.4329
H11 H 0.5494 0.9141 0.3960
C17 C 0.4372(4) 0.8996(5) 0.3817(4)
H12 H 0.4280 0.8791 0.3397
H13 H 0.4143 0.8545 0.4097
C18 C 0.3963(4) 0.9480(4) 0.3909(3)
C19 C 0.3785(5) 0.9834(5) 0.3430(3)
H14 H 0.3945 0.9807 0.3030
C21 C 0.3324(4) 0.9976(4) 0.4577(3)
C22 C 0.3729(4) 0.9574(5) 0.4494(4)
H17 H 0.3849 0.9361 0.4835
Ni4 Ni 0.83643(5) 0.77232(7) 0.42095(4)
O8 O 0.8497(3) 0.8250(4) 0.3355(2)
O9 O 0.8787(4) 0.9467(6) 0.3095(3)
O10 O 0.8051(3) 0.8517(4) 0.4578(2)
O11 O 0.7280(3) 0.8975(4) 0.4909(2)
C23 C 0.8312(5) 0.8767(6) 0.3277(3)
C24 C 0.7494(4) 0.8659(6) 0.4512(3)
C25 C 0.4923(5) 0.7505(7) 0.3354(4)
C26 C 0.7443(5) 0.8523(6) 0.3338(3)
C27 C 0.7041(4) 0.8433(6) 0.3901(3)
C28 C 0.6237(4) 0.8143(6) 0.3902(3)
H20 H 0.5980 0.8102 0.4275
C29 C 0.5791(4) 0.7905(6) 0.3354(3)
C30 C 0.6205(5) 0.8041(7) 0.2802(3)
H21 H 0.5926 0.7923 0.2431
C31 C 0.7005(5) 0.8341(6) 0.2787(3)
H22 H 0.7263 0.8425 0.2409
N3 N 0.8785(3) 0.7006(4) 0.3868(3)
C32 C 0.8774(5) 0.5770(7) 0.3898(4)
H23 H 0.8522 0.5240 0.4020
C33 C 0.8455(5) 0.6239(6) 0.4058(4)
H24 H 0.8000 0.6024 0.4303
C34 C 0.9436(4) 0.7299(6) 0.3524(3)
H25 H 0.9668 0.7823 0.3389
C35 C 0.9783(4) 0.6854(6) 0.3360(3)
C36 C 0.9475(5) 0.6089(6) 0.3554(4)
C37 C 0.9886(6) 0.5613(8) 0.3435(4)
H28 H 0.9496 0.5050 0.3433
C42 C 0.9773(5) 0.3146(6) 0.3539(3)
H34 H 0.9544 0.2803 0.3205
H35 H 0.9969 0.3146 0.4975
O14 O 0.9520(3) 0.8676(4) 0.4341(2)
H37 H 0.9876 0.8814 0.4064
H38 H 0.9647 0.8492 0.4650
O15 O 0.1750(4) 0.0247(3) 0.3355(2)
N5 N 0.2994(4) 0.1779(3) 0.3868(3)
N6 N 0.7167(4) 0.6871(3) 0.4101(3)
C54 C 0.4230(7) 0.3004(5) 0.3898(4)
H42 H 0.4760 0.3282 0.4020
C55 C 0.3761(6) 0.2216(4) 0.4058(4)
H43 H 0.3976 0.1976 0.4303
C56 C 0.2701(6) 0.2137(4) 0.3524(3)
H44 H 0.2177 0.1845 0.3389
C57 C 0.3146(6) 0.2929(4) 0.3360(3)
H45 H 0.2919 0.3154 0.3111
C58 C 0.3911(6) 0.3386(4) 0.3554(4)
C59 C 0.4387(8) 0.4273(5) 0.3435(4)
H46 H 0.4247 0.4390 0.3033
H47 H 0.4950 0.4446 0.3433
C60 C 0.4217(6) 0.4721(4) 0.3933(4)
H48 H 0.4397 0.4632 0.4329
H49 H 0.3647 0.4506 0.3960
C61 C 0.4624(6) 0.5628(4) 0.3817(4)
H50 H 0.4511 0.5720 0.3397
H51 H 0.4402 0.5857 0.4097
C62 C 0.5517(6) 0.6037(4) 0.3909(3)
C63 C 0.6049(7) 0.6215(5) 0.3430(3)
H52 H 0.5862 0.6055 0.3030
C64 C 0.6854(6) 0.6627(4) 0.3539(3)
H53 H 0.7197 0.6741 0.3205
C65 C 0.6652(6) 0.6676(4) 0.4577(3)
H54 H 0.6854 0.6823 0.4975
C66 C 0.5845(6) 0.6271(4) 0.4494(4)
H55 H 0.5512 0.6151 0.4835
O21 O 0.1324(4) 0.0844(3) 0.4341(2)
H56 H 0.1186 0.1062 0.4064
H57 H 0.1508 0.1155 0.4650
O23 O 0.9320(4) 0.8787(4) 0.6905(3)
O24 O 0.9534(3) 0.8051(3) 0.5422(2)
O25 O 0.8305(3) 0.7280(3) 0.5091(2)
O26 O 0.7168(4) 0.4548(3) 0.6136(3)
O27 O 0.7258(4) 0.4530(4) 0.7145(3)
C67 C 0.9545(4) 0.8312(5) 0.6723(3)
C68 C 0.8835(4) 0.7494(4) 0.5488(3)
C69 C 0.7418(5) 0.4923(5) 0.6646(4)
C70 C 0.8920(4) 0.7443(5) 0.6662(3)
C71 C 0.8608(4) 0.7041(4) 0.6099(3)
C72 C 0.8094(4) 0.6237(4) 0.6098(3)
H58 H 0.7878 0.5980 0.5725
C73 C 0.7886(4) 0.5791(4) 0.6646(3)
C74 C 0.8164(5) 0.6205(5) 0.7198(3)
H59 H 0.8003 0.5926 0.7569
C75 C 0.8664(4) 0.7005(5) 0.7213(3)
H60 H 0.8838 0.7263 0.7591
H83 H 0.9765 0.2919 0.6889
H84 H 0.9857 0.4247 0.6967
C104 C 0.9496(5) 0.4217(6) 0.6067(4)
H86 H 0.9765 0.4397 0.5671
H87 H 0.9141 0.3647 0.6040
C105 C 0.8996(5) 0.4624(6) 0.6183(4)
H88 H 0.8791 0.4511 0.6603
H89 H 0.8545 0.4402 0.5903
C106 C 0.9480(4) 0.5517(6) 0.6091(3)
C107 C 0.9834(5) 0.6049(7) 0.6570(3)
H90 H 0.9807 0.5862 0.6970
C109 C 0.9976(4) 0.6652(6) 0.5423(3)
C110 C 0.9574(5) 0.5845(6) 0.5506(4)
H93 H 0.9361 0.5512 0.5165
O36 O 0.8250(4) 0.9753(3) 0.6645(2)
N11 N 0.7006(4) 0.8221(3) 0.6132(3)
C120 C 0.5770(7) 0.6996(5) 0.6102(4)
H99 H 0.5240 0.6718 0.5980
C121 C 0.6239(6) 0.7784(4) 0.5942(4)
H100 H 0.6024 0.8024 0.5697
C122 C 0.7299(6) 0.7863(4) 0.6476(3)
H101 H 0.7823 0.8155 0.6611
C123 C 0.6854(6) 0.7071(4) 0.6640(3)
H102 H 0.7081 0.6846 0.6889
C124 C 0.6089(6) 0.6614(4) 0.6446(4)
C125 C 0.5613(8) 0.5727(5) 0.6565(4)
H103 H 0.5753 0.5610 0.6967
H104 H 0.5050 0.5554 0.6567
C126 C 0.5783(6) 0.5279(4) 0.6067(4)
H105 H 0.5603 0.5368 0.5671
H106 H 0.6353 0.5494 0.6040
C127 C 0.5376(6) 0.4372(4) 0.6183(4)
H107 H 0.5489 0.4280 0.6603
H108 H 0.5598 0.4143 0.5903
C128 C 0.4483(6) 0.3963(4) 0.6091(3)
C129 C 0.3951(7) 0.3785(5) 0.6570(3)
H109 H 0.4138 0.3945 0.6970
C130 C 0.3146(6) 0.3373(4) 0.6461(3)
H110 H 0.2803 0.3259 0.6795
C131 C 0.3348(6) 0.3324(4) 0.5423(3)
H111 H 0.3146 0.3177 0.5025
C132 C 0.4155(6) 0.3729(4) 0.5506(4)
H112 H 0.4488 0.3849 0.5165
O42 O 0.8676(4) 0.9156(3) 0.5659(2)
H113 H 0.8814 0.8938 0.5936
H114 H 0.8492 0.8845 0.5350
Ni23_4 Ni 1.0000 1.0000 0.7500
O45 O 0.9467(6) 0.8787(4) 0.1905(3)
O17 O 0.1483(4) 0.9534(3) 0.4578(2)
C45 C 0.1233(6) 0.9545(4) 0.3277(3)
C46 C 0.1341(6) 0.8835(4) 0.4512(3)
C47 C 0.2495(7) 0.7418(5) 0.3354(4)
C48 C 0.1477(6) 0.8920(4) 0.3338(3)
C49 C 0.1567(6) 0.8608(4) 0.3901(3)
C50 C 0.1857(6) 0.8094(4) 0.3902(3)
H39 H 0.1898 0.7878 0.4275
C51 C 0.2095(6) 0.7886(4) 0.3354(3)
C52 C 0.1959(7) 0.8164(5) 0.2802(3)
H40 H 0.2077 0.8003 0.2431
C53 C 0.1659(6) 0.8664(4) 0.2787(3)
H41 H 0.1575 0.8838 0.2409
Ni2_2 Ni 0.6667 0.3333 0.16310(6)
O3_2 O 0.1949(3) 0.0466(3) 0.0422(2)
O4_2 O 0.2720(3) 0.1695(3) 0.0091(2)
O5_2 O 0.5452(3) 0.2832(4) 0.1136(3)
O6_2 O 0.5470(4) 0.2742(4) 0.2145(3)
C1_2 C 0.1688(5) 0.0455(4) 0.1723(3)
C2_2 C 0.2506(4) 0.1165(4) 0.0488(3)
C3_2 C 0.5077(5) 0.2582(5) 0.1646(4)
C4_2 C 0.2557(5) 0.1080(4) 0.1662(3)
C5_2 C 0.2959(4) 0.1392(4) 0.1099(3)
C6_2 C 0.3763(4) 0.1906(4) 0.1098(3)
H1_2 H 0.4020 0.2122 0.0725
C7_2 C 0.4209(4) 0.2114(4) 0.1646(3)
C8_2 C 0.3795(5) 0.1836(5) 0.2198(3)
H2_2 H 0.4074 0.1997 0.2569
C9_2 C 0.2995(5) 0.1336(4) 0.2213(3)
H3_2 H 0.2737 0.1162 0.2591
O52_2 O 0.7380(5) 0.4548(3) 0.1136(3)
O53_2 O 0.7168(4) 0.2620(5) 0.1136(3)
O56_2 O 0.7272(6) 0.4530(4) 0.2145(3)
O57_2 O 0.7258(4) 0.2728(6) 0.2145(3)
H64_2 H 0.0235 0.3154 0.8111
H65_2 H 0.0143 0.4390 0.8033
C82_2 C 0.0504(5) 0.4721(4) 0.8933(4)
H67_2 H 0.0235 0.4632 0.9329
H68_2 H 0.0859 0.4506 0.8960
C83_2 C 0.1004(5) 0.5628(4) 0.8817(4)
H69_2 H 0.1209 0.5720 0.8397
H70_2 H 0.1455 0.5857 0.9097
C84_2 C 0.0520(4) 0.6037(4) 0.8909(3)
C85_2 C 0.0166(5) 0.6215(5) 0.8430(3)
H71_2 H 0.0193 0.6055 0.8030
C87_2 C 0.0024(4) 0.6676(4) 0.9577(3)
C88_2 C 0.0426(5) 0.6271(4) 0.9494(4)
H74_2 H 0.0639 0.6151 0.9835
Ni15_2 Ni 0.22768(7) 0.16357(5) 0.92095(4)
Ni1_2 Ni 0.16357(5) 0.93589(5) 0.07905(4)
O1_2 O 0.1503(3) 0.9753(3) 0.1645(2)
N1_2 N 0.1215(3) 0.8221(3) 0.1132(3)
N2_2 N 0.0296(3) 0.3129(3) 0.0899(3)
C10_2 C 0.1226(5) 0.6996(5) 0.1102(4)
H4_2 H 0.1478 0.6718 0.0980
C11_2 C 0.1545(5) 0.7784(4) 0.0942(4)
H5_2 H 0.2000 0.8024 0.0697
C12_2 C 0.0564(4) 0.7863(4) 0.1476(3)
H6_2 H 0.0332 0.8155 0.1611
C13_2 C 0.0217(4) 0.7071(4) 0.1640(3)
C14_2 C 0.0525(5) 0.6614(4) 0.1446(4)
C15_2 C 0.0114(6) 0.5727(5) 0.1565(4)
H9_2 H 0.0504 0.5554 0.1567
C20_2 C 0.0227(5) 0.3373(4) 0.1461(3)
H15_2 H 0.0456 0.3259 0.1795
H16_2 H 0.0031 0.3177 0.0025
O7_2 O 0.0480(3) 0.9156(3) 0.0659(2)
H18_2 H 0.0124 0.8938 0.0936
H19_2 H 0.0353 0.8845 0.0350
Ni11 Ni 0.06411(5) 0.22768(7) 0.07905(4)
N14_2 N 0.2833(4) 0.9704(3) 0.0899(3)
O37_2 O 0.0680(4) 0.9467(6) 0.8095(3)
O38_2 O 0.0466(3) 0.8517(4) 0.9578(2)
O39_2 O 0.1695(3) 0.8975(4) 0.9909(2)
O40_2 O 0.2832(4) 0.7380(5) 0.8864(3)
O41_2 O 0.2742(4) 0.7272(6) 0.7855(3)
C111_2 C 0.0455(4) 0.8767(6) 0.8277(3)
C112_2 C 0.1165(4) 0.8659(6) 0.9512(3)
C113_2 C 0.2582(5) 0.7505(7) 0.8354(4)
C114_2 C 0.1080(4) 0.8523(6) 0.8338(3)
C115_2 C 0.1392(4) 0.8433(6) 0.8901(3)
C116_2 C 0.1906(4) 0.8143(6) 0.8902(3)
H96_2 H 0.2122 0.8102 0.9275
C117_2 C 0.2114(4) 0.7905(6) 0.8354(3)
C118_2 C 0.1836(5) 0.8041(7) 0.7802(3)
H97_2 H 0.1997 0.7923 0.7431
C119_2 C 0.1336(4) 0.8341(6) 0.7787(3)
H98_2 H 0.1162 0.8425 0.7409
Ni19 Ni 0.3333 0.6667 0.83690(6)
H26_2 H 0.7081 0.0235 0.1889
H27_2 H 0.5753 0.0143 0.1967
C38_2 C 0.5783(6) 0.0504(5) 0.1067(4)
H29_2 H 0.5603 0.0235 0.0671
H30_2 H 0.6353 0.0859 0.1040
C39_2 C 0.5376(6) 0.1004(5) 0.1183(4)
H31_2 H 0.5489 0.1209 0.1603
H32_2 H 0.5598 0.1455 0.0903
C40_2 C 0.4483(6) 0.0520(4) 0.1091(3)
C41_2 C 0.3951(7) 0.0166(5) 0.1570(3)
H33_2 H 0.4138 0.0193 0.1970
C43_2 C 0.3348(6) 0.0024(4) 0.0423(3)
C44_2 C 0.4155(6) 0.0426(5) 0.0506(4)
H36_2 H 0.4488 0.0639 0.0165
O48_2 O 0.8305(3) 0.1025(4) 0.0091(2)
Ni7_2 Ni 0.83643(5) 0.06411(5) 0.92095(4)
O22_2 O 0.8497(3) 0.0247(3) 0.8355(2)
N7_2 N 0.8785(3) 0.1779(3) 0.8868(3)
N8_2 N 0.9704(3) 0.6871(3) 0.9101(3)
C76_2 C 0.8774(5) 0.3004(5) 0.8898(4)
H61_2 H 0.8522 0.3282 0.9020
C77_2 C 0.8455(5) 0.2216(4) 0.9058(4)
H62_2 H 0.8000 0.1976 0.9303
C78_2 C 0.9436(4) 0.2137(4) 0.8524(3)
H63_2 H 0.9668 0.1845 0.8389
C79_2 C 0.9783(4) 0.2929(4) 0.8360(3)
C80_2 C 0.9475(5) 0.3386(4) 0.8554(4)
C81_2 C 0.9886(6) 0.4273(5) 0.8435(4)
H66_2 H 0.9496 0.4446 0.8433
C86_2 C 0.9773(5) 0.6627(4) 0.8539(3)
H72_2 H 0.9544 0.6741 0.8205
H73_2 H 0.9969 0.6823 0.9975
O28_2 O 0.9520(3) 0.0844(3) 0.9341(2)
H75_2 H 0.9876 0.1062 0.9064
H76_2 H 0.9647 0.1155 0.9650
O29_2 O 0.1750(4) 0.1503(3) 0.8355(2)
O30_2 O 0.0533(6) 0.1213(4) 0.8095(3)
O31_2 O 0.1483(4) 0.1949(3) 0.9578(2)
O32_2 O 0.1025(4) 0.2720(3) 0.9909(2)
O33_2 O 0.2620(5) 0.5452(3) 0.8864(3)
O34_2 O 0.2728(6) 0.5470(4) 0.7855(3)
C89_2 C 0.1233(6) 0.1688(5) 0.8277(3)
C90_2 C 0.1341(6) 0.2506(4) 0.9512(3)
C91_2 C 0.2495(7) 0.5077(5) 0.8354(4)
C92_2 C 0.1477(6) 0.2557(5) 0.8338(3)
C93_2 C 0.1567(6) 0.2959(4) 0.8901(3)
C94_2 C 0.1857(6) 0.3763(4) 0.8902(3)
H77_2 H 0.1898 0.4020 0.9275
C95_2 C 0.2095(6) 0.4209(4) 0.8354(3)
C96_2 C 0.1959(7) 0.3795(5) 0.7802(3)
H78_2 H 0.2077 0.4074 0.7431
C97_2 C 0.1659(6) 0.2995(5) 0.7787(3)
H79_2 H 0.1575 0.2737 0.7409
N9_2 N 0.2994(4) 0.1215(3) 0.8868(3)
N10_2 N 0.7167(4) 0.0296(3) 0.9101(3)
C98_2 C 0.4230(7) 0.1226(5) 0.8898(4)
H80_2 H 0.4760 0.1478 0.9020
C99_2 C 0.3761(6) 0.1545(5) 0.9058(4)
H81_2 H 0.3976 0.2000 0.9303
C100_2 C 0.2701(6) 0.0564(4) 0.8524(3)
H82_2 H 0.2177 0.0332 0.8389
C101_2 C 0.3146(6) 0.0217(4) 0.8360(3)
C102_2 C 0.3911(6) 0.0525(5) 0.8554(4)
C103_2 C 0.4387(8) 0.0114(6) 0.8435(4)
H85_2 H 0.4950 0.0504 0.8433
C108_2 C 0.6854(6) 0.0227(5) 0.8539(3)
H91_2 H 0.7197 0.0456 0.8205
H92_2 H 0.6854 0.0031 0.9975
O35_2 O 0.1324(4) 0.0480(3) 0.9341(2)
H94_2 H 0.1186 0.0124 0.9064
H95_2 H 0.1508 0.0353 0.9650
Ni16_2 Ni 0.93589(5) 0.77232(7) 0.92095(4)
N16_2 N 0.3129(3) 0.2833(4) 0.9101(3)
H7_2 H 0.9765 0.6846 0.1889
H8_2 H 0.9857 0.5610 0.1967
C16_2 C 0.9496(5) 0.5279(4) 0.1067(4)
H10_2 H 0.9765 0.5368 0.0671
H11_2 H 0.9141 0.5494 0.1040
C17_2 C 0.8996(5) 0.4372(4) 0.1183(4)
H12_2 H 0.8791 0.4280 0.1603
H13_2 H 0.8545 0.4143 0.0903
C18_2 C 0.9480(4) 0.3963(4) 0.1091(3)
C19_2 C 0.9834(5) 0.3785(5) 0.1570(3)
H14_2 H 0.9807 0.3945 0.1970
C21_2 C 0.9976(4) 0.3324(4) 0.0423(3)
C22_2 C 0.9574(5) 0.3729(4) 0.0506(4)
H17_2 H 0.9361 0.3849 0.0165
Ni4_2 Ni 0.77232(7) 0.83643(5) 0.07905(4)
O8_2 O 0.8250(4) 0.8497(3) 0.1645(2)
O10_2 O 0.8517(4) 0.8051(3) 0.0422(2)
O11_2 O 0.8975(4) 0.7280(3) 0.0091(2)
C23_2 C 0.8767(6) 0.8312(5) 0.1723(3)
C24_2 C 0.8659(6) 0.7494(4) 0.0488(3)
C25_2 C 0.7505(7) 0.4923(5) 0.1646(4)
C26_2 C 0.8523(6) 0.7443(5) 0.1662(3)
C27_2 C 0.8433(6) 0.7041(4) 0.1099(3)
C28_2 C 0.8143(6) 0.6237(4) 0.1098(3)
H20_2 H 0.8102 0.5980 0.0725
C29_2 C 0.7905(6) 0.5791(4) 0.1646(3)
C30_2 C 0.8041(7) 0.6205(5) 0.2198(3)
H21_2 H 0.7923 0.5926 0.2569
C31_2 C 0.8341(6) 0.7005(5) 0.2213(3)
H22_2 H 0.8425 0.7263 0.2591
N3_2 N 0.7006(4) 0.8785(3) 0.1132(3)
C32_2 C 0.5770(7) 0.8774(5) 0.1102(4)
H23_2 H 0.5240 0.8522 0.0980
C33_2 C 0.6239(6) 0.8455(5) 0.0942(4)
H24_2 H 0.6024 0.8000 0.0697
C34_2 C 0.7299(6) 0.9436(4) 0.1476(3)
H25_2 H 0.7823 0.9668 0.1611
C35_2 C 0.6854(6) 0.9783(4) 0.1640(3)
C36_2 C 0.6089(6) 0.9475(5) 0.1446(4)
C37_2 C 0.5613(8) 0.9886(6) 0.1565(4)
H28_2 H 0.5050 0.9496 0.1567
C42_2 C 0.3146(6) 0.9773(5) 0.1461(3)
H34_2 H 0.2803 0.9544 0.1795
H35_2 H 0.3146 0.9969 0.0025
O14_2 O 0.8676(4) 0.9520(3) 0.0659(2)
H37_2 H 0.8814 0.9876 0.0936
H38_2 H 0.8492 0.9647 0.0350
O15_2 O 0.0247(3) 0.1750(4) 0.1645(2)
N5_2 N 0.1779(3) 0.2994(4) 0.1132(3)
N6_2 N 0.6871(3) 0.7167(4) 0.0899(3)
C54_2 C 0.3004(5) 0.4230(7) 0.1102(4)
H42_2 H 0.3282 0.4760 0.0980
C55_2 C 0.2216(4) 0.3761(6) 0.0942(4)
H43_2 H 0.1976 0.3976 0.0697
C56_2 C 0.2137(4) 0.2701(6) 0.1476(3)
H44_2 H 0.1845 0.2177 0.1611
C57_2 C 0.2929(4) 0.3146(6) 0.1640(3)
H45_2 H 0.3154 0.2919 0.1889
C58_2 C 0.3386(4) 0.3911(6) 0.1446(4)
C59_2 C 0.4273(5) 0.4387(8) 0.1565(4)
H46_2 H 0.4390 0.4247 0.1967
H47_2 H 0.4446 0.4950 0.1567
C60_2 C 0.4721(4) 0.4217(6) 0.1067(4)
H48_2 H 0.4632 0.4397 0.0671
H49_2 H 0.4506 0.3647 0.1040
C61_2 C 0.5628(4) 0.4624(6) 0.1183(4)
H50_2 H 0.5720 0.4511 0.1603
H51_2 H 0.5857 0.4402 0.0903
C62_2 C 0.6037(4) 0.5517(6) 0.1091(3)
C63_2 C 0.6215(5) 0.6049(7) 0.1570(3)
H52_2 H 0.6055 0.5862 0.1970
C64_2 C 0.6627(4) 0.6854(6) 0.1461(3)
H53_2 H 0.6741 0.7197 0.1795
C65_2 C 0.6676(4) 0.6652(6) 0.0423(3)
H54_2 H 0.6823 0.6854 0.0025
C66_2 C 0.6271(4) 0.5845(6) 0.0506(4)
H55_2 H 0.6151 0.5512 0.0165
O21_2 O 0.0844(3) 0.1324(4) 0.0659(2)
H56_2 H 0.1062 0.1186 0.0936
H57_2 H 0.1155 0.1508 0.0350
O23_2 O 0.8787(4) 0.9320(4) 0.8095(3)
O24_2 O 0.8051(3) 0.9534(3) 0.9578(2)
O25_2 O 0.7280(3) 0.8305(3) 0.9909(2)
O26_2 O 0.4548(3) 0.7168(4) 0.8864(3)
O27_2 O 0.4530(4) 0.7258(4) 0.7855(3)
C67_2 C 0.8312(5) 0.9545(4) 0.8277(3)
C68_2 C 0.7494(4) 0.8835(4) 0.9512(3)
C69_2 C 0.4923(5) 0.7418(5) 0.8354(4)
C70_2 C 0.7443(5) 0.8920(4) 0.8338(3)
C71_2 C 0.7041(4) 0.8608(4) 0.8901(3)
C72_2 C 0.6237(4) 0.8094(4) 0.8902(3)
H58_2 H 0.5980 0.7878 0.9275
C73_2 C 0.5791(4) 0.7886(4) 0.8354(3)
C74_2 C 0.6205(5) 0.8164(5) 0.7802(3)
H59_2 H 0.5926 0.8003 0.7431
C75_2 C 0.7005(5) 0.8664(4) 0.7787(3)
H60_2 H 0.7263 0.8838 0.7409
H83_2 H 0.2919 0.9765 0.8111
H84_2 H 0.4247 0.9857 0.8033
C104_2 C 0.4217(6) 0.9496(5) 0.8933(4)
H86_2 H 0.4397 0.9765 0.9329
H87_2 H 0.3647 0.9141 0.8960
C105_2 C 0.4624(6) 0.8996(5) 0.8817(4)
H88_2 H 0.4511 0.8791 0.8397
H89_2 H 0.4402 0.8545 0.9097
C106_2 C 0.5517(6) 0.9480(4) 0.8909(3)
C107_2 C 0.6049(7) 0.9834(5) 0.8430(3)
H90_2 H 0.5862 0.9807 0.8030
C109_2 C 0.6652(6) 0.9976(4) 0.9577(3)
C110_2 C 0.5845(6) 0.9574(5) 0.9494(4)
H93_2 H 0.5512 0.9361 0.9835
O36_2 O 0.9753(3) 0.8250(4) 0.8355(2)
N11_2 N 0.8221(3) 0.7006(4) 0.8868(3)
C120_2 C 0.6996(5) 0.5770(7) 0.8898(4)
H99_2 H 0.6718 0.5240 0.9020
C121_2 C 0.7784(4) 0.6239(6) 0.9058(4)
H100_2 H 0.8024 0.6024 0.9303
C122_2 C 0.7863(4) 0.7299(6) 0.8524(3)
H101_2 H 0.8155 0.7823 0.8389
C123_2 C 0.7071(4) 0.6854(6) 0.8360(3)
H102_2 H 0.6846 0.7081 0.8111
C124_2 C 0.6614(4) 0.6089(6) 0.8554(4)
C125_2 C 0.5727(5) 0.5613(8) 0.8435(4)
H103_2 H 0.5610 0.5753 0.8033
H104_2 H 0.5554 0.5050 0.8433
C126_2 C 0.5279(4) 0.5783(6) 0.8933(4)
H105_2 H 0.5368 0.5603 0.9329
H106_2 H 0.5494 0.6353 0.8960
C127_2 C 0.4372(4) 0.5376(6) 0.8817(4)
H107_2 H 0.4280 0.5489 0.8397
H108_2 H 0.4143 0.5598 0.9097
C128_2 C 0.3963(4) 0.4483(6) 0.8909(3)
C129_2 C 0.3785(5) 0.3951(7) 0.8430(3)
H109_2 H 0.3945 0.4138 0.8030
C130_2 C 0.3373(4) 0.3146(6) 0.8539(3)
H110_2 H 0.3259 0.2803 0.8205
C131_2 C 0.3324(4) 0.3348(6) 0.9577(3)
H111_2 H 0.3177 0.3146 0.9975
C132_2 C 0.3729(4) 0.4155(6) 0.9494(4)
H112_2 H 0.3849 0.4488 0.9835
O42_2 O 0.9156(3) 0.8676(4) 0.9341(2)
H113_2 H 0.8938 0.8814 0.9064
H114_2 H 0.8845 0.8492 0.9650
O17_2 O 0.9534(3) 0.1483(4) 0.0422(2)
C45_2 C 0.9545(4) 0.1233(6) 0.1723(3)
C46_2 C 0.8835(4) 0.1341(6) 0.0488(3)
C47_2 C 0.7418(5) 0.2495(7) 0.1646(4)
C48_2 C 0.8920(4) 0.1477(6) 0.1662(3)
C49_2 C 0.8608(4) 0.1567(6) 0.1099(3)
C50_2 C 0.8094(4) 0.1857(6) 0.1098(3)
H39_2 H 0.7878 0.1898 0.0725
C51_2 C 0.7886(4) 0.2095(6) 0.1646(3)
C52_2 C 0.8164(5) 0.1959(7) 0.2198(3)
H40_2 H 0.8003 0.2077 0.2569
C53_2 C 0.8664(4) 0.1659(6) 0.2213(3)
H41_2 H 0.8838 0.1575 0.2591
loop_
_geom_bond_atom_site_label_1
_geom_bond_atom_site_label_2
_geom_bond_site_symmetry_1
_geom_bond_site_symmetry_2
Ni2 O5 1_555 1_555
Ni3 O2 1_555 1_555
O2 C1 1_555 1_555
O4 C2 1_555 1_555
O5 C3 1_555 1_555
O6 Ni2 1_555 1_555
C1 C4 1_555 1_555
C2 O3 1_555 1_555
C3 O6 1_555 1_555
C4 C5 1_555 1_555
C5 C2 1_555 1_555
C6 C5 1_555 1_555
H1 C6 1_555 1_555
C7 C3 1_555 1_555
C8 C7 1_555 1_555
H2 C8 1_555 1_555
C9 C4 1_555 1_555
H3 C9 1_555 1_555
H67 C82 1_555 1_555
H68 C82 1_555 1_555
C83 C82 1_555 1_555
H69 C83 1_555 1_555
H70 C83 1_555 1_555
C84 C83 1_555 1_555
C85 C84 1_555 1_555
H71 C85 1_555 1_555
C88 C84 1_555 1_555
H74 C88 1_555 1_555
Ni15 O4 1_555 1_555
O44 Ni3 1_555 1_555
O52 Ni2 1_555 1_555
O53 Ni2 1_555 1_555
O56 Ni2 1_555 1_555
O57 Ni2 1_555 1_555
C6 C7 1_555 1_555
C8 C9 1_555 1_555
C87 C88 1_555 1_555
H29 C38 1_555 1_555
H30 C38 1_555 1_555
C39 C38 1_555 1_555
H31 C39 1_555 1_555
H32 C39 1_555 1_555
C40 C39 1_555 1_555
C41 C40 1_555 1_555
H33 C41 1_555 1_555
C44 C40 1_555 1_555
H36 C44 1_555 1_555
Ni7 O22 1_555 1_555
N7 Ni7 1_555 1_555
N8 C86 1_555 1_555
C76 H61 1_555 1_555
C77 N7 1_555 1_555
H62 C77 1_555 1_555
C78 N7 1_555 1_555
H63 C78 1_555 1_555
C79 C78 1_555 1_555
C80 C76 1_555 1_555
C81 C80 1_555 1_555
H66 C81 1_555 1_555
H72 C86 1_555 1_555
O28 Ni7 1_555 1_555
H75 O28 1_555 1_555
H76 O28 1_555 1_555
Ni15 O29 1_555 1_555
O29 C89 1_555 1_555
O30 C89 1_555 1_555
O31 Ni15 1_555 1_555
O32 C90 1_555 1_555
O33 C91 1_555 1_555
O34 C91 1_555 1_555
C89 C92 1_555 1_555
C90 O31 1_555 1_555
C91 C95 1_555 1_555
C92 C93 1_555 1_555
C93 C90 1_555 1_555
C94 C93 1_555 1_555
H77 C94 1_555 1_555
C95 C94 1_555 1_555
C96 C95 1_555 1_555
H78 C96 1_555 1_555
C97 C92 1_555 1_555
H79 C97 1_555 1_555
N9 Ni15 1_555 1_555
N10 Ni7 1_555 1_555
C98 H80 1_555 1_555
C99 N9 1_555 1_555
H81 C99 1_555 1_555
C100 N9 1_555 1_555
H82 C100 1_555 1_555
C101 C100 1_555 1_555
C102 C98 1_555 1_555
C103 C102 1_555 1_555
H85 C103 1_555 1_555
C108 N10 1_555 1_555
H91 C108 1_555 1_555
O35 Ni15 1_555 1_555
H94 O35 1_555 1_555
H95 O35 1_555 1_555
Ni12 O32 1_555 1_555
Ni16 N8 1_555 1_555
Ni20 O33 1_555 1_555
Ni23 O30 1_555 1_555
O43 Ni3_2 1_555 1_555
O48 Ni7 1_555 1_555
N16 Ni15 1_555 1_555
C43 C44 1_555 1_555
C76 C77 1_555 1_555
C79 C80 1_555 1_555
O34 Ni20 1_555 1_555
C96 C97 1_555 1_555
C98 C99 1_555 1_555
C101 C102 1_555 1_555
Ni1 O1 1_555 1_555
N1 Ni1 1_555 1_555
N2 C20 1_555 1_555
C10 H4 1_555 1_555
C11 N1 1_555 1_555
H5 C11 1_555 1_555
C12 N1 1_555 1_555
H6 C12 1_555 1_555
C13 C12 1_555 1_555
C14 C10 1_555 1_555
C15 C14 1_555 1_555
H9 C15 1_555 1_555
H15 C20 1_555 1_555
O7 Ni1 1_555 1_555
H18 O7 1_555 1_555
H19 O7 1_555 1_555
O37 C111 1_555 1_555
O39 Ni1 1_555 1_555
O40 C113 1_555 1_555
O41 C113 1_555 1_555
C112 O38 1_555 1_555
C113 C117 1_555 1_555
C114 C111 1_555 1_555
C115 C112 1_555 1_555
C116 C115 1_555 1_555
H96 C116 1_555 1_555
C117 C116 1_555 1_555
C118 C117 1_555 1_555
H97 C118 1_555 1_555
C119 C114 1_555 1_555
H98 C119 1_555 1_555
Ni12 N2 1_555 1_555
Ni20 O40 1_555 1_555
O46 Ni3_3 1_555 1_555
N14 Ni1 1_555 1_555
C10 C11 1_555 1_555
C13 C14 1_555 1_555
O37 Ni23_3 1_555 1_555
O39 C112 1_555 1_555
O41 Ni20 1_555 1_555
C114 C115 1_555 1_555
C118 C119 1_555 1_555
H10 C16 1_555 1_555
H11 C16 1_555 1_555
C17 C16 1_555 1_555
H12 C17 1_555 1_555
H13 C17 1_555 1_555
C18 C17 1_555 1_555
C19 C18 1_555 1_555
H14 C19 1_555 1_555
C22 C18 1_555 1_555
H17 C22 1_555 1_555
Ni4 O8 1_555 1_555
O8 C23 1_555 1_555
O9 Ni3_4 1_555 1_555
O10 Ni4 1_555 1_555
O11 C24 1_555 1_555
O52 C25 1_555 1_555
O56 C25 1_555 1_555
C23 O9 1_555 1_555
C24 O10 1_555 1_555
C25 C29 1_555 1_555
C26 C23 1_555 1_555
C27 C24 1_555 1_555
C28 C27 1_555 1_555
H20 C28 1_555 1_555
C29 C28 1_555 1_555
C30 C29 1_555 1_555
H21 C30 1_555 1_555
C31 C26 1_555 1_555
H22 C31 1_555 1_555
N3 Ni4 1_555 1_555
N14 C42 1_555 1_555
C32 H23 1_555 1_555
C33 N3 1_555 1_555
H24 C33 1_555 1_555
C34 N3 1_555 1_555
H25 C34 1_555 1_555
C35 C34 1_555 1_555
C36 C32 1_555 1_555
C37 C36 1_555 1_555
H28 C37 1_555 1_555
H34 C42 1_555 1_555
O14 Ni4 1_555 1_555
H37 O14 1_555 1_555
H38 O14 1_555 1_555
Ni12 O15 1_555 1_555
N5 Ni12 1_555 1_555
N6 Ni4 1_555 1_555
C54 H42 1_555 1_555
C55 N5 1_555 1_555
H43 C55 1_555 1_555
C56 N5 1_555 1_555
H44 C56 1_555 1_555
C57 C56 1_555 1_555
H45 C57 1_555 1_555
C58 C54 1_555 1_555
C59 C58 1_555 1_555
H46 C59 1_555 1_555
H47 C59 1_555 1_555
C60 C59 1_555 1_555
H48 C60 1_555 1_555
H49 C60 1_555 1_555
C61 C60 1_555 1_555
H50 C61 1_555 1_555
H51 C61 1_555 1_555
C62 C61 1_555 1_555
C63 C62 1_555 1_555
H52 C63 1_555 1_555
C64 N6 1_555 1_555
H53 C64 1_555 1_555
C65 N6 1_555 1_555
H54 C65 1_555 1_555
C66 C62 1_555 1_555
H55 C66 1_555 1_555
O21 Ni12 1_555 1_555
H56 O21 1_555 1_555
H57 O21 1_555 1_555
O23 C67 1_555 1_555
O25 Ni4 1_555 1_555
O26 C69 1_555 1_555
O27 C69 1_555 1_555
C67 C70 1_555 1_555
C68 O24 1_555 1_555
C69 C73 1_555 1_555
C70 C71 1_555 1_555
C71 C68 1_555 1_555
C72 C71 1_555 1_555
H58 C72 1_555 1_555
C73 C72 1_555 1_555
C74 C73 1_555 1_555
H59 C74 1_555 1_555
C75 C70 1_555 1_555
H60 C75 1_555 1_555
H86 C104 1_555 1_555
H87 C104 1_555 1_555
C105 C104 1_555 1_555
H88 C105 1_555 1_555
H89 C105 1_555 1_555
C106 C105 1_555 1_555
C107 C106 1_555 1_555
H90 C107 1_555 1_555
C110 C106 1_555 1_555
H93 C110 1_555 1_555
Ni16 O11 1_555 1_555
O36 Ni16 1_555 1_555
N11 Ni16 1_555 1_555
N16 C130 1_555 1_555
C120 H99 1_555 1_555
C121 N11 1_555 1_555
H100 C121 1_555 1_555
C122 N11 1_555 1_555
H101 C122 1_555 1_555
C123 C122 1_555 1_555
H102 C123 1_555 1_555
C124 C120 1_555 1_555
C125 C124 1_555 1_555
H103 C125 1_555 1_555
H104 C125 1_555 1_555
C126 C125 1_555 1_555
H105 C126 1_555 1_555
H106 C126 1_555 1_555
C127 C126 1_555 1_555
H107 C127 1_555 1_555
H108 C127 1_555 1_555
C128 C127 1_555 1_555
C129 C128 1_555 1_555
H109 C129 1_555 1_555
C130 C129 1_555 1_555
H110 C130 1_555 1_555
C131 N16 1_555 1_555
H111 C131 1_555 1_555
C132 C128 1_555 1_555
H112 C132 1_555 1_555
O42 Ni16 1_555 1_555
H113 O42 1_555 1_555
H114 O42 1_555 1_555
Ni20 O26 1_555 1_555
Ni23_4 O23 1_555 1_555
O45 Ni3_4 1_555 1_555
C21 C22 1_555 1_555
C26 C27 1_555 1_555
C30 C31 1_555 1_555
C32 C33 1_555 1_555
C35 C36 1_555 1_555
C54 C55 1_555 1_555
C57 C58 1_555 1_555
C63 C64 1_555 1_555
C65 C66 1_555 1_555
O25 C68 1_555 1_555
O27 Ni20 1_555 1_555
C74 C75 1_555 1_555
C109 C110 1_555 1_555
C120 C121 1_555 1_555
C123 C124 1_555 1_555
C131 C132 1_555 1_555
O43 C45 1_555 1_555
O48 C46 1_555 1_555
O53 C47 1_555 1_555
C45 C48 1_555 1_555
C46 O17 1_555 1_555
C47 O57 1_555 1_555
C48 C49 1_555 1_555
C49 C46 1_555 1_555
C50 C49 1_555 1_555
H39 C50 1_555 1_555
C51 C47 1_555 1_555
C52 C51 1_555 1_555
H40 C52 1_555 1_555
C53 C48 1_555 1_555
H41 C53 1_555 1_555
C50 C51 1_555 1_555
C52 C53 1_555 1_555
Ni2_2 O5_2 1_555 1_555
O44 C1_2 1_555 1_555
O4_2 C2_2 1_555 1_555
O5_2 C3_2 1_555 1_555
O6_2 Ni2_2 1_555 1_555
C1_2 C4_2 1_555 1_555
C2_2 O3_2 1_555 1_555
C3_2 O6_2 1_555 1_555
C4_2 C5_2 1_555 1_555
C5_2 C2_2 1_555 1_555
C6_2 C5_2 1_555 1_555
H1_2 C6_2 1_555 1_555
C7_2 C3_2 1_555 1_555
C8_2 C7_2 1_555 1_555
H2_2 C8_2 1_555 1_555
C9_2 C4_2 1_555 1_555
H3_2 C9_2 1_555 1_555
O52_2 Ni2_2 1_555 1_555
O53_2 Ni2_2 1_555 1_555
O56_2 Ni2_2 1_555 1_555
O57_2 Ni2_2 1_555 1_555
C6_2 C7_2 1_555 1_555
C8_2 C9_2 1_555 1_555
H67_2 C82_2 1_555 1_555
H68_2 C82_2 1_555 1_555
C83_2 C82_2 1_555 1_555
H69_2 C83_2 1_555 1_555
H70_2 C83_2 1_555 1_555
C84_2 C83_2 1_555 1_555
C85_2 C84_2 1_555 1_555
H71_2 C85_2 1_555 1_555
C88_2 C84_2 1_555 1_555
H74_2 C88_2 1_555 1_555
C87_2 C88_2 1_555 1_555
Ni1_2 O1_2 1_555 1_555
N1_2 Ni1_2 1_555 1_555
N2_2 C20_2 1_555 1_555
C10_2 H4_2 1_555 1_555
C11_2 N1_2 1_555 1_555
H5_2 C11_2 1_555 1_555
C12_2 N1_2 1_555 1_555
H6_2 C12_2 1_555 1_555
C13_2 C12_2 1_555 1_555
C14_2 C10_2 1_555 1_555
C15_2 C14_2 1_555 1_555
H9_2 C15_2 1_555 1_555
H15_2 C20_2 1_555 1_555
O7_2 Ni1_2 1_555 1_555
H18_2 O7_2 1_555 1_555
H19_2 O7_2 1_555 1_555
Ni11 N2_2 1_555 1_555
N14_2 Ni1_2 1_555 1_555
C10_2 C11_2 1_555 1_555
C13_2 C14_2 1_555 1_555
O37_2 C111_2 1_555 1_555
O40_2 C113_2 1_555 1_555
O41_2 C113_2 1_555 1_555
C112_2 O38_2 1_555 1_555
C113_2 C117_2 1_555 1_555
C114_2 C111_2 1_555 1_555
C115_2 C112_2 1_555 1_555
C116_2 C115_2 1_555 1_555
H96_2 C116_2 1_555 1_555
C117_2 C116_2 1_555 1_555
C118_2 C117_2 1_555 1_555
H97_2 C118_2 1_555 1_555
C119_2 C114_2 1_555 1_555
H98_2 C119_2 1_555 1_555
Ni19 O40_2 1_555 1_555
O37_2 Ni23_2 1_555 1_555
O39_2 C112_2 1_555 1_555
O41_2 Ni19 1_555 1_555
C114_2 C115_2 1_555 1_555
C118_2 C119_2 1_555 1_555
H29_2 C38_2 1_555 1_555
H30_2 C38_2 1_555 1_555
C39_2 C38_2 1_555 1_555
H31_2 C39_2 1_555 1_555
H32_2 C39_2 1_555 1_555
C40_2 C39_2 1_555 1_555
C41_2 C40_2 1_555 1_555
H33_2 C41_2 1_555 1_555
C44_2 C40_2 1_555 1_555
H36_2 C44_2 1_555 1_555
C43_2 C44_2 1_555 1_555
Ni7_2 O22_2 1_555 1_555
N7_2 Ni7_2 1_555 1_555
N8_2 C86_2 1_555 1_555
C76_2 H61_2 1_555 1_555
C77_2 N7_2 1_555 1_555
H62_2 C77_2 1_555 1_555
C78_2 N7_2 1_555 1_555
H63_2 C78_2 1_555 1_555
C79_2 C78_2 1_555 1_555
C80_2 C76_2 1_555 1_555
C81_2 C80_2 1_555 1_555
H66_2 C81_2 1_555 1_555
H72_2 C86_2 1_555 1_555
O28_2 Ni7_2 1_555 1_555
H75_2 O28_2 1_555 1_555
H76_2 O28_2 1_555 1_555
Ni15_2 O29_2 1_555 1_555
O29_2 C89_2 1_555 1_555
O30_2 C89_2 1_555 1_555
O31_2 Ni15_2 1_555 1_555
O32_2 C90_2 1_555 1_555
O33_2 C91_2 1_555 1_555
O34_2 C91_2 1_555 1_555
C89_2 C92_2 1_555 1_555
C90_2 O31_2 1_555 1_555
C91_2 C95_2 1_555 1_555
C92_2 C93_2 1_555 1_555
C93_2 C90_2 1_555 1_555
C94_2 C93_2 1_555 1_555
H77_2 C94_2 1_555 1_555
C95_2 C94_2 1_555 1_555
C96_2 C95_2 1_555 1_555
H78_2 C96_2 1_555 1_555
C97_2 C92_2 1_555 1_555
H79_2 C97_2 1_555 1_555
N9_2 Ni15_2 1_555 1_555
N10_2 Ni7_2 1_555 1_555
C98_2 H80_2 1_555 1_555
C99_2 N9_2 1_555 1_555
H81_2 C99_2 1_555 1_555
C100_2 N9_2 1_555 1_555
H82_2 C100_2 1_555 1_555
C101_2 C100_2 1_555 1_555
C102_2 C98_2 1_555 1_555
C103_2 C102_2 1_555 1_555
H85_2 C103_2 1_555 1_555
C108_2 N10_2 1_555 1_555
H91_2 C108_2 1_555 1_555
O35_2 Ni15_2 1_555 1_555
H94_2 O35_2 1_555 1_555
H95_2 O35_2 1_555 1_555
Ni16_2 N8_2 1_555 1_555
Ni19 O33_2 1_555 1_555
Ni23 O30_2 1_555 1_555
N16_2 Ni15_2 1_555 1_555
C76_2 C77_2 1_555 1_555
C79_2 C80_2 1_555 1_555
O34_2 Ni19 1_555 1_555
C96_2 C97_2 1_555 1_555
C98_2 C99_2 1_555 1_555
C101_2 C102_2 1_555 1_555
H10_2 C16_2 1_555 1_555
H11_2 C16_2 1_555 1_555
C17_2 C16_2 1_555 1_555
H12_2 C17_2 1_555 1_555
H13_2 C17_2 1_555 1_555
C18_2 C17_2 1_555 1_555
C19_2 C18_2 1_555 1_555
H14_2 C19_2 1_555 1_555
C22_2 C18_2 1_555 1_555
H17_2 C22_2 1_555 1_555
Ni4_2 O8_2 1_555 1_555
O8_2 C23_2 1_555 1_555
O10_2 Ni4_2 1_555 1_555
O11_2 C24_2 1_555 1_555
O52_2 C25_2 1_555 1_555
O56_2 C25_2 1_555 1_555
C23_2 O45 1_555 1_555
C24_2 O10_2 1_555 1_555
C25_2 C29_2 1_555 1_555
C26_2 C23_2 1_555 1_555
C27_2 C24_2 1_555 1_555
C28_2 C27_2 1_555 1_555
H20_2 C28_2 1_555 1_555
C29_2 C28_2 1_555 1_555
C30_2 C29_2 1_555 1_555
H21_2 C30_2 1_555 1_555
C31_2 C26_2 1_555 1_555
H22_2 C31_2 1_555 1_555
N3_2 Ni4_2 1_555 1_555
N14_2 C42_2 1_555 1_555
C32_2 H23_2 1_555 1_555
C33_2 N3_2 1_555 1_555
H24_2 C33_2 1_555 1_555
C34_2 N3_2 1_555 1_555
H25_2 C34_2 1_555 1_555
C35_2 C34_2 1_555 1_555
C36_2 C32_2 1_555 1_555
C37_2 C36_2 1_555 1_555
H28_2 C37_2 1_555 1_555
H34_2 C42_2 1_555 1_555
O14_2 Ni4_2 1_555 1_555
H37_2 O14_2 1_555 1_555
H38_2 O14_2 1_555 1_555
Ni11 O15_2 1_555 1_555
N5_2 Ni11 1_555 1_555
N6_2 Ni4_2 1_555 1_555
C54_2 H42_2 1_555 1_555
C55_2 N5_2 1_555 1_555
H43_2 C55_2 1_555 1_555
C56_2 N5_2 1_555 1_555
H44_2 C56_2 1_555 1_555
C57_2 C56_2 1_555 1_555
H45_2 C57_2 1_555 1_555
C58_2 C54_2 1_555 1_555
C59_2 C58_2 1_555 1_555
H46_2 C59_2 1_555 1_555
H47_2 C59_2 1_555 1_555
C60_2 C59_2 1_555 1_555
H48_2 C60_2 1_555 1_555
H49_2 C60_2 1_555 1_555
C61_2 C60_2 1_555 1_555
H50_2 C61_2 1_555 1_555
H51_2 C61_2 1_555 1_555
C62_2 C61_2 1_555 1_555
C63_2 C62_2 1_555 1_555
H52_2 C63_2 1_555 1_555
C64_2 N6_2 1_555 1_555
H53_2 C64_2 1_555 1_555
C65_2 N6_2 1_555 1_555
H54_2 C65_2 1_555 1_555
C66_2 C62_2 1_555 1_555
H55_2 C66_2 1_555 1_555
O21_2 Ni11 1_555 1_555
H56_2 O21_2 1_555 1_555
H57_2 O21_2 1_555 1_555
C21_2 C22_2 1_555 1_555
C26_2 C27_2 1_555 1_555
C30_2 C31_2 1_555 1_555
C32_2 C33_2 1_555 1_555
C35_2 C36_2 1_555 1_555
C54_2 C55_2 1_555 1_555
C57_2 C58_2 1_555 1_555
C63_2 C64_2 1_555 1_555
C65_2 C66_2 1_555 1_555
O23_2 C67_2 1_555 1_555
O26_2 C69_2 1_555 1_555
O27_2 C69_2 1_555 1_555
C67_2 C70_2 1_555 1_555
C68_2 O24_2 1_555 1_555
C69_2 C73_2 1_555 1_555
C70_2 C71_2 1_555 1_555
C71_2 C68_2 1_555 1_555
C72_2 C71_2 1_555 1_555
H58_2 C72_2 1_555 1_555
C73_2 C72_2 1_555 1_555
C74_2 C73_2 1_555 1_555
H59_2 C74_2 1_555 1_555
C75_2 C70_2 1_555 1_555
H60_2 C75_2 1_555 1_555
H86_2 C104_2 1_555 1_555
H87_2 C104_2 1_555 1_555
C105_2 C104_2 1_555 1_555
H88_2 C105_2 1_555 1_555
H89_2 C105_2 1_555 1_555
C106_2 C105_2 1_555 1_555
C107_2 C106_2 1_555 1_555
H90_2 C107_2 1_555 1_555
C110_2 C106_2 1_555 1_555
H93_2 C110_2 1_555 1_555
O36_2 Ni16_2 1_555 1_555
N11_2 Ni16_2 1_555 1_555
N16_2 C130_2 1_555 1_555
C120_2 H99_2 1_555 1_555
C121_2 N11_2 1_555 1_555
H100_2 C121_2 1_555 1_555
C122_2 N11_2 1_555 1_555
H101_2 C122_2 1_555 1_555
C123_2 C122_2 1_555 1_555
H102_2 C123_2 1_555 1_555
C124_2 C120_2 1_555 1_555
C125_2 C124_2 1_555 1_555
H103_2 C125_2 1_555 1_555
H104_2 C125_2 1_555 1_555
C126_2 C125_2 1_555 1_555
H105_2 C126_2 1_555 1_555
H106_2 C126_2 1_555 1_555
C127_2 C126_2 1_555 1_555
H107_2 C127_2 1_555 1_555
H108_2 C127_2 1_555 1_555
C128_2 C127_2 1_555 1_555
C129_2 C128_2 1_555 1_555
H109_2 C129_2 1_555 1_555
C130_2 C129_2 1_555 1_555
H110_2 C130_2 1_555 1_555
C131_2 N16_2 1_555 1_555
H111_2 C131_2 1_555 1_555
C132_2 C128_2 1_555 1_555
H112_2 C132_2 1_555 1_555
O42_2 Ni16_2 1_555 1_555
H113_2 O42_2 1_555 1_555
H114_2 O42_2 1_555 1_555
Ni19 O26_2 1_555 1_555
Ni23_4 O23_2 1_555 1_555
O25_2 C68_2 1_555 1_555
O27_2 Ni19 1_555 1_555
C74_2 C75_2 1_555 1_555
C109_2 C110_2 1_555 1_555
C120_2 C121_2 1_555 1_555
C123_2 C124_2 1_555 1_555
C131_2 C132_2 1_555 1_555
O46 C45_2 1_555 1_555
O48_2 C46_2 1_555 1_555
O53_2 C47_2 1_555 1_555
C45_2 C48_2 1_555 1_555
C46_2 O17_2 1_555 1_555
C47_2 O57_2 1_555 1_555
C48_2 C49_2 1_555 1_555
C49_2 C46_2 1_555 1_555
C50_2 C49_2 1_555 1_555
H39_2 C50_2 1_555 1_555
C51_2 C47_2 1_555 1_555
C52_2 C51_2 1_555 1_555
H40_2 C52_2 1_555 1_555
C53_2 C48_2 1_555 1_555
H41_2 C53_2 1_555 1_555
C50_2 C51_2 1_555 1_555
C52_2 C53_2 1_555 1_555

#END
