
###############################################################################
#
# This file contains modified crystal structure data generated from the
# MOF subset of the Cambridge Structural Database (CSD) v543 
# hosted by the Cambridge Crystallographic Data Centre (CCDC).
#
# This work is licensed under the Creative Commons
# Attribution-NonCommercial-ShareAlike 4.0 International License.
# To view a copy of this license, visit
# http://creativecommons.org/licenses/by-nc-sa/4.0/
# or send a letter to
# Creative Commons, PO Box 1866, Mountain View, CA 94042, USA.
#
# CIF created using the CSD Python API on 29 September 2022
# The structure has been converted into the P1 space group
# The structure has a 3D framework
# The original CSD entry HEBJAB is in the triclinic crystal system
# The framework has been calculated to contain at least 10.0% void space
# The void calculation uses a probe of radius 1.32A, grid spacing 0.4
#
###############################################################################

data_HEBJAB
_chemical_formula_moiety         '(C64 H70 Co10 N8 O20)n'
_symmetry_cell_setting           triclinic
_symmetry_space_group_name_H-M   'P 1'
_symmetry_Int_Tables_number      1
_space_group_name_Hall           'P 1'
loop_
_symmetry_equiv_pos_site_id
_symmetry_equiv_pos_as_xyz
1 x,y,z
_cell_length_a                   9.730(7)
_cell_length_b                   10.190(5)
_cell_length_c                   19.529(6)
_cell_angle_alpha                78.011(5)
_cell_angle_beta                 80.400(8)
_cell_angle_gamma                87.705(7)
_cell_volume                     1867.49
loop_
_atom_site_label
_atom_site_type_symbol
_atom_site_fract_x
_atom_site_fract_y
_atom_site_fract_z
Co6 Co 0.31389(6) 0.60439(5) 0.27743(3)
N8 N 0.0933(4) 0.6191(3) 0.31283(19)
C57 C 0.0136(4) 0.7146(4) 0.2808(2)
H55 H 0.0505 0.7657 0.2368
C61 C 0.0373(4) 0.5483(4) 0.3763(2)
H58 H 0.0918 0.4822 0.3995
Co2 Co 0.0000 0.0000 1.0000
O9 O 0.1158(3) 0.1754(3) 0.99979(17)
H34 H 0.079(6) 0.250(4) 0.981(3)
O11 O 0.3022(3) 0.4059(3) 0.32374(15)
O12 O 0.2313(3) 0.3255(3) 0.23729(16)
O15 O 0.3218(3) 0.8228(3) 0.25753(14)
O18 O 0.3206(3) 0.7004(3) 0.36468(14)
O21 O 0.2251(3) 0.0244(3) 0.53251(15)
N6 N 0.5353(3) 0.5907(3) 0.24289(18)
C33 C 0.2652(4) 0.3119(4) 0.2975(2)
C34 C 0.2639(4) 0.1742(4) 0.3441(2)
C35 C 0.2832(4) 0.0620(4) 0.3127(2)
H36 H 0.2943 0.0718 0.2636
C39 C 0.2442(4) 0.0307(4) 0.4606(2)
C40 C 0.2462(4) 0.1581(4) 0.4170(2)
H38 H 0.2355 0.2334 0.4374
O22 O 0.2752(3) 0.5848(3) 0.17865(16)
H65 H 0.2686 0.5016 0.1962
H66 H 0.3354 0.5999 0.1406
Co2_2 Co 0.0000 1.0000 1.0000
O19 O 0.0847(3) 0.9945(3) 0.89611(15)
O20 O 0.2860(3) 0.8828(4) 0.90534(17)
C36 C 0.2853(4) 0.9359(4) 0.3561(2)
C37 C 0.3112(4) 0.8130(4) 0.3241(2)
C38 C 0.2644(4) 0.9188(4) 0.4289(2)
H37 H 0.2638 0.8330 0.4570
C41 C 0.2315(5) 0.8921(4) 0.5761(2)
H39 H 0.1552 0.8381 0.5713
H40 H 0.3185 0.8484 0.5611
C42 C 0.2218(4) 0.9051(4) 0.6523(2)
C43 C 0.3415(4) 0.9120(4) 0.6817(2)
H41 H 0.4284 0.9116 0.6535
C44 C 0.3331(4) 0.9194(4) 0.7523(2)
H42 H 0.4139 0.9219 0.7716
C45 C 0.2027(4) 0.9232(4) 0.7945(2)
C46 C 0.0825(4) 0.9173(4) 0.7656(2)
C47 C 0.0929(4) 0.9072(4) 0.6951(2)
H44 H 0.0122 0.9018 0.6762
C48 C 0.1916(4) 0.9327(4) 0.8716(2)
N7 N 0.9638(3) 0.5589(3) 0.06265(17)
C49 C 0.6087(4) 0.6958(4) 0.2041(2)
H45 H 0.5659 0.7797 0.1992
C50 C 0.7449(4) 0.6874(4) 0.1705(2)
H46 H 0.7910 0.7641 0.1437
C51 C 0.8125(4) 0.5635(4) 0.1771(2)
C52 C 0.7378(4) 0.4551(4) 0.2195(2)
H47 H 0.7793 0.3706 0.2269
C53 C 0.6024(4) 0.4717(4) 0.2507(2)
H48 H 0.5548 0.3968 0.2786
C54 C 0.9581(4) 0.5477(4) 0.1397(2)
H49 H 0.9946 0.4608 0.1598
C55 C 0.8797(4) 0.4515(4) 0.0492(2)
H51 H 0.9124 0.3648 0.0719
H52 H 0.7830 0.4617 0.0697
Co2_3 Co 0.0000 0.0000 0.0000
H8 H 0.0046 0.0798 0.2067
H35 H 0.140(5) 0.193(5) 0.0364(18)
Co2_4 Co 0.0000 1.0000 0.0000
N4 N 0.3870(3) 0.4114(3) 0.53542(19)
C26 C 0.1224(4) 0.2594(4) 0.6895(2)
H21 H 0.1745 0.1925 0.7139
C27 C 0.1801(4) 0.3324(4) 0.6241(2)
C28 C 0.0982(4) 0.4319(4) 0.5903(2)
H22 H 0.1329 0.4843 0.5463
C30 C 0.3264(4) 0.3004(4) 0.5895(2)
H24 H 0.3856 0.2779 0.6257
H25 H 0.3226 0.2226 0.5685
C31 C 0.4332(4) 0.5176(4) 0.5674(2)
H26 H 0.5031 0.4817 0.5964
H27 H 0.3547 0.5485 0.5978
C32 C 0.5070(4) 0.3666(4) 0.4892(2)
H28 H 0.4778 0.2974 0.4674
H29 H 0.5778 0.3287 0.5173
N10 N 0.6130(3) 0.5886(3) 0.46458(19)
C58 C 0.8776(4) 0.7406(4) 0.3105(2)
H56 H 0.8255 0.8075 0.2861
C59 C 0.8199(4) 0.6676(4) 0.3759(2)
C60 C 0.9018(4) 0.5681(4) 0.4097(2)
H57 H 0.8671 0.5157 0.4537
C62 C 0.6736(4) 0.6996(4) 0.4105(2)
H59 H 0.6144 0.7221 0.3743
H60 H 0.6774 0.7774 0.4315
C63 C 0.5668(4) 0.4824(4) 0.4326(2)
H61 H 0.4969 0.5183 0.4036
H62 H 0.6453 0.4515 0.4022
C64 C 0.4930(4) 0.6334(4) 0.5108(2)
H63 H 0.5222 0.7026 0.5326
H64 H 0.4222 0.6713 0.4827
O24 O 0.1556(3) 0.8729(3) 0.03938(17)
H67 H 0.189(5) 0.889(6) 0.074(2)
H68 H 0.215(5) 0.875(6) 0.0015(19)
Co2_5 Co 1.0000 0.0000 1.0000
O10 O 0.8444(3) 0.1271(3) 0.96062(17)
H32 H 0.811(5) 0.111(6) 0.926(2)
H33 H 0.785(5) 0.125(6) 0.9985(19)
Co2_6 Co 1.0000 0.0000 0.0000
O3 O 0.6782(3) 0.1772(3) 0.74247(14)
O4 O 0.6794(3) 0.2996(3) 0.63532(14)
O5 O 0.9153(3) 0.0055(3) 0.10389(15)
O6 O 0.7140(3) 0.1172(4) 0.09466(17)
C4 C 0.7147(4) 0.0641(4) 0.6439(2)
C5 C 0.6888(4) 0.1870(4) 0.6759(2)
C6 C 0.7356(4) 0.0812(4) 0.5711(2)
H2 H 0.7362 0.1670 0.5430
C9 C 0.7685(5) 0.1079(4) 0.4239(2)
H4 H 0.8448 0.1619 0.4287
H5 H 0.6815 0.1516 0.4389
C10 C 0.7782(4) 0.0949(4) 0.3477(2)
C11 C 0.6585(4) 0.0880(4) 0.3183(2)
H6 H 0.5716 0.0884 0.3465
C12 C 0.6669(4) 0.0806(4) 0.2477(2)
H7 H 0.5861 0.0781 0.2284
C13 C 0.7973(4) 0.0768(4) 0.2055(2)
C14 C 0.9175(4) 0.0827(4) 0.2344(2)
C15 C 0.9071(4) 0.0928(4) 0.3049(2)
H9 H 0.9878 0.0982 0.3238
C16 C 0.8084(4) 0.0673(4) 0.1284(2)
Co4 Co 0.68611(6) 0.39561(5) 0.72257(3)
Co2_7 Co 1.0000 1.0000 0.0000
O1 O 0.6978(3) 0.5941(3) 0.67626(15)
O2 O 0.7687(3) 0.6745(3) 0.76271(16)
O7 O 0.7749(3) 0.9756(3) 0.46749(15)
N1 N 0.4647(3) 0.4093(3) 0.75711(18)
N2 N 0.0362(3) 0.4411(3) 0.93735(17)
N3 N 0.9067(4) 0.3809(3) 0.68717(19)
C1 C 0.7348(4) 0.6881(4) 0.7025(2)
C2 C 0.7361(4) 0.8258(4) 0.6559(2)
C3 C 0.7168(4) 0.9380(4) 0.6873(2)
H1 H 0.7057 0.9282 0.7364
C7 C 0.7558(4) 0.9693(4) 0.5394(2)
C8 C 0.7538(4) 0.8419(4) 0.5830(2)
H3 H 0.7645 0.7666 0.5626
C17 C 0.3913(4) 0.3042(4) 0.7959(2)
H10 H 0.4341 0.2203 0.8008
C18 C 0.2551(4) 0.3126(4) 0.8295(2)
H11 H 0.2090 0.2359 0.8563
C19 C 0.1875(4) 0.4365(4) 0.8229(2)
C20 C 0.2622(4) 0.5449(4) 0.7805(2)
H12 H 0.2207 0.6294 0.7731
C21 C 0.3976(4) 0.5283(4) 0.7493(2)
H13 H 0.4452 0.6032 0.7214
C22 C 0.0419(4) 0.4523(4) 0.8603(2)
H14 H 0.0054 0.5392 0.8402
C23 C 0.1203(4) 0.5485(4) 0.9508(2)
H16 H 0.0876 0.6352 0.9281
H17 H 0.2170 0.5383 0.9303
C25 C 0.9864(4) 0.2854(4) 0.7192(2)
H20 H 0.9495 0.2343 0.7632
C29 C 0.9627(4) 0.4517(4) 0.6237(2)
H23 H 0.9082 0.5178 0.6005
O8 O 0.7248(3) 0.4152(3) 0.82135(16)
H30 H 0.7314 0.4984 0.8038
H31 H 0.6646 0.4001 0.8594
O23 O 0.8842(3) 0.8246(3) 0.00021(17)
H69 H 0.921(6) 0.750(4) 0.019(3)
H50 H 0.0169 0.6160 0.1476
C56 C 0.1102(4) 0.5435(4) 0.0291(2)
H53 H 0.1471 0.4584 0.0515
H54 H 0.1661 0.6146 0.0363
Co2_8 Co 1.0000 1.0000 1.0000
H43 H 0.9954 0.9202 0.7933
H70 H 0.860(5) 0.807(5) 0.9636(18)
H15 H 0.9831 0.3840 0.8524
C24 C 0.8898(4) 0.4565(4) 0.9709(2)
H18 H 0.8529 0.5416 0.9485
H19 H 0.8339 0.3854 0.9637
loop_
_geom_bond_atom_site_label_1
_geom_bond_atom_site_label_2
_geom_bond_site_symmetry_1
_geom_bond_site_symmetry_2
Co6 N8 1_555 1_555
N8 C57 1_555 1_555
C57 H55 1_555 1_555
C61 N8 1_555 1_555
H58 C61 1_555 1_555
O9 Co2 1_555 1_555
H34 O9 1_555 1_555
Co6 O11 1_555 1_555
O11 C33 1_555 1_555
O12 C33 1_555 1_555
O15 Co6 1_555 1_555
O18 Co6 1_555 1_555
O21 C39 1_555 1_555
N6 Co6 1_555 1_555
C33 C34 1_555 1_555
C34 C35 1_555 1_555
C35 H36 1_555 1_555
C40 C34 1_555 1_555
H38 C40 1_555 1_555
O22 Co6 1_555 1_555
H65 O22 1_555 1_555
H66 O22 1_555 1_555
C39 C40 1_555 1_555
O15 C37 1_555 1_555
O19 Co2_2 1_555 1_555
O20 C48 1_555 1_555
C37 O18 1_555 1_555
C38 C36 1_555 1_555
H37 C38 1_555 1_555
H39 C41 1_555 1_555
H40 C41 1_555 1_555
C42 C41 1_555 1_555
C43 C42 1_555 1_555
H41 C43 1_555 1_555
C44 C43 1_555 1_555
H42 C44 1_555 1_555
C45 C44 1_555 1_555
C46 C45 1_555 1_555
C47 C42 1_555 1_555
H44 C47 1_555 1_555
C48 O19 1_555 1_555
C36 C37 1_555 1_555
C45 C48 1_555 1_555
C46 C47 1_555 1_555
N6 C49 1_555 1_555
N7 C54 1_555 1_555
C49 H45 1_555 1_555
C50 C49 1_555 1_555
H46 C50 1_555 1_555
C51 C50 1_555 1_555
C52 C51 1_555 1_555
H47 C52 1_555 1_555
C53 N6 1_555 1_555
H48 C53 1_555 1_555
C54 C51 1_555 1_555
H49 C54 1_555 1_555
H51 C55 1_555 1_555
H52 C55 1_555 1_555
N7 C55 1_555 1_555
C52 C53 1_555 1_555
N4 C30 1_555 1_555
H21 C26 1_555 1_555
C27 C26 1_555 1_555
C28 C27 1_555 1_555
H22 C28 1_555 1_555
C30 C27 1_555 1_555
H24 C30 1_555 1_555
H25 C30 1_555 1_555
C31 N4 1_555 1_555
H26 C31 1_555 1_555
H27 C31 1_555 1_555
C32 N4 1_555 1_555
H28 C32 1_555 1_555
H29 C32 1_555 1_555
N10 C62 1_555 1_555
H56 C58 1_555 1_555
C59 C58 1_555 1_555
C60 C59 1_555 1_555
H57 C60 1_555 1_555
C62 C59 1_555 1_555
H59 C62 1_555 1_555
H60 C62 1_555 1_555
C63 C32 1_555 1_555
H61 C63 1_555 1_555
H62 C63 1_555 1_555
C64 C31 1_555 1_555
H63 C64 1_555 1_555
H64 C64 1_555 1_555
O24 Co2_4 1_555 1_555
H67 O24 1_555 1_555
H68 O24 1_555 1_555
N10 C63 1_555 1_555
N10 C64 1_555 1_555
O10 Co2_5 1_555 1_555
H32 O10 1_555 1_555
H33 O10 1_555 1_555
Co2_6 O5 1_555 1_555
O3 C5 1_555 1_555
O4 C5 1_555 1_555
O5 C16 1_555 1_555
O6 C16 1_555 1_555
C5 C4 1_555 1_555
C6 C4 1_555 1_555
H2 C6 1_555 1_555
H4 C9 1_555 1_555
H5 C9 1_555 1_555
C10 C9 1_555 1_555
C11 C10 1_555 1_555
H6 C11 1_555 1_555
C12 C11 1_555 1_555
H7 C12 1_555 1_555
C13 C12 1_555 1_555
C14 C13 1_555 1_555
C15 C10 1_555 1_555
H9 C15 1_555 1_555
C16 C13 1_555 1_555
Co4 O3 1_555 1_555
O4 Co4 1_555 1_555
C14 C15 1_555 1_555
Co4 O1 1_555 1_555
O1 C1 1_555 1_555
O2 C1 1_555 1_555
O7 C7 1_555 1_555
N1 Co4 1_555 1_555
N2 C22 1_555 1_555
N3 Co4 1_555 1_555
C1 C2 1_555 1_555
C2 C3 1_555 1_555
C3 H1 1_555 1_555
C8 C2 1_555 1_555
H3 C8 1_555 1_555
C17 N1 1_555 1_555
H10 C17 1_555 1_555
C18 C17 1_555 1_555
H11 C18 1_555 1_555
C19 C18 1_555 1_555
C20 C19 1_555 1_555
H12 C20 1_555 1_555
C21 N1 1_555 1_555
H13 C21 1_555 1_555
C22 C19 1_555 1_555
H14 C22 1_555 1_555
C23 N2 1_555 1_555
H16 C23 1_555 1_555
H17 C23 1_555 1_555
C25 N3 1_555 1_555
H20 C25 1_555 1_555
C29 N3 1_555 1_555
H23 C29 1_555 1_555
O8 Co4 1_555 1_555
H30 O8 1_555 1_555
H31 O8 1_555 1_555
O23 Co2_7 1_555 1_555
H69 O23 1_555 1_555
C7 C8 1_555 1_555
C20 C21 1_555 1_555
H53 C56 1_555 1_555
H54 C56 1_555 1_555
H18 C24 1_555 1_555
H19 C24 1_555 1_555

#END
