
###############################################################################
#
# This file contains modified crystal structure data generated from the
# MOF subset of the Cambridge Structural Database (CSD) v543 
# hosted by the Cambridge Crystallographic Data Centre (CCDC).
#
# This work is licensed under the Creative Commons
# Attribution-NonCommercial-ShareAlike 4.0 International License.
# To view a copy of this license, visit
# http://creativecommons.org/licenses/by-nc-sa/4.0/
# or send a letter to
# Creative Commons, PO Box 1866, Mountain View, CA 94042, USA.
#
# CIF created using the CSD Python API on 29 September 2022
# The structure has been converted into the P1 space group
# The structure has a 3D framework
# The original CSD entry HEBZEV is in the rhombohedral crystal system
# The framework has been calculated to contain at least 10.0% void space
# The void calculation uses a probe of radius 1.32A, grid spacing 0.4
# H atom positions have been added when not included in the experimental data
#
###############################################################################

data_HEBZEV
_chemical_formula_moiety         '(C90 H88 Cl18 N70 O36 Zn18)n'
_symmetry_cell_setting           triclinic
_symmetry_space_group_name_H-M   'P 1'
_symmetry_Int_Tables_number      1
_space_group_name_Hall           'P 1'
loop_
_symmetry_equiv_pos_site_id
_symmetry_equiv_pos_as_xyz
1 x,y,z
_cell_length_a                   17.8709(9)
_cell_length_b                   17.8709(9)
_cell_length_c                   18.6382(10)
_cell_angle_alpha                90
_cell_angle_beta                 90
_cell_angle_gamma                120
_cell_volume                     5154.99
loop_
_atom_site_label
_atom_site_type_symbol
_atom_site_fract_x
_atom_site_fract_y
_atom_site_fract_z
C1 C 0.71679(14) 0.07196(13) 0.12337(10)
Cl1 Cl 0.73082(5) 0.17310(4) 0.11179(3)
N1 N 0.72624(11) 0.02760(11) 0.07024(8)
N2 N 0.69770(11) 0.03315(11) 0.18639(8)
Zn1 Zn 0.658663(15) 0.044243(16) 0.289349(11)
N5 N 0.63907(11) 0.03197(16) 0.40357(8)
N6 N 0.75882(13) 0.15448(18) 0.32231(9)
H4 H 0.7938(18) 0.1883(25) 0.2977(15)
O3 O 0.55534(17) 0.04120(11) 0.24721(7)
H5 H 0.790799 0.137398 0.357733
H6 H 0.733057 0.186057 0.348607
C2 C 0.67505(17) 0.90026(16) 0.23746(10)
C3 C 0.69486(14) 0.95628(14) 0.17406(10)
C4 C 0.71244(13) 0.95270(13) 0.10232(10)
C5 C 0.71656(14) 0.88766(14) 0.05636(10)
N3 N 0.6745(2) 0.82706(16) 0.23181(11)
H1 H 0.687(2) 0.816(2) 0.193(2)
H2 H 0.670(2) 0.795(2) 0.2718(19)
O1 O 0.65961(13) 0.92606(11) 0.29536(7)
O2 O 0.70787(11) 0.81920(13) 0.08612(7)
Zn3 Zn 0.710910(16) 0.718913(22) 0.043984(11)
N4 N 0.72900(13) 0.90785(13) 0.98898(9)
H3 H 0.7279(18) 0.8729(18) 0.9644(15)
N4_2 N 0.09215(13) 0.82115(18) 0.98898(9)
H3_2 H 0.1271(18) 0.8550(25) 0.9644(15)
C1_2 C 0.92804(13) 0.64483(19) 0.12337(10)
Cl1_2 Cl 0.82690(4) 0.55772(6) 0.11179(3)
N1_2 N 0.97240(11) 0.69864(16) 0.07024(8)
N2_2 N 0.96685(11) 0.66455(16) 0.18639(8)
Zn1_2 Zn 0.955757(16) 0.614420(22) 0.289349(11)
N5_2 N 0.96803(16) 0.60709(19) 0.40357(8)
N6_2 N 0.84552(18) 0.60433(22) 0.32231(9)
H4_2 H 0.8117(25) 0.6054(31) 0.2977(15)
O3_2 O 0.95880(11) 0.51413(20) 0.24721(7)
H5_2 H 0.862602 0.653401 0.357733
H6_2 H 0.813943 0.547 0.348607
Zn2 Zn 0.991996(15) 0.710910(27) 0.956016(11)
C1_3 C 0.35517(19) 0.28321(14) 0.12337(10)
C2_2 C 0.22521(23) 0.32495(17) 0.23746(10)
C3_2 C 0.26142(20) 0.30514(14) 0.17406(10)
C4_2 C 0.24026(18) 0.28756(13) 0.10232(10)
C5_2 C 0.17110(20) 0.28344(14) 0.05636(10)
Cl1_3 Cl 0.44228(6) 0.26918(5) 0.11179(3)
N1_3 N 0.30136(16) 0.27376(11) 0.07024(8)
N2_3 N 0.33545(16) 0.30230(11) 0.18639(8)
N3_2 N 0.15256(26) 0.3255(2) 0.23181(11)
H1_2 H 0.129(3) 0.313(2) 0.193(2)
H2_2 H 0.125(3) 0.330(2) 0.2718(19)
O1_2 O 0.26645(17) 0.34039(13) 0.29536(7)
O2_2 O 0.11133(17) 0.29213(11) 0.08612(7)
Zn1_3 Zn 0.385580(22) 0.341337(15) 0.289349(11)
N5_3 N 0.39291(19) 0.36093(11) 0.40357(8)
N6_3 N 0.39567(22) 0.24118(13) 0.32231(9)
H4_3 H 0.3946(31) 0.2062(18) 0.2977(15)
O3_3 O 0.48587(20) 0.44466(17) 0.24721(7)
Zn3_2 Zn 0.008004(27) 0.289090(16) 0.043984(11)
H5_3 H 0.346599 0.209201 0.357733
H6_3 H 0.453 0.266943 0.348607
N4_3 N 0.17885(18) 0.27100(13) 0.98898(9)
H3_3 H 0.1450(25) 0.2721(18) 0.9644(15)
Zn2_2 Zn 0.289090(27) 0.281087(22) 0.956016(11)
C1_4 C 0.38346(14) 0.40529(13) 0.45670(10)
C2_3 C 0.34172(17) 0.23359(16) 0.57079(10)
C3_3 C 0.36153(14) 0.28961(14) 0.50739(10)
C4_3 C 0.37911(13) 0.28603(13) 0.43565(10)
C5_3 C 0.38323(14) 0.22099(14) 0.38969(10)
Cl1_4 Cl 0.39749(5) 0.50643(4) 0.44512(3)
N2_4 N 0.36437(11) 0.36648(11) 0.51972(8)
N3_3 N 0.3412(2) 0.16039(16) 0.56514(11)
H1_3 H 0.354(2) 0.149(2) 0.526(2)
H2_3 H 0.337(2) 0.128(2) 0.6051(19)
O1_3 O 0.32628(13) 0.25939(11) 0.62869(7)
O2_3 O 0.37454(11) 0.15253(13) 0.41945(7)
Zn1_4 Zn 0.325330(15) 0.377576(16) 0.622682(11)
N5_4 N 0.30573(11) 0.36531(16) 0.73691(8)
N6_4 N 0.42548(13) 0.48782(18) 0.65565(9)
H4_4 H 0.4604(18) 0.5217(25) 0.6311(15)
O3_4 O 0.22200(17) 0.37454(11) 0.58055(7)
Zn3_3 Zn 0.377576(16) 0.052247(22) 0.377318(11)
H5_4 H 0.457465 0.470731 0.691066
H6_4 H 0.399724 0.519391 0.68194
C2_4 C 0.76641(16) 0.10812(23) 0.57079(10)
C3_4 C 0.71039(14) 0.07191(20) 0.50739(10)
C4_4 C 0.71397(13) 0.09307(18) 0.43565(10)
C5_4 C 0.77901(14) 0.16223(20) 0.38969(10)
N3_4 N 0.83961(16) 0.18077(26) 0.56514(11)
H1_4 H 0.851(2) 0.204(3) 0.526(2)
H2_4 H 0.872(2) 0.208(3) 0.6051(19)
O1_4 O 0.74061(11) 0.06688(17) 0.62869(7)
O2_4 O 0.84747(13) 0.22200(17) 0.41945(7)
Zn3_4 Zn 0.947753(22) 0.325330(27) 0.377318(11)
C1_5 C 0.59471(13) 0.97816(19) 0.45670(10)
Cl1_5 Cl 0.49357(4) 0.89105(6) 0.44512(3)
N2_5 N 0.63352(11) 0.99788(16) 0.51972(8)
Zn1_5 Zn 0.622424(16) 0.947753(22) 0.622682(11)
N5_5 N 0.63469(16) 0.94043(19) 0.73691(8)
N6_5 N 0.51218(18) 0.93767(22) 0.65565(9)
H4_5 H 0.4783(25) 0.9388(31) 0.6311(15)
O3_5 O 0.62546(11) 0.84747(20) 0.58055(7)
H5_5 H 0.529269 0.986734 0.691066
H6_5 H 0.480609 0.880333 0.68194
C1_6 C 0.02184(19) 0.61654(14) 0.45670(10)
Cl1_6 Cl 0.10895(6) 0.60251(5) 0.44512(3)
N2_6 N 0.00212(16) 0.63563(11) 0.51972(8)
Zn1_6 Zn 0.052247(22) 0.674670(15) 0.622682(11)
N5_6 N 0.05957(19) 0.69427(11) 0.73691(8)
N6_6 N 0.06233(22) 0.57452(13) 0.65565(9)
H4_6 H 0.0612(31) 0.5396(18) 0.6311(15)
O3_6 O 0.15253(20) 0.77800(17) 0.58055(7)
H5_6 H 0.0132655 0.542535 0.691066
H6_6 H 0.119667 0.600276 0.68194
C2_5 C 0.89188(23) 0.65828(17) 0.57079(10)
C3_5 C 0.92809(20) 0.63847(14) 0.50739(10)
C4_5 C 0.90693(18) 0.62089(13) 0.43565(10)
C5_5 C 0.83777(20) 0.61677(14) 0.38969(10)
N3_5 N 0.81923(26) 0.6588(2) 0.56514(11)
H1_5 H 0.796(3) 0.646(2) 0.526(2)
H2_5 H 0.792(3) 0.663(2) 0.6051(19)
O1_5 O 0.93312(17) 0.67372(13) 0.62869(7)
O2_5 O 0.77800(17) 0.62546(11) 0.41945(7)
Zn3_5 Zn 0.674670(27) 0.622424(16) 0.377318(11)
C1_7 C 0.05012(14) 0.73863(13) 0.79004(10)
C2_6 C 0.00838(17) 0.56693(16) 0.90413(10)
C3_6 C 0.02819(14) 0.62295(14) 0.84073(10)
C4_6 C 0.04577(13) 0.61937(13) 0.76899(10)
C5_6 C 0.04989(14) 0.55433(14) 0.72303(10)
Cl1_7 Cl 0.06415(5) 0.83977(4) 0.77846(3)
N2_7 N 0.03103(11) 0.69982(11) 0.85306(8)
N3_6 N 0.0078(2) 0.49373(16) 0.89848(11)
H1_6 H 0.020(2) 0.483(2) 0.860(2)
H2_6 H 0.003(2) 0.462(2) 0.9385(19)
O2_6 O 0.04120(11) 0.48587(13) 0.75279(7)
Zn3_6 Zn 0.044243(16) 0.385580(22) 0.710651(11)
O1_6 O 0.99294(13) 0.59273(11) 0.96203(7)
O3_7 O 0.88867(17) 0.70787(11) 0.91388(7)
H5_7 H 0.195936 0.320068 0.0243997
H6_7 H 0.147276 0.213666 0.0152737
C1_8 C 0.26137(13) 0.31150(19) 0.79004(10)
C2_7 C 0.43307(16) 0.44146(23) 0.90413(10)
C3_7 C 0.37705(14) 0.40525(20) 0.84073(10)
C4_7 C 0.38063(13) 0.42641(18) 0.76899(10)
C5_7 C 0.44567(14) 0.49557(20) 0.72303(10)
Cl1_8 Cl 0.16023(4) 0.22439(6) 0.77846(3)
N2_8 N 0.30018(11) 0.33122(16) 0.85306(8)
N3_7 N 0.50627(16) 0.51411(26) 0.89848(11)
H1_7 H 0.517(2) 0.538(3) 0.860(2)
H2_7 H 0.538(2) 0.542(3) 0.9385(19)
O1_7 O 0.40727(11) 0.40022(17) 0.96203(7)
O2_7 O 0.51413(13) 0.55534(17) 0.75279(7)
O3_8 O 0.29213(11) 0.18080(20) 0.91388(7)
Zn3_7 Zn 0.614420(22) 0.658663(27) 0.710651(11)
C1_9 C 0.68850(19) 0.94988(14) 0.79004(10)
C2_8 C 0.55854(23) 0.99162(17) 0.90413(10)
C3_8 C 0.59475(20) 0.97181(14) 0.84073(10)
C4_8 C 0.57359(18) 0.95423(13) 0.76899(10)
C5_8 C 0.50443(20) 0.95011(14) 0.72303(10)
Cl1_9 Cl 0.77561(6) 0.93585(5) 0.77846(3)
N2_9 N 0.66878(16) 0.96897(11) 0.85306(8)
N3_8 N 0.48589(26) 0.9922(2) 0.89848(11)
H1_8 H 0.462(3) 0.980(2) 0.860(2)
H2_8 H 0.458(3) 0.997(2) 0.9385(19)
O2_8 O 0.44466(17) 0.95880(11) 0.75279(7)
Zn3_8 Zn 0.341337(27) 0.955757(16) 0.710651(11)
N4_4 N 0.27100(13) 0.09215(13) 0.01102(9)
H3_4 H 0.2721(18) 0.1271(18) 0.0356(15)
C2_9 C 0.32495(17) 0.09974(16) 0.76254(10)
C3_9 C 0.30514(14) 0.04372(14) 0.82594(10)
C4_9 C 0.28756(13) 0.04730(13) 0.89768(10)
C5_9 C 0.28344(14) 0.11234(14) 0.94364(10)
N3_9 N 0.3255(2) 0.17294(16) 0.76819(11)
H1_9 H 0.313(2) 0.184(2) 0.807(2)
H2_9 H 0.330(2) 0.205(2) 0.7282(19)
O1_8 O 0.34039(13) 0.07394(11) 0.70464(7)
C1_10 C 0.28321(14) 0.92804(13) 0.87663(10)
Cl1_10 Cl 0.26918(5) 0.82690(4) 0.88821(3)
N1_4 N 0.27376(11) 0.97240(11) 0.92976(8)
N2_10 N 0.30230(11) 0.96685(11) 0.81361(8)
N5_7 N 0.36093(11) 0.96803(16) 0.59643(8)
N6_7 N 0.24118(13) 0.84552(18) 0.67769(9)
H4_7 H 0.2062(18) 0.8117(25) 0.7023(15)
H5_8 H 0.209201 0.862602 0.642267
H6_8 H 0.266943 0.813943 0.651393
C1_11 C 0.07196(13) 0.35517(19) 0.87663(10)
Cl1_11 Cl 0.17310(4) 0.44228(6) 0.88821(3)
N1_5 N 0.02760(11) 0.30136(16) 0.92976(8)
N2_11 N 0.03315(11) 0.33545(16) 0.81361(8)
N5_8 N 0.03197(16) 0.39291(19) 0.59643(8)
N6_8 N 0.15448(18) 0.39567(22) 0.67769(9)
H4_8 H 0.1883(25) 0.3946(31) 0.7023(15)
H5_9 H 0.137398 0.346599 0.642267
H6_9 H 0.186057 0.453 0.651393
N4_5 N 0.90785(13) 0.17885(18) 0.01102(9)
H3_5 H 0.8729(18) 0.1450(25) 0.0356(15)
N4_6 N 0.82115(18) 0.72900(13) 0.01102(9)
H3_6 H 0.8550(25) 0.7279(18) 0.0356(15)
C1_12 C 0.64483(19) 0.71679(14) 0.87663(10)
C2_10 C 0.77479(23) 0.67505(17) 0.76254(10)
C3_10 C 0.73858(20) 0.69486(14) 0.82594(10)
C4_10 C 0.75974(18) 0.71244(13) 0.89768(10)
C5_10 C 0.82890(20) 0.71656(14) 0.94364(10)
Cl1_12 Cl 0.55772(6) 0.73082(5) 0.88821(3)
N1_6 N 0.69864(16) 0.72624(11) 0.92976(8)
N2_12 N 0.66455(16) 0.69770(11) 0.81361(8)
N3_10 N 0.84744(26) 0.6745(2) 0.76819(11)
H1_10 H 0.871(3) 0.687(2) 0.807(2)
H2_10 H 0.875(3) 0.670(2) 0.7282(19)
O1_9 O 0.73355(17) 0.65961(13) 0.70464(7)
N5_9 N 0.60709(19) 0.63907(11) 0.59643(8)
N6_9 N 0.60433(22) 0.75882(13) 0.67769(9)
H4_9 H 0.6054(31) 0.7938(18) 0.7023(15)
H5_10 H 0.653401 0.790799 0.642267
H6_10 H 0.547 0.733057 0.651393
C1_13 C 0.61654(14) 0.59471(13) 0.54330(10)
C2_11 C 0.65828(17) 0.76641(16) 0.42921(10)
C3_11 C 0.63847(14) 0.71039(14) 0.49261(10)
C4_11 C 0.62089(13) 0.71397(13) 0.56435(10)
C5_11 C 0.61677(14) 0.77901(14) 0.61031(10)
Cl1_13 Cl 0.60251(5) 0.49357(4) 0.55488(3)
N2_13 N 0.63563(11) 0.63352(11) 0.48028(8)
N3_11 N 0.6588(2) 0.83961(16) 0.43486(11)
H1_11 H 0.646(2) 0.851(2) 0.474(2)
H2_11 H 0.663(2) 0.872(2) 0.3949(19)
O1_10 O 0.67372(13) 0.74061(11) 0.37131(7)
N5_10 N 0.69427(11) 0.63469(16) 0.26309(8)
N6_10 N 0.57452(13) 0.51218(18) 0.34435(9)
H4_10 H 0.5396(18) 0.4783(25) 0.3689(15)
H5_11 H 0.542535 0.529269 0.308934
H6_11 H 0.600276 0.480609 0.31806
C1_14 C 0.40529(13) 0.02184(19) 0.54330(10)
Cl1_14 Cl 0.50643(4) 0.10895(6) 0.55488(3)
N2_14 N 0.36648(11) 0.00212(16) 0.48028(8)
N5_11 N 0.36531(16) 0.05957(19) 0.26309(8)
N6_11 N 0.48782(18) 0.06233(22) 0.34435(9)
H4_11 H 0.5217(25) 0.0612(31) 0.3689(15)
H5_12 H 0.470731 0.0132655 0.308934
H6_12 H 0.519391 0.119667 0.31806
C2_12 C 0.23359(16) 0.89188(23) 0.42921(10)
C3_12 C 0.28961(14) 0.92809(20) 0.49261(10)
C4_12 C 0.28603(13) 0.90693(18) 0.56435(10)
C5_12 C 0.22099(14) 0.83777(20) 0.61031(10)
N3_12 N 0.16039(16) 0.81923(26) 0.43486(11)
H1_12 H 0.149(2) 0.796(3) 0.474(2)
H2_12 H 0.128(2) 0.792(3) 0.3949(19)
O1_11 O 0.25939(11) 0.93312(17) 0.37131(7)
C2_13 C 0.10812(23) 0.34172(17) 0.42921(10)
C3_13 C 0.07191(20) 0.36153(14) 0.49261(10)
C4_13 C 0.09307(18) 0.37911(13) 0.56435(10)
C5_13 C 0.16223(20) 0.38323(14) 0.61031(10)
N3_13 N 0.18077(26) 0.3412(2) 0.43486(11)
H1_13 H 0.204(3) 0.354(2) 0.474(2)
H2_13 H 0.208(3) 0.337(2) 0.3949(19)
O1_12 O 0.06688(17) 0.32628(13) 0.37131(7)
C1_15 C 0.97816(19) 0.38346(14) 0.54330(10)
Cl1_15 Cl 0.89105(6) 0.39749(5) 0.55488(3)
N2_15 N 0.99788(16) 0.36437(11) 0.48028(8)
N5_12 N 0.94043(19) 0.30573(11) 0.26309(8)
N6_12 N 0.93767(22) 0.42548(13) 0.34435(9)
H4_12 H 0.9388(31) 0.4604(18) 0.3689(15)
H5_13 H 0.986734 0.457465 0.308934
H6_13 H 0.880333 0.399724 0.31806
O1_13 O 0.00706(13) 0.40727(11) 0.03797(7)
C1_16 C 0.94988(14) 0.26137(13) 0.20996(10)
C2_14 C 0.99162(17) 0.43307(16) 0.09587(10)
C3_14 C 0.97181(14) 0.37705(14) 0.15927(10)
C4_14 C 0.95423(13) 0.38063(13) 0.23101(10)
C5_14 C 0.95011(14) 0.44567(14) 0.27697(10)
Cl1_16 Cl 0.93585(5) 0.16023(4) 0.22154(3)
N2_16 N 0.96897(11) 0.30018(11) 0.14694(8)
N3_14 N 0.9922(2) 0.50627(16) 0.10152(11)
H1_14 H 0.980(2) 0.517(2) 0.140(2)
H2_14 H 0.997(2) 0.538(2) 0.0615(19)
C1_17 C 0.73863(13) 0.68850(19) 0.20996(10)
C2_15 C 0.56693(16) 0.55854(23) 0.09587(10)
C3_15 C 0.62295(14) 0.59475(20) 0.15927(10)
C4_15 C 0.61937(13) 0.57359(18) 0.23101(10)
C5_15 C 0.55433(14) 0.50443(20) 0.27697(10)
Cl1_17 Cl 0.83977(4) 0.77561(6) 0.22154(3)
N2_17 N 0.69982(11) 0.66878(16) 0.14694(8)
N3_15 N 0.49373(16) 0.48589(26) 0.10152(11)
H1_15 H 0.483(2) 0.462(3) 0.140(2)
H2_15 H 0.462(2) 0.458(3) 0.0615(19)
O1_14 O 0.59273(11) 0.59978(17) 0.03797(7)
H5_14 H 0.804064 0.679932 0.9756
H6_14 H 0.852724 0.786334 0.984726
C1_18 C 0.31150(19) 0.05012(14) 0.20996(10)
C2_16 C 0.44146(23) 0.00838(17) 0.09587(10)
C3_16 C 0.40525(20) 0.02819(14) 0.15927(10)
C4_16 C 0.42641(18) 0.04577(13) 0.23101(10)
C5_16 C 0.49557(20) 0.04989(14) 0.27697(10)
Cl1_18 Cl 0.22439(6) 0.06415(5) 0.22154(3)
N2_18 N 0.33122(16) 0.03103(11) 0.14694(8)
N3_16 N 0.51411(26) 0.0078(2) 0.10152(11)
H1_16 H 0.538(3) 0.020(2) 0.140(2)
H2_16 H 0.542(3) 0.003(2) 0.0615(19)
Zn2_3 Zn 0.718913(22) 0.008004(15) 0.956016(11)
O1_15 O 0.59978(17) 0.00706(13) 0.96203(7)
O3_9 O 0.81920(20) 0.11133(17) 0.91388(7)
C2_17 C 0.90026(16) 0.22521(23) 0.76254(10)
C3_17 C 0.95628(14) 0.26142(20) 0.82594(10)
C4_17 C 0.95270(13) 0.24026(18) 0.89768(10)
C5_17 C 0.88766(14) 0.17110(20) 0.94364(10)
N3_17 N 0.82706(16) 0.15256(26) 0.76819(11)
H1_17 H 0.816(2) 0.129(3) 0.807(2)
H2_17 H 0.795(2) 0.125(3) 0.7282(19)
O1_16 O 0.92606(11) 0.26645(17) 0.70464(7)
C2_18 C 0.09974(16) 0.77479(23) 0.23746(10)
C3_18 C 0.04372(14) 0.73858(20) 0.17406(10)
C4_18 C 0.04730(13) 0.75974(18) 0.10232(10)
C5_18 C 0.11234(14) 0.82890(20) 0.05636(10)
N3_18 N 0.17294(16) 0.84744(26) 0.23181(11)
H1_18 H 0.184(2) 0.871(3) 0.193(2)
H2_18 H 0.205(2) 0.875(3) 0.2718(19)
O1_17 O 0.07394(11) 0.73355(17) 0.29536(7)
O2_9 O 0.18080(13) 0.88867(17) 0.08612(7)
Zn3_9 Zn 0.281087(22) 0.991996(27) 0.043984(11)
O1_18 O 0.40022(17) 0.99294(13) 0.03797(7)
H5_15 H 0.124132 0.804064 0.0243997
H6_15 H 0.0663903 0.852724 0.0152737
H5_16 H 0.679932 0.875868 0.0243997
H6_16 H 0.786334 0.93361 0.0152737
H5_17 H 0.875868 0.195936 0.9756
H6_17 H 0.93361 0.147276 0.984726
H5_18 H 0.320068 0.124132 0.9756
H6_18 H 0.213666 0.0663903 0.984726
loop_
_geom_bond_atom_site_label_1
_geom_bond_atom_site_label_2
_geom_bond_site_symmetry_1
_geom_bond_site_symmetry_2
C1 Cl1 1_555 1_555
N1 C1 1_555 1_555
N2 C1 1_555 1_555
Zn1 N2 1_555 1_555
N5 Zn1 1_555 1_555
N6 Zn1 1_555 1_555
H4 N6 1_555 1_555
O3 Zn1 1_555 1_555
N6 H5 1_555 1_555
N6 H6 1_555 1_555
C2 C3 1_555 1_555
C3 C4 1_555 1_555
C4 C5 1_555 1_555
N3 C2 1_555 1_555
H1 N3 1_555 1_555
H2 N3 1_555 1_555
O1 C2 1_555 1_555
O2 C5 1_555 1_555
Zn3 O2 1_555 1_555
N4 H3 1_555 1_555
N4_2 H3_2 1_555 1_555
C1_2 Cl1_2 1_555 1_555
N1_2 C1_2 1_555 1_555
N2_2 C1_2 1_555 1_555
Zn1_2 N2_2 1_555 1_555
N5_2 Zn1_2 1_555 1_555
N6_2 Zn1_2 1_555 1_555
H4_2 N6_2 1_555 1_555
O3_2 Zn1_2 1_555 1_555
N6_2 H5_2 1_555 1_555
N6_2 H6_2 1_555 1_555
C1_3 Cl1_3 1_555 1_555
C2_2 C3_2 1_555 1_555
C3_2 C4_2 1_555 1_555
C4_2 C5_2 1_555 1_555
N1_3 C1_3 1_555 1_555
N2_3 C1_3 1_555 1_555
N3_2 C2_2 1_555 1_555
H1_2 N3_2 1_555 1_555
H2_2 N3_2 1_555 1_555
O1_2 C2_2 1_555 1_555
O2_2 C5_2 1_555 1_555
Zn1_3 N2_3 1_555 1_555
N5_3 Zn1_3 1_555 1_555
N6_3 Zn1_3 1_555 1_555
H4_3 N6_3 1_555 1_555
O3_3 Zn1_3 1_555 1_555
Zn3_2 O2_2 1_555 1_555
C3_2 N2_3 1_555 1_555
C4_2 N1_3 1_555 1_555
O1_2 Zn1_3 1_555 1_555
N6_3 H5_3 1_555 1_555
N6_3 H6_3 1_555 1_555
N4_3 H3_3 1_555 1_555
N4_3 Zn2_2 1_555 1_555
C1_4 Cl1_4 1_555 1_555
C2_3 C3_3 1_555 1_555
C3_3 C4_3 1_555 1_555
C4_3 C5_3 1_555 1_555
C5_3 N6_3 1_555 1_555
N5_3 C1_4 1_555 1_555
N2_4 C1_4 1_555 1_555
N3_3 C2_3 1_555 1_555
H1_3 N3_3 1_555 1_555
H2_3 N3_3 1_555 1_555
O1_3 C2_3 1_555 1_555
O2_3 C5_3 1_555 1_555
Zn1_4 N2_4 1_555 1_555
N5_4 Zn1_4 1_555 1_555
N6_4 Zn1_4 1_555 1_555
H4_4 N6_4 1_555 1_555
O3_4 Zn1_4 1_555 1_555
Zn3_3 O2_3 1_555 1_555
C3_3 N2_4 1_555 1_555
C4_3 N5_3 1_555 1_555
O1_3 Zn1_4 1_555 1_555
N6_4 H5_4 1_555 1_555
N6_4 H6_4 1_555 1_555
C2_4 C3_4 1_555 1_555
C3_4 C4_4 1_555 1_555
C4_4 C5_4 1_555 1_555
C5_4 N6 1_555 1_555
N3_4 C2_4 1_555 1_555
H1_4 N3_4 1_555 1_555
H2_4 N3_4 1_555 1_555
O1_4 C2_4 1_555 1_555
O2_4 C5_4 1_555 1_555
Zn3_4 O2_4 1_555 1_555
C4_4 N5 1_555 1_555
C1_5 Cl1_5 1_555 1_555
N2_5 C1_5 1_555 1_555
Zn1_5 N2_5 1_555 1_555
N5_5 Zn1_5 1_555 1_555
N6_5 Zn1_5 1_555 1_555
H4_5 N6_5 1_555 1_555
O3_5 Zn1_5 1_555 1_555
N6_5 H5_5 1_555 1_555
N6_5 H6_5 1_555 1_555
C1_6 Cl1_6 1_555 1_555
N2_6 C1_6 1_555 1_555
Zn1_6 N2_6 1_555 1_555
N5_6 Zn1_6 1_555 1_555
N6_6 Zn1_6 1_555 1_555
H4_6 N6_6 1_555 1_555
O3_6 Zn1_6 1_555 1_555
N6_6 H5_6 1_555 1_555
N6_6 H6_6 1_555 1_555
C2_5 C3_5 1_555 1_555
C3_5 C4_5 1_555 1_555
C4_5 C5_5 1_555 1_555
C5_5 N6_2 1_555 1_555
N3_5 C2_5 1_555 1_555
H1_5 N3_5 1_555 1_555
H2_5 N3_5 1_555 1_555
O1_5 C2_5 1_555 1_555
O2_5 C5_5 1_555 1_555
Zn3_5 O2_5 1_555 1_555
C4_5 N5_2 1_555 1_555
C1_7 Cl1_7 1_555 1_555
C2_6 C3_6 1_555 1_555
C3_6 C4_6 1_555 1_555
C4_6 C5_6 1_555 1_555
C5_6 N6_6 1_555 1_555
N5_6 C1_7 1_555 1_555
N2_7 C1_7 1_555 1_555
N3_6 C2_6 1_555 1_555
H1_6 N3_6 1_555 1_555
H2_6 N3_6 1_555 1_555
O2_6 C5_6 1_555 1_555
Zn3_6 O2_6 1_555 1_555
C3_6 N2_7 1_555 1_555
C4_6 N5_6 1_555 1_555
O3_7 Zn2 1_555 1_555
O1_6 Zn2 1_555 1_555
C1_8 Cl1_8 1_555 1_555
C2_7 C3_7 1_555 1_555
C3_7 C4_7 1_555 1_555
C4_7 C5_7 1_555 1_555
C5_7 N6_4 1_555 1_555
N5_4 C1_8 1_555 1_555
N2_8 C1_8 1_555 1_555
N3_7 C2_7 1_555 1_555
H1_7 N3_7 1_555 1_555
H2_7 N3_7 1_555 1_555
O1_7 C2_7 1_555 1_555
O2_7 C5_7 1_555 1_555
Zn2_2 N2_8 1_555 1_555
O3_8 Zn2_2 1_555 1_555
Zn3_7 O2_7 1_555 1_555
C3_7 N2_8 1_555 1_555
C4_7 N5_4 1_555 1_555
O1_7 Zn2_2 1_555 1_555
C1_9 Cl1_9 1_555 1_555
C2_8 C3_8 1_555 1_555
C3_8 C4_8 1_555 1_555
C4_8 C5_8 1_555 1_555
C5_8 N6_5 1_555 1_555
N5_5 C1_9 1_555 1_555
N2_9 C1_9 1_555 1_555
N3_8 C2_8 1_555 1_555
H1_8 N3_8 1_555 1_555
H2_8 N3_8 1_555 1_555
O2_8 C5_8 1_555 1_555
Zn3_8 O2_8 1_555 1_555
C3_8 N2_9 1_555 1_555
C4_8 N5_5 1_555 1_555
N4_4 H3_4 1_555 1_555
C2_9 C3_9 1_555 1_555
C3_9 C4_9 1_555 1_555
C4_9 C5_9 1_555 1_555
N3_9 C2_9 1_555 1_555
H1_9 N3_9 1_555 1_555
H2_9 N3_9 1_555 1_555
O1_8 C2_9 1_555 1_555
O3_8 C5_9 1_555 1_555
C1_10 Cl1_10 1_555 1_555
N1_4 C1_10 1_555 1_555
N2_10 C1_10 1_555 1_555
Zn3_8 N2_10 1_555 1_555
N5_7 Zn3_8 1_555 1_555
N6_7 Zn3_8 1_555 1_555
H4_7 N6_7 1_555 1_555
N6_7 H5_8 1_555 1_555
N6_7 H6_8 1_555 1_555
C1_11 Cl1_11 1_555 1_555
N1_5 C1_11 1_555 1_555
N2_11 C1_11 1_555 1_555
Zn3_6 N2_11 1_555 1_555
N5_8 Zn3_6 1_555 1_555
N6_8 Zn3_6 1_555 1_555
H4_8 N6_8 1_555 1_555
N6_8 H5_9 1_555 1_555
N6_8 H6_9 1_555 1_555
N4_5 H3_5 1_555 1_555
N4_6 H3_6 1_555 1_555
N4_6 Zn3 1_555 1_555
C1_12 Cl1_12 1_555 1_555
C2_10 C3_10 1_555 1_555
C3_10 C4_10 1_555 1_555
C4_10 C5_10 1_555 1_555
N1_6 C1_12 1_555 1_555
N2_12 C1_12 1_555 1_555
N3_10 C2_10 1_555 1_555
H1_10 N3_10 1_555 1_555
H2_10 N3_10 1_555 1_555
O1_9 C2_10 1_555 1_555
O3_7 C5_10 1_555 1_555
Zn3_7 N2_12 1_555 1_555
N5_9 Zn3_7 1_555 1_555
N6_9 Zn3_7 1_555 1_555
H4_9 N6_9 1_555 1_555
C3_10 N2_12 1_555 1_555
C4_10 N1_6 1_555 1_555
O1_9 Zn3_7 1_555 1_555
N6_9 H5_10 1_555 1_555
N6_9 H6_10 1_555 1_555
C1_13 Cl1_13 1_555 1_555
C2_11 C3_11 1_555 1_555
C3_11 C4_11 1_555 1_555
C4_11 C5_11 1_555 1_555
C5_11 N6_9 1_555 1_555
N5_9 C1_13 1_555 1_555
N2_13 C1_13 1_555 1_555
N3_11 C2_11 1_555 1_555
H1_11 N3_11 1_555 1_555
H2_11 N3_11 1_555 1_555
O1_10 C2_11 1_555 1_555
O3_5 C5_11 1_555 1_555
Zn3_5 N2_13 1_555 1_555
N5_10 Zn3_5 1_555 1_555
N6_10 Zn3_5 1_555 1_555
H4_10 N6_10 1_555 1_555
C3_11 N2_13 1_555 1_555
C4_11 N5_9 1_555 1_555
O1_10 Zn3_5 1_555 1_555
N6_10 H5_11 1_555 1_555
N6_10 H6_11 1_555 1_555
C1_14 Cl1_14 1_555 1_555
N2_14 C1_14 1_555 1_555
Zn3_3 N2_14 1_555 1_555
N5_11 Zn3_3 1_555 1_555
N6_11 Zn3_3 1_555 1_555
H4_11 N6_11 1_555 1_555
N6_11 H5_12 1_555 1_555
N6_11 H6_12 1_555 1_555
C2_12 C3_12 1_555 1_555
C3_12 C4_12 1_555 1_555
C4_12 C5_12 1_555 1_555
C5_12 N6_7 1_555 1_555
N3_12 C2_12 1_555 1_555
H1_12 N3_12 1_555 1_555
H2_12 N3_12 1_555 1_555
O1_11 C2_12 1_555 1_555
O3_6 C5_12 1_555 1_555
C4_12 N5_7 1_555 1_555
C2_13 C3_13 1_555 1_555
C3_13 C4_13 1_555 1_555
C4_13 C5_13 1_555 1_555
C5_13 N6_8 1_555 1_555
N3_13 C2_13 1_555 1_555
H1_13 N3_13 1_555 1_555
H2_13 N3_13 1_555 1_555
O1_12 C2_13 1_555 1_555
O3_4 C5_13 1_555 1_555
C4_13 N5_8 1_555 1_555
C1_15 Cl1_15 1_555 1_555
N2_15 C1_15 1_555 1_555
Zn3_4 N2_15 1_555 1_555
N5_12 Zn3_4 1_555 1_555
N6_12 Zn3_4 1_555 1_555
H4_12 N6_12 1_555 1_555
N6_12 H5_13 1_555 1_555
N6_12 H6_13 1_555 1_555
O1_13 Zn3_2 1_555 1_555
C1_16 Cl1_16 1_555 1_555
C2_14 C3_14 1_555 1_555
C3_14 C4_14 1_555 1_555
C4_14 C5_14 1_555 1_555
C5_14 N6_12 1_555 1_555
N5_12 C1_16 1_555 1_555
N2_16 C1_16 1_555 1_555
N3_14 C2_14 1_555 1_555
H1_14 N3_14 1_555 1_555
H2_14 N3_14 1_555 1_555
O3_2 C5_14 1_555 1_555
C3_14 N2_16 1_555 1_555
C4_14 N5_12 1_555 1_555
C1_17 Cl1_17 1_555 1_555
C2_15 C3_15 1_555 1_555
C3_15 C4_15 1_555 1_555
C4_15 C5_15 1_555 1_555
C5_15 N6_10 1_555 1_555
N5_10 C1_17 1_555 1_555
N2_17 C1_17 1_555 1_555
N3_15 C2_15 1_555 1_555
H1_15 N3_15 1_555 1_555
H2_15 N3_15 1_555 1_555
O1_14 C2_15 1_555 1_555
O3_3 C5_15 1_555 1_555
Zn3 N2_17 1_555 1_555
C3_15 N2_17 1_555 1_555
C4_15 N5_10 1_555 1_555
O1_14 Zn3 1_555 1_555
C1_18 Cl1_18 1_555 1_555
C2_16 C3_16 1_555 1_555
C3_16 C4_16 1_555 1_555
C4_16 C5_16 1_555 1_555
C5_16 N6_11 1_555 1_555
N5_11 C1_18 1_555 1_555
N2_18 C1_18 1_555 1_555
N3_16 C2_16 1_555 1_555
H1_16 N3_16 1_555 1_555
H2_16 N3_16 1_555 1_555
O3 C5_16 1_555 1_555
C3_16 N2_18 1_555 1_555
C4_16 N5_11 1_555 1_555
O3_9 Zn2_3 1_555 1_555
O1_15 Zn2_3 1_555 1_555
C2_17 C3_17 1_555 1_555
C3_17 C4_17 1_555 1_555
C4_17 C5_17 1_555 1_555
N3_17 C2_17 1_555 1_555
H1_17 N3_17 1_555 1_555
H2_17 N3_17 1_555 1_555
O1_16 C2_17 1_555 1_555
O3_9 C5_17 1_555 1_555
C2_18 C3_18 1_555 1_555
C3_18 C4_18 1_555 1_555
C4_18 C5_18 1_555 1_555
N3_18 C2_18 1_555 1_555
H1_18 N3_18 1_555 1_555
H2_18 N3_18 1_555 1_555
O1_17 C2_18 1_555 1_555
O2_9 C5_18 1_555 1_555
Zn3_9 O2_9 1_555 1_555
O1_18 Zn3_9 1_555 1_555

#END
