
###############################################################################
#
# This file contains modified crystal structure data generated from the
# MOF subset of the Cambridge Structural Database (CSD) v543 
# hosted by the Cambridge Crystallographic Data Centre (CCDC).
#
# This work is licensed under the Creative Commons
# Attribution-NonCommercial-ShareAlike 4.0 International License.
# To view a copy of this license, visit
# http://creativecommons.org/licenses/by-nc-sa/4.0/
# or send a letter to
# Creative Commons, PO Box 1866, Mountain View, CA 94042, USA.
#
# CIF created using the CSD Python API on 29 September 2022
# The structure has been converted into the P1 space group
# The structure has a 3D framework
# The original CSD entry HEBZAR is in the rhombohedral crystal system
# The framework has been calculated to contain at least 10.0% void space
# The void calculation uses a probe of radius 1.32A, grid spacing 0.4
# H atom positions have been added when not included in the experimental data
#
###############################################################################

data_HEBZAR
_chemical_formula_moiety         '(C90 H88 Br18 N70 O36 Zn18)n'
_symmetry_cell_setting           triclinic
_symmetry_space_group_name_H-M   'P 1'
_symmetry_Int_Tables_number      1
_space_group_name_Hall           'P 1'
loop_
_symmetry_equiv_pos_site_id
_symmetry_equiv_pos_as_xyz
1 x,y,z
_cell_length_a                   17.8954(14)
_cell_length_b                   17.8954(14)
_cell_length_c                   18.6250(16)
_cell_angle_alpha                90
_cell_angle_beta                 90
_cell_angle_gamma                120
_cell_volume                     5165.47
loop_
_atom_site_label
_atom_site_type_symbol
_atom_site_fract_x
_atom_site_fract_y
_atom_site_fract_z
C1 C 0.7159(4) 0.0731(4) 0.1232(2)
Br1 Br 0.72991(7) 0.18048(5) 0.11097(4)
N1 N 0.7252(3) 0.0276(3) 0.0702(2)
N2 N 0.6968(3) 0.0323(3) 0.1865(2)
Zn1 Zn 0.65796(4) 0.04455(5) 0.28961(3)
N5 N 0.6391(3) 0.0309(4) 0.4035(2)
N6 N 0.7594(3) 0.1539(4) 0.3226(2)
H4 H 0.798(3) 0.199(4) 0.298(3)
O3 O 0.5547(4) 0.0408(3) 0.24766(18)
H5 H 0.79556 0.13424 0.349919
H6 H 0.733879 0.178638 0.35764
C2 C 0.6759(5) 0.9003(5) 0.2380(3)
C3 C 0.6942(4) 0.9560(4) 0.1738(3)
C4 C 0.7126(4) 0.9540(4) 0.1026(3)
C5 C 0.7155(4) 0.8874(4) 0.0561(3)
N3 N 0.6771(5) 0.8290(4) 0.2321(3)
H1 H 0.695(5) 0.815(5) 0.183(5)
H2 H 0.674(6) 0.808(6) 0.266(5)
O1 O 0.6607(3) 0.9272(3) 0.29604(17)
O2 O 0.7075(3) 0.8195(3) 0.08567(18)
Zn3 Zn 0.71122(5) 0.71992(6) 0.04372(3)
N4 N 0.7279(3) 0.9073(3) 0.9893(2)
H3 H 0.735(3) 0.869(3) 0.965(3)
N4_2 N 0.0927(3) 0.8206(4) 0.9893(2)
H3_2 H 0.131(3) 0.866(4) 0.965(3)
C1_2 C 0.9269(4) 0.6428(6) 0.1232(2)
Br1_2 Br 0.81952(5) 0.54943(9) 0.11097(4)
N1_2 N 0.9724(3) 0.6976(4) 0.0702(2)
N2_2 N 0.9677(3) 0.6645(4) 0.1865(2)
Zn1_2 Zn 0.95545(5) 0.61341(6) 0.28961(3)
N5_2 N 0.9691(4) 0.6081(5) 0.4035(2)
N6_2 N 0.8461(4) 0.6054(5) 0.3226(2)
H4_2 H 0.801(4) 0.598(5) 0.298(3)
O3_2 O 0.9592(3) 0.5138(5) 0.24766(18)
H5_2 H 0.86576 0.661319 0.349919
H6_2 H 0.821362 0.555242 0.35764
Zn2 Zn 0.99129(4) 0.71122(7) 0.95628(3)
C1_3 C 0.3572(6) 0.2841(4) 0.1232(2)
C2_2 C 0.2244(7) 0.3241(5) 0.2380(3)
C3_2 C 0.2618(6) 0.3058(4) 0.1738(3)
C4_2 C 0.2414(6) 0.2874(4) 0.1026(3)
C5_2 C 0.1719(6) 0.2845(4) 0.0561(3)
Br1_3 Br 0.45057(9) 0.27009(7) 0.11097(4)
N1_3 N 0.3024(4) 0.2748(3) 0.0702(2)
N2_3 N 0.3355(4) 0.3032(3) 0.1865(2)
N3_2 N 0.1519(6) 0.3229(5) 0.2321(3)
H1_2 H 0.120(7) 0.305(5) 0.183(5)
H2_2 H 0.134(8) 0.326(6) 0.266(5)
O1_2 O 0.2665(4) 0.3393(3) 0.29604(17)
O2_2 O 0.1120(4) 0.2925(3) 0.08567(18)
Zn1_3 Zn 0.38659(6) 0.34204(4) 0.28961(3)
N5_3 N 0.3919(5) 0.3609(3) 0.4035(2)
N6_3 N 0.3946(5) 0.2406(3) 0.3226(2)
H4_3 H 0.402(5) 0.202(3) 0.298(3)
O3_3 O 0.4862(5) 0.4453(4) 0.24766(18)
Zn3_2 Zn 0.00871(8) 0.28878(5) 0.04372(3)
H5_3 H 0.338681 0.20444 0.349919
H6_3 H 0.444758 0.266121 0.35764
N4_3 N 0.1794(4) 0.2721(3) 0.9893(2)
H3_3 H 0.134(4) 0.265(3) 0.965(3)
Zn2_2 Zn 0.28878(7) 0.28008(6) 0.95628(3)
C1_4 C 0.3826(4) 0.4064(4) 0.4565(2)
C2_3 C 0.3426(5) 0.2336(5) 0.5713(3)
C3_3 C 0.3609(4) 0.2893(4) 0.5071(3)
C4_3 C 0.3793(4) 0.2873(4) 0.4359(3)
C5_3 C 0.3822(4) 0.2207(4) 0.3894(3)
Br1_4 Br 0.39658(7) 0.51381(5) 0.44430(4)
N2_4 N 0.3635(3) 0.3656(3) 0.5198(2)
N3_3 N 0.3438(5) 0.1623(4) 0.5654(3)
H1_3 H 0.362(5) 0.148(5) 0.516(5)
H2_3 H 0.341(6) 0.141(6) 0.599(5)
O1_3 O 0.3274(3) 0.2605(3) 0.62937(17)
O2_3 O 0.3742(3) 0.1528(3) 0.41900(18)
Zn1_4 Zn 0.32463(4) 0.37788(5) 0.62294(3)
N5_4 N 0.3057(3) 0.3643(4) 0.7369(2)
N6_4 N 0.4260(3) 0.4873(4) 0.6560(2)
H4_4 H 0.464(3) 0.533(4) 0.632(3)
O3_4 O 0.2213(4) 0.3742(3) 0.58100(18)
Zn3_3 Zn 0.37788(5) 0.05326(6) 0.37706(3)
H5_4 H 0.462227 0.467574 0.683253
H6_4 H 0.400546 0.511971 0.690973
C2_4 C 0.7664(5) 0.1089(7) 0.5713(3)
C3_4 C 0.7107(4) 0.0715(6) 0.5071(3)
C4_4 C 0.7127(4) 0.0919(6) 0.4359(3)
C5_4 C 0.7793(4) 0.1614(6) 0.3894(3)
N3_4 N 0.8377(4) 0.1814(6) 0.5654(3)
H1_4 H 0.852(5) 0.213(7) 0.516(5)
H2_4 H 0.859(6) 0.199(8) 0.599(5)
O1_4 O 0.7395(3) 0.0668(4) 0.62937(17)
O2_4 O 0.8472(3) 0.2213(4) 0.41900(18)
Zn3_4 Zn 0.94674(6) 0.32463(8) 0.37706(3)
C1_5 C 0.5936(4) 0.9761(6) 0.4565(2)
Br1_5 Br 0.48619(5) 0.88276(9) 0.44430(4)
N2_5 N 0.6344(3) 0.9978(4) 0.5198(2)
Zn1_5 Zn 0.62212(5) 0.94674(6) 0.62294(3)
N5_5 N 0.6357(4) 0.9415(5) 0.7369(2)
N6_5 N 0.5127(4) 0.9388(5) 0.6560(2)
H4_5 H 0.467(4) 0.932(5) 0.632(3)
O3_5 O 0.6258(3) 0.8472(5) 0.58100(18)
H5_5 H 0.532426 0.994653 0.683253
H6_5 H 0.488029 0.888575 0.690973
C1_6 C 0.0239(6) 0.6174(4) 0.4565(2)
Br1_6 Br 0.11724(9) 0.60342(7) 0.44430(4)
N2_6 N 0.0022(4) 0.6365(3) 0.5198(2)
Zn1_6 Zn 0.05326(6) 0.67537(4) 0.62294(3)
N5_6 N 0.0585(5) 0.6943(3) 0.7369(2)
N6_6 N 0.0612(5) 0.5740(3) 0.6560(2)
H4_6 H 0.068(5) 0.536(3) 0.632(3)
O3_6 O 0.1528(5) 0.7787(4) 0.58100(18)
H5_6 H 0.00534725 0.537773 0.683253
H6_6 H 0.111425 0.599454 0.690973
C2_5 C 0.8911(7) 0.6574(5) 0.5713(3)
C3_5 C 0.9285(6) 0.6391(4) 0.5071(3)
C4_5 C 0.9081(6) 0.6207(4) 0.4359(3)
C5_5 C 0.8386(6) 0.6178(4) 0.3894(3)
N3_5 N 0.8186(6) 0.6562(5) 0.5654(3)
H1_5 H 0.787(7) 0.638(5) 0.516(5)
H2_5 H 0.801(8) 0.659(6) 0.599(5)
O1_5 O 0.9332(4) 0.6726(3) 0.62937(17)
O2_5 O 0.7787(4) 0.6258(3) 0.41900(18)
Zn3_5 Zn 0.67537(8) 0.62212(5) 0.37706(3)
C1_7 C 0.0492(4) 0.7398(4) 0.7899(2)
C2_6 C 0.0092(5) 0.5670(5) 0.9047(3)
C3_6 C 0.0275(4) 0.6227(4) 0.8405(3)
C4_6 C 0.0459(4) 0.6207(4) 0.7693(3)
C5_6 C 0.0488(4) 0.5541(4) 0.7228(3)
Br1_7 Br 0.06324(7) 0.84715(5) 0.77764(4)
N2_7 N 0.0301(3) 0.6990(3) 0.8532(2)
N3_6 N 0.0104(5) 0.4957(4) 0.8988(3)
H1_6 H 0.028(5) 0.482(5) 0.850(5)
H2_6 H 0.007(6) 0.475(6) 0.933(5)
O2_6 O 0.0408(3) 0.4862(3) 0.75234(18)
Zn3_6 Zn 0.04455(5) 0.38659(6) 0.71039(3)
O1_6 O 0.9940(3) 0.5939(3) 0.96271(17)
O3_7 O 0.8880(4) 0.7075(3) 0.91433(18)
H5_7 H 0.199093 0.327986 0.0165861
H6_7 H 0.154695 0.221908 0.0243065
C1_8 C 0.2602(4) 0.3095(6) 0.7899(2)
C2_7 C 0.4330(5) 0.4423(7) 0.9047(3)
C3_7 C 0.3773(4) 0.4049(6) 0.8405(3)
C4_7 C 0.3793(4) 0.4253(6) 0.7693(3)
C5_7 C 0.4459(4) 0.4948(6) 0.7228(3)
Br1_8 Br 0.15285(5) 0.21610(9) 0.77764(4)
N2_8 N 0.3010(3) 0.3312(4) 0.8532(2)
N3_7 N 0.5043(4) 0.5148(6) 0.8988(3)
H1_7 H 0.518(5) 0.547(7) 0.850(5)
H2_7 H 0.525(6) 0.533(8) 0.933(5)
O1_7 O 0.4061(3) 0.4002(4) 0.96271(17)
O2_7 O 0.5138(3) 0.5547(4) 0.75234(18)
O3_8 O 0.2925(3) 0.1805(5) 0.91433(18)
Zn3_7 Zn 0.61341(6) 0.65796(8) 0.71039(3)
C1_9 C 0.6905(6) 0.9508(4) 0.7899(2)
C2_8 C 0.5577(7) 0.9908(5) 0.9047(3)
C3_8 C 0.5951(6) 0.9725(4) 0.8405(3)
C4_8 C 0.5747(6) 0.9541(4) 0.7693(3)
C5_8 C 0.5052(6) 0.9512(4) 0.7228(3)
Br1_9 Br 0.78390(9) 0.93676(7) 0.77764(4)
N2_9 N 0.6688(4) 0.9699(3) 0.8532(2)
N3_8 N 0.4852(6) 0.9896(5) 0.8988(3)
H1_8 H 0.453(7) 0.972(5) 0.850(5)
H2_8 H 0.467(8) 0.993(6) 0.933(5)
O2_8 O 0.4453(4) 0.9592(3) 0.75234(18)
Zn3_8 Zn 0.34204(8) 0.95545(5) 0.71039(3)
N4_4 N 0.2721(3) 0.0927(3) 0.0107(2)
H3_4 H 0.265(3) 0.131(3) 0.035(3)
C2_9 C 0.3241(5) 0.0997(5) 0.7620(3)
C3_9 C 0.3058(4) 0.0440(4) 0.8262(3)
C4_9 C 0.2874(4) 0.0460(4) 0.8974(3)
C5_9 C 0.2845(4) 0.1126(4) 0.9439(3)
N3_9 N 0.3229(5) 0.1710(4) 0.7679(3)
H1_9 H 0.305(5) 0.185(5) 0.817(5)
H2_9 H 0.326(6) 0.192(6) 0.734(5)
O1_8 O 0.3393(3) 0.0728(3) 0.70396(17)
C1_10 C 0.2841(4) 0.9269(4) 0.8768(2)
Br1_10 Br 0.27009(7) 0.81952(5) 0.88903(4)
N1_4 N 0.2748(3) 0.9724(3) 0.9298(2)
N2_10 N 0.3032(3) 0.9677(3) 0.8135(2)
N5_7 N 0.3609(3) 0.9691(4) 0.5965(2)
N6_7 N 0.2406(3) 0.8461(4) 0.6774(2)
H4_7 H 0.202(3) 0.801(4) 0.702(3)
H5_8 H 0.20444 0.86576 0.650081
H6_8 H 0.266121 0.821362 0.64236
C1_11 C 0.0731(4) 0.3572(6) 0.8768(2)
Br1_11 Br 0.18048(5) 0.45057(9) 0.88903(4)
N1_5 N 0.0276(3) 0.3024(4) 0.9298(2)
N2_11 N 0.0323(3) 0.3355(4) 0.8135(2)
N5_8 N 0.0309(4) 0.3919(5) 0.5965(2)
N6_8 N 0.1539(4) 0.3946(5) 0.6774(2)
H4_8 H 0.199(4) 0.402(5) 0.702(3)
H5_9 H 0.13424 0.338681 0.650081
H6_9 H 0.178638 0.444758 0.64236
N4_5 N 0.9073(3) 0.1794(4) 0.0107(2)
H3_5 H 0.869(3) 0.134(4) 0.035(3)
N4_6 N 0.8206(4) 0.7279(3) 0.0107(2)
H3_6 H 0.866(4) 0.735(3) 0.035(3)
C1_12 C 0.6428(6) 0.7159(4) 0.8768(2)
C2_10 C 0.7756(7) 0.6759(5) 0.7620(3)
C3_10 C 0.7382(6) 0.6942(4) 0.8262(3)
C4_10 C 0.7586(6) 0.7126(4) 0.8974(3)
C5_10 C 0.8281(6) 0.7155(4) 0.9439(3)
Br1_12 Br 0.54943(9) 0.72991(7) 0.88903(4)
N1_6 N 0.6976(4) 0.7252(3) 0.9298(2)
N2_12 N 0.6645(4) 0.6968(3) 0.8135(2)
N3_10 N 0.8481(6) 0.6771(5) 0.7679(3)
H1_10 H 0.880(7) 0.695(5) 0.817(5)
H2_10 H 0.866(8) 0.674(6) 0.734(5)
O1_9 O 0.7335(4) 0.6607(3) 0.70396(17)
N5_9 N 0.6081(5) 0.6391(3) 0.5965(2)
N6_9 N 0.6054(5) 0.7594(3) 0.6774(2)
H4_9 H 0.598(5) 0.798(3) 0.702(3)
H5_10 H 0.661319 0.79556 0.650081
H6_10 H 0.555242 0.733879 0.64236
C1_13 C 0.6174(4) 0.5936(4) 0.5435(2)
C2_11 C 0.6574(5) 0.7664(5) 0.4287(3)
C3_11 C 0.6391(4) 0.7107(4) 0.4929(3)
C4_11 C 0.6207(4) 0.7127(4) 0.5641(3)
C5_11 C 0.6178(4) 0.7793(4) 0.6106(3)
Br1_13 Br 0.60342(7) 0.48619(5) 0.55570(4)
N2_13 N 0.6365(3) 0.6344(3) 0.4802(2)
N3_11 N 0.6562(5) 0.8377(4) 0.4346(3)
H1_11 H 0.638(5) 0.852(5) 0.484(5)
H2_11 H 0.659(6) 0.859(6) 0.401(5)
O1_10 O 0.6726(3) 0.7395(3) 0.37063(17)
N5_10 N 0.6943(3) 0.6357(4) 0.2631(2)
N6_10 N 0.5740(3) 0.5127(4) 0.3440(2)
H4_10 H 0.536(3) 0.467(4) 0.368(3)
H5_11 H 0.537773 0.532426 0.316747
H6_11 H 0.599454 0.488029 0.309027
C1_14 C 0.4064(4) 0.0239(6) 0.5435(2)
Br1_14 Br 0.51381(5) 0.11724(9) 0.55570(4)
N2_14 N 0.3656(3) 0.0022(4) 0.4802(2)
N5_11 N 0.3643(4) 0.0585(5) 0.2631(2)
N6_11 N 0.4873(4) 0.0612(5) 0.3440(2)
H4_11 H 0.533(4) 0.068(5) 0.368(3)
H5_12 H 0.467574 0.00534725 0.316747
H6_12 H 0.511971 0.111425 0.309027
C2_12 C 0.2336(5) 0.8911(7) 0.4287(3)
C3_12 C 0.2893(4) 0.9285(6) 0.4929(3)
C4_12 C 0.2873(4) 0.9081(6) 0.5641(3)
C5_12 C 0.2207(4) 0.8386(6) 0.6106(3)
N3_12 N 0.1623(4) 0.8186(6) 0.4346(3)
H1_12 H 0.148(5) 0.787(7) 0.484(5)
H2_12 H 0.141(6) 0.801(8) 0.401(5)
O1_11 O 0.2605(3) 0.9332(4) 0.37063(17)
C2_13 C 0.1089(7) 0.3426(5) 0.4287(3)
C3_13 C 0.0715(6) 0.3609(4) 0.4929(3)
C4_13 C 0.0919(6) 0.3793(4) 0.5641(3)
C5_13 C 0.1614(6) 0.3822(4) 0.6106(3)
N3_13 N 0.1814(6) 0.3438(5) 0.4346(3)
H1_13 H 0.213(7) 0.362(5) 0.484(5)
H2_13 H 0.199(8) 0.341(6) 0.401(5)
O1_12 O 0.0668(4) 0.3274(3) 0.37063(17)
C1_15 C 0.9761(6) 0.3826(4) 0.5435(2)
Br1_15 Br 0.88276(9) 0.39658(7) 0.55570(4)
N2_15 N 0.9978(4) 0.3635(3) 0.4802(2)
N5_12 N 0.9415(5) 0.3057(3) 0.2631(2)
N6_12 N 0.9388(5) 0.4260(3) 0.3440(2)
H4_12 H 0.932(5) 0.464(3) 0.368(3)
H5_13 H 0.994653 0.462227 0.316747
H6_13 H 0.888575 0.400546 0.309027
O1_13 O 0.0060(3) 0.4061(3) 0.03729(17)
C1_16 C 0.9508(4) 0.2602(4) 0.2101(2)
C2_14 C 0.9908(5) 0.4330(5) 0.0953(3)
C3_14 C 0.9725(4) 0.3773(4) 0.1595(3)
C4_14 C 0.9541(4) 0.3793(4) 0.2307(3)
C5_14 C 0.9512(4) 0.4459(4) 0.2772(3)
Br1_16 Br 0.93676(7) 0.15285(5) 0.22236(4)
N2_16 N 0.9699(3) 0.3010(3) 0.1468(2)
N3_14 N 0.9896(5) 0.5043(4) 0.1012(3)
H1_14 H 0.972(5) 0.518(5) 0.150(5)
H2_14 H 0.993(6) 0.525(6) 0.067(5)
C1_17 C 0.7398(4) 0.6905(6) 0.2101(2)
C2_15 C 0.5670(5) 0.5577(7) 0.0953(3)
C3_15 C 0.6227(4) 0.5951(6) 0.1595(3)
C4_15 C 0.6207(4) 0.5747(6) 0.2307(3)
C5_15 C 0.5541(4) 0.5052(6) 0.2772(3)
Br1_17 Br 0.84715(5) 0.78390(9) 0.22236(4)
N2_17 N 0.6990(3) 0.6688(4) 0.1468(2)
N3_15 N 0.4957(4) 0.4852(6) 0.1012(3)
H1_15 H 0.482(5) 0.453(7) 0.150(5)
H2_15 H 0.475(6) 0.467(8) 0.067(5)
O1_14 O 0.5939(3) 0.5998(4) 0.03729(17)
H5_14 H 0.800907 0.672014 0.983414
H6_14 H 0.845305 0.778092 0.975693
C1_18 C 0.3095(6) 0.0492(4) 0.2101(2)
C2_16 C 0.4423(7) 0.0092(5) 0.0953(3)
C3_16 C 0.4049(6) 0.0275(4) 0.1595(3)
C4_16 C 0.4253(6) 0.0459(4) 0.2307(3)
C5_16 C 0.4948(6) 0.0488(4) 0.2772(3)
Br1_18 Br 0.21610(9) 0.06324(7) 0.22236(4)
N2_18 N 0.3312(4) 0.0301(3) 0.1468(2)
N3_16 N 0.5148(6) 0.0104(5) 0.1012(3)
H1_16 H 0.547(7) 0.028(5) 0.150(5)
H2_16 H 0.533(8) 0.007(6) 0.067(5)
Zn2_3 Zn 0.71992(6) 0.00871(4) 0.95628(3)
O1_15 O 0.5998(4) 0.0060(3) 0.96271(17)
O3_9 O 0.8195(5) 0.1120(4) 0.91433(18)
C2_17 C 0.9003(5) 0.2244(7) 0.7620(3)
C3_17 C 0.9560(4) 0.2618(6) 0.8262(3)
C4_17 C 0.9540(4) 0.2414(6) 0.8974(3)
C5_17 C 0.8874(4) 0.1719(6) 0.9439(3)
N3_17 N 0.8290(4) 0.1519(6) 0.7679(3)
H1_17 H 0.815(5) 0.120(7) 0.817(5)
H2_17 H 0.808(6) 0.134(8) 0.734(5)
O1_16 O 0.9272(3) 0.2665(4) 0.70396(17)
C2_18 C 0.0997(5) 0.7756(7) 0.2380(3)
C3_18 C 0.0440(4) 0.7382(6) 0.1738(3)
C4_18 C 0.0460(4) 0.7586(6) 0.1026(3)
C5_18 C 0.1126(4) 0.8281(6) 0.0561(3)
N3_18 N 0.1710(4) 0.8481(6) 0.2321(3)
H1_18 H 0.185(5) 0.880(7) 0.183(5)
H2_18 H 0.192(6) 0.866(8) 0.266(5)
O1_17 O 0.0728(3) 0.7335(4) 0.29604(17)
O2_9 O 0.1805(3) 0.8880(4) 0.08567(18)
Zn3_9 Zn 0.28008(6) 0.99129(8) 0.04372(3)
O1_18 O 0.4002(4) 0.9940(3) 0.03729(17)
H5_15 H 0.128893 0.800907 0.0165861
H6_15 H 0.0672127 0.845305 0.0243065
H5_16 H 0.672014 0.871107 0.0165861
H6_16 H 0.778092 0.932787 0.0243065
H5_17 H 0.871107 0.199093 0.983414
H6_17 H 0.932787 0.154695 0.975693
H5_18 H 0.327986 0.128893 0.983414
H6_18 H 0.221908 0.0672127 0.975693
loop_
_geom_bond_atom_site_label_1
_geom_bond_atom_site_label_2
_geom_bond_site_symmetry_1
_geom_bond_site_symmetry_2
C1 Br1 1_555 1_555
N1 C1 1_555 1_555
N2 C1 1_555 1_555
Zn1 N2 1_555 1_555
N5 Zn1 1_555 1_555
N6 Zn1 1_555 1_555
H4 N6 1_555 1_555
O3 Zn1 1_555 1_555
N6 H5 1_555 1_555
N6 H6 1_555 1_555
C2 C3 1_555 1_555
C3 C4 1_555 1_555
C4 C5 1_555 1_555
N3 C2 1_555 1_555
H1 N3 1_555 1_555
H2 N3 1_555 1_555
O1 C2 1_555 1_555
O2 C5 1_555 1_555
Zn3 O2 1_555 1_555
N4 H3 1_555 1_555
N4_2 H3_2 1_555 1_555
C1_2 Br1_2 1_555 1_555
N1_2 C1_2 1_555 1_555
N2_2 C1_2 1_555 1_555
Zn1_2 N2_2 1_555 1_555
N5_2 Zn1_2 1_555 1_555
N6_2 Zn1_2 1_555 1_555
H4_2 N6_2 1_555 1_555
O3_2 Zn1_2 1_555 1_555
N6_2 H5_2 1_555 1_555
N6_2 H6_2 1_555 1_555
C1_3 Br1_3 1_555 1_555
C2_2 C3_2 1_555 1_555
C3_2 C4_2 1_555 1_555
C4_2 C5_2 1_555 1_555
N1_3 C1_3 1_555 1_555
N2_3 C1_3 1_555 1_555
N3_2 C2_2 1_555 1_555
H1_2 N3_2 1_555 1_555
H2_2 N3_2 1_555 1_555
O1_2 C2_2 1_555 1_555
O2_2 C5_2 1_555 1_555
Zn1_3 N2_3 1_555 1_555
N5_3 Zn1_3 1_555 1_555
N6_3 Zn1_3 1_555 1_555
H4_3 N6_3 1_555 1_555
O3_3 Zn1_3 1_555 1_555
Zn3_2 O2_2 1_555 1_555
C3_2 N2_3 1_555 1_555
C4_2 N1_3 1_555 1_555
O1_2 Zn1_3 1_555 1_555
N6_3 H5_3 1_555 1_555
N6_3 H6_3 1_555 1_555
N4_3 H3_3 1_555 1_555
N4_3 Zn2_2 1_555 1_555
C1_4 Br1_4 1_555 1_555
C2_3 C3_3 1_555 1_555
C3_3 C4_3 1_555 1_555
C4_3 C5_3 1_555 1_555
C5_3 N6_3 1_555 1_555
N5_3 C1_4 1_555 1_555
N2_4 C1_4 1_555 1_555
N3_3 C2_3 1_555 1_555
H1_3 N3_3 1_555 1_555
H2_3 N3_3 1_555 1_555
O1_3 C2_3 1_555 1_555
O2_3 C5_3 1_555 1_555
Zn1_4 N2_4 1_555 1_555
N5_4 Zn1_4 1_555 1_555
N6_4 Zn1_4 1_555 1_555
H4_4 N6_4 1_555 1_555
O3_4 Zn1_4 1_555 1_555
Zn3_3 O2_3 1_555 1_555
C3_3 N2_4 1_555 1_555
C4_3 N5_3 1_555 1_555
O1_3 Zn1_4 1_555 1_555
N6_4 H5_4 1_555 1_555
N6_4 H6_4 1_555 1_555
C2_4 C3_4 1_555 1_555
C3_4 C4_4 1_555 1_555
C4_4 C5_4 1_555 1_555
C5_4 N6 1_555 1_555
N3_4 C2_4 1_555 1_555
H1_4 N3_4 1_555 1_555
H2_4 N3_4 1_555 1_555
O1_4 C2_4 1_555 1_555
O2_4 C5_4 1_555 1_555
Zn3_4 O2_4 1_555 1_555
C4_4 N5 1_555 1_555
C1_5 Br1_5 1_555 1_555
N2_5 C1_5 1_555 1_555
Zn1_5 N2_5 1_555 1_555
N5_5 Zn1_5 1_555 1_555
N6_5 Zn1_5 1_555 1_555
H4_5 N6_5 1_555 1_555
O3_5 Zn1_5 1_555 1_555
N6_5 H5_5 1_555 1_555
N6_5 H6_5 1_555 1_555
C1_6 Br1_6 1_555 1_555
N2_6 C1_6 1_555 1_555
Zn1_6 N2_6 1_555 1_555
N5_6 Zn1_6 1_555 1_555
N6_6 Zn1_6 1_555 1_555
H4_6 N6_6 1_555 1_555
O3_6 Zn1_6 1_555 1_555
N6_6 H5_6 1_555 1_555
N6_6 H6_6 1_555 1_555
C2_5 C3_5 1_555 1_555
C3_5 C4_5 1_555 1_555
C4_5 C5_5 1_555 1_555
C5_5 N6_2 1_555 1_555
N3_5 C2_5 1_555 1_555
H1_5 N3_5 1_555 1_555
H2_5 N3_5 1_555 1_555
O1_5 C2_5 1_555 1_555
O2_5 C5_5 1_555 1_555
Zn3_5 O2_5 1_555 1_555
C4_5 N5_2 1_555 1_555
C1_7 Br1_7 1_555 1_555
C2_6 C3_6 1_555 1_555
C3_6 C4_6 1_555 1_555
C4_6 C5_6 1_555 1_555
C5_6 N6_6 1_555 1_555
N5_6 C1_7 1_555 1_555
N2_7 C1_7 1_555 1_555
N3_6 C2_6 1_555 1_555
H1_6 N3_6 1_555 1_555
H2_6 N3_6 1_555 1_555
O2_6 C5_6 1_555 1_555
Zn3_6 O2_6 1_555 1_555
C3_6 N2_7 1_555 1_555
C4_6 N5_6 1_555 1_555
O3_7 Zn2 1_555 1_555
O1_6 Zn2 1_555 1_555
C1_8 Br1_8 1_555 1_555
C2_7 C3_7 1_555 1_555
C3_7 C4_7 1_555 1_555
C4_7 C5_7 1_555 1_555
C5_7 N6_4 1_555 1_555
N5_4 C1_8 1_555 1_555
N2_8 C1_8 1_555 1_555
N3_7 C2_7 1_555 1_555
H1_7 N3_7 1_555 1_555
H2_7 N3_7 1_555 1_555
O1_7 C2_7 1_555 1_555
O2_7 C5_7 1_555 1_555
Zn2_2 N2_8 1_555 1_555
O3_8 Zn2_2 1_555 1_555
Zn3_7 O2_7 1_555 1_555
C3_7 N2_8 1_555 1_555
C4_7 N5_4 1_555 1_555
O1_7 Zn2_2 1_555 1_555
C1_9 Br1_9 1_555 1_555
C2_8 C3_8 1_555 1_555
C3_8 C4_8 1_555 1_555
C4_8 C5_8 1_555 1_555
C5_8 N6_5 1_555 1_555
N5_5 C1_9 1_555 1_555
N2_9 C1_9 1_555 1_555
N3_8 C2_8 1_555 1_555
H1_8 N3_8 1_555 1_555
H2_8 N3_8 1_555 1_555
O2_8 C5_8 1_555 1_555
Zn3_8 O2_8 1_555 1_555
C3_8 N2_9 1_555 1_555
C4_8 N5_5 1_555 1_555
N4_4 H3_4 1_555 1_555
C2_9 C3_9 1_555 1_555
C3_9 C4_9 1_555 1_555
C4_9 C5_9 1_555 1_555
N3_9 C2_9 1_555 1_555
H1_9 N3_9 1_555 1_555
H2_9 N3_9 1_555 1_555
O1_8 C2_9 1_555 1_555
O3_8 C5_9 1_555 1_555
C1_10 Br1_10 1_555 1_555
N1_4 C1_10 1_555 1_555
N2_10 C1_10 1_555 1_555
Zn3_8 N2_10 1_555 1_555
N5_7 Zn3_8 1_555 1_555
N6_7 Zn3_8 1_555 1_555
H4_7 N6_7 1_555 1_555
N6_7 H5_8 1_555 1_555
N6_7 H6_8 1_555 1_555
C1_11 Br1_11 1_555 1_555
N1_5 C1_11 1_555 1_555
N2_11 C1_11 1_555 1_555
Zn3_6 N2_11 1_555 1_555
N5_8 Zn3_6 1_555 1_555
N6_8 Zn3_6 1_555 1_555
H4_8 N6_8 1_555 1_555
N6_8 H5_9 1_555 1_555
N6_8 H6_9 1_555 1_555
N4_5 H3_5 1_555 1_555
N4_6 H3_6 1_555 1_555
N4_6 Zn3 1_555 1_555
C1_12 Br1_12 1_555 1_555
C2_10 C3_10 1_555 1_555
C3_10 C4_10 1_555 1_555
C4_10 C5_10 1_555 1_555
N1_6 C1_12 1_555 1_555
N2_12 C1_12 1_555 1_555
N3_10 C2_10 1_555 1_555
H1_10 N3_10 1_555 1_555
H2_10 N3_10 1_555 1_555
O1_9 C2_10 1_555 1_555
O3_7 C5_10 1_555 1_555
Zn3_7 N2_12 1_555 1_555
N5_9 Zn3_7 1_555 1_555
N6_9 Zn3_7 1_555 1_555
H4_9 N6_9 1_555 1_555
C3_10 N2_12 1_555 1_555
C4_10 N1_6 1_555 1_555
O1_9 Zn3_7 1_555 1_555
N6_9 H5_10 1_555 1_555
N6_9 H6_10 1_555 1_555
C1_13 Br1_13 1_555 1_555
C2_11 C3_11 1_555 1_555
C3_11 C4_11 1_555 1_555
C4_11 C5_11 1_555 1_555
C5_11 N6_9 1_555 1_555
N5_9 C1_13 1_555 1_555
N2_13 C1_13 1_555 1_555
N3_11 C2_11 1_555 1_555
H1_11 N3_11 1_555 1_555
H2_11 N3_11 1_555 1_555
O1_10 C2_11 1_555 1_555
O3_5 C5_11 1_555 1_555
Zn3_5 N2_13 1_555 1_555
N5_10 Zn3_5 1_555 1_555
N6_10 Zn3_5 1_555 1_555
H4_10 N6_10 1_555 1_555
C3_11 N2_13 1_555 1_555
C4_11 N5_9 1_555 1_555
O1_10 Zn3_5 1_555 1_555
N6_10 H5_11 1_555 1_555
N6_10 H6_11 1_555 1_555
C1_14 Br1_14 1_555 1_555
N2_14 C1_14 1_555 1_555
Zn3_3 N2_14 1_555 1_555
N5_11 Zn3_3 1_555 1_555
N6_11 Zn3_3 1_555 1_555
H4_11 N6_11 1_555 1_555
N6_11 H5_12 1_555 1_555
N6_11 H6_12 1_555 1_555
C2_12 C3_12 1_555 1_555
C3_12 C4_12 1_555 1_555
C4_12 C5_12 1_555 1_555
C5_12 N6_7 1_555 1_555
N3_12 C2_12 1_555 1_555
H1_12 N3_12 1_555 1_555
H2_12 N3_12 1_555 1_555
O1_11 C2_12 1_555 1_555
O3_6 C5_12 1_555 1_555
C4_12 N5_7 1_555 1_555
C2_13 C3_13 1_555 1_555
C3_13 C4_13 1_555 1_555
C4_13 C5_13 1_555 1_555
C5_13 N6_8 1_555 1_555
N3_13 C2_13 1_555 1_555
H1_13 N3_13 1_555 1_555
H2_13 N3_13 1_555 1_555
O1_12 C2_13 1_555 1_555
O3_4 C5_13 1_555 1_555
C4_13 N5_8 1_555 1_555
C1_15 Br1_15 1_555 1_555
N2_15 C1_15 1_555 1_555
Zn3_4 N2_15 1_555 1_555
N5_12 Zn3_4 1_555 1_555
N6_12 Zn3_4 1_555 1_555
H4_12 N6_12 1_555 1_555
N6_12 H5_13 1_555 1_555
N6_12 H6_13 1_555 1_555
O1_13 Zn3_2 1_555 1_555
C1_16 Br1_16 1_555 1_555
C2_14 C3_14 1_555 1_555
C3_14 C4_14 1_555 1_555
C4_14 C5_14 1_555 1_555
C5_14 N6_12 1_555 1_555
N5_12 C1_16 1_555 1_555
N2_16 C1_16 1_555 1_555
N3_14 C2_14 1_555 1_555
H1_14 N3_14 1_555 1_555
H2_14 N3_14 1_555 1_555
O3_2 C5_14 1_555 1_555
C3_14 N2_16 1_555 1_555
C4_14 N5_12 1_555 1_555
C1_17 Br1_17 1_555 1_555
C2_15 C3_15 1_555 1_555
C3_15 C4_15 1_555 1_555
C4_15 C5_15 1_555 1_555
C5_15 N6_10 1_555 1_555
N5_10 C1_17 1_555 1_555
N2_17 C1_17 1_555 1_555
N3_15 C2_15 1_555 1_555
H1_15 N3_15 1_555 1_555
H2_15 N3_15 1_555 1_555
O1_14 C2_15 1_555 1_555
O3_3 C5_15 1_555 1_555
Zn3 N2_17 1_555 1_555
C3_15 N2_17 1_555 1_555
C4_15 N5_10 1_555 1_555
O1_14 Zn3 1_555 1_555
C1_18 Br1_18 1_555 1_555
C2_16 C3_16 1_555 1_555
C3_16 C4_16 1_555 1_555
C4_16 C5_16 1_555 1_555
C5_16 N6_11 1_555 1_555
N5_11 C1_18 1_555 1_555
N2_18 C1_18 1_555 1_555
N3_16 C2_16 1_555 1_555
H1_16 N3_16 1_555 1_555
H2_16 N3_16 1_555 1_555
O3 C5_16 1_555 1_555
C3_16 N2_18 1_555 1_555
C4_16 N5_11 1_555 1_555
O3_9 Zn2_3 1_555 1_555
O1_15 Zn2_3 1_555 1_555
C2_17 C3_17 1_555 1_555
C3_17 C4_17 1_555 1_555
C4_17 C5_17 1_555 1_555
N3_17 C2_17 1_555 1_555
H1_17 N3_17 1_555 1_555
H2_17 N3_17 1_555 1_555
O1_16 C2_17 1_555 1_555
O3_9 C5_17 1_555 1_555
C2_18 C3_18 1_555 1_555
C3_18 C4_18 1_555 1_555
C4_18 C5_18 1_555 1_555
N3_18 C2_18 1_555 1_555
H1_18 N3_18 1_555 1_555
H2_18 N3_18 1_555 1_555
O1_17 C2_18 1_555 1_555
O2_9 C5_18 1_555 1_555
Zn3_9 O2_9 1_555 1_555
O1_18 Zn3_9 1_555 1_555

#END
