
###############################################################################
#
# This file contains modified crystal structure data generated from the
# MOF subset of the Cambridge Structural Database (CSD) v543 
# hosted by the Cambridge Crystallographic Data Centre (CCDC).
#
# This work is licensed under the Creative Commons
# Attribution-NonCommercial-ShareAlike 4.0 International License.
# To view a copy of this license, visit
# http://creativecommons.org/licenses/by-nc-sa/4.0/
# or send a letter to
# Creative Commons, PO Box 1866, Mountain View, CA 94042, USA.
#
# CIF created using the CSD Python API on 29 September 2022
# The structure has been converted into the P1 space group
# The structure has a 3D framework
# The original CSD entry HECQUB is in the orthorhombic crystal system
# The framework has been calculated to contain at least 10.0% void space
# The void calculation uses a probe of radius 1.32A, grid spacing 0.4
#
###############################################################################

data_HECQUB
_chemical_formula_moiety         '(C144 H96 N112 O14 Zn4)n'
_symmetry_cell_setting           triclinic
_symmetry_space_group_name_H-M   'P 1'
_symmetry_Int_Tables_number      1
_space_group_name_Hall           'P 1'
loop_
_symmetry_equiv_pos_site_id
_symmetry_equiv_pos_as_xyz
1 x,y,z
_cell_length_a                   16.638(5)
_cell_length_b                   20.198(3)
_cell_length_c                   26.273(3)
_cell_angle_alpha                90
_cell_angle_beta                 90
_cell_angle_gamma                90
_cell_volume                     8829.16
loop_
_atom_site_label
_atom_site_type_symbol
_atom_site_fract_x
_atom_site_fract_y
_atom_site_fract_z
Zn1 Zn 0.6250 0.6250 0.1250
N1 N 0.5349(4) 0.5496(3) 0.1258(2)
C1 C 0.5061(4) 0.5138(3) 0.0887(2)
C2 C 0.4997(9) 0.5259(7) 0.1693(3)
N2 N 0.4550(5) 0.4675(4) 0.1055(2)
H1 H 0.5195(4) 0.5198(3) 0.0547(2)
C3 C 0.4496(9) 0.4761(7) 0.1579(3)
H2 H 0.5092(9) 0.5421(7) 0.2019(3)
C4 C 0.4138(5) 0.4193(3) 0.0776(2)
H3 H 0.4178(9) 0.4521(7) 0.1804(3)
N3 N 0.3750 0.3750 0.1062(3)
N4 N 0.4170(3) 0.4235(2) 0.0280(2)
C5 C 0.3750 0.3750 0.0023(3)
C6 C 0.3362(5) 0.3307(3) 0.0776(2)
N5 N 0.2950(5) 0.2825(4) 0.1055(2)
N6 N 0.3330(3) 0.3265(2) 0.0280(2)
C7 C 0.2439(4) 0.2362(3) 0.0887(2)
C8 C 0.3004(9) 0.2739(7) 0.1579(3)
N7 N 0.2151(4) 0.2004(3) 0.1258(2)
H4 H 0.2305(4) 0.2302(3) 0.0547(2)
C9 C 0.2503(9) 0.2241(7) 0.1693(3)
H5 H 0.3322(9) 0.2979(7) 0.1804(3)
Zn3 Zn 0.1250 0.1250 0.1250
H6 H 0.2408(9) 0.2079(7) 0.2019(3)
O3 O 0.1250 0.1250 0.0445(2)
O1 O 0.3750 0.3750 0.9555(2)
Zn2 Zn 0.3750 0.3750 0.8750
N8 N 0.2849(4) 0.2996(3) 0.8742(2)
N9 N 0.4651(4) 0.4504(3) 0.8742(2)
N10 N 0.2849(4) 0.4504(3) 0.8758(2)
N11 N 0.4651(4) 0.2996(3) 0.8758(2)
O2 O 0.3750 0.3750 0.7945(2)
C10 C 0.2561(4) 0.2638(3) 0.9113(2)
C11 C 0.2497(9) 0.2759(7) 0.8307(3)
N12 N 0.2050(5) 0.2175(4) 0.8945(2)
H7 H 0.2695(4) 0.2698(3) 0.9453(2)
C12 C 0.1996(9) 0.2261(7) 0.8421(3)
H8 H 0.2592(9) 0.2921(7) 0.7981(3)
C13 C 0.1250 0.1250 0.9977(3)
C14 C 0.1638(5) 0.1693(3) 0.9224(2)
H9 H 0.1678(9) 0.2021(7) 0.8196(3)
N13 N 0.1670(3) 0.1735(2) 0.9720(2)
N14 N 0.0830(3) 0.0765(2) 0.9720(2)
N15 N 0.1250 0.1250 0.8938(3)
C15 C 0.0862(5) 0.0807(3) 0.9224(2)
N16 N 0.0450(5) 0.0325(4) 0.8945(2)
C17 C 0.0504(9) 0.0239(7) 0.8421(3)
H11 H 0.0822(9) 0.0479(7) 0.8196(3)
C16 C 0.9939(4) 0.9862(3) 0.9113(2)
N17 N 0.9651(4) 0.9504(3) 0.8742(2)
H10 H 0.9805(4) 0.9802(3) 0.9453(2)
Zn4 Zn 0.8750 0.8750 0.8750
H12 H 0.9908(9) 0.9579(7) 0.7981(3)
Zn1_2 Zn 0.6250 0.1250 0.6250
N1_2 N 0.5349(4) 0.0496(3) 0.6258(2)
C1_2 C 0.5061(4) 0.0138(3) 0.5887(2)
C2_2 C 0.4997(9) 0.0259(7) 0.6693(3)
H1_2 H 0.5195(4) 0.0198(3) 0.5547(2)
H2_2 H 0.5092(9) 0.0421(7) 0.7019(3)
N2_2 N 0.4550(5) 0.9675(4) 0.6055(2)
C3_2 C 0.4496(9) 0.9761(7) 0.6579(3)
C4_2 C 0.4138(5) 0.9193(3) 0.5776(2)
H3_2 H 0.4178(9) 0.9521(7) 0.6804(3)
N3_2 N 0.3750 0.8750 0.6062(3)
N4_2 N 0.4170(3) 0.9235(2) 0.5280(2)
C5_2 C 0.3750 0.8750 0.5023(3)
O1_2 O 0.3750 0.8750 0.4555(2)
C6_2 C 0.3362(5) 0.8307(3) 0.5776(2)
N5_2 N 0.2950(5) 0.7825(4) 0.6055(2)
N6_2 N 0.3330(3) 0.8265(2) 0.5280(2)
C7_2 C 0.2439(4) 0.7362(3) 0.5887(2)
C8_2 C 0.3004(9) 0.7739(7) 0.6579(3)
Zn2_2 Zn 0.3750 0.8750 0.3750
N7_2 N 0.2151(4) 0.7004(3) 0.6258(2)
H4_2 H 0.2305(4) 0.7302(3) 0.5547(2)
C9_2 C 0.2503(9) 0.7241(7) 0.6693(3)
H5_2 H 0.3322(9) 0.7979(7) 0.6804(3)
N8_2 N 0.2849(4) 0.7996(3) 0.3742(2)
N9_2 N 0.4651(4) 0.9504(3) 0.3742(2)
N10_2 N 0.2849(4) 0.9504(3) 0.3758(2)
N11_2 N 0.4651(4) 0.7996(3) 0.3758(2)
O2_2 O 0.3750 0.8750 0.2945(2)
Zn3_2 Zn 0.1250 0.6250 0.6250
H6_2 H 0.2408(9) 0.7079(7) 0.7019(3)
C10_2 C 0.2561(4) 0.7638(3) 0.4113(2)
C11_2 C 0.2497(9) 0.7759(7) 0.3307(3)
O3_2 O 0.1250 0.6250 0.5445(2)
N12_2 N 0.2050(5) 0.7175(4) 0.3945(2)
H7_2 H 0.2695(4) 0.7698(3) 0.4453(2)
C12_2 C 0.1996(9) 0.7261(7) 0.3421(3)
H8_2 H 0.2592(9) 0.7921(7) 0.2981(3)
C13_2 C 0.1250 0.6250 0.4977(3)
C14_2 C 0.1638(5) 0.6693(3) 0.4224(2)
H9_2 H 0.1678(9) 0.7021(7) 0.3196(3)
N13_2 N 0.1670(3) 0.6735(2) 0.4720(2)
N14_2 N 0.0830(3) 0.5765(2) 0.4720(2)
N15_2 N 0.1250 0.6250 0.3938(3)
C15_2 C 0.0862(5) 0.5807(3) 0.4224(2)
N16_2 N 0.0450(5) 0.5325(4) 0.3945(2)
C17_2 C 0.0504(9) 0.5239(7) 0.3421(3)
C18 C 0.0003(9) 0.4741(7) 0.3307(3)
H11_2 H 0.0822(9) 0.5479(7) 0.3196(3)
C16_2 C 0.9939(4) 0.4862(3) 0.4113(2)
N17_2 N 0.9651(4) 0.4504(3) 0.3742(2)
H10_2 H 0.9805(4) 0.4802(3) 0.4453(2)
Zn4_2 Zn 0.8750 0.3750 0.3750
H12_2 H 0.9908(9) 0.4579(7) 0.2981(3)
C7_3 C 0.2439(4) 0.0138(3) 0.1613(2)
N7_3 N 0.2151(4) 0.0496(3) 0.1242(2)
H4_3 H 0.2305(4) 0.0198(3) 0.1953(2)
C9_3 C 0.2503(9) 0.0259(7) 0.0807(3)
H6_3 H 0.2408(9) 0.0421(7) 0.0481(3)
O3_3 O 0.1250 0.1250 0.2055(2)
N12_3 N 0.2050(5) 0.0325(4) 0.3555(2)
C12_3 C 0.1996(9) 0.0239(7) 0.4079(3)
C13_3 C 0.1250 0.1250 0.2523(3)
C14_3 C 0.1638(5) 0.0807(3) 0.3276(2)
H9_3 H 0.1678(9) 0.0479(7) 0.4304(3)
N13_3 N 0.1670(3) 0.0765(2) 0.2780(2)
N14_3 N 0.0830(3) 0.1735(2) 0.2780(2)
N15_3 N 0.1250 0.1250 0.3562(3)
C15_3 C 0.0862(5) 0.1693(3) 0.3276(2)
N16_3 N 0.0450(5) 0.2175(4) 0.3555(2)
C17_3 C 0.0504(9) 0.2261(7) 0.4079(3)
C18_2 C 0.0003(9) 0.2759(7) 0.4193(3)
H11_3 H 0.0822(9) 0.2021(7) 0.4304(3)
N1_3 N 0.5349(4) 0.7004(3) 0.1242(2)
C1_3 C 0.5061(4) 0.7362(3) 0.1613(2)
C2_3 C 0.4997(9) 0.7241(7) 0.0807(3)
N2_3 N 0.4550(5) 0.7825(4) 0.1445(2)
H1_3 H 0.5195(4) 0.7302(3) 0.1953(2)
C3_3 C 0.4496(9) 0.7739(7) 0.0921(3)
H2_3 H 0.5092(9) 0.7079(7) 0.0481(3)
C4_3 C 0.4138(5) 0.8307(3) 0.1724(2)
H3_3 H 0.4178(9) 0.7979(7) 0.0696(3)
N3_3 N 0.3750 0.8750 0.1438(3)
N4_3 N 0.4170(3) 0.8265(2) 0.2220(2)
C5_3 C 0.3750 0.8750 0.2477(3)
C6_3 C 0.3362(5) 0.9193(3) 0.1724(2)
N5_3 N 0.2950(5) 0.9675(4) 0.1445(2)
N6_3 N 0.3330(3) 0.9235(2) 0.2220(2)
C8_3 C 0.3004(9) 0.9761(7) 0.0921(3)
H5_3 H 0.3322(9) 0.9521(7) 0.0696(3)
C10_3 C 0.2561(4) 0.9862(3) 0.3387(2)
C11_3 C 0.2497(9) 0.9741(7) 0.4193(3)
H7_3 H 0.2695(4) 0.9802(3) 0.3047(2)
H8_3 H 0.2592(9) 0.9579(7) 0.4519(3)
C16_3 C 0.9939(4) 0.2638(3) 0.3387(2)
N17_3 N 0.9651(4) 0.2996(3) 0.3758(2)
H10_3 H 0.9805(4) 0.2698(3) 0.3047(2)
H12_3 H 0.9908(9) 0.2921(7) 0.4519(3)
N1_4 N 0.0349(4) 0.5496(3) 0.6258(2)
C1_4 C 0.0061(4) 0.5138(3) 0.5887(2)
H1_4 H 0.0195(4) 0.5198(3) 0.5547(2)
H2_4 H 0.0092(9) 0.5421(7) 0.7019(3)
C2_4 C 0.9997(9) 0.5259(7) 0.6693(3)
N2_4 N 0.9550(5) 0.4675(4) 0.6055(2)
C3_4 C 0.9496(9) 0.4761(7) 0.6579(3)
C4_4 C 0.9138(5) 0.4193(3) 0.5776(2)
H3_4 H 0.9178(9) 0.4521(7) 0.6804(3)
N3_4 N 0.8750 0.3750 0.6062(3)
N4_4 N 0.9170(3) 0.4235(2) 0.5280(2)
C5_4 C 0.8750 0.3750 0.5023(3)
O1_3 O 0.8750 0.3750 0.4555(2)
C6_4 C 0.8362(5) 0.3307(3) 0.5776(2)
N5_4 N 0.7950(5) 0.2825(4) 0.6055(2)
N6_4 N 0.8330(3) 0.3265(2) 0.5280(2)
C7_4 C 0.7439(4) 0.2362(3) 0.5887(2)
C8_4 C 0.8004(9) 0.2739(7) 0.6579(3)
N7_4 N 0.7151(4) 0.2004(3) 0.6258(2)
H4_4 H 0.7305(4) 0.2302(3) 0.5547(2)
C9_4 C 0.7503(9) 0.2241(7) 0.6693(3)
H5_4 H 0.8322(9) 0.2979(7) 0.6804(3)
N8_3 N 0.7849(4) 0.2996(3) 0.3742(2)
N10_3 N 0.7849(4) 0.4504(3) 0.3758(2)
O2_3 O 0.8750 0.3750 0.2945(2)
H6_4 H 0.7408(9) 0.2079(7) 0.7019(3)
C10_4 C 0.7561(4) 0.2638(3) 0.4113(2)
C11_4 C 0.7497(9) 0.2759(7) 0.3307(3)
O3_4 O 0.6250 0.1250 0.5445(2)
N12_4 N 0.7050(5) 0.2175(4) 0.3945(2)
H7_4 H 0.7695(4) 0.2698(3) 0.4453(2)
C12_4 C 0.6996(9) 0.2261(7) 0.3421(3)
H8_4 H 0.7592(9) 0.2921(7) 0.2981(3)
C13_4 C 0.6250 0.1250 0.4977(3)
C14_4 C 0.6638(5) 0.1693(3) 0.4224(2)
H9_4 H 0.6678(9) 0.2021(7) 0.3196(3)
N13_4 N 0.6670(3) 0.1735(2) 0.4720(2)
N14_4 N 0.5830(3) 0.0765(2) 0.4720(2)
N15_4 N 0.6250 0.1250 0.3938(3)
C15_4 C 0.5862(5) 0.0807(3) 0.4224(2)
N16_4 N 0.5450(5) 0.0325(4) 0.3945(2)
C17_4 C 0.5504(9) 0.0239(7) 0.3421(3)
H11_4 H 0.5822(9) 0.0479(7) 0.3196(3)
C16_4 C 0.4939(4) 0.9862(3) 0.4113(2)
H10_4 H 0.4805(4) 0.9802(3) 0.4453(2)
C18_3 C 0.5003(9) 0.9741(7) 0.3307(3)
H12_4 H 0.4908(9) 0.9579(7) 0.2981(3)
C7_5 C 0.0061(4) 0.2362(3) 0.1613(2)
N7_5 N 0.0349(4) 0.2004(3) 0.1242(2)
H4_5 H 0.0195(4) 0.2302(3) 0.1953(2)
H6_5 H 0.0092(9) 0.2079(7) 0.0481(3)
N1_5 N 0.7151(4) 0.5496(3) 0.1242(2)
C1_5 C 0.7439(4) 0.5138(3) 0.1613(2)
C2_5 C 0.7503(9) 0.5259(7) 0.0807(3)
N2_5 N 0.7950(5) 0.4675(4) 0.1445(2)
H1_5 H 0.7305(4) 0.5198(3) 0.1953(2)
C3_5 C 0.8004(9) 0.4761(7) 0.0921(3)
H2_5 H 0.7408(9) 0.5421(7) 0.0481(3)
C4_5 C 0.8362(5) 0.4193(3) 0.1724(2)
H3_5 H 0.8322(9) 0.4521(7) 0.0696(3)
N3_5 N 0.8750 0.3750 0.1438(3)
N4_5 N 0.8330(3) 0.4235(2) 0.2220(2)
C5_5 C 0.8750 0.3750 0.2477(3)
C6_5 C 0.9138(5) 0.3307(3) 0.1724(2)
N5_5 N 0.9550(5) 0.2825(4) 0.1445(2)
N6_5 N 0.9170(3) 0.3265(2) 0.2220(2)
C8_5 C 0.9496(9) 0.2739(7) 0.0921(3)
C9_5 C 0.9997(9) 0.2241(7) 0.0807(3)
H5_5 H 0.9178(9) 0.2979(7) 0.0696(3)
N1_6 N 0.0349(4) 0.0496(3) 0.1258(2)
C1_6 C 0.0061(4) 0.0138(3) 0.0887(2)
H1_6 H 0.0195(4) 0.0198(3) 0.0547(2)
H2_6 H 0.0092(9) 0.0421(7) 0.2019(3)
N2_6 N 0.9550(5) 0.9675(4) 0.1055(2)
C3_6 C 0.9496(9) 0.9761(7) 0.1579(3)
C4_6 C 0.9138(5) 0.9193(3) 0.0776(2)
H3_6 H 0.9178(9) 0.9521(7) 0.1804(3)
N3_6 N 0.8750 0.8750 0.1062(3)
N4_6 N 0.9170(3) 0.9235(2) 0.0280(2)
C5_6 C 0.8750 0.8750 0.0023(3)
C6_6 C 0.8362(5) 0.8307(3) 0.0776(2)
N5_6 N 0.7950(5) 0.7825(4) 0.1055(2)
N6_6 N 0.8330(3) 0.8265(2) 0.0280(2)
C7_6 C 0.7439(4) 0.7362(3) 0.0887(2)
C8_6 C 0.8004(9) 0.7739(7) 0.1579(3)
N7_6 N 0.7151(4) 0.7004(3) 0.1258(2)
H4_6 H 0.7305(4) 0.7302(3) 0.0547(2)
C9_6 C 0.7503(9) 0.7241(7) 0.1693(3)
H5_6 H 0.8322(9) 0.7979(7) 0.1804(3)
H6_6 H 0.7408(9) 0.7079(7) 0.2019(3)
O3_5 O 0.6250 0.6250 0.0445(2)
O1_4 O 0.8750 0.8750 0.9555(2)
N8_4 N 0.7849(4) 0.7996(3) 0.8742(2)
N10_4 N 0.7849(4) 0.9504(3) 0.8758(2)
N11_3 N 0.9651(4) 0.7996(3) 0.8758(2)
O2_4 O 0.8750 0.8750 0.7945(2)
C10_5 C 0.7561(4) 0.7638(3) 0.9113(2)
C11_5 C 0.7497(9) 0.7759(7) 0.8307(3)
N12_5 N 0.7050(5) 0.7175(4) 0.8945(2)
H7_5 H 0.7695(4) 0.7698(3) 0.9453(2)
C12_5 C 0.6996(9) 0.7261(7) 0.8421(3)
H8_5 H 0.7592(9) 0.7921(7) 0.7981(3)
C13_5 C 0.6250 0.6250 0.9977(3)
C14_5 C 0.6638(5) 0.6693(3) 0.9224(2)
H9_5 H 0.6678(9) 0.7021(7) 0.8196(3)
N13_5 N 0.6670(3) 0.6735(2) 0.9720(2)
N14_5 N 0.5830(3) 0.5765(2) 0.9720(2)
N15_5 N 0.6250 0.6250 0.8938(3)
C15_5 C 0.5862(5) 0.5807(3) 0.9224(2)
N16_5 N 0.5450(5) 0.5325(4) 0.8945(2)
C16_5 C 0.4939(4) 0.4862(3) 0.9113(2)
C17_5 C 0.5504(9) 0.5239(7) 0.8421(3)
H10_5 H 0.4805(4) 0.4802(3) 0.9453(2)
C18_4 C 0.5003(9) 0.4741(7) 0.8307(3)
H11_5 H 0.5822(9) 0.5479(7) 0.8196(3)
H12_5 H 0.4908(9) 0.4579(7) 0.7981(3)
N1_7 N 0.2151(4) 0.5496(3) 0.6242(2)
C1_7 C 0.2439(4) 0.5138(3) 0.6613(2)
C2_6 C 0.2503(9) 0.5259(7) 0.5807(3)
N2_7 N 0.2950(5) 0.4675(4) 0.6445(2)
H1_7 H 0.2305(4) 0.5198(3) 0.6953(2)
C3_7 C 0.3004(9) 0.4761(7) 0.5921(3)
H2_7 H 0.2408(9) 0.5421(7) 0.5481(3)
C4_7 C 0.3362(5) 0.4193(3) 0.6724(2)
H3_7 H 0.3322(9) 0.4521(7) 0.5696(3)
N3_7 N 0.3750 0.3750 0.6438(3)
N4_7 N 0.3330(3) 0.4235(2) 0.7220(2)
C5_7 C 0.3750 0.3750 0.7477(3)
C6_7 C 0.4138(5) 0.3307(3) 0.6724(2)
N5_7 N 0.4550(5) 0.2825(4) 0.6445(2)
N6_7 N 0.4170(3) 0.3265(2) 0.7220(2)
C7_7 C 0.5061(4) 0.2362(3) 0.6613(2)
C8_7 C 0.4496(9) 0.2739(7) 0.5921(3)
N7_7 N 0.5349(4) 0.2004(3) 0.6242(2)
H4_7 H 0.5195(4) 0.2302(3) 0.6953(2)
C9_7 C 0.4997(9) 0.2241(7) 0.5807(3)
H5_7 H 0.4178(9) 0.2979(7) 0.5696(3)
H6_7 H 0.5092(9) 0.2079(7) 0.5481(3)
C10_6 C 0.4939(4) 0.2638(3) 0.8387(2)
C11_6 C 0.5003(9) 0.2759(7) 0.9193(3)
O3_6 O 0.6250 0.1250 0.7055(2)
N12_6 N 0.5450(5) 0.2175(4) 0.8555(2)
H7_6 H 0.4805(4) 0.2698(3) 0.8047(2)
C12_6 C 0.5504(9) 0.2261(7) 0.9079(3)
H8_6 H 0.4908(9) 0.2921(7) 0.9519(3)
C13_6 C 0.6250 0.1250 0.7523(3)
C14_6 C 0.5862(5) 0.1693(3) 0.8276(2)
H9_6 H 0.5822(9) 0.2021(7) 0.9304(3)
N13_6 N 0.5830(3) 0.1735(2) 0.7780(2)
N14_6 N 0.6670(3) 0.0765(2) 0.7780(2)
N15_6 N 0.6250 0.1250 0.8562(3)
C15_6 C 0.6638(5) 0.0807(3) 0.8276(2)
N16_6 N 0.7050(5) 0.0325(4) 0.8555(2)
C17_6 C 0.6996(9) 0.0239(7) 0.9079(3)
H11_6 H 0.6678(9) 0.0479(7) 0.9304(3)
C16_6 C 0.7561(4) 0.9862(3) 0.8387(2)
H10_6 H 0.7695(4) 0.9802(3) 0.8047(2)
C18_5 C 0.7497(9) 0.9741(7) 0.9193(3)
H12_6 H 0.7592(9) 0.9579(7) 0.9519(3)
C10_7 C 0.2561(4) 0.4862(3) 0.8387(2)
C11_7 C 0.2497(9) 0.4741(7) 0.9193(3)
O3_7 O 0.1250 0.6250 0.7055(2)
N12_7 N 0.2050(5) 0.5325(4) 0.8555(2)
H7_7 H 0.2695(4) 0.4802(3) 0.8047(2)
C12_7 C 0.1996(9) 0.5239(7) 0.9079(3)
H8_7 H 0.2592(9) 0.4579(7) 0.9519(3)
C13_7 C 0.1250 0.6250 0.7523(3)
C14_7 C 0.1638(5) 0.5807(3) 0.8276(2)
H9_7 H 0.1678(9) 0.5479(7) 0.9304(3)
N13_7 N 0.1670(3) 0.5765(2) 0.7780(2)
N14_7 N 0.0830(3) 0.6735(2) 0.7780(2)
N15_7 N 0.1250 0.6250 0.8562(3)
C15_7 C 0.0862(5) 0.6693(3) 0.8276(2)
N16_7 N 0.0450(5) 0.7175(4) 0.8555(2)
C17_7 C 0.0504(9) 0.7261(7) 0.9079(3)
C18_6 C 0.0003(9) 0.7759(7) 0.9193(3)
H11_7 H 0.0822(9) 0.7021(7) 0.9304(3)
C16_7 C 0.9939(4) 0.7638(3) 0.8387(2)
H10_7 H 0.9805(4) 0.7698(3) 0.8047(2)
H12_7 H 0.9908(9) 0.7921(7) 0.9519(3)
C10_8 C 0.4939(4) 0.7638(3) 0.3387(2)
C11_8 C 0.5003(9) 0.7759(7) 0.4193(3)
O3_8 O 0.6250 0.6250 0.2055(2)
N12_8 N 0.5450(5) 0.7175(4) 0.3555(2)
H7_8 H 0.4805(4) 0.7698(3) 0.3047(2)
C12_8 C 0.5504(9) 0.7261(7) 0.4079(3)
H8_8 H 0.4908(9) 0.7921(7) 0.4519(3)
C13_8 C 0.6250 0.6250 0.2523(3)
C14_8 C 0.5862(5) 0.6693(3) 0.3276(2)
H9_8 H 0.5822(9) 0.7021(7) 0.4304(3)
N13_8 N 0.5830(3) 0.6735(2) 0.2780(2)
N14_8 N 0.6670(3) 0.5765(2) 0.2780(2)
N15_8 N 0.6250 0.6250 0.3562(3)
C15_8 C 0.6638(5) 0.5807(3) 0.3276(2)
N16_8 N 0.7050(5) 0.5325(4) 0.3555(2)
C16_8 C 0.7561(4) 0.4862(3) 0.3387(2)
C17_8 C 0.6996(9) 0.5239(7) 0.4079(3)
H10_8 H 0.7695(4) 0.4802(3) 0.3047(2)
C18_7 C 0.7497(9) 0.4741(7) 0.4193(3)
H11_8 H 0.6678(9) 0.5479(7) 0.4304(3)
H12_8 H 0.7592(9) 0.4579(7) 0.4519(3)
C7_8 C 0.0061(4) 0.7362(3) 0.6613(2)
N7_8 N 0.0349(4) 0.7004(3) 0.6242(2)
H4_8 H 0.0195(4) 0.7302(3) 0.6953(2)
H6_8 H 0.0092(9) 0.7079(7) 0.5481(3)
N1_8 N 0.7151(4) 0.0496(3) 0.6242(2)
C1_8 C 0.7439(4) 0.0138(3) 0.6613(2)
C2_7 C 0.7503(9) 0.0259(7) 0.5807(3)
H1_8 H 0.7305(4) 0.0198(3) 0.6953(2)
H2_8 H 0.7408(9) 0.0421(7) 0.5481(3)
N2_8 N 0.7950(5) 0.9675(4) 0.6445(2)
C3_8 C 0.8004(9) 0.9761(7) 0.5921(3)
C4_8 C 0.8362(5) 0.9193(3) 0.6724(2)
H3_8 H 0.8322(9) 0.9521(7) 0.5696(3)
N3_8 N 0.8750 0.8750 0.6438(3)
N4_8 N 0.8330(3) 0.9235(2) 0.7220(2)
C5_8 C 0.8750 0.8750 0.7477(3)
C6_8 C 0.9138(5) 0.8307(3) 0.6724(2)
N5_8 N 0.9550(5) 0.7825(4) 0.6445(2)
N6_8 N 0.9170(3) 0.8265(2) 0.7220(2)
C8_8 C 0.9496(9) 0.7739(7) 0.5921(3)
C9_8 C 0.9997(9) 0.7241(7) 0.5807(3)
H5_8 H 0.9178(9) 0.7979(7) 0.5696(3)
C18_8 C 0.0003(9) 0.9741(7) 0.8307(3)
C2_8 C 0.9997(9) 0.0259(7) 0.1693(3)
loop_
_geom_bond_atom_site_label_1
_geom_bond_atom_site_label_2
_geom_bond_site_symmetry_1
_geom_bond_site_symmetry_2
Zn1 N1 1_555 1_555
N1 C1 1_555 1_555
C1 N2 1_555 1_555
C2 N1 1_555 1_555
N2 C3 1_555 1_555
H1 C1 1_555 1_555
C3 C2 1_555 1_555
H2 C2 1_555 1_555
C4 N2 1_555 1_555
H3 C3 1_555 1_555
N3 C4 1_555 1_555
N4 C4 1_555 1_555
C5 N4 1_555 1_555
C6 N3 1_555 1_555
N5 C6 1_555 1_555
N6 C5 1_555 1_555
C7 N5 1_555 1_555
C8 N5 1_555 1_555
N7 C7 1_555 1_555
H4 C7 1_555 1_555
C9 C8 1_555 1_555
H5 C8 1_555 1_555
Zn3 N7 1_555 1_555
H6 C9 1_555 1_555
O3 Zn3 1_555 1_555
C6 N6 1_555 1_555
N7 C9 1_555 1_555
Zn2 O1 1_555 1_555
N8 Zn2 1_555 1_555
N9 Zn2 1_555 1_555
N10 Zn2 1_555 1_555
N11 Zn2 1_555 1_555
O2 Zn2 1_555 1_555
C10 N8 1_555 1_555
C11 N8 1_555 1_555
N12 C10 1_555 1_555
H7 C10 1_555 1_555
C12 C11 1_555 1_555
H8 C11 1_555 1_555
C14 N12 1_555 1_555
H9 C12 1_555 1_555
N13 C13 1_555 1_555
N14 C13 1_555 1_555
N15 C14 1_555 1_555
C15 N14 1_555 1_555
N16 C15 1_555 1_555
C17 N16 1_555 1_555
H11 C17 1_555 1_555
N12 C12 1_555 1_555
C14 N13 1_555 1_555
N15 C15 1_555 1_555
N17 C16 1_555 1_555
H10 C16 1_555 1_555
Zn4 N17 1_555 1_555
Zn1_2 N1_2 1_555 1_555
N1_2 C1_2 1_555 1_555
C2_2 N1_2 1_555 1_555
H1_2 C1_2 1_555 1_555
H2_2 C2_2 1_555 1_555
N2_2 C3_2 1_555 1_555
C4_2 N2_2 1_555 1_555
H3_2 C3_2 1_555 1_555
N3_2 C4_2 1_555 1_555
N4_2 C4_2 1_555 1_555
C5_2 N4_2 1_555 1_555
O1_2 C5_2 1_555 1_555
C6_2 N3_2 1_555 1_555
N5_2 C6_2 1_555 1_555
N6_2 C5_2 1_555 1_555
C7_2 N5_2 1_555 1_555
C8_2 N5_2 1_555 1_555
Zn2_2 O1_2 1_555 1_555
N7_2 C7_2 1_555 1_555
H4_2 C7_2 1_555 1_555
C9_2 C8_2 1_555 1_555
H5_2 C8_2 1_555 1_555
N8_2 Zn2_2 1_555 1_555
N9_2 Zn2_2 1_555 1_555
N10_2 Zn2_2 1_555 1_555
N11_2 Zn2_2 1_555 1_555
O2_2 Zn2_2 1_555 1_555
Zn3_2 N7_2 1_555 1_555
H6_2 C9_2 1_555 1_555
C10_2 N8_2 1_555 1_555
C11_2 N8_2 1_555 1_555
O3_2 Zn3_2 1_555 1_555
N12_2 C10_2 1_555 1_555
H7_2 C10_2 1_555 1_555
C12_2 C11_2 1_555 1_555
H8_2 C11_2 1_555 1_555
C13_2 O3_2 1_555 1_555
C14_2 N12_2 1_555 1_555
H9_2 C12_2 1_555 1_555
N13_2 C13_2 1_555 1_555
N14_2 C13_2 1_555 1_555
N15_2 C14_2 1_555 1_555
C15_2 N14_2 1_555 1_555
N16_2 C15_2 1_555 1_555
C17_2 N16_2 1_555 1_555
C18 C17_2 1_555 1_555
H11_2 C17_2 1_555 1_555
C6_2 N6_2 1_555 1_555
N7_2 C9_2 1_555 1_555
N12_2 C12_2 1_555 1_555
C14_2 N13_2 1_555 1_555
N15_2 C15_2 1_555 1_555
N17_2 C16_2 1_555 1_555
H10_2 C16_2 1_555 1_555
Zn4_2 N17_2 1_555 1_555
N7_3 C7_3 1_555 1_555
H4_3 C7_3 1_555 1_555
Zn3 N7_3 1_555 1_555
H6_3 C9_3 1_555 1_555
O3_3 Zn3 1_555 1_555
C13_3 O3_3 1_555 1_555
C14_3 N12_3 1_555 1_555
H9_3 C12_3 1_555 1_555
N13_3 C13_3 1_555 1_555
N14_3 C13_3 1_555 1_555
N15_3 C14_3 1_555 1_555
C15_3 N14_3 1_555 1_555
N16_3 C15_3 1_555 1_555
C17_3 N16_3 1_555 1_555
C18_2 C17_3 1_555 1_555
H11_3 C17_3 1_555 1_555
N7_3 C9_3 1_555 1_555
N12_3 C12_3 1_555 1_555
C14_3 N13_3 1_555 1_555
N15_3 C15_3 1_555 1_555
Zn1 N1_3 1_555 1_555
N1_3 C1_3 1_555 1_555
C1_3 N2_3 1_555 1_555
C2_3 N1_3 1_555 1_555
N2_3 C3_3 1_555 1_555
H1_3 C1_3 1_555 1_555
C3_3 C2_3 1_555 1_555
H2_3 C2_3 1_555 1_555
C4_3 N2_3 1_555 1_555
H3_3 C3_3 1_555 1_555
N3_3 C4_3 1_555 1_555
N4_3 C4_3 1_555 1_555
C5_3 N4_3 1_555 1_555
O2_2 C5_3 1_555 1_555
C6_3 N3_3 1_555 1_555
N5_3 C6_3 1_555 1_555
N6_3 C5_3 1_555 1_555
C8_3 N5_3 1_555 1_555
H5_3 C8_3 1_555 1_555
C10_3 N10_2 1_555 1_555
C11_3 N10_2 1_555 1_555
H7_3 C10_3 1_555 1_555
H8_3 C11_3 1_555 1_555
C6_3 N6_3 1_555 1_555
N17_3 C16_3 1_555 1_555
H10_3 C16_3 1_555 1_555
Zn4_2 N17_3 1_555 1_555
Zn3_2 N1_4 1_555 1_555
N1_4 C1_4 1_555 1_555
H1_4 C1_4 1_555 1_555
N2_4 C3_4 1_555 1_555
C3_4 C2_4 1_555 1_555
C4_4 N2_4 1_555 1_555
H3_4 C3_4 1_555 1_555
N3_4 C4_4 1_555 1_555
N4_4 C4_4 1_555 1_555
C5_4 N4_4 1_555 1_555
O1_3 C5_4 1_555 1_555
C6_4 N3_4 1_555 1_555
N5_4 C6_4 1_555 1_555
N6_4 C5_4 1_555 1_555
C7_4 N5_4 1_555 1_555
C8_4 N5_4 1_555 1_555
Zn4_2 O1_3 1_555 1_555
N7_4 C7_4 1_555 1_555
H4_4 C7_4 1_555 1_555
C9_4 C8_4 1_555 1_555
H5_4 C8_4 1_555 1_555
N8_3 Zn4_2 1_555 1_555
N10_3 Zn4_2 1_555 1_555
O2_3 Zn4_2 1_555 1_555
Zn1_2 N7_4 1_555 1_555
H6_4 C9_4 1_555 1_555
C10_4 N8_3 1_555 1_555
C11_4 N8_3 1_555 1_555
O3_4 Zn1_2 1_555 1_555
N12_4 C10_4 1_555 1_555
H7_4 C10_4 1_555 1_555
C12_4 C11_4 1_555 1_555
H8_4 C11_4 1_555 1_555
C13_4 O3_4 1_555 1_555
C14_4 N12_4 1_555 1_555
H9_4 C12_4 1_555 1_555
N13_4 C13_4 1_555 1_555
N14_4 C13_4 1_555 1_555
N15_4 C14_4 1_555 1_555
C15_4 N14_4 1_555 1_555
N16_4 C15_4 1_555 1_555
C17_4 N16_4 1_555 1_555
H11_4 C17_4 1_555 1_555
C6_4 N6_4 1_555 1_555
N7_4 C9_4 1_555 1_555
N12_4 C12_4 1_555 1_555
C14_4 N13_4 1_555 1_555
N15_4 C15_4 1_555 1_555
N9_2 C16_4 1_555 1_555
H10_4 C16_4 1_555 1_555
H12_4 C18_3 1_555 1_555
N9_2 C18_3 1_555 1_555
N7_5 C7_5 1_555 1_555
H4_5 C7_5 1_555 1_555
Zn3 N7_5 1_555 1_555
Zn1 N1_5 1_555 1_555
N1_5 C1_5 1_555 1_555
C1_5 N2_5 1_555 1_555
C2_5 N1_5 1_555 1_555
N2_5 C3_5 1_555 1_555
H1_5 C1_5 1_555 1_555
C3_5 C2_5 1_555 1_555
H2_5 C2_5 1_555 1_555
C4_5 N2_5 1_555 1_555
H3_5 C3_5 1_555 1_555
N3_5 C4_5 1_555 1_555
N4_5 C4_5 1_555 1_555
C5_5 N4_5 1_555 1_555
O2_3 C5_5 1_555 1_555
C6_5 N3_5 1_555 1_555
N5_5 C6_5 1_555 1_555
N6_5 C5_5 1_555 1_555
C8_5 N5_5 1_555 1_555
C9_5 C8_5 1_555 1_555
H5_5 C8_5 1_555 1_555
C6_5 N6_5 1_555 1_555
Zn3 N1_6 1_555 1_555
N1_6 C1_6 1_555 1_555
H1_6 C1_6 1_555 1_555
N2_6 C3_6 1_555 1_555
C4_6 N2_6 1_555 1_555
H3_6 C3_6 1_555 1_555
N3_6 C4_6 1_555 1_555
N4_6 C4_6 1_555 1_555
C5_6 N4_6 1_555 1_555
C6_6 N3_6 1_555 1_555
N5_6 C6_6 1_555 1_555
N6_6 C5_6 1_555 1_555
C7_6 N5_6 1_555 1_555
C8_6 N5_6 1_555 1_555
N7_6 C7_6 1_555 1_555
H4_6 C7_6 1_555 1_555
C9_6 C8_6 1_555 1_555
H5_6 C8_6 1_555 1_555
Zn1 N7_6 1_555 1_555
H6_6 C9_6 1_555 1_555
O3_5 Zn1 1_555 1_555
C6_6 N6_6 1_555 1_555
N7_6 C9_6 1_555 1_555
Zn4 O1_4 1_555 1_555
N8_4 Zn4 1_555 1_555
N10_4 Zn4 1_555 1_555
N11_3 Zn4 1_555 1_555
O2_4 Zn4 1_555 1_555
C10_5 N8_4 1_555 1_555
C11_5 N8_4 1_555 1_555
N12_5 C10_5 1_555 1_555
H7_5 C10_5 1_555 1_555
C12_5 C11_5 1_555 1_555
H8_5 C11_5 1_555 1_555
C14_5 N12_5 1_555 1_555
H9_5 C12_5 1_555 1_555
N13_5 C13_5 1_555 1_555
N14_5 C13_5 1_555 1_555
N15_5 C14_5 1_555 1_555
C15_5 N14_5 1_555 1_555
N16_5 C15_5 1_555 1_555
C16_5 N16_5 1_555 1_555
C17_5 N16_5 1_555 1_555
N9 C16_5 1_555 1_555
H10_5 C16_5 1_555 1_555
C18_4 C17_5 1_555 1_555
H11_5 C17_5 1_555 1_555
H12_5 C18_4 1_555 1_555
N12_5 C12_5 1_555 1_555
C14_5 N13_5 1_555 1_555
N15_5 C15_5 1_555 1_555
N9 C18_4 1_555 1_555
Zn3_2 N1_7 1_555 1_555
N1_7 C1_7 1_555 1_555
C1_7 N2_7 1_555 1_555
C2_6 N1_7 1_555 1_555
N2_7 C3_7 1_555 1_555
H1_7 C1_7 1_555 1_555
C3_7 C2_6 1_555 1_555
H2_7 C2_6 1_555 1_555
C4_7 N2_7 1_555 1_555
H3_7 C3_7 1_555 1_555
N3_7 C4_7 1_555 1_555
N4_7 C4_7 1_555 1_555
C5_7 N4_7 1_555 1_555
O2 C5_7 1_555 1_555
C6_7 N3_7 1_555 1_555
N5_7 C6_7 1_555 1_555
N6_7 C5_7 1_555 1_555
C7_7 N5_7 1_555 1_555
C8_7 N5_7 1_555 1_555
N7_7 C7_7 1_555 1_555
H4_7 C7_7 1_555 1_555
C9_7 C8_7 1_555 1_555
H5_7 C8_7 1_555 1_555
Zn1_2 N7_7 1_555 1_555
H6_7 C9_7 1_555 1_555
C10_6 N11 1_555 1_555
C11_6 N11 1_555 1_555
O3_6 Zn1_2 1_555 1_555
N12_6 C10_6 1_555 1_555
H7_6 C10_6 1_555 1_555
C12_6 C11_6 1_555 1_555
H8_6 C11_6 1_555 1_555
C13_6 O3_6 1_555 1_555
C14_6 N12_6 1_555 1_555
H9_6 C12_6 1_555 1_555
N13_6 C13_6 1_555 1_555
N14_6 C13_6 1_555 1_555
N15_6 C14_6 1_555 1_555
C15_6 N14_6 1_555 1_555
N16_6 C15_6 1_555 1_555
C17_6 N16_6 1_555 1_555
H11_6 C17_6 1_555 1_555
C6_7 N6_7 1_555 1_555
N7_7 C9_7 1_555 1_555
N12_6 C12_6 1_555 1_555
C14_6 N13_6 1_555 1_555
N15_6 C15_6 1_555 1_555
N10_4 C16_6 1_555 1_555
H10_6 C16_6 1_555 1_555
H12_6 C18_5 1_555 1_555
N10_4 C18_5 1_555 1_555
C10_7 N10 1_555 1_555
C11_7 N10 1_555 1_555
O3_7 Zn3_2 1_555 1_555
N12_7 C10_7 1_555 1_555
H7_7 C10_7 1_555 1_555
C12_7 C11_7 1_555 1_555
H8_7 C11_7 1_555 1_555
C13_7 O3_7 1_555 1_555
C14_7 N12_7 1_555 1_555
H9_7 C12_7 1_555 1_555
N13_7 C13_7 1_555 1_555
N14_7 C13_7 1_555 1_555
N15_7 C14_7 1_555 1_555
C15_7 N14_7 1_555 1_555
N16_7 C15_7 1_555 1_555
C17_7 N16_7 1_555 1_555
C18_6 C17_7 1_555 1_555
H11_7 C17_7 1_555 1_555
N12_7 C12_7 1_555 1_555
C14_7 N13_7 1_555 1_555
N15_7 C15_7 1_555 1_555
N11_3 C16_7 1_555 1_555
H10_7 C16_7 1_555 1_555
C10_8 N11_2 1_555 1_555
C11_8 N11_2 1_555 1_555
O3_8 Zn1 1_555 1_555
N12_8 C10_8 1_555 1_555
H7_8 C10_8 1_555 1_555
C12_8 C11_8 1_555 1_555
H8_8 C11_8 1_555 1_555
C13_8 O3_8 1_555 1_555
C14_8 N12_8 1_555 1_555
H9_8 C12_8 1_555 1_555
N13_8 C13_8 1_555 1_555
N14_8 C13_8 1_555 1_555
N15_8 C14_8 1_555 1_555
C15_8 N14_8 1_555 1_555
N16_8 C15_8 1_555 1_555
C16_8 N16_8 1_555 1_555
C17_8 N16_8 1_555 1_555
N10_3 C16_8 1_555 1_555
H10_8 C16_8 1_555 1_555
C18_7 C17_8 1_555 1_555
H11_8 C17_8 1_555 1_555
H12_8 C18_7 1_555 1_555
N12_8 C12_8 1_555 1_555
C14_8 N13_8 1_555 1_555
N15_8 C15_8 1_555 1_555
N10_3 C18_7 1_555 1_555
N7_8 C7_8 1_555 1_555
H4_8 C7_8 1_555 1_555
Zn3_2 N7_8 1_555 1_555
Zn1_2 N1_8 1_555 1_555
N1_8 C1_8 1_555 1_555
C2_7 N1_8 1_555 1_555
H1_8 C1_8 1_555 1_555
H2_8 C2_7 1_555 1_555
N2_8 C3_8 1_555 1_555
C4_8 N2_8 1_555 1_555
H3_8 C3_8 1_555 1_555
N3_8 C4_8 1_555 1_555
N4_8 C4_8 1_555 1_555
C5_8 N4_8 1_555 1_555
O2_4 C5_8 1_555 1_555
C6_8 N3_8 1_555 1_555
N5_8 C6_8 1_555 1_555
N6_8 C5_8 1_555 1_555
C8_8 N5_8 1_555 1_555
C9_8 C8_8 1_555 1_555
H5_8 C8_8 1_555 1_555
C6_8 N6_8 1_555 1_555

#END
