
###############################################################################
#
# This file contains modified crystal structure data generated from the
# MOF subset of the Cambridge Structural Database (CSD) v543 
# hosted by the Cambridge Crystallographic Data Centre (CCDC).
#
# This work is licensed under the Creative Commons
# Attribution-NonCommercial-ShareAlike 4.0 International License.
# To view a copy of this license, visit
# http://creativecommons.org/licenses/by-nc-sa/4.0/
# or send a letter to
# Creative Commons, PO Box 1866, Mountain View, CA 94042, USA.
#
# CIF created using the CSD Python API on 29 September 2022
# The structure has been converted into the P1 space group
# The structure has a 3D framework
# The original CSD entry HECVAQ is in the monoclinic crystal system
# The framework has been calculated to contain at least 10.0% void space
# The void calculation uses a probe of radius 1.32A, grid spacing 0.4
#
###############################################################################

data_HECVAQ
_chemical_formula_moiety         '(C168 H120 N16 O40 Zn6)n'
_symmetry_cell_setting           triclinic
_symmetry_space_group_name_H-M   'P 1'
_symmetry_Int_Tables_number      1
_space_group_name_Hall           'P 1'
loop_
_symmetry_equiv_pos_site_id
_symmetry_equiv_pos_as_xyz
1 x,y,z
_cell_length_a                   27.2863(3)
_cell_length_b                   8.01070(10)
_cell_length_c                   23.5382(3)
_cell_angle_alpha                90
_cell_angle_beta                 99.3330(10)
_cell_angle_gamma                90
_cell_volume                     5076.93
loop_
_atom_site_label
_atom_site_type_symbol
_atom_site_fract_x
_atom_site_fract_y
_atom_site_fract_z
O4 O 0.42720(7) 0.4544(2) 0.04171(8)
O5 O 0.48673(6) 0.2642(2) 0.04288(8)
H2 H 0.433915 0.004375 0.259529
C10 C 0.43852(11) 0.0432(4) 0.10400(12)
H6 H 0.465530 0.005140 0.088133
C11 C 0.42115(10) 0.2052(4) 0.09256(11)
C12 C 0.37983(12) 0.2574(5) 0.11518(14)
H7 H 0.366914 0.363605 0.106660
C13 C 0.35756(14) 0.1521(6) 0.15053(17)
H8 H 0.329938 0.188029 0.165683
C14 C 0.44690(9) 0.3162(3) 0.05608(10)
Zn4 Zn 0.53927(2) 0.37297(3) 0.00238(2)
Zn6 Zn 0.46073(2) 0.62703(3) 0.99762(2)
Zn1 Zn 0.46073(2) 0.37297(3) 0.49762(2)
O1 O 0.43815(7) 0.5040(2) 0.42353(7)
O2 O 0.49743(7) 0.6939(3) 0.42538(8)
O3 O 0.35262(10) 0.8935(4) 0.19666(12)
N1 N 0.40686(7) 0.1941(2) 0.48565(8)
C1 C 0.45802(10) 0.6252(3) 0.40291(11)
C2 C 0.43163(10) 0.6924(4) 0.34678(11)
C3 C 0.44777(12) 0.8376(4) 0.32399(13)
H1 H 0.476238 0.890001 0.342846
C4 C 0.42271(14) 0.9062(5) 0.27414(15)
C5 C 0.38096(12) 0.8279(5) 0.24618(14)
C6 C 0.36430(14) 0.6835(6) 0.26747(16)
H3 H 0.336057 0.630685 0.248223
C7 C 0.38986(14) 0.6168(5) 0.31788(15)
H4 H 0.378481 0.518808 0.332442
C8 C 0.37615(12) 0.9978(5) 0.16277(14)
C9 C 0.41615(13) 0.9391(5) 0.13851(14)
H5 H 0.427607 0.830567 0.145593
C15 C 0.36589(10) 0.2076(3) 0.50933(14)
H9 H 0.361099 0.304754 0.529380
C16 C 0.33031(11) 0.0846(4) 0.50550(15)
H10 H 0.302234 0.098855 0.522714
C19 C 0.41217(10) 0.0586(4) 0.45582(13)
H12 H 0.440029 0.049404 0.437916
Zn2 Zn 0.53927(2) 0.62703(3) 0.50238(2)
O6 O 0.56185(7) 0.4960(2) 0.57647(7)
O7 O 0.50257(7) 0.3061(3) 0.57462(8)
O8 O 0.64738(10) 0.1065(4) 0.80334(12)
C29 C 0.54198(10) 0.3748(3) 0.59709(11)
C30 C 0.56837(10) 0.3076(4) 0.65322(11)
C31 C 0.55223(12) 0.1624(4) 0.67601(13)
H23 H 0.523762 0.109999 0.657154
C32 C 0.57729(14) 0.0938(5) 0.72586(15)
C33 C 0.61904(12) 0.1721(5) 0.75382(14)
C34 C 0.63570(14) 0.3165(6) 0.73253(16)
H25 H 0.663943 0.369315 0.751777
C35 C 0.61014(14) 0.3832(5) 0.68212(15)
H26 H 0.621519 0.481192 0.667558
C36 C 0.62385(12) 0.0022(5) 0.83723(14)
C37 C 0.58385(13) 0.0609(5) 0.86149(14)
H27 H 0.572393 0.169433 0.854407
O11 O 0.57280(7) 0.4544(2) 0.45829(8)
O12 O 0.42720(7) 0.5456(2) 0.54171(8)
O13 O 0.51327(6) 0.2642(2) 0.45712(8)
O14 O 0.48673(6) 0.7358(2) 0.54288(8)
N5 N 0.59314(7) 0.8059(2) 0.51435(8)
N2 N 0.26606(11) 0.8186(4) 0.50106(15)
C17 C 0.33678(9) 0.9388(3) 0.47566(12)
C18 C 0.37809(11) 0.9285(4) 0.44978(14)
H11 H 0.383335 0.834768 0.428241
C20 C 0.30087(10) 0.7980(3) 0.47279(14)
C21 C 0.30875(18) 0.6474(5) 0.4395(3)
H13 H 0.285792 0.562191 0.446706
H14 H 0.342120 0.608085 0.450956
H15 H 0.303458 0.673874 0.399207
N3 N 0.09314(7) 0.3059(2) 0.51435(8)
N4 N 0.23394(11) 0.6814(4) 0.49894(15)
C22 C 0.13411(10) 0.2924(3) 0.49067(14)
H16 H 0.138901 0.195246 0.470620
C23 C 0.16969(11) 0.4154(4) 0.49450(15)
H17 H 0.197766 0.401145 0.477286
C24 C 0.16322(9) 0.5612(3) 0.52434(12)
C25 C 0.12191(11) 0.5715(4) 0.55022(14)
H18 H 0.116665 0.665232 0.571759
C26 C 0.08783(10) 0.4414(4) 0.54418(13)
H19 H 0.059971 0.450596 0.562084
C27 C 0.19913(10) 0.7020(3) 0.52721(14)
C28 C 0.19125(18) 0.8526(5) 0.5605(3)
H20 H 0.214208 0.937809 0.553294
H21 H 0.157880 0.891915 0.549044
H22 H 0.196542 0.826126 0.600793
O9 O 0.57280(7) 0.5456(2) 0.95829(8)
O10 O 0.51327(6) 0.7358(2) 0.95712(8)
H24 H 0.566085 0.995625 0.740471
C38 C 0.56148(11) 0.9568(4) 0.89600(12)
H28 H 0.534470 0.994860 0.911867
C39 C 0.57885(10) 0.7948(4) 0.90744(11)
C40 C 0.62017(12) 0.7426(5) 0.88482(14)
H29 H 0.633086 0.636395 0.893340
C41 C 0.64244(14) 0.8479(6) 0.84947(17)
H30 H 0.670062 0.811971 0.834317
C42 C 0.55310(9) 0.6838(3) 0.94392(10)
Zn7 Zn 0.03927(2) 0.12703(3) 0.50238(2)
H2_2 H 0.566085 0.004375 0.240471
C10_2 C 0.56148(11) 0.0432(4) 0.39600(12)
H6_2 H 0.534470 0.005140 0.411867
C11_2 C 0.57885(10) 0.2052(4) 0.40744(11)
C12_2 C 0.62017(12) 0.2574(5) 0.38482(14)
H7_2 H 0.633086 0.363605 0.393340
C13_2 C 0.64244(14) 0.1521(6) 0.34947(17)
H8_2 H 0.670062 0.188029 0.334317
C14_2 C 0.55310(9) 0.3162(3) 0.44392(10)
O1_2 O 0.56185(7) 0.5040(2) 0.07647(7)
O2_2 O 0.50257(7) 0.6939(3) 0.07462(8)
O3_2 O 0.64738(10) 0.8935(4) 0.30334(12)
N1_2 N 0.59314(7) 0.1941(2) 0.01435(8)
C1_2 C 0.54198(10) 0.6252(3) 0.09709(11)
C2_2 C 0.56837(10) 0.6924(4) 0.15322(11)
C3_2 C 0.55223(12) 0.8376(4) 0.17601(13)
H1_2 H 0.523762 0.890001 0.157154
C4_2 C 0.57729(14) 0.9062(5) 0.22586(15)
C5_2 C 0.61904(12) 0.8279(5) 0.25382(14)
C6_2 C 0.63570(14) 0.6835(6) 0.23253(16)
H3_2 H 0.663943 0.630685 0.251777
C7_2 C 0.61014(14) 0.6168(5) 0.18212(15)
H4_2 H 0.621519 0.518808 0.167558
C8_2 C 0.62385(12) 0.9978(5) 0.33723(14)
C9_2 C 0.58385(13) 0.9391(5) 0.36149(14)
H5_2 H 0.572393 0.830567 0.354407
C19_2 C 0.58783(10) 0.0586(4) 0.04418(13)
H12_2 H 0.559971 0.049404 0.062084
C15_2 C 0.63411(10) 0.2076(3) 0.99067(14)
H9_2 H 0.638901 0.304754 0.970620
C16_2 C 0.66969(11) 0.0846(4) 0.99450(15)
H10_2 H 0.697766 0.098855 0.977286
O6_2 O 0.43815(7) 0.4960(2) 0.92353(7)
O7_2 O 0.49743(7) 0.3061(3) 0.92538(8)
O8_2 O 0.35262(10) 0.1065(4) 0.69666(12)
C29_2 C 0.45802(10) 0.3748(3) 0.90291(11)
C30_2 C 0.43163(10) 0.3076(4) 0.84678(11)
C31_2 C 0.44777(12) 0.1624(4) 0.82399(13)
H23_2 H 0.476238 0.109999 0.842846
C32_2 C 0.42271(14) 0.0938(5) 0.77414(15)
C33_2 C 0.38096(12) 0.1721(5) 0.74618(14)
C34_2 C 0.36430(14) 0.3165(6) 0.76747(16)
H25_2 H 0.336057 0.369315 0.748223
C35_2 C 0.38986(14) 0.3832(5) 0.81788(15)
H26_2 H 0.378481 0.481192 0.832442
C36_2 C 0.37615(12) 0.0022(5) 0.66277(14)
C37_2 C 0.41615(13) 0.0609(5) 0.63851(14)
H27_2 H 0.427607 0.169433 0.645593
N5_2 N 0.40686(7) 0.8059(2) 0.98565(8)
C17_2 C 0.66322(9) 0.9388(3) 0.02434(12)
C18_2 C 0.62191(11) 0.9285(4) 0.05022(14)
H11_2 H 0.616665 0.834768 0.071759
C20_2 C 0.69913(10) 0.7980(3) 0.02721(14)
C21_2 C 0.69125(18) 0.6474(5) 0.0605(3)
H13_2 H 0.714208 0.562191 0.053294
H14_2 H 0.657880 0.608085 0.049044
H15_2 H 0.696542 0.673874 0.100793
N4_2 N 0.76606(11) 0.6814(4) 0.00106(15)
C22_2 C 0.86589(10) 0.2924(3) 0.00933(14)
H16_2 H 0.861099 0.195246 0.029380
C23_2 C 0.83031(11) 0.4154(4) 0.00550(15)
H17_2 H 0.802234 0.401145 0.022714
N2_2 N 0.73394(11) 0.8186(4) 0.99894(15)
N3_2 N 0.90686(7) 0.3059(2) 0.98565(8)
C24_2 C 0.83678(9) 0.5612(3) 0.97566(12)
C25_2 C 0.87809(11) 0.5715(4) 0.94978(14)
H18_2 H 0.883335 0.665232 0.928241
C26_2 C 0.91217(10) 0.4414(4) 0.95582(13)
H19_2 H 0.940029 0.450596 0.937916
C27_2 C 0.80087(10) 0.7020(3) 0.97279(14)
C28_2 C 0.80875(18) 0.8526(5) 0.9395(3)
H20_2 H 0.785792 0.937809 0.946706
H21_2 H 0.842120 0.891915 0.950956
H22_2 H 0.803458 0.826126 0.899207
H24_2 H 0.433915 0.995625 0.759529
C38_2 C 0.43852(11) 0.9568(4) 0.60400(12)
H28_2 H 0.465530 0.994860 0.588133
C39_2 C 0.42115(10) 0.7948(4) 0.59256(11)
C40_2 C 0.37983(12) 0.7426(5) 0.61518(14)
H29_2 H 0.366914 0.636395 0.606660
C41_2 C 0.35756(14) 0.8479(6) 0.65053(17)
H30_2 H 0.329938 0.811971 0.665683
C42_2 C 0.44690(9) 0.6838(3) 0.55608(10)
Zn7_2 Zn 0.96073(2) 0.12703(3) 0.99762(2)
Zn4_2 Zn 0.03927(2) 0.87297(3) 0.00238(2)
Zn1_2 Zn 0.96073(2) 0.87297(3) 0.49762(2)
N1_3 N 0.90686(7) 0.6941(2) 0.48565(8)
N2_3 N 0.76606(11) 0.3186(4) 0.50106(15)
C15_3 C 0.86589(10) 0.7076(3) 0.50933(14)
H9_3 H 0.861099 0.804754 0.529380
C16_3 C 0.83031(11) 0.5846(4) 0.50550(15)
H10_3 H 0.802234 0.598855 0.522714
C17_3 C 0.83678(9) 0.4388(3) 0.47566(12)
C18_3 C 0.87809(11) 0.4285(4) 0.44978(14)
H11_3 H 0.883335 0.334768 0.428241
C19_3 C 0.91217(10) 0.5586(4) 0.45582(13)
H12_3 H 0.940029 0.549404 0.437916
C20_3 C 0.80087(10) 0.2980(3) 0.47279(14)
C21_3 C 0.80875(18) 0.1474(5) 0.4395(3)
H13_3 H 0.785792 0.062191 0.446706
H14_3 H 0.842120 0.108085 0.450956
H15_3 H 0.803458 0.173874 0.399207
N4_3 N 0.73394(11) 0.1814(4) 0.49894(15)
C24_3 C 0.66322(9) 0.0612(3) 0.52434(12)
C25_3 C 0.62191(11) 0.0715(4) 0.55022(14)
H18_3 H 0.616665 0.165232 0.571759
C27_3 C 0.69913(10) 0.2020(3) 0.52721(14)
C28_3 C 0.69125(18) 0.3526(5) 0.5605(3)
H20_3 H 0.714208 0.437809 0.553294
H21_3 H 0.657880 0.391915 0.549044
H22_3 H 0.696542 0.326126 0.600793
C22_3 C 0.63411(10) 0.7924(3) 0.49067(14)
H16_3 H 0.638901 0.695246 0.470620
C23_3 C 0.66969(11) 0.9154(4) 0.49450(15)
H17_3 H 0.697766 0.901145 0.477286
C26_3 C 0.58783(10) 0.9414(4) 0.54418(13)
H19_3 H 0.559971 0.950596 0.562084
N1_4 N 0.09314(7) 0.6941(2) 0.01435(8)
C17_4 C 0.16322(9) 0.4388(3) 0.02434(12)
C18_4 C 0.12191(11) 0.4285(4) 0.05022(14)
H11_4 H 0.116665 0.334768 0.071759
C19_4 C 0.08783(10) 0.5586(4) 0.04418(13)
H12_4 H 0.059971 0.549404 0.062084
C20_4 C 0.19913(10) 0.2980(3) 0.02721(14)
C21_4 C 0.19125(18) 0.1474(5) 0.0605(3)
H13_4 H 0.214208 0.062191 0.053294
H14_4 H 0.157880 0.108085 0.049044
H15_4 H 0.196542 0.173874 0.100793
N4_4 N 0.26606(11) 0.1814(4) 0.00106(15)
N2_4 N 0.23394(11) 0.3186(4) 0.99894(15)
C15_4 C 0.13411(10) 0.7076(3) 0.99067(14)
H9_4 H 0.138901 0.804754 0.970620
C16_4 C 0.16969(11) 0.5846(4) 0.99450(15)
H10_4 H 0.197766 0.598855 0.977286
C24_4 C 0.33678(9) 0.0612(3) 0.97566(12)
C25_4 C 0.37809(11) 0.0715(4) 0.94978(14)
H18_4 H 0.383335 0.165232 0.928241
C27_4 C 0.30087(10) 0.2020(3) 0.97279(14)
C28_4 C 0.30875(18) 0.3526(5) 0.9395(3)
H20_4 H 0.285792 0.437809 0.946706
H21_4 H 0.342120 0.391915 0.950956
H22_4 H 0.303458 0.326126 0.899207
C22_4 C 0.36589(10) 0.7924(3) 0.00933(14)
H16_4 H 0.361099 0.695246 0.029380
C23_4 C 0.33031(11) 0.9154(4) 0.00550(15)
H17_4 H 0.302234 0.901145 0.022714
C26_4 C 0.41217(10) 0.9414(4) 0.95582(13)
H19_4 H 0.440029 0.950596 0.937916
O6_3 O 0.06185(7) 0.9960(2) 0.57647(7)
O7_3 O 0.00257(7) 0.8061(3) 0.57462(8)
O8_3 O 0.14738(10) 0.6065(4) 0.80334(12)
O9_2 O 0.07280(7) 0.0456(2) 0.95829(8)
O10_2 O 0.01327(6) 0.2358(2) 0.95712(8)
C29_3 C 0.04198(10) 0.8748(3) 0.59709(11)
C30_3 C 0.06837(10) 0.8076(4) 0.65322(11)
C31_3 C 0.05223(12) 0.6624(4) 0.67601(13)
H23_3 H 0.023762 0.609999 0.657154
C32_3 C 0.07729(14) 0.5938(5) 0.72586(15)
H24_3 H 0.066085 0.495625 0.740471
C33_3 C 0.11904(12) 0.6721(5) 0.75382(14)
C34_3 C 0.13570(14) 0.8165(6) 0.73253(16)
H25_3 H 0.163943 0.869315 0.751777
C35_3 C 0.11014(14) 0.8832(5) 0.68212(15)
H26_3 H 0.121519 0.981192 0.667558
C36_3 C 0.12385(12) 0.5022(5) 0.83723(14)
C37_3 C 0.08385(13) 0.5609(5) 0.86149(14)
H27_3 H 0.072393 0.669433 0.854407
C38_3 C 0.06148(11) 0.4568(4) 0.89600(12)
H28_3 H 0.034470 0.494860 0.911867
C39_3 C 0.07885(10) 0.2948(4) 0.90744(11)
C40_3 C 0.12017(12) 0.2426(5) 0.88482(14)
H29_3 H 0.133086 0.136395 0.893340
C41_3 C 0.14244(14) 0.3479(6) 0.84947(17)
H30_3 H 0.170062 0.311971 0.834317
C42_3 C 0.05310(9) 0.1838(3) 0.94392(10)
O11_2 O 0.07280(7) 0.9544(2) 0.45829(8)
O13_2 O 0.01327(6) 0.7642(2) 0.45712(8)
O1_3 O 0.06185(7) 0.0040(2) 0.07647(7)
O2_3 O 0.00257(7) 0.1939(3) 0.07462(8)
O3_3 O 0.14738(10) 0.3935(4) 0.30334(12)
C1_3 C 0.04198(10) 0.1252(3) 0.09709(11)
C2_3 C 0.06837(10) 0.1924(4) 0.15322(11)
C3_3 C 0.05223(12) 0.3376(4) 0.17601(13)
H1_3 H 0.023762 0.390001 0.157154
C4_3 C 0.07729(14) 0.4062(5) 0.22586(15)
H2_3 H 0.066085 0.504375 0.240471
C5_3 C 0.11904(12) 0.3279(5) 0.25382(14)
C6_3 C 0.13570(14) 0.1835(6) 0.23253(16)
H3_3 H 0.163943 0.130685 0.251777
C7_3 C 0.11014(14) 0.1168(5) 0.18212(15)
H4_3 H 0.121519 0.018808 0.167558
C8_3 C 0.12385(12) 0.4978(5) 0.33723(14)
C9_3 C 0.08385(13) 0.4391(5) 0.36149(14)
H5_3 H 0.072393 0.330567 0.354407
C10_3 C 0.06148(11) 0.5432(4) 0.39600(12)
H6_3 H 0.034470 0.505140 0.411867
C11_3 C 0.07885(10) 0.7052(4) 0.40744(11)
C12_3 C 0.12017(12) 0.7574(5) 0.38482(14)
H7_3 H 0.133086 0.863605 0.393340
C13_3 C 0.14244(14) 0.6521(6) 0.34947(17)
H8_3 H 0.170062 0.688029 0.334317
C14_3 C 0.05310(9) 0.8162(3) 0.44392(10)
O1_4 O 0.93815(7) 0.0040(2) 0.42353(7)
O2_4 O 0.99743(7) 0.1939(3) 0.42538(8)
O3_4 O 0.85262(10) 0.3935(4) 0.19666(12)
O4_2 O 0.92720(7) 0.9544(2) 0.04171(8)
O5_2 O 0.98673(6) 0.7642(2) 0.04288(8)
C1_4 C 0.95802(10) 0.1252(3) 0.40291(11)
C2_4 C 0.93163(10) 0.1924(4) 0.34678(11)
C3_4 C 0.94777(12) 0.3376(4) 0.32399(13)
H1_4 H 0.976238 0.390001 0.342846
C4_4 C 0.92271(14) 0.4062(5) 0.27414(15)
H2_4 H 0.933915 0.504375 0.259529
C5_4 C 0.88096(12) 0.3279(5) 0.24618(14)
C6_4 C 0.86430(14) 0.1835(6) 0.26747(16)
H3_4 H 0.836057 0.130685 0.248223
C7_4 C 0.88986(14) 0.1168(5) 0.31788(15)
H4_4 H 0.878481 0.018808 0.332442
C8_4 C 0.87615(12) 0.4978(5) 0.16277(14)
C9_4 C 0.91615(13) 0.4391(5) 0.13851(14)
H5_4 H 0.927607 0.330567 0.145593
C10_4 C 0.93852(11) 0.5432(4) 0.10400(12)
H6_4 H 0.965530 0.505140 0.088133
C11_4 C 0.92115(10) 0.7052(4) 0.09256(11)
C12_4 C 0.87983(12) 0.7574(5) 0.11518(14)
H7_4 H 0.866914 0.863605 0.106660
C13_4 C 0.85756(14) 0.6521(6) 0.15053(17)
H8_4 H 0.829938 0.688029 0.165683
C14_4 C 0.94690(9) 0.8162(3) 0.05608(10)
O12_2 O 0.92720(7) 0.0456(2) 0.54171(8)
O14_2 O 0.98673(6) 0.2358(2) 0.54288(8)
O6_4 O 0.93815(7) 0.9960(2) 0.92353(7)
O7_4 O 0.99743(7) 0.8061(3) 0.92538(8)
O8_4 O 0.85262(10) 0.6065(4) 0.69666(12)
C29_4 C 0.95802(10) 0.8748(3) 0.90291(11)
C30_4 C 0.93163(10) 0.8076(4) 0.84678(11)
C31_4 C 0.94777(12) 0.6624(4) 0.82399(13)
H23_4 H 0.976238 0.609999 0.842846
C32_4 C 0.92271(14) 0.5938(5) 0.77414(15)
H24_4 H 0.933915 0.495625 0.759529
C33_4 C 0.88096(12) 0.6721(5) 0.74618(14)
C34_4 C 0.86430(14) 0.8165(6) 0.76747(16)
H25_4 H 0.836057 0.869315 0.748223
C35_4 C 0.88986(14) 0.8832(5) 0.81788(15)
H26_4 H 0.878481 0.981192 0.832442
C36_4 C 0.87615(12) 0.5022(5) 0.66277(14)
C37_4 C 0.91615(13) 0.5609(5) 0.63851(14)
H27_4 H 0.927607 0.669433 0.645593
C38_4 C 0.93852(11) 0.4568(4) 0.60400(12)
H28_4 H 0.965530 0.494860 0.588133
C39_4 C 0.92115(10) 0.2948(4) 0.59256(11)
C40_4 C 0.87983(12) 0.2426(5) 0.61518(14)
H29_4 H 0.866914 0.136395 0.606660
C41_4 C 0.85756(14) 0.3479(6) 0.65053(17)
H30_4 H 0.829938 0.311971 0.665683
C42_4 C 0.94690(9) 0.1838(3) 0.55608(10)
loop_
_geom_bond_atom_site_label_1
_geom_bond_atom_site_label_2
_geom_bond_site_symmetry_1
_geom_bond_site_symmetry_2
O4 C14 1_555 1_555
O5 C14 1_555 1_555
H6 C10 1_555 1_555
C11 C10 1_555 1_555
C12 C11 1_555 1_555
H7 C12 1_555 1_555
H8 C13 1_555 1_555
C14 C11 1_555 1_555
Zn4 O5 1_555 1_555
C12 C13 1_555 1_555
Zn1 O1 1_555 1_555
O1 C1 1_555 1_555
O2 C1 1_555 1_555
O3 C5 1_555 1_555
N1 Zn1 1_555 1_555
C1 C2 1_555 1_555
C2 C3 1_555 1_555
C3 H1 1_555 1_555
C4 C3 1_555 1_555
C5 C4 1_555 1_555
C6 C5 1_555 1_555
H3 C6 1_555 1_555
C7 C2 1_555 1_555
H4 C7 1_555 1_555
C8 O3 1_555 1_555
C9 C8 1_555 1_555
H5 C9 1_555 1_555
C15 N1 1_555 1_555
H9 C15 1_555 1_555
C16 C15 1_555 1_555
H10 C16 1_555 1_555
C19 N1 1_555 1_555
H12 C19 1_555 1_555
Zn2 O2 1_555 1_555
O6 Zn2 1_555 1_555
O7 Zn1 1_555 1_555
O8 C33 1_555 1_555
C29 O6 1_555 1_555
C30 C29 1_555 1_555
C31 C30 1_555 1_555
H23 C31 1_555 1_555
C32 C31 1_555 1_555
C33 C32 1_555 1_555
C34 C33 1_555 1_555
H25 C34 1_555 1_555
C35 C30 1_555 1_555
H26 C35 1_555 1_555
C36 O8 1_555 1_555
C37 C36 1_555 1_555
H27 C37 1_555 1_555
O11 Zn2 1_555 1_555
O12 Zn1 1_555 1_555
O13 Zn1 1_555 1_555
O14 Zn2 1_555 1_555
N5 Zn2 1_555 1_555
C6 C7 1_555 1_555
O7 C29 1_555 1_555
C34 C35 1_555 1_555
N2 C20 1_555 1_555
C18 C17 1_555 1_555
H11 C18 1_555 1_555
C20 C17 1_555 1_555
C21 C20 1_555 1_555
H13 C21 1_555 1_555
H14 C21 1_555 1_555
H15 C21 1_555 1_555
N3 C22 1_555 1_555
N4 N2 1_555 1_555
C22 H16 1_555 1_555
C23 C22 1_555 1_555
H17 C23 1_555 1_555
C24 C23 1_555 1_555
C25 C24 1_555 1_555
H18 C25 1_555 1_555
C26 N3 1_555 1_555
H19 C26 1_555 1_555
C27 N4 1_555 1_555
C28 C27 1_555 1_555
H20 C28 1_555 1_555
H21 C28 1_555 1_555
H22 C28 1_555 1_555
O9 C42 1_555 1_555
O10 C42 1_555 1_555
H28 C38 1_555 1_555
C39 C38 1_555 1_555
C40 C39 1_555 1_555
H29 C40 1_555 1_555
H30 C41 1_555 1_555
C42 C39 1_555 1_555
Zn6 O10 1_555 1_555
Zn7 N3 1_555 1_555
C24 C27 1_555 1_555
C25 C26 1_555 1_555
C40 C41 1_555 1_555
O11 C14_2 1_555 1_555
O13 C14_2 1_555 1_555
H6_2 C10_2 1_555 1_555
C11_2 C10_2 1_555 1_555
C12_2 C11_2 1_555 1_555
H7_2 C12_2 1_555 1_555
H8_2 C13_2 1_555 1_555
C14_2 C11_2 1_555 1_555
C12_2 C13_2 1_555 1_555
Zn4 O1_2 1_555 1_555
O1_2 C1_2 1_555 1_555
O2_2 C1_2 1_555 1_555
O3_2 C5_2 1_555 1_555
N1_2 Zn4 1_555 1_555
C1_2 C2_2 1_555 1_555
C2_2 C3_2 1_555 1_555
C3_2 H1_2 1_555 1_555
C4_2 C3_2 1_555 1_555
C5_2 C4_2 1_555 1_555
C6_2 C5_2 1_555 1_555
H3_2 C6_2 1_555 1_555
C7_2 C2_2 1_555 1_555
H4_2 C7_2 1_555 1_555
C8_2 O3_2 1_555 1_555
C9_2 C8_2 1_555 1_555
H5_2 C9_2 1_555 1_555
C19_2 N1_2 1_555 1_555
H12_2 C19_2 1_555 1_555
C6_2 C7_2 1_555 1_555
H9_2 C15_2 1_555 1_555
C16_2 C15_2 1_555 1_555
H10_2 C16_2 1_555 1_555
O6_2 Zn6 1_555 1_555
O8_2 C33_2 1_555 1_555
C29_2 O6_2 1_555 1_555
C30_2 C29_2 1_555 1_555
C31_2 C30_2 1_555 1_555
H23_2 C31_2 1_555 1_555
C32_2 C31_2 1_555 1_555
C33_2 C32_2 1_555 1_555
C34_2 C33_2 1_555 1_555
H25_2 C34_2 1_555 1_555
C35_2 C30_2 1_555 1_555
H26_2 C35_2 1_555 1_555
C36_2 O8_2 1_555 1_555
C37_2 C36_2 1_555 1_555
H27_2 C37_2 1_555 1_555
N5_2 Zn6 1_555 1_555
O7_2 C29_2 1_555 1_555
C34_2 C35_2 1_555 1_555
C18_2 C17_2 1_555 1_555
H11_2 C18_2 1_555 1_555
C20_2 C17_2 1_555 1_555
C21_2 C20_2 1_555 1_555
H13_2 C21_2 1_555 1_555
H14_2 C21_2 1_555 1_555
H15_2 C21_2 1_555 1_555
C22_2 H16_2 1_555 1_555
C23_2 C22_2 1_555 1_555
H17_2 C23_2 1_555 1_555
C25_2 C24_2 1_555 1_555
H18_2 C25_2 1_555 1_555
C26_2 N3_2 1_555 1_555
H19_2 C26_2 1_555 1_555
C28_2 C27_2 1_555 1_555
H20_2 C28_2 1_555 1_555
H21_2 C28_2 1_555 1_555
H22_2 C28_2 1_555 1_555
O12 C42_2 1_555 1_555
O14 C42_2 1_555 1_555
H28_2 C38_2 1_555 1_555
C39_2 C38_2 1_555 1_555
C40_2 C39_2 1_555 1_555
H29_2 C40_2 1_555 1_555
H30_2 C41_2 1_555 1_555
C42_2 C39_2 1_555 1_555
Zn7_2 N3_2 1_555 1_555
C24_2 C27_2 1_555 1_555
C25_2 C26_2 1_555 1_555
C40_2 C41_2 1_555 1_555
N1_3 Zn1_2 1_555 1_555
N2_3 C20_3 1_555 1_555
C15_3 N1_3 1_555 1_555
H9_3 C15_3 1_555 1_555
C16_3 C15_3 1_555 1_555
H10_3 C16_3 1_555 1_555
C17_3 C16_3 1_555 1_555
C18_3 C17_3 1_555 1_555
H11_3 C18_3 1_555 1_555
C19_3 N1_3 1_555 1_555
H12_3 C19_3 1_555 1_555
C20_3 C17_3 1_555 1_555
C21_3 C20_3 1_555 1_555
H13_3 C21_3 1_555 1_555
H14_3 C21_3 1_555 1_555
H15_3 C21_3 1_555 1_555
N4_3 N2_3 1_555 1_555
C25_3 C24_3 1_555 1_555
H18_3 C25_3 1_555 1_555
C27_3 N4_3 1_555 1_555
C28_3 C27_3 1_555 1_555
H20_3 C28_3 1_555 1_555
H21_3 C28_3 1_555 1_555
H22_3 C28_3 1_555 1_555
C18_3 C19_3 1_555 1_555
C24_3 C27_3 1_555 1_555
N5 C22_3 1_555 1_555
C22_3 H16_3 1_555 1_555
C23_3 C22_3 1_555 1_555
H17_3 C23_3 1_555 1_555
C26_3 N5 1_555 1_555
H19_3 C26_3 1_555 1_555
N1_4 Zn4_2 1_555 1_555
C18_4 C17_4 1_555 1_555
H11_4 C18_4 1_555 1_555
C19_4 N1_4 1_555 1_555
H12_4 C19_4 1_555 1_555
C20_4 C17_4 1_555 1_555
C21_4 C20_4 1_555 1_555
H13_4 C21_4 1_555 1_555
H14_4 C21_4 1_555 1_555
H15_4 C21_4 1_555 1_555
C18_4 C19_4 1_555 1_555
H9_4 C15_4 1_555 1_555
C16_4 C15_4 1_555 1_555
H10_4 C16_4 1_555 1_555
C25_4 C24_4 1_555 1_555
H18_4 C25_4 1_555 1_555
C28_4 C27_4 1_555 1_555
H20_4 C28_4 1_555 1_555
H21_4 C28_4 1_555 1_555
H22_4 C28_4 1_555 1_555
C24_4 C27_4 1_555 1_555
C22_4 H16_4 1_555 1_555
C23_4 C22_4 1_555 1_555
H17_4 C23_4 1_555 1_555
C26_4 N5_2 1_555 1_555
H19_4 C26_4 1_555 1_555
O8_3 C33_3 1_555 1_555
O9_2 C42_3 1_555 1_555
O10_2 C42_3 1_555 1_555
C29_3 O6_3 1_555 1_555
C30_3 C29_3 1_555 1_555
C31_3 C30_3 1_555 1_555
H23_3 C31_3 1_555 1_555
C32_3 C31_3 1_555 1_555
H24_3 C32_3 1_555 1_555
C33_3 C32_3 1_555 1_555
C34_3 C33_3 1_555 1_555
H25_3 C34_3 1_555 1_555
C35_3 C30_3 1_555 1_555
H26_3 C35_3 1_555 1_555
C36_3 O8_3 1_555 1_555
C37_3 C36_3 1_555 1_555
H27_3 C37_3 1_555 1_555
C38_3 C37_3 1_555 1_555
H28_3 C38_3 1_555 1_555
C39_3 C38_3 1_555 1_555
C40_3 C39_3 1_555 1_555
H29_3 C40_3 1_555 1_555
C41_3 C36_3 1_555 1_555
H30_3 C41_3 1_555 1_555
C42_3 C39_3 1_555 1_555
O7_3 C29_3 1_555 1_555
C34_3 C35_3 1_555 1_555
C40_3 C41_3 1_555 1_555
O1_3 C1_3 1_555 1_555
O2_3 C1_3 1_555 1_555
O3_3 C5_3 1_555 1_555
O11_2 C14_3 1_555 1_555
O13_2 C14_3 1_555 1_555
C1_3 C2_3 1_555 1_555
C2_3 C3_3 1_555 1_555
C3_3 H1_3 1_555 1_555
C4_3 C3_3 1_555 1_555
H2_3 C4_3 1_555 1_555
C5_3 C4_3 1_555 1_555
C6_3 C5_3 1_555 1_555
H3_3 C6_3 1_555 1_555
C7_3 C2_3 1_555 1_555
H4_3 C7_3 1_555 1_555
C8_3 O3_3 1_555 1_555
C9_3 C8_3 1_555 1_555
H5_3 C9_3 1_555 1_555
C10_3 C9_3 1_555 1_555
H6_3 C10_3 1_555 1_555
C11_3 C10_3 1_555 1_555
C12_3 C11_3 1_555 1_555
H7_3 C12_3 1_555 1_555
C13_3 C8_3 1_555 1_555
H8_3 C13_3 1_555 1_555
C14_3 C11_3 1_555 1_555
C6_3 C7_3 1_555 1_555
C12_3 C13_3 1_555 1_555
O1_4 C1_4 1_555 1_555
O2_4 C1_4 1_555 1_555
O3_4 C5_4 1_555 1_555
O4_2 C14_4 1_555 1_555
O5_2 C14_4 1_555 1_555
C1_4 C2_4 1_555 1_555
C2_4 C3_4 1_555 1_555
C3_4 H1_4 1_555 1_555
C4_4 C3_4 1_555 1_555
H2_4 C4_4 1_555 1_555
C5_4 C4_4 1_555 1_555
C6_4 C5_4 1_555 1_555
H3_4 C6_4 1_555 1_555
C7_4 C2_4 1_555 1_555
H4_4 C7_4 1_555 1_555
C8_4 O3_4 1_555 1_555
C9_4 C8_4 1_555 1_555
H5_4 C9_4 1_555 1_555
C10_4 C9_4 1_555 1_555
H6_4 C10_4 1_555 1_555
C11_4 C10_4 1_555 1_555
C12_4 C11_4 1_555 1_555
H7_4 C12_4 1_555 1_555
C13_4 C8_4 1_555 1_555
H8_4 C13_4 1_555 1_555
C14_4 C11_4 1_555 1_555
C6_4 C7_4 1_555 1_555
C12_4 C13_4 1_555 1_555
O8_4 C33_4 1_555 1_555
O12_2 C42_4 1_555 1_555
O14_2 C42_4 1_555 1_555
C29_4 O6_4 1_555 1_555
C30_4 C29_4 1_555 1_555
C31_4 C30_4 1_555 1_555
H23_4 C31_4 1_555 1_555
C32_4 C31_4 1_555 1_555
H24_4 C32_4 1_555 1_555
C33_4 C32_4 1_555 1_555
C34_4 C33_4 1_555 1_555
H25_4 C34_4 1_555 1_555
C35_4 C30_4 1_555 1_555
H26_4 C35_4 1_555 1_555
C36_4 O8_4 1_555 1_555
C37_4 C36_4 1_555 1_555
H27_4 C37_4 1_555 1_555
C38_4 C37_4 1_555 1_555
H28_4 C38_4 1_555 1_555
C39_4 C38_4 1_555 1_555
C40_4 C39_4 1_555 1_555
H29_4 C40_4 1_555 1_555
C41_4 C36_4 1_555 1_555
H30_4 C41_4 1_555 1_555
C42_4 C39_4 1_555 1_555
O7_4 C29_4 1_555 1_555
C34_4 C35_4 1_555 1_555
C40_4 C41_4 1_555 1_555

#END
