
###############################################################################
#
# This file contains modified crystal structure data generated from the
# MOF subset of the Cambridge Structural Database (CSD) v543 
# hosted by the Cambridge Crystallographic Data Centre (CCDC).
#
# This work is licensed under the Creative Commons
# Attribution-NonCommercial-ShareAlike 4.0 International License.
# To view a copy of this license, visit
# http://creativecommons.org/licenses/by-nc-sa/4.0/
# or send a letter to
# Creative Commons, PO Box 1866, Mountain View, CA 94042, USA.
#
# CIF created using the CSD Python API on 29 September 2022
# The structure has been converted into the P1 space group
# The structure has a 3D framework
# The original CSD entry HECXAS is in the monoclinic crystal system
# The framework has been calculated to contain at least 10.0% void space
# The void calculation uses a probe of radius 1.32A, grid spacing 0.4
# H atom positions have been added when not included in the experimental data
#
###############################################################################

data_HECXAS
_chemical_formula_moiety         '(C268 H188 Eu12 N8 O76)n'
_symmetry_cell_setting           triclinic
_symmetry_space_group_name_H-M   'P 1'
_symmetry_Int_Tables_number      1
_space_group_name_Hall           'P 1'
loop_
_symmetry_equiv_pos_site_id
_symmetry_equiv_pos_as_xyz
1 x,y,z
_cell_length_a                   11.7837(3)
_cell_length_b                   26.8378(4)
_cell_length_c                   21.7145(4)
_cell_angle_alpha                90
_cell_angle_beta                 94.8166(19)
_cell_angle_gamma                90
_cell_volume                     6842.93
loop_
_atom_site_label
_atom_site_type_symbol
_atom_site_fract_x
_atom_site_fract_y
_atom_site_fract_z
Eu3 Eu 0.63732(2) 0.24743(2) 0.73525(2)
O13 O 0.5086(3) 0.18960(13) 0.68997(18)
O15 O 0.5292(4) 0.18142(14) 0.58861(18)
C35 C 0.5024(5) 0.25009(19) 0.8656(3)
H24 H 0.5583 0.2739 0.8798
C37 C 0.1720(5) 0.00315(19) 0.6293(3)
C38 C 0.4008(5) 0.12762(19) 0.6346(3)
C41 C 0.2607(4) 0.07877(19) 0.6821(3)
H26 H 0.2158 0.0730 0.7158
C42 C 0.0067(5) 0.09077(19) 0.5867(3)
H27 H 0.0552 0.0841 0.5549
C44 C 0.0605(5) 0.0079(2) 0.6360(3)
C45 C 0.3372(4) 0.11833(19) 0.6842(3)
H28 H 0.3458 0.1390 0.7198
C47 C 0.3134(5) 0.0574(2) 0.5805(3)
H30 H 0.3066 0.0365 0.5451
C49 C 0.0026(4) 0.05744(19) 0.6363(3)
C53 C 0.3864(5) 0.0980(2) 0.5824(3)
H33 H 0.4270 0.1055 0.5476
N2 N 0.4363(5) 0.2328(2) 0.9058(3)
C54 C 0.2499(4) 0.04733(18) 0.6302(3)
C58 C 0.4848(5) 0.16961(19) 0.6377(3)
C59 C 0.4558(8) 0.2466(3) 0.9711(4)
H36 H 0.3849 0.2593 0.9858
H37 H 0.4812 0.2173 0.9954
H38 H 0.5145 0.2725 0.9758
C67 C 0.3534(7) 0.1941(3) 0.8904(4)
H44 H 0.3842 0.1619 0.9050
H45 H 0.2835 0.2012 0.9103
H46 H 0.3361 0.1929 0.8455
O20 O 0.4983(4) 0.23807(16) 0.8102(2)
Eu5 Eu 0.59892(2) 0.24937(2) 0.53746(2)
O21 O 0.4819(3) 0.29872(13) 0.70283(18)
O24 O 0.7215(3) 0.19392(13) 0.81458(18)
O27 O 0.7181(3) 0.31356(14) 0.6841(2)
O29 O 0.7032(3) 0.30001(12) 0.81809(17)
O32 O 0.7423(3) 0.20276(16) 0.6695(2)
O17 O 0.4527(3) 0.79322(15) 0.63806(19)
O18 O 0.3400(4) 0.78416(16) 0.5512(2)
C36 C 0.3243(5) 0.94003(19) 0.6576(3)
H25 H 0.3571 0.9627 0.6876
C39 C 0.2277(5) 0.95382(18) 0.6202(3)
C40 C 0.3270(5) 0.8595(2) 0.6070(3)
C46 C 0.0109(5) 0.9271(2) 0.6851(3)
H29 H 0.0799 0.9291 0.7110
C56 C 0.3733(5) 0.89312(19) 0.6515(3)
H34 H 0.4385 0.8840 0.6777
C62 C 0.3783(5) 0.8090(2) 0.5981(3)
C64 C 0.2325(6) 0.8745(2) 0.5683(3)
H41 H 0.2009 0.8524 0.5372
C65 C 0.1842(5) 0.9212(2) 0.5749(3)
H42 H 0.1204 0.9309 0.5479
Eu7 Eu 0.40108(2) 0.75063(2) 0.46254(2)
Eu11 Eu 0.62890(2) 0.75286(2) 0.62841(2)
Eu2 Eu 0.37110(2) 0.24714(2) 0.37159(2)
O3 O 0.5111(4) 0.68198(15) 0.6259(2)
O4 O 0.4829(4) 0.28910(16) 0.6015(2)
O6 O 0.4370(4) 0.68305(14) 0.5279(2)
O9 O 0.3965(4) 0.24987(13) 0.2647(2)
O10 O 0.4218(3) 0.22952(16) 0.48015(19)
C1 C 0.3730(4) 0.35463(18) 0.6398(2)
C2 C 0.2484(5) 0.53429(18) 0.6112(3)
C3 C 0.0022(4) 0.54125(18) 0.6287(3)
O11 O 0.2408(4) 0.21420(19) 0.4547(2)
C4 C 0.2412(4) 0.44155(18) 0.6265(2)
N1 N 0.5525(5) 0.2562(2) 0.2105(3)
C6 C 0.2478(4) 0.41392(18) 0.6814(2)
H2 H 0.2058 0.4244 0.7146
C7 C 0.1779(4) 0.48959(18) 0.6216(2)
C8 C 0.0656(5) 0.49248(18) 0.6281(2)
C10 C 0.3020(5) 0.60163(19) 0.5451(3)
H3 H 0.2934 0.6185 0.5066
H4 H 0.0322 0.4152 0.5514
C12 C 0.0045(5) 0.5699(2) 0.6826(3)
H5 H 0.0530 0.5605 0.7178
C13 C 0.4508(5) 0.66442(19) 0.5806(3)
C14 C 0.3834(5) 0.61739(19) 0.5914(3)
C16 C 0.3146(4) 0.37172(19) 0.6879(2)
H7 H 0.3203 0.3542 0.7261
C20 C 0.2335(5) 0.5607(2) 0.5561(3)
H9 H 0.1757 0.5508 0.5255
C21 C 0.4504(5) 0.3108(2) 0.6491(3)
C23 C 0.3344(5) 0.54922(19) 0.6552(2)
H11 H 0.3489 0.5303 0.6920
C27 C 0.2991(5) 0.4239(2) 0.5777(3)
H13 H 0.2956 0.4419 0.5400
C28 C 0.3623(5) 0.3800(2) 0.5835(3)
H14 H 0.3980 0.3673 0.5491
C29 C 0.3993(5) 0.59130(19) 0.6461(3)
H15 H 0.4547 0.6021 0.6776
C31 C 0.4617(7) 0.2358(3) 0.2262(4)
H17 H 0.4409 0.2056 0.2054
C32 C 0.5962(8) 0.3028(3) 0.2386(5)
H18 H 0.5449 0.3143 0.2688
H19 H 0.6007 0.3281 0.2064
H20 H 0.6722 0.2971 0.2593
C33 C 0.6217(10) 0.2390(4) 0.1627(7)
H21 H 0.5918 0.2072 0.1462
H22 H 0.7004 0.2345 0.1801
H23 H 0.6196 0.2637 0.1294
C34 C 0.3232(6) 0.2159(3) 0.4944(3)
O14 O 0.7678(4) 0.20427(16) 0.5690(2)
C50 C 0.9335(5) 0.0692(2) 0.6829(3)
H31 H 0.9306 0.0473 0.7171
C51 C 0.8696(5) 0.14405(19) 0.6297(3)
C57 C 0.9402(5) 0.13342(19) 0.5840(3)
H35 H 0.9433 0.1556 0.5501
C60 C 0.7880(5) 0.1868(2) 0.6228(3)
C61 C 0.8686(5) 0.1125(2) 0.6805(3)
H39 H 0.8237 0.1205 0.7135
O22 O 0.7258(4) 0.30805(16) 0.5824(2)
O23 O 0.4889(4) 0.31802(15) 0.3741(2)
O25 O 0.2215(3) 0.30608(13) 0.31458(18)
O26 O 0.5630(4) 0.31695(14) 0.4721(2)
O28 O 0.2612(4) 0.31422(17) 0.4146(2)
O30 O 0.2032(3) 0.19999(12) 0.31809(17)
O33 O 0.5473(3) 0.20678(15) 0.36194(19)
O34 O 0.6600(4) 0.21584(16) 0.4488(2)
O35 O 0.3422(4) 0.15617(15) 0.3629(3)
H47 H 0.31131 0.205658 0.541957
O12 O 0.7968(3) 0.80001(12) 0.68191(17)
O19 O 0.6578(4) 0.84383(15) 0.6371(3)
C43 C 0.7590(5) 0.8408(2) 0.6587(3)
C48 C 0.9839(5) 0.9647(2) 0.6423(3)
C52 C 0.9384(5) 0.8866(2) 0.6907(3)
H32 H 0.9592 0.8608 0.7194
C55 C 0.8377(5) 0.8839(2) 0.6548(3)
C63 C 0.8815(6) 0.9618(2) 0.6074(4)
H40 H 0.8606 0.9874 0.5786
C66 C 0.8078(6) 0.9220(2) 0.6136(4)
H43 H 0.7368 0.9209 0.5894
Eu15 Eu 0.86268(2) 0.74743(2) 0.76475(2)
O5 O 0.7785(3) 0.69392(13) 0.68542(18)
O8 O 0.7388(4) 0.68578(17) 0.5854(2)
C5 C 0.9372(5) 0.6118(2) 0.6851(3)
H1 H 0.9383 0.6304 0.7224
C9 C 0.9928(4) 0.44766(18) 0.6326(2)
C11 C 0.9846(5) 0.41255(19) 0.5844(3)
C15 C 0.9268(5) 0.4411(2) 0.6825(3)
H6 H 0.9324 0.4644 0.7155
C17 C 0.8680(5) 0.62699(19) 0.6338(3)
C18 C 0.8538(5) 0.4013(2) 0.6844(3)
H8 H 0.8122 0.3964 0.7195
C19 C 0.7899(5) 0.67106(19) 0.6347(3)
C22 C 0.9061(5) 0.37376(19) 0.5854(3)
H10 H 0.8974 0.3510 0.5518
C24 C 0.8409(5) 0.36810(19) 0.6349(3)
C25 C 0.7549(5) 0.32685(19) 0.6345(3)
C26 C 0.9342(5) 0.5567(2) 0.5775(3)
H12 H 0.9313 0.5374 0.5407
C30 C 0.8697(5) 0.6000(2) 0.5789(3)
H16 H 0.8269 0.6112 0.5425
Eu6 Eu 0.09892(2) 0.25063(2) 0.03746(2)
O6_2 O 0.0630(4) 0.18305(14) 0.9721(2)
O8_2 O 0.7612(4) 0.18578(17) 0.9146(2)
C2_2 C 0.2516(5) 0.03429(18) 0.8888(3)
C3_2 C 0.4978(4) 0.04125(18) 0.8713(3)
C5_2 C 0.5628(5) 0.1118(2) 0.8149(3)
H1_2 H 0.5617 0.1304 0.7776
C10_2 C 0.1980(5) 0.10163(19) 0.9549(3)
H3_2 H 0.2066 0.1185 0.9934
C12_2 C 0.4955(5) 0.0699(2) 0.8174(3)
H5_2 H 0.4470 0.0605 0.7822
C13_2 C 0.0492(5) 0.16442(19) 0.9194(3)
C14_2 C 0.1166(5) 0.11739(19) 0.9086(3)
C17_2 C 0.6320(5) 0.12699(19) 0.8662(3)
C19_2 C 0.7101(5) 0.17106(19) 0.8653(3)
C20_2 C 0.2665(5) 0.0607(2) 0.9439(3)
H9_2 H 0.3243 0.0508 0.9745
C23_2 C 0.1656(5) 0.04922(19) 0.8448(2)
H11_2 H 0.1511 0.0303 0.8080
C26_2 C 0.5658(5) 0.0567(2) 0.9225(3)
H12_2 H 0.5687 0.0374 0.9593
C29_2 C 0.1007(5) 0.09130(19) 0.8539(3)
H15_2 H 0.0453 0.1021 0.8224
C30_2 C 0.6303(5) 0.1000(2) 0.9211(3)
H16_2 H 0.6731 0.1112 0.9575
Eu8 Eu 0.87110(2) 0.25286(2) 0.87159(2)
Eu2_2 Eu 0.12890(2) 0.74714(2) 0.12841(2)
O9_2 O 0.1035(4) 0.74987(13) 0.2353(2)
O10_2 O 0.0782(3) 0.72952(16) 0.01985(19)
O11_2 O 0.2592(4) 0.71420(19) 0.0453(2)
C31_2 C 0.0383(7) 0.7358(3) 0.2738(4)
H17_2 H 0.0591 0.7056 0.2946
C34_2 C 0.1768(6) 0.7159(3) 0.0056(3)
O23_2 O 0.0111(4) 0.81802(15) 0.1259(2)
O25_2 O 0.2785(3) 0.80608(13) 0.18542(18)
O28_2 O 0.2388(4) 0.81422(17) 0.0854(2)
O30_2 O 0.2968(3) 0.69999(12) 0.18191(17)
O35_2 O 0.1578(4) 0.65617(15) 0.1371(3)
O1 O 0.0181(3) 0.79872(13) 0.79717(18)
O2 O 0.7742(4) 0.80805(16) 0.9176(2)
O4_2 O 0.0171(4) 0.78910(16) 0.8985(2)
O7 O 0.7819(3) 0.81356(14) 0.8159(2)
C1_2 C 0.1270(4) 0.85463(18) 0.8602(2)
C4_2 C 0.2588(4) 0.94155(18) 0.8735(2)
C6_2 C 0.2522(4) 0.91392(18) 0.8186(2)
H2_2 H 0.2942 0.9244 0.7854
C7_2 C 0.3221(4) 0.98959(18) 0.8784(2)
C8_2 C 0.4344(5) 0.99248(18) 0.8719(2)
C9_2 C 0.5072(4) 0.94766(18) 0.8674(2)
C11_2 C 0.5154(5) 0.91255(19) 0.9156(3)
H4_2 H 0.4678 0.9152 0.9486
C15_2 C 0.5732(5) 0.9411(2) 0.8175(3)
H6_2 H 0.5676 0.9644 0.7845
C16_2 C 0.1854(4) 0.87172(19) 0.8121(2)
H7_2 H 0.1797 0.8542 0.7739
C18_2 C 0.6462(5) 0.9013(2) 0.8156(3)
H8_2 H 0.6878 0.8964 0.7805
C21_2 C 0.0496(5) 0.8108(2) 0.8509(3)
C22_2 C 0.5939(5) 0.87376(19) 0.9146(3)
H10_2 H 0.6026 0.8510 0.9482
C24_2 C 0.6591(5) 0.86810(19) 0.8651(3)
C25_2 C 0.7451(5) 0.82685(19) 0.8655(3)
C27_2 C 0.2009(5) 0.9239(2) 0.9223(3)
H13_2 H 0.2044 0.9419 0.9600
C28_2 C 0.1377(5) 0.8800(2) 0.9165(3)
H14_2 H 0.1020 0.8673 0.9509
Eu4 Eu 0.90108(2) 0.74937(2) 0.96254(2)
H47_2 H 0.18869 0.705658 0.958043
O3_2 O 0.9889(4) 0.18198(15) 0.8741(2)
N1_2 N 0.9475(5) 0.7562(2) 0.2895(3)
C32_2 C 0.9038(8) 0.8028(3) 0.2614(5)
H18_2 H 0.9551 0.8143 0.2312
H19_2 H 0.8993 0.8281 0.2936
H20_2 H 0.8278 0.7971 0.2407
C33_2 C 0.8783(10) 0.7390(4) 0.3373(7)
H21_2 H 0.9082 0.7072 0.3538
H22_2 H 0.7996 0.7345 0.3199
H23_2 H 0.8804 0.7637 0.3706
O26_2 O 0.9370(4) 0.81695(14) 0.0279(2)
O33_2 O 0.9527(3) 0.70678(15) 0.13806(19)
O34_2 O 0.8400(4) 0.71584(16) 0.0512(2)
O14_2 O 0.7322(4) 0.70427(16) 0.9310(2)
O16 O 0.7577(3) 0.70276(16) 0.8305(2)
O17_2 O 0.0473(3) 0.29322(15) 0.86194(19)
O18_2 O 0.1600(4) 0.28416(16) 0.9488(2)
C36_2 C 0.1757(5) 0.44003(19) 0.8424(3)
H25_2 H 0.1429 0.4627 0.8124
C37_2 C 0.3280(5) 0.50315(19) 0.8707(3)
C38_2 C 0.0992(5) 0.62762(19) 0.8654(3)
O19_2 O 0.8422(4) 0.34383(15) 0.8629(3)
C39_2 C 0.2723(5) 0.45382(18) 0.8798(3)
C40_2 C 0.1730(5) 0.3595(2) 0.8930(3)
C41_2 C 0.2393(4) 0.57877(19) 0.8179(3)
H26_2 H 0.2842 0.5730 0.7842
C42_2 C 0.4933(5) 0.59077(19) 0.9133(3)
H27_2 H 0.4448 0.5841 0.9451
C43_2 C 0.7410(5) 0.3408(2) 0.8413(3)
C44_2 C 0.4395(5) 0.5079(2) 0.8640(3)
C45_2 C 0.1628(4) 0.61833(19) 0.8158(3)
H28_2 H 0.1542 0.6390 0.7802
C46_2 C 0.4891(5) 0.4271(2) 0.8149(3)
H29_2 H 0.4201 0.4291 0.7890
C47_2 C 0.1866(5) 0.5574(2) 0.9195(3)
H30_2 H 0.1934 0.5365 0.9549
C48_2 C 0.5161(5) 0.4647(2) 0.8577(3)
C49_2 C 0.4974(4) 0.55744(19) 0.8637(3)
C50_2 C 0.5665(5) 0.5692(2) 0.8171(3)
H31_2 H 0.5694 0.5473 0.7829
C51_2 C 0.6304(5) 0.64405(19) 0.8703(3)
C52_2 C 0.5616(5) 0.3866(2) 0.8093(3)
H32_2 H 0.5408 0.3608 0.7806
C53_2 C 0.1136(5) 0.5980(2) 0.9176(3)
H33_2 H 0.0730 0.6055 0.9524
N2_2 N 0.0637(5) 0.7328(2) 0.5942(3)
C54_2 C 0.2501(4) 0.54733(18) 0.8698(3)
C55_2 C 0.6623(5) 0.3839(2) 0.8452(3)
C56_2 C 0.1267(5) 0.39312(19) 0.8485(3)
H34_2 H 0.0615 0.3840 0.8223
C57_2 C 0.5598(5) 0.63342(19) 0.9160(3)
H35_2 H 0.5567 0.6556 0.9499
C58_2 C 0.0152(5) 0.66961(19) 0.8623(3)
C59_2 C 0.0442(8) 0.7466(3) 0.5289(4)
H36_2 H 0.1151 0.7593 0.5142
H37_2 H 0.0188 0.7173 0.5046
C60_2 C 0.7120(5) 0.6868(2) 0.8772(3)
C61_2 C 0.6314(5) 0.6125(2) 0.8195(3)
H39_2 H 0.6763 0.6205 0.7865
C62_2 C 0.1217(5) 0.3090(2) 0.9019(3)
C63_2 C 0.6185(6) 0.4618(2) 0.8926(4)
H40_2 H 0.6394 0.4874 0.9214
C64_2 C 0.2675(6) 0.3745(2) 0.9317(3)
H41_2 H 0.2991 0.3524 0.9628
C65_2 C 0.3158(5) 0.4212(2) 0.9251(3)
H42_2 H 0.3796 0.4309 0.9521
C66_2 C 0.6922(6) 0.4220(2) 0.8864(4)
H43_2 H 0.7632 0.4209 0.9106
C67_2 C 0.1466(7) 0.6941(3) 0.6096(4)
H44_2 H 0.1158 0.6619 0.5950
H45_2 H 0.2165 0.7012 0.5897
H46_2 H 0.1639 0.6929 0.6545
O20_2 O 0.0017(4) 0.73807(16) 0.6898(2)
O31 O 0.9708(4) 0.68142(14) 0.91139(18)
O13_2 O 0.9914(3) 0.68960(13) 0.81003(18)
C35_2 C 0.9976(5) 0.75009(19) 0.6344(3)
H24_2 H 0.9417 0.7739 0.6202
H38_2 H 0.9855 0.7725 0.5242
O2_2 O 0.2742(4) 0.69195(16) 0.4176(2)
O7_2 O 0.2819(3) 0.68644(14) 0.3159(2)
C5_3 C 0.0628(5) 0.3882(2) 0.3149(3)
H1_3 H 0.0617 0.3696 0.2776
C9_3 C 0.0072(4) 0.55234(18) 0.3674(2)
C11_3 C 0.0154(5) 0.58745(19) 0.4156(3)
C15_3 C 0.0732(5) 0.5589(2) 0.3175(3)
H6_3 H 0.0676 0.5356 0.2845
C17_3 C 0.1320(5) 0.37301(19) 0.3662(3)
C18_3 C 0.1462(5) 0.5987(2) 0.3156(3)
H8_3 H 0.1878 0.6036 0.2805
C19_3 C 0.2101(5) 0.32894(19) 0.3653(3)
C22_3 C 0.0939(5) 0.62624(19) 0.4146(3)
H10_3 H 0.1026 0.6490 0.4482
C24_3 C 0.1591(5) 0.63190(19) 0.3651(3)
C25_3 C 0.2451(5) 0.67315(19) 0.3655(3)
C26_3 C 0.0658(5) 0.4433(2) 0.4225(3)
H12_3 H 0.0687 0.4626 0.4593
C30_3 C 0.1303(5) 0.4000(2) 0.4211(3)
H16_3 H 0.1731 0.3888 0.4575
Eu12 Eu 0.36268(2) 0.75257(2) 0.26475(2)
Eu14 Eu 0.13732(2) 0.25257(2) 0.23525(2)
C43_3 C 0.2410(5) 0.1592(2) 0.3413(3)
C48_3 C 0.0161(5) 0.0353(2) 0.3577(3)
C52_3 C 0.0616(5) 0.1134(2) 0.3093(3)
H32_3 H 0.0408 0.1392 0.2806
C55_3 C 0.1623(5) 0.1161(2) 0.3452(3)
C63_3 C 0.1185(6) 0.0382(2) 0.3926(4)
H40_3 H 0.1394 0.0126 0.4214
C66_3 C 0.1922(6) 0.0780(2) 0.3864(4)
H43_3 H 0.2632 0.0791 0.4106
O1_2 O 0.5181(3) 0.70128(13) 0.29717(18)
O4_3 O 0.5171(4) 0.71090(16) 0.3985(2)
O9_3 O 0.6035(4) 0.75013(13) 0.7353(2)
O10_3 O 0.5782(3) 0.77048(16) 0.51985(19)
C1_3 C 0.6270(4) 0.64537(18) 0.3602(2)
C2_3 C 0.7516(5) 0.46571(18) 0.3888(3)
C3_3 C 0.9978(4) 0.45875(18) 0.3713(3)
O11_3 O 0.7592(4) 0.78580(19) 0.5453(2)
C4_3 C 0.7588(4) 0.55845(18) 0.3735(2)
N1_3 N 0.4475(5) 0.7438(2) 0.7895(3)
C6_3 C 0.7522(4) 0.58608(18) 0.3186(2)
H2_3 H 0.7942 0.5756 0.2854
C7_3 C 0.8221(4) 0.51041(18) 0.3784(2)
C8_3 C 0.9344(5) 0.50752(18) 0.3719(2)
C10_3 C 0.6980(5) 0.39837(19) 0.4549(3)
H3_3 H 0.7066 0.3815 0.4934
H4_3 H 0.9678 0.5848 0.4486
C12_3 C 0.9955(5) 0.4301(2) 0.3174(3)
H5_3 H 0.9470 0.4395 0.2822
C13_3 C 0.5492(5) 0.33558(19) 0.4194(3)
C14_3 C 0.6166(5) 0.38261(19) 0.4086(3)
C16_3 C 0.6854(4) 0.62828(19) 0.3121(2)
H7_3 H 0.6797 0.6458 0.2739
C20_3 C 0.7665(5) 0.4393(2) 0.4439(3)
H9_3 H 0.8243 0.4492 0.4745
C21_3 C 0.5496(5) 0.6892(2) 0.3509(3)
C23_3 C 0.6656(5) 0.45078(19) 0.3448(2)
H11_3 H 0.6511 0.4697 0.3080
C27_3 C 0.7009(5) 0.5761(2) 0.4223(3)
H13_3 H 0.7044 0.5581 0.4600
C28_3 C 0.6377(5) 0.6200(2) 0.4165(3)
H14_3 H 0.6020 0.6327 0.4509
C29_3 C 0.6007(5) 0.40870(19) 0.3539(3)
H15_3 H 0.5453 0.3979 0.3224
C31_3 C 0.5383(7) 0.7642(3) 0.7738(4)
H17_3 H 0.5591 0.7944 0.7946
C32_3 C 0.4038(8) 0.6972(3) 0.7614(5)
H18_3 H 0.4551 0.6857 0.7312
H19_3 H 0.3993 0.6719 0.7936
H20_3 H 0.3278 0.7029 0.7407
C33_3 C 0.3783(10) 0.7610(4) 0.8373(7)
H21_3 H 0.4082 0.7928 0.8538
H22_3 H 0.2996 0.7655 0.8199
H23_3 H 0.3804 0.7363 0.8706
C34_3 C 0.6768(6) 0.7841(3) 0.5056(3)
O14_3 O 0.2322(4) 0.79573(16) 0.4310(2)
O16_2 O 0.2577(3) 0.79724(16) 0.3305(2)
C50_3 C 0.0665(5) 0.9308(2) 0.3171(3)
H31_3 H 0.0694 0.9527 0.2829
C51_3 C 0.1304(5) 0.85595(19) 0.3703(3)
C57_3 C 0.0598(5) 0.86658(19) 0.4160(3)
H35_3 H 0.0567 0.8444 0.4499
C60_3 C 0.2120(5) 0.8132(2) 0.3772(3)
C61_3 C 0.1314(5) 0.8875(2) 0.3195(3)
H39_3 H 0.1763 0.8795 0.2865
O31_2 O 0.4708(4) 0.81858(14) 0.41139(18)
H47_3 H 0.68869 0.794342 0.458043
C36_3 C 0.6757(5) 0.05997(19) 0.3424(3)
H25_3 H 0.6429 0.0373 0.3124
C39_3 C 0.7723(5) 0.04618(18) 0.3798(3)
C40_3 C 0.6730(5) 0.1405(2) 0.3930(3)
C46_3 C 0.9891(5) 0.0729(2) 0.3149(3)
H29_3 H 0.9201 0.0709 0.2890
C56_3 C 0.6267(5) 0.10688(19) 0.3485(3)
H34_3 H 0.5615 0.1160 0.3223
C62_3 C 0.6217(5) 0.1910(2) 0.4019(3)
C64_3 C 0.7675(6) 0.1255(2) 0.4317(3)
H41_3 H 0.7991 0.1476 0.4628
C65_3 C 0.8158(5) 0.0788(2) 0.4251(3)
H42_3 H 0.8796 0.0691 0.4521
O13_3 O 0.4914(3) 0.81040(13) 0.31003(18)
C35_3 C 0.4976(5) 0.74991(19) 0.1344(3)
H24_3 H 0.4417 0.7261 0.1202
C37_3 C 0.8280(5) 0.99685(19) 0.3707(3)
C38_3 C 0.5992(5) 0.87238(19) 0.3654(3)
C41_3 C 0.7393(4) 0.92123(19) 0.3179(3)
H26_3 H 0.7842 0.9270 0.2842
C42_3 C 0.9933(5) 0.90923(19) 0.4133(3)
H27_3 H 0.9448 0.9159 0.4451
C44_3 C 0.9395(5) 0.9921(2) 0.3640(3)
C45_3 C 0.6628(4) 0.88167(19) 0.3158(3)
H28_3 H 0.6542 0.8610 0.2802
C47_3 C 0.6866(5) 0.9426(2) 0.4195(3)
H30_3 H 0.6934 0.9635 0.4549
C49_3 C 0.9974(4) 0.94256(19) 0.3637(3)
C53_3 C 0.6136(5) 0.9020(2) 0.4176(3)
H33_3 H 0.5730 0.8945 0.4524
N2_3 N 0.5637(5) 0.7672(2) 0.0942(3)
C54_3 C 0.7501(4) 0.95267(18) 0.3698(3)
C58_3 C 0.5152(5) 0.83039(19) 0.3623(3)
C59_3 C 0.5442(8) 0.7534(3) 0.0289(4)
H36_3 H 0.6151 0.7407 0.0142
H37_3 H 0.5188 0.7827 0.0046
H38_3 H 0.4855 0.7275 0.0242
C67_3 C 0.6466(7) 0.8059(3) 0.1096(4)
H44_3 H 0.6158 0.8381 0.0950
H45_3 H 0.7165 0.7988 0.0897
H46_3 H 0.6639 0.8071 0.1545
O20_3 O 0.5017(4) 0.76193(16) 0.1898(2)
O13_4 O 0.0086(3) 0.31040(13) 0.18997(18)
O15_2 O 0.0292(4) 0.31858(14) 0.08861(18)
C35_4 C 0.0024(5) 0.24991(19) 0.3656(3)
H24_4 H 0.0583 0.2261 0.3798
H38_4 H 0.0145 0.2275 0.4758
O27_2 O 0.2181(3) 0.18644(14) 0.1841(2)
O32_2 O 0.2423(3) 0.29724(16) 0.1695(2)
O14_4 O 0.2678(4) 0.29573(16) 0.0690(2)
C36_4 C 0.8243(5) 0.55997(19) 0.1576(3)
H25_4 H 0.8571 0.5373 0.1876
C37_4 C 0.6720(5) 0.49685(19) 0.1293(3)
C38_4 C 0.9008(5) 0.37238(19) 0.1346(3)
C39_4 C 0.7277(5) 0.54618(18) 0.1202(3)
C40_4 C 0.8270(5) 0.6405(2) 0.1070(3)
C41_4 C 0.7607(4) 0.42123(19) 0.1821(3)
H26_4 H 0.7158 0.4270 0.2158
C42_4 C 0.5067(5) 0.40923(19) 0.0867(3)
H27_4 H 0.5552 0.4159 0.0549
C43_4 C 0.2590(5) 0.6592(2) 0.1587(3)
C44_4 C 0.5605(5) 0.4921(2) 0.1360(3)
C45_4 C 0.8372(4) 0.38167(19) 0.1842(3)
H28_4 H 0.8458 0.3610 0.2198
C46_4 C 0.5109(5) 0.5729(2) 0.1851(3)
H29_4 H 0.5799 0.5709 0.2110
C47_4 C 0.8134(5) 0.4426(2) 0.0805(3)
H30_4 H 0.8066 0.4635 0.0451
C48_4 C 0.4839(5) 0.5353(2) 0.1423(3)
C49_4 C 0.5026(4) 0.44256(19) 0.1363(3)
C50_4 C 0.4335(5) 0.4308(2) 0.1829(3)
H31_4 H 0.4306 0.4527 0.2171
C51_4 C 0.3696(5) 0.35595(19) 0.1297(3)
C52_4 C 0.4384(5) 0.6134(2) 0.1907(3)
H32_4 H 0.4592 0.6392 0.2194
C53_4 C 0.8864(5) 0.4020(2) 0.0824(3)
H33_4 H 0.9270 0.3945 0.0476
N2_4 N 0.9363(5) 0.2672(2) 0.4058(3)
C54_4 C 0.7499(4) 0.45267(18) 0.1302(3)
C55_4 C 0.3377(5) 0.6161(2) 0.1548(3)
C56_4 C 0.8733(5) 0.60688(19) 0.1515(3)
H34_4 H 0.9385 0.6160 0.1777
C57_4 C 0.4402(5) 0.36658(19) 0.0840(3)
H35_4 H 0.4433 0.3444 0.0501
C58_4 C 0.9848(5) 0.33039(19) 0.1377(3)
C59_4 C 0.9558(8) 0.2534(3) 0.4711(4)
H36_4 H 0.8849 0.2407 0.4858
H37_4 H 0.9812 0.2827 0.4954
C60_4 C 0.2880(5) 0.3132(2) 0.1228(3)
C61_4 C 0.3686(5) 0.3875(2) 0.1805(3)
H39_4 H 0.3237 0.3795 0.2135
C62_4 C 0.8783(5) 0.6910(2) 0.0981(3)
C63_4 C 0.3815(6) 0.5382(2) 0.1074(4)
H40_4 H 0.3606 0.5126 0.0786
C64_4 C 0.7325(6) 0.6255(2) 0.0683(3)
H41_4 H 0.7009 0.6476 0.0372
C65_4 C 0.6842(5) 0.5788(2) 0.0749(3)
H42_4 H 0.6204 0.5691 0.0479
C66_4 C 0.3078(6) 0.5780(2) 0.1136(4)
H43_4 H 0.2368 0.5791 0.0894
C67_4 C 0.8534(7) 0.3059(3) 0.3904(4)
H44_4 H 0.8842 0.3381 0.4050
H45_4 H 0.7835 0.2988 0.4103
H46_4 H 0.8361 0.3071 0.3455
O20_4 O 0.9983(4) 0.26193(16) 0.3102(2)
O21_2 O 0.9819(3) 0.20128(13) 0.20283(18)
O22_2 O 0.2258(4) 0.19195(16) 0.0824(2)
N1_4 N 0.0525(5) 0.2438(2) 0.7105(3)
C32_4 C 0.0962(8) 0.1972(3) 0.7386(5)
H18_4 H 0.0449 0.1857 0.7688
H19_4 H 0.1007 0.1719 0.7064
H20_4 H 0.1722 0.2029 0.7593
C33_4 C 0.1217(10) 0.2610(4) 0.6627(7)
H21_4 H 0.0918 0.2928 0.6462
H22_4 H 0.2004 0.2655 0.6801
H23_4 H 0.1196 0.2363 0.6294
O4_4 O 0.9829(4) 0.21090(16) 0.1015(2)
C1_4 C 0.8730(4) 0.14537(18) 0.1398(2)
C4_4 C 0.7412(4) 0.05845(18) 0.1265(2)
C6_4 C 0.7478(4) 0.08608(18) 0.1814(2)
H2_4 H 0.7058 0.0756 0.2146
C7_4 C 0.6779(4) 0.01041(18) 0.1216(2)
C8_4 C 0.5656(5) 0.00752(18) 0.1281(2)
C9_4 C 0.4928(4) 0.05234(18) 0.1326(2)
C11_4 C 0.4846(5) 0.08745(19) 0.0844(3)
H4_4 H 0.5322 0.0848 0.0514
C15_4 C 0.4268(5) 0.0589(2) 0.1825(3)
H6_4 H 0.4324 0.0356 0.2155
C16_4 C 0.8146(4) 0.12828(19) 0.1879(2)
H7_4 H 0.8203 0.1458 0.2261
C18_4 C 0.3538(5) 0.0987(2) 0.1844(3)
H8_4 H 0.3122 0.1036 0.2195
C21_4 C 0.9504(5) 0.1892(2) 0.1491(3)
C22_4 C 0.4061(5) 0.12624(19) 0.0854(3)
H10_4 H 0.3974 0.1490 0.0518
C24_4 C 0.3409(5) 0.13190(19) 0.1349(3)
C25_4 C 0.2549(5) 0.17315(19) 0.1345(3)
C27_4 C 0.7991(5) 0.0761(2) 0.0777(3)
H13_4 H 0.7956 0.0581 0.0400
C28_4 C 0.8623(5) 0.1200(2) 0.0835(3)
H14_4 H 0.8980 0.1327 0.0491
H47_4 H 0.81131 0.294342 0.0419573
O9_4 O 0.8965(4) 0.25013(13) 0.7647(2)
O10_4 O 0.9218(3) 0.27048(16) 0.98015(19)
O11_4 O 0.7408(4) 0.28580(19) 0.9547(2)
C31_4 C 0.9617(7) 0.2642(3) 0.7262(4)
H17_4 H 0.9409 0.2944 0.7054
C34_4 C 0.8232(6) 0.2841(3) 0.9944(3)
C2_4 C 0.7484(5) 0.96571(18) 0.1112(3)
C3_4 C 0.5022(4) 0.95875(18) 0.1287(3)
C5_4 C 0.4372(5) 0.8882(2) 0.1851(3)
H1_4 H 0.4383 0.8696 0.2224
C10_4 C 0.8020(5) 0.89837(19) 0.0451(3)
H3_4 H 0.7934 0.8815 0.0066
C12_4 C 0.5045(5) 0.9301(2) 0.1826(3)
H5_4 H 0.5530 0.9395 0.2178
C13_4 C 0.9508(5) 0.83558(19) 0.0806(3)
C14_4 C 0.8834(5) 0.88261(19) 0.0914(3)
C17_4 C 0.3680(5) 0.87301(19) 0.1338(3)
C19_4 C 0.2899(5) 0.82894(19) 0.1347(3)
C20_4 C 0.7335(5) 0.9393(2) 0.0561(3)
H9_4 H 0.6757 0.9492 0.0255
C23_4 C 0.8344(5) 0.95078(19) 0.1552(2)
H11_4 H 0.8489 0.9697 0.1920
C26_4 C 0.4342(5) 0.9433(2) 0.0775(3)
H12_4 H 0.4313 0.9626 0.0407
C29_4 C 0.8993(5) 0.90870(19) 0.1461(3)
H15_4 H 0.9547 0.8979 0.1776
C30_4 C 0.3697(5) 0.9000(2) 0.0789(3)
H16_4 H 0.3269 0.8888 0.0425
loop_
_geom_bond_atom_site_label_1
_geom_bond_atom_site_label_2
_geom_bond_site_symmetry_1
_geom_bond_site_symmetry_2
Eu3 O13 1_555 1_555
O13 C58 1_555 1_555
O15 C58 1_555 1_555
C35 H24 1_555 1_555
C38 C45 1_555 1_555
C41 H26 1_555 1_555
C42 H27 1_555 1_555
C44 C37 1_555 1_555
C45 C41 1_555 1_555
H28 C45 1_555 1_555
C47 H30 1_555 1_555
C49 C42 1_555 1_555
C53 C38 1_555 1_555
H33 C53 1_555 1_555
N2 C35 1_555 1_555
C54 C37 1_555 1_555
C58 C38 1_555 1_555
C59 N2 1_555 1_555
H36 C59 1_555 1_555
H37 C59 1_555 1_555
H38 C59 1_555 1_555
C67 N2 1_555 1_555
H44 C67 1_555 1_555
H45 C67 1_555 1_555
H46 C67 1_555 1_555
O20 Eu3 1_555 1_555
Eu5 O15 1_555 1_555
O21 Eu3 1_555 1_555
O24 Eu3 1_555 1_555
O27 Eu3 1_555 1_555
O29 Eu3 1_555 1_555
O32 Eu3 1_555 1_555
C35 O20 1_555 1_555
C41 C54 1_555 1_555
C44 C49 1_555 1_555
C47 C53 1_555 1_555
C47 C54 1_555 1_555
O17 C62 1_555 1_555
O18 C62 1_555 1_555
C36 H25 1_555 1_555
C39 C36 1_555 1_555
C40 C56 1_555 1_555
C46 H29 1_555 1_555
C56 C36 1_555 1_555
H34 C56 1_555 1_555
C62 C40 1_555 1_555
C64 C40 1_555 1_555
H41 C64 1_555 1_555
C65 C39 1_555 1_555
H42 C65 1_555 1_555
Eu7 O18 1_555 1_555
Eu11 O17 1_555 1_555
C64 C65 1_555 1_555
Eu5 O4 1_555 1_555
Eu2 O9 1_555 1_555
O21 C21 1_555 1_555
O3 C13 1_555 1_555
O4 C21 1_555 1_555
O6 C13 1_555 1_555
O9 C31 1_555 1_555
O10 Eu5 1_555 1_555
C1 C16 1_555 1_555
C2 C7 1_555 1_555
C3 C8 1_555 1_555
O11 Eu2 1_555 1_555
C4 C6 1_555 1_555
N1 C31 1_555 1_555
C6 H2 1_555 1_555
C7 C4 1_555 1_555
C8 C7 1_555 1_555
C10 H3 1_555 1_555
C12 C3 1_555 1_555
H5 C12 1_555 1_555
C13 C14 1_555 1_555
C14 C10 1_555 1_555
C16 C6 1_555 1_555
H7 C16 1_555 1_555
C20 C2 1_555 1_555
H9 C20 1_555 1_555
C21 C1 1_555 1_555
C23 C2 1_555 1_555
H11 C23 1_555 1_555
C27 C4 1_555 1_555
H13 C27 1_555 1_555
C28 C1 1_555 1_555
H14 C28 1_555 1_555
C29 C14 1_555 1_555
H15 C29 1_555 1_555
C31 H17 1_555 1_555
C32 N1 1_555 1_555
H18 C32 1_555 1_555
H19 C32 1_555 1_555
H20 C32 1_555 1_555
C33 N1 1_555 1_555
H21 C33 1_555 1_555
H22 C33 1_555 1_555
H23 C33 1_555 1_555
C34 O10 1_555 1_555
O14 Eu5 1_555 1_555
O32 C60 1_555 1_555
H31 C50 1_555 1_555
C51 C57 1_555 1_555
H35 C57 1_555 1_555
C60 O14 1_555 1_555
C61 C50 1_555 1_555
H39 C61 1_555 1_555
Eu7 O6 1_555 1_555
Eu11 O3 1_555 1_555
O22 Eu5 1_555 1_555
O23 Eu2 1_555 1_555
O25 Eu2 1_555 1_555
O26 Eu5 1_555 1_555
O28 Eu2 1_555 1_555
O30 Eu2 1_555 1_555
O33 Eu2 1_555 1_555
O34 Eu5 1_555 1_555
O35 Eu2 1_555 1_555
Eu2 O10 1_555 1_555
O11 C34 1_555 1_555
C10 C20 1_555 1_555
C23 C29 1_555 1_555
C27 C28 1_555 1_555
C51 C60 1_555 1_555
C51 C61 1_555 1_555
C34 H47 1_555 1_555
O12 C43 1_555 1_555
O19 C43 1_555 1_555
C43 C55 1_555 1_555
H32 C52 1_555 1_555
C55 C52 1_555 1_555
C63 C48 1_555 1_555
H40 C63 1_555 1_555
C66 C55 1_555 1_555
H43 C66 1_555 1_555
Eu11 O12 1_555 1_555
Eu15 O12 1_555 1_555
O19 Eu11 1_555 1_555
C63 C66 1_555 1_555
O22 C25 1_555 1_555
O5 C19 1_555 1_555
O27 C25 1_555 1_555
O8 C19 1_555 1_555
C5 H1 1_555 1_555
C11 C9 1_555 1_555
C15 C9 1_555 1_555
H6 C15 1_555 1_555
C17 C5 1_555 1_555
C18 C15 1_555 1_555
H8 C18 1_555 1_555
C19 C17 1_555 1_555
C22 C11 1_555 1_555
H10 C22 1_555 1_555
C24 C18 1_555 1_555
C25 C24 1_555 1_555
H12 C26 1_555 1_555
C30 C17 1_555 1_555
H16 C30 1_555 1_555
Eu11 O5 1_555 1_555
Eu15 O5 1_555 1_555
O8 Eu11 1_555 1_555
C22 C24 1_555 1_555
C26 C30 1_555 1_555
O24 C19_2 1_555 1_555
O6_2 C13_2 1_555 1_555
O8_2 C19_2 1_555 1_555
C5_2 H1_2 1_555 1_555
C10_2 H3_2 1_555 1_555
C12_2 C3_2 1_555 1_555
H5_2 C12_2 1_555 1_555
C13_2 C14_2 1_555 1_555
C14_2 C10_2 1_555 1_555
C17_2 C5_2 1_555 1_555
C19_2 C17_2 1_555 1_555
C20_2 C2_2 1_555 1_555
H9_2 C20_2 1_555 1_555
C23_2 C2_2 1_555 1_555
H11_2 C23_2 1_555 1_555
C26_2 C3_2 1_555 1_555
H12_2 C26_2 1_555 1_555
C29_2 C14_2 1_555 1_555
H15_2 C29_2 1_555 1_555
C30_2 C17_2 1_555 1_555
H16_2 C30_2 1_555 1_555
Eu8 O24 1_555 1_555
O8_2 Eu8 1_555 1_555
C5_2 C12_2 1_555 1_555
C10_2 C20_2 1_555 1_555
C23_2 C29_2 1_555 1_555
C26_2 C30_2 1_555 1_555
Eu2_2 O9_2 1_555 1_555
O9_2 C31_2 1_555 1_555
O11_2 Eu2_2 1_555 1_555
C31_2 H17_2 1_555 1_555
C34_2 O10_2 1_555 1_555
O23_2 Eu2_2 1_555 1_555
O25_2 Eu2_2 1_555 1_555
O28_2 Eu2_2 1_555 1_555
O30_2 Eu2_2 1_555 1_555
O35_2 Eu2_2 1_555 1_555
Eu2_2 O10_2 1_555 1_555
O11_2 C34_2 1_555 1_555
O1 C21_2 1_555 1_555
O2 C25_2 1_555 1_555
O4_2 C21_2 1_555 1_555
O7 C25_2 1_555 1_555
C1_2 C16_2 1_555 1_555
C4_2 C6_2 1_555 1_555
C6_2 H2_2 1_555 1_555
C7_2 C4_2 1_555 1_555
C8_2 C7_2 1_555 1_555
C9_2 C8_2 1_555 1_555
C11_2 C9_2 1_555 1_555
H4_2 C11_2 1_555 1_555
C15_2 C9_2 1_555 1_555
H6_2 C15_2 1_555 1_555
C16_2 C6_2 1_555 1_555
H7_2 C16_2 1_555 1_555
C18_2 C15_2 1_555 1_555
H8_2 C18_2 1_555 1_555
C21_2 C1_2 1_555 1_555
C22_2 C11_2 1_555 1_555
H10_2 C22_2 1_555 1_555
C24_2 C18_2 1_555 1_555
C25_2 C24_2 1_555 1_555
C27_2 C4_2 1_555 1_555
H13_2 C27_2 1_555 1_555
C28_2 C1_2 1_555 1_555
H14_2 C28_2 1_555 1_555
Eu4 O2 1_555 1_555
Eu15 O7 1_555 1_555
C22_2 C24_2 1_555 1_555
C27_2 C28_2 1_555 1_555
Eu8 O3_2 1_555 1_555
C32_2 N1_2 1_555 1_555
H18_2 C32_2 1_555 1_555
H19_2 C32_2 1_555 1_555
H20_2 C32_2 1_555 1_555
C33_2 N1_2 1_555 1_555
H21_2 C33_2 1_555 1_555
H22_2 C33_2 1_555 1_555
H23_2 C33_2 1_555 1_555
O29 C43_2 1_555 1_555
O14_2 Eu4 1_555 1_555
O16 C60_2 1_555 1_555
O17_2 C62_2 1_555 1_555
O18_2 C62_2 1_555 1_555
C36_2 H25_2 1_555 1_555
C37_2 C39_2 1_555 1_555
C38_2 C45_2 1_555 1_555
O19_2 C43_2 1_555 1_555
C39_2 C36_2 1_555 1_555
C40_2 C56_2 1_555 1_555
C41_2 H26_2 1_555 1_555
C42_2 H27_2 1_555 1_555
C43_2 C55_2 1_555 1_555
C44_2 C37_2 1_555 1_555
C45_2 C41_2 1_555 1_555
H28_2 C45_2 1_555 1_555
C46_2 H29_2 1_555 1_555
C47_2 H30_2 1_555 1_555
C48_2 C44_2 1_555 1_555
C49_2 C42_2 1_555 1_555
C50_2 C49_2 1_555 1_555
H31_2 C50_2 1_555 1_555
C51_2 C57_2 1_555 1_555
C52_2 C46_2 1_555 1_555
H32_2 C52_2 1_555 1_555
C53_2 C38_2 1_555 1_555
H33_2 C53_2 1_555 1_555
C54_2 C37_2 1_555 1_555
C55_2 C52_2 1_555 1_555
C56_2 C36_2 1_555 1_555
H34_2 C56_2 1_555 1_555
C57_2 C42_2 1_555 1_555
H35_2 C57_2 1_555 1_555
C58_2 C38_2 1_555 1_555
C59_2 N2_2 1_555 1_555
H36_2 C59_2 1_555 1_555
H37_2 C59_2 1_555 1_555
C60_2 O14_2 1_555 1_555
C61_2 C50_2 1_555 1_555
H39_2 C61_2 1_555 1_555
C62_2 C40_2 1_555 1_555
C63_2 C48_2 1_555 1_555
H40_2 C63_2 1_555 1_555
C64_2 C40_2 1_555 1_555
H41_2 C64_2 1_555 1_555
C65_2 C39_2 1_555 1_555
H42_2 C65_2 1_555 1_555
C66_2 C55_2 1_555 1_555
H43_2 C66_2 1_555 1_555
C67_2 N2_2 1_555 1_555
H44_2 C67_2 1_555 1_555
H45_2 C67_2 1_555 1_555
H46_2 C67_2 1_555 1_555
Eu8 O29 1_555 1_555
O31 Eu4 1_555 1_555
O16 Eu15 1_555 1_555
O19_2 Eu8 1_555 1_555
C41_2 C54_2 1_555 1_555
C44_2 C49_2 1_555 1_555
C46_2 C48_2 1_555 1_555
C47_2 C53_2 1_555 1_555
C47_2 C54_2 1_555 1_555
C51_2 C60_2 1_555 1_555
C51_2 C61_2 1_555 1_555
C63_2 C66_2 1_555 1_555
C64_2 C65_2 1_555 1_555
Eu15 O13_2 1_555 1_555
C35_2 H24_2 1_555 1_555
O2_2 C25_3 1_555 1_555
O25 C19_3 1_555 1_555
O7_2 C25_3 1_555 1_555
O28 C19_3 1_555 1_555
C5_3 H1_3 1_555 1_555
C11_3 C9_3 1_555 1_555
C15_3 C9_3 1_555 1_555
H6_3 C15_3 1_555 1_555
C17_3 C5_3 1_555 1_555
C18_3 C15_3 1_555 1_555
H8_3 C18_3 1_555 1_555
C19_3 C17_3 1_555 1_555
C22_3 C11_3 1_555 1_555
H10_3 C22_3 1_555 1_555
C24_3 C18_3 1_555 1_555
C25_3 C24_3 1_555 1_555
H12_3 C26_3 1_555 1_555
C30_3 C17_3 1_555 1_555
H16_3 C30_3 1_555 1_555
Eu7 O2_2 1_555 1_555
Eu12 O7_2 1_555 1_555
Eu14 O25 1_555 1_555
C22_3 C24_3 1_555 1_555
C26_3 C30_3 1_555 1_555
O30 C43_3 1_555 1_555
O35 C43_3 1_555 1_555
C43_3 C55_3 1_555 1_555
H32_3 C52_3 1_555 1_555
C55_3 C52_3 1_555 1_555
C63_3 C48_3 1_555 1_555
H40_3 C63_3 1_555 1_555
C66_3 C55_3 1_555 1_555
H43_3 C66_3 1_555 1_555
Eu14 O30 1_555 1_555
C63_3 C66_3 1_555 1_555
Eu7 O4_3 1_555 1_555
Eu11 O9_3 1_555 1_555
O1_2 C21_3 1_555 1_555
O23 C13_3 1_555 1_555
O4_3 C21_3 1_555 1_555
O26 C13_3 1_555 1_555
O9_3 C31_3 1_555 1_555
O10_3 Eu7 1_555 1_555
C1_3 C16_3 1_555 1_555
C2_3 C7_3 1_555 1_555
C3_3 C8_3 1_555 1_555
O11_3 Eu11 1_555 1_555
C4_3 C6_3 1_555 1_555
N1_3 C31_3 1_555 1_555
C6_3 H2_3 1_555 1_555
C7_3 C4_3 1_555 1_555
C8_3 C7_3 1_555 1_555
C10_3 H3_3 1_555 1_555
C12_3 C3_3 1_555 1_555
H5_3 C12_3 1_555 1_555
C13_3 C14_3 1_555 1_555
C14_3 C10_3 1_555 1_555
C16_3 C6_3 1_555 1_555
H7_3 C16_3 1_555 1_555
C20_3 C2_3 1_555 1_555
H9_3 C20_3 1_555 1_555
C21_3 C1_3 1_555 1_555
C23_3 C2_3 1_555 1_555
H11_3 C23_3 1_555 1_555
C27_3 C4_3 1_555 1_555
H13_3 C27_3 1_555 1_555
C28_3 C1_3 1_555 1_555
H14_3 C28_3 1_555 1_555
C29_3 C14_3 1_555 1_555
H15_3 C29_3 1_555 1_555
C31_3 H17_3 1_555 1_555
C32_3 N1_3 1_555 1_555
H18_3 C32_3 1_555 1_555
H19_3 C32_3 1_555 1_555
H20_3 C32_3 1_555 1_555
C33_3 N1_3 1_555 1_555
H21_3 C33_3 1_555 1_555
H22_3 C33_3 1_555 1_555
H23_3 C33_3 1_555 1_555
C34_3 O10_3 1_555 1_555
O14_3 Eu7 1_555 1_555
O16_2 C60_3 1_555 1_555
H31_3 C50_3 1_555 1_555
C51_3 C57_3 1_555 1_555
H35_3 C57_3 1_555 1_555
C60_3 O14_3 1_555 1_555
C61_3 C50_3 1_555 1_555
H39_3 C61_3 1_555 1_555
Eu12 O1_2 1_555 1_555
O31_2 Eu7 1_555 1_555
Eu11 O10_3 1_555 1_555
O11_3 C34_3 1_555 1_555
C10_3 C20_3 1_555 1_555
C23_3 C29_3 1_555 1_555
C27_3 C28_3 1_555 1_555
O16_2 Eu12 1_555 1_555
C51_3 C60_3 1_555 1_555
C51_3 C61_3 1_555 1_555
C34_3 H47_3 1_555 1_555
O33 C62_3 1_555 1_555
O34 C62_3 1_555 1_555
C36_3 H25_3 1_555 1_555
C39_3 C36_3 1_555 1_555
C40_3 C56_3 1_555 1_555
C46_3 H29_3 1_555 1_555
C56_3 C36_3 1_555 1_555
H34_3 C56_3 1_555 1_555
C62_3 C40_3 1_555 1_555
C64_3 C40_3 1_555 1_555
H41_3 C64_3 1_555 1_555
C65_3 C39_3 1_555 1_555
H42_3 C65_3 1_555 1_555
C64_3 C65_3 1_555 1_555
Eu12 O13_3 1_555 1_555
O13_3 C58_3 1_555 1_555
O31_2 C58_3 1_555 1_555
C35_3 H24_3 1_555 1_555
C38_3 C45_3 1_555 1_555
C41_3 H26_3 1_555 1_555
C42_3 H27_3 1_555 1_555
C44_3 C37_3 1_555 1_555
C45_3 C41_3 1_555 1_555
H28_3 C45_3 1_555 1_555
C47_3 H30_3 1_555 1_555
C49_3 C42_3 1_555 1_555
C53_3 C38_3 1_555 1_555
H33_3 C53_3 1_555 1_555
N2_3 C35_3 1_555 1_555
C54_3 C37_3 1_555 1_555
C58_3 C38_3 1_555 1_555
C59_3 N2_3 1_555 1_555
H36_3 C59_3 1_555 1_555
H37_3 C59_3 1_555 1_555
H38_3 C59_3 1_555 1_555
C67_3 N2_3 1_555 1_555
H44_3 C67_3 1_555 1_555
H45_3 C67_3 1_555 1_555
H46_3 C67_3 1_555 1_555
O20_3 Eu12 1_555 1_555
O25_2 Eu12 1_555 1_555
O30_2 Eu12 1_555 1_555
C35_3 O20_3 1_555 1_555
C41_3 C54_3 1_555 1_555
C44_3 C49_3 1_555 1_555
C47_3 C53_3 1_555 1_555
C47_3 C54_3 1_555 1_555
Eu14 O13_4 1_555 1_555
C35_4 H24_4 1_555 1_555
Eu6 O15_2 1_555 1_555
O27_2 Eu14 1_555 1_555
O32_2 Eu14 1_555 1_555
O30_2 C43_4 1_555 1_555
O14_4 Eu6 1_555 1_555
O32_2 C60_4 1_555 1_555
O33_2 C62_4 1_555 1_555
O34_2 C62_4 1_555 1_555
C36_4 H25_4 1_555 1_555
C37_4 C39_4 1_555 1_555
C38_4 C45_4 1_555 1_555
O35_2 C43_4 1_555 1_555
C39_4 C36_4 1_555 1_555
C40_4 C56_4 1_555 1_555
C41_4 H26_4 1_555 1_555
C42_4 H27_4 1_555 1_555
C43_4 C55_4 1_555 1_555
C44_4 C37_4 1_555 1_555
C45_4 C41_4 1_555 1_555
H28_4 C45_4 1_555 1_555
C46_4 H29_4 1_555 1_555
C47_4 H30_4 1_555 1_555
C48_4 C44_4 1_555 1_555
C49_4 C42_4 1_555 1_555
C50_4 C49_4 1_555 1_555
H31_4 C50_4 1_555 1_555
C51_4 C57_4 1_555 1_555
C52_4 C46_4 1_555 1_555
H32_4 C52_4 1_555 1_555
C53_4 C38_4 1_555 1_555
H33_4 C53_4 1_555 1_555
C54_4 C37_4 1_555 1_555
C55_4 C52_4 1_555 1_555
C56_4 C36_4 1_555 1_555
H34_4 C56_4 1_555 1_555
C57_4 C42_4 1_555 1_555
H35_4 C57_4 1_555 1_555
C58_4 C38_4 1_555 1_555
C59_4 N2_4 1_555 1_555
H36_4 C59_4 1_555 1_555
H37_4 C59_4 1_555 1_555
C60_4 O14_4 1_555 1_555
C61_4 C50_4 1_555 1_555
H39_4 C61_4 1_555 1_555
C62_4 C40_4 1_555 1_555
C63_4 C48_4 1_555 1_555
H40_4 C63_4 1_555 1_555
C64_4 C40_4 1_555 1_555
H41_4 C64_4 1_555 1_555
C65_4 C39_4 1_555 1_555
H42_4 C65_4 1_555 1_555
C66_4 C55_4 1_555 1_555
H43_4 C66_4 1_555 1_555
C67_4 N2_4 1_555 1_555
H44_4 C67_4 1_555 1_555
H45_4 C67_4 1_555 1_555
H46_4 C67_4 1_555 1_555
O22_2 Eu6 1_555 1_555
C41_4 C54_4 1_555 1_555
C44_4 C49_4 1_555 1_555
C46_4 C48_4 1_555 1_555
C47_4 C53_4 1_555 1_555
C47_4 C54_4 1_555 1_555
C51_4 C60_4 1_555 1_555
C51_4 C61_4 1_555 1_555
C63_4 C66_4 1_555 1_555
C64_4 C65_4 1_555 1_555
C32_4 N1_4 1_555 1_555
H18_4 C32_4 1_555 1_555
H19_4 C32_4 1_555 1_555
H20_4 C32_4 1_555 1_555
C33_4 N1_4 1_555 1_555
H21_4 C33_4 1_555 1_555
H22_4 C33_4 1_555 1_555
H23_4 C33_4 1_555 1_555
O21_2 C21_4 1_555 1_555
O22_2 C25_4 1_555 1_555
O4_4 C21_4 1_555 1_555
O27_2 C25_4 1_555 1_555
C1_4 C16_4 1_555 1_555
C4_4 C6_4 1_555 1_555
C6_4 H2_4 1_555 1_555
C7_4 C4_4 1_555 1_555
C8_4 C7_4 1_555 1_555
C9_4 C8_4 1_555 1_555
C11_4 C9_4 1_555 1_555
H4_4 C11_4 1_555 1_555
C15_4 C9_4 1_555 1_555
H6_4 C15_4 1_555 1_555
C16_4 C6_4 1_555 1_555
H7_4 C16_4 1_555 1_555
C18_4 C15_4 1_555 1_555
H8_4 C18_4 1_555 1_555
C21_4 C1_4 1_555 1_555
C22_4 C11_4 1_555 1_555
H10_4 C22_4 1_555 1_555
C24_4 C18_4 1_555 1_555
C25_4 C24_4 1_555 1_555
C27_4 C4_4 1_555 1_555
H13_4 C27_4 1_555 1_555
C28_4 C1_4 1_555 1_555
H14_4 C28_4 1_555 1_555
C22_4 C24_4 1_555 1_555
C27_4 C28_4 1_555 1_555
Eu8 O9_4 1_555 1_555
O9_4 C31_4 1_555 1_555
O11_4 Eu8 1_555 1_555
C31_4 H17_4 1_555 1_555
C34_4 O10_4 1_555 1_555
Eu8 O10_4 1_555 1_555
O11_4 C34_4 1_555 1_555
O25_2 C19_4 1_555 1_555
O26_2 C13_4 1_555 1_555
O28_2 C19_4 1_555 1_555
C5_4 H1_4 1_555 1_555
C10_4 H3_4 1_555 1_555
C12_4 C3_4 1_555 1_555
H5_4 C12_4 1_555 1_555
C13_4 C14_4 1_555 1_555
C14_4 C10_4 1_555 1_555
C17_4 C5_4 1_555 1_555
C19_4 C17_4 1_555 1_555
C20_4 C2_4 1_555 1_555
H9_4 C20_4 1_555 1_555
C23_4 C2_4 1_555 1_555
H11_4 C23_4 1_555 1_555
C26_4 C3_4 1_555 1_555
H12_4 C26_4 1_555 1_555
C29_4 C14_4 1_555 1_555
H15_4 C29_4 1_555 1_555
C30_4 C17_4 1_555 1_555
H16_4 C30_4 1_555 1_555
C5_4 C12_4 1_555 1_555
C10_4 C20_4 1_555 1_555
C23_4 C29_4 1_555 1_555
C26_4 C30_4 1_555 1_555

#END
