
###############################################################################
#
# This file contains modified crystal structure data generated from the
# MOF subset of the Cambridge Structural Database (CSD) v543 
# hosted by the Cambridge Crystallographic Data Centre (CCDC).
#
# This work is licensed under the Creative Commons
# Attribution-NonCommercial-ShareAlike 4.0 International License.
# To view a copy of this license, visit
# http://creativecommons.org/licenses/by-nc-sa/4.0/
# or send a letter to
# Creative Commons, PO Box 1866, Mountain View, CA 94042, USA.
#
# CIF created using the CSD Python API on 29 September 2022
# The structure has been converted into the P1 space group
# The structure has a 3D framework
# The original CSD entry HEDBUP is in the orthorhombic crystal system
# The framework has been calculated to contain at least 10.0% void space
# The void calculation uses a probe of radius 1.32A, grid spacing 0.4
# H atom positions have been added when not included in the experimental data
#
###############################################################################

data_HEDBUP
_chemical_formula_moiety         '(C48 H56 Nd4 O96 U8)n'
_symmetry_cell_setting           triclinic
_symmetry_space_group_name_H-M   'P 1'
_symmetry_Int_Tables_number      1
_space_group_name_Hall           'P 1'
loop_
_symmetry_equiv_pos_site_id
_symmetry_equiv_pos_as_xyz
1 x,y,z
_cell_length_a                   15.8367(8)
_cell_length_b                   8.3203(6)
_cell_length_c                   21.5047(3)
_cell_angle_alpha                90
_cell_angle_beta                 90
_cell_angle_gamma                90
_cell_volume                     2833.59
loop_
_atom_site_label
_atom_site_type_symbol
_atom_site_fract_x
_atom_site_fract_y
_atom_site_fract_z
U1 U 0.355813(13) 0.02296(3) 0.023922
O14 O 0.4949(3) 0.0764(7) 0.0473(2)
O16 O 0.3347(3) 0.1838(6) 0.0752(2)
U6 U 0.133750(13) 0.48407(3) 0.028120(17)
U7 U 0.633750(13) 0.01593(3) 0.028120(17)
H7 H 0.0059426 0.0330021 0.24629
O3 O 0.2166(4) 0.0605(7) 0.9758(3)
O10 O 0.0925(3) 0.1160(6) 0.8750(3)
O13 O 0.1073(3) 0.3154(6) 0.9417(3)
C9 C 0.0381(4) 0.0761(8) 0.9760(3)
C12 C 0.0841(4) 0.1757(8) 0.9271(3)
Nd2 Nd 0.15650(2) 0.14548(4) 0.77228(3)
O30 O 0.3836(3) 0.1893(6) 0.9378(3)
C3 C 0.0840(4) 0.9855(6) 0.0207(4)
C4 C 0.1782(4) 0.9884(6) 0.0188(3)
C5 C 0.0875(4) 0.8099(8) 0.1171(3)
O4 O 0.1044(3) 0.6654(6) 0.1110(2)
O5 O 0.0996(3) 0.8885(6) 0.1659(3)
O22 O 0.2185(3) 0.9167(7) 0.0609(3)
C8 C 0.0403(4) 0.8997(8) 0.0649(3)
O26 O 0.3824(3) 0.8418(6) 0.1064(3)
H8 H 0.0185696 0.950861 0.314035
O9 O 0.6549(3) 0.1774(6) 0.0793(2)
O21 O 0.7552(6) 0.0151(10) 0.1956(5)
O23 O 0.8567(7) 0.1448(15) 0.2889(6)
U4 U 0.855813(13) 0.47704(3) 0.023922
H4 H 0.703816 0.0560393 0.2168
H5 H 0.824142 0.202929 0.256473
H6 H 0.834211 0.172915 0.330609
O1 O 0.7720(3) 0.0425(6) 0.9762(3)
O15 O 0.8836(3) 0.3107(6) 0.9378(3)
O18 O 0.8916(3) 0.0999(7) 0.8742(3)
C7 C 0.9046(4) 0.1659(8) 0.9248(3)
C11 C 0.9506(4) 0.0716(8) 0.9747(3)
O28 O 0.6073(3) 0.1846(6) 0.9417(3)
Nd1 Nd 0.84350(2) 0.85452(4) 0.27228(3)
C1 C 0.8131(4) 0.9822(6) 0.0219(4)
C2 C 0.9072(4) 0.9785(7) 0.0194(3)
O2 O 0.7739(3) 0.9224(6) 0.0666(2)
C6 C 0.9074(4) 0.8013(8) 0.1163(3)
O6 O 0.8824(3) 0.6582(6) 0.1064(3)
O7 O 0.9063(3) 0.8670(6) 0.1680(3)
O11 O 0.7795(4) 0.6424(7) 0.3430(3)
O12 O 0.7617(4) 0.6565(8) 0.2047(3)
O19 O 0.9255(4) 0.6012(8) 0.2716(4)
O20 O 0.9987(3) 0.9328(8) 0.2708(4)
C10 C 0.9522(4) 0.8926(7) 0.0653(3)
O24 O 0.7012(7) 0.9362(14) 0.3147(5)
O25 O 0.6044(3) 0.8346(6) 0.1110(2)
O27 O 0.9075(3) 0.8840(6) 0.3750(3)
H1 H 0.986268 0.625848 0.265388
H2 H 0.917847 0.544775 0.311897
H3 H 0.738452 0.944939 0.160341
H9 H 0.8222 0.557998 0.351774
H10 H 0.761463 0.693115 0.382633
H11 H 0.656146 0.875278 0.292888
H12 H 0.698851 0.912305 0.359908
H13 H 0.800912 0.573511 0.188349
H14 H 0.717075 0.604024 0.229999
C1_2 C 0.1869(4) 0.0178(6) 0.5219(4)
C2_2 C 0.0928(4) 0.0215(7) 0.5194(3)
O2_2 O 0.2261(3) 0.0776(6) 0.5666(2)
C6_2 C 0.0926(4) 0.1987(8) 0.6163(3)
O6_2 O 0.1176(3) 0.3418(6) 0.6064(3)
O7_2 O 0.0937(3) 0.1330(6) 0.6680(3)
O11_2 O 0.2205(4) 0.3576(7) 0.8430(3)
O12_2 O 0.2383(4) 0.3435(8) 0.7047(3)
O17 O 0.3895(3) 0.1448(6) 0.4756(3)
O19_2 O 0.0745(4) 0.3988(8) 0.7716(4)
O20_2 O 0.0013(3) 0.0672(8) 0.7708(4)
C10_2 C 0.0478(4) 0.1074(7) 0.5653(3)
O24_2 O 0.2988(7) 0.0638(14) 0.8147(5)
U3 U 0.144187(13) 0.52296(3) 0.523922
O25_2 O 0.3956(3) 0.1654(6) 0.6110(2)
H1_2 H 0.013732 0.374152 0.765388
H2_2 H 0.0821529 0.455225 0.811897
H3_2 H 0.261548 0.0550613 0.660341
H9_2 H 0.1778 0.442002 0.851774
H10_2 H 0.238537 0.306885 0.882633
H11_2 H 0.343854 0.124722 0.792888
H12_2 H 0.301149 0.0876953 0.859908
H13_2 H 0.199088 0.426489 0.688349
H14_2 H 0.282925 0.395976 0.729999
U2 U 0.366250(13) 0.98407(3) 0.528120(17)
O1_2 O 0.2280(3) 0.9575(6) 0.4762(3)
O9_2 O 0.3451(3) 0.8226(6) 0.5793(2)
O15_2 O 0.1164(3) 0.6893(6) 0.4378(3)
O18_2 O 0.1084(3) 0.9001(7) 0.3742(3)
C7_2 C 0.0954(4) 0.8341(8) 0.4248(3)
O21_2 O 0.2448(6) 0.9849(10) 0.6956(5)
C11_2 C 0.0494(4) 0.9284(8) 0.4747(3)
O23_2 O 0.1433(7) 0.8552(15) 0.7889(6)
O28_2 O 0.3927(3) 0.8154(6) 0.4417(3)
O29 O 0.5051(3) 0.9236(7) 0.5473(2)
H4_2 H 0.296184 0.943961 0.7168
H5_2 H 0.175858 0.797071 0.756473
H6_2 H 0.165789 0.827085 0.830609
C3_2 C 0.9160(4) 0.0145(6) 0.5207(4)
C4_2 C 0.8218(4) 0.0116(6) 0.5188(3)
C5_2 C 0.9125(4) 0.1901(8) 0.6171(3)
O4_2 O 0.8956(3) 0.3346(6) 0.6110(2)
O5_2 O 0.9004(3) 0.1115(6) 0.6659(3)
O8 O 0.6210(3) 0.1370(7) 0.4719(3)
O22_2 O 0.7815(3) 0.0833(7) 0.5609(3)
C8_2 C 0.9597(4) 0.1003(8) 0.5649(3)
U5 U 0.866250(13) 0.51593(3) 0.528120(17)
O26_2 O 0.6176(3) 0.1582(6) 0.6064(3)
H8_2 H 0.98143 0.0491387 0.814035
U1_2 U 0.644187(13) 0.97704(3) 0.523922
O3_2 O 0.7834(4) 0.9395(7) 0.4758(3)
O13_2 O 0.8927(3) 0.6846(6) 0.4417(3)
O16_2 O 0.6653(3) 0.8162(6) 0.5752(2)
C9_2 C 0.9619(4) 0.9239(8) 0.4760(3)
C12_2 C 0.9159(4) 0.8243(8) 0.4271(3)
O30_2 O 0.6164(3) 0.8107(6) 0.4378(3)
H7_2 H 0.994057 0.966998 0.74629
Nd1_2 Nd 0.34350(2) 0.64548(4) 0.27228(3)
C1_3 C 0.3131(4) 0.5178(6) 0.0219(4)
C2_3 C 0.4072(4) 0.5215(7) 0.0194(3)
O2_3 O 0.2739(3) 0.5776(6) 0.0666(2)
C3_3 C 0.5840(4) 0.5145(6) 0.0207(4)
C4_3 C 0.6782(4) 0.5116(6) 0.0188(3)
C5_3 C 0.5875(4) 0.6901(8) 0.1171(3)
O5_3 O 0.5996(3) 0.6115(6) 0.1659(3)
C6_3 C 0.4074(4) 0.6987(8) 0.1163(3)
O7_3 O 0.4063(3) 0.6330(6) 0.1680(3)
O9_3 O 0.1549(3) 0.3226(6) 0.0793(2)
O11_3 O 0.2795(4) 0.8576(7) 0.3430(3)
O12_3 O 0.2617(4) 0.8435(8) 0.2047(3)
O14_2 O 0.9949(3) 0.4236(7) 0.0473(2)
O16_3 O 0.8347(3) 0.3162(6) 0.0752(2)
O19_3 O 0.4255(4) 0.8988(8) 0.2716(4)
O20_3 O 0.4987(3) 0.5672(8) 0.2708(4)
O21_3 O 0.2552(6) 0.4849(10) 0.1956(5)
O22_3 O 0.7185(3) 0.5833(7) 0.0609(3)
C8_3 C 0.5403(4) 0.6003(8) 0.0649(3)
C10_3 C 0.4522(4) 0.6074(7) 0.0653(3)
O23_3 O 0.3567(7) 0.3552(15) 0.2889(6)
O24_3 O 0.2012(7) 0.5638(14) 0.3147(5)
O27_2 O 0.4075(3) 0.6160(6) 0.3750(3)
H1_3 H 0.486268 0.874152 0.265388
H2_3 H 0.417847 0.955225 0.311897
H3_3 H 0.238452 0.555061 0.160341
H4_3 H 0.203816 0.443961 0.2168
H5_3 H 0.324142 0.297071 0.256473
H6_3 H 0.334211 0.327085 0.330609
H7_3 H 0.505943 0.466998 0.24629
H8_3 H 0.51857 0.549139 0.314035
H9_3 H 0.3222 0.942002 0.351774
H10_3 H 0.261463 0.806885 0.382633
H11_3 H 0.156146 0.624722 0.292888
H12_3 H 0.198851 0.587695 0.359908
H13_3 H 0.300912 0.926489 0.188349
H14_3 H 0.217075 0.895976 0.229999
O1_3 O 0.2720(3) 0.4575(6) 0.9762(3)
O3_3 O 0.7166(4) 0.4395(7) 0.9758(3)
O8_2 O 0.8790(3) 0.6370(7) 0.9719(3)
O10_2 O 0.5925(3) 0.3840(6) 0.8750(3)
O17_2 O 0.1105(3) 0.6448(6) 0.9756(3)
O18_3 O 0.3916(3) 0.4001(7) 0.8742(3)
C7_3 C 0.4046(4) 0.3341(8) 0.9248(3)
C9_3 C 0.5381(4) 0.4239(8) 0.9760(3)
C11_3 C 0.4506(4) 0.4284(8) 0.9747(3)
C12_3 C 0.5841(4) 0.3243(8) 0.9271(3)
Nd2_2 Nd 0.65650(2) 0.35452(4) 0.77228(3)
O29_2 O 0.0051(3) 0.5764(7) 0.5473(2)
C1_4 C 0.6869(4) 0.4822(6) 0.5219(4)
C2_4 C 0.5928(4) 0.4785(7) 0.5194(3)
O1_4 O 0.7280(3) 0.5425(6) 0.4762(3)
O2_4 O 0.7261(3) 0.4224(6) 0.5666(2)
C3_4 C 0.4160(4) 0.4855(6) 0.5207(4)
C4_4 C 0.3218(4) 0.4884(6) 0.5188(3)
O3_4 O 0.2834(4) 0.5605(7) 0.4758(3)
C5_4 C 0.4125(4) 0.3099(8) 0.6171(3)
O5_4 O 0.4004(3) 0.3885(6) 0.6659(3)
C6_4 C 0.5926(4) 0.3013(8) 0.6163(3)
O7_4 O 0.5937(3) 0.3670(6) 0.6680(3)
O8_3 O 0.1210(3) 0.3630(7) 0.4719(3)
O9_4 O 0.8451(3) 0.6774(6) 0.5793(2)
O11_4 O 0.7205(4) 0.1424(7) 0.8430(3)
O12_4 O 0.7383(4) 0.1565(8) 0.7047(3)
O16_4 O 0.1653(3) 0.6838(6) 0.5752(2)
O17_3 O 0.8895(3) 0.3552(6) 0.4756(3)
O18_4 O 0.6084(3) 0.5999(7) 0.3742(3)
C7_4 C 0.5954(4) 0.6659(8) 0.4248(3)
O19_4 O 0.5745(4) 0.1012(8) 0.7716(4)
O20_4 O 0.5013(3) 0.4328(8) 0.7708(4)
O21_4 O 0.7448(6) 0.5151(10) 0.6956(5)
O22_4 O 0.2815(3) 0.4167(7) 0.5609(3)
C8_4 C 0.4597(4) 0.3997(8) 0.5649(3)
C9_4 C 0.4619(4) 0.5761(8) 0.4760(3)
C10_4 C 0.5478(4) 0.3926(7) 0.5653(3)
C11_4 C 0.5494(4) 0.5716(8) 0.4747(3)
C12_4 C 0.4159(4) 0.6757(8) 0.4271(3)
O23_4 O 0.6433(7) 0.6448(15) 0.7889(6)
O24_4 O 0.7988(7) 0.4362(14) 0.8147(5)
H1_4 H 0.513732 0.125848 0.765388
H2_4 H 0.582153 0.0447749 0.811897
H3_4 H 0.761548 0.444939 0.660341
H4_4 H 0.796184 0.556039 0.7168
H5_4 H 0.675858 0.702929 0.756473
H6_4 H 0.665789 0.672915 0.830609
H7_4 H 0.494057 0.533002 0.74629
H8_4 H 0.48143 0.450861 0.814035
H9_4 H 0.6778 0.0579976 0.851774
H10_4 H 0.738537 0.193115 0.882633
H11_4 H 0.843854 0.375278 0.792888
H12_4 H 0.801149 0.412305 0.859908
H13_4 H 0.699088 0.0735114 0.688349
H14_4 H 0.782925 0.104024 0.729999
O8_4 O 0.3790(3) 0.8630(7) 0.9719(3)
O17_4 O 0.6105(3) 0.8552(6) 0.9756(3)
loop_
_geom_bond_atom_site_label_1
_geom_bond_atom_site_label_2
_geom_bond_site_symmetry_1
_geom_bond_site_symmetry_2
O14 U1 1_555 1_555
O16 U1 1_555 1_555
U7 O14 1_555 1_555
O10 C12 1_555 1_555
O13 C12 1_555 1_555
C12 C9 1_555 1_555
Nd2 O10 1_555 1_555
C3 C4 1_555 1_555
C5 O4 1_555 1_555
O4 U6 1_555 1_555
O5 C5 1_555 1_555
C8 C3 1_555 1_555
C4 O22 1_555 1_555
C5 C8 1_555 1_555
O9 U7 1_555 1_555
O21 H4 1_555 1_555
O23 H5 1_555 1_555
O23 H6 1_555 1_555
O15 C7 1_555 1_555
O18 C7 1_555 1_555
C7 C11 1_555 1_555
Nd1 O7 1_555 1_555
C1 C2 1_555 1_555
C2 C10 1_555 1_555
C6 O6 1_555 1_555
O6 U4 1_555 1_555
O7 C6 1_555 1_555
O11 Nd1 1_555 1_555
O12 Nd1 1_555 1_555
O19 Nd1 1_555 1_555
O20 Nd1 1_555 1_555
C10 C6 1_555 1_555
O24 Nd1 1_555 1_555
O27 Nd1 1_555 1_555
C1 O2 1_555 1_555
O19 H1 1_555 1_555
O19 H2 1_555 1_555
O11 H9 1_555 1_555
O11 H10 1_555 1_555
O24 H11 1_555 1_555
O24 H12 1_555 1_555
O12 H13 1_555 1_555
O12 H14 1_555 1_555
Nd2 O7_2 1_555 1_555
C1_2 C2_2 1_555 1_555
C2_2 C10_2 1_555 1_555
C6_2 O6_2 1_555 1_555
O6_2 U3 1_555 1_555
O7_2 C6_2 1_555 1_555
O11_2 Nd2 1_555 1_555
O12_2 Nd2 1_555 1_555
O19_2 Nd2 1_555 1_555
O20_2 Nd2 1_555 1_555
C10_2 C6_2 1_555 1_555
O24_2 Nd2 1_555 1_555
C1_2 O2_2 1_555 1_555
O19_2 H1_2 1_555 1_555
O19_2 H2_2 1_555 1_555
O11_2 H9_2 1_555 1_555
O11_2 H10_2 1_555 1_555
O24_2 H11_2 1_555 1_555
O24_2 H12_2 1_555 1_555
O12_2 H13_2 1_555 1_555
O12_2 H14_2 1_555 1_555
U2 O1_2 1_555 1_555
O9_2 U2 1_555 1_555
O15_2 C7_2 1_555 1_555
O18_2 C7_2 1_555 1_555
C7_2 C11_2 1_555 1_555
U3 O15_2 1_555 1_555
O28_2 U2 1_555 1_555
O29 U2 1_555 1_555
O21_2 H4_2 1_555 1_555
O23_2 H5_2 1_555 1_555
O23_2 H6_2 1_555 1_555
C3_2 C4_2 1_555 1_555
C5_2 O4_2 1_555 1_555
O4_2 U5 1_555 1_555
O5_2 C5_2 1_555 1_555
C8_2 C3_2 1_555 1_555
C4_2 O22_2 1_555 1_555
C5_2 C8_2 1_555 1_555
U1_2 O3_2 1_555 1_555
O27 C12_2 1_555 1_555
O13_2 C12_2 1_555 1_555
O29 U1_2 1_555 1_555
O16_2 U1_2 1_555 1_555
C12_2 C9_2 1_555 1_555
U5 O13_2 1_555 1_555
O30_2 U1_2 1_555 1_555
Nd1_2 O7_3 1_555 1_555
C1_3 C2_3 1_555 1_555
C2_3 C10_3 1_555 1_555
O2_3 U6 1_555 1_555
C3_3 C4_3 1_555 1_555
C5_3 O25 1_555 1_555
O5_3 C5_3 1_555 1_555
C6_3 O26 1_555 1_555
O7_3 C6_3 1_555 1_555
O9_3 U6 1_555 1_555
O11_3 Nd1_2 1_555 1_555
O12_3 Nd1_2 1_555 1_555
O14_2 U4 1_555 1_555
O16_3 U4 1_555 1_555
O19_3 Nd1_2 1_555 1_555
O20_3 Nd1_2 1_555 1_555
O21_3 Nd1_2 1_555 1_555
O22_3 U4 1_555 1_555
C8_3 C3_3 1_555 1_555
C10_3 C6_3 1_555 1_555
O23_3 Nd1_2 1_555 1_555
O24_3 Nd1_2 1_555 1_555
O27_2 Nd1_2 1_555 1_555
C1_3 O2_3 1_555 1_555
C4_3 O22_3 1_555 1_555
C5_3 C8_3 1_555 1_555
C8_3 C10_3 1_555 1_555
O19_3 H1_3 1_555 1_555
O19_3 H2_3 1_555 1_555
O21_3 H3_3 1_555 1_555
O21_3 H4_3 1_555 1_555
O23_3 H5_3 1_555 1_555
O23_3 H6_3 1_555 1_555
O20_3 H7_3 1_555 1_555
O20_3 H8_3 1_555 1_555
O11_3 H9_3 1_555 1_555
O11_3 H10_3 1_555 1_555
O24_3 H11_3 1_555 1_555
O24_3 H12_3 1_555 1_555
O12_3 H13_3 1_555 1_555
O12_3 H14_3 1_555 1_555
O10_2 C12_3 1_555 1_555
O28 C12_3 1_555 1_555
O30 C7_3 1_555 1_555
O18_3 C7_3 1_555 1_555
C7_3 C11_3 1_555 1_555
C12_3 C9_3 1_555 1_555
Nd2_2 O10_2 1_555 1_555
C9_3 C11_3 1_555 1_555
U3 O3_4 1_555 1_555
U5 O1_4 1_555 1_555
Nd2_2 O7_4 1_555 1_555
C1_4 C2_4 1_555 1_555
C2_4 C10_4 1_555 1_555
O1_4 C1_4 1_555 1_555
O2_4 U5 1_555 1_555
C3_4 C4_4 1_555 1_555
C4_4 O3_4 1_555 1_555
C5_4 O25_2 1_555 1_555
O5_4 C5_4 1_555 1_555
C6_4 O26_2 1_555 1_555
O7_4 C6_4 1_555 1_555
O8_3 U3 1_555 1_555
O9_4 U5 1_555 1_555
O27_2 C12_4 1_555 1_555
O11_4 Nd2_2 1_555 1_555
O12_4 Nd2_2 1_555 1_555
O28_2 C12_4 1_555 1_555
O29_2 U3 1_555 1_555
O30_2 C7_4 1_555 1_555
O16_4 U3 1_555 1_555
O17_3 U5 1_555 1_555
O18_4 C7_4 1_555 1_555
C7_4 C11_4 1_555 1_555
O19_4 Nd2_2 1_555 1_555
O20_4 Nd2_2 1_555 1_555
O21_4 Nd2_2 1_555 1_555
O22_4 U3 1_555 1_555
C8_4 C3_4 1_555 1_555
C9_4 C3_4 1_555 1_555
C10_4 C6_4 1_555 1_555
C11_4 C2_4 1_555 1_555
C12_4 C9_4 1_555 1_555
O23_4 Nd2_2 1_555 1_555
O24_4 Nd2_2 1_555 1_555
C1_4 O2_4 1_555 1_555
C4_4 O22_4 1_555 1_555
C5_4 C8_4 1_555 1_555
C8_4 C10_4 1_555 1_555
C9_4 C11_4 1_555 1_555
O19_4 H1_4 1_555 1_555
O19_4 H2_4 1_555 1_555
O21_4 H3_4 1_555 1_555
O21_4 H4_4 1_555 1_555
O23_4 H5_4 1_555 1_555
O23_4 H6_4 1_555 1_555
O20_4 H7_4 1_555 1_555
O20_4 H8_4 1_555 1_555
O11_4 H9_4 1_555 1_555
O11_4 H10_4 1_555 1_555
O24_4 H11_4 1_555 1_555
O24_4 H12_4 1_555 1_555
O12_4 H13_4 1_555 1_555
O12_4 H14_4 1_555 1_555

#END
