
###############################################################################
#
# This file contains modified crystal structure data generated from the
# MOF subset of the Cambridge Structural Database (CSD) v543 
# hosted by the Cambridge Crystallographic Data Centre (CCDC).
#
# This work is licensed under the Creative Commons
# Attribution-NonCommercial-ShareAlike 4.0 International License.
# To view a copy of this license, visit
# http://creativecommons.org/licenses/by-nc-sa/4.0/
# or send a letter to
# Creative Commons, PO Box 1866, Mountain View, CA 94042, USA.
#
# CIF created using the CSD Python API on 29 September 2022
# The structure has been converted into the P1 space group
# The structure has a 3D framework
# The original CSD entry HEDBID is in the triclinic crystal system
# The framework has been calculated to contain at least 10.0% void space
# The void calculation uses a probe of radius 1.32A, grid spacing 0.4
# H atom positions have been added when not included in the experimental data
# Generated hydrogen atom positions removed from atoms on special positions
#
###############################################################################

data_HEDBID
_chemical_formula_moiety         '(C30 H42 Nd2 O39 U4)n'
_symmetry_cell_setting           triclinic
_symmetry_space_group_name_H-M   'P 1'
_symmetry_Int_Tables_number      1
_space_group_name_Hall           'P 1'
loop_
_symmetry_equiv_pos_site_id
_symmetry_equiv_pos_as_xyz
1 x,y,z
_cell_length_a                   10.8981(13)
_cell_length_b                   11.5452(14)
_cell_length_c                   13.4086(16)
_cell_angle_alpha                69.399(3)
_cell_angle_beta                 79.959(3)
_cell_angle_gamma                62.242(2)
_cell_volume                     1397.36
loop_
_atom_site_label
_atom_site_type_symbol
_atom_site_fract_x
_atom_site_fract_y
_atom_site_fract_z
O17 O 0.2047(4) 0.0265(4) 0.1629(4)
U7 U 0.369233(17) 0.295986(17) 0.167486(14)
O24 O 0.3107(3) 0.2150(4) 0.0545(3)
U1 U -0.00000 0.50000 0.50000
Nd1 Nd 0.37968(3) 0.78368(3) 0.22409(2)
O1 O 0.0995(3) 0.6432(3) 0.3775(3)
O5 O 0.2262(4) 0.5136(4) 0.2063(3)
O10 O 0.1463(4) 0.7915(4) 0.2388(3)
O13 O 0.1434(4) 0.4696(4) 0.0960(3)
O15 O 0.3750(4) 0.5879(4) 0.3806(3)
O16 O 0.2931(5) 0.8628(4) 0.3821(3)
O18 O 0.5020(5) 0.5657(4) 0.1737(4)
O19 O 0.6088(4) 0.6430(5) 0.3221(4)
O20 O 0.2856(5) 0.8275(6) 0.0444(4)
C2 C 0.0807(4) 0.7226(4) 0.2830(4)
C10 C 0.1268(5) 0.5430(5) 0.1521(4)
Nd4 Nd 0.62032(3) 0.21632(3) 0.77591(2)
O32 O 0.0592(4) 0.5028(4) 0.6121(3)
O35 O 0.2650(4) 0.3678(4) 0.4703(4)
O38 O 0.1435(4) 0.2503(4) 0.5248(3)
O39 O 0.5170(4) 0.0598(4) 0.7787(4)
O40 O 0.4830(4) 0.9402(4) 0.2213(4)
O44 O 0.4748(4) 0.1791(5) 0.9318(3)
O45 O 0.5252(4) 0.8209(5) 0.0682(3)
C16 C 0.4191(5) 0.0290(5) 0.8104(4)
C18 C 0.0332(4) 0.2580(4) 0.7807(4)
C19 C 0.2780(4) 0.1357(5) 0.8290(4)
C20 C 0.0085(4) 0.3378(5) 0.8459(4)
C21 C 0.2501(5) 0.2156(4) 0.8961(4)
C22 C 0.1677(5) 0.1546(5) 0.7746(4)
C26 C 0.3549(5) 0.2008(5) 0.9633(4)
C30 C 0.1160(5) 0.3123(5) 0.9049(4)
H4 H 0.184412 0.096187 0.732613
H6 H 0.096645 0.363475 0.953354
H27 H 0.197697 0.913585 0.0286835
U8 U 0.630767(17) 0.704014(17) 0.832514(14)
O27 O 0.4272(3) 0.9098(3) 0.8277(3)
O4 O 0.5728(3) 0.0902(3) 0.1723(3)
C12 C 0.3781(5) 0.0005(5) 0.5491(4)
H2 H 0.292769 0.001024 0.583133
O23 O 0.4947(3) 0.3070(3) 0.2875(3)
O31 O 0.4510(4) 0.3791(4) 0.0619(3)
O33 O 0.2855(4) 0.2141(4) 0.2726(3)
O53 O 0.5770(5) 0.2972(4) 0.4296(3)
C23 C 0.2575(5) 0.2556(5) 0.4967(4)
C24 C 0.5255(5) 0.2526(5) 0.3859(4)
C28 C 0.3846(5) 0.1246(5) 0.4976(4)
C29 C 0.5088(5) 0.1244(4) 0.4473(4)
U1_2 U 1.00000 0.50000 0.50000
O2 O 0.5053(3) 0.6930(3) 0.7125(3)
O6 O 0.5490(4) 0.6209(4) 0.9381(3)
O7 O 0.9408(4) 0.4972(4) 0.3879(3)
O8 O 0.7145(4) 0.7859(4) 0.7274(3)
O9 O 0.7350(4) 0.6322(4) 0.5297(4)
O11 O 0.8565(4) 0.7497(4) 0.4752(3)
O21 O 0.4230(5) 0.7028(4) 0.5704(3)
C1 C 0.5809(5) 0.9710(5) 0.1896(4)
C3 C 0.9668(4) 0.7420(4) 0.2193(4)
C4 C 0.7220(4) 0.8643(5) 0.1710(4)
C5 C 0.9915(4) 0.6622(5) 0.1541(4)
C6 C 0.7499(5) 0.7844(4) 0.1039(4)
C7 C 0.8323(5) 0.8454(5) 0.2254(4)
C8 C 0.7425(5) 0.7444(5) 0.5033(4)
C9 C 0.4745(5) 0.7474(5) 0.6141(4)
C11 C 0.6451(5) 0.7992(5) 0.0367(4)
C13 C 0.6154(5) 0.8754(5) 0.5024(4)
C14 C 0.4912(5) 0.8756(4) 0.5527(4)
C15 C 0.8840(5) 0.6877(5) 0.0951(4)
H1 H 0.815588 0.903813 0.267387
H3 H 0.903355 0.636525 0.046646
O22 O 0.9005(3) 0.3568(3) 0.6225(3)
O25 O 0.6893(3) 0.7850(4) 0.9455(3)
O29 O 0.7738(4) 0.4864(4) 0.7937(3)
O36 O 0.8537(4) 0.2085(4) 0.7612(3)
O42 O 0.8566(4) 0.5304(4) 0.9040(3)
O47 O 0.6250(4) 0.4121(4) 0.6194(3)
O48 O 0.7069(5) 0.1372(4) 0.6179(3)
O50 O 0.4980(5) 0.4343(4) 0.8263(4)
O51 O 0.3912(4) 0.3570(5) 0.6779(4)
O52 O 0.7144(5) 0.1725(6) 0.9556(4)
C17 C 0.9193(4) 0.2774(4) 0.7170(4)
C25 C 0.8732(5) 0.4570(5) 0.8479(4)
C27 C 0.6219(5) 0.9995(5) 0.4509(4)
H5 H 0.707231 0.998976 0.416867
H17 H 0.731961 0.250975 0.951843
H17_2 H 0.268039 0.749025 0.0481571
H27_2 H 0.802303 0.0864145 0.971317
H28 H 0.354789 0.836785 0.987077
H18 H 0.645211 0.163215 0.0129232
O49 O 0.7953(4) 0.9735(4) 0.8371(4)
loop_
_geom_bond_atom_site_label_1
_geom_bond_atom_site_label_2
_geom_bond_site_symmetry_1
_geom_bond_site_symmetry_2
U7 O24 1_555 1_555
U1 O1 1_555 1_555
Nd1 O10 1_555 1_555
O1 C2 1_555 1_555
O5 C10 1_555 1_555
O10 C2 1_555 1_555
O13 C10 1_555 1_555
O15 Nd1 1_555 1_555
O16 Nd1 1_555 1_555
O18 Nd1 1_555 1_555
O19 Nd1 1_555 1_555
O20 Nd1 1_555 1_555
U7 O5 1_555 1_555
Nd4 O39 1_555 1_555
O32 U1 1_555 1_555
O35 U1 1_555 1_555
O38 U1 1_555 1_555
O39 C16 1_555 1_555
O40 Nd1 1_555 1_555
O44 Nd4 1_555 1_555
O45 Nd1 1_555 1_555
C16 C19 1_555 1_555
C19 C21 1_555 1_555
C20 C18 1_555 1_555
C21 C26 1_555 1_555
C22 C18 1_555 1_555
C26 O44 1_555 1_555
C30 C20 1_555 1_555
H4 C22 1_555 1_555
H6 C30 1_555 1_555
O13 U7 1_555 1_555
C19 C22 1_555 1_555
C21 C30 1_555 1_555
O20 H27 1_555 1_555
U8 O27 1_555 1_555
H2 C12 1_555 1_555
U7 O4 1_555 1_555
O23 U7 1_555 1_555
O31 U7 1_555 1_555
O33 U7 1_555 1_555
O35 C23 1_555 1_555
O53 C24 1_555 1_555
C23 O38 1_555 1_555
C24 O23 1_555 1_555
C28 C12 1_555 1_555
C29 C24 1_555 1_555
C23 C28 1_555 1_555
C28 C29 1_555 1_555
U8 O2 1_555 1_555
O2 C9 1_555 1_555
O6 U8 1_555 1_555
O7 U1_2 1_555 1_555
O8 U8 1_555 1_555
O9 U1_2 1_555 1_555
O11 U1_2 1_555 1_555
O40 C1 1_555 1_555
O45 C11 1_555 1_555
O21 C9 1_555 1_555
C1 C4 1_555 1_555
C3 C5 1_555 1_555
C4 C6 1_555 1_555
C6 C11 1_555 1_555
C7 C3 1_555 1_555
C8 O9 1_555 1_555
C9 C14 1_555 1_555
C13 C8 1_555 1_555
C14 C13 1_555 1_555
C15 C5 1_555 1_555
H1 C7 1_555 1_555
H3 C15 1_555 1_555
Nd4 O36 1_555 1_555
O22 U1_2 1_555 1_555
O25 U8 1_555 1_555
O29 U8 1_555 1_555
O36 C17 1_555 1_555
O42 U8 1_555 1_555
O47 Nd4 1_555 1_555
O48 Nd4 1_555 1_555
O50 Nd4 1_555 1_555
O51 Nd4 1_555 1_555
O52 Nd4 1_555 1_555
C17 O22 1_555 1_555
C25 O29 1_555 1_555
C27 C13 1_555 1_555
H5 C27 1_555 1_555
O11 C8 1_555 1_555
C4 C7 1_555 1_555
C6 C15 1_555 1_555
O42 C25 1_555 1_555
O52 H17 1_555 1_555
O20 H17_2 1_555 1_555
O52 H27_2 1_555 1_555

#END
