
###############################################################################
#
# This file contains modified crystal structure data generated from the
# MOF subset of the Cambridge Structural Database (CSD) v543 
# hosted by the Cambridge Crystallographic Data Centre (CCDC).
#
# This work is licensed under the Creative Commons
# Attribution-NonCommercial-ShareAlike 4.0 International License.
# To view a copy of this license, visit
# http://creativecommons.org/licenses/by-nc-sa/4.0/
# or send a letter to
# Creative Commons, PO Box 1866, Mountain View, CA 94042, USA.
#
# CIF created using the CSD Python API on 29 September 2022
# The structure has been converted into the P1 space group
# The structure has a 3D framework
# The original CSD entry HEDCAW is in the monoclinic crystal system
# The framework has been calculated to contain at least 10.0% void space
# The void calculation uses a probe of radius 1.32A, grid spacing 0.4
# H atom positions have been added when not included in the experimental data
#
###############################################################################

data_HEDCAW
_chemical_formula_moiety         '(C272 H240 N16 O96 Zn16)n'
_symmetry_cell_setting           triclinic
_symmetry_space_group_name_H-M   'P 1'
_symmetry_Int_Tables_number      1
_space_group_name_Hall           'P 1'
loop_
_symmetry_equiv_pos_site_id
_symmetry_equiv_pos_as_xyz
1 x,y,z
_cell_length_a                   27.3020(13)
_cell_length_b                   15.9448(6)
_cell_length_c                   21.0207(12)
_cell_angle_alpha                90
_cell_angle_beta                 95.461(4)
_cell_angle_gamma                90
_cell_volume                     9109.3
loop_
_atom_site_label
_atom_site_type_symbol
_atom_site_fract_x
_atom_site_fract_y
_atom_site_fract_z
Zn10 Zn 0.00534(4) 0.00316(6) 0.81916(5)
O1 O 0.2966(3) 0.8331(3) 0.9399(3)
O2 O 0.2921(3) 0.6496(4) 0.9380(3)
O3 O 0.2175(2) 0.8518(4) 0.9315(3)
O4 O 0.2123(3) 0.6691(3) 0.9305(3)
O6 O 0.2247(2) 0.3451(4) 0.7617(3)
O7 O 0.0523(2) 0.0834(3) 0.6919(3)
C2 C 0.1079(3) 0.1724(5) 0.7508(5)
O8 O 0.0486(2) 0.0942(3) 0.7994(4)
C3 C 0.2771(3) 0.4413(6) 0.8218(5)
H1 H 0.3048 0.4107 0.8137
C6 C 0.1631(4) 0.2715(5) 0.8106(5)
H3 H 0.1746 0.2958 0.8494
C7 C 0.3081(4) 0.9706(5) 0.8688(5)
H4 H 0.3347 0.9385 0.8853
C8 C 0.2792(4) 0.5169(5) 0.8569(5)
H5 H 0.3104 0.5383 0.8689
C9 C 0.1344(3) 0.1944(5) 0.6983(5)
H6 H 0.1244 0.1693 0.6593
C10 C 0.1962(4) 0.5321(6) 0.8480(5)
H7 H 0.1688 0.5638 0.8557
C14 C 0.1247(4) 0.2156(6) 0.8091(5)
H11 H 0.1094 0.2056 0.8461
C15 C 0.2627(3) 0.9450(6) 0.8792(4)
C17 C 0.1850(4) 0.2927(5) 0.7568(4)
C19 C 0.2422(3) 0.5598(6) 0.8743(4)
C20 C 0.0680(3) 0.1137(5) 0.7422(6)
C21 C 0.1735(5) 0.2496(5) 0.6995(5)
H13 H 0.1912 0.2575 0.6643
C22 C 0.2275(4) 0.4164(5) 0.7996(5)
C23 C 0.2469(4) 0.6347(5) 0.9170(4)
C24 C 0.2236(4) 0.9913(6) 0.8521(5)
H14 H 0.1917 0.9724 0.8552
C25 C 0.1887(4) 0.4605(6) 0.8111(5)
H15 H 0.1573 0.4441 0.7951
C27 C 0.2562(3) 0.8706(5) 0.9231(5)
C33 C 0.3984(8) 0.7309(11) 0.9954(11)
H26 H 0.3844 0.7416 0.9542
C34 C 0.4757(17) 0.719(2) 0.946(2)
H27 H 0.5102 0.7069 0.9494
H28 H 0.4704 0.7758 0.9311
H29 H 0.4583 0.6811 0.9170
Zn3 Zn 0.69653(4) 0.73880(6) 0.49259(6)
Zn4 Zn 0.19653(4) 0.76120(6) 0.99259(6)
Zn5 Zn 0.80347(4) 0.76120(6) 0.50741(6)
Zn8 Zn 0.99466(4) 0.00316(6) 0.68084(5)
O13 O 0.7034(3) 0.8331(3) 0.5601(3)
O14 O 0.7079(3) 0.6496(4) 0.5620(3)
O15 O 0.7825(2) 0.8518(4) 0.5685(3)
O17 O 0.7175(2) 0.6482(4) 0.4315(3)
O18 O 0.7877(3) 0.6691(3) 0.5695(3)
O20 O 0.7123(3) 0.8309(3) 0.4305(3)
O22 O 0.7753(2) 0.3451(4) 0.7383(3)
O23 O 0.9477(2) 0.0834(3) 0.8081(3)
C36 C 0.8921(3) 0.1724(5) 0.7492(5)
O26 O 0.9514(2) 0.0942(3) 0.7006(4)
O30 O 0.6244(3) 0.7320(5) 0.4689(4)
C37 C 0.7229(3) 0.4413(6) 0.6782(5)
H30 H 0.6952 0.4107 0.6863
C40 C 0.8369(4) 0.2715(5) 0.6894(5)
H32 H 0.8254 0.2958 0.6506
C41 C 0.6919(4) 0.9706(5) 0.6312(5)
H33 H 0.6653 0.9385 0.6147
C42 C 0.7208(4) 0.5169(5) 0.6431(5)
H34 H 0.6896 0.5383 0.6311
C43 C 0.8656(3) 0.1944(5) 0.8017(5)
H35 H 0.8756 0.1693 0.8407
C44 C 0.8038(4) 0.5321(6) 0.6520(5)
H36 H 0.8312 0.5638 0.6443
C48 C 0.8753(4) 0.2156(6) 0.6909(5)
H40 H 0.8906 0.2056 0.6539
C49 C 0.7373(3) 0.9450(6) 0.6208(4)
C51 C 0.8150(4) 0.2927(5) 0.7432(4)
C53 C 0.7578(3) 0.5598(6) 0.6257(4)
C54 C 0.9320(3) 0.1137(5) 0.7578(6)
C55 C 0.8265(5) 0.2496(5) 0.8005(5)
H42 H 0.8088 0.2575 0.8357
C56 C 0.7725(4) 0.4164(5) 0.7004(5)
C57 C 0.7531(4) 0.6347(5) 0.5830(4)
C58 C 0.7764(4) 0.9913(6) 0.6479(5)
H43 H 0.8083 0.9724 0.6448
C59 C 0.8113(4) 0.4605(6) 0.6889(5)
H44 H 0.8427 0.4441 0.7049
C61 C 0.7438(3) 0.8706(5) 0.5769(5)
N4 N 0.5411(7) 0.7118(11) 0.4955(10)
C66 C 0.5303(9) 0.7177(13) 0.4245(10)
H52 H 0.4965 0.7037 0.4128
H53 H 0.5511 0.6794 0.4043
H54 H 0.5365 0.7739 0.4109
C67 C 0.6016(8) 0.7309(11) 0.5046(11)
H55 H 0.6156 0.7416 0.5458
C68 C 0.5243(17) 0.719(2) 0.554(2)
H56 H 0.4898 0.7069 0.5506
H57 H 0.5296 0.7758 0.5689
H58 H 0.5417 0.6811 0.5830
N3 N 0.0994(3) 0.0217(5) 0.9776(4)
O32 O 0.0266(3) 0.0045(4) 0.9184(3)
C63 C 0.0734(5) 0.0151(6) 0.9230(5)
C64 C 0.1509(6) 0.0373(11) 0.9900(9)
H46 H 0.1647 0.0475 0.9505
H59 H 0.0919148 0.0186733 0.879425
N1 N 0.9006(3) 0.0217(5) 0.5224(4)
O12 O 0.9734(3) 0.0045(4) 0.5816(3)
C29 C 0.9266(5) 0.0151(6) 0.5770(5)
C30 C 0.8491(6) 0.0373(11) 0.5100(9)
H17 H 0.8353 0.0475 0.5495
H19 H 0.8440 0.0854 0.4828
C31 C 0.9221(7) 0.0045(9) 0.4621(8)
H21 H 0.9186 0.0532 0.4352
H60 H 0.908085 0.0186733 0.620575
O10 O 0.1244(3) 0.7680(5) 0.9689(4)
N2 N 0.0411(7) 0.7882(11) 0.9955(10)
C32 C 0.0303(9) 0.7823(13) 0.9245(10)
H24 H 0.0511 0.8206 0.9043
H25 H 0.0365 0.7261 0.9109
H27_2 H 0.9898 0.7931 0.0506
O13_2 O 0.7966(3) 0.6669(3) 0.4399(3)
O14_2 O 0.7921(3) 0.8504(4) 0.4380(3)
O21 O 0.7800(3) 0.3375(4) 0.2726(4)
C35 C 0.8190(3) 0.2869(5) 0.2716(5)
O29 O 0.9593(2) 0.0918(3) 0.3184(3)
O30_2 O 0.8756(3) 0.7680(5) 0.5311(4)
C38 C 0.8942(3) 0.1731(5) 0.2694(5)
C39 C 0.8258(3) 0.2484(5) 0.2154(4)
H31 H 0.8049 0.2599 0.1789
O31 O 0.9425(2) 0.0787(4) 0.2136(4)
C41_2 C 0.8081(4) 0.5294(5) 0.3688(5)
H33_2 H 0.8347 0.5615 0.3853
C42_2 C 0.7792(4) 0.9831(5) 0.3569(5)
H34_2 H 0.8104 0.9617 0.3689
C44_2 C 0.6962(4) 0.9679(6) 0.3480(5)
H36_2 H 0.6688 0.9362 0.3557
C45 C 0.8490(4) 0.2670(6) 0.3303(5)
H37 H 0.8444 0.2924 0.3691
C46 C 0.7307(4) 0.4372(5) 0.3212(5)
H38 H 0.7036 0.4054 0.3057
C47 C 0.8847(3) 0.2080(5) 0.3244(5)
H39 H 0.9036 0.1912 0.3613
C49_2 C 0.7627(3) 0.5550(6) 0.3792(4)
C50 C 0.8647(4) 0.1911(5) 0.2127(5)
H41 H 0.8708 0.1658 0.1744
C52 C 0.7770(3) 0.4095(5) 0.3118(4)
C53_2 C 0.7422(3) 0.9402(6) 0.3743(4)
C57_2 C 0.7469(4) 0.8653(5) 0.4170(4)
C58_2 C 0.7236(4) 0.5087(6) 0.3521(5)
H43_2 H 0.6917 0.5276 0.3552
C60 C 0.8172(3) 0.4591(7) 0.3355(6)
H45 H 0.8492 0.4441 0.3285
C61_2 C 0.7562(3) 0.6294(5) 0.4231(5)
C62 C 0.9330(3) 0.1097(5) 0.2713(4)
N4_2 N 0.9589(7) 0.7882(11) 0.5045(10)
C66_2 C 0.9697(9) 0.7823(13) 0.5755(10)
H53_2 H 0.9489 0.8206 0.5957
H54_2 H 0.9635 0.7261 0.5891
C67_2 C 0.8984(8) 0.7691(11) 0.4954(11)
H55_2 H 0.8844 0.7584 0.4542
C68_2 C 0.9757(17) 0.781(2) 0.446(2)
H57_2 H 0.9704 0.7242 0.4311
H58_2 H 0.9583 0.8189 0.4170
H47 H 0.6665 0.4893 0.0108
H48 H 0.6560 0.5854 0.0172
C65 C 0.5779(7) 0.5045(9) 0.0379(8)
H49 H 0.5436 0.4913 0.0289
H50 H 0.5814 0.5532 0.0648
H51 H 0.5947 0.4580 0.0591
Zn2 Zn 0.49466(4) 0.50316(6) 0.68084(5)
O5 O 0.2800(3) 0.1625(4) 0.7726(4)
C1 C 0.3190(3) 0.2131(5) 0.7716(5)
O9 O 0.4593(2) 0.4082(3) 0.8184(3)
C4 C 0.3942(3) 0.3269(5) 0.7694(5)
C5 C 0.3258(3) 0.2516(5) 0.7154(4)
H2 H 0.3049 0.2401 0.6789
O11 O 0.4425(2) 0.4213(4) 0.7136(4)
N1_2 N 0.4006(3) 0.5217(5) 0.5224(4)
C11 C 0.3490(4) 0.2330(6) 0.8303(5)
H8 H 0.3444 0.2076 0.8691
C12 C 0.2307(4) 0.0628(5) 0.8212(5)
H9 H 0.2036 0.0946 0.8057
C13 C 0.3847(3) 0.2920(5) 0.8244(5)
H10 H 0.4036 0.3088 0.8613
O12_2 O 0.4734(3) 0.5045(4) 0.5816(3)
C16 C 0.3647(4) 0.3089(5) 0.7127(5)
H12 H 0.3708 0.3342 0.6744
C18 C 0.2770(3) 0.0905(5) 0.8118(4)
C26 C 0.3172(3) 0.0409(7) 0.8355(6)
H16 H 0.3492 0.0559 0.8285
C28 C 0.4330(3) 0.3903(5) 0.7713(4)
C29_2 C 0.4266(5) 0.5151(6) 0.5770(5)
C30_2 C 0.3491(6) 0.5373(11) 0.5100(9)
H17_2 H 0.3353 0.5475 0.5495
H18 H 0.3335 0.4893 0.4892
H19_2 H 0.3440 0.5854 0.4828
C31_2 C 0.4221(7) 0.5045(9) 0.4621(8)
H20 H 0.4564 0.4913 0.4711
H21_2 H 0.4186 0.5532 0.4352
H22 H 0.4053 0.4580 0.4409
Zn6 Zn 0.50534(4) 0.50316(6) 0.81916(5)
O21_2 O 0.7200(3) 0.1625(4) 0.7274(4)
C35_2 C 0.6810(3) 0.2131(5) 0.7284(5)
O24 O 0.5523(2) 0.5834(3) 0.6919(3)
O25 O 0.4477(2) 0.5834(3) 0.8081(3)
O27 O 0.5486(2) 0.5942(3) 0.7994(4)
O28 O 0.4514(2) 0.5942(3) 0.7006(4)
O29_2 O 0.5407(2) 0.4082(3) 0.6816(3)
C38_2 C 0.6058(3) 0.3269(5) 0.7306(5)
C39_2 C 0.6742(3) 0.2516(5) 0.7846(4)
H31_2 H 0.6951 0.2401 0.8211
O31_2 O 0.5575(2) 0.4213(4) 0.7864(4)
N3_2 N 0.5994(3) 0.5217(5) 0.9776(4)
C45_2 C 0.6510(4) 0.2330(6) 0.6697(5)
H37_2 H 0.6556 0.2076 0.6309
C46_2 C 0.7693(4) 0.0628(5) 0.6788(5)
H38_2 H 0.7964 0.0946 0.6943
C47_2 C 0.6153(3) 0.2920(5) 0.6756(5)
H39_2 H 0.5964 0.3088 0.6387
O32_2 O 0.5266(3) 0.5045(4) 0.9184(3)
C50_2 C 0.6353(4) 0.3089(5) 0.7873(5)
H41_2 H 0.6292 0.3342 0.8256
C52_2 C 0.7230(3) 0.0905(5) 0.6882(4)
C60_2 C 0.6828(3) 0.0409(7) 0.6645(6)
H45_2 H 0.6508 0.0559 0.6715
C62_2 C 0.5670(3) 0.3903(5) 0.7287(4)
C63_2 C 0.5734(5) 0.5151(6) 0.9230(5)
C64_2 C 0.6509(6) 0.5373(11) 0.9900(9)
H46_2 H 0.6647 0.5475 0.9505
H59_2 H 0.591915 0.518673 0.879425
H60_2 H 0.408085 0.518673 0.620575
O22_2 O 0.2753(2) 0.8451(4) 0.7383(3)
C36_2 C 0.3921(3) 0.6724(5) 0.7492(5)
C37_2 C 0.2229(3) 0.9413(6) 0.6782(5)
H30_2 H 0.1952 0.9107 0.6863
C40_2 C 0.3369(4) 0.7715(5) 0.6894(5)
H32_2 H 0.3254 0.7958 0.6506
C43_2 C 0.3656(3) 0.6944(5) 0.8017(5)
H35_2 H 0.3756 0.6693 0.8407
C48_2 C 0.3753(4) 0.7156(6) 0.6909(5)
H40_2 H 0.3906 0.7056 0.6539
C51_2 C 0.3150(4) 0.7927(5) 0.7432(4)
C54_2 C 0.4320(3) 0.6137(5) 0.7578(6)
C55_2 C 0.3265(5) 0.7496(5) 0.8005(5)
H42_2 H 0.3088 0.7575 0.8357
C56_2 C 0.2725(4) 0.9164(5) 0.7004(5)
C59_2 C 0.3113(4) 0.9605(6) 0.6889(5)
H44_2 H 0.3427 0.9441 0.7049
O6_2 O 0.7247(2) 0.8451(4) 0.7617(3)
C2_2 C 0.6079(3) 0.6724(5) 0.7508(5)
C3_2 C 0.7771(3) 0.9413(6) 0.8218(5)
H1_2 H 0.8048 0.9107 0.8137
C6_2 C 0.6631(4) 0.7715(5) 0.8106(5)
H3_2 H 0.6746 0.7958 0.8494
C9_2 C 0.6344(3) 0.6944(5) 0.6983(5)
H6_2 H 0.6244 0.6693 0.6593
C14_2 C 0.6247(4) 0.7156(6) 0.8091(5)
H11_2 H 0.6094 0.7056 0.8461
C17_2 C 0.6850(4) 0.7927(5) 0.7568(4)
C20_2 C 0.5680(3) 0.6137(5) 0.7422(6)
C21_2 C 0.6735(5) 0.7496(5) 0.6995(5)
H13_2 H 0.6912 0.7575 0.6643
C22_2 C 0.7275(4) 0.9164(5) 0.7996(5)
C25_2 C 0.6887(4) 0.9605(6) 0.8111(5)
H15_2 H 0.6573 0.9441 0.7951
Zn1 Zn 0.30347(4) 0.73880(6) 0.00741(6)
O10_2 O 0.3756(3) 0.7320(5) 0.0311(4)
N2_2 N 0.4589(7) 0.7118(11) 0.0045(10)
C32_2 C 0.4697(9) 0.7177(13) 0.0755(10)
H23 H 0.5035 0.7037 0.0872
H24_2 H 0.4489 0.6794 0.0957
H25_2 H 0.4635 0.7739 0.0891
O16 O 0.2825(2) 0.6482(4) 0.0685(3)
O19 O 0.2877(3) 0.8309(3) 0.0695(3)
O1_2 O 0.2034(3) 0.6669(3) 0.0601(3)
O2_2 O 0.2079(3) 0.8504(4) 0.0620(3)
O5_2 O 0.2200(3) 0.3375(4) 0.2274(4)
C1_2 C 0.1810(3) 0.2869(5) 0.2284(5)
O9_2 O 0.0407(2) 0.0918(3) 0.1816(3)
C4_2 C 0.1058(3) 0.1731(5) 0.2306(5)
C5_2 C 0.1742(3) 0.2484(5) 0.2846(4)
H2_2 H 0.1951 0.2599 0.3211
O11_2 O 0.0575(2) 0.0787(4) 0.2864(4)
C7_2 C 0.1919(4) 0.5294(5) 0.1312(5)
H4_2 H 0.1653 0.5615 0.1147
C8_2 C 0.2208(4) 0.9831(5) 0.1431(5)
H5_2 H 0.1896 0.9617 0.1311
C10_2 C 0.3038(4) 0.9679(6) 0.1520(5)
H7_2 H 0.3312 0.9362 0.1443
C11_2 C 0.1510(4) 0.2670(6) 0.1697(5)
H8_2 H 0.1556 0.2924 0.1309
C12_2 C 0.2693(4) 0.4372(5) 0.1788(5)
H9_2 H 0.2964 0.4054 0.1943
C13_2 C 0.1153(3) 0.2080(5) 0.1756(5)
H10_2 H 0.0964 0.1912 0.1387
C15_2 C 0.2373(3) 0.5550(6) 0.1208(4)
C16_2 C 0.1353(4) 0.1911(5) 0.2873(5)
H12_2 H 0.1292 0.1658 0.3256
C18_2 C 0.2230(3) 0.4095(5) 0.1882(4)
C19_2 C 0.2578(3) 0.9402(6) 0.1257(4)
C23_2 C 0.2531(4) 0.8653(5) 0.0830(4)
C24_2 C 0.2764(4) 0.5087(6) 0.1479(5)
H14_2 H 0.3083 0.5276 0.1448
C26_2 C 0.1828(3) 0.4591(7) 0.1645(6)
H16_2 H 0.1508 0.4441 0.1715
C27_2 C 0.2438(3) 0.6294(5) 0.0769(5)
C28_2 C 0.0670(3) 0.1097(5) 0.2287(4)
H18_2 H 0.1665 0.0107 0.5108
H20_2 H 0.0436 0.0087 0.5289
H22_2 H 0.0947 0.0420 0.5591
C33_2 C 0.1016(8) 0.7691(11) 0.0046(11)
H26_2 H 0.1156 0.7584 0.0458
C34_2 C 0.0243(17) 0.781(2) 0.054(2)
H28_2 H 0.0296 0.7242 0.0689
H29_2 H 0.0417 0.8189 0.0830
H52_2 H 0.0035 0.7963 0.5872
H56_2 H 0.0102 0.7931 0.4494
H48_2 H 0.1560 0.0854 0.0172
C65_2 C 0.0779(7) 0.0045(9) 0.0379(8)
H50_2 H 0.0814 0.0532 0.0648
H23_2 H 0.0035 0.2037 0.0872
H47_2 H 0.1665 0.9893 0.0108
H49_2 H 0.0436 0.9913 0.0289
H51_2 H 0.0947 0.9580 0.0591
H27_3 H 0.0102 0.2069 0.9494
Zn3_2 Zn 0.19653(4) 0.23880(6) 0.49259(6)
Zn5_2 Zn 0.30347(4) 0.26120(6) 0.50741(6)
O13_3 O 0.2034(3) 0.3331(3) 0.5601(3)
O14_3 O 0.2079(3) 0.1496(4) 0.5620(3)
O15_2 O 0.2825(2) 0.3518(4) 0.5685(3)
O17_2 O 0.2175(2) 0.1482(4) 0.4315(3)
O18_2 O 0.2877(3) 0.1691(3) 0.5695(3)
O20_2 O 0.2123(3) 0.3309(3) 0.4305(3)
O21_3 O 0.2200(3) 0.6625(4) 0.7274(4)
C35_3 C 0.1810(3) 0.7131(5) 0.7284(5)
O29_3 O 0.0407(2) 0.9082(3) 0.6816(3)
O30_3 O 0.1244(3) 0.2320(5) 0.4689(4)
C38_3 C 0.1058(3) 0.8269(5) 0.7306(5)
C39_3 C 0.1742(3) 0.7516(5) 0.7846(4)
H31_3 H 0.1951 0.7401 0.8211
O31_3 O 0.0575(2) 0.9213(4) 0.7864(4)
C41_3 C 0.1919(4) 0.4706(5) 0.6312(5)
H33_3 H 0.1653 0.4385 0.6147
C42_3 C 0.2208(4) 0.0169(5) 0.6431(5)
H34_3 H 0.1896 0.0383 0.6311
C44_3 C 0.3038(4) 0.0321(6) 0.6520(5)
H36_3 H 0.3312 0.0638 0.6443
C45_3 C 0.1510(4) 0.7330(6) 0.6697(5)
H37_3 H 0.1556 0.7076 0.6309
C46_3 C 0.2693(4) 0.5628(5) 0.6788(5)
H38_3 H 0.2964 0.5946 0.6943
C47_3 C 0.1153(3) 0.7920(5) 0.6756(5)
H39_3 H 0.0964 0.8088 0.6387
C49_3 C 0.2373(3) 0.4450(6) 0.6208(4)
C50_3 C 0.1353(4) 0.8089(5) 0.7873(5)
H41_3 H 0.1292 0.8342 0.8256
C52_3 C 0.2230(3) 0.5905(5) 0.6882(4)
C53_3 C 0.2578(3) 0.0598(6) 0.6257(4)
C57_3 C 0.2531(4) 0.1347(5) 0.5830(4)
C58_3 C 0.2764(4) 0.4913(6) 0.6479(5)
H43_3 H 0.3083 0.4724 0.6448
C60_3 C 0.1828(3) 0.5409(7) 0.6645(6)
H45_3 H 0.1508 0.5559 0.6715
C61_3 C 0.2438(3) 0.3706(5) 0.5769(5)
C62_3 C 0.0670(3) 0.8903(5) 0.7287(4)
N4_3 N 0.0411(7) 0.2118(11) 0.4955(10)
C66_3 C 0.0303(9) 0.2177(13) 0.4245(10)
H53_3 H 0.0511 0.1794 0.4043
H54_3 H 0.0365 0.2739 0.4109
C67_3 C 0.1016(8) 0.2309(11) 0.5046(11)
H55_3 H 0.1156 0.2416 0.5458
C68_3 C 0.0243(17) 0.219(2) 0.554(2)
H57_3 H 0.0296 0.2758 0.5689
H58_3 H 0.0417 0.1811 0.5830
Zn1_2 Zn 0.80347(4) 0.23880(6) 0.00741(6)
O10_3 O 0.8756(3) 0.2320(5) 0.0311(4)
N2_3 N 0.9589(7) 0.2118(11) 0.0045(10)
C32_3 C 0.9697(9) 0.2177(13) 0.0755(10)
H24_3 H 0.9489 0.1794 0.0957
H25_3 H 0.9635 0.2739 0.0891
O16_2 O 0.7825(2) 0.1482(4) 0.0685(3)
O19_2 O 0.7877(3) 0.3309(3) 0.0695(3)
Zn7 Zn 0.00534(4) 0.99684(6) 0.31916(5)
O1_3 O 0.7034(3) 0.1669(3) 0.0601(3)
O2_3 O 0.7079(3) 0.3504(4) 0.0620(3)
O6_3 O 0.7753(2) 0.6549(4) 0.2383(3)
O7_2 O 0.9477(2) 0.9166(3) 0.3081(3)
C2_3 C 0.8921(3) 0.8276(5) 0.2492(5)
O8_2 O 0.9514(2) 0.9058(3) 0.2006(4)
C3_3 C 0.7229(3) 0.5587(6) 0.1782(5)
H1_3 H 0.6952 0.5893 0.1863
C6_3 C 0.8369(4) 0.7285(5) 0.1894(5)
H3_3 H 0.8254 0.7042 0.1506
C7_3 C 0.6919(4) 0.0294(5) 0.1312(5)
H4_3 H 0.6653 0.0615 0.1147
C8_3 C 0.7208(4) 0.4831(5) 0.1431(5)
H5_3 H 0.6896 0.4617 0.1311
C9_3 C 0.8656(3) 0.8056(5) 0.3017(5)
H6_3 H 0.8756 0.8307 0.3407
C10_3 C 0.8038(4) 0.4679(6) 0.1520(5)
H7_3 H 0.8312 0.4362 0.1443
C14_3 C 0.8753(4) 0.7844(6) 0.1909(5)
H11_3 H 0.8906 0.7944 0.1539
C15_3 C 0.7373(3) 0.0550(6) 0.1208(4)
C17_3 C 0.8150(4) 0.7073(5) 0.2432(4)
C19_3 C 0.7578(3) 0.4402(6) 0.1257(4)
C20_3 C 0.9320(3) 0.8863(5) 0.2578(6)
C21_3 C 0.8265(5) 0.7504(5) 0.3005(5)
H13_3 H 0.8088 0.7425 0.3357
C22_3 C 0.7725(4) 0.5836(5) 0.2004(5)
C23_3 C 0.7531(4) 0.3653(5) 0.0830(4)
C24_3 C 0.7764(4) 0.0087(6) 0.1479(5)
H14_3 H 0.8083 0.0276 0.1448
C25_3 C 0.8113(4) 0.5395(6) 0.1889(5)
H15_3 H 0.8427 0.5559 0.2049
C27_3 C 0.7438(3) 0.1294(5) 0.0769(5)
C33_3 C 0.6016(8) 0.2691(11) 0.0046(11)
H26_3 H 0.6156 0.2584 0.0458
C34_3 C 0.5243(17) 0.281(2) 0.054(2)
H27_4 H 0.4898 0.2931 0.0506
H28_3 H 0.5296 0.2242 0.0689
H29_3 H 0.5417 0.3189 0.0830
Zn9 Zn 0.99466(4) 0.99684(6) 0.18084(5)
O13_4 O 0.2966(3) 0.1669(3) 0.4399(3)
O14_4 O 0.2921(3) 0.3504(4) 0.4380(3)
O22_3 O 0.2247(2) 0.6549(4) 0.2617(3)
O23_2 O 0.0523(2) 0.9166(3) 0.1919(3)
C36_3 C 0.1079(3) 0.8276(5) 0.2508(5)
O26_2 O 0.0486(2) 0.9058(3) 0.2994(4)
O30_4 O 0.3756(3) 0.2680(5) 0.5311(4)
C37_3 C 0.2771(3) 0.5587(6) 0.3218(5)
H30_3 H 0.3048 0.5893 0.3137
C40_3 C 0.1631(4) 0.7285(5) 0.3106(5)
H32_3 H 0.1746 0.7042 0.3494
C41_4 C 0.3081(4) 0.0294(5) 0.3688(5)
H33_4 H 0.3347 0.0615 0.3853
C42_4 C 0.2792(4) 0.4831(5) 0.3569(5)
H34_4 H 0.3104 0.4617 0.3689
C43_3 C 0.1344(3) 0.8056(5) 0.1983(5)
H35_3 H 0.1244 0.8307 0.1593
C44_4 C 0.1962(4) 0.4679(6) 0.3480(5)
H36_4 H 0.1688 0.4362 0.3557
C48_3 C 0.1247(4) 0.7844(6) 0.3091(5)
H40_3 H 0.1094 0.7944 0.3461
C49_4 C 0.2627(3) 0.0550(6) 0.3792(4)
C51_3 C 0.1850(4) 0.7073(5) 0.2568(4)
C53_4 C 0.2422(3) 0.4402(6) 0.3743(4)
C54_3 C 0.0680(3) 0.8863(5) 0.2422(6)
C55_3 C 0.1735(5) 0.7504(5) 0.1995(5)
H42_3 H 0.1912 0.7425 0.1643
C56_3 C 0.2275(4) 0.5836(5) 0.2996(5)
C57_4 C 0.2469(4) 0.3653(5) 0.4170(4)
C58_4 C 0.2236(4) 0.0087(6) 0.3521(5)
H43_4 H 0.1917 0.0276 0.3552
C59_3 C 0.1887(4) 0.5395(6) 0.3111(5)
H44_3 H 0.1573 0.5559 0.2951
C61_4 C 0.2562(3) 0.1294(5) 0.4231(5)
N4_4 N 0.4589(7) 0.2882(11) 0.5045(10)
C66_4 C 0.4697(9) 0.2823(13) 0.5755(10)
H52_3 H 0.5035 0.2963 0.5872
H53_4 H 0.4489 0.3206 0.5957
H54_4 H 0.4635 0.2261 0.5891
C67_4 C 0.3984(8) 0.2691(11) 0.4954(11)
H55_4 H 0.3844 0.2584 0.4542
C68_4 C 0.4757(17) 0.281(2) 0.446(2)
H56_3 H 0.5102 0.2931 0.4494
H57_4 H 0.4704 0.2242 0.4311
H58_4 H 0.4583 0.3189 0.4170
N1_3 N 0.0994(3) 0.9783(5) 0.4776(4)
O12_3 O 0.0266(3) 0.9955(4) 0.4184(3)
C29_3 C 0.0734(5) 0.9849(6) 0.4230(5)
C30_3 C 0.1509(6) 0.9627(11) 0.4900(9)
H17_3 H 0.1647 0.9525 0.4505
H19_3 H 0.1560 0.9146 0.5172
C31_3 C 0.0779(7) 0.9955(9) 0.5379(8)
H21_3 H 0.0814 0.9468 0.5648
H60_3 H 0.0919148 0.981327 0.379425
N3_3 N 0.9006(3) 0.9783(5) 0.0224(4)
O32_3 O 0.9734(3) 0.9955(4) 0.0816(3)
C63_3 C 0.9266(5) 0.9849(6) 0.0770(5)
C64_3 C 0.8491(6) 0.9627(11) 0.0100(9)
H46_3 H 0.8353 0.9525 0.0495
H59_3 H 0.908085 0.981327 0.120575
O1_4 O 0.7966(3) 0.3331(3) 0.9399(3)
O2_4 O 0.7921(3) 0.1496(4) 0.9380(3)
O3_2 O 0.7175(2) 0.3518(4) 0.9315(3)
O4_2 O 0.7123(3) 0.1691(3) 0.9305(3)
O5_3 O 0.7800(3) 0.6625(4) 0.7726(4)
C1_3 C 0.8190(3) 0.7131(5) 0.7716(5)
O9_3 O 0.9593(2) 0.9082(3) 0.8184(3)
C4_3 C 0.8942(3) 0.8269(5) 0.7694(5)
C5_3 C 0.8258(3) 0.7516(5) 0.7154(4)
H2_3 H 0.8049 0.7401 0.6789
O11_3 O 0.9425(2) 0.9213(4) 0.7136(4)
C7_4 C 0.8081(4) 0.4706(5) 0.8688(5)
H4_4 H 0.8347 0.4385 0.8853
C8_4 C 0.7792(4) 0.0169(5) 0.8569(5)
H5_4 H 0.8104 0.0383 0.8689
C10_4 C 0.6962(4) 0.0321(6) 0.8480(5)
H7_4 H 0.6688 0.0638 0.8557
C11_3 C 0.8490(4) 0.7330(6) 0.8303(5)
H8_3 H 0.8444 0.7076 0.8691
C12_3 C 0.7307(4) 0.5628(5) 0.8212(5)
H9_3 H 0.7036 0.5946 0.8057
C13_3 C 0.8847(3) 0.7920(5) 0.8244(5)
H10_3 H 0.9036 0.8088 0.8613
C15_4 C 0.7627(3) 0.4450(6) 0.8792(4)
C16_3 C 0.8647(4) 0.8089(5) 0.7127(5)
H12_3 H 0.8708 0.8342 0.6744
C18_3 C 0.7770(3) 0.5905(5) 0.8118(4)
C19_4 C 0.7422(3) 0.0598(6) 0.8743(4)
C23_4 C 0.7469(4) 0.1347(5) 0.9170(4)
C24_4 C 0.7236(4) 0.4913(6) 0.8521(5)
H14_4 H 0.6917 0.4724 0.8552
C26_3 C 0.8172(3) 0.5409(7) 0.8355(6)
H16_3 H 0.8492 0.5559 0.8285
C27_4 C 0.7562(3) 0.3706(5) 0.9231(5)
C28_3 C 0.9330(3) 0.8903(5) 0.7713(4)
H18_3 H 0.8335 0.9893 0.4892
H20_3 H 0.9564 0.9913 0.4711
H22_3 H 0.9053 0.9580 0.4409
C33_4 C 0.8984(8) 0.2309(11) 0.9954(11)
H26_4 H 0.8844 0.2416 0.9542
C34_4 C 0.9757(17) 0.219(2) 0.946(2)
H28_4 H 0.9704 0.2758 0.9311
H29_4 H 0.9583 0.1811 0.9170
Zn4_2 Zn 0.69653(4) 0.26120(6) 0.99259(6)
H52_4 H 0.9965 0.2037 0.4128
H56_4 H 0.9898 0.2069 0.5506
O10_4 O 0.6244(3) 0.2680(5) 0.9689(4)
N2_4 N 0.5411(7) 0.2882(11) 0.9955(10)
C32_4 C 0.5303(9) 0.2823(13) 0.9245(10)
H23_3 H 0.4965 0.2963 0.9128
H24_4 H 0.5511 0.3206 0.9043
H25_4 H 0.5365 0.2261 0.9109
Zn2_2 Zn 0.50534(4) 0.49684(6) 0.31916(5)
O5_4 O 0.7200(3) 0.8375(4) 0.2274(4)
C1_4 C 0.6810(3) 0.7869(5) 0.2284(5)
O9_4 O 0.5407(2) 0.5918(3) 0.1816(3)
C4_4 C 0.6058(3) 0.6731(5) 0.2306(5)
C5_4 C 0.6742(3) 0.7484(5) 0.2846(4)
H2_4 H 0.6951 0.7599 0.3211
O11_4 O 0.5575(2) 0.5787(4) 0.2864(4)
N1_4 N 0.5994(3) 0.4783(5) 0.4776(4)
C11_4 C 0.6510(4) 0.7670(6) 0.1697(5)
H8_4 H 0.6556 0.7924 0.1309
C12_4 C 0.7693(4) 0.9372(5) 0.1788(5)
H9_4 H 0.7964 0.9054 0.1943
C13_4 C 0.6153(3) 0.7080(5) 0.1756(5)
H10_4 H 0.5964 0.6912 0.1387
O12_4 O 0.5266(3) 0.4955(4) 0.4184(3)
C16_4 C 0.6353(4) 0.6911(5) 0.2873(5)
H12_4 H 0.6292 0.6658 0.3256
C18_4 C 0.7230(3) 0.9095(5) 0.1882(4)
C26_4 C 0.6828(3) 0.9591(7) 0.1645(6)
H16_4 H 0.6508 0.9441 0.1715
C28_4 C 0.5670(3) 0.6097(5) 0.2287(4)
C29_4 C 0.5734(5) 0.4849(6) 0.4230(5)
C30_4 C 0.6509(6) 0.4627(11) 0.4900(9)
H17_4 H 0.6647 0.4525 0.4505
H18_4 H 0.6665 0.5107 0.5108
H19_4 H 0.6560 0.4146 0.5172
C31_4 C 0.5779(7) 0.4955(9) 0.5379(8)
H20_4 H 0.5436 0.5087 0.5289
H21_4 H 0.5814 0.4468 0.5648
H22_4 H 0.5947 0.5420 0.5591
Zn6_2 Zn 0.49466(4) 0.49684(6) 0.18084(5)
O21_4 O 0.2800(3) 0.8375(4) 0.2726(4)
C35_4 C 0.3190(3) 0.7869(5) 0.2716(5)
O24_2 O 0.4477(2) 0.4166(3) 0.3081(3)
O25_2 O 0.5523(2) 0.4166(3) 0.1919(3)
O27_2 O 0.4514(2) 0.4058(3) 0.2006(4)
O28_2 O 0.5486(2) 0.4058(3) 0.2994(4)
O29_4 O 0.4593(2) 0.5918(3) 0.3184(3)
C38_4 C 0.3942(3) 0.6731(5) 0.2694(5)
C39_4 C 0.3258(3) 0.7484(5) 0.2154(4)
H31_4 H 0.3049 0.7599 0.1789
O31_4 O 0.4425(2) 0.5787(4) 0.2136(4)
N3_4 N 0.4006(3) 0.4783(5) 0.0224(4)
C45_4 C 0.3490(4) 0.7670(6) 0.3303(5)
H37_4 H 0.3444 0.7924 0.3691
C46_4 C 0.2307(4) 0.9372(5) 0.3212(5)
H38_4 H 0.2036 0.9054 0.3057
C47_4 C 0.3847(3) 0.7080(5) 0.3244(5)
H39_4 H 0.4036 0.6912 0.3613
O32_4 O 0.4734(3) 0.4955(4) 0.0816(3)
C50_4 C 0.3647(4) 0.6911(5) 0.2127(5)
H41_4 H 0.3708 0.6658 0.1744
C52_4 C 0.2770(3) 0.9095(5) 0.3118(4)
C60_4 C 0.3172(3) 0.9591(7) 0.3355(6)
H45_4 H 0.3492 0.9441 0.3285
C62_4 C 0.4330(3) 0.6097(5) 0.2713(4)
C63_4 C 0.4266(5) 0.4849(6) 0.0770(5)
C64_4 C 0.3491(6) 0.4627(11) 0.0100(9)
H46_4 H 0.3353 0.4525 0.0495
H59_4 H 0.408085 0.481327 0.120575
H60_4 H 0.591915 0.481327 0.379425
O6_4 O 0.2753(2) 0.1549(4) 0.2383(3)
C2_4 C 0.3921(3) 0.3276(5) 0.2492(5)
C3_4 C 0.2229(3) 0.0587(6) 0.1782(5)
H1_4 H 0.1952 0.0893 0.1863
C6_4 C 0.3369(4) 0.2285(5) 0.1894(5)
H3_4 H 0.3254 0.2042 0.1506
C9_4 C 0.3656(3) 0.3056(5) 0.3017(5)
H6_4 H 0.3756 0.3307 0.3407
C14_4 C 0.3753(4) 0.2844(6) 0.1909(5)
H11_4 H 0.3906 0.2944 0.1539
C17_4 C 0.3150(4) 0.2073(5) 0.2432(4)
C20_4 C 0.4320(3) 0.3863(5) 0.2578(6)
C21_4 C 0.3265(5) 0.2504(5) 0.3005(5)
H13_4 H 0.3088 0.2425 0.3357
C22_4 C 0.2725(4) 0.0836(5) 0.2004(5)
C25_4 C 0.3113(4) 0.0395(6) 0.1889(5)
H15_4 H 0.3427 0.0559 0.2049
O22_4 O 0.7247(2) 0.1549(4) 0.2617(3)
C36_4 C 0.6079(3) 0.3276(5) 0.2508(5)
C37_4 C 0.7771(3) 0.0587(6) 0.3218(5)
H30_4 H 0.8048 0.0893 0.3137
C40_4 C 0.6631(4) 0.2285(5) 0.3106(5)
H32_4 H 0.6746 0.2042 0.3494
C43_4 C 0.6344(3) 0.3056(5) 0.1983(5)
H35_4 H 0.6244 0.3307 0.1593
C48_4 C 0.6247(4) 0.2844(6) 0.3091(5)
H40_4 H 0.6094 0.2944 0.3461
C51_4 C 0.6850(4) 0.2073(5) 0.2568(4)
C54_4 C 0.5680(3) 0.3863(5) 0.2422(6)
C55_4 C 0.6735(5) 0.2504(5) 0.1995(5)
H42_4 H 0.6912 0.2425 0.1643
C56_4 C 0.7275(4) 0.0836(5) 0.2996(5)
C59_4 C 0.6887(4) 0.0395(6) 0.3111(5)
H44_4 H 0.6573 0.0559 0.2951
H47_3 H 0.3335 0.5107 0.9892
H48_3 H 0.3440 0.4146 0.9828
C65_3 C 0.4221(7) 0.4955(9) 0.9621(8)
H49_3 H 0.4564 0.5087 0.9711
H50_3 H 0.4186 0.4468 0.9352
H51_3 H 0.4053 0.5420 0.9409
H23_4 H 0.9965 0.7963 0.9128
H47_4 H 0.8335 0.0107 0.9892
H49_4 H 0.9564 0.0087 0.9711
H51_4 H 0.9053 0.0420 0.9409
H48_4 H 0.8440 0.9146 0.9828
C65_4 C 0.9221(7) 0.9955(9) 0.9621(8)
H50_4 H 0.9186 0.9468 0.9352
loop_
_geom_bond_atom_site_label_1
_geom_bond_atom_site_label_2
_geom_bond_site_symmetry_1
_geom_bond_site_symmetry_2
O1 C27 1_555 1_555
O3 C27 1_555 1_555
O4 C23 1_555 1_555
O6 C17 1_555 1_555
O7 C20 1_555 1_555
C2 C9 1_555 1_555
O8 C20 1_555 1_555
C3 H1 1_555 1_555
C6 H3 1_555 1_555
C7 H4 1_555 1_555
C8 C3 1_555 1_555
H5 C8 1_555 1_555
C9 H6 1_555 1_555
C10 H7 1_555 1_555
C14 C2 1_555 1_555
H11 C14 1_555 1_555
C15 C7 1_555 1_555
C17 C6 1_555 1_555
C19 C8 1_555 1_555
C20 C2 1_555 1_555
C21 C9 1_555 1_555
H13 C21 1_555 1_555
C22 O6 1_555 1_555
C23 O2 1_555 1_555
H14 C24 1_555 1_555
C25 C10 1_555 1_555
H15 C25 1_555 1_555
C27 C15 1_555 1_555
H26 C33 1_555 1_555
H27 C34 1_555 1_555
H28 C34 1_555 1_555
H29 C34 1_555 1_555
Zn3 O13 1_555 1_555
Zn4 O3 1_555 1_555
Zn5 O15 1_555 1_555
Zn8 O26 1_555 1_555
Zn10 O8 1_555 1_555
O13 C61 1_555 1_555
O14 Zn3 1_555 1_555
O15 C61 1_555 1_555
O17 Zn3 1_555 1_555
O18 Zn5 1_555 1_555
O20 Zn3 1_555 1_555
O22 C51 1_555 1_555
O23 C54 1_555 1_555
C36 C43 1_555 1_555
O26 C54 1_555 1_555
O30 Zn3 1_555 1_555
C37 H30 1_555 1_555
C40 H32 1_555 1_555
C41 H33 1_555 1_555
C42 C37 1_555 1_555
H34 C42 1_555 1_555
C43 H35 1_555 1_555
C44 H36 1_555 1_555
C48 C36 1_555 1_555
H40 C48 1_555 1_555
C49 C41 1_555 1_555
C51 C40 1_555 1_555
C53 C42 1_555 1_555
C54 C36 1_555 1_555
C55 C43 1_555 1_555
H42 C55 1_555 1_555
C56 O22 1_555 1_555
C57 O14 1_555 1_555
H43 C58 1_555 1_555
C59 C44 1_555 1_555
H44 C59 1_555 1_555
C61 C49 1_555 1_555
N4 C66 1_555 1_555
C66 H52 1_555 1_555
H53 C66 1_555 1_555
H54 C66 1_555 1_555
C67 O30 1_555 1_555
H55 C67 1_555 1_555
C68 N4 1_555 1_555
H56 C68 1_555 1_555
H57 C68 1_555 1_555
H58 C68 1_555 1_555
O4 Zn4 1_555 1_555
C3 C22 1_555 1_555
C6 C14 1_555 1_555
C10 C19 1_555 1_555
C15 C24 1_555 1_555
C17 C21 1_555 1_555
C19 C23 1_555 1_555
C22 C25 1_555 1_555
O18 C57 1_555 1_555
C37 C56 1_555 1_555
C40 C48 1_555 1_555
C44 C53 1_555 1_555
C49 C58 1_555 1_555
C51 C55 1_555 1_555
C53 C57 1_555 1_555
C56 C59 1_555 1_555
N4 C67 1_555 1_555
N3 C63 1_555 1_555
O32 Zn10 1_555 1_555
C63 O32 1_555 1_555
C64 N3 1_555 1_555
H46 C64 1_555 1_555
C63 H59 1_555 1_555
N1 C29 1_555 1_555
O12 Zn8 1_555 1_555
C29 O12 1_555 1_555
C30 N1 1_555 1_555
H17 C30 1_555 1_555
H19 C30 1_555 1_555
C31 N1 1_555 1_555
H21 C31 1_555 1_555
C29 H60 1_555 1_555
O10 Zn4 1_555 1_555
N2 C32 1_555 1_555
H24 C32 1_555 1_555
H25 C32 1_555 1_555
Zn5 O13_2 1_555 1_555
O13_2 C61_2 1_555 1_555
O14_2 Zn5 1_555 1_555
O17 C61_2 1_555 1_555
O21 C35 1_555 1_555
C35 C39 1_555 1_555
O30_2 Zn5 1_555 1_555
C38 C47 1_555 1_555
C39 H31 1_555 1_555
C41_2 H33_2 1_555 1_555
H34_2 C42_2 1_555 1_555
C44_2 H36_2 1_555 1_555
C45 C35 1_555 1_555
H37 C45 1_555 1_555
C46 H38 1_555 1_555
C47 C45 1_555 1_555
H39 C47 1_555 1_555
C49_2 C41_2 1_555 1_555
C50 C38 1_555 1_555
H41 C50 1_555 1_555
C52 O21 1_555 1_555
C53_2 C42_2 1_555 1_555
C57_2 O14_2 1_555 1_555
C58_2 C46 1_555 1_555
H43_2 C58_2 1_555 1_555
C60 C41_2 1_555 1_555
H45 C60 1_555 1_555
C61_2 C49_2 1_555 1_555
C62 O29 1_555 1_555
N4_2 C66_2 1_555 1_555
H53_2 C66_2 1_555 1_555
H54_2 C66_2 1_555 1_555
C67_2 O30_2 1_555 1_555
H55_2 C67_2 1_555 1_555
C68_2 N4_2 1_555 1_555
H57_2 C68_2 1_555 1_555
H58_2 C68_2 1_555 1_555
O20 C57_2 1_555 1_555
C38 C62 1_555 1_555
C39 C50 1_555 1_555
O31 C62 1_555 1_555
C44_2 C53_2 1_555 1_555
C46 C52 1_555 1_555
C49_2 C58_2 1_555 1_555
C52 C60 1_555 1_555
C53_2 C57_2 1_555 1_555
N4_2 C67_2 1_555 1_555
H49 C65 1_555 1_555
H50 C65 1_555 1_555
H51 C65 1_555 1_555
Zn2 O11 1_555 1_555
O5 C1 1_555 1_555
C1 C5 1_555 1_555
O9 C28 1_555 1_555
C4 C13 1_555 1_555
C5 H2 1_555 1_555
O11 C28 1_555 1_555
N1_2 C29_2 1_555 1_555
C11 C1 1_555 1_555
H8 C11 1_555 1_555
C12 H9 1_555 1_555
C13 C11 1_555 1_555
H10 C13 1_555 1_555
O12_2 Zn2 1_555 1_555
C16 C4 1_555 1_555
H12 C16 1_555 1_555
C18 O5 1_555 1_555
H16 C26 1_555 1_555
C28 C4 1_555 1_555
C29_2 O12_2 1_555 1_555
C30_2 N1_2 1_555 1_555
H17_2 C30_2 1_555 1_555
H18 C30_2 1_555 1_555
H19_2 C30_2 1_555 1_555
C31_2 N1_2 1_555 1_555
H20 C31_2 1_555 1_555
H21_2 C31_2 1_555 1_555
H22 C31_2 1_555 1_555
Zn6 O9 1_555 1_555
O21_2 C35_2 1_555 1_555
C35_2 C39_2 1_555 1_555
O24 Zn2 1_555 1_555
O25 Zn6 1_555 1_555
O27 Zn6 1_555 1_555
O28 Zn2 1_555 1_555
O29_2 Zn2 1_555 1_555
C38_2 C47_2 1_555 1_555
C39_2 H31_2 1_555 1_555
O31_2 Zn6 1_555 1_555
N3_2 C63_2 1_555 1_555
C45_2 C35_2 1_555 1_555
H37_2 C45_2 1_555 1_555
C46_2 H38_2 1_555 1_555
C47_2 C45_2 1_555 1_555
H39_2 C47_2 1_555 1_555
O32_2 Zn6 1_555 1_555
C50_2 C38_2 1_555 1_555
H41_2 C50_2 1_555 1_555
C52_2 O21_2 1_555 1_555
H45_2 C60_2 1_555 1_555
C62_2 O29_2 1_555 1_555
C63_2 O32_2 1_555 1_555
C64_2 N3_2 1_555 1_555
H46_2 C64_2 1_555 1_555
C5 C16 1_555 1_555
C12 C18 1_555 1_555
C18 C26 1_555 1_555
C38_2 C62_2 1_555 1_555
C39_2 C50_2 1_555 1_555
O31_2 C62_2 1_555 1_555
C46_2 C52_2 1_555 1_555
C52_2 C60_2 1_555 1_555
C63_2 H59_2 1_555 1_555
C29_2 H60_2 1_555 1_555
O22_2 C51_2 1_555 1_555
O25 C54_2 1_555 1_555
C36_2 C43_2 1_555 1_555
O28 C54_2 1_555 1_555
C37_2 H30_2 1_555 1_555
C40_2 H32_2 1_555 1_555
C43_2 H35_2 1_555 1_555
C48_2 C36_2 1_555 1_555
H40_2 C48_2 1_555 1_555
C51_2 C40_2 1_555 1_555
C54_2 C36_2 1_555 1_555
C55_2 C43_2 1_555 1_555
H42_2 C55_2 1_555 1_555
C56_2 O22_2 1_555 1_555
H44_2 C59_2 1_555 1_555
C37_2 C56_2 1_555 1_555
C40_2 C48_2 1_555 1_555
C51_2 C55_2 1_555 1_555
C56_2 C59_2 1_555 1_555
O6_2 C17_2 1_555 1_555
O24 C20_2 1_555 1_555
C2_2 C9_2 1_555 1_555
O27 C20_2 1_555 1_555
C3_2 H1_2 1_555 1_555
C6_2 H3_2 1_555 1_555
C9_2 H6_2 1_555 1_555
C14_2 C2_2 1_555 1_555
H11_2 C14_2 1_555 1_555
C17_2 C6_2 1_555 1_555
C20_2 C2_2 1_555 1_555
C21_2 C9_2 1_555 1_555
H13_2 C21_2 1_555 1_555
C22_2 O6_2 1_555 1_555
H15_2 C25_2 1_555 1_555
C3_2 C22_2 1_555 1_555
C6_2 C14_2 1_555 1_555
C17_2 C21_2 1_555 1_555
C22_2 C25_2 1_555 1_555
O10_2 Zn1 1_555 1_555
N2_2 C32_2 1_555 1_555
C32_2 H23 1_555 1_555
H24_2 C32_2 1_555 1_555
H25_2 C32_2 1_555 1_555
O16 Zn1 1_555 1_555
O19 Zn1 1_555 1_555
O1_2 C27_2 1_555 1_555
O16 C27_2 1_555 1_555
O19 C23_2 1_555 1_555
O5_2 C1_2 1_555 1_555
C1_2 C5_2 1_555 1_555
O9_2 C28_2 1_555 1_555
C4_2 C13_2 1_555 1_555
C5_2 H2_2 1_555 1_555
O11_2 C28_2 1_555 1_555
C7_2 H4_2 1_555 1_555
H5_2 C8_2 1_555 1_555
C10_2 H7_2 1_555 1_555
C11_2 C1_2 1_555 1_555
H8_2 C11_2 1_555 1_555
C12_2 H9_2 1_555 1_555
C13_2 C11_2 1_555 1_555
H10_2 C13_2 1_555 1_555
C15_2 C7_2 1_555 1_555
C16_2 C4_2 1_555 1_555
H12_2 C16_2 1_555 1_555
C18_2 O5_2 1_555 1_555
C19_2 C8_2 1_555 1_555
C23_2 O2_2 1_555 1_555
C24_2 C12_2 1_555 1_555
H14_2 C24_2 1_555 1_555
C26_2 C7_2 1_555 1_555
H16_2 C26_2 1_555 1_555
C27_2 C15_2 1_555 1_555
C28_2 C4_2 1_555 1_555
H26_2 C33_2 1_555 1_555
H28_2 C34_2 1_555 1_555
H29_2 C34_2 1_555 1_555
C5_2 C16_2 1_555 1_555
C10_2 C19_2 1_555 1_555
C12_2 C18_2 1_555 1_555
C15_2 C24_2 1_555 1_555
C18_2 C26_2 1_555 1_555
C19_2 C23_2 1_555 1_555
H50_2 C65_2 1_555 1_555
Zn3_2 O13_3 1_555 1_555
Zn5_2 O15_2 1_555 1_555
O13_3 C61_3 1_555 1_555
O14_3 Zn3_2 1_555 1_555
O15_2 C61_3 1_555 1_555
O17_2 Zn3_2 1_555 1_555
O18_2 Zn5_2 1_555 1_555
O20_2 Zn3_2 1_555 1_555
O21_3 C35_3 1_555 1_555
C35_3 C39_3 1_555 1_555
O30_3 Zn3_2 1_555 1_555
C38_3 C47_3 1_555 1_555
C39_3 H31_3 1_555 1_555
C41_3 H33_3 1_555 1_555
H34_3 C42_3 1_555 1_555
C44_3 H36_3 1_555 1_555
C45_3 C35_3 1_555 1_555
H37_3 C45_3 1_555 1_555
C46_3 H38_3 1_555 1_555
C47_3 C45_3 1_555 1_555
H39_3 C47_3 1_555 1_555
C49_3 C41_3 1_555 1_555
C50_3 C38_3 1_555 1_555
H41_3 C50_3 1_555 1_555
C52_3 O21_3 1_555 1_555
C53_3 C42_3 1_555 1_555
C57_3 O14_3 1_555 1_555
C58_3 C46_3 1_555 1_555
H43_3 C58_3 1_555 1_555
C60_3 C41_3 1_555 1_555
H45_3 C60_3 1_555 1_555
C61_3 C49_3 1_555 1_555
C62_3 O29_3 1_555 1_555
N4_3 C66_3 1_555 1_555
H53_3 C66_3 1_555 1_555
H54_3 C66_3 1_555 1_555
C67_3 O30_3 1_555 1_555
H55_3 C67_3 1_555 1_555
C68_3 N4_3 1_555 1_555
H57_3 C68_3 1_555 1_555
H58_3 C68_3 1_555 1_555
O18_2 C57_3 1_555 1_555
C38_3 C62_3 1_555 1_555
C39_3 C50_3 1_555 1_555
O31_3 C62_3 1_555 1_555
C44_3 C53_3 1_555 1_555
C46_3 C52_3 1_555 1_555
C49_3 C58_3 1_555 1_555
C52_3 C60_3 1_555 1_555
C53_3 C57_3 1_555 1_555
N4_3 C67_3 1_555 1_555
O10_3 Zn1_2 1_555 1_555
N2_3 C32_3 1_555 1_555
H24_3 C32_3 1_555 1_555
H25_3 C32_3 1_555 1_555
O16_2 Zn1_2 1_555 1_555
O19_2 Zn1_2 1_555 1_555
O1_3 C27_3 1_555 1_555
O16_2 C27_3 1_555 1_555
O19_2 C23_3 1_555 1_555
O6_3 C17_3 1_555 1_555
O7_2 C20_3 1_555 1_555
C2_3 C9_3 1_555 1_555
O8_2 C20_3 1_555 1_555
C3_3 H1_3 1_555 1_555
C6_3 H3_3 1_555 1_555
C7_3 H4_3 1_555 1_555
C8_3 C3_3 1_555 1_555
H5_3 C8_3 1_555 1_555
C9_3 H6_3 1_555 1_555
C10_3 H7_3 1_555 1_555
C14_3 C2_3 1_555 1_555
H11_3 C14_3 1_555 1_555
C15_3 C7_3 1_555 1_555
C17_3 C6_3 1_555 1_555
C19_3 C8_3 1_555 1_555
C20_3 C2_3 1_555 1_555
C21_3 C9_3 1_555 1_555
H13_3 C21_3 1_555 1_555
C22_3 O6_3 1_555 1_555
C23_3 O2_3 1_555 1_555
H14_3 C24_3 1_555 1_555
C25_3 C10_3 1_555 1_555
H15_3 C25_3 1_555 1_555
C27_3 C15_3 1_555 1_555
H26_3 C33_3 1_555 1_555
H27_4 C34_3 1_555 1_555
H28_3 C34_3 1_555 1_555
H29_3 C34_3 1_555 1_555
Zn5_2 O13_4 1_555 1_555
Zn7 O26_2 1_555 1_555
Zn9 O8_2 1_555 1_555
O13_4 C61_4 1_555 1_555
O14_4 Zn5_2 1_555 1_555
O17_2 C61_4 1_555 1_555
O22_3 C51_3 1_555 1_555
O23_2 C54_3 1_555 1_555
C36_3 C43_3 1_555 1_555
O26_2 C54_3 1_555 1_555
O30_4 Zn5_2 1_555 1_555
C37_3 H30_3 1_555 1_555
C40_3 H32_3 1_555 1_555
C41_4 H33_4 1_555 1_555
C42_4 C37_3 1_555 1_555
H34_4 C42_4 1_555 1_555
C43_3 H35_3 1_555 1_555
C44_4 H36_4 1_555 1_555
C48_3 C36_3 1_555 1_555
H40_3 C48_3 1_555 1_555
C49_4 C41_4 1_555 1_555
C51_3 C40_3 1_555 1_555
C53_4 C42_4 1_555 1_555
C54_3 C36_3 1_555 1_555
C55_3 C43_3 1_555 1_555
H42_3 C55_3 1_555 1_555
C56_3 O22_3 1_555 1_555
C57_4 O14_4 1_555 1_555
H43_4 C58_4 1_555 1_555
C59_3 C44_4 1_555 1_555
H44_3 C59_3 1_555 1_555
C61_4 C49_4 1_555 1_555
N4_4 C66_4 1_555 1_555
C66_4 H52_3 1_555 1_555
H53_4 C66_4 1_555 1_555
H54_4 C66_4 1_555 1_555
C67_4 O30_4 1_555 1_555
H55_4 C67_4 1_555 1_555
C68_4 N4_4 1_555 1_555
H56_3 C68_4 1_555 1_555
H57_4 C68_4 1_555 1_555
H58_4 C68_4 1_555 1_555
C3_3 C22_3 1_555 1_555
C6_3 C14_3 1_555 1_555
C10_3 C19_3 1_555 1_555
C15_3 C24_3 1_555 1_555
C17_3 C21_3 1_555 1_555
C19_3 C23_3 1_555 1_555
C22_3 C25_3 1_555 1_555
O20_2 C57_4 1_555 1_555
C37_3 C56_3 1_555 1_555
C40_3 C48_3 1_555 1_555
C44_4 C53_4 1_555 1_555
C49_4 C58_4 1_555 1_555
C51_3 C55_3 1_555 1_555
C53_4 C57_4 1_555 1_555
C56_3 C59_3 1_555 1_555
N4_4 C67_4 1_555 1_555
N1_3 C29_3 1_555 1_555
O12_3 Zn7 1_555 1_555
C29_3 O12_3 1_555 1_555
C30_3 N1_3 1_555 1_555
H17_3 C30_3 1_555 1_555
H19_3 C30_3 1_555 1_555
C31_3 N1_3 1_555 1_555
H21_3 C31_3 1_555 1_555
C29_3 H60_3 1_555 1_555
N3_3 C63_3 1_555 1_555
O32_3 Zn9 1_555 1_555
C63_3 O32_3 1_555 1_555
C64_3 N3_3 1_555 1_555
H46_3 C64_3 1_555 1_555
C63_3 H59_3 1_555 1_555
O1_4 C27_4 1_555 1_555
O3_2 C27_4 1_555 1_555
O4_2 C23_4 1_555 1_555
O5_3 C1_3 1_555 1_555
C1_3 C5_3 1_555 1_555
O9_3 C28_3 1_555 1_555
C4_3 C13_3 1_555 1_555
C5_3 H2_3 1_555 1_555
O11_3 C28_3 1_555 1_555
C7_4 H4_4 1_555 1_555
H5_4 C8_4 1_555 1_555
C10_4 H7_4 1_555 1_555
C11_3 C1_3 1_555 1_555
H8_3 C11_3 1_555 1_555
C12_3 H9_3 1_555 1_555
C13_3 C11_3 1_555 1_555
H10_3 C13_3 1_555 1_555
C15_4 C7_4 1_555 1_555
C16_3 C4_3 1_555 1_555
H12_3 C16_3 1_555 1_555
C18_3 O5_3 1_555 1_555
C19_4 C8_4 1_555 1_555
C23_4 O2_4 1_555 1_555
C24_4 C12_3 1_555 1_555
H14_4 C24_4 1_555 1_555
C26_3 C7_4 1_555 1_555
H16_3 C26_3 1_555 1_555
C27_4 C15_4 1_555 1_555
C28_3 C4_3 1_555 1_555
H26_4 C33_4 1_555 1_555
H28_4 C34_4 1_555 1_555
H29_4 C34_4 1_555 1_555
Zn4_2 O3_2 1_555 1_555
O4_2 Zn4_2 1_555 1_555
C5_3 C16_3 1_555 1_555
C10_4 C19_4 1_555 1_555
C12_3 C18_3 1_555 1_555
C15_4 C24_4 1_555 1_555
C18_3 C26_3 1_555 1_555
C19_4 C23_4 1_555 1_555
O10_4 Zn4_2 1_555 1_555
N2_4 C32_4 1_555 1_555
C32_4 H23_3 1_555 1_555
H24_4 C32_4 1_555 1_555
H25_4 C32_4 1_555 1_555
Zn2_2 O11_4 1_555 1_555
O5_4 C1_4 1_555 1_555
C1_4 C5_4 1_555 1_555
O9_4 C28_4 1_555 1_555
C4_4 C13_4 1_555 1_555
C5_4 H2_4 1_555 1_555
O11_4 C28_4 1_555 1_555
N1_4 C29_4 1_555 1_555
C11_4 C1_4 1_555 1_555
H8_4 C11_4 1_555 1_555
C12_4 H9_4 1_555 1_555
C13_4 C11_4 1_555 1_555
H10_4 C13_4 1_555 1_555
O12_4 Zn2_2 1_555 1_555
C16_4 C4_4 1_555 1_555
H12_4 C16_4 1_555 1_555
C18_4 O5_4 1_555 1_555
H16_4 C26_4 1_555 1_555
C28_4 C4_4 1_555 1_555
C29_4 O12_4 1_555 1_555
C30_4 N1_4 1_555 1_555
H17_4 C30_4 1_555 1_555
H18_4 C30_4 1_555 1_555
H19_4 C30_4 1_555 1_555
C31_4 N1_4 1_555 1_555
H20_4 C31_4 1_555 1_555
H21_4 C31_4 1_555 1_555
H22_4 C31_4 1_555 1_555
Zn6_2 O9_4 1_555 1_555
O21_4 C35_4 1_555 1_555
C35_4 C39_4 1_555 1_555
O24_2 Zn2_2 1_555 1_555
O25_2 Zn6_2 1_555 1_555
O27_2 Zn6_2 1_555 1_555
O28_2 Zn2_2 1_555 1_555
O29_4 Zn2_2 1_555 1_555
C38_4 C47_4 1_555 1_555
C39_4 H31_4 1_555 1_555
O31_4 Zn6_2 1_555 1_555
N3_4 C63_4 1_555 1_555
C45_4 C35_4 1_555 1_555
H37_4 C45_4 1_555 1_555
C46_4 H38_4 1_555 1_555
C47_4 C45_4 1_555 1_555
H39_4 C47_4 1_555 1_555
O32_4 Zn6_2 1_555 1_555
C50_4 C38_4 1_555 1_555
H41_4 C50_4 1_555 1_555
C52_4 O21_4 1_555 1_555
H45_4 C60_4 1_555 1_555
C62_4 O29_4 1_555 1_555
C63_4 O32_4 1_555 1_555
C64_4 N3_4 1_555 1_555
H46_4 C64_4 1_555 1_555
C5_4 C16_4 1_555 1_555
C12_4 C18_4 1_555 1_555
C18_4 C26_4 1_555 1_555
C38_4 C62_4 1_555 1_555
C39_4 C50_4 1_555 1_555
O31_4 C62_4 1_555 1_555
C46_4 C52_4 1_555 1_555
C52_4 C60_4 1_555 1_555
C63_4 H59_4 1_555 1_555
C29_4 H60_4 1_555 1_555
O6_4 C17_4 1_555 1_555
O24_2 C20_4 1_555 1_555
C2_4 C9_4 1_555 1_555
O27_2 C20_4 1_555 1_555
C3_4 H1_4 1_555 1_555
C6_4 H3_4 1_555 1_555
C9_4 H6_4 1_555 1_555
C14_4 C2_4 1_555 1_555
H11_4 C14_4 1_555 1_555
C17_4 C6_4 1_555 1_555
C20_4 C2_4 1_555 1_555
C21_4 C9_4 1_555 1_555
H13_4 C21_4 1_555 1_555
C22_4 O6_4 1_555 1_555
H15_4 C25_4 1_555 1_555
C3_4 C22_4 1_555 1_555
C6_4 C14_4 1_555 1_555
C17_4 C21_4 1_555 1_555
C22_4 C25_4 1_555 1_555
O22_4 C51_4 1_555 1_555
O25_2 C54_4 1_555 1_555
C36_4 C43_4 1_555 1_555
O28_2 C54_4 1_555 1_555
C37_4 H30_4 1_555 1_555
C40_4 H32_4 1_555 1_555
C43_4 H35_4 1_555 1_555
C48_4 C36_4 1_555 1_555
H40_4 C48_4 1_555 1_555
C51_4 C40_4 1_555 1_555
C54_4 C36_4 1_555 1_555
C55_4 C43_4 1_555 1_555
H42_4 C55_4 1_555 1_555
C56_4 O22_4 1_555 1_555
H44_4 C59_4 1_555 1_555
C37_4 C56_4 1_555 1_555
C40_4 C48_4 1_555 1_555
C51_4 C55_4 1_555 1_555
C56_4 C59_4 1_555 1_555
H49_3 C65_3 1_555 1_555
H50_3 C65_3 1_555 1_555
H51_3 C65_3 1_555 1_555
H50_4 C65_4 1_555 1_555

#END
