
###############################################################################
#
# This file contains modified crystal structure data generated from the
# MOF subset of the Cambridge Structural Database (CSD) v543 
# hosted by the Cambridge Crystallographic Data Centre (CCDC).
#
# This work is licensed under the Creative Commons
# Attribution-NonCommercial-ShareAlike 4.0 International License.
# To view a copy of this license, visit
# http://creativecommons.org/licenses/by-nc-sa/4.0/
# or send a letter to
# Creative Commons, PO Box 1866, Mountain View, CA 94042, USA.
#
# CIF created using the CSD Python API on 29 September 2022
# The structure has been converted into the P1 space group
# The structure has a 3D framework
# The original CSD entry HEDCIE is in the monoclinic crystal system
# The framework has been calculated to contain at least 10.0% void space
# The void calculation uses a probe of radius 1.32A, grid spacing 0.4
#
###############################################################################

data_HEDCIE
_chemical_formula_moiety         '(C288 H216 Cu16 N16 O88)n'
_symmetry_cell_setting           triclinic
_symmetry_space_group_name_H-M   'P 1'
_symmetry_Int_Tables_number      1
_space_group_name_Hall           'P 1'
loop_
_symmetry_equiv_pos_site_id
_symmetry_equiv_pos_as_xyz
1 x,y,z
_cell_length_a                   33.025(7)
_cell_length_b                   15.919(3)
_cell_length_c                   20.831(5)
_cell_angle_alpha                90
_cell_angle_beta                 122.187(7)
_cell_angle_gamma                90
_cell_volume                     9268.3
loop_
_atom_site_label
_atom_site_type_symbol
_atom_site_fract_x
_atom_site_fract_y
_atom_site_fract_z
O5 O 0.0383(3) 0.4059(4) 0.6020(4)
O8 O 0.2134(3) 0.1470(5) 0.7207(4)
O9 O 0.0525(3) 0.4090(5) 0.5075(5)
C4 C 0.0608(4) 0.3827(8) 0.5728(7)
C5 C 0.2667(4) 0.0513(7) 0.7121(7)
H1 H 0.2926 0.0807 0.7507
C14 C 0.1163(4) 0.2760(8) 0.5687(7)
H7 H 0.1028 0.2893 0.5178
C15 C 0.1752(4) 0.1987(8) 0.6822(6)
C16 C 0.2210(4) 0.0780(7) 0.6877(6)
C18 C 0.1538(4) 0.2168(7) 0.6031(6)
H8 H 0.1644 0.1901 0.5750
C20 C 0.0990(4) 0.3152(7) 0.6096(6)
C24 C 0.1580(5) 0.2374(7) 0.7218(7)
H12 H 0.1712 0.2236 0.7725
C27 C 0.1204(4) 0.2987(7) 0.6873(7)
H14 H 0.1105 0.3268 0.7157
C30 C 0.1811(4) 0.0267(8) 0.6311(7)
H17 H 0.1499 0.0394 0.6167
Cu8 Cu 0.00945(5) 0.50288(7) 0.44525(7)
O17 O 0.0430(3) 0.4194(5) 0.1071(4)
O18 O 0.0430(3) 0.5806(5) 0.6071(4)
O20 O 0.0599(3) 0.4153(5) 0.0145(4)
O27 O 0.2306(3) 0.1832(5) 0.2647(5)
C42 C 0.2788(4) 0.0833(8) 0.3565(7)
H29 H 0.3054 0.1150 0.3673
C43 C 0.1093(4) 0.3361(7) 0.1290(6)
C46 C 0.0681(4) 0.3943(6) 0.0828(6)
C47 C 0.1921(4) 0.0658(7) 0.2865(7)
H31 H 0.1617 0.0857 0.2510
C48 C 0.1177(4) 0.3045(7) 0.1995(7)
H32 H 0.0973 0.3190 0.2158
C53 C 0.1889(4) 0.2286(7) 0.2205(7)
C55 C 0.1416(4) 0.3135(6) 0.1068(7)
H36 H 0.1359 0.3326 0.0606
C58 C 0.1812(4) 0.2638(6) 0.1519(7)
H38 H 0.2029 0.2532 0.1375
C61 C 0.1576(4) 0.2505(7) 0.2446(7)
H40 H 0.1630 0.2296 0.2902
C62 C 0.2316(4) 0.1113(7) 0.3030(6)
C65 C 0.2840(5) 0.0036(7) 0.3936(8)
Cu10 Cu 0.00945(5) 0.49712(7) 0.94525(7)
O25 O 0.0525(3) 0.5910(5) 0.0075(5)
O11 O 0.0366(3) 0.5049(5) 0.8685(5)
N2 N 0.1029(4) 0.5285(8) 0.8611(6)
C33 C 0.0783(4) 0.5290(8) 0.8965(7)
H20 H 0.0942 0.5490 0.9460
C35 C 0.1546(5) 0.5544(10) 0.9025(9)
H22 H 0.1642 0.5748 0.9520
H23 H 0.1739 0.5069 0.9073
H24 H 0.1586 0.5981 0.8746
C36 C 0.0788(6) 0.4952(14) 0.7814(9)
H25 H 0.0461 0.4817 0.7634
H26 H 0.0798 0.5372 0.7491
H27 H 0.0952 0.4457 0.7808
O22 O 0.0599(3) 0.5847(5) 0.5145(4)
O28 O 0.0366(3) 0.4951(5) 0.3685(5)
N5 N 0.1029(4) 0.4715(8) 0.3611(6)
C69 C 0.0783(4) 0.4710(8) 0.3965(7)
H47 H 0.0942 0.4510 0.4460
C71 C 0.1546(5) 0.4456(10) 0.4025(9)
H49 H 0.1642 0.4252 0.4520
H50 H 0.1739 0.4931 0.4073
H51 H 0.1586 0.4019 0.3746
C72 C 0.0788(6) 0.5048(14) 0.2814(9)
H52 H 0.0461 0.5183 0.2634
H53 H 0.0798 0.4628 0.2491
H54 H 0.0952 0.5543 0.2808
O16 O 0.0383(3) 0.5941(4) 0.1020(4)
O23 O 0.2134(3) 0.8530(5) 0.2207(4)
C40 C 0.0608(4) 0.6173(8) 0.0728(7)
C41 C 0.2667(4) 0.9487(7) 0.2121(7)
H28 H 0.2926 0.9193 0.2507
C50 C 0.1163(4) 0.7240(8) 0.0687(7)
H34 H 0.1028 0.7107 0.0178
C51 C 0.1752(4) 0.8013(8) 0.1822(6)
C52 C 0.2210(4) 0.9220(7) 0.1877(6)
C54 C 0.1538(4) 0.7832(7) 0.1031(6)
H35 H 0.1644 0.8099 0.0750
C56 C 0.0990(4) 0.6848(7) 0.1096(6)
C60 C 0.1580(5) 0.7626(7) 0.2218(7)
H39 H 0.1712 0.7764 0.2725
C63 C 0.1204(4) 0.7013(7) 0.1873(7)
H41 H 0.1105 0.6732 0.2157
C66 C 0.1811(4) 0.9733(8) 0.1311(7)
H44 H 0.1499 0.9606 0.1167
O10 O 0.2306(3) 0.8168(5) 0.7647(5)
C6 C 0.2788(4) 0.9167(8) 0.8565(7)
H2 H 0.3054 0.8850 0.8673
C7 C 0.1093(4) 0.6639(7) 0.6290(6)
C10 C 0.0681(4) 0.6057(6) 0.5828(6)
C11 C 0.1921(4) 0.9342(7) 0.7865(7)
H4 H 0.1617 0.9143 0.7510
C12 C 0.1177(4) 0.6955(7) 0.6995(7)
H5 H 0.0973 0.6810 0.7158
C17 C 0.1889(4) 0.7714(7) 0.7205(7)
C19 C 0.1416(4) 0.6865(6) 0.6068(7)
H9 H 0.1359 0.6674 0.5606
C22 C 0.1812(4) 0.7362(6) 0.6519(7)
H11 H 0.2029 0.7468 0.6375
C25 C 0.1576(4) 0.7495(7) 0.7446(7)
H13 H 0.1630 0.7704 0.7902
C26 C 0.2316(4) 0.8887(7) 0.8030(6)
C29 C 0.2840(5) 0.9964(7) 0.8936(8)
Cu7 Cu 0.49055(5) 0.00288(7) 0.05475(7)
Cu1 Cu 0.20285(4) 0.74100(7) 0.45849(6)
O1 O 0.2081(2) 0.6453(4) 0.5265(4)
O2 O 0.2888(2) 0.6640(4) 0.5977(4)
O3 O 0.2076(2) 0.8259(4) 0.5321(4)
O4 O 0.2883(2) 0.8456(4) 0.6037(4)
N1 N 0.1249(3) 0.7513(5) 0.3898(5)
O6 O 0.4570(3) 0.0806(5) 0.8929(4)
O7 O 0.4401(3) 0.0847(5) 0.9855(4)
C1 C 0.2497(3) 0.6236(6) 0.5778(5)
C2 C 0.2452(4) 0.8638(6) 0.5841(6)
C3 C 0.2371(4) 0.9351(8) 0.6230(6)
O10_2 O 0.2694(3) 0.3168(5) 0.7353(5)
C6_2 C 0.2212(4) 0.4167(8) 0.6435(7)
H2_2 H 0.1946 0.3850 0.6327
C7_2 C 0.3907(4) 0.1639(7) 0.8710(6)
C8 C 0.2752(4) 0.9810(7) 0.6804(6)
H3 H 0.3064 0.9648 0.6978
C9 C 0.0255(4) 0.7588(7) 0.2784(7)
C10_2 C 0.4319(4) 0.1057(6) 0.9172(6)
C11_2 C 0.3079(4) 0.4342(7) 0.7135(7)
H4_2 H 0.3383 0.4143 0.7490
C12_2 C 0.3823(4) 0.1955(7) 0.8005(7)
H5_2 H 0.4027 0.1810 0.7842
C13 C 0.3022(4) 0.5144(6) 0.6750(6)
H6 H 0.3286 0.5467 0.6855
C17_2 C 0.3111(4) 0.2714(7) 0.7795(7)
C19_2 C 0.3584(4) 0.1865(6) 0.8932(7)
H9_2 H 0.3641 0.1674 0.9394
C21 C 0.1905(4) 0.9587(7) 0.5993(6)
H10 H 0.1650 0.9281 0.5611
C22_2 C 0.3188(4) 0.2362(6) 0.8481(7)
H11_2 H 0.2971 0.2468 0.8625
C23 C 0.2547(3) 0.5407(6) 0.6209(6)
C25_2 C 0.3424(4) 0.2495(7) 0.7554(7)
H13_2 H 0.3370 0.2704 0.7098
C26_2 C 0.2684(4) 0.3887(7) 0.6970(6)
C28 C 0.0559(4) 0.8251(8) 0.2924(8)
H15 H 0.0433 0.8760 0.2679
C29_2 C 0.2160(5) 0.4964(7) 0.6064(8)
H16 H 0.1856 0.5172 0.5721
C31 C 0.1041(4) 0.8179(8) 0.3414(8)
H18 H 0.1237 0.8601 0.3419
C32 C 0.0964(4) 0.6901(9) 0.3843(9)
H19 H 0.1093 0.6448 0.4174
C34 C 0.0460(4) 0.6913(9) 0.3286(9)
H21 H 0.0268 0.6469 0.3259
Cu3 Cu 0.29715(4) 0.75900(7) 0.54151(6)
Cu5 Cu 0.50945(5) 0.00288(7) 0.44525(7)
O12 O 0.2919(2) 0.8547(4) 0.4735(4)
O13 O 0.2112(2) 0.8360(4) 0.4023(4)
O14 O 0.2924(2) 0.6741(4) 0.4679(4)
O15 O 0.2117(2) 0.6544(4) 0.3963(4)
N4 N 0.3751(3) 0.7487(5) 0.6102(5)
O16_2 O 0.4617(3) 0.0941(4) 0.3980(4)
O22_2 O 0.5599(3) 0.0847(5) 0.5145(4)
C37 C 0.2503(3) 0.8764(6) 0.4222(5)
C38 C 0.2548(4) 0.6362(6) 0.4159(6)
O23_2 O 0.2866(3) 0.3530(5) 0.2793(4)
C39 C 0.2629(4) 0.5649(8) 0.3770(6)
O24 O 0.4475(3) 0.0910(5) 0.4925(5)
C40_2 C 0.4392(4) 0.1173(8) 0.4272(7)
C41_2 C 0.2333(4) 0.4487(7) 0.2879(7)
H28_2 H 0.2074 0.4193 0.2493
C44 C 0.2248(4) 0.5190(7) 0.3196(6)
H30 H 0.1936 0.5352 0.3022
C49 C 0.1978(4) 0.9856(6) 0.3250(6)
H33 H 0.1714 0.9533 0.3145
C50_2 C 0.3837(4) 0.2240(8) 0.4313(7)
H34_2 H 0.3972 0.2107 0.4822
C51_2 C 0.3248(4) 0.3013(8) 0.3178(6)
C52_2 C 0.2790(4) 0.4220(7) 0.3123(6)
C54_2 C 0.3462(4) 0.2832(7) 0.3969(6)
H35_2 H 0.3356 0.3099 0.4250
C56_2 C 0.4010(4) 0.1848(7) 0.3904(6)
C57 C 0.3095(4) 0.5413(7) 0.4007(6)
H37 H 0.3350 0.5719 0.4389
C59 C 0.2453(3) 0.9593(6) 0.3791(6)
C60_2 C 0.3420(5) 0.2626(7) 0.2782(7)
H39_2 H 0.3288 0.2764 0.2275
C63_2 C 0.3796(4) 0.2013(7) 0.3127(7)
H41_2 H 0.3895 0.1732 0.2843
H43 H 0.3144 0.9828 0.4279
C66_2 C 0.3189(4) 0.4733(8) 0.3689(7)
H44_2 H 0.3501 0.4606 0.3833
C72_2 C 0.5788(6) 0.0048(14) 0.2814(9)
H52_2 H 0.5461 0.0183 0.2634
H54_2 H 0.5952 0.0543 0.2808
Cu4 Cu 0.79715(4) 0.74100(7) 0.04151(6)
N3 N 0.8751(3) 0.7513(5) 0.1102(5)
C45 C 0.9745(4) 0.7588(7) 0.2216(7)
C64 C 0.9441(4) 0.8251(8) 0.2076(8)
H42 H 0.9567 0.8760 0.2321
C67 C 0.8959(4) 0.8179(8) 0.1586(8)
H45 H 0.8763 0.8601 0.1581
C68 C 0.9036(4) 0.6901(9) 0.1157(9)
H46 H 0.8907 0.6448 0.0826
C70 C 0.9540(4) 0.6913(9) 0.1714(9)
H48 H 0.9732 0.6469 0.1741
O12_2 O 0.7081(2) 0.8547(4) 0.0265(4)
O13_2 O 0.7888(2) 0.8360(4) 0.0977(4)
O14_2 O 0.7076(2) 0.6741(4) 0.0321(4)
O15_2 O 0.7883(2) 0.6544(4) 0.1037(4)
O16_3 O 0.5383(3) 0.0941(4) 0.1020(4)
C37_2 C 0.7497(3) 0.8764(6) 0.0778(5)
C38_2 C 0.7452(4) 0.6362(6) 0.0841(6)
O23_3 O 0.7134(3) 0.3530(5) 0.2207(4)
C39_2 C 0.7371(4) 0.5649(8) 0.1230(6)
O24_2 O 0.5525(3) 0.0910(5) 0.0075(5)
C40_3 C 0.5608(4) 0.1173(8) 0.0728(7)
C41_3 C 0.7667(4) 0.4487(7) 0.2121(7)
H28_3 H 0.7926 0.4193 0.2507
C44_2 C 0.7752(4) 0.5190(7) 0.1804(6)
H30_2 H 0.8064 0.5352 0.1978
C49_2 C 0.8022(4) 0.9856(6) 0.1750(6)
H33_2 H 0.8286 0.9533 0.1855
C50_3 C 0.6163(4) 0.2240(8) 0.0687(7)
H34_3 H 0.6028 0.2107 0.0178
C51_3 C 0.6752(4) 0.3013(8) 0.1822(6)
C52_3 C 0.7210(4) 0.4220(7) 0.1877(6)
C54_3 C 0.6538(4) 0.2832(7) 0.1031(6)
H35_3 H 0.6644 0.3099 0.0750
C56_3 C 0.5990(4) 0.1848(7) 0.1096(6)
C57_2 C 0.6905(4) 0.5413(7) 0.0993(6)
H37_2 H 0.6650 0.5719 0.0611
C59_2 C 0.7547(3) 0.9593(6) 0.1209(6)
C60_3 C 0.6580(5) 0.2626(7) 0.2218(7)
H39_3 H 0.6712 0.2764 0.2725
C63_3 C 0.6204(4) 0.2013(7) 0.1873(7)
H41_3 H 0.6105 0.1732 0.2157
H43_2 H 0.6856 0.9828 0.0721
C66_3 C 0.6811(4) 0.4733(8) 0.1311(7)
H44_3 H 0.6499 0.4606 0.1167
C72_3 C 0.4212(6) 0.0048(14) 0.2186(9)
H52_3 H 0.4539 0.0183 0.2366
H54_3 H 0.4048 0.0543 0.2192
O1_2 O 0.7919(2) 0.6453(4) 0.9735(4)
O2_2 O 0.7112(2) 0.6640(4) 0.9023(4)
O3_2 O 0.7924(2) 0.8259(4) 0.9679(4)
O4_2 O 0.7117(2) 0.8456(4) 0.8963(4)
O6_2 O 0.5430(3) 0.0806(5) 0.6071(4)
C1_2 C 0.7503(3) 0.6236(6) 0.9222(5)
C2_2 C 0.7548(4) 0.8638(6) 0.9159(6)
C3_2 C 0.7629(4) 0.9351(8) 0.8770(6)
O10_3 O 0.7306(3) 0.3168(5) 0.7647(5)
C6_3 C 0.7788(4) 0.4167(8) 0.8565(7)
H2_3 H 0.8054 0.3850 0.8673
C7_3 C 0.6093(4) 0.1639(7) 0.6290(6)
C8_2 C 0.7248(4) 0.9810(7) 0.8196(6)
H3_2 H 0.6936 0.9648 0.8022
C10_3 C 0.5681(4) 0.1057(6) 0.5828(6)
C11_3 C 0.6921(4) 0.4342(7) 0.7865(7)
H4_3 H 0.6617 0.4143 0.7510
C12_3 C 0.6177(4) 0.1955(7) 0.6995(7)
H5_3 H 0.5973 0.1810 0.7158
C13_2 C 0.6978(4) 0.5144(6) 0.8250(6)
H6_2 H 0.6714 0.5467 0.8145
C17_3 C 0.6889(4) 0.2714(7) 0.7205(7)
C19_3 C 0.6416(4) 0.1865(6) 0.6068(7)
H9_3 H 0.6359 0.1674 0.5606
C21_2 C 0.8095(4) 0.9587(7) 0.9007(6)
H10_2 H 0.8350 0.9281 0.9389
C22_3 C 0.6812(4) 0.2362(6) 0.6519(7)
H11_3 H 0.7029 0.2468 0.6375
C23_2 C 0.7453(3) 0.5407(6) 0.8791(6)
C25_3 C 0.6576(4) 0.2495(7) 0.7446(7)
H13_3 H 0.6630 0.2704 0.7902
C26_3 C 0.7316(4) 0.3887(7) 0.8030(6)
C29_3 C 0.7840(5) 0.4964(7) 0.8936(8)
H16_2 H 0.8144 0.5172 0.9279
Cu3_2 Cu 0.70285(4) 0.75900(7) 0.95849(6)
N4_2 N 0.6249(3) 0.7487(5) 0.8898(5)
O11_2 O 0.4634(3) 0.0049(5) 0.6315(5)
N2_2 N 0.3971(4) 0.0285(8) 0.6389(6)
C33_2 C 0.4217(4) 0.0290(8) 0.6035(7)
H20_2 H 0.4058 0.0490 0.5540
C35_2 C 0.3454(5) 0.0544(10) 0.5975(9)
H22_2 H 0.3358 0.0748 0.5480
H23_2 H 0.3261 0.0069 0.5927
H24_2 H 0.3414 0.0981 0.6254
H26_2 H 0.4202 0.0372 0.7509
O11_3 O 0.5366(3) 0.0049(5) 0.8685(5)
N2_3 N 0.6029(4) 0.0285(8) 0.8611(6)
C33_3 C 0.5783(4) 0.0290(8) 0.8965(7)
H20_3 H 0.5942 0.0490 0.9460
C35_3 C 0.6546(5) 0.0544(10) 0.9025(9)
H22_3 H 0.6642 0.0748 0.9520
H23_3 H 0.6739 0.0069 0.9073
H24_3 H 0.6586 0.0981 0.8746
H26_3 H 0.5798 0.0372 0.7491
C9_2 C 0.4745(4) 0.7412(7) 0.7216(7)
C28_2 C 0.4441(4) 0.6749(8) 0.7076(8)
H15_2 H 0.4567 0.6240 0.7321
C31_2 C 0.3959(4) 0.6821(8) 0.6586(8)
H18_2 H 0.3763 0.6399 0.6581
C32_2 C 0.4036(4) 0.8099(9) 0.6157(9)
H19_2 H 0.3907 0.8552 0.5826
C34_2 C 0.4540(4) 0.8087(9) 0.6714(9)
H21_2 H 0.4732 0.8531 0.6741
C45_2 C 0.5255(4) 0.7412(7) 0.7784(7)
C64_2 C 0.5559(4) 0.6749(8) 0.7924(8)
H42_2 H 0.5433 0.6240 0.7679
C67_2 C 0.6041(4) 0.6821(8) 0.8414(8)
H45_2 H 0.6237 0.6399 0.8419
C68_2 C 0.5964(4) 0.8099(9) 0.8843(9)
H46_2 H 0.6093 0.8552 0.9174
C70_2 C 0.5460(4) 0.8087(9) 0.8286(9)
H48_2 H 0.5268 0.8531 0.8259
Cu6 Cu 0.50945(5) 0.99712(7) 0.94525(7)
Cu11 Cu 0.49055(5) 0.99712(7) 0.55475(7)
O19 O 0.4570(3) 0.9194(5) 0.3929(4)
O26 O 0.5525(3) 0.9090(5) 0.5075(5)
O28_2 O 0.5366(3) 0.9951(5) 0.3685(5)
N5_2 N 0.6029(4) 0.9715(8) 0.3611(6)
C69_2 C 0.5783(4) 0.9710(8) 0.3965(7)
H47_2 H 0.5942 0.9510 0.4460
C71_2 C 0.6546(5) 0.9456(10) 0.4025(9)
H49_2 H 0.6642 0.9252 0.4520
H50_2 H 0.6739 0.9931 0.4073
H51_2 H 0.6586 0.9019 0.3746
H53_2 H 0.5798 0.9628 0.2491
O19_2 O 0.5430(3) 0.9194(5) 0.1071(4)
O28_3 O 0.4634(3) 0.9951(5) 0.1315(5)
N5_3 N 0.3971(4) 0.9715(8) 0.1389(6)
C69_3 C 0.4217(4) 0.9710(8) 0.1035(7)
H47_3 H 0.4058 0.9510 0.0540
C71_3 C 0.3454(5) 0.9456(10) 0.0975(9)
H49_3 H 0.3358 0.9252 0.0480
H50_3 H 0.3261 0.9931 0.0927
H51_3 H 0.3414 0.9019 0.1254
H53_3 H 0.4202 0.9628 0.2509
O26_2 O 0.4475(3) 0.9090(5) 0.9925(5)
Cu1_2 Cu 0.70285(4) 0.24100(7) 0.45849(6)
O1_3 O 0.7081(2) 0.1453(4) 0.5265(4)
O2_3 O 0.7888(2) 0.1640(4) 0.5977(4)
O3_3 O 0.7076(2) 0.3259(4) 0.5321(4)
O4_3 O 0.7883(2) 0.3456(4) 0.6037(4)
N1_2 N 0.6249(3) 0.2513(5) 0.3898(5)
O5_2 O 0.5383(3) 0.9059(4) 0.6020(4)
C1_3 C 0.7497(3) 0.1236(6) 0.5778(5)
C2_3 C 0.7452(4) 0.3638(6) 0.5841(6)
O8_2 O 0.7134(3) 0.6470(5) 0.7207(4)
C3_3 C 0.7371(4) 0.4351(8) 0.6230(6)
C4_2 C 0.5608(4) 0.8827(8) 0.5728(7)
C5_2 C 0.7667(4) 0.5513(7) 0.7121(7)
H1_2 H 0.7926 0.5807 0.7507
C8_3 C 0.7752(4) 0.4810(7) 0.6804(6)
H3_3 H 0.8064 0.4648 0.6978
C9_3 C 0.5255(4) 0.2588(7) 0.2784(7)
C13_3 C 0.8022(4) 0.0144(6) 0.6750(6)
H6_3 H 0.8286 0.0467 0.6855
C14_2 C 0.6163(4) 0.7760(8) 0.5687(7)
H7_2 H 0.6028 0.7893 0.5178
C15_2 C 0.6752(4) 0.6987(8) 0.6822(6)
C16_2 C 0.7210(4) 0.5780(7) 0.6877(6)
C18_2 C 0.6538(4) 0.7168(7) 0.6031(6)
H8_2 H 0.6644 0.6901 0.5750
C20_2 C 0.5990(4) 0.8152(7) 0.6096(6)
C21_3 C 0.6905(4) 0.4587(7) 0.5993(6)
H10_3 H 0.6650 0.4281 0.5611
C23_3 C 0.7547(3) 0.0407(6) 0.6209(6)
C24_2 C 0.6580(5) 0.7374(7) 0.7218(7)
H12_2 H 0.6712 0.7236 0.7725
C27_2 C 0.6204(4) 0.7987(7) 0.6873(7)
H14_2 H 0.6105 0.8268 0.7157
C28_3 C 0.5559(4) 0.3251(8) 0.2924(8)
H15_3 H 0.5433 0.3760 0.2679
H16_3 H 0.6856 0.0172 0.5721
C30_2 C 0.6811(4) 0.5267(8) 0.6311(7)
H17_2 H 0.6499 0.5394 0.6167
C31_3 C 0.6041(4) 0.3179(8) 0.3414(8)
H18_3 H 0.6237 0.3601 0.3419
C32_3 C 0.5964(4) 0.1901(9) 0.3843(9)
H19_3 H 0.6093 0.1448 0.4174
C34_3 C 0.5460(4) 0.1913(9) 0.3286(9)
H21_3 H 0.5268 0.1469 0.3259
C36_2 C 0.4212(6) 0.9952(14) 0.7186(9)
H25_2 H 0.4539 0.9817 0.7366
H27_2 H 0.4048 0.9457 0.7192
Cu3_3 Cu 0.79715(4) 0.25900(7) 0.54151(6)
Cu4_2 Cu 0.29715(4) 0.24100(7) 0.04151(6)
O12_3 O 0.7919(2) 0.3547(4) 0.4735(4)
O13_3 O 0.7112(2) 0.3360(4) 0.4023(4)
O14_3 O 0.7924(2) 0.1741(4) 0.4679(4)
O15_3 O 0.7117(2) 0.1544(4) 0.3963(4)
N3_2 N 0.3751(3) 0.2513(5) 0.1102(5)
N4_3 N 0.8751(3) 0.2487(5) 0.6102(5)
O20_2 O 0.5599(3) 0.9153(5) 0.0145(4)
O21 O 0.4401(3) 0.9153(5) 0.4855(4)
C37_3 C 0.7503(3) 0.3764(6) 0.4222(5)
C38_3 C 0.7548(4) 0.1362(6) 0.4159(6)
C39_3 C 0.7629(4) 0.0649(8) 0.3770(6)
O27_2 O 0.7306(3) 0.6832(5) 0.2647(5)
C42_2 C 0.7788(4) 0.5833(8) 0.3565(7)
H29_2 H 0.8054 0.6150 0.3673
C43_2 C 0.6093(4) 0.8361(7) 0.1290(6)
C44_3 C 0.7248(4) 0.0190(7) 0.3196(6)
H30_3 H 0.6936 0.0352 0.3022
C45_3 C 0.4745(4) 0.2588(7) 0.2216(7)
C46_2 C 0.5681(4) 0.8943(6) 0.0828(6)
C47_2 C 0.6921(4) 0.5658(7) 0.2865(7)
H31_2 H 0.6617 0.5857 0.2510
C48_2 C 0.6177(4) 0.8045(7) 0.1995(7)
H32_2 H 0.5973 0.8190 0.2158
C49_3 C 0.6978(4) 0.4856(6) 0.3250(6)
H33_3 H 0.6714 0.4533 0.3145
C53_2 C 0.6889(4) 0.7286(7) 0.2205(7)
C55_2 C 0.6416(4) 0.8135(6) 0.1068(7)
H36_2 H 0.6359 0.8326 0.0606
C57_3 C 0.8095(4) 0.0413(7) 0.4007(6)
H37_3 H 0.8350 0.0719 0.4389
C58_2 C 0.6812(4) 0.7638(6) 0.1519(7)
H38_2 H 0.7029 0.7532 0.1375
C59_3 C 0.7453(3) 0.4593(6) 0.3791(6)
C61_2 C 0.6576(4) 0.7505(7) 0.2446(7)
H40_2 H 0.6630 0.7296 0.2902
C62_2 C 0.7316(4) 0.6113(7) 0.3030(6)
C64_3 C 0.4441(4) 0.3251(8) 0.2076(8)
H42_3 H 0.4567 0.3760 0.2321
C65_2 C 0.7840(5) 0.5036(7) 0.3936(8)
H43_3 H 0.8144 0.4828 0.4279
C67_3 C 0.3959(4) 0.3179(8) 0.1586(8)
H45_3 H 0.3763 0.3601 0.1581
C68_3 C 0.4036(4) 0.1901(9) 0.1157(9)
H46_3 H 0.3907 0.1448 0.0826
C70_3 C 0.4540(4) 0.1913(9) 0.1714(9)
H48_3 H 0.4732 0.1469 0.1741
O12_4 O 0.2081(2) 0.3547(4) 0.0265(4)
O13_4 O 0.2888(2) 0.3360(4) 0.0977(4)
O14_4 O 0.2076(2) 0.1741(4) 0.0321(4)
O15_4 O 0.2883(2) 0.1544(4) 0.1037(4)
C37_4 C 0.2497(3) 0.3764(6) 0.0778(5)
C38_4 C 0.2452(4) 0.1362(6) 0.0841(6)
C39_4 C 0.2371(4) 0.0649(8) 0.1230(6)
O27_3 O 0.2694(3) 0.6832(5) 0.2353(5)
C42_3 C 0.2212(4) 0.5833(8) 0.1435(7)
H29_3 H 0.1946 0.6150 0.1327
C43_3 C 0.3907(4) 0.8361(7) 0.3710(6)
C44_4 C 0.2752(4) 0.0190(7) 0.1804(6)
H30_4 H 0.3064 0.0352 0.1978
C46_3 C 0.4319(4) 0.8943(6) 0.4172(6)
C47_3 C 0.3079(4) 0.5658(7) 0.2135(7)
H31_3 H 0.3383 0.5857 0.2490
C48_3 C 0.3823(4) 0.8045(7) 0.3005(7)
H32_3 H 0.4027 0.8190 0.2842
C49_4 C 0.3022(4) 0.4856(6) 0.1750(6)
H33_4 H 0.3286 0.4533 0.1855
C53_3 C 0.3111(4) 0.7286(7) 0.2795(7)
C55_3 C 0.3584(4) 0.8135(6) 0.3932(7)
H36_3 H 0.3641 0.8326 0.4394
C57_4 C 0.1905(4) 0.0413(7) 0.0993(6)
H37_4 H 0.1650 0.0719 0.0611
C58_3 C 0.3188(4) 0.7638(6) 0.3481(7)
H38_3 H 0.2971 0.7532 0.3625
C59_4 C 0.2547(3) 0.4593(6) 0.1209(6)
C61_3 C 0.3424(4) 0.7505(7) 0.2554(7)
H40_3 H 0.3370 0.7296 0.2098
C62_3 C 0.2684(4) 0.6113(7) 0.1970(6)
C65_3 C 0.2160(5) 0.5036(7) 0.1064(8)
H43_4 H 0.1856 0.4828 0.0721
O1_4 O 0.2919(2) 0.1453(4) 0.9735(4)
O2_4 O 0.2112(2) 0.1640(4) 0.9023(4)
O3_4 O 0.2924(2) 0.3259(4) 0.9679(4)
O4_4 O 0.2117(2) 0.3456(4) 0.8963(4)
O5_3 O 0.4617(3) 0.9059(4) 0.8980(4)
C1_4 C 0.2503(3) 0.1236(6) 0.9222(5)
C2_4 C 0.2548(4) 0.3638(6) 0.9159(6)
O8_3 O 0.2866(3) 0.6470(5) 0.7793(4)
C3_4 C 0.2629(4) 0.4351(8) 0.8770(6)
C4_3 C 0.4392(4) 0.8827(8) 0.9272(7)
C5_3 C 0.2333(4) 0.5513(7) 0.7879(7)
H1_3 H 0.2074 0.5807 0.7493
C8_4 C 0.2248(4) 0.4810(7) 0.8196(6)
H3_4 H 0.1936 0.4648 0.8022
C13_4 C 0.1978(4) 0.0144(6) 0.8250(6)
H6_4 H 0.1714 0.0467 0.8145
C14_3 C 0.3837(4) 0.7760(8) 0.9313(7)
H7_3 H 0.3972 0.7893 0.9822
C15_3 C 0.3248(4) 0.6987(8) 0.8178(6)
C16_3 C 0.2790(4) 0.5780(7) 0.8123(6)
C18_3 C 0.3462(4) 0.7168(7) 0.8969(6)
H8_3 H 0.3356 0.6901 0.9250
C20_3 C 0.4010(4) 0.8152(7) 0.8904(6)
C21_4 C 0.3095(4) 0.4587(7) 0.9007(6)
H10_4 H 0.3350 0.4281 0.9389
C23_4 C 0.2453(3) 0.0407(6) 0.8791(6)
C24_3 C 0.3420(5) 0.7374(7) 0.7782(7)
H12_3 H 0.3288 0.7236 0.7275
C27_3 C 0.3796(4) 0.7987(7) 0.8127(7)
H14_3 H 0.3895 0.8268 0.7843
H16_4 H 0.3144 0.0172 0.9279
C30_3 C 0.3189(4) 0.5267(8) 0.8689(7)
H17_3 H 0.3501 0.5394 0.8833
C36_3 C 0.5788(6) 0.9952(14) 0.7814(9)
H25_3 H 0.5461 0.9817 0.7634
H27_3 H 0.5952 0.9457 0.7808
Cu3_4 Cu 0.20285(4) 0.25900(7) 0.95849(6)
N4_4 N 0.1249(3) 0.2487(5) 0.8898(5)
C45_4 C 0.0255(4) 0.2412(7) 0.7784(7)
C64_4 C 0.0559(4) 0.1749(8) 0.7924(8)
H42_4 H 0.0433 0.1240 0.7679
C67_4 C 0.1041(4) 0.1821(8) 0.8414(8)
H45_4 H 0.1237 0.1399 0.8419
C68_4 C 0.0964(4) 0.3099(9) 0.8843(9)
H46_4 H 0.1093 0.3552 0.9174
C70_4 C 0.0460(4) 0.3087(9) 0.8286(9)
H48_4 H 0.0268 0.3531 0.8259
C9_4 C 0.9745(4) 0.2412(7) 0.7216(7)
C28_4 C 0.9441(4) 0.1749(8) 0.7076(8)
H15_4 H 0.9567 0.1240 0.7321
C31_4 C 0.8959(4) 0.1821(8) 0.6586(8)
H18_4 H 0.8763 0.1399 0.6581
C32_4 C 0.9036(4) 0.3099(9) 0.6157(9)
H19_4 H 0.8907 0.3552 0.5826
C34_4 C 0.9540(4) 0.3087(9) 0.6714(9)
H21_4 H 0.9732 0.3531 0.6741
Cu2 Cu 0.99055(5) 0.49712(7) 0.55475(7)
O11_4 O 0.9634(3) 0.5049(5) 0.6315(5)
N2_4 N 0.8971(4) 0.5285(8) 0.6389(6)
C33_4 C 0.9217(4) 0.5290(8) 0.6035(7)
H20_4 H 0.9058 0.5490 0.5540
C35_4 C 0.8454(5) 0.5544(10) 0.5975(9)
H22_4 H 0.8358 0.5748 0.5480
H23_4 H 0.8261 0.5069 0.5927
H24_4 H 0.8414 0.5981 0.6254
C36_4 C 0.9212(6) 0.4952(14) 0.7186(9)
H25_4 H 0.9539 0.4817 0.7366
H26_4 H 0.9202 0.5372 0.7509
H27_4 H 0.9048 0.4457 0.7192
Cu9 Cu 0.99055(5) 0.50288(7) 0.05475(7)
O21_2 O 0.9401(3) 0.4153(5) 0.4855(4)
O25_2 O 0.9475(3) 0.5910(5) 0.4925(5)
O17_2 O 0.9570(3) 0.4194(5) 0.3929(4)
O27_4 O 0.7694(3) 0.1832(5) 0.2353(5)
C42_4 C 0.7212(4) 0.0833(8) 0.1435(7)
H29_4 H 0.6946 0.1150 0.1327
C43_4 C 0.8907(4) 0.3361(7) 0.3710(6)
C46_4 C 0.9319(4) 0.3943(6) 0.4172(6)
C47_4 C 0.8079(4) 0.0658(7) 0.2135(7)
H31_4 H 0.8383 0.0857 0.2490
C48_4 C 0.8823(4) 0.3045(7) 0.3005(7)
H32_4 H 0.9027 0.3190 0.2842
C53_4 C 0.8111(4) 0.2286(7) 0.2795(7)
C55_4 C 0.8584(4) 0.3135(6) 0.3932(7)
H36_4 H 0.8641 0.3326 0.4394
C58_4 C 0.8188(4) 0.2638(6) 0.3481(7)
H38_4 H 0.7971 0.2532 0.3625
C61_4 C 0.8424(4) 0.2505(7) 0.2554(7)
H40_4 H 0.8370 0.2296 0.2098
C62_4 C 0.7684(4) 0.1113(7) 0.1970(6)
C65_4 C 0.7160(5) 0.0036(7) 0.1064(8)
O5_4 O 0.9617(3) 0.4059(4) 0.8980(4)
O8_4 O 0.7866(3) 0.1470(5) 0.7793(4)
O9_2 O 0.9475(3) 0.4090(5) 0.9925(5)
C4_4 C 0.9392(4) 0.3827(8) 0.9272(7)
C5_4 C 0.7333(4) 0.0513(7) 0.7879(7)
H1_4 H 0.7074 0.0807 0.7493
C14_4 C 0.8837(4) 0.2760(8) 0.9313(7)
H7_4 H 0.8972 0.2893 0.9822
C15_4 C 0.8248(4) 0.1987(8) 0.8178(6)
C16_4 C 0.7790(4) 0.0780(7) 0.8123(6)
C18_4 C 0.8462(4) 0.2168(7) 0.8969(6)
H8_4 H 0.8356 0.1901 0.9250
C20_4 C 0.9010(4) 0.3152(7) 0.8904(6)
C24_4 C 0.8420(5) 0.2374(7) 0.7782(7)
H12_4 H 0.8288 0.2236 0.7275
C27_4 C 0.8796(4) 0.2987(7) 0.8127(7)
H14_4 H 0.8895 0.3268 0.7843
C30_4 C 0.8189(4) 0.0267(8) 0.8689(7)
H17_4 H 0.8501 0.0394 0.8833
O18_2 O 0.9570(3) 0.5806(5) 0.8929(4)
O7_2 O 0.9401(3) 0.5847(5) 0.9855(4)
O10_4 O 0.7694(3) 0.8168(5) 0.7353(5)
C6_4 C 0.7212(4) 0.9167(8) 0.6435(7)
H2_4 H 0.6946 0.8850 0.6327
C7_4 C 0.8907(4) 0.6639(7) 0.8710(6)
C10_4 C 0.9319(4) 0.6057(6) 0.9172(6)
C11_4 C 0.8079(4) 0.9342(7) 0.7135(7)
H4_4 H 0.8383 0.9143 0.7490
C12_4 C 0.8823(4) 0.6955(7) 0.8005(7)
H5_4 H 0.9027 0.6810 0.7842
C17_4 C 0.8111(4) 0.7714(7) 0.7795(7)
C19_4 C 0.8584(4) 0.6865(6) 0.8932(7)
H9_4 H 0.8641 0.6674 0.9394
C22_4 C 0.8188(4) 0.7362(6) 0.8481(7)
H11_4 H 0.7971 0.7468 0.8625
C25_4 C 0.8424(4) 0.7495(7) 0.7554(7)
H13_4 H 0.8370 0.7704 0.7098
C26_4 C 0.7684(4) 0.8887(7) 0.6970(6)
C29_4 C 0.7160(5) 0.9964(7) 0.6064(8)
O16_4 O 0.9617(3) 0.5941(4) 0.3980(4)
O23_4 O 0.7866(3) 0.8530(5) 0.2793(4)
C40_4 C 0.9392(4) 0.6173(8) 0.4272(7)
C41_4 C 0.7333(4) 0.9487(7) 0.2879(7)
H28_4 H 0.7074 0.9193 0.2493
C50_4 C 0.8837(4) 0.7240(8) 0.4313(7)
H34_4 H 0.8972 0.7107 0.4822
C51_4 C 0.8248(4) 0.8013(8) 0.3178(6)
C52_4 C 0.7790(4) 0.9220(7) 0.3123(6)
C54_4 C 0.8462(4) 0.7832(7) 0.3969(6)
H35_4 H 0.8356 0.8099 0.4250
C56_4 C 0.9010(4) 0.6848(7) 0.3904(6)
C60_4 C 0.8420(5) 0.7626(7) 0.2782(7)
H39_4 H 0.8288 0.7764 0.2275
C63_4 C 0.8796(4) 0.7013(7) 0.3127(7)
H41_4 H 0.8895 0.6732 0.2843
C66_4 C 0.8189(4) 0.9733(8) 0.3689(7)
H44_4 H 0.8501 0.9606 0.3833
O28_4 O 0.9634(3) 0.4951(5) 0.1315(5)
N5_4 N 0.8971(4) 0.4715(8) 0.1389(6)
C69_4 C 0.9217(4) 0.4710(8) 0.1035(7)
H47_4 H 0.9058 0.4510 0.0540
C71_4 C 0.8454(5) 0.4456(10) 0.0975(9)
H49_4 H 0.8358 0.4252 0.0480
H50_4 H 0.8261 0.4931 0.0927
H51_4 H 0.8414 0.4019 0.1254
C72_4 C 0.9212(6) 0.5048(14) 0.2186(9)
H52_4 H 0.9539 0.5183 0.2366
H53_4 H 0.9202 0.4628 0.2509
H54_4 H 0.9048 0.5543 0.2192
loop_
_geom_bond_atom_site_label_1
_geom_bond_atom_site_label_2
_geom_bond_site_symmetry_1
_geom_bond_site_symmetry_2
O5 C4 1_555 1_555
O8 C15 1_555 1_555
O9 C4 1_555 1_555
C4 C20 1_555 1_555
C5 H1 1_555 1_555
C14 H7 1_555 1_555
C15 C18 1_555 1_555
C16 O8 1_555 1_555
C18 C14 1_555 1_555
H8 C18 1_555 1_555
C20 C14 1_555 1_555
C24 C15 1_555 1_555
H12 C24 1_555 1_555
C27 C20 1_555 1_555
H14 C27 1_555 1_555
C30 C16 1_555 1_555
H17 C30 1_555 1_555
Cu8 O9 1_555 1_555
O17 C46 1_555 1_555
O20 C46 1_555 1_555
O27 C53 1_555 1_555
C42 H29 1_555 1_555
C43 C46 1_555 1_555
C47 H31 1_555 1_555
C48 C43 1_555 1_555
H32 C48 1_555 1_555
C53 C58 1_555 1_555
C55 C43 1_555 1_555
H36 C55 1_555 1_555
C58 C55 1_555 1_555
H38 C58 1_555 1_555
C61 C48 1_555 1_555
H40 C61 1_555 1_555
C62 O27 1_555 1_555
C65 C42 1_555 1_555
C5 C16 1_555 1_555
C24 C27 1_555 1_555
C42 C62 1_555 1_555
C47 C62 1_555 1_555
C53 C61 1_555 1_555
O11 Cu10 1_555 1_555
N2 C33 1_555 1_555
C33 O11 1_555 1_555
H20 C33 1_555 1_555
C35 N2 1_555 1_555
H22 C35 1_555 1_555
H23 C35 1_555 1_555
H24 C35 1_555 1_555
C36 N2 1_555 1_555
H25 C36 1_555 1_555
H26 C36 1_555 1_555
H27 C36 1_555 1_555
O22 Cu8 1_555 1_555
O28 Cu8 1_555 1_555
N5 C69 1_555 1_555
C69 O28 1_555 1_555
H47 C69 1_555 1_555
C71 N5 1_555 1_555
H49 C71 1_555 1_555
H50 C71 1_555 1_555
H51 C71 1_555 1_555
C72 N5 1_555 1_555
H52 C72 1_555 1_555
H53 C72 1_555 1_555
H54 C72 1_555 1_555
O16 C40 1_555 1_555
O23 C51 1_555 1_555
O25 C40 1_555 1_555
C40 C56 1_555 1_555
C41 H28 1_555 1_555
C50 H34 1_555 1_555
C51 C54 1_555 1_555
C52 O23 1_555 1_555
C54 C50 1_555 1_555
H35 C54 1_555 1_555
C56 C50 1_555 1_555
C60 C51 1_555 1_555
H39 C60 1_555 1_555
C63 C56 1_555 1_555
H41 C63 1_555 1_555
C66 C52 1_555 1_555
H44 C66 1_555 1_555
C41 C52 1_555 1_555
C60 C63 1_555 1_555
O18 C10 1_555 1_555
O22 C10 1_555 1_555
O10 C17 1_555 1_555
C6 H2 1_555 1_555
C7 C10 1_555 1_555
C11 H4 1_555 1_555
C12 C7 1_555 1_555
H5 C12 1_555 1_555
C17 C22 1_555 1_555
C19 C7 1_555 1_555
H9 C19 1_555 1_555
C22 C19 1_555 1_555
H11 C22 1_555 1_555
C25 C12 1_555 1_555
H13 C25 1_555 1_555
C26 O10 1_555 1_555
C29 C6 1_555 1_555
C6 C26 1_555 1_555
C11 C26 1_555 1_555
C17 C25 1_555 1_555
Cu1 O1 1_555 1_555
O1 C1 1_555 1_555
O2 C1 1_555 1_555
O3 Cu1 1_555 1_555
O4 C2 1_555 1_555
N1 Cu1 1_555 1_555
O6 C10_2 1_555 1_555
O7 C10_2 1_555 1_555
C1 C23 1_555 1_555
C2 O3 1_555 1_555
C3 C2 1_555 1_555
O10_2 C17_2 1_555 1_555
C6_2 H2_2 1_555 1_555
C7_2 C10_2 1_555 1_555
C8 C3 1_555 1_555
H3 C8 1_555 1_555
C9 C28 1_555 1_555
C11_2 H4_2 1_555 1_555
C12_2 C7_2 1_555 1_555
H5_2 C12_2 1_555 1_555
C13 C11_2 1_555 1_555
H6 C13 1_555 1_555
C17_2 C22_2 1_555 1_555
C19_2 C7_2 1_555 1_555
H9_2 C19_2 1_555 1_555
C21 C3 1_555 1_555
H10 C21 1_555 1_555
C22_2 C19_2 1_555 1_555
H11_2 C22_2 1_555 1_555
C23 C13 1_555 1_555
C25_2 C12_2 1_555 1_555
H13_2 C25_2 1_555 1_555
C26_2 O10_2 1_555 1_555
C28 H15 1_555 1_555
C29_2 C6_2 1_555 1_555
H16 C29_2 1_555 1_555
C31 N1 1_555 1_555
H18 C31 1_555 1_555
C32 N1 1_555 1_555
H19 C32 1_555 1_555
C34 C9 1_555 1_555
H21 C34 1_555 1_555
Cu3 O2 1_555 1_555
Cu5 O16_2 1_555 1_555
O12 Cu3 1_555 1_555
O13 Cu1 1_555 1_555
O14 Cu3 1_555 1_555
O15 Cu1 1_555 1_555
N4 Cu3 1_555 1_555
O16_2 C40_2 1_555 1_555
O22_2 Cu5 1_555 1_555
C37 O12 1_555 1_555
C38 O14 1_555 1_555
O23_2 C51_2 1_555 1_555
C39 C38 1_555 1_555
O24 C40_2 1_555 1_555
C40_2 C56_2 1_555 1_555
C41_2 H28_2 1_555 1_555
C44 C39 1_555 1_555
H30 C44 1_555 1_555
H33 C49 1_555 1_555
C50_2 H34_2 1_555 1_555
C51_2 C54_2 1_555 1_555
C52_2 O23_2 1_555 1_555
C54_2 C50_2 1_555 1_555
H35_2 C54_2 1_555 1_555
C56_2 C50_2 1_555 1_555
C57 C39 1_555 1_555
H37 C57 1_555 1_555
C59 C37 1_555 1_555
C60_2 C51_2 1_555 1_555
H39_2 C60_2 1_555 1_555
C63_2 C56_2 1_555 1_555
H41_2 C63_2 1_555 1_555
C66_2 C52_2 1_555 1_555
H44_2 C66_2 1_555 1_555
H52_2 C72_2 1_555 1_555
H54_2 C72_2 1_555 1_555
O4 Cu3 1_555 1_555
C6_2 C26_2 1_555 1_555
C11_2 C26_2 1_555 1_555
C17_2 C25_2 1_555 1_555
C23 C29_2 1_555 1_555
C28 C31 1_555 1_555
C32 C34 1_555 1_555
O13 C37 1_555 1_555
O15 C38 1_555 1_555
C41_2 C44 1_555 1_555
C41_2 C52_2 1_555 1_555
C49 C59 1_555 1_555
C57 C66_2 1_555 1_555
C60_2 C63_2 1_555 1_555
Cu4 N3 1_555 1_555
N3 C67 1_555 1_555
C64 C45 1_555 1_555
H42 C64 1_555 1_555
C67 C64 1_555 1_555
H45 C67 1_555 1_555
C68 N3 1_555 1_555
H46 C68 1_555 1_555
C70 C45 1_555 1_555
H48 C70 1_555 1_555
C68 C70 1_555 1_555
Cu7 O16_3 1_555 1_555
O13_2 Cu4 1_555 1_555
O15_2 Cu4 1_555 1_555
O16_3 C40_3 1_555 1_555
C37_2 O12_2 1_555 1_555
C38_2 O14_2 1_555 1_555
O23_3 C51_3 1_555 1_555
C39_2 C38_2 1_555 1_555
O24_2 C40_3 1_555 1_555
C40_3 C56_3 1_555 1_555
C41_3 H28_3 1_555 1_555
C44_2 C39_2 1_555 1_555
H30_2 C44_2 1_555 1_555
H33_2 C49_2 1_555 1_555
C50_3 H34_3 1_555 1_555
C51_3 C54_3 1_555 1_555
C52_3 O23_3 1_555 1_555
C54_3 C50_3 1_555 1_555
H35_3 C54_3 1_555 1_555
C56_3 C50_3 1_555 1_555
C57_2 C39_2 1_555 1_555
H37_2 C57_2 1_555 1_555
C59_2 C37_2 1_555 1_555
C60_3 C51_3 1_555 1_555
H39_3 C60_3 1_555 1_555
C63_3 C56_3 1_555 1_555
H41_3 C63_3 1_555 1_555
C66_3 C52_3 1_555 1_555
H44_3 C66_3 1_555 1_555
H52_3 C72_3 1_555 1_555
H54_3 C72_3 1_555 1_555
O13_2 C37_2 1_555 1_555
O15_2 C38_2 1_555 1_555
C41_3 C44_2 1_555 1_555
C41_3 C52_3 1_555 1_555
C49_2 C59_2 1_555 1_555
C57_2 C66_3 1_555 1_555
C60_3 C63_3 1_555 1_555
O1_2 C1_2 1_555 1_555
O2_2 C1_2 1_555 1_555
O4_2 C2_2 1_555 1_555
O6_2 C10_3 1_555 1_555
O22_2 C10_3 1_555 1_555
C1_2 C23_2 1_555 1_555
C2_2 O3_2 1_555 1_555
C3_2 C2_2 1_555 1_555
O10_3 C17_3 1_555 1_555
C6_3 H2_3 1_555 1_555
C7_3 C10_3 1_555 1_555
C8_2 C3_2 1_555 1_555
H3_2 C8_2 1_555 1_555
C11_3 H4_3 1_555 1_555
C12_3 C7_3 1_555 1_555
H5_3 C12_3 1_555 1_555
C13_2 C11_3 1_555 1_555
H6_2 C13_2 1_555 1_555
C17_3 C22_3 1_555 1_555
C19_3 C7_3 1_555 1_555
H9_3 C19_3 1_555 1_555
C21_2 C3_2 1_555 1_555
H10_2 C21_2 1_555 1_555
C22_3 C19_3 1_555 1_555
H11_3 C22_3 1_555 1_555
C23_2 C13_2 1_555 1_555
C25_3 C12_3 1_555 1_555
H13_3 C25_3 1_555 1_555
C26_3 O10_3 1_555 1_555
C29_3 C6_3 1_555 1_555
H16_2 C29_3 1_555 1_555
Cu3_2 O2_2 1_555 1_555
N4_2 Cu3_2 1_555 1_555
O4_2 Cu3_2 1_555 1_555
C6_3 C26_3 1_555 1_555
C11_3 C26_3 1_555 1_555
C17_3 C25_3 1_555 1_555
C23_2 C29_3 1_555 1_555
N2_2 C33_2 1_555 1_555
C33_2 O11_2 1_555 1_555
H20_2 C33_2 1_555 1_555
C35_2 N2_2 1_555 1_555
H22_2 C35_2 1_555 1_555
H23_2 C35_2 1_555 1_555
H24_2 C35_2 1_555 1_555
N2_3 C33_3 1_555 1_555
C33_3 O11_3 1_555 1_555
H20_3 C33_3 1_555 1_555
C35_3 N2_3 1_555 1_555
H22_3 C35_3 1_555 1_555
H23_3 C35_3 1_555 1_555
H24_3 C35_3 1_555 1_555
C9_2 C28_2 1_555 1_555
C28_2 H15_2 1_555 1_555
C31_2 N4 1_555 1_555
H18_2 C31_2 1_555 1_555
C32_2 N4 1_555 1_555
H19_2 C32_2 1_555 1_555
C34_2 C9_2 1_555 1_555
H21_2 C34_2 1_555 1_555
N4_2 C67_2 1_555 1_555
C45_2 C9_2 1_555 1_555
C64_2 C45_2 1_555 1_555
H42_2 C64_2 1_555 1_555
C67_2 C64_2 1_555 1_555
H45_2 C67_2 1_555 1_555
C68_2 N4_2 1_555 1_555
H46_2 C68_2 1_555 1_555
C70_2 C45_2 1_555 1_555
H48_2 C70_2 1_555 1_555
C28_2 C31_2 1_555 1_555
C32_2 C34_2 1_555 1_555
C68_2 C70_2 1_555 1_555
N5_2 C69_2 1_555 1_555
C69_2 O28_2 1_555 1_555
H47_2 C69_2 1_555 1_555
C71_2 N5_2 1_555 1_555
H49_2 C71_2 1_555 1_555
H50_2 C71_2 1_555 1_555
H51_2 C71_2 1_555 1_555
N5_3 C69_3 1_555 1_555
C69_3 O28_3 1_555 1_555
H47_3 C69_3 1_555 1_555
C71_3 N5_3 1_555 1_555
H49_3 C71_3 1_555 1_555
H50_3 C71_3 1_555 1_555
H51_3 C71_3 1_555 1_555
Cu1_2 O1_3 1_555 1_555
Cu11 O5_2 1_555 1_555
O1_3 C1_3 1_555 1_555
O2_3 C1_3 1_555 1_555
O3_3 Cu1_2 1_555 1_555
O4_3 C2_3 1_555 1_555
N1_2 Cu1_2 1_555 1_555
O5_2 C4_2 1_555 1_555
C1_3 C23_3 1_555 1_555
C2_3 O3_3 1_555 1_555
O8_2 C15_2 1_555 1_555
C3_3 C2_3 1_555 1_555
O26 C4_2 1_555 1_555
C4_2 C20_2 1_555 1_555
C5_2 H1_2 1_555 1_555
C8_3 C3_3 1_555 1_555
H3_3 C8_3 1_555 1_555
C9_3 C28_3 1_555 1_555
H6_3 C13_3 1_555 1_555
C14_2 H7_2 1_555 1_555
C15_2 C18_2 1_555 1_555
C16_2 O8_2 1_555 1_555
C18_2 C14_2 1_555 1_555
H8_2 C18_2 1_555 1_555
C20_2 C14_2 1_555 1_555
C21_3 C3_3 1_555 1_555
H10_3 C21_3 1_555 1_555
C23_3 C13_3 1_555 1_555
C24_2 C15_2 1_555 1_555
H12_2 C24_2 1_555 1_555
C27_2 C20_2 1_555 1_555
H14_2 C27_2 1_555 1_555
C28_3 H15_3 1_555 1_555
C30_2 C16_2 1_555 1_555
H17_2 C30_2 1_555 1_555
C31_3 N1_2 1_555 1_555
H18_3 C31_3 1_555 1_555
C32_3 N1_2 1_555 1_555
H19_3 C32_3 1_555 1_555
C34_3 C9_3 1_555 1_555
H21_3 C34_3 1_555 1_555
H25_2 C36_2 1_555 1_555
H27_2 C36_2 1_555 1_555
Cu3_3 O2_3 1_555 1_555
Cu4_2 N3_2 1_555 1_555
O12_3 Cu3_3 1_555 1_555
O13_3 Cu1_2 1_555 1_555
O14_3 Cu3_3 1_555 1_555
O15_3 Cu1_2 1_555 1_555
N3_2 C67_3 1_555 1_555
N4_3 Cu3_3 1_555 1_555
O19_2 C46_2 1_555 1_555
O20_2 C46_2 1_555 1_555
O21 Cu11 1_555 1_555
C37_3 O12_3 1_555 1_555
C38_3 O14_3 1_555 1_555
C39_3 C38_3 1_555 1_555
O27_2 C53_2 1_555 1_555
C42_2 H29_2 1_555 1_555
C43_2 C46_2 1_555 1_555
C44_3 C39_3 1_555 1_555
H30_3 C44_3 1_555 1_555
C45_3 C9_3 1_555 1_555
C47_2 H31_2 1_555 1_555
C48_2 C43_2 1_555 1_555
H32_2 C48_2 1_555 1_555
C49_3 C47_2 1_555 1_555
H33_3 C49_3 1_555 1_555
C53_2 C58_2 1_555 1_555
C55_2 C43_2 1_555 1_555
H36_2 C55_2 1_555 1_555
C57_3 C39_3 1_555 1_555
H37_3 C57_3 1_555 1_555
C58_2 C55_2 1_555 1_555
H38_2 C58_2 1_555 1_555
C59_3 C37_3 1_555 1_555
C61_2 C48_2 1_555 1_555
H40_2 C61_2 1_555 1_555
C62_2 O27_2 1_555 1_555
C64_3 C45_3 1_555 1_555
H42_3 C64_3 1_555 1_555
C65_2 C42_2 1_555 1_555
H43_3 C65_2 1_555 1_555
C67_3 C64_3 1_555 1_555
H45_3 C67_3 1_555 1_555
C68_3 N3_2 1_555 1_555
H46_3 C68_3 1_555 1_555
C70_3 C45_3 1_555 1_555
H48_3 C70_3 1_555 1_555
O4_3 Cu3_3 1_555 1_555
C5_2 C8_3 1_555 1_555
C5_2 C16_2 1_555 1_555
C21_3 C30_2 1_555 1_555
C24_2 C27_2 1_555 1_555
C28_3 C31_3 1_555 1_555
C32_3 C34_3 1_555 1_555
O13_3 C37_3 1_555 1_555
O15_3 C38_3 1_555 1_555
C42_2 C62_2 1_555 1_555
C47_2 C62_2 1_555 1_555
C49_3 C59_3 1_555 1_555
C53_2 C61_2 1_555 1_555
C59_3 C65_2 1_555 1_555
C68_3 C70_3 1_555 1_555
O13_4 Cu4_2 1_555 1_555
O15_4 Cu4_2 1_555 1_555
O19 C46_3 1_555 1_555
O21 C46_3 1_555 1_555
C37_4 O12_4 1_555 1_555
C38_4 O14_4 1_555 1_555
C39_4 C38_4 1_555 1_555
O27_3 C53_3 1_555 1_555
C42_3 H29_3 1_555 1_555
C43_3 C46_3 1_555 1_555
C44_4 C39_4 1_555 1_555
H30_4 C44_4 1_555 1_555
C47_3 H31_3 1_555 1_555
C48_3 C43_3 1_555 1_555
H32_3 C48_3 1_555 1_555
C49_4 C47_3 1_555 1_555
H33_4 C49_4 1_555 1_555
C53_3 C58_3 1_555 1_555
C55_3 C43_3 1_555 1_555
H36_3 C55_3 1_555 1_555
C57_4 C39_4 1_555 1_555
H37_4 C57_4 1_555 1_555
C58_3 C55_3 1_555 1_555
H38_3 C58_3 1_555 1_555
C59_4 C37_4 1_555 1_555
C61_3 C48_3 1_555 1_555
H40_3 C61_3 1_555 1_555
C62_3 O27_3 1_555 1_555
C65_3 C42_3 1_555 1_555
H43_4 C65_3 1_555 1_555
O13_4 C37_4 1_555 1_555
O15_4 C38_4 1_555 1_555
C42_3 C62_3 1_555 1_555
C47_3 C62_3 1_555 1_555
C49_4 C59_4 1_555 1_555
C53_3 C61_3 1_555 1_555
C59_4 C65_3 1_555 1_555
Cu6 O5_3 1_555 1_555
O1_4 C1_4 1_555 1_555
O2_4 C1_4 1_555 1_555
O4_4 C2_4 1_555 1_555
O5_3 C4_3 1_555 1_555
C1_4 C23_4 1_555 1_555
C2_4 O3_4 1_555 1_555
O8_3 C15_3 1_555 1_555
C3_4 C2_4 1_555 1_555
O26_2 C4_3 1_555 1_555
C4_3 C20_3 1_555 1_555
C5_3 H1_3 1_555 1_555
C8_4 C3_4 1_555 1_555
H3_4 C8_4 1_555 1_555
H6_4 C13_4 1_555 1_555
C14_3 H7_3 1_555 1_555
C15_3 C18_3 1_555 1_555
C16_3 O8_3 1_555 1_555
C18_3 C14_3 1_555 1_555
H8_3 C18_3 1_555 1_555
C20_3 C14_3 1_555 1_555
C21_4 C3_4 1_555 1_555
H10_4 C21_4 1_555 1_555
C23_4 C13_4 1_555 1_555
C24_3 C15_3 1_555 1_555
H12_3 C24_3 1_555 1_555
C27_3 C20_3 1_555 1_555
H14_3 C27_3 1_555 1_555
C30_3 C16_3 1_555 1_555
H17_3 C30_3 1_555 1_555
H25_3 C36_3 1_555 1_555
H27_3 C36_3 1_555 1_555
Cu3_4 O2_4 1_555 1_555
N4_4 Cu3_4 1_555 1_555
O4_4 Cu3_4 1_555 1_555
C5_3 C8_4 1_555 1_555
C5_3 C16_3 1_555 1_555
C21_4 C30_3 1_555 1_555
C24_3 C27_3 1_555 1_555
N4_4 C67_4 1_555 1_555
C64_4 C45_4 1_555 1_555
H42_4 C64_4 1_555 1_555
C67_4 C64_4 1_555 1_555
H45_4 C67_4 1_555 1_555
C68_4 N4_4 1_555 1_555
H46_4 C68_4 1_555 1_555
C70_4 C45_4 1_555 1_555
H48_4 C70_4 1_555 1_555
C68_4 C70_4 1_555 1_555
C9_4 C28_4 1_555 1_555
C28_4 H15_4 1_555 1_555
C31_4 N4_3 1_555 1_555
H18_4 C31_4 1_555 1_555
C32_4 N4_3 1_555 1_555
H19_4 C32_4 1_555 1_555
C34_4 C9_4 1_555 1_555
H21_4 C34_4 1_555 1_555
C28_4 C31_4 1_555 1_555
C32_4 C34_4 1_555 1_555
O11_4 Cu2 1_555 1_555
N2_4 C33_4 1_555 1_555
C33_4 O11_4 1_555 1_555
H20_4 C33_4 1_555 1_555
C35_4 N2_4 1_555 1_555
H22_4 C35_4 1_555 1_555
H23_4 C35_4 1_555 1_555
H24_4 C35_4 1_555 1_555
C36_4 N2_4 1_555 1_555
H25_4 C36_4 1_555 1_555
H26_4 C36_4 1_555 1_555
H27_4 C36_4 1_555 1_555
O21_2 Cu2 1_555 1_555
O25_2 Cu2 1_555 1_555
O17_2 C46_4 1_555 1_555
O21_2 C46_4 1_555 1_555
O27_4 C53_4 1_555 1_555
C42_4 H29_4 1_555 1_555
C43_4 C46_4 1_555 1_555
C47_4 H31_4 1_555 1_555
C48_4 C43_4 1_555 1_555
H32_4 C48_4 1_555 1_555
C53_4 C58_4 1_555 1_555
C55_4 C43_4 1_555 1_555
H36_4 C55_4 1_555 1_555
C58_4 C55_4 1_555 1_555
H38_4 C58_4 1_555 1_555
C61_4 C48_4 1_555 1_555
H40_4 C61_4 1_555 1_555
C62_4 O27_4 1_555 1_555
C65_4 C42_4 1_555 1_555
C42_4 C62_4 1_555 1_555
C47_4 C62_4 1_555 1_555
C53_4 C61_4 1_555 1_555
O5_4 C4_4 1_555 1_555
O8_4 C15_4 1_555 1_555
O9_2 C4_4 1_555 1_555
C4_4 C20_4 1_555 1_555
C5_4 H1_4 1_555 1_555
C14_4 H7_4 1_555 1_555
C15_4 C18_4 1_555 1_555
C16_4 O8_4 1_555 1_555
C18_4 C14_4 1_555 1_555
H8_4 C18_4 1_555 1_555
C20_4 C14_4 1_555 1_555
C24_4 C15_4 1_555 1_555
H12_4 C24_4 1_555 1_555
C27_4 C20_4 1_555 1_555
H14_4 C27_4 1_555 1_555
C30_4 C16_4 1_555 1_555
H17_4 C30_4 1_555 1_555
C5_4 C16_4 1_555 1_555
C24_4 C27_4 1_555 1_555
O18_2 C10_4 1_555 1_555
O7_2 C10_4 1_555 1_555
O10_4 C17_4 1_555 1_555
C6_4 H2_4 1_555 1_555
C7_4 C10_4 1_555 1_555
C11_4 H4_4 1_555 1_555
C12_4 C7_4 1_555 1_555
H5_4 C12_4 1_555 1_555
C17_4 C22_4 1_555 1_555
C19_4 C7_4 1_555 1_555
H9_4 C19_4 1_555 1_555
C22_4 C19_4 1_555 1_555
H11_4 C22_4 1_555 1_555
C25_4 C12_4 1_555 1_555
H13_4 C25_4 1_555 1_555
C26_4 O10_4 1_555 1_555
C29_4 C6_4 1_555 1_555
O16_4 C40_4 1_555 1_555
O23_4 C51_4 1_555 1_555
O25_2 C40_4 1_555 1_555
C40_4 C56_4 1_555 1_555
C41_4 H28_4 1_555 1_555
C50_4 H34_4 1_555 1_555
C51_4 C54_4 1_555 1_555
C52_4 O23_4 1_555 1_555
C54_4 C50_4 1_555 1_555
H35_4 C54_4 1_555 1_555
C56_4 C50_4 1_555 1_555
C60_4 C51_4 1_555 1_555
H39_4 C60_4 1_555 1_555
C63_4 C56_4 1_555 1_555
H41_4 C63_4 1_555 1_555
C66_4 C52_4 1_555 1_555
H44_4 C66_4 1_555 1_555
C6_4 C26_4 1_555 1_555
C11_4 C26_4 1_555 1_555
C17_4 C25_4 1_555 1_555
C41_4 C52_4 1_555 1_555
C60_4 C63_4 1_555 1_555
O28_4 Cu9 1_555 1_555
N5_4 C69_4 1_555 1_555
C69_4 O28_4 1_555 1_555
H47_4 C69_4 1_555 1_555
C71_4 N5_4 1_555 1_555
H49_4 C71_4 1_555 1_555
H50_4 C71_4 1_555 1_555
H51_4 C71_4 1_555 1_555
C72_4 N5_4 1_555 1_555
H52_4 C72_4 1_555 1_555
H53_4 C72_4 1_555 1_555
H54_4 C72_4 1_555 1_555

#END
