
###############################################################################
#
# This file contains modified crystal structure data generated from the
# MOF subset of the Cambridge Structural Database (CSD) v543 
# hosted by the Cambridge Crystallographic Data Centre (CCDC).
#
# This work is licensed under the Creative Commons
# Attribution-NonCommercial-ShareAlike 4.0 International License.
# To view a copy of this license, visit
# http://creativecommons.org/licenses/by-nc-sa/4.0/
# or send a letter to
# Creative Commons, PO Box 1866, Mountain View, CA 94042, USA.
#
# CIF created using the CSD Python API on 29 September 2022
# The structure has been converted into the P1 space group
# The structure has a 3D framework
# The original CSD entry HEDGUS is in the monoclinic crystal system
# The framework has been calculated to contain at least 10.0% void space
# The void calculation uses a probe of radius 1.32A, grid spacing 0.4
#
###############################################################################

data_HEDGUS
_chemical_formula_moiety         '(C32 H16 Cu4 N12 O16)n'
_symmetry_cell_setting           triclinic
_symmetry_space_group_name_H-M   'P 1'
_symmetry_Int_Tables_number      1
_space_group_name_Hall           'P 1'
loop_
_symmetry_equiv_pos_site_id
_symmetry_equiv_pos_as_xyz
1 x,y,z
_cell_length_a                   4.693(3)
_cell_length_b                   19.849(2)
_cell_length_c                   11.096(2)
_cell_angle_alpha                90
_cell_angle_beta                 96.90(2)
_cell_angle_gamma                90
_cell_volume                     1026.12
loop_
_atom_site_label
_atom_site_type_symbol
_atom_site_fract_x
_atom_site_fract_y
_atom_site_fract_z
_atom_site_U_iso_or_equiv
_atom_site_thermal_displace_type
O2 O 0.162(2) 0.1734(4) 0.3869(8) 0.0470 Uiso
O3 O 0.521(2) 0.3097(4) 0.4063(7) 0.0280 Uiso
O4 O 0.148(2) 0.3315(5) 0.5017(8) 0.0300 Uiso
C2 C 0.069(3) 0.3096(7) 0.292(1) 0.0260 Uiso
C5 C 0.021(3) 0.1801(7) 0.288(1) 0.0270 Uiso
C6 C 0.257(3) 0.3159(6) 0.410(1) 0.0220 Uiso
O9 O 0.148(2) 0.1685(5) 0.0017(8) 0.0300 Uiso
Cu3 Cu 0.7200(4) 0.33935(9) 0.5642(2) 0.0260 Uiso
Cu1 Cu 0.7200(4) 0.16065(9) 0.0642(2) 0.0260 Uiso
O1 O 0.896(2) 0.1349(4) 0.2255(8) 0.0380 Uiso
N1 N 0.788(2) 0.2526(6) 0.1326(10) 0.0320 Uiso
N2 N 0.994(3) 0.3686(5) 0.242(1) 0.0370 Uiso
N3 N 0.605(2) 0.0634(5) 0.025(1) 0.0260 Uiso
C1 C 0.962(3) 0.2511(6) 0.237(1) 0.0250 Uiso
C3 C 0.818(4) 0.3698(7) 0.140(1) 0.0480 Uiso
C4 C 0.711(4) 0.3124(7) 0.081(1) 0.0410 Uiso
C7 C 0.465(4) 0.0314(7) 0.101(1) 0.0410 Uiso
H1 H 0.7605 0.4134 0.1028 0.0582 Uiso
H2 H 0.5804 0.3136 0.0085 0.0477 Uiso
H3 H 0.4372 0.0508 0.1776 0.0472 Uiso
C8 C 0.647(3) 0.0328(7) 0.923(1) 0.0360 Uiso
H4 H 0.7526 0.0542 0.8671 0.0475 Uiso
O6 O 0.162(2) 0.3266(4) 0.8869(8) 0.0470 Uiso
O7 O 0.521(2) 0.1903(4) 0.9063(7) 0.0280 Uiso
C12 C 0.069(3) 0.1904(7) 0.792(1) 0.0260 Uiso
C15 C 0.021(3) 0.3199(7) 0.788(1) 0.0270 Uiso
C16 C 0.257(3) 0.1841(6) 0.910(1) 0.0220 Uiso
C9 C 0.353(3) 0.9672(7) 0.077(1) 0.0360 Uiso
H6 H 0.2474 0.9458 0.1329 0.0475 Uiso
N4 N 0.395(2) 0.9366(5) 0.975(1) 0.0260 Uiso
C10 C 0.535(4) 0.9686(7) 0.899(1) 0.0410 Uiso
H5 H 0.5628 0.9492 0.8224 0.0472 Uiso
Cu6 Cu 0.2800(4) 0.83935(9) 0.9358(2) 0.0260 Uiso
O5 O 0.896(2) 0.3651(4) 0.7255(8) 0.0380 Uiso
N5 N 0.788(2) 0.2474(6) 0.6326(10) 0.0320 Uiso
N6 N 0.994(3) 0.1314(5) 0.742(1) 0.0370 Uiso
C11 C 0.962(3) 0.2489(6) 0.737(1) 0.0250 Uiso
C13 C 0.818(4) 0.1302(7) 0.640(1) 0.0480 Uiso
C14 C 0.711(4) 0.1876(7) 0.581(1) 0.0410 Uiso
H7 H 0.7605 0.0866 0.6028 0.0582 Uiso
H8 H 0.5804 0.1864 0.5085 0.0477 Uiso
N7 N 0.605(2) 0.4366(5) 0.525(1) 0.0260 Uiso
C7_2 C 0.465(4) 0.4686(7) 0.601(1) 0.0410 Uiso
C8_2 C 0.647(3) 0.4672(7) 0.423(1) 0.0360 Uiso
H3_2 H 0.4372 0.4492 0.6776 0.0472 Uiso
H4_2 H 0.7526 0.4458 0.3671 0.0475 Uiso
C9_2 C 0.353(3) 0.5328(7) 0.577(1) 0.0360 Uiso
N4_2 N 0.395(2) 0.5634(5) 0.475(1) 0.0260 Uiso
C10_2 C 0.535(4) 0.5314(7) 0.399(1) 0.0410 Uiso
H5_2 H 0.5628 0.5508 0.3224 0.0472 Uiso
H6_2 H 0.2474 0.5542 0.6329 0.0475 Uiso
Cu6_2 Cu 0.2800(4) 0.66065(9) 0.4358(2) 0.0260 Uiso
O5_2 O 0.104(2) 0.6349(4) 0.2745(8) 0.0380 Uiso
N5_2 N 0.212(2) 0.7526(6) 0.3674(10) 0.0320 Uiso
N6_2 N 0.006(3) 0.8686(5) 0.258(1) 0.0370 Uiso
C11_2 C 0.038(3) 0.7511(6) 0.263(1) 0.0250 Uiso
C13_2 C 0.182(4) 0.8698(7) 0.360(1) 0.0480 Uiso
C14_2 C 0.289(4) 0.8124(7) 0.419(1) 0.0410 Uiso
H7_2 H 0.2395 0.9134 0.3972 0.0582 Uiso
H8_2 H 0.4196 0.8136 0.4915 0.0477 Uiso
O10 O 0.479(2) 0.6903(4) 0.5937(7) 0.0280 Uiso
O6_2 O 0.838(2) 0.6734(4) 0.1131(8) 0.0470 Uiso
O7_2 O 0.479(2) 0.8097(4) 0.0937(7) 0.0280 Uiso
C12_2 C 0.931(3) 0.8096(7) 0.208(1) 0.0260 Uiso
C15_2 C 0.979(3) 0.6801(7) 0.212(1) 0.0270 Uiso
C16_2 C 0.743(3) 0.8159(6) 0.090(1) 0.0220 Uiso
O11 O 0.852(2) 0.6685(5) 0.4983(8) 0.0300 Uiso
O1_2 O 0.104(2) 0.8651(4) 0.7745(8) 0.0380 Uiso
N1_2 N 0.212(2) 0.7474(6) 0.8674(10) 0.0320 Uiso
N2_2 N 0.006(3) 0.6314(5) 0.758(1) 0.0370 Uiso
C1_2 C 0.038(3) 0.7489(6) 0.763(1) 0.0250 Uiso
C3_2 C 0.182(4) 0.6302(7) 0.860(1) 0.0480 Uiso
C4_2 C 0.289(4) 0.6876(7) 0.919(1) 0.0410 Uiso
H1_2 H 0.2395 0.5866 0.8972 0.0582 Uiso
H2_2 H 0.4196 0.6864 0.9915 0.0477 Uiso
O8 O 0.852(2) 0.8315(5) 0.9983(8) 0.0300 Uiso
O2_2 O 0.838(2) 0.8266(4) 0.6131(8) 0.0470 Uiso
C2_2 C 0.931(3) 0.6904(7) 0.708(1) 0.0260 Uiso
C5_2 C 0.979(3) 0.8199(7) 0.712(1) 0.0270 Uiso
C6_2 C 0.743(3) 0.6841(6) 0.590(1) 0.0220 Uiso
loop_
_geom_bond_atom_site_label_1
_geom_bond_atom_site_label_2
_geom_bond_site_symmetry_1
_geom_bond_site_symmetry_2
O2 C5 1_555 1_555
O3 C6 1_555 1_555
O4 C6 1_555 1_555
C6 C2 1_555 1_555
Cu3 O3 1_555 1_555
Cu1 O1 1_555 1_555
N1 Cu1 1_555 1_555
N3 Cu1 1_555 1_555
C1 N1 1_555 1_555
C3 N2 1_555 1_555
C4 N1 1_555 1_555
C7 N3 1_555 1_555
H1 C3 1_555 1_555
H2 C4 1_555 1_555
H3 C7 1_555 1_555
C3 C4 1_555 1_555
H4 C8 1_555 1_555
O6 C15 1_555 1_555
C12 C16 1_555 1_555
C16 O7 1_555 1_555
H6 C9 1_555 1_555
H5 C10 1_555 1_555
Cu6 N4 1_555 1_555
N4 C10 1_555 1_555
N5 C11 1_555 1_555
C13 N6 1_555 1_555
C14 N5 1_555 1_555
H7 C13 1_555 1_555
H8 C14 1_555 1_555
Cu3 O5 1_555 1_555
N7 Cu3 1_555 1_555
N5 Cu3 1_555 1_555
C13 C14 1_555 1_555
C7_2 N7 1_555 1_555
C8_2 N7 1_555 1_555
H3_2 C7_2 1_555 1_555
H4_2 C8_2 1_555 1_555
C9_2 C7_2 1_555 1_555
N4_2 C9_2 1_555 1_555
C10_2 C8_2 1_555 1_555
H5_2 C10_2 1_555 1_555
H6_2 C9_2 1_555 1_555
Cu6_2 N4_2 1_555 1_555
N4_2 C10_2 1_555 1_555
N5_2 C11_2 1_555 1_555
C13_2 N6_2 1_555 1_555
C14_2 N5_2 1_555 1_555
H7_2 C13_2 1_555 1_555
H8_2 C14_2 1_555 1_555
Cu6_2 O5_2 1_555 1_555
O10 Cu6_2 1_555 1_555
N5_2 Cu6_2 1_555 1_555
C13_2 C14_2 1_555 1_555
O6_2 C15_2 1_555 1_555
C12_2 C16_2 1_555 1_555
C16_2 O7_2 1_555 1_555
Cu6 O1_2 1_555 1_555
N1_2 Cu6 1_555 1_555
C1_2 N1_2 1_555 1_555
C3_2 N2_2 1_555 1_555
C4_2 N1_2 1_555 1_555
H1_2 C3_2 1_555 1_555
H2_2 C4_2 1_555 1_555
C3_2 C4_2 1_555 1_555
O2_2 C5_2 1_555 1_555
O10 C6_2 1_555 1_555
O11 C6_2 1_555 1_555
C6_2 C2_2 1_555 1_555

#END
