
###############################################################################
#
# This file contains modified crystal structure data generated from the
# MOF subset of the Cambridge Structural Database (CSD) v543 
# hosted by the Cambridge Crystallographic Data Centre (CCDC).
#
# This work is licensed under the Creative Commons
# Attribution-NonCommercial-ShareAlike 4.0 International License.
# To view a copy of this license, visit
# http://creativecommons.org/licenses/by-nc-sa/4.0/
# or send a letter to
# Creative Commons, PO Box 1866, Mountain View, CA 94042, USA.
#
# CIF created using the CSD Python API on 29 September 2022
# The structure has been converted into the P1 space group
# The structure has a 3D framework
# The original CSD entry HEFDIH is in the rhombohedral crystal system
# The original CSD entry HEFDIH is in a Sohncke space group
# The framework has been calculated to contain at least 10.0% void space
# The void calculation uses a probe of radius 1.32A, grid spacing 0.4
# H atom positions have been added when not included in the experimental data
#
###############################################################################

data_HEFDIH
_chemical_formula_moiety         '(C333 H417 Mn18 Mo9 N153)n'
_symmetry_cell_setting           triclinic
_symmetry_space_group_name_H-M   'P 1'
_symmetry_Int_Tables_number      1
_space_group_name_Hall           'P 1'
loop_
_symmetry_equiv_pos_site_id
_symmetry_equiv_pos_as_xyz
1 x,y,z
_cell_length_a                   29.772(4)
_cell_length_b                   29.772(4)
_cell_length_c                   12.763(3)
_cell_angle_alpha                90
_cell_angle_beta                 90
_cell_angle_gamma                120
_cell_volume                     9797.14
loop_
_atom_site_label
_atom_site_type_symbol
_atom_site_fract_x
_atom_site_fract_y
_atom_site_fract_z
Mo1 Mo 0.158647(19) 0.31273(2) 0.12772(4)
Mn2 Mn 0.19675(4) 0.22263(4) 0.43542(8)
C1 C 0.1260(3) 0.4640(3) 0.0568(6)
H1 H 0.1268 0.4916 0.0988
H2 H 0.1490 0.4537 0.0886
C2 C 0.2346(3) 0.3151(3) 0.5851(6)
C3 C 0.0710(3) 0.4180(3) 0.0535(6)
H3 H 0.0588 0.4060 0.1241
H4 H 0.0479 0.4281 0.0214
N2 N 0.2004(2) 0.2659(2) 0.5804(4)
N4 N 0.2343(3) 0.2698(3) 0.0419(5)
N8 N 0.1454(2) 0.2490(2) 0.3487(5)
C8 C 0.1498(3) 0.2721(3) 0.2724(5)
N9 N 0.2636(2) 0.3028(3) 0.4252(5)
N11 N 0.1522(3) 0.1394(3) 0.3648(5)
C10 C 0.0784(3) 0.2868(3) 0.1314(5)
C11 C 0.2093(3) 0.2865(3) 0.0716(5)
C12 C 0.1581(4) 0.1444(4) 0.2540(7)
H7 H 0.1365 0.1573 0.2258
H8 H 0.1473 0.1107 0.2229
C13 C 0.1319(3) 0.1863(3) 0.6405(6)
C14 C 0.2076(3) 0.3194(4) 0.7566(6)
H9 H 0.2106 0.3381 0.8171
C16 C 0.2830(3) 0.2665(4) 0.2726(6)
H11 H 0.2960 0.2742 0.2013
H12 H 0.3008 0.2513 0.3088
C17 C 0.1685(3) 0.2412(3) 0.6603(5)
N12 N 0.2291(3) 0.2310(3) 0.2717(5)
C21 C 0.2939(3) 0.3164(3) 0.3276(6)
H19 H 0.3306 0.3372 0.3433
H20 H 0.2842 0.3364 0.2825
C22 C 0.2137(4) 0.1810(4) 0.2278(6)
H21 H 0.2353 0.1680 0.2558
H22 H 0.2181 0.1839 0.1523
C26 C 0.1719(3) 0.2679(4) 0.7520(6)
H29 H 0.1503 0.2511 0.8087
C27 C 0.3009(4) 0.3928(3) 0.4784(7)
H30 H 0.3327 0.4040 0.5160
H31 H 0.2832 0.4097 0.5067
H32 H 0.3085 0.4017 0.4057
C28 C 0.2675(3) 0.3360(3) 0.4889(6)
C29 C 0.1154(3) 0.2451(3) 0.0325(7)
C30 C 0.1001(4) 0.1145(4) 0.4015(8)
H33 H 0.0823 0.0786 0.3791
H34 H 0.0824 0.1312 0.3709
N13 N 0.1434(3) 0.3989(3) 0.2617(5)
N14 N 0.1316(2) 0.1702(2) 0.5477(5)
C32 C 0.1491(3) 0.3692(3) 0.2162(5)
C33 C 0.2392(3) 0.3437(3) 0.6732(6)
H35 H 0.2634 0.3790 0.6758
C34 C 0.0999(4) 0.1525(4) 0.7293(8)
H36 H 0.0642 0.1332 0.7084
H37 H 0.1033 0.1738 0.7887
H38 H 0.1117 0.1289 0.7478
N16 N 0.0353(2) 0.2718(2) 0.1314(4)
C36 C 0.0977(4) 0.1167(3) 0.5193(8)
H41 H 0.0625 0.1052 0.5421
H42 H 0.1093 0.0947 0.5513
N17 N 0.2773(2) 0.4118(2) 0.1652(5)
C37 C 0.2364(3) 0.3756(3) 0.1595(5)
Mn4 Mn 0.35921(6) 0.46992(4) 0.10209(8)
N19 N 0.2549(2) 0.1988(3) 0.4985(5)
H44 H 0.169083 0.119156 0.390948
H45 H 0.0870571 0.360165 0.0375911
H46 H 0.212535 0.247016 0.22707
H6 H 0.9990 0.3195 0.0178
Mn3 Mn 0.95607(6) 0.21272(4) 0.17966(7)
N11_2 N 0.8606(3) 0.0128(4) 0.3648(5)
C12_2 C 0.8556(4) 0.0137(6) 0.2540(7)
H8_2 H 0.8893 0.0366 0.2229
C16_2 C 0.7335(4) 0.0165(5) 0.2726(6)
H11_2 H 0.7258 0.0218 0.2013
H12_2 H 0.7487 0.0495 0.3088
C22_2 C 0.8190(4) 0.0327(6) 0.2278(6)
H21_2 H 0.8320 0.0673 0.2558
H22_2 H 0.8161 0.0342 0.1523
H33_2 H 0.9214 0.0037 0.3791
H42_2 H 0.9053 0.0146 0.5513
N19_2 N 0.8012(3) 0.0560(4) 0.4985(5)
H44_2 H 0.880844 0.0499272 0.390948
Mo1_2 Mo 0.68727(2) 0.845917(28) 0.12772(4)
Mn2_2 Mn 0.77737(4) 0.97412(6) 0.43542(8)
C1_2 C 0.5360(3) 0.6620(4) 0.0568(6)
H1_2 H 0.5084 0.6352 0.0988
H2_2 H 0.5463 0.6953 0.0886
C2_2 C 0.6849(3) 0.9195(4) 0.5851(6)
C3_2 C 0.5820(3) 0.6530(4) 0.0535(6)
H3_2 H 0.5940 0.6528 0.1241
H4_2 H 0.5719 0.6198 0.0214
N2_2 N 0.7341(2) 0.9345(3) 0.5804(4)
N4_2 N 0.7302(3) 0.9645(4) 0.0419(5)
N8_2 N 0.7510(2) 0.8964(3) 0.3487(5)
C8_2 C 0.7279(3) 0.8777(4) 0.2724(5)
N9_2 N 0.6972(3) 0.9608(4) 0.4252(5)
H6_2 H 0.6805 0.6795 0.0178
C10_2 C 0.7132(3) 0.7916(4) 0.1314(5)
C11_2 C 0.7135(3) 0.9228(4) 0.0716(5)
H7_2 H 0.8427 0.9792 0.2258
C13_2 C 0.8137(3) 0.9456(4) 0.6405(6)
C14_2 C 0.6806(4) 0.8882(5) 0.7566(6)
H9_2 H 0.6619 0.8725 0.8171
C17_2 C 0.7588(3) 0.9273(4) 0.6603(5)
N12_2 N 0.7690(3) 0.9981(4) 0.2717(5)
C21_2 C 0.6836(3) 0.9775(4) 0.3276(6)
H19_2 H 0.6628 0.9934 0.3433
H20_2 H 0.6636 0.9478 0.2825
C26_2 C 0.7321(4) 0.9040(5) 0.7520(6)
H29_2 H 0.7489 0.8992 0.8087
C27_2 C 0.6072(3) 0.9081(5) 0.4784(7)
H30_2 H 0.5960 0.9287 0.5160
H31_2 H 0.5903 0.8735 0.5067
H32_2 H 0.5983 0.9068 0.4057
C28_2 C 0.6640(3) 0.9315(4) 0.4889(6)
C29_2 C 0.7549(3) 0.8703(4) 0.0325(7)
C30_2 C 0.8855(4) 0.9856(6) 0.4015(8)
H34_2 H 0.8688 0.9512 0.3709
N13_2 N 0.6011(3) 0.7445(4) 0.2617(5)
N14_2 N 0.8298(2) 0.9614(3) 0.5477(5)
C32_2 C 0.6308(3) 0.7799(4) 0.2162(5)
C33_2 C 0.6563(3) 0.8955(4) 0.6732(6)
H35_2 H 0.6210 0.8844 0.6758
C34_2 C 0.8475(4) 0.9474(6) 0.7293(8)
H36_2 H 0.8668 0.9310 0.7084
H37_2 H 0.8262 0.9295 0.7887
H38_2 H 0.8711 0.9828 0.7478
N16_2 N 0.7282(2) 0.7635(3) 0.1314(4)
C36_2 C 0.8833(3) 0.9810(5) 0.5193(8)
H41_2 H 0.8948 0.9573 0.5421
N17_2 N 0.5882(2) 0.8655(3) 0.1652(5)
C37_2 C 0.6244(3) 0.8608(4) 0.1595(5)
Mn3_2 Mn 0.78728(4) 0.74334(7) 0.17966(7)
Mn4_2 Mn 0.53008(4) 0.88930(7) 0.10209(8)
H45_2 H 0.639835 0.726892 0.0375911
H46_2 H 0.752984 0.965519 0.22707
Mn1 Mn 0.58999(4) 0.71060(6) 0.84633(7)
N1 N 0.5177(2) 0.6606(4) 0.9517(5)
N3 N 0.6744(2) 0.7386(3) 0.8124(4)
C4 C 0.5237(3) 0.7198(4) 0.6703(6)
C5 C 0.6971(3) 0.7696(4) 0.7351(5)
C6 C 0.6408(3) 0.8086(4) 0.9947(5)
N5 N 0.6131(2) 0.7492(3) 0.6874(4)
N6 N 0.6138(2) 0.7853(3) 0.9280(4)
N7 N 0.5208(2) 0.7069(3) 0.7650(5)
C7 C 0.5769(3) 0.7479(4) 0.6254(6)
N10 N 0.6231(2) 0.6943(3) 0.9930(4)
C9 C 0.6632(3) 0.6840(4) 0.9577(6)
H5 H 0.6477 0.6521 0.9173
C15 C 0.6775(3) 0.7982(4) 0.5646(6)
H10 H 0.7123 0.8160 0.5456
C18 C 0.7022(3) 0.7282(4) 0.8913(6)
H13 H 0.7222 0.7587 0.9343
H14 H 0.7258 0.7188 0.8588
C19 C 0.6404(4) 0.7968(5) 0.4987(6)
H15 H 0.6498 0.8133 0.4340
C20 C 0.7540(3) 0.7964(4) 0.7167(7)
H16 H 0.7719 0.8107 0.7815
H17 H 0.7635 0.8238 0.6667
H18 H 0.7633 0.7719 0.6902
C23 C 0.4718(3) 0.6783(4) 0.8183(6)
H23 H 0.4533 0.6427 0.7935
H24 H 0.4506 0.6940 0.8051
C24 C 0.5892(4) 0.7707(5) 0.5290(6)
H25 H 0.5635 0.7687 0.4846
C25 C 0.4794(4) 0.7083(6) 0.5998(8)
H26 H 0.4489 0.6777 0.6241
H27 H 0.4874 0.7026 0.5299
H28 H 0.4733 0.7370 0.5999
C31 C 0.6624(3) 0.7729(4) 0.6597(5)
N15 N 0.7900(3) 0.8819(4) 0.9802(7)
C35 C 0.4829(3) 0.6796(4) 0.9342(6)
H39 H 0.4982 0.7149 0.9600
H40 H 0.4508 0.6583 0.9720
N18 N 0.5698(3) 0.6314(4) 0.7981(4)
H43 H 0.500454 0.623393 0.925918
H6_3 H 0.3205 0.0010 0.0178
Mn3_3 Mn 0.25666(7) 0.04393(6) 0.17966(7)
N11_3 N 0.9872(4) 0.8478(3) 0.3648(5)
C12_3 C 0.9863(6) 0.8419(4) 0.2540(7)
H8_3 H 0.9634 0.8527 0.2229
C16_3 C 0.9835(5) 0.7170(3) 0.2726(6)
H11_3 H 0.9782 0.7040 0.2013
H12_3 H 0.9505 0.6992 0.3088
C22_3 C 0.9673(6) 0.7863(4) 0.2278(6)
H21_3 H 0.9327 0.7647 0.2558
H22_3 H 0.9658 0.7819 0.1523
H33_3 H 0.9963 0.9177 0.3791
H42_3 H 0.9854 0.8907 0.5513
N19_3 N 0.9440(4) 0.7451(2) 0.4985(5)
H44_3 H 0.950073 0.830917 0.390948
Mo1_3 Mo 0.825314(19) 0.64606(2) 0.46105(4)
Mn2_3 Mn 0.86342(4) 0.55596(4) 0.76875(8)
N1_2 N 0.8096(3) 0.8156(2) 0.2850(5)
C1_3 C 0.7927(3) 0.7973(3) 0.3901(6)
H1_3 H 0.7935 0.8249 0.4321
H2_3 H 0.8157 0.7870 0.4219
C2_3 C 0.9013(3) 0.6484(3) 0.9184(6)
C3_3 C 0.7377(3) 0.7513(3) 0.3868(6)
H3_3 H 0.7255 0.7393 0.4574
H4_3 H 0.7146 0.7614 0.3547
N2_3 N 0.8671(2) 0.5992(2) 0.9137(4)
N3_2 N 0.7309(2) 0.6589(2) 0.1457(4)
C4_2 C 0.8628(3) 0.8096(3) 0.0036(6)
C5_2 C 0.7392(3) 0.6362(3) 0.0684(5)
C6_2 C 0.8345(2) 0.6925(3) 0.3280(5)
N4_3 N 0.9010(3) 0.6031(3) 0.3752(5)
N5_2 N 0.8028(2) 0.7202(2) 0.0207(4)
N6_2 N 0.8382(2) 0.7195(2) 0.2613(4)
N7_2 N 0.8528(2) 0.8125(2) 0.0983(5)
N8_3 N 0.8121(2) 0.5823(2) 0.6820(5)
C8_3 C 0.8165(3) 0.6054(3) 0.6057(5)
N9_3 N 0.9303(2) 0.6361(3) 0.7585(5)
N10_2 N 0.7379(2) 0.7102(2) 0.3263(4)
N11_4 N 0.8189(3) 0.4727(3) 0.6981(5)
C9_2 C 0.6875(3) 0.6701(3) 0.2910(6)
H5_2 H 0.6711 0.6856 0.2506
H6_4 H 0.6657 0.6528 0.3511
C10_3 C 0.7451(3) 0.6201(3) 0.4647(5)
C11_3 C 0.8760(3) 0.6198(3) 0.4049(5)
C12_4 C 0.8248(4) 0.4777(4) 0.5873(7)
H7_3 H 0.8032 0.4906 0.5591
H8_4 H 0.8140 0.4440 0.5562
C13_3 C 0.7986(3) 0.5196(3) 0.9738(6)
C16_4 C 0.9497(3) 0.5998(4) 0.6059(6)
H11_4 H 0.9627 0.6075 0.5346
H12_4 H 0.9675 0.5846 0.6421
C17_3 C 0.8352(3) 0.5745(3) 0.9936(5)
C18_2 C 0.6927(3) 0.6311(3) 0.2246(6)
H13_2 H 0.7032 0.6111 0.2676
H14_2 H 0.6597 0.6075 0.1921
N12_3 N 0.8958(3) 0.5643(3) 0.6050(5)
C20_2 C 0.7091(3) 0.5793(3) 0.0500(7)
H16_2 H 0.7055 0.5614 0.1148
H17_2 H 0.7270 0.5698 0.0000
H18_2 H 0.6753 0.5700 0.0235
C21_3 C 0.9606(3) 0.6497(3) 0.6609(6)
H19_3 H 0.9973 0.6705 0.6766
H20_3 H 0.9509 0.6697 0.6158
C22_4 C 0.8804(4) 0.5143(4) 0.5611(6)
H21_4 H 0.9020 0.5013 0.5891
H22_4 H 0.8848 0.5172 0.4856
C23_2 C 0.8732(3) 0.8615(3) 0.1516(6)
H23_2 H 0.8561 0.8800 0.1268
H24_2 H 0.9101 0.8827 0.1384
C27_3 C 0.9676(4) 0.7261(3) 0.8117(7)
H30_3 H 0.9994 0.7373 0.8493
H31_3 H 0.9499 0.7430 0.8400
H32_3 H 0.9752 0.7350 0.7390
C28_3 C 0.9342(3) 0.6693(3) 0.8222(6)
C29_3 C 0.7821(3) 0.5784(3) 0.3658(7)
C30_3 C 0.7668(4) 0.4478(4) 0.7348(8)
H33_4 H 0.7490 0.4119 0.7124
H34_3 H 0.7491 0.4645 0.7042
N13_3 N 0.8101(3) 0.7322(3) 0.5950(5)
N14_3 N 0.7983(2) 0.5035(2) 0.8810(5)
N15_2 N 0.7586(3) 0.5433(3) 0.3135(7)
C32_3 C 0.8158(3) 0.7025(3) 0.5495(5)
N16_3 N 0.7020(2) 0.6051(2) 0.4647(4)
C35_2 C 0.8634(3) 0.8504(3) 0.2675(6)
H39_2 H 0.8834 0.8351 0.2933
H40_2 H 0.8742 0.8825 0.3053
C36_3 C 0.7644(4) 0.4500(3) 0.8526(8)
H41_3 H 0.7292 0.4385 0.8754
H42_4 H 0.7760 0.4280 0.8846
C37_3 C 0.9031(3) 0.7089(3) 0.4928(5)
Mn3_4 Mn 0.62273(6) 0.54606(4) 0.51300(7)
N19_4 N 0.9215(2) 0.5322(3) 0.8319(5)
H43_2 H 0.789605 0.832879 0.259251
H44_4 H 0.835749 0.452489 0.724281
H45_3 H 0.753724 0.693498 0.370924
H46_3 H 0.879201 0.580349 0.560403
Mo1_4 Mo 0.35394(2) 0.179250(28) 0.46105(4)
Mn2_4 Mn 0.44404(4) 0.30745(6) 0.76875(8)
H2_4 H 0.2130 0.0286 0.4219
C2_4 C 0.3516(3) 0.2528(4) 0.9184(6)
N2_4 N 0.4008(2) 0.2678(3) 0.9137(4)
N3_3 N 0.3411(2) 0.0719(3) 0.1457(4)
C4_3 C 0.1904(3) 0.0531(4) 0.0036(6)
C5_3 C 0.3638(3) 0.1029(4) 0.0684(5)
C6_3 C 0.3075(3) 0.1419(4) 0.3280(5)
N4_4 N 0.3969(3) 0.2978(4) 0.3752(5)
N5_3 N 0.2798(2) 0.0825(3) 0.0207(4)
N6_3 N 0.2805(2) 0.1186(3) 0.2613(4)
N7_3 N 0.1875(2) 0.0402(3) 0.0983(5)
N8_4 N 0.4177(2) 0.2297(3) 0.6820(5)
C8_4 C 0.3946(3) 0.2110(4) 0.6057(5)
N9_4 N 0.3639(3) 0.2941(4) 0.7585(5)
N10_3 N 0.2898(2) 0.0276(3) 0.3263(4)
N11_5 N 0.5273(3) 0.3461(4) 0.6981(5)
C9_3 C 0.3299(3) 0.0173(4) 0.2910(6)
H6_5 H 0.3472 0.0128 0.3511
C10_4 C 0.3799(3) 0.1249(4) 0.4647(5)
C11_4 C 0.3802(3) 0.2561(4) 0.4049(5)
C12_5 C 0.5223(4) 0.3470(6) 0.5873(7)
H7_4 H 0.5094 0.3125 0.5591
H8_5 H 0.5560 0.3699 0.5562
C13_4 C 0.4804(3) 0.2789(4) 0.9738(6)
C16_5 C 0.4002(4) 0.3498(5) 0.6059(6)
H11_5 H 0.3925 0.3551 0.5346
H12_5 H 0.4154 0.3828 0.6421
C17_4 C 0.4255(3) 0.2606(4) 0.9936(5)
C18_3 C 0.3689(3) 0.0615(4) 0.2246(6)
H13_3 H 0.3889 0.0920 0.2676
H14_3 H 0.3925 0.0521 0.1921
N12_4 N 0.4357(3) 0.3314(4) 0.6050(5)
C20_3 C 0.4207(3) 0.1297(4) 0.0500(7)
H16_3 H 0.4386 0.1440 0.1148
H17_3 H 0.4302 0.1571 0.0000
H18_3 H 0.4300 0.1052 0.0235
C21_4 C 0.3503(3) 0.3108(4) 0.6609(6)
H19_4 H 0.3295 0.3267 0.6766
H20_4 H 0.3303 0.2811 0.6158
C22_5 C 0.4857(4) 0.3660(6) 0.5611(6)
H21_5 H 0.4987 0.4006 0.5891
H22_5 H 0.4828 0.3675 0.4856
C23_3 C 0.1385(3) 0.0116(4) 0.1516(6)
H24_3 H 0.1173 0.0273 0.1384
C27_4 C 0.2739(3) 0.2414(5) 0.8117(7)
H30_4 H 0.2627 0.2620 0.8493
H31_4 H 0.2570 0.2068 0.8400
H32_4 H 0.2650 0.2401 0.7390
C28_4 C 0.3307(3) 0.2648(4) 0.8222(6)
C29_4 C 0.4216(3) 0.2036(4) 0.3658(7)
C30_4 C 0.5522(4) 0.3189(6) 0.7348(8)
H33_5 H 0.5881 0.3370 0.7124
H34_4 H 0.5355 0.2845 0.7042
N13_4 N 0.2678(3) 0.0778(4) 0.5950(5)
N14_4 N 0.4965(2) 0.2947(3) 0.8810(5)
N15_3 N 0.4567(3) 0.2152(4) 0.3135(7)
C32_4 C 0.2975(3) 0.1132(4) 0.5495(5)
N16_4 N 0.3949(2) 0.0968(3) 0.4647(4)
C35_3 C 0.1496(3) 0.0129(4) 0.2675(6)
H39_3 H 0.1649 0.0482 0.2933
C36_4 C 0.5500(3) 0.3143(5) 0.8526(8)
H41_4 H 0.5615 0.2906 0.8754
H42_5 H 0.5720 0.3479 0.8846
C37_4 C 0.2911(3) 0.1941(4) 0.4928(5)
Mn3_5 Mn 0.45394(4) 0.07668(7) 0.51300(7)
N19_5 N 0.4678(3) 0.3894(4) 0.8319(5)
H44_5 H 0.547511 0.383261 0.724281
H45_4 H 0.306502 0.0602255 0.370924
H46_4 H 0.419651 0.298852 0.560403
N1_3 N 0.0061(4) 0.1904(3) 0.2850(5)
C1_4 C 0.0047(4) 0.2073(3) 0.3901(6)
H1_4 H 0.0315 0.2065 0.4321
C3_4 C 0.0137(4) 0.2623(3) 0.3868(6)
H3_4 H 0.0139 0.2745 0.4574
H4_4 H 0.0469 0.2854 0.3547
H5_3 H 0.0146 0.3289 0.2506
H23_3 H 0.0240 0.1439 0.1268
H40_3 H 0.0084 0.1258 0.3053
H43_3 H 0.043274 0.210395 0.259251
Mo1_5 Mo 0.820750(28) 0.174686(19) 0.46105(4)
Mn2_5 Mn 0.69255(6) 0.13658(4) 0.76875(8)
H2_5 H 0.9714 0.1843 0.4219
C2_5 C 0.7472(4) 0.0987(3) 0.9184(6)
N2_5 N 0.7322(3) 0.1329(2) 0.9137(4)
N3_4 N 0.9281(3) 0.2691(2) 0.1457(4)
C4_4 C 0.9469(4) 0.1372(3) 0.0036(6)
C5_4 C 0.8971(4) 0.2608(3) 0.0684(5)
C6_4 C 0.8581(4) 0.1655(2) 0.3280(5)
N4_5 N 0.7022(4) 0.0990(3) 0.3752(5)
N5_4 N 0.9175(3) 0.1972(2) 0.0207(4)
N6_4 N 0.8814(3) 0.1618(2) 0.2613(4)
N7_4 N 0.9598(3) 0.1472(2) 0.0983(5)
N8_5 N 0.7703(3) 0.1879(2) 0.6820(5)
C8_5 C 0.7890(4) 0.1835(3) 0.6057(5)
N9_5 N 0.7059(4) 0.0697(2) 0.7585(5)
N10_4 N 0.9724(3) 0.2621(2) 0.3263(4)
N11_6 N 0.6539(4) 0.1811(3) 0.6981(5)
C9_4 C 0.9827(4) 0.3125(3) 0.2910(6)
H6_6 H 0.9872 0.3343 0.3511
C10_5 C 0.8751(4) 0.2549(3) 0.4647(5)
C11_5 C 0.7439(4) 0.1240(3) 0.4049(5)
C12_6 C 0.6530(6) 0.1752(4) 0.5873(7)
H7_5 H 0.6875 0.1968 0.5591
H8_6 H 0.6301 0.1860 0.5562
C13_5 C 0.7211(4) 0.2014(3) 0.9738(6)
C16_6 C 0.6502(5) 0.0503(3) 0.6059(6)
H11_6 H 0.6449 0.0373 0.5346
H12_6 H 0.6172 0.0325 0.6421
C17_5 C 0.7394(4) 0.1648(3) 0.9936(5)
C18_4 C 0.9385(4) 0.3073(3) 0.2246(6)
H13_4 H 0.9080 0.2968 0.2676
H14_4 H 0.9479 0.3403 0.1921
N12_5 N 0.6686(4) 0.1042(3) 0.6050(5)
C20_4 C 0.8703(4) 0.2909(3) 0.0500(7)
H16_4 H 0.8560 0.2945 0.1148
H17_4 H 0.8429 0.2730 0.0000
H18_4 H 0.8948 0.3247 0.0235
C21_5 C 0.6892(4) 0.0394(3) 0.6609(6)
H19_5 H 0.6733 0.0027 0.6766
H20_5 H 0.7189 0.0491 0.6158
C22_6 C 0.6340(6) 0.1196(4) 0.5611(6)
H21_6 H 0.5994 0.0980 0.5891
H22_6 H 0.6325 0.1152 0.4856
C23_4 C 0.9884(4) 0.1268(3) 0.1516(6)
H24_4 H 0.9727 0.0899 0.1384
C27_5 C 0.7586(5) 0.0324(4) 0.8117(7)
H30_5 H 0.7380 0.0006 0.8493
H31_5 H 0.7932 0.0501 0.8400
H32_5 H 0.7599 0.0248 0.7390
C28_5 C 0.7352(4) 0.0658(3) 0.8222(6)
C29_5 C 0.7964(4) 0.2179(3) 0.3658(7)
C30_5 C 0.6811(6) 0.2332(4) 0.7348(8)
H33_6 H 0.6630 0.2510 0.7124
H34_5 H 0.7155 0.2509 0.7042
N13_5 N 0.9222(4) 0.1899(3) 0.5950(5)
N14_5 N 0.7053(3) 0.2017(2) 0.8810(5)
N15_4 N 0.7848(4) 0.2414(3) 0.3135(7)
C32_5 C 0.8868(4) 0.1842(3) 0.5495(5)
N16_5 N 0.9032(3) 0.2980(2) 0.4647(4)
C35_4 C 0.9871(4) 0.1366(3) 0.2675(6)
H39_4 H 0.9518 0.1166 0.2933
C36_5 C 0.6857(5) 0.2356(4) 0.8526(8)
H41_5 H 0.7094 0.2708 0.8754
H42_6 H 0.6521 0.2240 0.8846
C37_5 C 0.8059(4) 0.0969(3) 0.4928(5)
Mn3_6 Mn 0.92332(7) 0.37727(6) 0.51300(7)
N19_6 N 0.6106(4) 0.0785(2) 0.8319(5)
H44_6 H 0.616739 0.164251 0.724281
H45_5 H 0.939774 0.246276 0.370924
H46_5 H 0.701148 0.120799 0.560403
N1_4 N 0.4762(3) 0.1490(2) 0.6184(5)
C1_5 C 0.4593(3) 0.1307(3) 0.7235(6)
H1_5 H 0.4601 0.1583 0.7655
H2_6 H 0.4823 0.1204 0.7553
C3_5 C 0.4043(3) 0.0847(3) 0.7202(6)
H3_5 H 0.3921 0.0727 0.7908
H4_5 H 0.3812 0.0948 0.6881
C4_5 C 0.5294(3) 0.1430(3) 0.3370(6)
C6_5 C 0.5011(2) 0.0259(3) 0.6614(5)
N5_5 N 0.4694(2) 0.0536(2) 0.3541(4)
N6_5 N 0.5048(2) 0.0529(2) 0.5947(4)
N7_5 N 0.5194(2) 0.1459(2) 0.4317(5)
C7_2 C 0.5043(3) 0.0898(3) 0.2921(6)
N10_5 N 0.4045(2) 0.0436(2) 0.6597(4)
C9_5 C 0.3541(3) 0.0035(3) 0.6244(6)
H5_4 H 0.3377 0.0190 0.5840
C19_2 C 0.4897(3) 0.0263(4) 0.1654(6)
H15_2 H 0.4968 0.0169 0.1007
H20_6 H 0.6175 0.0031 0.9492
C23_5 C 0.5398(3) 0.1949(3) 0.4850(6)
H23_4 H 0.5227 0.2134 0.4602
H24_5 H 0.5767 0.2161 0.4718
C24_2 C 0.5148(3) 0.0775(4) 0.1957(6)
H25_2 H 0.5385 0.1032 0.1513
C25_2 C 0.5622(4) 0.1873(4) 0.2665(8)
H26_2 H 0.5621 0.2178 0.2908
H27_2 H 0.5485 0.1793 0.1966
H28_2 H 0.5970 0.1934 0.2666
N13_6 N 0.4767(3) 0.0656(3) 0.9284(5)
C31_2 C 0.4438(3) 0.0043(3) 0.3264(5)
C32_6 C 0.4824(3) 0.0359(3) 0.8829(5)
C35_5 C 0.5300(3) 0.1838(3) 0.6009(6)
H39_5 H 0.5500 0.1685 0.6267
H40_4 H 0.5408 0.2159 0.6387
C37_6 C 0.5697(3) 0.0423(3) 0.8262(5)
H43_4 H 0.456272 0.166212 0.592585
H45_6 H 0.42039 0.0268316 0.704258
C2_6 C 0.5679(3) 0.9818(3) 0.2518(6)
N2_6 N 0.5337(2) 0.9326(2) 0.2471(4)
N8_6 N 0.4787(2) 0.9157(2) 0.0154(5)
N9_6 N 0.5969(2) 0.9695(3) 0.0919(5)
N11_7 N 0.4855(3) 0.8061(3) 0.0315(5)
C13_6 C 0.4652(3) 0.8530(3) 0.3072(6)
C14_3 C 0.5409(3) 0.9861(4) 0.4233(6)
C17_6 C 0.5018(3) 0.9079(3) 0.3270(5)
C26_3 C 0.5052(3) 0.9346(4) 0.4187(6)
H29_3 H 0.4836 0.9178 0.4754
C30_6 C 0.4334(4) 0.7812(4) 0.0682(8)
H33_7 H 0.4156 0.7453 0.0458
H34_6 H 0.4157 0.7979 0.0376
N14_6 N 0.4649(2) 0.8369(2) 0.2144(5)
C34_3 C 0.4332(4) 0.8192(4) 0.3960(8)
H36_3 H 0.3975 0.7999 0.3751
H37_3 H 0.4366 0.8405 0.4554
H38_3 H 0.4450 0.7956 0.4145
C36_6 C 0.4310(4) 0.7834(3) 0.1860(8)
H41_6 H 0.3958 0.7719 0.2088
H42_7 H 0.4426 0.7614 0.2180
H44_7 H 0.502416 0.785822 0.0576143
N1_5 N 0.8510(2) 0.3273(4) 0.6184(5)
C1_6 C 0.8693(3) 0.3287(4) 0.7235(6)
H1_6 H 0.8417 0.3019 0.7655
H2_7 H 0.8796 0.3620 0.7553
C3_6 C 0.9153(3) 0.3197(4) 0.7202(6)
H3_6 H 0.9273 0.3195 0.7908
H4_6 H 0.9052 0.2865 0.6881
C4_6 C 0.8570(3) 0.3865(4) 0.3370(6)
C6_6 C 0.9741(3) 0.4753(4) 0.6614(5)
N5_6 N 0.9464(2) 0.4159(3) 0.3541(4)
N6_6 N 0.9471(2) 0.4520(3) 0.5947(4)
N7_6 N 0.8541(2) 0.3736(3) 0.4317(5)
C7_3 C 0.9102(3) 0.4146(4) 0.2921(6)
N10_6 N 0.9564(2) 0.3610(3) 0.6597(4)
C9_6 C 0.9965(3) 0.3507(4) 0.6244(6)
H5_5 H 0.9810 0.3188 0.5840
C19_3 C 0.9737(4) 0.4635(5) 0.1654(6)
H15_3 H 0.9831 0.4800 0.1007
H20_7 H 0.9969 0.6145 0.9492
C23_6 C 0.8051(3) 0.3450(4) 0.4850(6)
H23_5 H 0.7866 0.3094 0.4602
H24_6 H 0.7839 0.3607 0.4718
C24_3 C 0.9225(4) 0.4374(5) 0.1957(6)
H25_3 H 0.8968 0.4354 0.1513
C25_3 C 0.8127(4) 0.3750(6) 0.2665(8)
H26_3 H 0.7822 0.3444 0.2908
H27_3 H 0.8207 0.3693 0.1966
H28_3 H 0.8066 0.4037 0.2666
N13_7 N 0.9344(3) 0.4112(4) 0.9284(5)
C31_3 C 0.9957(3) 0.4396(4) 0.3264(5)
C32_7 C 0.9641(3) 0.4466(4) 0.8829(5)
C35_6 C 0.8162(3) 0.3463(4) 0.6009(6)
H39_6 H 0.8315 0.3816 0.6267
H40_5 H 0.7841 0.3250 0.6387
C37_7 C 0.9577(3) 0.5275(4) 0.8262(5)
H43_5 H 0.833788 0.290059 0.592585
H45_7 H 0.973168 0.393559 0.704258
C2_7 C 0.4138(4) 0.4321(3) 0.2518(6)
N2_7 N 0.3988(3) 0.4663(2) 0.2471(4)
N8_7 N 0.4369(3) 0.5213(2) 0.0154(5)
N9_7 N 0.3725(4) 0.4031(2) 0.0919(5)
N11_8 N 0.3205(4) 0.5145(3) 0.0315(5)
C13_7 C 0.3877(4) 0.5348(3) 0.3072(6)
C14_4 C 0.4451(5) 0.4591(3) 0.4233(6)
H9_3 H 0.4608 0.4561 0.4838
C17_7 C 0.4060(4) 0.4982(3) 0.3270(5)
H19_6 H 0.3399 0.3361 0.0100
C26_4 C 0.4293(5) 0.4948(3) 0.4187(6)
H29_4 H 0.4341 0.5164 0.4754
C27_6 C 0.4252(5) 0.3658(4) 0.1451(7)
H30_6 H 0.4046 0.3340 0.1827
H31_6 H 0.4598 0.3835 0.1734
H32_6 H 0.4265 0.3582 0.0724
C28_6 C 0.4018(4) 0.3992(3) 0.1556(6)
C30_7 C 0.3477(6) 0.5666(4) 0.0682(8)
H33_8 H 0.3296 0.5844 0.0458
H34_7 H 0.3821 0.5843 0.0376
N14_7 N 0.3719(3) 0.5351(2) 0.2144(5)
C33_3 C 0.4378(4) 0.4275(3) 0.3399(6)
H35_3 H 0.4489 0.4033 0.3425
C34_4 C 0.3859(6) 0.5668(4) 0.3960(8)
H36_4 H 0.4023 0.6025 0.3751
H37_4 H 0.4038 0.5634 0.4554
H38_4 H 0.3505 0.5550 0.4145
C36_7 C 0.3523(5) 0.5690(4) 0.1860(8)
H41_7 H 0.3760 0.6042 0.2088
H42_8 H 0.3187 0.5574 0.2180
H44_8 H 0.283406 0.497584 0.0576143
Mo1_6 Mo 0.487416(28) 0.508020(19) 0.79439(4)
N1_6 N 0.6727(4) 0.5238(3) 0.6184(5)
C1_7 C 0.6713(4) 0.5407(3) 0.7235(6)
H1_7 H 0.6981 0.5399 0.7655
H2_8 H 0.6380 0.5177 0.7553
C3_7 C 0.6803(4) 0.5957(3) 0.7202(6)
H3_7 H 0.6805 0.6079 0.7908
H4_7 H 0.7135 0.6188 0.6881
N3_5 N 0.5947(3) 0.6025(2) 0.4791(4)
C4_7 C 0.6135(4) 0.4706(3) 0.3370(6)
C5_5 C 0.5637(4) 0.5942(3) 0.4018(5)
C6_7 C 0.5247(4) 0.4989(2) 0.6614(5)
N4_6 N 0.3688(4) 0.4324(3) 0.7086(5)
N5_7 N 0.5841(3) 0.5306(2) 0.3541(4)
N6_7 N 0.5480(3) 0.4952(2) 0.5947(4)
N7_7 N 0.6264(3) 0.4806(2) 0.4317(5)
C7_4 C 0.5854(4) 0.4957(3) 0.2921(6)
C8_6 C 0.4556(4) 0.5169(3) 0.9391(5)
N10_7 N 0.6390(3) 0.5955(2) 0.6597(4)
C9_7 C 0.6493(4) 0.6459(3) 0.6244(6)
H5_6 H 0.6812 0.6623 0.5840
H6_7 H 0.6538 0.6677 0.6845
C10_6 C 0.5417(4) 0.5883(3) 0.7981(5)
C11_6 C 0.4105(4) 0.4574(3) 0.7383(5)
C12_7 C 0.3196(6) 0.5086(4) 0.9207(7)
H7_6 H 0.3541 0.5302 0.8925
H8_7 H 0.2967 0.5194 0.8896
C15_2 C 0.5351(4) 0.5460(3) 0.2313(6)
H10_2 H 0.5173 0.5630 0.2123
C16_7 C 0.3168(5) 0.3837(3) 0.9393(6)
H11_7 H 0.3115 0.3707 0.8680
H12_7 H 0.2838 0.3659 0.9755
C18_5 C 0.6051(4) 0.6407(3) 0.5580(6)
H13_5 H 0.5746 0.6302 0.6010
H14_5 H 0.6145 0.6737 0.5255
C19_4 C 0.5365(5) 0.5103(3) 0.1654(6)
H15_4 H 0.5200 0.5032 0.1007
N12_6 N 0.3352(4) 0.4376(3) 0.9384(5)
C20_5 C 0.5369(4) 0.6243(3) 0.3834(7)
H16_5 H 0.5226 0.6279 0.4482
H17_5 H 0.5095 0.6064 0.3334
H18_5 H 0.5614 0.6581 0.3569
C21_6 C 0.3558(4) 0.3728(3) 0.9943(6)
H20_8 H 0.3855 0.3825 0.9492
C22_7 C 0.3006(6) 0.4530(4) 0.8945(6)
H21_7 H 0.2660 0.4314 0.9225
H22_7 H 0.2991 0.4486 0.8190
C23_7 C 0.6550(4) 0.4602(3) 0.4850(6)
H23_6 H 0.6906 0.4773 0.4602
H24_7 H 0.6393 0.4233 0.4718
C24_4 C 0.5626(5) 0.4852(3) 0.1957(6)
H25_4 H 0.5646 0.4615 0.1513
C25_4 C 0.6250(6) 0.4378(4) 0.2665(8)
H26_4 H 0.6556 0.4379 0.2908
H27_4 H 0.6307 0.4515 0.1966
H28_4 H 0.5963 0.4030 0.2666
C29_6 C 0.4630(4) 0.5513(3) 0.6992(7)
N13_8 N 0.5888(4) 0.5233(3) 0.9284(5)
C31_4 C 0.5604(4) 0.5562(3) 0.3264(5)
N15_5 N 0.4514(4) 0.5748(3) 0.6469(7)
C32_8 C 0.5534(4) 0.5176(3) 0.8829(5)
C35_7 C 0.6537(4) 0.4700(3) 0.6009(6)
H39_7 H 0.6184 0.4500 0.6267
H40_6 H 0.6750 0.4592 0.6387
C37_8 C 0.4725(4) 0.4303(3) 0.8262(5)
H43_6 H 0.709941 0.543728 0.592585
H45_8 H 0.606441 0.57961 0.704258
H46_6 H 0.367815 0.454132 0.893736
Mn1_2 Mn 0.12061(4) 0.41001(4) 0.84633(7)
N1_7 N 0.1429(3) 0.4823(2) 0.9517(5)
N3_6 N 0.0642(2) 0.3256(2) 0.8124(4)
C4_8 C 0.1961(3) 0.4763(3) 0.6703(6)
C5_6 C 0.0725(3) 0.3029(3) 0.7351(5)
C6_8 C 0.1678(2) 0.3592(3) 0.9947(5)
N5_8 N 0.1361(2) 0.3869(2) 0.6874(4)
N6_8 N 0.1715(2) 0.3862(2) 0.9280(4)
N7_8 N 0.1861(2) 0.4792(2) 0.7650(5)
C7_5 C 0.1710(3) 0.4231(3) 0.6254(6)
N10_8 N 0.0712(2) 0.3769(2) 0.9930(4)
C9_8 C 0.0208(3) 0.3368(3) 0.9577(6)
H5_7 H 0.0044 0.3523 0.9173
C15_3 C 0.1207(3) 0.3225(3) 0.5646(6)
H10_3 H 0.1037 0.2877 0.5456
C18_6 C 0.0260(3) 0.2978(3) 0.8913(6)
H13_6 H 0.0365 0.2778 0.9343
C19_5 C 0.1564(3) 0.3596(4) 0.4987(6)
H15_5 H 0.1635 0.3502 0.4340
C20_6 C 0.0424(3) 0.2460(3) 0.7167(7)
H16_6 H 0.0388 0.2281 0.7815
H17_6 H 0.0603 0.2365 0.6667
H18_6 H 0.0086 0.2367 0.6902
C23_8 C 0.2065(3) 0.5282(3) 0.8183(6)
H23_7 H 0.1894 0.5467 0.7935
H24_8 H 0.2434 0.5494 0.8051
C24_5 C 0.1815(3) 0.4108(4) 0.5290(6)
H25_5 H 0.2052 0.4365 0.4846
C25_5 C 0.2289(4) 0.5206(4) 0.5998(8)
H26_5 H 0.2288 0.5511 0.6241
H27_5 H 0.2152 0.5126 0.5299
H28_5 H 0.2637 0.5267 0.5999
C31_5 C 0.1105(3) 0.3376(3) 0.6597(5)
N15_6 N 0.0919(3) 0.2100(3) 0.9802(7)
C35_8 C 0.1967(3) 0.5171(3) 0.9342(6)
H39_8 H 0.2167 0.5018 0.9600
H40_7 H 0.2075 0.5492 0.9720
N18_2 N 0.0615(2) 0.4302(3) 0.7981(4)
H43_7 H 0.122938 0.499546 0.925918
Mo1_7 Mo 0.02060(2) 0.512584(28) 0.79439(4)
N3_7 N 0.0077(2) 0.4053(3) 0.4791(4)
C5_7 C 0.0304(3) 0.4363(4) 0.4018(5)
N4_7 N 0.0635(3) 0.6312(4) 0.7086(5)
C8_7 C 0.0612(3) 0.5444(4) 0.9391(5)
H6_8 H 0.0138 0.3462 0.6845
C10_7 C 0.0465(3) 0.4583(4) 0.7981(5)
C11_7 C 0.0468(3) 0.5895(4) 0.7383(5)
C12_8 C 0.1889(4) 0.6804(6) 0.9207(7)
H7_7 H 0.1760 0.6459 0.8925
H8_8 H 0.2226 0.7033 0.8896
C15_4 C 0.0108(3) 0.4649(4) 0.2313(6)
H10_4 H 0.0456 0.4827 0.2123
C16_8 C 0.0668(4) 0.6832(5) 0.9393(6)
H11_8 H 0.0591 0.6885 0.8680
H12_8 H 0.0820 0.7162 0.9755
C18_7 C 0.0355(3) 0.3949(4) 0.5580(6)
H13_7 H 0.0555 0.4254 0.6010
H14_6 H 0.0591 0.3855 0.5255
N12_7 N 0.1023(3) 0.6648(4) 0.9384(5)
C20_7 C 0.0873(3) 0.4631(4) 0.3834(7)
H16_7 H 0.1052 0.4774 0.4482
H17_7 H 0.0968 0.4905 0.3334
H18_7 H 0.0966 0.4386 0.3569
C21_7 C 0.0169(3) 0.6442(4) 0.9943(6)
C22_8 C 0.1523(4) 0.6994(6) 0.8945(6)
H21_8 H 0.1653 0.7340 0.9225
H22_8 H 0.1494 0.7009 0.8190
C29_7 C 0.0882(3) 0.5370(4) 0.6992(7)
N15_7 N 0.1233(3) 0.5486(4) 0.6469(7)
H46_7 H 0.0863173 0.632185 0.893736
H14_7 H 0.9930 0.2742 0.8588
H14_8 H 0.2812 0.0070 0.8588
Mo1_8 Mo 0.154083(28) 0.841353(19) 0.12772(4)
Mn2_6 Mn 0.02588(6) 0.80325(4) 0.43542(8)
C1_8 C 0.3380(4) 0.8740(3) 0.0568(6)
H1_8 H 0.3648 0.8732 0.0988
H2_9 H 0.3047 0.8510 0.0886
C2_8 C 0.0805(4) 0.7654(3) 0.5851(6)
C3_8 C 0.3470(4) 0.9290(3) 0.0535(6)
H3_8 H 0.3472 0.9412 0.1241
H4_8 H 0.3802 0.9521 0.0214
N2_8 N 0.0655(3) 0.7996(2) 0.5804(4)
N4_8 N 0.0355(4) 0.7657(3) 0.0419(5)
N8_8 N 0.1036(3) 0.8546(2) 0.3487(5)
C8_8 C 0.1223(4) 0.8502(3) 0.2724(5)
N9_8 N 0.0392(4) 0.7364(2) 0.4252(5)
C10_8 C 0.2084(4) 0.9216(3) 0.1314(5)
C11_8 C 0.0772(4) 0.7907(3) 0.0716(5)
H7_8 H 0.0208 0.8635 0.2258
C13_8 C 0.0544(4) 0.8681(3) 0.6405(6)
C14_5 C 0.1118(5) 0.7924(3) 0.7566(6)
H9_4 H 0.1275 0.7894 0.8171
C17_8 C 0.0727(4) 0.8315(3) 0.6603(5)
N12_8 N 0.0019(4) 0.7709(3) 0.2717(5)
C21_8 C 0.0225(4) 0.7061(3) 0.3276(6)
H19_7 H 0.0066 0.6694 0.3433
H20_9 H 0.0522 0.7158 0.2825
C26_5 C 0.0960(5) 0.8281(3) 0.7520(6)
H29_5 H 0.1008 0.8497 0.8087
C27_7 C 0.0919(5) 0.6991(4) 0.4784(7)
H30_7 H 0.0713 0.6673 0.5160
H31_7 H 0.1265 0.7168 0.5067
H32_7 H 0.0932 0.6915 0.4057
C28_7 C 0.0685(4) 0.7325(3) 0.4889(6)
C29_8 C 0.1297(4) 0.8846(3) 0.0325(7)
C30_8 C 0.0144(6) 0.8999(4) 0.4015(8)
H34_8 H 0.0488 0.9176 0.3709
N13_9 N 0.2555(4) 0.8566(3) 0.2617(5)
N14_8 N 0.0386(3) 0.8684(2) 0.5477(5)
C32_9 C 0.2201(4) 0.8509(3) 0.2162(5)
C33_4 C 0.1045(4) 0.7608(3) 0.6732(6)
H35_4 H 0.1156 0.7366 0.6758
C34_5 C 0.0526(6) 0.9001(4) 0.7293(8)
H36_5 H 0.0690 0.9358 0.7084
H37_5 H 0.0705 0.8967 0.7887
H38_5 H 0.0172 0.8883 0.7478
N16_6 N 0.2365(3) 0.9647(2) 0.1314(4)
C36_8 C 0.0190(5) 0.9023(4) 0.5193(8)
H41_8 H 0.0427 0.9375 0.5421
N17_3 N 0.1345(3) 0.7227(2) 0.1652(5)
C37_9 C 0.1392(4) 0.7636(3) 0.1595(5)
Mn4_3 Mn 0.11070(7) 0.64079(6) 0.10209(8)
H45_9 H 0.273108 0.912943 0.0375911
H46_8 H 0.0344814 0.787465 0.22707
N1_8 N 0.1844(2) 0.9939(4) 0.2850(5)
C1_9 C 0.2027(3) 0.9953(4) 0.3901(6)
H1_9 H 0.1751 0.9685 0.4321
C3_9 C 0.2487(3) 0.9863(4) 0.3868(6)
H3_9 H 0.2607 0.9861 0.4574
H4_9 H 0.2386 0.9531 0.3547
H5_8 H 0.3144 0.9854 0.2506
H23_8 H 0.1200 0.9760 0.1268
H40_8 H 0.1175 0.9916 0.3053
H43_8 H 0.167121 0.956726 0.259251
C2_9 C 0.0182(3) 0.5862(4) 0.2518(6)
N2_9 N 0.0674(2) 0.6012(3) 0.2471(4)
N8_9 N 0.0843(2) 0.5631(3) 0.0154(5)
N9_9 N 0.0305(3) 0.6275(4) 0.0919(5)
N11_9 N 0.1939(3) 0.6795(4) 0.0315(5)
C13_9 C 0.1470(3) 0.6123(4) 0.3072(6)
C14_6 C 0.0139(4) 0.5549(5) 0.4233(6)
C17_9 C 0.0921(3) 0.5940(4) 0.3270(5)
C26_6 C 0.0654(4) 0.5707(5) 0.4187(6)
H29_6 H 0.0822 0.5659 0.4754
C30_9 C 0.2188(4) 0.6523(6) 0.0682(8)
H33_9 H 0.2547 0.6704 0.0458
H34_9 H 0.2021 0.6179 0.0376
N14_9 N 0.1631(2) 0.6281(3) 0.2144(5)
C34_6 C 0.1808(4) 0.6141(6) 0.3960(8)
H36_6 H 0.2001 0.5977 0.3751
H37_6 H 0.1595 0.5962 0.4554
H38_6 H 0.2044 0.6495 0.4145
C36_9 C 0.2166(3) 0.6477(5) 0.1860(8)
H41_9 H 0.2281 0.6240 0.2088
H42_9 H 0.2386 0.6813 0.2180
H44_9 H 0.214178 0.716594 0.0576143
Mn1_3 Mn 0.28940(6) 0.87939(4) 0.84633(7)
N1_9 N 0.3394(4) 0.8571(3) 0.9517(5)
N3_8 N 0.2614(3) 0.9358(2) 0.8124(4)
C4_9 C 0.2802(4) 0.8039(3) 0.6703(6)
C5_8 C 0.2304(4) 0.9275(3) 0.7351(5)
C6_9 C 0.1914(4) 0.8322(2) 0.9947(5)
N5_9 N 0.2508(3) 0.8639(2) 0.6874(4)
N6_9 N 0.2147(3) 0.8285(2) 0.9280(4)
N7_9 N 0.2931(3) 0.8139(2) 0.7650(5)
C7_6 C 0.2521(4) 0.8290(3) 0.6254(6)
N10_9 N 0.3057(3) 0.9288(2) 0.9930(4)
C9_9 C 0.3160(4) 0.9792(3) 0.9577(6)
H5_9 H 0.3479 0.9956 0.9173
C15_5 C 0.2018(4) 0.8793(3) 0.5646(6)
H10_5 H 0.1840 0.8963 0.5456
C18_8 C 0.2718(4) 0.9740(3) 0.8913(6)
H13_8 H 0.2413 0.9635 0.9343
C19_6 C 0.2032(5) 0.8436(3) 0.4987(6)
H15_6 H 0.1867 0.8365 0.4340
C20_8 C 0.2036(4) 0.9576(3) 0.7167(7)
H16_8 H 0.1893 0.9612 0.7815
H17_8 H 0.1762 0.9397 0.6667
H18_8 H 0.2281 0.9914 0.6902
C23_9 C 0.3217(4) 0.7935(3) 0.8183(6)
H23_9 H 0.3573 0.8106 0.7935
H24_9 H 0.3060 0.7566 0.8051
C24_6 C 0.2293(5) 0.8185(3) 0.5290(6)
H25_6 H 0.2313 0.7948 0.4846
C25_6 C 0.2917(6) 0.7711(4) 0.5998(8)
H26_6 H 0.3223 0.7712 0.6241
H27_6 H 0.2974 0.7848 0.5299
H28_6 H 0.2630 0.7363 0.5999
C31_6 C 0.2271(4) 0.8895(3) 0.6597(5)
N15_8 N 0.1181(4) 0.9081(3) 0.9802(7)
C35_9 C 0.3204(4) 0.8033(3) 0.9342(6)
H39_9 H 0.2851 0.7833 0.9600
H40_9 H 0.3417 0.7925 0.9720
N18_3 N 0.3686(4) 0.9385(2) 0.7981(4)
H43_9 H 0.376607 0.877062 0.925918
Mo1_9 Mo 0.491980(19) 0.97940(2) 0.79439(4)
N3_9 N 0.3975(2) 0.9923(2) 0.4791(4)
C5_9 C 0.4058(3) 0.9696(3) 0.4018(5)
N4_9 N 0.5676(3) 0.9365(3) 0.7086(5)
C8_9 C 0.4831(3) 0.9388(3) 0.9391(5)
H6_9 H 0.3323 0.9862 0.6845
C10_9 C 0.4117(3) 0.9535(3) 0.7981(5)
C11_9 C 0.5426(3) 0.9532(3) 0.7383(5)
C12_9 C 0.4914(4) 0.8111(4) 0.9207(7)
H7_9 H 0.4698 0.8240 0.8925
H8_9 H 0.4806 0.7774 0.8896
C15_6 C 0.4540(3) 0.9892(3) 0.2313(6)
H10_6 H 0.4370 0.9544 0.2123
C16_9 C 0.6163(3) 0.9332(4) 0.9393(6)
H11_9 H 0.6293 0.9409 0.8680
H12_9 H 0.6341 0.9180 0.9755
C18_9 C 0.3593(3) 0.9645(3) 0.5580(6)
H13_9 H 0.3698 0.9445 0.6010
H14_9 H 0.3263 0.9409 0.5255
N12_9 N 0.5624(3) 0.8977(3) 0.9384(5)
C20_9 C 0.3757(3) 0.9127(3) 0.3834(7)
H16_9 H 0.3721 0.8948 0.4482
H17_9 H 0.3936 0.9032 0.3334
H18_9 H 0.3419 0.9034 0.3569
C21_9 C 0.6272(3) 0.9831(3) 0.9943(6)
C22_9 C 0.5470(4) 0.8477(4) 0.8945(6)
H21_9 H 0.5686 0.8347 0.9225
H22_9 H 0.5514 0.8506 0.8190
C29_9 C 0.4487(3) 0.9118(3) 0.6992(7)
N15_9 N 0.4252(3) 0.8767(3) 0.6469(7)
H46_9 H 0.545868 0.913683 0.893736
C14_7 C 0.8743(3) 0.6527(4) 0.0899(6)
H9_5 H 0.8773 0.6714 0.1504
C26_7 C 0.8386(3) 0.6012(4) 0.0853(6)
H29_7 H 0.8170 0.5844 0.1420
C33_5 C 0.9059(3) 0.6770(3) 0.0065(6)
H35_5 H 0.9301 0.7123 0.0091
C34_7 C 0.7666(4) 0.4858(4) 0.0626(8)
H36_7 H 0.7309 0.4665 0.0417
H37_7 H 0.7700 0.5071 0.1220
H38_7 H 0.7784 0.4622 0.0811
C7_7 C 0.8377(3) 0.7564(3) 0.9587(6)
C15_7 C 0.7874(3) 0.6558(3) 0.8979(6)
H10_7 H 0.7704 0.6210 0.8789
C19_7 C 0.8231(3) 0.6929(4) 0.8320(6)
H15_7 H 0.8302 0.6835 0.7673
H17_10 H 0.7270 0.5698 1.0000
C24_7 C 0.8482(3) 0.7441(4) 0.8623(6)
H25_7 H 0.8719 0.7698 0.8179
C25_7 C 0.8956(4) 0.8539(4) 0.9331(8)
H26_7 H 0.8955 0.8844 0.9574
H27_7 H 0.8819 0.8459 0.8632
H28_7 H 0.9304 0.8600 0.9332
C31_7 C 0.7772(3) 0.6709(3) 0.9930(5)
C14_8 C 0.3473(4) 0.2215(5) 0.0899(6)
H9_6 H 0.3286 0.2058 0.1504
C26_8 C 0.3988(4) 0.2373(5) 0.0853(6)
H29_8 H 0.4156 0.2325 0.1420
C33_6 C 0.3230(3) 0.2288(4) 0.0065(6)
H35_6 H 0.2877 0.2177 0.0091
C34_8 C 0.5142(4) 0.2807(6) 0.0626(8)
H36_8 H 0.5335 0.2643 0.0417
H37_8 H 0.4929 0.2628 0.1220
H38_8 H 0.5378 0.3161 0.0811
C7_8 C 0.2436(3) 0.0812(4) 0.9587(6)
C15_8 C 0.3442(3) 0.1315(4) 0.8979(6)
H10_8 H 0.3790 0.1493 0.8789
C19_8 C 0.3071(4) 0.1301(5) 0.8320(6)
H15_8 H 0.3165 0.1466 0.7673
H17_11 H 0.4302 0.1571 1.0000
C24_8 C 0.2559(4) 0.1040(5) 0.8623(6)
H25_8 H 0.2302 0.1020 0.8179
C25_8 C 0.1461(4) 0.0416(6) 0.9331(8)
H26_8 H 0.1156 0.0110 0.9574
H27_8 H 0.1541 0.0359 0.8632
H28_8 H 0.1400 0.0703 0.9332
C31_8 C 0.3291(3) 0.1062(4) 0.9930(5)
C14_9 C 0.7785(5) 0.1257(3) 0.0899(6)
H9_7 H 0.7942 0.1227 0.1504
C26_9 C 0.7627(5) 0.1614(3) 0.0853(6)
H29_9 H 0.7675 0.1830 0.1420
C33_7 C 0.7712(4) 0.0941(3) 0.0065(6)
H35_7 H 0.7823 0.0699 0.0091
C34_9 C 0.7193(6) 0.2334(4) 0.0626(8)
H36_9 H 0.7357 0.2691 0.0417
H37_9 H 0.7372 0.2300 0.1220
H38_9 H 0.6839 0.2216 0.0811
C7_9 C 0.9188(4) 0.1623(3) 0.9587(6)
C15_9 C 0.8685(4) 0.2126(3) 0.8979(6)
H10_9 H 0.8507 0.2296 0.8789
C19_9 C 0.8699(5) 0.1769(3) 0.8320(6)
H15_9 H 0.8534 0.1698 0.7673
H17_12 H 0.8429 0.2730 1.0000
C24_9 C 0.8960(5) 0.1518(3) 0.8623(6)
H25_9 H 0.8980 0.1281 0.8179
C25_9 C 0.9584(6) 0.1044(4) 0.9331(8)
H26_9 H 0.9890 0.1045 0.9574
H27_9 H 0.9641 0.1181 0.8632
H28_9 H 0.9297 0.0696 0.9332
C31_9 C 0.8938(4) 0.2228(3) 0.9930(5)
H9_8 H 0.5439 0.0048 0.4838
H19_8 H 0.6639 0.0039 0.0100
C27_8 C 0.6342(4) 0.0595(3) 0.1451(7)
H30_8 H 0.6660 0.0707 0.1827
H31_8 H 0.6165 0.0764 0.1734
H32_8 H 0.6418 0.0684 0.0724
C28_8 C 0.6008(3) 0.0027(3) 0.1556(6)
C33_8 C 0.5725(3) 0.0104(3) 0.3399(6)
H35_8 H 0.5967 0.0457 0.3425
H9_9 H 0.9952 0.5392 0.4838
H19_9 H 0.9961 0.6601 0.0100
C27_9 C 0.9405(3) 0.5748(5) 0.1451(7)
H30_9 H 0.9293 0.5954 0.1827
H31_9 H 0.9236 0.5402 0.1734
H32_9 H 0.9316 0.5735 0.0724
C28_9 C 0.9973(3) 0.5982(4) 0.1556(6)
C33_9 C 0.9896(3) 0.5622(4) 0.3399(6)
H35_9 H 0.9543 0.5511 0.3425
loop_
_geom_bond_atom_site_label_1
_geom_bond_atom_site_label_2
_geom_bond_site_symmetry_1
_geom_bond_site_symmetry_2
Mn2 N2 1_555 1_555
C1 H1 1_555 1_555
H2 C1 1_555 1_555
C2 N2 1_555 1_555
C3 C1 1_555 1_555
H3 C3 1_555 1_555
H4 C3 1_555 1_555
N2 C17 1_555 1_555
N4 C11 1_555 1_555
N8 Mn2 1_555 1_555
C8 Mo1 1_555 1_555
N9 Mn2 1_555 1_555
N11 Mn2 1_555 1_555
C10 Mo1 1_555 1_555
C11 Mo1 1_555 1_555
C12 N11 1_555 1_555
H7 C12 1_555 1_555
H8 C12 1_555 1_555
C13 C17 1_555 1_555
C14 H9 1_555 1_555
C16 H11 1_555 1_555
H12 C16 1_555 1_555
C17 C26 1_555 1_555
N12 Mn2 1_555 1_555
C21 N9 1_555 1_555
H19 C21 1_555 1_555
H20 C21 1_555 1_555
C22 C12 1_555 1_555
H21 C22 1_555 1_555
H22 C22 1_555 1_555
C26 C14 1_555 1_555
H29 C26 1_555 1_555
C27 H30 1_555 1_555
H31 C27 1_555 1_555
H32 C27 1_555 1_555
C28 C2 1_555 1_555
C29 Mo1 1_555 1_555
C30 N11 1_555 1_555
H33 C30 1_555 1_555
H34 C30 1_555 1_555
N13 C32 1_555 1_555
N14 Mn2 1_555 1_555
C32 Mo1 1_555 1_555
C33 C2 1_555 1_555
H35 C33 1_555 1_555
C34 C13 1_555 1_555
H36 C34 1_555 1_555
H37 C34 1_555 1_555
H38 C34 1_555 1_555
N16 C10 1_555 1_555
C36 C30 1_555 1_555
H41 C36 1_555 1_555
H42 C36 1_555 1_555
N17 C37 1_555 1_555
C37 Mo1 1_555 1_555
Mn4 N17 1_555 1_555
N19 Mn2 1_555 1_555
N8 C8 1_555 1_555
N9 C28 1_555 1_555
C13 N14 1_555 1_555
C14 C33 1_555 1_555
C16 N12 1_555 1_555
C16 C21 1_555 1_555
N12 C22 1_555 1_555
C27 C28 1_555 1_555
N14 C36 1_555 1_555
N11 H44 1_555 1_555
N12 H46 1_555 1_555
C12_2 N11_2 1_555 1_555
H8_2 C12_2 1_555 1_555
C16_2 H11_2 1_555 1_555
H12_2 C16_2 1_555 1_555
C22_2 C12_2 1_555 1_555
H21_2 C22_2 1_555 1_555
H22_2 C22_2 1_555 1_555
N11_2 H44_2 1_555 1_555
Mn2_2 N2_2 1_555 1_555
C1_2 H1_2 1_555 1_555
H2_2 C1_2 1_555 1_555
C2_2 N2_2 1_555 1_555
C3_2 C1_2 1_555 1_555
H3_2 C3_2 1_555 1_555
H4_2 C3_2 1_555 1_555
N2_2 C17_2 1_555 1_555
N4_2 C11_2 1_555 1_555
N8_2 Mn2_2 1_555 1_555
C8_2 Mo1_2 1_555 1_555
N9_2 Mn2_2 1_555 1_555
C10_2 Mo1_2 1_555 1_555
C11_2 Mo1_2 1_555 1_555
C13_2 C17_2 1_555 1_555
C14_2 H9_2 1_555 1_555
C17_2 C26_2 1_555 1_555
N12_2 Mn2_2 1_555 1_555
C21_2 N9_2 1_555 1_555
H19_2 C21_2 1_555 1_555
H20_2 C21_2 1_555 1_555
C26_2 C14_2 1_555 1_555
H29_2 C26_2 1_555 1_555
C27_2 H30_2 1_555 1_555
H31_2 C27_2 1_555 1_555
H32_2 C27_2 1_555 1_555
C28_2 C2_2 1_555 1_555
C29_2 Mo1_2 1_555 1_555
H34_2 C30_2 1_555 1_555
N13_2 C32_2 1_555 1_555
N14_2 Mn2_2 1_555 1_555
C32_2 Mo1_2 1_555 1_555
C33_2 C2_2 1_555 1_555
H35_2 C33_2 1_555 1_555
C34_2 C13_2 1_555 1_555
H36_2 C34_2 1_555 1_555
H37_2 C34_2 1_555 1_555
H38_2 C34_2 1_555 1_555
N16_2 C10_2 1_555 1_555
C36_2 C30_2 1_555 1_555
H41_2 C36_2 1_555 1_555
N17_2 C37_2 1_555 1_555
C37_2 Mo1_2 1_555 1_555
Mn3_2 N16_2 1_555 1_555
Mn4_2 N17_2 1_555 1_555
N8_2 C8_2 1_555 1_555
N9_2 C28_2 1_555 1_555
C13_2 N14_2 1_555 1_555
C14_2 C33_2 1_555 1_555
C27_2 C28_2 1_555 1_555
N14_2 C36_2 1_555 1_555
N12_2 H46_2 1_555 1_555
Mn1 N1 1_555 1_555
N3 Mn1 1_555 1_555
C4 N7 1_555 1_555
C5 N3 1_555 1_555
C6 N6 1_555 1_555
N5 Mn1 1_555 1_555
N6 Mn1 1_555 1_555
N7 Mn1 1_555 1_555
C7 C4 1_555 1_555
N10 Mn1 1_555 1_555
C9 N10 1_555 1_555
H5 C9 1_555 1_555
C15 H10 1_555 1_555
C18 N3 1_555 1_555
H13 C18 1_555 1_555
H14 C18 1_555 1_555
C19 C15 1_555 1_555
H15 C19 1_555 1_555
C20 C5 1_555 1_555
H16 C20 1_555 1_555
H17 C20 1_555 1_555
H18 C20 1_555 1_555
C23 N7 1_555 1_555
H23 C23 1_555 1_555
H24 C23 1_555 1_555
C24 C7 1_555 1_555
H25 C24 1_555 1_555
C25 C4 1_555 1_555
H26 C25 1_555 1_555
H27 C25 1_555 1_555
H28 C25 1_555 1_555
C31 C5 1_555 1_555
C35 N1 1_555 1_555
H39 C35 1_555 1_555
H40 C35 1_555 1_555
N18 Mn1 1_555 1_555
N5 C7 1_555 1_555
N5 C31 1_555 1_555
C9 C18 1_555 1_555
C15 C31 1_555 1_555
C19 C24 1_555 1_555
C23 C35 1_555 1_555
N1 H43 1_555 1_555
C12_3 N11_3 1_555 1_555
H8_3 C12_3 1_555 1_555
C16_3 H11_3 1_555 1_555
H12_3 C16_3 1_555 1_555
C22_3 C12_3 1_555 1_555
H21_3 C22_3 1_555 1_555
H22_3 C22_3 1_555 1_555
N11_3 H44_3 1_555 1_555
Mo1_3 C6_2 1_555 1_555
Mn3_2 N1_2 1_555 1_555
Mn2_3 N2_3 1_555 1_555
N1_2 C1_3 1_555 1_555
C1_3 H1_3 1_555 1_555
H2_3 C1_3 1_555 1_555
C2_3 N2_3 1_555 1_555
C3_3 C1_3 1_555 1_555
H3_3 C3_3 1_555 1_555
H4_3 C3_3 1_555 1_555
N2_3 C17_3 1_555 1_555
N3_2 Mn3_2 1_555 1_555
C4_2 N7_2 1_555 1_555
C5_2 N3_2 1_555 1_555
C6_2 N6_2 1_555 1_555
N4_3 C11_3 1_555 1_555
N5_2 Mn3_2 1_555 1_555
N6_2 Mn3_2 1_555 1_555
N7_2 Mn3_2 1_555 1_555
N8_3 Mn2_3 1_555 1_555
C8_3 Mo1_3 1_555 1_555
N9_3 Mn2_3 1_555 1_555
N10_2 Mn3_2 1_555 1_555
N11_4 Mn2_3 1_555 1_555
C9_2 N10_2 1_555 1_555
H5_2 C9_2 1_555 1_555
H6_4 C9_2 1_555 1_555
C10_3 Mo1_3 1_555 1_555
C11_3 Mo1_3 1_555 1_555
C12_4 N11_4 1_555 1_555
H7_3 C12_4 1_555 1_555
H8_4 C12_4 1_555 1_555
C13_3 C17_3 1_555 1_555
C16_4 H11_4 1_555 1_555
H12_4 C16_4 1_555 1_555
C18_2 N3_2 1_555 1_555
H13_2 C18_2 1_555 1_555
H14_2 C18_2 1_555 1_555
N12_3 Mn2_3 1_555 1_555
C20_2 C5_2 1_555 1_555
H16_2 C20_2 1_555 1_555
H17_2 C20_2 1_555 1_555
H18_2 C20_2 1_555 1_555
C21_3 N9_3 1_555 1_555
H19_3 C21_3 1_555 1_555
H20_3 C21_3 1_555 1_555
C22_4 C12_4 1_555 1_555
H21_4 C22_4 1_555 1_555
H22_4 C22_4 1_555 1_555
C23_2 N7_2 1_555 1_555
H23_2 C23_2 1_555 1_555
H24_2 C23_2 1_555 1_555
C27_3 H30_3 1_555 1_555
H31_3 C27_3 1_555 1_555
H32_3 C27_3 1_555 1_555
C28_3 C2_3 1_555 1_555
C29_3 Mo1_3 1_555 1_555
C30_3 N11_4 1_555 1_555
H33_4 C30_3 1_555 1_555
H34_3 C30_3 1_555 1_555
N13_3 C32_3 1_555 1_555
N14_3 Mn2_3 1_555 1_555
N15_2 C29_3 1_555 1_555
C32_3 Mo1_3 1_555 1_555
N16_3 C10_3 1_555 1_555
C35_2 N1_2 1_555 1_555
H39_2 C35_2 1_555 1_555
H40_2 C35_2 1_555 1_555
C36_3 C30_3 1_555 1_555
H41_3 C36_3 1_555 1_555
H42_4 C36_3 1_555 1_555
N19_3 C37_3 1_555 1_555
C37_3 Mo1_3 1_555 1_555
Mn3_4 N16_3 1_555 1_555
N19_4 Mn2_3 1_555 1_555
C3_3 N10_2 1_555 1_555
N8_3 C8_3 1_555 1_555
N9_3 C28_3 1_555 1_555
C9_2 C18_2 1_555 1_555
C13_3 N14_3 1_555 1_555
C16_4 N12_3 1_555 1_555
C16_4 C21_3 1_555 1_555
N12_3 C22_4 1_555 1_555
C23_2 C35_2 1_555 1_555
C27_3 C28_3 1_555 1_555
N14_3 C36_3 1_555 1_555
N1_2 H43_2 1_555 1_555
N11_4 H44_4 1_555 1_555
N10_2 H45_3 1_555 1_555
N12_3 H46_3 1_555 1_555
Mo1_4 C6_3 1_555 1_555
Mn2_4 N2_4 1_555 1_555
C2_4 N2_4 1_555 1_555
N2_4 C17_4 1_555 1_555
N3_3 Mn3_3 1_555 1_555
C4_3 N7_3 1_555 1_555
C5_3 N3_3 1_555 1_555
C6_3 N6_3 1_555 1_555
N4_4 C11_4 1_555 1_555
N5_3 Mn3_3 1_555 1_555
N6_3 Mn3_3 1_555 1_555
N7_3 Mn3_3 1_555 1_555
N8_4 Mn2_4 1_555 1_555
C8_4 Mo1_4 1_555 1_555
N9_4 Mn2_4 1_555 1_555
N10_3 Mn3_3 1_555 1_555
N11_5 Mn2_4 1_555 1_555
C9_3 N10_3 1_555 1_555
H6_5 C9_3 1_555 1_555
C10_4 Mo1_4 1_555 1_555
C11_4 Mo1_4 1_555 1_555
C12_5 N11_5 1_555 1_555
H7_4 C12_5 1_555 1_555
H8_5 C12_5 1_555 1_555
C13_4 C17_4 1_555 1_555
C16_5 H11_5 1_555 1_555
H12_5 C16_5 1_555 1_555
C18_3 N3_3 1_555 1_555
H13_3 C18_3 1_555 1_555
H14_3 C18_3 1_555 1_555
N12_4 Mn2_4 1_555 1_555
C20_3 C5_3 1_555 1_555
H16_3 C20_3 1_555 1_555
H17_3 C20_3 1_555 1_555
H18_3 C20_3 1_555 1_555
C21_4 N9_4 1_555 1_555
H19_4 C21_4 1_555 1_555
H20_4 C21_4 1_555 1_555
C22_5 C12_5 1_555 1_555
H21_5 C22_5 1_555 1_555
H22_5 C22_5 1_555 1_555
C23_3 N7_3 1_555 1_555
H24_3 C23_3 1_555 1_555
C27_4 H30_4 1_555 1_555
H31_4 C27_4 1_555 1_555
H32_4 C27_4 1_555 1_555
C28_4 C2_4 1_555 1_555
C29_4 Mo1_4 1_555 1_555
C30_4 N11_5 1_555 1_555
H33_5 C30_4 1_555 1_555
H34_4 C30_4 1_555 1_555
N13_4 C32_4 1_555 1_555
N14_4 Mn2_4 1_555 1_555
N15_3 C29_4 1_555 1_555
C32_4 Mo1_4 1_555 1_555
N16_4 C10_4 1_555 1_555
H39_3 C35_3 1_555 1_555
C36_4 C30_4 1_555 1_555
H41_4 C36_4 1_555 1_555
H42_5 C36_4 1_555 1_555
N19 C37_4 1_555 1_555
C37_4 Mo1_4 1_555 1_555
Mn3_5 N16_4 1_555 1_555
N19_5 Mn2_4 1_555 1_555
N8_4 C8_4 1_555 1_555
N9_4 C28_4 1_555 1_555
C9_3 C18_3 1_555 1_555
C13_4 N14_4 1_555 1_555
C16_5 N12_4 1_555 1_555
C16_5 C21_4 1_555 1_555
N12_4 C22_5 1_555 1_555
C23_3 C35_3 1_555 1_555
C27_4 C28_4 1_555 1_555
N14_4 C36_4 1_555 1_555
N11_5 H44_5 1_555 1_555
N10_3 H45_4 1_555 1_555
N12_4 H46_4 1_555 1_555
N1_3 C1_4 1_555 1_555
C1_4 H1_4 1_555 1_555
C3_4 C1_4 1_555 1_555
H3_4 C3_4 1_555 1_555
H4_4 C3_4 1_555 1_555
N1_3 H43_3 1_555 1_555
Mo1_5 C6_4 1_555 1_555
Mn2_5 N2_5 1_555 1_555
C2_5 N2_5 1_555 1_555
N2_5 C17_5 1_555 1_555
N3_4 Mn3 1_555 1_555
C4_4 N7_4 1_555 1_555
C5_4 N3_4 1_555 1_555
C6_4 N6_4 1_555 1_555
N4_5 C11_5 1_555 1_555
N5_4 Mn3 1_555 1_555
N6_4 Mn3 1_555 1_555
N7_4 Mn3 1_555 1_555
N8_5 Mn2_5 1_555 1_555
C8_5 Mo1_5 1_555 1_555
N9_5 Mn2_5 1_555 1_555
N10_4 Mn3 1_555 1_555
N11_6 Mn2_5 1_555 1_555
C9_4 N10_4 1_555 1_555
H6_6 C9_4 1_555 1_555
C10_5 Mo1_5 1_555 1_555
C11_5 Mo1_5 1_555 1_555
C12_6 N11_6 1_555 1_555
H7_5 C12_6 1_555 1_555
H8_6 C12_6 1_555 1_555
C13_5 C17_5 1_555 1_555
C16_6 H11_6 1_555 1_555
H12_6 C16_6 1_555 1_555
C18_4 N3_4 1_555 1_555
H13_4 C18_4 1_555 1_555
H14_4 C18_4 1_555 1_555
N12_5 Mn2_5 1_555 1_555
C20_4 C5_4 1_555 1_555
H16_4 C20_4 1_555 1_555
H17_4 C20_4 1_555 1_555
H18_4 C20_4 1_555 1_555
C21_5 N9_5 1_555 1_555
H19_5 C21_5 1_555 1_555
H20_5 C21_5 1_555 1_555
C22_6 C12_6 1_555 1_555
H21_6 C22_6 1_555 1_555
H22_6 C22_6 1_555 1_555
C23_4 N7_4 1_555 1_555
H24_4 C23_4 1_555 1_555
C27_5 H30_5 1_555 1_555
H31_5 C27_5 1_555 1_555
H32_5 C27_5 1_555 1_555
C28_5 C2_5 1_555 1_555
C29_5 Mo1_5 1_555 1_555
C30_5 N11_6 1_555 1_555
H33_6 C30_5 1_555 1_555
H34_5 C30_5 1_555 1_555
N13_5 C32_5 1_555 1_555
N14_5 Mn2_5 1_555 1_555
N15_4 C29_5 1_555 1_555
C32_5 Mo1_5 1_555 1_555
N16_5 C10_5 1_555 1_555
H39_4 C35_4 1_555 1_555
C36_5 C30_5 1_555 1_555
H41_5 C36_5 1_555 1_555
H42_6 C36_5 1_555 1_555
N19_2 C37_5 1_555 1_555
C37_5 Mo1_5 1_555 1_555
Mn3_6 N16_5 1_555 1_555
N19_6 Mn2_5 1_555 1_555
N8_5 C8_5 1_555 1_555
N9_5 C28_5 1_555 1_555
C9_4 C18_4 1_555 1_555
C13_5 N14_5 1_555 1_555
C16_6 N12_5 1_555 1_555
C16_6 C21_5 1_555 1_555
N12_5 C22_6 1_555 1_555
C23_4 C35_4 1_555 1_555
C27_5 C28_5 1_555 1_555
N14_5 C36_5 1_555 1_555
N11_6 H44_6 1_555 1_555
N10_4 H45_5 1_555 1_555
N12_5 H46_5 1_555 1_555
Mn3_5 N1_4 1_555 1_555
N1_4 C1_5 1_555 1_555
C1_5 H1_5 1_555 1_555
H2_6 C1_5 1_555 1_555
C3_5 C1_5 1_555 1_555
H3_5 C3_5 1_555 1_555
H4_5 C3_5 1_555 1_555
C4_5 N7_5 1_555 1_555
C6_5 N6_5 1_555 1_555
N5_5 Mn3_5 1_555 1_555
N6_5 Mn3_5 1_555 1_555
N7_5 Mn3_5 1_555 1_555
C7_2 C4_5 1_555 1_555
N10_5 Mn3_5 1_555 1_555
C9_5 N10_5 1_555 1_555
H5_4 C9_5 1_555 1_555
H15_2 C19_2 1_555 1_555
C23_5 N7_5 1_555 1_555
H23_4 C23_5 1_555 1_555
H24_5 C23_5 1_555 1_555
C24_2 C7_2 1_555 1_555
H25_2 C24_2 1_555 1_555
C25_2 C4_5 1_555 1_555
H26_2 C25_2 1_555 1_555
H27_2 C25_2 1_555 1_555
H28_2 C25_2 1_555 1_555
N13_6 C32_6 1_555 1_555
C35_5 N1_4 1_555 1_555
H39_5 C35_5 1_555 1_555
H40_4 C35_5 1_555 1_555
N19_6 C37_6 1_555 1_555
C3_5 N10_5 1_555 1_555
N5_5 C7_2 1_555 1_555
N5_5 C31_2 1_555 1_555
C19_2 C24_2 1_555 1_555
C23_5 C35_5 1_555 1_555
N1_4 H43_4 1_555 1_555
N10_5 H45_6 1_555 1_555
Mn4_2 N2_6 1_555 1_555
C2_6 N2_6 1_555 1_555
N2_6 C17_6 1_555 1_555
N8_6 Mn4_2 1_555 1_555
N9_6 Mn4_2 1_555 1_555
N11_7 Mn4_2 1_555 1_555
C13_6 C17_6 1_555 1_555
C17_6 C26_3 1_555 1_555
C26_3 C14_3 1_555 1_555
H29_3 C26_3 1_555 1_555
C30_6 N11_7 1_555 1_555
H33_7 C30_6 1_555 1_555
H34_6 C30_6 1_555 1_555
N14_6 Mn4_2 1_555 1_555
C34_3 C13_6 1_555 1_555
H36_3 C34_3 1_555 1_555
H37_3 C34_3 1_555 1_555
H38_3 C34_3 1_555 1_555
C36_6 C30_6 1_555 1_555
H41_6 C36_6 1_555 1_555
H42_7 C36_6 1_555 1_555
C13_6 N14_6 1_555 1_555
N14_6 C36_6 1_555 1_555
N11_7 H44_7 1_555 1_555
Mn3_6 N1_5 1_555 1_555
N1_5 C1_6 1_555 1_555
C1_6 H1_6 1_555 1_555
H2_7 C1_6 1_555 1_555
C3_6 C1_6 1_555 1_555
H3_6 C3_6 1_555 1_555
H4_6 C3_6 1_555 1_555
C4_6 N7_6 1_555 1_555
C6_6 N6_6 1_555 1_555
N5_6 Mn3_6 1_555 1_555
N6_6 Mn3_6 1_555 1_555
N7_6 Mn3_6 1_555 1_555
C7_3 C4_6 1_555 1_555
N10_6 Mn3_6 1_555 1_555
C9_6 N10_6 1_555 1_555
H5_5 C9_6 1_555 1_555
H15_3 C19_3 1_555 1_555
C23_6 N7_6 1_555 1_555
H23_5 C23_6 1_555 1_555
H24_6 C23_6 1_555 1_555
C24_3 C7_3 1_555 1_555
H25_3 C24_3 1_555 1_555
C25_3 C4_6 1_555 1_555
H26_3 C25_3 1_555 1_555
H27_3 C25_3 1_555 1_555
H28_3 C25_3 1_555 1_555
N13_7 C32_7 1_555 1_555
C35_6 N1_5 1_555 1_555
H39_6 C35_6 1_555 1_555
H40_5 C35_6 1_555 1_555
N19_4 C37_7 1_555 1_555
C3_6 N10_6 1_555 1_555
N5_6 C7_3 1_555 1_555
N5_6 C31_3 1_555 1_555
C19_3 C24_3 1_555 1_555
C23_6 C35_6 1_555 1_555
N1_5 H43_5 1_555 1_555
N10_6 H45_7 1_555 1_555
Mn4 N2_7 1_555 1_555
C2_7 N2_7 1_555 1_555
N2_7 C17_7 1_555 1_555
N8_7 Mn4 1_555 1_555
N9_7 Mn4 1_555 1_555
N11_8 Mn4 1_555 1_555
C13_7 C17_7 1_555 1_555
C14_4 H9_3 1_555 1_555
C17_7 C26_4 1_555 1_555
C26_4 C14_4 1_555 1_555
H29_4 C26_4 1_555 1_555
C27_6 H30_6 1_555 1_555
H31_6 C27_6 1_555 1_555
H32_6 C27_6 1_555 1_555
C28_6 C2_7 1_555 1_555
C30_7 N11_8 1_555 1_555
H33_8 C30_7 1_555 1_555
H34_7 C30_7 1_555 1_555
N14_7 Mn4 1_555 1_555
C33_3 C2_7 1_555 1_555
H35_3 C33_3 1_555 1_555
C34_4 C13_7 1_555 1_555
H36_4 C34_4 1_555 1_555
H37_4 C34_4 1_555 1_555
H38_4 C34_4 1_555 1_555
C36_7 C30_7 1_555 1_555
H41_7 C36_7 1_555 1_555
H42_8 C36_7 1_555 1_555
N9_7 C28_6 1_555 1_555
C13_7 N14_7 1_555 1_555
C14_4 C33_3 1_555 1_555
C27_6 C28_6 1_555 1_555
N14_7 C36_7 1_555 1_555
N11_8 H44_8 1_555 1_555
Mo1_6 C6_7 1_555 1_555
Mn3_4 N1_6 1_555 1_555
N1_6 C1_7 1_555 1_555
C1_7 H1_7 1_555 1_555
H2_8 C1_7 1_555 1_555
C3_7 C1_7 1_555 1_555
H3_7 C3_7 1_555 1_555
H4_7 C3_7 1_555 1_555
N3_5 Mn3_4 1_555 1_555
C4_7 N7_7 1_555 1_555
C5_5 N3_5 1_555 1_555
C6_7 N6_7 1_555 1_555
N4_6 C11_6 1_555 1_555
N5_7 Mn3_4 1_555 1_555
N6_7 Mn3_4 1_555 1_555
N7_7 Mn3_4 1_555 1_555
C7_4 C4_7 1_555 1_555
C8_6 Mo1_6 1_555 1_555
N10_7 Mn3_4 1_555 1_555
C9_7 N10_7 1_555 1_555
H5_6 C9_7 1_555 1_555
H6_7 C9_7 1_555 1_555
C10_6 Mo1_6 1_555 1_555
C11_6 Mo1_6 1_555 1_555
H7_6 C12_7 1_555 1_555
H8_7 C12_7 1_555 1_555
C15_2 H10_2 1_555 1_555
C16_7 H11_7 1_555 1_555
H12_7 C16_7 1_555 1_555
C18_5 N3_5 1_555 1_555
H13_5 C18_5 1_555 1_555
H14_5 C18_5 1_555 1_555
C19_4 C15_2 1_555 1_555
H15_4 C19_4 1_555 1_555
C20_5 C5_5 1_555 1_555
H16_5 C20_5 1_555 1_555
H17_5 C20_5 1_555 1_555
H18_5 C20_5 1_555 1_555
H20_8 C21_6 1_555 1_555
C22_7 C12_7 1_555 1_555
H21_7 C22_7 1_555 1_555
H22_7 C22_7 1_555 1_555
C23_7 N7_7 1_555 1_555
H23_6 C23_7 1_555 1_555
H24_7 C23_7 1_555 1_555
C24_4 C7_4 1_555 1_555
H25_4 C24_4 1_555 1_555
C25_4 C4_7 1_555 1_555
H26_4 C25_4 1_555 1_555
H27_4 C25_4 1_555 1_555
H28_4 C25_4 1_555 1_555
C29_6 Mo1_6 1_555 1_555
N13_8 C32_8 1_555 1_555
C31_4 C5_5 1_555 1_555
N15_5 C29_6 1_555 1_555
C32_8 Mo1_6 1_555 1_555
N18 C10_6 1_555 1_555
C35_7 N1_6 1_555 1_555
H39_7 C35_7 1_555 1_555
H40_6 C35_7 1_555 1_555
N19_5 C37_8 1_555 1_555
C37_8 Mo1_6 1_555 1_555
C3_7 N10_7 1_555 1_555
N5_7 C7_4 1_555 1_555
N5_7 C31_4 1_555 1_555
C9_7 C18_5 1_555 1_555
C15_2 C31_4 1_555 1_555
C16_7 N12_6 1_555 1_555
C16_7 C21_6 1_555 1_555
C19_4 C24_4 1_555 1_555
N12_6 C22_7 1_555 1_555
C23_7 C35_7 1_555 1_555
N1_6 H43_6 1_555 1_555
N10_7 H45_8 1_555 1_555
N12_6 H46_6 1_555 1_555
Mn1_2 N1_7 1_555 1_555
N3_6 Mn1_2 1_555 1_555
C4_8 N7_8 1_555 1_555
C5_6 N3_6 1_555 1_555
C6_8 N6_8 1_555 1_555
N5_8 Mn1_2 1_555 1_555
N6_8 Mn1_2 1_555 1_555
N7_8 Mn1_2 1_555 1_555
C7_5 C4_8 1_555 1_555
N10_8 Mn1_2 1_555 1_555
C9_8 N10_8 1_555 1_555
H5_7 C9_8 1_555 1_555
C15_3 H10_3 1_555 1_555
C18_6 N3_6 1_555 1_555
H13_6 C18_6 1_555 1_555
C19_5 C15_3 1_555 1_555
H15_5 C19_5 1_555 1_555
C20_6 C5_6 1_555 1_555
H16_6 C20_6 1_555 1_555
H17_6 C20_6 1_555 1_555
H18_6 C20_6 1_555 1_555
C23_8 N7_8 1_555 1_555
H23_7 C23_8 1_555 1_555
H24_8 C23_8 1_555 1_555
C24_5 C7_5 1_555 1_555
H25_5 C24_5 1_555 1_555
C25_5 C4_8 1_555 1_555
H26_5 C25_5 1_555 1_555
H27_5 C25_5 1_555 1_555
H28_5 C25_5 1_555 1_555
C31_5 C5_6 1_555 1_555
C35_8 N1_7 1_555 1_555
H39_8 C35_8 1_555 1_555
H40_7 C35_8 1_555 1_555
N18_2 Mn1_2 1_555 1_555
N5_8 C7_5 1_555 1_555
N5_8 C31_5 1_555 1_555
C9_8 C18_6 1_555 1_555
C15_3 C31_5 1_555 1_555
C19_5 C24_5 1_555 1_555
C23_8 C35_8 1_555 1_555
N1_7 H43_7 1_555 1_555
C5_7 N3_7 1_555 1_555
N4_7 C11_7 1_555 1_555
C8_7 Mo1_7 1_555 1_555
C10_7 Mo1_7 1_555 1_555
C11_7 Mo1_7 1_555 1_555
H7_7 C12_8 1_555 1_555
H8_8 C12_8 1_555 1_555
C15_4 H10_4 1_555 1_555
C16_8 H11_8 1_555 1_555
H12_8 C16_8 1_555 1_555
C18_7 N3_7 1_555 1_555
H13_7 C18_7 1_555 1_555
H14_6 C18_7 1_555 1_555
C20_7 C5_7 1_555 1_555
H16_7 C20_7 1_555 1_555
H17_7 C20_7 1_555 1_555
H18_7 C20_7 1_555 1_555
C22_8 C12_8 1_555 1_555
H21_8 C22_8 1_555 1_555
H22_8 C22_8 1_555 1_555
C29_7 Mo1_7 1_555 1_555
N15_7 C29_7 1_555 1_555
N18_2 C10_7 1_555 1_555
C16_8 N12_7 1_555 1_555
C16_8 C21_7 1_555 1_555
N12_7 C22_8 1_555 1_555
N12_7 H46_7 1_555 1_555
Mn2_6 N2_8 1_555 1_555
C1_8 H1_8 1_555 1_555
H2_9 C1_8 1_555 1_555
C2_8 N2_8 1_555 1_555
C3_8 C1_8 1_555 1_555
H3_8 C3_8 1_555 1_555
H4_8 C3_8 1_555 1_555
N2_8 C17_8 1_555 1_555
N4_8 C11_8 1_555 1_555
N8_8 Mn2_6 1_555 1_555
C8_8 Mo1_8 1_555 1_555
N9_8 Mn2_6 1_555 1_555
C10_8 Mo1_8 1_555 1_555
C11_8 Mo1_8 1_555 1_555
C13_8 C17_8 1_555 1_555
C14_5 H9_4 1_555 1_555
C17_8 C26_5 1_555 1_555
N12_8 Mn2_6 1_555 1_555
C21_8 N9_8 1_555 1_555
H19_7 C21_8 1_555 1_555
H20_9 C21_8 1_555 1_555
C26_5 C14_5 1_555 1_555
H29_5 C26_5 1_555 1_555
C27_7 H30_7 1_555 1_555
H31_7 C27_7 1_555 1_555
H32_7 C27_7 1_555 1_555
C28_7 C2_8 1_555 1_555
C29_8 Mo1_8 1_555 1_555
H34_8 C30_8 1_555 1_555
N13_9 C32_9 1_555 1_555
N14_8 Mn2_6 1_555 1_555
C32_9 Mo1_8 1_555 1_555
C33_4 C2_8 1_555 1_555
H35_4 C33_4 1_555 1_555
C34_5 C13_8 1_555 1_555
H36_5 C34_5 1_555 1_555
H37_5 C34_5 1_555 1_555
H38_5 C34_5 1_555 1_555
N16_6 C10_8 1_555 1_555
C36_8 C30_8 1_555 1_555
H41_8 C36_8 1_555 1_555
N17_3 C37_9 1_555 1_555
C37_9 Mo1_8 1_555 1_555
Mn4_3 N17_3 1_555 1_555
N8_8 C8_8 1_555 1_555
N9_8 C28_7 1_555 1_555
C13_8 N14_8 1_555 1_555
C14_5 C33_4 1_555 1_555
C27_7 C28_7 1_555 1_555
N14_8 C36_8 1_555 1_555
N12_8 H46_8 1_555 1_555
N1_8 C1_9 1_555 1_555
C1_9 H1_9 1_555 1_555
C3_9 C1_9 1_555 1_555
H3_9 C3_9 1_555 1_555
H4_9 C3_9 1_555 1_555
N1_8 H43_8 1_555 1_555
Mn4_3 N2_9 1_555 1_555
C2_9 N2_9 1_555 1_555
N2_9 C17_9 1_555 1_555
N8_9 Mn4_3 1_555 1_555
N9_9 Mn4_3 1_555 1_555
N11_9 Mn4_3 1_555 1_555
C13_9 C17_9 1_555 1_555
C17_9 C26_6 1_555 1_555
C26_6 C14_6 1_555 1_555
H29_6 C26_6 1_555 1_555
C30_9 N11_9 1_555 1_555
H33_9 C30_9 1_555 1_555
H34_9 C30_9 1_555 1_555
N14_9 Mn4_3 1_555 1_555
C34_6 C13_9 1_555 1_555
H36_6 C34_6 1_555 1_555
H37_6 C34_6 1_555 1_555
H38_6 C34_6 1_555 1_555
C36_9 C30_9 1_555 1_555
H41_9 C36_9 1_555 1_555
H42_9 C36_9 1_555 1_555
C13_9 N14_9 1_555 1_555
N14_9 C36_9 1_555 1_555
N11_9 H44_9 1_555 1_555
Mn1_3 N1_9 1_555 1_555
N3_8 Mn1_3 1_555 1_555
C4_9 N7_9 1_555 1_555
C5_8 N3_8 1_555 1_555
C6_9 N6_9 1_555 1_555
N5_9 Mn1_3 1_555 1_555
N6_9 Mn1_3 1_555 1_555
N7_9 Mn1_3 1_555 1_555
C7_6 C4_9 1_555 1_555
N10_9 Mn1_3 1_555 1_555
C9_9 N10_9 1_555 1_555
H5_9 C9_9 1_555 1_555
C15_5 H10_5 1_555 1_555
C18_8 N3_8 1_555 1_555
H13_8 C18_8 1_555 1_555
C19_6 C15_5 1_555 1_555
H15_6 C19_6 1_555 1_555
C20_8 C5_8 1_555 1_555
H16_8 C20_8 1_555 1_555
H17_8 C20_8 1_555 1_555
H18_8 C20_8 1_555 1_555
C23_9 N7_9 1_555 1_555
H23_9 C23_9 1_555 1_555
H24_9 C23_9 1_555 1_555
C24_6 C7_6 1_555 1_555
H25_6 C24_6 1_555 1_555
C25_6 C4_9 1_555 1_555
H26_6 C25_6 1_555 1_555
H27_6 C25_6 1_555 1_555
H28_6 C25_6 1_555 1_555
C31_6 C5_8 1_555 1_555
C35_9 N1_9 1_555 1_555
H39_9 C35_9 1_555 1_555
H40_9 C35_9 1_555 1_555
N18_3 Mn1_3 1_555 1_555
N5_9 C7_6 1_555 1_555
N5_9 C31_6 1_555 1_555
C9_9 C18_8 1_555 1_555
C15_5 C31_6 1_555 1_555
C19_6 C24_6 1_555 1_555
C23_9 C35_9 1_555 1_555
N1_9 H43_9 1_555 1_555
C5_9 N3_9 1_555 1_555
N4_9 C11_9 1_555 1_555
C8_9 Mo1_9 1_555 1_555
C10_9 Mo1_9 1_555 1_555
C11_9 Mo1_9 1_555 1_555
H7_9 C12_9 1_555 1_555
H8_9 C12_9 1_555 1_555
C15_6 H10_6 1_555 1_555
C16_9 H11_9 1_555 1_555
H12_9 C16_9 1_555 1_555
C18_9 N3_9 1_555 1_555
H13_9 C18_9 1_555 1_555
H14_9 C18_9 1_555 1_555
C20_9 C5_9 1_555 1_555
H16_9 C20_9 1_555 1_555
H17_9 C20_9 1_555 1_555
H18_9 C20_9 1_555 1_555
C22_9 C12_9 1_555 1_555
H21_9 C22_9 1_555 1_555
H22_9 C22_9 1_555 1_555
C29_9 Mo1_9 1_555 1_555
N15_9 C29_9 1_555 1_555
N18_3 C10_9 1_555 1_555
C16_9 N12_9 1_555 1_555
C16_9 C21_9 1_555 1_555
N12_9 C22_9 1_555 1_555
N12_9 H46_9 1_555 1_555
C14_7 H9_5 1_555 1_555
C26_7 C14_7 1_555 1_555
H29_7 C26_7 1_555 1_555
H35_5 C33_5 1_555 1_555
H36_7 C34_7 1_555 1_555
H37_7 C34_7 1_555 1_555
H38_7 C34_7 1_555 1_555
C14_7 C33_5 1_555 1_555
C15_7 H10_7 1_555 1_555
C19_7 C15_7 1_555 1_555
H15_7 C19_7 1_555 1_555
C24_7 C7_7 1_555 1_555
H25_7 C24_7 1_555 1_555
H26_7 C25_7 1_555 1_555
H27_7 C25_7 1_555 1_555
H28_7 C25_7 1_555 1_555
C15_7 C31_7 1_555 1_555
C19_7 C24_7 1_555 1_555
C14_8 H9_6 1_555 1_555
C26_8 C14_8 1_555 1_555
H29_8 C26_8 1_555 1_555
H35_6 C33_6 1_555 1_555
H36_8 C34_8 1_555 1_555
H37_8 C34_8 1_555 1_555
H38_8 C34_8 1_555 1_555
C14_8 C33_6 1_555 1_555
C15_8 H10_8 1_555 1_555
C19_8 C15_8 1_555 1_555
H15_8 C19_8 1_555 1_555
C24_8 C7_8 1_555 1_555
H25_8 C24_8 1_555 1_555
H26_8 C25_8 1_555 1_555
H27_8 C25_8 1_555 1_555
H28_8 C25_8 1_555 1_555
C15_8 C31_8 1_555 1_555
C19_8 C24_8 1_555 1_555
C14_9 H9_7 1_555 1_555
C26_9 C14_9 1_555 1_555
H29_9 C26_9 1_555 1_555
H35_7 C33_7 1_555 1_555
H36_9 C34_9 1_555 1_555
H37_9 C34_9 1_555 1_555
H38_9 C34_9 1_555 1_555
C14_9 C33_7 1_555 1_555
C15_9 H10_9 1_555 1_555
C19_9 C15_9 1_555 1_555
H15_9 C19_9 1_555 1_555
C24_9 C7_9 1_555 1_555
H25_9 C24_9 1_555 1_555
H26_9 C25_9 1_555 1_555
H27_9 C25_9 1_555 1_555
H28_9 C25_9 1_555 1_555
C15_9 C31_9 1_555 1_555
C19_9 C24_9 1_555 1_555
C27_8 H30_8 1_555 1_555
H31_8 C27_8 1_555 1_555
H32_8 C27_8 1_555 1_555
H35_8 C33_8 1_555 1_555
C27_8 C28_8 1_555 1_555
C27_9 H30_9 1_555 1_555
H31_9 C27_9 1_555 1_555
H32_9 C27_9 1_555 1_555
H35_9 C33_9 1_555 1_555
C27_9 C28_9 1_555 1_555

#END
