
###############################################################################
#
# This file contains modified crystal structure data generated from the
# MOF subset of the Cambridge Structural Database (CSD) v543 
# hosted by the Cambridge Crystallographic Data Centre (CCDC).
#
# This work is licensed under the Creative Commons
# Attribution-NonCommercial-ShareAlike 4.0 International License.
# To view a copy of this license, visit
# http://creativecommons.org/licenses/by-nc-sa/4.0/
# or send a letter to
# Creative Commons, PO Box 1866, Mountain View, CA 94042, USA.
#
# CIF created using the CSD Python API on 29 September 2022
# The structure has been converted into the P1 space group
# The structure has a 3D framework
# The original CSD entry HEFDUT is in the triclinic crystal system
# The framework has been calculated to contain at least 10.0% void space
# The void calculation uses a probe of radius 1.32A, grid spacing 0.4
# The framework is charged, counterions have been retained in the structure
# H atom positions have been added when not included in the experimental data
#
###############################################################################

data_HEFDUT
_chemical_formula_moiety         '(C208 H140 Cd12 Cl4 N16 O52)n'
_symmetry_cell_setting           triclinic
_symmetry_space_group_name_H-M   'P 1'
_symmetry_Int_Tables_number      1
_space_group_name_Hall           'P 1'
loop_
_symmetry_equiv_pos_site_id
_symmetry_equiv_pos_as_xyz
1 x,y,z
_cell_length_a                   18.3226(9)
_cell_length_b                   19.9426(8)
_cell_length_c                   21.8982(9)
_cell_angle_alpha                67.945(2)
_cell_angle_beta                 88.290(3)
_cell_angle_gamma                85.086(3)
_cell_volume                     7388.8
loop_
_atom_site_label
_atom_site_type_symbol
_atom_site_fract_x
_atom_site_fract_y
_atom_site_fract_z
Cd2 Cd 0.03707(2) 0.17781(2) 0.53219(2)
Cd3 Cd 0.45758(2) 0.17139(2) 0.045400(19)
Cd4 Cd 0.28050(3) 0.14578(3) 0.12578(3)
Cd5 Cd 0.45573(2) 0.67036(2) 0.043240(19)
Cl1 Cl 0.26702(16) 0.10952(17) 0.24524(11)
C1 C 0.0991(4) 0.2969(4) 0.4024(3)
C2 C 0.1577(4) 0.3166(4) 0.3510(3)
C3 C 0.1516(5) 0.3845(4) 0.3001(4)
H1 H 0.1119 0.4179 0.2995
C4 C 0.2029(5) 0.4034(4) 0.2506(3)
H2 H 0.1989 0.4500 0.2174
C5 C 0.2609(4) 0.3537(4) 0.2492(3)
C6 C 0.2684(5) 0.2860(4) 0.3014(4)
H3 H 0.3077 0.2521 0.3023
C7 C 0.2175(4) 0.2697(4) 0.3516(4)
H4 H 0.2239 0.2251 0.3874
C8 C 0.3135(4) 0.3723(4) 0.1941(3)
C9 C 0.3375(4) 0.3223(4) 0.1666(3)
H5 H 0.3211 0.2754 0.1842
C10 C 0.3855(4) 0.3399(3) 0.1132(3)
C11 C 0.4120(4) 0.4088(3) 0.0886(3)
H6 H 0.4461 0.4206 0.0540
C12 C 0.3880(4) 0.4595(4) 0.1152(3)
C13 C 0.3387(4) 0.4426(4) 0.1677(4)
H7 H 0.3224 0.4776 0.1853
C14 C 0.4133(4) 0.5350(4) 0.0878(3)
C59 C 0.4073(4) 0.2848(4) 0.0841(3)
O1 O 0.1097(3) 0.2341(3) 0.4489(3)
O2 O 0.0459(3) 0.3421(3) 0.3961(2)
O3 O 0.3767(4) 0.5828(3) 0.1030(4)
O4 O 0.4671(3) 0.5482(3) 0.0530(2)
O5 O 0.4505(3) 0.3016(3) 0.0358(2)
O6 O 0.3834(3) 0.2241(3) 0.1084(2)
O25 O 0.1949(4) 0.0644(5) 0.1269(4)
O26 O 0.1960(5) 0.2467(5) 0.1045(5)
O27 O 0.5572(3) 0.6478(3) 0.1069(3)
Cd6 Cd 0.05835(2) 0.66631(2) 0.54864(2)
O29 O 0.0329(3) 0.3040(3) 0.5389(3)
O30 O 0.0877(4) 0.2069(3) 0.6134(3)
O31 O 0.2705(4) 0.1698(5) 0.0180(3)
O33 O 0.0178(3) 0.0491(3) 0.5562(3)
O34 O 0.1242(3) 0.0817(3) 0.5707(3)
O36 O 0.5637(3) 0.1631(3) 0.0950(3)
O37 O 0.3885(3) 0.0768(2) 0.1247(2)
O38 O 0.4672(3) 0.0498(3) 0.0580(2)
O40 O 0.3932(3) 0.7314(3) 0.1001(3)
H62 H 0.579341 0.597986 0.114975
H63 H 0.593168 0.683531 0.0839865
H64 H 0.213598 0.279494 0.124595
H65 H 0.190692 0.273074 0.056156
H66 H 0.147504 0.0777727 0.144235
H67 H 0.187772 0.0665855 0.0813962
Cd15 Cd 0.54427(2) 0.32964(2) 0.956760(19)
O28 O 0.5495(3) 0.6984(3) 0.9642(2)
O32 O 0.3696(3) 0.2204(4) 0.9663(3)
O35 O 0.3913(3) 0.7268(3) 0.9513(2)
O39 O 0.5193(3) 0.1985(3) 0.9485(3)
Cd1 Cd 0.94165(2) 0.33369(2) 0.45136(2)
C15 C 0.9128(4) 0.2267(4) 0.4013(3)
C16 C 0.8898(3) 0.1697(4) 0.3774(3)
C17 C 0.9152(3) 0.0976(4) 0.4092(3)
H8 H 0.9496 0.0847 0.4436
C18 C 0.8903(4) 0.0450(3) 0.3908(3)
C19 C 0.8396(4) 0.0640(4) 0.3392(3)
H9 H 0.8224 0.0278 0.3268
C20 C 0.8145(4) 0.1363(4) 0.3062(3)
C21 C 0.8405(4) 0.1884(4) 0.3260(3)
H10 H 0.8241 0.2375 0.3040
C22 C 0.7614(4) 0.1566(4) 0.2508(3)
C23 C 0.7686(5) 0.2169(4) 0.1946(4)
H11 H 0.8074 0.2462 0.1906
C24 C 0.7179(4) 0.2346(4) 0.1431(4)
H12 H 0.7225 0.2762 0.1047
C25 C 0.6611(4) 0.1911(4) 0.1486(4)
C26 C 0.6552(4) 0.1305(4) 0.2047(4)
H13 H 0.6174 0.1003 0.2083
C27 C 0.7041(4) 0.1137(4) 0.2556(4)
H14 H 0.6986 0.0726 0.2942
C28 C 0.6073(4) 0.2113(4) 0.0930(3)
C29 C 0.9081(4) 0.4805(4) 0.4054(3)
C30 C 0.8918(4) 0.5624(4) 0.3750(3)
C31 C 0.9150(3) 0.6048(4) 0.4057(3)
H15 H 0.9379 0.5834 0.4472
C32 C 0.9047(4) 0.6798(4) 0.3755(3)
C33 C 0.9306(4) 0.7252(4) 0.4096(3)
C34 C 0.8727(4) 0.7111(4) 0.3133(3)
H16 H 0.8686 0.7618 0.2918
C35 C 0.8469(4) 0.6688(4) 0.2829(3)
C36 C 0.8579(4) 0.5937(4) 0.3138(3)
H17 H 0.8422 0.5639 0.2930
C37 C 0.8091(4) 0.7032(4) 0.2177(4)
C38 C 0.8358(6) 0.7613(6) 0.1675(5)
H18 H 0.8783 0.7810 0.1741
C39 C 0.7997(6) 0.7907(5) 0.1070(4)
H19 H 0.8186 0.8300 0.0728
C40 C 0.7366(4) 0.7634(4) 0.0962(3)
C41 C 0.7117(5) 0.7052(6) 0.1472(4)
H20 H 0.6698 0.6844 0.1411
C42 C 0.7472(5) 0.6769(5) 0.2071(4)
H21 H 0.7278 0.6382 0.2415
C43 C 0.6983(4) 0.7947(5) 0.0311(4)
C44 C 0.8773(4) 0.2287(4) 0.5794(4)
C45 C 0.8216(4) 0.2048(4) 0.6339(4)
C46 C 0.7561(4) 0.2452(4) 0.6326(4)
H22 H 0.7440 0.2878 0.5959
C47 C 0.7089(4) 0.2233(4) 0.6848(3)
H23 H 0.6652 0.2519 0.6843
C48 C 0.7249(4) 0.1588(4) 0.7389(4)
C49 C 0.7885(5) 0.1180(5) 0.7380(4)
H24 H 0.7996 0.0737 0.7733
C50 C 0.8366(5) 0.1411(5) 0.6859(5)
H25 H 0.8802 0.1125 0.6863
C51 C 0.6741(4) 0.1356(4) 0.7963(3)
C52 C 0.6475(4) 0.1833(4) 0.8253(3)
H26 H 0.6617 0.2311 0.8084
C53 C 0.5998(4) 0.1623(3) 0.8795(3)
C54 C 0.5778(4) 0.0915(3) 0.9027(3)
H27 H 0.5443 0.0766 0.9377
C55 C 0.6053(4) 0.0437(3) 0.8742(3)
C56 C 0.6539(4) 0.0644(4) 0.8218(3)
H28 H 0.6730 0.0308 0.8036
C58 C 0.5738(4) 0.2132(4) 0.9113(3)
O7 O 0.8770(3) 0.4411(3) 0.3816(3)
O8 O 0.9501(3) 0.4547(3) 0.4517(3)
O9 O 0.9671(3) 0.6960(3) 0.4611(3)
O10 O 0.9123(4) 0.7931(3) 0.3866(3)
O12 O 0.6304(3) 0.7796(4) 0.0337(3)
O13 O 0.8863(4) 0.2894(3) 0.3783(3)
O14 O 0.9583(5) 0.2059(4) 0.4460(3)
O17 O 0.6087(3) 0.2732(3) 0.0487(2)
O19 O 0.8669(3) 0.2924(3) 0.5365(2)
O20 O 0.9287(4) 0.1827(3) 0.5820(3)
O24 O 0.6068(3) 0.2686(3) 0.8999(3)
Cd7 Cd 0.96293(2) 0.82219(2) 0.46781(2)
O11 O 0.7295(4) 0.8302(5) 0.9820(3)
Cd9 Cd 0.54242(2) 0.82861(2) 0.954600(19)
Cd13 Cd 0.71950(3) 0.85422(3) 0.87422(3)
C57 C 0.5808(4) 0.9671(4) 0.8990(3)
C60 C 0.9186(4) 0.9664(4) 0.4228(3)
O15 O 0.9822(3) 0.9509(3) 0.4438(3)
O16 O 0.8758(3) 0.9183(3) 0.4293(3)
O21 O 0.6115(3) 0.9232(2) 0.8753(2)
O22 O 0.5328(3) 0.9502(3) 0.9420(2)
C57_2 C 0.4192(4) 0.0329(4) 0.1010(3)
C60_2 C 0.0814(4) 0.0336(4) 0.5772(3)
C15_2 C 0.0872(4) 0.7733(4) 0.5987(3)
C16_2 C 0.1102(3) 0.8303(4) 0.6226(3)
C17_2 C 0.0848(3) 0.9024(4) 0.5908(3)
H8_2 H 0.0504 0.9153 0.5564
C18_2 C 0.1097(4) 0.9550(3) 0.6092(3)
C19_2 C 0.1604(4) 0.9360(4) 0.6608(3)
H9_2 H 0.1776 0.9722 0.6732
C20_2 C 0.1855(4) 0.8637(4) 0.6938(3)
C21_2 C 0.1595(4) 0.8116(4) 0.6740(3)
H10_2 H 0.1759 0.7625 0.6960
C22_2 C 0.2386(4) 0.8434(4) 0.7492(3)
C23_2 C 0.2314(5) 0.7831(4) 0.8054(4)
H11_2 H 0.1926 0.7538 0.8094
C24_2 C 0.2821(4) 0.7654(4) 0.8569(4)
H12_2 H 0.2775 0.7238 0.8953
C25_2 C 0.3389(4) 0.8089(4) 0.8514(4)
C26_2 C 0.3448(4) 0.8695(4) 0.7953(4)
H13_2 H 0.3826 0.8997 0.7917
C27_2 C 0.2959(4) 0.8863(4) 0.7444(4)
H14_2 H 0.3014 0.9274 0.7058
C28_2 C 0.3927(4) 0.7887(4) 0.9070(3)
C29_2 C 0.0919(4) 0.5195(4) 0.5946(3)
C30_2 C 0.1082(4) 0.4376(4) 0.6250(3)
C31_2 C 0.0850(3) 0.3952(4) 0.5943(3)
H15_2 H 0.0621 0.4166 0.5528
C32_2 C 0.0953(4) 0.3202(4) 0.6245(3)
C33_2 C 0.0694(4) 0.2748(4) 0.5904(3)
C34_2 C 0.1273(4) 0.2889(4) 0.6867(3)
H16_2 H 0.1314 0.2382 0.7082
C35_2 C 0.1531(4) 0.3312(4) 0.7171(3)
C36_2 C 0.1421(4) 0.4063(4) 0.6862(3)
H17_2 H 0.1578 0.4361 0.7070
C37_2 C 0.1909(4) 0.2968(4) 0.7823(4)
C38_2 C 0.1642(6) 0.2387(6) 0.8325(5)
H18_2 H 0.1217 0.2190 0.8259
C39_2 C 0.2003(6) 0.2093(5) 0.8930(4)
H19_2 H 0.1814 0.1700 0.9272
C40_2 C 0.2634(4) 0.2366(4) 0.9038(3)
C41_2 C 0.2883(5) 0.2948(6) 0.8528(4)
H20_2 H 0.3302 0.3156 0.8589
C42_2 C 0.2528(5) 0.3231(5) 0.7929(4)
H21_2 H 0.2722 0.3618 0.7585
C43_2 C 0.3017(4) 0.2053(5) 0.9689(4)
C44_2 C 0.1227(4) 0.7713(4) 0.4206(4)
C45_2 C 0.1784(4) 0.7952(4) 0.3661(4)
C46_2 C 0.2439(4) 0.7548(4) 0.3674(4)
H22_2 H 0.2560 0.7122 0.4041
C47_2 C 0.2911(4) 0.7767(4) 0.3152(3)
H23_2 H 0.3348 0.7481 0.3157
C48_2 C 0.2751(4) 0.8412(4) 0.2611(4)
C49_2 C 0.2115(5) 0.8820(5) 0.2620(4)
H24_2 H 0.2004 0.9263 0.2267
C50_2 C 0.1634(5) 0.8589(5) 0.3141(5)
H25_2 H 0.1198 0.8875 0.3137
C51_2 C 0.3259(4) 0.8644(4) 0.2037(3)
C52_2 C 0.3525(4) 0.8167(4) 0.1747(3)
H26_2 H 0.3383 0.7689 0.1916
C53_2 C 0.4002(4) 0.8377(3) 0.1205(3)
C54_2 C 0.4222(4) 0.9085(3) 0.0973(3)
H27_2 H 0.4557 0.9234 0.0623
C55_2 C 0.3947(4) 0.9563(3) 0.1258(3)
C56_2 C 0.3461(4) 0.9356(4) 0.1782(3)
H28_2 H 0.3270 0.9692 0.1964
C58_2 C 0.4262(4) 0.7868(4) 0.0887(3)
O7_2 O 0.1230(3) 0.5589(3) 0.6184(3)
O8_2 O 0.0499(3) 0.5453(3) 0.5483(3)
O13_2 O 0.1137(4) 0.7106(3) 0.6217(3)
O14_2 O 0.0417(5) 0.7941(4) 0.5540(3)
O18 O 0.4363(3) 0.8369(3) 0.9050(3)
O19_2 O 0.1331(3) 0.7076(3) 0.4635(2)
O20_2 O 0.0713(4) 0.8173(3) 0.4180(3)
O23 O 0.4807(3) 0.8015(3) 0.0515(3)
Cl1_2 Cl 0.73298(16) 0.89048(17) 0.75476(11)
C1_2 C 0.9009(4) 0.7031(4) 0.5976(3)
C2_2 C 0.8423(4) 0.6834(4) 0.6490(3)
C3_2 C 0.8484(5) 0.6155(4) 0.6999(4)
H1_2 H 0.8881 0.5821 0.7005
C4_2 C 0.7971(5) 0.5966(4) 0.7494(3)
H2_2 H 0.8011 0.5500 0.7826
C5_2 C 0.7391(4) 0.6463(4) 0.7508(3)
C6_2 C 0.7316(5) 0.7140(4) 0.6986(4)
H3_2 H 0.6923 0.7479 0.6977
C7_2 C 0.7825(4) 0.7303(4) 0.6484(4)
H4_2 H 0.7761 0.7749 0.6126
C8_2 C 0.6865(4) 0.6277(4) 0.8059(3)
C9_2 C 0.6625(4) 0.6777(4) 0.8334(3)
H5_2 H 0.6789 0.7246 0.8158
C10_2 C 0.6145(4) 0.6601(3) 0.8868(3)
C11_2 C 0.5880(4) 0.5912(3) 0.9114(3)
H6_2 H 0.5539 0.5794 0.9460
C12_2 C 0.6120(4) 0.5405(4) 0.8848(3)
C13_2 C 0.6613(4) 0.5574(4) 0.8323(4)
H7_2 H 0.6776 0.5224 0.8147
C14_2 C 0.5867(4) 0.4650(4) 0.9122(3)
C59_2 C 0.5927(4) 0.7152(4) 0.9159(3)
O1_2 O 0.8903(3) 0.7659(3) 0.5511(3)
O2_2 O 0.9541(3) 0.6579(3) 0.6039(2)
O3_2 O 0.6233(4) 0.4172(3) 0.8970(4)
O4_2 O 0.5329(3) 0.4518(3) 0.9470(2)
O6_2 O 0.6166(3) 0.7759(3) 0.8916(2)
O25_2 O 0.8051(4) 0.9356(5) 0.8731(4)
O26_2 O 0.8040(5) 0.7533(5) 0.8955(5)
O27_2 O 0.4428(3) 0.3522(3) 0.8931(3)
H62_2 H 0.420659 0.402014 0.885025
H63_2 H 0.406832 0.316469 0.916014
H64_2 H 0.786402 0.720506 0.875405
H65_2 H 0.809308 0.726926 0.943844
H66_2 H 0.852496 0.922227 0.855765
H67_2 H 0.812228 0.933415 0.918604
Cd18 Cd 0.52394(3) 0.28813(3) 0.51964(2)
Cl2 Cl 0.59097(12) 0.36938(11) 0.55676(11)
C63 C 0.6978(5) 0.0049(5) 0.5629(5)
C64 C 0.7097(4) 0.0779(4) 0.5488(3)
C65 C 0.7815(4) 0.0963(5) 0.5459(4)
H34 H 0.7915 0.1452 0.5327
C66 C 0.8382(4) 0.0419(5) 0.5627(4)
H35 H 0.8866 0.0540 0.5633
C67 C 0.6467(4) 0.1355(4) 0.5366(3)
C68 C 0.6376(4) 0.1860(4) 0.4718(4)
C69 C 0.6797(4) 0.1851(4) 0.4159(4)
H36 H 0.7201 0.1526 0.4164
C70 C 0.6502(5) 0.2399(5) 0.3620(4)
H37 H 0.6657 0.2515 0.3182
C71 C 0.5916(4) 0.2764(4) 0.3844(4)
C72 C 0.5438(4) 0.3358(4) 0.3444(3)
C73 C 0.5611(5) 0.3665(5) 0.2739(4)
C74 C 0.5612(6) 0.3254(5) 0.2340(5)
H38 H 0.5492 0.2769 0.2522
C75 C 0.5784(6) 0.3554(6) 0.1701(4)
H39 H 0.5763 0.3276 0.1438
C76 C 0.6203(6) 0.4531(7) 0.0722(4)
H40 H 0.6225 0.5052 0.0581
H41 H 0.5847 0.4430 0.0455
H42 H 0.6681 0.4309 0.0671
C77 C 0.5935(6) 0.4661(5) 0.1778(4)
H43 H 0.6025 0.5153 0.1572
C78 C 0.5760(5) 0.4390(5) 0.2434(4)
H44 H 0.5740 0.4692 0.2677
C79 C 0.4813(4) 0.3687(4) 0.3658(3)
C80 C 0.4279(5) 0.4200(5) 0.3224(4)
H45 H 0.4314 0.4420 0.2763
C81 C 0.3730(4) 0.4307(5) 0.3589(4)
H46 H 0.3300 0.4611 0.3436
C82 C 0.3915(4) 0.3865(4) 0.4280(4)
C83 C 0.3462(4) 0.3798(4) 0.4818(4)
C84 C 0.2777(4) 0.4290(4) 0.4669(3)
C85 C 0.2760(5) 0.5006(5) 0.4616(6)
H47 H 0.3176 0.5181 0.4726
C86 C 0.2147(5) 0.5449(5) 0.4407(6)
H48 H 0.2156 0.5938 0.4356
C87 C 0.0892(5) 0.5748(5) 0.3995(4)
C88 C 0.1522(4) 0.4519(5) 0.4364(4)
H49 H 0.1082 0.4353 0.4287
C89 C 0.2117(5) 0.4039(5) 0.4566(4)
H50 H 0.2088 0.3547 0.4635
C90 C 0.3571(4) 0.3310(4) 0.5480(4)
C91 C 0.3055(5) 0.3217(5) 0.6011(4)
H51 H 0.2603 0.3486 0.5991
C92 C 0.3345(4) 0.2672(5) 0.6540(4)
H52 H 0.3138 0.2497 0.6963
C93 C 0.4031(4) 0.2400(4) 0.6343(3)
C94 C 0.4488(4) 0.1785(4) 0.6721(3)
C95 C 0.4262(4) 0.1418(4) 0.7419(3)
C96 C 0.4233(5) 0.1758(5) 0.7878(4)
H53 H 0.4343 0.2245 0.7744
C97 C 0.4050(4) 0.1389(5) 0.8510(4)
H54 H 0.4036 0.1622 0.8813
C98 C 0.3680(6) 0.0311(6) 0.9420(4)
H56 H 0.3175 0.0460 0.9486
H57 H 0.3998 0.0439 0.9699
C99 C 0.3905(5) 0.0340(5) 0.8305(4)
C100 C 0.4090(4) 0.0686(4) 0.7647(4)
H59 H 0.4100 0.0437 0.7357
C101 C 0.5110(4) 0.1478(4) 0.6532(3)
C102 C 0.5555(4) 0.0828(4) 0.6930(3)
H60 H 0.5467 0.0537 0.7372
C103 C 0.6108(4) 0.0714(4) 0.6561(4)
H61 H 0.6483 0.0337 0.6699
C104 C 0.6023(4) 0.1279(4) 0.5909(3)
N1 N 0.4152(3) 0.2802(3) 0.5697(3)
N2 N 0.4578(3) 0.3506(3) 0.4284(3)
N3 N 0.5855(3) 0.2430(3) 0.4520(3)
N4 N 0.5421(3) 0.1728(3) 0.5913(3)
N5 N 0.1534(4) 0.5234(4) 0.4269(3)
N6 N 0.5982(4) 0.4231(5) 0.1421(3)
N8 N 0.3884(4) 0.0684(4) 0.8719(3)
H68 H 0.103754 0.615879 0.35261
H69 H 0.0448714 0.545688 0.391897
H70 H 0.0714934 0.600847 0.433729
C61 C 0.8852(6) 0.9152(6) 0.5990(6)
H29 H 0.9310 0.9354 0.5808
H30 H 0.8761 0.8772 0.5833
H31 H 0.8884 0.8951 0.6467
C62 C 0.7558(5) 0.9555(5) 0.5779(5)
H32 H 0.7474 0.9064 0.5888
H33 H 0.6503 0.9910 0.5618
H55 H 0.3733 0.9790 0.9534
H58 H 0.3793 0.9853 0.8459
N7 N 0.8250(4) 0.9727(4) 0.5780(3)
C61_2 C 0.1148(6) 0.0848(6) 0.4010(6)
H29_2 H 0.0690 0.0646 0.4192
H30_2 H 0.1239 0.1228 0.4167
H31_2 H 0.1116 0.1049 0.3533
C62_2 C 0.2442(5) 0.0445(5) 0.4221(5)
H32_2 H 0.2526 0.0936 0.4112
H33_2 H 0.3497 0.0090 0.4382
H55_2 H 0.6267 0.0210 0.0466
H58_2 H 0.6207 0.0147 0.1541
N7_2 N 0.1750(4) 0.0273(4) 0.4220(3)
Cd18_2 Cd 0.47606(3) 0.71187(3) 0.48036(2)
Cl2_2 Cl 0.40903(12) 0.63062(11) 0.44324(11)
C63_2 C 0.3022(5) 0.9951(5) 0.4371(5)
C64_2 C 0.2903(4) 0.9221(4) 0.4512(3)
C65_2 C 0.2185(4) 0.9037(5) 0.4541(4)
H34_2 H 0.2085 0.8548 0.4673
C66_2 C 0.1618(4) 0.9581(5) 0.4373(4)
H35_2 H 0.1134 0.9460 0.4367
C67_2 C 0.3533(4) 0.8645(4) 0.4634(3)
C68_2 C 0.3624(4) 0.8140(4) 0.5282(4)
C69_2 C 0.3203(4) 0.8149(4) 0.5841(4)
H36_2 H 0.2799 0.8474 0.5836
C70_2 C 0.3498(5) 0.7601(5) 0.6380(4)
H37_2 H 0.3343 0.7485 0.6818
C71_2 C 0.4084(4) 0.7236(4) 0.6156(4)
C72_2 C 0.4562(4) 0.6642(4) 0.6556(3)
C73_2 C 0.4389(5) 0.6335(5) 0.7261(4)
C74_2 C 0.4388(6) 0.6746(5) 0.7660(5)
H38_2 H 0.4508 0.7231 0.7478
C75_2 C 0.4216(6) 0.6446(6) 0.8299(4)
H39_2 H 0.4237 0.6724 0.8562
C76_2 C 0.3797(6) 0.5469(7) 0.9278(4)
H40_2 H 0.3775 0.4948 0.9419
H41_2 H 0.4153 0.5570 0.9545
H42_2 H 0.3319 0.5691 0.9329
C77_2 C 0.4065(6) 0.5339(5) 0.8222(4)
H43_2 H 0.3975 0.4847 0.8428
C78_2 C 0.4240(5) 0.5610(5) 0.7566(4)
H44_2 H 0.4260 0.5308 0.7323
C79_2 C 0.5187(4) 0.6313(4) 0.6342(3)
C80_2 C 0.5721(5) 0.5800(5) 0.6776(4)
H45_2 H 0.5686 0.5580 0.7237
C81_2 C 0.6270(4) 0.5693(5) 0.6411(4)
H46_2 H 0.6700 0.5389 0.6564
C82_2 C 0.6085(4) 0.6135(4) 0.5720(4)
C83_2 C 0.6538(4) 0.6202(4) 0.5182(4)
C84_2 C 0.7223(4) 0.5710(4) 0.5331(3)
C85_2 C 0.7240(5) 0.4994(5) 0.5384(6)
H47_2 H 0.6824 0.4819 0.5274
C86_2 C 0.7853(5) 0.4551(5) 0.5593(6)
H48_2 H 0.7844 0.4062 0.5644
C87_2 C 0.9108(5) 0.4252(5) 0.6005(4)
C88_2 C 0.8478(4) 0.5481(5) 0.5636(4)
H49_2 H 0.8918 0.5647 0.5713
C89_2 C 0.7883(5) 0.5961(5) 0.5434(4)
H50_2 H 0.7912 0.6453 0.5365
C90_2 C 0.6429(4) 0.6690(4) 0.4520(4)
C91_2 C 0.6945(5) 0.6783(5) 0.3989(4)
H51_2 H 0.7397 0.6514 0.4009
C92_2 C 0.6655(4) 0.7328(5) 0.3460(4)
H52_2 H 0.6862 0.7503 0.3037
C93_2 C 0.5969(4) 0.7600(4) 0.3657(3)
C94_2 C 0.5512(4) 0.8215(4) 0.3279(3)
C95_2 C 0.5738(4) 0.8582(4) 0.2581(3)
C96_2 C 0.5767(5) 0.8242(5) 0.2122(4)
H53_2 H 0.5657 0.7755 0.2256
C97_2 C 0.5950(4) 0.8611(5) 0.1490(4)
H54_2 H 0.5964 0.8378 0.1187
C98_2 C 0.6320(6) 0.9689(6) 0.0580(4)
H56_2 H 0.6825 0.9540 0.0514
H57_2 H 0.6002 0.9561 0.0301
C99_2 C 0.6095(5) 0.9660(5) 0.1695(4)
C100_2 C 0.5910(4) 0.9314(4) 0.2353(4)
H59_2 H 0.5900 0.9563 0.2643
C101_2 C 0.4890(4) 0.8522(4) 0.3468(3)
C102_2 C 0.4445(4) 0.9172(4) 0.3070(3)
H60_2 H 0.4533 0.9463 0.2628
C103_2 C 0.3892(4) 0.9286(4) 0.3439(4)
H61_2 H 0.3517 0.9663 0.3301
C104_2 C 0.3977(4) 0.8721(4) 0.4091(3)
N1_2 N 0.5848(3) 0.7198(3) 0.4303(3)
N2_2 N 0.5422(3) 0.6494(3) 0.5716(3)
N3_2 N 0.4145(3) 0.7570(3) 0.5480(3)
N4_2 N 0.4579(3) 0.8272(3) 0.4087(3)
N5_2 N 0.8466(4) 0.4766(4) 0.5731(3)
N6_2 N 0.4018(4) 0.5769(5) 0.8579(3)
N8_2 N 0.6116(4) 0.9316(4) 0.1281(3)
H68_2 H 0.896246 0.384121 0.64739
H69_2 H 0.955129 0.454312 0.608103
H70_2 H 0.928507 0.399153 0.566271
loop_
_geom_bond_atom_site_label_1
_geom_bond_atom_site_label_2
_geom_bond_site_symmetry_1
_geom_bond_site_symmetry_2
Cd2 O1 1_555 1_555
Cd3 O5 1_555 1_555
Cd4 Cl1 1_555 1_555
Cd5 O3 1_555 1_555
C1 C2 1_555 1_555
C2 C3 1_555 1_555
C3 H1 1_555 1_555
C4 C3 1_555 1_555
H2 C4 1_555 1_555
C5 C4 1_555 1_555
C6 C5 1_555 1_555
H3 C6 1_555 1_555
C7 C2 1_555 1_555
H4 C7 1_555 1_555
C8 C5 1_555 1_555
C9 C8 1_555 1_555
H5 C9 1_555 1_555
C10 C9 1_555 1_555
C11 C10 1_555 1_555
H6 C11 1_555 1_555
C12 C11 1_555 1_555
C13 C8 1_555 1_555
H7 C13 1_555 1_555
C14 C12 1_555 1_555
C59 C10 1_555 1_555
O1 C1 1_555 1_555
O2 C1 1_555 1_555
O3 C14 1_555 1_555
O4 Cd5 1_555 1_555
O5 C59 1_555 1_555
O6 Cd3 1_555 1_555
O25 Cd4 1_555 1_555
O26 Cd4 1_555 1_555
O27 Cd5 1_555 1_555
O30 Cd2 1_555 1_555
O31 Cd4 1_555 1_555
O33 Cd2 1_555 1_555
O34 Cd2 1_555 1_555
O36 Cd3 1_555 1_555
O37 Cd3 1_555 1_555
O38 Cd3 1_555 1_555
O40 Cd5 1_555 1_555
Cd2 O29 1_555 1_555
Cd4 O6 1_555 1_555
Cd4 O37 1_555 1_555
C6 C7 1_555 1_555
C12 C13 1_555 1_555
C14 O4 1_555 1_555
C59 O6 1_555 1_555
O27 H62 1_555 1_555
O27 H63 1_555 1_555
O26 H64 1_555 1_555
O26 H65 1_555 1_555
O25 H66 1_555 1_555
O25 H67 1_555 1_555
C15 C16 1_555 1_555
C16 C17 1_555 1_555
C17 H8 1_555 1_555
C18 C17 1_555 1_555
C19 C18 1_555 1_555
H9 C19 1_555 1_555
C20 C19 1_555 1_555
C21 C16 1_555 1_555
H10 C21 1_555 1_555
C22 C20 1_555 1_555
C23 C22 1_555 1_555
H11 C23 1_555 1_555
C24 C23 1_555 1_555
H12 C24 1_555 1_555
C25 C24 1_555 1_555
C26 C25 1_555 1_555
H13 C26 1_555 1_555
C27 C22 1_555 1_555
H14 C27 1_555 1_555
C28 C25 1_555 1_555
C29 C30 1_555 1_555
C30 C31 1_555 1_555
C31 H15 1_555 1_555
C32 C31 1_555 1_555
C33 C32 1_555 1_555
C34 C32 1_555 1_555
H16 C34 1_555 1_555
C35 C34 1_555 1_555
C36 C30 1_555 1_555
H17 C36 1_555 1_555
C37 C35 1_555 1_555
C38 C37 1_555 1_555
H18 C38 1_555 1_555
C39 C38 1_555 1_555
H19 C39 1_555 1_555
C40 C39 1_555 1_555
C41 C40 1_555 1_555
H20 C41 1_555 1_555
C42 C37 1_555 1_555
H21 C42 1_555 1_555
C43 C40 1_555 1_555
C44 C45 1_555 1_555
C45 C46 1_555 1_555
C46 H22 1_555 1_555
C47 C46 1_555 1_555
H23 C47 1_555 1_555
C48 C47 1_555 1_555
C49 C48 1_555 1_555
H24 C49 1_555 1_555
C50 C45 1_555 1_555
H25 C50 1_555 1_555
C51 C48 1_555 1_555
C52 C51 1_555 1_555
H26 C52 1_555 1_555
C53 C52 1_555 1_555
C54 C53 1_555 1_555
H27 C54 1_555 1_555
C55 C54 1_555 1_555
C56 C51 1_555 1_555
H28 C56 1_555 1_555
C58 C53 1_555 1_555
O7 Cd1 1_555 1_555
O8 Cd1 1_555 1_555
O9 C33 1_555 1_555
O10 C33 1_555 1_555
O12 C43 1_555 1_555
O13 Cd1 1_555 1_555
O14 Cd1 1_555 1_555
O17 C28 1_555 1_555
O36 C28 1_555 1_555
O19 Cd1 1_555 1_555
O39 C58 1_555 1_555
O24 C58 1_555 1_555
Cd7 O9 1_555 1_555
Cd15 O24 1_555 1_555
C15 O13 1_555 1_555
C15 O14 1_555 1_555
C20 C21 1_555 1_555
C26 C27 1_555 1_555
C29 O7 1_555 1_555
C29 O8 1_555 1_555
C35 C36 1_555 1_555
C41 C42 1_555 1_555
C44 O19 1_555 1_555
C44 O20 1_555 1_555
C49 C50 1_555 1_555
C55 C56 1_555 1_555
O10 Cd7 1_555 1_555
Cd13 O11 1_555 1_555
O15 C60 1_555 1_555
O16 C60 1_555 1_555
O21 C57 1_555 1_555
O22 C57 1_555 1_555
Cd7 O15 1_555 1_555
Cd9 O21 1_555 1_555
Cd13 O21 1_555 1_555
O16 Cd7 1_555 1_555
O22 Cd9 1_555 1_555
O33 C60_2 1_555 1_555
O34 C60_2 1_555 1_555
O37 C57_2 1_555 1_555
O38 C57_2 1_555 1_555
C15_2 C16_2 1_555 1_555
C16_2 C17_2 1_555 1_555
C17_2 H8_2 1_555 1_555
C18_2 C17_2 1_555 1_555
C19_2 C18_2 1_555 1_555
H9_2 C19_2 1_555 1_555
C20_2 C19_2 1_555 1_555
C21_2 C16_2 1_555 1_555
H10_2 C21_2 1_555 1_555
C22_2 C20_2 1_555 1_555
C23_2 C22_2 1_555 1_555
H11_2 C23_2 1_555 1_555
C24_2 C23_2 1_555 1_555
H12_2 C24_2 1_555 1_555
C25_2 C24_2 1_555 1_555
C26_2 C25_2 1_555 1_555
H13_2 C26_2 1_555 1_555
C27_2 C22_2 1_555 1_555
H14_2 C27_2 1_555 1_555
C28_2 C25_2 1_555 1_555
C29_2 C30_2 1_555 1_555
C30_2 C31_2 1_555 1_555
C31_2 H15_2 1_555 1_555
C32_2 C31_2 1_555 1_555
C33_2 C32_2 1_555 1_555
C34_2 C32_2 1_555 1_555
H16_2 C34_2 1_555 1_555
C35_2 C34_2 1_555 1_555
C36_2 C30_2 1_555 1_555
H17_2 C36_2 1_555 1_555
C37_2 C35_2 1_555 1_555
C38_2 C37_2 1_555 1_555
H18_2 C38_2 1_555 1_555
C39_2 C38_2 1_555 1_555
H19_2 C39_2 1_555 1_555
C40_2 C39_2 1_555 1_555
C41_2 C40_2 1_555 1_555
H20_2 C41_2 1_555 1_555
C42_2 C37_2 1_555 1_555
H21_2 C42_2 1_555 1_555
C43_2 C40_2 1_555 1_555
C44_2 C45_2 1_555 1_555
C45_2 C46_2 1_555 1_555
C46_2 H22_2 1_555 1_555
C47_2 C46_2 1_555 1_555
H23_2 C47_2 1_555 1_555
C48_2 C47_2 1_555 1_555
C49_2 C48_2 1_555 1_555
H24_2 C49_2 1_555 1_555
C50_2 C45_2 1_555 1_555
H25_2 C50_2 1_555 1_555
C51_2 C48_2 1_555 1_555
C52_2 C51_2 1_555 1_555
H26_2 C52_2 1_555 1_555
C53_2 C52_2 1_555 1_555
C54_2 C53_2 1_555 1_555
H27_2 C54_2 1_555 1_555
C55_2 C54_2 1_555 1_555
C56_2 C51_2 1_555 1_555
H28_2 C56_2 1_555 1_555
C58_2 C53_2 1_555 1_555
O7_2 Cd6 1_555 1_555
O8_2 Cd6 1_555 1_555
O29 C33_2 1_555 1_555
O30 C33_2 1_555 1_555
O32 C43_2 1_555 1_555
O13_2 Cd6 1_555 1_555
O14_2 Cd6 1_555 1_555
O35 C28_2 1_555 1_555
O18 C28_2 1_555 1_555
O19_2 Cd6 1_555 1_555
O23 C58_2 1_555 1_555
O40 C58_2 1_555 1_555
Cd9 O18 1_555 1_555
C15_2 O13_2 1_555 1_555
C15_2 O14_2 1_555 1_555
C20_2 C21_2 1_555 1_555
C26_2 C27_2 1_555 1_555
C29_2 O7_2 1_555 1_555
C29_2 O8_2 1_555 1_555
C35_2 C36_2 1_555 1_555
C41_2 C42_2 1_555 1_555
C44_2 O19_2 1_555 1_555
C44_2 O20_2 1_555 1_555
C49_2 C50_2 1_555 1_555
C55_2 C56_2 1_555 1_555
Cd7 O1_2 1_555 1_555
Cd9 O28 1_555 1_555
Cd13 Cl1_2 1_555 1_555
Cd15 O3_2 1_555 1_555
C1_2 C2_2 1_555 1_555
C2_2 C3_2 1_555 1_555
C3_2 H1_2 1_555 1_555
C4_2 C3_2 1_555 1_555
H2_2 C4_2 1_555 1_555
C5_2 C4_2 1_555 1_555
C6_2 C5_2 1_555 1_555
H3_2 C6_2 1_555 1_555
C7_2 C2_2 1_555 1_555
H4_2 C7_2 1_555 1_555
C8_2 C5_2 1_555 1_555
C9_2 C8_2 1_555 1_555
H5_2 C9_2 1_555 1_555
C10_2 C9_2 1_555 1_555
C11_2 C10_2 1_555 1_555
H6_2 C11_2 1_555 1_555
C12_2 C11_2 1_555 1_555
C13_2 C8_2 1_555 1_555
H7_2 C13_2 1_555 1_555
C14_2 C12_2 1_555 1_555
C59_2 C10_2 1_555 1_555
O1_2 C1_2 1_555 1_555
O2_2 C1_2 1_555 1_555
O3_2 C14_2 1_555 1_555
O4_2 Cd15 1_555 1_555
O28 C59_2 1_555 1_555
O6_2 Cd9 1_555 1_555
O25_2 Cd13 1_555 1_555
O26_2 Cd13 1_555 1_555
O27_2 Cd15 1_555 1_555
Cd13 O6_2 1_555 1_555
C6_2 C7_2 1_555 1_555
C12_2 C13_2 1_555 1_555
C14_2 O4_2 1_555 1_555
C59_2 O6_2 1_555 1_555
O27_2 H62_2 1_555 1_555
O27_2 H63_2 1_555 1_555
O26_2 H64_2 1_555 1_555
O26_2 H65_2 1_555 1_555
O25_2 H66_2 1_555 1_555
O25_2 H67_2 1_555 1_555
Cd18 Cl2 1_555 1_555
C64 C63 1_555 1_555
C65 C64 1_555 1_555
H34 C65 1_555 1_555
C66 C65 1_555 1_555
H35 C66 1_555 1_555
C67 C64 1_555 1_555
C68 C67 1_555 1_555
C69 C68 1_555 1_555
H36 C69 1_555 1_555
C70 C69 1_555 1_555
H37 C70 1_555 1_555
C71 C70 1_555 1_555
C72 C71 1_555 1_555
C73 C72 1_555 1_555
C74 C73 1_555 1_555
H38 C74 1_555 1_555
C75 C74 1_555 1_555
H39 C75 1_555 1_555
C76 H40 1_555 1_555
H41 C76 1_555 1_555
H42 C76 1_555 1_555
C77 H43 1_555 1_555
C78 C73 1_555 1_555
H44 C78 1_555 1_555
C79 C72 1_555 1_555
C80 C79 1_555 1_555
H45 C80 1_555 1_555
C81 C80 1_555 1_555
H46 C81 1_555 1_555
C82 C81 1_555 1_555
C83 C82 1_555 1_555
C84 C83 1_555 1_555
C85 C84 1_555 1_555
H47 C85 1_555 1_555
C86 C85 1_555 1_555
H48 C86 1_555 1_555
C87 N5 1_555 1_555
C88 H49 1_555 1_555
C89 C84 1_555 1_555
H50 C89 1_555 1_555
C90 C83 1_555 1_555
C91 C90 1_555 1_555
H51 C91 1_555 1_555
C92 C91 1_555 1_555
H52 C92 1_555 1_555
C93 C92 1_555 1_555
C94 C93 1_555 1_555
C95 C94 1_555 1_555
C96 C95 1_555 1_555
H53 C96 1_555 1_555
C97 C96 1_555 1_555
H54 C97 1_555 1_555
H56 C98 1_555 1_555
H57 C98 1_555 1_555
C100 C95 1_555 1_555
H59 C100 1_555 1_555
C101 C94 1_555 1_555
C102 C101 1_555 1_555
H60 C102 1_555 1_555
C103 C102 1_555 1_555
H61 C103 1_555 1_555
C104 C67 1_555 1_555
N1 Cd18 1_555 1_555
N2 Cd18 1_555 1_555
N3 Cd18 1_555 1_555
N4 Cd18 1_555 1_555
N5 C86 1_555 1_555
N6 C75 1_555 1_555
N8 C97 1_555 1_555
C68 N3 1_555 1_555
C71 N3 1_555 1_555
C76 N6 1_555 1_555
C77 C78 1_555 1_555
C77 N6 1_555 1_555
C79 N2 1_555 1_555
C82 N2 1_555 1_555
C88 C89 1_555 1_555
C88 N5 1_555 1_555
C90 N1 1_555 1_555
C93 N1 1_555 1_555
C98 N8 1_555 1_555
C99 C100 1_555 1_555
C99 N8 1_555 1_555
C101 N4 1_555 1_555
C103 C104 1_555 1_555
C104 N4 1_555 1_555
C87 H68 1_555 1_555
C87 H69 1_555 1_555
C87 H70 1_555 1_555
C61 H29 1_555 1_555
H30 C61 1_555 1_555
H31 C61 1_555 1_555
C62 H32 1_555 1_555
N7 C61 1_555 1_555
C62 N7 1_555 1_555
C61_2 H29_2 1_555 1_555
H30_2 C61_2 1_555 1_555
H31_2 C61_2 1_555 1_555
C62_2 H32_2 1_555 1_555
N7_2 C61_2 1_555 1_555
C62_2 N7_2 1_555 1_555
Cd18_2 Cl2_2 1_555 1_555
C64_2 C63_2 1_555 1_555
C65_2 C64_2 1_555 1_555
H34_2 C65_2 1_555 1_555
C66_2 C65_2 1_555 1_555
H35_2 C66_2 1_555 1_555
C67_2 C64_2 1_555 1_555
C68_2 C67_2 1_555 1_555
C69_2 C68_2 1_555 1_555
H36_2 C69_2 1_555 1_555
C70_2 C69_2 1_555 1_555
H37_2 C70_2 1_555 1_555
C71_2 C70_2 1_555 1_555
C72_2 C71_2 1_555 1_555
C73_2 C72_2 1_555 1_555
C74_2 C73_2 1_555 1_555
H38_2 C74_2 1_555 1_555
C75_2 C74_2 1_555 1_555
H39_2 C75_2 1_555 1_555
C76_2 H40_2 1_555 1_555
H41_2 C76_2 1_555 1_555
H42_2 C76_2 1_555 1_555
C77_2 H43_2 1_555 1_555
C78_2 C73_2 1_555 1_555
H44_2 C78_2 1_555 1_555
C79_2 C72_2 1_555 1_555
C80_2 C79_2 1_555 1_555
H45_2 C80_2 1_555 1_555
C81_2 C80_2 1_555 1_555
H46_2 C81_2 1_555 1_555
C82_2 C81_2 1_555 1_555
C83_2 C82_2 1_555 1_555
C84_2 C83_2 1_555 1_555
C85_2 C84_2 1_555 1_555
H47_2 C85_2 1_555 1_555
C86_2 C85_2 1_555 1_555
H48_2 C86_2 1_555 1_555
C87_2 N5_2 1_555 1_555
C88_2 H49_2 1_555 1_555
C89_2 C84_2 1_555 1_555
H50_2 C89_2 1_555 1_555
C90_2 C83_2 1_555 1_555
C91_2 C90_2 1_555 1_555
H51_2 C91_2 1_555 1_555
C92_2 C91_2 1_555 1_555
H52_2 C92_2 1_555 1_555
C93_2 C92_2 1_555 1_555
C94_2 C93_2 1_555 1_555
C95_2 C94_2 1_555 1_555
C96_2 C95_2 1_555 1_555
H53_2 C96_2 1_555 1_555
C97_2 C96_2 1_555 1_555
H54_2 C97_2 1_555 1_555
H56_2 C98_2 1_555 1_555
H57_2 C98_2 1_555 1_555
C100_2 C95_2 1_555 1_555
H59_2 C100_2 1_555 1_555
C101_2 C94_2 1_555 1_555
C102_2 C101_2 1_555 1_555
H60_2 C102_2 1_555 1_555
C103_2 C102_2 1_555 1_555
H61_2 C103_2 1_555 1_555
C104_2 C67_2 1_555 1_555
N1_2 Cd18_2 1_555 1_555
N2_2 Cd18_2 1_555 1_555
N3_2 Cd18_2 1_555 1_555
N4_2 Cd18_2 1_555 1_555
N5_2 C86_2 1_555 1_555
N6_2 C75_2 1_555 1_555
N8_2 C97_2 1_555 1_555
C68_2 N3_2 1_555 1_555
C71_2 N3_2 1_555 1_555
C76_2 N6_2 1_555 1_555
C77_2 C78_2 1_555 1_555
C77_2 N6_2 1_555 1_555
C79_2 N2_2 1_555 1_555
C82_2 N2_2 1_555 1_555
C88_2 C89_2 1_555 1_555
C88_2 N5_2 1_555 1_555
C90_2 N1_2 1_555 1_555
C93_2 N1_2 1_555 1_555
C98_2 N8_2 1_555 1_555
C99_2 C100_2 1_555 1_555
C99_2 N8_2 1_555 1_555
C101_2 N4_2 1_555 1_555
C103_2 C104_2 1_555 1_555
C104_2 N4_2 1_555 1_555
C87_2 H68_2 1_555 1_555
C87_2 H69_2 1_555 1_555
C87_2 H70_2 1_555 1_555

#END
