
###############################################################################
#
# This file contains modified crystal structure data generated from the
# MOF subset of the Cambridge Structural Database (CSD) v543 
# hosted by the Cambridge Crystallographic Data Centre (CCDC).
#
# This work is licensed under the Creative Commons
# Attribution-NonCommercial-ShareAlike 4.0 International License.
# To view a copy of this license, visit
# http://creativecommons.org/licenses/by-nc-sa/4.0/
# or send a letter to
# Creative Commons, PO Box 1866, Mountain View, CA 94042, USA.
#
# CIF created using the CSD Python API on 29 September 2022
# The structure has been converted into the P1 space group
# The structure has a 3D framework
# The original CSD entry HEFDON is in the triclinic crystal system
# The framework has been calculated to contain at least 10.0% void space
# The void calculation uses a probe of radius 1.32A, grid spacing 0.4
# The framework is charged, counterions have been retained in the structure
#
###############################################################################

data_HEFDON
_chemical_formula_moiety         '(C60 H28 Ba2 Cd2 O24 1-)n'
_symmetry_cell_setting           triclinic
_symmetry_space_group_name_H-M   'P 1'
_symmetry_Int_Tables_number      1
_space_group_name_Hall           'P 1'
loop_
_symmetry_equiv_pos_site_id
_symmetry_equiv_pos_as_xyz
1 x,y,z
_cell_length_a                   9.9445(6)
_cell_length_b                   18.5391(11)
_cell_length_c                   20.2889(12)
_cell_angle_alpha                88.904(3)
_cell_angle_beta                 83.648(3)
_cell_angle_gamma                86.713(3)
_cell_volume                     3711.12
loop_
_atom_site_label
_atom_site_type_symbol
_atom_site_fract_x
_atom_site_fract_y
_atom_site_fract_z
Ba1 Ba 0.0427(3) 0.24190(15) 0.57638(13)
Ba1_2 Ba 0.9573(3) 0.75810(15) 0.42362(13)
C1 C 0.0156(9) 0.1149(4) 0.4157(4)
C2 C 0.0353(8) 0.1679(4) 0.3588(3)
C3 C 0.1141(8) 0.2272(4) 0.3631(4)
H1 H 0.1563 0.2343 0.4020
C4 C 0.1304(8) 0.2756(4) 0.3105(3)
H2 H 0.1846 0.3157 0.3136
C5 C 0.0685(7) 0.2664(4) 0.2531(3)
C8 C 0.0804(7) 0.3188(4) 0.1974(3)
C9 C 0.2066(7) 0.3462(4) 0.1750(3)
H5 H 0.2837 0.3322 0.1970
C10 C 0.2199(6) 0.3936(3) 0.1209(3)
C11 C 0.1084(7) 0.4162(3) 0.0893(3)
H6 H 0.1166 0.4491 0.0529
C15 C 0.3575(7) 0.4161(4) 0.0930(3)
O2 O 0.0812(7) 0.1230(3) 0.4631(3)
O5 O 0.3648(5) 0.4512(3) 0.0389(2)
O6 O 0.4589(5) 0.3960(3) 0.1202(2)
Cd4 Cd 0.61289(4) 0.45305(2) 0.038866(19)
Cd8 Cd 0.10066(4) 0.04124(2) 0.544380(19)
Cd5 Cd 0.38711(4) 0.54695(2) 0.961134(19)
O30 O 0.0768(6) 0.9056(4) 0.3938(3)
C6 C 0.9930(7) 0.2062(4) 0.2488(4)
H3 H 0.9536 0.1983 0.2092
C7 C 0.9743(7) 0.1576(4) 0.3012(4)
H4 H 0.9202 0.1175 0.2980
C12 C 0.9829(7) 0.3892(4) 0.1124(3)
C13 C 0.9711(7) 0.3415(4) 0.1646(3)
H7 H 0.8850 0.3234 0.1786
C14 C 0.8584(7) 0.4150(4) 0.0793(3)
O1 O 0.9297(6) 0.0677(3) 0.4104(3)
O3 O 0.7630(6) 0.3718(3) 0.0825(3)
O4 O 0.8539(5) 0.4741(3) 0.0516(2)
Cd15 Cd 0.89934(4) 0.95876(2) 0.455620(19)
C46 C 0.4717(7) 0.6022(4) 0.0957(3)
C47 C 0.4653(7) 0.6593(4) 0.1484(3)
C48 C 0.5464(9) 0.6515(4) 0.1973(4)
H22 H 0.6080 0.6104 0.1978
C49 C 0.5418(9) 0.7030(5) 0.2477(4)
H23 H 0.5985 0.6961 0.2823
C50 C 0.4542(7) 0.7639(4) 0.2467(3)
C51 C 0.3773(8) 0.7731(4) 0.1949(4)
H24 H 0.3198 0.8155 0.1924
C52 C 0.3821(8) 0.7216(5) 0.1462(4)
H25 H 0.3276 0.7290 0.1107
C53 C 0.4474(7) 0.8167(4) 0.3004(3)
C54 C 0.5646(7) 0.8365(4) 0.3251(3)
H26 H 0.6498 0.8144 0.3084
C55 C 0.5580(7) 0.8892(4) 0.3747(3)
C56 C 0.4344(7) 0.9205(4) 0.4007(3)
H27 H 0.4302 0.9560 0.4341
C57 C 0.3158(7) 0.8994(4) 0.3774(3)
C58 C 0.3227(8) 0.8488(4) 0.3271(3)
H28 H 0.2417 0.8359 0.3106
C59 C 0.1809(7) 0.9294(4) 0.4099(3)
C60 C 0.6845(7) 0.9127(4) 0.4016(3)
O25 O 0.3888(5) 0.6124(3) 0.0522(2)
O27 O 0.5584(5) 0.5522(3) 0.1003(2)
O32 O 0.1827(6) 0.9775(4) 0.4498(3)
O33 O 0.8173(6) 0.0225(4) 0.5502(3)
O35 O 0.6794(6) 0.9666(3) 0.4329(3)
O38 O 0.7893(7) 0.8744(5) 0.3901(5)
C16 C 0.5283(7) 0.3978(4) 0.9043(3)
C17 C 0.5347(7) 0.3407(4) 0.8516(3)
C18 C 0.4536(9) 0.3485(4) 0.8027(4)
H8 H 0.3920 0.3896 0.8022
C19 C 0.4582(9) 0.2970(5) 0.7523(4)
H9 H 0.4015 0.3039 0.7177
C20 C 0.5458(7) 0.2361(4) 0.7533(3)
C21 C 0.6227(8) 0.2269(4) 0.8051(4)
H10 H 0.6802 0.1845 0.8076
C22 C 0.6179(8) 0.2784(5) 0.8538(4)
H11 H 0.6724 0.2710 0.8893
C23 C 0.5526(7) 0.1833(4) 0.6996(3)
C24 C 0.4354(7) 0.1635(4) 0.6749(3)
H12 H 0.3502 0.1856 0.6916
C25 C 0.4420(7) 0.1108(4) 0.6253(3)
C26 C 0.5656(7) 0.0795(4) 0.5993(3)
H13 H 0.5698 0.0440 0.5659
C27 C 0.6842(7) 0.1006(4) 0.6226(3)
C28 C 0.6773(8) 0.1512(4) 0.6729(3)
H14 H 0.7583 0.1641 0.6894
C29 C 0.8191(7) 0.0706(4) 0.5901(3)
C30 C 0.3155(7) 0.0873(4) 0.5984(3)
O7 O 0.6112(5) 0.3876(3) 0.9478(2)
O8 O 0.4416(5) 0.4478(3) 0.8997(2)
O9 O 0.9232(6) 0.0944(4) 0.6062(3)
O11 O 0.3206(6) 0.0334(3) 0.5671(3)
O12 O 0.2107(7) 0.1256(5) 0.6099(5)
O20 O 0.6352(5) 0.5488(3) 0.9611(2)
O15 O 0.9188(7) 0.8770(3) 0.5369(3)
C36 C 0.0070(7) 0.7938(4) 0.7512(4)
H17 H 0.0464 0.8017 0.7908
C37 C 0.0257(7) 0.8424(4) 0.6988(4)
H18 H 0.0798 0.8825 0.7020
C42 C 0.0171(7) 0.6108(4) 0.8876(3)
C43 C 0.0289(7) 0.6585(4) 0.8354(3)
H21 H 0.1150 0.6766 0.8214
C44 C 0.1416(7) 0.5850(4) 0.9207(3)
O13 O 0.0703(6) 0.9323(3) 0.5896(3)
O17 O 0.2370(6) 0.6282(3) 0.9175(3)
O18 O 0.1461(5) 0.5259(3) 0.9484(2)
O24 O 0.5411(5) 0.6040(3) 0.8798(2)
C31 C 0.9844(9) 0.8851(4) 0.5843(4)
C32 C 0.9647(8) 0.8321(4) 0.6412(3)
C33 C 0.8859(8) 0.7728(4) 0.6369(4)
H15 H 0.8437 0.7657 0.5980
C34 C 0.8696(8) 0.7244(4) 0.6895(3)
H16 H 0.8154 0.6843 0.6864
C35 C 0.9315(7) 0.7336(4) 0.7469(3)
C38 C 0.9196(7) 0.6812(4) 0.8026(3)
C39 C 0.7934(7) 0.6538(4) 0.8250(3)
H19 H 0.7163 0.6678 0.8030
C40 C 0.7801(6) 0.6064(3) 0.8791(3)
C41 C 0.8916(7) 0.5838(3) 0.9107(3)
H20 H 0.8834 0.5509 0.9471
C45 C 0.6425(7) 0.5839(4) 0.9070(3)
loop_
_geom_bond_atom_site_label_1
_geom_bond_atom_site_label_2
_geom_bond_site_symmetry_1
_geom_bond_site_symmetry_2
C1 C2 1_555 1_555
C2 C3 1_555 1_555
C3 H1 1_555 1_555
C4 C3 1_555 1_555
H2 C4 1_555 1_555
C5 C4 1_555 1_555
C8 C5 1_555 1_555
C9 C8 1_555 1_555
H5 C9 1_555 1_555
C10 C9 1_555 1_555
C11 C10 1_555 1_555
H6 C11 1_555 1_555
C15 C10 1_555 1_555
O2 C1 1_555 1_555
O5 C15 1_555 1_555
O6 C15 1_555 1_555
Cd4 O5 1_555 1_555
Cd8 O2 1_555 1_555
O6 Cd4 1_555 1_555
Cd4 O3 1_555 1_555
H3 C6 1_555 1_555
H4 C7 1_555 1_555
H7 C13 1_555 1_555
C14 C12 1_555 1_555
O3 C14 1_555 1_555
O4 C14 1_555 1_555
Cd15 O35 1_555 1_555
C46 C47 1_555 1_555
C47 C48 1_555 1_555
C48 H22 1_555 1_555
C49 C48 1_555 1_555
H23 C49 1_555 1_555
C50 C49 1_555 1_555
C51 C50 1_555 1_555
H24 C51 1_555 1_555
C52 C47 1_555 1_555
H25 C52 1_555 1_555
C53 C50 1_555 1_555
C54 C53 1_555 1_555
H26 C54 1_555 1_555
C55 C54 1_555 1_555
C56 C55 1_555 1_555
H27 C56 1_555 1_555
C57 C56 1_555 1_555
C58 C53 1_555 1_555
H28 C58 1_555 1_555
C59 C57 1_555 1_555
C60 C55 1_555 1_555
O27 Cd4 1_555 1_555
O30 C59 1_555 1_555
O32 C59 1_555 1_555
O35 C60 1_555 1_555
O38 Cd15 1_555 1_555
C6 C7 1_555 1_555
C12 C13 1_555 1_555
C46 O25 1_555 1_555
C46 O27 1_555 1_555
C51 C52 1_555 1_555
C57 C58 1_555 1_555
C60 O38 1_555 1_555
C16 C17 1_555 1_555
C17 C18 1_555 1_555
C18 H8 1_555 1_555
C19 C18 1_555 1_555
H9 C19 1_555 1_555
C20 C19 1_555 1_555
C21 C20 1_555 1_555
H10 C21 1_555 1_555
C22 C17 1_555 1_555
H11 C22 1_555 1_555
C23 C20 1_555 1_555
C24 C23 1_555 1_555
H12 C24 1_555 1_555
C25 C24 1_555 1_555
C26 C25 1_555 1_555
H13 C26 1_555 1_555
C27 C26 1_555 1_555
C28 C23 1_555 1_555
H14 C28 1_555 1_555
C29 C27 1_555 1_555
C30 C25 1_555 1_555
O8 C16 1_555 1_555
O9 C29 1_555 1_555
O33 C29 1_555 1_555
O11 C30 1_555 1_555
O12 C30 1_555 1_555
Cd5 O8 1_555 1_555
Cd8 O11 1_555 1_555
C16 O7 1_555 1_555
C21 C22 1_555 1_555
C27 C28 1_555 1_555
O12 Cd8 1_555 1_555
Cd5 O20 1_555 1_555
O15 Cd15 1_555 1_555
Cd5 O17 1_555 1_555
H17 C36 1_555 1_555
H18 C37 1_555 1_555
H21 C43 1_555 1_555
C44 C42 1_555 1_555
O17 C44 1_555 1_555
O18 C44 1_555 1_555
O24 Cd5 1_555 1_555
C36 C37 1_555 1_555
C42 C43 1_555 1_555
C31 C32 1_555 1_555
C32 C33 1_555 1_555
C33 H15 1_555 1_555
C34 C33 1_555 1_555
H16 C34 1_555 1_555
C35 C34 1_555 1_555
C38 C35 1_555 1_555
C39 C38 1_555 1_555
H19 C39 1_555 1_555
C40 C39 1_555 1_555
C41 C40 1_555 1_555
H20 C41 1_555 1_555
C45 C40 1_555 1_555
O15 C31 1_555 1_555
C45 O20 1_555 1_555
C45 O24 1_555 1_555

#END
