
###############################################################################
#
# This file contains modified crystal structure data generated from the
# MOF subset of the Cambridge Structural Database (CSD) v543 
# hosted by the Cambridge Crystallographic Data Centre (CCDC).
#
# This work is licensed under the Creative Commons
# Attribution-NonCommercial-ShareAlike 4.0 International License.
# To view a copy of this license, visit
# http://creativecommons.org/licenses/by-nc-sa/4.0/
# or send a letter to
# Creative Commons, PO Box 1866, Mountain View, CA 94042, USA.
#
# CIF created using the CSD Python API on 29 September 2022
# The structure has been converted into the P1 space group
# The structure has a 3D framework
# The original CSD entry HEFDED is in the rhombohedral crystal system
# The framework has been calculated to contain at least 10.0% void space
# The void calculation uses a probe of radius 1.32A, grid spacing 0.4
# H atom positions have been added when not included in the experimental data
# Generated hydrogen atom positions removed from atoms on special positions
#
###############################################################################

data_HEFDED
_chemical_formula_moiety         '(C1332 H1710 Mn72 Mo36 N612 O18)n'
_symmetry_cell_setting           triclinic
_symmetry_space_group_name_H-M   'P 1'
_symmetry_Int_Tables_number      1
_space_group_name_Hall           'P 1'
loop_
_symmetry_equiv_pos_site_id
_symmetry_equiv_pos_as_xyz
1 x,y,z
_cell_length_a                   32.089(3)
_cell_length_b                   32.089(3)
_cell_length_c                   53.420(11)
_cell_angle_alpha                90
_cell_angle_beta                 90
_cell_angle_gamma                120
_cell_volume                     47637.3
loop_
_atom_site_label
_atom_site_type_symbol
_atom_site_fract_x
_atom_site_fract_y
_atom_site_fract_z
C20 C 0.0476(5) 0.4467(8) 0.0615(4)
H10 H 0.0587 0.4798 0.0575
H11 H 0.0670 0.4362 0.0528
H12 H 0.0502 0.4434 0.0792
C22 C 0.0109(8) 0.4469(6) 0.0087(5)
H13 H 0.0436 0.4671 0.0115
Mn9 Mn 0.21888(7) 0.21882(5) 0.01155(2)
N75 N 0.0285(4) 0.2654(6) 0.02444(17)
N77 N 0.0552(3) 0.1994(4) 0.00451(18)
C121 C 0.4444(7) 0.4536(12) 0.0160(4)
H112 H 0.4621 0.4511 0.0291
C123 C 0.4161(7) 0.4740(11) 0.0201(4)
H114 H 0.4141 0.4861 0.0356
C127 C 0.3569(7) 0.4940(11) 0.0006(4)
C129 C 0.3482(10) 0.5155(13) 0.0241(4)
H116 H 0.3202 0.4913 0.0326
H118 H 0.3756 0.5270 0.0350
H120 H 0.3434 0.5417 0.0196
C137 C 0.0339(5) 0.3125(7) 0.0185(2)
H134 H 0.0421 0.3319 0.0336
H136 H 0.0599 0.3292 0.0066
C139 C 0.0699(5) 0.2640(8) 0.0332(3)
H138 H 0.0978 0.2859 0.0234
H140 H 0.0761 0.2743 0.0505
C141 C 0.0615(5) 0.2124(8) 0.0309(3)
H142 H 0.0330 0.1901 0.0402
H144 H 0.0888 0.2109 0.0376
C143 C 0.0389(5) 0.1498(6) 0.0002(3)
H146 H 0.0632 0.1421 0.0054
H148 H 0.0098 0.1300 0.0097
H267 H 0.00257994 0.249897 0.037739
H14 H 0.0110 0.4621 0.9709
Mo3 Mo 0.17136(3) 0.30532(4) 0.945913(14)
Mn5 Mn 0.34676(6) 0.46133(9) 0.94512(3)
Mn7 Mn 0.00006(5) 0.21888(7) 0.98845(2)
Mn10 Mn 0.10227(5) 0.38661(7) 0.88924(3)
O2 O 0.4087(3) 0.5368(4) 0.9363(3)
N35 N 0.0609(3) 0.2713(4) 0.96476(14)
N37 N 0.1627(3) 0.3784(4) 0.90556(17)
N39 N 0.1788(4) 0.3749(8) 0.9932(3)
N41 N 0.2830(3) 0.3902(5) 0.95226(17)
N43 N 0.2405(3) 0.2711(5) 0.91620(18)
N46 N 0.1663(3) 0.2267(4) 0.98737(15)
N48 N 0.0972(3) 0.2125(4) 0.90989(17)
N50 N 0.0396(3) 0.3938(4) 0.87720(15)
N61 N 0.0387(6) 0.4972(7) 0.8408(3)
N63 N 0.0478(4) 0.5038(6) 0.9288(3)
N65 N 0.2895(5) 0.4843(7) 0.9358(3)
N67 N 0.3364(5) 0.4519(7) 0.9020(2)
N69 N 0.3893(4) 0.4257(6) 0.9320(2)
N71 N 0.3919(4) 0.4581(6) 0.9767(2)
N73 N 0.3359(5) 0.4937(7) 0.9810(3)
N85 N 0.1559(4) 0.4605(6) 0.8732(2)
N87 N 0.1214(4) 0.3766(5) 0.85036(17)
N89 N 0.0604(4) 0.3064(5) 0.8790(2)
N91 N 0.0600(4) 0.3465(5) 0.92419(17)
N93 N 0.1112(4) 0.4459(6) 0.9179(3)
C75 C 0.0992(3) 0.2832(4) 0.95768(15)
C77 C 0.1676(3) 0.3531(4) 0.91908(17)
C79 C 0.1764(4) 0.3501(7) 0.9769(3)
C81 C 0.2441(3) 0.3594(5) 0.95035(18)
C83 C 0.2162(4) 0.2841(6) 0.9252(2)
C86 C 0.1694(3) 0.2558(4) 0.97315(17)
C87 C 0.1228(3) 0.2453(4) 0.92221(18)
C89 C 0.0124(3) 0.4070(5) 0.88024(18)
C101 C 0.0107(6) 0.4733(7) 0.8583(3)
C103 C 0.0169(4) 0.4779(6) 0.9150(3)
C105 C 0.2892(7) 0.4906(10) 0.9104(4)
H88 H 0.2598 0.4905 0.9061
H90 H 0.3160 0.5220 0.9062
C107 C 0.2923(6) 0.4535(9) 0.8946(4)
H92 H 0.2640 0.4222 0.8970
H94 H 0.2941 0.4619 0.8770
C109 C 0.3397(9) 0.4099(11) 0.8963(3)
H96 H 0.3384 0.4058 0.8783
H98 H 0.3118 0.3819 0.9034
C111 C 0.3810(7) 0.4113(9) 0.9052(3)
H100 H 0.3779 0.3798 0.9034
H102 H 0.4084 0.4339 0.8954
C113 C 0.4171(5) 0.4198(7) 0.9463(3)
C115 C 0.4467(8) 0.3991(9) 0.9385(4)
H104 H 0.4798 0.4211 0.9425
H106 H 0.4362 0.3692 0.9472
H108 H 0.4434 0.3932 0.9208
C117 C 0.4194(5) 0.4379(8) 0.9718(3)
C119 C 0.4469(6) 0.4360(10) 0.9913(5)
H110 H 0.4671 0.4235 0.9885
C125 C 0.3907(6) 0.4747(9) 0.9994(4)
C131 C 0.2998(8) 0.5107(11) 0.9784(5)
H122 H 0.3098 0.5395 0.9883
H124 H 0.2684 0.4860 0.9843
C133 C 0.2971(11) 0.5207(13) 0.9520(5)
H126 H 0.3269 0.5494 0.9474
H128 H 0.2713 0.5278 0.9499
C145 C 0.0290(5) 0.1405(6) 0.9723(2)
H150 H 0.0145 0.1063 0.9690
H152 H 0.0590 0.1571 0.9631
C165 C 0.0958(8) 0.4222(10) 0.9429(3)
H172 H 0.0905 0.4428 0.9542
H174 H 0.1209 0.4173 0.9499
C167 C 0.0513(7) 0.3758(10) 0.9403(3)
H176 H 0.0260 0.3806 0.9334
H178 H 0.0410 0.3605 0.9565
C169 C 0.0169(5) 0.3036(8) 0.9164(3)
H180 H 0.0010 0.2837 0.9309
C171 C 0.0293(5) 0.2749(7) 0.8976(3)
H184 H 0.0001 0.2499 0.8899
H186 H 0.0448 0.2597 0.9063
C173 C 0.0702(6) 0.2937(7) 0.8577(3)
C175 C 0.0504(9) 0.2425(11) 0.8487(4)
H188 H 0.0230 0.2212 0.8587
H190 H 0.0409 0.2402 0.8315
H192 H 0.0748 0.2337 0.8502
C177 C 0.1042(5) 0.3335(6) 0.8412(2)
C179 C 0.1186(6) 0.3276(7) 0.8159(3)
H194 H 0.1085 0.2973 0.8091
C181 C 0.1473(7) 0.3686(9) 0.8034(3)
H196 H 0.1554 0.3658 0.7870
C183 C 0.1654(7) 0.4142(9) 0.8130(3)
H198 H 0.1865 0.4415 0.8039
C185 C 0.1505(5) 0.4171(6) 0.8366(2)
C187 C 0.1640(6) 0.4616(8) 0.8505(3)
C189 C 0.1902(12) 0.5081(16) 0.8335(6)
H200 H 0.2227 0.5278 0.8391
H202 H 0.1902 0.4987 0.8164
H204 H 0.1735 0.5259 0.8346
C191 C 0.1669(6) 0.5019(8) 0.8893(4)
H206 H 0.1466 0.5151 0.8846
H208 H 0.2002 0.5268 0.8868
C193 C 0.1592(7) 0.4881(9) 0.9151(4)
H210 H 0.1834 0.4805 0.9207
H212 H 0.1618 0.5144 0.9252
H225 H 0.0171 0.4183 0.7646
C212 C 0.0349(4) 0.3848(6) 0.8087(3)
H227 H 0.0485 0.3789 0.7940
H229 H 0.0471 0.4188 0.8103
H231 H 0.0436 0.3733 0.8232
H268 H 0.0871213 0.219396 0.9956
H270 H 0.0804622 0.335872 0.933714
H272 H 0.0872141 0.45627 0.912914
H275 H 0.256894 0.455808 0.940237
H278 H 0.365006 0.480489 0.893881
Mo1 Mo 0.86604(3) 0.17136(3) 0.054087(14)
Mn1 Mn 0.88543(7) 0.34676(6) 0.05488(3)
Mn2 Mn 0.78118(5) 0.00006(5) 0.01155(2)
Mn3 Mn 0.71566(5) 0.10227(5) 0.11076(3)
O1 O 0.8719(3) 0.4087(3) 0.0637(3)
N1 N 0.7896(3) 0.0609(3) 0.03524(14)
N2 N 0.7843(3) 0.1627(3) 0.09444(17)
N3 N 0.8039(7) 0.1788(4) 0.0068(3)
N4 N 0.8928(4) 0.2830(3) 0.04774(17)
N5 N 0.9694(4) 0.2405(3) 0.08380(18)
N6 N 0.9396(3) 0.1663(3) 0.01263(15)
N7 N 0.8847(3) 0.0972(3) 0.09011(17)
N8 N 0.6458(3) 0.0396(3) 0.12280(15)
N13 N 0.5415(4) 0.0387(6) 0.1592(3)
N14 N 0.5440(4) 0.0478(4) 0.0712(3)
N15 N 0.8052(5) 0.2895(5) 0.0642(3)
N16 N 0.8845(5) 0.3364(5) 0.0980(2)
N17 N 0.9636(4) 0.3893(4) 0.0680(2)
N18 N 0.9338(5) 0.3919(4) 0.0233(2)
N19 N 0.8422(5) 0.3359(5) 0.0190(3)
N25 N 0.6954(4) 0.1559(4) 0.1268(2)
N26 N 0.7448(3) 0.1214(4) 0.14964(17)
N27 N 0.7540(3) 0.0604(4) 0.1210(2)
N28 N 0.7135(3) 0.0600(4) 0.07581(17)
N29 N 0.6653(4) 0.1112(4) 0.0821(3)
C1 C 0.8160(3) 0.0992(3) 0.04232(15)
C2 C 0.8145(3) 0.1676(3) 0.08092(17)
C3 C 0.8263(6) 0.1764(4) 0.0231(3)
C4 C 0.8847(4) 0.2441(3) 0.04965(18)
C5 C 0.9321(4) 0.2162(4) 0.0748(2)
C6 C 0.9136(3) 0.1694(3) 0.02685(17)
C7 C 0.8775(3) 0.1228(3) 0.07779(18)
C8 C 0.6054(4) 0.0124(3) 0.11976(18)
C13 C 0.5374(4) 0.0107(6) 0.1417(3)
C14 C 0.5390(4) 0.0169(4) 0.0850(3)
C15 C 0.7986(7) 0.2892(7) 0.0896(4)
H2 H 0.7693 0.2598 0.0939
H3 H 0.7940 0.3160 0.0938
C16 C 0.8388(7) 0.2923(6) 0.1054(4)
H4 H 0.8418 0.2640 0.1030
H5 H 0.8322 0.2941 0.1230
C17 C 0.9298(7) 0.3397(9) 0.1037(3)
H6 H 0.9326 0.3384 0.1217
H7 H 0.9299 0.3118 0.0966
C18 C 0.9697(6) 0.3810(7) 0.0948(3)
H8 H 0.9981 0.3779 0.0966
H9 H 0.9745 0.4084 0.1046
C19 C 0.9973(5) 0.4171(5) 0.0537(3)
C21 C 0.9815(6) 0.4194(5) 0.0282(3)
C25 C 0.9160(7) 0.3907(6) 0.0006(4)
C28 C 0.7891(8) 0.2998(8) 0.0216(5)
H19 H 0.7703 0.3098 0.0117
H20 H 0.7824 0.2684 0.0157
C29 C 0.7764(7) 0.2971(11) 0.0480(5)
H21 H 0.7775 0.3269 0.0526
H22 H 0.7435 0.2713 0.0501
C35 C 0.8885(4) 0.0290(5) 0.0277(2)
H33 H 0.9082 0.0145 0.0310
H34 H 0.9019 0.0590 0.0369
C45 C 0.6736(6) 0.0958(8) 0.0571(3)
H44 H 0.6477 0.0905 0.0458
H45 H 0.7036 0.1209 0.0501
C46 C 0.6755(7) 0.0513(7) 0.0597(3)
H46 H 0.6454 0.0260 0.0666
H47 H 0.6805 0.0410 0.0435
C47 C 0.7133(6) 0.0169(5) 0.0836(3)
H48 H 0.7173 0.0010 0.0691
C48 C 0.7544(5) 0.0293(5) 0.1024(3)
H50 H 0.7502 0.0001 0.1101
H51 H 0.7851 0.0448 0.0937
C49 C 0.7765(4) 0.0702(6) 0.1423(3)
C50 C 0.8079(6) 0.0504(9) 0.1513(4)
H52 H 0.8018 0.0230 0.1413
H53 H 0.8007 0.0409 0.1685
H54 H 0.8411 0.0748 0.1498
C51 C 0.7707(4) 0.1042(5) 0.1588(2)
C52 C 0.7910(4) 0.1186(6) 0.1841(3)
H55 H 0.8112 0.1085 0.1909
C53 C 0.7787(5) 0.1473(7) 0.1966(3)
H56 H 0.7896 0.1554 0.2130
C54 C 0.7512(5) 0.1654(7) 0.1870(3)
H57 H 0.7450 0.1865 0.1961
C55 C 0.7334(4) 0.1505(5) 0.1634(2)
C56 C 0.7024(5) 0.1640(6) 0.1495(3)
C57 C 0.6821(10) 0.1902(12) 0.1665(6)
H58 H 0.6949 0.2227 0.1609
H59 H 0.6915 0.1902 0.1836
H60 H 0.6476 0.1735 0.1654
C58 C 0.6650(6) 0.1669(6) 0.1107(4)
H61 H 0.6315 0.1466 0.1154
H62 H 0.6734 0.2002 0.1132
C59 C 0.6711(6) 0.1592(7) 0.0849(4)
H63 H 0.7029 0.1834 0.0793
H64 H 0.6474 0.1618 0.0748
H70 H 0.5988 0.0171 0.2354
C68 C 0.6501(4) 0.0349(4) 0.1913(3)
H71 H 0.6696 0.0485 0.2060
H72 H 0.6283 0.0471 0.1897
H73 H 0.6703 0.0436 0.1768
H113 H 0.5489 0.0110 0.0291
C135 C 0.9878(4) 0.3066(6) 0.0076(2)
H130 H 0.9936 0.3368 0.0005
H132 H 0.9639 0.2976 0.0208
H226 H 0.2878 0.0029 0.1273
H230 H 0.2934 0.0036 0.1565
H232 H 0.3746 0.0266 0.1663
H236 H 0.4170 0.0124 0.1986
H238 H 0.4325 0.0075 0.1714
H258 H 0.867725 0.0871213 0.00439967
H259 H 0.74459 0.0804622 0.0662858
H260 H 0.630944 0.0872141 0.0870861
H262 H 0.884517 0.365006 0.106119
H263 H 0.801086 0.256894 0.059763
N20 N 0.7631(4) 0.0285(4) 0.97556(17)
N21 N 0.8558(3) 0.0552(3) 0.99549(18)
C23 C 0.9908(10) 0.4444(7) 0.9840(4)
C24 C 0.9421(9) 0.4161(7) 0.9799(4)
H15 H 0.9280 0.4141 0.9644
C26 C 0.8629(9) 0.3569(7) 0.9994(4)
C27 C 0.8327(9) 0.3482(10) 0.9759(4)
H16 H 0.8289 0.3202 0.9674
H17 H 0.8486 0.3756 0.9650
H18 H 0.8017 0.3434 0.9804
C31 C 0.7214(5) 0.0339(5) 0.9815(2)
H25 H 0.7102 0.0421 0.9664
H26 H 0.7307 0.0599 0.9934
C32 C 0.8059(6) 0.0699(5) 0.9668(3)
H27 H 0.8119 0.0978 0.9766
H28 H 0.8018 0.0761 0.9495
C33 C 0.8491(6) 0.0615(5) 0.9691(3)
H29 H 0.8429 0.0330 0.9598
H30 H 0.8779 0.0888 0.9624
C34 C 0.8891(4) 0.0389(5) 0.9998(3)
H31 H 0.9211 0.0632 0.9946
H32 H 0.8798 0.0098 0.9903
Mo5 Mo 0.96595(3) 0.43595(4) 0.887556(17)
Mn13 Mn 0.87115(5) 0.30632(7) 0.82015(3)
Mn14 Mn 0.89816(5) 0.53782(5) 0.84652(3)
N52 N 0.9153(4) 0.3298(6) 0.9162(2)
N55 N 0.8863(3) 0.3682(4) 0.84437(17)
N56 N 0.8778(3) 0.4293(4) 0.92311(19)
N59 N 0.9454(3) 0.5223(4) 0.87078(16)
N60 N 0.8556(4) 0.2436(3) 0.79589(16)
N79 N 0.9970(3) 0.1573(4) 0.96417(17)
N81 N 0.9469(3) 0.1998(4) 0.95698(15)
N83 N 0.9698(3) 0.2695(4) 0.98841(17)
N96 N 0.7946(3) 0.2580(4) 0.83570(18)
N98 N 0.8829(4) 0.2717(5) 0.85554(18)
N100 N 0.9500(3) 0.3247(4) 0.82014(15)
N102 N 0.9117(3) 0.3568(4) 0.78837(14)
N104 N 0.8195(3) 0.3189(4) 0.79597(17)
C91 C 0.9347(4) 0.3673(5) 0.9070(2)
C94 C 0.9142(4) 0.3926(5) 0.8590(2)
C96 C 0.9085(4) 0.4318(6) 0.9113(2)
C99 C 0.9539(3) 0.4942(4) 0.87718(19)
C116 C 0.6009(9) 0.0476(5) 0.9385(4)
H105 H 0.5789 0.0587 0.9425
H107 H 0.6308 0.0670 0.9472
H109 H 0.6068 0.0502 0.9208
C120 C 0.5640(10) 0.0109(8) 0.9913(5)
H111 H 0.5765 0.0436 0.9885
C147 C 0.9732(5) 0.1449(7) 0.9446(2)
C149 C 0.9710(7) 0.1093(10) 0.9251(3)
H154 H 0.9408 0.0800 0.9264
H156 H 0.9742 0.1228 0.9087
H158 H 0.9968 0.1029 0.9279
C151 C 0.9426(4) 0.1673(6) 0.93978(17)
C153 C 0.9110(5) 0.1567(9) 0.9199(2)
H160 H 0.9077 0.1345 0.9078
C155 C 0.8839(5) 0.1808(9) 0.9185(3)
H162 H 0.8626 0.1744 0.9053
C157 C 0.8889(5) 0.2120(7) 0.9359(3)
H164 H 0.8706 0.2271 0.9353
C159 C 0.9222(4) 0.2226(6) 0.9556(2)
C161 C 0.9333(4) 0.2597(6) 0.9748(2)
C163 C 0.9036(5) 0.2838(6) 0.9769(3)
H166 H 0.8935 0.2823 0.9940
H168 H 0.9225 0.3168 0.9718
H170 H 0.8758 0.2675 0.9664
H182 H 0.9950 0.3124 0.9087
C196 C 0.8346(4) 0.3429(5) 0.7755(2)
C198 C 0.8041(5) 0.3487(7) 0.7563(2)
H215 H 0.7710 0.3310 0.7613
H217 H 0.8139 0.3822 0.7547
H219 H 0.8079 0.3368 0.7405
C200 C 0.8872(4) 0.3665(5) 0.77084(18)
C202 C 0.9109(5) 0.3954(6) 0.7503(2)
H221 H 0.8942 0.4018 0.7381
C204 C 0.9588(5) 0.4140(7) 0.7488(2)
H223 H 0.9753 0.4338 0.7353
C206 C 0.9839(4) 0.4048(6) 0.7661(2)
C208 C 0.9592(3) 0.3750(4) 0.78632(19)
C210 C 0.9807(3) 0.3590(4) 0.80620(19)
C214 C 0.9639(4) 0.3022(5) 0.83981(19)
H233 H 0.9854 0.2921 0.8330
H235 H 0.9809 0.3254 0.8530
C216 C 0.9204(5) 0.2603(6) 0.8501(2)
H237 H 0.9288 0.2497 0.8653
H239 H 0.9084 0.2342 0.8381
C218 C 0.8363(5) 0.2332(7) 0.8649(3)
H241 H 0.8264 0.2038 0.8555
H243 H 0.8393 0.2268 0.8824
C220 C 0.7992(5) 0.2484(7) 0.8623(3)
H245 H 0.8086 0.2771 0.8721
H247 H 0.7684 0.2231 0.8685
C222 C 0.7668(4) 0.2811(6) 0.8307(3)
H249 H 0.7335 0.2599 0.8355
H251 H 0.7792 0.3103 0.8405
C224 C 0.7693(4) 0.2929(6) 0.8031(2)
H253 H 0.7546 0.3125 0.8001
H255 H 0.7522 0.2636 0.7934
H257 H 0.752683 0.00257994 0.962261
H273 H 0.779366 0.226243 0.826323
H281 H 0.896252 0.297637 0.868916
Mo2 Mo 0.53000(3) 0.96595(3) 0.112444(17)
Mn4 Mn 0.56483(5) 0.87115(5) 0.17985(3)
N9 N 0.5855(4) 0.9153(4) 0.0838(2)
N10 N 0.5181(3) 0.8863(3) 0.15563(17)
N11 N 0.4485(3) 0.8778(3) 0.07689(19)
N12 N 0.4231(3) 0.9454(3) 0.12922(16)
N22 N 0.8397(3) 0.9970(3) 0.03583(17)
N23 N 0.7471(3) 0.9469(3) 0.04302(15)
N24 N 0.7003(3) 0.9698(3) 0.01159(17)
N30 N 0.5366(3) 0.7946(3) 0.16430(18)
N31 N 0.6112(3) 0.8829(4) 0.14446(18)
N32 N 0.6253(3) 0.9500(3) 0.17986(15)
N33 N 0.5549(3) 0.9117(3) 0.21163(14)
N34 N 0.5006(3) 0.8195(3) 0.20403(17)
C9 C 0.5674(3) 0.9347(4) 0.0930(2)
C10 C 0.5216(3) 0.9142(4) 0.1410(2)
C11 C 0.4767(4) 0.9085(4) 0.0887(2)
C12 C 0.4597(3) 0.9539(3) 0.12282(19)
C36 C 0.8283(5) 0.9732(5) 0.0554(2)
C37 C 0.8617(7) 0.9710(7) 0.0749(3)
H35 H 0.8608 0.9408 0.0736
H36 H 0.8514 0.9742 0.0913
H37 H 0.8939 0.9968 0.0721
C38 C 0.7753(4) 0.9426(4) 0.06022(17)
C39 C 0.7543(7) 0.9110(5) 0.0801(2)
H38 H 0.7732 0.9077 0.0922
C40 C 0.7031(7) 0.8839(5) 0.0815(3)
H39 H 0.6882 0.8626 0.0947
C41 C 0.6769(5) 0.8889(5) 0.0641(3)
H40 H 0.6435 0.8706 0.0647
C42 C 0.6996(4) 0.9222(4) 0.0444(2)
C43 C 0.6736(4) 0.9333(4) 0.0252(2)
C44 C 0.6198(4) 0.9036(5) 0.0231(3)
H41 H 0.6112 0.8935 0.0060
H42 H 0.6057 0.9225 0.0282
H43 H 0.6083 0.8758 0.0336
H49 H 0.6826 0.9950 0.0913
C60 C 0.4917(3) 0.8346(4) 0.2245(2)
C61 C 0.4554(5) 0.8041(5) 0.2437(2)
H65 H 0.4400 0.7710 0.2387
H66 H 0.4317 0.8139 0.2453
H67 H 0.4711 0.8079 0.2595
C62 C 0.5207(3) 0.8872(4) 0.22916(18)
C63 C 0.5155(4) 0.9109(5) 0.2497(2)
H68 H 0.4924 0.8942 0.2619
C64 C 0.5448(5) 0.9588(5) 0.2512(2)
H69 H 0.5415 0.9753 0.2647
C65 C 0.5791(4) 0.9839(4) 0.2339(2)
C66 C 0.5842(3) 0.9592(3) 0.21368(19)
C67 C 0.6217(3) 0.9807(3) 0.19380(19)
C69 C 0.6617(3) 0.9639(4) 0.16019(19)
H74 H 0.6933 0.9854 0.1670
H75 H 0.6555 0.9809 0.1470
C70 C 0.6601(4) 0.9204(5) 0.1499(2)
H76 H 0.6791 0.9288 0.1347
H77 H 0.6742 0.9084 0.1619
C71 C 0.6031(5) 0.8363(5) 0.1351(3)
H78 H 0.6226 0.8264 0.1445
H79 H 0.6125 0.8393 0.1176
C72 C 0.5508(5) 0.7992(5) 0.1377(3)
H80 H 0.5315 0.8086 0.1279
H81 H 0.5453 0.7684 0.1315
C73 C 0.4857(4) 0.7668(4) 0.1693(3)
H82 H 0.4736 0.7335 0.1645
H83 H 0.4689 0.7792 0.1595
C74 C 0.4764(4) 0.7693(4) 0.1969(2)
H84 H 0.4421 0.7546 0.1999
H85 H 0.4886 0.7522 0.2066
Mo7 Mo 0.63262(3) 0.76928(4) 0.220889(17)
Mo8 Mo 0.23072(4) 0.86333(3) 0.220889(17)
Mn12 Mn 0.36035(7) 0.89816(5) 0.15348(3)
N47 N 0.8337(3) 0.7733(4) 0.01263(15)
N54 N 0.2985(4) 0.8514(3) 0.17770(17)
N58 N 0.6121(3) 0.8556(4) 0.20411(16)
N76 N 0.7346(6) 0.7631(4) 0.02444(17)
N78 N 0.8006(4) 0.8558(3) 0.00451(18)
N95 N 0.4087(4) 0.8699(3) 0.16903(18)
N97 N 0.3950(5) 0.9445(3) 0.18887(18)
N99 N 0.3420(4) 0.9586(3) 0.15347(15)
N101 N 0.3099(4) 0.8882(3) 0.12170(14)
N103 N 0.3478(4) 0.8339(3) 0.12930(17)
C93 C 0.2741(5) 0.8549(3) 0.1923(2)
C98 C 0.6206(3) 0.8275(4) 0.21051(19)
C122 C 0.5464(12) 0.9908(10) 0.0160(4)
C124 C 0.5260(11) 0.9421(9) 0.0201(4)
H115 H 0.5139 0.9280 0.0356
C128 C 0.5060(11) 0.8629(9) 0.0006(4)
C130 C 0.4845(13) 0.8327(9) 0.0241(4)
H117 H 0.5087 0.8289 0.0326
H119 H 0.4730 0.8486 0.0350
H121 H 0.4583 0.8017 0.0196
C136 C 0.6934(6) 0.6812(4) 0.0076(2)
H131 H 0.6632 0.6568 0.0005
H133 H 0.7024 0.6663 0.0208
C138 C 0.6875(7) 0.7214(5) 0.0185(2)
H135 H 0.6681 0.7102 0.0336
H137 H 0.6708 0.7307 0.0066
C140 C 0.7360(8) 0.8059(6) 0.0332(3)
H139 H 0.7141 0.8119 0.0234
H141 H 0.7257 0.8018 0.0505
C142 C 0.7876(8) 0.8491(6) 0.0309(3)
H143 H 0.8099 0.8429 0.0402
H145 H 0.7891 0.8779 0.0376
C144 C 0.8502(6) 0.8891(4) 0.0002(3)
H147 H 0.8579 0.9211 0.0054
H149 H 0.8700 0.8798 0.0097
C195 C 0.3238(5) 0.8250(3) 0.1088(2)
C197 C 0.3180(7) 0.7887(5) 0.0896(2)
H214 H 0.3357 0.7733 0.0946
H216 H 0.2845 0.7650 0.0880
H218 H 0.3299 0.8044 0.0738
C199 C 0.3002(5) 0.8540(3) 0.10417(18)
C201 C 0.2713(6) 0.8488(4) 0.0836(2)
H220 H 0.2649 0.8257 0.0714
C203 C 0.2527(7) 0.8781(5) 0.0821(2)
H222 H 0.2329 0.8748 0.0686
C205 C 0.2619(6) 0.9124(4) 0.0994(2)
H224 H 0.2484 0.9321 0.0979
C207 C 0.2917(4) 0.9175(3) 0.11965(19)
C209 C 0.3077(4) 0.9550(3) 0.13953(19)
C211 C 0.2819(6) 0.9834(4) 0.1420(3)
H228 H 0.2479 0.9616 0.1436
C213 C 0.3645(5) 0.9950(3) 0.17314(19)
H234 H 0.3413 0.9888 0.1863
C215 C 0.4064(6) 0.9934(4) 0.1834(2)
C217 C 0.4335(7) 0.9364(5) 0.1982(3)
H240 H 0.4629 0.9559 0.1888
H242 H 0.4399 0.9458 0.2157
C219 C 0.4183(7) 0.8841(5) 0.1956(3)
H244 H 0.3896 0.8648 0.2054
H246 H 0.4436 0.8786 0.2018
C221 C 0.3856(6) 0.8190(4) 0.1640(3)
H248 H 0.4068 0.8069 0.1688
H250 H 0.3564 0.8022 0.1738
C223 C 0.3738(6) 0.8097(4) 0.1364(2)
H252 H 0.3542 0.7754 0.1334
H254 H 0.4031 0.8219 0.1267
H261 H 0.553123 0.779366 0.173677
H264 H 0.598615 0.896252 0.131084
H274 H 0.750103 0.752683 0.037739
H277 H 0.440424 0.886457 0.159656
H282 H 0.36903 0.931948 0.202249
C30 C 0.6812(4) 0.9878(4) 0.9924(2)
H23 H 0.6568 0.9936 0.9995
H24 H 0.6663 0.9639 0.9792
Mo4 Mo 0.69468(4) 0.86604(3) 0.945913(14)
Mo6 Mo 0.56405(4) 0.53000(3) 0.887556(17)
Mn6 Mn 0.53867(9) 0.88543(7) 0.94512(3)
Mn8 Mn 0.78112(7) 0.78118(5) 0.98845(2)
Mn11 Mn 0.61339(7) 0.71566(5) 0.88924(3)
O3 O 0.4632(4) 0.8719(3) 0.9363(3)
N36 N 0.7287(4) 0.7896(3) 0.96476(14)
N38 N 0.6216(4) 0.7843(3) 0.90556(17)
N40 N 0.6251(8) 0.8039(7) 0.9932(3)
N42 N 0.6098(5) 0.8928(4) 0.95226(17)
N44 N 0.7289(5) 0.9694(4) 0.91620(18)
N45 N 0.7733(4) 0.9396(3) 0.98737(15)
N49 N 0.7875(4) 0.8847(3) 0.90989(17)
N51 N 0.6062(4) 0.6458(3) 0.87720(15)
N53 N 0.6702(6) 0.5855(4) 0.9162(2)
N57 N 0.5707(4) 0.4485(3) 0.92311(19)
N62 N 0.5028(7) 0.5415(4) 0.8408(3)
N64 N 0.4962(6) 0.5440(4) 0.9288(3)
N66 N 0.5157(7) 0.8052(5) 0.9358(3)
N68 N 0.5481(7) 0.8845(5) 0.9020(2)
N70 N 0.5743(6) 0.9636(4) 0.9320(2)
N72 N 0.5419(6) 0.9338(5) 0.9767(2)
N74 N 0.5063(7) 0.8422(5) 0.9810(3)
N80 N 0.8427(4) 0.8397(3) 0.96417(17)
N82 N 0.8002(4) 0.7471(3) 0.95698(15)
N84 N 0.7305(4) 0.7003(3) 0.98841(17)
N86 N 0.5395(6) 0.6954(4) 0.8732(2)
N88 N 0.6234(5) 0.7448(3) 0.85036(17)
N90 N 0.6936(5) 0.7540(3) 0.8790(2)
N92 N 0.6535(5) 0.7135(3) 0.92419(17)
N94 N 0.5541(6) 0.6653(4) 0.9179(3)
C76 C 0.7168(4) 0.8160(3) 0.95768(15)
C78 C 0.6469(4) 0.8145(3) 0.91908(17)
C80 C 0.6499(7) 0.8263(6) 0.9769(3)
C82 C 0.6406(5) 0.8847(4) 0.95035(18)
C84 C 0.7159(6) 0.9321(4) 0.9252(2)
C85 C 0.7442(4) 0.9136(3) 0.97315(17)
C88 C 0.7547(4) 0.8775(3) 0.92221(18)
C90 C 0.5930(5) 0.6054(4) 0.88024(18)
C92 C 0.6327(5) 0.5674(3) 0.9070(2)
C95 C 0.6074(5) 0.5216(3) 0.8590(2)
C97 C 0.5682(6) 0.4767(4) 0.9113(2)
C100 C 0.5058(4) 0.4597(3) 0.87718(19)
C102 C 0.5267(7) 0.5374(4) 0.8583(3)
C104 C 0.5221(6) 0.5390(4) 0.9150(3)
C106 C 0.5094(10) 0.7986(7) 0.9104(4)
H89 H 0.5095 0.7693 0.9061
H91 H 0.4780 0.7940 0.9062
C108 C 0.5465(9) 0.8388(7) 0.8946(4)
H93 H 0.5778 0.8418 0.8970
H95 H 0.5381 0.8322 0.8770
C110 C 0.5901(11) 0.9298(7) 0.8963(3)
H97 H 0.5942 0.9326 0.8783
H99 H 0.6181 0.9299 0.9034
C112 C 0.5887(9) 0.9697(6) 0.9052(3)
H101 H 0.6202 0.9981 0.9034
H103 H 0.5661 0.9745 0.8954
C114 C 0.5802(7) 0.9973(5) 0.9463(3)
C118 C 0.5621(8) 0.9815(6) 0.9718(3)
C126 C 0.5253(9) 0.9160(7) 0.9994(4)
C132 C 0.4893(11) 0.7891(8) 0.9784(5)
H123 H 0.4605 0.7703 0.9883
H125 H 0.5140 0.7824 0.9843
C134 C 0.4793(13) 0.7764(7) 0.9520(5)
H127 H 0.4506 0.7775 0.9474
H129 H 0.4722 0.7435 0.9499
C146 C 0.8595(6) 0.8885(4) 0.9723(2)
H151 H 0.8937 0.9082 0.9690
H153 H 0.8429 0.9019 0.9631
C148 C 0.8551(7) 0.8283(5) 0.9446(2)
C150 C 0.8907(10) 0.8617(7) 0.9251(3)
H155 H 0.9200 0.8608 0.9264
H157 H 0.8772 0.8514 0.9087
H159 H 0.8971 0.8939 0.9279
C152 C 0.8327(6) 0.7753(4) 0.93978(17)
C154 C 0.8433(9) 0.7543(7) 0.9199(2)
H161 H 0.8655 0.7732 0.9078
C156 C 0.8192(9) 0.7031(7) 0.9185(3)
H163 H 0.8256 0.6882 0.9053
C158 C 0.7880(7) 0.6769(5) 0.9359(3)
H165 H 0.7729 0.6435 0.9353
C160 C 0.7774(6) 0.6996(4) 0.9556(2)
C162 C 0.7403(6) 0.6736(4) 0.9748(2)
C164 C 0.7162(6) 0.6198(4) 0.9769(3)
H167 H 0.7177 0.6112 0.9940
H169 H 0.6832 0.6057 0.9718
H171 H 0.7325 0.6083 0.9664
C166 C 0.5778(10) 0.6736(6) 0.9429(3)
H173 H 0.5572 0.6477 0.9542
H175 H 0.5827 0.7036 0.9499
C168 C 0.6242(10) 0.6755(7) 0.9403(3)
H177 H 0.6194 0.6454 0.9334
H179 H 0.6395 0.6805 0.9565
C170 C 0.6964(8) 0.7133(6) 0.9164(3)
H181 H 0.7163 0.7173 0.9309
H183 H 0.6876 0.6826 0.9087
C172 C 0.7251(7) 0.7544(5) 0.8976(3)
H185 H 0.7501 0.7502 0.8899
H187 H 0.7403 0.7851 0.9063
C174 C 0.7063(7) 0.7765(4) 0.8577(3)
C176 C 0.7575(11) 0.8079(6) 0.8487(4)
H189 H 0.7788 0.8018 0.8587
H191 H 0.7598 0.8007 0.8315
H193 H 0.7663 0.8411 0.8502
C178 C 0.6665(6) 0.7707(4) 0.8412(2)
C180 C 0.6724(7) 0.7910(4) 0.8159(3)
H195 H 0.7027 0.8112 0.8091
C182 C 0.6314(9) 0.7787(5) 0.8034(3)
H197 H 0.6342 0.7896 0.7870
C184 C 0.5858(9) 0.7512(5) 0.8130(3)
H199 H 0.5585 0.7450 0.8039
C186 C 0.5829(6) 0.7334(4) 0.8366(2)
C188 C 0.5384(8) 0.7024(5) 0.8505(3)
C190 C 0.4919(16) 0.6821(10) 0.8335(6)
H201 H 0.4722 0.6949 0.8391
H203 H 0.5013 0.6915 0.8164
H205 H 0.4741 0.6476 0.8346
C192 C 0.4981(8) 0.6650(6) 0.8893(4)
H207 H 0.4849 0.6315 0.8846
H209 H 0.4732 0.6734 0.8868
C194 C 0.5119(9) 0.6711(6) 0.9151(4)
H211 H 0.5195 0.7029 0.9207
H213 H 0.4856 0.6474 0.9252
H269 H 0.544192 0.801086 0.940237
H271 H 0.664128 0.74459 0.933714
H276 H 0.780604 0.867725 0.9956
H279 H 0.519511 0.884517 0.893881
H280 H 0.54373 0.630944 0.912914
N47_2 N 0.2267(4) 0.0604(5) 0.01263(15)
C136_2 C 0.3188(4) 0.0122(7) 0.0076(2)
H131_2 H 0.3432 0.0064 0.0005
H133_2 H 0.3337 0.0361 0.0208
Mo6_2 Mo 0.47000(3) 0.03405(5) 0.887556(17)
N53_2 N 0.4145(4) 0.0847(7) 0.9162(2)
N57_2 N 0.5515(3) 0.1222(5) 0.92311(19)
N80_2 N 0.1603(3) 0.0030(5) 0.96417(17)
N82_2 N 0.2529(3) 0.0531(5) 0.95698(15)
N84_2 N 0.2997(3) 0.0302(5) 0.98841(17)
C92_2 C 0.4326(3) 0.0653(6) 0.9070(2)
C95_2 C 0.4784(3) 0.0858(6) 0.8590(2)
C97_2 C 0.5233(4) 0.0915(7) 0.9113(2)
C100_2 C 0.5403(3) 0.0461(5) 0.87718(19)
C148_2 C 0.1717(5) 0.0268(9) 0.9446(2)
C150_2 C 0.1383(7) 0.0290(12) 0.9251(3)
H155_2 H 0.1392 0.0592 0.9264
H157_2 H 0.1486 0.0258 0.9087
H159_2 H 0.1061 0.0032 0.9279
C152_2 C 0.2247(4) 0.0574(7) 0.93978(17)
C154_2 C 0.2457(7) 0.0890(11) 0.9199(2)
H161_2 H 0.2268 0.0923 0.9078
C156_2 C 0.2969(7) 0.1161(11) 0.9185(3)
H163_2 H 0.3118 0.1374 0.9053
C158_2 C 0.3231(5) 0.1111(9) 0.9359(3)
H165_2 H 0.3565 0.1294 0.9353
C160_2 C 0.3004(4) 0.0778(7) 0.9556(2)
C162_2 C 0.3264(4) 0.0667(7) 0.9748(2)
C164_2 C 0.3802(4) 0.0964(7) 0.9769(3)
H167_2 H 0.3888 0.1065 0.9940
H169_2 H 0.3943 0.0775 0.9718
H171_2 H 0.3917 0.1242 0.9664
H183_2 H 0.3174 0.0050 0.9087
Mo2_2 Mo 0.03405(3) 0.56405(4) 0.112444(17)
Mn4_2 Mn 0.12885(5) 0.69368(7) 0.17985(3)
N9_2 N 0.0847(4) 0.6702(6) 0.0838(2)
N10_2 N 0.1137(3) 0.6318(4) 0.15563(17)
N11_2 N 0.1222(3) 0.5707(4) 0.07689(19)
N12_2 N 0.0546(3) 0.4777(4) 0.12922(16)
N22_2 N 0.0030(3) 0.8427(4) 0.03583(17)
N23_2 N 0.0531(3) 0.8002(4) 0.04302(15)
N24_2 N 0.0302(3) 0.7305(4) 0.01159(17)
N30_2 N 0.2054(3) 0.7420(4) 0.16430(18)
N31_2 N 0.1171(4) 0.7283(5) 0.14446(18)
N32_2 N 0.0500(3) 0.6753(4) 0.17986(15)
N33_2 N 0.0883(3) 0.6432(4) 0.21163(14)
N34_2 N 0.1805(3) 0.6811(4) 0.20403(17)
C9_2 C 0.0653(4) 0.6327(5) 0.0930(2)
C10_2 C 0.0858(4) 0.6074(5) 0.1410(2)
C11_2 C 0.0915(4) 0.5682(6) 0.0887(2)
C12_2 C 0.0461(3) 0.5058(4) 0.12282(19)
C36_2 C 0.0268(5) 0.8551(7) 0.0554(2)
C37_2 C 0.0290(7) 0.8907(10) 0.0749(3)
H35_2 H 0.0592 0.9200 0.0736
H36_2 H 0.0258 0.8772 0.0913
H37_2 H 0.0032 0.8971 0.0721
C38_2 C 0.0574(4) 0.8327(6) 0.06022(17)
C39_2 C 0.0890(5) 0.8433(9) 0.0801(2)
H38_2 H 0.0923 0.8655 0.0922
C40_2 C 0.1161(5) 0.8192(9) 0.0815(3)
H39_2 H 0.1374 0.8256 0.0947
C41_2 C 0.1111(5) 0.7880(7) 0.0641(3)
H40_2 H 0.1294 0.7729 0.0647
C42_2 C 0.0778(4) 0.7774(6) 0.0444(2)
C43_2 C 0.0667(4) 0.7403(6) 0.0252(2)
C44_2 C 0.0964(5) 0.7162(6) 0.0231(3)
H41_2 H 0.1065 0.7177 0.0060
H42_2 H 0.0775 0.6832 0.0282
H43_2 H 0.1242 0.7325 0.0336
H49_2 H 0.0050 0.6876 0.0913
C60_2 C 0.1654(4) 0.6571(5) 0.2245(2)
C61_2 C 0.1959(5) 0.6513(7) 0.2437(2)
H65_2 H 0.2290 0.6690 0.2387
H66_2 H 0.1861 0.6178 0.2453
H67_2 H 0.1921 0.6632 0.2595
C62_2 C 0.1128(4) 0.6335(5) 0.22916(18)
C63_2 C 0.0891(5) 0.6046(6) 0.2497(2)
H68_2 H 0.1058 0.5982 0.2619
C64_2 C 0.0412(5) 0.5860(7) 0.2512(2)
H69_2 H 0.0247 0.5662 0.2647
C65_2 C 0.0161(4) 0.5952(6) 0.2339(2)
C66_2 C 0.0408(3) 0.6250(4) 0.21368(19)
C67_2 C 0.0193(3) 0.6410(4) 0.19380(19)
C69_2 C 0.0361(4) 0.6978(5) 0.16019(19)
H74_2 H 0.0146 0.7079 0.1670
H75_2 H 0.0191 0.6746 0.1470
C70_2 C 0.0796(5) 0.7397(6) 0.1499(2)
H76_2 H 0.0712 0.7503 0.1347
H77_2 H 0.0916 0.7658 0.1619
C71_2 C 0.1637(5) 0.7668(7) 0.1351(3)
H78_2 H 0.1736 0.7962 0.1445
H79_2 H 0.1607 0.7732 0.1176
C72_2 C 0.2008(5) 0.7516(7) 0.1377(3)
H80_2 H 0.1914 0.7229 0.1279
H81_2 H 0.2316 0.7769 0.1315
C73_2 C 0.2332(4) 0.7189(6) 0.1693(3)
H82_2 H 0.2665 0.7401 0.1645
H83_2 H 0.2208 0.6897 0.1595
C74_2 C 0.2307(4) 0.7071(6) 0.1969(2)
H84_2 H 0.2454 0.6875 0.1999
H85_2 H 0.2478 0.7364 0.2066
Mo8_2 Mo 0.13667(3) 0.36738(5) 0.220889(17)
Mn12_2 Mn 0.10184(5) 0.46218(9) 0.15348(3)
N54_2 N 0.1486(3) 0.4470(5) 0.17770(17)
N58_2 N 0.1444(4) 0.7564(5) 0.20411(16)
N76_2 N 0.2369(4) 0.9715(7) 0.02444(17)
N78_2 N 0.1442(3) 0.9448(5) 0.00451(18)
N95_2 N 0.1301(3) 0.5387(5) 0.16903(18)
N97_2 N 0.0555(3) 0.4504(6) 0.18887(18)
N99_2 N 0.0414(3) 0.3833(5) 0.15347(15)
N101_2 N 0.1118(3) 0.4216(5) 0.12170(14)
N103_2 N 0.1661(3) 0.5138(5) 0.12930(17)
C93_2 C 0.1451(3) 0.4191(6) 0.1923(2)
C98_2 C 0.1725(4) 0.7930(5) 0.21051(19)
C122_2 C 0.0092(10) 0.5556(16) 0.0160(4)
C124_2 C 0.0579(9) 0.5839(14) 0.0201(4)
H115_2 H 0.0720 0.5859 0.0356
C128_2 C 0.1371(9) 0.6431(14) 0.0006(4)
C130_2 C 0.1673(9) 0.6518(16) 0.0241(4)
H117_2 H 0.1711 0.6798 0.0326
H119_2 H 0.1514 0.6244 0.0350
H121_2 H 0.1983 0.6566 0.0196
C138_2 C 0.2786(5) 0.9661(9) 0.0185(2)
H135_2 H 0.2898 0.9579 0.0336
H137_2 H 0.2693 0.9401 0.0066
C140_2 C 0.1941(6) 0.9301(10) 0.0332(3)
H139_2 H 0.1881 0.9022 0.0234
H141_2 H 0.1982 0.9239 0.0505
C142_2 C 0.1509(6) 0.9385(10) 0.0309(3)
H143_2 H 0.1571 0.9670 0.0402
H145_2 H 0.1221 0.9112 0.0376
C144_2 C 0.1109(4) 0.9611(7) 0.0002(3)
H147_2 H 0.0789 0.9368 0.0054
H149_2 H 0.1202 0.9902 0.0097
C195_2 C 0.1750(3) 0.4987(6) 0.1088(2)
C197_2 C 0.2113(5) 0.5292(9) 0.0896(2)
H214_2 H 0.2267 0.5623 0.0946
H216_2 H 0.2350 0.5194 0.0880
H218_2 H 0.1956 0.5254 0.0738
C199_2 C 0.1460(3) 0.4461(6) 0.10417(18)
C201_2 C 0.1512(4) 0.4224(7) 0.0836(2)
H220_2 H 0.1743 0.4391 0.0714
C203_2 C 0.1219(5) 0.3745(9) 0.0821(2)
H222_2 H 0.1252 0.3580 0.0686
C205_2 C 0.0876(4) 0.3494(7) 0.0994(2)
H224_2 H 0.0679 0.3162 0.0979
C207_2 C 0.0825(3) 0.3741(5) 0.11965(19)
C209_2 C 0.0450(3) 0.3526(5) 0.13953(19)
C211_2 C 0.0166(4) 0.2984(7) 0.1420(3)
H228_2 H 0.0384 0.2862 0.1436
C213_2 C 0.0050(3) 0.3694(6) 0.17314(19)
H234_2 H 0.0112 0.3524 0.1863
C215_2 C 0.0066(4) 0.4129(7) 0.1834(2)
C217_2 C 0.0636(5) 0.4970(9) 0.1982(3)
H240_2 H 0.0441 0.5069 0.1888
H242_2 H 0.0542 0.4940 0.2157
C219_2 C 0.1159(5) 0.5341(9) 0.1956(3)
H244_2 H 0.1352 0.5247 0.2054
H246_2 H 0.1214 0.5649 0.2018
C221_2 C 0.1810(4) 0.5665(7) 0.1640(3)
H248_2 H 0.1931 0.5998 0.1688
H250_2 H 0.1978 0.5541 0.1738
C223_2 C 0.1903(4) 0.5640(7) 0.1364(2)
H252_2 H 0.2246 0.5787 0.1334
H254_2 H 0.1781 0.5811 0.1267
H261_2 H 0.220634 0.773757 0.173677
H264_2 H 0.103748 0.702363 0.131084
H274_2 H 0.247317 0.99742 0.037739
H277_2 H 0.113543 0.553967 0.159656
H282_2 H 0.0680517 0.437081 0.202249
C30_2 C 0.0122(4) 0.6934(6) 0.9924(2)
H23_2 H 0.0064 0.6632 0.9995
H24_2 H 0.0361 0.7024 0.9792
Mo4_2 Mo 0.13396(3) 0.82864(5) 0.945913(14)
Mn6_2 Mn 0.11457(7) 0.65324(11) 0.94512(3)
Mn8_2 Mn 0.21882(5) 0.99994(9) 0.98845(2)
Mn11_2 Mn 0.28434(5) 0.89773(9) 0.88924(3)
O3_2 O 0.1281(3) 0.5913(5) 0.9363(3)
N36_2 N 0.2104(3) 0.9391(5) 0.96476(14)
N38_2 N 0.2157(3) 0.8373(5) 0.90556(17)
N40_2 N 0.1961(7) 0.8212(11) 0.9932(3)
N42_2 N 0.1072(4) 0.7170(6) 0.95226(17)
N44_2 N 0.0306(4) 0.7595(6) 0.91620(18)
N45_2 N 0.0604(3) 0.8337(5) 0.98737(15)
N49_2 N 0.1153(3) 0.9028(5) 0.90989(17)
N51_2 N 0.3542(3) 0.9604(5) 0.87720(15)
N62_2 N 0.4585(4) 0.9613(8) 0.8408(3)
N64_2 N 0.4560(4) 0.9522(7) 0.9288(3)
N66_2 N 0.1948(5) 0.7105(9) 0.9358(3)
N68_2 N 0.1155(5) 0.6636(9) 0.9020(2)
N70_2 N 0.0364(4) 0.6107(7) 0.9320(2)
N72_2 N 0.0662(5) 0.6081(8) 0.9767(2)
N74_2 N 0.1578(5) 0.6641(9) 0.9810(3)
N86_2 N 0.3046(4) 0.8441(7) 0.8732(2)
N88_2 N 0.2552(3) 0.8786(6) 0.85036(17)
N90_2 N 0.2460(3) 0.9396(6) 0.8790(2)
N92_2 N 0.2865(3) 0.9400(6) 0.92419(17)
N94_2 N 0.3347(4) 0.8888(7) 0.9179(3)
C76_2 C 0.1840(3) 0.9008(5) 0.95768(15)
C78_2 C 0.1855(3) 0.8324(5) 0.91908(17)
C80_2 C 0.1737(6) 0.8236(9) 0.9769(3)
C82_2 C 0.1153(4) 0.7559(6) 0.95035(18)
C84_2 C 0.0679(4) 0.7838(7) 0.9252(2)
C85_2 C 0.0864(3) 0.8306(5) 0.97315(17)
C88_2 C 0.1225(3) 0.8772(5) 0.92221(18)
C90_2 C 0.3946(4) 0.9876(6) 0.88024(18)
C102_2 C 0.4626(4) 0.9893(8) 0.8583(3)
C104_2 C 0.4610(4) 0.9831(7) 0.9150(3)
C106_2 C 0.2014(7) 0.7108(12) 0.9104(4)
H89_2 H 0.2307 0.7402 0.9061
H91_2 H 0.2060 0.6840 0.9062
C108_2 C 0.1612(7) 0.7077(11) 0.8946(4)
H93_2 H 0.1582 0.7360 0.8970
H95_2 H 0.1678 0.7059 0.8770
C110_2 C 0.0702(7) 0.6603(13) 0.8963(3)
H97_2 H 0.0674 0.6616 0.8783
H99_2 H 0.0701 0.6882 0.9034
C112_2 C 0.0303(6) 0.6190(11) 0.9052(3)
H101_2 H 0.0019 0.6221 0.9034
H103_2 H 0.0255 0.5916 0.8954
C114_2 C 0.0027(5) 0.5829(9) 0.9463(3)
C118_2 C 0.0185(6) 0.5806(10) 0.9718(3)
C126_2 C 0.0840(7) 0.6093(11) 0.9994(4)
C132_2 C 0.2109(8) 0.7002(14) 0.9784(5)
H123_2 H 0.2297 0.6902 0.9883
H125_2 H 0.2176 0.7316 0.9843
C134_2 C 0.2236(7) 0.7029(15) 0.9520(5)
H127_2 H 0.2225 0.6731 0.9474
H129_2 H 0.2565 0.7287 0.9499
C146_2 C 0.1115(4) 0.9710(7) 0.9723(2)
H151_2 H 0.0918 0.9855 0.9690
H153_2 H 0.0981 0.9410 0.9631
C166_2 C 0.3264(6) 0.9042(12) 0.9429(3)
H173_2 H 0.3523 0.9095 0.9542
H175_2 H 0.2964 0.8791 0.9499
C168_2 C 0.3245(7) 0.9487(12) 0.9403(3)
H177_2 H 0.3546 0.9740 0.9334
H179_2 H 0.3195 0.9590 0.9565
C170_2 C 0.2867(6) 0.9831(10) 0.9164(3)
H181_2 H 0.2827 0.9990 0.9309
C172_2 C 0.2456(5) 0.9707(9) 0.8976(3)
H185_2 H 0.2498 0.9999 0.8899
H187_2 H 0.2149 0.9552 0.9063
C174_2 C 0.2235(4) 0.9298(8) 0.8577(3)
C176_2 C 0.1921(6) 0.9496(13) 0.8487(4)
H189_2 H 0.1982 0.9770 0.8587
H191_2 H 0.1993 0.9591 0.8315
H193_2 H 0.1589 0.9252 0.8502
C178_2 C 0.2293(4) 0.8958(7) 0.8412(2)
C180_2 C 0.2090(4) 0.8814(8) 0.8159(3)
H195_2 H 0.1888 0.8915 0.8091
C182_2 C 0.2213(5) 0.8527(10) 0.8034(3)
H197_2 H 0.2104 0.8446 0.7870
C184_2 C 0.2488(5) 0.8346(10) 0.8130(3)
H199_2 H 0.2550 0.8135 0.8039
C186_2 C 0.2666(4) 0.8495(7) 0.8366(2)
C188_2 C 0.2976(5) 0.8360(9) 0.8505(3)
C190_2 C 0.3179(10) 0.8098(19) 0.8335(6)
H201_2 H 0.3051 0.7773 0.8391
H203_2 H 0.3085 0.8098 0.8164
H205_2 H 0.3524 0.8265 0.8346
C192_2 C 0.3350(6) 0.8331(10) 0.8893(4)
H207_2 H 0.3685 0.8534 0.8846
H209_2 H 0.3266 0.7998 0.8868
C194_2 C 0.3289(6) 0.8408(11) 0.9151(4)
H211_2 H 0.2971 0.8166 0.9207
H213_2 H 0.3526 0.8382 0.9252
H269_2 H 0.198914 0.743106 0.940237
H271_2 H 0.25541 0.919538 0.933714
H276_2 H 0.132275 0.912879 0.9956
H279_2 H 0.115483 0.634994 0.893881
H280_2 H 0.369056 0.912786 0.912914
Mo1_2 Mo 0.82864(3) 0.69468(4) 0.054087(14)
Mn1_2 Mn 0.65324(6) 0.53867(9) 0.05488(3)
Mn2_2 Mn 0.99994(5) 0.78112(7) 0.01155(2)
Mn3_2 Mn 0.89773(5) 0.61339(7) 0.11076(3)
O1_2 O 0.5913(3) 0.4632(4) 0.0637(3)
N1_2 N 0.9391(3) 0.7287(4) 0.03524(14)
N2_2 N 0.8373(3) 0.6216(4) 0.09444(17)
N3_2 N 0.8212(4) 0.6251(8) 0.0068(3)
N4_2 N 0.7170(3) 0.6098(5) 0.04774(17)
N5_2 N 0.7595(3) 0.7289(5) 0.08380(18)
N7_2 N 0.9028(3) 0.7875(4) 0.09011(17)
N8_2 N 0.9604(3) 0.6062(4) 0.12280(15)
N13_2 N 0.9613(6) 0.5028(7) 0.1592(3)
N14_2 N 0.9522(4) 0.4962(6) 0.0712(3)
N15_2 N 0.7105(5) 0.5157(7) 0.0642(3)
N16_2 N 0.6636(5) 0.5481(7) 0.0980(2)
N17_2 N 0.6107(4) 0.5743(6) 0.0680(2)
N18_2 N 0.6081(4) 0.5419(6) 0.0233(2)
N19_2 N 0.6641(5) 0.5063(7) 0.0190(3)
N25_2 N 0.8441(4) 0.5395(6) 0.1268(2)
N26_2 N 0.8786(4) 0.6234(5) 0.14964(17)
N27_2 N 0.9396(4) 0.6936(5) 0.1210(2)
N28_2 N 0.9400(4) 0.6535(5) 0.07581(17)
N29_2 N 0.8888(4) 0.5541(6) 0.0821(3)
C1_2 C 0.9008(3) 0.7168(4) 0.04232(15)
C2_2 C 0.8324(3) 0.6469(4) 0.08092(17)
C3_2 C 0.8236(4) 0.6499(7) 0.0231(3)
C4_2 C 0.7559(3) 0.6406(5) 0.04965(18)
C5_2 C 0.7838(4) 0.7159(6) 0.0748(2)
C6_2 C 0.8306(3) 0.7442(4) 0.02685(17)
C7_2 C 0.8772(3) 0.7547(4) 0.07779(18)
C8_2 C 0.9876(3) 0.5930(5) 0.11976(18)
C13_2 C 0.9893(6) 0.5267(7) 0.1417(3)
C14_2 C 0.9831(4) 0.5221(6) 0.0850(3)
C15_2 C 0.7108(7) 0.5094(10) 0.0896(4)
H2_2 H 0.7402 0.5095 0.0939
H3_2 H 0.6840 0.4780 0.0938
C16_2 C 0.7077(6) 0.5465(9) 0.1054(4)
H4_2 H 0.7360 0.5778 0.1030
H5_2 H 0.7059 0.5381 0.1230
C17_2 C 0.6603(9) 0.5901(11) 0.1037(3)
H6_2 H 0.6616 0.5942 0.1217
H7_2 H 0.6882 0.6181 0.0966
C18_2 C 0.6190(7) 0.5887(9) 0.0948(3)
H8_2 H 0.6221 0.6202 0.0966
H9_2 H 0.5916 0.5661 0.1046
C19_2 C 0.5829(5) 0.5802(7) 0.0537(3)
C20_2 C 0.5533(8) 0.6009(9) 0.0615(4)
H10_2 H 0.5202 0.5789 0.0575
H11_2 H 0.5638 0.6308 0.0528
H12_2 H 0.5566 0.6068 0.0792
C21_2 C 0.5806(5) 0.5621(8) 0.0282(3)
C22_2 C 0.5531(6) 0.5640(10) 0.0087(5)
H13_2 H 0.5329 0.5765 0.0115
C25_2 C 0.6093(6) 0.5253(9) 0.0006(4)
C28_2 C 0.7002(8) 0.4893(11) 0.0216(5)
H19_2 H 0.6902 0.4605 0.0117
H20_2 H 0.7316 0.5140 0.0157
C29_2 C 0.7029(11) 0.4793(13) 0.0480(5)
H21_2 H 0.6731 0.4506 0.0526
H22_2 H 0.7287 0.4722 0.0501
C35_2 C 0.9710(5) 0.8595(6) 0.0277(2)
H33_2 H 0.9855 0.8937 0.0310
H34_2 H 0.9410 0.8429 0.0369
C45_2 C 0.9042(8) 0.5778(10) 0.0571(3)
H44_2 H 0.9095 0.5572 0.0458
H45_2 H 0.8791 0.5827 0.0501
C46_2 C 0.9487(7) 0.6242(10) 0.0597(3)
H46_2 H 0.9740 0.6194 0.0666
H47_2 H 0.9590 0.6395 0.0435
C47_2 C 0.9831(5) 0.6964(8) 0.0836(3)
H48_2 H 0.9990 0.7163 0.0691
C48_2 C 0.9707(5) 0.7251(7) 0.1024(3)
H50_2 H 0.9999 0.7501 0.1101
H51_2 H 0.9552 0.7403 0.0937
C49_2 C 0.9298(6) 0.7063(7) 0.1423(3)
C50_2 C 0.9496(9) 0.7575(11) 0.1513(4)
H52_2 H 0.9770 0.7788 0.1413
H53_2 H 0.9591 0.7598 0.1685
H54_2 H 0.9252 0.7663 0.1498
C51_2 C 0.8958(5) 0.6665(6) 0.1588(2)
C52_2 C 0.8814(6) 0.6724(7) 0.1841(3)
H55_2 H 0.8915 0.7027 0.1909
C53_2 C 0.8527(7) 0.6314(9) 0.1966(3)
H56_2 H 0.8446 0.6342 0.2130
C54_2 C 0.8346(7) 0.5858(9) 0.1870(3)
H57_2 H 0.8135 0.5585 0.1961
C55_2 C 0.8495(5) 0.5829(6) 0.1634(2)
C56_2 C 0.8360(6) 0.5384(8) 0.1495(3)
C57_2 C 0.8098(12) 0.4919(16) 0.1665(6)
H58_2 H 0.7773 0.4722 0.1609
H59_2 H 0.8098 0.5013 0.1836
H60_2 H 0.8265 0.4741 0.1654
C58_2 C 0.8331(6) 0.4981(8) 0.1107(4)
H61_2 H 0.8534 0.4849 0.1154
H62_2 H 0.7998 0.4732 0.1132
C59_2 C 0.8408(7) 0.5119(9) 0.0849(4)
H63_2 H 0.8166 0.5195 0.0793
H64_2 H 0.8382 0.4856 0.0748
H70_2 H 0.9829 0.5817 0.2354
C68_2 C 0.9651(4) 0.6152(6) 0.1913(3)
H71_2 H 0.9515 0.6211 0.2060
H72_2 H 0.9529 0.5812 0.1897
H73_2 H 0.9564 0.6267 0.1768
H113_2 H 0.9890 0.5379 0.0291
H226_2 H 0.9971 0.2848 0.1273
H230_2 H 0.9964 0.2897 0.1565
H232_2 H 0.9734 0.3479 0.1663
H236_2 H 0.9876 0.4045 0.1986
H238_2 H 0.9925 0.4249 0.1714
H258_2 H 0.912879 0.780604 0.00439967
H259_2 H 0.919538 0.664128 0.0662858
H260_2 H 0.912786 0.54373 0.0870861
H262_2 H 0.634994 0.519511 0.106119
H263_2 H 0.743106 0.544192 0.059763
N20_2 N 0.9715(4) 0.7346(6) 0.97556(17)
N21_2 N 0.9448(3) 0.8006(4) 0.99549(18)
C23_2 C 0.5556(7) 0.5464(12) 0.9840(4)
H14_2 H 0.5379 0.5489 0.9709
C24_2 C 0.5839(7) 0.5260(11) 0.9799(4)
H15_2 H 0.5859 0.5139 0.9644
C26_2 C 0.6431(7) 0.5060(11) 0.9994(4)
C27_2 C 0.6518(10) 0.4845(13) 0.9759(4)
H16_2 H 0.6798 0.5087 0.9674
H17_2 H 0.6244 0.4730 0.9650
H18_2 H 0.6566 0.4583 0.9804
C31_2 C 0.9661(5) 0.6875(7) 0.9815(2)
H25_2 H 0.9579 0.6681 0.9664
H26_2 H 0.9401 0.6708 0.9934
C32_2 C 0.9301(5) 0.7360(8) 0.9668(3)
H27_2 H 0.9022 0.7141 0.9766
H28_2 H 0.9239 0.7257 0.9495
C33_2 C 0.9385(5) 0.7876(8) 0.9691(3)
H29_2 H 0.9670 0.8099 0.9598
H30_2 H 0.9112 0.7891 0.9624
C34_2 C 0.9611(5) 0.8502(6) 0.9998(3)
H31_2 H 0.9368 0.8579 0.9946
H32_2 H 0.9902 0.8700 0.9903
Mn13_2 Mn 0.69368(7) 0.56483(9) 0.82015(3)
Mn14_2 Mn 0.46218(5) 0.36035(7) 0.84652(3)
N55_2 N 0.6318(4) 0.5181(5) 0.84437(17)
N59_2 N 0.4777(4) 0.4231(5) 0.87078(16)
N60_2 N 0.7564(3) 0.6121(5) 0.79589(16)
N96_2 N 0.7420(4) 0.5366(5) 0.83570(18)
N98_2 N 0.7283(5) 0.6112(6) 0.85554(18)
N100_2 N 0.6753(4) 0.6253(5) 0.82014(15)
N102_2 N 0.6432(4) 0.5549(5) 0.78837(14)
N104_2 N 0.6811(4) 0.5006(5) 0.79597(17)
C116_2 C 0.9524(5) 0.5533(10) 0.9385(4)
H105_2 H 0.9413 0.5202 0.9425
H107_2 H 0.9330 0.5638 0.9472
H109_2 H 0.9498 0.5566 0.9208
C120_2 C 0.9891(8) 0.5531(13) 0.9913(5)
H111_2 H 0.9564 0.5329 0.9885
C196_2 C 0.6571(5) 0.4917(6) 0.7755(2)
C198_2 C 0.6513(7) 0.4554(9) 0.7563(2)
H215_2 H 0.6690 0.4400 0.7613
H217_2 H 0.6178 0.4317 0.7547
H219_2 H 0.6632 0.4711 0.7405
C200_2 C 0.6335(5) 0.5207(6) 0.77084(18)
C202_2 C 0.6046(6) 0.5155(8) 0.7503(2)
H221_2 H 0.5982 0.4924 0.7381
C204_2 C 0.5860(7) 0.5448(9) 0.7488(2)
H223_2 H 0.5662 0.5415 0.7353
C206_2 C 0.5952(6) 0.5791(7) 0.7661(2)
H225_2 H 0.5817 0.5988 0.7646
C208_2 C 0.6250(4) 0.5842(5) 0.78632(19)
C210_2 C 0.6410(4) 0.6217(5) 0.80620(19)
C212_2 C 0.6152(6) 0.6501(7) 0.8087(3)
H227_2 H 0.6211 0.6696 0.7940
H229_2 H 0.5812 0.6283 0.8103
H231_2 H 0.6267 0.6703 0.8232
C214_2 C 0.6978(5) 0.6617(6) 0.83981(19)
H233_2 H 0.7079 0.6933 0.8330
H235_2 H 0.6746 0.6555 0.8530
C216_2 C 0.7397(6) 0.6601(8) 0.8501(2)
H237_2 H 0.7503 0.6791 0.8653
H239_2 H 0.7658 0.6742 0.8381
C218_2 C 0.7668(7) 0.6031(9) 0.8649(3)
H241_2 H 0.7962 0.6226 0.8555
H243_2 H 0.7732 0.6125 0.8824
C220_2 C 0.7516(7) 0.5508(9) 0.8623(3)
H245_2 H 0.7229 0.5315 0.8721
H247_2 H 0.7769 0.5453 0.8685
C222_2 C 0.7189(6) 0.4857(7) 0.8307(3)
H249_2 H 0.7401 0.4736 0.8355
H251_2 H 0.6897 0.4689 0.8405
C224_2 C 0.7071(6) 0.4764(7) 0.8031(2)
H253_2 H 0.6875 0.4421 0.8001
H255_2 H 0.7364 0.4886 0.7934
H257_2 H 0.99742 0.750103 0.962261
H273_2 H 0.773757 0.553123 0.826323
H281_2 H 0.702363 0.598615 0.868916
Mo1_3 Mo 0.30532(4) 0.13396(3) 0.054087(14)
Mo2_3 Mo 0.43595(4) 0.47000(3) 0.112444(17)
Mn1_3 Mn 0.46133(9) 0.11457(7) 0.05488(3)
Mn3_3 Mn 0.38661(7) 0.28434(5) 0.11076(3)
Mn4_3 Mn 0.30632(7) 0.43517(5) 0.17985(3)
O1_3 O 0.5368(4) 0.1281(3) 0.0637(3)
N1_3 N 0.2713(4) 0.2104(3) 0.03524(14)
N2_3 N 0.3784(4) 0.2157(3) 0.09444(17)
N3_3 N 0.3749(8) 0.1961(7) 0.0068(3)
N4_3 N 0.3902(5) 0.1072(4) 0.04774(17)
N5_3 N 0.2711(5) 0.0306(4) 0.08380(18)
N7_3 N 0.2125(4) 0.1153(3) 0.09011(17)
N8_3 N 0.3938(4) 0.3542(3) 0.12280(15)
N9_3 N 0.3298(6) 0.4145(4) 0.0838(2)
N10_3 N 0.3682(4) 0.4819(3) 0.15563(17)
N11_3 N 0.4293(4) 0.5515(3) 0.07689(19)
N12_3 N 0.5223(4) 0.5769(3) 0.12922(16)
N13_3 N 0.4972(7) 0.4585(4) 0.1592(3)
N14_3 N 0.5038(6) 0.4560(4) 0.0712(3)
N15_3 N 0.4843(7) 0.1948(5) 0.0642(3)
N16_3 N 0.4519(7) 0.1155(5) 0.0980(2)
N17_3 N 0.4257(6) 0.0364(4) 0.0680(2)
N18_3 N 0.4581(6) 0.0662(5) 0.0233(2)
N19_3 N 0.4937(7) 0.1578(5) 0.0190(3)
N22_3 N 0.1573(4) 0.1603(3) 0.03583(17)
N23_3 N 0.1998(4) 0.2529(3) 0.04302(15)
N24_3 N 0.2695(4) 0.2997(3) 0.01159(17)
N25_3 N 0.4605(6) 0.3046(4) 0.1268(2)
N26_3 N 0.3766(5) 0.2552(3) 0.14964(17)
N27_3 N 0.3064(5) 0.2460(3) 0.1210(2)
N28_3 N 0.3465(5) 0.2865(3) 0.07581(17)
N29_3 N 0.4459(6) 0.3347(4) 0.0821(3)
N30_3 N 0.2580(4) 0.4634(3) 0.16430(18)
N31_3 N 0.2717(5) 0.3888(3) 0.14446(18)
N32_3 N 0.3247(4) 0.3747(3) 0.17986(15)
N33_3 N 0.3568(4) 0.4451(3) 0.21163(14)
N34_3 N 0.3189(4) 0.4994(3) 0.20403(17)
C1_3 C 0.2832(4) 0.1840(3) 0.04232(15)
C2_3 C 0.3531(4) 0.1855(3) 0.08092(17)
C3_3 C 0.3501(7) 0.1737(6) 0.0231(3)
C4_3 C 0.3594(5) 0.1153(4) 0.04965(18)
C5_3 C 0.2841(6) 0.0679(4) 0.0748(2)
C6_3 C 0.2558(4) 0.0864(3) 0.02685(17)
C7_3 C 0.2453(4) 0.1225(3) 0.07779(18)
C8_3 C 0.4070(5) 0.3946(4) 0.11976(18)
C9_3 C 0.3673(5) 0.4326(3) 0.0930(2)
C10_3 C 0.3926(5) 0.4784(3) 0.1410(2)
C11_3 C 0.4318(6) 0.5233(4) 0.0887(2)
C12_3 C 0.4942(4) 0.5403(3) 0.12282(19)
C13_3 C 0.4733(7) 0.4626(4) 0.1417(3)
C14_3 C 0.4779(6) 0.4610(4) 0.0850(3)
C15_3 C 0.4906(10) 0.2014(7) 0.0896(4)
H2_3 H 0.4905 0.2307 0.0939
H3_3 H 0.5220 0.2060 0.0938
C16_3 C 0.4535(9) 0.1612(7) 0.1054(4)
H4_3 H 0.4222 0.1582 0.1030
H5_3 H 0.4619 0.1678 0.1230
C17_3 C 0.4099(11) 0.0702(7) 0.1037(3)
H6_3 H 0.4058 0.0674 0.1217
H7_3 H 0.3819 0.0701 0.0966
C18_3 C 0.4113(9) 0.0303(6) 0.0948(3)
H8_3 H 0.3798 0.0019 0.0966
H9_3 H 0.4339 0.0255 0.1046
C19_3 C 0.4198(7) 0.0027(5) 0.0537(3)
C21_3 C 0.4379(8) 0.0185(6) 0.0282(3)
C25_3 C 0.4747(9) 0.0840(7) 0.0006(4)
C28_3 C 0.5107(11) 0.2109(8) 0.0216(5)
H19_3 H 0.5395 0.2297 0.0117
H20_3 H 0.4860 0.2176 0.0157
C29_3 C 0.5207(13) 0.2236(7) 0.0480(5)
H21_3 H 0.5494 0.2225 0.0526
H22_3 H 0.5278 0.2565 0.0501
C35_3 C 0.1405(6) 0.1115(4) 0.0277(2)
H33_3 H 0.1063 0.0918 0.0310
H34_3 H 0.1571 0.0981 0.0369
C36_3 C 0.1449(7) 0.1717(5) 0.0554(2)
C37_3 C 0.1093(10) 0.1383(7) 0.0749(3)
H35_3 H 0.0800 0.1392 0.0736
H36_3 H 0.1228 0.1486 0.0913
H37_3 H 0.1029 0.1061 0.0721
C38_3 C 0.1673(6) 0.2247(4) 0.06022(17)
C39_3 C 0.1567(9) 0.2457(7) 0.0801(2)
H38_3 H 0.1345 0.2268 0.0922
C40_3 C 0.1808(9) 0.2969(7) 0.0815(3)
H39_3 H 0.1744 0.3118 0.0947
C41_3 C 0.2120(7) 0.3231(5) 0.0641(3)
H40_3 H 0.2271 0.3565 0.0647
C42_3 C 0.2226(6) 0.3004(4) 0.0444(2)
C43_3 C 0.2597(6) 0.3264(4) 0.0252(2)
C44_3 C 0.2838(6) 0.3802(4) 0.0231(3)
H41_3 H 0.2823 0.3888 0.0060
H42_3 H 0.3168 0.3943 0.0282
H43_3 H 0.2675 0.3917 0.0336
C45_3 C 0.4222(10) 0.3264(6) 0.0571(3)
H44_3 H 0.4428 0.3523 0.0458
H45_3 H 0.4173 0.2964 0.0501
C46_3 C 0.3758(10) 0.3245(7) 0.0597(3)
H46_3 H 0.3806 0.3546 0.0666
H47_3 H 0.3605 0.3195 0.0435
C47_3 C 0.3036(8) 0.2867(6) 0.0836(3)
H48_3 H 0.2837 0.2827 0.0691
H49_3 H 0.3124 0.3174 0.0913
C48_3 C 0.2749(7) 0.2456(5) 0.1024(3)
H50_3 H 0.2499 0.2498 0.1101
H51_3 H 0.2597 0.2149 0.0937
C49_3 C 0.2937(7) 0.2235(4) 0.1423(3)
C50_3 C 0.2425(11) 0.1921(6) 0.1513(4)
H52_3 H 0.2212 0.1982 0.1413
H53_3 H 0.2402 0.1993 0.1685
H54_3 H 0.2337 0.1589 0.1498
C51_3 C 0.3335(6) 0.2293(4) 0.1588(2)
C52_3 C 0.3276(7) 0.2090(4) 0.1841(3)
H55_3 H 0.2973 0.1888 0.1909
C53_3 C 0.3686(9) 0.2213(5) 0.1966(3)
H56_3 H 0.3658 0.2104 0.2130
C54_3 C 0.4142(9) 0.2488(5) 0.1870(3)
H57_3 H 0.4415 0.2550 0.1961
C55_3 C 0.4171(6) 0.2666(4) 0.1634(2)
C56_3 C 0.4616(8) 0.2976(5) 0.1495(3)
C57_3 C 0.5081(16) 0.3179(10) 0.1665(6)
H58_3 H 0.5278 0.3051 0.1609
H59_3 H 0.4987 0.3085 0.1836
H60_3 H 0.5259 0.3524 0.1654
C58_3 C 0.5019(8) 0.3350(6) 0.1107(4)
H61_3 H 0.5151 0.3685 0.1154
H62_3 H 0.5268 0.3266 0.1132
C59_3 C 0.4881(9) 0.3289(6) 0.0849(4)
H63_3 H 0.4805 0.2971 0.0793
H64_3 H 0.5144 0.3526 0.0748
C60_3 C 0.3429(5) 0.5083(3) 0.2245(2)
C61_3 C 0.3487(7) 0.5446(5) 0.2437(2)
H65_3 H 0.3310 0.5600 0.2387
H66_3 H 0.3822 0.5683 0.2453
H67_3 H 0.3368 0.5289 0.2595
C62_3 C 0.3665(5) 0.4793(3) 0.22916(18)
C63_3 C 0.3954(6) 0.4845(4) 0.2497(2)
H68_3 H 0.4018 0.5076 0.2619
C64_3 C 0.4140(7) 0.4552(5) 0.2512(2)
H69_3 H 0.4338 0.4585 0.2647
C65_3 C 0.4048(6) 0.4209(4) 0.2339(2)
H70_3 H 0.4183 0.4012 0.2354
C66_3 C 0.3750(4) 0.4158(3) 0.21368(19)
C67_3 C 0.3590(4) 0.3783(3) 0.19380(19)
C68_3 C 0.3848(6) 0.3499(4) 0.1913(3)
H71_3 H 0.3789 0.3304 0.2060
H72_3 H 0.4188 0.3717 0.1897
H73_3 H 0.3733 0.3297 0.1768
C69_3 C 0.3022(5) 0.3383(3) 0.16019(19)
H74_3 H 0.2921 0.3067 0.1670
H75_3 H 0.3254 0.3445 0.1470
C70_3 C 0.2603(6) 0.3399(4) 0.1499(2)
H76_3 H 0.2497 0.3209 0.1347
H77_3 H 0.2342 0.3258 0.1619
C71_3 C 0.2332(7) 0.3969(5) 0.1351(3)
H78_3 H 0.2038 0.3774 0.1445
H79_3 H 0.2268 0.3875 0.1176
C72_3 C 0.2484(7) 0.4492(5) 0.1377(3)
H80_3 H 0.2771 0.4685 0.1279
H81_3 H 0.2231 0.4547 0.1315
C73_3 C 0.2811(6) 0.5143(4) 0.1693(3)
H82_3 H 0.2599 0.5264 0.1645
H83_3 H 0.3103 0.5311 0.1595
C74_3 C 0.2929(6) 0.5236(4) 0.1969(2)
H84_3 H 0.3125 0.5579 0.1999
H85_3 H 0.2636 0.5114 0.2066
Mn12_3 Mn 0.53782(9) 0.63965(7) 0.15348(3)
N54_3 N 0.5530(5) 0.7015(4) 0.17770(17)
N58_3 N 0.2436(5) 0.3879(3) 0.20411(16)
N95_3 N 0.4613(5) 0.5913(4) 0.16903(18)
N97_3 N 0.5496(6) 0.6050(5) 0.18887(18)
N99_3 N 0.6167(5) 0.6580(4) 0.15347(15)
N101_3 N 0.5784(5) 0.6901(4) 0.12170(14)
N103_3 N 0.4862(5) 0.6522(4) 0.12930(17)
C93_3 C 0.5809(6) 0.7259(5) 0.1923(2)
C98_3 C 0.2070(5) 0.3794(3) 0.21051(19)
C195_3 C 0.5013(6) 0.6762(5) 0.1088(2)
C197_3 C 0.4708(9) 0.6820(7) 0.0896(2)
H214_3 H 0.4377 0.6643 0.0946
H216_3 H 0.4806 0.7155 0.0880
H218_3 H 0.4746 0.6701 0.0738
C199_3 C 0.5539(6) 0.6998(5) 0.10417(18)
C201_3 C 0.5776(7) 0.7287(6) 0.0836(2)
H220_3 H 0.5609 0.7351 0.0714
C203_3 C 0.6255(9) 0.7473(7) 0.0821(2)
H222_3 H 0.6420 0.7671 0.0686
C205_3 C 0.6506(7) 0.7381(6) 0.0994(2)
H224_3 H 0.6838 0.7516 0.0979
C207_3 C 0.6259(5) 0.7083(4) 0.11965(19)
C209_3 C 0.6474(5) 0.6923(4) 0.13953(19)
C211_3 C 0.7016(7) 0.7181(6) 0.1420(3)
H226_3 H 0.7152 0.7122 0.1273
H228_3 H 0.7138 0.7521 0.1436
H230_3 H 0.7103 0.7066 0.1565
C213_3 C 0.6306(6) 0.6355(5) 0.17314(19)
H232_3 H 0.6521 0.6254 0.1663
H234_3 H 0.6476 0.6587 0.1863
C215_3 C 0.5871(7) 0.5936(6) 0.1834(2)
H236_3 H 0.5955 0.5830 0.1986
H238_3 H 0.5751 0.5675 0.1714
C217_3 C 0.5030(9) 0.5665(7) 0.1982(3)
H240_3 H 0.4931 0.5371 0.1888
H242_3 H 0.5060 0.5601 0.2157
C219_3 C 0.4659(9) 0.5817(7) 0.1956(3)
H244_3 H 0.4753 0.6104 0.2054
H246_3 H 0.4351 0.5564 0.2018
C221_3 C 0.4335(7) 0.6144(6) 0.1640(3)
H248_3 H 0.4002 0.5932 0.1688
H250_3 H 0.4459 0.6436 0.1738
C223_3 C 0.4360(7) 0.6262(6) 0.1364(2)
H252_3 H 0.4213 0.6458 0.1334
H254_3 H 0.4189 0.5969 0.1267
H258_3 H 0.219396 0.132275 0.00439967
H259_3 H 0.335872 0.25541 0.0662858
H260_3 H 0.45627 0.369056 0.0870861
H261_3 H 0.226243 0.446877 0.173677
H262_3 H 0.480489 0.115483 0.106119
H263_3 H 0.455808 0.198914 0.059763
H264_3 H 0.297637 0.401385 0.131084
H277_3 H 0.446033 0.559576 0.159656
H282_3 H 0.562919 0.63097 0.202249
N20_3 N 0.2654(6) 0.2369(4) 0.97556(17)
N21_3 N 0.1994(4) 0.1442(3) 0.99549(18)
C23_3 C 0.4536(12) 0.0092(10) 0.9840(4)
C24_3 C 0.4740(11) 0.0579(9) 0.9799(4)
H15_3 H 0.4861 0.0720 0.9644
C26_3 C 0.4940(11) 0.1371(9) 0.9994(4)
C27_3 C 0.5155(13) 0.1673(9) 0.9759(4)
H16_3 H 0.4913 0.1711 0.9674
H17_3 H 0.5270 0.1514 0.9650
H18_3 H 0.5417 0.1983 0.9804
C30_3 C 0.3066(6) 0.3188(4) 0.9924(2)
H23_3 H 0.3368 0.3432 0.9995
H24_3 H 0.2976 0.3337 0.9792
C31_3 C 0.3125(7) 0.2786(5) 0.9815(2)
H25_3 H 0.3319 0.2898 0.9664
H26_3 H 0.3292 0.2693 0.9934
C32_3 C 0.2640(8) 0.1941(6) 0.9668(3)
H27_3 H 0.2859 0.1881 0.9766
H28_3 H 0.2743 0.1982 0.9495
C33_3 C 0.2124(8) 0.1509(6) 0.9691(3)
H29_3 H 0.1901 0.1571 0.9598
H30_3 H 0.2109 0.1221 0.9624
C34_3 C 0.1498(6) 0.1109(4) 0.9998(3)
H31_3 H 0.1421 0.0789 0.9946
H32_3 H 0.1300 0.1202 0.9903
Mn13_3 Mn 0.43517(9) 0.12885(5) 0.82015(3)
Mn14_3 Mn 0.63965(7) 0.10184(5) 0.84652(3)
N55_3 N 0.4819(5) 0.1137(3) 0.84437(17)
N59_3 N 0.5769(5) 0.0546(3) 0.87078(16)
N60_3 N 0.3879(5) 0.1444(4) 0.79589(16)
N96_3 N 0.4634(5) 0.2054(3) 0.83570(18)
N98_3 N 0.3888(6) 0.1171(4) 0.85554(18)
N100_3 N 0.3747(5) 0.0500(3) 0.82014(15)
N102_3 N 0.4451(5) 0.0883(3) 0.78837(14)
N104_3 N 0.4994(5) 0.1805(3) 0.79597(17)
C196_3 C 0.5083(6) 0.1654(4) 0.7755(2)
C198_3 C 0.5446(9) 0.1959(5) 0.7563(2)
H215_3 H 0.5600 0.2290 0.7613
H217_3 H 0.5683 0.1861 0.7547
H219_3 H 0.5289 0.1921 0.7405
C200_3 C 0.4793(6) 0.1128(4) 0.77084(18)
C202_3 C 0.4845(8) 0.0891(5) 0.7503(2)
H221_3 H 0.5076 0.1058 0.7381
C204_3 C 0.4552(9) 0.0412(5) 0.7488(2)
H223_3 H 0.4585 0.0247 0.7353
C206_3 C 0.4209(7) 0.0161(4) 0.7661(2)
C208_3 C 0.4158(5) 0.0408(3) 0.78632(19)
C210_3 C 0.3783(5) 0.0193(3) 0.80620(19)
C214_3 C 0.3383(6) 0.0361(4) 0.83981(19)
H233_3 H 0.3067 0.0146 0.8330
H235_3 H 0.3445 0.0191 0.8530
C216_3 C 0.3399(8) 0.0796(5) 0.8501(2)
H237_3 H 0.3209 0.0712 0.8653
H239_3 H 0.3258 0.0916 0.8381
C218_3 C 0.3969(9) 0.1637(5) 0.8649(3)
H241_3 H 0.3774 0.1736 0.8555
H243_3 H 0.3875 0.1607 0.8824
C220_3 C 0.4492(9) 0.2008(5) 0.8623(3)
H245_3 H 0.4685 0.1914 0.8721
H247_3 H 0.4547 0.2316 0.8685
C222_3 C 0.5143(7) 0.2332(4) 0.8307(3)
H249_3 H 0.5264 0.2665 0.8355
H251_3 H 0.5311 0.2208 0.8405
C224_3 C 0.5236(7) 0.2307(4) 0.8031(2)
H253_3 H 0.5579 0.2454 0.8001
H255_3 H 0.5114 0.2478 0.7934
H257_3 H 0.249897 0.247317 0.962261
H273_3 H 0.446877 0.220634 0.826323
H281_3 H 0.401385 0.103748 0.868916
C20_3 C 0.3991(9) 0.9524(5) 0.0615(4)
H10_3 H 0.4211 0.9413 0.0575
H11_3 H 0.3692 0.9330 0.0528
H12_3 H 0.3932 0.9498 0.0792
C22_3 C 0.4360(10) 0.9891(8) 0.0087(5)
H13_3 H 0.4235 0.9564 0.0115
H14_3 H 0.4511 0.9890 0.9709
H225_3 H 0.4012 0.9829 0.7646
C212_3 C 0.3499(7) 0.9651(4) 0.8087(3)
H227_3 H 0.3304 0.9515 0.7940
H229_3 H 0.3717 0.9529 0.8103
H231_3 H 0.3297 0.9564 0.8232
Mn1_4 Mn 0.21876(7) 0.01343(6) 0.72155(3)
O1_4 O 0.2052(3) 0.0754(3) 0.7304(3)
N16_4 N 0.2178(5) 0.0031(5) 0.7647(2)
N17_4 N 0.2969(4) 0.0560(4) 0.7347(2)
N18_4 N 0.2671(5) 0.0586(4) 0.6900(2)
N19_4 N 0.1755(5) 0.0026(5) 0.6857(3)
C17_4 C 0.2631(7) 0.0064(9) 0.7704(3)
H6_4 H 0.2659 0.0051 0.7884
C18_4 C 0.3030(6) 0.0477(7) 0.7615(3)
H8_4 H 0.3314 0.0446 0.7633
H9_4 H 0.3078 0.0751 0.7713
C19_4 C 0.3306(5) 0.0838(5) 0.7204(3)
C20_4 C 0.3809(5) 0.1134(8) 0.7282(4)
H10_4 H 0.3920 0.1465 0.7242
H11_4 H 0.4003 0.1029 0.7195
H12_4 H 0.3835 0.1101 0.7459
C21_4 C 0.3148(6) 0.0861(5) 0.6949(3)
C22_4 C 0.3442(8) 0.1136(6) 0.6754(5)
H13_4 H 0.3769 0.1338 0.6782
C23_4 C 0.3241(10) 0.1111(7) 0.6507(4)
H14_4 H 0.3443 0.1288 0.6376
C24_4 C 0.2754(9) 0.0828(7) 0.6466(4)
H15_4 H 0.2613 0.0808 0.6311
C25_4 C 0.2493(7) 0.0574(6) 0.6673(4)
C26_4 C 0.1962(9) 0.0236(7) 0.6661(4)
C27_4 C 0.1660(9) 0.0149(10) 0.6426(4)
H17_4 H 0.1819 0.0423 0.6317
H18_4 H 0.1350 0.0101 0.6471
Mo5_2 Mo 0.29928(3) 0.10262(4) 0.554223(17)
Mn5_2 Mn 0.68009(6) 0.12800(9) 0.61179(3)
Mn10_2 Mn 0.43560(5) 0.05328(7) 0.55591(3)
Mn14_4 Mn 0.23150(5) 0.20448(5) 0.51318(3)
O2_2 O 0.7420(3) 0.2035(4) 0.6030(3)
N37_2 N 0.4960(3) 0.0451(4) 0.57223(17)
N39_2 N 0.5121(4) 0.0416(8) 0.6599(3)
N41_2 N 0.6163(3) 0.0569(5) 0.61893(17)
N50_2 N 0.3729(3) 0.0605(4) 0.54387(15)
N55_4 N 0.2196(3) 0.0349(4) 0.51104(17)
N56_2 N 0.2111(3) 0.0960(4) 0.58978(19)
N59_4 N 0.2787(3) 0.1890(4) 0.53745(16)
N61_2 N 0.3720(6) 0.1639(7) 0.5075(3)
N63_2 N 0.3811(4) 0.1705(6) 0.5955(3)
N65_2 N 0.6228(5) 0.1510(7) 0.6025(3)
N67_2 N 0.6697(5) 0.1186(7) 0.5687(2)
N69_2 N 0.7226(4) 0.0924(6) 0.5987(2)
N71_2 N 0.7252(4) 0.1248(6) 0.6434(2)
N73_2 N 0.6692(5) 0.1604(7) 0.6477(3)
N85_2 N 0.4892(4) 0.1272(6) 0.5399(2)
N87_2 N 0.4547(4) 0.0433(5) 0.51703(17)
N91_2 N 0.3933(4) 0.0132(5) 0.59086(17)
N93_2 N 0.4445(4) 0.1126(6) 0.5846(3)
N102_4 N 0.2450(3) 0.0235(4) 0.45504(14)
C77_2 C 0.5009(3) 0.0198(4) 0.58575(17)
C79_2 C 0.5097(4) 0.0168(7) 0.6436(3)
C81_2 C 0.5774(3) 0.0261(5) 0.61702(18)
C89_2 C 0.3457(3) 0.0737(5) 0.54691(18)
C91_2 C 0.2680(4) 0.0340(5) 0.5737(2)
C94_2 C 0.2475(4) 0.0593(5) 0.5257(2)
C96_2 C 0.2418(4) 0.0985(6) 0.5780(2)
C99_2 C 0.2872(3) 0.1609(4) 0.54385(19)
C101_2 C 0.3440(6) 0.1400(7) 0.5250(3)
C103_2 C 0.3502(4) 0.1446(6) 0.5817(3)
C105_2 C 0.6225(7) 0.1573(10) 0.5771(4)
H88_2 H 0.5931 0.1572 0.5728
H90_2 H 0.6493 0.1887 0.5729
C107_2 C 0.6256(6) 0.1202(9) 0.5613(4)
H92_2 H 0.5973 0.0889 0.5637
H94_2 H 0.6274 0.1286 0.5437
C109_2 C 0.6730(9) 0.0766(11) 0.5630(3)
H96_2 H 0.6717 0.0725 0.5450
H98_2 H 0.6451 0.0486 0.5701
C111_2 C 0.7143(7) 0.0780(9) 0.5719(3)
H100_2 H 0.7112 0.0465 0.5701
H102_2 H 0.7417 0.1006 0.5621
C113_2 C 0.7504(5) 0.0865(7) 0.6130(3)
C115_2 C 0.7800(8) 0.0658(9) 0.6052(4)
H104_2 H 0.8131 0.0878 0.6092
H106_2 H 0.7695 0.0359 0.6139
H108_2 H 0.7767 0.0599 0.5875
C117_2 C 0.7527(5) 0.1046(8) 0.6385(3)
C119_2 C 0.7802(6) 0.1027(10) 0.6580(5)
H110_2 H 0.8004 0.0902 0.6552
C121_2 C 0.7777(7) 0.1203(12) 0.6827(4)
H112_2 H 0.7954 0.1178 0.6958
C123_2 C 0.7494(7) 0.1407(11) 0.6868(4)
H114_2 H 0.7474 0.1528 0.7023
C125_2 C 0.7240(6) 0.1414(9) 0.6661(4)
C127_2 C 0.6902(7) 0.1607(11) 0.6673(4)
C129_2 C 0.6815(10) 0.1822(13) 0.6908(4)
H116_2 H 0.6535 0.1580 0.6993
H118_2 H 0.7089 0.1937 0.7017
H120_2 H 0.6767 0.2084 0.6863
C131_2 C 0.6331(8) 0.1774(11) 0.6451(5)
H122_2 H 0.6431 0.2062 0.6550
H124_2 H 0.6017 0.1527 0.6510
C133_2 C 0.6304(11) 0.1874(13) 0.6187(5)
H126_2 H 0.6602 0.2161 0.6141
H128_2 H 0.6046 0.1945 0.6166
H130_2 H 0.3269 0.0035 0.6672
C165_2 C 0.4291(8) 0.0889(10) 0.6096(3)
H172_2 H 0.4238 0.1095 0.6209
H174_2 H 0.4542 0.0840 0.6166
C167_2 C 0.3846(7) 0.0425(10) 0.6070(3)
H176_2 H 0.3593 0.0473 0.6001
H178_2 H 0.3743 0.0272 0.6232
C177_2 C 0.4375(5) 0.0002(6) 0.5079(2)
C181_2 C 0.4806(7) 0.0353(9) 0.4701(3)
H196_2 H 0.4887 0.0325 0.4537
C183_2 C 0.4987(7) 0.0809(9) 0.4797(3)
H198_2 H 0.5198 0.1082 0.4706
C185_2 C 0.4838(5) 0.0838(6) 0.5033(2)
C187_2 C 0.4973(6) 0.1283(8) 0.5172(3)
C189_2 C 0.5235(12) 0.1748(16) 0.5002(6)
H200_2 H 0.5560 0.1945 0.5058
H202_2 H 0.5235 0.1654 0.4831
H204_2 H 0.5068 0.1926 0.5013
C191_2 C 0.5002(6) 0.1686(8) 0.5560(4)
H206_2 H 0.4799 0.1818 0.5513
H208_2 H 0.5335 0.1935 0.5535
C193_2 C 0.4925(7) 0.1548(9) 0.5818(4)
H210_2 H 0.5167 0.1472 0.5874
H212_2 H 0.4951 0.1811 0.5919
C196_4 C 0.1679(4) 0.0096(5) 0.4422(2)
C198_4 C 0.1374(5) 0.0154(7) 0.4230(2)
H217_4 H 0.1472 0.0489 0.4214
H219_4 H 0.1412 0.0035 0.4072
C200_4 C 0.2205(4) 0.0332(5) 0.43751(18)
C202_4 C 0.2442(5) 0.0621(6) 0.4170(2)
H221_4 H 0.2275 0.0685 0.4048
C204_4 C 0.2921(5) 0.0807(7) 0.4155(2)
H223_4 H 0.3086 0.1005 0.4020
C206_4 C 0.3172(4) 0.0715(6) 0.4328(2)
H225_4 H 0.3504 0.0850 0.4313
C208_4 C 0.2925(3) 0.0417(4) 0.45299(19)
C210_4 C 0.3140(3) 0.0257(4) 0.47287(19)
C212_4 C 0.3682(4) 0.0515(6) 0.4754(3)
H227_4 H 0.3818 0.0456 0.4607
H229_4 H 0.3804 0.0855 0.4770
H231_4 H 0.3769 0.0400 0.4899
H262_4 H 0.21785 0.0316726 0.772786
H270_2 H 0.413796 0.00253903 0.600381
H272_2 H 0.420547 0.122937 0.579581
H275_2 H 0.590227 0.122475 0.606904
H278_2 H 0.698339 0.147155 0.560547
Mo1_4 Mo 0.19937(3) 0.83803(3) 0.720754(14)
Mn2_3 Mn 0.11451(5) 0.66673(5) 0.67822(2)
Mn3_4 Mn 0.04899(5) 0.76894(5) 0.77743(3)
N1_4 N 0.1229(3) 0.7276(3) 0.70191(14)
N2_4 N 0.1176(3) 0.8294(3) 0.76111(17)
N3_4 N 0.1372(7) 0.8455(4) 0.6735(3)
N4_4 N 0.2261(4) 0.9497(3) 0.71441(17)
N5_4 N 0.3027(4) 0.9072(3) 0.75047(18)
N6_2 N 0.2729(3) 0.8330(3) 0.67930(15)
N7_4 N 0.2180(3) 0.7639(3) 0.75678(17)
N15_4 N 0.1385(5) 0.9562(5) 0.7309(3)
N20_4 N 0.0964(4) 0.6952(4) 0.64223(17)
N21_4 N 0.1891(3) 0.7219(3) 0.66216(18)
N22_4 N 0.1730(3) 0.6637(3) 0.70250(17)
N23_4 N 0.0804(3) 0.6136(3) 0.70969(15)
N24_4 N 0.0336(3) 0.6365(3) 0.67826(17)
N25_4 N 0.0287(4) 0.8226(4) 0.7935(2)
N26_4 N 0.0781(3) 0.7881(4) 0.81631(17)
N27_4 N 0.0873(3) 0.7271(4) 0.7877(2)
N28_4 N 0.0468(3) 0.7267(4) 0.74248(17)
C1_4 C 0.1493(3) 0.7659(3) 0.70899(15)
C2_4 C 0.1478(3) 0.8343(3) 0.74759(17)
C3_4 C 0.1596(6) 0.8431(4) 0.6898(3)
C4_4 C 0.2180(4) 0.9108(3) 0.71632(18)
C5_4 C 0.2654(4) 0.8829(4) 0.7415(2)
C6_4 C 0.2469(3) 0.8361(3) 0.69352(17)
C7_4 C 0.2108(3) 0.7895(3) 0.74446(18)
C15_4 C 0.1319(7) 0.9559(7) 0.7563(4)
H2_4 H 0.1026 0.9265 0.7606
H3_4 H 0.1273 0.9827 0.7605
C16_4 C 0.1721(7) 0.9590(6) 0.7721(4)
H4_4 H 0.1751 0.9307 0.7697
H5_4 H 0.1655 0.9608 0.7897
H7_4 H 0.2632 0.9785 0.7633
H16_4 H 0.1622 0.9869 0.6341
C28_4 C 0.1224(8) 0.9665(8) 0.6883(5)
H19_4 H 0.1036 0.9765 0.6784
H20_4 H 0.1157 0.9351 0.6824
C29_4 C 0.1097(7) 0.9638(11) 0.7147(5)
H21_4 H 0.1108 0.9936 0.7193
H22_4 H 0.0768 0.9380 0.7168
C30_4 C 0.0145(4) 0.6545(4) 0.6591(2)
C31_4 C 0.0547(5) 0.7006(5) 0.6482(2)
H25_4 H 0.0435 0.7088 0.6331
H26_4 H 0.0640 0.7266 0.6601
C32_4 C 0.1392(6) 0.7366(5) 0.6335(3)
H27_4 H 0.1452 0.7645 0.6433
H28_4 H 0.1351 0.7428 0.6162
C33_4 C 0.1824(6) 0.7282(5) 0.6358(3)
H29_4 H 0.1762 0.6997 0.6265
H30_4 H 0.2112 0.7555 0.6291
C34_4 C 0.2224(4) 0.7056(5) 0.6665(3)
H31_4 H 0.2544 0.7299 0.6613
H32_4 H 0.2131 0.6765 0.6570
C35_4 C 0.2218(4) 0.6957(5) 0.6944(2)
H33_4 H 0.2415 0.6812 0.6977
H34_4 H 0.2352 0.7257 0.7036
C36_4 C 0.1616(5) 0.6399(5) 0.7221(2)
C37_4 C 0.1950(7) 0.6377(7) 0.7416(3)
H35_4 H 0.1941 0.6075 0.7403
H36_4 H 0.1847 0.6409 0.7580
H37_4 H 0.2272 0.6635 0.7388
C38_4 C 0.1086(4) 0.6093(4) 0.72689(17)
C39_4 C 0.0876(7) 0.5777(5) 0.7468(2)
H38_4 H 0.1065 0.5744 0.7589
C40_4 C 0.0364(7) 0.5506(5) 0.7482(3)
H39_4 H 0.0215 0.5293 0.7614
C41_4 C 0.0102(5) 0.5556(5) 0.7308(3)
C42_4 C 0.0329(4) 0.5889(4) 0.7111(2)
C43_4 C 0.0069(4) 0.6000(4) 0.6919(2)
C45_4 C 0.0069(6) 0.7625(8) 0.7238(3)
H45_4 H 0.0369 0.7876 0.7168
C46_4 C 0.0088(7) 0.7180(7) 0.7264(3)
H47_4 H 0.0138 0.7077 0.7102
C47_4 C 0.0466(6) 0.6836(5) 0.7503(3)
H48_4 H 0.0506 0.6677 0.7358
H49_4 H 0.0159 0.6617 0.7580
C48_4 C 0.0877(5) 0.6960(5) 0.7691(3)
H50_4 H 0.0835 0.6668 0.7768
H51_4 H 0.1184 0.7115 0.7604
C49_4 C 0.1098(4) 0.7369(6) 0.8090(3)
C50_4 C 0.1412(6) 0.7171(9) 0.8180(4)
H52_4 H 0.1351 0.6897 0.8080
H53_4 H 0.1340 0.7076 0.8352
H54_4 H 0.1744 0.7415 0.8165
C51_4 C 0.1040(4) 0.7709(5) 0.8255(2)
C52_4 C 0.1243(4) 0.7853(6) 0.8508(3)
H55_4 H 0.1445 0.7752 0.8576
C53_4 C 0.1120(5) 0.8140(7) 0.8633(3)
H56_4 H 0.1229 0.8221 0.8797
C54_4 C 0.0845(5) 0.8321(7) 0.8537(3)
H57_4 H 0.0783 0.8532 0.8628
C55_4 C 0.0667(4) 0.8172(5) 0.8301(2)
C56_4 C 0.0357(5) 0.8307(6) 0.8162(3)
C57_4 C 0.0154(10) 0.8569(12) 0.8332(6)
H58_4 H 0.0282 0.8894 0.8276
H59_4 H 0.0248 0.8569 0.8503
H62_4 H 0.0067 0.8669 0.7799
C59_4 C 0.0044(6) 0.8259(7) 0.7516(4)
H63_4 H 0.0362 0.8501 0.7460
H71_4 H 0.0029 0.7152 0.8727
H73_4 H 0.0036 0.7103 0.8435
H74_4 H 0.0266 0.6521 0.8337
H76_4 H 0.0124 0.5955 0.8014
H77_4 H 0.0075 0.5751 0.8286
Mo3_2 Mo 0.50469(3) 0.97199(4) 0.612580(14)
Mo4_3 Mo 0.02801(4) 0.53271(3) 0.612580(14)
Mn7_2 Mn 0.33339(5) 0.88555(7) 0.65512(2)
Mn8_3 Mn 0.11445(7) 0.44785(5) 0.65512(2)
Mn9_2 Mn 0.55221(7) 0.88549(5) 0.67822(2)
Mn13_4 Mn 0.20448(5) 0.97299(7) 0.48682(3)
N35_2 N 0.3942(3) 0.9380(4) 0.63143(14)
N36_3 N 0.0620(4) 0.4563(3) 0.63143(14)
N43_2 N 0.5738(3) 0.9378(5) 0.58287(18)
N44_3 N 0.0622(5) 0.6361(4) 0.58287(18)
N45_3 N 0.1066(4) 0.6063(3) 0.65404(15)
N46_2 N 0.4996(3) 0.8934(4) 0.65404(15)
N47_3 N 0.1670(3) 0.4400(4) 0.67930(15)
N48_2 N 0.4305(3) 0.8792(4) 0.57656(17)
N49_3 N 0.1208(4) 0.5514(3) 0.57656(17)
N52_2 N 0.2486(4) 0.9965(6) 0.5829(2)
N53_3 N 0.0035(6) 0.2522(4) 0.5829(2)
N60_4 N 0.1890(4) 0.9102(3) 0.46255(16)
N75_2 N 0.3618(4) 0.9321(6) 0.69111(17)
N76_3 N 0.0679(6) 0.4298(4) 0.69111(17)
N77_2 N 0.3885(3) 0.8661(4) 0.67118(18)
N78_3 N 0.1339(4) 0.5225(3) 0.67118(18)
N79_2 N 0.3303(3) 0.8240(4) 0.63084(17)
N80_3 N 0.1760(4) 0.5064(3) 0.63084(17)
N81_2 N 0.2802(3) 0.8665(4) 0.62365(15)
N82_3 N 0.1335(4) 0.4138(3) 0.62365(15)
N83_2 N 0.3031(3) 0.9362(4) 0.65508(17)
N84_3 N 0.0638(4) 0.3670(3) 0.65508(17)
N89_2 N 0.3937(4) 0.9731(5) 0.5457(2)
N90_3 N 0.0269(5) 0.4207(3) 0.5457(2)
N96_4 N 0.1279(3) 0.9247(4) 0.50237(18)
N98_4 N 0.2162(4) 0.9384(5) 0.52221(18)
N100_4 N 0.2833(3) 0.9914(4) 0.48681(15)
N104_4 N 0.1528(3) 0.9856(4) 0.46264(17)
C75_2 C 0.4325(3) 0.9499(4) 0.62435(15)
C76_3 C 0.0501(4) 0.4827(3) 0.62435(15)
C83_2 C 0.5495(4) 0.9508(6) 0.5919(2)
C84_3 C 0.0492(6) 0.5988(4) 0.5919(2)
C85_3 C 0.0775(4) 0.5803(3) 0.63982(17)
C86_2 C 0.5027(3) 0.9225(4) 0.63982(17)
C87_2 C 0.4561(3) 0.9120(4) 0.58888(18)
C88_3 C 0.0880(4) 0.5442(3) 0.58888(18)
C135_2 C 0.3211(4) 0.9733(6) 0.6743(2)
C136_3 C 0.0267(6) 0.3479(4) 0.6743(2)
H132_2 H 0.2972 0.9643 0.6875
H133_3 H 0.0357 0.3330 0.6875
C137_2 C 0.3672(5) 0.9792(7) 0.6852(2)
C138_3 C 0.0208(7) 0.3881(5) 0.6852(2)
H134_2 H 0.3754 0.9986 0.7003
H135_3 H 0.0014 0.3769 0.7003
H136_2 H 0.3932 0.9959 0.6733
H137_3 H 0.0041 0.3974 0.6733
C139_2 C 0.4032(5) 0.9307(8) 0.6999(3)
C140_3 C 0.0693(8) 0.4726(6) 0.6999(3)
H138_2 H 0.4311 0.9526 0.6901
H139_3 H 0.0474 0.4786 0.6901
H140_2 H 0.4094 0.9410 0.7172
H141_3 H 0.0590 0.4685 0.7172
C141_2 C 0.3948(5) 0.8791(8) 0.6976(3)
C142_3 C 0.1209(8) 0.5158(6) 0.6976(3)
H142_2 H 0.3663 0.8568 0.7069
H143_3 H 0.1432 0.5096 0.7069
H144_2 H 0.4221 0.8776 0.7043
H145_3 H 0.1224 0.5446 0.7043
C143_2 C 0.3722(5) 0.8165(6) 0.6669(3)
C144_3 C 0.1835(6) 0.5558(4) 0.6669(3)
H146_2 H 0.3965 0.8088 0.6721
H147_3 H 0.1912 0.5878 0.6721
H148_2 H 0.3431 0.7967 0.6764
H149_3 H 0.2033 0.5465 0.6764
C145_2 C 0.3623(5) 0.8072(6) 0.6390(2)
C146_3 C 0.1928(6) 0.5552(4) 0.6390(2)
H150_2 H 0.3478 0.7730 0.6357
H151_3 H 0.2270 0.5749 0.6357
H152_2 H 0.3923 0.8238 0.6298
H153_3 H 0.1762 0.5686 0.6298
C147_2 C 0.3065(5) 0.8116(7) 0.6113(2)
C148_3 C 0.1884(7) 0.4950(5) 0.6113(2)
C149_2 C 0.3043(7) 0.7760(10) 0.5918(3)
C150_3 C 0.2240(10) 0.5284(7) 0.5918(3)
H154_2 H 0.2741 0.7467 0.5931
H155_3 H 0.2533 0.5275 0.5931
H156_2 H 0.3075 0.7895 0.5754
H157_3 H 0.2105 0.5181 0.5754
H158_2 H 0.3301 0.7696 0.5946
H159_3 H 0.2304 0.5606 0.5946
C151_2 C 0.2759(4) 0.8340(6) 0.60645(17)
C152_3 C 0.1660(6) 0.4420(4) 0.60645(17)
C153_2 C 0.2443(5) 0.8234(9) 0.5866(2)
C154_3 C 0.1766(9) 0.4210(7) 0.5866(2)
H160_2 H 0.2410 0.8012 0.5745
H161_3 H 0.1988 0.4399 0.5745
C155_2 C 0.2172(5) 0.8475(9) 0.5852(3)
C156_3 C 0.1525(9) 0.3698(7) 0.5852(3)
H162_2 H 0.1959 0.8411 0.5720
H163_3 H 0.1589 0.3549 0.5720
C157_2 C 0.2222(5) 0.8787(7) 0.6026(3)
C158_3 C 0.1213(7) 0.3436(5) 0.6026(3)
H164_2 H 0.2039 0.8938 0.6020
H165_3 H 0.1062 0.3102 0.6020
C159_2 C 0.2555(4) 0.8893(6) 0.6223(2)
C160_3 C 0.1107(6) 0.3663(4) 0.6223(2)
C161_2 C 0.2666(4) 0.9264(6) 0.6415(2)
C162_3 C 0.0736(6) 0.3403(4) 0.6415(2)
C163_2 C 0.2369(5) 0.9505(6) 0.6436(3)
C164_3 C 0.0495(6) 0.2865(4) 0.6436(3)
H166_2 H 0.2268 0.9490 0.6607
H167_3 H 0.0510 0.2779 0.6607
H168_2 H 0.2558 0.9835 0.6385
H169_3 H 0.0165 0.2724 0.6385
H170_2 H 0.2091 0.9342 0.6331
H171_3 H 0.0658 0.2750 0.6331
C169_2 C 0.3502(5) 0.9703(8) 0.5831(3)
C170_3 C 0.0297(8) 0.3800(6) 0.5831(3)
H180_2 H 0.3343 0.9504 0.5976
H181_3 H 0.0496 0.3840 0.5976
H182_2 H 0.3283 0.9791 0.5754
H183_3 H 0.0209 0.3493 0.5754
C171_2 C 0.3626(5) 0.9416(7) 0.5643(3)
C172_3 C 0.0584(7) 0.4211(5) 0.5643(3)
H184_2 H 0.3334 0.9166 0.5566
H185_3 H 0.0834 0.4169 0.5566
H186_2 H 0.3781 0.9264 0.5730
H187_3 H 0.0736 0.4518 0.5730
C173_2 C 0.4035(6) 0.9604(7) 0.5244(3)
C174_3 C 0.0396(7) 0.4432(4) 0.5244(3)
C175_2 C 0.3837(9) 0.9092(11) 0.5154(4)
C176_3 C 0.0908(11) 0.4746(6) 0.5154(4)
H188_2 H 0.3563 0.8879 0.5254
H189_3 H 0.1121 0.4685 0.5254
H190_2 H 0.3742 0.9069 0.4982
H191_3 H 0.0931 0.4674 0.4982
H192_2 H 0.4081 0.9004 0.5169
H193_3 H 0.0996 0.5078 0.5169
C179_2 C 0.4519(6) 0.9943(7) 0.4826(3)
C180_3 C 0.0057(7) 0.4577(4) 0.4826(3)
H194_2 H 0.4418 0.9640 0.4758
H195_3 H 0.0360 0.4779 0.4758
H215_4 H 0.1043 0.9977 0.4280
C214_4 C 0.2972(4) 0.9689(5) 0.50648(19)
H233_4 H 0.3187 0.9588 0.4997
H235_4 H 0.3142 0.9921 0.5197
C216_4 C 0.2537(5) 0.9270(6) 0.5168(2)
H237_4 H 0.2621 0.9164 0.5320
H239_4 H 0.2417 0.9009 0.5048
C218_4 C 0.1696(5) 0.8999(7) 0.5316(3)
H241_4 H 0.1597 0.8705 0.5222
H243_4 H 0.1726 0.8935 0.5491
C220_4 C 0.1325(5) 0.9151(7) 0.5290(3)
H245_4 H 0.1419 0.9438 0.5388
H247_4 H 0.1017 0.8898 0.5352
C222_4 C 0.1001(4) 0.9478(6) 0.4974(3)
H249_4 H 0.0668 0.9266 0.5022
H251_4 H 0.1125 0.9770 0.5072
C224_4 C 0.1026(4) 0.9596(6) 0.4698(2)
H253_4 H 0.0879 0.9792 0.4668
H255_4 H 0.0855 0.9303 0.4601
H257_4 H 0.0860162 0.669247 0.628928
H258_4 H 0.201059 0.753788 0.671066
H259_4 H 0.0779232 0.747129 0.732952
H263_4 H 0.134419 0.92356 0.72643
H267_2 H 0.335913 0.916564 0.704406
H268_2 H 0.420455 0.886063 0.662267
H273_4 H 0.112699 0.892909 0.492989
H274_3 H 0.0834363 0.41935 0.704406
H276_3 H 0.113937 0.534392 0.662267
H281_4 H 0.229585 0.964304 0.535582
Mo2_4 Mo 0.86333(3) 0.63262(3) 0.779111(17)
N8_4 N 0.9791(3) 0.7063(3) 0.78947(15)
N9_4 N 0.9188(4) 0.5820(4) 0.7505(2)
N10_4 N 0.8514(3) 0.5530(3) 0.82230(17)
N11_4 N 0.7818(3) 0.5445(3) 0.74356(19)
N13_4 N 0.8748(4) 0.7054(6) 0.8259(3)
N14_4 N 0.8773(4) 0.7145(4) 0.7379(3)
N29_4 N 0.9986(4) 0.7779(4) 0.7488(3)
N30_4 N 0.8699(3) 0.4613(3) 0.83097(18)
N31_4 N 0.9445(3) 0.5496(4) 0.81113(18)
N32_4 N 0.9586(3) 0.6167(3) 0.84653(15)
N33_4 N 0.8882(3) 0.5784(3) 0.87830(14)
N34_4 N 0.8339(3) 0.4862(3) 0.87070(17)
C8_4 C 0.9387(4) 0.6791(3) 0.78643(18)
C9_4 C 0.9007(3) 0.6014(4) 0.7597(2)
C10_4 C 0.8549(3) 0.5809(4) 0.8077(2)
C11_4 C 0.8100(4) 0.5752(4) 0.7554(2)
C12_4 C 0.7930(3) 0.6206(3) 0.78949(19)
C13_4 C 0.8707(4) 0.6774(6) 0.8084(3)
C14_4 C 0.8723(4) 0.6836(4) 0.7517(3)
H23_4 H 0.9901 0.6603 0.6662
H24_4 H 0.9996 0.6306 0.6459
H40_4 H 0.9768 0.5373 0.7314
C44_4 C 0.9531(4) 0.5703(5) 0.6898(3)
H41_4 H 0.9445 0.5602 0.6727
H42_4 H 0.9390 0.5892 0.6949
H43_4 H 0.9416 0.5425 0.7003
H44_4 H 0.9810 0.7572 0.7125
H46_4 H 0.9787 0.6927 0.7333
H60_4 H 0.9809 0.8402 0.8321
C58_4 C 0.9983(6) 0.8336(6) 0.7774(4)
H61_4 H 0.9648 0.8133 0.7821
H64_4 H 0.9807 0.8285 0.7415
C60_4 C 0.8250(3) 0.5013(4) 0.8912(2)
C61_4 C 0.7887(5) 0.4708(5) 0.9104(2)
H65_4 H 0.7733 0.4377 0.9054
H66_4 H 0.7650 0.4806 0.9120
H67_4 H 0.8044 0.4746 0.9262
C62_4 C 0.8540(3) 0.5539(4) 0.89583(18)
C63_4 C 0.8488(4) 0.5776(5) 0.9164(2)
H68_4 H 0.8257 0.5609 0.9286
C64_4 C 0.8781(5) 0.6255(5) 0.9179(2)
H69_4 H 0.8748 0.6420 0.9314
C65_4 C 0.9124(4) 0.6506(4) 0.9006(2)
H70_4 H 0.9321 0.6838 0.9021
C66_4 C 0.9175(3) 0.6259(3) 0.88035(19)
C67_4 C 0.9550(3) 0.6474(3) 0.86047(19)
C68_4 C 0.9834(4) 0.7016(4) 0.8580(3)
H72_4 H 0.9616 0.7138 0.8564
C69_4 C 0.9950(3) 0.6306(4) 0.82686(19)
H75_4 H 0.9888 0.6476 0.8137
C70_4 C 0.9934(4) 0.5871(5) 0.8166(2)
C71_4 C 0.9364(5) 0.5030(5) 0.8018(3)
H78_4 H 0.9559 0.4931 0.8112
H79_4 H 0.9458 0.5060 0.7843
C72_4 C 0.8841(5) 0.4659(5) 0.8044(3)
H80_4 H 0.8648 0.4753 0.7946
H81_4 H 0.8786 0.4351 0.7982
C73_4 C 0.8190(4) 0.4335(4) 0.8360(3)
H82_4 H 0.8069 0.4002 0.8312
H83_4 H 0.8022 0.4459 0.8262
C74_4 C 0.8097(4) 0.4360(4) 0.8636(2)
H84_4 H 0.7754 0.4213 0.8666
H85_4 H 0.8219 0.4189 0.8733
Mo6_3 Mo 0.89738(4) 0.19667(3) 0.554223(17)
Mn6_3 Mn 0.87200(9) 0.55210(7) 0.61179(3)
Mn11_3 Mn 0.94672(7) 0.38233(5) 0.55591(3)
O3_3 O 0.7965(4) 0.5386(3) 0.6030(3)
N38_3 N 0.9549(4) 0.4510(3) 0.57223(17)
N40_3 N 0.9584(8) 0.4706(7) 0.6599(3)
N42_3 N 0.9431(5) 0.5595(4) 0.61893(17)
N51_3 N 0.9395(4) 0.3125(3) 0.54387(15)
N57_3 N 0.9040(4) 0.1152(3) 0.58978(19)
N62_3 N 0.8361(7) 0.2082(4) 0.5075(3)
N64_3 N 0.8295(6) 0.2107(4) 0.5955(3)
N66_3 N 0.8490(7) 0.4719(5) 0.6025(3)
N68_3 N 0.8814(7) 0.5512(5) 0.5687(2)
N70_3 N 0.9076(6) 0.6303(4) 0.5987(2)
N72_3 N 0.8752(6) 0.6005(5) 0.6434(2)
N74_3 N 0.8396(7) 0.5089(5) 0.6477(3)
N86_3 N 0.8728(6) 0.3621(4) 0.5399(2)
N88_3 N 0.9567(5) 0.4115(3) 0.51703(17)
N92_3 N 0.9868(5) 0.3802(3) 0.59086(17)
N94_3 N 0.8874(6) 0.3320(4) 0.5846(3)
C78_3 C 0.9802(4) 0.4812(3) 0.58575(17)
C80_3 C 0.9832(7) 0.4930(6) 0.6436(3)
C82_3 C 0.9739(5) 0.5514(4) 0.61702(18)
C90_3 C 0.9263(5) 0.2721(4) 0.54691(18)
C92_3 C 0.9660(5) 0.2341(3) 0.5737(2)
C95_3 C 0.9407(5) 0.1883(3) 0.5257(2)
C97_3 C 0.9015(6) 0.1434(4) 0.5780(2)
C100_3 C 0.8391(4) 0.1264(3) 0.54385(19)
C102_3 C 0.8600(7) 0.2041(4) 0.5250(3)
C104_3 C 0.8554(6) 0.2057(4) 0.5817(3)
C106_3 C 0.8427(10) 0.4653(7) 0.5771(4)
H89_3 H 0.8428 0.4360 0.5728
H91_3 H 0.8113 0.4607 0.5729
C108_3 C 0.8798(9) 0.5055(7) 0.5613(4)
H93_3 H 0.9111 0.5085 0.5637
H95_3 H 0.8714 0.4989 0.5437
C110_3 C 0.9234(11) 0.5965(7) 0.5630(3)
H97_3 H 0.9275 0.5993 0.5450
H99_3 H 0.9514 0.5966 0.5701
C112_3 C 0.9220(9) 0.6364(6) 0.5719(3)
H101_3 H 0.9535 0.6648 0.5701
H103_3 H 0.8994 0.6412 0.5621
C114_3 C 0.9135(7) 0.6640(5) 0.6130(3)
C116_3 C 0.9342(9) 0.7143(5) 0.6052(4)
H105_3 H 0.9122 0.7254 0.6092
H107_3 H 0.9641 0.7337 0.6139
H109_3 H 0.9401 0.7169 0.5875
C118_3 C 0.8954(8) 0.6482(6) 0.6385(3)
C120_3 C 0.8973(10) 0.6776(8) 0.6580(5)
H111_3 H 0.9098 0.7103 0.6552
C122_3 C 0.8797(12) 0.6575(10) 0.6827(4)
H113_3 H 0.8822 0.6777 0.6958
C124_3 C 0.8593(11) 0.6088(9) 0.6868(4)
H115_3 H 0.8472 0.5947 0.7023
C126_3 C 0.8586(9) 0.5827(7) 0.6661(4)
C128_3 C 0.8393(11) 0.5296(9) 0.6673(4)
C130_3 C 0.8178(13) 0.4994(9) 0.6908(4)
H117_3 H 0.8420 0.4956 0.6993
H119_3 H 0.8063 0.5153 0.7017
H121_3 H 0.7916 0.4684 0.6863
C132_3 C 0.8226(11) 0.4558(8) 0.6451(5)
H123_3 H 0.7938 0.4370 0.6550
H125_3 H 0.8473 0.4491 0.6510
C134_3 C 0.8126(13) 0.4431(7) 0.6187(5)
H127_3 H 0.7839 0.4442 0.6141
H129_3 H 0.8055 0.4102 0.6166
H131_3 H 0.9965 0.3235 0.6672
C166_3 C 0.9111(10) 0.3403(6) 0.6096(3)
H173_3 H 0.8905 0.3144 0.6209
H175_3 H 0.9160 0.3703 0.6166
C168_3 C 0.9575(10) 0.3422(7) 0.6070(3)
H177_3 H 0.9527 0.3121 0.6001
H179_3 H 0.9728 0.3472 0.6232
C178_3 C 0.9998(6) 0.4374(4) 0.5079(2)
C182_3 C 0.9647(9) 0.4454(5) 0.4701(3)
H197_3 H 0.9675 0.4563 0.4537
C184_3 C 0.9191(9) 0.4179(5) 0.4797(3)
H199_3 H 0.8918 0.4117 0.4706
C186_3 C 0.9162(6) 0.4001(4) 0.5033(2)
C188_3 C 0.8717(8) 0.3691(5) 0.5172(3)
C190_3 C 0.8252(16) 0.3488(10) 0.5002(6)
H201_3 H 0.8055 0.3616 0.5058
H203_3 H 0.8346 0.3582 0.4831
H205_3 H 0.8074 0.3143 0.5013
C192_3 C 0.8314(8) 0.3317(6) 0.5560(4)
H207_3 H 0.8182 0.2982 0.5513
H209_3 H 0.8065 0.3401 0.5535
C194_3 C 0.8452(9) 0.3378(6) 0.5818(4)
H211_3 H 0.8528 0.3696 0.5874
H213_3 H 0.8189 0.3141 0.5919
H260_4 H 0.964277 0.753881 0.753753
H261_4 H 0.886457 0.446033 0.840344
H264_4 H 0.931948 0.562919 0.797751
H269_3 H 0.877525 0.467752 0.606904
H271_3 H 0.997461 0.411257 0.600381
H279_3 H 0.852845 0.551184 0.560547
H280_3 H 0.877063 0.29761 0.579581
Mo1_5 Mo 0.16197(3) 0.36135(4) 0.720754(14)
Mo2_5 Mo 0.36738(3) 0.23072(4) 0.779111(17)
Mn2_4 Mn 0.33327(5) 0.44779(7) 0.67822(2)
Mn3_5 Mn 0.23106(5) 0.28006(7) 0.77743(3)
N1_5 N 0.2724(3) 0.3954(4) 0.70191(14)
N2_5 N 0.1706(3) 0.2883(4) 0.76111(17)
N3_5 N 0.1545(4) 0.2918(8) 0.6735(3)
N4_5 N 0.0503(3) 0.2765(5) 0.71441(17)
N5_5 N 0.0928(3) 0.3956(5) 0.75047(18)
N7_5 N 0.2361(3) 0.4542(4) 0.75678(17)
N8_5 N 0.2937(3) 0.2729(4) 0.78947(15)
N9_5 N 0.4180(4) 0.3369(6) 0.7505(2)
N10_5 N 0.4470(3) 0.2985(4) 0.82230(17)
N11_5 N 0.4555(3) 0.2374(4) 0.74356(19)
N13_5 N 0.2946(6) 0.1695(7) 0.8259(3)
N14_5 N 0.2855(4) 0.1629(6) 0.7379(3)
N15_5 N 0.0438(5) 0.1824(7) 0.7309(3)
N20_5 N 0.3048(4) 0.4013(6) 0.64223(17)
N21_5 N 0.2781(3) 0.4673(4) 0.66216(18)
N22_5 N 0.3363(3) 0.5094(4) 0.70250(17)
N23_5 N 0.3864(3) 0.4669(4) 0.70969(15)
N24_5 N 0.3635(3) 0.3972(4) 0.67826(17)
N25_5 N 0.1774(4) 0.2062(6) 0.7935(2)
N26_5 N 0.2119(4) 0.2901(5) 0.81631(17)
N27_5 N 0.2729(4) 0.3603(5) 0.7877(2)
N28_5 N 0.2733(4) 0.3202(5) 0.74248(17)
N29_5 N 0.2221(4) 0.2208(6) 0.7488(3)
N30_5 N 0.5387(3) 0.4087(4) 0.83097(18)
N31_5 N 0.4504(4) 0.3950(5) 0.81113(18)
N32_5 N 0.3833(3) 0.3420(4) 0.84653(15)
N33_5 N 0.4216(3) 0.3099(4) 0.87830(14)
N34_5 N 0.5138(3) 0.3478(4) 0.87070(17)
C1_5 C 0.2341(3) 0.3835(4) 0.70899(15)
C2_5 C 0.1657(3) 0.3136(4) 0.74759(17)
C3_5 C 0.1569(4) 0.3166(7) 0.6898(3)
C4_5 C 0.0892(3) 0.3073(5) 0.71632(18)
C5_5 C 0.1171(4) 0.3826(6) 0.7415(2)
C6_5 C 0.1639(3) 0.4109(4) 0.69352(17)
C7_5 C 0.2105(3) 0.4214(4) 0.74446(18)
C8_5 C 0.3209(3) 0.2597(5) 0.78643(18)
C9_5 C 0.3986(4) 0.2994(5) 0.7597(2)
C10_5 C 0.4191(4) 0.2741(5) 0.8077(2)
C11_5 C 0.4248(4) 0.2349(6) 0.7554(2)
C12_5 C 0.3794(3) 0.1725(4) 0.78949(19)
C13_5 C 0.3226(6) 0.1934(7) 0.8084(3)
C14_5 C 0.3164(4) 0.1888(6) 0.7517(3)
C15_5 C 0.0441(7) 0.1761(10) 0.7563(4)
H2_5 H 0.0735 0.1762 0.7606
H3_5 H 0.0173 0.1447 0.7605
C16_5 C 0.0410(6) 0.2132(9) 0.7721(4)
H4_5 H 0.0693 0.2445 0.7697
H5_5 H 0.0392 0.2048 0.7897
H7_5 H 0.0215 0.2848 0.7633
H16_5 H 0.0131 0.1754 0.6341
C28_5 C 0.0335(8) 0.1560(11) 0.6883(5)
H19_5 H 0.0235 0.1272 0.6784
H20_5 H 0.0649 0.1807 0.6824
C29_5 C 0.0362(11) 0.1460(13) 0.7147(5)
H21_5 H 0.0064 0.1173 0.7193
H22_5 H 0.0620 0.1389 0.7168
C30_5 C 0.3455(4) 0.3601(6) 0.6591(2)
H23_5 H 0.3397 0.3299 0.6662
H24_5 H 0.3694 0.3691 0.6459
C31_5 C 0.2994(5) 0.3542(7) 0.6482(2)
H25_5 H 0.2912 0.3348 0.6331
H26_5 H 0.2734 0.3375 0.6601
C32_5 C 0.2634(5) 0.4027(8) 0.6335(3)
H27_5 H 0.2355 0.3808 0.6433
H28_5 H 0.2572 0.3924 0.6162
C33_5 C 0.2718(5) 0.4543(8) 0.6358(3)
H29_5 H 0.3003 0.4766 0.6265
H30_5 H 0.2445 0.4558 0.6291
C34_5 C 0.2944(5) 0.5169(6) 0.6665(3)
H31_5 H 0.2701 0.5246 0.6613
H32_5 H 0.3235 0.5367 0.6570
C35_5 C 0.3043(5) 0.5262(6) 0.6944(2)
H33_5 H 0.3188 0.5604 0.6977
H34_5 H 0.2743 0.5096 0.7036
C36_5 C 0.3601(5) 0.5218(7) 0.7221(2)
C37_5 C 0.3623(7) 0.5574(10) 0.7416(3)
H35_5 H 0.3925 0.5867 0.7403
H36_5 H 0.3591 0.5439 0.7580
H37_5 H 0.3365 0.5638 0.7388
C38_5 C 0.3907(4) 0.4994(6) 0.72689(17)
C39_5 C 0.4223(5) 0.5100(9) 0.7468(2)
H38_5 H 0.4256 0.5322 0.7589
C40_5 C 0.4494(5) 0.4859(9) 0.7482(3)
H39_5 H 0.4707 0.4923 0.7614
C41_5 C 0.4444(5) 0.4547(7) 0.7308(3)
H40_5 H 0.4627 0.4396 0.7314
C42_5 C 0.4111(4) 0.4441(6) 0.7111(2)
C43_5 C 0.4000(4) 0.4070(6) 0.6919(2)
C44_5 C 0.4297(5) 0.3829(6) 0.6898(3)
H41_5 H 0.4398 0.3844 0.6727
H42_5 H 0.4108 0.3499 0.6949
H43_5 H 0.4575 0.3992 0.7003
C45_5 C 0.2375(8) 0.2445(10) 0.7238(3)
H44_5 H 0.2428 0.2239 0.7125
H45_5 H 0.2124 0.2494 0.7168
C46_5 C 0.2820(7) 0.2909(10) 0.7264(3)
H46_5 H 0.3073 0.2861 0.7333
H47_5 H 0.2923 0.3062 0.7102
C47_5 C 0.3164(5) 0.3631(8) 0.7503(3)
H48_5 H 0.3323 0.3830 0.7358
H49_5 H 0.3383 0.3543 0.7580
C48_5 C 0.3040(5) 0.3918(7) 0.7691(3)
H50_5 H 0.3332 0.4168 0.7768
H51_5 H 0.2885 0.4070 0.7604
C49_5 C 0.2631(6) 0.3730(7) 0.8090(3)
C50_5 C 0.2829(9) 0.4242(11) 0.8180(4)
H52_5 H 0.3103 0.4455 0.8080
H53_5 H 0.2924 0.4265 0.8352
H54_5 H 0.2585 0.4330 0.8165
C51_5 C 0.2291(5) 0.3332(6) 0.8255(2)
C52_5 C 0.2147(6) 0.3391(7) 0.8508(3)
H55_5 H 0.2248 0.3694 0.8576
C53_5 C 0.1860(7) 0.2981(9) 0.8633(3)
H56_5 H 0.1779 0.3009 0.8797
C54_5 C 0.1679(7) 0.2525(9) 0.8537(3)
H57_5 H 0.1468 0.2252 0.8628
C55_5 C 0.1828(5) 0.2496(6) 0.8301(2)
C56_5 C 0.1693(6) 0.2051(8) 0.8162(3)
C57_5 C 0.1431(12) 0.1586(16) 0.8332(6)
H58_5 H 0.1106 0.1389 0.8276
H59_5 H 0.1431 0.1680 0.8503
H60_5 H 0.1598 0.1408 0.8321
C58_5 C 0.1664(6) 0.1648(8) 0.7774(4)
H61_5 H 0.1867 0.1516 0.7821
H62_5 H 0.1331 0.1399 0.7799
C59_5 C 0.1741(7) 0.1786(9) 0.7516(4)
H63_5 H 0.1499 0.1862 0.7460
H64_5 H 0.1715 0.1523 0.7415
C60_5 C 0.4987(4) 0.3238(5) 0.8912(2)
C61_5 C 0.5292(5) 0.3180(7) 0.9104(2)
H65_5 H 0.5623 0.3357 0.9054
H66_5 H 0.5194 0.2845 0.9120
H67_5 H 0.5254 0.3299 0.9262
C62_5 C 0.4461(4) 0.3002(5) 0.89583(18)
C63_5 C 0.4224(5) 0.2713(6) 0.9164(2)
H68_5 H 0.4391 0.2649 0.9286
C64_5 C 0.3745(5) 0.2527(7) 0.9179(2)
H69_5 H 0.3580 0.2329 0.9314
C65_5 C 0.3494(4) 0.2619(6) 0.9006(2)
H70_5 H 0.3162 0.2484 0.9021
C66_5 C 0.3741(3) 0.2917(4) 0.88035(19)
C67_5 C 0.3526(3) 0.3077(4) 0.86047(19)
C68_5 C 0.2984(4) 0.2819(6) 0.8580(3)
H71_5 H 0.2848 0.2878 0.8727
H72_5 H 0.2862 0.2479 0.8564
H73_5 H 0.2897 0.2934 0.8435
C69_5 C 0.3694(4) 0.3645(5) 0.82686(19)
H74_5 H 0.3479 0.3746 0.8337
H75_5 H 0.3524 0.3413 0.8137
C70_5 C 0.4129(5) 0.4064(6) 0.8166(2)
H76_5 H 0.4045 0.4170 0.8014
H77_5 H 0.4249 0.4325 0.8286
C71_5 C 0.4970(5) 0.4335(7) 0.8018(3)
H78_5 H 0.5069 0.4629 0.8112
H79_5 H 0.4940 0.4399 0.7843
C72_5 C 0.5341(5) 0.4183(7) 0.8044(3)
H80_5 H 0.5247 0.3896 0.7946
H81_5 H 0.5649 0.4436 0.7982
C73_5 C 0.5665(4) 0.3856(6) 0.8360(3)
H82_5 H 0.5998 0.4068 0.8312
H83_5 H 0.5541 0.3564 0.8262
C74_5 C 0.5640(4) 0.3738(6) 0.8636(2)
H84_5 H 0.5787 0.3542 0.8666
H85_5 H 0.5811 0.4031 0.8733
Mo4_4 Mo 0.46729(3) 0.49531(5) 0.612580(14)
Mo6_4 Mo 0.80333(3) 0.70072(5) 0.554223(17)
Mn6_4 Mn 0.44790(7) 0.31991(11) 0.61179(3)
Mn8_4 Mn 0.55215(5) 0.66661(9) 0.65512(2)
Mn11_4 Mn 0.61767(5) 0.56440(9) 0.55591(3)
Mn13_5 Mn 0.02701(7) 0.23150(9) 0.48682(3)
O3_4 O 0.4614(3) 0.2580(5) 0.6030(3)
N36_4 N 0.5437(3) 0.6058(5) 0.63143(14)
N38_4 N 0.5490(3) 0.5040(5) 0.57223(17)
N40_4 N 0.5294(7) 0.4879(11) 0.6599(3)
N42_4 N 0.4405(4) 0.3837(6) 0.61893(17)
N44_4 N 0.3639(4) 0.4262(6) 0.58287(18)
N45_4 N 0.3937(3) 0.5004(5) 0.65404(15)
N47_4 N 0.5600(4) 0.7271(5) 0.67930(15)
N49_4 N 0.4486(3) 0.5695(5) 0.57656(17)
N51_4 N 0.6875(3) 0.6271(5) 0.54387(15)
N53_4 N 0.7478(4) 0.7514(7) 0.5829(2)
N57_4 N 0.8848(3) 0.7889(5) 0.58978(19)
N60_5 N 0.0898(3) 0.2787(5) 0.46255(16)
N62_4 N 0.7918(4) 0.6280(8) 0.5075(3)
N64_4 N 0.7893(4) 0.6189(7) 0.5955(3)
N66_4 N 0.5281(5) 0.3772(9) 0.6025(3)
N68_4 N 0.4488(5) 0.3303(9) 0.5687(2)
N70_4 N 0.3697(4) 0.2774(7) 0.5987(2)
N72_4 N 0.3995(5) 0.2748(8) 0.6434(2)
N74_4 N 0.4911(5) 0.3308(9) 0.6477(3)
N76_4 N 0.5702(4) 0.6382(7) 0.69111(17)
N78_4 N 0.4775(3) 0.6115(5) 0.67118(18)
N80_4 N 0.4936(3) 0.6697(5) 0.63084(17)
N82_4 N 0.5862(3) 0.7198(5) 0.62365(15)
N84_4 N 0.6330(3) 0.6969(5) 0.65508(17)
N86_4 N 0.6379(4) 0.5108(7) 0.5399(2)
N88_4 N 0.5885(3) 0.5453(6) 0.51703(17)
N90_4 N 0.5793(3) 0.6063(6) 0.5457(2)
N92_4 N 0.6198(3) 0.6067(6) 0.59086(17)
N94_4 N 0.6680(4) 0.5555(7) 0.5846(3)
N96_5 N 0.0753(4) 0.2033(5) 0.50237(18)
N98_5 N 0.0616(5) 0.2779(6) 0.52221(18)
N100_5 N 0.0086(4) 0.2920(5) 0.48681(15)
N104_5 N 0.0144(4) 0.1673(5) 0.46264(17)
C76_4 C 0.5173(3) 0.5675(5) 0.62435(15)
C78_4 C 0.5188(3) 0.4991(5) 0.58575(17)
C80_4 C 0.5070(6) 0.4903(9) 0.6436(3)
C82_4 C 0.4486(4) 0.4226(6) 0.61702(18)
C84_4 C 0.4012(4) 0.4505(7) 0.5919(2)
C85_4 C 0.4197(3) 0.4973(5) 0.63982(17)
C88_4 C 0.4558(3) 0.5439(5) 0.58888(18)
C90_4 C 0.7279(4) 0.6543(6) 0.54691(18)
C92_4 C 0.7659(3) 0.7320(6) 0.5737(2)
C95_4 C 0.8117(3) 0.7525(6) 0.5257(2)
C97_4 C 0.8566(4) 0.7582(7) 0.5780(2)
C100_4 C 0.8736(3) 0.7128(5) 0.54385(19)
C102_4 C 0.7959(4) 0.6560(8) 0.5250(3)
C104_4 C 0.7943(4) 0.6498(7) 0.5817(3)
C106_4 C 0.5347(7) 0.3775(12) 0.5771(4)
H89_4 H 0.5640 0.4069 0.5728
H91_4 H 0.5393 0.3507 0.5729
C108_4 C 0.4945(7) 0.3744(11) 0.5613(4)
H93_4 H 0.4915 0.4027 0.5637
H95_4 H 0.5011 0.3726 0.5437
C110_4 C 0.4035(7) 0.3270(13) 0.5630(3)
H97_4 H 0.4007 0.3283 0.5450
H99_4 H 0.4034 0.3549 0.5701
C112_4 C 0.3636(6) 0.2857(11) 0.5719(3)
H101_4 H 0.3352 0.2888 0.5701
H103_4 H 0.3588 0.2583 0.5621
C114_4 C 0.3360(5) 0.2496(9) 0.6130(3)
C116_4 C 0.2857(5) 0.2200(10) 0.6052(4)
H105_4 H 0.2746 0.1869 0.6092
H107_4 H 0.2663 0.2305 0.6139
H109_4 H 0.2831 0.2233 0.5875
C118_4 C 0.3518(6) 0.2473(10) 0.6385(3)
C120_4 C 0.3224(8) 0.2198(13) 0.6580(5)
H111_4 H 0.2897 0.1996 0.6552
C122_4 C 0.3425(10) 0.2223(16) 0.6827(4)
H113_4 H 0.3223 0.2046 0.6958
C124_4 C 0.3912(9) 0.2506(14) 0.6868(4)
H115_4 H 0.4053 0.2526 0.7023
C126_4 C 0.4173(7) 0.2760(11) 0.6661(4)
C128_4 C 0.4704(9) 0.3098(14) 0.6673(4)
C130_4 C 0.5006(9) 0.3185(16) 0.6908(4)
H117_4 H 0.5044 0.3465 0.6993
H119_4 H 0.4847 0.2911 0.7017
H121_4 H 0.5316 0.3233 0.6863
C132_4 C 0.5442(8) 0.3669(14) 0.6451(5)
H123_4 H 0.5630 0.3569 0.6550
H125_4 H 0.5509 0.3983 0.6510
C134_4 C 0.5569(7) 0.3696(15) 0.6187(5)
H127_4 H 0.5558 0.3398 0.6141
H129_4 H 0.5898 0.3954 0.6166
C136_4 C 0.6521(4) 0.6789(7) 0.6743(2)
H131_4 H 0.6765 0.6731 0.6672
H133_4 H 0.6670 0.7028 0.6875
C138_4 C 0.6119(5) 0.6328(9) 0.6852(2)
H135_4 H 0.6231 0.6246 0.7003
H137_4 H 0.6026 0.6068 0.6733
C140_4 C 0.5274(6) 0.5968(10) 0.6999(3)
H139_4 H 0.5214 0.5689 0.6901
H141_4 H 0.5315 0.5906 0.7172
C142_4 C 0.4842(6) 0.6052(10) 0.6976(3)
H143_4 H 0.4904 0.6337 0.7069
H145_4 H 0.4554 0.5779 0.7043
C144_4 C 0.4442(4) 0.6278(7) 0.6669(3)
H147_4 H 0.4122 0.6035 0.6721
H149_4 H 0.4535 0.6569 0.6764
C146_4 C 0.4448(4) 0.6377(7) 0.6390(2)
H151_4 H 0.4251 0.6522 0.6357
H153_4 H 0.4314 0.6077 0.6298
C148_4 C 0.5050(5) 0.6935(9) 0.6113(2)
C150_4 C 0.4716(7) 0.6957(12) 0.5918(3)
H155_4 H 0.4725 0.7259 0.5931
H157_4 H 0.4819 0.6925 0.5754
H159_4 H 0.4394 0.6699 0.5946
C152_4 C 0.5580(4) 0.7241(7) 0.60645(17)
C154_4 C 0.5790(7) 0.7557(11) 0.5866(2)
H161_4 H 0.5601 0.7590 0.5745
C156_4 C 0.6302(7) 0.7828(11) 0.5852(3)
H163_4 H 0.6451 0.8041 0.5720
C158_4 C 0.6564(5) 0.7778(9) 0.6026(3)
H165_4 H 0.6898 0.7961 0.6020
C160_4 C 0.6337(4) 0.7445(7) 0.6223(2)
C162_4 C 0.6597(4) 0.7334(7) 0.6415(2)
C164_4 C 0.7135(4) 0.7631(7) 0.6436(3)
H167_4 H 0.7221 0.7732 0.6607
H169_4 H 0.7276 0.7442 0.6385
H171_4 H 0.7250 0.7909 0.6331
C166_4 C 0.6597(6) 0.5709(12) 0.6096(3)
H173_4 H 0.6856 0.5762 0.6209
H175_4 H 0.6297 0.5458 0.6166
C168_4 C 0.6578(7) 0.6154(12) 0.6070(3)
H177_4 H 0.6879 0.6407 0.6001
H179_4 H 0.6528 0.6257 0.6232
C170_4 C 0.6200(6) 0.6498(10) 0.5831(3)
H181_4 H 0.6160 0.6657 0.5976
H183_4 H 0.6507 0.6717 0.5754
C172_4 C 0.5789(5) 0.6374(9) 0.5643(3)
H185_4 H 0.5831 0.6666 0.5566
H187_4 H 0.5482 0.6219 0.5730
C174_4 C 0.5568(4) 0.5965(8) 0.5244(3)
C176_4 C 0.5254(6) 0.6163(13) 0.5154(4)
H189_4 H 0.5315 0.6437 0.5254
H191_4 H 0.5326 0.6258 0.4982
H193_4 H 0.4922 0.5919 0.5169
C178_4 C 0.5626(4) 0.5625(7) 0.5079(2)
C180_4 C 0.5423(4) 0.5481(8) 0.4826(3)
H195_4 H 0.5221 0.5582 0.4758
C182_4 C 0.5546(5) 0.5194(10) 0.4701(3)
H197_4 H 0.5437 0.5113 0.4537
C184_4 C 0.5821(5) 0.5013(10) 0.4797(3)
H199_4 H 0.5883 0.4802 0.4706
C186_4 C 0.5999(4) 0.5162(7) 0.5033(2)
C188_4 C 0.6309(5) 0.5027(9) 0.5172(3)
C190_4 C 0.6512(10) 0.4765(19) 0.5002(6)
H201_4 H 0.6384 0.4440 0.5058
H203_4 H 0.6418 0.4765 0.4831
H205_4 H 0.6857 0.4932 0.5013
C192_4 C 0.6683(6) 0.4998(10) 0.5560(4)
H207_4 H 0.7018 0.5201 0.5513
H209_4 H 0.6599 0.4665 0.5535
C194_4 C 0.6622(6) 0.5075(11) 0.5818(4)
H211_4 H 0.6304 0.4833 0.5874
H213_4 H 0.6859 0.5049 0.5919
H215_5 H 0.0023 0.1067 0.4280
C214_5 C 0.0311(5) 0.3284(6) 0.50648(19)
H233_5 H 0.0412 0.3600 0.4997
H235_5 H 0.0079 0.3222 0.5197
C216_5 C 0.0730(6) 0.3268(8) 0.5168(2)
H237_5 H 0.0836 0.3458 0.5320
H239_5 H 0.0991 0.3409 0.5048
C218_5 C 0.1001(7) 0.2698(9) 0.5316(3)
H241_5 H 0.1295 0.2893 0.5222
H243_5 H 0.1065 0.2792 0.5491
C220_5 C 0.0849(7) 0.2175(9) 0.5290(3)
H245_5 H 0.0562 0.1982 0.5388
H247_5 H 0.1102 0.2120 0.5352
C222_5 C 0.0522(6) 0.1524(7) 0.4974(3)
H249_5 H 0.0734 0.1403 0.5022
H251_5 H 0.0230 0.1356 0.5072
C224_5 C 0.0404(6) 0.1431(7) 0.4698(2)
H253_5 H 0.0208 0.1088 0.4668
H255_5 H 0.0697 0.1553 0.4601
H257_5 H 0.330753 0.41677 0.628928
H258_5 H 0.246212 0.447271 0.671066
H259_5 H 0.252871 0.330794 0.732952
H260_5 H 0.246119 0.210396 0.753753
H261_5 H 0.553967 0.440424 0.840344
H263_5 H 0.0764396 0.210859 0.72643
H264_5 H 0.437081 0.36903 0.797751
H269_4 H 0.532248 0.409773 0.606904
H271_4 H 0.588743 0.586204 0.600381
H273_5 H 0.107091 0.21979 0.492989
H274_4 H 0.58065 0.664087 0.704406
H276_4 H 0.465608 0.579545 0.662267
H279_4 H 0.448816 0.301661 0.560547
H280_4 H 0.70239 0.579453 0.579581
H281_5 H 0.0356963 0.265282 0.535582
Mn1_5 Mn 0.98657(6) 0.20534(9) 0.72155(3)
O1_5 O 0.9246(3) 0.1299(4) 0.7304(3)
N16_5 N 0.9969(5) 0.2148(7) 0.7647(2)
N17_5 N 0.9440(4) 0.2410(6) 0.7347(2)
N18_5 N 0.9414(4) 0.2086(6) 0.6900(2)
N19_5 N 0.9974(5) 0.1730(7) 0.6857(3)
C17_5 C 0.9936(9) 0.2568(11) 0.7704(3)
H6_5 H 0.9949 0.2609 0.7884
C18_5 C 0.9523(7) 0.2554(9) 0.7615(3)
H8_5 H 0.9554 0.2869 0.7633
H9_5 H 0.9249 0.2328 0.7713
C19_5 C 0.9162(5) 0.2469(7) 0.7204(3)
C20_5 C 0.8866(8) 0.2676(9) 0.7282(4)
H10_5 H 0.8535 0.2456 0.7242
H11_5 H 0.8971 0.2975 0.7195
H12_5 H 0.8899 0.2735 0.7459
C21_5 C 0.9139(5) 0.2288(8) 0.6949(3)
C22_5 C 0.8864(6) 0.2307(10) 0.6754(5)
H13_5 H 0.8662 0.2432 0.6782
C23_5 C 0.8889(7) 0.2131(12) 0.6507(4)
H14_5 H 0.8712 0.2156 0.6376
C24_5 C 0.9172(7) 0.1927(11) 0.6466(4)
H15_5 H 0.9192 0.1806 0.6311
C25_5 C 0.9426(6) 0.1920(9) 0.6673(4)
C26_5 C 0.9764(7) 0.1727(11) 0.6661(4)
C27_5 C 0.9851(10) 0.1512(13) 0.6426(4)
H17_5 H 0.9577 0.1397 0.6317
H18_5 H 0.9899 0.1250 0.6471
Mn14_5 Mn 0.79552(5) 0.02701(7) 0.51318(3)
N55_5 N 0.9651(4) 0.1848(5) 0.51104(17)
N59_5 N 0.8110(4) 0.0898(5) 0.53745(16)
N102_5 N 0.9765(4) 0.2216(5) 0.45504(14)
C196_5 C 0.9904(5) 0.1584(6) 0.4422(2)
C198_5 C 0.9846(7) 0.1221(9) 0.4230(2)
H217_5 H 0.9511 0.0984 0.4214
H219_5 H 0.9965 0.1378 0.4072
C200_5 C 0.9668(5) 0.1874(6) 0.43751(18)
C202_5 C 0.9379(6) 0.1822(8) 0.4170(2)
H221_5 H 0.9315 0.1591 0.4048
C204_5 C 0.9193(7) 0.2115(9) 0.4155(2)
H223_5 H 0.8995 0.2082 0.4020
C206_5 C 0.9285(6) 0.2458(7) 0.4328(2)
H225_5 H 0.9150 0.2655 0.4313
C208_5 C 0.9583(4) 0.2509(5) 0.45299(19)
C210_5 C 0.9743(4) 0.2884(5) 0.47287(19)
C212_5 C 0.9485(6) 0.3168(7) 0.4754(3)
H227_5 H 0.9544 0.3363 0.4607
H229_5 H 0.9145 0.2950 0.4770
H231_5 H 0.9600 0.3370 0.4899
H262_5 H 0.968327 0.186178 0.772786
Mo2_6 Mo 0.76928(4) 0.13667(3) 0.779111(17)
N8_6 N 0.7271(4) 0.0209(3) 0.78947(15)
N9_6 N 0.6631(6) 0.0812(4) 0.7505(2)
N10_6 N 0.7015(4) 0.1486(3) 0.82230(17)
N11_6 N 0.7626(4) 0.2182(3) 0.74356(19)
N13_6 N 0.8305(7) 0.1252(4) 0.8259(3)
N14_6 N 0.8371(6) 0.1227(4) 0.7379(3)
N29_6 N 0.7792(6) 0.0014(4) 0.7488(3)
N30_6 N 0.5913(4) 0.1301(3) 0.83097(18)
N31_6 N 0.6050(5) 0.0555(3) 0.81113(18)
N32_6 N 0.6580(4) 0.0414(3) 0.84653(15)
N33_6 N 0.6901(4) 0.1118(3) 0.87830(14)
N34_6 N 0.6522(4) 0.1661(3) 0.87070(17)
C8_6 C 0.7403(5) 0.0613(4) 0.78643(18)
C9_6 C 0.7006(5) 0.0993(3) 0.7597(2)
C10_6 C 0.7259(5) 0.1451(3) 0.8077(2)
C11_6 C 0.7651(6) 0.1900(4) 0.7554(2)
C12_6 C 0.8275(4) 0.2070(3) 0.78949(19)
C13_6 C 0.8066(7) 0.1293(4) 0.8084(3)
C14_6 C 0.8112(6) 0.1277(4) 0.7517(3)
H23_6 H 0.6701 0.0099 0.6662
H24_6 H 0.6309 0.0004 0.6459
H40_6 H 0.5604 0.0232 0.7314
C44_6 C 0.6171(6) 0.0469(4) 0.6898(3)
H41_6 H 0.6156 0.0555 0.6727
H42_6 H 0.6501 0.0610 0.6949
H43_6 H 0.6008 0.0584 0.7003
H44_6 H 0.7761 0.0190 0.7125
H46_6 H 0.7139 0.0213 0.7333
H60_6 H 0.8592 0.0191 0.8321
C58_6 C 0.8352(8) 0.0017(6) 0.7774(4)
H61_6 H 0.8484 0.0352 0.7821
H64_6 H 0.8477 0.0193 0.7415
C60_6 C 0.6762(5) 0.1750(3) 0.8912(2)
C61_6 C 0.6820(7) 0.2113(5) 0.9104(2)
H65_6 H 0.6643 0.2267 0.9054
H66_6 H 0.7155 0.2350 0.9120
H67_6 H 0.6701 0.1956 0.9262
C62_6 C 0.6998(5) 0.1460(3) 0.89583(18)
C63_6 C 0.7287(6) 0.1512(4) 0.9164(2)
H68_6 H 0.7351 0.1743 0.9286
C64_6 C 0.7473(7) 0.1219(5) 0.9179(2)
H69_6 H 0.7671 0.1252 0.9314
C65_6 C 0.7381(6) 0.0876(4) 0.9006(2)
H70_6 H 0.7516 0.0679 0.9021
C66_6 C 0.7083(4) 0.0825(3) 0.88035(19)
C67_6 C 0.6923(4) 0.0450(3) 0.86047(19)
C68_6 C 0.7181(6) 0.0166(4) 0.8580(3)
H72_6 H 0.7521 0.0384 0.8564
C69_6 C 0.6355(5) 0.0050(3) 0.82686(19)
H75_6 H 0.6587 0.0112 0.8137
C70_6 C 0.5936(6) 0.0066(4) 0.8166(2)
C71_6 C 0.5665(7) 0.0636(5) 0.8018(3)
H78_6 H 0.5371 0.0441 0.8112
H79_6 H 0.5601 0.0542 0.7843
C72_6 C 0.5817(7) 0.1159(5) 0.8044(3)
H80_6 H 0.6104 0.1352 0.7946
H81_6 H 0.5564 0.1214 0.7982
C73_6 C 0.6144(6) 0.1810(4) 0.8360(3)
H82_6 H 0.5932 0.1931 0.8312
H83_6 H 0.6436 0.1978 0.8262
C74_6 C 0.6262(6) 0.1903(4) 0.8636(2)
H84_6 H 0.6458 0.2246 0.8666
H85_6 H 0.5969 0.1781 0.8733
H260_6 H 0.789604 0.0357228 0.753753
H261_6 H 0.559576 0.113543 0.840344
H264_6 H 0.63097 0.0680517 0.797751
Mo1_6 Mo 0.63865(4) 0.80063(3) 0.720754(14)
Mn1_6 Mn 0.79466(9) 0.78124(7) 0.72155(3)
Mn3_6 Mn 0.71994(7) 0.95101(5) 0.77743(3)
O1_6 O 0.8701(4) 0.7948(3) 0.7304(3)
N1_6 N 0.6046(4) 0.8771(3) 0.70191(14)
N2_6 N 0.7117(4) 0.8824(3) 0.76111(17)
N3_6 N 0.7082(8) 0.8628(7) 0.6735(3)
N4_6 N 0.7235(5) 0.7739(4) 0.71441(17)
N5_6 N 0.6044(5) 0.6973(4) 0.75047(18)
N7_6 N 0.5458(4) 0.7820(3) 0.75678(17)
N15_6 N 0.8176(7) 0.8615(5) 0.7309(3)
N16_6 N 0.7852(7) 0.7822(5) 0.7647(2)
N17_6 N 0.7590(6) 0.7031(4) 0.7347(2)
N18_6 N 0.7914(6) 0.7329(5) 0.6900(2)
N19_6 N 0.8270(7) 0.8245(5) 0.6857(3)
N20_6 N 0.5987(6) 0.9036(4) 0.64223(17)
N21_6 N 0.5327(4) 0.8109(3) 0.66216(18)
N22_6 N 0.4906(4) 0.8270(3) 0.70250(17)
N23_6 N 0.5331(4) 0.9196(3) 0.70969(15)
N24_6 N 0.6028(4) 0.9664(3) 0.67826(17)
N25_6 N 0.7938(6) 0.9713(4) 0.7935(2)
N26_6 N 0.7099(5) 0.9219(3) 0.81631(17)
N27_6 N 0.6397(5) 0.9127(3) 0.7877(2)
N28_6 N 0.6798(5) 0.9532(3) 0.74248(17)
C1_6 C 0.6165(4) 0.8507(3) 0.70899(15)
C2_6 C 0.6864(4) 0.8522(3) 0.74759(17)
C3_6 C 0.6834(7) 0.8404(6) 0.6898(3)
C4_6 C 0.6927(5) 0.7820(4) 0.71632(18)
C5_6 C 0.6174(6) 0.7346(4) 0.7415(2)
C6_6 C 0.5891(4) 0.7531(3) 0.69352(17)
C7_6 C 0.5786(4) 0.7892(3) 0.74446(18)
C15_6 C 0.8239(10) 0.8681(7) 0.7563(4)
H2_6 H 0.8238 0.8974 0.7606
H3_6 H 0.8553 0.8727 0.7605
C16_6 C 0.7868(9) 0.8279(7) 0.7721(4)
H4_6 H 0.7555 0.8249 0.7697
H5_6 H 0.7952 0.8345 0.7897
C17_6 C 0.7432(11) 0.7369(7) 0.7704(3)
H6_6 H 0.7391 0.7341 0.7884
H7_6 H 0.7152 0.7368 0.7633
C18_6 C 0.7446(9) 0.6970(6) 0.7615(3)
H8_6 H 0.7131 0.6686 0.7633
H9_6 H 0.7672 0.6922 0.7713
C19_6 C 0.7531(7) 0.6694(5) 0.7204(3)
C20_6 C 0.7324(9) 0.6191(5) 0.7282(4)
H10_6 H 0.7544 0.6080 0.7242
H11_6 H 0.7025 0.5997 0.7195
H12_6 H 0.7265 0.6165 0.7459
C21_6 C 0.7712(8) 0.6852(6) 0.6949(3)
C22_6 C 0.7693(10) 0.6558(8) 0.6754(5)
H13_6 H 0.7568 0.6231 0.6782
C23_6 C 0.7869(12) 0.6759(10) 0.6507(4)
H14_6 H 0.7844 0.6557 0.6376
C24_6 C 0.8073(11) 0.7246(9) 0.6466(4)
H15_6 H 0.8194 0.7387 0.6311
C25_6 C 0.8080(9) 0.7507(7) 0.6673(4)
C26_6 C 0.8273(11) 0.8038(9) 0.6661(4)
C27_6 C 0.8488(13) 0.8340(9) 0.6426(4)
H16_6 H 0.8246 0.8378 0.6341
H17_6 H 0.8603 0.8181 0.6317
H18_6 H 0.8750 0.8650 0.6471
C28_6 C 0.8440(11) 0.8776(8) 0.6883(5)
H19_6 H 0.8728 0.8964 0.6784
H20_6 H 0.8193 0.8843 0.6824
C29_6 C 0.8540(13) 0.8903(7) 0.7147(5)
H21_6 H 0.8827 0.8892 0.7193
H22_6 H 0.8611 0.9232 0.7168
C30_6 C 0.6399(6) 0.9855(4) 0.6591(2)
C31_6 C 0.6458(7) 0.9453(5) 0.6482(2)
H25_6 H 0.6652 0.9565 0.6331
H26_6 H 0.6625 0.9360 0.6601
C32_6 C 0.5973(8) 0.8608(6) 0.6335(3)
H27_6 H 0.6192 0.8548 0.6433
H28_6 H 0.6076 0.8649 0.6162
C33_6 C 0.5457(8) 0.8176(6) 0.6358(3)
H29_6 H 0.5234 0.8238 0.6265
H30_6 H 0.5442 0.7888 0.6291
C34_6 C 0.4831(6) 0.7776(4) 0.6665(3)
H31_6 H 0.4754 0.7456 0.6613
H32_6 H 0.4633 0.7869 0.6570
C35_6 C 0.4738(6) 0.7782(4) 0.6944(2)
H33_6 H 0.4396 0.7585 0.6977
H34_6 H 0.4904 0.7648 0.7036
C36_6 C 0.4782(7) 0.8384(5) 0.7221(2)
C37_6 C 0.4426(10) 0.8050(7) 0.7416(3)
H35_6 H 0.4133 0.8059 0.7403
H36_6 H 0.4561 0.8153 0.7580
H37_6 H 0.4362 0.7728 0.7388
C38_6 C 0.5006(6) 0.8914(4) 0.72689(17)
C39_6 C 0.4900(9) 0.9124(7) 0.7468(2)
H38_6 H 0.4678 0.8935 0.7589
C40_6 C 0.5141(9) 0.9636(7) 0.7482(3)
H39_6 H 0.5077 0.9785 0.7614
C41_6 C 0.5453(7) 0.9898(5) 0.7308(3)
C42_6 C 0.5559(6) 0.9671(4) 0.7111(2)
C43_6 C 0.5930(6) 0.9931(4) 0.6919(2)
C45_6 C 0.7555(10) 0.9931(6) 0.7238(3)
H45_6 H 0.7506 0.9631 0.7168
C46_6 C 0.7091(10) 0.9912(7) 0.7264(3)
H47_6 H 0.6938 0.9862 0.7102
C47_6 C 0.6369(8) 0.9534(6) 0.7503(3)
H48_6 H 0.6170 0.9494 0.7358
H49_6 H 0.6457 0.9841 0.7580
C48_6 C 0.6082(7) 0.9123(5) 0.7691(3)
H50_6 H 0.5832 0.9165 0.7768
H51_6 H 0.5930 0.8816 0.7604
C49_6 C 0.6270(7) 0.8902(4) 0.8090(3)
C50_6 C 0.5758(11) 0.8588(6) 0.8180(4)
H52_6 H 0.5545 0.8649 0.8080
H53_6 H 0.5735 0.8660 0.8352
H54_6 H 0.5670 0.8256 0.8165
C51_6 C 0.6668(6) 0.8960(4) 0.8255(2)
C52_6 C 0.6609(7) 0.8757(4) 0.8508(3)
H55_6 H 0.6306 0.8555 0.8576
C53_6 C 0.7019(9) 0.8880(5) 0.8633(3)
H56_6 H 0.6991 0.8771 0.8797
C54_6 C 0.7475(9) 0.9155(5) 0.8537(3)
H57_6 H 0.7748 0.9217 0.8628
C55_6 C 0.7504(6) 0.9333(4) 0.8301(2)
C56_6 C 0.7949(8) 0.9643(5) 0.8162(3)
C57_6 C 0.8414(16) 0.9846(10) 0.8332(6)
H58_6 H 0.8611 0.9718 0.8276
H59_6 H 0.8320 0.9752 0.8503
H62_6 H 0.8601 0.9933 0.7799
C59_6 C 0.8214(9) 0.9956(6) 0.7516(4)
H63_6 H 0.8138 0.9638 0.7460
H71_6 H 0.7122 0.9971 0.8727
H73_6 H 0.7066 0.9964 0.8435
H74_6 H 0.6254 0.9734 0.8337
H76_6 H 0.5830 0.9876 0.8014
H77_6 H 0.5675 0.9925 0.8286
Mn13_6 Mn 0.76850(9) 0.79552(5) 0.48682(3)
Mn14_6 Mn 0.97299(7) 0.76850(5) 0.51318(3)
N55_6 N 0.8152(5) 0.7804(3) 0.51104(17)
N59_6 N 0.9102(5) 0.7213(3) 0.53745(16)
N60_6 N 0.7213(5) 0.8110(4) 0.46255(16)
N96_6 N 0.7967(5) 0.8721(3) 0.50237(18)
N98_6 N 0.7221(6) 0.7838(4) 0.52221(18)
N100_6 N 0.7080(5) 0.7167(3) 0.48681(15)
N102_6 N 0.7784(5) 0.7550(3) 0.45504(14)
N104_6 N 0.8327(5) 0.8472(3) 0.46264(17)
C196_6 C 0.8416(6) 0.8321(4) 0.4422(2)
C198_6 C 0.8779(9) 0.8626(5) 0.4230(2)
H215_6 H 0.8933 0.8957 0.4280
H217_6 H 0.9016 0.8528 0.4214
H219_6 H 0.8622 0.8588 0.4072
C200_6 C 0.8126(6) 0.7795(4) 0.43751(18)
C202_6 C 0.8178(8) 0.7558(5) 0.4170(2)
H221_6 H 0.8409 0.7725 0.4048
C204_6 C 0.7885(9) 0.7079(5) 0.4155(2)
H223_6 H 0.7918 0.6914 0.4020
C206_6 C 0.7542(7) 0.6828(4) 0.4328(2)
H225_6 H 0.7345 0.6496 0.4313
C208_6 C 0.7491(5) 0.7075(3) 0.45299(19)
C210_6 C 0.7116(5) 0.6860(3) 0.47287(19)
C212_6 C 0.6832(7) 0.6318(4) 0.4754(3)
H227_6 H 0.6637 0.6182 0.4607
H229_6 H 0.7050 0.6196 0.4770
H231_6 H 0.6630 0.6231 0.4899
C214_6 C 0.6716(6) 0.7028(4) 0.50648(19)
H233_6 H 0.6400 0.6813 0.4997
H235_6 H 0.6778 0.6858 0.5197
C216_6 C 0.6732(8) 0.7463(5) 0.5168(2)
H237_6 H 0.6542 0.7379 0.5320
H239_6 H 0.6591 0.7583 0.5048
C218_6 C 0.7302(9) 0.8304(5) 0.5316(3)
H241_6 H 0.7107 0.8403 0.5222
H243_6 H 0.7208 0.8274 0.5491
C220_6 C 0.7825(9) 0.8675(5) 0.5290(3)
H245_6 H 0.8018 0.8581 0.5388
H247_6 H 0.7880 0.8983 0.5352
C222_6 C 0.8476(7) 0.8999(4) 0.4974(3)
H249_6 H 0.8597 0.9332 0.5022
H251_6 H 0.8644 0.8875 0.5072
C224_6 C 0.8569(7) 0.8974(4) 0.4698(2)
H253_6 H 0.8912 0.9121 0.4668
H255_6 H 0.8447 0.9145 0.4601
H257_6 H 0.58323 0.913984 0.628928
H258_6 H 0.552729 0.798941 0.671066
H259_6 H 0.669206 0.922077 0.732952
H262_6 H 0.813822 0.78215 0.772786
H263_6 H 0.789141 0.865581 0.72643
H273_6 H 0.78021 0.887301 0.492989
H281_6 H 0.734718 0.770415 0.535582
Mn5_3 Mn 0.01343(6) 0.79466(9) 0.27845(3)
O2_3 O 0.0754(3) 0.8701(4) 0.2696(3)
N67_3 N 0.0031(5) 0.7852(7) 0.2353(2)
N69_3 N 0.0560(4) 0.7590(6) 0.2653(2)
N71_3 N 0.0586(4) 0.7914(6) 0.3100(2)
N73_3 N 0.0026(5) 0.8270(7) 0.3143(3)
C109_3 C 0.0064(9) 0.7432(11) 0.2296(3)
H96_3 H 0.0051 0.7391 0.2116
C111_3 C 0.0477(7) 0.7446(9) 0.2385(3)
H100_3 H 0.0446 0.7131 0.2367
H102_3 H 0.0751 0.7672 0.2287
C113_3 C 0.0838(5) 0.7531(7) 0.2796(3)
C115_3 C 0.1134(8) 0.7324(9) 0.2718(4)
H104_3 H 0.1465 0.7544 0.2758
H106_3 H 0.1029 0.7025 0.2805
H108_3 H 0.1101 0.7265 0.2541
C117_3 C 0.0861(5) 0.7712(8) 0.3051(3)
C119_3 C 0.1136(6) 0.7693(10) 0.3246(5)
H110_3 H 0.1338 0.7568 0.3218
C121_3 C 0.1111(7) 0.7869(12) 0.3493(4)
H112_3 H 0.1288 0.7844 0.3624
C123_3 C 0.0828(7) 0.8073(11) 0.3534(4)
H114_3 H 0.0808 0.8194 0.3689
C125_3 C 0.0574(6) 0.8080(9) 0.3327(4)
C127_3 C 0.0236(7) 0.8273(11) 0.3339(4)
C129_3 C 0.0149(10) 0.8488(13) 0.3574(4)
H118_3 H 0.0423 0.8603 0.3683
H120_3 H 0.0101 0.8750 0.3529
H278_3 H 0.0316726 0.813822 0.227214
Mo1_7 Mo 0.53271(3) 0.50469(3) 0.387420(14)
Mo2_7 Mo 0.19667(3) 0.29928(3) 0.445777(17)
Mn1_7 Mn 0.55210(7) 0.68009(6) 0.38821(3)
Mn2_5 Mn 0.44785(5) 0.33339(5) 0.34488(2)
Mn3_7 Mn 0.38233(5) 0.43560(5) 0.44409(3)
O1_7 O 0.5386(3) 0.7420(3) 0.3970(3)
N1_7 N 0.4563(3) 0.3942(3) 0.36857(14)
N2_7 N 0.4510(3) 0.4960(3) 0.42777(17)
N3_7 N 0.4706(7) 0.5121(4) 0.3401(3)
N4_7 N 0.5595(4) 0.6163(3) 0.38107(17)
N5_7 N 0.6361(4) 0.5738(3) 0.41713(18)
N6_3 N 0.6063(3) 0.4996(3) 0.34596(15)
N7_7 N 0.5514(3) 0.4305(3) 0.42344(17)
N8_7 N 0.3125(3) 0.3729(3) 0.45613(15)
N9_7 N 0.2522(4) 0.2486(4) 0.4171(2)
N10_7 N 0.1848(3) 0.2196(3) 0.48896(17)
N11_7 N 0.1152(3) 0.2111(3) 0.41022(19)
N13_7 N 0.2082(4) 0.3720(6) 0.4925(3)
N14_7 N 0.2107(4) 0.3811(4) 0.4045(3)
N15_7 N 0.4719(5) 0.6228(5) 0.3975(3)
N16_7 N 0.5512(5) 0.6697(5) 0.4313(2)
N17_7 N 0.6303(4) 0.7226(4) 0.4013(2)
N18_7 N 0.6005(5) 0.7252(4) 0.3566(2)
N19_7 N 0.5089(5) 0.6692(5) 0.3523(3)
N20_7 N 0.4298(4) 0.3618(4) 0.30889(17)
N21_7 N 0.5225(3) 0.3885(3) 0.32882(18)
N22_7 N 0.5064(3) 0.3303(3) 0.36916(17)
N23_7 N 0.4138(3) 0.2802(3) 0.37635(15)
N24_7 N 0.3670(3) 0.3031(3) 0.34492(17)
N25_7 N 0.3621(4) 0.4892(4) 0.4601(2)
N26_7 N 0.4115(3) 0.4547(4) 0.48297(17)
N27_7 N 0.4207(3) 0.3937(4) 0.4543(2)
N28_7 N 0.3802(3) 0.3933(4) 0.40914(17)
N29_7 N 0.3320(4) 0.4445(4) 0.4154(3)
N30_7 N 0.2033(3) 0.1279(3) 0.49763(18)
N31_7 N 0.2779(3) 0.2162(4) 0.47779(18)
N32_7 N 0.2920(3) 0.2833(3) 0.51319(15)
N33_7 N 0.2216(3) 0.2450(3) 0.54496(14)
N34_7 N 0.1673(3) 0.1528(3) 0.53736(17)
C1_7 C 0.4827(3) 0.4325(3) 0.37565(15)
C2_7 C 0.4812(3) 0.5009(3) 0.41425(17)
C3_7 C 0.4930(6) 0.5097(4) 0.3564(3)
C4_7 C 0.5514(4) 0.5774(3) 0.38298(18)
C5_7 C 0.5988(4) 0.5495(4) 0.4081(2)
C6_7 C 0.5803(3) 0.5027(3) 0.36018(17)
C7_7 C 0.5442(3) 0.4561(3) 0.41112(18)
C8_7 C 0.2721(4) 0.3457(3) 0.45309(18)
C9_7 C 0.2341(3) 0.2680(4) 0.4263(2)
C10_7 C 0.1883(3) 0.2475(4) 0.4743(2)
C11_7 C 0.1434(4) 0.2418(4) 0.4220(2)
C12_7 C 0.1264(3) 0.2872(3) 0.45615(19)
C13_7 C 0.2041(4) 0.3440(6) 0.4750(3)
C14_7 C 0.2057(4) 0.3502(4) 0.4183(3)
C15_7 C 0.4653(7) 0.6225(7) 0.4229(4)
H2_7 H 0.4360 0.5931 0.4272
H3_7 H 0.4607 0.6493 0.4271
C16_7 C 0.5055(7) 0.6256(6) 0.4387(4)
H4_7 H 0.5085 0.5973 0.4363
H5_7 H 0.4989 0.6274 0.4563
C17_7 C 0.5965(7) 0.6730(9) 0.4370(3)
H6_7 H 0.5993 0.6717 0.4550
H7_7 H 0.5966 0.6451 0.4299
C18_7 C 0.6364(6) 0.7143(7) 0.4281(3)
H8_7 H 0.6648 0.7112 0.4299
H9_7 H 0.6412 0.7417 0.4379
C19_7 C 0.6640(5) 0.7504(5) 0.3870(3)
C20_7 C 0.7143(5) 0.7800(8) 0.3948(4)
H10_7 H 0.7254 0.8131 0.3908
H11_7 H 0.7337 0.7695 0.3861
H12_7 H 0.7169 0.7767 0.4125
C21_7 C 0.6482(6) 0.7527(5) 0.3615(3)
C22_7 C 0.6776(8) 0.7802(6) 0.3420(5)
H13_7 H 0.7103 0.8004 0.3448
C23_7 C 0.6575(10) 0.7777(7) 0.3173(4)
H14_7 H 0.6777 0.7954 0.3042
C24_7 C 0.6088(9) 0.7494(7) 0.3132(4)
H15_7 H 0.5947 0.7474 0.2977
C25_7 C 0.5827(7) 0.7240(6) 0.3339(4)
C26_7 C 0.5296(9) 0.6902(7) 0.3327(4)
C27_7 C 0.4994(9) 0.6815(10) 0.3092(4)
H16_7 H 0.4956 0.6535 0.3007
H17_7 H 0.5153 0.7089 0.2983
H18_7 H 0.4684 0.6767 0.3137
C28_7 C 0.4558(8) 0.6331(8) 0.3549(5)
H19_7 H 0.4370 0.6431 0.3450
H20_7 H 0.4491 0.6017 0.3490
C29_7 C 0.4431(7) 0.6304(11) 0.3813(5)
H21_7 H 0.4442 0.6602 0.3859
H22_7 H 0.4102 0.6046 0.3834
C30_7 C 0.3479(4) 0.3211(4) 0.3257(2)
H23_7 H 0.3235 0.3269 0.3328
H24_7 H 0.3330 0.2972 0.3125
C31_7 C 0.3881(5) 0.3672(5) 0.3148(2)
H25_7 H 0.3769 0.3754 0.2997
H26_7 H 0.3974 0.3932 0.3267
C32_7 C 0.4726(6) 0.4032(5) 0.3001(3)
H27_7 H 0.4786 0.4311 0.3099
H28_7 H 0.4685 0.4094 0.2828
C33_7 C 0.5158(6) 0.3948(5) 0.3024(3)
H29_7 H 0.5096 0.3663 0.2931
H30_7 H 0.5446 0.4221 0.2957
C34_7 C 0.5558(4) 0.3722(5) 0.3331(3)
H31_7 H 0.5878 0.3965 0.3279
H32_7 H 0.5465 0.3431 0.3236
C35_7 C 0.5552(4) 0.3623(5) 0.3610(2)
H33_7 H 0.5749 0.3478 0.3643
H34_7 H 0.5686 0.3923 0.3702
C36_7 C 0.4950(5) 0.3065(5) 0.3887(2)
C37_7 C 0.5284(7) 0.3043(7) 0.4082(3)
H35_7 H 0.5275 0.2741 0.4069
H36_7 H 0.5181 0.3075 0.4246
H37_7 H 0.5606 0.3301 0.4054
C38_7 C 0.4420(4) 0.2759(4) 0.39355(17)
C39_7 C 0.4210(7) 0.2443(5) 0.4134(2)
H38_7 H 0.4399 0.2410 0.4255
C40_7 C 0.3698(7) 0.2172(5) 0.4148(3)
H39_7 H 0.3549 0.1959 0.4280
C41_7 C 0.3436(5) 0.2222(5) 0.3974(3)
H40_7 H 0.3102 0.2039 0.3980
C42_7 C 0.3663(4) 0.2555(4) 0.3777(2)
C43_7 C 0.3403(4) 0.2666(4) 0.3585(2)
C44_7 C 0.2865(4) 0.2369(5) 0.3564(3)
H41_7 H 0.2779 0.2268 0.3393
H42_7 H 0.2724 0.2558 0.3615
H43_7 H 0.2750 0.2091 0.3669
C45_7 C 0.3403(6) 0.4291(8) 0.3904(3)
H44_7 H 0.3144 0.4238 0.3791
H45_7 H 0.3703 0.4542 0.3834
C46_7 C 0.3422(7) 0.3846(7) 0.3930(3)
H46_7 H 0.3121 0.3593 0.3999
H47_7 H 0.3472 0.3743 0.3768
C47_7 C 0.3800(6) 0.3502(5) 0.4169(3)
H48_7 H 0.3840 0.3343 0.4024
H49_7 H 0.3493 0.3283 0.4246
C48_7 C 0.4211(5) 0.3626(5) 0.4357(3)
H50_7 H 0.4169 0.3334 0.4434
H51_7 H 0.4518 0.3781 0.4270
C49_7 C 0.4432(4) 0.4035(6) 0.4756(3)
C50_7 C 0.4746(6) 0.3837(9) 0.4846(4)
H52_7 H 0.4685 0.3563 0.4746
H53_7 H 0.4674 0.3742 0.5018
H54_7 H 0.5078 0.4081 0.4831
C51_7 C 0.4374(4) 0.4375(5) 0.4921(2)
C52_7 C 0.4577(4) 0.4519(6) 0.5174(3)
H55_7 H 0.4779 0.4418 0.5242
C53_7 C 0.4454(5) 0.4806(7) 0.5299(3)
H56_7 H 0.4563 0.4887 0.5463
C54_7 C 0.4179(5) 0.4987(7) 0.5203(3)
H57_7 H 0.4117 0.5198 0.5294
C55_7 C 0.4001(4) 0.4838(5) 0.4967(2)
C56_7 C 0.3691(5) 0.4973(6) 0.4828(3)
C57_7 C 0.3488(10) 0.5235(12) 0.4998(6)
H58_7 H 0.3616 0.5560 0.4942
H59_7 H 0.3582 0.5235 0.5169
H60_7 H 0.3143 0.5068 0.4987
C58_7 C 0.3317(6) 0.5002(6) 0.4440(4)
H61_7 H 0.2982 0.4799 0.4487
H62_7 H 0.3401 0.5335 0.4465
C59_7 C 0.3378(6) 0.4925(7) 0.4182(4)
H63_7 H 0.3696 0.5167 0.4126
H64_7 H 0.3141 0.4951 0.4081
C60_7 C 0.1584(3) 0.1679(4) 0.5578(2)
C61_7 C 0.1221(5) 0.1374(5) 0.5770(2)
H65_7 H 0.1067 0.1043 0.5720
H66_7 H 0.0984 0.1472 0.5786
H67_7 H 0.1378 0.1412 0.5928
C62_7 C 0.1874(3) 0.2205(4) 0.56249(18)
C63_7 C 0.1822(4) 0.2442(5) 0.5830(2)
H68_7 H 0.1591 0.2275 0.5952
C64_7 C 0.2115(5) 0.2921(5) 0.5845(2)
H69_7 H 0.2082 0.3086 0.5980
C65_7 C 0.2458(4) 0.3172(4) 0.5672(2)
H70_7 H 0.2655 0.3504 0.5687
C66_7 C 0.2509(3) 0.2925(3) 0.54701(19)
C67_7 C 0.2884(3) 0.3140(3) 0.52713(19)
C68_7 C 0.3168(4) 0.3682(4) 0.5246(3)
H71_7 H 0.3363 0.3818 0.5393
H72_7 H 0.2950 0.3804 0.5230
H73_7 H 0.3370 0.3769 0.5101
C69_7 C 0.3284(3) 0.2972(4) 0.49352(19)
H74_7 H 0.3600 0.3187 0.5003
H75_7 H 0.3222 0.3142 0.4803
C70_7 C 0.3268(4) 0.2537(5) 0.4832(2)
H76_7 H 0.3458 0.2621 0.4680
H77_7 H 0.3409 0.2417 0.4952
C71_7 C 0.2698(5) 0.1696(5) 0.4684(3)
H78_7 H 0.2893 0.1597 0.4778
H79_7 H 0.2792 0.1726 0.4509
C72_7 C 0.2175(5) 0.1325(5) 0.4710(3)
H80_7 H 0.1982 0.1419 0.4612
H81_7 H 0.2120 0.1017 0.4648
C73_7 C 0.1524(4) 0.1001(4) 0.5026(3)
H82_7 H 0.1403 0.0668 0.4978
H83_7 H 0.1356 0.1125 0.4928
C74_7 C 0.1431(4) 0.1026(4) 0.5302(2)
H84_7 H 0.1088 0.0879 0.5332
H85_7 H 0.1553 0.0855 0.5399
Mo3_3 Mo 0.83803(3) 0.63865(4) 0.279246(14)
Mo4_5 Mo 0.36135(4) 0.19937(3) 0.279246(14)
Mn6_5 Mn 0.20534(9) 0.21876(7) 0.27845(3)
Mn7_3 Mn 0.66673(5) 0.55221(7) 0.32178(2)
Mn8_5 Mn 0.44779(7) 0.11451(5) 0.32178(2)
Mn9_3 Mn 0.88555(7) 0.55215(5) 0.34488(2)
Mn10_3 Mn 0.76894(5) 0.71994(7) 0.22257(3)
Mn11_5 Mn 0.28006(7) 0.04899(5) 0.22257(3)
O3_5 O 0.1299(4) 0.2052(3) 0.2696(3)
N35_3 N 0.7276(3) 0.6046(4) 0.29809(14)
N36_5 N 0.3954(4) 0.1229(3) 0.29809(14)
N37_3 N 0.8294(3) 0.7117(4) 0.23889(17)
N38_5 N 0.2883(4) 0.1176(3) 0.23889(17)
N39_3 N 0.8455(4) 0.7082(8) 0.3265(3)
N40_5 N 0.2918(8) 0.1372(7) 0.3265(3)
N41_3 N 0.9497(3) 0.7235(5) 0.28559(17)
N42_5 N 0.2765(5) 0.2261(4) 0.28559(17)
N43_3 N 0.9072(3) 0.6044(5) 0.24953(18)
N44_5 N 0.3956(5) 0.3027(4) 0.24953(18)
N45_5 N 0.4400(4) 0.2729(3) 0.32070(15)
N46_3 N 0.8330(3) 0.5600(4) 0.32070(15)
N47_5 N 0.5004(3) 0.1066(4) 0.34596(15)
N48_3 N 0.7639(3) 0.5458(4) 0.24322(17)
N49_5 N 0.4542(4) 0.2180(3) 0.24322(17)
N50_3 N 0.7063(3) 0.7271(4) 0.21053(15)
N52_3 N 0.5820(4) 0.6631(6) 0.2495(2)
N56_3 N 0.5445(3) 0.7626(4) 0.25644(19)
N61_3 N 0.7054(6) 0.8305(7) 0.1741(3)
N63_3 N 0.7145(4) 0.8371(6) 0.2621(3)
N65_3 N 0.9562(5) 0.8176(7) 0.2691(3)
N66_5 N 0.1824(7) 0.1385(5) 0.2691(3)
N68_5 N 0.2148(7) 0.2178(5) 0.2353(2)
N70_5 N 0.2410(6) 0.2969(4) 0.2653(2)
N72_5 N 0.2086(6) 0.2671(5) 0.3100(2)
N74_5 N 0.1730(7) 0.1755(5) 0.3143(3)
N75_3 N 0.6952(4) 0.5987(6) 0.35777(17)
N76_5 N 0.4013(6) 0.0964(4) 0.35777(17)
N77_3 N 0.7219(3) 0.5327(4) 0.33784(18)
N78_5 N 0.4673(4) 0.1891(3) 0.33784(18)
N79_3 N 0.6637(3) 0.4906(4) 0.29750(17)
N80_5 N 0.5094(4) 0.1730(3) 0.29750(17)
N81_3 N 0.6136(3) 0.5331(4) 0.29031(15)
N82_5 N 0.4669(4) 0.0804(3) 0.29031(15)
N83_3 N 0.6365(3) 0.6028(4) 0.32174(17)
N84_5 N 0.3972(4) 0.0336(3) 0.32174(17)
N85_3 N 0.8226(4) 0.7938(6) 0.2065(2)
N86_5 N 0.2062(6) 0.0287(4) 0.2065(2)
N87_3 N 0.7881(4) 0.7099(5) 0.18369(17)
N88_5 N 0.2901(5) 0.0781(3) 0.18369(17)
N89_3 N 0.7271(4) 0.6397(5) 0.2123(2)
N90_5 N 0.3603(5) 0.0873(3) 0.2123(2)
N91_3 N 0.7267(4) 0.6798(5) 0.25752(17)
N92_5 N 0.3202(5) 0.0468(3) 0.25752(17)
N93_3 N 0.7779(4) 0.7792(6) 0.2512(3)
C75_3 C 0.7659(3) 0.6165(4) 0.29101(15)
C76_5 C 0.3835(4) 0.1493(3) 0.29101(15)
C77_3 C 0.8343(3) 0.6864(4) 0.25241(17)
C78_5 C 0.3136(4) 0.1478(3) 0.25241(17)
C79_3 C 0.8431(4) 0.6834(7) 0.3102(3)
C80_5 C 0.3166(7) 0.1596(6) 0.3102(3)
C81_3 C 0.9108(3) 0.6927(5) 0.28368(18)
C82_5 C 0.3073(5) 0.2180(4) 0.28368(18)
C83_3 C 0.8829(4) 0.6174(6) 0.2585(2)
C84_5 C 0.3826(6) 0.2654(4) 0.2585(2)
C85_5 C 0.4109(4) 0.2469(3) 0.30648(17)
C86_3 C 0.8361(3) 0.5891(4) 0.30648(17)
C87_3 C 0.7895(3) 0.5786(4) 0.25554(18)
C88_5 C 0.4214(4) 0.2108(3) 0.25554(18)
C89_3 C 0.6791(3) 0.7403(5) 0.21357(18)
C91_3 C 0.6014(4) 0.7006(5) 0.2403(2)
C96_3 C 0.5752(4) 0.7651(6) 0.2446(2)
C101_3 C 0.6774(6) 0.8066(7) 0.1916(3)
C103_3 C 0.6836(4) 0.8112(6) 0.2483(3)
C105_3 C 0.9559(7) 0.8239(10) 0.2437(4)
C106_5 C 0.1761(10) 0.1319(7) 0.2437(4)
H88_3 H 0.9265 0.8238 0.2394
H89_5 H 0.1762 0.1026 0.2394
H90_3 H 0.9827 0.8553 0.2395
H91_5 H 0.1447 0.1273 0.2395
C107_3 C 0.9590(6) 0.7868(9) 0.2279(4)
C108_5 C 0.2132(9) 0.1721(7) 0.2279(4)
H92_3 H 0.9307 0.7555 0.2303
H93_5 H 0.2445 0.1751 0.2303
H94_3 H 0.9608 0.7952 0.2103
H95_5 H 0.2048 0.1655 0.2103
C110_5 C 0.2568(11) 0.2631(7) 0.2296(3)
H97_5 H 0.2609 0.2659 0.2116
H98_3 H 0.9785 0.7152 0.2367
H99_5 H 0.2848 0.2632 0.2367
C112_5 C 0.2554(9) 0.3030(6) 0.2385(3)
H101_5 H 0.2869 0.3314 0.2367
H103_5 H 0.2328 0.3078 0.2287
C114_5 C 0.2469(7) 0.3306(5) 0.2796(3)
C116_5 C 0.2676(9) 0.3809(5) 0.2718(4)
H105_5 H 0.2456 0.3920 0.2758
H107_5 H 0.2975 0.4003 0.2805
H109_5 H 0.2735 0.3835 0.2541
C118_5 C 0.2288(8) 0.3148(6) 0.3051(3)
C120_5 C 0.2307(10) 0.3442(8) 0.3246(5)
H111_5 H 0.2432 0.3769 0.3218
C122_5 C 0.2131(12) 0.3241(10) 0.3493(4)
H113_5 H 0.2156 0.3443 0.3624
C124_5 C 0.1927(11) 0.2754(9) 0.3534(4)
H115_5 H 0.1806 0.2613 0.3689
C126_5 C 0.1920(9) 0.2493(7) 0.3327(4)
C128_5 C 0.1727(11) 0.1962(9) 0.3339(4)
C130_5 C 0.1512(13) 0.1660(9) 0.3574(4)
H116_3 H 0.9869 0.8246 0.3659
H117_5 H 0.1754 0.1622 0.3659
H119_5 H 0.1397 0.1819 0.3683
H121_5 H 0.1250 0.1350 0.3529
C131_3 C 0.9665(8) 0.8440(11) 0.3117(5)
C132_5 C 0.1560(11) 0.1224(8) 0.3117(5)
H122_3 H 0.9765 0.8728 0.3216
H123_5 H 0.1272 0.1036 0.3216
H124_3 H 0.9351 0.8193 0.3176
H125_5 H 0.1807 0.1157 0.3176
C133_3 C 0.9638(11) 0.8540(13) 0.2853(5)
C134_5 C 0.1460(13) 0.1097(7) 0.2853(5)
H126_3 H 0.9936 0.8827 0.2807
H127_5 H 0.1173 0.1108 0.2807
H128_3 H 0.9380 0.8611 0.2832
H129_5 H 0.1389 0.0768 0.2832
C135_3 C 0.6545(4) 0.6399(6) 0.3409(2)
C136_5 C 0.3601(6) 0.0145(4) 0.3409(2)
H130_3 H 0.6603 0.6701 0.3338
H132_3 H 0.6306 0.6309 0.3541
C137_3 C 0.7006(5) 0.6458(7) 0.3518(2)
C138_5 C 0.3542(7) 0.0547(5) 0.3518(2)
H134_3 H 0.7088 0.6652 0.3669
H135_5 H 0.3348 0.0435 0.3669
H136_3 H 0.7266 0.6625 0.3399
H137_5 H 0.3375 0.0640 0.3399
C139_3 C 0.7366(5) 0.5973(8) 0.3665(3)
C140_5 C 0.4027(8) 0.1392(6) 0.3665(3)
H138_3 H 0.7645 0.6192 0.3567
H139_5 H 0.3808 0.1452 0.3567
H140_3 H 0.7428 0.6076 0.3838
H141_5 H 0.3924 0.1351 0.3838
C141_3 C 0.7282(5) 0.5457(8) 0.3642(3)
C142_5 C 0.4543(8) 0.1824(6) 0.3642(3)
H142_3 H 0.6997 0.5234 0.3735
H143_5 H 0.4766 0.1762 0.3735
H144_3 H 0.7555 0.5442 0.3709
H145_5 H 0.4558 0.2112 0.3709
C143_3 C 0.7056(5) 0.4831(6) 0.3335(3)
C144_5 C 0.5169(6) 0.2224(4) 0.3335(3)
H146_3 H 0.7299 0.4754 0.3387
H147_5 H 0.5246 0.2544 0.3387
H148_3 H 0.6765 0.4633 0.3430
H149_5 H 0.5367 0.2131 0.3430
C145_3 C 0.6957(5) 0.4738(6) 0.3056(2)
C146_5 C 0.5262(6) 0.2218(4) 0.3056(2)
H150_3 H 0.6812 0.4396 0.3023
H151_5 H 0.5604 0.2415 0.3023
H152_3 H 0.7257 0.4904 0.2964
H153_5 H 0.5096 0.2352 0.2964
C147_3 C 0.6399(5) 0.4782(7) 0.2779(2)
C148_5 C 0.5218(7) 0.1616(5) 0.2779(2)
C149_3 C 0.6377(7) 0.4426(10) 0.2584(3)
C150_5 C 0.5574(10) 0.1950(7) 0.2584(3)
H154_3 H 0.6075 0.4133 0.2597
H155_5 H 0.5867 0.1941 0.2597
H156_3 H 0.6409 0.4561 0.2420
H157_5 H 0.5439 0.1847 0.2420
H158_3 H 0.6635 0.4362 0.2612
H159_5 H 0.5638 0.2272 0.2612
C151_3 C 0.6093(4) 0.5006(6) 0.27311(17)
C152_5 C 0.4994(6) 0.1086(4) 0.27311(17)
C153_3 C 0.5777(5) 0.4900(9) 0.2532(2)
C154_5 C 0.5100(9) 0.0876(7) 0.2532(2)
H160_3 H 0.5744 0.4678 0.2411
H161_5 H 0.5322 0.1065 0.2411
C155_3 C 0.5506(5) 0.5141(9) 0.2518(3)
C156_5 C 0.4859(9) 0.0364(7) 0.2518(3)
H162_3 H 0.5293 0.5077 0.2386
H163_5 H 0.4923 0.0215 0.2386
C157_3 C 0.5556(5) 0.5453(7) 0.2692(3)
C158_5 C 0.4547(7) 0.0102(5) 0.2692(3)
H164_3 H 0.5373 0.5604 0.2686
C159_3 C 0.5889(4) 0.5559(6) 0.2889(2)
C160_5 C 0.4441(6) 0.0329(4) 0.2889(2)
C161_3 C 0.6000(4) 0.5930(6) 0.3081(2)
C162_5 C 0.4070(6) 0.0069(4) 0.3081(2)
C163_3 C 0.5703(5) 0.6171(6) 0.3102(3)
H166_3 H 0.5602 0.6156 0.3273
H168_3 H 0.5892 0.6501 0.3051
H170_3 H 0.5425 0.6008 0.2997
C165_3 C 0.7625(8) 0.7555(10) 0.2762(3)
C166_5 C 0.2445(10) 0.0069(6) 0.2762(3)
H172_3 H 0.7572 0.7761 0.2875
H174_3 H 0.7876 0.7506 0.2832
H175_5 H 0.2494 0.0369 0.2832
C167_3 C 0.7180(7) 0.7091(10) 0.2736(3)
C168_5 C 0.2909(10) 0.0088(7) 0.2736(3)
H176_3 H 0.6927 0.7139 0.2667
H178_3 H 0.7077 0.6938 0.2898
H179_5 H 0.3062 0.0138 0.2898
C169_3 C 0.6836(5) 0.6369(8) 0.2497(3)
C170_5 C 0.3631(8) 0.0466(6) 0.2497(3)
H180_3 H 0.6677 0.6170 0.2642
H181_5 H 0.3830 0.0506 0.2642
H182_3 H 0.6617 0.6457 0.2420
H183_5 H 0.3543 0.0159 0.2420
C171_3 C 0.6960(5) 0.6082(7) 0.2309(3)
C172_5 C 0.3918(7) 0.0877(5) 0.2309(3)
H184_3 H 0.6668 0.5832 0.2232
H185_5 H 0.4168 0.0835 0.2232
H186_3 H 0.7115 0.5930 0.2396
H187_5 H 0.4070 0.1184 0.2396
C173_3 C 0.7369(6) 0.6270(7) 0.1910(3)
C174_5 C 0.3730(7) 0.1098(4) 0.1910(3)
C175_3 C 0.7171(9) 0.5758(11) 0.1820(4)
C176_5 C 0.4242(11) 0.1412(6) 0.1820(4)
H188_3 H 0.6897 0.5545 0.1920
H189_5 H 0.4455 0.1351 0.1920
H190_3 H 0.7076 0.5735 0.1648
H191_5 H 0.4265 0.1340 0.1648
H192_3 H 0.7415 0.5670 0.1835
H193_5 H 0.4330 0.1744 0.1835
C177_3 C 0.7709(5) 0.6668(6) 0.1745(2)
C178_5 C 0.3332(6) 0.1040(4) 0.1745(2)
C179_3 C 0.7853(6) 0.6609(7) 0.1492(3)
C180_5 C 0.3391(7) 0.1243(4) 0.1492(3)
H194_3 H 0.7752 0.6306 0.1424
H195_5 H 0.3694 0.1445 0.1424
C181_3 C 0.8140(7) 0.7019(9) 0.1367(3)
C182_5 C 0.2981(9) 0.1120(5) 0.1367(3)
H196_3 H 0.8221 0.6991 0.1203
H197_5 H 0.3009 0.1229 0.1203
C183_3 C 0.8321(7) 0.7475(9) 0.1463(3)
C184_5 C 0.2525(9) 0.0845(5) 0.1463(3)
H198_3 H 0.8532 0.7748 0.1372
H199_5 H 0.2252 0.0783 0.1372
C185_3 C 0.8172(5) 0.7504(6) 0.1699(2)
C186_5 C 0.2496(6) 0.0667(4) 0.1699(2)
C187_3 C 0.8307(6) 0.7949(8) 0.1838(3)
C188_5 C 0.2051(8) 0.0357(5) 0.1838(3)
C189_3 C 0.8569(12) 0.8414(16) 0.1668(6)
C190_5 C 0.1586(16) 0.0154(10) 0.1668(6)
H200_3 H 0.8894 0.8611 0.1724
H201_5 H 0.1389 0.0282 0.1724
H202_3 H 0.8569 0.8320 0.1497
H203_5 H 0.1680 0.0248 0.1497
H204_3 H 0.8402 0.8592 0.1679
C191_3 C 0.8336(6) 0.8352(8) 0.2226(4)
H206_3 H 0.8133 0.8484 0.2179
H208_3 H 0.8669 0.8601 0.2201
H209_5 H 0.1399 0.0067 0.2201
C193_3 C 0.8259(7) 0.8214(9) 0.2484(4)
C194_5 C 0.1786(9) 0.0044(6) 0.2484(4)
H210_3 H 0.8501 0.8138 0.2540
H211_5 H 0.1862 0.0362 0.2540
H212_3 H 0.8285 0.8477 0.2585
H257_7 H 0.41935 0.335913 0.295594
H258_7 H 0.534392 0.420455 0.337733
H259_7 H 0.411257 0.413796 0.399619
H260_7 H 0.29761 0.420547 0.420419
H261_7 H 0.21979 0.112699 0.507011
H262_7 H 0.551184 0.698339 0.439453
H263_7 H 0.467752 0.590227 0.393096
H264_7 H 0.265282 0.229585 0.464418
H267_3 H 0.669247 0.58323 0.371072
H268_3 H 0.753788 0.552729 0.328934
H269_5 H 0.210859 0.134419 0.27357
H270_3 H 0.747129 0.669206 0.267048
H271_5 H 0.330794 0.0779232 0.267048
H272_3 H 0.753881 0.789604 0.246247
H274_5 H 0.41677 0.0860162 0.371072
H275_3 H 0.92356 0.789141 0.27357
H276_5 H 0.447271 0.201059 0.328934
H279_5 H 0.186178 0.21785 0.227214
N51_5 N 0.2729(4) 0.9791(3) 0.21053(15)
N53_5 N 0.3369(6) 0.9188(4) 0.2495(2)
N57_5 N 0.2374(4) 0.7818(3) 0.25644(19)
N62_5 N 0.1695(7) 0.8748(4) 0.1741(3)
N64_5 N 0.1629(6) 0.8773(4) 0.2621(3)
N94_5 N 0.2208(6) 0.9986(4) 0.2512(3)
C90_5 C 0.2597(5) 0.9387(4) 0.21357(18)
C92_5 C 0.2994(5) 0.9007(3) 0.2403(2)
C97_5 C 0.2349(6) 0.8100(4) 0.2446(2)
C102_5 C 0.1934(7) 0.8707(4) 0.1916(3)
C104_5 C 0.1888(6) 0.8723(4) 0.2483(3)
H131_5 H 0.3299 0.9901 0.3338
H133_5 H 0.3691 0.9996 0.3541
H165_5 H 0.4396 0.9768 0.2686
C164_5 C 0.3829(6) 0.9531(4) 0.3102(3)
H167_5 H 0.3844 0.9445 0.3273
H169_5 H 0.3499 0.9390 0.3051
H171_5 H 0.3992 0.9416 0.2997
H173_5 H 0.2239 0.9810 0.2875
H177_5 H 0.2861 0.9787 0.2667
H205_5 H 0.1408 0.9809 0.1679
C192_5 C 0.1648(8) 0.9983(6) 0.2226(4)
H207_5 H 0.1516 0.9648 0.2179
H213_5 H 0.1523 0.9807 0.2585
H280_5 H 0.210396 0.964277 0.246247
N51_6 N 0.0209(3) 0.2937(5) 0.21053(15)
N53_6 N 0.0812(4) 0.4180(7) 0.2495(2)
N57_6 N 0.2182(3) 0.4555(5) 0.25644(19)
N62_6 N 0.1252(4) 0.2946(8) 0.1741(3)
N64_6 N 0.1227(4) 0.2855(7) 0.2621(3)
N94_6 N 0.0014(4) 0.2221(7) 0.2512(3)
C90_6 C 0.0613(4) 0.3209(6) 0.21357(18)
C92_6 C 0.0993(3) 0.3986(6) 0.2403(2)
C97_6 C 0.1900(4) 0.4248(7) 0.2446(2)
C102_6 C 0.1293(4) 0.3226(8) 0.1916(3)
C104_6 C 0.1277(4) 0.3164(7) 0.2483(3)
H131_6 H 0.0099 0.3397 0.3338
H133_6 H 0.0004 0.3694 0.3541
H165_6 H 0.0232 0.4627 0.2686
C164_6 C 0.0469(4) 0.4297(7) 0.3102(3)
H167_6 H 0.0555 0.4398 0.3273
H169_6 H 0.0610 0.4108 0.3051
H171_6 H 0.0584 0.4575 0.2997
H173_6 H 0.0190 0.2428 0.2875
H177_6 H 0.0213 0.3073 0.2667
H205_6 H 0.0191 0.1598 0.1679
C192_6 C 0.0017(6) 0.1664(10) 0.2226(4)
H207_6 H 0.0352 0.1867 0.2179
H213_6 H 0.0193 0.1715 0.2585
H280_6 H 0.0357228 0.246119 0.246247
Mo1_8 Mo 0.49531(3) 0.02801(4) 0.387420(14)
Mn2_6 Mn 0.66661(5) 0.11445(7) 0.34488(2)
N1_8 N 0.6058(3) 0.0620(4) 0.36857(14)
N5_8 N 0.4262(3) 0.0622(5) 0.41713(18)
N7_8 N 0.5695(3) 0.1208(4) 0.42344(17)
N9_8 N 0.7514(4) 0.0035(6) 0.4171(2)
N20_8 N 0.6382(4) 0.0679(6) 0.30889(17)
N21_8 N 0.6115(3) 0.1339(4) 0.32882(18)
N22_8 N 0.6697(3) 0.1760(4) 0.36916(17)
N23_8 N 0.7198(3) 0.1335(4) 0.37635(15)
N24_8 N 0.6969(3) 0.0638(4) 0.34492(17)
N27_8 N 0.6063(4) 0.0269(5) 0.4543(2)
N30_8 N 0.8721(3) 0.0753(4) 0.49763(18)
N31_8 N 0.7838(4) 0.0616(5) 0.47779(18)
N32_8 N 0.7167(3) 0.0086(4) 0.51319(15)
N34_8 N 0.8472(3) 0.0144(4) 0.53736(17)
C1_8 C 0.5675(3) 0.0501(4) 0.37565(15)
C5_8 C 0.4505(4) 0.0492(6) 0.4081(2)
C6_8 C 0.4973(3) 0.0775(4) 0.36018(17)
C7_8 C 0.5439(3) 0.0880(4) 0.41112(18)
C30_8 C 0.6789(4) 0.0267(6) 0.3257(2)
H24_8 H 0.7028 0.0357 0.3125
C31_8 C 0.6328(5) 0.0208(7) 0.3148(2)
H25_8 H 0.6246 0.0014 0.2997
H26_8 H 0.6068 0.0041 0.3267
C32_8 C 0.5968(5) 0.0693(8) 0.3001(3)
H27_8 H 0.5689 0.0474 0.3099
H28_8 H 0.5906 0.0590 0.2828
C33_8 C 0.6052(5) 0.1209(8) 0.3024(3)
H29_8 H 0.6337 0.1432 0.2931
H30_8 H 0.5779 0.1224 0.2957
C34_8 C 0.6278(5) 0.1835(6) 0.3331(3)
H31_8 H 0.6035 0.1912 0.3279
H32_8 H 0.6569 0.2033 0.3236
C35_8 C 0.6377(5) 0.1928(6) 0.3610(2)
H33_8 H 0.6522 0.2270 0.3643
H34_8 H 0.6077 0.1762 0.3702
C36_8 C 0.6935(5) 0.1884(7) 0.3887(2)
C37_8 C 0.6957(7) 0.2240(10) 0.4082(3)
H35_8 H 0.7259 0.2533 0.4069
H36_8 H 0.6925 0.2105 0.4246
H37_8 H 0.6699 0.2304 0.4054
C38_8 C 0.7241(4) 0.1660(6) 0.39355(17)
C39_8 C 0.7557(5) 0.1766(9) 0.4134(2)
H38_8 H 0.7590 0.1988 0.4255
C40_8 C 0.7828(5) 0.1525(9) 0.4148(3)
H39_8 H 0.8041 0.1589 0.4280
C41_8 C 0.7778(5) 0.1213(7) 0.3974(3)
H40_8 H 0.7961 0.1062 0.3980
C42_8 C 0.7445(4) 0.1107(6) 0.3777(2)
C43_8 C 0.7334(4) 0.0736(6) 0.3585(2)
C44_8 C 0.7631(5) 0.0495(6) 0.3564(3)
H41_8 H 0.7732 0.0510 0.3393
H42_8 H 0.7442 0.0165 0.3615
H43_8 H 0.7909 0.0658 0.3669
C47_8 C 0.6498(5) 0.0297(8) 0.4169(3)
H48_8 H 0.6657 0.0496 0.4024
H49_8 H 0.6717 0.0209 0.4246
C48_8 C 0.6374(5) 0.0584(7) 0.4357(3)
H50_8 H 0.6666 0.0834 0.4434
H51_8 H 0.6219 0.0736 0.4270
C49_8 C 0.5965(6) 0.0396(7) 0.4756(3)
C50_8 C 0.6163(9) 0.0908(11) 0.4846(4)
H52_8 H 0.6437 0.1121 0.4746
H53_8 H 0.6258 0.0931 0.5018
H54_8 H 0.5919 0.0996 0.4831
C52_8 C 0.5481(6) 0.0057(7) 0.5174(3)
H55_8 H 0.5582 0.0360 0.5242
H65_8 H 0.8957 0.0023 0.5720
C69_8 C 0.7028(4) 0.0311(5) 0.49352(19)
H74_8 H 0.6813 0.0412 0.5003
H75_8 H 0.6858 0.0079 0.4803
C70_8 C 0.7463(5) 0.0730(6) 0.4832(2)
H76_8 H 0.7379 0.0836 0.4680
H77_8 H 0.7583 0.0991 0.4952
C71_8 C 0.8304(5) 0.1001(7) 0.4684(3)
H78_8 H 0.8403 0.1295 0.4778
H79_8 H 0.8274 0.1065 0.4509
C72_8 C 0.8675(5) 0.0849(7) 0.4710(3)
H80_8 H 0.8581 0.0562 0.4612
H81_8 H 0.8983 0.1102 0.4648
C73_8 C 0.8999(4) 0.0522(6) 0.5026(3)
H82_8 H 0.9332 0.0734 0.4978
H83_8 H 0.8875 0.0230 0.4928
C74_8 C 0.8974(4) 0.0404(6) 0.5302(2)
H84_8 H 0.9121 0.0208 0.5332
H85_8 H 0.9145 0.0697 0.5399
Mo4_6 Mo 0.80063(3) 0.16197(5) 0.279246(14)
Mn8_6 Mn 0.88549(5) 0.33327(9) 0.32178(2)
Mn11_6 Mn 0.95101(5) 0.23106(9) 0.22257(3)
N36_6 N 0.8771(3) 0.2724(5) 0.29809(14)
N38_6 N 0.8824(3) 0.1706(5) 0.23889(17)
N40_6 N 0.8628(7) 0.1545(11) 0.3265(3)
N42_6 N 0.7739(4) 0.0503(6) 0.28559(17)
N44_6 N 0.6973(4) 0.0928(6) 0.24953(18)
N45_6 N 0.7271(3) 0.1670(5) 0.32070(15)
N47_6 N 0.8934(4) 0.3937(5) 0.34596(15)
N49_6 N 0.7820(3) 0.2361(5) 0.24322(17)
N66_6 N 0.8615(5) 0.0438(9) 0.2691(3)
N76_6 N 0.9036(4) 0.3048(7) 0.35777(17)
N78_6 N 0.8109(3) 0.2781(5) 0.33784(18)
N80_6 N 0.8270(3) 0.3363(5) 0.29750(17)
N82_6 N 0.9196(3) 0.3864(5) 0.29031(15)
N84_6 N 0.9664(3) 0.3635(5) 0.32174(17)
N86_6 N 0.9713(4) 0.1774(7) 0.2065(2)
N88_6 N 0.9219(3) 0.2119(6) 0.18369(17)
N90_6 N 0.9127(3) 0.2729(6) 0.2123(2)
N92_6 N 0.9532(3) 0.2733(6) 0.25752(17)
C76_6 C 0.8507(3) 0.2341(5) 0.29101(15)
C78_6 C 0.8522(3) 0.1657(5) 0.25241(17)
C80_6 C 0.8404(6) 0.1569(9) 0.3102(3)
C82_6 C 0.7820(4) 0.0892(6) 0.28368(18)
C84_6 C 0.7346(4) 0.1171(7) 0.2585(2)
C85_6 C 0.7531(3) 0.1639(5) 0.30648(17)
C88_6 C 0.7892(3) 0.2105(5) 0.25554(18)
C106_6 C 0.8681(7) 0.0441(12) 0.2437(4)
H89_6 H 0.8974 0.0735 0.2394
H91_6 H 0.8727 0.0173 0.2395
C108_6 C 0.8279(7) 0.0410(11) 0.2279(4)
H93_6 H 0.8249 0.0693 0.2303
H95_6 H 0.8345 0.0392 0.2103
H99_6 H 0.7368 0.0215 0.2367
H117_6 H 0.8378 0.0131 0.3659
C132_6 C 0.8776(8) 0.0335(14) 0.3117(5)
H123_6 H 0.8964 0.0235 0.3216
H125_6 H 0.8843 0.0649 0.3176
C134_6 C 0.8903(7) 0.0362(15) 0.2853(5)
H127_6 H 0.8892 0.0064 0.2807
H129_6 H 0.9232 0.0620 0.2832
C136_6 C 0.9855(4) 0.3455(7) 0.3409(2)
C138_6 C 0.9453(5) 0.2994(9) 0.3518(2)
H135_6 H 0.9565 0.2912 0.3669
H137_6 H 0.9360 0.2734 0.3399
C140_6 C 0.8608(6) 0.2634(10) 0.3665(3)
H139_6 H 0.8548 0.2355 0.3567
H141_6 H 0.8649 0.2572 0.3838
C142_6 C 0.8176(6) 0.2718(10) 0.3642(3)
H143_6 H 0.8238 0.3003 0.3735
H145_6 H 0.7888 0.2445 0.3709
C144_6 C 0.7776(4) 0.2944(7) 0.3335(3)
H147_6 H 0.7456 0.2701 0.3387
H149_6 H 0.7869 0.3235 0.3430
C146_6 C 0.7782(4) 0.3043(7) 0.3056(2)
H151_6 H 0.7585 0.3188 0.3023
H153_6 H 0.7648 0.2743 0.2964
C148_6 C 0.8384(5) 0.3601(9) 0.2779(2)
C150_6 C 0.8050(7) 0.3623(12) 0.2584(3)
H155_6 H 0.8059 0.3925 0.2597
H157_6 H 0.8153 0.3591 0.2420
H159_6 H 0.7728 0.3365 0.2612
C152_6 C 0.8914(4) 0.3907(7) 0.27311(17)
C154_6 C 0.9124(7) 0.4223(11) 0.2532(2)
H161_6 H 0.8935 0.4256 0.2411
C156_6 C 0.9636(7) 0.4494(11) 0.2518(3)
H163_6 H 0.9785 0.4707 0.2386
C158_6 C 0.9898(5) 0.4444(9) 0.2692(3)
C160_6 C 0.9671(4) 0.4111(7) 0.2889(2)
C162_6 C 0.9931(4) 0.4000(7) 0.3081(2)
C166_6 C 0.9931(6) 0.2375(12) 0.2762(3)
H175_6 H 0.9631 0.2124 0.2832
C168_6 C 0.9912(7) 0.2820(12) 0.2736(3)
H179_6 H 0.9862 0.2923 0.2898
C170_6 C 0.9534(6) 0.3164(10) 0.2497(3)
H181_6 H 0.9494 0.3323 0.2642
H183_6 H 0.9841 0.3383 0.2420
C172_6 C 0.9123(5) 0.3040(9) 0.2309(3)
H185_6 H 0.9165 0.3332 0.2232
H187_6 H 0.8816 0.2885 0.2396
C174_6 C 0.8902(4) 0.2631(8) 0.1910(3)
C176_6 C 0.8588(6) 0.2829(13) 0.1820(4)
H189_6 H 0.8649 0.3103 0.1920
H191_6 H 0.8660 0.2924 0.1648
H193_6 H 0.8256 0.2585 0.1835
C178_6 C 0.8960(4) 0.2291(7) 0.1745(2)
C180_6 C 0.8757(4) 0.2147(8) 0.1492(3)
H195_6 H 0.8555 0.2248 0.1424
C182_6 C 0.8880(5) 0.1860(10) 0.1367(3)
H197_6 H 0.8771 0.1779 0.1203
C184_6 C 0.9155(5) 0.1679(10) 0.1463(3)
H199_6 H 0.9217 0.1468 0.1372
C186_6 C 0.9333(4) 0.1828(7) 0.1699(2)
C188_6 C 0.9643(5) 0.1693(9) 0.1838(3)
C190_6 C 0.9846(10) 0.1431(19) 0.1668(6)
H201_6 H 0.9718 0.1106 0.1724
H203_6 H 0.9752 0.1431 0.1497
H209_6 H 0.9933 0.1331 0.2201
C194_6 C 0.9956(6) 0.1741(11) 0.2484(4)
H211_6 H 0.9638 0.1499 0.2540
H257_8 H 0.664087 0.0834363 0.295594
H258_8 H 0.579545 0.113937 0.337733
H261_8 H 0.887301 0.107091 0.507011
H264_8 H 0.770415 0.0356963 0.464418
H269_6 H 0.865581 0.0764396 0.27357
H271_6 H 0.922077 0.252871 0.267048
H274_6 H 0.913984 0.330753 0.371072
H276_6 H 0.798941 0.246212 0.328934
Mo2_8 Mo 0.70072(3) 0.89738(4) 0.445777(17)
Mn1_8 Mn 0.31991(6) 0.87200(9) 0.38821(3)
Mn3_8 Mn 0.56440(5) 0.94672(7) 0.44409(3)
O1_8 O 0.2580(3) 0.7965(4) 0.3970(3)
N2_8 N 0.5040(3) 0.9549(4) 0.42777(17)
N3_8 N 0.4879(4) 0.9584(8) 0.3401(3)
N4_8 N 0.3837(3) 0.9431(5) 0.38107(17)
N8_8 N 0.6271(3) 0.9395(4) 0.45613(15)
N10_8 N 0.7804(3) 0.9651(4) 0.48896(17)
N11_8 N 0.7889(3) 0.9040(4) 0.41022(19)
N13_8 N 0.6280(6) 0.8361(7) 0.4925(3)
N14_8 N 0.6189(4) 0.8295(6) 0.4045(3)
N15_8 N 0.3772(5) 0.8490(7) 0.3975(3)
N16_8 N 0.3303(5) 0.8814(7) 0.4313(2)
N17_8 N 0.2774(4) 0.9076(6) 0.4013(2)
N18_8 N 0.2748(4) 0.8752(6) 0.3566(2)
N19_8 N 0.3308(5) 0.8396(7) 0.3523(3)
N25_8 N 0.5108(4) 0.8728(6) 0.4601(2)
N26_8 N 0.5453(4) 0.9567(5) 0.48297(17)
N28_8 N 0.6067(4) 0.9868(5) 0.40914(17)
N29_8 N 0.5555(4) 0.8874(6) 0.4154(3)
N33_8 N 0.7550(3) 0.9765(4) 0.54496(14)
C2_8 C 0.4991(3) 0.9802(4) 0.41425(17)
C3_8 C 0.4903(4) 0.9832(7) 0.3564(3)
C4_8 C 0.4226(3) 0.9739(5) 0.38298(18)
C8_8 C 0.6543(3) 0.9263(5) 0.45309(18)
C9_8 C 0.7320(4) 0.9660(5) 0.4263(2)
C10_8 C 0.7525(4) 0.9407(5) 0.4743(2)
C11_8 C 0.7582(4) 0.9015(6) 0.4220(2)
C12_8 C 0.7128(3) 0.8391(4) 0.45615(19)
C13_8 C 0.6560(6) 0.8600(7) 0.4750(3)
C14_8 C 0.6498(4) 0.8554(6) 0.4183(3)
C15_8 C 0.3775(7) 0.8427(10) 0.4229(4)
H2_8 H 0.4069 0.8428 0.4272
H3_8 H 0.3507 0.8113 0.4271
C16_8 C 0.3744(6) 0.8798(9) 0.4387(4)
H4_8 H 0.4027 0.9111 0.4363
H5_8 H 0.3726 0.8714 0.4563
C17_8 C 0.3270(9) 0.9234(11) 0.4370(3)
H6_8 H 0.3283 0.9275 0.4550
H7_8 H 0.3549 0.9514 0.4299
C18_8 C 0.2857(7) 0.9220(9) 0.4281(3)
H8_8 H 0.2888 0.9535 0.4299
H9_8 H 0.2583 0.8994 0.4379
C19_8 C 0.2496(5) 0.9135(7) 0.3870(3)
C20_8 C 0.2200(8) 0.9342(9) 0.3948(4)
H10_8 H 0.1869 0.9122 0.3908
H11_8 H 0.2305 0.9641 0.3861
H12_8 H 0.2233 0.9401 0.4125
C21_8 C 0.2473(5) 0.8954(8) 0.3615(3)
C22_8 C 0.2198(6) 0.8973(10) 0.3420(5)
H13_8 H 0.1996 0.9098 0.3448
C23_8 C 0.2223(7) 0.8797(12) 0.3173(4)
H14_8 H 0.2046 0.8822 0.3042
C24_8 C 0.2506(7) 0.8593(11) 0.3132(4)
H15_8 H 0.2526 0.8472 0.2977
C25_8 C 0.2760(6) 0.8586(9) 0.3339(4)
C26_8 C 0.3098(7) 0.8393(11) 0.3327(4)
C27_8 C 0.3185(10) 0.8178(13) 0.3092(4)
H16_8 H 0.3465 0.8420 0.3007
H17_8 H 0.2911 0.8063 0.2983
H18_8 H 0.3233 0.7916 0.3137
C28_8 C 0.3669(8) 0.8226(11) 0.3549(5)
H19_8 H 0.3569 0.7938 0.3450
H20_8 H 0.3983 0.8473 0.3490
C29_8 C 0.3696(11) 0.8126(13) 0.3813(5)
H21_8 H 0.3398 0.7839 0.3859
H22_8 H 0.3954 0.8055 0.3834
H23_8 H 0.6731 0.9965 0.3328
C45_8 C 0.5709(8) 0.9111(10) 0.3904(3)
H44_8 H 0.5762 0.8905 0.3791
H45_8 H 0.5458 0.9160 0.3834
C46_8 C 0.6154(7) 0.9575(10) 0.3930(3)
H46_8 H 0.6407 0.9527 0.3999
H47_8 H 0.6257 0.9728 0.3768
C51_8 C 0.5625(5) 0.9998(6) 0.4921(2)
C53_8 C 0.5194(7) 0.9647(9) 0.5299(3)
H56_8 H 0.5113 0.9675 0.5463
C54_8 C 0.5013(7) 0.9191(9) 0.5203(3)
H57_8 H 0.4802 0.8918 0.5294
C55_8 C 0.5162(5) 0.9162(6) 0.4967(2)
C56_8 C 0.5027(6) 0.8717(8) 0.4828(3)
C57_8 C 0.4765(12) 0.8252(16) 0.4998(6)
H58_8 H 0.4440 0.8055 0.4942
H59_8 H 0.4765 0.8346 0.5169
H60_8 H 0.4932 0.8074 0.4987
C58_8 C 0.4998(6) 0.8314(8) 0.4440(4)
H61_8 H 0.5201 0.8182 0.4487
H62_8 H 0.4665 0.8065 0.4465
C59_8 C 0.5075(7) 0.8452(9) 0.4182(4)
H63_8 H 0.4833 0.8528 0.4126
H64_8 H 0.5049 0.8189 0.4081
C60_8 C 0.8321(4) 0.9904(5) 0.5578(2)
C61_8 C 0.8626(5) 0.9846(7) 0.5770(2)
H66_8 H 0.8528 0.9511 0.5786
H67_8 H 0.8588 0.9965 0.5928
C62_8 C 0.7795(4) 0.9668(5) 0.56249(18)
C63_8 C 0.7558(5) 0.9379(6) 0.5830(2)
H68_8 H 0.7725 0.9315 0.5952
C64_8 C 0.7079(5) 0.9193(7) 0.5845(2)
H69_8 H 0.6914 0.8995 0.5980
C65_8 C 0.6828(4) 0.9285(6) 0.5672(2)
H70_8 H 0.6496 0.9150 0.5687
C66_8 C 0.7075(3) 0.9583(4) 0.54701(19)
C67_8 C 0.6860(3) 0.9743(4) 0.52713(19)
C68_8 C 0.6318(4) 0.9485(6) 0.5246(3)
H71_8 H 0.6182 0.9544 0.5393
H72_8 H 0.6196 0.9145 0.5230
H73_8 H 0.6231 0.9600 0.5101
Mn6_6 Mn 0.78124(7) 0.98657(11) 0.27845(3)
O3_6 O 0.7948(3) 0.9246(5) 0.2696(3)
N68_6 N 0.7822(5) 0.9969(9) 0.2353(2)
N70_6 N 0.7031(4) 0.9440(7) 0.2653(2)
N72_6 N 0.7329(5) 0.9414(8) 0.3100(2)
N74_6 N 0.8245(5) 0.9974(9) 0.3143(3)
C110_6 C 0.7369(7) 0.9936(13) 0.2296(3)
H97_6 H 0.7341 0.9949 0.2116
C112_6 C 0.6970(6) 0.9523(11) 0.2385(3)
H101_6 H 0.6686 0.9554 0.2367
H103_6 H 0.6922 0.9249 0.2287
C114_6 C 0.6694(5) 0.9162(9) 0.2796(3)
C116_6 C 0.6191(5) 0.8866(10) 0.2718(4)
H105_6 H 0.6080 0.8535 0.2758
H107_6 H 0.5997 0.8971 0.2805
H109_6 H 0.6165 0.8899 0.2541
C118_6 C 0.6852(6) 0.9139(10) 0.3051(3)
C120_6 C 0.6558(8) 0.8864(13) 0.3246(5)
H111_6 H 0.6231 0.8662 0.3218
C122_6 C 0.6759(10) 0.8889(16) 0.3493(4)
H113_6 H 0.6557 0.8712 0.3624
C124_6 C 0.7246(9) 0.9172(14) 0.3534(4)
H115_6 H 0.7387 0.9192 0.3689
C126_6 C 0.7507(7) 0.9426(11) 0.3327(4)
C128_6 C 0.8038(9) 0.9764(14) 0.3339(4)
C130_6 C 0.8340(9) 0.9851(16) 0.3574(4)
H119_6 H 0.8181 0.9577 0.3683
H121_6 H 0.8650 0.9899 0.3529
H259_8 H 0.586204 0.997461 0.399619
H260_8 H 0.579453 0.877063 0.420419
H262_8 H 0.301661 0.852845 0.439453
H263_8 H 0.409773 0.877525 0.393096
H279_6 H 0.78215 0.968327 0.227214
Mo2_9 Mo 0.10262(4) 0.80333(3) 0.445777(17)
Mn1_9 Mn 0.12800(9) 0.44790(7) 0.38821(3)
Mn3_9 Mn 0.05328(7) 0.61767(5) 0.44409(3)
O1_9 O 0.2035(4) 0.4614(3) 0.3970(3)
N2_9 N 0.0451(4) 0.5490(3) 0.42777(17)
N3_9 N 0.0416(8) 0.5294(7) 0.3401(3)
N4_9 N 0.0569(5) 0.4405(4) 0.38107(17)
N8_9 N 0.0605(4) 0.6875(3) 0.45613(15)
N10_9 N 0.0349(4) 0.8152(3) 0.48896(17)
N11_9 N 0.0960(4) 0.8848(3) 0.41022(19)
N13_9 N 0.1639(7) 0.7918(4) 0.4925(3)
N14_9 N 0.1705(6) 0.7893(4) 0.4045(3)
N15_9 N 0.1510(7) 0.5281(5) 0.3975(3)
N16_9 N 0.1186(7) 0.4488(5) 0.4313(2)
N17_9 N 0.0924(6) 0.3697(4) 0.4013(2)
N18_9 N 0.1248(6) 0.3995(5) 0.3566(2)
N19_9 N 0.1604(7) 0.4911(5) 0.3523(3)
N25_9 N 0.1272(6) 0.6379(4) 0.4601(2)
N26_9 N 0.0433(5) 0.5885(3) 0.48297(17)
N28_9 N 0.0132(5) 0.6198(3) 0.40914(17)
N29_9 N 0.1126(6) 0.6680(4) 0.4154(3)
N33_9 N 0.0235(4) 0.7784(3) 0.54496(14)
C2_9 C 0.0198(4) 0.5188(3) 0.41425(17)
C3_9 C 0.0168(7) 0.5070(6) 0.3564(3)
C4_9 C 0.0261(5) 0.4486(4) 0.38298(18)
C8_9 C 0.0737(5) 0.7279(4) 0.45309(18)
C9_9 C 0.0340(5) 0.7659(3) 0.4263(2)
C10_9 C 0.0593(5) 0.8117(3) 0.4743(2)
C11_9 C 0.0985(6) 0.8566(4) 0.4220(2)
C12_9 C 0.1609(4) 0.8736(3) 0.45615(19)
C13_9 C 0.1400(7) 0.7959(4) 0.4750(3)
C14_9 C 0.1446(6) 0.7943(4) 0.4183(3)
C15_9 C 0.1573(10) 0.5347(7) 0.4229(4)
H2_9 H 0.1572 0.5640 0.4272
H3_9 H 0.1887 0.5393 0.4271
C16_9 C 0.1202(9) 0.4945(7) 0.4387(4)
H4_9 H 0.0889 0.4915 0.4363
H5_9 H 0.1286 0.5011 0.4563
C17_9 C 0.0766(11) 0.4035(7) 0.4370(3)
H6_9 H 0.0725 0.4007 0.4550
H7_9 H 0.0486 0.4034 0.4299
C18_9 C 0.0780(9) 0.3636(6) 0.4281(3)
H8_9 H 0.0465 0.3352 0.4299
H9_9 H 0.1006 0.3588 0.4379
C19_9 C 0.0865(7) 0.3360(5) 0.3870(3)
C20_9 C 0.0658(9) 0.2857(5) 0.3948(4)
H10_9 H 0.0878 0.2746 0.3908
H11_9 H 0.0359 0.2663 0.3861
H12_9 H 0.0599 0.2831 0.4125
C21_9 C 0.1046(8) 0.3518(6) 0.3615(3)
C22_9 C 0.1027(10) 0.3224(8) 0.3420(5)
H13_9 H 0.0902 0.2897 0.3448
C23_9 C 0.1203(12) 0.3425(10) 0.3173(4)
H14_9 H 0.1178 0.3223 0.3042
C24_9 C 0.1407(11) 0.3912(9) 0.3132(4)
H15_9 H 0.1528 0.4053 0.2977
C25_9 C 0.1414(9) 0.4173(7) 0.3339(4)
C26_9 C 0.1607(11) 0.4704(9) 0.3327(4)
C27_9 C 0.1822(13) 0.5006(9) 0.3092(4)
H16_9 H 0.1580 0.5044 0.3007
H17_9 H 0.1937 0.4847 0.2983
H18_9 H 0.2084 0.5316 0.3137
C28_9 C 0.1774(11) 0.5442(8) 0.3549(5)
H19_9 H 0.2062 0.5630 0.3450
H20_9 H 0.1527 0.5509 0.3490
C29_9 C 0.1874(13) 0.5569(7) 0.3813(5)
H21_9 H 0.2161 0.5558 0.3859
H22_9 H 0.1945 0.5898 0.3834
H23_9 H 0.0035 0.6765 0.3328
C45_9 C 0.0889(10) 0.6597(6) 0.3904(3)
H44_9 H 0.1095 0.6856 0.3791
H45_9 H 0.0840 0.6297 0.3834
C46_9 C 0.0425(10) 0.6578(7) 0.3930(3)
H46_9 H 0.0473 0.6879 0.3999
H47_9 H 0.0272 0.6528 0.3768
C51_9 C 0.0002(6) 0.5626(4) 0.4921(2)
C53_9 C 0.0353(9) 0.5546(5) 0.5299(3)
H56_9 H 0.0325 0.5437 0.5463
C54_9 C 0.0809(9) 0.5821(5) 0.5203(3)
H57_9 H 0.1082 0.5883 0.5294
C55_9 C 0.0838(6) 0.5999(4) 0.4967(2)
C56_9 C 0.1283(8) 0.6309(5) 0.4828(3)
C57_9 C 0.1748(16) 0.6512(10) 0.4998(6)
H58_9 H 0.1945 0.6384 0.4942
H59_9 H 0.1654 0.6418 0.5169
H60_9 H 0.1926 0.6857 0.4987
C58_9 C 0.1686(8) 0.6683(6) 0.4440(4)
H61_9 H 0.1818 0.7018 0.4487
H62_9 H 0.1935 0.6599 0.4465
C59_9 C 0.1548(9) 0.6622(6) 0.4182(4)
H63_9 H 0.1472 0.6304 0.4126
H64_9 H 0.1811 0.6859 0.4081
C60_9 C 0.0096(5) 0.8416(3) 0.5578(2)
C61_9 C 0.0154(7) 0.8779(5) 0.5770(2)
H66_9 H 0.0489 0.9016 0.5786
H67_9 H 0.0035 0.8622 0.5928
C62_9 C 0.0332(5) 0.8126(3) 0.56249(18)
C63_9 C 0.0621(6) 0.8178(4) 0.5830(2)
H68_9 H 0.0685 0.8409 0.5952
C64_9 C 0.0807(7) 0.7885(5) 0.5845(2)
H69_9 H 0.1005 0.7918 0.5980
C65_9 C 0.0715(6) 0.7542(4) 0.5672(2)
H70_9 H 0.0850 0.7345 0.5687
C66_9 C 0.0417(4) 0.7491(3) 0.54701(19)
C67_9 C 0.0257(4) 0.7116(3) 0.52713(19)
C68_9 C 0.0515(6) 0.6832(4) 0.5246(3)
H71_9 H 0.0456 0.6637 0.5393
H72_9 H 0.0855 0.7050 0.5230
H73_9 H 0.0400 0.6630 0.5101
H259_9 H 0.00253903 0.588743 0.399619
H260_9 H 0.122937 0.70239 0.420419
H262_9 H 0.147155 0.448816 0.439453
H263_9 H 0.122475 0.532248 0.393096
Mo1_9 Mo 0.97199(4) 0.46729(3) 0.387420(14)
N1_9 N 0.9380(4) 0.5437(3) 0.36857(14)
N5_9 N 0.9378(5) 0.3639(4) 0.41713(18)
N7_9 N 0.8792(4) 0.4486(3) 0.42344(17)
N9_9 N 0.9965(6) 0.7478(4) 0.4171(2)
N20_9 N 0.9321(6) 0.5702(4) 0.30889(17)
N21_9 N 0.8661(4) 0.4775(3) 0.32882(18)
N22_9 N 0.8240(4) 0.4936(3) 0.36916(17)
N23_9 N 0.8665(4) 0.5862(3) 0.37635(15)
N24_9 N 0.9362(4) 0.6330(3) 0.34492(17)
N27_9 N 0.9731(5) 0.5793(3) 0.4543(2)
N30_9 N 0.9247(4) 0.7967(3) 0.49763(18)
N31_9 N 0.9384(5) 0.7221(3) 0.47779(18)
N32_9 N 0.9914(4) 0.7080(3) 0.51319(15)
N34_9 N 0.9856(4) 0.8327(3) 0.53736(17)
C1_9 C 0.9499(4) 0.5173(3) 0.37565(15)
C5_9 C 0.9508(6) 0.4012(4) 0.4081(2)
C6_9 C 0.9225(4) 0.4197(3) 0.36018(17)
C7_9 C 0.9120(4) 0.4558(3) 0.41112(18)
C30_9 C 0.9733(6) 0.6521(4) 0.3257(2)
H24_9 H 0.9643 0.6670 0.3125
C31_9 C 0.9792(7) 0.6119(5) 0.3148(2)
H25_9 H 0.9986 0.6231 0.2997
H26_9 H 0.9959 0.6026 0.3267
C32_9 C 0.9307(8) 0.5274(6) 0.3001(3)
H27_9 H 0.9526 0.5214 0.3099
H28_9 H 0.9410 0.5315 0.2828
C33_9 C 0.8791(8) 0.4842(6) 0.3024(3)
H29_9 H 0.8568 0.4904 0.2931
H30_9 H 0.8776 0.4554 0.2957
C34_9 C 0.8165(6) 0.4442(4) 0.3331(3)
H31_9 H 0.8088 0.4122 0.3279
H32_9 H 0.7967 0.4535 0.3236
C35_9 C 0.8072(6) 0.4448(4) 0.3610(2)
H33_9 H 0.7730 0.4251 0.3643
H34_9 H 0.8238 0.4314 0.3702
C36_9 C 0.8116(7) 0.5050(5) 0.3887(2)
C37_9 C 0.7760(10) 0.4716(7) 0.4082(3)
H35_9 H 0.7467 0.4725 0.4069
H36_9 H 0.7895 0.4819 0.4246
H37_9 H 0.7696 0.4394 0.4054
C38_9 C 0.8340(6) 0.5580(4) 0.39355(17)
C39_9 C 0.8234(9) 0.5790(7) 0.4134(2)
H38_9 H 0.8012 0.5601 0.4255
C40_9 C 0.8475(9) 0.6302(7) 0.4148(3)
H39_9 H 0.8411 0.6451 0.4280
C41_9 C 0.8787(7) 0.6564(5) 0.3974(3)
H40_9 H 0.8938 0.6898 0.3980
C42_9 C 0.8893(6) 0.6337(4) 0.3777(2)
C43_9 C 0.9264(6) 0.6597(4) 0.3585(2)
C44_9 C 0.9505(6) 0.7135(4) 0.3564(3)
H41_9 H 0.9490 0.7221 0.3393
H42_9 H 0.9835 0.7276 0.3615
H43_9 H 0.9342 0.7250 0.3669
C47_9 C 0.9703(8) 0.6200(6) 0.4169(3)
H48_9 H 0.9504 0.6160 0.4024
H49_9 H 0.9791 0.6507 0.4246
C48_9 C 0.9416(7) 0.5789(5) 0.4357(3)
H50_9 H 0.9166 0.5831 0.4434
H51_9 H 0.9264 0.5482 0.4270
C49_9 C 0.9604(7) 0.5568(4) 0.4756(3)
C50_9 C 0.9092(11) 0.5254(6) 0.4846(4)
H52_9 H 0.8879 0.5315 0.4746
H53_9 H 0.9069 0.5326 0.5018
H54_9 H 0.9004 0.4922 0.4831
C52_9 C 0.9943(7) 0.5423(4) 0.5174(3)
H55_9 H 0.9640 0.5221 0.5242
H65_9 H 0.9977 0.8933 0.5720
C69_9 C 0.9689(5) 0.6716(3) 0.49352(19)
H74_9 H 0.9588 0.6400 0.5003
H75_9 H 0.9921 0.6778 0.4803
C70_9 C 0.9270(6) 0.6732(4) 0.4832(2)
H76_9 H 0.9164 0.6542 0.4680
H77_9 H 0.9009 0.6591 0.4952
C71_9 C 0.8999(7) 0.7302(5) 0.4684(3)
H78_9 H 0.8705 0.7107 0.4778
H79_9 H 0.8935 0.7208 0.4509
C72_9 C 0.9151(7) 0.7825(5) 0.4710(3)
H80_9 H 0.9438 0.8018 0.4612
H81_9 H 0.8898 0.7880 0.4648
C73_9 C 0.9478(6) 0.8476(4) 0.5026(3)
H82_9 H 0.9266 0.8597 0.4978
H83_9 H 0.9770 0.8644 0.4928
C74_9 C 0.9596(6) 0.8569(4) 0.5302(2)
H84_9 H 0.9792 0.8912 0.5332
H85_9 H 0.9303 0.8447 0.5399
H257_9 H 0.916564 0.58065 0.295594
H258_9 H 0.886063 0.465608 0.337733
H261_9 H 0.892909 0.78021 0.507011
H264_9 H 0.964304 0.734718 0.464418
loop_
_geom_bond_atom_site_label_1
_geom_bond_atom_site_label_2
_geom_bond_site_symmetry_1
_geom_bond_site_symmetry_2
H10 C20 1_555 1_555
H11 C20 1_555 1_555
H12 C20 1_555 1_555
H13 C22 1_555 1_555
H112 C121 1_555 1_555
C123 C121 1_555 1_555
H114 C123 1_555 1_555
C129 C127 1_555 1_555
H116 C129 1_555 1_555
H118 C129 1_555 1_555
H120 C129 1_555 1_555
C137 N75 1_555 1_555
H134 C137 1_555 1_555
H136 C137 1_555 1_555
C139 N75 1_555 1_555
H138 C139 1_555 1_555
H140 C139 1_555 1_555
C141 N77 1_555 1_555
H142 C141 1_555 1_555
H144 C141 1_555 1_555
C143 N77 1_555 1_555
H146 C143 1_555 1_555
H148 C143 1_555 1_555
C139 C141 1_555 1_555
N75 H267 1_555 1_555
Mo3 C75 1_555 1_555
Mn5 O2 1_555 1_555
Mn10 N37 1_555 1_555
N35 Mn7 1_555 1_555
N37 C77 1_555 1_555
N39 C79 1_555 1_555
N41 Mn5 1_555 1_555
N43 C83 1_555 1_555
N46 C86 1_555 1_555
N48 C87 1_555 1_555
N50 Mn10 1_555 1_555
N61 C101 1_555 1_555
N63 C103 1_555 1_555
N65 Mn5 1_555 1_555
N67 Mn5 1_555 1_555
N69 Mn5 1_555 1_555
N71 Mn5 1_555 1_555
N73 Mn5 1_555 1_555
N85 Mn10 1_555 1_555
N87 Mn10 1_555 1_555
N89 Mn10 1_555 1_555
N91 Mn10 1_555 1_555
N93 Mn10 1_555 1_555
C75 N35 1_555 1_555
C77 Mo3 1_555 1_555
C79 Mo3 1_555 1_555
C81 Mo3 1_555 1_555
C83 Mo3 1_555 1_555
C86 Mo3 1_555 1_555
C87 Mo3 1_555 1_555
C89 N50 1_555 1_555
C105 N65 1_555 1_555
H88 C105 1_555 1_555
H90 C105 1_555 1_555
C107 N67 1_555 1_555
H92 C107 1_555 1_555
H94 C107 1_555 1_555
C109 N67 1_555 1_555
H96 C109 1_555 1_555
H98 C109 1_555 1_555
C111 N69 1_555 1_555
H100 C111 1_555 1_555
H102 C111 1_555 1_555
C113 N69 1_555 1_555
C115 C113 1_555 1_555
H104 C115 1_555 1_555
H106 C115 1_555 1_555
H108 C115 1_555 1_555
C117 N71 1_555 1_555
C119 C117 1_555 1_555
H110 C119 1_555 1_555
C125 N71 1_555 1_555
C131 N73 1_555 1_555
H122 C131 1_555 1_555
H124 C131 1_555 1_555
C133 N65 1_555 1_555
H126 C133 1_555 1_555
H128 C133 1_555 1_555
H150 C145 1_555 1_555
H152 C145 1_555 1_555
C165 N93 1_555 1_555
H172 C165 1_555 1_555
H174 C165 1_555 1_555
C167 N91 1_555 1_555
H176 C167 1_555 1_555
H178 C167 1_555 1_555
C169 N91 1_555 1_555
H180 C169 1_555 1_555
C171 N89 1_555 1_555
H184 C171 1_555 1_555
H186 C171 1_555 1_555
C173 N89 1_555 1_555
C175 C173 1_555 1_555
H188 C175 1_555 1_555
H190 C175 1_555 1_555
H192 C175 1_555 1_555
C177 N87 1_555 1_555
C179 C177 1_555 1_555
H194 C179 1_555 1_555
C181 C179 1_555 1_555
H196 C181 1_555 1_555
C183 C181 1_555 1_555
H198 C183 1_555 1_555
C185 N87 1_555 1_555
C187 N85 1_555 1_555
C189 C187 1_555 1_555
H200 C189 1_555 1_555
H202 C189 1_555 1_555
H204 C189 1_555 1_555
C191 N85 1_555 1_555
H206 C191 1_555 1_555
H208 C191 1_555 1_555
C193 N93 1_555 1_555
H210 C193 1_555 1_555
H212 C193 1_555 1_555
H227 C212 1_555 1_555
H229 C212 1_555 1_555
H231 C212 1_555 1_555
N41 C81 1_555 1_555
C105 C107 1_555 1_555
C109 C111 1_555 1_555
C113 C117 1_555 1_555
C131 C133 1_555 1_555
C165 C167 1_555 1_555
C169 C171 1_555 1_555
C173 C177 1_555 1_555
C183 C185 1_555 1_555
C185 C187 1_555 1_555
C191 C193 1_555 1_555
N91 H270 1_555 1_555
N93 H272 1_555 1_555
N65 H275 1_555 1_555
N67 H278 1_555 1_555
Mo1 C1 1_555 1_555
Mn1 O1 1_555 1_555
Mn2 N1 1_555 1_555
Mn3 N2 1_555 1_555
N1 C1 1_555 1_555
N2 C2 1_555 1_555
N3 C3 1_555 1_555
N4 Mn1 1_555 1_555
N5 C5 1_555 1_555
N6 C6 1_555 1_555
N7 C7 1_555 1_555
N8 Mn3 1_555 1_555
N13 C13 1_555 1_555
N14 C14 1_555 1_555
N15 Mn1 1_555 1_555
N16 Mn1 1_555 1_555
N17 Mn1 1_555 1_555
N18 Mn1 1_555 1_555
N19 Mn1 1_555 1_555
N25 Mn3 1_555 1_555
N26 Mn3 1_555 1_555
N27 Mn3 1_555 1_555
N28 Mn3 1_555 1_555
N29 Mn3 1_555 1_555
C2 Mo1 1_555 1_555
C3 Mo1 1_555 1_555
C4 Mo1 1_555 1_555
C5 Mo1 1_555 1_555
C6 Mo1 1_555 1_555
C7 Mo1 1_555 1_555
C8 N8 1_555 1_555
C15 N15 1_555 1_555
H2 C15 1_555 1_555
H3 C15 1_555 1_555
C16 N16 1_555 1_555
H4 C16 1_555 1_555
H5 C16 1_555 1_555
C17 N16 1_555 1_555
H6 C17 1_555 1_555
H7 C17 1_555 1_555
C18 N17 1_555 1_555
H8 C18 1_555 1_555
H9 C18 1_555 1_555
C19 N17 1_555 1_555
C21 N18 1_555 1_555
C25 N18 1_555 1_555
C28 N19 1_555 1_555
H19 C28 1_555 1_555
H20 C28 1_555 1_555
C29 N15 1_555 1_555
H21 C29 1_555 1_555
H22 C29 1_555 1_555
H33 C35 1_555 1_555
H34 C35 1_555 1_555
C45 N29 1_555 1_555
H44 C45 1_555 1_555
H45 C45 1_555 1_555
C46 N28 1_555 1_555
H46 C46 1_555 1_555
H47 C46 1_555 1_555
C47 N28 1_555 1_555
H48 C47 1_555 1_555
C48 N27 1_555 1_555
H50 C48 1_555 1_555
H51 C48 1_555 1_555
C49 N27 1_555 1_555
C50 C49 1_555 1_555
H52 C50 1_555 1_555
H53 C50 1_555 1_555
H54 C50 1_555 1_555
C51 N26 1_555 1_555
C52 C51 1_555 1_555
H55 C52 1_555 1_555
C53 C52 1_555 1_555
H56 C53 1_555 1_555
C54 C53 1_555 1_555
H57 C54 1_555 1_555
C55 N26 1_555 1_555
C56 N25 1_555 1_555
C57 C56 1_555 1_555
H58 C57 1_555 1_555
H59 C57 1_555 1_555
H60 C57 1_555 1_555
C58 N25 1_555 1_555
H61 C58 1_555 1_555
H62 C58 1_555 1_555
C59 N29 1_555 1_555
H63 C59 1_555 1_555
H64 C59 1_555 1_555
H71 C68 1_555 1_555
H72 C68 1_555 1_555
H73 C68 1_555 1_555
H130 C135 1_555 1_555
H132 C135 1_555 1_555
N4 C4 1_555 1_555
C15 C16 1_555 1_555
C17 C18 1_555 1_555
C19 C21 1_555 1_555
C28 C29 1_555 1_555
C45 C46 1_555 1_555
C47 C48 1_555 1_555
C49 C51 1_555 1_555
C54 C55 1_555 1_555
C55 C56 1_555 1_555
C58 C59 1_555 1_555
N28 H259 1_555 1_555
N29 H260 1_555 1_555
N16 H262 1_555 1_555
N15 H263 1_555 1_555
C24 C23 1_555 1_555
H15 C24 1_555 1_555
C27 C26 1_555 1_555
H16 C27 1_555 1_555
H17 C27 1_555 1_555
H18 C27 1_555 1_555
C31 N20 1_555 1_555
H25 C31 1_555 1_555
H26 C31 1_555 1_555
C32 N20 1_555 1_555
H27 C32 1_555 1_555
H28 C32 1_555 1_555
C33 N21 1_555 1_555
H29 C33 1_555 1_555
H30 C33 1_555 1_555
C34 N21 1_555 1_555
H31 C34 1_555 1_555
H32 C34 1_555 1_555
Mn13 N55 1_555 1_555
Mn14 N59 1_555 1_555
N52 C91 1_555 1_555
N55 C94 1_555 1_555
N56 C96 1_555 1_555
N59 C99 1_555 1_555
N60 Mn13 1_555 1_555
N96 Mn13 1_555 1_555
N98 Mn13 1_555 1_555
N100 Mn13 1_555 1_555
N102 Mn13 1_555 1_555
N104 Mn13 1_555 1_555
C91 Mo5 1_555 1_555
C94 Mo5 1_555 1_555
C96 Mo5 1_555 1_555
C99 Mo5 1_555 1_555
H105 C116 1_555 1_555
H107 C116 1_555 1_555
H109 C116 1_555 1_555
H111 C120 1_555 1_555
C147 N79 1_555 1_555
C149 C147 1_555 1_555
H154 C149 1_555 1_555
H156 C149 1_555 1_555
H158 C149 1_555 1_555
C151 N81 1_555 1_555
C153 C151 1_555 1_555
H160 C153 1_555 1_555
C155 C153 1_555 1_555
H162 C155 1_555 1_555
C157 C155 1_555 1_555
H164 C157 1_555 1_555
C159 N81 1_555 1_555
C161 N83 1_555 1_555
C163 C161 1_555 1_555
H166 C163 1_555 1_555
H168 C163 1_555 1_555
H170 C163 1_555 1_555
C196 N104 1_555 1_555
C198 C196 1_555 1_555
H215 C198 1_555 1_555
H217 C198 1_555 1_555
H219 C198 1_555 1_555
C200 N102 1_555 1_555
C202 C200 1_555 1_555
H221 C202 1_555 1_555
C204 C202 1_555 1_555
H223 C204 1_555 1_555
C206 C204 1_555 1_555
C208 N102 1_555 1_555
C210 N100 1_555 1_555
C214 N100 1_555 1_555
H233 C214 1_555 1_555
H235 C214 1_555 1_555
C216 N98 1_555 1_555
H237 C216 1_555 1_555
H239 C216 1_555 1_555
C218 N98 1_555 1_555
H241 C218 1_555 1_555
H243 C218 1_555 1_555
C220 N96 1_555 1_555
H245 C220 1_555 1_555
H247 C220 1_555 1_555
C222 N96 1_555 1_555
H249 C222 1_555 1_555
H251 C222 1_555 1_555
C224 N104 1_555 1_555
H253 C224 1_555 1_555
H255 C224 1_555 1_555
C32 C33 1_555 1_555
C147 C151 1_555 1_555
C157 C159 1_555 1_555
C159 C161 1_555 1_555
C196 C200 1_555 1_555
C206 C208 1_555 1_555
C208 C210 1_555 1_555
C214 C216 1_555 1_555
C218 C220 1_555 1_555
C222 C224 1_555 1_555
N20 H257 1_555 1_555
N96 H273 1_555 1_555
N98 H281 1_555 1_555
Mn4 N10 1_555 1_555
N9 C9 1_555 1_555
N10 C10 1_555 1_555
N11 C11 1_555 1_555
N12 C12 1_555 1_555
N30 Mn4 1_555 1_555
N31 Mn4 1_555 1_555
N32 Mn4 1_555 1_555
N33 Mn4 1_555 1_555
N34 Mn4 1_555 1_555
C9 Mo2 1_555 1_555
C10 Mo2 1_555 1_555
C11 Mo2 1_555 1_555
C12 Mo2 1_555 1_555
C36 N22 1_555 1_555
C37 C36 1_555 1_555
H35 C37 1_555 1_555
H36 C37 1_555 1_555
H37 C37 1_555 1_555
C38 N23 1_555 1_555
C39 C38 1_555 1_555
H38 C39 1_555 1_555
C40 C39 1_555 1_555
H39 C40 1_555 1_555
C41 C40 1_555 1_555
H40 C41 1_555 1_555
C42 N23 1_555 1_555
C43 N24 1_555 1_555
C44 C43 1_555 1_555
H41 C44 1_555 1_555
H42 C44 1_555 1_555
H43 C44 1_555 1_555
C60 N34 1_555 1_555
C61 C60 1_555 1_555
H65 C61 1_555 1_555
H66 C61 1_555 1_555
H67 C61 1_555 1_555
C62 N33 1_555 1_555
C63 C62 1_555 1_555
H68 C63 1_555 1_555
C64 C63 1_555 1_555
H69 C64 1_555 1_555
C65 C64 1_555 1_555
C66 N33 1_555 1_555
C67 N32 1_555 1_555
C69 N32 1_555 1_555
H74 C69 1_555 1_555
H75 C69 1_555 1_555
C70 N31 1_555 1_555
H76 C70 1_555 1_555
H77 C70 1_555 1_555
C71 N31 1_555 1_555
H78 C71 1_555 1_555
H79 C71 1_555 1_555
C72 N30 1_555 1_555
H80 C72 1_555 1_555
H81 C72 1_555 1_555
C73 N30 1_555 1_555
H82 C73 1_555 1_555
H83 C73 1_555 1_555
C74 N34 1_555 1_555
H84 C74 1_555 1_555
H85 C74 1_555 1_555
Mo7 C98 1_555 1_555
Mo8 C93 1_555 1_555
Mn12 N12 1_555 1_555
N54 Mn12 1_555 1_555
N58 Mn4 1_555 1_555
N95 Mn12 1_555 1_555
N97 Mn12 1_555 1_555
N99 Mn12 1_555 1_555
N101 Mn12 1_555 1_555
N103 Mn12 1_555 1_555
C93 N54 1_555 1_555
C98 N58 1_555 1_555
C124 C122 1_555 1_555
H115 C124 1_555 1_555
C130 C128 1_555 1_555
H117 C130 1_555 1_555
H119 C130 1_555 1_555
H121 C130 1_555 1_555
H131 C136 1_555 1_555
H133 C136 1_555 1_555
C138 N76 1_555 1_555
H135 C138 1_555 1_555
H137 C138 1_555 1_555
C140 N76 1_555 1_555
H139 C140 1_555 1_555
H141 C140 1_555 1_555
C142 N78 1_555 1_555
H143 C142 1_555 1_555
H145 C142 1_555 1_555
C144 N78 1_555 1_555
H147 C144 1_555 1_555
H149 C144 1_555 1_555
C195 N103 1_555 1_555
C197 C195 1_555 1_555
H214 C197 1_555 1_555
H216 C197 1_555 1_555
H218 C197 1_555 1_555
C199 N101 1_555 1_555
C201 C199 1_555 1_555
H220 C201 1_555 1_555
C203 C201 1_555 1_555
H222 C203 1_555 1_555
C205 C203 1_555 1_555
H224 C205 1_555 1_555
C207 N101 1_555 1_555
C209 N99 1_555 1_555
C211 C209 1_555 1_555
H228 C211 1_555 1_555
C213 N99 1_555 1_555
H234 C213 1_555 1_555
C215 N97 1_555 1_555
C217 N97 1_555 1_555
H240 C217 1_555 1_555
H242 C217 1_555 1_555
C219 N95 1_555 1_555
H244 C219 1_555 1_555
H246 C219 1_555 1_555
C221 N95 1_555 1_555
H248 C221 1_555 1_555
H250 C221 1_555 1_555
C223 N103 1_555 1_555
H252 C223 1_555 1_555
H254 C223 1_555 1_555
C36 C38 1_555 1_555
C41 C42 1_555 1_555
C42 C43 1_555 1_555
C60 C62 1_555 1_555
C65 C66 1_555 1_555
C66 C67 1_555 1_555
C69 C70 1_555 1_555
C71 C72 1_555 1_555
C73 C74 1_555 1_555
C136 C138 1_555 1_555
C140 C142 1_555 1_555
C195 C199 1_555 1_555
C205 C207 1_555 1_555
C207 C209 1_555 1_555
C213 C215 1_555 1_555
C217 C219 1_555 1_555
C221 C223 1_555 1_555
N30 H261 1_555 1_555
N31 H264 1_555 1_555
N76 H274 1_555 1_555
N95 H277 1_555 1_555
N97 H282 1_555 1_555
H23 C30 1_555 1_555
H24 C30 1_555 1_555
Mo4 C76 1_555 1_555
Mo6 C90 1_555 1_555
Mn6 O3 1_555 1_555
Mn8 N36 1_555 1_555
Mn11 N38 1_555 1_555
N36 C76 1_555 1_555
N38 C78 1_555 1_555
N40 C80 1_555 1_555
N42 Mn6 1_555 1_555
N44 C84 1_555 1_555
N49 C88 1_555 1_555
N51 Mn11 1_555 1_555
N53 C92 1_555 1_555
N57 C97 1_555 1_555
N62 C102 1_555 1_555
N64 C104 1_555 1_555
N66 Mn6 1_555 1_555
N68 Mn6 1_555 1_555
N70 Mn6 1_555 1_555
N72 Mn6 1_555 1_555
N74 Mn6 1_555 1_555
N80 Mn8 1_555 1_555
N82 Mn8 1_555 1_555
N84 Mn8 1_555 1_555
N86 Mn11 1_555 1_555
N88 Mn11 1_555 1_555
N90 Mn11 1_555 1_555
N92 Mn11 1_555 1_555
N94 Mn11 1_555 1_555
C78 Mo4 1_555 1_555
C80 Mo4 1_555 1_555
C82 Mo4 1_555 1_555
C84 Mo4 1_555 1_555
C85 Mo4 1_555 1_555
C88 Mo4 1_555 1_555
C90 N51 1_555 1_555
C92 Mo6 1_555 1_555
C95 Mo6 1_555 1_555
C97 Mo6 1_555 1_555
C100 Mo6 1_555 1_555
C102 Mo6 1_555 1_555
C104 Mo6 1_555 1_555
C106 N66 1_555 1_555
H89 C106 1_555 1_555
H91 C106 1_555 1_555
C108 N68 1_555 1_555
H93 C108 1_555 1_555
H95 C108 1_555 1_555
C110 N68 1_555 1_555
H97 C110 1_555 1_555
H99 C110 1_555 1_555
C112 N70 1_555 1_555
H101 C112 1_555 1_555
H103 C112 1_555 1_555
C114 N70 1_555 1_555
C118 N72 1_555 1_555
C126 N72 1_555 1_555
C132 N74 1_555 1_555
H123 C132 1_555 1_555
H125 C132 1_555 1_555
C134 N66 1_555 1_555
H127 C134 1_555 1_555
H129 C134 1_555 1_555
C146 N80 1_555 1_555
H151 C146 1_555 1_555
H153 C146 1_555 1_555
C148 N80 1_555 1_555
C150 C148 1_555 1_555
H155 C150 1_555 1_555
H157 C150 1_555 1_555
H159 C150 1_555 1_555
C152 N82 1_555 1_555
C154 C152 1_555 1_555
H161 C154 1_555 1_555
C156 C154 1_555 1_555
H163 C156 1_555 1_555
C158 C156 1_555 1_555
H165 C158 1_555 1_555
C160 N82 1_555 1_555
C162 N84 1_555 1_555
C164 C162 1_555 1_555
H167 C164 1_555 1_555
H169 C164 1_555 1_555
H171 C164 1_555 1_555
C166 N94 1_555 1_555
H173 C166 1_555 1_555
H175 C166 1_555 1_555
C168 N92 1_555 1_555
H177 C168 1_555 1_555
H179 C168 1_555 1_555
C170 N92 1_555 1_555
H181 C170 1_555 1_555
H183 C170 1_555 1_555
C172 N90 1_555 1_555
H185 C172 1_555 1_555
H187 C172 1_555 1_555
C174 N90 1_555 1_555
C176 C174 1_555 1_555
H189 C176 1_555 1_555
H191 C176 1_555 1_555
H193 C176 1_555 1_555
C178 N88 1_555 1_555
C180 C178 1_555 1_555
H195 C180 1_555 1_555
C182 C180 1_555 1_555
H197 C182 1_555 1_555
C184 C182 1_555 1_555
H199 C184 1_555 1_555
C186 N88 1_555 1_555
C188 N86 1_555 1_555
C190 C188 1_555 1_555
H201 C190 1_555 1_555
H203 C190 1_555 1_555
H205 C190 1_555 1_555
C192 N86 1_555 1_555
H207 C192 1_555 1_555
H209 C192 1_555 1_555
C194 N94 1_555 1_555
H211 C194 1_555 1_555
H213 C194 1_555 1_555
N42 C82 1_555 1_555
N45 C85 1_555 1_555
C106 C108 1_555 1_555
C110 C112 1_555 1_555
C114 C118 1_555 1_555
C132 C134 1_555 1_555
C148 C152 1_555 1_555
C158 C160 1_555 1_555
C160 C162 1_555 1_555
C166 C168 1_555 1_555
C170 C172 1_555 1_555
C174 C178 1_555 1_555
C184 C186 1_555 1_555
C186 C188 1_555 1_555
C192 C194 1_555 1_555
N66 H269 1_555 1_555
N92 H271 1_555 1_555
N68 H279 1_555 1_555
N94 H280 1_555 1_555
H131_2 C136_2 1_555 1_555
H133_2 C136_2 1_555 1_555
N53_2 C92_2 1_555 1_555
N57_2 C97_2 1_555 1_555
C92_2 Mo6_2 1_555 1_555
C95_2 Mo6_2 1_555 1_555
C97_2 Mo6_2 1_555 1_555
C100_2 Mo6_2 1_555 1_555
C148_2 N80_2 1_555 1_555
C150_2 C148_2 1_555 1_555
H155_2 C150_2 1_555 1_555
H157_2 C150_2 1_555 1_555
H159_2 C150_2 1_555 1_555
C152_2 N82_2 1_555 1_555
C154_2 C152_2 1_555 1_555
H161_2 C154_2 1_555 1_555
C156_2 C154_2 1_555 1_555
H163_2 C156_2 1_555 1_555
C158_2 C156_2 1_555 1_555
H165_2 C158_2 1_555 1_555
C160_2 N82_2 1_555 1_555
C162_2 N84_2 1_555 1_555
C164_2 C162_2 1_555 1_555
H167_2 C164_2 1_555 1_555
H169_2 C164_2 1_555 1_555
H171_2 C164_2 1_555 1_555
C148_2 C152_2 1_555 1_555
C158_2 C160_2 1_555 1_555
C160_2 C162_2 1_555 1_555
Mn4_2 N10_2 1_555 1_555
N9_2 C9_2 1_555 1_555
N10_2 C10_2 1_555 1_555
N11_2 C11_2 1_555 1_555
N12_2 C12_2 1_555 1_555
N30_2 Mn4_2 1_555 1_555
N31_2 Mn4_2 1_555 1_555
N32_2 Mn4_2 1_555 1_555
N33_2 Mn4_2 1_555 1_555
N34_2 Mn4_2 1_555 1_555
C9_2 Mo2_2 1_555 1_555
C10_2 Mo2_2 1_555 1_555
C11_2 Mo2_2 1_555 1_555
C12_2 Mo2_2 1_555 1_555
C36_2 N22_2 1_555 1_555
C37_2 C36_2 1_555 1_555
H35_2 C37_2 1_555 1_555
H36_2 C37_2 1_555 1_555
H37_2 C37_2 1_555 1_555
C38_2 N23_2 1_555 1_555
C39_2 C38_2 1_555 1_555
H38_2 C39_2 1_555 1_555
C40_2 C39_2 1_555 1_555
H39_2 C40_2 1_555 1_555
C41_2 C40_2 1_555 1_555
H40_2 C41_2 1_555 1_555
C42_2 N23_2 1_555 1_555
C43_2 N24_2 1_555 1_555
C44_2 C43_2 1_555 1_555
H41_2 C44_2 1_555 1_555
H42_2 C44_2 1_555 1_555
H43_2 C44_2 1_555 1_555
C60_2 N34_2 1_555 1_555
C61_2 C60_2 1_555 1_555
H65_2 C61_2 1_555 1_555
H66_2 C61_2 1_555 1_555
H67_2 C61_2 1_555 1_555
C62_2 N33_2 1_555 1_555
C63_2 C62_2 1_555 1_555
H68_2 C63_2 1_555 1_555
C64_2 C63_2 1_555 1_555
H69_2 C64_2 1_555 1_555
C65_2 C64_2 1_555 1_555
C66_2 N33_2 1_555 1_555
C67_2 N32_2 1_555 1_555
C69_2 N32_2 1_555 1_555
H74_2 C69_2 1_555 1_555
H75_2 C69_2 1_555 1_555
C70_2 N31_2 1_555 1_555
H76_2 C70_2 1_555 1_555
H77_2 C70_2 1_555 1_555
C71_2 N31_2 1_555 1_555
H78_2 C71_2 1_555 1_555
H79_2 C71_2 1_555 1_555
C72_2 N30_2 1_555 1_555
H80_2 C72_2 1_555 1_555
H81_2 C72_2 1_555 1_555
C73_2 N30_2 1_555 1_555
H82_2 C73_2 1_555 1_555
H83_2 C73_2 1_555 1_555
C74_2 N34_2 1_555 1_555
H84_2 C74_2 1_555 1_555
H85_2 C74_2 1_555 1_555
Mo8 C98_2 1_555 1_555
Mo8_2 C93_2 1_555 1_555
Mn12_2 N12_2 1_555 1_555
N54_2 Mn12_2 1_555 1_555
N58_2 Mn4_2 1_555 1_555
N95_2 Mn12_2 1_555 1_555
N97_2 Mn12_2 1_555 1_555
N99_2 Mn12_2 1_555 1_555
N101_2 Mn12_2 1_555 1_555
N103_2 Mn12_2 1_555 1_555
C93_2 N54_2 1_555 1_555
C98_2 N58_2 1_555 1_555
C124_2 C122_2 1_555 1_555
H115_2 C124_2 1_555 1_555
C130_2 C128_2 1_555 1_555
H117_2 C130_2 1_555 1_555
H119_2 C130_2 1_555 1_555
H121_2 C130_2 1_555 1_555
C138_2 N76_2 1_555 1_555
H135_2 C138_2 1_555 1_555
H137_2 C138_2 1_555 1_555
C140_2 N76_2 1_555 1_555
H139_2 C140_2 1_555 1_555
H141_2 C140_2 1_555 1_555
C142_2 N78_2 1_555 1_555
H143_2 C142_2 1_555 1_555
H145_2 C142_2 1_555 1_555
C144_2 N78_2 1_555 1_555
H147_2 C144_2 1_555 1_555
H149_2 C144_2 1_555 1_555
C195_2 N103_2 1_555 1_555
C197_2 C195_2 1_555 1_555
H214_2 C197_2 1_555 1_555
H216_2 C197_2 1_555 1_555
H218_2 C197_2 1_555 1_555
C199_2 N101_2 1_555 1_555
C201_2 C199_2 1_555 1_555
H220_2 C201_2 1_555 1_555
C203_2 C201_2 1_555 1_555
H222_2 C203_2 1_555 1_555
C205_2 C203_2 1_555 1_555
H224_2 C205_2 1_555 1_555
C207_2 N101_2 1_555 1_555
C209_2 N99_2 1_555 1_555
C211_2 C209_2 1_555 1_555
H228_2 C211_2 1_555 1_555
C213_2 N99_2 1_555 1_555
H234_2 C213_2 1_555 1_555
C215_2 N97_2 1_555 1_555
C217_2 N97_2 1_555 1_555
H240_2 C217_2 1_555 1_555
H242_2 C217_2 1_555 1_555
C219_2 N95_2 1_555 1_555
H244_2 C219_2 1_555 1_555
H246_2 C219_2 1_555 1_555
C221_2 N95_2 1_555 1_555
H248_2 C221_2 1_555 1_555
H250_2 C221_2 1_555 1_555
C223_2 N103_2 1_555 1_555
H252_2 C223_2 1_555 1_555
H254_2 C223_2 1_555 1_555
C36_2 C38_2 1_555 1_555
C41_2 C42_2 1_555 1_555
C42_2 C43_2 1_555 1_555
C60_2 C62_2 1_555 1_555
C65_2 C66_2 1_555 1_555
C66_2 C67_2 1_555 1_555
C69_2 C70_2 1_555 1_555
C71_2 C72_2 1_555 1_555
C73_2 C74_2 1_555 1_555
C140_2 C142_2 1_555 1_555
C195_2 C199_2 1_555 1_555
C205_2 C207_2 1_555 1_555
C207_2 C209_2 1_555 1_555
C213_2 C215_2 1_555 1_555
C217_2 C219_2 1_555 1_555
C221_2 C223_2 1_555 1_555
N30_2 H261_2 1_555 1_555
N31_2 H264_2 1_555 1_555
N76_2 H274_2 1_555 1_555
N95_2 H277_2 1_555 1_555
N97_2 H282_2 1_555 1_555
H23_2 C30_2 1_555 1_555
H24_2 C30_2 1_555 1_555
Mo4_2 C76_2 1_555 1_555
Mn6_2 O3_2 1_555 1_555
Mn8_2 N36_2 1_555 1_555
Mn11_2 N38_2 1_555 1_555
N36_2 C76_2 1_555 1_555
N38_2 C78_2 1_555 1_555
N40_2 C80_2 1_555 1_555
N42_2 Mn6_2 1_555 1_555
N44_2 C84_2 1_555 1_555
N49_2 C88_2 1_555 1_555
N51_2 Mn11_2 1_555 1_555
N62_2 C102_2 1_555 1_555
N64_2 C104_2 1_555 1_555
N66_2 Mn6_2 1_555 1_555
N68_2 Mn6_2 1_555 1_555
N70_2 Mn6_2 1_555 1_555
N72_2 Mn6_2 1_555 1_555
N74_2 Mn6_2 1_555 1_555
N86_2 Mn11_2 1_555 1_555
N88_2 Mn11_2 1_555 1_555
N90_2 Mn11_2 1_555 1_555
N92_2 Mn11_2 1_555 1_555
N94_2 Mn11_2 1_555 1_555
C78_2 Mo4_2 1_555 1_555
C80_2 Mo4_2 1_555 1_555
C82_2 Mo4_2 1_555 1_555
C84_2 Mo4_2 1_555 1_555
C85_2 Mo4_2 1_555 1_555
C88_2 Mo4_2 1_555 1_555
C90_2 N51_2 1_555 1_555
C106_2 N66_2 1_555 1_555
H89_2 C106_2 1_555 1_555
H91_2 C106_2 1_555 1_555
C108_2 N68_2 1_555 1_555
H93_2 C108_2 1_555 1_555
H95_2 C108_2 1_555 1_555
C110_2 N68_2 1_555 1_555
H97_2 C110_2 1_555 1_555
H99_2 C110_2 1_555 1_555
C112_2 N70_2 1_555 1_555
H101_2 C112_2 1_555 1_555
H103_2 C112_2 1_555 1_555
C114_2 N70_2 1_555 1_555
C118_2 N72_2 1_555 1_555
C126_2 N72_2 1_555 1_555
C132_2 N74_2 1_555 1_555
H123_2 C132_2 1_555 1_555
H125_2 C132_2 1_555 1_555
C134_2 N66_2 1_555 1_555
H127_2 C134_2 1_555 1_555
H129_2 C134_2 1_555 1_555
H151_2 C146_2 1_555 1_555
H153_2 C146_2 1_555 1_555
C166_2 N94_2 1_555 1_555
H173_2 C166_2 1_555 1_555
H175_2 C166_2 1_555 1_555
C168_2 N92_2 1_555 1_555
H177_2 C168_2 1_555 1_555
H179_2 C168_2 1_555 1_555
C170_2 N92_2 1_555 1_555
H181_2 C170_2 1_555 1_555
C172_2 N90_2 1_555 1_555
H185_2 C172_2 1_555 1_555
H187_2 C172_2 1_555 1_555
C174_2 N90_2 1_555 1_555
C176_2 C174_2 1_555 1_555
H189_2 C176_2 1_555 1_555
H191_2 C176_2 1_555 1_555
H193_2 C176_2 1_555 1_555
C178_2 N88_2 1_555 1_555
C180_2 C178_2 1_555 1_555
H195_2 C180_2 1_555 1_555
C182_2 C180_2 1_555 1_555
H197_2 C182_2 1_555 1_555
C184_2 C182_2 1_555 1_555
H199_2 C184_2 1_555 1_555
C186_2 N88_2 1_555 1_555
C188_2 N86_2 1_555 1_555
C190_2 C188_2 1_555 1_555
H201_2 C190_2 1_555 1_555
H203_2 C190_2 1_555 1_555
H205_2 C190_2 1_555 1_555
C192_2 N86_2 1_555 1_555
H207_2 C192_2 1_555 1_555
H209_2 C192_2 1_555 1_555
C194_2 N94_2 1_555 1_555
H211_2 C194_2 1_555 1_555
H213_2 C194_2 1_555 1_555
N42_2 C82_2 1_555 1_555
N45_2 C85_2 1_555 1_555
C106_2 C108_2 1_555 1_555
C110_2 C112_2 1_555 1_555
C114_2 C118_2 1_555 1_555
C132_2 C134_2 1_555 1_555
C166_2 C168_2 1_555 1_555
C170_2 C172_2 1_555 1_555
C174_2 C178_2 1_555 1_555
C184_2 C186_2 1_555 1_555
C186_2 C188_2 1_555 1_555
C192_2 C194_2 1_555 1_555
N66_2 H269_2 1_555 1_555
N92_2 H271_2 1_555 1_555
N68_2 H279_2 1_555 1_555
N94_2 H280_2 1_555 1_555
Mo1_2 C1_2 1_555 1_555
Mn1_2 O1_2 1_555 1_555
Mn2_2 N1_2 1_555 1_555
Mn3_2 N2_2 1_555 1_555
N1_2 C1_2 1_555 1_555
N2_2 C2_2 1_555 1_555
N3_2 C3_2 1_555 1_555
N4_2 Mn1_2 1_555 1_555
N5_2 C5_2 1_555 1_555
N47 C6_2 1_555 1_555
N7_2 C7_2 1_555 1_555
N8_2 Mn3_2 1_555 1_555
N13_2 C13_2 1_555 1_555
N14_2 C14_2 1_555 1_555
N15_2 Mn1_2 1_555 1_555
N16_2 Mn1_2 1_555 1_555
N17_2 Mn1_2 1_555 1_555
N18_2 Mn1_2 1_555 1_555
N19_2 Mn1_2 1_555 1_555
N25_2 Mn3_2 1_555 1_555
N26_2 Mn3_2 1_555 1_555
N27_2 Mn3_2 1_555 1_555
N28_2 Mn3_2 1_555 1_555
N29_2 Mn3_2 1_555 1_555
C2_2 Mo1_2 1_555 1_555
C3_2 Mo1_2 1_555 1_555
C4_2 Mo1_2 1_555 1_555
C5_2 Mo1_2 1_555 1_555
C6_2 Mo1_2 1_555 1_555
C7_2 Mo1_2 1_555 1_555
C8_2 N8_2 1_555 1_555
C15_2 N15_2 1_555 1_555
H2_2 C15_2 1_555 1_555
H3_2 C15_2 1_555 1_555
C16_2 N16_2 1_555 1_555
H4_2 C16_2 1_555 1_555
H5_2 C16_2 1_555 1_555
C17_2 N16_2 1_555 1_555
H6_2 C17_2 1_555 1_555
H7_2 C17_2 1_555 1_555
C18_2 N17_2 1_555 1_555
H8_2 C18_2 1_555 1_555
H9_2 C18_2 1_555 1_555
C19_2 N17_2 1_555 1_555
C20_2 C19_2 1_555 1_555
H10_2 C20_2 1_555 1_555
H11_2 C20_2 1_555 1_555
H12_2 C20_2 1_555 1_555
C21_2 N18_2 1_555 1_555
C22_2 C21_2 1_555 1_555
H13_2 C22_2 1_555 1_555
C25_2 N18_2 1_555 1_555
C28_2 N19_2 1_555 1_555
H19_2 C28_2 1_555 1_555
H20_2 C28_2 1_555 1_555
C29_2 N15_2 1_555 1_555
H21_2 C29_2 1_555 1_555
H22_2 C29_2 1_555 1_555
H33_2 C35_2 1_555 1_555
H34_2 C35_2 1_555 1_555
C45_2 N29_2 1_555 1_555
H44_2 C45_2 1_555 1_555
H45_2 C45_2 1_555 1_555
C46_2 N28_2 1_555 1_555
H46_2 C46_2 1_555 1_555
H47_2 C46_2 1_555 1_555
C47_2 N28_2 1_555 1_555
H48_2 C47_2 1_555 1_555
C48_2 N27_2 1_555 1_555
H50_2 C48_2 1_555 1_555
H51_2 C48_2 1_555 1_555
C49_2 N27_2 1_555 1_555
C50_2 C49_2 1_555 1_555
H52_2 C50_2 1_555 1_555
H53_2 C50_2 1_555 1_555
H54_2 C50_2 1_555 1_555
C51_2 N26_2 1_555 1_555
C52_2 C51_2 1_555 1_555
H55_2 C52_2 1_555 1_555
C53_2 C52_2 1_555 1_555
H56_2 C53_2 1_555 1_555
C54_2 C53_2 1_555 1_555
H57_2 C54_2 1_555 1_555
C55_2 N26_2 1_555 1_555
C56_2 N25_2 1_555 1_555
C57_2 C56_2 1_555 1_555
H58_2 C57_2 1_555 1_555
H59_2 C57_2 1_555 1_555
H60_2 C57_2 1_555 1_555
C58_2 N25_2 1_555 1_555
H61_2 C58_2 1_555 1_555
H62_2 C58_2 1_555 1_555
C59_2 N29_2 1_555 1_555
H63_2 C59_2 1_555 1_555
H64_2 C59_2 1_555 1_555
H71_2 C68_2 1_555 1_555
H72_2 C68_2 1_555 1_555
H73_2 C68_2 1_555 1_555
N4_2 C4_2 1_555 1_555
C15_2 C16_2 1_555 1_555
C17_2 C18_2 1_555 1_555
C19_2 C21_2 1_555 1_555
C28_2 C29_2 1_555 1_555
C45_2 C46_2 1_555 1_555
C47_2 C48_2 1_555 1_555
C49_2 C51_2 1_555 1_555
C54_2 C55_2 1_555 1_555
C55_2 C56_2 1_555 1_555
C58_2 C59_2 1_555 1_555
N28_2 H259_2 1_555 1_555
N29_2 H260_2 1_555 1_555
N16_2 H262_2 1_555 1_555
N15_2 H263_2 1_555 1_555
H14_2 C23_2 1_555 1_555
C24_2 C23_2 1_555 1_555
H15_2 C24_2 1_555 1_555
C27_2 C26_2 1_555 1_555
H16_2 C27_2 1_555 1_555
H17_2 C27_2 1_555 1_555
H18_2 C27_2 1_555 1_555
C31_2 N20_2 1_555 1_555
H25_2 C31_2 1_555 1_555
H26_2 C31_2 1_555 1_555
C32_2 N20_2 1_555 1_555
H27_2 C32_2 1_555 1_555
H28_2 C32_2 1_555 1_555
C33_2 N21_2 1_555 1_555
H29_2 C33_2 1_555 1_555
H30_2 C33_2 1_555 1_555
C34_2 N21_2 1_555 1_555
H31_2 C34_2 1_555 1_555
H32_2 C34_2 1_555 1_555
Mn13_2 N55_2 1_555 1_555
Mn14_2 N59_2 1_555 1_555
N55_2 C95 1_555 1_555
N59_2 C100 1_555 1_555
N60_2 Mn13_2 1_555 1_555
N96_2 Mn13_2 1_555 1_555
N98_2 Mn13_2 1_555 1_555
N100_2 Mn13_2 1_555 1_555
N102_2 Mn13_2 1_555 1_555
N104_2 Mn13_2 1_555 1_555
H105_2 C116_2 1_555 1_555
H107_2 C116_2 1_555 1_555
H109_2 C116_2 1_555 1_555
H111_2 C120_2 1_555 1_555
C196_2 N104_2 1_555 1_555
C198_2 C196_2 1_555 1_555
H215_2 C198_2 1_555 1_555
H217_2 C198_2 1_555 1_555
H219_2 C198_2 1_555 1_555
C200_2 N102_2 1_555 1_555
C202_2 C200_2 1_555 1_555
H221_2 C202_2 1_555 1_555
C204_2 C202_2 1_555 1_555
H223_2 C204_2 1_555 1_555
C206_2 C204_2 1_555 1_555
H225_2 C206_2 1_555 1_555
C208_2 N102_2 1_555 1_555
C210_2 N100_2 1_555 1_555
C212_2 C210_2 1_555 1_555
H227_2 C212_2 1_555 1_555
H229_2 C212_2 1_555 1_555
H231_2 C212_2 1_555 1_555
C214_2 N100_2 1_555 1_555
H233_2 C214_2 1_555 1_555
H235_2 C214_2 1_555 1_555
C216_2 N98_2 1_555 1_555
H237_2 C216_2 1_555 1_555
H239_2 C216_2 1_555 1_555
C218_2 N98_2 1_555 1_555
H241_2 C218_2 1_555 1_555
H243_2 C218_2 1_555 1_555
C220_2 N96_2 1_555 1_555
H245_2 C220_2 1_555 1_555
H247_2 C220_2 1_555 1_555
C222_2 N96_2 1_555 1_555
H249_2 C222_2 1_555 1_555
H251_2 C222_2 1_555 1_555
C224_2 N104_2 1_555 1_555
H253_2 C224_2 1_555 1_555
H255_2 C224_2 1_555 1_555
C32_2 C33_2 1_555 1_555
C196_2 C200_2 1_555 1_555
C206_2 C208_2 1_555 1_555
C208_2 C210_2 1_555 1_555
C214_2 C216_2 1_555 1_555
C218_2 C220_2 1_555 1_555
C222_2 C224_2 1_555 1_555
N20_2 H257_2 1_555 1_555
N96_2 H273_2 1_555 1_555
N98_2 H281_2 1_555 1_555
Mo1_3 C1_3 1_555 1_555
Mo2_3 C8_3 1_555 1_555
Mn1_3 O1_3 1_555 1_555
Mn9 N1_3 1_555 1_555
Mn3_3 N2_3 1_555 1_555
Mn4_3 N10_3 1_555 1_555
N1_3 C1_3 1_555 1_555
N2_3 C2_3 1_555 1_555
N3_3 C3_3 1_555 1_555
N4_3 Mn1_3 1_555 1_555
N5_3 C5_3 1_555 1_555
N47_2 C6_3 1_555 1_555
N7_3 C7_3 1_555 1_555
N8_3 Mn3_3 1_555 1_555
N9_3 C9_3 1_555 1_555
N10_3 C10_3 1_555 1_555
N11_3 C11_3 1_555 1_555
N12_3 C12_3 1_555 1_555
N13_3 C13_3 1_555 1_555
N14_3 C14_3 1_555 1_555
N15_3 Mn1_3 1_555 1_555
N16_3 Mn1_3 1_555 1_555
N17_3 Mn1_3 1_555 1_555
N18_3 Mn1_3 1_555 1_555
N19_3 Mn1_3 1_555 1_555
N22_3 Mn9 1_555 1_555
N23_3 Mn9 1_555 1_555
N24_3 Mn9 1_555 1_555
N25_3 Mn3_3 1_555 1_555
N26_3 Mn3_3 1_555 1_555
N27_3 Mn3_3 1_555 1_555
N28_3 Mn3_3 1_555 1_555
N29_3 Mn3_3 1_555 1_555
N30_3 Mn4_3 1_555 1_555
N31_3 Mn4_3 1_555 1_555
N32_3 Mn4_3 1_555 1_555
N33_3 Mn4_3 1_555 1_555
N34_3 Mn4_3 1_555 1_555
C2_3 Mo1_3 1_555 1_555
C3_3 Mo1_3 1_555 1_555
C4_3 Mo1_3 1_555 1_555
C5_3 Mo1_3 1_555 1_555
C6_3 Mo1_3 1_555 1_555
C7_3 Mo1_3 1_555 1_555
C8_3 N8_3 1_555 1_555
C9_3 Mo2_3 1_555 1_555
C10_3 Mo2_3 1_555 1_555
C11_3 Mo2_3 1_555 1_555
C12_3 Mo2_3 1_555 1_555
C13_3 Mo2_3 1_555 1_555
C14_3 Mo2_3 1_555 1_555
C15_3 N15_3 1_555 1_555
H2_3 C15_3 1_555 1_555
H3_3 C15_3 1_555 1_555
C16_3 N16_3 1_555 1_555
H4_3 C16_3 1_555 1_555
H5_3 C16_3 1_555 1_555
C17_3 N16_3 1_555 1_555
H6_3 C17_3 1_555 1_555
H7_3 C17_3 1_555 1_555
C18_3 N17_3 1_555 1_555
H8_3 C18_3 1_555 1_555
H9_3 C18_3 1_555 1_555
C19_3 N17_3 1_555 1_555
C21_3 N18_3 1_555 1_555
C25_3 N18_3 1_555 1_555
C28_3 N19_3 1_555 1_555
H19_3 C28_3 1_555 1_555
H20_3 C28_3 1_555 1_555
C29_3 N15_3 1_555 1_555
H21_3 C29_3 1_555 1_555
H22_3 C29_3 1_555 1_555
C35_3 N22_3 1_555 1_555
H33_3 C35_3 1_555 1_555
H34_3 C35_3 1_555 1_555
C36_3 N22_3 1_555 1_555
C37_3 C36_3 1_555 1_555
H35_3 C37_3 1_555 1_555
H36_3 C37_3 1_555 1_555
H37_3 C37_3 1_555 1_555
C38_3 N23_3 1_555 1_555
C39_3 C38_3 1_555 1_555
H38_3 C39_3 1_555 1_555
C40_3 C39_3 1_555 1_555
H39_3 C40_3 1_555 1_555
C41_3 C40_3 1_555 1_555
H40_3 C41_3 1_555 1_555
C42_3 N23_3 1_555 1_555
C43_3 N24_3 1_555 1_555
C44_3 C43_3 1_555 1_555
H41_3 C44_3 1_555 1_555
H42_3 C44_3 1_555 1_555
H43_3 C44_3 1_555 1_555
C45_3 N29_3 1_555 1_555
H44_3 C45_3 1_555 1_555
H45_3 C45_3 1_555 1_555
C46_3 N28_3 1_555 1_555
H46_3 C46_3 1_555 1_555
H47_3 C46_3 1_555 1_555
C47_3 N28_3 1_555 1_555
H48_3 C47_3 1_555 1_555
H49_3 C47_3 1_555 1_555
C48_3 N27_3 1_555 1_555
H50_3 C48_3 1_555 1_555
H51_3 C48_3 1_555 1_555
C49_3 N27_3 1_555 1_555
C50_3 C49_3 1_555 1_555
H52_3 C50_3 1_555 1_555
H53_3 C50_3 1_555 1_555
H54_3 C50_3 1_555 1_555
C51_3 N26_3 1_555 1_555
C52_3 C51_3 1_555 1_555
H55_3 C52_3 1_555 1_555
C53_3 C52_3 1_555 1_555
H56_3 C53_3 1_555 1_555
C54_3 C53_3 1_555 1_555
H57_3 C54_3 1_555 1_555
C55_3 N26_3 1_555 1_555
C56_3 N25_3 1_555 1_555
C57_3 C56_3 1_555 1_555
H58_3 C57_3 1_555 1_555
H59_3 C57_3 1_555 1_555
H60_3 C57_3 1_555 1_555
C58_3 N25_3 1_555 1_555
H61_3 C58_3 1_555 1_555
H62_3 C58_3 1_555 1_555
C59_3 N29_3 1_555 1_555
H63_3 C59_3 1_555 1_555
H64_3 C59_3 1_555 1_555
C60_3 N34_3 1_555 1_555
C61_3 C60_3 1_555 1_555
H65_3 C61_3 1_555 1_555
H66_3 C61_3 1_555 1_555
H67_3 C61_3 1_555 1_555
C62_3 N33_3 1_555 1_555
C63_3 C62_3 1_555 1_555
H68_3 C63_3 1_555 1_555
C64_3 C63_3 1_555 1_555
H69_3 C64_3 1_555 1_555
C65_3 C64_3 1_555 1_555
H70_3 C65_3 1_555 1_555
C66_3 N33_3 1_555 1_555
C67_3 N32_3 1_555 1_555
C68_3 C67_3 1_555 1_555
H71_3 C68_3 1_555 1_555
H72_3 C68_3 1_555 1_555
H73_3 C68_3 1_555 1_555
C69_3 N32_3 1_555 1_555
H74_3 C69_3 1_555 1_555
H75_3 C69_3 1_555 1_555
C70_3 N31_3 1_555 1_555
H76_3 C70_3 1_555 1_555
H77_3 C70_3 1_555 1_555
C71_3 N31_3 1_555 1_555
H78_3 C71_3 1_555 1_555
H79_3 C71_3 1_555 1_555
C72_3 N30_3 1_555 1_555
H80_3 C72_3 1_555 1_555
H81_3 C72_3 1_555 1_555
C73_3 N30_3 1_555 1_555
H82_3 C73_3 1_555 1_555
H83_3 C73_3 1_555 1_555
C74_3 N34_3 1_555 1_555
H84_3 C74_3 1_555 1_555
H85_3 C74_3 1_555 1_555
Mo8_2 C98_3 1_555 1_555
Mo7 C93_3 1_555 1_555
Mn12_3 N12_3 1_555 1_555
N54_3 Mn12_3 1_555 1_555
N58_3 Mn4_3 1_555 1_555
N95_3 Mn12_3 1_555 1_555
N97_3 Mn12_3 1_555 1_555
N99_3 Mn12_3 1_555 1_555
N101_3 Mn12_3 1_555 1_555
N103_3 Mn12_3 1_555 1_555
C93_3 N54_3 1_555 1_555
C98_3 N58_3 1_555 1_555
C195_3 N103_3 1_555 1_555
C197_3 C195_3 1_555 1_555
H214_3 C197_3 1_555 1_555
H216_3 C197_3 1_555 1_555
H218_3 C197_3 1_555 1_555
C199_3 N101_3 1_555 1_555
C201_3 C199_3 1_555 1_555
H220_3 C201_3 1_555 1_555
C203_3 C201_3 1_555 1_555
H222_3 C203_3 1_555 1_555
C205_3 C203_3 1_555 1_555
H224_3 C205_3 1_555 1_555
C207_3 N101_3 1_555 1_555
C209_3 N99_3 1_555 1_555
C211_3 C209_3 1_555 1_555
H226_3 C211_3 1_555 1_555
H228_3 C211_3 1_555 1_555
H230_3 C211_3 1_555 1_555
C213_3 N99_3 1_555 1_555
H232_3 C213_3 1_555 1_555
H234_3 C213_3 1_555 1_555
C215_3 N97_3 1_555 1_555
H236_3 C215_3 1_555 1_555
H238_3 C215_3 1_555 1_555
C217_3 N97_3 1_555 1_555
H240_3 C217_3 1_555 1_555
H242_3 C217_3 1_555 1_555
C219_3 N95_3 1_555 1_555
H244_3 C219_3 1_555 1_555
H246_3 C219_3 1_555 1_555
C221_3 N95_3 1_555 1_555
H248_3 C221_3 1_555 1_555
H250_3 C221_3 1_555 1_555
C223_3 N103_3 1_555 1_555
H252_3 C223_3 1_555 1_555
H254_3 C223_3 1_555 1_555
N4_3 C4_3 1_555 1_555
C15_3 C16_3 1_555 1_555
C17_3 C18_3 1_555 1_555
C19_3 C21_3 1_555 1_555
C28_3 C29_3 1_555 1_555
C36_3 C38_3 1_555 1_555
C41_3 C42_3 1_555 1_555
C42_3 C43_3 1_555 1_555
C45_3 C46_3 1_555 1_555
C47_3 C48_3 1_555 1_555
C49_3 C51_3 1_555 1_555
C54_3 C55_3 1_555 1_555
C55_3 C56_3 1_555 1_555
C58_3 C59_3 1_555 1_555
C60_3 C62_3 1_555 1_555
C65_3 C66_3 1_555 1_555
C66_3 C67_3 1_555 1_555
C69_3 C70_3 1_555 1_555
C71_3 C72_3 1_555 1_555
C73_3 C74_3 1_555 1_555
C195_3 C199_3 1_555 1_555
C205_3 C207_3 1_555 1_555
C207_3 C209_3 1_555 1_555
C213_3 C215_3 1_555 1_555
C217_3 C219_3 1_555 1_555
C221_3 C223_3 1_555 1_555
N28_3 H259_3 1_555 1_555
N29_3 H260_3 1_555 1_555
N30_3 H261_3 1_555 1_555
N16_3 H262_3 1_555 1_555
N15_3 H263_3 1_555 1_555
N31_3 H264_3 1_555 1_555
N95_3 H277_3 1_555 1_555
N97_3 H282_3 1_555 1_555
C24_3 C23_3 1_555 1_555
H15_3 C24_3 1_555 1_555
C27_3 C26_3 1_555 1_555
H16_3 C27_3 1_555 1_555
H17_3 C27_3 1_555 1_555
H18_3 C27_3 1_555 1_555
H23_3 C30_3 1_555 1_555
H24_3 C30_3 1_555 1_555
C31_3 N20_3 1_555 1_555
H25_3 C31_3 1_555 1_555
H26_3 C31_3 1_555 1_555
C32_3 N20_3 1_555 1_555
H27_3 C32_3 1_555 1_555
H28_3 C32_3 1_555 1_555
C33_3 N21_3 1_555 1_555
H29_3 C33_3 1_555 1_555
H30_3 C33_3 1_555 1_555
C34_3 N21_3 1_555 1_555
H31_3 C34_3 1_555 1_555
H32_3 C34_3 1_555 1_555
Mn13_3 N55_3 1_555 1_555
Mn14_3 N59_3 1_555 1_555
N55_3 C95_2 1_555 1_555
N59_3 C100_2 1_555 1_555
N60_3 Mn13_3 1_555 1_555
N96_3 Mn13_3 1_555 1_555
N98_3 Mn13_3 1_555 1_555
N100_3 Mn13_3 1_555 1_555
N102_3 Mn13_3 1_555 1_555
N104_3 Mn13_3 1_555 1_555
C196_3 N104_3 1_555 1_555
C198_3 C196_3 1_555 1_555
H215_3 C198_3 1_555 1_555
H217_3 C198_3 1_555 1_555
H219_3 C198_3 1_555 1_555
C200_3 N102_3 1_555 1_555
C202_3 C200_3 1_555 1_555
H221_3 C202_3 1_555 1_555
C204_3 C202_3 1_555 1_555
H223_3 C204_3 1_555 1_555
C206_3 C204_3 1_555 1_555
C208_3 N102_3 1_555 1_555
C210_3 N100_3 1_555 1_555
C214_3 N100_3 1_555 1_555
H233_3 C214_3 1_555 1_555
H235_3 C214_3 1_555 1_555
C216_3 N98_3 1_555 1_555
H237_3 C216_3 1_555 1_555
H239_3 C216_3 1_555 1_555
C218_3 N98_3 1_555 1_555
H241_3 C218_3 1_555 1_555
H243_3 C218_3 1_555 1_555
C220_3 N96_3 1_555 1_555
H245_3 C220_3 1_555 1_555
H247_3 C220_3 1_555 1_555
C222_3 N96_3 1_555 1_555
H249_3 C222_3 1_555 1_555
H251_3 C222_3 1_555 1_555
C224_3 N104_3 1_555 1_555
H253_3 C224_3 1_555 1_555
H255_3 C224_3 1_555 1_555
C30_3 C31_3 1_555 1_555
C32_3 C33_3 1_555 1_555
C196_3 C200_3 1_555 1_555
C206_3 C208_3 1_555 1_555
C208_3 C210_3 1_555 1_555
C214_3 C216_3 1_555 1_555
C218_3 C220_3 1_555 1_555
C222_3 C224_3 1_555 1_555
N20_3 H257_3 1_555 1_555
N96_3 H273_3 1_555 1_555
N98_3 H281_3 1_555 1_555
H10_3 C20_3 1_555 1_555
H11_3 C20_3 1_555 1_555
H12_3 C20_3 1_555 1_555
H13_3 C22_3 1_555 1_555
H227_3 C212_3 1_555 1_555
H229_3 C212_3 1_555 1_555
H231_3 C212_3 1_555 1_555
Mn1_4 O1_4 1_555 1_555
N16_4 Mn1_4 1_555 1_555
N17_4 Mn1_4 1_555 1_555
N18_4 Mn1_4 1_555 1_555
N19_4 Mn1_4 1_555 1_555
C17_4 N16_4 1_555 1_555
H6_4 C17_4 1_555 1_555
C18_4 N17_4 1_555 1_555
H8_4 C18_4 1_555 1_555
H9_4 C18_4 1_555 1_555
C19_4 N17_4 1_555 1_555
C20_4 C19_4 1_555 1_555
H10_4 C20_4 1_555 1_555
H11_4 C20_4 1_555 1_555
H12_4 C20_4 1_555 1_555
C21_4 N18_4 1_555 1_555
C22_4 C21_4 1_555 1_555
H13_4 C22_4 1_555 1_555
C23_4 C22_4 1_555 1_555
H14_4 C23_4 1_555 1_555
C24_4 C23_4 1_555 1_555
H15_4 C24_4 1_555 1_555
C25_4 N18_4 1_555 1_555
C26_4 N19_4 1_555 1_555
C27_4 C26_4 1_555 1_555
H17_4 C27_4 1_555 1_555
H18_4 C27_4 1_555 1_555
Mo5_2 C89_2 1_555 1_555
Mn5_2 O2_2 1_555 1_555
Mn10_2 N37_2 1_555 1_555
Mn14_4 N59_4 1_555 1_555
N37_2 C77_2 1_555 1_555
N39_2 C79_2 1_555 1_555
N41_2 Mn5_2 1_555 1_555
N50_2 Mn10_2 1_555 1_555
N55_4 C94_2 1_555 1_555
N56_2 C96_2 1_555 1_555
N59_4 C99_2 1_555 1_555
N61_2 C101_2 1_555 1_555
N63_2 C103_2 1_555 1_555
N65_2 Mn5_2 1_555 1_555
N67_2 Mn5_2 1_555 1_555
N69_2 Mn5_2 1_555 1_555
N71_2 Mn5_2 1_555 1_555
N73_2 Mn5_2 1_555 1_555
N85_2 Mn10_2 1_555 1_555
N87_2 Mn10_2 1_555 1_555
N91_2 Mn10_2 1_555 1_555
N93_2 Mn10_2 1_555 1_555
C89_2 N50_2 1_555 1_555
C91_2 Mo5_2 1_555 1_555
C94_2 Mo5_2 1_555 1_555
C96_2 Mo5_2 1_555 1_555
C99_2 Mo5_2 1_555 1_555
C101_2 Mo5_2 1_555 1_555
C103_2 Mo5_2 1_555 1_555
C105_2 N65_2 1_555 1_555
H88_2 C105_2 1_555 1_555
H90_2 C105_2 1_555 1_555
C107_2 N67_2 1_555 1_555
H92_2 C107_2 1_555 1_555
H94_2 C107_2 1_555 1_555
C109_2 N67_2 1_555 1_555
H96_2 C109_2 1_555 1_555
H98_2 C109_2 1_555 1_555
C111_2 N69_2 1_555 1_555
H100_2 C111_2 1_555 1_555
H102_2 C111_2 1_555 1_555
C113_2 N69_2 1_555 1_555
C115_2 C113_2 1_555 1_555
H104_2 C115_2 1_555 1_555
H106_2 C115_2 1_555 1_555
H108_2 C115_2 1_555 1_555
C117_2 N71_2 1_555 1_555
C119_2 C117_2 1_555 1_555
H110_2 C119_2 1_555 1_555
C121_2 C119_2 1_555 1_555
H112_2 C121_2 1_555 1_555
C123_2 C121_2 1_555 1_555
H114_2 C123_2 1_555 1_555
C125_2 N71_2 1_555 1_555
C127_2 N73_2 1_555 1_555
C129_2 C127_2 1_555 1_555
H116_2 C129_2 1_555 1_555
H118_2 C129_2 1_555 1_555
H120_2 C129_2 1_555 1_555
C131_2 N73_2 1_555 1_555
H122_2 C131_2 1_555 1_555
H124_2 C131_2 1_555 1_555
C133_2 N65_2 1_555 1_555
H126_2 C133_2 1_555 1_555
H128_2 C133_2 1_555 1_555
C165_2 N93_2 1_555 1_555
H172_2 C165_2 1_555 1_555
H174_2 C165_2 1_555 1_555
C167_2 N91_2 1_555 1_555
H176_2 C167_2 1_555 1_555
H178_2 C167_2 1_555 1_555
C177_2 N87_2 1_555 1_555
H196_2 C181_2 1_555 1_555
C183_2 C181_2 1_555 1_555
H198_2 C183_2 1_555 1_555
C185_2 N87_2 1_555 1_555
C187_2 N85_2 1_555 1_555
C189_2 C187_2 1_555 1_555
H200_2 C189_2 1_555 1_555
H202_2 C189_2 1_555 1_555
H204_2 C189_2 1_555 1_555
C191_2 N85_2 1_555 1_555
H206_2 C191_2 1_555 1_555
H208_2 C191_2 1_555 1_555
C193_2 N93_2 1_555 1_555
H210_2 C193_2 1_555 1_555
H212_2 C193_2 1_555 1_555
C198_4 C196_4 1_555 1_555
H217_4 C198_4 1_555 1_555
H219_4 C198_4 1_555 1_555
C200_4 N102_4 1_555 1_555
C202_4 C200_4 1_555 1_555
H221_4 C202_4 1_555 1_555
C204_4 C202_4 1_555 1_555
H223_4 C204_4 1_555 1_555
C206_4 C204_4 1_555 1_555
H225_4 C206_4 1_555 1_555
C208_4 N102_4 1_555 1_555
C212_4 C210_4 1_555 1_555
H227_4 C212_4 1_555 1_555
H229_4 C212_4 1_555 1_555
H231_4 C212_4 1_555 1_555
C17_4 C18_4 1_555 1_555
C19_4 C21_4 1_555 1_555
C24_4 C25_4 1_555 1_555
C25_4 C26_4 1_555 1_555
N41_2 C81_2 1_555 1_555
C105_2 C107_2 1_555 1_555
C109_2 C111_2 1_555 1_555
C113_2 C117_2 1_555 1_555
C123_2 C125_2 1_555 1_555
C125_2 C127_2 1_555 1_555
C131_2 C133_2 1_555 1_555
C165_2 C167_2 1_555 1_555
C183_2 C185_2 1_555 1_555
C185_2 C187_2 1_555 1_555
C191_2 C193_2 1_555 1_555
C196_4 C200_4 1_555 1_555
C206_4 C208_4 1_555 1_555
C208_4 C210_4 1_555 1_555
N16_4 H262_4 1_555 1_555
N91_2 H270_2 1_555 1_555
N93_2 H272_2 1_555 1_555
N65_2 H275_2 1_555 1_555
N67_2 H278_2 1_555 1_555
Mo1_4 C1_4 1_555 1_555
Mn2_3 N1_4 1_555 1_555
Mn3_4 N2_4 1_555 1_555
N1_4 C1_4 1_555 1_555
N2_4 C2_4 1_555 1_555
N3_4 C3_4 1_555 1_555
N5_4 C5_4 1_555 1_555
N6_2 C6_4 1_555 1_555
N7_4 C7_4 1_555 1_555
N20_4 Mn2_3 1_555 1_555
N21_4 Mn2_3 1_555 1_555
N22_4 Mn2_3 1_555 1_555
N23_4 Mn2_3 1_555 1_555
N24_4 Mn2_3 1_555 1_555
N25_4 Mn3_4 1_555 1_555
N26_4 Mn3_4 1_555 1_555
N27_4 Mn3_4 1_555 1_555
N28_4 Mn3_4 1_555 1_555
C2_4 Mo1_4 1_555 1_555
C3_4 Mo1_4 1_555 1_555
C4_4 Mo1_4 1_555 1_555
C5_4 Mo1_4 1_555 1_555
C6_4 Mo1_4 1_555 1_555
C7_4 Mo1_4 1_555 1_555
C15_4 N15_4 1_555 1_555
H2_4 C15_4 1_555 1_555
H3_4 C15_4 1_555 1_555
H4_4 C16_4 1_555 1_555
H5_4 C16_4 1_555 1_555
H19_4 C28_4 1_555 1_555
H20_4 C28_4 1_555 1_555
C29_4 N15_4 1_555 1_555
H21_4 C29_4 1_555 1_555
H22_4 C29_4 1_555 1_555
C30_4 N24_4 1_555 1_555
C31_4 N20_4 1_555 1_555
H25_4 C31_4 1_555 1_555
H26_4 C31_4 1_555 1_555
C32_4 N20_4 1_555 1_555
H27_4 C32_4 1_555 1_555
H28_4 C32_4 1_555 1_555
C33_4 N21_4 1_555 1_555
H29_4 C33_4 1_555 1_555
H30_4 C33_4 1_555 1_555
C34_4 N21_4 1_555 1_555
H31_4 C34_4 1_555 1_555
H32_4 C34_4 1_555 1_555
C35_4 N22_4 1_555 1_555
H33_4 C35_4 1_555 1_555
H34_4 C35_4 1_555 1_555
C36_4 N22_4 1_555 1_555
C37_4 C36_4 1_555 1_555
H35_4 C37_4 1_555 1_555
H36_4 C37_4 1_555 1_555
H37_4 C37_4 1_555 1_555
C38_4 N23_4 1_555 1_555
C39_4 C38_4 1_555 1_555
H38_4 C39_4 1_555 1_555
C40_4 C39_4 1_555 1_555
H39_4 C40_4 1_555 1_555
C41_4 C40_4 1_555 1_555
C42_4 N23_4 1_555 1_555
C43_4 N24_4 1_555 1_555
H45_4 C45_4 1_555 1_555
C46_4 N28_4 1_555 1_555
H47_4 C46_4 1_555 1_555
C47_4 N28_4 1_555 1_555
H48_4 C47_4 1_555 1_555
H49_4 C47_4 1_555 1_555
C48_4 N27_4 1_555 1_555
H50_4 C48_4 1_555 1_555
H51_4 C48_4 1_555 1_555
C49_4 N27_4 1_555 1_555
C50_4 C49_4 1_555 1_555
H52_4 C50_4 1_555 1_555
H53_4 C50_4 1_555 1_555
H54_4 C50_4 1_555 1_555
C51_4 N26_4 1_555 1_555
C52_4 C51_4 1_555 1_555
H55_4 C52_4 1_555 1_555
C53_4 C52_4 1_555 1_555
H56_4 C53_4 1_555 1_555
C54_4 C53_4 1_555 1_555
H57_4 C54_4 1_555 1_555
C55_4 N26_4 1_555 1_555
C56_4 N25_4 1_555 1_555
C57_4 C56_4 1_555 1_555
H58_4 C57_4 1_555 1_555
H59_4 C57_4 1_555 1_555
H63_4 C59_4 1_555 1_555
Mo3_2 C75_2 1_555 1_555
Mo4_3 C76_3 1_555 1_555
Mn7_2 N6_2 1_555 1_555
Mn8_3 N36_3 1_555 1_555
Mn9_2 N46_2 1_555 1_555
N35_2 Mn7_2 1_555 1_555
N36_3 C76_3 1_555 1_555
N43_2 C83_2 1_555 1_555
N44_3 C84_3 1_555 1_555
N45_3 Mn2_3 1_555 1_555
N46_2 C86_2 1_555 1_555
N47_3 Mn8_3 1_555 1_555
N48_2 C87_2 1_555 1_555
N49_3 C88_3 1_555 1_555
N60_4 Mn13_4 1_555 1_555
N75_2 Mn7_2 1_555 1_555
N76_3 Mn8_3 1_555 1_555
N77_2 Mn7_2 1_555 1_555
N78_3 Mn8_3 1_555 1_555
N79_2 Mn7_2 1_555 1_555
N80_3 Mn8_3 1_555 1_555
N81_2 Mn7_2 1_555 1_555
N82_3 Mn8_3 1_555 1_555
N83_2 Mn7_2 1_555 1_555
N84_3 Mn8_3 1_555 1_555
N96_4 Mn13_4 1_555 1_555
N98_4 Mn13_4 1_555 1_555
N100_4 Mn13_4 1_555 1_555
N104_4 Mn13_4 1_555 1_555
C75_2 N35_2 1_555 1_555
C83_2 Mo3_2 1_555 1_555
C84_3 Mo4_3 1_555 1_555
C85_3 Mo4_3 1_555 1_555
C86_2 Mo3_2 1_555 1_555
C87_2 Mo3_2 1_555 1_555
C88_3 Mo4_3 1_555 1_555
C135_2 N83_2 1_555 1_555
C136_3 N84_3 1_555 1_555
H132_2 C135_2 1_555 1_555
H133_3 C136_3 1_555 1_555
C137_2 N75_2 1_555 1_555
C138_3 N76_3 1_555 1_555
H134_2 C137_2 1_555 1_555
H135_3 C138_3 1_555 1_555
H136_2 C137_2 1_555 1_555
H137_3 C138_3 1_555 1_555
C139_2 N75_2 1_555 1_555
C140_3 N76_3 1_555 1_555
H138_2 C139_2 1_555 1_555
H139_3 C140_3 1_555 1_555
H140_2 C139_2 1_555 1_555
H141_3 C140_3 1_555 1_555
C141_2 N77_2 1_555 1_555
C142_3 N78_3 1_555 1_555
H142_2 C141_2 1_555 1_555
H143_3 C142_3 1_555 1_555
H144_2 C141_2 1_555 1_555
H145_3 C142_3 1_555 1_555
C143_2 N77_2 1_555 1_555
C144_3 N78_3 1_555 1_555
H146_2 C143_2 1_555 1_555
H147_3 C144_3 1_555 1_555
H148_2 C143_2 1_555 1_555
H149_3 C144_3 1_555 1_555
C145_2 N79_2 1_555 1_555
C146_3 N80_3 1_555 1_555
H150_2 C145_2 1_555 1_555
H151_3 C146_3 1_555 1_555
H152_2 C145_2 1_555 1_555
H153_3 C146_3 1_555 1_555
C147_2 N79_2 1_555 1_555
C148_3 N80_3 1_555 1_555
C149_2 C147_2 1_555 1_555
C150_3 C148_3 1_555 1_555
H154_2 C149_2 1_555 1_555
H155_3 C150_3 1_555 1_555
H156_2 C149_2 1_555 1_555
H157_3 C150_3 1_555 1_555
H158_2 C149_2 1_555 1_555
H159_3 C150_3 1_555 1_555
C151_2 N81_2 1_555 1_555
C152_3 N82_3 1_555 1_555
C153_2 C151_2 1_555 1_555
C154_3 C152_3 1_555 1_555
H160_2 C153_2 1_555 1_555
H161_3 C154_3 1_555 1_555
C155_2 C153_2 1_555 1_555
C156_3 C154_3 1_555 1_555
H162_2 C155_2 1_555 1_555
H163_3 C156_3 1_555 1_555
C157_2 C155_2 1_555 1_555
C158_3 C156_3 1_555 1_555
H164_2 C157_2 1_555 1_555
H165_3 C158_3 1_555 1_555
C159_2 N81_2 1_555 1_555
C160_3 N82_3 1_555 1_555
C161_2 N83_2 1_555 1_555
C162_3 N84_3 1_555 1_555
C163_2 C161_2 1_555 1_555
C164_3 C162_3 1_555 1_555
H166_2 C163_2 1_555 1_555
H167_3 C164_3 1_555 1_555
H168_2 C163_2 1_555 1_555
H169_3 C164_3 1_555 1_555
H170_2 C163_2 1_555 1_555
H171_3 C164_3 1_555 1_555
H180_2 C169_2 1_555 1_555
H181_3 C170_3 1_555 1_555
H182_2 C169_2 1_555 1_555
H183_3 C170_3 1_555 1_555
C171_2 N89_2 1_555 1_555
C172_3 N90_3 1_555 1_555
H184_2 C171_2 1_555 1_555
H185_3 C172_3 1_555 1_555
H186_2 C171_2 1_555 1_555
H187_3 C172_3 1_555 1_555
C173_2 N89_2 1_555 1_555
C174_3 N90_3 1_555 1_555
C175_2 C173_2 1_555 1_555
C176_3 C174_3 1_555 1_555
H188_2 C175_2 1_555 1_555
H189_3 C176_3 1_555 1_555
H190_2 C175_2 1_555 1_555
H191_3 C176_3 1_555 1_555
H192_2 C175_2 1_555 1_555
H193_3 C176_3 1_555 1_555
H194_2 C179_2 1_555 1_555
H195_3 C180_3 1_555 1_555
C214_4 N100_4 1_555 1_555
H233_4 C214_4 1_555 1_555
H235_4 C214_4 1_555 1_555
C216_4 N98_4 1_555 1_555
H237_4 C216_4 1_555 1_555
H239_4 C216_4 1_555 1_555
C218_4 N98_4 1_555 1_555
H241_4 C218_4 1_555 1_555
H243_4 C218_4 1_555 1_555
C220_4 N96_4 1_555 1_555
H245_4 C220_4 1_555 1_555
H247_4 C220_4 1_555 1_555
C222_4 N96_4 1_555 1_555
H249_4 C222_4 1_555 1_555
H251_4 C222_4 1_555 1_555
C224_4 N104_4 1_555 1_555
H253_4 C224_4 1_555 1_555
H255_4 C224_4 1_555 1_555
N4_4 C4_4 1_555 1_555
C15_4 C16_4 1_555 1_555
C28_4 C29_4 1_555 1_555
C30_4 C31_4 1_555 1_555
C32_4 C33_4 1_555 1_555
C34_4 C35_4 1_555 1_555
C36_4 C38_4 1_555 1_555
C41_4 C42_4 1_555 1_555
C42_4 C43_4 1_555 1_555
C45_4 C46_4 1_555 1_555
C47_4 C48_4 1_555 1_555
C49_4 C51_4 1_555 1_555
C54_4 C55_4 1_555 1_555
C55_4 C56_4 1_555 1_555
N45_3 C85_3 1_555 1_555
C135_2 C137_2 1_555 1_555
C136_3 C138_3 1_555 1_555
C139_2 C141_2 1_555 1_555
C140_3 C142_3 1_555 1_555
C143_2 C145_2 1_555 1_555
C144_3 C146_3 1_555 1_555
C147_2 C151_2 1_555 1_555
C148_3 C152_3 1_555 1_555
C157_2 C159_2 1_555 1_555
C158_3 C160_3 1_555 1_555
C159_2 C161_2 1_555 1_555
C160_3 C162_3 1_555 1_555
C169_2 C171_2 1_555 1_555
C170_3 C172_3 1_555 1_555
C214_4 C216_4 1_555 1_555
C218_4 C220_4 1_555 1_555
C222_4 C224_4 1_555 1_555
N20_4 H257_4 1_555 1_555
N21_4 H258_4 1_555 1_555
N28_4 H259_4 1_555 1_555
N15_4 H263_4 1_555 1_555
N75_2 H267_2 1_555 1_555
N77_2 H268_2 1_555 1_555
N96_4 H273_4 1_555 1_555
N76_3 H274_3 1_555 1_555
N78_3 H276_3 1_555 1_555
N98_4 H281_4 1_555 1_555
Mo2_4 C8_4 1_555 1_555
Mn14 N10_4 1_555 1_555
N9_4 C9_4 1_555 1_555
N10_4 C10_4 1_555 1_555
N11_4 C11_4 1_555 1_555
N60_2 C12_4 1_555 1_555
N13_4 C13_4 1_555 1_555
N14_4 C14_4 1_555 1_555
N30_4 Mn14 1_555 1_555
N31_4 Mn14 1_555 1_555
N32_4 Mn14 1_555 1_555
N33_4 Mn14 1_555 1_555
N34_4 Mn14 1_555 1_555
C8_4 N8_4 1_555 1_555
C9_4 Mo2_4 1_555 1_555
C10_4 Mo2_4 1_555 1_555
C11_4 Mo2_4 1_555 1_555
C12_4 Mo2_4 1_555 1_555
C13_4 Mo2_4 1_555 1_555
C14_4 Mo2_4 1_555 1_555
H41_4 C44_4 1_555 1_555
H42_4 C44_4 1_555 1_555
H43_4 C44_4 1_555 1_555
H61_4 C58_4 1_555 1_555
C60_4 N34_4 1_555 1_555
C61_4 C60_4 1_555 1_555
H65_4 C61_4 1_555 1_555
H66_4 C61_4 1_555 1_555
H67_4 C61_4 1_555 1_555
C62_4 N33_4 1_555 1_555
C63_4 C62_4 1_555 1_555
H68_4 C63_4 1_555 1_555
C64_4 C63_4 1_555 1_555
H69_4 C64_4 1_555 1_555
C65_4 C64_4 1_555 1_555
H70_4 C65_4 1_555 1_555
C66_4 N33_4 1_555 1_555
C67_4 N32_4 1_555 1_555
C68_4 C67_4 1_555 1_555
H72_4 C68_4 1_555 1_555
C69_4 N32_4 1_555 1_555
H75_4 C69_4 1_555 1_555
C70_4 N31_4 1_555 1_555
C71_4 N31_4 1_555 1_555
H78_4 C71_4 1_555 1_555
H79_4 C71_4 1_555 1_555
C72_4 N30_4 1_555 1_555
H80_4 C72_4 1_555 1_555
H81_4 C72_4 1_555 1_555
C73_4 N30_4 1_555 1_555
H82_4 C73_4 1_555 1_555
H83_4 C73_4 1_555 1_555
C74_4 N34_4 1_555 1_555
H84_4 C74_4 1_555 1_555
H85_4 C74_4 1_555 1_555
Mo6_3 C90_3 1_555 1_555
Mn6_3 O3_3 1_555 1_555
Mn11_3 N38_3 1_555 1_555
N38_3 C78_3 1_555 1_555
N40_3 C80_3 1_555 1_555
N42_3 Mn6_3 1_555 1_555
N51_3 Mn11_3 1_555 1_555
N57_3 C97_3 1_555 1_555
N62_3 C102_3 1_555 1_555
N64_3 C104_3 1_555 1_555
N66_3 Mn6_3 1_555 1_555
N68_3 Mn6_3 1_555 1_555
N70_3 Mn6_3 1_555 1_555
N72_3 Mn6_3 1_555 1_555
N74_3 Mn6_3 1_555 1_555
N86_3 Mn11_3 1_555 1_555
N88_3 Mn11_3 1_555 1_555
N92_3 Mn11_3 1_555 1_555
N94_3 Mn11_3 1_555 1_555
C90_3 N51_3 1_555 1_555
C92_3 Mo6_3 1_555 1_555
C95_3 Mo6_3 1_555 1_555
C97_3 Mo6_3 1_555 1_555
C100_3 Mo6_3 1_555 1_555
C102_3 Mo6_3 1_555 1_555
C104_3 Mo6_3 1_555 1_555
C106_3 N66_3 1_555 1_555
H89_3 C106_3 1_555 1_555
H91_3 C106_3 1_555 1_555
C108_3 N68_3 1_555 1_555
H93_3 C108_3 1_555 1_555
H95_3 C108_3 1_555 1_555
C110_3 N68_3 1_555 1_555
H97_3 C110_3 1_555 1_555
H99_3 C110_3 1_555 1_555
C112_3 N70_3 1_555 1_555
H101_3 C112_3 1_555 1_555
H103_3 C112_3 1_555 1_555
C114_3 N70_3 1_555 1_555
C116_3 C114_3 1_555 1_555
H105_3 C116_3 1_555 1_555
H107_3 C116_3 1_555 1_555
H109_3 C116_3 1_555 1_555
C118_3 N72_3 1_555 1_555
C120_3 C118_3 1_555 1_555
H111_3 C120_3 1_555 1_555
C122_3 C120_3 1_555 1_555
H113_3 C122_3 1_555 1_555
C124_3 C122_3 1_555 1_555
H115_3 C124_3 1_555 1_555
C126_3 N72_3 1_555 1_555
C128_3 N74_3 1_555 1_555
C130_3 C128_3 1_555 1_555
H117_3 C130_3 1_555 1_555
H119_3 C130_3 1_555 1_555
H121_3 C130_3 1_555 1_555
C132_3 N74_3 1_555 1_555
H123_3 C132_3 1_555 1_555
H125_3 C132_3 1_555 1_555
C134_3 N66_3 1_555 1_555
H127_3 C134_3 1_555 1_555
H129_3 C134_3 1_555 1_555
C166_3 N94_3 1_555 1_555
H173_3 C166_3 1_555 1_555
H175_3 C166_3 1_555 1_555
C168_3 N92_3 1_555 1_555
H177_3 C168_3 1_555 1_555
H179_3 C168_3 1_555 1_555
C178_3 N88_3 1_555 1_555
H197_3 C182_3 1_555 1_555
C184_3 C182_3 1_555 1_555
H199_3 C184_3 1_555 1_555
C186_3 N88_3 1_555 1_555
C188_3 N86_3 1_555 1_555
C190_3 C188_3 1_555 1_555
H201_3 C190_3 1_555 1_555
H203_3 C190_3 1_555 1_555
H205_3 C190_3 1_555 1_555
C192_3 N86_3 1_555 1_555
H207_3 C192_3 1_555 1_555
H209_3 C192_3 1_555 1_555
C194_3 N94_3 1_555 1_555
H211_3 C194_3 1_555 1_555
H213_3 C194_3 1_555 1_555
C60_4 C62_4 1_555 1_555
C65_4 C66_4 1_555 1_555
C66_4 C67_4 1_555 1_555
C69_4 C70_4 1_555 1_555
C71_4 C72_4 1_555 1_555
C73_4 C74_4 1_555 1_555
N42_3 C82_3 1_555 1_555
C106_3 C108_3 1_555 1_555
C110_3 C112_3 1_555 1_555
C114_3 C118_3 1_555 1_555
C124_3 C126_3 1_555 1_555
C126_3 C128_3 1_555 1_555
C132_3 C134_3 1_555 1_555
C166_3 C168_3 1_555 1_555
C184_3 C186_3 1_555 1_555
C186_3 C188_3 1_555 1_555
C192_3 C194_3 1_555 1_555
N29_4 H260_4 1_555 1_555
N30_4 H261_4 1_555 1_555
N31_4 H264_4 1_555 1_555
N66_3 H269_3 1_555 1_555
N92_3 H271_3 1_555 1_555
N68_3 H279_3 1_555 1_555
N94_3 H280_3 1_555 1_555
Mo1_5 C1_5 1_555 1_555
Mo2_5 C8_5 1_555 1_555
Mn2_4 N1_5 1_555 1_555
Mn3_5 N2_5 1_555 1_555
Mn14_2 N10_5 1_555 1_555
N1_5 C1_5 1_555 1_555
N2_5 C2_5 1_555 1_555
N3_5 C3_5 1_555 1_555
N5_5 C5_5 1_555 1_555
N47_3 C6_5 1_555 1_555
N7_5 C7_5 1_555 1_555
N8_5 Mn3_5 1_555 1_555
N9_5 C9_5 1_555 1_555
N10_5 C10_5 1_555 1_555
N11_5 C11_5 1_555 1_555
N60_3 C12_5 1_555 1_555
N13_5 C13_5 1_555 1_555
N14_5 C14_5 1_555 1_555
N20_5 Mn2_4 1_555 1_555
N21_5 Mn2_4 1_555 1_555
N22_5 Mn2_4 1_555 1_555
N23_5 Mn2_4 1_555 1_555
N24_5 Mn2_4 1_555 1_555
N25_5 Mn3_5 1_555 1_555
N26_5 Mn3_5 1_555 1_555
N27_5 Mn3_5 1_555 1_555
N28_5 Mn3_5 1_555 1_555
N29_5 Mn3_5 1_555 1_555
N30_5 Mn14_2 1_555 1_555
N31_5 Mn14_2 1_555 1_555
N32_5 Mn14_2 1_555 1_555
N33_5 Mn14_2 1_555 1_555
N34_5 Mn14_2 1_555 1_555
C2_5 Mo1_5 1_555 1_555
C3_5 Mo1_5 1_555 1_555
C4_5 Mo1_5 1_555 1_555
C5_5 Mo1_5 1_555 1_555
C6_5 Mo1_5 1_555 1_555
C7_5 Mo1_5 1_555 1_555
C8_5 N8_5 1_555 1_555
C9_5 Mo2_5 1_555 1_555
C10_5 Mo2_5 1_555 1_555
C11_5 Mo2_5 1_555 1_555
C12_5 Mo2_5 1_555 1_555
C13_5 Mo2_5 1_555 1_555
C14_5 Mo2_5 1_555 1_555
C15_5 N15_5 1_555 1_555
H2_5 C15_5 1_555 1_555
H3_5 C15_5 1_555 1_555
H4_5 C16_5 1_555 1_555
H5_5 C16_5 1_555 1_555
H19_5 C28_5 1_555 1_555
H20_5 C28_5 1_555 1_555
C29_5 N15_5 1_555 1_555
H21_5 C29_5 1_555 1_555
H22_5 C29_5 1_555 1_555
C30_5 N24_5 1_555 1_555
H23_5 C30_5 1_555 1_555
H24_5 C30_5 1_555 1_555
C31_5 N20_5 1_555 1_555
H25_5 C31_5 1_555 1_555
H26_5 C31_5 1_555 1_555
C32_5 N20_5 1_555 1_555
H27_5 C32_5 1_555 1_555
H28_5 C32_5 1_555 1_555
C33_5 N21_5 1_555 1_555
H29_5 C33_5 1_555 1_555
H30_5 C33_5 1_555 1_555
C34_5 N21_5 1_555 1_555
H31_5 C34_5 1_555 1_555
H32_5 C34_5 1_555 1_555
C35_5 N22_5 1_555 1_555
H33_5 C35_5 1_555 1_555
H34_5 C35_5 1_555 1_555
C36_5 N22_5 1_555 1_555
C37_5 C36_5 1_555 1_555
H35_5 C37_5 1_555 1_555
H36_5 C37_5 1_555 1_555
H37_5 C37_5 1_555 1_555
C38_5 N23_5 1_555 1_555
C39_5 C38_5 1_555 1_555
H38_5 C39_5 1_555 1_555
C40_5 C39_5 1_555 1_555
H39_5 C40_5 1_555 1_555
C41_5 C40_5 1_555 1_555
H40_5 C41_5 1_555 1_555
C42_5 N23_5 1_555 1_555
C43_5 N24_5 1_555 1_555
C44_5 C43_5 1_555 1_555
H41_5 C44_5 1_555 1_555
H42_5 C44_5 1_555 1_555
H43_5 C44_5 1_555 1_555
C45_5 N29_5 1_555 1_555
H44_5 C45_5 1_555 1_555
H45_5 C45_5 1_555 1_555
C46_5 N28_5 1_555 1_555
H46_5 C46_5 1_555 1_555
H47_5 C46_5 1_555 1_555
C47_5 N28_5 1_555 1_555
H48_5 C47_5 1_555 1_555
H49_5 C47_5 1_555 1_555
C48_5 N27_5 1_555 1_555
H50_5 C48_5 1_555 1_555
H51_5 C48_5 1_555 1_555
C49_5 N27_5 1_555 1_555
C50_5 C49_5 1_555 1_555
H52_5 C50_5 1_555 1_555
H53_5 C50_5 1_555 1_555
H54_5 C50_5 1_555 1_555
C51_5 N26_5 1_555 1_555
C52_5 C51_5 1_555 1_555
H55_5 C52_5 1_555 1_555
C53_5 C52_5 1_555 1_555
H56_5 C53_5 1_555 1_555
C54_5 C53_5 1_555 1_555
H57_5 C54_5 1_555 1_555
C55_5 N26_5 1_555 1_555
C56_5 N25_5 1_555 1_555
C57_5 C56_5 1_555 1_555
H58_5 C57_5 1_555 1_555
H59_5 C57_5 1_555 1_555
H60_5 C57_5 1_555 1_555
C58_5 N25_5 1_555 1_555
H61_5 C58_5 1_555 1_555
H62_5 C58_5 1_555 1_555
C59_5 N29_5 1_555 1_555
H63_5 C59_5 1_555 1_555
H64_5 C59_5 1_555 1_555
C60_5 N34_5 1_555 1_555
C61_5 C60_5 1_555 1_555
H65_5 C61_5 1_555 1_555
H66_5 C61_5 1_555 1_555
H67_5 C61_5 1_555 1_555
C62_5 N33_5 1_555 1_555
C63_5 C62_5 1_555 1_555
H68_5 C63_5 1_555 1_555
C64_5 C63_5 1_555 1_555
H69_5 C64_5 1_555 1_555
C65_5 C64_5 1_555 1_555
H70_5 C65_5 1_555 1_555
C66_5 N33_5 1_555 1_555
C67_5 N32_5 1_555 1_555
C68_5 C67_5 1_555 1_555
H71_5 C68_5 1_555 1_555
H72_5 C68_5 1_555 1_555
H73_5 C68_5 1_555 1_555
C69_5 N32_5 1_555 1_555
H74_5 C69_5 1_555 1_555
H75_5 C69_5 1_555 1_555
C70_5 N31_5 1_555 1_555
H76_5 C70_5 1_555 1_555
H77_5 C70_5 1_555 1_555
C71_5 N31_5 1_555 1_555
H78_5 C71_5 1_555 1_555
H79_5 C71_5 1_555 1_555
C72_5 N30_5 1_555 1_555
H80_5 C72_5 1_555 1_555
H81_5 C72_5 1_555 1_555
C73_5 N30_5 1_555 1_555
H82_5 C73_5 1_555 1_555
H83_5 C73_5 1_555 1_555
C74_5 N34_5 1_555 1_555
H84_5 C74_5 1_555 1_555
H85_5 C74_5 1_555 1_555
Mo4_4 C76_4 1_555 1_555
Mo6_4 C90_4 1_555 1_555
Mn6_4 O3_4 1_555 1_555
Mn8_4 N36_4 1_555 1_555
Mn11_4 N38_4 1_555 1_555
N36_4 C76_4 1_555 1_555
N38_4 C78_4 1_555 1_555
N40_4 C80_4 1_555 1_555
N42_4 Mn6_4 1_555 1_555
N44_4 C84_4 1_555 1_555
N45_4 Mn2_4 1_555 1_555
N47_4 Mn8_4 1_555 1_555
N49_4 C88_4 1_555 1_555
N51_4 Mn11_4 1_555 1_555
N53_4 C92_4 1_555 1_555
N57_4 C97_4 1_555 1_555
N60_5 Mn13_5 1_555 1_555
N62_4 C102_4 1_555 1_555
N64_4 C104_4 1_555 1_555
N66_4 Mn6_4 1_555 1_555
N68_4 Mn6_4 1_555 1_555
N70_4 Mn6_4 1_555 1_555
N72_4 Mn6_4 1_555 1_555
N74_4 Mn6_4 1_555 1_555
N76_4 Mn8_4 1_555 1_555
N78_4 Mn8_4 1_555 1_555
N80_4 Mn8_4 1_555 1_555
N82_4 Mn8_4 1_555 1_555
N84_4 Mn8_4 1_555 1_555
N86_4 Mn11_4 1_555 1_555
N88_4 Mn11_4 1_555 1_555
N90_4 Mn11_4 1_555 1_555
N92_4 Mn11_4 1_555 1_555
N94_4 Mn11_4 1_555 1_555
N96_5 Mn13_5 1_555 1_555
N98_5 Mn13_5 1_555 1_555
N100_5 Mn13_5 1_555 1_555
N104_5 Mn13_5 1_555 1_555
C78_4 Mo4_4 1_555 1_555
C80_4 Mo4_4 1_555 1_555
C82_4 Mo4_4 1_555 1_555
C84_4 Mo4_4 1_555 1_555
C85_4 Mo4_4 1_555 1_555
C88_4 Mo4_4 1_555 1_555
C90_4 N51_4 1_555 1_555
C92_4 Mo6_4 1_555 1_555
C95_4 Mo6_4 1_555 1_555
C97_4 Mo6_4 1_555 1_555
C100_4 Mo6_4 1_555 1_555
C102_4 Mo6_4 1_555 1_555
C104_4 Mo6_4 1_555 1_555
C106_4 N66_4 1_555 1_555
H89_4 C106_4 1_555 1_555
H91_4 C106_4 1_555 1_555
C108_4 N68_4 1_555 1_555
H93_4 C108_4 1_555 1_555
H95_4 C108_4 1_555 1_555
C110_4 N68_4 1_555 1_555
H97_4 C110_4 1_555 1_555
H99_4 C110_4 1_555 1_555
C112_4 N70_4 1_555 1_555
H101_4 C112_4 1_555 1_555
H103_4 C112_4 1_555 1_555
C114_4 N70_4 1_555 1_555
C116_4 C114_4 1_555 1_555
H105_4 C116_4 1_555 1_555
H107_4 C116_4 1_555 1_555
H109_4 C116_4 1_555 1_555
C118_4 N72_4 1_555 1_555
C120_4 C118_4 1_555 1_555
H111_4 C120_4 1_555 1_555
C122_4 C120_4 1_555 1_555
H113_4 C122_4 1_555 1_555
C124_4 C122_4 1_555 1_555
H115_4 C124_4 1_555 1_555
C126_4 N72_4 1_555 1_555
C128_4 N74_4 1_555 1_555
C130_4 C128_4 1_555 1_555
H117_4 C130_4 1_555 1_555
H119_4 C130_4 1_555 1_555
H121_4 C130_4 1_555 1_555
C132_4 N74_4 1_555 1_555
H123_4 C132_4 1_555 1_555
H125_4 C132_4 1_555 1_555
C134_4 N66_4 1_555 1_555
H127_4 C134_4 1_555 1_555
H129_4 C134_4 1_555 1_555
C136_4 N84_4 1_555 1_555
H131_4 C136_4 1_555 1_555
H133_4 C136_4 1_555 1_555
C138_4 N76_4 1_555 1_555
H135_4 C138_4 1_555 1_555
H137_4 C138_4 1_555 1_555
C140_4 N76_4 1_555 1_555
H139_4 C140_4 1_555 1_555
H141_4 C140_4 1_555 1_555
C142_4 N78_4 1_555 1_555
H143_4 C142_4 1_555 1_555
H145_4 C142_4 1_555 1_555
C144_4 N78_4 1_555 1_555
H147_4 C144_4 1_555 1_555
H149_4 C144_4 1_555 1_555
C146_4 N80_4 1_555 1_555
H151_4 C146_4 1_555 1_555
H153_4 C146_4 1_555 1_555
C148_4 N80_4 1_555 1_555
C150_4 C148_4 1_555 1_555
H155_4 C150_4 1_555 1_555
H157_4 C150_4 1_555 1_555
H159_4 C150_4 1_555 1_555
C152_4 N82_4 1_555 1_555
C154_4 C152_4 1_555 1_555
H161_4 C154_4 1_555 1_555
C156_4 C154_4 1_555 1_555
H163_4 C156_4 1_555 1_555
C158_4 C156_4 1_555 1_555
H165_4 C158_4 1_555 1_555
C160_4 N82_4 1_555 1_555
C162_4 N84_4 1_555 1_555
C164_4 C162_4 1_555 1_555
H167_4 C164_4 1_555 1_555
H169_4 C164_4 1_555 1_555
H171_4 C164_4 1_555 1_555
C166_4 N94_4 1_555 1_555
H173_4 C166_4 1_555 1_555
H175_4 C166_4 1_555 1_555
C168_4 N92_4 1_555 1_555
H177_4 C168_4 1_555 1_555
H179_4 C168_4 1_555 1_555
C170_4 N92_4 1_555 1_555
H181_4 C170_4 1_555 1_555
H183_4 C170_4 1_555 1_555
C172_4 N90_4 1_555 1_555
H185_4 C172_4 1_555 1_555
H187_4 C172_4 1_555 1_555
C174_4 N90_4 1_555 1_555
C176_4 C174_4 1_555 1_555
H189_4 C176_4 1_555 1_555
H191_4 C176_4 1_555 1_555
H193_4 C176_4 1_555 1_555
C178_4 N88_4 1_555 1_555
C180_4 C178_4 1_555 1_555
H195_4 C180_4 1_555 1_555
C182_4 C180_4 1_555 1_555
H197_4 C182_4 1_555 1_555
C184_4 C182_4 1_555 1_555
H199_4 C184_4 1_555 1_555
C186_4 N88_4 1_555 1_555
C188_4 N86_4 1_555 1_555
C190_4 C188_4 1_555 1_555
H201_4 C190_4 1_555 1_555
H203_4 C190_4 1_555 1_555
H205_4 C190_4 1_555 1_555
C192_4 N86_4 1_555 1_555
H207_4 C192_4 1_555 1_555
H209_4 C192_4 1_555 1_555
C194_4 N94_4 1_555 1_555
H211_4 C194_4 1_555 1_555
H213_4 C194_4 1_555 1_555
C214_5 N100_5 1_555 1_555
H233_5 C214_5 1_555 1_555
H235_5 C214_5 1_555 1_555
C216_5 N98_5 1_555 1_555
H237_5 C216_5 1_555 1_555
H239_5 C216_5 1_555 1_555
C218_5 N98_5 1_555 1_555
H241_5 C218_5 1_555 1_555
H243_5 C218_5 1_555 1_555
C220_5 N96_5 1_555 1_555
H245_5 C220_5 1_555 1_555
H247_5 C220_5 1_555 1_555
C222_5 N96_5 1_555 1_555
H249_5 C222_5 1_555 1_555
H251_5 C222_5 1_555 1_555
C224_5 N104_5 1_555 1_555
H253_5 C224_5 1_555 1_555
H255_5 C224_5 1_555 1_555
N4_5 C4_5 1_555 1_555
C15_5 C16_5 1_555 1_555
C28_5 C29_5 1_555 1_555
C30_5 C31_5 1_555 1_555
C32_5 C33_5 1_555 1_555
C34_5 C35_5 1_555 1_555
C36_5 C38_5 1_555 1_555
C41_5 C42_5 1_555 1_555
C42_5 C43_5 1_555 1_555
C45_5 C46_5 1_555 1_555
C47_5 C48_5 1_555 1_555
C49_5 C51_5 1_555 1_555
C54_5 C55_5 1_555 1_555
C55_5 C56_5 1_555 1_555
C58_5 C59_5 1_555 1_555
C60_5 C62_5 1_555 1_555
C65_5 C66_5 1_555 1_555
C66_5 C67_5 1_555 1_555
C69_5 C70_5 1_555 1_555
C71_5 C72_5 1_555 1_555
C73_5 C74_5 1_555 1_555
N42_4 C82_4 1_555 1_555
N45_4 C85_4 1_555 1_555
C106_4 C108_4 1_555 1_555
C110_4 C112_4 1_555 1_555
C114_4 C118_4 1_555 1_555
C124_4 C126_4 1_555 1_555
C126_4 C128_4 1_555 1_555
C132_4 C134_4 1_555 1_555
C136_4 C138_4 1_555 1_555
C140_4 C142_4 1_555 1_555
C144_4 C146_4 1_555 1_555
C148_4 C152_4 1_555 1_555
C158_4 C160_4 1_555 1_555
C160_4 C162_4 1_555 1_555
C166_4 C168_4 1_555 1_555
C170_4 C172_4 1_555 1_555
C174_4 C178_4 1_555 1_555
C184_4 C186_4 1_555 1_555
C186_4 C188_4 1_555 1_555
C192_4 C194_4 1_555 1_555
C214_5 C216_5 1_555 1_555
C218_5 C220_5 1_555 1_555
C222_5 C224_5 1_555 1_555
N20_5 H257_5 1_555 1_555
N21_5 H258_5 1_555 1_555
N28_5 H259_5 1_555 1_555
N29_5 H260_5 1_555 1_555
N30_5 H261_5 1_555 1_555
N15_5 H263_5 1_555 1_555
N31_5 H264_5 1_555 1_555
N66_4 H269_4 1_555 1_555
N92_4 H271_4 1_555 1_555
N96_5 H273_5 1_555 1_555
N76_4 H274_4 1_555 1_555
N78_4 H276_4 1_555 1_555
N68_4 H279_4 1_555 1_555
N94_4 H280_4 1_555 1_555
N98_5 H281_5 1_555 1_555
Mn1_5 O1_5 1_555 1_555
N16_5 Mn1_5 1_555 1_555
N17_5 Mn1_5 1_555 1_555
N18_5 Mn1_5 1_555 1_555
N19_5 Mn1_5 1_555 1_555
C17_5 N16_5 1_555 1_555
H6_5 C17_5 1_555 1_555
C18_5 N17_5 1_555 1_555
H8_5 C18_5 1_555 1_555
H9_5 C18_5 1_555 1_555
C19_5 N17_5 1_555 1_555
C20_5 C19_5 1_555 1_555
H10_5 C20_5 1_555 1_555
H11_5 C20_5 1_555 1_555
H12_5 C20_5 1_555 1_555
C21_5 N18_5 1_555 1_555
C22_5 C21_5 1_555 1_555
H13_5 C22_5 1_555 1_555
C23_5 C22_5 1_555 1_555
H14_5 C23_5 1_555 1_555
C24_5 C23_5 1_555 1_555
H15_5 C24_5 1_555 1_555
C25_5 N18_5 1_555 1_555
C26_5 N19_5 1_555 1_555
C27_5 C26_5 1_555 1_555
H17_5 C27_5 1_555 1_555
H18_5 C27_5 1_555 1_555
Mn14_5 N59_5 1_555 1_555
N55_5 C95_3 1_555 1_555
N59_5 C100_3 1_555 1_555
C198_5 C196_5 1_555 1_555
H217_5 C198_5 1_555 1_555
H219_5 C198_5 1_555 1_555
C200_5 N102_5 1_555 1_555
C202_5 C200_5 1_555 1_555
H221_5 C202_5 1_555 1_555
C204_5 C202_5 1_555 1_555
H223_5 C204_5 1_555 1_555
C206_5 C204_5 1_555 1_555
H225_5 C206_5 1_555 1_555
C208_5 N102_5 1_555 1_555
C212_5 C210_5 1_555 1_555
H227_5 C212_5 1_555 1_555
H229_5 C212_5 1_555 1_555
H231_5 C212_5 1_555 1_555
C17_5 C18_5 1_555 1_555
C19_5 C21_5 1_555 1_555
C24_5 C25_5 1_555 1_555
C25_5 C26_5 1_555 1_555
C196_5 C200_5 1_555 1_555
C206_5 C208_5 1_555 1_555
C208_5 C210_5 1_555 1_555
N16_5 H262_5 1_555 1_555
Mo2_6 C8_6 1_555 1_555
Mn14_3 N10_6 1_555 1_555
N9_6 C9_6 1_555 1_555
N10_6 C10_6 1_555 1_555
N11_6 C11_6 1_555 1_555
N60 C12_6 1_555 1_555
N13_6 C13_6 1_555 1_555
N14_6 C14_6 1_555 1_555
N30_6 Mn14_3 1_555 1_555
N31_6 Mn14_3 1_555 1_555
N32_6 Mn14_3 1_555 1_555
N33_6 Mn14_3 1_555 1_555
N34_6 Mn14_3 1_555 1_555
C8_6 N8_6 1_555 1_555
C9_6 Mo2_6 1_555 1_555
C10_6 Mo2_6 1_555 1_555
C11_6 Mo2_6 1_555 1_555
C12_6 Mo2_6 1_555 1_555
C13_6 Mo2_6 1_555 1_555
C14_6 Mo2_6 1_555 1_555
H41_6 C44_6 1_555 1_555
H42_6 C44_6 1_555 1_555
H43_6 C44_6 1_555 1_555
H61_6 C58_6 1_555 1_555
C60_6 N34_6 1_555 1_555
C61_6 C60_6 1_555 1_555
H65_6 C61_6 1_555 1_555
H66_6 C61_6 1_555 1_555
H67_6 C61_6 1_555 1_555
C62_6 N33_6 1_555 1_555
C63_6 C62_6 1_555 1_555
H68_6 C63_6 1_555 1_555
C64_6 C63_6 1_555 1_555
H69_6 C64_6 1_555 1_555
C65_6 C64_6 1_555 1_555
H70_6 C65_6 1_555 1_555
C66_6 N33_6 1_555 1_555
C67_6 N32_6 1_555 1_555
C68_6 C67_6 1_555 1_555
H72_6 C68_6 1_555 1_555
C69_6 N32_6 1_555 1_555
H75_6 C69_6 1_555 1_555
C70_6 N31_6 1_555 1_555
C71_6 N31_6 1_555 1_555
H78_6 C71_6 1_555 1_555
H79_6 C71_6 1_555 1_555
C72_6 N30_6 1_555 1_555
H80_6 C72_6 1_555 1_555
H81_6 C72_6 1_555 1_555
C73_6 N30_6 1_555 1_555
H82_6 C73_6 1_555 1_555
H83_6 C73_6 1_555 1_555
C74_6 N34_6 1_555 1_555
H84_6 C74_6 1_555 1_555
H85_6 C74_6 1_555 1_555
C60_6 C62_6 1_555 1_555
C65_6 C66_6 1_555 1_555
C66_6 C67_6 1_555 1_555
C69_6 C70_6 1_555 1_555
C71_6 C72_6 1_555 1_555
C73_6 C74_6 1_555 1_555
N29_6 H260_6 1_555 1_555
N30_6 H261_6 1_555 1_555
N31_6 H264_6 1_555 1_555
Mo1_6 C1_6 1_555 1_555
Mn1_6 O1_6 1_555 1_555
Mn9_2 N1_6 1_555 1_555
Mn3_6 N2_6 1_555 1_555
N1_6 C1_6 1_555 1_555
N2_6 C2_6 1_555 1_555
N3_6 C3_6 1_555 1_555
N4_6 Mn1_6 1_555 1_555
N5_6 C5_6 1_555 1_555
N47_4 C6_6 1_555 1_555
N7_6 C7_6 1_555 1_555
N15_6 Mn1_6 1_555 1_555
N16_6 Mn1_6 1_555 1_555
N17_6 Mn1_6 1_555 1_555
N18_6 Mn1_6 1_555 1_555
N19_6 Mn1_6 1_555 1_555
N20_6 Mn9_2 1_555 1_555
N21_6 Mn9_2 1_555 1_555
N22_6 Mn9_2 1_555 1_555
N23_6 Mn9_2 1_555 1_555
N24_6 Mn9_2 1_555 1_555
N25_6 Mn3_6 1_555 1_555
N26_6 Mn3_6 1_555 1_555
N27_6 Mn3_6 1_555 1_555
N28_6 Mn3_6 1_555 1_555
C2_6 Mo1_6 1_555 1_555
C3_6 Mo1_6 1_555 1_555
C4_6 Mo1_6 1_555 1_555
C5_6 Mo1_6 1_555 1_555
C6_6 Mo1_6 1_555 1_555
C7_6 Mo1_6 1_555 1_555
C15_6 N15_6 1_555 1_555
H2_6 C15_6 1_555 1_555
H3_6 C15_6 1_555 1_555
C16_6 N16_6 1_555 1_555
H4_6 C16_6 1_555 1_555
H5_6 C16_6 1_555 1_555
C17_6 N16_6 1_555 1_555
H6_6 C17_6 1_555 1_555
H7_6 C17_6 1_555 1_555
C18_6 N17_6 1_555 1_555
H8_6 C18_6 1_555 1_555
H9_6 C18_6 1_555 1_555
C19_6 N17_6 1_555 1_555
C20_6 C19_6 1_555 1_555
H10_6 C20_6 1_555 1_555
H11_6 C20_6 1_555 1_555
H12_6 C20_6 1_555 1_555
C21_6 N18_6 1_555 1_555
C22_6 C21_6 1_555 1_555
H13_6 C22_6 1_555 1_555
C23_6 C22_6 1_555 1_555
H14_6 C23_6 1_555 1_555
C24_6 C23_6 1_555 1_555
H15_6 C24_6 1_555 1_555
C25_6 N18_6 1_555 1_555
C26_6 N19_6 1_555 1_555
C27_6 C26_6 1_555 1_555
H16_6 C27_6 1_555 1_555
H17_6 C27_6 1_555 1_555
H18_6 C27_6 1_555 1_555
C28_6 N19_6 1_555 1_555
H19_6 C28_6 1_555 1_555
H20_6 C28_6 1_555 1_555
C29_6 N15_6 1_555 1_555
H21_6 C29_6 1_555 1_555
H22_6 C29_6 1_555 1_555
C30_6 N24_6 1_555 1_555
C31_6 N20_6 1_555 1_555
H25_6 C31_6 1_555 1_555
H26_6 C31_6 1_555 1_555
C32_6 N20_6 1_555 1_555
H27_6 C32_6 1_555 1_555
H28_6 C32_6 1_555 1_555
C33_6 N21_6 1_555 1_555
H29_6 C33_6 1_555 1_555
H30_6 C33_6 1_555 1_555
C34_6 N21_6 1_555 1_555
H31_6 C34_6 1_555 1_555
H32_6 C34_6 1_555 1_555
C35_6 N22_6 1_555 1_555
H33_6 C35_6 1_555 1_555
H34_6 C35_6 1_555 1_555
C36_6 N22_6 1_555 1_555
C37_6 C36_6 1_555 1_555
H35_6 C37_6 1_555 1_555
H36_6 C37_6 1_555 1_555
H37_6 C37_6 1_555 1_555
C38_6 N23_6 1_555 1_555
C39_6 C38_6 1_555 1_555
H38_6 C39_6 1_555 1_555
C40_6 C39_6 1_555 1_555
H39_6 C40_6 1_555 1_555
C41_6 C40_6 1_555 1_555
C42_6 N23_6 1_555 1_555
C43_6 N24_6 1_555 1_555
H45_6 C45_6 1_555 1_555
C46_6 N28_6 1_555 1_555
H47_6 C46_6 1_555 1_555
C47_6 N28_6 1_555 1_555
H48_6 C47_6 1_555 1_555
H49_6 C47_6 1_555 1_555
C48_6 N27_6 1_555 1_555
H50_6 C48_6 1_555 1_555
H51_6 C48_6 1_555 1_555
C49_6 N27_6 1_555 1_555
C50_6 C49_6 1_555 1_555
H52_6 C50_6 1_555 1_555
H53_6 C50_6 1_555 1_555
H54_6 C50_6 1_555 1_555
C51_6 N26_6 1_555 1_555
C52_6 C51_6 1_555 1_555
H55_6 C52_6 1_555 1_555
C53_6 C52_6 1_555 1_555
H56_6 C53_6 1_555 1_555
C54_6 C53_6 1_555 1_555
H57_6 C54_6 1_555 1_555
C55_6 N26_6 1_555 1_555
C56_6 N25_6 1_555 1_555
C57_6 C56_6 1_555 1_555
H58_6 C57_6 1_555 1_555
H59_6 C57_6 1_555 1_555
H63_6 C59_6 1_555 1_555
Mn13_6 N55_6 1_555 1_555
Mn14_6 N59_6 1_555 1_555
N55_6 C95_4 1_555 1_555
N59_6 C100_4 1_555 1_555
N60_6 Mn13_6 1_555 1_555
N96_6 Mn13_6 1_555 1_555
N98_6 Mn13_6 1_555 1_555
N100_6 Mn13_6 1_555 1_555
N102_6 Mn13_6 1_555 1_555
N104_6 Mn13_6 1_555 1_555
C196_6 N104_6 1_555 1_555
C198_6 C196_6 1_555 1_555
H215_6 C198_6 1_555 1_555
H217_6 C198_6 1_555 1_555
H219_6 C198_6 1_555 1_555
C200_6 N102_6 1_555 1_555
C202_6 C200_6 1_555 1_555
H221_6 C202_6 1_555 1_555
C204_6 C202_6 1_555 1_555
H223_6 C204_6 1_555 1_555
C206_6 C204_6 1_555 1_555
H225_6 C206_6 1_555 1_555
C208_6 N102_6 1_555 1_555
C210_6 N100_6 1_555 1_555
C212_6 C210_6 1_555 1_555
H227_6 C212_6 1_555 1_555
H229_6 C212_6 1_555 1_555
H231_6 C212_6 1_555 1_555
C214_6 N100_6 1_555 1_555
H233_6 C214_6 1_555 1_555
H235_6 C214_6 1_555 1_555
C216_6 N98_6 1_555 1_555
H237_6 C216_6 1_555 1_555
H239_6 C216_6 1_555 1_555
C218_6 N98_6 1_555 1_555
H241_6 C218_6 1_555 1_555
H243_6 C218_6 1_555 1_555
C220_6 N96_6 1_555 1_555
H245_6 C220_6 1_555 1_555
H247_6 C220_6 1_555 1_555
C222_6 N96_6 1_555 1_555
H249_6 C222_6 1_555 1_555
H251_6 C222_6 1_555 1_555
C224_6 N104_6 1_555 1_555
H253_6 C224_6 1_555 1_555
H255_6 C224_6 1_555 1_555
N4_6 C4_6 1_555 1_555
C15_6 C16_6 1_555 1_555
C17_6 C18_6 1_555 1_555
C19_6 C21_6 1_555 1_555
C24_6 C25_6 1_555 1_555
C25_6 C26_6 1_555 1_555
C28_6 C29_6 1_555 1_555
C30_6 C31_6 1_555 1_555
C32_6 C33_6 1_555 1_555
C34_6 C35_6 1_555 1_555
C36_6 C38_6 1_555 1_555
C41_6 C42_6 1_555 1_555
C42_6 C43_6 1_555 1_555
C45_6 C46_6 1_555 1_555
C47_6 C48_6 1_555 1_555
C49_6 C51_6 1_555 1_555
C54_6 C55_6 1_555 1_555
C55_6 C56_6 1_555 1_555
C196_6 C200_6 1_555 1_555
C206_6 C208_6 1_555 1_555
C208_6 C210_6 1_555 1_555
C214_6 C216_6 1_555 1_555
C218_6 C220_6 1_555 1_555
C222_6 C224_6 1_555 1_555
N20_6 H257_6 1_555 1_555
N21_6 H258_6 1_555 1_555
N28_6 H259_6 1_555 1_555
N16_6 H262_6 1_555 1_555
N15_6 H263_6 1_555 1_555
N96_6 H273_6 1_555 1_555
N98_6 H281_6 1_555 1_555
Mn5_3 O2_3 1_555 1_555
N67_3 Mn5_3 1_555 1_555
N69_3 Mn5_3 1_555 1_555
N71_3 Mn5_3 1_555 1_555
N73_3 Mn5_3 1_555 1_555
C109_3 N67_3 1_555 1_555
H96_3 C109_3 1_555 1_555
C111_3 N69_3 1_555 1_555
H100_3 C111_3 1_555 1_555
H102_3 C111_3 1_555 1_555
C113_3 N69_3 1_555 1_555
C115_3 C113_3 1_555 1_555
H104_3 C115_3 1_555 1_555
H106_3 C115_3 1_555 1_555
H108_3 C115_3 1_555 1_555
C117_3 N71_3 1_555 1_555
C119_3 C117_3 1_555 1_555
H110_3 C119_3 1_555 1_555
C121_3 C119_3 1_555 1_555
H112_3 C121_3 1_555 1_555
C123_3 C121_3 1_555 1_555
H114_3 C123_3 1_555 1_555
C125_3 N71_3 1_555 1_555
C127_3 N73_3 1_555 1_555
C129_3 C127_3 1_555 1_555
H118_3 C129_3 1_555 1_555
H120_3 C129_3 1_555 1_555
C109_3 C111_3 1_555 1_555
C113_3 C117_3 1_555 1_555
C123_3 C125_3 1_555 1_555
C125_3 C127_3 1_555 1_555
N67_3 H278_3 1_555 1_555
Mo1_7 C1_7 1_555 1_555
Mo2_7 C8_7 1_555 1_555
Mn1_7 O1_7 1_555 1_555
Mn2_5 N1_7 1_555 1_555
Mn3_7 N2_7 1_555 1_555
Mn14_4 N10_7 1_555 1_555
N1_7 C1_7 1_555 1_555
N2_7 C2_7 1_555 1_555
N3_7 C3_7 1_555 1_555
N4_7 Mn1_7 1_555 1_555
N5_7 C5_7 1_555 1_555
N6_3 C6_7 1_555 1_555
N7_7 C7_7 1_555 1_555
N8_7 Mn3_7 1_555 1_555
N9_7 C9_7 1_555 1_555
N10_7 C10_7 1_555 1_555
N11_7 C11_7 1_555 1_555
N60_5 C12_7 1_555 1_555
N13_7 C13_7 1_555 1_555
N14_7 C14_7 1_555 1_555
N15_7 Mn1_7 1_555 1_555
N16_7 Mn1_7 1_555 1_555
N17_7 Mn1_7 1_555 1_555
N18_7 Mn1_7 1_555 1_555
N19_7 Mn1_7 1_555 1_555
N20_7 Mn2_5 1_555 1_555
N21_7 Mn2_5 1_555 1_555
N22_7 Mn2_5 1_555 1_555
N23_7 Mn2_5 1_555 1_555
N24_7 Mn2_5 1_555 1_555
N25_7 Mn3_7 1_555 1_555
N26_7 Mn3_7 1_555 1_555
N27_7 Mn3_7 1_555 1_555
N28_7 Mn3_7 1_555 1_555
N29_7 Mn3_7 1_555 1_555
N30_7 Mn14_4 1_555 1_555
N31_7 Mn14_4 1_555 1_555
N32_7 Mn14_4 1_555 1_555
N33_7 Mn14_4 1_555 1_555
N34_7 Mn14_4 1_555 1_555
C2_7 Mo1_7 1_555 1_555
C3_7 Mo1_7 1_555 1_555
C4_7 Mo1_7 1_555 1_555
C5_7 Mo1_7 1_555 1_555
C6_7 Mo1_7 1_555 1_555
C7_7 Mo1_7 1_555 1_555
C8_7 N8_7 1_555 1_555
C9_7 Mo2_7 1_555 1_555
C10_7 Mo2_7 1_555 1_555
C11_7 Mo2_7 1_555 1_555
C12_7 Mo2_7 1_555 1_555
C13_7 Mo2_7 1_555 1_555
C14_7 Mo2_7 1_555 1_555
C15_7 N15_7 1_555 1_555
H2_7 C15_7 1_555 1_555
H3_7 C15_7 1_555 1_555
C16_7 N16_7 1_555 1_555
H4_7 C16_7 1_555 1_555
H5_7 C16_7 1_555 1_555
C17_7 N16_7 1_555 1_555
H6_7 C17_7 1_555 1_555
H7_7 C17_7 1_555 1_555
C18_7 N17_7 1_555 1_555
H8_7 C18_7 1_555 1_555
H9_7 C18_7 1_555 1_555
C19_7 N17_7 1_555 1_555
C20_7 C19_7 1_555 1_555
H10_7 C20_7 1_555 1_555
H11_7 C20_7 1_555 1_555
H12_7 C20_7 1_555 1_555
C21_7 N18_7 1_555 1_555
C22_7 C21_7 1_555 1_555
H13_7 C22_7 1_555 1_555
C23_7 C22_7 1_555 1_555
H14_7 C23_7 1_555 1_555
C24_7 C23_7 1_555 1_555
H15_7 C24_7 1_555 1_555
C25_7 N18_7 1_555 1_555
C26_7 N19_7 1_555 1_555
C27_7 C26_7 1_555 1_555
H16_7 C27_7 1_555 1_555
H17_7 C27_7 1_555 1_555
H18_7 C27_7 1_555 1_555
C28_7 N19_7 1_555 1_555
H19_7 C28_7 1_555 1_555
H20_7 C28_7 1_555 1_555
C29_7 N15_7 1_555 1_555
H21_7 C29_7 1_555 1_555
H22_7 C29_7 1_555 1_555
C30_7 N24_7 1_555 1_555
H23_7 C30_7 1_555 1_555
H24_7 C30_7 1_555 1_555
C31_7 N20_7 1_555 1_555
H25_7 C31_7 1_555 1_555
H26_7 C31_7 1_555 1_555
C32_7 N20_7 1_555 1_555
H27_7 C32_7 1_555 1_555
H28_7 C32_7 1_555 1_555
C33_7 N21_7 1_555 1_555
H29_7 C33_7 1_555 1_555
H30_7 C33_7 1_555 1_555
C34_7 N21_7 1_555 1_555
H31_7 C34_7 1_555 1_555
H32_7 C34_7 1_555 1_555
C35_7 N22_7 1_555 1_555
H33_7 C35_7 1_555 1_555
H34_7 C35_7 1_555 1_555
C36_7 N22_7 1_555 1_555
C37_7 C36_7 1_555 1_555
H35_7 C37_7 1_555 1_555
H36_7 C37_7 1_555 1_555
H37_7 C37_7 1_555 1_555
C38_7 N23_7 1_555 1_555
C39_7 C38_7 1_555 1_555
H38_7 C39_7 1_555 1_555
C40_7 C39_7 1_555 1_555
H39_7 C40_7 1_555 1_555
C41_7 C40_7 1_555 1_555
H40_7 C41_7 1_555 1_555
C42_7 N23_7 1_555 1_555
C43_7 N24_7 1_555 1_555
C44_7 C43_7 1_555 1_555
H41_7 C44_7 1_555 1_555
H42_7 C44_7 1_555 1_555
H43_7 C44_7 1_555 1_555
C45_7 N29_7 1_555 1_555
H44_7 C45_7 1_555 1_555
H45_7 C45_7 1_555 1_555
C46_7 N28_7 1_555 1_555
H46_7 C46_7 1_555 1_555
H47_7 C46_7 1_555 1_555
C47_7 N28_7 1_555 1_555
H48_7 C47_7 1_555 1_555
H49_7 C47_7 1_555 1_555
C48_7 N27_7 1_555 1_555
H50_7 C48_7 1_555 1_555
H51_7 C48_7 1_555 1_555
C49_7 N27_7 1_555 1_555
C50_7 C49_7 1_555 1_555
H52_7 C50_7 1_555 1_555
H53_7 C50_7 1_555 1_555
H54_7 C50_7 1_555 1_555
C51_7 N26_7 1_555 1_555
C52_7 C51_7 1_555 1_555
H55_7 C52_7 1_555 1_555
C53_7 C52_7 1_555 1_555
H56_7 C53_7 1_555 1_555
C54_7 C53_7 1_555 1_555
H57_7 C54_7 1_555 1_555
C55_7 N26_7 1_555 1_555
C56_7 N25_7 1_555 1_555
C57_7 C56_7 1_555 1_555
H58_7 C57_7 1_555 1_555
H59_7 C57_7 1_555 1_555
H60_7 C57_7 1_555 1_555
C58_7 N25_7 1_555 1_555
H61_7 C58_7 1_555 1_555
H62_7 C58_7 1_555 1_555
C59_7 N29_7 1_555 1_555
H63_7 C59_7 1_555 1_555
H64_7 C59_7 1_555 1_555
C60_7 N34_7 1_555 1_555
C61_7 C60_7 1_555 1_555
H65_7 C61_7 1_555 1_555
H66_7 C61_7 1_555 1_555
H67_7 C61_7 1_555 1_555
C62_7 N33_7 1_555 1_555
C63_7 C62_7 1_555 1_555
H68_7 C63_7 1_555 1_555
C64_7 C63_7 1_555 1_555
H69_7 C64_7 1_555 1_555
C65_7 C64_7 1_555 1_555
H70_7 C65_7 1_555 1_555
C66_7 N33_7 1_555 1_555
C67_7 N32_7 1_555 1_555
C68_7 C67_7 1_555 1_555
H71_7 C68_7 1_555 1_555
H72_7 C68_7 1_555 1_555
H73_7 C68_7 1_555 1_555
C69_7 N32_7 1_555 1_555
H74_7 C69_7 1_555 1_555
H75_7 C69_7 1_555 1_555
C70_7 N31_7 1_555 1_555
H76_7 C70_7 1_555 1_555
H77_7 C70_7 1_555 1_555
C71_7 N31_7 1_555 1_555
H78_7 C71_7 1_555 1_555
H79_7 C71_7 1_555 1_555
C72_7 N30_7 1_555 1_555
H80_7 C72_7 1_555 1_555
H81_7 C72_7 1_555 1_555
C73_7 N30_7 1_555 1_555
H82_7 C73_7 1_555 1_555
H83_7 C73_7 1_555 1_555
C74_7 N34_7 1_555 1_555
H84_7 C74_7 1_555 1_555
H85_7 C74_7 1_555 1_555
Mo3_3 C75_3 1_555 1_555
Mo4_5 C76_5 1_555 1_555
Mo7 C89_3 1_555 1_555
Mn6_5 O3_5 1_555 1_555
Mn7_3 N6_3 1_555 1_555
Mn8_5 N36_5 1_555 1_555
Mn9_3 N46_3 1_555 1_555
Mn10_3 N37_3 1_555 1_555
Mn11_5 N38_5 1_555 1_555
N35_3 Mn7_3 1_555 1_555
N36_5 C76_5 1_555 1_555
N37_3 C77_3 1_555 1_555
N38_5 C78_5 1_555 1_555
N39_3 C79_3 1_555 1_555
N40_5 C80_5 1_555 1_555
N42_5 Mn6_5 1_555 1_555
N43_3 C83_3 1_555 1_555
N44_5 C84_5 1_555 1_555
N45_5 Mn2_5 1_555 1_555
N46_3 C86_3 1_555 1_555
N47_5 Mn8_5 1_555 1_555
N48_3 C87_3 1_555 1_555
N49_5 C88_5 1_555 1_555
N50_3 Mn10_3 1_555 1_555
N52_3 C91_3 1_555 1_555
N56_3 C96_3 1_555 1_555
N61_3 C101_3 1_555 1_555
N63_3 C103_3 1_555 1_555
N66_5 Mn6_5 1_555 1_555
N68_5 Mn6_5 1_555 1_555
N70_5 Mn6_5 1_555 1_555
N72_5 Mn6_5 1_555 1_555
N74_5 Mn6_5 1_555 1_555
N75_3 Mn7_3 1_555 1_555
N76_5 Mn8_5 1_555 1_555
N77_3 Mn7_3 1_555 1_555
N78_5 Mn8_5 1_555 1_555
N79_3 Mn7_3 1_555 1_555
N80_5 Mn8_5 1_555 1_555
N81_3 Mn7_3 1_555 1_555
N82_5 Mn8_5 1_555 1_555
N83_3 Mn7_3 1_555 1_555
N84_5 Mn8_5 1_555 1_555
N85_3 Mn10_3 1_555 1_555
N86_5 Mn11_5 1_555 1_555
N87_3 Mn10_3 1_555 1_555
N88_5 Mn11_5 1_555 1_555
N89_3 Mn10_3 1_555 1_555
N90_5 Mn11_5 1_555 1_555
N91_3 Mn10_3 1_555 1_555
N92_5 Mn11_5 1_555 1_555
N93_3 Mn10_3 1_555 1_555
C75_3 N35_3 1_555 1_555
C77_3 Mo3_3 1_555 1_555
C78_5 Mo4_5 1_555 1_555
C79_3 Mo3_3 1_555 1_555
C80_5 Mo4_5 1_555 1_555
C81_3 Mo3_3 1_555 1_555
C82_5 Mo4_5 1_555 1_555
C83_3 Mo3_3 1_555 1_555
C84_5 Mo4_5 1_555 1_555
C85_5 Mo4_5 1_555 1_555
C86_3 Mo3_3 1_555 1_555
C87_3 Mo3_3 1_555 1_555
C88_5 Mo4_5 1_555 1_555
C89_3 N50_3 1_555 1_555
C91_3 Mo7 1_555 1_555
C96_3 Mo7 1_555 1_555
C101_3 Mo7 1_555 1_555
C103_3 Mo7 1_555 1_555
C105_3 N65_3 1_555 1_555
C106_5 N66_5 1_555 1_555
H88_3 C105_3 1_555 1_555
H89_5 C106_5 1_555 1_555
H90_3 C105_3 1_555 1_555
H91_5 C106_5 1_555 1_555
C108_5 N68_5 1_555 1_555
H92_3 C107_3 1_555 1_555
H93_5 C108_5 1_555 1_555
H94_3 C107_3 1_555 1_555
H95_5 C108_5 1_555 1_555
C110_5 N68_5 1_555 1_555
H97_5 C110_5 1_555 1_555
H99_5 C110_5 1_555 1_555
C112_5 N70_5 1_555 1_555
H101_5 C112_5 1_555 1_555
H103_5 C112_5 1_555 1_555
C114_5 N70_5 1_555 1_555
C116_5 C114_5 1_555 1_555
H105_5 C116_5 1_555 1_555
H107_5 C116_5 1_555 1_555
H109_5 C116_5 1_555 1_555
C118_5 N72_5 1_555 1_555
C120_5 C118_5 1_555 1_555
H111_5 C120_5 1_555 1_555
C122_5 C120_5 1_555 1_555
H113_5 C122_5 1_555 1_555
C124_5 C122_5 1_555 1_555
H115_5 C124_5 1_555 1_555
C126_5 N72_5 1_555 1_555
C128_5 N74_5 1_555 1_555
C130_5 C128_5 1_555 1_555
H117_5 C130_5 1_555 1_555
H119_5 C130_5 1_555 1_555
H121_5 C130_5 1_555 1_555
C132_5 N74_5 1_555 1_555
H122_3 C131_3 1_555 1_555
H123_5 C132_5 1_555 1_555
H124_3 C131_3 1_555 1_555
H125_5 C132_5 1_555 1_555
C133_3 N65_3 1_555 1_555
C134_5 N66_5 1_555 1_555
H126_3 C133_3 1_555 1_555
H127_5 C134_5 1_555 1_555
H128_3 C133_3 1_555 1_555
H129_5 C134_5 1_555 1_555
C135_3 N83_3 1_555 1_555
C136_5 N84_5 1_555 1_555
H130_3 C135_3 1_555 1_555
H132_3 C135_3 1_555 1_555
C137_3 N75_3 1_555 1_555
C138_5 N76_5 1_555 1_555
H134_3 C137_3 1_555 1_555
H135_5 C138_5 1_555 1_555
H136_3 C137_3 1_555 1_555
H137_5 C138_5 1_555 1_555
C139_3 N75_3 1_555 1_555
C140_5 N76_5 1_555 1_555
H138_3 C139_3 1_555 1_555
H139_5 C140_5 1_555 1_555
H140_3 C139_3 1_555 1_555
H141_5 C140_5 1_555 1_555
C141_3 N77_3 1_555 1_555
C142_5 N78_5 1_555 1_555
H142_3 C141_3 1_555 1_555
H143_5 C142_5 1_555 1_555
H144_3 C141_3 1_555 1_555
H145_5 C142_5 1_555 1_555
C143_3 N77_3 1_555 1_555
C144_5 N78_5 1_555 1_555
H146_3 C143_3 1_555 1_555
H147_5 C144_5 1_555 1_555
H148_3 C143_3 1_555 1_555
H149_5 C144_5 1_555 1_555
C145_3 N79_3 1_555 1_555
C146_5 N80_5 1_555 1_555
H150_3 C145_3 1_555 1_555
H151_5 C146_5 1_555 1_555
H152_3 C145_3 1_555 1_555
H153_5 C146_5 1_555 1_555
C147_3 N79_3 1_555 1_555
C148_5 N80_5 1_555 1_555
C149_3 C147_3 1_555 1_555
C150_5 C148_5 1_555 1_555
H154_3 C149_3 1_555 1_555
H155_5 C150_5 1_555 1_555
H156_3 C149_3 1_555 1_555
H157_5 C150_5 1_555 1_555
H158_3 C149_3 1_555 1_555
H159_5 C150_5 1_555 1_555
C151_3 N81_3 1_555 1_555
C152_5 N82_5 1_555 1_555
C153_3 C151_3 1_555 1_555
C154_5 C152_5 1_555 1_555
H160_3 C153_3 1_555 1_555
H161_5 C154_5 1_555 1_555
C155_3 C153_3 1_555 1_555
C156_5 C154_5 1_555 1_555
H162_3 C155_3 1_555 1_555
H163_5 C156_5 1_555 1_555
C157_3 C155_3 1_555 1_555
C158_5 C156_5 1_555 1_555
H164_3 C157_3 1_555 1_555
C159_3 N81_3 1_555 1_555
C160_5 N82_5 1_555 1_555
C161_3 N83_3 1_555 1_555
C162_5 N84_5 1_555 1_555
C163_3 C161_3 1_555 1_555
H166_3 C163_3 1_555 1_555
H168_3 C163_3 1_555 1_555
H170_3 C163_3 1_555 1_555
C165_3 N93_3 1_555 1_555
H172_3 C165_3 1_555 1_555
H174_3 C165_3 1_555 1_555
H175_5 C166_5 1_555 1_555
C167_3 N91_3 1_555 1_555
C168_5 N92_5 1_555 1_555
H176_3 C167_3 1_555 1_555
H178_3 C167_3 1_555 1_555
H179_5 C168_5 1_555 1_555
C169_3 N91_3 1_555 1_555
C170_5 N92_5 1_555 1_555
H180_3 C169_3 1_555 1_555
H181_5 C170_5 1_555 1_555
H182_3 C169_3 1_555 1_555
H183_5 C170_5 1_555 1_555
C171_3 N89_3 1_555 1_555
C172_5 N90_5 1_555 1_555
H184_3 C171_3 1_555 1_555
H185_5 C172_5 1_555 1_555
H186_3 C171_3 1_555 1_555
H187_5 C172_5 1_555 1_555
C173_3 N89_3 1_555 1_555
C174_5 N90_5 1_555 1_555
C175_3 C173_3 1_555 1_555
C176_5 C174_5 1_555 1_555
H188_3 C175_3 1_555 1_555
H189_5 C176_5 1_555 1_555
H190_3 C175_3 1_555 1_555
H191_5 C176_5 1_555 1_555
H192_3 C175_3 1_555 1_555
H193_5 C176_5 1_555 1_555
C177_3 N87_3 1_555 1_555
C178_5 N88_5 1_555 1_555
C179_3 C177_3 1_555 1_555
C180_5 C178_5 1_555 1_555
H194_3 C179_3 1_555 1_555
H195_5 C180_5 1_555 1_555
C181_3 C179_3 1_555 1_555
C182_5 C180_5 1_555 1_555
H196_3 C181_3 1_555 1_555
H197_5 C182_5 1_555 1_555
C183_3 C181_3 1_555 1_555
C184_5 C182_5 1_555 1_555
H198_3 C183_3 1_555 1_555
H199_5 C184_5 1_555 1_555
C185_3 N87_3 1_555 1_555
C186_5 N88_5 1_555 1_555
C187_3 N85_3 1_555 1_555
C188_5 N86_5 1_555 1_555
C189_3 C187_3 1_555 1_555
C190_5 C188_5 1_555 1_555
H200_3 C189_3 1_555 1_555
H201_5 C190_5 1_555 1_555
H202_3 C189_3 1_555 1_555
H203_5 C190_5 1_555 1_555
H204_3 C189_3 1_555 1_555
C191_3 N85_3 1_555 1_555
H206_3 C191_3 1_555 1_555
H208_3 C191_3 1_555 1_555
C193_3 N93_3 1_555 1_555
H210_3 C193_3 1_555 1_555
H211_5 C194_5 1_555 1_555
H212_3 C193_3 1_555 1_555
N4_7 C4_7 1_555 1_555
C15_7 C16_7 1_555 1_555
C17_7 C18_7 1_555 1_555
C19_7 C21_7 1_555 1_555
C24_7 C25_7 1_555 1_555
C25_7 C26_7 1_555 1_555
C28_7 C29_7 1_555 1_555
C30_7 C31_7 1_555 1_555
C32_7 C33_7 1_555 1_555
C34_7 C35_7 1_555 1_555
C36_7 C38_7 1_555 1_555
C41_7 C42_7 1_555 1_555
C42_7 C43_7 1_555 1_555
C45_7 C46_7 1_555 1_555
C47_7 C48_7 1_555 1_555
C49_7 C51_7 1_555 1_555
C54_7 C55_7 1_555 1_555
C55_7 C56_7 1_555 1_555
C58_7 C59_7 1_555 1_555
C60_7 C62_7 1_555 1_555
C65_7 C66_7 1_555 1_555
C66_7 C67_7 1_555 1_555
C69_7 C70_7 1_555 1_555
C71_7 C72_7 1_555 1_555
C73_7 C74_7 1_555 1_555
N41_3 C81_3 1_555 1_555
N42_5 C82_5 1_555 1_555
N45_5 C85_5 1_555 1_555
C105_3 C107_3 1_555 1_555
C106_5 C108_5 1_555 1_555
C110_5 C112_5 1_555 1_555
C114_5 C118_5 1_555 1_555
C124_5 C126_5 1_555 1_555
C126_5 C128_5 1_555 1_555
C131_3 C133_3 1_555 1_555
C132_5 C134_5 1_555 1_555
C135_3 C137_3 1_555 1_555
C136_5 C138_5 1_555 1_555
C139_3 C141_3 1_555 1_555
C140_5 C142_5 1_555 1_555
C143_3 C145_3 1_555 1_555
C144_5 C146_5 1_555 1_555
C147_3 C151_3 1_555 1_555
C148_5 C152_5 1_555 1_555
C157_3 C159_3 1_555 1_555
C158_5 C160_5 1_555 1_555
C159_3 C161_3 1_555 1_555
C160_5 C162_5 1_555 1_555
C165_3 C167_3 1_555 1_555
C166_5 C168_5 1_555 1_555
C169_3 C171_3 1_555 1_555
C170_5 C172_5 1_555 1_555
C173_3 C177_3 1_555 1_555
C174_5 C178_5 1_555 1_555
C183_3 C185_3 1_555 1_555
C184_5 C186_5 1_555 1_555
C185_3 C187_3 1_555 1_555
C186_5 C188_5 1_555 1_555
C191_3 C193_3 1_555 1_555
N20_7 H257_7 1_555 1_555
N21_7 H258_7 1_555 1_555
N28_7 H259_7 1_555 1_555
N29_7 H260_7 1_555 1_555
N30_7 H261_7 1_555 1_555
N16_7 H262_7 1_555 1_555
N15_7 H263_7 1_555 1_555
N31_7 H264_7 1_555 1_555
N75_3 H267_3 1_555 1_555
N77_3 H268_3 1_555 1_555
N66_5 H269_5 1_555 1_555
N91_3 H270_3 1_555 1_555
N92_5 H271_5 1_555 1_555
N93_3 H272_3 1_555 1_555
N76_5 H274_5 1_555 1_555
N65_3 H275_3 1_555 1_555
N78_5 H276_5 1_555 1_555
N68_5 H279_5 1_555 1_555
Mo8 C90_5 1_555 1_555
N53_5 C92_5 1_555 1_555
N57_5 C97_5 1_555 1_555
N62_5 C102_5 1_555 1_555
N64_5 C104_5 1_555 1_555
C90_5 N51_5 1_555 1_555
C92_5 Mo8 1_555 1_555
C97_5 Mo8 1_555 1_555
C102_5 Mo8 1_555 1_555
C104_5 Mo8 1_555 1_555
H167_5 C164_5 1_555 1_555
H169_5 C164_5 1_555 1_555
H171_5 C164_5 1_555 1_555
H207_5 C192_5 1_555 1_555
N94_5 H280_5 1_555 1_555
Mo8_2 C90_6 1_555 1_555
N53_6 C92_6 1_555 1_555
N57_6 C97_6 1_555 1_555
N62_6 C102_6 1_555 1_555
N64_6 C104_6 1_555 1_555
C90_6 N51_6 1_555 1_555
C92_6 Mo8_2 1_555 1_555
C97_6 Mo8_2 1_555 1_555
C102_6 Mo8_2 1_555 1_555
C104_6 Mo8_2 1_555 1_555
H167_6 C164_6 1_555 1_555
H169_6 C164_6 1_555 1_555
H171_6 C164_6 1_555 1_555
H207_6 C192_6 1_555 1_555
N94_6 H280_6 1_555 1_555
Mo1_8 C1_8 1_555 1_555
Mn2_6 N1_8 1_555 1_555
N1_8 C1_8 1_555 1_555
N5_8 C5_8 1_555 1_555
N47_5 C6_8 1_555 1_555
N7_8 C7_8 1_555 1_555
N20_8 Mn2_6 1_555 1_555
N21_8 Mn2_6 1_555 1_555
N22_8 Mn2_6 1_555 1_555
N23_8 Mn2_6 1_555 1_555
N24_8 Mn2_6 1_555 1_555
N30_8 Mn14_5 1_555 1_555
N31_8 Mn14_5 1_555 1_555
N32_8 Mn14_5 1_555 1_555
N34_8 Mn14_5 1_555 1_555
C5_8 Mo1_8 1_555 1_555
C6_8 Mo1_8 1_555 1_555
C7_8 Mo1_8 1_555 1_555
C30_8 N24_8 1_555 1_555
H24_8 C30_8 1_555 1_555
C31_8 N20_8 1_555 1_555
H25_8 C31_8 1_555 1_555
H26_8 C31_8 1_555 1_555
C32_8 N20_8 1_555 1_555
H27_8 C32_8 1_555 1_555
H28_8 C32_8 1_555 1_555
C33_8 N21_8 1_555 1_555
H29_8 C33_8 1_555 1_555
H30_8 C33_8 1_555 1_555
C34_8 N21_8 1_555 1_555
H31_8 C34_8 1_555 1_555
H32_8 C34_8 1_555 1_555
C35_8 N22_8 1_555 1_555
H33_8 C35_8 1_555 1_555
H34_8 C35_8 1_555 1_555
C36_8 N22_8 1_555 1_555
C37_8 C36_8 1_555 1_555
H35_8 C37_8 1_555 1_555
H36_8 C37_8 1_555 1_555
H37_8 C37_8 1_555 1_555
C38_8 N23_8 1_555 1_555
C39_8 C38_8 1_555 1_555
H38_8 C39_8 1_555 1_555
C40_8 C39_8 1_555 1_555
H39_8 C40_8 1_555 1_555
C41_8 C40_8 1_555 1_555
H40_8 C41_8 1_555 1_555
C42_8 N23_8 1_555 1_555
C43_8 N24_8 1_555 1_555
C44_8 C43_8 1_555 1_555
H41_8 C44_8 1_555 1_555
H42_8 C44_8 1_555 1_555
H43_8 C44_8 1_555 1_555
H48_8 C47_8 1_555 1_555
H49_8 C47_8 1_555 1_555
C48_8 N27_8 1_555 1_555
H50_8 C48_8 1_555 1_555
H51_8 C48_8 1_555 1_555
C49_8 N27_8 1_555 1_555
C50_8 C49_8 1_555 1_555
H52_8 C50_8 1_555 1_555
H53_8 C50_8 1_555 1_555
H54_8 C50_8 1_555 1_555
H55_8 C52_8 1_555 1_555
C69_8 N32_8 1_555 1_555
H74_8 C69_8 1_555 1_555
H75_8 C69_8 1_555 1_555
C70_8 N31_8 1_555 1_555
H76_8 C70_8 1_555 1_555
H77_8 C70_8 1_555 1_555
C71_8 N31_8 1_555 1_555
H78_8 C71_8 1_555 1_555
H79_8 C71_8 1_555 1_555
C72_8 N30_8 1_555 1_555
H80_8 C72_8 1_555 1_555
H81_8 C72_8 1_555 1_555
C73_8 N30_8 1_555 1_555
H82_8 C73_8 1_555 1_555
H83_8 C73_8 1_555 1_555
C74_8 N34_8 1_555 1_555
H84_8 C74_8 1_555 1_555
H85_8 C74_8 1_555 1_555
Mo4_6 C76_6 1_555 1_555
Mn8_6 N36_6 1_555 1_555
Mn11_6 N38_6 1_555 1_555
N36_6 C76_6 1_555 1_555
N38_6 C78_6 1_555 1_555
N40_6 C80_6 1_555 1_555
N44_6 C84_6 1_555 1_555
N45_6 Mn2_6 1_555 1_555
N47_6 Mn8_6 1_555 1_555
N49_6 C88_6 1_555 1_555
N76_6 Mn8_6 1_555 1_555
N78_6 Mn8_6 1_555 1_555
N80_6 Mn8_6 1_555 1_555
N82_6 Mn8_6 1_555 1_555
N84_6 Mn8_6 1_555 1_555
N86_6 Mn11_6 1_555 1_555
N88_6 Mn11_6 1_555 1_555
N90_6 Mn11_6 1_555 1_555
N92_6 Mn11_6 1_555 1_555
C78_6 Mo4_6 1_555 1_555
C80_6 Mo4_6 1_555 1_555
C82_6 Mo4_6 1_555 1_555
C84_6 Mo4_6 1_555 1_555
C85_6 Mo4_6 1_555 1_555
C88_6 Mo4_6 1_555 1_555
C106_6 N66_6 1_555 1_555
H89_6 C106_6 1_555 1_555
H91_6 C106_6 1_555 1_555
H93_6 C108_6 1_555 1_555
H95_6 C108_6 1_555 1_555
H123_6 C132_6 1_555 1_555
H125_6 C132_6 1_555 1_555
C134_6 N66_6 1_555 1_555
H127_6 C134_6 1_555 1_555
H129_6 C134_6 1_555 1_555
C136_6 N84_6 1_555 1_555
C138_6 N76_6 1_555 1_555
H135_6 C138_6 1_555 1_555
H137_6 C138_6 1_555 1_555
C140_6 N76_6 1_555 1_555
H139_6 C140_6 1_555 1_555
H141_6 C140_6 1_555 1_555
C142_6 N78_6 1_555 1_555
H143_6 C142_6 1_555 1_555
H145_6 C142_6 1_555 1_555
C144_6 N78_6 1_555 1_555
H147_6 C144_6 1_555 1_555
H149_6 C144_6 1_555 1_555
C146_6 N80_6 1_555 1_555
H151_6 C146_6 1_555 1_555
H153_6 C146_6 1_555 1_555
C148_6 N80_6 1_555 1_555
C150_6 C148_6 1_555 1_555
H155_6 C150_6 1_555 1_555
H157_6 C150_6 1_555 1_555
H159_6 C150_6 1_555 1_555
C152_6 N82_6 1_555 1_555
C154_6 C152_6 1_555 1_555
H161_6 C154_6 1_555 1_555
C156_6 C154_6 1_555 1_555
H163_6 C156_6 1_555 1_555
C158_6 C156_6 1_555 1_555
C160_6 N82_6 1_555 1_555
C162_6 N84_6 1_555 1_555
H175_6 C166_6 1_555 1_555
C168_6 N92_6 1_555 1_555
H179_6 C168_6 1_555 1_555
C170_6 N92_6 1_555 1_555
H181_6 C170_6 1_555 1_555
H183_6 C170_6 1_555 1_555
C172_6 N90_6 1_555 1_555
H185_6 C172_6 1_555 1_555
H187_6 C172_6 1_555 1_555
C174_6 N90_6 1_555 1_555
C176_6 C174_6 1_555 1_555
H189_6 C176_6 1_555 1_555
H191_6 C176_6 1_555 1_555
H193_6 C176_6 1_555 1_555
C178_6 N88_6 1_555 1_555
C180_6 C178_6 1_555 1_555
H195_6 C180_6 1_555 1_555
C182_6 C180_6 1_555 1_555
H197_6 C182_6 1_555 1_555
C184_6 C182_6 1_555 1_555
H199_6 C184_6 1_555 1_555
C186_6 N88_6 1_555 1_555
C188_6 N86_6 1_555 1_555
C190_6 C188_6 1_555 1_555
H201_6 C190_6 1_555 1_555
H203_6 C190_6 1_555 1_555
H211_6 C194_6 1_555 1_555
C30_8 C31_8 1_555 1_555
C32_8 C33_8 1_555 1_555
C34_8 C35_8 1_555 1_555
C36_8 C38_8 1_555 1_555
C41_8 C42_8 1_555 1_555
C42_8 C43_8 1_555 1_555
C47_8 C48_8 1_555 1_555
C69_8 C70_8 1_555 1_555
C71_8 C72_8 1_555 1_555
C73_8 C74_8 1_555 1_555
N42_6 C82_6 1_555 1_555
N45_6 C85_6 1_555 1_555
C106_6 C108_6 1_555 1_555
C132_6 C134_6 1_555 1_555
C136_6 C138_6 1_555 1_555
C140_6 C142_6 1_555 1_555
C144_6 C146_6 1_555 1_555
C148_6 C152_6 1_555 1_555
C158_6 C160_6 1_555 1_555
C160_6 C162_6 1_555 1_555
C166_6 C168_6 1_555 1_555
C170_6 C172_6 1_555 1_555
C174_6 C178_6 1_555 1_555
C184_6 C186_6 1_555 1_555
C186_6 C188_6 1_555 1_555
N20_8 H257_8 1_555 1_555
N21_8 H258_8 1_555 1_555
N30_8 H261_8 1_555 1_555
N31_8 H264_8 1_555 1_555
N66_6 H269_6 1_555 1_555
N92_6 H271_6 1_555 1_555
N76_6 H274_6 1_555 1_555
N78_6 H276_6 1_555 1_555
Mo2_8 C8_8 1_555 1_555
Mn1_8 O1_8 1_555 1_555
Mn3_8 N2_8 1_555 1_555
N2_8 C2_8 1_555 1_555
N3_8 C3_8 1_555 1_555
N4_8 Mn1_8 1_555 1_555
N8_8 Mn3_8 1_555 1_555
N10_8 C10_8 1_555 1_555
N11_8 C11_8 1_555 1_555
N60_6 C12_8 1_555 1_555
N13_8 C13_8 1_555 1_555
N14_8 C14_8 1_555 1_555
N15_8 Mn1_8 1_555 1_555
N16_8 Mn1_8 1_555 1_555
N17_8 Mn1_8 1_555 1_555
N18_8 Mn1_8 1_555 1_555
N19_8 Mn1_8 1_555 1_555
N25_8 Mn3_8 1_555 1_555
N26_8 Mn3_8 1_555 1_555
N28_8 Mn3_8 1_555 1_555
N29_8 Mn3_8 1_555 1_555
C8_8 N8_8 1_555 1_555
C9_8 Mo2_8 1_555 1_555
C10_8 Mo2_8 1_555 1_555
C11_8 Mo2_8 1_555 1_555
C12_8 Mo2_8 1_555 1_555
C13_8 Mo2_8 1_555 1_555
C14_8 Mo2_8 1_555 1_555
C15_8 N15_8 1_555 1_555
H2_8 C15_8 1_555 1_555
H3_8 C15_8 1_555 1_555
C16_8 N16_8 1_555 1_555
H4_8 C16_8 1_555 1_555
H5_8 C16_8 1_555 1_555
C17_8 N16_8 1_555 1_555
H6_8 C17_8 1_555 1_555
H7_8 C17_8 1_555 1_555
C18_8 N17_8 1_555 1_555
H8_8 C18_8 1_555 1_555
H9_8 C18_8 1_555 1_555
C19_8 N17_8 1_555 1_555
C20_8 C19_8 1_555 1_555
H10_8 C20_8 1_555 1_555
H11_8 C20_8 1_555 1_555
H12_8 C20_8 1_555 1_555
C21_8 N18_8 1_555 1_555
C22_8 C21_8 1_555 1_555
H13_8 C22_8 1_555 1_555
C23_8 C22_8 1_555 1_555
H14_8 C23_8 1_555 1_555
C24_8 C23_8 1_555 1_555
H15_8 C24_8 1_555 1_555
C25_8 N18_8 1_555 1_555
C26_8 N19_8 1_555 1_555
C27_8 C26_8 1_555 1_555
H16_8 C27_8 1_555 1_555
H17_8 C27_8 1_555 1_555
H18_8 C27_8 1_555 1_555
C28_8 N19_8 1_555 1_555
H19_8 C28_8 1_555 1_555
H20_8 C28_8 1_555 1_555
C29_8 N15_8 1_555 1_555
H21_8 C29_8 1_555 1_555
H22_8 C29_8 1_555 1_555
C45_8 N29_8 1_555 1_555
H44_8 C45_8 1_555 1_555
H45_8 C45_8 1_555 1_555
C46_8 N28_8 1_555 1_555
H46_8 C46_8 1_555 1_555
H47_8 C46_8 1_555 1_555
C51_8 N26_8 1_555 1_555
H56_8 C53_8 1_555 1_555
C54_8 C53_8 1_555 1_555
H57_8 C54_8 1_555 1_555
C55_8 N26_8 1_555 1_555
C56_8 N25_8 1_555 1_555
C57_8 C56_8 1_555 1_555
H58_8 C57_8 1_555 1_555
H59_8 C57_8 1_555 1_555
H60_8 C57_8 1_555 1_555
C58_8 N25_8 1_555 1_555
H61_8 C58_8 1_555 1_555
H62_8 C58_8 1_555 1_555
C59_8 N29_8 1_555 1_555
H63_8 C59_8 1_555 1_555
H64_8 C59_8 1_555 1_555
C61_8 C60_8 1_555 1_555
H66_8 C61_8 1_555 1_555
H67_8 C61_8 1_555 1_555
C62_8 N33_8 1_555 1_555
C63_8 C62_8 1_555 1_555
H68_8 C63_8 1_555 1_555
C64_8 C63_8 1_555 1_555
H69_8 C64_8 1_555 1_555
C65_8 C64_8 1_555 1_555
H70_8 C65_8 1_555 1_555
C66_8 N33_8 1_555 1_555
C68_8 C67_8 1_555 1_555
H71_8 C68_8 1_555 1_555
H72_8 C68_8 1_555 1_555
H73_8 C68_8 1_555 1_555
Mn6_6 O3_6 1_555 1_555
N68_6 Mn6_6 1_555 1_555
N70_6 Mn6_6 1_555 1_555
N72_6 Mn6_6 1_555 1_555
N74_6 Mn6_6 1_555 1_555
C110_6 N68_6 1_555 1_555
H97_6 C110_6 1_555 1_555
C112_6 N70_6 1_555 1_555
H101_6 C112_6 1_555 1_555
H103_6 C112_6 1_555 1_555
C114_6 N70_6 1_555 1_555
C116_6 C114_6 1_555 1_555
H105_6 C116_6 1_555 1_555
H107_6 C116_6 1_555 1_555
H109_6 C116_6 1_555 1_555
C118_6 N72_6 1_555 1_555
C120_6 C118_6 1_555 1_555
H111_6 C120_6 1_555 1_555
C122_6 C120_6 1_555 1_555
H113_6 C122_6 1_555 1_555
C124_6 C122_6 1_555 1_555
H115_6 C124_6 1_555 1_555
C126_6 N72_6 1_555 1_555
C128_6 N74_6 1_555 1_555
C130_6 C128_6 1_555 1_555
H119_6 C130_6 1_555 1_555
H121_6 C130_6 1_555 1_555
N4_8 C4_8 1_555 1_555
C15_8 C16_8 1_555 1_555
C17_8 C18_8 1_555 1_555
C19_8 C21_8 1_555 1_555
C24_8 C25_8 1_555 1_555
C25_8 C26_8 1_555 1_555
C28_8 C29_8 1_555 1_555
C45_8 C46_8 1_555 1_555
C54_8 C55_8 1_555 1_555
C55_8 C56_8 1_555 1_555
C58_8 C59_8 1_555 1_555
C60_8 C62_8 1_555 1_555
C65_8 C66_8 1_555 1_555
C66_8 C67_8 1_555 1_555
C110_6 C112_6 1_555 1_555
C114_6 C118_6 1_555 1_555
C124_6 C126_6 1_555 1_555
C126_6 C128_6 1_555 1_555
N28_8 H259_8 1_555 1_555
N29_8 H260_8 1_555 1_555
N16_8 H262_8 1_555 1_555
N15_8 H263_8 1_555 1_555
N68_6 H279_6 1_555 1_555
Mo2_9 C8_9 1_555 1_555
Mn1_9 O1_9 1_555 1_555
Mn3_9 N2_9 1_555 1_555
N2_9 C2_9 1_555 1_555
N3_9 C3_9 1_555 1_555
N4_9 Mn1_9 1_555 1_555
N8_9 Mn3_9 1_555 1_555
N10_9 C10_9 1_555 1_555
N11_9 C11_9 1_555 1_555
N60_4 C12_9 1_555 1_555
N13_9 C13_9 1_555 1_555
N14_9 C14_9 1_555 1_555
N15_9 Mn1_9 1_555 1_555
N16_9 Mn1_9 1_555 1_555
N17_9 Mn1_9 1_555 1_555
N18_9 Mn1_9 1_555 1_555
N19_9 Mn1_9 1_555 1_555
N25_9 Mn3_9 1_555 1_555
N26_9 Mn3_9 1_555 1_555
N28_9 Mn3_9 1_555 1_555
N29_9 Mn3_9 1_555 1_555
C8_9 N8_9 1_555 1_555
C9_9 Mo2_9 1_555 1_555
C10_9 Mo2_9 1_555 1_555
C11_9 Mo2_9 1_555 1_555
C12_9 Mo2_9 1_555 1_555
C13_9 Mo2_9 1_555 1_555
C14_9 Mo2_9 1_555 1_555
C15_9 N15_9 1_555 1_555
H2_9 C15_9 1_555 1_555
H3_9 C15_9 1_555 1_555
C16_9 N16_9 1_555 1_555
H4_9 C16_9 1_555 1_555
H5_9 C16_9 1_555 1_555
C17_9 N16_9 1_555 1_555
H6_9 C17_9 1_555 1_555
H7_9 C17_9 1_555 1_555
C18_9 N17_9 1_555 1_555
H8_9 C18_9 1_555 1_555
H9_9 C18_9 1_555 1_555
C19_9 N17_9 1_555 1_555
C20_9 C19_9 1_555 1_555
H10_9 C20_9 1_555 1_555
H11_9 C20_9 1_555 1_555
H12_9 C20_9 1_555 1_555
C21_9 N18_9 1_555 1_555
C22_9 C21_9 1_555 1_555
H13_9 C22_9 1_555 1_555
C23_9 C22_9 1_555 1_555
H14_9 C23_9 1_555 1_555
C24_9 C23_9 1_555 1_555
H15_9 C24_9 1_555 1_555
C25_9 N18_9 1_555 1_555
C26_9 N19_9 1_555 1_555
C27_9 C26_9 1_555 1_555
H16_9 C27_9 1_555 1_555
H17_9 C27_9 1_555 1_555
H18_9 C27_9 1_555 1_555
C28_9 N19_9 1_555 1_555
H19_9 C28_9 1_555 1_555
H20_9 C28_9 1_555 1_555
C29_9 N15_9 1_555 1_555
H21_9 C29_9 1_555 1_555
H22_9 C29_9 1_555 1_555
C45_9 N29_9 1_555 1_555
H44_9 C45_9 1_555 1_555
H45_9 C45_9 1_555 1_555
C46_9 N28_9 1_555 1_555
H46_9 C46_9 1_555 1_555
H47_9 C46_9 1_555 1_555
C51_9 N26_9 1_555 1_555
H56_9 C53_9 1_555 1_555
C54_9 C53_9 1_555 1_555
H57_9 C54_9 1_555 1_555
C55_9 N26_9 1_555 1_555
C56_9 N25_9 1_555 1_555
C57_9 C56_9 1_555 1_555
H58_9 C57_9 1_555 1_555
H59_9 C57_9 1_555 1_555
H60_9 C57_9 1_555 1_555
C58_9 N25_9 1_555 1_555
H61_9 C58_9 1_555 1_555
H62_9 C58_9 1_555 1_555
C59_9 N29_9 1_555 1_555
H63_9 C59_9 1_555 1_555
H64_9 C59_9 1_555 1_555
C61_9 C60_9 1_555 1_555
H66_9 C61_9 1_555 1_555
H67_9 C61_9 1_555 1_555
C62_9 N33_9 1_555 1_555
C63_9 C62_9 1_555 1_555
H68_9 C63_9 1_555 1_555
C64_9 C63_9 1_555 1_555
H69_9 C64_9 1_555 1_555
C65_9 C64_9 1_555 1_555
H70_9 C65_9 1_555 1_555
C66_9 N33_9 1_555 1_555
C68_9 C67_9 1_555 1_555
H71_9 C68_9 1_555 1_555
H72_9 C68_9 1_555 1_555
H73_9 C68_9 1_555 1_555
N4_9 C4_9 1_555 1_555
C15_9 C16_9 1_555 1_555
C17_9 C18_9 1_555 1_555
C19_9 C21_9 1_555 1_555
C24_9 C25_9 1_555 1_555
C25_9 C26_9 1_555 1_555
C28_9 C29_9 1_555 1_555
C45_9 C46_9 1_555 1_555
C54_9 C55_9 1_555 1_555
C55_9 C56_9 1_555 1_555
C58_9 C59_9 1_555 1_555
C60_9 C62_9 1_555 1_555
C65_9 C66_9 1_555 1_555
C66_9 C67_9 1_555 1_555
N28_9 H259_9 1_555 1_555
N29_9 H260_9 1_555 1_555
N16_9 H262_9 1_555 1_555
N15_9 H263_9 1_555 1_555
Mo1_9 C1_9 1_555 1_555
Mn9_3 N1_9 1_555 1_555
N1_9 C1_9 1_555 1_555
N5_9 C5_9 1_555 1_555
N47_6 C6_9 1_555 1_555
N7_9 C7_9 1_555 1_555
N20_9 Mn9_3 1_555 1_555
N21_9 Mn9_3 1_555 1_555
N22_9 Mn9_3 1_555 1_555
N23_9 Mn9_3 1_555 1_555
N24_9 Mn9_3 1_555 1_555
N30_9 Mn14_6 1_555 1_555
N31_9 Mn14_6 1_555 1_555
N32_9 Mn14_6 1_555 1_555
N34_9 Mn14_6 1_555 1_555
C5_9 Mo1_9 1_555 1_555
C6_9 Mo1_9 1_555 1_555
C7_9 Mo1_9 1_555 1_555
C30_9 N24_9 1_555 1_555
H24_9 C30_9 1_555 1_555
C31_9 N20_9 1_555 1_555
H25_9 C31_9 1_555 1_555
H26_9 C31_9 1_555 1_555
C32_9 N20_9 1_555 1_555
H27_9 C32_9 1_555 1_555
H28_9 C32_9 1_555 1_555
C33_9 N21_9 1_555 1_555
H29_9 C33_9 1_555 1_555
H30_9 C33_9 1_555 1_555
C34_9 N21_9 1_555 1_555
H31_9 C34_9 1_555 1_555
H32_9 C34_9 1_555 1_555
C35_9 N22_9 1_555 1_555
H33_9 C35_9 1_555 1_555
H34_9 C35_9 1_555 1_555
C36_9 N22_9 1_555 1_555
C37_9 C36_9 1_555 1_555
H35_9 C37_9 1_555 1_555
H36_9 C37_9 1_555 1_555
H37_9 C37_9 1_555 1_555
C38_9 N23_9 1_555 1_555
C39_9 C38_9 1_555 1_555
H38_9 C39_9 1_555 1_555
C40_9 C39_9 1_555 1_555
H39_9 C40_9 1_555 1_555
C41_9 C40_9 1_555 1_555
H40_9 C41_9 1_555 1_555
C42_9 N23_9 1_555 1_555
C43_9 N24_9 1_555 1_555
C44_9 C43_9 1_555 1_555
H41_9 C44_9 1_555 1_555
H42_9 C44_9 1_555 1_555
H43_9 C44_9 1_555 1_555
H48_9 C47_9 1_555 1_555
H49_9 C47_9 1_555 1_555
C48_9 N27_9 1_555 1_555
H50_9 C48_9 1_555 1_555
H51_9 C48_9 1_555 1_555
C49_9 N27_9 1_555 1_555
C50_9 C49_9 1_555 1_555
H52_9 C50_9 1_555 1_555
H53_9 C50_9 1_555 1_555
H54_9 C50_9 1_555 1_555
H55_9 C52_9 1_555 1_555
C69_9 N32_9 1_555 1_555
H74_9 C69_9 1_555 1_555
H75_9 C69_9 1_555 1_555
C70_9 N31_9 1_555 1_555
H76_9 C70_9 1_555 1_555
H77_9 C70_9 1_555 1_555
C71_9 N31_9 1_555 1_555
H78_9 C71_9 1_555 1_555
H79_9 C71_9 1_555 1_555
C72_9 N30_9 1_555 1_555
H80_9 C72_9 1_555 1_555
H81_9 C72_9 1_555 1_555
C73_9 N30_9 1_555 1_555
H82_9 C73_9 1_555 1_555
H83_9 C73_9 1_555 1_555
C74_9 N34_9 1_555 1_555
H84_9 C74_9 1_555 1_555
H85_9 C74_9 1_555 1_555
C30_9 C31_9 1_555 1_555
C32_9 C33_9 1_555 1_555
C34_9 C35_9 1_555 1_555
C36_9 C38_9 1_555 1_555
C41_9 C42_9 1_555 1_555
C42_9 C43_9 1_555 1_555
C47_9 C48_9 1_555 1_555
C69_9 C70_9 1_555 1_555
C71_9 C72_9 1_555 1_555
C73_9 C74_9 1_555 1_555
N20_9 H257_9 1_555 1_555
N21_9 H258_9 1_555 1_555
N30_9 H261_9 1_555 1_555
N31_9 H264_9 1_555 1_555

#END
