
###############################################################################
#
# This file contains modified crystal structure data generated from the
# MOF subset of the Cambridge Structural Database (CSD) v543 
# hosted by the Cambridge Crystallographic Data Centre (CCDC).
#
# This work is licensed under the Creative Commons
# Attribution-NonCommercial-ShareAlike 4.0 International License.
# To view a copy of this license, visit
# http://creativecommons.org/licenses/by-nc-sa/4.0/
# or send a letter to
# Creative Commons, PO Box 1866, Mountain View, CA 94042, USA.
#
# CIF created using the CSD Python API on 29 September 2022
# The structure has been converted into the P1 space group
# The structure has a 3D framework
# The original CSD entry HEFFEF is in the triclinic crystal system
# The framework has been calculated to contain at least 10.0% void space
# The void calculation uses a probe of radius 1.32A, grid spacing 0.4
# The framework is charged, counterions have been retained in the structure
#
###############################################################################

data_HEFFEF
_chemical_formula_moiety         '(C60 H28 Cd4 Na2 O22 2-)n'
_symmetry_cell_setting           triclinic
_symmetry_space_group_name_H-M   'P 1'
_symmetry_Int_Tables_number      1
_space_group_name_Hall           'P 1'
loop_
_symmetry_equiv_pos_site_id
_symmetry_equiv_pos_as_xyz
1 x,y,z
_cell_length_a                   10.006(11)
_cell_length_b                   18.34(2)
_cell_length_c                   20.26(3)
_cell_angle_alpha                88.72(5)
_cell_angle_beta                 83.46(8)
_cell_angle_gamma                86.86(4)
_cell_volume                     3687.69
loop_
_atom_site_label
_atom_site_type_symbol
_atom_site_fract_x
_atom_site_fract_y
_atom_site_fract_z
Na1 Na 0.8929(12) 0.7208(8) 0.8791(9)
Na1_2 Na 0.1071(12) 0.2792(8) 0.1209(9)
O17 O 0.1388(7) 0.5480(4) 0.9641(4)
O20 O 0.0420(8) 0.6082(5) 0.8877(5)
Cd12 Cd 0.61070(9) 0.04020(7) 0.54510(4)
O24 O 0.4218(16) 0.0691(7) 0.4072(10)
O33 O 0.325(2) 0.0335(14) 0.5421(11)
C3 C 0.0432(15) 0.6513(8) 0.2015(8)
H1 H 0.1069 0.6124 0.2015
C4 C 0.0356(13) 0.7045(8) 0.2507(6)
H2 H 0.0922 0.6990 0.2840
C12 C 0.0393(11) 0.8949(8) 0.3770(6)
C13 C 0.0508(13) 0.8402(9) 0.3303(7)
H7 H 0.1340 0.8169 0.3167
C14 C 0.1687(14) 0.9121(9) 0.4007(7)
O7 O 0.1692(13) 0.9650(7) 0.4415(5)
O8 O 0.2792(14) 0.8894(8) 0.3815(7)
O12 O 0.0541(10) 0.5491(5) 0.1030(5)
Cd6 Cd 0.11334(8) 0.45214(5) 0.03936(5)
Cd9 Cd 0.38930(9) 0.95980(7) 0.45490(4)
O18 O 0.8612(7) 0.4520(4) 0.0359(4)
O38 O 0.8878(8) 0.6119(5) 0.0536(5)
Cd3 Cd 0.88666(8) 0.54786(5) 0.96064(5)
C31 C 0.0360(12) 0.4029(8) 0.8993(8)
C32 C 0.0430(12) 0.3436(7) 0.8466(6)
C35 C 0.0501(13) 0.2376(9) 0.7489(7)
C36 C 0.1374(15) 0.2319(10) 0.7989(6)
H17 H 0.2021 0.1934 0.7974
C37 C 0.1308(14) 0.2816(8) 0.8503(8)
H18 H 0.1822 0.2740 0.8855
C38 C 0.0654(12) 0.1793(7) 0.6957(6)
C39 C 0.1887(14) 0.1508(10) 0.6696(7)
H19 H 0.2661 0.1649 0.6862
C40 C 0.1997(13) 0.1003(8) 0.6176(6)
C41 C 0.0837(12) 0.0759(9) 0.5960(5)
H20 H 0.0890 0.0404 0.5637
C45 C 0.3331(17) 0.0695(9) 0.5882(6)
C46 C 0.4827(19) 0.8933(12) 0.5852(11)
C47 C 0.4630(16) 0.8378(11) 0.6448(7)
C48 C 0.3870(19) 0.7762(13) 0.6364(10)
H22 H 0.3503 0.7692 0.5970
C49 C 0.3684(18) 0.7238(12) 0.6925(9)
H23 H 0.3159 0.6836 0.6917
C50 C 0.4327(16) 0.7385(9) 0.7449(8)
C51 C 0.5028(15) 0.7971(10) 0.7523(8)
H24 H 0.5354 0.8045 0.7927
C52 C 0.5295(16) 0.8505(10) 0.6971(7)
H25 H 0.5863 0.8889 0.6985
C53 C 0.4199(12) 0.6812(8) 0.8001(8)
C54 C 0.2931(10) 0.6540(7) 0.8227(6)
H26 H 0.2188 0.6646 0.7998
C55 C 0.2820(11) 0.6090(6) 0.8829(6)
C56 C 0.3939(10) 0.5872(6) 0.9102(6)
H27 H 0.3871 0.5541 0.9458
C57 C 0.5203(11) 0.6125(7) 0.8871(7)
C58 C 0.5296(13) 0.6601(10) 0.8309(8)
H28 H 0.6130 0.6772 0.8146
C59 C 0.6500(12) 0.5836(7) 0.9165(8)
C60 C 0.1480(11) 0.5844(6) 0.9130(7)
O13 O 0.6509(8) 0.5337(5) 0.9481(5)
O14 O 0.7435(11) 0.6295(6) 0.9126(8)
O21 O 0.4052(17) 0.8882(10) 0.5411(7)
O22 O 0.5782(16) 0.9309(7) 0.5928(10)
O34 O 0.4324(10) 0.0913(8) 0.6044(7)
O36 O 0.5676(10) 0.9087(8) 0.3956(7)
O37 O 0.1122(8) 0.3881(5) 0.9464(5)
O40 O 0.9459(10) 0.4509(5) 0.8970(5)
C1 C 0.9640(12) 0.5971(8) 0.1007(8)
C2 C 0.9570(12) 0.6564(7) 0.1534(6)
C5 C 0.9499(13) 0.7624(9) 0.2511(7)
C6 C 0.8626(15) 0.7681(10) 0.2011(6)
H3 H 0.7979 0.8066 0.2026
C7 C 0.8692(14) 0.7184(8) 0.1497(8)
H4 H 0.8178 0.7260 0.1145
C8 C 0.9346(12) 0.8207(7) 0.3043(6)
C9 C 0.8113(14) 0.8492(10) 0.3304(7)
H5 H 0.7339 0.8351 0.3138
C10 C 0.8003(13) 0.8997(8) 0.3824(6)
C11 C 0.9163(12) 0.9241(9) 0.4040(5)
H6 H 0.9110 0.9596 0.4363
C15 C 0.6669(17) 0.9305(9) 0.4118(6)
O9 O 0.675(2) 0.9665(14) 0.4579(11)
C33 C 0.9568(15) 0.3487(8) 0.7985(8)
H15 H 0.8931 0.3876 0.7985
C34 C 0.9644(13) 0.2955(8) 0.7493(6)
H16 H 0.9078 0.3010 0.7160
C42 C 0.9607(11) 0.1051(8) 0.6230(6)
C43 C 0.9492(13) 0.1598(9) 0.6697(7)
H21 H 0.8660 0.1831 0.6833
C44 C 0.8313(14) 0.0879(9) 0.5993(7)
O25 O 0.8308(13) 0.0350(7) 0.5585(5)
O28 O 0.7208(14) 0.1106(8) 0.6185(7)
C16 C 0.5173(19) 0.1067(12) 0.4148(11)
C17 C 0.5370(16) 0.1622(11) 0.3552(7)
C18 C 0.6130(19) 0.2238(13) 0.3636(10)
H8 H 0.6497 0.2308 0.4030
C19 C 0.6316(18) 0.2762(12) 0.3075(9)
H9 H 0.6841 0.3164 0.3083
C20 C 0.5673(16) 0.2615(9) 0.2551(8)
C21 C 0.4972(15) 0.2029(10) 0.2477(8)
H10 H 0.4646 0.1955 0.2073
C22 C 0.4705(16) 0.1495(10) 0.3029(7)
H11 H 0.4137 0.1111 0.3015
C23 C 0.5801(12) 0.3188(8) 0.1999(8)
C24 C 0.7069(10) 0.3460(7) 0.1773(6)
H12 H 0.7812 0.3354 0.2002
C25 C 0.7180(11) 0.3910(6) 0.1171(6)
C26 C 0.6061(10) 0.4128(6) 0.0898(6)
H13 H 0.6129 0.4459 0.0542
C27 C 0.4797(11) 0.3875(7) 0.1129(7)
C28 C 0.4704(13) 0.3399(10) 0.1691(8)
H14 H 0.3870 0.3228 0.1854
C29 C 0.3500(12) 0.4164(7) 0.0835(8)
C30 C 0.8520(11) 0.4156(6) 0.0870(7)
O1 O 0.3491(8) 0.4663(5) 0.0519(5)
O2 O 0.2565(11) 0.3705(6) 0.0874(8)
O4 O 0.9580(8) 0.3918(5) 0.1123(5)
O5 O 0.5948(17) 0.1118(10) 0.4589(7)
loop_
_geom_bond_atom_site_label_1
_geom_bond_atom_site_label_2
_geom_bond_site_symmetry_1
_geom_bond_site_symmetry_2
C3 H1 1_555 1_555
C4 C3 1_555 1_555
H2 C4 1_555 1_555
H7 C13 1_555 1_555
C14 C12 1_555 1_555
O7 C14 1_555 1_555
O8 C14 1_555 1_555
Cd6 O12 1_555 1_555
Cd9 O7 1_555 1_555
C12 C13 1_555 1_555
O8 Cd9 1_555 1_555
Cd3 O13 1_555 1_555
Cd9 O21 1_555 1_555
Cd12 O34 1_555 1_555
C31 C32 1_555 1_555
C36 C35 1_555 1_555
H17 C36 1_555 1_555
C37 C32 1_555 1_555
H18 C37 1_555 1_555
C38 C35 1_555 1_555
C39 C38 1_555 1_555
H19 C39 1_555 1_555
C40 C39 1_555 1_555
C41 C40 1_555 1_555
H20 C41 1_555 1_555
C45 C40 1_555 1_555
C46 C47 1_555 1_555
C47 C48 1_555 1_555
C48 H22 1_555 1_555
C49 C48 1_555 1_555
H23 C49 1_555 1_555
C50 C49 1_555 1_555
C51 C50 1_555 1_555
H24 C51 1_555 1_555
C52 C47 1_555 1_555
H25 C52 1_555 1_555
C53 C50 1_555 1_555
C54 C53 1_555 1_555
H26 C54 1_555 1_555
C55 C54 1_555 1_555
C56 C55 1_555 1_555
H27 C56 1_555 1_555
C57 C56 1_555 1_555
C58 C53 1_555 1_555
H28 C58 1_555 1_555
C59 C57 1_555 1_555
C60 C55 1_555 1_555
O13 C59 1_555 1_555
O14 Cd3 1_555 1_555
O21 C46 1_555 1_555
O22 C46 1_555 1_555
O33 C45 1_555 1_555
O34 C45 1_555 1_555
O36 Cd9 1_555 1_555
O40 Cd3 1_555 1_555
C31 O37 1_555 1_555
C36 C37 1_555 1_555
C51 C52 1_555 1_555
C57 C58 1_555 1_555
C59 O14 1_555 1_555
C60 O17 1_555 1_555
C60 O20 1_555 1_555
C1 C2 1_555 1_555
C6 C5 1_555 1_555
H3 C6 1_555 1_555
C7 C2 1_555 1_555
H4 C7 1_555 1_555
C8 C5 1_555 1_555
C9 C8 1_555 1_555
H5 C9 1_555 1_555
C10 C9 1_555 1_555
C11 C10 1_555 1_555
H6 C11 1_555 1_555
C15 C10 1_555 1_555
O9 C15 1_555 1_555
O36 C15 1_555 1_555
C1 O38 1_555 1_555
C6 C7 1_555 1_555
Cd12 O25 1_555 1_555
C33 H15 1_555 1_555
C34 C33 1_555 1_555
H16 C34 1_555 1_555
H21 C43 1_555 1_555
C44 C42 1_555 1_555
O25 C44 1_555 1_555
O28 Cd12 1_555 1_555
C42 C43 1_555 1_555
C44 O28 1_555 1_555
Cd6 O1 1_555 1_555
Cd12 O5 1_555 1_555
C16 C17 1_555 1_555
C17 C18 1_555 1_555
C18 H8 1_555 1_555
C19 C18 1_555 1_555
H9 C19 1_555 1_555
C20 C19 1_555 1_555
C21 C20 1_555 1_555
H10 C21 1_555 1_555
C22 C17 1_555 1_555
H11 C22 1_555 1_555
C23 C20 1_555 1_555
C24 C23 1_555 1_555
H12 C24 1_555 1_555
C25 C24 1_555 1_555
C26 C25 1_555 1_555
H13 C26 1_555 1_555
C27 C26 1_555 1_555
C28 C23 1_555 1_555
H14 C28 1_555 1_555
C29 C27 1_555 1_555
C30 C25 1_555 1_555
O1 C29 1_555 1_555
O2 Cd6 1_555 1_555
O18 C30 1_555 1_555
O4 C30 1_555 1_555
O5 C16 1_555 1_555
O24 C16 1_555 1_555
C21 C22 1_555 1_555
C27 C28 1_555 1_555
C29 O2 1_555 1_555

#END
