
###############################################################################
#
# This file contains modified crystal structure data generated from the
# MOF subset of the Cambridge Structural Database (CSD) v543 
# hosted by the Cambridge Crystallographic Data Centre (CCDC).
#
# This work is licensed under the Creative Commons
# Attribution-NonCommercial-ShareAlike 4.0 International License.
# To view a copy of this license, visit
# http://creativecommons.org/licenses/by-nc-sa/4.0/
# or send a letter to
# Creative Commons, PO Box 1866, Mountain View, CA 94042, USA.
#
# CIF created using the CSD Python API on 29 September 2022
# The structure has been converted into the P1 space group
# The structure has a 3D framework
# The original CSD entry HEFVAR is in the monoclinic crystal system
# The framework has been calculated to contain at least 10.0% void space
# The void calculation uses a probe of radius 1.32A, grid spacing 0.4
#
###############################################################################

data_HEFVAR
_chemical_formula_moiety         '(C240 H160 Cl16 Cu22 N40 O81 Rh8)n'
_symmetry_cell_setting           triclinic
_symmetry_space_group_name_H-M   'P 1'
_symmetry_Int_Tables_number      1
_space_group_name_Hall           'P 1'
loop_
_symmetry_equiv_pos_site_id
_symmetry_equiv_pos_as_xyz
1 x,y,z
_cell_length_a                   17.9075(18)
_cell_length_b                   26.711(3)
_cell_length_c                   15.6530(14)
_cell_angle_alpha                90
_cell_angle_beta                 91.458(4)
_cell_angle_gamma                90
_cell_volume                     7484.83
loop_
_atom_site_label
_atom_site_type_symbol
_atom_site_fract_x
_atom_site_fract_y
_atom_site_fract_z
O25 O 0.1037(3) 0.6894(2) 0.0262(4)
Cu3 Cu -0.0000 0.77131(7) 0.7500
Rh6 Rh 0.21908(3) 0.50357(2) 0.79066(4)
Rh8 Rh 0.21908(3) 0.49643(2) 0.29066(4)
Cu4 Cu 0.46143(5) 0.74347(3) 0.56538(6)
Cu5 Cu 0.03857(5) 0.75653(3) 0.43462(6)
Cu7 Cu 0.07674(5) 0.73580(3) 0.93136(6)
Cu9 Cu 0.57674(5) 0.76420(3) 0.43136(6)
O13 O 0.1364(3) 0.7883(2) 0.9863(4)
O15 O 0.5459(3) 0.6962(2) 0.5798(4)
N7 N 0.2754(4) 0.5470(2) 0.3671(4)
C37 C 0.3076(5) 0.5881(3) 0.3337(5)
H25 H 0.3038 0.5931 0.2736
C38 C 0.3458(5) 0.6230(3) 0.3829(5)
H26 H 0.3679 0.6514 0.3572
C39 C 0.3512(5) 0.6159(3) 0.4710(5)
C40 C 0.3197(5) 0.5727(3) 0.5048(5)
H27 H 0.3240 0.5662 0.5644
C41 C 0.2826(5) 0.5396(3) 0.4518(5)
H28 H 0.2613 0.5105 0.4758
C42 C 0.3888(5) 0.6535(3) 0.5312(5)
O16 O 0.4086(3) 0.6944(2) 0.4954(3)
O17 O 0.3941(5) 0.6436(3) 0.6069(4)
N10 N 0.1653(3) 0.5559(2) 0.7146(4)
C43 C 0.0918(5) 0.5535(3) 0.7010(5)
H29 H 0.0656 0.5251 0.7216
C44 C 0.0519(5) 0.5906(3) 0.6581(6)
C45 C 0.0903(4) 0.6324(3) 0.6279(5)
C46 C 0.1678(4) 0.6337(3) 0.6368(5)
H31 H 0.1959 0.6600 0.6125
C47 C 0.2035(4) 0.5949(3) 0.6828(5)
H32 H 0.2562 0.5962 0.6917
C48 C 0.0468(4) 0.6751(3) 0.5881(5)
O19 O 0.0174(3) 0.6813(2) 0.8828(4)
O20 O 0.0774(3) 0.7009(2) 0.5314(4)
O21 O 0.4226(3) 0.7991(2) 0.4686(4)
O23 O 0.5170(3) 0.7968(2) 0.6252(4)
N16 N 0.3706(4) 0.7554(3) 0.6374(4)
C55 C 0.3038(4) 0.7662(3) 0.5965(5)
H37 H 0.3040 0.7750 0.5377
C56 C 0.2366(4) 0.7648(3) 0.6369(5)
H38 H 0.1916 0.7723 0.6060
C57 C 0.2347(4) 0.7526(3) 0.7212(5)
C58 C 0.3021(5) 0.7426(3) 0.7649(5)
H39 H 0.3029 0.7348 0.8241
C59 C 0.3681(5) 0.7443(3) 0.7198(5)
H40 H 0.4137 0.7372 0.7496
C60 C 0.1619(4) 0.7485(3) 0.7685(5)
O26 O 0.1633(3) 0.7281(2) 0.8402(3)
O27 O 0.1061(4) 0.7666(3) 0.7268(4)
O28 O 0.0189(3) 0.7868(2) 0.8662(4)
Rh5 Rh 0.28092(3) 0.00357(2) 0.70934(4)
Cl3 Cl 0.81300(11) 0.00193(7) 0.19121(13)
N9 N 0.7754(4) 0.0470(2) 0.3671(4)
N15 N 0.6637(4) 0.0538(2) 0.2287(4)
O1 O 0.3636(3) 0.7117(2) 0.0137(4)
N2 N 0.7246(4) 0.5470(2) 0.1329(4)
C7 C 0.6924(5) 0.5881(3) 0.1663(5)
H5 H 0.6962 0.5931 0.2264
C8 C 0.6542(5) 0.6230(3) 0.1171(5)
H6 H 0.6321 0.6514 0.1428
C9 C 0.6488(5) 0.6159(3) 0.0290(5)
C11 C 0.7174(5) 0.5396(3) 0.0482(5)
H8 H 0.7387 0.5105 0.0242
O3 O 0.5914(3) 0.6944(2) 0.0046(3)
N3 N 0.6653(3) 0.9441(2) 0.2146(4)
C13 C 0.5918(5) 0.9465(3) 0.2010(5)
H9 H 0.5656 0.9749 0.2216
C14 C 0.5519(5) 0.9094(3) 0.1581(6)
H10 H 0.4993 0.9123 0.1493
C15 C 0.5903(4) 0.8676(3) 0.1279(5)
C16 C 0.6678(4) 0.8663(3) 0.1368(5)
H11 H 0.6959 0.8400 0.1125
C17 C 0.7035(4) 0.9051(3) 0.1828(5)
H12 H 0.7562 0.9038 0.1917
C18 C 0.5468(4) 0.8249(3) 0.0881(5)
O5 O 0.4826(3) 0.8187(2) 0.1172(4)
O6 O 0.5774(3) 0.7991(2) 0.0314(4)
Rh3 Rh 0.78092(3) 0.49643(2) 0.20934(4)
Rh4 Rh 0.71908(3) 0.99643(2) 0.29066(4)
Cu6 Cu 0.96143(5) 0.75653(3) 0.06538(6)
Cu8 Cu 0.42326(5) 0.76420(3) 0.06864(6)
Cu1 Cu 0.53857(5) 0.74347(3) 0.93462(6)
Cu2 Cu 0.92326(5) 0.73580(3) 0.56864(6)
Cu3_2 Cu 1.0000 0.77131(7) 0.7500
Cl1 Cl 0.31300(11) 0.49807(7) 0.69121(13)
Cl2 Cl 0.12328(11) 0.50839(7) 0.88941(13)
N1 N 0.2748(4) 0.5606(2) 0.8521(4)
C1 C 0.3494(5) 0.5606(3) 0.8596(6)
H1 H 0.3759 0.5319 0.8414
C2 C 0.3897(5) 0.6010(3) 0.8931(6)
H2 H 0.4427 0.6002 0.8958
C3 C 0.3512(4) 0.6424(3) 0.9225(5)
C4 C 0.2741(4) 0.6413(3) 0.9200(5)
H3 H 0.2465 0.6680 0.9437
C5 C 0.2372(5) 0.6007(3) 0.8826(6)
H4 H 0.1841 0.6010 0.8783
C6 C 0.3929(5) 0.6869(3) 0.9549(5)
O2 O 0.4541(3) 0.6962(2) 0.9202(4)
C10 C 0.6803(5) 0.5727(3) 0.9952(5)
H7 H 0.6760 0.5662 0.9356
C12 C 0.6112(5) 0.6535(3) 0.9688(5)
O4 O 0.6059(5) 0.6436(3) 0.8931(4)
N4 N 0.3363(4) 0.9462(2) 0.7713(4)
C19 C 0.3692(4) 0.9093(3) 0.7289(5)
H13 H 0.3705 0.9112 0.6684
C20 C 0.4017(4) 0.8682(3) 0.7695(5)
H14 H 0.4245 0.8426 0.7371
C21 C 0.4005(4) 0.8649(3) 0.8569(5)
C22 C 0.3679(5) 0.9042(3) 0.9029(5)
H15 H 0.3665 0.9033 0.9636
C23 C 0.3380(5) 0.9440(3) 0.8579(5)
H16 H 0.3175 0.9711 0.8888
C24 C 0.4292(4) 0.8202(3) 0.9064(5)
O7 O 0.4830(3) 0.7968(2) 0.8748(4)
O8 O 0.3963(3) 0.8106(2) 0.9738(4)
N5 N 0.6294(4) 0.7554(3) 0.8626(4)
C25 C 0.6962(4) 0.7662(3) 0.9035(5)
H17 H 0.6960 0.7750 0.9623
C26 C 0.7634(4) 0.7648(3) 0.8631(5)
H18 H 0.8084 0.7723 0.8940
C27 C 0.7653(4) 0.7526(3) 0.7788(5)
C28 C 0.6979(5) 0.7426(3) 0.7351(5)
H19 H 0.6971 0.7348 0.6759
C29 C 0.6319(5) 0.7443(3) 0.7802(5)
H20 H 0.5863 0.7372 0.7504
C30 C 0.8381(4) 0.7485(3) 0.7315(5)
O9 O 0.8367(3) 0.7281(2) 0.6598(3)
O10 O 0.8939(4) 0.7666(3) 0.7732(4)
O11 O 0.9811(3) 0.7868(2) 0.6338(4)
Cl4 Cl 0.62328(11) 0.99161(7) 0.38941(13)
N6 N 0.7748(4) 0.9394(2) 0.3521(4)
C31 C 0.8494(5) 0.9394(3) 0.3596(6)
H21 H 0.8759 0.9681 0.3414
C32 C 0.8897(5) 0.8990(3) 0.3931(6)
H22 H 0.9427 0.8998 0.3958
C33 C 0.8512(4) 0.8576(3) 0.4225(5)
C34 C 0.7741(4) 0.8587(3) 0.4200(5)
H23 H 0.7465 0.8320 0.4437
C35 C 0.7372(5) 0.8993(3) 0.3826(6)
H24 H 0.6841 0.8990 0.3783
C36 C 0.8929(5) 0.8131(3) 0.4549(5)
O12 O 0.8636(3) 0.7883(2) 0.5137(4)
O14 O 0.9541(3) 0.8038(2) 0.4202(4)
N8 N 0.2754(4) 0.4530(2) 0.8671(4)
H30 H 0.9993 0.5877 0.6493
O18 O 0.9826(3) 0.6813(2) 0.6172(4)
N13 N 0.8363(4) 0.5538(2) 0.2713(4)
N14 N 0.1637(4) 0.4462(2) 0.7287(4)
C49 C 0.8692(4) 0.5907(3) 0.2289(5)
H33 H 0.8705 0.5888 0.1684
C50 C 0.9017(4) 0.6318(3) 0.2695(5)
H34 H 0.9245 0.6574 0.2371
C51 C 0.9005(4) 0.6351(3) 0.3569(5)
C52 C 0.8679(5) 0.5958(3) 0.4029(5)
H35 H 0.8665 0.5967 0.4636
C53 C 0.8380(5) 0.5560(3) 0.3579(5)
H36 H 0.8175 0.5289 0.3888
C54 C 0.9292(4) 0.6798(3) 0.4064(5)
O22 O 0.9830(3) 0.7032(2) 0.3748(4)
O24 O 0.8963(3) 0.6894(2) 0.4738(4)
Cl3_2 Cl 0.18700(11) 0.00193(7) 0.30879(13)
N9_2 N 0.2246(4) 0.0470(2) 0.1329(4)
N15_2 N 0.3363(4) 0.0538(2) 0.2713(4)
Rh5_2 Rh 0.71908(3) 0.00357(2) 0.79066(4)
Rh2 Rh 0.28092(3) 0.99643(2) 0.20934(4)
Cl4_2 Cl 0.37672(11) 0.99161(7) 0.11059(13)
N6_2 N 0.2252(4) 0.9394(2) 0.1479(4)
C31_2 C 0.1506(5) 0.9394(3) 0.1404(6)
H21_2 H 0.1241 0.9681 0.1586
C32_2 C 0.1103(5) 0.8990(3) 0.1069(6)
H22_2 H 0.0573 0.8998 0.1042
C33_2 C 0.1488(4) 0.8576(3) 0.0775(5)
C34_2 C 0.2259(4) 0.8587(3) 0.0800(5)
H23_2 H 0.2535 0.8320 0.0563
C35_2 C 0.2628(5) 0.8993(3) 0.1174(6)
H24_2 H 0.3159 0.8990 0.1217
C36_2 C 0.1071(5) 0.8131(3) 0.0451(5)
O14_2 O 0.0459(3) 0.8038(2) 0.0798(4)
N12 N 0.3347(3) 0.9441(2) 0.2854(4)
N13_2 N 0.1637(4) 0.5538(2) 0.2287(4)
C49_2 C 0.1308(4) 0.5907(3) 0.2711(5)
H33_2 H 0.1295 0.5888 0.3316
C50_2 C 0.0983(4) 0.6318(3) 0.2305(5)
H34_2 H 0.0755 0.6574 0.2629
C51_2 C 0.0995(4) 0.6351(3) 0.1431(5)
C52_2 C 0.1321(5) 0.5958(3) 0.0971(5)
H35_2 H 0.1335 0.5967 0.0364
C53_2 C 0.1620(5) 0.5560(3) 0.1421(5)
H36_2 H 0.1825 0.5289 0.1112
C54_2 C 0.0708(4) 0.6798(3) 0.0936(5)
O22_2 O 0.0170(3) 0.7032(2) 0.1252(4)
Rh1 Rh 0.78092(3) 0.50357(2) 0.70934(4)
Cl1_2 Cl 0.68700(11) 0.49807(7) 0.80879(13)
Cl2_2 Cl 0.87672(11) 0.50839(7) 0.61059(13)
N1_2 N 0.7252(4) 0.5606(2) 0.6479(4)
C1_2 C 0.6506(5) 0.5606(3) 0.6404(6)
H1_2 H 0.6241 0.5319 0.6586
C2_2 C 0.6103(5) 0.6010(3) 0.6069(6)
H2_2 H 0.5573 0.6002 0.6042
C3_2 C 0.6488(4) 0.6424(3) 0.5775(5)
C4_2 C 0.7259(4) 0.6413(3) 0.5800(5)
H3_2 H 0.7535 0.6680 0.5563
C5_2 C 0.7628(5) 0.6007(3) 0.6174(6)
H4_2 H 0.8159 0.6010 0.6217
C6_2 C 0.6071(5) 0.6869(3) 0.5451(5)
O1_2 O 0.6364(3) 0.7117(2) 0.4863(4)
C13_2 C 0.4082(5) 0.9465(3) 0.2990(5)
H9_2 H 0.4344 0.9749 0.2784
C14_2 C 0.4481(5) 0.9094(3) 0.3419(6)
H10_2 H 0.5007 0.9123 0.3507
C15_2 C 0.4097(4) 0.8676(3) 0.3721(5)
C16_2 C 0.3322(4) 0.8663(3) 0.3632(5)
H11_2 H 0.3041 0.8400 0.3875
C17_2 C 0.2965(4) 0.9051(3) 0.3172(5)
H12_2 H 0.2438 0.9038 0.3083
C18_2 C 0.4532(4) 0.8249(3) 0.4119(5)
O5_2 O 0.5174(3) 0.8187(2) 0.3828(4)
N4_2 N 0.6637(4) 0.9462(2) 0.7287(4)
C19_2 C 0.6308(4) 0.9093(3) 0.7711(5)
H13_2 H 0.6295 0.9112 0.8316
C20_2 C 0.5983(4) 0.8682(3) 0.7305(5)
H14_2 H 0.5755 0.8426 0.7629
C21_2 C 0.5995(4) 0.8649(3) 0.6431(5)
C22_2 C 0.6321(5) 0.9042(3) 0.5971(5)
H15_2 H 0.6335 0.9033 0.5364
C23_2 C 0.6620(5) 0.9440(3) 0.6421(5)
H16_2 H 0.6825 0.9711 0.6112
C24_2 C 0.5708(4) 0.8202(3) 0.5936(5)
O8_2 O 0.6037(3) 0.8106(2) 0.5262(4)
N8_2 N 0.7246(4) 0.4530(2) 0.6329(4)
N11 N 0.8347(3) 0.5559(2) 0.7854(4)
H30_2 H 0.0007 0.5877 0.8507
N14_2 N 0.8363(4) 0.4462(2) 0.7713(4)
C43_2 C 0.9082(5) 0.5535(3) 0.7990(5)
H29_2 H 0.9344 0.5251 0.7784
C44_2 C 0.9481(5) 0.5906(3) 0.8419(6)
C45_2 C 0.9097(4) 0.6324(3) 0.8721(5)
C46_2 C 0.8322(4) 0.6337(3) 0.8632(5)
H31_2 H 0.8041 0.6600 0.8875
C47_2 C 0.7965(4) 0.5949(3) 0.8172(5)
H32_2 H 0.7438 0.5962 0.8083
C48_2 C 0.9532(4) 0.6751(3) 0.9119(5)
O20_2 O 0.9226(3) 0.7009(2) 0.9686(4)
Cu9_2 Cu 0.07674(5) 0.26420(3) 0.43136(6)
O15_2 O 0.0459(3) 0.1962(2) 0.5798(4)
O23_2 O 0.0170(3) 0.2968(2) 0.6252(4)
C7_2 C 0.1924(5) 0.0881(3) 0.1663(5)
H5_2 H 0.1962 0.0931 0.2264
C8_2 C 0.1542(5) 0.1230(3) 0.1171(5)
H6_2 H 0.1321 0.1514 0.1428
C9_2 C 0.1488(5) 0.1159(3) 0.0290(5)
C11_2 C 0.2174(5) 0.0396(3) 0.0482(5)
H8_2 H 0.2387 0.0105 0.0242
O3_2 O 0.0914(3) 0.1944(2) 0.0046(3)
N3_2 N 0.1653(3) 0.4441(2) 0.2146(4)
C13_3 C 0.0918(5) 0.4465(3) 0.2010(5)
H9_3 H 0.0656 0.4749 0.2216
C14_3 C 0.0519(5) 0.4094(3) 0.1581(6)
C15_3 C 0.0903(4) 0.3676(3) 0.1279(5)
C16_3 C 0.1678(4) 0.3663(3) 0.1368(5)
H11_3 H 0.1959 0.3400 0.1125
C17_3 C 0.2035(4) 0.4051(3) 0.1828(5)
H12_3 H 0.2562 0.4038 0.1917
C18_3 C 0.0468(4) 0.3249(3) 0.0881(5)
O6_2 O 0.0774(3) 0.2991(2) 0.0314(4)
Cu6_2 Cu 0.46143(5) 0.25653(3) 0.06538(6)
O25_2 O 0.6037(3) 0.1894(2) 0.0262(4)
Cu1_2 Cu 0.03857(5) 0.24347(3) 0.93462(6)
Cu2_2 Cu 0.42326(5) 0.23580(3) 0.56864(6)
Cu3_3 Cu 0.5000 0.27131(7) 0.7500
C10_2 C 0.1803(5) 0.0727(3) 0.9952(5)
H7_2 H 0.1760 0.0662 0.9356
C12_2 C 0.1112(5) 0.1535(3) 0.9688(5)
O4_2 O 0.1059(5) 0.1436(3) 0.8931(4)
N5_2 N 0.1294(4) 0.2554(3) 0.8626(4)
C25_2 C 0.1962(4) 0.2662(3) 0.9035(5)
H17_2 H 0.1960 0.2750 0.9623
C26_2 C 0.2634(4) 0.2648(3) 0.8631(5)
H18_2 H 0.3084 0.2723 0.8940
C27_2 C 0.2653(4) 0.2526(3) 0.7788(5)
C28_2 C 0.1979(5) 0.2426(3) 0.7351(5)
H19_2 H 0.1971 0.2348 0.6759
C29_2 C 0.1319(5) 0.2443(3) 0.7802(5)
H20_2 H 0.0863 0.2372 0.7504
C30_2 C 0.3381(4) 0.2485(3) 0.7315(5)
O9_2 O 0.3367(3) 0.2281(2) 0.6598(3)
O10_2 O 0.3939(4) 0.2666(3) 0.7732(4)
O11_2 O 0.4811(3) 0.2868(2) 0.6338(4)
Cu4_2 Cu 0.96143(5) 0.24347(3) 0.56538(6)
Cu5_2 Cu 0.53857(5) 0.25653(3) 0.43462(6)
Cu7_2 Cu 0.57674(5) 0.23580(3) 0.93136(6)
Cl3_3 Cl 0.31300(11) 0.50193(7) 0.19121(13)
Cl4_3 Cl 0.12328(11) 0.49161(7) 0.38941(13)
N6_3 N 0.2748(4) 0.4394(2) 0.3521(4)
C31_3 C 0.3494(5) 0.4394(3) 0.3596(6)
H21_3 H 0.3759 0.4681 0.3414
C32_3 C 0.3897(5) 0.3990(3) 0.3931(6)
H22_3 H 0.4427 0.3998 0.3958
C33_3 C 0.3512(4) 0.3576(3) 0.4225(5)
C34_3 C 0.2741(4) 0.3587(3) 0.4200(5)
H23_3 H 0.2465 0.3320 0.4437
C35_3 C 0.2372(5) 0.3993(3) 0.3826(6)
H24_3 H 0.1841 0.3990 0.3783
C36_3 C 0.3929(5) 0.3131(3) 0.4549(5)
O12_2 O 0.3636(3) 0.2883(2) 0.5137(4)
O13_2 O 0.6364(3) 0.2883(2) 0.9863(4)
O14_3 O 0.4541(3) 0.3038(2) 0.4202(4)
C37_2 C 0.8076(5) 0.0881(3) 0.3337(5)
H25_2 H 0.8038 0.0931 0.2736
C38_2 C 0.8458(5) 0.1230(3) 0.3829(5)
H26_2 H 0.8679 0.1514 0.3572
C39_2 C 0.8512(5) 0.1159(3) 0.4710(5)
C40_2 C 0.8197(5) 0.0727(3) 0.5048(5)
H27_2 H 0.8240 0.0662 0.5644
C41_2 C 0.7826(5) 0.0396(3) 0.4518(5)
H28_2 H 0.7613 0.0105 0.4758
C42_2 C 0.8888(5) 0.1535(3) 0.5312(5)
O16_2 O 0.9086(3) 0.1944(2) 0.4954(3)
O17_2 O 0.8941(5) 0.1436(3) 0.6069(4)
N10_2 N 0.6653(3) 0.0559(2) 0.7146(4)
C43_3 C 0.5918(5) 0.0535(3) 0.7010(5)
H29_3 H 0.5656 0.0251 0.7216
C44_3 C 0.5519(5) 0.0906(3) 0.6581(6)
H30_3 H 0.4993 0.0877 0.6493
C45_3 C 0.5903(4) 0.1324(3) 0.6279(5)
C46_3 C 0.6678(4) 0.1337(3) 0.6368(5)
H31_3 H 0.6959 0.1600 0.6125
C47_3 C 0.7035(4) 0.0949(3) 0.6828(5)
H32_3 H 0.7562 0.0962 0.6917
C48_3 C 0.5468(4) 0.1751(3) 0.5881(5)
O18_2 O 0.4826(3) 0.1813(2) 0.6172(4)
O19_2 O 0.5174(3) 0.1813(2) 0.8828(4)
O20_3 O 0.5774(3) 0.2009(2) 0.5314(4)
O21_2 O 0.9226(3) 0.2991(2) 0.4686(4)
C49_3 C 0.3692(4) 0.0907(3) 0.2289(5)
H33_3 H 0.3705 0.0888 0.1684
C50_3 C 0.4017(4) 0.1318(3) 0.2695(5)
H34_3 H 0.4245 0.1574 0.2371
C51_3 C 0.4005(4) 0.1351(3) 0.3569(5)
C52_3 C 0.3679(5) 0.0958(3) 0.4029(5)
H35_3 H 0.3665 0.0967 0.4636
C53_3 C 0.3380(5) 0.0560(3) 0.3579(5)
H36_3 H 0.3175 0.0289 0.3888
C54_3 C 0.4292(4) 0.1798(3) 0.4064(5)
O22_3 O 0.4830(3) 0.2032(2) 0.3748(4)
O24_2 O 0.3963(3) 0.1894(2) 0.4738(4)
N16_2 N 0.8706(4) 0.2554(3) 0.6374(4)
C55_2 C 0.8038(4) 0.2662(3) 0.5965(5)
H37_2 H 0.8040 0.2750 0.5377
C56_2 C 0.7366(4) 0.2648(3) 0.6369(5)
H38_2 H 0.6916 0.2723 0.6060
C57_2 C 0.7347(4) 0.2526(3) 0.7212(5)
C58_2 C 0.8021(5) 0.2426(3) 0.7649(5)
H39_2 H 0.8029 0.2348 0.8241
C59_2 C 0.8681(5) 0.2443(3) 0.7198(5)
H40_2 H 0.9137 0.2372 0.7496
C60_2 C 0.6619(4) 0.2485(3) 0.7685(5)
O26_2 O 0.6633(3) 0.2281(2) 0.8402(3)
O27_2 O 0.6061(4) 0.2666(3) 0.7268(4)
O28_2 O 0.5189(3) 0.2868(2) 0.8662(4)
O1_3 O 0.8636(3) 0.2117(2) 0.0137(4)
H10_3 H 0.9993 0.4123 0.1493
O5_3 O 0.9826(3) 0.3187(2) 0.1172(4)
Cu8_2 Cu 0.92326(5) 0.26420(3) 0.06864(6)
Cl2_3 Cl 0.62328(11) 0.00839(7) 0.88941(13)
N1_3 N 0.7748(4) 0.0606(2) 0.8521(4)
C1_3 C 0.8494(5) 0.0606(3) 0.8596(6)
H1_3 H 0.8759 0.0319 0.8414
C2_3 C 0.8897(5) 0.1010(3) 0.8931(6)
H2_3 H 0.9427 0.1002 0.8958
C3_3 C 0.8512(4) 0.1424(3) 0.9225(5)
C4_3 C 0.7741(4) 0.1413(3) 0.9200(5)
H3_3 H 0.7465 0.1680 0.9437
C5_3 C 0.7372(5) 0.1007(3) 0.8826(6)
H4_3 H 0.6841 0.1010 0.8783
C6_3 C 0.8929(5) 0.1869(3) 0.9549(5)
O2_2 O 0.9541(3) 0.1962(2) 0.9202(4)
C19_3 C 0.8692(4) 0.4093(3) 0.7289(5)
H13_3 H 0.8705 0.4112 0.6684
C20_3 C 0.9017(4) 0.3682(3) 0.7695(5)
H14_3 H 0.9245 0.3426 0.7371
C21_3 C 0.9005(4) 0.3649(3) 0.8569(5)
C22_3 C 0.8679(5) 0.4042(3) 0.9029(5)
H15_3 H 0.8665 0.4033 0.9636
C23_3 C 0.8380(5) 0.4440(3) 0.8579(5)
H16_3 H 0.8175 0.4711 0.8888
C24_3 C 0.9292(4) 0.3202(3) 0.9064(5)
O7_2 O 0.9830(3) 0.2968(2) 0.8748(4)
O8_3 O 0.8963(3) 0.3106(2) 0.9738(4)
Cl1_3 Cl 0.81300(11) 0.99807(7) 0.69121(13)
N8_3 N 0.7754(4) 0.9530(2) 0.8671(4)
Cl2_4 Cl 0.37672(11) 0.00839(7) 0.61059(13)
N1_4 N 0.2252(4) 0.0606(2) 0.6479(4)
C1_4 C 0.1506(5) 0.0606(3) 0.6404(6)
H1_4 H 0.1241 0.0319 0.6586
C2_4 C 0.1103(5) 0.1010(3) 0.6069(6)
H2_4 H 0.0573 0.1002 0.6042
C3_4 C 0.1488(4) 0.1424(3) 0.5775(5)
C4_4 C 0.2259(4) 0.1413(3) 0.5800(5)
H3_4 H 0.2535 0.1680 0.5563
C5_4 C 0.2628(5) 0.1007(3) 0.6174(6)
H4_4 H 0.3159 0.1010 0.6217
C6_4 C 0.1071(5) 0.1869(3) 0.5451(5)
O1_4 O 0.1364(3) 0.2117(2) 0.4863(4)
H10_4 H 0.0007 0.4123 0.3507
O5_4 O 0.0174(3) 0.3187(2) 0.3828(4)
C19_4 C 0.1308(4) 0.4093(3) 0.7711(5)
H13_4 H 0.1295 0.4112 0.8316
C20_4 C 0.0983(4) 0.3682(3) 0.7305(5)
H14_4 H 0.0755 0.3426 0.7629
C21_4 C 0.0995(4) 0.3649(3) 0.6431(5)
C22_4 C 0.1321(5) 0.4042(3) 0.5971(5)
H15_4 H 0.1335 0.4033 0.5364
C23_4 C 0.1620(5) 0.4440(3) 0.6421(5)
H16_4 H 0.1825 0.4711 0.6112
C24_4 C 0.0708(4) 0.3202(3) 0.5936(5)
O8_4 O 0.1037(3) 0.3106(2) 0.5262(4)
N11_2 N 0.3347(3) 0.0559(2) 0.7854(4)
Cl1_4 Cl 0.18700(11) 0.99807(7) 0.80879(13)
N8_4 N 0.2246(4) 0.9530(2) 0.6329(4)
Cl3_4 Cl 0.68700(11) 0.50193(7) 0.30879(13)
Cl4_4 Cl 0.87672(11) 0.49161(7) 0.11059(13)
N6_4 N 0.7252(4) 0.4394(2) 0.1479(4)
C31_4 C 0.6506(5) 0.4394(3) 0.1404(6)
H21_4 H 0.6241 0.4681 0.1586
C32_4 C 0.6103(5) 0.3990(3) 0.1069(6)
H22_4 H 0.5573 0.3998 0.1042
C33_4 C 0.6488(4) 0.3576(3) 0.0775(5)
C34_4 C 0.7259(4) 0.3587(3) 0.0800(5)
H23_4 H 0.7535 0.3320 0.0563
C35_4 C 0.7628(5) 0.3993(3) 0.1174(6)
H24_4 H 0.8159 0.3990 0.1217
C36_4 C 0.6071(5) 0.3131(3) 0.0451(5)
O14_4 O 0.5459(3) 0.3038(2) 0.0798(4)
N12_2 N 0.8347(3) 0.4441(2) 0.2854(4)
C49_4 C 0.6308(4) 0.0907(3) 0.2711(5)
H33_4 H 0.6295 0.0888 0.3316
C50_4 C 0.5983(4) 0.1318(3) 0.2305(5)
H34_4 H 0.5755 0.1574 0.2629
C51_4 C 0.5995(4) 0.1351(3) 0.1431(5)
C52_4 C 0.6321(5) 0.0958(3) 0.0971(5)
H35_4 H 0.6335 0.0967 0.0364
C53_4 C 0.6620(5) 0.0560(3) 0.1421(5)
H36_4 H 0.6825 0.0289 0.1112
C54_4 C 0.5708(4) 0.1798(3) 0.0936(5)
O22_4 O 0.5170(3) 0.2032(2) 0.1252(4)
C13_4 C 0.9082(5) 0.4465(3) 0.2990(5)
H9_4 H 0.9344 0.4749 0.2784
C14_4 C 0.9481(5) 0.4094(3) 0.3419(6)
C15_4 C 0.9097(4) 0.3676(3) 0.3721(5)
C16_4 C 0.8322(4) 0.3663(3) 0.3632(5)
H11_4 H 0.8041 0.3400 0.3875
C17_4 C 0.7965(4) 0.4051(3) 0.3172(5)
H12_4 H 0.7438 0.4038 0.3083
C18_4 C 0.9532(4) 0.3249(3) 0.4119(5)
C43_4 C 0.4082(5) 0.0535(3) 0.7990(5)
H29_4 H 0.4344 0.0251 0.7784
C44_4 C 0.4481(5) 0.0906(3) 0.8419(6)
H30_4 H 0.5007 0.0877 0.8507
C45_4 C 0.4097(4) 0.1324(3) 0.8721(5)
C46_4 C 0.3322(4) 0.1337(3) 0.8632(5)
H31_4 H 0.3041 0.1600 0.8875
C47_4 C 0.2965(4) 0.0949(3) 0.8172(5)
H32_4 H 0.2438 0.0962 0.8083
C48_4 C 0.4532(4) 0.1751(3) 0.9119(5)
O20_4 O 0.4226(3) 0.2009(2) 0.9686(4)
Cu3_4 Cu 0.0000 0.22869(7) 0.2500
C10_3 C 0.3197(5) 0.4273(3) 0.0048(5)
H7_3 H 0.3240 0.4338 0.0644
C12_3 C 0.3888(5) 0.3465(3) 0.0312(5)
O4_3 O 0.3941(5) 0.3564(3) 0.1069(4)
N5_3 N 0.3706(4) 0.2446(3) 0.1374(4)
C25_3 C 0.3038(4) 0.2338(3) 0.0965(5)
H17_3 H 0.3040 0.2250 0.0377
C26_3 C 0.2366(4) 0.2352(3) 0.1369(5)
H18_3 H 0.1916 0.2277 0.1060
C27_3 C 0.2347(4) 0.2474(3) 0.2212(5)
C28_3 C 0.3021(5) 0.2574(3) 0.2649(5)
H19_3 H 0.3029 0.2652 0.3241
C29_3 C 0.3681(5) 0.2557(3) 0.2198(5)
H20_3 H 0.4137 0.2628 0.2496
C30_3 C 0.1619(4) 0.2515(3) 0.2685(5)
O9_3 O 0.1633(3) 0.2719(2) 0.3402(3)
O10_3 O 0.1061(4) 0.2334(3) 0.2268(4)
O11_3 O 0.0189(3) 0.2132(2) 0.3662(4)
C7_3 C 0.3076(5) 0.4119(3) 0.8337(5)
H5_3 H 0.3038 0.4069 0.7736
C8_3 C 0.3458(5) 0.3770(3) 0.8829(5)
H6_3 H 0.3679 0.3486 0.8572
C9_3 C 0.3512(5) 0.3841(3) 0.9710(5)
C11_3 C 0.2826(5) 0.4604(3) 0.9518(5)
H8_3 H 0.2613 0.4895 0.9758
O3_3 O 0.4086(3) 0.3056(2) 0.9954(3)
Cu3_5 Cu 1.0000 0.22869(7) 0.2500
C37_3 C 0.6924(5) 0.4119(3) 0.6663(5)
H25_3 H 0.6962 0.4069 0.7264
C38_3 C 0.6542(5) 0.3770(3) 0.6171(5)
H26_3 H 0.6321 0.3486 0.6428
C39_3 C 0.6488(5) 0.3841(3) 0.5290(5)
C40_3 C 0.6803(5) 0.4273(3) 0.4952(5)
H27_3 H 0.6760 0.4338 0.4356
C41_3 C 0.7174(5) 0.4604(3) 0.5482(5)
H28_3 H 0.7387 0.4895 0.5242
C42_3 C 0.6112(5) 0.3465(3) 0.4688(5)
O16_3 O 0.5914(3) 0.3056(2) 0.5046(3)
O17_3 O 0.6059(5) 0.3564(3) 0.3931(4)
N16_3 N 0.6294(4) 0.2446(3) 0.3626(4)
C55_3 C 0.6962(4) 0.2338(3) 0.4035(5)
H37_3 H 0.6960 0.2250 0.4623
C56_3 C 0.7634(4) 0.2352(3) 0.3631(5)
H38_3 H 0.8084 0.2277 0.3940
C57_3 C 0.7653(4) 0.2474(3) 0.2788(5)
C58_3 C 0.6979(5) 0.2574(3) 0.2351(5)
H39_3 H 0.6971 0.2652 0.1759
C59_3 C 0.6319(5) 0.2557(3) 0.2802(5)
H40_3 H 0.5863 0.2628 0.2504
C60_3 C 0.8381(4) 0.2515(3) 0.2315(5)
O26_3 O 0.8367(3) 0.2719(2) 0.1598(3)
O27_3 O 0.8939(4) 0.2334(3) 0.2732(4)
O28_3 O 0.9811(3) 0.2132(2) 0.1338(4)
Cu3_6 Cu 0.5000 0.72869(7) 0.2500
C10_4 C 0.8197(5) 0.9273(3) 0.0048(5)
H7_4 H 0.8240 0.9338 0.0644
C12_4 C 0.8888(5) 0.8465(3) 0.0312(5)
O4_4 O 0.8941(5) 0.8564(3) 0.1069(4)
N5_4 N 0.8706(4) 0.7446(3) 0.1374(4)
C25_4 C 0.8038(4) 0.7338(3) 0.0965(5)
H17_4 H 0.8040 0.7250 0.0377
C26_4 C 0.7366(4) 0.7352(3) 0.1369(5)
H18_4 H 0.6916 0.7277 0.1060
C27_4 C 0.7347(4) 0.7474(3) 0.2212(5)
C28_4 C 0.8021(5) 0.7574(3) 0.2649(5)
H19_4 H 0.8029 0.7652 0.3241
C29_4 C 0.8681(5) 0.7557(3) 0.2198(5)
H20_4 H 0.9137 0.7628 0.2496
C30_4 C 0.6619(4) 0.7515(3) 0.2685(5)
O9_4 O 0.6633(3) 0.7719(2) 0.3402(3)
O10_4 O 0.6061(4) 0.7334(3) 0.2268(4)
O11_4 O 0.5189(3) 0.7132(2) 0.3662(4)
C37_4 C 0.1924(5) 0.9119(3) 0.6663(5)
H25_4 H 0.1962 0.9069 0.7264
C38_4 C 0.1542(5) 0.8770(3) 0.6171(5)
H26_4 H 0.1321 0.8486 0.6428
C39_4 C 0.1488(5) 0.8841(3) 0.5290(5)
C40_4 C 0.1803(5) 0.9273(3) 0.4952(5)
H27_4 H 0.1760 0.9338 0.4356
C41_4 C 0.2174(5) 0.9604(3) 0.5482(5)
H28_4 H 0.2387 0.9895 0.5242
C42_4 C 0.1112(5) 0.8465(3) 0.4688(5)
O16_4 O 0.0914(3) 0.8056(2) 0.5046(3)
O17_4 O 0.1059(5) 0.8564(3) 0.3931(4)
N16_4 N 0.1294(4) 0.7446(3) 0.3626(4)
C55_4 C 0.1962(4) 0.7338(3) 0.4035(5)
H37_4 H 0.1960 0.7250 0.4623
C56_4 C 0.2634(4) 0.7352(3) 0.3631(5)
H38_4 H 0.3084 0.7277 0.3940
C57_4 C 0.2653(4) 0.7474(3) 0.2788(5)
C58_4 C 0.1979(5) 0.7574(3) 0.2351(5)
H39_4 H 0.1971 0.7652 0.1759
C59_4 C 0.1319(5) 0.7557(3) 0.2802(5)
H40_4 H 0.0863 0.7628 0.2504
C60_4 C 0.3381(4) 0.7515(3) 0.2315(5)
O26_4 O 0.3367(3) 0.7719(2) 0.1598(3)
O27_4 O 0.3939(4) 0.7334(3) 0.2732(4)
O28_4 O 0.4811(3) 0.7132(2) 0.1338(4)
C7_4 C 0.8076(5) 0.9119(3) 0.8337(5)
H5_4 H 0.8038 0.9069 0.7736
C8_4 C 0.8458(5) 0.8770(3) 0.8829(5)
H6_4 H 0.8679 0.8486 0.8572
C9_4 C 0.8512(5) 0.8841(3) 0.9710(5)
C11_4 C 0.7826(5) 0.9604(3) 0.9518(5)
H8_4 H 0.7613 0.9895 0.9758
O3_4 O 0.9086(3) 0.8056(2) 0.9954(3)
loop_
_geom_bond_atom_site_label_1
_geom_bond_atom_site_label_2
_geom_bond_site_symmetry_1
_geom_bond_site_symmetry_2
Rh6 N10 1_555 1_555
Rh8 N7 1_555 1_555
Cu4 Cu9 1_555 1_555
Cu7 O13 1_555 1_555
O15 Cu4 1_555 1_555
N7 C37 1_555 1_555
C37 H25 1_555 1_555
C38 C37 1_555 1_555
H26 C38 1_555 1_555
C39 C38 1_555 1_555
C40 C39 1_555 1_555
H27 C40 1_555 1_555
C41 N7 1_555 1_555
H28 C41 1_555 1_555
C42 C39 1_555 1_555
O16 Cu4 1_555 1_555
O17 C42 1_555 1_555
N10 C43 1_555 1_555
C43 H29 1_555 1_555
C44 C43 1_555 1_555
C45 C44 1_555 1_555
C46 C45 1_555 1_555
H31 C46 1_555 1_555
C47 N10 1_555 1_555
H32 C47 1_555 1_555
C48 C45 1_555 1_555
O19 Cu7 1_555 1_555
O20 Cu5 1_555 1_555
O21 Cu4 1_555 1_555
O23 Cu4 1_555 1_555
N16 Cu4 1_555 1_555
C55 N16 1_555 1_555
H37 C55 1_555 1_555
C56 C55 1_555 1_555
H38 C56 1_555 1_555
C57 C56 1_555 1_555
C58 C57 1_555 1_555
H39 C58 1_555 1_555
C59 N16 1_555 1_555
H40 C59 1_555 1_555
C60 C57 1_555 1_555
O26 Cu7 1_555 1_555
O27 Cu3 1_555 1_555
O28 Cu3 1_555 1_555
Cu7 O28 1_555 1_555
C40 C41 1_555 1_555
C42 O16 1_555 1_555
C46 C47 1_555 1_555
C48 O20 1_555 1_555
C58 C59 1_555 1_555
C60 O26 1_555 1_555
C60 O27 1_555 1_555
N2 C7 1_555 1_555
C7 H5 1_555 1_555
C8 C7 1_555 1_555
H6 C8 1_555 1_555
C9 C8 1_555 1_555
C11 N2 1_555 1_555
H8 C11 1_555 1_555
N3 C13 1_555 1_555
C13 H9 1_555 1_555
C14 C13 1_555 1_555
H10 C14 1_555 1_555
C15 C14 1_555 1_555
C16 C15 1_555 1_555
H11 C16 1_555 1_555
C17 N3 1_555 1_555
H12 C17 1_555 1_555
C18 C15 1_555 1_555
O5 C18 1_555 1_555
Rh3 N2 1_555 1_555
Rh4 N3 1_555 1_555
O1 Cu8 1_555 1_555
C16 C17 1_555 1_555
C18 O6 1_555 1_555
O5 Cu8 1_555 1_555
Rh6 Cl1 1_555 1_555
Cu1 O2 1_555 1_555
Cu2 O9 1_555 1_555
Cu3_2 O10 1_555 1_555
Cl2 Rh6 1_555 1_555
N1 Rh6 1_555 1_555
C1 N1 1_555 1_555
H1 C1 1_555 1_555
C2 C1 1_555 1_555
H2 C2 1_555 1_555
C3 C2 1_555 1_555
C4 C3 1_555 1_555
H3 C4 1_555 1_555
C5 N1 1_555 1_555
H4 C5 1_555 1_555
C6 C3 1_555 1_555
O2 C6 1_555 1_555
H7 C10 1_555 1_555
O4 C12 1_555 1_555
N4 C19 1_555 1_555
C19 H13 1_555 1_555
C20 C19 1_555 1_555
H14 C20 1_555 1_555
C21 C20 1_555 1_555
C22 C21 1_555 1_555
H15 C22 1_555 1_555
C23 N4 1_555 1_555
H16 C23 1_555 1_555
C24 C21 1_555 1_555
O7 Cu1 1_555 1_555
O8 C24 1_555 1_555
N5 Cu1 1_555 1_555
C25 N5 1_555 1_555
H17 C25 1_555 1_555
C26 C25 1_555 1_555
H18 C26 1_555 1_555
C27 C26 1_555 1_555
C28 C27 1_555 1_555
H19 C28 1_555 1_555
C29 N5 1_555 1_555
H20 C29 1_555 1_555
C30 C27 1_555 1_555
O9 C30 1_555 1_555
O10 C30 1_555 1_555
O11 Cu2 1_555 1_555
Rh3 N13 1_555 1_555
Cl4 Rh4 1_555 1_555
N6 Rh4 1_555 1_555
C31 N6 1_555 1_555
H21 C31 1_555 1_555
C32 C31 1_555 1_555
H22 C32 1_555 1_555
C33 C32 1_555 1_555
C34 C33 1_555 1_555
H23 C34 1_555 1_555
C35 N6 1_555 1_555
H24 C35 1_555 1_555
C36 C33 1_555 1_555
O12 Cu2 1_555 1_555
N8 Rh6 1_555 1_555
O18 Cu2 1_555 1_555
N13 C49 1_555 1_555
N14 Rh6 1_555 1_555
C49 H33 1_555 1_555
C50 C49 1_555 1_555
H34 C50 1_555 1_555
C51 C50 1_555 1_555
C52 C51 1_555 1_555
H35 C52 1_555 1_555
C53 N13 1_555 1_555
H36 C53 1_555 1_555
C54 C51 1_555 1_555
O24 Cu2 1_555 1_555
Cu3_2 O11 1_555 1_555
C4 C5 1_555 1_555
C22 C23 1_555 1_555
C24 O7 1_555 1_555
C28 C29 1_555 1_555
C34 C35 1_555 1_555
C36 O12 1_555 1_555
C36 O14 1_555 1_555
C52 C53 1_555 1_555
C54 O22 1_555 1_555
C54 O24 1_555 1_555
Rh8 N13_2 1_555 1_555
Cl4_2 Rh2 1_555 1_555
N6_2 Rh2 1_555 1_555
C31_2 N6_2 1_555 1_555
H21_2 C31_2 1_555 1_555
C32_2 C31_2 1_555 1_555
H22_2 C32_2 1_555 1_555
C33_2 C32_2 1_555 1_555
C34_2 C33_2 1_555 1_555
H23_2 C34_2 1_555 1_555
C35_2 N6_2 1_555 1_555
H24_2 C35_2 1_555 1_555
C36_2 C33_2 1_555 1_555
N12 Rh2 1_555 1_555
N13_2 C49_2 1_555 1_555
C49_2 H33_2 1_555 1_555
C50_2 C49_2 1_555 1_555
H34_2 C50_2 1_555 1_555
C51_2 C50_2 1_555 1_555
C52_2 C51_2 1_555 1_555
H35_2 C52_2 1_555 1_555
C53_2 N13_2 1_555 1_555
H36_2 C53_2 1_555 1_555
C54_2 C51_2 1_555 1_555
C34_2 C35_2 1_555 1_555
C36_2 O14_2 1_555 1_555
C52_2 C53_2 1_555 1_555
C54_2 O22_2 1_555 1_555
C54_2 O25 1_555 1_555
Rh1 Cl1_2 1_555 1_555
Cl2_2 Rh1 1_555 1_555
N1_2 Rh1 1_555 1_555
C1_2 N1_2 1_555 1_555
H1_2 C1_2 1_555 1_555
C2_2 C1_2 1_555 1_555
H2_2 C2_2 1_555 1_555
C3_2 C2_2 1_555 1_555
C4_2 C3_2 1_555 1_555
H3_2 C4_2 1_555 1_555
C5_2 N1_2 1_555 1_555
H4_2 C5_2 1_555 1_555
C6_2 C3_2 1_555 1_555
O1_2 C6_2 1_555 1_555
O15 C6_2 1_555 1_555
N12 C13_2 1_555 1_555
C13_2 H9_2 1_555 1_555
C14_2 C13_2 1_555 1_555
H10_2 C14_2 1_555 1_555
C15_2 C14_2 1_555 1_555
C16_2 C15_2 1_555 1_555
H11_2 C16_2 1_555 1_555
C17_2 N12 1_555 1_555
H12_2 C17_2 1_555 1_555
C18_2 C15_2 1_555 1_555
O5_2 C18_2 1_555 1_555
N4_2 C19_2 1_555 1_555
C19_2 H13_2 1_555 1_555
C20_2 C19_2 1_555 1_555
H14_2 C20_2 1_555 1_555
C21_2 C20_2 1_555 1_555
C22_2 C21_2 1_555 1_555
H15_2 C22_2 1_555 1_555
C23_2 N4_2 1_555 1_555
H16_2 C23_2 1_555 1_555
C24_2 C21_2 1_555 1_555
O8_2 C24_2 1_555 1_555
N8_2 Rh1 1_555 1_555
N11 Rh1 1_555 1_555
N14_2 Rh1 1_555 1_555
C4_2 C5_2 1_555 1_555
O1_2 Cu9 1_555 1_555
C16_2 C17_2 1_555 1_555
C18_2 O21 1_555 1_555
O5_2 Cu9 1_555 1_555
C22_2 C23_2 1_555 1_555
C24_2 O23 1_555 1_555
O8_2 Cu9 1_555 1_555
N11 C43_2 1_555 1_555
C43_2 H29_2 1_555 1_555
C44_2 C43_2 1_555 1_555
C45_2 C44_2 1_555 1_555
C46_2 C45_2 1_555 1_555
H31_2 C46_2 1_555 1_555
C47_2 N11 1_555 1_555
H32_2 C47_2 1_555 1_555
C48_2 C45_2 1_555 1_555
C46_2 C47_2 1_555 1_555
C48_2 O20_2 1_555 1_555
N9_2 C7_2 1_555 1_555
C7_2 H5_2 1_555 1_555
C8_2 C7_2 1_555 1_555
H6_2 C8_2 1_555 1_555
C9_2 C8_2 1_555 1_555
C11_2 N9_2 1_555 1_555
H8_2 C11_2 1_555 1_555
N3_2 C13_3 1_555 1_555
C13_3 H9_3 1_555 1_555
C14_3 C13_3 1_555 1_555
C15_3 C14_3 1_555 1_555
C16_3 C15_3 1_555 1_555
H11_3 C16_3 1_555 1_555
C17_3 N3_2 1_555 1_555
H12_3 C17_3 1_555 1_555
C18_3 C15_3 1_555 1_555
Rh8 N3_2 1_555 1_555
C16_3 C17_3 1_555 1_555
C18_3 O6_2 1_555 1_555
Cu2_2 O9_2 1_555 1_555
Cu3_3 O10_2 1_555 1_555
H7_2 C10_2 1_555 1_555
O4_2 C12_2 1_555 1_555
N5_2 Cu1_2 1_555 1_555
C25_2 N5_2 1_555 1_555
H17_2 C25_2 1_555 1_555
C26_2 C25_2 1_555 1_555
H18_2 C26_2 1_555 1_555
C27_2 C26_2 1_555 1_555
C28_2 C27_2 1_555 1_555
H19_2 C28_2 1_555 1_555
C29_2 N5_2 1_555 1_555
H20_2 C29_2 1_555 1_555
C30_2 C27_2 1_555 1_555
O9_2 C30_2 1_555 1_555
O10_2 C30_2 1_555 1_555
O11_2 Cu2_2 1_555 1_555
Rh8 Cl3_3 1_555 1_555
Rh5_2 N10_2 1_555 1_555
Cu5_2 Cu2_2 1_555 1_555
Cu7_2 O13_2 1_555 1_555
Cl4_3 Rh8 1_555 1_555
N6_3 Rh8 1_555 1_555
C31_3 N6_3 1_555 1_555
H21_3 C31_3 1_555 1_555
C32_3 C31_3 1_555 1_555
H22_3 C32_3 1_555 1_555
C33_3 C32_3 1_555 1_555
C34_3 C33_3 1_555 1_555
H23_3 C34_3 1_555 1_555
C35_3 N6_3 1_555 1_555
H24_3 C35_3 1_555 1_555
C36_3 C33_3 1_555 1_555
O12_2 Cu2_2 1_555 1_555
O14_3 Cu5_2 1_555 1_555
N9 C37_2 1_555 1_555
C37_2 H25_2 1_555 1_555
C38_2 C37_2 1_555 1_555
H26_2 C38_2 1_555 1_555
C39_2 C38_2 1_555 1_555
C40_2 C39_2 1_555 1_555
H27_2 C40_2 1_555 1_555
C41_2 N9 1_555 1_555
H28_2 C41_2 1_555 1_555
C42_2 C39_2 1_555 1_555
O16_2 Cu4_2 1_555 1_555
O17_2 C42_2 1_555 1_555
N10_2 C43_3 1_555 1_555
C43_3 H29_3 1_555 1_555
C44_3 C43_3 1_555 1_555
H30_3 C44_3 1_555 1_555
C45_3 C44_3 1_555 1_555
C46_3 C45_3 1_555 1_555
H31_3 C46_3 1_555 1_555
C47_3 N10_2 1_555 1_555
H32_3 C47_3 1_555 1_555
C48_3 C45_3 1_555 1_555
O18_2 Cu2_2 1_555 1_555
O19_2 Cu7_2 1_555 1_555
O20_3 Cu5_2 1_555 1_555
O21_2 Cu4_2 1_555 1_555
N15_2 C49_3 1_555 1_555
C49_3 H33_3 1_555 1_555
C50_3 C49_3 1_555 1_555
H34_3 C50_3 1_555 1_555
C51_3 C50_3 1_555 1_555
C52_3 C51_3 1_555 1_555
H35_3 C52_3 1_555 1_555
C53_3 N15_2 1_555 1_555
H36_3 C53_3 1_555 1_555
C54_3 C51_3 1_555 1_555
O22_3 Cu5_2 1_555 1_555
O24_2 Cu2_2 1_555 1_555
N16_2 Cu4_2 1_555 1_555
C55_2 N16_2 1_555 1_555
H37_2 C55_2 1_555 1_555
C56_2 C55_2 1_555 1_555
H38_2 C56_2 1_555 1_555
C57_2 C56_2 1_555 1_555
C58_2 C57_2 1_555 1_555
H39_2 C58_2 1_555 1_555
C59_2 N16_2 1_555 1_555
H40_2 C59_2 1_555 1_555
C60_2 C57_2 1_555 1_555
O26_2 Cu7_2 1_555 1_555
O27_2 Cu3_3 1_555 1_555
O28_2 Cu3_3 1_555 1_555
Cu3_3 O11_2 1_555 1_555
C28_2 C29_2 1_555 1_555
Cu7_2 O28_2 1_555 1_555
C34_3 C35_3 1_555 1_555
C36_3 O12_2 1_555 1_555
C36_3 O14_3 1_555 1_555
C40_2 C41_2 1_555 1_555
C42_2 O16_2 1_555 1_555
C46_3 C47_3 1_555 1_555
C48_3 O18_2 1_555 1_555
C48_3 O20_3 1_555 1_555
C52_3 C53_3 1_555 1_555
C54_3 O22_3 1_555 1_555
C54_3 O24_2 1_555 1_555
C58_2 C59_2 1_555 1_555
C60_2 O26_2 1_555 1_555
C60_2 O27_2 1_555 1_555
O1_3 Cu8_2 1_555 1_555
O5_3 Cu8_2 1_555 1_555
Cl2_3 Rh5_2 1_555 1_555
N1_3 Rh5_2 1_555 1_555
C1_3 N1_3 1_555 1_555
H1_3 C1_3 1_555 1_555
C2_3 C1_3 1_555 1_555
H2_3 C2_3 1_555 1_555
C3_3 C2_3 1_555 1_555
C4_3 C3_3 1_555 1_555
H3_3 C4_3 1_555 1_555
C5_3 N1_3 1_555 1_555
H4_3 C5_3 1_555 1_555
C6_3 C3_3 1_555 1_555
O2_2 C6_3 1_555 1_555
N14_2 C19_3 1_555 1_555
C19_3 H13_3 1_555 1_555
C20_3 C19_3 1_555 1_555
H14_3 C20_3 1_555 1_555
C21_3 C20_3 1_555 1_555
C22_3 C21_3 1_555 1_555
H15_3 C22_3 1_555 1_555
C23_3 N14_2 1_555 1_555
H16_3 C23_3 1_555 1_555
C24_3 C21_3 1_555 1_555
O8_3 C24_3 1_555 1_555
C4_3 C5_3 1_555 1_555
C22_3 C23_3 1_555 1_555
C24_3 O7_2 1_555 1_555
Cl2_4 Rh5 1_555 1_555
N1_4 Rh5 1_555 1_555
C1_4 N1_4 1_555 1_555
H1_4 C1_4 1_555 1_555
C2_4 C1_4 1_555 1_555
H2_4 C2_4 1_555 1_555
C3_4 C2_4 1_555 1_555
C4_4 C3_4 1_555 1_555
H3_4 C4_4 1_555 1_555
C5_4 N1_4 1_555 1_555
H4_4 C5_4 1_555 1_555
C6_4 C3_4 1_555 1_555
O1_4 C6_4 1_555 1_555
O15_2 C6_4 1_555 1_555
N14 C19_4 1_555 1_555
C19_4 H13_4 1_555 1_555
C20_4 C19_4 1_555 1_555
H14_4 C20_4 1_555 1_555
C21_4 C20_4 1_555 1_555
C22_4 C21_4 1_555 1_555
H15_4 C22_4 1_555 1_555
C23_4 N14 1_555 1_555
H16_4 C23_4 1_555 1_555
C24_4 C21_4 1_555 1_555
O8_4 C24_4 1_555 1_555
N11_2 Rh5 1_555 1_555
C4_4 C5_4 1_555 1_555
O1_4 Cu9_2 1_555 1_555
O5_4 Cu9_2 1_555 1_555
C22_4 C23_4 1_555 1_555
C24_4 O23_2 1_555 1_555
O8_4 Cu9_2 1_555 1_555
Rh3 Cl3_4 1_555 1_555
Cl4_4 Rh3 1_555 1_555
N6_4 Rh3 1_555 1_555
C31_4 N6_4 1_555 1_555
H21_4 C31_4 1_555 1_555
C32_4 C31_4 1_555 1_555
H22_4 C32_4 1_555 1_555
C33_4 C32_4 1_555 1_555
C34_4 C33_4 1_555 1_555
H23_4 C34_4 1_555 1_555
C35_4 N6_4 1_555 1_555
H24_4 C35_4 1_555 1_555
C36_4 C33_4 1_555 1_555
O14_4 Cu6_2 1_555 1_555
N12_2 Rh3 1_555 1_555
N15 C49_4 1_555 1_555
C49_4 H33_4 1_555 1_555
C50_4 C49_4 1_555 1_555
H34_4 C50_4 1_555 1_555
C51_4 C50_4 1_555 1_555
C52_4 C51_4 1_555 1_555
H35_4 C52_4 1_555 1_555
C53_4 N15 1_555 1_555
H36_4 C53_4 1_555 1_555
C54_4 C51_4 1_555 1_555
O22_4 Cu6_2 1_555 1_555
C34_4 C35_4 1_555 1_555
C36_4 O14_4 1_555 1_555
C52_4 C53_4 1_555 1_555
C54_4 O22_4 1_555 1_555
C54_4 O25_2 1_555 1_555
N12_2 C13_4 1_555 1_555
C13_4 H9_4 1_555 1_555
C14_4 C13_4 1_555 1_555
C15_4 C14_4 1_555 1_555
C16_4 C15_4 1_555 1_555
H11_4 C16_4 1_555 1_555
C17_4 N12_2 1_555 1_555
H12_4 C17_4 1_555 1_555
C18_4 C15_4 1_555 1_555
N11_2 C43_4 1_555 1_555
C43_4 H29_4 1_555 1_555
C44_4 C43_4 1_555 1_555
H30_4 C44_4 1_555 1_555
C45_4 C44_4 1_555 1_555
C46_4 C45_4 1_555 1_555
H31_4 C46_4 1_555 1_555
C47_4 N11_2 1_555 1_555
H32_4 C47_4 1_555 1_555
C48_4 C45_4 1_555 1_555
C16_4 C17_4 1_555 1_555
C18_4 O21_2 1_555 1_555
C46_4 C47_4 1_555 1_555
C48_4 O19_2 1_555 1_555
C48_4 O20_4 1_555 1_555
Cu9_2 O9_3 1_555 1_555
Cu3_4 O10_3 1_555 1_555
H7_3 C10_3 1_555 1_555
O4_3 C12_3 1_555 1_555
N5_3 Cu6_2 1_555 1_555
C25_3 N5_3 1_555 1_555
H17_3 C25_3 1_555 1_555
C26_3 C25_3 1_555 1_555
H18_3 C26_3 1_555 1_555
C27_3 C26_3 1_555 1_555
C28_3 C27_3 1_555 1_555
H19_3 C28_3 1_555 1_555
C29_3 N5_3 1_555 1_555
H20_3 C29_3 1_555 1_555
C30_3 C27_3 1_555 1_555
O9_3 C30_3 1_555 1_555
O10_3 C30_3 1_555 1_555
O11_3 Cu9_2 1_555 1_555
Cu3_4 O11_3 1_555 1_555
C28_3 C29_3 1_555 1_555
N8 C7_3 1_555 1_555
C7_3 H5_3 1_555 1_555
C8_3 C7_3 1_555 1_555
H6_3 C8_3 1_555 1_555
C9_3 C8_3 1_555 1_555
C11_3 N8 1_555 1_555
H8_3 C11_3 1_555 1_555
N8_2 C37_3 1_555 1_555
C37_3 H25_3 1_555 1_555
C38_3 C37_3 1_555 1_555
H26_3 C38_3 1_555 1_555
C39_3 C38_3 1_555 1_555
C40_3 C39_3 1_555 1_555
H27_3 C40_3 1_555 1_555
C41_3 N8_2 1_555 1_555
H28_3 C41_3 1_555 1_555
C42_3 C39_3 1_555 1_555
O16_3 Cu5_2 1_555 1_555
O17_3 C42_3 1_555 1_555
N16_3 Cu5_2 1_555 1_555
C55_3 N16_3 1_555 1_555
H37_3 C55_3 1_555 1_555
C56_3 C55_3 1_555 1_555
H38_3 C56_3 1_555 1_555
C57_3 C56_3 1_555 1_555
C58_3 C57_3 1_555 1_555
H39_3 C58_3 1_555 1_555
C59_3 N16_3 1_555 1_555
H40_3 C59_3 1_555 1_555
C60_3 C57_3 1_555 1_555
O26_3 Cu8_2 1_555 1_555
O27_3 Cu3_5 1_555 1_555
O28_3 Cu3_5 1_555 1_555
Cu8_2 O28_3 1_555 1_555
C40_3 C41_3 1_555 1_555
C42_3 O16_3 1_555 1_555
C58_3 C59_3 1_555 1_555
C60_3 O26_3 1_555 1_555
C60_3 O27_3 1_555 1_555
Cu9 O9_4 1_555 1_555
Cu3_6 O10_4 1_555 1_555
H7_4 C10_4 1_555 1_555
O4_4 C12_4 1_555 1_555
N5_4 Cu6 1_555 1_555
C25_4 N5_4 1_555 1_555
H17_4 C25_4 1_555 1_555
C26_4 C25_4 1_555 1_555
H18_4 C26_4 1_555 1_555
C27_4 C26_4 1_555 1_555
C28_4 C27_4 1_555 1_555
H19_4 C28_4 1_555 1_555
C29_4 N5_4 1_555 1_555
H20_4 C29_4 1_555 1_555
C30_4 C27_4 1_555 1_555
O9_4 C30_4 1_555 1_555
O10_4 C30_4 1_555 1_555
O11_4 Cu9 1_555 1_555
N8_4 C37_4 1_555 1_555
C37_4 H25_4 1_555 1_555
C38_4 C37_4 1_555 1_555
H26_4 C38_4 1_555 1_555
C39_4 C38_4 1_555 1_555
C40_4 C39_4 1_555 1_555
H27_4 C40_4 1_555 1_555
C41_4 N8_4 1_555 1_555
H28_4 C41_4 1_555 1_555
C42_4 C39_4 1_555 1_555
O16_4 Cu5 1_555 1_555
O17_4 C42_4 1_555 1_555
N16_4 Cu5 1_555 1_555
C55_4 N16_4 1_555 1_555
H37_4 C55_4 1_555 1_555
C56_4 C55_4 1_555 1_555
H38_4 C56_4 1_555 1_555
C57_4 C56_4 1_555 1_555
C58_4 C57_4 1_555 1_555
H39_4 C58_4 1_555 1_555
C59_4 N16_4 1_555 1_555
H40_4 C59_4 1_555 1_555
C60_4 C57_4 1_555 1_555
O26_4 Cu8 1_555 1_555
O27_4 Cu3_6 1_555 1_555
O28_4 Cu3_6 1_555 1_555
Cu3_6 O11_4 1_555 1_555
C28_4 C29_4 1_555 1_555
Cu8 O28_4 1_555 1_555
C40_4 C41_4 1_555 1_555
C42_4 O16_4 1_555 1_555
C58_4 C59_4 1_555 1_555
C60_4 O26_4 1_555 1_555
C60_4 O27_4 1_555 1_555
N8_3 C7_4 1_555 1_555
C7_4 H5_4 1_555 1_555
C8_4 C7_4 1_555 1_555
H6_4 C8_4 1_555 1_555
C9_4 C8_4 1_555 1_555
C11_4 N8_3 1_555 1_555
H8_4 C11_4 1_555 1_555

#END
