
###############################################################################
#
# This file contains modified crystal structure data generated from the
# MOF subset of the Cambridge Structural Database (CSD) v543 
# hosted by the Cambridge Crystallographic Data Centre (CCDC).
#
# This work is licensed under the Creative Commons
# Attribution-NonCommercial-ShareAlike 4.0 International License.
# To view a copy of this license, visit
# http://creativecommons.org/licenses/by-nc-sa/4.0/
# or send a letter to
# Creative Commons, PO Box 1866, Mountain View, CA 94042, USA.
#
# CIF created using the CSD Python API on 29 September 2022
# The structure has been converted into the P1 space group
# The structure has a 3D framework
# The original CSD entry HEGJUZ is in the monoclinic crystal system
# The framework has been calculated to contain at least 10.0% void space
# The void calculation uses a probe of radius 1.32A, grid spacing 0.4
#
###############################################################################

data_HEGJUZ
_chemical_formula_moiety         '(C208 H128 N8 O48 Zn12)n'
_symmetry_cell_setting           triclinic
_symmetry_space_group_name_H-M   'P 1'
_symmetry_Int_Tables_number      1
_space_group_name_Hall           'P 1'
loop_
_symmetry_equiv_pos_site_id
_symmetry_equiv_pos_as_xyz
1 x,y,z
_cell_length_a                   14.608(3)
_cell_length_b                   18.041(4)
_cell_length_c                   24.803(5)
_cell_angle_alpha                90
_cell_angle_beta                 90.005(1)
_cell_angle_gamma                90
_cell_volume                     6536.66
loop_
_atom_site_label
_atom_site_type_symbol
_atom_site_fract_x
_atom_site_fract_y
_atom_site_fract_z
Zn8 Zn 0.03143(3) 0.94992(2) 0.649890(19)
N1 N 0.4677(2) 0.04866(14) 0.14973(14)
N2 N 0.5247(2) 0.43697(15) 0.15072(15)
C1 C 0.4992(3) 0.0847(2) 0.10632(16)
H1 H 0.5140 0.0567 0.0751
C2 C 0.5113(3) 0.1608(2) 0.10488(17)
H2 H 0.5328 0.1846 0.0731
C3 C 0.4911(3) 0.20189(18) 0.15101(18)
C4 C 0.4588(3) 0.1634(2) 0.19678(17)
H3 H 0.4440 0.1895 0.2289
C5 C 0.4491(3) 0.0884(2) 0.19430(16)
H4 H 0.4282 0.0630 0.2255
C6 C 0.4917(3) 0.4007(2) 0.10725(16)
H5 H 0.4761 0.4287 0.0761
C7 C 0.4796(3) 0.3250(2) 0.10595(16)
H6 H 0.4557 0.3016 0.0746
C8 C 0.5027(3) 0.28329(19) 0.15090(17)
C9 C 0.5368(3) 0.3204(2) 0.19596(16)
H7 H 0.5527 0.2936 0.2276
C10 C 0.5471(3) 0.3967(2) 0.19414(17)
H8 H 0.5710 0.4214 0.2249
Zn9 Zn 0.53143(3) 0.55008(2) 0.149890(19)
Zn1 Zn 0.46033(3) 0.93541(2) 0.14946(2)
Zn2 Zn 0.49379(3) 0.74366(2) 0.150926(17)
O1 O 0.33229(18) 0.90877(14) 0.15878(12)
O2 O 0.37943(17) 0.80225(15) 0.12325(11)
O5 O 0.5212(2) 0.91842(14) 0.08105(11)
O6 O 0.58365(18) 0.81159(14) 0.10937(10)
O9 O 0.5383(2) 0.91953(14) 0.21161(11)
O10 O 0.49857(19) 0.80106(14) 0.22323(10)
O11 O 0.9553(2) 0.93606(14) 0.58645(11)
O12 O 0.98740(18) 0.81562(14) 0.57933(10)
C11 C 0.3187(2) 0.8426(2) 0.14347(17)
C12 C 0.2230(3) 0.8139(2) 0.14747(19)
C13 C 0.1537(3) 0.8578(2) 0.16869(17)
H9 H 0.1672 0.9063 0.1814
C14 C 0.0642(3) 0.8308(2) 0.17134(17)
H10 H 0.0171 0.8615 0.1854
C15 C 0.0431(3) 0.75922(19) 0.15352(19)
C16 C 0.1132(3) 0.7162(2) 0.13113(19)
H11 H 0.0998 0.6681 0.1176
C17 C 0.2027(3) 0.7431(2) 0.1285(2)
H12 H 0.2499 0.7130 0.1137
C25 C 0.5741(3) 0.8627(2) 0.07546(16)
C26 C 0.6316(3) 0.8616(2) 0.02550(17)
H17 H 0.6250 0.9736 0.0123
C31 C 0.6653(3) 0.7957(2) 0.00550(17)
H20 H 0.6540 0.7507 0.0242
C39 C 0.5430(3) 0.8582(2) 0.23546(15)
C40 C 0.6024(3) 0.8566(2) 0.28426(17)
C41 C 0.6621(3) 0.9150(2) 0.29457(17)
H25 H 0.6642 0.9556 0.2702
C42 C 0.7182(3) 0.9153(2) 0.33937(16)
H26 H 0.7595 0.9552 0.3450
C43 C 0.7142(3) 0.8573(2) 0.37632(17)
C44 C 0.6562(3) 0.7982(2) 0.36636(17)
H27 H 0.6540 0.7581 0.3911
C45 C 0.6008(3) 0.7969(2) 0.32049(17)
H28 H 0.5622 0.7556 0.3138
C46 C 0.7719(3) 0.8606(2) 0.42590(17)
C47 C 0.7974(3) 0.9291(2) 0.44728(17)
H29 H 0.7769 0.9735 0.4306
C48 C 0.8526(3) 0.9327(2) 0.49274(17)
H30 H 0.8688 0.9797 0.5071
C49 C 0.8842(3) 0.8695(2) 0.51722(16)
C50 C 0.8576(3) 0.8002(2) 0.49665(17)
H31 H 0.8781 0.7560 0.5136
C51 C 0.8017(3) 0.7963(2) 0.45177(17)
H32 H 0.7834 0.7492 0.4384
C52 C 0.9469(3) 0.8729(2) 0.56461(15)
Zn6 Zn 0.99379(3) 0.75634(2) 0.650926(17)
O13 O 0.61026(18) 0.68749(15) 0.17838(11)
O15 O 0.40648(18) 0.67162(14) 0.19057(10)
O17 O 0.48740(18) 0.68438(14) 0.07933(10)
O7 O 0.9749(2) 0.93187(14) 0.71938(11)
O8 O 0.90648(18) 0.82838(14) 0.69057(10)
C27 C 0.6489(3) 0.9284(2) 0.99864(17)
C28 C 0.7009(3) 0.9282(2) 0.95216(17)
H18 H 0.7140 0.9737 0.9345
C29 C 0.7346(3) 0.8616(2) 0.93063(17)
C30 C 0.7162(3) 0.7952(2) 0.95777(16)
H19 H 0.7384 0.7496 0.9437
C32 C 0.7861(3) 0.8630(2) 0.87872(17)
C33 C 0.8389(3) 0.9241(3) 0.86531(18)
H21 H 0.8434 0.9642 0.8900
C34 C 0.8853(3) 0.9277(2) 0.81646(18)
H22 H 0.9216 0.9698 0.8080
C35 C 0.8783(3) 0.8697(2) 0.78041(16)
C36 C 0.8253(3) 0.8086(2) 0.79290(17)
H23 H 0.8192 0.7695 0.7675
C37 C 0.7813(3) 0.8041(2) 0.84211(17)
H24 H 0.7476 0.7608 0.8511
C38 C 0.9237(3) 0.8757(2) 0.72632(15)
O3 O 0.65956(17) 0.57903(13) 0.14693(13)
C18 C 0.9474(3) 0.7306(2) 0.15715(19)
C19 C 0.9307(3) 0.6544(2) 0.1547(2)
H13 H 0.9807 0.6209 0.1519
C20 C 0.8428(3) 0.6273(2) 0.15629(19)
H14 H 0.8327 0.5753 0.1549
C21 C 0.7688(3) 0.6750(2) 0.15986(16)
C22 C 0.7846(3) 0.7504(2) 0.16315(17)
H15 H 0.7344 0.7834 0.1675
C23 C 0.8728(3) 0.7785(2) 0.16016(17)
H16 H 0.8824 0.8306 0.1602
C24 C 0.6726(3) 0.6464(2) 0.16122(16)
O14 O 0.4749(2) 0.56813(14) 0.21938(11)
O16 O 0.4553(2) 0.56394(14) 0.08645(11)
H30_2 H 0.3688 0.5203 0.0071
C49_2 C 0.3842(3) 0.6305(2) 0.01722(16)
H31_2 H 0.3781 0.7440 0.0136
C52_2 C 0.4469(3) 0.6271(2) 0.06461(15)
O5_2 O 0.0212(2) 0.58158(14) 0.58105(11)
O6_2 O 0.08365(18) 0.68841(14) 0.60937(10)
O9_2 O 0.0383(2) 0.58047(14) 0.71161(11)
N2_2 N 0.0247(2) 0.06303(15) 0.65072(15)
H1_2 H 0.0140 0.4433 0.5751
C2_2 C 0.0113(3) 0.3392(2) 0.60488(17)
H2_2 H 0.0328 0.3154 0.5731
C8_2 C 0.0027(3) 0.21671(19) 0.65090(17)
C9_2 C 0.0368(3) 0.1796(2) 0.69596(16)
H7_2 H 0.0527 0.2064 0.7276
C10_2 C 0.0471(3) 0.1033(2) 0.69414(17)
H8_2 H 0.0710 0.0786 0.7249
C25_2 C 0.0741(3) 0.6373(2) 0.57546(16)
C26_2 C 0.1316(3) 0.6384(2) 0.52550(17)
C27_2 C 0.1489(3) 0.5716(2) 0.49864(17)
H17_2 H 0.1250 0.5264 0.5123
C28_2 C 0.2009(3) 0.5718(2) 0.45216(17)
H18_2 H 0.2140 0.5263 0.4345
C29_2 C 0.2346(3) 0.6384(2) 0.43063(17)
C30_2 C 0.2162(3) 0.7048(2) 0.45777(16)
H19_2 H 0.2384 0.7504 0.4437
C31_2 C 0.1653(3) 0.7043(2) 0.50550(17)
H20_2 H 0.1540 0.7493 0.5242
C32_2 C 0.2861(3) 0.6370(2) 0.37872(17)
C33_2 C 0.3389(3) 0.5759(3) 0.36531(18)
H21_2 H 0.3434 0.5358 0.3900
C34_2 C 0.3853(3) 0.5723(2) 0.31646(18)
H22_2 H 0.4216 0.5302 0.3080
C35_2 C 0.3783(3) 0.6303(2) 0.28041(16)
C36_2 C 0.3253(3) 0.6914(2) 0.29290(17)
H23_2 H 0.3192 0.7305 0.2675
C37_2 C 0.2813(3) 0.6959(2) 0.34211(17)
H24_2 H 0.2476 0.7392 0.3511
C38_2 C 0.4237(3) 0.6243(2) 0.22632(15)
C39_2 C 0.0430(3) 0.6418(2) 0.73546(15)
C40_2 C 0.1024(3) 0.6434(2) 0.78426(17)
C41_2 C 0.1621(3) 0.5850(2) 0.79457(17)
H25_2 H 0.1642 0.5444 0.7702
C42_2 C 0.2182(3) 0.5847(2) 0.83937(16)
H26_2 H 0.2595 0.5448 0.8450
C43_2 C 0.2142(3) 0.6427(2) 0.87632(17)
C44_2 C 0.1562(3) 0.7018(2) 0.86636(17)
H27_2 H 0.1540 0.7419 0.8911
C45_2 C 0.1008(3) 0.7031(2) 0.82049(17)
H28_2 H 0.0622 0.7444 0.8138
C46_2 C 0.2719(3) 0.6394(2) 0.92590(17)
C47_2 C 0.2974(3) 0.5709(2) 0.94728(17)
H29_2 H 0.2769 0.5265 0.9306
C48_2 C 0.3526(3) 0.5673(2) 0.99274(17)
C50_2 C 0.3576(3) 0.6998(2) 0.99665(17)
C51_2 C 0.3017(3) 0.7037(2) 0.95177(17)
H32_2 H 0.2834 0.7508 0.9384
O13_2 O 0.11026(18) 0.81251(15) 0.67838(11)
Zn1_2 Zn 0.96033(3) 0.56459(2) 0.64946(2)
O1_2 O 0.83229(18) 0.59123(14) 0.65878(12)
O2_2 O 0.87943(17) 0.69775(15) 0.62325(11)
O3_2 O 0.15956(17) 0.92097(13) 0.64693(13)
O10_2 O 0.99857(19) 0.69894(14) 0.72323(10)
N1_2 N 0.9677(2) 0.45134(14) 0.64973(14)
C1_2 C 0.9992(3) 0.4153(2) 0.60632(16)
C3_2 C 0.9911(3) 0.29811(18) 0.65101(18)
C4_2 C 0.9588(3) 0.3366(2) 0.69678(17)
H3_2 H 0.9440 0.3105 0.7289
C5_2 C 0.9491(3) 0.4116(2) 0.69430(16)
H4_2 H 0.9282 0.4370 0.7255
C6_2 C 0.9917(3) 0.0993(2) 0.60725(16)
H5_2 H 0.9761 0.0713 0.5761
C7_2 C 0.9796(3) 0.1750(2) 0.60595(16)
H6_2 H 0.9557 0.1984 0.5746
C11_2 C 0.8187(2) 0.6574(2) 0.64347(17)
C12_2 C 0.7230(3) 0.6861(2) 0.64747(19)
C13_2 C 0.6537(3) 0.6422(2) 0.66869(17)
H9_2 H 0.6672 0.5937 0.6814
C14_2 C 0.5642(3) 0.6692(2) 0.67134(17)
H10_2 H 0.5171 0.6385 0.6854
C15_2 C 0.5431(3) 0.74078(19) 0.65352(19)
C16_2 C 0.6132(3) 0.7838(2) 0.63113(19)
H11_2 H 0.5998 0.8319 0.6176
C17_2 C 0.7027(3) 0.7569(2) 0.6285(2)
H12_2 H 0.7499 0.7870 0.6137
C18_2 C 0.4474(3) 0.7694(2) 0.65715(19)
C19_2 C 0.4307(3) 0.8456(2) 0.6547(2)
H13_2 H 0.4807 0.8791 0.6519
C20_2 C 0.3428(3) 0.8727(2) 0.65629(19)
H14_2 H 0.3327 0.9247 0.6549
C21_2 C 0.2688(3) 0.8250(2) 0.65986(16)
C22_2 C 0.2846(3) 0.7496(2) 0.66315(17)
H15_2 H 0.2344 0.7166 0.6675
C23_2 C 0.3728(3) 0.7215(2) 0.66016(17)
H16_2 H 0.3824 0.6694 0.6602
C24_2 C 0.1726(3) 0.8536(2) 0.66122(16)
Zn4 Zn 0.00621(3) 0.24366(2) 0.349074(17)
O14_2 O 0.0251(2) 0.06813(14) 0.28062(11)
O16_2 O 0.0447(2) 0.06394(14) 0.41355(11)
Zn1_3 Zn 0.03967(3) 0.43541(2) 0.35054(2)
Zn3 Zn 0.96857(3) 0.05008(2) 0.350110(19)
O1_3 O 0.16771(18) 0.40877(14) 0.34122(12)
O2_3 O 0.12057(17) 0.30225(15) 0.37675(11)
O3_3 O 0.84044(17) 0.07903(13) 0.35307(13)
O4 O 0.88974(18) 0.18749(15) 0.32162(11)
O10_3 O 0.00143(19) 0.30106(14) 0.27677(10)
N1_3 N 0.0323(2) 0.54866(14) 0.35027(14)
C1_3 C 0.0008(3) 0.5847(2) 0.39368(16)
C3_3 C 0.0089(3) 0.70189(18) 0.34899(18)
C4_3 C 0.0412(3) 0.6634(2) 0.30322(17)
H3_3 H 0.0560 0.6895 0.2711
C5_3 C 0.0509(3) 0.5884(2) 0.30570(16)
H4_3 H 0.0718 0.5630 0.2745
C6_3 C 0.0083(3) 0.9007(2) 0.39275(16)
H5_3 H 0.0239 0.9287 0.4239
C7_3 C 0.0204(3) 0.8250(2) 0.39405(16)
H6_3 H 0.0443 0.8016 0.4254
C11_3 C 0.1813(2) 0.3426(2) 0.35653(17)
C12_3 C 0.2770(3) 0.3139(2) 0.35253(19)
C13_3 C 0.3463(3) 0.3578(2) 0.33131(17)
H9_3 H 0.3328 0.4063 0.3186
C14_3 C 0.4358(3) 0.3308(2) 0.32866(17)
H10_3 H 0.4829 0.3615 0.3146
C15_3 C 0.4569(3) 0.25922(19) 0.34648(19)
C16_3 C 0.3868(3) 0.2162(2) 0.36887(19)
H11_3 H 0.4002 0.1681 0.3824
C17_3 C 0.2973(3) 0.2431(2) 0.3715(2)
H12_3 H 0.2501 0.2130 0.3863
C18_3 C 0.5526(3) 0.2306(2) 0.34285(19)
C19_3 C 0.5693(3) 0.1544(2) 0.3453(2)
H13_3 H 0.5193 0.1209 0.3481
C20_3 C 0.6572(3) 0.1273(2) 0.34371(19)
H14_3 H 0.6673 0.0753 0.3451
C21_3 C 0.7312(3) 0.1750(2) 0.34014(16)
C22_3 C 0.7154(3) 0.2504(2) 0.33685(17)
H15_3 H 0.7656 0.2834 0.3325
C23_3 C 0.6272(3) 0.2785(2) 0.33984(17)
H16_3 H 0.6176 0.3306 0.3398
C24_3 C 0.8274(3) 0.1464(2) 0.33878(16)
O15_2 O 0.09352(18) 0.17162(14) 0.30943(10)
O17_2 O 0.01260(18) 0.18438(14) 0.42067(10)
N3 N 0.9753(2) 0.93697(15) 0.34928(15)
O5_3 O 0.9788(2) 0.41842(14) 0.41895(11)
O6_3 O 0.91635(18) 0.31159(14) 0.39063(10)
O7_2 O 0.5251(2) 0.43187(14) 0.78062(11)
O8_2 O 0.59352(18) 0.32838(14) 0.80943(10)
O9_3 O 0.9617(2) 0.41953(14) 0.28839(11)
H1_3 H 0.9860 0.5567 0.4249
C2_3 C 0.9887(3) 0.6608(2) 0.39512(17)
H2_3 H 0.9672 0.6846 0.4269
C8_3 C 0.9973(3) 0.78329(19) 0.34910(17)
C9_3 C 0.9632(3) 0.8204(2) 0.30404(16)
H7_3 H 0.9473 0.7936 0.2724
C10_3 C 0.9529(3) 0.8967(2) 0.30586(17)
H8_3 H 0.9290 0.9214 0.2751
C25_3 C 0.9259(3) 0.3627(2) 0.42454(16)
C26_3 C 0.8684(3) 0.3616(2) 0.47450(17)
C27_3 C 0.8511(3) 0.4284(2) 0.50136(17)
H17_3 H 0.8750 0.4736 0.4877
C28_3 C 0.7991(3) 0.4282(2) 0.54784(17)
H18_3 H 0.7860 0.4737 0.5655
C29_3 C 0.7654(3) 0.3616(2) 0.56937(17)
C30_3 C 0.7838(3) 0.2952(2) 0.54223(16)
H19_3 H 0.7616 0.2496 0.5563
C31_3 C 0.8347(3) 0.2957(2) 0.49450(17)
H20_3 H 0.8460 0.2507 0.4758
C32_3 C 0.7139(3) 0.3630(2) 0.62128(17)
C33_3 C 0.6611(3) 0.4241(3) 0.63469(18)
H21_3 H 0.6566 0.4642 0.6100
C34_3 C 0.6147(3) 0.4277(2) 0.68354(18)
H22_3 H 0.5784 0.4698 0.6920
C35_3 C 0.6217(3) 0.3697(2) 0.71959(16)
C36_3 C 0.6747(3) 0.3086(2) 0.70710(17)
H23_3 H 0.6808 0.2695 0.7325
C37_3 C 0.7187(3) 0.3041(2) 0.65789(17)
H24_3 H 0.7524 0.2608 0.6489
C38_3 C 0.5763(3) 0.3757(2) 0.77368(15)
C39_3 C 0.9570(3) 0.3582(2) 0.26454(15)
C40_3 C 0.8976(3) 0.3566(2) 0.21574(17)
C41_3 C 0.8379(3) 0.4150(2) 0.20543(17)
H25_3 H 0.8358 0.4556 0.2298
C42_3 C 0.7818(3) 0.4153(2) 0.16063(16)
H26_3 H 0.7405 0.4552 0.1550
C43_3 C 0.7858(3) 0.3573(2) 0.12368(17)
C44_3 C 0.8438(3) 0.2982(2) 0.13364(17)
H27_3 H 0.8460 0.2581 0.1089
C45_3 C 0.8992(3) 0.2969(2) 0.17951(17)
H28_3 H 0.9378 0.2556 0.1862
C46_3 C 0.7281(3) 0.3606(2) 0.07410(17)
C47_3 C 0.7026(3) 0.4291(2) 0.05272(17)
H29_3 H 0.7231 0.4735 0.0694
C48_3 C 0.6474(3) 0.4327(2) 0.00726(17)
C50_3 C 0.6424(3) 0.3002(2) 0.00335(17)
C51_3 C 0.6983(3) 0.2963(2) 0.04823(17)
H32_3 H 0.7166 0.2492 0.0616
Zn5 Zn 0.50621(3) 0.25634(2) 0.849074(17)
Zn7 Zn 0.46857(3) 0.44992(2) 0.850110(19)
O11_2 O 0.5447(2) 0.43606(14) 0.91355(11)
O12_2 O 0.51260(18) 0.31562(14) 0.92067(10)
H30_3 H 0.6312 0.4797 0.9929
C49_3 C 0.6158(3) 0.3695(2) 0.98278(16)
H31_3 H 0.6219 0.2560 0.9864
C52_3 C 0.5531(3) 0.3729(2) 0.93539(15)
O3_4 O 0.34044(17) 0.42097(13) 0.85307(13)
O4_2 O 0.38974(18) 0.31251(15) 0.82162(11)
C18_4 C 0.0526(3) 0.2694(2) 0.84285(19)
C19_4 C 0.0693(3) 0.3456(2) 0.8453(2)
H13_4 H 0.0193 0.3791 0.8481
C20_4 C 0.1572(3) 0.3727(2) 0.84371(19)
H14_4 H 0.1673 0.4247 0.8451
C21_4 C 0.2312(3) 0.3250(2) 0.84014(16)
C22_4 C 0.2154(3) 0.2496(2) 0.83685(17)
H15_4 H 0.2656 0.2166 0.8325
C23_4 C 0.1272(3) 0.2215(2) 0.83984(17)
H16_4 H 0.1176 0.1694 0.8398
C24_4 C 0.3274(3) 0.3536(2) 0.83878(16)
N3_2 N 0.4753(2) 0.56303(15) 0.84928(15)
C27_4 C 0.3511(3) 0.0716(2) 0.00136(17)
C28_4 C 0.2991(3) 0.0718(2) 0.04784(17)
H18_4 H 0.2860 0.0263 0.0655
C29_4 C 0.2654(3) 0.1384(2) 0.06937(17)
C30_4 C 0.2838(3) 0.2048(2) 0.04223(16)
H19_4 H 0.2616 0.2504 0.0563
C32_4 C 0.2139(3) 0.1370(2) 0.12128(17)
C33_4 C 0.1611(3) 0.0759(3) 0.13469(18)
H21_4 H 0.1566 0.0358 0.1100
C34_4 C 0.1147(3) 0.0723(2) 0.18354(18)
H22_4 H 0.0784 0.0302 0.1920
C35_4 C 0.1217(3) 0.1303(2) 0.21959(16)
C36_4 C 0.1747(3) 0.1914(2) 0.20710(17)
H23_4 H 0.1808 0.2305 0.2325
C37_4 C 0.2187(3) 0.1959(2) 0.15789(17)
H24_4 H 0.2524 0.2392 0.1489
C38_4 C 0.0763(3) 0.1243(2) 0.27368(15)
Zn1_4 Zn 0.53967(3) 0.06459(2) 0.85054(2)
O1_4 O 0.66771(18) 0.09123(14) 0.84122(12)
O2_4 O 0.62057(17) 0.19775(15) 0.87675(11)
O5_4 O 0.4788(2) 0.08158(14) 0.91895(11)
O6_4 O 0.41635(18) 0.18841(14) 0.89063(10)
O9_4 O 0.4617(2) 0.08047(14) 0.78839(11)
O10_4 O 0.50143(19) 0.19894(14) 0.77677(10)
C11_4 C 0.6813(2) 0.1574(2) 0.85653(17)
C12_4 C 0.7770(3) 0.1861(2) 0.85253(19)
C13_4 C 0.8463(3) 0.1422(2) 0.83131(17)
H9_4 H 0.8328 0.0937 0.8186
C14_4 C 0.9358(3) 0.1692(2) 0.82866(17)
H10_4 H 0.9829 0.1385 0.8146
C15_4 C 0.9569(3) 0.24078(19) 0.84648(19)
C16_4 C 0.8868(3) 0.2838(2) 0.86887(19)
H11_4 H 0.9002 0.3319 0.8824
C17_4 C 0.7973(3) 0.2569(2) 0.8715(2)
H12_4 H 0.7501 0.2870 0.8863
C25_4 C 0.4259(3) 0.1373(2) 0.92454(16)
C26_4 C 0.3684(3) 0.1384(2) 0.97450(17)
H17_4 H 0.3750 0.0264 0.9877
C31_4 C 0.3347(3) 0.2043(2) 0.99450(17)
H20_4 H 0.3460 0.2493 0.9758
C39_4 C 0.4570(3) 0.1418(2) 0.76454(15)
C40_4 C 0.3976(3) 0.1434(2) 0.71574(17)
C41_4 C 0.3379(3) 0.0850(2) 0.70543(17)
H25_4 H 0.3358 0.0444 0.7298
C42_4 C 0.2818(3) 0.0847(2) 0.66063(16)
H26_4 H 0.2405 0.0448 0.6550
C43_4 C 0.2858(3) 0.1427(2) 0.62368(17)
C44_4 C 0.3438(3) 0.2018(2) 0.63364(17)
H27_4 H 0.3460 0.2419 0.6089
C45_4 C 0.3992(3) 0.2031(2) 0.67951(17)
H28_4 H 0.4378 0.2444 0.6862
C46_4 C 0.2281(3) 0.1394(2) 0.57410(17)
C47_4 C 0.2026(3) 0.0709(2) 0.55272(17)
H29_4 H 0.2231 0.0265 0.5694
C48_4 C 0.1474(3) 0.0673(2) 0.50726(17)
H30_4 H 0.1312 0.0203 0.4929
C49_4 C 0.1158(3) 0.1305(2) 0.48278(16)
C50_4 C 0.1424(3) 0.1998(2) 0.50335(17)
H31_4 H 0.1219 0.2440 0.4864
C51_4 C 0.1983(3) 0.2037(2) 0.54823(17)
H32_4 H 0.2166 0.2508 0.5616
C52_4 C 0.0531(3) 0.1271(2) 0.43539(15)
N1_4 N 0.5323(2) 0.95134(14) 0.85027(14)
C1_4 C 0.5008(3) 0.9153(2) 0.89368(16)
H1_4 H 0.4860 0.9433 0.9249
C2_4 C 0.4887(3) 0.8392(2) 0.89512(17)
H2_4 H 0.4672 0.8154 0.9269
C3_4 C 0.5089(3) 0.79811(18) 0.84899(18)
C4_4 C 0.5412(3) 0.8366(2) 0.80322(17)
H3_4 H 0.5560 0.8105 0.7711
C5_4 C 0.5509(3) 0.9116(2) 0.80570(16)
H4_4 H 0.5718 0.9370 0.7745
C6_4 C 0.5083(3) 0.5993(2) 0.89275(16)
H5_4 H 0.5239 0.5713 0.9239
C7_4 C 0.5204(3) 0.6750(2) 0.89405(16)
H6_4 H 0.5443 0.6984 0.9254
C8_4 C 0.4973(3) 0.71671(19) 0.84910(17)
C9_4 C 0.4632(3) 0.6796(2) 0.80404(16)
H7_4 H 0.4473 0.7064 0.7724
C10_4 C 0.4529(3) 0.6033(2) 0.80586(17)
H8_4 H 0.4290 0.5786 0.7751
loop_
_geom_bond_atom_site_label_1
_geom_bond_atom_site_label_2
_geom_bond_site_symmetry_1
_geom_bond_site_symmetry_2
N2 C6 1_555 1_555
C1 N1 1_555 1_555
H1 C1 1_555 1_555
C2 C1 1_555 1_555
H2 C2 1_555 1_555
C3 C2 1_555 1_555
C4 C3 1_555 1_555
H3 C4 1_555 1_555
C5 N1 1_555 1_555
H4 C5 1_555 1_555
C6 H5 1_555 1_555
C7 C6 1_555 1_555
H6 C7 1_555 1_555
C8 C3 1_555 1_555
C9 C8 1_555 1_555
H7 C9 1_555 1_555
C10 N2 1_555 1_555
H8 C10 1_555 1_555
Zn9 N2 1_555 1_555
C4 C5 1_555 1_555
C7 C8 1_555 1_555
C9 C10 1_555 1_555
Zn1 O1 1_555 1_555
Zn2 O2 1_555 1_555
O1 C11 1_555 1_555
O2 C11 1_555 1_555
O5 Zn1 1_555 1_555
O6 Zn2 1_555 1_555
O9 Zn1 1_555 1_555
O10 Zn2 1_555 1_555
O11 C52 1_555 1_555
O12 C52 1_555 1_555
C11 C12 1_555 1_555
C12 C13 1_555 1_555
C13 H9 1_555 1_555
C14 C13 1_555 1_555
H10 C14 1_555 1_555
C15 C14 1_555 1_555
C16 C15 1_555 1_555
H11 C16 1_555 1_555
C17 C12 1_555 1_555
H12 C17 1_555 1_555
C25 O5 1_555 1_555
C26 C25 1_555 1_555
C31 C26 1_555 1_555
H20 C31 1_555 1_555
C39 O9 1_555 1_555
C40 C39 1_555 1_555
C41 C40 1_555 1_555
H25 C41 1_555 1_555
C42 C41 1_555 1_555
H26 C42 1_555 1_555
C43 C42 1_555 1_555
C44 C43 1_555 1_555
H27 C44 1_555 1_555
C45 C40 1_555 1_555
H28 C45 1_555 1_555
C46 C43 1_555 1_555
C47 C46 1_555 1_555
H29 C47 1_555 1_555
C48 C47 1_555 1_555
H30 C48 1_555 1_555
C49 C48 1_555 1_555
C50 C49 1_555 1_555
H31 C50 1_555 1_555
C51 C46 1_555 1_555
H32 C51 1_555 1_555
C52 C49 1_555 1_555
Zn6 O12 1_555 1_555
O13 Zn2 1_555 1_555
O15 Zn2 1_555 1_555
O17 Zn2 1_555 1_555
O6 C25 1_555 1_555
O10 C39 1_555 1_555
C16 C17 1_555 1_555
C44 C45 1_555 1_555
C50 C51 1_555 1_555
O7 C38 1_555 1_555
O8 C38 1_555 1_555
C28 C27 1_555 1_555
H18 C28 1_555 1_555
C29 C28 1_555 1_555
C30 C29 1_555 1_555
H19 C30 1_555 1_555
C32 C29 1_555 1_555
C33 C32 1_555 1_555
H21 C33 1_555 1_555
C34 C33 1_555 1_555
H22 C34 1_555 1_555
C35 C34 1_555 1_555
C36 C35 1_555 1_555
H23 C36 1_555 1_555
C37 C32 1_555 1_555
H24 C37 1_555 1_555
C38 C35 1_555 1_555
Zn6 O8 1_555 1_555
C36 C37 1_555 1_555
Zn9 O3 1_555 1_555
O3 C24 1_555 1_555
O13 C24 1_555 1_555
C19 C18 1_555 1_555
H13 C19 1_555 1_555
C20 C19 1_555 1_555
H14 C20 1_555 1_555
C21 C20 1_555 1_555
C22 C21 1_555 1_555
H15 C22 1_555 1_555
C23 C18 1_555 1_555
H16 C23 1_555 1_555
C24 C21 1_555 1_555
O14 Zn9 1_555 1_555
O16 Zn9 1_555 1_555
C22 C23 1_555 1_555
O16 C52_2 1_555 1_555
O17 C52_2 1_555 1_555
C52_2 C49_2 1_555 1_555
O14 C38_2 1_555 1_555
O15 C38_2 1_555 1_555
H2_2 C2_2 1_555 1_555
C9_2 C8_2 1_555 1_555
H7_2 C9_2 1_555 1_555
C10_2 N2_2 1_555 1_555
H8_2 C10_2 1_555 1_555
C25_2 O5_2 1_555 1_555
C26_2 C25_2 1_555 1_555
C27_2 C26_2 1_555 1_555
H17_2 C27_2 1_555 1_555
C28_2 C27_2 1_555 1_555
H18_2 C28_2 1_555 1_555
C29_2 C28_2 1_555 1_555
C30_2 C29_2 1_555 1_555
H19_2 C30_2 1_555 1_555
C31_2 C26_2 1_555 1_555
H20_2 C31_2 1_555 1_555
C32_2 C29_2 1_555 1_555
C33_2 C32_2 1_555 1_555
H21_2 C33_2 1_555 1_555
C34_2 C33_2 1_555 1_555
H22_2 C34_2 1_555 1_555
C35_2 C34_2 1_555 1_555
C36_2 C35_2 1_555 1_555
H23_2 C36_2 1_555 1_555
C37_2 C32_2 1_555 1_555
H24_2 C37_2 1_555 1_555
C38_2 C35_2 1_555 1_555
C39_2 O9_2 1_555 1_555
C40_2 C39_2 1_555 1_555
C41_2 C40_2 1_555 1_555
H25_2 C41_2 1_555 1_555
C42_2 C41_2 1_555 1_555
H26_2 C42_2 1_555 1_555
C43_2 C42_2 1_555 1_555
C44_2 C43_2 1_555 1_555
H27_2 C44_2 1_555 1_555
C45_2 C40_2 1_555 1_555
H28_2 C45_2 1_555 1_555
C46_2 C43_2 1_555 1_555
C47_2 C46_2 1_555 1_555
H29_2 C47_2 1_555 1_555
C48_2 C47_2 1_555 1_555
C51_2 C46_2 1_555 1_555
H32_2 C51_2 1_555 1_555
O6_2 C25_2 1_555 1_555
C9_2 C10_2 1_555 1_555
C30_2 C31_2 1_555 1_555
C36_2 C37_2 1_555 1_555
C44_2 C45_2 1_555 1_555
C50_2 C51_2 1_555 1_555
Zn1_2 O1_2 1_555 1_555
Zn6 O2_2 1_555 1_555
Zn8 O3_2 1_555 1_555
O1_2 C11_2 1_555 1_555
O2_2 C11_2 1_555 1_555
O3_2 C24_2 1_555 1_555
O13_2 C24_2 1_555 1_555
O10_2 Zn6 1_555 1_555
N1_2 Zn1_2 1_555 1_555
C1_2 N1_2 1_555 1_555
C4_2 C3_2 1_555 1_555
H3_2 C4_2 1_555 1_555
C5_2 N1_2 1_555 1_555
H4_2 C5_2 1_555 1_555
C6_2 H5_2 1_555 1_555
C7_2 C6_2 1_555 1_555
H6_2 C7_2 1_555 1_555
C11_2 C12_2 1_555 1_555
C12_2 C13_2 1_555 1_555
C13_2 H9_2 1_555 1_555
C14_2 C13_2 1_555 1_555
H10_2 C14_2 1_555 1_555
C15_2 C14_2 1_555 1_555
C16_2 C15_2 1_555 1_555
H11_2 C16_2 1_555 1_555
C17_2 C12_2 1_555 1_555
H12_2 C17_2 1_555 1_555
C18_2 C15_2 1_555 1_555
C19_2 C18_2 1_555 1_555
H13_2 C19_2 1_555 1_555
C20_2 C19_2 1_555 1_555
H14_2 C20_2 1_555 1_555
C21_2 C20_2 1_555 1_555
C22_2 C21_2 1_555 1_555
H15_2 C22_2 1_555 1_555
C23_2 C18_2 1_555 1_555
H16_2 C23_2 1_555 1_555
C24_2 C21_2 1_555 1_555
C4_2 C5_2 1_555 1_555
C16_2 C17_2 1_555 1_555
C22_2 C23_2 1_555 1_555
Zn1_3 O1_3 1_555 1_555
Zn4 O2_3 1_555 1_555
Zn3 O3_3 1_555 1_555
O1_3 C11_3 1_555 1_555
O2_3 C11_3 1_555 1_555
O3_3 C24_3 1_555 1_555
O4 C24_3 1_555 1_555
O10_3 Zn4 1_555 1_555
N1_3 Zn1_3 1_555 1_555
C1_3 N1_3 1_555 1_555
C4_3 C3_3 1_555 1_555
H3_3 C4_3 1_555 1_555
C5_3 N1_3 1_555 1_555
H4_3 C5_3 1_555 1_555
C6_3 H5_3 1_555 1_555
C7_3 C6_3 1_555 1_555
H6_3 C7_3 1_555 1_555
C11_3 C12_3 1_555 1_555
C12_3 C13_3 1_555 1_555
C13_3 H9_3 1_555 1_555
C14_3 C13_3 1_555 1_555
H10_3 C14_3 1_555 1_555
C15_3 C14_3 1_555 1_555
C16_3 C15_3 1_555 1_555
H11_3 C16_3 1_555 1_555
C17_3 C12_3 1_555 1_555
H12_3 C17_3 1_555 1_555
C18_3 C15_3 1_555 1_555
C19_3 C18_3 1_555 1_555
H13_3 C19_3 1_555 1_555
C20_3 C19_3 1_555 1_555
H14_3 C20_3 1_555 1_555
C21_3 C20_3 1_555 1_555
C22_3 C21_3 1_555 1_555
H15_3 C22_3 1_555 1_555
C23_3 C18_3 1_555 1_555
H16_3 C23_3 1_555 1_555
C24_3 C21_3 1_555 1_555
O15_2 Zn4 1_555 1_555
O17_2 Zn4 1_555 1_555
C4_3 C5_3 1_555 1_555
C16_3 C17_3 1_555 1_555
C22_3 C23_3 1_555 1_555
O7_2 C38_3 1_555 1_555
O8_2 C38_3 1_555 1_555
H2_3 C2_3 1_555 1_555
C9_3 C8_3 1_555 1_555
H7_3 C9_3 1_555 1_555
C10_3 N3 1_555 1_555
H8_3 C10_3 1_555 1_555
C25_3 O5_3 1_555 1_555
C26_3 C25_3 1_555 1_555
C27_3 C26_3 1_555 1_555
H17_3 C27_3 1_555 1_555
C28_3 C27_3 1_555 1_555
H18_3 C28_3 1_555 1_555
C29_3 C28_3 1_555 1_555
C30_3 C29_3 1_555 1_555
H19_3 C30_3 1_555 1_555
C31_3 C26_3 1_555 1_555
H20_3 C31_3 1_555 1_555
C32_3 C29_3 1_555 1_555
C33_3 C32_3 1_555 1_555
H21_3 C33_3 1_555 1_555
C34_3 C33_3 1_555 1_555
H22_3 C34_3 1_555 1_555
C35_3 C34_3 1_555 1_555
C36_3 C35_3 1_555 1_555
H23_3 C36_3 1_555 1_555
C37_3 C32_3 1_555 1_555
H24_3 C37_3 1_555 1_555
C38_3 C35_3 1_555 1_555
C39_3 O9_3 1_555 1_555
C40_3 C39_3 1_555 1_555
C41_3 C40_3 1_555 1_555
H25_3 C41_3 1_555 1_555
C42_3 C41_3 1_555 1_555
H26_3 C42_3 1_555 1_555
C43_3 C42_3 1_555 1_555
C44_3 C43_3 1_555 1_555
H27_3 C44_3 1_555 1_555
C45_3 C40_3 1_555 1_555
H28_3 C45_3 1_555 1_555
C46_3 C43_3 1_555 1_555
C47_3 C46_3 1_555 1_555
H29_3 C47_3 1_555 1_555
C48_3 C47_3 1_555 1_555
C51_3 C46_3 1_555 1_555
H32_3 C51_3 1_555 1_555
Zn5 O8_2 1_555 1_555
Zn7 O7_2 1_555 1_555
O6_3 C25_3 1_555 1_555
C9_3 C10_3 1_555 1_555
C30_3 C31_3 1_555 1_555
C36_3 C37_3 1_555 1_555
C44_3 C45_3 1_555 1_555
C50_3 C51_3 1_555 1_555
O11_2 C52_3 1_555 1_555
O12_2 C52_3 1_555 1_555
C52_3 C49_3 1_555 1_555
Zn5 O12_2 1_555 1_555
Zn7 O11_2 1_555 1_555
Zn7 O3_4 1_555 1_555
O3_4 C24_4 1_555 1_555
O4_2 C24_4 1_555 1_555
C19_4 C18_4 1_555 1_555
H13_4 C19_4 1_555 1_555
C20_4 C19_4 1_555 1_555
H14_4 C20_4 1_555 1_555
C21_4 C20_4 1_555 1_555
C22_4 C21_4 1_555 1_555
H15_4 C22_4 1_555 1_555
C23_4 C18_4 1_555 1_555
H16_4 C23_4 1_555 1_555
C24_4 C21_4 1_555 1_555
Zn5 O4_2 1_555 1_555
N3_2 Zn7 1_555 1_555
C22_4 C23_4 1_555 1_555
O14_2 C38_4 1_555 1_555
O15_2 C38_4 1_555 1_555
C28_4 C27_4 1_555 1_555
H18_4 C28_4 1_555 1_555
C29_4 C28_4 1_555 1_555
C30_4 C29_4 1_555 1_555
H19_4 C30_4 1_555 1_555
C32_4 C29_4 1_555 1_555
C33_4 C32_4 1_555 1_555
H21_4 C33_4 1_555 1_555
C34_4 C33_4 1_555 1_555
H22_4 C34_4 1_555 1_555
C35_4 C34_4 1_555 1_555
C36_4 C35_4 1_555 1_555
H23_4 C36_4 1_555 1_555
C37_4 C32_4 1_555 1_555
H24_4 C37_4 1_555 1_555
C38_4 C35_4 1_555 1_555
C36_4 C37_4 1_555 1_555
Zn1_4 O1_4 1_555 1_555
Zn5 O2_4 1_555 1_555
O1_4 C11_4 1_555 1_555
O2_4 C11_4 1_555 1_555
O5_4 Zn1_4 1_555 1_555
O6_4 Zn5 1_555 1_555
O9_4 Zn1_4 1_555 1_555
O10_4 Zn5 1_555 1_555
O16_2 C52_4 1_555 1_555
O17_2 C52_4 1_555 1_555
C11_4 C12_4 1_555 1_555
C12_4 C13_4 1_555 1_555
C13_4 H9_4 1_555 1_555
C14_4 C13_4 1_555 1_555
H10_4 C14_4 1_555 1_555
C15_4 C14_4 1_555 1_555
C16_4 C15_4 1_555 1_555
H11_4 C16_4 1_555 1_555
C17_4 C12_4 1_555 1_555
H12_4 C17_4 1_555 1_555
C25_4 O5_4 1_555 1_555
C26_4 C25_4 1_555 1_555
C31_4 C26_4 1_555 1_555
H20_4 C31_4 1_555 1_555
C39_4 O9_4 1_555 1_555
C40_4 C39_4 1_555 1_555
C41_4 C40_4 1_555 1_555
H25_4 C41_4 1_555 1_555
C42_4 C41_4 1_555 1_555
H26_4 C42_4 1_555 1_555
C43_4 C42_4 1_555 1_555
C44_4 C43_4 1_555 1_555
H27_4 C44_4 1_555 1_555
C45_4 C40_4 1_555 1_555
H28_4 C45_4 1_555 1_555
C46_4 C43_4 1_555 1_555
C47_4 C46_4 1_555 1_555
H29_4 C47_4 1_555 1_555
C48_4 C47_4 1_555 1_555
H30_4 C48_4 1_555 1_555
C49_4 C48_4 1_555 1_555
C50_4 C49_4 1_555 1_555
H31_4 C50_4 1_555 1_555
C51_4 C46_4 1_555 1_555
H32_4 C51_4 1_555 1_555
C52_4 C49_4 1_555 1_555
O6_4 C25_4 1_555 1_555
O10_4 C39_4 1_555 1_555
C16_4 C17_4 1_555 1_555
C44_4 C45_4 1_555 1_555
C50_4 C51_4 1_555 1_555
N3_2 C6_4 1_555 1_555
C1_4 N1_4 1_555 1_555
H1_4 C1_4 1_555 1_555
C2_4 C1_4 1_555 1_555
H2_4 C2_4 1_555 1_555
C3_4 C2_4 1_555 1_555
C4_4 C3_4 1_555 1_555
H3_4 C4_4 1_555 1_555
C5_4 N1_4 1_555 1_555
H4_4 C5_4 1_555 1_555
C6_4 H5_4 1_555 1_555
C7_4 C6_4 1_555 1_555
H6_4 C7_4 1_555 1_555
C8_4 C3_4 1_555 1_555
C9_4 C8_4 1_555 1_555
H7_4 C9_4 1_555 1_555
C10_4 N3_2 1_555 1_555
H8_4 C10_4 1_555 1_555
C4_4 C5_4 1_555 1_555
C7_4 C8_4 1_555 1_555
C9_4 C10_4 1_555 1_555

#END
