
###############################################################################
#
# This file contains modified crystal structure data generated from the
# MOF subset of the Cambridge Structural Database (CSD) v543 
# hosted by the Cambridge Crystallographic Data Centre (CCDC).
#
# This work is licensed under the Creative Commons
# Attribution-NonCommercial-ShareAlike 4.0 International License.
# To view a copy of this license, visit
# http://creativecommons.org/licenses/by-nc-sa/4.0/
# or send a letter to
# Creative Commons, PO Box 1866, Mountain View, CA 94042, USA.
#
# CIF created using the CSD Python API on 29 September 2022
# The structure has been converted into the P1 space group
# The structure has a 3D framework
# The original CSD entry HEGPER is in the monoclinic crystal system
# The framework has been calculated to contain at least 10.0% void space
# The void calculation uses a probe of radius 1.32A, grid spacing 0.4
# The framework is charged, counterions have been retained in the structure
#
###############################################################################

data_HEGPER
_chemical_formula_moiety         '(C228 H228 Cd27 N72 O96 22+)n'
_symmetry_cell_setting           triclinic
_symmetry_space_group_name_H-M   'P 1'
_symmetry_Int_Tables_number      1
_space_group_name_Hall           'P 1'
loop_
_symmetry_equiv_pos_site_id
_symmetry_equiv_pos_as_xyz
1 x,y,z
_cell_length_a                   24.418(7)
_cell_length_b                   15.686(4)
_cell_length_c                   21.471(6)
_cell_angle_alpha                90
_cell_angle_beta                 114.597(5)
_cell_angle_gamma                90
_cell_volume                     7477.59
loop_
_atom_site_label
_atom_site_type_symbol
_atom_site_fract_x
_atom_site_fract_y
_atom_site_fract_z
Cd1 Cd 0.500000 0.000000 0.500000
O1 O 0.4025(3) 0.0007(4) 0.4199(3)
N1 N 0.4679(4) 0.0959(7) 0.5570(5)
N2 N 0.4876(6) 0.1761(9) 0.5683(7)
N3 N 0.4065(5) 0.1653(9) 0.5883(5)
C1 C 0.3037(6) 0.2235(10) 0.5503(6)
C2 C 0.2566(6) 0.2464(10) 0.5659(7)
H3 H 0.261048 0.243588 0.611017
C3 C 0.2944(6) 0.2280(10) 0.4820(6)
H4 H 0.325517 0.212324 0.470017
C4 C 0.3589(6) 0.1855(11) 0.6085(6)
H5 H 0.373811 0.225757 0.646151
H6 H 0.347094 0.134047 0.624769
C5 C 0.4206(7) 0.0888(13) 0.5687(7)
H7 H 0.399031 0.038586 0.564503
C6 C 0.4493(8) 0.2159(10) 0.5875(8)
H8 H 0.452251 0.273353 0.599131
N4 N 0.0321(4) 0.4041(7) 0.4430(5)
N5 N 0.0124(6) 0.3239(9) 0.4317(7)
N6 N 0.0935(5) 0.3347(9) 0.4117(5)
C7 C 0.1963(6) 0.2765(10) 0.4497(6)
C8 C 0.2434(6) 0.2536(10) 0.4341(7)
H11 H 0.238952 0.256412 0.388983
C9 C 0.2056(6) 0.2720(10) 0.5180(6)
H12 H 0.174483 0.287676 0.529983
C10 C 0.1411(6) 0.3145(11) 0.3915(6)
H13 H 0.126189 0.274243 0.353849
H14 H 0.152906 0.365953 0.375231
C11 C 0.0794(7) 0.4112(13) 0.4313(7)
H15 H 0.100969 0.461414 0.435497
C12 C 0.0507(8) 0.2841(10) 0.4125(8)
H16 H 0.047749 0.226647 0.400869
O4 O 0.5169(4) 0.1029(8) 0.4329(6)
H17 H 0.554(3) 0.110(11) 0.436(9)
H18 H 0.491(6) 0.095(12) 0.389(3)
H19 H 0.6152(11) 0.031(4) 0.558(2)
H20 H 0.5943(13) 0.039(4) 0.610(2)
Cd2 Cd -0.000000 0.500000 0.500000
H2 H 0.009(6) 0.405(12) 0.611(3)
O3 O 0.0975(3) 0.4993(4) 0.5801(3)
O4_2 O 0.0169(4) 0.6029(8) 0.4329(6)
H17_2 H 0.054(3) 0.610(11) 0.436(9)
H19_2 H 0.1152(11) 0.531(4) 0.558(2)
H20_2 H 0.0943(13) 0.539(4) 0.610(2)
Cd1_2 Cd 0.500000 1.000000 0.500000
O2 O 0.4831(4) 0.8971(8) 0.5671(6)
H1 H 0.446(3) 0.890(11) 0.564(9)
H2_2 H 0.509(6) 0.905(12) 0.611(3)
H9 H 0.3848(11) 0.969(4) 0.442(2)
H10 H 0.4057(13) 0.961(4) 0.390(2)
O3_2 O 0.5975(3) 0.9993(4) 0.5801(3)
N7 N 0.5321(4) 0.9041(7) 0.4430(5)
Cd2_2 Cd 1.000000 0.500000 0.500000
O1_2 O 0.9025(3) 0.5007(4) 0.4199(3)
O2_2 O 0.9831(4) 0.3971(8) 0.5671(6)
H1_2 H 0.946(3) 0.390(11) 0.564(9)
N1_2 N 0.9679(4) 0.5959(7) 0.5570(5)
N2_2 N 0.9876(6) 0.6761(9) 0.5683(7)
N3_2 N 0.9065(5) 0.6653(9) 0.5883(5)
C1_2 C 0.8037(6) 0.7235(10) 0.5503(6)
C2_2 C 0.7566(6) 0.7464(10) 0.5659(7)
H3_2 H 0.761048 0.743588 0.611017
C3_2 C 0.7944(6) 0.7280(10) 0.4820(6)
H4_2 H 0.825517 0.712324 0.470017
C4_2 C 0.8589(6) 0.6855(11) 0.6085(6)
H5_2 H 0.873811 0.725757 0.646151
H6_2 H 0.847094 0.634047 0.624769
C5_2 C 0.9206(7) 0.5888(13) 0.5687(7)
H7_2 H 0.899031 0.538586 0.564503
C6_2 C 0.9493(8) 0.7159(10) 0.5875(8)
H8_2 H 0.952251 0.773353 0.599131
H9_2 H 0.8848(11) 0.469(4) 0.442(2)
H10_2 H 0.9057(13) 0.461(4) 0.390(2)
N5_2 N 0.5124(6) 0.8239(9) 0.4317(7)
N6_2 N 0.5935(5) 0.8347(9) 0.4117(5)
C7_2 C 0.6963(6) 0.7765(10) 0.4497(6)
C8_2 C 0.7434(6) 0.7536(10) 0.4341(7)
H11_2 H 0.738952 0.756412 0.388983
C9_2 C 0.7056(6) 0.7720(10) 0.5180(6)
H12_2 H 0.674483 0.787676 0.529983
C10_2 C 0.6411(6) 0.8145(11) 0.3915(6)
H13_2 H 0.626189 0.774243 0.353849
H14_2 H 0.652906 0.865953 0.375231
C11_2 C 0.5794(7) 0.9112(13) 0.4313(7)
H15_2 H 0.600969 0.961414 0.435497
C12_2 C 0.5507(8) 0.7841(10) 0.4125(8)
H16_2 H 0.547749 0.726647 0.400869
H18_2 H 0.991(6) 0.595(12) 0.389(3)
Cd2_3 Cd 0.000000 0.500000 0.000000
Cd1_3 Cd 0.500000 1.000000 0.000000
H9_3 H 0.6152(11) 0.969(4) 0.058(2)
H10_3 H 0.5943(13) 0.961(4) 0.110(2)
N7_2 N 0.4679(4) 0.9041(7) 0.0570(5)
O1_3 O 0.0975(3) 0.5007(4) 0.0801(3)
C3_3 C 0.2056(6) 0.7280(10) 0.0180(6)
H4_3 H 0.174483 0.712324 0.029983
H9_4 H 0.1152(11) 0.469(4) 0.058(2)
H10_4 H 0.0943(13) 0.461(4) 0.110(2)
N5_3 N 0.4876(6) 0.8239(9) 0.0683(7)
N6_3 N 0.4065(5) 0.8347(9) 0.0883(5)
C7_3 C 0.3037(6) 0.7765(10) 0.0503(6)
C8_3 C 0.2566(6) 0.7536(10) 0.0659(7)
H11_3 H 0.261048 0.756412 0.111017
C10_3 C 0.3589(6) 0.8145(11) 0.1085(6)
H13_3 H 0.373811 0.774243 0.146151
H14_3 H 0.347094 0.865953 0.124769
C11_3 C 0.4206(7) 0.9112(13) 0.0687(7)
H15_3 H 0.399031 0.961414 0.064503
C12_3 C 0.4493(8) 0.7841(10) 0.0875(8)
H16_3 H 0.452251 0.726647 0.099131
H18_3 H 0.009(6) 0.595(12) 0.111(3)
Cd2_4 Cd 0.000000 0.500000 1.000000
Cd1_4 Cd 0.500000 1.000000 1.000000
O2_3 O 0.5169(4) 0.8971(8) 0.9329(6)
H1_3 H 0.554(3) 0.890(11) 0.936(9)
H2_3 H 0.491(6) 0.905(12) 0.889(3)
O3_3 O 0.4025(3) 0.9993(4) 0.9199(3)
O2_4 O 0.0169(4) 0.3971(8) 0.9329(6)
H1_4 H 0.054(3) 0.390(11) 0.936(9)
N1_3 N 0.0321(4) 0.5959(7) 0.9430(5)
N2_3 N 0.0124(6) 0.6761(9) 0.9317(7)
N3_3 N 0.0935(5) 0.6653(9) 0.9117(5)
C1_3 C 0.1963(6) 0.7235(10) 0.9497(6)
C2_3 C 0.2434(6) 0.7464(10) 0.9341(7)
H3_3 H 0.238952 0.743588 0.888983
C4_3 C 0.1411(6) 0.6855(11) 0.8915(6)
H5_3 H 0.126189 0.725757 0.853849
H6_3 H 0.152906 0.634047 0.875231
C5_3 C 0.0794(7) 0.5888(13) 0.9313(7)
H7_3 H 0.100969 0.538586 0.935497
C6_3 C 0.0507(8) 0.7159(10) 0.9125(8)
H8_3 H 0.047749 0.773353 0.900869
C9_3 C 0.2944(6) 0.7720(10) 0.9820(6)
H12_3 H 0.325517 0.787676 0.970017
Cd1_5 Cd 0.500000 0.000000 0.000000
O1_4 O 0.5975(3) 0.0007(4) 0.0801(3)
C3_4 C 0.7056(6) 0.2280(10) 0.0180(6)
H4_4 H 0.674483 0.212324 0.029983
N4_2 N 0.9679(4) 0.4041(7) 0.0570(5)
N5_4 N 0.9876(6) 0.3239(9) 0.0683(7)
N6_4 N 0.9065(5) 0.3347(9) 0.0883(5)
C7_4 C 0.8037(6) 0.2765(10) 0.0503(6)
C8_4 C 0.7566(6) 0.2536(10) 0.0659(7)
H11_4 H 0.761048 0.256412 0.111017
C10_4 C 0.8589(6) 0.3145(11) 0.1085(6)
H13_4 H 0.873811 0.274243 0.146151
H14_4 H 0.847094 0.365953 0.124769
C11_4 C 0.9206(7) 0.4112(13) 0.0687(7)
H15_4 H 0.899031 0.461414 0.064503
C12_4 C 0.9493(8) 0.2841(10) 0.0875(8)
H16_4 H 0.952251 0.226647 0.099131
O4_3 O 0.4831(4) 0.1029(8) 0.0671(6)
H17_3 H 0.446(3) 0.110(11) 0.064(9)
H18_4 H 0.509(6) 0.095(12) 0.111(3)
Cd2_5 Cd 1.000000 0.500000 0.000000
O4_4 O 0.9831(4) 0.6029(8) 0.0671(6)
H17_4 H 0.946(3) 0.610(11) 0.064(9)
Cd1_6 Cd 0.500000 0.000000 1.000000
N1_4 N 0.5321(4) 0.0959(7) 0.9430(5)
N2_4 N 0.5124(6) 0.1761(9) 0.9317(7)
N3_4 N 0.5935(5) 0.1653(9) 0.9117(5)
C1_4 C 0.6963(6) 0.2235(10) 0.9497(6)
C2_4 C 0.7434(6) 0.2464(10) 0.9341(7)
H3_4 H 0.738952 0.243588 0.888983
C4_4 C 0.6411(6) 0.1855(11) 0.8915(6)
H5_4 H 0.626189 0.225757 0.853849
H6_4 H 0.652906 0.134047 0.875231
C5_4 C 0.5794(7) 0.0888(13) 0.9313(7)
H7_4 H 0.600969 0.038586 0.935497
C6_4 C 0.5507(8) 0.2159(10) 0.9125(8)
H8_4 H 0.547749 0.273353 0.900869
C9_4 C 0.7944(6) 0.2720(10) 0.9820(6)
H12_4 H 0.825517 0.287676 0.970017
H19_3 H 0.3848(11) 0.031(4) 0.942(2)
H20_3 H 0.4057(13) 0.039(4) 0.890(2)
Cd2_6 Cd 1.000000 0.500000 1.000000
H2_4 H 0.991(6) 0.405(12) 0.889(3)
O3_4 O 0.9025(3) 0.4993(4) 0.9199(3)
H19_4 H 0.8848(11) 0.531(4) 0.942(2)
H20_4 H 0.9057(13) 0.539(4) 0.890(2)
N11 N 0.7475(3) 0.3551(5) 0.2203(4)
N12 N 0.6886(3) 0.3255(5) 0.1882(4)
N13 N 0.6959(4) 0.4515(5) 0.1473(4)
C15 C 0.7104(7) 0.4767(9) 0.0182(6)
H26 H 0.740192 0.444575 0.051668
C16 C 0.6742(7) 0.5247(9) 0.0354(6)
H27 H 0.618245 0.621587 0.000488
C20 C 0.6786(6) 0.5322(6) 0.1080(5)
H31 H 0.708038 0.575621 0.132235
H32 H 0.639961 0.550679 0.105972
C23 C 0.6571(5) 0.3850(7) 0.1436(5)
H35 H 0.616219 0.382473 0.114861
C24 C 0.7501(4) 0.4291(6) 0.1948(5)
H36 H 0.784735 0.461994 0.207606
Cd10 Cd 0.66489(3) 0.19198(5) 0.21726(3)
Cd13 Cd 0.82393(3) 0.28462(4) 0.31128(3)
Cd3 Cd 0.83511(3) 0.30802(5) 0.78274(3)
Cd4 Cd 0.67607(3) 0.21538(4) 0.68872(3)
O5 O 0.7521(3) 0.2906(4) 0.6705(3)
O6 O 0.8417(3) 0.2421(4) 0.6844(3)
O7 O 0.7073(3) 0.1275(4) 0.6207(3)
O8 O 0.6480(4) 0.0886(6) 0.5144(4)
O9 O 0.5972(4) 0.2113(4) 0.7375(4)
O10 O 0.6175(3) 0.0971(4) 0.6918(3)
O13 O 0.8839(4) 0.3164(6) 0.9061(4)
H21 H 0.9227(19) 0.334(6) 0.918(7)
H22 H 0.891(4) 0.264(3) 0.926(6)
O14 O 0.5983(4) 0.2687(6) 0.5924(4)
H23 H 0.591(3) 0.317(3) 0.611(2)
H24 H 0.5684(13) 0.235(4) 0.592(3)
N8 N 0.7539(4) 0.3753(5) 0.7921(4)
N9 N 0.6979(4) 0.3383(5) 0.7607(4)
N10 N 0.6863(4) 0.4555(5) 0.8081(4)
C13 C 0.6644(7) 0.5215(9) 0.9012(7)
C14 C 0.7045(7) 0.4735(9) 0.9508(6)
H25 H 0.729218 0.436883 0.939997
C17 C 0.6393(7) 0.5805(9) 0.9881(6)
C18 C 0.6338(7) 0.5784(9) 0.9210(6)
H28 H 0.608486 0.617209 0.889264
C19 C 0.6587(6) 0.5280(7) 0.8286(6)
H29 H 0.616319 0.531130 0.797704
H30 H 0.677601 0.580484 0.823830
C21 C 0.7458(5) 0.4467(6) 0.8200(5)
H33 H 0.776072 0.485314 0.844264
C22 C 0.6587(5) 0.3879(6) 0.7709(5)
H34 H 0.617576 0.377059 0.754419
C25 C 0.7663(4) 0.2510(5) 0.5705(4)
C26 C 0.7208(4) 0.1959(6) 0.5290(5)
C27 C 0.7051(4) 0.1964(6) 0.4590(4)
H37 H 0.674483 0.160450 0.430940
C28 C 0.7875(4) 0.2602(6) 0.6470(5)
C29 C 0.6906(4) 0.1340(6) 0.5575(5)
C30 C 0.5446(3) 0.0840(5) 0.7386(4)
C32 C 0.500000 0.1265(8) 0.750000
H38 H 0.499999 0.185787 0.749999
C34 C 0.5900(4) 0.1343(6) 0.7218(4)
O15 O 0.7479(3) 0.2094(4) 0.3295(3)
O16 O 0.6583(3) 0.2579(4) 0.3156(3)
O17 O 0.7927(3) 0.3725(4) 0.3793(3)
O18 O 0.8520(4) 0.4114(6) 0.4856(4)
C36 C 0.7337(4) 0.2490(5) 0.4295(4)
C37 C 0.7792(4) 0.3041(6) 0.4710(5)
C38 C 0.7949(4) 0.3036(6) 0.5410(4)
H40 H 0.825517 0.339550 0.569060
C39 C 0.7125(4) 0.2398(6) 0.3530(5)
C40 C 0.8094(4) 0.3660(6) 0.4425(5)
O19 O 0.4028(4) 0.2113(4) 0.7625(4)
O20 O 0.3825(3) 0.0971(4) 0.8082(3)
C41 C 0.4554(3) 0.0840(5) 0.7614(4)
C43 C 0.4100(4) 0.1343(6) 0.7782(4)
Cd5 Cd 0.16489(3) 0.30802(5) 0.71726(3)
Cd6 Cd 0.32393(3) 0.21538(4) 0.81128(3)
O23 O 0.1161(4) 0.3164(6) 0.5939(4)
H41 H 0.0773(19) 0.334(6) 0.582(7)
H42 H 0.109(4) 0.264(3) 0.574(6)
O24 O 0.4017(4) 0.2687(6) 0.9076(4)
H43 H 0.409(3) 0.317(3) 0.889(2)
H44 H 0.4316(13) 0.235(4) 0.908(3)
N14 N 0.2461(4) 0.3753(5) 0.7079(4)
N15 N 0.3021(4) 0.3383(5) 0.7393(4)
N16 N 0.3137(4) 0.4555(5) 0.6919(4)
N17 N 0.2525(3) 0.3551(5) 0.2797(4)
N18 N 0.3114(3) 0.3255(5) 0.3118(4)
N19 N 0.3041(4) 0.4515(5) 0.3527(4)
C45 C 0.3356(7) 0.5215(9) 0.5988(7)
C46 C 0.2955(7) 0.4735(9) 0.5492(6)
H45 H 0.270782 0.436883 0.560003
C47 C 0.2896(7) 0.4767(9) 0.4818(6)
H46 H 0.259808 0.444575 0.448332
C48 C 0.3258(7) 0.5247(9) 0.4646(6)
C49 C 0.3607(7) 0.5805(9) 0.5119(6)
H47 H 0.381755 0.621587 0.499512
C50 C 0.3662(7) 0.5784(9) 0.5790(6)
H48 H 0.391514 0.617209 0.610736
C51 C 0.3413(6) 0.5280(7) 0.6714(6)
H49 H 0.383681 0.531130 0.702296
H50 H 0.322399 0.580484 0.676170
C52 C 0.3214(6) 0.5322(6) 0.3920(5)
H51 H 0.291962 0.575621 0.367765
H52 H 0.360039 0.550679 0.394028
C53 C 0.2542(5) 0.4467(6) 0.6800(5)
H53 H 0.223928 0.485314 0.655736
C54 C 0.3413(5) 0.3879(6) 0.7291(5)
H54 H 0.382424 0.377059 0.745581
C55 C 0.3429(5) 0.3850(7) 0.3564(5)
H55 H 0.383781 0.382473 0.385139
C56 C 0.2499(4) 0.4291(6) 0.3052(5)
H56 H 0.215265 0.461994 0.292394
Cd11 Cd 0.33511(3) 0.19198(5) 0.28274(3)
Cd14 Cd 0.17607(3) 0.28462(4) 0.18872(3)
O25 O 0.2479(3) 0.2906(4) 0.8295(3)
O26 O 0.1583(3) 0.2421(4) 0.8156(3)
O27 O 0.2927(3) 0.1275(4) 0.8793(3)
O28 O 0.1487(3) 0.4473(5) 0.7869(5)
O29 O 0.8513(3) 0.4473(5) 0.7131(5)
O30 O 0.0812(4) 0.3831(5) 0.6948(4)
O31 O 0.9188(4) 0.3831(5) 0.8052(4)
N20 N 0.7525(3) 0.1449(5) 0.7797(4)
N21 N 0.2475(3) 0.1449(5) 0.7203(4)
N22 N 0.8114(3) 0.1745(5) 0.8118(4)
N23 N 0.1886(3) 0.1745(5) 0.6882(4)
O11 O 0.6487(3) 0.9473(5) 0.7869(5)
O12 O 0.5812(4) 0.8831(5) 0.6948(4)
C31 C 0.5465(3) 0.9961(5) 0.7416(4)
C33 C 0.500000 0.9522(8) 0.750000
H39 H 0.500000 0.892872 0.749999
C35 C 0.5964(4) 0.9392(6) 0.7404(5)
O21 O 0.3513(3) 0.9473(5) 0.7131(5)
O22 O 0.4188(4) 0.8831(5) 0.8052(4)
C42 C 0.4535(3) 0.9961(5) 0.7584(4)
C44 C 0.4036(4) 0.9392(6) 0.7596(5)
Cd7 Cd 0.33511(3) 0.80802(5) 0.78274(3)
Cd8 Cd 0.66489(3) 0.80802(5) 0.71726(3)
C27_2 C 0.2949(4) 0.1964(6) 0.0410(4)
H37_2 H 0.325517 0.160450 0.069060
O15_2 O 0.2521(3) 0.2094(4) 0.1705(3)
O16_2 O 0.3417(3) 0.2579(4) 0.1844(3)
O17_2 O 0.2073(3) 0.3725(4) 0.1207(3)
O18_2 O 0.1480(4) 0.4114(6) 0.0144(4)
C36_2 C 0.2663(4) 0.2490(5) 0.0705(4)
C37_2 C 0.2208(4) 0.3041(6) 0.0290(5)
C39_2 C 0.2875(4) 0.2398(6) 0.1470(5)
C40_2 C 0.1906(4) 0.3660(6) 0.0575(5)
O8_2 O 0.3520(4) 0.0886(6) 0.9856(4)
C25_2 C 0.2337(4) 0.2510(5) 0.9295(4)
C26_2 C 0.2792(4) 0.1959(6) 0.9710(5)
C28_2 C 0.2125(4) 0.2602(6) 0.8530(5)
C29_2 C 0.3094(4) 0.1340(6) 0.9425(5)
C38_2 C 0.2051(4) 0.3036(6) 0.9590(4)
H40_2 H 0.174483 0.339550 0.930940
N11_2 N 0.2475(3) 0.8551(5) 0.2203(4)
N12_2 N 0.1886(3) 0.8255(5) 0.1882(4)
N13_2 N 0.1959(4) 0.9515(5) 0.1473(4)
C15_2 C 0.2104(7) 0.9767(9) 0.0182(6)
H26_2 H 0.240192 0.944575 0.051668
C23_2 C 0.1571(5) 0.8850(7) 0.1436(5)
H35_2 H 0.116219 0.882473 0.114861
C24_2 C 0.2501(4) 0.9291(6) 0.1948(5)
H36_2 H 0.284735 0.961994 0.207606
Cd10_2 Cd 0.16489(3) 0.69198(5) 0.21726(3)
Cd13_2 Cd 0.32393(3) 0.78462(4) 0.31128(3)
Cd4_2 Cd 0.17607(3) 0.71538(4) 0.68872(3)
O5_2 O 0.2521(3) 0.7906(4) 0.6705(3)
O6_2 O 0.3417(3) 0.7421(4) 0.6844(3)
O7_2 O 0.2073(3) 0.6275(4) 0.6207(3)
O8_3 O 0.1480(4) 0.5886(6) 0.5144(4)
O9_2 O 0.0972(4) 0.7113(4) 0.7375(4)
O10_2 O 0.1175(3) 0.5971(4) 0.6918(3)
O13_2 O 0.3839(4) 0.8164(6) 0.9061(4)
H21_2 H 0.4227(19) 0.834(6) 0.918(7)
H22_2 H 0.391(4) 0.764(3) 0.926(6)
O14_2 O 0.0983(4) 0.7687(6) 0.5924(4)
H23_2 H 0.091(3) 0.817(3) 0.611(2)
H24_2 H 0.0684(13) 0.735(4) 0.592(3)
N8_2 N 0.2539(4) 0.8753(5) 0.7921(4)
N9_2 N 0.1979(4) 0.8383(5) 0.7607(4)
N10_2 N 0.1863(4) 0.9555(5) 0.8081(4)
C14_2 C 0.2045(7) 0.9735(9) 0.9508(6)
H25_2 H 0.229218 0.936883 0.939997
C21_2 C 0.2458(5) 0.9467(6) 0.8200(5)
H33_2 H 0.276072 0.985314 0.844264
C22_2 C 0.1587(5) 0.8879(6) 0.7709(5)
H34_2 H 0.117576 0.877059 0.754419
C25_3 C 0.2663(4) 0.7510(5) 0.5705(4)
C26_3 C 0.2208(4) 0.6959(6) 0.5290(5)
C27_3 C 0.2051(4) 0.6964(6) 0.4590(4)
H37_3 H 0.174483 0.660450 0.430940
C28_3 C 0.2875(4) 0.7602(6) 0.6470(5)
C29_3 C 0.1906(4) 0.6340(6) 0.5575(5)
C30_2 C 0.0446(3) 0.5840(5) 0.7386(4)
C31_2 C 0.0465(3) 0.4961(5) 0.7416(4)
C32_2 C -0.000000 0.6265(8) 0.750000
H38_2 H -0.000001 0.685787 0.749999
C33_2 C -0.000000 0.4522(8) 0.750000
H39_2 H -0.000000 0.392872 0.749999
C34_2 C 0.0900(4) 0.6343(6) 0.7218(4)
C35_2 C 0.0964(4) 0.4392(6) 0.7404(5)
O15_3 O 0.2479(3) 0.7094(4) 0.3295(3)
O16_3 O 0.1583(3) 0.7579(4) 0.3156(3)
O17_3 O 0.2927(3) 0.8725(4) 0.3793(3)
O18_3 O 0.3520(4) 0.9114(6) 0.4856(4)
C36_3 C 0.2337(4) 0.7490(5) 0.4295(4)
C37_3 C 0.2792(4) 0.8041(6) 0.4710(5)
C38_3 C 0.2949(4) 0.8036(6) 0.5410(4)
H40_3 H 0.325517 0.839550 0.569060
C39_3 C 0.2125(4) 0.7398(6) 0.3530(5)
C40_3 C 0.3094(4) 0.8660(6) 0.4425(5)
N20_2 N 0.2525(3) 0.6449(5) 0.7797(4)
N22_2 N 0.3114(3) 0.6745(5) 0.8118(4)
C32_3 C 1.000000 0.6265(8) 0.750000
H38_3 H 0.999999 0.685787 0.749999
C33_3 C 1.000000 0.4522(8) 0.750000
H39_3 H 1.000000 0.392872 0.749999
O19_2 O 0.9028(4) 0.7113(4) 0.7625(4)
O20_2 O 0.8825(3) 0.5971(4) 0.8082(3)
C41_2 C 0.9554(3) 0.5840(5) 0.7614(4)
C42_2 C 0.9535(3) 0.4961(5) 0.7584(4)
C43_2 C 0.9100(4) 0.6343(6) 0.7782(4)
C44_2 C 0.9036(4) 0.4392(6) 0.7596(5)
Cd6_2 Cd 0.82393(3) 0.71538(4) 0.81128(3)
O23_2 O 0.6161(4) 0.8164(6) 0.5939(4)
H41_2 H 0.5773(19) 0.834(6) 0.582(7)
H42_2 H 0.609(4) 0.764(3) 0.574(6)
O24_2 O 0.9017(4) 0.7687(6) 0.9076(4)
H43_2 H 0.909(3) 0.817(3) 0.889(2)
H44_2 H 0.9316(13) 0.735(4) 0.908(3)
N14_2 N 0.7461(4) 0.8753(5) 0.7079(4)
N15_2 N 0.8021(4) 0.8383(5) 0.7393(4)
N16_2 N 0.8137(4) 0.9555(5) 0.6919(4)
N17_2 N 0.7525(3) 0.8551(5) 0.2797(4)
N18_2 N 0.8114(3) 0.8255(5) 0.3118(4)
N19_2 N 0.8041(4) 0.9515(5) 0.3527(4)
C46_2 C 0.7955(7) 0.9735(9) 0.5492(6)
H45_2 H 0.770782 0.936883 0.560003
C47_2 C 0.7896(7) 0.9767(9) 0.4818(6)
H46_2 H 0.759808 0.944575 0.448332
C53_2 C 0.7542(5) 0.9467(6) 0.6800(5)
H53_2 H 0.723928 0.985314 0.655736
C54_2 C 0.8413(5) 0.8879(6) 0.7291(5)
H54_2 H 0.882424 0.877059 0.745581
C55_2 C 0.8429(5) 0.8850(7) 0.3564(5)
H55_2 H 0.883781 0.882473 0.385139
C56_2 C 0.7499(4) 0.9291(6) 0.3052(5)
H56_2 H 0.715265 0.961994 0.292394
Cd11_2 Cd 0.83511(3) 0.69198(5) 0.28274(3)
Cd14_2 Cd 0.67607(3) 0.78462(4) 0.18872(3)
O25_2 O 0.7479(3) 0.7906(4) 0.8295(3)
O26_2 O 0.6583(3) 0.7421(4) 0.8156(3)
O27_2 O 0.7927(3) 0.6275(4) 0.8793(3)
N21_2 N 0.7475(3) 0.6449(5) 0.7203(4)
N23_2 N 0.6886(3) 0.6745(5) 0.6882(4)
C27_4 C 0.7949(4) 0.6964(6) 0.0410(4)
H37_4 H 0.825517 0.660450 0.069060
O15_4 O 0.7521(3) 0.7094(4) 0.1705(3)
O16_4 O 0.8417(3) 0.7579(4) 0.1844(3)
O17_4 O 0.7073(3) 0.8725(4) 0.1207(3)
O18_4 O 0.6480(4) 0.9114(6) 0.0144(4)
C36_4 C 0.7663(4) 0.7490(5) 0.0705(4)
C37_4 C 0.7208(4) 0.8041(6) 0.0290(5)
C39_4 C 0.7875(4) 0.7398(6) 0.1470(5)
C40_4 C 0.6906(4) 0.8660(6) 0.0575(5)
O8_4 O 0.8520(4) 0.5886(6) 0.9856(4)
C25_4 C 0.7337(4) 0.7510(5) 0.9295(4)
C26_4 C 0.7792(4) 0.6959(6) 0.9710(5)
C28_4 C 0.7125(4) 0.7602(6) 0.8530(5)
C29_4 C 0.8094(4) 0.6340(6) 0.9425(5)
C38_4 C 0.7051(4) 0.8036(6) 0.9590(4)
H40_4 H 0.674483 0.839550 0.930940
O11_2 O 0.3513(3) 0.0527(5) 0.2131(5)
O12_2 O 0.4188(4) 0.1169(5) 0.3052(4)
C31_3 C 0.4535(3) 0.0039(5) 0.2584(4)
C33_4 C 0.500000 0.0478(8) 0.250000
H39_4 H 0.500000 0.107128 0.250001
C35_3 C 0.4036(4) 0.0608(6) 0.2596(5)
O21_2 O 0.6487(3) 0.0527(5) 0.2869(5)
O22_2 O 0.5812(4) 0.1169(5) 0.1948(4)
C42_3 C 0.5465(3) 0.0039(5) 0.2416(4)
C44_3 C 0.5964(4) 0.0608(6) 0.2404(5)
O9_3 O 0.4028(4) 0.7887(4) 0.2625(4)
O10_3 O 0.3825(3) 0.9029(4) 0.3082(3)
O13_3 O 0.1161(4) 0.6836(6) 0.0939(4)
H21_3 H 0.0773(19) 0.666(6) 0.082(7)
H22_3 H 0.109(4) 0.736(3) 0.074(6)
O14_3 O 0.4017(4) 0.7313(6) 0.4076(4)
H23_3 H 0.409(3) 0.683(3) 0.389(2)
H24_3 H 0.4316(13) 0.765(4) 0.408(3)
N8_3 N 0.2461(4) 0.6247(5) 0.2079(4)
N9_3 N 0.3021(4) 0.6617(5) 0.2393(4)
N10_3 N 0.3137(4) 0.5445(5) 0.1919(4)
C13_2 C 0.3356(7) 0.4785(9) 0.0988(7)
C14_3 C 0.2955(7) 0.5265(9) 0.0492(6)
H25_3 H 0.270782 0.563117 0.060003
C17_2 C 0.3607(7) 0.4195(9) 0.0119(6)
C18_2 C 0.3662(7) 0.4216(9) 0.0790(6)
H28_2 H 0.391514 0.382791 0.110736
C19_2 C 0.3413(6) 0.4720(7) 0.1714(6)
H29_2 H 0.383681 0.468870 0.202296
H30_2 H 0.322399 0.419516 0.176170
C21_3 C 0.2542(5) 0.5533(6) 0.1800(5)
H33_3 H 0.223928 0.514686 0.155736
C22_3 C 0.3413(5) 0.6121(6) 0.2291(5)
H34_3 H 0.382424 0.622941 0.245581
C30_3 C 0.4554(3) 0.9160(5) 0.2614(4)
C32_4 C 0.500000 0.8735(8) 0.250000
H38_4 H 0.500001 0.814213 0.250001
C34_3 C 0.4100(4) 0.8657(6) 0.2782(4)
O19_3 O 0.5972(4) 0.7887(4) 0.2375(4)
O20_3 O 0.6175(3) 0.9029(4) 0.1918(3)
C41_3 C 0.5446(3) 0.9160(5) 0.2386(4)
C43_3 C 0.5900(4) 0.8657(6) 0.2218(4)
O23_3 O 0.8839(4) 0.6836(6) 0.4061(4)
H41_3 H 0.9227(19) 0.666(6) 0.418(7)
H42_3 H 0.891(4) 0.736(3) 0.426(6)
O24_3 O 0.5983(4) 0.7313(6) 0.0924(4)
H43_3 H 0.591(3) 0.683(3) 0.111(2)
H44_3 H 0.5684(13) 0.765(4) 0.092(3)
N14_3 N 0.7539(4) 0.6247(5) 0.2921(4)
N15_3 N 0.6979(4) 0.6617(5) 0.2607(4)
N16_3 N 0.6863(4) 0.5445(5) 0.3081(4)
N19_3 N 0.6959(4) 0.5485(5) 0.6473(4)
C45_2 C 0.6644(7) 0.4785(9) 0.4012(7)
C46_3 C 0.7045(7) 0.5265(9) 0.4508(6)
H45_3 H 0.729218 0.563117 0.439997
C47_3 C 0.7104(7) 0.5233(9) 0.5182(6)
H46_3 H 0.740192 0.555425 0.551668
C48_2 C 0.6742(7) 0.4753(9) 0.5354(6)
C49_2 C 0.6393(7) 0.4195(9) 0.4881(6)
H47_2 H 0.618245 0.378413 0.500488
C50_2 C 0.6338(7) 0.4216(9) 0.4210(6)
H48_2 H 0.608486 0.382791 0.389264
C51_2 C 0.6587(6) 0.4720(7) 0.3286(6)
H49_2 H 0.616319 0.468870 0.297704
H50_2 H 0.677601 0.419516 0.323830
C52_2 C 0.6786(6) 0.4678(6) 0.6080(5)
H51_2 H 0.708038 0.424379 0.632235
H52_2 H 0.639961 0.449321 0.605972
C53_3 C 0.7458(5) 0.5533(6) 0.3200(5)
H53_3 H 0.776072 0.514686 0.344264
C54_3 C 0.6587(5) 0.6121(6) 0.2709(5)
H54_3 H 0.617576 0.622941 0.254419
C55_3 C 0.6571(5) 0.6150(7) 0.6436(5)
H55_3 H 0.616219 0.617527 0.614861
C56_3 C 0.7501(4) 0.5709(6) 0.6948(5)
H56_3 H 0.784735 0.538006 0.707606
O28_2 O 0.8513(3) 0.5527(5) 0.2131(5)
O29_2 O 0.1487(3) 0.5527(5) 0.2869(5)
O30_2 O 0.9188(4) 0.6169(5) 0.3052(4)
O31_2 O 0.0812(4) 0.6169(5) 0.1948(4)
N13_3 N 0.3041(4) 0.5485(5) 0.8527(4)
C15_3 C 0.2896(7) 0.5233(9) 0.9818(6)
H26_3 H 0.259808 0.555425 0.948332
C16_2 C 0.3258(7) 0.4753(9) 0.9646(6)
H27_2 H 0.381755 0.378413 0.999512
C20_2 C 0.3214(6) 0.4678(6) 0.8920(5)
H31_2 H 0.291962 0.424379 0.867765
H32_2 H 0.360039 0.449321 0.894028
C23_3 C 0.3429(5) 0.6150(7) 0.8564(5)
H35_3 H 0.383781 0.617527 0.885139
C24_3 C 0.2499(4) 0.5709(6) 0.8052(5)
H36_3 H 0.215265 0.538006 0.792394
C32_5 C 0.000000 0.3735(8) 0.250000
H38_5 H 0.000001 0.314213 0.250001
C33_5 C 0.000000 0.5478(8) 0.250000
H39_5 H 0.000000 0.607128 0.250001
O19_4 O 0.0972(4) 0.2887(4) 0.2375(4)
O20_4 O 0.1175(3) 0.4029(4) 0.1918(3)
C41_4 C 0.0446(3) 0.4160(5) 0.2386(4)
C42_4 C 0.0465(3) 0.5039(5) 0.2416(4)
C43_4 C 0.0900(4) 0.3657(6) 0.2218(4)
C44_4 C 0.0964(4) 0.5608(6) 0.2404(5)
O23_4 O 0.3839(4) 0.1836(6) 0.4061(4)
H41_4 H 0.4227(19) 0.166(6) 0.418(7)
H42_4 H 0.391(4) 0.236(3) 0.426(6)
O24_4 O 0.0983(4) 0.2313(6) 0.0924(4)
H43_4 H 0.091(3) 0.183(3) 0.111(2)
H44_4 H 0.0684(13) 0.265(4) 0.092(3)
N14_4 N 0.2539(4) 0.1247(5) 0.2921(4)
N15_4 N 0.1979(4) 0.1617(5) 0.2607(4)
N16_4 N 0.1863(4) 0.0445(5) 0.3081(4)
N19_4 N 0.1959(4) 0.0485(5) 0.6473(4)
C46_4 C 0.2045(7) 0.0265(9) 0.4508(6)
H45_4 H 0.229218 0.063117 0.439997
C47_4 C 0.2104(7) 0.0233(9) 0.5182(6)
H46_4 H 0.240192 0.055425 0.551668
C53_4 C 0.2458(5) 0.0533(6) 0.3200(5)
H53_4 H 0.276072 0.014686 0.344264
C54_4 C 0.1587(5) 0.1121(6) 0.2709(5)
H54_4 H 0.117576 0.122941 0.254419
C55_4 C 0.1571(5) 0.1150(7) 0.6436(5)
H55_4 H 0.116219 0.117527 0.614861
C56_4 C 0.2501(4) 0.0709(6) 0.6948(5)
H56_4 H 0.284735 0.038006 0.707606
O9_4 O 0.9028(4) 0.2887(4) 0.2625(4)
O10_4 O 0.8825(3) 0.4029(4) 0.3082(3)
O13_4 O 0.6161(4) 0.1836(6) 0.0939(4)
H21_4 H 0.5773(19) 0.166(6) 0.082(7)
H22_4 H 0.609(4) 0.236(3) 0.074(6)
O14_4 O 0.9017(4) 0.2313(6) 0.4076(4)
H23_4 H 0.909(3) 0.183(3) 0.389(2)
H24_4 H 0.9316(13) 0.265(4) 0.408(3)
N8_4 N 0.7461(4) 0.1247(5) 0.2079(4)
N9_4 N 0.8021(4) 0.1617(5) 0.2393(4)
N10_4 N 0.8137(4) 0.0445(5) 0.1919(4)
C14_4 C 0.7955(7) 0.0265(9) 0.0492(6)
H25_4 H 0.770782 0.063117 0.060003
C21_4 C 0.7542(5) 0.0533(6) 0.1800(5)
H33_4 H 0.723928 0.014686 0.155736
C22_4 C 0.8413(5) 0.1121(6) 0.2291(5)
H34_4 H 0.882424 0.122941 0.245581
C30_4 C 0.9554(3) 0.4160(5) 0.2614(4)
C31_4 C 0.9535(3) 0.5039(5) 0.2584(4)
C32_6 C 1.000000 0.3735(8) 0.250000
H38_6 H 1.000001 0.314213 0.250001
C33_6 C 1.000000 0.5478(8) 0.250000
H39_6 H 1.000000 0.607128 0.250001
C34_4 C 0.9100(4) 0.3657(6) 0.2782(4)
C35_4 C 0.9036(4) 0.5608(6) 0.2596(5)
N13_4 N 0.8041(4) 0.0485(5) 0.8527(4)
C15_4 C 0.7896(7) 0.0233(9) 0.9818(6)
H26_4 H 0.759808 0.055425 0.948332
C23_4 C 0.8429(5) 0.1150(7) 0.8564(5)
H35_4 H 0.883781 0.117527 0.885139
C24_4 C 0.7499(4) 0.0709(6) 0.8052(5)
H36_4 H 0.715265 0.038006 0.792394
C16_3 C 0.1742(7) 0.0247(9) 0.0354(6)
H27_3 H 0.118245 0.121587 0.000488
C20_3 C 0.1786(6) 0.0322(6) 0.1080(5)
H31_3 H 0.208038 0.075621 0.132235
H32_3 H 0.139961 0.050679 0.105972
C13_3 C 0.1644(7) 0.0215(9) 0.9012(7)
C17_3 C 0.1393(7) 0.0805(9) 0.9881(6)
C18_3 C 0.1338(7) 0.0784(9) 0.9210(6)
H28_3 H 0.108486 0.117209 0.889264
C19_3 C 0.1587(6) 0.0280(7) 0.8286(6)
H29_3 H 0.116319 0.031130 0.797704
H30_3 H 0.177601 0.080484 0.823830
C45_3 C 0.8356(7) 0.0215(9) 0.5988(7)
C48_3 C 0.8258(7) 0.0247(9) 0.4646(6)
C49_3 C 0.8607(7) 0.0805(9) 0.5119(6)
H47_3 H 0.881755 0.121587 0.499512
C50_3 C 0.8662(7) 0.0784(9) 0.5790(6)
H48_3 H 0.891514 0.117209 0.610736
C51_3 C 0.8413(6) 0.0280(7) 0.6714(6)
H49_3 H 0.883681 0.031130 0.702296
H50_3 H 0.822399 0.080484 0.676170
C52_3 C 0.8214(6) 0.0322(6) 0.3920(5)
H51_3 H 0.791962 0.075621 0.367765
H52_3 H 0.860039 0.050679 0.394028
C45_4 C 0.1644(7) 0.9785(9) 0.4012(7)
C48_4 C 0.1742(7) 0.9753(9) 0.5354(6)
C49_4 C 0.1393(7) 0.9195(9) 0.4881(6)
H47_4 H 0.118245 0.878413 0.500488
C50_4 C 0.1338(7) 0.9216(9) 0.4210(6)
H48_4 H 0.108486 0.882791 0.389264
C51_4 C 0.1587(6) 0.9720(7) 0.3286(6)
H49_4 H 0.116319 0.968870 0.297704
H50_4 H 0.177601 0.919516 0.323830
C52_4 C 0.1786(6) 0.9678(6) 0.6080(5)
H51_4 H 0.208038 0.924379 0.632235
H52_4 H 0.139961 0.949321 0.605972
C13_4 C 0.8356(7) 0.9785(9) 0.0988(7)
C17_4 C 0.8607(7) 0.9195(9) 0.0119(6)
C18_4 C 0.8662(7) 0.9216(9) 0.0790(6)
H28_4 H 0.891514 0.882791 0.110736
C19_4 C 0.8413(6) 0.9720(7) 0.1714(6)
H29_4 H 0.883681 0.968870 0.202296
H30_4 H 0.822399 0.919516 0.176170
C16_4 C 0.8258(7) 0.9753(9) 0.9646(6)
H27_4 H 0.881755 0.878413 0.999512
C20_4 C 0.8214(6) 0.9678(6) 0.8920(5)
H31_4 H 0.791962 0.924379 0.867765
H32_4 H 0.860039 0.949321 0.894028
loop_
_geom_bond_atom_site_label_1
_geom_bond_atom_site_label_2
_geom_bond_site_symmetry_1
_geom_bond_site_symmetry_2
Cd1 O1 1_555 1_555
N1 Cd1 1_555 1_555
N2 N1 1_555 1_555
N3 C4 1_555 1_555
C1 C2 1_555 1_555
C2 H3 1_555 1_555
C3 C1 1_555 1_555
H4 C3 1_555 1_555
C4 C1 1_555 1_555
H5 C4 1_555 1_555
H6 C4 1_555 1_555
C5 N1 1_555 1_555
H7 C5 1_555 1_555
C6 N2 1_555 1_555
H8 C6 1_555 1_555
N4 N5 1_555 1_555
N5 C12 1_555 1_555
N6 C10 1_555 1_555
C7 C8 1_555 1_555
C8 C3 1_555 1_555
H11 C8 1_555 1_555
C9 C2 1_555 1_555
H12 C9 1_555 1_555
C10 C7 1_555 1_555
H13 C10 1_555 1_555
H14 C10 1_555 1_555
C11 N4 1_555 1_555
H15 C11 1_555 1_555
C12 N6 1_555 1_555
H16 C12 1_555 1_555
O4 Cd1 1_555 1_555
H17 O4 1_555 1_555
H18 O4 1_555 1_555
Cd2 N4 1_555 1_555
N3 C5 1_555 1_555
N3 C6 1_555 1_555
N6 C11 1_555 1_555
C7 C9 1_555 1_555
O3 Cd2 1_555 1_555
O4_2 Cd2 1_555 1_555
H17_2 O4_2 1_555 1_555
H19_2 O3 1_555 1_555
H20_2 O3 1_555 1_555
O2 Cd1_2 1_555 1_555
H1 O2 1_555 1_555
H2_2 O2 1_555 1_555
O3_2 Cd1_2 1_555 1_555
N7 Cd1_2 1_555 1_555
Cd2_2 O1_2 1_555 1_555
O1_2 H9_2 1_555 1_555
O2_2 Cd2_2 1_555 1_555
H1_2 O2_2 1_555 1_555
N1_2 Cd2_2 1_555 1_555
N2_2 N1_2 1_555 1_555
N3_2 C4_2 1_555 1_555
C1_2 C2_2 1_555 1_555
C2_2 H3_2 1_555 1_555
C3_2 C1_2 1_555 1_555
H4_2 C3_2 1_555 1_555
C4_2 C1_2 1_555 1_555
H5_2 C4_2 1_555 1_555
H6_2 C4_2 1_555 1_555
C5_2 N1_2 1_555 1_555
H7_2 C5_2 1_555 1_555
C6_2 N2_2 1_555 1_555
H8_2 C6_2 1_555 1_555
H10_2 O1_2 1_555 1_555
N7 N5_2 1_555 1_555
N5_2 C12_2 1_555 1_555
N6_2 C10_2 1_555 1_555
C7_2 C8_2 1_555 1_555
C8_2 C3_2 1_555 1_555
H11_2 C8_2 1_555 1_555
C9_2 C2_2 1_555 1_555
H12_2 C9_2 1_555 1_555
C10_2 C7_2 1_555 1_555
H13_2 C10_2 1_555 1_555
H14_2 C10_2 1_555 1_555
C11_2 N7 1_555 1_555
H15_2 C11_2 1_555 1_555
C12_2 N6_2 1_555 1_555
H16_2 C12_2 1_555 1_555
N3_2 C5_2 1_555 1_555
N3_2 C6_2 1_555 1_555
N6_2 C11_2 1_555 1_555
C7_2 C9_2 1_555 1_555
N7_2 Cd1_3 1_555 1_555
Cd2_3 O1_3 1_555 1_555
O1_3 H9_4 1_555 1_555
H4_3 C3_3 1_555 1_555
H10_4 O1_3 1_555 1_555
N7_2 N5_3 1_555 1_555
N5_3 C12_3 1_555 1_555
N6_3 C10_3 1_555 1_555
C7_3 C8_3 1_555 1_555
C8_3 C3_3 1_555 1_555
H11_3 C8_3 1_555 1_555
C10_3 C7_3 1_555 1_555
H13_3 C10_3 1_555 1_555
H14_3 C10_3 1_555 1_555
C11_3 N7_2 1_555 1_555
H15_3 C11_3 1_555 1_555
C12_3 N6_3 1_555 1_555
H16_3 C12_3 1_555 1_555
N6_3 C11_3 1_555 1_555
O2_3 Cd1_4 1_555 1_555
H1_3 O2_3 1_555 1_555
H2_3 O2_3 1_555 1_555
O3_3 Cd1_4 1_555 1_555
O2_4 Cd2_4 1_555 1_555
H1_4 O2_4 1_555 1_555
N1_3 Cd2_4 1_555 1_555
N2_3 N1_3 1_555 1_555
N3_3 C4_3 1_555 1_555
C1_3 C2_3 1_555 1_555
C2_3 H3_3 1_555 1_555
C4_3 C1_3 1_555 1_555
H5_3 C4_3 1_555 1_555
H6_3 C4_3 1_555 1_555
C5_3 N1_3 1_555 1_555
H7_3 C5_3 1_555 1_555
C6_3 N2_3 1_555 1_555
H8_3 C6_3 1_555 1_555
C9_3 C2_3 1_555 1_555
H12_3 C9_3 1_555 1_555
N3_3 C5_3 1_555 1_555
N3_3 C6_3 1_555 1_555
Cd1_5 O1_4 1_555 1_555
H4_4 C3_4 1_555 1_555
N4_2 N5_4 1_555 1_555
N5_4 C12_4 1_555 1_555
N6_4 C10_4 1_555 1_555
C7_4 C8_4 1_555 1_555
C8_4 C3_4 1_555 1_555
H11_4 C8_4 1_555 1_555
C10_4 C7_4 1_555 1_555
H13_4 C10_4 1_555 1_555
H14_4 C10_4 1_555 1_555
C11_4 N4_2 1_555 1_555
H15_4 C11_4 1_555 1_555
C12_4 N6_4 1_555 1_555
H16_4 C12_4 1_555 1_555
O4_3 Cd1_5 1_555 1_555
H17_3 O4_3 1_555 1_555
H18_4 O4_3 1_555 1_555
Cd2_5 N4_2 1_555 1_555
N6_4 C11_4 1_555 1_555
O4_4 Cd2_5 1_555 1_555
H17_4 O4_4 1_555 1_555
N1_4 Cd1_6 1_555 1_555
N2_4 N1_4 1_555 1_555
N3_4 C4_4 1_555 1_555
C1_4 C2_4 1_555 1_555
C2_4 H3_4 1_555 1_555
C4_4 C1_4 1_555 1_555
H5_4 C4_4 1_555 1_555
H6_4 C4_4 1_555 1_555
C5_4 N1_4 1_555 1_555
H7_4 C5_4 1_555 1_555
C6_4 N2_4 1_555 1_555
H8_4 C6_4 1_555 1_555
C9_4 C2_4 1_555 1_555
H12_4 C9_4 1_555 1_555
N3_4 C5_4 1_555 1_555
N3_4 C6_4 1_555 1_555
O3_4 Cd2_6 1_555 1_555
H19_4 O3_4 1_555 1_555
H20_4 O3_4 1_555 1_555
N11 N12 1_555 1_555
N12 C23 1_555 1_555
N13 C20 1_555 1_555
H26 C15 1_555 1_555
C16 C15 1_555 1_555
C20 C16 1_555 1_555
H31 C20 1_555 1_555
H32 C20 1_555 1_555
C23 N13 1_555 1_555
H35 C23 1_555 1_555
C24 N11 1_555 1_555
H36 C24 1_555 1_555
Cd10 N12 1_555 1_555
Cd13 N11 1_555 1_555
N13 C24 1_555 1_555
Cd3 O5 1_555 1_555
Cd4 O5 1_555 1_555
O5 C28 1_555 1_555
O6 Cd3 1_555 1_555
O7 Cd4 1_555 1_555
O8 C29 1_555 1_555
O9 Cd4 1_555 1_555
O10 Cd4 1_555 1_555
O13 Cd3 1_555 1_555
H21 O13 1_555 1_555
H22 O13 1_555 1_555
O14 Cd4 1_555 1_555
H23 O14 1_555 1_555
H24 O14 1_555 1_555
N8 Cd3 1_555 1_555
N9 Cd4 1_555 1_555
N10 C19 1_555 1_555
C13 C14 1_555 1_555
C14 H25 1_555 1_555
C18 C13 1_555 1_555
H28 C18 1_555 1_555
C19 C13 1_555 1_555
H29 C19 1_555 1_555
H30 C19 1_555 1_555
C21 N8 1_555 1_555
H33 C21 1_555 1_555
C22 N9 1_555 1_555
H34 C22 1_555 1_555
C25 C26 1_555 1_555
C26 C27 1_555 1_555
C27 H37 1_555 1_555
C28 O6 1_555 1_555
C29 O7 1_555 1_555
C32 C30 1_555 1_555
H38 C32 1_555 1_555
C34 O9 1_555 1_555
O15 C39 1_555 1_555
O16 C39 1_555 1_555
O17 C40 1_555 1_555
O18 C40 1_555 1_555
C36 C27 1_555 1_555
C37 C36 1_555 1_555
C38 C25 1_555 1_555
H40 C38 1_555 1_555
C39 C36 1_555 1_555
C40 C37 1_555 1_555
O19 C43 1_555 1_555
O20 C43 1_555 1_555
C41 C32 1_555 1_555
C43 C41 1_555 1_555
Cd5 O23 1_555 1_555
Cd6 O19 1_555 1_555
O23 H41 1_555 1_555
H42 O23 1_555 1_555
O24 Cd6 1_555 1_555
H43 O24 1_555 1_555
H44 O24 1_555 1_555
N14 Cd5 1_555 1_555
N15 Cd6 1_555 1_555
N16 C51 1_555 1_555
N17 N18 1_555 1_555
N18 C55 1_555 1_555
N19 C52 1_555 1_555
C45 C46 1_555 1_555
C46 H45 1_555 1_555
C47 C46 1_555 1_555
H46 C47 1_555 1_555
C48 C47 1_555 1_555
C49 C48 1_555 1_555
H47 C49 1_555 1_555
C50 C45 1_555 1_555
H48 C50 1_555 1_555
C51 C45 1_555 1_555
H49 C51 1_555 1_555
H50 C51 1_555 1_555
C52 C48 1_555 1_555
H51 C52 1_555 1_555
H52 C52 1_555 1_555
C53 N14 1_555 1_555
H53 C53 1_555 1_555
C54 N15 1_555 1_555
H54 C54 1_555 1_555
C55 N19 1_555 1_555
H55 C55 1_555 1_555
C56 N17 1_555 1_555
H56 C56 1_555 1_555
Cd10 O15 1_555 1_555
Cd11 N18 1_555 1_555
Cd13 O15 1_555 1_555
Cd14 N17 1_555 1_555
O25 Cd5 1_555 1_555
O26 Cd5 1_555 1_555
O27 Cd6 1_555 1_555
O28 Cd5 1_555 1_555
O29 Cd3 1_555 1_555
O30 Cd5 1_555 1_555
O31 Cd3 1_555 1_555
N20 Cd4 1_555 1_555
N21 Cd6 1_555 1_555
N22 Cd3 1_555 1_555
N23 Cd5 1_555 1_555
O10 C34 1_555 1_555
N8 N9 1_555 1_555
N10 C21 1_555 1_555
N10 C22 1_555 1_555
C17 C18 1_555 1_555
C25 C28 1_555 1_555
C26 C29 1_555 1_555
C30 C34 1_555 1_555
O16 Cd10 1_555 1_555
O17 Cd13 1_555 1_555
C37 C38 1_555 1_555
O20 Cd6 1_555 1_555
Cd6 O25 1_555 1_555
N14 N15 1_555 1_555
N16 C53 1_555 1_555
N16 C54 1_555 1_555
N19 C56 1_555 1_555
C49 C50 1_555 1_555
N20 N22 1_555 1_555
N21 N23 1_555 1_555
O11 C35 1_555 1_555
O12 C35 1_555 1_555
C31 C33 1_555 1_555
C33 H39 1_555 1_555
C35 C31 1_555 1_555
O21 C44 1_555 1_555
O22 C44 1_555 1_555
C42 C33 1_555 1_555
C44 C42 1_555 1_555
Cd7 O21 1_555 1_555
Cd8 O11 1_555 1_555
O12 Cd8 1_555 1_555
O22 Cd7 1_555 1_555
C27_2 H37_2 1_555 1_555
O15_2 C39_2 1_555 1_555
O16_2 C39_2 1_555 1_555
O17_2 C40_2 1_555 1_555
O18_2 C40_2 1_555 1_555
C36_2 C27_2 1_555 1_555
C37_2 C36_2 1_555 1_555
C39_2 C36_2 1_555 1_555
C40_2 C37_2 1_555 1_555
Cd11 O15_2 1_555 1_555
Cd14 O15_2 1_555 1_555
O16_2 Cd11 1_555 1_555
O17_2 Cd14 1_555 1_555
O25 C28_2 1_555 1_555
O8_2 C29_2 1_555 1_555
C25_2 C26_2 1_555 1_555
C28_2 O26 1_555 1_555
C29_2 O27 1_555 1_555
C38_2 C25_2 1_555 1_555
H40_2 C38_2 1_555 1_555
C25_2 C28_2 1_555 1_555
C26_2 C29_2 1_555 1_555
N11_2 N12_2 1_555 1_555
N12_2 C23_2 1_555 1_555
H26_2 C15_2 1_555 1_555
C23_2 N13_2 1_555 1_555
H35_2 C23_2 1_555 1_555
C24_2 N11_2 1_555 1_555
H36_2 C24_2 1_555 1_555
Cd10_2 N12_2 1_555 1_555
Cd13_2 N11_2 1_555 1_555
N13_2 C24_2 1_555 1_555
Cd7 O5_2 1_555 1_555
Cd4_2 O5_2 1_555 1_555
O5_2 C28_3 1_555 1_555
O6_2 Cd7 1_555 1_555
O7_2 Cd4_2 1_555 1_555
O8_3 C29_3 1_555 1_555
O9_2 Cd4_2 1_555 1_555
O10_2 Cd4_2 1_555 1_555
O28 C35_2 1_555 1_555
O30 C35_2 1_555 1_555
O13_2 Cd7 1_555 1_555
H21_2 O13_2 1_555 1_555
H22_2 O13_2 1_555 1_555
O14_2 Cd4_2 1_555 1_555
H23_2 O14_2 1_555 1_555
H24_2 O14_2 1_555 1_555
N8_2 Cd7 1_555 1_555
N9_2 Cd4_2 1_555 1_555
C14_2 H25_2 1_555 1_555
C21_2 N8_2 1_555 1_555
H33_2 C21_2 1_555 1_555
C22_2 N9_2 1_555 1_555
H34_2 C22_2 1_555 1_555
C25_3 C26_3 1_555 1_555
C26_3 C27_3 1_555 1_555
C27_3 H37_3 1_555 1_555
C28_3 O6_2 1_555 1_555
C29_3 O7_2 1_555 1_555
C30_2 C31_2 1_555 1_555
C31_2 C33_2 1_555 1_555
C32_2 C30_2 1_555 1_555
H38_2 C32_2 1_555 1_555
C33_2 H39_2 1_555 1_555
C34_2 O9_2 1_555 1_555
C35_2 C31_2 1_555 1_555
O15_3 C39_3 1_555 1_555
O16_3 C39_3 1_555 1_555
O17_3 C40_3 1_555 1_555
O18_3 C40_3 1_555 1_555
C36_3 C27_3 1_555 1_555
C37_3 C36_3 1_555 1_555
C38_3 C25_3 1_555 1_555
H40_3 C38_3 1_555 1_555
C39_3 C36_3 1_555 1_555
C40_3 C37_3 1_555 1_555
Cd10_2 O15_3 1_555 1_555
Cd13_2 O15_3 1_555 1_555
N20_2 Cd4_2 1_555 1_555
N22_2 Cd7 1_555 1_555
O10_2 C34_2 1_555 1_555
N8_2 N9_2 1_555 1_555
N10_2 C21_2 1_555 1_555
N10_2 C22_2 1_555 1_555
C25_3 C28_3 1_555 1_555
C26_3 C29_3 1_555 1_555
C30_2 C34_2 1_555 1_555
O16_3 Cd10_2 1_555 1_555
O17_3 Cd13_2 1_555 1_555
C37_3 C38_3 1_555 1_555
N20_2 N22_2 1_555 1_555
H38_3 C32_3 1_555 1_555
C33_3 H39_3 1_555 1_555
O19_2 C43_2 1_555 1_555
O20_2 C43_2 1_555 1_555
O29 C44_2 1_555 1_555
O31 C44_2 1_555 1_555
C41_2 C32_3 1_555 1_555
C42_2 C33_3 1_555 1_555
C43_2 C41_2 1_555 1_555
C44_2 C42_2 1_555 1_555
Cd8 O23_2 1_555 1_555
Cd6_2 O19_2 1_555 1_555
O23_2 H41_2 1_555 1_555
H42_2 O23_2 1_555 1_555
O24_2 Cd6_2 1_555 1_555
H43_2 O24_2 1_555 1_555
H44_2 O24_2 1_555 1_555
N14_2 Cd8 1_555 1_555
N15_2 Cd6_2 1_555 1_555
N17_2 N18_2 1_555 1_555
N18_2 C55_2 1_555 1_555
C46_2 H45_2 1_555 1_555
C47_2 C46_2 1_555 1_555
H46_2 C47_2 1_555 1_555
C53_2 N14_2 1_555 1_555
H53_2 C53_2 1_555 1_555
C54_2 N15_2 1_555 1_555
H54_2 C54_2 1_555 1_555
C55_2 N19_2 1_555 1_555
H55_2 C55_2 1_555 1_555
C56_2 N17_2 1_555 1_555
H56_2 C56_2 1_555 1_555
Cd11_2 N18_2 1_555 1_555
Cd14_2 N17_2 1_555 1_555
O25_2 Cd8 1_555 1_555
O26_2 Cd8 1_555 1_555
O27_2 Cd6_2 1_555 1_555
N21_2 Cd6_2 1_555 1_555
N23_2 Cd8 1_555 1_555
O20_2 Cd6_2 1_555 1_555
C41_2 C42_2 1_555 1_555
Cd6_2 O25_2 1_555 1_555
N14_2 N15_2 1_555 1_555
N16_2 C53_2 1_555 1_555
N16_2 C54_2 1_555 1_555
N19_2 C56_2 1_555 1_555
N21_2 N23_2 1_555 1_555
C27_4 H37_4 1_555 1_555
O15_4 C39_4 1_555 1_555
O16_4 C39_4 1_555 1_555
O17_4 C40_4 1_555 1_555
O18_4 C40_4 1_555 1_555
C36_4 C27_4 1_555 1_555
C37_4 C36_4 1_555 1_555
C39_4 C36_4 1_555 1_555
C40_4 C37_4 1_555 1_555
Cd11_2 O15_4 1_555 1_555
Cd14_2 O15_4 1_555 1_555
O16_4 Cd11_2 1_555 1_555
O17_4 Cd14_2 1_555 1_555
O25_2 C28_4 1_555 1_555
O8_4 C29_4 1_555 1_555
C25_4 C26_4 1_555 1_555
C28_4 O26_2 1_555 1_555
C29_4 O27_2 1_555 1_555
C38_4 C25_4 1_555 1_555
H40_4 C38_4 1_555 1_555
C25_4 C28_4 1_555 1_555
C26_4 C29_4 1_555 1_555
O11_2 C35_3 1_555 1_555
O12_2 C35_3 1_555 1_555
C31_3 C33_4 1_555 1_555
C33_4 H39_4 1_555 1_555
C35_3 C31_3 1_555 1_555
O21_2 C44_3 1_555 1_555
O22_2 C44_3 1_555 1_555
C42_3 C33_4 1_555 1_555
C44_3 C42_3 1_555 1_555
Cd10 O21_2 1_555 1_555
Cd11 O11_2 1_555 1_555
O12_2 Cd11 1_555 1_555
O22_2 Cd10 1_555 1_555
O9_3 Cd13_2 1_555 1_555
O10_3 Cd13_2 1_555 1_555
O13_3 Cd10_2 1_555 1_555
H21_3 O13_3 1_555 1_555
H22_3 O13_3 1_555 1_555
O14_3 Cd13_2 1_555 1_555
H23_3 O14_3 1_555 1_555
H24_3 O14_3 1_555 1_555
N8_3 Cd10_2 1_555 1_555
N9_3 Cd13_2 1_555 1_555
N10_3 C19_2 1_555 1_555
C13_2 C14_3 1_555 1_555
C14_3 H25_3 1_555 1_555
C18_2 C13_2 1_555 1_555
H28_2 C18_2 1_555 1_555
C19_2 C13_2 1_555 1_555
H29_2 C19_2 1_555 1_555
H30_2 C19_2 1_555 1_555
C21_3 N8_3 1_555 1_555
H33_3 C21_3 1_555 1_555
C22_3 N9_3 1_555 1_555
H34_3 C22_3 1_555 1_555
C32_4 C30_3 1_555 1_555
H38_4 C32_4 1_555 1_555
C34_3 O9_3 1_555 1_555
O19_3 C43_3 1_555 1_555
O20_3 C43_3 1_555 1_555
C41_3 C32_4 1_555 1_555
C43_3 C41_3 1_555 1_555
Cd11_2 O23_3 1_555 1_555
Cd14_2 O19_3 1_555 1_555
O23_3 H41_3 1_555 1_555
H42_3 O23_3 1_555 1_555
O24_3 Cd14_2 1_555 1_555
H43_3 O24_3 1_555 1_555
H44_3 O24_3 1_555 1_555
N14_3 Cd11_2 1_555 1_555
N15_3 Cd14_2 1_555 1_555
N16_3 C51_2 1_555 1_555
N23_2 C55_3 1_555 1_555
N19_3 C52_2 1_555 1_555
C45_2 C46_3 1_555 1_555
C46_3 H45_3 1_555 1_555
C47_3 C46_3 1_555 1_555
H46_3 C47_3 1_555 1_555
C48_2 C47_3 1_555 1_555
C49_2 C48_2 1_555 1_555
H47_2 C49_2 1_555 1_555
C50_2 C45_2 1_555 1_555
H48_2 C50_2 1_555 1_555
C51_2 C45_2 1_555 1_555
H49_2 C51_2 1_555 1_555
H50_2 C51_2 1_555 1_555
C52_2 C48_2 1_555 1_555
H51_2 C52_2 1_555 1_555
H52_2 C52_2 1_555 1_555
C53_3 N14_3 1_555 1_555
H53_3 C53_3 1_555 1_555
C54_3 N15_3 1_555 1_555
H54_3 C54_3 1_555 1_555
C55_3 N19_3 1_555 1_555
H55_3 C55_3 1_555 1_555
C56_3 N21_2 1_555 1_555
H56_3 C56_3 1_555 1_555
O28_2 Cd11_2 1_555 1_555
O29_2 Cd10_2 1_555 1_555
O30_2 Cd11_2 1_555 1_555
O31_2 Cd10_2 1_555 1_555
O10_3 C34_3 1_555 1_555
N8_3 N9_3 1_555 1_555
N10_3 C21_3 1_555 1_555
N10_3 C22_3 1_555 1_555
C17_2 C18_2 1_555 1_555
C30_3 C34_3 1_555 1_555
O20_3 Cd14_2 1_555 1_555
N14_3 N15_3 1_555 1_555
N16_3 C53_3 1_555 1_555
N16_3 C54_3 1_555 1_555
N19_3 C56_3 1_555 1_555
C49_2 C50_2 1_555 1_555
N22_2 C23_3 1_555 1_555
N13_3 C20_2 1_555 1_555
H26_3 C15_3 1_555 1_555
C16_2 C15_3 1_555 1_555
C20_2 C16_2 1_555 1_555
H31_2 C20_2 1_555 1_555
H32_2 C20_2 1_555 1_555
C23_3 N13_3 1_555 1_555
H35_3 C23_3 1_555 1_555
C24_3 N20_2 1_555 1_555
H36_3 C24_3 1_555 1_555
N13_3 C24_3 1_555 1_555
H38_5 C32_5 1_555 1_555
C33_5 H39_5 1_555 1_555
O19_4 C43_4 1_555 1_555
O20_4 C43_4 1_555 1_555
O29_2 C44_4 1_555 1_555
O31_2 C44_4 1_555 1_555
C41_4 C32_5 1_555 1_555
C42_4 C33_5 1_555 1_555
C43_4 C41_4 1_555 1_555
C44_4 C42_4 1_555 1_555
Cd11 O23_4 1_555 1_555
Cd14 O19_4 1_555 1_555
O23_4 H41_4 1_555 1_555
H42_4 O23_4 1_555 1_555
O24_4 Cd14 1_555 1_555
H43_4 O24_4 1_555 1_555
H44_4 O24_4 1_555 1_555
N14_4 Cd11 1_555 1_555
N15_4 Cd14 1_555 1_555
N23 C55_4 1_555 1_555
C46_4 H45_4 1_555 1_555
C47_4 C46_4 1_555 1_555
H46_4 C47_4 1_555 1_555
C53_4 N14_4 1_555 1_555
H53_4 C53_4 1_555 1_555
C54_4 N15_4 1_555 1_555
H54_4 C54_4 1_555 1_555
C55_4 N19_4 1_555 1_555
H55_4 C55_4 1_555 1_555
C56_4 N21 1_555 1_555
H56_4 C56_4 1_555 1_555
O20_4 Cd14 1_555 1_555
C41_4 C42_4 1_555 1_555
N14_4 N15_4 1_555 1_555
N16_4 C53_4 1_555 1_555
N16_4 C54_4 1_555 1_555
N19_4 C56_4 1_555 1_555
O9_4 Cd13 1_555 1_555
O10_4 Cd13 1_555 1_555
O28_2 C35_4 1_555 1_555
O30_2 C35_4 1_555 1_555
O13_4 Cd10 1_555 1_555
H21_4 O13_4 1_555 1_555
H22_4 O13_4 1_555 1_555
O14_4 Cd13 1_555 1_555
H23_4 O14_4 1_555 1_555
H24_4 O14_4 1_555 1_555
N8_4 Cd10 1_555 1_555
N9_4 Cd13 1_555 1_555
C14_4 H25_4 1_555 1_555
C21_4 N8_4 1_555 1_555
H33_4 C21_4 1_555 1_555
C22_4 N9_4 1_555 1_555
H34_4 C22_4 1_555 1_555
C30_4 C31_4 1_555 1_555
C31_4 C33_6 1_555 1_555
C32_6 C30_4 1_555 1_555
H38_6 C32_6 1_555 1_555
C33_6 H39_6 1_555 1_555
C34_4 O9_4 1_555 1_555
C35_4 C31_4 1_555 1_555
O10_4 C34_4 1_555 1_555
N8_4 N9_4 1_555 1_555
N10_4 C21_4 1_555 1_555
N10_4 C22_4 1_555 1_555
C30_4 C34_4 1_555 1_555
N22 C23_4 1_555 1_555
H26_4 C15_4 1_555 1_555
C23_4 N13_4 1_555 1_555
H35_4 C23_4 1_555 1_555
C24_4 N20 1_555 1_555
H36_4 C24_4 1_555 1_555
N13_4 C24_4 1_555 1_555
C20_3 C16_3 1_555 1_555
H31_3 C20_3 1_555 1_555
H32_3 C20_3 1_555 1_555
C18_3 C13_3 1_555 1_555
H28_3 C18_3 1_555 1_555
C19_3 C13_3 1_555 1_555
H29_3 C19_3 1_555 1_555
H30_3 C19_3 1_555 1_555
C17_3 C18_3 1_555 1_555
C49_3 C48_3 1_555 1_555
H47_3 C49_3 1_555 1_555
C50_3 C45_3 1_555 1_555
H48_3 C50_3 1_555 1_555
C51_3 C45_3 1_555 1_555
H49_3 C51_3 1_555 1_555
H50_3 C51_3 1_555 1_555
C52_3 C48_3 1_555 1_555
H51_3 C52_3 1_555 1_555
H52_3 C52_3 1_555 1_555
C49_3 C50_3 1_555 1_555
C49_4 C48_4 1_555 1_555
H47_4 C49_4 1_555 1_555
C50_4 C45_4 1_555 1_555
H48_4 C50_4 1_555 1_555
C51_4 C45_4 1_555 1_555
H49_4 C51_4 1_555 1_555
H50_4 C51_4 1_555 1_555
C52_4 C48_4 1_555 1_555
H51_4 C52_4 1_555 1_555
H52_4 C52_4 1_555 1_555
C49_4 C50_4 1_555 1_555
C18_4 C13_4 1_555 1_555
H28_4 C18_4 1_555 1_555
C19_4 C13_4 1_555 1_555
H29_4 C19_4 1_555 1_555
H30_4 C19_4 1_555 1_555
C17_4 C18_4 1_555 1_555
C20_4 C16_4 1_555 1_555
H31_4 C20_4 1_555 1_555
H32_4 C20_4 1_555 1_555

#END
