
###############################################################################
#
# This file contains modified crystal structure data generated from the
# MOF subset of the Cambridge Structural Database (CSD) v543 
# hosted by the Cambridge Crystallographic Data Centre (CCDC).
#
# This work is licensed under the Creative Commons
# Attribution-NonCommercial-ShareAlike 4.0 International License.
# To view a copy of this license, visit
# http://creativecommons.org/licenses/by-nc-sa/4.0/
# or send a letter to
# Creative Commons, PO Box 1866, Mountain View, CA 94042, USA.
#
# CIF created using the CSD Python API on 29 September 2022
# The structure has been converted into the P1 space group
# The structure has a 3D framework
# The original CSD entry HEHCOO is in the trigonal crystal system
# The original CSD entry HEHCOO is in a Sohncke space group
# The framework has been calculated to contain at least 10.0% void space
# The void calculation uses a probe of radius 1.32A, grid spacing 0.4
#
###############################################################################

data_HEHCOO
_chemical_formula_moiety         '(C204 H132 Cd6 Cl6 Co6 N60 O24)n'
_symmetry_cell_setting           triclinic
_symmetry_space_group_name_H-M   'P 1'
_symmetry_Int_Tables_number      1
_space_group_name_Hall           'P 1'
loop_
_symmetry_equiv_pos_site_id
_symmetry_equiv_pos_as_xyz
1 x,y,z
_cell_length_a                   21.858(4)
_cell_length_b                   21.858(4)
_cell_length_c                   23.333(5)
_cell_angle_alpha                90
_cell_angle_beta                 90
_cell_angle_gamma                120
_cell_volume                     9654.33
loop_
_atom_site_label
_atom_site_type_symbol
_atom_site_fract_x
_atom_site_fract_y
_atom_site_fract_z
Cd2 Cd 0.59352(4) 0.12951(6) 0.20465(3)
Cl2 Cl 0.66453(19) 0.21583(25) 0.12904(14)
O7 O 0.5338(4) 0.0461(5) 0.2811(3)
N12 N 0.5032(6) 0.0426(8) 0.1375(3)
N17 N 0.6618(5) 0.2043(7) 0.2855(4)
N18 N 0.6632(5) 0.0788(6) 0.2202(4)
N26 N 0.5225(5) 0.1785(4) 0.2284(3)
C52 C 0.7337(8) 0.1233(11) 0.2153(6)
H34 H 0.7509 0.1692 0.1997
C53 C 0.7829(9) 0.1016(13) 0.2338(8)
H35 H 0.8322 0.1314 0.2280
C54 C 0.7574(9) 0.0371(11) 0.2599(7)
H36 H 0.7887 0.0230 0.2752
C56 C 0.6393(7) 0.0158(9) 0.2431(4)
Cd1 Cd 0.40648(4) 0.53599(4) 0.12868(3)
Co1 Co 0.47385(8) 0.36371(6) 0.14712(5)
Cl1 Cl 0.33547(19) 0.55130(16) 0.20429(14)
O1 O 0.3720(8) 0.3971(6) 0.2774(5)
O2 O 0.3965(5) 0.1686(4) 0.0798(4)
O3 O 0.4662(4) 0.5123(3) 0.0522(3)
O4 O 0.6591(5) 0.3959(5) 0.2118(5)
N1 N 0.4968(6) 0.5394(5) 0.1958(3)
N2 N 0.4547(6) 0.4167(5) 0.2059(3)
N3 N 0.3919(5) 0.2899(5) 0.1774(3)
N4 N 0.4645(5) 0.2875(4) 0.0953(3)
N6 N 0.3368(5) 0.4156(4) 0.1131(4)
N7 N 0.4337(4) 0.4016(4) 0.0920(3)
N8 N 0.5578(5) 0.4407(4) 0.1228(3)
N9 N 0.5401(6) 0.3510(5) 0.1960(4)
C1 C 0.5452(7) 0.6062(7) 0.2078(6)
H1 H 0.5462 0.6435 0.1862
C2 C 0.5928(12) 0.6214(8) 0.2501(7)
H2 H 0.6203 0.6684 0.2637
C3 C 0.6013(14) 0.5681(11) 0.2733(10)
H3 H 0.6410 0.5782 0.2964
C4 C 0.5515(13) 0.5018(9) 0.2622(6)
H4 H 0.5521 0.4643 0.2823
C5 C 0.4974(10) 0.4854(9) 0.2211(5)
C6 C 0.3974(10) 0.3775(8) 0.2378(5)
C7 C 0.3590(10) 0.3016(8) 0.2197(5)
C8 C 0.3014(13) 0.2501(13) 0.2471(8)
H5 H 0.2794 0.2592 0.2785
C9 C 0.2762(12) 0.1794(9) 0.2242(9)
H6 H 0.2356 0.1399 0.2400
C10 C 0.3135(10) 0.1702(7) 0.1774(7)
H7 H 0.2988 0.1245 0.1623
C11 C 0.3687(7) 0.2266(6) 0.1556(5)
C12 C 0.4135(7) 0.2264(6) 0.1045(4)
C13 C 0.5098(6) 0.2974(5) 0.0469(4)
C14 C 0.5502(9) 0.2668(8) 0.0446(5)
H8 H 0.5510 0.2399 0.0763
C18 C 0.2663(8) 0.3896(8) 0.1180(6)
H12 H 0.2491 0.4183 0.1336
C19 C 0.2171(9) 0.3187(9) 0.0995(8)
H13 H 0.1678 0.2992 0.1053
C20 C 0.2426(9) 0.2797(7) 0.0734(7)
H14 H 0.2113 0.2343 0.0581
C21 C 0.3157(7) 0.3083(6) 0.0700(5)
H15 H 0.3346 0.2814 0.0539
C22 C 0.3607(7) 0.3765(6) 0.0902(4)
C23 C 0.4797(6) 0.4685(5) 0.0756(3)
C24 C 0.5522(5) 0.4876(4) 0.0906(4)
C25 C 0.6143(6) 0.5521(5) 0.0752(4)
H16 H 0.6123 0.5859 0.0509
C26 C 0.6775(7) 0.5626(6) 0.0977(5)
H17 H 0.7210 0.6029 0.0870
C27 C 0.6768(7) 0.5138(6) 0.1361(5)
H18 H 0.7191 0.5244 0.1556
C28 C 0.6210(7) 0.4552(6) 0.1458(5)
C29 C 0.6084(8) 0.3962(6) 0.1887(5)
C30 C 0.4776(7) 0.1573(6) 0.2738(5)
H19 H 0.4619 0.1118 0.2898
C31 C 0.4543(9) 0.1993(6) 0.2972(5)
H20 H 0.4231 0.1831 0.3291
C32 C 0.4765(8) 0.2662(6) 0.2739(5)
H21 H 0.4631 0.2973 0.2909
C33 C 0.5191(6) 0.2860(5) 0.2247(4)
C34 C 0.5429(6) 0.2426(6) 0.2056(4)
H22 H 0.5755 0.2583 0.1746
Co3 Co 0.52615(8) 0.88986(10) 0.18621(5)
O8 O 0.3409(5) 0.7368(7) 0.1215(5)
N16 N 0.3382(5) 0.5425(5) 0.0478(4)
N19 N 0.5663(4) 0.9679(6) 0.2413(3)
N21 N 0.4422(5) 0.8829(6) 0.2105(3)
N23 N 0.4599(6) 0.8109(8) 0.1373(4)
N25 N 0.4775(5) 0.6560(6) 0.1049(3)
C49 C 0.2738(10) 0.5883(12) 0.0010(6)
H31 H 0.2523 0.6168 0.0024
C50 C 0.3147(7) 0.5865(7) 0.0492(4)
H32 H 0.3241 0.6169 0.0811
C51 C 0.3314(5) 0.5054(5) 0.0018(4)
H33 H 0.3503 0.4745 0.0017
C55 C 0.6843(7) 0.9926(9) 0.2633(5)
H37 H 0.6654 0.9468 0.2794
C57 C 0.5203(6) 0.9888(8) 0.2577(3)
C58 C 0.4478(5) 0.9354(6) 0.2427(4)
C59 C 0.3857(6) 0.9378(8) 0.2581(4)
H38 H 0.3877 0.9736 0.2824
C60 C 0.3225(7) 0.8851(9) 0.2356(5)
H39 H 0.2790 0.8819 0.2463
C61 C 0.3232(7) 0.8370(9) 0.1972(5)
H40 H 0.2809 0.8053 0.1777
C62 C 0.3790(7) 0.8342(9) 0.1875(5)
C63 C 0.3916(8) 0.7878(10) 0.1446(5)
C64 C 0.5224(7) 0.6797(9) 0.0595(5)
H41 H 0.5381 0.6499 0.0435
C65 C 0.5457(9) 0.7450(11) 0.0361(5)
H42 H 0.5769 0.7600 0.0042
C66 C 0.5235(8) 0.7897(10) 0.0594(5)
H43 H 0.5369 0.8342 0.0424
C67 C 0.4809(6) 0.7669(8) 0.1086(4)
C68 C 0.4571(6) 0.6997(8) 0.1277(4)
H44 H 0.4245 0.6828 0.1587
N5 N 0.5425(5) 0.3382(5) 0.9522(4)
C15 C 0.5883(12) 0.2738(10) 0.9990(6)
H9 H 0.6168 0.2523 0.9976
C16 C 0.5865(7) 0.3147(7) 0.9508(4)
H10 H 0.6169 0.3241 0.9189
C17 C 0.5054(5) 0.3314(5) 0.9982(4)
H11 H 0.4745 0.3503 0.9983
Cd3 Cd 0.53599(4) 0.40648(4) 0.87132(3)
Co2 Co 0.36371(6) 0.47385(8) 0.85288(5)
O5 O 0.3971(6) 0.3720(8) 0.7226(5)
O6 O 0.1686(4) 0.3965(5) 0.9202(4)
N11 N 0.5394(5) 0.4968(6) 0.8042(3)
N13 N 0.4167(5) 0.4547(6) 0.7941(3)
N14 N 0.2899(5) 0.3919(5) 0.8226(3)
N15 N 0.2875(4) 0.4645(5) 0.9047(3)
N20 N 0.4016(4) 0.4337(4) 0.9080(3)
N22 N 0.4407(4) 0.5578(5) 0.8772(3)
N24 N 0.3510(5) 0.5401(6) 0.8040(4)
C35 C 0.6062(7) 0.5452(7) 0.7922(6)
H23 H 0.6435 0.5462 0.8138
C36 C 0.6214(8) 0.5928(12) 0.7499(7)
H24 H 0.6684 0.6203 0.7363
C37 C 0.5681(11) 0.6013(14) 0.7267(10)
H25 H 0.5782 0.6410 0.7036
C38 C 0.5018(9) 0.5515(13) 0.7378(6)
H26 H 0.4643 0.5521 0.7177
C39 C 0.4854(9) 0.4974(10) 0.7789(5)
C40 C 0.3775(8) 0.3974(10) 0.7622(5)
C41 C 0.3016(8) 0.3590(10) 0.7803(5)
C42 C 0.2501(13) 0.3014(13) 0.7529(8)
H27 H 0.2592 0.2794 0.7215
C43 C 0.1794(9) 0.2762(12) 0.7758(9)
H28 H 0.1399 0.2356 0.7600
C44 C 0.1702(7) 0.3135(10) 0.8226(7)
H29 H 0.1245 0.2988 0.8377
C45 C 0.2266(6) 0.3687(7) 0.8444(5)
C46 C 0.2264(6) 0.4135(7) 0.8955(4)
C47 C 0.2974(5) 0.5098(6) 0.9531(4)
C48 C 0.2668(8) 0.5502(9) 0.9554(5)
H30 H 0.2399 0.5510 0.9237
Co1_2 Co 0.63629(6) 0.11014(10) 0.48045(5)
O2_2 O 0.8314(4) 0.2279(6) 0.4131(4)
O4_2 O 0.6041(5) 0.2632(7) 0.5451(5)
N2_2 N 0.5833(5) 0.0380(8) 0.5392(3)
N3_2 N 0.7101(5) 0.1020(7) 0.5107(3)
N4_2 N 0.7125(4) 0.1770(6) 0.4286(3)
N7_2 N 0.5984(4) 0.0321(6) 0.4253(3)
N8_2 N 0.5593(4) 0.1171(6) 0.4561(3)
N9_2 N 0.6490(5) 0.1891(8) 0.5293(4)
N10 N 0.8215(4) 0.3440(6) 0.5617(3)
C3_2 C 0.4319(11) 0.0332(18) 0.6066(10)
H3_2 H 0.4218 0.0628 0.6297
C4_2 C 0.4982(9) 0.0497(16) 0.5955(6)
H4_2 H 0.5357 0.0878 0.6156
C5_2 C 0.5146(9) 0.0120(13) 0.5544(5)
C6_2 C 0.6225(8) 0.0199(13) 0.5711(5)
C7_2 C 0.6984(8) 0.0574(13) 0.5530(5)
C8_2 C 0.7499(13) 0.0513(18) 0.5804(8)
H5_2 H 0.7408 0.0202 0.6118
C9_2 C 0.8206(9) 0.0968(15) 0.5575(9)
H6_2 H 0.8601 0.0957 0.5733
C10_2 C 0.8298(7) 0.1433(12) 0.5107(7)
H7_2 H 0.8755 0.1743 0.4956
C11_2 C 0.7734(6) 0.1421(9) 0.4889(5)
C12_2 C 0.7736(6) 0.1871(9) 0.4378(4)
C13_2 C 0.7026(5) 0.2124(8) 0.3802(4)
C14_2 C 0.7332(8) 0.2834(12) 0.3779(5)
H8_2 H 0.7601 0.3111 0.4096
C15_2 C 0.7262(10) 0.3145(16) 0.3323(6)
H9_2 H 0.7477 0.3645 0.3309
C16_2 C 0.6853(7) 0.2718(10) 0.2841(4)
H10_2 H 0.6759 0.2928 0.2522
C17_2 C 0.6686(5) 0.1740(7) 0.3315(4)
H11_2 H 0.6497 0.1242 0.3316
C21_2 C 0.6917(6) 0.0074(9) 0.4033(5)
H15_2 H 0.7186 0.0532 0.3872
C23_2 C 0.5315(5) 0.0112(8) 0.4089(3)
C24_2 C 0.5124(4) 0.0646(6) 0.4239(4)
C25_2 C 0.4479(5) 0.0622(8) 0.4085(4)
H16_2 H 0.4141 0.0264 0.3842
C26_2 C 0.4374(6) 0.1149(9) 0.4310(5)
H17_2 H 0.3971 0.1181 0.4203
C27_2 C 0.4862(6) 0.1630(9) 0.4694(5)
H18_2 H 0.4756 0.1947 0.4889
C28_2 C 0.5448(6) 0.1658(9) 0.4791(5)
C29_2 C 0.6038(6) 0.2122(10) 0.5220(5)
C30_2 C 0.8427(6) 0.3203(9) 0.6071(5)
H19_2 H 0.8882 0.3501 0.6231
C31_2 C 0.8007(6) 0.2550(11) 0.6305(5)
H20_2 H 0.8169 0.2400 0.6624
C32_2 C 0.7338(6) 0.2103(10) 0.6072(5)
H21_2 H 0.7027 0.1658 0.6242
C33_2 C 0.7140(5) 0.2331(8) 0.5580(4)
C34_2 C 0.7574(6) 0.3003(8) 0.5389(4)
H22_2 H 0.7417 0.3172 0.5079
Cd4 Cd 0.87049(6) 0.46401(7) 0.53799(3)
O5_2 O 0.6280(8) 0.0251(10) 0.0559(5)
C35_2 C 0.4548(7) 0.0610(10) 0.1255(6)
H23_2 H 0.4538 0.0973 0.1471
C36_2 C 0.4072(12) 0.0286(14) 0.0832(7)
H24_2 H 0.3797 0.0481 0.0696
Cd1_2 Cd 0.46401(4) 0.87049(6) 0.46201(3)
Cl1_2 Cl 0.44870(16) 0.78417(25) 0.53762(14)
O1_2 O 0.6029(6) 0.9749(10) 0.6107(5)
O3_2 O 0.4877(3) 0.9539(5) 0.3855(3)
N1_2 N 0.4606(5) 0.9574(8) 0.5291(3)
N6_2 N 0.5844(4) 0.9212(6) 0.4464(4)
C1_2 C 0.3938(7) 0.9390(10) 0.5411(6)
H1_2 H 0.3565 0.9027 0.5195
C2_2 C 0.3786(8) 0.9714(14) 0.5834(7)
H2_2 H 0.3316 0.9519 0.5970
C18_2 C 0.6104(8) 0.8767(11) 0.4513(6)
H12_2 H 0.5817 0.8308 0.4669
C19_2 C 0.6813(9) 0.8984(13) 0.4328(8)
H13_2 H 0.7008 0.8686 0.4386
C20_2 C 0.7203(7) 0.9629(11) 0.4067(7)
H14_2 H 0.7657 0.9770 0.3914
C22_2 C 0.6235(6) 0.9842(9) 0.4235(4)
Co3_2 Co 0.11014(10) 0.63629(13) 0.51955(5)
O6_2 O 0.6035(5) 0.7721(6) 0.2535(4)
O8_2 O 0.2632(7) 0.6041(9) 0.4549(5)
N13_2 N 0.5453(6) 0.9620(8) 0.1274(3)
N14_2 N 0.6081(5) 0.8980(7) 0.1559(3)
N15_2 N 0.5355(5) 0.8230(6) 0.2380(3)
N16_2 N 0.4575(5) 0.7957(7) 0.3811(4)
N19_2 N 0.0321(6) 0.5984(7) 0.5747(3)
N21_2 N 0.1171(6) 0.5593(8) 0.5439(3)
N23_2 N 0.1891(8) 0.6490(10) 0.4707(4)
N25_2 N 0.3440(6) 0.8215(8) 0.4383(3)
C37_2 C 0.3987(14) 0.9668(18) 0.0600(10)
H25_2 H 0.3590 0.9372 0.0369
C38_2 C 0.4485(13) 0.9503(16) 0.0711(6)
H26_2 H 0.4479 0.9122 0.0510
C39_2 C 0.5026(10) 0.9880(13) 0.1122(5)
C40_2 C 0.6026(10) 0.9801(13) 0.0955(5)
C41_2 C 0.6410(10) 0.9426(13) 0.1136(5)
C42_2 C 0.6986(13) 0.9487(18) 0.0862(8)
H27_2 H 0.7206 0.9798 0.0548
C43_2 C 0.7238(12) 0.9032(15) 0.1091(9)
H28_2 H 0.7644 0.9043 0.0933
C44_2 C 0.6865(10) 0.8567(12) 0.1559(7)
H29_2 H 0.7012 0.8257 0.1710
C45_2 C 0.6313(7) 0.8579(9) 0.1777(5)
C46_2 C 0.5865(7) 0.8129(9) 0.2288(4)
C47_2 C 0.4902(6) 0.7876(8) 0.2864(4)
C48_2 C 0.4498(9) 0.7166(12) 0.2887(5)
H30_2 H 0.4490 0.6889 0.2570
C49_2 C 0.4117(12) 0.6855(16) 0.3343(6)
H31_2 H 0.3832 0.6355 0.3357
C50_2 C 0.4135(7) 0.7282(10) 0.3825(4)
H32_2 H 0.3831 0.7072 0.4144
C51_2 C 0.4946(5) 0.8260(7) 0.3351(4)
H33_2 H 0.5255 0.8758 0.3350
C55_2 C 0.0074(9) 0.6917(11) 0.5967(5)
H37_2 H 0.0532 0.7186 0.6128
C57_2 C 0.0112(8) 0.5315(10) 0.5911(3)
C58_2 C 0.0646(6) 0.5124(8) 0.5761(4)
C59_2 C 0.0622(8) 0.4479(10) 0.5915(4)
H38_2 H 0.0264 0.4141 0.6158
C60_2 C 0.1149(9) 0.4374(11) 0.5690(5)
H39_2 H 0.1181 0.3971 0.5797
C61_2 C 0.1630(9) 0.4862(11) 0.5306(5)
H40_2 H 0.1947 0.4756 0.5111
C62_2 C 0.1658(9) 0.5448(11) 0.5209(5)
C63_2 C 0.2122(10) 0.6038(13) 0.4780(5)
C64_2 C 0.3203(9) 0.8427(11) 0.3929(5)
H41_2 H 0.3501 0.8882 0.3769
C65_2 C 0.2550(11) 0.8007(14) 0.3695(5)
H42_2 H 0.2400 0.8169 0.3376
C66_2 C 0.2103(10) 0.7338(13) 0.3928(5)
H43_2 H 0.1658 0.7027 0.3758
C67_2 C 0.2331(8) 0.7140(10) 0.4420(4)
C68_2 C 0.3003(8) 0.7574(10) 0.4611(4)
H44_2 H 0.3172 0.7417 0.4921
Cl2_2 Cl 0.78417(25) 0.44870(31) 0.46238(14)
O7_2 O 0.9539(5) 0.4877(6) 0.6145(3)
N12_2 N 0.9574(8) 0.4606(10) 0.4709(3)
N17_2 N 0.7957(7) 0.4575(9) 0.6189(4)
N18_2 N 0.9212(6) 0.5844(8) 0.5536(4)
C52_2 C 0.8767(11) 0.6104(14) 0.5487(6)
H34_2 H 0.8308 0.5817 0.5331
C53_2 C 0.8984(13) 0.6813(16) 0.5672(8)
H35_2 H 0.8686 0.7008 0.5614
C54_2 C 0.9629(11) 0.7203(14) 0.5933(7)
H36_2 H 0.9770 0.7657 0.6086
C56_2 C 0.9842(9) 0.6235(11) 0.5765(4)
Cd1_3 Cd 0.12951(6) 0.59352(4) 0.79535(3)
Cl1_3 Cl 0.21583(25) 0.66453(19) 0.87096(14)
O1_3 O 0.0251(10) 0.6280(8) 0.9441(5)
O3_3 O 0.0461(5) 0.5338(4) 0.7189(3)
N1_3 N 0.0426(8) 0.5032(6) 0.8625(3)
N6_3 N 0.0788(6) 0.6632(5) 0.7798(4)
C1_3 C 0.0610(10) 0.4548(7) 0.8745(6)
H1_3 H 0.0973 0.4538 0.8529
C2_3 C 0.0286(14) 0.4072(12) 0.9168(7)
H2_3 H 0.0481 0.3797 0.9304
C18_3 C 0.1233(11) 0.7337(8) 0.7847(6)
H12_3 H 0.1692 0.7509 0.8003
C19_3 C 0.1016(13) 0.7829(9) 0.7662(8)
H13_3 H 0.1314 0.8322 0.7720
C20_3 C 0.0371(11) 0.7574(9) 0.7401(7)
H14_3 H 0.0230 0.7887 0.7248
C22_3 C 0.0158(9) 0.6393(7) 0.7569(4)
Cl2_3 Cl 0.55130(31) 0.33547(19) 0.79571(14)
O6_3 O 0.2279(6) 0.8314(4) 0.5869(4)
O7_3 O 0.5123(6) 0.4662(4) 0.9478(3)
O8_3 O 0.3959(9) 0.6591(5) 0.7882(5)
N13_3 N 0.0380(8) 0.5833(5) 0.4608(3)
N14_3 N 0.1020(7) 0.7101(5) 0.4893(3)
N15_3 N 0.1770(6) 0.7125(4) 0.5714(3)
N16_3 N 0.2043(7) 0.6618(5) 0.7145(4)
N18_3 N 0.4156(8) 0.3368(5) 0.8869(4)
N25_3 N 0.1785(8) 0.5225(5) 0.7716(3)
N26_2 N 0.6560(6) 0.4775(5) 0.8951(3)
C37_3 C 0.0332(18) 0.4319(11) 0.3934(10)
H25_3 H 0.0628 0.4218 0.3703
C38_3 C 0.0497(16) 0.4982(9) 0.4045(6)
H26_3 H 0.0878 0.5357 0.3844
C39_3 C 0.0120(13) 0.5146(9) 0.4456(5)
C40_3 C 0.0199(13) 0.6225(8) 0.4289(5)
C41_3 C 0.0574(13) 0.6984(8) 0.4470(5)
C42_3 C 0.0513(18) 0.7499(13) 0.4196(8)
H27_3 H 0.0202 0.7408 0.3882
C43_3 C 0.0968(15) 0.8206(9) 0.4425(9)
H28_3 H 0.0957 0.8601 0.4267
C44_3 C 0.1433(12) 0.8298(7) 0.4893(7)
H29_3 H 0.1743 0.8755 0.5044
C45_3 C 0.1421(9) 0.7734(6) 0.5111(5)
C46_3 C 0.1871(9) 0.7736(6) 0.5622(4)
C47_3 C 0.2124(8) 0.7026(5) 0.6198(4)
C48_3 C 0.2834(12) 0.7332(8) 0.6221(5)
H30_3 H 0.3111 0.7601 0.5904
C49_3 C 0.3145(16) 0.7262(10) 0.6677(6)
H31_3 H 0.3645 0.7477 0.6691
C50_3 C 0.2718(10) 0.6853(7) 0.7159(4)
H32_3 H 0.2928 0.6759 0.7478
C51_3 C 0.1740(7) 0.6686(5) 0.6685(4)
H33_3 H 0.1242 0.6497 0.6684
C52_3 C 0.3896(14) 0.2663(8) 0.8820(6)
H34_3 H 0.4183 0.2491 0.8664
C53_3 C 0.3187(16) 0.2171(9) 0.9005(8)
H35_3 H 0.2992 0.1678 0.8947
C54_3 C 0.2797(14) 0.2426(9) 0.9266(7)
H36_3 H 0.2343 0.2113 0.9419
C55_3 C 0.3083(11) 0.3157(7) 0.9300(5)
H37_3 H 0.2814 0.3346 0.9461
C56_3 C 0.3765(11) 0.3607(7) 0.9098(4)
C57_3 C 0.4685(10) 0.4797(6) 0.9244(3)
C58_3 C 0.4876(8) 0.5522(5) 0.9094(4)
C59_3 C 0.5521(10) 0.6143(6) 0.9248(4)
H38_3 H 0.5859 0.6123 0.9491
C60_3 C 0.5626(11) 0.6775(7) 0.9023(5)
H39_3 H 0.6029 0.7210 0.9130
C61_3 C 0.5138(11) 0.6768(7) 0.8639(5)
H40_3 H 0.5244 0.7191 0.8444
C62_3 C 0.4552(11) 0.6210(7) 0.8542(5)
C63_3 C 0.3962(13) 0.6084(8) 0.8113(5)
C64_3 C 0.1573(11) 0.4776(7) 0.7262(5)
H41_3 H 0.1118 0.4619 0.7102
C65_3 C 0.1993(14) 0.4543(9) 0.7028(5)
H42_3 H 0.1831 0.4231 0.6709
C66_3 C 0.2662(13) 0.4765(8) 0.7261(5)
H43_3 H 0.2973 0.4631 0.7091
C67_3 C 0.2860(10) 0.5191(6) 0.7753(4)
C68_3 C 0.2426(10) 0.5429(6) 0.7944(4)
H44_3 H 0.2583 0.5755 0.8254
Co1_3 Co 0.88986(10) 0.52615(8) 0.81379(5)
O2_3 O 0.7721(6) 0.6035(5) 0.7465(4)
O4_3 O 0.7368(7) 0.3409(5) 0.8785(5)
N2_3 N 0.9620(8) 0.5453(6) 0.8726(3)
N3_3 N 0.8980(7) 0.6081(5) 0.8441(3)
N4_3 N 0.8230(6) 0.5355(5) 0.7620(3)
N7_3 N 0.9679(6) 0.5663(4) 0.7587(3)
N8_3 N 0.8829(6) 0.4422(5) 0.7895(3)
N9_3 N 0.8109(8) 0.4599(6) 0.8627(4)
C3_3 C 0.9668(18) 0.3987(14) 0.9400(10)
H3_3 H 0.9372 0.3590 0.9631
C4_3 C 0.9503(16) 0.4485(13) 0.9289(6)
H4_3 H 0.9122 0.4479 0.9490
C5_3 C 0.9880(13) 0.5026(10) 0.8878(5)
C6_3 C 0.9801(13) 0.6026(10) 0.9045(5)
C7_3 C 0.9426(13) 0.6410(10) 0.8864(5)
C8_3 C 0.9487(18) 0.6986(13) 0.9138(8)
H5_3 H 0.9798 0.7206 0.9452
C9_3 C 0.9032(15) 0.7238(12) 0.8909(9)
H6_3 H 0.9043 0.7644 0.9067
C10_3 C 0.8567(12) 0.6865(10) 0.8441(7)
H7_3 H 0.8257 0.7012 0.8290
C11_3 C 0.8579(9) 0.6313(7) 0.8223(5)
C12_3 C 0.8129(9) 0.5865(7) 0.7712(4)
C13_3 C 0.7876(8) 0.4902(6) 0.7136(4)
C14_3 C 0.7166(12) 0.4498(9) 0.7113(5)
H8_3 H 0.6889 0.4490 0.7430
C15_3 C 0.6855(16) 0.4117(12) 0.6657(6)
H9_3 H 0.6355 0.3832 0.6643
C16_3 C 0.7282(10) 0.4135(7) 0.6175(4)
H10_3 H 0.7072 0.3831 0.5856
C17_3 C 0.8260(7) 0.4946(5) 0.6649(4)
H11_3 H 0.8758 0.5255 0.6650
C21_3 C 0.9926(9) 0.6843(7) 0.7367(5)
H15_3 H 0.9468 0.6654 0.7206
C23_3 C 0.9888(8) 0.5203(6) 0.7423(3)
C24_3 C 0.9354(6) 0.4478(5) 0.7573(4)
C25_3 C 0.9378(8) 0.3857(6) 0.7419(4)
H16_3 H 0.9736 0.3877 0.7176
C26_3 C 0.8851(9) 0.3225(7) 0.7644(5)
H17_3 H 0.8819 0.2790 0.7537
C27_3 C 0.8370(9) 0.3232(7) 0.8028(5)
H18_3 H 0.8053 0.2809 0.8223
C28_3 C 0.8342(9) 0.3790(7) 0.8125(5)
C29_3 C 0.7878(10) 0.3916(8) 0.8554(5)
C30_3 C 0.6797(9) 0.5224(7) 0.9405(5)
H19_3 H 0.6499 0.5381 0.9565
C31_3 C 0.7450(11) 0.5457(9) 0.9639(5)
H20_3 H 0.7600 0.5769 0.9958
C32_3 C 0.7897(10) 0.5235(8) 0.9406(5)
H21_3 H 0.8342 0.5369 0.9576
C33_3 C 0.7669(8) 0.4809(6) 0.8914(4)
C34_3 C 0.6997(8) 0.4571(6) 0.8723(4)
H22_3 H 0.6828 0.4245 0.8413
O5_3 O 0.9749(10) 0.6029(6) 0.3893(5)
C35_3 C 0.9390(10) 0.3938(7) 0.4589(6)
H23_3 H 0.9027 0.3565 0.4805
C36_3 C 0.9714(14) 0.3786(8) 0.4166(7)
H24_3 H 0.9519 0.3316 0.4030
loop_
_geom_bond_atom_site_label_1
_geom_bond_atom_site_label_2
_geom_bond_site_symmetry_1
_geom_bond_site_symmetry_2
Cd2 Cl2 1_555 1_555
O7 Cd2 1_555 1_555
N12 Cd2 1_555 1_555
N17 Cd2 1_555 1_555
N18 Cd2 1_555 1_555
N26 Cd2 1_555 1_555
C52 N18 1_555 1_555
H34 C52 1_555 1_555
C53 C52 1_555 1_555
H35 C53 1_555 1_555
C54 C53 1_555 1_555
H36 C54 1_555 1_555
C56 N18 1_555 1_555
Cd1 Cl1 1_555 1_555
Co1 N2 1_555 1_555
O1 C6 1_555 1_555
O2 C12 1_555 1_555
O3 Cd1 1_555 1_555
O4 C29 1_555 1_555
N1 Cd1 1_555 1_555
N2 C5 1_555 1_555
N3 Co1 1_555 1_555
N4 Co1 1_555 1_555
N6 Cd1 1_555 1_555
N7 Co1 1_555 1_555
N8 Co1 1_555 1_555
N9 Co1 1_555 1_555
N26 C30 1_555 1_555
C1 N1 1_555 1_555
H1 C1 1_555 1_555
C2 C1 1_555 1_555
H2 C2 1_555 1_555
C3 C2 1_555 1_555
H3 C3 1_555 1_555
C4 C3 1_555 1_555
H4 C4 1_555 1_555
C5 N1 1_555 1_555
C6 N2 1_555 1_555
C7 N3 1_555 1_555
C8 C7 1_555 1_555
H5 C8 1_555 1_555
C9 C8 1_555 1_555
H6 C9 1_555 1_555
C10 C9 1_555 1_555
H7 C10 1_555 1_555
C11 N3 1_555 1_555
C12 N4 1_555 1_555
C13 N4 1_555 1_555
C14 C13 1_555 1_555
H8 C14 1_555 1_555
C18 N6 1_555 1_555
H12 C18 1_555 1_555
C19 C18 1_555 1_555
H13 C19 1_555 1_555
C20 C19 1_555 1_555
H14 C20 1_555 1_555
C21 C20 1_555 1_555
H15 C21 1_555 1_555
C22 N6 1_555 1_555
C23 O3 1_555 1_555
C24 N8 1_555 1_555
C25 C24 1_555 1_555
H16 C25 1_555 1_555
C26 C25 1_555 1_555
H17 C26 1_555 1_555
C27 C26 1_555 1_555
H18 C27 1_555 1_555
C28 N8 1_555 1_555
C29 N9 1_555 1_555
C30 H19 1_555 1_555
C31 C30 1_555 1_555
H20 C31 1_555 1_555
C32 C31 1_555 1_555
H21 C32 1_555 1_555
C33 N9 1_555 1_555
C34 N26 1_555 1_555
H22 C34 1_555 1_555
Co3 N19 1_555 1_555
O8 C63 1_555 1_555
N16 Cd1 1_555 1_555
N21 Co3 1_555 1_555
N23 Co3 1_555 1_555
N25 Cd1 1_555 1_555
H31 C49 1_555 1_555
C50 N16 1_555 1_555
H32 C50 1_555 1_555
C51 N16 1_555 1_555
H33 C51 1_555 1_555
H37 C55 1_555 1_555
C58 N21 1_555 1_555
C59 C58 1_555 1_555
H38 C59 1_555 1_555
C60 C59 1_555 1_555
H39 C60 1_555 1_555
C61 C60 1_555 1_555
H40 C61 1_555 1_555
C62 N21 1_555 1_555
C63 N23 1_555 1_555
C64 N25 1_555 1_555
H41 C64 1_555 1_555
C65 C64 1_555 1_555
H42 C65 1_555 1_555
C66 C65 1_555 1_555
H43 C66 1_555 1_555
C67 N23 1_555 1_555
C68 N25 1_555 1_555
H44 C68 1_555 1_555
N7 C22 1_555 1_555
N7 C23 1_555 1_555
C4 C5 1_555 1_555
C6 C7 1_555 1_555
C10 C11 1_555 1_555
C11 C12 1_555 1_555
C21 C22 1_555 1_555
C23 C24 1_555 1_555
C27 C28 1_555 1_555
C28 C29 1_555 1_555
C32 C33 1_555 1_555
C33 C34 1_555 1_555
N19 C57 1_555 1_555
C49 C50 1_555 1_555
C57 C58 1_555 1_555
C61 C62 1_555 1_555
C62 C63 1_555 1_555
C66 C67 1_555 1_555
C67 C68 1_555 1_555
N5 C16 1_555 1_555
H9 C15 1_555 1_555
C16 C15 1_555 1_555
H10 C16 1_555 1_555
C17 N5 1_555 1_555
H11 C17 1_555 1_555
Cd3 N5 1_555 1_555
Co2 N13 1_555 1_555
O5 C40 1_555 1_555
O6 C46 1_555 1_555
N11 Cd3 1_555 1_555
N13 C39 1_555 1_555
N14 Co2 1_555 1_555
N15 Co2 1_555 1_555
N20 Co2 1_555 1_555
N22 Co2 1_555 1_555
N24 Co2 1_555 1_555
C35 N11 1_555 1_555
H23 C35 1_555 1_555
C36 C35 1_555 1_555
H24 C36 1_555 1_555
C37 C36 1_555 1_555
H25 C37 1_555 1_555
C38 C37 1_555 1_555
H26 C38 1_555 1_555
C39 N11 1_555 1_555
C40 N13 1_555 1_555
C41 N14 1_555 1_555
C42 C41 1_555 1_555
H27 C42 1_555 1_555
C43 C42 1_555 1_555
H28 C43 1_555 1_555
C44 C43 1_555 1_555
H29 C44 1_555 1_555
C45 N14 1_555 1_555
C46 N15 1_555 1_555
C47 N15 1_555 1_555
C48 C47 1_555 1_555
H30 C48 1_555 1_555
C38 C39 1_555 1_555
C40 C41 1_555 1_555
C44 C45 1_555 1_555
C45 C46 1_555 1_555
Co1_2 N2_2 1_555 1_555
O2_2 C12_2 1_555 1_555
O4_2 C29_2 1_555 1_555
N2_2 C5_2 1_555 1_555
N3_2 Co1_2 1_555 1_555
N4_2 Co1_2 1_555 1_555
N17 C16_2 1_555 1_555
N7_2 Co1_2 1_555 1_555
N8_2 Co1_2 1_555 1_555
N9_2 Co1_2 1_555 1_555
N10 C30_2 1_555 1_555
H3_2 C3_2 1_555 1_555
C4_2 C3_2 1_555 1_555
H4_2 C4_2 1_555 1_555
C6_2 N2_2 1_555 1_555
C7_2 N3_2 1_555 1_555
C8_2 C7_2 1_555 1_555
H5_2 C8_2 1_555 1_555
C9_2 C8_2 1_555 1_555
H6_2 C9_2 1_555 1_555
C10_2 C9_2 1_555 1_555
H7_2 C10_2 1_555 1_555
C11_2 N3_2 1_555 1_555
C12_2 N4_2 1_555 1_555
C13_2 N4_2 1_555 1_555
C14_2 C13_2 1_555 1_555
H8_2 C14_2 1_555 1_555
C15_2 C14_2 1_555 1_555
H9_2 C15_2 1_555 1_555
C16_2 C15_2 1_555 1_555
H10_2 C16_2 1_555 1_555
C17_2 N17 1_555 1_555
H11_2 C17_2 1_555 1_555
H15_2 C21_2 1_555 1_555
C24_2 N8_2 1_555 1_555
C25_2 C24_2 1_555 1_555
H16_2 C25_2 1_555 1_555
C26_2 C25_2 1_555 1_555
H17_2 C26_2 1_555 1_555
C27_2 C26_2 1_555 1_555
H18_2 C27_2 1_555 1_555
C28_2 N8_2 1_555 1_555
C29_2 N9_2 1_555 1_555
C30_2 H19_2 1_555 1_555
C31_2 C30_2 1_555 1_555
H20_2 C31_2 1_555 1_555
C32_2 C31_2 1_555 1_555
H21_2 C32_2 1_555 1_555
C33_2 N9_2 1_555 1_555
C34_2 N10 1_555 1_555
H22_2 C34_2 1_555 1_555
Cd4 N10 1_555 1_555
C35_2 N12 1_555 1_555
H23_2 C35_2 1_555 1_555
C36_2 C35_2 1_555 1_555
H24_2 C36_2 1_555 1_555
N7_2 C23_2 1_555 1_555
C4_2 C5_2 1_555 1_555
C6_2 C7_2 1_555 1_555
C10_2 C11_2 1_555 1_555
C11_2 C12_2 1_555 1_555
C13_2 C17_2 1_555 1_555
C23_2 C24_2 1_555 1_555
C27_2 C28_2 1_555 1_555
C28_2 C29_2 1_555 1_555
C32_2 C33_2 1_555 1_555
C33_2 C34_2 1_555 1_555
Cd1_2 Cl1_2 1_555 1_555
O3_2 Cd1_2 1_555 1_555
N1_2 Cd1_2 1_555 1_555
N6_2 Cd1_2 1_555 1_555
C1_2 N1_2 1_555 1_555
H1_2 C1_2 1_555 1_555
C2_2 C1_2 1_555 1_555
H2_2 C2_2 1_555 1_555
C18_2 N6_2 1_555 1_555
H12_2 C18_2 1_555 1_555
C19_2 C18_2 1_555 1_555
H13_2 C19_2 1_555 1_555
C20_2 C19_2 1_555 1_555
H14_2 C20_2 1_555 1_555
C22_2 N6_2 1_555 1_555
Co3 N13_2 1_555 1_555
Co3_2 N19_2 1_555 1_555
O6_2 C46_2 1_555 1_555
O8_2 C63_2 1_555 1_555
N13_2 C39_2 1_555 1_555
N14_2 Co3 1_555 1_555
N15_2 Co3 1_555 1_555
N16_2 Cd1_2 1_555 1_555
N21_2 Co3_2 1_555 1_555
N23_2 Co3_2 1_555 1_555
N25_2 Cd1_2 1_555 1_555
H25_2 C37_2 1_555 1_555
C38_2 C37_2 1_555 1_555
H26_2 C38_2 1_555 1_555
C40_2 N13_2 1_555 1_555
C41_2 N14_2 1_555 1_555
C42_2 C41_2 1_555 1_555
H27_2 C42_2 1_555 1_555
C43_2 C42_2 1_555 1_555
H28_2 C43_2 1_555 1_555
C44_2 C43_2 1_555 1_555
H29_2 C44_2 1_555 1_555
C45_2 N14_2 1_555 1_555
C46_2 N15_2 1_555 1_555
C47_2 N15_2 1_555 1_555
C48_2 C47_2 1_555 1_555
H30_2 C48_2 1_555 1_555
C49_2 C48_2 1_555 1_555
H31_2 C49_2 1_555 1_555
C50_2 N16_2 1_555 1_555
H32_2 C50_2 1_555 1_555
C51_2 N16_2 1_555 1_555
H33_2 C51_2 1_555 1_555
H37_2 C55_2 1_555 1_555
C58_2 N21_2 1_555 1_555
C59_2 C58_2 1_555 1_555
H38_2 C59_2 1_555 1_555
C60_2 C59_2 1_555 1_555
H39_2 C60_2 1_555 1_555
C61_2 C60_2 1_555 1_555
H40_2 C61_2 1_555 1_555
C62_2 N21_2 1_555 1_555
C63_2 N23_2 1_555 1_555
C64_2 N25_2 1_555 1_555
H41_2 C64_2 1_555 1_555
C65_2 C64_2 1_555 1_555
H42_2 C65_2 1_555 1_555
C66_2 C65_2 1_555 1_555
H43_2 C66_2 1_555 1_555
C67_2 N23_2 1_555 1_555
C68_2 N25_2 1_555 1_555
H44_2 C68_2 1_555 1_555
N19_2 C57_2 1_555 1_555
C38_2 C39_2 1_555 1_555
C40_2 C41_2 1_555 1_555
C44_2 C45_2 1_555 1_555
C45_2 C46_2 1_555 1_555
C47_2 C51_2 1_555 1_555
C49_2 C50_2 1_555 1_555
C57_2 C58_2 1_555 1_555
C61_2 C62_2 1_555 1_555
C62_2 C63_2 1_555 1_555
C66_2 C67_2 1_555 1_555
C67_2 C68_2 1_555 1_555
Cd4 Cl2_2 1_555 1_555
O7_2 Cd4 1_555 1_555
N12_2 Cd4 1_555 1_555
N17_2 Cd4 1_555 1_555
N18_2 Cd4 1_555 1_555
C52_2 N18_2 1_555 1_555
H34_2 C52_2 1_555 1_555
C53_2 C52_2 1_555 1_555
H35_2 C53_2 1_555 1_555
C54_2 C53_2 1_555 1_555
H36_2 C54_2 1_555 1_555
C56_2 N18_2 1_555 1_555
Cd1_3 Cl1_3 1_555 1_555
O3_3 Cd1_3 1_555 1_555
N1_3 Cd1_3 1_555 1_555
N6_3 Cd1_3 1_555 1_555
C1_3 N1_3 1_555 1_555
H1_3 C1_3 1_555 1_555
C2_3 C1_3 1_555 1_555
H2_3 C2_3 1_555 1_555
C18_3 N6_3 1_555 1_555
H12_3 C18_3 1_555 1_555
C19_3 C18_3 1_555 1_555
H13_3 C19_3 1_555 1_555
C20_3 C19_3 1_555 1_555
H14_3 C20_3 1_555 1_555
C22_3 N6_3 1_555 1_555
Cd3 Cl2_3 1_555 1_555
Co3_2 N13_3 1_555 1_555
O6_3 C46_3 1_555 1_555
O7_3 Cd3 1_555 1_555
O8_3 C63_3 1_555 1_555
N13_3 C39_3 1_555 1_555
N14_3 Co3_2 1_555 1_555
N15_3 Co3_2 1_555 1_555
N16_3 Cd1_3 1_555 1_555
N18_3 Cd3 1_555 1_555
N20 C56_3 1_555 1_555
N25_3 Cd1_3 1_555 1_555
N26_2 Cd3 1_555 1_555
H25_3 C37_3 1_555 1_555
C38_3 C37_3 1_555 1_555
H26_3 C38_3 1_555 1_555
C40_3 N13_3 1_555 1_555
C41_3 N14_3 1_555 1_555
C42_3 C41_3 1_555 1_555
H27_3 C42_3 1_555 1_555
C43_3 C42_3 1_555 1_555
H28_3 C43_3 1_555 1_555
C44_3 C43_3 1_555 1_555
H29_3 C44_3 1_555 1_555
C45_3 N14_3 1_555 1_555
C46_3 N15_3 1_555 1_555
C47_3 N15_3 1_555 1_555
C48_3 C47_3 1_555 1_555
H30_3 C48_3 1_555 1_555
C49_3 C48_3 1_555 1_555
H31_3 C49_3 1_555 1_555
C50_3 N16_3 1_555 1_555
H32_3 C50_3 1_555 1_555
C51_3 N16_3 1_555 1_555
H33_3 C51_3 1_555 1_555
C52_3 N18_3 1_555 1_555
H34_3 C52_3 1_555 1_555
C53_3 C52_3 1_555 1_555
H35_3 C53_3 1_555 1_555
C54_3 C53_3 1_555 1_555
H36_3 C54_3 1_555 1_555
C55_3 C54_3 1_555 1_555
H37_3 C55_3 1_555 1_555
C56_3 N18_3 1_555 1_555
C57_3 O7_3 1_555 1_555
C58_3 N22 1_555 1_555
C59_3 C58_3 1_555 1_555
H38_3 C59_3 1_555 1_555
C60_3 C59_3 1_555 1_555
H39_3 C60_3 1_555 1_555
C61_3 C60_3 1_555 1_555
H40_3 C61_3 1_555 1_555
C62_3 N22 1_555 1_555
C63_3 N24 1_555 1_555
C64_3 N25_3 1_555 1_555
H41_3 C64_3 1_555 1_555
C65_3 C64_3 1_555 1_555
H42_3 C65_3 1_555 1_555
C66_3 C65_3 1_555 1_555
H43_3 C66_3 1_555 1_555
C67_3 N24 1_555 1_555
C68_3 N25_3 1_555 1_555
H44_3 C68_3 1_555 1_555
N20 C57_3 1_555 1_555
C38_3 C39_3 1_555 1_555
C40_3 C41_3 1_555 1_555
C44_3 C45_3 1_555 1_555
C45_3 C46_3 1_555 1_555
C47_3 C51_3 1_555 1_555
C49_3 C50_3 1_555 1_555
C55_3 C56_3 1_555 1_555
C57_3 C58_3 1_555 1_555
C61_3 C62_3 1_555 1_555
C62_3 C63_3 1_555 1_555
C66_3 C67_3 1_555 1_555
C67_3 C68_3 1_555 1_555
Co1_3 N2_3 1_555 1_555
O2_3 C12_3 1_555 1_555
O4_3 C29_3 1_555 1_555
N2_3 C5_3 1_555 1_555
N3_3 Co1_3 1_555 1_555
N4_3 Co1_3 1_555 1_555
N17_2 C16_3 1_555 1_555
N7_3 Co1_3 1_555 1_555
N8_3 Co1_3 1_555 1_555
N9_3 Co1_3 1_555 1_555
N26_2 C30_3 1_555 1_555
H3_3 C3_3 1_555 1_555
C4_3 C3_3 1_555 1_555
H4_3 C4_3 1_555 1_555
C6_3 N2_3 1_555 1_555
C7_3 N3_3 1_555 1_555
C8_3 C7_3 1_555 1_555
H5_3 C8_3 1_555 1_555
C9_3 C8_3 1_555 1_555
H6_3 C9_3 1_555 1_555
C10_3 C9_3 1_555 1_555
H7_3 C10_3 1_555 1_555
C11_3 N3_3 1_555 1_555
C12_3 N4_3 1_555 1_555
C13_3 N4_3 1_555 1_555
C14_3 C13_3 1_555 1_555
H8_3 C14_3 1_555 1_555
C15_3 C14_3 1_555 1_555
H9_3 C15_3 1_555 1_555
C16_3 C15_3 1_555 1_555
H10_3 C16_3 1_555 1_555
C17_3 N17_2 1_555 1_555
H11_3 C17_3 1_555 1_555
H15_3 C21_3 1_555 1_555
C24_3 N8_3 1_555 1_555
C25_3 C24_3 1_555 1_555
H16_3 C25_3 1_555 1_555
C26_3 C25_3 1_555 1_555
H17_3 C26_3 1_555 1_555
C27_3 C26_3 1_555 1_555
H18_3 C27_3 1_555 1_555
C28_3 N8_3 1_555 1_555
C29_3 N9_3 1_555 1_555
C30_3 H19_3 1_555 1_555
C31_3 C30_3 1_555 1_555
H20_3 C31_3 1_555 1_555
C32_3 C31_3 1_555 1_555
H21_3 C32_3 1_555 1_555
C33_3 N9_3 1_555 1_555
C34_3 N26_2 1_555 1_555
H22_3 C34_3 1_555 1_555
C35_3 N12_2 1_555 1_555
H23_3 C35_3 1_555 1_555
C36_3 C35_3 1_555 1_555
H24_3 C36_3 1_555 1_555
N7_3 C23_3 1_555 1_555
C4_3 C5_3 1_555 1_555
C6_3 C7_3 1_555 1_555
C10_3 C11_3 1_555 1_555
C11_3 C12_3 1_555 1_555
C13_3 C17_3 1_555 1_555
C23_3 C24_3 1_555 1_555
C27_3 C28_3 1_555 1_555
C28_3 C29_3 1_555 1_555
C32_3 C33_3 1_555 1_555
C33_3 C34_3 1_555 1_555

#END
