
###############################################################################
#
# This file contains modified crystal structure data generated from the
# MOF subset of the Cambridge Structural Database (CSD) v543 
# hosted by the Cambridge Crystallographic Data Centre (CCDC).
#
# This work is licensed under the Creative Commons
# Attribution-NonCommercial-ShareAlike 4.0 International License.
# To view a copy of this license, visit
# http://creativecommons.org/licenses/by-nc-sa/4.0/
# or send a letter to
# Creative Commons, PO Box 1866, Mountain View, CA 94042, USA.
#
# CIF created using the CSD Python API on 29 September 2022
# The structure has been converted into the P1 space group
# The structure has a 3D framework
# The original CSD entry HEHKUD is in the tetragonal crystal system
# The framework has been calculated to contain at least 10.0% void space
# The void calculation uses a probe of radius 1.32A, grid spacing 0.4
# The framework is charged, counterions have been retained in the structure
# H atom positions have been added when not included in the experimental data
# Generated hydrogen atom positions removed from atoms on special positions
#
###############################################################################

data_HEHKUD
_chemical_formula_moiety         '(C224 H240 Cl32 Cu20 N32 O10 Si16 9+)n'
_symmetry_cell_setting           triclinic
_symmetry_space_group_name_H-M   'P 1'
_symmetry_Int_Tables_number      1
_space_group_name_Hall           'P 1'
loop_
_symmetry_equiv_pos_site_id
_symmetry_equiv_pos_as_xyz
1 x,y,z
_cell_length_a                   14.508(5)
_cell_length_b                   14.508(5)
_cell_length_c                   34.921(14)
_cell_angle_alpha                90
_cell_angle_beta                 90
_cell_angle_gamma                90
_cell_volume                     7350.24
loop_
_atom_site_label
_atom_site_type_symbol
_atom_site_fract_x
_atom_site_fract_y
_atom_site_fract_z
Cl1 Cl 0.83254(12) 0.11585(12) 0.84255(5)
Cl1_2 Cl 0.16746(12) 0.88415(12) 0.84255(5)
Cl1_3 Cl 0.88415(12) 0.83254(12) 0.84255(5)
Cl1_4 Cl 0.11585(12) 0.16746(12) 0.84255(5)
Cl1_5 Cl 0.33254(12) 0.61585(12) 0.34255(5)
Cl1_6 Cl 0.66746(12) 0.38415(12) 0.34255(5)
Cl1_7 Cl 0.38415(12) 0.33254(12) 0.34255(5)
Cl1_8 Cl 0.61585(12) 0.66746(12) 0.34255(5)
Cl1_9 Cl 0.16746(12) 0.88415(12) 0.15745(5)
Cl1_10 Cl 0.83254(12) 0.11585(12) 0.15745(5)
Cl1_11 Cl 0.11585(12) 0.16746(12) 0.15745(5)
Cl1_12 Cl 0.88415(12) 0.83254(12) 0.15745(5)
Cl1_13 Cl 0.66746(12) 0.38415(12) 0.65745(5)
Cl1_14 Cl 0.33254(12) 0.61585(12) 0.65745(5)
Cl1_15 Cl 0.61585(12) 0.66746(12) 0.65745(5)
Cl1_16 Cl 0.38415(12) 0.33254(12) 0.65745(5)
Cu10 Cu 0.0000 0.0000 0.57291(2)
Cu13 Cu 0.0000 0.0000 0.42709(2)
Cu10_2 Cu 0.0000 1.0000 0.57291(2)
Cu13_2 Cu 0.0000 1.0000 0.42709(2)
Cu1 Cu 0.5000 0.5000 0.77179(2)
O1 O 0.5000 0.5000 0.69287(16)
Cl2 Cl 0.5000 0.5000 0.84489(4)
Cl3 Cl 0.0000 0.0000 0.5000
Si1 Si 0.5000 0.0000 0.67214(3)
C1 C 0.56563(19) 0.07762(19) 0.70447(8)
H1 H 0.6150 0.0524 0.7189
C2 C 0.54659(19) 0.16731(18) 0.70836(8)
H2 H 0.5065 0.1939 0.6899
C3 C 0.58194(18) 0.22888(18) 0.73857(8)
C4 C 0.54291(18) 0.31612(18) 0.74106(8)
H3 H 0.4984 0.3337 0.7225
N1 N 0.56526(15) 0.37657(16) 0.76852(6)
C5 C 0.62943(19) 0.35278(19) 0.79433(8)
H4 H 0.6462 0.3957 0.8137
C6 C 0.67191(19) 0.2674(2) 0.79356(8)
H5 H 0.7173 0.2520 0.8121
C7 C 0.64764(19) 0.20472(19) 0.76558(8)
H6 H 0.6757 0.1456 0.7648
C8 C 0.42161(19) 0.06712(19) 0.64110(8)
H7 H 0.4434 0.1226 0.6298
C9 C 0.33571(19) 0.0403(2) 0.63404(8)
C10 C 0.27140(19) 0.0807(2) 0.60661(8)
C11 C 0.18658(18) 0.0389(2) 0.60171(8)
N2 N 0.12302(16) 0.06642(16) 0.57621(6)
C12 C 0.1426(2) 0.1395(2) 0.55426(8)
H10 H 0.0988 0.1589 0.5357
C13 C 0.2243(2) 0.1876(2) 0.55775(10)
H11 H 0.2357 0.2403 0.5423
C14 C 0.2894(2) 0.1583(2) 0.58399(9)
H12 H 0.3460 0.1906 0.5867
H20 H 0.6863 0.0108 0.6484
H21 H 0.8277 0.0127 0.6174
Cu4 Cu 0.5000 0.5000 0.22821(2)
O2 O 0.5000 0.5000 0.30713(16)
Cl4 Cl 0.5000 0.5000 0.15511(4)
Si3 Si 0.5000 0.0000 0.32786(3)
C57 C 0.56563(19) 0.07762(19) 0.29553(8)
H49 H 0.6150 0.0524 0.2811
C58 C 0.54659(19) 0.16731(18) 0.29164(8)
H50 H 0.5065 0.1939 0.3101
C59 C 0.58194(18) 0.22888(18) 0.26143(8)
C60 C 0.54291(18) 0.31612(18) 0.25894(8)
H51 H 0.4984 0.3337 0.2775
N9 N 0.56526(15) 0.37657(16) 0.23148(6)
C61 C 0.62943(19) 0.35278(19) 0.20567(8)
H52 H 0.6462 0.3957 0.1863
C62 C 0.67191(19) 0.2674(2) 0.20644(8)
H53 H 0.7173 0.2520 0.1879
C63 C 0.64764(19) 0.20472(19) 0.23442(8)
H54 H 0.6757 0.1456 0.2352
C64 C 0.42161(19) 0.06712(19) 0.35890(8)
H55 H 0.4434 0.1226 0.3702
C65 C 0.33571(19) 0.0403(2) 0.36596(8)
C66 C 0.27140(19) 0.0807(2) 0.39339(8)
C67 C 0.18658(18) 0.0389(2) 0.39829(8)
N10 N 0.12302(16) 0.06642(16) 0.42379(6)
C68 C 0.1426(2) 0.1395(2) 0.44574(8)
H58 H 0.0988 0.1589 0.4643
C69 C 0.2243(2) 0.1876(2) 0.44225(10)
H59 H 0.2357 0.2403 0.4577
C70 C 0.2894(2) 0.1583(2) 0.41601(9)
H60 H 0.3460 0.1906 0.4133
H68 H 0.6863 0.0108 0.3516
H69 H 0.8277 0.0127 0.3826
Cu10_3 Cu 1.0000 0.0000 0.57291(2)
Cu11 Cu 0.5000 0.5000 0.07291(2)
Cu13_3 Cu 1.0000 0.0000 0.42709(2)
Cu14 Cu 0.5000 0.5000 0.92709(2)
Cl5 Cl 0.0000 0.0000 0.34489(4)
Cl6 Cl 0.0000 0.0000 0.65511(4)
N17 N 0.43474(15) 0.62343(16) 0.76852(6)
N18 N 0.62343(16) 0.56526(15) 0.76852(6)
N19 N 0.37657(16) 0.43474(15) 0.76852(6)
N20 N 0.43474(15) 0.62343(16) 0.23148(6)
N21 N 0.37657(16) 0.43474(15) 0.23148(6)
N22 N 0.62343(16) 0.56526(15) 0.23148(6)
Cl3_2 Cl 0.0000 1.0000 0.5000
Si1_2 Si 0.5000 1.0000 0.67214(3)
H8 H 0.3137 0.9892 0.6484
H9 H 0.1723 0.9873 0.6174
C15 C 0.43437(19) 0.92238(19) 0.70447(8)
H13 H 0.3850 0.9476 0.7189
C16 C 0.45341(19) 0.83269(18) 0.70836(8)
H14 H 0.4935 0.8061 0.6899
C17 C 0.41806(18) 0.77112(18) 0.73857(8)
C18 C 0.45709(18) 0.68388(18) 0.74106(8)
H15 H 0.5016 0.6663 0.7225
C19 C 0.37057(19) 0.64722(19) 0.79433(8)
H16 H 0.3538 0.6043 0.8137
C20 C 0.32809(19) 0.7326(2) 0.79356(8)
H17 H 0.2827 0.7480 0.8121
C21 C 0.35236(19) 0.79528(19) 0.76558(8)
H18 H 0.3243 0.8544 0.7648
C22 C 0.57839(19) 0.93288(19) 0.64110(8)
H19 H 0.5566 0.8774 0.6298
C23 C 0.66429(19) 0.9597(2) 0.63404(8)
C24 C 0.72860(19) 0.9193(2) 0.60661(8)
C25 C 0.81342(18) 0.9611(2) 0.60171(8)
N4 N 0.87698(16) 0.93358(16) 0.57621(6)
C26 C 0.8574(2) 0.8605(2) 0.55426(8)
H22 H 0.9012 0.8411 0.5357
C27 C 0.7757(2) 0.8124(2) 0.55775(10)
H23 H 0.7643 0.7597 0.5423
C28 C 0.7106(2) 0.8417(2) 0.58399(9)
H24 H 0.6540 0.8094 0.5867
Si2 Si 0.0000 0.5000 0.67214(3)
H32 H 0.0108 0.3137 0.6484
H33 H 0.0127 0.1723 0.6174
C43 C 0.07762(19) 0.43437(19) 0.70447(8)
H37 H 0.0524 0.3850 0.7189
C44 C 0.16731(18) 0.45341(19) 0.70836(8)
H38 H 0.1939 0.4935 0.6899
C45 C 0.22888(18) 0.41806(18) 0.73857(8)
C46 C 0.31612(18) 0.45709(18) 0.74106(8)
H39 H 0.3337 0.5016 0.7225
C47 C 0.35278(19) 0.37057(19) 0.79433(8)
H40 H 0.3957 0.3538 0.8137
C48 C 0.2674(2) 0.32809(19) 0.79356(8)
H41 H 0.2520 0.2827 0.8121
C49 C 0.20472(19) 0.35236(19) 0.76558(8)
H42 H 0.1456 0.3243 0.7648
C50 C 0.06712(19) 0.57839(19) 0.64110(8)
H43 H 0.1226 0.5566 0.6298
C51 C 0.0403(2) 0.66429(19) 0.63404(8)
C52 C 0.0807(2) 0.72860(19) 0.60661(8)
C53 C 0.0389(2) 0.81342(18) 0.60171(8)
N8 N 0.06642(16) 0.87698(16) 0.57621(6)
C54 C 0.1395(2) 0.8574(2) 0.55426(8)
H46 H 0.1589 0.9012 0.5357
C55 C 0.1876(2) 0.7757(2) 0.55775(10)
H47 H 0.2403 0.7643 0.5423
C56 C 0.1583(2) 0.7106(2) 0.58399(9)
H48 H 0.1906 0.6540 0.5867
Si3_2 Si 0.5000 1.0000 0.32786(3)
H56 H 0.3137 0.9892 0.3516
H57 H 0.1723 0.9873 0.3826
C71 C 0.43437(19) 0.92238(19) 0.29553(8)
H61 H 0.3850 0.9476 0.2811
C72 C 0.45341(19) 0.83269(18) 0.29164(8)
H62 H 0.4935 0.8061 0.3101
C73 C 0.41806(18) 0.77112(18) 0.26143(8)
C74 C 0.45709(18) 0.68388(18) 0.25894(8)
H63 H 0.5016 0.6663 0.2775
C75 C 0.37057(19) 0.64722(19) 0.20567(8)
H64 H 0.3538 0.6043 0.1863
C76 C 0.32809(19) 0.7326(2) 0.20644(8)
H65 H 0.2827 0.7480 0.1879
C77 C 0.35236(19) 0.79528(19) 0.23442(8)
H66 H 0.3243 0.8544 0.2352
C78 C 0.57839(19) 0.93288(19) 0.35890(8)
H67 H 0.5566 0.8774 0.3702
C79 C 0.66429(19) 0.9597(2) 0.36596(8)
C80 C 0.72860(19) 0.9193(2) 0.39339(8)
C81 C 0.81342(18) 0.9611(2) 0.39829(8)
N12 N 0.87698(16) 0.93358(16) 0.42379(6)
C82 C 0.8574(2) 0.8605(2) 0.44574(8)
H70 H 0.9012 0.8411 0.4643
C83 C 0.7757(2) 0.8124(2) 0.44225(10)
H71 H 0.7643 0.7597 0.4577
C84 C 0.7106(2) 0.8417(2) 0.41601(9)
H72 H 0.6540 0.8094 0.4133
Si4 Si -0.0000 0.5000 0.32786(3)
C85 C 0.07762(19) 0.43437(19) 0.29553(8)
H73 H 0.0524 0.3850 0.2811
C86 C 0.16731(18) 0.45341(19) 0.29164(8)
H74 H 0.1939 0.4935 0.3101
C87 C 0.22888(18) 0.41806(18) 0.26143(8)
C88 C 0.31612(18) 0.45709(18) 0.25894(8)
H75 H 0.3337 0.5016 0.2775
C89 C 0.35278(19) 0.37057(19) 0.20567(8)
H76 H 0.3957 0.3538 0.1863
C90 C 0.2674(2) 0.32809(19) 0.20644(8)
H77 H 0.2520 0.2827 0.1879
C91 C 0.20472(19) 0.35236(19) 0.23442(8)
H78 H 0.1456 0.3243 0.2352
C92 C 0.06712(19) 0.57839(19) 0.35890(8)
H79 H 0.1226 0.5566 0.3702
C93 C 0.0403(2) 0.66429(19) 0.36596(8)
C94 C 0.0807(2) 0.72860(19) 0.39339(8)
C95 C 0.0389(2) 0.81342(18) 0.39829(8)
N14 N 0.06642(16) 0.87698(16) 0.42379(6)
C96 C 0.1395(2) 0.8574(2) 0.44574(8)
H82 H 0.1589 0.9012 0.4643
C97 C 0.1876(2) 0.7757(2) 0.44225(10)
H83 H 0.2403 0.7643 0.4577
C98 C 0.1583(2) 0.7106(2) 0.41601(9)
H84 H 0.1906 0.6540 0.4133
H92 H 0.0108 0.3137 0.3516
H93 H 0.0127 0.1723 0.3826
Cu10_4 Cu 1.0000 1.0000 0.57291(2)
Cu13_4 Cu 1.0000 1.0000 0.42709(2)
Cl5_2 Cl 0.0000 1.0000 0.34489(4)
Cl6_2 Cl -0.0000 1.0000 0.65511(4)
Cl3_3 Cl 1.0000 0.0000 0.5000
Cl5_3 Cl 1.0000 0.0000 0.34489(4)
Cl6_3 Cl 1.0000 0.0000 0.65511(4)
N24 N 0.93358(16) 0.12302(16) 0.57621(6)
N26 N 0.93358(16) 0.12302(16) 0.42379(6)
Cl3_4 Cl 1.0000 1.0000 0.5000
Si2_2 Si 1.0000 0.5000 0.67214(3)
C29 C 0.92238(19) 0.56563(19) 0.70447(8)
H25 H 0.9476 0.6150 0.7189
C30 C 0.83269(18) 0.54659(19) 0.70836(8)
H26 H 0.8061 0.5065 0.6899
C31 C 0.77112(18) 0.58194(18) 0.73857(8)
C32 C 0.68388(18) 0.54291(18) 0.74106(8)
H27 H 0.6663 0.4984 0.7225
C33 C 0.64722(19) 0.62943(19) 0.79433(8)
H28 H 0.6043 0.6462 0.8137
C34 C 0.7326(2) 0.67191(19) 0.79356(8)
H29 H 0.7480 0.7173 0.8121
C35 C 0.79528(19) 0.64764(19) 0.76558(8)
H30 H 0.8544 0.6757 0.7648
C36 C 0.93288(19) 0.42161(19) 0.64110(8)
H31 H 0.8774 0.4434 0.6298
C37 C 0.9597(2) 0.33571(19) 0.63404(8)
C38 C 0.9193(2) 0.27140(19) 0.60661(8)
C39 C 0.9611(2) 0.18658(18) 0.60171(8)
C40 C 0.8605(2) 0.1426(2) 0.55426(8)
H34 H 0.8411 0.0988 0.5357
C41 C 0.8124(2) 0.2243(2) 0.55775(10)
H35 H 0.7597 0.2357 0.5423
C42 C 0.8417(2) 0.2894(2) 0.58399(9)
H36 H 0.8094 0.3460 0.5867
H44 H 0.9892 0.6863 0.6484
H45 H 0.9873 0.8277 0.6174
Si4_2 Si 1.0000 0.5000 0.32786(3)
H80 H 0.9892 0.6863 0.3516
H81 H 0.9873 0.8277 0.3826
C99 C 0.92238(19) 0.56563(19) 0.29553(8)
H85 H 0.9476 0.6150 0.2811
C100 C 0.83269(18) 0.54659(19) 0.29164(8)
H86 H 0.8061 0.5065 0.3101
C101 C 0.77112(18) 0.58194(18) 0.26143(8)
C102 C 0.68388(18) 0.54291(18) 0.25894(8)
H87 H 0.6663 0.4984 0.2775
C103 C 0.64722(19) 0.62943(19) 0.20567(8)
H88 H 0.6043 0.6462 0.1863
C104 C 0.7326(2) 0.67191(19) 0.20644(8)
H89 H 0.7480 0.7173 0.1879
C105 C 0.79528(19) 0.64764(19) 0.23442(8)
H90 H 0.8544 0.6757 0.2352
C106 C 0.93288(19) 0.42161(19) 0.35890(8)
H91 H 0.8774 0.4434 0.3702
C107 C 0.9597(2) 0.33571(19) 0.36596(8)
C108 C 0.9193(2) 0.27140(19) 0.39339(8)
C109 C 0.9611(2) 0.18658(18) 0.39829(8)
C110 C 0.8605(2) 0.1426(2) 0.44574(8)
H94 H 0.8411 0.0988 0.4643
C111 C 0.8124(2) 0.2243(2) 0.44225(10)
H95 H 0.7597 0.2357 0.4577
C112 C 0.8417(2) 0.2894(2) 0.41601(9)
H96 H 0.8094 0.3460 0.4133
Cl5_4 Cl 1.0000 1.0000 0.34489(4)
Cl6_4 Cl 1.0000 1.0000 0.65511(4)
Cu1_2 Cu 0.0000 -0.0000 0.27179(2)
O1_2 O 0.0000 0.0000 0.19287(16)
N18_2 N 0.12343(16) 0.06526(15) 0.26852(6)
Cu4_2 Cu 0.0000 0.0000 0.72821(2)
O2_2 O 0.0000 0.0000 0.80713(16)
N22_2 N 0.12343(16) 0.06526(15) 0.73148(6)
Cu1_3 Cu 0.0000 1.0000 0.27179(2)
O1_3 O 0.0000 1.0000 0.19287(16)
Si1_3 Si 0.0000 0.5000 0.17214(3)
C1_2 C 0.06563(19) 0.57762(19) 0.20447(8)
H1_2 H 0.1150 0.5524 0.2189
C2_2 C 0.04659(19) 0.66731(18) 0.20836(8)
H2_2 H 0.0065 0.6939 0.1899
C3_2 C 0.08194(18) 0.72888(18) 0.23857(8)
C4_2 C 0.04291(18) 0.81612(18) 0.24106(8)
N1_2 N 0.06526(15) 0.87657(16) 0.26852(6)
C5_2 C 0.12943(19) 0.85278(19) 0.29433(8)
H4_2 H 0.1462 0.8957 0.3137
C6_2 C 0.17191(19) 0.7674(2) 0.29356(8)
H5_2 H 0.2173 0.7520 0.3121
C7_2 C 0.14764(19) 0.70472(19) 0.26558(8)
H6_2 H 0.1757 0.6456 0.2648
H15_2 H 0.0016 0.1663 0.2225
C22_2 C 0.07839(19) 0.43288(19) 0.14110(8)
H19_2 H 0.0566 0.3774 0.1298
C23_2 C 0.16429(19) 0.4597(2) 0.13404(8)
H20_2 H 0.1863 0.5108 0.1484
C24_2 C 0.22860(19) 0.4193(2) 0.10661(8)
C25_2 C 0.31342(18) 0.4611(2) 0.10171(8)
H21_2 H 0.3277 0.5127 0.1174
N4_2 N 0.37698(16) 0.43358(16) 0.07621(6)
C26_2 C 0.3574(2) 0.3605(2) 0.05426(8)
H22_2 H 0.4012 0.3411 0.0357
C27_2 C 0.2757(2) 0.3124(2) 0.05775(10)
H23_2 H 0.2643 0.2597 0.0423
C28_2 C 0.2106(2) 0.3417(2) 0.08399(9)
H24_2 H 0.1540 0.3094 0.0867
Cu4_3 Cu 0.0000 1.0000 0.72821(2)
O2_3 O 0.0000 1.0000 0.80713(16)
Si3_3 Si 0.0000 0.5000 0.82786(3)
C57_2 C 0.06563(19) 0.57762(19) 0.79553(8)
H49_2 H 0.1150 0.5524 0.7811
C58_2 C 0.04659(19) 0.66731(18) 0.79164(8)
H50_2 H 0.0065 0.6939 0.8101
C59_2 C 0.08194(18) 0.72888(18) 0.76143(8)
C60_2 C 0.04291(18) 0.81612(18) 0.75894(8)
N9_2 N 0.06526(15) 0.87657(16) 0.73148(6)
C61_2 C 0.12943(19) 0.85278(19) 0.70567(8)
H52_2 H 0.1462 0.8957 0.6863
C62_2 C 0.17191(19) 0.7674(2) 0.70644(8)
H53_2 H 0.2173 0.7520 0.6879
C63_2 C 0.14764(19) 0.70472(19) 0.73442(8)
H54_2 H 0.1757 0.6456 0.7352
H63_2 H 0.0016 0.1663 0.7775
C78_2 C 0.07839(19) 0.43288(19) 0.85890(8)
H67_2 H 0.0566 0.3774 0.8702
C79_2 C 0.16429(19) 0.4597(2) 0.86596(8)
H68_2 H 0.1863 0.5108 0.8516
C80_2 C 0.22860(19) 0.4193(2) 0.89339(8)
C81_2 C 0.31342(18) 0.4611(2) 0.89829(8)
H69_2 H 0.3277 0.5127 0.8826
N12_2 N 0.37698(16) 0.43358(16) 0.92379(6)
C82_2 C 0.3574(2) 0.3605(2) 0.94574(8)
H70_2 H 0.4012 0.3411 0.9643
C83_2 C 0.2757(2) 0.3124(2) 0.94225(10)
H71_2 H 0.2643 0.2597 0.9577
C84_2 C 0.2106(2) 0.3417(2) 0.91601(9)
H72_2 H 0.1540 0.3094 0.9133
Cu1_4 Cu 1.0000 -0.0000 0.27179(2)
O1_4 O 1.0000 0.0000 0.19287(16)
N17_2 N 0.93474(15) 0.12343(16) 0.26852(6)
Cu4_4 Cu 1.0000 0.0000 0.72821(2)
O2_4 O 1.0000 0.0000 0.80713(16)
N20_2 N 0.93474(15) 0.12343(16) 0.73148(6)
Cu1_5 Cu 1.0000 1.0000 0.27179(2)
O1_5 O 1.0000 1.0000 0.19287(16)
Cl3_5 Cl 0.5000 0.5000 0.0000
Si1_4 Si 1.0000 0.5000 0.17214(3)
H3_2 H 0.9984 0.8337 0.2225
C8_2 C 0.92161(19) 0.56712(19) 0.14110(8)
H7_2 H 0.9434 0.6226 0.1298
C9_2 C 0.83571(19) 0.5403(2) 0.13404(8)
H8_2 H 0.8137 0.4892 0.1484
C10_2 C 0.77140(19) 0.5807(2) 0.10661(8)
C11_2 C 0.68658(18) 0.5389(2) 0.10171(8)
H9_2 H 0.6723 0.4873 0.1174
N2_2 N 0.62302(16) 0.56642(16) 0.07621(6)
C12_2 C 0.6426(2) 0.6395(2) 0.05426(8)
H10_2 H 0.5988 0.6589 0.0357
C13_2 C 0.7243(2) 0.6876(2) 0.05775(10)
H11_2 H 0.7357 0.7403 0.0423
C14_2 C 0.7894(2) 0.6583(2) 0.08399(9)
H12_2 H 0.8460 0.6906 0.0867
C15_2 C 0.93437(19) 0.42238(19) 0.20447(8)
H13_2 H 0.8850 0.4476 0.2189
C16_2 C 0.95341(19) 0.33269(18) 0.20836(8)
H14_2 H 0.9935 0.3061 0.1899
C17_2 C 0.91806(18) 0.27112(18) 0.23857(8)
C18_2 C 0.95709(18) 0.18388(18) 0.24106(8)
C19_2 C 0.87057(19) 0.14722(19) 0.29433(8)
H16_2 H 0.8538 0.1043 0.3137
C20_2 C 0.82809(19) 0.2326(2) 0.29356(8)
H17_2 H 0.7827 0.2480 0.3121
C21_2 C 0.85236(19) 0.29528(19) 0.26558(8)
H18_2 H 0.8243 0.3544 0.2648
Si2_3 Si 0.5000 0.0000 0.17214(3)
C29_2 C 0.42238(19) 0.06563(19) 0.20447(8)
H25_2 H 0.4476 0.1150 0.2189
C30_2 C 0.33269(18) 0.04659(19) 0.20836(8)
H26_2 H 0.3061 0.0065 0.1899
C31_2 C 0.27112(18) 0.08194(18) 0.23857(8)
C32_2 C 0.18388(18) 0.04291(18) 0.24106(8)
C33_2 C 0.14722(19) 0.12943(19) 0.29433(8)
H28_2 H 0.1043 0.1462 0.3137
C34_2 C 0.2326(2) 0.17191(19) 0.29356(8)
H29_2 H 0.2480 0.2173 0.3121
C35_2 C 0.29528(19) 0.14764(19) 0.26558(8)
H30_2 H 0.3544 0.1757 0.2648
H39_2 H 0.8337 0.0016 0.2225
C50_2 C 0.56712(19) 0.07839(19) 0.14110(8)
H43_2 H 0.6226 0.0566 0.1298
C51_2 C 0.5403(2) 0.16429(19) 0.13404(8)
H44_2 H 0.4892 0.1863 0.1484
C52_2 C 0.5807(2) 0.22860(19) 0.10661(8)
C53_2 C 0.5389(2) 0.31342(18) 0.10171(8)
H45_2 H 0.4873 0.3277 0.1174
N8_2 N 0.56642(16) 0.37698(16) 0.07621(6)
C54_2 C 0.6395(2) 0.3574(2) 0.05426(8)
H46_2 H 0.6589 0.4012 0.0357
C55_2 C 0.6876(2) 0.2757(2) 0.05775(10)
H47_2 H 0.7403 0.2643 0.0423
C56_2 C 0.6583(2) 0.2106(2) 0.08399(9)
H48_2 H 0.6906 0.1540 0.0867
N19_2 N 0.87657(16) 0.93474(15) 0.26852(6)
N24_2 N 0.43358(16) 0.62302(16) 0.07621(6)
Cl3_6 Cl 0.5000 0.5000 1.0000
Cu4_5 Cu 1.0000 1.0000 0.72821(2)
O2_5 O 1.0000 1.0000 0.80713(16)
Si3_4 Si 1.0000 0.5000 0.82786(3)
H51_2 H 0.9984 0.8337 0.7775
C64_2 C 0.92161(19) 0.56712(19) 0.85890(8)
H55_2 H 0.9434 0.6226 0.8702
C65_2 C 0.83571(19) 0.5403(2) 0.86596(8)
H56_2 H 0.8137 0.4892 0.8516
C66_2 C 0.77140(19) 0.5807(2) 0.89339(8)
C67_2 C 0.68658(18) 0.5389(2) 0.89829(8)
H57_2 H 0.6723 0.4873 0.8826
N10_2 N 0.62302(16) 0.56642(16) 0.92379(6)
C68_2 C 0.6426(2) 0.6395(2) 0.94574(8)
H58_2 H 0.5988 0.6589 0.9643
C69_2 C 0.7243(2) 0.6876(2) 0.94225(10)
H59_2 H 0.7357 0.7403 0.9577
C70_2 C 0.7894(2) 0.6583(2) 0.91601(9)
H60_2 H 0.8460 0.6906 0.9133
C71_2 C 0.93437(19) 0.42238(19) 0.79553(8)
H61_2 H 0.8850 0.4476 0.7811
C72_2 C 0.95341(19) 0.33269(18) 0.79164(8)
H62_2 H 0.9935 0.3061 0.8101
C73_2 C 0.91806(18) 0.27112(18) 0.76143(8)
C74_2 C 0.95709(18) 0.18388(18) 0.75894(8)
C75_2 C 0.87057(19) 0.14722(19) 0.70567(8)
H64_2 H 0.8538 0.1043 0.6863
C76_2 C 0.82809(19) 0.2326(2) 0.70644(8)
H65_2 H 0.7827 0.2480 0.6879
C77_2 C 0.85236(19) 0.29528(19) 0.73442(8)
H66_2 H 0.8243 0.3544 0.7352
Si4_3 Si 0.5000 0.0000 0.82786(3)
H75_2 H 0.8337 0.0016 0.7775
C92_2 C 0.56712(19) 0.07839(19) 0.85890(8)
H79_2 H 0.6226 0.0566 0.8702
C93_2 C 0.5403(2) 0.16429(19) 0.86596(8)
H80_2 H 0.4892 0.1863 0.8516
C94_2 C 0.5807(2) 0.22860(19) 0.89339(8)
C95_2 C 0.5389(2) 0.31342(18) 0.89829(8)
H81_2 H 0.4873 0.3277 0.8826
N14_2 N 0.56642(16) 0.37698(16) 0.92379(6)
C96_2 C 0.6395(2) 0.3574(2) 0.94574(8)
H82_2 H 0.6589 0.4012 0.9643
C97_2 C 0.6876(2) 0.2757(2) 0.94225(10)
H83_2 H 0.7403 0.2643 0.9577
C98_2 C 0.6583(2) 0.2106(2) 0.91601(9)
H84_2 H 0.6906 0.1540 0.9133
C99_2 C 0.42238(19) 0.06563(19) 0.79553(8)
H85_2 H 0.4476 0.1150 0.7811
C100_2 C 0.33269(18) 0.04659(19) 0.79164(8)
H86_2 H 0.3061 0.0065 0.8101
C101_2 C 0.27112(18) 0.08194(18) 0.76143(8)
C102_2 C 0.18388(18) 0.04291(18) 0.75894(8)
C103_2 C 0.14722(19) 0.12943(19) 0.70567(8)
H88_2 H 0.1043 0.1462 0.6863
C104_2 C 0.2326(2) 0.17191(19) 0.70644(8)
H89_2 H 0.2480 0.2173 0.6879
C105_2 C 0.29528(19) 0.14764(19) 0.73442(8)
H90_2 H 0.3544 0.1757 0.7352
N21_2 N 0.87657(16) 0.93474(15) 0.73148(6)
N26_2 N 0.43358(16) 0.62302(16) 0.92379(6)
Si2_4 Si 0.5000 1.0000 0.17214(3)
H27_2 H 0.1663 0.9984 0.2225
C36_2 C 0.43288(19) 0.92161(19) 0.14110(8)
H31_2 H 0.3774 0.9434 0.1298
C37_2 C 0.4597(2) 0.83571(19) 0.13404(8)
H32_2 H 0.5108 0.8137 0.1484
C38_2 C 0.4193(2) 0.77140(19) 0.10661(8)
C39_2 C 0.4611(2) 0.68658(18) 0.10171(8)
H33_2 H 0.5127 0.6723 0.1174
C40_2 C 0.3605(2) 0.6426(2) 0.05426(8)
H34_2 H 0.3411 0.5988 0.0357
C41_2 C 0.3124(2) 0.7243(2) 0.05775(10)
H35_2 H 0.2597 0.7357 0.0423
C42_2 C 0.3417(2) 0.7894(2) 0.08399(9)
H36_2 H 0.3094 0.8460 0.0867
C43_2 C 0.57762(19) 0.93437(19) 0.20447(8)
H37_2 H 0.5524 0.8850 0.2189
C44_2 C 0.66731(18) 0.95341(19) 0.20836(8)
H38_2 H 0.6939 0.9935 0.1899
C45_2 C 0.72888(18) 0.91806(18) 0.23857(8)
C46_2 C 0.81612(18) 0.95709(18) 0.24106(8)
C47_2 C 0.85278(19) 0.87057(19) 0.29433(8)
H40_2 H 0.8957 0.8538 0.3137
C48_2 C 0.7674(2) 0.82809(19) 0.29356(8)
H41_2 H 0.7520 0.7827 0.3121
C49_2 C 0.70472(19) 0.85236(19) 0.26558(8)
H42_2 H 0.6456 0.8243 0.2648
Si4_4 Si 0.5000 1.0000 0.82786(3)
C85_2 C 0.57762(19) 0.93437(19) 0.79553(8)
H73_2 H 0.5524 0.8850 0.7811
C86_2 C 0.66731(18) 0.95341(19) 0.79164(8)
H74_2 H 0.6939 0.9935 0.8101
C87_2 C 0.72888(18) 0.91806(18) 0.76143(8)
C88_2 C 0.81612(18) 0.95709(18) 0.75894(8)
C89_2 C 0.85278(19) 0.87057(19) 0.70567(8)
H76_2 H 0.8957 0.8538 0.6863
C90_2 C 0.7674(2) 0.82809(19) 0.70644(8)
H77_2 H 0.7520 0.7827 0.6879
C91_2 C 0.70472(19) 0.85236(19) 0.73442(8)
H78_2 H 0.6456 0.8243 0.7352
H87_2 H 0.1663 0.9984 0.7775
C106_2 C 0.43288(19) 0.92161(19) 0.85890(8)
H91_2 H 0.3774 0.9434 0.8702
C107_2 C 0.4597(2) 0.83571(19) 0.86596(8)
H92_2 H 0.5108 0.8137 0.8516
C108_2 C 0.4193(2) 0.77140(19) 0.89339(8)
C109_2 C 0.4611(2) 0.68658(18) 0.89829(8)
H93_2 H 0.5127 0.6723 0.8826
C110_2 C 0.3605(2) 0.6426(2) 0.94574(8)
H94_2 H 0.3411 0.5988 0.9643
C111_2 C 0.3124(2) 0.7243(2) 0.94225(10)
H95_2 H 0.2597 0.7357 0.9577
C112_2 C 0.3417(2) 0.7894(2) 0.91601(9)
H96_2 H 0.3094 0.8460 0.9133
loop_
_geom_bond_atom_site_label_1
_geom_bond_atom_site_label_2
_geom_bond_site_symmetry_1
_geom_bond_site_symmetry_2
Cu1 O1 1_555 1_555
Cu10 Cl3 1_555 1_555
Cl2 Cu1 1_555 1_555
Cl3 Cu13 1_555 1_555
Si1 C1 1_555 1_555
C1 H1 1_555 1_555
C2 C1 1_555 1_555
H2 C2 1_555 1_555
C3 C2 1_555 1_555
C4 C3 1_555 1_555
H3 C4 1_555 1_555
N1 Cu1 1_555 1_555
C5 N1 1_555 1_555
H4 C5 1_555 1_555
C6 C5 1_555 1_555
H5 C6 1_555 1_555
C7 C3 1_555 1_555
H6 C7 1_555 1_555
C8 Si1 1_555 1_555
H7 C8 1_555 1_555
C9 C8 1_555 1_555
C10 C9 1_555 1_555
C11 C10 1_555 1_555
N2 Cu10 1_555 1_555
C12 N2 1_555 1_555
H10 C12 1_555 1_555
C13 C12 1_555 1_555
H11 C13 1_555 1_555
C14 C10 1_555 1_555
H12 C14 1_555 1_555
Cu13 N10 1_555 1_555
Cu4 O2 1_555 1_555
Cl4 Cu4 1_555 1_555
Si3 C57 1_555 1_555
C57 H49 1_555 1_555
C58 C57 1_555 1_555
H50 C58 1_555 1_555
C59 C58 1_555 1_555
C60 C59 1_555 1_555
H51 C60 1_555 1_555
N9 Cu4 1_555 1_555
C61 N9 1_555 1_555
H52 C61 1_555 1_555
C62 C61 1_555 1_555
H53 C62 1_555 1_555
C63 C59 1_555 1_555
H54 C63 1_555 1_555
C64 Si3 1_555 1_555
H55 C64 1_555 1_555
C65 C64 1_555 1_555
C66 C65 1_555 1_555
C67 C66 1_555 1_555
N10 C67 1_555 1_555
C68 N10 1_555 1_555
H58 C68 1_555 1_555
C69 C68 1_555 1_555
H59 C69 1_555 1_555
C70 C66 1_555 1_555
H60 C70 1_555 1_555
Cu11 Cl4 1_555 1_555
Cu14 Cl2 1_555 1_555
Cl5 Cu13 1_555 1_555
Cl6 Cu10 1_555 1_555
N17 Cu1 1_555 1_555
N18 Cu1 1_555 1_555
N19 Cu1 1_555 1_555
N20 Cu4 1_555 1_555
N21 Cu4 1_555 1_555
N22 Cu4 1_555 1_555
C4 N1 1_555 1_555
C6 C7 1_555 1_555
C11 N2 1_555 1_555
C13 C14 1_555 1_555
C60 N9 1_555 1_555
C62 C63 1_555 1_555
C69 C70 1_555 1_555
Cu10_2 Cl3_2 1_555 1_555
Cl3_2 Cu13_2 1_555 1_555
C15 Si1_2 1_555 1_555
H13 C15 1_555 1_555
C16 C15 1_555 1_555
H14 C16 1_555 1_555
C17 C16 1_555 1_555
C18 C17 1_555 1_555
H15 C18 1_555 1_555
N17 C18 1_555 1_555
C19 N17 1_555 1_555
H16 C19 1_555 1_555
C20 C19 1_555 1_555
H17 C20 1_555 1_555
C21 C17 1_555 1_555
H18 C21 1_555 1_555
C22 Si1_2 1_555 1_555
H19 C22 1_555 1_555
C23 C22 1_555 1_555
C24 C23 1_555 1_555
C25 C24 1_555 1_555
N4 C25 1_555 1_555
C26 N4 1_555 1_555
H22 C26 1_555 1_555
C27 C26 1_555 1_555
H23 C27 1_555 1_555
C28 C24 1_555 1_555
H24 C28 1_555 1_555
C43 Si2 1_555 1_555
H37 C43 1_555 1_555
C44 C43 1_555 1_555
H38 C44 1_555 1_555
C45 C44 1_555 1_555
C46 C45 1_555 1_555
H39 C46 1_555 1_555
N19 C46 1_555 1_555
C47 N19 1_555 1_555
H40 C47 1_555 1_555
C48 C47 1_555 1_555
H41 C48 1_555 1_555
C49 C45 1_555 1_555
H42 C49 1_555 1_555
C50 Si2 1_555 1_555
H43 C50 1_555 1_555
C51 C50 1_555 1_555
C52 C51 1_555 1_555
C53 C52 1_555 1_555
N8 Cu10_2 1_555 1_555
C54 N8 1_555 1_555
H46 C54 1_555 1_555
C55 C54 1_555 1_555
H47 C55 1_555 1_555
C56 C52 1_555 1_555
H48 C56 1_555 1_555
C71 Si3_2 1_555 1_555
H61 C71 1_555 1_555
C72 C71 1_555 1_555
H62 C72 1_555 1_555
C73 C72 1_555 1_555
C74 C73 1_555 1_555
H63 C74 1_555 1_555
N20 C74 1_555 1_555
C75 N20 1_555 1_555
H64 C75 1_555 1_555
C76 C75 1_555 1_555
H65 C76 1_555 1_555
C77 C73 1_555 1_555
H66 C77 1_555 1_555
C78 Si3_2 1_555 1_555
H67 C78 1_555 1_555
C79 C78 1_555 1_555
C80 C79 1_555 1_555
C81 C80 1_555 1_555
N12 C81 1_555 1_555
C82 N12 1_555 1_555
H70 C82 1_555 1_555
C83 C82 1_555 1_555
H71 C83 1_555 1_555
C84 C80 1_555 1_555
H72 C84 1_555 1_555
Si4 C85 1_555 1_555
C85 H73 1_555 1_555
C86 C85 1_555 1_555
H74 C86 1_555 1_555
C87 C86 1_555 1_555
C88 C87 1_555 1_555
H75 C88 1_555 1_555
N21 C88 1_555 1_555
C89 N21 1_555 1_555
H76 C89 1_555 1_555
C90 C89 1_555 1_555
H77 C90 1_555 1_555
C91 C87 1_555 1_555
H78 C91 1_555 1_555
C92 Si4 1_555 1_555
H79 C92 1_555 1_555
C93 C92 1_555 1_555
C94 C93 1_555 1_555
C95 C94 1_555 1_555
N14 Cu13_2 1_555 1_555
C96 N14 1_555 1_555
H82 C96 1_555 1_555
C97 C96 1_555 1_555
H83 C97 1_555 1_555
C98 C94 1_555 1_555
H84 C98 1_555 1_555
Cu10_4 N4 1_555 1_555
Cu13_4 N12 1_555 1_555
Cl5_2 Cu13_2 1_555 1_555
Cl6_2 Cu10_2 1_555 1_555
C20 C21 1_555 1_555
C27 C28 1_555 1_555
C48 C49 1_555 1_555
C53 N8 1_555 1_555
C55 C56 1_555 1_555
C76 C77 1_555 1_555
C83 C84 1_555 1_555
C90 C91 1_555 1_555
C95 N14 1_555 1_555
C97 C98 1_555 1_555
Cu10_3 Cl3_3 1_555 1_555
Cl3_3 Cu13_3 1_555 1_555
Cl5_3 Cu13_3 1_555 1_555
Cl6_3 Cu10_3 1_555 1_555
N24 Cu10_3 1_555 1_555
N26 Cu13_3 1_555 1_555
Cu10_4 Cl3_4 1_555 1_555
Cl3_4 Cu13_4 1_555 1_555
Si2_2 C29 1_555 1_555
C29 H25 1_555 1_555
C30 C29 1_555 1_555
H26 C30 1_555 1_555
C31 C30 1_555 1_555
C32 C31 1_555 1_555
H27 C32 1_555 1_555
N18 C32 1_555 1_555
C33 N18 1_555 1_555
H28 C33 1_555 1_555
C34 C33 1_555 1_555
H29 C34 1_555 1_555
C35 C31 1_555 1_555
H30 C35 1_555 1_555
C36 Si2_2 1_555 1_555
H31 C36 1_555 1_555
C37 C36 1_555 1_555
C38 C37 1_555 1_555
C39 C38 1_555 1_555
N24 C39 1_555 1_555
C40 N24 1_555 1_555
H34 C40 1_555 1_555
C41 C40 1_555 1_555
H35 C41 1_555 1_555
C42 C38 1_555 1_555
H36 C42 1_555 1_555
C99 Si4_2 1_555 1_555
H85 C99 1_555 1_555
C100 C99 1_555 1_555
H86 C100 1_555 1_555
C101 C100 1_555 1_555
C102 C101 1_555 1_555
H87 C102 1_555 1_555
N22 C102 1_555 1_555
C103 N22 1_555 1_555
H88 C103 1_555 1_555
C104 C103 1_555 1_555
H89 C104 1_555 1_555
C105 C101 1_555 1_555
H90 C105 1_555 1_555
C106 Si4_2 1_555 1_555
H91 C106 1_555 1_555
C107 C106 1_555 1_555
C108 C107 1_555 1_555
C109 C108 1_555 1_555
N26 C109 1_555 1_555
C110 N26 1_555 1_555
H94 C110 1_555 1_555
C111 C110 1_555 1_555
H95 C111 1_555 1_555
C112 C108 1_555 1_555
H96 C112 1_555 1_555
Cl5_4 Cu13_4 1_555 1_555
Cl6_4 Cu10_4 1_555 1_555
C34 C35 1_555 1_555
C41 C42 1_555 1_555
C104 C105 1_555 1_555
C111 C112 1_555 1_555
Cu1_2 O1_2 1_555 1_555
Cl5 Cu1_2 1_555 1_555
N18_2 Cu1_2 1_555 1_555
Cu4_2 O2_2 1_555 1_555
Cl6 Cu4_2 1_555 1_555
N22_2 Cu4_2 1_555 1_555
Cu1_3 O1_3 1_555 1_555
Cl5_2 Cu1_3 1_555 1_555
Si1_3 C1_2 1_555 1_555
C1_2 H1_2 1_555 1_555
C2_2 C1_2 1_555 1_555
H2_2 C2_2 1_555 1_555
C3_2 C2_2 1_555 1_555
C4_2 C3_2 1_555 1_555
N1_2 Cu1_3 1_555 1_555
C5_2 N1_2 1_555 1_555
H4_2 C5_2 1_555 1_555
C6_2 C5_2 1_555 1_555
H5_2 C6_2 1_555 1_555
C7_2 C3_2 1_555 1_555
H6_2 C7_2 1_555 1_555
C22_2 Si1_3 1_555 1_555
H19_2 C22_2 1_555 1_555
C23_2 C22_2 1_555 1_555
H20_2 C23_2 1_555 1_555
C24_2 C23_2 1_555 1_555
C25_2 C24_2 1_555 1_555
H21_2 C25_2 1_555 1_555
N4_2 C25_2 1_555 1_555
C26_2 N4_2 1_555 1_555
H22_2 C26_2 1_555 1_555
C27_2 C26_2 1_555 1_555
H23_2 C27_2 1_555 1_555
C28_2 C24_2 1_555 1_555
H24_2 C28_2 1_555 1_555
Cu11 N4_2 1_555 1_555
C4_2 N1_2 1_555 1_555
C6_2 C7_2 1_555 1_555
C27_2 C28_2 1_555 1_555
Cu4_3 O2_3 1_555 1_555
Cl6_2 Cu4_3 1_555 1_555
Si3_3 C57_2 1_555 1_555
C57_2 H49_2 1_555 1_555
C58_2 C57_2 1_555 1_555
H50_2 C58_2 1_555 1_555
C59_2 C58_2 1_555 1_555
C60_2 C59_2 1_555 1_555
N9_2 Cu4_3 1_555 1_555
C61_2 N9_2 1_555 1_555
H52_2 C61_2 1_555 1_555
C62_2 C61_2 1_555 1_555
H53_2 C62_2 1_555 1_555
C63_2 C59_2 1_555 1_555
H54_2 C63_2 1_555 1_555
C78_2 Si3_3 1_555 1_555
H67_2 C78_2 1_555 1_555
C79_2 C78_2 1_555 1_555
H68_2 C79_2 1_555 1_555
C80_2 C79_2 1_555 1_555
C81_2 C80_2 1_555 1_555
H69_2 C81_2 1_555 1_555
N12_2 C81_2 1_555 1_555
C82_2 N12_2 1_555 1_555
H70_2 C82_2 1_555 1_555
C83_2 C82_2 1_555 1_555
H71_2 C83_2 1_555 1_555
C84_2 C80_2 1_555 1_555
H72_2 C84_2 1_555 1_555
Cu14 N12_2 1_555 1_555
C60_2 N9_2 1_555 1_555
C62_2 C63_2 1_555 1_555
C83_2 C84_2 1_555 1_555
Cu1_4 O1_4 1_555 1_555
Cl5_3 Cu1_4 1_555 1_555
N17_2 Cu1_4 1_555 1_555
Cu4_4 O2_4 1_555 1_555
Cl6_3 Cu4_4 1_555 1_555
N20_2 Cu4_4 1_555 1_555
Cu1_5 O1_5 1_555 1_555
Cu11 Cl3_5 1_555 1_555
Cl5_4 Cu1_5 1_555 1_555
C8_2 Si1_4 1_555 1_555
H7_2 C8_2 1_555 1_555
C9_2 C8_2 1_555 1_555
H8_2 C9_2 1_555 1_555
C10_2 C9_2 1_555 1_555
C11_2 C10_2 1_555 1_555
H9_2 C11_2 1_555 1_555
N2_2 Cu11 1_555 1_555
C12_2 N2_2 1_555 1_555
H10_2 C12_2 1_555 1_555
C13_2 C12_2 1_555 1_555
H11_2 C13_2 1_555 1_555
C14_2 C10_2 1_555 1_555
H12_2 C14_2 1_555 1_555
C15_2 Si1_4 1_555 1_555
H13_2 C15_2 1_555 1_555
C16_2 C15_2 1_555 1_555
H14_2 C16_2 1_555 1_555
C17_2 C16_2 1_555 1_555
C18_2 C17_2 1_555 1_555
N17_2 C18_2 1_555 1_555
C19_2 N17_2 1_555 1_555
H16_2 C19_2 1_555 1_555
C20_2 C19_2 1_555 1_555
H17_2 C20_2 1_555 1_555
C21_2 C17_2 1_555 1_555
H18_2 C21_2 1_555 1_555
Si2_3 C29_2 1_555 1_555
C29_2 H25_2 1_555 1_555
C30_2 C29_2 1_555 1_555
H26_2 C30_2 1_555 1_555
C31_2 C30_2 1_555 1_555
C32_2 C31_2 1_555 1_555
N18_2 C32_2 1_555 1_555
C33_2 N18_2 1_555 1_555
H28_2 C33_2 1_555 1_555
C34_2 C33_2 1_555 1_555
H29_2 C34_2 1_555 1_555
C35_2 C31_2 1_555 1_555
H30_2 C35_2 1_555 1_555
C50_2 Si2_3 1_555 1_555
H43_2 C50_2 1_555 1_555
C51_2 C50_2 1_555 1_555
H44_2 C51_2 1_555 1_555
C52_2 C51_2 1_555 1_555
C53_2 C52_2 1_555 1_555
H45_2 C53_2 1_555 1_555
N8_2 Cu11 1_555 1_555
C54_2 N8_2 1_555 1_555
H46_2 C54_2 1_555 1_555
C55_2 C54_2 1_555 1_555
H47_2 C55_2 1_555 1_555
C56_2 C52_2 1_555 1_555
H48_2 C56_2 1_555 1_555
N19_2 Cu1_5 1_555 1_555
N24_2 Cu11 1_555 1_555
C11_2 N2_2 1_555 1_555
C13_2 C14_2 1_555 1_555
C20_2 C21_2 1_555 1_555
C34_2 C35_2 1_555 1_555
C53_2 N8_2 1_555 1_555
C55_2 C56_2 1_555 1_555
Cl3_6 Cu14 1_555 1_555
Cu14 N10_2 1_555 1_555
Cu4_5 O2_5 1_555 1_555
Cl6_4 Cu4_5 1_555 1_555
C64_2 Si3_4 1_555 1_555
H55_2 C64_2 1_555 1_555
C65_2 C64_2 1_555 1_555
H56_2 C65_2 1_555 1_555
C66_2 C65_2 1_555 1_555
C67_2 C66_2 1_555 1_555
H57_2 C67_2 1_555 1_555
N10_2 C67_2 1_555 1_555
C68_2 N10_2 1_555 1_555
H58_2 C68_2 1_555 1_555
C69_2 C68_2 1_555 1_555
H59_2 C69_2 1_555 1_555
C70_2 C66_2 1_555 1_555
H60_2 C70_2 1_555 1_555
C71_2 Si3_4 1_555 1_555
H61_2 C71_2 1_555 1_555
C72_2 C71_2 1_555 1_555
H62_2 C72_2 1_555 1_555
C73_2 C72_2 1_555 1_555
C74_2 C73_2 1_555 1_555
N20_2 C74_2 1_555 1_555
C75_2 N20_2 1_555 1_555
H64_2 C75_2 1_555 1_555
C76_2 C75_2 1_555 1_555
H65_2 C76_2 1_555 1_555
C77_2 C73_2 1_555 1_555
H66_2 C77_2 1_555 1_555
C92_2 Si4_3 1_555 1_555
H79_2 C92_2 1_555 1_555
C93_2 C92_2 1_555 1_555
H80_2 C93_2 1_555 1_555
C94_2 C93_2 1_555 1_555
C95_2 C94_2 1_555 1_555
H81_2 C95_2 1_555 1_555
N14_2 Cu14 1_555 1_555
C96_2 N14_2 1_555 1_555
H82_2 C96_2 1_555 1_555
C97_2 C96_2 1_555 1_555
H83_2 C97_2 1_555 1_555
C98_2 C94_2 1_555 1_555
H84_2 C98_2 1_555 1_555
C99_2 Si4_3 1_555 1_555
H85_2 C99_2 1_555 1_555
C100_2 C99_2 1_555 1_555
H86_2 C100_2 1_555 1_555
C101_2 C100_2 1_555 1_555
C102_2 C101_2 1_555 1_555
N22_2 C102_2 1_555 1_555
C103_2 N22_2 1_555 1_555
H88_2 C103_2 1_555 1_555
C104_2 C103_2 1_555 1_555
H89_2 C104_2 1_555 1_555
C105_2 C101_2 1_555 1_555
H90_2 C105_2 1_555 1_555
N21_2 Cu4_5 1_555 1_555
N26_2 Cu14 1_555 1_555
C69_2 C70_2 1_555 1_555
C76_2 C77_2 1_555 1_555
C95_2 N14_2 1_555 1_555
C97_2 C98_2 1_555 1_555
C104_2 C105_2 1_555 1_555
C36_2 Si2_4 1_555 1_555
H31_2 C36_2 1_555 1_555
C37_2 C36_2 1_555 1_555
H32_2 C37_2 1_555 1_555
C38_2 C37_2 1_555 1_555
C39_2 C38_2 1_555 1_555
H33_2 C39_2 1_555 1_555
N24_2 C39_2 1_555 1_555
C40_2 N24_2 1_555 1_555
H34_2 C40_2 1_555 1_555
C41_2 C40_2 1_555 1_555
H35_2 C41_2 1_555 1_555
C42_2 C38_2 1_555 1_555
H36_2 C42_2 1_555 1_555
C43_2 Si2_4 1_555 1_555
H37_2 C43_2 1_555 1_555
C44_2 C43_2 1_555 1_555
H38_2 C44_2 1_555 1_555
C45_2 C44_2 1_555 1_555
C46_2 C45_2 1_555 1_555
N19_2 C46_2 1_555 1_555
C47_2 N19_2 1_555 1_555
H40_2 C47_2 1_555 1_555
C48_2 C47_2 1_555 1_555
H41_2 C48_2 1_555 1_555
C49_2 C45_2 1_555 1_555
H42_2 C49_2 1_555 1_555
C41_2 C42_2 1_555 1_555
C48_2 C49_2 1_555 1_555
Si4_4 C85_2 1_555 1_555
C85_2 H73_2 1_555 1_555
C86_2 C85_2 1_555 1_555
H74_2 C86_2 1_555 1_555
C87_2 C86_2 1_555 1_555
C88_2 C87_2 1_555 1_555
N21_2 C88_2 1_555 1_555
C89_2 N21_2 1_555 1_555
H76_2 C89_2 1_555 1_555
C90_2 C89_2 1_555 1_555
H77_2 C90_2 1_555 1_555
C91_2 C87_2 1_555 1_555
H78_2 C91_2 1_555 1_555
C106_2 Si4_4 1_555 1_555
H91_2 C106_2 1_555 1_555
C107_2 C106_2 1_555 1_555
H92_2 C107_2 1_555 1_555
C108_2 C107_2 1_555 1_555
C109_2 C108_2 1_555 1_555
H93_2 C109_2 1_555 1_555
N26_2 C109_2 1_555 1_555
C110_2 N26_2 1_555 1_555
H94_2 C110_2 1_555 1_555
C111_2 C110_2 1_555 1_555
H95_2 C111_2 1_555 1_555
C112_2 C108_2 1_555 1_555
H96_2 C112_2 1_555 1_555
C90_2 C91_2 1_555 1_555
C111_2 C112_2 1_555 1_555

#END
