
###############################################################################
#
# This file contains modified crystal structure data generated from the
# MOF subset of the Cambridge Structural Database (CSD) v543 
# hosted by the Cambridge Crystallographic Data Centre (CCDC).
#
# This work is licensed under the Creative Commons
# Attribution-NonCommercial-ShareAlike 4.0 International License.
# To view a copy of this license, visit
# http://creativecommons.org/licenses/by-nc-sa/4.0/
# or send a letter to
# Creative Commons, PO Box 1866, Mountain View, CA 94042, USA.
#
# CIF created using the CSD Python API on 29 September 2022
# The structure has been converted into the P1 space group
# The structure has a 3D framework
# The original CSD entry HEHTUM01 is in the monoclinic crystal system
# The framework has been calculated to contain at least 10.0% void space
# The void calculation uses a probe of radius 1.32A, grid spacing 0.4
# H atom positions have been added when not included in the experimental data
#
###############################################################################

data_HEHTUM01
_chemical_formula_moiety         '(C200 H152 N40 O56 Zn10)n'
_symmetry_cell_setting           triclinic
_symmetry_space_group_name_H-M   'P 1'
_symmetry_Int_Tables_number      1
_space_group_name_Hall           'P 1'
loop_
_symmetry_equiv_pos_site_id
_symmetry_equiv_pos_as_xyz
1 x,y,z
_cell_length_a                   15.3323(17)
_cell_length_b                   13.6260(6)
_cell_length_c                   26.3724(13)
_cell_angle_alpha                90
_cell_angle_beta                 99.996(5)
_cell_angle_gamma                90
_cell_volume                     5426.03
loop_
_atom_site_label
_atom_site_type_symbol
_atom_site_fract_x
_atom_site_fract_y
_atom_site_fract_z
N8 N 0.0341(2) 0.6277(2) 0.52604(11)
N9 N 0.1301(2) 0.5361(3) 0.49336(12)
N10 N 0.1360(2) 0.5128(3) 0.54398(12)
O8 O 0.18793(16) 0.37866(17) 0.72731(9)
O9 O 0.11361(19) 0.4371(2) 0.78634(9)
C31 C 0.0811(2) 0.5014(3) 0.70196(12)
C32 C 0.0125(2) 0.5601(3) 0.71304(12)
C35 C 0.0582(2) 0.5643(3) 0.61521(12)
C36 C 0.1045(2) 0.5044(3) 0.65305(12)
H25 H 0.151160 0.466212 0.645912
C37 C 0.1318(2) 0.4332(2) 0.74192(12)
C39 C 0.0780(2) 0.5692(3) 0.56246(13)
C40 C 0.0699(2) 0.6066(3) 0.48426(13)
C41 C 0.0412(2) 0.6533(3) 0.43402(13)
C46 C 0.0636(3) 0.6961(4) 0.34885(15)
H28 H 0.098997 0.695197 0.323580
C47 C 0.0933(3) 0.6522(4) 0.39605(15)
H29 H 0.148510 0.621927 0.402281
Zn4 Zn 0.19231(3) 0.38088(3) 0.84897(2)
Zn9 Zn 0.250000 0.250000 0.750000
N2 N 0.8474(5) 0.1286(5) 0.3284(3)
O7 O 0.7647(3) 0.0147(3) 0.35795(15)
C21 C 0.5106(4) 0.0251(5) 0.43202(19)
H10 H 0.466015 0.071568 0.423511
H11 H 0.550523 0.025463 0.363687
C23 C 0.8079(4) 0.0432(5) 0.3262(3)
H12 H 0.813042 0.001911 0.298783
C24 C 0.8422(7) 0.1928(7) 0.3734(5)
H13 H 0.794971 0.239169 0.364399
H14 H 0.897210 0.227242 0.383022
H15 H 0.831178 0.153305 0.401753
C25 C 0.9017(7) 0.1589(8) 0.2925(4)
H16 H 0.910462 0.104650 0.270682
H17 H 0.958008 0.180735 0.310794
H18 H 0.873266 0.211642 0.271838
N6 N 0.3763(2) 0.0713(2) 0.59451(11)
C26 C 0.3681(4) 0.1174(4) 0.55037(17)
H19 H 0.328735 0.169758 0.544197
C27 C 0.4160(4) 0.0907(4) 0.51244(17)
H20 H 0.408577 0.125391 0.481618
C28 C 0.4733(3) 0.0149(4) 0.51998(15)
C30 C 0.4389(4) 0.0039(4) 0.60398(19)
N7 N 0.6526(5) 0.1286(5) 0.6716(3)
O14 O 0.7353(3) 0.0147(3) 0.64205(15)
C48 C 0.6921(4) 0.0432(5) 0.6738(3)
H30 H 0.686958 0.001911 0.701217
C49 C 0.6578(7) 0.1928(7) 0.6266(5)
H31 H 0.705029 0.239169 0.635601
H32 H 0.602790 0.227242 0.616978
H33 H 0.668822 0.153305 0.598247
C50 C 0.5983(7) 0.1589(8) 0.7075(4)
H34 H 0.589538 0.104650 0.729318
H35 H 0.541992 0.180735 0.689206
H36 H 0.626734 0.211642 0.728162
Zn6 Zn 0.30769(3) 0.11912(3) 0.65103(2)
Zn1 Zn 0.69231(3) 0.88088(3) 0.34897(2)
Zn2 Zn 0.750000 0.750000 0.750000
N1 N 0.6237(2) 0.9287(2) 0.40549(11)
N3 N 0.4659(2) 0.6277(2) 0.47396(11)
N4 N 0.3699(2) 0.5361(3) 0.50664(12)
N5 N 0.3640(2) 0.5128(3) 0.45602(12)
O1 O 0.31207(16) 0.37866(17) 0.27269(9)
O2 O 0.38639(19) 0.4371(2) 0.21366(9)
O3 O 0.63450(15) 0.68422(18) 0.27316(8)
O4 O 0.63565(19) 0.7459(2) 0.35127(10)
O5 O 0.69413(17) 0.8140(2) 0.59410(9)
O6 O 0.69763(14) 0.81535(17) 0.67715(8)
C1 C 0.4189(2) 0.5014(3) 0.29804(12)
C2 C 0.4875(2) 0.5601(3) 0.28696(12)
H1 H 0.502677 0.558383 0.254318
C3 C 0.5335(2) 0.6213(2) 0.32475(12)
C4 C 0.5103(2) 0.6226(2) 0.37331(12)
H2 H 0.541021 0.663118 0.398646
C5 C 0.4418(2) 0.5643(3) 0.38479(12)
C6 C 0.3955(2) 0.5044(3) 0.34695(12)
H3 H 0.348840 0.466212 0.354088
C7 C 0.3682(2) 0.4332(2) 0.25808(12)
C8 C 0.6072(2) 0.6890(2) 0.31476(12)
C9 C 0.4220(2) 0.5692(3) 0.43754(13)
C10 C 0.4301(2) 0.6066(3) 0.51574(13)
C11 C 0.4588(2) 0.6533(3) 0.56598(13)
C12 C 0.5408(2) 0.6993(3) 0.57570(12)
H4 H 0.575735 0.701010 0.550199
C13 C 0.5712(2) 0.7427(3) 0.62325(12)
C14 C 0.6595(2) 0.7920(2) 0.63181(12)
C15 C 0.5186(3) 0.7415(3) 0.66107(13)
H5 H 0.538341 0.770795 0.692831
C16 C 0.4364(3) 0.6961(4) 0.65115(15)
H6 H 0.401003 0.695197 0.676420
C17 C 0.4067(3) 0.6522(4) 0.60395(15)
H7 H 0.351490 0.621927 0.597719
C18 C 0.6319(4) 0.8826(4) 0.44963(17)
H8 H 0.671265 0.830242 0.455803
C19 C 0.5840(4) 0.9093(4) 0.48756(17)
H9 H 0.591423 0.874609 0.518382
C20 C 0.5267(3) 0.9851(4) 0.48002(15)
C22 C 0.5611(4) 0.9961(4) 0.39602(19)
C29 C 0.4894(4) 0.9749(5) 0.56798(19)
H21 H 0.533985 0.928432 0.576489
H22 H 0.449477 0.974537 0.636313
Zn3 Zn 0.80769(3) 0.88088(3) 0.65103(2)
O10 O 0.86550(15) 0.68422(18) 0.72684(8)
O11 O 0.86435(19) 0.7459(2) 0.64873(10)
O12 O 0.80587(17) 0.8140(2) 0.40590(9)
O13 O 0.80237(14) 0.81535(17) 0.32285(8)
H23 H 0.997323 0.558383 0.745682
C33 C 0.9665(2) 0.6213(2) 0.67525(12)
C34 C 0.9897(2) 0.6226(2) 0.62669(12)
H24 H 0.958979 0.663118 0.601354
C38 C 0.8928(2) 0.6890(2) 0.68524(12)
C42 C 0.9592(2) 0.6993(3) 0.42430(12)
H26 H 0.924265 0.701010 0.449801
C43 C 0.9288(2) 0.7427(3) 0.37675(12)
C44 C 0.8405(2) 0.7920(2) 0.36819(12)
C45 C 0.9814(3) 0.7415(3) 0.33893(13)
H27 H 0.961659 0.770795 0.307169
Zn5 Zn 0.30769(3) 0.38088(3) 0.15103(2)
Zn7 Zn 0.750000 0.750000 0.250000
Zn8 Zn 0.250000 0.250000 0.250000
N11 N 0.8763(2) 0.9287(2) 0.59451(11)
O15 O 0.81207(16) 0.87866(17) 0.77269(9)
O16 O 0.68793(16) 0.62134(17) 0.72731(9)
O17 O 0.88639(19) 0.9371(2) 0.71366(9)
O18 O 0.61361(19) 0.9371(2) 0.28634(9)
O19 O 0.63450(15) 0.81578(18) 0.77316(8)
O20 O 0.80237(14) 0.68465(17) 0.82285(8)
H37 H 0.514701 0.676493 0.470822
H38 H 0.985299 0.676493 0.529178
H10_2 H 0.033985 0.071568 0.576489
N6_2 N 0.1237(2) 0.0713(2) 0.40549(11)
C26_2 C 0.1319(4) 0.1174(4) 0.44963(17)
H19_2 H 0.171265 0.169758 0.455803
C27_2 C 0.0840(4) 0.0907(4) 0.48756(17)
H20_2 H 0.091423 0.125391 0.518382
C28_2 C 0.0267(3) 0.0149(4) 0.48002(15)
C30_2 C 0.0611(4) 0.0039(4) 0.39602(19)
Zn6_2 Zn 0.19231(3) 0.11912(3) 0.34897(2)
C29_2 C 0.0106(4) 0.9749(5) 0.43202(19)
H22_2 H 0.050523 0.974537 0.363687
C21_2 C 0.9894(4) 0.0251(5) 0.56798(19)
H11_2 H 0.949477 0.025463 0.636313
C18_2 C 0.8681(4) 0.8826(4) 0.55037(17)
H8_2 H 0.828735 0.830242 0.544197
C19_2 C 0.9160(4) 0.9093(4) 0.51244(17)
H9_2 H 0.908577 0.874609 0.481618
C20_2 C 0.9733(3) 0.9851(4) 0.51998(15)
C22_2 C 0.9389(4) 0.9961(4) 0.60398(19)
H21_2 H 0.966015 0.928432 0.423511
O15_2 O 0.68793(16) 0.87866(17) 0.22731(9)
O16_2 O 0.81207(16) 0.62134(17) 0.27269(9)
O19_2 O 0.86550(15) 0.81578(18) 0.22684(8)
O20_2 O 0.69763(14) 0.68465(17) 0.17715(8)
O5_2 O 0.19413(17) 0.3140(2) 0.09410(9)
O6_2 O 0.19763(14) 0.31535(17) 0.17715(8)
C12_2 C 0.0408(2) 0.1993(3) 0.07570(12)
H4_2 H 0.075735 0.201010 0.050199
C13_2 C 0.0712(2) 0.2427(3) 0.12325(12)
C14_2 C 0.1595(2) 0.2920(2) 0.13181(12)
C15_2 C 0.0186(3) 0.2415(3) 0.16107(13)
H5_2 H 0.038341 0.270795 0.192831
H9_3 H 0.091423 0.374609 0.018382
H21_3 H 0.033985 0.428432 0.076489
N7_2 N 0.1526(5) 0.6286(5) 0.1716(3)
N8_2 N 0.5341(2) 0.1277(2) 0.02604(11)
N10_2 N 0.6360(2) 0.0128(3) 0.04398(12)
O10_2 O 0.36550(15) 0.18422(18) 0.22684(8)
O11_2 O 0.36435(19) 0.2459(2) 0.14873(10)
O14_2 O 0.2353(3) 0.5147(3) 0.14205(15)
C31_2 C 0.5811(2) 0.0014(3) 0.20196(12)
C32_2 C 0.5125(2) 0.0601(3) 0.21304(12)
H23_2 H 0.497323 0.058383 0.245682
C33_2 C 0.4665(2) 0.1213(2) 0.17525(12)
C34_2 C 0.4897(2) 0.1226(2) 0.12669(12)
H24_2 H 0.458979 0.163118 0.101354
C35_2 C 0.5582(2) 0.0643(3) 0.11521(12)
C36_2 C 0.6045(2) 0.0044(3) 0.15305(12)
C38_2 C 0.3928(2) 0.1890(2) 0.18524(12)
C39_2 C 0.5780(2) 0.0692(3) 0.06246(13)
C48_2 C 0.1921(4) 0.5432(5) 0.1738(3)
H30_2 H 0.186958 0.501911 0.201217
C49_2 C 0.1578(7) 0.6928(7) 0.1266(5)
H31_2 H 0.205029 0.739169 0.135601
H32_2 H 0.102790 0.727242 0.116978
H33_2 H 0.168822 0.653305 0.098247
C50_2 C 0.0983(7) 0.6589(8) 0.2075(4)
H34_2 H 0.089538 0.604650 0.229318
H35_2 H 0.041992 0.680735 0.189206
H36_2 H 0.126734 0.711642 0.228162
N11_2 N 0.3763(2) 0.4287(2) 0.09451(11)
O16_3 O 0.18793(16) 0.12134(17) 0.22731(9)
O19_3 O 0.13450(15) 0.31578(18) 0.27316(8)
O20_3 O 0.30237(14) 0.18465(17) 0.32285(8)
H38_2 H 0.485299 0.176493 0.0291784
N1_2 N 0.1237(2) 0.4287(2) 0.90549(11)
N2_2 N 0.3474(5) 0.6286(5) 0.8284(3)
O3_2 O 0.13450(15) 0.18422(18) 0.77316(8)
O4_2 O 0.13565(19) 0.2459(2) 0.85127(10)
O7_2 O 0.2647(3) 0.5147(3) 0.85795(15)
H1_2 H 0.002677 0.058383 0.754318
C3_2 C 0.0335(2) 0.1213(2) 0.82475(12)
C4_2 C 0.0103(2) 0.1226(2) 0.87331(12)
H2_2 H 0.041021 0.163118 0.898646
C8_2 C 0.1072(2) 0.1890(2) 0.81476(12)
C18_3 C 0.1319(4) 0.3826(4) 0.94963(17)
H8_3 H 0.171265 0.330242 0.955803
C19_3 C 0.0840(4) 0.4093(4) 0.98756(17)
C20_3 C 0.0267(3) 0.4851(4) 0.98002(15)
C21_3 C 0.0106(4) 0.5251(5) 0.93202(19)
C22_3 C 0.0611(4) 0.4961(4) 0.89602(19)
H11_3 H 0.050523 0.525463 0.863687
C23_2 C 0.3079(4) 0.5432(5) 0.8262(3)
H12_2 H 0.313042 0.501911 0.798783
C24_2 C 0.3422(7) 0.6928(7) 0.8734(5)
H13_2 H 0.294971 0.739169 0.864399
H14_2 H 0.397210 0.727242 0.883022
H15_2 H 0.331178 0.653305 0.901753
C25_2 C 0.4017(7) 0.6589(8) 0.7925(4)
H16_2 H 0.410462 0.604650 0.770682
H17_2 H 0.458008 0.680735 0.810794
H18_2 H 0.373266 0.711642 0.771838
N9_2 N 0.6301(2) 0.0361(3) 0.99336(12)
O12_2 O 0.30587(17) 0.3140(2) 0.90590(9)
O13_2 O 0.30237(14) 0.31535(17) 0.82285(8)
C40_2 C 0.5699(2) 0.1066(3) 0.98426(13)
C41_2 C 0.5412(2) 0.1533(3) 0.93402(13)
C42_2 C 0.4592(2) 0.1993(3) 0.92430(12)
H26_2 H 0.424265 0.201010 0.949801
C43_2 C 0.4288(2) 0.2427(3) 0.87675(12)
C44_2 C 0.3405(2) 0.2920(2) 0.86819(12)
C45_2 C 0.4814(3) 0.2415(3) 0.83893(13)
H27_2 H 0.461659 0.270795 0.807169
C46_2 C 0.5636(3) 0.1961(4) 0.84885(15)
H28_2 H 0.598997 0.195197 0.823580
C47_2 C 0.5933(3) 0.1522(4) 0.89605(15)
H29_2 H 0.648510 0.121927 0.902281
H37_2 H 0.0147008 0.176493 0.970822
H25_2 H 0.651160 0.966212 0.145912
C37_2 C 0.6318(2) 0.9332(2) 0.24192(12)
N4_2 N 0.8699(2) 0.0361(3) 0.00664(12)
C10_2 C 0.9301(2) 0.1066(3) 0.01574(13)
C11_2 C 0.9588(2) 0.1533(3) 0.06598(13)
C16_2 C 0.9364(3) 0.1961(4) 0.15115(15)
H6_2 H 0.901003 0.195197 0.176420
C17_2 C 0.9067(3) 0.1522(4) 0.10395(15)
H7_2 H 0.851490 0.121927 0.097719
N6_3 N 0.8763(2) 0.5713(2) 0.09451(11)
C26_3 C 0.8681(4) 0.6174(4) 0.05037(17)
H19_3 H 0.828735 0.669758 0.044197
C27_3 C 0.9160(4) 0.5907(4) 0.01244(17)
C28_3 C 0.9733(3) 0.5149(4) 0.01998(15)
C29_3 C 0.9894(4) 0.4749(5) 0.06798(19)
C30_3 C 0.9389(4) 0.5039(4) 0.10398(19)
H22_3 H 0.949477 0.474537 0.136313
Zn6_3 Zn 0.80769(3) 0.61912(3) 0.15103(2)
N3_2 N 0.9659(2) 0.1277(2) 0.97396(11)
N5_2 N 0.8640(2) 0.0128(3) 0.95602(12)
C1_2 C 0.9189(2) 0.0014(3) 0.79804(12)
C2_2 C 0.9875(2) 0.0601(3) 0.78696(12)
C5_2 C 0.9418(2) 0.0643(3) 0.88479(12)
C6_2 C 0.8955(2) 0.0044(3) 0.84695(12)
C9_2 C 0.9220(2) 0.0692(3) 0.93754(13)
H10_3 H 0.966015 0.571568 0.923511
H20_3 H 0.908577 0.625391 0.981618
H3_2 H 0.848840 0.966212 0.854088
C7_2 C 0.8682(2) 0.9332(2) 0.75808(12)
C18_4 C 0.3681(4) 0.3826(4) 0.05037(17)
H8_4 H 0.328735 0.330242 0.044197
C19_4 C 0.4160(4) 0.4093(4) 0.01244(17)
C20_4 C 0.4733(3) 0.4851(4) 0.01998(15)
C21_4 C 0.4894(4) 0.5251(5) 0.06798(19)
H10_4 H 0.533985 0.571568 0.076489
C22_4 C 0.4389(4) 0.4961(4) 0.10398(19)
H11_4 H 0.449477 0.525463 0.136313
H20_4 H 0.591423 0.625391 0.018382
H9_4 H 0.408577 0.374609 0.981618
N6_4 N 0.6237(2) 0.5713(2) 0.90549(11)
C26_4 C 0.6319(4) 0.6174(4) 0.94963(17)
H19_4 H 0.671265 0.669758 0.955803
C27_4 C 0.5840(4) 0.5907(4) 0.98756(17)
C28_4 C 0.5267(3) 0.5149(4) 0.98002(15)
C29_4 C 0.5106(4) 0.4749(5) 0.93202(19)
H21_4 H 0.466015 0.428432 0.923511
C30_4 C 0.5611(4) 0.5039(4) 0.89602(19)
H22_4 H 0.550523 0.474537 0.863687
Zn6_4 Zn 0.69231(3) 0.61912(3) 0.84897(2)
O16_4 O 0.31207(16) 0.12134(17) 0.77269(9)
O19_4 O 0.36550(15) 0.31578(18) 0.72684(8)
O20_4 O 0.19763(14) 0.18465(17) 0.67715(8)
N3_3 N 0.5341(2) 0.3723(2) 0.52604(11)
N4_3 N 0.6301(2) 0.4639(3) 0.49336(12)
N5_3 N 0.6360(2) 0.4872(3) 0.54398(12)
O2_2 O 0.61361(19) 0.5629(2) 0.78634(9)
O4_3 O 0.36435(19) 0.2541(2) 0.64873(10)
O5_3 O 0.30587(17) 0.1860(2) 0.40590(9)
C1_3 C 0.5811(2) 0.4986(3) 0.70196(12)
C2_3 C 0.5125(2) 0.4399(3) 0.71304(12)
H1_3 H 0.497323 0.441617 0.745682
C3_3 C 0.4665(2) 0.3787(2) 0.67525(12)
C4_3 C 0.4897(2) 0.3774(2) 0.62669(12)
H2_3 H 0.458979 0.336882 0.601354
C5_3 C 0.5582(2) 0.4357(3) 0.61521(12)
C6_3 C 0.6045(2) 0.4956(3) 0.65305(12)
H3_3 H 0.651160 0.533788 0.645912
C7_3 C 0.6318(2) 0.5668(2) 0.74192(12)
C8_3 C 0.3928(2) 0.3110(2) 0.68524(12)
C9_3 C 0.5780(2) 0.4308(3) 0.56246(13)
C10_3 C 0.5699(2) 0.3934(3) 0.48426(13)
C11_3 C 0.5412(2) 0.3467(3) 0.43402(13)
C12_3 C 0.4592(2) 0.3007(3) 0.42430(12)
H4_3 H 0.424265 0.298990 0.449801
C13_3 C 0.4288(2) 0.2573(3) 0.37675(12)
C14_3 C 0.3405(2) 0.2080(2) 0.36819(12)
C15_3 C 0.4814(3) 0.2585(3) 0.33893(13)
H5_3 H 0.461659 0.229205 0.307169
C16_3 C 0.5636(3) 0.3039(4) 0.34885(15)
H6_3 H 0.598997 0.304803 0.323580
C17_3 C 0.5933(3) 0.3478(4) 0.39605(15)
H7_3 H 0.648510 0.378073 0.402281
O11_3 O 0.13565(19) 0.2541(2) 0.35127(10)
O12_3 O 0.19413(17) 0.1860(2) 0.59410(9)
H23_3 H 0.002677 0.441617 0.254318
C33_3 C 0.0335(2) 0.3787(2) 0.32475(12)
C34_3 C 0.0103(2) 0.3774(2) 0.37331(12)
H24_3 H 0.041021 0.336882 0.398646
C38_3 C 0.1072(2) 0.3110(2) 0.31476(12)
C42_3 C 0.0408(2) 0.3007(3) 0.57570(12)
H26_3 H 0.075735 0.298990 0.550199
C43_3 C 0.0712(2) 0.2573(3) 0.62325(12)
C44_3 C 0.1595(2) 0.2080(2) 0.63181(12)
C45_3 C 0.0186(3) 0.2585(3) 0.66107(13)
H27_3 H 0.038341 0.229205 0.692831
O17_2 O 0.11361(19) 0.0629(2) 0.28634(9)
O18_2 O 0.38639(19) 0.0629(2) 0.71366(9)
H37_3 H 0.485299 0.323507 0.529178
H38_3 H 0.0147008 0.323507 0.470822
N2_3 N 0.1526(5) 0.8714(5) 0.6716(3)
O7_3 O 0.2353(3) 0.9853(3) 0.64205(15)
C23_3 C 0.1921(4) 0.9568(5) 0.6738(3)
H12_3 H 0.186958 0.998089 0.701217
C24_3 C 0.1578(7) 0.8072(7) 0.6266(5)
H13_3 H 0.205029 0.760831 0.635601
H14_3 H 0.102790 0.772758 0.616978
H15_3 H 0.168822 0.846695 0.598247
C25_3 C 0.0983(7) 0.8411(8) 0.7075(4)
H16_3 H 0.089538 0.895350 0.729318
H17_3 H 0.041992 0.819265 0.689206
H18_3 H 0.126734 0.788358 0.728162
N7_3 N 0.3474(5) 0.8714(5) 0.3284(3)
O14_3 O 0.2647(3) 0.9853(3) 0.35795(15)
C48_3 C 0.3079(4) 0.9568(5) 0.3262(3)
H30_3 H 0.313042 0.998089 0.298783
C49_3 C 0.3422(7) 0.8072(7) 0.3734(5)
H31_3 H 0.294971 0.760831 0.364399
H32_3 H 0.397210 0.772758 0.383022
H33_3 H 0.331178 0.846695 0.401753
C50_3 C 0.4017(7) 0.8411(8) 0.2925(4)
H34_3 H 0.410462 0.895350 0.270682
H35_3 H 0.458008 0.819265 0.310794
H36_3 H 0.373266 0.788358 0.271838
N8_3 N 0.9659(2) 0.3723(2) 0.47396(11)
N9_3 N 0.8699(2) 0.4639(3) 0.50664(12)
N10_3 N 0.8640(2) 0.4872(3) 0.45602(12)
O9_2 O 0.88639(19) 0.5629(2) 0.21366(9)
C31_3 C 0.9189(2) 0.4986(3) 0.29804(12)
C32_3 C 0.9875(2) 0.4399(3) 0.28696(12)
C35_3 C 0.9418(2) 0.4357(3) 0.38479(12)
C36_3 C 0.8955(2) 0.4956(3) 0.34695(12)
H25_3 H 0.848840 0.533788 0.354088
C37_3 C 0.8682(2) 0.5668(2) 0.25808(12)
C39_3 C 0.9220(2) 0.4308(3) 0.43754(13)
C40_3 C 0.9301(2) 0.3934(3) 0.51574(13)
C41_3 C 0.9588(2) 0.3467(3) 0.56598(13)
C46_3 C 0.9364(3) 0.3039(4) 0.65115(15)
H28_3 H 0.901003 0.304803 0.676420
C47_3 C 0.9067(3) 0.3478(4) 0.60395(15)
H29_3 H 0.851490 0.378073 0.597719
H3_4 H 0.151160 0.033788 0.145912
C7_4 C 0.1318(2) 0.0668(2) 0.24192(12)
N3_4 N 0.0341(2) 0.8723(2) 0.02604(11)
N5_4 N 0.1360(2) 0.9872(3) 0.04398(12)
C1_4 C 0.0811(2) 0.9986(3) 0.20196(12)
C2_4 C 0.0125(2) 0.9399(3) 0.21304(12)
C5_4 C 0.0582(2) 0.9357(3) 0.11521(12)
C6_4 C 0.1045(2) 0.9956(3) 0.15305(12)
C9_4 C 0.0780(2) 0.9308(3) 0.06246(13)
N4_4 N 0.1301(2) 0.9639(3) 0.99336(12)
C10_4 C 0.0699(2) 0.8934(3) 0.98426(13)
C11_4 C 0.0412(2) 0.8467(3) 0.93402(13)
C16_4 C 0.0636(3) 0.8039(4) 0.84885(15)
H6_4 H 0.098997 0.804803 0.823580
C17_4 C 0.0933(3) 0.8478(4) 0.89605(15)
H7_4 H 0.148510 0.878073 0.902281
H25_4 H 0.348840 0.033788 0.854088
C37_4 C 0.3682(2) 0.0668(2) 0.75808(12)
N2_4 N 0.6526(5) 0.3714(5) 0.1716(3)
O4_4 O 0.86435(19) 0.7541(2) 0.14873(10)
O7_4 O 0.7353(3) 0.4853(3) 0.14205(15)
H1_4 H 0.997323 0.941617 0.245682
C3_4 C 0.9665(2) 0.8787(2) 0.17525(12)
C4_4 C 0.9897(2) 0.8774(2) 0.12669(12)
H2_4 H 0.958979 0.836882 0.101354
C8_4 C 0.8928(2) 0.8110(2) 0.18524(12)
C23_4 C 0.6921(4) 0.4568(5) 0.1738(3)
H12_4 H 0.686958 0.498089 0.201217
C24_4 C 0.6578(7) 0.3072(7) 0.1266(5)
H13_4 H 0.705029 0.260831 0.135601
H14_4 H 0.602790 0.272758 0.116978
H15_4 H 0.668822 0.346695 0.098247
C25_4 C 0.5983(7) 0.3411(8) 0.2075(4)
H16_4 H 0.589538 0.395350 0.229318
H17_4 H 0.541992 0.319265 0.189206
H18_4 H 0.626734 0.288358 0.228162
N9_4 N 0.3699(2) 0.9639(3) 0.00664(12)
O12_4 O 0.69413(17) 0.6860(2) 0.09410(9)
C40_4 C 0.4301(2) 0.8934(3) 0.01574(13)
C41_4 C 0.4588(2) 0.8467(3) 0.06598(13)
C42_4 C 0.5408(2) 0.8007(3) 0.07570(12)
H26_4 H 0.575735 0.798990 0.050199
C43_4 C 0.5712(2) 0.7573(3) 0.12325(12)
C44_4 C 0.6595(2) 0.7080(2) 0.13181(12)
C45_4 C 0.5186(3) 0.7585(3) 0.16107(13)
H27_4 H 0.538341 0.729205 0.192831
C46_4 C 0.4364(3) 0.8039(4) 0.15115(15)
H28_4 H 0.401003 0.804803 0.176420
C47_4 C 0.4067(3) 0.8478(4) 0.10395(15)
H29_4 H 0.351490 0.878073 0.097719
H37_4 H 0.985299 0.823507 0.0291784
O5_4 O 0.80587(17) 0.6860(2) 0.90590(9)
C12_4 C 0.9592(2) 0.8007(3) 0.92430(12)
H4_4 H 0.924265 0.798990 0.949801
C13_4 C 0.9288(2) 0.7573(3) 0.87675(12)
C14_4 C 0.8405(2) 0.7080(2) 0.86819(12)
C15_4 C 0.9814(3) 0.7585(3) 0.83893(13)
H5_4 H 0.961659 0.729205 0.807169
N7_4 N 0.8474(5) 0.3714(5) 0.8284(3)
N8_4 N 0.4659(2) 0.8723(2) 0.97396(11)
N10_4 N 0.3640(2) 0.9872(3) 0.95602(12)
O11_4 O 0.63565(19) 0.7541(2) 0.85127(10)
O14_4 O 0.7647(3) 0.4853(3) 0.85795(15)
C31_4 C 0.4189(2) 0.9986(3) 0.79804(12)
C32_4 C 0.4875(2) 0.9399(3) 0.78696(12)
H23_4 H 0.502677 0.941617 0.754318
C33_4 C 0.5335(2) 0.8787(2) 0.82475(12)
C34_4 C 0.5103(2) 0.8774(2) 0.87331(12)
H24_4 H 0.541021 0.836882 0.898646
C35_4 C 0.4418(2) 0.9357(3) 0.88479(12)
C36_4 C 0.3955(2) 0.9956(3) 0.84695(12)
C38_4 C 0.6072(2) 0.8110(2) 0.81476(12)
C39_4 C 0.4220(2) 0.9308(3) 0.93754(13)
C48_4 C 0.8079(4) 0.4568(5) 0.8262(3)
H30_4 H 0.813042 0.498089 0.798783
C49_4 C 0.8422(7) 0.3072(7) 0.8734(5)
H31_4 H 0.794971 0.260831 0.864399
H32_4 H 0.897210 0.272758 0.883022
H33_4 H 0.831178 0.346695 0.901753
C50_4 C 0.9017(7) 0.3411(8) 0.7925(4)
H34_4 H 0.910462 0.395350 0.770682
H35_4 H 0.958008 0.319265 0.810794
H36_4 H 0.873266 0.288358 0.771838
H38_4 H 0.514701 0.823507 0.970822
loop_
_geom_bond_atom_site_label_1
_geom_bond_atom_site_label_2
_geom_bond_site_symmetry_1
_geom_bond_site_symmetry_2
N8 C39 1_555 1_555
N9 N10 1_555 1_555
N10 C39 1_555 1_555
O8 C37 1_555 1_555
O9 C37 1_555 1_555
C31 C32 1_555 1_555
C36 C31 1_555 1_555
H25 C36 1_555 1_555
C37 C31 1_555 1_555
C39 C35 1_555 1_555
C40 N8 1_555 1_555
C41 C40 1_555 1_555
H28 C46 1_555 1_555
C47 C41 1_555 1_555
H29 C47 1_555 1_555
Zn4 O9 1_555 1_555
Zn9 O8 1_555 1_555
N9 C40 1_555 1_555
C35 C36 1_555 1_555
C46 C47 1_555 1_555
N2 C23 1_555 1_555
H10 C21 1_555 1_555
C23 O7 1_555 1_555
H12 C23 1_555 1_555
C24 N2 1_555 1_555
H13 C24 1_555 1_555
H14 C24 1_555 1_555
H15 C24 1_555 1_555
C25 N2 1_555 1_555
H16 C25 1_555 1_555
H17 C25 1_555 1_555
H18 C25 1_555 1_555
N6 C26 1_555 1_555
C26 H19 1_555 1_555
C27 C26 1_555 1_555
H20 C27 1_555 1_555
C30 N6 1_555 1_555
N7 C48 1_555 1_555
C48 O14 1_555 1_555
H30 C48 1_555 1_555
C49 N7 1_555 1_555
H31 C49 1_555 1_555
H32 C49 1_555 1_555
H33 C49 1_555 1_555
C50 N7 1_555 1_555
H34 C50 1_555 1_555
H35 C50 1_555 1_555
H36 C50 1_555 1_555
Zn6 N6 1_555 1_555
C27 C28 1_555 1_555
Zn1 N1 1_555 1_555
Zn2 O6 1_555 1_555
N1 C18 1_555 1_555
N3 C9 1_555 1_555
N4 N5 1_555 1_555
N5 C9 1_555 1_555
O1 C7 1_555 1_555
O2 C7 1_555 1_555
O3 C8 1_555 1_555
O4 Zn1 1_555 1_555
O5 C14 1_555 1_555
O6 C14 1_555 1_555
C1 C2 1_555 1_555
C2 H1 1_555 1_555
C3 C2 1_555 1_555
C4 C3 1_555 1_555
H2 C4 1_555 1_555
C5 C4 1_555 1_555
C6 C1 1_555 1_555
H3 C6 1_555 1_555
C7 C1 1_555 1_555
C8 O4 1_555 1_555
C9 C5 1_555 1_555
C10 N3 1_555 1_555
C11 C10 1_555 1_555
C12 C11 1_555 1_555
H4 C12 1_555 1_555
C13 C12 1_555 1_555
C14 C13 1_555 1_555
C15 C13 1_555 1_555
H5 C15 1_555 1_555
C16 C15 1_555 1_555
H6 C16 1_555 1_555
C17 C11 1_555 1_555
H7 C17 1_555 1_555
C18 H8 1_555 1_555
C19 C18 1_555 1_555
H9 C19 1_555 1_555
C20 C19 1_555 1_555
C22 N1 1_555 1_555
H21 C29 1_555 1_555
Zn3 O5 1_555 1_555
O10 Zn2 1_555 1_555
O11 Zn3 1_555 1_555
O12 Zn1 1_555 1_555
O13 Zn1 1_555 1_555
C34 C33 1_555 1_555
H24 C34 1_555 1_555
C38 O10 1_555 1_555
H26 C42 1_555 1_555
C43 C42 1_555 1_555
C44 O12 1_555 1_555
C45 C43 1_555 1_555
H27 C45 1_555 1_555
Zn5 O2 1_555 1_555
Zn7 O3 1_555 1_555
Zn8 O1 1_555 1_555
N11 Zn3 1_555 1_555
O15 Zn2 1_555 1_555
O16 Zn2 1_555 1_555
O17 Zn3 1_555 1_555
O18 Zn1 1_555 1_555
O19 Zn2 1_555 1_555
O20 Zn2 1_555 1_555
N4 C10 1_555 1_555
O6 Zn3 1_555 1_555
C3 C8 1_555 1_555
C5 C6 1_555 1_555
C16 C17 1_555 1_555
O11 C38 1_555 1_555
O13 C44 1_555 1_555
O13 Zn7 1_555 1_555
C33 C38 1_555 1_555
C43 C44 1_555 1_555
N3 H37 1_555 1_555
N6_2 C26_2 1_555 1_555
C26_2 H19_2 1_555 1_555
C27_2 C26_2 1_555 1_555
H20_2 C27_2 1_555 1_555
C30_2 N6_2 1_555 1_555
Zn6_2 N6_2 1_555 1_555
C27_2 C28_2 1_555 1_555
N11 C18_2 1_555 1_555
C18_2 H8_2 1_555 1_555
C19_2 C18_2 1_555 1_555
H9_2 C19_2 1_555 1_555
C20_2 C19_2 1_555 1_555
C22_2 N11 1_555 1_555
O15_2 Zn7 1_555 1_555
O16_2 Zn7 1_555 1_555
O19_2 Zn7 1_555 1_555
O20_2 Zn7 1_555 1_555
Zn8 O6_2 1_555 1_555
O5_2 C14_2 1_555 1_555
O6_2 C14_2 1_555 1_555
H4_2 C12_2 1_555 1_555
C13_2 C12_2 1_555 1_555
C14_2 C13_2 1_555 1_555
C15_2 C13_2 1_555 1_555
H5_2 C15_2 1_555 1_555
Zn5 O5_2 1_555 1_555
N7_2 C48_2 1_555 1_555
N8_2 C39_2 1_555 1_555
N10_2 C39_2 1_555 1_555
O10_2 Zn8 1_555 1_555
O11_2 Zn5 1_555 1_555
O14_2 Zn5 1_555 1_555
C31_2 C32_2 1_555 1_555
C32_2 H23_2 1_555 1_555
C33_2 C32_2 1_555 1_555
C34_2 C33_2 1_555 1_555
H24_2 C34_2 1_555 1_555
C35_2 C34_2 1_555 1_555
C36_2 C31_2 1_555 1_555
C38_2 O10_2 1_555 1_555
C39_2 C35_2 1_555 1_555
C48_2 O14_2 1_555 1_555
H30_2 C48_2 1_555 1_555
C49_2 N7_2 1_555 1_555
H31_2 C49_2 1_555 1_555
H32_2 C49_2 1_555 1_555
H33_2 C49_2 1_555 1_555
C50_2 N7_2 1_555 1_555
H34_2 C50_2 1_555 1_555
H35_2 C50_2 1_555 1_555
H36_2 C50_2 1_555 1_555
N11_2 Zn5 1_555 1_555
O16_3 Zn8 1_555 1_555
O19_3 Zn8 1_555 1_555
O20_3 Zn8 1_555 1_555
O6_2 Zn5 1_555 1_555
O11_2 C38_2 1_555 1_555
C33_2 C38_2 1_555 1_555
C35_2 C36_2 1_555 1_555
N8_2 H38_2 1_555 1_555
Zn4 N1_2 1_555 1_555
N1_2 C18_3 1_555 1_555
N2_2 C23_2 1_555 1_555
O3_2 C8_2 1_555 1_555
O4_2 Zn4 1_555 1_555
O7_2 Zn4 1_555 1_555
C4_2 C3_2 1_555 1_555
H2_2 C4_2 1_555 1_555
C8_2 O4_2 1_555 1_555
C18_3 H8_3 1_555 1_555
C19_3 C18_3 1_555 1_555
C20_3 C19_3 1_555 1_555
C21_3 C20_3 1_555 1_555
C22_3 N1_2 1_555 1_555
H11_3 C22_3 1_555 1_555
C23_2 O7_2 1_555 1_555
H12_2 C23_2 1_555 1_555
C24_2 N2_2 1_555 1_555
H13_2 C24_2 1_555 1_555
H14_2 C24_2 1_555 1_555
H15_2 C24_2 1_555 1_555
C25_2 N2_2 1_555 1_555
H16_2 C25_2 1_555 1_555
H17_2 C25_2 1_555 1_555
H18_2 C25_2 1_555 1_555
O12_2 Zn4 1_555 1_555
O13_2 Zn4 1_555 1_555
C41_2 C40_2 1_555 1_555
C42_2 C41_2 1_555 1_555
H26_2 C42_2 1_555 1_555
C43_2 C42_2 1_555 1_555
C44_2 O12_2 1_555 1_555
C45_2 C43_2 1_555 1_555
H27_2 C45_2 1_555 1_555
C46_2 C45_2 1_555 1_555
H28_2 C46_2 1_555 1_555
C47_2 C41_2 1_555 1_555
H29_2 C47_2 1_555 1_555
Zn9 O3_2 1_555 1_555
C3_2 C8_2 1_555 1_555
C21_3 C22_3 1_555 1_555
N9_2 C40_2 1_555 1_555
O13_2 C44_2 1_555 1_555
O13_2 Zn9 1_555 1_555
C43_2 C44_2 1_555 1_555
C46_2 C47_2 1_555 1_555
O15_2 C37_2 1_555 1_555
O18 C37_2 1_555 1_555
C11_2 C10_2 1_555 1_555
H6_2 C16_2 1_555 1_555
C17_2 C11_2 1_555 1_555
H7_2 C17_2 1_555 1_555
N6_3 C26_3 1_555 1_555
C26_3 H19_3 1_555 1_555
C27_3 C26_3 1_555 1_555
C29_3 C28_3 1_555 1_555
C30_3 N6_3 1_555 1_555
H22_3 C30_3 1_555 1_555
Zn6_3 N6_3 1_555 1_555
N4_2 C10_2 1_555 1_555
C16_2 C17_2 1_555 1_555
C27_3 C28_3 1_555 1_555
C29_3 C30_3 1_555 1_555
N3_2 C9_2 1_555 1_555
N5_2 C9_2 1_555 1_555
C1_2 C2_2 1_555 1_555
C6_2 C1_2 1_555 1_555
C9_2 C5_2 1_555 1_555
C5_2 C6_2 1_555 1_555
O15 C7_2 1_555 1_555
O17 C7_2 1_555 1_555
N11_2 C18_4 1_555 1_555
C18_4 H8_4 1_555 1_555
C19_4 C18_4 1_555 1_555
C20_4 C19_4 1_555 1_555
C21_4 C20_4 1_555 1_555
H10_4 C21_4 1_555 1_555
C22_4 N11_2 1_555 1_555
H11_4 C22_4 1_555 1_555
C21_4 C22_4 1_555 1_555
N6_4 C26_4 1_555 1_555
C26_4 H19_4 1_555 1_555
C27_4 C26_4 1_555 1_555
C29_4 C28_4 1_555 1_555
H21_4 C29_4 1_555 1_555
C30_4 N6_4 1_555 1_555
H22_4 C30_4 1_555 1_555
Zn6_4 N6_4 1_555 1_555
O16_4 Zn9 1_555 1_555
O19_4 Zn9 1_555 1_555
O20_4 Zn9 1_555 1_555
C27_4 C28_4 1_555 1_555
C29_4 C30_4 1_555 1_555
N3_3 C9_3 1_555 1_555
N4_3 N5_3 1_555 1_555
N5_3 C9_3 1_555 1_555
O16 C7_3 1_555 1_555
O2_2 C7_3 1_555 1_555
O19_4 C8_3 1_555 1_555
O4_3 Zn6 1_555 1_555
O5_3 C14_3 1_555 1_555
O20_3 C14_3 1_555 1_555
C1_3 C2_3 1_555 1_555
C2_3 H1_3 1_555 1_555
C3_3 C2_3 1_555 1_555
C4_3 C3_3 1_555 1_555
H2_3 C4_3 1_555 1_555
C5_3 C4_3 1_555 1_555
C6_3 C1_3 1_555 1_555
H3_3 C6_3 1_555 1_555
C7_3 C1_3 1_555 1_555
C8_3 O4_3 1_555 1_555
C9_3 C5_3 1_555 1_555
C10_3 N3_3 1_555 1_555
C11_3 C10_3 1_555 1_555
C12_3 C11_3 1_555 1_555
H4_3 C12_3 1_555 1_555
C13_3 C12_3 1_555 1_555
C14_3 C13_3 1_555 1_555
C15_3 C13_3 1_555 1_555
H5_3 C15_3 1_555 1_555
C16_3 C15_3 1_555 1_555
H6_3 C16_3 1_555 1_555
C17_3 C11_3 1_555 1_555
H7_3 C17_3 1_555 1_555
Zn6_2 O5_3 1_555 1_555
O11_3 Zn6_2 1_555 1_555
O12_3 Zn6 1_555 1_555
O20_4 Zn6 1_555 1_555
C34_3 C33_3 1_555 1_555
H24_3 C34_3 1_555 1_555
C38_3 O19_3 1_555 1_555
H26_3 C42_3 1_555 1_555
C43_3 C42_3 1_555 1_555
C44_3 O12_3 1_555 1_555
C45_3 C43_3 1_555 1_555
H27_3 C45_3 1_555 1_555
Zn6_4 O2_2 1_555 1_555
O17_2 Zn6_2 1_555 1_555
O18_2 Zn6 1_555 1_555
N4_3 C10_3 1_555 1_555
O20_3 Zn6_2 1_555 1_555
C3_3 C8_3 1_555 1_555
C5_3 C6_3 1_555 1_555
C16_3 C17_3 1_555 1_555
O11_3 C38_3 1_555 1_555
O20_4 C44_3 1_555 1_555
C33_3 C38_3 1_555 1_555
C43_3 C44_3 1_555 1_555
N3_3 H37_3 1_555 1_555
N2_3 C23_3 1_555 1_555
C23_3 O7_3 1_555 1_555
H12_3 C23_3 1_555 1_555
C24_3 N2_3 1_555 1_555
H13_3 C24_3 1_555 1_555
H14_3 C24_3 1_555 1_555
H15_3 C24_3 1_555 1_555
C25_3 N2_3 1_555 1_555
H16_3 C25_3 1_555 1_555
H17_3 C25_3 1_555 1_555
H18_3 C25_3 1_555 1_555
N7_3 C48_3 1_555 1_555
C48_3 O14_3 1_555 1_555
H30_3 C48_3 1_555 1_555
C49_3 N7_3 1_555 1_555
H31_3 C49_3 1_555 1_555
H32_3 C49_3 1_555 1_555
H33_3 C49_3 1_555 1_555
C50_3 N7_3 1_555 1_555
H34_3 C50_3 1_555 1_555
H35_3 C50_3 1_555 1_555
H36_3 C50_3 1_555 1_555
N8_3 C39_3 1_555 1_555
N9_3 N10_3 1_555 1_555
N10_3 C39_3 1_555 1_555
O16_2 C37_3 1_555 1_555
O9_2 C37_3 1_555 1_555
C31_3 C32_3 1_555 1_555
C36_3 C31_3 1_555 1_555
H25_3 C36_3 1_555 1_555
C37_3 C31_3 1_555 1_555
C39_3 C35_3 1_555 1_555
C40_3 N8_3 1_555 1_555
C41_3 C40_3 1_555 1_555
H28_3 C46_3 1_555 1_555
C47_3 C41_3 1_555 1_555
H29_3 C47_3 1_555 1_555
Zn6_3 O9_2 1_555 1_555
N9_3 C40_3 1_555 1_555
C35_3 C36_3 1_555 1_555
C46_3 C47_3 1_555 1_555
O16_3 C7_4 1_555 1_555
O17_2 C7_4 1_555 1_555
N3_4 C9_4 1_555 1_555
N5_4 C9_4 1_555 1_555
C1_4 C2_4 1_555 1_555
C6_4 C1_4 1_555 1_555
C9_4 C5_4 1_555 1_555
C5_4 C6_4 1_555 1_555
C11_4 C10_4 1_555 1_555
H6_4 C16_4 1_555 1_555
C17_4 C11_4 1_555 1_555
H7_4 C17_4 1_555 1_555
N4_4 C10_4 1_555 1_555
C16_4 C17_4 1_555 1_555
O16_4 C37_4 1_555 1_555
O18_2 C37_4 1_555 1_555
N2_4 C23_4 1_555 1_555
O19_2 C8_4 1_555 1_555
O4_4 Zn6_3 1_555 1_555
O7_4 Zn6_3 1_555 1_555
C4_4 C3_4 1_555 1_555
H2_4 C4_4 1_555 1_555
C8_4 O4_4 1_555 1_555
C23_4 O7_4 1_555 1_555
H12_4 C23_4 1_555 1_555
C24_4 N2_4 1_555 1_555
H13_4 C24_4 1_555 1_555
H14_4 C24_4 1_555 1_555
H15_4 C24_4 1_555 1_555
C25_4 N2_4 1_555 1_555
H16_4 C25_4 1_555 1_555
H17_4 C25_4 1_555 1_555
H18_4 C25_4 1_555 1_555
O12_4 Zn6_3 1_555 1_555
O20_2 Zn6_3 1_555 1_555
C41_4 C40_4 1_555 1_555
C42_4 C41_4 1_555 1_555
H26_4 C42_4 1_555 1_555
C43_4 C42_4 1_555 1_555
C44_4 O12_4 1_555 1_555
C45_4 C43_4 1_555 1_555
H27_4 C45_4 1_555 1_555
C46_4 C45_4 1_555 1_555
H28_4 C46_4 1_555 1_555
C47_4 C41_4 1_555 1_555
H29_4 C47_4 1_555 1_555
C3_4 C8_4 1_555 1_555
N9_4 C40_4 1_555 1_555
O20_2 C44_4 1_555 1_555
C43_4 C44_4 1_555 1_555
C46_4 C47_4 1_555 1_555
O5_4 C14_4 1_555 1_555
O20 C14_4 1_555 1_555
H4_4 C12_4 1_555 1_555
C13_4 C12_4 1_555 1_555
C14_4 C13_4 1_555 1_555
C15_4 C13_4 1_555 1_555
H5_4 C15_4 1_555 1_555
Zn6_4 O5_4 1_555 1_555
N7_4 C48_4 1_555 1_555
N8_4 C39_4 1_555 1_555
N10_4 C39_4 1_555 1_555
O11_4 Zn6_4 1_555 1_555
O14_4 Zn6_4 1_555 1_555
C31_4 C32_4 1_555 1_555
C32_4 H23_4 1_555 1_555
C33_4 C32_4 1_555 1_555
C34_4 C33_4 1_555 1_555
H24_4 C34_4 1_555 1_555
C35_4 C34_4 1_555 1_555
C36_4 C31_4 1_555 1_555
C38_4 O19 1_555 1_555
C39_4 C35_4 1_555 1_555
C48_4 O14_4 1_555 1_555
H30_4 C48_4 1_555 1_555
C49_4 N7_4 1_555 1_555
H31_4 C49_4 1_555 1_555
H32_4 C49_4 1_555 1_555
H33_4 C49_4 1_555 1_555
C50_4 N7_4 1_555 1_555
H34_4 C50_4 1_555 1_555
H35_4 C50_4 1_555 1_555
H36_4 C50_4 1_555 1_555
O20 Zn6_4 1_555 1_555
O11_4 C38_4 1_555 1_555
C33_4 C38_4 1_555 1_555
C35_4 C36_4 1_555 1_555
N8_4 H38_4 1_555 1_555

#END
