
###############################################################################
#
# This file contains modified crystal structure data generated from the
# MOF subset of the Cambridge Structural Database (CSD) v543 
# hosted by the Cambridge Crystallographic Data Centre (CCDC).
#
# This work is licensed under the Creative Commons
# Attribution-NonCommercial-ShareAlike 4.0 International License.
# To view a copy of this license, visit
# http://creativecommons.org/licenses/by-nc-sa/4.0/
# or send a letter to
# Creative Commons, PO Box 1866, Mountain View, CA 94042, USA.
#
# CIF created using the CSD Python API on 29 September 2022
# The structure has been converted into the P1 space group
# The structure has a 3D framework
# The original CSD entry HEHTUM is in the monoclinic crystal system
# The framework has been calculated to contain at least 10.0% void space
# The void calculation uses a probe of radius 1.32A, grid spacing 0.4
# H atom positions have been added when not included in the experimental data
#
###############################################################################

data_HEHTUM
_chemical_formula_moiety         '(C200 H152 N40 O56 Zn10)n'
_symmetry_cell_setting           triclinic
_symmetry_space_group_name_H-M   'P 1'
_symmetry_Int_Tables_number      1
_space_group_name_Hall           'P 1'
loop_
_symmetry_equiv_pos_site_id
_symmetry_equiv_pos_as_xyz
1 x,y,z
_cell_length_a                   28.277(6)
_cell_length_b                   13.611(3)
_cell_length_c                   15.438(3)
_cell_angle_alpha                90
_cell_angle_beta                 112.70(3)
_cell_angle_gamma                90
_cell_volume                     5481.49
loop_
_atom_site_label
_atom_site_type_symbol
_atom_site_fract_x
_atom_site_fract_y
_atom_site_fract_z
O7 O 0.1424(2) 0.0169(4) 0.4069(4)
N4 N 0.1741(5) 0.1314(7) 0.5197(8)
C21 C 0.0674(3) 0.0265(7) 0.0804(6)
H10 H 0.0754 0.0753 0.0460
H11 H 0.1359 0.0274 0.1881
C23 C 0.1748(4) 0.0429(7) 0.4834(8)
C24 C 0.1266(9) 0.1986(11) 0.4625(14)
C25 C 0.2118(6) 0.1576(12) 0.6137(9)
H24 H 0.0913405 0.162206 0.457491
H25 H 0.129997 0.268716 0.498391
H26 H 0.12578 0.211116 0.392262
H28 H 0.250355 0.15213 0.61434
H29 H 0.204884 0.23255 0.630556
H30 H 0.207995 0.107464 0.665606
H13 H 0.0189 0.1215 0.9221
Zn1 Zn 0.15142(2) 0.88192(4) 0.34351(4)
Zn2 Zn 0.2500 0.7500 0.5000
O1 O 0.17716(12) 0.8154(3) 0.4789(2)
O2 O 0.09429(13) 0.8147(3) 0.3991(3)
N3 N 0.00725(18) 0.5371(4) 0.6374(4)
N5 N 0.09530(17) 0.9289(4) 0.2186(3)
C1 C 0.1316(2) 0.7927(4) 0.4710(4)
C2 C 0.12356(19) 0.7425(4) 0.5506(4)
C3 C 0.1611(2) 0.7410(4) 0.6404(4)
H1 H 0.1928 0.7696 0.6521
C4 C 0.1516(2) 0.6972(6) 0.7135(5)
H2 H 0.1763 0.6995 0.7743
C5 C 0.1057(2) 0.6504(5) 0.6958(4)
H3 H 0.1006 0.6165 0.7438
C6 C 0.0664(2) 0.6535(4) 0.6062(4)
C7 C 0.0760(2) 0.6999(4) 0.5338(4)
H4 H 0.0504 0.7023 0.4738
C8 C 0.0162(2) 0.6072(5) 0.5850(4)
C18 C 0.0503(2) 0.8849(6) 0.1828(5)
H8 H 0.0439 0.8333 0.2163
C19 C 0.0124(2) 0.9113(6) 0.0988(5)
C20 C 0.0201(2) 0.9843(5) 0.0461(4)
C22 C 0.1039(3) 0.9972(7) 0.1665(5)
O10 O 0.28608(14) 0.4386(3) 0.1712(3)
O11 O 0.22684(13) 0.3791(3) 0.0385(3)
O12 O 0.22675(13) 0.6840(3) 0.3618(3)
O13 O 0.14908(14) 0.7464(3) 0.2848(3)
C40 C 0.1153(2) 0.5653(4) 0.0568(4)
C41 C 0.1530(2) 0.5063(4) 0.0480(4)
C42 C 0.2015(2) 0.5026(4) 0.1187(4)
C43 C 0.2126(2) 0.5612(4) 0.1996(4)
H21 H 0.2452 0.5593 0.2472
C44 C 0.17491(19) 0.6219(4) 0.2085(4)
C45 C 0.1267(2) 0.6232(4) 0.1365(4)
H22 H 0.1014 0.6636 0.1417
C46 C 0.2415(2) 0.4340(4) 0.1090(4)
C47 C 0.1851(2) 0.6890(4) 0.2927(4)
Zn5 Zn 0.34858(2) 0.38192(4) 0.15649(4)
Zn9 Zn 0.2500 0.2500 0.0000
O15 O 0.32284(12) 0.6846(3) 0.5211(2)
O16 O 0.21392(14) 0.9386(3) 0.3288(3)
O18 O 0.27316(13) 0.8791(3) 0.4615(3)
O19 O 0.22684(13) 0.6209(3) 0.5385(3)
O20 O 0.27325(13) 0.8160(3) 0.6382(3)
H27 H 0.20505 0.99161 0.522623
H31 H 0.0289611 0.677668 0.0446431
N7 N 0.02569(16) 0.6289(3) 0.9929(3)
N8 N 0.04433(18) 0.5145(4) 0.9079(3)
C39 C 0.0621(2) 0.5694(4) 0.9846(4)
H20 H 0.1457 0.4686 0.9942
Zn9_2 Zn 0.2500 0.2500 1.0000
O14 O 0.8576(2) 0.0169(4) 0.0931(4)
C48 C 0.8252(4) 0.0429(7) 0.0166(8)
C49 C 0.8734(9) 0.1986(11) 0.0375(14)
H36 H 0.908659 0.162206 0.0425095
H37 H 0.870003 0.268716 0.00160947
H38 H 0.87422 0.211116 0.107738
N6 N 0.90470(17) 0.0711(4) 0.7814(3)
C26 C 0.9497(2) 0.1151(6) 0.8172(5)
H12 H 0.9561 0.1667 0.7837
C27 C 0.9876(2) 0.0887(6) 0.9012(5)
C28 C 0.9799(2) 0.0157(5) 0.9539(4)
C30 C 0.8961(3) 0.0028(7) 0.8335(5)
N10 N 0.8259(5) 0.1314(7) 0.9803(8)
C50 C 0.7882(6) 0.1576(12) 0.8863(9)
Zn6 Zn 0.84858(2) 0.11808(4) 0.65649(4)
H32 H 0.749645 0.15213 0.88566
H33 H 0.795116 0.23255 0.869444
H34 H 0.792005 0.107464 0.834394
O3 O 0.71392(14) 0.4386(3) 0.3288(3)
O4 O 0.77316(13) 0.3791(3) 0.4615(3)
O5 O 0.77325(13) 0.6840(3) 0.1382(3)
O6 O 0.85092(14) 0.7464(3) 0.2152(3)
N1 N 0.97431(16) 0.6289(3) 0.5071(3)
N2 N 0.95567(18) 0.5145(4) 0.5921(3)
C9 C 0.9379(2) 0.5694(4) 0.5154(4)
C10 C 0.8847(2) 0.5653(4) 0.4432(4)
C11 C 0.8470(2) 0.5063(4) 0.4520(4)
H5 H 0.8543 0.4686 0.5058
C12 C 0.7985(2) 0.5026(4) 0.3813(4)
C13 C 0.7874(2) 0.5612(4) 0.3004(4)
H6 H 0.7548 0.5593 0.2528
C14 C 0.82509(19) 0.6219(4) 0.2915(4)
C15 C 0.8733(2) 0.6232(4) 0.3635(4)
H7 H 0.8986 0.6636 0.3583
C16 C 0.7585(2) 0.4340(4) 0.3910(4)
C17 C 0.8149(2) 0.6890(4) 0.2073(4)
H9 H 0.9811 0.8785 0.0779
Zn3 Zn 0.84858(2) 0.88192(4) 0.15649(4)
O8 O 0.82284(12) 0.8154(3) 0.0211(2)
O9 O 0.90571(13) 0.8147(3) 0.1009(3)
C31 C 0.8684(2) 0.7927(4) 0.0290(4)
H19 H 0.9496 0.7023 0.0262
Zn4 Zn 0.65142(2) 0.38192(4) 0.34351(4)
Zn7 Zn 0.7500 0.7500 0.0000
Zn8 Zn 0.7500 0.2500 0.5000
O17 O 0.78608(14) 0.9386(3) 0.1712(3)
N11 N 0.90470(17) 0.9289(4) 0.2814(3)
H23 H 0.971039 0.677668 0.455357
C29 C 0.9326(3) 0.9735(7) 0.9196(6)
H14 H 0.9246 0.9247 0.9540
H15 H 0.8641 0.9726 0.8119
N9 N 0.99275(18) 0.5371(4) 0.8626(4)
C32 C 0.87644(19) 0.7425(4) 0.9494(4)
C33 C 0.8389(2) 0.7410(4) 0.8596(4)
H16 H 0.8072 0.7696 0.8479
C34 C 0.8484(2) 0.6972(6) 0.7865(5)
H17 H 0.8237 0.6995 0.7257
C35 C 0.8943(2) 0.6504(5) 0.8042(4)
H18 H 0.8994 0.6165 0.7562
C36 C 0.9336(2) 0.6535(4) 0.8938(4)
C37 C 0.9240(2) 0.6999(4) 0.9662(4)
C38 C 0.9838(2) 0.6072(5) 0.9150(4)
Zn7_2 Zn 0.7500 0.7500 1.0000
H35 H 0.79495 0.99161 0.977377
N6_2 N 0.09530(17) 0.0711(4) 0.7186(3)
C26_2 C 0.0503(2) 0.1151(6) 0.6828(5)
H12_2 H 0.0439 0.1667 0.7163
C27_2 C 0.0124(2) 0.0887(6) 0.5988(5)
C28_2 C 0.0201(2) 0.0157(5) 0.5461(4)
C30_2 C 0.1039(3) 0.0028(7) 0.6665(5)
Zn6_2 Zn 0.15142(2) 0.11808(4) 0.84351(4)
H9_2 H 0.0189 0.8785 0.4221
C29_2 C 0.0674(3) 0.9735(7) 0.5804(6)
H14_2 H 0.0754 0.9247 0.5460
H15_2 H 0.1359 0.9726 0.6881
C21_2 C 0.9326(3) 0.0265(7) 0.4196(6)
H10_2 H 0.9246 0.0753 0.4540
H11_2 H 0.8641 0.0274 0.3119
H13_2 H 0.9811 0.1215 0.5779
C18_2 C 0.9497(2) 0.8849(6) 0.3172(5)
H8_2 H 0.9561 0.8333 0.2837
C19_2 C 0.9876(2) 0.9113(6) 0.4012(5)
C20_2 C 0.9799(2) 0.9843(5) 0.4539(4)
C22_2 C 0.8961(3) 0.9972(7) 0.3335(5)
O18_2 O 0.72684(13) 0.8791(3) 0.0385(3)
O15_2 O 0.67716(12) 0.6846(3) 0.9789(2)
O19_2 O 0.77316(13) 0.6209(3) 0.9615(3)
O20_2 O 0.72675(13) 0.8160(3) 0.8618(3)
O1_2 O 0.67716(12) 0.3154(3) 0.4789(2)
O2_2 O 0.59429(13) 0.3147(3) 0.3991(3)
O5_2 O 0.27325(13) 0.1840(3) 0.1382(3)
O6_2 O 0.35092(14) 0.2464(3) 0.2152(3)
O7_2 O 0.6424(2) 0.5169(4) 0.4069(4)
N1_2 N 0.47431(16) 0.1289(3) 0.5071(3)
N2_2 N 0.45567(18) 0.0145(4) 0.5921(3)
N3_2 N 0.50725(18) 0.0371(4) 0.6374(4)
N4_2 N 0.6741(5) 0.6314(7) 0.5197(8)
N5_2 N 0.59530(17) 0.4289(4) 0.2186(3)
C1_2 C 0.6316(2) 0.2927(4) 0.4710(4)
C2_2 C 0.62356(19) 0.2425(4) 0.5506(4)
C3_2 C 0.6611(2) 0.2410(4) 0.6404(4)
H1_2 H 0.6928 0.2696 0.6521
C4_2 C 0.6516(2) 0.1972(6) 0.7135(5)
H2_2 H 0.6763 0.1995 0.7743
C5_2 C 0.6057(2) 0.1504(5) 0.6958(4)
H3_2 H 0.6006 0.1165 0.7438
C6_2 C 0.5664(2) 0.1535(4) 0.6062(4)
C7_2 C 0.5760(2) 0.1999(4) 0.5338(4)
H4_2 H 0.5504 0.2023 0.4738
C8_2 C 0.5162(2) 0.1072(5) 0.5850(4)
C9_2 C 0.4379(2) 0.0694(4) 0.5154(4)
C10_2 C 0.3847(2) 0.0653(4) 0.4432(4)
C11_2 C 0.3470(2) 0.0063(4) 0.4520(4)
C12_2 C 0.2985(2) 0.0026(4) 0.3813(4)
C13_2 C 0.2874(2) 0.0612(4) 0.3004(4)
H6_2 H 0.2548 0.0593 0.2528
C14_2 C 0.32509(19) 0.1219(4) 0.2915(4)
C15_2 C 0.3733(2) 0.1232(4) 0.3635(4)
H7_2 H 0.3986 0.1636 0.3583
C17_2 C 0.3149(2) 0.1890(4) 0.2073(4)
C18_3 C 0.5503(2) 0.3849(6) 0.1828(5)
H8_3 H 0.5439 0.3333 0.2163
C19_3 C 0.5124(2) 0.4113(6) 0.0988(5)
H9_3 H 0.4811 0.3785 0.0779
C20_3 C 0.5201(2) 0.4843(5) 0.0461(4)
C21_3 C 0.5674(3) 0.5265(7) 0.0804(6)
H10_3 H 0.5754 0.5753 0.0460
C22_3 C 0.6039(3) 0.4972(7) 0.1665(5)
H11_3 H 0.6359 0.5274 0.1881
C23_2 C 0.6748(4) 0.5429(7) 0.4834(8)
C24_2 C 0.6266(9) 0.6986(11) 0.4625(14)
C25_2 C 0.7118(6) 0.6576(12) 0.6137(9)
O8_2 O 0.32284(12) 0.3154(3) 0.0211(2)
O9_2 O 0.40571(13) 0.3147(3) 0.1009(3)
O12_2 O 0.72675(13) 0.1840(3) 0.3618(3)
O13_2 O 0.64908(14) 0.2464(3) 0.2848(3)
O14_2 O 0.3576(2) 0.5169(4) 0.0931(4)
C31_2 C 0.3684(2) 0.2927(4) 0.0290(4)
H19_2 H 0.4496 0.2023 0.0262
C40_2 C 0.6153(2) 0.0653(4) 0.0568(4)
C41_2 C 0.6530(2) 0.0063(4) 0.0480(4)
C42_2 C 0.7015(2) 0.0026(4) 0.1187(4)
C43_2 C 0.7126(2) 0.0612(4) 0.1996(4)
H21_2 H 0.7452 0.0593 0.2472
C44_2 C 0.67491(19) 0.1219(4) 0.2085(4)
C45_2 C 0.6267(2) 0.1232(4) 0.1365(4)
H22_2 H 0.6014 0.1636 0.1417
C47_2 C 0.6851(2) 0.1890(4) 0.2927(4)
C48_2 C 0.3252(4) 0.5429(7) 0.0166(8)
C49_2 C 0.3734(9) 0.6986(11) 0.0375(14)
O15_3 O 0.82284(12) 0.1846(3) 0.5211(2)
O19_3 O 0.72684(13) 0.1209(3) 0.5385(3)
O20_3 O 0.77325(13) 0.3160(3) 0.6382(3)
N11_2 N 0.40470(17) 0.4289(4) 0.2814(3)
H23_2 H 0.471039 0.177668 0.455357
H24_2 H 0.591341 0.662206 0.457491
H25_2 H 0.629997 0.768716 0.498391
H26_2 H 0.62578 0.711116 0.392262
H27_2 H 0.70505 0.49161 0.522623
H28_2 H 0.750355 0.65213 0.61434
H29_2 H 0.704884 0.73255 0.630556
H30_2 H 0.707995 0.607464 0.665606
H31_2 H 0.528961 0.177668 0.0446431
H36_2 H 0.408659 0.662206 0.0425095
H37_2 H 0.370003 0.768716 0.00160947
H38_2 H 0.37422 0.711116 0.107738
N6_3 N 0.40470(17) 0.5711(4) 0.7814(3)
C26_3 C 0.4497(2) 0.6151(6) 0.8172(5)
H12_3 H 0.4561 0.6667 0.7837
C27_3 C 0.4876(2) 0.5887(6) 0.9012(5)
H13_3 H 0.5189 0.6215 0.9221
C28_3 C 0.4799(2) 0.5157(5) 0.9539(4)
C29_3 C 0.4326(3) 0.4735(7) 0.9196(6)
H14_3 H 0.4246 0.4247 0.9540
C30_3 C 0.3961(3) 0.5028(7) 0.8335(5)
H15_3 H 0.3641 0.4726 0.8119
N7_2 N 0.52569(16) 0.1289(3) 0.9929(3)
N8_2 N 0.54433(18) 0.0145(4) 0.9079(3)
N9_2 N 0.49275(18) 0.0371(4) 0.8626(4)
N10_2 N 0.3259(5) 0.6314(7) 0.9803(8)
C32_2 C 0.37644(19) 0.2425(4) 0.9494(4)
C33_2 C 0.3389(2) 0.2410(4) 0.8596(4)
H16_2 H 0.3072 0.2696 0.8479
C34_2 C 0.3484(2) 0.1972(6) 0.7865(5)
H17_2 H 0.3237 0.1995 0.7257
C35_2 C 0.3943(2) 0.1504(5) 0.8042(4)
H18_2 H 0.3994 0.1165 0.7562
C36_2 C 0.4336(2) 0.1535(4) 0.8938(4)
C37_2 C 0.4240(2) 0.1999(4) 0.9662(4)
C38_2 C 0.4838(2) 0.1072(5) 0.9150(4)
C39_2 C 0.5621(2) 0.0694(4) 0.9846(4)
C50_2 C 0.2882(6) 0.6576(12) 0.8863(9)
Zn6_3 Zn 0.34858(2) 0.61808(4) 0.65649(4)
H32_2 H 0.249645 0.65213 0.88566
H33_2 H 0.295116 0.73255 0.869444
H34_2 H 0.292005 0.607464 0.834394
H35_2 H 0.29495 0.49161 0.977377
H5_2 H 0.3543 0.9686 0.5058
C16_2 C 0.2585(2) 0.9340(4) 0.3910(4)
C46_2 C 0.7415(2) 0.9340(4) 0.1090(4)
H20_2 H 0.6457 0.9686 0.9942
C18_4 C 0.4497(2) 0.3849(6) 0.3172(5)
H8_4 H 0.4561 0.3333 0.2837
C19_4 C 0.4876(2) 0.4113(6) 0.4012(5)
H9_4 H 0.5189 0.3785 0.4221
C20_4 C 0.4799(2) 0.4843(5) 0.4539(4)
C21_4 C 0.4326(3) 0.5265(7) 0.4196(6)
H10_4 H 0.4246 0.5753 0.4540
C22_4 C 0.3961(3) 0.4972(7) 0.3335(5)
H11_4 H 0.3641 0.5274 0.3119
N6_4 N 0.59530(17) 0.5711(4) 0.7186(3)
C26_4 C 0.5503(2) 0.6151(6) 0.6828(5)
H12_4 H 0.5439 0.6667 0.7163
C27_4 C 0.5124(2) 0.5887(6) 0.5988(5)
H13_4 H 0.4811 0.6215 0.5779
C28_4 C 0.5201(2) 0.5157(5) 0.5461(4)
C29_4 C 0.5674(3) 0.4735(7) 0.5804(6)
H14_4 H 0.5754 0.4247 0.5460
C30_4 C 0.6039(3) 0.5028(7) 0.6665(5)
H15_4 H 0.6359 0.4726 0.6881
Zn6_4 Zn 0.65142(2) 0.61808(4) 0.84351(4)
O15_4 O 0.17716(12) 0.1846(3) 0.9789(2)
O19_4 O 0.27316(13) 0.1209(3) 0.9615(3)
O20_4 O 0.22675(13) 0.3160(3) 0.8618(3)
N9_3 N 0.00725(18) 0.4629(4) 0.1374(4)
C32_3 C 0.12356(19) 0.2575(4) 0.0506(4)
C33_3 C 0.1611(2) 0.2590(4) 0.1404(4)
H16_3 H 0.1928 0.2304 0.1521
C34_3 C 0.1516(2) 0.3028(6) 0.2135(5)
H17_3 H 0.1763 0.3005 0.2743
C35_3 C 0.1057(2) 0.3496(5) 0.1958(4)
H18_3 H 0.1006 0.3835 0.2438
C36_3 C 0.0664(2) 0.3465(4) 0.1062(4)
C37_3 C 0.0760(2) 0.3001(4) 0.0338(4)
C38_3 C 0.0162(2) 0.3928(5) 0.0850(4)
H35_3 H 0.20505 0.00838965 0.0226228
O3_2 O 0.28608(14) 0.5614(3) 0.6712(3)
O6_3 O 0.14908(14) 0.2536(3) 0.7848(3)
N1_3 N 0.02569(16) 0.3711(3) 0.4929(3)
N2_3 N 0.04433(18) 0.4855(4) 0.4079(3)
C9_3 C 0.0621(2) 0.4306(4) 0.4846(4)
C10_3 C 0.1153(2) 0.4347(4) 0.5568(4)
C11_3 C 0.1530(2) 0.4937(4) 0.5480(4)
H5_3 H 0.1457 0.5314 0.4942
C12_3 C 0.2015(2) 0.4974(4) 0.6187(4)
C13_3 C 0.2126(2) 0.4388(4) 0.6996(4)
H6_3 H 0.2452 0.4407 0.7472
C14_3 C 0.17491(19) 0.3781(4) 0.7085(4)
C15_3 C 0.1267(2) 0.3768(4) 0.6365(4)
H7_3 H 0.1014 0.3364 0.6417
C16_3 C 0.2415(2) 0.5660(4) 0.6090(4)
C17_3 C 0.1851(2) 0.3110(4) 0.7927(4)
O9_3 O 0.09429(13) 0.1853(3) 0.8991(3)
C31_3 C 0.1316(2) 0.2073(4) 0.9710(4)
H19_3 H 0.0504 0.2977 0.9738
O17_2 O 0.21392(14) 0.0614(3) 0.8288(3)
H23_3 H 0.0289611 0.322332 0.544643
N10_3 N 0.1741(5) 0.8686(7) 0.0197(8)
C50_3 C 0.2118(6) 0.8424(12) 0.1137(9)
H32_3 H 0.250355 0.84787 0.11434
H33_3 H 0.204884 0.76745 0.130556
H34_3 H 0.207995 0.892536 0.165606
O14_3 O 0.1424(2) 0.9831(4) 0.9069(4)
C48_3 C 0.1748(4) 0.9571(7) 0.9834(8)
C49_3 C 0.1266(9) 0.8014(11) 0.9625(14)
H36_3 H 0.0913405 0.837794 0.957491
H37_3 H 0.129997 0.731284 0.998391
H38_3 H 0.12578 0.788884 0.892262
N7_3 N 0.97431(16) 0.3711(3) 0.0071(3)
N8_3 N 0.95567(18) 0.4855(4) 0.0921(3)
C39_3 C 0.9379(2) 0.4306(4) 0.0154(4)
H20_3 H 0.8543 0.5314 0.0058
O2_3 O 0.90571(13) 0.1853(3) 0.6009(3)
N3_3 N 0.99275(18) 0.4629(4) 0.3626(4)
C1_3 C 0.8684(2) 0.2073(4) 0.5290(4)
C2_3 C 0.87644(19) 0.2575(4) 0.4494(4)
C3_3 C 0.8389(2) 0.2590(4) 0.3596(4)
H1_3 H 0.8072 0.2304 0.3479
C4_3 C 0.8484(2) 0.3028(6) 0.2865(5)
H2_3 H 0.8237 0.3005 0.2257
C5_3 C 0.8943(2) 0.3496(5) 0.3042(4)
H3_3 H 0.8994 0.3835 0.2562
C6_3 C 0.9336(2) 0.3465(4) 0.3938(4)
C7_3 C 0.9240(2) 0.3001(4) 0.4662(4)
H4_3 H 0.9496 0.2977 0.5262
C8_3 C 0.9838(2) 0.3928(5) 0.4150(4)
O10_2 O 0.71392(14) 0.5614(3) 0.8288(3)
O13_3 O 0.85092(14) 0.2536(3) 0.7152(3)
C40_3 C 0.8847(2) 0.4347(4) 0.9432(4)
C41_3 C 0.8470(2) 0.4937(4) 0.9520(4)
C42_3 C 0.7985(2) 0.4974(4) 0.8813(4)
C43_3 C 0.7874(2) 0.4388(4) 0.8004(4)
H21_3 H 0.7548 0.4407 0.7528
C44_3 C 0.82509(19) 0.3781(4) 0.7915(4)
C45_3 C 0.8733(2) 0.3768(4) 0.8635(4)
H22_3 H 0.8986 0.3364 0.8583
C46_3 C 0.7585(2) 0.5660(4) 0.8910(4)
C47_3 C 0.8149(2) 0.3110(4) 0.7073(4)
O16_2 O 0.78608(14) 0.0614(3) 0.6712(3)
H27_3 H 0.79495 0.00838965 0.477377
H31_3 H 0.971039 0.322332 0.955357
O7_3 O 0.8576(2) 0.9831(4) 0.5931(4)
N4_3 N 0.8259(5) 0.8686(7) 0.4803(8)
C23_3 C 0.8252(4) 0.9571(7) 0.5166(8)
C24_3 C 0.8734(9) 0.8014(11) 0.5375(14)
C25_3 C 0.7882(6) 0.8424(12) 0.3863(9)
H24_3 H 0.908659 0.837794 0.542509
H25_3 H 0.870003 0.731284 0.501609
H26_3 H 0.87422 0.788884 0.607738
H28_3 H 0.749645 0.84787 0.38566
H29_3 H 0.795116 0.76745 0.369444
H30_3 H 0.792005 0.892536 0.334394
H20_4 H 0.3543 0.0314 0.0058
H5_4 H 0.6457 0.0314 0.4942
C16_4 C 0.7415(2) 0.0660(4) 0.6090(4)
C46_4 C 0.2585(2) 0.0660(4) 0.8910(4)
N7_4 N 0.47431(16) 0.8711(3) 0.0071(3)
N8_4 N 0.45567(18) 0.9855(4) 0.0921(3)
N9_4 N 0.50725(18) 0.9629(4) 0.1374(4)
N10_4 N 0.6741(5) 0.3686(7) 0.0197(8)
C32_4 C 0.62356(19) 0.7575(4) 0.0506(4)
C33_4 C 0.6611(2) 0.7590(4) 0.1404(4)
H16_4 H 0.6928 0.7304 0.1521
C34_4 C 0.6516(2) 0.8028(6) 0.2135(5)
H17_4 H 0.6763 0.8005 0.2743
C35_4 C 0.6057(2) 0.8496(5) 0.1958(4)
H18_4 H 0.6006 0.8835 0.2438
C36_4 C 0.5664(2) 0.8465(4) 0.1062(4)
C37_4 C 0.5760(2) 0.8001(4) 0.0338(4)
C38_4 C 0.5162(2) 0.8928(5) 0.0850(4)
C39_4 C 0.4379(2) 0.9306(4) 0.0154(4)
C50_4 C 0.7118(6) 0.3424(12) 0.1137(9)
H32_4 H 0.750355 0.34787 0.11434
H33_4 H 0.704884 0.26745 0.130556
H34_4 H 0.707995 0.392536 0.165606
H35_4 H 0.70505 0.50839 0.0226228
O2_4 O 0.40571(13) 0.6853(3) 0.6009(3)
O6_4 O 0.64908(14) 0.7536(3) 0.7848(3)
O7_4 O 0.3576(2) 0.4831(4) 0.5931(4)
N1_4 N 0.52569(16) 0.8711(3) 0.4929(3)
N2_4 N 0.54433(18) 0.9855(4) 0.4079(3)
N3_4 N 0.49275(18) 0.9629(4) 0.3626(4)
N4_4 N 0.3259(5) 0.3686(7) 0.4803(8)
C1_4 C 0.3684(2) 0.7073(4) 0.5290(4)
C2_4 C 0.37644(19) 0.7575(4) 0.4494(4)
C3_4 C 0.3389(2) 0.7590(4) 0.3596(4)
H1_4 H 0.3072 0.7304 0.3479
C4_4 C 0.3484(2) 0.8028(6) 0.2865(5)
H2_4 H 0.3237 0.8005 0.2257
C5_4 C 0.3943(2) 0.8496(5) 0.3042(4)
H3_4 H 0.3994 0.8835 0.2562
C6_4 C 0.4336(2) 0.8465(4) 0.3938(4)
C7_4 C 0.4240(2) 0.8001(4) 0.4662(4)
H4_4 H 0.4496 0.7977 0.5262
C8_4 C 0.4838(2) 0.8928(5) 0.4150(4)
C9_4 C 0.5621(2) 0.9306(4) 0.4846(4)
C10_4 C 0.6153(2) 0.9347(4) 0.5568(4)
C11_4 C 0.6530(2) 0.9937(4) 0.5480(4)
C12_4 C 0.7015(2) 0.9974(4) 0.6187(4)
C13_4 C 0.7126(2) 0.9388(4) 0.6996(4)
H6_4 H 0.7452 0.9407 0.7472
C14_4 C 0.67491(19) 0.8781(4) 0.7085(4)
C15_4 C 0.6267(2) 0.8768(4) 0.6365(4)
H7_4 H 0.6014 0.8364 0.6417
C17_4 C 0.6851(2) 0.8110(4) 0.7927(4)
C23_4 C 0.3252(4) 0.4571(7) 0.5166(8)
C24_4 C 0.3734(9) 0.3014(11) 0.5375(14)
C25_4 C 0.2882(6) 0.3424(12) 0.3863(9)
O9_4 O 0.59429(13) 0.6853(3) 0.8991(3)
O13_4 O 0.35092(14) 0.7536(3) 0.7152(3)
O14_4 O 0.6424(2) 0.4831(4) 0.9069(4)
C31_4 C 0.6316(2) 0.7073(4) 0.9710(4)
H19_4 H 0.5504 0.7977 0.9738
C40_4 C 0.3847(2) 0.9347(4) 0.9432(4)
C41_4 C 0.3470(2) 0.9937(4) 0.9520(4)
C42_4 C 0.2985(2) 0.9974(4) 0.8813(4)
C43_4 C 0.2874(2) 0.9388(4) 0.8004(4)
H21_4 H 0.2548 0.9407 0.7528
C44_4 C 0.32509(19) 0.8781(4) 0.7915(4)
C45_4 C 0.3733(2) 0.8768(4) 0.8635(4)
H22_4 H 0.3986 0.8364 0.8583
C47_4 C 0.3149(2) 0.8110(4) 0.7073(4)
C48_4 C 0.6748(4) 0.4571(7) 0.9834(8)
C49_4 C 0.6266(9) 0.3014(11) 0.9625(14)
H23_4 H 0.528961 0.822332 0.544643
H24_4 H 0.408659 0.337794 0.542509
H25_4 H 0.370003 0.231284 0.501609
H26_4 H 0.37422 0.288884 0.607738
H27_4 H 0.29495 0.50839 0.477377
H28_4 H 0.249645 0.34787 0.38566
H29_4 H 0.295116 0.26745 0.369444
H30_4 H 0.292005 0.392536 0.334394
H31_4 H 0.471039 0.822332 0.955357
H36_4 H 0.591341 0.337794 0.957491
H37_4 H 0.629997 0.231284 0.998391
H38_4 H 0.62578 0.288884 0.892262
loop_
_geom_bond_atom_site_label_1
_geom_bond_atom_site_label_2
_geom_bond_site_symmetry_1
_geom_bond_site_symmetry_2
N4 C23 1_555 1_555
H10 C21 1_555 1_555
C23 O7 1_555 1_555
C24 N4 1_555 1_555
C25 N4 1_555 1_555
C24 H24 1_555 1_555
C24 H25 1_555 1_555
C24 H26 1_555 1_555
C25 H28 1_555 1_555
C25 H29 1_555 1_555
C25 H30 1_555 1_555
Zn1 O1 1_555 1_555
Zn2 O1 1_555 1_555
O1 C1 1_555 1_555
O2 Zn1 1_555 1_555
N3 C8 1_555 1_555
N5 Zn1 1_555 1_555
C1 O2 1_555 1_555
C2 C1 1_555 1_555
C3 C2 1_555 1_555
H1 C3 1_555 1_555
C4 C3 1_555 1_555
H2 C4 1_555 1_555
C5 C4 1_555 1_555
H3 C5 1_555 1_555
C6 C5 1_555 1_555
C7 C2 1_555 1_555
H4 C7 1_555 1_555
C8 C6 1_555 1_555
C18 N5 1_555 1_555
H8 C18 1_555 1_555
C19 C18 1_555 1_555
C20 C19 1_555 1_555
C22 N5 1_555 1_555
O10 C46 1_555 1_555
O11 C46 1_555 1_555
O12 Zn2 1_555 1_555
O13 Zn1 1_555 1_555
C41 C40 1_555 1_555
C42 C41 1_555 1_555
C43 C42 1_555 1_555
H21 C43 1_555 1_555
C44 C43 1_555 1_555
C45 C40 1_555 1_555
H22 C45 1_555 1_555
C46 C42 1_555 1_555
C47 O12 1_555 1_555
Zn5 O10 1_555 1_555
Zn9 O11 1_555 1_555
O15 Zn2 1_555 1_555
O16 Zn1 1_555 1_555
O18 Zn2 1_555 1_555
O19 Zn2 1_555 1_555
O20 Zn2 1_555 1_555
C6 C7 1_555 1_555
O13 C47 1_555 1_555
C44 C45 1_555 1_555
C44 C47 1_555 1_555
C39 N7 1_555 1_555
N8 C39 1_555 1_555
C48 O14 1_555 1_555
C49 H36 1_555 1_555
C49 H37 1_555 1_555
C49 H38 1_555 1_555
N6 C26 1_555 1_555
C26 H12 1_555 1_555
C27 C26 1_555 1_555
C30 N6 1_555 1_555
C50 N10 1_555 1_555
Zn6 N6 1_555 1_555
C27 C28 1_555 1_555
C50 H32 1_555 1_555
C50 H33 1_555 1_555
C50 H34 1_555 1_555
O3 C16 1_555 1_555
O4 C16 1_555 1_555
O5 C17 1_555 1_555
O6 C17 1_555 1_555
C9 N1 1_555 1_555
C10 C9 1_555 1_555
C11 C10 1_555 1_555
H5 C11 1_555 1_555
C12 C11 1_555 1_555
C13 C12 1_555 1_555
H6 C13 1_555 1_555
C14 C13 1_555 1_555
C15 C10 1_555 1_555
H7 C15 1_555 1_555
C16 C12 1_555 1_555
C17 C14 1_555 1_555
Zn3 O6 1_555 1_555
O8 Zn3 1_555 1_555
O9 Zn3 1_555 1_555
C31 O8 1_555 1_555
Zn4 O3 1_555 1_555
Zn7 O5 1_555 1_555
Zn8 O4 1_555 1_555
O17 Zn3 1_555 1_555
N11 Zn3 1_555 1_555
N2 C9 1_555 1_555
C14 C15 1_555 1_555
O8 Zn7 1_555 1_555
O9 C31 1_555 1_555
N1 H23 1_555 1_555
H14 C29 1_555 1_555
N9 C38 1_555 1_555
C33 C32 1_555 1_555
H16 C33 1_555 1_555
C34 C33 1_555 1_555
H17 C34 1_555 1_555
C35 C34 1_555 1_555
H18 C35 1_555 1_555
C36 C35 1_555 1_555
C37 C32 1_555 1_555
C38 C36 1_555 1_555
C36 C37 1_555 1_555
N6_2 C26_2 1_555 1_555
C26_2 H12_2 1_555 1_555
C27_2 C26_2 1_555 1_555
C30_2 N6_2 1_555 1_555
Zn6_2 N6_2 1_555 1_555
C27_2 C28_2 1_555 1_555
H14_2 C29_2 1_555 1_555
H10_2 C21_2 1_555 1_555
C18_2 N11 1_555 1_555
H8_2 C18_2 1_555 1_555
C19_2 C18_2 1_555 1_555
C20_2 C19_2 1_555 1_555
C22_2 N11 1_555 1_555
O18_2 Zn7 1_555 1_555
O15_2 Zn7_2 1_555 1_555
O19_2 Zn7_2 1_555 1_555
O20_2 Zn7_2 1_555 1_555
Zn4 O1_2 1_555 1_555
Zn8 O1_2 1_555 1_555
O1_2 C1_2 1_555 1_555
O2_2 Zn4 1_555 1_555
O5_2 C17_2 1_555 1_555
O6_2 C17_2 1_555 1_555
O7_2 Zn4 1_555 1_555
N1_2 C8_2 1_555 1_555
N2_2 N3_2 1_555 1_555
N3_2 C8_2 1_555 1_555
N4_2 C23_2 1_555 1_555
N5_2 Zn4 1_555 1_555
C1_2 O2_2 1_555 1_555
C2_2 C1_2 1_555 1_555
C3_2 C2_2 1_555 1_555
H1_2 C3_2 1_555 1_555
C4_2 C3_2 1_555 1_555
H2_2 C4_2 1_555 1_555
C5_2 C4_2 1_555 1_555
H3_2 C5_2 1_555 1_555
C6_2 C5_2 1_555 1_555
C7_2 C2_2 1_555 1_555
H4_2 C7_2 1_555 1_555
C8_2 C6_2 1_555 1_555
C9_2 N1_2 1_555 1_555
C10_2 C9_2 1_555 1_555
C11_2 C10_2 1_555 1_555
C12_2 C11_2 1_555 1_555
C13_2 C12_2 1_555 1_555
H6_2 C13_2 1_555 1_555
C14_2 C13_2 1_555 1_555
C15_2 C10_2 1_555 1_555
H7_2 C15_2 1_555 1_555
C17_2 C14_2 1_555 1_555
C18_3 N5_2 1_555 1_555
H8_3 C18_3 1_555 1_555
C19_3 C18_3 1_555 1_555
H9_3 C19_3 1_555 1_555
C20_3 C19_3 1_555 1_555
C21_3 C20_3 1_555 1_555
H10_3 C21_3 1_555 1_555
C22_3 N5_2 1_555 1_555
H11_3 C22_3 1_555 1_555
C23_2 O7_2 1_555 1_555
C24_2 N4_2 1_555 1_555
C25_2 N4_2 1_555 1_555
Zn5 O6_2 1_555 1_555
O8_2 Zn5 1_555 1_555
O9_2 Zn5 1_555 1_555
O12_2 Zn8 1_555 1_555
O13_2 Zn4 1_555 1_555
O14_2 Zn5 1_555 1_555
C31_2 O8_2 1_555 1_555
C41_2 C40_2 1_555 1_555
C42_2 C41_2 1_555 1_555
C43_2 C42_2 1_555 1_555
H21_2 C43_2 1_555 1_555
C44_2 C43_2 1_555 1_555
C45_2 C40_2 1_555 1_555
H22_2 C45_2 1_555 1_555
C47_2 O12_2 1_555 1_555
C48_2 O14_2 1_555 1_555
Zn9 O5_2 1_555 1_555
O15_3 Zn8 1_555 1_555
O19_3 Zn8 1_555 1_555
O20_3 Zn8 1_555 1_555
N11_2 Zn5 1_555 1_555
N2_2 C9_2 1_555 1_555
C6_2 C7_2 1_555 1_555
C14_2 C15_2 1_555 1_555
C21_3 C22_3 1_555 1_555
O8_2 Zn9 1_555 1_555
O9_2 C31_2 1_555 1_555
O13_2 C47_2 1_555 1_555
C44_2 C45_2 1_555 1_555
C44_2 C47_2 1_555 1_555
N1_2 H23_2 1_555 1_555
C24_2 H24_2 1_555 1_555
C24_2 H25_2 1_555 1_555
C24_2 H26_2 1_555 1_555
C23_2 H27_2 1_555 1_555
C25_2 H28_2 1_555 1_555
C25_2 H29_2 1_555 1_555
C25_2 H30_2 1_555 1_555
C49_2 H36_2 1_555 1_555
C49_2 H37_2 1_555 1_555
C49_2 H38_2 1_555 1_555
N6_3 C26_3 1_555 1_555
C26_3 H12_3 1_555 1_555
C27_3 C26_3 1_555 1_555
H13_3 C27_3 1_555 1_555
C29_3 C28_3 1_555 1_555
H14_3 C29_3 1_555 1_555
C30_3 N6_3 1_555 1_555
H15_3 C30_3 1_555 1_555
N7_2 C38_2 1_555 1_555
N8_2 N9_2 1_555 1_555
N9_2 C38_2 1_555 1_555
C33_2 C32_2 1_555 1_555
H16_2 C33_2 1_555 1_555
C34_2 C33_2 1_555 1_555
H17_2 C34_2 1_555 1_555
C35_2 C34_2 1_555 1_555
H18_2 C35_2 1_555 1_555
C36_2 C35_2 1_555 1_555
C37_2 C32_2 1_555 1_555
C38_2 C36_2 1_555 1_555
C39_2 N7_2 1_555 1_555
C50_2 N10_2 1_555 1_555
Zn6_3 N6_3 1_555 1_555
C27_3 C28_3 1_555 1_555
C29_3 C30_3 1_555 1_555
N8_2 C39_2 1_555 1_555
C36_2 C37_2 1_555 1_555
C50_2 H32_2 1_555 1_555
C50_2 H33_2 1_555 1_555
C50_2 H34_2 1_555 1_555
O16 C16_2 1_555 1_555
O18 C16_2 1_555 1_555
O17 C46_2 1_555 1_555
O18_2 C46_2 1_555 1_555
C18_4 N11_2 1_555 1_555
H8_4 C18_4 1_555 1_555
C19_4 C18_4 1_555 1_555
H9_4 C19_4 1_555 1_555
C20_4 C19_4 1_555 1_555
C21_4 C20_4 1_555 1_555
H10_4 C21_4 1_555 1_555
C22_4 N11_2 1_555 1_555
H11_4 C22_4 1_555 1_555
N6_4 C26_4 1_555 1_555
C26_4 H12_4 1_555 1_555
C27_4 C26_4 1_555 1_555
H13_4 C27_4 1_555 1_555
C28_4 C20_4 1_555 1_555
C29_4 C28_4 1_555 1_555
H14_4 C29_4 1_555 1_555
C30_4 N6_4 1_555 1_555
H15_4 C30_4 1_555 1_555
Zn6_4 N6_4 1_555 1_555
C21_4 C22_4 1_555 1_555
C27_4 C28_4 1_555 1_555
C29_4 C30_4 1_555 1_555
O15_4 Zn9_2 1_555 1_555
O19_4 Zn9_2 1_555 1_555
O20_4 Zn9_2 1_555 1_555
N9_3 C38_3 1_555 1_555
C33_3 C32_3 1_555 1_555
H16_3 C33_3 1_555 1_555
C34_3 C33_3 1_555 1_555
H17_3 C34_3 1_555 1_555
C35_3 C34_3 1_555 1_555
H18_3 C35_3 1_555 1_555
C36_3 C35_3 1_555 1_555
C37_3 C32_3 1_555 1_555
C38_3 C36_3 1_555 1_555
C36_3 C37_3 1_555 1_555
O3_2 C16_3 1_555 1_555
O19 C16_3 1_555 1_555
O20_4 C17_3 1_555 1_555
O6_3 C17_3 1_555 1_555
C9_3 N1_3 1_555 1_555
C10_3 C9_3 1_555 1_555
C11_3 C10_3 1_555 1_555
H5_3 C11_3 1_555 1_555
C12_3 C11_3 1_555 1_555
C13_3 C12_3 1_555 1_555
H6_3 C13_3 1_555 1_555
C14_3 C13_3 1_555 1_555
C15_3 C10_3 1_555 1_555
H7_3 C15_3 1_555 1_555
C16_3 C12_3 1_555 1_555
C17_3 C14_3 1_555 1_555
Zn6_2 O6_3 1_555 1_555
O15_4 Zn6_2 1_555 1_555
O9_3 Zn6_2 1_555 1_555
C31_3 O15_4 1_555 1_555
Zn6_3 O3_2 1_555 1_555
O17_2 Zn6_2 1_555 1_555
N2_3 C9_3 1_555 1_555
C14_3 C15_3 1_555 1_555
O9_3 C31_3 1_555 1_555
N1_3 H23_3 1_555 1_555
C50_3 N10_3 1_555 1_555
C50_3 H32_3 1_555 1_555
C50_3 H33_3 1_555 1_555
C50_3 H34_3 1_555 1_555
C48_3 O14_3 1_555 1_555
C49_3 H36_3 1_555 1_555
C49_3 H37_3 1_555 1_555
C49_3 H38_3 1_555 1_555
C39_3 N7_3 1_555 1_555
N8_3 C39_3 1_555 1_555
Zn6 O15_3 1_555 1_555
O15_3 C1_3 1_555 1_555
O2_3 Zn6 1_555 1_555
N3_3 C8_3 1_555 1_555
C1_3 O2_3 1_555 1_555
C2_3 C1_3 1_555 1_555
C3_3 C2_3 1_555 1_555
H1_3 C3_3 1_555 1_555
C4_3 C3_3 1_555 1_555
H2_3 C4_3 1_555 1_555
C5_3 C4_3 1_555 1_555
H3_3 C5_3 1_555 1_555
C6_3 C5_3 1_555 1_555
C7_3 C2_3 1_555 1_555
H4_3 C7_3 1_555 1_555
C8_3 C6_3 1_555 1_555
O10_2 C46_3 1_555 1_555
O19_2 C46_3 1_555 1_555
O13_3 Zn6 1_555 1_555
C41_3 C40_3 1_555 1_555
C42_3 C41_3 1_555 1_555
C43_3 C42_3 1_555 1_555
H21_3 C43_3 1_555 1_555
C44_3 C43_3 1_555 1_555
C45_3 C40_3 1_555 1_555
H22_3 C45_3 1_555 1_555
C46_3 C42_3 1_555 1_555
C47_3 O20_3 1_555 1_555
Zn6_4 O10_2 1_555 1_555
O16_2 Zn6 1_555 1_555
C6_3 C7_3 1_555 1_555
O13_3 C47_3 1_555 1_555
C44_3 C45_3 1_555 1_555
C44_3 C47_3 1_555 1_555
N4_3 C23_3 1_555 1_555
C23_3 O7_3 1_555 1_555
C24_3 N4_3 1_555 1_555
C25_3 N4_3 1_555 1_555
C24_3 H24_3 1_555 1_555
C24_3 H25_3 1_555 1_555
C24_3 H26_3 1_555 1_555
C25_3 H28_3 1_555 1_555
C25_3 H29_3 1_555 1_555
C25_3 H30_3 1_555 1_555
O16_2 C16_4 1_555 1_555
O19_3 C16_4 1_555 1_555
O17_2 C46_4 1_555 1_555
O19_4 C46_4 1_555 1_555
N7_4 C38_4 1_555 1_555
N8_4 N9_4 1_555 1_555
N9_4 C38_4 1_555 1_555
C33_4 C32_4 1_555 1_555
H16_4 C33_4 1_555 1_555
C34_4 C33_4 1_555 1_555
H17_4 C34_4 1_555 1_555
C35_4 C34_4 1_555 1_555
H18_4 C35_4 1_555 1_555
C36_4 C35_4 1_555 1_555
C37_4 C32_4 1_555 1_555
C38_4 C36_4 1_555 1_555
C39_4 N7_4 1_555 1_555
C50_4 N10_4 1_555 1_555
N8_4 C39_4 1_555 1_555
C36_4 C37_4 1_555 1_555
C50_4 H32_4 1_555 1_555
C50_4 H33_4 1_555 1_555
C50_4 H34_4 1_555 1_555
Zn6_3 O15 1_555 1_555
O15 C1_4 1_555 1_555
O2_4 Zn6_3 1_555 1_555
O20_2 C17_4 1_555 1_555
O6_4 C17_4 1_555 1_555
O7_4 Zn6_3 1_555 1_555
N1_4 C8_4 1_555 1_555
N2_4 N3_4 1_555 1_555
N3_4 C8_4 1_555 1_555
N4_4 C23_4 1_555 1_555
C1_4 O2_4 1_555 1_555
C2_4 C1_4 1_555 1_555
C3_4 C2_4 1_555 1_555
H1_4 C3_4 1_555 1_555
C4_4 C3_4 1_555 1_555
H2_4 C4_4 1_555 1_555
C5_4 C4_4 1_555 1_555
H3_4 C5_4 1_555 1_555
C6_4 C5_4 1_555 1_555
C7_4 C2_4 1_555 1_555
H4_4 C7_4 1_555 1_555
C8_4 C6_4 1_555 1_555
C9_4 N1_4 1_555 1_555
C10_4 C9_4 1_555 1_555
C11_4 C10_4 1_555 1_555
C12_4 C11_4 1_555 1_555
C13_4 C12_4 1_555 1_555
H6_4 C13_4 1_555 1_555
C14_4 C13_4 1_555 1_555
C15_4 C10_4 1_555 1_555
H7_4 C15_4 1_555 1_555
C17_4 C14_4 1_555 1_555
C23_4 O7_4 1_555 1_555
C24_4 N4_4 1_555 1_555
C25_4 N4_4 1_555 1_555
Zn6_4 O6_4 1_555 1_555
O15_2 Zn6_4 1_555 1_555
O9_4 Zn6_4 1_555 1_555
O13_4 Zn6_3 1_555 1_555
O14_4 Zn6_4 1_555 1_555
C31_4 O15_2 1_555 1_555
C41_4 C40_4 1_555 1_555
C42_4 C41_4 1_555 1_555
C43_4 C42_4 1_555 1_555
H21_4 C43_4 1_555 1_555
C44_4 C43_4 1_555 1_555
C45_4 C40_4 1_555 1_555
H22_4 C45_4 1_555 1_555
C47_4 O20 1_555 1_555
C48_4 O14_4 1_555 1_555
N2_4 C9_4 1_555 1_555
C6_4 C7_4 1_555 1_555
C14_4 C15_4 1_555 1_555
O9_4 C31_4 1_555 1_555
O13_4 C47_4 1_555 1_555
C44_4 C45_4 1_555 1_555
C44_4 C47_4 1_555 1_555
N1_4 H23_4 1_555 1_555
C24_4 H24_4 1_555 1_555
C24_4 H25_4 1_555 1_555
C24_4 H26_4 1_555 1_555
C23_4 H27_4 1_555 1_555
C25_4 H28_4 1_555 1_555
C25_4 H29_4 1_555 1_555
C25_4 H30_4 1_555 1_555
C49_4 H36_4 1_555 1_555
C49_4 H37_4 1_555 1_555
C49_4 H38_4 1_555 1_555

#END
