
###############################################################################
#
# This file contains modified crystal structure data generated from the
# MOF subset of the Cambridge Structural Database (CSD) v543 
# hosted by the Cambridge Crystallographic Data Centre (CCDC).
#
# This work is licensed under the Creative Commons
# Attribution-NonCommercial-ShareAlike 4.0 International License.
# To view a copy of this license, visit
# http://creativecommons.org/licenses/by-nc-sa/4.0/
# or send a letter to
# Creative Commons, PO Box 1866, Mountain View, CA 94042, USA.
#
# CIF created using the CSD Python API on 29 September 2022
# The structure has been converted into the P1 space group
# The structure has a 3D framework
# The original CSD entry HEHVAU is in the monoclinic crystal system
# The framework has been calculated to contain at least 10.0% void space
# The void calculation uses a probe of radius 1.32A, grid spacing 0.4
# H atom positions have been added when not included in the experimental data
# Generated hydrogen atom positions removed from atoms on special positions
#
###############################################################################

data_HEHVAU
_chemical_formula_moiety         '(C176 H128 Cd12 N32 O56)n'
_symmetry_cell_setting           triclinic
_symmetry_space_group_name_H-M   'P 1'
_symmetry_Int_Tables_number      1
_space_group_name_Hall           'P 1'
loop_
_symmetry_equiv_pos_site_id
_symmetry_equiv_pos_as_xyz
1 x,y,z
_cell_length_a                   28.671(3)
_cell_length_b                   13.7799(16)
_cell_length_c                   15.689(2)
_cell_angle_alpha                90
_cell_angle_beta                 112.169(4)
_cell_angle_gamma                90
_cell_volume                     5740.24
loop_
_atom_site_label
_atom_site_type_symbol
_atom_site_fract_x
_atom_site_fract_y
_atom_site_fract_z
N2 N 0.0024(2) 0.0348(5) 0.1335(4)
C5 C 0.07289(18) 0.1958(4) 0.0388(4)
C9 C 0.1573(2) 0.2290(5) 0.1441(4)
H6 H 0.1890 0.2558 0.1568
C11 C 0.11984(18) 0.2379(4) 0.0568(4)
C14 C 0.0627(2) 0.1460(5) 0.1062(4)
C16 C 0.0129(2) 0.1017(5) 0.0834(4)
C17 C 0.1004(3) 0.1360(7) 0.1940(5)
H8 H 0.0943 0.1009 0.2393
C18 C 0.1470(3) 0.1791(7) 0.2127(5)
H9 H 0.1716 0.1748 0.2716
Cd11 Cd 0.2500 0.2500 0.0000
O2 O 0.09302(12) 0.3162(3) 0.9128(3)
O3 O 0.17415(11) 0.3138(2) 0.9935(2)
C3 C 0.12920(17) 0.2910(4) 0.9831(3)
H4 H 0.0479 0.2013 0.9803
Cd4 Cd 0.150688(12) 0.38784(3) 0.85048(2)
Cd11_2 Cd 0.2500 0.2500 1.0000
O1 O 0.6495(4) 0.0347(4) 0.9317(8)
O6 O 0.77500(13) 0.1887(3) 0.6467(2)
O7 O 0.85413(15) 0.2384(3) 0.7106(3)
C1 C 0.8744(2) 0.1223(4) 0.8623(4)
H2 H 0.9001 0.1589 0.8560
C2 C 0.82678(19) 0.1240(4) 0.7922(4)
C7 C 0.79808(19) 0.0098(4) 0.8791(4)
C8 C 0.78880(19) 0.0669(4) 0.8011(4)
H5 H 0.7569 0.0668 0.7545
C10 C 0.81759(18) 0.1878(4) 0.7096(3)
C12 C 0.84607(19) 0.0104(4) 0.9501(4)
C15 C 0.8843(2) 0.0666(4) 0.9420(4)
C19 C 0.5992(4) 0.0053(9) 0.6666(7)
H10 H 0.6300 0.0374 0.6886
C20 C 0.5634(3) 0.0332(8) 0.5832(7)
H11 H 0.5700 0.0857 0.5522
N5 N 0.40866(19) 0.0647(4) 0.2841(4)
C23 C 0.4505(3) 0.1144(6) 0.3237(6)
H13 H 0.4555 0.1693 0.2937
C26 C 0.4806(2) 0.0134(6) 0.4542(6)
C27 C 0.4872(3) 0.0899(7) 0.4064(6)
H16 H 0.5166 0.1262 0.4297
Cd3 Cd 0.349312(12) 0.11216(3) 0.14952(2)
O11 O 0.23176(16) 0.1026(3) 0.0405(3)
O12 O 0.28451(16) 0.0502(4) 0.1760(3)
C32 C 0.2424(2) 0.0528(4) 0.1117(4)
Cd5 Cd 0.849312(12) 0.38784(3) 0.64952(2)
Cd12 Cd 0.7500 0.2500 0.5000
O16 O 0.40698(12) 0.1838(3) 0.0872(3)
O19 O 0.32585(11) 0.1862(2) 0.0065(2)
O24 O 0.35413(15) 0.2616(3) 0.2106(3)
H17 H 0.0655 0.0257 0.8944
H22 H 0.1478 0.0270 0.9975
Cd2 Cd 0.7500 0.7500 0.0000
H1 H 0.9345 0.9743 0.1056
H7 H 0.8522 0.9730 0.0025
O18 O 0.82585(11) 0.6862(2) 0.0065(2)
O20 O 0.73176(16) 0.6026(3) 0.0405(3)
O22 O 0.77500(13) 0.8113(3) 0.1467(2)
Cd1 Cd 0.650688(12) 0.88784(3) 0.85048(2)
Cd2_2 Cd 0.7500 0.7500 1.0000
O4 O 0.76824(16) 0.8974(3) 0.9595(3)
O5 O 0.71549(16) 0.9498(4) 0.8240(3)
N4 N 0.59134(19) 0.9353(4) 0.7159(4)
C4 C 0.5495(3) 0.8856(6) 0.6763(6)
H3 H 0.5445 0.8307 0.7063
C6 C 0.7576(2) 0.9472(4) 0.8883(4)
C21 C 0.5194(2) 0.9866(6) 0.5458(6)
C22 C 0.5128(3) 0.9101(7) 0.5936(6)
H12 H 0.4834 0.8738 0.5703
C24 C 0.4008(4) 0.9947(9) 0.3334(7)
H14 H 0.3700 0.9626 0.3114
C25 C 0.4366(3) 0.9668(8) 0.4168(7)
H15 H 0.4300 0.9143 0.4478
O8 O 0.3505(4) 0.9653(4) 0.0683(8)
O13 O 0.22500(13) 0.8113(3) 0.3533(2)
O14 O 0.14587(15) 0.7616(3) 0.2894(3)
C28 C 0.1256(2) 0.8777(4) 0.1377(4)
H18 H 0.0999 0.8411 0.1440
C29 C 0.17322(19) 0.8760(4) 0.2078(4)
C33 C 0.20192(19) 0.9902(4) 0.1209(4)
C34 C 0.21120(19) 0.9331(4) 0.1989(4)
H20 H 0.2431 0.9332 0.2455
C36 C 0.18241(18) 0.8122(4) 0.2904(3)
C38 C 0.15393(19) 0.9896(4) 0.0499(4)
C41 C 0.1157(2) 0.9334(4) 0.0580(4)
Cd7 Cd 0.150688(12) 0.61216(3) 0.35048(2)
Cd9 Cd 0.2500 0.7500 0.5000
O15 O 0.59302(12) 0.8162(3) 0.9128(3)
O17 O 0.67415(11) 0.8138(2) 0.9935(2)
O21 O 0.72500(13) 0.6887(3) 0.8533(2)
O23 O 0.64587(15) 0.7384(3) 0.7894(3)
O9 O 0.90698(12) 0.6838(3) 0.0872(3)
C30 C 0.87080(17) 0.7090(4) 0.0169(3)
H19 H 0.9521 0.7987 0.0197
Cd6 Cd 0.849312(12) 0.61216(3) 0.14952(2)
N7 N 0.9976(2) 0.9652(5) 0.8665(4)
C31 C 0.92711(18) 0.8042(4) 0.9612(4)
C35 C 0.8427(2) 0.7710(5) 0.8559(4)
H21 H 0.8110 0.7442 0.8432
C37 C 0.88016(18) 0.7621(4) 0.9432(4)
C40 C 0.9373(2) 0.8540(5) 0.8938(4)
C42 C 0.9871(2) 0.8983(5) 0.9166(4)
C43 C 0.8996(3) 0.8640(7) 0.8060(5)
H23 H 0.9057 0.8991 0.7607
C44 C 0.8530(3) 0.8209(7) 0.7873(5)
H24 H 0.8284 0.8252 0.7284
O9_2 O 0.09302(12) 0.6838(3) 0.4128(3)
O10 O 0.17415(11) 0.6862(2) 0.4935(2)
N7_2 N 0.0024(2) 0.9652(5) 0.6335(4)
C30_2 C 0.12920(17) 0.7090(4) 0.4831(3)
C31_2 C 0.07289(18) 0.8042(4) 0.5388(4)
H19_2 H 0.0479 0.7987 0.4803
C35_2 C 0.1573(2) 0.7710(5) 0.6441(4)
H21_2 H 0.1890 0.7442 0.6568
C37_2 C 0.11984(18) 0.7621(4) 0.5568(4)
C40_2 C 0.0627(2) 0.8540(5) 0.6062(4)
C42_2 C 0.0129(2) 0.8983(5) 0.5834(4)
C43_2 C 0.1004(3) 0.8640(7) 0.6940(5)
H23_2 H 0.0943 0.8991 0.7393
C44_2 C 0.1470(3) 0.8209(7) 0.7127(5)
H24_2 H 0.1716 0.8252 0.7716
N5_2 N 0.59134(19) 0.0647(4) 0.2159(4)
C23_2 C 0.5495(3) 0.1144(6) 0.1763(6)
H13_2 H 0.5445 0.1693 0.2063
C26_2 C 0.5194(2) 0.0134(6) 0.0458(6)
C27_2 C 0.5128(3) 0.0899(7) 0.0936(6)
H16_2 H 0.4834 0.1262 0.0703
Cd3_2 Cd 0.650688(12) 0.11216(3) 0.35048(2)
O11_2 O 0.76824(16) 0.1026(3) 0.4595(3)
O12_2 O 0.71549(16) 0.0502(4) 0.3240(3)
H17_2 H 0.9345 0.0257 0.6056
C32_2 C 0.7576(2) 0.0528(4) 0.3883(4)
H22_2 H 0.8522 0.0270 0.5025
O16_2 O 0.59302(12) 0.1838(3) 0.4128(3)
O19_2 O 0.67415(11) 0.1862(2) 0.4935(2)
O24_2 O 0.64587(15) 0.2616(3) 0.2894(3)
O1_2 O 0.3505(4) 0.0347(4) 0.5683(8)
O6_2 O 0.22500(13) 0.1887(3) 0.8533(2)
O7_2 O 0.14587(15) 0.2384(3) 0.7894(3)
N1 N 0.02691(16) 0.1224(3) 0.4937(3)
N3 N 0.0480(2) 0.0142(5) 0.4122(4)
C1_2 C 0.1256(2) 0.1223(4) 0.6377(4)
H2_2 H 0.0999 0.1589 0.6440
C2_2 C 0.17322(19) 0.1240(4) 0.7078(4)
C7_2 C 0.20192(19) 0.0098(4) 0.6209(4)
C8_2 C 0.21120(19) 0.0669(4) 0.6989(4)
H5_2 H 0.2431 0.0668 0.7455
C10_2 C 0.18241(18) 0.1878(4) 0.7904(3)
C12_2 C 0.15393(19) 0.0104(4) 0.5499(4)
C13 C 0.0642(2) 0.0683(4) 0.4871(4)
C15_2 C 0.1157(2) 0.0666(4) 0.5580(4)
C19_2 C 0.4008(4) 0.0053(9) 0.8334(7)
H10_2 H 0.3700 0.0374 0.8114
C20_2 C 0.4366(3) 0.0332(8) 0.9168(7)
H11_2 H 0.4300 0.0857 0.9478
C24_2 C 0.5992(4) 0.9947(9) 0.1666(7)
H14_2 H 0.6300 0.9626 0.1886
C25_2 C 0.5634(3) 0.9668(8) 0.0832(7)
H15_2 H 0.5700 0.9143 0.0522
O8_2 O 0.6495(4) 0.9653(4) 0.4317(8)
O14_2 O 0.85413(15) 0.7616(3) 0.2106(3)
N6 N 0.97309(16) 0.8776(3) 0.5063(3)
N8 N 0.9520(2) 0.9858(5) 0.5878(4)
C28_2 C 0.8744(2) 0.8777(4) 0.3623(4)
H18_2 H 0.9001 0.8411 0.3560
C29_2 C 0.82678(19) 0.8760(4) 0.2922(4)
C33_2 C 0.79808(19) 0.9902(4) 0.3791(4)
C34_2 C 0.78880(19) 0.9331(4) 0.3011(4)
H20_2 H 0.7569 0.9332 0.2545
C36_2 C 0.81759(18) 0.8122(4) 0.2096(3)
C38_2 C 0.84607(19) 0.9896(4) 0.4501(4)
C39 C 0.9358(2) 0.9317(4) 0.5129(4)
C41_2 C 0.8843(2) 0.9334(4) 0.4420(4)
Cd1_2 Cd 0.349312(12) 0.88784(3) 0.64952(2)
O4_2 O 0.23176(16) 0.8974(3) 0.5405(3)
O5_2 O 0.28451(16) 0.9498(4) 0.6760(3)
H1_2 H 0.0655 0.9743 0.3944
N4_2 N 0.40866(19) 0.9353(4) 0.7841(4)
C4_2 C 0.4505(3) 0.8856(6) 0.8237(6)
H3_2 H 0.4555 0.8307 0.7937
C6_2 C 0.2424(2) 0.9472(4) 0.6117(4)
H7_2 H 0.1478 0.9730 0.4975
C21_2 C 0.4806(2) 0.9866(6) 0.9542(6)
C22_2 C 0.4872(3) 0.9101(7) 0.9064(6)
H12_2 H 0.5166 0.8738 0.9297
O15_2 O 0.40698(12) 0.8162(3) 0.5872(3)
O17_2 O 0.32585(11) 0.8138(2) 0.5065(2)
O20_2 O 0.26824(16) 0.6026(3) 0.4595(3)
O21_2 O 0.27500(13) 0.6887(3) 0.6467(2)
O23_2 O 0.35413(15) 0.7384(3) 0.7106(3)
O2_2 O 0.90698(12) 0.3162(3) 0.5872(3)
O3_2 O 0.82585(11) 0.3138(2) 0.5065(2)
N2_2 N 0.9976(2) 0.0348(5) 0.3665(4)
C3_2 C 0.87080(17) 0.2910(4) 0.5169(3)
C5_2 C 0.92711(18) 0.1958(4) 0.4612(4)
H4_2 H 0.9521 0.2013 0.5197
C9_2 C 0.8427(2) 0.2290(5) 0.3559(4)
H6_2 H 0.8110 0.2558 0.3432
C11_2 C 0.88016(18) 0.2379(4) 0.4432(4)
C14_2 C 0.9373(2) 0.1460(5) 0.3938(4)
C16_2 C 0.9871(2) 0.1017(5) 0.4166(4)
C17_2 C 0.8996(3) 0.1360(7) 0.3060(5)
H8_2 H 0.9057 0.1009 0.2607
C18_2 C 0.8530(3) 0.1791(7) 0.2873(5)
H9_2 H 0.8284 0.1748 0.2284
N1_2 N 0.47309(16) 0.6224(3) 0.0063(3)
N2_3 N 0.5024(2) 0.5348(5) 0.1335(4)
N3_2 N 0.4520(2) 0.5142(5) 0.0878(4)
H1_3 H 0.4345 0.4743 0.1056
C5_3 C 0.57289(18) 0.6958(4) 0.0388(4)
C9_3 C 0.6573(2) 0.7290(5) 0.1441(4)
H6_3 H 0.6890 0.7558 0.1568
C11_3 C 0.61984(18) 0.7379(4) 0.0568(4)
H7_3 H 0.3522 0.4730 0.0025
C13_2 C 0.4358(2) 0.5683(4) 0.0129(4)
C14_3 C 0.5627(2) 0.6460(5) 0.1062(4)
C16_3 C 0.5129(2) 0.6017(5) 0.0834(4)
C17_3 C 0.6004(3) 0.6360(7) 0.1940(5)
H8_3 H 0.5943 0.6009 0.2393
C18_3 C 0.6470(3) 0.6791(7) 0.2127(5)
H9_3 H 0.6716 0.6748 0.2716
O22_2 O 0.27500(13) 0.3113(3) 0.1467(2)
O1_3 O 0.1495(4) 0.5347(4) 0.9317(8)
O4_3 O 0.26824(16) 0.3974(3) 0.9595(3)
O5_3 O 0.21549(16) 0.4498(4) 0.8240(3)
N4_3 N 0.09134(19) 0.4353(4) 0.7159(4)
C1_3 C 0.3744(2) 0.6223(4) 0.8623(4)
H2_3 H 0.4001 0.6589 0.8560
C2_3 C 0.32678(19) 0.6240(4) 0.7922(4)
C3_3 C 0.62920(17) 0.7910(4) 0.9831(3)
C4_3 C 0.0495(3) 0.3856(6) 0.6763(6)
H3_3 H 0.0445 0.3307 0.7063
H4_3 H 0.5479 0.7013 0.9803
C6_3 C 0.2576(2) 0.4472(4) 0.8883(4)
C7_3 C 0.29808(19) 0.5098(4) 0.8791(4)
C8_3 C 0.28880(19) 0.5669(4) 0.8011(4)
H5_3 H 0.2569 0.5668 0.7545
C10_3 C 0.31759(18) 0.6878(4) 0.7096(3)
C12_3 C 0.34607(19) 0.5104(4) 0.9501(4)
C15_3 C 0.3843(2) 0.5666(4) 0.9420(4)
C19_3 C 0.0992(4) 0.5053(9) 0.6666(7)
H10_3 H 0.1300 0.5374 0.6886
C20_3 C 0.0634(3) 0.5332(8) 0.5832(7)
H11_3 H 0.0700 0.5857 0.5522
C21_3 C 0.0194(2) 0.4866(6) 0.5458(6)
C22_3 C 0.0128(3) 0.4101(7) 0.5936(6)
H16_3 H 0.0166 0.6262 0.4297
H12_3 H 0.9834 0.3738 0.5703
N5_3 N 0.90866(19) 0.5647(4) 0.2841(4)
C23_3 C 0.9505(3) 0.6144(6) 0.3237(6)
H13_3 H 0.9555 0.6693 0.2937
C24_3 C 0.9008(4) 0.4947(9) 0.3334(7)
H14_3 H 0.8700 0.4626 0.3114
C25_3 C 0.9366(3) 0.4668(8) 0.4168(7)
H15_3 H 0.9300 0.4143 0.4478
C26_3 C 0.9806(2) 0.5134(6) 0.4542(6)
C27_3 C 0.9872(3) 0.5899(7) 0.4064(6)
O8_3 O 0.8505(4) 0.4653(4) 0.0683(8)
O12_3 O 0.78451(16) 0.5502(4) 0.1760(3)
O13_2 O 0.72500(13) 0.3113(3) 0.3533(2)
C28_3 C 0.6256(2) 0.3777(4) 0.1377(4)
H18_3 H 0.5999 0.3411 0.1440
C29_3 C 0.67322(19) 0.3760(4) 0.2078(4)
C30_3 C 0.37080(17) 0.2090(4) 0.0169(3)
H19_3 H 0.4521 0.2987 0.0197
C32_3 C 0.7424(2) 0.5528(4) 0.1117(4)
C33_3 C 0.70192(19) 0.4902(4) 0.1209(4)
C34_3 C 0.71120(19) 0.4331(4) 0.1989(4)
H20_3 H 0.7431 0.4332 0.2455
C36_3 C 0.68241(18) 0.3122(4) 0.2904(3)
C38_3 C 0.65393(19) 0.4896(4) 0.0499(4)
C41_3 C 0.6157(2) 0.4334(4) 0.0580(4)
N6_2 N 0.52691(16) 0.3776(3) 0.9937(3)
N7_3 N 0.4976(2) 0.4652(5) 0.8665(4)
N8_2 N 0.5480(2) 0.4858(5) 0.9122(4)
H17_3 H 0.5655 0.5257 0.8944
C31_3 C 0.42711(18) 0.3042(4) 0.9612(4)
C35_3 C 0.3427(2) 0.2710(5) 0.8559(4)
H21_3 H 0.3110 0.2442 0.8432
C37_3 C 0.38016(18) 0.2621(4) 0.9432(4)
H22_3 H 0.6478 0.5270 0.9975
C39_2 C 0.5642(2) 0.4317(4) 0.9871(4)
C40_3 C 0.4373(2) 0.3540(5) 0.8938(4)
C42_3 C 0.4871(2) 0.3983(5) 0.9166(4)
C43_3 C 0.3996(3) 0.3640(7) 0.8060(5)
H23_3 H 0.4057 0.3991 0.7607
C44_3 C 0.3530(3) 0.3209(7) 0.7873(5)
H24_3 H 0.3284 0.3252 0.7284
N5_4 N 0.09134(19) 0.5647(4) 0.2159(4)
C23_4 C 0.0495(3) 0.6144(6) 0.1763(6)
H13_4 H 0.0445 0.6693 0.2063
C24_4 C 0.0992(4) 0.4947(9) 0.1666(7)
H14_4 H 0.1300 0.4626 0.1886
C25_4 C 0.0634(3) 0.4668(8) 0.0832(7)
H15_4 H 0.0700 0.4143 0.0522
C26_4 C 0.0194(2) 0.5134(6) 0.0458(6)
C27_4 C 0.0128(3) 0.5899(7) 0.0936(6)
O8_4 O 0.1495(4) 0.4653(4) 0.4317(8)
O12_4 O 0.21549(16) 0.5502(4) 0.3240(3)
N6_3 N 0.47309(16) 0.3776(3) 0.5063(3)
N7_4 N 0.5024(2) 0.4652(5) 0.6335(4)
N8_3 N 0.4520(2) 0.4858(5) 0.5878(4)
H17_4 H 0.4345 0.5257 0.6056
C28_4 C 0.3744(2) 0.3777(4) 0.3623(4)
H18_4 H 0.4001 0.3411 0.3560
C29_4 C 0.32678(19) 0.3760(4) 0.2922(4)
C30_4 C 0.62920(17) 0.2090(4) 0.4831(3)
C31_4 C 0.57289(18) 0.3042(4) 0.5388(4)
H19_4 H 0.5479 0.2987 0.4803
C32_4 C 0.2576(2) 0.5528(4) 0.3883(4)
C33_4 C 0.29808(19) 0.4902(4) 0.3791(4)
C34_4 C 0.28880(19) 0.4331(4) 0.3011(4)
H20_4 H 0.2569 0.4332 0.2545
C35_4 C 0.6573(2) 0.2710(5) 0.6441(4)
H21_4 H 0.6890 0.2442 0.6568
C36_4 C 0.31759(18) 0.3122(4) 0.2096(3)
C37_4 C 0.61984(18) 0.2621(4) 0.5568(4)
C38_4 C 0.34607(19) 0.4896(4) 0.4501(4)
H22_4 H 0.3522 0.5270 0.5025
C39_3 C 0.4358(2) 0.4317(4) 0.5129(4)
C40_4 C 0.5627(2) 0.3540(5) 0.6062(4)
C41_4 C 0.3843(2) 0.4334(4) 0.4420(4)
C42_4 C 0.5129(2) 0.3983(5) 0.5834(4)
C43_4 C 0.6004(3) 0.3640(7) 0.6940(5)
H23_4 H 0.5943 0.3991 0.7393
C44_4 C 0.6470(3) 0.3209(7) 0.7127(5)
H24_4 H 0.6716 0.3252 0.7716
H12_4 H 0.0166 0.3738 0.9297
H16_4 H 0.9834 0.6262 0.0703
O1_4 O 0.8505(4) 0.5347(4) 0.5683(8)
O4_4 O 0.73176(16) 0.3974(3) 0.5405(3)
O5_4 O 0.78451(16) 0.4498(4) 0.6760(3)
N1_3 N 0.52691(16) 0.6224(3) 0.4937(3)
N2_4 N 0.4976(2) 0.5348(5) 0.3665(4)
N3_3 N 0.5480(2) 0.5142(5) 0.4122(4)
H1_4 H 0.5655 0.4743 0.3944
N4_4 N 0.90866(19) 0.4353(4) 0.7841(4)
C1_4 C 0.6256(2) 0.6223(4) 0.6377(4)
H2_4 H 0.5999 0.6589 0.6440
C2_4 C 0.67322(19) 0.6240(4) 0.7078(4)
C3_4 C 0.37080(17) 0.7910(4) 0.5169(3)
C4_4 C 0.9505(3) 0.3856(6) 0.8237(6)
H3_4 H 0.9555 0.3307 0.7937
C5_4 C 0.42711(18) 0.6958(4) 0.4612(4)
H4_4 H 0.4521 0.7013 0.5197
C6_4 C 0.7424(2) 0.4472(4) 0.6117(4)
C7_4 C 0.70192(19) 0.5098(4) 0.6209(4)
C8_4 C 0.71120(19) 0.5669(4) 0.6989(4)
H5_4 H 0.7431 0.5668 0.7455
C9_4 C 0.3427(2) 0.7290(5) 0.3559(4)
H6_4 H 0.3110 0.7558 0.3432
C10_4 C 0.68241(18) 0.6878(4) 0.7904(3)
C11_4 C 0.38016(18) 0.7379(4) 0.4432(4)
C12_4 C 0.65393(19) 0.5104(4) 0.5499(4)
H7_4 H 0.6478 0.4730 0.4975
C13_3 C 0.5642(2) 0.5683(4) 0.4871(4)
C14_4 C 0.4373(2) 0.6460(5) 0.3938(4)
C15_4 C 0.6157(2) 0.5666(4) 0.5580(4)
C16_4 C 0.4871(2) 0.6017(5) 0.4166(4)
C17_4 C 0.3996(3) 0.6360(7) 0.3060(5)
H8_4 H 0.4057 0.6009 0.2607
C18_4 C 0.3530(3) 0.6791(7) 0.2873(5)
H9_4 H 0.3284 0.6748 0.2284
C19_4 C 0.9008(4) 0.5053(9) 0.8334(7)
H10_4 H 0.8700 0.5374 0.8114
C20_4 C 0.9366(3) 0.5332(8) 0.9168(7)
H11_4 H 0.9300 0.5857 0.9478
C21_4 C 0.9806(2) 0.4866(6) 0.9542(6)
C22_4 C 0.9872(3) 0.4101(7) 0.9064(6)
N1_4 N 0.97309(16) 0.1224(3) 0.0063(3)
N3_4 N 0.9520(2) 0.0142(5) 0.0878(4)
C13_4 C 0.9358(2) 0.0683(4) 0.0129(4)
N6_4 N 0.02691(16) 0.8776(3) 0.9937(3)
N8_4 N 0.0480(2) 0.9858(5) 0.9122(4)
C39_4 C 0.0642(2) 0.9317(4) 0.9871(4)
loop_
_geom_bond_atom_site_label_1
_geom_bond_atom_site_label_2
_geom_bond_site_symmetry_1
_geom_bond_site_symmetry_2
C9 H6 1_555 1_555
C11 C5 1_555 1_555
C14 C5 1_555 1_555
C17 C14 1_555 1_555
H8 C17 1_555 1_555
C18 C9 1_555 1_555
H9 C18 1_555 1_555
N2 C16 1_555 1_555
C9 C11 1_555 1_555
C14 C16 1_555 1_555
C17 C18 1_555 1_555
O2 C3 1_555 1_555
O3 C3 1_555 1_555
Cd4 O2 1_555 1_555
Cd11_2 O3 1_555 1_555
O3 Cd4 1_555 1_555
O6 C10 1_555 1_555
O7 C10 1_555 1_555
C1 H2 1_555 1_555
C2 C1 1_555 1_555
C8 C2 1_555 1_555
H5 C8 1_555 1_555
C10 C2 1_555 1_555
C12 C7 1_555 1_555
C15 C1 1_555 1_555
H10 C19 1_555 1_555
C20 C19 1_555 1_555
H11 C20 1_555 1_555
N5 C23 1_555 1_555
C23 H13 1_555 1_555
C27 C23 1_555 1_555
H16 C27 1_555 1_555
Cd3 N5 1_555 1_555
O11 C32 1_555 1_555
O12 Cd3 1_555 1_555
C32 O12 1_555 1_555
Cd5 O7 1_555 1_555
Cd11 O11 1_555 1_555
Cd12 O6 1_555 1_555
O16 Cd3 1_555 1_555
O19 Cd3 1_555 1_555
O24 Cd3 1_555 1_555
C7 C8 1_555 1_555
C12 C15 1_555 1_555
C26 C27 1_555 1_555
Cd11 O19 1_555 1_555
O18 Cd2 1_555 1_555
O20 Cd2 1_555 1_555
O22 Cd2 1_555 1_555
Cd2_2 O4 1_555 1_555
O4 C6 1_555 1_555
O5 Cd1 1_555 1_555
N4 Cd1 1_555 1_555
C4 N4 1_555 1_555
H3 C4 1_555 1_555
C6 O5 1_555 1_555
C22 C4 1_555 1_555
H12 C22 1_555 1_555
H14 C24 1_555 1_555
C25 C24 1_555 1_555
H15 C25 1_555 1_555
O13 C36 1_555 1_555
O14 C36 1_555 1_555
C28 H18 1_555 1_555
C29 C28 1_555 1_555
C34 C29 1_555 1_555
H20 C34 1_555 1_555
C36 C29 1_555 1_555
C38 C33 1_555 1_555
C41 C28 1_555 1_555
Cd7 O14 1_555 1_555
Cd9 O13 1_555 1_555
O15 Cd1 1_555 1_555
O17 Cd1 1_555 1_555
O21 Cd2_2 1_555 1_555
O23 Cd1 1_555 1_555
Cd2_2 O17 1_555 1_555
C21 C22 1_555 1_555
C33 C34 1_555 1_555
C38 C41 1_555 1_555
O9 C30 1_555 1_555
O18 C30 1_555 1_555
Cd6 O9 1_555 1_555
O18 Cd6 1_555 1_555
C35 H21 1_555 1_555
C37 C31 1_555 1_555
C40 C31 1_555 1_555
C43 C40 1_555 1_555
H23 C43 1_555 1_555
C44 C35 1_555 1_555
H24 C44 1_555 1_555
N7 C42 1_555 1_555
C35 C37 1_555 1_555
C40 C42 1_555 1_555
C43 C44 1_555 1_555
O9_2 C30_2 1_555 1_555
O10 C30_2 1_555 1_555
C30_2 C37_2 1_555 1_555
C31_2 H19_2 1_555 1_555
C35_2 H21_2 1_555 1_555
C37_2 C31_2 1_555 1_555
C40_2 C31_2 1_555 1_555
C43_2 C40_2 1_555 1_555
H23_2 C43_2 1_555 1_555
C44_2 C35_2 1_555 1_555
H24_2 C44_2 1_555 1_555
Cd7 O9_2 1_555 1_555
Cd9 O10 1_555 1_555
O10 Cd7 1_555 1_555
N7_2 C42_2 1_555 1_555
C35_2 C37_2 1_555 1_555
C40_2 C42_2 1_555 1_555
C43_2 C44_2 1_555 1_555
N5_2 C23_2 1_555 1_555
C23_2 H13_2 1_555 1_555
C27_2 C23_2 1_555 1_555
H16_2 C27_2 1_555 1_555
Cd3_2 N5_2 1_555 1_555
O11_2 C32_2 1_555 1_555
O12_2 Cd3_2 1_555 1_555
C32_2 O12_2 1_555 1_555
Cd12 O11_2 1_555 1_555
O16_2 Cd3_2 1_555 1_555
O19_2 Cd3_2 1_555 1_555
O24_2 Cd3_2 1_555 1_555
C26_2 C27_2 1_555 1_555
Cd12 O19_2 1_555 1_555
O6_2 C10_2 1_555 1_555
O7_2 C10_2 1_555 1_555
N1 C13 1_555 1_555
C1_2 H2_2 1_555 1_555
C2_2 C1_2 1_555 1_555
C8_2 C2_2 1_555 1_555
H5_2 C8_2 1_555 1_555
C10_2 C2_2 1_555 1_555
C12_2 C7_2 1_555 1_555
C13 N3 1_555 1_555
C15_2 C1_2 1_555 1_555
H10_2 C19_2 1_555 1_555
C20_2 C19_2 1_555 1_555
H11_2 C20_2 1_555 1_555
Cd4 O7_2 1_555 1_555
Cd11_2 O6_2 1_555 1_555
C7_2 C8_2 1_555 1_555
C12_2 C15_2 1_555 1_555
C13 C15_2 1_555 1_555
H14_2 C24_2 1_555 1_555
C25_2 C24_2 1_555 1_555
H15_2 C25_2 1_555 1_555
O22 C36_2 1_555 1_555
O14_2 C36_2 1_555 1_555
N6 C39 1_555 1_555
C28_2 H18_2 1_555 1_555
C29_2 C28_2 1_555 1_555
C34_2 C29_2 1_555 1_555
H20_2 C34_2 1_555 1_555
C36_2 C29_2 1_555 1_555
C38_2 C33_2 1_555 1_555
C39 N8 1_555 1_555
C41_2 C28_2 1_555 1_555
Cd6 O14_2 1_555 1_555
C33_2 C34_2 1_555 1_555
C38_2 C41_2 1_555 1_555
C39 C41_2 1_555 1_555
Cd9 O4_2 1_555 1_555
O4_2 C6_2 1_555 1_555
O5_2 Cd1_2 1_555 1_555
N4_2 Cd1_2 1_555 1_555
C4_2 N4_2 1_555 1_555
H3_2 C4_2 1_555 1_555
C6_2 O5_2 1_555 1_555
C22_2 C4_2 1_555 1_555
H12_2 C22_2 1_555 1_555
O15_2 Cd1_2 1_555 1_555
O17_2 Cd1_2 1_555 1_555
O20_2 Cd9 1_555 1_555
O21_2 Cd9 1_555 1_555
O23_2 Cd1_2 1_555 1_555
Cd9 O17_2 1_555 1_555
C21_2 C22_2 1_555 1_555
O2_2 C3_2 1_555 1_555
O3_2 C3_2 1_555 1_555
C3_2 C11_2 1_555 1_555
C5_2 H4_2 1_555 1_555
C9_2 H6_2 1_555 1_555
C11_2 C5_2 1_555 1_555
C14_2 C5_2 1_555 1_555
C17_2 C14_2 1_555 1_555
H8_2 C17_2 1_555 1_555
C18_2 C9_2 1_555 1_555
H9_2 C18_2 1_555 1_555
Cd5 O2_2 1_555 1_555
Cd12 O3_2 1_555 1_555
O3_2 Cd5 1_555 1_555
N2_2 C16_2 1_555 1_555
C9_2 C11_2 1_555 1_555
C14_2 C16_2 1_555 1_555
C17_2 C18_2 1_555 1_555
N1_2 C13_2 1_555 1_555
N2_3 N3_2 1_555 1_555
N3_2 H1_3 1_555 1_555
C9_3 H6_3 1_555 1_555
C11_3 C5_3 1_555 1_555
C13_2 N3_2 1_555 1_555
C14_3 C5_3 1_555 1_555
C16_3 N1_2 1_555 1_555
C17_3 C14_3 1_555 1_555
H8_3 C17_3 1_555 1_555
C18_3 C9_3 1_555 1_555
H9_3 C18_3 1_555 1_555
O22_2 Cd11 1_555 1_555
N2_3 C16_3 1_555 1_555
C9_3 C11_3 1_555 1_555
C14_3 C16_3 1_555 1_555
C17_3 C18_3 1_555 1_555
Cd4 O1_3 1_555 1_555
Cd11_2 O4_3 1_555 1_555
O15 C3_3 1_555 1_555
O17 C3_3 1_555 1_555
O4_3 C6_3 1_555 1_555
O5_3 Cd4 1_555 1_555
O21_2 C10_3 1_555 1_555
O23_2 C10_3 1_555 1_555
N4_3 Cd4 1_555 1_555
C1_3 H2_3 1_555 1_555
C2_3 C1_3 1_555 1_555
C4_3 N4_3 1_555 1_555
H3_3 C4_3 1_555 1_555
C6_3 O5_3 1_555 1_555
C7_3 C6_3 1_555 1_555
C8_3 C2_3 1_555 1_555
H5_3 C8_3 1_555 1_555
C10_3 C2_3 1_555 1_555
C12_3 C7_3 1_555 1_555
C15_3 C1_3 1_555 1_555
C19_3 N4_3 1_555 1_555
H10_3 C19_3 1_555 1_555
C20_3 C19_3 1_555 1_555
H11_3 C20_3 1_555 1_555
C21_3 C20_3 1_555 1_555
C22_3 C4_3 1_555 1_555
C7_3 C8_3 1_555 1_555
C12_3 C15_3 1_555 1_555
C21_3 C22_3 1_555 1_555
N5_3 C23_3 1_555 1_555
C23_3 H13_3 1_555 1_555
C24_3 N5_3 1_555 1_555
H14_3 C24_3 1_555 1_555
C25_3 C24_3 1_555 1_555
H15_3 C25_3 1_555 1_555
C27_3 C23_3 1_555 1_555
Cd6 N5_3 1_555 1_555
O8_3 Cd6 1_555 1_555
O16 C30_3 1_555 1_555
O19 C30_3 1_555 1_555
O20 C32_3 1_555 1_555
O12_3 Cd6 1_555 1_555
O13_2 C36_3 1_555 1_555
O24_2 C36_3 1_555 1_555
C28_3 H18_3 1_555 1_555
C29_3 C28_3 1_555 1_555
C32_3 O12_3 1_555 1_555
C33_3 C32_3 1_555 1_555
C34_3 C29_3 1_555 1_555
H20_3 C34_3 1_555 1_555
C36_3 C29_3 1_555 1_555
C38_3 C33_3 1_555 1_555
C41_3 C28_3 1_555 1_555
Cd12 O13_2 1_555 1_555
C25_3 C26_3 1_555 1_555
C26_3 C27_3 1_555 1_555
C33_3 C34_3 1_555 1_555
C38_3 C41_3 1_555 1_555
N6_2 C39_2 1_555 1_555
N7_3 N8_2 1_555 1_555
N8_2 H17_3 1_555 1_555
C35_3 H21_3 1_555 1_555
C37_3 C31_3 1_555 1_555
C39_2 N8_2 1_555 1_555
C40_3 C31_3 1_555 1_555
C42_3 N6_2 1_555 1_555
C43_3 C40_3 1_555 1_555
H23_3 C43_3 1_555 1_555
C44_3 C35_3 1_555 1_555
H24_3 C44_3 1_555 1_555
N7_3 C42_3 1_555 1_555
C35_3 C37_3 1_555 1_555
C40_3 C42_3 1_555 1_555
C43_3 C44_3 1_555 1_555
N5_4 C23_4 1_555 1_555
C23_4 H13_4 1_555 1_555
C24_4 N5_4 1_555 1_555
H14_4 C24_4 1_555 1_555
C25_4 C24_4 1_555 1_555
H15_4 C25_4 1_555 1_555
C27_4 C23_4 1_555 1_555
Cd7 N5_4 1_555 1_555
O8_4 Cd7 1_555 1_555
O16_2 C30_4 1_555 1_555
O19_2 C30_4 1_555 1_555
O20_2 C32_4 1_555 1_555
O12_4 Cd7 1_555 1_555
O22_2 C36_4 1_555 1_555
O24 C36_4 1_555 1_555
N6_3 C39_3 1_555 1_555
N7_4 N8_3 1_555 1_555
N8_3 H17_4 1_555 1_555
C28_4 H18_4 1_555 1_555
C29_4 C28_4 1_555 1_555
C30_4 C37_4 1_555 1_555
C31_4 H19_4 1_555 1_555
C32_4 O12_4 1_555 1_555
C33_4 C32_4 1_555 1_555
C34_4 C29_4 1_555 1_555
H20_4 C34_4 1_555 1_555
C35_4 H21_4 1_555 1_555
C36_4 C29_4 1_555 1_555
C37_4 C31_4 1_555 1_555
C38_4 C33_4 1_555 1_555
H22_4 C38_4 1_555 1_555
C39_3 N8_3 1_555 1_555
C40_4 C31_4 1_555 1_555
C41_4 C28_4 1_555 1_555
C42_4 N6_3 1_555 1_555
C43_4 C40_4 1_555 1_555
H23_4 C43_4 1_555 1_555
C44_4 C35_4 1_555 1_555
H24_4 C44_4 1_555 1_555
C25_4 C26_4 1_555 1_555
C26_4 C27_4 1_555 1_555
N7_4 C42_4 1_555 1_555
C33_4 C34_4 1_555 1_555
C35_4 C37_4 1_555 1_555
C38_4 C41_4 1_555 1_555
C39_3 C41_4 1_555 1_555
C40_4 C42_4 1_555 1_555
C43_4 C44_4 1_555 1_555
Cd5 O1_4 1_555 1_555
Cd12 O4_4 1_555 1_555
O15_2 C3_4 1_555 1_555
O17_2 C3_4 1_555 1_555
O4_4 C6_4 1_555 1_555
O5_4 Cd5 1_555 1_555
O21 C10_4 1_555 1_555
O23 C10_4 1_555 1_555
N1_3 C13_3 1_555 1_555
N2_4 N3_3 1_555 1_555
N3_3 H1_4 1_555 1_555
N4_4 Cd5 1_555 1_555
C1_4 H2_4 1_555 1_555
C2_4 C1_4 1_555 1_555
C3_4 C11_4 1_555 1_555
C4_4 N4_4 1_555 1_555
H3_4 C4_4 1_555 1_555
C5_4 H4_4 1_555 1_555
C6_4 O5_4 1_555 1_555
C7_4 C6_4 1_555 1_555
C8_4 C2_4 1_555 1_555
H5_4 C8_4 1_555 1_555
C9_4 H6_4 1_555 1_555
C10_4 C2_4 1_555 1_555
C11_4 C5_4 1_555 1_555
C12_4 C7_4 1_555 1_555
H7_4 C12_4 1_555 1_555
C13_3 N3_3 1_555 1_555
C14_4 C5_4 1_555 1_555
C15_4 C1_4 1_555 1_555
C16_4 N1_3 1_555 1_555
C17_4 C14_4 1_555 1_555
H8_4 C17_4 1_555 1_555
C18_4 C9_4 1_555 1_555
H9_4 C18_4 1_555 1_555
C19_4 N4_4 1_555 1_555
H10_4 C19_4 1_555 1_555
C20_4 C19_4 1_555 1_555
H11_4 C20_4 1_555 1_555
C21_4 C20_4 1_555 1_555
C22_4 C4_4 1_555 1_555
N2_4 C16_4 1_555 1_555
C7_4 C8_4 1_555 1_555
C9_4 C11_4 1_555 1_555
C12_4 C15_4 1_555 1_555
C13_3 C15_4 1_555 1_555
C14_4 C16_4 1_555 1_555
C17_4 C18_4 1_555 1_555
C21_4 C22_4 1_555 1_555
N1_4 C13_4 1_555 1_555
C13_4 N3_4 1_555 1_555
N6_4 C39_4 1_555 1_555
C39_4 N8_4 1_555 1_555

#END
