
###############################################################################
#
# This file contains modified crystal structure data generated from the
# MOF subset of the Cambridge Structural Database (CSD) v543 
# hosted by the Cambridge Crystallographic Data Centre (CCDC).
#
# This work is licensed under the Creative Commons
# Attribution-NonCommercial-ShareAlike 4.0 International License.
# To view a copy of this license, visit
# http://creativecommons.org/licenses/by-nc-sa/4.0/
# or send a letter to
# Creative Commons, PO Box 1866, Mountain View, CA 94042, USA.
#
# CIF created using the CSD Python API on 29 September 2022
# The structure has been converted into the P1 space group
# The structure has a 3D framework
# The original CSD entry HEHVOI is in the tetragonal crystal system
# The framework has been calculated to contain at least 10.0% void space
# The void calculation uses a probe of radius 1.32A, grid spacing 0.4
# H atom positions have been added when not included in the experimental data
#
###############################################################################

data_HEHVOI
_chemical_formula_moiety         '(C256 H128 O134 Zn32)n'
_symmetry_cell_setting           triclinic
_symmetry_space_group_name_H-M   'P 1'
_symmetry_Int_Tables_number      1
_space_group_name_Hall           'P 1'
loop_
_symmetry_equiv_pos_site_id
_symmetry_equiv_pos_as_xyz
1 x,y,z
_cell_length_a                   17.3809(3)
_cell_length_b                   17.3809(3)
_cell_length_c                   25.6360(8)
_cell_angle_alpha                90
_cell_angle_beta                 90
_cell_angle_gamma                90
_cell_volume                     7744.52
loop_
_atom_site_label
_atom_site_type_symbol
_atom_site_fract_x
_atom_site_fract_y
_atom_site_fract_z
O2 O 0.16555(15) 0.29355(14) 0.33673(10)
O4 O 0.28434(14) 0.05277(14) 0.13268(10)
O7 O 0.01408(13) 0.01315(16) 0.26024(10)
O8 O 0.09472(16) 0.34115(14) 0.27169(11)
C1 C 0.13440(19) 0.28901(18) 0.29309(14)
C2 C 0.14306(18) 0.21433(17) 0.26385(13)
C3 C 0.28390(16) 0.00398(16) 0.16770(12)
C12 C 0.14819(17) 0.07069(16) 0.21534(13)
C13 C 0.19007(19) 0.08426(18) 0.26053(14)
H3 H 0.2204 0.0454 0.2746
C14 C 0.1069(2) 0.13064(19) 0.19322(15)
H4 H 0.0804 0.1228 0.1621
C15 C 0.1047(2) 0.2018(2) 0.21706(15)
H5 H 0.0773 0.2418 0.2017
C16 C 0.1868(2) 0.15575(19) 0.28490(14)
H6 H 0.2143 0.1641 0.3155
Zn3 Zn 0.072031(18) 0.442533(18) 0.297054(14)
Zn5 Zn 0.427969(18) 0.057467(18) 0.202946(14)
Zn6 Zn 0.151571(19) 0.363859(19) 0.398335(14)
Zn8 Zn 0.348429(19) 0.136141(19) 0.101665(14)
Zn1 Zn 0.192533(18) 0.677969(18) 0.047054(14)
Zn2 Zn 0.113859(19) 0.598429(19) 0.148335(14)
O1 O 0.09186(13) 0.71173(13) 0.15688(11)
O3 O 0.20132(13) 0.73162(13) 0.11480(10)
O5 O 0.1896(2) 0.6107(2) 0.21350(13)
O6 O 0.33838(13) 0.98974(14) 0.19876(10)
C4 C 0.00623(17) 0.97762(16) 0.21864(12)
C5 C 0.14563(17) 0.75450(16) 0.14230(12)
C6 C 0.14537(16) 0.83673(16) 0.15947(11)
C7 C 0.07833(16) 0.87010(16) 0.17786(12)
H1 H 0.0332 0.8415 0.1792
C8 C 0.07831(16) 0.94640(16) 0.19442(12)
C9 C 0.14552(16) 0.99071(16) 0.19319(12)
C10 C 0.21199(15) 0.95644(16) 0.17313(12)
C11 C 0.21244(16) 0.88063(16) 0.15670(12)
H2 H 0.2575 0.8589 0.1438
O10 O 0.04355(14) 0.58445(15) 0.08673(10)
O11 O 0.19723(14) 0.53434(14) 0.11732(10)
O12 O 0.26026(14) 0.58838(13) 0.05124(10)
O13 O 0.23685(16) 0.76408(13) 0.01024(10)
O14 O 0.09115(14) 0.65528(16) 0.02169(11)
O15 O 0.05729(13) 0.53370(17) 0.19859(11)
H7 H 0.159979 0.628715 0.244288
H8 H 0.213734 0.560276 0.221492
Zn4 Zn 0.927969(18) 0.057467(18) 0.297054(14)
O9 O 0.94271(13) 0.96630(17) 0.19859(11)
Zn7 Zn 0.886141(19) 0.901571(19) 0.148335(14)
O1_2 O 0.03827(13) 0.34186(13) 0.40688(11)
O3_2 O 0.01838(13) 0.45132(13) 0.36480(10)
O5_2 O 0.1393(2) 0.4396(2) 0.46350(13)
O11_2 O 0.21566(14) 0.44723(14) 0.36732(10)
O12_2 O 0.16162(13) 0.51026(14) 0.30124(10)
O15_2 O 0.21630(17) 0.30729(13) 0.44859(11)
H7_2 H 0.121285 0.409979 0.494288
H8_2 H 0.189724 0.463734 0.471492
O2_2 O 0.45645(14) 0.41555(15) 0.58673(10)
O4_2 O 0.69723(14) 0.53434(14) 0.38268(10)
O6_2 O 0.76026(14) 0.58838(13) 0.44876(10)
O7_2 O 0.73685(16) 0.26408(13) 0.51024(10)
O8_2 O 0.40885(14) 0.34472(16) 0.52169(11)
O9_2 O 0.78370(17) 0.19271(13) 0.44859(11)
C1_2 C 0.46099(18) 0.38440(19) 0.54309(14)
C2_2 C 0.53567(17) 0.39306(18) 0.51385(13)
C3_2 C 0.74602(16) 0.53390(16) 0.41770(12)
C4_2 C 0.77238(16) 0.25623(17) 0.46864(12)
C5_2 C 0.99550(16) 0.39563(17) 0.39230(12)
C6_2 C 0.91327(16) 0.39537(16) 0.40947(11)
C7_2 C 0.87990(16) 0.32833(16) 0.42786(12)
H1_2 H 0.9085 0.2832 0.4292
C8_2 C 0.80360(16) 0.32831(16) 0.44442(12)
C9_2 C 0.75929(16) 0.39552(16) 0.44319(12)
C10_2 C 0.79356(16) 0.46199(15) 0.42313(12)
C11_2 C 0.86937(16) 0.46244(16) 0.40670(12)
H2_2 H 0.8911 0.5075 0.3938
C12_2 C 0.67931(16) 0.39819(17) 0.46534(13)
C13_2 C 0.66574(18) 0.44007(19) 0.51053(14)
H3_2 H 0.7046 0.4704 0.5246
C14_2 C 0.61936(19) 0.3569(2) 0.44322(15)
H4_2 H 0.6272 0.3304 0.4121
C15_2 C 0.5482(2) 0.3547(2) 0.46706(15)
H5_2 H 0.5082 0.3273 0.4517
C16_2 C 0.59425(19) 0.4368(2) 0.53490(14)
H6_2 H 0.5859 0.4643 0.5655
Zn3_2 Zn 0.307467(18) 0.322031(18) 0.547054(14)
Zn4_2 Zn 0.692533(18) 0.177969(18) 0.547054(14)
Zn5_2 Zn 0.692533(18) 0.677969(18) 0.452946(14)
Zn6_2 Zn 0.386141(19) 0.401571(19) 0.648335(14)
Zn7_2 Zn 0.848429(19) 0.136141(19) 0.398335(14)
Zn8_2 Zn 0.613859(19) 0.598429(19) 0.351665(14)
O13_2 O 0.98592(13) 0.48685(16) 0.26024(10)
O1_3 O 0.40814(13) 0.28827(13) 0.65688(11)
O3_3 O 0.29868(13) 0.26838(13) 0.61480(10)
O5_3 O 0.3104(2) 0.3893(2) 0.71350(13)
O6_3 O 0.16162(13) 0.01026(14) 0.69876(10)
O9_3 O 0.55729(13) 0.03370(17) 0.69859(11)
C4_3 C 0.49377(17) 0.02238(16) 0.71864(12)
C5_3 C 0.35437(17) 0.24550(16) 0.64230(12)
C6_3 C 0.35463(16) 0.16327(16) 0.65947(11)
C7_3 C 0.42167(16) 0.12990(16) 0.67786(12)
H1_3 H 0.4668 0.1585 0.6792
C8_3 C 0.42169(16) 0.05360(16) 0.69442(12)
C9_3 C 0.35448(16) 0.00929(16) 0.69319(12)
C10_3 C 0.28801(15) 0.04356(16) 0.67313(12)
C11_3 C 0.28756(16) 0.11937(16) 0.65670(12)
H2_3 H 0.2425 0.1411 0.6438
Zn7_3 Zn 0.613859(19) 0.098429(19) 0.648335(14)
O11_3 O 0.30277(14) 0.46566(14) 0.61732(10)
O12_3 O 0.23974(14) 0.41162(13) 0.55124(10)
O13_3 O 0.26315(16) 0.23592(13) 0.51024(10)
O15_3 O 0.44271(13) 0.46630(17) 0.69859(11)
H7_3 H 0.340021 0.371285 0.744288
H8_3 H 0.286266 0.439724 0.721492
O2_3 O 0.33445(15) 0.70645(14) 0.83673(10)
O4_3 O 0.21566(14) 0.94723(14) 0.63268(10)
O7_3 O 0.48592(13) 0.98685(16) 0.76024(10)
O8_3 O 0.40528(16) 0.65885(14) 0.77169(11)
C1_3 C 0.36560(19) 0.71099(18) 0.79309(14)
C2_3 C 0.35694(18) 0.78567(17) 0.76385(13)
C3_3 C 0.21610(16) 0.99602(16) 0.66770(12)
C12_3 C 0.35181(17) 0.92931(16) 0.71534(13)
C13_3 C 0.30993(19) 0.91574(18) 0.76053(14)
H3_3 H 0.2796 0.9546 0.7746
C14_3 C 0.3931(2) 0.86936(19) 0.69322(15)
H4_3 H 0.4196 0.8772 0.6621
C15_3 C 0.3953(2) 0.7982(2) 0.71706(15)
H5_3 H 0.4227 0.7582 0.7017
C16_3 C 0.3132(2) 0.84425(19) 0.78490(14)
H6_3 H 0.2857 0.8359 0.8155
Zn3_3 Zn 0.427969(18) 0.557467(18) 0.797054(14)
Zn4_3 Zn 0.572031(18) 0.942533(18) 0.797054(14)
Zn5_3 Zn 0.072031(18) 0.942533(18) 0.702946(14)
Zn6_3 Zn 0.348429(19) 0.636141(19) 0.898335(14)
Zn8_3 Zn 0.151571(19) 0.863859(19) 0.601665(14)
C1_4 C 0.03901(18) 0.61560(19) 0.04309(14)
O7_4 O 0.76315(16) 0.73592(13) 0.01024(10)
C2_4 C 0.96433(17) 0.60694(18) 0.01385(13)
C13_4 C 0.83426(18) 0.55993(19) 0.01053(14)
H3_4 H 0.7954 0.5296 0.0246
C16_4 C 0.90575(19) 0.5632(2) 0.03490(14)
H6_4 H 0.9141 0.5357 0.0655
Zn4_4 Zn 0.807467(18) 0.822031(18) 0.047054(14)
O1_4 O 0.46173(13) 0.65814(13) 0.90688(11)
O3_4 O 0.48162(13) 0.54868(13) 0.86480(10)
O4_4 O 0.80277(14) 0.46566(14) 0.88268(10)
O5_4 O 0.3607(2) 0.5604(2) 0.96350(13)
O6_4 O 0.73974(14) 0.41162(13) 0.94876(10)
O9_4 O 0.71630(17) 0.80729(13) 0.94859(11)
C3_4 C 0.75398(16) 0.46610(16) 0.91770(12)
C4_4 C 0.72762(16) 0.74377(17) 0.96864(12)
C5_4 C 0.50450(16) 0.60437(17) 0.89230(12)
C6_4 C 0.58673(16) 0.60463(16) 0.90947(11)
C7_4 C 0.62010(16) 0.67167(16) 0.92786(12)
H1_4 H 0.5915 0.7168 0.9292
C8_4 C 0.69640(16) 0.67169(16) 0.94442(12)
C9_4 C 0.74071(16) 0.60448(16) 0.94319(12)
C10_4 C 0.70644(16) 0.53801(15) 0.92313(12)
C11_4 C 0.63063(16) 0.53756(16) 0.90670(12)
H2_4 H 0.6089 0.4925 0.8938
C12_4 C 0.82069(16) 0.60181(17) 0.96534(13)
C14_4 C 0.88064(19) 0.6431(2) 0.94322(15)
H4_4 H 0.8728 0.6696 0.9121
C15_4 C 0.9518(2) 0.6453(2) 0.96706(15)
H5_4 H 0.9918 0.6727 0.9517
Zn5_4 Zn 0.807467(18) 0.322031(18) 0.952946(14)
Zn7_4 Zn 0.651571(19) 0.863859(19) 0.898335(14)
Zn8_4 Zn 0.886141(19) 0.401571(19) 0.851665(14)
O11_4 O 0.28434(14) 0.55277(14) 0.86732(10)
O12_4 O 0.33838(13) 0.48974(14) 0.80124(10)
O13_4 O 0.51408(13) 0.51315(16) 0.76024(10)
O15_4 O 0.28370(17) 0.69271(13) 0.94859(11)
H7_4 H 0.378715 0.590021 0.994288
H8_4 H 0.310276 0.536266 0.971492
O1_5 O 0.59186(13) 0.21173(13) 0.65688(11)
O2_4 O 0.66555(15) 0.79355(14) 0.83673(10)
O3_5 O 0.70132(13) 0.23162(13) 0.61480(10)
O4_5 O 0.78434(14) 0.55277(14) 0.63268(10)
O5_5 O 0.6896(2) 0.1107(2) 0.71350(13)
O6_5 O 0.83838(13) 0.48974(14) 0.69876(10)
O8_4 O 0.59472(16) 0.84115(14) 0.77169(11)
C1_5 C 0.63440(19) 0.78901(18) 0.79309(14)
C2_5 C 0.64306(18) 0.71433(17) 0.76385(13)
C3_5 C 0.78390(16) 0.50398(16) 0.66770(12)
C4_5 C 0.50623(17) 0.47762(16) 0.71864(12)
C5_5 C 0.64563(17) 0.25450(16) 0.64230(12)
C6_5 C 0.64537(16) 0.33673(16) 0.65947(11)
C7_5 C 0.57833(16) 0.37010(16) 0.67786(12)
H1_5 H 0.5332 0.3415 0.6792
C8_5 C 0.57831(16) 0.44640(16) 0.69442(12)
C9_5 C 0.64552(16) 0.49071(16) 0.69319(12)
C10_5 C 0.71199(15) 0.45644(16) 0.67313(12)
C11_5 C 0.71244(16) 0.38063(16) 0.65670(12)
H2_5 H 0.7575 0.3589 0.6438
C12_5 C 0.64819(17) 0.57069(16) 0.71534(13)
C13_5 C 0.69007(19) 0.58426(18) 0.76053(14)
H3_5 H 0.7204 0.5454 0.7746
C14_5 C 0.6069(2) 0.63064(19) 0.69322(15)
H4_5 H 0.5804 0.6228 0.6621
C15_5 C 0.6047(2) 0.7018(2) 0.71706(15)
H5_5 H 0.5773 0.7418 0.7017
C16_5 C 0.6868(2) 0.65575(19) 0.78490(14)
H6_5 H 0.7143 0.6641 0.8155
Zn5_5 Zn 0.927969(18) 0.557467(18) 0.702946(14)
Zn8_5 Zn 0.848429(19) 0.636141(19) 0.601665(14)
O10_2 O 0.54355(14) 0.08445(15) 0.58673(10)
O11_5 O 0.69723(14) 0.03434(14) 0.61732(10)
O12_5 O 0.76026(14) 0.08838(13) 0.55124(10)
O14_2 O 0.59115(14) 0.15528(16) 0.52169(11)
H7_5 H 0.659979 0.128715 0.744288
H8_5 H 0.713734 0.0602755 0.721492
O4_6 O 0.19723(14) 0.03434(14) 0.88268(10)
O6_6 O 0.26026(14) 0.08838(13) 0.94876(10)
C3_6 C 0.24602(16) 0.03390(16) 0.91770(12)
H2_6 H 0.3911 0.0075 0.8938
Zn5_6 Zn 0.192533(18) 0.177969(18) 0.952946(14)
Zn8_6 Zn 0.113859(19) 0.098429(19) 0.851665(14)
O12_6 O 0.66162(13) 0.01026(14) 0.80124(10)
C2_6 C 0.03567(17) 0.89306(18) 0.01385(13)
C13_6 C 0.16574(18) 0.94007(19) 0.01053(14)
H3_6 H 0.2046 0.9704 0.0246
C16_6 C 0.09425(19) 0.9368(2) 0.03490(14)
H6_6 H 0.0859 0.9643 0.0655
O1_6 O 0.53827(13) 0.84186(13) 0.90688(11)
O3_6 O 0.51838(13) 0.95132(13) 0.86480(10)
O5_6 O 0.6393(2) 0.9396(2) 0.96350(13)
C4_6 C 0.27238(16) 0.75623(17) 0.96864(12)
C5_6 C 0.49550(16) 0.89563(17) 0.89230(12)
C6_6 C 0.41327(16) 0.89537(16) 0.90947(11)
C7_6 C 0.37990(16) 0.82833(16) 0.92786(12)
H1_6 H 0.4085 0.7832 0.9292
C8_6 C 0.30360(16) 0.82831(16) 0.94442(12)
C9_6 C 0.25929(16) 0.89552(16) 0.94319(12)
C10_6 C 0.29356(16) 0.96199(15) 0.92313(12)
C11_6 C 0.36937(16) 0.96244(16) 0.90670(12)
C12_6 C 0.17931(16) 0.89819(17) 0.96534(13)
C14_6 C 0.11936(19) 0.8569(2) 0.94322(15)
H4_6 H 0.1272 0.8304 0.9121
C15_6 C 0.0482(2) 0.8547(2) 0.96706(15)
H5_6 H 0.0082 0.8273 0.9517
O11_6 O 0.71566(14) 0.94723(14) 0.86732(10)
H7_6 H 0.621285 0.909979 0.994288
H8_6 H 0.689724 0.963734 0.971492
O2_5 O 0.95645(14) 0.91555(15) 0.08673(10)
O8_5 O 0.90885(14) 0.84472(16) 0.02169(11)
C1_6 C 0.96099(18) 0.88440(19) 0.04309(14)
O1_7 O 0.90814(13) 0.78827(13) 0.15688(11)
O2_6 O 0.83445(15) 0.20645(14) 0.33673(10)
O3_7 O 0.79868(13) 0.76838(13) 0.11480(10)
O4_7 O 0.71566(14) 0.44723(14) 0.13268(10)
O5_7 O 0.8104(2) 0.8893(2) 0.21350(13)
O6_7 O 0.66162(13) 0.51026(14) 0.19876(10)
O8_6 O 0.90528(16) 0.15885(14) 0.27169(11)
C1_7 C 0.86560(19) 0.21099(18) 0.29309(14)
C2_7 C 0.85694(18) 0.28567(17) 0.26385(13)
C3_7 C 0.71610(16) 0.49602(16) 0.16770(12)
C4_7 C 0.99377(17) 0.52238(16) 0.21864(12)
C5_7 C 0.85437(17) 0.74550(16) 0.14230(12)
C6_7 C 0.85463(16) 0.66327(16) 0.15947(11)
C7_7 C 0.92167(16) 0.62990(16) 0.17786(12)
H1_7 H 0.9668 0.6585 0.1792
C8_7 C 0.92169(16) 0.55360(16) 0.19442(12)
C9_7 C 0.85448(16) 0.50929(16) 0.19319(12)
C10_7 C 0.78801(15) 0.54356(16) 0.17313(12)
C11_7 C 0.78756(16) 0.61937(16) 0.15670(12)
H2_7 H 0.7425 0.6411 0.1438
C12_7 C 0.85181(17) 0.42931(16) 0.21534(13)
C13_7 C 0.80993(19) 0.41574(18) 0.26053(14)
H3_7 H 0.7796 0.4546 0.2746
C14_7 C 0.8931(2) 0.36936(19) 0.19322(15)
H4_7 H 0.9196 0.3772 0.1621
C15_7 C 0.8953(2) 0.2982(2) 0.21706(15)
H5_7 H 0.9227 0.2582 0.2017
C16_7 C 0.8132(2) 0.34425(19) 0.28490(14)
H6_7 H 0.7857 0.3359 0.3155
Zn5_7 Zn 0.572031(18) 0.442533(18) 0.202946(14)
Zn8_7 Zn 0.651571(19) 0.363859(19) 0.101665(14)
O11_7 O 0.80277(14) 0.96566(14) 0.11732(10)
O12_7 O 0.73974(14) 0.91162(13) 0.05124(10)
H7_7 H 0.840021 0.871285 0.244288
H8_7 H 0.786266 0.939724 0.221492
C1_8 C 0.53901(18) 0.11560(19) 0.54309(14)
C2_8 C 0.46433(17) 0.10694(18) 0.51385(13)
C4_8 C 0.22762(16) 0.24377(17) 0.46864(12)
C5_8 C 0.00450(16) 0.10437(17) 0.39230(12)
C6_8 C 0.08673(16) 0.10463(16) 0.40947(11)
C7_8 C 0.12010(16) 0.17167(16) 0.42786(12)
H1_8 H 0.0915 0.2168 0.4292
C8_8 C 0.19640(16) 0.17169(16) 0.44442(12)
C9_8 C 0.24071(16) 0.10448(16) 0.44319(12)
C10_8 C 0.20644(16) 0.03801(15) 0.42313(12)
C11_8 C 0.13063(16) 0.03756(16) 0.40670(12)
C12_8 C 0.32069(16) 0.10181(17) 0.46534(13)
C13_8 C 0.33426(18) 0.05993(19) 0.51053(14)
H3_8 H 0.2954 0.0296 0.5246
C14_8 C 0.38064(19) 0.1431(2) 0.44322(15)
H4_8 H 0.3728 0.1696 0.4121
C15_8 C 0.4518(2) 0.1453(2) 0.46706(15)
H5_8 H 0.4918 0.1727 0.4517
C16_8 C 0.40575(19) 0.0632(2) 0.53490(14)
H6_8 H 0.4141 0.0357 0.5655
O4_8 O 0.30277(14) 0.96566(14) 0.38268(10)
O6_8 O 0.23974(14) 0.91162(13) 0.44876(10)
C3_8 C 0.25398(16) 0.96610(16) 0.41770(12)
H2_8 H 0.1089 0.9925 0.3938
Zn5_8 Zn 0.307467(18) 0.822031(18) 0.452946(14)
Zn8_8 Zn 0.386141(19) 0.901571(19) 0.351665(14)
O1_8 O 0.96173(13) 0.15814(13) 0.40688(11)
O3_8 O 0.98162(13) 0.04868(13) 0.36480(10)
O5_8 O 0.8607(2) 0.0604(2) 0.46350(13)
O11_8 O 0.78434(14) 0.05277(14) 0.36732(10)
H7_8 H 0.878715 0.0900213 0.494288
H8_8 H 0.810276 0.0362657 0.471492
O12_8 O 0.83838(13) 0.98974(14) 0.30124(10)
O9_5 O 0.05729(13) 0.03370(17) 0.80141(11)
O1_9 O 0.90814(13) 0.28827(13) 0.84312(11)
O3_9 O 0.79868(13) 0.26838(13) 0.88520(10)
O5_9 O 0.8104(2) 0.3893(2) 0.78650(13)
C4_9 C 0.99377(17) 0.02238(16) 0.78136(12)
C5_9 C 0.85437(17) 0.24550(16) 0.85770(12)
C6_9 C 0.85463(16) 0.16327(16) 0.84053(11)
C7_9 C 0.92167(16) 0.12990(16) 0.82214(12)
H1_9 H 0.9668 0.1585 0.8208
C8_9 C 0.92169(16) 0.05360(16) 0.80558(12)
C9_9 C 0.85448(16) 0.00929(16) 0.80681(12)
C10_9 C 0.78801(15) 0.04356(16) 0.82687(12)
C11_9 C 0.78756(16) 0.11937(16) 0.84330(12)
H2_9 H 0.7425 0.1411 0.8562
O10_3 O 0.95645(14) 0.41555(15) 0.91327(10)
O13_5 O 0.76315(16) 0.23592(13) 0.98976(10)
O14_3 O 0.90885(14) 0.34472(16) 0.97831(11)
O15_5 O 0.94271(13) 0.46630(17) 0.80141(11)
H7_9 H 0.840021 0.371285 0.755712
H8_9 H 0.786266 0.439724 0.778508
O2_7 O 0.83445(15) 0.70645(14) 0.66327(10)
O7_5 O 0.98592(13) 0.98685(16) 0.73976(10)
O8_7 O 0.90528(16) 0.65885(14) 0.72831(11)
C1_9 C 0.86560(19) 0.71099(18) 0.70691(14)
C2_9 C 0.85694(18) 0.78567(17) 0.73615(13)
C3_9 C 0.71610(16) 0.99602(16) 0.83230(12)
C12_9 C 0.85181(17) 0.92931(16) 0.78466(13)
C13_9 C 0.80993(19) 0.91574(18) 0.73947(14)
H3_9 H 0.7796 0.9546 0.7254
C14_9 C 0.8931(2) 0.86936(19) 0.80678(15)
H4_9 H 0.9196 0.8772 0.8379
C15_9 C 0.8953(2) 0.7982(2) 0.78294(15)
H5_9 H 0.9227 0.7582 0.7983
C16_9 C 0.8132(2) 0.84425(19) 0.71510(14)
H6_9 H 0.7857 0.8359 0.6845
O2_8 O 0.54355(14) 0.58445(15) 0.41327(10)
O7_6 O 0.26315(16) 0.73592(13) 0.48976(10)
O8_8 O 0.59115(14) 0.65528(16) 0.47831(11)
O9_6 O 0.21630(17) 0.80729(13) 0.55141(11)
C1_10 C 0.53901(18) 0.61560(19) 0.45691(14)
C2_10 C 0.46433(17) 0.60694(18) 0.48615(13)
C3_10 C 0.25398(16) 0.46610(16) 0.58230(12)
C4_10 C 0.22762(16) 0.74377(17) 0.53136(12)
C5_10 C 0.00450(16) 0.60437(17) 0.60770(12)
C6_10 C 0.08673(16) 0.60463(16) 0.59053(11)
C7_10 C 0.12010(16) 0.67167(16) 0.57214(12)
H1_10 H 0.0915 0.7168 0.5708
C8_10 C 0.19640(16) 0.67169(16) 0.55558(12)
C9_10 C 0.24071(16) 0.60448(16) 0.55681(12)
C10_10 C 0.20644(16) 0.53801(15) 0.57687(12)
C11_10 C 0.13063(16) 0.53756(16) 0.59330(12)
H2_10 H 0.1089 0.4925 0.6062
C12_10 C 0.32069(16) 0.60181(17) 0.53466(13)
C13_10 C 0.33426(18) 0.55993(19) 0.48947(14)
H3_10 H 0.2954 0.5296 0.4754
C14_10 C 0.38064(19) 0.6431(2) 0.55678(15)
H4_10 H 0.3728 0.6696 0.5879
C15_10 C 0.4518(2) 0.6453(2) 0.53294(15)
H5_10 H 0.4918 0.6727 0.5483
C16_10 C 0.40575(19) 0.5632(2) 0.46510(14)
H6_10 H 0.4141 0.5357 0.4345
O13_6 O 0.01408(13) 0.51315(16) 0.73976(10)
O1_10 O 0.96173(13) 0.65814(13) 0.59312(11)
O3_10 O 0.98162(13) 0.54868(13) 0.63520(10)
O5_10 O 0.8607(2) 0.5604(2) 0.53650(13)
O15_6 O 0.78370(17) 0.69271(13) 0.55141(11)
H7_10 H 0.878715 0.590021 0.505712
H8_10 H 0.810276 0.536266 0.528508
O2_9 O 0.66555(15) 0.29355(14) 0.16327(10)
O7_7 O 0.51408(13) 0.01315(16) 0.23976(10)
O8_9 O 0.59472(16) 0.34115(14) 0.22831(11)
C1_11 C 0.63440(19) 0.28901(18) 0.20691(14)
C2_11 C 0.64306(18) 0.21433(17) 0.23615(13)
C3_11 C 0.78390(16) 0.00398(16) 0.33230(12)
C12_11 C 0.64819(17) 0.07069(16) 0.28466(13)
C13_11 C 0.69007(19) 0.08426(18) 0.23947(14)
H3_11 H 0.7204 0.0454 0.2254
C14_11 C 0.6069(2) 0.13064(19) 0.30678(15)
H4_11 H 0.5804 0.1228 0.3379
C15_11 C 0.6047(2) 0.2018(2) 0.28294(15)
H5_11 H 0.5773 0.2418 0.2983
C16_11 C 0.6868(2) 0.15575(19) 0.21510(14)
H6_11 H 0.7143 0.1641 0.1845
O1_11 O 0.59186(13) 0.71173(13) 0.34312(11)
O3_11 O 0.70132(13) 0.73162(13) 0.38520(10)
O5_11 O 0.6896(2) 0.6107(2) 0.28650(13)
O9_7 O 0.44271(13) 0.96630(17) 0.30141(11)
C4_11 C 0.50623(17) 0.97762(16) 0.28136(12)
C5_11 C 0.64563(17) 0.75450(16) 0.35770(12)
C6_11 C 0.64537(16) 0.83673(16) 0.34053(11)
C7_11 C 0.57833(16) 0.87010(16) 0.32214(12)
H1_11 H 0.5332 0.8415 0.3208
C8_11 C 0.57831(16) 0.94640(16) 0.30558(12)
C9_11 C 0.64552(16) 0.99071(16) 0.30681(12)
C10_11 C 0.71199(15) 0.95644(16) 0.32687(12)
C11_11 C 0.71244(16) 0.88063(16) 0.34330(12)
H2_11 H 0.7575 0.8589 0.3562
O13_7 O 0.73685(16) 0.76408(13) 0.48976(10)
O15_7 O 0.55729(13) 0.53370(17) 0.30141(11)
H7_11 H 0.659979 0.628715 0.255712
H8_11 H 0.713734 0.560276 0.278508
O1_12 O 0.53827(13) 0.34186(13) 0.09312(11)
O3_12 O 0.51838(13) 0.45132(13) 0.13520(10)
O5_12 O 0.6393(2) 0.4396(2) 0.03650(13)
O9_8 O 0.28370(17) 0.19271(13) 0.05141(11)
C3_12 C 0.24602(16) 0.53390(16) 0.08230(12)
C4_12 C 0.27238(16) 0.25623(17) 0.03136(12)
C5_12 C 0.49550(16) 0.39563(17) 0.10770(12)
C6_12 C 0.41327(16) 0.39537(16) 0.09053(11)
C7_12 C 0.37990(16) 0.32833(16) 0.07214(12)
H1_12 H 0.4085 0.2832 0.0708
C8_12 C 0.30360(16) 0.32831(16) 0.05558(12)
C9_12 C 0.25929(16) 0.39552(16) 0.05681(12)
C10_12 C 0.29356(16) 0.46199(15) 0.07687(12)
C11_12 C 0.36937(16) 0.46244(16) 0.09330(12)
H2_12 H 0.3911 0.5075 0.1062
C12_12 C 0.17931(16) 0.39819(17) 0.03466(13)
C14_12 C 0.11936(19) 0.3569(2) 0.05678(15)
H4_12 H 0.1272 0.3304 0.0879
C15_12 C 0.0482(2) 0.3547(2) 0.03294(15)
H5_12 H 0.0082 0.3273 0.0483
O13_8 O 0.48592(13) 0.48685(16) 0.23976(10)
O15_8 O 0.71630(17) 0.30729(13) 0.05141(11)
H7_12 H 0.621285 0.409979 0.00571246
H8_12 H 0.689724 0.463734 0.0285084
O7_8 O 0.23685(16) 0.26408(13) 0.98976(10)
C2_12 C 0.03567(17) 0.39306(18) 0.98615(13)
C13_12 C 0.16574(18) 0.44007(19) 0.98947(14)
H3_12 H 0.2046 0.4704 0.9754
C16_12 C 0.09425(19) 0.4368(2) 0.96510(14)
H6_12 H 0.0859 0.4643 0.9345
C1_12 C 0.96099(18) 0.38440(19) 0.95691(14)
O1_13 O 0.40814(13) 0.78827(13) 0.34312(11)
O2_10 O 0.33445(15) 0.20645(14) 0.16327(10)
O3_13 O 0.29868(13) 0.76838(13) 0.38520(10)
O5_13 O 0.3104(2) 0.8893(2) 0.28650(13)
O8_10 O 0.40528(16) 0.15885(14) 0.22831(11)
C1_13 C 0.36560(19) 0.21099(18) 0.20691(14)
C2_13 C 0.35694(18) 0.28567(17) 0.23615(13)
C3_13 C 0.21610(16) 0.49602(16) 0.33230(12)
C4_13 C 0.49377(17) 0.52238(16) 0.28136(12)
C5_13 C 0.35437(17) 0.74550(16) 0.35770(12)
C6_13 C 0.35463(16) 0.66327(16) 0.34053(11)
C7_13 C 0.42167(16) 0.62990(16) 0.32214(12)
H1_13 H 0.4668 0.6585 0.3208
C8_13 C 0.42169(16) 0.55360(16) 0.30558(12)
C9_13 C 0.35448(16) 0.50929(16) 0.30681(12)
C10_13 C 0.28801(15) 0.54356(16) 0.32687(12)
C11_13 C 0.28756(16) 0.61937(16) 0.34330(12)
H2_13 H 0.2425 0.6411 0.3562
C12_13 C 0.35181(17) 0.42931(16) 0.28466(13)
C13_13 C 0.30993(19) 0.41574(18) 0.23947(14)
H3_13 H 0.2796 0.4546 0.2254
C14_13 C 0.3931(2) 0.36936(19) 0.30678(15)
H4_13 H 0.4196 0.3772 0.3379
C15_13 C 0.3953(2) 0.2982(2) 0.28294(15)
H5_13 H 0.4227 0.2582 0.2983
C16_13 C 0.3132(2) 0.34425(19) 0.21510(14)
H6_13 H 0.2857 0.3359 0.1845
O10_4 O 0.45645(14) 0.91555(15) 0.41327(10)
O14_4 O 0.40885(14) 0.84472(16) 0.47831(11)
H7_13 H 0.340021 0.871285 0.255712
H8_13 H 0.286266 0.939724 0.278508
O2_11 O 0.04355(14) 0.08445(15) 0.91327(10)
O8_11 O 0.09115(14) 0.15528(16) 0.97831(11)
C1_14 C 0.03901(18) 0.11560(19) 0.95691(14)
O1_14 O 0.46173(13) 0.15814(13) 0.09312(11)
O3_14 O 0.48162(13) 0.04868(13) 0.13520(10)
O5_14 O 0.3607(2) 0.0604(2) 0.03650(13)
C4_14 C 0.72762(16) 0.24377(17) 0.03136(12)
C5_14 C 0.50450(16) 0.10437(17) 0.10770(12)
C6_14 C 0.58673(16) 0.10463(16) 0.09053(11)
C7_14 C 0.62010(16) 0.17167(16) 0.07214(12)
H1_14 H 0.5915 0.2168 0.0708
C8_14 C 0.69640(16) 0.17169(16) 0.05558(12)
C9_14 C 0.74071(16) 0.10448(16) 0.05681(12)
C10_14 C 0.70644(16) 0.03801(15) 0.07687(12)
C11_14 C 0.63063(16) 0.03756(16) 0.09330(12)
C12_14 C 0.82069(16) 0.10181(17) 0.03466(13)
C14_14 C 0.88064(19) 0.1431(2) 0.05678(15)
H4_14 H 0.8728 0.1696 0.0879
C15_14 C 0.9518(2) 0.1453(2) 0.03294(15)
H5_14 H 0.9918 0.1727 0.0483
H7_14 H 0.378715 0.0900213 0.00571246
H8_14 H 0.310276 0.0362657 0.0285084
C2_14 C 0.96433(17) 0.10694(18) 0.98615(13)
C13_14 C 0.83426(18) 0.05993(19) 0.98947(14)
H3_14 H 0.7954 0.0296 0.9754
C16_14 C 0.90575(19) 0.0632(2) 0.96510(14)
H6_14 H 0.9141 0.0357 0.9345
C3_14 C 0.75398(16) 0.96610(16) 0.08230(12)
H2_14 H 0.6089 0.9925 0.1062
O1_15 O 0.09186(13) 0.21173(13) 0.84312(11)
O2_12 O 0.16555(15) 0.79355(14) 0.66327(10)
O3_15 O 0.20132(13) 0.23162(13) 0.88520(10)
O5_15 O 0.1896(2) 0.1107(2) 0.78650(13)
O8_12 O 0.09472(16) 0.84115(14) 0.72831(11)
C1_15 C 0.13440(19) 0.78901(18) 0.70691(14)
C2_15 C 0.14306(18) 0.71433(17) 0.73615(13)
C3_15 C 0.28390(16) 0.50398(16) 0.83230(12)
C4_15 C 0.00623(17) 0.47762(16) 0.78136(12)
C5_15 C 0.14563(17) 0.25450(16) 0.85770(12)
C6_15 C 0.14537(16) 0.33673(16) 0.84053(11)
C7_15 C 0.07833(16) 0.37010(16) 0.82214(12)
H1_15 H 0.0332 0.3415 0.8208
C8_15 C 0.07831(16) 0.44640(16) 0.80558(12)
C9_15 C 0.14552(16) 0.49071(16) 0.80681(12)
C10_15 C 0.21199(15) 0.45644(16) 0.82687(12)
C11_15 C 0.21244(16) 0.38063(16) 0.84330(12)
H2_15 H 0.2575 0.3589 0.8562
C12_15 C 0.14819(17) 0.57069(16) 0.78466(13)
C13_15 C 0.19007(19) 0.58426(18) 0.73947(14)
H3_15 H 0.2204 0.5454 0.7254
C14_15 C 0.1069(2) 0.63064(19) 0.80678(15)
H4_15 H 0.0804 0.6228 0.8379
C15_15 C 0.1047(2) 0.7018(2) 0.78294(15)
H5_15 H 0.0773 0.7418 0.7983
C16_15 C 0.1868(2) 0.65575(19) 0.71510(14)
H6_15 H 0.2143 0.6641 0.6845
H7_15 H 0.159979 0.128715 0.755712
H8_15 H 0.213734 0.0602755 0.778508
O1_16 O 0.03827(13) 0.84186(13) 0.59312(11)
O3_16 O 0.01838(13) 0.95132(13) 0.63520(10)
O5_16 O 0.1393(2) 0.9396(2) 0.53650(13)
H7_16 H 0.121285 0.909979 0.505712
H8_16 H 0.189724 0.963734 0.528508
C3_16 C 0.74602(16) 0.03390(16) 0.58230(12)
H2_16 H 0.8911 0.0075 0.6062
C1_16 C 0.46099(18) 0.88440(19) 0.45691(14)
C2_16 C 0.53567(17) 0.89306(18) 0.48615(13)
C4_16 C 0.77238(16) 0.75623(17) 0.53136(12)
C5_16 C 0.99550(16) 0.89563(17) 0.60770(12)
C6_16 C 0.91327(16) 0.89537(16) 0.59053(11)
C7_16 C 0.87990(16) 0.82833(16) 0.57214(12)
H1_16 H 0.9085 0.7832 0.5708
C8_16 C 0.80360(16) 0.82831(16) 0.55558(12)
C9_16 C 0.75929(16) 0.89552(16) 0.55681(12)
C10_16 C 0.79356(16) 0.96199(15) 0.57687(12)
C11_16 C 0.86937(16) 0.96244(16) 0.59330(12)
C12_16 C 0.67931(16) 0.89819(17) 0.53466(13)
C13_16 C 0.66574(18) 0.94007(19) 0.48947(14)
H3_16 H 0.7046 0.9704 0.4754
C14_16 C 0.61936(19) 0.8569(2) 0.55678(15)
H4_16 H 0.6272 0.8304 0.5879
C15_16 C 0.5482(2) 0.8547(2) 0.53294(15)
H5_16 H 0.5082 0.8273 0.5483
C16_16 C 0.59425(19) 0.9368(2) 0.46510(14)
H6_16 H 0.5859 0.9643 0.4345
loop_
_geom_bond_atom_site_label_1
_geom_bond_atom_site_label_2
_geom_bond_site_symmetry_1
_geom_bond_site_symmetry_2
O2 C1 1_555 1_555
O4 C3 1_555 1_555
O8 C1 1_555 1_555
C1 C2 1_555 1_555
C2 C15 1_555 1_555
C13 C12 1_555 1_555
H3 C13 1_555 1_555
C14 C12 1_555 1_555
H4 C14 1_555 1_555
C15 C14 1_555 1_555
H5 C15 1_555 1_555
C16 C2 1_555 1_555
H6 C16 1_555 1_555
Zn3 O8 1_555 1_555
Zn6 O2 1_555 1_555
Zn8 O4 1_555 1_555
C13 C16 1_555 1_555
Zn1 O3 1_555 1_555
Zn2 O1 1_555 1_555
O1 C5 1_555 1_555
O3 C5 1_555 1_555
O5 Zn2 1_555 1_555
C4 C8 1_555 1_555
C5 C6 1_555 1_555
C6 C7 1_555 1_555
C7 H1 1_555 1_555
C8 C7 1_555 1_555
C9 C8 1_555 1_555
C10 C9 1_555 1_555
C11 C6 1_555 1_555
H2 C11 1_555 1_555
O10 Zn2 1_555 1_555
O11 Zn2 1_555 1_555
O12 Zn1 1_555 1_555
O13 Zn1 1_555 1_555
O14 Zn1 1_555 1_555
O15 Zn2 1_555 1_555
C10 C11 1_555 1_555
O5 H7 1_555 1_555
O5 H8 1_555 1_555
Zn7 O9 1_555 1_555
Zn3 O3_2 1_555 1_555
Zn6 O1_2 1_555 1_555
O5_2 Zn6 1_555 1_555
O11_2 Zn6 1_555 1_555
O12_2 Zn3 1_555 1_555
O15_2 Zn6 1_555 1_555
O5_2 H7_2 1_555 1_555
O5_2 H8_2 1_555 1_555
O2_2 C1_2 1_555 1_555
O4_2 C3_2 1_555 1_555
O6_2 C3_2 1_555 1_555
O7_2 C4_2 1_555 1_555
O8_2 C1_2 1_555 1_555
O9_2 C4_2 1_555 1_555
C1_2 C2_2 1_555 1_555
C2_2 C15_2 1_555 1_555
C3_2 C10_2 1_555 1_555
C4_2 C8_2 1_555 1_555
C5_2 C6_2 1_555 1_555
C6_2 C7_2 1_555 1_555
C7_2 H1_2 1_555 1_555
C8_2 C7_2 1_555 1_555
C9_2 C8_2 1_555 1_555
C10_2 C9_2 1_555 1_555
C11_2 C6_2 1_555 1_555
H2_2 C11_2 1_555 1_555
C12_2 C9_2 1_555 1_555
C13_2 C12_2 1_555 1_555
H3_2 C13_2 1_555 1_555
C14_2 C12_2 1_555 1_555
H4_2 C14_2 1_555 1_555
C15_2 C14_2 1_555 1_555
H5_2 C15_2 1_555 1_555
C16_2 C2_2 1_555 1_555
H6_2 C16_2 1_555 1_555
Zn3_2 O8_2 1_555 1_555
Zn4_2 O7_2 1_555 1_555
Zn5_2 O6_2 1_555 1_555
Zn6_2 O2_2 1_555 1_555
Zn7_2 O9_2 1_555 1_555
Zn8_2 O4_2 1_555 1_555
C10_2 C11_2 1_555 1_555
C13_2 C16_2 1_555 1_555
Zn3_2 O3_3 1_555 1_555
Zn6_2 O1_3 1_555 1_555
O1_3 C5_3 1_555 1_555
O3_3 C5_3 1_555 1_555
O5_3 Zn6_2 1_555 1_555
O9_3 C4_3 1_555 1_555
C4_3 C8_3 1_555 1_555
C5_3 C6_3 1_555 1_555
C6_3 C7_3 1_555 1_555
C7_3 H1_3 1_555 1_555
C8_3 C7_3 1_555 1_555
C9_3 C8_3 1_555 1_555
C10_3 C9_3 1_555 1_555
C11_3 C6_3 1_555 1_555
H2_3 C11_3 1_555 1_555
Zn7_3 O9_3 1_555 1_555
O11_3 Zn6_2 1_555 1_555
O12_3 Zn3_2 1_555 1_555
O13_3 Zn3_2 1_555 1_555
O15_3 Zn6_2 1_555 1_555
C10_3 C11_3 1_555 1_555
O5_3 H7_3 1_555 1_555
O5_3 H8_3 1_555 1_555
O2_3 C1_3 1_555 1_555
O4_3 C3_3 1_555 1_555
O8_3 C1_3 1_555 1_555
C1_3 C2_3 1_555 1_555
C2_3 C15_3 1_555 1_555
C13_3 C12_3 1_555 1_555
H3_3 C13_3 1_555 1_555
C14_3 C12_3 1_555 1_555
H4_3 C14_3 1_555 1_555
C15_3 C14_3 1_555 1_555
H5_3 C15_3 1_555 1_555
C16_3 C2_3 1_555 1_555
H6_3 C16_3 1_555 1_555
Zn3_3 O8_3 1_555 1_555
Zn4_3 O7_3 1_555 1_555
Zn6_3 O2_3 1_555 1_555
Zn8_3 O4_3 1_555 1_555
C13_3 C16_3 1_555 1_555
O10 C1_4 1_555 1_555
O14 C1_4 1_555 1_555
H3_4 C13_4 1_555 1_555
C16_4 C2_4 1_555 1_555
H6_4 C16_4 1_555 1_555
Zn4_4 O7_4 1_555 1_555
C13_4 C16_4 1_555 1_555
Zn3_3 O3_4 1_555 1_555
Zn6_3 O1_4 1_555 1_555
O1_4 C5_4 1_555 1_555
O3_4 C5_4 1_555 1_555
O4_4 C3_4 1_555 1_555
O5_4 Zn6_3 1_555 1_555
O6_4 C3_4 1_555 1_555
O9_4 C4_4 1_555 1_555
C3_4 C10_4 1_555 1_555
C4_4 C8_4 1_555 1_555
C5_4 C6_4 1_555 1_555
C6_4 C7_4 1_555 1_555
C7_4 H1_4 1_555 1_555
C8_4 C7_4 1_555 1_555
C9_4 C8_4 1_555 1_555
C10_4 C9_4 1_555 1_555
C11_4 C6_4 1_555 1_555
H2_4 C11_4 1_555 1_555
C12_4 C9_4 1_555 1_555
C14_4 C12_4 1_555 1_555
H4_4 C14_4 1_555 1_555
C15_4 C14_4 1_555 1_555
H5_4 C15_4 1_555 1_555
Zn5_4 O6_4 1_555 1_555
Zn7_4 O9_4 1_555 1_555
Zn8_4 O4_4 1_555 1_555
O11_4 Zn6_3 1_555 1_555
O12_4 Zn3_3 1_555 1_555
O13_4 Zn3_3 1_555 1_555
O15_4 Zn6_3 1_555 1_555
C10_4 C11_4 1_555 1_555
O5_4 H7_4 1_555 1_555
O5_4 H8_4 1_555 1_555
Zn4_2 O3_5 1_555 1_555
Zn7_3 O1_5 1_555 1_555
O1_5 C5_5 1_555 1_555
O2_4 C1_5 1_555 1_555
O3_5 C5_5 1_555 1_555
O4_5 C3_5 1_555 1_555
O5_5 Zn7_3 1_555 1_555
O6_5 C3_5 1_555 1_555
O13_4 C4_5 1_555 1_555
O8_4 C1_5 1_555 1_555
O15_3 C4_5 1_555 1_555
C1_5 C2_5 1_555 1_555
C2_5 C15_5 1_555 1_555
C3_5 C10_5 1_555 1_555
C4_5 C8_5 1_555 1_555
C5_5 C6_5 1_555 1_555
C6_5 C7_5 1_555 1_555
C7_5 H1_5 1_555 1_555
C8_5 C7_5 1_555 1_555
C9_5 C8_5 1_555 1_555
C10_5 C9_5 1_555 1_555
C11_5 C6_5 1_555 1_555
H2_5 C11_5 1_555 1_555
C12_5 C9_5 1_555 1_555
C13_5 C12_5 1_555 1_555
H3_5 C13_5 1_555 1_555
C14_5 C12_5 1_555 1_555
H4_5 C14_5 1_555 1_555
C15_5 C14_5 1_555 1_555
H5_5 C15_5 1_555 1_555
C16_5 C2_5 1_555 1_555
H6_5 C16_5 1_555 1_555
Zn4_3 O8_4 1_555 1_555
Zn5_5 O6_5 1_555 1_555
Zn7_4 O2_4 1_555 1_555
Zn8_5 O4_5 1_555 1_555
O10_2 Zn7_3 1_555 1_555
O11_5 Zn7_3 1_555 1_555
O12_5 Zn4_2 1_555 1_555
O14_2 Zn4_2 1_555 1_555
C10_5 C11_5 1_555 1_555
C13_5 C16_5 1_555 1_555
O5_5 H7_5 1_555 1_555
O5_5 H8_5 1_555 1_555
O4_6 C3_6 1_555 1_555
O6_6 C3_6 1_555 1_555
Zn5_6 O6_6 1_555 1_555
Zn8_6 O4_6 1_555 1_555
H3_6 C13_6 1_555 1_555
C16_6 C2_6 1_555 1_555
H6_6 C16_6 1_555 1_555
C13_6 C16_6 1_555 1_555
Zn4_3 O3_6 1_555 1_555
Zn7_4 O1_6 1_555 1_555
O1_6 C5_6 1_555 1_555
O3_6 C5_6 1_555 1_555
O5_6 Zn7_4 1_555 1_555
O15_4 C4_6 1_555 1_555
C4_6 C8_6 1_555 1_555
C5_6 C6_6 1_555 1_555
C6_6 C7_6 1_555 1_555
C7_6 H1_6 1_555 1_555
C8_6 C7_6 1_555 1_555
C9_6 C8_6 1_555 1_555
C10_6 C9_6 1_555 1_555
C11_6 C6_6 1_555 1_555
C12_6 C9_6 1_555 1_555
C14_6 C12_6 1_555 1_555
H4_6 C14_6 1_555 1_555
C15_6 C14_6 1_555 1_555
H5_6 C15_6 1_555 1_555
O11_6 Zn7_4 1_555 1_555
C10_6 C11_6 1_555 1_555
O5_6 H7_6 1_555 1_555
O5_6 H8_6 1_555 1_555
O2_5 C1_6 1_555 1_555
O8_5 C1_6 1_555 1_555
Zn4_4 O8_5 1_555 1_555
Zn7 O2_5 1_555 1_555
Zn4_4 O3_7 1_555 1_555
Zn7 O1_7 1_555 1_555
O1_7 C5_7 1_555 1_555
O2_6 C1_7 1_555 1_555
O3_7 C5_7 1_555 1_555
O4_7 C3_7 1_555 1_555
O5_7 Zn7 1_555 1_555
O6_7 C3_7 1_555 1_555
O13_2 C4_7 1_555 1_555
O8_6 C1_7 1_555 1_555
C1_7 C2_7 1_555 1_555
C2_7 C15_7 1_555 1_555
C3_7 C10_7 1_555 1_555
C4_7 C8_7 1_555 1_555
C5_7 C6_7 1_555 1_555
C6_7 C7_7 1_555 1_555
C7_7 H1_7 1_555 1_555
C8_7 C7_7 1_555 1_555
C9_7 C8_7 1_555 1_555
C10_7 C9_7 1_555 1_555
C11_7 C6_7 1_555 1_555
H2_7 C11_7 1_555 1_555
C12_7 C9_7 1_555 1_555
C13_7 C12_7 1_555 1_555
H3_7 C13_7 1_555 1_555
C14_7 C12_7 1_555 1_555
H4_7 C14_7 1_555 1_555
C15_7 C14_7 1_555 1_555
H5_7 C15_7 1_555 1_555
C16_7 C2_7 1_555 1_555
H6_7 C16_7 1_555 1_555
Zn4 O8_6 1_555 1_555
Zn5_7 O6_7 1_555 1_555
Zn7_2 O2_6 1_555 1_555
Zn8_7 O4_7 1_555 1_555
O11_7 Zn7 1_555 1_555
O12_7 Zn4_4 1_555 1_555
C10_7 C11_7 1_555 1_555
C13_7 C16_7 1_555 1_555
O5_7 H7_7 1_555 1_555
O5_7 H8_7 1_555 1_555
O10_2 C1_8 1_555 1_555
O13_3 C4_8 1_555 1_555
O14_2 C1_8 1_555 1_555
O15_2 C4_8 1_555 1_555
C1_8 C2_8 1_555 1_555
C2_8 C15_8 1_555 1_555
C4_8 C8_8 1_555 1_555
C5_8 C6_8 1_555 1_555
C6_8 C7_8 1_555 1_555
C7_8 H1_8 1_555 1_555
C8_8 C7_8 1_555 1_555
C9_8 C8_8 1_555 1_555
C10_8 C9_8 1_555 1_555
C11_8 C6_8 1_555 1_555
C12_8 C9_8 1_555 1_555
C13_8 C12_8 1_555 1_555
H3_8 C13_8 1_555 1_555
C14_8 C12_8 1_555 1_555
H4_8 C14_8 1_555 1_555
C15_8 C14_8 1_555 1_555
H5_8 C15_8 1_555 1_555
C16_8 C2_8 1_555 1_555
H6_8 C16_8 1_555 1_555
C10_8 C11_8 1_555 1_555
C13_8 C16_8 1_555 1_555
O4_8 C3_8 1_555 1_555
O6_8 C3_8 1_555 1_555
Zn5_8 O6_8 1_555 1_555
Zn8_8 O4_8 1_555 1_555
Zn4 O3_8 1_555 1_555
Zn7_2 O1_8 1_555 1_555
O5_8 Zn7_2 1_555 1_555
O11_8 Zn7_2 1_555 1_555
O5_8 H7_8 1_555 1_555
O5_8 H8_8 1_555 1_555
Zn8_6 O9_5 1_555 1_555
Zn5_4 O3_9 1_555 1_555
Zn8_4 O1_9 1_555 1_555
O1_9 C5_9 1_555 1_555
O3_9 C5_9 1_555 1_555
O5_9 Zn8_4 1_555 1_555
C4_9 C8_9 1_555 1_555
C5_9 C6_9 1_555 1_555
C6_9 C7_9 1_555 1_555
C7_9 H1_9 1_555 1_555
C8_9 C7_9 1_555 1_555
C9_9 C8_9 1_555 1_555
C10_9 C9_9 1_555 1_555
C11_9 C6_9 1_555 1_555
H2_9 C11_9 1_555 1_555
O10_3 Zn8_4 1_555 1_555
O13_5 Zn5_4 1_555 1_555
O14_3 Zn5_4 1_555 1_555
O15_5 Zn8_4 1_555 1_555
C10_9 C11_9 1_555 1_555
O5_9 H7_9 1_555 1_555
O5_9 H8_9 1_555 1_555
O2_7 C1_9 1_555 1_555
O11_6 C3_9 1_555 1_555
O8_7 C1_9 1_555 1_555
C1_9 C2_9 1_555 1_555
C2_9 C15_9 1_555 1_555
C13_9 C12_9 1_555 1_555
H3_9 C13_9 1_555 1_555
C14_9 C12_9 1_555 1_555
H4_9 C14_9 1_555 1_555
C15_9 C14_9 1_555 1_555
H5_9 C15_9 1_555 1_555
C16_9 C2_9 1_555 1_555
H6_9 C16_9 1_555 1_555
Zn5_5 O8_7 1_555 1_555
Zn8_5 O2_7 1_555 1_555
C13_9 C16_9 1_555 1_555
O2_8 C1_10 1_555 1_555
O11_3 C3_10 1_555 1_555
O12_3 C3_10 1_555 1_555
O7_6 C4_10 1_555 1_555
O8_8 C1_10 1_555 1_555
O9_6 C4_10 1_555 1_555
C1_10 C2_10 1_555 1_555
C2_10 C15_10 1_555 1_555
C3_10 C10_10 1_555 1_555
C4_10 C8_10 1_555 1_555
C5_10 C6_10 1_555 1_555
C6_10 C7_10 1_555 1_555
C7_10 H1_10 1_555 1_555
C8_10 C7_10 1_555 1_555
C9_10 C8_10 1_555 1_555
C10_10 C9_10 1_555 1_555
C11_10 C6_10 1_555 1_555
H2_10 C11_10 1_555 1_555
C12_10 C9_10 1_555 1_555
C13_10 C12_10 1_555 1_555
H3_10 C13_10 1_555 1_555
C14_10 C12_10 1_555 1_555
H4_10 C14_10 1_555 1_555
C15_10 C14_10 1_555 1_555
H5_10 C15_10 1_555 1_555
C16_10 C2_10 1_555 1_555
H6_10 C16_10 1_555 1_555
Zn5_2 O8_8 1_555 1_555
Zn5_8 O7_6 1_555 1_555
Zn8_2 O2_8 1_555 1_555
Zn8_3 O9_6 1_555 1_555
C10_10 C11_10 1_555 1_555
C13_10 C16_10 1_555 1_555
Zn5_5 O3_10 1_555 1_555
Zn8_5 O1_10 1_555 1_555
O5_10 Zn8_5 1_555 1_555
O15_6 Zn8_5 1_555 1_555
O5_10 H7_10 1_555 1_555
O5_10 H8_10 1_555 1_555
O2_9 C1_11 1_555 1_555
O11_8 C3_11 1_555 1_555
O8_9 C1_11 1_555 1_555
C1_11 C2_11 1_555 1_555
C2_11 C15_11 1_555 1_555
C13_11 C12_11 1_555 1_555
H3_11 C13_11 1_555 1_555
C14_11 C12_11 1_555 1_555
H4_11 C14_11 1_555 1_555
C15_11 C14_11 1_555 1_555
H5_11 C15_11 1_555 1_555
C16_11 C2_11 1_555 1_555
H6_11 C16_11 1_555 1_555
Zn5_7 O8_9 1_555 1_555
Zn5 O7_7 1_555 1_555
Zn8_7 O2_9 1_555 1_555
C13_11 C16_11 1_555 1_555
Zn5_2 O3_11 1_555 1_555
Zn8_2 O1_11 1_555 1_555
O1_11 C5_11 1_555 1_555
O3_11 C5_11 1_555 1_555
O5_11 Zn8_2 1_555 1_555
O9_7 C4_11 1_555 1_555
C4_11 C8_11 1_555 1_555
C5_11 C6_11 1_555 1_555
C6_11 C7_11 1_555 1_555
C7_11 H1_11 1_555 1_555
C8_11 C7_11 1_555 1_555
C9_11 C8_11 1_555 1_555
C10_11 C9_11 1_555 1_555
C11_11 C6_11 1_555 1_555
H2_11 C11_11 1_555 1_555
Zn8_8 O9_7 1_555 1_555
O13_7 Zn5_2 1_555 1_555
O15_7 Zn8_2 1_555 1_555
C10_11 C11_11 1_555 1_555
O5_11 H7_11 1_555 1_555
O5_11 H8_11 1_555 1_555
Zn5_7 O3_12 1_555 1_555
Zn8_7 O1_12 1_555 1_555
O1_12 C5_12 1_555 1_555
O3_12 C5_12 1_555 1_555
O11 C3_12 1_555 1_555
O5_12 Zn8_7 1_555 1_555
O12 C3_12 1_555 1_555
O9_8 C4_12 1_555 1_555
C3_12 C10_12 1_555 1_555
C4_12 C8_12 1_555 1_555
C5_12 C6_12 1_555 1_555
C6_12 C7_12 1_555 1_555
C7_12 H1_12 1_555 1_555
C8_12 C7_12 1_555 1_555
C9_12 C8_12 1_555 1_555
C10_12 C9_12 1_555 1_555
C11_12 C6_12 1_555 1_555
H2_12 C11_12 1_555 1_555
C12_12 C9_12 1_555 1_555
C14_12 C12_12 1_555 1_555
H4_12 C14_12 1_555 1_555
C15_12 C14_12 1_555 1_555
H5_12 C15_12 1_555 1_555
Zn8 O9_8 1_555 1_555
O13_8 Zn5_7 1_555 1_555
O15_8 Zn8_7 1_555 1_555
C10_12 C11_12 1_555 1_555
O5_12 H7_12 1_555 1_555
O5_12 H8_12 1_555 1_555
H3_12 C13_12 1_555 1_555
C16_12 C2_12 1_555 1_555
H6_12 C16_12 1_555 1_555
Zn5_6 O7_8 1_555 1_555
C13_12 C16_12 1_555 1_555
O10_3 C1_12 1_555 1_555
O14_3 C1_12 1_555 1_555
Zn5_8 O3_13 1_555 1_555
Zn8_8 O1_13 1_555 1_555
O1_13 C5_13 1_555 1_555
O2_10 C1_13 1_555 1_555
O3_13 C5_13 1_555 1_555
O11_2 C3_13 1_555 1_555
O5_13 Zn8_8 1_555 1_555
O12_2 C3_13 1_555 1_555
O13_8 C4_13 1_555 1_555
O8_10 C1_13 1_555 1_555
O15_7 C4_13 1_555 1_555
C1_13 C2_13 1_555 1_555
C2_13 C15_13 1_555 1_555
C3_13 C10_13 1_555 1_555
C4_13 C8_13 1_555 1_555
C5_13 C6_13 1_555 1_555
C6_13 C7_13 1_555 1_555
C7_13 H1_13 1_555 1_555
C8_13 C7_13 1_555 1_555
C9_13 C8_13 1_555 1_555
C10_13 C9_13 1_555 1_555
C11_13 C6_13 1_555 1_555
H2_13 C11_13 1_555 1_555
C12_13 C9_13 1_555 1_555
C13_13 C12_13 1_555 1_555
H3_13 C13_13 1_555 1_555
C14_13 C12_13 1_555 1_555
H4_13 C14_13 1_555 1_555
C15_13 C14_13 1_555 1_555
H5_13 C15_13 1_555 1_555
C16_13 C2_13 1_555 1_555
H6_13 C16_13 1_555 1_555
Zn5 O8_10 1_555 1_555
Zn8 O2_10 1_555 1_555
O10_4 Zn8_8 1_555 1_555
O14_4 Zn5_8 1_555 1_555
C10_13 C11_13 1_555 1_555
C13_13 C16_13 1_555 1_555
O5_13 H7_13 1_555 1_555
O5_13 H8_13 1_555 1_555
O2_11 C1_14 1_555 1_555
O8_11 C1_14 1_555 1_555
Zn5_6 O8_11 1_555 1_555
Zn8_6 O2_11 1_555 1_555
Zn5 O3_14 1_555 1_555
Zn8 O1_14 1_555 1_555
O1_14 C5_14 1_555 1_555
O3_14 C5_14 1_555 1_555
O5_14 Zn8 1_555 1_555
O15_8 C4_14 1_555 1_555
C4_14 C8_14 1_555 1_555
C5_14 C6_14 1_555 1_555
C6_14 C7_14 1_555 1_555
C7_14 H1_14 1_555 1_555
C8_14 C7_14 1_555 1_555
C9_14 C8_14 1_555 1_555
C10_14 C9_14 1_555 1_555
C11_14 C6_14 1_555 1_555
C12_14 C9_14 1_555 1_555
C14_14 C12_14 1_555 1_555
H4_14 C14_14 1_555 1_555
C15_14 C14_14 1_555 1_555
H5_14 C15_14 1_555 1_555
C10_14 C11_14 1_555 1_555
O5_14 H7_14 1_555 1_555
O5_14 H8_14 1_555 1_555
H3_14 C13_14 1_555 1_555
C16_14 C2_14 1_555 1_555
H6_14 C16_14 1_555 1_555
C13_14 C16_14 1_555 1_555
O11_7 C3_14 1_555 1_555
O12_7 C3_14 1_555 1_555
Zn5_6 O3_15 1_555 1_555
Zn8_6 O1_15 1_555 1_555
O1_15 C5_15 1_555 1_555
O2_12 C1_15 1_555 1_555
O3_15 C5_15 1_555 1_555
O11_4 C3_15 1_555 1_555
O5_15 Zn8_6 1_555 1_555
O12_4 C3_15 1_555 1_555
O13_6 C4_15 1_555 1_555
O8_12 C1_15 1_555 1_555
C1_15 C2_15 1_555 1_555
C2_15 C15_15 1_555 1_555
C3_15 C10_15 1_555 1_555
C4_15 C8_15 1_555 1_555
C5_15 C6_15 1_555 1_555
C6_15 C7_15 1_555 1_555
C7_15 H1_15 1_555 1_555
C8_15 C7_15 1_555 1_555
C9_15 C8_15 1_555 1_555
C10_15 C9_15 1_555 1_555
C11_15 C6_15 1_555 1_555
H2_15 C11_15 1_555 1_555
C12_15 C9_15 1_555 1_555
C13_15 C12_15 1_555 1_555
H3_15 C13_15 1_555 1_555
C14_15 C12_15 1_555 1_555
H4_15 C14_15 1_555 1_555
C15_15 C14_15 1_555 1_555
H5_15 C15_15 1_555 1_555
C16_15 C2_15 1_555 1_555
H6_15 C16_15 1_555 1_555
Zn5_3 O8_12 1_555 1_555
Zn8_3 O2_12 1_555 1_555
C10_15 C11_15 1_555 1_555
C13_15 C16_15 1_555 1_555
O5_15 H7_15 1_555 1_555
O5_15 H8_15 1_555 1_555
Zn5_3 O3_16 1_555 1_555
Zn8_3 O1_16 1_555 1_555
O5_16 Zn8_3 1_555 1_555
O5_16 H7_16 1_555 1_555
O5_16 H8_16 1_555 1_555
O11_5 C3_16 1_555 1_555
O12_5 C3_16 1_555 1_555
O10_4 C1_16 1_555 1_555
O13_7 C4_16 1_555 1_555
O14_4 C1_16 1_555 1_555
O15_6 C4_16 1_555 1_555
C1_16 C2_16 1_555 1_555
C2_16 C15_16 1_555 1_555
C4_16 C8_16 1_555 1_555
C5_16 C6_16 1_555 1_555
C6_16 C7_16 1_555 1_555
C7_16 H1_16 1_555 1_555
C8_16 C7_16 1_555 1_555
C9_16 C8_16 1_555 1_555
C10_16 C9_16 1_555 1_555
C11_16 C6_16 1_555 1_555
C12_16 C9_16 1_555 1_555
C13_16 C12_16 1_555 1_555
H3_16 C13_16 1_555 1_555
C14_16 C12_16 1_555 1_555
H4_16 C14_16 1_555 1_555
C15_16 C14_16 1_555 1_555
H5_16 C15_16 1_555 1_555
C16_16 C2_16 1_555 1_555
H6_16 C16_16 1_555 1_555
C10_16 C11_16 1_555 1_555
C13_16 C16_16 1_555 1_555

#END
