
###############################################################################
#
# This file contains modified crystal structure data generated from the
# MOF subset of the Cambridge Structural Database (CSD) v543 
# hosted by the Cambridge Crystallographic Data Centre (CCDC).
#
# This work is licensed under the Creative Commons
# Attribution-NonCommercial-ShareAlike 4.0 International License.
# To view a copy of this license, visit
# http://creativecommons.org/licenses/by-nc-sa/4.0/
# or send a letter to
# Creative Commons, PO Box 1866, Mountain View, CA 94042, USA.
#
# CIF created using the CSD Python API on 29 September 2022
# The structure has been converted into the P1 space group
# The structure has a 3D framework
# The original CSD entry HEHZAY is in the orthorhombic crystal system
# The framework has been calculated to contain at least 10.0% void space
# The void calculation uses a probe of radius 1.32A, grid spacing 0.4
# The framework is charged, counterions have been retained in the structure
# H atom positions have been added when not included in the experimental data
# Generated hydrogen atom positions removed from atoms on special positions
#
###############################################################################

data_HEHZAY
_chemical_formula_moiety         '(C192 H136 Cd16 N12 O133 P12 10-)n'
_symmetry_cell_setting           triclinic
_symmetry_space_group_name_H-M   'P 1'
_symmetry_Int_Tables_number      1
_space_group_name_Hall           'P 1'
loop_
_symmetry_equiv_pos_site_id
_symmetry_equiv_pos_as_xyz
1 x,y,z
_cell_length_a                   21.4650(15)
_cell_length_b                   25.8553(8)
_cell_length_c                   16.1640(12)
_cell_angle_alpha                90
_cell_angle_beta                 90
_cell_angle_gamma                90
_cell_volume                     8970.76
loop_
_atom_site_label
_atom_site_type_symbol
_atom_site_fract_x
_atom_site_fract_y
_atom_site_fract_z
P1 P 0.48823(19) 0.21839(11) 0.1842(2)
P2 P 0.3754(3) 0.2500 0.2500
O1 O 0.4303(7) 0.0441(4) 0.3069(9)
O2 O 0.4204(7) 0.0152(4) 0.4287(8)
O3 O 0.3255(6) 0.1286(4) 0.6423(8)
O4 O 0.3156(5) 0.2133(3) 0.6193(7)
O5 O 0.3259(4) 0.2146(4) 0.2920(7)
O8 O 0.7804(5) 0.1226(4) 0.1835(8)
O9 O 0.7353(5) 0.1978(3) 0.2088(7)
O10 O 0.5044(5) 0.1595(3) 0.1868(9)
O15 O 0.5226(5) 0.2374(5) 0.1068(7)
O16 O 0.5646(9) 0.0084(8) 0.4094(11)
N1 N 0.5265(11) 0.2500 0.2500
N2 N 0.4147(5) 0.2213(4) 0.1800(6)
C1 C 0.4119(10) 0.0496(7) 0.3800(13)
C2 C 0.3806(8) 0.1004(6) 0.4002(11)
C3 C 0.3692(6) 0.1100(4) 0.4798(10)
H1 H 0.3791 0.0857 0.5201
C4 C 0.3427(8) 0.1566(5) 0.5012(10)
C5 C 0.3300(8) 0.1907(5) 0.4341(11)
H2 H 0.3105 0.2221 0.4456
C6 C 0.3440(7) 0.1805(5) 0.3591(11)
C7 C 0.3701(7) 0.1371(5) 0.3348(10)
H3 H 0.3809 0.1307 0.2801
C8 C 0.3256(8) 0.1660(5) 0.5933(10)
C10 C 0.6057(8) 0.0511(4) 0.2059(11)
C11 C 0.5513(8) 0.0815(4) 0.2023(11)
H4 H 0.5118 0.0667 0.2044
C12 C 0.5593(8) 0.1345(4) 0.1955(12)
C13 C 0.6163(7) 0.1575(4) 0.1935(10)
H5 H 0.6196 0.1933 0.1900
C14 C 0.6705(7) 0.1266(4) 0.1970(10)
C15 C 0.6647(7) 0.0735(4) 0.2017(10)
H6 H 0.7001 0.0527 0.2021
C16 C 0.7307(7) 0.1525(5) 0.2004(11)
H7 H 0.4618 0.1820 0.0103
C20 C 0.5027(8) 0.2524(7) 0.0350(10)
C21 C 0.5097(8) 0.2988(6) 0.0032(10)
H8 H 0.5305 0.3237 0.0343
P3 P 0.48823(19) 0.28161(11) 0.3158(2)
O18 O 0.4303(7) 0.4559(4) 0.1931(9)
O19 O 0.4204(7) 0.4848(4) 0.0713(8)
O22 O 0.3259(4) 0.2854(4) 0.2080(7)
O23 O 0.5471(6) 0.5258(4) 0.2761(9)
O24 O 0.6470(7) 0.5307(4) 0.2771(10)
O25 O 0.7804(5) 0.3774(4) 0.3165(8)
O26 O 0.7353(5) 0.3022(3) 0.2912(7)
O27 O 0.5044(5) 0.3405(3) 0.3132(9)
O28 O 0.3889(5) 0.3025(2) 0.7085(6)
O29 O 0.4261(5) 0.3622(3) 0.6279(6)
O30 O 0.4697(6) 0.1204(3) 0.6747(7)
O31 O 0.5260(6) 0.1025(4) 0.5679(7)
O32 O 0.5226(5) 0.2626(5) 0.3932(7)
N3 N 0.4147(5) 0.2787(4) 0.3200(6)
C25 C 0.4119(10) 0.4504(7) 0.1200(13)
C26 C 0.3806(8) 0.3996(6) 0.0998(11)
C27 C 0.3692(6) 0.3900(4) 0.0202(10)
C29 C 0.3300(8) 0.3093(5) 0.0659(11)
H11 H 0.3105 0.2779 0.0544
C30 C 0.3440(7) 0.3195(5) 0.1409(11)
C31 C 0.3701(7) 0.3629(5) 0.1652(10)
H12 H 0.3809 0.3693 0.2199
C33 C 0.5980(10) 0.5077(6) 0.2798(13)
C34 C 0.6057(8) 0.4489(4) 0.2941(11)
C35 C 0.5513(8) 0.4185(4) 0.2977(11)
H13 H 0.5118 0.4333 0.2956
C36 C 0.5593(8) 0.3655(4) 0.3045(12)
C37 C 0.6163(7) 0.3425(4) 0.3065(10)
H14 H 0.6196 0.3067 0.3100
C38 C 0.6705(7) 0.3734(4) 0.3030(10)
C39 C 0.6647(7) 0.4265(4) 0.2983(10)
H15 H 0.7001 0.4473 0.2979
C40 C 0.7307(7) 0.3475(5) 0.2996(11)
C41 C 0.4198(7) 0.3150(4) 0.6451(9)
C42 C 0.4477(7) 0.2763(4) 0.5959(8)
C43 C 0.4695(7) 0.2858(5) 0.5133(9)
H16 H 0.4618 0.3180 0.4897
C44 C 0.5027(8) 0.2476(7) 0.4650(10)
C45 C 0.5097(8) 0.2012(6) 0.4968(10)
H17 H 0.5305 0.1763 0.4657
C46 C 0.4874(7) 0.1872(5) 0.5749(9)
C47 C 0.4566(7) 0.2255(4) 0.6238(9)
H18 H 0.4419 0.2164 0.6759
C48 C 0.4915(9) 0.1332(5) 0.6069(11)
Cd4 Cd 0.87372(5) 0.11210(3) 0.24905(7)
Cd6 Cd 0.62628(5) 0.61210(3) 0.25095(7)
Cd7 Cd 0.87372(5) 0.38790(3) 0.25095(7)
Cd9 Cd 0.37372(5) 0.11210(3) 0.75095(7)
Cd11 Cd 0.37372(5) 0.38790(3) 0.74905(7)
Cd12 Cd 0.31088(7) 0.2500 0.7500
Cd13 Cd 0.81088(7) 0.2500 0.2500
Cd14 Cd 0.48302(7) 0.53477(4) 0.16214(9)
Cd15 Cd 0.51698(7) 0.03477(4) 0.66214(9)
O38 O 0.8255(6) 0.1286(4) 0.3577(8)
O41 O 0.8530(7) 0.0307(4) 0.2229(10)
O47 O 0.8889(5) 0.1975(2) 0.2085(6)
O49 O 0.9261(5) 0.1378(3) 0.1279(6)
O51 O 0.9697(6) 0.1204(3) 0.3253(7)
H21 H 0.546951 0.0279423 0.456809
O11 O 0.3889(5) 0.1975(2) 0.7915(6)
O12 O 0.4261(5) 0.1378(3) 0.8721(6)
O13 O 0.4697(6) 0.3796(3) 0.8253(7)
O14 O 0.5260(6) 0.3975(4) 0.9321(7)
C17 C 0.4198(7) 0.1850(4) 0.8549(9)
C18 C 0.4477(7) 0.2237(4) 0.9041(8)
C19 C 0.4695(7) 0.2142(5) 0.9867(9)
C22 C 0.4874(7) 0.3128(5) 0.9251(9)
C23 C 0.4566(7) 0.2745(4) 0.8762(9)
H9 H 0.4419 0.2836 0.8241
C24 C 0.4915(9) 0.3668(5) 0.8931(11)
O20 O 0.3255(6) 0.3714(4) 0.8577(8)
O21 O 0.3156(5) 0.2867(3) 0.8807(7)
H10 H 0.3791 0.4143 0.9799
C28 C 0.3427(8) 0.3434(5) 0.9988(10)
C32 C 0.3256(8) 0.3340(5) 0.9067(10)
Cd5 Cd 0.51698(7) 0.46523(4) 0.83786(9)
O33 O 0.4354(9) 0.5084(8) 0.9094(11)
O34 O 0.5809(10) 0.4258(8) 0.7565(10)
O35 O 0.5697(7) 0.5441(4) 0.8069(9)
O36 O 0.5796(7) 0.5152(4) 0.9287(8)
O40 O 0.4529(6) 0.4742(4) 0.7239(9)
O43 O 0.2353(5) 0.1978(3) 0.7912(7)
O44 O 0.2353(5) 0.3022(3) 0.7088(7)
Cd1 Cd 0.62628(5) 0.88790(3) 0.24905(7)
Cd3 Cd 0.48302(7) 0.96523(4) 0.33786(9)
O6 O 0.5471(6) 0.9742(4) 0.2239(9)
O7 O 0.6470(7) 0.9693(4) 0.2229(10)
O17 O 0.4191(10) 0.9258(8) 0.2565(10)
C9 C 0.5980(10) 0.9923(6) 0.2202(13)
O37 O 0.6745(6) 0.8714(4) 0.3577(8)
O42 O 0.7196(5) 0.8774(4) 0.1835(8)
O46 O 0.6111(5) 0.8025(2) 0.2085(6)
O48 O 0.5739(5) 0.8622(3) 0.1279(6)
O50 O 0.5303(6) 0.8796(3) 0.3253(7)
O52 O 0.4740(6) 0.8975(4) 0.4321(7)
H22 H 0.595067 0.982563 0.430115
Cd3_2 Cd 0.01698(7) 0.03477(4) 0.33786(9)
O17_2 O 0.0809(10) 0.0742(8) 0.2565(10)
O52_2 O 0.0260(6) 0.1025(4) 0.4321(7)
P1_2 P 0.01177(19) 0.78161(11) 0.1842(2)
P2_2 P 0.1246(3) 0.7500 0.2500
O1_2 O 0.0697(7) 0.9559(4) 0.3069(9)
O2_2 O 0.0796(7) 0.9848(4) 0.4287(8)
O3_2 O 0.1745(6) 0.8714(4) 0.6423(8)
O4_2 O 0.1844(5) 0.7867(3) 0.6193(7)
O5_2 O 0.1741(4) 0.7854(4) 0.2920(7)
N2_2 N 0.0853(5) 0.7787(4) 0.1800(6)
C1_2 C 0.0881(10) 0.9504(7) 0.3800(13)
C2_2 C 0.1194(8) 0.8996(6) 0.4002(11)
C3_2 C 0.1308(6) 0.8900(4) 0.4798(10)
H1_2 H 0.1209 0.9143 0.5201
C4_2 C 0.1573(8) 0.8434(5) 0.5012(10)
C5_2 C 0.1700(8) 0.8093(5) 0.4341(11)
H2_2 H 0.1895 0.7779 0.4456
C6_2 C 0.1560(7) 0.8195(5) 0.3591(11)
C7_2 C 0.1299(7) 0.8629(5) 0.3348(10)
H3_2 H 0.1191 0.8693 0.2801
C8_2 C 0.1744(8) 0.8340(5) 0.5933(10)
H7_2 H 0.0382 0.8180 0.0103
P3_2 P 0.01177(19) 0.71839(11) 0.3158(2)
O18_2 O 0.0697(7) 0.5441(4) 0.1931(9)
O19_2 O 0.0796(7) 0.5152(4) 0.0713(8)
O22_2 O 0.1741(4) 0.7146(4) 0.2080(7)
O28_2 O 0.1111(5) 0.6975(2) 0.7085(6)
O29_2 O 0.0739(5) 0.6378(3) 0.6279(6)
O30_2 O 0.0303(6) 0.8796(3) 0.6747(7)
N3_2 N 0.0853(5) 0.7213(4) 0.3200(6)
C25_2 C 0.0881(10) 0.5496(7) 0.1200(13)
C26_2 C 0.1194(8) 0.6004(6) 0.0998(11)
C27_2 C 0.1308(6) 0.6100(4) 0.0202(10)
C29_2 C 0.1700(8) 0.6907(5) 0.0659(11)
H11_2 H 0.1895 0.7221 0.0544
C30_2 C 0.1560(7) 0.6805(5) 0.1409(11)
C31_2 C 0.1299(7) 0.6371(5) 0.1652(10)
H12_2 H 0.1191 0.6307 0.2199
C41_2 C 0.0802(7) 0.6850(4) 0.6451(9)
C42_2 C 0.0523(7) 0.7237(4) 0.5959(8)
C43_2 C 0.0305(7) 0.7142(5) 0.5133(9)
H16_2 H 0.0382 0.6820 0.4897
C46_2 C 0.0126(7) 0.8128(5) 0.5749(9)
C47_2 C 0.0434(7) 0.7745(4) 0.6238(9)
H18_2 H 0.0581 0.7836 0.6759
C48_2 C 0.0085(9) 0.8668(5) 0.6069(11)
Cd9_2 Cd 0.12628(5) 0.88790(3) 0.75095(7)
Cd11_2 Cd 0.12628(5) 0.61210(3) 0.74905(7)
Cd12_2 Cd 0.18912(7) 0.7500 0.7500
Cd14_2 Cd 0.01698(7) 0.46523(4) 0.16214(9)
O11_2 O 0.1111(5) 0.8025(2) 0.7915(6)
O12_2 O 0.0739(5) 0.8622(3) 0.8721(6)
O13_2 O 0.0303(6) 0.6204(3) 0.8253(7)
C17_2 C 0.0802(7) 0.8150(4) 0.8549(9)
C18_2 C 0.0523(7) 0.7763(4) 0.9041(8)
C19_2 C 0.0305(7) 0.7858(5) 0.9867(9)
C22_2 C 0.0126(7) 0.6872(5) 0.9251(9)
C23_2 C 0.0434(7) 0.7255(4) 0.8762(9)
H9_2 H 0.0581 0.7164 0.8241
C24_2 C 0.0085(9) 0.6332(5) 0.8931(11)
O20_2 O 0.1745(6) 0.6286(4) 0.8577(8)
O21_2 O 0.1844(5) 0.7133(3) 0.8807(7)
H10_2 H 0.1209 0.5857 0.9799
C28_2 C 0.1573(8) 0.6566(5) 0.9988(10)
C32_2 C 0.1744(8) 0.6660(5) 0.9067(10)
O33_2 O 0.0646(9) 0.4916(8) 0.9094(11)
O40_2 O 0.0471(6) 0.5258(4) 0.7239(9)
O43_2 O 0.2647(5) 0.8022(3) 0.7912(7)
O44_2 O 0.2647(5) 0.6978(3) 0.7088(7)
O6_2 O 0.9529(6) 0.0258(4) 0.2239(9)
C9_2 C 0.9020(10) 0.0077(6) 0.2202(13)
H22_2 H 0.904933 0.0174371 0.430115
O9_2 O 0.7647(5) 0.8022(3) 0.2088(7)
O10_2 O 0.9956(5) 0.8405(3) 0.1868(9)
O15_2 O 0.9774(5) 0.7626(5) 0.1068(7)
O16_2 O 0.9354(9) 0.9916(8) 0.4094(11)
N1_2 N 0.9735(11) 0.7500 0.2500
C10_2 C 0.8943(8) 0.9489(4) 0.2059(11)
C11_2 C 0.9487(8) 0.9185(4) 0.2023(11)
H4_2 H 0.9882 0.9333 0.2044
C12_2 C 0.9407(8) 0.8655(4) 0.1955(12)
C13_2 C 0.8837(7) 0.8425(4) 0.1935(10)
H5_2 H 0.8804 0.8067 0.1900
C14_2 C 0.8295(7) 0.8734(4) 0.1970(10)
C15_2 C 0.8353(7) 0.9265(4) 0.2017(10)
H6_2 H 0.7999 0.9473 0.2021
C16_2 C 0.7693(7) 0.8475(5) 0.2004(11)
C20_2 C 0.9973(8) 0.7476(7) 0.0350(10)
C21_2 C 0.9903(8) 0.7012(6) 0.0032(10)
H8_2 H 0.9695 0.6763 0.0343
O23_2 O 0.9529(6) 0.4742(4) 0.2761(9)
O24_2 O 0.8530(7) 0.4693(4) 0.2771(10)
O25_2 O 0.7196(5) 0.6226(4) 0.3165(8)
O26_2 O 0.7647(5) 0.6978(3) 0.2912(7)
O27_2 O 0.9956(5) 0.6595(3) 0.3132(9)
O31_2 O 0.9740(6) 0.8975(4) 0.5679(7)
O32_2 O 0.9774(5) 0.7374(5) 0.3932(7)
C33_2 C 0.9020(10) 0.4923(6) 0.2798(13)
C34_2 C 0.8943(8) 0.5511(4) 0.2941(11)
C35_2 C 0.9487(8) 0.5815(4) 0.2977(11)
H13_2 H 0.9882 0.5667 0.2956
C36_2 C 0.9407(8) 0.6345(4) 0.3045(12)
C37_2 C 0.8837(7) 0.6575(4) 0.3065(10)
H14_2 H 0.8804 0.6933 0.3100
C38_2 C 0.8295(7) 0.6266(4) 0.3030(10)
C39_2 C 0.8353(7) 0.5735(4) 0.2983(10)
H15_2 H 0.7999 0.5527 0.2979
C40_2 C 0.7693(7) 0.6525(5) 0.2996(11)
C44_2 C 0.9973(8) 0.7524(7) 0.4650(10)
C45_2 C 0.9903(8) 0.7988(6) 0.4968(10)
H17_2 H 0.9695 0.8237 0.4657
Cd13_2 Cd 0.68912(7) 0.7500 0.2500
Cd15_2 Cd 0.98302(7) 0.96523(4) 0.66214(9)
H21_2 H 0.953049 0.972058 0.456809
O14_2 O 0.9740(6) 0.6025(4) 0.9321(7)
Cd5_2 Cd 0.98302(7) 0.53477(4) 0.83786(9)
O34_2 O 0.9191(10) 0.5742(8) 0.7565(10)
O35_2 O 0.9303(7) 0.4559(4) 0.8069(9)
O36_2 O 0.9204(7) 0.4848(4) 0.9287(8)
O16_3 O 0.5646(9) 0.4916(8) 0.0906(11)
O17_3 O 0.4191(10) 0.5742(8) 0.2435(10)
O34_3 O 0.5809(10) 0.0742(8) 0.7435(10)
O37_2 O 0.6745(6) 0.6286(4) 0.1423(8)
O38_2 O 0.8255(6) 0.3714(4) 0.1423(8)
O40_3 O 0.4529(6) 0.0258(4) 0.7761(9)
O46_2 O 0.6111(5) 0.6975(2) 0.2915(6)
O47_2 O 0.8889(5) 0.3025(2) 0.2915(6)
O48_2 O 0.5739(5) 0.6378(3) 0.3721(6)
O49_2 O 0.9261(5) 0.3622(3) 0.3721(6)
O50_2 O 0.5303(6) 0.6204(3) 0.1747(7)
O51_2 O 0.9697(6) 0.3796(3) 0.1747(7)
O52_3 O 0.4740(6) 0.6025(4) 0.0679(7)
H25 H 0.427635 0.00918798 0.53697
O33_3 O 0.4354(9) 0.9916(8) 0.5906(11)
O35_3 O 0.5697(7) 0.9559(4) 0.6931(9)
O36_3 O 0.5796(7) 0.9848(4) 0.5713(8)
H26 H 0.447592 0.955113 0.580328
O33_4 O 0.0646(9) 0.0084(8) 0.5906(11)
H26_2 H 0.0524082 0.0448875 0.580328
O17_4 O 0.0809(10) 0.4258(8) 0.2435(10)
O40_4 O 0.0471(6) 0.9742(4) 0.7761(9)
O52_4 O 0.0260(6) 0.3975(4) 0.0679(7)
H25_2 H 0.0723653 0.990812 0.53697
O35_4 O 0.9303(7) 0.0441(4) 0.6931(9)
O36_4 O 0.9204(7) 0.0152(4) 0.5713(8)
O16_4 O 0.9354(9) 0.5084(8) 0.0906(11)
O34_4 O 0.9191(10) 0.9258(8) 0.7435(10)
O7_2 O 0.3530(7) 0.0307(4) 0.7771(10)
C9_3 C 0.4020(10) 0.0077(6) 0.7798(13)
O42_2 O 0.2804(5) 0.1226(4) 0.8165(8)
H22_3 H 0.404933 0.0174371 0.569885
C17_3 C 0.5802(7) 0.8150(4) 0.1451(9)
C18_3 C 0.5523(7) 0.7763(4) 0.0959(8)
C19_3 C 0.5305(7) 0.7858(5) 0.0133(9)
C22_3 C 0.5126(7) 0.6872(5) 0.0749(9)
C23_3 C 0.5434(7) 0.7255(4) 0.1238(9)
H9_3 H 0.5581 0.7164 0.1759
C24_3 C 0.5085(9) 0.6332(5) 0.1069(11)
O21_3 O 0.6844(5) 0.7133(3) 0.1193(7)
H10_3 H 0.6209 0.5857 0.0201
C28_3 C 0.6573(8) 0.6566(5) 0.0012(10)
C32_3 C 0.6744(8) 0.6660(5) 0.0933(10)
O39 O 0.6844(5) 0.7867(3) 0.3807(7)
P1_3 P 0.51177(19) 0.78161(11) 0.8158(2)
P2_3 P 0.6246(3) 0.7500 0.7500
O5_3 O 0.6741(4) 0.7854(4) 0.7080(7)
O8_2 O 0.2196(5) 0.8774(4) 0.8165(8)
O10_3 O 0.4956(5) 0.8405(3) 0.8132(9)
O15_3 O 0.4774(5) 0.7626(5) 0.8932(7)
N1_3 N 0.4735(11) 0.7500 0.7500
N2_3 N 0.5853(5) 0.7787(4) 0.8200(6)
C1_3 C 0.5881(10) 0.9504(7) 0.6200(13)
C2_3 C 0.6194(8) 0.8996(6) 0.5998(11)
C3_3 C 0.6308(6) 0.8900(4) 0.5202(10)
H1_3 H 0.6209 0.9143 0.4799
C4_3 C 0.6573(8) 0.8434(5) 0.4988(10)
C5_3 C 0.6700(8) 0.8093(5) 0.5659(11)
H2_3 H 0.6895 0.7779 0.5544
C6_3 C 0.6560(7) 0.8195(5) 0.6409(11)
C7_3 C 0.6299(7) 0.8629(5) 0.6652(10)
H3_3 H 0.6191 0.8693 0.7199
C8_3 C 0.6744(8) 0.8340(5) 0.4067(10)
C10_3 C 0.3943(8) 0.9489(4) 0.7941(11)
C11_3 C 0.4487(8) 0.9185(4) 0.7977(11)
H4_3 H 0.4882 0.9333 0.7956
C12_3 C 0.4407(8) 0.8655(4) 0.8045(12)
C13_3 C 0.3837(7) 0.8425(4) 0.8065(10)
H5_3 H 0.3804 0.8067 0.8100
C14_3 C 0.3295(7) 0.8734(4) 0.8030(10)
C15_3 C 0.3353(7) 0.9265(4) 0.7983(10)
H6_3 H 0.2999 0.9473 0.7979
C16_3 C 0.2693(7) 0.8475(5) 0.7996(11)
H7_3 H 0.5382 0.8180 0.9897
C20_3 C 0.4973(8) 0.7476(7) 0.9650(10)
C21_3 C 0.4903(8) 0.7012(6) 0.9968(10)
H8_3 H 0.4695 0.6763 0.9657
P3_3 P 0.51177(19) 0.71839(11) 0.6842(2)
O22_3 O 0.6741(4) 0.7146(4) 0.7920(7)
O24_3 O 0.3530(7) 0.4693(4) 0.7229(10)
O25_3 O 0.2196(5) 0.6226(4) 0.6835(8)
O27_3 O 0.4956(5) 0.6595(3) 0.6868(9)
O32_3 O 0.4774(5) 0.7374(5) 0.6068(7)
N3_3 N 0.5853(5) 0.7213(4) 0.6800(6)
C25_3 C 0.5881(10) 0.5496(7) 0.8800(13)
C26_3 C 0.6194(8) 0.6004(6) 0.9002(11)
C27_3 C 0.6308(6) 0.6100(4) 0.9798(10)
C29_3 C 0.6700(8) 0.6907(5) 0.9341(11)
H11_3 H 0.6895 0.7221 0.9456
C30_3 C 0.6560(7) 0.6805(5) 0.8591(11)
C31_3 C 0.6299(7) 0.6371(5) 0.8348(10)
H12_3 H 0.6191 0.6307 0.7801
C33_3 C 0.4020(10) 0.4923(6) 0.7202(13)
C34_3 C 0.3943(8) 0.5511(4) 0.7059(11)
C35_3 C 0.4487(8) 0.5815(4) 0.7023(11)
H13_3 H 0.4882 0.5667 0.7044
C36_3 C 0.4407(8) 0.6345(4) 0.6955(12)
C37_3 C 0.3837(7) 0.6575(4) 0.6935(10)
H14_3 H 0.3804 0.6933 0.6900
C38_3 C 0.3295(7) 0.6266(4) 0.6970(10)
C39_3 C 0.3353(7) 0.5735(4) 0.7017(10)
H15_3 H 0.2999 0.5527 0.7021
C40_3 C 0.2693(7) 0.6525(5) 0.7004(11)
C41_3 C 0.5802(7) 0.6850(4) 0.3549(9)
C42_3 C 0.5523(7) 0.7237(4) 0.4041(8)
C43_3 C 0.5305(7) 0.7142(5) 0.4867(9)
H16_3 H 0.5382 0.6820 0.5103
C44_3 C 0.4973(8) 0.7524(7) 0.5350(10)
C45_3 C 0.4903(8) 0.7988(6) 0.5032(10)
H17_3 H 0.4695 0.8237 0.5343
C46_3 C 0.5126(7) 0.8128(5) 0.4251(9)
C47_3 C 0.5434(7) 0.7745(4) 0.3762(9)
H18_3 H 0.5581 0.7836 0.3241
C48_3 C 0.5085(9) 0.8668(5) 0.3931(11)
O41_2 O 0.1470(7) 0.9693(4) 0.7771(10)
H21_3 H 0.453049 0.972058 0.543191
O10_4 O 0.0044(5) 0.1595(3) 0.8132(9)
O15_4 O 0.0226(5) 0.2374(5) 0.8932(7)
N1_4 N 0.0265(11) 0.2500 0.7500
C10_4 C 0.1057(8) 0.0511(4) 0.7941(11)
C11_4 C 0.0513(8) 0.0815(4) 0.7977(11)
H4_4 H 0.0118 0.0667 0.7956
C12_4 C 0.0593(8) 0.1345(4) 0.8045(12)
C13_4 C 0.1163(7) 0.1575(4) 0.8065(10)
H5_4 H 0.1196 0.1933 0.8100
C14_4 C 0.1705(7) 0.1266(4) 0.8030(10)
C15_4 C 0.1647(7) 0.0735(4) 0.7983(10)
H6_4 H 0.2001 0.0527 0.7979
C16_4 C 0.2307(7) 0.1525(5) 0.7996(11)
C20_4 C 0.0027(8) 0.2524(7) 0.9650(10)
C21_4 C 0.0097(8) 0.2988(6) 0.9968(10)
H8_4 H 0.0305 0.3237 0.9657
O24_4 O 0.1470(7) 0.5307(4) 0.7229(10)
O25_4 O 0.2804(5) 0.3774(4) 0.6835(8)
O27_4 O 0.0044(5) 0.3405(3) 0.6868(9)
O32_4 O 0.0226(5) 0.2626(5) 0.6068(7)
C33_4 C 0.0980(10) 0.5077(6) 0.7202(13)
C34_4 C 0.1057(8) 0.4489(4) 0.7059(11)
C35_4 C 0.0513(8) 0.4185(4) 0.7023(11)
H13_4 H 0.0118 0.4333 0.7044
C36_4 C 0.0593(8) 0.3655(4) 0.6955(12)
C37_4 C 0.1163(7) 0.3425(4) 0.6935(10)
H14_4 H 0.1196 0.3067 0.6900
C38_4 C 0.1705(7) 0.3734(4) 0.6970(10)
C39_4 C 0.1647(7) 0.4265(4) 0.7017(10)
H15_4 H 0.2001 0.4473 0.7021
C40_4 C 0.2307(7) 0.3475(5) 0.7004(11)
C44_4 C 0.0027(8) 0.2476(7) 0.5350(10)
C45_4 C 0.0097(8) 0.2012(6) 0.5032(10)
H17_4 H 0.0305 0.1763 0.5343
H21_4 H 0.0469512 0.0279423 0.543191
C9_4 C 0.0980(10) 0.9923(6) 0.7798(13)
H22_4 H 0.0950666 0.982563 0.569885
C17_4 C 0.9198(7) 0.1850(4) 0.1451(9)
C18_4 C 0.9477(7) 0.2237(4) 0.0959(8)
C19_4 C 0.9695(7) 0.2142(5) 0.0133(9)
C22_4 C 0.9874(7) 0.3128(5) 0.0749(9)
C23_4 C 0.9566(7) 0.2745(4) 0.1238(9)
H9_4 H 0.9419 0.2836 0.1759
C24_4 C 0.9915(9) 0.3668(5) 0.1069(11)
O21_4 O 0.8156(5) 0.2867(3) 0.1193(7)
H10_4 H 0.8791 0.4143 0.0201
C28_4 C 0.8427(8) 0.3434(5) 0.0012(10)
C32_4 C 0.8256(8) 0.3340(5) 0.0933(10)
O39_2 O 0.8156(5) 0.2133(3) 0.3807(7)
P1_4 P 0.98823(19) 0.21839(11) 0.8158(2)
P2_4 P 0.8754(3) 0.2500 0.7500
O5_4 O 0.8259(4) 0.2146(4) 0.7080(7)
N2_4 N 0.9147(5) 0.2213(4) 0.8200(6)
C1_4 C 0.9119(10) 0.0496(7) 0.6200(13)
C2_4 C 0.8806(8) 0.1004(6) 0.5998(11)
C3_4 C 0.8692(6) 0.1100(4) 0.5202(10)
H1_4 H 0.8791 0.0857 0.4799
C4_4 C 0.8427(8) 0.1566(5) 0.4988(10)
C5_4 C 0.8300(8) 0.1907(5) 0.5659(11)
H2_4 H 0.8105 0.2221 0.5544
C6_4 C 0.8440(7) 0.1805(5) 0.6409(11)
C7_4 C 0.8701(7) 0.1371(5) 0.6652(10)
H3_4 H 0.8809 0.1307 0.7199
C8_4 C 0.8256(8) 0.1660(5) 0.4067(10)
H7_4 H 0.9618 0.1820 0.9897
P3_4 P 0.98823(19) 0.28161(11) 0.6842(2)
O22_4 O 0.8259(4) 0.2854(4) 0.7920(7)
N3_4 N 0.9147(5) 0.2787(4) 0.6800(6)
C25_4 C 0.9119(10) 0.4504(7) 0.8800(13)
C26_4 C 0.8806(8) 0.3996(6) 0.9002(11)
C27_4 C 0.8692(6) 0.3900(4) 0.9798(10)
C29_4 C 0.8300(8) 0.3093(5) 0.9341(11)
H11_4 H 0.8105 0.2779 0.9456
C30_4 C 0.8440(7) 0.3195(5) 0.8591(11)
C31_4 C 0.8701(7) 0.3629(5) 0.8348(10)
H12_4 H 0.8809 0.3693 0.7801
C41_4 C 0.9198(7) 0.3150(4) 0.3549(9)
C42_4 C 0.9477(7) 0.2763(4) 0.4041(8)
C43_4 C 0.9695(7) 0.2858(5) 0.4867(9)
H16_4 H 0.9618 0.3180 0.5103
C46_4 C 0.9874(7) 0.1872(5) 0.4251(9)
C47_4 C 0.9566(7) 0.2255(4) 0.3762(9)
H18_4 H 0.9419 0.2164 0.3241
C48_4 C 0.9915(9) 0.1332(5) 0.3931(11)
H26_3 H 0.552408 0.0448875 0.419672
H25_3 H 0.572365 0.990812 0.46303
H25_4 H 0.927635 0.00918798 0.46303
H26_4 H 0.947592 0.955113 0.419672
loop_
_geom_bond_atom_site_label_1
_geom_bond_atom_site_label_2
_geom_bond_site_symmetry_1
_geom_bond_site_symmetry_2
P1 O10 1_555 1_555
P2 O5 1_555 1_555
O1 C1 1_555 1_555
O3 C8 1_555 1_555
O4 C8 1_555 1_555
O5 C6 1_555 1_555
O8 C16 1_555 1_555
O9 C16 1_555 1_555
O10 C12 1_555 1_555
O15 P1 1_555 1_555
N1 P1 1_555 1_555
N2 P1 1_555 1_555
C1 O2 1_555 1_555
C2 C1 1_555 1_555
C3 C2 1_555 1_555
H1 C3 1_555 1_555
C4 C3 1_555 1_555
C5 C4 1_555 1_555
H2 C5 1_555 1_555
C6 C5 1_555 1_555
C7 C2 1_555 1_555
H3 C7 1_555 1_555
C8 C4 1_555 1_555
C11 C10 1_555 1_555
H4 C11 1_555 1_555
C12 C11 1_555 1_555
C13 C12 1_555 1_555
H5 C13 1_555 1_555
C14 C13 1_555 1_555
C15 C10 1_555 1_555
H6 C15 1_555 1_555
C16 C14 1_555 1_555
C20 O15 1_555 1_555
C21 C20 1_555 1_555
H8 C21 1_555 1_555
P3 N1 1_555 1_555
O18 C25 1_555 1_555
O19 C25 1_555 1_555
O22 P2 1_555 1_555
O23 C33 1_555 1_555
O24 C33 1_555 1_555
O25 C40 1_555 1_555
O26 C40 1_555 1_555
O27 P3 1_555 1_555
O28 C41 1_555 1_555
O29 C41 1_555 1_555
O30 C48 1_555 1_555
O31 C48 1_555 1_555
O32 P3 1_555 1_555
N3 P2 1_555 1_555
C25 C26 1_555 1_555
C26 C27 1_555 1_555
H11 C29 1_555 1_555
C30 O22 1_555 1_555
C31 C26 1_555 1_555
H12 C31 1_555 1_555
C33 C34 1_555 1_555
C34 C35 1_555 1_555
C35 H13 1_555 1_555
C36 O27 1_555 1_555
C37 C36 1_555 1_555
H14 C37 1_555 1_555
C38 C37 1_555 1_555
C39 C34 1_555 1_555
H15 C39 1_555 1_555
C40 C38 1_555 1_555
C41 C42 1_555 1_555
C42 C43 1_555 1_555
C43 H16 1_555 1_555
C44 O32 1_555 1_555
C45 C44 1_555 1_555
H17 C45 1_555 1_555
C46 C45 1_555 1_555
C47 C42 1_555 1_555
H18 C47 1_555 1_555
C48 C46 1_555 1_555
Cd4 O8 1_555 1_555
Cd6 O24 1_555 1_555
Cd7 O25 1_555 1_555
Cd9 O3 1_555 1_555
Cd11 O28 1_555 1_555
Cd12 O4 1_555 1_555
Cd13 O9 1_555 1_555
Cd14 O18 1_555 1_555
Cd15 O30 1_555 1_555
O38 Cd4 1_555 1_555
O41 Cd4 1_555 1_555
O47 Cd4 1_555 1_555
O49 Cd4 1_555 1_555
O51 Cd4 1_555 1_555
P2 N2 1_555 1_555
C6 C7 1_555 1_555
C14 C15 1_555 1_555
P3 N3 1_555 1_555
O19 Cd14 1_555 1_555
O23 Cd14 1_555 1_555
O26 Cd13 1_555 1_555
O28 Cd12 1_555 1_555
O29 Cd11 1_555 1_555
O30 Cd9 1_555 1_555
O31 Cd15 1_555 1_555
C29 C30 1_555 1_555
C30 C31 1_555 1_555
C35 C36 1_555 1_555
C38 C39 1_555 1_555
C43 C44 1_555 1_555
C46 C47 1_555 1_555
Cd13 O47 1_555 1_555
O16 H21 1_555 1_555
Cd12 O11 1_555 1_555
O11 C17 1_555 1_555
O12 C17 1_555 1_555
O13 C24 1_555 1_555
O14 C24 1_555 1_555
C17 C18 1_555 1_555
C18 C19 1_555 1_555
C23 C18 1_555 1_555
H9 C23 1_555 1_555
C24 C22 1_555 1_555
O20 C32 1_555 1_555
O21 Cd12 1_555 1_555
C32 O21 1_555 1_555
Cd5 O13 1_555 1_555
O33 Cd5 1_555 1_555
O34 Cd5 1_555 1_555
Cd9 O11 1_555 1_555
Cd11 O13 1_555 1_555
O35 Cd5 1_555 1_555
O36 Cd5 1_555 1_555
O40 Cd5 1_555 1_555
O43 Cd12 1_555 1_555
O44 Cd12 1_555 1_555
O12 Cd9 1_555 1_555
O14 Cd5 1_555 1_555
C22 C23 1_555 1_555
O20 Cd11 1_555 1_555
C28 C32 1_555 1_555
Cd1 O7 1_555 1_555
O6 Cd3 1_555 1_555
O7 C9 1_555 1_555
O17 Cd3 1_555 1_555
C9 O6 1_555 1_555
O37 Cd1 1_555 1_555
O42 Cd1 1_555 1_555
O46 Cd1 1_555 1_555
O48 Cd1 1_555 1_555
O50 Cd1 1_555 1_555
O52 Cd3 1_555 1_555
Cd3 O50 1_555 1_555
O17_2 Cd3_2 1_555 1_555
O52_2 Cd3_2 1_555 1_555
P2_2 O5_2 1_555 1_555
O1_2 C1_2 1_555 1_555
O3_2 C8_2 1_555 1_555
O4_2 C8_2 1_555 1_555
O5_2 C6_2 1_555 1_555
N2_2 P1_2 1_555 1_555
C1_2 O2_2 1_555 1_555
C2_2 C1_2 1_555 1_555
C3_2 C2_2 1_555 1_555
H1_2 C3_2 1_555 1_555
C4_2 C3_2 1_555 1_555
C5_2 C4_2 1_555 1_555
H2_2 C5_2 1_555 1_555
C6_2 C5_2 1_555 1_555
C7_2 C2_2 1_555 1_555
H3_2 C7_2 1_555 1_555
C8_2 C4_2 1_555 1_555
O18_2 C25_2 1_555 1_555
O19_2 C25_2 1_555 1_555
O22_2 P2_2 1_555 1_555
O28_2 C41_2 1_555 1_555
O29_2 C41_2 1_555 1_555
O30_2 C48_2 1_555 1_555
N3_2 P2_2 1_555 1_555
C25_2 C26_2 1_555 1_555
C26_2 C27_2 1_555 1_555
H11_2 C29_2 1_555 1_555
C30_2 O22_2 1_555 1_555
C31_2 C26_2 1_555 1_555
H12_2 C31_2 1_555 1_555
C41_2 C42_2 1_555 1_555
C42_2 C43_2 1_555 1_555
C43_2 H16_2 1_555 1_555
C47_2 C42_2 1_555 1_555
H18_2 C47_2 1_555 1_555
C48_2 C46_2 1_555 1_555
Cd9_2 O3_2 1_555 1_555
Cd11_2 O28_2 1_555 1_555
Cd12_2 O4_2 1_555 1_555
Cd14_2 O18_2 1_555 1_555
P2_2 N2_2 1_555 1_555
C6_2 C7_2 1_555 1_555
P3_2 N3_2 1_555 1_555
O19_2 Cd14_2 1_555 1_555
O28_2 Cd12_2 1_555 1_555
O29_2 Cd11_2 1_555 1_555
O30_2 Cd9_2 1_555 1_555
C29_2 C30_2 1_555 1_555
C30_2 C31_2 1_555 1_555
C46_2 C47_2 1_555 1_555
Cd12_2 O11_2 1_555 1_555
O11_2 C17_2 1_555 1_555
O12_2 C17_2 1_555 1_555
O13_2 C24_2 1_555 1_555
C17_2 C18_2 1_555 1_555
C18_2 C19_2 1_555 1_555
C23_2 C18_2 1_555 1_555
H9_2 C23_2 1_555 1_555
C24_2 C22_2 1_555 1_555
O20_2 C32_2 1_555 1_555
O21_2 Cd12_2 1_555 1_555
C32_2 O21_2 1_555 1_555
Cd9_2 O11_2 1_555 1_555
Cd11_2 O13_2 1_555 1_555
O43_2 Cd12_2 1_555 1_555
O44_2 Cd12_2 1_555 1_555
O12_2 Cd9_2 1_555 1_555
C22_2 C23_2 1_555 1_555
O20_2 Cd11_2 1_555 1_555
C28_2 C32_2 1_555 1_555
O41 C9_2 1_555 1_555
C9_2 O6_2 1_555 1_555
O42 C16_2 1_555 1_555
O9_2 C16_2 1_555 1_555
O10_2 C12_2 1_555 1_555
C11_2 C10_2 1_555 1_555
H4_2 C11_2 1_555 1_555
C12_2 C11_2 1_555 1_555
C13_2 C12_2 1_555 1_555
H5_2 C13_2 1_555 1_555
C14_2 C13_2 1_555 1_555
C15_2 C10_2 1_555 1_555
H6_2 C15_2 1_555 1_555
C16_2 C14_2 1_555 1_555
C20_2 O15_2 1_555 1_555
C21_2 C20_2 1_555 1_555
H8_2 C21_2 1_555 1_555
O23_2 C33_2 1_555 1_555
O24_2 C33_2 1_555 1_555
O25_2 C40_2 1_555 1_555
O26_2 C40_2 1_555 1_555
C33_2 C34_2 1_555 1_555
C34_2 C35_2 1_555 1_555
C35_2 H13_2 1_555 1_555
C36_2 O27_2 1_555 1_555
C37_2 C36_2 1_555 1_555
H14_2 C37_2 1_555 1_555
C38_2 C37_2 1_555 1_555
C39_2 C34_2 1_555 1_555
H15_2 C39_2 1_555 1_555
C40_2 C38_2 1_555 1_555
C44_2 O32_2 1_555 1_555
C45_2 C44_2 1_555 1_555
H17_2 C45_2 1_555 1_555
Cd7 O24_2 1_555 1_555
Cd6 O25_2 1_555 1_555
Cd13_2 O9_2 1_555 1_555
C14_2 C15_2 1_555 1_555
O26_2 Cd13_2 1_555 1_555
O31_2 Cd15_2 1_555 1_555
C35_2 C36_2 1_555 1_555
C38_2 C39_2 1_555 1_555
Cd13_2 O46 1_555 1_555
O16_2 H21_2 1_555 1_555
O34_2 Cd5_2 1_555 1_555
O35_2 Cd5_2 1_555 1_555
O36_2 Cd5_2 1_555 1_555
O14_2 Cd5_2 1_555 1_555
O16_3 Cd14 1_555 1_555
O17_3 Cd14 1_555 1_555
O34_3 Cd15 1_555 1_555
O37_2 Cd6 1_555 1_555
O38_2 Cd7 1_555 1_555
O40_3 Cd15 1_555 1_555
O46_2 Cd6 1_555 1_555
O47_2 Cd7 1_555 1_555
O48_2 Cd6 1_555 1_555
O49_2 Cd7 1_555 1_555
O50_2 Cd6 1_555 1_555
O51_2 Cd7 1_555 1_555
O52_3 Cd14 1_555 1_555
Cd14 O50_2 1_555 1_555
Cd13 O47_2 1_555 1_555
O33_3 H26 1_555 1_555
O33_4 H26_2 1_555 1_555
O17_4 Cd14_2 1_555 1_555
O52_4 Cd14_2 1_555 1_555
O34_4 Cd15_2 1_555 1_555
Cd13_2 O46_2 1_555 1_555
Cd9 O7_2 1_555 1_555
O7_2 C9_3 1_555 1_555
C9_3 O40_3 1_555 1_555
O42_2 Cd9 1_555 1_555
O46 C17_3 1_555 1_555
O48 C17_3 1_555 1_555
O50_2 C24_3 1_555 1_555
O52_3 C24_3 1_555 1_555
C17_3 C18_3 1_555 1_555
C18_3 C19_3 1_555 1_555
C23_3 C18_3 1_555 1_555
H9_3 C23_3 1_555 1_555
C24_3 C22_3 1_555 1_555
O37_2 C32_3 1_555 1_555
O21_3 Cd13_2 1_555 1_555
C32_3 O21_3 1_555 1_555
O39 Cd13_2 1_555 1_555
C22_3 C23_3 1_555 1_555
C28_3 C32_3 1_555 1_555
P1_3 O10_3 1_555 1_555
P2_3 O5_3 1_555 1_555
O35_3 C1_3 1_555 1_555
O37 C8_3 1_555 1_555
O39 C8_3 1_555 1_555
O5_3 C6_3 1_555 1_555
O8_2 C16_3 1_555 1_555
O43_2 C16_3 1_555 1_555
O10_3 C12_3 1_555 1_555
O15_3 P1_3 1_555 1_555
N1_3 P1_3 1_555 1_555
N2_3 P1_3 1_555 1_555
C1_3 O36_3 1_555 1_555
C2_3 C1_3 1_555 1_555
C3_3 C2_3 1_555 1_555
H1_3 C3_3 1_555 1_555
C4_3 C3_3 1_555 1_555
C5_3 C4_3 1_555 1_555
H2_3 C5_3 1_555 1_555
C6_3 C5_3 1_555 1_555
C7_3 C2_3 1_555 1_555
H3_3 C7_3 1_555 1_555
C8_3 C4_3 1_555 1_555
C11_3 C10_3 1_555 1_555
H4_3 C11_3 1_555 1_555
C12_3 C11_3 1_555 1_555
C13_3 C12_3 1_555 1_555
H5_3 C13_3 1_555 1_555
C14_3 C13_3 1_555 1_555
C15_3 C10_3 1_555 1_555
H6_3 C15_3 1_555 1_555
C16_3 C14_3 1_555 1_555
C20_3 O15_3 1_555 1_555
C21_3 C20_3 1_555 1_555
H8_3 C21_3 1_555 1_555
P3_3 N1_3 1_555 1_555
O35 C25_3 1_555 1_555
O36 C25_3 1_555 1_555
O22_3 P2_3 1_555 1_555
O40 C33_3 1_555 1_555
O24_3 C33_3 1_555 1_555
O25_3 C40_3 1_555 1_555
O44_2 C40_3 1_555 1_555
O27_3 P3_3 1_555 1_555
O46_2 C41_3 1_555 1_555
O48_2 C41_3 1_555 1_555
O50 C48_3 1_555 1_555
O52 C48_3 1_555 1_555
O32_3 P3_3 1_555 1_555
N3_3 P2_3 1_555 1_555
C25_3 C26_3 1_555 1_555
C26_3 C27_3 1_555 1_555
H11_3 C29_3 1_555 1_555
C30_3 O22_3 1_555 1_555
C31_3 C26_3 1_555 1_555
H12_3 C31_3 1_555 1_555
C33_3 C34_3 1_555 1_555
C34_3 C35_3 1_555 1_555
C35_3 H13_3 1_555 1_555
C36_3 O27_3 1_555 1_555
C37_3 C36_3 1_555 1_555
H14_3 C37_3 1_555 1_555
C38_3 C37_3 1_555 1_555
C39_3 C34_3 1_555 1_555
H15_3 C39_3 1_555 1_555
C40_3 C38_3 1_555 1_555
C41_3 C42_3 1_555 1_555
C42_3 C43_3 1_555 1_555
C43_3 H16_3 1_555 1_555
C44_3 O32_3 1_555 1_555
C45_3 C44_3 1_555 1_555
H17_3 C45_3 1_555 1_555
C46_3 C45_3 1_555 1_555
C47_3 C42_3 1_555 1_555
H18_3 C47_3 1_555 1_555
C48_3 C46_3 1_555 1_555
Cd9_2 O8_2 1_555 1_555
Cd11 O24_3 1_555 1_555
Cd11_2 O25_3 1_555 1_555
O41_2 Cd9_2 1_555 1_555
P2_3 N2_3 1_555 1_555
C6_3 C7_3 1_555 1_555
C14_3 C15_3 1_555 1_555
P3_3 N3_3 1_555 1_555
C29_3 C30_3 1_555 1_555
C30_3 C31_3 1_555 1_555
C35_3 C36_3 1_555 1_555
C38_3 C39_3 1_555 1_555
C43_3 C44_3 1_555 1_555
C46_3 C47_3 1_555 1_555
O33_3 H21_3 1_555 1_555
O42_2 C16_4 1_555 1_555
O43 C16_4 1_555 1_555
O10_4 C12_4 1_555 1_555
C11_4 C10_4 1_555 1_555
H4_4 C11_4 1_555 1_555
C12_4 C11_4 1_555 1_555
C13_4 C12_4 1_555 1_555
H5_4 C13_4 1_555 1_555
C14_4 C13_4 1_555 1_555
C15_4 C10_4 1_555 1_555
H6_4 C15_4 1_555 1_555
C16_4 C14_4 1_555 1_555
C20_4 O15_4 1_555 1_555
C21_4 C20_4 1_555 1_555
H8_4 C21_4 1_555 1_555
O40_2 C33_4 1_555 1_555
O24_4 C33_4 1_555 1_555
O25_4 C40_4 1_555 1_555
O44 C40_4 1_555 1_555
C33_4 C34_4 1_555 1_555
C34_4 C35_4 1_555 1_555
C35_4 H13_4 1_555 1_555
C36_4 O27_4 1_555 1_555
C37_4 C36_4 1_555 1_555
H14_4 C37_4 1_555 1_555
C38_4 C37_4 1_555 1_555
C39_4 C34_4 1_555 1_555
H15_4 C39_4 1_555 1_555
C40_4 C38_4 1_555 1_555
C44_4 O32_4 1_555 1_555
C45_4 C44_4 1_555 1_555
H17_4 C45_4 1_555 1_555
Cd11_2 O24_4 1_555 1_555
Cd11 O25_4 1_555 1_555
C14_4 C15_4 1_555 1_555
C35_4 C36_4 1_555 1_555
C38_4 C39_4 1_555 1_555
O33_4 H21_4 1_555 1_555
O41_2 C9_4 1_555 1_555
C9_4 O40_4 1_555 1_555
O47 C17_4 1_555 1_555
O49 C17_4 1_555 1_555
O51_2 C24_4 1_555 1_555
C17_4 C18_4 1_555 1_555
C18_4 C19_4 1_555 1_555
C23_4 C18_4 1_555 1_555
H9_4 C23_4 1_555 1_555
C24_4 C22_4 1_555 1_555
O38_2 C32_4 1_555 1_555
O21_4 Cd13 1_555 1_555
C32_4 O21_4 1_555 1_555
O39_2 Cd13 1_555 1_555
C22_4 C23_4 1_555 1_555
C28_4 C32_4 1_555 1_555
P2_4 O5_4 1_555 1_555
O35_4 C1_4 1_555 1_555
O38 C8_4 1_555 1_555
O39_2 C8_4 1_555 1_555
O5_4 C6_4 1_555 1_555
N2_4 P1_4 1_555 1_555
C1_4 O36_4 1_555 1_555
C2_4 C1_4 1_555 1_555
C3_4 C2_4 1_555 1_555
H1_4 C3_4 1_555 1_555
C4_4 C3_4 1_555 1_555
C5_4 C4_4 1_555 1_555
H2_4 C5_4 1_555 1_555
C6_4 C5_4 1_555 1_555
C7_4 C2_4 1_555 1_555
H3_4 C7_4 1_555 1_555
C8_4 C4_4 1_555 1_555
O35_2 C25_4 1_555 1_555
O36_2 C25_4 1_555 1_555
O22_4 P2_4 1_555 1_555
O47_2 C41_4 1_555 1_555
O49_2 C41_4 1_555 1_555
O51 C48_4 1_555 1_555
N3_4 P2_4 1_555 1_555
C25_4 C26_4 1_555 1_555
C26_4 C27_4 1_555 1_555
H11_4 C29_4 1_555 1_555
C30_4 O22_4 1_555 1_555
C31_4 C26_4 1_555 1_555
H12_4 C31_4 1_555 1_555
C41_4 C42_4 1_555 1_555
C42_4 C43_4 1_555 1_555
C43_4 H16_4 1_555 1_555
C47_4 C42_4 1_555 1_555
H18_4 C47_4 1_555 1_555
C48_4 C46_4 1_555 1_555
P2_4 N2_4 1_555 1_555
C6_4 C7_4 1_555 1_555
P3_4 N3_4 1_555 1_555
C29_4 C30_4 1_555 1_555
C30_4 C31_4 1_555 1_555
C46_4 C47_4 1_555 1_555
O16 H26_3 1_555 1_555
O16_2 H26_4 1_555 1_555

#END
