
###############################################################################
#
# This file contains modified crystal structure data generated from the
# MOF subset of the Cambridge Structural Database (CSD) v543 
# hosted by the Cambridge Crystallographic Data Centre (CCDC).
#
# This work is licensed under the Creative Commons
# Attribution-NonCommercial-ShareAlike 4.0 International License.
# To view a copy of this license, visit
# http://creativecommons.org/licenses/by-nc-sa/4.0/
# or send a letter to
# Creative Commons, PO Box 1866, Mountain View, CA 94042, USA.
#
# CIF created using the CSD Python API on 29 September 2022
# The structure has been converted into the P1 space group
# The structure has a 3D framework
# The original CSD entry HEJCOR is in the monoclinic crystal system
# The framework has been calculated to contain at least 10.0% void space
# The void calculation uses a probe of radius 1.32A, grid spacing 0.4
#
###############################################################################

data_HEJCOR
_chemical_formula_moiety         '(C112 H80 Cu4 N8 O16)n'
_symmetry_cell_setting           triclinic
_symmetry_space_group_name_H-M   'P 1'
_symmetry_Int_Tables_number      1
_space_group_name_Hall           'P 1'
loop_
_symmetry_equiv_pos_site_id
_symmetry_equiv_pos_as_xyz
1 x,y,z
_cell_length_a                   13.261(18)
_cell_length_b                   25.14(3)
_cell_length_c                   8.476(11)
_cell_angle_alpha                90
_cell_angle_beta                 98.396(16)
_cell_angle_gamma                90
_cell_volume                     2795.46
loop_
_atom_site_label
_atom_site_type_symbol
_atom_site_fract_x
_atom_site_fract_y
_atom_site_fract_z
O1 O 0.1930(5) 0.6059(3) 0.1036(8)
O3 O 0.2411(6) 0.5227(3) 0.0813(12)
C3 C 0.0775(9) 0.5384(5) 0.1621(13)
C15 C 0.1763(8) 0.5561(5) 0.1088(13)
C17 C 0.0059(9) 0.5728(5) 0.1939(15)
H12 H 0.0168 0.6091 0.1835
C20 C 0.0610(10) 0.4863(5) 0.185(2)
H14 H 0.1104 0.4618 0.1657
Cu2 Cu 0.33526(10) 0.59991(4) 0.04963(13)
O2 O 0.4016(6) 0.6161(3) 0.2720(9)
C2 C 0.6203(9) 0.7580(5) 0.8588(15)
H2 H 0.6175 0.7374 0.9493
O4 O 0.4161(7) 0.6914(3) 0.1417(9)
C6 C 0.4785(8) 0.6886(5) 0.4192(14)
C9 C 0.4826(9) 0.6617(5) 0.5607(14)
H7 H 0.4548 0.6278 0.5619
C10 C 0.4262(8) 0.6644(5) 0.2664(13)
C12 C 0.5286(10) 0.6851(5) 0.7037(15)
H9 H 0.5295 0.6670 0.7996
C13 C 0.6654(10) 0.8044(6) 0.8786(15)
H10 H 0.6703 0.8249 0.7887
C22 C 0.5687(10) 0.7623(5) 0.5607(14)
H16 H 0.5983 0.7957 0.5589
C23 C 0.5729(10) 0.7354(6) 0.7022(15)
C25 C 0.5507(7) 0.5891(4) 0.0145(12)
H18 H 0.5549 0.6224 0.0628
H19 H 0.7294 0.9003 0.9589
C28 C 0.5199(9) 0.7395(5) 0.4186(13)
H20 H 0.5152 0.7585 0.3237
Cu3 Cu 0.83526(10) 0.09991(4) 0.04963(13)
O1_2 O 0.6930(5) 0.1059(3) 0.1036(8)
O3_2 O 0.7411(6) 0.0227(3) 0.0813(12)
C3_2 C 0.5775(9) 0.0384(5) 0.1621(13)
C5 C 0.2245(8) 0.0071(5) 0.3432(15)
H4 H 0.2217 0.0433 0.3192
C11 C 0.0428(8) 0.0080(4) 0.3862(13)
H8 H 0.0387 0.0422 0.3438
C15_2 C 0.6763(8) 0.0561(5) 0.1088(13)
C17_2 C 0.5059(9) 0.0728(5) 0.1939(15)
H12_2 H 0.5168 0.1091 0.1835
C21 C 0.4148(9) 0.0553(5) 0.2425(17)
H15 H 0.3662 0.0802 0.2617
C26 C 0.3959(9) 0.0023(4) 0.2623(15)
O2_2 O 0.9016(6) 0.1161(3) 0.2720(9)
O4_2 O 0.9161(7) 0.1914(3) 0.1417(9)
C6_2 C 0.9785(8) 0.1886(5) 0.4192(14)
C9_2 C 0.9826(9) 0.1617(5) 0.5607(14)
H7_2 H 0.9548 0.1278 0.5619
C10_2 C 0.9262(8) 0.1644(5) 0.2664(13)
N1 N 0.7869(7) 0.1277(4) 0.8295(11)
C1 C 0.7222(10) 0.2018(6) 0.6742(14)
H1 H 0.7037 0.2375 0.6729
C2_2 C 0.6203(9) 0.2420(5) 0.3588(15)
H2_2 H 0.6175 0.2626 0.4493
C4 C 0.7617(10) 0.1796(5) 0.8155(15)
H3 H 0.7719 0.2009 0.9061
C9_3 C 0.4826(9) 0.3383(5) 0.0607(14)
H7_3 H 0.4548 0.3722 0.0619
C12_2 C 0.5286(10) 0.3149(5) 0.2037(15)
H9_2 H 0.5295 0.3330 0.2996
C13_2 C 0.6654(10) 0.1956(6) 0.3786(15)
H10_2 H 0.6703 0.1751 0.2887
C18 C 0.7084(9) 0.1743(5) 0.5341(15)
C19 C 0.7750(7) 0.1004(4) 0.6958(11)
H13 H 0.7937 0.0647 0.7005
C22_2 C 0.5687(10) 0.2377(5) 0.0607(14)
H16_2 H 0.5983 0.2043 0.0589
C23_2 C 0.5729(10) 0.2646(6) 0.2022(15)
C27 C 0.7365(8) 0.1214(5) 0.5488(12)
H19_2 H 0.7294 0.0997 0.4589
N2 N 0.9597(6) 0.0650(4) 0.9934(11)
C8 C 0.9565(9) 0.0149(4) 0.9322(12)
Cu1 Cu 0.33526(10) 0.40009(4) 0.54963(13)
O2_3 O 0.4016(6) 0.3839(3) 0.7720(9)
N2_2 N 0.4597(6) 0.4350(4) 0.4934(11)
O4_3 O 0.4161(7) 0.3086(3) 0.6417(9)
C5_2 C 0.7245(8) 0.5071(5) 0.3432(15)
H4_2 H 0.7217 0.5433 0.3192
C6_3 C 0.4785(8) 0.3114(5) 0.9192(14)
C7 C 0.8055(10) 0.4817(5) 0.3252(15)
H5 H 0.8077 0.4461 0.3552
C8_2 C 0.4565(9) 0.4851(4) 0.4322(12)
H6 H 0.3959 0.5042 0.4212
C10_3 C 0.4262(8) 0.3356(5) 0.7664(13)
C11_2 C 0.5428(8) 0.5080(4) 0.3862(13)
H8_2 H 0.5387 0.5422 0.3438
C14 C 0.6391(9) 0.4317(5) 0.4700(14)
H11 H 0.7001 0.4129 0.4856
C16 C 0.6328(8) 0.4820(4) 0.4012(13)
C21_2 C 0.9148(9) 0.5553(5) 0.2425(17)
H15_2 H 0.8662 0.5802 0.2617
C24 C 0.9718(10) 0.4679(5) 0.236(2)
H17 H 0.9638 0.4316 0.2529
C25_2 C 0.5507(7) 0.4109(4) 0.5145(12)
H18_2 H 0.5549 0.3776 0.5628
C26_2 C 0.8959(9) 0.5023(4) 0.2623(15)
C28_2 C 0.5199(9) 0.2605(5) 0.9186(13)
H20_2 H 0.5152 0.2415 0.8237
O5 O 0.1930(5) 0.3941(3) 0.6036(8)
N3 N 0.2869(7) 0.3723(4) 0.3295(11)
O6 O 0.2411(6) 0.4773(3) 0.5813(12)
C3_3 C 0.0775(9) 0.4616(5) 0.6621(13)
C15_3 C 0.1763(8) 0.4439(5) 0.6088(13)
C17_3 C 0.0059(9) 0.4272(5) 0.6939(15)
H12_3 H 0.0168 0.3909 0.6835
C20_2 C 0.0610(10) 0.5137(5) 0.685(2)
H14_2 H 0.1104 0.5382 0.6657
C1_2 C 0.2222(10) 0.2982(6) 0.1742(14)
H1_2 H 0.2037 0.2625 0.1729
C4_2 C 0.2617(10) 0.3204(5) 0.3155(15)
H3_2 H 0.2719 0.2991 0.4061
C18_2 C 0.2084(9) 0.3257(5) 0.0341(15)
C19_2 C 0.2750(7) 0.3996(4) 0.1958(11)
H13_2 H 0.2937 0.4353 0.2005
C27_2 C 0.2365(8) 0.3786(5) 0.0488(12)
N1_2 N 0.7869(7) 0.8723(4) 0.3295(11)
C1_3 C 0.7222(10) 0.7982(6) 0.1742(14)
H1_3 H 0.7037 0.7625 0.1729
C4_3 C 0.7617(10) 0.8204(5) 0.3155(15)
H3_3 H 0.7719 0.7991 0.4061
C18_3 C 0.7084(9) 0.8257(5) 0.0341(15)
C19_3 C 0.7750(7) 0.8996(4) 0.1958(11)
H13_3 H 0.7937 0.9353 0.2005
C27_3 C 0.7365(8) 0.8786(5) 0.0488(12)
Cu3_2 Cu 0.83526(10) 0.90009(4) 0.54963(13)
O2_4 O 0.9016(6) 0.8839(3) 0.7720(9)
N2_3 N 0.9597(6) 0.9350(4) 0.4934(11)
O4_4 O 0.9161(7) 0.8086(3) 0.6417(9)
C6_4 C 0.9785(8) 0.8114(5) 0.9192(14)
C8_3 C 0.9565(9) 0.9851(4) 0.4322(12)
C10_4 C 0.9262(8) 0.8356(5) 0.7664(13)
O5_2 O 0.6930(5) 0.8941(3) 0.6036(8)
O6_2 O 0.7411(6) 0.9773(3) 0.5813(12)
C3_4 C 0.5775(9) 0.9616(5) 0.6621(13)
C5_3 C 0.2245(8) 0.9929(5) 0.8432(15)
H4_3 H 0.2217 0.9567 0.8192
C11_3 C 0.0428(8) 0.9920(4) 0.8862(13)
H8_3 H 0.0387 0.9578 0.8438
C15_4 C 0.6763(8) 0.9439(5) 0.6088(13)
C17_4 C 0.5059(9) 0.9272(5) 0.6939(15)
H12_4 H 0.5168 0.8909 0.6835
C21_3 C 0.4148(9) 0.9447(5) 0.7425(17)
H15_3 H 0.3662 0.9198 0.7617
C26_3 C 0.3959(9) 0.9977(4) 0.7623(15)
N2_4 N 0.4597(6) 0.5650(4) 0.9934(11)
C5_4 C 0.7245(8) 0.4929(5) 0.8432(15)
H4_4 H 0.7217 0.4567 0.8192
C7_2 C 0.8055(10) 0.5183(5) 0.8252(15)
H5_2 H 0.8077 0.5539 0.8552
C8_4 C 0.4565(9) 0.5149(4) 0.9322(12)
H6_2 H 0.3959 0.4958 0.9212
C11_4 C 0.5428(8) 0.4920(4) 0.8862(13)
H8_4 H 0.5387 0.4578 0.8438
C14_2 C 0.6391(9) 0.5683(5) 0.9700(14)
H11_2 H 0.7001 0.5871 0.9856
C16_2 C 0.6328(8) 0.5180(4) 0.9012(13)
C21_4 C 0.9148(9) 0.4447(5) 0.7425(17)
H15_4 H 0.8662 0.4198 0.7617
C24_2 C 0.9718(10) 0.5321(5) 0.736(2)
H17_2 H 0.9638 0.5684 0.7529
C26_4 C 0.8959(9) 0.4977(4) 0.7623(15)
N3_2 N 0.2869(7) 0.6277(4) 0.8295(11)
C1_4 C 0.2222(10) 0.7018(6) 0.6742(14)
H1_4 H 0.2037 0.7375 0.6729
C2_3 C 0.1203(9) 0.7420(5) 0.3588(15)
H2_3 H 0.1175 0.7626 0.4493
C4_4 C 0.2617(10) 0.6796(5) 0.8155(15)
H3_4 H 0.2719 0.7009 0.9061
C12_3 C 0.0286(10) 0.8149(5) 0.2037(15)
H9_3 H 0.0295 0.8330 0.2996
C13_3 C 0.1654(10) 0.6956(6) 0.3786(15)
H10_3 H 0.1703 0.6751 0.2887
C18_4 C 0.2084(9) 0.6743(5) 0.5341(15)
C19_4 C 0.2750(7) 0.6004(4) 0.6958(11)
H13_4 H 0.2937 0.5647 0.7005
C22_3 C 0.0687(10) 0.7377(5) 0.0607(14)
H16_3 H 0.0983 0.7043 0.0589
C23_3 C 0.0729(10) 0.7646(6) 0.2022(15)
C27_4 C 0.2365(8) 0.6214(5) 0.5488(12)
H19_3 H 0.2294 0.5997 0.4589
C7_3 C 0.3055(10) 0.9817(5) 0.3252(15)
H5_3 H 0.3077 0.9461 0.3552
C14_3 C 0.1391(9) 0.9317(5) 0.4700(14)
H11_3 H 0.2001 0.9129 0.4856
C16_3 C 0.1328(8) 0.9820(4) 0.4012(13)
C20_3 C 0.5610(10) 0.9863(5) 0.185(2)
H14_3 H 0.6104 0.9618 0.1657
C24_3 C 0.4718(10) 0.9679(5) 0.236(2)
H17_3 H 0.4638 0.9316 0.2529
C25_3 C 0.0507(7) 0.9109(4) 0.5145(12)
H18_3 H 0.0549 0.8776 0.5628
C28_3 C 0.0199(9) 0.7605(5) 0.9186(13)
H20_3 H 0.0152 0.7415 0.8237
H6_3 H 0.8959 0.0042 0.4212
C9_4 C 0.9826(9) 0.8383(5) 0.0607(14)
H7_4 H 0.9548 0.8722 0.0619
C2_4 C 0.1203(9) 0.2580(5) 0.8588(15)
H2_4 H 0.1175 0.2374 0.9493
C12_4 C 0.0286(10) 0.1851(5) 0.7037(15)
H9_4 H 0.0295 0.1670 0.7996
C13_4 C 0.1654(10) 0.3044(6) 0.8786(15)
H10_4 H 0.1703 0.3249 0.7887
C22_4 C 0.0687(10) 0.2623(5) 0.5607(14)
H16_4 H 0.0983 0.2957 0.5589
C23_4 C 0.0729(10) 0.2354(6) 0.7022(15)
C25_4 C 0.0507(7) 0.0891(4) 0.0145(12)
H18_4 H 0.0549 0.1224 0.0628
H19_4 H 0.2294 0.4003 0.9589
C28_4 C 0.0199(9) 0.2395(5) 0.4186(13)
H20_4 H 0.0152 0.2585 0.3237
C7_4 C 0.3055(10) 0.0183(5) 0.8252(15)
H5_4 H 0.3077 0.0539 0.8552
C14_4 C 0.1391(9) 0.0683(5) 0.9700(14)
H11_4 H 0.2001 0.0871 0.9856
C16_4 C 0.1328(8) 0.0180(4) 0.9012(13)
C20_4 C 0.5610(10) 0.0137(5) 0.685(2)
H14_4 H 0.6104 0.0382 0.6657
C24_4 C 0.4718(10) 0.0321(5) 0.736(2)
H17_4 H 0.4638 0.0684 0.7529
H6_4 H 0.8959 0.9958 0.9212
loop_
_geom_bond_atom_site_label_1
_geom_bond_atom_site_label_2
_geom_bond_site_symmetry_1
_geom_bond_site_symmetry_2
O1 C15 1_555 1_555
O3 C15 1_555 1_555
C3 C15 1_555 1_555
C17 C3 1_555 1_555
H12 C17 1_555 1_555
C20 C3 1_555 1_555
H14 C20 1_555 1_555
Cu2 O1 1_555 1_555
O3 Cu2 1_555 1_555
Cu2 O2 1_555 1_555
O2 C10 1_555 1_555
C2 H2 1_555 1_555
O4 Cu2 1_555 1_555
C6 C9 1_555 1_555
C9 H7 1_555 1_555
C10 O4 1_555 1_555
C12 C9 1_555 1_555
H9 C12 1_555 1_555
C13 C2 1_555 1_555
H10 C13 1_555 1_555
C22 H16 1_555 1_555
C23 C2 1_555 1_555
H18 C25 1_555 1_555
C28 C6 1_555 1_555
H20 C28 1_555 1_555
C6 C10 1_555 1_555
C12 C23 1_555 1_555
C22 C23 1_555 1_555
C22 C28 1_555 1_555
O1_2 C15_2 1_555 1_555
O3_2 C15_2 1_555 1_555
C3_2 C15_2 1_555 1_555
C5 H4 1_555 1_555
H8 C11 1_555 1_555
C17_2 C3_2 1_555 1_555
H12_2 C17_2 1_555 1_555
C21 C17_2 1_555 1_555
H15 C21 1_555 1_555
Cu3 O1_2 1_555 1_555
O3_2 Cu3 1_555 1_555
C21 C26 1_555 1_555
Cu3 O2_2 1_555 1_555
O2_2 C10_2 1_555 1_555
O4_2 Cu3 1_555 1_555
C6_2 C9_2 1_555 1_555
C9_2 H7_2 1_555 1_555
C10_2 O4_2 1_555 1_555
C6_2 C10_2 1_555 1_555
N1 C4 1_555 1_555
C1 H1 1_555 1_555
C2_2 H2_2 1_555 1_555
C4 C1 1_555 1_555
H3 C4 1_555 1_555
C9_3 H7_3 1_555 1_555
C12_2 C9_3 1_555 1_555
H9_2 C12_2 1_555 1_555
C13_2 C2_2 1_555 1_555
H10_2 C13_2 1_555 1_555
C18 C1 1_555 1_555
C19 N1 1_555 1_555
H13 C19 1_555 1_555
C22_2 H16_2 1_555 1_555
C23_2 C2_2 1_555 1_555
C27 C18 1_555 1_555
H19_2 C27 1_555 1_555
C12_2 C23_2 1_555 1_555
C13_2 C18 1_555 1_555
C19 C27 1_555 1_555
C22_2 C23_2 1_555 1_555
C8 N2 1_555 1_555
Cu1 O2_3 1_555 1_555
O2_3 C10_3 1_555 1_555
N2_2 Cu1 1_555 1_555
O4_3 Cu1 1_555 1_555
C5_2 H4_2 1_555 1_555
C7 C5_2 1_555 1_555
H5 C7 1_555 1_555
C8_2 N2_2 1_555 1_555
H6 C8_2 1_555 1_555
C10_3 O4_3 1_555 1_555
C11_2 C8_2 1_555 1_555
H8_2 C11_2 1_555 1_555
C14 H11 1_555 1_555
C16 C5_2 1_555 1_555
H15_2 C21_2 1_555 1_555
H17 C24 1_555 1_555
C25_2 N2_2 1_555 1_555
H18_2 C25_2 1_555 1_555
C26_2 C7 1_555 1_555
C28_2 C6_3 1_555 1_555
H20_2 C28_2 1_555 1_555
O5 Cu1 1_555 1_555
N3 Cu1 1_555 1_555
O6 Cu1 1_555 1_555
C6_3 C10_3 1_555 1_555
C11_2 C16 1_555 1_555
C14 C16 1_555 1_555
C14 C25_2 1_555 1_555
C21_2 C26_2 1_555 1_555
C24 C26_2 1_555 1_555
O5 C15_3 1_555 1_555
O6 C15_3 1_555 1_555
C3_3 C15_3 1_555 1_555
C17_3 C3_3 1_555 1_555
H12_3 C17_3 1_555 1_555
C20_2 C3_3 1_555 1_555
H14_2 C20_2 1_555 1_555
N3 C4_2 1_555 1_555
C1_2 H1_2 1_555 1_555
C4_2 C1_2 1_555 1_555
H3_2 C4_2 1_555 1_555
C18_2 C1_2 1_555 1_555
C19_2 N3 1_555 1_555
H13_2 C19_2 1_555 1_555
C27_2 C18_2 1_555 1_555
C19_2 C27_2 1_555 1_555
N1_2 C4_3 1_555 1_555
C1_3 H1_3 1_555 1_555
C4_3 C1_3 1_555 1_555
H3_3 C4_3 1_555 1_555
C18_3 C1_3 1_555 1_555
C19_3 N1_2 1_555 1_555
H13_3 C19_3 1_555 1_555
C27_3 C18_3 1_555 1_555
Cu3_2 N1_2 1_555 1_555
C19_3 C27_3 1_555 1_555
Cu3_2 O2_4 1_555 1_555
O2_4 C10_4 1_555 1_555
N2_3 Cu3_2 1_555 1_555
O4_4 Cu3_2 1_555 1_555
C8_3 N2_3 1_555 1_555
C10_4 O4_4 1_555 1_555
O5_2 Cu3_2 1_555 1_555
O6_2 Cu3_2 1_555 1_555
C6_4 C10_4 1_555 1_555
O5_2 C15_4 1_555 1_555
O6_2 C15_4 1_555 1_555
C3_4 C15_4 1_555 1_555
C5_3 H4_3 1_555 1_555
H8_3 C11_3 1_555 1_555
C17_4 C3_4 1_555 1_555
H12_4 C17_4 1_555 1_555
C21_3 C17_4 1_555 1_555
H15_3 C21_3 1_555 1_555
C21_3 C26_3 1_555 1_555
C5_4 H4_4 1_555 1_555
C7_2 C5_4 1_555 1_555
H5_2 C7_2 1_555 1_555
C8_4 N2_4 1_555 1_555
H6_2 C8_4 1_555 1_555
C11_4 C8_4 1_555 1_555
H8_4 C11_4 1_555 1_555
C14_2 H11_2 1_555 1_555
C16_2 C5_4 1_555 1_555
H15_4 C21_4 1_555 1_555
H17_2 C24_2 1_555 1_555
C26_4 C7_2 1_555 1_555
C11_4 C16_2 1_555 1_555
C14_2 C16_2 1_555 1_555
C21_4 C26_4 1_555 1_555
C24_2 C26_4 1_555 1_555
N3_2 C4_4 1_555 1_555
C1_4 H1_4 1_555 1_555
C2_3 H2_3 1_555 1_555
C4_4 C1_4 1_555 1_555
H3_4 C4_4 1_555 1_555
H9_3 C12_3 1_555 1_555
C13_3 C2_3 1_555 1_555
H10_3 C13_3 1_555 1_555
C18_4 C1_4 1_555 1_555
C19_4 N3_2 1_555 1_555
H13_4 C19_4 1_555 1_555
C22_3 H16_3 1_555 1_555
C23_3 C2_3 1_555 1_555
C27_4 C18_4 1_555 1_555
H19_3 C27_4 1_555 1_555
C12_3 C23_3 1_555 1_555
C13_3 C18_4 1_555 1_555
C19_4 C27_4 1_555 1_555
C22_3 C23_3 1_555 1_555
H5_3 C7_3 1_555 1_555
C14_3 H11_3 1_555 1_555
H14_3 C20_3 1_555 1_555
C24_3 C20_3 1_555 1_555
H17_3 C24_3 1_555 1_555
H18_3 C25_3 1_555 1_555
H20_3 C28_3 1_555 1_555
C14_3 C16_3 1_555 1_555
C14_3 C25_3 1_555 1_555
C9_4 H7_4 1_555 1_555
C2_4 H2_4 1_555 1_555
H9_4 C12_4 1_555 1_555
C13_4 C2_4 1_555 1_555
H10_4 C13_4 1_555 1_555
C22_4 H16_4 1_555 1_555
C23_4 C2_4 1_555 1_555
H18_4 C25_4 1_555 1_555
H20_4 C28_4 1_555 1_555
C12_4 C23_4 1_555 1_555
C22_4 C23_4 1_555 1_555
C22_4 C28_4 1_555 1_555
H5_4 C7_4 1_555 1_555
C14_4 H11_4 1_555 1_555
H14_4 C20_4 1_555 1_555
C24_4 C20_4 1_555 1_555
H17_4 C24_4 1_555 1_555
C14_4 C16_4 1_555 1_555

#END
