
###############################################################################
#
# This file contains modified crystal structure data generated from the
# MOF subset of the Cambridge Structural Database (CSD) v543 
# hosted by the Cambridge Crystallographic Data Centre (CCDC).
#
# This work is licensed under the Creative Commons
# Attribution-NonCommercial-ShareAlike 4.0 International License.
# To view a copy of this license, visit
# http://creativecommons.org/licenses/by-nc-sa/4.0/
# or send a letter to
# Creative Commons, PO Box 1866, Mountain View, CA 94042, USA.
#
# CIF created using the CSD Python API on 29 September 2022
# The structure has been converted into the P1 space group
# The structure has a 3D framework
# The original CSD entry HEJCIL is in the tetragonal crystal system
# The framework has been calculated to contain at least 10.0% void space
# The void calculation uses a probe of radius 1.32A, grid spacing 0.4
#
###############################################################################

data_HEJCIL
_chemical_formula_moiety         '(C224 H160 Cu17 N16 O32)n'
_symmetry_cell_setting           triclinic
_symmetry_space_group_name_H-M   'P 1'
_symmetry_Int_Tables_number      1
_space_group_name_Hall           'P 1'
loop_
_symmetry_equiv_pos_site_id
_symmetry_equiv_pos_as_xyz
1 x,y,z
_cell_length_a                   38.71(2)
_cell_length_b                   38.71(2)
_cell_length_c                   5.453(5)
_cell_angle_alpha                90
_cell_angle_beta                 90
_cell_angle_gamma                90
_cell_volume                     8171.12
loop_
_atom_site_label
_atom_site_type_symbol
_atom_site_fract_x
_atom_site_fract_y
_atom_site_fract_z
N1 N 0.22422(17) 0.21599(18) 0.0368(12)
C6 C 0.2206(2) 0.1826(2) 0.1065(19)
H5 H 0.2330 0.1750 0.2421
H8 H 0.1963 0.1373 0.0511
Cu3 Cu 0.2500 0.2500 0.2500
N2 N 0.27578(17) 0.28401(18) 0.4632(12)
C16 C 0.2917(3) 0.2753(3) 0.6662(18)
H12 H 0.2891 0.2527 0.7226
C17 C 0.3168(3) 0.3308(3) 0.726(2)
C18 C 0.3124(2) 0.2979(3) 0.8033(18)
H13 H 0.3230 0.2903 0.9466
H14 H 0.3805 0.4158 0.8663
C20 C 0.2794(2) 0.3174(2) 0.3935(19)
H15 H 0.2670 0.3250 0.2579
C26 C 0.3005(3) 0.3406(3) 0.512(2)
H18 H 0.3037 0.3627 0.4489
C27 C 0.3399(3) 0.3561(4) 0.846(3)
H19 H 0.3401 0.3783 0.7804
O1 O 0.2747(2) 0.21164(15) 0.4025(14)
O2 O 0.3140(2) 0.2254(2) 0.1283(16)
C1 C 0.3581(3) 0.1738(3) 0.316(3)
H1 H 0.3651 0.1854 0.1747
C4 C 0.4521(3) 0.0624(2) 0.9467(18)
H3 H 0.4597 0.0730 0.8034
C5 C 0.3404(4) 0.1408(4) 0.736(3)
H4 H 0.3342 0.1305 0.8837
C7 C 0.3262(3) 0.1809(3) 0.415(2)
C8 C 0.3042(3) 0.2080(2) 0.299(2)
C9 C 0.3177(4) 0.1654(3) 0.619(3)
H6 H 0.2965 0.1704 0.6916
C10 C 0.3700(5) 0.1330(4) 0.629(3)
C11 C 0.3801(4) 0.1500(3) 0.420(3)
H7 H 0.4015 0.1454 0.3499
C13 C 0.3939(4) 0.0899(3) 0.904(3)
H9 H 0.3717 0.0901 0.9696
C14 C 0.3989(4) 0.1087(4) 0.730(3)
H10 H 0.4204 0.1087 0.6541
O3 O 0.2253(2) 0.28836(15) 0.0975(14)
O4 O 0.1860(2) 0.2746(2) 0.3717(16)
C15 C 0.1419(3) 0.3262(3) 0.184(3)
H11 H 0.1349 0.3146 0.3253
C21 C 0.1738(3) 0.3191(3) 0.085(2)
C22 C 0.1958(3) 0.2920(2) 0.201(2)
C25 C 0.1199(4) 0.3500(3) 0.080(3)
H17 H 0.0985 0.3546 0.1501
Cu1 Cu 0.0000 0.0000 0.0000
O1_2 O 0.03836(15) 0.0247(2) 0.1525(14)
C1_2 C 0.0762(3) 0.1081(3) 0.066(3)
C2 C 0.2083(3) 0.2247(3) 0.8338(18)
H2 H 0.2109 0.2473 0.7774
C3 C 0.1832(3) 0.1692(3) 0.774(2)
C4_2 C 0.1876(2) 0.2021(3) 0.6967(18)
H3_2 H 0.1770 0.2097 0.5534
C5_2 C 0.1092(4) 0.0904(4) 0.486(3)
H4_2 H 0.1195 0.0842 0.6337
C7_2 C 0.0691(3) 0.0762(3) 0.165(2)
C8_2 C 0.0420(2) 0.0542(3) 0.049(2)
C9_2 C 0.0846(3) 0.0677(4) 0.369(3)
H6_2 H 0.0796 0.0465 0.4416
C10_2 C 0.1170(4) 0.1200(5) 0.379(3)
C11_2 C 0.1000(3) 0.1301(4) 0.170(3)
H7_2 H 0.1046 0.1515 0.0999
C12 C 0.1995(3) 0.1594(3) 0.988(2)
C13_2 C 0.1601(3) 0.1439(4) 0.654(3)
H9_2 H 0.1599 0.1217 0.7196
C14_2 C 0.1413(4) 0.1489(4) 0.480(3)
H10_2 H 0.1413 0.1704 0.4041
Cu1_2 Cu 0.0000 0.0000 1.0000
O2_2 O 0.0246(2) 0.0640(2) 0.8783(16)
H1_2 H 0.0646 0.1151 0.9247
Cu1_3 Cu 0.0000 1.0000 0.0000
Cu1_4 Cu 0.0000 1.0000 1.0000
N3 N 0.03401(18) 0.97422(17) 0.7868(12)
C2_2 C 0.0253(3) 0.9583(3) 0.5838(18)
H2_2 H 0.0027 0.9609 0.5274
C3_2 C 0.0808(3) 0.9332(3) 0.524(2)
C4_3 C 0.0479(3) 0.9376(2) 0.4467(18)
H3_3 H 0.0403 0.9270 0.3034
C5_3 C 0.1596(4) 0.8592(4) 0.236(3)
H4_3 H 0.1658 0.8695 0.3837
C6_2 C 0.0674(2) 0.9706(2) 0.8565(19)
H5_2 H 0.0750 0.9830 0.9921
C9_3 C 0.1823(4) 0.8346(3) 0.119(3)
H6_3 H 0.2035 0.8296 0.1916
C10_3 C 0.1300(5) 0.8670(4) 0.129(3)
C12_2 C 0.0906(3) 0.9495(3) 0.738(2)
H8_2 H 0.1127 0.9463 0.8011
C13_3 C 0.1061(4) 0.9101(3) 0.404(3)
H9_3 H 0.1283 0.9099 0.4696
C14_3 C 0.1011(4) 0.8913(4) 0.230(3)
H10_3 H 0.0796 0.8913 0.1541
Cu1_5 Cu 1.0000 0.0000 0.0000
N4 N 0.96599(18) 0.02578(17) 0.2132(12)
C16_2 C 0.9747(3) 0.0417(3) 0.4162(18)
H12_2 H 0.9973 0.0391 0.4726
C17_2 C 0.9192(3) 0.0668(3) 0.476(2)
C18_2 C 0.9521(3) 0.0624(2) 0.5533(18)
H13_2 H 0.9597 0.0730 0.6966
C19 C 0.8404(4) 0.1408(4) 0.764(3)
H14_2 H 0.8342 0.1305 0.6163
C20_2 C 0.9326(2) 0.0294(2) 0.1435(19)
H15_2 H 0.9250 0.0170 0.0079
C23 C 0.8177(4) 0.1654(3) 0.881(3)
H16 H 0.7965 0.1704 0.8084
C24 C 0.8700(5) 0.1330(4) 0.871(3)
C26_2 C 0.9094(3) 0.0505(3) 0.262(2)
H18_2 H 0.8873 0.0537 0.1989
C27_2 C 0.8939(4) 0.0899(3) 0.596(3)
H19_2 H 0.8717 0.0901 0.5304
C28 C 0.8989(4) 0.1087(4) 0.770(3)
H20 H 0.9204 0.1087 0.8459
Cu1_6 Cu 1.0000 0.0000 1.0000
Cu1_7 Cu 1.0000 1.0000 0.0000
O4_2 O 0.9754(2) 0.9360(2) 0.1217(16)
H11_2 H 0.9354 0.8849 0.0753
Cu1_8 Cu 1.0000 1.0000 1.0000
O3_2 O 0.96164(15) 0.9753(2) 0.8475(14)
C15_2 C 0.9238(3) 0.8919(3) 0.934(3)
C16_3 C 0.7917(3) 0.7753(3) 0.1662(18)
H12_3 H 0.7891 0.7527 0.2226
C17_3 C 0.8168(3) 0.8308(3) 0.226(2)
C18_3 C 0.8124(2) 0.7979(3) 0.3033(18)
H13_3 H 0.8230 0.7903 0.4466
C19_2 C 0.8908(4) 0.9096(4) 0.514(3)
H14_3 H 0.8805 0.9158 0.3663
C21_2 C 0.9309(3) 0.9238(3) 0.835(2)
C22_2 C 0.9580(2) 0.9458(3) 0.951(2)
C23_2 C 0.9154(3) 0.9323(4) 0.631(3)
H16_2 H 0.9204 0.9535 0.5584
C24_2 C 0.8830(4) 0.8800(5) 0.621(3)
C25_2 C 0.9000(3) 0.8699(4) 0.830(3)
H17_2 H 0.8954 0.8485 0.9001
C26_3 C 0.8005(3) 0.8406(3) 0.012(2)
C27_3 C 0.8399(3) 0.8561(4) 0.346(3)
H19_3 H 0.8401 0.8783 0.2804
C28_2 C 0.8587(4) 0.8511(4) 0.520(3)
H20_2 H 0.8587 0.8296 0.5959
N2_2 N 0.77578(17) 0.78401(18) 0.9632(12)
C20_3 C 0.7794(2) 0.8174(2) 0.8935(19)
H15_3 H 0.7670 0.8250 0.7579
H18_3 H 0.8037 0.8627 0.9489
Cu2 Cu 0.7500 0.7500 0.7500
O1_3 O 0.7747(2) 0.71164(15) 0.9025(14)
O2_3 O 0.8140(2) 0.7254(2) 0.6283(16)
C1_3 C 0.8581(3) 0.6738(3) 0.816(3)
H1_3 H 0.8651 0.6854 0.6747
C7_3 C 0.8262(3) 0.6809(3) 0.915(2)
C8_3 C 0.8042(3) 0.7080(2) 0.799(2)
C11_3 C 0.8801(4) 0.6500(3) 0.920(3)
H7_3 H 0.9015 0.6454 0.8499
O3_3 O 0.7253(2) 0.78836(15) 0.5975(14)
O4_3 O 0.6860(2) 0.7746(2) 0.8717(16)
C15_3 C 0.6419(3) 0.8262(3) 0.684(3)
H11_3 H 0.6349 0.8146 0.8253
C18_4 C 0.5479(3) 0.9376(2) 0.0533(18)
H13_4 H 0.5403 0.9270 0.1966
C19_3 C 0.6596(4) 0.8592(4) 0.264(3)
H14_4 H 0.6658 0.8695 0.1163
C21_3 C 0.6738(3) 0.8191(3) 0.585(2)
C22_3 C 0.6958(3) 0.7920(2) 0.701(2)
C23_3 C 0.6823(4) 0.8346(3) 0.381(3)
H16_3 H 0.7035 0.8296 0.3084
C24_3 C 0.6300(5) 0.8670(4) 0.371(3)
C25_3 C 0.6199(4) 0.8500(3) 0.580(3)
H17_3 H 0.5985 0.8546 0.6501
C27_4 C 0.6061(4) 0.9101(3) 0.096(3)
H19_4 H 0.6283 0.9099 0.0304
C28_3 C 0.6011(4) 0.8913(4) 0.270(3)
H20_3 H 0.5796 0.8913 0.3459
N3_2 N 0.72422(17) 0.71599(18) 0.5368(12)
C2_3 C 0.7083(3) 0.7247(3) 0.3338(18)
H2_3 H 0.7109 0.7473 0.2774
C3_3 C 0.6832(3) 0.6692(3) 0.274(2)
C4_4 C 0.6876(2) 0.7021(3) 0.1967(18)
H3_4 H 0.6770 0.7097 0.0534
H4_4 H 0.6195 0.5842 0.1337
C6_3 C 0.7206(2) 0.6826(2) 0.6065(19)
H5_3 H 0.7330 0.6750 0.7421
C12_3 C 0.6995(3) 0.6594(3) 0.488(2)
H8_3 H 0.6963 0.6373 0.5511
C13_4 C 0.6601(3) 0.6439(4) 0.154(3)
H9_4 H 0.6599 0.6217 0.2196
N1_2 N 0.53401(18) 0.47422(17) 0.2868(12)
C2_4 C 0.5253(3) 0.4583(3) 0.0838(18)
H2_4 H 0.5027 0.4609 0.0274
C3_4 C 0.5808(3) 0.4332(3) 0.024(2)
C6_4 C 0.5674(2) 0.4706(2) 0.3565(19)
H5_4 H 0.5750 0.4830 0.4921
C12_4 C 0.5906(3) 0.4495(3) 0.238(2)
H8_4 H 0.6127 0.4463 0.3011
Cu3_2 Cu 0.5000 0.5000 0.5000
O1_4 O 0.53836(15) 0.5247(2) 0.6525(14)
O2_4 O 0.5246(2) 0.5640(2) 0.3783(16)
C1_4 C 0.5762(3) 0.6081(3) 0.566(3)
H1_4 H 0.5646 0.6151 0.4247
C5_4 C 0.6092(4) 0.5904(4) 0.986(3)
C7_4 C 0.5691(3) 0.5762(3) 0.665(2)
C8_4 C 0.5420(2) 0.5542(3) 0.549(2)
C9_4 C 0.5846(3) 0.5677(4) 0.869(3)
H6_4 H 0.5796 0.5465 0.9416
C10_4 C 0.6170(4) 0.6200(5) 0.879(3)
C11_4 C 0.6000(3) 0.6301(4) 0.670(3)
H7_4 H 0.6046 0.6515 0.5999
C14_4 C 0.6413(4) 0.6489(4) 0.980(3)
H10_4 H 0.6413 0.6704 0.9041
O3_4 O 0.46164(15) 0.4753(2) 0.3475(14)
O4_4 O 0.4754(2) 0.4360(2) 0.6217(16)
C15_4 C 0.4238(3) 0.3919(3) 0.434(3)
H11_4 H 0.4354 0.3849 0.5753
C19_4 C 0.3908(4) 0.4096(4) 0.014(3)
C21_4 C 0.4309(3) 0.4238(3) 0.335(2)
C22_4 C 0.4580(2) 0.4458(3) 0.451(2)
C23_4 C 0.4154(3) 0.4323(4) 0.131(3)
H16_4 H 0.4204 0.4535 0.0584
C24_4 C 0.3830(4) 0.3800(5) 0.121(3)
C25_4 C 0.4000(3) 0.3699(4) 0.330(3)
H17_4 H 0.3954 0.3485 0.4001
C28_4 C 0.3587(4) 0.3511(4) 0.020(3)
H20_4 H 0.3587 0.3296 0.0959
N4_2 N 0.46599(18) 0.52578(17) 0.7132(12)
C16_4 C 0.4747(3) 0.5417(3) 0.9162(18)
H12_4 H 0.4973 0.5391 0.9726
C17_4 C 0.4192(3) 0.5668(3) 0.976(2)
C20_4 C 0.4326(2) 0.5294(2) 0.6435(19)
H15_4 H 0.4250 0.5170 0.5079
C26_4 C 0.4094(3) 0.5505(3) 0.762(2)
H18_4 H 0.3873 0.5537 0.6989
Cu1_9 Cu 0.7500 0.2500 0.2500
O1_5 O 0.7253(2) 0.28836(15) 0.4025(14)
O2_5 O 0.6860(2) 0.2746(2) 0.1283(16)
C1_5 C 0.6419(3) 0.3262(3) 0.316(3)
H1_5 H 0.6349 0.3146 0.1747
C4_5 C 0.5479(3) 0.4376(2) 0.9467(18)
H3_5 H 0.5403 0.4270 0.8034
C5_5 C 0.6596(4) 0.3592(4) 0.736(3)
H4_5 H 0.6658 0.3695 0.8837
C7_5 C 0.6738(3) 0.3191(3) 0.415(2)
C8_5 C 0.6958(3) 0.2920(2) 0.299(2)
C9_5 C 0.6823(4) 0.3346(3) 0.619(3)
H6_5 H 0.7035 0.3296 0.6916
C10_5 C 0.6300(5) 0.3670(4) 0.629(3)
C11_5 C 0.6199(4) 0.3500(3) 0.420(3)
H7_5 H 0.5985 0.3546 0.3499
C13_5 C 0.6061(4) 0.4101(3) 0.904(3)
H9_5 H 0.6283 0.4099 0.9696
C14_5 C 0.6011(4) 0.3913(4) 0.730(3)
H10_5 H 0.5796 0.3913 0.6541
O3_5 O 0.7747(2) 0.21164(15) 0.0975(14)
O4_5 O 0.8140(2) 0.2254(2) 0.3717(16)
C15_5 C 0.8581(3) 0.1738(3) 0.184(3)
H11_5 H 0.8651 0.1854 0.3253
C21_5 C 0.8262(3) 0.1809(3) 0.085(2)
C22_5 C 0.8042(3) 0.2080(2) 0.201(2)
C25_5 C 0.8801(4) 0.1500(3) 0.080(3)
H17_5 H 0.9015 0.1454 0.1501
N3_3 N 0.77578(17) 0.28401(18) 0.0368(12)
N4_3 N 0.72422(17) 0.21599(18) 0.4632(12)
C16_5 C 0.7083(3) 0.2247(3) 0.6662(18)
H12_5 H 0.7109 0.2473 0.7226
C17_5 C 0.6832(3) 0.1692(3) 0.726(2)
C18_5 C 0.6876(2) 0.2021(3) 0.8033(18)
H13_5 H 0.6770 0.2097 0.9466
H14_5 H 0.6195 0.0842 0.8663
C20_5 C 0.7206(2) 0.1826(2) 0.3935(19)
H15_5 H 0.7330 0.1750 0.2579
C26_5 C 0.6995(3) 0.1594(3) 0.512(2)
H18_5 H 0.6963 0.1373 0.4489
C27_5 C 0.6601(3) 0.1439(4) 0.846(3)
H19_5 H 0.6599 0.1217 0.7804
C6_5 C 0.7794(2) 0.3174(2) 0.1065(19)
H5_5 H 0.7670 0.3250 0.2421
H8_5 H 0.8037 0.3627 0.0511
Cu1_10 Cu 0.5000 0.0000 0.5000
O3_6 O 0.53836(15) 0.0247(2) 0.3475(14)
O4_6 O 0.5246(2) 0.0640(2) 0.6217(16)
C15_6 C 0.5762(3) 0.1081(3) 0.434(3)
H11_6 H 0.5646 0.1151 0.5753
C19_5 C 0.6092(4) 0.0904(4) 0.014(3)
C21_6 C 0.5691(3) 0.0762(3) 0.335(2)
C22_6 C 0.5420(2) 0.0542(3) 0.451(2)
C23_5 C 0.5846(3) 0.0677(4) 0.131(3)
H16_5 H 0.5796 0.0465 0.0584
C24_5 C 0.6170(4) 0.1200(5) 0.121(3)
C25_6 C 0.6000(3) 0.1301(4) 0.330(3)
H17_6 H 0.6046 0.1515 0.4001
C28_5 C 0.6413(4) 0.1489(4) 0.020(3)
H20_5 H 0.6413 0.1704 0.0959
N3_4 N 0.46599(18) 0.02578(17) 0.2868(12)
C2_5 C 0.4747(3) 0.0417(3) 0.0838(18)
H2_5 H 0.4973 0.0391 0.0274
C3_5 C 0.4192(3) 0.0668(3) 0.024(2)
C6_6 C 0.4326(2) 0.0294(2) 0.3565(19)
H5_6 H 0.4250 0.0170 0.4921
C12_5 C 0.4094(3) 0.0505(3) 0.238(2)
H8_6 H 0.3873 0.0537 0.3011
N1_3 N 0.27578(17) 0.78401(18) 0.5368(12)
C2_6 C 0.2917(3) 0.7753(3) 0.3338(18)
H2_6 H 0.2891 0.7527 0.2774
C3_6 C 0.3168(3) 0.8308(3) 0.274(2)
C4_6 C 0.3124(2) 0.7979(3) 0.1967(18)
H3_6 H 0.3230 0.7903 0.0534
H4_6 H 0.3805 0.9158 0.1337
C6_7 C 0.2794(2) 0.8174(2) 0.6065(19)
H5_7 H 0.2670 0.8250 0.7421
C12_6 C 0.3005(3) 0.8406(3) 0.488(2)
H8_7 H 0.3037 0.8627 0.5511
C13_6 C 0.3399(3) 0.8561(4) 0.154(3)
H9_6 H 0.3401 0.8783 0.2196
Cu3_3 Cu 0.2500 0.7500 0.7500
O1_6 O 0.2253(2) 0.78836(15) 0.9025(14)
O2_6 O 0.1860(2) 0.7746(2) 0.6283(16)
C1_6 C 0.1419(3) 0.8262(3) 0.816(3)
H1_6 H 0.1349 0.8146 0.6747
C7_6 C 0.1738(3) 0.8191(3) 0.915(2)
C8_6 C 0.1958(3) 0.7920(2) 0.799(2)
C11_6 C 0.1199(4) 0.8500(3) 0.920(3)
H7_6 H 0.0985 0.8546 0.8499
O3_7 O 0.2747(2) 0.71164(15) 0.5975(14)
O4_7 O 0.3140(2) 0.7254(2) 0.8717(16)
C15_7 C 0.3581(3) 0.6738(3) 0.684(3)
H11_7 H 0.3651 0.6854 0.8253
C18_6 C 0.4521(3) 0.5624(2) 0.0533(18)
H13_6 H 0.4597 0.5730 0.1966
C19_6 C 0.3404(4) 0.6408(4) 0.264(3)
H14_6 H 0.3342 0.6305 0.1163
C21_7 C 0.3262(3) 0.6809(3) 0.585(2)
C22_7 C 0.3042(3) 0.7080(2) 0.701(2)
C23_6 C 0.3177(4) 0.6654(3) 0.381(3)
H16_6 H 0.2965 0.6704 0.3084
C24_6 C 0.3700(5) 0.6330(4) 0.371(3)
C25_7 C 0.3801(4) 0.6500(3) 0.580(3)
H17_7 H 0.4015 0.6454 0.6501
C27_6 C 0.3939(4) 0.5899(3) 0.096(3)
H19_6 H 0.3717 0.5901 0.0304
C28_6 C 0.3989(4) 0.6087(4) 0.270(3)
H20_6 H 0.4204 0.6087 0.3459
N4_4 N 0.22422(17) 0.71599(18) 0.9632(12)
C20_6 C 0.2206(2) 0.6826(2) 0.8935(19)
H15_6 H 0.2330 0.6750 0.7579
H18_6 H 0.1963 0.6373 0.9489
Cu1_11 Cu 0.5000 1.0000 0.5000
O1_7 O 0.46164(15) 0.9753(2) 0.6525(14)
O2_7 O 0.4754(2) 0.9360(2) 0.3783(16)
C1_7 C 0.4238(3) 0.8919(3) 0.566(3)
H1_7 H 0.4354 0.8849 0.4247
C5_6 C 0.3908(4) 0.9096(4) 0.986(3)
C7_7 C 0.4309(3) 0.9238(3) 0.665(2)
C8_7 C 0.4580(2) 0.9458(3) 0.549(2)
C9_6 C 0.4154(3) 0.9323(4) 0.869(3)
H6_6 H 0.4204 0.9535 0.9416
C10_6 C 0.3830(4) 0.8800(5) 0.879(3)
C11_7 C 0.4000(3) 0.8699(4) 0.670(3)
H7_7 H 0.3954 0.8485 0.5999
C14_6 C 0.3587(4) 0.8511(4) 0.980(3)
H10_6 H 0.3587 0.8296 0.9041
N4_5 N 0.53401(18) 0.97422(17) 0.7132(12)
C16_6 C 0.5253(3) 0.9583(3) 0.9162(18)
H12_6 H 0.5027 0.9609 0.9726
C17_6 C 0.5808(3) 0.9332(3) 0.976(2)
C20_7 C 0.5674(2) 0.9706(2) 0.6435(19)
H15_7 H 0.5750 0.9830 0.5079
C26_6 C 0.5906(3) 0.9495(3) 0.762(2)
H18_7 H 0.6127 0.9463 0.6989
Cu3_4 Cu 0.0000 0.5000 0.0000
O4_8 O 0.0246(2) 0.5640(2) 0.1217(16)
H11_8 H 0.0646 0.6151 0.0753
N4_6 N 0.03401(18) 0.47422(17) 0.2132(12)
C16_7 C 0.0253(3) 0.4583(3) 0.4162(18)
H12_7 H 0.0027 0.4609 0.4726
C17_7 C 0.0808(3) 0.4332(3) 0.476(2)
C18_7 C 0.0479(3) 0.4376(2) 0.5533(18)
H13_7 H 0.0403 0.4270 0.6966
C19_7 C 0.1596(4) 0.3592(4) 0.764(3)
H14_7 H 0.1658 0.3695 0.6163
C20_8 C 0.0674(2) 0.4706(2) 0.1435(19)
H15_8 H 0.0750 0.4830 0.0079
C23_7 C 0.1823(4) 0.3346(3) 0.881(3)
H16_7 H 0.2035 0.3296 0.8084
C24_7 C 0.1300(5) 0.3670(4) 0.871(3)
C26_7 C 0.0906(3) 0.4495(3) 0.262(2)
H18_8 H 0.1127 0.4463 0.1989
C27_7 C 0.1061(4) 0.4101(3) 0.596(3)
H19_7 H 0.1283 0.4099 0.5304
C28_7 C 0.1011(4) 0.3913(4) 0.770(3)
H20_7 H 0.0796 0.3913 0.8459
Cu3_5 Cu 0.0000 0.5000 1.0000
O3_8 O 0.03836(15) 0.5247(2) 0.8475(14)
C15_8 C 0.0762(3) 0.6081(3) 0.934(3)
C16_8 C 0.2083(3) 0.7247(3) 0.1662(18)
H12_8 H 0.2109 0.7473 0.2226
C17_8 C 0.1832(3) 0.6692(3) 0.226(2)
C18_8 C 0.1876(2) 0.7021(3) 0.3033(18)
H13_8 H 0.1770 0.7097 0.4466
C19_8 C 0.1092(4) 0.5904(4) 0.514(3)
H14_8 H 0.1195 0.5842 0.3663
C21_8 C 0.0691(3) 0.5762(3) 0.835(2)
C22_8 C 0.0420(2) 0.5542(3) 0.951(2)
C23_8 C 0.0846(3) 0.5677(4) 0.631(3)
H16_8 H 0.0796 0.5465 0.5584
C24_8 C 0.1170(4) 0.6200(5) 0.621(3)
C25_8 C 0.1000(3) 0.6301(4) 0.830(3)
H17_8 H 0.1046 0.6515 0.9001
C26_8 C 0.1995(3) 0.6594(3) 0.012(2)
C27_8 C 0.1601(3) 0.6439(4) 0.346(3)
H19_8 H 0.1599 0.6217 0.2804
C28_8 C 0.1413(4) 0.6489(4) 0.520(3)
H20_8 H 0.1413 0.6704 0.5959
Cu3_6 Cu 1.0000 0.5000 0.0000
O1_8 O 0.96164(15) 0.4753(2) 0.1525(14)
C1_8 C 0.9238(3) 0.3919(3) 0.066(3)
C2_7 C 0.7917(3) 0.2753(3) 0.8338(18)
H2_7 H 0.7891 0.2527 0.7774
C3_7 C 0.8168(3) 0.3308(3) 0.774(2)
C4_7 C 0.8124(2) 0.2979(3) 0.6967(18)
H3_7 H 0.8230 0.2903 0.5534
C5_7 C 0.8908(4) 0.4096(4) 0.486(3)
H4_7 H 0.8805 0.4158 0.6337
C7_8 C 0.9309(3) 0.4238(3) 0.165(2)
C8_8 C 0.9580(2) 0.4458(3) 0.049(2)
C9_7 C 0.9154(3) 0.4323(4) 0.369(3)
H6_7 H 0.9204 0.4535 0.4416
C10_7 C 0.8830(4) 0.3800(5) 0.379(3)
C11_8 C 0.9000(3) 0.3699(4) 0.170(3)
H7_8 H 0.8954 0.3485 0.0999
C12_7 C 0.8005(3) 0.3406(3) 0.988(2)
C13_7 C 0.8399(3) 0.3561(4) 0.654(3)
H9_7 H 0.8401 0.3783 0.7196
C14_7 C 0.8587(4) 0.3511(4) 0.480(3)
H10_7 H 0.8587 0.3296 0.4041
N1_4 N 0.96599(18) 0.52578(17) 0.7868(12)
C2_8 C 0.9747(3) 0.5417(3) 0.5838(18)
H2_8 H 0.9973 0.5391 0.5274
C3_8 C 0.9192(3) 0.5668(3) 0.524(2)
C4_8 C 0.9521(3) 0.5624(2) 0.4467(18)
H3_8 H 0.9597 0.5730 0.3034
C5_8 C 0.8404(4) 0.6408(4) 0.236(3)
H4_8 H 0.8342 0.6305 0.3837
C6_8 C 0.9326(2) 0.5294(2) 0.8565(19)
H5_8 H 0.9250 0.5170 0.9921
C9_8 C 0.8177(4) 0.6654(3) 0.119(3)
H6_8 H 0.7965 0.6704 0.1916
C10_8 C 0.8700(5) 0.6330(4) 0.129(3)
C12_8 C 0.9094(3) 0.5505(3) 0.738(2)
H8_8 H 0.8873 0.5537 0.8011
C13_8 C 0.8939(4) 0.5899(3) 0.404(3)
H9_8 H 0.8717 0.5901 0.4696
C14_8 C 0.8989(4) 0.6087(4) 0.230(3)
H10_8 H 0.9204 0.6087 0.1541
Cu3_7 Cu 1.0000 0.5000 1.0000
O2_8 O 0.9754(2) 0.4360(2) 0.8783(16)
H1_8 H 0.9354 0.3849 0.9247
loop_
_geom_bond_atom_site_label_1
_geom_bond_atom_site_label_2
_geom_bond_site_symmetry_1
_geom_bond_site_symmetry_2
C6 N1 1_555 1_555
H5 C6 1_555 1_555
Cu3 N1 1_555 1_555
N2 C16 1_555 1_555
C16 H12 1_555 1_555
C17 C18 1_555 1_555
C18 C16 1_555 1_555
H13 C18 1_555 1_555
C20 N2 1_555 1_555
H15 C20 1_555 1_555
C26 C17 1_555 1_555
H18 C26 1_555 1_555
C27 C17 1_555 1_555
H19 C27 1_555 1_555
Cu3 N2 1_555 1_555
C20 C26 1_555 1_555
Cu3 O1 1_555 1_555
O1 C8 1_555 1_555
O2 Cu3 1_555 1_555
C1 H1 1_555 1_555
H3 C4 1_555 1_555
C5 H4 1_555 1_555
C7 C1 1_555 1_555
C8 O2 1_555 1_555
C9 C5 1_555 1_555
H6 C9 1_555 1_555
C10 C5 1_555 1_555
C11 C1 1_555 1_555
H7 C11 1_555 1_555
H9 C13 1_555 1_555
C14 C10 1_555 1_555
H10 C14 1_555 1_555
O3 Cu3 1_555 1_555
O4 Cu3 1_555 1_555
C15 H11 1_555 1_555
C21 C15 1_555 1_555
C22 O3 1_555 1_555
C25 C15 1_555 1_555
H17 C25 1_555 1_555
C7 C8 1_555 1_555
C7 C9 1_555 1_555
C10 C11 1_555 1_555
C13 C14 1_555 1_555
O4 C22 1_555 1_555
C21 C22 1_555 1_555
Cu1 O1_2 1_555 1_555
O1_2 C8_2 1_555 1_555
C2 H2 1_555 1_555
C3 C4_2 1_555 1_555
C4_2 C2 1_555 1_555
H3_2 C4_2 1_555 1_555
C5_2 H4_2 1_555 1_555
C7_2 C1_2 1_555 1_555
C9_2 C5_2 1_555 1_555
H6_2 C9_2 1_555 1_555
C10_2 C5_2 1_555 1_555
C11_2 C1_2 1_555 1_555
H7_2 C11_2 1_555 1_555
C12 C3 1_555 1_555
C13_2 C3 1_555 1_555
H9_2 C13_2 1_555 1_555
C14_2 C10_2 1_555 1_555
H10_2 C14_2 1_555 1_555
C7_2 C8_2 1_555 1_555
C7_2 C9_2 1_555 1_555
C10_2 C11_2 1_555 1_555
C13_2 C14_2 1_555 1_555
O2_2 Cu1_2 1_555 1_555
N3 Cu1_4 1_555 1_555
N3 C2_2 1_555 1_555
C2_2 H2_2 1_555 1_555
C3_2 C4_3 1_555 1_555
C4_3 C2_2 1_555 1_555
H3_3 C4_3 1_555 1_555
C5_3 H4_3 1_555 1_555
C6_2 N3 1_555 1_555
H5_2 C6_2 1_555 1_555
C9_3 C5_3 1_555 1_555
H6_3 C9_3 1_555 1_555
C10_3 C5_3 1_555 1_555
C12_2 C3_2 1_555 1_555
H8_2 C12_2 1_555 1_555
C13_3 C3_2 1_555 1_555
H9_3 C13_3 1_555 1_555
C14_3 C10_3 1_555 1_555
H10_3 C14_3 1_555 1_555
C6_2 C12_2 1_555 1_555
C13_3 C14_3 1_555 1_555
N4 Cu1_5 1_555 1_555
N4 C16_2 1_555 1_555
C16_2 H12_2 1_555 1_555
C17_2 C18_2 1_555 1_555
C18_2 C16_2 1_555 1_555
H13_2 C18_2 1_555 1_555
C19 H14_2 1_555 1_555
C20_2 N4 1_555 1_555
H15_2 C20_2 1_555 1_555
C23 C19 1_555 1_555
H16 C23 1_555 1_555
C24 C19 1_555 1_555
C26_2 C17_2 1_555 1_555
H18_2 C26_2 1_555 1_555
C27_2 C17_2 1_555 1_555
H19_2 C27_2 1_555 1_555
C28 C24 1_555 1_555
H20 C28 1_555 1_555
C20_2 C26_2 1_555 1_555
C27_2 C28 1_555 1_555
O4_2 Cu1_7 1_555 1_555
O3_2 Cu1_8 1_555 1_555
C16_3 H12_3 1_555 1_555
C17_3 C18_3 1_555 1_555
C18_3 C16_3 1_555 1_555
H13_3 C18_3 1_555 1_555
C19_2 H14_3 1_555 1_555
C21_2 C15_2 1_555 1_555
C22_2 O3_2 1_555 1_555
C23_2 C19_2 1_555 1_555
H16_2 C23_2 1_555 1_555
C24_2 C19_2 1_555 1_555
C25_2 C15_2 1_555 1_555
H17_2 C25_2 1_555 1_555
C26_3 C17_3 1_555 1_555
C27_3 C17_3 1_555 1_555
H19_3 C27_3 1_555 1_555
C28_2 C24_2 1_555 1_555
H20_2 C28_2 1_555 1_555
C21_2 C22_2 1_555 1_555
C21_2 C23_2 1_555 1_555
C24_2 C25_2 1_555 1_555
C27_3 C28_2 1_555 1_555
C20_3 N2_2 1_555 1_555
H15_3 C20_3 1_555 1_555
Cu2 N2_2 1_555 1_555
Cu2 O1_3 1_555 1_555
O1_3 C8_3 1_555 1_555
O2_3 Cu2 1_555 1_555
C1_3 H1_3 1_555 1_555
C7_3 C1_3 1_555 1_555
C8_3 O2_3 1_555 1_555
C11_3 C1_3 1_555 1_555
H7_3 C11_3 1_555 1_555
O3_3 Cu2 1_555 1_555
O4_3 Cu2 1_555 1_555
C15_3 H11_3 1_555 1_555
H13_4 C18_4 1_555 1_555
C19_3 H14_4 1_555 1_555
C21_3 C15_3 1_555 1_555
C22_3 O3_3 1_555 1_555
C23_3 C19_3 1_555 1_555
H16_3 C23_3 1_555 1_555
C24_3 C19_3 1_555 1_555
C25_3 C15_3 1_555 1_555
H17_3 C25_3 1_555 1_555
H19_4 C27_4 1_555 1_555
C28_3 C24_3 1_555 1_555
H20_3 C28_3 1_555 1_555
N3_2 Cu2 1_555 1_555
C7_3 C8_3 1_555 1_555
O4_3 C22_3 1_555 1_555
C21_3 C22_3 1_555 1_555
C21_3 C23_3 1_555 1_555
C24_3 C25_3 1_555 1_555
C27_4 C28_3 1_555 1_555
N3_2 C2_3 1_555 1_555
C2_3 H2_3 1_555 1_555
C3_3 C4_4 1_555 1_555
C4_4 C2_3 1_555 1_555
H3_4 C4_4 1_555 1_555
C6_3 N3_2 1_555 1_555
H5_3 C6_3 1_555 1_555
C12_3 C3_3 1_555 1_555
H8_3 C12_3 1_555 1_555
C13_4 C3_3 1_555 1_555
H9_4 C13_4 1_555 1_555
C6_3 C12_3 1_555 1_555
N1_2 C2_4 1_555 1_555
C2_4 H2_4 1_555 1_555
C6_4 N1_2 1_555 1_555
H5_4 C6_4 1_555 1_555
C12_4 C3_4 1_555 1_555
H8_4 C12_4 1_555 1_555
Cu3_2 N1_2 1_555 1_555
C6_4 C12_4 1_555 1_555
Cu3_2 O1_4 1_555 1_555
O1_4 C8_4 1_555 1_555
O2_4 Cu3_2 1_555 1_555
C1_4 H1_4 1_555 1_555
C7_4 C1_4 1_555 1_555
C8_4 O2_4 1_555 1_555
C9_4 C5_4 1_555 1_555
H6_4 C9_4 1_555 1_555
C10_4 C5_4 1_555 1_555
C11_4 C1_4 1_555 1_555
H7_4 C11_4 1_555 1_555
C14_4 C10_4 1_555 1_555
H10_4 C14_4 1_555 1_555
O3_4 Cu3_2 1_555 1_555
O4_4 Cu3_2 1_555 1_555
C15_4 H11_4 1_555 1_555
C21_4 C15_4 1_555 1_555
C22_4 O3_4 1_555 1_555
C23_4 C19_4 1_555 1_555
H16_4 C23_4 1_555 1_555
C24_4 C19_4 1_555 1_555
C25_4 C15_4 1_555 1_555
H17_4 C25_4 1_555 1_555
C28_4 C24_4 1_555 1_555
H20_4 C28_4 1_555 1_555
N4_2 Cu3_2 1_555 1_555
C7_4 C8_4 1_555 1_555
C7_4 C9_4 1_555 1_555
C10_4 C11_4 1_555 1_555
O4_4 C22_4 1_555 1_555
C21_4 C22_4 1_555 1_555
C21_4 C23_4 1_555 1_555
C24_4 C25_4 1_555 1_555
N4_2 C16_4 1_555 1_555
C16_4 H12_4 1_555 1_555
C20_4 N4_2 1_555 1_555
H15_4 C20_4 1_555 1_555
C26_4 C17_4 1_555 1_555
H18_4 C26_4 1_555 1_555
C20_4 C26_4 1_555 1_555
Cu1_9 O1_5 1_555 1_555
O1_5 C8_5 1_555 1_555
O2_5 Cu1_9 1_555 1_555
C1_5 H1_5 1_555 1_555
H3_5 C4_5 1_555 1_555
C5_5 H4_5 1_555 1_555
C7_5 C1_5 1_555 1_555
C8_5 O2_5 1_555 1_555
C9_5 C5_5 1_555 1_555
H6_5 C9_5 1_555 1_555
C10_5 C5_5 1_555 1_555
C11_5 C1_5 1_555 1_555
H7_5 C11_5 1_555 1_555
H9_5 C13_5 1_555 1_555
C14_5 C10_5 1_555 1_555
H10_5 C14_5 1_555 1_555
O3_5 Cu1_9 1_555 1_555
O4_5 Cu1_9 1_555 1_555
C15_5 H11_5 1_555 1_555
C21_5 C15_5 1_555 1_555
C22_5 O3_5 1_555 1_555
C25_5 C15_5 1_555 1_555
H17_5 C25_5 1_555 1_555
N3_3 Cu1_9 1_555 1_555
N4_3 Cu1_9 1_555 1_555
C7_5 C8_5 1_555 1_555
C7_5 C9_5 1_555 1_555
C10_5 C11_5 1_555 1_555
C13_5 C14_5 1_555 1_555
O4_5 C22_5 1_555 1_555
C21_5 C22_5 1_555 1_555
N4_3 C16_5 1_555 1_555
C16_5 H12_5 1_555 1_555
C17_5 C18_5 1_555 1_555
C18_5 C16_5 1_555 1_555
H13_5 C18_5 1_555 1_555
C20_5 N4_3 1_555 1_555
H15_5 C20_5 1_555 1_555
C26_5 C17_5 1_555 1_555
H18_5 C26_5 1_555 1_555
C27_5 C17_5 1_555 1_555
H19_5 C27_5 1_555 1_555
C20_5 C26_5 1_555 1_555
C6_5 N3_3 1_555 1_555
H5_5 C6_5 1_555 1_555
O3_6 Cu1_10 1_555 1_555
O4_6 Cu1_10 1_555 1_555
C15_6 H11_6 1_555 1_555
C21_6 C15_6 1_555 1_555
C22_6 O3_6 1_555 1_555
C23_5 C19_5 1_555 1_555
H16_5 C23_5 1_555 1_555
C24_5 C19_5 1_555 1_555
C25_6 C15_6 1_555 1_555
H17_6 C25_6 1_555 1_555
C28_5 C24_5 1_555 1_555
H20_5 C28_5 1_555 1_555
N3_4 Cu1_10 1_555 1_555
O4_6 C22_6 1_555 1_555
C21_6 C22_6 1_555 1_555
C21_6 C23_5 1_555 1_555
C24_5 C25_6 1_555 1_555
N3_4 C2_5 1_555 1_555
C2_5 H2_5 1_555 1_555
C6_6 N3_4 1_555 1_555
H5_6 C6_6 1_555 1_555
C12_5 C3_5 1_555 1_555
H8_6 C12_5 1_555 1_555
C6_6 C12_5 1_555 1_555
N1_3 C2_6 1_555 1_555
C2_6 H2_6 1_555 1_555
C3_6 C4_6 1_555 1_555
C4_6 C2_6 1_555 1_555
H3_6 C4_6 1_555 1_555
C6_7 N1_3 1_555 1_555
H5_7 C6_7 1_555 1_555
C12_6 C3_6 1_555 1_555
H8_7 C12_6 1_555 1_555
C13_6 C3_6 1_555 1_555
H9_6 C13_6 1_555 1_555
Cu3_3 N1_3 1_555 1_555
C6_7 C12_6 1_555 1_555
Cu3_3 O1_6 1_555 1_555
O1_6 C8_6 1_555 1_555
O2_6 Cu3_3 1_555 1_555
C1_6 H1_6 1_555 1_555
C7_6 C1_6 1_555 1_555
C8_6 O2_6 1_555 1_555
C11_6 C1_6 1_555 1_555
H7_6 C11_6 1_555 1_555
O3_7 Cu3_3 1_555 1_555
O4_7 Cu3_3 1_555 1_555
C15_7 H11_7 1_555 1_555
H13_6 C18_6 1_555 1_555
C19_6 H14_6 1_555 1_555
C21_7 C15_7 1_555 1_555
C22_7 O3_7 1_555 1_555
C23_6 C19_6 1_555 1_555
H16_6 C23_6 1_555 1_555
C24_6 C19_6 1_555 1_555
C25_7 C15_7 1_555 1_555
H17_7 C25_7 1_555 1_555
H19_6 C27_6 1_555 1_555
C28_6 C24_6 1_555 1_555
H20_6 C28_6 1_555 1_555
N4_4 Cu3_3 1_555 1_555
C7_6 C8_6 1_555 1_555
O4_7 C22_7 1_555 1_555
C21_7 C22_7 1_555 1_555
C21_7 C23_6 1_555 1_555
C24_6 C25_7 1_555 1_555
C27_6 C28_6 1_555 1_555
C20_6 N4_4 1_555 1_555
H15_6 C20_6 1_555 1_555
Cu1_11 O1_7 1_555 1_555
O1_7 C8_7 1_555 1_555
O2_7 Cu1_11 1_555 1_555
C1_7 H1_7 1_555 1_555
C7_7 C1_7 1_555 1_555
C8_7 O2_7 1_555 1_555
C9_6 C5_6 1_555 1_555
H6_6 C9_6 1_555 1_555
C10_6 C5_6 1_555 1_555
C11_7 C1_7 1_555 1_555
H7_7 C11_7 1_555 1_555
C14_6 C10_6 1_555 1_555
H10_6 C14_6 1_555 1_555
N4_5 Cu1_11 1_555 1_555
C7_7 C8_7 1_555 1_555
C7_7 C9_6 1_555 1_555
C10_6 C11_7 1_555 1_555
N4_5 C16_6 1_555 1_555
C16_6 H12_6 1_555 1_555
C20_7 N4_5 1_555 1_555
H15_7 C20_7 1_555 1_555
C26_6 C17_6 1_555 1_555
H18_7 C26_6 1_555 1_555
C20_7 C26_6 1_555 1_555
O4_8 Cu3_4 1_555 1_555
N4_6 Cu3_4 1_555 1_555
N4_6 C16_7 1_555 1_555
C16_7 H12_7 1_555 1_555
C17_7 C18_7 1_555 1_555
C18_7 C16_7 1_555 1_555
H13_7 C18_7 1_555 1_555
C19_7 H14_7 1_555 1_555
C20_8 N4_6 1_555 1_555
H15_8 C20_8 1_555 1_555
C23_7 C19_7 1_555 1_555
H16_7 C23_7 1_555 1_555
C24_7 C19_7 1_555 1_555
C26_7 C17_7 1_555 1_555
H18_8 C26_7 1_555 1_555
C27_7 C17_7 1_555 1_555
H19_7 C27_7 1_555 1_555
C28_7 C24_7 1_555 1_555
H20_7 C28_7 1_555 1_555
C20_8 C26_7 1_555 1_555
C27_7 C28_7 1_555 1_555
O3_8 Cu3_5 1_555 1_555
C16_8 H12_8 1_555 1_555
C17_8 C18_8 1_555 1_555
C18_8 C16_8 1_555 1_555
H13_8 C18_8 1_555 1_555
C19_8 H14_8 1_555 1_555
C21_8 C15_8 1_555 1_555
C22_8 O3_8 1_555 1_555
C23_8 C19_8 1_555 1_555
H16_8 C23_8 1_555 1_555
C24_8 C19_8 1_555 1_555
C25_8 C15_8 1_555 1_555
H17_8 C25_8 1_555 1_555
C26_8 C17_8 1_555 1_555
C27_8 C17_8 1_555 1_555
H19_8 C27_8 1_555 1_555
C28_8 C24_8 1_555 1_555
H20_8 C28_8 1_555 1_555
C21_8 C22_8 1_555 1_555
C21_8 C23_8 1_555 1_555
C24_8 C25_8 1_555 1_555
C27_8 C28_8 1_555 1_555
Cu3_6 O1_8 1_555 1_555
O1_8 C8_8 1_555 1_555
C2_7 H2_7 1_555 1_555
C3_7 C4_7 1_555 1_555
C4_7 C2_7 1_555 1_555
H3_7 C4_7 1_555 1_555
C5_7 H4_7 1_555 1_555
C7_8 C1_8 1_555 1_555
C9_7 C5_7 1_555 1_555
H6_7 C9_7 1_555 1_555
C10_7 C5_7 1_555 1_555
C11_8 C1_8 1_555 1_555
H7_8 C11_8 1_555 1_555
C12_7 C3_7 1_555 1_555
C13_7 C3_7 1_555 1_555
H9_7 C13_7 1_555 1_555
C14_7 C10_7 1_555 1_555
H10_7 C14_7 1_555 1_555
C7_8 C8_8 1_555 1_555
C7_8 C9_7 1_555 1_555
C10_7 C11_8 1_555 1_555
C13_7 C14_7 1_555 1_555
N1_4 C2_8 1_555 1_555
C2_8 H2_8 1_555 1_555
C3_8 C4_8 1_555 1_555
C4_8 C2_8 1_555 1_555
H3_8 C4_8 1_555 1_555
C5_8 H4_8 1_555 1_555
C6_8 N1_4 1_555 1_555
H5_8 C6_8 1_555 1_555
C9_8 C5_8 1_555 1_555
H6_8 C9_8 1_555 1_555
C10_8 C5_8 1_555 1_555
C12_8 C3_8 1_555 1_555
H8_8 C12_8 1_555 1_555
C13_8 C3_8 1_555 1_555
H9_8 C13_8 1_555 1_555
C14_8 C10_8 1_555 1_555
H10_8 C14_8 1_555 1_555
Cu3_7 N1_4 1_555 1_555
C6_8 C12_8 1_555 1_555
C13_8 C14_8 1_555 1_555
O2_8 Cu3_7 1_555 1_555

#END
