
###############################################################################
#
# This file contains modified crystal structure data generated from the
# MOF subset of the Cambridge Structural Database (CSD) v543 
# hosted by the Cambridge Crystallographic Data Centre (CCDC).
#
# This work is licensed under the Creative Commons
# Attribution-NonCommercial-ShareAlike 4.0 International License.
# To view a copy of this license, visit
# http://creativecommons.org/licenses/by-nc-sa/4.0/
# or send a letter to
# Creative Commons, PO Box 1866, Mountain View, CA 94042, USA.
#
# CIF created using the CSD Python API on 29 September 2022
# The structure has been converted into the P1 space group
# The structure has a 3D framework
# The original CSD entry HEJGAI is in the tetragonal crystal system
# The framework has been calculated to contain at least 10.0% void space
# The void calculation uses a probe of radius 1.32A, grid spacing 0.4
#
###############################################################################

data_HEJGAI
_chemical_formula_moiety         '(C416 H208 Cu54 O192)n'
_symmetry_cell_setting           triclinic
_symmetry_space_group_name_H-M   'P 1'
_symmetry_Int_Tables_number      1
_space_group_name_Hall           'P 1'
loop_
_symmetry_equiv_pos_site_id
_symmetry_equiv_pos_as_xyz
1 x,y,z
_cell_length_a                   33.014(4)
_cell_length_b                   33.014(4)
_cell_length_c                   22.911(3)
_cell_angle_alpha                90
_cell_angle_beta                 90
_cell_angle_gamma                90
_cell_volume                     24971.3
loop_
_atom_site_label
_atom_site_type_symbol
_atom_site_fract_x
_atom_site_fract_y
_atom_site_fract_z
_atom_site_U_iso_or_equiv
_atom_site_thermal_displace_type
Cu1 Cu 0.17014 0.000 0.24981 0.0101 Uiso
Cu2 Cu 0.2273 0.000 0.16905 0.0101 Uiso
Cu3 Cu 0.22978 0.22978 0.500 0.0101 Uiso
Cu4 Cu 0.1732 0.1732 0.500 0.0101 Uiso
Cu5 Cu 0.33849 0.33849 0.16808 0.0101 Uiso
Cu6 Cu 0.37929 0.37929 0.24795 0.0101 Uiso
Cu7 Cu 0.500 0.25931 0.500 0.0101 Uiso
Cu8 Cu 0.500 0.17952 0.500 0.0101 Uiso
O1 O 0.2027 0.0424 0.2894 0.0507 Uiso
O2 O 0.252 0.0419 0.2206 0.0507 Uiso
O3 O 0.2559 0.1952 0.4379 0.0507 Uiso
O4 O 0.2062 0.1474 0.4401 0.0507 Uiso
O5 O 0.3509 0.291 0.2165 0.0507 Uiso
O6 O 0.3853 0.3255 0.2853 0.0507 Uiso
O7 O 0.459 0.184 0.4394 0.0507 Uiso
O8 O 0.4581 0.2538 0.4387 0.0507 Uiso
C1 C 0.2571 0.0878 0.2959 0.0507 Uiso
C2 C 0.2381 0.1068 0.3441 0.0507 Uiso
H1 H 0.2131 0.098 0.3584 0.0760 Uiso
C3 C 0.2593 0.1406 0.3705 0.0507 Uiso
C4 C 0.2981 0.1512 0.3494 0.0507 Uiso
H2 H 0.312 0.1723 0.3679 0.0760 Uiso
C5 C 0.3166 0.1319 0.3025 0.0507 Uiso
C6 C 0.2951 0.0995 0.2767 0.0507 Uiso
H3 H 0.307 0.0855 0.2455 0.0760 Uiso
C7 C 0.3822 0.256 0.2968 0.0507 Uiso
C8 C 0.4069 0.2559 0.3432 0.0507 Uiso
H4 H 0.417 0.2801 0.3587 0.0760 Uiso
C9 C 0.4175 0.2185 0.3683 0.0507 Uiso
C10 C 0.4028 0.1816 0.3505 0.0507 Uiso
H5 H 0.4092 0.158 0.371 0.0760 Uiso
C11 C 0.3776 0.1803 0.3003 0.0507 Uiso
C12 C 0.366 0.2186 0.2757 0.0507 Uiso
H6 H 0.3473 0.219 0.2449 0.0760 Uiso
C13 C 0.3602 0.1409 0.2815 0.0507 Uiso
H7 H 0.3778 0.1193 0.2957 0.0760 Uiso
H8 H 0.3605 0.1399 0.2387 0.0760 Uiso
C14 C 0.2343 0.0538 0.2666 0.0507 Uiso
C15 C 0.2383 0.1639 0.4193 0.0507 Uiso
C16 C 0.3721 0.2936 0.2615 0.0507 Uiso
C17 C 0.4475 0.2188 0.4214 0.0507 Uiso
O11 O 0.3917 0.3312 0.13 0.0507 Uiso
O12 O 0.4256 0.3683 0.1986 0.0507 Uiso
C24 C 0.4236 0.3447 0.1571 0.0507 Uiso
C25 C 0.4632 0.3307 0.1261 0.0507 Uiso
C26 C 0.500 0.3459 0.1527 0.0507 Uiso
H12 H 0.500 0.3639 0.1844 0.0760 Uiso
C27 C 0.4625 0.3022 0.0792 0.0507 Uiso
H13 H 0.4381 0.2915 0.0653 0.0760 Uiso
C28 C 0.500 0.2904 0.0542 0.0507 Uiso
C29 C 0.500 0.2637 0.000 0.0507 Uiso
H14 H 0.4761 0.2464 0.000 0.0760 Uiso
H22 H 0.5239 0.2464 0.000 0.0760 Uiso
O21 O 0.6083 0.3312 0.13 0.0507 Uiso
O22 O 0.5744 0.3683 0.1986 0.0507 Uiso
C46 C 0.5764 0.3447 0.1571 0.0507 Uiso
C47 C 0.5368 0.3307 0.1261 0.0507 Uiso
C48 C 0.5375 0.3022 0.0792 0.0507 Uiso
H23 H 0.5619 0.2915 0.0653 0.0760 Uiso
O33 O 0.7973 0.0424 0.2894 0.0507 Uiso
O34 O 0.748 0.0419 0.2206 0.0507 Uiso
O35 O 0.7441 0.1952 0.4379 0.0507 Uiso
O36 O 0.7938 0.1474 0.4401 0.0507 Uiso
O37 O 0.6491 0.291 0.2165 0.0507 Uiso
O38 O 0.6147 0.3255 0.2853 0.0507 Uiso
O39 O 0.541 0.184 0.4394 0.0507 Uiso
O40 O 0.5419 0.2538 0.4387 0.0507 Uiso
C69 C 0.7429 0.0878 0.2959 0.0507 Uiso
C70 C 0.7619 0.1068 0.3441 0.0507 Uiso
H33 H 0.7869 0.098 0.3584 0.0760 Uiso
C71 C 0.7407 0.1406 0.3705 0.0507 Uiso
C72 C 0.7019 0.1512 0.3494 0.0507 Uiso
H34 H 0.688 0.1723 0.3679 0.0760 Uiso
C73 C 0.6834 0.1319 0.3025 0.0507 Uiso
C74 C 0.7049 0.0995 0.2767 0.0507 Uiso
H35 H 0.693 0.0855 0.2455 0.0760 Uiso
C75 C 0.6178 0.256 0.2968 0.0507 Uiso
C76 C 0.5931 0.2559 0.3432 0.0507 Uiso
H36 H 0.583 0.2801 0.3587 0.0760 Uiso
C77 C 0.5825 0.2185 0.3683 0.0507 Uiso
C78 C 0.5972 0.1816 0.3505 0.0507 Uiso
H37 H 0.5908 0.158 0.371 0.0760 Uiso
C79 C 0.6224 0.1803 0.3003 0.0507 Uiso
C80 C 0.634 0.2186 0.2757 0.0507 Uiso
H38 H 0.6527 0.219 0.2449 0.0760 Uiso
C81 C 0.6398 0.1409 0.2815 0.0507 Uiso
H39 H 0.6222 0.1193 0.2957 0.0760 Uiso
H40 H 0.6395 0.1399 0.2387 0.0760 Uiso
C82 C 0.7657 0.0538 0.2666 0.0507 Uiso
C83 C 0.7617 0.1639 0.4193 0.0507 Uiso
C84 C 0.6279 0.2936 0.2615 0.0507 Uiso
C85 C 0.5525 0.2188 0.4214 0.0507 Uiso
Cu13 Cu 0.82986 0.000 0.24981 0.0101 Uiso
Cu17 Cu 0.7727 0.000 0.16905 0.0101 Uiso
Cu22 Cu 0.77022 0.22978 0.500 0.0101 Uiso
Cu25 Cu 0.8268 0.1732 0.500 0.0101 Uiso
Cu27 Cu 0.66151 0.33849 0.16808 0.0101 Uiso
Cu30 Cu 0.62071 0.37929 0.24795 0.0101 Uiso
O51 O 0.1952 0.2559 0.5621 0.0507 Uiso
O52 O 0.1952 0.2559 0.4379 0.0507 Uiso
O53 O 0.2559 0.1952 0.5621 0.0507 Uiso
O54 O 0.1474 0.2062 0.5599 0.0507 Uiso
O55 O 0.1474 0.2062 0.4401 0.0507 Uiso
O56 O 0.2062 0.1474 0.5599 0.0507 Uiso
O58 O 0.291 0.3509 0.2165 0.0507 Uiso
O60 O 0.3255 0.3853 0.2853 0.0507 Uiso
O61 O 0.541 0.184 0.5606 0.0507 Uiso
O62 O 0.459 0.184 0.5606 0.0507 Uiso
O63 O 0.5419 0.2538 0.5613 0.0507 Uiso
O64 O 0.4581 0.2538 0.5613 0.0507 Uiso
O66 O 0.1459 0.0426 0.2004 0.0507 Uiso
O69 O 0.1952 0.0428 0.1304 0.0507 Uiso
O72 O 0.3312 0.3917 0.13 0.0507 Uiso
O74 O 0.3683 0.4256 0.1986 0.0507 Uiso
C29_2 C 0.500 0.2637 1.000 0.0507 Uiso
H14_2 H 0.4761 0.2464 1.000 0.0760 Uiso
O19 O 0.6083 0.3312 0.87 0.0507 Uiso
O20 O 0.5744 0.3683 0.8014 0.0507 Uiso
C41 C 0.5764 0.3447 0.8429 0.0507 Uiso
C42 C 0.5368 0.3307 0.8739 0.0507 Uiso
C43 C 0.500 0.3459 0.8473 0.0507 Uiso
H20 H 0.500 0.3639 0.8156 0.0760 Uiso
C44 C 0.5375 0.3022 0.9208 0.0507 Uiso
H21 H 0.5619 0.2915 0.9347 0.0760 Uiso
C45 C 0.500 0.2904 0.9458 0.0507 Uiso
H22_2 H 0.5239 0.2464 1.000 0.0760 Uiso
O23 O 0.3917 0.3312 0.87 0.0507 Uiso
O24 O 0.4256 0.3683 0.8014 0.0507 Uiso
C49 C 0.4236 0.3447 0.8429 0.0507 Uiso
C50 C 0.4632 0.3307 0.8739 0.0507 Uiso
C51 C 0.4625 0.3022 0.9208 0.0507 Uiso
H24 H 0.4381 0.2915 0.9347 0.0760 Uiso
Cu9 Cu 0.82986 0.000 0.75019 0.0101 Uiso
Cu10 Cu 0.7727 0.000 0.83095 0.0101 Uiso
Cu11 Cu 0.66151 0.33849 0.83192 0.0101 Uiso
Cu12 Cu 0.62071 0.37929 0.75205 0.0101 Uiso
O25 O 0.7973 0.0424 0.7106 0.0507 Uiso
O26 O 0.748 0.0419 0.7794 0.0507 Uiso
O27 O 0.7441 0.1952 0.5621 0.0507 Uiso
O28 O 0.7938 0.1474 0.5599 0.0507 Uiso
O29 O 0.6491 0.291 0.7835 0.0507 Uiso
O30 O 0.6147 0.3255 0.7147 0.0507 Uiso
C52 C 0.7429 0.0878 0.7041 0.0507 Uiso
C53 C 0.7619 0.1068 0.6559 0.0507 Uiso
H25 H 0.7869 0.098 0.6416 0.0760 Uiso
C54 C 0.7407 0.1406 0.6295 0.0507 Uiso
C55 C 0.7019 0.1512 0.6506 0.0507 Uiso
H26 H 0.688 0.1723 0.6321 0.0760 Uiso
C56 C 0.6834 0.1319 0.6975 0.0507 Uiso
C57 C 0.7049 0.0995 0.7233 0.0507 Uiso
H27 H 0.693 0.0855 0.7545 0.0760 Uiso
C58 C 0.6178 0.256 0.7032 0.0507 Uiso
C59 C 0.5931 0.2559 0.6568 0.0507 Uiso
H28 H 0.583 0.2801 0.6413 0.0760 Uiso
C60 C 0.5825 0.2185 0.6317 0.0507 Uiso
C61 C 0.5972 0.1816 0.6495 0.0507 Uiso
H29 H 0.5908 0.158 0.629 0.0760 Uiso
C62 C 0.6224 0.1803 0.6997 0.0507 Uiso
C63 C 0.634 0.2186 0.7243 0.0507 Uiso
H30 H 0.6527 0.219 0.7551 0.0760 Uiso
C64 C 0.6398 0.1409 0.7185 0.0507 Uiso
H31 H 0.6222 0.1193 0.7043 0.0760 Uiso
H32 H 0.6395 0.1399 0.7613 0.0760 Uiso
C65 C 0.7657 0.0538 0.7334 0.0507 Uiso
C66 C 0.7617 0.1639 0.5807 0.0507 Uiso
C67 C 0.6279 0.2936 0.7385 0.0507 Uiso
C68 C 0.5525 0.2188 0.5786 0.0507 Uiso
Cu16 Cu 0.17014 0.000 0.75019 0.0101 Uiso
Cu20 Cu 0.2273 0.000 0.83095 0.0101 Uiso
Cu29 Cu 0.33849 0.33849 0.83192 0.0101 Uiso
Cu32 Cu 0.37929 0.37929 0.75205 0.0101 Uiso
O57 O 0.709 0.3509 0.7835 0.0507 Uiso
O59 O 0.6745 0.3853 0.7147 0.0507 Uiso
O67 O 0.8541 0.0426 0.7996 0.0507 Uiso
O70 O 0.8048 0.0428 0.8696 0.0507 Uiso
O71 O 0.6688 0.3917 0.87 0.0507 Uiso
O73 O 0.6317 0.4256 0.8014 0.0507 Uiso
Cu1_2 Cu 0.17014 1.000 0.24981 0.0101 Uiso
Cu2_2 Cu 0.2273 1.000 0.16905 0.0101 Uiso
O9 O 0.1459 0.9574 0.2004 0.0507 Uiso
O10 O 0.1952 0.9572 0.1304 0.0507 Uiso
C18 C 0.1629 0.9448 0.1571 0.0507 Uiso
C19 C 0.1445 0.9057 0.1278 0.0507 Uiso
C20 C 0.1087 0.8913 0.152 0.0507 Uiso
H9 H 0.0952 0.9048 0.1824 0.0760 Uiso
C21 C 0.1638 0.8889 0.0767 0.0507 Uiso
H10 H 0.1861 0.9014 0.059 0.0760 Uiso
C22 C 0.1472 0.8528 0.055 0.0507 Uiso
C23 C 0.1661 0.8339 0.000 0.0507 Uiso
H11 H 0.1614 0.8048 0.000 0.0760 Uiso
H17 H 0.1952 0.8386 0.000 0.0760 Uiso
O15 O 0.0426 0.8541 0.2004 0.0507 Uiso
O16 O 0.0428 0.8048 0.1304 0.0507 Uiso
C35 C 0.0552 0.8371 0.1571 0.0507 Uiso
C36 C 0.0943 0.8555 0.1278 0.0507 Uiso
C37 C 0.1111 0.8362 0.0767 0.0507 Uiso
H18 H 0.0986 0.8139 0.059 0.0760 Uiso
O41 O 0.2027 0.9576 0.2894 0.0507 Uiso
O42 O 0.252 0.9581 0.2206 0.0507 Uiso
O43 O 0.2559 0.8048 0.4379 0.0507 Uiso
O44 O 0.2062 0.8526 0.4401 0.0507 Uiso
O45 O 0.3509 0.709 0.2165 0.0507 Uiso
O46 O 0.3853 0.6745 0.2853 0.0507 Uiso
O47 O 0.459 0.816 0.4394 0.0507 Uiso
O48 O 0.4581 0.7462 0.4387 0.0507 Uiso
C86 C 0.2571 0.9122 0.2959 0.0507 Uiso
C87 C 0.2381 0.8932 0.3441 0.0507 Uiso
H41 H 0.2131 0.902 0.3584 0.0760 Uiso
C88 C 0.2593 0.8594 0.3705 0.0507 Uiso
C89 C 0.2981 0.8488 0.3494 0.0507 Uiso
H42 H 0.312 0.8277 0.3679 0.0760 Uiso
C90 C 0.3166 0.8681 0.3025 0.0507 Uiso
C91 C 0.2951 0.9005 0.2767 0.0507 Uiso
H43 H 0.307 0.9145 0.2455 0.0760 Uiso
C92 C 0.3822 0.744 0.2968 0.0507 Uiso
C93 C 0.4069 0.7441 0.3432 0.0507 Uiso
H44 H 0.417 0.7199 0.3587 0.0760 Uiso
C94 C 0.4175 0.7815 0.3683 0.0507 Uiso
C95 C 0.4028 0.8184 0.3505 0.0507 Uiso
H45 H 0.4092 0.842 0.371 0.0760 Uiso
C96 C 0.3776 0.8197 0.3003 0.0507 Uiso
C97 C 0.366 0.7814 0.2757 0.0507 Uiso
H46 H 0.3473 0.781 0.2449 0.0760 Uiso
C98 C 0.3602 0.8591 0.2815 0.0507 Uiso
H47 H 0.3778 0.8807 0.2957 0.0760 Uiso
H48 H 0.3605 0.8601 0.2387 0.0760 Uiso
C99 C 0.2343 0.9462 0.2666 0.0507 Uiso
C100 C 0.2383 0.8361 0.4193 0.0507 Uiso
C101 C 0.3721 0.7064 0.2615 0.0507 Uiso
C102 C 0.4475 0.7812 0.4214 0.0507 Uiso
Cu13_2 Cu 0.82986 1.000 0.24981 0.0101 Uiso
Cu15 Cu 0.000 0.82986 0.24981 0.0101 Uiso
Cu17_2 Cu 0.7727 1.000 0.16905 0.0101 Uiso
Cu19 Cu 0.000 0.7727 0.16905 0.0101 Uiso
Cu23 Cu 0.22978 0.77022 0.500 0.0101 Uiso
Cu26 Cu 0.1732 0.8268 0.500 0.0101 Uiso
Cu28 Cu 0.33849 0.66151 0.16808 0.0101 Uiso
Cu31 Cu 0.37929 0.62071 0.24795 0.0101 Uiso
Cu34 Cu 0.500 0.74069 0.500 0.0101 Uiso
Cu36 Cu 0.500 0.82048 0.500 0.0101 Uiso
C23_2 C 0.1661 0.8339 1.000 0.0507 Uiso
H11_2 H 0.1614 0.8048 1.000 0.0760 Uiso
O13 O 0.0426 0.8541 0.7996 0.0507 Uiso
O14 O 0.0428 0.8048 0.8696 0.0507 Uiso
C30 C 0.0552 0.8371 0.8429 0.0507 Uiso
C31 C 0.0943 0.8555 0.8722 0.0507 Uiso
C32 C 0.1087 0.8913 0.848 0.0507 Uiso
H15 H 0.0952 0.9048 0.8176 0.0760 Uiso
C33 C 0.1111 0.8362 0.9233 0.0507 Uiso
H16 H 0.0986 0.8139 0.941 0.0760 Uiso
C34 C 0.1472 0.8528 0.945 0.0507 Uiso
H17_2 H 0.1952 0.8386 1.000 0.0760 Uiso
O17 O 0.1459 0.9574 0.7996 0.0507 Uiso
O18 O 0.1952 0.9572 0.8696 0.0507 Uiso
C38 C 0.1629 0.9448 0.8429 0.0507 Uiso
C39 C 0.1445 0.9057 0.8722 0.0507 Uiso
C40 C 0.1638 0.8889 0.9233 0.0507 Uiso
H19 H 0.1861 0.9014 0.941 0.0760 Uiso
Cu9_2 Cu 0.82986 1.000 0.75019 0.0101 Uiso
Cu10_2 Cu 0.7727 1.000 0.83095 0.0101 Uiso
Cu14 Cu 0.000 0.82986 0.75019 0.0101 Uiso
Cu16_2 Cu 0.17014 1.000 0.75019 0.0101 Uiso
Cu18 Cu -0.000 0.7727 0.83095 0.0101 Uiso
Cu20_2 Cu 0.2273 1.000 0.83095 0.0101 Uiso
O49 O 0.7973 0.9576 0.7106 0.0507 Uiso
O50 O 0.748 0.9581 0.7794 0.0507 Uiso
O65 O 0.8541 0.9574 0.7996 0.0507 Uiso
O68 O 0.8048 0.9572 0.8696 0.0507 Uiso
Cu15_2 Cu 1.000 0.82986 0.24981 0.0101 Uiso
Cu19_2 Cu 1.000 0.7727 0.16905 0.0101 Uiso
Cu14_2 Cu 1.000 0.82986 0.75019 0.0101 Uiso
Cu18_2 Cu 1.000 0.7727 0.83095 0.0101 Uiso
Cu15_3 Cu 0.000 0.17014 0.24981 0.0101 Uiso
Cu19_3 Cu 0.000 0.2273 0.16905 0.0101 Uiso
Cu14_3 Cu 0.000 0.17014 0.75019 0.0101 Uiso
Cu18_3 Cu 0.000 0.2273 0.83095 0.0101 Uiso
O9_2 O 0.8541 0.0426 0.2004 0.0507 Uiso
O10_2 O 0.8048 0.0428 0.1304 0.0507 Uiso
C18_2 C 0.8371 0.0552 0.1571 0.0507 Uiso
C19_2 C 0.8555 0.0943 0.1278 0.0507 Uiso
C20_2 C 0.8913 0.1087 0.152 0.0507 Uiso
H9_2 H 0.9048 0.0952 0.1824 0.0760 Uiso
C21_2 C 0.8362 0.1111 0.0767 0.0507 Uiso
H10_2 H 0.8139 0.0986 0.059 0.0760 Uiso
C22_2 C 0.8528 0.1472 0.055 0.0507 Uiso
C23_3 C 0.8339 0.1661 0.000 0.0507 Uiso
H11_3 H 0.8386 0.1952 0.000 0.0760 Uiso
H17_3 H 0.8048 0.1614 0.000 0.0760 Uiso
O15_2 O 0.9574 0.1459 0.2004 0.0507 Uiso
O16_2 O 0.9572 0.1952 0.1304 0.0507 Uiso
C35_2 C 0.9448 0.1629 0.1571 0.0507 Uiso
C36_2 C 0.9057 0.1445 0.1278 0.0507 Uiso
C37_2 C 0.8889 0.1638 0.0767 0.0507 Uiso
H18_2 H 0.9014 0.1861 0.059 0.0760 Uiso
Cu15_4 Cu 1.000 0.17014 0.24981 0.0101 Uiso
Cu19_4 Cu 1.000 0.2273 0.16905 0.0101 Uiso
C23_4 C 0.8339 0.1661 1.000 0.0507 Uiso
H11_4 H 0.8386 0.1952 1.000 0.0760 Uiso
O13_2 O 0.9574 0.1459 0.7996 0.0507 Uiso
O14_2 O 0.9572 0.1952 0.8696 0.0507 Uiso
C30_2 C 0.9448 0.1629 0.8429 0.0507 Uiso
C31_2 C 0.9057 0.1445 0.8722 0.0507 Uiso
C32_2 C 0.8913 0.1087 0.848 0.0507 Uiso
H15_2 H 0.9048 0.0952 0.8176 0.0760 Uiso
C33_2 C 0.8889 0.1638 0.9233 0.0507 Uiso
H16_2 H 0.9014 0.1861 0.941 0.0760 Uiso
C34_2 C 0.8528 0.1472 0.945 0.0507 Uiso
H17_4 H 0.8048 0.1614 1.000 0.0760 Uiso
C38_2 C 0.8371 0.0552 0.8429 0.0507 Uiso
C39_2 C 0.8555 0.0943 0.8722 0.0507 Uiso
C40_2 C 0.8362 0.1111 0.9233 0.0507 Uiso
H19_2 H 0.8139 0.0986 0.941 0.0760 Uiso
Cu14_4 Cu 1.000 0.17014 0.75019 0.0101 Uiso
Cu18_4 Cu 1.000 0.2273 0.83095 0.0101 Uiso
O49_2 O 0.2027 0.0424 0.7106 0.0507 Uiso
O50_2 O 0.252 0.0419 0.7794 0.0507 Uiso
O65_2 O 0.1459 0.0426 0.7996 0.0507 Uiso
O68_2 O 0.1952 0.0428 0.8696 0.0507 Uiso
Cu3_2 Cu 0.77022 0.77022 0.500 0.0101 Uiso
Cu4_2 Cu 0.8268 0.8268 0.500 0.0101 Uiso
Cu5_2 Cu 0.66151 0.66151 0.16808 0.0101 Uiso
Cu6_2 Cu 0.62071 0.62071 0.24795 0.0101 Uiso
O1_2 O 0.7973 0.9576 0.2894 0.0507 Uiso
O2_2 O 0.748 0.9581 0.2206 0.0507 Uiso
O3_2 O 0.7441 0.8048 0.4379 0.0507 Uiso
O4_2 O 0.7938 0.8526 0.4401 0.0507 Uiso
O5_2 O 0.6491 0.709 0.2165 0.0507 Uiso
O6_2 O 0.6147 0.6745 0.2853 0.0507 Uiso
O7_2 O 0.541 0.816 0.4394 0.0507 Uiso
O8_2 O 0.5419 0.7462 0.4387 0.0507 Uiso
C1_2 C 0.7429 0.9122 0.2959 0.0507 Uiso
C2_2 C 0.7619 0.8932 0.3441 0.0507 Uiso
H1_2 H 0.7869 0.902 0.3584 0.0760 Uiso
C3_2 C 0.7407 0.8594 0.3705 0.0507 Uiso
C4_2 C 0.7019 0.8488 0.3494 0.0507 Uiso
H2_2 H 0.688 0.8277 0.3679 0.0760 Uiso
C5_2 C 0.6834 0.8681 0.3025 0.0507 Uiso
C6_2 C 0.7049 0.9005 0.2767 0.0507 Uiso
H3_2 H 0.693 0.9145 0.2455 0.0760 Uiso
C7_2 C 0.6178 0.744 0.2968 0.0507 Uiso
C8_2 C 0.5931 0.7441 0.3432 0.0507 Uiso
H4_2 H 0.583 0.7199 0.3587 0.0760 Uiso
C9_2 C 0.5825 0.7815 0.3683 0.0507 Uiso
C10_2 C 0.5972 0.8184 0.3505 0.0507 Uiso
H5_2 H 0.5908 0.842 0.371 0.0760 Uiso
C11_2 C 0.6224 0.8197 0.3003 0.0507 Uiso
C12_2 C 0.634 0.7814 0.2757 0.0507 Uiso
H6_2 H 0.6527 0.781 0.2449 0.0760 Uiso
C13_2 C 0.6398 0.8591 0.2815 0.0507 Uiso
H7_2 H 0.6222 0.8807 0.2957 0.0760 Uiso
H8_2 H 0.6395 0.8601 0.2387 0.0760 Uiso
C14_2 C 0.7657 0.9462 0.2666 0.0507 Uiso
C15_2 C 0.7617 0.8361 0.4193 0.0507 Uiso
C16_2 C 0.6279 0.7064 0.2615 0.0507 Uiso
C17_2 C 0.5525 0.7812 0.4214 0.0507 Uiso
O11_2 O 0.6083 0.6688 0.13 0.0507 Uiso
O12_2 O 0.5744 0.6317 0.1986 0.0507 Uiso
C24_2 C 0.5764 0.6553 0.1571 0.0507 Uiso
C25_2 C 0.5368 0.6693 0.1261 0.0507 Uiso
C26_2 C 0.500 0.6541 0.1527 0.0507 Uiso
H12_2 H 0.500 0.6361 0.1844 0.0760 Uiso
C27_2 C 0.5375 0.6978 0.0792 0.0507 Uiso
H13_2 H 0.5619 0.7085 0.0653 0.0760 Uiso
C28_2 C 0.500 0.7096 0.0542 0.0507 Uiso
C29_3 C 0.500 0.7363 0.000 0.0507 Uiso
H14_3 H 0.5239 0.7536 0.000 0.0760 Uiso
H22_3 H 0.4761 0.7536 0.000 0.0760 Uiso
O21_2 O 0.3917 0.6688 0.13 0.0507 Uiso
O22_2 O 0.4256 0.6317 0.1986 0.0507 Uiso
C46_2 C 0.4236 0.6553 0.1571 0.0507 Uiso
C47_2 C 0.4632 0.6693 0.1261 0.0507 Uiso
C48_2 C 0.4625 0.6978 0.0792 0.0507 Uiso
H23_2 H 0.4381 0.7085 0.0653 0.0760 Uiso
O51_2 O 0.8048 0.7441 0.5621 0.0507 Uiso
O52_2 O 0.8048 0.7441 0.4379 0.0507 Uiso
O53_2 O 0.7441 0.8048 0.5621 0.0507 Uiso
O54_2 O 0.8526 0.7938 0.5599 0.0507 Uiso
O55_2 O 0.8526 0.7938 0.4401 0.0507 Uiso
O56_2 O 0.7938 0.8526 0.5599 0.0507 Uiso
O58_2 O 0.709 0.6491 0.2165 0.0507 Uiso
O60_2 O 0.6745 0.6147 0.2853 0.0507 Uiso
O61_2 O 0.459 0.816 0.5606 0.0507 Uiso
O62_2 O 0.541 0.816 0.5606 0.0507 Uiso
O63_2 O 0.4581 0.7462 0.5613 0.0507 Uiso
O64_2 O 0.5419 0.7462 0.5613 0.0507 Uiso
O66_2 O 0.8541 0.9574 0.2004 0.0507 Uiso
O69_2 O 0.8048 0.9572 0.1304 0.0507 Uiso
O72_2 O 0.6688 0.6083 0.13 0.0507 Uiso
O74_2 O 0.6317 0.5744 0.1986 0.0507 Uiso
C29_4 C 0.500 0.7363 1.000 0.0507 Uiso
H14_4 H 0.5239 0.7536 1.000 0.0760 Uiso
O19_2 O 0.3917 0.6688 0.87 0.0507 Uiso
O20_2 O 0.4256 0.6317 0.8014 0.0507 Uiso
C41_2 C 0.4236 0.6553 0.8429 0.0507 Uiso
C42_2 C 0.4632 0.6693 0.8739 0.0507 Uiso
C43_2 C 0.500 0.6541 0.8473 0.0507 Uiso
H20_2 H 0.500 0.6361 0.8156 0.0760 Uiso
C44_2 C 0.4625 0.6978 0.9208 0.0507 Uiso
H21_2 H 0.4381 0.7085 0.9347 0.0760 Uiso
C45_2 C 0.500 0.7096 0.9458 0.0507 Uiso
H22_4 H 0.4761 0.7536 1.000 0.0760 Uiso
O23_2 O 0.6083 0.6688 0.87 0.0507 Uiso
O24_2 O 0.5744 0.6317 0.8014 0.0507 Uiso
C49_2 C 0.5764 0.6553 0.8429 0.0507 Uiso
C50_2 C 0.5368 0.6693 0.8739 0.0507 Uiso
C51_2 C 0.5375 0.6978 0.9208 0.0507 Uiso
H24_2 H 0.5619 0.7085 0.9347 0.0760 Uiso
Cu11_2 Cu 0.33849 0.66151 0.83192 0.0101 Uiso
Cu12_2 Cu 0.37929 0.62071 0.75205 0.0101 Uiso
O25_2 O 0.2027 0.9576 0.7106 0.0507 Uiso
O26_2 O 0.252 0.9581 0.7794 0.0507 Uiso
O27_2 O 0.2559 0.8048 0.5621 0.0507 Uiso
O28_2 O 0.2062 0.8526 0.5599 0.0507 Uiso
O29_2 O 0.3509 0.709 0.7835 0.0507 Uiso
O30_2 O 0.3853 0.6745 0.7147 0.0507 Uiso
C52_2 C 0.2571 0.9122 0.7041 0.0507 Uiso
C53_2 C 0.2381 0.8932 0.6559 0.0507 Uiso
H25_2 H 0.2131 0.902 0.6416 0.0760 Uiso
C54_2 C 0.2593 0.8594 0.6295 0.0507 Uiso
C55_2 C 0.2981 0.8488 0.6506 0.0507 Uiso
H26_2 H 0.312 0.8277 0.6321 0.0760 Uiso
C56_2 C 0.3166 0.8681 0.6975 0.0507 Uiso
C57_2 C 0.2951 0.9005 0.7233 0.0507 Uiso
H27_2 H 0.307 0.9145 0.7545 0.0760 Uiso
C58_2 C 0.3822 0.744 0.7032 0.0507 Uiso
C59_2 C 0.4069 0.7441 0.6568 0.0507 Uiso
H28_2 H 0.417 0.7199 0.6413 0.0760 Uiso
C60_2 C 0.4175 0.7815 0.6317 0.0507 Uiso
C61_2 C 0.4028 0.8184 0.6495 0.0507 Uiso
H29_2 H 0.4092 0.842 0.629 0.0760 Uiso
C62_2 C 0.3776 0.8197 0.6997 0.0507 Uiso
C63_2 C 0.366 0.7814 0.7243 0.0507 Uiso
H30_2 H 0.3473 0.781 0.7551 0.0760 Uiso
C64_2 C 0.3602 0.8591 0.7185 0.0507 Uiso
H31_2 H 0.3778 0.8807 0.7043 0.0760 Uiso
H32_2 H 0.3605 0.8601 0.7613 0.0760 Uiso
C65_2 C 0.2343 0.9462 0.7334 0.0507 Uiso
C66_2 C 0.2383 0.8361 0.5807 0.0507 Uiso
C67_2 C 0.3721 0.7064 0.7385 0.0507 Uiso
C68_2 C 0.4475 0.7812 0.5786 0.0507 Uiso
Cu29_2 Cu 0.66151 0.66151 0.83192 0.0101 Uiso
Cu32_2 Cu 0.62071 0.62071 0.75205 0.0101 Uiso
O57_2 O 0.291 0.6491 0.7835 0.0507 Uiso
O59_2 O 0.3255 0.6147 0.7147 0.0507 Uiso
O71_2 O 0.3312 0.6083 0.87 0.0507 Uiso
O73_2 O 0.3683 0.5744 0.8014 0.0507 Uiso
O37_2 O 0.3509 0.291 0.7835 0.0507 Uiso
O38_2 O 0.3853 0.3255 0.7147 0.0507 Uiso
C69_2 C 0.2571 0.0878 0.7041 0.0507 Uiso
C70_2 C 0.2381 0.1068 0.6559 0.0507 Uiso
H33_2 H 0.2131 0.098 0.6416 0.0760 Uiso
C71_2 C 0.2593 0.1406 0.6295 0.0507 Uiso
C72_2 C 0.2981 0.1512 0.6506 0.0507 Uiso
H34_2 H 0.312 0.1723 0.6321 0.0760 Uiso
C73_2 C 0.3166 0.1319 0.6975 0.0507 Uiso
C74_2 C 0.2951 0.0995 0.7233 0.0507 Uiso
H35_2 H 0.307 0.0855 0.7545 0.0760 Uiso
C75_2 C 0.3822 0.256 0.7032 0.0507 Uiso
C76_2 C 0.4069 0.2559 0.6568 0.0507 Uiso
H36_2 H 0.417 0.2801 0.6413 0.0760 Uiso
C77_2 C 0.4175 0.2185 0.6317 0.0507 Uiso
C78_2 C 0.4028 0.1816 0.6495 0.0507 Uiso
H37_2 H 0.4092 0.158 0.629 0.0760 Uiso
C79_2 C 0.3776 0.1803 0.6997 0.0507 Uiso
C80_2 C 0.366 0.2186 0.7243 0.0507 Uiso
H38_2 H 0.3473 0.219 0.7551 0.0760 Uiso
C81_2 C 0.3602 0.1409 0.7185 0.0507 Uiso
H39_2 H 0.3778 0.1193 0.7043 0.0760 Uiso
H40_2 H 0.3605 0.1399 0.7613 0.0760 Uiso
C82_2 C 0.2343 0.0538 0.7334 0.0507 Uiso
C83_2 C 0.2383 0.1639 0.5807 0.0507 Uiso
C84_2 C 0.3721 0.2936 0.7385 0.0507 Uiso
C85_2 C 0.4475 0.2188 0.5786 0.0507 Uiso
O51_3 O 0.8048 0.2559 0.4379 0.0507 Uiso
O52_3 O 0.8048 0.2559 0.5621 0.0507 Uiso
O54_3 O 0.8526 0.2062 0.4401 0.0507 Uiso
O55_3 O 0.8526 0.2062 0.5599 0.0507 Uiso
C23_5 C 0.8339 0.8339 0.000 0.0507 Uiso
H11_5 H 0.8386 0.8048 0.000 0.0760 Uiso
O13_3 O 0.9574 0.8541 0.2004 0.0507 Uiso
O14_3 O 0.9572 0.8048 0.1304 0.0507 Uiso
C30_3 C 0.9448 0.8371 0.1571 0.0507 Uiso
C31_3 C 0.9057 0.8555 0.1278 0.0507 Uiso
C32_3 C 0.8913 0.8913 0.152 0.0507 Uiso
H15_3 H 0.9048 0.9048 0.1824 0.0760 Uiso
C33_3 C 0.8889 0.8362 0.0767 0.0507 Uiso
H16_3 H 0.9014 0.8139 0.059 0.0760 Uiso
C34_3 C 0.8528 0.8528 0.055 0.0507 Uiso
H17_5 H 0.8048 0.8386 0.000 0.0760 Uiso
C38_3 C 0.8371 0.9448 0.1571 0.0507 Uiso
C39_3 C 0.8555 0.9057 0.1278 0.0507 Uiso
C40_3 C 0.8362 0.8889 0.0767 0.0507 Uiso
H19_3 H 0.8139 0.9014 0.059 0.0760 Uiso
C18_3 C 0.8371 0.9448 0.8429 0.0507 Uiso
C19_3 C 0.8555 0.9057 0.8722 0.0507 Uiso
C20_3 C 0.8913 0.8913 0.848 0.0507 Uiso
H9_3 H 0.9048 0.9048 0.8176 0.0760 Uiso
C21_3 C 0.8362 0.8889 0.9233 0.0507 Uiso
H10_3 H 0.8139 0.9014 0.941 0.0760 Uiso
C22_3 C 0.8528 0.8528 0.945 0.0507 Uiso
C23_6 C 0.8339 0.8339 1.000 0.0507 Uiso
H11_6 H 0.8386 0.8048 1.000 0.0760 Uiso
H17_6 H 0.8048 0.8386 1.000 0.0760 Uiso
O15_3 O 0.9574 0.8541 0.7996 0.0507 Uiso
O16_3 O 0.9572 0.8048 0.8696 0.0507 Uiso
C35_3 C 0.9448 0.8371 0.8429 0.0507 Uiso
C36_3 C 0.9057 0.8555 0.8722 0.0507 Uiso
C37_3 C 0.8889 0.8362 0.9233 0.0507 Uiso
H18_3 H 0.9014 0.8139 0.941 0.0760 Uiso
O45_2 O 0.6491 0.709 0.7835 0.0507 Uiso
O46_2 O 0.6147 0.6745 0.7147 0.0507 Uiso
C86_2 C 0.7429 0.9122 0.7041 0.0507 Uiso
C87_2 C 0.7619 0.8932 0.6559 0.0507 Uiso
H41_2 H 0.7869 0.902 0.6416 0.0760 Uiso
C88_2 C 0.7407 0.8594 0.6295 0.0507 Uiso
C89_2 C 0.7019 0.8488 0.6506 0.0507 Uiso
H42_2 H 0.688 0.8277 0.6321 0.0760 Uiso
C90_2 C 0.6834 0.8681 0.6975 0.0507 Uiso
C91_2 C 0.7049 0.9005 0.7233 0.0507 Uiso
H43_2 H 0.693 0.9145 0.7545 0.0760 Uiso
C92_2 C 0.6178 0.744 0.7032 0.0507 Uiso
C93_2 C 0.5931 0.7441 0.6568 0.0507 Uiso
H44_2 H 0.583 0.7199 0.6413 0.0760 Uiso
C94_2 C 0.5825 0.7815 0.6317 0.0507 Uiso
C95_2 C 0.5972 0.8184 0.6495 0.0507 Uiso
H45_2 H 0.5908 0.842 0.629 0.0760 Uiso
C96_2 C 0.6224 0.8197 0.6997 0.0507 Uiso
C97_2 C 0.634 0.7814 0.7243 0.0507 Uiso
H46_2 H 0.6527 0.781 0.7551 0.0760 Uiso
C98_2 C 0.6398 0.8591 0.7185 0.0507 Uiso
H47_2 H 0.6222 0.8807 0.7043 0.0760 Uiso
H48_2 H 0.6395 0.8601 0.7613 0.0760 Uiso
C99_2 C 0.7657 0.9462 0.7334 0.0507 Uiso
C100_2 C 0.7617 0.8361 0.5807 0.0507 Uiso
C101_2 C 0.6279 0.7064 0.7385 0.0507 Uiso
C102_2 C 0.5525 0.7812 0.5786 0.0507 Uiso
O49_3 O 0.0424 0.2027 0.2894 0.0507 Uiso
O50_3 O 0.0419 0.252 0.2206 0.0507 Uiso
O65_3 O 0.0426 0.1459 0.2004 0.0507 Uiso
O68_3 O 0.0428 0.1952 0.1304 0.0507 Uiso
O41_2 O 0.0424 0.7973 0.7106 0.0507 Uiso
O42_2 O 0.0419 0.748 0.7794 0.0507 Uiso
O43_2 O 0.1952 0.7441 0.5621 0.0507 Uiso
O44_2 O 0.1474 0.7938 0.5599 0.0507 Uiso
O47_2 O 0.184 0.541 0.5606 0.0507 Uiso
O48_2 O 0.2538 0.5419 0.5613 0.0507 Uiso
C86_3 C 0.0878 0.7429 0.7041 0.0507 Uiso
C87_3 C 0.1068 0.7619 0.6559 0.0507 Uiso
H41_3 H 0.098 0.7869 0.6416 0.0760 Uiso
C88_3 C 0.1406 0.7407 0.6295 0.0507 Uiso
C89_3 C 0.1512 0.7019 0.6506 0.0507 Uiso
H42_3 H 0.1723 0.688 0.6321 0.0760 Uiso
C90_3 C 0.1319 0.6834 0.6975 0.0507 Uiso
C91_3 C 0.0995 0.7049 0.7233 0.0507 Uiso
H43_3 H 0.0855 0.693 0.7545 0.0760 Uiso
C92_3 C 0.256 0.6178 0.7032 0.0507 Uiso
C93_3 C 0.2559 0.5931 0.6568 0.0507 Uiso
H44_3 H 0.2801 0.583 0.6413 0.0760 Uiso
C94_3 C 0.2185 0.5825 0.6317 0.0507 Uiso
C95_3 C 0.1816 0.5972 0.6495 0.0507 Uiso
H45_3 H 0.158 0.5908 0.629 0.0760 Uiso
C96_3 C 0.1803 0.6224 0.6997 0.0507 Uiso
C97_3 C 0.2186 0.634 0.7243 0.0507 Uiso
H46_3 H 0.219 0.6527 0.7551 0.0760 Uiso
C98_3 C 0.1409 0.6398 0.7185 0.0507 Uiso
H47_3 H 0.1193 0.6222 0.7043 0.0760 Uiso
H48_3 H 0.1399 0.6395 0.7613 0.0760 Uiso
C99_3 C 0.0538 0.7657 0.7334 0.0507 Uiso
C100_3 C 0.1639 0.7617 0.5807 0.0507 Uiso
C101_3 C 0.2936 0.6279 0.7385 0.0507 Uiso
C102_3 C 0.2188 0.5525 0.5786 0.0507 Uiso
Cu34_2 Cu 0.25931 0.500 0.500 0.0101 Uiso
Cu36_2 Cu 0.17952 0.500 0.500 0.0101 Uiso
C29_5 C 0.7363 0.500 0.000 0.0507 Uiso
H14_5 H 0.7536 0.5239 0.000 0.0760 Uiso
O19_3 O 0.6688 0.3917 0.13 0.0507 Uiso
O20_3 O 0.6317 0.4256 0.1986 0.0507 Uiso
C41_3 C 0.6553 0.4236 0.1571 0.0507 Uiso
C42_3 C 0.6693 0.4632 0.1261 0.0507 Uiso
C43_3 C 0.6541 0.500 0.1527 0.0507 Uiso
H20_3 H 0.6361 0.500 0.1844 0.0760 Uiso
C44_3 C 0.6978 0.4625 0.0792 0.0507 Uiso
H21_3 H 0.7085 0.4381 0.0653 0.0760 Uiso
C45_3 C 0.7096 0.500 0.0542 0.0507 Uiso
H22_5 H 0.7536 0.4761 0.000 0.0760 Uiso
C49_3 C 0.6553 0.5764 0.1571 0.0507 Uiso
C50_3 C 0.6693 0.5368 0.1261 0.0507 Uiso
C51_3 C 0.6978 0.5375 0.0792 0.0507 Uiso
H24_3 H 0.7085 0.5619 0.0653 0.0760 Uiso
O25_3 O 0.9576 0.2027 0.2894 0.0507 Uiso
O26_3 O 0.9581 0.252 0.2206 0.0507 Uiso
O29_3 O 0.709 0.3509 0.2165 0.0507 Uiso
O30_3 O 0.6745 0.3853 0.2853 0.0507 Uiso
O31 O 0.816 0.459 0.4394 0.0507 Uiso
O32 O 0.7462 0.4581 0.4387 0.0507 Uiso
C52_3 C 0.9122 0.2571 0.2959 0.0507 Uiso
C53_3 C 0.8932 0.2381 0.3441 0.0507 Uiso
H25_3 H 0.902 0.2131 0.3584 0.0760 Uiso
C54_3 C 0.8594 0.2593 0.3705 0.0507 Uiso
C55_3 C 0.8488 0.2981 0.3494 0.0507 Uiso
H26_3 H 0.8277 0.312 0.3679 0.0760 Uiso
C56_3 C 0.8681 0.3166 0.3025 0.0507 Uiso
C57_3 C 0.9005 0.2951 0.2767 0.0507 Uiso
H27_3 H 0.9145 0.307 0.2455 0.0760 Uiso
C58_3 C 0.744 0.3822 0.2968 0.0507 Uiso
C59_3 C 0.7441 0.4069 0.3432 0.0507 Uiso
H28_3 H 0.7199 0.417 0.3587 0.0760 Uiso
C60_3 C 0.7815 0.4175 0.3683 0.0507 Uiso
C61_3 C 0.8184 0.4028 0.3505 0.0507 Uiso
H29_3 H 0.842 0.4092 0.371 0.0760 Uiso
C62_3 C 0.8197 0.3776 0.3003 0.0507 Uiso
C63_3 C 0.7814 0.366 0.2757 0.0507 Uiso
H30_3 H 0.781 0.3473 0.2449 0.0760 Uiso
C64_3 C 0.8591 0.3602 0.2815 0.0507 Uiso
H31_3 H 0.8807 0.3778 0.2957 0.0760 Uiso
H32_3 H 0.8601 0.3605 0.2387 0.0760 Uiso
C65_3 C 0.9462 0.2343 0.2666 0.0507 Uiso
C66_3 C 0.8361 0.2383 0.4193 0.0507 Uiso
C67_3 C 0.7064 0.3721 0.2615 0.0507 Uiso
C68_3 C 0.7812 0.4475 0.4214 0.0507 Uiso
Cu33 Cu 0.74069 0.500 0.500 0.0101 Uiso
Cu35 Cu 0.82048 0.500 0.500 0.0101 Uiso
O1_3 O 0.9576 0.7973 0.7106 0.0507 Uiso
O2_3 O 0.9581 0.748 0.7794 0.0507 Uiso
O5_3 O 0.709 0.6491 0.7835 0.0507 Uiso
O6_3 O 0.6745 0.6147 0.7147 0.0507 Uiso
O7_3 O 0.816 0.541 0.5606 0.0507 Uiso
O8_3 O 0.7462 0.5419 0.5613 0.0507 Uiso
C1_3 C 0.9122 0.7429 0.7041 0.0507 Uiso
C2_3 C 0.8932 0.7619 0.6559 0.0507 Uiso
H1_3 H 0.902 0.7869 0.6416 0.0760 Uiso
C3_3 C 0.8594 0.7407 0.6295 0.0507 Uiso
C4_3 C 0.8488 0.7019 0.6506 0.0507 Uiso
H2_3 H 0.8277 0.688 0.6321 0.0760 Uiso
C5_3 C 0.8681 0.6834 0.6975 0.0507 Uiso
C6_3 C 0.9005 0.7049 0.7233 0.0507 Uiso
H3_3 H 0.9145 0.693 0.7545 0.0760 Uiso
C7_3 C 0.744 0.6178 0.7032 0.0507 Uiso
C8_3 C 0.7441 0.5931 0.6568 0.0507 Uiso
H4_3 H 0.7199 0.583 0.6413 0.0760 Uiso
C9_3 C 0.7815 0.5825 0.6317 0.0507 Uiso
C10_3 C 0.8184 0.5972 0.6495 0.0507 Uiso
H5_3 H 0.842 0.5908 0.629 0.0760 Uiso
C11_3 C 0.8197 0.6224 0.6997 0.0507 Uiso
C12_3 C 0.7814 0.634 0.7243 0.0507 Uiso
H6_3 H 0.781 0.6527 0.7551 0.0760 Uiso
C13_3 C 0.8591 0.6398 0.7185 0.0507 Uiso
H7_3 H 0.8807 0.6222 0.7043 0.0760 Uiso
H8_3 H 0.8601 0.6395 0.7613 0.0760 Uiso
C14_3 C 0.9462 0.7657 0.7334 0.0507 Uiso
C15_3 C 0.8361 0.7617 0.5807 0.0507 Uiso
C16_3 C 0.7064 0.6279 0.7385 0.0507 Uiso
C17_3 C 0.7812 0.5525 0.5786 0.0507 Uiso
O11_3 O 0.6688 0.6083 0.87 0.0507 Uiso
O12_3 O 0.6317 0.5744 0.8014 0.0507 Uiso
C24_3 C 0.6553 0.5764 0.8429 0.0507 Uiso
C25_3 C 0.6693 0.5368 0.8739 0.0507 Uiso
C26_3 C 0.6541 0.500 0.8473 0.0507 Uiso
H12_3 H 0.6361 0.500 0.8156 0.0760 Uiso
C27_3 C 0.6978 0.5375 0.9208 0.0507 Uiso
H13_3 H 0.7085 0.5619 0.9347 0.0760 Uiso
C28_3 C 0.7096 0.500 0.9458 0.0507 Uiso
C29_6 C 0.7363 0.500 1.000 0.0507 Uiso
H14_6 H 0.7536 0.5239 1.000 0.0760 Uiso
H22_6 H 0.7536 0.4761 1.000 0.0760 Uiso
C46_3 C 0.6553 0.4236 0.8429 0.0507 Uiso
C47_3 C 0.6693 0.4632 0.8739 0.0507 Uiso
C48_3 C 0.6978 0.4625 0.9208 0.0507 Uiso
H23_3 H 0.7085 0.4381 0.9347 0.0760 Uiso
O33_2 O 0.9576 0.2027 0.7106 0.0507 Uiso
O34_2 O 0.9581 0.252 0.7794 0.0507 Uiso
O39_2 O 0.816 0.459 0.5606 0.0507 Uiso
O40_2 O 0.7462 0.4581 0.5613 0.0507 Uiso
C69_3 C 0.9122 0.2571 0.7041 0.0507 Uiso
C70_3 C 0.8932 0.2381 0.6559 0.0507 Uiso
H33_3 H 0.902 0.2131 0.6416 0.0760 Uiso
C71_3 C 0.8594 0.2593 0.6295 0.0507 Uiso
C72_3 C 0.8488 0.2981 0.6506 0.0507 Uiso
H34_3 H 0.8277 0.312 0.6321 0.0760 Uiso
C73_3 C 0.8681 0.3166 0.6975 0.0507 Uiso
C74_3 C 0.9005 0.2951 0.7233 0.0507 Uiso
H35_3 H 0.9145 0.307 0.7545 0.0760 Uiso
C75_3 C 0.744 0.3822 0.7032 0.0507 Uiso
C76_3 C 0.7441 0.4069 0.6568 0.0507 Uiso
H36_3 H 0.7199 0.417 0.6413 0.0760 Uiso
C77_3 C 0.7815 0.4175 0.6317 0.0507 Uiso
C78_3 C 0.8184 0.4028 0.6495 0.0507 Uiso
H37_3 H 0.842 0.4092 0.629 0.0760 Uiso
C79_3 C 0.8197 0.3776 0.6997 0.0507 Uiso
C80_3 C 0.7814 0.366 0.7243 0.0507 Uiso
H38_3 H 0.781 0.3473 0.7551 0.0760 Uiso
C81_3 C 0.8591 0.3602 0.7185 0.0507 Uiso
H39_3 H 0.8807 0.3778 0.7043 0.0760 Uiso
H40_3 H 0.8601 0.3605 0.7613 0.0760 Uiso
C82_3 C 0.9462 0.2343 0.7334 0.0507 Uiso
C83_3 C 0.8361 0.2383 0.5807 0.0507 Uiso
C84_3 C 0.7064 0.3721 0.7385 0.0507 Uiso
C85_3 C 0.7812 0.4475 0.5786 0.0507 Uiso
O62_3 O 0.816 0.541 0.4394 0.0507 Uiso
O64_3 O 0.7462 0.5419 0.4387 0.0507 Uiso
C18_4 C 0.0552 0.1629 0.1571 0.0507 Uiso
C19_4 C 0.0943 0.1445 0.1278 0.0507 Uiso
C20_4 C 0.1087 0.1087 0.152 0.0507 Uiso
H9_4 H 0.0952 0.0952 0.1824 0.0760 Uiso
C21_4 C 0.1111 0.1638 0.0767 0.0507 Uiso
H10_4 H 0.0986 0.1861 0.059 0.0760 Uiso
C22_4 C 0.1472 0.1472 0.055 0.0507 Uiso
C23_7 C 0.1661 0.1661 0.000 0.0507 Uiso
H11_7 H 0.1952 0.1614 0.000 0.0760 Uiso
H17_7 H 0.1614 0.1952 0.000 0.0760 Uiso
C35_4 C 0.1629 0.0552 0.1571 0.0507 Uiso
C36_4 C 0.1445 0.0943 0.1278 0.0507 Uiso
C37_4 C 0.1638 0.1111 0.0767 0.0507 Uiso
H18_4 H 0.1861 0.0986 0.059 0.0760 Uiso
O47_3 O 0.184 0.459 0.4394 0.0507 Uiso
O48_3 O 0.2538 0.4581 0.4387 0.0507 Uiso
C86_4 C 0.0878 0.2571 0.2959 0.0507 Uiso
C87_4 C 0.1068 0.2381 0.3441 0.0507 Uiso
H41_4 H 0.098 0.2131 0.3584 0.0760 Uiso
C88_4 C 0.1406 0.2593 0.3705 0.0507 Uiso
C89_4 C 0.1512 0.2981 0.3494 0.0507 Uiso
H42_4 H 0.1723 0.312 0.3679 0.0760 Uiso
C90_4 C 0.1319 0.3166 0.3025 0.0507 Uiso
C91_4 C 0.0995 0.2951 0.2767 0.0507 Uiso
H43_4 H 0.0855 0.307 0.2455 0.0760 Uiso
C92_4 C 0.256 0.3822 0.2968 0.0507 Uiso
C93_4 C 0.2559 0.4069 0.3432 0.0507 Uiso
H44_4 H 0.2801 0.417 0.3587 0.0760 Uiso
C94_4 C 0.2185 0.4175 0.3683 0.0507 Uiso
C95_4 C 0.1816 0.4028 0.3505 0.0507 Uiso
H45_4 H 0.158 0.4092 0.371 0.0760 Uiso
C96_4 C 0.1803 0.3776 0.3003 0.0507 Uiso
C97_4 C 0.2186 0.366 0.2757 0.0507 Uiso
H46_4 H 0.219 0.3473 0.2449 0.0760 Uiso
C98_4 C 0.1409 0.3602 0.2815 0.0507 Uiso
H47_4 H 0.1193 0.3778 0.2957 0.0760 Uiso
H48_4 H 0.1399 0.3605 0.2387 0.0760 Uiso
C99_4 C 0.0538 0.2343 0.2666 0.0507 Uiso
C100_4 C 0.1639 0.2383 0.4193 0.0507 Uiso
C101_4 C 0.2936 0.3721 0.2615 0.0507 Uiso
C102_4 C 0.2188 0.4475 0.4214 0.0507 Uiso
C23_8 C 0.1661 0.1661 1.000 0.0507 Uiso
H11_8 H 0.1952 0.1614 1.000 0.0760 Uiso
C30_4 C 0.1629 0.0552 0.8429 0.0507 Uiso
C31_4 C 0.1445 0.0943 0.8722 0.0507 Uiso
C32_4 C 0.1087 0.1087 0.848 0.0507 Uiso
H15_4 H 0.0952 0.0952 0.8176 0.0760 Uiso
C33_4 C 0.1638 0.1111 0.9233 0.0507 Uiso
H16_4 H 0.1861 0.0986 0.941 0.0760 Uiso
C34_4 C 0.1472 0.1472 0.945 0.0507 Uiso
H17_8 H 0.1614 0.1952 1.000 0.0760 Uiso
O17_2 O 0.0426 0.1459 0.7996 0.0507 Uiso
O18_2 O 0.0428 0.1952 0.8696 0.0507 Uiso
C38_4 C 0.0552 0.1629 0.8429 0.0507 Uiso
C39_4 C 0.0943 0.1445 0.8722 0.0507 Uiso
C40_4 C 0.1111 0.1638 0.9233 0.0507 Uiso
H19_4 H 0.0986 0.1861 0.941 0.0760 Uiso
O33_3 O 0.9576 0.7973 0.2894 0.0507 Uiso
O34_3 O 0.9581 0.748 0.2206 0.0507 Uiso
C69_4 C 0.9122 0.7429 0.2959 0.0507 Uiso
C70_4 C 0.8932 0.7619 0.3441 0.0507 Uiso
H33_4 H 0.902 0.7869 0.3584 0.0760 Uiso
C71_4 C 0.8594 0.7407 0.3705 0.0507 Uiso
C72_4 C 0.8488 0.7019 0.3494 0.0507 Uiso
H34_4 H 0.8277 0.688 0.3679 0.0760 Uiso
C73_4 C 0.8681 0.6834 0.3025 0.0507 Uiso
C74_4 C 0.9005 0.7049 0.2767 0.0507 Uiso
H35_4 H 0.9145 0.693 0.2455 0.0760 Uiso
C75_4 C 0.744 0.6178 0.2968 0.0507 Uiso
C76_4 C 0.7441 0.5931 0.3432 0.0507 Uiso
H36_4 H 0.7199 0.583 0.3587 0.0760 Uiso
C77_4 C 0.7815 0.5825 0.3683 0.0507 Uiso
C78_4 C 0.8184 0.5972 0.3505 0.0507 Uiso
H37_4 H 0.842 0.5908 0.371 0.0760 Uiso
C79_4 C 0.8197 0.6224 0.3003 0.0507 Uiso
C80_4 C 0.7814 0.634 0.2757 0.0507 Uiso
H38_4 H 0.781 0.6527 0.2449 0.0760 Uiso
C81_4 C 0.8591 0.6398 0.2815 0.0507 Uiso
H39_4 H 0.8807 0.6222 0.2957 0.0760 Uiso
H40_4 H 0.8601 0.6395 0.2387 0.0760 Uiso
C82_4 C 0.9462 0.7657 0.2666 0.0507 Uiso
C83_4 C 0.8361 0.7617 0.4193 0.0507 Uiso
C84_4 C 0.7064 0.6279 0.2615 0.0507 Uiso
C85_4 C 0.7812 0.5525 0.4214 0.0507 Uiso
O1_4 O 0.0424 0.7973 0.2894 0.0507 Uiso
O2_4 O 0.0419 0.748 0.2206 0.0507 Uiso
O3_3 O 0.1952 0.7441 0.4379 0.0507 Uiso
O4_3 O 0.1474 0.7938 0.4401 0.0507 Uiso
O5_4 O 0.291 0.6491 0.2165 0.0507 Uiso
O6_4 O 0.3255 0.6147 0.2853 0.0507 Uiso
O7_4 O 0.184 0.541 0.4394 0.0507 Uiso
O8_4 O 0.2538 0.5419 0.4387 0.0507 Uiso
C1_4 C 0.0878 0.7429 0.2959 0.0507 Uiso
C2_4 C 0.1068 0.7619 0.3441 0.0507 Uiso
H1_4 H 0.098 0.7869 0.3584 0.0760 Uiso
C3_4 C 0.1406 0.7407 0.3705 0.0507 Uiso
C4_4 C 0.1512 0.7019 0.3494 0.0507 Uiso
H2_4 H 0.1723 0.688 0.3679 0.0760 Uiso
C5_4 C 0.1319 0.6834 0.3025 0.0507 Uiso
C6_4 C 0.0995 0.7049 0.2767 0.0507 Uiso
H3_4 H 0.0855 0.693 0.2455 0.0760 Uiso
C7_4 C 0.256 0.6178 0.2968 0.0507 Uiso
C8_4 C 0.2559 0.5931 0.3432 0.0507 Uiso
H4_4 H 0.2801 0.583 0.3587 0.0760 Uiso
C9_4 C 0.2185 0.5825 0.3683 0.0507 Uiso
C10_4 C 0.1816 0.5972 0.3505 0.0507 Uiso
H5_4 H 0.158 0.5908 0.371 0.0760 Uiso
C11_4 C 0.1803 0.6224 0.3003 0.0507 Uiso
C12_4 C 0.2186 0.634 0.2757 0.0507 Uiso
H6_4 H 0.219 0.6527 0.2449 0.0760 Uiso
C13_4 C 0.1409 0.6398 0.2815 0.0507 Uiso
H7_4 H 0.1193 0.6222 0.2957 0.0760 Uiso
H8_4 H 0.1399 0.6395 0.2387 0.0760 Uiso
C14_4 C 0.0538 0.7657 0.2666 0.0507 Uiso
C15_4 C 0.1639 0.7617 0.4193 0.0507 Uiso
C16_4 C 0.2936 0.6279 0.2615 0.0507 Uiso
C17_4 C 0.2188 0.5525 0.4214 0.0507 Uiso
O11_4 O 0.3312 0.6083 0.13 0.0507 Uiso
O12_4 O 0.3683 0.5744 0.1986 0.0507 Uiso
C24_4 C 0.3447 0.5764 0.1571 0.0507 Uiso
C25_4 C 0.3307 0.5368 0.1261 0.0507 Uiso
C26_4 C 0.3459 0.500 0.1527 0.0507 Uiso
H12_4 H 0.3639 0.500 0.1844 0.0760 Uiso
C27_4 C 0.3022 0.5375 0.0792 0.0507 Uiso
H13_4 H 0.2915 0.5619 0.0653 0.0760 Uiso
C28_4 C 0.2904 0.500 0.0542 0.0507 Uiso
C29_7 C 0.2637 0.500 0.000 0.0507 Uiso
H14_7 H 0.2464 0.5239 0.000 0.0760 Uiso
H22_7 H 0.2464 0.4761 0.000 0.0760 Uiso
C46_4 C 0.3447 0.4236 0.1571 0.0507 Uiso
C47_4 C 0.3307 0.4632 0.1261 0.0507 Uiso
C48_4 C 0.3022 0.4625 0.0792 0.0507 Uiso
H23_4 H 0.2915 0.4381 0.0653 0.0760 Uiso
O61_3 O 0.184 0.459 0.5606 0.0507 Uiso
O63_3 O 0.2538 0.4581 0.5613 0.0507 Uiso
C29_8 C 0.2637 0.500 1.000 0.0507 Uiso
H14_8 H 0.2464 0.5239 1.000 0.0760 Uiso
O19_4 O 0.3312 0.3917 0.87 0.0507 Uiso
O20_4 O 0.3683 0.4256 0.8014 0.0507 Uiso
C41_4 C 0.3447 0.4236 0.8429 0.0507 Uiso
C42_4 C 0.3307 0.4632 0.8739 0.0507 Uiso
C43_4 C 0.3459 0.500 0.8473 0.0507 Uiso
H20_4 H 0.3639 0.500 0.8156 0.0760 Uiso
C44_4 C 0.3022 0.4625 0.9208 0.0507 Uiso
H21_4 H 0.2915 0.4381 0.9347 0.0760 Uiso
C45_4 C 0.2904 0.500 0.9458 0.0507 Uiso
H22_8 H 0.2464 0.4761 1.000 0.0760 Uiso
C49_4 C 0.3447 0.5764 0.8429 0.0507 Uiso
C50_4 C 0.3307 0.5368 0.8739 0.0507 Uiso
C51_4 C 0.3022 0.5375 0.9208 0.0507 Uiso
H24_4 H 0.2915 0.5619 0.9347 0.0760 Uiso
O25_4 O 0.0424 0.2027 0.7106 0.0507 Uiso
O26_4 O 0.0419 0.252 0.7794 0.0507 Uiso
O29_4 O 0.291 0.3509 0.7835 0.0507 Uiso
O30_4 O 0.3255 0.3853 0.7147 0.0507 Uiso
C52_4 C 0.0878 0.2571 0.7041 0.0507 Uiso
C53_4 C 0.1068 0.2381 0.6559 0.0507 Uiso
H25_4 H 0.098 0.2131 0.6416 0.0760 Uiso
C54_4 C 0.1406 0.2593 0.6295 0.0507 Uiso
C55_4 C 0.1512 0.2981 0.6506 0.0507 Uiso
H26_4 H 0.1723 0.312 0.6321 0.0760 Uiso
C56_4 C 0.1319 0.3166 0.6975 0.0507 Uiso
C57_4 C 0.0995 0.2951 0.7233 0.0507 Uiso
H27_4 H 0.0855 0.307 0.7545 0.0760 Uiso
C58_4 C 0.256 0.3822 0.7032 0.0507 Uiso
C59_4 C 0.2559 0.4069 0.6568 0.0507 Uiso
H28_4 H 0.2801 0.417 0.6413 0.0760 Uiso
C60_4 C 0.2185 0.4175 0.6317 0.0507 Uiso
C61_4 C 0.1816 0.4028 0.6495 0.0507 Uiso
H29_4 H 0.158 0.4092 0.629 0.0760 Uiso
C62_4 C 0.1803 0.3776 0.6997 0.0507 Uiso
C63_4 C 0.2186 0.366 0.7243 0.0507 Uiso
H30_4 H 0.219 0.3473 0.7551 0.0760 Uiso
C64_4 C 0.1409 0.3602 0.7185 0.0507 Uiso
H31_4 H 0.1193 0.3778 0.7043 0.0760 Uiso
H32_4 H 0.1399 0.3605 0.7613 0.0760 Uiso
C65_4 C 0.0538 0.2343 0.7334 0.0507 Uiso
C66_4 C 0.1639 0.2383 0.5807 0.0507 Uiso
C67_4 C 0.2936 0.3721 0.7385 0.0507 Uiso
C68_4 C 0.2188 0.4475 0.5786 0.0507 Uiso
loop_
_geom_bond_atom_site_label_1
_geom_bond_atom_site_label_2
_geom_bond_site_symmetry_1
_geom_bond_site_symmetry_2
Cu1 Cu2 1_555 1_555
Cu2 O2 1_555 1_555
Cu3 Cu4 1_555 1_555
Cu4 O4 1_555 1_555
Cu5 Cu6 1_555 1_555
Cu6 O6 1_555 1_555
Cu7 Cu8 1_555 1_555
Cu8 O7 1_555 1_555
O1 Cu1 1_555 1_555
O2 C14 1_555 1_555
O3 Cu3 1_555 1_555
O4 C15 1_555 1_555
O5 Cu5 1_555 1_555
O6 C16 1_555 1_555
O7 C17 1_555 1_555
O8 Cu7 1_555 1_555
C1 C2 1_555 1_555
C2 H1 1_555 1_555
C3 C2 1_555 1_555
C4 C3 1_555 1_555
H2 C4 1_555 1_555
C5 C4 1_555 1_555
C6 C1 1_555 1_555
H3 C6 1_555 1_555
C7 C8 1_555 1_555
C8 H4 1_555 1_555
C9 C8 1_555 1_555
C10 C9 1_555 1_555
H5 C10 1_555 1_555
C11 C10 1_555 1_555
C12 C7 1_555 1_555
H6 C12 1_555 1_555
C13 C5 1_555 1_555
H7 C13 1_555 1_555
H8 C13 1_555 1_555
C14 O1 1_555 1_555
C15 O3 1_555 1_555
C16 O5 1_555 1_555
C17 O8 1_555 1_555
O11 Cu5 1_555 1_555
O12 Cu6 1_555 1_555
C24 O11 1_555 1_555
C25 C24 1_555 1_555
C26 C25 1_555 1_555
H12 C26 1_555 1_555
C27 C25 1_555 1_555
H13 C27 1_555 1_555
C28 C27 1_555 1_555
C29 C28 1_555 1_555
H14 C29 1_555 1_555
H22 C29 1_555 1_555
O21 C46 1_555 1_555
O22 C46 1_555 1_555
C46 C47 1_555 1_555
C47 C26 1_555 1_555
C48 C28 1_555 1_555
H23 C48 1_555 1_555
O33 C82 1_555 1_555
O34 C82 1_555 1_555
O35 C83 1_555 1_555
O36 C83 1_555 1_555
O37 C84 1_555 1_555
O38 C84 1_555 1_555
O39 Cu8 1_555 1_555
O40 Cu7 1_555 1_555
C69 C70 1_555 1_555
C70 H33 1_555 1_555
C71 C70 1_555 1_555
C72 C71 1_555 1_555
H34 C72 1_555 1_555
C73 C72 1_555 1_555
C74 C69 1_555 1_555
H35 C74 1_555 1_555
C75 C76 1_555 1_555
C76 H36 1_555 1_555
C77 C76 1_555 1_555
C78 C77 1_555 1_555
H37 C78 1_555 1_555
C79 C78 1_555 1_555
C80 C75 1_555 1_555
H38 C80 1_555 1_555
C81 C73 1_555 1_555
H39 C81 1_555 1_555
H40 C81 1_555 1_555
C82 C69 1_555 1_555
C83 C71 1_555 1_555
C84 C75 1_555 1_555
C85 O39 1_555 1_555
Cu13 O33 1_555 1_555
Cu17 O34 1_555 1_555
Cu22 O35 1_555 1_555
Cu25 O36 1_555 1_555
Cu27 O21 1_555 1_555
Cu30 O22 1_555 1_555
O51 Cu3 1_555 1_555
O52 Cu3 1_555 1_555
O53 Cu3 1_555 1_555
O54 Cu4 1_555 1_555
O55 Cu4 1_555 1_555
O56 Cu4 1_555 1_555
O58 Cu5 1_555 1_555
O60 Cu6 1_555 1_555
O61 Cu8 1_555 1_555
O62 Cu8 1_555 1_555
O63 Cu7 1_555 1_555
O64 Cu7 1_555 1_555
O66 Cu1 1_555 1_555
O69 Cu2 1_555 1_555
O72 Cu5 1_555 1_555
O74 Cu6 1_555 1_555
C1 C14 1_555 1_555
C3 C15 1_555 1_555
C5 C6 1_555 1_555
C7 C16 1_555 1_555
C9 C17 1_555 1_555
C11 C12 1_555 1_555
C11 C13 1_555 1_555
O12 C24 1_555 1_555
C47 C48 1_555 1_555
O37 Cu27 1_555 1_555
O38 Cu30 1_555 1_555
O40 C85 1_555 1_555
C73 C74 1_555 1_555
C77 C85 1_555 1_555
C79 C80 1_555 1_555
C79 C81 1_555 1_555
Cu13 Cu17 1_555 1_555
Cu22 Cu25 1_555 1_555
Cu27 Cu30 1_555 1_555
H14_2 C29_2 1_555 1_555
O19 C41 1_555 1_555
O20 C41 1_555 1_555
C41 C42 1_555 1_555
C42 C43 1_555 1_555
C43 H20 1_555 1_555
C44 C42 1_555 1_555
H21 C44 1_555 1_555
C45 C29_2 1_555 1_555
H22_2 C29_2 1_555 1_555
O23 C49 1_555 1_555
O24 C49 1_555 1_555
C49 C50 1_555 1_555
C50 C43 1_555 1_555
C51 C45 1_555 1_555
H24 C51 1_555 1_555
Cu9 Cu10 1_555 1_555
Cu10 O26 1_555 1_555
Cu11 O19 1_555 1_555
Cu12 O20 1_555 1_555
O25 Cu9 1_555 1_555
O26 C65 1_555 1_555
O27 C66 1_555 1_555
O28 C66 1_555 1_555
O29 Cu11 1_555 1_555
O30 Cu12 1_555 1_555
O61 C68 1_555 1_555
O63 C68 1_555 1_555
C52 C53 1_555 1_555
C53 H25 1_555 1_555
C54 C53 1_555 1_555
C55 C54 1_555 1_555
H26 C55 1_555 1_555
C56 C55 1_555 1_555
C57 C52 1_555 1_555
H27 C57 1_555 1_555
C58 C59 1_555 1_555
C59 H28 1_555 1_555
C60 C59 1_555 1_555
C61 C60 1_555 1_555
H29 C61 1_555 1_555
C62 C61 1_555 1_555
C63 C58 1_555 1_555
H30 C63 1_555 1_555
C64 C56 1_555 1_555
H31 C64 1_555 1_555
H32 C64 1_555 1_555
C65 O25 1_555 1_555
C66 C54 1_555 1_555
C67 O29 1_555 1_555
C68 C60 1_555 1_555
Cu22 O27 1_555 1_555
Cu25 O28 1_555 1_555
Cu29 O23 1_555 1_555
Cu32 O24 1_555 1_555
O57 Cu11 1_555 1_555
O59 Cu12 1_555 1_555
O67 Cu9 1_555 1_555
O70 Cu10 1_555 1_555
O71 Cu11 1_555 1_555
O73 Cu12 1_555 1_555
C44 C45 1_555 1_555
C50 C51 1_555 1_555
Cu11 Cu12 1_555 1_555
O30 C67 1_555 1_555
C52 C65 1_555 1_555
C56 C57 1_555 1_555
C58 C67 1_555 1_555
C62 C63 1_555 1_555
C62 C64 1_555 1_555
Cu16 Cu20 1_555 1_555
Cu29 Cu32 1_555 1_555
Cu1_2 Cu2_2 1_555 1_555
O9 Cu1_2 1_555 1_555
O10 Cu2_2 1_555 1_555
C18 O9 1_555 1_555
C19 C18 1_555 1_555
C20 C19 1_555 1_555
H9 C20 1_555 1_555
C21 C19 1_555 1_555
H10 C21 1_555 1_555
C22 C21 1_555 1_555
C23 C22 1_555 1_555
H11 C23 1_555 1_555
H17 C23 1_555 1_555
O15 C35 1_555 1_555
O16 C35 1_555 1_555
C35 C36 1_555 1_555
C36 C20 1_555 1_555
C37 C22 1_555 1_555
H18 C37 1_555 1_555
O41 Cu1_2 1_555 1_555
O42 Cu2_2 1_555 1_555
O43 C100 1_555 1_555
O44 C100 1_555 1_555
O45 C101 1_555 1_555
O46 C101 1_555 1_555
O47 C102 1_555 1_555
O48 C102 1_555 1_555
C86 C87 1_555 1_555
C87 H41 1_555 1_555
C88 C87 1_555 1_555
C89 C88 1_555 1_555
H42 C89 1_555 1_555
C90 C89 1_555 1_555
C91 C86 1_555 1_555
H43 C91 1_555 1_555
C92 C93 1_555 1_555
C93 H44 1_555 1_555
C94 C93 1_555 1_555
C95 C94 1_555 1_555
H45 C95 1_555 1_555
C96 C95 1_555 1_555
C97 C92 1_555 1_555
H46 C97 1_555 1_555
C98 C90 1_555 1_555
H47 C98 1_555 1_555
H48 C98 1_555 1_555
C99 O41 1_555 1_555
C100 C88 1_555 1_555
C101 C92 1_555 1_555
C102 C94 1_555 1_555
Cu15 O15 1_555 1_555
Cu19 O16 1_555 1_555
Cu23 O43 1_555 1_555
Cu26 O44 1_555 1_555
Cu28 O45 1_555 1_555
Cu31 O46 1_555 1_555
Cu34 O48 1_555 1_555
Cu36 O47 1_555 1_555
O10 C18 1_555 1_555
C36 C37 1_555 1_555
O42 C99 1_555 1_555
C86 C99 1_555 1_555
C90 C91 1_555 1_555
C96 C97 1_555 1_555
C96 C98 1_555 1_555
Cu13_2 Cu17_2 1_555 1_555
Cu15 Cu19 1_555 1_555
Cu23 Cu26 1_555 1_555
Cu28 Cu31 1_555 1_555
Cu34 Cu36 1_555 1_555
H11_2 C23_2 1_555 1_555
O13 C30 1_555 1_555
O14 C30 1_555 1_555
C30 C31 1_555 1_555
C31 C32 1_555 1_555
C32 H15 1_555 1_555
C33 C31 1_555 1_555
H16 C33 1_555 1_555
C34 C23_2 1_555 1_555
H17_2 C23_2 1_555 1_555
O17 C38 1_555 1_555
O18 C38 1_555 1_555
C38 C39 1_555 1_555
C39 C32 1_555 1_555
C40 C34 1_555 1_555
H19 C40 1_555 1_555
Cu9_2 Cu10_2 1_555 1_555
Cu14 O13 1_555 1_555
Cu16_2 O17 1_555 1_555
Cu18 O14 1_555 1_555
Cu20_2 O18 1_555 1_555
O49 Cu9_2 1_555 1_555
O50 Cu10_2 1_555 1_555
O65 Cu9_2 1_555 1_555
O68 Cu10_2 1_555 1_555
C33 C34 1_555 1_555
C39 C40 1_555 1_555
Cu14 Cu18 1_555 1_555
Cu16_2 Cu20_2 1_555 1_555
Cu15_2 Cu19_2 1_555 1_555
Cu14_2 Cu18_2 1_555 1_555
Cu15_3 Cu19_3 1_555 1_555
Cu14_3 Cu18_3 1_555 1_555
O9_2 Cu13 1_555 1_555
O10_2 Cu17 1_555 1_555
C18_2 O9_2 1_555 1_555
C19_2 C18_2 1_555 1_555
C20_2 C19_2 1_555 1_555
H9_2 C20_2 1_555 1_555
C21_2 C19_2 1_555 1_555
H10_2 C21_2 1_555 1_555
C22_2 C21_2 1_555 1_555
C23_3 C22_2 1_555 1_555
H11_3 C23_3 1_555 1_555
H17_3 C23_3 1_555 1_555
O15_2 C35_2 1_555 1_555
O16_2 C35_2 1_555 1_555
C35_2 C36_2 1_555 1_555
C36_2 C20_2 1_555 1_555
C37_2 C22_2 1_555 1_555
H18_2 C37_2 1_555 1_555
Cu15_4 O15_2 1_555 1_555
Cu19_4 O16_2 1_555 1_555
O10_2 C18_2 1_555 1_555
C36_2 C37_2 1_555 1_555
Cu15_4 Cu19_4 1_555 1_555
H11_4 C23_4 1_555 1_555
O13_2 C30_2 1_555 1_555
O14_2 C30_2 1_555 1_555
C30_2 C31_2 1_555 1_555
C31_2 C32_2 1_555 1_555
C32_2 H15_2 1_555 1_555
C33_2 C31_2 1_555 1_555
H16_2 C33_2 1_555 1_555
C34_2 C23_4 1_555 1_555
H17_4 C23_4 1_555 1_555
O67 C38_2 1_555 1_555
O70 C38_2 1_555 1_555
C38_2 C39_2 1_555 1_555
C39_2 C32_2 1_555 1_555
C40_2 C34_2 1_555 1_555
H19_2 C40_2 1_555 1_555
Cu14_4 O13_2 1_555 1_555
Cu18_4 O14_2 1_555 1_555
O49_2 Cu16 1_555 1_555
O50_2 Cu20 1_555 1_555
O65_2 Cu16 1_555 1_555
O68_2 Cu20 1_555 1_555
C33_2 C34_2 1_555 1_555
C39_2 C40_2 1_555 1_555
Cu14_4 Cu18_4 1_555 1_555
Cu17_2 O2_2 1_555 1_555
Cu3_2 Cu4_2 1_555 1_555
Cu4_2 O4_2 1_555 1_555
Cu5_2 Cu6_2 1_555 1_555
Cu6_2 O6_2 1_555 1_555
Cu36 O7_2 1_555 1_555
O1_2 Cu13_2 1_555 1_555
O2_2 C14_2 1_555 1_555
O3_2 Cu3_2 1_555 1_555
O4_2 C15_2 1_555 1_555
O5_2 Cu5_2 1_555 1_555
O6_2 C16_2 1_555 1_555
O7_2 C17_2 1_555 1_555
O8_2 Cu34 1_555 1_555
C1_2 C2_2 1_555 1_555
C2_2 H1_2 1_555 1_555
C3_2 C2_2 1_555 1_555
C4_2 C3_2 1_555 1_555
H2_2 C4_2 1_555 1_555
C5_2 C4_2 1_555 1_555
C6_2 C1_2 1_555 1_555
H3_2 C6_2 1_555 1_555
C7_2 C8_2 1_555 1_555
C8_2 H4_2 1_555 1_555
C9_2 C8_2 1_555 1_555
C10_2 C9_2 1_555 1_555
H5_2 C10_2 1_555 1_555
C11_2 C10_2 1_555 1_555
C12_2 C7_2 1_555 1_555
H6_2 C12_2 1_555 1_555
C13_2 C5_2 1_555 1_555
H7_2 C13_2 1_555 1_555
H8_2 C13_2 1_555 1_555
C14_2 O1_2 1_555 1_555
C15_2 O3_2 1_555 1_555
C16_2 O5_2 1_555 1_555
C17_2 O8_2 1_555 1_555
O11_2 Cu5_2 1_555 1_555
O12_2 Cu6_2 1_555 1_555
C24_2 O11_2 1_555 1_555
C25_2 C24_2 1_555 1_555
C26_2 C25_2 1_555 1_555
H12_2 C26_2 1_555 1_555
C27_2 C25_2 1_555 1_555
H13_2 C27_2 1_555 1_555
C28_2 C27_2 1_555 1_555
C29_3 C28_2 1_555 1_555
H14_3 C29_3 1_555 1_555
H22_3 C29_3 1_555 1_555
O21_2 C46_2 1_555 1_555
O22_2 C46_2 1_555 1_555
C46_2 C47_2 1_555 1_555
C47_2 C26_2 1_555 1_555
C48_2 C28_2 1_555 1_555
H23_2 C48_2 1_555 1_555
Cu28 O21_2 1_555 1_555
Cu31 O22_2 1_555 1_555
O51_2 Cu3_2 1_555 1_555
O52_2 Cu3_2 1_555 1_555
O53_2 Cu3_2 1_555 1_555
O54_2 Cu4_2 1_555 1_555
O55_2 Cu4_2 1_555 1_555
O56_2 Cu4_2 1_555 1_555
O58_2 Cu5_2 1_555 1_555
O60_2 Cu6_2 1_555 1_555
O61_2 Cu36 1_555 1_555
O62_2 Cu36 1_555 1_555
O63_2 Cu34 1_555 1_555
O64_2 Cu34 1_555 1_555
O66_2 Cu13_2 1_555 1_555
O69_2 Cu17_2 1_555 1_555
O72_2 Cu5_2 1_555 1_555
O74_2 Cu6_2 1_555 1_555
C1_2 C14_2 1_555 1_555
C3_2 C15_2 1_555 1_555
C5_2 C6_2 1_555 1_555
C7_2 C16_2 1_555 1_555
C9_2 C17_2 1_555 1_555
C11_2 C12_2 1_555 1_555
C11_2 C13_2 1_555 1_555
O12_2 C24_2 1_555 1_555
C47_2 C48_2 1_555 1_555
H14_4 C29_4 1_555 1_555
O19_2 C41_2 1_555 1_555
O20_2 C41_2 1_555 1_555
C41_2 C42_2 1_555 1_555
C42_2 C43_2 1_555 1_555
C43_2 H20_2 1_555 1_555
C44_2 C42_2 1_555 1_555
H21_2 C44_2 1_555 1_555
C45_2 C29_4 1_555 1_555
H22_4 C29_4 1_555 1_555
O23_2 C49_2 1_555 1_555
O24_2 C49_2 1_555 1_555
C49_2 C50_2 1_555 1_555
C50_2 C43_2 1_555 1_555
C51_2 C45_2 1_555 1_555
H24_2 C51_2 1_555 1_555
Cu20_2 O26_2 1_555 1_555
Cu11_2 O19_2 1_555 1_555
Cu12_2 O20_2 1_555 1_555
O25_2 Cu16_2 1_555 1_555
O26_2 C65_2 1_555 1_555
O27_2 C66_2 1_555 1_555
O28_2 C66_2 1_555 1_555
O29_2 Cu11_2 1_555 1_555
O30_2 Cu12_2 1_555 1_555
O61_2 C68_2 1_555 1_555
O63_2 C68_2 1_555 1_555
C52_2 C53_2 1_555 1_555
C53_2 H25_2 1_555 1_555
C54_2 C53_2 1_555 1_555
C55_2 C54_2 1_555 1_555
H26_2 C55_2 1_555 1_555
C56_2 C55_2 1_555 1_555
C57_2 C52_2 1_555 1_555
H27_2 C57_2 1_555 1_555
C58_2 C59_2 1_555 1_555
C59_2 H28_2 1_555 1_555
C60_2 C59_2 1_555 1_555
C61_2 C60_2 1_555 1_555
H29_2 C61_2 1_555 1_555
C62_2 C61_2 1_555 1_555
C63_2 C58_2 1_555 1_555
H30_2 C63_2 1_555 1_555
C64_2 C56_2 1_555 1_555
H31_2 C64_2 1_555 1_555
H32_2 C64_2 1_555 1_555
C65_2 O25_2 1_555 1_555
C66_2 C54_2 1_555 1_555
C67_2 O29_2 1_555 1_555
C68_2 C60_2 1_555 1_555
Cu23 O27_2 1_555 1_555
Cu26 O28_2 1_555 1_555
Cu29_2 O23_2 1_555 1_555
Cu32_2 O24_2 1_555 1_555
O57_2 Cu11_2 1_555 1_555
O59_2 Cu12_2 1_555 1_555
O71_2 Cu11_2 1_555 1_555
O73_2 Cu12_2 1_555 1_555
C44_2 C45_2 1_555 1_555
C50_2 C51_2 1_555 1_555
Cu11_2 Cu12_2 1_555 1_555
O30_2 C67_2 1_555 1_555
C52_2 C65_2 1_555 1_555
C56_2 C57_2 1_555 1_555
C58_2 C67_2 1_555 1_555
C62_2 C63_2 1_555 1_555
C62_2 C64_2 1_555 1_555
Cu29_2 Cu32_2 1_555 1_555
O49_2 C82_2 1_555 1_555
O50_2 C82_2 1_555 1_555
O53 C83_2 1_555 1_555
O56 C83_2 1_555 1_555
O37_2 C84_2 1_555 1_555
O38_2 C84_2 1_555 1_555
C69_2 C70_2 1_555 1_555
C70_2 H33_2 1_555 1_555
C71_2 C70_2 1_555 1_555
C72_2 C71_2 1_555 1_555
H34_2 C72_2 1_555 1_555
C73_2 C72_2 1_555 1_555
C74_2 C69_2 1_555 1_555
H35_2 C74_2 1_555 1_555
C75_2 C76_2 1_555 1_555
C76_2 H36_2 1_555 1_555
C77_2 C76_2 1_555 1_555
C78_2 C77_2 1_555 1_555
H37_2 C78_2 1_555 1_555
C79_2 C78_2 1_555 1_555
C80_2 C75_2 1_555 1_555
H38_2 C80_2 1_555 1_555
C81_2 C73_2 1_555 1_555
H39_2 C81_2 1_555 1_555
H40_2 C81_2 1_555 1_555
C82_2 C69_2 1_555 1_555
C83_2 C71_2 1_555 1_555
C84_2 C75_2 1_555 1_555
C85_2 O62 1_555 1_555
O51_3 Cu22 1_555 1_555
O52_3 Cu22 1_555 1_555
O54_3 Cu25 1_555 1_555
O55_3 Cu25 1_555 1_555
O37_2 Cu29 1_555 1_555
O38_2 Cu32 1_555 1_555
O64 C85_2 1_555 1_555
C73_2 C74_2 1_555 1_555
C77_2 C85_2 1_555 1_555
C79_2 C80_2 1_555 1_555
C79_2 C81_2 1_555 1_555
H11_5 C23_5 1_555 1_555
O13_3 C30_3 1_555 1_555
O14_3 C30_3 1_555 1_555
C30_3 C31_3 1_555 1_555
C31_3 C32_3 1_555 1_555
C32_3 H15_3 1_555 1_555
C33_3 C31_3 1_555 1_555
H16_3 C33_3 1_555 1_555
C34_3 C23_5 1_555 1_555
H17_5 C23_5 1_555 1_555
O66_2 C38_3 1_555 1_555
O69_2 C38_3 1_555 1_555
C38_3 C39_3 1_555 1_555
C39_3 C32_3 1_555 1_555
C40_3 C34_3 1_555 1_555
H19_3 C40_3 1_555 1_555
Cu15_2 O13_3 1_555 1_555
Cu19_2 O14_3 1_555 1_555
C33_3 C34_3 1_555 1_555
C39_3 C40_3 1_555 1_555
C18_3 O65 1_555 1_555
C19_3 C18_3 1_555 1_555
C20_3 C19_3 1_555 1_555
H9_3 C20_3 1_555 1_555
C21_3 C19_3 1_555 1_555
H10_3 C21_3 1_555 1_555
C22_3 C21_3 1_555 1_555
C23_6 C22_3 1_555 1_555
H11_6 C23_6 1_555 1_555
H17_6 C23_6 1_555 1_555
O15_3 C35_3 1_555 1_555
O16_3 C35_3 1_555 1_555
C35_3 C36_3 1_555 1_555
C36_3 C20_3 1_555 1_555
C37_3 C22_3 1_555 1_555
H18_3 C37_3 1_555 1_555
O53_2 C100_2 1_555 1_555
O56_2 C100_2 1_555 1_555
O45_2 C101_2 1_555 1_555
O46_2 C101_2 1_555 1_555
O62_2 C102_2 1_555 1_555
O64_2 C102_2 1_555 1_555
C86_2 C87_2 1_555 1_555
C87_2 H41_2 1_555 1_555
C88_2 C87_2 1_555 1_555
C89_2 C88_2 1_555 1_555
H42_2 C89_2 1_555 1_555
C90_2 C89_2 1_555 1_555
C91_2 C86_2 1_555 1_555
H43_2 C91_2 1_555 1_555
C92_2 C93_2 1_555 1_555
C93_2 H44_2 1_555 1_555
C94_2 C93_2 1_555 1_555
C95_2 C94_2 1_555 1_555
H45_2 C95_2 1_555 1_555
C96_2 C95_2 1_555 1_555
C97_2 C92_2 1_555 1_555
H46_2 C97_2 1_555 1_555
C98_2 C90_2 1_555 1_555
H47_2 C98_2 1_555 1_555
H48_2 C98_2 1_555 1_555
C99_2 O49 1_555 1_555
C100_2 C88_2 1_555 1_555
C101_2 C92_2 1_555 1_555
C102_2 C94_2 1_555 1_555
Cu14_2 O15_3 1_555 1_555
Cu18_2 O16_3 1_555 1_555
Cu29_2 O45_2 1_555 1_555
Cu32_2 O46_2 1_555 1_555
O68 C18_3 1_555 1_555
C36_3 C37_3 1_555 1_555
O50 C99_2 1_555 1_555
C86_2 C99_2 1_555 1_555
C90_2 C91_2 1_555 1_555
C96_2 C97_2 1_555 1_555
C96_2 C98_2 1_555 1_555
O49_3 Cu15_3 1_555 1_555
O50_3 Cu19_3 1_555 1_555
O65_3 Cu15_3 1_555 1_555
O68_3 Cu19_3 1_555 1_555
O41_2 Cu14 1_555 1_555
O42_2 Cu18 1_555 1_555
O43_2 C100_3 1_555 1_555
O44_2 C100_3 1_555 1_555
O57_2 C101_3 1_555 1_555
O59_2 C101_3 1_555 1_555
O47_2 C102_3 1_555 1_555
O48_2 C102_3 1_555 1_555
C86_3 C87_3 1_555 1_555
C87_3 H41_3 1_555 1_555
C88_3 C87_3 1_555 1_555
C89_3 C88_3 1_555 1_555
H42_3 C89_3 1_555 1_555
C90_3 C89_3 1_555 1_555
C91_3 C86_3 1_555 1_555
H43_3 C91_3 1_555 1_555
C92_3 C93_3 1_555 1_555
C93_3 H44_3 1_555 1_555
C94_3 C93_3 1_555 1_555
C95_3 C94_3 1_555 1_555
H45_3 C95_3 1_555 1_555
C96_3 C95_3 1_555 1_555
C97_3 C92_3 1_555 1_555
H46_3 C97_3 1_555 1_555
C98_3 C90_3 1_555 1_555
H47_3 C98_3 1_555 1_555
H48_3 C98_3 1_555 1_555
C99_3 O41_2 1_555 1_555
C100_3 C88_3 1_555 1_555
C101_3 C92_3 1_555 1_555
C102_3 C94_3 1_555 1_555
Cu23 O43_2 1_555 1_555
Cu26 O44_2 1_555 1_555
Cu34_2 O48_2 1_555 1_555
Cu36_2 O47_2 1_555 1_555
O42_2 C99_3 1_555 1_555
C86_3 C99_3 1_555 1_555
C90_3 C91_3 1_555 1_555
C96_3 C97_3 1_555 1_555
C96_3 C98_3 1_555 1_555
Cu34_2 Cu36_2 1_555 1_555
H14_5 C29_5 1_555 1_555
O19_3 C41_3 1_555 1_555
O20_3 C41_3 1_555 1_555
C41_3 C42_3 1_555 1_555
C42_3 C43_3 1_555 1_555
C43_3 H20_3 1_555 1_555
C44_3 C42_3 1_555 1_555
H21_3 C44_3 1_555 1_555
C45_3 C29_5 1_555 1_555
H22_5 C29_5 1_555 1_555
O72_2 C49_3 1_555 1_555
O74_2 C49_3 1_555 1_555
C49_3 C50_3 1_555 1_555
C50_3 C43_3 1_555 1_555
C51_3 C45_3 1_555 1_555
H24_3 C51_3 1_555 1_555
Cu19_4 O26_3 1_555 1_555
Cu27 O19_3 1_555 1_555
Cu30 O20_3 1_555 1_555
O25_3 Cu15_4 1_555 1_555
O26_3 C65_3 1_555 1_555
O51_3 C66_3 1_555 1_555
O54_3 C66_3 1_555 1_555
O29_3 Cu27 1_555 1_555
O30_3 Cu30 1_555 1_555
O31 C68_3 1_555 1_555
O32 C68_3 1_555 1_555
C52_3 C53_3 1_555 1_555
C53_3 H25_3 1_555 1_555
C54_3 C53_3 1_555 1_555
C55_3 C54_3 1_555 1_555
H26_3 C55_3 1_555 1_555
C56_3 C55_3 1_555 1_555
C57_3 C52_3 1_555 1_555
H27_3 C57_3 1_555 1_555
C58_3 C59_3 1_555 1_555
C59_3 H28_3 1_555 1_555
C60_3 C59_3 1_555 1_555
C61_3 C60_3 1_555 1_555
H29_3 C61_3 1_555 1_555
C62_3 C61_3 1_555 1_555
C63_3 C58_3 1_555 1_555
H30_3 C63_3 1_555 1_555
C64_3 C56_3 1_555 1_555
H31_3 C64_3 1_555 1_555
H32_3 C64_3 1_555 1_555
C65_3 O25_3 1_555 1_555
C66_3 C54_3 1_555 1_555
C67_3 O29_3 1_555 1_555
C68_3 C60_3 1_555 1_555
Cu33 O32 1_555 1_555
Cu35 O31 1_555 1_555
C44_3 C45_3 1_555 1_555
C50_3 C51_3 1_555 1_555
O30_3 C67_3 1_555 1_555
C52_3 C65_3 1_555 1_555
C56_3 C57_3 1_555 1_555
C58_3 C67_3 1_555 1_555
C62_3 C63_3 1_555 1_555
C62_3 C64_3 1_555 1_555
Cu33 Cu35 1_555 1_555
Cu18_2 O2_3 1_555 1_555
Cu32_2 O6_3 1_555 1_555
Cu35 O7_3 1_555 1_555
O1_3 Cu14_2 1_555 1_555
O2_3 C14_3 1_555 1_555
O54_2 C15_3 1_555 1_555
O5_3 Cu29_2 1_555 1_555
O6_3 C16_3 1_555 1_555
O7_3 C17_3 1_555 1_555
O8_3 Cu33 1_555 1_555
C1_3 C2_3 1_555 1_555
C2_3 H1_3 1_555 1_555
C3_3 C2_3 1_555 1_555
C4_3 C3_3 1_555 1_555
H2_3 C4_3 1_555 1_555
C5_3 C4_3 1_555 1_555
C6_3 C1_3 1_555 1_555
H3_3 C6_3 1_555 1_555
C7_3 C8_3 1_555 1_555
C8_3 H4_3 1_555 1_555
C9_3 C8_3 1_555 1_555
C10_3 C9_3 1_555 1_555
H5_3 C10_3 1_555 1_555
C11_3 C10_3 1_555 1_555
C12_3 C7_3 1_555 1_555
H6_3 C12_3 1_555 1_555
C13_3 C5_3 1_555 1_555
H7_3 C13_3 1_555 1_555
H8_3 C13_3 1_555 1_555
C14_3 O1_3 1_555 1_555
C15_3 O51_2 1_555 1_555
C16_3 O5_3 1_555 1_555
C17_3 O8_3 1_555 1_555
O11_3 Cu29_2 1_555 1_555
O12_3 Cu32_2 1_555 1_555
C24_3 O11_3 1_555 1_555
C25_3 C24_3 1_555 1_555
C26_3 C25_3 1_555 1_555
H12_3 C26_3 1_555 1_555
C27_3 C25_3 1_555 1_555
H13_3 C27_3 1_555 1_555
C28_3 C27_3 1_555 1_555
C29_6 C28_3 1_555 1_555
H14_6 C29_6 1_555 1_555
H22_6 C29_6 1_555 1_555
O71 C46_3 1_555 1_555
O73 C46_3 1_555 1_555
C46_3 C47_3 1_555 1_555
C47_3 C26_3 1_555 1_555
C48_3 C28_3 1_555 1_555
H23_3 C48_3 1_555 1_555
O33_2 C82_3 1_555 1_555
O34_2 C82_3 1_555 1_555
O52_3 C83_3 1_555 1_555
O55_3 C83_3 1_555 1_555
O57 C84_3 1_555 1_555
O59 C84_3 1_555 1_555
O39_2 Cu35 1_555 1_555
O40_2 Cu33 1_555 1_555
C69_3 C70_3 1_555 1_555
C70_3 H33_3 1_555 1_555
C71_3 C70_3 1_555 1_555
C72_3 C71_3 1_555 1_555
H34_3 C72_3 1_555 1_555
C73_3 C72_3 1_555 1_555
C74_3 C69_3 1_555 1_555
H35_3 C74_3 1_555 1_555
C75_3 C76_3 1_555 1_555
C76_3 H36_3 1_555 1_555
C77_3 C76_3 1_555 1_555
C78_3 C77_3 1_555 1_555
H37_3 C78_3 1_555 1_555
C79_3 C78_3 1_555 1_555
C80_3 C75_3 1_555 1_555
H38_3 C80_3 1_555 1_555
C81_3 C73_3 1_555 1_555
H39_3 C81_3 1_555 1_555
H40_3 C81_3 1_555 1_555
C82_3 C69_3 1_555 1_555
C83_3 C71_3 1_555 1_555
C84_3 C75_3 1_555 1_555
C85_3 O39_2 1_555 1_555
Cu14_4 O33_2 1_555 1_555
Cu18_4 O34_2 1_555 1_555
O62_3 Cu35 1_555 1_555
O64_3 Cu33 1_555 1_555
C1_3 C14_3 1_555 1_555
C3_3 C15_3 1_555 1_555
C5_3 C6_3 1_555 1_555
C7_3 C16_3 1_555 1_555
C9_3 C17_3 1_555 1_555
C11_3 C12_3 1_555 1_555
C11_3 C13_3 1_555 1_555
O12_3 C24_3 1_555 1_555
C47_3 C48_3 1_555 1_555
O40_2 C85_3 1_555 1_555
C73_3 C74_3 1_555 1_555
C77_3 C85_3 1_555 1_555
C79_3 C80_3 1_555 1_555
C79_3 C81_3 1_555 1_555
C18_4 O65_3 1_555 1_555
C19_4 C18_4 1_555 1_555
C20_4 C19_4 1_555 1_555
H9_4 C20_4 1_555 1_555
C21_4 C19_4 1_555 1_555
H10_4 C21_4 1_555 1_555
C22_4 C21_4 1_555 1_555
C23_7 C22_4 1_555 1_555
H11_7 C23_7 1_555 1_555
H17_7 C23_7 1_555 1_555
O66 C35_4 1_555 1_555
O69 C35_4 1_555 1_555
C35_4 C36_4 1_555 1_555
C36_4 C20_4 1_555 1_555
C37_4 C22_4 1_555 1_555
H18_4 C37_4 1_555 1_555
O52 C100_4 1_555 1_555
O55 C100_4 1_555 1_555
O58 C101_4 1_555 1_555
O60 C101_4 1_555 1_555
O47_3 C102_4 1_555 1_555
O48_3 C102_4 1_555 1_555
C86_4 C87_4 1_555 1_555
C87_4 H41_4 1_555 1_555
C88_4 C87_4 1_555 1_555
C89_4 C88_4 1_555 1_555
H42_4 C89_4 1_555 1_555
C90_4 C89_4 1_555 1_555
C91_4 C86_4 1_555 1_555
H43_4 C91_4 1_555 1_555
C92_4 C93_4 1_555 1_555
C93_4 H44_4 1_555 1_555
C94_4 C93_4 1_555 1_555
C95_4 C94_4 1_555 1_555
H45_4 C95_4 1_555 1_555
C96_4 C95_4 1_555 1_555
C97_4 C92_4 1_555 1_555
H46_4 C97_4 1_555 1_555
C98_4 C90_4 1_555 1_555
H47_4 C98_4 1_555 1_555
H48_4 C98_4 1_555 1_555
C99_4 O49_3 1_555 1_555
C100_4 C88_4 1_555 1_555
C101_4 C92_4 1_555 1_555
C102_4 C94_4 1_555 1_555
Cu34_2 O48_3 1_555 1_555
Cu36_2 O47_3 1_555 1_555
O68_3 C18_4 1_555 1_555
C36_4 C37_4 1_555 1_555
O50_3 C99_4 1_555 1_555
C86_4 C99_4 1_555 1_555
C90_4 C91_4 1_555 1_555
C96_4 C97_4 1_555 1_555
C96_4 C98_4 1_555 1_555
H11_8 C23_8 1_555 1_555
O65_2 C30_4 1_555 1_555
O68_2 C30_4 1_555 1_555
C30_4 C31_4 1_555 1_555
C31_4 C32_4 1_555 1_555
C32_4 H15_4 1_555 1_555
C33_4 C31_4 1_555 1_555
H16_4 C33_4 1_555 1_555
C34_4 C23_8 1_555 1_555
H17_8 C23_8 1_555 1_555
O17_2 C38_4 1_555 1_555
O18_2 C38_4 1_555 1_555
C38_4 C39_4 1_555 1_555
C39_4 C32_4 1_555 1_555
C40_4 C34_4 1_555 1_555
H19_4 C40_4 1_555 1_555
Cu14_3 O17_2 1_555 1_555
Cu18_3 O18_2 1_555 1_555
C33_4 C34_4 1_555 1_555
C39_4 C40_4 1_555 1_555
O33_3 C82_4 1_555 1_555
O34_3 C82_4 1_555 1_555
O52_2 C83_4 1_555 1_555
O55_2 C83_4 1_555 1_555
O58_2 C84_4 1_555 1_555
O60_2 C84_4 1_555 1_555
C69_4 C70_4 1_555 1_555
C70_4 H33_4 1_555 1_555
C71_4 C70_4 1_555 1_555
C72_4 C71_4 1_555 1_555
H34_4 C72_4 1_555 1_555
C73_4 C72_4 1_555 1_555
C74_4 C69_4 1_555 1_555
H35_4 C74_4 1_555 1_555
C75_4 C76_4 1_555 1_555
C76_4 H36_4 1_555 1_555
C77_4 C76_4 1_555 1_555
C78_4 C77_4 1_555 1_555
H37_4 C78_4 1_555 1_555
C79_4 C78_4 1_555 1_555
C80_4 C75_4 1_555 1_555
H38_4 C80_4 1_555 1_555
C81_4 C73_4 1_555 1_555
H39_4 C81_4 1_555 1_555
H40_4 C81_4 1_555 1_555
C82_4 C69_4 1_555 1_555
C83_4 C71_4 1_555 1_555
C84_4 C75_4 1_555 1_555
C85_4 O62_3 1_555 1_555
Cu15_2 O33_3 1_555 1_555
Cu19_2 O34_3 1_555 1_555
O64_3 C85_4 1_555 1_555
C73_4 C74_4 1_555 1_555
C77_4 C85_4 1_555 1_555
C79_4 C80_4 1_555 1_555
C79_4 C81_4 1_555 1_555
Cu19 O2_4 1_555 1_555
Cu26 O4_3 1_555 1_555
Cu31 O6_4 1_555 1_555
Cu36_2 O7_4 1_555 1_555
O1_4 Cu15 1_555 1_555
O2_4 C14_4 1_555 1_555
O3_3 Cu23 1_555 1_555
O4_3 C15_4 1_555 1_555
O5_4 Cu28 1_555 1_555
O6_4 C16_4 1_555 1_555
O7_4 C17_4 1_555 1_555
O8_4 Cu34_2 1_555 1_555
C1_4 C2_4 1_555 1_555
C2_4 H1_4 1_555 1_555
C3_4 C2_4 1_555 1_555
C4_4 C3_4 1_555 1_555
H2_4 C4_4 1_555 1_555
C5_4 C4_4 1_555 1_555
C6_4 C1_4 1_555 1_555
H3_4 C6_4 1_555 1_555
C7_4 C8_4 1_555 1_555
C8_4 H4_4 1_555 1_555
C9_4 C8_4 1_555 1_555
C10_4 C9_4 1_555 1_555
H5_4 C10_4 1_555 1_555
C11_4 C10_4 1_555 1_555
C12_4 C7_4 1_555 1_555
H6_4 C12_4 1_555 1_555
C13_4 C5_4 1_555 1_555
H7_4 C13_4 1_555 1_555
H8_4 C13_4 1_555 1_555
C14_4 O1_4 1_555 1_555
C15_4 O3_3 1_555 1_555
C16_4 O5_4 1_555 1_555
C17_4 O8_4 1_555 1_555
O11_4 Cu28 1_555 1_555
O12_4 Cu31 1_555 1_555
C24_4 O11_4 1_555 1_555
C25_4 C24_4 1_555 1_555
C26_4 C25_4 1_555 1_555
H12_4 C26_4 1_555 1_555
C27_4 C25_4 1_555 1_555
H13_4 C27_4 1_555 1_555
C28_4 C27_4 1_555 1_555
C29_7 C28_4 1_555 1_555
H14_7 C29_7 1_555 1_555
H22_7 C29_7 1_555 1_555
O72 C46_4 1_555 1_555
O74 C46_4 1_555 1_555
C46_4 C47_4 1_555 1_555
C47_4 C26_4 1_555 1_555
C48_4 C28_4 1_555 1_555
H23_4 C48_4 1_555 1_555
O61_3 Cu36_2 1_555 1_555
O63_3 Cu34_2 1_555 1_555
C1_4 C14_4 1_555 1_555
C3_4 C15_4 1_555 1_555
C5_4 C6_4 1_555 1_555
C7_4 C16_4 1_555 1_555
C9_4 C17_4 1_555 1_555
C11_4 C12_4 1_555 1_555
C11_4 C13_4 1_555 1_555
O12_4 C24_4 1_555 1_555
C47_4 C48_4 1_555 1_555
H14_8 C29_8 1_555 1_555
O19_4 C41_4 1_555 1_555
O20_4 C41_4 1_555 1_555
C41_4 C42_4 1_555 1_555
C42_4 C43_4 1_555 1_555
C43_4 H20_4 1_555 1_555
C44_4 C42_4 1_555 1_555
H21_4 C44_4 1_555 1_555
C45_4 C29_8 1_555 1_555
H22_8 C29_8 1_555 1_555
O71_2 C49_4 1_555 1_555
O73_2 C49_4 1_555 1_555
C49_4 C50_4 1_555 1_555
C50_4 C43_4 1_555 1_555
C51_4 C45_4 1_555 1_555
H24_4 C51_4 1_555 1_555
Cu18_3 O26_4 1_555 1_555
Cu29 O19_4 1_555 1_555
Cu32 O20_4 1_555 1_555
O25_4 Cu14_3 1_555 1_555
O26_4 C65_4 1_555 1_555
O51 C66_4 1_555 1_555
O54 C66_4 1_555 1_555
O29_4 Cu29 1_555 1_555
O30_4 Cu32 1_555 1_555
O61_3 C68_4 1_555 1_555
O63_3 C68_4 1_555 1_555
C52_4 C53_4 1_555 1_555
C53_4 H25_4 1_555 1_555
C54_4 C53_4 1_555 1_555
C55_4 C54_4 1_555 1_555
H26_4 C55_4 1_555 1_555
C56_4 C55_4 1_555 1_555
C57_4 C52_4 1_555 1_555
H27_4 C57_4 1_555 1_555
C58_4 C59_4 1_555 1_555
C59_4 H28_4 1_555 1_555
C60_4 C59_4 1_555 1_555
C61_4 C60_4 1_555 1_555
H29_4 C61_4 1_555 1_555
C62_4 C61_4 1_555 1_555
C63_4 C58_4 1_555 1_555
H30_4 C63_4 1_555 1_555
C64_4 C56_4 1_555 1_555
H31_4 C64_4 1_555 1_555
H32_4 C64_4 1_555 1_555
C65_4 O25_4 1_555 1_555
C66_4 C54_4 1_555 1_555
C67_4 O29_4 1_555 1_555
C68_4 C60_4 1_555 1_555
C44_4 C45_4 1_555 1_555
C50_4 C51_4 1_555 1_555
O30_4 C67_4 1_555 1_555
C52_4 C65_4 1_555 1_555
C56_4 C57_4 1_555 1_555
C58_4 C67_4 1_555 1_555
C62_4 C63_4 1_555 1_555
C62_4 C64_4 1_555 1_555

#END
