
###############################################################################
#
# This file contains modified crystal structure data generated from the
# MOF subset of the Cambridge Structural Database (CSD) v543 
# hosted by the Cambridge Crystallographic Data Centre (CCDC).
#
# This work is licensed under the Creative Commons
# Attribution-NonCommercial-ShareAlike 4.0 International License.
# To view a copy of this license, visit
# http://creativecommons.org/licenses/by-nc-sa/4.0/
# or send a letter to
# Creative Commons, PO Box 1866, Mountain View, CA 94042, USA.
#
# CIF created using the CSD Python API on 29 September 2022
# The structure has been converted into the P1 space group
# The structure has a 3D framework
# The original CSD entry HEJNIW is in the monoclinic crystal system
# The framework has been calculated to contain at least 10.0% void space
# The void calculation uses a probe of radius 1.32A, grid spacing 0.4
# H atom positions have been added when not included in the experimental data
#
###############################################################################

data_HEJNIW
_chemical_formula_moiety         '(C408 H432 N32 O70 Pb24)n'
_symmetry_cell_setting           triclinic
_symmetry_space_group_name_H-M   'P 1'
_symmetry_Int_Tables_number      1
_space_group_name_Hall           'P 1'
loop_
_symmetry_equiv_pos_site_id
_symmetry_equiv_pos_as_xyz
1 x,y,z
_cell_length_a                   29.2828(5)
_cell_length_b                   12.1772(2)
_cell_length_c                   34.9615(5)
_cell_angle_alpha                90
_cell_angle_beta                 92.2230(10)
_cell_angle_gamma                90
_cell_volume                     12457.3
loop_
_atom_site_label
_atom_site_type_symbol
_atom_site_fract_x
_atom_site_fract_y
_atom_site_fract_z
H9 H 0.0116 0.0133 0.1305
H10 H 0.0501 0.0467 0.1608
H44 H 0.0795 0.0124 0.1024
Pb1 Pb 0.02972(2) 0.87825(2) 0.02866(2)
Pb2 Pb 0.11394(2) 0.64229(2) 0.04229(2)
Pb3 Pb 0.01520(2) 0.73223(2) 0.11897(2)
N2 N 0.0240(2) 0.8932(7) 0.17080(16)
N4 N 0.1861(3) 0.7599(7) 0.0597(2)
O7 O 0.06046(18) 0.8602(4) 0.09638(12)
O8 O 0.10395(15) 0.8042(4) 0.01566(12)
O9 O 0.02846(15) 0.7002(3) 0.04919(13)
C9 C 0.2300(4) 0.7100(12) 0.0518(4)
H6 H 0.2351 0.6477 0.0682
H7 H 0.2298 0.6867 0.0255
H8 H 0.2539 0.7628 0.0564
C10 C 0.0381(4) 0.9867(10) 0.1451(3)
C11 C 0.0557(6) 0.8780(15) 0.2028(4)
H11 H 0.0855 0.8618 0.1937
H12 H 0.0572 0.9439 0.2179
H13 H 0.0457 0.8181 0.2183
C16 C 0.1809(7) 0.8490(15) 0.0351(6)
H25 H 0.2069 0.8889 0.0295
C18 C 0.1856(6) 0.7944(17) 0.0982(4)
H26 H 0.1892 0.7318 0.1148
H27 H 0.2103 0.8450 0.1033
H28 H 0.1571 0.8299 0.1028
C43 C 0.0726(4) 0.9515(8) 0.1191(2)
H45 H 0.1004 0.9341 0.1340
C46 C 0.1398(3) 0.8821(9) 0.0183(3)
H47 H 0.1357 0.9532 0.0090
H52 H 0.0152 0.5784 0.0141
O10 O 0.0763(4) 0.6007(8) 0.1199(3)
O11 O 0.0768(5) 0.6498(8) 0.1779(4)
H53 H 0.17527 0.902586 0.0594054
C1 C 0.1559(2) 0.1522(5) 0.19644(17)
C4 C 0.1383(3) 0.2627(5) 0.18528(19)
C5 C 0.1403(3) 0.3505(6) 0.2109(2)
H3 H 0.1526 0.3401 0.2355
C6 C 0.1240(4) 0.4540(7) 0.1998(3)
H4 H 0.1257 0.5115 0.2173
C8 C 0.0864(5) 0.5841(11) 0.1531(4)
C23 C 0.1574(3) 0.1161(5) 0.23420(16)
H32 H 0.1472 0.1626 0.2532
C30 C 0.1737(2) 0.0121(5) 0.24439(16)
C34 C 0.1049(4) 0.3894(10) 0.1388(3)
H37 H 0.0942 0.4028 0.1138
C39 C 0.1200(4) 0.2825(9) 0.1493(2)
H40 H 0.1174 0.2254 0.1316
C40 C 0.1717(2) 0.0802(5) 0.16939(16)
H41 H 0.1715 0.1020 0.1439
C44 C 0.1059(3) 0.4725(8) 0.1647(3)
N1 N 0.2068(2) 0.1626(5) 0.72646(15)
O1 O 0.09213(19) 0.5643(5) 0.97785(17)
O2 O 0.1653(2) 0.6024(5) 0.98736(15)
O5 O 0.4552(3) 0.4842(8) 0.5427(2)
O6 O 0.4543(2) 0.6302(5) 0.57803(18)
C2 C 0.1513(3) 0.2404(8) 0.7688(2)
H1 H 0.1278 0.2188 0.7518
C3 C 0.1198(3) 0.3898(9) 0.8776(3)
H2 H 0.0969 0.3488 0.8652
C7 C 0.3793(3) 0.5465(6) 0.61829(18)
H5 H 0.3871 0.6194 0.6230
H22 H 0.0261 0.6870 0.9576
H24 H 0.0050 0.7841 0.9333
C17 C 0.4398(3) 0.5379(7) 0.5686(2)
C19 C 0.2284(3) 0.2425(9) 0.7878(2)
H29 H 0.2585 0.2233 0.7836
C20 C 0.1877(2) 0.0225(5) 0.67897(15)
H30 H 0.1972 0.0692 0.6598
C21 C 0.4007(2) 0.4897(6) 0.59045(16)
C22 C 0.2324(3) 0.3275(6) 0.69466(19)
H31 H 0.2074 0.3648 0.7040
C24 C 0.2627(3) 0.3831(6) 0.67219(19)
H33 H 0.2580 0.4572 0.6668
C25 C 0.1334(2) 0.5615(5) 0.9672(2)
C26 C 0.3339(2) 0.3866(5) 0.63320(17)
C27 C 0.1636(2) 0.3900(5) 0.86360(17)
C28 C 0.2759(2) 0.1632(6) 0.6892(2)
H34 H 0.2806 0.0894 0.6950
C29 C 0.2385(2) 0.2180(5) 0.70344(16)
H35 H 0.1736 0.0103 0.7698
C31 C 0.1950(2) 0.2153(5) 0.76133(17)
C32 C 0.1899(2) 0.0580(5) 0.71672(15)
C33 C 0.2183(3) 0.2982(8) 0.8209(2)
H36 H 0.2418 0.3162 0.8385
C35 C 0.1436(2) 0.5047(5) 0.93067(19)
C36 C 0.1741(2) 0.3275(5) 0.82833(17)
C37 C 0.3457(2) 0.4965(5) 0.63996(18)
H38 H 0.3313 0.5363 0.6588
C38 C 0.3064(2) 0.2180(6) 0.66642(19)
H39 H 0.3311 0.1801 0.6570
C41 C 0.1874(3) 0.5068(7) 0.9172(2)
H42 H 0.2104 0.5457 0.9303
C42 C 0.1098(3) 0.4499(10) 0.9098(3)
H43 H 0.0798 0.4534 0.9176
C45 C 0.3877(2) 0.3806(6) 0.58256(19)
H46 H 0.4016 0.3418 0.5633
C47 C 0.3544(2) 0.3313(6) 0.60353(19)
H48 H 0.3454 0.2597 0.5977
C48 C 0.1968(2) 0.4505(7) 0.8838(2)
H49 H 0.2262 0.4533 0.8747
C49 C 0.3005(2) 0.3287(6) 0.65737(16)
C50 C 0.1412(3) 0.2985(9) 0.8016(2)
H50 H 0.1110 0.3182 0.8055
Pb4 Pb 0.47028(2) 0.37825(2) 0.47134(2)
Pb5 Pb 0.52972(2) 0.62175(2) 0.52866(2)
Pb7 Pb 0.51520(2) 0.76777(2) 0.61897(2)
O12 O 0.0448(3) 0.9842(8) 0.9573(2)
H54 H 0.151296 0.855961 0.990482
O13 O 0.9552(3) 0.0158(8) 0.0427(2)
C12 C 0.9803(4) 0.9170(13) 0.1848(4)
H14 H 0.9589 0.9273 0.1636
H15 H 0.9705 0.8571 0.2003
H16 H 0.9820 0.9828 0.1999
C13 C 0.9601(4) 0.6728(7) 0.0095(4)
H17 H 0.9387 0.7034 0.0272
C51 C 0.9980(3) 0.6241(6) 0.0312(2)
H51 H 0.9860 0.5766 0.0506
O14 O 0.9543(2) 0.8698(5) 0.07803(18)
O3 O 0.5763(4) 0.8993(8) 0.6199(3)
O4 O 0.5768(5) 0.8502(8) 0.6779(4)
H4_2 H 0.6257 0.9885 0.7173
C8_2 C 0.5864(5) 0.9159(11) 0.6531(4)
Pb2_2 Pb 0.38606(2) 0.14229(2) 0.45771(2)
Pb3_2 Pb 0.48480(2) 0.23223(2) 0.38103(2)
N2_2 N 0.4760(2) 0.3932(7) 0.32920(16)
N3 N 0.5251(2) 0.2618(5) 0.5172(2)
N4_2 N 0.3139(3) 0.2599(7) 0.4403(2)
O1_2 O 0.40787(19) 0.0643(5) 0.52215(17)
O2_2 O 0.3347(2) 0.1024(5) 0.51264(15)
O6_2 O 0.0457(2) 0.1302(5) 0.92197(18)
O7_2 O 0.43954(18) 0.3602(4) 0.40362(12)
O8_2 O 0.39605(15) 0.3042(4) 0.48434(12)
O9_2 O 0.47154(15) 0.2002(3) 0.45081(13)
C7_2 C 0.1207(3) 0.0465(6) 0.88171(18)
H5_2 H 0.1129 0.1194 0.8770
C9_2 C 0.2700(4) 0.2100(12) 0.4482(4)
H6_2 H 0.2649 0.1477 0.4318
H7_2 H 0.2702 0.1867 0.4745
H8_2 H 0.2461 0.2628 0.4436
C10_2 C 0.4619(4) 0.4867(10) 0.3549(3)
H9_2 H 0.4884 0.5133 0.3695
H10_2 H 0.4499 0.5467 0.3392
C11_2 C 0.4443(6) 0.3780(15) 0.2972(4)
H11_2 H 0.4145 0.3618 0.3063
H12_2 H 0.4428 0.4439 0.2821
H13_2 H 0.4543 0.3181 0.2817
C12_2 C 0.5197(4) 0.4170(13) 0.3152(4)
H14_2 H 0.5411 0.4273 0.3364
H15_2 H 0.5295 0.3571 0.2997
H16_2 H 0.5180 0.4828 0.3001
C13_2 C 0.5399(4) 0.1728(7) 0.4905(4)
H17_2 H 0.5613 0.2034 0.4728
H18 H 0.5557 0.1160 0.5052
C14 C 0.5673(4) 0.3165(9) 0.5276(4)
H19 H 0.5817 0.3409 0.5049
H20 H 0.5612 0.3786 0.5435
H21 H 0.5873 0.2665 0.5414
C15 C 0.5018(5) 0.2229(14) 0.5505(4)
H22_2 H 0.4739 0.1870 0.5424
H23 H 0.5211 0.1720 0.5645
H24_2 H 0.4950 0.2841 0.5667
C16_2 C 0.3191(7) 0.3490(15) 0.4649(6)
H25_2 H 0.2931 0.3889 0.4705
C17_2 C 0.0602(3) 0.0379(7) 0.9314(2)
C18_2 C 0.3144(6) 0.2944(17) 0.4018(4)
H26_2 H 0.3108 0.2318 0.3852
H27_2 H 0.2897 0.3450 0.3967
H28_2 H 0.3429 0.3299 0.3972
C25_2 C 0.3666(2) 0.0615(5) 0.5328(2)
C35_2 C 0.3564(2) 0.0047(5) 0.56933(19)
H38_2 H 0.1687 0.0363 0.8412
C41_2 C 0.3126(3) 0.0068(7) 0.5828(2)
H42_2 H 0.2896 0.0457 0.5697
C43_2 C 0.4274(4) 0.4515(8) 0.3809(2)
H44_2 H 0.4205 0.5124 0.3976
H45_2 H 0.3996 0.4341 0.3660
C46_2 C 0.3602(3) 0.3821(9) 0.4817(3)
H47_2 H 0.3643 0.4532 0.4910
C51_2 C 0.5020(3) 0.1241(6) 0.4688(2)
H51_2 H 0.5140 0.0766 0.4494
H52_2 H 0.4848 0.0784 0.4859
O10_2 O 0.4237(4) 0.1007(8) 0.3801(3)
O11_2 O 0.4232(5) 0.1498(8) 0.3221(4)
O13_2 O 0.5448(3) 0.5158(8) 0.4573(2)
O14_2 O 0.5457(2) 0.3698(5) 0.42197(18)
H53_2 H 0.32473 0.402586 0.440595
H54_2 H 0.348704 0.355961 0.509518
N1_2 N 0.2932(2) 0.6626(5) 0.77354(15)
C1_2 C 0.3441(2) 0.3478(5) 0.80356(17)
C2_2 C 0.3487(3) 0.7404(8) 0.7312(2)
H1_2 H 0.3722 0.7188 0.7482
C3_2 C 0.3802(3) 0.8898(9) 0.6224(3)
H2_2 H 0.4031 0.8488 0.6348
C4_2 C 0.3617(3) 0.2373(5) 0.81472(19)
C5_2 C 0.3597(3) 0.1495(6) 0.7891(2)
H3_2 H 0.3474 0.1599 0.7645
C6_2 C 0.3760(4) 0.0460(7) 0.8002(3)
C19_2 C 0.2716(3) 0.7425(9) 0.7122(2)
H29_2 H 0.2415 0.7233 0.7164
C20_2 C 0.3123(2) 0.5225(5) 0.82103(15)
H30_2 H 0.3028 0.5692 0.8402
C21_2 C 0.0993(2) 0.9897(6) 0.90955(16)
C22_2 C 0.2676(3) 0.8275(6) 0.80534(19)
H31_2 H 0.2926 0.8648 0.7960
C23_2 C 0.3426(3) 0.3839(5) 0.76580(16)
H32_2 H 0.3528 0.3374 0.7468
C24_2 C 0.2373(3) 0.8831(6) 0.82781(19)
H33_2 H 0.2420 0.9572 0.8332
C26_2 C 0.1661(2) 0.8866(5) 0.86680(17)
C27_2 C 0.3364(2) 0.8900(5) 0.63640(17)
C28_2 C 0.2241(2) 0.6632(6) 0.8108(2)
H34_2 H 0.2194 0.5894 0.8050
C29_2 C 0.2615(2) 0.7180(5) 0.79656(16)
C30_2 C 0.3263(2) 0.4879(5) 0.75561(16)
H35_2 H 0.3264 0.5103 0.7302
C31_2 C 0.3050(2) 0.7153(5) 0.73867(17)
C32_2 C 0.3101(2) 0.5580(5) 0.78328(15)
C33_2 C 0.2817(3) 0.7982(8) 0.6791(2)
H36_2 H 0.2582 0.8162 0.6615
C34_2 C 0.3951(4) 0.1106(10) 0.8612(3)
H37_2 H 0.4058 0.0972 0.8862
C36_2 C 0.3259(2) 0.8275(5) 0.67167(17)
C37_2 C 0.1543(2) 0.9965(5) 0.86004(18)
C38_2 C 0.1936(2) 0.7180(6) 0.83358(19)
H39_2 H 0.1689 0.6801 0.8430
C39_2 C 0.3800(4) 0.2175(9) 0.8507(2)
H40_2 H 0.3826 0.2746 0.8684
C40_2 C 0.3283(2) 0.4198(5) 0.83061(16)
H41_2 H 0.3285 0.3980 0.8561
C42_2 C 0.3902(3) 0.9499(10) 0.5902(3)
H43_2 H 0.4202 0.9534 0.5824
C44_2 C 0.3941(3) 0.0275(8) 0.8353(3)
C45_2 C 0.1123(2) 0.8806(6) 0.91744(19)
H46_2 H 0.0984 0.8418 0.9367
C47_2 C 0.1456(2) 0.8313(6) 0.89647(19)
H48_2 H 0.1546 0.7597 0.9023
C48_2 C 0.3032(2) 0.9505(7) 0.6162(2)
H49_2 H 0.2738 0.9533 0.6253
C49_2 C 0.1995(2) 0.8287(6) 0.84263(16)
C50_2 C 0.3588(3) 0.7985(9) 0.6984(2)
H50_2 H 0.3890 0.8182 0.6945
C12_3 C 0.0197(4) 0.0830(13) 0.8152(4)
H14_3 H 0.0411 0.0727 0.8364
H15_3 H 0.0295 0.1429 0.7997
H16_3 H 0.0180 0.0172 0.8001
C13_3 C 0.0399(4) 0.3272(7) 0.9905(4)
H17_3 H 0.0613 0.2966 0.9728
C51_3 C 0.0020(3) 0.3759(6) 0.9688(2)
H51_3 H 0.0140 0.4234 0.9494
N1_3 N 0.7932(2) 0.8374(5) 0.27354(15)
O1_3 O 0.90787(19) 0.4357(5) 0.02215(17)
O2_3 O 0.8347(2) 0.3976(5) 0.01264(15)
C2_3 C 0.8487(3) 0.7596(8) 0.2312(2)
H1_3 H 0.8722 0.7812 0.2482
C3_3 C 0.8802(3) 0.6102(9) 0.1224(3)
H2_3 H 0.9031 0.6512 0.1348
C7_3 C 0.6207(3) 0.4535(6) 0.38171(18)
H5_3 H 0.6129 0.3806 0.3770
H22_3 H 0.9739 0.3130 0.0424
H24_3 H 0.9950 0.2159 0.0667
C17_3 C 0.5602(3) 0.4621(7) 0.4314(2)
C19_3 C 0.7716(3) 0.7575(9) 0.2122(2)
H29_3 H 0.7415 0.7767 0.2164
C20_3 C 0.8123(2) 0.9775(5) 0.32103(15)
H30_3 H 0.8028 0.9308 0.3402
C21_3 C 0.5993(2) 0.5103(6) 0.40955(16)
C22_3 C 0.7676(3) 0.6725(6) 0.30534(19)
H31_3 H 0.7926 0.6352 0.2960
C24_3 C 0.7373(3) 0.6169(6) 0.32781(19)
H33_3 H 0.7420 0.5428 0.3332
C25_3 C 0.8666(2) 0.4385(5) 0.0328(2)
C26_3 C 0.6661(2) 0.6134(5) 0.36680(17)
C27_3 C 0.8364(2) 0.6100(5) 0.13640(17)
C28_3 C 0.7241(2) 0.8368(6) 0.3108(2)
H34_3 H 0.7194 0.9106 0.3050
C29_3 C 0.7615(2) 0.7820(5) 0.29656(16)
H35_3 H 0.8264 0.9897 0.2302
C31_3 C 0.8050(2) 0.7847(5) 0.23867(17)
C32_3 C 0.8101(2) 0.9420(5) 0.28328(15)
C33_3 C 0.7817(3) 0.7018(8) 0.1791(2)
H36_3 H 0.7582 0.6838 0.1615
C35_3 C 0.8564(2) 0.4953(5) 0.06933(19)
C36_3 C 0.8259(2) 0.6725(5) 0.17167(17)
C37_3 C 0.6543(2) 0.5035(5) 0.36004(18)
H38_3 H 0.6687 0.4637 0.3412
C38_3 C 0.6936(2) 0.7820(6) 0.33358(19)
H39_3 H 0.6689 0.8199 0.3430
C41_3 C 0.8126(3) 0.4932(7) 0.0828(2)
H42_3 H 0.7896 0.4543 0.0697
C42_3 C 0.8902(3) 0.5501(10) 0.0902(3)
H43_3 H 0.9202 0.5466 0.0824
C45_3 C 0.6123(2) 0.6194(6) 0.41744(19)
H46_3 H 0.5984 0.6582 0.4367
C47_3 C 0.6456(2) 0.6687(6) 0.39647(19)
H48_3 H 0.6546 0.7403 0.4023
C48_3 C 0.8032(2) 0.5495(7) 0.1162(2)
H49_3 H 0.7738 0.5467 0.1253
C49_3 C 0.6995(2) 0.6713(6) 0.34263(16)
C50_3 C 0.8588(3) 0.7015(9) 0.1984(2)
H50_3 H 0.8890 0.6818 0.1945
H54_3 H 0.848704 0.144039 0.00951835
H4_3 H 0.3743 0.0115 0.2827
C8_3 C 0.4136(5) 0.0841(11) 0.3469(4)
N1_4 N 0.7068(2) 0.3374(5) 0.22646(15)
C1_3 C 0.6559(2) 0.6522(5) 0.19644(17)
C2_4 C 0.6513(3) 0.2596(8) 0.2688(2)
H1_4 H 0.6278 0.2812 0.2518
C3_4 C 0.6198(3) 0.1102(9) 0.3776(3)
H2_4 H 0.5969 0.1512 0.3652
C4_3 C 0.6383(3) 0.7627(5) 0.18528(19)
C5_3 C 0.6403(3) 0.8505(6) 0.2109(2)
H3_3 H 0.6526 0.8401 0.2355
C6_3 C 0.6240(4) 0.9540(7) 0.1998(3)
C19_4 C 0.7284(3) 0.2575(9) 0.2878(2)
H29_4 H 0.7585 0.2767 0.2836
C20_4 C 0.6877(2) 0.4775(5) 0.17897(15)
H30_4 H 0.6972 0.4308 0.1598
C21_4 C 0.9007(2) 0.0103(6) 0.09045(16)
C22_4 C 0.7324(3) 0.1725(6) 0.19466(19)
H31_4 H 0.7074 0.1352 0.2040
C23_3 C 0.6574(3) 0.6161(5) 0.23420(16)
H32_3 H 0.6472 0.6626 0.2532
C24_4 C 0.7627(3) 0.1169(6) 0.17219(19)
H33_4 H 0.7580 0.0428 0.1668
C26_4 C 0.8339(2) 0.1134(5) 0.13320(17)
C27_4 C 0.6636(2) 0.1100(5) 0.36360(17)
C28_4 C 0.7759(2) 0.3368(6) 0.1892(2)
H34_4 H 0.7806 0.4106 0.1950
C29_4 C 0.7385(2) 0.2820(5) 0.20344(16)
C30_3 C 0.6737(2) 0.5121(5) 0.24439(16)
H35_4 H 0.6736 0.4897 0.2698
C31_4 C 0.6950(2) 0.2847(5) 0.26133(17)
C32_4 C 0.6899(2) 0.4420(5) 0.21672(15)
C33_4 C 0.7183(3) 0.2018(8) 0.3209(2)
H36_4 H 0.7418 0.1838 0.3385
C34_3 C 0.6049(4) 0.8894(10) 0.1388(3)
H37_3 H 0.5942 0.9028 0.1138
C36_4 C 0.6741(2) 0.1725(5) 0.32833(17)
C37_4 C 0.8457(2) 0.0035(5) 0.13996(18)
C38_4 C 0.8064(2) 0.2820(6) 0.16642(19)
H39_4 H 0.8311 0.3199 0.1570
C39_3 C 0.6200(4) 0.7825(9) 0.1493(2)
H40_3 H 0.6174 0.7254 0.1316
C40_3 C 0.6717(2) 0.5802(5) 0.16939(16)
H41_3 H 0.6715 0.6020 0.1439
C42_4 C 0.6098(3) 0.0501(10) 0.4098(3)
H43_4 H 0.5798 0.0466 0.4176
C44_3 C 0.6059(3) 0.9725(8) 0.1647(3)
C45_4 C 0.8877(2) 0.1194(6) 0.08256(19)
H46_4 H 0.9016 0.1582 0.0633
C47_4 C 0.8544(2) 0.1687(6) 0.10353(19)
H48_4 H 0.8454 0.2403 0.0977
C48_4 C 0.6968(2) 0.0495(7) 0.3838(2)
H49_4 H 0.7262 0.0467 0.3747
C49_4 C 0.8005(2) 0.1713(6) 0.15737(16)
C50_4 C 0.6412(3) 0.2015(9) 0.3016(2)
H50_4 H 0.6110 0.1818 0.3055
Pb2_3 Pb 0.61394(2) 0.85771(2) 0.54229(2)
N2_3 N 0.5240(2) 0.6068(7) 0.67080(16)
N3_2 N 0.4749(2) 0.7382(5) 0.4828(2)
N4_3 N 0.6861(3) 0.7401(7) 0.5597(2)
O1_4 O 0.59213(19) 0.9357(5) 0.47785(17)
O2_4 O 0.6653(2) 0.8976(5) 0.48736(15)
O7_3 O 0.56046(18) 0.6398(4) 0.59638(12)
O8_3 O 0.60395(15) 0.6958(4) 0.51566(12)
O9_3 O 0.52846(15) 0.7998(3) 0.54919(13)
C7_4 C 0.8793(3) 0.9535(6) 0.11829(18)
H5_4 H 0.8871 0.8806 0.1230
C9_3 C 0.7300(4) 0.7900(12) 0.5518(4)
H6_3 H 0.7351 0.8523 0.5682
H7_3 H 0.7298 0.8133 0.5255
H8_3 H 0.7539 0.7372 0.5564
C10_3 C 0.5381(4) 0.5133(10) 0.6451(3)
H9_3 H 0.5116 0.4867 0.6305
H10_3 H 0.5501 0.4533 0.6608
C11_3 C 0.5557(6) 0.6220(15) 0.7028(4)
H11_3 H 0.5855 0.6382 0.6937
H12_3 H 0.5572 0.5561 0.7179
H13_3 H 0.5457 0.6819 0.7183
C12_4 C 0.4803(4) 0.5830(13) 0.6848(4)
H14_4 H 0.4589 0.5727 0.6636
H15_4 H 0.4705 0.6429 0.7003
H16_4 H 0.4820 0.5172 0.6999
C13_4 C 0.4601(4) 0.8272(7) 0.5095(4)
H17_4 H 0.4387 0.7966 0.5272
H18_2 H 0.4443 0.8840 0.4948
C14_2 C 0.4327(4) 0.6835(9) 0.4724(4)
H19_2 H 0.4183 0.6591 0.4951
H20_2 H 0.4388 0.6214 0.4565
H21_2 H 0.4127 0.7335 0.4586
C15_2 C 0.4982(5) 0.7771(14) 0.4495(4)
H22_4 H 0.5261 0.8130 0.4576
H23_2 H 0.4789 0.8280 0.4355
H24_4 H 0.5050 0.7159 0.4333
C16_3 C 0.6809(7) 0.6510(15) 0.5351(6)
H25_3 H 0.7069 0.6111 0.5295
C17_4 C 0.9398(3) 0.9621(7) 0.0686(2)
C18_3 C 0.6856(6) 0.7056(17) 0.5982(4)
H26_3 H 0.6892 0.7682 0.6148
H27_3 H 0.7103 0.6550 0.6033
H28_3 H 0.6571 0.6701 0.6028
C25_4 C 0.6334(2) 0.9385(5) 0.4672(2)
C35_4 C 0.6436(2) 0.9953(5) 0.43067(19)
H38_4 H 0.8313 0.9637 0.1588
C41_4 C 0.6874(3) 0.9932(7) 0.4172(2)
H42_4 H 0.7104 0.9543 0.4303
C43_3 C 0.5726(4) 0.5485(8) 0.6191(2)
H44_3 H 0.5795 0.4876 0.6024
H45_3 H 0.6004 0.5659 0.6340
C46_3 C 0.6398(3) 0.6179(9) 0.5183(3)
H47_3 H 0.6357 0.5468 0.5090
C51_4 C 0.4980(3) 0.8759(6) 0.5312(2)
H51_4 H 0.4860 0.9234 0.5506
H52_3 H 0.5152 0.9216 0.5141
H53_3 H 0.67527 0.597414 0.559405
H54_4 H 0.651296 0.644039 0.490482
O3_2 O 0.0763(4) 0.3993(8) 0.6199(3)
O4_2 O 0.0768(5) 0.3502(8) 0.6779(4)
C1_4 C 0.1559(2) 0.8478(5) 0.69644(17)
C4_4 C 0.1383(3) 0.7373(5) 0.68528(19)
C5_4 C 0.1403(3) 0.6495(6) 0.7109(2)
H3_4 H 0.1526 0.6599 0.7355
C6_4 C 0.1240(4) 0.5460(7) 0.6998(3)
H4_4 H 0.1257 0.4885 0.7173
C8_4 C 0.0864(5) 0.4159(11) 0.6531(4)
C23_4 C 0.1574(3) 0.8839(5) 0.73420(16)
H32_4 H 0.1472 0.8374 0.7532
C30_4 C 0.1737(2) 0.9879(5) 0.74439(16)
C34_4 C 0.1049(4) 0.6106(10) 0.6388(3)
H37_4 H 0.0942 0.5972 0.6138
C39_4 C 0.1200(4) 0.7175(9) 0.6493(2)
H40_4 H 0.1174 0.7746 0.6316
C40_4 C 0.1717(2) 0.9198(5) 0.66939(16)
H41_4 H 0.1715 0.8980 0.6439
C44_4 C 0.1059(3) 0.5275(8) 0.6647(3)
Pb6 Pb 0.01520(2) 0.26777(2) 0.61897(2)
O13_3 O 0.0448(3) 0.0158(8) 0.4573(2)
N3_3 N 0.0251(2) 0.7618(5) 0.5172(2)
C12_5 C 0.0197(4) 0.9170(13) 0.3152(4)
H14_5 H 0.0411 0.9273 0.3364
H15_5 H 0.0295 0.8571 0.2997
H16_5 H 0.0180 0.9828 0.3001
C13_5 C 0.0399(4) 0.6728(7) 0.4905(4)
H17_5 H 0.0613 0.7034 0.4728
H18_3 H 0.0557 0.6160 0.5052
C14_3 C 0.0673(4) 0.8165(9) 0.5276(4)
H19_3 H 0.0817 0.8409 0.5049
H20_3 H 0.0612 0.8786 0.5435
H21_3 H 0.0873 0.7665 0.5414
C15_3 C 0.0018(5) 0.7229(14) 0.5505(4)
H23_3 H 0.0211 0.6720 0.5645
C51_5 C 0.0020(3) 0.6241(6) 0.4688(2)
H51_5 H 0.0140 0.5766 0.4494
O14_3 O 0.0457(2) 0.8698(5) 0.42197(18)
Pb4_2 Pb 0.52972(2) 0.37825(2) 0.02866(2)
Pb5_2 Pb 0.02972(2) 0.12175(2) 0.52866(2)
Pb2_4 Pb 0.61394(2) 0.14229(2) 0.04229(2)
Pb3_3 Pb 0.51520(2) 0.23223(2) 0.11897(2)
N2_4 N 0.5240(2) 0.3932(7) 0.17080(16)
N4_4 N 0.6861(3) 0.2599(7) 0.0597(2)
O7_4 O 0.56046(18) 0.3602(4) 0.09638(12)
O8_4 O 0.60395(15) 0.3042(4) 0.01566(12)
O9_4 O 0.52846(15) 0.2002(3) 0.04919(13)
C9_4 C 0.7300(4) 0.2100(12) 0.0518(4)
H6_4 H 0.7351 0.1477 0.0682
H7_4 H 0.7298 0.1867 0.0255
H8_4 H 0.7539 0.2628 0.0564
C10_4 C 0.5381(4) 0.4867(10) 0.1451(3)
H9_4 H 0.5116 0.5133 0.1305
H10_4 H 0.5501 0.5467 0.1608
C11_4 C 0.5557(6) 0.3780(15) 0.2028(4)
H11_4 H 0.5855 0.3618 0.1937
H12_4 H 0.5572 0.4439 0.2179
H13_4 H 0.5457 0.3181 0.2183
C12_6 C 0.4803(4) 0.4170(13) 0.1848(4)
H14_6 H 0.4589 0.4273 0.1636
H15_6 H 0.4705 0.3571 0.2003
H16_6 H 0.4820 0.4828 0.1999
C13_6 C 0.4601(4) 0.1728(7) 0.0095(4)
H17_6 H 0.4387 0.2034 0.0272
C16_4 C 0.6809(7) 0.3490(15) 0.0351(6)
H25_4 H 0.7069 0.3889 0.0295
C18_4 C 0.6856(6) 0.2944(17) 0.0982(4)
H26_4 H 0.6892 0.2318 0.1148
H27_4 H 0.7103 0.3450 0.1033
H28_4 H 0.6571 0.3299 0.1028
C43_4 C 0.5726(4) 0.4515(8) 0.1191(2)
H44_4 H 0.5795 0.5124 0.1024
H45_4 H 0.6004 0.4341 0.1340
C46_4 C 0.6398(3) 0.3821(9) 0.0183(3)
H47_4 H 0.6357 0.4532 0.0090
C51_6 C 0.4980(3) 0.1241(6) 0.0312(2)
H51_6 H 0.4860 0.0766 0.0506
H52_4 H 0.5152 0.0784 0.0141
O10_3 O 0.5763(4) 0.1007(8) 0.1199(3)
O11_3 O 0.5768(5) 0.1498(8) 0.1779(4)
O13_4 O 0.4552(3) 0.5158(8) 0.0427(2)
O14_4 O 0.4543(2) 0.3698(5) 0.07803(18)
H53_4 H 0.67527 0.402586 0.0594054
Pb2_5 Pb 0.11394(2) 0.35771(2) 0.54229(2)
N1_5 N 0.2068(2) 0.8374(5) 0.22646(15)
N2_5 N 0.0240(2) 0.1068(7) 0.67080(16)
N4_5 N 0.1861(3) 0.2401(7) 0.5597(2)
O1_5 O 0.09213(19) 0.4357(5) 0.47785(17)
O2_5 O 0.1653(2) 0.3976(5) 0.48736(15)
O7_5 O 0.06046(18) 0.1398(4) 0.59638(12)
O8_5 O 0.10395(15) 0.1958(4) 0.51566(12)
O9_5 O 0.02846(15) 0.2998(3) 0.54919(13)
C2_5 C 0.1513(3) 0.7596(8) 0.2688(2)
H1_5 H 0.1278 0.7812 0.2518
C3_5 C 0.1198(3) 0.6102(9) 0.3776(3)
H2_5 H 0.0969 0.6512 0.3652
C7_5 C 0.3793(3) 0.4535(6) 0.11829(18)
H5_5 H 0.3871 0.3806 0.1230
C9_5 C 0.2300(4) 0.2900(12) 0.5518(4)
H6_5 H 0.2351 0.3523 0.5682
H7_5 H 0.2298 0.3133 0.5255
H8_5 H 0.2539 0.2372 0.5564
C10_5 C 0.0381(4) 0.0133(10) 0.6451(3)
C11_5 C 0.0557(6) 0.1220(15) 0.7028(4)
H11_5 H 0.0855 0.1382 0.6937
H12_5 H 0.0572 0.0561 0.7179
H13_5 H 0.0457 0.1819 0.7183
H22_5 H 0.0261 0.3130 0.4576
H24_5 H 0.0050 0.2159 0.4333
C16_5 C 0.1809(7) 0.1510(15) 0.5351(6)
H25_5 H 0.2069 0.1111 0.5295
C17_5 C 0.4398(3) 0.4621(7) 0.0686(2)
C18_5 C 0.1856(6) 0.2056(17) 0.5982(4)
H26_5 H 0.1892 0.2682 0.6148
H27_5 H 0.2103 0.1550 0.6033
H28_5 H 0.1571 0.1701 0.6028
C19_5 C 0.2284(3) 0.7575(9) 0.2878(2)
H29_5 H 0.2585 0.7767 0.2836
C20_5 C 0.1877(2) 0.9775(5) 0.17897(15)
H30_5 H 0.1972 0.9308 0.1598
C21_5 C 0.4007(2) 0.5103(6) 0.09045(16)
C22_5 C 0.2324(3) 0.6725(6) 0.19466(19)
H31_5 H 0.2074 0.6352 0.2040
C24_5 C 0.2627(3) 0.6169(6) 0.17219(19)
H33_5 H 0.2580 0.5428 0.1668
C25_5 C 0.1334(2) 0.4385(5) 0.4672(2)
C26_5 C 0.3339(2) 0.6134(5) 0.13320(17)
C27_5 C 0.1636(2) 0.6100(5) 0.36360(17)
C28_5 C 0.2759(2) 0.8368(6) 0.1892(2)
H34_5 H 0.2806 0.9106 0.1950
C29_5 C 0.2385(2) 0.7820(5) 0.20344(16)
H35_5 H 0.1736 0.9897 0.2698
C31_5 C 0.1950(2) 0.7847(5) 0.26133(17)
C32_5 C 0.1899(2) 0.9420(5) 0.21672(15)
C33_5 C 0.2183(3) 0.7018(8) 0.3209(2)
H36_5 H 0.2418 0.6838 0.3385
C35_5 C 0.1436(2) 0.4953(5) 0.43067(19)
C36_5 C 0.1741(2) 0.6725(5) 0.32833(17)
C37_5 C 0.3457(2) 0.5035(5) 0.13996(18)
H38_5 H 0.3313 0.4637 0.1588
C38_5 C 0.3064(2) 0.7820(6) 0.16642(19)
H39_5 H 0.3311 0.8199 0.1570
C41_5 C 0.1874(3) 0.4932(7) 0.4172(2)
H42_5 H 0.2104 0.4543 0.4303
C42_5 C 0.1098(3) 0.5501(10) 0.4098(3)
H43_5 H 0.0798 0.5466 0.4176
C43_5 C 0.0726(4) 0.0485(8) 0.6191(2)
H45_5 H 0.1004 0.0659 0.6340
C45_5 C 0.3877(2) 0.6194(6) 0.08256(19)
H46_5 H 0.4016 0.6582 0.0633
C46_5 C 0.1398(3) 0.1179(9) 0.5183(3)
H47_5 H 0.1357 0.0468 0.5090
C47_5 C 0.3544(2) 0.6687(6) 0.10353(19)
H48_5 H 0.3454 0.7403 0.0977
C48_5 C 0.1968(2) 0.5495(7) 0.3838(2)
H49_5 H 0.2262 0.5467 0.3747
C49_5 C 0.3005(2) 0.6713(6) 0.15737(16)
C50_5 C 0.1412(3) 0.7015(9) 0.3016(2)
H50_5 H 0.1110 0.6818 0.3055
H52_5 H 0.0152 0.4216 0.5141
H53_5 H 0.17527 0.0974139 0.559405
H54_5 H 0.151296 0.144039 0.490482
N1_6 N 0.2932(2) 0.3374(5) 0.27354(15)
C1_5 C 0.3441(2) 0.6522(5) 0.30356(17)
C2_6 C 0.3487(3) 0.2596(8) 0.2312(2)
H1_6 H 0.3722 0.2812 0.2482
C3_6 C 0.3802(3) 0.1102(9) 0.1224(3)
H2_6 H 0.4031 0.1512 0.1348
C4_5 C 0.3617(3) 0.7627(5) 0.31472(19)
C5_5 C 0.3597(3) 0.8505(6) 0.2891(2)
H3_5 H 0.3474 0.8401 0.2645
C6_5 C 0.3760(4) 0.9540(7) 0.3002(3)
C19_6 C 0.2716(3) 0.2575(9) 0.2122(2)
H29_6 H 0.2415 0.2767 0.2164
C20_6 C 0.3123(2) 0.4775(5) 0.32103(15)
H30_6 H 0.3028 0.4308 0.3402
C21_6 C 0.0993(2) 0.0103(6) 0.40955(16)
C22_6 C 0.2676(3) 0.1725(6) 0.30534(19)
H31_6 H 0.2926 0.1352 0.2960
C23_5 C 0.3426(3) 0.6161(5) 0.26580(16)
H32_5 H 0.3528 0.6626 0.2468
C24_6 C 0.2373(3) 0.1169(6) 0.32781(19)
H33_6 H 0.2420 0.0428 0.3332
C26_6 C 0.1661(2) 0.1134(5) 0.36680(17)
C27_6 C 0.3364(2) 0.1100(5) 0.13640(17)
C28_6 C 0.2241(2) 0.3368(6) 0.3108(2)
H34_6 H 0.2194 0.4106 0.3050
C29_6 C 0.2615(2) 0.2820(5) 0.29656(16)
C30_5 C 0.3263(2) 0.5121(5) 0.25561(16)
H35_6 H 0.3264 0.4897 0.2302
C31_6 C 0.3050(2) 0.2847(5) 0.23867(17)
C32_6 C 0.3101(2) 0.4420(5) 0.28328(15)
C33_6 C 0.2817(3) 0.2018(8) 0.1791(2)
H36_6 H 0.2582 0.1838 0.1615
C34_5 C 0.3951(4) 0.8894(10) 0.3612(3)
H37_5 H 0.4058 0.9028 0.3862
C36_6 C 0.3259(2) 0.1725(5) 0.17167(17)
C37_6 C 0.1543(2) 0.0035(5) 0.36004(18)
C38_6 C 0.1936(2) 0.2820(6) 0.33358(19)
H39_6 H 0.1689 0.3199 0.3430
C39_5 C 0.3800(4) 0.7825(9) 0.3507(2)
H40_5 H 0.3826 0.7254 0.3684
C40_5 C 0.3283(2) 0.5802(5) 0.33061(16)
H41_5 H 0.3285 0.6020 0.3561
C42_6 C 0.3902(3) 0.0501(10) 0.0902(3)
H43_6 H 0.4202 0.0466 0.0824
C44_5 C 0.3941(3) 0.9725(8) 0.3353(3)
C45_6 C 0.1123(2) 0.1194(6) 0.41744(19)
H46_6 H 0.0984 0.1582 0.4367
C47_6 C 0.1456(2) 0.1687(6) 0.39647(19)
H48_6 H 0.1546 0.2403 0.4023
C48_6 C 0.3032(2) 0.0495(7) 0.1162(2)
H49_6 H 0.2738 0.0467 0.1253
C49_6 C 0.1995(2) 0.1713(6) 0.34263(16)
C50_6 C 0.3588(3) 0.2015(9) 0.1984(2)
H50_6 H 0.3890 0.1818 0.1945
N3_4 N 0.5251(2) 0.7382(5) 0.0172(2)
O1_6 O 0.40787(19) 0.9357(5) 0.02215(17)
O2_6 O 0.3347(2) 0.8976(5) 0.01264(15)
C7_6 C 0.1207(3) 0.9535(6) 0.38171(18)
H5_6 H 0.1129 0.8806 0.3770
H18_4 H 0.5557 0.8840 0.0052
C14_4 C 0.5673(4) 0.6835(9) 0.0276(4)
H19_4 H 0.5817 0.6591 0.0049
H20_4 H 0.5612 0.6214 0.0435
H21_4 H 0.5873 0.7335 0.0414
C15_4 C 0.5018(5) 0.7771(14) 0.0505(4)
H22_6 H 0.4739 0.8130 0.0424
H23_4 H 0.5211 0.8280 0.0645
H24_6 H 0.4950 0.7159 0.0667
C17_6 C 0.0602(3) 0.9621(7) 0.4314(2)
C25_6 C 0.3666(2) 0.9385(5) 0.0328(2)
C35_6 C 0.3564(2) 0.9953(5) 0.06933(19)
H38_6 H 0.1687 0.9637 0.3412
C41_6 C 0.3126(3) 0.9932(7) 0.0828(2)
H42_6 H 0.2896 0.9543 0.0697
H54_6 H 0.348704 0.644039 0.00951835
H4_5 H 0.6257 0.0115 0.2173
C8_5 C 0.5864(5) 0.0841(11) 0.1531(4)
N3_5 N 0.9749(2) 0.7618(5) 0.9828(2)
H18_5 H 0.9443 0.6160 0.9948
C14_5 C 0.9327(4) 0.8165(9) 0.9724(4)
H19_5 H 0.9183 0.8409 0.9951
H20_5 H 0.9388 0.8786 0.9565
H21_5 H 0.9127 0.7665 0.9586
C15_5 C 0.9982(5) 0.7229(14) 0.9495(4)
H23_5 H 0.9789 0.6720 0.9355
H9_5 H 0.9884 0.0133 0.3695
H10_5 H 0.9499 0.0467 0.3392
H44_5 H 0.9205 0.0124 0.3976
Pb1_2 Pb 0.97028(2) 0.87825(2) 0.47134(2)
Pb2_6 Pb 0.88606(2) 0.64229(2) 0.45771(2)
Pb3_4 Pb 0.98480(2) 0.73223(2) 0.38103(2)
N1_7 N 0.7932(2) 0.1626(5) 0.77354(15)
N2_6 N 0.9760(2) 0.8932(7) 0.32920(16)
N4_6 N 0.8139(3) 0.7599(7) 0.4403(2)
O1_7 O 0.90787(19) 0.5643(5) 0.52215(17)
O2_7 O 0.8347(2) 0.6024(5) 0.51264(15)
O5_2 O 0.5448(3) 0.4842(8) 0.9573(2)
O6_3 O 0.5457(2) 0.6302(5) 0.92197(18)
O7_6 O 0.93954(18) 0.8602(4) 0.40362(12)
O8_6 O 0.89605(15) 0.8042(4) 0.48434(12)
O9_6 O 0.97154(15) 0.7002(3) 0.45081(13)
C2_7 C 0.8487(3) 0.2404(8) 0.7312(2)
H1_7 H 0.8722 0.2188 0.7482
C3_7 C 0.8802(3) 0.3898(9) 0.6224(3)
H2_7 H 0.9031 0.3488 0.6348
C7_7 C 0.6207(3) 0.5465(6) 0.88171(18)
H5_7 H 0.6129 0.6194 0.8770
C9_6 C 0.7700(4) 0.7100(12) 0.4482(4)
H6_6 H 0.7649 0.6477 0.4318
H7_6 H 0.7702 0.6867 0.4745
H8_6 H 0.7461 0.7628 0.4436
C10_6 C 0.9619(4) 0.9867(10) 0.3549(3)
C11_6 C 0.9443(6) 0.8780(15) 0.2972(4)
H11_6 H 0.9145 0.8618 0.3063
H12_6 H 0.9428 0.9439 0.2821
H13_6 H 0.9543 0.8181 0.2817
H22_7 H 0.9739 0.6870 0.5424
H24_7 H 0.9950 0.7841 0.5667
C16_6 C 0.8191(7) 0.8490(15) 0.4649(6)
H25_6 H 0.7931 0.8889 0.4705
C17_7 C 0.5602(3) 0.5379(7) 0.9314(2)
C18_6 C 0.8144(6) 0.7944(17) 0.4018(4)
H26_6 H 0.8108 0.7318 0.3852
H27_6 H 0.7897 0.8450 0.3967
H28_6 H 0.8429 0.8299 0.3972
C19_7 C 0.7716(3) 0.2425(9) 0.7122(2)
H29_7 H 0.7415 0.2233 0.7164
C20_7 C 0.8123(2) 0.0225(5) 0.82103(15)
H30_7 H 0.8028 0.0692 0.8402
C21_7 C 0.5993(2) 0.4897(6) 0.90955(16)
C22_7 C 0.7676(3) 0.3275(6) 0.80534(19)
H31_7 H 0.7926 0.3648 0.7960
C24_7 C 0.7373(3) 0.3831(6) 0.82781(19)
H33_7 H 0.7420 0.4572 0.8332
C25_7 C 0.8666(2) 0.5615(5) 0.5328(2)
C26_7 C 0.6661(2) 0.3866(5) 0.86680(17)
C27_7 C 0.8364(2) 0.3900(5) 0.63640(17)
C28_7 C 0.7241(2) 0.1632(6) 0.8108(2)
H34_7 H 0.7194 0.0894 0.8050
C29_7 C 0.7615(2) 0.2180(5) 0.79656(16)
H35_7 H 0.8264 0.0103 0.7302
C31_7 C 0.8050(2) 0.2153(5) 0.73867(17)
C32_7 C 0.8101(2) 0.0580(5) 0.78328(15)
C33_7 C 0.7817(3) 0.2982(8) 0.6791(2)
H36_7 H 0.7582 0.3162 0.6615
C35_7 C 0.8564(2) 0.5047(5) 0.56933(19)
C36_7 C 0.8259(2) 0.3275(5) 0.67167(17)
C37_7 C 0.6543(2) 0.4965(5) 0.86004(18)
H38_7 H 0.6687 0.5363 0.8412
C38_7 C 0.6936(2) 0.2180(6) 0.83358(19)
H39_7 H 0.6689 0.1801 0.8430
C41_7 C 0.8126(3) 0.5068(7) 0.5828(2)
H42_7 H 0.7896 0.5457 0.5697
C42_7 C 0.8902(3) 0.4499(10) 0.5902(3)
H43_7 H 0.9202 0.4534 0.5824
C43_6 C 0.9274(4) 0.9515(8) 0.3809(2)
H45_6 H 0.8996 0.9341 0.3660
C45_7 C 0.6123(2) 0.3806(6) 0.91744(19)
H46_7 H 0.5984 0.3418 0.9367
C46_6 C 0.8602(3) 0.8821(9) 0.4817(3)
H47_6 H 0.8643 0.9532 0.4910
C47_7 C 0.6456(2) 0.3313(6) 0.89647(19)
H48_7 H 0.6546 0.2597 0.9023
C48_7 C 0.8032(2) 0.4505(7) 0.6162(2)
H49_7 H 0.7738 0.4533 0.6253
C49_7 C 0.6995(2) 0.3287(6) 0.84263(16)
C50_7 C 0.8588(3) 0.2985(9) 0.6984(2)
H50_7 H 0.8890 0.3182 0.6945
H52_6 H 0.9848 0.5784 0.4859
Pb5_3 Pb 0.47028(2) 0.62175(2) 0.97134(2)
Pb7_2 Pb 0.48480(2) 0.76777(2) 0.88103(2)
O10_4 O 0.9237(4) 0.6007(8) 0.3801(3)
O11_4 O 0.9232(5) 0.6498(8) 0.3221(4)
O12_2 O 0.9552(3) 0.9842(8) 0.5427(2)
H53_6 H 0.82473 0.902586 0.440595
H54_7 H 0.848704 0.855961 0.509518
N3_6 N 0.4749(2) 0.2618(5) 0.9828(2)
O1_8 O 0.59213(19) 0.0643(5) 0.97785(17)
O2_8 O 0.6653(2) 0.1024(5) 0.98736(15)
O6_4 O 0.9543(2) 0.1302(5) 0.57803(18)
C7_8 C 0.8793(3) 0.0465(6) 0.61829(18)
H5_8 H 0.8871 0.1194 0.6230
H18_6 H 0.4443 0.1160 0.9948
C14_6 C 0.4327(4) 0.3165(9) 0.9724(4)
H19_6 H 0.4183 0.3409 0.9951
H20_6 H 0.4388 0.3786 0.9565
H21_6 H 0.4127 0.2665 0.9586
C15_6 C 0.4982(5) 0.2229(14) 0.9495(4)
H22_8 H 0.5261 0.1870 0.9576
H23_6 H 0.4789 0.1720 0.9355
H24_8 H 0.5050 0.2841 0.9333
C17_8 C 0.9398(3) 0.0379(7) 0.5686(2)
C25_8 C 0.6334(2) 0.0615(5) 0.9672(2)
C35_8 C 0.6436(2) 0.0047(5) 0.93067(19)
H38_8 H 0.8313 0.0363 0.6588
C41_8 C 0.6874(3) 0.0068(7) 0.9172(2)
H42_8 H 0.7104 0.0457 0.9303
H54_8 H 0.651296 0.355961 0.990482
N1_8 N 0.7068(2) 0.6626(5) 0.72646(15)
C1_6 C 0.6559(2) 0.3478(5) 0.69644(17)
C2_8 C 0.6513(3) 0.7404(8) 0.7688(2)
H1_8 H 0.6278 0.7188 0.7518
C3_8 C 0.6198(3) 0.8898(9) 0.8776(3)
H2_8 H 0.5969 0.8488 0.8652
C4_6 C 0.6383(3) 0.2373(5) 0.68528(19)
C5_6 C 0.6403(3) 0.1495(6) 0.7109(2)
H3_6 H 0.6526 0.1599 0.7355
C6_6 C 0.6240(4) 0.0460(7) 0.6998(3)
C19_8 C 0.7284(3) 0.7425(9) 0.7878(2)
H29_8 H 0.7585 0.7233 0.7836
C20_8 C 0.6877(2) 0.5225(5) 0.67897(15)
H30_8 H 0.6972 0.5692 0.6598
C21_8 C 0.9007(2) 0.9897(6) 0.59045(16)
C22_8 C 0.7324(3) 0.8275(6) 0.69466(19)
H31_8 H 0.7074 0.8648 0.7040
C23_6 C 0.6574(3) 0.3839(5) 0.73420(16)
H32_6 H 0.6472 0.3374 0.7532
C24_8 C 0.7627(3) 0.8831(6) 0.67219(19)
H33_8 H 0.7580 0.9572 0.6668
C26_8 C 0.8339(2) 0.8866(5) 0.63320(17)
C27_8 C 0.6636(2) 0.8900(5) 0.86360(17)
C28_8 C 0.7759(2) 0.6632(6) 0.6892(2)
H34_8 H 0.7806 0.5894 0.6950
C29_8 C 0.7385(2) 0.7180(5) 0.70344(16)
C30_6 C 0.6737(2) 0.4879(5) 0.74439(16)
H35_8 H 0.6736 0.5103 0.7698
C31_8 C 0.6950(2) 0.7153(5) 0.76133(17)
C32_8 C 0.6899(2) 0.5580(5) 0.71672(15)
C33_8 C 0.7183(3) 0.7982(8) 0.8209(2)
H36_8 H 0.7418 0.8162 0.8385
C34_6 C 0.6049(4) 0.1106(10) 0.6388(3)
H37_6 H 0.5942 0.0972 0.6138
C36_8 C 0.6741(2) 0.8275(5) 0.82833(17)
C37_8 C 0.8457(2) 0.9965(5) 0.63996(18)
C38_8 C 0.8064(2) 0.7180(6) 0.66642(19)
H39_8 H 0.8311 0.6801 0.6570
C39_6 C 0.6200(4) 0.2175(9) 0.6493(2)
H40_6 H 0.6174 0.2746 0.6316
C40_6 C 0.6717(2) 0.4198(5) 0.66939(16)
H41_6 H 0.6715 0.3980 0.6439
C42_8 C 0.6098(3) 0.9499(10) 0.9098(3)
H43_8 H 0.5798 0.9534 0.9176
C44_6 C 0.6059(3) 0.0275(8) 0.6647(3)
C45_8 C 0.8877(2) 0.8806(6) 0.58256(19)
H46_8 H 0.9016 0.8418 0.5633
C47_8 C 0.8544(2) 0.8313(6) 0.60353(19)
H48_8 H 0.8454 0.7597 0.5977
C48_8 C 0.6968(2) 0.9505(7) 0.8838(2)
H49_8 H 0.7262 0.9533 0.8747
C49_8 C 0.8005(2) 0.8287(6) 0.65737(16)
C50_8 C 0.6412(3) 0.7985(9) 0.8016(2)
H50_8 H 0.6110 0.8182 0.8055
O3_3 O 0.4237(4) 0.8993(8) 0.8801(3)
O4_3 O 0.4232(5) 0.8502(8) 0.8221(4)
H4_6 H 0.3743 0.9885 0.7827
C8_6 C 0.4136(5) 0.9159(11) 0.8469(4)
C1_7 C 0.8441(2) 0.1522(5) 0.30356(17)
C4_7 C 0.8617(3) 0.2627(5) 0.31472(19)
C5_7 C 0.8597(3) 0.3505(6) 0.2891(2)
H3_7 H 0.8474 0.3401 0.2645
C6_7 C 0.8760(4) 0.4540(7) 0.3002(3)
H4_7 H 0.8743 0.5115 0.2827
C8_7 C 0.9136(5) 0.5841(11) 0.3469(4)
C23_7 C 0.8426(3) 0.1161(5) 0.26580(16)
H32_7 H 0.8528 0.1626 0.2468
C30_7 C 0.8263(2) 0.0121(5) 0.25561(16)
C34_7 C 0.8951(4) 0.3894(10) 0.3612(3)
H37_7 H 0.9058 0.4028 0.3862
C39_7 C 0.8800(4) 0.2825(9) 0.3507(2)
H40_7 H 0.8826 0.2254 0.3684
C40_7 C 0.8283(2) 0.0802(5) 0.33061(16)
H41_7 H 0.8285 0.1020 0.3561
C44_7 C 0.8941(3) 0.4725(8) 0.3353(3)
N3_7 N 0.9749(2) 0.2382(5) 0.4828(2)
C12_7 C 0.9803(4) 0.0830(13) 0.6848(4)
H14_7 H 0.9589 0.0727 0.6636
H15_7 H 0.9705 0.1429 0.7003
H16_7 H 0.9820 0.0172 0.6999
C13_7 C 0.9601(4) 0.3272(7) 0.5095(4)
H17_7 H 0.9387 0.2966 0.5272
H18_7 H 0.9443 0.3840 0.4948
C14_7 C 0.9327(4) 0.1835(9) 0.4724(4)
H19_7 H 0.9183 0.1591 0.4951
H20_7 H 0.9388 0.1214 0.4565
H21_7 H 0.9127 0.2335 0.4586
C15_7 C 0.9982(5) 0.2771(14) 0.4495(4)
H23_7 H 0.9789 0.3280 0.4355
C51_7 C 0.9980(3) 0.3759(6) 0.5312(2)
H51_7 H 0.9860 0.4234 0.5506
Pb2_7 Pb 0.38606(2) 0.85771(2) 0.95771(2)
N2_7 N 0.4760(2) 0.6068(7) 0.82920(16)
N4_7 N 0.3139(3) 0.7401(7) 0.9403(2)
O7_7 O 0.43954(18) 0.6398(4) 0.90362(12)
O8_7 O 0.39605(15) 0.6958(4) 0.98434(12)
O9_7 O 0.47154(15) 0.7998(3) 0.95081(13)
C9_7 C 0.2700(4) 0.7900(12) 0.9482(4)
H6_7 H 0.2649 0.8523 0.9318
H7_7 H 0.2702 0.8133 0.9745
H8_7 H 0.2461 0.7372 0.9436
C10_7 C 0.4619(4) 0.5133(10) 0.8549(3)
H9_6 H 0.4884 0.4867 0.8695
H10_6 H 0.4499 0.4533 0.8392
C11_7 C 0.4443(6) 0.6220(15) 0.7972(4)
H11_7 H 0.4145 0.6382 0.8063
H12_7 H 0.4428 0.5561 0.7821
H13_7 H 0.4543 0.6819 0.7817
C12_8 C 0.5197(4) 0.5830(13) 0.8152(4)
H14_8 H 0.5411 0.5727 0.8364
H15_8 H 0.5295 0.6429 0.7997
H16_8 H 0.5180 0.5172 0.8001
C13_8 C 0.5399(4) 0.8272(7) 0.9905(4)
H17_8 H 0.5613 0.7966 0.9728
C16_7 C 0.3191(7) 0.6510(15) 0.9649(6)
H25_7 H 0.2931 0.6111 0.9705
C18_7 C 0.3144(6) 0.7056(17) 0.9018(4)
H26_7 H 0.3108 0.7682 0.8852
H27_7 H 0.2897 0.6550 0.8967
H28_7 H 0.3429 0.6701 0.8972
C43_7 C 0.4274(4) 0.5485(8) 0.8809(2)
H44_6 H 0.4205 0.4876 0.8976
H45_7 H 0.3996 0.5659 0.8660
C46_7 C 0.3602(3) 0.6179(9) 0.9817(3)
H47_7 H 0.3643 0.5468 0.9910
C51_8 C 0.5020(3) 0.8759(6) 0.9688(2)
H51_8 H 0.5140 0.9234 0.9494
H52_7 H 0.4848 0.9216 0.9859
H53_7 H 0.32473 0.597414 0.940595
O3_4 O 0.9237(4) 0.3993(8) 0.8801(3)
O4_4 O 0.9232(5) 0.3502(8) 0.8221(4)
C1_8 C 0.8441(2) 0.8478(5) 0.80356(17)
C4_8 C 0.8617(3) 0.7373(5) 0.81472(19)
C5_8 C 0.8597(3) 0.6495(6) 0.7891(2)
H3_8 H 0.8474 0.6599 0.7645
C6_8 C 0.8760(4) 0.5460(7) 0.8002(3)
H4_8 H 0.8743 0.4885 0.7827
C8_8 C 0.9136(5) 0.4159(11) 0.8469(4)
C23_8 C 0.8426(3) 0.8839(5) 0.76580(16)
H32_8 H 0.8528 0.8374 0.7468
C30_8 C 0.8263(2) 0.9879(5) 0.75561(16)
C34_8 C 0.8951(4) 0.6106(10) 0.8612(3)
H37_8 H 0.9058 0.5972 0.8862
C39_8 C 0.8800(4) 0.7175(9) 0.8507(2)
H40_8 H 0.8826 0.7746 0.8684
C40_8 C 0.8283(2) 0.9198(5) 0.83061(16)
H41_8 H 0.8285 0.8980 0.8561
C44_8 C 0.8941(3) 0.5275(8) 0.8353(3)
Pb6_2 Pb 0.98480(2) 0.26777(2) 0.88103(2)
Pb5_4 Pb 0.97028(2) 0.12175(2) 0.97134(2)
Pb2_8 Pb 0.88606(2) 0.35771(2) 0.95771(2)
N2_8 N 0.9760(2) 0.1068(7) 0.82920(16)
N4_8 N 0.8139(3) 0.2401(7) 0.9403(2)
O7_8 O 0.93954(18) 0.1398(4) 0.90362(12)
O8_8 O 0.89605(15) 0.1958(4) 0.98434(12)
O9_8 O 0.97154(15) 0.2998(3) 0.95081(13)
C9_8 C 0.7700(4) 0.2900(12) 0.9482(4)
H6_8 H 0.7649 0.3523 0.9318
H7_8 H 0.7702 0.3133 0.9745
H8_8 H 0.7461 0.2372 0.9436
C10_8 C 0.9619(4) 0.0133(10) 0.8549(3)
C11_8 C 0.9443(6) 0.1220(15) 0.7972(4)
H11_8 H 0.9145 0.1382 0.8063
H12_8 H 0.9428 0.0561 0.7821
H13_8 H 0.9543 0.1819 0.7817
C16_8 C 0.8191(7) 0.1510(15) 0.9649(6)
H25_8 H 0.7931 0.1111 0.9705
C18_8 C 0.8144(6) 0.2056(17) 0.9018(4)
H26_8 H 0.8108 0.2682 0.8852
H27_8 H 0.7897 0.1550 0.8967
H28_8 H 0.8429 0.1701 0.8972
C43_8 C 0.9274(4) 0.0485(8) 0.8809(2)
H45_8 H 0.8996 0.0659 0.8660
C46_8 C 0.8602(3) 0.1179(9) 0.9817(3)
H47_8 H 0.8643 0.0468 0.9910
H52_8 H 0.9848 0.4216 0.9859
H53_8 H 0.82473 0.0974139 0.940595
N3_8 N 0.0251(2) 0.2382(5) 0.0172(2)
H18_8 H 0.0557 0.3840 0.0052
C14_8 C 0.0673(4) 0.1835(9) 0.0276(4)
H19_8 H 0.0817 0.1591 0.0049
H20_8 H 0.0612 0.1214 0.0435
H21_8 H 0.0873 0.2335 0.0414
C15_8 C 0.0018(5) 0.2771(14) 0.0505(4)
H23_8 H 0.0211 0.3280 0.0645
H9_7 H 0.9884 0.9867 0.8695
H10_7 H 0.9499 0.9533 0.8392
H44_7 H 0.9205 0.9876 0.8976
H9_8 H 0.0116 0.9867 0.6305
H10_8 H 0.0501 0.9533 0.6608
H44_8 H 0.0795 0.9876 0.6024
loop_
_geom_bond_atom_site_label_1
_geom_bond_atom_site_label_2
_geom_bond_site_symmetry_1
_geom_bond_site_symmetry_2
Pb2 N4 1_555 1_555
Pb3 N2 1_555 1_555
N2 C10 1_555 1_555
N4 C9 1_555 1_555
O7 Pb1 1_555 1_555
O8 Pb1 1_555 1_555
O9 Pb1 1_555 1_555
C9 H6 1_555 1_555
H7 C9 1_555 1_555
H8 C9 1_555 1_555
C11 N2 1_555 1_555
H11 C11 1_555 1_555
H12 C11 1_555 1_555
H13 C11 1_555 1_555
C16 N4 1_555 1_555
H25 C16 1_555 1_555
C18 N4 1_555 1_555
H26 C18 1_555 1_555
H27 C18 1_555 1_555
H28 C18 1_555 1_555
C43 O7 1_555 1_555
H45 C43 1_555 1_555
C46 O8 1_555 1_555
H47 C46 1_555 1_555
O10 Pb3 1_555 1_555
O11 Pb3 1_555 1_555
Pb2 O8 1_555 1_555
Pb2 O9 1_555 1_555
Pb3 O7 1_555 1_555
Pb3 O9 1_555 1_555
C10 C43 1_555 1_555
C16 C46 1_555 1_555
C16 H53 1_555 1_555
O10 C8 1_555 1_555
O11 C8 1_555 1_555
C1 C4 1_555 1_555
C4 C5 1_555 1_555
C5 H3 1_555 1_555
C6 C5 1_555 1_555
H4 C6 1_555 1_555
C8 C44 1_555 1_555
C23 C1 1_555 1_555
H32 C23 1_555 1_555
C30 C23 1_555 1_555
C34 H37 1_555 1_555
C39 C4 1_555 1_555
H40 C39 1_555 1_555
C40 C1 1_555 1_555
H41 C40 1_555 1_555
C44 C6 1_555 1_555
C34 C39 1_555 1_555
C34 C44 1_555 1_555
N1 C29 1_555 1_555
O5 C17 1_555 1_555
O6 C17 1_555 1_555
C2 H1 1_555 1_555
C3 H2 1_555 1_555
C7 H5 1_555 1_555
C17 C21 1_555 1_555
C19 H29 1_555 1_555
C20 H30 1_555 1_555
C21 C7 1_555 1_555
C22 H31 1_555 1_555
C24 C22 1_555 1_555
H33 C24 1_555 1_555
C25 O1 1_555 1_555
C26 C37 1_555 1_555
C27 C3 1_555 1_555
C28 H34 1_555 1_555
C29 C22 1_555 1_555
C31 N1 1_555 1_555
C32 N1 1_555 1_555
C33 C19 1_555 1_555
H36 C33 1_555 1_555
C35 C25 1_555 1_555
C36 C27 1_555 1_555
C37 C7 1_555 1_555
H38 C37 1_555 1_555
C38 C28 1_555 1_555
H39 C38 1_555 1_555
C41 C35 1_555 1_555
H42 C41 1_555 1_555
C42 C3 1_555 1_555
H43 C42 1_555 1_555
C45 C21 1_555 1_555
H46 C45 1_555 1_555
C47 C26 1_555 1_555
H48 C47 1_555 1_555
C48 C27 1_555 1_555
H49 C48 1_555 1_555
C49 C24 1_555 1_555
C50 C2 1_555 1_555
H50 C50 1_555 1_555
Pb4 O5 1_555 1_555
Pb5 O5 1_555 1_555
Pb7 O6 1_555 1_555
O2 C25 1_555 1_555
O6 Pb5 1_555 1_555
C2 C31 1_555 1_555
C19 C31 1_555 1_555
C20 C32 1_555 1_555
C26 C49 1_555 1_555
C28 C29 1_555 1_555
C33 C36 1_555 1_555
C35 C42 1_555 1_555
C36 C50 1_555 1_555
C38 C49 1_555 1_555
C41 C48 1_555 1_555
C45 C47 1_555 1_555
H14 C12 1_555 1_555
H15 C12 1_555 1_555
H16 C12 1_555 1_555
C13 H17 1_555 1_555
H51 C51 1_555 1_555
C13 C51 1_555 1_555
O3 C8_2 1_555 1_555
O4 C8_2 1_555 1_555
Pb7 O3 1_555 1_555
O4 Pb7 1_555 1_555
Pb4 N3 1_555 1_555
Pb2_2 N4_2 1_555 1_555
Pb3_2 N2_2 1_555 1_555
N2_2 C10_2 1_555 1_555
N3 C13_2 1_555 1_555
N4_2 C9_2 1_555 1_555
O1_2 Pb2_2 1_555 1_555
O2_2 Pb2_2 1_555 1_555
O6_2 C17_2 1_555 1_555
O7_2 Pb4 1_555 1_555
O8_2 Pb4 1_555 1_555
O9_2 Pb4 1_555 1_555
C7_2 H5_2 1_555 1_555
C9_2 H6_2 1_555 1_555
H7_2 C9_2 1_555 1_555
H8_2 C9_2 1_555 1_555
C10_2 H9_2 1_555 1_555
H10_2 C10_2 1_555 1_555
C11_2 N2_2 1_555 1_555
H11_2 C11_2 1_555 1_555
H12_2 C11_2 1_555 1_555
H13_2 C11_2 1_555 1_555
C12_2 N2_2 1_555 1_555
H14_2 C12_2 1_555 1_555
H15_2 C12_2 1_555 1_555
H16_2 C12_2 1_555 1_555
C13_2 H17_2 1_555 1_555
H18 C13_2 1_555 1_555
C14 N3 1_555 1_555
H19 C14 1_555 1_555
H20 C14 1_555 1_555
H21 C14 1_555 1_555
C15 N3 1_555 1_555
H22_2 C15 1_555 1_555
H23 C15 1_555 1_555
H24_2 C15 1_555 1_555
C16_2 N4_2 1_555 1_555
H25_2 C16_2 1_555 1_555
C18_2 N4_2 1_555 1_555
H26_2 C18_2 1_555 1_555
H27_2 C18_2 1_555 1_555
H28_2 C18_2 1_555 1_555
C25_2 O1_2 1_555 1_555
C35_2 C25_2 1_555 1_555
C41_2 C35_2 1_555 1_555
H42_2 C41_2 1_555 1_555
C43_2 O7_2 1_555 1_555
H44_2 C43_2 1_555 1_555
H45_2 C43_2 1_555 1_555
C46_2 O8_2 1_555 1_555
H47_2 C46_2 1_555 1_555
C51_2 O9_2 1_555 1_555
H51_2 C51_2 1_555 1_555
H52_2 C51_2 1_555 1_555
O10_2 Pb3_2 1_555 1_555
O11_2 Pb3_2 1_555 1_555
O13_2 Pb4 1_555 1_555
O14_2 Pb4 1_555 1_555
Pb2_2 O8_2 1_555 1_555
Pb2_2 O9_2 1_555 1_555
Pb3_2 O7_2 1_555 1_555
Pb3_2 O9_2 1_555 1_555
Pb3_2 O14_2 1_555 1_555
O2_2 C25_2 1_555 1_555
C10_2 C43_2 1_555 1_555
C13_2 C51_2 1_555 1_555
C16_2 C46_2 1_555 1_555
C16_2 H53_2 1_555 1_555
C46_2 H54_2 1_555 1_555
N1_2 C29_2 1_555 1_555
C1_2 C4_2 1_555 1_555
C2_2 H1_2 1_555 1_555
C3_2 H2_2 1_555 1_555
C4_2 C5_2 1_555 1_555
C5_2 H3_2 1_555 1_555
C6_2 C5_2 1_555 1_555
C19_2 H29_2 1_555 1_555
C20_2 H30_2 1_555 1_555
C22_2 H31_2 1_555 1_555
C23_2 C1_2 1_555 1_555
H32_2 C23_2 1_555 1_555
C24_2 C22_2 1_555 1_555
H33_2 C24_2 1_555 1_555
C26_2 C37_2 1_555 1_555
C27_2 C3_2 1_555 1_555
C28_2 H34_2 1_555 1_555
C29_2 C22_2 1_555 1_555
C30_2 C23_2 1_555 1_555
H35_2 C30_2 1_555 1_555
C31_2 N1_2 1_555 1_555
C32_2 N1_2 1_555 1_555
C33_2 C19_2 1_555 1_555
H36_2 C33_2 1_555 1_555
C34_2 H37_2 1_555 1_555
C36_2 C27_2 1_555 1_555
C38_2 C28_2 1_555 1_555
H39_2 C38_2 1_555 1_555
C39_2 C4_2 1_555 1_555
H40_2 C39_2 1_555 1_555
C40_2 C1_2 1_555 1_555
H41_2 C40_2 1_555 1_555
C42_2 C3_2 1_555 1_555
H43_2 C42_2 1_555 1_555
C44_2 C6_2 1_555 1_555
C45_2 C21_2 1_555 1_555
H46_2 C45_2 1_555 1_555
C47_2 C26_2 1_555 1_555
H48_2 C47_2 1_555 1_555
C48_2 C27_2 1_555 1_555
H49_2 C48_2 1_555 1_555
C49_2 C24_2 1_555 1_555
C50_2 C2_2 1_555 1_555
H50_2 C50_2 1_555 1_555
C2_2 C31_2 1_555 1_555
C19_2 C31_2 1_555 1_555
C20_2 C32_2 1_555 1_555
C20_2 C40_2 1_555 1_555
C26_2 C49_2 1_555 1_555
C28_2 C29_2 1_555 1_555
C30_2 C32_2 1_555 1_555
C33_2 C36_2 1_555 1_555
C34_2 C39_2 1_555 1_555
C34_2 C44_2 1_555 1_555
C36_2 C50_2 1_555 1_555
C38_2 C49_2 1_555 1_555
C45_2 C47_2 1_555 1_555
H14_3 C12_3 1_555 1_555
H15_3 C12_3 1_555 1_555
H16_3 C12_3 1_555 1_555
C13_3 H17_3 1_555 1_555
H51_3 C51_3 1_555 1_555
C13_3 C51_3 1_555 1_555
N1_3 C29_3 1_555 1_555
O13_2 C17_3 1_555 1_555
O14_2 C17_3 1_555 1_555
C2_3 H1_3 1_555 1_555
C3_3 H2_3 1_555 1_555
C7_3 H5_3 1_555 1_555
C17_3 C21_3 1_555 1_555
C19_3 H29_3 1_555 1_555
C20_3 H30_3 1_555 1_555
C21_3 C7_3 1_555 1_555
C22_3 H31_3 1_555 1_555
C24_3 C22_3 1_555 1_555
H33_3 C24_3 1_555 1_555
C25_3 O1_3 1_555 1_555
C26_3 C37_3 1_555 1_555
C27_3 C3_3 1_555 1_555
C28_3 H34_3 1_555 1_555
C29_3 C22_3 1_555 1_555
C31_3 N1_3 1_555 1_555
C32_3 N1_3 1_555 1_555
C33_3 C19_3 1_555 1_555
H36_3 C33_3 1_555 1_555
C35_3 C25_3 1_555 1_555
C36_3 C27_3 1_555 1_555
C37_3 C7_3 1_555 1_555
H38_3 C37_3 1_555 1_555
C38_3 C28_3 1_555 1_555
H39_3 C38_3 1_555 1_555
C41_3 C35_3 1_555 1_555
H42_3 C41_3 1_555 1_555
C42_3 C3_3 1_555 1_555
H43_3 C42_3 1_555 1_555
C45_3 C21_3 1_555 1_555
H46_3 C45_3 1_555 1_555
C47_3 C26_3 1_555 1_555
H48_3 C47_3 1_555 1_555
C48_3 C27_3 1_555 1_555
H49_3 C48_3 1_555 1_555
C49_3 C24_3 1_555 1_555
C50_3 C2_3 1_555 1_555
H50_3 C50_3 1_555 1_555
Pb5 O13_2 1_555 1_555
O2_3 C25_3 1_555 1_555
C2_3 C31_3 1_555 1_555
C19_3 C31_3 1_555 1_555
C20_3 C32_3 1_555 1_555
C26_3 C49_3 1_555 1_555
C28_3 C29_3 1_555 1_555
C33_3 C36_3 1_555 1_555
C35_3 C42_3 1_555 1_555
C36_3 C50_3 1_555 1_555
C38_3 C49_3 1_555 1_555
C41_3 C48_3 1_555 1_555
C45_3 C47_3 1_555 1_555
O10_2 C8_3 1_555 1_555
O11_2 C8_3 1_555 1_555
N1_4 C29_4 1_555 1_555
C1_3 C4_3 1_555 1_555
C2_4 H1_4 1_555 1_555
C3_4 H2_4 1_555 1_555
C4_3 C5_3 1_555 1_555
C5_3 H3_3 1_555 1_555
C6_3 C5_3 1_555 1_555
C19_4 H29_4 1_555 1_555
C20_4 H30_4 1_555 1_555
C22_4 H31_4 1_555 1_555
C23_3 C1_3 1_555 1_555
H32_3 C23_3 1_555 1_555
C24_4 C22_4 1_555 1_555
H33_4 C24_4 1_555 1_555
C26_4 C37_4 1_555 1_555
C27_4 C3_4 1_555 1_555
C28_4 H34_4 1_555 1_555
C29_4 C22_4 1_555 1_555
C30_3 C23_3 1_555 1_555
H35_4 C30_3 1_555 1_555
C31_4 N1_4 1_555 1_555
C32_4 N1_4 1_555 1_555
C33_4 C19_4 1_555 1_555
H36_4 C33_4 1_555 1_555
C34_3 H37_3 1_555 1_555
C36_4 C27_4 1_555 1_555
C38_4 C28_4 1_555 1_555
H39_4 C38_4 1_555 1_555
C39_3 C4_3 1_555 1_555
H40_3 C39_3 1_555 1_555
C40_3 C1_3 1_555 1_555
H41_3 C40_3 1_555 1_555
C42_4 C3_4 1_555 1_555
H43_4 C42_4 1_555 1_555
C44_3 C6_3 1_555 1_555
C45_4 C21_4 1_555 1_555
H46_4 C45_4 1_555 1_555
C47_4 C26_4 1_555 1_555
H48_4 C47_4 1_555 1_555
C48_4 C27_4 1_555 1_555
H49_4 C48_4 1_555 1_555
C49_4 C24_4 1_555 1_555
C50_4 C2_4 1_555 1_555
H50_4 C50_4 1_555 1_555
C2_4 C31_4 1_555 1_555
C19_4 C31_4 1_555 1_555
C20_4 C32_4 1_555 1_555
C20_4 C40_3 1_555 1_555
C26_4 C49_4 1_555 1_555
C28_4 C29_4 1_555 1_555
C30_3 C32_4 1_555 1_555
C33_4 C36_4 1_555 1_555
C34_3 C39_3 1_555 1_555
C34_3 C44_3 1_555 1_555
C36_4 C50_4 1_555 1_555
C38_4 C49_4 1_555 1_555
C45_4 C47_4 1_555 1_555
Pb5 N3_2 1_555 1_555
Pb2_3 N4_3 1_555 1_555
Pb7 N2_3 1_555 1_555
N2_3 C10_3 1_555 1_555
N3_2 C13_4 1_555 1_555
N4_3 C9_3 1_555 1_555
O1_4 Pb2_3 1_555 1_555
O2_4 Pb2_3 1_555 1_555
O14 C17_4 1_555 1_555
O7_3 Pb5 1_555 1_555
O8_3 Pb5 1_555 1_555
O9_3 Pb5 1_555 1_555
C7_4 H5_4 1_555 1_555
C9_3 H6_3 1_555 1_555
H7_3 C9_3 1_555 1_555
H8_3 C9_3 1_555 1_555
C10_3 H9_3 1_555 1_555
H10_3 C10_3 1_555 1_555
C11_3 N2_3 1_555 1_555
H11_3 C11_3 1_555 1_555
H12_3 C11_3 1_555 1_555
H13_3 C11_3 1_555 1_555
C12_4 N2_3 1_555 1_555
H14_4 C12_4 1_555 1_555
H15_4 C12_4 1_555 1_555
H16_4 C12_4 1_555 1_555
C13_4 H17_4 1_555 1_555
H18_2 C13_4 1_555 1_555
C14_2 N3_2 1_555 1_555
H19_2 C14_2 1_555 1_555
H20_2 C14_2 1_555 1_555
H21_2 C14_2 1_555 1_555
C15_2 N3_2 1_555 1_555
H22_4 C15_2 1_555 1_555
H23_2 C15_2 1_555 1_555
H24_4 C15_2 1_555 1_555
C16_3 N4_3 1_555 1_555
H25_3 C16_3 1_555 1_555
C18_3 N4_3 1_555 1_555
H26_3 C18_3 1_555 1_555
H27_3 C18_3 1_555 1_555
H28_3 C18_3 1_555 1_555
C25_4 O1_4 1_555 1_555
C35_4 C25_4 1_555 1_555
C41_4 C35_4 1_555 1_555
H42_4 C41_4 1_555 1_555
C43_3 O7_3 1_555 1_555
H44_3 C43_3 1_555 1_555
H45_3 C43_3 1_555 1_555
C46_3 O8_3 1_555 1_555
H47_3 C46_3 1_555 1_555
C51_4 O9_3 1_555 1_555
H51_4 C51_4 1_555 1_555
H52_3 C51_4 1_555 1_555
Pb2_3 O8_3 1_555 1_555
Pb2_3 O9_3 1_555 1_555
Pb7 O7_3 1_555 1_555
Pb7 O9_3 1_555 1_555
O2_4 C25_4 1_555 1_555
C10_3 C43_3 1_555 1_555
C13_4 C51_4 1_555 1_555
C16_3 C46_3 1_555 1_555
C16_3 H53_3 1_555 1_555
C46_3 H54_4 1_555 1_555
O3_2 C8_4 1_555 1_555
O4_2 C8_4 1_555 1_555
C1_4 C4_4 1_555 1_555
C4_4 C5_4 1_555 1_555
C5_4 H3_4 1_555 1_555
C6_4 C5_4 1_555 1_555
H4_4 C6_4 1_555 1_555
C8_4 C44_4 1_555 1_555
C23_4 C1_4 1_555 1_555
H32_4 C23_4 1_555 1_555
C30_4 C23_4 1_555 1_555
C34_4 H37_4 1_555 1_555
C39_4 C4_4 1_555 1_555
H40_4 C39_4 1_555 1_555
C40_4 C1_4 1_555 1_555
H41_4 C40_4 1_555 1_555
C44_4 C6_4 1_555 1_555
Pb6 O3_2 1_555 1_555
O4_2 Pb6 1_555 1_555
C34_4 C39_4 1_555 1_555
C34_4 C44_4 1_555 1_555
N3_3 C13_5 1_555 1_555
H14_5 C12_5 1_555 1_555
H15_5 C12_5 1_555 1_555
H16_5 C12_5 1_555 1_555
C13_5 H17_5 1_555 1_555
H18_3 C13_5 1_555 1_555
C14_3 N3_3 1_555 1_555
H19_3 C14_3 1_555 1_555
H20_3 C14_3 1_555 1_555
H21_3 C14_3 1_555 1_555
C15_3 N3_3 1_555 1_555
H23_3 C15_3 1_555 1_555
H51_5 C51_5 1_555 1_555
C13_5 C51_5 1_555 1_555
Pb2_4 N4_4 1_555 1_555
Pb3_3 N2_4 1_555 1_555
N2_4 C10_4 1_555 1_555
N4_4 C9_4 1_555 1_555
O7_4 Pb4_2 1_555 1_555
O8_4 Pb4_2 1_555 1_555
O9_4 Pb4_2 1_555 1_555
C9_4 H6_4 1_555 1_555
H7_4 C9_4 1_555 1_555
H8_4 C9_4 1_555 1_555
C10_4 H9_4 1_555 1_555
H10_4 C10_4 1_555 1_555
C11_4 N2_4 1_555 1_555
H11_4 C11_4 1_555 1_555
H12_4 C11_4 1_555 1_555
H13_4 C11_4 1_555 1_555
C12_6 N2_4 1_555 1_555
H14_6 C12_6 1_555 1_555
H15_6 C12_6 1_555 1_555
H16_6 C12_6 1_555 1_555
C13_6 H17_6 1_555 1_555
C16_4 N4_4 1_555 1_555
H25_4 C16_4 1_555 1_555
C18_4 N4_4 1_555 1_555
H26_4 C18_4 1_555 1_555
H27_4 C18_4 1_555 1_555
H28_4 C18_4 1_555 1_555
C43_4 O7_4 1_555 1_555
H44_4 C43_4 1_555 1_555
H45_4 C43_4 1_555 1_555
C46_4 O8_4 1_555 1_555
H47_4 C46_4 1_555 1_555
C51_6 O9_4 1_555 1_555
H51_6 C51_6 1_555 1_555
H52_4 C51_6 1_555 1_555
O10_3 Pb3_3 1_555 1_555
O11_3 Pb3_3 1_555 1_555
O13_4 Pb4_2 1_555 1_555
O14_4 Pb4_2 1_555 1_555
Pb2_4 O8_4 1_555 1_555
Pb2_4 O9_4 1_555 1_555
Pb3_3 O7_4 1_555 1_555
Pb3_3 O9_4 1_555 1_555
Pb3_3 O14_4 1_555 1_555
C10_4 C43_4 1_555 1_555
C13_6 C51_6 1_555 1_555
C16_4 C46_4 1_555 1_555
C16_4 H53_4 1_555 1_555
Pb2_5 N4_5 1_555 1_555
Pb6 N2_5 1_555 1_555
N1_5 C29_5 1_555 1_555
N2_5 C10_5 1_555 1_555
N4_5 C9_5 1_555 1_555
O1_5 Pb2_5 1_555 1_555
O2_5 Pb2_5 1_555 1_555
O13_4 C17_5 1_555 1_555
O14_4 C17_5 1_555 1_555
O7_5 Pb5_2 1_555 1_555
O8_5 Pb5_2 1_555 1_555
O9_5 Pb5_2 1_555 1_555
C2_5 H1_5 1_555 1_555
C3_5 H2_5 1_555 1_555
C7_5 H5_5 1_555 1_555
C9_5 H6_5 1_555 1_555
H7_5 C9_5 1_555 1_555
H8_5 C9_5 1_555 1_555
C11_5 N2_5 1_555 1_555
H11_5 C11_5 1_555 1_555
H12_5 C11_5 1_555 1_555
H13_5 C11_5 1_555 1_555
C16_5 N4_5 1_555 1_555
H25_5 C16_5 1_555 1_555
C17_5 C21_5 1_555 1_555
C18_5 N4_5 1_555 1_555
H26_5 C18_5 1_555 1_555
H27_5 C18_5 1_555 1_555
H28_5 C18_5 1_555 1_555
C19_5 H29_5 1_555 1_555
C20_5 H30_5 1_555 1_555
C21_5 C7_5 1_555 1_555
C22_5 H31_5 1_555 1_555
C24_5 C22_5 1_555 1_555
H33_5 C24_5 1_555 1_555
C25_5 O1_5 1_555 1_555
C26_5 C37_5 1_555 1_555
C27_5 C3_5 1_555 1_555
C28_5 H34_5 1_555 1_555
C29_5 C22_5 1_555 1_555
C31_5 N1_5 1_555 1_555
C32_5 N1_5 1_555 1_555
C33_5 C19_5 1_555 1_555
H36_5 C33_5 1_555 1_555
C35_5 C25_5 1_555 1_555
C36_5 C27_5 1_555 1_555
C37_5 C7_5 1_555 1_555
H38_5 C37_5 1_555 1_555
C38_5 C28_5 1_555 1_555
H39_5 C38_5 1_555 1_555
C41_5 C35_5 1_555 1_555
H42_5 C41_5 1_555 1_555
C42_5 C3_5 1_555 1_555
H43_5 C42_5 1_555 1_555
C43_5 O7_5 1_555 1_555
H45_5 C43_5 1_555 1_555
C45_5 C21_5 1_555 1_555
H46_5 C45_5 1_555 1_555
C46_5 O8_5 1_555 1_555
H47_5 C46_5 1_555 1_555
C47_5 C26_5 1_555 1_555
H48_5 C47_5 1_555 1_555
C48_5 C27_5 1_555 1_555
H49_5 C48_5 1_555 1_555
C49_5 C24_5 1_555 1_555
C50_5 C2_5 1_555 1_555
H50_5 C50_5 1_555 1_555
O13_3 Pb5_2 1_555 1_555
Pb2_5 O8_5 1_555 1_555
Pb2_5 O9_5 1_555 1_555
Pb6 O7_5 1_555 1_555
Pb6 O9_5 1_555 1_555
O2_5 C25_5 1_555 1_555
C2_5 C31_5 1_555 1_555
C10_5 C43_5 1_555 1_555
C16_5 C46_5 1_555 1_555
C19_5 C31_5 1_555 1_555
C20_5 C32_5 1_555 1_555
C26_5 C49_5 1_555 1_555
C28_5 C29_5 1_555 1_555
C33_5 C36_5 1_555 1_555
C35_5 C42_5 1_555 1_555
C36_5 C50_5 1_555 1_555
C38_5 C49_5 1_555 1_555
C41_5 C48_5 1_555 1_555
C45_5 C47_5 1_555 1_555
C16_5 H53_5 1_555 1_555
C46_5 H54_5 1_555 1_555
N1_6 C29_6 1_555 1_555
C1_5 C4_5 1_555 1_555
C2_6 H1_6 1_555 1_555
C3_6 H2_6 1_555 1_555
C4_5 C5_5 1_555 1_555
C5_5 H3_5 1_555 1_555
C6_5 C5_5 1_555 1_555
C19_6 H29_6 1_555 1_555
C20_6 H30_6 1_555 1_555
C22_6 H31_6 1_555 1_555
C23_5 C1_5 1_555 1_555
H32_5 C23_5 1_555 1_555
C24_6 C22_6 1_555 1_555
H33_6 C24_6 1_555 1_555
C26_6 C37_6 1_555 1_555
C27_6 C3_6 1_555 1_555
C28_6 H34_6 1_555 1_555
C29_6 C22_6 1_555 1_555
C30_5 C23_5 1_555 1_555
H35_6 C30_5 1_555 1_555
C31_6 N1_6 1_555 1_555
C32_6 N1_6 1_555 1_555
C33_6 C19_6 1_555 1_555
H36_6 C33_6 1_555 1_555
C34_5 H37_5 1_555 1_555
C36_6 C27_6 1_555 1_555
C38_6 C28_6 1_555 1_555
H39_6 C38_6 1_555 1_555
C39_5 C4_5 1_555 1_555
H40_5 C39_5 1_555 1_555
C40_5 C1_5 1_555 1_555
H41_5 C40_5 1_555 1_555
C42_6 C3_6 1_555 1_555
H43_6 C42_6 1_555 1_555
C44_5 C6_5 1_555 1_555
C45_6 C21_6 1_555 1_555
H46_6 C45_6 1_555 1_555
C47_6 C26_6 1_555 1_555
H48_6 C47_6 1_555 1_555
C48_6 C27_6 1_555 1_555
H49_6 C48_6 1_555 1_555
C49_6 C24_6 1_555 1_555
C50_6 C2_6 1_555 1_555
H50_6 C50_6 1_555 1_555
C2_6 C31_6 1_555 1_555
C19_6 C31_6 1_555 1_555
C20_6 C32_6 1_555 1_555
C20_6 C40_5 1_555 1_555
C26_6 C49_6 1_555 1_555
C28_6 C29_6 1_555 1_555
C30_5 C32_6 1_555 1_555
C33_6 C36_6 1_555 1_555
C34_5 C39_5 1_555 1_555
C34_5 C44_5 1_555 1_555
C36_6 C50_6 1_555 1_555
C38_6 C49_6 1_555 1_555
C45_6 C47_6 1_555 1_555
O14_3 C17_6 1_555 1_555
C7_6 H5_6 1_555 1_555
C14_4 N3_4 1_555 1_555
H19_4 C14_4 1_555 1_555
H20_4 C14_4 1_555 1_555
H21_4 C14_4 1_555 1_555
C15_4 N3_4 1_555 1_555
H22_6 C15_4 1_555 1_555
H23_4 C15_4 1_555 1_555
H24_6 C15_4 1_555 1_555
C25_6 O1_6 1_555 1_555
C35_6 C25_6 1_555 1_555
C41_6 C35_6 1_555 1_555
H42_6 C41_6 1_555 1_555
O2_6 C25_6 1_555 1_555
O10_3 C8_5 1_555 1_555
O11_3 C8_5 1_555 1_555
C14_5 N3_5 1_555 1_555
H19_5 C14_5 1_555 1_555
H20_5 C14_5 1_555 1_555
H21_5 C14_5 1_555 1_555
C15_5 N3_5 1_555 1_555
H23_5 C15_5 1_555 1_555
Pb2_6 N4_6 1_555 1_555
Pb3_4 N2_6 1_555 1_555
N1_7 C29_7 1_555 1_555
N2_6 C10_6 1_555 1_555
N4_6 C9_6 1_555 1_555
O1_7 Pb2_6 1_555 1_555
O2_7 Pb2_6 1_555 1_555
O5_2 C17_7 1_555 1_555
O6_3 C17_7 1_555 1_555
O7_6 Pb1_2 1_555 1_555
O8_6 Pb1_2 1_555 1_555
O9_6 Pb1_2 1_555 1_555
C2_7 H1_7 1_555 1_555
C3_7 H2_7 1_555 1_555
C7_7 H5_7 1_555 1_555
C9_6 H6_6 1_555 1_555
H7_6 C9_6 1_555 1_555
H8_6 C9_6 1_555 1_555
C11_6 N2_6 1_555 1_555
H11_6 C11_6 1_555 1_555
H12_6 C11_6 1_555 1_555
H13_6 C11_6 1_555 1_555
C16_6 N4_6 1_555 1_555
H25_6 C16_6 1_555 1_555
C17_7 C21_7 1_555 1_555
C18_6 N4_6 1_555 1_555
H26_6 C18_6 1_555 1_555
H27_6 C18_6 1_555 1_555
H28_6 C18_6 1_555 1_555
C19_7 H29_7 1_555 1_555
C20_7 H30_7 1_555 1_555
C21_7 C7_7 1_555 1_555
C22_7 H31_7 1_555 1_555
C24_7 C22_7 1_555 1_555
H33_7 C24_7 1_555 1_555
C25_7 O1_7 1_555 1_555
C26_7 C37_7 1_555 1_555
C27_7 C3_7 1_555 1_555
C28_7 H34_7 1_555 1_555
C29_7 C22_7 1_555 1_555
C31_7 N1_7 1_555 1_555
C32_7 N1_7 1_555 1_555
C33_7 C19_7 1_555 1_555
H36_7 C33_7 1_555 1_555
C35_7 C25_7 1_555 1_555
C36_7 C27_7 1_555 1_555
C37_7 C7_7 1_555 1_555
H38_7 C37_7 1_555 1_555
C38_7 C28_7 1_555 1_555
H39_7 C38_7 1_555 1_555
C41_7 C35_7 1_555 1_555
H42_7 C41_7 1_555 1_555
C42_7 C3_7 1_555 1_555
H43_7 C42_7 1_555 1_555
C43_6 O7_6 1_555 1_555
H45_6 C43_6 1_555 1_555
C45_7 C21_7 1_555 1_555
H46_7 C45_7 1_555 1_555
C46_6 O8_6 1_555 1_555
H47_6 C46_6 1_555 1_555
C47_7 C26_7 1_555 1_555
H48_7 C47_7 1_555 1_555
C48_7 C27_7 1_555 1_555
H49_7 C48_7 1_555 1_555
C49_7 C24_7 1_555 1_555
C50_7 C2_7 1_555 1_555
H50_7 C50_7 1_555 1_555
Pb5_3 O5_2 1_555 1_555
Pb7_2 O6_3 1_555 1_555
O10_4 Pb3_4 1_555 1_555
O11_4 Pb3_4 1_555 1_555
O12_2 Pb1_2 1_555 1_555
Pb2_6 O8_6 1_555 1_555
Pb2_6 O9_6 1_555 1_555
Pb3_4 O7_6 1_555 1_555
Pb3_4 O9_6 1_555 1_555
O2_7 C25_7 1_555 1_555
O6_3 Pb5_3 1_555 1_555
C2_7 C31_7 1_555 1_555
C10_6 C43_6 1_555 1_555
C16_6 C46_6 1_555 1_555
C19_7 C31_7 1_555 1_555
C20_7 C32_7 1_555 1_555
C26_7 C49_7 1_555 1_555
C28_7 C29_7 1_555 1_555
C33_7 C36_7 1_555 1_555
C35_7 C42_7 1_555 1_555
C36_7 C50_7 1_555 1_555
C38_7 C49_7 1_555 1_555
C41_7 C48_7 1_555 1_555
C45_7 C47_7 1_555 1_555
C16_6 H53_6 1_555 1_555
C46_6 H54_7 1_555 1_555
O6_4 C17_8 1_555 1_555
C7_8 H5_8 1_555 1_555
C14_6 N3_6 1_555 1_555
H19_6 C14_6 1_555 1_555
H20_6 C14_6 1_555 1_555
H21_6 C14_6 1_555 1_555
C15_6 N3_6 1_555 1_555
H22_8 C15_6 1_555 1_555
H23_6 C15_6 1_555 1_555
H24_8 C15_6 1_555 1_555
C25_8 O1_8 1_555 1_555
C35_8 C25_8 1_555 1_555
C41_8 C35_8 1_555 1_555
H42_8 C41_8 1_555 1_555
O2_8 C25_8 1_555 1_555
N1_8 C29_8 1_555 1_555
C1_6 C4_6 1_555 1_555
C2_8 H1_8 1_555 1_555
C3_8 H2_8 1_555 1_555
C4_6 C5_6 1_555 1_555
C5_6 H3_6 1_555 1_555
C6_6 C5_6 1_555 1_555
C19_8 H29_8 1_555 1_555
C20_8 H30_8 1_555 1_555
C22_8 H31_8 1_555 1_555
C23_6 C1_6 1_555 1_555
H32_6 C23_6 1_555 1_555
C24_8 C22_8 1_555 1_555
H33_8 C24_8 1_555 1_555
C26_8 C37_8 1_555 1_555
C27_8 C3_8 1_555 1_555
C28_8 H34_8 1_555 1_555
C29_8 C22_8 1_555 1_555
C30_6 C23_6 1_555 1_555
H35_8 C30_6 1_555 1_555
C31_8 N1_8 1_555 1_555
C32_8 N1_8 1_555 1_555
C33_8 C19_8 1_555 1_555
H36_8 C33_8 1_555 1_555
C34_6 H37_6 1_555 1_555
C36_8 C27_8 1_555 1_555
C38_8 C28_8 1_555 1_555
H39_8 C38_8 1_555 1_555
C39_6 C4_6 1_555 1_555
H40_6 C39_6 1_555 1_555
C40_6 C1_6 1_555 1_555
H41_6 C40_6 1_555 1_555
C42_8 C3_8 1_555 1_555
H43_8 C42_8 1_555 1_555
C44_6 C6_6 1_555 1_555
C45_8 C21_8 1_555 1_555
H46_8 C45_8 1_555 1_555
C47_8 C26_8 1_555 1_555
H48_8 C47_8 1_555 1_555
C48_8 C27_8 1_555 1_555
H49_8 C48_8 1_555 1_555
C49_8 C24_8 1_555 1_555
C50_8 C2_8 1_555 1_555
H50_8 C50_8 1_555 1_555
C2_8 C31_8 1_555 1_555
C19_8 C31_8 1_555 1_555
C20_8 C32_8 1_555 1_555
C20_8 C40_6 1_555 1_555
C26_8 C49_8 1_555 1_555
C28_8 C29_8 1_555 1_555
C30_6 C32_8 1_555 1_555
C33_8 C36_8 1_555 1_555
C34_6 C39_6 1_555 1_555
C34_6 C44_6 1_555 1_555
C36_8 C50_8 1_555 1_555
C38_8 C49_8 1_555 1_555
C45_8 C47_8 1_555 1_555
O3_3 C8_6 1_555 1_555
O4_3 C8_6 1_555 1_555
Pb7_2 O3_3 1_555 1_555
O4_3 Pb7_2 1_555 1_555
O10_4 C8_7 1_555 1_555
O11_4 C8_7 1_555 1_555
C1_7 C4_7 1_555 1_555
C4_7 C5_7 1_555 1_555
C5_7 H3_7 1_555 1_555
C6_7 C5_7 1_555 1_555
H4_7 C6_7 1_555 1_555
C8_7 C44_7 1_555 1_555
C23_7 C1_7 1_555 1_555
H32_7 C23_7 1_555 1_555
C30_7 C23_7 1_555 1_555
C34_7 H37_7 1_555 1_555
C39_7 C4_7 1_555 1_555
H40_7 C39_7 1_555 1_555
C40_7 C1_7 1_555 1_555
H41_7 C40_7 1_555 1_555
C44_7 C6_7 1_555 1_555
C34_7 C39_7 1_555 1_555
C34_7 C44_7 1_555 1_555
N3_7 C13_7 1_555 1_555
H14_7 C12_7 1_555 1_555
H15_7 C12_7 1_555 1_555
H16_7 C12_7 1_555 1_555
C13_7 H17_7 1_555 1_555
H18_7 C13_7 1_555 1_555
C14_7 N3_7 1_555 1_555
H19_7 C14_7 1_555 1_555
H20_7 C14_7 1_555 1_555
H21_7 C14_7 1_555 1_555
C15_7 N3_7 1_555 1_555
H23_7 C15_7 1_555 1_555
H51_7 C51_7 1_555 1_555
C13_7 C51_7 1_555 1_555
Pb2_7 N4_7 1_555 1_555
Pb7_2 N2_7 1_555 1_555
N2_7 C10_7 1_555 1_555
N4_7 C9_7 1_555 1_555
O7_7 Pb5_3 1_555 1_555
O8_7 Pb5_3 1_555 1_555
O9_7 Pb5_3 1_555 1_555
C9_7 H6_7 1_555 1_555
H7_7 C9_7 1_555 1_555
H8_7 C9_7 1_555 1_555
C10_7 H9_6 1_555 1_555
H10_6 C10_7 1_555 1_555
C11_7 N2_7 1_555 1_555
H11_7 C11_7 1_555 1_555
H12_7 C11_7 1_555 1_555
H13_7 C11_7 1_555 1_555
C12_8 N2_7 1_555 1_555
H14_8 C12_8 1_555 1_555
H15_8 C12_8 1_555 1_555
H16_8 C12_8 1_555 1_555
C13_8 H17_8 1_555 1_555
C16_7 N4_7 1_555 1_555
H25_7 C16_7 1_555 1_555
C18_7 N4_7 1_555 1_555
H26_7 C18_7 1_555 1_555
H27_7 C18_7 1_555 1_555
H28_7 C18_7 1_555 1_555
C43_7 O7_7 1_555 1_555
H44_6 C43_7 1_555 1_555
H45_7 C43_7 1_555 1_555
C46_7 O8_7 1_555 1_555
H47_7 C46_7 1_555 1_555
C51_8 O9_7 1_555 1_555
H51_8 C51_8 1_555 1_555
H52_7 C51_8 1_555 1_555
Pb2_7 O8_7 1_555 1_555
Pb2_7 O9_7 1_555 1_555
Pb7_2 O7_7 1_555 1_555
Pb7_2 O9_7 1_555 1_555
C10_7 C43_7 1_555 1_555
C13_8 C51_8 1_555 1_555
C16_7 C46_7 1_555 1_555
C16_7 H53_7 1_555 1_555
O3_4 C8_8 1_555 1_555
O4_4 C8_8 1_555 1_555
C1_8 C4_8 1_555 1_555
C4_8 C5_8 1_555 1_555
C5_8 H3_8 1_555 1_555
C6_8 C5_8 1_555 1_555
H4_8 C6_8 1_555 1_555
C8_8 C44_8 1_555 1_555
C23_8 C1_8 1_555 1_555
H32_8 C23_8 1_555 1_555
C30_8 C23_8 1_555 1_555
C34_8 H37_8 1_555 1_555
C39_8 C4_8 1_555 1_555
H40_8 C39_8 1_555 1_555
C40_8 C1_8 1_555 1_555
H41_8 C40_8 1_555 1_555
C44_8 C6_8 1_555 1_555
Pb6_2 O3_4 1_555 1_555
O4_4 Pb6_2 1_555 1_555
C34_8 C39_8 1_555 1_555
C34_8 C44_8 1_555 1_555
Pb2_8 N4_8 1_555 1_555
Pb6_2 N2_8 1_555 1_555
N2_8 C10_8 1_555 1_555
N4_8 C9_8 1_555 1_555
O7_8 Pb5_4 1_555 1_555
O8_8 Pb5_4 1_555 1_555
O9_8 Pb5_4 1_555 1_555
C9_8 H6_8 1_555 1_555
H7_8 C9_8 1_555 1_555
H8_8 C9_8 1_555 1_555
C11_8 N2_8 1_555 1_555
H11_8 C11_8 1_555 1_555
H12_8 C11_8 1_555 1_555
H13_8 C11_8 1_555 1_555
C16_8 N4_8 1_555 1_555
H25_8 C16_8 1_555 1_555
C18_8 N4_8 1_555 1_555
H26_8 C18_8 1_555 1_555
H27_8 C18_8 1_555 1_555
H28_8 C18_8 1_555 1_555
C43_8 O7_8 1_555 1_555
H45_8 C43_8 1_555 1_555
C46_8 O8_8 1_555 1_555
H47_8 C46_8 1_555 1_555
Pb2_8 O8_8 1_555 1_555
Pb2_8 O9_8 1_555 1_555
Pb6_2 O7_8 1_555 1_555
Pb6_2 O9_8 1_555 1_555
C10_8 C43_8 1_555 1_555
C16_8 C46_8 1_555 1_555
C16_8 H53_8 1_555 1_555
C14_8 N3_8 1_555 1_555
H19_8 C14_8 1_555 1_555
H20_8 C14_8 1_555 1_555
H21_8 C14_8 1_555 1_555
C15_8 N3_8 1_555 1_555
H23_8 C15_8 1_555 1_555

#END
