
###############################################################################
#
# This file contains modified crystal structure data generated from the
# MOF subset of the Cambridge Structural Database (CSD) v543 
# hosted by the Cambridge Crystallographic Data Centre (CCDC).
#
# This work is licensed under the Creative Commons
# Attribution-NonCommercial-ShareAlike 4.0 International License.
# To view a copy of this license, visit
# http://creativecommons.org/licenses/by-nc-sa/4.0/
# or send a letter to
# Creative Commons, PO Box 1866, Mountain View, CA 94042, USA.
#
# CIF created using the CSD Python API on 29 September 2022
# The structure has been converted into the P1 space group
# The structure has a 3D framework
# The original CSD entry HEJPIZ is in the monoclinic crystal system
# The original CSD entry HEJPIZ is in a Sohncke space group
# The framework has been calculated to contain at least 10.0% void space
# The void calculation uses a probe of radius 1.32A, grid spacing 0.4
#
###############################################################################

data_HEJPIZ
_chemical_formula_moiety         '(C224 H112 O132 V28)n'
_symmetry_cell_setting           triclinic
_symmetry_space_group_name_H-M   'P 1'
_symmetry_Int_Tables_number      1
_space_group_name_Hall           'P 1'
loop_
_symmetry_equiv_pos_site_id
_symmetry_equiv_pos_as_xyz
1 x,y,z
_cell_length_a                   23.903(2)
_cell_length_b                   17.1907(15)
_cell_length_c                   25.722(2)
_cell_angle_alpha                90
_cell_angle_beta                 105.9140(8)
_cell_angle_gamma                90
_cell_volume                     10164.3
loop_
_atom_site_label
_atom_site_type_symbol
_atom_site_fract_x
_atom_site_fract_y
_atom_site_fract_z
V33 V 0.65870(8) 0.0061(2) 0.21325(7)
V35 V 0.52049(8) 0.0077(2) 0.12748(7)
V37 V 0.37323(8) 0.0059(2) 0.06869(7)
V16 V 0.37806(8) 0.0074(2) 0.55586(7)
V18 V 0.51638(8) 0.0059(2) 0.64148(7)
V21 V 0.66349(8) 0.0077(2) 0.69943(8)
V24 V 0.08776(8) 0.0059(2) 0.92604(7)
V27 V 0.23491(8) 0.0076(2) 0.98402(7)
V30 V 0.23033(9) 0.0059(2) 0.49707(8)
V31 V 0.09225(9) 0.0076(2) 0.41278(8)
C81 C 0.6205(6) 0.9038(7) 0.1174(5)
C82 C 0.6333(5) 0.8331(7) 0.0908(5)
C83 C 0.6887(6) 0.8024(8) 0.1045(6)
H41 H 0.7185 0.8277 0.1298
C84 C 0.7002(6) 0.7338(8) 0.0806(6)
H42 H 0.7375 0.7126 0.0909
C85 C 0.6574(5) 0.6975(7) 0.0422(5)
C86 C 0.6009(6) 0.7289(8) 0.0268(6)
H43 H 0.5712 0.7046 0.0008
C87 C 0.5906(6) 0.7964(8) 0.0513(6)
H44 H 0.5536 0.8182 0.0409
C88 C 0.6675(6) 0.6241(7) 0.0161(5)
O55 O 0.6609(4) 0.9307(5) 0.1560(3)
O56 O 0.5692(4) 0.9319(5) 0.1015(3)
O58 O 0.7200(4) 0.5961(5) 0.0331(3)
O60 O 0.3757(3) 0.9303(5) 0.0115(3)
V26 V 0.76509(8) 0.5076(2) 0.01598(7)
C33 C 0.0448(5) 0.1246(7) 0.8414(5)
C34 C 0.0569(5) 0.1991(7) 0.8168(5)
C35 C 0.1111(6) 0.2347(8) 0.8362(5)
H17 H 0.1391 0.2136 0.8652
C36 C 0.1225(6) 0.3020(8) 0.8115(6)
H18 H 0.1589 0.3253 0.8231
C37 C 0.0803(5) 0.3347(8) 0.7699(5)
C38 C 0.0262(6) 0.3007(8) 0.7507(6)
C39 C 0.0146(6) 0.2328(8) 0.7751(6)
C40 C 0.0938(6) 0.4056(7) 0.7409(5)
C41 C 0.2955(6) 0.1095(7) 0.5898(5)
C42 C 0.2886(5) 0.1812(7) 0.6211(5)
C43 C 0.3358(6) 0.2120(8) 0.6574(6)
H21 H 0.3715 0.1868 0.6637
C44 C 0.3323(6) 0.2797(8) 0.6852(6)
H22 H 0.3647 0.3000 0.7103
C45 C 0.2780(5) 0.3166(7) 0.6744(5)
C46 C 0.2308(6) 0.2839(8) 0.6397(6)
H23 H 0.1947 0.3077 0.6346
C47 C 0.2342(6) 0.2165(8) 0.6114(6)
H24 H 0.2015 0.1956 0.5870
C48 C 0.2728(6) 0.3902(7) 0.7040(5)
C49 C 0.0139(5) 0.8883(7) 0.4372(5)
C50 C 0.0092(5) 0.8139(7) 0.4657(5)
C51 C 0.0539(6) 0.7838(8) 0.5030(6)
H25 H 0.0896 0.8092 0.5109
C52 C 0.0493(6) 0.7181(9) 0.5297(6)
H26 H 0.0817 0.6991 0.5555
C57 C 0.2986(6) 0.8889(7) 0.5789(5)
C58 C 0.2939(5) 0.8138(7) 0.6065(5)
C59 C 0.3426(6) 0.7794(8) 0.6409(6)
H29 H 0.3790 0.8021 0.6461
C60 C 0.3368(6) 0.7114(8) 0.6671(6)
H30 H 0.3696 0.6877 0.6896
C61 C 0.2817(6) 0.6774(8) 0.6603(5)
C62 C 0.2346(6) 0.7110(8) 0.6271(6)
H31 H 0.1982 0.6883 0.6224
C63 C 0.2394(5) 0.7803(8) 0.5990(5)
H32 H 0.2067 0.8030 0.5759
C64 C 0.2767(6) 0.6077(7) 0.6933(5)
C65 C 0.5852(5) 0.8897(7) 0.7249(5)
C66 C 0.5796(3) 0.8160(4) 0.7527(3)
C67 C 0.6283(3) 0.7818(5) 0.7876(4)
H33 H 0.6648 0.8044 0.7927
C68 C 0.6225(3) 0.7138(5) 0.8149(3)
H34 H 0.6550 0.6909 0.8382
C69 C 0.5680(3) 0.6800(5) 0.8072(3)
C70 C 0.5193(3) 0.7142(5) 0.7723(3)
H35 H 0.4829 0.6916 0.7672
C71 C 0.5252(3) 0.7823(5) 0.7451(3)
H36 H 0.4926 0.8052 0.7217
C72 C 0.5625(6) 0.6098(7) 0.8383(5)
C89 C 0.3344(5) 0.9043(7) 0.9725(5)
C90 C 0.3478(6) 0.8341(8) 0.9447(5)
C91 C 0.4032(6) 0.8067(9) 0.9571(6)
H45 H 0.4329 0.8330 0.9818
C92 C 0.4151(6) 0.7385(8) 0.9322(5)
H46 H 0.4530 0.7198 0.9400
C93 C 0.3711(5) 0.6994(7) 0.8964(5)
C94 C 0.3146(6) 0.7291(8) 0.8831(6)
H47 H 0.2846 0.7040 0.8579
C95 C 0.3042(6) 0.7959(9) 0.9077(6)
H48 H 0.2666 0.8158 0.8992
C96 C 0.3831(5) 0.6247(7) 0.8711(5)
C97 C 0.0493(5) 0.9052(7) 0.8302(5)
C98 C 0.0625(5) 0.8350(7) 0.8013(5)
C99 C 0.1174(6) 0.8016(8) 0.8186(6)
H49 H 0.1464 0.8249 0.8458
C100 C 0.1284(6) 0.7328(8) 0.7948(6)
H50 H 0.1646 0.7089 0.8066
C101 C 0.0852(6) 0.7001(7) 0.7533(5)
C102 C 0.0317(6) 0.7353(8) 0.7350(6)
H51 H 0.0036 0.7138 0.7062
C103 C 0.0197(6) 0.8027(8) 0.7594(6)
C104 C 0.0972(6) 0.6245(7) 0.7276(5)
O6 O 0.0180(3) 0.0019(5) 0.9167(3)
O10 O 0.1240(3) 0.5019(5) 0.6534(3)
O11 O 0.2488(3) 0.5116(5) 0.7817(3)
O12 O 0.4106(3) 0.5015(5) 0.7962(3)
O13 O 0.5340(3) 0.5109(5) 0.9261(3)
O14 O 0.6958(3) 0.5021(5) 0.9403(3)
O32 O 0.0868(4) 0.0961(5) 0.8788(3)
O33 O 0.1449(4) 0.4310(5) 0.7552(3)
O34 O 0.0532(3) 0.4321(5) 0.7030(3)
O35 O 0.2512(4) 0.0829(5) 0.5577(3)
O36 O 0.3466(4) 0.0818(5) 0.5989(3)
O37 O 0.3176(4) 0.4177(5) 0.7355(3)
O38 O 0.2211(4) 0.4175(5) 0.6951(3)
O40 O 0.0640(4) 0.9177(5) 0.4461(3)
O41 O 0.0356(4) 0.5800(5) 0.5831(3)
O43 O 0.2543(4) 0.9171(5) 0.5487(4)
O44 O 0.3500(4) 0.9169(5) 0.5887(3)
O45 O 0.2244(4) 0.5825(5) 0.6854(3)
O46 O 0.3208(4) 0.5814(5) 0.7250(3)
O47 O 0.5392(3) 0.9184(5) 0.6935(3)
O48 O 0.6354(4) 0.9181(5) 0.7334(3)
O49 O 0.6074(3) 0.5829(5) 0.8716(3)
O50 O 0.5119(4) 0.5816(5) 0.8298(3)
O57 O 0.6282(4) 0.5952(5) 0.9803(4)
O59 O 0.2840(4) 0.9321(5) 0.9583(3)
O61 O 0.4343(4) 0.5970(5) 0.8886(3)
O62 O 0.3415(4) 0.5960(5) 0.8344(3)
O64 O 0.0898(4) 0.9326(5) 0.8676(3)
O65 O 0.1486(4) 0.5965(5) 0.7463(3)
O66 O 0.0570(4) 0.5970(5) 0.6922(3)
V10 V 0.05522(9) 0.5060(2) 0.64460(8)
V11 V 0.19350(8) 0.5078(2) 0.72912(8)
V12 V 0.34130(8) 0.5061(2) 0.78675(7)
V13 V 0.47951(8) 0.5077(2) 0.87252(7)
V14 V 0.62677(8) 0.5059(2) 0.93131(7)
O72 O 0.1800(3) 0.0113(5) 0.9311(3)
O76 O 0.6036(3) 0.4177(5) 0.8798(3)
O77 O 0.5076(4) 0.4175(5) 0.8394(3)
O81 O 0.0322(4) 0.4164(5) 0.5948(3)
O89 O 0.1070(4) 0.0820(5) 0.9864(3)
O90 O 0.3391(4) 0.4307(5) 0.8440(3)
O91 O 0.4308(4) 0.4319(5) 0.8985(3)
O94 O 0.6243(3) 0.4303(5) 0.9885(3)
O78 O 0.1110(3) 0.9161(5) 0.9762(3)
V22 V 0.80193(8) 0.0059(2) 0.78466(7)
V23 V 0.94890(9) 0.0077(2) 0.84171(7)
V32 V 0.94478(9) 0.0060(2) 0.35540(8)
O7 O 0.8200(3) 0.5113(5) 0.0689(3)
O29 O 0.8890(3) 0.4161(5) 0.0238(3)
O53 O 0.8930(4) 0.5820(5) 0.0136(3)
O93 O 0.7160(4) 0.4321(5) 0.0417(3)
V25 V 0.91224(8) 0.5059(2) 0.07396(7)
C1 C 0.5216(6) 0.4042(7) 0.4536(5)
C2 C 0.5093(5) 0.3332(7) 0.4825(5)
C3 C 0.5536(6) 0.2954(8) 0.5195(6)
H1 H 0.5912 0.3154 0.5284
C4 C 0.5417(6) 0.2272(8) 0.5431(6)
H2 H 0.5717 0.2015 0.5679
C5 C 0.4861(5) 0.1968(8) 0.5306(5)
C6 C 0.4413(6) 0.2357(8) 0.4935(6)
H3 H 0.4036 0.2160 0.4849
C7 C 0.4528(6) 0.3024(8) 0.4698(6)
H4 H 0.4228 0.3280 0.4450
C8 C 0.4742(5) 0.1231(7) 0.5560(5)
C9 C 0.7588(5) 0.1259(7) 0.6996(5)
C10 C 0.7709(5) 0.2000(8) 0.6761(5)
C11 C 0.8262(6) 0.2316(8) 0.6912(6)
H5 H 0.8555 0.2074 0.7176
C12 C 0.8376(6) 0.2985(9) 0.6672(6)
H6 H 0.8750 0.3190 0.6774
C13 C 0.8080(5) 0.4052(7) 0.5989(5)
C14 C 0.7391(6) 0.3038(9) 0.6125(6)
H7 H 0.7098 0.3278 0.5859
C15 C 0.7283(6) 0.2365(8) 0.6367(6)
H8 H 0.6912 0.2151 0.6263
C16 C 0.7955(5) 0.3358(7) 0.6287(5)
C17 C 0.5807(6) 0.1086(7) 0.7342(5)
C18 C 0.5739(5) 0.1800(7) 0.7662(5)
C19 C 0.6237(5) 0.2150(8) 0.8010(5)
H9 H 0.6600 0.1918 0.8067
C20 C 0.6183(6) 0.2808(8) 0.8253(6)
H10 H 0.6514 0.3050 0.8466
C21 C 0.5644(5) 0.3149(7) 0.8198(5)
C22 C 0.5160(6) 0.2790(9) 0.7883(6)
H11 H 0.4795 0.3005 0.7855
C23 C 0.5200(5) 0.2125(9) 0.7610(6)
H12 H 0.4868 0.1892 0.7391
C24 C 0.5584(6) 0.3886(8) 0.8484(5)
C25 C 0.8667(5) 0.1081(7) 0.8784(5)
C26 C 0.8596(5) 0.1782(7) 0.9100(5)
C27 C 0.9077(6) 0.2092(8) 0.9479(6)
H13 H 0.9434 0.1838 0.9551
C28 C 0.9030(6) 0.2775(8) 0.9749(6)
H14 H 0.9354 0.2985 0.9996
C29 C 0.8496(5) 0.3140(8) 0.9647(5)
C30 C 0.8001(6) 0.2828(8) 0.9277(5)
H15 H 0.7641 0.3069 0.9217
C31 C 0.8064(6) 0.2144(8) 0.8999(6)
H16 H 0.7744 0.1935 0.8746
C32 C 0.8440(5) 0.3882(7) 0.9925(5)
H19 H 0.9982 0.3229 0.7221
H20 H 0.9781 0.2098 0.7633
C53 C 0.9979(5) 0.6786(7) 0.5196(5)
C54 C 0.9504(6) 0.7074(8) 0.4795(5)
H27 H 0.9154 0.6801 0.4706
C55 C 0.9549(6) 0.7759(8) 0.4529(6)
H28 H 0.9230 0.7963 0.4272
C56 C 0.9900(6) 0.6085(7) 0.5511(5)
C73 C 0.8702(6) 0.8890(7) 0.8662(5)
C74 C 0.8657(5) 0.8156(8) 0.8947(5)
C75 C 0.9130(6) 0.7863(8) 0.9346(5)
H37 H 0.9486 0.8120 0.9431
C76 C 0.9061(6) 0.7180(8) 0.9615(6)
H38 H 0.9375 0.6980 0.9880
C77 C 0.8526(5) 0.6792(8) 0.9490(5)
C78 C 0.8068(6) 0.7094(8) 0.9114(6)
H39 H 0.7710 0.6845 0.9036
C79 C 0.8127(6) 0.7770(8) 0.8845(5)
H40 H 0.7805 0.7971 0.8590
C80 C 0.8478(6) 0.6093(7) 0.9814(5)
H52 H 0.9833 0.8260 0.7477
C105 C 0.7629(6) 0.9042(7) 0.6893(5)
C106 C 0.7762(5) 0.8332(7) 0.6618(5)
C107 C 0.8313(6) 0.7987(8) 0.6786(6)
H53 H 0.8604 0.8215 0.7060
C108 C 0.8423(6) 0.7323(8) 0.6549(6)
H54 H 0.8789 0.7093 0.6663
C109 C 0.7986(5) 0.6977(7) 0.6131(5)
C110 C 0.7452(6) 0.7318(8) 0.5968(6)
H55 H 0.7163 0.7091 0.5692
C111 C 0.7331(6) 0.7991(8) 0.6204(6)
H56 H 0.6965 0.8218 0.6087
C112 C 0.8115(5) 0.6241(7) 0.5884(5)
O1 O 0.3235(3) 0.0110(5) 0.5030(3)
O2 O 0.4465(3) 0.0025(5) 0.6317(3)
O3 O 0.6089(3) 0.0113(5) 0.6468(3)
O4 O 0.7325(3) 0.0021(5) 0.7754(3)
O5 O 0.8944(3) 0.0119(5) 0.7891(3)
O8 O 0.8389(3) 0.5015(5) 0.5118(3)
O9 O 0.9626(3) 0.5122(5) 0.6396(3)
O15 O 0.5726(3) 0.4315(5) 0.4700(3)
O16 O 0.4815(3) 0.4292(5) 0.4155(3)
O17 O 0.5156(4) 0.0952(5) 0.5929(4)
O18 O 0.4237(4) 0.0959(5) 0.5392(3)
O19 O 0.7096(3) 0.0966(5) 0.6835(3)
O20 O 0.8005(3) 0.0958(5) 0.7372(3)
O21 O 0.8595(4) 0.4323(5) 0.6143(3)
O22 O 0.7672(4) 0.4312(5) 0.5608(3)
O23 O 0.5352(4) 0.0823(5) 0.7014(3)
O24 O 0.6318(4) 0.0830(5) 0.7428(3)
O27 O 0.8220(3) 0.0807(5) 0.8457(3)
O28 O 0.9179(3) 0.0824(5) 0.8848(3)
O30 O 0.7923(3) 0.4179(5) 0.9818(3)
O31 O 0.9953(4) 0.0963(5) 0.8250(3)
O39 O 0.9678(4) 0.9164(5) 0.4052(3)
O42 O 0.9397(4) 0.5829(5) 0.5444(4)
O51 O 0.8252(3) 0.9173(5) 0.8356(3)
O52 O 0.9218(4) 0.9177(5) 0.8764(3)
O54 O 0.7957(4) 0.5830(5) 0.9725(3)
O63 O 0.9973(3) 0.9313(5) 0.8147(3)
O67 O 0.7125(4) 0.9317(5) 0.6736(3)
O68 O 0.8044(4) 0.9310(5) 0.7275(3)
O69 O 0.8615(4) 0.5958(5) 0.6039(3)
O70 O 0.7703(3) 0.5950(5) 0.5514(3)
V8 V 0.76967(9) 0.5059(2) 0.50293(8)
V9 V 0.90775(9) 0.5076(2) 0.58722(8)
O71 O 0.6765(3) 0.5110(5) 0.4970(3)
O79 O 0.7488(4) 0.5829(5) 0.4423(3)
O82 O 0.9360(4) 0.4177(5) 0.5539(3)
O83 O 0.7457(4) 0.4171(5) 0.4513(4)
V17 V 0.62194(8) 0.5074(2) 0.44414(7)
V19 V 0.48362(8) 0.5059(2) 0.35852(7)
O74 O 0.4274(3) 0.9315(5) 0.5300(3)
O75 O 0.5185(3) 0.9292(5) 0.5845(3)
C53_2 C 0.0021(5) 0.1786(7) 0.4804(5)
C54_2 C 0.0496(6) 0.2074(8) 0.5205(5)
H27_2 H 0.0846 0.1801 0.5294
C55_2 C 0.0451(6) 0.2759(8) 0.5471(6)
H28_2 H 0.0770 0.2963 0.5728
C56_2 C 0.0100(6) 0.1085(7) 0.4489(5)
C73_2 C 0.1298(6) 0.3890(7) 0.1338(5)
C74_2 C 0.1343(5) 0.3156(8) 0.1053(5)
C75_2 C 0.0870(6) 0.2863(8) 0.0654(5)
H37_2 H 0.0514 0.3120 0.0569
C76_2 C 0.0939(6) 0.2180(8) 0.0385(6)
H38_2 H 0.0625 0.1980 0.0120
C77_2 C 0.1474(5) 0.1792(8) 0.0510(5)
C78_2 C 0.1932(6) 0.2094(8) 0.0886(6)
H39_2 H 0.2290 0.1845 0.0964
C79_2 C 0.1873(6) 0.2770(8) 0.1155(5)
H40_2 H 0.2195 0.2971 0.1410
C80_2 C 0.1522(6) 0.1093(7) 0.0186(5)
H52_2 H 0.0167 0.3260 0.2523
C105_2 C 0.2371(6) 0.4042(7) 0.3107(5)
C106_2 C 0.2238(5) 0.3332(7) 0.3382(5)
C107_2 C 0.1687(6) 0.2987(8) 0.3214(6)
H53_2 H 0.1396 0.3215 0.2940
C108_2 C 0.1577(6) 0.2323(8) 0.3451(6)
H54_2 H 0.1211 0.2093 0.3337
C109_2 C 0.2014(5) 0.1977(7) 0.3869(5)
C110_2 C 0.2548(6) 0.2318(8) 0.4032(6)
H55_2 H 0.2837 0.2091 0.4308
C111_2 C 0.2669(6) 0.2991(8) 0.3796(6)
H56_2 H 0.3035 0.3218 0.3913
C112_2 C 0.1885(5) 0.1241(7) 0.4116(5)
O8_2 O 0.1611(3) 0.0015(5) 0.4882(3)
O9_2 O 0.0374(3) 0.0122(5) 0.3604(3)
O42_2 O 0.0603(4) 0.0829(5) 0.4556(4)
O51_2 O 0.1748(3) 0.4173(5) 0.1644(3)
O52_2 O 0.0782(4) 0.4177(5) 0.1236(3)
O54_2 O 0.2043(4) 0.0830(5) 0.0275(3)
O63_2 O 0.0027(3) 0.4313(5) 0.1853(3)
O67_2 O 0.2875(4) 0.4317(5) 0.3264(3)
O68_2 O 0.1956(4) 0.4310(5) 0.2725(3)
O69_2 O 0.1385(4) 0.0958(5) 0.3961(3)
O70_2 O 0.2297(3) 0.0950(5) 0.4486(3)
O73 O 0.3042(3) 0.0021(5) 0.0597(3)
V20 V 0.33651(8) 0.5077(2) 0.30057(8)
V22_2 V 0.19807(8) 0.5059(2) 0.21534(7)
V23_2 V 0.05110(9) 0.5077(2) 0.15829(7)
O92 O 0.2800(4) 0.0961(5) 0.9669(3)
C1_2 C 0.4784(6) 0.9042(7) 0.5464(5)
C2_2 C 0.4907(5) 0.8332(7) 0.5175(5)
C3_2 C 0.4464(6) 0.7954(8) 0.4805(6)
H1_2 H 0.4088 0.8154 0.4716
C4_2 C 0.4583(6) 0.7272(8) 0.4569(6)
H2_2 H 0.4283 0.7015 0.4321
C5_2 C 0.5139(5) 0.6968(8) 0.4694(5)
C6_2 C 0.5587(6) 0.7357(8) 0.5065(6)
H3_2 H 0.5964 0.7160 0.5151
C7_2 C 0.5472(6) 0.8024(8) 0.5302(6)
H4_2 H 0.5772 0.8280 0.5550
C8_2 C 0.5258(5) 0.6231(7) 0.4440(5)
C9_2 C 0.2412(5) 0.6259(7) 0.3004(5)
C10_2 C 0.2291(5) 0.7000(8) 0.3239(5)
C11_2 C 0.1738(6) 0.7316(8) 0.3088(6)
H5_2 H 0.1445 0.7074 0.2824
C12_2 C 0.1624(6) 0.7985(9) 0.3328(6)
H6_2 H 0.1250 0.8190 0.3226
C13_2 C 0.1920(5) 0.9052(7) 0.4011(5)
C14_2 C 0.2609(6) 0.8038(9) 0.3875(6)
H7_2 H 0.2902 0.8278 0.4141
C15_2 C 0.2717(6) 0.7365(8) 0.3633(6)
H8_2 H 0.3088 0.7151 0.3737
C16_2 C 0.2045(5) 0.8358(7) 0.3713(5)
C17_2 C 0.4193(6) 0.6086(7) 0.2658(5)
C18_2 C 0.4261(5) 0.6800(7) 0.2338(5)
C19_2 C 0.3763(5) 0.7150(8) 0.1990(5)
H9_2 H 0.3400 0.6918 0.1933
C20_2 C 0.3817(6) 0.7808(8) 0.1747(6)
H10_2 H 0.3486 0.8050 0.1534
C21_2 C 0.4356(5) 0.8149(7) 0.1802(5)
C22_2 C 0.4840(6) 0.7790(9) 0.2117(6)
H11_2 H 0.5205 0.8005 0.2145
C23_2 C 0.4800(5) 0.7125(9) 0.2390(6)
H12_2 H 0.5132 0.6892 0.2609
C24_2 C 0.4416(6) 0.8886(8) 0.1516(5)
C25_2 C 0.1333(5) 0.6081(7) 0.1216(5)
C26_2 C 0.1404(5) 0.6782(7) 0.0900(5)
C27_2 C 0.0923(6) 0.7092(8) 0.0521(6)
H13_2 H 0.0566 0.6838 0.0449
C28_2 C 0.0970(6) 0.7775(8) 0.0251(6)
H14_2 H 0.0646 0.7985 0.0004
C29_2 C 0.1504(5) 0.8140(8) 0.0353(5)
C30_2 C 0.1999(6) 0.7828(8) 0.0723(5)
H15_2 H 0.2359 0.8069 0.0783
C31_2 C 0.1936(6) 0.7144(8) 0.1001(6)
H16_2 H 0.2256 0.6935 0.1254
C32_2 C 0.1560(5) 0.8882(7) 0.0075(5)
H19_2 H 0.0018 0.8229 0.2779
H20_2 H 0.0219 0.7098 0.2367
O2_2 O 0.5535(3) 0.5025(5) 0.3683(3)
O3_2 O 0.3911(3) 0.5113(5) 0.3532(3)
O4_2 O 0.2675(3) 0.5021(5) 0.2246(3)
O5_2 O 0.1056(3) 0.5119(5) 0.2109(3)
O17_2 O 0.4844(4) 0.5952(5) 0.4071(4)
O18_2 O 0.5763(4) 0.5959(5) 0.4608(3)
O19_2 O 0.2904(3) 0.5966(5) 0.3165(3)
O20_2 O 0.1995(3) 0.5958(5) 0.2628(3)
O21_2 O 0.1405(4) 0.9323(5) 0.3857(3)
O22_2 O 0.2328(4) 0.9312(5) 0.4392(3)
O23_2 O 0.4648(4) 0.5823(5) 0.2986(3)
O24_2 O 0.3682(4) 0.5830(5) 0.2572(3)
O25 O 0.3964(3) 0.9177(5) 0.1202(3)
O26 O 0.4924(4) 0.9175(5) 0.1606(3)
O27_2 O 0.1780(3) 0.5807(5) 0.1543(3)
O28_2 O 0.0821(3) 0.5824(5) 0.1152(3)
O30_2 O 0.2077(3) 0.9179(5) 0.0182(3)
O31_2 O 0.0047(4) 0.5963(5) 0.1750(3)
O80 O 0.6534(4) 0.5818(5) 0.4011(3)
O84 O 0.6500(4) 0.4169(5) 0.4113(3)
O85 O 0.4608(3) 0.4184(5) 0.3065(3)
O86 O 0.3646(4) 0.4181(5) 0.2666(3)
C49_2 C 0.9861(5) 0.3883(7) 0.5628(5)
C50_2 C 0.9908(5) 0.3139(7) 0.5343(5)
C51_2 C 0.9461(6) 0.2838(8) 0.4970(6)
H25_2 H 0.9104 0.3092 0.4891
C52_2 C 0.9507(6) 0.2181(9) 0.4703(6)
H26_2 H 0.9183 0.1991 0.4445
C57_2 C 0.7014(6) 0.3889(7) 0.4211(5)
C58_2 C 0.7061(5) 0.3138(7) 0.3935(5)
C59_2 C 0.6574(6) 0.2794(8) 0.3591(6)
H29_2 H 0.6210 0.3021 0.3539
C60_2 C 0.6632(6) 0.2114(8) 0.3329(6)
H30_2 H 0.6304 0.1877 0.3104
C61_2 C 0.7183(6) 0.1774(8) 0.3397(5)
C62_2 C 0.7654(6) 0.2110(8) 0.3729(6)
H31_2 H 0.8018 0.1883 0.3776
C63_2 C 0.7606(5) 0.2803(8) 0.4010(5)
H32_2 H 0.7933 0.3030 0.4241
C64_2 C 0.7233(6) 0.1077(7) 0.3067(5)
C65_2 C 0.4148(5) 0.3897(7) 0.2751(5)
C66_2 C 0.4204(3) 0.3160(4) 0.2473(3)
C67_2 C 0.3717(3) 0.2818(5) 0.2124(4)
H33_2 H 0.3352 0.3044 0.2073
C68_2 C 0.3775(3) 0.2138(5) 0.1851(3)
H34_2 H 0.3450 0.1909 0.1618
C69_2 C 0.4320(3) 0.1800(5) 0.1928(3)
C70_2 C 0.4807(3) 0.2142(5) 0.2277(3)
H35_2 H 0.5171 0.1916 0.2328
C71_2 C 0.4748(3) 0.2823(5) 0.2549(3)
H36_2 H 0.5074 0.3052 0.2783
C72_2 C 0.4375(6) 0.1098(7) 0.1617(5)
C89_2 C 0.6656(5) 0.4043(7) 0.0275(5)
C90_2 C 0.6522(6) 0.3341(8) 0.0553(5)
C91_2 C 0.5968(6) 0.3067(9) 0.0429(6)
H45_2 H 0.5671 0.3330 0.0182
C92_2 C 0.5849(6) 0.2385(8) 0.0678(5)
H46_2 H 0.5470 0.2198 0.0600
C93_2 C 0.6289(5) 0.1994(7) 0.1036(5)
C94_2 C 0.6854(6) 0.2291(8) 0.1169(6)
H47_2 H 0.7154 0.2040 0.1421
C95_2 C 0.6958(6) 0.2959(9) 0.0923(6)
H48_2 H 0.7334 0.3158 0.1008
C96_2 C 0.6169(5) 0.1247(7) 0.1289(5)
C97_2 C 0.9507(5) 0.4052(7) 0.1698(5)
C98_2 C 0.9375(5) 0.3350(7) 0.1987(5)
C99_2 C 0.8826(6) 0.3016(8) 0.1814(6)
H49_2 H 0.8536 0.3249 0.1542
C100_2 C 0.8716(6) 0.2328(8) 0.2052(6)
H50_2 H 0.8354 0.2089 0.1934
C101_2 C 0.9148(6) 0.2001(7) 0.2467(5)
C102_2 C 0.9683(6) 0.2353(8) 0.2650(6)
H51_2 H 0.9964 0.2138 0.2938
C103_2 C 0.9803(6) 0.3027(8) 0.2406(6)
C104_2 C 0.9028(6) 0.1245(7) 0.2724(5)
O10_2 O 0.8760(3) 0.0019(5) 0.3466(3)
O11_2 O 0.7512(3) 0.0116(5) 0.2183(3)
O12_2 O 0.5894(3) 0.0015(5) 0.2038(3)
O13_2 O 0.4660(3) 0.0109(5) 0.0739(3)
O41_2 O 0.9644(4) 0.0800(5) 0.4169(3)
O45_2 O 0.7756(4) 0.0825(5) 0.3146(3)
O46_2 O 0.6792(4) 0.0814(5) 0.2750(3)
O49_2 O 0.3926(3) 0.0829(5) 0.1284(3)
O50_2 O 0.4881(4) 0.0816(5) 0.1702(3)
O57_2 O 0.3718(4) 0.0952(5) 0.0197(4)
O61_2 O 0.5657(4) 0.0970(5) 0.1114(3)
O62_2 O 0.6585(4) 0.0960(5) 0.1656(3)
O64_2 O 0.9102(4) 0.4326(5) 0.1324(3)
O65_2 O 0.8514(4) 0.0965(5) 0.2537(3)
O66_2 O 0.9430(4) 0.0970(5) 0.3078(3)
V11_2 V 0.80650(8) 0.0078(2) 0.27088(8)
C81_2 C 0.3795(6) 0.4038(7) 0.8826(5)
C82_2 C 0.3667(5) 0.3331(7) 0.9092(5)
C83_2 C 0.3113(6) 0.3024(8) 0.8955(6)
H41_2 H 0.2815 0.3277 0.8702
C84_2 C 0.2998(6) 0.2338(8) 0.9194(6)
H42_2 H 0.2625 0.2126 0.9091
C85_2 C 0.3426(5) 0.1975(7) 0.9578(5)
C86_2 C 0.3991(6) 0.2289(8) 0.9732(6)
H43_2 H 0.4288 0.2046 0.9992
C87_2 C 0.4094(6) 0.2964(8) 0.9487(6)
H44_2 H 0.4464 0.3182 0.9591
C88_2 C 0.3325(6) 0.1241(7) 0.9839(5)
C33_2 C 0.9552(5) 0.6246(7) 0.1586(5)
C34_2 C 0.9431(5) 0.6991(7) 0.1832(5)
C35_2 C 0.8889(6) 0.7347(8) 0.1638(5)
H17_2 H 0.8609 0.7136 0.1348
C36_2 C 0.8775(6) 0.8020(8) 0.1885(6)
H18_2 H 0.8411 0.8253 0.1769
C37_2 C 0.9197(5) 0.8347(8) 0.2301(5)
C38_2 C 0.9738(6) 0.8007(8) 0.2493(6)
C39_2 C 0.9854(6) 0.7328(8) 0.2249(6)
C40_2 C 0.9062(6) 0.9056(7) 0.2591(5)
C41_2 C 0.7045(6) 0.6095(7) 0.4102(5)
C42_2 C 0.7114(5) 0.6812(7) 0.3789(5)
C43_2 C 0.6642(6) 0.7120(8) 0.3426(6)
H21_2 H 0.6285 0.6868 0.3363
C44_2 C 0.6677(6) 0.7797(8) 0.3148(6)
H22_2 H 0.6353 0.8000 0.2897
C45_2 C 0.7220(5) 0.8166(7) 0.3256(5)
C46_2 C 0.7692(6) 0.7839(8) 0.3603(6)
H23_2 H 0.8053 0.8077 0.3654
C47_2 C 0.7658(6) 0.7165(8) 0.3886(6)
H24_2 H 0.7985 0.6956 0.4130
C48_2 C 0.7272(6) 0.8902(7) 0.2960(5)
O6_2 O 0.9820(3) 0.5019(5) 0.0833(3)
O32_2 O 0.9132(4) 0.5961(5) 0.1212(3)
O33_2 O 0.8551(4) 0.9310(5) 0.2448(3)
O34_2 O 0.9468(3) 0.9321(5) 0.2970(3)
O37_2 O 0.6824(4) 0.9177(5) 0.2645(3)
O38_2 O 0.7789(4) 0.9175(5) 0.3049(3)
loop_
_geom_bond_atom_site_label_1
_geom_bond_atom_site_label_2
_geom_bond_site_symmetry_1
_geom_bond_site_symmetry_2
C81 C82 1_555 1_555
C82 C83 1_555 1_555
C83 H41 1_555 1_555
C84 C83 1_555 1_555
H42 C84 1_555 1_555
C85 C84 1_555 1_555
C86 C85 1_555 1_555
H43 C86 1_555 1_555
C87 C82 1_555 1_555
H44 C87 1_555 1_555
C88 C85 1_555 1_555
O55 C81 1_555 1_555
O56 C81 1_555 1_555
O58 C88 1_555 1_555
C86 C87 1_555 1_555
O58 V26 1_555 1_555
C33 C34 1_555 1_555
C34 C35 1_555 1_555
C35 H17 1_555 1_555
C36 C35 1_555 1_555
H18 C36 1_555 1_555
C37 C36 1_555 1_555
C38 C37 1_555 1_555
C39 C34 1_555 1_555
C40 C37 1_555 1_555
C41 C42 1_555 1_555
C42 C43 1_555 1_555
C43 H21 1_555 1_555
C44 C43 1_555 1_555
H22 C44 1_555 1_555
C45 C44 1_555 1_555
C46 C45 1_555 1_555
H23 C46 1_555 1_555
C47 C42 1_555 1_555
H24 C47 1_555 1_555
C48 C45 1_555 1_555
C49 C50 1_555 1_555
C50 C51 1_555 1_555
C51 H25 1_555 1_555
C52 C51 1_555 1_555
H26 C52 1_555 1_555
C57 C58 1_555 1_555
C58 C59 1_555 1_555
C59 H29 1_555 1_555
C60 C59 1_555 1_555
H30 C60 1_555 1_555
C61 C60 1_555 1_555
C62 C61 1_555 1_555
H31 C62 1_555 1_555
C63 C58 1_555 1_555
H32 C63 1_555 1_555
C64 C61 1_555 1_555
C65 C66 1_555 1_555
C66 C67 1_555 1_555
C67 H33 1_555 1_555
C68 C67 1_555 1_555
H34 C68 1_555 1_555
C69 C68 1_555 1_555
C70 C69 1_555 1_555
H35 C70 1_555 1_555
C71 C66 1_555 1_555
H36 C71 1_555 1_555
C72 C69 1_555 1_555
C89 C90 1_555 1_555
C90 C91 1_555 1_555
C91 H45 1_555 1_555
C92 C91 1_555 1_555
H46 C92 1_555 1_555
C93 C92 1_555 1_555
C94 C93 1_555 1_555
H47 C94 1_555 1_555
C95 C90 1_555 1_555
H48 C95 1_555 1_555
C96 C93 1_555 1_555
C97 C98 1_555 1_555
C98 C99 1_555 1_555
C99 H49 1_555 1_555
C100 C99 1_555 1_555
H50 C100 1_555 1_555
C101 C100 1_555 1_555
C102 C101 1_555 1_555
H51 C102 1_555 1_555
C103 C98 1_555 1_555
C104 C101 1_555 1_555
O10 V10 1_555 1_555
O11 V11 1_555 1_555
O12 V12 1_555 1_555
O13 V13 1_555 1_555
O14 V14 1_555 1_555
O32 C33 1_555 1_555
O33 C40 1_555 1_555
O34 C40 1_555 1_555
O35 C41 1_555 1_555
O36 C41 1_555 1_555
O37 C48 1_555 1_555
O38 C48 1_555 1_555
O40 C49 1_555 1_555
O43 C57 1_555 1_555
O44 C57 1_555 1_555
O45 C64 1_555 1_555
O46 C64 1_555 1_555
O47 C65 1_555 1_555
O48 C65 1_555 1_555
O49 C72 1_555 1_555
O50 C72 1_555 1_555
O59 C89 1_555 1_555
O61 C96 1_555 1_555
O62 C96 1_555 1_555
O64 C97 1_555 1_555
O65 C104 1_555 1_555
O66 C104 1_555 1_555
V24 O6 1_555 1_555
V11 O10 1_555 1_555
V12 O11 1_555 1_555
V13 O12 1_555 1_555
V14 O13 1_555 1_555
O72 V24 1_555 1_555
O76 V14 1_555 1_555
O77 V13 1_555 1_555
O81 V10 1_555 1_555
O89 V24 1_555 1_555
O90 V12 1_555 1_555
O91 V13 1_555 1_555
O94 V14 1_555 1_555
V16 O36 1_555 1_555
V30 O35 1_555 1_555
C38 C39 1_555 1_555
C46 C47 1_555 1_555
C62 C63 1_555 1_555
C70 C71 1_555 1_555
C94 C95 1_555 1_555
C102 C103 1_555 1_555
O32 V24 1_555 1_555
O33 V11 1_555 1_555
O34 V10 1_555 1_555
O37 V12 1_555 1_555
O38 V11 1_555 1_555
O41 V10 1_555 1_555
O45 V11 1_555 1_555
O46 V12 1_555 1_555
O49 V14 1_555 1_555
O50 V13 1_555 1_555
O57 V14 1_555 1_555
O61 V13 1_555 1_555
O62 V12 1_555 1_555
O65 V11 1_555 1_555
O66 V10 1_555 1_555
O7 V26 1_555 1_555
O93 V26 1_555 1_555
V25 O7 1_555 1_555
O29 V25 1_555 1_555
O53 V25 1_555 1_555
C1 C2 1_555 1_555
C2 C3 1_555 1_555
C3 H1 1_555 1_555
C4 C3 1_555 1_555
H2 C4 1_555 1_555
C5 C4 1_555 1_555
C6 C5 1_555 1_555
H3 C6 1_555 1_555
C7 C2 1_555 1_555
H4 C7 1_555 1_555
C8 C5 1_555 1_555
C9 C10 1_555 1_555
C10 C11 1_555 1_555
C11 H5 1_555 1_555
C12 C11 1_555 1_555
H6 C12 1_555 1_555
C13 C16 1_555 1_555
C14 H7 1_555 1_555
C15 C10 1_555 1_555
H8 C15 1_555 1_555
C16 C12 1_555 1_555
C17 C18 1_555 1_555
C18 C19 1_555 1_555
C19 H9 1_555 1_555
C20 C19 1_555 1_555
H10 C20 1_555 1_555
C21 C20 1_555 1_555
C22 C21 1_555 1_555
H11 C22 1_555 1_555
C23 C18 1_555 1_555
H12 C23 1_555 1_555
C24 C21 1_555 1_555
C25 C26 1_555 1_555
C26 C27 1_555 1_555
C27 H13 1_555 1_555
C28 C27 1_555 1_555
H14 C28 1_555 1_555
C29 C28 1_555 1_555
C30 C29 1_555 1_555
H15 C30 1_555 1_555
C31 C26 1_555 1_555
H16 C31 1_555 1_555
C32 C29 1_555 1_555
C54 C53 1_555 1_555
H27 C54 1_555 1_555
H28 C55 1_555 1_555
C56 C53 1_555 1_555
C73 C74 1_555 1_555
C74 C75 1_555 1_555
C75 H37 1_555 1_555
C76 C75 1_555 1_555
H38 C76 1_555 1_555
C77 C76 1_555 1_555
C78 C77 1_555 1_555
H39 C78 1_555 1_555
C79 C74 1_555 1_555
H40 C79 1_555 1_555
C80 C77 1_555 1_555
C105 C106 1_555 1_555
C106 C107 1_555 1_555
C107 H53 1_555 1_555
C108 C107 1_555 1_555
H54 C108 1_555 1_555
C109 C108 1_555 1_555
C110 C109 1_555 1_555
H55 C110 1_555 1_555
C111 C106 1_555 1_555
H56 C111 1_555 1_555
C112 C109 1_555 1_555
O1 V16 1_555 1_555
O2 V16 1_555 1_555
O3 V18 1_555 1_555
O4 V21 1_555 1_555
O5 V22 1_555 1_555
O8 V8 1_555 1_555
O9 V9 1_555 1_555
O15 C1 1_555 1_555
O16 C1 1_555 1_555
O17 C8 1_555 1_555
O18 C8 1_555 1_555
O19 C9 1_555 1_555
O20 C9 1_555 1_555
O21 C13 1_555 1_555
O22 C13 1_555 1_555
O23 C17 1_555 1_555
O24 C17 1_555 1_555
O76 C24 1_555 1_555
O77 C24 1_555 1_555
O27 C25 1_555 1_555
O28 C25 1_555 1_555
O30 C32 1_555 1_555
O42 C56 1_555 1_555
O51 C73 1_555 1_555
O52 C73 1_555 1_555
O54 C80 1_555 1_555
O67 C105 1_555 1_555
O68 C105 1_555 1_555
O69 C112 1_555 1_555
O70 C112 1_555 1_555
V16 O18 1_555 1_555
V18 O2 1_555 1_555
V21 O3 1_555 1_555
V22 O4 1_555 1_555
V23 O5 1_555 1_555
V8 O22 1_555 1_555
V9 O8 1_555 1_555
O71 V8 1_555 1_555
O79 V8 1_555 1_555
O82 V9 1_555 1_555
O83 V8 1_555 1_555
V17 O15 1_555 1_555
V19 O16 1_555 1_555
V30 O1 1_555 1_555
C6 C7 1_555 1_555
C14 C15 1_555 1_555
C14 C16 1_555 1_555
C22 C23 1_555 1_555
C30 C31 1_555 1_555
C54 C55 1_555 1_555
C78 C79 1_555 1_555
C110 C111 1_555 1_555
O17 V18 1_555 1_555
O19 V21 1_555 1_555
O20 V22 1_555 1_555
O21 V9 1_555 1_555
O23 V18 1_555 1_555
O24 V21 1_555 1_555
O27 V22 1_555 1_555
O28 V23 1_555 1_555
O31 V23 1_555 1_555
O42 V9 1_555 1_555
O69 V9 1_555 1_555
O70 V8 1_555 1_555
O71 V17 1_555 1_555
C54_2 C53_2 1_555 1_555
H27_2 C54_2 1_555 1_555
H28_2 C55_2 1_555 1_555
C56_2 C53_2 1_555 1_555
C73_2 C74_2 1_555 1_555
C74_2 C75_2 1_555 1_555
C75_2 H37_2 1_555 1_555
C76_2 C75_2 1_555 1_555
H38_2 C76_2 1_555 1_555
C77_2 C76_2 1_555 1_555
C78_2 C77_2 1_555 1_555
H39_2 C78_2 1_555 1_555
C79_2 C74_2 1_555 1_555
H40_2 C79_2 1_555 1_555
C80_2 C77_2 1_555 1_555
C105_2 C106_2 1_555 1_555
C106_2 C107_2 1_555 1_555
C107_2 H53_2 1_555 1_555
C108_2 C107_2 1_555 1_555
H54_2 C108_2 1_555 1_555
C109_2 C108_2 1_555 1_555
C110_2 C109_2 1_555 1_555
H55_2 C110_2 1_555 1_555
C111_2 C106_2 1_555 1_555
H56_2 C111_2 1_555 1_555
C112_2 C109_2 1_555 1_555
O8_2 V30 1_555 1_555
O9_2 V31 1_555 1_555
O42_2 C56_2 1_555 1_555
O51_2 C73_2 1_555 1_555
O52_2 C73_2 1_555 1_555
O54_2 C80_2 1_555 1_555
O67_2 C105_2 1_555 1_555
O68_2 C105_2 1_555 1_555
O69_2 C112_2 1_555 1_555
O70_2 C112_2 1_555 1_555
V31 O8_2 1_555 1_555
V20 O67_2 1_555 1_555
V22_2 O51_2 1_555 1_555
V23_2 O52_2 1_555 1_555
C54_2 C55_2 1_555 1_555
C78_2 C79_2 1_555 1_555
C110_2 C111_2 1_555 1_555
O42_2 V31 1_555 1_555
O63_2 V23_2 1_555 1_555
O68_2 V22_2 1_555 1_555
O69_2 V31 1_555 1_555
O70_2 V30 1_555 1_555
O73 V37 1_555 1_555
O72 V27 1_555 1_555
O92 V27 1_555 1_555
C1_2 C2_2 1_555 1_555
C2_2 C3_2 1_555 1_555
C3_2 H1_2 1_555 1_555
C4_2 C3_2 1_555 1_555
H2_2 C4_2 1_555 1_555
C5_2 C4_2 1_555 1_555
C6_2 C5_2 1_555 1_555
H3_2 C6_2 1_555 1_555
C7_2 C2_2 1_555 1_555
H4_2 C7_2 1_555 1_555
C8_2 C5_2 1_555 1_555
C9_2 C10_2 1_555 1_555
C10_2 C11_2 1_555 1_555
C11_2 H5_2 1_555 1_555
C12_2 C11_2 1_555 1_555
H6_2 C12_2 1_555 1_555
C13_2 C16_2 1_555 1_555
C14_2 H7_2 1_555 1_555
C15_2 C10_2 1_555 1_555
H8_2 C15_2 1_555 1_555
C16_2 C12_2 1_555 1_555
C17_2 C18_2 1_555 1_555
C18_2 C19_2 1_555 1_555
C19_2 H9_2 1_555 1_555
C20_2 C19_2 1_555 1_555
H10_2 C20_2 1_555 1_555
C21_2 C20_2 1_555 1_555
C22_2 C21_2 1_555 1_555
H11_2 C22_2 1_555 1_555
C23_2 C18_2 1_555 1_555
H12_2 C23_2 1_555 1_555
C24_2 C21_2 1_555 1_555
C25_2 C26_2 1_555 1_555
C26_2 C27_2 1_555 1_555
C27_2 H13_2 1_555 1_555
C28_2 C27_2 1_555 1_555
H14_2 C28_2 1_555 1_555
C29_2 C28_2 1_555 1_555
C30_2 C29_2 1_555 1_555
H15_2 C30_2 1_555 1_555
C31_2 C26_2 1_555 1_555
H16_2 C31_2 1_555 1_555
C32_2 C29_2 1_555 1_555
O2_2 V17 1_555 1_555
O3_2 V19 1_555 1_555
O4_2 V20 1_555 1_555
O5_2 V22_2 1_555 1_555
O74 C1_2 1_555 1_555
O75 C1_2 1_555 1_555
O17_2 C8_2 1_555 1_555
O18_2 C8_2 1_555 1_555
O19_2 C9_2 1_555 1_555
O20_2 C9_2 1_555 1_555
O21_2 C13_2 1_555 1_555
O22_2 C13_2 1_555 1_555
O23_2 C17_2 1_555 1_555
O24_2 C17_2 1_555 1_555
O25 C24_2 1_555 1_555
O26 C24_2 1_555 1_555
O27_2 C25_2 1_555 1_555
O28_2 C25_2 1_555 1_555
O30_2 C32_2 1_555 1_555
V17 O18_2 1_555 1_555
V19 O2_2 1_555 1_555
V20 O3_2 1_555 1_555
V22_2 O4_2 1_555 1_555
V23_2 O5_2 1_555 1_555
O80 V17 1_555 1_555
O84 V17 1_555 1_555
O85 V19 1_555 1_555
O86 V20 1_555 1_555
C6_2 C7_2 1_555 1_555
C14_2 C15_2 1_555 1_555
C14_2 C16_2 1_555 1_555
C22_2 C23_2 1_555 1_555
C30_2 C31_2 1_555 1_555
O17_2 V19 1_555 1_555
O19_2 V20 1_555 1_555
O20_2 V22_2 1_555 1_555
O23_2 V19 1_555 1_555
O24_2 V20 1_555 1_555
O27_2 V22_2 1_555 1_555
O28_2 V23_2 1_555 1_555
O31_2 V23_2 1_555 1_555
C49_2 C50_2 1_555 1_555
C50_2 C51_2 1_555 1_555
C51_2 H25_2 1_555 1_555
C52_2 C51_2 1_555 1_555
H26_2 C52_2 1_555 1_555
C57_2 C58_2 1_555 1_555
C58_2 C59_2 1_555 1_555
C59_2 H29_2 1_555 1_555
C60_2 C59_2 1_555 1_555
H30_2 C60_2 1_555 1_555
C61_2 C60_2 1_555 1_555
C62_2 C61_2 1_555 1_555
H31_2 C62_2 1_555 1_555
C63_2 C58_2 1_555 1_555
H32_2 C63_2 1_555 1_555
C64_2 C61_2 1_555 1_555
C65_2 C66_2 1_555 1_555
C66_2 C67_2 1_555 1_555
C67_2 H33_2 1_555 1_555
C68_2 C67_2 1_555 1_555
H34_2 C68_2 1_555 1_555
C69_2 C68_2 1_555 1_555
C70_2 C69_2 1_555 1_555
H35_2 C70_2 1_555 1_555
C71_2 C66_2 1_555 1_555
H36_2 C71_2 1_555 1_555
C72_2 C69_2 1_555 1_555
C89_2 C90_2 1_555 1_555
C90_2 C91_2 1_555 1_555
C91_2 H45_2 1_555 1_555
C92_2 C91_2 1_555 1_555
H46_2 C92_2 1_555 1_555
C93_2 C92_2 1_555 1_555
C94_2 C93_2 1_555 1_555
H47_2 C94_2 1_555 1_555
C95_2 C90_2 1_555 1_555
H48_2 C95_2 1_555 1_555
C96_2 C93_2 1_555 1_555
C97_2 C98_2 1_555 1_555
C98_2 C99_2 1_555 1_555
C99_2 H49_2 1_555 1_555
C100_2 C99_2 1_555 1_555
H50_2 C100_2 1_555 1_555
C101_2 C100_2 1_555 1_555
C102_2 C101_2 1_555 1_555
H51_2 C102_2 1_555 1_555
C103_2 C98_2 1_555 1_555
C104_2 C101_2 1_555 1_555
O10_2 V32 1_555 1_555
O11_2 V11_2 1_555 1_555
O12_2 V33 1_555 1_555
O13_2 V35 1_555 1_555
O82 C49_2 1_555 1_555
O83 C57_2 1_555 1_555
O84 C57_2 1_555 1_555
O45_2 C64_2 1_555 1_555
O46_2 C64_2 1_555 1_555
O85 C65_2 1_555 1_555
O86 C65_2 1_555 1_555
O49_2 C72_2 1_555 1_555
O50_2 C72_2 1_555 1_555
O93 C89_2 1_555 1_555
O61_2 C96_2 1_555 1_555
O62_2 C96_2 1_555 1_555
O64_2 C97_2 1_555 1_555
O65_2 C104_2 1_555 1_555
O66_2 C104_2 1_555 1_555
V11_2 O10_2 1_555 1_555
V33 O11_2 1_555 1_555
V35 O12_2 1_555 1_555
V37 O13_2 1_555 1_555
V25 O64_2 1_555 1_555
C62_2 C63_2 1_555 1_555
C70_2 C71_2 1_555 1_555
C94_2 C95_2 1_555 1_555
C102_2 C103_2 1_555 1_555
O41_2 V32 1_555 1_555
O45_2 V11_2 1_555 1_555
O46_2 V33 1_555 1_555
O49_2 V37 1_555 1_555
O50_2 V35 1_555 1_555
O57_2 V37 1_555 1_555
O61_2 V35 1_555 1_555
O62_2 V33 1_555 1_555
O65_2 V11_2 1_555 1_555
O66_2 V32 1_555 1_555
C81_2 C82_2 1_555 1_555
C82_2 C83_2 1_555 1_555
C83_2 H41_2 1_555 1_555
C84_2 C83_2 1_555 1_555
H42_2 C84_2 1_555 1_555
C85_2 C84_2 1_555 1_555
C86_2 C85_2 1_555 1_555
H43_2 C86_2 1_555 1_555
C87_2 C82_2 1_555 1_555
H44_2 C87_2 1_555 1_555
C88_2 C85_2 1_555 1_555
O90 C81_2 1_555 1_555
O91 C81_2 1_555 1_555
O92 C88_2 1_555 1_555
C86_2 C87_2 1_555 1_555
C33_2 C34_2 1_555 1_555
C34_2 C35_2 1_555 1_555
C35_2 H17_2 1_555 1_555
C36_2 C35_2 1_555 1_555
H18_2 C36_2 1_555 1_555
C37_2 C36_2 1_555 1_555
C38_2 C37_2 1_555 1_555
C39_2 C34_2 1_555 1_555
C40_2 C37_2 1_555 1_555
C41_2 C42_2 1_555 1_555
C42_2 C43_2 1_555 1_555
C43_2 H21_2 1_555 1_555
C44_2 C43_2 1_555 1_555
H22_2 C44_2 1_555 1_555
C45_2 C44_2 1_555 1_555
C46_2 C45_2 1_555 1_555
H23_2 C46_2 1_555 1_555
C47_2 C42_2 1_555 1_555
H24_2 C47_2 1_555 1_555
C48_2 C45_2 1_555 1_555
O32_2 C33_2 1_555 1_555
O33_2 C40_2 1_555 1_555
O34_2 C40_2 1_555 1_555
O79 C41_2 1_555 1_555
O80 C41_2 1_555 1_555
O37_2 C48_2 1_555 1_555
O38_2 C48_2 1_555 1_555
V25 O6_2 1_555 1_555
C38_2 C39_2 1_555 1_555
C46_2 C47_2 1_555 1_555
O32_2 V25 1_555 1_555

#END
