
###############################################################################
#
# This file contains modified crystal structure data generated from the
# MOF subset of the Cambridge Structural Database (CSD) v543 
# hosted by the Cambridge Crystallographic Data Centre (CCDC).
#
# This work is licensed under the Creative Commons
# Attribution-NonCommercial-ShareAlike 4.0 International License.
# To view a copy of this license, visit
# http://creativecommons.org/licenses/by-nc-sa/4.0/
# or send a letter to
# Creative Commons, PO Box 1866, Mountain View, CA 94042, USA.
#
# CIF created using the CSD Python API on 29 September 2022
# The structure has been converted into the P1 space group
# The structure has a 3D framework
# The original CSD entry HEJQAR is in the cubic crystal system
# The framework has been calculated to contain at least 10.0% void space
# The void calculation uses a probe of radius 1.32A, grid spacing 0.4
#
###############################################################################

data_HEJQAR
_chemical_formula_moiety         '(C96 H96 Cd24 N144)n'
_symmetry_cell_setting           triclinic
_symmetry_space_group_name_H-M   'P 1'
_symmetry_Int_Tables_number      1
_space_group_name_Hall           'P 1'
loop_
_symmetry_equiv_pos_site_id
_symmetry_equiv_pos_as_xyz
1 x,y,z
_cell_length_a                   18.6249(18)
_cell_length_b                   18.6249(18)
_cell_length_c                   18.6249(18)
_cell_angle_alpha                90
_cell_angle_beta                 90
_cell_angle_gamma                90
_cell_volume                     6460.73
loop_
_atom_site_label
_atom_site_type_symbol
_atom_site_fract_x
_atom_site_fract_y
_atom_site_fract_z
Cd1 Cd 0.5000 0.5000 0.0000
N1 N 0.41640(9) 0.41640(9) 0.04271(13)
N2 N 0.3750 0.3750 0.00155(17)
C1 C 0.40078(12) 0.40078(12) 0.11147(16)
H1 H 0.4220 0.4220 0.1527
N3 N 0.33360(9) 0.33360(9) 0.04271(13)
C2 C 0.34922(12) 0.34922(12) 0.11147(16)
H2 H 0.3280 0.3280 0.1527
Cd4 Cd 0.2500 0.2500 0.0000
N21 N 0.58360(9) 0.45729(13) 0.08360(9)
N23 N 0.45729(13) 0.58360(9) 0.08360(9)
Cd1_2 Cd 0.5000 0.5000 1.0000
Cd2 Cd 0.3750 0.3750 0.8750
Cd3 Cd 0.5000 0.2500 0.7500
N4 N 0.54271(13) 0.33360(9) 0.83360(9)
N5 N 0.50155(17) 0.3750 0.8750
C3 C 0.61147(16) 0.34922(12) 0.84922(12)
H3 H 0.6527 0.3280 0.8280
N6 N 0.54271(13) 0.41640(9) 0.91640(9)
C4 C 0.61147(16) 0.40078(12) 0.90078(12)
H4 H 0.6527 0.4220 0.9220
N7 N 0.33360(9) 0.20729(13) 0.91640(9)
N8 N 0.3750 0.24845(17) 0.8750
C5 C 0.34922(12) 0.13853(16) 0.90078(12)
H5 H 0.3280 0.0973 0.9220
N9 N 0.41640(9) 0.20729(13) 0.83360(9)
C6 C 0.40078(12) 0.13853(16) 0.84922(12)
H6 H 0.4220 0.0973 0.8280
N10 N 0.20729(13) 0.41640(9) 0.83360(9)
N11 N 0.24845(17) 0.3750 0.8750
C7 C 0.13853(16) 0.40078(12) 0.84922(12)
H7 H 0.0973 0.4220 0.8280
N12 N 0.20729(13) 0.33360(9) 0.91640(9)
C8 C 0.13853(16) 0.34922(12) 0.90078(12)
H8 H 0.0973 0.3280 0.9220
N13 N 0.41640(9) 0.54271(13) 0.91640(9)
N14 N 0.3750 0.50155(17) 0.8750
C9 C 0.40078(12) 0.61147(16) 0.90078(12)
H9 H 0.4220 0.6527 0.9220
N15 N 0.33360(9) 0.54271(13) 0.83360(9)
C10 C 0.34922(12) 0.61147(16) 0.84922(12)
H10 H 0.3280 0.6527 0.8280
N16 N 0.41640(9) 0.33360(9) 0.70729(13)
N17 N 0.3750 0.3750 0.74845(17)
C11 C 0.40078(12) 0.34922(12) 0.63853(16)
H11 H 0.4220 0.3280 0.5973
N18 N 0.33360(9) 0.41640(9) 0.70729(13)
C12 C 0.34922(12) 0.40078(12) 0.63853(16)
H12 H 0.3280 0.4220 0.5973
Cd4_2 Cd 0.2500 0.2500 1.0000
Cd5 Cd 0.2500 0.5000 0.7500
N19 N 0.58360(9) 0.58360(9) 0.95729(13)
N20 N 0.45729(13) 0.16640(9) 0.66640(9)
N22 N 0.58360(9) 0.16640(9) 0.79271(13)
N24 N 0.58360(9) 0.29271(13) 0.66640(9)
Cd3_2 Cd 0.2500 0.0000 0.2500
N7_2 N 0.41640(9) 0.04271(13) 0.41640(9)
N8_2 N 0.3750 0.00155(17) 0.3750
C5_2 C 0.40078(12) 0.11147(16) 0.40078(12)
H5_2 H 0.4220 0.1527 0.4220
N9_2 N 0.33360(9) 0.04271(13) 0.33360(9)
C6_2 C 0.34922(12) 0.11147(16) 0.34922(12)
H6_2 H 0.3280 0.1527 0.3280
Cd4_3 Cd 0.5000 0.0000 0.5000
N20_2 N 0.29271(13) 0.08360(9) 0.16640(9)
N22_2 N 0.16640(9) 0.08360(9) 0.29271(13)
Cd1_3 Cd 0.2500 0.7500 0.5000
Cd2_2 Cd 0.3750 0.8750 0.3750
N1_2 N 0.33360(9) 0.83360(9) 0.54271(13)
N2_2 N 0.3750 0.8750 0.50155(17)
C1_2 C 0.34922(12) 0.84922(12) 0.61147(16)
H1_2 H 0.3280 0.8280 0.6527
N3_2 N 0.41640(9) 0.91640(9) 0.54271(13)
C2_2 C 0.40078(12) 0.90078(12) 0.61147(16)
H2_2 H 0.4220 0.9220 0.6527
Cd3_3 Cd 0.2500 1.0000 0.2500
N4_2 N 0.20729(13) 0.91640(9) 0.33360(9)
N5_2 N 0.24845(17) 0.8750 0.3750
C3_2 C 0.13853(16) 0.90078(12) 0.34922(12)
H3_2 H 0.0973 0.9220 0.3280
N6_2 N 0.20729(13) 0.83360(9) 0.41640(9)
C4_2 C 0.13853(16) 0.84922(12) 0.40078(12)
H4_2 H 0.0973 0.8280 0.4220
N10_2 N 0.54271(13) 0.83360(9) 0.33360(9)
N11_2 N 0.50155(17) 0.8750 0.3750
C7_2 C 0.61147(16) 0.84922(12) 0.34922(12)
H7_2 H 0.6527 0.8280 0.3280
N12_2 N 0.54271(13) 0.91640(9) 0.41640(9)
C8_2 C 0.61147(16) 0.90078(12) 0.40078(12)
H8_2 H 0.6527 0.9220 0.4220
N13_2 N 0.33360(9) 0.70729(13) 0.41640(9)
N14_2 N 0.3750 0.74845(17) 0.3750
C9_2 C 0.34922(12) 0.63853(16) 0.40078(12)
H9_2 H 0.3280 0.5973 0.4220
N15_2 N 0.41640(9) 0.70729(13) 0.33360(9)
C10_2 C 0.40078(12) 0.63853(16) 0.34922(12)
H10_2 H 0.4220 0.5973 0.3280
N16_2 N 0.33360(9) 0.91640(9) 0.20729(13)
N17_2 N 0.3750 0.8750 0.24845(17)
C11_2 C 0.34922(12) 0.90078(12) 0.13853(16)
H11_2 H 0.3280 0.9220 0.0973
N18_2 N 0.41640(9) 0.83360(9) 0.20729(13)
C12_2 C 0.40078(12) 0.84922(12) 0.13853(16)
H12_2 H 0.4220 0.8280 0.0973
Cd4_4 Cd 0.5000 1.0000 0.5000
Cd5_2 Cd 0.5000 0.7500 0.2500
N19_2 N 0.16640(9) 0.66640(9) 0.45729(13)
N21_2 N 0.16640(9) 0.79271(13) 0.58360(9)
N23_2 N 0.29271(13) 0.66640(9) 0.58360(9)
N24_2 N 0.16640(9) 0.95729(13) 0.16640(9)
Cd5_3 Cd 0.0000 0.0000 0.0000
Cd5_4 Cd 0.0000 0.0000 1.0000
Cd5_5 Cd 0.0000 1.0000 0.0000
N10_3 N 0.04271(13) 0.91640(9) 0.91640(9)
N11_3 N 0.00155(17) 0.8750 0.8750
C7_3 C 0.11147(16) 0.90078(12) 0.90078(12)
H7_3 H 0.1527 0.9220 0.9220
N12_3 N 0.04271(13) 0.83360(9) 0.83360(9)
C8_3 C 0.11147(16) 0.84922(12) 0.84922(12)
H8_3 H 0.1527 0.8280 0.8280
Cd4_5 Cd 0.0000 0.7500 0.7500
Cd5_6 Cd 0.0000 1.0000 1.0000
Cd5_7 Cd 1.0000 0.0000 0.0000
Cd1_4 Cd 0.7500 0.0000 0.7500
N13_3 N 0.83360(9) 0.04271(13) 0.83360(9)
N14_3 N 0.8750 0.00155(17) 0.8750
C9_3 C 0.84922(12) 0.11147(16) 0.84922(12)
H9_3 H 0.8280 0.1527 0.8280
N15_3 N 0.91640(9) 0.04271(13) 0.91640(9)
C10_3 C 0.90078(12) 0.11147(16) 0.90078(12)
H10_3 H 0.9220 0.1527 0.9220
Cd5_8 Cd 1.0000 0.0000 1.0000
N19_3 N 0.66640(9) 0.08360(9) 0.79271(13)
N23_3 N 0.79271(13) 0.08360(9) 0.66640(9)
Cd3_4 Cd 0.7500 0.7500 0.0000
N16_3 N 0.83360(9) 0.83360(9) 0.04271(13)
N17_3 N 0.8750 0.8750 0.00155(17)
C11_3 C 0.84922(12) 0.84922(12) 0.11147(16)
H11_3 H 0.8280 0.8280 0.1527
N18_3 N 0.91640(9) 0.91640(9) 0.04271(13)
C12_3 C 0.90078(12) 0.90078(12) 0.11147(16)
H12_3 H 0.9220 0.9220 0.1527
Cd5_9 Cd 1.0000 1.0000 0.0000
N20_3 N 0.79271(13) 0.66640(9) 0.08360(9)
N24_3 N 0.66640(9) 0.79271(13) 0.08360(9)
Cd1_5 Cd 0.7500 1.0000 0.7500
Cd2_3 Cd 0.8750 0.8750 0.8750
N1_3 N 0.83360(9) 0.91640(9) 0.70729(13)
N2_3 N 0.8750 0.8750 0.74845(17)
C1_3 C 0.84922(12) 0.90078(12) 0.63853(16)
H1_3 H 0.8280 0.9220 0.5973
N3_3 N 0.91640(9) 0.83360(9) 0.70729(13)
C2_3 C 0.90078(12) 0.84922(12) 0.63853(16)
H2_3 H 0.9220 0.8280 0.5973
Cd3_5 Cd 0.7500 0.7500 1.0000
N4_3 N 0.70729(13) 0.83360(9) 0.91640(9)
N5_3 N 0.74845(17) 0.8750 0.8750
C3_3 C 0.63853(16) 0.84922(12) 0.90078(12)
H3_3 H 0.5973 0.8280 0.9220
N6_3 N 0.70729(13) 0.91640(9) 0.83360(9)
C4_3 C 0.63853(16) 0.90078(12) 0.84922(12)
H4_3 H 0.5973 0.9220 0.8280
N7_3 N 0.91640(9) 0.70729(13) 0.83360(9)
N8_3 N 0.8750 0.74845(17) 0.8750
C5_3 C 0.90078(12) 0.63853(16) 0.84922(12)
H5_3 H 0.9220 0.5973 0.8280
N9_3 N 0.83360(9) 0.70729(13) 0.91640(9)
C6_3 C 0.84922(12) 0.63853(16) 0.90078(12)
H6_3 H 0.8280 0.5973 0.9220
Cd4_6 Cd 1.0000 0.7500 0.7500
Cd5_10 Cd 1.0000 1.0000 1.0000
N21_3 N 0.66640(9) 0.95729(13) 0.66640(9)
N22_3 N 0.66640(9) 0.66640(9) 0.95729(13)
Cd1_6 Cd -0.0000 0.2500 0.2500
Cd3_6 Cd 0.0000 0.5000 0.5000
N4_4 N 0.04271(13) 0.41640(9) 0.41640(9)
N5_4 N 0.00155(17) 0.3750 0.3750
C3_4 C 0.11147(16) 0.40078(12) 0.40078(12)
H3_4 H 0.1527 0.4220 0.4220
N6_4 N 0.04271(13) 0.33360(9) 0.33360(9)
C4_4 C 0.11147(16) 0.34922(12) 0.34922(12)
H4_4 H 0.1527 0.3280 0.3280
N19_4 N 0.08360(9) 0.16640(9) 0.29271(13)
N21_4 N 0.08360(9) 0.29271(13) 0.16640(9)
N22_4 N 0.08360(9) 0.58360(9) 0.45729(13)
N24_4 N 0.08360(9) 0.45729(13) 0.58360(9)
Cd1_7 Cd 1.0000 0.2500 0.2500
Cd2_4 Cd 0.8750 0.3750 0.3750
N1_4 N 0.91640(9) 0.33360(9) 0.20729(13)
N2_4 N 0.8750 0.3750 0.24845(17)
C1_4 C 0.90078(12) 0.34922(12) 0.13853(16)
H1_4 H 0.9220 0.3280 0.0973
N3_4 N 0.83360(9) 0.41640(9) 0.20729(13)
C2_4 C 0.84922(12) 0.40078(12) 0.13853(16)
H2_4 H 0.8280 0.4220 0.0973
Cd3_7 Cd 1.0000 0.5000 0.5000
N7_4 N 0.83360(9) 0.54271(13) 0.33360(9)
N8_4 N 0.8750 0.50155(17) 0.3750
C5_4 C 0.84922(12) 0.61147(16) 0.34922(12)
H5_4 H 0.8280 0.6527 0.3280
N9_4 N 0.91640(9) 0.54271(13) 0.41640(9)
C6_4 C 0.90078(12) 0.61147(16) 0.40078(12)
H6_4 H 0.9220 0.6527 0.4220
N10_4 N 0.70729(13) 0.33360(9) 0.41640(9)
N11_4 N 0.74845(17) 0.3750 0.3750
C7_4 C 0.63853(16) 0.34922(12) 0.40078(12)
H7_4 H 0.5973 0.3280 0.4220
N12_4 N 0.70729(13) 0.41640(9) 0.33360(9)
C8_4 C 0.63853(16) 0.40078(12) 0.34922(12)
H8_4 H 0.5973 0.4220 0.3280
N13_4 N 0.91640(9) 0.20729(13) 0.33360(9)
N14_4 N 0.8750 0.24845(17) 0.3750
C9_4 C 0.90078(12) 0.13853(16) 0.34922(12)
H9_4 H 0.9220 0.0973 0.3280
N15_4 N 0.83360(9) 0.20729(13) 0.41640(9)
C10_4 C 0.84922(12) 0.13853(16) 0.40078(12)
H10_4 H 0.8280 0.0973 0.4220
N16_4 N 0.91640(9) 0.41640(9) 0.54271(13)
N17_4 N 0.8750 0.3750 0.50155(17)
C11_4 C 0.90078(12) 0.40078(12) 0.61147(16)
H11_4 H 0.9220 0.4220 0.6527
N18_4 N 0.83360(9) 0.33360(9) 0.54271(13)
C12_4 C 0.84922(12) 0.34922(12) 0.61147(16)
H12_4 H 0.8280 0.3280 0.6527
Cd4_7 Cd 0.7500 0.5000 0.2500
Cd5_11 Cd 0.7500 0.2500 0.5000
N20_4 N 0.95729(13) 0.58360(9) 0.58360(9)
N23_4 N 0.95729(13) 0.16640(9) 0.16640(9)
N20_5 N 0.66640(9) 0.45729(13) 0.16640(9)
N22_5 N 0.79271(13) 0.58360(9) 0.16640(9)
N24_5 N 0.66640(9) 0.58360(9) 0.29271(13)
N20_6 N 0.16640(9) 0.29271(13) 0.08360(9)
N22_6 N 0.29271(13) 0.16640(9) 0.08360(9)
N24_6 N 0.16640(9) 0.16640(9) 0.95729(13)
N20_7 N 0.08360(9) 0.79271(13) 0.66640(9)
N24_7 N 0.08360(9) 0.66640(9) 0.79271(13)
N22_7 N 0.95729(13) 0.66640(9) 0.66640(9)
N22_8 N 0.45729(13) 0.08360(9) 0.58360(9)
N24_8 N 0.58360(9) 0.08360(9) 0.45729(13)
N20_8 N 0.58360(9) 0.95729(13) 0.58360(9)
Cd2_5 Cd 0.1250 0.6250 0.6250
N2_5 N 0.1250 0.6250 0.49845(17)
C1_5 C 0.15078(12) 0.65078(12) 0.38853(16)
H1_5 H 0.1720 0.6720 0.3473
C2_5 C 0.09922(12) 0.59922(12) 0.38853(16)
H2_5 H 0.0780 0.5780 0.3473
N5_5 N 0.1250 0.75155(17) 0.6250
C3_5 C 0.09922(12) 0.86147(16) 0.65078(12)
H3_5 H 0.0780 0.9027 0.6720
C4_5 C 0.15078(12) 0.86147(16) 0.59922(12)
H4_5 H 0.1720 0.9027 0.5780
N10_5 N 0.16640(9) 0.45729(13) 0.66640(9)
N11_5 N 0.1250 0.49845(17) 0.6250
C7_5 C 0.15078(12) 0.38853(16) 0.65078(12)
H7_5 H 0.1720 0.3473 0.6720
C8_5 C 0.09922(12) 0.38853(16) 0.59922(12)
H8_5 H 0.0780 0.3473 0.5780
N14_5 N 0.25155(17) 0.6250 0.6250
C9_5 C 0.36147(16) 0.65078(12) 0.59922(12)
H9_5 H 0.4027 0.6720 0.5780
N15_5 N 0.29271(13) 0.58360(9) 0.66640(9)
C10_5 C 0.36147(16) 0.59922(12) 0.65078(12)
H10_5 H 0.4027 0.5780 0.6720
N17_5 N 0.1250 0.6250 0.75155(17)
C11_5 C 0.09922(12) 0.65078(12) 0.86147(16)
H11_5 H 0.0780 0.6720 0.9027
N18_5 N 0.16640(9) 0.58360(9) 0.79271(13)
C12_5 C 0.15078(12) 0.59922(12) 0.86147(16)
H12_5 H 0.1720 0.5780 0.9027
N8_5 N 0.99845(17) 0.6250 0.6250
C5_5 C 0.88853(16) 0.59922(12) 0.59922(12)
H5_5 H 0.8473 0.5780 0.5780
C6_5 C 0.88853(16) 0.65078(12) 0.65078(12)
H6_5 H 0.8473 0.6720 0.6720
Cd2_6 Cd 0.6250 0.6250 0.1250
N5_6 N 0.6250 0.49845(17) 0.1250
C3_6 C 0.65078(12) 0.38853(16) 0.15078(12)
H3_6 H 0.6720 0.3473 0.1720
C4_6 C 0.59922(12) 0.38853(16) 0.09922(12)
H4_6 H 0.5780 0.3473 0.0780
N8_6 N 0.75155(17) 0.6250 0.1250
C5_6 C 0.86147(16) 0.65078(12) 0.09922(12)
H5_6 H 0.9027 0.6720 0.0780
C6_6 C 0.86147(16) 0.59922(12) 0.15078(12)
H6_6 H 0.9027 0.5780 0.1720
N10_6 N 0.58360(9) 0.79271(13) 0.16640(9)
N11_6 N 0.6250 0.75155(17) 0.1250
C7_6 C 0.59922(12) 0.86147(16) 0.15078(12)
H7_6 H 0.5780 0.9027 0.1720
C8_6 C 0.65078(12) 0.86147(16) 0.09922(12)
H8_6 H 0.6720 0.9027 0.0780
N14_6 N 0.49845(17) 0.6250 0.1250
C9_6 C 0.38853(16) 0.59922(12) 0.09922(12)
H9_6 H 0.3473 0.5780 0.0780
N15_6 N 0.45729(13) 0.66640(9) 0.16640(9)
C10_6 C 0.38853(16) 0.65078(12) 0.15078(12)
H10_6 H 0.3473 0.6720 0.1720
N17_6 N 0.6250 0.6250 0.25155(17)
C11_6 C 0.65078(12) 0.59922(12) 0.36147(16)
H11_6 H 0.6720 0.5780 0.4027
N18_6 N 0.58360(9) 0.66640(9) 0.29271(13)
C12_6 C 0.59922(12) 0.65078(12) 0.36147(16)
H12_6 H 0.5780 0.6720 0.4027
N2_6 N 0.6250 0.6250 0.99845(17)
C1_6 C 0.59922(12) 0.59922(12) 0.88853(16)
H1_6 H 0.5780 0.5780 0.8473
C2_6 C 0.65078(12) 0.65078(12) 0.88853(16)
H2_6 H 0.6720 0.6720 0.8473
Cd2_7 Cd 0.6250 0.1250 0.6250
N2_7 N 0.6250 0.1250 0.75155(17)
C1_7 C 0.65078(12) 0.09922(12) 0.86147(16)
H1_7 H 0.6720 0.0780 0.9027
C2_7 C 0.59922(12) 0.15078(12) 0.86147(16)
H2_7 H 0.5780 0.1720 0.9027
N8_7 N 0.49845(17) 0.1250 0.6250
C5_7 C 0.38853(16) 0.15078(12) 0.65078(12)
H5_7 H 0.3473 0.1720 0.6720
C6_7 C 0.38853(16) 0.09922(12) 0.59922(12)
H6_7 H 0.3473 0.0780 0.5780
N10_7 N 0.66640(9) 0.29271(13) 0.58360(9)
N11_7 N 0.6250 0.25155(17) 0.6250
C7_7 C 0.65078(12) 0.36147(16) 0.59922(12)
H7_7 H 0.6720 0.4027 0.5780
C8_7 C 0.59922(12) 0.36147(16) 0.65078(12)
H8_7 H 0.5780 0.4027 0.6720
N14_7 N 0.75155(17) 0.1250 0.6250
C9_7 C 0.86147(16) 0.09922(12) 0.65078(12)
H9_7 H 0.9027 0.0780 0.6720
N15_7 N 0.79271(13) 0.16640(9) 0.58360(9)
C10_7 C 0.86147(16) 0.15078(12) 0.59922(12)
H10_7 H 0.9027 0.1720 0.5780
N17_7 N 0.6250 0.1250 0.49845(17)
C11_7 C 0.59922(12) 0.09922(12) 0.38853(16)
H11_7 H 0.5780 0.0780 0.3473
N18_7 N 0.66640(9) 0.16640(9) 0.45729(13)
C12_7 C 0.65078(12) 0.15078(12) 0.38853(16)
H12_7 H 0.6720 0.1720 0.3473
N5_7 N 0.6250 0.99845(17) 0.6250
C3_7 C 0.59922(12) 0.88853(16) 0.59922(12)
H3_7 H 0.5780 0.8473 0.5780
C4_7 C 0.65078(12) 0.88853(16) 0.65078(12)
H4_7 H 0.6720 0.8473 0.6720
Cd2_8 Cd 0.1250 0.1250 0.1250
N2_8 N 0.1250 0.1250 0.25155(17)
C1_8 C 0.09922(12) 0.15078(12) 0.36147(16)
H1_8 H 0.0780 0.1720 0.4027
C2_8 C 0.15078(12) 0.09922(12) 0.36147(16)
H2_8 H 0.1720 0.0780 0.4027
N5_8 N 0.1250 0.25155(17) 0.1250
C3_8 C 0.15078(12) 0.36147(16) 0.09922(12)
H3_8 H 0.1720 0.4027 0.0780
C4_8 C 0.09922(12) 0.36147(16) 0.15078(12)
H4_8 H 0.0780 0.4027 0.1720
N8_8 N 0.25155(17) 0.1250 0.1250
C5_8 C 0.36147(16) 0.09922(12) 0.15078(12)
H5_8 H 0.4027 0.0780 0.1720
C6_8 C 0.36147(16) 0.15078(12) 0.09922(12)
H6_8 H 0.4027 0.1720 0.0780
N17_8 N 0.1250 0.1250 0.99845(17)
C11_8 C 0.15078(12) 0.15078(12) 0.88853(16)
H11_8 H 0.1720 0.1720 0.8473
N18_8 N 0.08360(9) 0.08360(9) 0.95729(13)
C12_8 C 0.09922(12) 0.09922(12) 0.88853(16)
H12_8 H 0.0780 0.0780 0.8473
N10_8 N 0.08360(9) 0.95729(13) 0.08360(9)
N11_8 N 0.1250 0.99845(17) 0.1250
C7_8 C 0.09922(12) 0.88853(16) 0.09922(12)
H7_8 H 0.0780 0.8473 0.0780
C8_8 C 0.15078(12) 0.88853(16) 0.15078(12)
H8_8 H 0.1720 0.8473 0.1720
N14_8 N 0.99845(17) 0.1250 0.1250
C9_8 C 0.88853(16) 0.15078(12) 0.15078(12)
H9_8 H 0.8473 0.1720 0.1720
N15_8 N 0.95729(13) 0.08360(9) 0.08360(9)
C10_8 C 0.88853(16) 0.09922(12) 0.09922(12)
H10_8 H 0.8473 0.0780 0.0780
loop_
_geom_bond_atom_site_label_1
_geom_bond_atom_site_label_2
_geom_bond_site_symmetry_1
_geom_bond_site_symmetry_2
Cd1 N1 1_555 1_555
N1 N2 1_555 1_555
N2 N3 1_555 1_555
C1 N1 1_555 1_555
H1 C1 1_555 1_555
N3 C2 1_555 1_555
C2 C1 1_555 1_555
H2 C2 1_555 1_555
Cd4 N3 1_555 1_555
N21 Cd1 1_555 1_555
N23 Cd1 1_555 1_555
Cd3 N4 1_555 1_555
N4 N5 1_555 1_555
N5 Cd2 1_555 1_555
C3 N4 1_555 1_555
H3 C3 1_555 1_555
N6 Cd1_2 1_555 1_555
C4 C3 1_555 1_555
H4 C4 1_555 1_555
N7 N8 1_555 1_555
N8 Cd2 1_555 1_555
C5 N7 1_555 1_555
H5 C5 1_555 1_555
N9 Cd3 1_555 1_555
C6 C5 1_555 1_555
H6 C6 1_555 1_555
N10 N11 1_555 1_555
N11 Cd2 1_555 1_555
C7 N10 1_555 1_555
H7 C7 1_555 1_555
N12 N11 1_555 1_555
C8 C7 1_555 1_555
H8 C8 1_555 1_555
N13 Cd1_2 1_555 1_555
N14 Cd2 1_555 1_555
C9 N13 1_555 1_555
H9 C9 1_555 1_555
N15 N14 1_555 1_555
C10 C9 1_555 1_555
H10 C10 1_555 1_555
N16 Cd3 1_555 1_555
N17 Cd2 1_555 1_555
C11 N16 1_555 1_555
H11 C11 1_555 1_555
N18 N17 1_555 1_555
C12 C11 1_555 1_555
H12 C12 1_555 1_555
Cd5 N10 1_555 1_555
N19 Cd1_2 1_555 1_555
N20 Cd3 1_555 1_555
N22 Cd3 1_555 1_555
N24 Cd3 1_555 1_555
N5 N6 1_555 1_555
N6 C4 1_555 1_555
N7 Cd4_2 1_555 1_555
N8 N9 1_555 1_555
N9 C6 1_555 1_555
N12 C8 1_555 1_555
N12 Cd4_2 1_555 1_555
N13 N14 1_555 1_555
N15 C10 1_555 1_555
N15 Cd5 1_555 1_555
N16 N17 1_555 1_555
N18 C12 1_555 1_555
N18 Cd5 1_555 1_555
N7_2 N8_2 1_555 1_555
C5_2 N7_2 1_555 1_555
H5_2 C5_2 1_555 1_555
N9_2 Cd3_2 1_555 1_555
C6_2 C5_2 1_555 1_555
H6_2 C6_2 1_555 1_555
N20_2 Cd3_2 1_555 1_555
N22_2 Cd3_2 1_555 1_555
N7_2 Cd4_3 1_555 1_555
N8_2 N9_2 1_555 1_555
N9_2 C6_2 1_555 1_555
Cd1_3 N1_2 1_555 1_555
Cd2_2 N2_2 1_555 1_555
N1_2 N2_2 1_555 1_555
N2_2 N3_2 1_555 1_555
C1_2 N1_2 1_555 1_555
H1_2 C1_2 1_555 1_555
N3_2 C2_2 1_555 1_555
C2_2 C1_2 1_555 1_555
H2_2 C2_2 1_555 1_555
Cd3_3 N4_2 1_555 1_555
N4_2 N5_2 1_555 1_555
N5_2 Cd2_2 1_555 1_555
C3_2 N4_2 1_555 1_555
H3_2 C3_2 1_555 1_555
N6_2 Cd1_3 1_555 1_555
C4_2 C3_2 1_555 1_555
H4_2 C4_2 1_555 1_555
N10_2 N11_2 1_555 1_555
N11_2 Cd2_2 1_555 1_555
C7_2 N10_2 1_555 1_555
H7_2 C7_2 1_555 1_555
N12_2 N11_2 1_555 1_555
C8_2 C7_2 1_555 1_555
H8_2 C8_2 1_555 1_555
N13_2 Cd1_3 1_555 1_555
N14_2 Cd2_2 1_555 1_555
C9_2 N13_2 1_555 1_555
H9_2 C9_2 1_555 1_555
N15_2 N14_2 1_555 1_555
C10_2 C9_2 1_555 1_555
H10_2 C10_2 1_555 1_555
N16_2 Cd3_3 1_555 1_555
N17_2 Cd2_2 1_555 1_555
C11_2 N16_2 1_555 1_555
H11_2 C11_2 1_555 1_555
N18_2 N17_2 1_555 1_555
C12_2 C11_2 1_555 1_555
H12_2 C12_2 1_555 1_555
Cd4_4 N3_2 1_555 1_555
Cd5_2 N10_2 1_555 1_555
N19_2 Cd1_3 1_555 1_555
N21_2 Cd1_3 1_555 1_555
N23_2 Cd1_3 1_555 1_555
N24_2 Cd3_3 1_555 1_555
N5_2 N6_2 1_555 1_555
N6_2 C4_2 1_555 1_555
N12_2 C8_2 1_555 1_555
N12_2 Cd4_4 1_555 1_555
N13_2 N14_2 1_555 1_555
N15_2 C10_2 1_555 1_555
N15_2 Cd5_2 1_555 1_555
N16_2 N17_2 1_555 1_555
N18_2 C12_2 1_555 1_555
N18_2 Cd5_2 1_555 1_555
N10_3 N11_3 1_555 1_555
C7_3 N10_3 1_555 1_555
H7_3 C7_3 1_555 1_555
N12_3 N11_3 1_555 1_555
C8_3 C7_3 1_555 1_555
H8_3 C8_3 1_555 1_555
Cd5_6 N10_3 1_555 1_555
N12_3 C8_3 1_555 1_555
N12_3 Cd4_5 1_555 1_555
N13_3 Cd1_4 1_555 1_555
C9_3 N13_3 1_555 1_555
H9_3 C9_3 1_555 1_555
N15_3 N14_3 1_555 1_555
C10_3 C9_3 1_555 1_555
H10_3 C10_3 1_555 1_555
N19_3 Cd1_4 1_555 1_555
N23_3 Cd1_4 1_555 1_555
N13_3 N14_3 1_555 1_555
N15_3 C10_3 1_555 1_555
N15_3 Cd5_8 1_555 1_555
N16_3 Cd3_4 1_555 1_555
C11_3 N16_3 1_555 1_555
H11_3 C11_3 1_555 1_555
N18_3 N17_3 1_555 1_555
C12_3 C11_3 1_555 1_555
H12_3 C12_3 1_555 1_555
N20_3 Cd3_4 1_555 1_555
N24_3 Cd3_4 1_555 1_555
N16_3 N17_3 1_555 1_555
N18_3 C12_3 1_555 1_555
N18_3 Cd5_9 1_555 1_555
Cd1_5 N1_3 1_555 1_555
Cd2_3 N2_3 1_555 1_555
N1_3 N2_3 1_555 1_555
N2_3 N3_3 1_555 1_555
C1_3 N1_3 1_555 1_555
H1_3 C1_3 1_555 1_555
N3_3 C2_3 1_555 1_555
C2_3 C1_3 1_555 1_555
H2_3 C2_3 1_555 1_555
Cd3_5 N4_3 1_555 1_555
N4_3 N5_3 1_555 1_555
N5_3 Cd2_3 1_555 1_555
C3_3 N4_3 1_555 1_555
H3_3 C3_3 1_555 1_555
N6_3 Cd1_5 1_555 1_555
C4_3 C3_3 1_555 1_555
H4_3 C4_3 1_555 1_555
N7_3 N8_3 1_555 1_555
N8_3 Cd2_3 1_555 1_555
C5_3 N7_3 1_555 1_555
H5_3 C5_3 1_555 1_555
N9_3 Cd3_5 1_555 1_555
C6_3 C5_3 1_555 1_555
H6_3 C6_3 1_555 1_555
Cd4_6 N3_3 1_555 1_555
N21_3 Cd1_5 1_555 1_555
N22_3 Cd3_5 1_555 1_555
N5_3 N6_3 1_555 1_555
N6_3 C4_3 1_555 1_555
N7_3 Cd4_6 1_555 1_555
N8_3 N9_3 1_555 1_555
N9_3 C6_3 1_555 1_555
Cd3_6 N4_4 1_555 1_555
N4_4 N5_4 1_555 1_555
C3_4 N4_4 1_555 1_555
H3_4 C3_4 1_555 1_555
N6_4 Cd1_6 1_555 1_555
C4_4 C3_4 1_555 1_555
H4_4 C4_4 1_555 1_555
N19_4 Cd1_6 1_555 1_555
N21_4 Cd1_6 1_555 1_555
N22_4 Cd3_6 1_555 1_555
N24_4 Cd3_6 1_555 1_555
N5_4 N6_4 1_555 1_555
N6_4 C4_4 1_555 1_555
Cd1_7 N1_4 1_555 1_555
Cd2_4 N2_4 1_555 1_555
N1_4 N2_4 1_555 1_555
N2_4 N3_4 1_555 1_555
C1_4 N1_4 1_555 1_555
H1_4 C1_4 1_555 1_555
N3_4 C2_4 1_555 1_555
C2_4 C1_4 1_555 1_555
H2_4 C2_4 1_555 1_555
N7_4 N8_4 1_555 1_555
N8_4 Cd2_4 1_555 1_555
C5_4 N7_4 1_555 1_555
H5_4 C5_4 1_555 1_555
N9_4 Cd3_7 1_555 1_555
C6_4 C5_4 1_555 1_555
H6_4 C6_4 1_555 1_555
N10_4 N11_4 1_555 1_555
N11_4 Cd2_4 1_555 1_555
C7_4 N10_4 1_555 1_555
H7_4 C7_4 1_555 1_555
N12_4 N11_4 1_555 1_555
C8_4 C7_4 1_555 1_555
H8_4 C8_4 1_555 1_555
N13_4 Cd1_7 1_555 1_555
N14_4 Cd2_4 1_555 1_555
C9_4 N13_4 1_555 1_555
H9_4 C9_4 1_555 1_555
N15_4 N14_4 1_555 1_555
C10_4 C9_4 1_555 1_555
H10_4 C10_4 1_555 1_555
N16_4 Cd3_7 1_555 1_555
N17_4 Cd2_4 1_555 1_555
C11_4 N16_4 1_555 1_555
H11_4 C11_4 1_555 1_555
N18_4 N17_4 1_555 1_555
C12_4 C11_4 1_555 1_555
H12_4 C12_4 1_555 1_555
Cd4_7 N3_4 1_555 1_555
Cd5_11 N10_4 1_555 1_555
N20_4 Cd3_7 1_555 1_555
N23_4 Cd1_7 1_555 1_555
N7_4 Cd4_7 1_555 1_555
N8_4 N9_4 1_555 1_555
N9_4 C6_4 1_555 1_555
N12_4 C8_4 1_555 1_555
N12_4 Cd4_7 1_555 1_555
N13_4 N14_4 1_555 1_555
N15_4 C10_4 1_555 1_555
N15_4 Cd5_11 1_555 1_555
N16_4 N17_4 1_555 1_555
N18_4 C12_4 1_555 1_555
N18_4 Cd5_11 1_555 1_555
N20_5 Cd4_7 1_555 1_555
N22_5 Cd4_7 1_555 1_555
N24_5 Cd4_7 1_555 1_555
N20_6 Cd4 1_555 1_555
N22_6 Cd4 1_555 1_555
N24_6 Cd4_2 1_555 1_555
N20_7 Cd4_5 1_555 1_555
N24_7 Cd4_5 1_555 1_555
N22_7 Cd4_6 1_555 1_555
N22_8 Cd4_3 1_555 1_555
N24_8 Cd4_3 1_555 1_555
N20_8 Cd4_4 1_555 1_555
Cd2_5 N2_5 1_555 1_555
N19_2 N2_5 1_555 1_555
N2_5 N22_4 1_555 1_555
C1_5 N19_2 1_555 1_555
H1_5 C1_5 1_555 1_555
N22_4 C2_5 1_555 1_555
C2_5 C1_5 1_555 1_555
H2_5 C2_5 1_555 1_555
N20_7 N5_5 1_555 1_555
N5_5 Cd2_5 1_555 1_555
C3_5 N20_7 1_555 1_555
H3_5 C3_5 1_555 1_555
C4_5 C3_5 1_555 1_555
H4_5 C4_5 1_555 1_555
N10_5 N11_5 1_555 1_555
N11_5 Cd2_5 1_555 1_555
C7_5 N10_5 1_555 1_555
H7_5 C7_5 1_555 1_555
N24_4 N11_5 1_555 1_555
C8_5 C7_5 1_555 1_555
H8_5 C8_5 1_555 1_555
N14_5 Cd2_5 1_555 1_555
C9_5 N23_2 1_555 1_555
H9_5 C9_5 1_555 1_555
N15_5 N14_5 1_555 1_555
C10_5 C9_5 1_555 1_555
H10_5 C10_5 1_555 1_555
N17_5 Cd2_5 1_555 1_555
C11_5 N24_7 1_555 1_555
H11_5 C11_5 1_555 1_555
N18_5 N17_5 1_555 1_555
C12_5 C11_5 1_555 1_555
H12_5 C12_5 1_555 1_555
Cd5 N10_5 1_555 1_555
N5_5 N21_2 1_555 1_555
N21_2 C4_5 1_555 1_555
N24_4 C8_5 1_555 1_555
N23_2 N14_5 1_555 1_555
N15_5 C10_5 1_555 1_555
N15_5 Cd5 1_555 1_555
N24_7 N17_5 1_555 1_555
N18_5 C12_5 1_555 1_555
N18_5 Cd5 1_555 1_555
N20_4 N8_5 1_555 1_555
C5_5 N20_4 1_555 1_555
H5_5 C5_5 1_555 1_555
C6_5 C5_5 1_555 1_555
H6_5 C6_5 1_555 1_555
N8_5 N22_7 1_555 1_555
N22_7 C6_5 1_555 1_555
N20_5 N5_6 1_555 1_555
N5_6 Cd2_6 1_555 1_555
C3_6 N20_5 1_555 1_555
H3_6 C3_6 1_555 1_555
C4_6 C3_6 1_555 1_555
H4_6 C4_6 1_555 1_555
N20_3 N8_6 1_555 1_555
N8_6 Cd2_6 1_555 1_555
C5_6 N20_3 1_555 1_555
H5_6 C5_6 1_555 1_555
C6_6 C5_6 1_555 1_555
H6_6 C6_6 1_555 1_555
N10_6 N11_6 1_555 1_555
N11_6 Cd2_6 1_555 1_555
C7_6 N10_6 1_555 1_555
H7_6 C7_6 1_555 1_555
N24_3 N11_6 1_555 1_555
C8_6 C7_6 1_555 1_555
H8_6 C8_6 1_555 1_555
N14_6 Cd2_6 1_555 1_555
C9_6 N23 1_555 1_555
H9_6 C9_6 1_555 1_555
N15_6 N14_6 1_555 1_555
C10_6 C9_6 1_555 1_555
H10_6 C10_6 1_555 1_555
N17_6 Cd2_6 1_555 1_555
C11_6 N24_5 1_555 1_555
H11_6 C11_6 1_555 1_555
N18_6 N17_6 1_555 1_555
C12_6 C11_6 1_555 1_555
H12_6 C12_6 1_555 1_555
Cd5_2 N10_6 1_555 1_555
N5_6 N21 1_555 1_555
N21 C4_6 1_555 1_555
N8_6 N22_5 1_555 1_555
N22_5 C6_6 1_555 1_555
N24_3 C8_6 1_555 1_555
N23 N14_6 1_555 1_555
N15_6 C10_6 1_555 1_555
N15_6 Cd5_2 1_555 1_555
N24_5 N17_6 1_555 1_555
N18_6 C12_6 1_555 1_555
N18_6 Cd5_2 1_555 1_555
N19 N2_6 1_555 1_555
N2_6 N22_3 1_555 1_555
C1_6 N19 1_555 1_555
H1_6 C1_6 1_555 1_555
N22_3 C2_6 1_555 1_555
C2_6 C1_6 1_555 1_555
H2_6 C2_6 1_555 1_555
Cd2_7 N2_7 1_555 1_555
N19_3 N2_7 1_555 1_555
N2_7 N22 1_555 1_555
C1_7 N19_3 1_555 1_555
H1_7 C1_7 1_555 1_555
N22 C2_7 1_555 1_555
C2_7 C1_7 1_555 1_555
H2_7 C2_7 1_555 1_555
N20 N8_7 1_555 1_555
N8_7 Cd2_7 1_555 1_555
C5_7 N20 1_555 1_555
H5_7 C5_7 1_555 1_555
C6_7 C5_7 1_555 1_555
H6_7 C6_7 1_555 1_555
N10_7 N11_7 1_555 1_555
N11_7 Cd2_7 1_555 1_555
C7_7 N10_7 1_555 1_555
H7_7 C7_7 1_555 1_555
N24 N11_7 1_555 1_555
C8_7 C7_7 1_555 1_555
H8_7 C8_7 1_555 1_555
N14_7 Cd2_7 1_555 1_555
C9_7 N23_3 1_555 1_555
H9_7 C9_7 1_555 1_555
N15_7 N14_7 1_555 1_555
C10_7 C9_7 1_555 1_555
H10_7 C10_7 1_555 1_555
N17_7 Cd2_7 1_555 1_555
C11_7 N24_8 1_555 1_555
H11_7 C11_7 1_555 1_555
N18_7 N17_7 1_555 1_555
C12_7 C11_7 1_555 1_555
H12_7 C12_7 1_555 1_555
Cd5_11 N10_7 1_555 1_555
N8_7 N22_8 1_555 1_555
N22_8 C6_7 1_555 1_555
N24 C8_7 1_555 1_555
N23_3 N14_7 1_555 1_555
N15_7 C10_7 1_555 1_555
N15_7 Cd5_11 1_555 1_555
N24_8 N17_7 1_555 1_555
N18_7 C12_7 1_555 1_555
N18_7 Cd5_11 1_555 1_555
N20_8 N5_7 1_555 1_555
C3_7 N20_8 1_555 1_555
H3_7 C3_7 1_555 1_555
C4_7 C3_7 1_555 1_555
H4_7 C4_7 1_555 1_555
N5_7 N21_3 1_555 1_555
N21_3 C4_7 1_555 1_555
Cd2_8 N2_8 1_555 1_555
N19_4 N2_8 1_555 1_555
N2_8 N22_2 1_555 1_555
C1_8 N19_4 1_555 1_555
H1_8 C1_8 1_555 1_555
N22_2 C2_8 1_555 1_555
C2_8 C1_8 1_555 1_555
H2_8 C2_8 1_555 1_555
N20_6 N5_8 1_555 1_555
N5_8 Cd2_8 1_555 1_555
C3_8 N20_6 1_555 1_555
H3_8 C3_8 1_555 1_555
C4_8 C3_8 1_555 1_555
H4_8 C4_8 1_555 1_555
N20_2 N8_8 1_555 1_555
N8_8 Cd2_8 1_555 1_555
C5_8 N20_2 1_555 1_555
H5_8 C5_8 1_555 1_555
C6_8 C5_8 1_555 1_555
H6_8 C6_8 1_555 1_555
N5_8 N21_4 1_555 1_555
N21_4 C4_8 1_555 1_555
N8_8 N22_6 1_555 1_555
N22_6 C6_8 1_555 1_555
C11_8 N24_6 1_555 1_555
H11_8 C11_8 1_555 1_555
N18_8 N17_8 1_555 1_555
C12_8 C11_8 1_555 1_555
H12_8 C12_8 1_555 1_555
N24_6 N17_8 1_555 1_555
N18_8 C12_8 1_555 1_555
N18_8 Cd5_4 1_555 1_555
N10_8 N11_8 1_555 1_555
C7_8 N10_8 1_555 1_555
H7_8 C7_8 1_555 1_555
N24_2 N11_8 1_555 1_555
C8_8 C7_8 1_555 1_555
H8_8 C8_8 1_555 1_555
Cd5_5 N10_8 1_555 1_555
N24_2 C8_8 1_555 1_555
C9_8 N23_4 1_555 1_555
H9_8 C9_8 1_555 1_555
N15_8 N14_8 1_555 1_555
C10_8 C9_8 1_555 1_555
H10_8 C10_8 1_555 1_555
N23_4 N14_8 1_555 1_555
N15_8 C10_8 1_555 1_555
N15_8 Cd5_7 1_555 1_555

#END
