
###############################################################################
#
# This file contains modified crystal structure data generated from the
# MOF subset of the Cambridge Structural Database (CSD) v543 
# hosted by the Cambridge Crystallographic Data Centre (CCDC).
#
# This work is licensed under the Creative Commons
# Attribution-NonCommercial-ShareAlike 4.0 International License.
# To view a copy of this license, visit
# http://creativecommons.org/licenses/by-nc-sa/4.0/
# or send a letter to
# Creative Commons, PO Box 1866, Mountain View, CA 94042, USA.
#
# CIF created using the CSD Python API on 29 September 2022
# The structure has been converted into the P1 space group
# The structure has a 3D framework
# The original CSD entry HEJQEV01 is in the cubic crystal system
# The framework has been calculated to contain at least 10.0% void space
# The void calculation uses a probe of radius 1.32A, grid spacing 0.4
#
###############################################################################

data_HEJQEV01
_chemical_formula_moiety         '(C96 H96 Mn28 N139)n'
_symmetry_cell_setting           triclinic
_symmetry_space_group_name_H-M   'P 1'
_symmetry_Int_Tables_number      1
_space_group_name_Hall           'P 1'
loop_
_symmetry_equiv_pos_site_id
_symmetry_equiv_pos_as_xyz
1 x,y,z
_cell_length_a                   18.1649
_cell_length_b                   18.1649
_cell_length_c                   18.1649
_cell_angle_alpha                90
_cell_angle_beta                 90
_cell_angle_gamma                90
_cell_volume                     5993.76
loop_
_atom_site_label
_atom_site_type_symbol
_atom_site_fract_x
_atom_site_fract_y
_atom_site_fract_z
_atom_site_U_iso_or_equiv
_atom_site_thermal_displace_type
N1 N 0.66910 0.28282 0.58090 0.0000 Uiso
C1 C 0.65351 0.35361 0.59649 0.0000 Uiso
N2 N 0.62500 0.24098 0.62500 0.0000 Uiso
H1 H 0.67931 0.40070 0.57069 0.2000 Uiso
Mn1 Mn 0.75000 0.25000 0.50000 0.0000 Uiso
Mn2 Mn 0.62500 0.12500 0.62500 0.0000 Uiso
N3 N 0.58090 0.28282 0.66910 0.0000 Uiso
C2 C 0.59649 0.35361 0.65351 0.0000 Uiso
H2 H 0.57069 0.40070 0.67931 0.2000 Uiso
N4 N 0.66910 0.16910 0.46718 0.0000 Uiso
C3 C 0.65351 0.15351 0.39639 0.0000 Uiso
N5 N 0.62500 0.12500 0.50902 0.0000 Uiso
H3 H 0.67931 0.17931 0.34930 0.2000 Uiso
N6 N 0.58090 0.08090 0.46718 0.0000 Uiso
C4 C 0.59649 0.09649 0.39639 0.0000 Uiso
H4 H 0.57069 0.07069 0.34930 0.2000 Uiso
N7 N 0.78282 0.16910 0.58090 0.0000 Uiso
C5 C 0.85361 0.15351 0.59649 0.0000 Uiso
N8 N 0.74098 0.12500 0.62500 0.0000 Uiso
H5 H 0.90070 0.17931 0.57069 0.2000 Uiso
N9 N 0.78282 0.08090 0.66910 0.0000 Uiso
C6 C 0.85361 0.09649 0.65351 0.0000 Uiso
H6 H 0.90070 0.07069 0.67931 0.2000 Uiso
Mn3 Mn 0.50000 0.25000 0.75000 0.0000 Uiso
N10 N 0.46718 0.16910 0.66910 0.0000 Uiso
C7 C 0.39639 0.15351 0.65351 0.0000 Uiso
N11 N 0.50902 0.12500 0.62500 0.0000 Uiso
H7 H 0.34930 0.17931 0.67931 0.2000 Uiso
N12 N 0.46718 0.08090 0.58090 0.0000 Uiso
C8 C 0.39639 0.09649 0.59649 0.0000 Uiso
H8 H 0.34930 0.07069 0.57069 0.2000 Uiso
N13 N 0.58090 0.16910 0.78282 0.0000 Uiso
C9 C 0.59649 0.15351 0.85361 0.0000 Uiso
N14 N 0.62500 0.12500 0.74098 0.0000 Uiso
H9 H 0.57069 0.17931 0.90070 0.2000 Uiso
N15 N 0.66910 0.08090 0.78282 0.0000 Uiso
C10 C 0.65351 0.09649 0.85361 0.0000 Uiso
H10 H 0.67931 0.07069 0.90070 0.2000 Uiso
N16 N 0.71718 0.33090 0.41910 0.0000 Uiso
C11 C 0.64639 0.34649 0.40351 0.0000 Uiso
N17 N 0.75902 0.37500 0.37500 0.0000 Uiso
H11 H 0.59930 0.32069 0.42931 0.2000 Uiso
N18 N 0.71718 0.41910 0.33090 0.0000 Uiso
C12 C 0.64639 0.40351 0.34649 0.0000 Uiso
H12 H 0.59930 0.42931 0.32069 0.2000 Uiso
N19 N 0.83090 0.33090 0.53282 0.0000 Uiso
N20 N 0.83090 0.21718 0.41910 0.0000 Uiso
N21 N 0.41910 0.21718 0.83090 0.0000 Uiso
N22 N 0.41910 0.33090 0.71718 0.0000 Uiso
N23 N 0.53282 0.33090 0.83090 0.0000 Uiso
N24 N 0.62500 0.00902 0.62500 0.0000 Uiso
Mn4 Mn 0.75000 0.50000 0.25000 0.0000 Uiso
Mn5 Mn 0.75000 0.00000 0.75000 0.0000 Uiso
Mn6 Mn 0.50000 0.00000 0.50000 0.0000 Uiso
Mn7 Mn 0.87500 0.37500 0.37500 0.0000 Uiso
Mn5_2 Mn 0.75000 1.00000 0.75000 0.0000 Uiso
Mn6_2 Mn 0.50000 1.00000 0.50000 0.0000 Uiso
N2_2 N 0.12500 0.00902 0.12500 0.0000 Uiso
Mn1_2 Mn -0.00000 0.00000 -0.00000 0.0000 Uiso
Mn2_2 Mn 0.12500 0.12500 0.12500 0.0000 Uiso
N5_2 N 0.12500 0.12500 0.00902 0.0000 Uiso
N8_2 N 0.00902 0.12500 0.12500 0.0000 Uiso
Mn3_2 Mn 0.25000 0.00000 0.25000 0.0000 Uiso
N10_2 N 0.28282 0.08090 0.16910 0.0000 Uiso
C7_2 C 0.35361 0.09649 0.15351 0.0000 Uiso
N11_2 N 0.24098 0.12500 0.12500 0.0000 Uiso
H7_2 H 0.40070 0.07069 0.17931 0.2000 Uiso
N12_2 N 0.28282 0.16910 0.08090 0.0000 Uiso
C8_2 C 0.35361 0.15351 0.09649 0.0000 Uiso
H8_2 H 0.40070 0.17931 0.07069 0.2000 Uiso
N13_2 N 0.16910 0.08090 0.28282 0.0000 Uiso
C9_2 C 0.15351 0.09649 0.35361 0.0000 Uiso
N14_2 N 0.12500 0.12500 0.24098 0.0000 Uiso
H9_2 H 0.17931 0.07069 0.40070 0.2000 Uiso
N15_2 N 0.08090 0.16910 0.28282 0.0000 Uiso
C10_2 C 0.09649 0.15351 0.35361 0.0000 Uiso
H10_2 H 0.07069 0.17931 0.40070 0.2000 Uiso
N21_2 N 0.33090 0.03282 0.33090 0.0000 Uiso
N24_2 N 0.12500 0.24098 0.12500 0.0000 Uiso
Mn5_3 Mn 0.00000 0.25000 0.25000 0.0000 Uiso
Mn6_3 Mn 0.25000 0.25000 -0.00000 0.0000 Uiso
Mn1_3 Mn -0.00000 0.00000 1.00000 0.0000 Uiso
N4_2 N 0.08090 0.08090 0.96718 0.0000 Uiso
C3_2 C 0.09649 0.09649 0.89639 0.0000 Uiso
H3_2 H 0.07069 0.07069 0.84930 0.2000 Uiso
N6_2 N 0.16910 0.16910 0.96718 0.0000 Uiso
C4_2 C 0.15351 0.15351 0.89639 0.0000 Uiso
H4_2 H 0.17931 0.17931 0.84930 0.2000 Uiso
Mn6_4 Mn 0.25000 0.25000 1.00000 0.0000 Uiso
N1_2 N 0.08090 0.96718 0.08090 0.0000 Uiso
C1_2 C 0.09649 0.89639 0.09649 0.0000 Uiso
H1_2 H 0.07069 0.84930 0.07069 0.2000 Uiso
Mn1_4 Mn -0.00000 1.00000 -0.00000 0.0000 Uiso
N3_2 N 0.16910 0.96718 0.16910 0.0000 Uiso
C2_2 C 0.15351 0.89639 0.15351 0.0000 Uiso
H2_2 H 0.17931 0.84930 0.17931 0.2000 Uiso
Mn3_3 Mn 0.25000 1.00000 0.25000 0.0000 Uiso
N22_2 N 0.33090 0.91910 0.21718 0.0000 Uiso
N23_2 N 0.21718 0.91910 0.33090 0.0000 Uiso
Mn1_5 Mn -0.00000 1.00000 1.00000 0.0000 Uiso
N16_2 N 0.03282 0.91910 0.91910 0.0000 Uiso
C11_2 C 0.10361 0.90351 0.90351 0.0000 Uiso
H11_2 H 0.15070 0.92931 0.92931 0.2000 Uiso
N18_2 N 0.03282 0.83090 0.83090 0.0000 Uiso
C12_2 C 0.10361 0.84649 0.84649 0.0000 Uiso
H12_2 H 0.15070 0.82069 0.82069 0.2000 Uiso
Mn4_2 Mn 0.00000 0.75000 0.75000 0.0000 Uiso
Mn1_6 Mn 1.00000 0.00000 -0.00000 0.0000 Uiso
N7_2 N 0.96718 0.08090 0.08090 0.0000 Uiso
C5_2 C 0.89639 0.09649 0.09649 0.0000 Uiso
H5_2 H 0.84930 0.07069 0.07069 0.2000 Uiso
N9_2 N 0.96718 0.16910 0.16910 0.0000 Uiso
C6_2 C 0.89639 0.15351 0.15351 0.0000 Uiso
H6_2 H 0.84930 0.17931 0.17931 0.2000 Uiso
Mn5_4 Mn 1.00000 0.25000 0.25000 0.0000 Uiso
Mn1_7 Mn 1.00000 0.00000 1.00000 0.0000 Uiso
N20_2 N 0.91910 0.03282 0.91910 0.0000 Uiso
Mn1_8 Mn 1.00000 1.00000 -0.00000 0.0000 Uiso
N19_2 N 0.91910 0.91910 0.03282 0.0000 Uiso
Mn1_9 Mn 1.00000 1.00000 1.00000 0.0000 Uiso
N17_2 N 0.99098 0.87500 0.87500 0.0000 Uiso
Mn4_3 Mn 1.00000 0.75000 0.75000 0.0000 Uiso
Mn7_2 Mn 0.87500 0.87500 0.87500 0.0000 Uiso
N1_3 N 0.58090 0.78282 0.16910 0.0000 Uiso
C1_3 C 0.59649 0.85361 0.15351 0.0000 Uiso
N2_3 N 0.62500 0.74098 0.12500 0.0000 Uiso
H1_3 H 0.57069 0.90070 0.17931 0.2000 Uiso
Mn1_10 Mn 0.50000 0.75000 0.25000 0.0000 Uiso
Mn2_3 Mn 0.62500 0.62500 0.12500 0.0000 Uiso
N3_3 N 0.66910 0.78282 0.08090 0.0000 Uiso
C2_3 C 0.65351 0.85361 0.09649 0.0000 Uiso
H2_3 H 0.67931 0.90070 0.07069 0.2000 Uiso
N4_3 N 0.58090 0.66910 0.28282 0.0000 Uiso
C3_3 C 0.59649 0.65351 0.35361 0.0000 Uiso
N5_3 N 0.62500 0.62500 0.24098 0.0000 Uiso
H3_3 H 0.57069 0.67931 0.40070 0.2000 Uiso
N6_3 N 0.66910 0.58090 0.28282 0.0000 Uiso
C4_3 C 0.65351 0.59649 0.35361 0.0000 Uiso
H4_3 H 0.67931 0.57069 0.40070 0.2000 Uiso
N7_3 N 0.46718 0.66910 0.16910 0.0000 Uiso
C5_3 C 0.39639 0.65351 0.15351 0.0000 Uiso
N8_3 N 0.50902 0.62500 0.12500 0.0000 Uiso
H5_3 H 0.34930 0.67931 0.17931 0.2000 Uiso
N9_3 N 0.46718 0.58090 0.08090 0.0000 Uiso
C6_3 C 0.39639 0.59649 0.09649 0.0000 Uiso
H6_3 H 0.34930 0.57069 0.07069 0.2000 Uiso
Mn3_4 Mn 0.75000 0.75000 0.00000 0.0000 Uiso
N10_3 N 0.78282 0.66910 0.08090 0.0000 Uiso
C7_3 C 0.85361 0.65351 0.09649 0.0000 Uiso
N11_3 N 0.74098 0.62500 0.12500 0.0000 Uiso
H7_3 H 0.90070 0.67931 0.07069 0.2000 Uiso
N12_3 N 0.78282 0.58090 0.16910 0.0000 Uiso
C8_3 C 0.85361 0.59649 0.15351 0.0000 Uiso
H8_3 H 0.90070 0.57069 0.17931 0.2000 Uiso
N14_3 N 0.62500 0.62500 0.00902 0.0000 Uiso
N16_3 N 0.53282 0.83090 0.33090 0.0000 Uiso
C11_3 C 0.60361 0.84649 0.34649 0.0000 Uiso
N17_3 N 0.49098 0.87500 0.37500 0.0000 Uiso
H11_3 H 0.65070 0.82069 0.32069 0.2000 Uiso
N18_3 N 0.53282 0.91910 0.41910 0.0000 Uiso
C12_3 C 0.60361 0.90351 0.40351 0.0000 Uiso
H12_3 H 0.65070 0.92931 0.42931 0.2000 Uiso
N19_3 N 0.41910 0.83090 0.21718 0.0000 Uiso
N20_3 N 0.41910 0.71718 0.33090 0.0000 Uiso
N22_3 N 0.83090 0.83090 0.03282 0.0000 Uiso
N24_3 N 0.62500 0.50902 0.12500 0.0000 Uiso
Mn5_5 Mn 0.50000 0.50000 0.00000 0.0000 Uiso
Mn7_3 Mn 0.37500 0.87500 0.37500 0.0000 Uiso
Mn3_5 Mn 0.75000 0.75000 1.00000 0.0000 Uiso
N13_3 N 0.66910 0.66910 0.96718 0.0000 Uiso
C9_3 C 0.65351 0.65351 0.89639 0.0000 Uiso
H9_3 H 0.67931 0.67931 0.84930 0.2000 Uiso
N15_3 N 0.58090 0.58090 0.96718 0.0000 Uiso
C10_3 C 0.59649 0.59649 0.89639 0.0000 Uiso
H10_3 H 0.57069 0.57069 0.84930 0.2000 Uiso
N21_3 N 0.83090 0.71718 0.91910 0.0000 Uiso
N23_3 N 0.71718 0.83090 0.91910 0.0000 Uiso
Mn5_6 Mn 0.50000 0.50000 1.00000 0.0000 Uiso
N1_4 N 0.16910 0.46718 0.66910 0.0000 Uiso
C1_4 C 0.15351 0.39639 0.65351 0.0000 Uiso
N2_4 N 0.12500 0.50902 0.62500 0.0000 Uiso
H1_4 H 0.17931 0.34930 0.67931 0.2000 Uiso
Mn1_11 Mn 0.25000 0.50000 0.75000 0.0000 Uiso
Mn2_4 Mn 0.12500 0.62500 0.62500 0.0000 Uiso
N3_4 N 0.08090 0.46718 0.58090 0.0000 Uiso
C2_4 C 0.09649 0.39639 0.59649 0.0000 Uiso
H2_4 H 0.07069 0.34930 0.57069 0.2000 Uiso
N4_4 N 0.16910 0.58090 0.78282 0.0000 Uiso
C3_4 C 0.15351 0.59649 0.85361 0.0000 Uiso
N5_4 N 0.12500 0.62500 0.74098 0.0000 Uiso
H3_4 H 0.17931 0.57069 0.90070 0.2000 Uiso
N6_4 N 0.08090 0.66910 0.78282 0.0000 Uiso
C4_4 C 0.09649 0.65351 0.85361 0.0000 Uiso
H4_4 H 0.07069 0.67931 0.90070 0.2000 Uiso
N7_4 N 0.28282 0.58090 0.66910 0.0000 Uiso
C5_4 C 0.35361 0.59649 0.65351 0.0000 Uiso
N8_4 N 0.24098 0.62500 0.62500 0.0000 Uiso
H5_4 H 0.40070 0.57069 0.67931 0.2000 Uiso
N9_4 N 0.28282 0.66910 0.58090 0.0000 Uiso
C6_4 C 0.35361 0.65351 0.59649 0.0000 Uiso
H6_4 H 0.40070 0.67931 0.57069 0.2000 Uiso
Mn3_6 Mn 0.00000 0.50000 0.50000 0.0000 Uiso
N11_4 N 0.00902 0.62500 0.62500 0.0000 Uiso
N13_4 N 0.08090 0.58090 0.46718 0.0000 Uiso
C9_4 C 0.09649 0.59649 0.39639 0.0000 Uiso
N14_4 N 0.12500 0.62500 0.50902 0.0000 Uiso
H9_4 H 0.07069 0.57069 0.34930 0.2000 Uiso
N15_4 N 0.16910 0.66910 0.46718 0.0000 Uiso
C10_4 C 0.15351 0.65351 0.39639 0.0000 Uiso
H10_4 H 0.17931 0.67931 0.34930 0.2000 Uiso
N16_4 N 0.21718 0.41910 0.83090 0.0000 Uiso
C11_4 C 0.14639 0.40351 0.84649 0.0000 Uiso
N17_4 N 0.25902 0.37500 0.87500 0.0000 Uiso
H11_4 H 0.09930 0.42931 0.82069 0.2000 Uiso
N18_4 N 0.21718 0.33090 0.91910 0.0000 Uiso
C12_4 C 0.14639 0.34649 0.90351 0.0000 Uiso
H12_4 H 0.09930 0.32069 0.92931 0.2000 Uiso
N19_4 N 0.33090 0.41910 0.71718 0.0000 Uiso
N20_4 N 0.33090 0.53282 0.83090 0.0000 Uiso
N23_4 N 0.03282 0.41910 0.41910 0.0000 Uiso
N24_4 N 0.12500 0.74098 0.62500 0.0000 Uiso
Mn5_7 Mn 0.25000 0.75000 0.50000 0.0000 Uiso
Mn7_4 Mn 0.37500 0.37500 0.87500 0.0000 Uiso
Mn3_7 Mn 1.00000 0.50000 0.50000 0.0000 Uiso
N10_4 N 0.96718 0.58090 0.58090 0.0000 Uiso
C7_4 C 0.89639 0.59649 0.59649 0.0000 Uiso
H7_4 H 0.84930 0.57069 0.57069 0.2000 Uiso
N12_4 N 0.96718 0.66910 0.66910 0.0000 Uiso
C8_4 C 0.89639 0.65351 0.65351 0.0000 Uiso
H8_4 H 0.84930 0.67931 0.67931 0.2000 Uiso
N21_4 N 0.91910 0.53282 0.41910 0.0000 Uiso
N22_4 N 0.91910 0.41910 0.53282 0.0000 Uiso
N10_5 N 0.66910 0.46718 0.16910 0.0000 Uiso
C7_5 C 0.65351 0.39639 0.15351 0.0000 Uiso
H7_5 H 0.67931 0.34930 0.17931 0.2000 Uiso
N12_5 N 0.58090 0.46718 0.08090 0.0000 Uiso
C8_5 C 0.59649 0.39639 0.09649 0.0000 Uiso
H8_5 H 0.57069 0.34930 0.07069 0.2000 Uiso
C11_5 C 0.40351 0.64639 0.34649 0.0000 Uiso
N17_5 N 0.37500 0.75902 0.37500 0.0000 Uiso
H11_5 H 0.42931 0.59930 0.32069 0.2000 Uiso
N18_5 N 0.33090 0.71718 0.41910 0.0000 Uiso
C12_5 C 0.34649 0.64639 0.40351 0.0000 Uiso
H12_5 H 0.32069 0.59930 0.42931 0.2000 Uiso
N21_5 N 0.83090 0.41910 0.21718 0.0000 Uiso
N23_5 N 0.83090 0.53282 0.33090 0.0000 Uiso
N10_6 N 0.16910 0.28282 0.08090 0.0000 Uiso
C7_6 C 0.15351 0.35361 0.09649 0.0000 Uiso
H7_6 H 0.17931 0.40070 0.07069 0.2000 Uiso
N12_6 N 0.08090 0.28282 0.16910 0.0000 Uiso
C8_6 C 0.09649 0.35361 0.15351 0.0000 Uiso
H8_6 H 0.07069 0.40070 0.17931 0.2000 Uiso
N21_6 N 0.33090 0.33090 0.03282 0.0000 Uiso
N23_6 N 0.33090 0.21718 0.91910 0.0000 Uiso
C11_6 C 0.90351 0.10361 0.90351 0.0000 Uiso
H11_6 H 0.92931 0.15070 0.92931 0.2000 Uiso
N18_6 N 0.83090 0.03282 0.83090 0.0000 Uiso
C12_6 C 0.84649 0.10361 0.84649 0.0000 Uiso
H12_6 H 0.82069 0.15070 0.82069 0.2000 Uiso
N17_6 N 0.87500 0.99098 0.87500 0.0000 Uiso
N10_7 N 0.08090 0.78282 0.66910 0.0000 Uiso
C7_7 C 0.09649 0.85361 0.65351 0.0000 Uiso
H7_7 H 0.07069 0.90070 0.67931 0.2000 Uiso
N12_7 N 0.16910 0.78282 0.58090 0.0000 Uiso
C8_7 C 0.15351 0.85361 0.59649 0.0000 Uiso
H8_7 H 0.17931 0.90070 0.57069 0.2000 Uiso
C11_7 C 0.34649 0.60361 0.84649 0.0000 Uiso
N17_7 N 0.37500 0.49098 0.87500 0.0000 Uiso
H11_7 H 0.32069 0.65070 0.82069 0.2000 Uiso
N18_7 N 0.41910 0.53282 0.91910 0.0000 Uiso
C12_7 C 0.40351 0.60361 0.90351 0.0000 Uiso
H12_7 H 0.42931 0.65070 0.92931 0.2000 Uiso
N21_7 N 0.91910 0.83090 0.71718 0.0000 Uiso
N23_7 N 0.91910 0.71718 0.83090 0.0000 Uiso
C11_8 C 0.84649 0.14639 0.40351 0.0000 Uiso
N17_8 N 0.87500 0.25902 0.37500 0.0000 Uiso
H11_8 H 0.82069 0.09930 0.42931 0.2000 Uiso
N18_8 N 0.91910 0.21718 0.33090 0.0000 Uiso
C12_8 C 0.90351 0.14639 0.34649 0.0000 Uiso
H12_8 H 0.92931 0.09930 0.32069 0.2000 Uiso
N23_8 N 0.41910 0.03282 0.41910 0.0000 Uiso
N10_8 N 0.58090 0.96718 0.58090 0.0000 Uiso
C7_8 C 0.59649 0.89639 0.59649 0.0000 Uiso
H7_8 H 0.57069 0.84930 0.57069 0.2000 Uiso
N12_8 N 0.66910 0.96718 0.66910 0.0000 Uiso
C8_8 C 0.65351 0.89639 0.65351 0.0000 Uiso
H8_8 H 0.67931 0.84930 0.67931 0.2000 Uiso
N21_8 N 0.41910 0.91910 0.53282 0.0000 Uiso
C11_9 C 0.34649 0.40351 0.64639 0.0000 Uiso
N17_9 N 0.37500 0.37500 0.75902 0.0000 Uiso
H11_9 H 0.32069 0.42931 0.59930 0.2000 Uiso
C12_9 C 0.40351 0.34649 0.64639 0.0000 Uiso
H12_9 H 0.42931 0.32069 0.59930 0.2000 Uiso
N21_9 N 0.21718 0.83090 0.41910 0.0000 Uiso
N23_9 N 0.33090 0.83090 0.53282 0.0000 Uiso
N21_10 N 0.03282 0.33090 0.33090 0.0000 Uiso
N23_10 N 0.91910 0.33090 0.21718 0.0000 Uiso
C11_10 C 0.90351 0.90351 0.10361 0.0000 Uiso
H11_10 H 0.92931 0.92931 0.15070 0.2000 Uiso
C12_10 C 0.84649 0.84649 0.10361 0.0000 Uiso
H12_10 H 0.82069 0.82069 0.15070 0.2000 Uiso
N17_10 N 0.87500 0.87500 0.99098 0.0000 Uiso
C11_11 C 0.84649 0.34649 0.60361 0.0000 Uiso
N17_11 N 0.87500 0.37500 0.49098 0.0000 Uiso
H11_11 H 0.82069 0.32069 0.65070 0.2000 Uiso
C12_11 C 0.90351 0.40351 0.60361 0.0000 Uiso
H12_11 H 0.92931 0.42931 0.65070 0.2000 Uiso
N21_11 N 0.71718 0.91910 0.83090 0.0000 Uiso
N23_11 N 0.83090 0.91910 0.71718 0.0000 Uiso
C11_12 C 0.40351 0.84649 0.14639 0.0000 Uiso
N17_12 N 0.37500 0.87500 0.25902 0.0000 Uiso
H11_12 H 0.42931 0.82069 0.09930 0.2000 Uiso
C12_12 C 0.34649 0.90351 0.14639 0.0000 Uiso
H12_12 H 0.32069 0.92931 0.09930 0.2000 Uiso
N23_12 N 0.41910 0.41910 0.03282 0.0000 Uiso
N21_12 N 0.53282 0.41910 0.91910 0.0000 Uiso
C7_9 C 0.90351 0.64639 0.84649 0.0000 Uiso
N11_5 N 0.87500 0.75902 0.87500 0.0000 Uiso
H7_9 H 0.92931 0.59930 0.82069 0.2000 Uiso
C8_9 C 0.84649 0.64639 0.90351 0.0000 Uiso
H8_9 H 0.82069 0.59930 0.92931 0.2000 Uiso
C9_5 C 0.90351 0.84649 0.64639 0.0000 Uiso
N14_5 N 0.87500 0.87500 0.75902 0.0000 Uiso
H9_5 H 0.92931 0.82069 0.59930 0.2000 Uiso
C10_5 C 0.84649 0.90351 0.64639 0.0000 Uiso
H10_5 H 0.82069 0.92931 0.59930 0.2000 Uiso
N24_5 N 0.75902 0.87500 0.87500 0.0000 Uiso
C7_10 C 0.84649 0.60361 0.34649 0.0000 Uiso
N11_6 N 0.87500 0.49098 0.37500 0.0000 Uiso
H7_10 H 0.82069 0.65070 0.32069 0.2000 Uiso
C8_10 C 0.90351 0.60361 0.40351 0.0000 Uiso
H8_10 H 0.92931 0.65070 0.42931 0.2000 Uiso
C9_6 C 0.84649 0.40351 0.14639 0.0000 Uiso
N14_6 N 0.87500 0.37500 0.25902 0.0000 Uiso
H9_6 H 0.82069 0.42931 0.09930 0.2000 Uiso
C10_6 C 0.90351 0.34649 0.14639 0.0000 Uiso
H10_6 H 0.92931 0.32069 0.09930 0.2000 Uiso
N24_6 N 0.99098 0.37500 0.37500 0.0000 Uiso
C7_11 C 0.40351 0.10361 0.40351 0.0000 Uiso
H7_11 H 0.42931 0.15070 0.42931 0.2000 Uiso
C8_11 C 0.34649 0.10361 0.34649 0.0000 Uiso
H8_11 H 0.32069 0.15070 0.32069 0.2000 Uiso
N11_7 N 0.37500 0.99098 0.37500 0.0000 Uiso
C9_7 C 0.40351 0.90351 0.60361 0.0000 Uiso
N14_7 N 0.37500 0.87500 0.49098 0.0000 Uiso
H9_7 H 0.42931 0.92931 0.65070 0.2000 Uiso
C10_7 C 0.34649 0.84649 0.60361 0.0000 Uiso
H10_7 H 0.32069 0.82069 0.65070 0.2000 Uiso
N24_7 N 0.25902 0.87500 0.37500 0.0000 Uiso
C9_8 C 0.34649 0.34649 0.10361 0.0000 Uiso
H9_8 H 0.32069 0.32069 0.15070 0.2000 Uiso
C10_8 C 0.40351 0.40351 0.10361 0.0000 Uiso
H10_8 H 0.42931 0.42931 0.15070 0.2000 Uiso
C7_12 C 0.34649 0.14639 0.90351 0.0000 Uiso
N11_8 N 0.37500 0.25902 0.87500 0.0000 Uiso
H7_12 H 0.32069 0.09930 0.92931 0.2000 Uiso
C8_12 C 0.40351 0.14639 0.84649 0.0000 Uiso
H8_12 H 0.42931 0.09930 0.82069 0.2000 Uiso
N14_8 N 0.37500 0.37500 0.99098 0.0000 Uiso
N24_8 N 0.49098 0.37500 0.87500 0.0000 Uiso
C7_13 C 0.14639 0.90351 0.34649 0.0000 Uiso
H7_13 H 0.09930 0.92931 0.32069 0.2000 Uiso
C8_13 C 0.14639 0.84649 0.40351 0.0000 Uiso
H8_13 H 0.09930 0.82069 0.42931 0.2000 Uiso
C7_14 C 0.10361 0.40351 0.40351 0.0000 Uiso
H7_14 H 0.15070 0.42931 0.42931 0.2000 Uiso
C8_14 C 0.10361 0.34649 0.34649 0.0000 Uiso
H8_14 H 0.15070 0.32069 0.32069 0.2000 Uiso
C7_15 C 0.60361 0.34649 0.84649 0.0000 Uiso
H7_15 H 0.65070 0.32069 0.82069 0.2000 Uiso
C8_15 C 0.60361 0.40351 0.90351 0.0000 Uiso
H8_15 H 0.65070 0.42931 0.92931 0.2000 Uiso
C7_16 C 0.64639 0.84649 0.90351 0.0000 Uiso
H7_16 H 0.59930 0.82069 0.92931 0.2000 Uiso
C8_16 C 0.64639 0.90351 0.84649 0.0000 Uiso
H8_16 H 0.59930 0.92931 0.82069 0.2000 Uiso
loop_
_geom_bond_atom_site_label_1
_geom_bond_atom_site_label_2
_geom_bond_site_symmetry_1
_geom_bond_site_symmetry_2
N1 C1 1_555 1_555
C1 H1 1_555 1_555
N2 N1 1_555 1_555
Mn1 N1 1_555 1_555
Mn2 N2 1_555 1_555
N3 N2 1_555 1_555
C2 C1 1_555 1_555
H2 C2 1_555 1_555
N4 Mn1 1_555 1_555
C3 N4 1_555 1_555
N5 Mn2 1_555 1_555
H3 C3 1_555 1_555
N6 N5 1_555 1_555
C4 C3 1_555 1_555
H4 C4 1_555 1_555
N7 Mn1 1_555 1_555
C5 N7 1_555 1_555
N8 Mn2 1_555 1_555
H5 C5 1_555 1_555
N9 N8 1_555 1_555
C6 C5 1_555 1_555
H6 C6 1_555 1_555
Mn3 N3 1_555 1_555
N10 Mn3 1_555 1_555
C7 N10 1_555 1_555
N11 Mn2 1_555 1_555
H7 C7 1_555 1_555
N12 N11 1_555 1_555
C8 C7 1_555 1_555
H8 C8 1_555 1_555
N13 Mn3 1_555 1_555
C9 N13 1_555 1_555
N14 Mn2 1_555 1_555
H9 C9 1_555 1_555
N15 N14 1_555 1_555
C10 C9 1_555 1_555
H10 C10 1_555 1_555
N16 Mn1 1_555 1_555
C11 N16 1_555 1_555
N17 N16 1_555 1_555
H11 C11 1_555 1_555
N18 N17 1_555 1_555
C12 C11 1_555 1_555
H12 C12 1_555 1_555
N19 Mn1 1_555 1_555
N20 Mn1 1_555 1_555
N21 Mn3 1_555 1_555
N22 Mn3 1_555 1_555
N23 Mn3 1_555 1_555
N24 Mn2 1_555 1_555
Mn4 N18 1_555 1_555
Mn5 N9 1_555 1_555
Mn6 N6 1_555 1_555
Mn7 N17 1_555 1_555
N3 C2 1_555 1_555
N4 N5 1_555 1_555
N6 C4 1_555 1_555
N7 N8 1_555 1_555
N9 C6 1_555 1_555
N10 N11 1_555 1_555
N12 C8 1_555 1_555
N12 Mn6 1_555 1_555
N13 N14 1_555 1_555
N15 C10 1_555 1_555
N15 Mn5 1_555 1_555
N18 C12 1_555 1_555
Mn2_2 N2_2 1_555 1_555
N5_2 Mn2_2 1_555 1_555
N8_2 Mn2_2 1_555 1_555
N10_2 Mn3_2 1_555 1_555
C7_2 N10_2 1_555 1_555
N11_2 Mn2_2 1_555 1_555
H7_2 C7_2 1_555 1_555
N12_2 N11_2 1_555 1_555
C8_2 C7_2 1_555 1_555
H8_2 C8_2 1_555 1_555
N13_2 Mn3_2 1_555 1_555
C9_2 N13_2 1_555 1_555
N14_2 Mn2_2 1_555 1_555
H9_2 C9_2 1_555 1_555
N15_2 N14_2 1_555 1_555
C10_2 C9_2 1_555 1_555
H10_2 C10_2 1_555 1_555
N21_2 Mn3_2 1_555 1_555
N24_2 Mn2_2 1_555 1_555
N10_2 N11_2 1_555 1_555
N12_2 C8_2 1_555 1_555
N12_2 Mn6_3 1_555 1_555
N13_2 N14_2 1_555 1_555
N15_2 C10_2 1_555 1_555
N15_2 Mn5_3 1_555 1_555
N4_2 Mn1_3 1_555 1_555
C3_2 N4_2 1_555 1_555
H3_2 C3_2 1_555 1_555
C4_2 C3_2 1_555 1_555
H4_2 C4_2 1_555 1_555
Mn6_4 N6_2 1_555 1_555
N6_2 C4_2 1_555 1_555
N1_2 C1_2 1_555 1_555
C1_2 H1_2 1_555 1_555
Mn1_4 N1_2 1_555 1_555
C2_2 C1_2 1_555 1_555
H2_2 C2_2 1_555 1_555
Mn3_3 N3_2 1_555 1_555
N22_2 Mn3_3 1_555 1_555
N23_2 Mn3_3 1_555 1_555
N3_2 C2_2 1_555 1_555
N16_2 Mn1_5 1_555 1_555
C11_2 N16_2 1_555 1_555
H11_2 C11_2 1_555 1_555
C12_2 C11_2 1_555 1_555
H12_2 C12_2 1_555 1_555
Mn4_2 N18_2 1_555 1_555
N18_2 C12_2 1_555 1_555
N7_2 Mn1_6 1_555 1_555
C5_2 N7_2 1_555 1_555
H5_2 C5_2 1_555 1_555
C6_2 C5_2 1_555 1_555
H6_2 C6_2 1_555 1_555
Mn5_4 N9_2 1_555 1_555
N9_2 C6_2 1_555 1_555
N20_2 Mn1_7 1_555 1_555
N19_2 Mn1_8 1_555 1_555
Mn7_2 N17_2 1_555 1_555
N1_3 C1_3 1_555 1_555
C1_3 H1_3 1_555 1_555
N2_3 N1_3 1_555 1_555
Mn1_10 N1_3 1_555 1_555
Mn2_3 N2_3 1_555 1_555
N3_3 N2_3 1_555 1_555
C2_3 C1_3 1_555 1_555
H2_3 C2_3 1_555 1_555
N4_3 Mn1_10 1_555 1_555
C3_3 N4_3 1_555 1_555
N5_3 Mn2_3 1_555 1_555
H3_3 C3_3 1_555 1_555
N6_3 N5_3 1_555 1_555
C4_3 C3_3 1_555 1_555
H4_3 C4_3 1_555 1_555
N7_3 Mn1_10 1_555 1_555
C5_3 N7_3 1_555 1_555
N8_3 Mn2_3 1_555 1_555
H5_3 C5_3 1_555 1_555
N9_3 N8_3 1_555 1_555
C6_3 C5_3 1_555 1_555
H6_3 C6_3 1_555 1_555
Mn3_4 N3_3 1_555 1_555
N10_3 Mn3_4 1_555 1_555
C7_3 N10_3 1_555 1_555
N11_3 Mn2_3 1_555 1_555
H7_3 C7_3 1_555 1_555
N12_3 N11_3 1_555 1_555
C8_3 C7_3 1_555 1_555
H8_3 C8_3 1_555 1_555
N14_3 Mn2_3 1_555 1_555
N16_3 Mn1_10 1_555 1_555
C11_3 N16_3 1_555 1_555
N17_3 N16_3 1_555 1_555
H11_3 C11_3 1_555 1_555
N18_3 N17_3 1_555 1_555
C12_3 C11_3 1_555 1_555
H12_3 C12_3 1_555 1_555
N19_3 Mn1_10 1_555 1_555
N20_3 Mn1_10 1_555 1_555
N22_3 Mn3_4 1_555 1_555
N24_3 Mn2_3 1_555 1_555
Mn6_2 N18_3 1_555 1_555
Mn5_5 N9_3 1_555 1_555
Mn4 N6_3 1_555 1_555
Mn7_3 N17_3 1_555 1_555
N3_3 C2_3 1_555 1_555
N4_3 N5_3 1_555 1_555
N6_3 C4_3 1_555 1_555
N7_3 N8_3 1_555 1_555
N9_3 C6_3 1_555 1_555
N10_3 N11_3 1_555 1_555
N12_3 C8_3 1_555 1_555
N12_3 Mn4 1_555 1_555
N18_3 C12_3 1_555 1_555
N13_3 Mn3_5 1_555 1_555
C9_3 N13_3 1_555 1_555
H9_3 C9_3 1_555 1_555
C10_3 C9_3 1_555 1_555
H10_3 C10_3 1_555 1_555
N21_3 Mn3_5 1_555 1_555
N23_3 Mn3_5 1_555 1_555
N15_3 C10_3 1_555 1_555
N15_3 Mn5_6 1_555 1_555
N1_4 C1_4 1_555 1_555
C1_4 H1_4 1_555 1_555
N2_4 N1_4 1_555 1_555
Mn1_11 N1_4 1_555 1_555
Mn2_4 N2_4 1_555 1_555
N3_4 N2_4 1_555 1_555
C2_4 C1_4 1_555 1_555
H2_4 C2_4 1_555 1_555
N4_4 Mn1_11 1_555 1_555
C3_4 N4_4 1_555 1_555
N5_4 Mn2_4 1_555 1_555
H3_4 C3_4 1_555 1_555
N6_4 N5_4 1_555 1_555
C4_4 C3_4 1_555 1_555
H4_4 C4_4 1_555 1_555
N7_4 Mn1_11 1_555 1_555
C5_4 N7_4 1_555 1_555
N8_4 Mn2_4 1_555 1_555
H5_4 C5_4 1_555 1_555
N9_4 N8_4 1_555 1_555
C6_4 C5_4 1_555 1_555
H6_4 C6_4 1_555 1_555
Mn3_6 N3_4 1_555 1_555
N11_4 Mn2_4 1_555 1_555
N13_4 Mn3_6 1_555 1_555
C9_4 N13_4 1_555 1_555
N14_4 Mn2_4 1_555 1_555
H9_4 C9_4 1_555 1_555
N15_4 N14_4 1_555 1_555
C10_4 C9_4 1_555 1_555
H10_4 C10_4 1_555 1_555
N16_4 Mn1_11 1_555 1_555
C11_4 N16_4 1_555 1_555
N17_4 N16_4 1_555 1_555
H11_4 C11_4 1_555 1_555
N18_4 N17_4 1_555 1_555
C12_4 C11_4 1_555 1_555
H12_4 C12_4 1_555 1_555
N19_4 Mn1_11 1_555 1_555
N20_4 Mn1_11 1_555 1_555
N23_4 Mn3_6 1_555 1_555
N24_4 Mn2_4 1_555 1_555
Mn6_4 N18_4 1_555 1_555
Mn5_7 N9_4 1_555 1_555
Mn4_2 N6_4 1_555 1_555
Mn7_4 N17_4 1_555 1_555
N3_4 C2_4 1_555 1_555
N4_4 N5_4 1_555 1_555
N6_4 C4_4 1_555 1_555
N7_4 N8_4 1_555 1_555
N9_4 C6_4 1_555 1_555
N13_4 N14_4 1_555 1_555
N15_4 C10_4 1_555 1_555
N15_4 Mn5_7 1_555 1_555
N18_4 C12_4 1_555 1_555
N10_4 Mn3_7 1_555 1_555
C7_4 N10_4 1_555 1_555
H7_4 C7_4 1_555 1_555
C8_4 C7_4 1_555 1_555
H8_4 C8_4 1_555 1_555
N21_4 Mn3_7 1_555 1_555
N22_4 Mn3_7 1_555 1_555
N12_4 C8_4 1_555 1_555
N12_4 Mn4_3 1_555 1_555
N10_5 Mn4 1_555 1_555
C7_5 N10_5 1_555 1_555
H7_5 C7_5 1_555 1_555
N12_5 N24_3 1_555 1_555
C8_5 C7_5 1_555 1_555
H8_5 C8_5 1_555 1_555
C11_5 N20_3 1_555 1_555
N17_5 N20_3 1_555 1_555
H11_5 C11_5 1_555 1_555
N18_5 N17_5 1_555 1_555
C12_5 C11_5 1_555 1_555
H12_5 C12_5 1_555 1_555
N21_5 Mn4 1_555 1_555
N23_5 Mn4 1_555 1_555
Mn5_7 N18_5 1_555 1_555
Mn7_3 N17_5 1_555 1_555
N10_5 N24_3 1_555 1_555
N12_5 C8_5 1_555 1_555
N12_5 Mn5_5 1_555 1_555
N18_5 C12_5 1_555 1_555
N10_6 Mn6_3 1_555 1_555
C7_6 N10_6 1_555 1_555
H7_6 C7_6 1_555 1_555
N12_6 N24_2 1_555 1_555
C8_6 C7_6 1_555 1_555
H8_6 C8_6 1_555 1_555
N21_6 Mn6_3 1_555 1_555
N10_6 N24_2 1_555 1_555
N12_6 C8_6 1_555 1_555
N12_6 Mn5_3 1_555 1_555
N23_6 Mn6_4 1_555 1_555
C11_6 N20_2 1_555 1_555
H11_6 C11_6 1_555 1_555
C12_6 C11_6 1_555 1_555
H12_6 C12_6 1_555 1_555
Mn5 N18_6 1_555 1_555
N18_6 C12_6 1_555 1_555
Mn7_2 N17_6 1_555 1_555
N10_7 Mn4_2 1_555 1_555
C7_7 N10_7 1_555 1_555
H7_7 C7_7 1_555 1_555
N12_7 N24_4 1_555 1_555
C8_7 C7_7 1_555 1_555
H8_7 C8_7 1_555 1_555
C11_7 N20_4 1_555 1_555
N17_7 N20_4 1_555 1_555
H11_7 C11_7 1_555 1_555
N18_7 N17_7 1_555 1_555
C12_7 C11_7 1_555 1_555
H12_7 C12_7 1_555 1_555
Mn5_6 N18_7 1_555 1_555
Mn7_4 N17_7 1_555 1_555
N10_7 N24_4 1_555 1_555
N12_7 C8_7 1_555 1_555
N12_7 Mn5_7 1_555 1_555
N18_7 C12_7 1_555 1_555
N21_7 Mn4_3 1_555 1_555
N23_7 Mn4_3 1_555 1_555
C11_8 N20 1_555 1_555
N17_8 N20 1_555 1_555
H11_8 C11_8 1_555 1_555
N18_8 N17_8 1_555 1_555
C12_8 C11_8 1_555 1_555
H12_8 C12_8 1_555 1_555
N23_8 Mn6 1_555 1_555
Mn5_4 N18_8 1_555 1_555
Mn7 N17_8 1_555 1_555
N18_8 C12_8 1_555 1_555
N10_8 Mn6_2 1_555 1_555
C7_8 N10_8 1_555 1_555
H7_8 C7_8 1_555 1_555
C8_8 C7_8 1_555 1_555
H8_8 C8_8 1_555 1_555
N21_8 Mn6_2 1_555 1_555
N12_8 C8_8 1_555 1_555
N12_8 Mn5_2 1_555 1_555
C11_9 N19_4 1_555 1_555
N17_9 N19_4 1_555 1_555
H11_9 C11_9 1_555 1_555
N22 N17_9 1_555 1_555
C12_9 C11_9 1_555 1_555
H12_9 C12_9 1_555 1_555
N21_9 Mn5_7 1_555 1_555
N23_9 Mn5_7 1_555 1_555
Mn7_4 N17_9 1_555 1_555
N22 C12_9 1_555 1_555
N21_10 Mn5_3 1_555 1_555
N23_10 Mn5_4 1_555 1_555
C11_10 N19_2 1_555 1_555
H11_10 C11_10 1_555 1_555
C12_10 C11_10 1_555 1_555
H12_10 C12_10 1_555 1_555
N22_3 C12_10 1_555 1_555
Mn7_2 N17_10 1_555 1_555
C11_11 N19 1_555 1_555
N17_11 N19 1_555 1_555
H11_11 C11_11 1_555 1_555
N22_4 N17_11 1_555 1_555
C12_11 C11_11 1_555 1_555
H12_11 C12_11 1_555 1_555
Mn7 N17_11 1_555 1_555
N22_4 C12_11 1_555 1_555
N21_11 Mn5_2 1_555 1_555
N23_11 Mn5_2 1_555 1_555
C11_12 N19_3 1_555 1_555
N17_12 N19_3 1_555 1_555
H11_12 C11_12 1_555 1_555
N22_2 N17_12 1_555 1_555
C12_12 C11_12 1_555 1_555
H12_12 C12_12 1_555 1_555
N23_12 Mn5_5 1_555 1_555
Mn7_3 N17_12 1_555 1_555
N22_2 C12_12 1_555 1_555
N21_12 Mn5_6 1_555 1_555
C7_9 N23_7 1_555 1_555
N11_5 Mn7_2 1_555 1_555
H7_9 C7_9 1_555 1_555
N21_3 N11_5 1_555 1_555
C8_9 C7_9 1_555 1_555
H8_9 C8_9 1_555 1_555
C9_5 N21_7 1_555 1_555
N14_5 Mn7_2 1_555 1_555
H9_5 C9_5 1_555 1_555
N23_11 N14_5 1_555 1_555
C10_5 C9_5 1_555 1_555
H10_5 C10_5 1_555 1_555
N24_5 Mn7_2 1_555 1_555
N23_7 N11_5 1_555 1_555
N21_3 C8_9 1_555 1_555
N21_7 N14_5 1_555 1_555
N23_11 C10_5 1_555 1_555
C7_10 N23_5 1_555 1_555
N11_6 Mn7 1_555 1_555
H7_10 C7_10 1_555 1_555
N21_4 N11_6 1_555 1_555
C8_10 C7_10 1_555 1_555
H8_10 C8_10 1_555 1_555
C9_6 N21_5 1_555 1_555
N14_6 Mn7 1_555 1_555
H9_6 C9_6 1_555 1_555
N23_10 N14_6 1_555 1_555
C10_6 C9_6 1_555 1_555
H10_6 C10_6 1_555 1_555
N24_6 Mn7 1_555 1_555
N23_5 N11_6 1_555 1_555
N21_4 C8_10 1_555 1_555
N21_5 N14_6 1_555 1_555
N23_10 C10_6 1_555 1_555
C7_11 N23_8 1_555 1_555
H7_11 C7_11 1_555 1_555
C8_11 C7_11 1_555 1_555
H8_11 C8_11 1_555 1_555
N21_2 C8_11 1_555 1_555
N11_7 Mn7_3 1_555 1_555
C9_7 N21_8 1_555 1_555
N14_7 Mn7_3 1_555 1_555
H9_7 C9_7 1_555 1_555
N23_9 N14_7 1_555 1_555
C10_7 C9_7 1_555 1_555
H10_7 C10_7 1_555 1_555
N24_7 Mn7_3 1_555 1_555
N21_8 N14_7 1_555 1_555
N23_9 C10_7 1_555 1_555
C9_8 N21_6 1_555 1_555
H9_8 C9_8 1_555 1_555
C10_8 C9_8 1_555 1_555
H10_8 C10_8 1_555 1_555
N23_12 C10_8 1_555 1_555
C7_12 N23_6 1_555 1_555
N11_8 Mn7_4 1_555 1_555
H7_12 C7_12 1_555 1_555
N21 N11_8 1_555 1_555
C8_12 C7_12 1_555 1_555
H8_12 C8_12 1_555 1_555
N14_8 Mn7_4 1_555 1_555
N24_8 Mn7_4 1_555 1_555
N23_6 N11_8 1_555 1_555
N21 C8_12 1_555 1_555
C7_13 N23_2 1_555 1_555
H7_13 C7_13 1_555 1_555
N21_9 N24_7 1_555 1_555
C8_13 C7_13 1_555 1_555
H8_13 C8_13 1_555 1_555
N23_2 N24_7 1_555 1_555
N21_9 C8_13 1_555 1_555
C7_14 N23_4 1_555 1_555
H7_14 C7_14 1_555 1_555
C8_14 C7_14 1_555 1_555
H8_14 C8_14 1_555 1_555
N21_10 C8_14 1_555 1_555
C7_15 N23 1_555 1_555
H7_15 C7_15 1_555 1_555
N21_12 N24_8 1_555 1_555
C8_15 C7_15 1_555 1_555
H8_15 C8_15 1_555 1_555
N23 N24_8 1_555 1_555
N21_12 C8_15 1_555 1_555
C7_16 N23_3 1_555 1_555
H7_16 C7_16 1_555 1_555
N21_11 N24_5 1_555 1_555
C8_16 C7_16 1_555 1_555
H8_16 C8_16 1_555 1_555
N23_3 N24_5 1_555 1_555
N21_11 C8_16 1_555 1_555

#END
