
###############################################################################
#
# This file contains modified crystal structure data generated from the
# MOF subset of the Cambridge Structural Database (CSD) v543 
# hosted by the Cambridge Crystallographic Data Centre (CCDC).
#
# This work is licensed under the Creative Commons
# Attribution-NonCommercial-ShareAlike 4.0 International License.
# To view a copy of this license, visit
# http://creativecommons.org/licenses/by-nc-sa/4.0/
# or send a letter to
# Creative Commons, PO Box 1866, Mountain View, CA 94042, USA.
#
# CIF created using the CSD Python API on 29 September 2022
# The structure has been converted into the P1 space group
# The structure has a 3D framework
# The original CSD entry HEJQIZ is in the cubic crystal system
# The framework has been calculated to contain at least 10.0% void space
# The void calculation uses a probe of radius 1.32A, grid spacing 0.4
#
###############################################################################

data_HEJQIZ
_chemical_formula_moiety         '(C96 H96 N144 Zn22)n'
_symmetry_cell_setting           triclinic
_symmetry_space_group_name_H-M   'P 1'
_symmetry_Int_Tables_number      1
_space_group_name_Hall           'P 1'
loop_
_symmetry_equiv_pos_site_id
_symmetry_equiv_pos_as_xyz
1 x,y,z
_cell_length_a                   17.6639(19)
_cell_length_b                   17.6639(19)
_cell_length_c                   17.6639(19)
_cell_angle_alpha                90
_cell_angle_beta                 90
_cell_angle_gamma                90
_cell_volume                     5511.37
loop_
_atom_site_label
_atom_site_type_symbol
_atom_site_fract_x
_atom_site_fract_y
_atom_site_fract_z
Zn1 Zn 0.0000 0.5000 0.0000
N21 N 0.08128(14) 0.4587(2) 0.08128(14)
Zn1_2 Zn 0.0000 0.5000 1.0000
N10 N 0.0413(2) 0.41872(14) 0.91872(14)
C7 C 0.1140(2) 0.40207(17) 0.90207(17)
H7 H 0.1575 0.4244 0.9244
N12 N 0.0413(2) 0.33128(14) 0.83128(14)
C8 C 0.1140(2) 0.34793(17) 0.84793(17)
H8 H 0.1575 0.3256 0.8256
Zn5 Zn 0.0000 0.2500 0.7500
N24 N 0.08128(14) 0.58128(14) 0.9587(2)
Zn1_3 Zn 1.0000 0.5000 0.0000
N1 N 0.91872(14) 0.41872(14) 0.0413(2)
C1 C 0.90207(17) 0.40207(17) 0.1140(2)
H1 H 0.9244 0.4244 0.1575
N3 N 0.83128(14) 0.33128(14) 0.0413(2)
C2 C 0.84793(17) 0.34793(17) 0.1140(2)
H2 H 0.8256 0.3256 0.1575
Zn3 Zn 0.7500 0.2500 0.0000
N19 N 0.66872(14) 0.2913(2) 0.08128(14)
N20 N 0.9587(2) 0.58128(14) 0.08128(14)
N22 N 0.7913(2) 0.16872(14) 0.08128(14)
Zn1_4 Zn 1.0000 0.5000 1.0000
Zn2 Zn 0.8750 0.3750 0.8750
N2 N 0.8750 0.3750 0.9976(3)
Zn3_2 Zn 0.7500 0.2500 1.0000
N4 N 0.7087(2) 0.33128(14) 0.91872(14)
N5 N 0.7524(3) 0.3750 0.8750
C3 C 0.6360(2) 0.34793(17) 0.90207(17)
H3 H 0.5925 0.3256 0.9244
N6 N 0.7087(2) 0.41872(14) 0.83128(14)
C4 C 0.6360(2) 0.40207(17) 0.84793(17)
H4 H 0.5925 0.4244 0.8256
N7 N 0.83128(14) 0.5413(2) 0.83128(14)
N8 N 0.8750 0.4976(3) 0.8750
C5 C 0.84793(17) 0.6140(2) 0.84793(17)
H5 H 0.8256 0.6575 0.8256
N9 N 0.91872(14) 0.5413(2) 0.91872(14)
C6 C 0.90207(17) 0.6140(2) 0.90207(17)
H6 H 0.9244 0.6575 0.9244
N11 N 0.9976(3) 0.3750 0.8750
N13 N 0.91872(14) 0.2087(2) 0.83128(14)
N14 N 0.8750 0.2524(3) 0.8750
C9 C 0.90207(17) 0.1360(2) 0.84793(17)
H9 H 0.9244 0.0925 0.8256
N15 N 0.83128(14) 0.2087(2) 0.91872(14)
C10 C 0.84793(17) 0.1360(2) 0.90207(17)
H10 H 0.8256 0.0925 0.9244
N16 N 0.91872(14) 0.33128(14) 0.7087(2)
N17 N 0.8750 0.3750 0.7524(3)
C11 C 0.90207(17) 0.34793(17) 0.6360(2)
H11 H 0.9244 0.3256 0.5925
N18 N 0.83128(14) 0.41872(14) 0.7087(2)
C12 C 0.84793(17) 0.40207(17) 0.6360(2)
H12 H 0.8256 0.4244 0.5925
Zn4 Zn 0.7500 0.5000 0.7500
Zn5_2 Zn 1.0000 0.2500 0.7500
N23 N 0.66872(14) 0.16872(14) 0.9587(2)
Zn3_3 Zn -0.0000 0.0000 0.5000
N23_2 N 0.08128(14) 0.08128(14) 0.4587(2)
Zn3_4 Zn -0.0000 1.0000 0.5000
N4_2 N 0.0413(2) 0.91872(14) 0.41872(14)
C3_2 C 0.1140(2) 0.90207(17) 0.40207(17)
H3_2 H 0.1575 0.9244 0.4244
N6_2 N 0.0413(2) 0.83128(14) 0.33128(14)
C4_2 C 0.1140(2) 0.84793(17) 0.34793(17)
H4_2 H 0.1575 0.8256 0.3256
Zn4_2 Zn -0.0000 0.7500 0.2500
N19_2 N 0.08128(14) 0.9587(2) 0.58128(14)
Zn3_5 Zn 1.0000 0.0000 0.5000
N13_2 N 0.83128(14) 0.0413(2) 0.33128(14)
C9_2 C 0.84793(17) 0.1140(2) 0.34793(17)
H9_2 H 0.8256 0.1575 0.3256
N15_2 N 0.91872(14) 0.0413(2) 0.41872(14)
C10_2 C 0.90207(17) 0.1140(2) 0.40207(17)
H10_2 H 0.9244 0.1575 0.4244
Zn5_3 Zn 0.7500 0.0000 0.2500
N22_2 N 0.9587(2) 0.08128(14) 0.58128(14)
Zn1_5 Zn 0.7500 0.7500 0.5000
Zn2_2 Zn 0.8750 0.8750 0.3750
N1_2 N 0.83128(14) 0.83128(14) 0.5413(2)
N2_2 N 0.8750 0.8750 0.4976(3)
C1_2 C 0.84793(17) 0.84793(17) 0.6140(2)
H1_2 H 0.8256 0.8256 0.6575
N3_2 N 0.91872(14) 0.91872(14) 0.5413(2)
C2_2 C 0.90207(17) 0.90207(17) 0.6140(2)
H2_2 H 0.9244 0.9244 0.6575
Zn3_6 Zn 1.0000 1.0000 0.5000
N5_2 N 0.9976(3) 0.8750 0.3750
N7_2 N 0.91872(14) 0.7087(2) 0.33128(14)
N8_2 N 0.8750 0.7524(3) 0.3750
C5_2 C 0.90207(17) 0.6360(2) 0.34793(17)
H5_2 H 0.9244 0.5925 0.3256
N9_2 N 0.83128(14) 0.7087(2) 0.41872(14)
C6_2 C 0.84793(17) 0.6360(2) 0.40207(17)
H6_2 H 0.8256 0.5925 0.4244
N10_2 N 0.7087(2) 0.83128(14) 0.41872(14)
N11_2 N 0.7524(3) 0.8750 0.3750
C7_2 C 0.6360(2) 0.84793(17) 0.40207(17)
H7_2 H 0.5925 0.8256 0.4244
N12_2 N 0.7087(2) 0.91872(14) 0.33128(14)
C8_2 C 0.6360(2) 0.90207(17) 0.34793(17)
H8_2 H 0.5925 0.9244 0.3256
N14_2 N 0.8750 0.9976(3) 0.3750
N16_2 N 0.83128(14) 0.91872(14) 0.2087(2)
N17_2 N 0.8750 0.8750 0.2524(3)
C11_2 C 0.84793(17) 0.90207(17) 0.1360(2)
H11_2 H 0.8256 0.9244 0.0925
N18_2 N 0.91872(14) 0.83128(14) 0.2087(2)
C12_2 C 0.90207(17) 0.84793(17) 0.1360(2)
H12_2 H 0.9244 0.8256 0.0925
Zn4_3 Zn 1.0000 0.7500 0.2500
Zn5_4 Zn 0.7500 1.0000 0.2500
N20_2 N 0.7913(2) 0.66872(14) 0.58128(14)
N21_2 N 0.66872(14) 0.7913(2) 0.58128(14)
N24_2 N 0.66872(14) 0.66872(14) 0.4587(2)
Zn4_4 Zn 0.5000 0.0000 0.0000
Zn1_6 Zn 0.2500 0.0000 0.7500
N7_3 N 0.41872(14) 0.0413(2) 0.91872(14)
C5_3 C 0.40207(17) 0.1140(2) 0.90207(17)
H5_3 H 0.4244 0.1575 0.9244
N9_3 N 0.33128(14) 0.0413(2) 0.83128(14)
C6_3 C 0.34793(17) 0.1140(2) 0.84793(17)
H6_3 H 0.3256 0.1575 0.8256
Zn4_5 Zn 0.5000 0.0000 1.0000
N20_3 N 0.2913(2) 0.08128(14) 0.66872(14)
N24_3 N 0.16872(14) 0.08128(14) 0.7913(2)
N16_3 N 0.33128(14) 0.83128(14) 0.0413(2)
C11_3 C 0.34793(17) 0.84793(17) 0.1140(2)
H11_3 H 0.3256 0.8256 0.1575
N18_3 N 0.41872(14) 0.91872(14) 0.0413(2)
C12_3 C 0.40207(17) 0.90207(17) 0.1140(2)
H12_3 H 0.4244 0.9244 0.1575
Zn4_6 Zn 0.5000 1.0000 0.0000
Zn5_5 Zn 0.2500 0.7500 0.0000
Zn1_7 Zn 0.2500 1.0000 0.7500
Zn2_3 Zn 0.3750 0.8750 0.8750
N1_3 N 0.33128(14) 0.91872(14) 0.7087(2)
N2_3 N 0.3750 0.8750 0.7524(3)
C1_3 C 0.34793(17) 0.90207(17) 0.6360(2)
H1_3 H 0.3256 0.9244 0.5925
N3_3 N 0.41872(14) 0.83128(14) 0.7087(2)
C2_3 C 0.40207(17) 0.84793(17) 0.6360(2)
H2_3 H 0.4244 0.8256 0.5925
Zn3_7 Zn 0.5000 0.7500 0.7500
N4_3 N 0.5413(2) 0.83128(14) 0.83128(14)
N5_3 N 0.4976(3) 0.8750 0.8750
C3_3 C 0.6140(2) 0.84793(17) 0.84793(17)
H3_3 H 0.6575 0.8256 0.8256
N6_3 N 0.5413(2) 0.91872(14) 0.91872(14)
C4_3 C 0.6140(2) 0.90207(17) 0.90207(17)
H4_3 H 0.6575 0.9244 0.9244
N8_3 N 0.3750 0.9976(3) 0.8750
N10_3 N 0.2087(2) 0.91872(14) 0.83128(14)
N11_3 N 0.2524(3) 0.8750 0.8750
C7_3 C 0.1360(2) 0.90207(17) 0.84793(17)
H7_3 H 0.0925 0.9244 0.8256
N12_3 N 0.2087(2) 0.83128(14) 0.91872(14)
C8_3 C 0.1360(2) 0.84793(17) 0.90207(17)
H8_3 H 0.0925 0.8256 0.9244
N13_3 N 0.33128(14) 0.7087(2) 0.91872(14)
N14_3 N 0.3750 0.7524(3) 0.8750
C9_3 C 0.34793(17) 0.6360(2) 0.90207(17)
H9_3 H 0.3256 0.5925 0.9244
N15_3 N 0.41872(14) 0.7087(2) 0.83128(14)
C10_3 C 0.40207(17) 0.6360(2) 0.84793(17)
H10_3 H 0.4244 0.5925 0.8256
N17_3 N 0.3750 0.8750 0.9976(3)
Zn4_7 Zn 0.5000 1.0000 1.0000
Zn5_6 Zn 0.2500 0.7500 1.0000
N19_3 N 0.58128(14) 0.7913(2) 0.66872(14)
N21_3 N 0.16872(14) 0.9587(2) 0.66872(14)
N22_3 N 0.4587(2) 0.66872(14) 0.66872(14)
N23_3 N 0.58128(14) 0.66872(14) 0.7913(2)
Zn1_8 Zn 0.5000 0.2500 0.2500
Zn2_4 Zn 0.3750 0.3750 0.3750
N1_4 N 0.41872(14) 0.33128(14) 0.2087(2)
N2_4 N 0.3750 0.3750 0.2524(3)
C1_4 C 0.40207(17) 0.34793(17) 0.1360(2)
H1_4 H 0.4244 0.3256 0.0925
N3_4 N 0.33128(14) 0.41872(14) 0.2087(2)
C2_4 C 0.34793(17) 0.40207(17) 0.1360(2)
H2_4 H 0.3256 0.4244 0.0925
Zn3_8 Zn 0.2500 0.5000 0.2500
N4_4 N 0.2087(2) 0.41872(14) 0.33128(14)
N5_4 N 0.2524(3) 0.3750 0.3750
C3_4 C 0.1360(2) 0.40207(17) 0.34793(17)
H3_4 H 0.0925 0.4244 0.3256
N6_4 N 0.2087(2) 0.33128(14) 0.41872(14)
C4_4 C 0.1360(2) 0.34793(17) 0.40207(17)
H4_4 H 0.0925 0.3256 0.4244
N7_4 N 0.33128(14) 0.2087(2) 0.41872(14)
N8_4 N 0.3750 0.2524(3) 0.3750
C5_4 C 0.34793(17) 0.1360(2) 0.40207(17)
H5_4 H 0.3256 0.0925 0.4244
N9_4 N 0.41872(14) 0.2087(2) 0.33128(14)
C6_4 C 0.40207(17) 0.1360(2) 0.34793(17)
H6_4 H 0.4244 0.0925 0.3256
N10_4 N 0.5413(2) 0.33128(14) 0.33128(14)
N11_4 N 0.4976(3) 0.3750 0.3750
C7_4 C 0.6140(2) 0.34793(17) 0.34793(17)
H7_4 H 0.6575 0.3256 0.3256
N12_4 N 0.5413(2) 0.41872(14) 0.41872(14)
C8_4 C 0.6140(2) 0.40207(17) 0.40207(17)
H8_4 H 0.6575 0.4244 0.4244
N13_4 N 0.41872(14) 0.5413(2) 0.41872(14)
N14_4 N 0.3750 0.4976(3) 0.3750
C9_4 C 0.40207(17) 0.6140(2) 0.40207(17)
H9_4 H 0.4244 0.6575 0.4244
N15_4 N 0.33128(14) 0.5413(2) 0.33128(14)
C10_4 C 0.34793(17) 0.6140(2) 0.34793(17)
H10_4 H 0.3256 0.6575 0.3256
N16_4 N 0.41872(14) 0.41872(14) 0.5413(2)
N17_4 N 0.3750 0.3750 0.4976(3)
C11_4 C 0.40207(17) 0.40207(17) 0.6140(2)
H11_4 H 0.4244 0.4244 0.6575
N18_4 N 0.33128(14) 0.33128(14) 0.5413(2)
C12_4 C 0.34793(17) 0.34793(17) 0.6140(2)
H12_4 H 0.3256 0.3256 0.6575
Zn4_8 Zn 0.2500 0.2500 0.5000
Zn5_7 Zn 0.5000 0.5000 0.5000
N19_4 N 0.16872(14) 0.4587(2) 0.16872(14)
N20_4 N 0.4587(2) 0.16872(14) 0.16872(14)
N21_4 N 0.58128(14) 0.2913(2) 0.16872(14)
N22_4 N 0.2913(2) 0.58128(14) 0.16872(14)
N23_4 N 0.16872(14) 0.58128(14) 0.2913(2)
N24_4 N 0.58128(14) 0.16872(14) 0.2913(2)
N19_5 N 0.08128(14) 0.66872(14) 0.2913(2)
N22_5 N 0.08128(14) 0.7913(2) 0.16872(14)
N23_5 N 0.9587(2) 0.66872(14) 0.16872(14)
N23_6 N 0.4587(2) 0.08128(14) 0.08128(14)
N19_6 N 0.58128(14) 0.08128(14) 0.9587(2)
N22_6 N 0.58128(14) 0.9587(2) 0.08128(14)
N19_7 N 0.66872(14) 0.58128(14) 0.7913(2)
N22_7 N 0.66872(14) 0.4587(2) 0.66872(14)
N23_7 N 0.7913(2) 0.58128(14) 0.66872(14)
N19_8 N 0.16872(14) 0.16872(14) 0.4587(2)
N22_8 N 0.16872(14) 0.2913(2) 0.58128(14)
N23_8 N 0.2913(2) 0.16872(14) 0.58128(14)
Zn2_5 Zn 0.1250 0.1250 0.6250
N2_5 N 0.1250 0.1250 0.5024(3)
C1_5 C 0.15207(17) 0.15207(17) 0.3860(2)
H1_5 H 0.1744 0.1744 0.3425
C2_5 C 0.09793(17) 0.09793(17) 0.3860(2)
H2_5 H 0.0756 0.0756 0.3425
N5_5 N 0.1250 0.0024(3) 0.6250
N8_5 N 0.2476(3) 0.1250 0.6250
C5_5 C 0.3640(2) 0.09793(17) 0.65207(17)
H5_5 H 0.4075 0.0756 0.6744
C6_5 C 0.3640(2) 0.15207(17) 0.59793(17)
H6_5 H 0.4075 0.1744 0.5756
N11_5 N 0.1250 0.2476(3) 0.6250
C7_5 C 0.15207(17) 0.3640(2) 0.59793(17)
H7_5 H 0.1744 0.4075 0.5756
N12_5 N 0.08128(14) 0.2913(2) 0.66872(14)
C8_5 C 0.09793(17) 0.3640(2) 0.65207(17)
H8_5 H 0.0756 0.4075 0.6744
N14_5 N 0.0024(3) 0.1250 0.6250
N16_5 N 0.08128(14) 0.16872(14) 0.7913(2)
N17_5 N 0.1250 0.1250 0.7476(3)
C11_5 C 0.09793(17) 0.15207(17) 0.8640(2)
H11_5 H 0.0756 0.1744 0.9075
C12_5 C 0.15207(17) 0.09793(17) 0.8640(2)
H12_5 H 0.1744 0.0756 0.9075
C3_5 C 0.09793(17) 0.8860(2) 0.59793(17)
H3_5 H 0.0756 0.8425 0.5756
C4_5 C 0.15207(17) 0.8860(2) 0.65207(17)
H4_5 H 0.1744 0.8425 0.6744
N13_5 N 0.9587(2) 0.16872(14) 0.66872(14)
C9_5 C 0.8860(2) 0.15207(17) 0.65207(17)
H9_5 H 0.8425 0.1744 0.6744
C10_5 C 0.8860(2) 0.09793(17) 0.59793(17)
H10_5 H 0.8425 0.0756 0.5756
Zn2_6 Zn 0.6250 0.1250 0.1250
N2_6 N 0.6250 0.1250 0.0024(3)
N5_6 N 0.6250 0.2476(3) 0.1250
C3_6 C 0.65207(17) 0.3640(2) 0.09793(17)
H3_6 H 0.6744 0.4075 0.0756
C4_6 C 0.59793(17) 0.3640(2) 0.15207(17)
H4_6 H 0.5756 0.4075 0.1744
N8_6 N 0.5024(3) 0.1250 0.1250
C5_6 C 0.3860(2) 0.15207(17) 0.15207(17)
H5_6 H 0.3425 0.1744 0.1744
C6_6 C 0.3860(2) 0.09793(17) 0.09793(17)
H6_6 H 0.3425 0.0756 0.0756
N11_6 N 0.6250 0.0024(3) 0.1250
N13_6 N 0.7913(2) 0.08128(14) 0.16872(14)
N14_6 N 0.7476(3) 0.1250 0.1250
C9_6 C 0.8640(2) 0.09793(17) 0.15207(17)
H9_6 H 0.9075 0.0756 0.1744
C10_6 C 0.8640(2) 0.15207(17) 0.09793(17)
H10_6 H 0.9075 0.1744 0.0756
N16_6 N 0.66872(14) 0.08128(14) 0.2913(2)
N17_6 N 0.6250 0.1250 0.2476(3)
C11_6 C 0.65207(17) 0.09793(17) 0.3640(2)
H11_6 H 0.6744 0.0756 0.4075
C12_6 C 0.59793(17) 0.15207(17) 0.3640(2)
H12_6 H 0.5756 0.1744 0.4075
C1_6 C 0.59793(17) 0.09793(17) 0.8860(2)
H1_6 H 0.5756 0.0756 0.8425
C2_6 C 0.65207(17) 0.15207(17) 0.8860(2)
H2_6 H 0.6744 0.1744 0.8425
C7_6 C 0.59793(17) 0.8860(2) 0.09793(17)
H7_6 H 0.5756 0.8425 0.0756
N12_6 N 0.66872(14) 0.9587(2) 0.16872(14)
C8_6 C 0.65207(17) 0.8860(2) 0.15207(17)
H8_6 H 0.6744 0.8425 0.1744
Zn2_7 Zn 0.6250 0.6250 0.6250
N2_7 N 0.6250 0.6250 0.7476(3)
C1_7 C 0.65207(17) 0.59793(17) 0.8640(2)
H1_7 H 0.6744 0.5756 0.9075
C2_7 C 0.59793(17) 0.65207(17) 0.8640(2)
H2_7 H 0.5756 0.6744 0.9075
N5_7 N 0.6250 0.7476(3) 0.6250
C3_7 C 0.59793(17) 0.8640(2) 0.65207(17)
H3_7 H 0.5756 0.9075 0.6744
C4_7 C 0.65207(17) 0.8640(2) 0.59793(17)
H4_7 H 0.6744 0.9075 0.5756
N8_7 N 0.7476(3) 0.6250 0.6250
C5_7 C 0.8640(2) 0.65207(17) 0.59793(17)
H5_7 H 0.9075 0.6744 0.5756
C6_7 C 0.8640(2) 0.59793(17) 0.65207(17)
H6_7 H 0.9075 0.5756 0.6744
N11_7 N 0.6250 0.5024(3) 0.6250
C7_7 C 0.65207(17) 0.3860(2) 0.65207(17)
H7_7 H 0.6744 0.3425 0.6744
N12_7 N 0.58128(14) 0.4587(2) 0.58128(14)
C8_7 C 0.59793(17) 0.3860(2) 0.59793(17)
H8_7 H 0.5756 0.3425 0.5756
N13_7 N 0.4587(2) 0.58128(14) 0.58128(14)
N14_7 N 0.5024(3) 0.6250 0.6250
C9_7 C 0.3860(2) 0.59793(17) 0.59793(17)
H9_7 H 0.3425 0.5756 0.5756
C10_7 C 0.3860(2) 0.65207(17) 0.65207(17)
H10_7 H 0.3425 0.6744 0.6744
N16_7 N 0.58128(14) 0.58128(14) 0.4587(2)
N17_7 N 0.6250 0.6250 0.5024(3)
C11_7 C 0.59793(17) 0.59793(17) 0.3860(2)
H11_7 H 0.5756 0.5756 0.3425
C12_7 C 0.65207(17) 0.65207(17) 0.3860(2)
H12_7 H 0.6744 0.6744 0.3425
Zn2_8 Zn 0.1250 0.6250 0.1250
N2_8 N 0.1250 0.6250 0.2476(3)
C1_8 C 0.09793(17) 0.65207(17) 0.3640(2)
H1_8 H 0.0756 0.6744 0.4075
C2_8 C 0.15207(17) 0.59793(17) 0.3640(2)
H2_8 H 0.1744 0.5756 0.4075
N5_8 N 0.1250 0.5024(3) 0.1250
C3_8 C 0.15207(17) 0.3860(2) 0.15207(17)
H3_8 H 0.1744 0.3425 0.1744
C4_8 C 0.09793(17) 0.3860(2) 0.09793(17)
H4_8 H 0.0756 0.3425 0.0756
N8_8 N 0.0024(3) 0.6250 0.1250
N11_8 N 0.1250 0.7476(3) 0.1250
C7_8 C 0.09793(17) 0.8640(2) 0.15207(17)
H7_8 H 0.0756 0.9075 0.1744
N12_8 N 0.16872(14) 0.7913(2) 0.08128(14)
C8_8 C 0.15207(17) 0.8640(2) 0.09793(17)
H8_8 H 0.1744 0.9075 0.0756
N13_8 N 0.2913(2) 0.66872(14) 0.08128(14)
N14_8 N 0.2476(3) 0.6250 0.1250
C9_8 C 0.3640(2) 0.65207(17) 0.09793(17)
H9_8 H 0.4075 0.6744 0.0756
C10_8 C 0.3640(2) 0.59793(17) 0.15207(17)
H10_8 H 0.4075 0.5756 0.1744
N17_8 N 0.1250 0.6250 0.0024(3)
N16_8 N 0.16872(14) 0.66872(14) 0.9587(2)
C11_8 C 0.15207(17) 0.65207(17) 0.8860(2)
H11_8 H 0.1744 0.6744 0.8425
C12_8 C 0.09793(17) 0.59793(17) 0.8860(2)
H12_8 H 0.0756 0.5756 0.8425
C5_8 C 0.8860(2) 0.59793(17) 0.09793(17)
H5_8 H 0.8425 0.5756 0.0756
C6_8 C 0.8860(2) 0.65207(17) 0.15207(17)
H6_8 H 0.8425 0.6744 0.1744
loop_
_geom_bond_atom_site_label_1
_geom_bond_atom_site_label_2
_geom_bond_site_symmetry_1
_geom_bond_site_symmetry_2
N21 Zn1 1_555 1_555
N10 Zn1_2 1_555 1_555
C7 N10 1_555 1_555
H7 C7 1_555 1_555
C8 C7 1_555 1_555
H8 C8 1_555 1_555
Zn5 N12 1_555 1_555
N24 Zn1_2 1_555 1_555
N12 C8 1_555 1_555
Zn1_3 N1 1_555 1_555
C1 N1 1_555 1_555
H1 C1 1_555 1_555
N3 C2 1_555 1_555
C2 C1 1_555 1_555
H2 C2 1_555 1_555
Zn3 N3 1_555 1_555
N19 Zn3 1_555 1_555
N20 Zn1_3 1_555 1_555
N22 Zn3 1_555 1_555
Zn2 N2 1_555 1_555
N4 Zn3_2 1_555 1_555
N5 Zn2 1_555 1_555
C3 N4 1_555 1_555
H3 C3 1_555 1_555
N6 N5 1_555 1_555
C4 C3 1_555 1_555
H4 C4 1_555 1_555
N7 N8 1_555 1_555
N8 Zn2 1_555 1_555
C5 N7 1_555 1_555
H5 C5 1_555 1_555
N9 Zn1_4 1_555 1_555
C6 C5 1_555 1_555
H6 C6 1_555 1_555
N11 Zn2 1_555 1_555
N13 N14 1_555 1_555
N14 Zn2 1_555 1_555
C9 N13 1_555 1_555
H9 C9 1_555 1_555
N15 Zn3_2 1_555 1_555
C10 C9 1_555 1_555
H10 C10 1_555 1_555
N16 N17 1_555 1_555
N17 Zn2 1_555 1_555
C11 N16 1_555 1_555
H11 C11 1_555 1_555
N18 N17 1_555 1_555
C12 C11 1_555 1_555
H12 C12 1_555 1_555
Zn4 N6 1_555 1_555
N23 Zn3_2 1_555 1_555
N4 N5 1_555 1_555
N6 C4 1_555 1_555
N7 Zn4 1_555 1_555
N8 N9 1_555 1_555
N9 C6 1_555 1_555
N13 Zn5_2 1_555 1_555
N14 N15 1_555 1_555
N15 C10 1_555 1_555
N16 Zn5_2 1_555 1_555
N18 C12 1_555 1_555
N18 Zn4 1_555 1_555
N23_2 Zn3_3 1_555 1_555
N4_2 Zn3_4 1_555 1_555
C3_2 N4_2 1_555 1_555
H3_2 C3_2 1_555 1_555
C4_2 C3_2 1_555 1_555
H4_2 C4_2 1_555 1_555
Zn4_2 N6_2 1_555 1_555
N19_2 Zn3_4 1_555 1_555
N6_2 C4_2 1_555 1_555
C9_2 N13_2 1_555 1_555
H9_2 C9_2 1_555 1_555
N15_2 Zn3_5 1_555 1_555
C10_2 C9_2 1_555 1_555
H10_2 C10_2 1_555 1_555
N22_2 Zn3_5 1_555 1_555
N13_2 Zn5_3 1_555 1_555
N15_2 C10_2 1_555 1_555
Zn1_5 N1_2 1_555 1_555
Zn2_2 N2_2 1_555 1_555
N1_2 N2_2 1_555 1_555
N2_2 N3_2 1_555 1_555
C1_2 N1_2 1_555 1_555
H1_2 C1_2 1_555 1_555
N3_2 C2_2 1_555 1_555
C2_2 C1_2 1_555 1_555
H2_2 C2_2 1_555 1_555
Zn3_6 N3_2 1_555 1_555
N5_2 Zn2_2 1_555 1_555
N7_2 N8_2 1_555 1_555
N8_2 Zn2_2 1_555 1_555
C5_2 N7_2 1_555 1_555
H5_2 C5_2 1_555 1_555
N9_2 Zn1_5 1_555 1_555
C6_2 C5_2 1_555 1_555
H6_2 C6_2 1_555 1_555
N10_2 Zn1_5 1_555 1_555
N11_2 Zn2_2 1_555 1_555
C7_2 N10_2 1_555 1_555
H7_2 C7_2 1_555 1_555
N12_2 N11_2 1_555 1_555
C8_2 C7_2 1_555 1_555
H8_2 C8_2 1_555 1_555
N14_2 Zn2_2 1_555 1_555
N16_2 N17_2 1_555 1_555
N17_2 Zn2_2 1_555 1_555
C11_2 N16_2 1_555 1_555
H11_2 C11_2 1_555 1_555
N18_2 N17_2 1_555 1_555
C12_2 C11_2 1_555 1_555
H12_2 C12_2 1_555 1_555
Zn5_4 N12_2 1_555 1_555
N20_2 Zn1_5 1_555 1_555
N21_2 Zn1_5 1_555 1_555
N24_2 Zn1_5 1_555 1_555
N7_2 Zn4_3 1_555 1_555
N8_2 N9_2 1_555 1_555
N9_2 C6_2 1_555 1_555
N10_2 N11_2 1_555 1_555
N12_2 C8_2 1_555 1_555
N16_2 Zn5_4 1_555 1_555
N18_2 C12_2 1_555 1_555
N18_2 Zn4_3 1_555 1_555
C5_3 N7_3 1_555 1_555
H5_3 C5_3 1_555 1_555
N9_3 Zn1_6 1_555 1_555
C6_3 C5_3 1_555 1_555
H6_3 C6_3 1_555 1_555
N20_3 Zn1_6 1_555 1_555
N24_3 Zn1_6 1_555 1_555
N7_3 Zn4_5 1_555 1_555
N9_3 C6_3 1_555 1_555
C11_3 N16_3 1_555 1_555
H11_3 C11_3 1_555 1_555
C12_3 C11_3 1_555 1_555
H12_3 C12_3 1_555 1_555
N16_3 Zn5_5 1_555 1_555
N18_3 C12_3 1_555 1_555
N18_3 Zn4_6 1_555 1_555
Zn1_7 N1_3 1_555 1_555
Zn2_3 N2_3 1_555 1_555
N1_3 N2_3 1_555 1_555
N2_3 N3_3 1_555 1_555
C1_3 N1_3 1_555 1_555
H1_3 C1_3 1_555 1_555
N3_3 C2_3 1_555 1_555
C2_3 C1_3 1_555 1_555
H2_3 C2_3 1_555 1_555
Zn3_7 N3_3 1_555 1_555
N4_3 Zn3_7 1_555 1_555
N5_3 Zn2_3 1_555 1_555
C3_3 N4_3 1_555 1_555
H3_3 C3_3 1_555 1_555
N6_3 N5_3 1_555 1_555
C4_3 C3_3 1_555 1_555
H4_3 C4_3 1_555 1_555
N8_3 Zn2_3 1_555 1_555
N10_3 Zn1_7 1_555 1_555
N11_3 Zn2_3 1_555 1_555
C7_3 N10_3 1_555 1_555
H7_3 C7_3 1_555 1_555
N12_3 N11_3 1_555 1_555
C8_3 C7_3 1_555 1_555
H8_3 C8_3 1_555 1_555
N13_3 N14_3 1_555 1_555
N14_3 Zn2_3 1_555 1_555
C9_3 N13_3 1_555 1_555
H9_3 C9_3 1_555 1_555
N15_3 Zn3_7 1_555 1_555
C10_3 C9_3 1_555 1_555
H10_3 C10_3 1_555 1_555
N17_3 Zn2_3 1_555 1_555
Zn4_7 N6_3 1_555 1_555
Zn5_6 N12_3 1_555 1_555
N19_3 Zn3_7 1_555 1_555
N21_3 Zn1_7 1_555 1_555
N22_3 Zn3_7 1_555 1_555
N23_3 Zn3_7 1_555 1_555
N4_3 N5_3 1_555 1_555
N6_3 C4_3 1_555 1_555
N10_3 N11_3 1_555 1_555
N12_3 C8_3 1_555 1_555
N13_3 Zn5_6 1_555 1_555
N14_3 N15_3 1_555 1_555
N15_3 C10_3 1_555 1_555
Zn1_8 N1_4 1_555 1_555
Zn2_4 N2_4 1_555 1_555
N1_4 N2_4 1_555 1_555
N2_4 N3_4 1_555 1_555
C1_4 N1_4 1_555 1_555
H1_4 C1_4 1_555 1_555
N3_4 C2_4 1_555 1_555
C2_4 C1_4 1_555 1_555
H2_4 C2_4 1_555 1_555
Zn3_8 N3_4 1_555 1_555
N4_4 Zn3_8 1_555 1_555
N5_4 Zn2_4 1_555 1_555
C3_4 N4_4 1_555 1_555
H3_4 C3_4 1_555 1_555
N6_4 N5_4 1_555 1_555
C4_4 C3_4 1_555 1_555
H4_4 C4_4 1_555 1_555
N7_4 N8_4 1_555 1_555
N8_4 Zn2_4 1_555 1_555
C5_4 N7_4 1_555 1_555
H5_4 C5_4 1_555 1_555
N9_4 Zn1_8 1_555 1_555
C6_4 C5_4 1_555 1_555
H6_4 C6_4 1_555 1_555
N10_4 Zn1_8 1_555 1_555
N11_4 Zn2_4 1_555 1_555
C7_4 N10_4 1_555 1_555
H7_4 C7_4 1_555 1_555
N12_4 N11_4 1_555 1_555
C8_4 C7_4 1_555 1_555
H8_4 C8_4 1_555 1_555
N13_4 N14_4 1_555 1_555
N14_4 Zn2_4 1_555 1_555
C9_4 N13_4 1_555 1_555
H9_4 C9_4 1_555 1_555
N15_4 Zn3_8 1_555 1_555
C10_4 C9_4 1_555 1_555
H10_4 C10_4 1_555 1_555
N16_4 N17_4 1_555 1_555
N17_4 Zn2_4 1_555 1_555
C11_4 N16_4 1_555 1_555
H11_4 C11_4 1_555 1_555
N18_4 N17_4 1_555 1_555
C12_4 C11_4 1_555 1_555
H12_4 C12_4 1_555 1_555
Zn4_8 N6_4 1_555 1_555
Zn5_7 N12_4 1_555 1_555
N19_4 Zn3_8 1_555 1_555
N20_4 Zn1_8 1_555 1_555
N21_4 Zn1_8 1_555 1_555
N22_4 Zn3_8 1_555 1_555
N23_4 Zn3_8 1_555 1_555
N24_4 Zn1_8 1_555 1_555
N4_4 N5_4 1_555 1_555
N6_4 C4_4 1_555 1_555
N7_4 Zn4_8 1_555 1_555
N8_4 N9_4 1_555 1_555
N9_4 C6_4 1_555 1_555
N10_4 N11_4 1_555 1_555
N12_4 C8_4 1_555 1_555
N13_4 Zn5_7 1_555 1_555
N14_4 N15_4 1_555 1_555
N15_4 C10_4 1_555 1_555
N16_4 Zn5_7 1_555 1_555
N18_4 C12_4 1_555 1_555
N18_4 Zn4_8 1_555 1_555
N19_5 Zn4_2 1_555 1_555
N22_5 Zn4_2 1_555 1_555
N23_5 Zn4_3 1_555 1_555
N23_6 Zn4_4 1_555 1_555
N19_6 Zn4_5 1_555 1_555
N22_6 Zn4_6 1_555 1_555
N19_7 Zn4 1_555 1_555
N22_7 Zn4 1_555 1_555
N23_7 Zn4 1_555 1_555
N19_8 Zn4_8 1_555 1_555
N22_8 Zn4_8 1_555 1_555
N23_8 Zn4_8 1_555 1_555
Zn2_5 N2_5 1_555 1_555
N19_8 N2_5 1_555 1_555
N2_5 N23_2 1_555 1_555
C1_5 N19_8 1_555 1_555
H1_5 C1_5 1_555 1_555
N23_2 C2_5 1_555 1_555
C2_5 C1_5 1_555 1_555
H2_5 C2_5 1_555 1_555
N5_5 Zn2_5 1_555 1_555
N20_3 N8_5 1_555 1_555
N8_5 Zn2_5 1_555 1_555
C5_5 N20_3 1_555 1_555
H5_5 C5_5 1_555 1_555
C6_5 C5_5 1_555 1_555
H6_5 C6_5 1_555 1_555
N11_5 Zn2_5 1_555 1_555
C7_5 N22_8 1_555 1_555
H7_5 C7_5 1_555 1_555
N12_5 N11_5 1_555 1_555
C8_5 C7_5 1_555 1_555
H8_5 C8_5 1_555 1_555
N14_5 Zn2_5 1_555 1_555
N16_5 N17_5 1_555 1_555
N17_5 Zn2_5 1_555 1_555
C11_5 N16_5 1_555 1_555
H11_5 C11_5 1_555 1_555
N24_3 N17_5 1_555 1_555
C12_5 C11_5 1_555 1_555
H12_5 C12_5 1_555 1_555
Zn5 N12_5 1_555 1_555
N8_5 N23_8 1_555 1_555
N23_8 C6_5 1_555 1_555
N22_8 N11_5 1_555 1_555
N12_5 C8_5 1_555 1_555
N16_5 Zn5 1_555 1_555
N24_3 C12_5 1_555 1_555
C3_5 N19_2 1_555 1_555
H3_5 C3_5 1_555 1_555
C4_5 C3_5 1_555 1_555
H4_5 C4_5 1_555 1_555
N21_3 C4_5 1_555 1_555
C9_5 N13_5 1_555 1_555
H9_5 C9_5 1_555 1_555
C10_5 C9_5 1_555 1_555
H10_5 C10_5 1_555 1_555
N13_5 Zn5_2 1_555 1_555
N22_2 C10_5 1_555 1_555
Zn2_6 N2_6 1_555 1_555
N5_6 Zn2_6 1_555 1_555
C3_6 N19 1_555 1_555
H3_6 C3_6 1_555 1_555
N21_4 N5_6 1_555 1_555
C4_6 C3_6 1_555 1_555
H4_6 C4_6 1_555 1_555
N20_4 N8_6 1_555 1_555
N8_6 Zn2_6 1_555 1_555
C5_6 N20_4 1_555 1_555
H5_6 C5_6 1_555 1_555
C6_6 C5_6 1_555 1_555
H6_6 C6_6 1_555 1_555
N11_6 Zn2_6 1_555 1_555
N13_6 N14_6 1_555 1_555
N14_6 Zn2_6 1_555 1_555
C9_6 N13_6 1_555 1_555
H9_6 C9_6 1_555 1_555
C10_6 C9_6 1_555 1_555
H10_6 C10_6 1_555 1_555
N16_6 N17_6 1_555 1_555
N17_6 Zn2_6 1_555 1_555
C11_6 N16_6 1_555 1_555
H11_6 C11_6 1_555 1_555
N24_4 N17_6 1_555 1_555
C12_6 C11_6 1_555 1_555
H12_6 C12_6 1_555 1_555
N19 N5_6 1_555 1_555
N21_4 C4_6 1_555 1_555
N8_6 N23_6 1_555 1_555
N23_6 C6_6 1_555 1_555
N13_6 Zn5_3 1_555 1_555
N14_6 N22 1_555 1_555
N22 C10_6 1_555 1_555
N16_6 Zn5_3 1_555 1_555
N24_4 C12_6 1_555 1_555
C1_6 N19_6 1_555 1_555
H1_6 C1_6 1_555 1_555
N23 C2_6 1_555 1_555
C2_6 C1_6 1_555 1_555
H2_6 C2_6 1_555 1_555
C7_6 N22_6 1_555 1_555
H7_6 C7_6 1_555 1_555
C8_6 C7_6 1_555 1_555
H8_6 C8_6 1_555 1_555
Zn5_4 N12_6 1_555 1_555
N12_6 C8_6 1_555 1_555
Zn2_7 N2_7 1_555 1_555
N19_7 N2_7 1_555 1_555
N2_7 N23_3 1_555 1_555
C1_7 N19_7 1_555 1_555
H1_7 C1_7 1_555 1_555
N23_3 C2_7 1_555 1_555
C2_7 C1_7 1_555 1_555
H2_7 C2_7 1_555 1_555
N5_7 Zn2_7 1_555 1_555
C3_7 N19_3 1_555 1_555
H3_7 C3_7 1_555 1_555
N21_2 N5_7 1_555 1_555
C4_7 C3_7 1_555 1_555
H4_7 C4_7 1_555 1_555
N20_2 N8_7 1_555 1_555
N8_7 Zn2_7 1_555 1_555
C5_7 N20_2 1_555 1_555
H5_7 C5_7 1_555 1_555
C6_7 C5_7 1_555 1_555
H6_7 C6_7 1_555 1_555
N11_7 Zn2_7 1_555 1_555
C7_7 N22_7 1_555 1_555
H7_7 C7_7 1_555 1_555
N12_7 N11_7 1_555 1_555
C8_7 C7_7 1_555 1_555
H8_7 C8_7 1_555 1_555
N13_7 N14_7 1_555 1_555
N14_7 Zn2_7 1_555 1_555
C9_7 N13_7 1_555 1_555
H9_7 C9_7 1_555 1_555
C10_7 C9_7 1_555 1_555
H10_7 C10_7 1_555 1_555
N16_7 N17_7 1_555 1_555
N17_7 Zn2_7 1_555 1_555
C11_7 N16_7 1_555 1_555
H11_7 C11_7 1_555 1_555
N24_2 N17_7 1_555 1_555
C12_7 C11_7 1_555 1_555
H12_7 C12_7 1_555 1_555
Zn5_7 N12_7 1_555 1_555
N19_3 N5_7 1_555 1_555
N21_2 C4_7 1_555 1_555
N8_7 N23_7 1_555 1_555
N23_7 C6_7 1_555 1_555
N22_7 N11_7 1_555 1_555
N12_7 C8_7 1_555 1_555
N13_7 Zn5_7 1_555 1_555
N14_7 N22_3 1_555 1_555
N22_3 C10_7 1_555 1_555
N16_7 Zn5_7 1_555 1_555
N24_2 C12_7 1_555 1_555
Zn2_8 N2_8 1_555 1_555
N19_5 N2_8 1_555 1_555
N2_8 N23_4 1_555 1_555
C1_8 N19_5 1_555 1_555
H1_8 C1_8 1_555 1_555
N23_4 C2_8 1_555 1_555
C2_8 C1_8 1_555 1_555
H2_8 C2_8 1_555 1_555
N5_8 Zn2_8 1_555 1_555
C3_8 N19_4 1_555 1_555
H3_8 C3_8 1_555 1_555
N21 N5_8 1_555 1_555
C4_8 C3_8 1_555 1_555
H4_8 C4_8 1_555 1_555
N8_8 Zn2_8 1_555 1_555
N11_8 Zn2_8 1_555 1_555
C7_8 N22_5 1_555 1_555
H7_8 C7_8 1_555 1_555
N12_8 N11_8 1_555 1_555
C8_8 C7_8 1_555 1_555
H8_8 C8_8 1_555 1_555
N13_8 N14_8 1_555 1_555
N14_8 Zn2_8 1_555 1_555
C9_8 N13_8 1_555 1_555
H9_8 C9_8 1_555 1_555
C10_8 C9_8 1_555 1_555
H10_8 C10_8 1_555 1_555
N17_8 Zn2_8 1_555 1_555
Zn5_5 N12_8 1_555 1_555
N19_4 N5_8 1_555 1_555
N21 C4_8 1_555 1_555
N22_5 N11_8 1_555 1_555
N12_8 C8_8 1_555 1_555
N13_8 Zn5_5 1_555 1_555
N14_8 N22_4 1_555 1_555
N22_4 C10_8 1_555 1_555
C11_8 N16_8 1_555 1_555
H11_8 C11_8 1_555 1_555
C12_8 C11_8 1_555 1_555
H12_8 C12_8 1_555 1_555
N16_8 Zn5_6 1_555 1_555
N24 C12_8 1_555 1_555
C5_8 N20 1_555 1_555
H5_8 C5_8 1_555 1_555
C6_8 C5_8 1_555 1_555
H6_8 C6_8 1_555 1_555
N23_5 C6_8 1_555 1_555

#END
