
###############################################################################
#
# This file contains modified crystal structure data generated from the
# MOF subset of the Cambridge Structural Database (CSD) v543 
# hosted by the Cambridge Crystallographic Data Centre (CCDC).
#
# This work is licensed under the Creative Commons
# Attribution-NonCommercial-ShareAlike 4.0 International License.
# To view a copy of this license, visit
# http://creativecommons.org/licenses/by-nc-sa/4.0/
# or send a letter to
# Creative Commons, PO Box 1866, Mountain View, CA 94042, USA.
#
# CIF created using the CSD Python API on 29 September 2022
# The structure has been converted into the P1 space group
# The structure has a 3D framework
# The original CSD entry HEJQEV is in the cubic crystal system
# The framework has been calculated to contain at least 10.0% void space
# The void calculation uses a probe of radius 1.32A, grid spacing 0.4
#
###############################################################################

data_HEJQEV
_chemical_formula_moiety         '(C96 H96 Mn22 N144)n'
_symmetry_cell_setting           triclinic
_symmetry_space_group_name_H-M   'P 1'
_symmetry_Int_Tables_number      1
_space_group_name_Hall           'P 1'
loop_
_symmetry_equiv_pos_site_id
_symmetry_equiv_pos_as_xyz
1 x,y,z
_cell_length_a                   18.148(2)
_cell_length_b                   18.148(2)
_cell_length_c                   18.148(2)
_cell_angle_alpha                90
_cell_angle_beta                 90
_cell_angle_gamma                90
_cell_volume                     5977.04
loop_
_atom_site_label
_atom_site_type_symbol
_atom_site_fract_x
_atom_site_fract_y
_atom_site_fract_z
Mn1 Mn -0.0000 0.5000 0.0000
N24 N 0.08230(6) 0.45792(9) 0.08230(6)
Mn1_2 Mn -0.0000 0.5000 1.0000
N1 N 0.04208(9) 0.41770(6) 0.91770(6)
C1 C 0.11292(11) 0.40151(8) 0.90151(8)
H1 H 0.1552 0.4233 0.9233
N3 N 0.04208(9) 0.33230(6) 0.83230(6)
C2 C 0.11292(11) 0.34849(8) 0.84849(8)
H2 H 0.1552 0.3267 0.8267
Mn5 Mn -0.0000 0.2500 0.7500
N20 N 0.08230(6) 0.58230(6) 0.95792(9)
Mn1_3 Mn 1.0000 0.5000 0.0000
Mn3 Mn 0.7500 0.2500 0.0000
N16 N 0.83230(6) 0.33230(6) 0.04208(9)
C11 C 0.84849(8) 0.34849(8) 0.11292(11)
H11 H 0.8267 0.3267 0.1552
N18 N 0.91770(6) 0.41770(6) 0.04208(9)
C12 C 0.90151(8) 0.40151(8) 0.11292(11)
H12 H 0.9233 0.4233 0.1552
N19 N 0.79208(9) 0.16770(6) 0.08230(6)
N21 N 0.95792(9) 0.58230(6) 0.08230(6)
N23 N 0.66770(6) 0.29208(9) 0.08230(6)
Mn1_4 Mn 1.0000 0.5000 1.0000
Mn2 Mn 0.8750 0.3750 0.8750
N2 N 0.99965(11) 0.3750 0.8750
Mn3_2 Mn 0.7500 0.2500 1.0000
N4 N 0.83230(6) 0.20792(9) 0.91770(6)
N5 N 0.8750 0.25035(11) 0.8750
C3 C 0.84849(8) 0.13708(11) 0.90151(8)
H3 H 0.8267 0.0948 0.9233
N6 N 0.91770(6) 0.20792(9) 0.83230(6)
C4 C 0.90151(8) 0.13708(11) 0.84849(8)
H4 H 0.9233 0.0948 0.8267
N7 N 0.83230(6) 0.41770(6) 0.70792(9)
N8 N 0.8750 0.3750 0.75035(11)
C5 C 0.84849(8) 0.40151(8) 0.63708(11)
H5 H 0.8267 0.4233 0.5948
N9 N 0.91770(6) 0.33230(6) 0.70792(9)
C6 C 0.90151(8) 0.34849(8) 0.63708(11)
H6 H 0.9233 0.3267 0.5948
N10 N 0.70792(9) 0.33230(6) 0.91770(6)
N11 N 0.75035(11) 0.3750 0.8750
C7 C 0.63708(11) 0.34849(8) 0.90151(8)
H7 H 0.5948 0.3267 0.9233
N12 N 0.70792(9) 0.41770(6) 0.83230(6)
C8 C 0.63708(11) 0.40151(8) 0.84849(8)
H8 H 0.5948 0.4233 0.8267
N13 N 0.91770(6) 0.54208(9) 0.91770(6)
N14 N 0.8750 0.49965(11) 0.8750
C9 C 0.90151(8) 0.61292(11) 0.90151(8)
H9 H 0.9233 0.6552 0.9233
N15 N 0.83230(6) 0.54208(9) 0.83230(6)
C10 C 0.84849(8) 0.61292(11) 0.84849(8)
H10 H 0.8267 0.6552 0.8267
N17 N 0.8750 0.3750 0.99965(11)
Mn4 Mn 0.7500 0.5000 0.7500
Mn5_2 Mn 1.0000 0.2500 0.7500
N22 N 0.66770(6) 0.16770(6) 0.95792(9)
Mn3_3 Mn 0.0000 0.0000 0.5000
N22_2 N 0.08230(6) 0.08230(6) 0.45792(9)
Mn3_4 Mn 0.0000 1.0000 0.5000
N10_2 N 0.04208(9) 0.91770(6) 0.41770(6)
C7_2 C 0.11292(11) 0.90151(8) 0.40151(8)
H7_2 H 0.1552 0.9233 0.4233
N12_2 N 0.04208(9) 0.83230(6) 0.33230(6)
C8_2 C 0.11292(11) 0.84849(8) 0.34849(8)
H8_2 H 0.1552 0.8267 0.3267
Mn4_2 Mn -0.0000 0.7500 0.2500
N23_2 N 0.08230(6) 0.95792(9) 0.58230(6)
Mn3_5 Mn 1.0000 0.0000 0.5000
N4_2 N 0.91770(6) 0.04208(9) 0.41770(6)
C3_2 C 0.90151(8) 0.11292(11) 0.40151(8)
H3_2 H 0.9233 0.1552 0.4233
N6_2 N 0.83230(6) 0.04208(9) 0.33230(6)
C4_2 C 0.84849(8) 0.11292(11) 0.34849(8)
H4_2 H 0.8267 0.1552 0.3267
Mn5_3 Mn 0.7500 0.0000 0.2500
N19_2 N 0.95792(9) 0.08230(6) 0.58230(6)
Mn1_5 Mn 0.7500 0.7500 0.5000
Mn2_2 Mn 0.8750 0.8750 0.3750
N1_2 N 0.70792(9) 0.83230(6) 0.41770(6)
N2_2 N 0.75035(11) 0.8750 0.3750
C1_2 C 0.63708(11) 0.84849(8) 0.40151(8)
H1_2 H 0.5948 0.8267 0.4233
N3_2 N 0.70792(9) 0.91770(6) 0.33230(6)
C2_2 C 0.63708(11) 0.90151(8) 0.34849(8)
H2_2 H 0.5948 0.9233 0.3267
Mn3_6 Mn 1.0000 1.0000 0.5000
N5_2 N 0.8750 0.99965(11) 0.3750
N7_2 N 0.91770(6) 0.83230(6) 0.20792(9)
N8_2 N 0.8750 0.8750 0.25035(11)
C5_2 C 0.90151(8) 0.84849(8) 0.13708(11)
H5_2 H 0.9233 0.8267 0.0948
N9_2 N 0.83230(6) 0.91770(6) 0.20792(9)
C6_2 C 0.84849(8) 0.90151(8) 0.13708(11)
H6_2 H 0.8267 0.9233 0.0948
N11_2 N 0.99965(11) 0.8750 0.3750
N13_2 N 0.83230(6) 0.70792(9) 0.41770(6)
N14_2 N 0.8750 0.75035(11) 0.3750
C9_2 C 0.84849(8) 0.63708(11) 0.40151(8)
H9_2 H 0.8267 0.5948 0.4233
N15_2 N 0.91770(6) 0.70792(9) 0.33230(6)
C10_2 C 0.90151(8) 0.63708(11) 0.34849(8)
H10_2 H 0.9233 0.5948 0.3267
N16_2 N 0.91770(6) 0.91770(6) 0.54208(9)
N17_2 N 0.8750 0.8750 0.49965(11)
C11_2 C 0.90151(8) 0.90151(8) 0.61292(11)
H11_2 H 0.9233 0.9233 0.6552
N18_2 N 0.83230(6) 0.83230(6) 0.54208(9)
C12_2 C 0.84849(8) 0.84849(8) 0.61292(11)
H12_2 H 0.8267 0.8267 0.6552
Mn4_3 Mn 1.0000 0.7500 0.2500
Mn5_4 Mn 0.7500 1.0000 0.2500
N20_2 N 0.66770(6) 0.66770(6) 0.45792(9)
N21_2 N 0.79208(9) 0.66770(6) 0.58230(6)
N24_2 N 0.66770(6) 0.79208(9) 0.58230(6)
Mn4_4 Mn 0.5000 -0.0000 0.0000
Mn1_6 Mn 0.2500 -0.0000 0.7500
N13_3 N 0.33230(6) 0.04208(9) 0.83230(6)
C9_3 C 0.34849(8) 0.11292(11) 0.84849(8)
H9_3 H 0.3267 0.1552 0.8267
N15_3 N 0.41770(6) 0.04208(9) 0.91770(6)
C10_3 C 0.40151(8) 0.11292(11) 0.90151(8)
H10_3 H 0.4233 0.1552 0.9233
Mn4_5 Mn 0.5000 -0.0000 1.0000
N20_3 N 0.16770(6) 0.08230(6) 0.79208(9)
N21_3 N 0.29208(9) 0.08230(6) 0.66770(6)
N7_3 N 0.41770(6) 0.91770(6) 0.04208(9)
C5_3 C 0.40151(8) 0.90151(8) 0.11292(11)
H5_3 H 0.4233 0.9233 0.1552
N9_3 N 0.33230(6) 0.83230(6) 0.04208(9)
C6_3 C 0.34849(8) 0.84849(8) 0.11292(11)
H6_3 H 0.3267 0.8267 0.1552
Mn4_6 Mn 0.5000 1.0000 0.0000
Mn5_5 Mn 0.2500 0.7500 0.0000
Mn1_7 Mn 0.2500 1.0000 0.7500
Mn2_3 Mn 0.3750 0.8750 0.8750
N1_3 N 0.20792(9) 0.91770(6) 0.83230(6)
N2_3 N 0.25035(11) 0.8750 0.8750
C1_3 C 0.13708(11) 0.90151(8) 0.84849(8)
H1_3 H 0.0948 0.9233 0.8267
N3_3 N 0.20792(9) 0.83230(6) 0.91770(6)
C2_3 C 0.13708(11) 0.84849(8) 0.90151(8)
H2_3 H 0.0948 0.8267 0.9233
Mn3_7 Mn 0.5000 0.7500 0.7500
N4_3 N 0.41770(6) 0.70792(9) 0.83230(6)
N5_3 N 0.3750 0.75035(11) 0.8750
C3_3 C 0.40151(8) 0.63708(11) 0.84849(8)
H3_3 H 0.4233 0.5948 0.8267
N6_3 N 0.33230(6) 0.70792(9) 0.91770(6)
C4_3 C 0.34849(8) 0.63708(11) 0.90151(8)
H4_3 H 0.3267 0.5948 0.9233
N8_3 N 0.3750 0.8750 0.99965(11)
N10_3 N 0.54208(9) 0.83230(6) 0.83230(6)
N11_3 N 0.49965(11) 0.8750 0.8750
C7_3 C 0.61292(11) 0.84849(8) 0.84849(8)
H7_3 H 0.6552 0.8267 0.8267
N12_3 N 0.54208(9) 0.91770(6) 0.91770(6)
C8_3 C 0.61292(11) 0.90151(8) 0.90151(8)
H8_3 H 0.6552 0.9233 0.9233
N14_3 N 0.3750 0.99965(11) 0.8750
N16_3 N 0.41770(6) 0.83230(6) 0.70792(9)
N17_3 N 0.3750 0.8750 0.75035(11)
C11_3 C 0.40151(8) 0.84849(8) 0.63708(11)
H11_3 H 0.4233 0.8267 0.5948
N18_3 N 0.33230(6) 0.91770(6) 0.70792(9)
C12_3 C 0.34849(8) 0.90151(8) 0.63708(11)
H12_3 H 0.3267 0.9233 0.5948
Mn4_7 Mn 0.5000 1.0000 1.0000
Mn5_6 Mn 0.2500 0.7500 1.0000
N19_3 N 0.45792(9) 0.66770(6) 0.66770(6)
N22_3 N 0.58230(6) 0.66770(6) 0.79208(9)
N23_3 N 0.58230(6) 0.79208(9) 0.66770(6)
N24_3 N 0.16770(6) 0.95792(9) 0.66770(6)
Mn1_8 Mn 0.5000 0.2500 0.2500
Mn2_4 Mn 0.3750 0.3750 0.3750
N1_4 N 0.54208(9) 0.33230(6) 0.33230(6)
N2_4 N 0.49965(11) 0.3750 0.3750
C1_4 C 0.61292(11) 0.34849(8) 0.34849(8)
H1_4 H 0.6552 0.3267 0.3267
N3_4 N 0.54208(9) 0.41770(6) 0.41770(6)
C2_4 C 0.61292(11) 0.40151(8) 0.40151(8)
H2_4 H 0.6552 0.4233 0.4233
Mn3_8 Mn 0.2500 0.5000 0.2500
N4_4 N 0.33230(6) 0.54208(9) 0.33230(6)
N5_4 N 0.3750 0.49965(11) 0.3750
C3_4 C 0.34849(8) 0.61292(11) 0.34849(8)
H3_4 H 0.3267 0.6552 0.3267
N6_4 N 0.41770(6) 0.54208(9) 0.41770(6)
C4_4 C 0.40151(8) 0.61292(11) 0.40151(8)
H4_4 H 0.4233 0.6552 0.4233
N7_4 N 0.33230(6) 0.33230(6) 0.54208(9)
N8_4 N 0.3750 0.3750 0.49965(11)
C5_4 C 0.34849(8) 0.34849(8) 0.61292(11)
H5_4 H 0.3267 0.3267 0.6552
N9_4 N 0.41770(6) 0.41770(6) 0.54208(9)
C6_4 C 0.40151(8) 0.40151(8) 0.61292(11)
H6_4 H 0.4233 0.4233 0.6552
N10_4 N 0.20792(9) 0.41770(6) 0.33230(6)
N11_4 N 0.25035(11) 0.3750 0.3750
C7_4 C 0.13708(11) 0.40151(8) 0.34849(8)
H7_4 H 0.0948 0.4233 0.3267
N12_4 N 0.20792(9) 0.33230(6) 0.41770(6)
C8_4 C 0.13708(11) 0.34849(8) 0.40151(8)
H8_4 H 0.0948 0.3267 0.4233
N13_4 N 0.41770(6) 0.20792(9) 0.33230(6)
N14_4 N 0.3750 0.25035(11) 0.3750
C9_4 C 0.40151(8) 0.13708(11) 0.34849(8)
H9_4 H 0.4233 0.0948 0.3267
N15_4 N 0.33230(6) 0.20792(9) 0.41770(6)
C10_4 C 0.34849(8) 0.13708(11) 0.40151(8)
H10_4 H 0.3267 0.0948 0.4233
N16_4 N 0.33230(6) 0.41770(6) 0.20792(9)
N17_4 N 0.3750 0.3750 0.25035(11)
C11_4 C 0.34849(8) 0.40151(8) 0.13708(11)
H11_4 H 0.3267 0.4233 0.0948
N18_4 N 0.41770(6) 0.33230(6) 0.20792(9)
C12_4 C 0.40151(8) 0.34849(8) 0.13708(11)
H12_4 H 0.4233 0.3267 0.0948
Mn4_8 Mn 0.2500 0.2500 0.5000
Mn5_7 Mn 0.5000 0.5000 0.5000
N19_4 N 0.29208(9) 0.58230(6) 0.16770(6)
N20_4 N 0.58230(6) 0.16770(6) 0.29208(9)
N21_4 N 0.45792(9) 0.16770(6) 0.16770(6)
N22_4 N 0.16770(6) 0.58230(6) 0.29208(9)
N23_4 N 0.16770(6) 0.45792(9) 0.16770(6)
N24_4 N 0.58230(6) 0.29208(9) 0.16770(6)
N19_5 N 0.08230(6) 0.79208(9) 0.16770(6)
N23_5 N 0.08230(6) 0.66770(6) 0.29208(9)
N22_5 N 0.95792(9) 0.66770(6) 0.16770(6)
N22_6 N 0.45792(9) 0.08230(6) 0.08230(6)
N23_6 N 0.58230(6) 0.08230(6) 0.95792(9)
N19_6 N 0.58230(6) 0.95792(9) 0.08230(6)
N19_7 N 0.66770(6) 0.45792(9) 0.66770(6)
N22_7 N 0.79208(9) 0.58230(6) 0.66770(6)
N23_7 N 0.66770(6) 0.58230(6) 0.79208(9)
N19_8 N 0.16770(6) 0.29208(9) 0.58230(6)
N22_8 N 0.29208(9) 0.16770(6) 0.58230(6)
N23_8 N 0.16770(6) 0.16770(6) 0.45792(9)
Mn2_5 Mn 0.1250 0.1250 0.6250
N2_5 N 0.1250 0.24965(11) 0.6250
C1_5 C 0.15151(8) 0.36292(11) 0.59849(8)
H1_5 H 0.1733 0.4052 0.5767
N3_5 N 0.08230(6) 0.29208(9) 0.66770(6)
C2_5 C 0.09849(8) 0.36292(11) 0.65151(8)
H2_5 H 0.0767 0.4052 0.6733
N5_5 N 0.00035(11) 0.1250 0.6250
N8_5 N 0.1250 0.1250 0.74965(11)
C5_5 C 0.15151(8) 0.09849(8) 0.86292(11)
H5_5 H 0.1733 0.0767 0.9052
N9_5 N 0.08230(6) 0.16770(6) 0.79208(9)
C6_5 C 0.09849(8) 0.15151(8) 0.86292(11)
H6_5 H 0.0767 0.1733 0.9052
N11_5 N 0.1250 0.00035(11) 0.6250
N14_5 N 0.24965(11) 0.1250 0.6250
C9_5 C 0.36292(11) 0.15151(8) 0.59849(8)
H9_5 H 0.4052 0.1733 0.5767
C10_5 C 0.36292(11) 0.09849(8) 0.65151(8)
H10_5 H 0.4052 0.0767 0.6733
N17_5 N 0.1250 0.1250 0.50035(11)
C11_5 C 0.09849(8) 0.09849(8) 0.38708(11)
H11_5 H 0.0767 0.0767 0.3448
C12_5 C 0.15151(8) 0.15151(8) 0.38708(11)
H12_5 H 0.1733 0.1733 0.3448
C7_5 C 0.09849(8) 0.88708(11) 0.59849(8)
H7_5 H 0.0767 0.8448 0.5767
C8_5 C 0.15151(8) 0.88708(11) 0.65151(8)
H8_5 H 0.1733 0.8448 0.6733
C3_5 C 0.88708(11) 0.09849(8) 0.59849(8)
H3_5 H 0.8448 0.0767 0.5767
N6_5 N 0.95792(9) 0.16770(6) 0.66770(6)
C4_5 C 0.88708(11) 0.15151(8) 0.65151(8)
H4_5 H 0.8448 0.1733 0.6733
Mn2_6 Mn 0.6250 0.1250 0.1250
N2_6 N 0.6250 0.00035(11) 0.1250
N5_6 N 0.74965(11) 0.1250 0.1250
C3_6 C 0.86292(11) 0.15151(8) 0.09849(8)
H3_6 H 0.9052 0.1733 0.0767
N6_6 N 0.79208(9) 0.08230(6) 0.16770(6)
C4_6 C 0.86292(11) 0.09849(8) 0.15151(8)
H4_6 H 0.9052 0.0767 0.1733
N8_6 N 0.6250 0.1250 0.24965(11)
C5_6 C 0.59849(8) 0.15151(8) 0.36292(11)
H5_6 H 0.5767 0.1733 0.4052
N9_6 N 0.66770(6) 0.08230(6) 0.29208(9)
C6_6 C 0.65151(8) 0.09849(8) 0.36292(11)
H6_6 H 0.6733 0.0767 0.4052
N11_6 N 0.6250 0.24965(11) 0.1250
C7_6 C 0.65151(8) 0.36292(11) 0.09849(8)
H7_6 H 0.6733 0.4052 0.0767
C8_6 C 0.59849(8) 0.36292(11) 0.15151(8)
H8_6 H 0.5767 0.4052 0.1733
N14_6 N 0.50035(11) 0.1250 0.1250
C9_6 C 0.38708(11) 0.09849(8) 0.09849(8)
H9_6 H 0.3448 0.0767 0.0767
C10_6 C 0.38708(11) 0.15151(8) 0.15151(8)
H10_6 H 0.3448 0.1733 0.1733
N17_6 N 0.6250 0.1250 0.00035(11)
C11_6 C 0.65151(8) 0.15151(8) 0.88708(11)
H11_6 H 0.6733 0.1733 0.8448
C12_6 C 0.59849(8) 0.09849(8) 0.88708(11)
H12_6 H 0.5767 0.0767 0.8448
C1_6 C 0.59849(8) 0.88708(11) 0.09849(8)
H1_6 H 0.5767 0.8448 0.0767
N3_6 N 0.66770(6) 0.95792(9) 0.16770(6)
C2_6 C 0.65151(8) 0.88708(11) 0.15151(8)
H2_6 H 0.6733 0.8448 0.1733
Mn2_7 Mn 0.6250 0.6250 0.6250
N2_7 N 0.6250 0.50035(11) 0.6250
C1_7 C 0.65151(8) 0.38708(11) 0.65151(8)
H1_7 H 0.6733 0.3448 0.6733
N3_7 N 0.58230(6) 0.45792(9) 0.58230(6)
C2_7 C 0.59849(8) 0.38708(11) 0.59849(8)
H2_7 H 0.5767 0.3448 0.5767
N5_7 N 0.50035(11) 0.6250 0.6250
C3_7 C 0.38708(11) 0.65151(8) 0.65151(8)
H3_7 H 0.3448 0.6733 0.6733
N6_7 N 0.45792(9) 0.58230(6) 0.58230(6)
C4_7 C 0.38708(11) 0.59849(8) 0.59849(8)
H4_7 H 0.3448 0.5767 0.5767
N8_7 N 0.6250 0.6250 0.50035(11)
C5_7 C 0.65151(8) 0.65151(8) 0.38708(11)
H5_7 H 0.6733 0.6733 0.3448
N9_7 N 0.58230(6) 0.58230(6) 0.45792(9)
C6_7 C 0.59849(8) 0.59849(8) 0.38708(11)
H6_7 H 0.5767 0.5767 0.3448
N11_7 N 0.6250 0.74965(11) 0.6250
C7_7 C 0.59849(8) 0.86292(11) 0.65151(8)
H7_7 H 0.5767 0.9052 0.6733
C8_7 C 0.65151(8) 0.86292(11) 0.59849(8)
H8_7 H 0.6733 0.9052 0.5767
N14_7 N 0.74965(11) 0.6250 0.6250
C9_7 C 0.86292(11) 0.59849(8) 0.65151(8)
H9_7 H 0.9052 0.5767 0.6733
C10_7 C 0.86292(11) 0.65151(8) 0.59849(8)
H10_7 H 0.9052 0.6733 0.5767
N17_7 N 0.6250 0.6250 0.74965(11)
C11_7 C 0.59849(8) 0.65151(8) 0.86292(11)
H11_7 H 0.5767 0.6733 0.9052
C12_7 C 0.65151(8) 0.59849(8) 0.86292(11)
H12_7 H 0.6733 0.5767 0.9052
Mn2_8 Mn 0.1250 0.6250 0.1250
N2_8 N 0.1250 0.74965(11) 0.1250
C1_8 C 0.09849(8) 0.86292(11) 0.15151(8)
H1_8 H 0.0767 0.9052 0.1733
N3_8 N 0.16770(6) 0.79208(9) 0.08230(6)
C2_8 C 0.15151(8) 0.86292(11) 0.09849(8)
H2_8 H 0.1733 0.9052 0.0767
N5_8 N 0.24965(11) 0.6250 0.1250
C3_8 C 0.36292(11) 0.59849(8) 0.15151(8)
H3_8 H 0.4052 0.5767 0.1733
N6_8 N 0.29208(9) 0.66770(6) 0.08230(6)
C4_8 C 0.36292(11) 0.65151(8) 0.09849(8)
H4_8 H 0.4052 0.6733 0.0767
N8_8 N 0.1250 0.6250 0.00035(11)
N11_8 N 0.1250 0.50035(11) 0.1250
C7_8 C 0.15151(8) 0.38708(11) 0.15151(8)
H7_8 H 0.1733 0.3448 0.1733
C8_8 C 0.09849(8) 0.38708(11) 0.09849(8)
H8_8 H 0.0767 0.3448 0.0767
N14_8 N 0.00035(11) 0.6250 0.1250
N17_8 N 0.1250 0.6250 0.24965(11)
C11_8 C 0.15151(8) 0.59849(8) 0.36292(11)
H11_8 H 0.1733 0.5767 0.4052
C12_8 C 0.09849(8) 0.65151(8) 0.36292(11)
H12_8 H 0.0767 0.6733 0.4052
C5_8 C 0.09849(8) 0.59849(8) 0.88708(11)
H5_8 H 0.0767 0.5767 0.8448
N9_8 N 0.16770(6) 0.66770(6) 0.95792(9)
C6_8 C 0.15151(8) 0.65151(8) 0.88708(11)
H6_8 H 0.1733 0.6733 0.8448
C9_8 C 0.88708(11) 0.65151(8) 0.15151(8)
H9_8 H 0.8448 0.6733 0.1733
C10_8 C 0.88708(11) 0.59849(8) 0.09849(8)
H10_8 H 0.8448 0.5767 0.0767
loop_
_geom_bond_atom_site_label_1
_geom_bond_atom_site_label_2
_geom_bond_site_symmetry_1
_geom_bond_site_symmetry_2
N24 Mn1 1_555 1_555
Mn1_2 N1 1_555 1_555
C1 N1 1_555 1_555
H1 C1 1_555 1_555
N3 C2 1_555 1_555
C2 C1 1_555 1_555
H2 C2 1_555 1_555
Mn5 N3 1_555 1_555
N20 Mn1_2 1_555 1_555
N16 Mn3 1_555 1_555
C11 N16 1_555 1_555
H11 C11 1_555 1_555
N18 Mn1_3 1_555 1_555
C12 C11 1_555 1_555
H12 C12 1_555 1_555
N19 Mn3 1_555 1_555
N21 Mn1_3 1_555 1_555
N23 Mn3 1_555 1_555
N18 C12 1_555 1_555
Mn2 N2 1_555 1_555
Mn3_2 N4 1_555 1_555
N4 N5 1_555 1_555
N5 Mn2 1_555 1_555
C3 N4 1_555 1_555
H3 C3 1_555 1_555
N6 N5 1_555 1_555
C4 C3 1_555 1_555
H4 C4 1_555 1_555
N7 N8 1_555 1_555
N8 Mn2 1_555 1_555
C5 N7 1_555 1_555
H5 C5 1_555 1_555
N9 N8 1_555 1_555
C6 C5 1_555 1_555
H6 C6 1_555 1_555
N10 Mn3_2 1_555 1_555
N11 Mn2 1_555 1_555
C7 N10 1_555 1_555
H7 C7 1_555 1_555
N12 N11 1_555 1_555
C8 C7 1_555 1_555
H8 C8 1_555 1_555
N13 Mn1_4 1_555 1_555
N14 Mn2 1_555 1_555
C9 N13 1_555 1_555
H9 C9 1_555 1_555
N15 N14 1_555 1_555
C10 C9 1_555 1_555
H10 C10 1_555 1_555
N17 Mn2 1_555 1_555
Mn4 N7 1_555 1_555
N22 Mn3_2 1_555 1_555
N6 C4 1_555 1_555
N6 Mn5_2 1_555 1_555
N9 C6 1_555 1_555
N9 Mn5_2 1_555 1_555
N10 N11 1_555 1_555
N12 C8 1_555 1_555
N12 Mn4 1_555 1_555
N13 N14 1_555 1_555
N15 C10 1_555 1_555
N15 Mn4 1_555 1_555
N22_2 Mn3_3 1_555 1_555
N10_2 Mn3_4 1_555 1_555
C7_2 N10_2 1_555 1_555
H7_2 C7_2 1_555 1_555
C8_2 C7_2 1_555 1_555
H8_2 C8_2 1_555 1_555
N23_2 Mn3_4 1_555 1_555
N12_2 C8_2 1_555 1_555
N12_2 Mn4_2 1_555 1_555
Mn3_5 N4_2 1_555 1_555
C3_2 N4_2 1_555 1_555
H3_2 C3_2 1_555 1_555
C4_2 C3_2 1_555 1_555
H4_2 C4_2 1_555 1_555
N19_2 Mn3_5 1_555 1_555
N6_2 C4_2 1_555 1_555
N6_2 Mn5_3 1_555 1_555
Mn1_5 N1_2 1_555 1_555
Mn2_2 N2_2 1_555 1_555
N1_2 N2_2 1_555 1_555
N2_2 N3_2 1_555 1_555
C1_2 N1_2 1_555 1_555
H1_2 C1_2 1_555 1_555
N3_2 C2_2 1_555 1_555
C2_2 C1_2 1_555 1_555
H2_2 C2_2 1_555 1_555
N5_2 Mn2_2 1_555 1_555
N7_2 N8_2 1_555 1_555
N8_2 Mn2_2 1_555 1_555
C5_2 N7_2 1_555 1_555
H5_2 C5_2 1_555 1_555
N9_2 N8_2 1_555 1_555
C6_2 C5_2 1_555 1_555
H6_2 C6_2 1_555 1_555
N11_2 Mn2_2 1_555 1_555
N13_2 Mn1_5 1_555 1_555
N14_2 Mn2_2 1_555 1_555
C9_2 N13_2 1_555 1_555
H9_2 C9_2 1_555 1_555
N15_2 N14_2 1_555 1_555
C10_2 C9_2 1_555 1_555
H10_2 C10_2 1_555 1_555
N16_2 Mn3_6 1_555 1_555
N17_2 Mn2_2 1_555 1_555
C11_2 N16_2 1_555 1_555
H11_2 C11_2 1_555 1_555
N18_2 Mn1_5 1_555 1_555
C12_2 C11_2 1_555 1_555
H12_2 C12_2 1_555 1_555
Mn4_3 N7_2 1_555 1_555
Mn5_4 N3_2 1_555 1_555
N20_2 Mn1_5 1_555 1_555
N21_2 Mn1_5 1_555 1_555
N24_2 Mn1_5 1_555 1_555
N9_2 C6_2 1_555 1_555
N9_2 Mn5_4 1_555 1_555
N13_2 N14_2 1_555 1_555
N15_2 C10_2 1_555 1_555
N15_2 Mn4_3 1_555 1_555
N16_2 N17_2 1_555 1_555
N17_2 N18_2 1_555 1_555
N18_2 C12_2 1_555 1_555
N13_3 Mn1_6 1_555 1_555
C9_3 N13_3 1_555 1_555
H9_3 C9_3 1_555 1_555
C10_3 C9_3 1_555 1_555
H10_3 C10_3 1_555 1_555
N20_3 Mn1_6 1_555 1_555
N21_3 Mn1_6 1_555 1_555
N15_3 C10_3 1_555 1_555
N15_3 Mn4_5 1_555 1_555
C5_3 N7_3 1_555 1_555
H5_3 C5_3 1_555 1_555
C6_3 C5_3 1_555 1_555
H6_3 C6_3 1_555 1_555
Mn4_6 N7_3 1_555 1_555
N9_3 C6_3 1_555 1_555
N9_3 Mn5_5 1_555 1_555
Mn1_7 N1_3 1_555 1_555
Mn2_3 N2_3 1_555 1_555
N1_3 N2_3 1_555 1_555
N2_3 N3_3 1_555 1_555
C1_3 N1_3 1_555 1_555
H1_3 C1_3 1_555 1_555
N3_3 C2_3 1_555 1_555
C2_3 C1_3 1_555 1_555
H2_3 C2_3 1_555 1_555
Mn3_7 N4_3 1_555 1_555
N4_3 N5_3 1_555 1_555
N5_3 Mn2_3 1_555 1_555
C3_3 N4_3 1_555 1_555
H3_3 C3_3 1_555 1_555
N6_3 N5_3 1_555 1_555
C4_3 C3_3 1_555 1_555
H4_3 C4_3 1_555 1_555
N8_3 Mn2_3 1_555 1_555
N10_3 Mn3_7 1_555 1_555
N11_3 Mn2_3 1_555 1_555
C7_3 N10_3 1_555 1_555
H7_3 C7_3 1_555 1_555
N12_3 N11_3 1_555 1_555
C8_3 C7_3 1_555 1_555
H8_3 C8_3 1_555 1_555
N14_3 Mn2_3 1_555 1_555
N16_3 Mn3_7 1_555 1_555
N17_3 Mn2_3 1_555 1_555
C11_3 N16_3 1_555 1_555
H11_3 C11_3 1_555 1_555
N18_3 Mn1_7 1_555 1_555
C12_3 C11_3 1_555 1_555
H12_3 C12_3 1_555 1_555
Mn5_6 N3_3 1_555 1_555
N19_3 Mn3_7 1_555 1_555
N22_3 Mn3_7 1_555 1_555
N23_3 Mn3_7 1_555 1_555
N24_3 Mn1_7 1_555 1_555
N6_3 C4_3 1_555 1_555
N6_3 Mn5_6 1_555 1_555
N10_3 N11_3 1_555 1_555
N12_3 C8_3 1_555 1_555
N12_3 Mn4_7 1_555 1_555
N16_3 N17_3 1_555 1_555
N17_3 N18_3 1_555 1_555
N18_3 C12_3 1_555 1_555
Mn1_8 N1_4 1_555 1_555
Mn2_4 N2_4 1_555 1_555
N1_4 N2_4 1_555 1_555
N2_4 N3_4 1_555 1_555
C1_4 N1_4 1_555 1_555
H1_4 C1_4 1_555 1_555
N3_4 C2_4 1_555 1_555
C2_4 C1_4 1_555 1_555
H2_4 C2_4 1_555 1_555
Mn3_8 N4_4 1_555 1_555
N4_4 N5_4 1_555 1_555
N5_4 Mn2_4 1_555 1_555
C3_4 N4_4 1_555 1_555
H3_4 C3_4 1_555 1_555
N6_4 N5_4 1_555 1_555
C4_4 C3_4 1_555 1_555
H4_4 C4_4 1_555 1_555
N7_4 N8_4 1_555 1_555
N8_4 Mn2_4 1_555 1_555
C5_4 N7_4 1_555 1_555
H5_4 C5_4 1_555 1_555
N9_4 N8_4 1_555 1_555
C6_4 C5_4 1_555 1_555
H6_4 C6_4 1_555 1_555
N10_4 Mn3_8 1_555 1_555
N11_4 Mn2_4 1_555 1_555
C7_4 N10_4 1_555 1_555
H7_4 C7_4 1_555 1_555
N12_4 N11_4 1_555 1_555
C8_4 C7_4 1_555 1_555
H8_4 C8_4 1_555 1_555
N13_4 Mn1_8 1_555 1_555
N14_4 Mn2_4 1_555 1_555
C9_4 N13_4 1_555 1_555
H9_4 C9_4 1_555 1_555
N15_4 N14_4 1_555 1_555
C10_4 C9_4 1_555 1_555
H10_4 C10_4 1_555 1_555
N16_4 Mn3_8 1_555 1_555
N17_4 Mn2_4 1_555 1_555
C11_4 N16_4 1_555 1_555
H11_4 C11_4 1_555 1_555
N18_4 Mn1_8 1_555 1_555
C12_4 C11_4 1_555 1_555
H12_4 C12_4 1_555 1_555
Mn4_8 N7_4 1_555 1_555
Mn5_7 N3_4 1_555 1_555
N19_4 Mn3_8 1_555 1_555
N20_4 Mn1_8 1_555 1_555
N21_4 Mn1_8 1_555 1_555
N22_4 Mn3_8 1_555 1_555
N23_4 Mn3_8 1_555 1_555
N24_4 Mn1_8 1_555 1_555
N6_4 C4_4 1_555 1_555
N6_4 Mn5_7 1_555 1_555
N9_4 C6_4 1_555 1_555
N9_4 Mn5_7 1_555 1_555
N10_4 N11_4 1_555 1_555
N12_4 C8_4 1_555 1_555
N12_4 Mn4_8 1_555 1_555
N13_4 N14_4 1_555 1_555
N15_4 C10_4 1_555 1_555
N15_4 Mn4_8 1_555 1_555
N16_4 N17_4 1_555 1_555
N17_4 N18_4 1_555 1_555
N18_4 C12_4 1_555 1_555
N19_5 Mn4_2 1_555 1_555
N23_5 Mn4_2 1_555 1_555
N22_5 Mn4_3 1_555 1_555
N22_6 Mn4_4 1_555 1_555
N23_6 Mn4_5 1_555 1_555
N19_6 Mn4_6 1_555 1_555
N19_7 Mn4 1_555 1_555
N22_7 Mn4 1_555 1_555
N23_7 Mn4 1_555 1_555
N19_8 Mn4_8 1_555 1_555
N22_8 Mn4_8 1_555 1_555
N23_8 Mn4_8 1_555 1_555
Mn2_5 N2_5 1_555 1_555
N19_8 N2_5 1_555 1_555
N2_5 N3_5 1_555 1_555
C1_5 N19_8 1_555 1_555
H1_5 C1_5 1_555 1_555
N3_5 C2_5 1_555 1_555
C2_5 C1_5 1_555 1_555
H2_5 C2_5 1_555 1_555
N5_5 Mn2_5 1_555 1_555
N20_3 N8_5 1_555 1_555
N8_5 Mn2_5 1_555 1_555
C5_5 N20_3 1_555 1_555
H5_5 C5_5 1_555 1_555
N9_5 N8_5 1_555 1_555
C6_5 C5_5 1_555 1_555
H6_5 C6_5 1_555 1_555
N11_5 Mn2_5 1_555 1_555
N14_5 Mn2_5 1_555 1_555
C9_5 N22_8 1_555 1_555
H9_5 C9_5 1_555 1_555
N21_3 N14_5 1_555 1_555
C10_5 C9_5 1_555 1_555
H10_5 C10_5 1_555 1_555
N17_5 Mn2_5 1_555 1_555
C11_5 N22_2 1_555 1_555
H11_5 C11_5 1_555 1_555
C12_5 C11_5 1_555 1_555
H12_5 C12_5 1_555 1_555
Mn5 N3_5 1_555 1_555
N9_5 C6_5 1_555 1_555
N9_5 Mn5 1_555 1_555
N22_8 N14_5 1_555 1_555
N21_3 C10_5 1_555 1_555
N22_2 N17_5 1_555 1_555
N17_5 N23_8 1_555 1_555
N23_8 C12_5 1_555 1_555
C7_5 N23_2 1_555 1_555
H7_5 C7_5 1_555 1_555
C8_5 C7_5 1_555 1_555
H8_5 C8_5 1_555 1_555
N24_3 C8_5 1_555 1_555
C3_5 N19_2 1_555 1_555
H3_5 C3_5 1_555 1_555
C4_5 C3_5 1_555 1_555
H4_5 C4_5 1_555 1_555
N6_5 C4_5 1_555 1_555
N6_5 Mn5_2 1_555 1_555
Mn2_6 N2_6 1_555 1_555
N19 N5_6 1_555 1_555
N5_6 Mn2_6 1_555 1_555
C3_6 N19 1_555 1_555
H3_6 C3_6 1_555 1_555
N6_6 N5_6 1_555 1_555
C4_6 C3_6 1_555 1_555
H4_6 C4_6 1_555 1_555
N20_4 N8_6 1_555 1_555
N8_6 Mn2_6 1_555 1_555
C5_6 N20_4 1_555 1_555
H5_6 C5_6 1_555 1_555
N9_6 N8_6 1_555 1_555
C6_6 C5_6 1_555 1_555
H6_6 C6_6 1_555 1_555
N11_6 Mn2_6 1_555 1_555
C7_6 N23 1_555 1_555
H7_6 C7_6 1_555 1_555
N24_4 N11_6 1_555 1_555
C8_6 C7_6 1_555 1_555
H8_6 C8_6 1_555 1_555
N14_6 Mn2_6 1_555 1_555
C9_6 N22_6 1_555 1_555
H9_6 C9_6 1_555 1_555
N21_4 N14_6 1_555 1_555
C10_6 C9_6 1_555 1_555
H10_6 C10_6 1_555 1_555
N17_6 Mn2_6 1_555 1_555
N6_6 C4_6 1_555 1_555
N6_6 Mn5_3 1_555 1_555
N9_6 C6_6 1_555 1_555
N9_6 Mn5_3 1_555 1_555
N23 N11_6 1_555 1_555
N24_4 C8_6 1_555 1_555
N22_6 N14_6 1_555 1_555
N21_4 C10_6 1_555 1_555
C11_6 N22 1_555 1_555
H11_6 C11_6 1_555 1_555
C12_6 C11_6 1_555 1_555
H12_6 C12_6 1_555 1_555
N23_6 C12_6 1_555 1_555
C1_6 N19_6 1_555 1_555
H1_6 C1_6 1_555 1_555
N3_6 C2_6 1_555 1_555
C2_6 C1_6 1_555 1_555
H2_6 C2_6 1_555 1_555
Mn5_4 N3_6 1_555 1_555
Mn2_7 N2_7 1_555 1_555
N19_7 N2_7 1_555 1_555
N2_7 N3_7 1_555 1_555
C1_7 N19_7 1_555 1_555
H1_7 C1_7 1_555 1_555
N3_7 C2_7 1_555 1_555
C2_7 C1_7 1_555 1_555
H2_7 C2_7 1_555 1_555
N19_3 N5_7 1_555 1_555
N5_7 Mn2_7 1_555 1_555
C3_7 N19_3 1_555 1_555
H3_7 C3_7 1_555 1_555
N6_7 N5_7 1_555 1_555
C4_7 C3_7 1_555 1_555
H4_7 C4_7 1_555 1_555
N20_2 N8_7 1_555 1_555
N8_7 Mn2_7 1_555 1_555
C5_7 N20_2 1_555 1_555
H5_7 C5_7 1_555 1_555
N9_7 N8_7 1_555 1_555
C6_7 C5_7 1_555 1_555
H6_7 C6_7 1_555 1_555
N11_7 Mn2_7 1_555 1_555
C7_7 N23_3 1_555 1_555
H7_7 C7_7 1_555 1_555
N24_2 N11_7 1_555 1_555
C8_7 C7_7 1_555 1_555
H8_7 C8_7 1_555 1_555
N14_7 Mn2_7 1_555 1_555
C9_7 N22_7 1_555 1_555
H9_7 C9_7 1_555 1_555
N21_2 N14_7 1_555 1_555
C10_7 C9_7 1_555 1_555
H10_7 C10_7 1_555 1_555
N17_7 Mn2_7 1_555 1_555
C11_7 N22_3 1_555 1_555
H11_7 C11_7 1_555 1_555
C12_7 C11_7 1_555 1_555
H12_7 C12_7 1_555 1_555
Mn5_7 N3_7 1_555 1_555
N6_7 C4_7 1_555 1_555
N6_7 Mn5_7 1_555 1_555
N9_7 C6_7 1_555 1_555
N9_7 Mn5_7 1_555 1_555
N23_3 N11_7 1_555 1_555
N24_2 C8_7 1_555 1_555
N22_7 N14_7 1_555 1_555
N21_2 C10_7 1_555 1_555
N22_3 N17_7 1_555 1_555
N17_7 N23_7 1_555 1_555
N23_7 C12_7 1_555 1_555
Mn2_8 N2_8 1_555 1_555
N19_5 N2_8 1_555 1_555
N2_8 N3_8 1_555 1_555
C1_8 N19_5 1_555 1_555
H1_8 C1_8 1_555 1_555
N3_8 C2_8 1_555 1_555
C2_8 C1_8 1_555 1_555
H2_8 C2_8 1_555 1_555
N19_4 N5_8 1_555 1_555
N5_8 Mn2_8 1_555 1_555
C3_8 N19_4 1_555 1_555
H3_8 C3_8 1_555 1_555
N6_8 N5_8 1_555 1_555
C4_8 C3_8 1_555 1_555
H4_8 C4_8 1_555 1_555
N8_8 Mn2_8 1_555 1_555
N11_8 Mn2_8 1_555 1_555
C7_8 N23_4 1_555 1_555
H7_8 C7_8 1_555 1_555
N24 N11_8 1_555 1_555
C8_8 C7_8 1_555 1_555
H8_8 C8_8 1_555 1_555
N14_8 Mn2_8 1_555 1_555
N17_8 Mn2_8 1_555 1_555
C11_8 N22_4 1_555 1_555
H11_8 C11_8 1_555 1_555
C12_8 C11_8 1_555 1_555
H12_8 C12_8 1_555 1_555
Mn5_5 N3_8 1_555 1_555
N6_8 C4_8 1_555 1_555
N6_8 Mn5_5 1_555 1_555
N23_4 N11_8 1_555 1_555
N24 C8_8 1_555 1_555
N22_4 N17_8 1_555 1_555
N17_8 N23_5 1_555 1_555
N23_5 C12_8 1_555 1_555
C5_8 N20 1_555 1_555
H5_8 C5_8 1_555 1_555
C6_8 C5_8 1_555 1_555
H6_8 C6_8 1_555 1_555
N9_8 C6_8 1_555 1_555
N9_8 Mn5_6 1_555 1_555
C9_8 N22_5 1_555 1_555
H9_8 C9_8 1_555 1_555
C10_8 C9_8 1_555 1_555
H10_8 C10_8 1_555 1_555
N21 C10_8 1_555 1_555

#END
