
###############################################################################
#
# This file contains modified crystal structure data generated from the
# MOF subset of the Cambridge Structural Database (CSD) v543 
# hosted by the Cambridge Crystallographic Data Centre (CCDC).
#
# This work is licensed under the Creative Commons
# Attribution-NonCommercial-ShareAlike 4.0 International License.
# To view a copy of this license, visit
# http://creativecommons.org/licenses/by-nc-sa/4.0/
# or send a letter to
# Creative Commons, PO Box 1866, Mountain View, CA 94042, USA.
#
# CIF created using the CSD Python API on 29 September 2022
# The structure has been converted into the P1 space group
# The structure has a 3D framework
# The original CSD entry HEJTOI is in the rhombohedral crystal system
# The framework has been calculated to contain at least 10.0% void space
# The void calculation uses a probe of radius 1.32A, grid spacing 0.4
# The framework is charged, counterions have been retained in the structure
#
###############################################################################

data_HEJTOI
_chemical_formula_moiety         '(C576 H360 Cl36 Cu18 N144 O180)n'
_symmetry_cell_setting           triclinic
_symmetry_space_group_name_H-M   'P 1'
_symmetry_Int_Tables_number      1
_space_group_name_Hall           'P 1'
loop_
_symmetry_equiv_pos_site_id
_symmetry_equiv_pos_as_xyz
1 x,y,z
_cell_length_a                   30.6123(10)
_cell_length_b                   30.6123(10)
_cell_length_c                   29.4707(12)
_cell_angle_alpha                90
_cell_angle_beta                 90
_cell_angle_gamma                120
_cell_volume                     23917.3
loop_
_atom_site_label
_atom_site_type_symbol
_atom_site_fract_x
_atom_site_fract_y
_atom_site_fract_z
Cl1 Cl 0.04940(6) 0.36389(6) 0.05896(5)
O1 O 0.0221(2) 0.32107(19) 0.08801(18)
O2 O 0.04706(18) 0.40579(17) 0.07701(17)
O3 O 0.02756(18) 0.35217(18) 0.01357(16)
O4 O 0.1024(2) 0.3769(2) 0.05535(18)
Cl1_2 Cl 0.63611(6) 0.68551(8) 0.05896(5)
O1_2 O 0.67893(19) 0.70103(28) 0.08801(18)
O2_2 O 0.59421(17) 0.64127(25) 0.07701(17)
O3_2 O 0.64783(18) 0.67539(25) 0.01357(16)
O4_2 O 0.6231(2) 0.7255(3) 0.05535(18)
Cl1_3 Cl 0.31449(8) 0.95060(6) 0.05896(5)
O1_3 O 0.29897(28) 0.9779(2) 0.08801(18)
O2_3 O 0.35873(25) 0.95294(18) 0.07701(17)
O3_3 O 0.32461(25) 0.97244(18) 0.01357(16)
O4_3 O 0.2745(3) 0.8976(2) 0.05535(18)
Cl1_4 Cl 0.71607(6) 0.69722(6) 0.39229(5)
O1_4 O 0.6888(2) 0.65440(19) 0.42134(18)
O2_4 O 0.71373(18) 0.73912(17) 0.41034(17)
O3_4 O 0.69423(18) 0.68550(18) 0.34690(16)
O4_4 O 0.7691(2) 0.7102(2) 0.38868(18)
Cl1_5 Cl 0.30278(6) 0.01884(8) 0.39229(5)
O1_5 O 0.34560(19) 0.03436(28) 0.42134(18)
O3_5 O 0.31450(18) 0.00872(25) 0.34690(16)
O4_5 O 0.2898(2) 0.0588(3) 0.38868(18)
O2_5 O 0.26088(17) 0.97460(25) 0.41034(17)
O2_6 O 0.02540(25) 0.28627(18) 0.41034(17)
Cl1_6 Cl 0.98116(8) 0.28393(6) 0.39229(5)
O1_6 O 0.96564(28) 0.3112(2) 0.42134(18)
O3_6 O 0.99128(25) 0.30577(18) 0.34690(16)
O4_6 O 0.9412(3) 0.2309(2) 0.38868(18)
Cl1_7 Cl 0.38273(6) 0.03056(6) 0.72563(5)
O2_7 O 0.38039(18) 0.07246(17) 0.74368(17)
O3_7 O 0.36089(18) 0.01884(18) 0.68024(16)
O4_7 O 0.4357(2) 0.0436(2) 0.72202(18)
O1_7 O 0.3554(2) 0.98774(19) 0.75468(18)
O1_8 O 0.01226(19) 0.36770(28) 0.75468(18)
Cl1_8 Cl 0.96944(6) 0.35218(8) 0.72563(5)
O2_8 O 0.92754(17) 0.30794(25) 0.74368(17)
O3_8 O 0.98116(18) 0.34206(25) 0.68024(16)
O4_8 O 0.9564(2) 0.3922(3) 0.72202(18)
Cl1_9 Cl 0.64782(8) 0.61727(6) 0.72563(5)
O1_9 O 0.63230(28) 0.6446(2) 0.75468(18)
O2_9 O 0.69206(25) 0.61961(18) 0.74368(17)
O3_9 O 0.65794(25) 0.63911(18) 0.68024(16)
O4_9 O 0.6078(3) 0.5643(2) 0.72202(18)
Cl1_10 Cl 0.95060(6) 0.63611(6) 0.94104(5)
O1_10 O 0.9779(2) 0.67893(19) 0.91199(18)
O2_10 O 0.95294(18) 0.59421(17) 0.92299(17)
O3_10 O 0.97244(18) 0.64783(18) 0.98643(16)
O4_10 O 0.8976(2) 0.6231(2) 0.94465(18)
Cl1_11 Cl 0.36389(6) 0.31449(8) 0.94104(5)
O1_11 O 0.32107(19) 0.29897(28) 0.91199(18)
O2_11 O 0.40579(17) 0.35873(25) 0.92299(17)
O3_11 O 0.35217(18) 0.32461(25) 0.98643(16)
O4_11 O 0.3769(2) 0.2745(3) 0.94465(18)
Cl1_12 Cl 0.68551(8) 0.04940(6) 0.94104(5)
O1_12 O 0.70103(28) 0.0221(2) 0.91199(18)
O2_12 O 0.64127(25) 0.04706(18) 0.92299(17)
O3_12 O 0.67539(25) 0.02756(18) 0.98643(16)
O4_12 O 0.7255(3) 0.1024(2) 0.94465(18)
Cl1_13 Cl 0.28393(6) 0.30278(6) 0.60771(5)
O1_13 O 0.3112(2) 0.34560(19) 0.57866(18)
O2_13 O 0.28627(18) 0.26088(17) 0.58966(17)
O3_13 O 0.30577(18) 0.31450(18) 0.65310(16)
O4_13 O 0.2309(2) 0.2898(2) 0.61132(18)
O2_14 O 0.73912(17) 0.02540(25) 0.58966(17)
Cl1_14 Cl 0.69722(6) 0.98116(8) 0.60771(5)
O1_14 O 0.65440(19) 0.96564(28) 0.57866(18)
O3_14 O 0.68550(18) 0.99128(25) 0.65310(16)
O4_14 O 0.7102(2) 0.9412(3) 0.61132(18)
Cl1_15 Cl 0.01884(8) 0.71607(6) 0.60771(5)
O1_15 O 0.03436(28) 0.6888(2) 0.57866(18)
O3_15 O 0.00872(25) 0.69423(18) 0.65310(16)
O4_15 O 0.0588(3) 0.7691(2) 0.61132(18)
O2_15 O 0.97460(25) 0.71373(18) 0.58966(17)
O1_16 O 0.6446(2) 0.01226(19) 0.24532(18)
Cl1_16 Cl 0.61727(6) 0.96944(6) 0.27437(5)
O2_16 O 0.61961(18) 0.92754(17) 0.25632(17)
O3_16 O 0.63911(18) 0.98116(18) 0.31976(16)
O4_16 O 0.5643(2) 0.9564(2) 0.27798(18)
Cl1_17 Cl 0.03056(6) 0.64782(8) 0.27437(5)
O2_17 O 0.07246(17) 0.69206(25) 0.25632(17)
O3_17 O 0.01884(18) 0.65794(25) 0.31976(16)
O4_17 O 0.0436(2) 0.6078(3) 0.27798(18)
O1_17 O 0.98774(19) 0.63230(28) 0.24532(18)
Cl1_18 Cl 0.35218(8) 0.38273(6) 0.27437(5)
O1_18 O 0.36770(28) 0.3554(2) 0.24532(18)
O2_18 O 0.30794(25) 0.38039(18) 0.25632(17)
O3_18 O 0.34206(25) 0.36089(18) 0.31976(16)
O4_18 O 0.3922(3) 0.4357(2) 0.27798(18)
Cl2 Cl 0.06445(14) 0.91070(14) 0.76840(13)
O5 O 0.0651(4) 0.8837(5) 0.8030(3)
O6 O 0.0568(6) 0.9512(5) 0.7805(6)
O7 O 0.0247(4) 0.8783(4) 0.7337(4)
O8 O 0.1117(4) 0.9311(3) 0.7478(3)
Cl2_2 Cl 0.08930(14) 0.15375(20) 0.76840(13)
O5_2 O 0.1163(5) 0.1814(6) 0.8030(3)
O6_2 O 0.0488(5) 0.1056(8) 0.7805(6)
O7_2 O 0.1217(4) 0.1464(6) 0.7337(4)
O8_2 O 0.0689(3) 0.1806(5) 0.7478(3)
Cl2_3 Cl 0.84625(20) 0.93555(14) 0.76840(13)
O5_3 O 0.8186(6) 0.9349(4) 0.8030(3)
O6_3 O 0.8944(8) 0.9432(6) 0.7805(6)
O7_3 O 0.8536(6) 0.9753(4) 0.7337(4)
O8_3 O 0.8194(5) 0.8883(4) 0.7478(3)
Cl2_4 Cl 0.73112(14) 0.24403(14) 0.10173(13)
O5_4 O 0.7318(4) 0.2170(5) 0.1363(3)
O6_4 O 0.7235(6) 0.2845(5) 0.1138(6)
O7_4 O 0.6914(4) 0.2116(4) 0.0670(4)
O8_4 O 0.7784(4) 0.2644(3) 0.0811(3)
Cl2_5 Cl 0.75597(14) 0.48708(20) 0.10173(13)
O5_5 O 0.7830(5) 0.5147(6) 0.1363(3)
O6_5 O 0.7155(5) 0.4389(8) 0.1138(6)
O7_5 O 0.7884(4) 0.4797(6) 0.0670(4)
O8_5 O 0.7356(3) 0.5139(5) 0.0811(3)
Cl2_6 Cl 0.51292(20) 0.26888(14) 0.10173(13)
O5_6 O 0.4853(6) 0.2682(4) 0.1363(3)
O6_6 O 0.5611(8) 0.2765(6) 0.1138(6)
O7_6 O 0.5203(6) 0.3086(4) 0.0670(4)
O8_6 O 0.4861(5) 0.2216(4) 0.0811(3)
Cl2_7 Cl 0.39778(14) 0.57737(14) 0.43507(13)
O5_7 O 0.3984(4) 0.5504(5) 0.4697(3)
O6_7 O 0.3901(6) 0.6179(5) 0.4472(6)
O7_7 O 0.3580(4) 0.5450(4) 0.4004(4)
O8_7 O 0.4450(4) 0.5978(3) 0.4145(3)
Cl2_8 Cl 0.42263(14) 0.82042(20) 0.43507(13)
O5_8 O 0.4496(5) 0.8481(6) 0.4697(3)
O6_8 O 0.3821(5) 0.7723(8) 0.4472(6)
O7_8 O 0.4550(4) 0.8131(6) 0.4004(4)
O8_8 O 0.4022(3) 0.8473(5) 0.4145(3)
Cl2_9 Cl 0.17958(20) 0.60222(14) 0.43507(13)
O5_9 O 0.1519(6) 0.6016(4) 0.4697(3)
O6_9 O 0.2277(8) 0.6099(6) 0.4472(6)
O7_9 O 0.1869(6) 0.6420(4) 0.4004(4)
O8_9 O 0.1527(5) 0.5550(4) 0.4145(3)
Cl2_10 Cl 0.93555(14) 0.08930(14) 0.23160(13)
O5_10 O 0.9349(4) 0.1163(5) 0.1970(3)
O6_10 O 0.9432(6) 0.0488(5) 0.2195(6)
O7_10 O 0.9753(4) 0.1217(4) 0.2663(4)
O8_10 O 0.8883(4) 0.0689(3) 0.2522(3)
Cl2_11 Cl 0.91070(14) 0.84625(20) 0.23160(13)
O5_11 O 0.8837(5) 0.8186(6) 0.1970(3)
O6_11 O 0.9512(5) 0.8944(8) 0.2195(6)
O7_11 O 0.8783(4) 0.8536(6) 0.2663(4)
O8_11 O 0.9311(3) 0.8194(5) 0.2522(3)
Cl2_12 Cl 0.15375(20) 0.06445(14) 0.23160(13)
O5_12 O 0.1814(6) 0.0651(4) 0.1970(3)
O6_12 O 0.1056(8) 0.0568(6) 0.2195(6)
O7_12 O 0.1464(6) 0.0247(4) 0.2663(4)
O8_12 O 0.1806(5) 0.1117(4) 0.2522(3)
Cl2_13 Cl 0.26888(14) 0.75597(14) 0.89827(13)
O5_13 O 0.2682(4) 0.7830(5) 0.8637(3)
O6_13 O 0.2765(6) 0.7155(5) 0.8862(6)
O7_13 O 0.3086(4) 0.7884(4) 0.9330(4)
O8_13 O 0.2216(4) 0.7356(3) 0.9189(3)
Cl2_14 Cl 0.24403(14) 0.51292(20) 0.89827(13)
O5_14 O 0.2170(5) 0.4853(6) 0.8637(3)
O6_14 O 0.2845(5) 0.5611(8) 0.8862(6)
O7_14 O 0.2116(4) 0.5203(6) 0.9330(4)
O8_14 O 0.2644(3) 0.4861(5) 0.9189(3)
Cl2_15 Cl 0.48708(20) 0.73112(14) 0.89827(13)
O5_15 O 0.5147(6) 0.7318(4) 0.8637(3)
O6_15 O 0.4389(8) 0.7235(6) 0.8862(6)
O7_15 O 0.4797(6) 0.6914(4) 0.9330(4)
O8_15 O 0.5139(5) 0.7784(4) 0.9189(3)
Cl2_16 Cl 0.60222(14) 0.42263(14) 0.56493(13)
O5_16 O 0.6016(4) 0.4496(5) 0.5303(3)
O6_16 O 0.6099(6) 0.3821(5) 0.5528(6)
O7_16 O 0.6420(4) 0.4550(4) 0.5996(4)
O8_16 O 0.5550(4) 0.4022(3) 0.5855(3)
Cl2_17 Cl 0.57737(14) 0.17958(20) 0.56493(13)
O5_17 O 0.5504(5) 0.1519(6) 0.5303(3)
O6_17 O 0.6179(5) 0.2277(8) 0.5528(6)
O7_17 O 0.5450(4) 0.1869(6) 0.5996(4)
O8_17 O 0.5978(3) 0.1527(5) 0.5855(3)
Cl2_18 Cl 0.82042(20) 0.39778(14) 0.56493(13)
O5_18 O 0.8481(6) 0.3984(4) 0.5303(3)
O6_18 O 0.7723(8) 0.3901(6) 0.5528(6)
O7_18 O 0.8131(6) 0.3580(4) 0.5996(4)
O8_18 O 0.8473(5) 0.4450(4) 0.5855(3)
C1 C 0.0644(3) 0.5964(2) 0.6097(2)
H1 H 0.0328 0.5851 0.5967
C2 C 0.0818(3) 0.6324(3) 0.6450(2)
H2 H 0.0625 0.6466 0.6541
C3 C 0.1292(4) 0.6473(3) 0.6669(3)
H3 H 0.1394 0.6698 0.6911
C4 C 0.1593(3) 0.6289(3) 0.6528(3)
H4 H 0.1897 0.6388 0.6676
C5 C 0.1448(2) 0.5948(2) 0.6158(2)
C6 C 0.0954(2) 0.5781(2) 0.59450(19)
C7 C 0.11146(19) 0.53001(18) 0.54452(18)
C8 C 0.1590(2) 0.5441(2) 0.5634(2)
H5 H 0.1790 0.5319 0.5515
C9 C 0.1750(2) 0.5761(2) 0.5997(2)
H6 H 0.2057 0.5854 0.6135
C10 C 0.09353(19) 0.49652(18) 0.50412(17)
C11 C 0.09255(19) 0.4516(2) 0.45072(17)
C12 C 0.11042(18) 0.42570(19) 0.42285(17)
C13 C 0.0928(2) 0.4114(2) 0.37771(18)
H7 H 0.0692 0.4188 0.3654
C14 C 0.1115(2) 0.3862(2) 0.3524(2)
H8 H 0.1015 0.3784 0.3223
C15 C 0.1604(2) 0.3868(2) 0.41230(19)
H9 H 0.1837 0.3786 0.4237
C16 C 0.1456(2) 0.4122(2) 0.4393(2)
H10 H 0.1583 0.4209 0.4686
C17 C 0.1896(2) 0.4167(2) 0.2281(2)
C18 C 0.1409(2) 0.3814(3) 0.2112(2)
H11 H 0.1205 0.3512 0.2263
C19 C 0.1248(3) 0.3932(3) 0.1712(2)
H12 H 0.0933 0.3704 0.1593
C20 C 0.1553(3) 0.4392(3) 0.1487(3)
H13 H 0.1436 0.4471 0.1226
C21 C 0.2022(4) 0.4723(3) 0.1650(3)
H14 H 0.2225 0.5024 0.1499
C22 C 0.2199(3) 0.4606(3) 0.2051(2)
C23 C 0.2688(3) 0.4956(3) 0.2201(3)
H15 H 0.2893 0.5256 0.2048
C24 C 0.2847(3) 0.4818(3) 0.2606(2)
H16 H 0.3166 0.5028 0.2727
C25 C 0.2518(2) 0.4368(2) 0.28121(18)
C26 C 0.2657(2) 0.4211(2) 0.3229(2)
C27 C 0.3100(2) 0.4214(2) 0.37790(19)
C28 C 0.3560(2) 0.4395(2) 0.4064(2)
Cu1 Cu -0.0000 0.5000 0.5000
Cu2 Cu 0.1667 0.3333 0.3333
N1 N 0.05075(15) 0.45290(15) 0.44689(14)
N2 N 0.05282(16) 0.48285(15) 0.48298(14)
N3 N 0.07977(17) 0.54533(16) 0.55861(15)
N4 N 0.14367(18) 0.37256(19) 0.36974(17)
N5 N 0.23760(17) 0.38227(19) 0.34862(16)
N6 N 0.26674(18) 0.38379(19) 0.38513(16)
N7 N 0.20558(18) 0.4043(2) 0.26780(16)
O9 O 0.12076(13) 0.47886(14) 0.48639(12)
O10 O 0.31296(14) 0.44763(15) 0.33884(13)
C29 C 0.4027(2) 0.4678(2) 0.38791(18)
H17 H 0.4064 0.4758 0.3572
C30 C 0.3507(2) 0.4257(2) 0.4512(2)
H18 H 0.3189 0.4059 0.4639
C31 C 0.44492(19) 0.4847(2) 0.41591(18)
H19 H 0.4770 0.5048 0.4039
C32 C 0.3939(2) 0.4419(2) 0.47707(19)
H20 H 0.3910 0.4315 0.5071
N8 N 0.43941(15) 0.47193(15) 0.45991(14)
C49 C 0.2271(3) 0.8104(2) 0.2281(2)
C50 C 0.2405(4) 0.8591(2) 0.2112(2)
H31 H 0.2307 0.8795 0.2263
C51 C 0.2684(4) 0.8752(3) 0.1712(2)
H32 H 0.2771 0.9067 0.1593
C52 C 0.2839(4) 0.8447(3) 0.1487(3)
H33 H 0.3035 0.8564 0.1226
C53 C 0.2701(5) 0.7978(4) 0.1650(3)
H34 H 0.2799 0.7775 0.1499
C54 C 0.2407(4) 0.7801(3) 0.2051(2)
C55 C 0.2268(4) 0.7312(3) 0.2201(3)
H35 H 0.2363 0.7107 0.2048
C56 C 0.1971(4) 0.7153(3) 0.2606(2)
H36 H 0.1862 0.6834 0.2727
C57 C 0.1850(3) 0.7482(2) 0.28121(18)
C58 C 0.1554(3) 0.7343(2) 0.3229(2)
C59 C 0.1114(3) 0.6900(2) 0.37790(19)
C60 C 0.0835(3) 0.6440(2) 0.4064(2)
N13 N 0.14467(25) 0.76240(17) 0.34862(16)
N14 N 0.11705(26) 0.73326(18) 0.38513(16)
N15 N 0.19872(27) 0.79442(18) 0.26780(16)
O12 O 0.13467(21) 0.68704(14) 0.33884(13)
C61 C 0.0651(3) 0.5973(2) 0.38791(18)
H37 H 0.0694 0.5936 0.3572
C62 C 0.0750(3) 0.6493(2) 0.4512(2)
H38 H 0.0870 0.6811 0.4639
C63 C 0.03978(28) 0.55508(19) 0.41591(18)
H39 H 0.0278 0.5230 0.4039
C64 C 0.0480(3) 0.6061(2) 0.47707(19)
H40 H 0.0405 0.6090 0.5071
N16 N 0.03252(21) 0.56059(15) 0.45991(14)
Cu3 Cu 0.5000 0.5000 0.5000
Cu4 Cu 0.1666 0.8333 0.3333
N17 N 0.18966(18) 0.29411(19) 0.29693(17)
N18 N 0.09573(17) 0.28440(19) 0.31805(16)
N19 N 0.12775(18) 0.2624(2) 0.39887(16)
Cu1_2 Cu 1.0000 0.5000 0.5000
C33 C 0.9356(3) 0.4036(2) 0.3903(2)
H21 H 0.9672 0.4149 0.4033
C34 C 0.9182(3) 0.3676(3) 0.3550(2)
H22 H 0.9375 0.3534 0.3459
C35 C 0.8708(4) 0.3527(3) 0.3331(3)
H23 H 0.8606 0.3302 0.3089
C36 C 0.8407(3) 0.3711(3) 0.3472(3)
H24 H 0.8103 0.3612 0.3324
C37 C 0.8552(2) 0.4052(2) 0.3842(2)
C38 C 0.9046(2) 0.4219(2) 0.40550(19)
C39 C 0.88854(19) 0.46999(18) 0.45548(18)
C40 C 0.8410(2) 0.4559(2) 0.4366(2)
H25 H 0.8210 0.4681 0.4485
C41 C 0.8250(2) 0.4239(2) 0.4003(2)
H26 H 0.7943 0.4146 0.3865
C42 C 0.90647(19) 0.50348(18) 0.49588(17)
C43 C 0.90745(19) 0.5484(2) 0.54928(17)
C44 C 0.88958(18) 0.57430(19) 0.57715(17)
C45 C 0.9072(2) 0.5886(2) 0.62229(18)
H27 H 0.9308 0.5812 0.6346
C46 C 0.8885(2) 0.6138(2) 0.6476(2)
H28 H 0.8985 0.6216 0.6777
C47 C 0.8396(2) 0.6132(2) 0.58770(19)
H29 H 0.8163 0.6214 0.5763
C48 C 0.8544(2) 0.5878(2) 0.5607(2)
H30 H 0.8417 0.5791 0.5314
N9 N 0.94925(15) 0.54710(15) 0.55311(14)
N10 N 0.94718(16) 0.51715(15) 0.51702(14)
N11 N 0.92023(17) 0.45467(16) 0.44139(15)
N12 N 0.85633(18) 0.62744(19) 0.63026(17)
O11 O 0.87924(13) 0.52114(14) 0.51361(12)
Cu5 Cu 0.8334 0.6666 0.6666
N20 N 0.96748(21) 0.43941(15) 0.54009(14)
Cu3_2 Cu 0.5000 0.0000 0.5000
C1_2 C 0.4036(2) 0.4680(4) 0.6097(2)
H1_2 H 0.4149 0.4477 0.5967
C2_2 C 0.3676(3) 0.4494(4) 0.6450(2)
H2_2 H 0.3534 0.4159 0.6541
C3_2 C 0.3527(3) 0.4819(5) 0.6669(3)
H3_2 H 0.3302 0.4696 0.6911
C4_2 C 0.3711(3) 0.5304(4) 0.6528(3)
H4_2 H 0.3612 0.5509 0.6676
C5_2 C 0.4052(2) 0.5500(3) 0.6158(2)
C6_2 C 0.4219(2) 0.5173(3) 0.59450(19)
C7_2 C 0.46999(18) 0.58145(26) 0.54452(18)
C8_2 C 0.4559(2) 0.6149(3) 0.5634(2)
H5_2 H 0.4681 0.6471 0.5515
C9_2 C 0.4239(2) 0.5989(3) 0.5997(2)
H6_2 H 0.4146 0.6203 0.6135
C10_2 C 0.50348(18) 0.59701(26) 0.50412(17)
C11_2 C 0.5484(2) 0.64095(28) 0.45072(17)
C12_2 C 0.57430(19) 0.68472(26) 0.42285(17)
C13_2 C 0.5886(2) 0.6814(3) 0.37771(18)
H7_2 H 0.5812 0.6504 0.3654
C14_2 C 0.6138(2) 0.7253(3) 0.3524(2)
H8_2 H 0.6216 0.7231 0.3223
C15_2 C 0.6132(2) 0.7736(3) 0.41230(19)
H9_2 H 0.6214 0.8051 0.4237
C16_2 C 0.5878(2) 0.7334(3) 0.4393(2)
H10_2 H 0.5791 0.7374 0.4686
C17_2 C 0.5833(2) 0.7729(3) 0.2281(2)
C18_2 C 0.6186(3) 0.7595(4) 0.2112(2)
H11_2 H 0.6488 0.7693 0.2263
C19_2 C 0.6068(3) 0.7316(4) 0.1712(2)
H12_2 H 0.6296 0.7229 0.1593
C20_2 C 0.5608(3) 0.7161(4) 0.1487(3)
H13_2 H 0.5529 0.6965 0.1226
C21_2 C 0.5277(3) 0.7299(5) 0.1650(3)
H14_2 H 0.4976 0.7201 0.1499
C22_2 C 0.5394(3) 0.7593(4) 0.2051(2)
C23_2 C 0.5044(3) 0.7732(4) 0.2201(3)
H15_2 H 0.4744 0.7637 0.2048
C24_2 C 0.5182(3) 0.8029(4) 0.2606(2)
H16_2 H 0.4972 0.8138 0.2727
C25_2 C 0.5632(2) 0.8150(3) 0.28121(18)
C26_2 C 0.5789(2) 0.8446(3) 0.3229(2)
C27_2 C 0.5786(2) 0.8886(3) 0.37790(19)
C28_2 C 0.5605(2) 0.9165(3) 0.4064(2)
Cu2_2 Cu 0.6667 0.8334 0.3333
N1_2 N 0.54710(15) 0.59785(21) 0.44689(14)
N2_2 N 0.51715(15) 0.56997(22) 0.48298(14)
N3_2 N 0.45467(16) 0.53444(23) 0.55861(15)
N4_2 N 0.62744(19) 0.77111(26) 0.36974(17)
N5_2 N 0.61773(19) 0.85533(25) 0.34862(16)
N6_2 N 0.61621(19) 0.88295(26) 0.38513(16)
N7_2 N 0.5957(2) 0.80128(27) 0.26780(16)
O9_2 O 0.52114(14) 0.64190(19) 0.48639(12)
O10_2 O 0.55237(15) 0.86533(21) 0.33884(13)
C29_2 C 0.5322(2) 0.9349(3) 0.38791(18)
H17_2 H 0.5242 0.9306 0.3572
C30_2 C 0.5743(2) 0.9250(3) 0.4512(2)
H18_2 H 0.5941 0.9130 0.4639
C31_2 C 0.5153(2) 0.96022(28) 0.41591(18)
H19_2 H 0.4952 0.9722 0.4039
C32_2 C 0.5581(2) 0.9520(3) 0.47707(19)
H20_2 H 0.5685 0.9595 0.5071
N8_2 N 0.52807(15) 0.96748(21) 0.45991(14)
C33_2 C 0.5964(2) 0.5320(4) 0.3903(2)
H21_2 H 0.5851 0.5523 0.4033
C34_2 C 0.6324(3) 0.5506(4) 0.3550(2)
H22_2 H 0.6466 0.5841 0.3459
C35_2 C 0.6473(3) 0.5181(5) 0.3331(3)
H23_2 H 0.6698 0.5304 0.3089
C36_2 C 0.6289(3) 0.4696(4) 0.3472(3)
H24_2 H 0.6388 0.4491 0.3324
C37_2 C 0.5948(2) 0.4500(3) 0.3842(2)
C38_2 C 0.5781(2) 0.4827(3) 0.40550(19)
C39_2 C 0.53001(18) 0.41855(26) 0.45548(18)
C40_2 C 0.5441(2) 0.3851(3) 0.4366(2)
H25_2 H 0.5319 0.3529 0.4485
C41_2 C 0.5761(2) 0.4011(3) 0.4003(2)
H26_2 H 0.5854 0.3797 0.3865
C42_2 C 0.49652(18) 0.40299(26) 0.49588(17)
C43_2 C 0.4516(2) 0.35905(28) 0.54928(17)
C44_2 C 0.42570(19) 0.31528(26) 0.57715(17)
C45_2 C 0.4114(2) 0.3186(3) 0.62229(18)
H27_2 H 0.4188 0.3496 0.6346
C46_2 C 0.3862(2) 0.2747(3) 0.6476(2)
H28_2 H 0.3784 0.2769 0.6777
C47_2 C 0.3868(2) 0.2264(3) 0.58770(19)
H29_2 H 0.3786 0.1949 0.5763
C48_2 C 0.4122(2) 0.2666(3) 0.5607(2)
H30_2 H 0.4209 0.2626 0.5314
N9_2 N 0.45290(15) 0.40215(21) 0.55311(14)
N10_2 N 0.48285(15) 0.43003(22) 0.51702(14)
N11_2 N 0.54533(16) 0.46556(23) 0.44139(15)
N12_2 N 0.37256(19) 0.22889(26) 0.63026(17)
O11_2 O 0.47886(14) 0.35810(19) 0.51361(12)
Cu3_3 Cu 0.5000 1.0000 0.5000
Cu5_2 Cu 0.3334 0.1667 0.6666
N17_2 N 0.70589(19) 0.89556(26) 0.29693(17)
N18_2 N 0.71560(19) 0.81134(25) 0.31805(16)
N19_2 N 0.7376(2) 0.86539(27) 0.39887(16)
N20_2 N 0.56059(15) 0.52807(26) 0.54009(14)
C33_3 C 0.4680(4) 0.0644(3) 0.3903(2)
H21_3 H 0.4477 0.0328 0.4033
C34_3 C 0.4494(4) 0.0818(3) 0.3550(2)
H22_3 H 0.4159 0.0625 0.3459
C35_3 C 0.4819(5) 0.1292(4) 0.3331(3)
H23_3 H 0.4696 0.1394 0.3089
C36_3 C 0.5304(4) 0.1593(3) 0.3472(3)
H24_3 H 0.5509 0.1897 0.3324
C37_3 C 0.5500(3) 0.1448(2) 0.3842(2)
C38_3 C 0.5173(3) 0.0954(2) 0.40550(19)
C39_3 C 0.58145(26) 0.11146(19) 0.45548(18)
C40_3 C 0.6149(3) 0.1590(2) 0.4366(2)
H25_3 H 0.6471 0.1790 0.4485
C41_3 C 0.5989(3) 0.1750(2) 0.4003(2)
H26_3 H 0.6203 0.2057 0.3865
C42_3 C 0.59701(26) 0.09353(19) 0.49588(17)
C43_3 C 0.64095(28) 0.09255(19) 0.54928(17)
C44_3 C 0.68472(26) 0.11042(18) 0.57715(17)
C45_3 C 0.6814(3) 0.0928(2) 0.62229(18)
H27_3 H 0.6504 0.0692 0.6346
C46_3 C 0.7253(3) 0.1115(2) 0.6476(2)
H28_3 H 0.7231 0.1015 0.6777
C47_3 C 0.7736(3) 0.1604(2) 0.58770(19)
H29_3 H 0.8051 0.1837 0.5763
C48_3 C 0.7334(3) 0.1456(2) 0.5607(2)
H30_3 H 0.7374 0.1583 0.5314
N9_3 N 0.59785(21) 0.05075(15) 0.55311(14)
N10_3 N 0.56997(22) 0.05282(16) 0.51702(14)
N11_3 N 0.53444(23) 0.07977(17) 0.44139(15)
N12_3 N 0.77111(26) 0.14367(18) 0.63026(17)
O11_3 O 0.64190(19) 0.12076(13) 0.51361(12)
Cu5_3 Cu 0.8333 0.1666 0.6666
N20_3 N 0.47193(26) 0.03252(21) 0.54009(14)
C1_3 C 0.5320(4) 0.9356(3) 0.6097(2)
H1_3 H 0.5523 0.9672 0.5967
C2_3 C 0.5506(4) 0.9182(3) 0.6450(2)
H2_3 H 0.5841 0.9375 0.6541
C3_3 C 0.5181(5) 0.8708(4) 0.6669(3)
H3_3 H 0.5304 0.8606 0.6911
C4_3 C 0.4696(4) 0.8407(3) 0.6528(3)
H4_3 H 0.4491 0.8103 0.6676
C5_3 C 0.4500(3) 0.8552(2) 0.6158(2)
C6_3 C 0.4827(3) 0.9046(2) 0.59450(19)
C7_3 C 0.41855(26) 0.88854(19) 0.54452(18)
C8_3 C 0.3851(3) 0.8410(2) 0.5634(2)
H5_3 H 0.3529 0.8210 0.5515
C9_3 C 0.4011(3) 0.8250(2) 0.5997(2)
H6_3 H 0.3797 0.7943 0.6135
C10_3 C 0.40299(26) 0.90647(19) 0.50412(17)
C11_3 C 0.35905(28) 0.90745(19) 0.45072(17)
C12_3 C 0.31528(26) 0.88958(18) 0.42285(17)
C13_3 C 0.3186(3) 0.9072(2) 0.37771(18)
H7_3 H 0.3496 0.9308 0.3654
C14_3 C 0.2747(3) 0.8885(2) 0.3524(2)
H8_3 H 0.2769 0.8985 0.3223
C15_3 C 0.2264(3) 0.8396(2) 0.41230(19)
H9_3 H 0.1949 0.8163 0.4237
C16_3 C 0.2666(3) 0.8544(2) 0.4393(2)
H10_3 H 0.2626 0.8417 0.4686
N1_3 N 0.40215(21) 0.94925(15) 0.44689(14)
N2_3 N 0.43003(22) 0.94718(16) 0.48298(14)
N3_3 N 0.46556(23) 0.92023(17) 0.55861(15)
N4_3 N 0.22889(26) 0.85633(18) 0.36974(17)
O9_3 O 0.35810(19) 0.87924(13) 0.48639(12)
N17_3 N 0.10444(26) 0.81034(18) 0.29693(17)
N18_3 N 0.18866(25) 0.90427(17) 0.31805(16)
N19_3 N 0.13461(27) 0.87225(18) 0.39887(16)
C28_3 C 0.0227(2) 0.7728(2) 0.7397(2)
C29_3 C 0.0694(2) 0.8011(2) 0.72124(18)
H17_3 H 0.0731 0.8091 0.6905
C30_3 C 0.0174(2) 0.7590(2) 0.7845(2)
C31_3 C 0.11159(19) 0.8180(2) 0.74924(18)
H19_3 H 0.1437 0.8381 0.7372
C32_3 C 0.0606(2) 0.7752(2) 0.81040(19)
H20_3 H 0.0577 0.7648 0.8404
N8_3 N 0.10608(15) 0.80526(15) 0.79324(14)
Cu3_4 Cu 0.1667 0.8333 0.8333
H3_4 H 0.8061 0.0031 0.0244
C49_2 C 0.8938(3) 0.1437(2) 0.5614(2)
C50_2 C 0.9072(4) 0.1924(2) 0.5445(2)
H31_2 H 0.8974 0.2128 0.5596
C51_2 C 0.9351(4) 0.2085(3) 0.5045(2)
H32_2 H 0.9438 0.2400 0.4926
C52_2 C 0.9506(4) 0.1780(3) 0.4820(3)
H33_2 H 0.9702 0.1897 0.4559
C53_2 C 0.9368(5) 0.1311(4) 0.4983(3)
H34_2 H 0.9466 0.1108 0.4832
C54_2 C 0.9074(4) 0.1134(3) 0.5384(2)
C55_2 C 0.8935(4) 0.0645(3) 0.5534(3)
H35_2 H 0.9030 0.0440 0.5381
C56_2 C 0.8638(4) 0.0486(3) 0.5939(2)
H36_2 H 0.8529 0.0167 0.6060
C57_2 C 0.8517(3) 0.0815(2) 0.61454(18)
C58_2 C 0.8221(3) 0.0676(2) 0.6562(2)
C59_2 C 0.7781(3) 0.0233(2) 0.71123(19)
N13_2 N 0.81134(25) 0.09573(17) 0.68195(16)
N14_2 N 0.78372(26) 0.06659(18) 0.71846(16)
N15_2 N 0.86539(27) 0.12775(18) 0.60113(16)
O12_2 O 0.80134(21) 0.02037(14) 0.67217(13)
H38_2 H 0.7537 0.0144 0.7972
C3_4 C 0.7959(4) 0.9806(3) 0.0002(3)
H4_4 H 0.8564 0.9721 0.0009
H28_4 H 0.5652 0.9549 0.0110
Cu5_4 Cu 0.5000 1.0000 -0.0000
C1_4 C 0.7311(3) 0.9297(2) 0.9430(2)
H1_4 H 0.6995 0.9184 0.9300
C2_4 C 0.7485(3) 0.9657(3) 0.9783(2)
H2_4 H 0.7292 0.9799 0.9874
C4_4 C 0.8260(3) 0.9622(3) 0.9861(3)
C5_4 C 0.8115(2) 0.9281(2) 0.9491(2)
C6_4 C 0.7621(2) 0.9114(2) 0.92783(19)
C7_4 C 0.77813(19) 0.86334(18) 0.87785(18)
C8_4 C 0.8257(2) 0.8774(2) 0.8967(2)
H5_4 H 0.8457 0.8652 0.8848
C9_4 C 0.8417(2) 0.9094(2) 0.9330(2)
H6_4 H 0.8724 0.9187 0.9468
C10_4 C 0.76020(19) 0.82985(18) 0.83745(17)
C11_4 C 0.75922(19) 0.7849(2) 0.78405(17)
C12_4 C 0.77709(18) 0.75903(19) 0.75618(17)
C13_4 C 0.7595(2) 0.7447(2) 0.71104(18)
H7_4 H 0.7359 0.7521 0.6987
C14_4 C 0.7782(2) 0.7195(2) 0.6857(2)
H8_4 H 0.7682 0.7117 0.6556
C15_4 C 0.8271(2) 0.7201(2) 0.74563(19)
H9_4 H 0.8504 0.7119 0.7570
C16_4 C 0.8123(2) 0.7455(2) 0.7726(2)
H10_4 H 0.8250 0.7542 0.8019
C17_3 C 0.8563(2) 0.7500(2) 0.5614(2)
C18_3 C 0.8076(2) 0.7147(3) 0.5445(2)
H11_3 H 0.7872 0.6845 0.5596
C19_3 C 0.7915(3) 0.7265(3) 0.5045(2)
H12_3 H 0.7600 0.7037 0.4926
C20_3 C 0.8220(3) 0.7725(3) 0.4820(3)
H13_3 H 0.8103 0.7804 0.4559
C21_3 C 0.8689(4) 0.8056(3) 0.4983(3)
H14_3 H 0.8892 0.8357 0.4832
C22_3 C 0.8866(3) 0.7939(3) 0.5384(2)
C23_3 C 0.9355(3) 0.8289(3) 0.5534(3)
H15_3 H 0.9560 0.8589 0.5381
C24_3 C 0.9514(3) 0.8151(3) 0.5939(2)
H16_3 H 0.9833 0.8361 0.6060
C25_3 C 0.9185(2) 0.7701(2) 0.61454(18)
C26_3 C 0.9324(2) 0.7544(2) 0.6562(2)
C27_3 C 0.9767(2) 0.7547(2) 0.71123(19)
Cu1_3 Cu 0.6667 0.8333 0.8333
N1_4 N 0.71742(15) 0.78623(15) 0.78022(14)
N2_4 N 0.71949(16) 0.81618(15) 0.81631(14)
N3_4 N 0.74644(17) 0.87866(16) 0.89194(15)
N4_4 N 0.81034(18) 0.70589(19) 0.70307(17)
N5_3 N 0.90427(17) 0.71560(19) 0.68195(16)
N6_3 N 0.93341(18) 0.71712(19) 0.71846(16)
N7_3 N 0.87225(18) 0.7376(2) 0.60113(16)
O9_4 O 0.78743(13) 0.81219(14) 0.81972(12)
O10_3 O 0.97963(14) 0.78096(15) 0.67217(13)
H18_3 H 0.9856 0.7392 0.7972
C33_4 C 0.6023(3) 0.7369(2) 0.7236(2)
H21_4 H 0.6339 0.7482 0.7366
C34_4 C 0.5849(3) 0.7009(3) 0.6883(2)
H22_4 H 0.6042 0.6867 0.6792
C35_4 C 0.5375(4) 0.6860(3) 0.6664(3)
H23_4 H 0.5273 0.6635 0.6422
C36_4 C 0.5074(3) 0.7044(3) 0.6805(3)
H24_4 H 0.4770 0.6945 0.6657
C37_4 C 0.5219(2) 0.7385(2) 0.7175(2)
C38_4 C 0.5713(2) 0.7552(2) 0.73883(19)
C39_4 C 0.55521(19) 0.80332(18) 0.78881(18)
C40_4 C 0.5077(2) 0.7892(2) 0.7699(2)
H25_4 H 0.4877 0.8014 0.7818
C41_4 C 0.4917(2) 0.7572(2) 0.7336(2)
H26_4 H 0.4610 0.7479 0.7198
C42_4 C 0.57314(19) 0.83681(18) 0.82921(17)
C43_4 C 0.57412(19) 0.8817(2) 0.88261(17)
C44_4 C 0.55625(18) 0.90763(19) 0.91048(17)
C45_4 C 0.5739(2) 0.9219(2) 0.95562(18)
H27_4 H 0.5975 0.9145 0.9679
C46_4 C 0.5552(2) 0.9471(2) 0.9809(2)
C47_4 C 0.5063(2) 0.9465(2) 0.92103(19)
H29_4 H 0.4830 0.9547 0.9096
C48_4 C 0.5211(2) 0.9211(2) 0.8940(2)
H30_4 H 0.5084 0.9124 0.8647
N9_4 N 0.61592(15) 0.88043(15) 0.88644(14)
N10_4 N 0.61385(16) 0.85048(15) 0.85035(14)
N11_4 N 0.58690(17) 0.78800(16) 0.77472(15)
N12_4 N 0.52300(18) 0.96077(19) 0.96359(17)
O11_4 O 0.54591(13) 0.85447(14) 0.84694(12)
C60_2 C 0.7502(3) 0.9773(2) 0.7397(2)
C61_2 C 0.7318(3) 0.9306(2) 0.72124(18)
H37_2 H 0.7361 0.9269 0.6905
C62_2 C 0.7417(3) 0.9826(2) 0.7845(2)
C63_2 C 0.70645(28) 0.88841(19) 0.74924(18)
H39_2 H 0.6945 0.8563 0.7372
C64_2 C 0.7147(3) 0.9394(2) 0.81040(19)
H40_2 H 0.7072 0.9423 0.8404
N16_2 N 0.69919(21) 0.89392(15) 0.79324(14)
Cu5_5 Cu 0.5000 1.0000 1.0000
N18_4 N 0.76240(17) 0.61773(19) 0.65138(16)
N19_4 N 0.79442(18) 0.5957(2) 0.73220(16)
N20_4 N 0.63415(21) 0.77274(15) 0.87342(14)
C12_5 C 0.24097(19) 0.01805(26) 0.75618(17)
C13_5 C 0.2553(2) 0.0147(3) 0.71104(18)
C14_5 C 0.2805(2) 0.0586(3) 0.6857(2)
H8_5 H 0.2883 0.0564 0.6556
C15_5 C 0.2799(2) 0.1069(3) 0.74563(19)
H9_5 H 0.2881 0.1384 0.7570
C16_5 C 0.2545(2) 0.0667(3) 0.7726(2)
H10_5 H 0.2458 0.0707 0.8019
C17_4 C 0.2500(2) 0.1062(3) 0.5614(2)
C18_4 C 0.2853(3) 0.0928(4) 0.5445(2)
H11_4 H 0.3155 0.1026 0.5596
C19_4 C 0.2735(3) 0.0649(4) 0.5045(2)
H12_4 H 0.2963 0.0562 0.4926
C20_4 C 0.2275(3) 0.0494(4) 0.4820(3)
H13_4 H 0.2196 0.0298 0.4559
C21_4 C 0.1944(3) 0.0632(5) 0.4983(3)
H14_4 H 0.1643 0.0534 0.4832
C22_4 C 0.2061(3) 0.0926(4) 0.5384(2)
C23_4 C 0.1711(3) 0.1065(4) 0.5534(3)
H15_4 H 0.1411 0.0970 0.5381
C24_4 C 0.1849(3) 0.1362(4) 0.5939(2)
H16_4 H 0.1639 0.1471 0.6060
C25_4 C 0.2299(2) 0.1483(3) 0.61454(18)
C26_4 C 0.2456(2) 0.1779(3) 0.6562(2)
C27_4 C 0.2453(2) 0.2219(3) 0.71123(19)
C28_4 C 0.2272(2) 0.2498(3) 0.7397(2)
N4_5 N 0.29411(19) 0.10444(26) 0.70307(17)
N5_4 N 0.28440(19) 0.18866(25) 0.68195(16)
N6_4 N 0.28288(19) 0.21628(26) 0.71846(16)
N7_4 N 0.2624(2) 0.13461(27) 0.60113(16)
O10_4 O 0.21904(15) 0.19866(21) 0.67217(13)
C29_4 C 0.1989(2) 0.2682(3) 0.72124(18)
H17_4 H 0.1909 0.2639 0.6905
C30_4 C 0.2410(2) 0.2583(3) 0.7845(2)
H18_4 H 0.2608 0.2463 0.7972
C31_4 C 0.1820(2) 0.29355(28) 0.74924(18)
H19_4 H 0.1619 0.3055 0.7372
C32_4 C 0.2248(2) 0.2853(3) 0.81040(19)
H20_4 H 0.2352 0.2928 0.8404
N8_4 N 0.19474(15) 0.30081(21) 0.79324(14)
Cu3_5 Cu 0.1667 0.3333 0.8333
N18_5 N 0.38227(19) 0.14467(25) 0.65138(16)
N19_5 N 0.4043(2) 0.19872(27) 0.73220(16)
C3_5 C 0.0194(3) 0.8152(5) 0.0002(3)
H4_5 H 0.0279 0.8842 0.0009
H28_5 H 0.0451 0.6102 0.0110
Cu5_6 Cu 0.0000 0.5001 -0.0000
C1_5 C 0.0703(2) 0.8013(4) 0.9430(2)
H1_5 H 0.0816 0.7810 0.9300
C2_5 C 0.0343(3) 0.7827(4) 0.9783(2)
H2_5 H 0.0201 0.7492 0.9874
C4_5 C 0.0378(3) 0.8637(4) 0.9861(3)
C5_5 C 0.0719(2) 0.8833(3) 0.9491(2)
C6_5 C 0.0886(2) 0.8506(3) 0.92783(19)
C7_5 C 0.13666(18) 0.91478(26) 0.87785(18)
C8_5 C 0.1226(2) 0.9482(3) 0.8967(2)
H5_5 H 0.1348 0.9804 0.8848
C9_5 C 0.0906(2) 0.9322(3) 0.9330(2)
H6_5 H 0.0813 0.9536 0.9468
C10_5 C 0.17015(18) 0.93034(26) 0.83745(17)
C11_5 C 0.2151(2) 0.97428(28) 0.78405(17)
H7_5 H 0.2479 0.9837 0.6987
N1_5 N 0.21377(15) 0.93118(21) 0.78022(14)
N2_5 N 0.18382(15) 0.90330(22) 0.81631(14)
N3_5 N 0.12134(16) 0.86777(23) 0.89194(15)
O9_5 O 0.18781(14) 0.97523(19) 0.81972(12)
C33_5 C 0.2631(2) 0.8653(4) 0.7236(2)
H21_5 H 0.2518 0.8856 0.7366
C34_5 C 0.2991(3) 0.8839(4) 0.6883(2)
H22_5 H 0.3133 0.9174 0.6792
C35_5 C 0.3140(3) 0.8514(5) 0.6664(3)
H23_5 H 0.3365 0.8637 0.6422
C36_5 C 0.2956(3) 0.8029(4) 0.6805(3)
H24_5 H 0.3055 0.7824 0.6657
C37_5 C 0.2615(2) 0.7833(3) 0.7175(2)
C38_5 C 0.2448(2) 0.8160(3) 0.73883(19)
C39_5 C 0.19668(18) 0.75188(26) 0.78881(18)
C40_5 C 0.2108(2) 0.7184(3) 0.7699(2)
H25_5 H 0.1986 0.6862 0.7818
C41_5 C 0.2428(2) 0.7344(3) 0.7336(2)
H26_5 H 0.2521 0.7130 0.7198
C42_5 C 0.16319(18) 0.73632(26) 0.82921(17)
C43_5 C 0.1183(2) 0.69238(28) 0.88261(17)
C44_5 C 0.09237(19) 0.64861(26) 0.91048(17)
C45_5 C 0.0781(2) 0.6519(3) 0.95562(18)
H27_5 H 0.0855 0.6829 0.9679
C46_5 C 0.0529(2) 0.6080(3) 0.9809(2)
C47_5 C 0.0535(2) 0.5597(3) 0.92103(19)
H29_5 H 0.0453 0.5282 0.9096
C48_5 C 0.0789(2) 0.5999(3) 0.8940(2)
H30_5 H 0.0876 0.5959 0.8647
N9_5 N 0.11957(15) 0.73548(21) 0.88644(14)
N10_5 N 0.14952(15) 0.76336(22) 0.85035(14)
N11_5 N 0.21200(16) 0.79889(23) 0.77472(15)
N12_5 N 0.03923(19) 0.56222(26) 0.96359(17)
O11_5 O 0.14553(14) 0.69143(19) 0.84694(12)
Cu5_7 Cu 0.0000 0.5001 1.0000
N20_5 N 0.22726(15) 0.86140(26) 0.87342(14)
H3_5 H 0.9969 0.8029 0.0244
C3_6 C 0.1848(5) 0.2041(4) 0.0002(3)
H3_6 H 0.1971 0.1939 0.0244
H4_6 H 0.1158 0.1436 0.0009
H28_6 H 0.3898 0.4348 0.0110
Cu5_8 Cu 0.4999 0.5000 -0.0000
C1_6 C 0.1987(4) 0.2689(3) 0.9430(2)
H1_6 H 0.2190 0.3005 0.9300
C2_6 C 0.2173(4) 0.2515(3) 0.9783(2)
H2_6 H 0.2508 0.2708 0.9874
C4_6 C 0.1363(4) 0.1740(3) 0.9861(3)
C5_6 C 0.1167(3) 0.1885(2) 0.9491(2)
C6_6 C 0.1494(3) 0.2379(2) 0.92783(19)
C7_6 C 0.08522(26) 0.22187(19) 0.87785(18)
C8_6 C 0.0518(3) 0.1743(2) 0.8967(2)
H5_6 H 0.0196 0.1543 0.8848
C9_6 C 0.0678(3) 0.1583(2) 0.9330(2)
H6_6 H 0.0464 0.1276 0.9468
C10_6 C 0.06966(26) 0.23980(19) 0.83745(17)
C11_6 C 0.02572(28) 0.24078(19) 0.78405(17)
H7_6 H 0.0163 0.2641 0.6987
N1_6 N 0.06882(21) 0.28258(15) 0.78022(14)
N2_6 N 0.09670(22) 0.28051(16) 0.81631(14)
N3_6 N 0.13223(23) 0.25356(17) 0.89194(15)
O9_6 O 0.02477(19) 0.21257(13) 0.81972(12)
C33_6 C 0.1347(4) 0.3977(3) 0.7236(2)
H21_6 H 0.1144 0.3661 0.7366
C34_6 C 0.1161(4) 0.4151(3) 0.6883(2)
H22_6 H 0.0826 0.3958 0.6792
C35_6 C 0.1486(5) 0.4625(4) 0.6664(3)
H23_6 H 0.1363 0.4727 0.6422
C36_6 C 0.1971(4) 0.4926(3) 0.6805(3)
H24_6 H 0.2176 0.5230 0.6657
C37_6 C 0.2167(3) 0.4781(2) 0.7175(2)
C38_6 C 0.1840(3) 0.4287(2) 0.73883(19)
C39_6 C 0.24812(26) 0.44479(19) 0.78881(18)
C40_6 C 0.2816(3) 0.4923(2) 0.7699(2)
H25_6 H 0.3138 0.5123 0.7818
C41_6 C 0.2656(3) 0.5083(2) 0.7336(2)
H26_6 H 0.2870 0.5390 0.7198
C42_6 C 0.26368(26) 0.42686(19) 0.82921(17)
C43_6 C 0.30762(28) 0.42588(19) 0.88261(17)
C44_6 C 0.35139(26) 0.44375(18) 0.91048(17)
C45_6 C 0.3481(3) 0.4261(2) 0.95562(18)
H27_6 H 0.3171 0.4025 0.9679
C46_6 C 0.3920(3) 0.4448(2) 0.9809(2)
C47_6 C 0.4403(3) 0.4937(2) 0.92103(19)
H29_6 H 0.4718 0.5170 0.9096
C48_6 C 0.4001(3) 0.4789(2) 0.8940(2)
H30_6 H 0.4041 0.4916 0.8647
N9_6 N 0.26452(21) 0.38408(15) 0.88644(14)
N10_6 N 0.23664(22) 0.38615(16) 0.85035(14)
N11_6 N 0.20111(23) 0.41310(17) 0.77472(15)
N12_6 N 0.43778(26) 0.47700(18) 0.96359(17)
O11_6 O 0.30857(19) 0.45409(13) 0.84694(12)
Cu5_9 Cu 0.4999 0.5000 1.0000
N20_6 N 0.13860(26) 0.36585(21) 0.87342(14)
C12_6 C 0.98195(26) 0.22291(18) 0.75618(17)
C13_6 C 0.9853(3) 0.2405(2) 0.71104(18)
C14_6 C 0.9414(3) 0.2218(2) 0.6857(2)
H8_6 H 0.9436 0.2318 0.6556
C15_6 C 0.8931(3) 0.1729(2) 0.74563(19)
H9_6 H 0.8616 0.1496 0.7570
C16_6 C 0.9333(3) 0.1877(2) 0.7726(2)
H10_6 H 0.9293 0.1750 0.8019
N4_6 N 0.89556(26) 0.18966(18) 0.70307(17)
N18_6 N 0.85533(25) 0.23760(17) 0.65138(16)
N19_6 N 0.80128(27) 0.20558(18) 0.73220(16)
C1_7 C 0.3977(3) 0.2631(2) 0.2764(2)
H1_7 H 0.3661 0.2518 0.2634
C2_7 C 0.4151(3) 0.2991(3) 0.3117(2)
H2_7 H 0.3958 0.3133 0.3208
C3_7 C 0.4625(4) 0.3140(3) 0.3336(3)
H3_7 H 0.4727 0.3365 0.3578
C4_7 C 0.4926(3) 0.2956(3) 0.3195(3)
H4_7 H 0.5230 0.3055 0.3343
C5_7 C 0.4781(2) 0.2615(2) 0.2825(2)
C6_7 C 0.4287(2) 0.2448(2) 0.26117(19)
C7_7 C 0.44479(19) 0.19668(18) 0.21119(18)
C8_7 C 0.4923(2) 0.2108(2) 0.2301(2)
H5_7 H 0.5123 0.1986 0.2182
C9_7 C 0.5083(2) 0.2428(2) 0.2664(2)
H6_7 H 0.5390 0.2521 0.2802
C10_7 C 0.42686(19) 0.16319(18) 0.17079(17)
C11_7 C 0.42588(19) 0.1183(2) 0.11739(17)
C12_7 C 0.44375(18) 0.09237(19) 0.08952(17)
C13_7 C 0.4261(2) 0.0781(2) 0.04438(18)
H7_7 H 0.4025 0.0855 0.0321
C14_7 C 0.4448(2) 0.0529(2) 0.0191(2)
C15_7 C 0.4937(2) 0.0535(2) 0.07897(19)
H9_7 H 0.5170 0.0453 0.0904
C16_7 C 0.4789(2) 0.0789(2) 0.1060(2)
H10_7 H 0.4916 0.0876 0.1353
C27_5 C 0.6433(2) 0.0881(2) 0.04457(19)
C28_5 C 0.6893(2) 0.1062(2) 0.0731(2)
Cu1_4 Cu 0.3333 0.1667 0.1667
N1_7 N 0.38408(15) 0.11957(15) 0.11356(14)
N2_7 N 0.38615(16) 0.14952(15) 0.14965(14)
N3_7 N 0.41310(17) 0.21200(16) 0.22528(15)
N4_7 N 0.47700(18) 0.03923(19) 0.03641(17)
N5_5 N 0.57093(17) 0.04894(19) 0.01529(16)
N6_5 N 0.60007(18) 0.05046(19) 0.05180(16)
O9_7 O 0.45409(13) 0.14553(14) 0.15306(12)
O10_5 O 0.64629(14) 0.11430(15) 0.00551(13)
C29_5 C 0.7360(2) 0.1345(2) 0.05458(18)
H17_5 H 0.7397 0.1425 0.0239
C30_5 C 0.6840(2) 0.0924(2) 0.1179(2)
H18_5 H 0.6522 0.0726 0.1306
C31_5 C 0.77825(19) 0.1514(2) 0.08258(18)
H19_5 H 0.8103 0.1715 0.0706
C32_5 C 0.7272(2) 0.1086(2) 0.14374(19)
H20_5 H 0.7243 0.0982 0.1738
N8_5 N 0.77274(15) 0.13860(15) 0.12658(14)
C33_7 C 0.2689(3) 0.0703(2) 0.0570(2)
H21_7 H 0.3005 0.0816 0.0700
C34_7 C 0.2515(3) 0.0343(3) 0.0217(2)
H22_7 H 0.2708 0.0201 0.0126
C36_7 C 0.1740(3) 0.0378(3) 0.0139(3)
C37_7 C 0.1885(2) 0.0719(2) 0.0509(2)
C38_7 C 0.2379(2) 0.0886(2) 0.07217(19)
C39_7 C 0.22187(19) 0.13666(18) 0.12215(18)
C40_7 C 0.1743(2) 0.1226(2) 0.1033(2)
H25_7 H 0.1543 0.1348 0.1152
C41_7 C 0.1583(2) 0.0906(2) 0.0670(2)
H26_7 H 0.1276 0.0813 0.0532
C42_7 C 0.23980(19) 0.17015(18) 0.16255(17)
C43_7 C 0.24078(19) 0.2151(2) 0.21595(17)
C44_7 C 0.22291(18) 0.24097(19) 0.24382(17)
C45_7 C 0.2405(2) 0.2553(2) 0.28896(18)
H27_7 H 0.2641 0.2479 0.3013
C46_7 C 0.2218(2) 0.2805(2) 0.3143(2)
H28_7 H 0.2318 0.2883 0.3444
C47_7 C 0.1729(2) 0.2799(2) 0.25437(19)
H29_7 H 0.1496 0.2881 0.2430
C48_7 C 0.1877(2) 0.2545(2) 0.2274(2)
H30_7 H 0.1750 0.2458 0.1981
N9_7 N 0.28258(15) 0.21377(15) 0.21978(14)
N10_7 N 0.28051(16) 0.18382(15) 0.18369(14)
N11_7 N 0.25356(17) 0.12134(16) 0.10806(15)
O11_7 O 0.21257(13) 0.18781(14) 0.18028(12)
C59_3 C 0.4447(3) 0.3567(2) 0.04457(19)
C60_3 C 0.4168(3) 0.3107(2) 0.0731(2)
N13_3 N 0.47800(25) 0.42907(17) 0.01529(16)
N14_3 N 0.45038(26) 0.39993(18) 0.05180(16)
O12_3 O 0.46800(21) 0.35371(14) 0.00551(13)
C61_3 C 0.3984(3) 0.2640(2) 0.05458(18)
H37_3 H 0.4027 0.2603 0.0239
C62_3 C 0.4083(3) 0.3160(2) 0.1179(2)
H38_3 H 0.4203 0.3478 0.1306
C63_3 C 0.37311(28) 0.22175(19) 0.08258(18)
H39_3 H 0.3611 0.1897 0.0706
C64_3 C 0.3813(3) 0.2728(2) 0.14374(19)
H40_3 H 0.3738 0.2757 0.1738
N16_3 N 0.36585(21) 0.22726(15) 0.12658(14)
Cu3_6 Cu 0.8333 0.1667 0.1667
N20_7 N 0.30081(21) 0.10608(15) 0.20676(14)
H8_7 H 0.4348 0.0451 0.9890
C17_5 C 0.5229(2) 0.0834(2) 0.8948(2)
C18_5 C 0.4742(2) 0.0481(3) 0.8779(2)
H11_5 H 0.4538 0.0179 0.8930
C19_5 C 0.4581(3) 0.0599(3) 0.8379(2)
H12_5 H 0.4266 0.0371 0.8260
C20_5 C 0.4886(3) 0.1059(3) 0.8154(3)
H13_5 H 0.4769 0.1138 0.7893
C21_5 C 0.5355(4) 0.1390(3) 0.8317(3)
H14_5 H 0.5558 0.1691 0.8166
C22_5 C 0.5532(3) 0.1273(3) 0.8718(2)
C23_5 C 0.6021(3) 0.1623(3) 0.8868(3)
H15_5 H 0.6226 0.1923 0.8715
C24_5 C 0.6180(3) 0.1485(3) 0.9273(2)
H16_5 H 0.6499 0.1695 0.9394
C25_5 C 0.5851(2) 0.1035(2) 0.94788(18)
C26_5 C 0.5990(2) 0.0878(2) 0.9896(2)
N7_5 N 0.53891(18) 0.0710(2) 0.93447(16)
C35_7 C 0.2041(4) 0.0194(3) 0.9998(3)
H24_7 H 0.1436 0.0279 0.9991
C49_3 C 0.5604(3) 0.4771(2) 0.8948(2)
C50_3 C 0.5738(4) 0.5258(2) 0.8779(2)
H31_3 H 0.5640 0.5462 0.8930
C51_3 C 0.6017(4) 0.5419(3) 0.8379(2)
H32_3 H 0.6104 0.5734 0.8260
C52_3 C 0.6172(4) 0.5114(3) 0.8154(3)
H33_3 H 0.6368 0.5231 0.7893
C53_3 C 0.6034(5) 0.4645(4) 0.8317(3)
H34_3 H 0.6132 0.4442 0.8166
C54_3 C 0.5740(4) 0.4468(3) 0.8718(2)
C55_3 C 0.5601(4) 0.3979(3) 0.8868(3)
H35_3 H 0.5696 0.3774 0.8715
C56_3 C 0.5304(4) 0.3820(3) 0.9273(2)
H36_3 H 0.5195 0.3501 0.9394
C57_3 C 0.5183(3) 0.4149(2) 0.94788(18)
C58_3 C 0.4887(3) 0.4010(2) 0.9896(2)
N15_3 N 0.53205(27) 0.46109(18) 0.93447(16)
N19_7 N 0.46109(18) 0.9290(2) 0.06553(16)
H23_7 H 0.1939 0.9969 0.9756
N18_7 N 0.42907(17) 0.95106(19) 0.98471(16)
N19_8 N 0.0710(2) 0.53205(27) 0.06553(16)
H23_8 H 0.0031 0.1971 0.9756
N18_8 N 0.04894(19) 0.47800(25) 0.98471(16)
C1_8 C 0.7369(2) 0.1347(4) 0.2764(2)
H1_8 H 0.7482 0.1144 0.2634
C2_8 C 0.7009(3) 0.1161(4) 0.3117(2)
H2_8 H 0.6867 0.0826 0.3208
C3_8 C 0.6860(3) 0.1486(5) 0.3336(3)
H3_8 H 0.6635 0.1363 0.3578
C4_8 C 0.7044(3) 0.1971(4) 0.3195(3)
H4_8 H 0.6945 0.2176 0.3343
C5_8 C 0.7385(2) 0.2167(3) 0.2825(2)
C6_8 C 0.7552(2) 0.1840(3) 0.26117(19)
C7_8 C 0.80332(18) 0.24812(26) 0.21119(18)
C8_8 C 0.7892(2) 0.2816(3) 0.2301(2)
H5_8 H 0.8014 0.3138 0.2182
C9_8 C 0.7572(2) 0.2656(3) 0.2664(2)
H6_8 H 0.7479 0.2870 0.2802
C10_8 C 0.83681(18) 0.26368(26) 0.17079(17)
C11_8 C 0.8817(2) 0.30762(28) 0.11739(17)
C12_8 C 0.90763(19) 0.35139(26) 0.08952(17)
C13_8 C 0.9219(2) 0.3481(3) 0.04438(18)
H7_8 H 0.9145 0.3171 0.0321
C14_8 C 0.9471(2) 0.3920(3) 0.0191(2)
C15_8 C 0.9465(2) 0.4403(3) 0.07897(19)
H9_8 H 0.9547 0.4718 0.0904
C16_8 C 0.9211(2) 0.4001(3) 0.1060(2)
H10_8 H 0.9124 0.4041 0.1353
C27_6 C 0.9119(2) 0.5553(3) 0.04457(19)
C28_6 C 0.8938(2) 0.5832(3) 0.0731(2)
N1_8 N 0.88043(15) 0.26452(21) 0.11356(14)
N2_8 N 0.85048(15) 0.23664(22) 0.14965(14)
N3_8 N 0.78800(16) 0.20111(23) 0.22528(15)
N4_8 N 0.96077(19) 0.43778(26) 0.03641(17)
N5_6 N 0.95106(19) 0.52200(25) 0.01529(16)
N6_6 N 0.94954(19) 0.54962(26) 0.05180(16)
O9_8 O 0.85447(14) 0.30857(19) 0.15306(12)
O10_6 O 0.88570(15) 0.53200(21) 0.00551(13)
C29_6 C 0.8655(2) 0.6016(3) 0.05458(18)
H17_6 H 0.8575 0.5973 0.0239
C30_6 C 0.9076(2) 0.5917(3) 0.1179(2)
H18_6 H 0.9274 0.5797 0.1306
C31_6 C 0.8486(2) 0.62689(28) 0.08258(18)
H19_6 H 0.8285 0.6389 0.0706
C32_6 C 0.8914(2) 0.6187(3) 0.14374(19)
H20_6 H 0.9018 0.6262 0.1738
N8_6 N 0.86140(15) 0.63415(21) 0.12658(14)
C33_8 C 0.9297(2) 0.1987(4) 0.0570(2)
H21_8 H 0.9184 0.2190 0.0700
C34_8 C 0.9657(3) 0.2173(4) 0.0217(2)
H22_8 H 0.9799 0.2508 0.0126
C36_8 C 0.9622(3) 0.1363(4) 0.0139(3)
C37_8 C 0.9281(2) 0.1167(3) 0.0509(2)
C38_8 C 0.9114(2) 0.1494(3) 0.07217(19)
C39_8 C 0.86334(18) 0.08522(26) 0.12215(18)
C40_8 C 0.8774(2) 0.0518(3) 0.1033(2)
H25_8 H 0.8652 0.0196 0.1152
C41_8 C 0.9094(2) 0.0678(3) 0.0670(2)
H26_8 H 0.9187 0.0464 0.0532
C42_8 C 0.82985(18) 0.06966(26) 0.16255(17)
C43_8 C 0.7849(2) 0.02572(28) 0.21595(17)
H27_8 H 0.7521 0.0163 0.3013
N9_8 N 0.78623(15) 0.06882(21) 0.21978(14)
N10_8 N 0.81618(15) 0.09670(22) 0.18369(14)
N11_8 N 0.87866(16) 0.13223(23) 0.10806(15)
O11_8 O 0.81219(14) 0.02477(19) 0.18028(12)
Cu3_7 Cu 0.8333 0.6667 0.1667
N20_8 N 0.89392(15) 0.19474(26) 0.20676(14)
H8_8 H 0.9549 0.3898 0.9890
C17_6 C 0.9166(2) 0.4396(3) 0.8948(2)
C18_6 C 0.9519(3) 0.4262(4) 0.8779(2)
H11_6 H 0.9821 0.4360 0.8930
C19_6 C 0.9401(3) 0.3983(4) 0.8379(2)
H12_6 H 0.9629 0.3896 0.8260
C20_6 C 0.8941(3) 0.3828(4) 0.8154(3)
H13_6 H 0.8862 0.3632 0.7893
C21_6 C 0.8610(3) 0.3966(5) 0.8317(3)
H14_6 H 0.8309 0.3868 0.8166
C22_6 C 0.8727(3) 0.4260(4) 0.8718(2)
C23_6 C 0.8377(3) 0.4399(4) 0.8868(3)
H15_6 H 0.8077 0.4304 0.8715
C24_6 C 0.8515(3) 0.4696(4) 0.9273(2)
H16_6 H 0.8305 0.4805 0.9394
C25_6 C 0.8965(2) 0.4817(3) 0.94788(18)
C26_6 C 0.9122(2) 0.5113(3) 0.9896(2)
N7_6 N 0.9290(2) 0.46795(27) 0.93447(16)
C35_8 C 0.9806(3) 0.1848(5) 0.9998(3)
H24_8 H 0.9721 0.1158 0.9991
C44_8 C 0.75903(19) 0.98195(26) 0.24382(17)
C45_8 C 0.7447(2) 0.9853(3) 0.28896(18)
C46_8 C 0.7195(2) 0.9414(3) 0.3143(2)
H28_8 H 0.7117 0.9436 0.3444
C47_8 C 0.7201(2) 0.8931(3) 0.25437(19)
H29_8 H 0.7119 0.8616 0.2430
C48_8 C 0.7455(2) 0.9333(3) 0.2274(2)
H30_8 H 0.7542 0.9293 0.1981
C44_9 C 0.01805(26) 0.77709(18) 0.24382(17)
C45_9 C 0.0147(3) 0.7595(2) 0.28896(18)
C46_9 C 0.0586(3) 0.7782(2) 0.3143(2)
H28_9 H 0.0564 0.7682 0.3444
C47_9 C 0.1069(3) 0.8271(2) 0.25437(19)
H29_9 H 0.1384 0.8504 0.2430
C48_9 C 0.0667(3) 0.8123(2) 0.2274(2)
H30_9 H 0.0707 0.8250 0.1981
C1_9 C 0.8653(4) 0.6023(3) 0.2764(2)
H1_9 H 0.8856 0.6339 0.2634
C2_9 C 0.8839(4) 0.5849(3) 0.3117(2)
H2_9 H 0.9174 0.6042 0.3208
C3_9 C 0.8514(5) 0.5375(4) 0.3336(3)
H3_9 H 0.8637 0.5273 0.3578
C4_9 C 0.8029(4) 0.5074(3) 0.3195(3)
H4_9 H 0.7824 0.4770 0.3343
C5_9 C 0.7833(3) 0.5219(2) 0.2825(2)
C6_9 C 0.8160(3) 0.5713(2) 0.26117(19)
C7_9 C 0.75188(26) 0.55521(19) 0.21119(18)
C8_9 C 0.7184(3) 0.5077(2) 0.2301(2)
H5_9 H 0.6862 0.4877 0.2182
C9_9 C 0.7344(3) 0.4917(2) 0.2664(2)
H6_9 H 0.7130 0.4610 0.2802
C10_9 C 0.73632(26) 0.57314(19) 0.17079(17)
C11_9 C 0.69238(28) 0.57412(19) 0.11739(17)
C12_9 C 0.64861(26) 0.55625(18) 0.08952(17)
C13_9 C 0.6519(3) 0.5739(2) 0.04438(18)
H7_9 H 0.6829 0.5975 0.0321
C14_9 C 0.6080(3) 0.5552(2) 0.0191(2)
C15_9 C 0.5597(3) 0.5063(2) 0.07897(19)
H9_9 H 0.5282 0.4830 0.0904
C16_9 C 0.5999(3) 0.5211(2) 0.1060(2)
H10_9 H 0.5959 0.5084 0.1353
N1_9 N 0.73548(21) 0.61592(15) 0.11356(14)
N2_9 N 0.76336(22) 0.61385(16) 0.14965(14)
N3_9 N 0.79889(23) 0.58690(17) 0.22528(15)
N4_9 N 0.56222(26) 0.52300(18) 0.03641(17)
O9_9 O 0.69143(19) 0.54591(13) 0.15306(12)
C33_9 C 0.8013(4) 0.7311(3) 0.0570(2)
H21_9 H 0.7810 0.6995 0.0700
C34_9 C 0.7827(4) 0.7485(3) 0.0217(2)
H22_9 H 0.7492 0.7292 0.0126
C36_9 C 0.8637(4) 0.8260(3) 0.0139(3)
C37_9 C 0.8833(3) 0.8115(2) 0.0509(2)
C38_9 C 0.8506(3) 0.7621(2) 0.07217(19)
C39_9 C 0.91478(26) 0.77813(19) 0.12215(18)
C40_9 C 0.9482(3) 0.8257(2) 0.1033(2)
H25_9 H 0.9804 0.8457 0.1152
C41_9 C 0.9322(3) 0.8417(2) 0.0670(2)
H26_9 H 0.9536 0.8724 0.0532
C42_9 C 0.93034(26) 0.76020(19) 0.16255(17)
C43_9 C 0.97428(28) 0.75922(19) 0.21595(17)
H27_9 H 0.9837 0.7359 0.3013
N9_9 N 0.93118(21) 0.71742(15) 0.21978(14)
N10_9 N 0.90330(22) 0.71949(16) 0.18369(14)
N11_9 N 0.86777(23) 0.74644(17) 0.10806(15)
O11_9 O 0.97523(19) 0.78743(13) 0.18028(12)
N19_9 N 0.46795(27) 0.53891(18) 0.06553(16)
N20_9 N 0.80526(26) 0.69919(21) 0.20676(14)
H8_9 H 0.6102 0.5652 0.9890
C35_9 C 0.8152(5) 0.7959(4) 0.9998(3)
H23_9 H 0.8029 0.8061 0.9756
H24_9 H 0.8842 0.8564 0.9991
N18_9 N 0.52200(25) 0.57093(17) 0.98471(16)
C17_7 C 0.8104(2) 0.5833(2) 0.7719(2)
C18_7 C 0.8591(2) 0.6186(3) 0.7888(2)
H11_7 H 0.8795 0.6488 0.7737
C19_7 C 0.8752(3) 0.6068(3) 0.8288(2)
H12_7 H 0.9067 0.6296 0.8407
C20_7 C 0.8447(3) 0.5608(3) 0.8513(3)
H13_7 H 0.8564 0.5529 0.8774
C21_7 C 0.7978(4) 0.5277(3) 0.8350(3)
H14_7 H 0.7775 0.4976 0.8501
C22_7 C 0.7801(3) 0.5394(3) 0.7949(2)
C23_7 C 0.7312(3) 0.5044(3) 0.7799(3)
H15_7 H 0.7107 0.4744 0.7952
C24_7 C 0.7153(3) 0.5182(3) 0.7394(2)
H16_7 H 0.6834 0.4972 0.7273
C25_7 C 0.7482(2) 0.5632(2) 0.71879(18)
C26_7 C 0.7343(2) 0.5789(2) 0.6771(2)
C27_7 C 0.6900(2) 0.5786(2) 0.62210(19)
C28_7 C 0.6440(2) 0.5605(2) 0.5936(2)
N6_7 N 0.73326(18) 0.61621(19) 0.61487(16)
O10_7 O 0.68704(14) 0.55237(15) 0.66116(13)
C29_7 C 0.5973(2) 0.5322(2) 0.61209(18)
H17_7 H 0.5936 0.5242 0.6428
C30_7 C 0.6493(2) 0.5743(2) 0.5488(2)
H18_7 H 0.6811 0.5941 0.5361
C31_7 C 0.55508(19) 0.5153(2) 0.58409(18)
H19_7 H 0.5230 0.4952 0.5961
C32_7 C 0.6061(2) 0.5581(2) 0.52293(19)
H20_7 H 0.6090 0.5685 0.4929
C49_4 C 0.7729(3) 0.1896(2) 0.7719(2)
C50_4 C 0.7595(4) 0.1409(2) 0.7888(2)
H31_4 H 0.7693 0.1205 0.7737
C51_4 C 0.7316(4) 0.1248(3) 0.8288(2)
H32_4 H 0.7229 0.0933 0.8407
C52_4 C 0.7161(4) 0.1553(3) 0.8513(3)
H33_4 H 0.6965 0.1436 0.8774
C53_4 C 0.7299(5) 0.2022(4) 0.8350(3)
H34_4 H 0.7201 0.2225 0.8501
C54_4 C 0.7593(4) 0.2199(3) 0.7949(2)
C55_4 C 0.7732(4) 0.2688(3) 0.7799(3)
H35_4 H 0.7637 0.2893 0.7952
C56_4 C 0.8029(4) 0.2847(3) 0.7394(2)
H36_4 H 0.8138 0.3166 0.7273
C57_4 C 0.8150(3) 0.2518(2) 0.71879(18)
C58_4 C 0.8446(3) 0.2657(2) 0.6771(2)
C59_4 C 0.8886(3) 0.3100(2) 0.62210(19)
C60_4 C 0.9165(3) 0.3560(2) 0.5936(2)
N14_4 N 0.88295(26) 0.26674(18) 0.61487(16)
O12_4 O 0.86533(21) 0.31296(14) 0.66116(13)
C61_4 C 0.9349(3) 0.4027(2) 0.61209(18)
H37_4 H 0.9306 0.4064 0.6428
C62_4 C 0.9250(3) 0.3507(2) 0.5488(2)
H38_4 H 0.9130 0.3189 0.5361
C63_4 C 0.96022(28) 0.44492(19) 0.58409(18)
H39_4 H 0.9722 0.4770 0.5961
C64_4 C 0.9520(3) 0.3939(2) 0.52293(19)
H40_4 H 0.9595 0.3910 0.4929
C17_8 C 0.4167(2) 0.2271(3) 0.7719(2)
C18_8 C 0.3814(3) 0.2405(4) 0.7888(2)
H11_8 H 0.3512 0.2307 0.7737
C19_8 C 0.3932(3) 0.2684(4) 0.8288(2)
H12_8 H 0.3704 0.2771 0.8407
C20_8 C 0.4392(3) 0.2839(4) 0.8513(3)
H13_8 H 0.4471 0.3035 0.8774
C21_8 C 0.4723(3) 0.2701(5) 0.8350(3)
H14_8 H 0.5024 0.2799 0.8501
C22_8 C 0.4606(3) 0.2407(4) 0.7949(2)
C23_8 C 0.4956(3) 0.2268(4) 0.7799(3)
H15_8 H 0.5256 0.2363 0.7952
C24_8 C 0.4818(3) 0.1971(4) 0.7394(2)
H16_8 H 0.5028 0.1862 0.7273
C25_8 C 0.4368(2) 0.1850(3) 0.71879(18)
C26_8 C 0.4211(2) 0.1554(3) 0.6771(2)
C27_8 C 0.4214(2) 0.1114(3) 0.62210(19)
C28_8 C 0.4395(2) 0.0835(3) 0.5936(2)
N6_8 N 0.38379(19) 0.11705(26) 0.61487(16)
O10_8 O 0.44763(15) 0.13467(21) 0.66116(13)
C29_8 C 0.4678(2) 0.0651(3) 0.61209(18)
H17_8 H 0.4758 0.0694 0.6428
C30_8 C 0.4257(2) 0.0750(3) 0.5488(2)
H18_8 H 0.4059 0.0870 0.5361
C31_8 C 0.4847(2) 0.03978(28) 0.58409(18)
H19_8 H 0.5048 0.0278 0.5961
C32_8 C 0.4419(2) 0.0480(3) 0.52293(19)
H20_8 H 0.4315 0.0405 0.4929
C17_9 C 0.1437(2) 0.2500(2) 0.4386(2)
C18_9 C 0.1924(2) 0.2853(3) 0.4555(2)
H11_9 H 0.2128 0.3155 0.4404
C19_9 C 0.2085(3) 0.2735(3) 0.4955(2)
H12_9 H 0.2400 0.2963 0.5074
C20_9 C 0.1780(3) 0.2275(3) 0.5180(3)
H13_9 H 0.1897 0.2196 0.5441
C21_9 C 0.1311(4) 0.1944(3) 0.5017(3)
H14_9 H 0.1108 0.1643 0.5168
C22_9 C 0.1134(3) 0.2061(3) 0.4616(2)
C23_9 C 0.0645(3) 0.1711(3) 0.4466(3)
H15_9 H 0.0440 0.1411 0.4619
C24_9 C 0.0486(3) 0.1849(3) 0.4061(2)
H16_9 H 0.0167 0.1639 0.3940
C25_9 C 0.0815(2) 0.2299(2) 0.38546(18)
C26_9 C 0.0676(2) 0.2456(2) 0.3438(2)
C27_9 C 0.0233(2) 0.2453(2) 0.28877(19)
N6_9 N 0.06659(18) 0.28288(19) 0.28154(16)
O10_9 O 0.02037(14) 0.21904(15) 0.32783(13)
H18_9 H 0.0144 0.2608 0.2028
C60_5 C 0.2498(3) 0.0227(2) 0.2603(2)
C61_5 C 0.2682(3) 0.0694(2) 0.27876(18)
H37_5 H 0.2639 0.0731 0.3095
C62_5 C 0.2583(3) 0.0174(2) 0.2155(2)
C63_5 C 0.29355(28) 0.11159(19) 0.25076(18)
H39_5 H 0.3055 0.1437 0.2628
C64_5 C 0.2853(3) 0.0606(2) 0.18960(19)
H40_5 H 0.2928 0.0577 0.1596
Cu5_10 Cu 0.5000 0.0000 0.0000
Cu5_11 Cu 0.5000 0.0000 1.0000
C49_5 C 0.1062(3) 0.8563(2) 0.4386(2)
C50_5 C 0.0928(4) 0.8076(2) 0.4555(2)
H31_5 H 0.1026 0.7872 0.4404
C51_5 C 0.0649(4) 0.7915(3) 0.4955(2)
H32_5 H 0.0562 0.7600 0.5074
C52_5 C 0.0494(4) 0.8220(3) 0.5180(3)
H33_5 H 0.0298 0.8103 0.5441
C53_5 C 0.0632(5) 0.8689(4) 0.5017(3)
H34_5 H 0.0534 0.8892 0.5168
C54_5 C 0.0926(4) 0.8866(3) 0.4616(2)
C55_5 C 0.1065(4) 0.9355(3) 0.4466(3)
H35_5 H 0.0970 0.9560 0.4619
C56_5 C 0.1362(4) 0.9514(3) 0.4061(2)
H36_5 H 0.1471 0.9833 0.3940
C57_5 C 0.1483(3) 0.9185(2) 0.38546(18)
C58_5 C 0.1779(3) 0.9324(2) 0.3438(2)
C59_5 C 0.2219(3) 0.9767(2) 0.28877(19)
N14_5 N 0.21628(26) 0.93341(18) 0.28154(16)
O12_5 O 0.19866(21) 0.97963(14) 0.32783(13)
H38_5 H 0.2463 0.9856 0.2028
C28_9 C 0.9773(2) 0.2272(2) 0.2603(2)
C29_9 C 0.9306(2) 0.1989(2) 0.27876(18)
H17_9 H 0.9269 0.1909 0.3095
C30_9 C 0.9826(2) 0.2410(2) 0.2155(2)
C31_9 C 0.88841(19) 0.1820(2) 0.25076(18)
H19_9 H 0.8563 0.1619 0.2628
C32_9 C 0.9394(2) 0.2248(2) 0.18960(19)
H20_9 H 0.9423 0.2352 0.1596
Cu5_12 Cu 1.0000 0.4999 0.0000
Cu5_13 Cu 1.0000 0.4999 1.0000
C17_10 C 0.7500(2) 0.8938(3) 0.4386(2)
C18_10 C 0.7147(3) 0.9072(4) 0.4555(2)
H11_10 H 0.6845 0.8974 0.4404
C19_10 C 0.7265(3) 0.9351(4) 0.4955(2)
H12_10 H 0.7037 0.9438 0.5074
C20_10 C 0.7725(3) 0.9506(4) 0.5180(3)
H13_10 H 0.7804 0.9702 0.5441
C21_10 C 0.8056(3) 0.9368(5) 0.5017(3)
H14_10 H 0.8357 0.9466 0.5168
C22_10 C 0.7939(3) 0.9074(4) 0.4616(2)
C23_10 C 0.8289(3) 0.8935(4) 0.4466(3)
H15_10 H 0.8589 0.9030 0.4619
C24_10 C 0.8151(3) 0.8638(4) 0.4061(2)
H16_10 H 0.8361 0.8529 0.3940
C25_10 C 0.7701(2) 0.8517(3) 0.38546(18)
C26_10 C 0.7544(2) 0.8221(3) 0.3438(2)
C27_10 C 0.7547(2) 0.7781(3) 0.28877(19)
C28_10 C 0.7728(2) 0.7502(3) 0.2603(2)
N6_10 N 0.71712(19) 0.78372(26) 0.28154(16)
O10_10 O 0.78096(15) 0.80134(21) 0.32783(13)
C29_10 C 0.8011(2) 0.7318(3) 0.27876(18)
H17_10 H 0.8091 0.7361 0.3095
C30_10 C 0.7590(2) 0.7417(3) 0.2155(2)
H18_10 H 0.7392 0.7537 0.2028
C31_10 C 0.8180(2) 0.70645(28) 0.25076(18)
H19_10 H 0.8381 0.6945 0.2628
C32_10 C 0.7752(2) 0.7147(3) 0.18960(19)
H20_10 H 0.7648 0.7072 0.1596
C17_11 C 0.4771(2) 0.9166(2) 0.1052(2)
C18_11 C 0.5258(2) 0.9519(3) 0.1221(2)
H11_11 H 0.5462 0.9821 0.1070
C19_11 C 0.5419(3) 0.9401(3) 0.1621(2)
H12_11 H 0.5734 0.9629 0.1740
C20_11 C 0.5114(3) 0.8941(3) 0.1846(3)
H13_11 H 0.5231 0.8862 0.2107
C21_11 C 0.4645(4) 0.8610(3) 0.1683(3)
H14_11 H 0.4442 0.8309 0.1834
C22_11 C 0.4468(3) 0.8727(3) 0.1282(2)
C23_11 C 0.3979(3) 0.8377(3) 0.1132(3)
H15_11 H 0.3774 0.8077 0.1285
C24_11 C 0.3820(3) 0.8515(3) 0.0727(2)
H16_11 H 0.3501 0.8305 0.0606
C25_11 C 0.4149(2) 0.8965(2) 0.05212(18)
C26_11 C 0.4010(2) 0.9122(2) 0.0104(2)
C49_6 C 0.4396(3) 0.5229(2) 0.1052(2)
C50_6 C 0.4262(4) 0.4742(2) 0.1221(2)
H31_6 H 0.4360 0.4538 0.1070
C51_6 C 0.3983(4) 0.4581(3) 0.1621(2)
H32_6 H 0.3896 0.4266 0.1740
C52_6 C 0.3828(4) 0.4886(3) 0.1846(3)
H33_6 H 0.3632 0.4769 0.2107
C53_6 C 0.3966(5) 0.5355(4) 0.1683(3)
H34_6 H 0.3868 0.5558 0.1834
C54_6 C 0.4260(4) 0.5532(3) 0.1282(2)
C55_6 C 0.4399(4) 0.6021(3) 0.1132(3)
H35_6 H 0.4304 0.6226 0.1285
C56_6 C 0.4696(4) 0.6180(3) 0.0727(2)
H36_6 H 0.4805 0.6499 0.0606
C57_6 C 0.4817(3) 0.5851(2) 0.05212(18)
C58_6 C 0.5113(3) 0.5990(2) 0.0104(2)
C27_11 C 0.3567(2) 0.9119(2) 0.95543(19)
C28_11 C 0.3107(2) 0.8938(2) 0.9269(2)
N6_11 N 0.39993(18) 0.94954(19) 0.94820(16)
O10_11 O 0.35371(14) 0.88570(15) 0.99449(13)
C29_11 C 0.2640(2) 0.8655(2) 0.94542(18)
H17_11 H 0.2603 0.8575 0.9761
C30_11 C 0.3160(2) 0.9076(2) 0.8821(2)
H18_11 H 0.3478 0.9274 0.8694
C31_11 C 0.22175(19) 0.8486(2) 0.91742(18)
H19_11 H 0.1897 0.8285 0.9294
C32_11 C 0.2728(2) 0.8914(2) 0.85626(19)
H20_11 H 0.2757 0.9018 0.8262
C59_6 C 0.5553(3) 0.6433(2) 0.95543(19)
C60_6 C 0.5832(3) 0.6893(2) 0.9269(2)
N14_6 N 0.54962(26) 0.60007(18) 0.94820(16)
O12_6 O 0.53200(21) 0.64629(14) 0.99449(13)
C61_6 C 0.6016(3) 0.7360(2) 0.94542(18)
H37_6 H 0.5973 0.7397 0.9761
C62_6 C 0.5917(3) 0.6840(2) 0.8821(2)
H38_6 H 0.5797 0.6522 0.8694
C63_6 C 0.62689(28) 0.77825(19) 0.91742(18)
H39_6 H 0.6389 0.8103 0.9294
C64_6 C 0.6187(3) 0.7272(2) 0.85626(19)
H40_6 H 0.6262 0.7243 0.8262
C17_12 C 0.0834(2) 0.5604(3) 0.1052(2)
C18_12 C 0.0481(3) 0.5738(4) 0.1221(2)
H11_12 H 0.0179 0.5640 0.1070
C19_12 C 0.0599(3) 0.6017(4) 0.1621(2)
H12_12 H 0.0371 0.6104 0.1740
C20_12 C 0.1059(3) 0.6172(4) 0.1846(3)
H13_12 H 0.1138 0.6368 0.2107
C21_12 C 0.1390(3) 0.6034(5) 0.1683(3)
H14_12 H 0.1691 0.6132 0.1834
C22_12 C 0.1273(3) 0.5740(4) 0.1282(2)
C23_12 C 0.1623(3) 0.5601(4) 0.1132(3)
H15_12 H 0.1923 0.5696 0.1285
C24_12 C 0.1485(3) 0.5304(4) 0.0727(2)
H16_12 H 0.1695 0.5195 0.0606
C25_12 C 0.1035(2) 0.5183(3) 0.05212(18)
C26_12 C 0.0878(2) 0.4887(3) 0.0104(2)
C27_12 C 0.0881(2) 0.4447(3) 0.95543(19)
C28_12 C 0.1062(2) 0.4168(3) 0.9269(2)
N6_12 N 0.05046(19) 0.45038(26) 0.94820(16)
O10_12 O 0.11430(15) 0.46800(21) 0.99449(13)
C29_12 C 0.1345(2) 0.3984(3) 0.94542(18)
H17_12 H 0.1425 0.4027 0.9761
C30_12 C 0.0924(2) 0.4083(3) 0.8821(2)
H18_12 H 0.0726 0.4203 0.8694
C31_12 C 0.1514(2) 0.37311(28) 0.91742(18)
H19_12 H 0.1715 0.3611 0.9294
C32_12 C 0.1086(2) 0.3813(3) 0.85626(19)
H20_12 H 0.0982 0.3738 0.8262
loop_
_geom_bond_atom_site_label_1
_geom_bond_atom_site_label_2
_geom_bond_site_symmetry_1
_geom_bond_site_symmetry_2
Cl1 O1 1_555 1_555
O2 Cl1 1_555 1_555
O3 Cl1 1_555 1_555
O4 Cl1 1_555 1_555
Cl1_2 O1_2 1_555 1_555
O2_2 Cl1_2 1_555 1_555
O3_2 Cl1_2 1_555 1_555
O4_2 Cl1_2 1_555 1_555
Cl1_3 O1_3 1_555 1_555
O2_3 Cl1_3 1_555 1_555
O3_3 Cl1_3 1_555 1_555
O4_3 Cl1_3 1_555 1_555
Cl1_4 O1_4 1_555 1_555
O2_4 Cl1_4 1_555 1_555
O3_4 Cl1_4 1_555 1_555
O4_4 Cl1_4 1_555 1_555
Cl1_5 O1_5 1_555 1_555
O3_5 Cl1_5 1_555 1_555
O4_5 Cl1_5 1_555 1_555
Cl1_6 O1_6 1_555 1_555
O3_6 Cl1_6 1_555 1_555
O4_6 Cl1_6 1_555 1_555
O2_7 Cl1_7 1_555 1_555
O3_7 Cl1_7 1_555 1_555
O4_7 Cl1_7 1_555 1_555
O2_8 Cl1_8 1_555 1_555
O3_8 Cl1_8 1_555 1_555
O4_8 Cl1_8 1_555 1_555
Cl1_9 O1_9 1_555 1_555
O2_9 Cl1_9 1_555 1_555
O3_9 Cl1_9 1_555 1_555
O4_9 Cl1_9 1_555 1_555
Cl1_10 O1_10 1_555 1_555
O2_10 Cl1_10 1_555 1_555
O3_10 Cl1_10 1_555 1_555
O4_10 Cl1_10 1_555 1_555
Cl1_11 O1_11 1_555 1_555
O2_11 Cl1_11 1_555 1_555
O3_11 Cl1_11 1_555 1_555
O4_11 Cl1_11 1_555 1_555
Cl1_12 O1_12 1_555 1_555
O2_12 Cl1_12 1_555 1_555
O3_12 Cl1_12 1_555 1_555
O4_12 Cl1_12 1_555 1_555
Cl1_13 O1_13 1_555 1_555
O2_13 Cl1_13 1_555 1_555
O3_13 Cl1_13 1_555 1_555
O4_13 Cl1_13 1_555 1_555
Cl1_14 O1_14 1_555 1_555
O3_14 Cl1_14 1_555 1_555
O4_14 Cl1_14 1_555 1_555
Cl1_15 O1_15 1_555 1_555
O3_15 Cl1_15 1_555 1_555
O4_15 Cl1_15 1_555 1_555
O2_16 Cl1_16 1_555 1_555
O3_16 Cl1_16 1_555 1_555
O4_16 Cl1_16 1_555 1_555
O2_17 Cl1_17 1_555 1_555
O3_17 Cl1_17 1_555 1_555
O4_17 Cl1_17 1_555 1_555
Cl1_18 O1_18 1_555 1_555
O2_18 Cl1_18 1_555 1_555
O3_18 Cl1_18 1_555 1_555
O4_18 Cl1_18 1_555 1_555
Cl2 O5 1_555 1_555
O6 Cl2 1_555 1_555
O7 Cl2 1_555 1_555
O8 Cl2 1_555 1_555
Cl2_2 O5_2 1_555 1_555
O6_2 Cl2_2 1_555 1_555
O7_2 Cl2_2 1_555 1_555
O8_2 Cl2_2 1_555 1_555
Cl2_3 O5_3 1_555 1_555
O6_3 Cl2_3 1_555 1_555
O7_3 Cl2_3 1_555 1_555
O8_3 Cl2_3 1_555 1_555
Cl2_4 O5_4 1_555 1_555
O6_4 Cl2_4 1_555 1_555
O7_4 Cl2_4 1_555 1_555
O8_4 Cl2_4 1_555 1_555
Cl2_5 O5_5 1_555 1_555
O6_5 Cl2_5 1_555 1_555
O7_5 Cl2_5 1_555 1_555
O8_5 Cl2_5 1_555 1_555
Cl2_6 O5_6 1_555 1_555
O6_6 Cl2_6 1_555 1_555
O7_6 Cl2_6 1_555 1_555
O8_6 Cl2_6 1_555 1_555
Cl2_7 O5_7 1_555 1_555
O6_7 Cl2_7 1_555 1_555
O7_7 Cl2_7 1_555 1_555
O8_7 Cl2_7 1_555 1_555
Cl2_8 O5_8 1_555 1_555
O6_8 Cl2_8 1_555 1_555
O7_8 Cl2_8 1_555 1_555
O8_8 Cl2_8 1_555 1_555
Cl2_9 O5_9 1_555 1_555
O6_9 Cl2_9 1_555 1_555
O7_9 Cl2_9 1_555 1_555
O8_9 Cl2_9 1_555 1_555
Cl2_10 O5_10 1_555 1_555
O6_10 Cl2_10 1_555 1_555
O7_10 Cl2_10 1_555 1_555
O8_10 Cl2_10 1_555 1_555
Cl2_11 O5_11 1_555 1_555
O6_11 Cl2_11 1_555 1_555
O7_11 Cl2_11 1_555 1_555
O8_11 Cl2_11 1_555 1_555
Cl2_12 O5_12 1_555 1_555
O6_12 Cl2_12 1_555 1_555
O7_12 Cl2_12 1_555 1_555
O8_12 Cl2_12 1_555 1_555
Cl2_13 O5_13 1_555 1_555
O6_13 Cl2_13 1_555 1_555
O7_13 Cl2_13 1_555 1_555
O8_13 Cl2_13 1_555 1_555
Cl2_14 O5_14 1_555 1_555
O6_14 Cl2_14 1_555 1_555
O7_14 Cl2_14 1_555 1_555
O8_14 Cl2_14 1_555 1_555
Cl2_15 O5_15 1_555 1_555
O6_15 Cl2_15 1_555 1_555
O7_15 Cl2_15 1_555 1_555
O8_15 Cl2_15 1_555 1_555
Cl2_16 O5_16 1_555 1_555
O6_16 Cl2_16 1_555 1_555
O7_16 Cl2_16 1_555 1_555
O8_16 Cl2_16 1_555 1_555
Cl2_17 O5_17 1_555 1_555
O6_17 Cl2_17 1_555 1_555
O7_17 Cl2_17 1_555 1_555
O8_17 Cl2_17 1_555 1_555
Cl2_18 O5_18 1_555 1_555
O6_18 Cl2_18 1_555 1_555
O7_18 Cl2_18 1_555 1_555
O8_18 Cl2_18 1_555 1_555
C1 H1 1_555 1_555
C2 C1 1_555 1_555
H2 C2 1_555 1_555
C3 C2 1_555 1_555
H3 C3 1_555 1_555
C4 C3 1_555 1_555
H4 C4 1_555 1_555
C5 C4 1_555 1_555
C6 C1 1_555 1_555
C7 C8 1_555 1_555
C8 H5 1_555 1_555
C9 C5 1_555 1_555
H6 C9 1_555 1_555
C10 C7 1_555 1_555
C11 C12 1_555 1_555
C12 C13 1_555 1_555
C13 H7 1_555 1_555
C14 C13 1_555 1_555
H8 C14 1_555 1_555
C15 H9 1_555 1_555
C16 C12 1_555 1_555
H10 C16 1_555 1_555
C17 C18 1_555 1_555
C18 H11 1_555 1_555
C19 C18 1_555 1_555
H12 C19 1_555 1_555
C20 C19 1_555 1_555
H13 C20 1_555 1_555
C21 C20 1_555 1_555
H14 C21 1_555 1_555
C22 C17 1_555 1_555
C23 C22 1_555 1_555
H15 C23 1_555 1_555
C24 C23 1_555 1_555
H16 C24 1_555 1_555
C25 C24 1_555 1_555
C26 C25 1_555 1_555
C27 C28 1_555 1_555
C28 C29 1_555 1_555
Cu1 N2 1_555 1_555
Cu2 N4 1_555 1_555
N1 C11 1_555 1_555
N2 C10 1_555 1_555
N3 C6 1_555 1_555
N4 C14 1_555 1_555
N5 C26 1_555 1_555
N6 C27 1_555 1_555
N7 C17 1_555 1_555
O9 C10 1_555 1_555
O10 C26 1_555 1_555
C29 H17 1_555 1_555
C30 C28 1_555 1_555
H18 C30 1_555 1_555
C31 C29 1_555 1_555
H19 C31 1_555 1_555
C32 C30 1_555 1_555
H20 C32 1_555 1_555
N8 C31 1_555 1_555
C49 C50 1_555 1_555
C50 H31 1_555 1_555
C51 C50 1_555 1_555
H32 C51 1_555 1_555
C52 C51 1_555 1_555
H33 C52 1_555 1_555
C53 C52 1_555 1_555
H34 C53 1_555 1_555
C54 C49 1_555 1_555
C55 C54 1_555 1_555
H35 C55 1_555 1_555
C56 C55 1_555 1_555
H36 C56 1_555 1_555
C57 C56 1_555 1_555
C58 C57 1_555 1_555
C59 C60 1_555 1_555
C60 C61 1_555 1_555
N13 C58 1_555 1_555
N14 C59 1_555 1_555
N15 C49 1_555 1_555
O12 C58 1_555 1_555
C61 H37 1_555 1_555
C62 C60 1_555 1_555
H38 C62 1_555 1_555
C63 C61 1_555 1_555
H39 C63 1_555 1_555
C64 C62 1_555 1_555
H40 C64 1_555 1_555
N16 Cu1 1_555 1_555
Cu3 N8 1_555 1_555
Cu4 N13 1_555 1_555
N17 Cu2 1_555 1_555
N18 Cu2 1_555 1_555
N19 Cu2 1_555 1_555
C5 C6 1_555 1_555
C7 N3 1_555 1_555
C8 C9 1_555 1_555
C11 O9 1_555 1_555
C15 C16 1_555 1_555
C15 N4 1_555 1_555
C21 C22 1_555 1_555
C25 N7 1_555 1_555
C27 O10 1_555 1_555
Cu1 N3 1_555 1_555
Cu2 N5 1_555 1_555
Cu2 N7 1_555 1_555
N1 N2 1_555 1_555
N5 N6 1_555 1_555
C32 N8 1_555 1_555
C53 C54 1_555 1_555
C57 N15 1_555 1_555
C59 O12 1_555 1_555
N13 N14 1_555 1_555
N15 Cu4 1_555 1_555
C63 N16 1_555 1_555
C64 N16 1_555 1_555
C33 H21 1_555 1_555
C34 C33 1_555 1_555
H22 C34 1_555 1_555
C35 C34 1_555 1_555
H23 C35 1_555 1_555
C36 C35 1_555 1_555
H24 C36 1_555 1_555
C37 C36 1_555 1_555
C38 C33 1_555 1_555
C39 C40 1_555 1_555
C40 H25 1_555 1_555
C41 C37 1_555 1_555
H26 C41 1_555 1_555
C42 C39 1_555 1_555
C43 C44 1_555 1_555
C44 C45 1_555 1_555
C45 H27 1_555 1_555
C46 C45 1_555 1_555
H28 C46 1_555 1_555
C47 H29 1_555 1_555
C48 C44 1_555 1_555
H30 C48 1_555 1_555
N9 C43 1_555 1_555
N10 Cu1_2 1_555 1_555
N11 Cu1_2 1_555 1_555
N12 C46 1_555 1_555
O11 C42 1_555 1_555
Cu5 N12 1_555 1_555
N20 Cu1_2 1_555 1_555
C37 C38 1_555 1_555
C38 N11 1_555 1_555
C39 N11 1_555 1_555
C40 C41 1_555 1_555
C42 N10 1_555 1_555
C43 O11 1_555 1_555
C47 C48 1_555 1_555
C47 N12 1_555 1_555
N9 N10 1_555 1_555
C1_2 H1_2 1_555 1_555
C2_2 C1_2 1_555 1_555
H2_2 C2_2 1_555 1_555
C3_2 C2_2 1_555 1_555
H3_2 C3_2 1_555 1_555
C4_2 C3_2 1_555 1_555
H4_2 C4_2 1_555 1_555
C5_2 C4_2 1_555 1_555
C6_2 C1_2 1_555 1_555
C7_2 C8_2 1_555 1_555
C8_2 H5_2 1_555 1_555
C9_2 C5_2 1_555 1_555
H6_2 C9_2 1_555 1_555
C10_2 C7_2 1_555 1_555
C11_2 C12_2 1_555 1_555
C12_2 C13_2 1_555 1_555
C13_2 H7_2 1_555 1_555
C14_2 C13_2 1_555 1_555
H8_2 C14_2 1_555 1_555
C15_2 H9_2 1_555 1_555
C16_2 C12_2 1_555 1_555
H10_2 C16_2 1_555 1_555
C17_2 C18_2 1_555 1_555
C18_2 H11_2 1_555 1_555
C19_2 C18_2 1_555 1_555
H12_2 C19_2 1_555 1_555
C20_2 C19_2 1_555 1_555
H13_2 C20_2 1_555 1_555
C21_2 C20_2 1_555 1_555
H14_2 C21_2 1_555 1_555
C22_2 C17_2 1_555 1_555
C23_2 C22_2 1_555 1_555
H15_2 C23_2 1_555 1_555
C24_2 C23_2 1_555 1_555
H16_2 C24_2 1_555 1_555
C25_2 C24_2 1_555 1_555
C26_2 C25_2 1_555 1_555
C27_2 C28_2 1_555 1_555
C28_2 C29_2 1_555 1_555
Cu3 N2_2 1_555 1_555
Cu2_2 N4_2 1_555 1_555
N1_2 C11_2 1_555 1_555
N2_2 C10_2 1_555 1_555
N3_2 C6_2 1_555 1_555
N4_2 C14_2 1_555 1_555
N5_2 C26_2 1_555 1_555
N6_2 C27_2 1_555 1_555
N7_2 C17_2 1_555 1_555
O9_2 C10_2 1_555 1_555
O10_2 C26_2 1_555 1_555
C29_2 H17_2 1_555 1_555
C30_2 C28_2 1_555 1_555
H18_2 C30_2 1_555 1_555
C31_2 C29_2 1_555 1_555
H19_2 C31_2 1_555 1_555
C32_2 C30_2 1_555 1_555
H20_2 C32_2 1_555 1_555
N8_2 C31_2 1_555 1_555
C33_2 H21_2 1_555 1_555
C34_2 C33_2 1_555 1_555
H22_2 C34_2 1_555 1_555
C35_2 C34_2 1_555 1_555
H23_2 C35_2 1_555 1_555
C36_2 C35_2 1_555 1_555
H24_2 C36_2 1_555 1_555
C37_2 C36_2 1_555 1_555
C38_2 C33_2 1_555 1_555
C39_2 C40_2 1_555 1_555
C40_2 H25_2 1_555 1_555
C41_2 C37_2 1_555 1_555
H26_2 C41_2 1_555 1_555
C42_2 C39_2 1_555 1_555
C43_2 C44_2 1_555 1_555
C44_2 C45_2 1_555 1_555
C45_2 H27_2 1_555 1_555
C46_2 C45_2 1_555 1_555
H28_2 C46_2 1_555 1_555
C47_2 H29_2 1_555 1_555
C48_2 C44_2 1_555 1_555
H30_2 C48_2 1_555 1_555
N9_2 C43_2 1_555 1_555
N10_2 Cu3 1_555 1_555
N11_2 Cu3 1_555 1_555
N12_2 C46_2 1_555 1_555
O11_2 C42_2 1_555 1_555
Cu3_3 N8_2 1_555 1_555
Cu5_2 N12_2 1_555 1_555
N17_2 Cu2_2 1_555 1_555
N18_2 Cu2_2 1_555 1_555
N19_2 Cu2_2 1_555 1_555
N20_2 Cu3 1_555 1_555
C5_2 C6_2 1_555 1_555
C7_2 N3_2 1_555 1_555
C8_2 C9_2 1_555 1_555
C11_2 O9_2 1_555 1_555
C15_2 C16_2 1_555 1_555
C15_2 N4_2 1_555 1_555
C21_2 C22_2 1_555 1_555
C25_2 N7_2 1_555 1_555
C27_2 O10_2 1_555 1_555
Cu3 N3_2 1_555 1_555
Cu2_2 N5_2 1_555 1_555
Cu2_2 N7_2 1_555 1_555
N1_2 N2_2 1_555 1_555
N5_2 N6_2 1_555 1_555
C32_2 N8_2 1_555 1_555
C37_2 C38_2 1_555 1_555
C38_2 N11_2 1_555 1_555
C39_2 N11_2 1_555 1_555
C40_2 C41_2 1_555 1_555
C42_2 N10_2 1_555 1_555
C43_2 O11_2 1_555 1_555
C47_2 C48_2 1_555 1_555
C47_2 N12_2 1_555 1_555
N9_2 N10_2 1_555 1_555
C33_3 H21_3 1_555 1_555
C34_3 C33_3 1_555 1_555
H22_3 C34_3 1_555 1_555
C35_3 C34_3 1_555 1_555
H23_3 C35_3 1_555 1_555
C36_3 C35_3 1_555 1_555
H24_3 C36_3 1_555 1_555
C37_3 C36_3 1_555 1_555
C38_3 C33_3 1_555 1_555
C39_3 C40_3 1_555 1_555
C40_3 H25_3 1_555 1_555
C41_3 C37_3 1_555 1_555
H26_3 C41_3 1_555 1_555
C42_3 C39_3 1_555 1_555
C43_3 C44_3 1_555 1_555
C44_3 C45_3 1_555 1_555
C45_3 H27_3 1_555 1_555
C46_3 C45_3 1_555 1_555
H28_3 C46_3 1_555 1_555
C47_3 H29_3 1_555 1_555
C48_3 C44_3 1_555 1_555
H30_3 C48_3 1_555 1_555
N9_3 C43_3 1_555 1_555
N10_3 Cu3_2 1_555 1_555
N11_3 Cu3_2 1_555 1_555
N12_3 C46_3 1_555 1_555
O11_3 C42_3 1_555 1_555
Cu5_3 N12_3 1_555 1_555
N20_3 Cu3_2 1_555 1_555
C37_3 C38_3 1_555 1_555
C38_3 N11_3 1_555 1_555
C39_3 N11_3 1_555 1_555
C40_3 C41_3 1_555 1_555
C42_3 N10_3 1_555 1_555
C43_3 O11_3 1_555 1_555
C47_3 C48_3 1_555 1_555
C47_3 N12_3 1_555 1_555
N9_3 N10_3 1_555 1_555
C1_3 H1_3 1_555 1_555
C2_3 C1_3 1_555 1_555
H2_3 C2_3 1_555 1_555
C3_3 C2_3 1_555 1_555
H3_3 C3_3 1_555 1_555
C4_3 C3_3 1_555 1_555
H4_3 C4_3 1_555 1_555
C5_3 C4_3 1_555 1_555
C6_3 C1_3 1_555 1_555
C7_3 C8_3 1_555 1_555
C8_3 H5_3 1_555 1_555
C9_3 C5_3 1_555 1_555
H6_3 C9_3 1_555 1_555
C10_3 C7_3 1_555 1_555
C11_3 C12_3 1_555 1_555
C12_3 C13_3 1_555 1_555
C13_3 H7_3 1_555 1_555
C14_3 C13_3 1_555 1_555
H8_3 C14_3 1_555 1_555
C15_3 H9_3 1_555 1_555
C16_3 C12_3 1_555 1_555
H10_3 C16_3 1_555 1_555
Cu3_3 N2_3 1_555 1_555
Cu4 N4_3 1_555 1_555
N1_3 C11_3 1_555 1_555
N2_3 C10_3 1_555 1_555
N3_3 C6_3 1_555 1_555
N4_3 C14_3 1_555 1_555
O9_3 C10_3 1_555 1_555
N17_3 Cu4 1_555 1_555
N18_3 Cu4 1_555 1_555
N19_3 Cu4 1_555 1_555
C5_3 C6_3 1_555 1_555
C7_3 N3_3 1_555 1_555
C8_3 C9_3 1_555 1_555
C11_3 O9_3 1_555 1_555
C15_3 C16_3 1_555 1_555
C15_3 N4_3 1_555 1_555
Cu3_3 N3_3 1_555 1_555
N1_3 N2_3 1_555 1_555
C28_3 C29_3 1_555 1_555
C29_3 H17_3 1_555 1_555
C30_3 C28_3 1_555 1_555
C31_3 C29_3 1_555 1_555
H19_3 C31_3 1_555 1_555
C32_3 C30_3 1_555 1_555
H20_3 C32_3 1_555 1_555
N8_3 C31_3 1_555 1_555
Cu3_4 N8_3 1_555 1_555
C32_3 N8_3 1_555 1_555
C49_2 C50_2 1_555 1_555
C50_2 H31_2 1_555 1_555
C51_2 C50_2 1_555 1_555
H32_2 C51_2 1_555 1_555
C52_2 C51_2 1_555 1_555
H33_2 C52_2 1_555 1_555
C53_2 C52_2 1_555 1_555
H34_2 C53_2 1_555 1_555
C54_2 C49_2 1_555 1_555
C55_2 C54_2 1_555 1_555
H35_2 C55_2 1_555 1_555
C56_2 C55_2 1_555 1_555
H36_2 C56_2 1_555 1_555
C57_2 C56_2 1_555 1_555
C58_2 C57_2 1_555 1_555
N13_2 C58_2 1_555 1_555
N14_2 C59_2 1_555 1_555
N15_2 C49_2 1_555 1_555
O12_2 C58_2 1_555 1_555
Cu5_3 N13_2 1_555 1_555
C53_2 C54_2 1_555 1_555
C57_2 N15_2 1_555 1_555
C59_2 O12_2 1_555 1_555
N13_2 N14_2 1_555 1_555
N15_2 Cu5_3 1_555 1_555
C1_4 H1_4 1_555 1_555
C2_4 C1_4 1_555 1_555
H2_4 C2_4 1_555 1_555
C5_4 C4_4 1_555 1_555
C6_4 C1_4 1_555 1_555
C7_4 C8_4 1_555 1_555
C8_4 H5_4 1_555 1_555
C9_4 C5_4 1_555 1_555
H6_4 C9_4 1_555 1_555
C10_4 C7_4 1_555 1_555
C11_4 C12_4 1_555 1_555
C12_4 C13_4 1_555 1_555
C13_4 H7_4 1_555 1_555
C14_4 C13_4 1_555 1_555
H8_4 C14_4 1_555 1_555
C15_4 H9_4 1_555 1_555
C16_4 C12_4 1_555 1_555
H10_4 C16_4 1_555 1_555
C17_3 C18_3 1_555 1_555
C18_3 H11_3 1_555 1_555
C19_3 C18_3 1_555 1_555
H12_3 C19_3 1_555 1_555
C20_3 C19_3 1_555 1_555
H13_3 C20_3 1_555 1_555
C21_3 C20_3 1_555 1_555
H14_3 C21_3 1_555 1_555
C22_3 C17_3 1_555 1_555
C23_3 C22_3 1_555 1_555
H15_3 C23_3 1_555 1_555
C24_3 C23_3 1_555 1_555
H16_3 C24_3 1_555 1_555
C25_3 C24_3 1_555 1_555
C26_3 C25_3 1_555 1_555
Cu1_3 N2_4 1_555 1_555
Cu5 N4_4 1_555 1_555
N1_4 C11_4 1_555 1_555
N2_4 C10_4 1_555 1_555
N3_4 C6_4 1_555 1_555
N4_4 C14_4 1_555 1_555
N5_3 C26_3 1_555 1_555
N6_3 C27_3 1_555 1_555
N7_3 C17_3 1_555 1_555
O9_4 C10_4 1_555 1_555
O10_3 C26_3 1_555 1_555
C33_4 H21_4 1_555 1_555
C34_4 C33_4 1_555 1_555
H22_4 C34_4 1_555 1_555
C35_4 C34_4 1_555 1_555
H23_4 C35_4 1_555 1_555
C36_4 C35_4 1_555 1_555
H24_4 C36_4 1_555 1_555
C37_4 C36_4 1_555 1_555
C38_4 C33_4 1_555 1_555
C39_4 C40_4 1_555 1_555
C40_4 H25_4 1_555 1_555
C41_4 C37_4 1_555 1_555
H26_4 C41_4 1_555 1_555
C42_4 C39_4 1_555 1_555
C43_4 C44_4 1_555 1_555
C44_4 C45_4 1_555 1_555
C45_4 H27_4 1_555 1_555
C46_4 C45_4 1_555 1_555
C47_4 H29_4 1_555 1_555
C48_4 C44_4 1_555 1_555
H30_4 C48_4 1_555 1_555
N9_4 C43_4 1_555 1_555
N10_4 Cu1_3 1_555 1_555
N11_4 Cu1_3 1_555 1_555
N12_4 C46_4 1_555 1_555
O11_4 C42_4 1_555 1_555
C60_2 C61_2 1_555 1_555
C61_2 H37_2 1_555 1_555
C62_2 C60_2 1_555 1_555
C63_2 C61_2 1_555 1_555
H39_2 C63_2 1_555 1_555
C64_2 C62_2 1_555 1_555
H40_2 C64_2 1_555 1_555
N16_2 Cu1_3 1_555 1_555
Cu5_5 N12_4 1_555 1_555
N18_4 Cu5 1_555 1_555
N19_4 Cu5 1_555 1_555
N20_4 Cu1_3 1_555 1_555
C5_4 C6_4 1_555 1_555
C7_4 N3_4 1_555 1_555
C8_4 C9_4 1_555 1_555
C11_4 O9_4 1_555 1_555
C15_4 C16_4 1_555 1_555
C15_4 N4_4 1_555 1_555
C21_3 C22_3 1_555 1_555
C25_3 N7_3 1_555 1_555
C27_3 O10_3 1_555 1_555
Cu1_3 N3_4 1_555 1_555
Cu5 N5_3 1_555 1_555
Cu5 N7_3 1_555 1_555
N1_4 N2_4 1_555 1_555
N5_3 N6_3 1_555 1_555
C37_4 C38_4 1_555 1_555
C38_4 N11_4 1_555 1_555
C39_4 N11_4 1_555 1_555
C40_4 C41_4 1_555 1_555
C42_4 N10_4 1_555 1_555
C43_4 O11_4 1_555 1_555
C47_4 C48_4 1_555 1_555
C47_4 N12_4 1_555 1_555
N9_4 N10_4 1_555 1_555
C63_2 N16_2 1_555 1_555
C64_2 N16_2 1_555 1_555
C12_5 C13_5 1_555 1_555
C14_5 C13_5 1_555 1_555
H8_5 C14_5 1_555 1_555
C15_5 H9_5 1_555 1_555
C16_5 C12_5 1_555 1_555
H10_5 C16_5 1_555 1_555
C17_4 C18_4 1_555 1_555
C18_4 H11_4 1_555 1_555
C19_4 C18_4 1_555 1_555
H12_4 C19_4 1_555 1_555
C20_4 C19_4 1_555 1_555
H13_4 C20_4 1_555 1_555
C21_4 C20_4 1_555 1_555
H14_4 C21_4 1_555 1_555
C22_4 C17_4 1_555 1_555
C23_4 C22_4 1_555 1_555
H15_4 C23_4 1_555 1_555
C24_4 C23_4 1_555 1_555
H16_4 C24_4 1_555 1_555
C25_4 C24_4 1_555 1_555
C26_4 C25_4 1_555 1_555
C27_4 C28_4 1_555 1_555
C28_4 C29_4 1_555 1_555
Cu5_2 N4_5 1_555 1_555
N4_5 C14_5 1_555 1_555
N5_4 C26_4 1_555 1_555
N6_4 C27_4 1_555 1_555
N7_4 C17_4 1_555 1_555
O10_4 C26_4 1_555 1_555
C29_4 H17_4 1_555 1_555
C30_4 C28_4 1_555 1_555
H18_4 C30_4 1_555 1_555
C31_4 C29_4 1_555 1_555
H19_4 C31_4 1_555 1_555
C32_4 C30_4 1_555 1_555
H20_4 C32_4 1_555 1_555
N8_4 C31_4 1_555 1_555
Cu3_5 N8_4 1_555 1_555
N18_5 Cu5_2 1_555 1_555
N19_5 Cu5_2 1_555 1_555
C15_5 C16_5 1_555 1_555
C15_5 N4_5 1_555 1_555
C21_4 C22_4 1_555 1_555
C25_4 N7_4 1_555 1_555
C27_4 O10_4 1_555 1_555
Cu5_2 N5_4 1_555 1_555
Cu5_2 N7_4 1_555 1_555
N5_4 N6_4 1_555 1_555
C32_4 N8_4 1_555 1_555
C1_5 H1_5 1_555 1_555
C2_5 C1_5 1_555 1_555
H2_5 C2_5 1_555 1_555
C5_5 C4_5 1_555 1_555
C6_5 C1_5 1_555 1_555
C7_5 C8_5 1_555 1_555
C8_5 H5_5 1_555 1_555
C9_5 C5_5 1_555 1_555
H6_5 C9_5 1_555 1_555
C10_5 C7_5 1_555 1_555
Cu3_4 N2_5 1_555 1_555
N1_5 C11_5 1_555 1_555
N2_5 C10_5 1_555 1_555
N3_5 C6_5 1_555 1_555
O9_5 C10_5 1_555 1_555
C33_5 H21_5 1_555 1_555
C34_5 C33_5 1_555 1_555
H22_5 C34_5 1_555 1_555
C35_5 C34_5 1_555 1_555
H23_5 C35_5 1_555 1_555
C36_5 C35_5 1_555 1_555
H24_5 C36_5 1_555 1_555
C37_5 C36_5 1_555 1_555
C38_5 C33_5 1_555 1_555
C39_5 C40_5 1_555 1_555
C40_5 H25_5 1_555 1_555
C41_5 C37_5 1_555 1_555
H26_5 C41_5 1_555 1_555
C42_5 C39_5 1_555 1_555
C43_5 C44_5 1_555 1_555
C44_5 C45_5 1_555 1_555
C45_5 H27_5 1_555 1_555
C46_5 C45_5 1_555 1_555
C47_5 H29_5 1_555 1_555
C48_5 C44_5 1_555 1_555
H30_5 C48_5 1_555 1_555
N9_5 C43_5 1_555 1_555
N10_5 Cu3_4 1_555 1_555
N11_5 Cu3_4 1_555 1_555
N12_5 C46_5 1_555 1_555
O11_5 C42_5 1_555 1_555
Cu5_7 N12_5 1_555 1_555
N20_5 Cu3_4 1_555 1_555
C5_5 C6_5 1_555 1_555
C7_5 N3_5 1_555 1_555
C8_5 C9_5 1_555 1_555
C11_5 O9_5 1_555 1_555
Cu3_4 N3_5 1_555 1_555
N1_5 N2_5 1_555 1_555
C37_5 C38_5 1_555 1_555
C38_5 N11_5 1_555 1_555
C39_5 N11_5 1_555 1_555
C40_5 C41_5 1_555 1_555
C42_5 N10_5 1_555 1_555
C43_5 O11_5 1_555 1_555
C47_5 C48_5 1_555 1_555
C47_5 N12_5 1_555 1_555
N9_5 N10_5 1_555 1_555
H3_6 C3_6 1_555 1_555
C1_6 H1_6 1_555 1_555
C2_6 C1_6 1_555 1_555
H2_6 C2_6 1_555 1_555
C5_6 C4_6 1_555 1_555
C6_6 C1_6 1_555 1_555
C7_6 C8_6 1_555 1_555
C8_6 H5_6 1_555 1_555
C9_6 C5_6 1_555 1_555
H6_6 C9_6 1_555 1_555
C10_6 C7_6 1_555 1_555
Cu3_5 N2_6 1_555 1_555
N1_6 C11_6 1_555 1_555
N2_6 C10_6 1_555 1_555
N3_6 C6_6 1_555 1_555
O9_6 C10_6 1_555 1_555
C33_6 H21_6 1_555 1_555
C34_6 C33_6 1_555 1_555
H22_6 C34_6 1_555 1_555
C35_6 C34_6 1_555 1_555
H23_6 C35_6 1_555 1_555
C36_6 C35_6 1_555 1_555
H24_6 C36_6 1_555 1_555
C37_6 C36_6 1_555 1_555
C38_6 C33_6 1_555 1_555
C39_6 C40_6 1_555 1_555
C40_6 H25_6 1_555 1_555
C41_6 C37_6 1_555 1_555
H26_6 C41_6 1_555 1_555
C42_6 C39_6 1_555 1_555
C43_6 C44_6 1_555 1_555
C44_6 C45_6 1_555 1_555
C45_6 H27_6 1_555 1_555
C46_6 C45_6 1_555 1_555
C47_6 H29_6 1_555 1_555
C48_6 C44_6 1_555 1_555
H30_6 C48_6 1_555 1_555
N9_6 C43_6 1_555 1_555
N10_6 Cu3_5 1_555 1_555
N11_6 Cu3_5 1_555 1_555
N12_6 C46_6 1_555 1_555
O11_6 C42_6 1_555 1_555
Cu5_9 N12_6 1_555 1_555
N20_6 Cu3_5 1_555 1_555
C5_6 C6_6 1_555 1_555
C7_6 N3_6 1_555 1_555
C8_6 C9_6 1_555 1_555
C11_6 O9_6 1_555 1_555
Cu3_5 N3_6 1_555 1_555
N1_6 N2_6 1_555 1_555
C37_6 C38_6 1_555 1_555
C38_6 N11_6 1_555 1_555
C39_6 N11_6 1_555 1_555
C40_6 C41_6 1_555 1_555
C42_6 N10_6 1_555 1_555
C43_6 O11_6 1_555 1_555
C47_6 C48_6 1_555 1_555
C47_6 N12_6 1_555 1_555
N9_6 N10_6 1_555 1_555
C12_6 C13_6 1_555 1_555
C14_6 C13_6 1_555 1_555
H8_6 C14_6 1_555 1_555
C15_6 H9_6 1_555 1_555
C16_6 C12_6 1_555 1_555
H10_6 C16_6 1_555 1_555
Cu5_3 N4_6 1_555 1_555
N4_6 C14_6 1_555 1_555
N18_6 Cu5_3 1_555 1_555
N19_6 Cu5_3 1_555 1_555
C15_6 C16_6 1_555 1_555
C15_6 N4_6 1_555 1_555
C1_7 H1_7 1_555 1_555
C2_7 C1_7 1_555 1_555
H2_7 C2_7 1_555 1_555
C3_7 C2_7 1_555 1_555
H3_7 C3_7 1_555 1_555
C4_7 C3_7 1_555 1_555
H4_7 C4_7 1_555 1_555
C5_7 C4_7 1_555 1_555
C6_7 C1_7 1_555 1_555
C7_7 C8_7 1_555 1_555
C8_7 H5_7 1_555 1_555
C9_7 C5_7 1_555 1_555
H6_7 C9_7 1_555 1_555
C10_7 C7_7 1_555 1_555
C11_7 C12_7 1_555 1_555
C12_7 C13_7 1_555 1_555
C13_7 H7_7 1_555 1_555
C14_7 C13_7 1_555 1_555
C15_7 H9_7 1_555 1_555
C16_7 C12_7 1_555 1_555
H10_7 C16_7 1_555 1_555
C27_5 C28_5 1_555 1_555
C28_5 C29_5 1_555 1_555
Cu1_4 N2_7 1_555 1_555
N1_7 C11_7 1_555 1_555
N2_7 C10_7 1_555 1_555
N3_7 C6_7 1_555 1_555
N4_7 C14_7 1_555 1_555
N6_5 C27_5 1_555 1_555
O9_7 C10_7 1_555 1_555
C29_5 H17_5 1_555 1_555
C30_5 C28_5 1_555 1_555
H18_5 C30_5 1_555 1_555
C31_5 C29_5 1_555 1_555
H19_5 C31_5 1_555 1_555
C32_5 C30_5 1_555 1_555
H20_5 C32_5 1_555 1_555
N8_5 C31_5 1_555 1_555
C33_7 H21_7 1_555 1_555
C34_7 C33_7 1_555 1_555
H22_7 C34_7 1_555 1_555
C37_7 C36_7 1_555 1_555
C38_7 C33_7 1_555 1_555
C39_7 C40_7 1_555 1_555
C40_7 H25_7 1_555 1_555
C41_7 C37_7 1_555 1_555
H26_7 C41_7 1_555 1_555
C42_7 C39_7 1_555 1_555
C43_7 C44_7 1_555 1_555
C44_7 C45_7 1_555 1_555
C45_7 H27_7 1_555 1_555
C46_7 C45_7 1_555 1_555
H28_7 C46_7 1_555 1_555
C47_7 H29_7 1_555 1_555
C48_7 C44_7 1_555 1_555
H30_7 C48_7 1_555 1_555
N9_7 C43_7 1_555 1_555
N10_7 Cu1_4 1_555 1_555
N11_7 Cu1_4 1_555 1_555
N17 C46_7 1_555 1_555
O11_7 C42_7 1_555 1_555
C59_3 C60_3 1_555 1_555
C60_3 C61_3 1_555 1_555
N14_3 C59_3 1_555 1_555
C61_3 H37_3 1_555 1_555
C62_3 C60_3 1_555 1_555
H38_3 C62_3 1_555 1_555
C63_3 C61_3 1_555 1_555
H39_3 C63_3 1_555 1_555
C64_3 C62_3 1_555 1_555
H40_3 C64_3 1_555 1_555
N16_3 Cu1_4 1_555 1_555
Cu3_6 N8_5 1_555 1_555
Cu5_8 N13_3 1_555 1_555
N20_7 Cu1_4 1_555 1_555
C5_7 C6_7 1_555 1_555
C7_7 N3_7 1_555 1_555
C8_7 C9_7 1_555 1_555
C11_7 O9_7 1_555 1_555
C15_7 C16_7 1_555 1_555
C15_7 N4_7 1_555 1_555
C27_5 O10_5 1_555 1_555
Cu1_4 N3_7 1_555 1_555
N1_7 N2_7 1_555 1_555
N5_5 N6_5 1_555 1_555
C32_5 N8_5 1_555 1_555
C37_7 C38_7 1_555 1_555
C38_7 N11_7 1_555 1_555
C39_7 N11_7 1_555 1_555
C40_7 C41_7 1_555 1_555
C42_7 N10_7 1_555 1_555
C43_7 O11_7 1_555 1_555
C47_7 C48_7 1_555 1_555
C47_7 N17 1_555 1_555
N9_7 N10_7 1_555 1_555
C59_3 O12_3 1_555 1_555
N13_3 N14_3 1_555 1_555
C63_3 N16_3 1_555 1_555
C64_3 N16_3 1_555 1_555
C17_5 C18_5 1_555 1_555
C18_5 H11_5 1_555 1_555
C19_5 C18_5 1_555 1_555
H12_5 C19_5 1_555 1_555
C20_5 C19_5 1_555 1_555
H13_5 C20_5 1_555 1_555
C21_5 C20_5 1_555 1_555
H14_5 C21_5 1_555 1_555
C22_5 C17_5 1_555 1_555
C23_5 C22_5 1_555 1_555
H15_5 C23_5 1_555 1_555
C24_5 C23_5 1_555 1_555
H16_5 C24_5 1_555 1_555
C25_5 C24_5 1_555 1_555
C26_5 C25_5 1_555 1_555
N7_5 C17_5 1_555 1_555
C49_3 C50_3 1_555 1_555
C50_3 H31_3 1_555 1_555
C51_3 C50_3 1_555 1_555
H32_3 C51_3 1_555 1_555
C52_3 C51_3 1_555 1_555
H33_3 C52_3 1_555 1_555
C53_3 C52_3 1_555 1_555
H34_3 C53_3 1_555 1_555
C54_3 C49_3 1_555 1_555
C55_3 C54_3 1_555 1_555
H35_3 C55_3 1_555 1_555
C56_3 C55_3 1_555 1_555
H36_3 C56_3 1_555 1_555
C57_3 C56_3 1_555 1_555
C58_3 C57_3 1_555 1_555
N15_3 C49_3 1_555 1_555
C21_5 C22_5 1_555 1_555
C25_5 N7_5 1_555 1_555
C53_3 C54_3 1_555 1_555
C57_3 N15_3 1_555 1_555
N15_3 Cu5_9 1_555 1_555
N19_7 Cu5_4 1_555 1_555
N18_7 Cu5_5 1_555 1_555
N19_8 Cu5_6 1_555 1_555
N18_8 Cu5_7 1_555 1_555
C1_8 H1_8 1_555 1_555
C2_8 C1_8 1_555 1_555
H2_8 C2_8 1_555 1_555
C3_8 C2_8 1_555 1_555
H3_8 C3_8 1_555 1_555
C4_8 C3_8 1_555 1_555
H4_8 C4_8 1_555 1_555
C5_8 C4_8 1_555 1_555
C6_8 C1_8 1_555 1_555
C7_8 C8_8 1_555 1_555
C8_8 H5_8 1_555 1_555
C9_8 C5_8 1_555 1_555
H6_8 C9_8 1_555 1_555
C10_8 C7_8 1_555 1_555
C11_8 C12_8 1_555 1_555
C12_8 C13_8 1_555 1_555
C13_8 H7_8 1_555 1_555
C14_8 C13_8 1_555 1_555
C15_8 H9_8 1_555 1_555
C16_8 C12_8 1_555 1_555
H10_8 C16_8 1_555 1_555
C27_6 C28_6 1_555 1_555
C28_6 C29_6 1_555 1_555
Cu3_6 N2_8 1_555 1_555
N1_8 C11_8 1_555 1_555
N2_8 C10_8 1_555 1_555
N3_8 C6_8 1_555 1_555
N4_8 C14_8 1_555 1_555
N6_6 C27_6 1_555 1_555
O9_8 C10_8 1_555 1_555
C29_6 H17_6 1_555 1_555
C30_6 C28_6 1_555 1_555
H18_6 C30_6 1_555 1_555
C31_6 C29_6 1_555 1_555
H19_6 C31_6 1_555 1_555
C32_6 C30_6 1_555 1_555
H20_6 C32_6 1_555 1_555
N8_6 C31_6 1_555 1_555
C33_8 H21_8 1_555 1_555
C34_8 C33_8 1_555 1_555
H22_8 C34_8 1_555 1_555
C37_8 C36_8 1_555 1_555
C38_8 C33_8 1_555 1_555
C39_8 C40_8 1_555 1_555
C40_8 H25_8 1_555 1_555
C41_8 C37_8 1_555 1_555
H26_8 C41_8 1_555 1_555
C42_8 C39_8 1_555 1_555
N9_8 C43_8 1_555 1_555
N10_8 Cu3_6 1_555 1_555
N11_8 Cu3_6 1_555 1_555
O11_8 C42_8 1_555 1_555
Cu3_7 N8_6 1_555 1_555
N20_8 Cu3_6 1_555 1_555
C5_8 C6_8 1_555 1_555
C7_8 N3_8 1_555 1_555
C8_8 C9_8 1_555 1_555
C11_8 O9_8 1_555 1_555
C15_8 C16_8 1_555 1_555
C15_8 N4_8 1_555 1_555
C27_6 O10_6 1_555 1_555
Cu3_6 N3_8 1_555 1_555
N1_8 N2_8 1_555 1_555
N5_6 N6_6 1_555 1_555
C32_6 N8_6 1_555 1_555
C37_8 C38_8 1_555 1_555
C38_8 N11_8 1_555 1_555
C39_8 N11_8 1_555 1_555
C40_8 C41_8 1_555 1_555
C42_8 N10_8 1_555 1_555
C43_8 O11_8 1_555 1_555
N9_8 N10_8 1_555 1_555
C17_6 C18_6 1_555 1_555
C18_6 H11_6 1_555 1_555
C19_6 C18_6 1_555 1_555
H12_6 C19_6 1_555 1_555
C20_6 C19_6 1_555 1_555
H13_6 C20_6 1_555 1_555
C21_6 C20_6 1_555 1_555
H14_6 C21_6 1_555 1_555
C22_6 C17_6 1_555 1_555
C23_6 C22_6 1_555 1_555
H15_6 C23_6 1_555 1_555
C24_6 C23_6 1_555 1_555
H16_6 C24_6 1_555 1_555
C25_6 C24_6 1_555 1_555
C26_6 C25_6 1_555 1_555
N7_6 C17_6 1_555 1_555
C21_6 C22_6 1_555 1_555
C25_6 N7_6 1_555 1_555
C44_8 C45_8 1_555 1_555
C46_8 C45_8 1_555 1_555
H28_8 C46_8 1_555 1_555
C47_8 H29_8 1_555 1_555
C48_8 C44_8 1_555 1_555
H30_8 C48_8 1_555 1_555
N17_2 C46_8 1_555 1_555
C47_8 C48_8 1_555 1_555
C47_8 N17_2 1_555 1_555
C44_9 C45_9 1_555 1_555
C46_9 C45_9 1_555 1_555
H28_9 C46_9 1_555 1_555
C47_9 H29_9 1_555 1_555
C48_9 C44_9 1_555 1_555
H30_9 C48_9 1_555 1_555
N17_3 C46_9 1_555 1_555
C47_9 C48_9 1_555 1_555
C47_9 N17_3 1_555 1_555
C1_9 H1_9 1_555 1_555
C2_9 C1_9 1_555 1_555
H2_9 C2_9 1_555 1_555
C3_9 C2_9 1_555 1_555
H3_9 C3_9 1_555 1_555
C4_9 C3_9 1_555 1_555
H4_9 C4_9 1_555 1_555
C5_9 C4_9 1_555 1_555
C6_9 C1_9 1_555 1_555
C7_9 C8_9 1_555 1_555
C8_9 H5_9 1_555 1_555
C9_9 C5_9 1_555 1_555
H6_9 C9_9 1_555 1_555
C10_9 C7_9 1_555 1_555
C11_9 C12_9 1_555 1_555
C12_9 C13_9 1_555 1_555
C13_9 H7_9 1_555 1_555
C14_9 C13_9 1_555 1_555
C15_9 H9_9 1_555 1_555
C16_9 C12_9 1_555 1_555
H10_9 C16_9 1_555 1_555
Cu3_7 N2_9 1_555 1_555
Cu5_8 N4_9 1_555 1_555
N1_9 C11_9 1_555 1_555
N2_9 C10_9 1_555 1_555
N3_9 C6_9 1_555 1_555
N4_9 C14_9 1_555 1_555
O9_9 C10_9 1_555 1_555
C33_9 H21_9 1_555 1_555
C34_9 C33_9 1_555 1_555
H22_9 C34_9 1_555 1_555
C37_9 C36_9 1_555 1_555
C38_9 C33_9 1_555 1_555
C39_9 C40_9 1_555 1_555
C40_9 H25_9 1_555 1_555
C41_9 C37_9 1_555 1_555
H26_9 C41_9 1_555 1_555
C42_9 C39_9 1_555 1_555
N9_9 C43_9 1_555 1_555
N10_9 Cu3_7 1_555 1_555
N11_9 Cu3_7 1_555 1_555
O11_9 C42_9 1_555 1_555
N19_9 Cu5_8 1_555 1_555
N20_9 Cu3_7 1_555 1_555
C5_9 C6_9 1_555 1_555
C7_9 N3_9 1_555 1_555
C8_9 C9_9 1_555 1_555
C11_9 O9_9 1_555 1_555
C15_9 C16_9 1_555 1_555
C15_9 N4_9 1_555 1_555
Cu3_7 N3_9 1_555 1_555
N1_9 N2_9 1_555 1_555
C37_9 C38_9 1_555 1_555
C38_9 N11_9 1_555 1_555
C39_9 N11_9 1_555 1_555
C40_9 C41_9 1_555 1_555
C42_9 N10_9 1_555 1_555
C43_9 O11_9 1_555 1_555
N9_9 N10_9 1_555 1_555
H23_9 C35_9 1_555 1_555
N18_9 Cu5_9 1_555 1_555
C17_7 C18_7 1_555 1_555
C18_7 H11_7 1_555 1_555
C19_7 C18_7 1_555 1_555
H12_7 C19_7 1_555 1_555
C20_7 C19_7 1_555 1_555
H13_7 C20_7 1_555 1_555
C21_7 C20_7 1_555 1_555
H14_7 C21_7 1_555 1_555
C22_7 C17_7 1_555 1_555
C23_7 C22_7 1_555 1_555
H15_7 C23_7 1_555 1_555
C24_7 C23_7 1_555 1_555
H16_7 C24_7 1_555 1_555
C25_7 C24_7 1_555 1_555
C26_7 C25_7 1_555 1_555
C27_7 C28_7 1_555 1_555
C28_7 C29_7 1_555 1_555
N18_4 C26_7 1_555 1_555
N6_7 C27_7 1_555 1_555
N19_4 C17_7 1_555 1_555
O10_7 C26_7 1_555 1_555
C29_7 H17_7 1_555 1_555
C30_7 C28_7 1_555 1_555
H18_7 C30_7 1_555 1_555
C31_7 C29_7 1_555 1_555
H19_7 C31_7 1_555 1_555
C32_7 C30_7 1_555 1_555
H20_7 C32_7 1_555 1_555
N20_2 C31_7 1_555 1_555
C49_4 C50_4 1_555 1_555
C50_4 H31_4 1_555 1_555
C51_4 C50_4 1_555 1_555
H32_4 C51_4 1_555 1_555
C52_4 C51_4 1_555 1_555
H33_4 C52_4 1_555 1_555
C53_4 C52_4 1_555 1_555
H34_4 C53_4 1_555 1_555
C54_4 C49_4 1_555 1_555
C55_4 C54_4 1_555 1_555
H35_4 C55_4 1_555 1_555
C56_4 C55_4 1_555 1_555
H36_4 C56_4 1_555 1_555
C57_4 C56_4 1_555 1_555
C58_4 C57_4 1_555 1_555
C59_4 C60_4 1_555 1_555
C60_4 C61_4 1_555 1_555
N18_6 C58_4 1_555 1_555
N14_4 C59_4 1_555 1_555
N19_6 C49_4 1_555 1_555
O12_4 C58_4 1_555 1_555
C61_4 H37_4 1_555 1_555
C62_4 C60_4 1_555 1_555
H38_4 C62_4 1_555 1_555
C63_4 C61_4 1_555 1_555
H39_4 C63_4 1_555 1_555
C64_4 C62_4 1_555 1_555
H40_4 C64_4 1_555 1_555
C21_7 C22_7 1_555 1_555
C25_7 N19_4 1_555 1_555
C27_7 O10_7 1_555 1_555
N18_4 N6_7 1_555 1_555
C32_7 N20_2 1_555 1_555
C53_4 C54_4 1_555 1_555
C57_4 N19_6 1_555 1_555
C59_4 O12_4 1_555 1_555
N18_6 N14_4 1_555 1_555
C63_4 N20 1_555 1_555
C64_4 N20 1_555 1_555
C17_8 C18_8 1_555 1_555
C18_8 H11_8 1_555 1_555
C19_8 C18_8 1_555 1_555
H12_8 C19_8 1_555 1_555
C20_8 C19_8 1_555 1_555
H13_8 C20_8 1_555 1_555
C21_8 C20_8 1_555 1_555
H14_8 C21_8 1_555 1_555
C22_8 C17_8 1_555 1_555
C23_8 C22_8 1_555 1_555
H15_8 C23_8 1_555 1_555
C24_8 C23_8 1_555 1_555
H16_8 C24_8 1_555 1_555
C25_8 C24_8 1_555 1_555
C26_8 C25_8 1_555 1_555
C27_8 C28_8 1_555 1_555
C28_8 C29_8 1_555 1_555
N18_5 C26_8 1_555 1_555
N6_8 C27_8 1_555 1_555
N19_5 C17_8 1_555 1_555
O10_8 C26_8 1_555 1_555
C29_8 H17_8 1_555 1_555
C30_8 C28_8 1_555 1_555
H18_8 C30_8 1_555 1_555
C31_8 C29_8 1_555 1_555
H19_8 C31_8 1_555 1_555
C32_8 C30_8 1_555 1_555
H20_8 C32_8 1_555 1_555
N20_3 C31_8 1_555 1_555
C21_8 C22_8 1_555 1_555
C25_8 N19_5 1_555 1_555
C27_8 O10_8 1_555 1_555
N18_5 N6_8 1_555 1_555
C32_8 N20_3 1_555 1_555
C17_9 C18_9 1_555 1_555
C18_9 H11_9 1_555 1_555
C19_9 C18_9 1_555 1_555
H12_9 C19_9 1_555 1_555
C20_9 C19_9 1_555 1_555
H13_9 C20_9 1_555 1_555
C21_9 C20_9 1_555 1_555
H14_9 C21_9 1_555 1_555
C22_9 C17_9 1_555 1_555
C23_9 C22_9 1_555 1_555
H15_9 C23_9 1_555 1_555
C24_9 C23_9 1_555 1_555
H16_9 C24_9 1_555 1_555
C25_9 C24_9 1_555 1_555
C26_9 C25_9 1_555 1_555
N18 C26_9 1_555 1_555
N6_9 C27_9 1_555 1_555
N19 C17_9 1_555 1_555
O10_9 C26_9 1_555 1_555
C60_5 C61_5 1_555 1_555
C61_5 H37_5 1_555 1_555
C62_5 C60_5 1_555 1_555
C63_5 C61_5 1_555 1_555
H39_5 C63_5 1_555 1_555
C64_5 C62_5 1_555 1_555
H40_5 C64_5 1_555 1_555
Cu5_10 N4_7 1_555 1_555
C21_9 C22_9 1_555 1_555
C25_9 N19 1_555 1_555
C27_9 O10_9 1_555 1_555
N18 N6_9 1_555 1_555
C63_5 N20_7 1_555 1_555
C64_5 N20_7 1_555 1_555
C49_5 C50_5 1_555 1_555
C50_5 H31_5 1_555 1_555
C51_5 C50_5 1_555 1_555
H32_5 C51_5 1_555 1_555
C52_5 C51_5 1_555 1_555
H33_5 C52_5 1_555 1_555
C53_5 C52_5 1_555 1_555
H34_5 C53_5 1_555 1_555
C54_5 C49_5 1_555 1_555
C55_5 C54_5 1_555 1_555
H35_5 C55_5 1_555 1_555
C56_5 C55_5 1_555 1_555
H36_5 C56_5 1_555 1_555
C57_5 C56_5 1_555 1_555
C58_5 C57_5 1_555 1_555
N18_3 C58_5 1_555 1_555
N14_5 C59_5 1_555 1_555
N19_3 C49_5 1_555 1_555
O12_5 C58_5 1_555 1_555
C53_5 C54_5 1_555 1_555
C57_5 N19_3 1_555 1_555
C59_5 O12_5 1_555 1_555
N18_3 N14_5 1_555 1_555
C28_9 C29_9 1_555 1_555
C29_9 H17_9 1_555 1_555
C30_9 C28_9 1_555 1_555
C31_9 C29_9 1_555 1_555
H19_9 C31_9 1_555 1_555
C32_9 C30_9 1_555 1_555
H20_9 C32_9 1_555 1_555
N20_8 C31_9 1_555 1_555
C32_9 N20_8 1_555 1_555
Cu5_12 N4_8 1_555 1_555
C17_10 C18_10 1_555 1_555
C18_10 H11_10 1_555 1_555
C19_10 C18_10 1_555 1_555
H12_10 C19_10 1_555 1_555
C20_10 C19_10 1_555 1_555
H13_10 C20_10 1_555 1_555
C21_10 C20_10 1_555 1_555
H14_10 C21_10 1_555 1_555
C22_10 C17_10 1_555 1_555
C23_10 C22_10 1_555 1_555
H15_10 C23_10 1_555 1_555
C24_10 C23_10 1_555 1_555
H16_10 C24_10 1_555 1_555
C25_10 C24_10 1_555 1_555
C26_10 C25_10 1_555 1_555
C27_10 C28_10 1_555 1_555
C28_10 C29_10 1_555 1_555
N18_2 C26_10 1_555 1_555
N6_10 C27_10 1_555 1_555
N19_2 C17_10 1_555 1_555
O10_10 C26_10 1_555 1_555
C29_10 H17_10 1_555 1_555
C30_10 C28_10 1_555 1_555
H18_10 C30_10 1_555 1_555
C31_10 C29_10 1_555 1_555
H19_10 C31_10 1_555 1_555
C32_10 C30_10 1_555 1_555
H20_10 C32_10 1_555 1_555
N20_9 C31_10 1_555 1_555
C21_10 C22_10 1_555 1_555
C25_10 N19_2 1_555 1_555
C27_10 O10_10 1_555 1_555
N18_2 N6_10 1_555 1_555
C32_10 N20_9 1_555 1_555
N5_5 Cu5_10 1_555 1_555
N7_5 Cu5_11 1_555 1_555
C17_11 C18_11 1_555 1_555
C18_11 H11_11 1_555 1_555
C19_11 C18_11 1_555 1_555
H12_11 C19_11 1_555 1_555
C20_11 C19_11 1_555 1_555
H13_11 C20_11 1_555 1_555
C21_11 C20_11 1_555 1_555
H14_11 C21_11 1_555 1_555
C22_11 C17_11 1_555 1_555
C23_11 C22_11 1_555 1_555
H15_11 C23_11 1_555 1_555
C24_11 C23_11 1_555 1_555
H16_11 C24_11 1_555 1_555
C25_11 C24_11 1_555 1_555
C26_11 C25_11 1_555 1_555
N19_7 C17_11 1_555 1_555
C49_6 C50_6 1_555 1_555
C50_6 H31_6 1_555 1_555
C51_6 C50_6 1_555 1_555
H32_6 C51_6 1_555 1_555
C52_6 C51_6 1_555 1_555
H33_6 C52_6 1_555 1_555
C53_6 C52_6 1_555 1_555
H34_6 C53_6 1_555 1_555
C54_6 C49_6 1_555 1_555
C55_6 C54_6 1_555 1_555
H35_6 C55_6 1_555 1_555
C56_6 C55_6 1_555 1_555
H36_6 C56_6 1_555 1_555
C57_6 C56_6 1_555 1_555
C58_6 C57_6 1_555 1_555
N19_9 C49_6 1_555 1_555
C21_11 C22_11 1_555 1_555
C25_11 N19_7 1_555 1_555
C53_6 C54_6 1_555 1_555
C57_6 N19_9 1_555 1_555
C27_11 C28_11 1_555 1_555
C28_11 C29_11 1_555 1_555
N6_11 C27_11 1_555 1_555
C29_11 H17_11 1_555 1_555
C30_11 C28_11 1_555 1_555
H18_11 C30_11 1_555 1_555
C31_11 C29_11 1_555 1_555
H19_11 C31_11 1_555 1_555
C32_11 C30_11 1_555 1_555
H20_11 C32_11 1_555 1_555
N20_5 C31_11 1_555 1_555
C59_6 C60_6 1_555 1_555
C60_6 C61_6 1_555 1_555
N14_6 C59_6 1_555 1_555
C61_6 H37_6 1_555 1_555
C62_6 C60_6 1_555 1_555
H38_6 C62_6 1_555 1_555
C63_6 C61_6 1_555 1_555
H39_6 C63_6 1_555 1_555
C64_6 C62_6 1_555 1_555
H40_6 C64_6 1_555 1_555
C27_11 O10_11 1_555 1_555
N18_7 N6_11 1_555 1_555
C32_11 N20_5 1_555 1_555
C59_6 O12_6 1_555 1_555
N18_9 N14_6 1_555 1_555
C63_6 N20_4 1_555 1_555
C64_6 N20_4 1_555 1_555
C17_12 C18_12 1_555 1_555
C18_12 H11_12 1_555 1_555
C19_12 C18_12 1_555 1_555
H12_12 C19_12 1_555 1_555
C20_12 C19_12 1_555 1_555
H13_12 C20_12 1_555 1_555
C21_12 C20_12 1_555 1_555
H14_12 C21_12 1_555 1_555
C22_12 C17_12 1_555 1_555
C23_12 C22_12 1_555 1_555
H15_12 C23_12 1_555 1_555
C24_12 C23_12 1_555 1_555
H16_12 C24_12 1_555 1_555
C25_12 C24_12 1_555 1_555
C26_12 C25_12 1_555 1_555
N19_8 C17_12 1_555 1_555
C21_12 C22_12 1_555 1_555
C25_12 N19_8 1_555 1_555
C27_12 C28_12 1_555 1_555
C28_12 C29_12 1_555 1_555
N6_12 C27_12 1_555 1_555
C29_12 H17_12 1_555 1_555
C30_12 C28_12 1_555 1_555
H18_12 C30_12 1_555 1_555
C31_12 C29_12 1_555 1_555
H19_12 C31_12 1_555 1_555
C32_12 C30_12 1_555 1_555
H20_12 C32_12 1_555 1_555
N20_6 C31_12 1_555 1_555
C27_12 O10_12 1_555 1_555
N18_8 N6_12 1_555 1_555
C32_12 N20_6 1_555 1_555
N5_6 Cu5_12 1_555 1_555
N7_6 Cu5_13 1_555 1_555

#END
