
###############################################################################
#
# This file contains modified crystal structure data generated from the
# MOF subset of the Cambridge Structural Database (CSD) v543 
# hosted by the Cambridge Crystallographic Data Centre (CCDC).
#
# This work is licensed under the Creative Commons
# Attribution-NonCommercial-ShareAlike 4.0 International License.
# To view a copy of this license, visit
# http://creativecommons.org/licenses/by-nc-sa/4.0/
# or send a letter to
# Creative Commons, PO Box 1866, Mountain View, CA 94042, USA.
#
# CIF created using the CSD Python API on 29 September 2022
# The structure has been converted into the P1 space group
# The structure has a 3D framework
# The original CSD entry HEKTAU is in the monoclinic crystal system
# The framework has been calculated to contain at least 10.0% void space
# The void calculation uses a probe of radius 1.32A, grid spacing 0.4
#
###############################################################################

data_HEKTAU
_chemical_formula_moiety         '(C192 H156 Cd8 N24 O38)n'
_symmetry_cell_setting           triclinic
_symmetry_space_group_name_H-M   'P 1'
_symmetry_Int_Tables_number      1
_space_group_name_Hall           'P 1'
loop_
_symmetry_equiv_pos_site_id
_symmetry_equiv_pos_as_xyz
1 x,y,z
_cell_length_a                   28.978(6)
_cell_length_b                   11.392(2)
_cell_length_c                   21.953(4)
_cell_angle_alpha                90
_cell_angle_beta                 130.38(3)
_cell_angle_gamma                90
_cell_volume                     5520.56
loop_
_atom_site_label
_atom_site_type_symbol
_atom_site_fract_x
_atom_site_fract_y
_atom_site_fract_z
Cd2 Cd 0.18489(3) 0.03448(5) 0.95565(3)
C1 C 0.1539(4) 0.1352(7) 0.5156(4)
C2 C 0.1268(3) 0.2137(6) 0.5408(4)
C3 C 0.1625(4) 0.2985(7) 0.5978(5)
H1 H 0.2038 0.3059 0.6213
C4 C 0.1382(4) 0.3742(7) 0.6213(5)
H2 H 0.1638 0.4307 0.6620
C5 C 0.0781(3) 0.3680(6) 0.5865(4)
C6 C 0.0418(4) 0.2826(7) 0.5273(5)
H3 H 0.0000 0.2763 0.5013
C7 C 0.0680(4) 0.2068(7) 0.5069(5)
H4 H 0.0434 0.1481 0.4676
C8 C 0.0514(3) 0.4516(7) 0.6095(4)
C9 C 0.0832(3) 0.5450(6) 0.6605(4)
H5 H 0.1236 0.5597 0.6819
C10 C 0.0562(3) 0.6179(6) 0.6805(4)
C11 C 0.0888(3) 0.7188(6) 0.7364(4)
C12 C 0.1510(3) 0.7265(7) 0.7942(4)
H6 H 0.1760 0.6686 0.7971
C13 C 0.1771(4) 0.8190(7) 0.8482(5)
H7 H 0.2200 0.8233 0.8869
C14 C 0.0843(4) 0.8986(7) 0.7902(5)
H8 H 0.0608 0.9603 0.7872
C15 C 0.0545(4) 0.8088(7) 0.7343(4)
H9 H 0.0115 0.8079 0.6952
N2 N 0.1448(3) 0.9020(5) 0.8483(4)
O1 O 0.2041(3) 0.1538(5) 0.5365(3)
O2 O 0.1201(3) 0.0482(5) 0.4702(3)
Cd3 Cd 0.18489(3) 0.96552(5) 0.45565(3)
H3_2 H 1.0000 0.2763 0.5013
C16 C 0.9931(3) 0.4355(6) 0.5808(4)
H10 H 0.9701 0.3706 0.5468
C17 C 0.9675(3) 0.5117(6) 0.6006(4)
C18 C 0.9037(3) 0.5018(6) 0.5670(4)
C19 C 0.8767(4) 0.5879(7) 0.5783(5)
H11 H 0.8996 0.6544 0.6103
C20 C 0.8164(4) 0.5787(7) 0.5433(5)
H12 H 0.7989 0.6408 0.5513
C21 C 0.8082(4) 0.4025(6) 0.4889(4)
H13 H 0.7844 0.3363 0.4577
C22 C 0.8678(3) 0.4057(7) 0.5207(5)
H14 H 0.8841 0.3433 0.5111
C23 C 0.6265(4) 0.2759(7) 0.3497(4)
C24 C 0.5910(4) 0.1810(8) 0.2882(5)
H15 H 0.5564 0.1587 0.2841
H16 H 0.6170 0.1125 0.3040
H17 H 0.5763 0.2099 0.2362
Cd1 Cd 0.68489(3) 0.46552(5) 0.45565(3)
N1 N 0.9988(3) 0.6014(5) 0.6506(3)
N3 N 0.7821(3) 0.4882(5) 0.4997(4)
O3 O 0.6824(3) 0.2853(5) 0.3878(3)
O4 O 0.5995(3) 0.3446(5) 0.3625(3)
O5 O 0.7330(2) 0.3721(4) 0.5768(3)
H18 H 0.7168 0.3510 0.5947
H19 H 0.7663 0.3405 0.6034
N4 N 0.6448(3) 0.5980(5) 0.3483(4)
O6 O 0.7041(3) 0.6538(5) 0.5365(3)
O7 O 0.6201(3) 0.5482(5) 0.4702(3)
C9_2 C 0.5832(3) 0.0450(6) 0.6605(4)
H5_2 H 0.6236 0.0597 0.6819
C10_2 C 0.5562(3) 0.1179(6) 0.6805(4)
C11_2 C 0.5888(3) 0.2188(6) 0.7364(4)
C12_2 C 0.6510(3) 0.2265(7) 0.7942(4)
H6_2 H 0.6760 0.1686 0.7971
C13_2 C 0.6771(4) 0.3190(7) 0.8482(5)
H7_2 H 0.7200 0.3233 0.8869
C14_2 C 0.5843(4) 0.3986(7) 0.7902(5)
H8_2 H 0.5608 0.4603 0.7872
C15_2 C 0.5545(4) 0.3088(7) 0.7343(4)
H9_2 H 0.5115 0.3079 0.6952
C17_2 C 0.4675(3) 0.0117(6) 0.6006(4)
C18_2 C 0.4037(3) 0.0018(6) 0.5670(4)
C19_2 C 0.3767(4) 0.0879(7) 0.5783(5)
H11_2 H 0.3996 0.1544 0.6103
C20_2 C 0.3164(4) 0.0787(7) 0.5433(5)
H12_2 H 0.2989 0.1408 0.5513
N1_2 N 0.4988(3) 0.1014(5) 0.6506(3)
N2_2 N 0.6448(3) 0.4020(5) 0.8483(4)
Cd2_2 Cd 0.68489(3) 0.53448(5) 0.95565(3)
N4_2 N 0.1448(3) 0.0980(5) 0.3483(4)
C1_2 C 0.6539(4) 0.6352(7) 0.5156(4)
C2_2 C 0.6268(3) 0.7137(6) 0.5408(4)
C3_2 C 0.6625(4) 0.7985(7) 0.5978(5)
H1_2 H 0.7038 0.8059 0.6213
C4_2 C 0.6382(4) 0.8742(7) 0.6213(5)
H2_2 H 0.6638 0.9307 0.6620
C5_2 C 0.5781(3) 0.8680(6) 0.5865(4)
C6_2 C 0.5418(4) 0.7826(7) 0.5273(5)
H3_3 H 0.5000 0.7763 0.5013
C7_2 C 0.5680(4) 0.7068(7) 0.5069(5)
H4_2 H 0.5434 0.6481 0.4676
C8_2 C 0.5514(3) 0.9516(7) 0.6095(4)
C16_2 C 0.4931(3) 0.9355(6) 0.5808(4)
H10_2 H 0.4701 0.8706 0.5468
C21_2 C 0.3082(4) 0.9025(6) 0.4889(4)
H13_2 H 0.2844 0.8363 0.4577
C22_2 C 0.3678(3) 0.9057(7) 0.5207(5)
H14_2 H 0.3841 0.8433 0.5111
C23_2 C 0.1265(4) 0.7759(7) 0.3497(4)
C24_2 C 0.0910(4) 0.6810(8) 0.2882(5)
H15_2 H 0.0564 0.6587 0.2841
H16_2 H 0.1170 0.6125 0.3040
H17_2 H 0.0763 0.7099 0.2362
N3_2 N 0.2821(3) 0.9882(5) 0.4997(4)
O3_2 O 0.1824(3) 0.7853(5) 0.3878(3)
O4_2 O 0.0995(3) 0.8446(5) 0.3625(3)
O5_2 O 0.2330(2) 0.8721(4) 0.5768(3)
H18_2 H 0.2168 0.8510 0.5947
H19_2 H 0.2663 0.8405 0.6034
C1_3 C 0.1539(4) 0.8648(7) 0.0156(4)
C2_3 C 0.1268(3) 0.7863(6) 0.0408(4)
C3_3 C 0.1625(4) 0.7015(7) 0.0978(5)
H1_3 H 0.2038 0.6941 0.1213
C4_3 C 0.1382(4) 0.6258(7) 0.1213(5)
H2_3 H 0.1638 0.5693 0.1620
C5_3 C 0.0781(3) 0.6320(6) 0.0865(4)
C6_3 C 0.0418(4) 0.7174(7) 0.0273(5)
H3_4 H 0.0000 0.7237 0.0013
C7_3 C 0.0680(4) 0.7932(7) 0.0069(5)
C8_3 C 0.0514(3) 0.5484(7) 0.1095(4)
C9_3 C 0.0832(3) 0.4550(6) 0.1605(4)
H5_3 H 0.1236 0.4403 0.1819
C10_3 C 0.0562(3) 0.3821(6) 0.1805(4)
C11_3 C 0.0888(3) 0.2812(6) 0.2364(4)
C12_3 C 0.1510(3) 0.2735(7) 0.2942(4)
H6_3 H 0.1760 0.3314 0.2971
C13_3 C 0.1771(4) 0.1810(7) 0.3482(5)
H7_3 H 0.2200 0.1767 0.3869
C14_3 C 0.0843(4) 0.1014(7) 0.2902(5)
H8_3 H 0.0608 0.0397 0.2872
C15_3 C 0.0545(4) 0.1912(7) 0.2343(4)
H9_3 H 0.0115 0.1921 0.1952
O1_2 O 0.2041(3) 0.8462(5) 0.0365(3)
H4_3 H 0.0434 0.8519 0.9676
O2_2 O 0.1201(3) 0.9518(5) 0.9702(3)
C21_3 C 0.8082(4) 0.5975(6) 0.9889(4)
H13_3 H 0.7844 0.6637 0.9577
C23_3 C 0.6265(4) 0.7241(7) 0.8497(4)
C24_3 C 0.5910(4) 0.8190(8) 0.7882(5)
H15_3 H 0.5564 0.8413 0.7841
H16_3 H 0.6170 0.8875 0.8040
H17_3 H 0.5763 0.7901 0.7362
N3_3 N 0.7821(3) 0.5118(5) 0.9997(4)
O3_3 O 0.6824(3) 0.7147(5) 0.8878(3)
O4_3 O 0.5995(3) 0.6554(5) 0.8625(3)
O7_2 O 0.6201(3) 0.4518(5) 0.9702(3)
H4_4 H 0.5434 0.3519 0.9676
C21_4 C 0.3082(4) 0.0975(6) 0.9889(4)
H13_4 H 0.2844 0.1637 0.9577
C23_4 C 0.1265(4) 0.2241(7) 0.8497(4)
C24_4 C 0.0910(4) 0.3190(8) 0.7882(5)
H15_4 H 0.0564 0.3413 0.7841
H16_4 H 0.1170 0.3875 0.8040
H17_4 H 0.0763 0.2901 0.7362
N3_4 N 0.2821(3) 0.0118(5) 0.9997(4)
O3_4 O 0.1824(3) 0.2147(5) 0.8878(3)
O4_4 O 0.0995(3) 0.1554(5) 0.8625(3)
C9_4 C 0.5832(3) 0.9550(6) 0.1605(4)
H5_4 H 0.6236 0.9403 0.1819
C10_4 C 0.5562(3) 0.8821(6) 0.1805(4)
C11_4 C 0.5888(3) 0.7812(6) 0.2364(4)
C12_4 C 0.6510(3) 0.7735(7) 0.2942(4)
H6_4 H 0.6760 0.8314 0.2971
C13_4 C 0.6771(4) 0.6810(7) 0.3482(5)
H7_4 H 0.7200 0.6767 0.3869
C14_4 C 0.5843(4) 0.6014(7) 0.2902(5)
H8_4 H 0.5608 0.5397 0.2872
C15_4 C 0.5545(4) 0.6912(7) 0.2343(4)
H9_4 H 0.5115 0.6921 0.1952
C17_3 C 0.4675(3) 0.9883(6) 0.1006(4)
C18_3 C 0.4037(3) 0.9982(6) 0.0670(4)
C19_3 C 0.3767(4) 0.9121(7) 0.0783(5)
H11_3 H 0.3996 0.8456 0.1103
C20_3 C 0.3164(4) 0.9213(7) 0.0433(5)
H12_3 H 0.2989 0.8592 0.0513
N1_3 N 0.4988(3) 0.8986(5) 0.1506(3)
C21_5 C 0.1918(4) 0.4025(6) 0.0111(4)
H13_5 H 0.2156 0.3363 0.0423
C23_5 C 0.3735(4) 0.2759(7) 0.1503(4)
C24_5 C 0.4090(4) 0.1810(8) 0.2118(5)
H15_5 H 0.4436 0.1587 0.2159
H16_5 H 0.3830 0.1125 0.1960
H17_5 H 0.4237 0.2099 0.2638
Cd1_2 Cd 0.31511(3) 0.46552(5) 0.04435(3)
N3_5 N 0.2179(3) 0.4882(5) 0.0003(4)
O3_5 O 0.3176(3) 0.2853(5) 0.1122(3)
O4_5 O 0.4005(3) 0.3446(5) 0.1375(3)
N4_3 N 0.3552(3) 0.5980(5) 0.1517(4)
O7_3 O 0.3799(3) 0.5482(5) 0.0298(3)
Cd2_3 Cd 0.81511(3) 0.03448(5) 0.54435(3)
H4_5 H 0.9566 0.1481 0.0324
O2_3 O 0.8799(3) 0.0482(5) 0.0298(3)
C1_4 C 0.8461(4) 0.1352(7) 0.9844(4)
C2_4 C 0.8732(3) 0.2137(6) 0.9592(4)
C3_4 C 0.8375(4) 0.2985(7) 0.9022(5)
H1_4 H 0.7962 0.3059 0.8787
C4_4 C 0.8618(4) 0.3742(7) 0.8787(5)
H2_4 H 0.8362 0.4307 0.8380
C5_4 C 0.9219(3) 0.3680(6) 0.9135(4)
C6_4 C 0.9582(4) 0.2826(7) 0.9727(5)
H3_5 H 1.0000 0.2763 0.9987
C7_4 C 0.9320(4) 0.2068(7) 0.9931(5)
C8_4 C 0.9486(3) 0.4516(7) 0.8905(4)
C9_5 C 0.9168(3) 0.5450(6) 0.8395(4)
H5_5 H 0.8764 0.5597 0.8181
C10_5 C 0.9438(3) 0.6179(6) 0.8195(4)
C11_5 C 0.9112(3) 0.7188(6) 0.7636(4)
C12_5 C 0.8490(3) 0.7265(7) 0.7058(4)
H6_5 H 0.8240 0.6686 0.7029
C13_5 C 0.8229(4) 0.8190(7) 0.6518(5)
H7_5 H 0.7800 0.8233 0.6131
C14_5 C 0.9157(4) 0.8986(7) 0.7098(5)
H8_5 H 0.9392 0.9603 0.7128
C15_5 C 0.9455(4) 0.8088(7) 0.7657(4)
H9_5 H 0.9885 0.8079 0.8048
N2_3 N 0.8552(3) 0.9020(5) 0.6517(4)
O1_3 O 0.7959(3) 0.1538(5) 0.9635(3)
Cd3_2 Cd 0.81511(3) 0.96552(5) 0.04435(3)
N4_4 N 0.8552(3) 0.0980(5) 0.1517(4)
C9_6 C 0.4168(3) 0.0450(6) 0.8395(4)
H5_6 H 0.3764 0.0597 0.8181
C10_6 C 0.4438(3) 0.1179(6) 0.8195(4)
C11_6 C 0.4112(3) 0.2188(6) 0.7636(4)
C12_6 C 0.3490(3) 0.2265(7) 0.7058(4)
H6_6 H 0.3240 0.1686 0.7029
C13_6 C 0.3229(4) 0.3190(7) 0.6518(5)
H7_6 H 0.2800 0.3233 0.6131
C14_6 C 0.4157(4) 0.3986(7) 0.7098(5)
H8_6 H 0.4392 0.4603 0.7128
C15_6 C 0.4455(4) 0.3088(7) 0.7657(4)
H9_6 H 0.4885 0.3079 0.8048
C17_4 C 0.5325(3) 0.0117(6) 0.8994(4)
C18_4 C 0.5963(3) 0.0018(6) 0.9330(4)
C19_4 C 0.6233(4) 0.0879(7) 0.9217(5)
H11_4 H 0.6004 0.1544 0.8897
C20_4 C 0.6836(4) 0.0787(7) 0.9567(5)
H12_4 H 0.7011 0.1408 0.9487
N1_4 N 0.5012(3) 0.1014(5) 0.8494(3)
N2_4 N 0.3552(3) 0.4020(5) 0.6517(4)
Cd2_4 Cd 0.31511(3) 0.53448(5) 0.54435(3)
H4_6 H 0.4566 0.6481 0.0324
C21_6 C 0.6918(4) 0.9025(6) 0.0111(4)
H13_6 H 0.7156 0.8363 0.0423
C23_6 C 0.8735(4) 0.7759(7) 0.1503(4)
C24_6 C 0.9090(4) 0.6810(8) 0.2118(5)
H15_6 H 0.9436 0.6587 0.2159
H16_6 H 0.8830 0.6125 0.1960
H17_6 H 0.9237 0.7099 0.2638
N3_6 N 0.7179(3) 0.9882(5) 0.0003(4)
O3_6 O 0.8176(3) 0.7853(5) 0.1122(3)
O4_6 O 0.9005(3) 0.8446(5) 0.1375(3)
H3_6 H 0.0000 0.7237 0.4987
C16_3 C 0.0069(3) 0.5645(6) 0.4192(4)
H10_3 H 0.0299 0.6294 0.4532
C17_5 C 0.0325(3) 0.4883(6) 0.3994(4)
C18_5 C 0.0963(3) 0.4982(6) 0.4330(4)
C19_5 C 0.1233(4) 0.4121(7) 0.4217(5)
H11_5 H 0.1004 0.3456 0.3897
C20_5 C 0.1836(4) 0.4213(7) 0.4567(5)
H12_5 H 0.2011 0.3592 0.4487
C21_7 C 0.1918(4) 0.5975(6) 0.5111(4)
H13_7 H 0.2156 0.6637 0.5423
C22_3 C 0.1322(3) 0.5943(7) 0.4793(5)
H14_3 H 0.1159 0.6567 0.4889
C23_7 C 0.3735(4) 0.7241(7) 0.6503(4)
C24_7 C 0.4090(4) 0.8190(8) 0.7118(5)
H15_7 H 0.4436 0.8413 0.7159
H16_7 H 0.3830 0.8875 0.6960
H17_7 H 0.4237 0.7901 0.7638
N1_5 N 0.0012(3) 0.3986(5) 0.3494(3)
N3_7 N 0.2179(3) 0.5118(5) 0.5003(4)
O3_7 O 0.3176(3) 0.7147(5) 0.6122(3)
O4_7 O 0.4005(3) 0.6554(5) 0.6375(3)
O5_3 O 0.2670(2) 0.6279(4) 0.4232(3)
H18_3 H 0.2832 0.6490 0.4053
H19_3 H 0.2337 0.6595 0.3966
O6_2 O 0.2959(3) 0.3462(5) 0.4635(3)
O7_4 O 0.3799(3) 0.4518(5) 0.5298(3)
C1_5 C 0.8461(4) 0.8648(7) 0.4844(4)
C2_5 C 0.8732(3) 0.7863(6) 0.4592(4)
C3_5 C 0.8375(4) 0.7015(7) 0.4022(5)
H1_5 H 0.7962 0.6941 0.3787
C4_5 C 0.8618(4) 0.6258(7) 0.3787(5)
H2_5 H 0.8362 0.5693 0.3380
C5_5 C 0.9219(3) 0.6320(6) 0.4135(4)
C6_5 C 0.9582(4) 0.7174(7) 0.4727(5)
H3_7 H 1.0000 0.7237 0.4987
C7_5 C 0.9320(4) 0.7932(7) 0.4931(5)
H4_7 H 0.9566 0.8519 0.5324
C8_5 C 0.9486(3) 0.5484(7) 0.3905(4)
C9_7 C 0.9168(3) 0.4550(6) 0.3395(4)
H5_7 H 0.8764 0.4403 0.3181
C10_7 C 0.9438(3) 0.3821(6) 0.3195(4)
C11_7 C 0.9112(3) 0.2812(6) 0.2636(4)
C12_7 C 0.8490(3) 0.2735(7) 0.2058(4)
H6_7 H 0.8240 0.3314 0.2029
C13_7 C 0.8229(4) 0.1810(7) 0.1518(5)
H7_7 H 0.7800 0.1767 0.1131
C14_7 C 0.9157(4) 0.1014(7) 0.2098(5)
H8_7 H 0.9392 0.0397 0.2128
C15_7 C 0.9455(4) 0.1912(7) 0.2657(4)
H9_7 H 0.9885 0.1921 0.3048
O1_4 O 0.7959(3) 0.8462(5) 0.4635(3)
O2_4 O 0.8799(3) 0.9518(5) 0.5298(3)
C1_6 C 0.3461(4) 0.3648(7) 0.4844(4)
C2_6 C 0.3732(3) 0.2863(6) 0.4592(4)
C3_6 C 0.3375(4) 0.2015(7) 0.4022(5)
H1_6 H 0.2962 0.1941 0.3787
C4_6 C 0.3618(4) 0.1258(7) 0.3787(5)
H2_6 H 0.3362 0.0693 0.3380
C5_6 C 0.4219(3) 0.1320(6) 0.4135(4)
C6_6 C 0.4582(4) 0.2174(7) 0.4727(5)
H3_8 H 0.5000 0.2237 0.4987
C7_6 C 0.4320(4) 0.2932(7) 0.4931(5)
H4_8 H 0.4566 0.3519 0.5324
C8_6 C 0.4486(3) 0.0484(7) 0.3905(4)
C16_4 C 0.5069(3) 0.0645(6) 0.4192(4)
H10_4 H 0.5299 0.1294 0.4532
C21_8 C 0.6918(4) 0.0975(6) 0.5111(4)
H13_8 H 0.7156 0.1637 0.5423
C22_4 C 0.6322(3) 0.0943(7) 0.4793(5)
H14_4 H 0.6159 0.1567 0.4889
C23_8 C 0.8735(4) 0.2241(7) 0.6503(4)
C24_8 C 0.9090(4) 0.3190(8) 0.7118(5)
H15_8 H 0.9436 0.3413 0.7159
H16_8 H 0.8830 0.3875 0.6960
H17_8 H 0.9237 0.2901 0.7638
N3_8 N 0.7179(3) 0.0118(5) 0.5003(4)
O3_8 O 0.8176(3) 0.2147(5) 0.6122(3)
O4_8 O 0.9005(3) 0.1554(5) 0.6375(3)
O5_4 O 0.7670(2) 0.1279(4) 0.4232(3)
H18_4 H 0.7832 0.1490 0.4053
H19_4 H 0.7337 0.1595 0.3966
C9_8 C 0.4168(3) 0.9550(6) 0.3395(4)
H5_8 H 0.3764 0.9403 0.3181
C10_8 C 0.4438(3) 0.8821(6) 0.3195(4)
C11_8 C 0.4112(3) 0.7812(6) 0.2636(4)
C12_8 C 0.3490(3) 0.7735(7) 0.2058(4)
H6_8 H 0.3240 0.8314 0.2029
C13_8 C 0.3229(4) 0.6810(7) 0.1518(5)
H7_8 H 0.2800 0.6767 0.1131
C14_8 C 0.4157(4) 0.6014(7) 0.2098(5)
H8_8 H 0.4392 0.5397 0.2128
C15_8 C 0.4455(4) 0.6912(7) 0.2657(4)
H9_8 H 0.4885 0.6921 0.3048
C17_6 C 0.5325(3) 0.9883(6) 0.3994(4)
C18_6 C 0.5963(3) 0.9982(6) 0.4330(4)
C19_6 C 0.6233(4) 0.9121(7) 0.4217(5)
H11_6 H 0.6004 0.8456 0.3897
C20_6 C 0.6836(4) 0.9213(7) 0.4567(5)
H12_6 H 0.7011 0.8592 0.4487
N1_6 N 0.5012(3) 0.8986(5) 0.3494(3)
H3_9 H 0.0000 0.2763 0.9987
C16_5 C 0.0069(3) 0.4355(6) 0.9192(4)
H10_5 H 0.0299 0.3706 0.9532
C17_7 C 0.0325(3) 0.5117(6) 0.8994(4)
C18_7 C 0.0963(3) 0.5018(6) 0.9330(4)
C19_7 C 0.1233(4) 0.5879(7) 0.9217(5)
H11_7 H 0.1004 0.6544 0.8897
C20_7 C 0.1836(4) 0.5787(7) 0.9567(5)
H12_7 H 0.2011 0.6408 0.9487
C22_5 C 0.1322(3) 0.4057(7) 0.9793(5)
H14_5 H 0.1159 0.3433 0.9889
N1_7 N 0.0012(3) 0.6014(5) 0.8494(3)
O5_5 O 0.2670(2) 0.3721(4) 0.9232(3)
H18_5 H 0.2832 0.3510 0.9053
H19_5 H 0.2337 0.3405 0.8966
O6_3 O 0.2959(3) 0.6538(5) 0.9635(3)
C1_7 C 0.3461(4) 0.6352(7) 0.9844(4)
C2_7 C 0.3732(3) 0.7137(6) 0.9592(4)
C3_7 C 0.3375(4) 0.7985(7) 0.9022(5)
H1_7 H 0.2962 0.8059 0.8787
C4_7 C 0.3618(4) 0.8742(7) 0.8787(5)
H2_7 H 0.3362 0.9307 0.8380
C5_7 C 0.4219(3) 0.8680(6) 0.9135(4)
C6_7 C 0.4582(4) 0.7826(7) 0.9727(5)
H3_10 H 0.5000 0.7763 0.9987
C7_7 C 0.4320(4) 0.7068(7) 0.9931(5)
C8_7 C 0.4486(3) 0.9516(7) 0.8905(4)
C16_6 C 0.5069(3) 0.9355(6) 0.9192(4)
H10_6 H 0.5299 0.8706 0.9532
C22_6 C 0.6322(3) 0.9057(7) 0.9793(5)
H14_6 H 0.6159 0.8433 0.9889
O5_6 O 0.7670(2) 0.8721(4) 0.9232(3)
H18_6 H 0.7832 0.8510 0.9053
H19_6 H 0.7337 0.8405 0.8966
H3_11 H 1.0000 0.7237 0.0013
C16_7 C 0.9931(3) 0.5645(6) 0.0808(4)
H10_7 H 0.9701 0.6294 0.0468
C17_8 C 0.9675(3) 0.4883(6) 0.1006(4)
C18_8 C 0.9037(3) 0.4982(6) 0.0670(4)
C19_8 C 0.8767(4) 0.4121(7) 0.0783(5)
H11_8 H 0.8996 0.3456 0.1103
C20_8 C 0.8164(4) 0.4213(7) 0.0433(5)
H12_8 H 0.7989 0.3592 0.0513
C22_7 C 0.8678(3) 0.5943(7) 0.0207(5)
H14_7 H 0.8841 0.6567 0.0111
N1_8 N 0.9988(3) 0.3986(5) 0.1506(3)
O5_7 O 0.7330(2) 0.6279(4) 0.0768(3)
H18_7 H 0.7168 0.6490 0.0947
H19_7 H 0.7663 0.6595 0.1034
O6_4 O 0.7041(3) 0.3462(5) 0.0365(3)
C1_8 C 0.6539(4) 0.3648(7) 0.0156(4)
C2_8 C 0.6268(3) 0.2863(6) 0.0408(4)
C3_8 C 0.6625(4) 0.2015(7) 0.0978(5)
H1_8 H 0.7038 0.1941 0.1213
C4_8 C 0.6382(4) 0.1258(7) 0.1213(5)
H2_8 H 0.6638 0.0693 0.1620
C5_8 C 0.5781(3) 0.1320(6) 0.0865(4)
C6_8 C 0.5418(4) 0.2174(7) 0.0273(5)
H3_12 H 0.5000 0.2237 0.0013
C7_8 C 0.5680(4) 0.2932(7) 0.0069(5)
C8_8 C 0.5514(3) 0.0484(7) 0.1095(4)
C16_8 C 0.4931(3) 0.0645(6) 0.0808(4)
H10_8 H 0.4701 0.1294 0.0468
C22_8 C 0.3678(3) 0.0943(7) 0.0207(5)
H14_8 H 0.3841 0.1567 0.0111
O5_8 O 0.2330(2) 0.1279(4) 0.0768(3)
H18_8 H 0.2168 0.1490 0.0947
H19_8 H 0.2663 0.1595 0.1034
loop_
_geom_bond_atom_site_label_1
_geom_bond_atom_site_label_2
_geom_bond_site_symmetry_1
_geom_bond_site_symmetry_2
C1 C2 1_555 1_555
C2 C3 1_555 1_555
C3 H1 1_555 1_555
C4 C3 1_555 1_555
H2 C4 1_555 1_555
C5 C4 1_555 1_555
C6 C5 1_555 1_555
H3 C6 1_555 1_555
C7 C2 1_555 1_555
H4 C7 1_555 1_555
C8 C5 1_555 1_555
C9 C8 1_555 1_555
H5 C9 1_555 1_555
C10 C9 1_555 1_555
C11 C10 1_555 1_555
C12 C11 1_555 1_555
H6 C12 1_555 1_555
C13 C12 1_555 1_555
H7 C13 1_555 1_555
C14 H8 1_555 1_555
C15 C11 1_555 1_555
H9 C15 1_555 1_555
N2 C13 1_555 1_555
O1 C1 1_555 1_555
O2 C1 1_555 1_555
C6 C7 1_555 1_555
C14 C15 1_555 1_555
C14 N2 1_555 1_555
H10 C16 1_555 1_555
C17 C16 1_555 1_555
C18 C17 1_555 1_555
C19 C18 1_555 1_555
H11 C19 1_555 1_555
C20 C19 1_555 1_555
H12 C20 1_555 1_555
C21 H13 1_555 1_555
C22 C18 1_555 1_555
H14 C22 1_555 1_555
C23 C24 1_555 1_555
C24 H15 1_555 1_555
H16 C24 1_555 1_555
H17 C24 1_555 1_555
Cd1 N3 1_555 1_555
N3 C20 1_555 1_555
O3 C23 1_555 1_555
O4 C23 1_555 1_555
O5 Cd1 1_555 1_555
H18 O5 1_555 1_555
H19 O5 1_555 1_555
N4 Cd1 1_555 1_555
O6 Cd1 1_555 1_555
O7 Cd1 1_555 1_555
C17 N1 1_555 1_555
C21 C22 1_555 1_555
C21 N3 1_555 1_555
Cd1 O3 1_555 1_555
Cd1 O4 1_555 1_555
H5_2 C9_2 1_555 1_555
C10_2 C9_2 1_555 1_555
C11_2 C10_2 1_555 1_555
C12_2 C11_2 1_555 1_555
H6_2 C12_2 1_555 1_555
C13_2 C12_2 1_555 1_555
H7_2 C13_2 1_555 1_555
C14_2 H8_2 1_555 1_555
C15_2 C11_2 1_555 1_555
H9_2 C15_2 1_555 1_555
C18_2 C17_2 1_555 1_555
C19_2 C18_2 1_555 1_555
H11_2 C19_2 1_555 1_555
C20_2 C19_2 1_555 1_555
H12_2 C20_2 1_555 1_555
N1_2 C10_2 1_555 1_555
N2_2 C13_2 1_555 1_555
Cd2_2 N2_2 1_555 1_555
C14_2 C15_2 1_555 1_555
C14_2 N2_2 1_555 1_555
C17_2 N1_2 1_555 1_555
C1_2 C2_2 1_555 1_555
C2_2 C3_2 1_555 1_555
C3_2 H1_2 1_555 1_555
C4_2 C3_2 1_555 1_555
H2_2 C4_2 1_555 1_555
C5_2 C4_2 1_555 1_555
C6_2 C5_2 1_555 1_555
H3_3 C6_2 1_555 1_555
C7_2 C2_2 1_555 1_555
H4_2 C7_2 1_555 1_555
C8_2 C5_2 1_555 1_555
C16_2 C8_2 1_555 1_555
H10_2 C16_2 1_555 1_555
C21_2 H13_2 1_555 1_555
H14_2 C22_2 1_555 1_555
C23_2 C24_2 1_555 1_555
C24_2 H15_2 1_555 1_555
H16_2 C24_2 1_555 1_555
H17_2 C24_2 1_555 1_555
Cd3 N3_2 1_555 1_555
O6 C1_2 1_555 1_555
O7 C1_2 1_555 1_555
O3_2 C23_2 1_555 1_555
O4_2 C23_2 1_555 1_555
O5_2 Cd3 1_555 1_555
H18_2 O5_2 1_555 1_555
H19_2 O5_2 1_555 1_555
C6_2 C7_2 1_555 1_555
C21_2 C22_2 1_555 1_555
C21_2 N3_2 1_555 1_555
Cd3 O3_2 1_555 1_555
Cd3 O4_2 1_555 1_555
C1_3 C2_3 1_555 1_555
C2_3 C3_3 1_555 1_555
C3_3 H1_3 1_555 1_555
C4_3 C3_3 1_555 1_555
H2_3 C4_3 1_555 1_555
C5_3 C4_3 1_555 1_555
C6_3 C5_3 1_555 1_555
H3_4 C6_3 1_555 1_555
C7_3 C2_3 1_555 1_555
C8_3 C5_3 1_555 1_555
C9_3 C8_3 1_555 1_555
H5_3 C9_3 1_555 1_555
C10_3 C9_3 1_555 1_555
C11_3 C10_3 1_555 1_555
C12_3 C11_3 1_555 1_555
H6_3 C12_3 1_555 1_555
C13_3 C12_3 1_555 1_555
H7_3 C13_3 1_555 1_555
C14_3 H8_3 1_555 1_555
C15_3 C11_3 1_555 1_555
H9_3 C15_3 1_555 1_555
N4_2 C13_3 1_555 1_555
O1_2 C1_3 1_555 1_555
C6_3 C7_3 1_555 1_555
C14_3 C15_3 1_555 1_555
C14_3 N4_2 1_555 1_555
C21_3 H13_3 1_555 1_555
C23_3 C24_3 1_555 1_555
C24_3 H15_3 1_555 1_555
H16_3 C24_3 1_555 1_555
H17_3 C24_3 1_555 1_555
Cd2_2 N3_3 1_555 1_555
O3_3 C23_3 1_555 1_555
O4_3 C23_3 1_555 1_555
O7_2 Cd2_2 1_555 1_555
C21_3 N3_3 1_555 1_555
Cd2_2 O3_3 1_555 1_555
Cd2_2 O4_3 1_555 1_555
C21_4 H13_4 1_555 1_555
C23_4 C24_4 1_555 1_555
C24_4 H15_4 1_555 1_555
H16_4 C24_4 1_555 1_555
H17_4 C24_4 1_555 1_555
Cd2 N3_4 1_555 1_555
O3_4 C23_4 1_555 1_555
O4_4 C23_4 1_555 1_555
C21_4 N3_4 1_555 1_555
Cd2 O3_4 1_555 1_555
Cd2 O4_4 1_555 1_555
H5_4 C9_4 1_555 1_555
C10_4 C9_4 1_555 1_555
C11_4 C10_4 1_555 1_555
C12_4 C11_4 1_555 1_555
H6_4 C12_4 1_555 1_555
C13_4 C12_4 1_555 1_555
H7_4 C13_4 1_555 1_555
C14_4 H8_4 1_555 1_555
C15_4 C11_4 1_555 1_555
H9_4 C15_4 1_555 1_555
C18_3 C17_3 1_555 1_555
C19_3 C18_3 1_555 1_555
H11_3 C19_3 1_555 1_555
C20_3 C19_3 1_555 1_555
H12_3 C20_3 1_555 1_555
N1_3 C10_4 1_555 1_555
N4 C13_4 1_555 1_555
C14_4 C15_4 1_555 1_555
C14_4 N4 1_555 1_555
C17_3 N1_3 1_555 1_555
C21_5 H13_5 1_555 1_555
C23_5 C24_5 1_555 1_555
C24_5 H15_5 1_555 1_555
H16_5 C24_5 1_555 1_555
H17_5 C24_5 1_555 1_555
Cd1_2 N3_5 1_555 1_555
O3_5 C23_5 1_555 1_555
O4_5 C23_5 1_555 1_555
N4_3 Cd1_2 1_555 1_555
O7_3 Cd1_2 1_555 1_555
C21_5 N3_5 1_555 1_555
Cd1_2 O3_5 1_555 1_555
Cd1_2 O4_5 1_555 1_555
C1_4 C2_4 1_555 1_555
C2_4 C3_4 1_555 1_555
C3_4 H1_4 1_555 1_555
C4_4 C3_4 1_555 1_555
H2_4 C4_4 1_555 1_555
C5_4 C4_4 1_555 1_555
C6_4 C5_4 1_555 1_555
H3_5 C6_4 1_555 1_555
C7_4 C2_4 1_555 1_555
C8_4 C5_4 1_555 1_555
C9_5 C8_4 1_555 1_555
H5_5 C9_5 1_555 1_555
C10_5 C9_5 1_555 1_555
C11_5 C10_5 1_555 1_555
C12_5 C11_5 1_555 1_555
H6_5 C12_5 1_555 1_555
C13_5 C12_5 1_555 1_555
H7_5 C13_5 1_555 1_555
C14_5 H8_5 1_555 1_555
C15_5 C11_5 1_555 1_555
H9_5 C15_5 1_555 1_555
N2_3 C13_5 1_555 1_555
O1_3 C1_4 1_555 1_555
C6_4 C7_4 1_555 1_555
C14_5 C15_5 1_555 1_555
C14_5 N2_3 1_555 1_555
H5_6 C9_6 1_555 1_555
C10_6 C9_6 1_555 1_555
C11_6 C10_6 1_555 1_555
C12_6 C11_6 1_555 1_555
H6_6 C12_6 1_555 1_555
C13_6 C12_6 1_555 1_555
H7_6 C13_6 1_555 1_555
C14_6 H8_6 1_555 1_555
C15_6 C11_6 1_555 1_555
H9_6 C15_6 1_555 1_555
C18_4 C17_4 1_555 1_555
C19_4 C18_4 1_555 1_555
H11_4 C19_4 1_555 1_555
C20_4 C19_4 1_555 1_555
H12_4 C20_4 1_555 1_555
N1_4 C10_6 1_555 1_555
N2_4 C13_6 1_555 1_555
Cd2_4 N2_4 1_555 1_555
C14_6 C15_6 1_555 1_555
C14_6 N2_4 1_555 1_555
C17_4 N1_4 1_555 1_555
C21_6 H13_6 1_555 1_555
C23_6 C24_6 1_555 1_555
C24_6 H15_6 1_555 1_555
H16_6 C24_6 1_555 1_555
H17_6 C24_6 1_555 1_555
Cd3_2 N3_6 1_555 1_555
O3_6 C23_6 1_555 1_555
O4_6 C23_6 1_555 1_555
C21_6 N3_6 1_555 1_555
Cd3_2 O3_6 1_555 1_555
Cd3_2 O4_6 1_555 1_555
H10_3 C16_3 1_555 1_555
C17_5 C16_3 1_555 1_555
C18_5 C17_5 1_555 1_555
C19_5 C18_5 1_555 1_555
H11_5 C19_5 1_555 1_555
C20_5 C19_5 1_555 1_555
H12_5 C20_5 1_555 1_555
C21_7 H13_7 1_555 1_555
C22_3 C18_5 1_555 1_555
H14_3 C22_3 1_555 1_555
C23_7 C24_7 1_555 1_555
C24_7 H15_7 1_555 1_555
H16_7 C24_7 1_555 1_555
H17_7 C24_7 1_555 1_555
Cd2_4 N3_7 1_555 1_555
N3_7 C20_5 1_555 1_555
O3_7 C23_7 1_555 1_555
O4_7 C23_7 1_555 1_555
O5_3 Cd2_4 1_555 1_555
H18_3 O5_3 1_555 1_555
H19_3 O5_3 1_555 1_555
O6_2 Cd2_4 1_555 1_555
O7_4 Cd2_4 1_555 1_555
C17_5 N1_5 1_555 1_555
C21_7 C22_3 1_555 1_555
C21_7 N3_7 1_555 1_555
Cd2_4 O3_7 1_555 1_555
Cd2_4 O4_7 1_555 1_555
C1_5 C2_5 1_555 1_555
C2_5 C3_5 1_555 1_555
C3_5 H1_5 1_555 1_555
C4_5 C3_5 1_555 1_555
H2_5 C4_5 1_555 1_555
C5_5 C4_5 1_555 1_555
C6_5 C5_5 1_555 1_555
H3_7 C6_5 1_555 1_555
C7_5 C2_5 1_555 1_555
H4_7 C7_5 1_555 1_555
C8_5 C5_5 1_555 1_555
C9_7 C8_5 1_555 1_555
H5_7 C9_7 1_555 1_555
C10_7 C9_7 1_555 1_555
C11_7 C10_7 1_555 1_555
C12_7 C11_7 1_555 1_555
H6_7 C12_7 1_555 1_555
C13_7 C12_7 1_555 1_555
H7_7 C13_7 1_555 1_555
C14_7 H8_7 1_555 1_555
C15_7 C11_7 1_555 1_555
H9_7 C15_7 1_555 1_555
N4_4 C13_7 1_555 1_555
O1_4 C1_5 1_555 1_555
O2_4 C1_5 1_555 1_555
C6_5 C7_5 1_555 1_555
C14_7 C15_7 1_555 1_555
C14_7 N4_4 1_555 1_555
C1_6 C2_6 1_555 1_555
C2_6 C3_6 1_555 1_555
C3_6 H1_6 1_555 1_555
C4_6 C3_6 1_555 1_555
H2_6 C4_6 1_555 1_555
C5_6 C4_6 1_555 1_555
C6_6 C5_6 1_555 1_555
H3_8 C6_6 1_555 1_555
C7_6 C2_6 1_555 1_555
H4_8 C7_6 1_555 1_555
C8_6 C5_6 1_555 1_555
C16_4 C8_6 1_555 1_555
H10_4 C16_4 1_555 1_555
C21_8 H13_8 1_555 1_555
H14_4 C22_4 1_555 1_555
C23_8 C24_8 1_555 1_555
C24_8 H15_8 1_555 1_555
H16_8 C24_8 1_555 1_555
H17_8 C24_8 1_555 1_555
Cd2_3 N3_8 1_555 1_555
O6_2 C1_6 1_555 1_555
O7_4 C1_6 1_555 1_555
O3_8 C23_8 1_555 1_555
O4_8 C23_8 1_555 1_555
O5_4 Cd2_3 1_555 1_555
H18_4 O5_4 1_555 1_555
H19_4 O5_4 1_555 1_555
C6_6 C7_6 1_555 1_555
C21_8 C22_4 1_555 1_555
C21_8 N3_8 1_555 1_555
Cd2_3 O3_8 1_555 1_555
Cd2_3 O4_8 1_555 1_555
H5_8 C9_8 1_555 1_555
C10_8 C9_8 1_555 1_555
C11_8 C10_8 1_555 1_555
C12_8 C11_8 1_555 1_555
H6_8 C12_8 1_555 1_555
C13_8 C12_8 1_555 1_555
H7_8 C13_8 1_555 1_555
C14_8 H8_8 1_555 1_555
C15_8 C11_8 1_555 1_555
H9_8 C15_8 1_555 1_555
C18_6 C17_6 1_555 1_555
C19_6 C18_6 1_555 1_555
H11_6 C19_6 1_555 1_555
C20_6 C19_6 1_555 1_555
H12_6 C20_6 1_555 1_555
N1_6 C10_8 1_555 1_555
N4_3 C13_8 1_555 1_555
C14_8 C15_8 1_555 1_555
C14_8 N4_3 1_555 1_555
C17_6 N1_6 1_555 1_555
H10_5 C16_5 1_555 1_555
C17_7 C16_5 1_555 1_555
C18_7 C17_7 1_555 1_555
C19_7 C18_7 1_555 1_555
H11_7 C19_7 1_555 1_555
C20_7 C19_7 1_555 1_555
H12_7 C20_7 1_555 1_555
C22_5 C18_7 1_555 1_555
H14_5 C22_5 1_555 1_555
H18_5 O5_5 1_555 1_555
H19_5 O5_5 1_555 1_555
C17_7 N1_7 1_555 1_555
C1_7 C2_7 1_555 1_555
C2_7 C3_7 1_555 1_555
C3_7 H1_7 1_555 1_555
C4_7 C3_7 1_555 1_555
H2_7 C4_7 1_555 1_555
C5_7 C4_7 1_555 1_555
C6_7 C5_7 1_555 1_555
H3_10 C6_7 1_555 1_555
C7_7 C2_7 1_555 1_555
C8_7 C5_7 1_555 1_555
C16_6 C8_7 1_555 1_555
H10_6 C16_6 1_555 1_555
H14_6 C22_6 1_555 1_555
O6_3 C1_7 1_555 1_555
H18_6 O5_6 1_555 1_555
H19_6 O5_6 1_555 1_555
C6_7 C7_7 1_555 1_555
H10_7 C16_7 1_555 1_555
C17_8 C16_7 1_555 1_555
C18_8 C17_8 1_555 1_555
C19_8 C18_8 1_555 1_555
H11_8 C19_8 1_555 1_555
C20_8 C19_8 1_555 1_555
H12_8 C20_8 1_555 1_555
C22_7 C18_8 1_555 1_555
H14_7 C22_7 1_555 1_555
H18_7 O5_7 1_555 1_555
H19_7 O5_7 1_555 1_555
C17_8 N1_8 1_555 1_555
C1_8 C2_8 1_555 1_555
C2_8 C3_8 1_555 1_555
C3_8 H1_8 1_555 1_555
C4_8 C3_8 1_555 1_555
H2_8 C4_8 1_555 1_555
C5_8 C4_8 1_555 1_555
C6_8 C5_8 1_555 1_555
H3_12 C6_8 1_555 1_555
C7_8 C2_8 1_555 1_555
C8_8 C5_8 1_555 1_555
C16_8 C8_8 1_555 1_555
H10_8 C16_8 1_555 1_555
H14_8 C22_8 1_555 1_555
O6_4 C1_8 1_555 1_555
H18_8 O5_8 1_555 1_555
H19_8 O5_8 1_555 1_555
C6_8 C7_8 1_555 1_555

#END
