
###############################################################################
#
# This file contains modified crystal structure data generated from the
# MOF subset of the Cambridge Structural Database (CSD) v543 
# hosted by the Cambridge Crystallographic Data Centre (CCDC).
#
# This work is licensed under the Creative Commons
# Attribution-NonCommercial-ShareAlike 4.0 International License.
# To view a copy of this license, visit
# http://creativecommons.org/licenses/by-nc-sa/4.0/
# or send a letter to
# Creative Commons, PO Box 1866, Mountain View, CA 94042, USA.
#
# CIF created using the CSD Python API on 29 September 2022
# The structure has been converted into the P1 space group
# The structure has a 3D framework
# The original CSD entry HELFIP is in the monoclinic crystal system
# The framework has been calculated to contain at least 10.0% void space
# The void calculation uses a probe of radius 1.32A, grid spacing 0.4
#
###############################################################################

data_HELFIP
_chemical_formula_moiety         '(C88 H40 Cl8 N24 O46 Pr8)n'
_symmetry_cell_setting           triclinic
_symmetry_space_group_name_H-M   'P 1'
_symmetry_Int_Tables_number      1
_space_group_name_Hall           'P 1'
loop_
_symmetry_equiv_pos_site_id
_symmetry_equiv_pos_as_xyz
1 x,y,z
_cell_length_a                   28.302(6)
_cell_length_b                   7.0921(14)
_cell_length_c                   16.752(3)
_cell_angle_alpha                90
_cell_angle_beta                 125.03(3)
_cell_angle_gamma                90
_cell_volume                     2753.37
loop_
_atom_site_label
_atom_site_type_symbol
_atom_site_fract_x
_atom_site_fract_y
_atom_site_fract_z
N1 N 0.12198(17) 0.7070(7) 0.6742(3)
C5 C 0.02211(18) 0.7451(6) 0.5422(3)
C6 C 0.0661(2) 0.7129(8) 0.6401(3)
H1 H 0.0562 0.6947 0.6836
C7 C 0.13580(19) 0.7382(7) 0.6107(3)
H2 H 0.1746 0.7410 0.6342
C8 C 0.0951(2) 0.7662(8) 0.5121(4)
H3 H 0.1061 0.7834 0.4699
C9 C 0.0370(2) 0.7680(8) 0.4774(3)
H4 H 0.0086 0.7844 0.4113
Pr5 Pr 0.209840(9) 0.61397(3) 0.861740(16)
Pr6 Pr 0.709840(9) 0.11397(3) 0.861740(16)
C1 C 0.81024(17) 0.7332(6) 0.3143(3)
C2 C 0.71865(18) 0.2611(6) 0.4864(3)
Pr1 Pr 0.790160(9) 0.61397(3) 0.638260(16)
O1 O 0.71193(17) 0.3878(5) 0.5305(3)
O2 O 0.79607(13) 0.7191(5) 0.4944(2)
O3 O 0.87783(14) 0.7109(6) 0.6404(2)
C3 C 0.85101(18) 0.7269(6) 0.5494(3)
Cl1 Cl 0.79079(11) 0.8854(4) 0.63847(18)
O4 O 0.81063(16) 0.6543(5) 0.2469(3)
O5 O 0.68084(15) 0.1549(5) 0.4213(3)
O6 O 0.76645(15) 0.8031(7) 0.3024(2)
C4 C 0.88388(17) 0.7442(6) 0.5066(3)
N2 N 0.94337(15) 0.7440(5) 0.5672(3)
N3 N 0.91644(15) 0.7439(5) 0.4144(3)
H5 H 0.9185 0.7433 0.3652
C10 C 0.96164(18) 0.7462(6) 0.5099(3)
C11 C 0.86700(17) 0.7427(6) 0.4112(3)
C12 C 0.68976(17) 0.7668(6) 0.6857(3)
C13 C 0.78135(18) 0.2389(6) 0.5136(3)
Pr3 Pr 0.709840(9) 0.88603(3) 0.361740(16)
Pr4 Pr 0.790160(9) 0.38603(3) 0.138260(16)
Pr7 Pr 0.290160(9) 0.88603(3) 0.138260(16)
O7 O 0.78807(17) 0.1122(5) 0.4695(3)
O8 O 0.70393(13) 0.7809(5) 0.5056(2)
O11 O 0.62217(14) 0.7891(6) 0.3596(2)
C14 C 0.64899(18) 0.7731(6) 0.4506(3)
O13 O 0.68937(16) 0.8457(5) 0.7531(3)
O14 O 0.81063(16) 0.3457(5) 0.7469(3)
O15 O 0.68937(16) 0.1543(5) 0.2531(3)
O16 O 0.81916(15) 0.3451(5) 0.5787(3)
O17 O 0.73355(15) 0.6969(7) 0.6976(2)
N4 N 0.37802(17) 0.7930(7) 0.3258(3)
N5 N 0.87802(17) 0.7070(7) 0.8258(3)
C15 C 0.61612(17) 0.7558(6) 0.4934(3)
N7 N 0.55663(15) 0.7560(5) 0.4328(3)
C16 C 0.47789(18) 0.7549(6) 0.4578(3)
C17 C 0.4339(2) 0.7871(8) 0.3599(3)
H6 H 0.4438 0.8053 0.3164
C18 C 0.36420(19) 0.7618(7) 0.3893(3)
H7 H 0.3254 0.7590 0.3658
C19 C 0.4049(2) 0.7338(8) 0.4879(4)
H8 H 0.3939 0.7166 0.5301
C20 C 0.4630(2) 0.7320(8) 0.5226(3)
H9 H 0.4914 0.7156 0.5887
N8 N 0.58356(15) 0.7561(5) 0.5856(3)
H10 H 0.5815 0.7567 0.6348
C21 C 0.53836(18) 0.7538(6) 0.4901(3)
C22 C 0.63300(17) 0.7573(6) 0.5888(3)
Cl2 Cl 0.70921(11) 0.6146(4) 0.36153(18)
N6 N 0.62198(17) 0.7930(7) 0.1742(3)
Pr6_2 Pr 0.290160(9) 0.11397(3) 0.638260(16)
C1_2 C 0.18976(17) 0.7332(6) 0.1857(3)
C2_2 C 0.28135(18) 0.2611(6) 0.0136(3)
O2_2 O 0.20393(13) 0.7191(5) 0.0056(2)
O4_2 O 0.18937(16) 0.6543(5) 0.2531(3)
O5_2 O 0.31916(15) 0.1549(5) 0.0787(3)
O6_2 O 0.23355(15) 0.8031(7) 0.1976(2)
N3_2 N 0.08356(15) 0.7439(5) 0.0856(3)
H5_2 H 0.0815 0.7433 0.1348
C11_2 C 0.13300(17) 0.7427(6) 0.0888(3)
Pr4_2 Pr 0.209840(9) 0.38603(3) 0.361740(16)
O7_2 O 0.21193(17) 0.1122(5) 0.0305(3)
O11_2 O 0.37783(14) 0.7891(6) 0.1404(2)
C14_2 C 0.35101(18) 0.7731(6) 0.0494(3)
O15_2 O 0.31063(16) 0.1543(5) 0.2469(3)
C15_2 C 0.38388(17) 0.7558(6) 0.0066(3)
N7_2 N 0.44337(15) 0.7560(5) 0.0672(3)
C16_2 C 0.52211(18) 0.7549(6) 0.0422(3)
C17_2 C 0.5661(2) 0.7871(8) 0.1401(3)
H6_2 H 0.5562 0.8053 0.1836
C18_2 C 0.63580(19) 0.7618(7) 0.1107(3)
H7_2 H 0.6746 0.7590 0.1342
C19_2 C 0.5951(2) 0.7338(8) 0.0121(4)
C21_2 C 0.46164(18) 0.7538(6) 0.0099(3)
O1_2 O 0.28807(17) 0.3878(5) 0.9695(3)
O3_2 O 0.12217(14) 0.7109(6) 0.8596(2)
C3_2 C 0.14899(18) 0.7269(6) 0.9506(3)
Cl1_2 Cl 0.20921(11) 0.8854(4) 0.86153(18)
C4_2 C 0.11612(17) 0.7442(6) 0.9934(3)
N2_2 N 0.05663(15) 0.7440(5) 0.9328(3)
C10_2 C 0.03836(18) 0.7462(6) 0.9901(3)
C12_2 C 0.31024(17) 0.7668(6) 0.8143(3)
C13_2 C 0.21865(18) 0.2389(6) 0.9864(3)
O8_2 O 0.29607(13) 0.7809(5) 0.9944(2)
O13_2 O 0.31063(16) 0.8457(5) 0.7469(3)
O14_2 O 0.18937(16) 0.3457(5) 0.7531(3)
O16_2 O 0.18084(15) 0.3451(5) 0.9213(3)
O17_2 O 0.26645(15) 0.6969(7) 0.8024(2)
H8_2 H 0.6061 0.7166 0.9699
C20_2 C 0.5370(2) 0.7320(8) 0.9774(3)
H9_2 H 0.5086 0.7156 0.9113
N8_2 N 0.41644(15) 0.7561(5) 0.9144(3)
H10_2 H 0.4185 0.7567 0.8652
C22_2 C 0.36700(17) 0.7573(6) 0.9112(3)
Cl2_2 Cl 0.29079(11) 0.6146(4) 0.13847(18)
C5_2 C 0.97789(18) 0.7451(6) 0.9578(3)
C6_2 C 0.9339(2) 0.7129(8) 0.8599(3)
H1_2 H 0.9438 0.6947 0.8164
C7_2 C 0.86420(19) 0.7382(7) 0.8893(3)
H2_2 H 0.8254 0.7410 0.8658
C8_2 C 0.9049(2) 0.7662(8) 0.9879(4)
C1_3 C 0.31024(17) 0.2332(6) 0.3143(3)
O2_3 O 0.29607(13) 0.2191(5) 0.4944(2)
O3_3 O 0.37783(14) 0.2109(6) 0.6404(2)
C3_3 C 0.35101(18) 0.2269(6) 0.5494(3)
Cl1_3 Cl 0.29079(11) 0.3854(4) 0.63847(18)
O6_3 O 0.26645(15) 0.3031(7) 0.3024(2)
N1_2 N 0.62198(17) 0.2070(7) 0.6742(3)
C4_3 C 0.38388(17) 0.2442(6) 0.5066(3)
N2_3 N 0.44337(15) 0.2440(5) 0.5672(3)
C5_3 C 0.52211(18) 0.2451(6) 0.5422(3)
C6_3 C 0.5661(2) 0.2129(8) 0.6401(3)
H1_3 H 0.5562 0.1947 0.6836
C7_3 C 0.63580(19) 0.2382(7) 0.6107(3)
H2_3 H 0.6746 0.2410 0.6342
C8_3 C 0.5951(2) 0.2662(8) 0.5121(4)
H3_2 H 0.6061 0.2834 0.4699
C9_2 C 0.5370(2) 0.2680(8) 0.4774(3)
H4_2 H 0.5086 0.2844 0.4113
N3_3 N 0.41644(15) 0.2439(5) 0.4144(3)
H5_3 H 0.4185 0.2433 0.3652
C10_3 C 0.46164(18) 0.2462(6) 0.5099(3)
C11_3 C 0.36700(17) 0.2427(6) 0.4112(3)
C12_3 C 0.18976(17) 0.2668(6) 0.6857(3)
O8_3 O 0.20393(13) 0.2809(5) 0.5056(2)
O11_3 O 0.12217(14) 0.2891(6) 0.3596(2)
C14_3 C 0.14899(18) 0.2731(6) 0.4506(3)
O17_3 O 0.23355(15) 0.1969(7) 0.6976(2)
N5_2 N 0.37802(17) 0.2070(7) 0.8258(3)
C15_3 C 0.11612(17) 0.2558(6) 0.4934(3)
N7_3 N 0.05663(15) 0.2560(5) 0.4328(3)
N8_3 N 0.08356(15) 0.2561(5) 0.5856(3)
H10_3 H 0.0815 0.2567 0.6348
C21_3 C 0.03836(18) 0.2538(6) 0.4901(3)
C22_3 C 0.13300(17) 0.2573(6) 0.5888(3)
C2_3 C 0.21865(18) 0.7611(6) 0.4864(3)
O1_3 O 0.21193(17) 0.8878(5) 0.5305(3)
O5_3 O 0.18084(15) 0.6549(5) 0.4213(3)
C13_3 C 0.28135(18) 0.7389(6) 0.5136(3)
O7_3 O 0.28807(17) 0.6122(5) 0.4695(3)
Cl2_3 Cl 0.20921(11) 0.1146(4) 0.36153(18)
O16_3 O 0.31916(15) 0.8451(5) 0.5787(3)
N6_2 N 0.12198(17) 0.2930(7) 0.1742(3)
N4_2 N 0.87802(17) 0.2930(7) 0.3258(3)
C16_3 C 0.97789(18) 0.2549(6) 0.4578(3)
C17_3 C 0.9339(2) 0.2871(8) 0.3599(3)
H6_3 H 0.9438 0.3053 0.3164
C18_3 C 0.86420(19) 0.2618(7) 0.3893(3)
H7_3 H 0.8254 0.2590 0.3658
C19_3 C 0.9049(2) 0.2338(8) 0.4879(4)
H8_3 H 0.8939 0.2166 0.5301
C20_3 C 0.9630(2) 0.2320(8) 0.5226(3)
H9_3 H 0.9914 0.2156 0.5887
C16_4 C 0.02211(18) 0.2549(6) 0.0422(3)
C17_4 C 0.0661(2) 0.2871(8) 0.1401(3)
H6_4 H 0.0562 0.3053 0.1836
C18_4 C 0.13580(19) 0.2618(7) 0.1107(3)
H7_4 H 0.1746 0.2590 0.1342
C19_4 C 0.0951(2) 0.2338(8) 0.0121(4)
C1_4 C 0.68976(17) 0.2332(6) 0.1857(3)
O2_4 O 0.70393(13) 0.2191(5) 0.0056(2)
O6_4 O 0.73355(15) 0.3031(7) 0.1976(2)
H3_3 H 0.3939 0.2834 0.0301
C9_3 C 0.4630(2) 0.2680(8) 0.0226(3)
H4_3 H 0.4914 0.2844 0.0887
N3_4 N 0.58356(15) 0.2439(5) 0.0856(3)
H5_4 H 0.5815 0.2433 0.1348
C11_4 C 0.63300(17) 0.2427(6) 0.0888(3)
O11_4 O 0.87783(14) 0.2891(6) 0.1404(2)
C14_4 C 0.85101(18) 0.2731(6) 0.0494(3)
C15_4 C 0.88388(17) 0.2558(6) 0.0066(3)
N7_4 N 0.94337(15) 0.2560(5) 0.0672(3)
C21_4 C 0.96164(18) 0.2538(6) 0.0099(3)
O3_4 O 0.62217(14) 0.2109(6) 0.8596(2)
C3_4 C 0.64899(18) 0.2269(6) 0.9506(3)
Cl1_4 Cl 0.70921(11) 0.3854(4) 0.86153(18)
C4_4 C 0.61612(17) 0.2442(6) 0.9934(3)
N2_4 N 0.55663(15) 0.2440(5) 0.9328(3)
C5_4 C 0.47789(18) 0.2451(6) 0.9578(3)
C6_4 C 0.4339(2) 0.2129(8) 0.8599(3)
H1_4 H 0.4438 0.1947 0.8164
C7_4 C 0.36420(19) 0.2382(7) 0.8893(3)
H2_4 H 0.3254 0.2410 0.8658
C8_4 C 0.4049(2) 0.2662(8) 0.9879(4)
C10_4 C 0.53836(18) 0.2462(6) 0.9901(3)
C12_4 C 0.81024(17) 0.2668(6) 0.8143(3)
O8_4 O 0.79607(13) 0.2809(5) 0.9944(2)
O17_4 O 0.76645(15) 0.1969(7) 0.8024(2)
N8_4 N 0.91644(15) 0.2561(5) 0.9144(3)
H10_4 H 0.9185 0.2567 0.8652
C22_4 C 0.86700(17) 0.2573(6) 0.9112(3)
C2_4 C 0.78135(18) 0.7611(6) 0.0136(3)
O5_4 O 0.81916(15) 0.6549(5) 0.0787(3)
O7_4 O 0.71193(17) 0.6122(5) 0.0305(3)
Cl2_4 Cl 0.79079(11) 0.1146(4) 0.13847(18)
O1_4 O 0.78807(17) 0.8878(5) 0.9695(3)
C13_4 C 0.71865(18) 0.7389(6) 0.9864(3)
O16_4 O 0.68084(15) 0.8451(5) 0.9213(3)
H3_4 H 0.8939 0.7834 0.0301
C9_4 C 0.9630(2) 0.7680(8) 0.0226(3)
H4_4 H 0.9914 0.7844 0.0887
H8_4 H 0.1061 0.2166 0.9699
C20_4 C 0.0370(2) 0.2320(8) 0.9774(3)
H9_4 H 0.0086 0.2156 0.9113
loop_
_geom_bond_atom_site_label_1
_geom_bond_atom_site_label_2
_geom_bond_site_symmetry_1
_geom_bond_site_symmetry_2
N1 C6 1_555 1_555
C5 C6 1_555 1_555
C6 H1 1_555 1_555
C7 N1 1_555 1_555
H2 C7 1_555 1_555
C8 C7 1_555 1_555
H3 C8 1_555 1_555
C9 C5 1_555 1_555
H4 C9 1_555 1_555
Pr5 N1 1_555 1_555
C8 C9 1_555 1_555
C1 O4 1_555 1_555
C2 O1 1_555 1_555
Pr1 O1 1_555 1_555
O2 Pr1 1_555 1_555
O3 Pr1 1_555 1_555
C3 O2 1_555 1_555
Cl1 Pr1 1_555 1_555
O4 Pr4 1_555 1_555
O5 C2 1_555 1_555
O6 C1 1_555 1_555
C4 C3 1_555 1_555
N2 C4 1_555 1_555
N3 H5 1_555 1_555
C10 N2 1_555 1_555
C11 C1 1_555 1_555
C12 O13 1_555 1_555
C13 C2 1_555 1_555
Pr3 O2 1_555 1_555
Pr7 N4 1_555 1_555
O7 C13 1_555 1_555
O8 Pr1 1_555 1_555
O11 Pr3 1_555 1_555
C14 O8 1_555 1_555
O14 Pr1 1_555 1_555
O16 Pr1 1_555 1_555
O17 Pr1 1_555 1_555
N4 C17 1_555 1_555
N5 Pr1 1_555 1_555
C15 C14 1_555 1_555
N7 C15 1_555 1_555
C16 C17 1_555 1_555
C17 H6 1_555 1_555
C18 N4 1_555 1_555
H7 C18 1_555 1_555
C19 C18 1_555 1_555
H8 C19 1_555 1_555
C20 C16 1_555 1_555
H9 C20 1_555 1_555
N8 H10 1_555 1_555
C21 N7 1_555 1_555
C22 C12 1_555 1_555
O3 C3 1_555 1_555
O6 Pr3 1_555 1_555
C4 C11 1_555 1_555
N3 C10 1_555 1_555
N3 C11 1_555 1_555
C12 O17 1_555 1_555
C13 O16 1_555 1_555
Pr3 O8 1_555 1_555
O11 C14 1_555 1_555
C15 C22 1_555 1_555
C16 C21 1_555 1_555
C19 C20 1_555 1_555
N8 C21 1_555 1_555
N8 C22 1_555 1_555
Cl2 Pr3 1_555 1_555
N6 Pr3 1_555 1_555
C1_2 O4_2 1_555 1_555
O4_2 Pr4_2 1_555 1_555
O5_2 C2_2 1_555 1_555
O6_2 C1_2 1_555 1_555
N3_2 H5_2 1_555 1_555
C11_2 C1_2 1_555 1_555
Pr7 O2_2 1_555 1_555
O11_2 Pr7 1_555 1_555
N6 C17_2 1_555 1_555
C15_2 C14_2 1_555 1_555
N7_2 C15_2 1_555 1_555
C16_2 C17_2 1_555 1_555
C17_2 H6_2 1_555 1_555
C18_2 N6 1_555 1_555
H7_2 C18_2 1_555 1_555
C19_2 C18_2 1_555 1_555
C21_2 N7_2 1_555 1_555
O6_2 Pr7 1_555 1_555
N3_2 C11_2 1_555 1_555
O11_2 C14_2 1_555 1_555
C16_2 C21_2 1_555 1_555
Pr5 O1_2 1_555 1_555
O3_2 Pr5 1_555 1_555
Cl1_2 Pr5 1_555 1_555
C4_2 C3_2 1_555 1_555
N2_2 C4_2 1_555 1_555
C10_2 N2_2 1_555 1_555
C12_2 O13_2 1_555 1_555
O8_2 Pr5 1_555 1_555
O14_2 Pr5 1_555 1_555
O16_2 Pr5 1_555 1_555
O17_2 Pr5 1_555 1_555
H9_2 C20_2 1_555 1_555
N8_2 H10_2 1_555 1_555
C22_2 C12_2 1_555 1_555
O3_2 C3_2 1_555 1_555
C12_2 O17_2 1_555 1_555
C13_2 O16_2 1_555 1_555
N8_2 C22_2 1_555 1_555
Cl2_2 Pr7 1_555 1_555
N5 C6_2 1_555 1_555
C5_2 C6_2 1_555 1_555
C6_2 H1_2 1_555 1_555
C7_2 N5 1_555 1_555
H2_2 C7_2 1_555 1_555
C8_2 C7_2 1_555 1_555
C1_3 O15_2 1_555 1_555
O2_3 Pr6_2 1_555 1_555
O3_3 Pr6_2 1_555 1_555
C3_3 O2_3 1_555 1_555
Cl1_3 Pr6_2 1_555 1_555
O6_3 C1_3 1_555 1_555
N1_2 C6_3 1_555 1_555
C4_3 C3_3 1_555 1_555
N2_3 C4_3 1_555 1_555
C5_3 C6_3 1_555 1_555
C6_3 H1_3 1_555 1_555
C7_3 N1_2 1_555 1_555
H2_3 C7_3 1_555 1_555
C8_3 C7_3 1_555 1_555
H3_2 C8_3 1_555 1_555
C9_2 C5_3 1_555 1_555
H4_2 C9_2 1_555 1_555
N3_3 H5_3 1_555 1_555
C10_3 N2_3 1_555 1_555
C11_3 C1_3 1_555 1_555
C12_3 O14_2 1_555 1_555
Pr4_2 O2_3 1_555 1_555
Pr6 N1_2 1_555 1_555
O8_3 Pr6_2 1_555 1_555
O11_3 Pr4_2 1_555 1_555
C14_3 O8_3 1_555 1_555
O17_3 Pr6_2 1_555 1_555
N5_2 Pr6_2 1_555 1_555
C15_3 C14_3 1_555 1_555
N7_3 C15_3 1_555 1_555
N8_3 H10_3 1_555 1_555
C21_3 N7_3 1_555 1_555
C22_3 C12_3 1_555 1_555
O3_3 C3_3 1_555 1_555
O6_3 Pr4_2 1_555 1_555
C4_3 C11_3 1_555 1_555
C5_3 C10_3 1_555 1_555
C8_3 C9_2 1_555 1_555
N3_3 C10_3 1_555 1_555
N3_3 C11_3 1_555 1_555
C12_3 O17_3 1_555 1_555
Pr4_2 O8_3 1_555 1_555
O11_3 C14_3 1_555 1_555
C15_3 C22_3 1_555 1_555
N8_3 C21_3 1_555 1_555
N8_3 C22_3 1_555 1_555
C2_3 O1_3 1_555 1_555
O5_3 C2_3 1_555 1_555
C13_3 C2_3 1_555 1_555
Pr4_2 O5_3 1_555 1_555
O7_3 C13_3 1_555 1_555
Cl2_3 Pr4_2 1_555 1_555
N6_2 Pr4_2 1_555 1_555
C13_3 O16_3 1_555 1_555
Pr4_2 O7_3 1_555 1_555
Pr4 N4_2 1_555 1_555
N4_2 C17_3 1_555 1_555
C16_3 C17_3 1_555 1_555
C17_3 H6_3 1_555 1_555
C18_3 N4_2 1_555 1_555
H7_3 C18_3 1_555 1_555
C19_3 C18_3 1_555 1_555
H8_3 C19_3 1_555 1_555
C20_3 C16_3 1_555 1_555
H9_3 C20_3 1_555 1_555
C19_3 C20_3 1_555 1_555
N6_2 C17_4 1_555 1_555
C16_4 C17_4 1_555 1_555
C17_4 H6_4 1_555 1_555
C18_4 N6_2 1_555 1_555
H7_4 C18_4 1_555 1_555
C19_4 C18_4 1_555 1_555
C1_4 O15 1_555 1_555
O6_4 C1_4 1_555 1_555
H4_3 C9_3 1_555 1_555
N3_4 H5_4 1_555 1_555
C11_4 C1_4 1_555 1_555
Pr4 O2_4 1_555 1_555
O11_4 Pr4 1_555 1_555
C15_4 C14_4 1_555 1_555
N7_4 C15_4 1_555 1_555
C21_4 N7_4 1_555 1_555
O6_4 Pr4 1_555 1_555
N3_4 C11_4 1_555 1_555
O11_4 C14_4 1_555 1_555
O3_4 Pr6 1_555 1_555
Cl1_4 Pr6 1_555 1_555
N5_2 C6_4 1_555 1_555
C4_4 C3_4 1_555 1_555
N2_4 C4_4 1_555 1_555
C5_4 C6_4 1_555 1_555
C6_4 H1_4 1_555 1_555
C7_4 N5_2 1_555 1_555
H2_4 C7_4 1_555 1_555
C8_4 C7_4 1_555 1_555
C10_4 N2_4 1_555 1_555
C12_4 O14 1_555 1_555
O8_4 Pr6 1_555 1_555
O17_4 Pr6 1_555 1_555
N8_4 H10_4 1_555 1_555
C22_4 C12_4 1_555 1_555
O3_4 C3_4 1_555 1_555
C5_4 C10_4 1_555 1_555
C12_4 O17_4 1_555 1_555
N8_4 C22_4 1_555 1_555
O5_4 C2_4 1_555 1_555
Pr4 O5_4 1_555 1_555
Cl2_4 Pr4 1_555 1_555
Pr4 O7_4 1_555 1_555
C13_4 O16_4 1_555 1_555
H4_4 C9_4 1_555 1_555
H9_4 C20_4 1_555 1_555

#END
