
###############################################################################
#
# This file contains modified crystal structure data generated from the
# MOF subset of the Cambridge Structural Database (CSD) v543 
# hosted by the Cambridge Crystallographic Data Centre (CCDC).
#
# This work is licensed under the Creative Commons
# Attribution-NonCommercial-ShareAlike 4.0 International License.
# To view a copy of this license, visit
# http://creativecommons.org/licenses/by-nc-sa/4.0/
# or send a letter to
# Creative Commons, PO Box 1866, Mountain View, CA 94042, USA.
#
# CIF created using the CSD Python API on 29 September 2022
# The structure has been converted into the P1 space group
# The structure has a 3D framework
# The original CSD entry HEMBOT is in the orthorhombic crystal system
# The framework has been calculated to contain at least 10.0% void space
# The void calculation uses a probe of radius 1.32A, grid spacing 0.4
# H atom positions have been added when not included in the experimental data
#
###############################################################################

data_HEMBOT
_chemical_formula_moiety         '(C96 H48 Bi4 N12 O20)n'
_symmetry_cell_setting           triclinic
_symmetry_space_group_name_H-M   'P 1'
_symmetry_Int_Tables_number      1
_space_group_name_Hall           'P 1'
loop_
_symmetry_equiv_pos_site_id
_symmetry_equiv_pos_as_xyz
1 x,y,z
_cell_length_a                   31.0006(55)
_cell_length_b                   27.6232(43)
_cell_length_c                   3.91334(94)
_cell_angle_alpha                90
_cell_angle_beta                 90
_cell_angle_gamma                90
_cell_volume                     3351.13
loop_
_atom_site_label
_atom_site_type_symbol
_atom_site_fract_x
_atom_site_fract_y
_atom_site_fract_z
_atom_site_U_iso_or_equiv
_atom_site_thermal_displace_type
O1 O 0.871189 0.030722 0.259732 0.2533 Uiso
C5 C 0.805803 0.026361 0.001649 0.0633 Uiso
C8 C 0.845431 0.049296 0.06802 0.0633 Uiso
Bi4 Bi 0.91176(31) 0.10346(71) 0.4327(24) 0.0013 Uiso
O13 O 0.912887 0.162170 0.041249 0.2533 Uiso
O2 O 0.853013 0.084153 0.945511 0.2533 Uiso
O4 O 0.433533 0.053473 0.066998 0.2533 Uiso
C6 C 0.769658 0.054230 0.874728 0.0633 Uiso
C7 C 0.728877 0.030627 0.806426 0.0633 Uiso
C11 C 0.580207 0.035264 0.331219 0.0633 Uiso
C12 C 0.544326 0.062943 0.197708 0.0633 Uiso
C13 C 0.501320 0.042552 0.200106 0.0633 Uiso
C16 C 0.466453 0.069448 0.070370 0.0633 Uiso
Bi6 Bi 0.41176(31) 0.10346(71) 0.5673(24) 0.0013 Uiso
O9 O 0.971760 0.106354 0.027937 0.2533 Uiso
O11 O 0.933533 0.053473 0.933002 0.2533 Uiso
O14 O 0.851966 0.156899 0.113648 0.2533 Uiso
H3 H 0.773147 0.0929577 0.830624 . .
H4 H 0.701682 0.0515956 0.710929 . .
H7 H 0.549687 0.0991112 0.0954497 . .
H12 H 0.612565 0.0506067 0.329417 . .
O3 O 0.471760 0.106354 0.972063 0.2533 Uiso
O5 O 0.587113 0.662170 0.041249 0.2533 Uiso
O6 O 0.648034 0.656899 0.113648 0.2533 Uiso
C4 C 0.801165 0.974889 0.060268 0.0633 Uiso
C22 C 0.665265 0.752455 0.054728 0.0633 Uiso
C24 C 0.619604 0.679110 0.052729 0.0633 Uiso
Bi3 Bi 0.58824(31) 0.60346(71) 0.4327(24) 0.0013 Uiso
H1 H 0.756895 0.912558 0.0360719 . .
H2 H 0.82836 0.95392 0.155765 . .
H8 H 0.700938 0.821428 0.0386995 . .
H11 H 0.692351 0.731562 0.152972 . .
N1 N 0.64873 0.983899 0.665164 0.0633 Uiso
N2 N 0.603048 0.909015 0.662071 0.0633 Uiso
N3 N 0.679711 0.904939 0.863883 0.0633 Uiso
C1 C 0.684611 0.956220 0.798675 0.0633 Uiso
C2 C 0.724240 0.979156 0.865045 0.0633 Uiso
C3 C 0.760384 0.951286 0.991967 0.0633 Uiso
C9 C 0.607949 0.960297 0.596863 0.0633 Uiso
C10 C 0.573082 0.987193 0.467127 0.0633 Uiso
C14 C 0.494194 0.994482 0.336014 0.0633 Uiso
C15 C 0.530075 0.966803 0.469525 0.0633 Uiso
C17 C 0.638929 0.881336 0.795581 0.0633 Uiso
C18 C 0.634167 0.831505 0.858946 0.0633 Uiso
C19 C 0.593268 0.807991 0.793582 0.0633 Uiso
C20 C 0.588368 0.756710 0.858791 0.0633 Uiso
C21 C 0.624366 0.728941 0.989364 0.0633 Uiso
C23 C 0.670165 0.803736 0.989519 0.0633 Uiso
H5 H 0.524713 0.930635 0.571785 . .
H6 H 0.461836 0.97914 0.337818 . .
H9 H 0.566182 0.828884 0.695338 . .
H10 H 0.557595 0.739018 0.80961 . .
O3_2 O 0.528240 0.606354 0.027937 0.2533 Uiso
O8 O 0.146987 0.584153 0.054489 0.2533 Uiso
O10 O 0.066467 0.553473 0.066998 0.2533 Uiso
Bi1 Bi 0.08824(31) 0.60346(71) 0.5673(24) 0.0013 Uiso
O4_2 O 0.566467 0.553473 0.933002 0.2533 Uiso
N1_2 N 0.35127 0.483899 0.334836 0.0633 Uiso
N2_2 N 0.396952 0.409015 0.337929 0.0633 Uiso
N3_2 N 0.320289 0.404939 0.136117 0.0633 Uiso
C1_2 C 0.315389 0.456220 0.201325 0.0633 Uiso
C2_2 C 0.275760 0.479156 0.134955 0.0633 Uiso
C3_2 C 0.239616 0.451286 0.008033 0.0633 Uiso
C6_2 C 0.230342 0.554230 0.125272 0.0633 Uiso
C7_2 C 0.271123 0.530627 0.193574 0.0633 Uiso
C9_2 C 0.392051 0.460297 0.403137 0.0633 Uiso
C10_2 C 0.426918 0.487193 0.532873 0.0633 Uiso
C11_2 C 0.419793 0.535264 0.668781 0.0633 Uiso
C12_2 C 0.455674 0.562943 0.802292 0.0633 Uiso
C13_2 C 0.498680 0.542552 0.799894 0.0633 Uiso
C14_2 C 0.505806 0.494482 0.663986 0.0633 Uiso
C15_2 C 0.469925 0.466803 0.530475 0.0633 Uiso
C16_2 C 0.533547 0.569448 0.929630 0.0633 Uiso
C17_2 C 0.361071 0.381336 0.204419 0.0633 Uiso
C18_2 C 0.365833 0.331505 0.141054 0.0633 Uiso
C19_2 C 0.406732 0.307991 0.206418 0.0633 Uiso
C20_2 C 0.411632 0.256710 0.141209 0.0633 Uiso
C21_2 C 0.375634 0.228941 0.010636 0.0633 Uiso
C23_2 C 0.329835 0.303736 0.010481 0.0633 Uiso
O7 O 0.128811 0.530722 0.740268 0.2533 Uiso
O9_2 O 0.028240 0.606354 0.972063 0.2533 Uiso
O12 O 0.087113 0.662170 0.958751 0.2533 Uiso
O14_2 O 0.148034 0.656899 0.886352 0.2533 Uiso
H3_2 H 0.226853 0.592958 0.169376 . .
H4_2 H 0.298318 0.551596 0.289071 . .
H5_2 H 0.475287 0.430635 0.428215 . .
H6_2 H 0.538164 0.47914 0.662182 . .
H7_2 H 0.450313 0.599111 0.90455 . .
H9_2 H 0.433818 0.328884 0.304662 . .
H10_2 H 0.442405 0.239018 0.19039 . .
H12_2 H 0.387435 0.550607 0.670583 . .
O5_2 O 0.412887 0.162170 0.958751 0.2533 Uiso
O6_2 O 0.351966 0.156899 0.886352 0.2533 Uiso
C4_2 C 0.198835 0.474889 0.939732 0.0633 Uiso
C5_2 C 0.194197 0.526361 0.998351 0.0633 Uiso
C8_2 C 0.154569 0.549296 0.93198 0.0633 Uiso
C22_2 C 0.334735 0.252455 0.945272 0.0633 Uiso
C24_2 C 0.380396 0.179110 0.947271 0.0633 Uiso
H1_2 H 0.243105 0.412558 0.963928 . .
H2_2 H 0.17164 0.45392 0.844235 . .
H8_2 H 0.299062 0.321428 0.9613 . .
H11_2 H 0.307649 0.231562 0.847028 . .
C14_3 C 0.005806 0.494482 0.336014 0.0633 Uiso
C16_3 C 0.033547 0.569448 0.070370 0.0633 Uiso
H6_3 H 0.0381643 0.47914 0.337818 . .
O1_2 O 0.628811 0.530722 0.259732 0.2533 Uiso
C4_3 C 0.698835 0.474889 0.060268 0.0633 Uiso
C5_3 C 0.694197 0.526361 0.001649 0.0633 Uiso
C8_3 C 0.654569 0.549296 0.06802 0.0633 Uiso
C22_3 C 0.834735 0.252455 0.054728 0.0633 Uiso
C24_3 C 0.880396 0.179110 0.052729 0.0633 Uiso
H1_3 H 0.743105 0.412558 0.0360719 . .
H2_3 H 0.67164 0.45392 0.155765 . .
H8_3 H 0.799062 0.321428 0.0386995 . .
H11_3 H 0.807649 0.231562 0.152972 . .
O2_2 O 0.646987 0.584153 0.945511 0.2533 Uiso
N1_3 N 0.85127 0.483899 0.665164 0.0633 Uiso
N2_3 N 0.896952 0.409015 0.662071 0.0633 Uiso
N3_3 N 0.820289 0.404939 0.863883 0.0633 Uiso
C1_3 C 0.815389 0.456220 0.798675 0.0633 Uiso
C2_3 C 0.775760 0.479156 0.865045 0.0633 Uiso
C3_3 C 0.739616 0.451286 0.991967 0.0633 Uiso
C6_3 C 0.730342 0.554230 0.874728 0.0633 Uiso
C7_3 C 0.771123 0.530627 0.806426 0.0633 Uiso
C9_3 C 0.892051 0.460297 0.596863 0.0633 Uiso
C10_3 C 0.926918 0.487193 0.467127 0.0633 Uiso
C11_3 C 0.919793 0.535264 0.331219 0.0633 Uiso
C12_3 C 0.955674 0.562943 0.197708 0.0633 Uiso
C13_3 C 0.998680 0.542552 0.200106 0.0633 Uiso
C15_3 C 0.969925 0.466803 0.469525 0.0633 Uiso
C17_3 C 0.861071 0.381336 0.795581 0.0633 Uiso
C18_3 C 0.865833 0.331505 0.858946 0.0633 Uiso
C19_3 C 0.906732 0.307991 0.793582 0.0633 Uiso
C20_3 C 0.911632 0.256710 0.858791 0.0633 Uiso
C21_3 C 0.875634 0.228941 0.989364 0.0633 Uiso
C23_3 C 0.829835 0.303736 0.989519 0.0633 Uiso
H3_3 H 0.726853 0.592958 0.830624 . .
H4_3 H 0.798318 0.551596 0.710929 . .
H5_3 H 0.975287 0.430635 0.571785 . .
H7_3 H 0.950313 0.599111 0.0954497 . .
H9_3 H 0.933818 0.328884 0.695338 . .
H10_3 H 0.942405 0.239018 0.80961 . .
H12_3 H 0.887435 0.550607 0.329417 . .
O8_2 O 0.353013 0.084153 0.054489 0.2533 Uiso
C6_4 C 0.269658 0.054230 0.125272 0.0633 Uiso
C7_4 C 0.228877 0.030627 0.193574 0.0633 Uiso
C11_4 C 0.080207 0.035264 0.668781 0.0633 Uiso
C12_4 C 0.044326 0.062943 0.802292 0.0633 Uiso
C13_4 C 0.001320 0.042552 0.799894 0.0633 Uiso
O7_2 O 0.371189 0.030722 0.740268 0.2533 Uiso
H3_4 H 0.273147 0.0929577 0.169376 . .
H4_4 H 0.201682 0.0515956 0.289071 . .
H7_4 H 0.0496872 0.0991112 0.90455 . .
H12_4 H 0.112565 0.0506067 0.670583 . .
C5_4 C 0.305803 0.026361 0.998351 0.0633 Uiso
C8_4 C 0.345431 0.049296 0.93198 0.0633 Uiso
N1_4 N 0.14873 0.983899 0.334836 0.0633 Uiso
N2_4 N 0.103048 0.909015 0.337929 0.0633 Uiso
N3_4 N 0.179711 0.904939 0.136117 0.0633 Uiso
C1_4 C 0.184611 0.956220 0.201325 0.0633 Uiso
C2_4 C 0.224240 0.979156 0.134955 0.0633 Uiso
C3_4 C 0.260384 0.951286 0.008033 0.0633 Uiso
C9_4 C 0.107949 0.960297 0.403137 0.0633 Uiso
C10_4 C 0.073082 0.987193 0.532873 0.0633 Uiso
C15_4 C 0.030075 0.966803 0.530475 0.0633 Uiso
C17_4 C 0.138929 0.881336 0.204419 0.0633 Uiso
C18_4 C 0.134167 0.831505 0.141054 0.0633 Uiso
C19_4 C 0.093268 0.807991 0.206418 0.0633 Uiso
C20_4 C 0.088368 0.756710 0.141209 0.0633 Uiso
C21_4 C 0.124366 0.728941 0.010636 0.0633 Uiso
C23_4 C 0.170165 0.803736 0.010481 0.0633 Uiso
H5_4 H 0.0247134 0.930635 0.428215 . .
H9_4 H 0.0661825 0.828884 0.304662 . .
H10_4 H 0.0575954 0.739018 0.19039 . .
C4_4 C 0.301165 0.974889 0.939732 0.0633 Uiso
C22_4 C 0.165265 0.752455 0.945272 0.0633 Uiso
C24_4 C 0.119604 0.679110 0.947271 0.0633 Uiso
H1_4 H 0.256895 0.912558 0.963928 . .
H2_4 H 0.32836 0.95392 0.844235 . .
H8_4 H 0.200938 0.821428 0.9613 . .
H11_4 H 0.192351 0.731562 0.847028 . .
C16_4 C 0.966453 0.069448 0.929630 0.0633 Uiso
C14_4 C 0.994194 0.994482 0.663986 0.0633 Uiso
H6_4 H 0.961836 0.97914 0.662182 . .
loop_
_geom_bond_atom_site_label_1
_geom_bond_atom_site_label_2
_geom_bond_site_symmetry_1
_geom_bond_site_symmetry_2
O1 C8 1_555 1_555
C8 C5 1_555 1_555
Bi4 O1 1_555 1_555
Bi4 O13 1_555 1_555
Bi4 O2 1_555 1_555
O4 C16 1_555 1_555
C6 C7 1_555 1_555
C12 C11 1_555 1_555
C13 C12 1_555 1_555
C16 C13 1_555 1_555
Bi6 O4 1_555 1_555
O9 Bi4 1_555 1_555
O11 Bi4 1_555 1_555
O14 Bi4 1_555 1_555
C6 H3 1_555 1_555
C7 H4 1_555 1_555
C12 H7 1_555 1_555
C11 H12 1_555 1_555
Bi6 O3 1_555 1_555
O5 C24 1_555 1_555
O6 C24 1_555 1_555
Bi3 O5 1_555 1_555
O6 Bi3 1_555 1_555
C4 H2 1_555 1_555
C22 H11 1_555 1_555
N1 C1 1_555 1_555
N2 C9 1_555 1_555
N3 C1 1_555 1_555
C1 C2 1_555 1_555
C2 C3 1_555 1_555
C9 N1 1_555 1_555
C10 C9 1_555 1_555
C15 C10 1_555 1_555
C17 N2 1_555 1_555
C18 C17 1_555 1_555
C19 C18 1_555 1_555
C20 C19 1_555 1_555
C21 C20 1_555 1_555
C23 C18 1_555 1_555
N3 C17 1_555 1_555
C14 C15 1_555 1_555
C15 H5 1_555 1_555
C14 H6 1_555 1_555
C19 H9 1_555 1_555
C20 H10 1_555 1_555
Bi3 O3_2 1_555 1_555
Bi1 O8 1_555 1_555
O4_2 C16_2 1_555 1_555
N1_2 C1_2 1_555 1_555
N2_2 C9_2 1_555 1_555
N3_2 C1_2 1_555 1_555
C1_2 C2_2 1_555 1_555
C2_2 C3_2 1_555 1_555
C6_2 C7_2 1_555 1_555
C7_2 C2_2 1_555 1_555
C9_2 N1_2 1_555 1_555
C10_2 C9_2 1_555 1_555
C11_2 C10_2 1_555 1_555
C12_2 C11_2 1_555 1_555
C13_2 C12_2 1_555 1_555
C14_2 C13_2 1_555 1_555
C15_2 C10_2 1_555 1_555
C16_2 C13_2 1_555 1_555
C17_2 N2_2 1_555 1_555
C18_2 C17_2 1_555 1_555
C19_2 C18_2 1_555 1_555
C20_2 C19_2 1_555 1_555
C21_2 C20_2 1_555 1_555
C23_2 C18_2 1_555 1_555
Bi3 O4_2 1_555 1_555
O7 Bi1 1_555 1_555
O9_2 Bi1 1_555 1_555
O10 Bi1 1_555 1_555
O12 Bi1 1_555 1_555
O14_2 Bi1 1_555 1_555
N3_2 C17_2 1_555 1_555
C14_2 C15_2 1_555 1_555
C6_2 H3_2 1_555 1_555
C7_2 H4_2 1_555 1_555
C15_2 H5_2 1_555 1_555
C14_2 H6_2 1_555 1_555
C12_2 H7_2 1_555 1_555
C19_2 H9_2 1_555 1_555
C20_2 H10_2 1_555 1_555
C11_2 H12_2 1_555 1_555
O7 C8_2 1_555 1_555
O5_2 C24_2 1_555 1_555
O6_2 C24_2 1_555 1_555
C4_2 C5_2 1_555 1_555
C8_2 C5_2 1_555 1_555
Bi6 O5_2 1_555 1_555
O6_2 Bi6 1_555 1_555
C4_2 H2_2 1_555 1_555
C22_2 H11_2 1_555 1_555
O10 C16_3 1_555 1_555
C14_3 H6_3 1_555 1_555
O1_2 C8_3 1_555 1_555
O13 C24_3 1_555 1_555
O14 C24_3 1_555 1_555
C4_3 C5_3 1_555 1_555
C8_3 C5_3 1_555 1_555
Bi3 O1_2 1_555 1_555
C4_3 H2_3 1_555 1_555
C22_3 H11_3 1_555 1_555
Bi3 O2_2 1_555 1_555
N1_3 C1_3 1_555 1_555
N2_3 C9_3 1_555 1_555
N3_3 C1_3 1_555 1_555
C1_3 C2_3 1_555 1_555
C2_3 C3_3 1_555 1_555
C6_3 C7_3 1_555 1_555
C7_3 C2_3 1_555 1_555
C9_3 N1_3 1_555 1_555
C10_3 C9_3 1_555 1_555
C11_3 C10_3 1_555 1_555
C12_3 C11_3 1_555 1_555
C13_3 C12_3 1_555 1_555
C15_3 C10_3 1_555 1_555
C17_3 N2_3 1_555 1_555
C18_3 C17_3 1_555 1_555
C19_3 C18_3 1_555 1_555
C20_3 C19_3 1_555 1_555
C21_3 C20_3 1_555 1_555
C23_3 C18_3 1_555 1_555
N3_3 C17_3 1_555 1_555
C6_3 H3_3 1_555 1_555
C7_3 H4_3 1_555 1_555
C15_3 H5_3 1_555 1_555
C12_3 H7_3 1_555 1_555
C19_3 H9_3 1_555 1_555
C20_3 H10_3 1_555 1_555
C11_3 H12_3 1_555 1_555
Bi6 O8_2 1_555 1_555
C6_4 C7_4 1_555 1_555
C12_4 C11_4 1_555 1_555
C13_4 C12_4 1_555 1_555
O7_2 Bi6 1_555 1_555
C6_4 H3_4 1_555 1_555
C7_4 H4_4 1_555 1_555
C12_4 H7_4 1_555 1_555
C11_4 H12_4 1_555 1_555
O7_2 C8_4 1_555 1_555
C8_4 C5_4 1_555 1_555
N1_4 C1_4 1_555 1_555
N2_4 C9_4 1_555 1_555
N3_4 C1_4 1_555 1_555
C1_4 C2_4 1_555 1_555
C2_4 C3_4 1_555 1_555
C9_4 N1_4 1_555 1_555
C10_4 C9_4 1_555 1_555
C15_4 C10_4 1_555 1_555
C17_4 N2_4 1_555 1_555
C18_4 C17_4 1_555 1_555
C19_4 C18_4 1_555 1_555
C20_4 C19_4 1_555 1_555
C21_4 C20_4 1_555 1_555
C23_4 C18_4 1_555 1_555
N3_4 C17_4 1_555 1_555
C15_4 H5_4 1_555 1_555
C19_4 H9_4 1_555 1_555
C20_4 H10_4 1_555 1_555
O12 C24_4 1_555 1_555
O14_2 C24_4 1_555 1_555
C4_4 H2_4 1_555 1_555
C22_4 H11_4 1_555 1_555
O11 C16_4 1_555 1_555
C14_4 H6_4 1_555 1_555

#END
