
###############################################################################
#
# This file contains modified crystal structure data generated from the
# MOF subset of the Cambridge Structural Database (CSD) v543 
# hosted by the Cambridge Crystallographic Data Centre (CCDC).
#
# This work is licensed under the Creative Commons
# Attribution-NonCommercial-ShareAlike 4.0 International License.
# To view a copy of this license, visit
# http://creativecommons.org/licenses/by-nc-sa/4.0/
# or send a letter to
# Creative Commons, PO Box 1866, Mountain View, CA 94042, USA.
#
# CIF created using the CSD Python API on 29 September 2022
# The structure has been converted into the P1 space group
# The structure has a 3D framework
# The original CSD entry HEMTEZ is in the orthorhombic crystal system
# The framework has been calculated to contain at least 10.0% void space
# The void calculation uses a probe of radius 1.32A, grid spacing 0.4
# The framework is charged, counterions have been retained in the structure
# H atom positions have been added when not included in the experimental data
# Generated hydrogen atom positions removed from atoms on special positions
#
###############################################################################

data_HEMTEZ
_chemical_formula_moiety         '(C160 H224 Mo48 N32 Ni21 O264 P32)n'
_symmetry_cell_setting           triclinic
_symmetry_space_group_name_H-M   'P 1'
_symmetry_Int_Tables_number      1
_space_group_name_Hall           'P 1'
loop_
_symmetry_equiv_pos_site_id
_symmetry_equiv_pos_as_xyz
1 x,y,z
_cell_length_a                   27.745(2)
_cell_length_b                   16.1583(12)
_cell_length_c                   22.8192(18)
_cell_angle_alpha                90
_cell_angle_beta                 90
_cell_angle_gamma                90
_cell_volume                     10230.1
loop_
_atom_site_label
_atom_site_type_symbol
_atom_site_fract_x
_atom_site_fract_y
_atom_site_fract_z
Mo3 Mo 0.060182(16) 0.11225(3) 0.36951(2)
Ni1 Ni 0.0000 0.0000 0.5000
O10 O 0.03997(15) 0.1667(3) 0.29031(19)
O25 O 0.05746(13) 0.0388(2) 0.43956(16)
O26 O 0.09753(14) 0.0353(2) 0.32231(17)
O27 O 0.09848(15) 0.1875(3) 0.3905(2)
O30 O 0.16032(15) 0.0252(3) 0.4233(2)
Mo10 Mo 0.110690(15) 0.03223(3) 0.59635(2)
Mo12 Mo 0.044240(16) 0.20750(3) 0.55656(2)
Ni5 Ni 0.2500 0.2500 0.65798(4)
P5 P 0.13134(5) 0.21924(9) 0.65679(6)
P8 P 0.00200(4) 0.06720(8) 0.66044(6)
O34 O 0.17663(14) 0.2701(3) 0.65939(18)
O36 O 0.09564(15) 0.2549(2) 0.61223(19)
O37 O 0.14261(14) 0.1272(2) 0.64485(18)
O38 O 0.10565(17) 0.2184(3) 0.7190(2)
O50 O 0.04545(13) 0.1059(2) 0.62811(16)
O51 O 0.00599(14) 0.0839(3) 0.72712(18)
O63 O 0.09850(13) 0.1243(2) 0.53341(17)
O66 O 0.05133(15) 0.2744(3) 0.50095(18)
H25 H 0.00738066 0.303363 0.230763
Mo1 Mo 0.049520(16) 0.79899(3) 0.43920(2)
Mo5 Mo 0.109930(16) 0.98124(3) 0.39677(2)
Ni1_2 Ni 0.0000 1.0000 0.5000
Ni3 Ni 0.2500 0.7500 0.33384(4)
P2 P 0.13351(5) 0.79653(9) 0.33514(6)
O5 O 0.17809(14) 0.7443(3) 0.33203(19)
O6 O 0.09782(15) 0.7581(3) 0.37850(19)
O7 O 0.14546(14) 0.8876(2) 0.35083(19)
O8 O 0.10968(17) 0.7978(3) 0.2721(2)
O14 O 0.04487(13) 0.8981(2) 0.36576(16)
O17 O 0.06335(15) 0.7341(3) 0.49395(19)
O18 O 0.10162(13) 0.8878(2) 0.45955(16)
O19 O 0.00175(11) 0.8742(2) 0.47645(17)
O20 O 0.00238(12) 0.7396(3) 0.39201(18)
O33 O 0.24663(17) 0.8827(3) 0.3367(2)
N3 N 0.2500 0.7500 0.2409(3)
C7 C 0.2164(3) 0.7107(6) 0.2102(3)
H5 H 0.1923 0.6830 0.2305
C8 C 0.2155(3) 0.7086(7) 0.1494(3)
H6 H 0.1914 0.6791 0.1302
C9 C 0.2500 0.7500 0.1173(4)
C11 C 0.2117(3) 0.7193(7) 0.0199(3)
H8 H 0.1851 0.6978 0.0393
C12 C 0.2500 0.7500 0.0511(4)
Mo8 Mo 0.066809(16) 0.89647(3) 0.62625(2)
P7 P 0.00855(6) 0.81402(10) 0.73897(7)
O40 O 0.32191(14) 0.7557(3) 0.33203(19)
O44 O 0.01828(19) 0.7224(3) 0.7450(2)
O46 O 0.05207(15) 0.8529(3) 0.70772(18)
O47 O 0.00681(19) 0.8549(4) 0.8018(2)
O48 O 0.00272(12) 0.9729(2) 0.65413(18)
O56 O 0.05891(13) 0.9689(2) 0.55601(16)
O57 O 0.00416(12) 0.8332(3) 0.59959(18)
O58 O 0.10369(14) 0.9770(2) 0.67138(17)
O59 O 0.10603(15) 0.8240(3) 0.6036(2)
O64 O 0.16218(15) 0.9939(3) 0.5681(2)
O68 O 0.25337(17) 0.6173(3) 0.3367(2)
N6 N 0.2500 0.7500 0.4284(3)
C17 C 0.2836(3) 0.7893(6) 0.2102(3)
H13 H 0.3077 0.8170 0.2305
C18 C 0.2845(3) 0.7914(7) 0.1494(3)
H14 H 0.3086 0.8209 0.1302
C20 C 0.2883(3) 0.7807(7) 0.0199(3)
H16 H 0.3149 0.8022 0.0393
H35 H 0.0381981 0.846423 0.821829
N4 N 0.2500 0.7500 0.9284(3)
C10 C 0.2129(3) 0.7207(6) 0.9589(3)
H7 H 0.1865 0.7000 0.9385
Ni6 Ni 0.2500 0.7500 0.83384(4)
C19 C 0.2871(3) 0.7793(6) 0.9589(3)
H15 H 0.3135 0.8000 0.9385
Mo2 Mo 0.933191(16) 0.10353(3) 0.37375(2)
Ni1_3 Ni 1.0000 0.0000 0.5000
P3 P 0.99145(6) 0.18598(10) 0.26103(7)
O9 O 0.98172(19) 0.2776(3) 0.2550(2)
O11 O 0.94793(15) 0.1471(3) 0.29228(18)
O12 O 0.99319(19) 0.1451(4) 0.1982(2)
O13 O 0.99728(12) 0.0271(2) 0.34587(18)
O21 O 0.94109(13) 0.0311(2) 0.44399(16)
O22 O 0.99584(12) 0.1668(3) 0.40041(18)
O23 O 0.89631(14) 0.0230(2) 0.32862(17)
O24 O 0.89397(15) 0.1760(3) 0.3964(2)
O29 O 0.83782(15) 0.0061(3) 0.4319(2)
Mo7 Mo 0.950480(16) 0.20101(3) 0.56080(2)
Mo11 Mo 0.890070(16) 0.01876(3) 0.60323(2)
Ni7 Ni 0.7500 0.2500 0.66616(4)
P6 P 0.86649(5) 0.20347(9) 0.66486(6)
O39 O 0.82191(14) 0.2557(3) 0.66797(19)
O41 O 0.90218(15) 0.2419(3) 0.62150(19)
O42 O 0.85454(14) 0.1124(2) 0.64917(19)
O43 O 0.89032(17) 0.2022(3) 0.7279(2)
O49 O 0.95513(13) 0.1019(2) 0.63424(16)
O52 O 0.93665(15) 0.2659(3) 0.50605(19)
O53 O 0.89838(13) 0.1122(2) 0.54045(16)
O54 O 0.99825(11) 0.1258(2) 0.52355(17)
O55 O 0.99762(12) 0.2604(3) 0.60799(18)
Mo4 Mo 0.889310(15) 0.96777(3) 0.40365(2)
Mo6 Mo 0.955760(16) 0.79250(3) 0.44344(2)
Ni1_4 Ni 1.0000 1.0000 0.5000
Ni2 Ni 0.7500 0.7500 0.34202(4)
P1 P 0.86866(5) 0.78076(9) 0.34321(6)
P4 P 0.99800(4) 0.93280(8) 0.33956(6)
O1 O 0.82337(14) 0.7299(3) 0.34061(18)
O2 O 0.90436(15) 0.7451(2) 0.38777(19)
O3 O 0.85739(14) 0.8728(2) 0.35515(18)
O4 O 0.89435(17) 0.7816(3) 0.2810(2)
O15 O 0.95455(13) 0.8941(2) 0.37189(16)
O16 O 0.99401(14) 0.9161(3) 0.27288(18)
O28 O 0.90150(13) 0.8757(2) 0.46659(17)
O31 O 0.94867(15) 0.7256(3) 0.49905(18)
O32 O 0.75854(15) 0.8807(3) 0.34169(19)
N1 N 0.7500 0.7500 0.2492(3)
C1 C 0.7774(3) 0.6988(6) 0.2185(3)
H1 H 0.7969 0.6620 0.2388
C2 C 0.7786(3) 0.6969(6) 0.1579(3)
H2 H 0.7987 0.6597 0.1387
C3 C 0.7500 0.7500 0.1256(4)
C5 C 0.7860(3) 0.7104(5) 0.0280(3)
H4 H 0.8108 0.6830 0.0474
C6 C 0.7500 0.7500 0.0600(4)
Mo9 Mo 0.939818(16) 0.88775(3) 0.63049(2)
O35 O 0.67663(14) 0.7701(3) 0.34061(18)
O45 O 0.96003(15) 0.8333(3) 0.70969(19)
O60 O 0.94254(13) 0.9612(2) 0.56044(16)
O61 O 0.90247(14) 0.9647(2) 0.67769(17)
O62 O 0.90152(15) 0.8125(3) 0.6095(2)
O65 O 0.83968(15) 0.9748(3) 0.5767(2)
O67 O 0.74146(15) 0.6193(3) 0.34169(19)
N5 N 0.7500 0.7500 0.4363(3)
C13 C 0.7226(3) 0.8012(6) 0.2185(3)
H9 H 0.7031 0.8380 0.2388
C14 C 0.7214(3) 0.8031(6) 0.1579(3)
H10 H 0.7013 0.8403 0.1387
C16 C 0.7140(3) 0.7896(5) 0.0280(3)
H12 H 0.6892 0.8170 0.0474
N2 N 0.7500 0.7500 0.9363(3)
C4 C 0.7847(3) 0.7119(5) 0.9672(3)
H3 H 0.8092 0.6852 0.9468
Ni4 Ni 0.7500 0.7500 0.84202(4)
C15 C 0.7153(3) 0.7881(5) 0.9672(3)
H11 H 0.6908 0.8148 0.9468
Mo1_2 Mo 0.450480(16) 0.70101(3) 0.43920(2)
Mo2_2 Mo 0.566809(16) 0.39647(3) 0.37375(2)
Mo3_2 Mo 0.439818(16) 0.38775(3) 0.36951(2)
Mo4_2 Mo 0.610690(15) 0.53223(3) 0.40365(2)
Mo5_2 Mo 0.390070(16) 0.51876(3) 0.39677(2)
Mo6_2 Mo 0.544240(16) 0.70750(3) 0.44344(2)
Ni1_5 Ni 0.5000 0.5000 0.5000
P1_2 P 0.63134(5) 0.71924(9) 0.34321(6)
P2_2 P 0.36649(5) 0.70347(9) 0.33514(6)
P3_2 P 0.50855(6) 0.31402(10) 0.26103(7)
P4_2 P 0.50200(4) 0.56720(8) 0.33956(6)
O2_2 O 0.59564(15) 0.7549(2) 0.38777(19)
O3_2 O 0.64261(14) 0.6272(2) 0.35515(18)
O4_2 O 0.60565(17) 0.7184(3) 0.2810(2)
O6_2 O 0.40218(15) 0.7419(3) 0.37850(19)
O7_2 O 0.35454(14) 0.6124(2) 0.35083(19)
O8_2 O 0.39032(17) 0.7022(3) 0.2721(2)
O9_2 O 0.51828(19) 0.2224(3) 0.2550(2)
O10_2 O 0.46003(15) 0.3333(3) 0.29031(19)
O11_2 O 0.55207(15) 0.3529(3) 0.29228(18)
O12_2 O 0.50681(19) 0.3549(4) 0.1982(2)
O13_2 O 0.50272(12) 0.4729(2) 0.34587(18)
O14_2 O 0.45513(13) 0.6019(2) 0.36576(16)
O15_2 O 0.54545(13) 0.6059(2) 0.37189(16)
O16_2 O 0.50599(14) 0.5839(3) 0.27288(18)
O17_2 O 0.43665(15) 0.7659(3) 0.49395(19)
O18_2 O 0.39838(13) 0.6122(2) 0.45955(16)
O19_2 O 0.49825(11) 0.6258(2) 0.47645(17)
O20_2 O 0.49762(12) 0.7604(3) 0.39201(18)
O21_2 O 0.55891(13) 0.4689(2) 0.44399(16)
O22_2 O 0.50416(12) 0.3332(3) 0.40041(18)
O23_2 O 0.60369(14) 0.4770(2) 0.32862(17)
O24_2 O 0.60603(15) 0.3240(3) 0.3964(2)
O25_2 O 0.44254(13) 0.4612(2) 0.43956(16)
O26_2 O 0.40247(14) 0.4647(2) 0.32231(17)
O27_2 O 0.40152(15) 0.3125(3) 0.3905(2)
O28_2 O 0.59850(13) 0.6243(2) 0.46659(17)
O29_2 O 0.66218(15) 0.4939(3) 0.4319(2)
O30_2 O 0.33968(15) 0.4748(3) 0.4233(2)
O31_2 O 0.55133(15) 0.7744(3) 0.49905(18)
Mo7_2 Mo 0.549520(16) 0.29899(3) 0.56080(2)
Mo8_2 Mo 0.433191(16) 0.60353(3) 0.62625(2)
Mo9_2 Mo 0.560182(16) 0.61225(3) 0.63049(2)
Mo10_2 Mo 0.389310(15) 0.46777(3) 0.59635(2)
Mo11_2 Mo 0.609930(16) 0.48124(3) 0.60323(2)
Mo12_2 Mo 0.455760(16) 0.29250(3) 0.55656(2)
P5_2 P 0.36866(5) 0.28076(9) 0.65679(6)
P6_2 P 0.63351(5) 0.29653(9) 0.66486(6)
P7_2 P 0.49145(6) 0.68598(10) 0.73897(7)
P8_2 P 0.49800(4) 0.43280(8) 0.66044(6)
O34_2 O 0.32337(14) 0.2299(3) 0.65939(18)
O36_2 O 0.40436(15) 0.2451(2) 0.61223(19)
O37_2 O 0.35739(14) 0.3728(2) 0.64485(18)
O38_2 O 0.39435(17) 0.2816(3) 0.7190(2)
O39_2 O 0.67809(14) 0.2443(3) 0.66797(19)
O41_2 O 0.59782(15) 0.2581(3) 0.62150(19)
O42_2 O 0.64546(14) 0.3876(2) 0.64917(19)
O43_2 O 0.60968(17) 0.2978(3) 0.7279(2)
O44_2 O 0.48172(19) 0.7776(3) 0.7450(2)
O45_2 O 0.53997(15) 0.6667(3) 0.70969(19)
O46_2 O 0.44793(15) 0.6471(3) 0.70772(18)
O47_2 O 0.49319(19) 0.6451(4) 0.8018(2)
O48_2 O 0.49728(12) 0.5271(2) 0.65413(18)
O49_2 O 0.54487(13) 0.3981(2) 0.63424(16)
O50_2 O 0.45455(13) 0.3941(2) 0.62811(16)
O51_2 O 0.49401(14) 0.4161(3) 0.72712(18)
O52_2 O 0.56335(15) 0.2341(3) 0.50605(19)
O53_2 O 0.60162(13) 0.3878(2) 0.54045(16)
O54_2 O 0.50175(11) 0.3742(2) 0.52355(17)
O55_2 O 0.50238(12) 0.2396(3) 0.60799(18)
O56_2 O 0.44109(13) 0.5311(2) 0.55601(16)
O57_2 O 0.49584(12) 0.6668(3) 0.59959(18)
O58_2 O 0.39631(14) 0.5230(2) 0.67138(17)
O59_2 O 0.39397(15) 0.6760(3) 0.6036(2)
O60_2 O 0.55746(13) 0.5388(2) 0.56044(16)
O61_2 O 0.59753(14) 0.5353(2) 0.67769(17)
O62_2 O 0.59848(15) 0.6875(3) 0.6095(2)
O63_2 O 0.40150(13) 0.3757(2) 0.53341(17)
O64_2 O 0.33782(15) 0.5061(3) 0.5681(2)
O65_2 O 0.66032(15) 0.5252(3) 0.5767(2)
O66_2 O 0.44867(15) 0.2256(3) 0.50095(18)
H25_2 H 0.492619 0.196637 0.230763
H35_2 H 0.461802 0.653577 0.821829
Mo2_3 Mo 0.066809(16) 0.60353(3) 0.12625(2)
Mo4_3 Mo 0.110690(15) 0.46777(3) 0.09635(2)
Mo6_3 Mo 0.044240(16) 0.29250(3) 0.05656(2)
Ni1_6 Ni 0.0000 0.5000 0.0000
Ni2_2 Ni 0.2500 0.2500 0.15798(4)
P1_3 P 0.13134(5) 0.28076(9) 0.15679(6)
P3_3 P 0.00855(6) 0.68598(10) 0.23897(7)
P4_3 P 0.00200(4) 0.43280(8) 0.16044(6)
O1_2 O 0.17663(14) 0.2299(3) 0.15939(18)
O2_3 O 0.09564(15) 0.2451(2) 0.11223(19)
O3_3 O 0.14261(14) 0.3728(2) 0.14485(18)
O4_3 O 0.10565(17) 0.2816(3) 0.2190(2)
O9_3 O 0.01828(19) 0.7776(3) 0.2450(2)
O11_3 O 0.05207(15) 0.6471(3) 0.20772(18)
O12_3 O 0.00681(19) 0.6451(4) 0.3018(2)
O13_3 O 0.00272(12) 0.5271(2) 0.15413(18)
O15_3 O 0.04545(13) 0.3941(2) 0.12811(16)
O16_3 O 0.00599(14) 0.4161(3) 0.22712(18)
O21_3 O 0.05891(13) 0.5311(2) 0.05601(16)
O22_3 O 0.00416(12) 0.6668(3) 0.09959(18)
O23_3 O 0.10369(14) 0.5230(2) 0.17138(17)
O24_3 O 0.10603(15) 0.6760(3) 0.1036(2)
O28_3 O 0.09850(13) 0.3757(2) 0.03341(17)
O29_3 O 0.16218(15) 0.5061(3) 0.0681(2)
O31_3 O 0.05133(15) 0.2256(3) 0.00095(18)
O32_2 O 0.24146(15) 0.3807(3) 0.15831(19)
N1_2 N 0.2500 0.2500 0.2508(3)
N2_2 N 0.2500 0.2500 0.5637(3)
C1_2 C 0.2226(3) 0.1988(6) 0.2815(3)
H1_2 H 0.2031 0.1620 0.2612
C2_2 C 0.2214(3) 0.1969(6) 0.3421(3)
H2_2 H 0.2013 0.1597 0.3613
C3_2 C 0.2500 0.2500 0.3744(4)
C4_2 C 0.2153(3) 0.2119(5) 0.5328(3)
H3_2 H 0.1908 0.1852 0.5532
C5_2 C 0.2140(3) 0.2104(5) 0.4720(3)
H4_2 H 0.1892 0.1830 0.4526
C6_2 C 0.2500 0.2500 0.4400(4)
O35_2 O 0.32337(14) 0.2701(3) 0.15939(18)
O67_2 O 0.25854(15) 0.1193(3) 0.15831(19)
N5_2 N 0.2500 0.2500 0.0637(3)
C13_2 C 0.2774(3) 0.3012(6) 0.2815(3)
H9_2 H 0.2969 0.3380 0.2612
C14_2 C 0.2786(3) 0.3031(6) 0.3421(3)
H10_2 H 0.2987 0.3403 0.3613
C15_2 C 0.2847(3) 0.2881(5) 0.5328(3)
H11_2 H 0.3092 0.3148 0.5532
C16_2 C 0.2860(3) 0.2896(5) 0.4720(3)
H12_2 H 0.3108 0.3170 0.4526
Ni1_7 Ni 0.0000 0.5000 1.0000
Mo7_3 Mo 0.049520(16) 0.70101(3) 0.93920(2)
Mo9_3 Mo 0.060182(16) 0.38775(3) 0.86951(2)
Mo11_3 Mo 0.109930(16) 0.51876(3) 0.89677(2)
P6_3 P 0.13351(5) 0.70347(9) 0.83514(6)
O39_3 O 0.17809(14) 0.7557(3) 0.83203(19)
O41_3 O 0.09782(15) 0.7419(3) 0.87850(19)
O42_3 O 0.14546(14) 0.6124(2) 0.85083(19)
O43_3 O 0.10968(17) 0.7022(3) 0.7721(2)
O45_3 O 0.03997(15) 0.3333(3) 0.79031(19)
O49_3 O 0.04487(13) 0.6019(2) 0.86576(16)
O52_3 O 0.06335(15) 0.7659(3) 0.99395(19)
O53_3 O 0.10162(13) 0.6122(2) 0.95955(16)
O54_3 O 0.00175(11) 0.6258(2) 0.97645(17)
O55_3 O 0.00238(12) 0.7604(3) 0.89201(18)
O60_3 O 0.05746(13) 0.4612(2) 0.93956(16)
O61_3 O 0.09753(14) 0.4647(2) 0.82231(17)
O62_3 O 0.09848(15) 0.3125(3) 0.8905(2)
O65_3 O 0.16032(15) 0.4748(3) 0.9233(2)
Mo1_3 Mo 0.950480(16) 0.29899(3) 0.06080(2)
Mo3_3 Mo 0.939818(16) 0.61225(3) 0.13049(2)
Mo5_3 Mo 0.890070(16) 0.48124(3) 0.10323(2)
Ni1_8 Ni 1.0000 0.5000 0.0000
Ni3_2 Ni 0.7500 0.2500 0.16616(4)
P2_3 P 0.86649(5) 0.29653(9) 0.16486(6)
O5_2 O 0.82191(14) 0.2443(3) 0.16797(19)
O6_3 O 0.90218(15) 0.2581(3) 0.12150(19)
O7_3 O 0.85454(14) 0.3876(2) 0.14917(19)
O8_3 O 0.89032(17) 0.2978(3) 0.2279(2)
O10_3 O 0.96003(15) 0.6667(3) 0.20969(19)
O14_3 O 0.95513(13) 0.3981(2) 0.13424(16)
O17_3 O 0.93665(15) 0.2341(3) 0.00605(19)
O18_3 O 0.89838(13) 0.3878(2) 0.04045(16)
O19_3 O 0.99825(11) 0.3742(2) 0.02355(17)
O20_3 O 0.99762(12) 0.2396(3) 0.10799(18)
O25_3 O 0.94254(13) 0.5388(2) 0.06044(16)
O26_3 O 0.90247(14) 0.5353(2) 0.17769(17)
O27_3 O 0.90152(15) 0.6875(3) 0.1095(2)
O30_3 O 0.83968(15) 0.5252(3) 0.0767(2)
O33_2 O 0.75337(17) 0.3827(3) 0.1633(2)
N3_2 N 0.7500 0.2500 0.2591(3)
N4_2 N 0.7500 0.2500 0.5716(3)
C7_2 C 0.7836(3) 0.2107(6) 0.2898(3)
H5_2 H 0.8077 0.1830 0.2695
C8_2 C 0.7845(3) 0.2086(7) 0.3506(3)
H6_2 H 0.8086 0.1791 0.3698
C9_2 C 0.7500 0.2500 0.3827(4)
C10_2 C 0.7871(3) 0.2207(6) 0.5411(3)
H7_2 H 0.8135 0.2000 0.5615
C11_2 C 0.7883(3) 0.2193(7) 0.4801(3)
H8_2 H 0.8149 0.1978 0.4607
C12_2 C 0.7500 0.2500 0.4489(4)
O40_2 O 0.67809(14) 0.2557(3) 0.16797(19)
O68_2 O 0.74663(17) 0.1173(3) 0.1633(2)
N6_2 N 0.7500 0.2500 0.0716(3)
C17_2 C 0.7164(3) 0.2893(6) 0.2898(3)
H13_2 H 0.6923 0.3170 0.2695
C18_2 C 0.7155(3) 0.2914(7) 0.3506(3)
H14_2 H 0.6914 0.3209 0.3698
C19_2 C 0.7129(3) 0.2793(6) 0.5411(3)
H15_2 H 0.6865 0.3000 0.5615
C20_2 C 0.7117(3) 0.2807(7) 0.4801(3)
H16_2 H 0.6851 0.3022 0.4607
H25_3 H 0.992619 0.803363 0.269237
Ni1_9 Ni 1.0000 0.5000 1.0000
Mo8_3 Mo 0.933191(16) 0.39647(3) 0.87375(2)
Mo10_3 Mo 0.889310(15) 0.53223(3) 0.90365(2)
Mo12_3 Mo 0.955760(16) 0.70750(3) 0.94344(2)
P5_3 P 0.86866(5) 0.71924(9) 0.84321(6)
P7_3 P 0.99145(6) 0.31402(10) 0.76103(7)
P8_3 P 0.99800(4) 0.56720(8) 0.83956(6)
O34_3 O 0.82337(14) 0.7701(3) 0.84061(18)
O36_3 O 0.90436(15) 0.7549(2) 0.88777(19)
O37_3 O 0.85739(14) 0.6272(2) 0.85515(18)
O38_3 O 0.89435(17) 0.7184(3) 0.7810(2)
O44_3 O 0.98172(19) 0.2224(3) 0.7550(2)
O46_3 O 0.94793(15) 0.3529(3) 0.79228(18)
O47_3 O 0.99319(19) 0.3549(4) 0.6982(2)
O48_3 O 0.99728(12) 0.4729(2) 0.84587(18)
O50_3 O 0.95455(13) 0.6059(2) 0.87189(16)
O51_3 O 0.99401(14) 0.5839(3) 0.77288(18)
O56_3 O 0.94109(13) 0.4689(2) 0.94399(16)
O57_3 O 0.99584(12) 0.3332(3) 0.90041(18)
O58_3 O 0.89631(14) 0.4770(2) 0.82862(17)
O59_3 O 0.89397(15) 0.3240(3) 0.8964(2)
O63_3 O 0.90150(13) 0.6243(2) 0.96659(17)
O64_3 O 0.83782(15) 0.4939(3) 0.9319(2)
O66_3 O 0.94867(15) 0.7744(3) 0.99905(18)
H35_3 H 0.961802 0.346423 0.678171
Mo1_4 Mo 0.549520(16) 0.20101(3) 0.06080(2)
Mo4_4 Mo 0.389310(15) 0.03223(3) 0.09635(2)
Mo5_4 Mo 0.609930(16) 0.01876(3) 0.10323(2)
Mo6_4 Mo 0.455760(16) 0.20750(3) 0.05656(2)
Ni1_10 Ni 0.5000 0.0000 0.0000
P1_4 P 0.36866(5) 0.21924(9) 0.15679(6)
P2_4 P 0.63351(5) 0.20347(9) 0.16486(6)
P4_4 P 0.49800(4) 0.06720(8) 0.16044(6)
O2_4 O 0.40436(15) 0.2549(2) 0.11223(19)
O3_4 O 0.35739(14) 0.1272(2) 0.14485(18)
O4_4 O 0.39435(17) 0.2184(3) 0.2190(2)
O6_4 O 0.59782(15) 0.2419(3) 0.12150(19)
O7_4 O 0.64546(14) 0.1124(2) 0.14917(19)
O8_4 O 0.60968(17) 0.2022(3) 0.2279(2)
O14_4 O 0.54487(13) 0.1019(2) 0.13424(16)
O15_4 O 0.45455(13) 0.1059(2) 0.12811(16)
O16_4 O 0.49401(14) 0.0839(3) 0.22712(18)
O17_4 O 0.56335(15) 0.2659(3) 0.00605(19)
O18_4 O 0.60162(13) 0.1122(2) 0.04045(16)
O19_4 O 0.50175(11) 0.1258(2) 0.02355(17)
O20_4 O 0.50238(12) 0.2604(3) 0.10799(18)
O28_4 O 0.40150(13) 0.1243(2) 0.03341(17)
O31_4 O 0.44867(15) 0.2744(3) 0.00095(18)
Ni1_11 Ni 0.5000 1.0000 1.0000
Mo7_4 Mo 0.450480(16) 0.79899(3) 0.93920(2)
Mo10_4 Mo 0.610690(15) 0.96777(3) 0.90365(2)
Mo11_4 Mo 0.390070(16) 0.98124(3) 0.89677(2)
Mo12_4 Mo 0.544240(16) 0.79250(3) 0.94344(2)
P5_4 P 0.63134(5) 0.78076(9) 0.84321(6)
P6_4 P 0.36649(5) 0.79653(9) 0.83514(6)
P8_4 P 0.50200(4) 0.93280(8) 0.83956(6)
O34_4 O 0.67663(14) 0.7299(3) 0.84061(18)
O36_4 O 0.59564(15) 0.7451(2) 0.88777(19)
O37_4 O 0.64261(14) 0.8728(2) 0.85515(18)
O38_4 O 0.60565(17) 0.7816(3) 0.7810(2)
O39_4 O 0.32191(14) 0.7443(3) 0.83203(19)
O41_4 O 0.40218(15) 0.7581(3) 0.87850(19)
O42_4 O 0.35454(14) 0.8876(2) 0.85083(19)
O43_4 O 0.39032(17) 0.7978(3) 0.7721(2)
O49_4 O 0.45513(13) 0.8981(2) 0.86576(16)
O50_4 O 0.54545(13) 0.8941(2) 0.87189(16)
O51_4 O 0.50599(14) 0.9161(3) 0.77288(18)
O52_4 O 0.43665(15) 0.7341(3) 0.99395(19)
O53_4 O 0.39838(13) 0.8878(2) 0.95955(16)
O54_4 O 0.49825(11) 0.8742(2) 0.97645(17)
O55_4 O 0.49762(12) 0.7396(3) 0.89201(18)
O63_4 O 0.59850(13) 0.8757(2) 0.96659(17)
O66_4 O 0.55133(15) 0.7256(3) 0.99905(18)
C4_3 C 0.2153(3) 0.2881(5) 0.0328(3)
H3_3 H 0.1908 0.3148 0.0532
C15_3 C 0.2847(3) 0.2119(5) 0.0328(3)
H11_3 H 0.3092 0.1852 0.0532
O32_3 O 0.24146(15) 0.1193(3) 0.65831(19)
N1_3 N 0.2500 0.2500 0.7508(3)
C1_3 C 0.2226(3) 0.3012(6) 0.7815(3)
H1_3 H 0.2031 0.3380 0.7612
C2_3 C 0.2214(3) 0.3031(6) 0.8421(3)
H2_3 H 0.2013 0.3403 0.8613
C3_3 C 0.2500 0.2500 0.8744(4)
C5_3 C 0.2140(3) 0.2896(5) 0.9720(3)
H4_3 H 0.1892 0.3170 0.9526
C6_3 C 0.2500 0.2500 0.9400(4)
O67_3 O 0.25854(15) 0.3807(3) 0.65831(19)
C13_3 C 0.2774(3) 0.1988(6) 0.7815(3)
H9_3 H 0.2969 0.1620 0.7612
C14_3 C 0.2786(3) 0.1969(6) 0.8421(3)
H10_3 H 0.2987 0.1597 0.8613
C16_3 C 0.2860(3) 0.2104(5) 0.9720(3)
H12_3 H 0.3108 0.1830 0.9526
C10_3 C 0.7871(3) 0.2793(6) 0.0411(3)
H7_3 H 0.8135 0.3000 0.0615
C19_3 C 0.7129(3) 0.2207(6) 0.0411(3)
H15_3 H 0.6865 0.2000 0.0615
O33_3 O 0.75337(17) 0.1173(3) 0.6633(2)
N3_3 N 0.7500 0.2500 0.7591(3)
C7_3 C 0.7836(3) 0.2893(6) 0.7898(3)
H5_3 H 0.8077 0.3170 0.7695
C8_3 C 0.7845(3) 0.2914(7) 0.8506(3)
H6_3 H 0.8086 0.3209 0.8698
C9_3 C 0.7500 0.2500 0.8827(4)
C11_3 C 0.7883(3) 0.2807(7) 0.9801(3)
H8_3 H 0.8149 0.3022 0.9607
C12_3 C 0.7500 0.2500 0.9489(4)
O68_3 O 0.74663(17) 0.3827(3) 0.6633(2)
C17_3 C 0.7164(3) 0.2107(6) 0.7898(3)
H13_3 H 0.6923 0.1830 0.7695
C18_3 C 0.7155(3) 0.2086(7) 0.8506(3)
H14_3 H 0.6914 0.1791 0.8698
C20_3 C 0.7117(3) 0.2193(7) 0.9801(3)
H16_3 H 0.6851 0.1978 0.9607
H35_4 H 0.961802 0.153577 0.178171
H25_4 H 0.992619 0.696637 0.769237
H25_5 H 0.507381 0.803363 0.769237
H35_5 H 0.538198 0.346423 0.178171
H35_6 H 0.0381981 0.653577 0.321829
O33_4 O 0.24663(17) 0.6173(3) 0.8367(2)
N3_4 N 0.2500 0.7500 0.7409(3)
C7_4 C 0.2164(3) 0.7893(6) 0.7102(3)
H5_4 H 0.1923 0.8170 0.7305
C8_4 C 0.2155(3) 0.7914(7) 0.6494(3)
H6_4 H 0.1914 0.8209 0.6302
C9_4 C 0.2500 0.7500 0.6173(4)
C10_4 C 0.2129(3) 0.7793(6) 0.4589(3)
H7_4 H 0.1865 0.8000 0.4385
C11_4 C 0.2117(3) 0.7807(7) 0.5199(3)
H8_4 H 0.1851 0.8022 0.5393
C12_4 C 0.2500 0.7500 0.5511(4)
O68_4 O 0.25337(17) 0.8827(3) 0.8367(2)
C17_4 C 0.2836(3) 0.7107(6) 0.7102(3)
H13_4 H 0.3077 0.6830 0.7305
C18_4 C 0.2845(3) 0.7086(7) 0.6494(3)
H14_4 H 0.3086 0.6791 0.6302
C19_4 C 0.2871(3) 0.7207(6) 0.4589(3)
H15_4 H 0.3135 0.7000 0.4385
C20_4 C 0.2883(3) 0.7193(7) 0.5199(3)
H16_4 H 0.3149 0.6978 0.5393
H25_6 H 0.00738066 0.196637 0.730763
O32_4 O 0.75854(15) 0.6193(3) 0.84169(19)
N1_4 N 0.7500 0.7500 0.7492(3)
C1_4 C 0.7774(3) 0.8012(6) 0.7185(3)
H1_4 H 0.7969 0.8380 0.7388
C2_4 C 0.7786(3) 0.8031(6) 0.6579(3)
H2_4 H 0.7987 0.8403 0.6387
C3_4 C 0.7500 0.7500 0.6256(4)
C4_4 C 0.7847(3) 0.7881(5) 0.4672(3)
H3_4 H 0.8092 0.8148 0.4468
C5_4 C 0.7860(3) 0.7896(5) 0.5280(3)
H4_4 H 0.8108 0.8170 0.5474
C6_4 C 0.7500 0.7500 0.5600(4)
O67_4 O 0.74146(15) 0.8807(3) 0.84169(19)
C13_4 C 0.7226(3) 0.6988(6) 0.7185(3)
H9_4 H 0.7031 0.6620 0.7388
C14_4 C 0.7214(3) 0.6969(6) 0.6579(3)
H10_4 H 0.7013 0.6597 0.6387
C15_4 C 0.7153(3) 0.7119(5) 0.4672(3)
H11_4 H 0.6908 0.6852 0.4468
C16_4 C 0.7140(3) 0.7104(5) 0.5280(3)
H12_4 H 0.6892 0.6830 0.5474
Ni1_12 Ni 0.5000 0.0000 1.0000
Mo8_4 Mo 0.566809(16) 0.10353(3) 0.87375(2)
Mo9_4 Mo 0.439818(16) 0.11225(3) 0.86951(2)
P7_4 P 0.50855(6) 0.18598(10) 0.76103(7)
O44_4 O 0.51828(19) 0.2776(3) 0.7550(2)
O45_4 O 0.46003(15) 0.1667(3) 0.79031(19)
O46_4 O 0.55207(15) 0.1471(3) 0.79228(18)
O47_4 O 0.50681(19) 0.1451(4) 0.6982(2)
O48_4 O 0.50272(12) 0.0271(2) 0.84587(18)
O56_4 O 0.55891(13) 0.0311(2) 0.94399(16)
O57_4 O 0.50416(12) 0.1668(3) 0.90041(18)
O58_4 O 0.60369(14) 0.0230(2) 0.82862(17)
O59_4 O 0.60603(15) 0.1760(3) 0.8964(2)
O60_4 O 0.44254(13) 0.0388(2) 0.93956(16)
O61_4 O 0.40247(14) 0.0353(2) 0.82231(17)
O62_4 O 0.40152(15) 0.1875(3) 0.8905(2)
O64_4 O 0.66218(15) 0.0061(3) 0.9319(2)
O65_4 O 0.33968(15) 0.0252(3) 0.9233(2)
H35_7 H 0.538198 0.153577 0.678171
H25_7 H 0.492619 0.303363 0.730763
Mo2_4 Mo 0.433191(16) 0.89647(3) 0.12625(2)
Mo3_4 Mo 0.560182(16) 0.88775(3) 0.13049(2)
Ni1_13 Ni 0.5000 1.0000 0.0000
P3_4 P 0.49145(6) 0.81402(10) 0.23897(7)
O9_4 O 0.48172(19) 0.7224(3) 0.2450(2)
O10_4 O 0.53997(15) 0.8333(3) 0.20969(19)
O11_4 O 0.44793(15) 0.8529(3) 0.20772(18)
O12_4 O 0.49319(19) 0.8549(4) 0.3018(2)
O13_4 O 0.49728(12) 0.9729(2) 0.15413(18)
O21_4 O 0.44109(13) 0.9689(2) 0.05601(16)
O22_4 O 0.49584(12) 0.8332(3) 0.09959(18)
O23_4 O 0.39631(14) 0.9770(2) 0.17138(17)
O24_4 O 0.39397(15) 0.8240(3) 0.1036(2)
O25_4 O 0.55746(13) 0.9612(2) 0.06044(16)
O26_4 O 0.59753(14) 0.9647(2) 0.17769(17)
O27_4 O 0.59848(15) 0.8125(3) 0.1095(2)
O29_4 O 0.33782(15) 0.9939(3) 0.0681(2)
O30_4 O 0.66032(15) 0.9748(3) 0.0767(2)
H25_8 H 0.507381 0.696637 0.269237
H35_8 H 0.461802 0.846423 0.321829
C21 C 0.7264(3) 0.0032(6) 0.4764(5)
H17 H 0.7545 0.0323 0.4680
C22 C 0.7050(3) 0.0155(6) 0.5296(4)
H18 H 0.7178 0.0533 0.5561
C27 C 0.6378(3) 0.0559(6) 0.6303(3)
H21 H 0.6512 0.1025 0.6129
C28 C 0.6164(4) 0.0616(7) 0.6845(4)
H22 H 0.6148 0.1130 0.7027
H34 H 0.584552 0.00457608 0.751781
N7 N 0.7088(3) 0.9509(5) 0.4355(3)
N8 N 0.5984(4) 0.9977(6) 0.7109(4)
C23 C 0.6633(3) 0.9704(4) 0.5437(3)
C24 C 0.6683(3) 0.9098(5) 0.4481(4)
H19 H 0.6556 0.8744 0.4200
C25 C 0.6448(3) 0.9174(5) 0.5006(4)
H20 H 0.6167 0.8875 0.5076
C26 C 0.6391(3) 0.9783(5) 0.6013(3)
C29 C 0.5975(6) 0.9179(8) 0.6841(6)
H23 H 0.5839 0.8724 0.7027
C30 C 0.6183(4) 0.9113(6) 0.6280(4)
H24 H 0.6179 0.8606 0.6088
H36 H 0.725765 0.943063 0.396485
N7_2 N 0.7912(3) 0.5491(5) 0.4355(3)
N8_2 N 0.9016(4) 0.5023(6) 0.7109(4)
C21_2 C 0.7736(3) 0.4968(6) 0.4764(5)
H17_2 H 0.7455 0.4677 0.4680
C22_2 C 0.7950(3) 0.4845(6) 0.5296(4)
H18_2 H 0.7822 0.4467 0.5561
C23_2 C 0.8367(3) 0.5296(4) 0.5437(3)
C24_2 C 0.8317(3) 0.5902(5) 0.4481(4)
H19_2 H 0.8444 0.6256 0.4200
C25_2 C 0.8552(3) 0.5826(5) 0.5006(4)
H20_2 H 0.8833 0.6125 0.5076
C26_2 C 0.8609(3) 0.5217(5) 0.6013(3)
C27_2 C 0.8622(3) 0.4441(6) 0.6303(3)
H21_2 H 0.8488 0.3975 0.6129
C28_2 C 0.8836(4) 0.4384(7) 0.6845(4)
H22_2 H 0.8852 0.3870 0.7027
C29_2 C 0.9025(6) 0.5821(8) 0.6841(6)
H23_2 H 0.9161 0.6276 0.7027
C30_2 C 0.8817(4) 0.5887(6) 0.6280(4)
H24_2 H 0.8821 0.6394 0.6088
H34_2 H 0.915448 0.495424 0.751781
H36_2 H 0.774235 0.556937 0.396485
N7_3 N 0.2912(3) 0.4509(5) 0.0645(3)
C21_3 C 0.2736(3) 0.5032(6) 0.0236(5)
H17_3 H 0.2455 0.5323 0.0320
C24_3 C 0.3317(3) 0.4098(5) 0.0519(4)
H19_3 H 0.3444 0.3744 0.0800
H36_3 H 0.274235 0.443063 0.103515
N8_3 N 0.4016(4) 0.4977(6) 0.7891(4)
C22_3 C 0.2950(3) 0.5155(6) 0.9704(4)
H18_3 H 0.2822 0.5533 0.9439
C23_3 C 0.3367(3) 0.4704(4) 0.9563(3)
C25_3 C 0.3552(3) 0.4174(5) 0.9994(4)
H20_3 H 0.3833 0.3875 0.9924
C26_3 C 0.3609(3) 0.4783(5) 0.8987(3)
C27_3 C 0.3622(3) 0.5559(6) 0.8697(3)
H21_3 H 0.3488 0.6025 0.8871
C28_3 C 0.3836(4) 0.5616(7) 0.8155(4)
H22_3 H 0.3852 0.6130 0.7973
C29_3 C 0.4025(6) 0.4179(8) 0.8159(6)
H23_3 H 0.4161 0.3724 0.7973
C30_3 C 0.3817(4) 0.4113(6) 0.8720(4)
H24_3 H 0.3821 0.3606 0.8912
H34_3 H 0.415448 0.504576 0.748219
N7_4 N 0.2088(3) 0.0491(5) 0.0645(3)
C24_4 C 0.1683(3) 0.0902(5) 0.0519(4)
H19_4 H 0.1556 0.1256 0.0800
H36_4 H 0.225765 0.056937 0.103515
N8_4 N 0.0984(4) 0.0023(6) 0.7891(4)
C23_4 C 0.1633(3) 0.0296(4) 0.9563(3)
C25_4 C 0.1448(3) 0.0826(5) 0.9994(4)
H20_4 H 0.1167 0.1125 0.9924
C26_4 C 0.1391(3) 0.0217(5) 0.8987(3)
C29_4 C 0.0975(6) 0.0821(8) 0.8159(6)
H23_4 H 0.0839 0.1276 0.7973
C30_4 C 0.1183(4) 0.0887(6) 0.8720(4)
H24_4 H 0.1179 0.1394 0.8912
C21_4 C 0.2264(3) 0.9968(6) 0.0236(5)
H17_4 H 0.2545 0.9677 0.0320
C22_4 C 0.2050(3) 0.9845(6) 0.9704(4)
H18_4 H 0.2178 0.9467 0.9439
C27_4 C 0.1378(3) 0.9441(6) 0.8697(3)
H21_4 H 0.1512 0.8975 0.8871
C28_4 C 0.1164(4) 0.9384(7) 0.8155(4)
H22_4 H 0.1148 0.8870 0.7973
H34_4 H 0.0845517 0.995424 0.748219
N7_5 N 0.2912(3) 0.0491(5) 0.5645(3)
N8_5 N 0.4016(4) 0.0023(6) 0.2891(4)
C23_5 C 0.3367(3) 0.0296(4) 0.4563(3)
C24_5 C 0.3317(3) 0.0902(5) 0.5519(4)
H19_5 H 0.3444 0.1256 0.5800
C25_5 C 0.3552(3) 0.0826(5) 0.4994(4)
H20_5 H 0.3833 0.1125 0.4924
C26_5 C 0.3609(3) 0.0217(5) 0.3987(3)
C29_5 C 0.4025(6) 0.0821(8) 0.3159(6)
H23_5 H 0.4161 0.1276 0.2973
C30_5 C 0.3817(4) 0.0887(6) 0.3720(4)
H24_5 H 0.3821 0.1394 0.3912
H36_5 H 0.274235 0.056937 0.603515
C21_5 C 0.2736(3) 0.9968(6) 0.5236(5)
H17_5 H 0.2455 0.9677 0.5320
C22_5 C 0.2950(3) 0.9845(6) 0.4704(4)
H18_5 H 0.2822 0.9467 0.4439
C27_5 C 0.3622(3) 0.9441(6) 0.3697(3)
H21_5 H 0.3488 0.8975 0.3871
C28_5 C 0.3836(4) 0.9384(7) 0.3155(4)
H22_5 H 0.3852 0.8870 0.2973
H34_5 H 0.415448 0.995424 0.248219
N7_6 N 0.2088(3) 0.4509(5) 0.5645(3)
N8_6 N 0.0984(4) 0.4977(6) 0.2891(4)
C21_6 C 0.2264(3) 0.5032(6) 0.5236(5)
H17_6 H 0.2545 0.5323 0.5320
C22_6 C 0.2050(3) 0.5155(6) 0.4704(4)
H18_6 H 0.2178 0.5533 0.4439
C23_6 C 0.1633(3) 0.4704(4) 0.4563(3)
C24_6 C 0.1683(3) 0.4098(5) 0.5519(4)
H19_6 H 0.1556 0.3744 0.5800
C25_6 C 0.1448(3) 0.4174(5) 0.4994(4)
H20_6 H 0.1167 0.3875 0.4924
C26_6 C 0.1391(3) 0.4783(5) 0.3987(3)
C27_6 C 0.1378(3) 0.5559(6) 0.3697(3)
H21_6 H 0.1512 0.6025 0.3871
C28_6 C 0.1164(4) 0.5616(7) 0.3155(4)
H22_6 H 0.1148 0.6130 0.2973
C29_6 C 0.0975(6) 0.4179(8) 0.3159(6)
H23_6 H 0.0839 0.3724 0.2973
C30_6 C 0.1183(4) 0.4113(6) 0.3720(4)
H24_6 H 0.1179 0.3606 0.3912
H34_6 H 0.0845517 0.504576 0.248219
H36_6 H 0.225765 0.443063 0.603515
N8_7 N 0.5984(4) 0.5023(6) 0.2109(4)
C22_7 C 0.7050(3) 0.4845(6) 0.0296(4)
H18_7 H 0.7178 0.4467 0.0561
C23_7 C 0.6633(3) 0.5296(4) 0.0437(3)
C25_7 C 0.6448(3) 0.5826(5) 0.0006(4)
H20_7 H 0.6167 0.6125 0.0076
C26_7 C 0.6391(3) 0.5217(5) 0.1013(3)
C27_7 C 0.6378(3) 0.4441(6) 0.1303(3)
H21_7 H 0.6512 0.3975 0.1129
C28_7 C 0.6164(4) 0.4384(7) 0.1845(4)
H22_7 H 0.6148 0.3870 0.2027
C29_7 C 0.5975(6) 0.5821(8) 0.1841(6)
H23_7 H 0.5839 0.6276 0.2027
C30_7 C 0.6183(4) 0.5887(6) 0.1280(4)
H24_7 H 0.6179 0.6394 0.1088
H34_7 H 0.584552 0.495424 0.251781
N7_7 N 0.7088(3) 0.5491(5) 0.9355(3)
C21_7 C 0.7264(3) 0.4968(6) 0.9764(5)
H17_7 H 0.7545 0.4677 0.9680
C24_7 C 0.6683(3) 0.5902(5) 0.9481(4)
H19_7 H 0.6556 0.6256 0.9200
H36_7 H 0.725765 0.556937 0.896485
C22_8 C 0.7950(3) 0.0155(6) 0.0296(4)
H18_8 H 0.7822 0.0533 0.0561
C27_8 C 0.8622(3) 0.0559(6) 0.1303(3)
H21_8 H 0.8488 0.1025 0.1129
C28_8 C 0.8836(4) 0.0616(7) 0.1845(4)
H22_8 H 0.8852 0.1130 0.2027
H34_8 H 0.915448 0.00457608 0.251781
C21_8 C 0.7736(3) 0.0032(6) 0.9764(5)
H17_8 H 0.7455 0.0323 0.9680
N8_8 N 0.9016(4) 0.9977(6) 0.2109(4)
C23_8 C 0.8367(3) 0.9704(4) 0.0437(3)
C25_8 C 0.8552(3) 0.9174(5) 0.0006(4)
H20_8 H 0.8833 0.8875 0.0076
C26_8 C 0.8609(3) 0.9783(5) 0.1013(3)
C29_8 C 0.9025(6) 0.9179(8) 0.1841(6)
H23_8 H 0.9161 0.8724 0.2027
C30_8 C 0.8817(4) 0.9113(6) 0.1280(4)
H24_8 H 0.8821 0.8606 0.1088
N7_8 N 0.7912(3) 0.9509(5) 0.9355(3)
C24_8 C 0.8317(3) 0.9098(5) 0.9481(4)
H19_8 H 0.8444 0.8744 0.9200
H36_8 H 0.774235 0.943063 0.896485
loop_
_geom_bond_atom_site_label_1
_geom_bond_atom_site_label_2
_geom_bond_site_symmetry_1
_geom_bond_site_symmetry_2
O10 Mo3 1_555 1_555
O25 Mo3 1_555 1_555
O26 Mo3 1_555 1_555
O27 Mo3 1_555 1_555
Mo10 O37 1_555 1_555
Mo12 O36 1_555 1_555
Ni5 O34 1_555 1_555
P5 O34 1_555 1_555
O36 P5 1_555 1_555
O37 P5 1_555 1_555
O38 P5 1_555 1_555
O50 Mo10 1_555 1_555
O51 P8 1_555 1_555
O63 Mo10 1_555 1_555
O66 Mo12 1_555 1_555
Ni1 O25 1_555 1_555
Mo12 O50 1_555 1_555
Mo12 O63 1_555 1_555
P8 O50 1_555 1_555
Mo5 O7 1_555 1_555
Ni1_2 O19 1_555 1_555
Ni3 O5 1_555 1_555
P2 O5 1_555 1_555
O6 Mo1 1_555 1_555
O7 P2 1_555 1_555
O8 P2 1_555 1_555
O14 Mo1 1_555 1_555
O17 Mo1 1_555 1_555
O18 Mo1 1_555 1_555
O19 Mo1 1_555 1_555
O20 Mo1 1_555 1_555
O33 Ni3 1_555 1_555
N3 Ni3 1_555 1_555
C7 N3 1_555 1_555
H5 C7 1_555 1_555
C8 C7 1_555 1_555
H6 C8 1_555 1_555
C9 C8 1_555 1_555
H8 C11 1_555 1_555
C12 C9 1_555 1_555
P7 O44 1_555 1_555
O40 Ni3 1_555 1_555
O46 Mo8 1_555 1_555
O47 P7 1_555 1_555
O48 Mo8 1_555 1_555
O56 Ni1_2 1_555 1_555
O57 Mo8 1_555 1_555
O58 Mo8 1_555 1_555
O59 Mo8 1_555 1_555
O68 Ni3 1_555 1_555
N6 Ni3 1_555 1_555
C17 N3 1_555 1_555
H13 C17 1_555 1_555
C18 C9 1_555 1_555
H14 C18 1_555 1_555
C20 C12 1_555 1_555
H16 C20 1_555 1_555
Mo5 O14 1_555 1_555
Mo5 O18 1_555 1_555
P2 O6 1_555 1_555
C11 C12 1_555 1_555
Mo8 O56 1_555 1_555
P7 O46 1_555 1_555
C17 C18 1_555 1_555
O47 H35 1_555 1_555
N4 C10 1_555 1_555
C10 H7 1_555 1_555
Ni6 N4 1_555 1_555
C19 N4 1_555 1_555
H15 C19 1_555 1_555
P3 O9 1_555 1_555
O11 Mo2 1_555 1_555
O12 P3 1_555 1_555
O13 Mo2 1_555 1_555
O21 Mo2 1_555 1_555
O22 Mo2 1_555 1_555
O23 Mo2 1_555 1_555
O24 Mo2 1_555 1_555
Mo11 O42 1_555 1_555
Ni7 O39 1_555 1_555
P6 O39 1_555 1_555
O41 Mo7 1_555 1_555
O42 P6 1_555 1_555
O43 P6 1_555 1_555
O49 Mo7 1_555 1_555
O52 Mo7 1_555 1_555
O53 Mo7 1_555 1_555
O54 Ni1_3 1_555 1_555
O55 Mo7 1_555 1_555
Ni1_3 O21 1_555 1_555
P3 O11 1_555 1_555
Mo7 O54 1_555 1_555
Mo11 O49 1_555 1_555
Mo11 O53 1_555 1_555
P6 O41 1_555 1_555
Mo4 O3 1_555 1_555
Mo6 O2 1_555 1_555
Ni2 O1 1_555 1_555
P1 O1 1_555 1_555
O2 P1 1_555 1_555
O3 P1 1_555 1_555
O4 P1 1_555 1_555
O15 Mo4 1_555 1_555
O16 P4 1_555 1_555
O28 Mo4 1_555 1_555
O31 Mo6 1_555 1_555
O32 Ni2 1_555 1_555
N1 Ni2 1_555 1_555
C1 N1 1_555 1_555
H1 C1 1_555 1_555
C2 C1 1_555 1_555
H2 C2 1_555 1_555
C3 C2 1_555 1_555
H4 C5 1_555 1_555
C6 C3 1_555 1_555
O35 Ni2 1_555 1_555
O45 Mo9 1_555 1_555
O60 Ni1_4 1_555 1_555
O61 Mo9 1_555 1_555
O62 Mo9 1_555 1_555
O67 Ni2 1_555 1_555
N5 Ni2 1_555 1_555
C13 N1 1_555 1_555
H9 C13 1_555 1_555
C14 C3 1_555 1_555
H10 C14 1_555 1_555
C16 C6 1_555 1_555
H12 C16 1_555 1_555
Mo6 O15 1_555 1_555
Mo6 O28 1_555 1_555
P4 O15 1_555 1_555
C5 C6 1_555 1_555
Mo9 O60 1_555 1_555
C13 C14 1_555 1_555
N2 C4 1_555 1_555
C4 H3 1_555 1_555
Ni4 N2 1_555 1_555
C15 N2 1_555 1_555
H11 C15 1_555 1_555
Mo1_2 Mo6_2 1_555 1_555
Mo2_2 Mo4_2 1_555 1_555
Mo3_2 Mo5_2 1_555 1_555
Mo4_2 O3_2 1_555 1_555
Mo5_2 O7_2 1_555 1_555
Mo6_2 O2_2 1_555 1_555
Ni1_5 O19_2 1_555 1_555
P1_2 O35 1_555 1_555
P2_2 O40 1_555 1_555
P3_2 O9_2 1_555 1_555
P4_2 O13_2 1_555 1_555
O2_2 P1_2 1_555 1_555
O3_2 P1_2 1_555 1_555
O4_2 P1_2 1_555 1_555
O6_2 Mo1_2 1_555 1_555
O7_2 P2_2 1_555 1_555
O8_2 P2_2 1_555 1_555
O10_2 Mo3_2 1_555 1_555
O11_2 Mo2_2 1_555 1_555
O12_2 P3_2 1_555 1_555
O13_2 Mo2_2 1_555 1_555
O14_2 Mo1_2 1_555 1_555
O15_2 Mo4_2 1_555 1_555
O16_2 P4_2 1_555 1_555
O17_2 Mo1_2 1_555 1_555
O18_2 Mo1_2 1_555 1_555
O19_2 Mo1_2 1_555 1_555
O20_2 Mo1_2 1_555 1_555
O21_2 Mo2_2 1_555 1_555
O22_2 Mo2_2 1_555 1_555
O23_2 Mo2_2 1_555 1_555
O24_2 Mo2_2 1_555 1_555
O25_2 Mo3_2 1_555 1_555
O26_2 Mo3_2 1_555 1_555
O27_2 Mo3_2 1_555 1_555
O28_2 Mo4_2 1_555 1_555
O29_2 Mo4_2 1_555 1_555
O30_2 Mo5_2 1_555 1_555
O31_2 Mo6_2 1_555 1_555
Mo7_2 Mo12_2 1_555 1_555
Mo8_2 Mo10_2 1_555 1_555
Mo9_2 Mo11_2 1_555 1_555
Mo10_2 O37_2 1_555 1_555
Mo11_2 O42_2 1_555 1_555
Mo12_2 O36_2 1_555 1_555
Ni5 O34_2 1_555 1_555
Ni7 O39_2 1_555 1_555
P5_2 O34_2 1_555 1_555
P6_2 O39_2 1_555 1_555
P7_2 O44_2 1_555 1_555
P8_2 O48_2 1_555 1_555
O36_2 P5_2 1_555 1_555
O37_2 P5_2 1_555 1_555
O38_2 P5_2 1_555 1_555
O41_2 Mo7_2 1_555 1_555
O42_2 P6_2 1_555 1_555
O43_2 P6_2 1_555 1_555
O45_2 Mo9_2 1_555 1_555
O46_2 Mo8_2 1_555 1_555
O47_2 P7_2 1_555 1_555
O48_2 Mo8_2 1_555 1_555
O49_2 Mo7_2 1_555 1_555
O50_2 Mo10_2 1_555 1_555
O51_2 P8_2 1_555 1_555
O52_2 Mo7_2 1_555 1_555
O53_2 Mo7_2 1_555 1_555
O54_2 Ni1_5 1_555 1_555
O55_2 Mo7_2 1_555 1_555
O56_2 Ni1_5 1_555 1_555
O57_2 Mo8_2 1_555 1_555
O58_2 Mo8_2 1_555 1_555
O59_2 Mo8_2 1_555 1_555
O60_2 Ni1_5 1_555 1_555
O61_2 Mo9_2 1_555 1_555
O62_2 Mo9_2 1_555 1_555
O63_2 Mo10_2 1_555 1_555
O64_2 Mo10_2 1_555 1_555
O65_2 Mo11_2 1_555 1_555
O66_2 Mo12_2 1_555 1_555
Mo3_2 O13_2 1_555 1_555
Mo3_2 O22_2 1_555 1_555
Mo4_2 O21_2 1_555 1_555
Mo4_2 O23_2 1_555 1_555
Mo5_2 O14_2 1_555 1_555
Mo5_2 O18_2 1_555 1_555
Mo5_2 O25_2 1_555 1_555
Mo5_2 O26_2 1_555 1_555
Mo6_2 O15_2 1_555 1_555
Mo6_2 O19_2 1_555 1_555
Mo6_2 O20_2 1_555 1_555
Mo6_2 O28_2 1_555 1_555
Ni1_5 O21_2 1_555 1_555
Ni1_5 O25_2 1_555 1_555
P2_2 O6_2 1_555 1_555
P3_2 O10_2 1_555 1_555
P3_2 O11_2 1_555 1_555
P4_2 O14_2 1_555 1_555
P4_2 O15_2 1_555 1_555
Mo7_2 O54_2 1_555 1_555
Mo8_2 O56_2 1_555 1_555
Mo9_2 O48_2 1_555 1_555
Mo9_2 O57_2 1_555 1_555
Mo9_2 O60_2 1_555 1_555
Mo10_2 O56_2 1_555 1_555
Mo10_2 O58_2 1_555 1_555
Mo11_2 O49_2 1_555 1_555
Mo11_2 O53_2 1_555 1_555
Mo11_2 O60_2 1_555 1_555
Mo11_2 O61_2 1_555 1_555
Mo12_2 O50_2 1_555 1_555
Mo12_2 O54_2 1_555 1_555
Mo12_2 O55_2 1_555 1_555
Mo12_2 O63_2 1_555 1_555
P6_2 O41_2 1_555 1_555
P7_2 O45_2 1_555 1_555
P7_2 O46_2 1_555 1_555
P8_2 O49_2 1_555 1_555
P8_2 O50_2 1_555 1_555
O9_2 H25_2 1_555 1_555
O47_2 H35_2 1_555 1_555
Mo2_3 Mo4_3 1_555 1_555
Mo4_3 O3_3 1_555 1_555
Mo6_3 O2_3 1_555 1_555
Ni2_2 O1_2 1_555 1_555
P1_3 O1_2 1_555 1_555
P3_3 O9_3 1_555 1_555
P4_3 O13_3 1_555 1_555
O2_3 P1_3 1_555 1_555
O3_3 P1_3 1_555 1_555
O4_3 P1_3 1_555 1_555
O11_3 Mo2_3 1_555 1_555
O12_3 P3_3 1_555 1_555
O13_3 Mo2_3 1_555 1_555
O15_3 Mo4_3 1_555 1_555
O16_3 P4_3 1_555 1_555
O21_3 Mo2_3 1_555 1_555
O22_3 Mo2_3 1_555 1_555
O23_3 Mo2_3 1_555 1_555
O24_3 Mo2_3 1_555 1_555
O28_3 Mo4_3 1_555 1_555
O29_3 Mo4_3 1_555 1_555
O31_3 Mo6_3 1_555 1_555
O32_2 Ni2_2 1_555 1_555
N1_2 Ni2_2 1_555 1_555
N2_2 C4_2 1_555 1_555
C1_2 N1_2 1_555 1_555
H1_2 C1_2 1_555 1_555
C2_2 C1_2 1_555 1_555
H2_2 C2_2 1_555 1_555
C3_2 C2_2 1_555 1_555
C4_2 H3_2 1_555 1_555
C5_2 C4_2 1_555 1_555
H4_2 C5_2 1_555 1_555
C6_2 C3_2 1_555 1_555
Ni5 N2_2 1_555 1_555
O35_2 Ni2_2 1_555 1_555
O67_2 Ni2_2 1_555 1_555
N5_2 Ni2_2 1_555 1_555
C13_2 N1_2 1_555 1_555
H9_2 C13_2 1_555 1_555
C14_2 C3_2 1_555 1_555
H10_2 C14_2 1_555 1_555
C15_2 N2_2 1_555 1_555
H11_2 C15_2 1_555 1_555
C16_2 C6_2 1_555 1_555
H12_2 C16_2 1_555 1_555
Mo4_3 O21_3 1_555 1_555
Mo4_3 O23_3 1_555 1_555
Mo6_3 O15_3 1_555 1_555
Mo6_3 O28_3 1_555 1_555
Ni1_6 O21_3 1_555 1_555
P3_3 O11_3 1_555 1_555
P4_3 O15_3 1_555 1_555
C5_2 C6_2 1_555 1_555
C13_2 C14_2 1_555 1_555
C15_2 C16_2 1_555 1_555
Mo9_3 Mo11_3 1_555 1_555
Mo11_3 O42_3 1_555 1_555
Ni6 O39_3 1_555 1_555
P6_3 O39_3 1_555 1_555
O41_3 Mo7_3 1_555 1_555
O42_3 P6_3 1_555 1_555
O43_3 P6_3 1_555 1_555
O45_3 Mo9_3 1_555 1_555
O49_3 Mo7_3 1_555 1_555
O52_3 Mo7_3 1_555 1_555
O53_3 Mo7_3 1_555 1_555
O54_3 Ni1_7 1_555 1_555
O55_3 Mo7_3 1_555 1_555
O60_3 Ni1_7 1_555 1_555
O61_3 Mo9_3 1_555 1_555
O62_3 Mo9_3 1_555 1_555
O65_3 Mo11_3 1_555 1_555
Mo7_3 O54_3 1_555 1_555
Mo9_3 O60_3 1_555 1_555
Mo11_3 O49_3 1_555 1_555
Mo11_3 O53_3 1_555 1_555
Mo11_3 O60_3 1_555 1_555
Mo11_3 O61_3 1_555 1_555
P6_3 O41_3 1_555 1_555
Mo3_3 Mo5_3 1_555 1_555
Mo5_3 O7_3 1_555 1_555
Ni1_8 O19_3 1_555 1_555
Ni3_2 O5_2 1_555 1_555
P2_3 O5_2 1_555 1_555
O6_3 Mo1_3 1_555 1_555
O7_3 P2_3 1_555 1_555
O8_3 P2_3 1_555 1_555
O10_3 Mo3_3 1_555 1_555
O14_3 Mo1_3 1_555 1_555
O17_3 Mo1_3 1_555 1_555
O18_3 Mo1_3 1_555 1_555
O19_3 Mo1_3 1_555 1_555
O20_3 Mo1_3 1_555 1_555
O25_3 Mo3_3 1_555 1_555
O26_3 Mo3_3 1_555 1_555
O27_3 Mo3_3 1_555 1_555
O30_3 Mo5_3 1_555 1_555
O33_2 Ni3_2 1_555 1_555
N3_2 Ni3_2 1_555 1_555
N4_2 C10_2 1_555 1_555
C7_2 N3_2 1_555 1_555
H5_2 C7_2 1_555 1_555
C8_2 C7_2 1_555 1_555
H6_2 C8_2 1_555 1_555
C9_2 C8_2 1_555 1_555
C10_2 H7_2 1_555 1_555
C11_2 C10_2 1_555 1_555
H8_2 C11_2 1_555 1_555
C12_2 C9_2 1_555 1_555
Ni7 N4_2 1_555 1_555
O40_2 Ni3_2 1_555 1_555
O68_2 Ni3_2 1_555 1_555
N6_2 Ni3_2 1_555 1_555
C17_2 N3_2 1_555 1_555
H13_2 C17_2 1_555 1_555
C18_2 C9_2 1_555 1_555
H14_2 C18_2 1_555 1_555
C19_2 N4_2 1_555 1_555
H15_2 C19_2 1_555 1_555
C20_2 C12_2 1_555 1_555
H16_2 C20_2 1_555 1_555
Mo5_3 O14_3 1_555 1_555
Mo5_3 O18_3 1_555 1_555
Mo5_3 O25_3 1_555 1_555
Mo5_3 O26_3 1_555 1_555
Ni1_8 O25_3 1_555 1_555
P2_3 O6_3 1_555 1_555
C11_2 C12_2 1_555 1_555
C17_2 C18_2 1_555 1_555
C19_2 C20_2 1_555 1_555
Mo8_3 Mo10_3 1_555 1_555
Mo10_3 O37_3 1_555 1_555
Mo12_3 O36_3 1_555 1_555
Ni4 O34_3 1_555 1_555
P5_3 O34_3 1_555 1_555
P7_3 O44_3 1_555 1_555
P8_3 O48_3 1_555 1_555
O36_3 P5_3 1_555 1_555
O37_3 P5_3 1_555 1_555
O38_3 P5_3 1_555 1_555
O46_3 Mo8_3 1_555 1_555
O47_3 P7_3 1_555 1_555
O48_3 Mo8_3 1_555 1_555
O50_3 Mo10_3 1_555 1_555
O51_3 P8_3 1_555 1_555
O56_3 Ni1_9 1_555 1_555
O57_3 Mo8_3 1_555 1_555
O58_3 Mo8_3 1_555 1_555
O59_3 Mo8_3 1_555 1_555
O63_3 Mo10_3 1_555 1_555
O64_3 Mo10_3 1_555 1_555
O66_3 Mo12_3 1_555 1_555
Mo8_3 O56_3 1_555 1_555
Mo10_3 O56_3 1_555 1_555
Mo10_3 O58_3 1_555 1_555
Mo12_3 O50_3 1_555 1_555
Mo12_3 O63_3 1_555 1_555
P7_3 O46_3 1_555 1_555
P8_3 O50_3 1_555 1_555
O47_3 H35_3 1_555 1_555
Mo1_4 Mo6_4 1_555 1_555
Mo4_4 O3_4 1_555 1_555
Mo5_4 O7_4 1_555 1_555
Mo6_4 O2_4 1_555 1_555
Ni1_10 O19_4 1_555 1_555
P1_4 O35_2 1_555 1_555
P2_4 O40_2 1_555 1_555
O2_4 P1_4 1_555 1_555
O3_4 P1_4 1_555 1_555
O4_4 P1_4 1_555 1_555
O6_4 Mo1_4 1_555 1_555
O7_4 P2_4 1_555 1_555
O8_4 P2_4 1_555 1_555
O14_4 Mo1_4 1_555 1_555
O15_4 Mo4_4 1_555 1_555
O16_4 P4_4 1_555 1_555
O17_4 Mo1_4 1_555 1_555
O18_4 Mo1_4 1_555 1_555
O19_4 Mo1_4 1_555 1_555
O20_4 Mo1_4 1_555 1_555
O28_4 Mo4_4 1_555 1_555
O31_4 Mo6_4 1_555 1_555
Mo5_4 O14_4 1_555 1_555
Mo5_4 O18_4 1_555 1_555
Mo6_4 O15_4 1_555 1_555
Mo6_4 O19_4 1_555 1_555
Mo6_4 O20_4 1_555 1_555
Mo6_4 O28_4 1_555 1_555
P2_4 O6_4 1_555 1_555
P4_4 O14_4 1_555 1_555
P4_4 O15_4 1_555 1_555
Mo7_4 Mo12_4 1_555 1_555
Mo10_4 O37_4 1_555 1_555
Mo11_4 O42_4 1_555 1_555
Mo12_4 O36_4 1_555 1_555
Ni4 O34_4 1_555 1_555
Ni6 O39_4 1_555 1_555
P5_4 O34_4 1_555 1_555
P6_4 O39_4 1_555 1_555
O36_4 P5_4 1_555 1_555
O37_4 P5_4 1_555 1_555
O38_4 P5_4 1_555 1_555
O41_4 Mo7_4 1_555 1_555
O42_4 P6_4 1_555 1_555
O43_4 P6_4 1_555 1_555
O49_4 Mo7_4 1_555 1_555
O50_4 Mo10_4 1_555 1_555
O51_4 P8_4 1_555 1_555
O52_4 Mo7_4 1_555 1_555
O53_4 Mo7_4 1_555 1_555
O54_4 Ni1_11 1_555 1_555
O55_4 Mo7_4 1_555 1_555
O63_4 Mo10_4 1_555 1_555
O66_4 Mo12_4 1_555 1_555
Mo7_4 O54_4 1_555 1_555
Mo11_4 O49_4 1_555 1_555
Mo11_4 O53_4 1_555 1_555
Mo12_4 O50_4 1_555 1_555
Mo12_4 O54_4 1_555 1_555
Mo12_4 O55_4 1_555 1_555
Mo12_4 O63_4 1_555 1_555
P6_4 O41_4 1_555 1_555
P8_4 O49_4 1_555 1_555
P8_4 O50_4 1_555 1_555
N5_2 C4_3 1_555 1_555
C4_3 H3_3 1_555 1_555
C15_3 N5_2 1_555 1_555
H11_3 C15_3 1_555 1_555
O32_3 Ni5 1_555 1_555
N1_3 Ni5 1_555 1_555
C1_3 N1_3 1_555 1_555
H1_3 C1_3 1_555 1_555
C2_3 C1_3 1_555 1_555
H2_3 C2_3 1_555 1_555
C3_3 C2_3 1_555 1_555
H4_3 C5_3 1_555 1_555
C6_3 C3_3 1_555 1_555
O67_3 Ni5 1_555 1_555
C13_3 N1_3 1_555 1_555
H9_3 C13_3 1_555 1_555
C14_3 C3_3 1_555 1_555
H10_3 C14_3 1_555 1_555
C16_3 C6_3 1_555 1_555
H12_3 C16_3 1_555 1_555
C5_3 C6_3 1_555 1_555
C13_3 C14_3 1_555 1_555
N6_2 C10_3 1_555 1_555
C10_3 H7_3 1_555 1_555
C19_3 N6_2 1_555 1_555
H15_3 C19_3 1_555 1_555
O33_3 Ni7 1_555 1_555
N3_3 Ni7 1_555 1_555
C7_3 N3_3 1_555 1_555
H5_3 C7_3 1_555 1_555
C8_3 C7_3 1_555 1_555
H6_3 C8_3 1_555 1_555
C9_3 C8_3 1_555 1_555
H8_3 C11_3 1_555 1_555
C12_3 C9_3 1_555 1_555
O68_3 Ni7 1_555 1_555
C17_3 N3_3 1_555 1_555
H13_3 C17_3 1_555 1_555
C18_3 C9_3 1_555 1_555
H14_3 C18_3 1_555 1_555
C20_3 C12_3 1_555 1_555
H16_3 C20_3 1_555 1_555
C11_3 C12_3 1_555 1_555
C17_3 C18_3 1_555 1_555
O12 H35_4 1_555 1_555
O44_2 H25_5 1_555 1_555
O12_2 H35_5 1_555 1_555
O12_3 H35_6 1_555 1_555
O33_4 Ni6 1_555 1_555
N3_4 Ni6 1_555 1_555
N6 C10_4 1_555 1_555
C7_4 N3_4 1_555 1_555
H5_4 C7_4 1_555 1_555
C8_4 C7_4 1_555 1_555
H6_4 C8_4 1_555 1_555
C9_4 C8_4 1_555 1_555
C10_4 H7_4 1_555 1_555
C11_4 C10_4 1_555 1_555
H8_4 C11_4 1_555 1_555
C12_4 C9_4 1_555 1_555
O68_4 Ni6 1_555 1_555
C17_4 N3_4 1_555 1_555
H13_4 C17_4 1_555 1_555
C18_4 C9_4 1_555 1_555
H14_4 C18_4 1_555 1_555
C19_4 N6 1_555 1_555
H15_4 C19_4 1_555 1_555
C20_4 C12_4 1_555 1_555
H16_4 C20_4 1_555 1_555
C11_4 C12_4 1_555 1_555
C17_4 C18_4 1_555 1_555
C19_4 C20_4 1_555 1_555
O32_4 Ni4 1_555 1_555
N1_4 Ni4 1_555 1_555
N5 C4_4 1_555 1_555
C1_4 N1_4 1_555 1_555
H1_4 C1_4 1_555 1_555
C2_4 C1_4 1_555 1_555
H2_4 C2_4 1_555 1_555
C3_4 C2_4 1_555 1_555
C4_4 H3_4 1_555 1_555
C5_4 C4_4 1_555 1_555
H4_4 C5_4 1_555 1_555
C6_4 C3_4 1_555 1_555
O67_4 Ni4 1_555 1_555
C13_4 N1_4 1_555 1_555
H9_4 C13_4 1_555 1_555
C14_4 C3_4 1_555 1_555
H10_4 C14_4 1_555 1_555
C15_4 N5 1_555 1_555
H11_4 C15_4 1_555 1_555
C16_4 C6_4 1_555 1_555
H12_4 C16_4 1_555 1_555
C5_4 C6_4 1_555 1_555
C13_4 C14_4 1_555 1_555
C15_4 C16_4 1_555 1_555
P7_4 O44_4 1_555 1_555
O45_4 Mo9_4 1_555 1_555
O46_4 Mo8_4 1_555 1_555
O47_4 P7_4 1_555 1_555
O48_4 Mo8_4 1_555 1_555
O56_4 Ni1_12 1_555 1_555
O57_4 Mo8_4 1_555 1_555
O58_4 Mo8_4 1_555 1_555
O59_4 Mo8_4 1_555 1_555
O60_4 Ni1_12 1_555 1_555
O61_4 Mo9_4 1_555 1_555
O62_4 Mo9_4 1_555 1_555
Mo8_4 O56_4 1_555 1_555
Mo9_4 O48_4 1_555 1_555
Mo9_4 O57_4 1_555 1_555
Mo9_4 O60_4 1_555 1_555
P7_4 O45_4 1_555 1_555
P7_4 O46_4 1_555 1_555
O47_4 H35_7 1_555 1_555
O44_4 H25_7 1_555 1_555
P3_4 O9_4 1_555 1_555
O10_4 Mo3_4 1_555 1_555
O11_4 Mo2_4 1_555 1_555
O12_4 P3_4 1_555 1_555
O13_4 Mo2_4 1_555 1_555
O21_4 Mo2_4 1_555 1_555
O22_4 Mo2_4 1_555 1_555
O23_4 Mo2_4 1_555 1_555
O24_4 Mo2_4 1_555 1_555
O25_4 Mo3_4 1_555 1_555
O26_4 Mo3_4 1_555 1_555
O27_4 Mo3_4 1_555 1_555
Mo3_4 O13_4 1_555 1_555
Mo3_4 O22_4 1_555 1_555
Ni1_13 O21_4 1_555 1_555
Ni1_13 O25_4 1_555 1_555
P3_4 O10_4 1_555 1_555
P3_4 O11_4 1_555 1_555
O9_4 H25_8 1_555 1_555
O12_4 H35_8 1_555 1_555
C21 H17 1_555 1_555
C22 C21 1_555 1_555
H18 C22 1_555 1_555
H21 C27 1_555 1_555
C28 C27 1_555 1_555
H22 C28 1_555 1_555
C24 N7 1_555 1_555
H19 C24 1_555 1_555
C25 C23 1_555 1_555
H20 C25 1_555 1_555
C26 C23 1_555 1_555
C29 N8 1_555 1_555
H23 C29 1_555 1_555
C30 C26 1_555 1_555
H24 C30 1_555 1_555
C24 C25 1_555 1_555
C29 C30 1_555 1_555
N7 H36 1_555 1_555
N7_2 C21_2 1_555 1_555
N8_2 C28_2 1_555 1_555
C21_2 H17_2 1_555 1_555
C22_2 C21_2 1_555 1_555
H18_2 C22_2 1_555 1_555
C23_2 C22_2 1_555 1_555
C24_2 N7_2 1_555 1_555
H19_2 C24_2 1_555 1_555
C25_2 C23_2 1_555 1_555
H20_2 C25_2 1_555 1_555
C26_2 C23_2 1_555 1_555
C27_2 C26_2 1_555 1_555
H21_2 C27_2 1_555 1_555
C28_2 C27_2 1_555 1_555
H22_2 C28_2 1_555 1_555
C29_2 N8_2 1_555 1_555
H23_2 C29_2 1_555 1_555
C30_2 C26_2 1_555 1_555
H24_2 C30_2 1_555 1_555
C24_2 C25_2 1_555 1_555
C29_2 C30_2 1_555 1_555
N8_2 H34_2 1_555 1_555
N7_2 H36_2 1_555 1_555
N7_3 C21_3 1_555 1_555
C21_3 H17_3 1_555 1_555
C24_3 N7_3 1_555 1_555
H19_3 C24_3 1_555 1_555
N7_3 H36_3 1_555 1_555
N8_3 C28_3 1_555 1_555
H18_3 C22_3 1_555 1_555
C23_3 C22_3 1_555 1_555
C25_3 C23_3 1_555 1_555
H20_3 C25_3 1_555 1_555
C26_3 C23_3 1_555 1_555
C27_3 C26_3 1_555 1_555
H21_3 C27_3 1_555 1_555
C28_3 C27_3 1_555 1_555
H22_3 C28_3 1_555 1_555
C29_3 N8_3 1_555 1_555
H23_3 C29_3 1_555 1_555
C30_3 C26_3 1_555 1_555
H24_3 C30_3 1_555 1_555
C29_3 C30_3 1_555 1_555
N8_3 H34_3 1_555 1_555
C24_4 N7_4 1_555 1_555
H19_4 C24_4 1_555 1_555
N7_4 H36_4 1_555 1_555
C25_4 C23_4 1_555 1_555
H20_4 C25_4 1_555 1_555
C26_4 C23_4 1_555 1_555
C29_4 N8_4 1_555 1_555
H23_4 C29_4 1_555 1_555
C30_4 C26_4 1_555 1_555
H24_4 C30_4 1_555 1_555
C29_4 C30_4 1_555 1_555
C21_4 H17_4 1_555 1_555
H18_4 C22_4 1_555 1_555
H21_4 C27_4 1_555 1_555
C28_4 C27_4 1_555 1_555
H22_4 C28_4 1_555 1_555
C24_5 N7_5 1_555 1_555
H19_5 C24_5 1_555 1_555
C25_5 C23_5 1_555 1_555
H20_5 C25_5 1_555 1_555
C26_5 C23_5 1_555 1_555
C29_5 N8_5 1_555 1_555
H23_5 C29_5 1_555 1_555
C30_5 C26_5 1_555 1_555
H24_5 C30_5 1_555 1_555
C24_5 C25_5 1_555 1_555
C29_5 C30_5 1_555 1_555
N7_5 H36_5 1_555 1_555
C21_5 H17_5 1_555 1_555
C22_5 C21_5 1_555 1_555
H18_5 C22_5 1_555 1_555
H21_5 C27_5 1_555 1_555
C28_5 C27_5 1_555 1_555
H22_5 C28_5 1_555 1_555
N7_6 C21_6 1_555 1_555
N8_6 C28_6 1_555 1_555
C21_6 H17_6 1_555 1_555
C22_6 C21_6 1_555 1_555
H18_6 C22_6 1_555 1_555
C23_6 C22_6 1_555 1_555
C24_6 N7_6 1_555 1_555
H19_6 C24_6 1_555 1_555
C25_6 C23_6 1_555 1_555
H20_6 C25_6 1_555 1_555
C26_6 C23_6 1_555 1_555
C27_6 C26_6 1_555 1_555
H21_6 C27_6 1_555 1_555
C28_6 C27_6 1_555 1_555
H22_6 C28_6 1_555 1_555
C29_6 N8_6 1_555 1_555
H23_6 C29_6 1_555 1_555
C30_6 C26_6 1_555 1_555
H24_6 C30_6 1_555 1_555
C24_6 C25_6 1_555 1_555
C29_6 C30_6 1_555 1_555
N8_6 H34_6 1_555 1_555
N7_6 H36_6 1_555 1_555
N8_7 C28_7 1_555 1_555
H18_7 C22_7 1_555 1_555
C23_7 C22_7 1_555 1_555
C25_7 C23_7 1_555 1_555
H20_7 C25_7 1_555 1_555
C26_7 C23_7 1_555 1_555
C27_7 C26_7 1_555 1_555
H21_7 C27_7 1_555 1_555
C28_7 C27_7 1_555 1_555
H22_7 C28_7 1_555 1_555
C29_7 N8_7 1_555 1_555
H23_7 C29_7 1_555 1_555
C30_7 C26_7 1_555 1_555
H24_7 C30_7 1_555 1_555
C29_7 C30_7 1_555 1_555
N8_7 H34_7 1_555 1_555
N7_7 C21_7 1_555 1_555
C21_7 H17_7 1_555 1_555
C24_7 N7_7 1_555 1_555
H19_7 C24_7 1_555 1_555
N7_7 H36_7 1_555 1_555
H18_8 C22_8 1_555 1_555
H21_8 C27_8 1_555 1_555
C28_8 C27_8 1_555 1_555
H22_8 C28_8 1_555 1_555
C21_8 H17_8 1_555 1_555
C25_8 C23_8 1_555 1_555
H20_8 C25_8 1_555 1_555
C26_8 C23_8 1_555 1_555
C29_8 N8_8 1_555 1_555
H23_8 C29_8 1_555 1_555
C30_8 C26_8 1_555 1_555
H24_8 C30_8 1_555 1_555
C29_8 C30_8 1_555 1_555
C24_8 N7_8 1_555 1_555
H19_8 C24_8 1_555 1_555
N7_8 H36_8 1_555 1_555

#END
