
###############################################################################
#
# This file contains modified crystal structure data generated from the
# MOF subset of the Cambridge Structural Database (CSD) v543 
# hosted by the Cambridge Crystallographic Data Centre (CCDC).
#
# This work is licensed under the Creative Commons
# Attribution-NonCommercial-ShareAlike 4.0 International License.
# To view a copy of this license, visit
# http://creativecommons.org/licenses/by-nc-sa/4.0/
# or send a letter to
# Creative Commons, PO Box 1866, Mountain View, CA 94042, USA.
#
# CIF created using the CSD Python API on 29 September 2022
# The structure has been converted into the P1 space group
# The structure has a 3D framework
# The original CSD entry HENJUI is in the orthorhombic crystal system
# The original CSD entry HENJUI is in a Sohncke space group
# The framework has been calculated to contain at least 10.0% void space
# The void calculation uses a probe of radius 1.32A, grid spacing 0.4
# H atom positions have been added when not included in the experimental data
#
###############################################################################

data_HENJUI
_chemical_formula_moiety         '(C132 H188 Co4 N8 O44 Zn8)n'
_symmetry_cell_setting           triclinic
_symmetry_space_group_name_H-M   'P 1'
_symmetry_Int_Tables_number      1
_space_group_name_Hall           'P 1'
loop_
_symmetry_equiv_pos_site_id
_symmetry_equiv_pos_as_xyz
1 x,y,z
_cell_length_a                   13.606(3)
_cell_length_b                   14.404(3)
_cell_length_c                   23.214(5)
_cell_angle_alpha                90
_cell_angle_beta                 90
_cell_angle_gamma                90
_cell_volume                     4549.5
loop_
_atom_site_label
_atom_site_type_symbol
_atom_site_fract_x
_atom_site_fract_y
_atom_site_fract_z
H46 H 0.219486 0.021704 0.00977072
Zn2 Zn 0.13027(5) 0.02238(6) 0.63035(3)
Co1 Co 0.25157(6) 0.00324(5) 0.75094(3)
O2 O 0.2521(3) 0.0379(3) 0.84013(17)
O4 O 0.6339(5) 0.3522(4) 0.6482(2)
O5 O 0.3994(3) 0.0362(4) 0.74254(19)
O6 O 0.1336(5) 0.1543(4) 0.6497(2)
O7 O 0.7112(4) 0.3654(3) 0.7315(2)
O8 O 0.4778(4) 0.0412(5) 0.82667(19)
O9 O 0.2137(4) 0.1415(3) 0.7342(2)
C1 C 0.4725(5) 0.0516(5) 0.7724(3)
C3 C 0.1690(5) 0.1866(4) 0.6965(3)
C4 C 0.1594(5) 0.2916(4) 0.7045(3)
C5 C 0.6702(5) 0.3194(4) 0.6947(3)
C6 C 0.5487(5) 0.1870(5) 0.7149(3)
C7 C 0.5621(4) 0.0871(4) 0.7410(3)
C8 C 0.4980(7) 0.2510(4) 0.7605(5)
H1 H 0.5373 0.2528 0.7949
H2 H 0.4916 0.3126 0.7452
H3 H 0.4341 0.2269 0.7695
C9 C 0.7177(5) 0.1742(5) 0.7529(4)
H4 H 0.7771 0.1452 0.7385
H5 H 0.7360 0.2224 0.7801
C10 C 0.2080(6) 0.3249(6) 0.7596(4)
H6 H 0.2063 0.2764 0.7886
H7 H 0.2761 0.3413 0.7523
C12 C 0.6517(5) 0.1019(6) 0.7822(4)
H10 H 0.6297 0.1243 0.8195
H11 H 0.6871 0.0441 0.7877
C13 C 0.1510(6) 0.4091(7) 0.7799(4)
H12 H 0.1911 0.4646 0.7770
H13 H 0.1308 0.4014 0.8197
C14 C 0.1800(8) 0.0855(9) 0.8583(3)
H14 H 0.1191 0.0587 0.8442
H15 H 0.1848 0.1483 0.8435
C15 C 0.4838(6) 0.1858(7) 0.6605(3)
H16 H 0.5135 0.1468 0.6318
H17 H 0.4199 0.1620 0.6701
H18 H 0.4775 0.2478 0.6457
C16 C 0.1787(8) 0.0878(11) 0.9245(3)
H19 H 0.1238 0.1240 0.9374
H20 H 0.1730 0.0256 0.9390
H21 H 0.2386 0.1151 0.9383
C17 C 0.0609(5) 0.4168(5) 0.7405(3)
H22 H 0.0772 0.4607 0.7097
C18 C 0.6566(4) 0.2161(4) 0.7023(3)
H23 H 0.6773 0.1855 0.6666
C19 C 0.5873(7) 0.0134(6) 0.6961(4)
H24 H 0.6441 0.0326 0.6747
H26 H 0.5327 0.0057 0.6703
H27 H 0.0231 0.3668 0.6313
C21 C 0.2070(8) 0.3411(7) 0.6517(4)
H30 H 0.1761 0.3199 0.6169
H31 H 0.1983 0.4070 0.6553
H32 H 0.2759 0.3270 0.6504
C23 C 0.0495(6) 0.3205(5) 0.7130(3)
C24 C 0.0001(8) 0.2530(5) 0.7550(5)
H36 H 0.0371 0.2508 0.7902
Zn3 Zn 0.62805(6) 0.48303(6) 0.62769(3)
Co3 Co 0.74843(6) 0.50324(5) 0.74906(3)
N3 N 0.0865(5) 0.0171(6) 0.5501(2)
C25 C 0.3666(5) 0.9871(7) 0.0010(3)
N2 N 0.4135(5) 0.9829(6) 0.0501(2)
C26 C 0.5095(6) 0.9673(8) 0.0329(3)
C29 C 0.5949(7) 0.9556(11) 0.0658(4)
H40 H 0.5927 0.9515 0.1058
C30 C 0.6832(7) 0.9504(13) 0.0357(4)
H41 H 0.7426 0.9520 0.0555
C32 C 0.2589(13) 0.9573(17) 0.0014(7)
C33 C 0.191(3) 0.878(2) 0.0334(11)
H43 H 0.2001 0.8820 0.0743
H44 H 0.1235 0.8874 0.0240
H45 H 0.2113 0.8172 0.0205
Zn4 Zn 0.36973(5) 0.97762(6) 0.13035(3)
Zn1 Zn 0.37195(6) 0.98303(6) 0.87231(3)
O1 O 0.2516(3) 0.9698(4) 0.66242(19)
C11 C 0.3166(7) 0.9276(8) 0.6417(3)
H8 H 0.3328 0.8757 0.6665
H9 H 0.3741 0.9673 0.6393
H25 H 0.6007 0.9556 0.7151
C22 C 0.2923(8) 0.8907(9) 0.5812(3)
H33 H 0.3476 0.8570 0.5664
H34 H 0.2364 0.8503 0.5834
H35 H 0.2777 0.9419 0.5561
N1 N 0.4181(4) 0.9881(5) 0.9529(2)
C27 C 0.5130(6) 0.9731(7) 0.9730(3)
C28 C 0.6009(6) 0.9677(10) 0.9437(4)
H39 H 0.6046 0.9806 0.9045
C31 C 0.6827(9) 0.9426(13) 0.9745(5)
H42 H 0.7379 0.9203 0.9554
O11 O 0.2317(11) 0.9346(17) 0.9427(7)
O12 O 0.1049(3) 0.9697(4) 0.75982(19)
O13 O 0.3661(5) 0.8522(4) 0.8518(2)
O14 O 0.2888(4) 0.8654(3) 0.7685(2)
O15 O 0.0287(4) 0.9608(5) 0.6762(2)
H47 H 0.27395 0.883295 0.928447
O3 O 0.8951(3) 0.4697(4) 0.74018(19)
O10 O 0.9713(4) 0.4608(5) 0.8238(2)
C2 C 0.9677(4) 0.4528(4) 0.7708(3)
C20 C 0.9918(8) 0.3244(8) 0.6574(4)
H28 H 0.9896 0.2637 0.6404
H29 H 0.9262 0.3453 0.6652
H37 H 0.9345 0.2737 0.7630
H38 H 0.9979 0.1922 0.7382
Zn5 Zn 0.86973(5) 0.52238(6) 0.86965(3)
Zn1_2 Zn 0.12805(6) 0.01697(6) 0.37231(3)
O1_2 O 0.2484(3) 0.0302(4) 0.16242(19)
C11_2 C 0.1834(7) 0.0724(8) 0.1417(3)
H8_2 H 0.1672 0.1243 0.1665
H9_2 H 0.1259 0.0327 0.1393
C22_2 C 0.2077(8) 0.1093(9) 0.0812(3)
H33_2 H 0.1524 0.1430 0.0664
H34_2 H 0.2636 0.1497 0.0834
H35_2 H 0.2223 0.0581 0.0561
C25_2 C 0.1334(5) 0.0129(7) 0.5010(3)
N1_2 N 0.0819(4) 0.0119(5) 0.4529(2)
C32_2 C 0.2411(13) 0.0427(17) 0.5014(7)
C33_2 C 0.309(3) 0.122(2) 0.5334(11)
H43_2 H 0.2999 0.1180 0.5743
H44_2 H 0.3765 0.1126 0.5240
H45_2 H 0.2887 0.1828 0.5205
O11_2 O 0.2683(11) 0.0654(17) 0.4427(7)
O12_2 O 0.3951(3) 0.0303(4) 0.25982(19)
O13_2 O 0.1339(5) 0.1478(4) 0.3518(2)
O14_2 O 0.2112(4) 0.1346(3) 0.2685(2)
O15_2 O 0.4713(4) 0.0392(5) 0.1762(2)
H47_2 H 0.22605 0.116705 0.428447
Co1_2 Co 0.24843(6) 0.99676(5) 0.25094(3)
O2_2 O 0.2479(3) 0.9621(3) 0.34013(17)
O3_2 O 0.6049(3) 0.5303(4) 0.24018(19)
O5_2 O 0.1006(3) 0.9638(4) 0.24254(19)
O6_2 O 0.3664(5) 0.8457(4) 0.1497(2)
O8_2 O 0.0222(4) 0.9588(5) 0.32667(19)
O9_2 O 0.2863(4) 0.8585(3) 0.2342(2)
O10_2 O 0.5287(4) 0.5392(5) 0.3238(2)
C1_2 C 0.0275(5) 0.9484(5) 0.2724(3)
C2_2 C 0.5323(4) 0.5472(4) 0.2708(3)
C3_2 C 0.3310(5) 0.8134(4) 0.1965(3)
C4_2 C 0.3406(5) 0.7084(4) 0.2045(3)
C8_2 C 0.0020(7) 0.7490(4) 0.2605(5)
H2_2 H 0.0084 0.6874 0.2452
H3_2 H 0.0659 0.7731 0.2695
C10_2 C 0.2920(6) 0.6751(6) 0.2596(4)
H6_2 H 0.2937 0.7236 0.2886
H7_2 H 0.2239 0.6587 0.2523
C13_2 C 0.3490(6) 0.5909(7) 0.2799(4)
H12_2 H 0.3089 0.5354 0.2770
H13_2 H 0.3692 0.5986 0.3197
C14_2 C 0.3200(8) 0.9145(9) 0.3583(3)
H14_2 H 0.3809 0.9413 0.3442
H15_2 H 0.3152 0.8517 0.3435
C15_2 C 0.0162(6) 0.8142(7) 0.1605(3)
H17_2 H 0.0801 0.8380 0.1701
H18_2 H 0.0225 0.7522 0.1457
C16_2 C 0.3213(8) 0.9122(11) 0.4245(3)
H19_2 H 0.3762 0.8760 0.4374
H20_2 H 0.3270 0.9744 0.4390
H21_2 H 0.2614 0.8849 0.4383
C17_2 C 0.4391(5) 0.5832(5) 0.2405(3)
H22_2 H 0.4228 0.5393 0.2097
C20_2 C 0.5082(8) 0.6756(8) 0.1574(4)
H27_2 H 0.4769 0.6332 0.1313
H28_2 H 0.5104 0.7363 0.1404
H29_2 H 0.5738 0.6547 0.1652
C21_2 C 0.2930(8) 0.6589(7) 0.1517(4)
H30_2 H 0.3239 0.6801 0.1169
H31_2 H 0.3017 0.5930 0.1553
H32_2 H 0.2241 0.6730 0.1504
C23_2 C 0.4505(6) 0.6795(5) 0.2130(3)
C24_2 C 0.4999(8) 0.7470(5) 0.2550(5)
H36_2 H 0.4629 0.7492 0.2902
H37_2 H 0.5655 0.7263 0.2630
H38_2 H 0.5021 0.8078 0.2382
Zn5_2 Zn 0.63027(5) 0.47762(6) 0.36965(3)
Co2 Co 0.75157(6) 0.49676(5) 0.24906(3)
H46_2 H 0.280514 0.978296 0.509771
O4_2 O 0.8661(5) 0.6478(4) 0.1482(2)
O7_2 O 0.7888(4) 0.6346(3) 0.2315(2)
C5_2 C 0.8298(5) 0.6806(4) 0.1947(3)
C6_2 C 0.9513(5) 0.8130(5) 0.2149(3)
C7_2 C 0.9379(4) 0.9129(4) 0.2410(3)
H1_2 H 0.9627 0.7472 0.2949
C9_2 C 0.7823(5) 0.8258(5) 0.2529(4)
H4_2 H 0.7229 0.8548 0.2385
H5_2 H 0.7640 0.7776 0.2801
C12_2 C 0.8483(5) 0.8981(6) 0.2822(4)
H10_2 H 0.8703 0.8757 0.3195
H11_2 H 0.8129 0.9559 0.2877
H16_2 H 0.9865 0.8532 0.1318
C18_2 C 0.8434(4) 0.7839(4) 0.2023(3)
H23_2 H 0.8227 0.8145 0.1666
C19_2 C 0.9127(7) 0.9866(6) 0.1961(4)
H24_2 H 0.8559 0.9674 0.1747
H26_2 H 0.9673 0.9943 0.1703
Zn3_2 Zn 0.87195(6) 0.51697(6) 0.12769(3)
C2_3 C 0.0323(4) 0.9528(4) 0.7292(3)
C20_3 C 0.0082(8) 0.8244(8) 0.8426(4)
H28_3 H 0.0104 0.7637 0.8596
H29_3 H 0.0738 0.8453 0.8348
H37_3 H 0.0655 0.7737 0.7370
H38_3 H 0.0021 0.6922 0.7618
O1_3 O 0.7484(3) 0.4698(4) 0.83758(19)
O2_3 O 0.7479(3) 0.5379(3) 0.65987(17)
O5_3 O 0.6006(3) 0.5362(4) 0.75746(19)
O6_3 O 0.8664(5) 0.6543(4) 0.8503(2)
O8_3 O 0.5222(4) 0.5412(5) 0.67333(19)
O9_3 O 0.7863(4) 0.6415(3) 0.7658(2)
C1_3 C 0.5275(5) 0.5516(5) 0.7276(3)
C3_3 C 0.8310(5) 0.6866(4) 0.8035(3)
C4_3 C 0.8406(5) 0.7916(4) 0.7955(3)
C5_3 C 0.3298(5) 0.8194(4) 0.8053(3)
C6_3 C 0.4513(5) 0.6870(5) 0.7851(3)
C7_3 C 0.4379(4) 0.5871(4) 0.7590(3)
C8_3 C 0.5020(7) 0.7510(4) 0.7395(5)
H1_3 H 0.4627 0.7528 0.7051
H2_3 H 0.5084 0.8126 0.7548
H3_3 H 0.5659 0.7269 0.7305
C9_3 C 0.2823(5) 0.6742(5) 0.7471(4)
H4_3 H 0.2229 0.6452 0.7615
H5_3 H 0.2640 0.7224 0.7199
C10_3 C 0.7920(6) 0.8249(6) 0.7404(4)
H6_3 H 0.7937 0.7764 0.7114
H7_3 H 0.7239 0.8413 0.7477
C11_3 C 0.6834(7) 0.4276(8) 0.8583(3)
H8_3 H 0.6672 0.3757 0.8335
H9_3 H 0.6259 0.4673 0.8607
C12_3 C 0.3483(5) 0.6019(6) 0.7178(4)
H10_3 H 0.3703 0.6243 0.6805
H11_3 H 0.3129 0.5441 0.7123
C13_3 C 0.8490(6) 0.9091(7) 0.7201(4)
H12_3 H 0.8089 0.9646 0.7230
H13_3 H 0.8692 0.9014 0.6803
C14_3 C 0.8200(8) 0.5855(9) 0.6417(3)
H14_3 H 0.8809 0.5587 0.6558
H15_3 H 0.8152 0.6483 0.6565
C15_3 C 0.5162(6) 0.6858(7) 0.8395(3)
H16_3 H 0.4865 0.6468 0.8682
H17_3 H 0.5801 0.6620 0.8299
H18_3 H 0.5225 0.7478 0.8543
C16_3 C 0.8213(8) 0.5878(11) 0.5755(3)
H19_3 H 0.8762 0.6240 0.5626
H20_3 H 0.8270 0.5256 0.5610
H21_3 H 0.7614 0.6151 0.5617
C17_3 C 0.9391(5) 0.9168(5) 0.7595(3)
H22_3 H 0.9228 0.9607 0.7903
C18_3 C 0.3434(4) 0.7161(4) 0.7977(3)
H23_3 H 0.3227 0.6855 0.8334
C19_3 C 0.4127(7) 0.5134(6) 0.8039(4)
H24_3 H 0.3559 0.5326 0.8253
H25_2 H 0.3993 0.4556 0.7849
H26_3 H 0.4673 0.5057 0.8297
H27_3 H 0.9769 0.8668 0.8687
C21_3 C 0.7930(8) 0.8411(7) 0.8483(4)
H30_3 H 0.8239 0.8199 0.8831
H31_3 H 0.8017 0.9070 0.8447
H32_3 H 0.7241 0.8270 0.8496
C22_3 C 0.7077(8) 0.3907(9) 0.9188(3)
H33_3 H 0.6524 0.3570 0.9336
H34_3 H 0.7636 0.3503 0.9166
H35_3 H 0.7223 0.4419 0.9439
C23_3 C 0.9505(6) 0.8205(5) 0.7870(3)
C24_3 C 0.9999(8) 0.7530(5) 0.7450(5)
H36_3 H 0.9629 0.7508 0.7098
C25_3 C 0.6334(5) 0.4871(7) 0.4990(3)
N1_3 N 0.5819(4) 0.4881(5) 0.5471(2)
N2_2 N 0.5865(5) 0.4829(6) 0.4499(2)
C26_2 C 0.4905(6) 0.4673(8) 0.4671(3)
C27_2 C 0.4870(6) 0.4731(7) 0.5270(3)
C28_2 C 0.3991(6) 0.4677(10) 0.5563(4)
H39_2 H 0.3954 0.4806 0.5955
C29_2 C 0.4051(7) 0.4556(11) 0.4342(4)
H40_2 H 0.4073 0.4515 0.3942
C30_2 C 0.3168(7) 0.4504(13) 0.4643(4)
H41_2 H 0.2574 0.4520 0.4445
C31_2 C 0.3173(9) 0.4426(13) 0.5255(5)
H42_2 H 0.2621 0.4203 0.5446
C32_3 C 0.7411(13) 0.4573(17) 0.4986(7)
C33_3 C 0.809(3) 0.378(2) 0.4666(11)
H43_3 H 0.7999 0.3820 0.4257
H44_3 H 0.8765 0.3874 0.4760
H45_3 H 0.7887 0.3172 0.4795
O11_3 O 0.7683(11) 0.4346(17) 0.5573(7)
N3_2 N 0.9135(5) 0.5171(6) 0.9499(2)
H46_3 H 0.780514 0.521704 0.490229
H47_3 H 0.72605 0.383295 0.571553
C5_4 C 0.1702(5) 0.1806(4) 0.3053(3)
C6_4 C 0.0487(5) 0.3130(5) 0.2851(3)
C7_4 C 0.0621(4) 0.4129(4) 0.2590(3)
H1_4 H 0.0373 0.2472 0.2051
C9_4 C 0.2177(5) 0.3258(5) 0.2471(4)
H4_4 H 0.2771 0.3548 0.2615
H5_4 H 0.2360 0.2776 0.2199
C12_4 C 0.1517(5) 0.3981(6) 0.2178(4)
H10_4 H 0.1297 0.3757 0.1805
H11_4 H 0.1871 0.4559 0.2123
H16_4 H 0.0135 0.3532 0.3682
C18_4 C 0.1566(4) 0.2839(4) 0.2977(3)
H23_4 H 0.1773 0.3145 0.3334
C19_4 C 0.0873(7) 0.4866(6) 0.3039(4)
H24_4 H 0.1441 0.4674 0.3253
H25_3 H 0.1007 0.5444 0.2849
H26_4 H 0.0327 0.4943 0.3297
C27_3 C 0.0130(6) 0.5269(7) 0.0270(3)
C28_3 C 0.1009(6) 0.5323(10) 0.0563(4)
H39_3 H 0.1046 0.5194 0.0955
C31_3 C 0.1827(9) 0.5574(13) 0.0255(5)
H42_3 H 0.2379 0.5797 0.0446
O1_4 O 0.7516(3) 0.5302(4) 0.33758(19)
O2_4 O 0.7521(3) 0.4621(3) 0.15987(17)
O5_4 O 0.8994(3) 0.4638(4) 0.25746(19)
O6_4 O 0.6336(5) 0.3457(4) 0.3503(2)
O8_4 O 0.9778(4) 0.4588(5) 0.17333(19)
O9_4 O 0.7137(4) 0.3585(3) 0.2658(2)
C1_4 C 0.9725(5) 0.4484(5) 0.2276(3)
C2_4 C 0.4677(4) 0.0472(4) 0.2292(3)
C3_4 C 0.6690(5) 0.3134(4) 0.3035(3)
C4_4 C 0.6594(5) 0.2084(4) 0.2955(3)
C8_4 C 0.9980(7) 0.2490(4) 0.2395(5)
H2_4 H 0.9916 0.1874 0.2548
H3_4 H 0.9341 0.2731 0.2305
C10_4 C 0.7080(6) 0.1751(6) 0.2404(4)
H6_4 H 0.7063 0.2236 0.2114
H7_4 H 0.7761 0.1587 0.2477
C11_4 C 0.8166(7) 0.5724(8) 0.3583(3)
H8_4 H 0.8328 0.6243 0.3335
H9_4 H 0.8741 0.5327 0.3607
C13_4 C 0.6510(6) 0.0909(7) 0.2201(4)
H12_4 H 0.6911 0.0354 0.2230
H13_4 H 0.6308 0.0986 0.1803
C14_4 C 0.6800(8) 0.4145(9) 0.1417(3)
H14_4 H 0.6191 0.4413 0.1558
H15_4 H 0.6848 0.3517 0.1565
C15_4 C 0.9838(6) 0.3142(7) 0.3395(3)
H17_4 H 0.9199 0.3380 0.3299
H18_4 H 0.9775 0.2522 0.3543
C16_4 C 0.6787(8) 0.4122(11) 0.0755(3)
H19_4 H 0.6238 0.3760 0.0626
H20_4 H 0.6730 0.4744 0.0610
H21_4 H 0.7386 0.3849 0.0617
C17_4 C 0.5609(5) 0.0832(5) 0.2595(3)
H22_4 H 0.5772 0.0393 0.2903
C20_4 C 0.4918(8) 0.1756(8) 0.3426(4)
H27_4 H 0.5231 0.1332 0.3687
H28_4 H 0.4896 0.2363 0.3596
H29_4 H 0.4262 0.1547 0.3348
C21_4 C 0.7070(8) 0.1589(7) 0.3483(4)
H30_4 H 0.6761 0.1801 0.3831
H31_4 H 0.6983 0.0930 0.3447
H32_4 H 0.7759 0.1730 0.3496
C22_4 C 0.7923(8) 0.6093(9) 0.4188(3)
H33_4 H 0.8476 0.6430 0.4336
H34_4 H 0.7364 0.6497 0.4166
H35_4 H 0.7777 0.5581 0.4439
C23_4 C 0.5495(6) 0.1795(5) 0.2870(3)
C24_4 C 0.5001(8) 0.2470(5) 0.2450(5)
H36_4 H 0.5371 0.2492 0.2098
H37_4 H 0.4345 0.2263 0.2370
H38_4 H 0.4979 0.3078 0.2618
N1_4 N 0.9181(4) 0.5119(5) 0.0471(2)
O11_4 O 0.7317(11) 0.5654(17) 0.0573(7)
H47_4 H 0.77395 0.616705 0.0715528
C25_4 C 0.8666(5) 0.5129(7) 0.9990(3)
C32_4 C 0.7589(13) 0.5427(17) 0.9986(7)
C33_4 C 0.691(3) 0.622(2) 0.9666(11)
H43_4 H 0.7001 0.6180 0.9257
H44_4 H 0.6235 0.6126 0.9760
H45_4 H 0.7113 0.6828 0.9795
H46_4 H 0.719486 0.478296 0.990229
H25_4 H 0.8993 0.0444 0.2151
C26_3 C 0.9905(6) 0.0327(8) 0.5329(3)
C27_4 C 0.9870(6) 0.0269(7) 0.4730(3)
C28_4 C 0.8991(6) 0.0323(10) 0.4437(4)
H39_4 H 0.8954 0.0194 0.4045
C29_3 C 0.9051(7) 0.0444(11) 0.5658(4)
H40_3 H 0.9073 0.0485 0.6058
C30_3 C 0.8168(7) 0.0496(13) 0.5357(4)
H41_3 H 0.7574 0.0480 0.5555
C31_4 C 0.8173(9) 0.0574(13) 0.4745(5)
H42_4 H 0.7621 0.0797 0.4554
C26_4 C 0.0095(6) 0.5327(8) 0.9671(3)
C29_4 C 0.0949(7) 0.5444(11) 0.9342(4)
H40_4 H 0.0927 0.5485 0.8942
C30_4 C 0.1832(7) 0.5496(13) 0.9643(4)
H41_4 H 0.2426 0.5480 0.9445
loop_
_geom_bond_atom_site_label_1
_geom_bond_atom_site_label_2
_geom_bond_site_symmetry_1
_geom_bond_site_symmetry_2
O2 Co1 1_555 1_555
O4 C5 1_555 1_555
O5 Co1 1_555 1_555
O6 Zn2 1_555 1_555
O7 C5 1_555 1_555
O9 Co1 1_555 1_555
C1 O5 1_555 1_555
C3 O6 1_555 1_555
C4 C3 1_555 1_555
C5 C18 1_555 1_555
C6 C7 1_555 1_555
C7 C1 1_555 1_555
C8 C6 1_555 1_555
H1 C8 1_555 1_555
H2 C8 1_555 1_555
H3 C8 1_555 1_555
C9 H4 1_555 1_555
H5 C9 1_555 1_555
C10 C4 1_555 1_555
H6 C10 1_555 1_555
H7 C10 1_555 1_555
C12 C7 1_555 1_555
H10 C12 1_555 1_555
H11 C12 1_555 1_555
C13 C10 1_555 1_555
H12 C13 1_555 1_555
H13 C13 1_555 1_555
C14 O2 1_555 1_555
H14 C14 1_555 1_555
H15 C14 1_555 1_555
C15 C6 1_555 1_555
H16 C15 1_555 1_555
H17 C15 1_555 1_555
H18 C15 1_555 1_555
C16 C14 1_555 1_555
H19 C16 1_555 1_555
H20 C16 1_555 1_555
H21 C16 1_555 1_555
C17 C13 1_555 1_555
H22 C17 1_555 1_555
C18 C6 1_555 1_555
H23 C18 1_555 1_555
C19 C7 1_555 1_555
H24 C19 1_555 1_555
H26 C19 1_555 1_555
C21 C4 1_555 1_555
H30 C21 1_555 1_555
H31 C21 1_555 1_555
H32 C21 1_555 1_555
C23 C4 1_555 1_555
C24 C23 1_555 1_555
H36 C24 1_555 1_555
Zn3 O4 1_555 1_555
Co3 O7 1_555 1_555
N3 Zn2 1_555 1_555
O8 C1 1_555 1_555
O9 C3 1_555 1_555
C9 C12 1_555 1_555
C9 C18 1_555 1_555
C17 C23 1_555 1_555
N2 C25 1_555 1_555
C26 N2 1_555 1_555
C29 C26 1_555 1_555
H40 C29 1_555 1_555
C30 C29 1_555 1_555
H41 C30 1_555 1_555
C32 C25 1_555 1_555
C33 C32 1_555 1_555
H43 C33 1_555 1_555
H44 C33 1_555 1_555
H45 C33 1_555 1_555
Zn4 N2 1_555 1_555
O1 C11 1_555 1_555
C11 H8 1_555 1_555
H9 C11 1_555 1_555
C22 C11 1_555 1_555
H33 C22 1_555 1_555
H34 C22 1_555 1_555
H35 C22 1_555 1_555
N1 Zn1 1_555 1_555
C27 N1 1_555 1_555
C28 C27 1_555 1_555
H39 C28 1_555 1_555
C31 C28 1_555 1_555
H42 C31 1_555 1_555
O13 Zn1 1_555 1_555
O11 H47 1_555 1_555
O3 C2 1_555 1_555
O10 C2 1_555 1_555
H28 C20 1_555 1_555
H29 C20 1_555 1_555
Zn5 O10 1_555 1_555
Co3 O3 1_555 1_555
O1_2 C11_2 1_555 1_555
C11_2 H8_2 1_555 1_555
H9_2 C11_2 1_555 1_555
C22_2 C11_2 1_555 1_555
H33_2 C22_2 1_555 1_555
H34_2 C22_2 1_555 1_555
H35_2 C22_2 1_555 1_555
C25_2 N1_2 1_555 1_555
N1_2 Zn1_2 1_555 1_555
N3 C25_2 1_555 1_555
C32_2 C25_2 1_555 1_555
C33_2 C32_2 1_555 1_555
H43_2 C33_2 1_555 1_555
H44_2 C33_2 1_555 1_555
H45_2 C33_2 1_555 1_555
O11_2 C32_2 1_555 1_555
O13_2 Zn1_2 1_555 1_555
O11_2 H47_2 1_555 1_555
O2_2 Co1_2 1_555 1_555
O3_2 C2_2 1_555 1_555
O5_2 Co1_2 1_555 1_555
O6_2 Zn4 1_555 1_555
O9_2 Co1_2 1_555 1_555
O10_2 C2_2 1_555 1_555
C1_2 O5_2 1_555 1_555
C2_2 C17_2 1_555 1_555
C3_2 O6_2 1_555 1_555
C4_2 C3_2 1_555 1_555
H2_2 C8_2 1_555 1_555
H3_2 C8_2 1_555 1_555
C10_2 C4_2 1_555 1_555
H6_2 C10_2 1_555 1_555
H7_2 C10_2 1_555 1_555
C13_2 C10_2 1_555 1_555
H12_2 C13_2 1_555 1_555
H13_2 C13_2 1_555 1_555
C14_2 O2_2 1_555 1_555
H14_2 C14_2 1_555 1_555
H15_2 C14_2 1_555 1_555
H17_2 C15_2 1_555 1_555
H18_2 C15_2 1_555 1_555
C16_2 C14_2 1_555 1_555
H19_2 C16_2 1_555 1_555
H20_2 C16_2 1_555 1_555
H21_2 C16_2 1_555 1_555
C17_2 C13_2 1_555 1_555
H22_2 C17_2 1_555 1_555
C20_2 H27_2 1_555 1_555
H28_2 C20_2 1_555 1_555
H29_2 C20_2 1_555 1_555
C21_2 C4_2 1_555 1_555
H30_2 C21_2 1_555 1_555
H31_2 C21_2 1_555 1_555
H32_2 C21_2 1_555 1_555
C23_2 C4_2 1_555 1_555
C24_2 C23_2 1_555 1_555
H36_2 C24_2 1_555 1_555
H37_2 C24_2 1_555 1_555
H38_2 C24_2 1_555 1_555
Zn5_2 O10_2 1_555 1_555
Co2 O3_2 1_555 1_555
O8_2 C1_2 1_555 1_555
O9_2 C3_2 1_555 1_555
C17_2 C23_2 1_555 1_555
C20_2 C23_2 1_555 1_555
O4_2 C5_2 1_555 1_555
O7_2 C5_2 1_555 1_555
C5_2 C18_2 1_555 1_555
C6_2 C7_2 1_555 1_555
C9_2 H4_2 1_555 1_555
H5_2 C9_2 1_555 1_555
C12_2 C7_2 1_555 1_555
H10_2 C12_2 1_555 1_555
H11_2 C12_2 1_555 1_555
C18_2 C6_2 1_555 1_555
H23_2 C18_2 1_555 1_555
C19_2 C7_2 1_555 1_555
H24_2 C19_2 1_555 1_555
H26_2 C19_2 1_555 1_555
Zn3_2 O4_2 1_555 1_555
Co2 O7_2 1_555 1_555
C9_2 C12_2 1_555 1_555
C9_2 C18_2 1_555 1_555
O12 C2_3 1_555 1_555
O15 C2_3 1_555 1_555
H28_3 C20_3 1_555 1_555
H29_3 C20_3 1_555 1_555
Zn3 O2_3 1_555 1_555
Zn5 O1_3 1_555 1_555
Co3 O1_3 1_555 1_555
O1_3 C11_3 1_555 1_555
O2_3 Co3 1_555 1_555
O13 C5_3 1_555 1_555
O5_3 Co3 1_555 1_555
O6_3 Zn5 1_555 1_555
O14 C5_3 1_555 1_555
O8_3 Zn3 1_555 1_555
O9_3 Co3 1_555 1_555
C1_3 O5_3 1_555 1_555
C3_3 O6_3 1_555 1_555
C4_3 C3_3 1_555 1_555
C5_3 C18_3 1_555 1_555
C6_3 C7_3 1_555 1_555
C7_3 C1_3 1_555 1_555
C8_3 C6_3 1_555 1_555
H1_3 C8_3 1_555 1_555
H2_3 C8_3 1_555 1_555
H3_3 C8_3 1_555 1_555
C9_3 H4_3 1_555 1_555
H5_3 C9_3 1_555 1_555
C10_3 C4_3 1_555 1_555
H6_3 C10_3 1_555 1_555
H7_3 C10_3 1_555 1_555
C11_3 H8_3 1_555 1_555
H9_3 C11_3 1_555 1_555
C12_3 C7_3 1_555 1_555
H10_3 C12_3 1_555 1_555
H11_3 C12_3 1_555 1_555
C13_3 C10_3 1_555 1_555
H12_3 C13_3 1_555 1_555
H13_3 C13_3 1_555 1_555
C14_3 O2_3 1_555 1_555
H14_3 C14_3 1_555 1_555
H15_3 C14_3 1_555 1_555
C15_3 C6_3 1_555 1_555
H16_3 C15_3 1_555 1_555
H17_3 C15_3 1_555 1_555
H18_3 C15_3 1_555 1_555
C16_3 C14_3 1_555 1_555
H19_3 C16_3 1_555 1_555
H20_3 C16_3 1_555 1_555
H21_3 C16_3 1_555 1_555
C17_3 C13_3 1_555 1_555
H22_3 C17_3 1_555 1_555
C18_3 C6_3 1_555 1_555
H23_3 C18_3 1_555 1_555
C19_3 C7_3 1_555 1_555
H24_3 C19_3 1_555 1_555
H25_2 C19_3 1_555 1_555
H26_3 C19_3 1_555 1_555
C21_3 C4_3 1_555 1_555
H30_3 C21_3 1_555 1_555
H31_3 C21_3 1_555 1_555
H32_3 C21_3 1_555 1_555
C22_3 C11_3 1_555 1_555
H33_3 C22_3 1_555 1_555
H34_3 C22_3 1_555 1_555
H35_3 C22_3 1_555 1_555
C23_3 C4_3 1_555 1_555
C24_3 C23_3 1_555 1_555
H36_3 C24_3 1_555 1_555
C25_3 N1_3 1_555 1_555
N1_3 Zn3 1_555 1_555
N2_2 C25_3 1_555 1_555
C26_2 N2_2 1_555 1_555
C27_2 N1_3 1_555 1_555
C28_2 C27_2 1_555 1_555
H39_2 C28_2 1_555 1_555
C29_2 C26_2 1_555 1_555
H40_2 C29_2 1_555 1_555
C30_2 C29_2 1_555 1_555
H41_2 C30_2 1_555 1_555
C31_2 C28_2 1_555 1_555
H42_2 C31_2 1_555 1_555
C32_3 C25_3 1_555 1_555
C33_3 C32_3 1_555 1_555
H43_3 C33_3 1_555 1_555
H44_3 C33_3 1_555 1_555
H45_3 C33_3 1_555 1_555
O11_3 C32_3 1_555 1_555
Zn5_2 N2_2 1_555 1_555
N3_2 Zn5 1_555 1_555
O8_3 C1_3 1_555 1_555
O9_3 C3_3 1_555 1_555
C9_3 C12_3 1_555 1_555
C9_3 C18_3 1_555 1_555
C17_3 C23_3 1_555 1_555
C26_2 C27_2 1_555 1_555
C30_2 C31_2 1_555 1_555
C32_3 H46_3 1_555 1_555
O11_3 H47_3 1_555 1_555
O13_2 C5_4 1_555 1_555
O14_2 C5_4 1_555 1_555
C5_4 C18_4 1_555 1_555
C6_4 C7_4 1_555 1_555
C9_4 H4_4 1_555 1_555
H5_4 C9_4 1_555 1_555
C12_4 C7_4 1_555 1_555
H10_4 C12_4 1_555 1_555
H11_4 C12_4 1_555 1_555
C18_4 C6_4 1_555 1_555
H23_4 C18_4 1_555 1_555
C19_4 C7_4 1_555 1_555
H24_4 C19_4 1_555 1_555
H25_3 C19_4 1_555 1_555
H26_4 C19_4 1_555 1_555
C28_3 C27_3 1_555 1_555
H39_3 C28_3 1_555 1_555
C31_3 C28_3 1_555 1_555
H42_3 C31_3 1_555 1_555
C9_4 C12_4 1_555 1_555
C9_4 C18_4 1_555 1_555
Zn3_2 O2_4 1_555 1_555
Zn5_2 O1_4 1_555 1_555
Co2 O1_4 1_555 1_555
O1_4 C11_4 1_555 1_555
O2_4 Co2 1_555 1_555
O12_2 C2_4 1_555 1_555
O5_4 Co2 1_555 1_555
O6_4 Zn5_2 1_555 1_555
O8_4 Zn3_2 1_555 1_555
O9_4 Co2 1_555 1_555
O15_2 C2_4 1_555 1_555
C1_4 O5_4 1_555 1_555
C2_4 C17_4 1_555 1_555
C3_4 O6_4 1_555 1_555
C4_4 C3_4 1_555 1_555
H2_4 C8_4 1_555 1_555
H3_4 C8_4 1_555 1_555
C10_4 C4_4 1_555 1_555
H6_4 C10_4 1_555 1_555
H7_4 C10_4 1_555 1_555
C11_4 H8_4 1_555 1_555
H9_4 C11_4 1_555 1_555
C13_4 C10_4 1_555 1_555
H12_4 C13_4 1_555 1_555
H13_4 C13_4 1_555 1_555
C14_4 O2_4 1_555 1_555
H14_4 C14_4 1_555 1_555
H15_4 C14_4 1_555 1_555
H17_4 C15_4 1_555 1_555
H18_4 C15_4 1_555 1_555
C16_4 C14_4 1_555 1_555
H19_4 C16_4 1_555 1_555
H20_4 C16_4 1_555 1_555
H21_4 C16_4 1_555 1_555
C17_4 C13_4 1_555 1_555
H22_4 C17_4 1_555 1_555
C20_4 H27_4 1_555 1_555
H28_4 C20_4 1_555 1_555
H29_4 C20_4 1_555 1_555
C21_4 C4_4 1_555 1_555
H30_4 C21_4 1_555 1_555
H31_4 C21_4 1_555 1_555
H32_4 C21_4 1_555 1_555
C22_4 C11_4 1_555 1_555
H33_4 C22_4 1_555 1_555
H34_4 C22_4 1_555 1_555
H35_4 C22_4 1_555 1_555
C23_4 C4_4 1_555 1_555
C24_4 C23_4 1_555 1_555
H36_4 C24_4 1_555 1_555
H37_4 C24_4 1_555 1_555
H38_4 C24_4 1_555 1_555
N1_4 Zn3_2 1_555 1_555
O8_4 C1_4 1_555 1_555
O9_4 C3_4 1_555 1_555
C17_4 C23_4 1_555 1_555
C20_4 C23_4 1_555 1_555
O11_4 H47_4 1_555 1_555
N3_2 C25_4 1_555 1_555
C32_4 C25_4 1_555 1_555
C33_4 C32_4 1_555 1_555
H43_4 C33_4 1_555 1_555
H44_4 C33_4 1_555 1_555
H45_4 C33_4 1_555 1_555
C32_4 H46_4 1_555 1_555
C28_4 C27_4 1_555 1_555
H39_4 C28_4 1_555 1_555
C29_3 C26_3 1_555 1_555
H40_3 C29_3 1_555 1_555
C30_3 C29_3 1_555 1_555
H41_3 C30_3 1_555 1_555
C31_4 C28_4 1_555 1_555
H42_4 C31_4 1_555 1_555
C26_3 C27_4 1_555 1_555
C30_3 C31_4 1_555 1_555
C29_4 C26_4 1_555 1_555
H40_4 C29_4 1_555 1_555
C30_4 C29_4 1_555 1_555
H41_4 C30_4 1_555 1_555

#END
