
###############################################################################
#
# This file contains modified crystal structure data generated from the
# MOF subset of the Cambridge Structural Database (CSD) v543 
# hosted by the Cambridge Crystallographic Data Centre (CCDC).
#
# This work is licensed under the Creative Commons
# Attribution-NonCommercial-ShareAlike 4.0 International License.
# To view a copy of this license, visit
# http://creativecommons.org/licenses/by-nc-sa/4.0/
# or send a letter to
# Creative Commons, PO Box 1866, Mountain View, CA 94042, USA.
#
# CIF created using the CSD Python API on 29 September 2022
# The structure has been converted into the P1 space group
# The structure has a 3D framework
# The original CSD entry HENSEB01 is in the monoclinic crystal system
# The framework has been calculated to contain at least 10.0% void space
# The void calculation uses a probe of radius 1.32A, grid spacing 0.4
# The framework is charged, counterions have been retained in the structure
#
###############################################################################

data_HENSEB01
_chemical_formula_moiety         '(C56 H48 N4 O37 Zn7 4+)n'
_symmetry_cell_setting           triclinic
_symmetry_space_group_name_H-M   'P 1'
_symmetry_Int_Tables_number      1
_space_group_name_Hall           'P 1'
loop_
_symmetry_equiv_pos_site_id
_symmetry_equiv_pos_as_xyz
1 x,y,z
_cell_length_a                   9.2803(3)
_cell_length_b                   15.1916(5)
_cell_length_c                   17.7731(6)
_cell_angle_alpha                90
_cell_angle_beta                 96.4221(6)
_cell_angle_gamma                90
_cell_volume                     2489.97
loop_
_atom_site_label
_atom_site_type_symbol
_atom_site_fract_x
_atom_site_fract_y
_atom_site_fract_z
Zn6 Zn 0.500000 -0.000000 0.500000
Zn1 Zn 0.500000 0.500000 0.000000
C15 C 0.0023(3) 0.5945(2) 0.06675(19)
C16 C 0.1553(3) 0.5823(2) 0.07838(18)
H6 H 0.227587 0.622663 0.066461
O13 O 0.0480(2) 0.46260(15) 0.12048(11)
C17 C 0.3087(3) 0.4487(2) 0.13299(16)
C18 C 0.1772(3) 0.5015(2) 0.10985(16)
O14 O 0.4299(2) 0.47847(15) 0.11213(12)
O15 O 0.3037(2) 0.38178(17) 0.17081(13)
Zn9 Zn 0.57401(3) 0.38924(2) 0.16015(2)
O21 O 0.6974(2) 0.53496(15) 0.05098(13)
O29 O 0.4473(2) 0.63838(15) 0.01109(12)
Zn1_2 Zn 0.500000 0.500000 1.000000
Zn2 Zn 0.42599(3) 0.61076(2) 0.83985(2)
O1 O 0.3026(2) 0.46504(15) 0.94902(13)
O2 O 0.2326(2) 0.57061(16) 0.86327(12)
C1 C 0.2101(3) 0.5076(2) 0.90644(16)
C2 C 0.0572(3) 0.4795(2) 0.90756(16)
H1 H 0.047939 0.355376 0.954731
O6 O 0.3871(4) 0.5295(2) 0.71541(18)
O7 O 0.4031(3) 0.6704(2) 0.73894(13)
C7 C 0.3940(4) 0.6060(3) 0.69386(19)
C8 C 0.3949(4) 0.6244(2) 0.61219(18)
C9 C 0.3848(5) 0.5702(3) 0.5522(2)
H3 H 0.370363 0.508294 0.552333
C10 C 0.4002(5) 0.6242(2) 0.48841(19)
H4 H 0.397570 0.605338 0.437309
C11 C 0.4194(3) 0.7075(2) 0.51421(16)
O8 O 0.4160(2) 0.70942(16) 0.59083(11)
C12 C 0.4401(3) 0.7915(2) 0.47440(16)
O9 O 0.4452(3) 0.78259(15) 0.40358(12)
O10 O 0.4473(2) 0.86162(15) 0.51109(12)
Zn6_2 Zn 0.500000 1.000000 0.500000
Zn10 Zn 0.42599(3) 0.88924(2) 0.33985(2)
O22 O 0.5701(2) 0.52153(15) 0.88787(12)
O24 O 0.6963(2) 0.61822(17) 0.82919(13)
O27 O 0.4452(3) 0.71741(15) 0.90358(12)
O28 O 0.5527(2) 0.36162(15) 0.98891(12)
O12 O 0.7674(2) 0.42939(16) 0.13673(12)
C13 C 0.7899(3) 0.4924(2) 0.09356(16)
C14 C 0.9428(3) 0.5205(2) 0.09244(16)
H5 H 0.952061 0.644624 0.045269
O16 O 0.6129(4) 0.4705(2) 0.28459(18)
O17 O 0.5969(3) 0.3296(2) 0.26106(13)
C19 C 0.6060(4) 0.3940(3) 0.30614(19)
C20 C 0.6051(4) 0.3756(2) 0.38781(18)
C21 C 0.6152(5) 0.4298(3) 0.4478(2)
H7 H 0.629637 0.491706 0.447667
C22 C 0.5998(5) 0.3758(2) 0.51159(19)
H8 H 0.602430 0.394662 0.562691
C23 C 0.5806(3) 0.2925(2) 0.48579(16)
O18 O 0.5840(2) 0.29058(16) 0.40917(11)
C24 C 0.5599(3) 0.2085(2) 0.52560(16)
O19 O 0.5548(3) 0.21741(15) 0.59642(12)
O20 O 0.5527(2) 0.13838(15) 0.48891(12)
Zn8 Zn 0.57401(3) 0.11076(2) 0.66015(2)
O26 O 0.5548(3) 0.28259(15) 0.09642(12)
C3 C 0.9977(3) 0.4055(2) 0.93325(19)
C4 C 0.8447(3) 0.4177(2) 0.92162(18)
H2 H 0.772413 0.377337 0.933539
O3 O 0.9520(2) 0.53740(15) 0.87952(11)
C5 C 0.6913(3) 0.5513(2) 0.86701(16)
C6 C 0.8228(3) 0.4985(2) 0.89015(16)
O3_2 O 0.0480(2) 0.03740(15) 0.62048(11)
C5_2 C 0.3087(3) 0.0513(2) 0.63299(16)
O4 O 0.4299(2) 0.02153(15) 0.61213(12)
O5 O 0.3037(2) 0.11822(17) 0.67081(13)
O11 O 0.3026(2) 0.03496(15) 0.44902(13)
C14_2 C 0.0572(3) 0.0205(2) 0.40756(16)
H5_2 H 0.047939 0.144624 0.454731
C3_2 C 0.0023(3) 0.9055(2) 0.56675(19)
C4_2 C 0.1553(3) 0.9177(2) 0.57838(18)
H2_2 H 0.227587 0.877337 0.566461
C6_2 C 0.1772(3) 0.9985(2) 0.60985(16)
O12_2 O 0.2326(2) 0.92939(16) 0.36327(12)
C13_2 C 0.2101(3) 0.9924(2) 0.40644(16)
O16_2 O 0.3871(4) 0.9705(2) 0.21541(18)
O17_2 O 0.4031(3) 0.8296(2) 0.23894(13)
C19_2 C 0.3940(4) 0.8940(3) 0.19386(19)
C20_2 C 0.3949(4) 0.8756(2) 0.11219(18)
C21_2 C 0.3848(5) 0.9298(3) 0.0522(2)
H7_2 H 0.370363 0.991706 0.052333
C23_2 C 0.4194(3) 0.7925(2) 0.01421(16)
O18_2 O 0.4160(2) 0.79058(16) 0.09083(11)
O23 O 0.5701(2) 0.97847(15) 0.38787(12)
O25 O 0.6963(2) 0.88178(17) 0.32919(13)
C22_2 C 0.4002(5) 0.8758(2) 0.98841(19)
H8_2 H 0.397570 0.894662 0.937309
C24_2 C 0.4401(3) 0.7085(2) 0.97440(16)
C10_2 C 0.5998(5) 0.1242(2) 0.01159(19)
H4_2 H 0.602430 0.105338 0.062691
C12_2 C 0.5599(3) 0.2915(2) 0.02560(16)
O2_2 O 0.7674(2) 0.07061(16) 0.63673(12)
C1_2 C 0.7899(3) 0.0076(2) 0.59356(16)
O6_2 O 0.6129(4) 0.0295(2) 0.78459(18)
O7_2 O 0.5969(3) 0.1704(2) 0.76106(13)
C7_2 C 0.6060(4) 0.1060(3) 0.80614(19)
C8_2 C 0.6051(4) 0.1244(2) 0.88781(18)
C9_2 C 0.6152(5) 0.0702(3) 0.9478(2)
H3_2 H 0.629637 0.008294 0.947667
C11_2 C 0.5806(3) 0.2075(2) 0.98579(16)
O8_2 O 0.5840(2) 0.20942(16) 0.90917(11)
C15_2 C 0.9977(3) 0.0945(2) 0.43325(19)
C16_2 C 0.8447(3) 0.0823(2) 0.42162(18)
H6_2 H 0.772413 0.122663 0.433539
C18_2 C 0.8228(3) 0.0015(2) 0.39015(16)
O1_2 O 0.6974(2) 0.96504(15) 0.55098(13)
C2_2 C 0.9428(3) 0.9795(2) 0.59244(16)
H1_2 H 0.952061 0.855376 0.545269
O13_2 O 0.9520(2) 0.96260(15) 0.37952(11)
C17_2 C 0.6913(3) 0.9487(2) 0.36701(16)
C25 C 0.6353(7) 0.8458(5) 0.7049(4)
H9 H 0.574893 0.841455 0.656112
H10 H 0.713651 0.802335 0.706710
H11 H 0.676770 0.905024 0.710651
C26 C 0.3980(7) 0.8689(4) 0.7584(4)
H12 H 0.404820 0.931417 0.772102
H13 H 0.340689 0.837935 0.793168
H14 H 0.351019 0.862963 0.706472
N1 N 0.5499(8) 0.8293(5) 0.7638(5)
H15 H 0.599909 0.848799 0.807604
H16 H 0.540948 0.769899 0.768106
C25_2 C 0.3647(7) 0.3458(5) 0.7951(4)
H9_2 H 0.425107 0.341455 0.843888
H10_2 H 0.286349 0.302335 0.793290
H11_2 H 0.323230 0.405024 0.789349
C26_2 C 0.6020(7) 0.3689(4) 0.7416(4)
H12_2 H 0.595180 0.431417 0.727898
H13_2 H 0.659311 0.337935 0.706832
H14_2 H 0.648981 0.362963 0.793528
N1_2 N 0.4501(8) 0.3293(5) 0.7362(5)
H15_2 H 0.400091 0.348799 0.692396
H16_2 H 0.459052 0.269899 0.731894
C25_3 C 0.3647(7) 0.1542(5) 0.2951(4)
H9_3 H 0.425107 0.158545 0.343888
H10_3 H 0.286349 0.197665 0.293290
H11_3 H 0.323230 0.094976 0.289349
C26_3 C 0.6020(7) 0.1311(4) 0.2416(4)
H12_3 H 0.595180 0.068583 0.227898
H13_3 H 0.659311 0.162065 0.206832
H14_3 H 0.648981 0.137037 0.293528
N1_3 N 0.4501(8) 0.1707(5) 0.2362(5)
H15_3 H 0.400091 0.151201 0.192396
H16_3 H 0.459052 0.230101 0.231894
C25_4 C 0.6353(7) 0.6542(5) 0.2049(4)
H9_4 H 0.574893 0.658545 0.156112
H10_4 H 0.713651 0.697665 0.206710
H11_4 H 0.676770 0.594976 0.210651
C26_4 C 0.3980(7) 0.6311(4) 0.2584(4)
H12_4 H 0.404820 0.568583 0.272102
H13_4 H 0.340689 0.662065 0.293168
H14_4 H 0.351019 0.637037 0.206472
N1_4 N 0.5499(8) 0.6707(5) 0.2638(5)
H15_4 H 0.599909 0.651201 0.307604
H16_4 H 0.540948 0.730101 0.268106
loop_
_geom_bond_atom_site_label_1
_geom_bond_atom_site_label_2
_geom_bond_site_symmetry_1
_geom_bond_site_symmetry_2
C16 C15 1_555 1_555
H6 C16 1_555 1_555
C17 C18 1_555 1_555
C18 C16 1_555 1_555
O14 Zn1 1_555 1_555
O15 C17 1_555 1_555
Zn9 O14 1_555 1_555
O21 Zn1 1_555 1_555
O29 Zn1 1_555 1_555
O13 C18 1_555 1_555
C17 O14 1_555 1_555
O15 Zn9 1_555 1_555
Zn1_2 O1 1_555 1_555
Zn2 O2 1_555 1_555
O1 C1 1_555 1_555
O2 C1 1_555 1_555
C1 C2 1_555 1_555
O6 Zn2 1_555 1_555
O7 Zn2 1_555 1_555
C7 O6 1_555 1_555
C8 C7 1_555 1_555
C9 C8 1_555 1_555
H3 C9 1_555 1_555
C10 C9 1_555 1_555
H4 C10 1_555 1_555
C11 C10 1_555 1_555
O8 C8 1_555 1_555
C12 C11 1_555 1_555
O9 C12 1_555 1_555
O10 C12 1_555 1_555
Zn6_2 O10 1_555 1_555
Zn10 O9 1_555 1_555
O22 Zn1_2 1_555 1_555
O24 Zn2 1_555 1_555
O27 Zn2 1_555 1_555
O28 Zn1_2 1_555 1_555
Zn2 O22 1_555 1_555
O7 C7 1_555 1_555
C11 O8 1_555 1_555
Zn9 O12 1_555 1_555
O21 C13 1_555 1_555
O12 C13 1_555 1_555
C13 C14 1_555 1_555
O16 Zn9 1_555 1_555
O17 Zn9 1_555 1_555
C19 O16 1_555 1_555
C20 C19 1_555 1_555
C21 C20 1_555 1_555
H7 C21 1_555 1_555
C22 C21 1_555 1_555
H8 C22 1_555 1_555
C23 C22 1_555 1_555
O18 C20 1_555 1_555
C24 C23 1_555 1_555
O19 C24 1_555 1_555
O20 C24 1_555 1_555
Zn6 O20 1_555 1_555
Zn8 O19 1_555 1_555
O26 Zn9 1_555 1_555
O17 C19 1_555 1_555
C23 O18 1_555 1_555
C4 C3 1_555 1_555
H2 C4 1_555 1_555
C5 C6 1_555 1_555
C6 C4 1_555 1_555
O22 C5 1_555 1_555
O24 C5 1_555 1_555
O3 C6 1_555 1_555
O4 C5_2 1_555 1_555
O5 C5_2 1_555 1_555
Zn6 O4 1_555 1_555
Zn8 O4 1_555 1_555
O5 Zn8 1_555 1_555
O11 Zn6 1_555 1_555
C4_2 C3_2 1_555 1_555
H2_2 C4_2 1_555 1_555
C6_2 C4_2 1_555 1_555
Zn10 O12_2 1_555 1_555
O12_2 C13_2 1_555 1_555
O16_2 Zn10 1_555 1_555
O17_2 Zn10 1_555 1_555
C19_2 O16_2 1_555 1_555
C20_2 C19_2 1_555 1_555
C21_2 C20_2 1_555 1_555
H7_2 C21_2 1_555 1_555
O18_2 C20_2 1_555 1_555
O23 Zn10 1_555 1_555
O25 Zn10 1_555 1_555
O17_2 C19_2 1_555 1_555
C23_2 O18_2 1_555 1_555
Zn6_2 O23 1_555 1_555
H8_2 C22_2 1_555 1_555
O27 C24_2 1_555 1_555
H4_2 C10_2 1_555 1_555
O26 C12_2 1_555 1_555
Zn8 O2_2 1_555 1_555
O2_2 C1_2 1_555 1_555
O6_2 Zn8 1_555 1_555
O7_2 Zn8 1_555 1_555
C7_2 O6_2 1_555 1_555
C8_2 C7_2 1_555 1_555
C9_2 C8_2 1_555 1_555
H3_2 C9_2 1_555 1_555
O8_2 C8_2 1_555 1_555
C16_2 C15_2 1_555 1_555
H6_2 C16_2 1_555 1_555
C18_2 C16_2 1_555 1_555
O7_2 C7_2 1_555 1_555
C11_2 O8_2 1_555 1_555
Zn6_2 O1_2 1_555 1_555
O25 C17_2 1_555 1_555
C17_2 O23 1_555 1_555
C25 H9 1_555 1_555
H10 C25 1_555 1_555
H11 C25 1_555 1_555
C26 H12 1_555 1_555
H13 C26 1_555 1_555
H14 C26 1_555 1_555
N1 C25 1_555 1_555
H15 N1 1_555 1_555
H16 N1 1_555 1_555
C26 N1 1_555 1_555
C25_2 H9_2 1_555 1_555
H10_2 C25_2 1_555 1_555
H11_2 C25_2 1_555 1_555
C26_2 H12_2 1_555 1_555
H13_2 C26_2 1_555 1_555
H14_2 C26_2 1_555 1_555
N1_2 C25_2 1_555 1_555
H15_2 N1_2 1_555 1_555
H16_2 N1_2 1_555 1_555
C26_2 N1_2 1_555 1_555
C25_3 H9_3 1_555 1_555
H10_3 C25_3 1_555 1_555
H11_3 C25_3 1_555 1_555
C26_3 H12_3 1_555 1_555
H13_3 C26_3 1_555 1_555
H14_3 C26_3 1_555 1_555
N1_3 C25_3 1_555 1_555
H15_3 N1_3 1_555 1_555
H16_3 N1_3 1_555 1_555
C26_3 N1_3 1_555 1_555
C25_4 H9_4 1_555 1_555
H10_4 C25_4 1_555 1_555
H11_4 C25_4 1_555 1_555
C26_4 H12_4 1_555 1_555
H13_4 C26_4 1_555 1_555
H14_4 C26_4 1_555 1_555
N1_4 C25_4 1_555 1_555
H15_4 N1_4 1_555 1_555
H16_4 N1_4 1_555 1_555
C26_4 N1_4 1_555 1_555

#END
