
###############################################################################
#
# This file contains modified crystal structure data generated from the
# MOF subset of the Cambridge Structural Database (CSD) v543 
# hosted by the Cambridge Crystallographic Data Centre (CCDC).
#
# This work is licensed under the Creative Commons
# Attribution-NonCommercial-ShareAlike 4.0 International License.
# To view a copy of this license, visit
# http://creativecommons.org/licenses/by-nc-sa/4.0/
# or send a letter to
# Creative Commons, PO Box 1866, Mountain View, CA 94042, USA.
#
# CIF created using the CSD Python API on 29 September 2022
# The structure has been converted into the P1 space group
# The structure has a 3D framework
# The original CSD entry HENYOR is in the orthorhombic crystal system
# The framework has been calculated to contain at least 10.0% void space
# The void calculation uses a probe of radius 1.32A, grid spacing 0.4
# H atom positions have been added when not included in the experimental data
#
###############################################################################

data_HENYOR
_chemical_formula_moiety         '(C248 H176 Ca14 O94)n'
_symmetry_cell_setting           triclinic
_symmetry_space_group_name_H-M   'P 1'
_symmetry_Int_Tables_number      1
_space_group_name_Hall           'P 1'
loop_
_symmetry_equiv_pos_site_id
_symmetry_equiv_pos_as_xyz
1 x,y,z
_cell_length_a                   20.016(4)
_cell_length_b                   17.355(3)
_cell_length_c                   22.396(4)
_cell_angle_alpha                90
_cell_angle_beta                 90
_cell_angle_gamma                90
_cell_volume                     7779.87
loop_
_atom_site_label
_atom_site_type_symbol
_atom_site_fract_x
_atom_site_fract_y
_atom_site_fract_z
Ca2 Ca 0.40403(8) 0.19810(9) 0.50428(6)
O1 O 0.0092(2) 0.3787(3) 0.0715(2)
O2 O 0.0295(2) 0.5028(3) 0.06617(18)
O3 O 0.3799(2) 0.3143(3) 0.44128(17)
O4 O 0.3346(3) 0.2025(3) 0.4160(2)
O5 O 0.3271(2) 0.2336(4) 0.0635(2)
O6 O 0.3251(3) 0.1054(3) 0.0503(2)
O10 O 0.3293(6) 0.0998(6) 0.5405(5)
O11 O 0.4357(5) 0.0711(6) 0.4747(6)
O12 O 0.5004(3) 0.2211(4) 0.4398(3)
C1 C 0.0389(3) 0.4383(5) 0.0893(3)
C2 C 0.0851(3) 0.4296(4) 0.1409(2)
C3 C 0.1204(3) 0.4934(4) 0.1615(3)
H1 H 0.1127 0.5420 0.1433
C4 C 0.1661(3) 0.4887(4) 0.2075(3)
H2 H 0.1885 0.5333 0.2220
C5 C 0.1781(3) 0.4163(4) 0.2319(2)
C6 C 0.2272(3) 0.3916(4) 0.2772(2)
C7 C 0.2735(3) 0.4326(5) 0.3101(3)
H3 H 0.2788 0.4865 0.3043
C8 C 0.3120(3) 0.3934(5) 0.3519(3)
H4 H 0.3444 0.4206 0.3746
C9 C 0.3034(3) 0.3150(4) 0.3606(3)
C10 C 0.3423(4) 0.2744(5) 0.4086(3)
C11 C 0.2583(3) 0.2728(4) 0.3269(2)
H5 H 0.2537 0.2188 0.3320
C12 C 0.2198(3) 0.3131(4) 0.2849(2)
C13 C 0.0968(3) 0.3597(4) 0.1667(2)
H6 H 0.0728 0.3158 0.1532
C14 C 0.1429(3) 0.3516(4) 0.2121(2)
C15 C 0.1667(3) 0.2798(4) 0.2444(2)
C16 C 0.1140(3) 0.2355(4) 0.2798(2)
C17 C 0.0754(3) 0.2615(4) 0.3270(2)
H7 H 0.0773 0.3140 0.3388
C18 C 0.0338(3) 0.2101(4) 0.3572(3)
C20 C 0.0309(3) 0.1352(5) 0.3387(3)
H8 H 0.0024 0.1006 0.3596
C21 C 0.0681(3) 0.1069(4) 0.2903(3)
H9 H 0.0647 0.0548 0.2776
C22 C 0.1103(3) 0.1591(4) 0.2617(2)
C23 C 0.1574(3) 0.1484(4) 0.2123(3)
C24 C 0.1703(3) 0.0848(5) 0.1771(3)
H10 H 0.1469 0.0379 0.1832
C25 C 0.2190(3) 0.0910(5) 0.1316(3)
H11 H 0.2285 0.0480 0.1068
C26 C 0.2534(3) 0.1607(5) 0.1231(3)
C27 C 0.3063(4) 0.1652(6) 0.0750(3)
C28 C 0.2386(3) 0.2240(4) 0.1584(2)
H12 H 0.2613 0.2715 0.1523
C29 C 0.1906(3) 0.2176(4) 0.2025(2)
C30 C 0.2533(10) 0.1093(11) 0.5663(8)
H13 H 0.2346 0.1585 0.5527
H14 H 0.2542 0.1083 0.6100
H15 H 0.2256 0.0669 0.5515
C31 C 0.5568(9) 0.1839(10) 0.4304(8)
H16 H 0.5818 0.1801 0.4680
H17 H 0.5836 0.2120 0.4009
H18 H 0.5471 0.1321 0.4154
Ca5 Ca 0.42492(6) 0.41069(8) 0.49973(5)
Ca8 Ca 0.40403(8) 0.30190(9) 0.00428(6)
O15 O 0.3271(2) 0.2664(4) 0.5635(2)
O17 O 0.4809(3) 0.1911(3) 0.5861(2)
O18 O 0.4713(2) 0.3108(3) 0.55445(18)
H21 H 0.478417 0.0733321 0.452219
H22 H 0.441506 0.038401 0.510712
Ca3 Ca 0.42492(6) 0.08931(8) 0.99973(5)
Ca4 Ca 0.07508(6) 0.58931(8) 0.99973(5)
Ca1 Ca 0.92492(6) 0.41069(8) 0.00027(5)
O7 O 0.9809(3) 0.3089(3) 0.4139(2)
O8 O 0.9713(2) 0.1892(3) 0.44555(18)
O9 O 0.8782(3) 0.5194(4) 0.0476(3)
C19 C 0.9931(3) 0.2383(5) 0.4090(3)
Ca6 Ca 0.92492(6) 0.08931(8) 0.50027(5)
Ca7 Ca 0.90403(8) 0.30190(9) 0.49572(6)
O14 O 0.8799(2) 0.3143(3) 0.05872(17)
H19 H 0.9131 0.559546 0.0526161
H20 H 0.841246 0.54012 0.0227548
O13 O 0.9705(2) 0.4972(3) 0.93383(18)
O16 O 0.8251(3) 0.3946(3) 0.9497(2)
O19 O 0.9713(2) 0.3108(3) 0.94555(18)
Ca2_2 Ca 0.09597(8) 0.80190(9) 0.00428(6)
O10_2 O 0.1707(6) 0.9002(6) 0.0405(5)
C30_2 C 0.2467(10) 0.8907(11) 0.0663(8)
H13_2 H 0.2654 0.8415 0.0527
H14_2 H 0.2458 0.8917 0.1100
H15_2 H 0.2744 0.9331 0.0515
Ca6_2 Ca 0.57508(6) 0.91069(8) 0.00027(5)
O15_2 O 0.1729(2) 0.7336(4) 0.0635(2)
O17_2 O 0.0191(3) 0.8089(3) 0.0861(2)
O18_2 O 0.0287(2) 0.6892(3) 0.05445(18)
H22_2 H 0.0584937 0.961599 0.0107124
Ca1_2 Ca 0.57508(6) 0.58931(8) 0.50027(5)
O1_2 O 0.4908(2) 0.6213(3) 0.5715(2)
O2_2 O 0.4705(2) 0.4972(3) 0.56617(18)
O3_2 O 0.1201(2) 0.6857(3) 0.94128(17)
O4_2 O 0.1654(3) 0.7975(3) 0.9160(2)
O5_2 O 0.1729(2) 0.7664(4) 0.5635(2)
O6_2 O 0.1749(3) 0.8946(3) 0.5503(2)
O7_2 O 0.5191(3) 0.6911(3) 0.9139(2)
O8_2 O 0.5287(2) 0.8108(3) 0.94555(18)
O9_2 O 0.6218(3) 0.4806(4) 0.5476(3)
O11_2 O 0.0643(5) 0.9289(6) 0.9747(6)
C1_2 C 0.4611(3) 0.5617(5) 0.5893(3)
C2_2 C 0.4149(3) 0.5704(4) 0.6409(2)
C3_2 C 0.3796(3) 0.5066(4) 0.6615(3)
H1_2 H 0.3873 0.4580 0.6433
C4_2 C 0.3339(3) 0.5113(4) 0.7075(3)
H2_2 H 0.3115 0.4667 0.7220
C5_2 C 0.3219(3) 0.5837(4) 0.7319(2)
C6_2 C 0.2728(3) 0.6084(4) 0.7772(2)
C7_2 C 0.2265(3) 0.5674(5) 0.8101(3)
H3_2 H 0.2212 0.5135 0.8043
C8_2 C 0.1880(3) 0.6066(5) 0.8519(3)
H4_2 H 0.1556 0.5794 0.8746
C9_2 C 0.1966(3) 0.6850(4) 0.8606(3)
C10_2 C 0.1577(4) 0.7256(5) 0.9086(3)
C11_2 C 0.2417(3) 0.7272(4) 0.8269(2)
H5_2 H 0.2463 0.7812 0.8320
C12_2 C 0.2802(3) 0.6869(4) 0.7849(2)
C13_2 C 0.4032(3) 0.6403(4) 0.6667(2)
H6_2 H 0.4272 0.6842 0.6532
C14_2 C 0.3571(3) 0.6484(4) 0.7121(2)
C15_2 C 0.3333(3) 0.7202(4) 0.7444(2)
C16_2 C 0.3860(3) 0.7645(4) 0.7798(2)
C17_2 C 0.4246(3) 0.7385(4) 0.8270(2)
H7_2 H 0.4227 0.6860 0.8388
C18_2 C 0.4662(3) 0.7899(4) 0.8572(3)
C19_2 C 0.5069(3) 0.7617(5) 0.9090(3)
C20_2 C 0.4691(3) 0.8648(5) 0.8387(3)
H8_2 H 0.4976 0.8994 0.8596
C21_2 C 0.4319(3) 0.8931(4) 0.7903(3)
H9_2 H 0.4353 0.9452 0.7776
C22_2 C 0.3897(3) 0.8409(4) 0.7617(2)
C23_2 C 0.3426(3) 0.8516(4) 0.7123(3)
C24_2 C 0.3297(3) 0.9152(5) 0.6771(3)
H10_2 H 0.3531 0.9621 0.6832
C25_2 C 0.2810(3) 0.9090(5) 0.6316(3)
H11_2 H 0.2715 0.9520 0.6068
C26_2 C 0.2466(3) 0.8393(5) 0.6231(3)
C27_2 C 0.1937(4) 0.8348(6) 0.5750(3)
C28_2 C 0.2614(3) 0.7760(4) 0.6584(2)
H12_2 H 0.2387 0.7285 0.6523
C29_2 C 0.3094(3) 0.7824(4) 0.7025(2)
Ca3_2 Ca 0.07508(6) 0.91069(8) 0.49973(5)
Ca7_2 Ca 0.59597(8) 0.69810(9) 0.99572(6)
Ca8_2 Ca 0.09597(8) 0.69810(9) 0.50428(6)
O13_2 O 0.5295(2) 0.5028(3) 0.43383(18)
O14_2 O 0.6201(2) 0.6857(3) 0.55872(17)
O16_2 O 0.6749(3) 0.6054(3) 0.4497(2)
O19_2 O 0.5287(2) 0.6892(3) 0.44555(18)
H19_2 H 0.5869 0.440454 0.552616
H20_2 H 0.658754 0.45988 0.522755
H21_2 H 0.0215831 0.926668 0.952219
C19_3 C 0.0069(3) 0.7383(5) 0.0910(3)
O13_3 O 0.0295(2) 0.9972(3) 0.56617(18)
O14_3 O 0.1201(2) 0.8143(3) 0.44128(17)
O19_3 O 0.0287(2) 0.8108(3) 0.55445(18)
O2_3 O 0.9705(2) 0.0028(3) 0.43383(18)
H1_3 H 0.8873 0.0420 0.3567
H2_3 H 0.8115 0.0333 0.2780
O1_3 O 0.9908(2) 0.8787(3) 0.4285(2)
O3_3 O 0.6201(2) 0.8143(3) 0.05872(17)
O4_3 O 0.6654(3) 0.7025(3) 0.0840(2)
O5_3 O 0.6729(2) 0.7336(4) 0.4365(2)
O11_3 O 0.5643(5) 0.5711(6) 0.0253(6)
O12_2 O 0.4996(3) 0.7211(4) 0.0602(3)
C1_3 C 0.9611(3) 0.9383(5) 0.4107(3)
C2_3 C 0.9149(3) 0.9296(4) 0.3591(2)
C3_3 C 0.8796(3) 0.9934(4) 0.3385(3)
C4_3 C 0.8339(3) 0.9887(4) 0.2925(3)
C5_3 C 0.8219(3) 0.9163(4) 0.2681(2)
C6_3 C 0.7728(3) 0.8916(4) 0.2228(2)
C7_3 C 0.7265(3) 0.9326(5) 0.1899(3)
H3_3 H 0.7212 0.9865 0.1957
C8_3 C 0.6880(3) 0.8934(5) 0.1481(3)
H4_3 H 0.6556 0.9206 0.1254
C9_3 C 0.6966(3) 0.8150(4) 0.1394(3)
C10_3 C 0.6577(4) 0.7744(5) 0.0914(3)
C11_3 C 0.7417(3) 0.7728(4) 0.1731(2)
H5_3 H 0.7463 0.7188 0.1680
C12_3 C 0.7802(3) 0.8131(4) 0.2151(2)
C13_3 C 0.9032(3) 0.8597(4) 0.3333(2)
H6_3 H 0.9272 0.8158 0.3468
C14_3 C 0.8571(3) 0.8516(4) 0.2879(2)
C15_3 C 0.8333(3) 0.7798(4) 0.2556(2)
C16_3 C 0.8860(3) 0.7355(4) 0.2202(2)
C17_3 C 0.9246(3) 0.7615(4) 0.1730(2)
H7_3 H 0.9227 0.8140 0.1612
C18_3 C 0.9662(3) 0.7101(4) 0.1428(3)
C20_3 C 0.9691(3) 0.6352(5) 0.1613(3)
H8_3 H 0.9976 0.6006 0.1404
C21_3 C 0.9319(3) 0.6069(4) 0.2097(3)
H9_3 H 0.9353 0.5548 0.2224
C22_3 C 0.8897(3) 0.6591(4) 0.2383(2)
C23_3 C 0.8426(3) 0.6484(4) 0.2877(3)
C24_3 C 0.8297(3) 0.5848(5) 0.3229(3)
H10_3 H 0.8531 0.5379 0.3168
C25_3 C 0.7810(3) 0.5910(5) 0.3684(3)
H11_3 H 0.7715 0.5480 0.3932
C26_3 C 0.7466(3) 0.6607(5) 0.3769(3)
C27_3 C 0.6937(4) 0.6652(6) 0.4250(3)
C28_3 C 0.7614(3) 0.7240(4) 0.3416(2)
H12_3 H 0.7387 0.7715 0.3477
C29_3 C 0.8094(3) 0.7176(4) 0.2975(2)
C31_2 C 0.4432(9) 0.6839(10) 0.0696(8)
H16_2 H 0.4182 0.6801 0.0320
H17_2 H 0.4164 0.7120 0.0991
H18_2 H 0.4529 0.6321 0.0846
Ca8_3 Ca 0.59597(8) 0.80190(9) 0.49572(6)
H21_3 H 0.521583 0.573332 0.0477806
O10_3 O 0.6707(6) 0.5998(6) 0.9595(5)
C30_3 C 0.7467(10) 0.6093(11) 0.9337(8)
H13_3 H 0.7654 0.6585 0.9473
H14_3 H 0.7458 0.6083 0.8900
H15_3 H 0.7744 0.5669 0.9485
O15_3 O 0.6729(2) 0.7664(4) 0.9365(2)
H22_3 H 0.558494 0.538401 0.989288
O13_4 O 0.4705(2) 0.0028(3) 0.06617(18)
O19_4 O 0.4713(2) 0.1892(3) 0.05445(18)
O1_4 O 0.5092(2) 0.1213(3) 0.9285(2)
O3_4 O 0.8799(2) 0.1857(3) 0.55872(17)
O4_4 O 0.8346(3) 0.2975(3) 0.5840(2)
O5_4 O 0.8271(2) 0.2664(4) 0.9365(2)
O10_4 O 0.8293(6) 0.4002(6) 0.4595(5)
O11_4 O 0.9357(5) 0.4289(6) 0.5253(6)
C1_4 C 0.5389(3) 0.0617(5) 0.9107(3)
C2_4 C 0.5851(3) 0.0704(4) 0.8591(2)
C3_4 C 0.6204(3) 0.0066(4) 0.8385(3)
C4_4 C 0.6661(3) 0.0113(4) 0.7925(3)
C5_4 C 0.6781(3) 0.0837(4) 0.7681(2)
C6_4 C 0.7272(3) 0.1084(4) 0.7228(2)
C7_4 C 0.7735(3) 0.0674(5) 0.6899(3)
H3_4 H 0.7788 0.0135 0.6957
C8_4 C 0.8120(3) 0.1066(5) 0.6481(3)
H4_4 H 0.8444 0.0794 0.6254
C9_4 C 0.8034(3) 0.1850(4) 0.6394(3)
C10_4 C 0.8423(4) 0.2256(5) 0.5914(3)
C11_4 C 0.7583(3) 0.2272(4) 0.6731(2)
H5_4 H 0.7537 0.2812 0.6680
C12_4 C 0.7198(3) 0.1869(4) 0.7151(2)
C13_4 C 0.5968(3) 0.1403(4) 0.8333(2)
H6_4 H 0.5728 0.1842 0.8468
C14_4 C 0.6429(3) 0.1484(4) 0.7879(2)
C15_4 C 0.6667(3) 0.2202(4) 0.7556(2)
C16_4 C 0.6140(3) 0.2645(4) 0.7202(2)
C17_4 C 0.5754(3) 0.2385(4) 0.6730(2)
H7_4 H 0.5773 0.1860 0.6612
C18_4 C 0.5338(3) 0.2899(4) 0.6428(3)
C19_4 C 0.4931(3) 0.2617(5) 0.5910(3)
C20_4 C 0.5309(3) 0.3648(5) 0.6613(3)
H8_4 H 0.5024 0.3994 0.6404
C21_4 C 0.5681(3) 0.3931(4) 0.7097(3)
H9_4 H 0.5647 0.4452 0.7224
C22_4 C 0.6103(3) 0.3409(4) 0.7383(2)
C23_4 C 0.6574(3) 0.3516(4) 0.7877(3)
C24_4 C 0.6703(3) 0.4152(5) 0.8229(3)
H10_4 H 0.6469 0.4621 0.8168
C25_4 C 0.7190(3) 0.4090(5) 0.8684(3)
H11_4 H 0.7285 0.4520 0.8932
C26_4 C 0.7534(3) 0.3393(5) 0.8769(3)
C27_4 C 0.8063(4) 0.3348(6) 0.9250(3)
C28_4 C 0.7386(3) 0.2760(4) 0.8416(2)
H12_4 H 0.7613 0.2285 0.8477
C29_4 C 0.6906(3) 0.2824(4) 0.7975(2)
C30_4 C 0.7533(10) 0.3907(11) 0.4337(8)
H13_4 H 0.7346 0.3415 0.4473
H14_4 H 0.7542 0.3917 0.3900
H15_4 H 0.7256 0.4331 0.4485
Ca8_4 Ca 0.90403(8) 0.19810(9) 0.99572(6)
O14_4 O 0.3799(2) 0.1857(3) 0.94128(17)
O15_4 O 0.8271(2) 0.2336(4) 0.4365(2)
H21_4 H 0.978417 0.426668 0.547781
H22_4 H 0.941506 0.461599 0.489288
O2_4 O 0.5295(2) 0.9972(3) 0.93383(18)
O9_3 O 0.3782(3) 0.9806(4) 0.9524(3)
H1_4 H 0.6127 0.9580 0.8567
H2_4 H 0.6885 0.9667 0.7780
H19_3 H 0.4131 0.940454 0.947384
H20_3 H 0.341246 0.95988 0.977245
O16_3 O 0.1749(3) 0.6054(3) 0.0503(2)
O7_3 O 0.0191(3) 0.6911(3) 0.5861(2)
O9_4 O 0.1218(3) 0.4806(4) 0.9524(3)
C19_5 C 0.0069(3) 0.7617(5) 0.5910(3)
H19_4 H 0.0868997 0.440454 0.947384
H20_4 H 0.158754 0.45988 0.977245
O1_5 O 0.9908(2) 0.6213(3) 0.9285(2)
O4_5 O 0.6654(3) 0.7975(3) 0.5840(2)
O6_3 O 0.6749(3) 0.8946(3) 0.9497(2)
O10_5 O 0.6707(6) 0.9002(6) 0.4595(5)
O11_5 O 0.5643(5) 0.9289(6) 0.5253(6)
O12_3 O 0.4996(3) 0.7789(4) 0.5602(3)
C1_5 C 0.9611(3) 0.5617(5) 0.9107(3)
C2_5 C 0.9149(3) 0.5704(4) 0.8591(2)
C3_5 C 0.8796(3) 0.5066(4) 0.8385(3)
H1_5 H 0.8873 0.4580 0.8567
C4_5 C 0.8339(3) 0.5113(4) 0.7925(3)
H2_5 H 0.8115 0.4667 0.7780
C5_5 C 0.8219(3) 0.5837(4) 0.7681(2)
C6_5 C 0.7728(3) 0.6084(4) 0.7228(2)
C7_5 C 0.7265(3) 0.5674(5) 0.6899(3)
H3_5 H 0.7212 0.5135 0.6957
C8_5 C 0.6880(3) 0.6066(5) 0.6481(3)
H4_5 H 0.6556 0.5794 0.6254
C9_5 C 0.6966(3) 0.6850(4) 0.6394(3)
C10_5 C 0.6577(4) 0.7256(5) 0.5914(3)
C11_5 C 0.7417(3) 0.7272(4) 0.6731(2)
H5_5 H 0.7463 0.7812 0.6680
C12_5 C 0.7802(3) 0.6869(4) 0.7151(2)
C13_5 C 0.9032(3) 0.6403(4) 0.8333(2)
H6_5 H 0.9272 0.6842 0.8468
C14_5 C 0.8571(3) 0.6484(4) 0.7879(2)
C15_5 C 0.8333(3) 0.7202(4) 0.7556(2)
C16_5 C 0.8860(3) 0.7645(4) 0.7202(2)
C17_5 C 0.9246(3) 0.7385(4) 0.6730(2)
H7_5 H 0.9227 0.6860 0.6612
C18_5 C 0.9662(3) 0.7899(4) 0.6428(3)
C20_5 C 0.9691(3) 0.8648(5) 0.6613(3)
H8_5 H 0.9976 0.8994 0.6404
C21_5 C 0.9319(3) 0.8931(4) 0.7097(3)
H9_5 H 0.9353 0.9452 0.7224
C22_5 C 0.8897(3) 0.8409(4) 0.7383(2)
C23_5 C 0.8426(3) 0.8516(4) 0.7877(3)
C24_5 C 0.8297(3) 0.9152(5) 0.8229(3)
H10_5 H 0.8531 0.9621 0.8168
C25_5 C 0.7810(3) 0.9090(5) 0.8684(3)
H11_5 H 0.7715 0.9520 0.8932
C26_5 C 0.7466(3) 0.8393(5) 0.8769(3)
C27_5 C 0.6937(4) 0.8348(6) 0.9250(3)
C28_5 C 0.7614(3) 0.7760(4) 0.8416(2)
H12_5 H 0.7387 0.7285 0.8477
C29_5 C 0.8094(3) 0.7824(4) 0.7975(2)
C30_5 C 0.7467(10) 0.8907(11) 0.4337(8)
H13_5 H 0.7654 0.8415 0.4473
H14_5 H 0.7458 0.8917 0.3900
H15_5 H 0.7744 0.9331 0.4485
C31_3 C 0.4432(9) 0.8161(10) 0.5696(8)
H16_3 H 0.4182 0.8199 0.5320
H17_3 H 0.4164 0.7880 0.5991
H18_3 H 0.4529 0.8679 0.5846
O17_3 O 0.5191(3) 0.8089(3) 0.4139(2)
H21_5 H 0.521583 0.926668 0.547781
H22_5 H 0.558494 0.961599 0.489288
O1_6 O 0.5092(2) 0.3787(3) 0.4285(2)
O4_6 O 0.8346(3) 0.2025(3) 0.0840(2)
O6_4 O 0.8251(3) 0.1054(3) 0.4497(2)
O7_4 O 0.4809(3) 0.3089(3) 0.0861(2)
O9_5 O 0.3782(3) 0.5194(4) 0.4524(3)
O11_6 O 0.9357(5) 0.0711(6) 0.0253(6)
C1_6 C 0.5389(3) 0.4383(5) 0.4107(3)
C2_6 C 0.5851(3) 0.4296(4) 0.3591(2)
C3_6 C 0.6204(3) 0.4934(4) 0.3385(3)
H1_6 H 0.6127 0.5420 0.3567
C4_6 C 0.6661(3) 0.4887(4) 0.2925(3)
H2_6 H 0.6885 0.5333 0.2780
C5_6 C 0.6781(3) 0.4163(4) 0.2681(2)
C6_6 C 0.7272(3) 0.3916(4) 0.2228(2)
C7_6 C 0.7735(3) 0.4326(5) 0.1899(3)
H3_6 H 0.7788 0.4865 0.1957
C8_6 C 0.8120(3) 0.3934(5) 0.1481(3)
H4_6 H 0.8444 0.4206 0.1254
C9_6 C 0.8034(3) 0.3150(4) 0.1394(3)
C10_6 C 0.8423(4) 0.2744(5) 0.0914(3)
C11_6 C 0.7583(3) 0.2728(4) 0.1731(2)
H5_6 H 0.7537 0.2188 0.1680
C12_6 C 0.7198(3) 0.3131(4) 0.2151(2)
C13_6 C 0.5968(3) 0.3597(4) 0.3333(2)
H6_6 H 0.5728 0.3158 0.3468
C14_6 C 0.6429(3) 0.3516(4) 0.2879(2)
C15_6 C 0.6667(3) 0.2798(4) 0.2556(2)
C16_6 C 0.6140(3) 0.2355(4) 0.2202(2)
C17_6 C 0.5754(3) 0.2615(4) 0.1730(2)
H7_6 H 0.5773 0.3140 0.1612
C18_6 C 0.5338(3) 0.2101(4) 0.1428(3)
C19_6 C 0.4931(3) 0.2383(5) 0.0910(3)
C20_6 C 0.5309(3) 0.1352(5) 0.1613(3)
H8_6 H 0.5024 0.1006 0.1404
C21_6 C 0.5681(3) 0.1069(4) 0.2097(3)
H9_6 H 0.5647 0.0548 0.2224
C22_6 C 0.6103(3) 0.1591(4) 0.2383(2)
C23_6 C 0.6574(3) 0.1484(4) 0.2877(3)
C24_6 C 0.6703(3) 0.0848(5) 0.3229(3)
H10_6 H 0.6469 0.0379 0.3168
C25_6 C 0.7190(3) 0.0910(5) 0.3684(3)
H11_6 H 0.7285 0.0480 0.3932
C26_6 C 0.7534(3) 0.1607(5) 0.3769(3)
C27_6 C 0.8063(4) 0.1652(6) 0.4250(3)
C28_6 C 0.7386(3) 0.2240(4) 0.3416(2)
H12_6 H 0.7613 0.2715 0.3477
C29_6 C 0.6906(3) 0.2176(4) 0.2975(2)
O16_4 O 0.3251(3) 0.3946(3) 0.5503(2)
H19_5 H 0.4131 0.559546 0.447384
H20_5 H 0.341246 0.54012 0.477245
H21_6 H 0.978417 0.0733321 0.0477806
O10_6 O 0.8293(6) 0.0998(6) 0.9595(5)
C30_6 C 0.7533(10) 0.1093(11) 0.9337(8)
H13_6 H 0.7346 0.1585 0.9473
H14_6 H 0.7542 0.1083 0.8900
H15_6 H 0.7256 0.0669 0.9485
O17_4 O 0.9809(3) 0.1911(3) 0.9139(2)
H22_6 H 0.941506 0.038401 0.989288
O10_7 O 0.3293(6) 0.4002(6) 0.0405(5)
C30_7 C 0.2533(10) 0.3907(11) 0.0663(8)
H13_7 H 0.2346 0.3415 0.0527
H14_7 H 0.2542 0.3917 0.1100
H15_7 H 0.2256 0.4331 0.0515
H22_7 H 0.441506 0.461599 0.0107124
O1_7 O 0.0092(2) 0.1213(3) 0.5715(2)
O4_7 O 0.3346(3) 0.2975(3) 0.9160(2)
O11_7 O 0.4357(5) 0.4289(6) 0.9747(6)
O12_4 O 0.5004(3) 0.2789(4) 0.9398(3)
C1_7 C 0.0389(3) 0.0617(5) 0.5893(3)
C2_7 C 0.0851(3) 0.0704(4) 0.6409(2)
C3_7 C 0.1204(3) 0.0066(4) 0.6615(3)
C4_7 C 0.1661(3) 0.0113(4) 0.7075(3)
C5_7 C 0.1781(3) 0.0837(4) 0.7319(2)
C6_7 C 0.2272(3) 0.1084(4) 0.7772(2)
C7_7 C 0.2735(3) 0.0674(5) 0.8101(3)
H3_7 H 0.2788 0.0135 0.8043
C8_7 C 0.3120(3) 0.1066(5) 0.8519(3)
H4_7 H 0.3444 0.0794 0.8746
C9_7 C 0.3034(3) 0.1850(4) 0.8606(3)
C10_7 C 0.3423(4) 0.2256(5) 0.9086(3)
C11_7 C 0.2583(3) 0.2272(4) 0.8269(2)
H5_7 H 0.2537 0.2812 0.8320
C12_7 C 0.2198(3) 0.1869(4) 0.7849(2)
C13_7 C 0.0968(3) 0.1403(4) 0.6667(2)
H6_7 H 0.0728 0.1842 0.6532
C14_7 C 0.1429(3) 0.1484(4) 0.7121(2)
C15_7 C 0.1667(3) 0.2202(4) 0.7444(2)
C16_7 C 0.1140(3) 0.2645(4) 0.7798(2)
C17_7 C 0.0754(3) 0.2385(4) 0.8270(2)
H7_7 H 0.0773 0.1860 0.8388
C18_7 C 0.0338(3) 0.2899(4) 0.8572(3)
C20_7 C 0.0309(3) 0.3648(5) 0.8387(3)
H8_7 H 0.0024 0.3994 0.8596
C21_7 C 0.0681(3) 0.3931(4) 0.7903(3)
H9_7 H 0.0647 0.4452 0.7776
C22_7 C 0.1103(3) 0.3409(4) 0.7617(2)
C23_7 C 0.1574(3) 0.3516(4) 0.7123(3)
C24_7 C 0.1703(3) 0.4152(5) 0.6771(3)
H10_7 H 0.1469 0.4621 0.6832
C25_7 C 0.2190(3) 0.4090(5) 0.6316(3)
H11_7 H 0.2285 0.4520 0.6068
C26_7 C 0.2534(3) 0.3393(5) 0.6231(3)
C27_7 C 0.3063(4) 0.3348(6) 0.5750(3)
C28_7 C 0.2386(3) 0.2760(4) 0.6584(2)
H12_7 H 0.2613 0.2285 0.6523
C29_7 C 0.1906(3) 0.2824(4) 0.7025(2)
C31_4 C 0.5568(9) 0.3161(10) 0.9304(8)
H16_4 H 0.5818 0.3199 0.9680
H17_4 H 0.5836 0.2880 0.9009
H18_4 H 0.5471 0.3679 0.9154
H21_7 H 0.478417 0.426668 0.952219
H1_7 H 0.1127 0.9580 0.6433
H2_7 H 0.1885 0.9667 0.7220
C19_7 C 0.9931(3) 0.2617(5) 0.9090(3)
O9_6 O 0.6218(3) 0.0194(4) 0.0476(3)
H1_8 H 0.3873 0.0420 0.1433
H2_8 H 0.3115 0.0333 0.2220
H19_6 H 0.5869 0.0595459 0.0526161
H20_6 H 0.658754 0.0401199 0.0227548
O1_8 O 0.4908(2) 0.8787(3) 0.0715(2)
O4_8 O 0.1654(3) 0.7025(3) 0.4160(2)
O10_8 O 0.1707(6) 0.5998(6) 0.5405(5)
O11_8 O 0.0643(5) 0.5711(6) 0.4747(6)
C1_8 C 0.4611(3) 0.9383(5) 0.0893(3)
C2_8 C 0.4149(3) 0.9296(4) 0.1409(2)
C3_8 C 0.3796(3) 0.9934(4) 0.1615(3)
C4_8 C 0.3339(3) 0.9887(4) 0.2075(3)
C5_8 C 0.3219(3) 0.9163(4) 0.2319(2)
C6_8 C 0.2728(3) 0.8916(4) 0.2772(2)
C7_8 C 0.2265(3) 0.9326(5) 0.3101(3)
H3_8 H 0.2212 0.9865 0.3043
C8_8 C 0.1880(3) 0.8934(5) 0.3519(3)
H4_8 H 0.1556 0.9206 0.3746
C9_8 C 0.1966(3) 0.8150(4) 0.3606(3)
C10_8 C 0.1577(4) 0.7744(5) 0.4086(3)
C11_8 C 0.2417(3) 0.7728(4) 0.3269(2)
H5_8 H 0.2463 0.7188 0.3320
C12_8 C 0.2802(3) 0.8131(4) 0.2849(2)
C13_8 C 0.4032(3) 0.8597(4) 0.1667(2)
H6_8 H 0.4272 0.8158 0.1532
C14_8 C 0.3571(3) 0.8516(4) 0.2121(2)
C15_8 C 0.3333(3) 0.7798(4) 0.2444(2)
C16_8 C 0.3860(3) 0.7355(4) 0.2798(2)
C17_8 C 0.4246(3) 0.7615(4) 0.3270(2)
H7_8 H 0.4227 0.8140 0.3388
C18_8 C 0.4662(3) 0.7101(4) 0.3572(3)
C19_8 C 0.5069(3) 0.7383(5) 0.4090(3)
C20_8 C 0.4691(3) 0.6352(5) 0.3387(3)
H8_8 H 0.4976 0.6006 0.3596
C21_8 C 0.4319(3) 0.6069(4) 0.2903(3)
H9_8 H 0.4353 0.5548 0.2776
C22_8 C 0.3897(3) 0.6591(4) 0.2617(2)
C23_8 C 0.3426(3) 0.6484(4) 0.2123(3)
C24_8 C 0.3297(3) 0.5848(5) 0.1771(3)
H10_8 H 0.3531 0.5379 0.1832
C25_8 C 0.2810(3) 0.5910(5) 0.1316(3)
H11_8 H 0.2715 0.5480 0.1068
C26_8 C 0.2466(3) 0.6607(5) 0.1231(3)
C27_8 C 0.1937(4) 0.6652(6) 0.0750(3)
C28_8 C 0.2614(3) 0.7240(4) 0.1584(2)
H12_8 H 0.2387 0.7715 0.1523
C29_8 C 0.3094(3) 0.7176(4) 0.2025(2)
C30_8 C 0.2467(10) 0.6093(11) 0.5663(8)
H13_8 H 0.2654 0.6585 0.5527
H14_8 H 0.2458 0.6083 0.6100
H15_8 H 0.2744 0.5669 0.5515
H21_8 H 0.0215831 0.573332 0.452219
H22_8 H 0.0584937 0.538401 0.510712
O12_5 O 0.9996(3) 0.7789(4) 0.9398(3)
C31_5 C 0.9432(9) 0.8161(10) 0.9304(8)
H16_5 H 0.9182 0.8199 0.9680
H17_5 H 0.9164 0.7880 0.9009
H18_5 H 0.9529 0.8679 0.9154
O9_7 O 0.1218(3) 0.0194(4) 0.4524(3)
H19_7 H 0.0868997 0.0595459 0.447384
H20_7 H 0.158754 0.0401199 0.477245
O12_6 O 0.0004(3) 0.2789(4) 0.5602(3)
C31_6 C 0.0568(9) 0.3161(10) 0.5696(8)
H16_6 H 0.0818 0.3199 0.5320
H17_6 H 0.0836 0.2880 0.5991
H18_6 H 0.0471 0.3679 0.5846
O12_7 O 0.0004(3) 0.2211(4) 0.0602(3)
C31_7 C 0.0568(9) 0.1839(10) 0.0696(8)
H16_7 H 0.0818 0.1801 0.0320
H17_7 H 0.0836 0.2120 0.0991
H18_7 H 0.0471 0.1321 0.0846
O9_8 O 0.8782(3) 0.9806(4) 0.5476(3)
H19_8 H 0.9131 0.940454 0.552616
H20_8 H 0.841246 0.95988 0.522755
O12_8 O 0.9996(3) 0.7211(4) 0.4398(3)
C31_8 C 0.9432(9) 0.6839(10) 0.4304(8)
H16_8 H 0.9182 0.6801 0.4680
H17_8 H 0.9164 0.7120 0.4009
H18_8 H 0.9529 0.6321 0.4154
loop_
_geom_bond_atom_site_label_1
_geom_bond_atom_site_label_2
_geom_bond_site_symmetry_1
_geom_bond_site_symmetry_2
Ca2 O3 1_555 1_555
O1 C1 1_555 1_555
O2 C1 1_555 1_555
O3 C10 1_555 1_555
O4 Ca2 1_555 1_555
O5 C27 1_555 1_555
O6 C27 1_555 1_555
O10 Ca2 1_555 1_555
O11 Ca2 1_555 1_555
O12 Ca2 1_555 1_555
C1 C2 1_555 1_555
C2 C3 1_555 1_555
C3 H1 1_555 1_555
C4 C3 1_555 1_555
H2 C4 1_555 1_555
C5 C4 1_555 1_555
C6 C5 1_555 1_555
C7 C6 1_555 1_555
H3 C7 1_555 1_555
C8 C7 1_555 1_555
H4 C8 1_555 1_555
C9 C8 1_555 1_555
C10 O4 1_555 1_555
C11 C9 1_555 1_555
H5 C11 1_555 1_555
C12 C6 1_555 1_555
C13 C2 1_555 1_555
H6 C13 1_555 1_555
C14 C5 1_555 1_555
C15 C12 1_555 1_555
C16 C15 1_555 1_555
C17 C16 1_555 1_555
H7 C17 1_555 1_555
C18 C17 1_555 1_555
C20 C18 1_555 1_555
H8 C20 1_555 1_555
C21 C20 1_555 1_555
H9 C21 1_555 1_555
C22 C16 1_555 1_555
C23 C22 1_555 1_555
C24 C23 1_555 1_555
H10 C24 1_555 1_555
C25 C24 1_555 1_555
H11 C25 1_555 1_555
C26 C25 1_555 1_555
C27 C26 1_555 1_555
C28 C26 1_555 1_555
H12 C28 1_555 1_555
C29 C15 1_555 1_555
C30 O10 1_555 1_555
H13 C30 1_555 1_555
H14 C30 1_555 1_555
H15 C30 1_555 1_555
C31 O12 1_555 1_555
H16 C31 1_555 1_555
H17 C31 1_555 1_555
H18 C31 1_555 1_555
Ca5 O3 1_555 1_555
Ca8 O5 1_555 1_555
O15 Ca2 1_555 1_555
O17 Ca2 1_555 1_555
O18 Ca2 1_555 1_555
C9 C10 1_555 1_555
C11 C12 1_555 1_555
C13 C14 1_555 1_555
C14 C15 1_555 1_555
C21 C22 1_555 1_555
C23 C29 1_555 1_555
C28 C29 1_555 1_555
Ca5 O18 1_555 1_555
O11 H21 1_555 1_555
O11 H22 1_555 1_555
O7 C19 1_555 1_555
O8 C19 1_555 1_555
O9 Ca1 1_555 1_555
Ca6 O8 1_555 1_555
Ca7 O7 1_555 1_555
O14 Ca1 1_555 1_555
O8 Ca7 1_555 1_555
O9 H19 1_555 1_555
O9 H20 1_555 1_555
O10_2 Ca2_2 1_555 1_555
C30_2 O10_2 1_555 1_555
H13_2 C30_2 1_555 1_555
H14_2 C30_2 1_555 1_555
H15_2 C30_2 1_555 1_555
O15_2 Ca2_2 1_555 1_555
O17_2 Ca2_2 1_555 1_555
O18_2 Ca2_2 1_555 1_555
Ca1_2 O1_2 1_555 1_555
O1_2 C1_2 1_555 1_555
O2_2 C1_2 1_555 1_555
O3_2 C10_2 1_555 1_555
O5_2 C27_2 1_555 1_555
O6_2 C27_2 1_555 1_555
O7_2 C19_2 1_555 1_555
O8_2 C19_2 1_555 1_555
O9_2 Ca1_2 1_555 1_555
C1_2 C2_2 1_555 1_555
C2_2 C3_2 1_555 1_555
C3_2 H1_2 1_555 1_555
C4_2 C3_2 1_555 1_555
H2_2 C4_2 1_555 1_555
C5_2 C4_2 1_555 1_555
C6_2 C5_2 1_555 1_555
C7_2 C6_2 1_555 1_555
H3_2 C7_2 1_555 1_555
C8_2 C7_2 1_555 1_555
H4_2 C8_2 1_555 1_555
C9_2 C8_2 1_555 1_555
C10_2 O4_2 1_555 1_555
C11_2 C9_2 1_555 1_555
H5_2 C11_2 1_555 1_555
C12_2 C6_2 1_555 1_555
C13_2 C2_2 1_555 1_555
H6_2 C13_2 1_555 1_555
C14_2 C5_2 1_555 1_555
C15_2 C12_2 1_555 1_555
C16_2 C15_2 1_555 1_555
C17_2 C16_2 1_555 1_555
H7_2 C17_2 1_555 1_555
C18_2 C17_2 1_555 1_555
C19_2 C18_2 1_555 1_555
C20_2 C18_2 1_555 1_555
H8_2 C20_2 1_555 1_555
C21_2 C20_2 1_555 1_555
H9_2 C21_2 1_555 1_555
C22_2 C16_2 1_555 1_555
C23_2 C22_2 1_555 1_555
C24_2 C23_2 1_555 1_555
H10_2 C24_2 1_555 1_555
C25_2 C24_2 1_555 1_555
H11_2 C25_2 1_555 1_555
C26_2 C25_2 1_555 1_555
C27_2 C26_2 1_555 1_555
C28_2 C26_2 1_555 1_555
H12_2 C28_2 1_555 1_555
C29_2 C15_2 1_555 1_555
Ca3_2 O6_2 1_555 1_555
Ca5 O2_2 1_555 1_555
Ca4 O3_2 1_555 1_555
Ca7_2 O7_2 1_555 1_555
Ca8_2 O5_2 1_555 1_555
O13_2 Ca1_2 1_555 1_555
O14_2 Ca1_2 1_555 1_555
O16_2 Ca1_2 1_555 1_555
O19_2 Ca1_2 1_555 1_555
O8_2 Ca7_2 1_555 1_555
C9_2 C10_2 1_555 1_555
C11_2 C12_2 1_555 1_555
C13_2 C14_2 1_555 1_555
C14_2 C15_2 1_555 1_555
C21_2 C22_2 1_555 1_555
C23_2 C29_2 1_555 1_555
C28_2 C29_2 1_555 1_555
O9_2 H19_2 1_555 1_555
O9_2 H20_2 1_555 1_555
O11_2 H21_2 1_555 1_555
O17_2 C19_3 1_555 1_555
O18_2 C19_3 1_555 1_555
O13_3 Ca3_2 1_555 1_555
O14_3 Ca3_2 1_555 1_555
O19_3 Ca3_2 1_555 1_555
Ca6 O2_3 1_555 1_555
O1_3 C1_3 1_555 1_555
O3_3 C10_3 1_555 1_555
O5_3 C27_3 1_555 1_555
O16_2 C27_3 1_555 1_555
C1_3 C2_3 1_555 1_555
C2_3 C3_3 1_555 1_555
C4_3 C3_3 1_555 1_555
C5_3 C4_3 1_555 1_555
C6_3 C5_3 1_555 1_555
C7_3 C6_3 1_555 1_555
H3_3 C7_3 1_555 1_555
C8_3 C7_3 1_555 1_555
H4_3 C8_3 1_555 1_555
C9_3 C8_3 1_555 1_555
C10_3 O4_3 1_555 1_555
C11_3 C9_3 1_555 1_555
H5_3 C11_3 1_555 1_555
C12_3 C6_3 1_555 1_555
C13_3 C2_3 1_555 1_555
H6_3 C13_3 1_555 1_555
C14_3 C5_3 1_555 1_555
C15_3 C12_3 1_555 1_555
C16_3 C15_3 1_555 1_555
C17_3 C16_3 1_555 1_555
H7_3 C17_3 1_555 1_555
C18_3 C17_3 1_555 1_555
C20_3 C18_3 1_555 1_555
H8_3 C20_3 1_555 1_555
C21_3 C20_3 1_555 1_555
H9_3 C21_3 1_555 1_555
C22_3 C16_3 1_555 1_555
C23_3 C22_3 1_555 1_555
C24_3 C23_3 1_555 1_555
H10_3 C24_3 1_555 1_555
C25_3 C24_3 1_555 1_555
H11_3 C25_3 1_555 1_555
C26_3 C25_3 1_555 1_555
C27_3 C26_3 1_555 1_555
C28_3 C26_3 1_555 1_555
H12_3 C28_3 1_555 1_555
C29_3 C15_3 1_555 1_555
C31_2 O12_2 1_555 1_555
H16_2 C31_2 1_555 1_555
H17_2 C31_2 1_555 1_555
H18_2 C31_2 1_555 1_555
Ca6_2 O3_3 1_555 1_555
Ca8_3 O5_3 1_555 1_555
C9_3 C10_3 1_555 1_555
C11_3 C12_3 1_555 1_555
C13_3 C14_3 1_555 1_555
C14_3 C15_3 1_555 1_555
C21_3 C22_3 1_555 1_555
C23_3 C29_3 1_555 1_555
C28_3 C29_3 1_555 1_555
O11_3 H21_3 1_555 1_555
O10_3 Ca7_2 1_555 1_555
C30_3 O10_3 1_555 1_555
H13_3 C30_3 1_555 1_555
H14_3 C30_3 1_555 1_555
H15_3 C30_3 1_555 1_555
O15_3 Ca7_2 1_555 1_555
Ca3 O1_4 1_555 1_555
Ca7 O3_4 1_555 1_555
O1_4 C1_4 1_555 1_555
O3_4 C10_4 1_555 1_555
O4_4 Ca7 1_555 1_555
O5_4 C27_4 1_555 1_555
O16 C27_4 1_555 1_555
O17 C19_4 1_555 1_555
O18 C19_4 1_555 1_555
O10_4 Ca7 1_555 1_555
O11_4 Ca7 1_555 1_555
C1_4 C2_4 1_555 1_555
C2_4 C3_4 1_555 1_555
C4_4 C3_4 1_555 1_555
C5_4 C4_4 1_555 1_555
C6_4 C5_4 1_555 1_555
C7_4 C6_4 1_555 1_555
H3_4 C7_4 1_555 1_555
C8_4 C7_4 1_555 1_555
H4_4 C8_4 1_555 1_555
C9_4 C8_4 1_555 1_555
C10_4 O4_4 1_555 1_555
C11_4 C9_4 1_555 1_555
H5_4 C11_4 1_555 1_555
C12_4 C6_4 1_555 1_555
C13_4 C2_4 1_555 1_555
H6_4 C13_4 1_555 1_555
C14_4 C5_4 1_555 1_555
C15_4 C12_4 1_555 1_555
C16_4 C15_4 1_555 1_555
C17_4 C16_4 1_555 1_555
H7_4 C17_4 1_555 1_555
C18_4 C17_4 1_555 1_555
C19_4 C18_4 1_555 1_555
C20_4 C18_4 1_555 1_555
H8_4 C20_4 1_555 1_555
C21_4 C20_4 1_555 1_555
H9_4 C21_4 1_555 1_555
C22_4 C16_4 1_555 1_555
C23_4 C22_4 1_555 1_555
C24_4 C23_4 1_555 1_555
H10_4 C24_4 1_555 1_555
C25_4 C24_4 1_555 1_555
H11_4 C25_4 1_555 1_555
C26_4 C25_4 1_555 1_555
C27_4 C26_4 1_555 1_555
C28_4 C26_4 1_555 1_555
H12_4 C28_4 1_555 1_555
C29_4 C15_4 1_555 1_555
C30_4 O10_4 1_555 1_555
H13_4 C30_4 1_555 1_555
H14_4 C30_4 1_555 1_555
H15_4 C30_4 1_555 1_555
Ca6 O3_4 1_555 1_555
Ca8_4 O5_4 1_555 1_555
O14_4 Ca3 1_555 1_555
O15_4 Ca7 1_555 1_555
C9_4 C10_4 1_555 1_555
C11_4 C12_4 1_555 1_555
C13_4 C14_4 1_555 1_555
C14_4 C15_4 1_555 1_555
C21_4 C22_4 1_555 1_555
C23_4 C29_4 1_555 1_555
C28_4 C29_4 1_555 1_555
O11_4 H21_4 1_555 1_555
O11_4 H22_4 1_555 1_555
O9_3 H19_3 1_555 1_555
O9_3 H20_3 1_555 1_555
O7_3 C19_5 1_555 1_555
O19_3 C19_5 1_555 1_555
O9_4 Ca4 1_555 1_555
Ca8_2 O7_3 1_555 1_555
O19_3 Ca8_2 1_555 1_555
O9_4 H19_4 1_555 1_555
O9_4 H20_4 1_555 1_555
Ca8_3 O14_2 1_555 1_555
O1_5 C1_5 1_555 1_555
O13 C1_5 1_555 1_555
O14_2 C10_5 1_555 1_555
O4_5 Ca8_3 1_555 1_555
O15_3 C27_5 1_555 1_555
O6_3 C27_5 1_555 1_555
O10_5 Ca8_3 1_555 1_555
O11_5 Ca8_3 1_555 1_555
O12_3 Ca8_3 1_555 1_555
C1_5 C2_5 1_555 1_555
C2_5 C3_5 1_555 1_555
C3_5 H1_5 1_555 1_555
C4_5 C3_5 1_555 1_555
H2_5 C4_5 1_555 1_555
C5_5 C4_5 1_555 1_555
C6_5 C5_5 1_555 1_555
C7_5 C6_5 1_555 1_555
H3_5 C7_5 1_555 1_555
C8_5 C7_5 1_555 1_555
H4_5 C8_5 1_555 1_555
C9_5 C8_5 1_555 1_555
C10_5 O4_5 1_555 1_555
C11_5 C9_5 1_555 1_555
H5_5 C11_5 1_555 1_555
C12_5 C6_5 1_555 1_555
C13_5 C2_5 1_555 1_555
H6_5 C13_5 1_555 1_555
C14_5 C5_5 1_555 1_555
C15_5 C12_5 1_555 1_555
C16_5 C15_5 1_555 1_555
C17_5 C16_5 1_555 1_555
H7_5 C17_5 1_555 1_555
C18_5 C17_5 1_555 1_555
C20_5 C18_5 1_555 1_555
H8_5 C20_5 1_555 1_555
C21_5 C20_5 1_555 1_555
H9_5 C21_5 1_555 1_555
C22_5 C16_5 1_555 1_555
C23_5 C22_5 1_555 1_555
C24_5 C23_5 1_555 1_555
H10_5 C24_5 1_555 1_555
C25_5 C24_5 1_555 1_555
H11_5 C25_5 1_555 1_555
C26_5 C25_5 1_555 1_555
C27_5 C26_5 1_555 1_555
C28_5 C26_5 1_555 1_555
H12_5 C28_5 1_555 1_555
C29_5 C15_5 1_555 1_555
C30_5 O10_5 1_555 1_555
H13_5 C30_5 1_555 1_555
H14_5 C30_5 1_555 1_555
H15_5 C30_5 1_555 1_555
C31_3 O12_3 1_555 1_555
H16_3 C31_3 1_555 1_555
H17_3 C31_3 1_555 1_555
H18_3 C31_3 1_555 1_555
O17_3 Ca8_3 1_555 1_555
O19_2 Ca8_3 1_555 1_555
C9_5 C10_5 1_555 1_555
C11_5 C12_5 1_555 1_555
C13_5 C14_5 1_555 1_555
C14_5 C15_5 1_555 1_555
C21_5 C22_5 1_555 1_555
C23_5 C29_5 1_555 1_555
C28_5 C29_5 1_555 1_555
O11_5 H21_5 1_555 1_555
O11_5 H22_5 1_555 1_555
Ca5 O1_6 1_555 1_555
O1_6 C1_6 1_555 1_555
O13_2 C1_6 1_555 1_555
O14 C10_6 1_555 1_555
O15_4 C27_6 1_555 1_555
O6_4 C27_6 1_555 1_555
O7_4 C19_6 1_555 1_555
O19_4 C19_6 1_555 1_555
O9_5 Ca5 1_555 1_555
C1_6 C2_6 1_555 1_555
C2_6 C3_6 1_555 1_555
C3_6 H1_6 1_555 1_555
C4_6 C3_6 1_555 1_555
H2_6 C4_6 1_555 1_555
C5_6 C4_6 1_555 1_555
C6_6 C5_6 1_555 1_555
C7_6 C6_6 1_555 1_555
H3_6 C7_6 1_555 1_555
C8_6 C7_6 1_555 1_555
H4_6 C8_6 1_555 1_555
C9_6 C8_6 1_555 1_555
C10_6 O4_6 1_555 1_555
C11_6 C9_6 1_555 1_555
H5_6 C11_6 1_555 1_555
C12_6 C6_6 1_555 1_555
C13_6 C2_6 1_555 1_555
H6_6 C13_6 1_555 1_555
C14_6 C5_6 1_555 1_555
C15_6 C12_6 1_555 1_555
C16_6 C15_6 1_555 1_555
C17_6 C16_6 1_555 1_555
H7_6 C17_6 1_555 1_555
C18_6 C17_6 1_555 1_555
C19_6 C18_6 1_555 1_555
C20_6 C18_6 1_555 1_555
H8_6 C20_6 1_555 1_555
C21_6 C20_6 1_555 1_555
H9_6 C21_6 1_555 1_555
C22_6 C16_6 1_555 1_555
C23_6 C22_6 1_555 1_555
C24_6 C23_6 1_555 1_555
H10_6 C24_6 1_555 1_555
C25_6 C24_6 1_555 1_555
H11_6 C25_6 1_555 1_555
C26_6 C25_6 1_555 1_555
C27_6 C26_6 1_555 1_555
C28_6 C26_6 1_555 1_555
H12_6 C28_6 1_555 1_555
C29_6 C15_6 1_555 1_555
Ca6 O6_4 1_555 1_555
Ca8 O7_4 1_555 1_555
O16_4 Ca5 1_555 1_555
O19_4 Ca8 1_555 1_555
C9_6 C10_6 1_555 1_555
C11_6 C12_6 1_555 1_555
C13_6 C14_6 1_555 1_555
C14_6 C15_6 1_555 1_555
C21_6 C22_6 1_555 1_555
C23_6 C29_6 1_555 1_555
C28_6 C29_6 1_555 1_555
O9_5 H19_5 1_555 1_555
O9_5 H20_5 1_555 1_555
O11_6 H21_6 1_555 1_555
O10_6 Ca8_4 1_555 1_555
C30_6 O10_6 1_555 1_555
H13_6 C30_6 1_555 1_555
H14_6 C30_6 1_555 1_555
H15_6 C30_6 1_555 1_555
O17_4 Ca8_4 1_555 1_555
O19 Ca8_4 1_555 1_555
O10_7 Ca8 1_555 1_555
C30_7 O10_7 1_555 1_555
H13_7 C30_7 1_555 1_555
H14_7 C30_7 1_555 1_555
H15_7 C30_7 1_555 1_555
O1_7 C1_7 1_555 1_555
O14_4 C10_7 1_555 1_555
O15 C27_7 1_555 1_555
O16_4 C27_7 1_555 1_555
C1_7 C2_7 1_555 1_555
C2_7 C3_7 1_555 1_555
C4_7 C3_7 1_555 1_555
C5_7 C4_7 1_555 1_555
C6_7 C5_7 1_555 1_555
C7_7 C6_7 1_555 1_555
H3_7 C7_7 1_555 1_555
C8_7 C7_7 1_555 1_555
H4_7 C8_7 1_555 1_555
C9_7 C8_7 1_555 1_555
C10_7 O4_7 1_555 1_555
C11_7 C9_7 1_555 1_555
H5_7 C11_7 1_555 1_555
C12_7 C6_7 1_555 1_555
C13_7 C2_7 1_555 1_555
H6_7 C13_7 1_555 1_555
C14_7 C5_7 1_555 1_555
C15_7 C12_7 1_555 1_555
C16_7 C15_7 1_555 1_555
C17_7 C16_7 1_555 1_555
H7_7 C17_7 1_555 1_555
C18_7 C17_7 1_555 1_555
C20_7 C18_7 1_555 1_555
H8_7 C20_7 1_555 1_555
C21_7 C20_7 1_555 1_555
H9_7 C21_7 1_555 1_555
C22_7 C16_7 1_555 1_555
C23_7 C22_7 1_555 1_555
C24_7 C23_7 1_555 1_555
H10_7 C24_7 1_555 1_555
C25_7 C24_7 1_555 1_555
H11_7 C25_7 1_555 1_555
C26_7 C25_7 1_555 1_555
C27_7 C26_7 1_555 1_555
C28_7 C26_7 1_555 1_555
H12_7 C28_7 1_555 1_555
C29_7 C15_7 1_555 1_555
C31_4 O12_4 1_555 1_555
H16_4 C31_4 1_555 1_555
H17_4 C31_4 1_555 1_555
H18_4 C31_4 1_555 1_555
C9_7 C10_7 1_555 1_555
C11_7 C12_7 1_555 1_555
C13_7 C14_7 1_555 1_555
C14_7 C15_7 1_555 1_555
C21_7 C22_7 1_555 1_555
C23_7 C29_7 1_555 1_555
C28_7 C29_7 1_555 1_555
O11_7 H21_7 1_555 1_555
O17_4 C19_7 1_555 1_555
O19 C19_7 1_555 1_555
O9_6 H19_6 1_555 1_555
O9_6 H20_6 1_555 1_555
Ca6_2 O1_8 1_555 1_555
Ca8_2 O14_3 1_555 1_555
O1_8 C1_8 1_555 1_555
O14_3 C10_8 1_555 1_555
O4_8 Ca8_2 1_555 1_555
O15_2 C27_8 1_555 1_555
O16_3 C27_8 1_555 1_555
O17_3 C19_8 1_555 1_555
O19_2 C19_8 1_555 1_555
O10_8 Ca8_2 1_555 1_555
O11_8 Ca8_2 1_555 1_555
C1_8 C2_8 1_555 1_555
C2_8 C3_8 1_555 1_555
C4_8 C3_8 1_555 1_555
C5_8 C4_8 1_555 1_555
C6_8 C5_8 1_555 1_555
C7_8 C6_8 1_555 1_555
H3_8 C7_8 1_555 1_555
C8_8 C7_8 1_555 1_555
H4_8 C8_8 1_555 1_555
C9_8 C8_8 1_555 1_555
C10_8 O4_8 1_555 1_555
C11_8 C9_8 1_555 1_555
H5_8 C11_8 1_555 1_555
C12_8 C6_8 1_555 1_555
C13_8 C2_8 1_555 1_555
H6_8 C13_8 1_555 1_555
C14_8 C5_8 1_555 1_555
C15_8 C12_8 1_555 1_555
C16_8 C15_8 1_555 1_555
C17_8 C16_8 1_555 1_555
H7_8 C17_8 1_555 1_555
C18_8 C17_8 1_555 1_555
C19_8 C18_8 1_555 1_555
C20_8 C18_8 1_555 1_555
H8_8 C20_8 1_555 1_555
C21_8 C20_8 1_555 1_555
H9_8 C21_8 1_555 1_555
C22_8 C16_8 1_555 1_555
C23_8 C22_8 1_555 1_555
C24_8 C23_8 1_555 1_555
H10_8 C24_8 1_555 1_555
C25_8 C24_8 1_555 1_555
H11_8 C25_8 1_555 1_555
C26_8 C25_8 1_555 1_555
C27_8 C26_8 1_555 1_555
C28_8 C26_8 1_555 1_555
H12_8 C28_8 1_555 1_555
C29_8 C15_8 1_555 1_555
C30_8 O10_8 1_555 1_555
H13_8 C30_8 1_555 1_555
H14_8 C30_8 1_555 1_555
H15_8 C30_8 1_555 1_555
C9_8 C10_8 1_555 1_555
C11_8 C12_8 1_555 1_555
C13_8 C14_8 1_555 1_555
C14_8 C15_8 1_555 1_555
C21_8 C22_8 1_555 1_555
C23_8 C29_8 1_555 1_555
C28_8 C29_8 1_555 1_555
O11_8 H21_8 1_555 1_555
O11_8 H22_8 1_555 1_555
C31_5 O12_5 1_555 1_555
H16_5 C31_5 1_555 1_555
H17_5 C31_5 1_555 1_555
H18_5 C31_5 1_555 1_555
O9_7 H19_7 1_555 1_555
O9_7 H20_7 1_555 1_555
C31_6 O12_6 1_555 1_555
H16_6 C31_6 1_555 1_555
H17_6 C31_6 1_555 1_555
H18_6 C31_6 1_555 1_555
C31_7 O12_7 1_555 1_555
H16_7 C31_7 1_555 1_555
H17_7 C31_7 1_555 1_555
H18_7 C31_7 1_555 1_555
O9_8 H19_8 1_555 1_555
O9_8 H20_8 1_555 1_555
C31_8 O12_8 1_555 1_555
H16_8 C31_8 1_555 1_555
H17_8 C31_8 1_555 1_555
H18_8 C31_8 1_555 1_555

#END
