
###############################################################################
#
# This file contains modified crystal structure data generated from the
# MOF subset of the Cambridge Structural Database (CSD) v543 
# hosted by the Cambridge Crystallographic Data Centre (CCDC).
#
# This work is licensed under the Creative Commons
# Attribution-NonCommercial-ShareAlike 4.0 International License.
# To view a copy of this license, visit
# http://creativecommons.org/licenses/by-nc-sa/4.0/
# or send a letter to
# Creative Commons, PO Box 1866, Mountain View, CA 94042, USA.
#
# CIF created using the CSD Python API on 29 September 2022
# The structure has been converted into the P1 space group
# The structure has a 3D framework
# The original CSD entry HENYUV is in the tetragonal crystal system
# The original CSD entry HENYUV is in a Sohncke space group
# The framework has been calculated to contain at least 10.0% void space
# The void calculation uses a probe of radius 1.32A, grid spacing 0.4
#
###############################################################################

data_HENYUV
_chemical_formula_moiety         '(C34 H8 N10 O16 Zn10)n'
_symmetry_cell_setting           triclinic
_symmetry_space_group_name_H-M   'P 1'
_symmetry_Int_Tables_number      1
_space_group_name_Hall           'P 1'
loop_
_symmetry_equiv_pos_site_id
_symmetry_equiv_pos_as_xyz
1 x,y,z
_cell_length_a                   7.0249(7)
_cell_length_b                   7.0249(7)
_cell_length_c                   19.936(2)
_cell_angle_alpha                90
_cell_angle_beta                 90
_cell_angle_gamma                90
_cell_volume                     983.826
loop_
_atom_site_label
_atom_site_type_symbol
_atom_site_fract_x
_atom_site_fract_y
_atom_site_fract_z
Zn1 Zn -0.0000 -0.0000 0.27597(3)
C1 C -0.0000 -0.0000 0.0374(3)
N1 N -0.0000 -0.0000 0.1752(3)
O7 O 0.1639(6) 0.1346(6) 0.33965(15)
Zn2 Zn 0.0000 -0.0000 0.72403(3)
C5 C -0.0000 -0.0000 0.9626(3)
N2 N -0.0000 -0.0000 0.8248(3)
O9 O 0.1346(6) 0.1639(6) 0.66035(15)
Zn1_2 Zn -0.0000 1.0000 0.27597(3)
C1_2 C -0.0000 1.0000 0.0374(3)
C2 C 0.1013(8) 0.8622(9) 0.0731(2)
H1 H 0.1670 0.7665 0.0507
C3 C 0.1022(7) 0.8705(8) 0.1426(2)
C4 C 0.2190(7) 0.7447(7) 0.1881(2)
N1_2 N -0.0000 1.0000 0.1752(3)
O1 O 0.3361(6) 0.6346(6) 0.16035(15)
O2 O 0.1942(5) 0.7641(6) 0.24955(15)
Zn3 Zn 0.5000 0.5000 0.22403(3)
Zn2_2 Zn -0.0000 1.0000 0.72403(3)
Zn5 Zn 0.5000 0.5000 0.77597(3)
C5_2 C -0.0000 1.0000 0.9626(3)
C7 C 0.1378(9) 0.8987(8) 0.9269(2)
H3 H 0.2335 0.8330 0.9493
C10 C 0.1295(8) 0.8978(7) 0.8574(2)
C13 C 0.2553(7) 0.7810(7) 0.8119(2)
N2_2 N 0.0000 1.0000 0.8248(3)
O4 O 0.3654(6) 0.6639(6) 0.83965(15)
O11 O 0.2359(6) 0.8058(5) 0.75045(15)
Zn1_3 Zn 1.0000 -0.0000 0.27597(3)
C1_3 C 1.0000 -0.0000 0.0374(3)
N1_3 N 1.0000 -0.0000 0.1752(3)
C8 C 0.8987(8) 0.1378(9) 0.0731(2)
H4 H 0.8330 0.2335 0.0507
C11 C 0.8978(7) 0.1295(8) 0.1426(2)
C14 C 0.7810(7) 0.2553(7) 0.1881(2)
O5 O 0.6639(6) 0.3654(6) 0.16035(15)
O12 O 0.8058(5) 0.2359(6) 0.24955(15)
Zn2_3 Zn 1.0000 -0.0000 0.72403(3)
C5_3 C 1.0000 -0.0000 0.9626(3)
C6 C 0.8622(9) 0.1013(8) 0.9269(2)
H2 H 0.7665 0.1670 0.9493
C9 C 0.8705(8) 0.1022(7) 0.8574(2)
C12 C 0.7447(7) 0.2190(7) 0.8119(2)
N2_3 N 1.0000 -0.0000 0.8248(3)
O3 O 0.6346(6) 0.3361(6) 0.83965(15)
O10 O 0.7641(6) 0.1942(5) 0.75045(15)
Zn1_4 Zn 1.0000 1.0000 0.27597(3)
C1_4 C 1.0000 1.0000 0.0374(3)
N1_4 N 1.0000 1.0000 0.1752(3)
O6 O 0.8361(6) 0.8654(6) 0.33965(15)
Zn2_4 Zn 1.0000 1.0000 0.72403(3)
C5_4 C 1.0000 1.0000 0.9626(3)
N2_4 N 1.0000 1.0000 0.8248(3)
O8 O 0.8654(6) 0.8361(6) 0.66035(15)
C1_5 C 0.5000 0.5000 0.5374(3)
C2_2 C 0.6378(9) 0.6013(8) 0.5731(2)
H1_2 H 0.7335 0.6670 0.5507
C3_2 C 0.6295(8) 0.6022(7) 0.6426(2)
C4_2 C 0.7553(7) 0.7190(7) 0.6881(2)
N1_5 N 0.5000 0.5000 0.6752(3)
O2_2 O 0.7359(6) 0.6942(5) 0.74955(15)
C5_5 C 0.5000 0.5000 0.4626(3)
C6_2 C 0.3987(8) 0.3622(9) 0.4269(2)
C7_2 C 0.6013(8) 0.6378(9) 0.4269(2)
C8_2 C 0.3622(9) 0.3987(8) 0.5731(2)
H2_2 H 0.3330 0.2665 0.4493
H3_2 H 0.6670 0.7335 0.4493
H4_2 H 0.2665 0.3330 0.5507
C9_2 C 0.3978(7) 0.3705(8) 0.3574(2)
C10_2 C 0.6022(7) 0.6295(8) 0.3574(2)
C11_2 C 0.3705(8) 0.3978(7) 0.6426(2)
C12_2 C 0.2810(7) 0.2447(7) 0.3119(2)
C13_2 C 0.7190(7) 0.7553(7) 0.3119(2)
C14_2 C 0.2447(7) 0.2810(7) 0.6881(2)
N2_5 N 0.5000 0.5000 0.3248(3)
O10_2 O 0.3058(5) 0.2641(6) 0.25045(15)
O11_2 O 0.6942(5) 0.7359(6) 0.25045(15)
O12_2 O 0.2641(6) 0.3058(5) 0.74955(15)
loop_
_geom_bond_atom_site_label_1
_geom_bond_atom_site_label_2
_geom_bond_site_symmetry_1
_geom_bond_site_symmetry_2
Zn1 N1 1_555 1_555
O7 Zn1 1_555 1_555
Zn2 N2 1_555 1_555
O9 Zn2 1_555 1_555
Zn1_2 N1_2 1_555 1_555
C1_2 C2 1_555 1_555
C2 H1 1_555 1_555
C3 C2 1_555 1_555
C4 C3 1_555 1_555
N1_2 C3 1_555 1_555
O1 C4 1_555 1_555
O2 Zn1_2 1_555 1_555
Zn3 O1 1_555 1_555
C4 O2 1_555 1_555
Zn2_2 N2_2 1_555 1_555
Zn5 O4 1_555 1_555
C7 C5_2 1_555 1_555
H3 C7 1_555 1_555
C10 C7 1_555 1_555
C13 C10 1_555 1_555
O4 C13 1_555 1_555
O11 Zn2_2 1_555 1_555
C10 N2_2 1_555 1_555
C13 O11 1_555 1_555
Zn1_3 N1_3 1_555 1_555
Zn3 O5 1_555 1_555
C8 C1_3 1_555 1_555
H4 C8 1_555 1_555
C11 N1_3 1_555 1_555
C14 C11 1_555 1_555
O5 C14 1_555 1_555
O12 Zn1_3 1_555 1_555
C8 C11 1_555 1_555
C14 O12 1_555 1_555
Zn2_3 N2_3 1_555 1_555
Zn5 O3 1_555 1_555
C6 C5_3 1_555 1_555
H2 C6 1_555 1_555
C9 C6 1_555 1_555
C12 C9 1_555 1_555
N2_3 C9 1_555 1_555
O3 C12 1_555 1_555
O10 Zn2_3 1_555 1_555
C12 O10 1_555 1_555
Zn1_4 N1_4 1_555 1_555
O6 Zn1_4 1_555 1_555
Zn2_4 N2_4 1_555 1_555
O8 Zn2_4 1_555 1_555
Zn5 N1_5 1_555 1_555
C1_5 C2_2 1_555 1_555
C2_2 H1_2 1_555 1_555
C3_2 C2_2 1_555 1_555
C4_2 C3_2 1_555 1_555
N1_5 C3_2 1_555 1_555
O8 C4_2 1_555 1_555
O2_2 Zn5 1_555 1_555
Zn3 N2_5 1_555 1_555
C5_5 C1_5 1_555 1_555
C6_2 C5_5 1_555 1_555
C7_2 C5_5 1_555 1_555
C8_2 C1_5 1_555 1_555
H2_2 C6_2 1_555 1_555
H3_2 C7_2 1_555 1_555
H4_2 C8_2 1_555 1_555
C9_2 C6_2 1_555 1_555
C10_2 C7_2 1_555 1_555
C11_2 N1_5 1_555 1_555
C12_2 C9_2 1_555 1_555
C13_2 C10_2 1_555 1_555
C14_2 C11_2 1_555 1_555
N2_5 C9_2 1_555 1_555
O7 C12_2 1_555 1_555
O6 C13_2 1_555 1_555
O9 C14_2 1_555 1_555
O10_2 Zn3 1_555 1_555
O11_2 Zn3 1_555 1_555
O12_2 Zn5 1_555 1_555
C4_2 O2_2 1_555 1_555
C8_2 C11_2 1_555 1_555
C10_2 N2_5 1_555 1_555
C12_2 O10_2 1_555 1_555
C13_2 O11_2 1_555 1_555
C14_2 O12_2 1_555 1_555

#END
