
###############################################################################
#
# This file contains modified crystal structure data generated from the
# MOF subset of the Cambridge Structural Database (CSD) v543 
# hosted by the Cambridge Crystallographic Data Centre (CCDC).
#
# This work is licensed under the Creative Commons
# Attribution-NonCommercial-ShareAlike 4.0 International License.
# To view a copy of this license, visit
# http://creativecommons.org/licenses/by-nc-sa/4.0/
# or send a letter to
# Creative Commons, PO Box 1866, Mountain View, CA 94042, USA.
#
# CIF created using the CSD Python API on 29 September 2022
# The structure has been converted into the P1 space group
# The structure has a 3D framework
# The original CSD entry HENYUX is in the orthorhombic crystal system
# The framework has been calculated to contain at least 10.0% void space
# The void calculation uses a probe of radius 1.32A, grid spacing 0.4
# H atom positions have been added when not included in the experimental data
#
###############################################################################

data_HENYUX
_chemical_formula_moiety         '(C280 H224 Ca14 N16 O88)n'
_symmetry_cell_setting           triclinic
_symmetry_space_group_name_H-M   'P 1'
_symmetry_Int_Tables_number      1
_space_group_name_Hall           'P 1'
loop_
_symmetry_equiv_pos_site_id
_symmetry_equiv_pos_as_xyz
1 x,y,z
_cell_length_a                   21.399(4)
_cell_length_b                   17.521(4)
_cell_length_c                   21.432(4)
_cell_angle_alpha                90
_cell_angle_beta                 90
_cell_angle_gamma                90
_cell_volume                     8035.54
loop_
_atom_site_label
_atom_site_type_symbol
_atom_site_fract_x
_atom_site_fract_y
_atom_site_fract_z
Ca2 Ca 0.41250(3) 0.20929(4) 0.50537(3)
O1 O 0.38461(11) 0.32156(14) 0.43862(10)
O3 O 0.33746(13) 0.21182(15) 0.42015(13)
O5 O 0.02538(11) 0.49646(14) 0.06819(10)
O6 O 0.01299(12) 0.37246(15) 0.07116(12)
O8 O 0.50250(16) 0.2165(2) 0.44117(17)
O9 O 0.3976(3) 0.0815(2) 0.5066(3)
O10 O 0.33470(11) 0.23955(15) 0.06676(12)
O11 O 0.34157(12) 0.11233(16) 0.05853(12)
C1 C 0.34350(16) 0.2822(2) 0.41134(15)
C3 C 0.31759(15) 0.1720(2) 0.07922(15)
C4 C 0.26408(15) 0.1640(2) 0.12506(15)
C5 C 0.23760(17) 0.0932(2) 0.13633(18)
H1 H 0.2517 0.0502 0.1133
C6 C 0.03815(15) 0.4322(2) 0.09050(14)
C7 C 0.08534(14) 0.42633(19) 0.14240(14)
C8 C 0.11282(17) 0.4923(2) 0.16634(16)
H2 H 0.1007 0.5408 0.1505
C9 C 0.15783(19) 0.4879(2) 0.21326(18)
H3 H 0.1765 0.5329 0.2296
C10 C 0.17472(16) 0.4165(2) 0.23564(16)
C11 C 0.10176(14) 0.35470(18) 0.16615(13)
H4 H 0.0829 0.3096 0.1503
C12 C 0.14577(14) 0.35064(18) 0.21303(13)
C13 C 0.17068(13) 0.27937(18) 0.24592(13)
C14 C 0.22095(16) 0.3940(2) 0.28278(16)
C15 C 0.21930(14) 0.31474(19) 0.28939(14)
C16 C 0.2628(2) 0.4375(2) 0.31752(19)
H5 H 0.2640 0.4914 0.3133
C17 C 0.30270(19) 0.4004(2) 0.35841(19)
H6 H 0.3320 0.4294 0.3819
C18 C 0.30067(15) 0.3216(2) 0.36574(15)
C19 C 0.25839(14) 0.2777(2) 0.33121(14)
H7 H 0.2565 0.2238 0.3363
C20 C 0.12191(13) 0.23332(18) 0.28143(13)
C21 C 0.08066(14) 0.2582(2) 0.32668(14)
H8 H 0.0787 0.3107 0.3376
C22 C 0.04202(15) 0.2052(2) 0.35603(15)
C23 C 0.04463(17) 0.1280(2) 0.33930(17)
H9 H 0.0183 0.0922 0.3598
C24 C 0.08526(18) 0.1033(2) 0.29317(18)
H10 H 0.0867 0.0510 0.2817
C25 C 0.12403(15) 0.1563(2) 0.26384(15)
C26 C 0.17102(15) 0.14751(19) 0.21441(16)
C27 C 0.19070(19) 0.0839(2) 0.18075(19)
H11 H 0.1725 0.0352 0.1879
C28 C 0.19782(14) 0.21920(19) 0.20275(14)
C29 C 0.24358(14) 0.22834(19) 0.15788(14)
H12 H 0.2608 0.2773 0.1495
C33 C 0.3623(5) 0.0295(4) 0.4959(7)
Ca5 Ca 0.43163(3) 0.41499(4) 0.49912(3)
Ca8 Ca 0.41250(3) 0.29071(4) 0.00537(3)
O13 O 0.47397(11) 0.31651(14) 0.55763(11)
O15 O 0.48643(12) 0.19810(15) 0.59007(12)
O17 O 0.33470(11) 0.26045(15) 0.56676(12)
H13 H 0.522908 0.26692 0.446871
H14 H 0.532165 0.175363 0.452935
H25 H 0.313479 0.0393575 0.507764
Ca3 Ca 0.43163(3) 0.08501(4) 0.99912(3)
Ca4 Ca 0.06837(3) 0.58501(4) 0.99912(3)
Ca1 Ca 0.93163(3) 0.41499(4) 0.00088(3)
O2 O 0.97397(11) 0.18349(14) 0.44237(11)
O4 O 0.98643(12) 0.30190(15) 0.40993(12)
O7 O 0.87347(11) 0.51784(14) 0.03710(12)
N1 N 0.82474(19) 0.6272(2) 0.0071(2)
C2 C 0.99788(15) 0.2326(2) 0.40603(15)
C30 C 0.8717(2) 0.5883(2) 0.03089(18)
C31 C 0.8256(4) 0.7109(3) 0.0040(3)
Ca6 Ca 0.93163(3) 0.08501(4) 0.50088(3)
Ca7 Ca 0.91250(3) 0.29071(4) 0.49463(3)
O12 O 0.88461(11) 0.32156(14) 0.06138(10)
H15 H 0.912331 0.62056 0.0463974
H19 H 0.750577 0.554154 0.013599
H24 H 0.829769 0.734178 0.0509296
C32 C 0.7733(4) 0.5908(4) 0.9794(8)
O14 O 0.97397(11) 0.31651(14) 0.94237(11)
O16 O 0.97462(11) 0.50354(14) 0.93181(10)
O18 O 0.84157(12) 0.38767(16) 0.94147(12)
H20 H 0.740246 0.633575 0.962974
H21 H 0.789174 0.556436 0.940139
H22 H 0.865242 0.729481 0.975991
H23 H 0.782428 0.731127 0.98278
Ca2_2 Ca 0.08750(3) 0.79071(4) 0.00537(3)
O9_2 O 0.1024(3) 0.9185(2) 0.0066(3)
Ca6_2 Ca 0.56837(3) 0.91499(4) 0.00088(3)
O13_2 O 0.02603(11) 0.68349(14) 0.05763(11)
O15_2 O 0.01357(12) 0.80190(15) 0.09007(12)
O17_2 O 0.16530(11) 0.73955(15) 0.06676(12)
H25_2 H 0.186521 0.960643 0.00776376
Ca1_2 Ca 0.56837(3) 0.58501(4) 0.50088(3)
O1_2 O 0.11539(11) 0.67844(14) 0.93862(10)
O2_2 O 0.52603(11) 0.81651(14) 0.94237(11)
O3_2 O 0.16254(13) 0.78818(15) 0.92015(13)
O4_2 O 0.51357(12) 0.69810(15) 0.90993(12)
O5_2 O 0.47462(11) 0.50354(14) 0.56819(10)
O6_2 O 0.48701(12) 0.62754(15) 0.57116(12)
O7_2 O 0.62653(11) 0.48216(14) 0.53710(12)
O10_2 O 0.16530(11) 0.76045(15) 0.56676(12)
O11_2 O 0.15843(12) 0.88767(16) 0.55853(12)
N1_2 N 0.67526(19) 0.3728(2) 0.5071(2)
C1_2 C 0.15650(16) 0.7178(2) 0.91134(15)
C2_2 C 0.50212(15) 0.7674(2) 0.90603(15)
C3_2 C 0.18241(15) 0.8280(2) 0.57922(15)
C4_2 C 0.23592(15) 0.8360(2) 0.62506(15)
C5_2 C 0.26240(17) 0.9068(2) 0.63633(18)
H1_2 H 0.2483 0.9498 0.6133
C6_2 C 0.46185(15) 0.5678(2) 0.59050(14)
C7_2 C 0.41466(14) 0.57367(19) 0.64240(14)
C8_2 C 0.38718(17) 0.5077(2) 0.66634(16)
H2_2 H 0.3993 0.4592 0.6505
C9_2 C 0.34217(19) 0.5121(2) 0.71326(18)
H3_2 H 0.3235 0.4671 0.7296
C10_2 C 0.32528(16) 0.5835(2) 0.73564(16)
C11_2 C 0.39824(14) 0.64530(18) 0.66615(13)
H4_2 H 0.4171 0.6904 0.6503
C12_2 C 0.35423(14) 0.64936(18) 0.71303(13)
C13_2 C 0.32932(13) 0.72063(18) 0.74592(13)
C14_2 C 0.27905(16) 0.6060(2) 0.78278(16)
C15_2 C 0.28070(14) 0.68526(19) 0.78939(14)
C16_2 C 0.2372(2) 0.5625(2) 0.81752(19)
H5_2 H 0.2360 0.5086 0.8133
C17_2 C 0.19730(19) 0.5996(2) 0.85841(19)
H6_2 H 0.1680 0.5706 0.8819
C18_2 C 0.19933(15) 0.6784(2) 0.86574(15)
C19_2 C 0.24161(14) 0.7223(2) 0.83121(14)
H7_2 H 0.2435 0.7762 0.8363
C20_2 C 0.37809(13) 0.76668(18) 0.78143(13)
C21_2 C 0.41934(14) 0.7418(2) 0.82668(14)
H8_2 H 0.4213 0.6893 0.8376
C22_2 C 0.45798(15) 0.7948(2) 0.85603(15)
C23_2 C 0.45537(17) 0.8720(2) 0.83930(17)
H9_2 H 0.4817 0.9078 0.8598
C24_2 C 0.41474(18) 0.8967(2) 0.79317(18)
H10_2 H 0.4133 0.9490 0.7817
C25_2 C 0.37597(15) 0.8437(2) 0.76384(15)
C26_2 C 0.32898(15) 0.85249(19) 0.71441(16)
C27_2 C 0.30930(19) 0.9161(2) 0.68075(19)
H11_2 H 0.3275 0.9648 0.6879
C28_2 C 0.30218(14) 0.78080(19) 0.70275(14)
C29_2 C 0.25642(14) 0.77166(19) 0.65788(14)
H12_2 H 0.2392 0.7227 0.6495
C30_2 C 0.6283(2) 0.4117(2) 0.53089(18)
C31_2 C 0.6744(4) 0.2891(3) 0.5040(3)
C32_2 C 0.7267(4) 0.4092(4) 0.4794(8)
C33_2 C 0.1377(5) 0.9705(4) 0.9959(7)
Ca3_2 Ca 0.06837(3) 0.91499(4) 0.49912(3)
Ca7_2 Ca 0.58750(3) 0.70929(4) 0.99463(3)
Ca8_2 Ca 0.08750(3) 0.70929(4) 0.50537(3)
O12_2 O 0.61539(11) 0.67844(14) 0.56138(10)
O14_2 O 0.52603(11) 0.68349(14) 0.44237(11)
O16_2 O 0.52538(11) 0.49646(14) 0.43181(10)
O18_2 O 0.65843(12) 0.61233(16) 0.44147(12)
H15_2 H 0.587669 0.37944 0.546397
H19_2 H 0.749423 0.445846 0.513599
H20_2 H 0.759754 0.366425 0.462974
H21_2 H 0.710826 0.443564 0.440139
H22_2 H 0.634758 0.270519 0.475991
H23_2 H 0.717572 0.268873 0.48278
H24_2 H 0.670231 0.265822 0.55093
O7_3 O 0.12653(11) 0.01784(14) 0.46290(12)
N1_3 N 0.17526(19) 0.1272(2) 0.4929(2)
C30_3 C 0.1283(2) 0.0883(2) 0.46911(18)
C31_3 C 0.1744(4) 0.2109(3) 0.4960(3)
C32_3 C 0.2267(4) 0.0908(4) 0.5206(8)
O16_3 O 0.02538(11) 0.00354(14) 0.56819(10)
H15_3 H 0.0876688 0.12056 0.453603
H19_3 H 0.249423 0.0541536 0.486401
H20_3 H 0.259754 0.133575 0.537026
H21_3 H 0.210826 0.0564356 0.559861
H22_3 H 0.134758 0.229481 0.524009
H23_3 H 0.217572 0.231127 0.51722
H24_3 H 0.170231 0.234178 0.44907
C2_3 C 0.00212(15) 0.7326(2) 0.09397(15)
O12_3 O 0.11539(11) 0.82156(14) 0.43862(10)
O14_3 O 0.02603(11) 0.81651(14) 0.55763(11)
H2_3 H 0.8993 0.0408 0.3495
H3_3 H 0.8235 0.0329 0.2704
O1_3 O 0.61539(11) 0.82156(14) 0.06138(10)
O3_3 O 0.66254(13) 0.71182(15) 0.07985(13)
O5_3 O 0.97462(11) 0.99646(14) 0.43181(10)
O6_3 O 0.98701(12) 0.87246(15) 0.42884(12)
O8_2 O 0.49750(16) 0.7165(2) 0.05883(17)
O10_3 O 0.66530(11) 0.73955(15) 0.43324(12)
N2 N 0.6248(4) 0.4629(3) 0.0281(5)
C1_3 C 0.65650(16) 0.7822(2) 0.08866(15)
C3_3 C 0.68241(15) 0.6720(2) 0.42078(15)
C4_3 C 0.73592(15) 0.6640(2) 0.37494(15)
C5_3 C 0.76240(17) 0.5932(2) 0.36367(18)
H1_3 H 0.7483 0.5502 0.3867
C6_3 C 0.96185(15) 0.9322(2) 0.40950(14)
C7_3 C 0.91466(14) 0.92633(19) 0.35760(14)
C8_3 C 0.88718(17) 0.9923(2) 0.33366(16)
C9_3 C 0.84217(19) 0.9879(2) 0.28674(18)
C10_3 C 0.82528(16) 0.9165(2) 0.26436(16)
C11_3 C 0.89824(14) 0.85470(18) 0.33385(13)
H4_3 H 0.9171 0.8096 0.3497
C12_3 C 0.85423(14) 0.85064(18) 0.28697(13)
C13_3 C 0.82932(13) 0.77937(18) 0.25408(13)
C14_3 C 0.77905(16) 0.8940(2) 0.21722(16)
C15_3 C 0.78070(14) 0.81474(19) 0.21061(14)
C16_3 C 0.7372(2) 0.9375(2) 0.18248(19)
H5_3 H 0.7360 0.9914 0.1867
C17_3 C 0.69730(19) 0.9004(2) 0.14159(19)
H6_3 H 0.6680 0.9294 0.1181
C18_3 C 0.69933(15) 0.8216(2) 0.13426(15)
C19_3 C 0.74161(14) 0.7777(2) 0.16879(14)
H7_3 H 0.7435 0.7238 0.1637
C20_3 C 0.87809(13) 0.73332(18) 0.21857(13)
C21_3 C 0.91934(14) 0.7582(2) 0.17332(14)
H8_3 H 0.9213 0.8107 0.1624
C22_3 C 0.95798(15) 0.7052(2) 0.14397(15)
C23_3 C 0.95537(17) 0.6280(2) 0.16070(17)
H9_3 H 0.9817 0.5922 0.1402
C24_3 C 0.91474(18) 0.6033(2) 0.20683(18)
H10_3 H 0.9133 0.5510 0.2183
C25_3 C 0.87597(15) 0.6563(2) 0.23616(15)
C26_3 C 0.82898(15) 0.64751(19) 0.28559(16)
C27_3 C 0.80930(19) 0.5839(2) 0.31925(19)
H11_3 H 0.8275 0.5352 0.3121
C28_3 C 0.80218(14) 0.71920(19) 0.29725(14)
C29_3 C 0.75642(14) 0.72834(19) 0.34212(14)
H12_3 H 0.7392 0.7773 0.3505
C33_3 C 0.6377(5) 0.5295(4) 0.0041(7)
C34 C 0.6722(7) 0.4076(6) 0.0452(9)
Ca8_3 Ca 0.58750(3) 0.79071(4) 0.49463(3)
H13_2 H 0.477092 0.76692 0.0531292
H14_2 H 0.467835 0.675363 0.0470646
H16 H 0.703035 0.432239 0.0802469
H17 H 0.649853 0.356782 0.0641214
H18 H 0.699316 0.392242 0.00407609
H27 H 0.570918 0.36457 0.00358791
O9_3 O 0.6024(3) 0.5815(2) 0.9934(3)
C35 C 0.5820(8) 0.4203(5) 0.9840(9)
O17_3 O 0.66530(11) 0.76045(15) 0.93324(12)
H25_3 H 0.686521 0.539357 0.992236
H26 H 0.605205 0.412951 0.939179
H28 H 0.539072 0.452717 0.977492
O14_4 O 0.47397(11) 0.18349(14) 0.05763(11)
O1_4 O 0.88461(11) 0.17844(14) 0.56138(10)
O3_4 O 0.83746(13) 0.28818(15) 0.57985(13)
O5_4 O 0.52538(11) 0.00354(14) 0.93181(10)
O6_4 O 0.51299(12) 0.12754(15) 0.92884(12)
O9_4 O 0.8976(3) 0.4185(2) 0.4934(3)
O10_4 O 0.83470(11) 0.26045(15) 0.93324(12)
N2_2 N 0.8752(4) 0.5371(3) 0.5281(5)
C1_4 C 0.84350(16) 0.2178(2) 0.58866(15)
C2_4 C 0.49788(15) 0.2674(2) 0.59397(15)
C3_4 C 0.81759(15) 0.3280(2) 0.92078(15)
C4_4 C 0.76408(15) 0.3360(2) 0.87494(15)
C5_4 C 0.73760(17) 0.4068(2) 0.86367(18)
H1_4 H 0.7517 0.4498 0.8867
C6_4 C 0.53815(15) 0.0678(2) 0.90950(14)
C7_4 C 0.58534(14) 0.07367(19) 0.85760(14)
C8_4 C 0.61282(17) 0.0077(2) 0.83366(16)
C9_4 C 0.65783(19) 0.0121(2) 0.78674(18)
C10_4 C 0.67472(16) 0.0835(2) 0.76436(16)
C11_4 C 0.60176(14) 0.14530(18) 0.83385(13)
H4_4 H 0.5829 0.1904 0.8497
C12_4 C 0.64577(14) 0.14936(18) 0.78697(13)
C13_4 C 0.67068(13) 0.22063(18) 0.75408(13)
C14_4 C 0.72095(16) 0.1060(2) 0.71722(16)
C15_4 C 0.71930(14) 0.18526(19) 0.71061(14)
C16_4 C 0.7628(2) 0.0625(2) 0.68248(19)
H5_4 H 0.7640 0.0086 0.6867
C17_4 C 0.80270(19) 0.0996(2) 0.64159(19)
H6_4 H 0.8320 0.0706 0.6181
C18_4 C 0.80067(15) 0.1784(2) 0.63426(15)
C19_4 C 0.75839(14) 0.2223(2) 0.66879(14)
H7_4 H 0.7565 0.2762 0.6637
C20_4 C 0.62191(13) 0.26668(18) 0.71857(13)
C21_4 C 0.58066(14) 0.2418(2) 0.67332(14)
H8_4 H 0.5787 0.1893 0.6624
C22_4 C 0.54202(15) 0.2948(2) 0.64397(15)
C23_4 C 0.54463(17) 0.3720(2) 0.66070(17)
H9_4 H 0.5183 0.4078 0.6402
C24_4 C 0.58526(18) 0.3967(2) 0.70683(18)
H10_4 H 0.5867 0.4490 0.7183
C25_4 C 0.62403(15) 0.3437(2) 0.73616(15)
C26_4 C 0.67102(15) 0.35249(19) 0.78559(16)
C27_4 C 0.69070(19) 0.4161(2) 0.81925(19)
H11_4 H 0.6725 0.4648 0.8121
C28_4 C 0.69782(14) 0.28080(19) 0.79725(14)
C29_4 C 0.74358(14) 0.27166(19) 0.84212(14)
H12_4 H 0.7608 0.2227 0.8505
C33_4 C 0.8623(5) 0.4705(4) 0.5041(7)
C34_2 C 0.8278(7) 0.5924(6) 0.5452(9)
C35_2 C 0.9180(8) 0.5797(5) 0.4840(9)
Ca8_4 Ca 0.91250(3) 0.20929(4) 0.99463(3)
O12_4 O 0.38461(11) 0.17844(14) 0.93862(10)
O17_4 O 0.83470(11) 0.23955(15) 0.43324(12)
H16_2 H 0.796965 0.567761 0.580247
H17_2 H 0.850147 0.643218 0.564121
H18_2 H 0.800684 0.607758 0.504076
H25_4 H 0.813479 0.460643 0.492236
H26_2 H 0.894795 0.587049 0.439179
H27_2 H 0.929082 0.63543 0.503588
H28_2 H 0.960928 0.547283 0.477492
C32_4 C 0.2733(4) 0.9092(4) 0.0206(8)
O16_4 O 0.47462(11) 0.99646(14) 0.06819(10)
H20_4 H 0.240246 0.866425 0.0370256
H21_4 H 0.289174 0.943564 0.0598606
H22_4 H 0.365242 0.770519 0.0240086
H23_4 H 0.282428 0.768873 0.0172204
C32_5 C 0.2267(4) 0.4092(4) 0.0206(8)
O18_3 O 0.15843(12) 0.61233(16) 0.05853(12)
H20_5 H 0.259754 0.366425 0.0370256
H21_5 H 0.210826 0.443564 0.0598606
H22_5 H 0.134758 0.270519 0.0240086
H23_5 H 0.217572 0.268873 0.0172204
O4_3 O 0.01357(12) 0.69810(15) 0.59007(12)
O7_4 O 0.12653(11) 0.48216(14) 0.96290(12)
N1_4 N 0.17526(19) 0.3728(2) 0.9929(2)
C2_5 C 0.00212(15) 0.7674(2) 0.59397(15)
C30_4 C 0.1283(2) 0.4117(2) 0.96911(18)
C31_4 C 0.1744(4) 0.2891(3) 0.9960(3)
H15_4 H 0.0876688 0.37944 0.953603
H19_4 H 0.249423 0.445846 0.986401
H24_4 H 0.170231 0.265822 0.94907
O3_5 O 0.66254(13) 0.78818(15) 0.57985(13)
O6_5 O 0.98701(12) 0.62754(15) 0.92884(12)
O8_3 O 0.49750(16) 0.7835(2) 0.55883(17)
O9_5 O 0.6024(3) 0.9185(2) 0.4934(3)
O11_3 O 0.65843(12) 0.88767(16) 0.94147(12)
C1_5 C 0.65650(16) 0.7178(2) 0.58866(15)
C3_5 C 0.68241(15) 0.8280(2) 0.92078(15)
C4_5 C 0.73592(15) 0.8360(2) 0.87494(15)
C5_5 C 0.76240(17) 0.9068(2) 0.86367(18)
H1_5 H 0.7483 0.9498 0.8867
C6_5 C 0.96185(15) 0.5678(2) 0.90950(14)
C7_5 C 0.91466(14) 0.57367(19) 0.85760(14)
C8_5 C 0.88718(17) 0.5077(2) 0.83366(16)
H2_4 H 0.8993 0.4592 0.8495
C9_5 C 0.84217(19) 0.5121(2) 0.78674(18)
H3_4 H 0.8235 0.4671 0.7704
C10_5 C 0.82528(16) 0.5835(2) 0.76436(16)
C11_5 C 0.89824(14) 0.64530(18) 0.83385(13)
H4_5 H 0.9171 0.6904 0.8497
C12_5 C 0.85423(14) 0.64936(18) 0.78697(13)
C13_5 C 0.82932(13) 0.72063(18) 0.75408(13)
C14_5 C 0.77905(16) 0.6060(2) 0.71722(16)
C15_5 C 0.78070(14) 0.68526(19) 0.71061(14)
C16_5 C 0.7372(2) 0.5625(2) 0.68248(19)
H5_5 H 0.7360 0.5086 0.6867
C17_5 C 0.69730(19) 0.5996(2) 0.64159(19)
H6_5 H 0.6680 0.5706 0.6181
C18_5 C 0.69933(15) 0.6784(2) 0.63426(15)
C19_5 C 0.74161(14) 0.7223(2) 0.66879(14)
H7_5 H 0.7435 0.7762 0.6637
C20_5 C 0.87809(13) 0.76668(18) 0.71857(13)
C21_5 C 0.91934(14) 0.7418(2) 0.67332(14)
H8_5 H 0.9213 0.6893 0.6624
C22_5 C 0.95798(15) 0.7948(2) 0.64397(15)
C23_5 C 0.95537(17) 0.8720(2) 0.66070(17)
H9_5 H 0.9817 0.9078 0.6402
C24_5 C 0.91474(18) 0.8967(2) 0.70683(18)
H10_5 H 0.9133 0.9490 0.7183
C25_5 C 0.87597(15) 0.8437(2) 0.73616(15)
C26_5 C 0.82898(15) 0.85249(19) 0.78559(16)
C27_5 C 0.80930(19) 0.9161(2) 0.81925(19)
H11_5 H 0.8275 0.9648 0.8121
C28_5 C 0.80218(14) 0.78080(19) 0.79725(14)
C29_5 C 0.75642(14) 0.77166(19) 0.84212(14)
H12_5 H 0.7392 0.7227 0.8505
C33_5 C 0.6377(5) 0.9705(4) 0.5041(7)
O15_3 O 0.51357(12) 0.80190(15) 0.40993(12)
H13_3 H 0.477092 0.73308 0.553129
H14_3 H 0.467835 0.824637 0.547065
H25_5 H 0.686521 0.960643 0.492236
O3_6 O 0.83746(13) 0.21182(15) 0.07985(13)
O4_4 O 0.48643(12) 0.30190(15) 0.09007(12)
O6_6 O 0.51299(12) 0.37246(15) 0.42884(12)
O7_5 O 0.37347(11) 0.51784(14) 0.46290(12)
O11_4 O 0.84157(12) 0.11233(16) 0.44147(12)
N1_5 N 0.32474(19) 0.6272(2) 0.4929(2)
C1_6 C 0.84350(16) 0.2822(2) 0.08866(15)
C2_6 C 0.49788(15) 0.2326(2) 0.09397(15)
C3_6 C 0.81759(15) 0.1720(2) 0.42078(15)
C4_6 C 0.76408(15) 0.1640(2) 0.37494(15)
C5_6 C 0.73760(17) 0.0932(2) 0.36367(18)
H1_6 H 0.7517 0.0502 0.3867
C6_6 C 0.53815(15) 0.4322(2) 0.40950(14)
C7_6 C 0.58534(14) 0.42633(19) 0.35760(14)
C8_6 C 0.61282(17) 0.4923(2) 0.33366(16)
H2_5 H 0.6007 0.5408 0.3495
C9_6 C 0.65783(19) 0.4879(2) 0.28674(18)
H3_5 H 0.6765 0.5329 0.2704
C10_6 C 0.67472(16) 0.4165(2) 0.26436(16)
C11_6 C 0.60176(14) 0.35470(18) 0.33385(13)
H4_6 H 0.5829 0.3096 0.3497
C12_6 C 0.64577(14) 0.35064(18) 0.28697(13)
C13_6 C 0.67068(13) 0.27937(18) 0.25408(13)
C14_6 C 0.72095(16) 0.3940(2) 0.21722(16)
C15_6 C 0.71930(14) 0.31474(19) 0.21061(14)
C16_6 C 0.7628(2) 0.4375(2) 0.18248(19)
H5_6 H 0.7640 0.4914 0.1867
C17_6 C 0.80270(19) 0.4004(2) 0.14159(19)
H6_6 H 0.8320 0.4294 0.1181
C18_6 C 0.80067(15) 0.3216(2) 0.13426(15)
C19_6 C 0.75839(14) 0.2777(2) 0.16879(14)
H7_6 H 0.7565 0.2238 0.1637
C20_6 C 0.62191(13) 0.23332(18) 0.21857(13)
C21_6 C 0.58066(14) 0.2582(2) 0.17332(14)
H8_6 H 0.5787 0.3107 0.1624
C22_6 C 0.54202(15) 0.2052(2) 0.14397(15)
C23_6 C 0.54463(17) 0.1280(2) 0.16070(17)
H9_6 H 0.5183 0.0922 0.1402
C24_6 C 0.58526(18) 0.1033(2) 0.20683(18)
H10_6 H 0.5867 0.0510 0.2183
C25_6 C 0.62403(15) 0.1563(2) 0.23616(15)
C26_6 C 0.67102(15) 0.14751(19) 0.28559(16)
C27_6 C 0.69070(19) 0.0839(2) 0.31925(19)
H11_6 H 0.6725 0.0352 0.3121
C28_6 C 0.69782(14) 0.21920(19) 0.29725(14)
C29_6 C 0.74358(14) 0.22834(19) 0.34212(14)
H12_6 H 0.7608 0.2773 0.3505
C30_5 C 0.3717(2) 0.5883(2) 0.46911(18)
C31_5 C 0.3256(4) 0.7109(3) 0.4960(3)
C32_6 C 0.2733(4) 0.5908(4) 0.5206(8)
C33_6 C 0.8623(5) 0.0295(4) 0.0041(7)
O18_4 O 0.34157(12) 0.38767(16) 0.55853(12)
H15_5 H 0.412331 0.62056 0.453603
H19_5 H 0.250577 0.554154 0.486401
H20_6 H 0.240246 0.633575 0.537026
H21_6 H 0.289174 0.556436 0.559861
H22_6 H 0.365242 0.729481 0.524009
H23_6 H 0.282428 0.731127 0.51722
H24_5 H 0.329769 0.734178 0.44907
O9_6 O 0.8976(3) 0.0815(2) 0.9934(3)
O15_4 O 0.98643(12) 0.19810(15) 0.90993(12)
H25_6 H 0.813479 0.0393575 0.992236
O9_7 O 0.3976(3) 0.4185(2) 0.0066(3)
C35_3 C 0.4180(8) 0.5797(5) 0.0160(9)
H25_7 H 0.313479 0.460643 0.00776376
H26_3 H 0.394795 0.587049 0.0608212
H28_3 H 0.460928 0.547283 0.0225077
O3_7 O 0.33746(13) 0.28818(15) 0.92015(13)
O6_7 O 0.01299(12) 0.12754(15) 0.57116(12)
O8_4 O 0.50250(16) 0.2835(2) 0.94117(17)
N2_3 N 0.3752(4) 0.5371(3) 0.9719(5)
C1_7 C 0.34350(16) 0.2178(2) 0.91134(15)
C3_7 C 0.31759(15) 0.3280(2) 0.57922(15)
C4_7 C 0.26408(15) 0.3360(2) 0.62506(15)
C5_7 C 0.23760(17) 0.4068(2) 0.63633(18)
H1_7 H 0.2517 0.4498 0.6133
C6_7 C 0.03815(15) 0.0678(2) 0.59050(14)
C7_7 C 0.08534(14) 0.07367(19) 0.64240(14)
C8_7 C 0.11282(17) 0.0077(2) 0.66634(16)
C9_7 C 0.15783(19) 0.0121(2) 0.71326(18)
C10_7 C 0.17472(16) 0.0835(2) 0.73564(16)
C11_7 C 0.10176(14) 0.14530(18) 0.66615(13)
H4_7 H 0.0829 0.1904 0.6503
C12_7 C 0.14577(14) 0.14936(18) 0.71303(13)
C13_7 C 0.17068(13) 0.22063(18) 0.74592(13)
C14_7 C 0.22095(16) 0.1060(2) 0.78278(16)
C15_7 C 0.21930(14) 0.18526(19) 0.78939(14)
C16_7 C 0.2628(2) 0.0625(2) 0.81752(19)
H5_7 H 0.2640 0.0086 0.8133
C17_7 C 0.30270(19) 0.0996(2) 0.85841(19)
H6_7 H 0.3320 0.0706 0.8819
C18_7 C 0.30067(15) 0.1784(2) 0.86574(15)
C19_7 C 0.25839(14) 0.2223(2) 0.83121(14)
H7_7 H 0.2565 0.2762 0.8363
C20_7 C 0.12191(13) 0.26668(18) 0.78143(13)
C21_7 C 0.08066(14) 0.2418(2) 0.82668(14)
H8_7 H 0.0787 0.1893 0.8376
C22_7 C 0.04202(15) 0.2948(2) 0.85603(15)
C23_7 C 0.04463(17) 0.3720(2) 0.83930(17)
H9_7 H 0.0183 0.4078 0.8598
C24_7 C 0.08526(18) 0.3967(2) 0.79317(18)
H10_7 H 0.0867 0.4490 0.7817
C25_7 C 0.12403(15) 0.3437(2) 0.76384(15)
C26_7 C 0.17102(15) 0.35249(19) 0.71441(16)
C27_7 C 0.19070(19) 0.4161(2) 0.68075(19)
H11_7 H 0.1725 0.4648 0.6879
C28_7 C 0.19782(14) 0.28080(19) 0.70275(14)
C29_7 C 0.24358(14) 0.27166(19) 0.65788(14)
H12_7 H 0.2608 0.2227 0.6495
C33_7 C 0.3623(5) 0.4705(4) 0.9959(7)
C34_3 C 0.3278(7) 0.5924(6) 0.9548(9)
H13_4 H 0.522908 0.23308 0.946871
H14_4 H 0.532165 0.324637 0.952935
H16_3 H 0.296965 0.567761 0.919753
H17_3 H 0.350147 0.643218 0.935879
H18_3 H 0.300684 0.607758 0.995924
H27_3 H 0.429082 0.63543 0.996412
H2_6 H 0.1007 0.9592 0.6505
H3_6 H 0.1765 0.9671 0.7296
C2_7 C 0.99788(15) 0.2674(2) 0.90603(15)
O7_6 O 0.87347(11) 0.98216(14) 0.53710(12)
N1_6 N 0.82474(19) 0.8728(2) 0.5071(2)
C30_6 C 0.8717(2) 0.9117(2) 0.53089(18)
C31_6 C 0.8256(4) 0.7891(3) 0.5040(3)
C32_7 C 0.7733(4) 0.9092(4) 0.4794(8)
H15_6 H 0.912331 0.87944 0.546397
H19_6 H 0.750577 0.945846 0.513599
H20_7 H 0.740246 0.866425 0.462974
H21_7 H 0.789174 0.943564 0.440139
H22_7 H 0.865242 0.770519 0.475991
H23_7 H 0.782428 0.768873 0.48278
H24_6 H 0.829769 0.765822 0.55093
C32_8 C 0.7267(4) 0.0908(4) 0.9794(8)
H20_8 H 0.759754 0.133575 0.962974
H21_8 H 0.710826 0.0564356 0.940139
H22_8 H 0.634758 0.229481 0.975991
H23_8 H 0.717572 0.231127 0.98278
O3_8 O 0.16254(13) 0.71182(15) 0.42015(13)
O6_8 O 0.48701(12) 0.87246(15) 0.07116(12)
O9_8 O 0.1024(3) 0.5815(2) 0.5066(3)
N2_4 N 0.1248(4) 0.4629(3) 0.4719(5)
C1_8 C 0.15650(16) 0.7822(2) 0.41134(15)
C2_8 C 0.50212(15) 0.7326(2) 0.40603(15)
C3_8 C 0.18241(15) 0.6720(2) 0.07922(15)
C4_8 C 0.23592(15) 0.6640(2) 0.12506(15)
C5_8 C 0.26240(17) 0.5932(2) 0.13633(18)
H1_8 H 0.2483 0.5502 0.1133
C6_8 C 0.46185(15) 0.9322(2) 0.09050(14)
C7_8 C 0.41466(14) 0.92633(19) 0.14240(14)
C8_8 C 0.38718(17) 0.9923(2) 0.16634(16)
C9_8 C 0.34217(19) 0.9879(2) 0.21326(18)
C10_8 C 0.32528(16) 0.9165(2) 0.23564(16)
C11_8 C 0.39824(14) 0.85470(18) 0.16615(13)
H4_8 H 0.4171 0.8096 0.1503
C12_8 C 0.35423(14) 0.85064(18) 0.21303(13)
C13_8 C 0.32932(13) 0.77937(18) 0.24592(13)
C14_8 C 0.27905(16) 0.8940(2) 0.28278(16)
C15_8 C 0.28070(14) 0.81474(19) 0.28939(14)
C16_8 C 0.2372(2) 0.9375(2) 0.31752(19)
H5_8 H 0.2360 0.9914 0.3133
C17_8 C 0.19730(19) 0.9004(2) 0.35841(19)
H6_8 H 0.1680 0.9294 0.3819
C18_8 C 0.19933(15) 0.8216(2) 0.36574(15)
C19_8 C 0.24161(14) 0.7777(2) 0.33121(14)
H7_8 H 0.2435 0.7238 0.3363
C20_8 C 0.37809(13) 0.73332(18) 0.28143(13)
C21_8 C 0.41934(14) 0.7582(2) 0.32668(14)
H8_8 H 0.4213 0.8107 0.3376
C22_8 C 0.45798(15) 0.7052(2) 0.35603(15)
C23_8 C 0.45537(17) 0.6280(2) 0.33930(17)
H9_8 H 0.4817 0.5922 0.3598
C24_8 C 0.41474(18) 0.6033(2) 0.29317(18)
H10_8 H 0.4133 0.5510 0.2817
C25_8 C 0.37597(15) 0.6563(2) 0.26384(15)
C26_8 C 0.32898(15) 0.64751(19) 0.21441(16)
C27_8 C 0.30930(19) 0.5839(2) 0.18075(19)
H11_8 H 0.3275 0.5352 0.1879
C28_8 C 0.30218(14) 0.71920(19) 0.20275(14)
C29_8 C 0.25642(14) 0.72834(19) 0.15788(14)
H12_8 H 0.2392 0.7773 0.1495
C33_8 C 0.1377(5) 0.5295(4) 0.4959(7)
C34_4 C 0.1722(7) 0.4076(6) 0.4548(9)
C35_4 C 0.0820(8) 0.4203(5) 0.5160(9)
H16_4 H 0.203035 0.432239 0.419753
H17_4 H 0.149853 0.356782 0.435879
H18_4 H 0.199316 0.392242 0.495924
H25_8 H 0.186521 0.539357 0.507764
H26_4 H 0.105205 0.412951 0.560821
H27_4 H 0.0709178 0.36457 0.496412
H28_4 H 0.0390718 0.452717 0.522508
N2_5 N 0.3752(4) 0.9629(3) 0.4719(5)
C34_5 C 0.3278(7) 0.9076(6) 0.4548(9)
C35_5 C 0.4180(8) 0.9203(5) 0.5160(9)
H16_5 H 0.296965 0.932239 0.419753
H17_5 H 0.350147 0.856782 0.435879
H18_5 H 0.300684 0.892242 0.495924
H26_5 H 0.394795 0.912951 0.560821
H27_5 H 0.429082 0.86457 0.496412
H28_5 H 0.460928 0.952717 0.522508
C35_6 C 0.0820(8) 0.0797(5) 0.0160(9)
H26_6 H 0.105205 0.0870486 0.0608212
H28_6 H 0.0390718 0.0472828 0.0225077
N2_6 N 0.1248(4) 0.0371(3) 0.9719(5)
C34_6 C 0.1722(7) 0.0924(6) 0.9548(9)
H16_6 H 0.203035 0.0677615 0.919753
H17_6 H 0.149853 0.143218 0.935879
H18_6 H 0.199316 0.107758 0.995924
H27_6 H 0.0709178 0.13543 0.996412
O8_5 O 0.99750(16) 0.7835(2) 0.94117(17)
H13_5 H 0.977092 0.73308 0.946871
H14_5 H 0.967835 0.824637 0.952935
O8_6 O 0.00250(16) 0.2835(2) 0.55883(17)
H13_6 H 0.0229084 0.23308 0.553129
H14_6 H 0.0321649 0.324637 0.547065
O7_7 O 0.37347(11) 0.98216(14) 0.96290(12)
N1_7 N 0.32474(19) 0.8728(2) 0.9929(2)
H2_7 H 0.6007 0.9592 0.8495
H3_7 H 0.6765 0.9671 0.7704
C30_7 C 0.3717(2) 0.9117(2) 0.96911(18)
C31_7 C 0.3256(4) 0.7891(3) 0.9960(3)
H15_7 H 0.412331 0.87944 0.953603
H19_7 H 0.250577 0.945846 0.986401
H24_7 H 0.329769 0.765822 0.94907
N2_7 N 0.6248(4) 0.0371(3) 0.5281(5)
C34_7 C 0.6722(7) 0.0924(6) 0.5452(9)
C35_7 C 0.5820(8) 0.0797(5) 0.4840(9)
H16_7 H 0.703035 0.0677615 0.580247
H17_7 H 0.649853 0.143218 0.564121
H18_7 H 0.699316 0.107758 0.504076
H26_7 H 0.605205 0.0870486 0.439179
H27_7 H 0.570918 0.13543 0.503588
H28_7 H 0.539072 0.0472828 0.477492
O8_7 O 0.00250(16) 0.2165(2) 0.05883(17)
H13_7 H 0.0229084 0.26692 0.0531292
H14_7 H 0.0321649 0.175363 0.0470646
N2_8 N 0.8752(4) 0.9629(3) 0.0281(5)
C34_8 C 0.8278(7) 0.9076(6) 0.0452(9)
H16_8 H 0.796965 0.932239 0.0802469
H17_8 H 0.850147 0.856782 0.0641214
H18_8 H 0.800684 0.892242 0.00407609
H27_8 H 0.929082 0.86457 0.00358791
C35_8 C 0.9180(8) 0.9203(5) 0.9840(9)
H26_8 H 0.894795 0.912951 0.939179
H28_8 H 0.960928 0.952717 0.977492
O7_8 O 0.62653(11) 0.01784(14) 0.03710(12)
N1_8 N 0.67526(19) 0.1272(2) 0.0071(2)
H2_8 H 0.3993 0.0408 0.1505
H3_8 H 0.3235 0.0329 0.2296
C30_8 C 0.6283(2) 0.0883(2) 0.03089(18)
C31_8 C 0.6744(4) 0.2109(3) 0.0040(3)
H15_8 H 0.587669 0.12056 0.0463974
H19_8 H 0.749423 0.0541536 0.013599
H24_8 H 0.670231 0.234178 0.0509296
O8_8 O 0.99750(16) 0.7165(2) 0.44117(17)
H13_8 H 0.977092 0.76692 0.446871
H14_8 H 0.967835 0.675363 0.452935
loop_
_geom_bond_atom_site_label_1
_geom_bond_atom_site_label_2
_geom_bond_site_symmetry_1
_geom_bond_site_symmetry_2
Ca2 O1 1_555 1_555
O1 C1 1_555 1_555
O3 Ca2 1_555 1_555
O5 C6 1_555 1_555
O8 Ca2 1_555 1_555
O9 Ca2 1_555 1_555
O10 C3 1_555 1_555
O11 C3 1_555 1_555
C1 O3 1_555 1_555
C3 C4 1_555 1_555
C4 C5 1_555 1_555
C5 H1 1_555 1_555
C6 O6 1_555 1_555
C7 C6 1_555 1_555
C8 C7 1_555 1_555
H2 C8 1_555 1_555
C9 C8 1_555 1_555
H3 C9 1_555 1_555
C10 C9 1_555 1_555
C11 C7 1_555 1_555
H4 C11 1_555 1_555
C12 C10 1_555 1_555
C13 C12 1_555 1_555
C14 C10 1_555 1_555
C15 C13 1_555 1_555
C16 C14 1_555 1_555
H5 C16 1_555 1_555
C17 C16 1_555 1_555
H6 C17 1_555 1_555
C18 C1 1_555 1_555
C19 C15 1_555 1_555
H7 C19 1_555 1_555
C20 C13 1_555 1_555
C21 C20 1_555 1_555
H8 C21 1_555 1_555
C22 C21 1_555 1_555
C23 C22 1_555 1_555
H9 C23 1_555 1_555
C24 C23 1_555 1_555
H10 C24 1_555 1_555
C25 C20 1_555 1_555
C26 C25 1_555 1_555
C27 C5 1_555 1_555
H11 C27 1_555 1_555
C28 C13 1_555 1_555
C29 C4 1_555 1_555
H12 C29 1_555 1_555
C33 O9 1_555 1_555
Ca5 O1 1_555 1_555
Ca8 O10 1_555 1_555
O13 Ca2 1_555 1_555
O15 Ca2 1_555 1_555
O17 Ca2 1_555 1_555
C11 C12 1_555 1_555
C14 C15 1_555 1_555
C17 C18 1_555 1_555
C18 C19 1_555 1_555
C24 C25 1_555 1_555
C26 C27 1_555 1_555
C26 C28 1_555 1_555
C28 C29 1_555 1_555
Ca5 O13 1_555 1_555
O8 H13 1_555 1_555
O8 H14 1_555 1_555
C33 H25 1_555 1_555
O2 C2 1_555 1_555
O4 C2 1_555 1_555
O7 Ca1 1_555 1_555
N1 C30 1_555 1_555
C30 O7 1_555 1_555
C31 N1 1_555 1_555
Ca6 O2 1_555 1_555
Ca7 O2 1_555 1_555
O12 Ca1 1_555 1_555
O4 Ca7 1_555 1_555
C30 H15 1_555 1_555
C31 H24 1_555 1_555
C32 H20 1_555 1_555
C32 H21 1_555 1_555
O9_2 Ca2_2 1_555 1_555
O13_2 Ca2_2 1_555 1_555
O15_2 Ca2_2 1_555 1_555
O17_2 Ca2_2 1_555 1_555
Ca1_2 O5_2 1_555 1_555
O1_2 C1_2 1_555 1_555
O2_2 C2_2 1_555 1_555
O4_2 C2_2 1_555 1_555
O5_2 C6_2 1_555 1_555
O6_2 Ca1_2 1_555 1_555
O7_2 Ca1_2 1_555 1_555
O10_2 C3_2 1_555 1_555
O11_2 C3_2 1_555 1_555
N1_2 C30_2 1_555 1_555
C1_2 O3_2 1_555 1_555
C2_2 C22_2 1_555 1_555
C3_2 C4_2 1_555 1_555
C4_2 C5_2 1_555 1_555
C5_2 H1_2 1_555 1_555
C6_2 O6_2 1_555 1_555
C7_2 C6_2 1_555 1_555
C8_2 C7_2 1_555 1_555
H2_2 C8_2 1_555 1_555
C9_2 C8_2 1_555 1_555
H3_2 C9_2 1_555 1_555
C10_2 C9_2 1_555 1_555
C11_2 C7_2 1_555 1_555
H4_2 C11_2 1_555 1_555
C12_2 C10_2 1_555 1_555
C13_2 C12_2 1_555 1_555
C14_2 C10_2 1_555 1_555
C15_2 C13_2 1_555 1_555
C16_2 C14_2 1_555 1_555
H5_2 C16_2 1_555 1_555
C17_2 C16_2 1_555 1_555
H6_2 C17_2 1_555 1_555
C18_2 C1_2 1_555 1_555
C19_2 C15_2 1_555 1_555
H7_2 C19_2 1_555 1_555
C20_2 C13_2 1_555 1_555
C21_2 C20_2 1_555 1_555
H8_2 C21_2 1_555 1_555
C22_2 C21_2 1_555 1_555
C23_2 C22_2 1_555 1_555
H9_2 C23_2 1_555 1_555
C24_2 C23_2 1_555 1_555
H10_2 C24_2 1_555 1_555
C25_2 C20_2 1_555 1_555
C26_2 C25_2 1_555 1_555
C27_2 C5_2 1_555 1_555
H11_2 C27_2 1_555 1_555
C28_2 C13_2 1_555 1_555
C29_2 C4_2 1_555 1_555
H12_2 C29_2 1_555 1_555
C30_2 O7_2 1_555 1_555
C31_2 N1_2 1_555 1_555
C32_2 N1_2 1_555 1_555
Ca3_2 O11_2 1_555 1_555
Ca5 O5_2 1_555 1_555
Ca4 O1_2 1_555 1_555
Ca7_2 O2_2 1_555 1_555
Ca8_2 O10_2 1_555 1_555
O12_2 Ca1_2 1_555 1_555
O14_2 Ca1_2 1_555 1_555
O16_2 Ca1_2 1_555 1_555
O18_2 Ca1_2 1_555 1_555
O4_2 Ca7_2 1_555 1_555
C11_2 C12_2 1_555 1_555
C14_2 C15_2 1_555 1_555
C17_2 C18_2 1_555 1_555
C18_2 C19_2 1_555 1_555
C24_2 C25_2 1_555 1_555
C26_2 C27_2 1_555 1_555
C26_2 C28_2 1_555 1_555
C28_2 C29_2 1_555 1_555
Ca5 O16_2 1_555 1_555
C30_2 H15_2 1_555 1_555
C32_2 H19_2 1_555 1_555
C32_2 H20_2 1_555 1_555
C32_2 H21_2 1_555 1_555
C31_2 H22_2 1_555 1_555
C31_2 H23_2 1_555 1_555
C31_2 H24_2 1_555 1_555
N1_3 C30_3 1_555 1_555
C30_3 O7_3 1_555 1_555
C31_3 N1_3 1_555 1_555
C32_3 N1_3 1_555 1_555
C30_3 H15_3 1_555 1_555
C32_3 H19_3 1_555 1_555
C32_3 H20_3 1_555 1_555
C32_3 H21_3 1_555 1_555
C31_3 H22_3 1_555 1_555
C31_3 H23_3 1_555 1_555
C31_3 H24_3 1_555 1_555
O13_2 C2_3 1_555 1_555
O15_2 C2_3 1_555 1_555
O12_3 Ca3_2 1_555 1_555
O14_3 Ca3_2 1_555 1_555
O1_3 C1_3 1_555 1_555
O5_3 C6_3 1_555 1_555
O10_3 C3_3 1_555 1_555
O18_2 C3_3 1_555 1_555
N2 C33_3 1_555 1_555
C1_3 O3_3 1_555 1_555
C3_3 C4_3 1_555 1_555
C4_3 C5_3 1_555 1_555
C5_3 H1_3 1_555 1_555
C6_3 O6_3 1_555 1_555
C7_3 C6_3 1_555 1_555
C8_3 C7_3 1_555 1_555
C9_3 C8_3 1_555 1_555
C10_3 C9_3 1_555 1_555
C11_3 C7_3 1_555 1_555
H4_3 C11_3 1_555 1_555
C12_3 C10_3 1_555 1_555
C13_3 C12_3 1_555 1_555
C14_3 C10_3 1_555 1_555
C15_3 C13_3 1_555 1_555
C16_3 C14_3 1_555 1_555
H5_3 C16_3 1_555 1_555
C17_3 C16_3 1_555 1_555
H6_3 C17_3 1_555 1_555
C18_3 C1_3 1_555 1_555
C19_3 C15_3 1_555 1_555
H7_3 C19_3 1_555 1_555
C20_3 C13_3 1_555 1_555
C21_3 C20_3 1_555 1_555
H8_3 C21_3 1_555 1_555
C22_3 C21_3 1_555 1_555
C23_3 C22_3 1_555 1_555
H9_3 C23_3 1_555 1_555
C24_3 C23_3 1_555 1_555
H10_3 C24_3 1_555 1_555
C25_3 C20_3 1_555 1_555
C26_3 C25_3 1_555 1_555
C27_3 C5_3 1_555 1_555
H11_3 C27_3 1_555 1_555
C28_3 C13_3 1_555 1_555
C29_3 C4_3 1_555 1_555
H12_3 C29_3 1_555 1_555
C34 N2 1_555 1_555
Ca6_2 O1_3 1_555 1_555
Ca8_3 O10_3 1_555 1_555
C11_3 C12_3 1_555 1_555
C14_3 C15_3 1_555 1_555
C17_3 C18_3 1_555 1_555
C18_3 C19_3 1_555 1_555
C24_3 C25_3 1_555 1_555
C26_3 C27_3 1_555 1_555
C26_3 C28_3 1_555 1_555
C28_3 C29_3 1_555 1_555
O8_2 H13_2 1_555 1_555
O8_2 H14_2 1_555 1_555
C34 H16 1_555 1_555
C34 H17 1_555 1_555
C34 H18 1_555 1_555
O9_3 Ca7_2 1_555 1_555
O17_3 Ca7_2 1_555 1_555
C35 H26 1_555 1_555
C35 H28 1_555 1_555
Ca3 O5_4 1_555 1_555
Ca7 O1_4 1_555 1_555
O1_4 C1_4 1_555 1_555
O13 C2_4 1_555 1_555
O3_4 Ca7 1_555 1_555
O15 C2_4 1_555 1_555
O5_4 C6_4 1_555 1_555
O6_4 Ca3 1_555 1_555
O9_4 Ca7 1_555 1_555
O10_4 C3_4 1_555 1_555
O18 C3_4 1_555 1_555
N2_2 C33_4 1_555 1_555
C1_4 O3_4 1_555 1_555
C2_4 C22_4 1_555 1_555
C3_4 C4_4 1_555 1_555
C4_4 C5_4 1_555 1_555
C5_4 H1_4 1_555 1_555
C6_4 O6_4 1_555 1_555
C7_4 C6_4 1_555 1_555
C8_4 C7_4 1_555 1_555
C9_4 C8_4 1_555 1_555
C10_4 C9_4 1_555 1_555
C11_4 C7_4 1_555 1_555
H4_4 C11_4 1_555 1_555
C12_4 C10_4 1_555 1_555
C13_4 C12_4 1_555 1_555
C14_4 C10_4 1_555 1_555
C15_4 C13_4 1_555 1_555
C16_4 C14_4 1_555 1_555
H5_4 C16_4 1_555 1_555
C17_4 C16_4 1_555 1_555
H6_4 C17_4 1_555 1_555
C18_4 C1_4 1_555 1_555
C19_4 C15_4 1_555 1_555
H7_4 C19_4 1_555 1_555
C20_4 C13_4 1_555 1_555
C21_4 C20_4 1_555 1_555
H8_4 C21_4 1_555 1_555
C22_4 C21_4 1_555 1_555
C23_4 C22_4 1_555 1_555
H9_4 C23_4 1_555 1_555
C24_4 C23_4 1_555 1_555
H10_4 C24_4 1_555 1_555
C25_4 C20_4 1_555 1_555
C26_4 C25_4 1_555 1_555
C27_4 C5_4 1_555 1_555
H11_4 C27_4 1_555 1_555
C28_4 C13_4 1_555 1_555
C29_4 C4_4 1_555 1_555
H12_4 C29_4 1_555 1_555
C33_4 O9_4 1_555 1_555
C34_2 N2_2 1_555 1_555
C35_2 N2_2 1_555 1_555
Ca6 O1_4 1_555 1_555
Ca8_4 O10_4 1_555 1_555
O12_4 Ca3 1_555 1_555
O17_4 Ca7 1_555 1_555
C11_4 C12_4 1_555 1_555
C14_4 C15_4 1_555 1_555
C17_4 C18_4 1_555 1_555
C18_4 C19_4 1_555 1_555
C24_4 C25_4 1_555 1_555
C26_4 C27_4 1_555 1_555
C26_4 C28_4 1_555 1_555
C28_4 C29_4 1_555 1_555
C34_2 H16_2 1_555 1_555
C34_2 H17_2 1_555 1_555
C34_2 H18_2 1_555 1_555
C33_4 H25_4 1_555 1_555
C35_2 H26_2 1_555 1_555
C35_2 H27_2 1_555 1_555
C35_2 H28_2 1_555 1_555
Ca6_2 O16_4 1_555 1_555
C32_4 H20_4 1_555 1_555
C32_4 H21_4 1_555 1_555
C32_5 H20_5 1_555 1_555
C32_5 H21_5 1_555 1_555
O14_3 C2_5 1_555 1_555
O4_3 C2_5 1_555 1_555
O7_4 Ca4 1_555 1_555
N1_4 C30_4 1_555 1_555
C30_4 O7_4 1_555 1_555
C31_4 N1_4 1_555 1_555
Ca8_2 O14_3 1_555 1_555
O4_3 Ca8_2 1_555 1_555
C30_4 H15_4 1_555 1_555
C31_4 H24_4 1_555 1_555
Ca8_3 O12_2 1_555 1_555
O12_2 C1_5 1_555 1_555
O3_5 Ca8_3 1_555 1_555
O16 C6_5 1_555 1_555
O8_3 Ca8_3 1_555 1_555
O9_5 Ca8_3 1_555 1_555
O17_3 C3_5 1_555 1_555
O11_3 C3_5 1_555 1_555
C1_5 O3_5 1_555 1_555
C3_5 C4_5 1_555 1_555
C4_5 C5_5 1_555 1_555
C5_5 H1_5 1_555 1_555
C6_5 O6_5 1_555 1_555
C7_5 C6_5 1_555 1_555
C8_5 C7_5 1_555 1_555
H2_4 C8_5 1_555 1_555
C9_5 C8_5 1_555 1_555
H3_4 C9_5 1_555 1_555
C10_5 C9_5 1_555 1_555
C11_5 C7_5 1_555 1_555
H4_5 C11_5 1_555 1_555
C12_5 C10_5 1_555 1_555
C13_5 C12_5 1_555 1_555
C14_5 C10_5 1_555 1_555
C15_5 C13_5 1_555 1_555
C16_5 C14_5 1_555 1_555
H5_5 C16_5 1_555 1_555
C17_5 C16_5 1_555 1_555
H6_5 C17_5 1_555 1_555
C18_5 C1_5 1_555 1_555
C19_5 C15_5 1_555 1_555
H7_5 C19_5 1_555 1_555
C20_5 C13_5 1_555 1_555
C21_5 C20_5 1_555 1_555
H8_5 C21_5 1_555 1_555
C22_5 C21_5 1_555 1_555
C23_5 C22_5 1_555 1_555
H9_5 C23_5 1_555 1_555
C24_5 C23_5 1_555 1_555
H10_5 C24_5 1_555 1_555
C25_5 C20_5 1_555 1_555
C26_5 C25_5 1_555 1_555
C27_5 C5_5 1_555 1_555
H11_5 C27_5 1_555 1_555
C28_5 C13_5 1_555 1_555
C29_5 C4_5 1_555 1_555
H12_5 C29_5 1_555 1_555
C33_5 O9_5 1_555 1_555
O14_2 Ca8_3 1_555 1_555
O15_3 Ca8_3 1_555 1_555
C11_5 C12_5 1_555 1_555
C14_5 C15_5 1_555 1_555
C17_5 C18_5 1_555 1_555
C18_5 C19_5 1_555 1_555
C24_5 C25_5 1_555 1_555
C26_5 C27_5 1_555 1_555
C26_5 C28_5 1_555 1_555
C28_5 C29_5 1_555 1_555
O8_3 H13_3 1_555 1_555
O8_3 H14_3 1_555 1_555
C33_5 H25_5 1_555 1_555
O12 C1_6 1_555 1_555
O14_4 C2_6 1_555 1_555
O4_4 C2_6 1_555 1_555
O16_2 C6_6 1_555 1_555
O6_6 Ca5 1_555 1_555
O7_5 Ca5 1_555 1_555
O17_4 C3_6 1_555 1_555
O11_4 C3_6 1_555 1_555
N1_5 C30_5 1_555 1_555
C1_6 O3_6 1_555 1_555
C2_6 C22_6 1_555 1_555
C3_6 C4_6 1_555 1_555
C4_6 C5_6 1_555 1_555
C5_6 H1_6 1_555 1_555
C6_6 O6_6 1_555 1_555
C7_6 C6_6 1_555 1_555
C8_6 C7_6 1_555 1_555
H2_5 C8_6 1_555 1_555
C9_6 C8_6 1_555 1_555
H3_5 C9_6 1_555 1_555
C10_6 C9_6 1_555 1_555
C11_6 C7_6 1_555 1_555
H4_6 C11_6 1_555 1_555
C12_6 C10_6 1_555 1_555
C13_6 C12_6 1_555 1_555
C14_6 C10_6 1_555 1_555
C15_6 C13_6 1_555 1_555
C16_6 C14_6 1_555 1_555
H5_6 C16_6 1_555 1_555
C17_6 C16_6 1_555 1_555
H6_6 C17_6 1_555 1_555
C18_6 C1_6 1_555 1_555
C19_6 C15_6 1_555 1_555
H7_6 C19_6 1_555 1_555
C20_6 C13_6 1_555 1_555
C21_6 C20_6 1_555 1_555
H8_6 C21_6 1_555 1_555
C22_6 C21_6 1_555 1_555
C23_6 C22_6 1_555 1_555
H9_6 C23_6 1_555 1_555
C24_6 C23_6 1_555 1_555
H10_6 C24_6 1_555 1_555
C25_6 C20_6 1_555 1_555
C26_6 C25_6 1_555 1_555
C27_6 C5_6 1_555 1_555
H11_6 C27_6 1_555 1_555
C28_6 C13_6 1_555 1_555
C29_6 C4_6 1_555 1_555
H12_6 C29_6 1_555 1_555
C30_5 O7_5 1_555 1_555
C31_5 N1_5 1_555 1_555
C32_6 N1_5 1_555 1_555
Ca6 O11_4 1_555 1_555
Ca8 O14_4 1_555 1_555
O18_4 Ca5 1_555 1_555
O4_4 Ca8 1_555 1_555
C11_6 C12_6 1_555 1_555
C14_6 C15_6 1_555 1_555
C17_6 C18_6 1_555 1_555
C18_6 C19_6 1_555 1_555
C24_6 C25_6 1_555 1_555
C26_6 C27_6 1_555 1_555
C26_6 C28_6 1_555 1_555
C28_6 C29_6 1_555 1_555
C30_5 H15_5 1_555 1_555
C32_6 H19_5 1_555 1_555
C32_6 H20_6 1_555 1_555
C32_6 H21_6 1_555 1_555
C31_5 H22_6 1_555 1_555
C31_5 H23_6 1_555 1_555
C31_5 H24_5 1_555 1_555
O9_6 Ca8_4 1_555 1_555
O14 Ca8_4 1_555 1_555
O15_4 Ca8_4 1_555 1_555
O9_7 Ca8 1_555 1_555
C35_3 H26_3 1_555 1_555
C35_3 H28_3 1_555 1_555
O12_4 C1_7 1_555 1_555
O16_3 C6_7 1_555 1_555
O17 C3_7 1_555 1_555
O18_4 C3_7 1_555 1_555
N2_3 C33_7 1_555 1_555
C1_7 O3_7 1_555 1_555
C3_7 C4_7 1_555 1_555
C4_7 C5_7 1_555 1_555
C5_7 H1_7 1_555 1_555
C6_7 O6_7 1_555 1_555
C7_7 C6_7 1_555 1_555
C8_7 C7_7 1_555 1_555
C9_7 C8_7 1_555 1_555
C10_7 C9_7 1_555 1_555
C11_7 C7_7 1_555 1_555
H4_7 C11_7 1_555 1_555
C12_7 C10_7 1_555 1_555
C13_7 C12_7 1_555 1_555
C14_7 C10_7 1_555 1_555
C15_7 C13_7 1_555 1_555
C16_7 C14_7 1_555 1_555
H5_7 C16_7 1_555 1_555
C17_7 C16_7 1_555 1_555
H6_7 C17_7 1_555 1_555
C18_7 C1_7 1_555 1_555
C19_7 C15_7 1_555 1_555
H7_7 C19_7 1_555 1_555
C20_7 C13_7 1_555 1_555
C21_7 C20_7 1_555 1_555
H8_7 C21_7 1_555 1_555
C22_7 C21_7 1_555 1_555
C23_7 C22_7 1_555 1_555
H9_7 C23_7 1_555 1_555
C24_7 C23_7 1_555 1_555
H10_7 C24_7 1_555 1_555
C25_7 C20_7 1_555 1_555
C26_7 C25_7 1_555 1_555
C27_7 C5_7 1_555 1_555
H11_7 C27_7 1_555 1_555
C28_7 C13_7 1_555 1_555
C29_7 C4_7 1_555 1_555
H12_7 C29_7 1_555 1_555
C34_3 N2_3 1_555 1_555
C11_7 C12_7 1_555 1_555
C14_7 C15_7 1_555 1_555
C17_7 C18_7 1_555 1_555
C18_7 C19_7 1_555 1_555
C24_7 C25_7 1_555 1_555
C26_7 C27_7 1_555 1_555
C26_7 C28_7 1_555 1_555
C28_7 C29_7 1_555 1_555
O8_4 H13_4 1_555 1_555
O8_4 H14_4 1_555 1_555
C34_3 H16_3 1_555 1_555
C34_3 H17_3 1_555 1_555
C34_3 H18_3 1_555 1_555
O14 C2_7 1_555 1_555
O15_4 C2_7 1_555 1_555
N1_6 C30_6 1_555 1_555
C30_6 O7_6 1_555 1_555
C31_6 N1_6 1_555 1_555
C32_7 N1_6 1_555 1_555
C30_6 H15_6 1_555 1_555
C32_7 H19_6 1_555 1_555
C32_7 H20_7 1_555 1_555
C32_7 H21_7 1_555 1_555
C31_6 H22_7 1_555 1_555
C31_6 H23_7 1_555 1_555
C31_6 H24_6 1_555 1_555
C32_8 H20_8 1_555 1_555
C32_8 H21_8 1_555 1_555
Ca8_2 O12_3 1_555 1_555
O12_3 C1_8 1_555 1_555
O14_2 C2_8 1_555 1_555
O3_8 Ca8_2 1_555 1_555
O15_3 C2_8 1_555 1_555
O16_4 C6_8 1_555 1_555
O6_8 Ca6_2 1_555 1_555
O9_8 Ca8_2 1_555 1_555
O17_2 C3_8 1_555 1_555
O18_3 C3_8 1_555 1_555
N2_4 C33_8 1_555 1_555
C1_8 O3_8 1_555 1_555
C2_8 C22_8 1_555 1_555
C3_8 C4_8 1_555 1_555
C4_8 C5_8 1_555 1_555
C5_8 H1_8 1_555 1_555
C6_8 O6_8 1_555 1_555
C7_8 C6_8 1_555 1_555
C8_8 C7_8 1_555 1_555
C9_8 C8_8 1_555 1_555
C10_8 C9_8 1_555 1_555
C11_8 C7_8 1_555 1_555
H4_8 C11_8 1_555 1_555
C12_8 C10_8 1_555 1_555
C13_8 C12_8 1_555 1_555
C14_8 C10_8 1_555 1_555
C15_8 C13_8 1_555 1_555
C16_8 C14_8 1_555 1_555
H5_8 C16_8 1_555 1_555
C17_8 C16_8 1_555 1_555
H6_8 C17_8 1_555 1_555
C18_8 C1_8 1_555 1_555
C19_8 C15_8 1_555 1_555
H7_8 C19_8 1_555 1_555
C20_8 C13_8 1_555 1_555
C21_8 C20_8 1_555 1_555
H8_8 C21_8 1_555 1_555
C22_8 C21_8 1_555 1_555
C23_8 C22_8 1_555 1_555
H9_8 C23_8 1_555 1_555
C24_8 C23_8 1_555 1_555
H10_8 C24_8 1_555 1_555
C25_8 C20_8 1_555 1_555
C26_8 C25_8 1_555 1_555
C27_8 C5_8 1_555 1_555
H11_8 C27_8 1_555 1_555
C28_8 C13_8 1_555 1_555
C29_8 C4_8 1_555 1_555
H12_8 C29_8 1_555 1_555
C33_8 O9_8 1_555 1_555
C34_4 N2_4 1_555 1_555
C35_4 N2_4 1_555 1_555
C11_8 C12_8 1_555 1_555
C14_8 C15_8 1_555 1_555
C17_8 C18_8 1_555 1_555
C18_8 C19_8 1_555 1_555
C24_8 C25_8 1_555 1_555
C26_8 C27_8 1_555 1_555
C26_8 C28_8 1_555 1_555
C28_8 C29_8 1_555 1_555
C34_4 H16_4 1_555 1_555
C34_4 H17_4 1_555 1_555
C34_4 H18_4 1_555 1_555
C33_8 H25_8 1_555 1_555
C35_4 H26_4 1_555 1_555
C35_4 H27_4 1_555 1_555
C35_4 H28_4 1_555 1_555
C34_5 N2_5 1_555 1_555
C35_5 N2_5 1_555 1_555
C34_5 H16_5 1_555 1_555
C34_5 H17_5 1_555 1_555
C34_5 H18_5 1_555 1_555
C35_5 H26_5 1_555 1_555
C35_5 H27_5 1_555 1_555
C35_5 H28_5 1_555 1_555
C35_6 H26_6 1_555 1_555
C35_6 H28_6 1_555 1_555
C34_6 N2_6 1_555 1_555
C34_6 H16_6 1_555 1_555
C34_6 H17_6 1_555 1_555
C34_6 H18_6 1_555 1_555
O8_5 H13_5 1_555 1_555
O8_5 H14_5 1_555 1_555
O8_6 H13_6 1_555 1_555
O8_6 H14_6 1_555 1_555
N1_7 C30_7 1_555 1_555
C30_7 O7_7 1_555 1_555
C31_7 N1_7 1_555 1_555
C30_7 H15_7 1_555 1_555
C31_7 H24_7 1_555 1_555
C34_7 N2_7 1_555 1_555
C35_7 N2_7 1_555 1_555
C34_7 H16_7 1_555 1_555
C34_7 H17_7 1_555 1_555
C34_7 H18_7 1_555 1_555
C35_7 H26_7 1_555 1_555
C35_7 H27_7 1_555 1_555
C35_7 H28_7 1_555 1_555
O8_7 H13_7 1_555 1_555
O8_7 H14_7 1_555 1_555
C34_8 N2_8 1_555 1_555
C34_8 H16_8 1_555 1_555
C34_8 H17_8 1_555 1_555
C34_8 H18_8 1_555 1_555
C35_8 H26_8 1_555 1_555
C35_8 H28_8 1_555 1_555
N1_8 C30_8 1_555 1_555
C30_8 O7_8 1_555 1_555
C31_8 N1_8 1_555 1_555
C30_8 H15_8 1_555 1_555
C31_8 H24_8 1_555 1_555
O8_8 H13_8 1_555 1_555
O8_8 H14_8 1_555 1_555

#END
