
###############################################################################
#
# This file contains modified crystal structure data generated from the
# MOF subset of the Cambridge Structural Database (CSD) v543 
# hosted by the Cambridge Crystallographic Data Centre (CCDC).
#
# This work is licensed under the Creative Commons
# Attribution-NonCommercial-ShareAlike 4.0 International License.
# To view a copy of this license, visit
# http://creativecommons.org/licenses/by-nc-sa/4.0/
# or send a letter to
# Creative Commons, PO Box 1866, Mountain View, CA 94042, USA.
#
# CIF created using the CSD Python API on 29 September 2022
# The structure has been converted into the P1 space group
# The structure has a 3D framework
# The original CSD entry HENYUV01 is in the tetragonal crystal system
# The original CSD entry HENYUV01 is in a Sohncke space group
# The framework has been calculated to contain at least 10.0% void space
# The void calculation uses a probe of radius 1.32A, grid spacing 0.4
#
###############################################################################

data_HENYUV01
_chemical_formula_moiety         '(C34 H8 N10 O16 Zn10)n'
_symmetry_cell_setting           triclinic
_symmetry_space_group_name_H-M   'P 1'
_symmetry_Int_Tables_number      1
_space_group_name_Hall           'P 1'
loop_
_symmetry_equiv_pos_site_id
_symmetry_equiv_pos_as_xyz
1 x,y,z
_cell_length_a                   7.0211(6)
_cell_length_b                   7.0211(6)
_cell_length_c                   19.9558(15)
_cell_angle_alpha                90
_cell_angle_beta                 90
_cell_angle_gamma                90
_cell_volume                     983.738
loop_
_atom_site_label
_atom_site_type_symbol
_atom_site_fract_x
_atom_site_fract_y
_atom_site_fract_z
Zn1 Zn -0.000 -0 0.27581(4)
N1 N -0.000 -0 0.1755(3)
C4 C -0.000 -0 0.0373(4)
O11 O 0.1367(8) 0.1609(8) 0.33997(19)
N2 N -0 -0.000 0.8245(3)
C10 C -0 -0.000 0.9627(4)
Zn2 Zn 0 -0.000 0.72419(4)
O10 O 0.1609(8) 0.1367(8) 0.66003(19)
Zn1_2 Zn -0.000 1 0.27581(4)
N1_2 N -0.000 1 0.1755(3)
O1 O 0.2350(9) 0.8036(8) 0.2493(2)
O2 O 0.3633(8) 0.6609(8) 0.16003(19)
C1 C 0.2523(11) 0.7787(11) 0.1879(3)
C2 C 0.1362(11) 0.8967(11) 0.0730(3)
C3 C 0.1274(11) 0.8965(11) 0.1424(3)
C4_2 C -0.000 1 0.0373(4)
H1 H 0.234102 0.827215 0.05001
Zn6 Zn 0.500 0.5 0.22419(4)
N2_2 N -0 1.000 0.8245(3)
C10_2 C -0 1.000 0.9627(4)
C12 C 0.1033(11) 0.8638(11) 0.9270(3)
C13 C 0.1035(11) 0.8726(11) 0.8576(3)
H4 H 0.172785 0.765898 0.94999
O7 O 0.1964(8) 0.7650(9) 0.7507(2)
O8 O 0.3391(8) 0.6367(8) 0.83997(19)
C14 C 0.2213(11) 0.7477(11) 0.8121(3)
Zn2_2 Zn -0 1.000 0.72419(4)
Zn4 Zn 0.5 0.500 0.77581(4)
Zn1_3 Zn 1.000 -0 0.27581(4)
N1_3 N 1.000 -0 0.1755(3)
C4_3 C 1.000 -0 0.0373(4)
C5 C 0.8638(11) 0.1033(11) 0.0730(3)
C6 C 0.8726(11) 0.1035(11) 0.1424(3)
H2 H 0.765898 0.172785 0.05001
O3 O 0.7650(9) 0.1964(8) 0.2493(2)
O4 O 0.6367(8) 0.3391(8) 0.16003(19)
C7 C 0.7477(11) 0.2213(11) 0.1879(3)
N2_3 N 1 -0.000 0.8245(3)
C8 C 0.8967(11) 0.1362(11) 0.9270(3)
C9 C 0.8965(11) 0.1274(11) 0.8576(3)
C10_3 C 1 -0.000 0.9627(4)
H3 H 0.827215 0.234102 0.94999
O5 O 0.8036(8) 0.2350(9) 0.7507(2)
O6 O 0.6609(8) 0.3633(8) 0.83997(19)
C11 C 0.7787(11) 0.2523(11) 0.8121(3)
Zn2_3 Zn 1 -0.000 0.72419(4)
Zn1_4 Zn 1.000 1 0.27581(4)
N1_4 N 1.000 1 0.1755(3)
C4_4 C 1.000 1 0.0373(4)
O12 O 0.8633(8) 0.8391(8) 0.33997(19)
N2_4 N 1 1.000 0.8245(3)
C10_4 C 1 1.000 0.9627(4)
Zn2_4 Zn 1 1.000 0.72419(4)
O9 O 0.8391(8) 0.8633(8) 0.66003(19)
N1_5 N 0.5 0.500 0.6755(3)
O1_2 O 0.6964(8) 0.7350(9) 0.7493(2)
C1_2 C 0.7213(11) 0.7523(11) 0.6879(3)
C2_2 C 0.6033(11) 0.6362(11) 0.5730(3)
C3_2 C 0.6035(11) 0.6274(11) 0.6424(3)
C4_5 C 0.5 0.500 0.5373(4)
H1_2 H 0.672785 0.734102 0.55001
C5_2 C 0.3967(11) 0.3638(11) 0.5730(3)
C6_2 C 0.3965(11) 0.3726(11) 0.6424(3)
H2_2 H 0.327215 0.265898 0.55001
O3_2 O 0.3036(8) 0.2650(9) 0.7493(2)
C7_2 C 0.2787(11) 0.2477(11) 0.6879(3)
N2_5 N 0.500 0.5 0.3245(3)
C8_2 C 0.3638(11) 0.3967(11) 0.4270(3)
C9_2 C 0.3726(11) 0.3965(11) 0.3576(3)
C10_5 C 0.500 0.5 0.4627(4)
H3_2 H 0.265898 0.327215 0.44999
O5_2 O 0.2650(9) 0.3036(8) 0.2507(2)
C11_2 C 0.2477(11) 0.2787(11) 0.3121(3)
C12_2 C 0.6362(11) 0.6033(11) 0.4270(3)
C13_2 C 0.6274(11) 0.6035(11) 0.3576(3)
H4_2 H 0.734102 0.672785 0.44999
O7_2 O 0.7350(9) 0.6964(8) 0.2507(2)
C14_2 C 0.7523(11) 0.7213(11) 0.3121(3)
loop_
_geom_bond_atom_site_label_1
_geom_bond_atom_site_label_2
_geom_bond_site_symmetry_1
_geom_bond_site_symmetry_2
Zn1 N1 1_555 1_555
O11 Zn1 1_555 1_555
Zn2 N2 1_555 1_555
O10 Zn2 1_555 1_555
Zn1_2 N1_2 1_555 1_555
N1_2 C3 1_555 1_555
O1 Zn1_2 1_555 1_555
O2 C1 1_555 1_555
C1 O1 1_555 1_555
C2 C3 1_555 1_555
C3 C1 1_555 1_555
C4_2 C2 1_555 1_555
H1 C2 1_555 1_555
Zn6 O2 1_555 1_555
C12 C10_2 1_555 1_555
C13 N2_2 1_555 1_555
H4 C12 1_555 1_555
O7 C14 1_555 1_555
O8 C14 1_555 1_555
C14 C13 1_555 1_555
Zn2_2 N2_2 1_555 1_555
Zn4 O8 1_555 1_555
C12 C13 1_555 1_555
O7 Zn2_2 1_555 1_555
Zn1_3 N1_3 1_555 1_555
C5 C4_3 1_555 1_555
C6 N1_3 1_555 1_555
H2 C5 1_555 1_555
O3 Zn1_3 1_555 1_555
O4 C7 1_555 1_555
C7 C6 1_555 1_555
Zn6 O4 1_555 1_555
C5 C6 1_555 1_555
O3 C7 1_555 1_555
N2_3 C9 1_555 1_555
C8 C9 1_555 1_555
C9 C11 1_555 1_555
H3 C8 1_555 1_555
O5 C11 1_555 1_555
O6 C11 1_555 1_555
Zn2_3 N2_3 1_555 1_555
Zn4 O6 1_555 1_555
C8 C10_3 1_555 1_555
O5 Zn2_3 1_555 1_555
Zn1_4 N1_4 1_555 1_555
O12 Zn1_4 1_555 1_555
Zn2_4 N2_4 1_555 1_555
O9 Zn2_4 1_555 1_555
Zn4 N1_5 1_555 1_555
N1_5 C3_2 1_555 1_555
O1_2 Zn4 1_555 1_555
O9 C1_2 1_555 1_555
C1_2 O1_2 1_555 1_555
C2_2 C3_2 1_555 1_555
C3_2 C1_2 1_555 1_555
C4_5 C2_2 1_555 1_555
H1_2 C2_2 1_555 1_555
C5_2 C4_5 1_555 1_555
C6_2 N1_5 1_555 1_555
H2_2 C5_2 1_555 1_555
O3_2 Zn4 1_555 1_555
O10 C7_2 1_555 1_555
C7_2 C6_2 1_555 1_555
N2_5 C9_2 1_555 1_555
C8_2 C9_2 1_555 1_555
C9_2 C11_2 1_555 1_555
C10_5 C4_5 1_555 1_555
H3_2 C8_2 1_555 1_555
O5_2 C11_2 1_555 1_555
O11 C11_2 1_555 1_555
C12_2 C10_5 1_555 1_555
C13_2 N2_5 1_555 1_555
H4_2 C12_2 1_555 1_555
O7_2 C14_2 1_555 1_555
O12 C14_2 1_555 1_555
C14_2 C13_2 1_555 1_555
Zn6 N2_5 1_555 1_555
C5_2 C6_2 1_555 1_555
O3_2 C7_2 1_555 1_555
C8_2 C10_5 1_555 1_555
O5_2 Zn6 1_555 1_555
C12_2 C13_2 1_555 1_555
O7_2 Zn6 1_555 1_555

#END
