
###############################################################################
#
# This file contains modified crystal structure data generated from the
# MOF subset of the Cambridge Structural Database (CSD) v543 
# hosted by the Cambridge Crystallographic Data Centre (CCDC).
#
# This work is licensed under the Creative Commons
# Attribution-NonCommercial-ShareAlike 4.0 International License.
# To view a copy of this license, visit
# http://creativecommons.org/licenses/by-nc-sa/4.0/
# or send a letter to
# Creative Commons, PO Box 1866, Mountain View, CA 94042, USA.
#
# CIF created using the CSD Python API on 29 September 2022
# The structure has been converted into the P1 space group
# The structure has a 3D framework
# The original CSD entry HEPCIR is in the monoclinic crystal system
# The framework has been calculated to contain at least 10.0% void space
# The void calculation uses a probe of radius 1.32A, grid spacing 0.4
# H atom positions have been added when not included in the experimental data
#
###############################################################################

data_HEPCIR
_chemical_formula_moiety         '(C144 H136 Cd16 N56 O64)n'
_symmetry_cell_setting           triclinic
_symmetry_space_group_name_H-M   'P 1'
_symmetry_Int_Tables_number      1
_space_group_name_Hall           'P 1'
loop_
_symmetry_equiv_pos_site_id
_symmetry_equiv_pos_as_xyz
1 x,y,z
_cell_length_a                   14.0965(15)
_cell_length_b                   14.3270(13)
_cell_length_c                   29.274(2)
_cell_angle_alpha                90
_cell_angle_beta                 97.834(9)
_cell_angle_gamma                90
_cell_volume                     5857.02
loop_
_atom_site_label
_atom_site_type_symbol
_atom_site_fract_x
_atom_site_fract_y
_atom_site_fract_z
C15 C 0.0053(14) 0.6912(14) 0.5801(9)
H7 H 0.0333 0.7098 0.6113
H9 H 0.0559 0.6682 0.5632
H15 H 0.0295 0.6150 0.6684
C9 C 0.6951(6) 0.0033(6) 0.6749(3)
H5 H 0.7445 0.0412 0.6906
C10 C 0.6764(6) 0.0058(6) 0.6272(3)
C14 C 0.7338(6) 0.0706(6) 0.6007(3)
O6 O 0.7478(6) 0.0515(6) 0.5609(2)
O7 O 0.7657(5) 0.1428(4) 0.6206(2)
Cd4 Cd 0.84678(4) 0.20248(4) 0.565582(18)
Cd1 Cd 0.34678(4) 0.70248(4) 0.565582(18)
Cd2 Cd 0.78576(4) 0.40522(4) 0.65719(2)
C1 C 0.5901(6) 0.4873(6) 0.5934(3)
C2 C 0.5920(8) 0.5594(7) 0.6617(3)
H1 H 0.6180 0.5676 0.6932
C3 C 0.5143(7) 0.6123(7) 0.6437(3)
H2 H 0.4883 0.6557 0.6631
C4 C 0.5136(6) 0.5394(6) 0.5750(3)
H3 H 0.4870 0.5296 0.5438
C5 C 0.6328(6) 0.4185(6) 0.5656(3)
C6 C 0.5511(6) 0.8943(6) 0.6291(3)
C7 C 0.5685(6) 0.8931(6) 0.6769(3)
H4 H 0.5295 0.8559 0.6937
C8 C 0.6416(6) 0.9452(6) 0.7001(3)
C11 C 0.6073(6) 0.9484(6) 0.6039(3)
H6 H 0.5984 0.9458 0.5712
C12 C 0.4723(5) 0.8346(5) 0.6048(3)
C13 C 0.6667(6) 0.9394(7) 0.7518(3)
H8 H 0.9739 0.7451 0.5639
C16 C 0.8807(17) 0.5720(18) 0.5373(7)
H10 H 0.8378 0.5229 0.5457
H11 H 0.9274 0.5448 0.5192
H12 H 0.8432 0.6198 0.5190
C17 C 0.9097(10) 0.5834(9) 0.6190(7)
C18 C 0.9602(14) 0.6247(12) 0.6662(7)
H13 H 0.9359 0.5930 0.6918
H14 H 0.9467 0.6916 0.6675
N1 N 0.6318(5) 0.4969(5) 0.6364(2)
N2 N 0.4744(5) 0.6048(5) 0.6000(2)
N3 N 0.7078(5) 0.3674(5) 0.5816(2)
N4 N 0.7242(5) 0.3134(4) 0.5472(2)
N5 N 0.6606(4) 0.3312(4) 0.5115(2)
N6 N 0.5997(5) 0.3975(5) 0.5220(2)
N7 N 0.9356(10) 0.6181(10) 0.5830(7)
O1 O 0.4774(4) 0.8075(4) 0.5646(2)
O2 O 0.7022(6) 0.2742(5) 0.6751(3)
O3 O 0.4045(4) 0.8109(4) 0.62574(19)
O4 O 0.7300(6) 0.9894(6) 0.7717(2)
O5 O 0.6234(5) 0.8803(5) 0.7725(2)
O8 O 0.8494(6) 0.5230(5) 0.6206(3)
Cd5 Cd 0.65322(4) 0.29752(4) 0.434418(18)
Cd6 Cd 0.28576(4) 0.90522(4) 0.65719(2)
Cd7 Cd 0.71424(4) 0.90522(4) 0.84281(2)
N8 N 0.2242(5) 0.8134(4) 0.5472(2)
N9 N 0.3394(4) 0.6688(4) 0.4885(2)
O9 O 0.9045(4) 0.3109(4) 0.62574(19)
O10 O 0.7700(6) 0.4894(6) 0.7283(2)
O11 O 0.8766(5) 0.3803(5) 0.7275(2)
O12 O 0.2478(6) 0.5515(6) 0.5609(2)
O13 O 0.2657(5) 0.6428(4) 0.6206(2)
H16 H 0.658268 0.25389 0.647466
H17 H 0.748028 0.223179 0.685121
C9_2 C 0.3049(6) 0.0033(6) 0.8251(3)
H5_2 H 0.2555 0.0412 0.8094
C10_2 C 0.3236(6) 0.0058(6) 0.8728(3)
C14_2 C 0.2662(6) 0.0706(6) 0.8993(3)
O6_2 O 0.2522(6) 0.0515(6) 0.9391(2)
O7_2 O 0.2343(5) 0.1428(4) 0.8794(2)
Cd4_2 Cd 0.15322(4) 0.20248(4) 0.934418(18)
Cd5_2 Cd 0.34678(4) 0.29752(4) 0.065582(18)
N9_2 N 0.6606(4) 0.6688(4) 0.0115(2)
Cd1_2 Cd 0.65322(4) 0.70248(4) 0.934418(18)
Cd2_2 Cd 0.21424(4) 0.40522(4) 0.84281(2)
C1_2 C 0.4099(6) 0.4873(6) 0.9066(3)
C2_2 C 0.4080(8) 0.5594(7) 0.8383(3)
H1_2 H 0.3820 0.5676 0.8068
C3_2 C 0.4857(7) 0.6123(7) 0.8563(3)
H2_2 H 0.5117 0.6557 0.8369
C4_2 C 0.4864(6) 0.5394(6) 0.9250(3)
H3_2 H 0.5130 0.5296 0.9562
C5_2 C 0.3672(6) 0.4185(6) 0.9344(3)
C6_2 C 0.4489(6) 0.8943(6) 0.8709(3)
C7_2 C 0.4315(6) 0.8931(6) 0.8231(3)
H4_2 H 0.4705 0.8559 0.8063
C8_2 C 0.3584(6) 0.9452(6) 0.7999(3)
C11_2 C 0.3927(6) 0.9484(6) 0.8961(3)
H6_2 H 0.4016 0.9458 0.9288
C12_2 C 0.5277(5) 0.8346(5) 0.8952(3)
C13_2 C 0.3333(6) 0.9394(7) 0.7482(3)
H8_2 H 0.0261 0.7451 0.9361
C16_2 C 0.1193(17) 0.5720(18) 0.9627(7)
H10_2 H 0.1622 0.5229 0.9543
H11_2 H 0.0726 0.5448 0.9808
H12_2 H 0.1568 0.6198 0.9810
C17_2 C 0.0903(10) 0.5834(9) 0.8810(7)
C18_2 C 0.0398(14) 0.6247(12) 0.8338(7)
H13_2 H 0.0641 0.5930 0.8082
H14_2 H 0.0533 0.6916 0.8325
N1_2 N 0.3682(5) 0.4969(5) 0.8636(2)
N2_2 N 0.5256(5) 0.6048(5) 0.9000(2)
N3_2 N 0.2922(5) 0.3674(5) 0.9184(2)
N4_2 N 0.2758(5) 0.3134(4) 0.9528(2)
N5_2 N 0.3394(4) 0.3312(4) 0.9885(2)
N6_2 N 0.4003(5) 0.3975(5) 0.9780(2)
N7_2 N 0.0644(10) 0.6181(10) 0.9170(7)
O1_2 O 0.5226(4) 0.8075(4) 0.9354(2)
O2_2 O 0.2978(6) 0.2742(5) 0.8249(3)
O3_2 O 0.5955(4) 0.8109(4) 0.87426(19)
O4_2 O 0.2700(6) 0.9894(6) 0.7283(2)
O5_2 O 0.3766(5) 0.8803(5) 0.7275(2)
O8_2 O 0.1506(6) 0.5230(5) 0.8794(3)
N8_2 N 0.7758(5) 0.8134(4) 0.9528(2)
O9_2 O 0.0955(4) 0.3109(4) 0.87426(19)
O10_2 O 0.2300(6) 0.4894(6) 0.7717(2)
O11_2 O 0.1234(5) 0.3803(5) 0.7725(2)
O12_2 O 0.7522(6) 0.5515(6) 0.9391(2)
O13_2 O 0.7343(5) 0.6428(4) 0.8794(2)
H16_2 H 0.341732 0.25389 0.852534
H17_2 H 0.251972 0.223179 0.814879
C2_3 C 0.0920(8) 0.0594(7) 0.6617(3)
H1_3 H 0.1180 0.0676 0.6932
C3_3 C 0.0143(7) 0.1123(7) 0.6437(3)
C4_3 C 0.0136(6) 0.0394(6) 0.5750(3)
C6_3 C 0.0511(6) 0.3943(6) 0.6291(3)
C7_3 C 0.0685(6) 0.3931(6) 0.6769(3)
H4_3 H 0.0295 0.3559 0.6937
C8_3 C 0.1416(6) 0.4452(6) 0.7001(3)
C9_3 C 0.1951(6) 0.5033(6) 0.6749(3)
H5_3 H 0.2445 0.5412 0.6906
C10_3 C 0.1764(6) 0.5058(6) 0.6272(3)
C11_3 C 0.1073(6) 0.4484(6) 0.6039(3)
H6_3 H 0.0984 0.4458 0.5712
C13_3 C 0.1667(6) 0.4394(7) 0.7518(3)
C14_3 C 0.2338(6) 0.5706(6) 0.6007(3)
C15_2 C 0.5053(14) 0.1912(14) 0.5801(9)
H7_2 H 0.5333 0.2098 0.6113
H8_3 H 0.4739 0.2451 0.5639
H9_2 H 0.5559 0.1682 0.5632
C16_3 C 0.3807(17) 0.0720(18) 0.5373(7)
H10_3 H 0.3378 0.0229 0.5457
H11_3 H 0.4274 0.0448 0.5192
H12_3 H 0.3432 0.1198 0.5190
C17_3 C 0.4097(10) 0.0834(9) 0.6190(7)
C18_3 C 0.4602(14) 0.1247(12) 0.6662(7)
H13_3 H 0.4359 0.0930 0.6918
H14_3 H 0.4467 0.1916 0.6675
H15_2 H 0.5295 0.1150 0.6684
N7_3 N 0.4356(10) 0.1181(10) 0.5830(7)
O8_3 O 0.3494(6) 0.0230(5) 0.6206(3)
C1_3 C 0.0901(6) 0.9873(6) 0.5934(3)
C5_3 C 0.1328(6) 0.9185(6) 0.5656(3)
N1_3 N 0.1318(5) 0.9969(5) 0.6364(2)
N3_3 N 0.2078(5) 0.8674(5) 0.5816(2)
N5_3 N 0.1606(4) 0.8312(4) 0.5115(2)
N6_3 N 0.0997(5) 0.8975(5) 0.5220(2)
O2_3 O 0.2022(6) 0.7742(5) 0.6751(3)
Cd5_3 Cd 0.15322(4) 0.79752(4) 0.434418(18)
H16_3 H 0.158268 0.75389 0.647466
H17_3 H 0.248028 0.723179 0.685121
H2_3 H 0.9883 0.1557 0.6631
H3_3 H 0.9870 0.0296 0.5438
C12_3 C 0.9723(5) 0.3346(5) 0.6048(3)
N2_3 N 0.9744(5) 0.1048(5) 0.6000(2)
O1_3 O 0.9774(4) 0.3075(4) 0.5646(2)
N9_3 N 0.8394(4) 0.1688(4) 0.4885(2)
N9_4 N 0.1606(4) 0.1688(4) 0.0115(2)
H2_4 H 0.0117 0.1557 0.8369
H3_4 H 0.0130 0.0296 0.9562
C12_4 C 0.0277(5) 0.3346(5) 0.8952(3)
N2_4 N 0.0256(5) 0.1048(5) 0.9000(2)
O1_4 O 0.0226(4) 0.3075(4) 0.9354(2)
C2_4 C 0.9080(8) 0.0594(7) 0.8383(3)
H1_4 H 0.8820 0.0676 0.8068
C3_4 C 0.9857(7) 0.1123(7) 0.8563(3)
C4_4 C 0.9864(6) 0.0394(6) 0.9250(3)
C6_4 C 0.9489(6) 0.3943(6) 0.8709(3)
C7_4 C 0.9315(6) 0.3931(6) 0.8231(3)
H4_4 H 0.9705 0.3559 0.8063
C8_4 C 0.8584(6) 0.4452(6) 0.7999(3)
C9_4 C 0.8049(6) 0.5033(6) 0.8251(3)
H5_4 H 0.7555 0.5412 0.8094
C10_4 C 0.8236(6) 0.5058(6) 0.8728(3)
C11_4 C 0.8927(6) 0.4484(6) 0.8961(3)
H6_4 H 0.9016 0.4458 0.9288
C13_4 C 0.8333(6) 0.4394(7) 0.7482(3)
C14_4 C 0.7662(6) 0.5706(6) 0.8993(3)
C15_3 C 0.4947(14) 0.1912(14) 0.9199(9)
H7_3 H 0.4667 0.2098 0.8887
H8_4 H 0.5261 0.2451 0.9361
H9_3 H 0.4441 0.1682 0.9368
C16_4 C 0.6193(17) 0.0720(18) 0.9627(7)
H10_4 H 0.6622 0.0229 0.9543
H11_4 H 0.5726 0.0448 0.9808
H12_4 H 0.6568 0.1198 0.9810
C17_4 C 0.5903(10) 0.0834(9) 0.8810(7)
C18_4 C 0.5398(14) 0.1247(12) 0.8338(7)
H13_4 H 0.5641 0.0930 0.8082
H14_4 H 0.5533 0.1916 0.8325
H15_3 H 0.4705 0.1150 0.8316
N7_4 N 0.5644(10) 0.1181(10) 0.9170(7)
O8_4 O 0.6506(6) 0.0230(5) 0.8794(3)
Cd5_4 Cd 0.84678(4) 0.79752(4) 0.065582(18)
C1_4 C 0.9099(6) 0.9873(6) 0.9066(3)
C5_4 C 0.8672(6) 0.9185(6) 0.9344(3)
N1_4 N 0.8682(5) 0.9969(5) 0.8636(2)
N3_4 N 0.7922(5) 0.8674(5) 0.9184(2)
N5_4 N 0.8394(4) 0.8312(4) 0.9885(2)
N6_4 N 0.9003(5) 0.8975(5) 0.9780(2)
O2_4 O 0.7978(6) 0.7742(5) 0.8249(3)
H16_4 H 0.841732 0.75389 0.852534
H17_4 H 0.751972 0.723179 0.814879
Cd2_3 Cd 0.21424(4) 0.59478(4) 0.34281(2)
C1_5 C 0.4099(6) 0.5127(6) 0.4066(3)
C2_5 C 0.4080(8) 0.4406(7) 0.3383(3)
H1_5 H 0.3820 0.4324 0.3068
C3_5 C 0.4857(7) 0.3877(7) 0.3563(3)
H2_5 H 0.5117 0.3443 0.3369
C4_5 C 0.4864(6) 0.4606(6) 0.4250(3)
H3_5 H 0.5130 0.4704 0.4562
C5_5 C 0.3672(6) 0.5815(6) 0.4344(3)
C6_5 C 0.4489(6) 0.1057(6) 0.3709(3)
C7_5 C 0.4315(6) 0.1069(6) 0.3231(3)
H4_5 H 0.4705 0.1441 0.3063
C8_5 C 0.3584(6) 0.0548(6) 0.2999(3)
C11_5 C 0.3927(6) 0.0516(6) 0.3961(3)
H6_5 H 0.4016 0.0542 0.4288
C12_5 C 0.5277(5) 0.1654(5) 0.3952(3)
C13_5 C 0.3333(6) 0.0606(7) 0.2482(3)
H8_5 H 0.0261 0.2549 0.4361
C16_5 C 0.1193(17) 0.4280(18) 0.4627(7)
H10_5 H 0.1622 0.4771 0.4543
H11_5 H 0.0726 0.4552 0.4808
H12_5 H 0.1568 0.3802 0.4810
C17_5 C 0.0903(10) 0.4166(9) 0.3810(7)
C18_5 C 0.0398(14) 0.3753(12) 0.3338(7)
H13_5 H 0.0641 0.4070 0.3082
H14_5 H 0.0533 0.3084 0.3325
N1_5 N 0.3682(5) 0.5031(5) 0.3636(2)
N2_5 N 0.5256(5) 0.3952(5) 0.4000(2)
N3_5 N 0.2922(5) 0.6326(5) 0.4184(2)
N4_3 N 0.2758(5) 0.6866(4) 0.4528(2)
N6_5 N 0.4003(5) 0.6025(5) 0.4780(2)
N7_5 N 0.0644(10) 0.3819(10) 0.4170(7)
O1_5 O 0.5226(4) 0.1925(4) 0.4354(2)
O2_5 O 0.2978(6) 0.7258(5) 0.3249(3)
O3_3 O 0.5955(4) 0.1891(4) 0.37426(19)
O4_3 O 0.2700(6) 0.0106(6) 0.2283(2)
O5_3 O 0.3766(5) 0.1197(5) 0.2275(2)
O8_5 O 0.1506(6) 0.4770(5) 0.3794(3)
Cd6_2 Cd 0.71424(4) 0.09478(4) 0.34281(2)
Cd7_2 Cd 0.28576(4) 0.09478(4) 0.15719(2)
N8_3 N 0.7758(5) 0.1866(4) 0.4528(2)
O9_3 O 0.0955(4) 0.6891(4) 0.37426(19)
O10_3 O 0.2300(6) 0.5106(6) 0.2717(2)
O11_3 O 0.1234(5) 0.6197(5) 0.2725(2)
O12_3 O 0.7522(6) 0.4485(6) 0.4391(2)
O13_3 O 0.7343(5) 0.3572(4) 0.3794(2)
H16_5 H 0.341732 0.74611 0.352534
H17_5 H 0.251972 0.776821 0.314879
C9_5 C 0.3049(6) 0.9967(6) 0.3251(3)
H5_5 H 0.2555 0.9588 0.3094
C10_5 C 0.3236(6) 0.9942(6) 0.3728(3)
C14_5 C 0.2662(6) 0.9294(6) 0.3993(3)
O6_3 O 0.2522(6) 0.9485(6) 0.4391(2)
O7_3 O 0.2343(5) 0.8572(4) 0.3794(2)
Cd2_4 Cd 0.78576(4) 0.59478(4) 0.15719(2)
C1_6 C 0.5901(6) 0.5127(6) 0.0934(3)
C2_6 C 0.5920(8) 0.4406(7) 0.1617(3)
H1_6 H 0.6180 0.4324 0.1932
C3_6 C 0.5143(7) 0.3877(7) 0.1437(3)
H2_6 H 0.4883 0.3443 0.1631
C4_6 C 0.5136(6) 0.4606(6) 0.0750(3)
H3_6 H 0.4870 0.4704 0.0438
C5_6 C 0.6328(6) 0.5815(6) 0.0656(3)
C6_6 C 0.5511(6) 0.1057(6) 0.1291(3)
C7_6 C 0.5685(6) 0.1069(6) 0.1769(3)
H4_6 H 0.5295 0.1441 0.1937
C8_6 C 0.6416(6) 0.0548(6) 0.2001(3)
C11_6 C 0.6073(6) 0.0516(6) 0.1039(3)
H6_6 H 0.5984 0.0542 0.0712
C12_6 C 0.4723(5) 0.1654(5) 0.1048(3)
C13_6 C 0.6667(6) 0.0606(7) 0.2518(3)
H8_6 H 0.9739 0.2549 0.0639
C16_6 C 0.8807(17) 0.4280(18) 0.0373(7)
H10_6 H 0.8378 0.4771 0.0457
H11_6 H 0.9274 0.4552 0.0192
H12_6 H 0.8432 0.3802 0.0190
C17_6 C 0.9097(10) 0.4166(9) 0.1190(7)
C18_6 C 0.9602(14) 0.3753(12) 0.1662(7)
H13_6 H 0.9359 0.4070 0.1918
H14_6 H 0.9467 0.3084 0.1675
N1_6 N 0.6318(5) 0.5031(5) 0.1364(2)
N2_6 N 0.4744(5) 0.3952(5) 0.1000(2)
N3_6 N 0.7078(5) 0.6326(5) 0.0816(2)
N4_4 N 0.7242(5) 0.6866(4) 0.0472(2)
N6_6 N 0.5997(5) 0.6025(5) 0.0220(2)
N7_6 N 0.9356(10) 0.3819(10) 0.0830(7)
O1_6 O 0.4774(4) 0.1925(4) 0.0646(2)
O2_6 O 0.7022(6) 0.7258(5) 0.1751(3)
O3_4 O 0.4045(4) 0.1891(4) 0.12574(19)
O4_4 O 0.7300(6) 0.0106(6) 0.2717(2)
O5_4 O 0.6234(5) 0.1197(5) 0.2725(2)
O8_6 O 0.8494(6) 0.4770(5) 0.1206(3)
N8_4 N 0.2242(5) 0.1866(4) 0.0472(2)
O9_4 O 0.9045(4) 0.6891(4) 0.12574(19)
O10_4 O 0.7700(6) 0.5106(6) 0.2283(2)
O11_4 O 0.8766(5) 0.6197(5) 0.2275(2)
O12_4 O 0.2478(6) 0.4485(6) 0.0609(2)
O13_4 O 0.2657(5) 0.3572(4) 0.1206(2)
H16_6 H 0.658268 0.74611 0.147466
H17_6 H 0.748028 0.776821 0.185121
C9_6 C 0.6951(6) 0.9967(6) 0.1749(3)
H5_6 H 0.7445 0.9588 0.1906
C10_6 C 0.6764(6) 0.9942(6) 0.1272(3)
C14_6 C 0.7338(6) 0.9294(6) 0.1007(3)
O6_4 O 0.7478(6) 0.9485(6) 0.0609(2)
O7_4 O 0.7657(5) 0.8572(4) 0.1206(2)
H2_7 H 0.0117 0.8443 0.3369
H3_7 H 0.0130 0.9704 0.4562
C12_7 C 0.0277(5) 0.6654(5) 0.3952(3)
N2_7 N 0.0256(5) 0.8952(5) 0.4000(2)
O1_7 O 0.0226(4) 0.6925(4) 0.4354(2)
C1_7 C 0.9099(6) 0.0127(6) 0.4066(3)
C5_7 C 0.8672(6) 0.0815(6) 0.4344(3)
N1_7 N 0.8682(5) 0.0031(5) 0.3636(2)
N3_7 N 0.7922(5) 0.1326(5) 0.4184(2)
N6_7 N 0.9003(5) 0.1025(5) 0.4780(2)
O2_7 O 0.7978(6) 0.2258(5) 0.3249(3)
H16_7 H 0.841732 0.24611 0.352534
H17_7 H 0.751972 0.276821 0.314879
C2_7 C 0.9080(8) 0.9406(7) 0.3383(3)
H1_7 H 0.8820 0.9324 0.3068
C3_7 C 0.9857(7) 0.8877(7) 0.3563(3)
C4_7 C 0.9864(6) 0.9606(6) 0.4250(3)
C6_7 C 0.9489(6) 0.6057(6) 0.3709(3)
C7_7 C 0.9315(6) 0.6069(6) 0.3231(3)
H4_7 H 0.9705 0.6441 0.3063
C8_7 C 0.8584(6) 0.5548(6) 0.2999(3)
C9_7 C 0.8049(6) 0.4967(6) 0.3251(3)
H5_7 H 0.7555 0.4588 0.3094
C10_7 C 0.8236(6) 0.4942(6) 0.3728(3)
C11_7 C 0.8927(6) 0.5516(6) 0.3961(3)
H6_7 H 0.9016 0.5542 0.4288
C13_7 C 0.8333(6) 0.5606(7) 0.2482(3)
C14_7 C 0.7662(6) 0.4294(6) 0.3993(3)
C15_4 C 0.4947(14) 0.8088(14) 0.4199(9)
H7_4 H 0.4667 0.7902 0.3887
H8_7 H 0.5261 0.7549 0.4361
H9_4 H 0.4441 0.8318 0.4368
C16_7 C 0.6193(17) 0.9280(18) 0.4627(7)
H10_7 H 0.6622 0.9771 0.4543
H11_7 H 0.5726 0.9552 0.4808
H12_7 H 0.6568 0.8802 0.4810
C17_7 C 0.5903(10) 0.9166(9) 0.3810(7)
C18_7 C 0.5398(14) 0.8753(12) 0.3338(7)
H13_7 H 0.5641 0.9070 0.3082
H14_7 H 0.5533 0.8084 0.3325
H15_4 H 0.4705 0.8850 0.3316
N7_7 N 0.5644(10) 0.8819(10) 0.4170(7)
O8_7 O 0.6506(6) 0.9770(5) 0.3794(3)
C1_8 C 0.0901(6) 0.0127(6) 0.0934(3)
C5_8 C 0.1328(6) 0.0815(6) 0.0656(3)
N1_8 N 0.1318(5) 0.0031(5) 0.1364(2)
N3_8 N 0.2078(5) 0.1326(5) 0.0816(2)
N6_8 N 0.0997(5) 0.1025(5) 0.0220(2)
O2_8 O 0.2022(6) 0.2258(5) 0.1751(3)
H16_8 H 0.158268 0.24611 0.147466
H17_8 H 0.248028 0.276821 0.185121
C2_8 C 0.0920(8) 0.9406(7) 0.1617(3)
H1_8 H 0.1180 0.9324 0.1932
C3_8 C 0.0143(7) 0.8877(7) 0.1437(3)
C4_8 C 0.0136(6) 0.9606(6) 0.0750(3)
C6_8 C 0.0511(6) 0.6057(6) 0.1291(3)
C7_8 C 0.0685(6) 0.6069(6) 0.1769(3)
H4_8 H 0.0295 0.6441 0.1937
C8_8 C 0.1416(6) 0.5548(6) 0.2001(3)
C9_8 C 0.1951(6) 0.4967(6) 0.1749(3)
H5_8 H 0.2445 0.4588 0.1906
C10_8 C 0.1764(6) 0.4942(6) 0.1272(3)
C11_8 C 0.1073(6) 0.5516(6) 0.1039(3)
H6_8 H 0.0984 0.5542 0.0712
C13_8 C 0.1667(6) 0.5606(7) 0.2518(3)
C14_8 C 0.2338(6) 0.4294(6) 0.1007(3)
C15_5 C 0.5053(14) 0.8088(14) 0.0801(9)
H7_5 H 0.5333 0.7902 0.1113
H8_8 H 0.4739 0.7549 0.0639
H9_5 H 0.5559 0.8318 0.0632
C16_8 C 0.3807(17) 0.9280(18) 0.0373(7)
H10_8 H 0.3378 0.9771 0.0457
H11_8 H 0.4274 0.9552 0.0192
H12_8 H 0.3432 0.8802 0.0190
C17_8 C 0.4097(10) 0.9166(9) 0.1190(7)
C18_8 C 0.4602(14) 0.8753(12) 0.1662(7)
H13_8 H 0.4359 0.9070 0.1918
H14_8 H 0.4467 0.8084 0.1675
H15_5 H 0.5295 0.8850 0.1684
N7_8 N 0.4356(10) 0.8819(10) 0.0830(7)
O8_8 O 0.3494(6) 0.9770(5) 0.1206(3)
H2_8 H 0.9883 0.8443 0.1631
H3_8 H 0.9870 0.9704 0.0438
C12_8 C 0.9723(5) 0.6654(5) 0.1048(3)
N2_8 N 0.9744(5) 0.8952(5) 0.1000(2)
O1_8 O 0.9774(4) 0.6925(4) 0.0646(2)
C15_6 C 0.9947(14) 0.6912(14) 0.9199(9)
H7_6 H 0.9667 0.7098 0.8887
H9_6 H 0.9441 0.6682 0.9368
H15_6 H 0.9705 0.6150 0.8316
C15_7 C 0.9947(14) 0.3088(14) 0.4199(9)
H7_7 H 0.9667 0.2902 0.3887
H9_7 H 0.9441 0.3318 0.4368
H15_7 H 0.9705 0.3850 0.3316
C15_8 C 0.0053(14) 0.3088(14) 0.0801(9)
H7_8 H 0.0333 0.2902 0.1113
H9_8 H 0.0559 0.3318 0.0632
H15_8 H 0.0295 0.3850 0.1684
loop_
_geom_bond_atom_site_label_1
_geom_bond_atom_site_label_2
_geom_bond_site_symmetry_1
_geom_bond_site_symmetry_2
C15 H7 1_555 1_555
H9 C15 1_555 1_555
H5 C9 1_555 1_555
C10 C9 1_555 1_555
C14 C10 1_555 1_555
O6 C14 1_555 1_555
O7 C14 1_555 1_555
Cd4 O6 1_555 1_555
O7 Cd4 1_555 1_555
Cd1 N2 1_555 1_555
Cd2 N1 1_555 1_555
C1 C4 1_555 1_555
C2 H1 1_555 1_555
C3 C2 1_555 1_555
H2 C3 1_555 1_555
C4 H3 1_555 1_555
C5 C1 1_555 1_555
C6 C7 1_555 1_555
C7 H4 1_555 1_555
C8 C7 1_555 1_555
C11 C6 1_555 1_555
H6 C11 1_555 1_555
C12 C6 1_555 1_555
C13 C8 1_555 1_555
C16 H10 1_555 1_555
H11 C16 1_555 1_555
H12 C16 1_555 1_555
C17 C18 1_555 1_555
C18 H13 1_555 1_555
H14 C18 1_555 1_555
N1 C1 1_555 1_555
N2 C3 1_555 1_555
N3 Cd2 1_555 1_555
N4 N3 1_555 1_555
N5 N4 1_555 1_555
N6 C5 1_555 1_555
O1 Cd1 1_555 1_555
O2 Cd2 1_555 1_555
O3 Cd1 1_555 1_555
O4 C13 1_555 1_555
O5 C13 1_555 1_555
O8 Cd2 1_555 1_555
Cd4 N4 1_555 1_555
Cd5 N5 1_555 1_555
Cd6 O3 1_555 1_555
Cd7 O4 1_555 1_555
N8 Cd1 1_555 1_555
N9 Cd1 1_555 1_555
O9 Cd2 1_555 1_555
O10 Cd2 1_555 1_555
O11 Cd2 1_555 1_555
O12 Cd1 1_555 1_555
O13 Cd1 1_555 1_555
C2 N1 1_555 1_555
C4 N2 1_555 1_555
C5 N3 1_555 1_555
C12 O1 1_555 1_555
C12 O3 1_555 1_555
C16 N7 1_555 1_555
C17 N7 1_555 1_555
C17 O8 1_555 1_555
N5 N6 1_555 1_555
O5 Cd7 1_555 1_555
Cd4 O9 1_555 1_555
O2 H16 1_555 1_555
O2 H17 1_555 1_555
H5_2 C9_2 1_555 1_555
C10_2 C9_2 1_555 1_555
C14_2 C10_2 1_555 1_555
O6_2 C14_2 1_555 1_555
O7_2 C14_2 1_555 1_555
Cd4_2 O6_2 1_555 1_555
O7_2 Cd4_2 1_555 1_555
Cd1_2 N2_2 1_555 1_555
Cd2_2 N1_2 1_555 1_555
C1_2 C4_2 1_555 1_555
C2_2 H1_2 1_555 1_555
C3_2 C2_2 1_555 1_555
H2_2 C3_2 1_555 1_555
C4_2 H3_2 1_555 1_555
C5_2 C1_2 1_555 1_555
C6_2 C7_2 1_555 1_555
C7_2 H4_2 1_555 1_555
C8_2 C7_2 1_555 1_555
C11_2 C6_2 1_555 1_555
H6_2 C11_2 1_555 1_555
C12_2 C6_2 1_555 1_555
C13_2 C8_2 1_555 1_555
C16_2 H10_2 1_555 1_555
H11_2 C16_2 1_555 1_555
H12_2 C16_2 1_555 1_555
C17_2 C18_2 1_555 1_555
C18_2 H13_2 1_555 1_555
H14_2 C18_2 1_555 1_555
N1_2 C1_2 1_555 1_555
N2_2 C3_2 1_555 1_555
N3_2 Cd2_2 1_555 1_555
N4_2 N3_2 1_555 1_555
N5_2 N4_2 1_555 1_555
N6_2 C5_2 1_555 1_555
O1_2 Cd1_2 1_555 1_555
O2_2 Cd2_2 1_555 1_555
O3_2 Cd1_2 1_555 1_555
O4_2 C13_2 1_555 1_555
O5_2 C13_2 1_555 1_555
O8_2 Cd2_2 1_555 1_555
Cd4_2 N4_2 1_555 1_555
Cd7 O3_2 1_555 1_555
Cd6 O4_2 1_555 1_555
N8_2 Cd1_2 1_555 1_555
O9_2 Cd2_2 1_555 1_555
O10_2 Cd2_2 1_555 1_555
O11_2 Cd2_2 1_555 1_555
O12_2 Cd1_2 1_555 1_555
O13_2 Cd1_2 1_555 1_555
C2_2 N1_2 1_555 1_555
C4_2 N2_2 1_555 1_555
C5_2 N3_2 1_555 1_555
C12_2 O1_2 1_555 1_555
C12_2 O3_2 1_555 1_555
C16_2 N7_2 1_555 1_555
C17_2 N7_2 1_555 1_555
C17_2 O8_2 1_555 1_555
N5_2 N6_2 1_555 1_555
O5_2 Cd6 1_555 1_555
Cd4_2 O9_2 1_555 1_555
O2_2 H16_2 1_555 1_555
O2_2 H17_2 1_555 1_555
C2_3 H1_3 1_555 1_555
C3_3 C2_3 1_555 1_555
C6_3 C7_3 1_555 1_555
C7_3 H4_3 1_555 1_555
C8_3 C7_3 1_555 1_555
C9_3 C8_3 1_555 1_555
H5_3 C9_3 1_555 1_555
C10_3 C9_3 1_555 1_555
C11_3 C6_3 1_555 1_555
H6_3 C11_3 1_555 1_555
C13_3 C8_3 1_555 1_555
C14_3 C10_3 1_555 1_555
C15_2 H7_2 1_555 1_555
H8_3 C15_2 1_555 1_555
H9_2 C15_2 1_555 1_555
C16_3 H10_3 1_555 1_555
H11_3 C16_3 1_555 1_555
H12_3 C16_3 1_555 1_555
C17_3 C18_3 1_555 1_555
C18_3 H13_3 1_555 1_555
H14_3 C18_3 1_555 1_555
H15_2 C18_3 1_555 1_555
N7_3 C15_2 1_555 1_555
O10_2 C13_3 1_555 1_555
O11_2 C13_3 1_555 1_555
O12 C14_3 1_555 1_555
O13 C14_3 1_555 1_555
C10_3 C11_3 1_555 1_555
C16_3 N7_3 1_555 1_555
C17_3 N7_3 1_555 1_555
C17_3 O8_3 1_555 1_555
Cd6 N1_3 1_555 1_555
C5_3 C1_3 1_555 1_555
N1_3 C1_3 1_555 1_555
N3_3 Cd6 1_555 1_555
N8 N3_3 1_555 1_555
N5_3 N8 1_555 1_555
N6_3 C5_3 1_555 1_555
O2_3 Cd6 1_555 1_555
Cd5_3 N5_3 1_555 1_555
C5_3 N3_3 1_555 1_555
N5_3 N6_3 1_555 1_555
O2_3 H16_3 1_555 1_555
O2_3 H17_3 1_555 1_555
Cd4 N2_3 1_555 1_555
O1_3 Cd4 1_555 1_555
N9_3 Cd4 1_555 1_555
C12_3 O1_3 1_555 1_555
C12_3 O9 1_555 1_555
Cd4_2 N2_4 1_555 1_555
O1_4 Cd4_2 1_555 1_555
C12_4 O1_4 1_555 1_555
C12_4 O9_2 1_555 1_555
C2_4 H1_4 1_555 1_555
C3_4 C2_4 1_555 1_555
C6_4 C7_4 1_555 1_555
C7_4 H4_4 1_555 1_555
C8_4 C7_4 1_555 1_555
C9_4 C8_4 1_555 1_555
H5_4 C9_4 1_555 1_555
C10_4 C9_4 1_555 1_555
C11_4 C6_4 1_555 1_555
H6_4 C11_4 1_555 1_555
C13_4 C8_4 1_555 1_555
C14_4 C10_4 1_555 1_555
C15_3 H7_3 1_555 1_555
H8_4 C15_3 1_555 1_555
H9_3 C15_3 1_555 1_555
C16_4 H10_4 1_555 1_555
H11_4 C16_4 1_555 1_555
H12_4 C16_4 1_555 1_555
C17_4 C18_4 1_555 1_555
C18_4 H13_4 1_555 1_555
H14_4 C18_4 1_555 1_555
H15_3 C18_4 1_555 1_555
N7_4 C15_3 1_555 1_555
O10 C13_4 1_555 1_555
O11 C13_4 1_555 1_555
O12_2 C14_4 1_555 1_555
O13_2 C14_4 1_555 1_555
C10_4 C11_4 1_555 1_555
C16_4 N7_4 1_555 1_555
C17_4 N7_4 1_555 1_555
C17_4 O8_4 1_555 1_555
Cd7 N1_4 1_555 1_555
C5_4 C1_4 1_555 1_555
N1_4 C1_4 1_555 1_555
N3_4 Cd7 1_555 1_555
N8_2 N3_4 1_555 1_555
N5_4 N8_2 1_555 1_555
N6_4 C5_4 1_555 1_555
O2_4 Cd7 1_555 1_555
C5_4 N3_4 1_555 1_555
N5_4 N6_4 1_555 1_555
O2_4 H16_4 1_555 1_555
O2_4 H17_4 1_555 1_555
Cd5 N2_5 1_555 1_555
Cd2_3 N1_5 1_555 1_555
C1_5 C4_5 1_555 1_555
C2_5 H1_5 1_555 1_555
C3_5 C2_5 1_555 1_555
H2_5 C3_5 1_555 1_555
C4_5 H3_5 1_555 1_555
C5_5 C1_5 1_555 1_555
C6_5 C7_5 1_555 1_555
C7_5 H4_5 1_555 1_555
C8_5 C7_5 1_555 1_555
C11_5 C6_5 1_555 1_555
H6_5 C11_5 1_555 1_555
C12_5 C6_5 1_555 1_555
C13_5 C8_5 1_555 1_555
C16_5 H10_5 1_555 1_555
H11_5 C16_5 1_555 1_555
H12_5 C16_5 1_555 1_555
C17_5 C18_5 1_555 1_555
C18_5 H13_5 1_555 1_555
H14_5 C18_5 1_555 1_555
N1_5 C1_5 1_555 1_555
N2_5 C3_5 1_555 1_555
N3_5 Cd2_3 1_555 1_555
N4_3 N3_5 1_555 1_555
N9 N4_3 1_555 1_555
N6_5 C5_5 1_555 1_555
O1_5 Cd5 1_555 1_555
O2_5 Cd2_3 1_555 1_555
O3_3 Cd5 1_555 1_555
O4_3 C13_5 1_555 1_555
O5_3 C13_5 1_555 1_555
O8_5 Cd2_3 1_555 1_555
Cd5_3 N4_3 1_555 1_555
Cd6_2 O3_3 1_555 1_555
Cd7_2 O4_3 1_555 1_555
N8_3 Cd5 1_555 1_555
O9_3 Cd2_3 1_555 1_555
O10_3 Cd2_3 1_555 1_555
O11_3 Cd2_3 1_555 1_555
O12_3 Cd5 1_555 1_555
O13_3 Cd5 1_555 1_555
C2_5 N1_5 1_555 1_555
C4_5 N2_5 1_555 1_555
C5_5 N3_5 1_555 1_555
C12_5 O1_5 1_555 1_555
C12_5 O3_3 1_555 1_555
C16_5 N7_5 1_555 1_555
C17_5 N7_5 1_555 1_555
C17_5 O8_5 1_555 1_555
N9 N6_5 1_555 1_555
O5_3 Cd7_2 1_555 1_555
Cd5_3 O9_3 1_555 1_555
O2_5 H16_5 1_555 1_555
O2_5 H17_5 1_555 1_555
H5_5 C9_5 1_555 1_555
C10_5 C9_5 1_555 1_555
C14_5 C10_5 1_555 1_555
O6_3 C14_5 1_555 1_555
O7_3 C14_5 1_555 1_555
Cd5_3 O6_3 1_555 1_555
O7_3 Cd5_3 1_555 1_555
Cd5_2 N2_6 1_555 1_555
Cd2_4 N1_6 1_555 1_555
C1_6 C4_6 1_555 1_555
C2_6 H1_6 1_555 1_555
C3_6 C2_6 1_555 1_555
H2_6 C3_6 1_555 1_555
C4_6 H3_6 1_555 1_555
C5_6 C1_6 1_555 1_555
C6_6 C7_6 1_555 1_555
C7_6 H4_6 1_555 1_555
C8_6 C7_6 1_555 1_555
C11_6 C6_6 1_555 1_555
H6_6 C11_6 1_555 1_555
C12_6 C6_6 1_555 1_555
C13_6 C8_6 1_555 1_555
C16_6 H10_6 1_555 1_555
H11_6 C16_6 1_555 1_555
H12_6 C16_6 1_555 1_555
C17_6 C18_6 1_555 1_555
C18_6 H13_6 1_555 1_555
H14_6 C18_6 1_555 1_555
N1_6 C1_6 1_555 1_555
N2_6 C3_6 1_555 1_555
N3_6 Cd2_4 1_555 1_555
N4_4 N3_6 1_555 1_555
N9_2 N4_4 1_555 1_555
N6_6 C5_6 1_555 1_555
O1_6 Cd5_2 1_555 1_555
O2_6 Cd2_4 1_555 1_555
O3_4 Cd5_2 1_555 1_555
O4_4 C13_6 1_555 1_555
O5_4 C13_6 1_555 1_555
O8_6 Cd2_4 1_555 1_555
Cd5_4 N4_4 1_555 1_555
Cd7_2 O3_4 1_555 1_555
Cd6_2 O4_4 1_555 1_555
N8_4 Cd5_2 1_555 1_555
O9_4 Cd2_4 1_555 1_555
O10_4 Cd2_4 1_555 1_555
O11_4 Cd2_4 1_555 1_555
O12_4 Cd5_2 1_555 1_555
O13_4 Cd5_2 1_555 1_555
C2_6 N1_6 1_555 1_555
C4_6 N2_6 1_555 1_555
C5_6 N3_6 1_555 1_555
C12_6 O1_6 1_555 1_555
C12_6 O3_4 1_555 1_555
C16_6 N7_6 1_555 1_555
C17_6 N7_6 1_555 1_555
C17_6 O8_6 1_555 1_555
N9_2 N6_6 1_555 1_555
O5_4 Cd6_2 1_555 1_555
Cd5_4 O9_4 1_555 1_555
O2_6 H16_6 1_555 1_555
O2_6 H17_6 1_555 1_555
H5_6 C9_6 1_555 1_555
C10_6 C9_6 1_555 1_555
C14_6 C10_6 1_555 1_555
O6_4 C14_6 1_555 1_555
O7_4 C14_6 1_555 1_555
Cd5_4 O6_4 1_555 1_555
O7_4 Cd5_4 1_555 1_555
Cd5_3 N2_7 1_555 1_555
O1_7 Cd5_3 1_555 1_555
C12_7 O1_7 1_555 1_555
C12_7 O9_3 1_555 1_555
Cd6_2 N1_7 1_555 1_555
C5_7 C1_7 1_555 1_555
N1_7 C1_7 1_555 1_555
N3_7 Cd6_2 1_555 1_555
N8_3 N3_7 1_555 1_555
N9_3 N8_3 1_555 1_555
N6_7 C5_7 1_555 1_555
O2_7 Cd6_2 1_555 1_555
C5_7 N3_7 1_555 1_555
N9_3 N6_7 1_555 1_555
O2_7 H16_7 1_555 1_555
O2_7 H17_7 1_555 1_555
C2_7 H1_7 1_555 1_555
C3_7 C2_7 1_555 1_555
C6_7 C7_7 1_555 1_555
C7_7 H4_7 1_555 1_555
C8_7 C7_7 1_555 1_555
C9_7 C8_7 1_555 1_555
H5_7 C9_7 1_555 1_555
C10_7 C9_7 1_555 1_555
C11_7 C6_7 1_555 1_555
H6_7 C11_7 1_555 1_555
C13_7 C8_7 1_555 1_555
C14_7 C10_7 1_555 1_555
C15_4 H7_4 1_555 1_555
H8_7 C15_4 1_555 1_555
H9_4 C15_4 1_555 1_555
C16_7 H10_7 1_555 1_555
H11_7 C16_7 1_555 1_555
H12_7 C16_7 1_555 1_555
C17_7 C18_7 1_555 1_555
C18_7 H13_7 1_555 1_555
H14_7 C18_7 1_555 1_555
H15_4 C18_7 1_555 1_555
N7_7 C15_4 1_555 1_555
O10_4 C13_7 1_555 1_555
O11_4 C13_7 1_555 1_555
O12_3 C14_7 1_555 1_555
O13_3 C14_7 1_555 1_555
C10_7 C11_7 1_555 1_555
C16_7 N7_7 1_555 1_555
C17_7 N7_7 1_555 1_555
C17_7 O8_7 1_555 1_555
Cd7_2 N1_8 1_555 1_555
C5_8 C1_8 1_555 1_555
N1_8 C1_8 1_555 1_555
N3_8 Cd7_2 1_555 1_555
N8_4 N3_8 1_555 1_555
N9_4 N8_4 1_555 1_555
N6_8 C5_8 1_555 1_555
O2_8 Cd7_2 1_555 1_555
C5_8 N3_8 1_555 1_555
N9_4 N6_8 1_555 1_555
O2_8 H16_8 1_555 1_555
O2_8 H17_8 1_555 1_555
C2_8 H1_8 1_555 1_555
C3_8 C2_8 1_555 1_555
C6_8 C7_8 1_555 1_555
C7_8 H4_8 1_555 1_555
C8_8 C7_8 1_555 1_555
C9_8 C8_8 1_555 1_555
H5_8 C9_8 1_555 1_555
C10_8 C9_8 1_555 1_555
C11_8 C6_8 1_555 1_555
H6_8 C11_8 1_555 1_555
C13_8 C8_8 1_555 1_555
C14_8 C10_8 1_555 1_555
C15_5 H7_5 1_555 1_555
H8_8 C15_5 1_555 1_555
H9_5 C15_5 1_555 1_555
C16_8 H10_8 1_555 1_555
H11_8 C16_8 1_555 1_555
H12_8 C16_8 1_555 1_555
C17_8 C18_8 1_555 1_555
C18_8 H13_8 1_555 1_555
H14_8 C18_8 1_555 1_555
H15_5 C18_8 1_555 1_555
N7_8 C15_5 1_555 1_555
O10_3 C13_8 1_555 1_555
O11_3 C13_8 1_555 1_555
O12_4 C14_8 1_555 1_555
O13_4 C14_8 1_555 1_555
C10_8 C11_8 1_555 1_555
C16_8 N7_8 1_555 1_555
C17_8 N7_8 1_555 1_555
C17_8 O8_8 1_555 1_555
Cd5_4 N2_8 1_555 1_555
O1_8 Cd5_4 1_555 1_555
C12_8 O1_8 1_555 1_555
C12_8 O9_4 1_555 1_555
C15_6 H7_6 1_555 1_555
H9_6 C15_6 1_555 1_555
C15_7 H7_7 1_555 1_555
H9_7 C15_7 1_555 1_555
C15_8 H7_8 1_555 1_555
H9_8 C15_8 1_555 1_555

#END
