
###############################################################################
#
# This file contains modified crystal structure data generated from the
# MOF subset of the Cambridge Structural Database (CSD) v543 
# hosted by the Cambridge Crystallographic Data Centre (CCDC).
#
# This work is licensed under the Creative Commons
# Attribution-NonCommercial-ShareAlike 4.0 International License.
# To view a copy of this license, visit
# http://creativecommons.org/licenses/by-nc-sa/4.0/
# or send a letter to
# Creative Commons, PO Box 1866, Mountain View, CA 94042, USA.
#
# CIF created using the CSD Python API on 29 September 2022
# The structure has been converted into the P1 space group
# The structure has a 3D framework
# The original CSD entry HEPLUM is in the monoclinic crystal system
# The framework has been calculated to contain at least 10.0% void space
# The void calculation uses a probe of radius 1.32A, grid spacing 0.4
#
###############################################################################

data_HEPLUM
_chemical_formula_moiety         '(C280 H312 Mn8 N16 O36 S36)n'
_symmetry_cell_setting           triclinic
_symmetry_space_group_name_H-M   'P 1'
_symmetry_Int_Tables_number      1
_space_group_name_Hall           'P 1'
loop_
_symmetry_equiv_pos_site_id
_symmetry_equiv_pos_as_xyz
1 x,y,z
_cell_length_a                   23.1233(11)
_cell_length_b                   19.3037(10)
_cell_length_c                   21.8209(12)
_cell_angle_alpha                90
_cell_angle_beta                 106.950(2)
_cell_angle_gamma                90
_cell_volume                     9316.98
loop_
_atom_site_label
_atom_site_type_symbol
_atom_site_fract_x
_atom_site_fract_y
_atom_site_fract_z
C70 C 0.3636(2) 0.3792(2) 0.0064(3)
H77 H 0.3858 0.3843 0.0519
Mn1 Mn 0.69961(2) 0.24446(2) 0.58043(2)
S1 S 0.5000 0.19156(4) 0.7500
C1 C 0.44932(11) 0.13454(12) 0.69585(11)
C2 C 0.46784(11) 0.09373(12) 0.65164(11)
C3 C 0.42373(11) 0.05016(12) 0.61147(11)
C4 C 0.36362(11) 0.05386(13) 0.61084(12)
H1 H 0.3346 0.0258 0.5816
C5 C 0.34485(12) 0.09763(14) 0.65188(13)
C6 C 0.38902(12) 0.13593(13) 0.69538(13)
H2 H 0.3777 0.1640 0.7258
S2 S 0.54305(3) 0.09974(3) 0.64723(3)
C7 C 0.52898(13) 0.12544(16) 0.56368(13)
H3 H 0.5363 0.0855 0.5385
H4 H 0.4862 0.1396 0.5459
C8 C 0.56985(12) 0.18501(14) 0.55786(13)
O1 O 0.62583(9) 0.17573(10) 0.58125(9)
O2 O 0.54529(11) 0.23809(13) 0.52977(15)
C9 C 0.27888(14) 0.10143(19) 0.65048(19)
C10 C 0.2530(3) 0.1681(4) 0.6249(5)
H5 H 0.2108 0.1616 0.5993
H6 H 0.2762 0.1876 0.5979
H7 H 0.2546 0.1999 0.6604
C11 C 0.2745(3) 0.0873(4) 0.7153(5)
H8 H 0.2870 0.1285 0.7422
H9 H 0.3010 0.0484 0.7341
H10 H 0.2326 0.0756 0.7129
C12 C 0.2403(3) 0.0452(4) 0.6105(5)
H12 H 0.2407 0.0498 0.5659
H13 H 0.1987 0.0495 0.6127
N1 N 0.76765(11) 0.17297(12) 0.64614(11)
C25 C 0.81755(15) 0.19646(16) 0.68774(15)
H27 H 0.8207 0.2448 0.6962
C26 C 0.86504(16) 0.15468(19) 0.71942(19)
H28 H 0.8995 0.1735 0.7500
C27 C 0.86148(16) 0.08470(19) 0.7058(2)
H29 H 0.8937 0.0545 0.7265
C28 C 0.81085(17) 0.05975(17) 0.6619(2)
H30 H 0.8075 0.0119 0.6512
C29 C 0.76479(16) 0.10485(16) 0.63353(17)
H31 H 0.7294 0.0870 0.6037
N2 N 0.67515(11) 0.30683(12) 0.66081(11)
C30 C 0.63656(16) 0.28299(16) 0.69073(15)
H32 H 0.6255 0.2355 0.6858
C31 C 0.61182(18) 0.32371(18) 0.72848(18)
H33 H 0.5848 0.3042 0.7493
C32 C 0.62652(18) 0.39231(18) 0.73565(19)
H34 H 0.6096 0.4216 0.7610
C33 C 0.66646(19) 0.41796(17) 0.7053(2)
H35 H 0.6776 0.4655 0.7091
C34 C 0.68988(16) 0.37386(16) 0.66929(16)
H36 H 0.7181 0.3919 0.6493
O5 O 0.63404(10) 0.30990(11) 0.51187(11)
C35 C 0.6364(2) 0.3792(2) 0.4936(3)
H37 H 0.6181 0.4087 0.5193
H38 H 0.6142 0.3843 0.4481
H39 H 0.6787 0.3928 0.5005
C36 C 0.55068(11) 0.13454(12) 0.80415(11)
C37 C 0.53216(11) 0.09373(12) 0.84836(11)
C38 C 0.57627(11) 0.05016(12) 0.88853(11)
C39 C 0.63638(11) 0.05386(13) 0.88916(12)
H40 H 0.6654 0.0258 0.9184
C40 C 0.65515(12) 0.09763(14) 0.84812(13)
C41 C 0.61098(12) 0.13593(13) 0.80462(13)
H41 H 0.6223 0.1640 0.7742
S6 S 0.45695(3) 0.09974(3) 0.85277(3)
C42 C 0.47102(13) 0.12544(16) 0.93632(13)
H42 H 0.4637 0.0855 0.9615
H43 H 0.5138 0.1396 0.9541
C43 C 0.43015(12) 0.18501(14) 0.94214(13)
O6 O 0.37417(9) 0.17573(10) 0.91875(9)
O7 O 0.45471(11) 0.23809(13) 0.97023(15)
C44 C 0.72112(14) 0.10143(19) 0.84952(19)
C45 C 0.7470(3) 0.1681(4) 0.8751(5)
H44 H 0.7892 0.1616 0.9007
H45 H 0.7238 0.1876 0.9021
H46 H 0.7454 0.1999 0.8396
C46 C 0.7255(3) 0.0873(4) 0.7847(5)
H47 H 0.7130 0.1285 0.7578
H48 H 0.6990 0.0484 0.7659
H49 H 0.7674 0.0756 0.7871
C47 C 0.7597(3) 0.0452(4) 0.8895(5)
H51 H 0.7593 0.0498 0.9341
H52 H 0.8013 0.0495 0.8873
Mn2 Mn 0.30039(2) 0.24446(2) 0.91957(2)
N3 N 0.23235(11) 0.17297(12) 0.85386(11)
C60 C 0.18245(15) 0.19646(16) 0.81226(15)
H66 H 0.1793 0.2448 0.8038
C61 C 0.13496(16) 0.15468(19) 0.78058(19)
H67 H 0.1005 0.1735 0.7500
C62 C 0.13852(16) 0.08470(19) 0.7942(2)
H68 H 0.1063 0.0545 0.7735
C63 C 0.18915(17) 0.05975(17) 0.8381(2)
H69 H 0.1925 0.0119 0.8488
C64 C 0.23521(16) 0.10485(16) 0.86647(17)
H70 H 0.2706 0.0870 0.8963
N4 N 0.32485(11) 0.30683(12) 0.83919(11)
C65 C 0.36344(16) 0.28299(16) 0.80927(15)
H71 H 0.3745 0.2355 0.8142
C66 C 0.38818(18) 0.32371(18) 0.77152(18)
H72 H 0.4152 0.3042 0.7507
C67 C 0.37348(18) 0.39231(18) 0.76435(19)
H73 H 0.3904 0.4216 0.7390
C68 C 0.33354(19) 0.41796(17) 0.7947(2)
H74 H 0.3224 0.4655 0.7909
C69 C 0.31012(16) 0.37386(16) 0.83071(16)
H75 H 0.2819 0.3919 0.8507
O10 O 0.36596(10) 0.30990(11) 0.98813(11)
H76 H 0.3819 0.4087 0.9807
H78 H 0.3213 0.3928 0.9995
O11 O 0.72101(9) 0.18484(10) 0.50658(9)
O12 O 0.27899(9) 0.18484(10) 0.99342(9)
O13 O 0.77292(8) 0.31811(10) 0.59294(9)
O14 O 0.22708(8) 0.31811(10) 0.90706(9)
O8 O 0.72101(9) 0.81516(10) 0.00658(9)
Mn6 Mn 0.69961(2) 0.75554(2) 0.08043(2)
H11 H 0.2565 0.9997 0.6270
S3 S 0.44035(3) 0.99020(3) 0.55706(3)
C13 C 0.48980(11) 0.93055(13) 0.60939(11)
C14 C 0.47128(11) 0.88707(12) 0.65219(11)
C15 C 0.51604(11) 0.84520(12) 0.69278(11)
C16 C 0.57405(12) 0.84224(13) 0.68634(12)
H14 H 0.6032 0.8132 0.7143
C17 C 0.59067(11) 0.88041(13) 0.64024(12)
C18 C 0.54771(11) 0.92575(13) 0.60309(12)
H15 H 0.5583 0.9542 0.5725
S4 S 0.39406(3) 0.88094(3) 0.65084(3)
C19 C 0.36939(14) 0.8339(2) 0.57574(16)
H16 H 0.3818 0.8600 0.5426
H17 H 0.3901 0.7885 0.5811
C20 C 0.30176(11) 0.82213(13) 0.55243(12)
O3 O 0.27899(9) 0.81516(10) 0.49342(9)
O4 O 0.27292(8) 0.81811(10) 0.59294(9)
C21 C 0.65290(13) 0.87387(17) 0.62903(15)
C22 C 0.6792(2) 0.9442(3) 0.6258(5)
H18 H 0.6875 0.9668 0.6677
H19 H 0.6503 0.9721 0.5934
H20 H 0.7169 0.9395 0.6142
C23 C 0.6442(2) 0.8388(4) 0.5641(3)
H21 H 0.6834 0.8346 0.5556
H22 H 0.6168 0.8667 0.5304
H23 H 0.6268 0.7926 0.5648
C24 C 0.69589(18) 0.8311(3) 0.6799(2)
H24 H 0.7358 0.8311 0.6727
H25 H 0.6808 0.7834 0.6780
H26 H 0.6991 0.8508 0.7221
S5 S 0.5000 0.78805(4) 0.7500
H50 H 0.7435 0.9997 0.8730
S7 S 0.55965(3) 0.99020(3) 0.94294(3)
C48 C 0.51020(11) 0.93055(13) 0.89061(11)
C49 C 0.52872(11) 0.88707(12) 0.84781(11)
C50 C 0.48396(11) 0.84520(12) 0.80722(11)
C51 C 0.42595(12) 0.84224(13) 0.81366(12)
H53 H 0.3968 0.8132 0.7857
C52 C 0.40933(11) 0.88041(13) 0.85976(12)
C53 C 0.45229(11) 0.92575(13) 0.89691(12)
H54 H 0.4417 0.9542 0.9275
S8 S 0.60594(3) 0.88094(3) 0.84916(3)
C54 C 0.63061(14) 0.8339(2) 0.92426(16)
H55 H 0.6182 0.8600 0.9574
H56 H 0.6099 0.7885 0.9189
C55 C 0.69824(11) 0.82213(13) 0.94757(12)
O9 O 0.72708(8) 0.81811(10) 0.90706(9)
C56 C 0.34710(13) 0.87387(17) 0.87097(15)
C57 C 0.3208(2) 0.9442(3) 0.8742(5)
H57 H 0.3125 0.9668 0.8323
H58 H 0.3497 0.9721 0.9066
H59 H 0.2831 0.9395 0.8858
C58 C 0.3558(2) 0.8388(4) 0.9359(3)
H60 H 0.3166 0.8346 0.9444
H61 H 0.3832 0.8667 0.9696
H62 H 0.3732 0.7926 0.9352
C59 C 0.30411(18) 0.8311(3) 0.8201(2)
H63 H 0.2642 0.8311 0.8273
H64 H 0.3192 0.7834 0.8220
H65 H 0.3009 0.8508 0.7779
Mn3 Mn 0.19961(2) 0.74446(2) 0.58043(2)
Mn4 Mn 0.80039(2) 0.74446(2) 0.91957(2)
Mn5 Mn 0.30039(2) 0.75554(2) 0.41957(2)
O8_2 O 0.22101(9) 0.31516(10) 0.00658(9)
Mn6_2 Mn 0.19961(2) 0.25554(2) 0.08043(2)
S1_2 S -0.0000 0.69156(4) 0.7500
S2_2 S 0.04305(3) 0.59974(3) 0.64723(3)
C7_2 C 0.02898(13) 0.62544(16) 0.56368(13)
H3_2 H 0.0363 0.5855 0.5385
C8_2 C 0.06985(12) 0.68501(14) 0.55786(13)
O1_2 O 0.12583(9) 0.67573(10) 0.58125(9)
O2_2 O 0.04529(11) 0.73809(13) 0.52977(15)
C15_2 C 0.01604(11) 0.34520(12) 0.69278(11)
C16_2 C 0.07405(12) 0.34224(13) 0.68634(12)
H14_2 H 0.1032 0.3132 0.7143
C17_2 C 0.09067(11) 0.38041(13) 0.64024(12)
C18_2 C 0.04771(11) 0.42575(13) 0.60309(12)
H15_2 H 0.0583 0.4542 0.5725
C21_2 C 0.15290(13) 0.37387(17) 0.62903(15)
C22_2 C 0.1792(2) 0.4442(3) 0.6258(5)
H18_2 H 0.1875 0.4668 0.6677
H19_2 H 0.1503 0.4721 0.5934
H20_2 H 0.2169 0.4395 0.6142
C23_2 C 0.1442(2) 0.3388(4) 0.5641(3)
H21_2 H 0.1834 0.3346 0.5556
H22_2 H 0.1168 0.3667 0.5304
H23_2 H 0.1268 0.2926 0.5648
C24_2 C 0.19589(18) 0.3311(3) 0.6799(2)
H24_2 H 0.2358 0.3311 0.6727
H25_2 H 0.1808 0.2834 0.6780
H26_2 H 0.1991 0.3508 0.7221
S5_2 S -0.0000 0.28805(4) 0.7500
N1_2 N 0.26765(11) 0.67297(12) 0.64614(11)
C25_2 C 0.31755(15) 0.69646(16) 0.68774(15)
H27_2 H 0.3207 0.7448 0.6962
C26_2 C 0.36504(16) 0.65468(19) 0.71942(19)
H28_2 H 0.3995 0.6735 0.7500
C27_2 C 0.36148(16) 0.58470(19) 0.7058(2)
H29_2 H 0.3937 0.5545 0.7265
C28_2 C 0.31085(17) 0.55975(17) 0.6619(2)
H30_2 H 0.3075 0.5119 0.6512
C29_2 C 0.26479(16) 0.60485(16) 0.63353(17)
H31_2 H 0.2294 0.5870 0.6037
N2_2 N 0.17515(11) 0.80683(12) 0.66081(11)
C30_2 C 0.13656(16) 0.78299(16) 0.69073(15)
H32_2 H 0.1255 0.7355 0.6858
C31_2 C 0.11182(18) 0.82371(18) 0.72848(18)
H33_2 H 0.0848 0.8042 0.7493
C32_2 C 0.12652(18) 0.89231(18) 0.73565(19)
H34_2 H 0.1096 0.9216 0.7610
C33_2 C 0.16646(19) 0.91796(17) 0.7053(2)
H35_2 H 0.1776 0.9655 0.7091
C34_2 C 0.18988(16) 0.87386(16) 0.66929(16)
H36_2 H 0.2181 0.8919 0.6493
O5_2 O 0.13404(10) 0.80990(11) 0.51187(11)
C35_2 C 0.1364(2) 0.8792(2) 0.4936(3)
H37_2 H 0.1181 0.9087 0.5193
H38_2 H 0.1142 0.8843 0.4481
H39_2 H 0.1787 0.8928 0.5005
C36_2 C 0.05068(11) 0.63454(12) 0.80415(11)
C37_2 C 0.03216(11) 0.59373(12) 0.84836(11)
C38_2 C 0.07627(11) 0.55016(12) 0.88853(11)
C39_2 C 0.13638(11) 0.55386(13) 0.88916(12)
H40_2 H 0.1654 0.5258 0.9184
C40_2 C 0.15515(12) 0.59763(14) 0.84812(13)
C41_2 C 0.11098(12) 0.63593(13) 0.80462(13)
H41_2 H 0.1223 0.6640 0.7742
H43_2 H 0.0138 0.6396 0.9541
C44_2 C 0.22112(14) 0.60143(19) 0.84952(19)
C45_2 C 0.2470(3) 0.6681(4) 0.8751(5)
H44_2 H 0.2892 0.6616 0.9007
H45_2 H 0.2238 0.6876 0.9021
H46_2 H 0.2454 0.6999 0.8396
C46_2 C 0.2255(3) 0.5873(4) 0.7847(5)
H47_2 H 0.2130 0.6285 0.7578
H48_2 H 0.1990 0.5484 0.7659
H49_2 H 0.2674 0.5756 0.7871
C47_2 C 0.2597(3) 0.5452(4) 0.8895(5)
H50_2 H 0.2435 0.4997 0.8730
H51_2 H 0.2593 0.5498 0.9341
H52_2 H 0.3013 0.5495 0.8873
S7_2 S 0.05965(3) 0.49020(3) 0.94294(3)
C48_2 C 0.01020(11) 0.43055(13) 0.89061(11)
C49_2 C 0.02872(11) 0.38707(12) 0.84781(11)
S8_2 S 0.10594(3) 0.38094(3) 0.84916(3)
C54_2 C 0.13061(14) 0.3339(2) 0.92426(16)
H55_2 H 0.1182 0.3600 0.9574
H56_2 H 0.1099 0.2885 0.9189
C55_2 C 0.19824(11) 0.32213(13) 0.94757(12)
O11_2 O 0.22101(9) 0.68484(10) 0.50658(9)
S1_3 S 1.0000 0.69156(4) 0.7500
C1_2 C 0.94932(11) 0.63454(12) 0.69585(11)
C2_2 C 0.96784(11) 0.59373(12) 0.65164(11)
C3_2 C 0.92373(11) 0.55016(12) 0.61147(11)
C4_2 C 0.86362(11) 0.55386(13) 0.61084(12)
H1_2 H 0.8346 0.5258 0.5816
C5_2 C 0.84485(12) 0.59763(14) 0.65188(13)
C6_2 C 0.88902(12) 0.63593(13) 0.69538(13)
H2_2 H 0.8777 0.6640 0.7258
H4_2 H 0.9862 0.6396 0.5459
C9_2 C 0.77888(14) 0.60143(19) 0.65048(19)
C10_2 C 0.7530(3) 0.6681(4) 0.6249(5)
H5_2 H 0.7108 0.6616 0.5993
H6_2 H 0.7762 0.6876 0.5979
H7_2 H 0.7546 0.6999 0.6604
C11_2 C 0.7745(3) 0.5873(4) 0.7153(5)
H8_2 H 0.7870 0.6285 0.7422
H9_2 H 0.8010 0.5484 0.7341
H10_2 H 0.7326 0.5756 0.7129
C12_2 C 0.7403(3) 0.5452(4) 0.6105(5)
H11_2 H 0.7565 0.4997 0.6270
H12_2 H 0.7407 0.5498 0.5659
H13_2 H 0.6987 0.5495 0.6127
S3_2 S 0.94035(3) 0.49020(3) 0.55706(3)
C13_2 C 0.98980(11) 0.43055(13) 0.60939(11)
C14_2 C 0.97128(11) 0.38707(12) 0.65219(11)
S4_2 S 0.89406(3) 0.38094(3) 0.65084(3)
C19_2 C 0.86939(14) 0.3339(2) 0.57574(16)
H16_2 H 0.8818 0.3600 0.5426
H17_2 H 0.8901 0.2885 0.5811
C20_2 C 0.80176(11) 0.32213(13) 0.55243(12)
O3_2 O 0.77899(9) 0.31516(10) 0.49342(9)
S5_3 S 1.0000 0.28805(4) 0.7500
S6_2 S 0.95695(3) 0.59974(3) 0.85277(3)
C42_2 C 0.97102(13) 0.62544(16) 0.93632(13)
H42_2 H 0.9637 0.5855 0.9615
C43_2 C 0.93015(12) 0.68501(14) 0.94214(13)
O6_2 O 0.87417(9) 0.67573(10) 0.91875(9)
O7_2 O 0.95471(11) 0.73809(13) 0.97023(15)
C50_2 C 0.98396(11) 0.34520(12) 0.80722(11)
C51_2 C 0.92595(12) 0.34224(13) 0.81366(12)
H53_2 H 0.8968 0.3132 0.7857
C52_2 C 0.90933(11) 0.38041(13) 0.85976(12)
C53_2 C 0.95229(11) 0.42575(13) 0.89691(12)
H54_2 H 0.9417 0.4542 0.9275
C56_2 C 0.84710(13) 0.37387(17) 0.87097(15)
C57_2 C 0.8208(2) 0.4442(3) 0.8742(5)
H57_2 H 0.8125 0.4668 0.8323
H58_2 H 0.8497 0.4721 0.9066
H59_2 H 0.7831 0.4395 0.8858
C58_2 C 0.8558(2) 0.3388(4) 0.9359(3)
H60_2 H 0.8166 0.3346 0.9444
H61_2 H 0.8832 0.3667 0.9696
H62_2 H 0.8732 0.2926 0.9352
C59_2 C 0.80411(18) 0.3311(3) 0.8201(2)
H63_2 H 0.7642 0.3311 0.8273
H64_2 H 0.8192 0.2834 0.8220
H65_2 H 0.8009 0.3508 0.7779
N3_2 N 0.73235(11) 0.67297(12) 0.85386(11)
C60_2 C 0.68245(15) 0.69646(16) 0.81226(15)
H66_2 H 0.6793 0.7448 0.8038
C61_2 C 0.63496(16) 0.65468(19) 0.78058(19)
H67_2 H 0.6005 0.6735 0.7500
C62_2 C 0.63852(16) 0.58470(19) 0.7942(2)
H68_2 H 0.6063 0.5545 0.7735
C63_2 C 0.68915(17) 0.55975(17) 0.8381(2)
H69_2 H 0.6925 0.5119 0.8488
C64_2 C 0.73521(16) 0.60485(16) 0.86647(17)
H70_2 H 0.7706 0.5870 0.8963
N4_2 N 0.82485(11) 0.80683(12) 0.83919(11)
C65_2 C 0.86344(16) 0.78299(16) 0.80927(15)
H71_2 H 0.8745 0.7355 0.8142
C66_2 C 0.88818(18) 0.82371(18) 0.77152(18)
H72_2 H 0.9152 0.8042 0.7507
C67_2 C 0.87348(18) 0.89231(18) 0.76435(19)
H73_2 H 0.8904 0.9216 0.7390
C68_2 C 0.83354(19) 0.91796(17) 0.7947(2)
H74_2 H 0.8224 0.9655 0.7909
C69_2 C 0.81012(16) 0.87386(16) 0.83071(16)
H75_2 H 0.7819 0.8919 0.8507
O10_2 O 0.86596(10) 0.80990(11) 0.98813(11)
H76_2 H 0.8819 0.9087 0.9807
H78_2 H 0.8213 0.8928 0.9995
Mn5_2 Mn 0.80039(2) 0.25554(2) 0.41957(2)
O12_2 O 0.77899(9) 0.68484(10) 0.99342(9)
H11_3 H 0.7435 0.0003 0.3730
S3_3 S 0.55965(3) 0.00980(3) 0.44294(3)
C13_3 C 0.51020(11) 0.06945(13) 0.39061(11)
C14_3 C 0.52872(11) 0.11293(12) 0.34781(11)
C15_3 C 0.48396(11) 0.15480(12) 0.30722(11)
C16_3 C 0.42595(12) 0.15776(13) 0.31366(12)
H14_3 H 0.3968 0.1868 0.2857
C17_3 C 0.40933(11) 0.11959(13) 0.35976(12)
C18_3 C 0.45229(11) 0.07425(13) 0.39691(12)
H15_3 H 0.4417 0.0458 0.4275
S4_3 S 0.60594(3) 0.11906(3) 0.34916(3)
C19_3 C 0.63061(14) 0.1661(2) 0.42426(16)
H16_3 H 0.6182 0.1400 0.4574
H17_3 H 0.6099 0.2115 0.4189
C20_3 C 0.69824(11) 0.17787(13) 0.44757(12)
O4_2 O 0.72708(8) 0.18189(10) 0.40706(9)
C21_3 C 0.34710(13) 0.12613(17) 0.37097(15)
C22_3 C 0.3208(2) 0.0558(3) 0.3742(5)
H18_3 H 0.3125 0.0332 0.3323
H19_3 H 0.3497 0.0279 0.4066
H20_3 H 0.2831 0.0605 0.3858
C23_3 C 0.3558(2) 0.1612(4) 0.4359(3)
H21_3 H 0.3166 0.1654 0.4444
H22_3 H 0.3832 0.1333 0.4696
H23_3 H 0.3732 0.2074 0.4352
C24_3 C 0.30411(18) 0.1689(3) 0.3201(2)
H24_3 H 0.2642 0.1689 0.3273
H25_3 H 0.3192 0.2166 0.3220
H26_3 H 0.3009 0.1492 0.2779
S5_4 S 0.5000 0.21195(4) 0.2500
H50_3 H 0.2565 0.0003 0.1270
S7_3 S 0.44035(3) 0.00980(3) 0.05706(3)
C48_3 C 0.48980(11) 0.06945(13) 0.10939(11)
C49_3 C 0.47128(11) 0.11293(12) 0.15219(11)
C50_3 C 0.51604(11) 0.15480(12) 0.19278(11)
C51_3 C 0.57405(12) 0.15776(13) 0.18634(12)
H53_3 H 0.6032 0.1868 0.2143
C52_3 C 0.59067(11) 0.11959(13) 0.14024(12)
C53_3 C 0.54771(11) 0.07425(13) 0.10309(12)
H54_3 H 0.5583 0.0458 0.0725
S8_3 S 0.39406(3) 0.11906(3) 0.15084(3)
C54_3 C 0.36939(14) 0.1661(2) 0.07574(16)
H55_3 H 0.3818 0.1400 0.0426
H56_3 H 0.3901 0.2115 0.0811
C55_3 C 0.30176(11) 0.17787(13) 0.05243(12)
O9_2 O 0.27292(8) 0.18189(10) 0.09294(9)
C56_3 C 0.65290(13) 0.12613(17) 0.12903(15)
C57_3 C 0.6792(2) 0.0558(3) 0.1258(5)
H57_3 H 0.6875 0.0332 0.1677
H58_3 H 0.6503 0.0279 0.0934
H59_3 H 0.7169 0.0605 0.1142
C58_3 C 0.6442(2) 0.1612(4) 0.0641(3)
H60_3 H 0.6834 0.1654 0.0556
H61_3 H 0.6168 0.1333 0.0304
H62_3 H 0.6268 0.2074 0.0648
C59_3 C 0.69589(18) 0.1689(3) 0.1799(2)
H63_3 H 0.7358 0.1689 0.1727
H64_3 H 0.6808 0.2166 0.1780
H65_3 H 0.6991 0.1492 0.2221
S1_4 S 0.5000 0.80844(4) 0.2500
C1_3 C 0.55068(11) 0.86546(12) 0.30415(11)
C2_3 C 0.53216(11) 0.90627(12) 0.34836(11)
C3_3 C 0.57627(11) 0.94984(12) 0.38853(11)
C4_3 C 0.63638(11) 0.94614(13) 0.38916(12)
H1_3 H 0.6654 0.9742 0.4184
C5_3 C 0.65515(12) 0.90237(14) 0.34812(13)
C6_3 C 0.61098(12) 0.86407(13) 0.30462(13)
H2_3 H 0.6223 0.8360 0.2742
S2_3 S 0.45695(3) 0.90026(3) 0.35277(3)
C7_3 C 0.47102(13) 0.87456(16) 0.43632(13)
H3_3 H 0.4637 0.9145 0.4615
H4_3 H 0.5138 0.8604 0.4541
C8_3 C 0.43015(12) 0.81499(14) 0.44214(13)
O1_3 O 0.37417(9) 0.82427(10) 0.41875(9)
O2_3 O 0.45471(11) 0.76191(13) 0.47023(15)
C9_3 C 0.72112(14) 0.89857(19) 0.34952(19)
C10_3 C 0.7470(3) 0.8319(4) 0.3751(5)
H5_3 H 0.7892 0.8384 0.4007
H6_3 H 0.7238 0.8124 0.4021
H7_3 H 0.7454 0.8001 0.3396
C11_3 C 0.7255(3) 0.9127(4) 0.2847(5)
H8_3 H 0.7130 0.8715 0.2578
H9_3 H 0.6990 0.9516 0.2659
H10_3 H 0.7674 0.9244 0.2871
C12_3 C 0.7597(3) 0.9548(4) 0.3895(5)
H12_3 H 0.7593 0.9502 0.4341
H13_3 H 0.8013 0.9505 0.3873
N1_3 N 0.23235(11) 0.82703(12) 0.35386(11)
C25_3 C 0.18245(15) 0.80354(16) 0.31226(15)
H27_3 H 0.1793 0.7552 0.3038
C26_3 C 0.13496(16) 0.84532(19) 0.28058(19)
H28_3 H 0.1005 0.8265 0.2500
C27_3 C 0.13852(16) 0.91530(19) 0.2942(2)
H29_3 H 0.1063 0.9455 0.2735
C28_3 C 0.18915(17) 0.94025(17) 0.3381(2)
H30_3 H 0.1925 0.9881 0.3488
C29_3 C 0.23521(16) 0.89515(16) 0.36647(17)
H31_3 H 0.2706 0.9130 0.3963
N2_3 N 0.32485(11) 0.69317(12) 0.33919(11)
C30_3 C 0.36344(16) 0.71701(16) 0.30927(15)
H32_3 H 0.3745 0.7645 0.3142
C31_3 C 0.38818(18) 0.67629(18) 0.27152(18)
H33_3 H 0.4152 0.6958 0.2507
C32_3 C 0.37348(18) 0.60769(18) 0.26435(19)
H34_3 H 0.3904 0.5784 0.2390
C33_3 C 0.33354(19) 0.58204(17) 0.2947(2)
H35_3 H 0.3224 0.5345 0.2909
C34_3 C 0.31012(16) 0.62614(16) 0.33071(16)
H36_3 H 0.2819 0.6081 0.3507
O5_3 O 0.36596(10) 0.69010(11) 0.48813(11)
C35_3 C 0.3636(2) 0.6208(2) 0.5064(3)
H37_3 H 0.3819 0.5913 0.4807
H38_3 H 0.3858 0.6157 0.5519
H39_3 H 0.3213 0.6072 0.4995
C36_3 C 0.44932(11) 0.86546(12) 0.19585(11)
C37_3 C 0.46784(11) 0.90627(12) 0.15164(11)
C38_3 C 0.42373(11) 0.94984(12) 0.11147(11)
C39_3 C 0.36362(11) 0.94614(13) 0.11084(12)
H40_3 H 0.3346 0.9742 0.0816
C40_3 C 0.34485(12) 0.90237(14) 0.15188(13)
C41_3 C 0.38902(12) 0.86407(13) 0.19538(13)
H41_3 H 0.3777 0.8360 0.2258
S6_3 S 0.54305(3) 0.90026(3) 0.14723(3)
C42_3 C 0.52898(13) 0.87456(16) 0.06368(13)
H42_3 H 0.5363 0.9145 0.0385
H43_3 H 0.4862 0.8604 0.0459
C43_3 C 0.56985(12) 0.81499(14) 0.05786(13)
O6_3 O 0.62583(9) 0.82427(10) 0.08125(9)
O7_3 O 0.54529(11) 0.76191(13) 0.02977(15)
C44_3 C 0.27888(14) 0.89857(19) 0.15048(19)
C45_3 C 0.2530(3) 0.8319(4) 0.1249(5)
H44_3 H 0.2108 0.8384 0.0993
H45_3 H 0.2762 0.8124 0.0979
H46_3 H 0.2546 0.8001 0.1604
C46_3 C 0.2745(3) 0.9127(4) 0.2153(5)
H47_3 H 0.2870 0.8715 0.2422
H48_3 H 0.3010 0.9516 0.2341
H49_3 H 0.2326 0.9244 0.2129
C47_3 C 0.2403(3) 0.9548(4) 0.1105(5)
H51_3 H 0.2407 0.9502 0.0659
H52_3 H 0.1987 0.9505 0.1127
N3_3 N 0.76765(11) 0.82703(12) 0.14614(11)
C60_3 C 0.81755(15) 0.80354(16) 0.18774(15)
H66_3 H 0.8207 0.7552 0.1962
C61_3 C 0.86504(16) 0.84532(19) 0.21942(19)
H67_3 H 0.8995 0.8265 0.2500
C62_3 C 0.86148(16) 0.91530(19) 0.2058(2)
H68_3 H 0.8937 0.9455 0.2265
C63_3 C 0.81085(17) 0.94025(17) 0.1619(2)
H69_3 H 0.8075 0.9881 0.1512
C64_3 C 0.76479(16) 0.89515(16) 0.13353(17)
H70_3 H 0.7294 0.9130 0.1037
N4_3 N 0.67515(11) 0.69317(12) 0.16081(11)
C65_3 C 0.63656(16) 0.71701(16) 0.19073(15)
H71_3 H 0.6255 0.7645 0.1858
C66_3 C 0.61182(18) 0.67629(18) 0.22848(18)
H72_3 H 0.5848 0.6958 0.2493
C67_3 C 0.62652(18) 0.60769(18) 0.23565(19)
H73_3 H 0.6096 0.5784 0.2610
C68_3 C 0.66646(19) 0.58204(17) 0.2053(2)
H74_3 H 0.6776 0.5345 0.2091
C69_3 C 0.68988(16) 0.62614(16) 0.16929(16)
H75_3 H 0.7181 0.6081 0.1493
O10_3 O 0.63404(10) 0.69010(11) 0.01187(11)
H76_3 H 0.6181 0.5913 0.0193
H78_3 H 0.6787 0.6072 0.0005
O13_2 O 0.22708(8) 0.68189(10) 0.40706(9)
O14_2 O 0.77292(8) 0.68189(10) 0.09294(9)
S1_5 S 0.0000 0.30844(4) 0.2500
C1_4 C 0.05068(11) 0.36546(12) 0.30415(11)
C2_4 C 0.03216(11) 0.40627(12) 0.34836(11)
C3_4 C 0.07627(11) 0.44984(12) 0.38853(11)
C4_4 C 0.13638(11) 0.44614(13) 0.38916(12)
H1_4 H 0.1654 0.4742 0.4184
C5_4 C 0.15515(12) 0.40237(14) 0.34812(13)
C6_4 C 0.11098(12) 0.36407(13) 0.30462(13)
H2_4 H 0.1223 0.3360 0.2742
H4_4 H 0.0138 0.3604 0.4541
C9_4 C 0.22112(14) 0.39857(19) 0.34952(19)
C10_4 C 0.2470(3) 0.3319(4) 0.3751(5)
H5_4 H 0.2892 0.3384 0.4007
H6_4 H 0.2238 0.3124 0.4021
H7_4 H 0.2454 0.3001 0.3396
C11_4 C 0.2255(3) 0.4127(4) 0.2847(5)
H8_4 H 0.2130 0.3715 0.2578
H9_4 H 0.1990 0.4516 0.2659
H10_4 H 0.2674 0.4244 0.2871
C12_4 C 0.2597(3) 0.4548(4) 0.3895(5)
H11_4 H 0.2435 0.5003 0.3730
H12_4 H 0.2593 0.4502 0.4341
H13_4 H 0.3013 0.4505 0.3873
S3_4 S 0.05965(3) 0.50980(3) 0.44294(3)
C13_4 C 0.01020(11) 0.56945(13) 0.39061(11)
C14_4 C 0.02872(11) 0.61293(12) 0.34781(11)
S4_4 S 0.10594(3) 0.61906(3) 0.34916(3)
C19_4 C 0.13061(14) 0.6661(2) 0.42426(16)
H16_4 H 0.1182 0.6400 0.4574
H17_4 H 0.1099 0.7115 0.4189
C20_4 C 0.19824(11) 0.67787(13) 0.44757(12)
S5_5 S 0.0000 0.71195(4) 0.2500
S6_4 S 0.04305(3) 0.40026(3) 0.14723(3)
C42_4 C 0.02898(13) 0.37456(16) 0.06368(13)
H42_4 H 0.0363 0.4145 0.0385
C43_4 C 0.06985(12) 0.31499(14) 0.05786(13)
O6_4 O 0.12583(9) 0.32427(10) 0.08125(9)
O7_4 O 0.04529(11) 0.26191(13) 0.02977(15)
C50_4 C 0.01604(11) 0.65480(12) 0.19278(11)
C51_4 C 0.07405(12) 0.65776(13) 0.18634(12)
H53_4 H 0.1032 0.6868 0.2143
C52_4 C 0.09067(11) 0.61959(13) 0.14024(12)
C53_4 C 0.04771(11) 0.57425(13) 0.10309(12)
H54_4 H 0.0583 0.5458 0.0725
C56_4 C 0.15290(13) 0.62613(17) 0.12903(15)
C57_4 C 0.1792(2) 0.5558(3) 0.1258(5)
H57_4 H 0.1875 0.5332 0.1677
H58_4 H 0.1503 0.5279 0.0934
H59_4 H 0.2169 0.5605 0.1142
C58_4 C 0.1442(2) 0.6612(4) 0.0641(3)
H60_4 H 0.1834 0.6654 0.0556
H61_4 H 0.1168 0.6333 0.0304
H62_4 H 0.1268 0.7074 0.0648
C59_4 C 0.19589(18) 0.6689(3) 0.1799(2)
H63_4 H 0.2358 0.6689 0.1727
H64_4 H 0.1808 0.7166 0.1780
H65_4 H 0.1991 0.6492 0.2221
N3_4 N 0.26765(11) 0.32703(12) 0.14614(11)
C60_4 C 0.31755(15) 0.30354(16) 0.18774(15)
H66_4 H 0.3207 0.2552 0.1962
C61_4 C 0.36504(16) 0.34532(19) 0.21942(19)
H67_4 H 0.3995 0.3265 0.2500
C62_4 C 0.36148(16) 0.41530(19) 0.2058(2)
H68_4 H 0.3937 0.4455 0.2265
C63_4 C 0.31085(17) 0.44025(17) 0.1619(2)
H69_4 H 0.3075 0.4881 0.1512
C64_4 C 0.26479(16) 0.39515(16) 0.13353(17)
H70_4 H 0.2294 0.4130 0.1037
N4_4 N 0.17515(11) 0.19317(12) 0.16081(11)
C65_4 C 0.13656(16) 0.21701(16) 0.19073(15)
H71_4 H 0.1255 0.2645 0.1858
C66_4 C 0.11182(18) 0.17629(18) 0.22848(18)
H72_4 H 0.0848 0.1958 0.2493
C67_4 C 0.12652(18) 0.10769(18) 0.23565(19)
H73_4 H 0.1096 0.0784 0.2610
C68_4 C 0.16646(19) 0.08204(17) 0.2053(2)
H74_4 H 0.1776 0.0345 0.2091
C69_4 C 0.18988(16) 0.12614(16) 0.16929(16)
H75_4 H 0.2181 0.1081 0.1493
O10_4 O 0.13404(10) 0.19010(11) 0.01187(11)
H76_4 H 0.1181 0.0913 0.0193
H78_4 H 0.1787 0.1072 0.0005
S1_6 S 1.0000 0.30844(4) 0.2500
S2_4 S 0.95695(3) 0.40026(3) 0.35277(3)
C7_4 C 0.97102(13) 0.37456(16) 0.43632(13)
H3_4 H 0.9637 0.4145 0.4615
C8_4 C 0.93015(12) 0.31499(14) 0.44214(13)
O1_4 O 0.87417(9) 0.32427(10) 0.41875(9)
O2_4 O 0.95471(11) 0.26191(13) 0.47023(15)
C15_4 C 0.98396(11) 0.65480(12) 0.30722(11)
C16_4 C 0.92595(12) 0.65776(13) 0.31366(12)
H14_4 H 0.8968 0.6868 0.2857
C17_4 C 0.90933(11) 0.61959(13) 0.35976(12)
C18_4 C 0.95229(11) 0.57425(13) 0.39691(12)
H15_4 H 0.9417 0.5458 0.4275
C21_4 C 0.84710(13) 0.62613(17) 0.37097(15)
C22_4 C 0.8208(2) 0.5558(3) 0.3742(5)
H18_4 H 0.8125 0.5332 0.3323
H19_4 H 0.8497 0.5279 0.4066
H20_4 H 0.7831 0.5605 0.3858
C23_4 C 0.8558(2) 0.6612(4) 0.4359(3)
H21_4 H 0.8166 0.6654 0.4444
H22_4 H 0.8832 0.6333 0.4696
H23_4 H 0.8732 0.7074 0.4352
C24_4 C 0.80411(18) 0.6689(3) 0.3201(2)
H24_4 H 0.7642 0.6689 0.3273
H25_4 H 0.8192 0.7166 0.3220
H26_4 H 0.8009 0.6492 0.2779
S5_6 S 1.0000 0.71195(4) 0.2500
N1_4 N 0.73235(11) 0.32703(12) 0.35386(11)
C25_4 C 0.68245(15) 0.30354(16) 0.31226(15)
H27_4 H 0.6793 0.2552 0.3038
C26_4 C 0.63496(16) 0.34532(19) 0.28058(19)
H28_4 H 0.6005 0.3265 0.2500
C27_4 C 0.63852(16) 0.41530(19) 0.2942(2)
H29_4 H 0.6063 0.4455 0.2735
C28_4 C 0.68915(17) 0.44025(17) 0.3381(2)
H30_4 H 0.6925 0.4881 0.3488
C29_4 C 0.73521(16) 0.39515(16) 0.36647(17)
H31_4 H 0.7706 0.4130 0.3963
N2_4 N 0.82485(11) 0.19317(12) 0.33919(11)
C30_4 C 0.86344(16) 0.21701(16) 0.30927(15)
H32_4 H 0.8745 0.2645 0.3142
C31_4 C 0.88818(18) 0.17629(18) 0.27152(18)
H33_4 H 0.9152 0.1958 0.2507
C32_4 C 0.87348(18) 0.10769(18) 0.26435(19)
H34_4 H 0.8904 0.0784 0.2390
C33_4 C 0.83354(19) 0.08204(17) 0.2947(2)
H35_4 H 0.8224 0.0345 0.2909
C34_4 C 0.81012(16) 0.12614(16) 0.33071(16)
H36_4 H 0.7819 0.1081 0.3507
O5_4 O 0.86596(10) 0.19010(11) 0.48813(11)
C35_4 C 0.8636(2) 0.1208(2) 0.5064(3)
H37_4 H 0.8819 0.0913 0.4807
H38_4 H 0.8858 0.1157 0.5519
H39_4 H 0.8213 0.1072 0.4995
C36_4 C 0.94932(11) 0.36546(12) 0.19585(11)
C37_4 C 0.96784(11) 0.40627(12) 0.15164(11)
C38_4 C 0.92373(11) 0.44984(12) 0.11147(11)
C39_4 C 0.86362(11) 0.44614(13) 0.11084(12)
H40_4 H 0.8346 0.4742 0.0816
C40_4 C 0.84485(12) 0.40237(14) 0.15188(13)
C41_4 C 0.88902(12) 0.36407(13) 0.19538(13)
H41_4 H 0.8777 0.3360 0.2258
H43_4 H 0.9862 0.3604 0.0459
C44_4 C 0.77888(14) 0.39857(19) 0.15048(19)
C45_4 C 0.7530(3) 0.3319(4) 0.1249(5)
H44_4 H 0.7108 0.3384 0.0993
H45_4 H 0.7762 0.3124 0.0979
H46_4 H 0.7546 0.3001 0.1604
C46_4 C 0.7745(3) 0.4127(4) 0.2153(5)
H47_4 H 0.7870 0.3715 0.2422
H48_4 H 0.8010 0.4516 0.2341
H49_4 H 0.7326 0.4244 0.2129
C47_4 C 0.7403(3) 0.4548(4) 0.1105(5)
H50_4 H 0.7565 0.5003 0.1270
H51_4 H 0.7407 0.4502 0.0659
H52_4 H 0.6987 0.4505 0.1127
S7_4 S 0.94035(3) 0.50980(3) 0.05706(3)
C48_4 C 0.98980(11) 0.56945(13) 0.10939(11)
C49_4 C 0.97128(11) 0.61293(12) 0.15219(11)
S8_4 S 0.89406(3) 0.61906(3) 0.15084(3)
C54_4 C 0.86939(14) 0.6661(2) 0.07574(16)
H55_4 H 0.8818 0.6400 0.0426
H56_4 H 0.8901 0.7115 0.0811
C55_4 C 0.80176(11) 0.67787(13) 0.05243(12)
C70_2 C 0.8636(2) 0.8792(2) 0.0064(3)
H77_2 H 0.8858 0.8843 0.0519
C70_3 C 0.6364(2) 0.6208(2) 0.9936(3)
H77_3 H 0.6142 0.6157 0.9481
C70_4 C 0.1364(2) 0.1208(2) 0.9936(3)
H77_4 H 0.1142 0.1157 0.9481
loop_
_geom_bond_atom_site_label_1
_geom_bond_atom_site_label_2
_geom_bond_site_symmetry_1
_geom_bond_site_symmetry_2
H77 C70 1_555 1_555
Mn1 O1 1_555 1_555
S1 C1 1_555 1_555
C1 C2 1_555 1_555
C2 C3 1_555 1_555
C3 C4 1_555 1_555
C4 H1 1_555 1_555
C5 C4 1_555 1_555
C6 C1 1_555 1_555
H2 C6 1_555 1_555
S2 C2 1_555 1_555
C7 S2 1_555 1_555
H3 C7 1_555 1_555
H4 C7 1_555 1_555
C8 C7 1_555 1_555
O1 C8 1_555 1_555
O2 C8 1_555 1_555
C9 C5 1_555 1_555
C10 C9 1_555 1_555
H5 C10 1_555 1_555
H6 C10 1_555 1_555
H7 C10 1_555 1_555
C11 C9 1_555 1_555
H8 C11 1_555 1_555
H9 C11 1_555 1_555
H10 C11 1_555 1_555
C12 C9 1_555 1_555
H12 C12 1_555 1_555
H13 C12 1_555 1_555
N1 Mn1 1_555 1_555
C25 N1 1_555 1_555
H27 C25 1_555 1_555
C26 C25 1_555 1_555
H28 C26 1_555 1_555
C27 C26 1_555 1_555
H29 C27 1_555 1_555
C28 C27 1_555 1_555
H30 C28 1_555 1_555
C29 N1 1_555 1_555
H31 C29 1_555 1_555
N2 Mn1 1_555 1_555
C30 N2 1_555 1_555
H32 C30 1_555 1_555
C31 C30 1_555 1_555
H33 C31 1_555 1_555
C32 C31 1_555 1_555
H34 C32 1_555 1_555
C33 C32 1_555 1_555
H35 C33 1_555 1_555
C34 N2 1_555 1_555
H36 C34 1_555 1_555
O5 Mn1 1_555 1_555
C35 O5 1_555 1_555
H37 C35 1_555 1_555
H38 C35 1_555 1_555
H39 C35 1_555 1_555
C36 S1 1_555 1_555
C37 C36 1_555 1_555
C38 C37 1_555 1_555
C39 C38 1_555 1_555
H40 C39 1_555 1_555
C40 C39 1_555 1_555
C41 C36 1_555 1_555
H41 C41 1_555 1_555
S6 C37 1_555 1_555
C42 S6 1_555 1_555
H42 C42 1_555 1_555
H43 C42 1_555 1_555
C43 C42 1_555 1_555
O6 C43 1_555 1_555
O7 C43 1_555 1_555
C44 C40 1_555 1_555
C45 C44 1_555 1_555
H44 C45 1_555 1_555
H45 C45 1_555 1_555
H46 C45 1_555 1_555
C46 C44 1_555 1_555
H47 C46 1_555 1_555
H48 C46 1_555 1_555
H49 C46 1_555 1_555
C47 C44 1_555 1_555
H51 C47 1_555 1_555
H52 C47 1_555 1_555
Mn2 O6 1_555 1_555
N3 Mn2 1_555 1_555
C60 N3 1_555 1_555
H66 C60 1_555 1_555
C61 C60 1_555 1_555
H67 C61 1_555 1_555
C62 C61 1_555 1_555
H68 C62 1_555 1_555
C63 C62 1_555 1_555
H69 C63 1_555 1_555
C64 N3 1_555 1_555
H70 C64 1_555 1_555
N4 Mn2 1_555 1_555
C65 N4 1_555 1_555
H71 C65 1_555 1_555
C66 C65 1_555 1_555
H72 C66 1_555 1_555
C67 C66 1_555 1_555
H73 C67 1_555 1_555
C68 C67 1_555 1_555
H74 C68 1_555 1_555
C69 N4 1_555 1_555
H75 C69 1_555 1_555
O10 Mn2 1_555 1_555
O11 Mn1 1_555 1_555
O12 Mn2 1_555 1_555
O13 Mn1 1_555 1_555
O14 Mn2 1_555 1_555
C5 C6 1_555 1_555
C28 C29 1_555 1_555
C33 C34 1_555 1_555
C40 C41 1_555 1_555
C63 C64 1_555 1_555
C68 C69 1_555 1_555
Mn6 O8 1_555 1_555
C13 S3 1_555 1_555
C14 C13 1_555 1_555
C15 C14 1_555 1_555
C16 C15 1_555 1_555
H14 C16 1_555 1_555
C17 C16 1_555 1_555
C18 C13 1_555 1_555
H15 C18 1_555 1_555
S4 C14 1_555 1_555
C19 S4 1_555 1_555
H16 C19 1_555 1_555
H17 C19 1_555 1_555
C20 C19 1_555 1_555
O3 C20 1_555 1_555
O4 C20 1_555 1_555
C21 C17 1_555 1_555
C22 C21 1_555 1_555
H18 C22 1_555 1_555
H19 C22 1_555 1_555
H20 C22 1_555 1_555
C23 C21 1_555 1_555
H21 C23 1_555 1_555
H22 C23 1_555 1_555
H23 C23 1_555 1_555
C24 C21 1_555 1_555
H24 C24 1_555 1_555
H25 C24 1_555 1_555
H26 C24 1_555 1_555
S5 C15 1_555 1_555
C48 S7 1_555 1_555
C49 C48 1_555 1_555
C50 S5 1_555 1_555
C51 C50 1_555 1_555
H53 C51 1_555 1_555
C52 C51 1_555 1_555
C53 C48 1_555 1_555
H54 C53 1_555 1_555
S8 C49 1_555 1_555
C54 S8 1_555 1_555
H55 C54 1_555 1_555
H56 C54 1_555 1_555
C55 C54 1_555 1_555
O9 C55 1_555 1_555
C56 C52 1_555 1_555
C57 C56 1_555 1_555
H57 C57 1_555 1_555
H58 C57 1_555 1_555
H59 C57 1_555 1_555
C58 C56 1_555 1_555
H60 C58 1_555 1_555
H61 C58 1_555 1_555
H62 C58 1_555 1_555
C59 C56 1_555 1_555
H63 C59 1_555 1_555
H64 C59 1_555 1_555
H65 C59 1_555 1_555
Mn3 O4 1_555 1_555
Mn4 O9 1_555 1_555
Mn5 O3 1_555 1_555
C17 C18 1_555 1_555
C49 C50 1_555 1_555
C52 C53 1_555 1_555
Mn6_2 O8_2 1_555 1_555
Mn3 O1_2 1_555 1_555
C7_2 S2_2 1_555 1_555
H3_2 C7_2 1_555 1_555
C8_2 C7_2 1_555 1_555
O1_2 C8_2 1_555 1_555
O2_2 C8_2 1_555 1_555
C16_2 C15_2 1_555 1_555
H14_2 C16_2 1_555 1_555
C17_2 C16_2 1_555 1_555
H15_2 C18_2 1_555 1_555
C21_2 C17_2 1_555 1_555
C22_2 C21_2 1_555 1_555
H18_2 C22_2 1_555 1_555
H19_2 C22_2 1_555 1_555
H20_2 C22_2 1_555 1_555
C23_2 C21_2 1_555 1_555
H21_2 C23_2 1_555 1_555
H22_2 C23_2 1_555 1_555
H23_2 C23_2 1_555 1_555
C24_2 C21_2 1_555 1_555
H24_2 C24_2 1_555 1_555
H25_2 C24_2 1_555 1_555
H26_2 C24_2 1_555 1_555
S5_2 C15_2 1_555 1_555
N1_2 Mn3 1_555 1_555
C25_2 N1_2 1_555 1_555
H27_2 C25_2 1_555 1_555
C26_2 C25_2 1_555 1_555
H28_2 C26_2 1_555 1_555
C27_2 C26_2 1_555 1_555
H29_2 C27_2 1_555 1_555
C28_2 C27_2 1_555 1_555
H30_2 C28_2 1_555 1_555
C29_2 N1_2 1_555 1_555
H31_2 C29_2 1_555 1_555
N2_2 Mn3 1_555 1_555
C30_2 N2_2 1_555 1_555
H32_2 C30_2 1_555 1_555
C31_2 C30_2 1_555 1_555
H33_2 C31_2 1_555 1_555
C32_2 C31_2 1_555 1_555
H34_2 C32_2 1_555 1_555
C33_2 C32_2 1_555 1_555
H35_2 C33_2 1_555 1_555
C34_2 N2_2 1_555 1_555
H36_2 C34_2 1_555 1_555
O5_2 Mn3 1_555 1_555
C35_2 O5_2 1_555 1_555
H37_2 C35_2 1_555 1_555
H38_2 C35_2 1_555 1_555
H39_2 C35_2 1_555 1_555
C36_2 S1_2 1_555 1_555
C37_2 C36_2 1_555 1_555
C38_2 C37_2 1_555 1_555
C39_2 C38_2 1_555 1_555
H40_2 C39_2 1_555 1_555
C40_2 C39_2 1_555 1_555
C41_2 C36_2 1_555 1_555
H41_2 C41_2 1_555 1_555
C44_2 C40_2 1_555 1_555
C45_2 C44_2 1_555 1_555
H44_2 C45_2 1_555 1_555
H45_2 C45_2 1_555 1_555
H46_2 C45_2 1_555 1_555
C46_2 C44_2 1_555 1_555
H47_2 C46_2 1_555 1_555
H48_2 C46_2 1_555 1_555
H49_2 C46_2 1_555 1_555
C47_2 C44_2 1_555 1_555
H50_2 C47_2 1_555 1_555
H51_2 C47_2 1_555 1_555
H52_2 C47_2 1_555 1_555
S7_2 C38_2 1_555 1_555
C48_2 S7_2 1_555 1_555
C49_2 C48_2 1_555 1_555
S8_2 C49_2 1_555 1_555
C54_2 S8_2 1_555 1_555
H55_2 C54_2 1_555 1_555
H56_2 C54_2 1_555 1_555
C55_2 C54_2 1_555 1_555
O14 C55_2 1_555 1_555
O11_2 Mn3 1_555 1_555
C17_2 C18_2 1_555 1_555
C28_2 C29_2 1_555 1_555
C33_2 C34_2 1_555 1_555
C40_2 C41_2 1_555 1_555
S1_3 C1_2 1_555 1_555
C1_2 C2_2 1_555 1_555
C2_2 C3_2 1_555 1_555
C3_2 C4_2 1_555 1_555
C4_2 H1_2 1_555 1_555
C5_2 C4_2 1_555 1_555
C6_2 C1_2 1_555 1_555
H2_2 C6_2 1_555 1_555
C9_2 C5_2 1_555 1_555
C10_2 C9_2 1_555 1_555
H5_2 C10_2 1_555 1_555
H6_2 C10_2 1_555 1_555
H7_2 C10_2 1_555 1_555
C11_2 C9_2 1_555 1_555
H8_2 C11_2 1_555 1_555
H9_2 C11_2 1_555 1_555
H10_2 C11_2 1_555 1_555
C12_2 C9_2 1_555 1_555
H11_2 C12_2 1_555 1_555
H12_2 C12_2 1_555 1_555
H13_2 C12_2 1_555 1_555
S3_2 C3_2 1_555 1_555
C13_2 S3_2 1_555 1_555
C14_2 C13_2 1_555 1_555
S4_2 C14_2 1_555 1_555
C19_2 S4_2 1_555 1_555
H16_2 C19_2 1_555 1_555
H17_2 C19_2 1_555 1_555
C20_2 C19_2 1_555 1_555
O3_2 C20_2 1_555 1_555
O13 C20_2 1_555 1_555
C42_2 S6_2 1_555 1_555
H42_2 C42_2 1_555 1_555
C43_2 C42_2 1_555 1_555
O6_2 C43_2 1_555 1_555
O7_2 C43_2 1_555 1_555
C50_2 S5_3 1_555 1_555
C51_2 C50_2 1_555 1_555
H53_2 C51_2 1_555 1_555
C52_2 C51_2 1_555 1_555
H54_2 C53_2 1_555 1_555
C56_2 C52_2 1_555 1_555
C57_2 C56_2 1_555 1_555
H57_2 C57_2 1_555 1_555
H58_2 C57_2 1_555 1_555
H59_2 C57_2 1_555 1_555
C58_2 C56_2 1_555 1_555
H60_2 C58_2 1_555 1_555
H61_2 C58_2 1_555 1_555
H62_2 C58_2 1_555 1_555
C59_2 C56_2 1_555 1_555
H63_2 C59_2 1_555 1_555
H64_2 C59_2 1_555 1_555
H65_2 C59_2 1_555 1_555
Mn4 O6_2 1_555 1_555
N3_2 Mn4 1_555 1_555
C60_2 N3_2 1_555 1_555
H66_2 C60_2 1_555 1_555
C61_2 C60_2 1_555 1_555
H67_2 C61_2 1_555 1_555
C62_2 C61_2 1_555 1_555
H68_2 C62_2 1_555 1_555
C63_2 C62_2 1_555 1_555
H69_2 C63_2 1_555 1_555
C64_2 N3_2 1_555 1_555
H70_2 C64_2 1_555 1_555
N4_2 Mn4 1_555 1_555
C65_2 N4_2 1_555 1_555
H71_2 C65_2 1_555 1_555
C66_2 C65_2 1_555 1_555
H72_2 C66_2 1_555 1_555
C67_2 C66_2 1_555 1_555
H73_2 C67_2 1_555 1_555
C68_2 C67_2 1_555 1_555
H74_2 C68_2 1_555 1_555
C69_2 N4_2 1_555 1_555
H75_2 C69_2 1_555 1_555
O10_2 Mn4 1_555 1_555
Mn5_2 O3_2 1_555 1_555
O12_2 Mn4 1_555 1_555
C5_2 C6_2 1_555 1_555
C52_2 C53_2 1_555 1_555
C63_2 C64_2 1_555 1_555
C68_2 C69_2 1_555 1_555
C13_3 S3_3 1_555 1_555
C14_3 C13_3 1_555 1_555
C15_3 C14_3 1_555 1_555
C16_3 C15_3 1_555 1_555
H14_3 C16_3 1_555 1_555
C17_3 C16_3 1_555 1_555
C18_3 C13_3 1_555 1_555
H15_3 C18_3 1_555 1_555
S4_3 C14_3 1_555 1_555
C19_3 S4_3 1_555 1_555
H16_3 C19_3 1_555 1_555
H17_3 C19_3 1_555 1_555
C20_3 C19_3 1_555 1_555
O11 C20_3 1_555 1_555
O4_2 C20_3 1_555 1_555
C21_3 C17_3 1_555 1_555
C22_3 C21_3 1_555 1_555
H18_3 C22_3 1_555 1_555
H19_3 C22_3 1_555 1_555
H20_3 C22_3 1_555 1_555
C23_3 C21_3 1_555 1_555
H21_3 C23_3 1_555 1_555
H22_3 C23_3 1_555 1_555
H23_3 C23_3 1_555 1_555
C24_3 C21_3 1_555 1_555
H24_3 C24_3 1_555 1_555
H25_3 C24_3 1_555 1_555
H26_3 C24_3 1_555 1_555
S5_4 C15_3 1_555 1_555
C48_3 S7_3 1_555 1_555
C49_3 C48_3 1_555 1_555
C50_3 S5_4 1_555 1_555
C51_3 C50_3 1_555 1_555
H53_3 C51_3 1_555 1_555
C52_3 C51_3 1_555 1_555
C53_3 C48_3 1_555 1_555
H54_3 C53_3 1_555 1_555
S8_3 C49_3 1_555 1_555
C54_3 S8_3 1_555 1_555
H55_3 C54_3 1_555 1_555
H56_3 C54_3 1_555 1_555
C55_3 C54_3 1_555 1_555
O9_2 C55_3 1_555 1_555
C56_3 C52_3 1_555 1_555
C57_3 C56_3 1_555 1_555
H57_3 C57_3 1_555 1_555
H58_3 C57_3 1_555 1_555
H59_3 C57_3 1_555 1_555
C58_3 C56_3 1_555 1_555
H60_3 C58_3 1_555 1_555
H61_3 C58_3 1_555 1_555
H62_3 C58_3 1_555 1_555
C59_3 C56_3 1_555 1_555
H63_3 C59_3 1_555 1_555
H64_3 C59_3 1_555 1_555
H65_3 C59_3 1_555 1_555
Mn5_2 O4_2 1_555 1_555
Mn6_2 O9_2 1_555 1_555
C17_3 C18_3 1_555 1_555
C49_3 C50_3 1_555 1_555
C52_3 C53_3 1_555 1_555
Mn5 O1_3 1_555 1_555
S1_4 C1_3 1_555 1_555
C1_3 C2_3 1_555 1_555
C2_3 C3_3 1_555 1_555
C3_3 C4_3 1_555 1_555
C4_3 H1_3 1_555 1_555
C5_3 C4_3 1_555 1_555
C6_3 C1_3 1_555 1_555
H2_3 C6_3 1_555 1_555
S2_3 C2_3 1_555 1_555
C7_3 S2_3 1_555 1_555
H3_3 C7_3 1_555 1_555
H4_3 C7_3 1_555 1_555
C8_3 C7_3 1_555 1_555
O1_3 C8_3 1_555 1_555
O2_3 C8_3 1_555 1_555
C9_3 C5_3 1_555 1_555
C10_3 C9_3 1_555 1_555
H5_3 C10_3 1_555 1_555
H6_3 C10_3 1_555 1_555
H7_3 C10_3 1_555 1_555
C11_3 C9_3 1_555 1_555
H8_3 C11_3 1_555 1_555
H9_3 C11_3 1_555 1_555
H10_3 C11_3 1_555 1_555
C12_3 C9_3 1_555 1_555
H12_3 C12_3 1_555 1_555
H13_3 C12_3 1_555 1_555
N1_3 Mn5 1_555 1_555
C25_3 N1_3 1_555 1_555
H27_3 C25_3 1_555 1_555
C26_3 C25_3 1_555 1_555
H28_3 C26_3 1_555 1_555
C27_3 C26_3 1_555 1_555
H29_3 C27_3 1_555 1_555
C28_3 C27_3 1_555 1_555
H30_3 C28_3 1_555 1_555
C29_3 N1_3 1_555 1_555
H31_3 C29_3 1_555 1_555
N2_3 Mn5 1_555 1_555
C30_3 N2_3 1_555 1_555
H32_3 C30_3 1_555 1_555
C31_3 C30_3 1_555 1_555
H33_3 C31_3 1_555 1_555
C32_3 C31_3 1_555 1_555
H34_3 C32_3 1_555 1_555
C33_3 C32_3 1_555 1_555
H35_3 C33_3 1_555 1_555
C34_3 N2_3 1_555 1_555
H36_3 C34_3 1_555 1_555
O5_3 Mn5 1_555 1_555
C35_3 O5_3 1_555 1_555
H37_3 C35_3 1_555 1_555
H38_3 C35_3 1_555 1_555
H39_3 C35_3 1_555 1_555
C36_3 S1_4 1_555 1_555
C37_3 C36_3 1_555 1_555
C38_3 C37_3 1_555 1_555
C39_3 C38_3 1_555 1_555
H40_3 C39_3 1_555 1_555
C40_3 C39_3 1_555 1_555
C41_3 C36_3 1_555 1_555
H41_3 C41_3 1_555 1_555
S6_3 C37_3 1_555 1_555
C42_3 S6_3 1_555 1_555
H42_3 C42_3 1_555 1_555
H43_3 C42_3 1_555 1_555
C43_3 C42_3 1_555 1_555
O6_3 C43_3 1_555 1_555
O7_3 C43_3 1_555 1_555
C44_3 C40_3 1_555 1_555
C45_3 C44_3 1_555 1_555
H44_3 C45_3 1_555 1_555
H45_3 C45_3 1_555 1_555
H46_3 C45_3 1_555 1_555
C46_3 C44_3 1_555 1_555
H47_3 C46_3 1_555 1_555
H48_3 C46_3 1_555 1_555
H49_3 C46_3 1_555 1_555
C47_3 C44_3 1_555 1_555
H51_3 C47_3 1_555 1_555
H52_3 C47_3 1_555 1_555
Mn6 O6_3 1_555 1_555
N3_3 Mn6 1_555 1_555
C60_3 N3_3 1_555 1_555
H66_3 C60_3 1_555 1_555
C61_3 C60_3 1_555 1_555
H67_3 C61_3 1_555 1_555
C62_3 C61_3 1_555 1_555
H68_3 C62_3 1_555 1_555
C63_3 C62_3 1_555 1_555
H69_3 C63_3 1_555 1_555
C64_3 N3_3 1_555 1_555
H70_3 C64_3 1_555 1_555
N4_3 Mn6 1_555 1_555
C65_3 N4_3 1_555 1_555
H71_3 C65_3 1_555 1_555
C66_3 C65_3 1_555 1_555
H72_3 C66_3 1_555 1_555
C67_3 C66_3 1_555 1_555
H73_3 C67_3 1_555 1_555
C68_3 C67_3 1_555 1_555
H74_3 C68_3 1_555 1_555
C69_3 N4_3 1_555 1_555
H75_3 C69_3 1_555 1_555
O10_3 Mn6 1_555 1_555
O13_2 Mn5 1_555 1_555
O14_2 Mn6 1_555 1_555
C5_3 C6_3 1_555 1_555
C28_3 C29_3 1_555 1_555
C33_3 C34_3 1_555 1_555
C40_3 C41_3 1_555 1_555
C63_3 C64_3 1_555 1_555
C68_3 C69_3 1_555 1_555
S1_5 C1_4 1_555 1_555
C1_4 C2_4 1_555 1_555
C2_4 C3_4 1_555 1_555
C3_4 C4_4 1_555 1_555
C4_4 H1_4 1_555 1_555
C5_4 C4_4 1_555 1_555
C6_4 C1_4 1_555 1_555
H2_4 C6_4 1_555 1_555
C9_4 C5_4 1_555 1_555
C10_4 C9_4 1_555 1_555
H5_4 C10_4 1_555 1_555
H6_4 C10_4 1_555 1_555
H7_4 C10_4 1_555 1_555
C11_4 C9_4 1_555 1_555
H8_4 C11_4 1_555 1_555
H9_4 C11_4 1_555 1_555
H10_4 C11_4 1_555 1_555
C12_4 C9_4 1_555 1_555
H11_4 C12_4 1_555 1_555
H12_4 C12_4 1_555 1_555
H13_4 C12_4 1_555 1_555
S3_4 C3_4 1_555 1_555
C13_4 S3_4 1_555 1_555
C14_4 C13_4 1_555 1_555
S4_4 C14_4 1_555 1_555
C19_4 S4_4 1_555 1_555
H16_4 C19_4 1_555 1_555
H17_4 C19_4 1_555 1_555
C20_4 C19_4 1_555 1_555
O11_2 C20_4 1_555 1_555
O13_2 C20_4 1_555 1_555
C42_4 S6_4 1_555 1_555
H42_4 C42_4 1_555 1_555
C43_4 C42_4 1_555 1_555
O6_4 C43_4 1_555 1_555
O7_4 C43_4 1_555 1_555
C50_4 S5_5 1_555 1_555
C51_4 C50_4 1_555 1_555
H53_4 C51_4 1_555 1_555
C52_4 C51_4 1_555 1_555
H54_4 C53_4 1_555 1_555
C56_4 C52_4 1_555 1_555
C57_4 C56_4 1_555 1_555
H57_4 C57_4 1_555 1_555
H58_4 C57_4 1_555 1_555
H59_4 C57_4 1_555 1_555
C58_4 C56_4 1_555 1_555
H60_4 C58_4 1_555 1_555
H61_4 C58_4 1_555 1_555
H62_4 C58_4 1_555 1_555
C59_4 C56_4 1_555 1_555
H63_4 C59_4 1_555 1_555
H64_4 C59_4 1_555 1_555
H65_4 C59_4 1_555 1_555
Mn6_2 O6_4 1_555 1_555
N3_4 Mn6_2 1_555 1_555
C60_4 N3_4 1_555 1_555
H66_4 C60_4 1_555 1_555
C61_4 C60_4 1_555 1_555
H67_4 C61_4 1_555 1_555
C62_4 C61_4 1_555 1_555
H68_4 C62_4 1_555 1_555
C63_4 C62_4 1_555 1_555
H69_4 C63_4 1_555 1_555
C64_4 N3_4 1_555 1_555
H70_4 C64_4 1_555 1_555
N4_4 Mn6_2 1_555 1_555
C65_4 N4_4 1_555 1_555
H71_4 C65_4 1_555 1_555
C66_4 C65_4 1_555 1_555
H72_4 C66_4 1_555 1_555
C67_4 C66_4 1_555 1_555
H73_4 C67_4 1_555 1_555
C68_4 C67_4 1_555 1_555
H74_4 C68_4 1_555 1_555
C69_4 N4_4 1_555 1_555
H75_4 C69_4 1_555 1_555
O10_4 Mn6_2 1_555 1_555
C5_4 C6_4 1_555 1_555
C52_4 C53_4 1_555 1_555
C63_4 C64_4 1_555 1_555
C68_4 C69_4 1_555 1_555
Mn5_2 O1_4 1_555 1_555
C7_4 S2_4 1_555 1_555
H3_4 C7_4 1_555 1_555
C8_4 C7_4 1_555 1_555
O1_4 C8_4 1_555 1_555
O2_4 C8_4 1_555 1_555
C16_4 C15_4 1_555 1_555
H14_4 C16_4 1_555 1_555
C17_4 C16_4 1_555 1_555
H15_4 C18_4 1_555 1_555
C21_4 C17_4 1_555 1_555
C22_4 C21_4 1_555 1_555
H18_4 C22_4 1_555 1_555
H19_4 C22_4 1_555 1_555
H20_4 C22_4 1_555 1_555
C23_4 C21_4 1_555 1_555
H21_4 C23_4 1_555 1_555
H22_4 C23_4 1_555 1_555
H23_4 C23_4 1_555 1_555
C24_4 C21_4 1_555 1_555
H24_4 C24_4 1_555 1_555
H25_4 C24_4 1_555 1_555
H26_4 C24_4 1_555 1_555
S5_6 C15_4 1_555 1_555
N1_4 Mn5_2 1_555 1_555
C25_4 N1_4 1_555 1_555
H27_4 C25_4 1_555 1_555
C26_4 C25_4 1_555 1_555
H28_4 C26_4 1_555 1_555
C27_4 C26_4 1_555 1_555
H29_4 C27_4 1_555 1_555
C28_4 C27_4 1_555 1_555
H30_4 C28_4 1_555 1_555
C29_4 N1_4 1_555 1_555
H31_4 C29_4 1_555 1_555
N2_4 Mn5_2 1_555 1_555
C30_4 N2_4 1_555 1_555
H32_4 C30_4 1_555 1_555
C31_4 C30_4 1_555 1_555
H33_4 C31_4 1_555 1_555
C32_4 C31_4 1_555 1_555
H34_4 C32_4 1_555 1_555
C33_4 C32_4 1_555 1_555
H35_4 C33_4 1_555 1_555
C34_4 N2_4 1_555 1_555
H36_4 C34_4 1_555 1_555
O5_4 Mn5_2 1_555 1_555
C35_4 O5_4 1_555 1_555
H37_4 C35_4 1_555 1_555
H38_4 C35_4 1_555 1_555
H39_4 C35_4 1_555 1_555
C36_4 S1_6 1_555 1_555
C37_4 C36_4 1_555 1_555
C38_4 C37_4 1_555 1_555
C39_4 C38_4 1_555 1_555
H40_4 C39_4 1_555 1_555
C40_4 C39_4 1_555 1_555
C41_4 C36_4 1_555 1_555
H41_4 C41_4 1_555 1_555
C44_4 C40_4 1_555 1_555
C45_4 C44_4 1_555 1_555
H44_4 C45_4 1_555 1_555
H45_4 C45_4 1_555 1_555
H46_4 C45_4 1_555 1_555
C46_4 C44_4 1_555 1_555
H47_4 C46_4 1_555 1_555
H48_4 C46_4 1_555 1_555
H49_4 C46_4 1_555 1_555
C47_4 C44_4 1_555 1_555
H50_4 C47_4 1_555 1_555
H51_4 C47_4 1_555 1_555
H52_4 C47_4 1_555 1_555
S7_4 C38_4 1_555 1_555
C48_4 S7_4 1_555 1_555
C49_4 C48_4 1_555 1_555
S8_4 C49_4 1_555 1_555
C54_4 S8_4 1_555 1_555
H55_4 C54_4 1_555 1_555
H56_4 C54_4 1_555 1_555
C55_4 C54_4 1_555 1_555
O14_2 C55_4 1_555 1_555
C17_4 C18_4 1_555 1_555
C28_4 C29_4 1_555 1_555
C33_4 C34_4 1_555 1_555
C40_4 C41_4 1_555 1_555
H77_2 C70_2 1_555 1_555
H77_3 C70_3 1_555 1_555
H77_4 C70_4 1_555 1_555

#END
