
###############################################################################
#
# This file contains modified crystal structure data generated from the
# MOF subset of the Cambridge Structural Database (CSD) v543 
# hosted by the Cambridge Crystallographic Data Centre (CCDC).
#
# This work is licensed under the Creative Commons
# Attribution-NonCommercial-ShareAlike 4.0 International License.
# To view a copy of this license, visit
# http://creativecommons.org/licenses/by-nc-sa/4.0/
# or send a letter to
# Creative Commons, PO Box 1866, Mountain View, CA 94042, USA.
#
# CIF created using the CSD Python API on 29 September 2022
# The structure has been converted into the P1 space group
# The structure has a 3D framework
# The original CSD entry HEPLOG is in the monoclinic crystal system
# The framework has been calculated to contain at least 10.0% void space
# The void calculation uses a probe of radius 1.32A, grid spacing 0.4
#
###############################################################################

data_HEPLOG
_chemical_formula_moiety         '(C208 H256 O48 S32 Zn8)n'
_symmetry_cell_setting           triclinic
_symmetry_space_group_name_H-M   'P 1'
_symmetry_Int_Tables_number      1
_space_group_name_Hall           'P 1'
loop_
_symmetry_equiv_pos_site_id
_symmetry_equiv_pos_as_xyz
1 x,y,z
_cell_length_a                   18.6752(10)
_cell_length_b                   19.4783(10)
_cell_length_c                   19.3185(9)
_cell_angle_alpha                90
_cell_angle_beta                 108.722(2)
_cell_angle_gamma                90
_cell_volume                     6655.48
loop_
_atom_site_label
_atom_site_type_symbol
_atom_site_fract_x
_atom_site_fract_y
_atom_site_fract_z
Zn1 Zn 0.78976(5) 0.32254(3) 0.52865(5)
S1 S 0.71935(6) 0.59878(6) 0.35231(6)
C1 C 0.6465(2) 0.6387(2) 0.3797(2)
C2 C 0.5905(2) 0.6014(2) 0.3968(2)
C3 C 0.5363(2) 0.6383(2) 0.4178(2)
C4 C 0.5421(2) 0.7094(2) 0.4262(2)
H1 H 0.5048 0.7335 0.4405
C5 C 0.6010(2) 0.7459(2) 0.4143(2)
C6 C 0.6517(2) 0.7098(2) 0.3892(2)
H2 H 0.6909 0.7340 0.3782
S2 S 0.58926(7) 0.51000(5) 0.39439(7)
C7 C 0.6664(3) 0.4961(3) 0.4773(3)
H3 H 0.7070 0.5295 0.4795
H4 H 0.6486 0.5050 0.5195
C8 C 0.6987(4) 0.4244(3) 0.4838(4)
O1 O 0.7443(3) 0.4086(2) 0.5458(3)
O2 O 0.6843(4) 0.3859(2) 0.4317(3)
C9 C 0.6046(3) 0.8239(2) 0.4239(3)
C10 C 0.5874(6) 0.8436(4) 0.4939(5)
H5 H 0.5898 0.8936 0.4997
H6 H 0.6247 0.8222 0.5362
H7 H 0.5366 0.8275 0.4906
C11 C 0.5463(5) 0.8557(3) 0.3599(5)
H8 H 0.5613 0.8498 0.3160
H9 H 0.5419 0.9047 0.3691
H10 H 0.4974 0.8332 0.3525
C12 C 0.6821(4) 0.8525(3) 0.4318(5)
H11 H 0.6964 0.8397 0.3890
H12 H 0.7190 0.8338 0.4760
H13 H 0.6810 0.9027 0.4355
S3 S 0.46170(7) 0.59829(6) 0.44132(6)
C13 C 0.4078(2) 0.5579(2) 0.3576(2)
C14 C 0.3694(2) 0.5956(2) 0.2944(2)
C15 C 0.3306(2) 0.5579(2) 0.2318(2)
C16 C 0.3252(3) 0.4871(2) 0.2348(3)
H14 H 0.2985 0.4628 0.1915
C17 C 0.3575(3) 0.4505(2) 0.2990(3)
C18 C 0.4009(3) 0.4869(2) 0.3599(3)
H15 H 0.4261 0.4629 0.4038
S4 S 0.36700(7) 0.68660(6) 0.29593(7)
C19 C 0.3028(3) 0.6948(2) 0.3493(3)
H16 H 0.2511 0.7034 0.3156
H17 H 0.3019 0.6508 0.3746
C20 C 0.3237(3) 0.7511(2) 0.4048(3)
O3 O 0.3705(2) 0.79458(19) 0.4030(2)
O4 O 0.2886(2) 0.75049(17) 0.4526(2)
C21 C 0.3495(4) 0.3724(3) 0.2997(3)
C22 C 0.3764(5) 0.3434(3) 0.3776(3)
H18 H 0.4309 0.3507 0.3992
H19 H 0.3654 0.2941 0.3761
H20 H 0.3499 0.3668 0.4071
C23 C 0.3984(7) 0.3422(4) 0.2563(5)
H21 H 0.3776 0.3562 0.2050
H22 H 0.3983 0.2920 0.2596
H23 H 0.4503 0.3592 0.2769
C24 C 0.2657(5) 0.3529(4) 0.2629(5)
H24 H 0.2343 0.3778 0.2867
H25 H 0.2594 0.3034 0.2678
H26 H 0.2502 0.3652 0.2110
O5 O 0.8797(3) 0.37800(19) 0.5064(3)
C25 C 0.8805(5) 0.4487(3) 0.4916(5)
H27 H 0.8413 0.4590 0.4451
H28 H 0.9301 0.4615 0.4885
H29 H 0.8706 0.4748 0.5309
O6 O 0.8666(4) 0.2771(5) 0.6109(4)
C26 C 0.9377(5) 0.2512(8) 0.6112(6)
H30 H 0.9309 0.2056 0.5886
H31 H 0.9716 0.2478 0.6617
H32 H 0.9596 0.2822 0.5835
S5 S 0.28065(6) 0.59878(6) 0.14769(6)
C27 C 0.3535(2) 0.6387(2) 0.1203(2)
C28 C 0.4095(2) 0.6014(2) 0.1032(2)
C29 C 0.4637(2) 0.6383(2) 0.0822(2)
C30 C 0.4579(2) 0.7094(2) 0.0738(2)
H33 H 0.4952 0.7335 0.0595
C31 C 0.3990(2) 0.7459(2) 0.0857(2)
C32 C 0.3483(2) 0.7098(2) 0.1108(2)
H34 H 0.3091 0.7340 0.1218
S6 S 0.41074(7) 0.51000(5) 0.10561(7)
C33 C 0.3336(3) 0.4961(3) 0.0227(3)
H35 H 0.2930 0.5295 0.0205
C34 C 0.3013(4) 0.4244(3) 0.0162(4)
O8 O 0.3157(4) 0.3859(2) 0.0683(3)
C35 C 0.3954(3) 0.8239(2) 0.0761(3)
C36 C 0.4126(6) 0.8436(4) 0.0061(5)
H37 H 0.4102 0.8936 0.0003
H39 H 0.4634 0.8275 0.0094
C37 C 0.4537(5) 0.8557(3) 0.1401(5)
H40 H 0.4387 0.8498 0.1840
H41 H 0.4581 0.9047 0.1309
H42 H 0.5026 0.8332 0.1475
C38 C 0.3179(4) 0.8525(3) 0.0682(5)
H43 H 0.3036 0.8397 0.1110
H44 H 0.2810 0.8338 0.0240
H45 H 0.3190 0.9027 0.0645
S7 S 0.53830(7) 0.59829(6) 0.05868(6)
C39 C 0.5922(2) 0.5579(2) 0.1424(2)
C40 C 0.6306(2) 0.5956(2) 0.2056(2)
C41 C 0.6694(2) 0.5579(2) 0.2682(2)
C42 C 0.6748(3) 0.4871(2) 0.2652(3)
H46 H 0.7015 0.4628 0.3085
C43 C 0.6425(3) 0.4505(2) 0.2010(3)
C44 C 0.5991(3) 0.4869(2) 0.1401(3)
H47 H 0.5739 0.4629 0.0962
S8 S 0.63300(7) 0.68660(6) 0.20407(7)
C45 C 0.6972(3) 0.6948(2) 0.1507(3)
H48 H 0.7489 0.7034 0.1844
H49 H 0.6981 0.6508 0.1254
C46 C 0.6763(3) 0.7511(2) 0.0952(3)
O9 O 0.6295(2) 0.79458(19) 0.0970(2)
O10 O 0.7114(2) 0.75049(17) 0.0474(2)
C47 C 0.6505(4) 0.3724(3) 0.2003(3)
C48 C 0.6236(5) 0.3434(3) 0.1224(3)
H50 H 0.5691 0.3507 0.1008
H51 H 0.6346 0.2941 0.1239
H52 H 0.6501 0.3668 0.0929
C49 C 0.6016(7) 0.3422(4) 0.2437(5)
H53 H 0.6224 0.3562 0.2950
H54 H 0.6017 0.2920 0.2404
H55 H 0.5497 0.3592 0.2231
C50 C 0.7343(5) 0.3529(4) 0.2371(5)
H56 H 0.7657 0.3778 0.2133
H57 H 0.7406 0.3034 0.2322
H58 H 0.7498 0.3652 0.2890
C51 C 0.1195(5) 0.4487(3) 0.0084(5)
H59 H 0.1587 0.4590 0.0549
H60 H 0.0699 0.4615 0.0115
Zn3 Zn 0.28976(5) 0.82254(3) 0.52865(5)
Zn5 Zn 0.21024(5) 0.67746(3) 0.47135(5)
Zn6 Zn 0.78976(5) 0.67746(3) 0.02865(5)
O13 O 0.7886(2) 0.25049(17) 0.4526(2)
O14 O 0.2114(2) 0.25049(17) 0.0474(2)
O15 O 0.7114(2) 0.24951(17) 0.5474(2)
H36 H 0.3514 0.5050 0.9805
O7 O 0.2557(3) 0.4086(2) 0.9542(3)
H38 H 0.3753 0.8222 0.9638
Zn2 Zn 0.21024(5) 0.32254(3) 0.97135(5)
O11 O 0.1203(3) 0.37800(19) 0.9936(3)
H61 H 0.1294 0.4748 0.9691
O12 O 0.1334(4) 0.2771(5) 0.8891(4)
C52 C 0.0623(5) 0.2512(8) 0.8888(6)
H62 H 0.0691 0.2056 0.9114
H63 H 0.0284 0.2478 0.8383
H64 H 0.0404 0.2822 0.9165
Zn4 Zn 0.71024(5) 0.82254(3) 0.97135(5)
O16 O 0.2886(2) 0.24951(17) 0.9526(2)
S1_2 S 0.21935(6) 0.09878(6) 0.35231(6)
C1_2 C 0.1465(2) 0.1387(2) 0.3797(2)
C2_2 C 0.0905(2) 0.1014(2) 0.3968(2)
C3_2 C 0.0363(2) 0.1383(2) 0.4178(2)
C4_2 C 0.0421(2) 0.2094(2) 0.4262(2)
H1_2 H 0.0048 0.2335 0.4405
C5_2 C 0.1010(2) 0.2459(2) 0.4143(2)
C6_2 C 0.1517(2) 0.2098(2) 0.3892(2)
H2_2 H 0.1909 0.2340 0.3782
S2_2 S 0.08926(7) 0.01000(5) 0.39439(7)
H3_2 H 0.2070 0.0295 0.4795
H4_2 H 0.1486 0.0050 0.5195
C9_2 C 0.1046(3) 0.3239(2) 0.4239(3)
C10_2 C 0.0874(6) 0.3436(4) 0.4939(5)
H5_2 H 0.0898 0.3936 0.4997
H6_2 H 0.1247 0.3222 0.5362
H7_2 H 0.0366 0.3275 0.4906
C11_2 C 0.0463(5) 0.3557(3) 0.3599(5)
H8_2 H 0.0613 0.3498 0.3160
H9_2 H 0.0419 0.4047 0.3691
C12_2 C 0.1821(4) 0.3525(3) 0.4318(5)
H11_2 H 0.1964 0.3397 0.3890
H12_2 H 0.2190 0.3338 0.4760
H13_2 H 0.1810 0.4027 0.4355
H42_2 H 0.0026 0.3332 0.1475
S7_2 S 0.03830(7) 0.09829(6) 0.05868(6)
C39_2 C 0.0922(2) 0.0579(2) 0.1424(2)
C40_2 C 0.1306(2) 0.0956(2) 0.2056(2)
C41_2 C 0.1694(2) 0.0579(2) 0.2682(2)
S8_2 S 0.13300(7) 0.18660(6) 0.20407(7)
C45_2 C 0.1972(3) 0.1948(2) 0.1507(3)
H48_2 H 0.2489 0.2034 0.1844
H49_2 H 0.1981 0.1508 0.1254
C46_2 C 0.1763(3) 0.2511(2) 0.0952(3)
O9_2 O 0.1295(2) 0.29458(19) 0.0970(2)
Zn6_2 Zn 0.28976(5) 0.17746(3) 0.02865(5)
C7_2 C 0.1664(3) 0.9961(3) 0.4773(3)
C8_2 C 0.1987(4) 0.9244(3) 0.4838(4)
O1_2 O 0.2443(3) 0.9086(2) 0.5458(3)
O2_2 O 0.1843(4) 0.8859(2) 0.4317(3)
O5_2 O 0.3797(3) 0.87800(19) 0.5064(3)
C25_2 C 0.3805(5) 0.9487(3) 0.4916(5)
H27_2 H 0.3413 0.9590 0.4451
H28_2 H 0.4301 0.9615 0.4885
H29_2 H 0.3706 0.9748 0.5309
O6_2 O 0.3666(4) 0.7771(5) 0.6109(4)
C26_2 C 0.4377(5) 0.7512(8) 0.6112(6)
H30_2 H 0.4309 0.7056 0.5886
H31_2 H 0.4716 0.7478 0.6617
H32_2 H 0.4596 0.7822 0.5835
C42_2 C 0.1748(3) 0.9871(2) 0.2652(3)
H46_2 H 0.2015 0.9628 0.3085
C43_2 C 0.1425(3) 0.9505(2) 0.2010(3)
C44_2 C 0.0991(3) 0.9869(2) 0.1401(3)
H47_2 H 0.0739 0.9629 0.0962
C47_2 C 0.1505(4) 0.8724(3) 0.2003(3)
C48_2 C 0.1236(5) 0.8434(3) 0.1224(3)
H50_2 H 0.0691 0.8507 0.1008
H51_2 H 0.1346 0.7941 0.1239
H52_2 H 0.1501 0.8668 0.0929
C49_2 C 0.1016(7) 0.8422(4) 0.2437(5)
H53_2 H 0.1224 0.8562 0.2950
H54_2 H 0.1017 0.7920 0.2404
H55_2 H 0.0497 0.8592 0.2231
C50_2 C 0.2343(5) 0.8529(4) 0.2371(5)
H56_2 H 0.2657 0.8778 0.2133
H57_2 H 0.2406 0.8034 0.2322
H58_2 H 0.2498 0.8652 0.2890
O15_2 O 0.2114(2) 0.74951(17) 0.5474(2)
H10_2 H 0.9974 0.3332 0.3525
S3_2 S 0.96170(7) 0.09829(6) 0.44132(6)
C13_2 C 0.9078(2) 0.0579(2) 0.3576(2)
C14_2 C 0.8694(2) 0.0956(2) 0.2944(2)
C15_2 C 0.8306(2) 0.0579(2) 0.2318(2)
S4_2 S 0.86700(7) 0.18660(6) 0.29593(7)
C19_2 C 0.8028(3) 0.1948(2) 0.3493(3)
H16_2 H 0.7511 0.2034 0.3156
H17_2 H 0.8019 0.1508 0.3746
C20_2 C 0.8237(3) 0.2511(2) 0.4048(3)
O3_2 O 0.8705(2) 0.29458(19) 0.4030(2)
S5_2 S 0.78065(6) 0.09878(6) 0.14769(6)
C27_2 C 0.8535(2) 0.1387(2) 0.1203(2)
C28_2 C 0.9095(2) 0.1014(2) 0.1032(2)
C29_2 C 0.9637(2) 0.1383(2) 0.0822(2)
C30_2 C 0.9579(2) 0.2094(2) 0.0738(2)
H33_2 H 0.9952 0.2335 0.0595
C31_2 C 0.8990(2) 0.2459(2) 0.0857(2)
C32_2 C 0.8483(2) 0.2098(2) 0.1108(2)
H34_2 H 0.8091 0.2340 0.1218
S6_2 S 0.91074(7) 0.01000(5) 0.10561(7)
H35_2 H 0.7930 0.0295 0.0205
C35_2 C 0.8954(3) 0.3239(2) 0.0761(3)
C36_2 C 0.9126(6) 0.3436(4) 0.0061(5)
H37_2 H 0.9102 0.3936 0.0003
H39_2 H 0.9634 0.3275 0.0094
C37_2 C 0.9537(5) 0.3557(3) 0.1401(5)
H40_2 H 0.9387 0.3498 0.1840
H41_2 H 0.9581 0.4047 0.1309
C38_2 C 0.8179(4) 0.3525(3) 0.0682(5)
H43_2 H 0.8036 0.3397 0.1110
H44_2 H 0.7810 0.3338 0.0240
H45_2 H 0.8190 0.4027 0.0645
Zn5_2 Zn 0.71024(5) 0.17746(3) 0.47135(5)
C16_2 C 0.8252(3) 0.9871(2) 0.2348(3)
H14_2 H 0.7985 0.9628 0.1915
C17_2 C 0.8575(3) 0.9505(2) 0.2990(3)
C18_2 C 0.9009(3) 0.9869(2) 0.3599(3)
H15_2 H 0.9261 0.9629 0.4038
C21_2 C 0.8495(4) 0.8724(3) 0.2997(3)
C22_2 C 0.8764(5) 0.8434(3) 0.3776(3)
H18_2 H 0.9309 0.8507 0.3992
H19_2 H 0.8654 0.7941 0.3761
H20_2 H 0.8499 0.8668 0.4071
C23_2 C 0.8984(7) 0.8422(4) 0.2563(5)
H21_2 H 0.8776 0.8562 0.2050
H22_2 H 0.8983 0.7920 0.2596
H23_2 H 0.9503 0.8592 0.2769
C24_2 C 0.7657(5) 0.8529(4) 0.2629(5)
H24_2 H 0.7343 0.8778 0.2867
H25_2 H 0.7594 0.8034 0.2678
H26_2 H 0.7502 0.8652 0.2110
C33_2 C 0.8336(3) 0.9961(3) 0.0227(3)
C34_2 C 0.8013(4) 0.9244(3) 0.0162(4)
O8_2 O 0.8157(4) 0.8859(2) 0.0683(3)
C51_2 C 0.6195(5) 0.9487(3) 0.0084(5)
H59_2 H 0.6587 0.9590 0.0549
H60_2 H 0.5699 0.9615 0.0115
O7_2 O 0.7557(3) 0.9086(2) 0.9542(3)
O11_2 O 0.6203(3) 0.87800(19) 0.9936(3)
H61_2 H 0.6294 0.9748 0.9691
O12_2 O 0.6334(4) 0.7771(5) 0.8891(4)
C52_2 C 0.5623(5) 0.7512(8) 0.8888(6)
H62_2 H 0.5691 0.7056 0.9114
H63_2 H 0.5284 0.7478 0.8383
H64_2 H 0.5404 0.7822 0.9165
O16_2 O 0.7886(2) 0.74951(17) 0.9526(2)
H36_2 H 0.6486 0.4950 0.0195
O7_3 O 0.7443(3) 0.5914(2) 0.0458(3)
H38_2 H 0.6247 0.1778 0.0362
O11_3 O 0.8797(3) 0.62200(19) 0.0064(3)
H61_3 H 0.8706 0.5252 0.0309
O12_3 O 0.8666(4) 0.7229(5) 0.1109(4)
C52_3 C 0.9377(5) 0.7488(8) 0.1112(6)
H62_3 H 0.9309 0.7944 0.0886
H63_3 H 0.9716 0.7522 0.1617
H64_3 H 0.9596 0.7178 0.0835
S1_3 S 0.28065(6) 0.40122(6) 0.64769(6)
C1_3 C 0.3535(2) 0.3613(2) 0.6203(2)
C2_3 C 0.4095(2) 0.3986(2) 0.6032(2)
C3_3 C 0.4637(2) 0.3617(2) 0.5822(2)
C4_3 C 0.4579(2) 0.2906(2) 0.5738(2)
H1_3 H 0.4952 0.2665 0.5595
C5_3 C 0.3990(2) 0.2541(2) 0.5857(2)
C6_3 C 0.3483(2) 0.2902(2) 0.6108(2)
H2_3 H 0.3091 0.2660 0.6218
S2_3 S 0.41074(7) 0.49000(5) 0.60561(7)
C7_3 C 0.3336(3) 0.5039(3) 0.5227(3)
H3_3 H 0.2930 0.4705 0.5205
H4_3 H 0.3514 0.4950 0.4805
C8_3 C 0.3013(4) 0.5756(3) 0.5162(4)
O1_3 O 0.2557(3) 0.5914(2) 0.4542(3)
O2_3 O 0.3157(4) 0.6141(2) 0.5683(3)
C9_3 C 0.3954(3) 0.1761(2) 0.5761(3)
C10_3 C 0.4126(6) 0.1564(4) 0.5061(5)
H5_3 H 0.4102 0.1064 0.5003
H6_3 H 0.3753 0.1778 0.4638
H7_3 H 0.4634 0.1725 0.5094
C11_3 C 0.4537(5) 0.1443(3) 0.6401(5)
H8_3 H 0.4387 0.1502 0.6840
H9_3 H 0.4581 0.0953 0.6309
H10_3 H 0.5026 0.1668 0.6475
C12_3 C 0.3179(4) 0.1475(3) 0.5682(5)
H11_3 H 0.3036 0.1603 0.6110
H12_3 H 0.2810 0.1662 0.5240
H13_3 H 0.3190 0.0973 0.5645
S3_3 S 0.53830(7) 0.40171(6) 0.55868(6)
C13_3 C 0.5922(2) 0.4421(2) 0.6424(2)
C14_3 C 0.6306(2) 0.4044(2) 0.7056(2)
C15_3 C 0.6694(2) 0.4421(2) 0.7682(2)
C16_3 C 0.6748(3) 0.5129(2) 0.7652(3)
H14_3 H 0.7015 0.5372 0.8085
C17_3 C 0.6425(3) 0.5495(2) 0.7010(3)
C18_3 C 0.5991(3) 0.5131(2) 0.6401(3)
H15_3 H 0.5739 0.5371 0.5962
S4_3 S 0.63300(7) 0.31340(6) 0.70407(7)
C19_3 C 0.6972(3) 0.3052(2) 0.6507(3)
H16_3 H 0.7489 0.2966 0.6844
H17_3 H 0.6981 0.3492 0.6254
C20_3 C 0.6763(3) 0.2489(2) 0.5952(3)
O3_3 O 0.6295(2) 0.20542(19) 0.5970(2)
C21_3 C 0.6505(4) 0.6276(3) 0.7003(3)
C22_3 C 0.6236(5) 0.6566(3) 0.6224(3)
H18_3 H 0.5691 0.6493 0.6008
H19_3 H 0.6346 0.7059 0.6239
H20_3 H 0.6501 0.6332 0.5929
C23_3 C 0.6016(7) 0.6578(4) 0.7437(5)
H21_3 H 0.6224 0.6438 0.7950
H22_3 H 0.6017 0.7080 0.7404
H23_3 H 0.5497 0.6408 0.7231
C24_3 C 0.7343(5) 0.6471(4) 0.7371(5)
H24_3 H 0.7657 0.6222 0.7133
H25_3 H 0.7406 0.6966 0.7322
H26_3 H 0.7498 0.6348 0.7890
O5_3 O 0.1203(3) 0.62200(19) 0.4936(3)
C25_3 C 0.1195(5) 0.5513(3) 0.5084(5)
H27_3 H 0.1587 0.5410 0.5549
H28_3 H 0.0699 0.5385 0.5115
H29_3 H 0.1294 0.5252 0.4691
O6_3 O 0.1334(4) 0.7229(5) 0.3891(4)
C26_3 C 0.0623(5) 0.7488(8) 0.3888(6)
H30_3 H 0.0691 0.7944 0.4114
H31_3 H 0.0284 0.7522 0.3383
H32_3 H 0.0404 0.7178 0.4165
S5_3 S 0.71935(6) 0.40122(6) 0.85231(6)
C27_3 C 0.6465(2) 0.3613(2) 0.8797(2)
C28_3 C 0.5905(2) 0.3986(2) 0.8968(2)
C29_3 C 0.5363(2) 0.3617(2) 0.9178(2)
C30_3 C 0.5421(2) 0.2906(2) 0.9262(2)
H33_3 H 0.5048 0.2665 0.9405
C31_3 C 0.6010(2) 0.2541(2) 0.9143(2)
C32_3 C 0.6517(2) 0.2902(2) 0.8892(2)
H34_3 H 0.6909 0.2660 0.8782
S6_3 S 0.58926(7) 0.49000(5) 0.89439(7)
C33_3 C 0.6664(3) 0.5039(3) 0.9773(3)
H35_3 H 0.7070 0.4705 0.9795
C34_3 C 0.6987(4) 0.5756(3) 0.9838(4)
O8_3 O 0.6843(4) 0.6141(2) 0.9317(3)
C35_3 C 0.6046(3) 0.1761(2) 0.9239(3)
C36_3 C 0.5874(6) 0.1564(4) 0.9939(5)
H37_3 H 0.5898 0.1064 0.9997
H39_3 H 0.5366 0.1725 0.9906
C37_3 C 0.5463(5) 0.1443(3) 0.8599(5)
H40_3 H 0.5613 0.1502 0.8160
H41_3 H 0.5419 0.0953 0.8691
H42_3 H 0.4974 0.1668 0.8525
C38_3 C 0.6821(4) 0.1475(3) 0.9318(5)
H43_3 H 0.6964 0.1603 0.8890
H44_3 H 0.7190 0.1662 0.9760
H45_3 H 0.6810 0.0973 0.9355
S7_3 S 0.46170(7) 0.40171(6) 0.94132(6)
C39_3 C 0.4078(2) 0.4421(2) 0.8576(2)
C40_3 C 0.3694(2) 0.4044(2) 0.7944(2)
C41_3 C 0.3306(2) 0.4421(2) 0.7318(2)
C42_3 C 0.3252(3) 0.5129(2) 0.7348(3)
H46_3 H 0.2985 0.5372 0.6915
C43_3 C 0.3575(3) 0.5495(2) 0.7990(3)
C44_3 C 0.4009(3) 0.5131(2) 0.8599(3)
H47_3 H 0.4261 0.5371 0.9038
S8_3 S 0.36700(7) 0.31340(6) 0.79593(7)
C45_3 C 0.3028(3) 0.3052(2) 0.8493(3)
H48_3 H 0.2511 0.2966 0.8156
H49_3 H 0.3019 0.3492 0.8746
C46_3 C 0.3237(3) 0.2489(2) 0.9048(3)
O9_3 O 0.3705(2) 0.20542(19) 0.9030(2)
C47_3 C 0.3495(4) 0.6276(3) 0.7997(3)
C48_3 C 0.3764(5) 0.6566(3) 0.8776(3)
H50_3 H 0.4309 0.6493 0.8992
H51_3 H 0.3654 0.7059 0.8761
H52_3 H 0.3499 0.6332 0.9071
C49_3 C 0.3984(7) 0.6578(4) 0.7563(5)
H53_3 H 0.3776 0.6438 0.7050
H54_3 H 0.3983 0.7080 0.7596
H55_3 H 0.4503 0.6408 0.7769
C50_3 C 0.2657(5) 0.6471(4) 0.7629(5)
H56_3 H 0.2343 0.6222 0.7867
H57_3 H 0.2594 0.6966 0.7678
H58_3 H 0.2502 0.6348 0.7110
C51_3 C 0.8805(5) 0.5513(3) 0.9916(5)
H59_3 H 0.8413 0.5410 0.9451
H60_3 H 0.9301 0.5385 0.9885
O7_4 O 0.2443(3) 0.0914(2) 0.0458(3)
O11_4 O 0.3797(3) 0.12200(19) 0.0064(3)
H61_4 H 0.3706 0.0252 0.0309
O12_4 O 0.3666(4) 0.2229(5) 0.1109(4)
C52_4 C 0.4377(5) 0.2488(8) 0.1112(6)
H62_4 H 0.4309 0.2944 0.0886
H63_4 H 0.4716 0.2522 0.1617
H64_4 H 0.4596 0.2178 0.0835
C16_4 C 0.1748(3) 0.0129(2) 0.7652(3)
H14_4 H 0.2015 0.0372 0.8085
C17_4 C 0.1425(3) 0.0495(2) 0.7010(3)
C18_4 C 0.0991(3) 0.0131(2) 0.6401(3)
H15_4 H 0.0739 0.0371 0.5962
C21_4 C 0.1505(4) 0.1276(3) 0.7003(3)
C22_4 C 0.1236(5) 0.1566(3) 0.6224(3)
H18_4 H 0.0691 0.1493 0.6008
H19_4 H 0.1346 0.2059 0.6239
H20_4 H 0.1501 0.1332 0.5929
C23_4 C 0.1016(7) 0.1578(4) 0.7437(5)
H21_4 H 0.1224 0.1438 0.7950
H22_4 H 0.1017 0.2080 0.7404
H23_4 H 0.0497 0.1408 0.7231
C24_4 C 0.2343(5) 0.1471(4) 0.7371(5)
H24_4 H 0.2657 0.1222 0.7133
H25_4 H 0.2406 0.1966 0.7322
H26_4 H 0.2498 0.1348 0.7890
C33_4 C 0.1664(3) 0.0039(3) 0.9773(3)
C34_4 C 0.1987(4) 0.0756(3) 0.9838(4)
O8_4 O 0.1843(4) 0.1141(2) 0.9317(3)
C51_4 C 0.3805(5) 0.0513(3) 0.9916(5)
H59_4 H 0.3413 0.0410 0.9451
H60_4 H 0.4301 0.0385 0.9885
H10_4 H 0.0026 0.6668 0.6475
S3_4 S 0.03830(7) 0.90171(6) 0.55868(6)
C13_4 C 0.0922(2) 0.9421(2) 0.6424(2)
C14_4 C 0.1306(2) 0.9044(2) 0.7056(2)
C15_4 C 0.1694(2) 0.9421(2) 0.7682(2)
S4_4 S 0.13300(7) 0.81340(6) 0.70407(7)
C19_4 C 0.1972(3) 0.8052(2) 0.6507(3)
H16_4 H 0.2489 0.7966 0.6844
H17_4 H 0.1981 0.8492 0.6254
C20_4 C 0.1763(3) 0.7489(2) 0.5952(3)
O3_4 O 0.1295(2) 0.70542(19) 0.5970(2)
S5_4 S 0.21935(6) 0.90122(6) 0.85231(6)
C27_4 C 0.1465(2) 0.8613(2) 0.8797(2)
C28_4 C 0.0905(2) 0.8986(2) 0.8968(2)
C29_4 C 0.0363(2) 0.8617(2) 0.9178(2)
C30_4 C 0.0421(2) 0.7906(2) 0.9262(2)
H33_4 H 0.0048 0.7665 0.9405
C31_4 C 0.1010(2) 0.7541(2) 0.9143(2)
C32_4 C 0.1517(2) 0.7902(2) 0.8892(2)
H34_4 H 0.1909 0.7660 0.8782
S6_4 S 0.08926(7) 0.99000(5) 0.89439(7)
H35_4 H 0.2070 0.9705 0.9795
C35_4 C 0.1046(3) 0.6761(2) 0.9239(3)
C36_4 C 0.0874(6) 0.6564(4) 0.9939(5)
H37_4 H 0.0898 0.6064 0.9997
H39_4 H 0.0366 0.6725 0.9906
C37_4 C 0.0463(5) 0.6443(3) 0.8599(5)
H40_4 H 0.0613 0.6502 0.8160
H41_4 H 0.0419 0.5953 0.8691
C38_4 C 0.1821(4) 0.6475(3) 0.9318(5)
H43_4 H 0.1964 0.6603 0.8890
H44_4 H 0.2190 0.6662 0.9760
H45_4 H 0.1810 0.5973 0.9355
C7_4 C 0.8336(3) 0.0039(3) 0.5227(3)
C8_4 C 0.8013(4) 0.0756(3) 0.5162(4)
O1_4 O 0.7557(3) 0.0914(2) 0.4542(3)
O2_4 O 0.8157(4) 0.1141(2) 0.5683(3)
O5_4 O 0.6203(3) 0.12200(19) 0.4936(3)
C25_4 C 0.6195(5) 0.0513(3) 0.5084(5)
H27_4 H 0.6587 0.0410 0.5549
H28_4 H 0.5699 0.0385 0.5115
H29_4 H 0.6294 0.0252 0.4691
O6_4 O 0.6334(4) 0.2229(5) 0.3891(4)
C26_4 C 0.5623(5) 0.2488(8) 0.3888(6)
H30_4 H 0.5691 0.2944 0.4114
H31_4 H 0.5284 0.2522 0.3383
H32_4 H 0.5404 0.2178 0.4165
C42_4 C 0.8252(3) 0.0129(2) 0.7348(3)
H46_4 H 0.7985 0.0372 0.6915
C43_4 C 0.8575(3) 0.0495(2) 0.7990(3)
C44_4 C 0.9009(3) 0.0131(2) 0.8599(3)
H47_4 H 0.9261 0.0371 0.9038
C47_4 C 0.8495(4) 0.1276(3) 0.7997(3)
C48_4 C 0.8764(5) 0.1566(3) 0.8776(3)
H50_4 H 0.9309 0.1493 0.8992
H51_4 H 0.8654 0.2059 0.8761
H52_4 H 0.8499 0.1332 0.9071
C49_4 C 0.8984(7) 0.1578(4) 0.7563(5)
H53_4 H 0.8776 0.1438 0.7050
H54_4 H 0.8983 0.2080 0.7596
H55_4 H 0.9503 0.1408 0.7769
C50_4 C 0.7657(5) 0.1471(4) 0.7629(5)
H56_4 H 0.7343 0.1222 0.7867
H57_4 H 0.7594 0.1966 0.7678
H58_4 H 0.7502 0.1348 0.7110
S1_4 S 0.78065(6) 0.90122(6) 0.64769(6)
C1_4 C 0.8535(2) 0.8613(2) 0.6203(2)
C2_4 C 0.9095(2) 0.8986(2) 0.6032(2)
C3_4 C 0.9637(2) 0.8617(2) 0.5822(2)
C4_4 C 0.9579(2) 0.7906(2) 0.5738(2)
H1_4 H 0.9952 0.7665 0.5595
C5_4 C 0.8990(2) 0.7541(2) 0.5857(2)
C6_4 C 0.8483(2) 0.7902(2) 0.6108(2)
H2_4 H 0.8091 0.7660 0.6218
S2_4 S 0.91074(7) 0.99000(5) 0.60561(7)
H3_4 H 0.7930 0.9705 0.5205
H4_4 H 0.8514 0.9950 0.4805
C9_4 C 0.8954(3) 0.6761(2) 0.5761(3)
C10_4 C 0.9126(6) 0.6564(4) 0.5061(5)
H5_4 H 0.9102 0.6064 0.5003
H6_4 H 0.8753 0.6778 0.4638
H7_4 H 0.9634 0.6725 0.5094
C11_4 C 0.9537(5) 0.6443(3) 0.6401(5)
H8_4 H 0.9387 0.6502 0.6840
H9_4 H 0.9581 0.5953 0.6309
C12_4 C 0.8179(4) 0.6475(3) 0.5682(5)
H11_4 H 0.8036 0.6603 0.6110
H12_4 H 0.7810 0.6662 0.5240
H13_4 H 0.8190 0.5973 0.5645
H42_4 H 0.9974 0.6668 0.8525
S7_4 S 0.96170(7) 0.90171(6) 0.94132(6)
C39_4 C 0.9078(2) 0.9421(2) 0.8576(2)
C40_4 C 0.8694(2) 0.9044(2) 0.7944(2)
C41_4 C 0.8306(2) 0.9421(2) 0.7318(2)
S8_4 S 0.86700(7) 0.81340(6) 0.79593(7)
C45_4 C 0.8028(3) 0.8052(2) 0.8493(3)
H48_4 H 0.7511 0.7966 0.8156
H49_4 H 0.8019 0.8492 0.8746
C46_4 C 0.8237(3) 0.7489(2) 0.9048(3)
O9_4 O 0.8705(2) 0.70542(19) 0.9030(2)
H36_3 H 0.8514 0.0050 0.9805
H38_3 H 0.8753 0.3222 0.9638
H36_4 H 0.1486 0.9950 0.0195
H38_4 H 0.1247 0.6778 0.0362
loop_
_geom_bond_atom_site_label_1
_geom_bond_atom_site_label_2
_geom_bond_site_symmetry_1
_geom_bond_site_symmetry_2
Zn1 O1 1_555 1_555
S1 C1 1_555 1_555
C1 C2 1_555 1_555
C2 C3 1_555 1_555
C3 C4 1_555 1_555
C4 H1 1_555 1_555
C5 C4 1_555 1_555
C6 C1 1_555 1_555
H2 C6 1_555 1_555
S2 C2 1_555 1_555
C7 S2 1_555 1_555
H3 C7 1_555 1_555
H4 C7 1_555 1_555
C8 C7 1_555 1_555
O1 C8 1_555 1_555
O2 Zn1 1_555 1_555
C9 C5 1_555 1_555
C10 C9 1_555 1_555
H5 C10 1_555 1_555
H6 C10 1_555 1_555
H7 C10 1_555 1_555
C11 C9 1_555 1_555
H8 C11 1_555 1_555
H9 C11 1_555 1_555
H10 C11 1_555 1_555
C12 C9 1_555 1_555
H11 C12 1_555 1_555
H12 C12 1_555 1_555
H13 C12 1_555 1_555
S3 C3 1_555 1_555
C13 S3 1_555 1_555
C14 C13 1_555 1_555
C15 C14 1_555 1_555
C16 C15 1_555 1_555
H14 C16 1_555 1_555
C17 C16 1_555 1_555
C18 C13 1_555 1_555
H15 C18 1_555 1_555
S4 C14 1_555 1_555
C19 S4 1_555 1_555
H16 C19 1_555 1_555
H17 C19 1_555 1_555
C20 C19 1_555 1_555
O3 C20 1_555 1_555
O4 C20 1_555 1_555
C21 C17 1_555 1_555
C22 C21 1_555 1_555
H18 C22 1_555 1_555
H19 C22 1_555 1_555
H20 C22 1_555 1_555
C23 C21 1_555 1_555
H21 C23 1_555 1_555
H22 C23 1_555 1_555
H23 C23 1_555 1_555
C24 C21 1_555 1_555
H24 C24 1_555 1_555
H25 C24 1_555 1_555
H26 C24 1_555 1_555
O5 Zn1 1_555 1_555
C25 O5 1_555 1_555
H27 C25 1_555 1_555
H28 C25 1_555 1_555
H29 C25 1_555 1_555
O6 Zn1 1_555 1_555
C26 O6 1_555 1_555
H30 C26 1_555 1_555
H31 C26 1_555 1_555
H32 C26 1_555 1_555
S5 C15 1_555 1_555
C27 S5 1_555 1_555
C28 C27 1_555 1_555
C29 C28 1_555 1_555
C30 C29 1_555 1_555
H33 C30 1_555 1_555
C31 C30 1_555 1_555
C32 C27 1_555 1_555
H34 C32 1_555 1_555
S6 C28 1_555 1_555
C33 S6 1_555 1_555
H35 C33 1_555 1_555
C34 C33 1_555 1_555
O8 C34 1_555 1_555
C35 C31 1_555 1_555
C36 C35 1_555 1_555
H37 C36 1_555 1_555
H39 C36 1_555 1_555
C37 C35 1_555 1_555
H40 C37 1_555 1_555
H41 C37 1_555 1_555
H42 C37 1_555 1_555
C38 C35 1_555 1_555
H43 C38 1_555 1_555
H44 C38 1_555 1_555
H45 C38 1_555 1_555
S7 C29 1_555 1_555
C39 S7 1_555 1_555
C40 C39 1_555 1_555
C41 S1 1_555 1_555
C42 C41 1_555 1_555
H46 C42 1_555 1_555
C43 C42 1_555 1_555
C44 C39 1_555 1_555
H47 C44 1_555 1_555
S8 C40 1_555 1_555
C45 S8 1_555 1_555
H48 C45 1_555 1_555
H49 C45 1_555 1_555
C46 C45 1_555 1_555
O9 C46 1_555 1_555
O10 C46 1_555 1_555
C47 C43 1_555 1_555
C48 C47 1_555 1_555
H50 C48 1_555 1_555
H51 C48 1_555 1_555
H52 C48 1_555 1_555
C49 C47 1_555 1_555
H53 C49 1_555 1_555
H54 C49 1_555 1_555
H55 C49 1_555 1_555
C50 C47 1_555 1_555
H56 C50 1_555 1_555
H57 C50 1_555 1_555
H58 C50 1_555 1_555
H59 C51 1_555 1_555
H60 C51 1_555 1_555
Zn3 O4 1_555 1_555
Zn5 O4 1_555 1_555
Zn6 O10 1_555 1_555
O13 Zn1 1_555 1_555
O15 Zn1 1_555 1_555
C5 C6 1_555 1_555
C8 O2 1_555 1_555
C17 C18 1_555 1_555
C31 C32 1_555 1_555
C40 C41 1_555 1_555
C43 C44 1_555 1_555
Zn2 O7 1_555 1_555
O11 Zn2 1_555 1_555
O12 Zn2 1_555 1_555
C52 O12 1_555 1_555
H62 C52 1_555 1_555
H63 C52 1_555 1_555
H64 C52 1_555 1_555
O16 Zn2 1_555 1_555
S1_2 C1_2 1_555 1_555
C1_2 C2_2 1_555 1_555
C2_2 C3_2 1_555 1_555
C3_2 C4_2 1_555 1_555
C4_2 H1_2 1_555 1_555
C5_2 C4_2 1_555 1_555
C6_2 C1_2 1_555 1_555
H2_2 C6_2 1_555 1_555
S2_2 C2_2 1_555 1_555
C9_2 C5_2 1_555 1_555
C10_2 C9_2 1_555 1_555
H5_2 C10_2 1_555 1_555
H6_2 C10_2 1_555 1_555
H7_2 C10_2 1_555 1_555
C11_2 C9_2 1_555 1_555
H8_2 C11_2 1_555 1_555
H9_2 C11_2 1_555 1_555
C12_2 C9_2 1_555 1_555
H11_2 C12_2 1_555 1_555
H12_2 C12_2 1_555 1_555
H13_2 C12_2 1_555 1_555
C39_2 S7_2 1_555 1_555
C40_2 C39_2 1_555 1_555
C41_2 S1_2 1_555 1_555
S8_2 C40_2 1_555 1_555
C45_2 S8_2 1_555 1_555
H48_2 C45_2 1_555 1_555
H49_2 C45_2 1_555 1_555
C46_2 C45_2 1_555 1_555
O9_2 C46_2 1_555 1_555
O14 C46_2 1_555 1_555
Zn6_2 O14 1_555 1_555
C5_2 C6_2 1_555 1_555
C40_2 C41_2 1_555 1_555
Zn3 O1_2 1_555 1_555
C8_2 C7_2 1_555 1_555
O1_2 C8_2 1_555 1_555
O2_2 Zn3 1_555 1_555
O5_2 Zn3 1_555 1_555
C25_2 O5_2 1_555 1_555
H27_2 C25_2 1_555 1_555
H28_2 C25_2 1_555 1_555
H29_2 C25_2 1_555 1_555
O6_2 Zn3 1_555 1_555
C26_2 O6_2 1_555 1_555
H30_2 C26_2 1_555 1_555
H31_2 C26_2 1_555 1_555
H32_2 C26_2 1_555 1_555
H46_2 C42_2 1_555 1_555
C43_2 C42_2 1_555 1_555
H47_2 C44_2 1_555 1_555
C47_2 C43_2 1_555 1_555
C48_2 C47_2 1_555 1_555
H50_2 C48_2 1_555 1_555
H51_2 C48_2 1_555 1_555
H52_2 C48_2 1_555 1_555
C49_2 C47_2 1_555 1_555
H53_2 C49_2 1_555 1_555
H54_2 C49_2 1_555 1_555
H55_2 C49_2 1_555 1_555
C50_2 C47_2 1_555 1_555
H56_2 C50_2 1_555 1_555
H57_2 C50_2 1_555 1_555
H58_2 C50_2 1_555 1_555
O15_2 Zn3 1_555 1_555
C8_2 O2_2 1_555 1_555
C43_2 C44_2 1_555 1_555
C13_2 S3_2 1_555 1_555
C14_2 C13_2 1_555 1_555
C15_2 C14_2 1_555 1_555
S4_2 C14_2 1_555 1_555
C19_2 S4_2 1_555 1_555
H16_2 C19_2 1_555 1_555
H17_2 C19_2 1_555 1_555
C20_2 C19_2 1_555 1_555
O3_2 C20_2 1_555 1_555
O13 C20_2 1_555 1_555
S5_2 C15_2 1_555 1_555
C27_2 S5_2 1_555 1_555
C28_2 C27_2 1_555 1_555
C29_2 C28_2 1_555 1_555
C30_2 C29_2 1_555 1_555
H33_2 C30_2 1_555 1_555
C31_2 C30_2 1_555 1_555
C32_2 C27_2 1_555 1_555
H34_2 C32_2 1_555 1_555
S6_2 C28_2 1_555 1_555
C35_2 C31_2 1_555 1_555
C36_2 C35_2 1_555 1_555
H37_2 C36_2 1_555 1_555
H39_2 C36_2 1_555 1_555
C37_2 C35_2 1_555 1_555
H40_2 C37_2 1_555 1_555
H41_2 C37_2 1_555 1_555
C38_2 C35_2 1_555 1_555
H43_2 C38_2 1_555 1_555
H44_2 C38_2 1_555 1_555
H45_2 C38_2 1_555 1_555
Zn5_2 O13 1_555 1_555
C31_2 C32_2 1_555 1_555
H14_2 C16_2 1_555 1_555
C17_2 C16_2 1_555 1_555
H15_2 C18_2 1_555 1_555
C21_2 C17_2 1_555 1_555
C22_2 C21_2 1_555 1_555
H18_2 C22_2 1_555 1_555
H19_2 C22_2 1_555 1_555
H20_2 C22_2 1_555 1_555
C23_2 C21_2 1_555 1_555
H21_2 C23_2 1_555 1_555
H22_2 C23_2 1_555 1_555
H23_2 C23_2 1_555 1_555
C24_2 C21_2 1_555 1_555
H24_2 C24_2 1_555 1_555
H25_2 C24_2 1_555 1_555
H26_2 C24_2 1_555 1_555
C34_2 C33_2 1_555 1_555
O8_2 C34_2 1_555 1_555
H59_2 C51_2 1_555 1_555
H60_2 C51_2 1_555 1_555
C17_2 C18_2 1_555 1_555
Zn4 O7_2 1_555 1_555
O11_2 Zn4 1_555 1_555
O12_2 Zn4 1_555 1_555
C52_2 O12_2 1_555 1_555
H62_2 C52_2 1_555 1_555
H63_2 C52_2 1_555 1_555
H64_2 C52_2 1_555 1_555
O16_2 Zn4 1_555 1_555
Zn6 O7_3 1_555 1_555
O11_3 Zn6 1_555 1_555
O12_3 Zn6 1_555 1_555
C52_3 O12_3 1_555 1_555
H62_3 C52_3 1_555 1_555
H63_3 C52_3 1_555 1_555
H64_3 C52_3 1_555 1_555
Zn5 O1_3 1_555 1_555
S1_3 C1_3 1_555 1_555
C1_3 C2_3 1_555 1_555
C2_3 C3_3 1_555 1_555
C3_3 C4_3 1_555 1_555
C4_3 H1_3 1_555 1_555
C5_3 C4_3 1_555 1_555
C6_3 C1_3 1_555 1_555
H2_3 C6_3 1_555 1_555
S2_3 C2_3 1_555 1_555
C7_3 S2_3 1_555 1_555
H3_3 C7_3 1_555 1_555
H4_3 C7_3 1_555 1_555
C8_3 C7_3 1_555 1_555
O1_3 C8_3 1_555 1_555
O2_3 Zn5 1_555 1_555
C9_3 C5_3 1_555 1_555
C10_3 C9_3 1_555 1_555
H5_3 C10_3 1_555 1_555
H6_3 C10_3 1_555 1_555
H7_3 C10_3 1_555 1_555
C11_3 C9_3 1_555 1_555
H8_3 C11_3 1_555 1_555
H9_3 C11_3 1_555 1_555
H10_3 C11_3 1_555 1_555
C12_3 C9_3 1_555 1_555
H11_3 C12_3 1_555 1_555
H12_3 C12_3 1_555 1_555
H13_3 C12_3 1_555 1_555
S3_3 C3_3 1_555 1_555
C13_3 S3_3 1_555 1_555
C14_3 C13_3 1_555 1_555
C15_3 C14_3 1_555 1_555
C16_3 C15_3 1_555 1_555
H14_3 C16_3 1_555 1_555
C17_3 C16_3 1_555 1_555
C18_3 C13_3 1_555 1_555
H15_3 C18_3 1_555 1_555
S4_3 C14_3 1_555 1_555
C19_3 S4_3 1_555 1_555
H16_3 C19_3 1_555 1_555
H17_3 C19_3 1_555 1_555
C20_3 C19_3 1_555 1_555
O3_3 C20_3 1_555 1_555
O15 C20_3 1_555 1_555
C21_3 C17_3 1_555 1_555
C22_3 C21_3 1_555 1_555
H18_3 C22_3 1_555 1_555
H19_3 C22_3 1_555 1_555
H20_3 C22_3 1_555 1_555
C23_3 C21_3 1_555 1_555
H21_3 C23_3 1_555 1_555
H22_3 C23_3 1_555 1_555
H23_3 C23_3 1_555 1_555
C24_3 C21_3 1_555 1_555
H24_3 C24_3 1_555 1_555
H25_3 C24_3 1_555 1_555
H26_3 C24_3 1_555 1_555
O5_3 Zn5 1_555 1_555
C25_3 O5_3 1_555 1_555
H27_3 C25_3 1_555 1_555
H28_3 C25_3 1_555 1_555
H29_3 C25_3 1_555 1_555
O6_3 Zn5 1_555 1_555
C26_3 O6_3 1_555 1_555
H30_3 C26_3 1_555 1_555
H31_3 C26_3 1_555 1_555
H32_3 C26_3 1_555 1_555
S5_3 C15_3 1_555 1_555
C27_3 S5_3 1_555 1_555
C28_3 C27_3 1_555 1_555
C29_3 C28_3 1_555 1_555
C30_3 C29_3 1_555 1_555
H33_3 C30_3 1_555 1_555
C31_3 C30_3 1_555 1_555
C32_3 C27_3 1_555 1_555
H34_3 C32_3 1_555 1_555
S6_3 C28_3 1_555 1_555
C33_3 S6_3 1_555 1_555
H35_3 C33_3 1_555 1_555
C34_3 C33_3 1_555 1_555
O8_3 C34_3 1_555 1_555
C35_3 C31_3 1_555 1_555
C36_3 C35_3 1_555 1_555
H37_3 C36_3 1_555 1_555
H39_3 C36_3 1_555 1_555
C37_3 C35_3 1_555 1_555
H40_3 C37_3 1_555 1_555
H41_3 C37_3 1_555 1_555
H42_3 C37_3 1_555 1_555
C38_3 C35_3 1_555 1_555
H43_3 C38_3 1_555 1_555
H44_3 C38_3 1_555 1_555
H45_3 C38_3 1_555 1_555
S7_3 C29_3 1_555 1_555
C39_3 S7_3 1_555 1_555
C40_3 C39_3 1_555 1_555
C41_3 S1_3 1_555 1_555
C42_3 C41_3 1_555 1_555
H46_3 C42_3 1_555 1_555
C43_3 C42_3 1_555 1_555
C44_3 C39_3 1_555 1_555
H47_3 C44_3 1_555 1_555
S8_3 C40_3 1_555 1_555
C45_3 S8_3 1_555 1_555
H48_3 C45_3 1_555 1_555
H49_3 C45_3 1_555 1_555
C46_3 C45_3 1_555 1_555
O9_3 C46_3 1_555 1_555
O16 C46_3 1_555 1_555
C47_3 C43_3 1_555 1_555
C48_3 C47_3 1_555 1_555
H50_3 C48_3 1_555 1_555
H51_3 C48_3 1_555 1_555
H52_3 C48_3 1_555 1_555
C49_3 C47_3 1_555 1_555
H53_3 C49_3 1_555 1_555
H54_3 C49_3 1_555 1_555
H55_3 C49_3 1_555 1_555
C50_3 C47_3 1_555 1_555
H56_3 C50_3 1_555 1_555
H57_3 C50_3 1_555 1_555
H58_3 C50_3 1_555 1_555
H59_3 C51_3 1_555 1_555
H60_3 C51_3 1_555 1_555
Zn5_2 O15 1_555 1_555
O15_2 Zn5 1_555 1_555
C5_3 C6_3 1_555 1_555
C8_3 O2_3 1_555 1_555
C17_3 C18_3 1_555 1_555
C31_3 C32_3 1_555 1_555
C40_3 C41_3 1_555 1_555
C43_3 C44_3 1_555 1_555
Zn6_2 O7_4 1_555 1_555
O11_4 Zn6_2 1_555 1_555
O12_4 Zn6_2 1_555 1_555
C52_4 O12_4 1_555 1_555
H62_4 C52_4 1_555 1_555
H63_4 C52_4 1_555 1_555
H64_4 C52_4 1_555 1_555
H14_4 C16_4 1_555 1_555
C17_4 C16_4 1_555 1_555
H15_4 C18_4 1_555 1_555
C21_4 C17_4 1_555 1_555
C22_4 C21_4 1_555 1_555
H18_4 C22_4 1_555 1_555
H19_4 C22_4 1_555 1_555
H20_4 C22_4 1_555 1_555
C23_4 C21_4 1_555 1_555
H21_4 C23_4 1_555 1_555
H22_4 C23_4 1_555 1_555
H23_4 C23_4 1_555 1_555
C24_4 C21_4 1_555 1_555
H24_4 C24_4 1_555 1_555
H25_4 C24_4 1_555 1_555
H26_4 C24_4 1_555 1_555
C34_4 C33_4 1_555 1_555
O8_4 C34_4 1_555 1_555
H59_4 C51_4 1_555 1_555
H60_4 C51_4 1_555 1_555
C17_4 C18_4 1_555 1_555
C13_4 S3_4 1_555 1_555
C14_4 C13_4 1_555 1_555
C15_4 C14_4 1_555 1_555
S4_4 C14_4 1_555 1_555
C19_4 S4_4 1_555 1_555
H16_4 C19_4 1_555 1_555
H17_4 C19_4 1_555 1_555
C20_4 C19_4 1_555 1_555
O3_4 C20_4 1_555 1_555
O15_2 C20_4 1_555 1_555
S5_4 C15_4 1_555 1_555
C27_4 S5_4 1_555 1_555
C28_4 C27_4 1_555 1_555
C29_4 C28_4 1_555 1_555
C30_4 C29_4 1_555 1_555
H33_4 C30_4 1_555 1_555
C31_4 C30_4 1_555 1_555
C32_4 C27_4 1_555 1_555
H34_4 C32_4 1_555 1_555
S6_4 C28_4 1_555 1_555
C35_4 C31_4 1_555 1_555
C36_4 C35_4 1_555 1_555
H37_4 C36_4 1_555 1_555
H39_4 C36_4 1_555 1_555
C37_4 C35_4 1_555 1_555
H40_4 C37_4 1_555 1_555
H41_4 C37_4 1_555 1_555
C38_4 C35_4 1_555 1_555
H43_4 C38_4 1_555 1_555
H44_4 C38_4 1_555 1_555
H45_4 C38_4 1_555 1_555
C31_4 C32_4 1_555 1_555
Zn5_2 O1_4 1_555 1_555
C8_4 C7_4 1_555 1_555
O1_4 C8_4 1_555 1_555
O2_4 Zn5_2 1_555 1_555
O5_4 Zn5_2 1_555 1_555
C25_4 O5_4 1_555 1_555
H27_4 C25_4 1_555 1_555
H28_4 C25_4 1_555 1_555
H29_4 C25_4 1_555 1_555
O6_4 Zn5_2 1_555 1_555
C26_4 O6_4 1_555 1_555
H30_4 C26_4 1_555 1_555
H31_4 C26_4 1_555 1_555
H32_4 C26_4 1_555 1_555
H46_4 C42_4 1_555 1_555
C43_4 C42_4 1_555 1_555
H47_4 C44_4 1_555 1_555
C47_4 C43_4 1_555 1_555
C48_4 C47_4 1_555 1_555
H50_4 C48_4 1_555 1_555
H51_4 C48_4 1_555 1_555
H52_4 C48_4 1_555 1_555
C49_4 C47_4 1_555 1_555
H53_4 C49_4 1_555 1_555
H54_4 C49_4 1_555 1_555
H55_4 C49_4 1_555 1_555
C50_4 C47_4 1_555 1_555
H56_4 C50_4 1_555 1_555
H57_4 C50_4 1_555 1_555
H58_4 C50_4 1_555 1_555
C8_4 O2_4 1_555 1_555
C43_4 C44_4 1_555 1_555
S1_4 C1_4 1_555 1_555
C1_4 C2_4 1_555 1_555
C2_4 C3_4 1_555 1_555
C3_4 C4_4 1_555 1_555
C4_4 H1_4 1_555 1_555
C5_4 C4_4 1_555 1_555
C6_4 C1_4 1_555 1_555
H2_4 C6_4 1_555 1_555
S2_4 C2_4 1_555 1_555
C9_4 C5_4 1_555 1_555
C10_4 C9_4 1_555 1_555
H5_4 C10_4 1_555 1_555
H6_4 C10_4 1_555 1_555
H7_4 C10_4 1_555 1_555
C11_4 C9_4 1_555 1_555
H8_4 C11_4 1_555 1_555
H9_4 C11_4 1_555 1_555
C12_4 C9_4 1_555 1_555
H11_4 C12_4 1_555 1_555
H12_4 C12_4 1_555 1_555
H13_4 C12_4 1_555 1_555
C39_4 S7_4 1_555 1_555
C40_4 C39_4 1_555 1_555
C41_4 S1_4 1_555 1_555
S8_4 C40_4 1_555 1_555
C45_4 S8_4 1_555 1_555
H48_4 C45_4 1_555 1_555
H49_4 C45_4 1_555 1_555
C46_4 C45_4 1_555 1_555
O9_4 C46_4 1_555 1_555
O16_2 C46_4 1_555 1_555
C5_4 C6_4 1_555 1_555
C40_4 C41_4 1_555 1_555

#END
