
###############################################################################
#
# This file contains modified crystal structure data generated from the
# MOF subset of the Cambridge Structural Database (CSD) v543 
# hosted by the Cambridge Crystallographic Data Centre (CCDC).
#
# This work is licensed under the Creative Commons
# Attribution-NonCommercial-ShareAlike 4.0 International License.
# To view a copy of this license, visit
# http://creativecommons.org/licenses/by-nc-sa/4.0/
# or send a letter to
# Creative Commons, PO Box 1866, Mountain View, CA 94042, USA.
#
# CIF created using the CSD Python API on 29 September 2022
# The structure has been converted into the P1 space group
# The structure has a 3D framework
# The original CSD entry HEPQUR is in the monoclinic crystal system
# The framework has been calculated to contain at least 10.0% void space
# The void calculation uses a probe of radius 1.32A, grid spacing 0.4
# H atom positions have been added when not included in the experimental data
#
###############################################################################

data_HEPQUR
_chemical_formula_moiety         '(C624 H688 Co16 N48 O80 S68)n'
_symmetry_cell_setting           triclinic
_symmetry_space_group_name_H-M   'P 1'
_symmetry_Int_Tables_number      1
_space_group_name_Hall           'P 1'
loop_
_symmetry_equiv_pos_site_id
_symmetry_equiv_pos_as_xyz
1 x,y,z
_cell_length_a                   24.4001(12)
_cell_length_b                   45.643(3)
_cell_length_c                   19.8706(10)
_cell_angle_alpha                90
_cell_angle_beta                 122.247(2)
_cell_angle_gamma                90
_cell_volume                     18716.4
loop_
_atom_site_label
_atom_site_type_symbol
_atom_site_fract_x
_atom_site_fract_y
_atom_site_fract_z
H142 H 0.0104 0.5395 0.3678
H143 H 0.0386 0.4931 0.4279
H112 H 0.5324 0.8839 0.0028
C110 C 0.6125(3) 0.90940(15) 0.0338(4)
O15 O 0.61274(17) 0.93472(9) 0.0580(2)
O16 O 0.6606(2) 0.89490(11) 0.0520(4)
H123 H 0.5643 0.8176 0.0071
C123 C 0.6630(3) 0.78204(18) 0.0394(4)
C124 C 0.6689(4) 0.7943(3) 0.1122(4)
H126 H 0.7078 0.7863 0.1593
H127 H 0.6306 0.7890 0.1134
H128 H 0.6724 0.8157 0.1119
C125 C 0.7130(4) 0.7916(3) 0.0244(6)
H129 H 0.7059 0.8123 0.0082
H131 H 0.7559 0.7894 0.0731
C126 C 0.6780(5) 0.7480(2) 0.0569(6)
H132 H 0.7112 0.7451 0.1133
H133 H 0.6935 0.7402 0.0241
H134 H 0.6383 0.7377 0.0441
Co5 Co 0.68720(4) 0.96380(2) 0.13146(4)
Co1 Co 0.18720(4) 0.46380(2) 0.13146(4)
Co2 Co 0.61623(6) 0.70670(2) 0.58776(6)
S1 S 0.30837(6) 0.58173(3) 0.10790(8)
C1 C 0.3546(2) 0.59947(11) 0.2020(3)
C2 C 0.3959(2) 0.58402(10) 0.2736(3)
C3 C 0.4318(2) 0.60092(11) 0.3423(3)
C4 C 0.4252(3) 0.63072(11) 0.3408(3)
H1 H 0.4513 0.6414 0.3886
C5 C 0.3808(2) 0.64620(11) 0.2707(3)
C6 C 0.3467(3) 0.62947(11) 0.2021(3)
H2 H 0.3168 0.6390 0.1534
S2 S 0.40320(6) 0.54534(3) 0.27565(8)
C7 C 0.3237(3) 0.53520(11) 0.2532(3)
H3 H 0.3195 0.5404 0.2986
H4 H 0.2905 0.5463 0.2060
C8 C 0.3124(3) 0.50263(12) 0.2369(4)
O1 O 0.3604(2) 0.48678(9) 0.2644(3)
O2 O 0.25337(19) 0.49540(8) 0.1984(2)
C9 C 0.3751(3) 0.67893(13) 0.2700(4)
C10 C 0.3998(6) 0.69214(18) 0.2217(7)
H5 H 0.4455 0.6868 0.2455
H6 H 0.3957 0.7135 0.2212
H7 H 0.3744 0.6847 0.1671
C11 C 0.3026(5) 0.68765(19) 0.2230(7)
H8 H 0.2794 0.6765 0.1732
H9 H 0.2985 0.7086 0.2109
H10 H 0.2840 0.6833 0.2550
C12 C 0.4063(6) 0.69297(17) 0.3492(5)
H11 H 0.3982 0.6812 0.3843
H12 H 0.3882 0.7126 0.3438
H13 H 0.4531 0.6944 0.3721
S3 S 0.48364(7) 0.58448(3) 0.43738(8)
C13 C 0.5440(2) 0.56697(11) 0.4275(3)
C14 C 0.5871(2) 0.58244(11) 0.4140(3)
C15 C 0.6329(2) 0.56591(11) 0.4071(3)
C16 C 0.6369(2) 0.53574(11) 0.4192(3)
H14 H 0.6686 0.5251 0.4155
C17 C 0.5963(2) 0.52046(11) 0.4366(3)
C18 C 0.5503(3) 0.53667(11) 0.4388(3)
H15 H 0.5209 0.5268 0.4485
S4 S 0.58286(7) 0.62124(3) 0.40748(8)
C19 C 0.6590(3) 0.63071(14) 0.4959(4)
H16 H 0.6639 0.6198 0.5419
H17 H 0.6950 0.6249 0.4893
C20 C 0.6628(3) 0.66302(15) 0.5119(4)
O3 O 0.6215(2) 0.67369(11) 0.5243(3)
O4 O 0.7074(4) 0.67662(14) 0.5178(6)
C21 C 0.6010(3) 0.48770(12) 0.4477(4)
C22 C 0.5377(6) 0.4746(2) 0.3923(9)
H18 H 0.5255 0.4787 0.3375
H19 H 0.5053 0.4831 0.4013
H20 H 0.5400 0.4534 0.4008
C23 C 0.6489(5) 0.47295(16) 0.4369(6)
H21 H 0.6512 0.4522 0.4508
H22 H 0.6915 0.4821 0.4713
H23 H 0.6362 0.4747 0.3812
C24 C 0.6204(7) 0.4816(2) 0.5356(7)
H24 H 0.5902 0.4918 0.5458
H25 H 0.6645 0.4888 0.5726
H26 H 0.6187 0.4605 0.5432
S5 S 0.5000 0.91991(4) 0.7500
C25 C 0.5532(2) 0.89577(11) 0.7414(3)
C26 C 0.5336(2) 0.87754(11) 0.6764(3)
C27 C 0.5800(3) 0.86002(13) 0.6756(3)
C28 C 0.6453(3) 0.86264(12) 0.7351(3)
H27 H 0.6765 0.8511 0.7324
C29 C 0.6656(3) 0.88204(12) 0.7991(3)
C30 C 0.6188(3) 0.89747(12) 0.8015(3)
H28 H 0.6313 0.9099 0.8458
S6 S 0.45006(7) 0.87662(4) 0.59821(9)
C31 C 0.4535(3) 0.89677(17) 0.5252(4)
H29 H 0.4854 0.9128 0.5507
H30 H 0.4676 0.8839 0.4972
C32 C 0.3875(3) 0.90940(15) 0.4662(4)
O5 O 0.38726(17) 0.93472(9) 0.4420(2)
O6 O 0.3394(2) 0.89490(11) 0.4480(4)
C33 C 0.7376(3) 0.88365(15) 0.8655(4)
C34 C 0.7623(5) 0.8524(2) 0.8952(7)
H31 H 0.7491 0.8396 0.8496
H32 H 0.7437 0.8452 0.9253
H33 H 0.8096 0.8526 0.9297
C35 C 0.7725(5) 0.8966(4) 0.8310(7)
H34 H 0.7663 0.9178 0.8269
H35 H 0.7555 0.8883 0.7778
H36 H 0.8188 0.8921 0.8651
C36 C 0.7491(4) 0.8982(3) 0.9376(5)
H37 H 0.7958 0.8996 0.9764
H38 H 0.7288 0.8868 0.9605
H39 H 0.7302 0.9179 0.9243
S7 S 0.56077(7) 0.83486(3) 0.59810(8)
C37 C 0.5096(3) 0.80900(12) 0.6056(3)
C38 C 0.5301(3) 0.79170(11) 0.6725(3)
C39 C 0.4834(3) 0.77207(11) 0.6700(3)
C40 C 0.4228(3) 0.76963(13) 0.6029(3)
H40 H 0.3925 0.7566 0.6034
C41 C 0.4037(3) 0.78562(13) 0.5336(3)
C42 C 0.4479(3) 0.80566(13) 0.5379(3)
H41 H 0.4357 0.8176 0.4929
S8 S 0.60811(9) 0.79410(4) 0.75854(9)
C43 C 0.6556(5) 0.7857(2) 0.7204(8)
H42 H 0.6396 0.7968 0.6706
H43 H 0.7006 0.7920 0.7589
C44 C 0.6558(3) 0.75122(17) 0.7021(5)
O7 O 0.6090(2) 0.73925(11) 0.6534(3)
O8 O 0.7181(2) 0.75160(11) 0.7354(3)
C45 C 0.3370(3) 0.78204(18) 0.4606(4)
C46 C 0.3311(4) 0.7943(3) 0.3878(4)
H44 H 0.2922 0.7863 0.3407
H45 H 0.3694 0.7890 0.3866
H46 H 0.3276 0.8157 0.3881
C47 C 0.2870(4) 0.7916(3) 0.4756(6)
H47 H 0.2941 0.8123 0.4918
H48 H 0.2894 0.7797 0.5180
H49 H 0.2441 0.7894 0.4269
C48 C 0.3220(5) 0.7480(2) 0.4431(6)
H50 H 0.2888 0.7451 0.3867
H51 H 0.3065 0.7402 0.4759
H52 H 0.3617 0.7377 0.4559
S9 S 0.5000 0.74859(4) 0.7500
N1 N 0.1995(2) 0.44262(10) 0.2361(3)
C49 C 0.2547(3) 0.44606(14) 0.3076(3)
H53 H 0.2881 0.4577 0.3104
C50 C 0.2654(4) 0.43391(17) 0.3759(4)
H54 H 0.3054 0.4366 0.4249
C51 C 0.2164(4) 0.41745(17) 0.3722(5)
H55 H 0.2218 0.4091 0.4192
C52 C 0.1578(4) 0.41303(16) 0.2977(4)
H56 H 0.1235 0.4015 0.2929
C53 C 0.1535(3) 0.42618(15) 0.2337(4)
H57 H 0.1146 0.4234 0.1834
N2 N 0.1142(2) 0.49158(11) 0.1322(3)
C54 C 0.1282(4) 0.51716(17) 0.1659(4)
H58 H 0.1719 0.5236 0.1925
C55 C 0.0832(5) 0.5355(2) 0.1655(5)
H59 H 0.0963 0.5543 0.1894
C56 C 0.0207(5) 0.5272(2) 0.1315(5)
C57 C 0.0044(4) 0.5003(3) 0.0963(6)
C58 C 0.0539(4) 0.48312(19) 0.0967(5)
H62 H 0.0423 0.4648 0.0699
N3 N 0.1735(2) 0.48470(10) 0.0244(3)
C59 C 0.1806(3) 0.51344(13) 0.0209(3)
H63 H 0.1920 0.5249 0.0665
N4 N 0.6642(4) 0.67915(15) 0.6931(4)
C64 C 0.7051(6) 0.6594(2) 0.7082(6)
H68 H 0.7186 0.6568 0.6717
C65 C 0.7327(6) 0.6408(2) 0.7755(7)
H69 H 0.7678 0.6282 0.7873
C66 C 0.7066(7) 0.6412(2) 0.8257(8)
H70 H 0.7221 0.6277 0.8685
C67 C 0.6611(6) 0.6603(3) 0.8122(7)
H71 H 0.6437 0.6621 0.8448
C68 C 0.6398(5) 0.6790(2) 0.7398(7)
H72 H 0.6051 0.6921 0.7254
N5 N 0.5277(3) 0.68762(14) 0.5674(3)
C69 C 0.4862(5) 0.7023(2) 0.5821(6)
H73 H 0.4901 0.7230 0.5884
C70 C 0.4378(6) 0.6880(2) 0.5881(6)
H74 H 0.4117 0.6984 0.6021
C71 C 0.4298(5) 0.6593(2) 0.5737(5)
H75 H 0.3972 0.6493 0.5769
C72 C 0.4672(4) 0.64444(18) 0.5544(4)
H76 H 0.4605 0.6241 0.5429
C73 C 0.5155(4) 0.65913(18) 0.5517(4)
H77 H 0.5414 0.6484 0.5378
N6 N 0.5723(3) 0.73431(13) 0.4876(4)
C74 C 0.5327(5) 0.7573(2) 0.4790(5)
H78 H 0.5239 0.7602 0.5197
C75 C 0.5046(5) 0.7765(2) 0.4154(6)
H79 H 0.4762 0.7915 0.4118
C76 C 0.5188(6) 0.7733(2) 0.3578(6)
H80 H 0.5010 0.7864 0.3139
C77 C 0.5583(6) 0.7514(2) 0.3639(7)
H81 H 0.5704 0.7490 0.3261
C78 C 0.5800(5) 0.7329(2) 0.4269(6)
H82 H 0.6042 0.7166 0.4271
O9 O 0.25291(19) 0.43516(9) 0.1268(2)
O10 O 0.7197(5) 0.7238(2) 0.6244(7)
S10 S 0.69163(6) 0.58173(3) 0.39210(8)
C79 C 0.6454(2) 0.59947(11) 0.2980(3)
C80 C 0.6041(2) 0.58402(10) 0.2264(3)
C81 C 0.5682(2) 0.60092(11) 0.1577(3)
C82 C 0.5748(3) 0.63072(11) 0.1592(3)
H83 H 0.5487 0.6414 0.1114
C83 C 0.6192(2) 0.64620(11) 0.2293(3)
C84 C 0.6533(3) 0.62947(11) 0.2979(3)
H84 H 0.6832 0.6390 0.3466
S11 S 0.59680(6) 0.54534(3) 0.22435(8)
C85 C 0.6763(3) 0.53520(11) 0.2468(3)
H85 H 0.6805 0.5404 0.2014
H86 H 0.7095 0.5463 0.2940
C86 C 0.6876(3) 0.50263(12) 0.2631(4)
O11 O 0.6396(2) 0.48678(9) 0.2356(3)
O12 O 0.74663(19) 0.49540(8) 0.3016(2)
C87 C 0.6249(3) 0.67893(13) 0.2300(4)
C88 C 0.6002(6) 0.69214(18) 0.2783(7)
H87 H 0.5545 0.6868 0.2545
H88 H 0.6043 0.7135 0.2788
H89 H 0.6256 0.6847 0.3329
C89 C 0.6974(5) 0.68765(19) 0.2770(7)
H90 H 0.7206 0.6765 0.3268
H91 H 0.7015 0.7086 0.2891
H92 H 0.7160 0.6833 0.2450
C90 C 0.5937(6) 0.69297(17) 0.1508(5)
H93 H 0.6018 0.6812 0.1157
H94 H 0.6118 0.7126 0.1562
H95 H 0.5469 0.6944 0.1279
S12 S 0.51636(7) 0.58448(3) 0.06262(8)
C91 C 0.4560(2) 0.56697(11) 0.0725(3)
C92 C 0.4129(2) 0.58244(11) 0.0860(3)
C93 C 0.3671(2) 0.56591(11) 0.0929(3)
C94 C 0.3631(2) 0.53574(11) 0.0808(3)
H96 H 0.3314 0.5251 0.0845
C95 C 0.4037(2) 0.52046(11) 0.0634(3)
C96 C 0.4497(3) 0.53667(11) 0.0612(3)
H97 H 0.4791 0.5268 0.0515
S13 S 0.41714(7) 0.62124(3) 0.09252(8)
C97 C 0.3410(3) 0.63071(14) 0.0041(4)
H99 H 0.3050 0.6249 0.0107
C99 C 0.3990(3) 0.48770(12) 0.0523(4)
C100 C 0.4623(6) 0.4746(2) 0.1077(9)
H100 H 0.4745 0.4787 0.1625
H101 H 0.4947 0.4831 0.0987
H102 H 0.4600 0.4534 0.0992
C101 C 0.3511(5) 0.47295(16) 0.0631(6)
H103 H 0.3488 0.4522 0.0492
H104 H 0.3085 0.4821 0.0287
H105 H 0.3638 0.4747 0.1188
C103 C 0.4468(2) 0.89577(11) 0.7586(3)
C104 C 0.4664(2) 0.87754(11) 0.8236(3)
C105 C 0.4200(3) 0.86002(13) 0.8244(3)
C106 C 0.3547(3) 0.86264(12) 0.7649(3)
H109 H 0.3235 0.8511 0.7676
C107 C 0.3344(3) 0.88204(12) 0.7009(3)
C108 C 0.3812(3) 0.89747(12) 0.6985(3)
H110 H 0.3687 0.9099 0.6542
S14 S 0.54994(7) 0.87662(4) 0.90179(9)
C109 C 0.5465(3) 0.89677(17) 0.9748(4)
H111 H 0.5146 0.9128 0.9493
C111 C 0.2624(3) 0.88365(15) 0.6345(4)
C112 C 0.2377(5) 0.8524(2) 0.6048(7)
H113 H 0.2509 0.8396 0.6504
H114 H 0.2563 0.8452 0.5747
H115 H 0.1904 0.8526 0.5703
C113 C 0.2275(5) 0.8966(4) 0.6690(7)
H116 H 0.2337 0.9178 0.6731
H117 H 0.2445 0.8883 0.7222
H118 H 0.1812 0.8921 0.6349
C114 C 0.2509(4) 0.8982(3) 0.5624(5)
H119 H 0.2042 0.8996 0.5236
H120 H 0.2712 0.8868 0.5395
H121 H 0.2698 0.9179 0.5757
S15 S 0.43923(7) 0.83486(3) 0.90190(8)
C115 C 0.4904(3) 0.80900(12) 0.8944(3)
C116 C 0.4699(3) 0.79170(11) 0.8275(3)
C117 C 0.5166(3) 0.77207(11) 0.8300(3)
C118 C 0.5772(3) 0.76963(13) 0.8971(3)
H122 H 0.6075 0.7566 0.8966
C119 C 0.5963(3) 0.78562(13) 0.9664(3)
C120 C 0.5521(3) 0.80566(13) 0.9621(3)
S16 S 0.39189(9) 0.79410(4) 0.74146(9)
C121 C 0.3444(5) 0.7857(2) 0.7796(8)
H124 H 0.3604 0.7968 0.8294
H125 H 0.2994 0.7920 0.7411
C122 C 0.3442(3) 0.75122(17) 0.7979(5)
O17 O 0.3910(2) 0.73925(11) 0.8466(3)
O18 O 0.2819(2) 0.75160(11) 0.7646(3)
H130 H 0.7106 0.7797 0.9820
Co3 Co 0.81280(4) 0.46380(2) 0.36854(4)
N7 N 0.8005(2) 0.44262(10) 0.2639(3)
C127 C 0.7453(3) 0.44606(14) 0.1924(3)
H135 H 0.7119 0.4577 0.1896
C128 C 0.7346(4) 0.43391(17) 0.1241(4)
H136 H 0.6946 0.4366 0.0751
C129 C 0.7836(4) 0.41745(17) 0.1278(5)
H137 H 0.7782 0.4091 0.0808
C130 C 0.8422(4) 0.41303(16) 0.2023(4)
H138 H 0.8765 0.4015 0.2071
C131 C 0.8465(3) 0.42618(15) 0.2663(4)
H139 H 0.8854 0.4234 0.3166
N8 N 0.8858(2) 0.49158(11) 0.3678(3)
C132 C 0.8718(4) 0.51716(17) 0.3341(4)
H140 H 0.8281 0.5236 0.3075
C133 C 0.9168(5) 0.5355(2) 0.3345(5)
H141 H 0.9037 0.5543 0.3106
C134 C 0.9793(5) 0.5272(2) 0.3685(5)
C135 C 0.9956(4) 0.5003(3) 0.4037(6)
C136 C 0.9461(4) 0.48312(19) 0.4033(5)
H144 H 0.9577 0.4648 0.4301
N9 N 0.8265(2) 0.48470(10) 0.4756(3)
C137 C 0.8194(3) 0.51344(13) 0.4791(3)
H145 H 0.8080 0.5249 0.4335
C138 C 0.8275(3) 0.52733(14) 0.5442(4)
H146 H 0.8223 0.5480 0.5440
C139 C 0.8435(3) 0.51102(17) 0.6104(4)
H147 H 0.8501 0.5201 0.6572
C140 C 0.8497(3) 0.48110(16) 0.6071(4)
H148 H 0.8598 0.4692 0.6515
C141 C 0.8413(3) 0.46869(13) 0.5397(4)
H149 H 0.8460 0.4481 0.5382
N12 N 0.4277(3) 0.73431(13) 0.0124(4)
C152 C 0.4673(5) 0.7573(2) 0.0210(5)
C153 C 0.4954(5) 0.7765(2) 0.0846(6)
H161 H 0.5238 0.7915 0.0882
C154 C 0.4812(6) 0.7733(2) 0.1422(6)
H162 H 0.4990 0.7864 0.1861
C155 C 0.4417(6) 0.7514(2) 0.1361(7)
H163 H 0.4296 0.7490 0.1739
C156 C 0.4200(5) 0.7329(2) 0.0731(6)
H164 H 0.3958 0.7166 0.0729
O19 O 0.74709(19) 0.43516(9) 0.3732(2)
Co6 Co 0.31280(4) 0.96380(2) 0.36854(4)
Co7 Co 0.38377(6) 0.70670(2) 0.91224(6)
O21 O 0.88726(17) 0.43472(9) 0.4420(2)
O22 O 0.11274(17) 0.43472(9) 0.0580(2)
H165 H 0.719653 0.728995 0.575841
H166 H 0.730736 0.741391 0.658709
H167 H 0.287062 0.42923 0.181638
H168 H 0.229418 0.417499 0.0953989
H169 H 0.712938 0.42923 0.318362
H170 H 0.770582 0.417499 0.404601
C60 C 0.1725(3) 0.52733(14) 0.9558(4)
H64 H 0.1777 0.5480 0.9560
C61 C 0.1565(3) 0.51102(17) 0.8896(4)
H65 H 0.1499 0.5201 0.8428
C62 C 0.1503(3) 0.48110(16) 0.8929(4)
H66 H 0.1402 0.4692 0.8485
C63 C 0.1587(3) 0.46869(13) 0.9603(4)
H67 H 0.1540 0.4481 0.9618
H98 H 0.3361 0.6198 0.9581
C98 C 0.3372(3) 0.66302(15) 0.9881(4)
O13 O 0.3785(2) 0.67369(11) 0.9757(3)
O14 O 0.2926(4) 0.67662(14) 0.9822(6)
C102 C 0.3796(7) 0.4816(2) 0.9644(7)
H106 H 0.4098 0.4918 0.9542
H107 H 0.3355 0.4888 0.9274
H108 H 0.3813 0.4605 0.9568
N10 N 0.3358(4) 0.67915(15) 0.8069(4)
C142 C 0.2949(6) 0.6594(2) 0.7918(6)
H150 H 0.2814 0.6568 0.8283
C143 C 0.2673(6) 0.6408(2) 0.7245(7)
H151 H 0.2322 0.6282 0.7127
C144 C 0.2934(7) 0.6412(2) 0.6743(8)
H152 H 0.2779 0.6277 0.6315
C145 C 0.3389(6) 0.6603(3) 0.6878(7)
H153 H 0.3563 0.6621 0.6552
C146 C 0.3602(5) 0.6790(2) 0.7602(7)
H154 H 0.3949 0.6921 0.7746
N11 N 0.4723(3) 0.68762(14) 0.9326(3)
C147 C 0.5138(5) 0.7023(2) 0.9179(6)
H155 H 0.5099 0.7230 0.9116
C148 C 0.5622(6) 0.6880(2) 0.9119(6)
H156 H 0.5883 0.6984 0.8979
C149 C 0.5702(5) 0.6593(2) 0.9263(5)
H157 H 0.6028 0.6493 0.9231
C150 C 0.5328(4) 0.64444(18) 0.9456(4)
H158 H 0.5395 0.6241 0.9571
C151 C 0.4845(4) 0.65913(18) 0.9483(4)
H159 H 0.4586 0.6484 0.9622
H160 H 0.4761 0.7602 0.9803
O20 O 0.2803(5) 0.7238(2) 0.8756(7)
H171 H 0.280347 0.728995 0.924159
H172 H 0.269264 0.741391 0.841291
H112_2 H 0.0324 0.3839 0.0028
C110_2 C 0.1125(3) 0.40940(15) 0.0338(4)
O16_2 O 0.1606(2) 0.39490(11) 0.0520(4)
H123_2 H 0.0643 0.3176 0.0071
C123_2 C 0.1630(3) 0.28204(18) 0.0394(4)
C124_2 C 0.1689(4) 0.2943(3) 0.1122(4)
H126_2 H 0.2078 0.2863 0.1593
H127_2 H 0.1306 0.2890 0.1134
H128_2 H 0.1724 0.3157 0.1119
C125_2 C 0.2130(4) 0.2916(3) 0.0244(6)
H129_2 H 0.2059 0.3123 0.0082
H131_2 H 0.2559 0.2894 0.0731
C126_2 C 0.1780(5) 0.2480(2) 0.0569(6)
H132_2 H 0.2112 0.2451 0.1133
H133_2 H 0.1935 0.2402 0.0241
H134_2 H 0.1383 0.2377 0.0441
Co2_2 Co 0.11623(6) 0.20670(2) 0.58776(6)
C13_2 C 0.0440(2) 0.06697(11) 0.4275(3)
C14_2 C 0.0871(2) 0.08244(11) 0.4140(3)
C15_2 C 0.1329(2) 0.06591(11) 0.4071(3)
C16_2 C 0.1369(2) 0.03574(11) 0.4192(3)
H14_2 H 0.1686 0.0251 0.4155
C17_2 C 0.0963(2) 0.02046(11) 0.4366(3)
C18_2 C 0.0503(3) 0.03667(11) 0.4388(3)
H15_2 H 0.0209 0.0268 0.4485
S4_2 S 0.08286(7) 0.12124(3) 0.40748(8)
C19_2 C 0.1590(3) 0.13071(14) 0.4959(4)
H16_2 H 0.1639 0.1198 0.5419
H17_2 H 0.1950 0.1249 0.4893
C20_2 C 0.1628(3) 0.16302(15) 0.5119(4)
O3_2 O 0.1215(2) 0.17369(11) 0.5243(3)
O4_2 O 0.2074(4) 0.17662(14) 0.5178(6)
S5_2 S 0.0000 0.41991(4) 0.7500
C25_2 C 0.0532(2) 0.39577(11) 0.7414(3)
C26_2 C 0.0336(2) 0.37754(11) 0.6764(3)
C27_2 C 0.0800(3) 0.36002(13) 0.6756(3)
C28_2 C 0.1453(3) 0.36264(12) 0.7351(3)
H27_2 H 0.1765 0.3511 0.7324
C29_2 C 0.1656(3) 0.38204(12) 0.7991(3)
C30_2 C 0.1188(3) 0.39747(12) 0.8015(3)
H28_2 H 0.1313 0.4099 0.8458
C33_2 C 0.2376(3) 0.38365(15) 0.8655(4)
C34_2 C 0.2623(5) 0.3524(2) 0.8952(7)
H31_2 H 0.2491 0.3396 0.8496
H32_2 H 0.2437 0.3452 0.9253
H33_2 H 0.3096 0.3526 0.9297
C35_2 C 0.2725(5) 0.3966(4) 0.8310(7)
H34_2 H 0.2663 0.4178 0.8269
H35_2 H 0.2555 0.3883 0.7778
H36_2 H 0.3188 0.3921 0.8651
C36_2 C 0.2491(4) 0.3982(3) 0.9376(5)
H37_2 H 0.2958 0.3996 0.9764
H38_2 H 0.2288 0.3868 0.9605
H39_2 H 0.2302 0.4179 0.9243
S7_2 S 0.06077(7) 0.33486(3) 0.59810(8)
C37_2 C 0.0096(3) 0.30900(12) 0.6056(3)
C38_2 C 0.0301(3) 0.29170(11) 0.6725(3)
S8_2 S 0.10811(9) 0.29410(4) 0.75854(9)
C43_2 C 0.1556(5) 0.2857(2) 0.7204(8)
H42_2 H 0.1396 0.2968 0.6706
H43_2 H 0.2006 0.2920 0.7589
C44_2 C 0.1558(3) 0.25122(17) 0.7021(5)
O7_2 O 0.1090(2) 0.23925(11) 0.6534(3)
O8_2 O 0.2181(2) 0.25160(11) 0.7354(3)
S9_2 S 0.0000 0.24859(4) 0.7500
N4_2 N 0.1642(4) 0.17915(15) 0.6931(4)
C64_2 C 0.2051(6) 0.1594(2) 0.7082(6)
H68_2 H 0.2186 0.1568 0.6717
C65_2 C 0.2327(6) 0.1408(2) 0.7755(7)
H69_2 H 0.2678 0.1282 0.7873
C66_2 C 0.2066(7) 0.1412(2) 0.8257(8)
H70_2 H 0.2221 0.1277 0.8685
C67_2 C 0.1611(6) 0.1603(3) 0.8122(7)
H71_2 H 0.1437 0.1621 0.8448
C68_2 C 0.1398(5) 0.1790(2) 0.7398(7)
H72_2 H 0.1051 0.1921 0.7254
N5_2 N 0.0277(3) 0.18762(14) 0.5674(3)
C73_2 C 0.0155(4) 0.15913(18) 0.5517(4)
H77_2 H 0.0414 0.1484 0.5378
N6_2 N 0.0723(3) 0.23431(13) 0.4876(4)
C74_2 C 0.0327(5) 0.2573(2) 0.4790(5)
H78_2 H 0.0239 0.2602 0.5197
C75_2 C 0.0046(5) 0.2765(2) 0.4154(6)
C76_2 C 0.0188(6) 0.2733(2) 0.3578(6)
H80_2 H 0.0010 0.2864 0.3139
C77_2 C 0.0583(6) 0.2514(2) 0.3639(7)
H81_2 H 0.0704 0.2490 0.3261
C78_2 C 0.0800(5) 0.2329(2) 0.4269(6)
H82_2 H 0.1042 0.2166 0.4271
O10_2 O 0.2197(5) 0.2238(2) 0.6244(7)
S10_2 S 0.19163(6) 0.08173(3) 0.39210(8)
C79_2 C 0.1454(2) 0.09947(11) 0.2980(3)
C80_2 C 0.1041(2) 0.08402(10) 0.2264(3)
C81_2 C 0.0682(2) 0.10092(11) 0.1577(3)
C82_2 C 0.0748(3) 0.13072(11) 0.1592(3)
H83_2 H 0.0487 0.1414 0.1114
C83_2 C 0.1192(2) 0.14620(11) 0.2293(3)
C84_2 C 0.1533(3) 0.12947(11) 0.2979(3)
H84_2 H 0.1832 0.1390 0.3466
S11_2 S 0.09680(6) 0.04534(3) 0.22435(8)
C85_2 C 0.1763(3) 0.03520(11) 0.2468(3)
H85_2 H 0.1805 0.0404 0.2014
H86_2 H 0.2095 0.0463 0.2940
C86_2 C 0.1876(3) 0.00263(12) 0.2631(4)
C87_2 C 0.1249(3) 0.17893(13) 0.2300(4)
C88_2 C 0.1002(6) 0.19214(18) 0.2783(7)
H87_2 H 0.0545 0.1868 0.2545
H88_2 H 0.1043 0.2135 0.2788
H89_2 H 0.1256 0.1847 0.3329
C89_2 C 0.1974(5) 0.18765(19) 0.2770(7)
H90_2 H 0.2206 0.1765 0.3268
H91_2 H 0.2015 0.2086 0.2891
H92_2 H 0.2160 0.1833 0.2450
C90_2 C 0.0937(6) 0.19297(17) 0.1508(5)
H93_2 H 0.1018 0.1812 0.1157
H94_2 H 0.1118 0.2126 0.1562
H95_2 H 0.0469 0.1944 0.1279
S12_2 S 0.01636(7) 0.08448(3) 0.06262(8)
S14_2 S 0.04994(7) 0.37662(4) 0.90179(9)
C109_2 C 0.0465(3) 0.39677(17) 0.9748(4)
H111_2 H 0.0146 0.4128 0.9493
C117_2 C 0.0166(3) 0.27207(11) 0.8300(3)
C118_2 C 0.0772(3) 0.26963(13) 0.8971(3)
H122_2 H 0.1075 0.2566 0.8966
C119_2 C 0.0963(3) 0.28562(13) 0.9664(3)
C120_2 C 0.0521(3) 0.30566(13) 0.9621(3)
H130_2 H 0.2106 0.2797 0.9820
C132_2 C 0.3718(4) 0.01716(17) 0.3341(4)
H140_2 H 0.3281 0.0236 0.3075
C133_2 C 0.4168(5) 0.0355(2) 0.3345(5)
H141_2 H 0.4037 0.0543 0.3106
C134_2 C 0.4793(5) 0.0272(2) 0.3685(5)
H142_2 H 0.5104 0.0395 0.3678
C135_2 C 0.4956(4) 0.0003(3) 0.4037(6)
C137_2 C 0.3194(3) 0.01344(13) 0.4791(3)
H145_2 H 0.3080 0.0249 0.4335
C138_2 C 0.3275(3) 0.02733(14) 0.5442(4)
H146_2 H 0.3223 0.0480 0.5440
C139_2 C 0.3435(3) 0.01102(17) 0.6104(4)
H147_2 H 0.3501 0.0201 0.6572
H161_2 H 0.0238 0.2915 0.0882
H165_2 H 0.219653 0.228995 0.575841
H166_2 H 0.230736 0.241391 0.658709
C147_2 C 0.0138(5) 0.2023(2) 0.9179(6)
H155_2 H 0.0099 0.2230 0.9116
C148_2 C 0.0622(6) 0.1880(2) 0.9119(6)
H156_2 H 0.0883 0.1984 0.8979
C149_2 C 0.0702(5) 0.1593(2) 0.9263(5)
H157_2 H 0.1028 0.1493 0.9231
C150_2 C 0.0328(4) 0.14444(18) 0.9456(4)
H158_2 H 0.0395 0.1241 0.9571
C21_2 C 0.1010(3) 0.98770(12) 0.4477(4)
C22_2 C 0.0377(6) 0.9746(2) 0.3923(9)
H18_2 H 0.0255 0.9787 0.3375
H19_2 H 0.0053 0.9831 0.4013
H20_2 H 0.0400 0.9534 0.4008
C23_2 C 0.1489(5) 0.97295(16) 0.4369(6)
H21_2 H 0.1512 0.9522 0.4508
H22_2 H 0.1915 0.9821 0.4713
H23_2 H 0.1362 0.9747 0.3812
C24_2 C 0.1204(7) 0.9816(2) 0.5356(7)
H24_2 H 0.0902 0.9918 0.5458
H25_2 H 0.1645 0.9888 0.5726
H26_2 H 0.1187 0.9605 0.5432
O11_2 O 0.1396(2) 0.98678(9) 0.2356(3)
O12_2 O 0.24663(19) 0.99540(8) 0.3016(2)
N7_2 N 0.3005(2) 0.94262(10) 0.2639(3)
C127_2 C 0.2453(3) 0.94606(14) 0.1924(3)
H135_2 H 0.2119 0.9577 0.1896
C128_2 C 0.2346(4) 0.93391(17) 0.1241(4)
H136_2 H 0.1946 0.9366 0.0751
C129_2 C 0.2836(4) 0.91745(17) 0.1278(5)
H137_2 H 0.2782 0.9091 0.0808
C130_2 C 0.3422(4) 0.91303(16) 0.2023(4)
H138_2 H 0.3765 0.9015 0.2071
C131_2 C 0.3465(3) 0.92618(15) 0.2663(4)
H139_2 H 0.3854 0.9234 0.3166
N8_2 N 0.3858(2) 0.99158(11) 0.3678(3)
H143_2 H 0.5386 0.9931 0.4279
C136_2 C 0.4461(4) 0.98312(19) 0.4033(5)
H144_2 H 0.4577 0.9648 0.4301
N9_2 N 0.3265(2) 0.98470(10) 0.4756(3)
C140_2 C 0.3497(3) 0.98110(16) 0.6071(4)
H148_2 H 0.3598 0.9692 0.6515
C141_2 C 0.3413(3) 0.96869(13) 0.5397(4)
H149_2 H 0.3460 0.9481 0.5382
O19_2 O 0.24709(19) 0.93516(9) 0.3732(2)
H169_2 H 0.212938 0.92923 0.318362
H170_2 H 0.270582 0.917499 0.404601
S1_2 S 0.80837(6) 0.08173(3) 0.10790(8)
C1_2 C 0.8546(2) 0.09947(11) 0.2020(3)
C2_2 C 0.8959(2) 0.08402(10) 0.2736(3)
C3_2 C 0.9318(2) 0.10092(11) 0.3423(3)
C4_2 C 0.9252(3) 0.13072(11) 0.3408(3)
H1_2 H 0.9513 0.1414 0.3886
C5_2 C 0.8808(2) 0.14620(11) 0.2707(3)
C6_2 C 0.8467(3) 0.12947(11) 0.2021(3)
H2_2 H 0.8168 0.1390 0.1534
S2_2 S 0.90320(6) 0.04534(3) 0.27565(8)
C7_2 C 0.8237(3) 0.03520(11) 0.2532(3)
H3_2 H 0.8195 0.0404 0.2986
H4_2 H 0.7905 0.0463 0.2060
C8_2 C 0.8124(3) 0.00263(12) 0.2369(4)
C9_2 C 0.8751(3) 0.17893(13) 0.2700(4)
C10_2 C 0.8998(6) 0.19214(18) 0.2217(7)
H5_2 H 0.9455 0.1868 0.2455
H6_2 H 0.8957 0.2135 0.2212
H7_2 H 0.8744 0.1847 0.1671
C11_2 C 0.8026(5) 0.18765(19) 0.2230(7)
H8_2 H 0.7794 0.1765 0.1732
H9_2 H 0.7985 0.2086 0.2109
H10_2 H 0.7840 0.1833 0.2550
C12_2 C 0.9063(6) 0.19297(17) 0.3492(5)
H11_2 H 0.8982 0.1812 0.3843
H12_2 H 0.8882 0.2126 0.3438
H13_2 H 0.9531 0.1944 0.3721
S3_2 S 0.98364(7) 0.08448(3) 0.43738(8)
S5_3 S 1.0000 0.41991(4) 0.7500
S6_2 S 0.95006(7) 0.37662(4) 0.59821(9)
C31_2 C 0.9535(3) 0.39677(17) 0.5252(4)
H29_2 H 0.9854 0.4128 0.5507
H30_2 H 0.9676 0.3839 0.4972
C32_2 C 0.8875(3) 0.40940(15) 0.4662(4)
O6_2 O 0.8394(2) 0.39490(11) 0.4480(4)
C39_2 C 0.9834(3) 0.27207(11) 0.6700(3)
C40_2 C 0.9228(3) 0.26963(13) 0.6029(3)
H40_2 H 0.8925 0.2566 0.6034
C41_2 C 0.9037(3) 0.28562(13) 0.5336(3)
C42_2 C 0.9479(3) 0.30566(13) 0.5379(3)
H41_2 H 0.9357 0.3176 0.4929
C45_2 C 0.8370(3) 0.28204(18) 0.4606(4)
C46_2 C 0.8311(4) 0.2943(3) 0.3878(4)
H44_2 H 0.7922 0.2863 0.3407
H45_2 H 0.8694 0.2890 0.3866
H46_2 H 0.8276 0.3157 0.3881
C47_2 C 0.7870(4) 0.2916(3) 0.4756(6)
H47_2 H 0.7941 0.3123 0.4918
H48_2 H 0.7894 0.2797 0.5180
H49_2 H 0.7441 0.2894 0.4269
C48_2 C 0.8220(5) 0.2480(2) 0.4431(6)
H50_2 H 0.7888 0.2451 0.3867
H51_2 H 0.8065 0.2402 0.4759
H52_2 H 0.8617 0.2377 0.4559
S9_3 S 1.0000 0.24859(4) 0.7500
C54_2 C 0.6282(4) 0.01716(17) 0.1659(4)
H58_2 H 0.6719 0.0236 0.1925
C55_2 C 0.5832(5) 0.0355(2) 0.1655(5)
H59_2 H 0.5963 0.0543 0.1894
C56_2 C 0.5207(5) 0.0272(2) 0.1315(5)
H60 H 0.4896 0.0395 0.1322
C57_2 C 0.5044(4) 0.0003(3) 0.0963(6)
C59_2 C 0.6806(3) 0.01344(13) 0.0209(3)
H63_2 H 0.6920 0.0249 0.0665
C69_2 C 0.9862(5) 0.2023(2) 0.5821(6)
H73_2 H 0.9901 0.2230 0.5884
C70_2 C 0.9378(6) 0.1880(2) 0.5881(6)
H74_2 H 0.9117 0.1984 0.6021
C71_2 C 0.9298(5) 0.1593(2) 0.5737(5)
H75_2 H 0.8972 0.1493 0.5769
C72_2 C 0.9672(4) 0.14444(18) 0.5544(4)
H76_2 H 0.9605 0.1241 0.5429
H79_2 H 0.9762 0.2915 0.4118
C91_2 C 0.9560(2) 0.06697(11) 0.0725(3)
C92_2 C 0.9129(2) 0.08244(11) 0.0860(3)
C93_2 C 0.8671(2) 0.06591(11) 0.0929(3)
C94_2 C 0.8631(2) 0.03574(11) 0.0808(3)
H96_2 H 0.8314 0.0251 0.0845
C95_2 C 0.9037(2) 0.02046(11) 0.0634(3)
C96_2 C 0.9497(3) 0.03667(11) 0.0612(3)
H97_2 H 0.9791 0.0268 0.0515
S13_2 S 0.91714(7) 0.12124(3) 0.09252(8)
C97_2 C 0.8410(3) 0.13071(14) 0.0041(4)
H99_2 H 0.8050 0.1249 0.0107
C103_2 C 0.9468(2) 0.39577(11) 0.7586(3)
C104_2 C 0.9664(2) 0.37754(11) 0.8236(3)
C105_2 C 0.9200(3) 0.36002(13) 0.8244(3)
C106_2 C 0.8547(3) 0.36264(12) 0.7649(3)
H109_2 H 0.8235 0.3511 0.7676
C107_2 C 0.8344(3) 0.38204(12) 0.7009(3)
C108_2 C 0.8812(3) 0.39747(12) 0.6985(3)
H110_2 H 0.8687 0.4099 0.6542
C111_2 C 0.7624(3) 0.38365(15) 0.6345(4)
C112_2 C 0.7377(5) 0.3524(2) 0.6048(7)
H113_2 H 0.7509 0.3396 0.6504
H114_2 H 0.7563 0.3452 0.5747
H115_2 H 0.6904 0.3526 0.5703
C113_2 C 0.7275(5) 0.3966(4) 0.6690(7)
H116_2 H 0.7337 0.4178 0.6731
H117_2 H 0.7445 0.3883 0.7222
H118_2 H 0.6812 0.3921 0.6349
C114_2 C 0.7509(4) 0.3982(3) 0.5624(5)
H119_2 H 0.7042 0.3996 0.5236
H120_2 H 0.7712 0.3868 0.5395
H121_2 H 0.7698 0.4179 0.5757
S15_2 S 0.93923(7) 0.33486(3) 0.90190(8)
C115_2 C 0.9904(3) 0.30900(12) 0.8944(3)
C116_2 C 0.9699(3) 0.29170(11) 0.8275(3)
S16_2 S 0.89189(9) 0.29410(4) 0.74146(9)
C121_2 C 0.8444(5) 0.2857(2) 0.7796(8)
H124_2 H 0.8604 0.2968 0.8294
H125_2 H 0.7994 0.2920 0.7411
C122_2 C 0.8442(3) 0.25122(17) 0.7979(5)
O17_2 O 0.8910(2) 0.23925(11) 0.8466(3)
O18_2 O 0.7819(2) 0.25160(11) 0.7646(3)
N12_2 N 0.9277(3) 0.23431(13) 0.0124(4)
C152_2 C 0.9673(5) 0.2573(2) 0.0210(5)
C153_2 C 0.9954(5) 0.2765(2) 0.0846(6)
C154_2 C 0.9812(6) 0.2733(2) 0.1422(6)
H162_2 H 0.9990 0.2864 0.1861
C155_2 C 0.9417(6) 0.2514(2) 0.1361(7)
H163_2 H 0.9296 0.2490 0.1739
C156_2 C 0.9200(5) 0.2329(2) 0.0731(6)
H164_2 H 0.8958 0.2166 0.0729
Co7_2 Co 0.88377(6) 0.20670(2) 0.91224(6)
C60_2 C 0.6725(3) 0.02733(14) 0.9558(4)
H64_2 H 0.6777 0.0480 0.9560
C61_2 C 0.6565(3) 0.01102(17) 0.8896(4)
H65_2 H 0.6499 0.0201 0.8428
H98_2 H 0.8361 0.1198 0.9581
C98_2 C 0.8372(3) 0.16302(15) 0.9881(4)
O13_2 O 0.8785(2) 0.17369(11) 0.9757(3)
O14_2 O 0.7926(4) 0.17662(14) 0.9822(6)
N10_2 N 0.8358(4) 0.17915(15) 0.8069(4)
C142_2 C 0.7949(6) 0.1594(2) 0.7918(6)
H150_2 H 0.7814 0.1568 0.8283
C143_2 C 0.7673(6) 0.1408(2) 0.7245(7)
H151_2 H 0.7322 0.1282 0.7127
C144_2 C 0.7934(7) 0.1412(2) 0.6743(8)
H152_2 H 0.7779 0.1277 0.6315
C145_2 C 0.8389(6) 0.1603(3) 0.6878(7)
H153_2 H 0.8563 0.1621 0.6552
C146_2 C 0.8602(5) 0.1790(2) 0.7602(7)
H154_2 H 0.8949 0.1921 0.7746
N11_2 N 0.9723(3) 0.18762(14) 0.9326(3)
C151_2 C 0.9845(4) 0.15913(18) 0.9483(4)
H159_2 H 0.9586 0.1484 0.9622
H160_2 H 0.9761 0.2602 0.9803
O20_2 O 0.7803(5) 0.2238(2) 0.8756(7)
H171_2 H 0.780347 0.228995 0.924159
H172_2 H 0.769264 0.241391 0.841291
O1_2 O 0.8604(2) 0.98678(9) 0.2644(3)
O2_2 O 0.75337(19) 0.99540(8) 0.1984(2)
N1_2 N 0.6995(2) 0.94262(10) 0.2361(3)
C49_2 C 0.7547(3) 0.94606(14) 0.3076(3)
H53_2 H 0.7881 0.9577 0.3104
C50_2 C 0.7654(4) 0.93391(17) 0.3759(4)
H54_2 H 0.8054 0.9366 0.4249
C51_2 C 0.7164(4) 0.91745(17) 0.3722(5)
H55_2 H 0.7218 0.9091 0.4192
C52_2 C 0.6578(4) 0.91303(16) 0.2977(4)
H56_2 H 0.6235 0.9015 0.2929
C53_2 C 0.6535(3) 0.92618(15) 0.2337(4)
H57_2 H 0.6146 0.9234 0.1834
N2_2 N 0.6142(2) 0.99158(11) 0.1322(3)
H61 H 0.4614 0.9931 0.0721
C58_2 C 0.5539(4) 0.98312(19) 0.0967(5)
H62_2 H 0.5423 0.9648 0.0699
N3_2 N 0.6735(2) 0.98470(10) 0.0244(3)
O9_2 O 0.75291(19) 0.93516(9) 0.1268(2)
C99_2 C 0.8990(3) 0.98770(12) 0.0523(4)
C100_2 C 0.9623(6) 0.9746(2) 0.1077(9)
H100_2 H 0.9745 0.9787 0.1625
H101_2 H 0.9947 0.9831 0.0987
H102_2 H 0.9600 0.9534 0.0992
C101_2 C 0.8511(5) 0.97295(16) 0.0631(6)
H103_2 H 0.8488 0.9522 0.0492
H104_2 H 0.8085 0.9821 0.0287
H105_2 H 0.8638 0.9747 0.1188
H167_2 H 0.787062 0.92923 0.181638
H168_2 H 0.729418 0.917499 0.0953989
H60_2 H 0.9896 0.5395 0.1322
H61_2 H 0.9614 0.4931 0.0721
C62_2 C 0.6503(3) 0.98110(16) 0.8929(4)
H66_2 H 0.6402 0.9692 0.8485
C63_2 C 0.6587(3) 0.96869(13) 0.9603(4)
H67_2 H 0.6540 0.9481 0.9618
C102_2 C 0.8796(7) 0.9816(2) 0.9644(7)
H106_2 H 0.9098 0.9918 0.9542
H107_2 H 0.8355 0.9888 0.9274
H108_2 H 0.8813 0.9605 0.9568
H60_3 H 0.0104 0.4605 0.8678
H61_3 H 0.0386 0.5069 0.9279
C60_3 C 0.8275(3) 0.47267(14) 0.0442(4)
H64_3 H 0.8223 0.4520 0.0440
C61_3 C 0.8435(3) 0.48898(17) 0.1104(4)
H65_3 H 0.8501 0.4799 0.1572
C62_3 C 0.8497(3) 0.51890(16) 0.1071(4)
H66_3 H 0.8598 0.5308 0.1515
C63_3 C 0.8413(3) 0.53131(13) 0.0397(4)
H67_3 H 0.8460 0.5519 0.0382
H98_3 H 0.6639 0.3802 0.0419
C98_3 C 0.6628(3) 0.33698(15) 0.0119(4)
O13_3 O 0.6215(2) 0.32631(11) 0.0243(3)
O14_3 O 0.7074(4) 0.32338(14) 0.0178(6)
C102_3 C 0.6204(7) 0.5184(2) 0.0356(7)
H106_3 H 0.5902 0.5082 0.0458
H107_3 H 0.6645 0.5112 0.0726
H108_3 H 0.6187 0.5395 0.0432
Co4 Co 0.61623(6) 0.29330(2) 0.08776(6)
N10_3 N 0.6642(4) 0.32085(15) 0.1931(4)
C142_3 C 0.7051(6) 0.3406(2) 0.2082(6)
H150_3 H 0.7186 0.3432 0.1717
C143_3 C 0.7327(6) 0.3592(2) 0.2755(7)
H151_3 H 0.7678 0.3718 0.2873
C144_3 C 0.7066(7) 0.3588(2) 0.3257(8)
H152_3 H 0.7221 0.3723 0.3685
C145_3 C 0.6611(6) 0.3397(3) 0.3122(7)
H153_3 H 0.6437 0.3379 0.3448
C146_3 C 0.6398(5) 0.3210(2) 0.2398(7)
H154_3 H 0.6051 0.3079 0.2254
N11_3 N 0.5277(3) 0.31238(14) 0.0674(3)
C147_3 C 0.4862(5) 0.2977(2) 0.0821(6)
H155_3 H 0.4901 0.2770 0.0884
C148_3 C 0.4378(6) 0.3120(2) 0.0881(6)
H156_3 H 0.4117 0.3016 0.1021
C149_3 C 0.4298(5) 0.3407(2) 0.0737(5)
H157_3 H 0.3972 0.3507 0.0769
C150_3 C 0.4672(4) 0.35556(18) 0.0544(4)
H158_3 H 0.4605 0.3759 0.0429
C151_3 C 0.5155(4) 0.34087(18) 0.0517(4)
H159_3 H 0.5414 0.3516 0.0378
H160_3 H 0.5239 0.2398 0.0197
O20_3 O 0.7197(5) 0.2762(2) 0.1244(7)
O23 O 0.6090(2) 0.26075(11) 0.1534(3)
H171_3 H 0.719653 0.271005 0.0758413
H172_3 H 0.730736 0.258609 0.158709
Co1_2 Co 0.81280(4) 0.53620(2) 0.86854(4)
Co2_3 Co 0.38377(6) 0.29330(2) 0.41224(6)
S1_3 S 0.69163(6) 0.41827(3) 0.89210(8)
C1_3 C 0.6454(2) 0.40053(11) 0.7980(3)
C2_3 C 0.6041(2) 0.41598(10) 0.7264(3)
C3_3 C 0.5682(2) 0.39908(11) 0.6577(3)
C4_3 C 0.5748(3) 0.36928(11) 0.6592(3)
H1_3 H 0.5487 0.3586 0.6114
C5_3 C 0.6192(2) 0.35380(11) 0.7293(3)
C6_3 C 0.6533(3) 0.37053(11) 0.7979(3)
H2_3 H 0.6832 0.3610 0.8466
S2_3 S 0.59680(6) 0.45466(3) 0.72435(8)
C7_3 C 0.6763(3) 0.46480(11) 0.7468(3)
H3_3 H 0.6805 0.4596 0.7014
H4_3 H 0.7095 0.4537 0.7940
C8_3 C 0.6876(3) 0.49737(12) 0.7631(4)
O1_3 O 0.6396(2) 0.51322(9) 0.7356(3)
O2_3 O 0.74663(19) 0.50460(8) 0.8016(2)
C9_3 C 0.6249(3) 0.32107(13) 0.7300(4)
C10_3 C 0.6002(6) 0.30786(18) 0.7783(7)
H5_3 H 0.5545 0.3132 0.7545
H6_3 H 0.6043 0.2865 0.7788
H7_3 H 0.6256 0.3153 0.8329
C11_3 C 0.6974(5) 0.31235(19) 0.7770(7)
H8_3 H 0.7206 0.3235 0.8268
H9_3 H 0.7015 0.2914 0.7891
H10_3 H 0.7160 0.3167 0.7450
C12_3 C 0.5937(6) 0.30703(17) 0.6508(5)
H11_3 H 0.6018 0.3188 0.6157
H12_3 H 0.6118 0.2874 0.6562
H13_3 H 0.5469 0.3056 0.6279
S3_3 S 0.51636(7) 0.41552(3) 0.56262(8)
C13_3 C 0.4560(2) 0.43303(11) 0.5725(3)
C14_3 C 0.4129(2) 0.41756(11) 0.5860(3)
C15_3 C 0.3671(2) 0.43409(11) 0.5929(3)
C16_3 C 0.3631(2) 0.46426(11) 0.5808(3)
H14_3 H 0.3314 0.4749 0.5845
C17_3 C 0.4037(2) 0.47954(11) 0.5634(3)
C18_3 C 0.4497(3) 0.46333(11) 0.5612(3)
H15_3 H 0.4791 0.4732 0.5515
S4_3 S 0.41714(7) 0.37876(3) 0.59252(8)
C19_3 C 0.3410(3) 0.36929(14) 0.5041(4)
H16_3 H 0.3361 0.3802 0.4581
H17_3 H 0.3050 0.3751 0.5107
C20_3 C 0.3372(3) 0.33698(15) 0.4881(4)
O3_3 O 0.3785(2) 0.32631(11) 0.4757(3)
O4_3 O 0.2926(4) 0.32338(14) 0.4822(6)
C21_3 C 0.3990(3) 0.51230(12) 0.5523(4)
C22_3 C 0.4623(6) 0.5254(2) 0.6077(9)
H18_3 H 0.4745 0.5213 0.6625
H19_3 H 0.4947 0.5169 0.5987
H20_3 H 0.4600 0.5466 0.5992
C23_3 C 0.3511(5) 0.52705(16) 0.5631(6)
H21_3 H 0.3488 0.5478 0.5492
H22_3 H 0.3085 0.5179 0.5287
H23_3 H 0.3638 0.5253 0.6188
C24_3 C 0.3796(7) 0.5184(2) 0.4644(7)
H24_3 H 0.4098 0.5082 0.4542
H25_3 H 0.3355 0.5112 0.4274
H26_3 H 0.3813 0.5395 0.4568
S5_4 S 0.5000 0.08009(4) 0.2500
C25_3 C 0.4468(2) 0.10423(11) 0.2586(3)
C26_3 C 0.4664(2) 0.12246(11) 0.3236(3)
C27_3 C 0.4200(3) 0.13998(13) 0.3244(3)
C28_3 C 0.3547(3) 0.13736(12) 0.2649(3)
H27_3 H 0.3235 0.1489 0.2676
C29_3 C 0.3344(3) 0.11796(12) 0.2009(3)
C30_3 C 0.3812(3) 0.10253(12) 0.1985(3)
H28_3 H 0.3687 0.0901 0.1542
S6_3 S 0.54994(7) 0.12338(4) 0.40179(9)
C31_3 C 0.5465(3) 0.10323(17) 0.4748(4)
H29_3 H 0.5146 0.0872 0.4493
H30_3 H 0.5324 0.1161 0.5028
C32_3 C 0.6125(3) 0.09060(15) 0.5338(4)
O5_2 O 0.61274(17) 0.06528(9) 0.5580(2)
O6_3 O 0.6606(2) 0.10510(11) 0.5520(4)
C33_3 C 0.2624(3) 0.11635(15) 0.1345(4)
C34_3 C 0.2377(5) 0.1476(2) 0.1048(7)
H31_3 H 0.2509 0.1604 0.1504
H32_3 H 0.2563 0.1548 0.0747
H33_3 H 0.1904 0.1474 0.0703
C35_3 C 0.2275(5) 0.1034(4) 0.1690(7)
H34_3 H 0.2337 0.0822 0.1731
H35_3 H 0.2445 0.1117 0.2222
H36_3 H 0.1812 0.1079 0.1349
C36_3 C 0.2509(4) 0.1018(3) 0.0624(5)
H37_3 H 0.2042 0.1004 0.0236
H38_3 H 0.2712 0.1132 0.0395
H39_3 H 0.2698 0.0821 0.0757
S7_3 S 0.43923(7) 0.16514(3) 0.40190(8)
C37_3 C 0.4904(3) 0.19100(12) 0.3944(3)
C38_3 C 0.4699(3) 0.20830(11) 0.3275(3)
C39_3 C 0.5166(3) 0.22793(11) 0.3300(3)
C40_3 C 0.5772(3) 0.23037(13) 0.3971(3)
H40_3 H 0.6075 0.2434 0.3966
C41_3 C 0.5963(3) 0.21438(13) 0.4664(3)
C42_3 C 0.5521(3) 0.19434(13) 0.4621(3)
H41_3 H 0.5643 0.1824 0.5071
S8_3 S 0.39189(9) 0.20590(4) 0.24146(9)
C43_3 C 0.3444(5) 0.2143(2) 0.2796(8)
H42_3 H 0.3604 0.2032 0.3294
H43_3 H 0.2994 0.2080 0.2411
C44_3 C 0.3442(3) 0.24878(17) 0.2979(5)
O7_3 O 0.3910(2) 0.26075(11) 0.3466(3)
O8_3 O 0.2819(2) 0.24840(11) 0.2646(3)
C45_3 C 0.6630(3) 0.21796(18) 0.5394(4)
C46_3 C 0.6689(4) 0.2057(3) 0.6122(4)
H44_3 H 0.7078 0.2137 0.6593
H45_3 H 0.6306 0.2110 0.6134
H46_3 H 0.6724 0.1843 0.6119
C47_3 C 0.7130(4) 0.2084(3) 0.5244(6)
H47_3 H 0.7059 0.1877 0.5082
H48_3 H 0.7106 0.2203 0.4820
H49_3 H 0.7559 0.2106 0.5731
C48_3 C 0.6780(5) 0.2520(2) 0.5569(6)
H50_3 H 0.7112 0.2549 0.6133
H51_3 H 0.6935 0.2598 0.5241
H52_3 H 0.6383 0.2623 0.5441
S9_4 S 0.5000 0.25141(4) 0.2500
N1_3 N 0.8005(2) 0.55738(10) 0.7639(3)
C49_3 C 0.7453(3) 0.55394(14) 0.6924(3)
H53_3 H 0.7119 0.5423 0.6896
C50_3 C 0.7346(4) 0.56609(17) 0.6241(4)
H54_3 H 0.6946 0.5634 0.5751
C51_3 C 0.7836(4) 0.58255(17) 0.6278(5)
H55_3 H 0.7782 0.5909 0.5808
C52_3 C 0.8422(4) 0.58697(16) 0.7023(4)
H56_3 H 0.8765 0.5985 0.7071
C53_3 C 0.8465(3) 0.57382(15) 0.7663(4)
H57_3 H 0.8854 0.5766 0.8166
N2_3 N 0.8858(2) 0.50842(11) 0.8678(3)
C54_3 C 0.8718(4) 0.48284(17) 0.8341(4)
H58_3 H 0.8281 0.4764 0.8075
C55_3 C 0.9168(5) 0.4645(2) 0.8345(5)
H59_3 H 0.9037 0.4457 0.8106
C56_3 C 0.9793(5) 0.4728(2) 0.8685(5)
C57_3 C 0.9956(4) 0.4997(3) 0.9037(6)
C58_3 C 0.9461(4) 0.51688(19) 0.9033(5)
H62_3 H 0.9577 0.5352 0.9301
N3_3 N 0.8265(2) 0.51530(10) 0.9756(3)
C59_3 C 0.8194(3) 0.48656(13) 0.9791(3)
H63_3 H 0.8080 0.4751 0.9335
N4_3 N 0.3358(4) 0.32085(15) 0.3069(4)
C64_3 C 0.2949(6) 0.3406(2) 0.2918(6)
H68_3 H 0.2814 0.3432 0.3283
C65_3 C 0.2673(6) 0.3592(2) 0.2245(7)
H69_3 H 0.2322 0.3718 0.2127
C66_3 C 0.2934(7) 0.3588(2) 0.1743(8)
H70_3 H 0.2779 0.3723 0.1315
C67_3 C 0.3389(6) 0.3397(3) 0.1878(7)
H71_3 H 0.3563 0.3379 0.1552
C68_3 C 0.3602(5) 0.3210(2) 0.2602(7)
H72_3 H 0.3949 0.3079 0.2746
N5_3 N 0.4723(3) 0.31238(14) 0.4326(3)
C69_3 C 0.5138(5) 0.2977(2) 0.4179(6)
H73_3 H 0.5099 0.2770 0.4116
C70_3 C 0.5622(6) 0.3120(2) 0.4119(6)
H74_3 H 0.5883 0.3016 0.3979
C71_3 C 0.5702(5) 0.3407(2) 0.4263(5)
H75_3 H 0.6028 0.3507 0.4231
C72_3 C 0.5328(4) 0.35556(18) 0.4456(4)
H76_3 H 0.5395 0.3759 0.4571
C73_3 C 0.4845(4) 0.34087(18) 0.4483(4)
H77_3 H 0.4586 0.3516 0.4622
N6_3 N 0.4277(3) 0.26569(13) 0.5124(4)
C74_3 C 0.4673(5) 0.2427(2) 0.5210(5)
H78_3 H 0.4761 0.2398 0.4803
C75_3 C 0.4954(5) 0.2235(2) 0.5846(6)
H79_3 H 0.5238 0.2085 0.5882
C76_3 C 0.4812(6) 0.2267(2) 0.6422(6)
H80_3 H 0.4990 0.2136 0.6861
C77_3 C 0.4417(6) 0.2486(2) 0.6361(7)
H81_3 H 0.4296 0.2510 0.6739
C78_3 C 0.4200(5) 0.2671(2) 0.5731(6)
H82_3 H 0.3958 0.2834 0.5729
O9_3 O 0.74709(19) 0.56484(9) 0.8732(2)
O10_3 O 0.2803(5) 0.2762(2) 0.3756(7)
S10_3 S 0.30837(6) 0.41827(3) 0.60790(8)
C79_3 C 0.3546(2) 0.40053(11) 0.7020(3)
C80_3 C 0.3959(2) 0.41598(10) 0.7736(3)
C81_3 C 0.4318(2) 0.39908(11) 0.8423(3)
C82_3 C 0.4252(3) 0.36928(11) 0.8408(3)
H83_3 H 0.4513 0.3586 0.8886
C83_3 C 0.3808(2) 0.35380(11) 0.7707(3)
C84_3 C 0.3467(3) 0.37053(11) 0.7021(3)
H84_3 H 0.3168 0.3610 0.6534
S11_3 S 0.40320(6) 0.45466(3) 0.77565(8)
C85_3 C 0.3237(3) 0.46480(11) 0.7532(3)
H85_3 H 0.3195 0.4596 0.7986
H86_3 H 0.2905 0.4537 0.7060
C86_3 C 0.3124(3) 0.49737(12) 0.7369(4)
O11_3 O 0.3604(2) 0.51322(9) 0.7644(3)
O12_3 O 0.25337(19) 0.50460(8) 0.6984(2)
C87_3 C 0.3751(3) 0.32107(13) 0.7700(4)
C88_3 C 0.3998(6) 0.30786(18) 0.7217(7)
H87_3 H 0.4455 0.3132 0.7455
H88_3 H 0.3957 0.2865 0.7212
H89_3 H 0.3744 0.3153 0.6671
C89_3 C 0.3026(5) 0.31235(19) 0.7230(7)
H90_3 H 0.2794 0.3235 0.6732
H91_3 H 0.2985 0.2914 0.7109
H92_3 H 0.2840 0.3167 0.7550
C90_3 C 0.4063(6) 0.30703(17) 0.8492(5)
H93_3 H 0.3982 0.3188 0.8843
H94_3 H 0.3882 0.2874 0.8438
H95_3 H 0.4531 0.3056 0.8721
S12_3 S 0.48364(7) 0.41552(3) 0.93738(8)
C91_3 C 0.5440(2) 0.43303(11) 0.9275(3)
C92_3 C 0.5871(2) 0.41756(11) 0.9140(3)
C93_3 C 0.6329(2) 0.43409(11) 0.9071(3)
C94_3 C 0.6369(2) 0.46426(11) 0.9192(3)
H96_3 H 0.6686 0.4749 0.9155
C95_3 C 0.5963(2) 0.47954(11) 0.9366(3)
C96_3 C 0.5503(3) 0.46333(11) 0.9388(3)
H97_3 H 0.5209 0.4732 0.9485
S13_3 S 0.58286(7) 0.37876(3) 0.90748(8)
C97_3 C 0.6590(3) 0.36929(14) 0.9959(4)
H99_3 H 0.6950 0.3751 0.9893
C99_3 C 0.6010(3) 0.51230(12) 0.9477(4)
C100_3 C 0.5377(6) 0.5254(2) 0.8923(9)
H100_3 H 0.5255 0.5213 0.8375
H101_3 H 0.5053 0.5169 0.9013
H102_3 H 0.5400 0.5466 0.9008
C101_3 C 0.6489(5) 0.52705(16) 0.9369(6)
H103_3 H 0.6512 0.5478 0.9508
H104_3 H 0.6915 0.5179 0.9713
H105_3 H 0.6362 0.5253 0.8812
C103_3 C 0.5532(2) 0.10423(11) 0.2414(3)
C104_3 C 0.5336(2) 0.12246(11) 0.1764(3)
C105_3 C 0.5800(3) 0.13998(13) 0.1756(3)
C106_3 C 0.6453(3) 0.13736(12) 0.2351(3)
H109_3 H 0.6765 0.1489 0.2324
C107_3 C 0.6656(3) 0.11796(12) 0.2991(3)
C108_3 C 0.6188(3) 0.10253(12) 0.3015(3)
H110_3 H 0.6313 0.0901 0.3458
S14_3 S 0.45006(7) 0.12338(4) 0.09821(9)
C109_3 C 0.4535(3) 0.10323(17) 0.0252(4)
H111_3 H 0.4854 0.0872 0.0507
C111_3 C 0.7376(3) 0.11635(15) 0.3655(4)
C112_3 C 0.7623(5) 0.1476(2) 0.3952(7)
H113_3 H 0.7491 0.1604 0.3496
H114_3 H 0.7437 0.1548 0.4253
H115_3 H 0.8096 0.1474 0.4297
C113_3 C 0.7725(5) 0.1034(4) 0.3310(7)
H116_3 H 0.7663 0.0822 0.3269
H117_3 H 0.7555 0.1117 0.2778
H118_3 H 0.8188 0.1079 0.3651
C114_3 C 0.7491(4) 0.1018(3) 0.4376(5)
H119_3 H 0.7958 0.1004 0.4764
H120_3 H 0.7288 0.1132 0.4605
H121_3 H 0.7302 0.0821 0.4243
S15_3 S 0.56077(7) 0.16514(3) 0.09810(8)
C115_3 C 0.5096(3) 0.19100(12) 0.1056(3)
C116_3 C 0.5301(3) 0.20830(11) 0.1725(3)
C117_3 C 0.4834(3) 0.22793(11) 0.1700(3)
C118_3 C 0.4228(3) 0.23037(13) 0.1029(3)
H122_3 H 0.3925 0.2434 0.1034
C119_3 C 0.4037(3) 0.21438(13) 0.0336(3)
C120_3 C 0.4479(3) 0.19434(13) 0.0379(3)
S16_3 S 0.60811(9) 0.20590(4) 0.25854(9)
C121_3 C 0.6556(5) 0.2143(2) 0.2204(8)
H124_3 H 0.6396 0.2032 0.1706
H125_3 H 0.7006 0.2080 0.2589
C122_3 C 0.6558(3) 0.24878(17) 0.2021(5)
O18_3 O 0.7181(2) 0.24840(11) 0.2354(3)
H130_3 H 0.2894 0.2203 0.0180
Co3_2 Co 0.18720(4) 0.53620(2) 0.63146(4)
N7_3 N 0.1995(2) 0.55738(10) 0.7361(3)
C127_3 C 0.2547(3) 0.55394(14) 0.8076(3)
H135_3 H 0.2881 0.5423 0.8104
C128_3 C 0.2654(4) 0.56609(17) 0.8759(4)
H136_3 H 0.3054 0.5634 0.9249
C129_3 C 0.2164(4) 0.58255(17) 0.8722(5)
H137_3 H 0.2218 0.5909 0.9192
C130_3 C 0.1578(4) 0.58697(16) 0.7977(4)
H138_3 H 0.1235 0.5985 0.7929
C131_3 C 0.1535(3) 0.57382(15) 0.7337(4)
H139_3 H 0.1146 0.5766 0.6834
N8_3 N 0.1142(2) 0.50842(11) 0.6322(3)
C132_3 C 0.1282(4) 0.48284(17) 0.6659(4)
H140_3 H 0.1719 0.4764 0.6925
C133_3 C 0.0832(5) 0.4645(2) 0.6655(5)
H141_3 H 0.0963 0.4457 0.6894
C134_3 C 0.0207(5) 0.4728(2) 0.6315(5)
C135_3 C 0.0044(4) 0.4997(3) 0.5963(6)
C136_3 C 0.0539(4) 0.51688(19) 0.5967(5)
H144_3 H 0.0423 0.5352 0.5699
N9_3 N 0.1735(2) 0.51530(10) 0.5244(3)
C137_3 C 0.1806(3) 0.48656(13) 0.5209(3)
H145_3 H 0.1920 0.4751 0.5665
C138_3 C 0.1725(3) 0.47267(14) 0.4558(4)
H146_3 H 0.1777 0.4520 0.4560
C139_3 C 0.1565(3) 0.48898(17) 0.3896(4)
H147_3 H 0.1499 0.4799 0.3428
C140_3 C 0.1503(3) 0.51890(16) 0.3929(4)
H148_3 H 0.1402 0.5308 0.3485
C141_3 C 0.1587(3) 0.53131(13) 0.4603(4)
H149_3 H 0.1540 0.5519 0.4618
N12_3 N 0.5723(3) 0.26569(13) 0.9876(4)
C152_3 C 0.5327(5) 0.2427(2) 0.9790(5)
C153_3 C 0.5046(5) 0.2235(2) 0.9154(6)
H161_3 H 0.4762 0.2085 0.9118
C154_3 C 0.5188(6) 0.2267(2) 0.8578(6)
H162_3 H 0.5010 0.2136 0.8139
C155_3 C 0.5583(6) 0.2486(2) 0.8639(7)
H163_3 H 0.5704 0.2510 0.8261
C156_3 C 0.5800(5) 0.2671(2) 0.9269(6)
H164_3 H 0.6042 0.2834 0.9271
O19_3 O 0.25291(19) 0.56484(9) 0.6268(2)
Co6_2 Co 0.68720(4) 0.03620(2) 0.63146(4)
O21_2 O 0.11274(17) 0.56528(9) 0.5580(2)
O22_2 O 0.88726(17) 0.56528(9) 0.9420(2)
H165_3 H 0.280347 0.271005 0.424159
H166_3 H 0.269264 0.258609 0.341291
H167_3 H 0.712938 0.57077 0.818362
H168_3 H 0.770582 0.582501 0.904601
H169_3 H 0.287062 0.57077 0.681638
H170_3 H 0.229418 0.582501 0.595399
H112_3 H 0.4676 0.1161 0.9972
C110_3 C 0.3875(3) 0.09060(15) 0.9662(4)
O15_2 O 0.38726(17) 0.06528(9) 0.9420(2)
O16_3 O 0.3394(2) 0.10510(11) 0.9480(4)
H123_3 H 0.4357 0.1824 0.9929
C123_3 C 0.3370(3) 0.21796(18) 0.9606(4)
C124_3 C 0.3311(4) 0.2057(3) 0.8878(4)
H126_3 H 0.2922 0.2137 0.8407
H127_3 H 0.3694 0.2110 0.8866
H128_3 H 0.3276 0.1843 0.8881
C125_3 C 0.2870(4) 0.2084(3) 0.9756(6)
H129_3 H 0.2941 0.1877 0.9918
H131_3 H 0.2441 0.2106 0.9269
C126_3 C 0.3220(5) 0.2520(2) 0.9431(6)
H132_3 H 0.2888 0.2549 0.8867
H133_3 H 0.3065 0.2598 0.9759
H134_3 H 0.3617 0.2623 0.9559
Co5_2 Co 0.31280(4) 0.03620(2) 0.86854(4)
O1_4 O 0.1396(2) 0.01322(9) 0.7356(3)
O2_4 O 0.24663(19) 0.00460(8) 0.8016(2)
N1_4 N 0.3005(2) 0.05738(10) 0.7639(3)
C49_4 C 0.2453(3) 0.05394(14) 0.6924(3)
H53_4 H 0.2119 0.0423 0.6896
C50_4 C 0.2346(4) 0.06609(17) 0.6241(4)
H54_4 H 0.1946 0.0634 0.5751
C51_4 C 0.2836(4) 0.08255(17) 0.6278(5)
H55_4 H 0.2782 0.0909 0.5808
C52_4 C 0.3422(4) 0.08697(16) 0.7023(4)
H56_4 H 0.3765 0.0985 0.7071
C53_4 C 0.3465(3) 0.07382(15) 0.7663(4)
H57_4 H 0.3854 0.0766 0.8166
N2_4 N 0.3858(2) 0.00842(11) 0.8678(3)
H61_4 H 0.5386 0.0069 0.9279
C58_4 C 0.4461(4) 0.01688(19) 0.9033(5)
H62_4 H 0.4577 0.0352 0.9301
N3_4 N 0.3265(2) 0.01530(10) 0.9756(3)
O9_4 O 0.24709(19) 0.06484(9) 0.8732(2)
C99_4 C 0.1010(3) 0.01230(12) 0.9477(4)
C100_4 C 0.0377(6) 0.0254(2) 0.8923(9)
H100_4 H 0.0255 0.0213 0.8375
H101_4 H 0.0053 0.0169 0.9013
H102_4 H 0.0400 0.0466 0.9008
C101_4 C 0.1489(5) 0.02705(16) 0.9369(6)
H103_4 H 0.1512 0.0478 0.9508
H104_4 H 0.1915 0.0179 0.9713
H105_4 H 0.1362 0.0253 0.8812
H167_4 H 0.212938 0.07077 0.818362
H168_4 H 0.270582 0.0825014 0.904601
C60_4 C 0.3275(3) 0.97267(14) 0.0442(4)
H64_4 H 0.3223 0.9520 0.0440
C61_4 C 0.3435(3) 0.98898(17) 0.1104(4)
H65_4 H 0.3501 0.9799 0.1572
H98_4 H 0.1639 0.8802 0.0419
C98_4 C 0.1628(3) 0.83698(15) 0.0119(4)
O13_4 O 0.1215(2) 0.82631(11) 0.0243(3)
O14_4 O 0.2074(4) 0.82338(14) 0.0178(6)
Co4_2 Co 0.11623(6) 0.79330(2) 0.08776(6)
N10_4 N 0.1642(4) 0.82085(15) 0.1931(4)
C142_4 C 0.2051(6) 0.8406(2) 0.2082(6)
H150_4 H 0.2186 0.8432 0.1717
C143_4 C 0.2327(6) 0.8592(2) 0.2755(7)
H151_4 H 0.2678 0.8718 0.2873
C144_4 C 0.2066(7) 0.8588(2) 0.3257(8)
H152_4 H 0.2221 0.8723 0.3685
C145_4 C 0.1611(6) 0.8397(3) 0.3122(7)
H153_4 H 0.1437 0.8379 0.3448
C146_4 C 0.1398(5) 0.8210(2) 0.2398(7)
H154_4 H 0.1051 0.8079 0.2254
N11_4 N 0.0277(3) 0.81238(14) 0.0674(3)
C151_4 C 0.0155(4) 0.84087(18) 0.0517(4)
H159_4 H 0.0414 0.8516 0.0378
H160_4 H 0.0239 0.7398 0.0197
O20_4 O 0.2197(5) 0.7762(2) 0.1244(7)
O23_2 O 0.1090(2) 0.76075(11) 0.1534(3)
H171_4 H 0.219653 0.771005 0.0758413
H172_4 H 0.230736 0.758609 0.158709
S1_4 S 0.19163(6) 0.91827(3) 0.89210(8)
C1_4 C 0.1454(2) 0.90053(11) 0.7980(3)
C2_4 C 0.1041(2) 0.91598(10) 0.7264(3)
C3_4 C 0.0682(2) 0.89908(11) 0.6577(3)
C4_4 C 0.0748(3) 0.86928(11) 0.6592(3)
H1_4 H 0.0487 0.8586 0.6114
C5_4 C 0.1192(2) 0.85380(11) 0.7293(3)
C6_4 C 0.1533(3) 0.87053(11) 0.7979(3)
H2_4 H 0.1832 0.8610 0.8466
S2_4 S 0.09680(6) 0.95466(3) 0.72435(8)
C7_4 C 0.1763(3) 0.96480(11) 0.7468(3)
H3_4 H 0.1805 0.9596 0.7014
H4_4 H 0.2095 0.9537 0.7940
C8_4 C 0.1876(3) 0.99737(12) 0.7631(4)
C9_4 C 0.1249(3) 0.82107(13) 0.7300(4)
C10_4 C 0.1002(6) 0.80786(18) 0.7783(7)
H5_4 H 0.0545 0.8132 0.7545
H6_4 H 0.1043 0.7865 0.7788
H7_4 H 0.1256 0.8153 0.8329
C11_4 C 0.1974(5) 0.81235(19) 0.7770(7)
H8_4 H 0.2206 0.8235 0.8268
H9_4 H 0.2015 0.7914 0.7891
H10_4 H 0.2160 0.8167 0.7450
C12_4 C 0.0937(6) 0.80703(17) 0.6508(5)
H11_4 H 0.1018 0.8188 0.6157
H12_4 H 0.1118 0.7874 0.6562
H13_4 H 0.0469 0.8056 0.6279
S3_4 S 0.01636(7) 0.91552(3) 0.56262(8)
S5_5 S 0.0000 0.58009(4) 0.2500
S6_4 S 0.04994(7) 0.62338(4) 0.40179(9)
C31_4 C 0.0465(3) 0.60323(17) 0.4748(4)
H29_4 H 0.0146 0.5872 0.4493
H30_4 H 0.0324 0.6161 0.5028
C32_4 C 0.1125(3) 0.59060(15) 0.5338(4)
O6_4 O 0.1606(2) 0.60510(11) 0.5520(4)
C39_4 C 0.0166(3) 0.72793(11) 0.3300(3)
C40_4 C 0.0772(3) 0.73037(13) 0.3971(3)
H40_4 H 0.1075 0.7434 0.3966
C41_4 C 0.0963(3) 0.71438(13) 0.4664(3)
C42_4 C 0.0521(3) 0.69434(13) 0.4621(3)
H41_4 H 0.0643 0.6824 0.5071
C45_4 C 0.1630(3) 0.71796(18) 0.5394(4)
C46_4 C 0.1689(4) 0.7057(3) 0.6122(4)
H44_4 H 0.2078 0.7137 0.6593
H45_4 H 0.1306 0.7110 0.6134
H46_4 H 0.1724 0.6843 0.6119
C47_4 C 0.2130(4) 0.7084(3) 0.5244(6)
H47_4 H 0.2059 0.6877 0.5082
H48_4 H 0.2106 0.7203 0.4820
H49_4 H 0.2559 0.7106 0.5731
C48_4 C 0.1780(5) 0.7520(2) 0.5569(6)
H50_4 H 0.2112 0.7549 0.6133
H51_4 H 0.1935 0.7598 0.5241
H52_4 H 0.1383 0.7623 0.5441
S9_5 S 0.0000 0.75141(4) 0.2500
C54_4 C 0.3718(4) 0.98284(17) 0.8341(4)
H58_4 H 0.3281 0.9764 0.8075
C55_4 C 0.4168(5) 0.9645(2) 0.8345(5)
H59_4 H 0.4037 0.9457 0.8106
C56_4 C 0.4793(5) 0.9728(2) 0.8685(5)
H60_4 H 0.5104 0.9605 0.8678
C57_4 C 0.4956(4) 0.9997(3) 0.9037(6)
C59_4 C 0.3194(3) 0.98656(13) 0.9791(3)
H63_4 H 0.3080 0.9751 0.9335
C69_4 C 0.0138(5) 0.7977(2) 0.4179(6)
H73_4 H 0.0099 0.7770 0.4116
C70_4 C 0.0622(6) 0.8120(2) 0.4119(6)
H74_4 H 0.0883 0.8016 0.3979
C71_4 C 0.0702(5) 0.8407(2) 0.4263(5)
H75_4 H 0.1028 0.8507 0.4231
C72_4 C 0.0328(4) 0.85556(18) 0.4456(4)
H76_4 H 0.0395 0.8759 0.4571
H79_4 H 0.0238 0.7085 0.5882
C91_4 C 0.0440(2) 0.93303(11) 0.9275(3)
C92_4 C 0.0871(2) 0.91756(11) 0.9140(3)
C93_4 C 0.1329(2) 0.93409(11) 0.9071(3)
C94_4 C 0.1369(2) 0.96426(11) 0.9192(3)
H96_4 H 0.1686 0.9749 0.9155
C95_4 C 0.0963(2) 0.97954(11) 0.9366(3)
C96_4 C 0.0503(3) 0.96333(11) 0.9388(3)
H97_4 H 0.0209 0.9732 0.9485
S13_4 S 0.08286(7) 0.87876(3) 0.90748(8)
C97_4 C 0.1590(3) 0.86929(14) 0.9959(4)
H99_4 H 0.1950 0.8751 0.9893
C103_4 C 0.0532(2) 0.60423(11) 0.2414(3)
C104_4 C 0.0336(2) 0.62246(11) 0.1764(3)
C105_4 C 0.0800(3) 0.63998(13) 0.1756(3)
C106_4 C 0.1453(3) 0.63736(12) 0.2351(3)
H109_4 H 0.1765 0.6489 0.2324
C107_4 C 0.1656(3) 0.61796(12) 0.2991(3)
C108_4 C 0.1188(3) 0.60253(12) 0.3015(3)
H110_4 H 0.1313 0.5901 0.3458
C111_4 C 0.2376(3) 0.61635(15) 0.3655(4)
C112_4 C 0.2623(5) 0.6476(2) 0.3952(7)
H113_4 H 0.2491 0.6604 0.3496
H114_4 H 0.2437 0.6548 0.4253
H115_4 H 0.3096 0.6474 0.4297
C113_4 C 0.2725(5) 0.6034(4) 0.3310(7)
H116_4 H 0.2663 0.5822 0.3269
H117_4 H 0.2555 0.6117 0.2778
H118_4 H 0.3188 0.6079 0.3651
C114_4 C 0.2491(4) 0.6018(3) 0.4376(5)
H119_4 H 0.2958 0.6004 0.4764
H120_4 H 0.2288 0.6132 0.4605
H121_4 H 0.2302 0.5821 0.4243
S15_4 S 0.06077(7) 0.66514(3) 0.09810(8)
C115_4 C 0.0096(3) 0.69100(12) 0.1056(3)
C116_4 C 0.0301(3) 0.70830(11) 0.1725(3)
S16_4 S 0.10811(9) 0.70590(4) 0.25854(9)
C121_4 C 0.1556(5) 0.7143(2) 0.2204(8)
H124_4 H 0.1396 0.7032 0.1706
H125_4 H 0.2006 0.7080 0.2589
C122_4 C 0.1558(3) 0.74878(17) 0.2021(5)
O18_4 O 0.2181(2) 0.74840(11) 0.2354(3)
N12_4 N 0.0723(3) 0.76569(13) 0.9876(4)
C152_4 C 0.0327(5) 0.7427(2) 0.9790(5)
C153_4 C 0.0046(5) 0.7235(2) 0.9154(6)
C154_4 C 0.0188(6) 0.7267(2) 0.8578(6)
H162_4 H 0.0010 0.7136 0.8139
C155_4 C 0.0583(6) 0.7486(2) 0.8639(7)
H163_4 H 0.0704 0.7510 0.8261
C156_4 C 0.0800(5) 0.7671(2) 0.9269(6)
H164_4 H 0.1042 0.7834 0.9271
C21_4 C 0.8990(3) 0.01230(12) 0.5523(4)
C22_4 C 0.9623(6) 0.0254(2) 0.6077(9)
H18_4 H 0.9745 0.0213 0.6625
H19_4 H 0.9947 0.0169 0.5987
H20_4 H 0.9600 0.0466 0.5992
C23_4 C 0.8511(5) 0.02705(16) 0.5631(6)
H21_4 H 0.8488 0.0478 0.5492
H22_4 H 0.8085 0.0179 0.5287
H23_4 H 0.8638 0.0253 0.6188
C24_4 C 0.8796(7) 0.0184(2) 0.4644(7)
H24_4 H 0.9098 0.0082 0.4542
H25_4 H 0.8355 0.0112 0.4274
H26_4 H 0.8813 0.0395 0.4568
O11_4 O 0.8604(2) 0.01322(9) 0.7644(3)
O12_4 O 0.75337(19) 0.00460(8) 0.6984(2)
N7_4 N 0.6995(2) 0.05738(10) 0.7361(3)
C127_4 C 0.7547(3) 0.05394(14) 0.8076(3)
H135_4 H 0.7881 0.0423 0.8104
C128_4 C 0.7654(4) 0.06609(17) 0.8759(4)
H136_4 H 0.8054 0.0634 0.9249
C129_4 C 0.7164(4) 0.08255(17) 0.8722(5)
H137_4 H 0.7218 0.0909 0.9192
C130_4 C 0.6578(4) 0.08697(16) 0.7977(4)
H138_4 H 0.6235 0.0985 0.7929
C131_4 C 0.6535(3) 0.07382(15) 0.7337(4)
H139_4 H 0.6146 0.0766 0.6834
N8_4 N 0.6142(2) 0.00842(11) 0.6322(3)
H143_3 H 0.4614 0.0069 0.5721
C136_4 C 0.5539(4) 0.01688(19) 0.5967(5)
H144_4 H 0.5423 0.0352 0.5699
N9_4 N 0.6735(2) 0.01530(10) 0.5244(3)
C140_4 C 0.6503(3) 0.01890(16) 0.3929(4)
H148_4 H 0.6402 0.0308 0.3485
C141_4 C 0.6587(3) 0.03131(13) 0.4603(4)
H149_4 H 0.6540 0.0519 0.4618
O19_4 O 0.75291(19) 0.06484(9) 0.6268(2)
H169_4 H 0.787062 0.07077 0.681638
H170_4 H 0.729418 0.0825014 0.595399
C147_4 C 0.9862(5) 0.7977(2) 0.0821(6)
H155_4 H 0.9901 0.7770 0.0884
C148_4 C 0.9378(6) 0.8120(2) 0.0881(6)
H156_4 H 0.9117 0.8016 0.1021
C149_4 C 0.9298(5) 0.8407(2) 0.0737(5)
H157_4 H 0.8972 0.8507 0.0769
C150_4 C 0.9672(4) 0.85556(18) 0.0544(4)
H158_4 H 0.9605 0.8759 0.0429
Co2_4 Co 0.88377(6) 0.79330(2) 0.41224(6)
C13_4 C 0.9560(2) 0.93303(11) 0.5725(3)
C14_4 C 0.9129(2) 0.91756(11) 0.5860(3)
C15_4 C 0.8671(2) 0.93409(11) 0.5929(3)
C16_4 C 0.8631(2) 0.96426(11) 0.5808(3)
H14_4 H 0.8314 0.9749 0.5845
C17_4 C 0.9037(2) 0.97954(11) 0.5634(3)
C18_4 C 0.9497(3) 0.96333(11) 0.5612(3)
H15_4 H 0.9791 0.9732 0.5515
S4_4 S 0.91714(7) 0.87876(3) 0.59252(8)
C19_4 C 0.8410(3) 0.86929(14) 0.5041(4)
H16_4 H 0.8361 0.8802 0.4581
H17_4 H 0.8050 0.8751 0.5107
C20_4 C 0.8372(3) 0.83698(15) 0.4881(4)
O3_4 O 0.8785(2) 0.82631(11) 0.4757(3)
O4_4 O 0.7926(4) 0.82338(14) 0.4822(6)
S5_6 S 1.0000 0.58009(4) 0.2500
C25_4 C 0.9468(2) 0.60423(11) 0.2586(3)
C26_4 C 0.9664(2) 0.62246(11) 0.3236(3)
C27_4 C 0.9200(3) 0.63998(13) 0.3244(3)
C28_4 C 0.8547(3) 0.63736(12) 0.2649(3)
H27_4 H 0.8235 0.6489 0.2676
C29_4 C 0.8344(3) 0.61796(12) 0.2009(3)
C30_4 C 0.8812(3) 0.60253(12) 0.1985(3)
H28_4 H 0.8687 0.5901 0.1542
C33_4 C 0.7624(3) 0.61635(15) 0.1345(4)
C34_4 C 0.7377(5) 0.6476(2) 0.1048(7)
H31_4 H 0.7509 0.6604 0.1504
H32_4 H 0.7563 0.6548 0.0747
H33_4 H 0.6904 0.6474 0.0703
C35_4 C 0.7275(5) 0.6034(4) 0.1690(7)
H34_4 H 0.7337 0.5822 0.1731
H35_4 H 0.7445 0.6117 0.2222
H36_4 H 0.6812 0.6079 0.1349
C36_4 C 0.7509(4) 0.6018(3) 0.0624(5)
H37_4 H 0.7042 0.6004 0.0236
H38_4 H 0.7712 0.6132 0.0395
H39_4 H 0.7698 0.5821 0.0757
S7_4 S 0.93923(7) 0.66514(3) 0.40190(8)
C37_4 C 0.9904(3) 0.69100(12) 0.3944(3)
C38_4 C 0.9699(3) 0.70830(11) 0.3275(3)
S8_4 S 0.89189(9) 0.70590(4) 0.24146(9)
C43_4 C 0.8444(5) 0.7143(2) 0.2796(8)
H42_4 H 0.8604 0.7032 0.3294
H43_4 H 0.7994 0.7080 0.2411
C44_4 C 0.8442(3) 0.74878(17) 0.2979(5)
O7_4 O 0.8910(2) 0.76075(11) 0.3466(3)
O8_4 O 0.7819(2) 0.74840(11) 0.2646(3)
S9_6 S 1.0000 0.75141(4) 0.2500
N4_4 N 0.8358(4) 0.82085(15) 0.3069(4)
C64_4 C 0.7949(6) 0.8406(2) 0.2918(6)
H68_4 H 0.7814 0.8432 0.3283
C65_4 C 0.7673(6) 0.8592(2) 0.2245(7)
H69_4 H 0.7322 0.8718 0.2127
C66_4 C 0.7934(7) 0.8588(2) 0.1743(8)
H70_4 H 0.7779 0.8723 0.1315
C67_4 C 0.8389(6) 0.8397(3) 0.1878(7)
H71_4 H 0.8563 0.8379 0.1552
C68_4 C 0.8602(5) 0.8210(2) 0.2602(7)
H72_4 H 0.8949 0.8079 0.2746
N5_4 N 0.9723(3) 0.81238(14) 0.4326(3)
C73_4 C 0.9845(4) 0.84087(18) 0.4483(4)
H77_4 H 0.9586 0.8516 0.4622
N6_4 N 0.9277(3) 0.76569(13) 0.5124(4)
C74_4 C 0.9673(5) 0.7427(2) 0.5210(5)
H78_4 H 0.9761 0.7398 0.4803
C75_4 C 0.9954(5) 0.7235(2) 0.5846(6)
C76_4 C 0.9812(6) 0.7267(2) 0.6422(6)
H80_4 H 0.9990 0.7136 0.6861
C77_4 C 0.9417(6) 0.7486(2) 0.6361(7)
H81_4 H 0.9296 0.7510 0.6739
C78_4 C 0.9200(5) 0.7671(2) 0.5731(6)
H82_4 H 0.8958 0.7834 0.5729
O10_4 O 0.7803(5) 0.7762(2) 0.3756(7)
S10_4 S 0.80837(6) 0.91827(3) 0.60790(8)
C79_4 C 0.8546(2) 0.90053(11) 0.7020(3)
C80_4 C 0.8959(2) 0.91598(10) 0.7736(3)
C81_4 C 0.9318(2) 0.89908(11) 0.8423(3)
C82_4 C 0.9252(3) 0.86928(11) 0.8408(3)
H83_4 H 0.9513 0.8586 0.8886
C83_4 C 0.8808(2) 0.85380(11) 0.7707(3)
C84_4 C 0.8467(3) 0.87053(11) 0.7021(3)
H84_4 H 0.8168 0.8610 0.6534
S11_4 S 0.90320(6) 0.95466(3) 0.77565(8)
C85_4 C 0.8237(3) 0.96480(11) 0.7532(3)
H85_4 H 0.8195 0.9596 0.7986
H86_4 H 0.7905 0.9537 0.7060
C86_4 C 0.8124(3) 0.99737(12) 0.7369(4)
C87_4 C 0.8751(3) 0.82107(13) 0.7700(4)
C88_4 C 0.8998(6) 0.80786(18) 0.7217(7)
H87_4 H 0.9455 0.8132 0.7455
H88_4 H 0.8957 0.7865 0.7212
H89_4 H 0.8744 0.8153 0.6671
C89_4 C 0.8026(5) 0.81235(19) 0.7230(7)
H90_4 H 0.7794 0.8235 0.6732
H91_4 H 0.7985 0.7914 0.7109
H92_4 H 0.7840 0.8167 0.7550
C90_4 C 0.9063(6) 0.80703(17) 0.8492(5)
H93_4 H 0.8982 0.8188 0.8843
H94_4 H 0.8882 0.7874 0.8438
H95_4 H 0.9531 0.8056 0.8721
S12_4 S 0.98364(7) 0.91552(3) 0.93738(8)
S14_4 S 0.95006(7) 0.62338(4) 0.09821(9)
C109_4 C 0.9535(3) 0.60323(17) 0.0252(4)
H111_4 H 0.9854 0.5872 0.0507
C117_4 C 0.9834(3) 0.72793(11) 0.1700(3)
C118_4 C 0.9228(3) 0.73037(13) 0.1029(3)
H122_4 H 0.8925 0.7434 0.1034
C119_4 C 0.9037(3) 0.71438(13) 0.0336(3)
C120_4 C 0.9479(3) 0.69434(13) 0.0379(3)
H130_4 H 0.7894 0.7203 0.0180
C132_4 C 0.6282(4) 0.98284(17) 0.6659(4)
H140_4 H 0.6719 0.9764 0.6925
C133_4 C 0.5832(5) 0.9645(2) 0.6655(5)
H141_4 H 0.5963 0.9457 0.6894
C134_4 C 0.5207(5) 0.9728(2) 0.6315(5)
H142_3 H 0.4896 0.9605 0.6322
C135_4 C 0.5044(4) 0.9997(3) 0.5963(6)
C137_4 C 0.6806(3) 0.98656(13) 0.5209(3)
H145_4 H 0.6920 0.9751 0.5665
C138_4 C 0.6725(3) 0.97267(14) 0.4558(4)
H146_4 H 0.6777 0.9520 0.4560
C139_4 C 0.6565(3) 0.98898(17) 0.3896(4)
H147_4 H 0.6499 0.9799 0.3428
H161_4 H 0.9762 0.7085 0.9118
H165_4 H 0.780347 0.771005 0.424159
H166_4 H 0.769264 0.758609 0.341291
H112_4 H 0.9676 0.6161 0.9972
C110_4 C 0.8875(3) 0.59060(15) 0.9662(4)
O16_4 O 0.8394(2) 0.60510(11) 0.9480(4)
H123_4 H 0.9357 0.6824 0.9929
C123_4 C 0.8370(3) 0.71796(18) 0.9606(4)
C124_4 C 0.8311(4) 0.7057(3) 0.8878(4)
H126_4 H 0.7922 0.7137 0.8407
H127_4 H 0.8694 0.7110 0.8866
H128_4 H 0.8276 0.6843 0.8881
C125_4 C 0.7870(4) 0.7084(3) 0.9756(6)
H129_4 H 0.7941 0.6877 0.9918
H131_4 H 0.7441 0.7106 0.9269
C126_4 C 0.8220(5) 0.7520(2) 0.9431(6)
H132_4 H 0.7888 0.7549 0.8867
H133_4 H 0.8065 0.7598 0.9759
H134_4 H 0.8617 0.7623 0.9559
H142_4 H 0.9896 0.4605 0.6322
H143_4 H 0.9614 0.5069 0.5721
C62_4 C 0.3497(3) 0.01890(16) 0.1071(4)
H66_4 H 0.3598 0.0308 0.1515
C63_4 C 0.3413(3) 0.03131(13) 0.0397(4)
H67_4 H 0.3460 0.0519 0.0382
C102_4 C 0.1204(7) 0.0184(2) 0.0356(7)
H106_4 H 0.0902 0.0082 0.0458
H107_4 H 0.1645 0.0112 0.0726
H108_4 H 0.1187 0.0395 0.0432
loop_
_geom_bond_atom_site_label_1
_geom_bond_atom_site_label_2
_geom_bond_site_symmetry_1
_geom_bond_site_symmetry_2
O15 C110 1_555 1_555
O16 C110 1_555 1_555
C124 C123 1_555 1_555
H126 C124 1_555 1_555
H127 C124 1_555 1_555
H128 C124 1_555 1_555
C125 C123 1_555 1_555
H129 C125 1_555 1_555
H131 C125 1_555 1_555
C126 C123 1_555 1_555
H132 C126 1_555 1_555
H133 C126 1_555 1_555
H134 C126 1_555 1_555
Co5 O15 1_555 1_555
Co1 O2 1_555 1_555
Co2 O3 1_555 1_555
S1 C1 1_555 1_555
C1 C2 1_555 1_555
C2 C3 1_555 1_555
C3 C4 1_555 1_555
C4 H1 1_555 1_555
C5 C4 1_555 1_555
C6 C1 1_555 1_555
H2 C6 1_555 1_555
S2 C2 1_555 1_555
C7 S2 1_555 1_555
H3 C7 1_555 1_555
H4 C7 1_555 1_555
C8 C7 1_555 1_555
O1 C8 1_555 1_555
O2 C8 1_555 1_555
C9 C5 1_555 1_555
C10 C9 1_555 1_555
H5 C10 1_555 1_555
H6 C10 1_555 1_555
H7 C10 1_555 1_555
C11 C9 1_555 1_555
H8 C11 1_555 1_555
H9 C11 1_555 1_555
H10 C11 1_555 1_555
C12 C9 1_555 1_555
H11 C12 1_555 1_555
H12 C12 1_555 1_555
H13 C12 1_555 1_555
S3 C3 1_555 1_555
C13 S3 1_555 1_555
C14 C13 1_555 1_555
C15 C14 1_555 1_555
C16 C15 1_555 1_555
H14 C16 1_555 1_555
C17 C16 1_555 1_555
C18 C13 1_555 1_555
H15 C18 1_555 1_555
S4 C14 1_555 1_555
C19 S4 1_555 1_555
H16 C19 1_555 1_555
H17 C19 1_555 1_555
C20 C19 1_555 1_555
O3 C20 1_555 1_555
O4 C20 1_555 1_555
C21 C17 1_555 1_555
C22 C21 1_555 1_555
H18 C22 1_555 1_555
H19 C22 1_555 1_555
H20 C22 1_555 1_555
C23 C21 1_555 1_555
H21 C23 1_555 1_555
H22 C23 1_555 1_555
H23 C23 1_555 1_555
C24 C21 1_555 1_555
H24 C24 1_555 1_555
H25 C24 1_555 1_555
H26 C24 1_555 1_555
S5 C25 1_555 1_555
C25 C26 1_555 1_555
C26 C27 1_555 1_555
C27 C28 1_555 1_555
C28 H27 1_555 1_555
C29 C28 1_555 1_555
C30 C25 1_555 1_555
H28 C30 1_555 1_555
S6 C26 1_555 1_555
C31 S6 1_555 1_555
H29 C31 1_555 1_555
H30 C31 1_555 1_555
C32 C31 1_555 1_555
O5 C32 1_555 1_555
O6 C32 1_555 1_555
C33 C29 1_555 1_555
C34 C33 1_555 1_555
H31 C34 1_555 1_555
H32 C34 1_555 1_555
H33 C34 1_555 1_555
C35 C33 1_555 1_555
H34 C35 1_555 1_555
H35 C35 1_555 1_555
H36 C35 1_555 1_555
C36 C33 1_555 1_555
H37 C36 1_555 1_555
H38 C36 1_555 1_555
H39 C36 1_555 1_555
S7 C27 1_555 1_555
C37 S7 1_555 1_555
C38 C37 1_555 1_555
C39 C38 1_555 1_555
C40 C39 1_555 1_555
H40 C40 1_555 1_555
C41 C40 1_555 1_555
C42 C37 1_555 1_555
H41 C42 1_555 1_555
S8 C38 1_555 1_555
C43 S8 1_555 1_555
H42 C43 1_555 1_555
H43 C43 1_555 1_555
C44 C43 1_555 1_555
O7 Co2 1_555 1_555
O8 C44 1_555 1_555
C45 C41 1_555 1_555
C46 C45 1_555 1_555
H44 C46 1_555 1_555
H45 C46 1_555 1_555
H46 C46 1_555 1_555
C47 C45 1_555 1_555
H47 C47 1_555 1_555
H48 C47 1_555 1_555
H49 C47 1_555 1_555
C48 C45 1_555 1_555
H50 C48 1_555 1_555
H51 C48 1_555 1_555
H52 C48 1_555 1_555
S9 C39 1_555 1_555
N1 Co1 1_555 1_555
C49 N1 1_555 1_555
H53 C49 1_555 1_555
C50 C49 1_555 1_555
H54 C50 1_555 1_555
C51 C50 1_555 1_555
H55 C51 1_555 1_555
C52 C51 1_555 1_555
H56 C52 1_555 1_555
C53 N1 1_555 1_555
H57 C53 1_555 1_555
N2 Co1 1_555 1_555
C54 N2 1_555 1_555
H58 C54 1_555 1_555
C55 C54 1_555 1_555
H59 C55 1_555 1_555
C56 C55 1_555 1_555
C57 C56 1_555 1_555
C58 N2 1_555 1_555
H62 C58 1_555 1_555
N3 Co1 1_555 1_555
C59 N3 1_555 1_555
H63 C59 1_555 1_555
N4 Co2 1_555 1_555
C64 N4 1_555 1_555
H68 C64 1_555 1_555
C65 C64 1_555 1_555
H69 C65 1_555 1_555
C66 C65 1_555 1_555
H70 C66 1_555 1_555
C67 C66 1_555 1_555
H71 C67 1_555 1_555
C68 N4 1_555 1_555
H72 C68 1_555 1_555
N5 Co2 1_555 1_555
C69 N5 1_555 1_555
H73 C69 1_555 1_555
C70 C69 1_555 1_555
H74 C70 1_555 1_555
C71 C70 1_555 1_555
H75 C71 1_555 1_555
C72 C71 1_555 1_555
H76 C72 1_555 1_555
C73 N5 1_555 1_555
H77 C73 1_555 1_555
N6 Co2 1_555 1_555
C74 N6 1_555 1_555
H78 C74 1_555 1_555
C75 C74 1_555 1_555
H79 C75 1_555 1_555
C76 C75 1_555 1_555
H80 C76 1_555 1_555
C77 C76 1_555 1_555
H81 C77 1_555 1_555
C78 N6 1_555 1_555
H82 C78 1_555 1_555
O9 Co1 1_555 1_555
O10 Co2 1_555 1_555
S10 C15 1_555 1_555
C79 S10 1_555 1_555
C80 C79 1_555 1_555
C81 C80 1_555 1_555
C82 C81 1_555 1_555
H83 C82 1_555 1_555
C83 C82 1_555 1_555
C84 C79 1_555 1_555
H84 C84 1_555 1_555
S11 C80 1_555 1_555
C85 S11 1_555 1_555
H85 C85 1_555 1_555
H86 C85 1_555 1_555
C86 C85 1_555 1_555
O11 C86 1_555 1_555
O12 C86 1_555 1_555
C87 C83 1_555 1_555
C88 C87 1_555 1_555
H87 C88 1_555 1_555
H88 C88 1_555 1_555
H89 C88 1_555 1_555
C89 C87 1_555 1_555
H90 C89 1_555 1_555
H91 C89 1_555 1_555
H92 C89 1_555 1_555
C90 C87 1_555 1_555
H93 C90 1_555 1_555
H94 C90 1_555 1_555
H95 C90 1_555 1_555
S12 C81 1_555 1_555
C91 S12 1_555 1_555
C92 C91 1_555 1_555
C93 S1 1_555 1_555
C94 C93 1_555 1_555
H96 C94 1_555 1_555
C95 C94 1_555 1_555
C96 C91 1_555 1_555
H97 C96 1_555 1_555
S13 C92 1_555 1_555
C97 S13 1_555 1_555
H99 C97 1_555 1_555
C99 C95 1_555 1_555
C100 C99 1_555 1_555
H100 C100 1_555 1_555
H101 C100 1_555 1_555
H102 C100 1_555 1_555
C101 C99 1_555 1_555
H103 C101 1_555 1_555
H104 C101 1_555 1_555
H105 C101 1_555 1_555
C103 S5 1_555 1_555
C104 C103 1_555 1_555
C105 C104 1_555 1_555
C106 C105 1_555 1_555
H109 C106 1_555 1_555
C107 C106 1_555 1_555
C108 C103 1_555 1_555
H110 C108 1_555 1_555
S14 C104 1_555 1_555
C109 S14 1_555 1_555
H111 C109 1_555 1_555
C111 C107 1_555 1_555
C112 C111 1_555 1_555
H113 C112 1_555 1_555
H114 C112 1_555 1_555
H115 C112 1_555 1_555
C113 C111 1_555 1_555
H116 C113 1_555 1_555
H117 C113 1_555 1_555
H118 C113 1_555 1_555
C114 C111 1_555 1_555
H119 C114 1_555 1_555
H120 C114 1_555 1_555
H121 C114 1_555 1_555
S15 C105 1_555 1_555
C115 S15 1_555 1_555
C116 C115 1_555 1_555
C117 S9 1_555 1_555
C118 C117 1_555 1_555
H122 C118 1_555 1_555
C119 C118 1_555 1_555
C120 C115 1_555 1_555
S16 C116 1_555 1_555
C121 S16 1_555 1_555
H124 C121 1_555 1_555
H125 C121 1_555 1_555
C122 C121 1_555 1_555
O17 C122 1_555 1_555
O18 C122 1_555 1_555
Co3 O12 1_555 1_555
N7 Co3 1_555 1_555
C127 N7 1_555 1_555
H135 C127 1_555 1_555
C128 C127 1_555 1_555
H136 C128 1_555 1_555
C129 C128 1_555 1_555
H137 C129 1_555 1_555
C130 C129 1_555 1_555
H138 C130 1_555 1_555
C131 N7 1_555 1_555
H139 C131 1_555 1_555
N8 Co3 1_555 1_555
C132 N8 1_555 1_555
H140 C132 1_555 1_555
C133 C132 1_555 1_555
H141 C133 1_555 1_555
C134 C133 1_555 1_555
C135 C134 1_555 1_555
C136 N8 1_555 1_555
H144 C136 1_555 1_555
N9 Co3 1_555 1_555
C137 N9 1_555 1_555
H145 C137 1_555 1_555
C138 C137 1_555 1_555
H146 C138 1_555 1_555
C139 C138 1_555 1_555
H147 C139 1_555 1_555
C140 C139 1_555 1_555
H148 C140 1_555 1_555
C141 N9 1_555 1_555
H149 C141 1_555 1_555
C152 N12 1_555 1_555
C153 C152 1_555 1_555
H161 C153 1_555 1_555
C154 C153 1_555 1_555
H162 C154 1_555 1_555
C155 C154 1_555 1_555
H163 C155 1_555 1_555
C156 N12 1_555 1_555
H164 C156 1_555 1_555
O19 Co3 1_555 1_555
Co6 O5 1_555 1_555
Co7 O17 1_555 1_555
O21 Co3 1_555 1_555
O22 Co1 1_555 1_555
C5 C6 1_555 1_555
C17 C18 1_555 1_555
C29 C30 1_555 1_555
C41 C42 1_555 1_555
C44 O7 1_555 1_555
C52 C53 1_555 1_555
C57 C58 1_555 1_555
C67 C68 1_555 1_555
C72 C73 1_555 1_555
C77 C78 1_555 1_555
C83 C84 1_555 1_555
C92 C93 1_555 1_555
C95 C96 1_555 1_555
C107 C108 1_555 1_555
C116 C117 1_555 1_555
C119 C120 1_555 1_555
C130 C131 1_555 1_555
C135 C136 1_555 1_555
C140 C141 1_555 1_555
C155 C156 1_555 1_555
O10 H165 1_555 1_555
O10 H166 1_555 1_555
O9 H167 1_555 1_555
O9 H168 1_555 1_555
O19 H169 1_555 1_555
O19 H170 1_555 1_555
H64 C60 1_555 1_555
C61 C60 1_555 1_555
H65 C61 1_555 1_555
C62 C61 1_555 1_555
H66 C62 1_555 1_555
H67 C63 1_555 1_555
O13 C98 1_555 1_555
O14 C98 1_555 1_555
H106 C102 1_555 1_555
H107 C102 1_555 1_555
H108 C102 1_555 1_555
Co7 O13 1_555 1_555
N10 Co7 1_555 1_555
C142 N10 1_555 1_555
H150 C142 1_555 1_555
C143 C142 1_555 1_555
H151 C143 1_555 1_555
C144 C143 1_555 1_555
H152 C144 1_555 1_555
C145 C144 1_555 1_555
H153 C145 1_555 1_555
C146 N10 1_555 1_555
H154 C146 1_555 1_555
N11 Co7 1_555 1_555
C147 N11 1_555 1_555
H155 C147 1_555 1_555
C148 C147 1_555 1_555
H156 C148 1_555 1_555
C149 C148 1_555 1_555
H157 C149 1_555 1_555
C150 C149 1_555 1_555
H158 C150 1_555 1_555
C151 N11 1_555 1_555
H159 C151 1_555 1_555
O20 Co7 1_555 1_555
C62 C63 1_555 1_555
C145 C146 1_555 1_555
C150 C151 1_555 1_555
O20 H171 1_555 1_555
O20 H172 1_555 1_555
O22 C110_2 1_555 1_555
O16_2 C110_2 1_555 1_555
C124_2 C123_2 1_555 1_555
H126_2 C124_2 1_555 1_555
H127_2 C124_2 1_555 1_555
H128_2 C124_2 1_555 1_555
C125_2 C123_2 1_555 1_555
H129_2 C125_2 1_555 1_555
H131_2 C125_2 1_555 1_555
C126_2 C123_2 1_555 1_555
H132_2 C126_2 1_555 1_555
H133_2 C126_2 1_555 1_555
H134_2 C126_2 1_555 1_555
Co2_2 O3_2 1_555 1_555
C14_2 C13_2 1_555 1_555
C15_2 C14_2 1_555 1_555
C16_2 C15_2 1_555 1_555
H14_2 C16_2 1_555 1_555
C17_2 C16_2 1_555 1_555
C18_2 C13_2 1_555 1_555
H15_2 C18_2 1_555 1_555
S4_2 C14_2 1_555 1_555
C19_2 S4_2 1_555 1_555
H16_2 C19_2 1_555 1_555
H17_2 C19_2 1_555 1_555
C20_2 C19_2 1_555 1_555
O3_2 C20_2 1_555 1_555
O4_2 C20_2 1_555 1_555
S5_2 C25_2 1_555 1_555
C25_2 C26_2 1_555 1_555
C26_2 C27_2 1_555 1_555
C27_2 C28_2 1_555 1_555
C28_2 H27_2 1_555 1_555
C29_2 C28_2 1_555 1_555
C30_2 C25_2 1_555 1_555
H28_2 C30_2 1_555 1_555
C33_2 C29_2 1_555 1_555
C34_2 C33_2 1_555 1_555
H31_2 C34_2 1_555 1_555
H32_2 C34_2 1_555 1_555
H33_2 C34_2 1_555 1_555
C35_2 C33_2 1_555 1_555
H34_2 C35_2 1_555 1_555
H35_2 C35_2 1_555 1_555
H36_2 C35_2 1_555 1_555
C36_2 C33_2 1_555 1_555
H37_2 C36_2 1_555 1_555
H38_2 C36_2 1_555 1_555
H39_2 C36_2 1_555 1_555
S7_2 C27_2 1_555 1_555
C37_2 S7_2 1_555 1_555
C38_2 C37_2 1_555 1_555
S8_2 C38_2 1_555 1_555
C43_2 S8_2 1_555 1_555
H42_2 C43_2 1_555 1_555
H43_2 C43_2 1_555 1_555
C44_2 C43_2 1_555 1_555
O7_2 Co2_2 1_555 1_555
O8_2 C44_2 1_555 1_555
N4_2 Co2_2 1_555 1_555
C64_2 N4_2 1_555 1_555
H68_2 C64_2 1_555 1_555
C65_2 C64_2 1_555 1_555
H69_2 C65_2 1_555 1_555
C66_2 C65_2 1_555 1_555
H70_2 C66_2 1_555 1_555
C67_2 C66_2 1_555 1_555
H71_2 C67_2 1_555 1_555
C68_2 N4_2 1_555 1_555
H72_2 C68_2 1_555 1_555
N5_2 Co2_2 1_555 1_555
C73_2 N5_2 1_555 1_555
H77_2 C73_2 1_555 1_555
N6_2 Co2_2 1_555 1_555
C74_2 N6_2 1_555 1_555
H78_2 C74_2 1_555 1_555
C75_2 C74_2 1_555 1_555
C76_2 C75_2 1_555 1_555
H80_2 C76_2 1_555 1_555
C77_2 C76_2 1_555 1_555
H81_2 C77_2 1_555 1_555
C78_2 N6_2 1_555 1_555
H82_2 C78_2 1_555 1_555
O10_2 Co2_2 1_555 1_555
S10_2 C15_2 1_555 1_555
C79_2 S10_2 1_555 1_555
C80_2 C79_2 1_555 1_555
C81_2 C80_2 1_555 1_555
C82_2 C81_2 1_555 1_555
H83_2 C82_2 1_555 1_555
C83_2 C82_2 1_555 1_555
C84_2 C79_2 1_555 1_555
H84_2 C84_2 1_555 1_555
S11_2 C80_2 1_555 1_555
C85_2 S11_2 1_555 1_555
H85_2 C85_2 1_555 1_555
H86_2 C85_2 1_555 1_555
C86_2 C85_2 1_555 1_555
C87_2 C83_2 1_555 1_555
C88_2 C87_2 1_555 1_555
H87_2 C88_2 1_555 1_555
H88_2 C88_2 1_555 1_555
H89_2 C88_2 1_555 1_555
C89_2 C87_2 1_555 1_555
H90_2 C89_2 1_555 1_555
H91_2 C89_2 1_555 1_555
H92_2 C89_2 1_555 1_555
C90_2 C87_2 1_555 1_555
H93_2 C90_2 1_555 1_555
H94_2 C90_2 1_555 1_555
H95_2 C90_2 1_555 1_555
S12_2 C81_2 1_555 1_555
C109_2 S14_2 1_555 1_555
H111_2 C109_2 1_555 1_555
C117_2 S9_2 1_555 1_555
C118_2 C117_2 1_555 1_555
H122_2 C118_2 1_555 1_555
C119_2 C118_2 1_555 1_555
H140_2 C132_2 1_555 1_555
C133_2 C132_2 1_555 1_555
H141_2 C133_2 1_555 1_555
C134_2 C133_2 1_555 1_555
H142_2 C134_2 1_555 1_555
C135_2 C134_2 1_555 1_555
H145_2 C137_2 1_555 1_555
C138_2 C137_2 1_555 1_555
H146_2 C138_2 1_555 1_555
C139_2 C138_2 1_555 1_555
H147_2 C139_2 1_555 1_555
C17_2 C18_2 1_555 1_555
C29_2 C30_2 1_555 1_555
C44_2 O7_2 1_555 1_555
C67_2 C68_2 1_555 1_555
C77_2 C78_2 1_555 1_555
C83_2 C84_2 1_555 1_555
C119_2 C120_2 1_555 1_555
O10_2 H165_2 1_555 1_555
O10_2 H166_2 1_555 1_555
H155_2 C147_2 1_555 1_555
C148_2 C147_2 1_555 1_555
H156_2 C148_2 1_555 1_555
C149_2 C148_2 1_555 1_555
H157_2 C149_2 1_555 1_555
C150_2 C149_2 1_555 1_555
H158_2 C150_2 1_555 1_555
C22_2 C21_2 1_555 1_555
H18_2 C22_2 1_555 1_555
H19_2 C22_2 1_555 1_555
H20_2 C22_2 1_555 1_555
C23_2 C21_2 1_555 1_555
H21_2 C23_2 1_555 1_555
H22_2 C23_2 1_555 1_555
H23_2 C23_2 1_555 1_555
C24_2 C21_2 1_555 1_555
H24_2 C24_2 1_555 1_555
H25_2 C24_2 1_555 1_555
H26_2 C24_2 1_555 1_555
Co6 O12_2 1_555 1_555
N7_2 Co6 1_555 1_555
C127_2 N7_2 1_555 1_555
H135_2 C127_2 1_555 1_555
C128_2 C127_2 1_555 1_555
H136_2 C128_2 1_555 1_555
C129_2 C128_2 1_555 1_555
H137_2 C129_2 1_555 1_555
C130_2 C129_2 1_555 1_555
H138_2 C130_2 1_555 1_555
C131_2 N7_2 1_555 1_555
H139_2 C131_2 1_555 1_555
N8_2 Co6 1_555 1_555
C136_2 N8_2 1_555 1_555
H144_2 C136_2 1_555 1_555
N9_2 Co6 1_555 1_555
H148_2 C140_2 1_555 1_555
C141_2 N9_2 1_555 1_555
H149_2 C141_2 1_555 1_555
O19_2 Co6 1_555 1_555
C130_2 C131_2 1_555 1_555
C140_2 C141_2 1_555 1_555
O19_2 H169_2 1_555 1_555
O19_2 H170_2 1_555 1_555
S1_2 C1_2 1_555 1_555
C1_2 C2_2 1_555 1_555
C2_2 C3_2 1_555 1_555
C3_2 C4_2 1_555 1_555
C4_2 H1_2 1_555 1_555
C5_2 C4_2 1_555 1_555
C6_2 C1_2 1_555 1_555
H2_2 C6_2 1_555 1_555
S2_2 C2_2 1_555 1_555
C7_2 S2_2 1_555 1_555
H3_2 C7_2 1_555 1_555
H4_2 C7_2 1_555 1_555
C8_2 C7_2 1_555 1_555
C9_2 C5_2 1_555 1_555
C10_2 C9_2 1_555 1_555
H5_2 C10_2 1_555 1_555
H6_2 C10_2 1_555 1_555
H7_2 C10_2 1_555 1_555
C11_2 C9_2 1_555 1_555
H8_2 C11_2 1_555 1_555
H9_2 C11_2 1_555 1_555
H10_2 C11_2 1_555 1_555
C12_2 C9_2 1_555 1_555
H11_2 C12_2 1_555 1_555
H12_2 C12_2 1_555 1_555
H13_2 C12_2 1_555 1_555
S3_2 C3_2 1_555 1_555
C31_2 S6_2 1_555 1_555
H29_2 C31_2 1_555 1_555
H30_2 C31_2 1_555 1_555
C32_2 C31_2 1_555 1_555
O21 C32_2 1_555 1_555
O6_2 C32_2 1_555 1_555
C40_2 C39_2 1_555 1_555
H40_2 C40_2 1_555 1_555
C41_2 C40_2 1_555 1_555
H41_2 C42_2 1_555 1_555
C45_2 C41_2 1_555 1_555
C46_2 C45_2 1_555 1_555
H44_2 C46_2 1_555 1_555
H45_2 C46_2 1_555 1_555
H46_2 C46_2 1_555 1_555
C47_2 C45_2 1_555 1_555
H47_2 C47_2 1_555 1_555
H48_2 C47_2 1_555 1_555
H49_2 C47_2 1_555 1_555
C48_2 C45_2 1_555 1_555
H50_2 C48_2 1_555 1_555
H51_2 C48_2 1_555 1_555
H52_2 C48_2 1_555 1_555
S9_3 C39_2 1_555 1_555
H58_2 C54_2 1_555 1_555
C55_2 C54_2 1_555 1_555
H59_2 C55_2 1_555 1_555
C56_2 C55_2 1_555 1_555
H60 C56_2 1_555 1_555
C57_2 C56_2 1_555 1_555
H63_2 C59_2 1_555 1_555
H73_2 C69_2 1_555 1_555
C70_2 C69_2 1_555 1_555
H74_2 C70_2 1_555 1_555
C71_2 C70_2 1_555 1_555
H75_2 C71_2 1_555 1_555
C72_2 C71_2 1_555 1_555
H76_2 C72_2 1_555 1_555
C92_2 C91_2 1_555 1_555
C93_2 S1_2 1_555 1_555
C94_2 C93_2 1_555 1_555
H96_2 C94_2 1_555 1_555
C95_2 C94_2 1_555 1_555
C96_2 C91_2 1_555 1_555
H97_2 C96_2 1_555 1_555
S13_2 C92_2 1_555 1_555
C97_2 S13_2 1_555 1_555
H99_2 C97_2 1_555 1_555
C103_2 S5_3 1_555 1_555
C104_2 C103_2 1_555 1_555
C105_2 C104_2 1_555 1_555
C106_2 C105_2 1_555 1_555
H109_2 C106_2 1_555 1_555
C107_2 C106_2 1_555 1_555
C108_2 C103_2 1_555 1_555
H110_2 C108_2 1_555 1_555
C111_2 C107_2 1_555 1_555
C112_2 C111_2 1_555 1_555
H113_2 C112_2 1_555 1_555
H114_2 C112_2 1_555 1_555
H115_2 C112_2 1_555 1_555
C113_2 C111_2 1_555 1_555
H116_2 C113_2 1_555 1_555
H117_2 C113_2 1_555 1_555
H118_2 C113_2 1_555 1_555
C114_2 C111_2 1_555 1_555
H119_2 C114_2 1_555 1_555
H120_2 C114_2 1_555 1_555
H121_2 C114_2 1_555 1_555
S15_2 C105_2 1_555 1_555
C115_2 S15_2 1_555 1_555
C116_2 C115_2 1_555 1_555
S16_2 C116_2 1_555 1_555
C121_2 S16_2 1_555 1_555
H124_2 C121_2 1_555 1_555
H125_2 C121_2 1_555 1_555
C122_2 C121_2 1_555 1_555
O17_2 C122_2 1_555 1_555
O18_2 C122_2 1_555 1_555
C152_2 N12_2 1_555 1_555
C153_2 C152_2 1_555 1_555
C154_2 C153_2 1_555 1_555
H162_2 C154_2 1_555 1_555
C155_2 C154_2 1_555 1_555
H163_2 C155_2 1_555 1_555
C156_2 N12_2 1_555 1_555
H164_2 C156_2 1_555 1_555
Co7_2 O17_2 1_555 1_555
C5_2 C6_2 1_555 1_555
C41_2 C42_2 1_555 1_555
C92_2 C93_2 1_555 1_555
C95_2 C96_2 1_555 1_555
C107_2 C108_2 1_555 1_555
C155_2 C156_2 1_555 1_555
H64_2 C60_2 1_555 1_555
C61_2 C60_2 1_555 1_555
H65_2 C61_2 1_555 1_555
O13_2 C98_2 1_555 1_555
O14_2 C98_2 1_555 1_555
Co7_2 O13_2 1_555 1_555
N10_2 Co7_2 1_555 1_555
C142_2 N10_2 1_555 1_555
H150_2 C142_2 1_555 1_555
C143_2 C142_2 1_555 1_555
H151_2 C143_2 1_555 1_555
C144_2 C143_2 1_555 1_555
H152_2 C144_2 1_555 1_555
C145_2 C144_2 1_555 1_555
H153_2 C145_2 1_555 1_555
C146_2 N10_2 1_555 1_555
H154_2 C146_2 1_555 1_555
N11_2 Co7_2 1_555 1_555
C151_2 N11_2 1_555 1_555
H159_2 C151_2 1_555 1_555
O20_2 Co7_2 1_555 1_555
C145_2 C146_2 1_555 1_555
O20_2 H171_2 1_555 1_555
O20_2 H172_2 1_555 1_555
Co5 O2_2 1_555 1_555
N1_2 Co5 1_555 1_555
C49_2 N1_2 1_555 1_555
H53_2 C49_2 1_555 1_555
C50_2 C49_2 1_555 1_555
H54_2 C50_2 1_555 1_555
C51_2 C50_2 1_555 1_555
H55_2 C51_2 1_555 1_555
C52_2 C51_2 1_555 1_555
H56_2 C52_2 1_555 1_555
C53_2 N1_2 1_555 1_555
H57_2 C53_2 1_555 1_555
N2_2 Co5 1_555 1_555
C58_2 N2_2 1_555 1_555
H62_2 C58_2 1_555 1_555
N3_2 Co5 1_555 1_555
O9_2 Co5 1_555 1_555
C100_2 C99_2 1_555 1_555
H100_2 C100_2 1_555 1_555
H101_2 C100_2 1_555 1_555
H102_2 C100_2 1_555 1_555
C101_2 C99_2 1_555 1_555
H103_2 C101_2 1_555 1_555
H104_2 C101_2 1_555 1_555
H105_2 C101_2 1_555 1_555
C52_2 C53_2 1_555 1_555
O9_2 H167_2 1_555 1_555
O9_2 H168_2 1_555 1_555
H66_2 C62_2 1_555 1_555
H67_2 C63_2 1_555 1_555
H106_2 C102_2 1_555 1_555
H107_2 C102_2 1_555 1_555
H108_2 C102_2 1_555 1_555
C62_2 C63_2 1_555 1_555
H64_3 C60_3 1_555 1_555
C61_3 C60_3 1_555 1_555
H65_3 C61_3 1_555 1_555
C62_3 C61_3 1_555 1_555
H66_3 C62_3 1_555 1_555
H67_3 C63_3 1_555 1_555
O13_3 C98_3 1_555 1_555
O14_3 C98_3 1_555 1_555
H106_3 C102_3 1_555 1_555
H107_3 C102_3 1_555 1_555
H108_3 C102_3 1_555 1_555
Co4 O13_3 1_555 1_555
N10_3 Co4 1_555 1_555
C142_3 N10_3 1_555 1_555
H150_3 C142_3 1_555 1_555
C143_3 C142_3 1_555 1_555
H151_3 C143_3 1_555 1_555
C144_3 C143_3 1_555 1_555
H152_3 C144_3 1_555 1_555
C145_3 C144_3 1_555 1_555
H153_3 C145_3 1_555 1_555
C146_3 N10_3 1_555 1_555
H154_3 C146_3 1_555 1_555
N11_3 Co4 1_555 1_555
C147_3 N11_3 1_555 1_555
H155_3 C147_3 1_555 1_555
C148_3 C147_3 1_555 1_555
H156_3 C148_3 1_555 1_555
C149_3 C148_3 1_555 1_555
H157_3 C149_3 1_555 1_555
C150_3 C149_3 1_555 1_555
H158_3 C150_3 1_555 1_555
C151_3 N11_3 1_555 1_555
H159_3 C151_3 1_555 1_555
O20_3 Co4 1_555 1_555
O23 Co4 1_555 1_555
C62_3 C63_3 1_555 1_555
C145_3 C146_3 1_555 1_555
C150_3 C151_3 1_555 1_555
O20_3 H171_3 1_555 1_555
O20_3 H172_3 1_555 1_555
Co1_2 O2_3 1_555 1_555
Co2_3 O3_3 1_555 1_555
S1_3 C1_3 1_555 1_555
C1_3 C2_3 1_555 1_555
C2_3 C3_3 1_555 1_555
C3_3 C4_3 1_555 1_555
C4_3 H1_3 1_555 1_555
C5_3 C4_3 1_555 1_555
C6_3 C1_3 1_555 1_555
H2_3 C6_3 1_555 1_555
S2_3 C2_3 1_555 1_555
C7_3 S2_3 1_555 1_555
H3_3 C7_3 1_555 1_555
H4_3 C7_3 1_555 1_555
C8_3 C7_3 1_555 1_555
O1_3 C8_3 1_555 1_555
O2_3 C8_3 1_555 1_555
C9_3 C5_3 1_555 1_555
C10_3 C9_3 1_555 1_555
H5_3 C10_3 1_555 1_555
H6_3 C10_3 1_555 1_555
H7_3 C10_3 1_555 1_555
C11_3 C9_3 1_555 1_555
H8_3 C11_3 1_555 1_555
H9_3 C11_3 1_555 1_555
H10_3 C11_3 1_555 1_555
C12_3 C9_3 1_555 1_555
H11_3 C12_3 1_555 1_555
H12_3 C12_3 1_555 1_555
H13_3 C12_3 1_555 1_555
S3_3 C3_3 1_555 1_555
C13_3 S3_3 1_555 1_555
C14_3 C13_3 1_555 1_555
C15_3 C14_3 1_555 1_555
C16_3 C15_3 1_555 1_555
H14_3 C16_3 1_555 1_555
C17_3 C16_3 1_555 1_555
C18_3 C13_3 1_555 1_555
H15_3 C18_3 1_555 1_555
S4_3 C14_3 1_555 1_555
C19_3 S4_3 1_555 1_555
H16_3 C19_3 1_555 1_555
H17_3 C19_3 1_555 1_555
C20_3 C19_3 1_555 1_555
O3_3 C20_3 1_555 1_555
O4_3 C20_3 1_555 1_555
C21_3 C17_3 1_555 1_555
C22_3 C21_3 1_555 1_555
H18_3 C22_3 1_555 1_555
H19_3 C22_3 1_555 1_555
H20_3 C22_3 1_555 1_555
C23_3 C21_3 1_555 1_555
H21_3 C23_3 1_555 1_555
H22_3 C23_3 1_555 1_555
H23_3 C23_3 1_555 1_555
C24_3 C21_3 1_555 1_555
H24_3 C24_3 1_555 1_555
H25_3 C24_3 1_555 1_555
H26_3 C24_3 1_555 1_555
S5_4 C25_3 1_555 1_555
C25_3 C26_3 1_555 1_555
C26_3 C27_3 1_555 1_555
C27_3 C28_3 1_555 1_555
C28_3 H27_3 1_555 1_555
C29_3 C28_3 1_555 1_555
C30_3 C25_3 1_555 1_555
H28_3 C30_3 1_555 1_555
S6_3 C26_3 1_555 1_555
C31_3 S6_3 1_555 1_555
H29_3 C31_3 1_555 1_555
H30_3 C31_3 1_555 1_555
C32_3 C31_3 1_555 1_555
O5_2 C32_3 1_555 1_555
O6_3 C32_3 1_555 1_555
C33_3 C29_3 1_555 1_555
C34_3 C33_3 1_555 1_555
H31_3 C34_3 1_555 1_555
H32_3 C34_3 1_555 1_555
H33_3 C34_3 1_555 1_555
C35_3 C33_3 1_555 1_555
H34_3 C35_3 1_555 1_555
H35_3 C35_3 1_555 1_555
H36_3 C35_3 1_555 1_555
C36_3 C33_3 1_555 1_555
H37_3 C36_3 1_555 1_555
H38_3 C36_3 1_555 1_555
H39_3 C36_3 1_555 1_555
S7_3 C27_3 1_555 1_555
C37_3 S7_3 1_555 1_555
C38_3 C37_3 1_555 1_555
C39_3 C38_3 1_555 1_555
C40_3 C39_3 1_555 1_555
H40_3 C40_3 1_555 1_555
C41_3 C40_3 1_555 1_555
C42_3 C37_3 1_555 1_555
H41_3 C42_3 1_555 1_555
S8_3 C38_3 1_555 1_555
C43_3 S8_3 1_555 1_555
H42_3 C43_3 1_555 1_555
H43_3 C43_3 1_555 1_555
C44_3 C43_3 1_555 1_555
O7_3 Co2_3 1_555 1_555
O8_3 C44_3 1_555 1_555
C45_3 C41_3 1_555 1_555
C46_3 C45_3 1_555 1_555
H44_3 C46_3 1_555 1_555
H45_3 C46_3 1_555 1_555
H46_3 C46_3 1_555 1_555
C47_3 C45_3 1_555 1_555
H47_3 C47_3 1_555 1_555
H48_3 C47_3 1_555 1_555
H49_3 C47_3 1_555 1_555
C48_3 C45_3 1_555 1_555
H50_3 C48_3 1_555 1_555
H51_3 C48_3 1_555 1_555
H52_3 C48_3 1_555 1_555
S9_4 C39_3 1_555 1_555
N1_3 Co1_2 1_555 1_555
C49_3 N1_3 1_555 1_555
H53_3 C49_3 1_555 1_555
C50_3 C49_3 1_555 1_555
H54_3 C50_3 1_555 1_555
C51_3 C50_3 1_555 1_555
H55_3 C51_3 1_555 1_555
C52_3 C51_3 1_555 1_555
H56_3 C52_3 1_555 1_555
C53_3 N1_3 1_555 1_555
H57_3 C53_3 1_555 1_555
N2_3 Co1_2 1_555 1_555
C54_3 N2_3 1_555 1_555
H58_3 C54_3 1_555 1_555
C55_3 C54_3 1_555 1_555
H59_3 C55_3 1_555 1_555
C56_3 C55_3 1_555 1_555
C57_3 C56_3 1_555 1_555
C58_3 N2_3 1_555 1_555
H62_3 C58_3 1_555 1_555
N3_3 Co1_2 1_555 1_555
C59_3 N3_3 1_555 1_555
H63_3 C59_3 1_555 1_555
N4_3 Co2_3 1_555 1_555
C64_3 N4_3 1_555 1_555
H68_3 C64_3 1_555 1_555
C65_3 C64_3 1_555 1_555
H69_3 C65_3 1_555 1_555
C66_3 C65_3 1_555 1_555
H70_3 C66_3 1_555 1_555
C67_3 C66_3 1_555 1_555
H71_3 C67_3 1_555 1_555
C68_3 N4_3 1_555 1_555
H72_3 C68_3 1_555 1_555
N5_3 Co2_3 1_555 1_555
C69_3 N5_3 1_555 1_555
H73_3 C69_3 1_555 1_555
C70_3 C69_3 1_555 1_555
H74_3 C70_3 1_555 1_555
C71_3 C70_3 1_555 1_555
H75_3 C71_3 1_555 1_555
C72_3 C71_3 1_555 1_555
H76_3 C72_3 1_555 1_555
C73_3 N5_3 1_555 1_555
H77_3 C73_3 1_555 1_555
N6_3 Co2_3 1_555 1_555
C74_3 N6_3 1_555 1_555
H78_3 C74_3 1_555 1_555
C75_3 C74_3 1_555 1_555
H79_3 C75_3 1_555 1_555
C76_3 C75_3 1_555 1_555
H80_3 C76_3 1_555 1_555
C77_3 C76_3 1_555 1_555
H81_3 C77_3 1_555 1_555
C78_3 N6_3 1_555 1_555
H82_3 C78_3 1_555 1_555
O9_3 Co1_2 1_555 1_555
O10_3 Co2_3 1_555 1_555
S10_3 C15_3 1_555 1_555
C79_3 S10_3 1_555 1_555
C80_3 C79_3 1_555 1_555
C81_3 C80_3 1_555 1_555
C82_3 C81_3 1_555 1_555
H83_3 C82_3 1_555 1_555
C83_3 C82_3 1_555 1_555
C84_3 C79_3 1_555 1_555
H84_3 C84_3 1_555 1_555
S11_3 C80_3 1_555 1_555
C85_3 S11_3 1_555 1_555
H85_3 C85_3 1_555 1_555
H86_3 C85_3 1_555 1_555
C86_3 C85_3 1_555 1_555
O11_3 C86_3 1_555 1_555
O12_3 C86_3 1_555 1_555
C87_3 C83_3 1_555 1_555
C88_3 C87_3 1_555 1_555
H87_3 C88_3 1_555 1_555
H88_3 C88_3 1_555 1_555
H89_3 C88_3 1_555 1_555
C89_3 C87_3 1_555 1_555
H90_3 C89_3 1_555 1_555
H91_3 C89_3 1_555 1_555
H92_3 C89_3 1_555 1_555
C90_3 C87_3 1_555 1_555
H93_3 C90_3 1_555 1_555
H94_3 C90_3 1_555 1_555
H95_3 C90_3 1_555 1_555
S12_3 C81_3 1_555 1_555
C91_3 S12_3 1_555 1_555
C92_3 C91_3 1_555 1_555
C93_3 S1_3 1_555 1_555
C94_3 C93_3 1_555 1_555
H96_3 C94_3 1_555 1_555
C95_3 C94_3 1_555 1_555
C96_3 C91_3 1_555 1_555
H97_3 C96_3 1_555 1_555
S13_3 C92_3 1_555 1_555
C97_3 S13_3 1_555 1_555
H99_3 C97_3 1_555 1_555
C99_3 C95_3 1_555 1_555
C100_3 C99_3 1_555 1_555
H100_3 C100_3 1_555 1_555
H101_3 C100_3 1_555 1_555
H102_3 C100_3 1_555 1_555
C101_3 C99_3 1_555 1_555
H103_3 C101_3 1_555 1_555
H104_3 C101_3 1_555 1_555
H105_3 C101_3 1_555 1_555
C103_3 S5_4 1_555 1_555
C104_3 C103_3 1_555 1_555
C105_3 C104_3 1_555 1_555
C106_3 C105_3 1_555 1_555
H109_3 C106_3 1_555 1_555
C107_3 C106_3 1_555 1_555
C108_3 C103_3 1_555 1_555
H110_3 C108_3 1_555 1_555
S14_3 C104_3 1_555 1_555
C109_3 S14_3 1_555 1_555
H111_3 C109_3 1_555 1_555
C111_3 C107_3 1_555 1_555
C112_3 C111_3 1_555 1_555
H113_3 C112_3 1_555 1_555
H114_3 C112_3 1_555 1_555
H115_3 C112_3 1_555 1_555
C113_3 C111_3 1_555 1_555
H116_3 C113_3 1_555 1_555
H117_3 C113_3 1_555 1_555
H118_3 C113_3 1_555 1_555
C114_3 C111_3 1_555 1_555
H119_3 C114_3 1_555 1_555
H120_3 C114_3 1_555 1_555
H121_3 C114_3 1_555 1_555
S15_3 C105_3 1_555 1_555
C115_3 S15_3 1_555 1_555
C116_3 C115_3 1_555 1_555
C117_3 S9_4 1_555 1_555
C118_3 C117_3 1_555 1_555
H122_3 C118_3 1_555 1_555
C119_3 C118_3 1_555 1_555
C120_3 C115_3 1_555 1_555
S16_3 C116_3 1_555 1_555
C121_3 S16_3 1_555 1_555
H124_3 C121_3 1_555 1_555
H125_3 C121_3 1_555 1_555
C122_3 C121_3 1_555 1_555
O23 C122_3 1_555 1_555
O18_3 C122_3 1_555 1_555
Co3_2 O12_3 1_555 1_555
N7_3 Co3_2 1_555 1_555
C127_3 N7_3 1_555 1_555
H135_3 C127_3 1_555 1_555
C128_3 C127_3 1_555 1_555
H136_3 C128_3 1_555 1_555
C129_3 C128_3 1_555 1_555
H137_3 C129_3 1_555 1_555
C130_3 C129_3 1_555 1_555
H138_3 C130_3 1_555 1_555
C131_3 N7_3 1_555 1_555
H139_3 C131_3 1_555 1_555
N8_3 Co3_2 1_555 1_555
C132_3 N8_3 1_555 1_555
H140_3 C132_3 1_555 1_555
C133_3 C132_3 1_555 1_555
H141_3 C133_3 1_555 1_555
C134_3 C133_3 1_555 1_555
C135_3 C134_3 1_555 1_555
C136_3 N8_3 1_555 1_555
H144_3 C136_3 1_555 1_555
N9_3 Co3_2 1_555 1_555
C137_3 N9_3 1_555 1_555
H145_3 C137_3 1_555 1_555
C138_3 C137_3 1_555 1_555
H146_3 C138_3 1_555 1_555
C139_3 C138_3 1_555 1_555
H147_3 C139_3 1_555 1_555
C140_3 C139_3 1_555 1_555
H148_3 C140_3 1_555 1_555
C141_3 N9_3 1_555 1_555
H149_3 C141_3 1_555 1_555
C152_3 N12_3 1_555 1_555
C153_3 C152_3 1_555 1_555
H161_3 C153_3 1_555 1_555
C154_3 C153_3 1_555 1_555
H162_3 C154_3 1_555 1_555
C155_3 C154_3 1_555 1_555
H163_3 C155_3 1_555 1_555
C156_3 N12_3 1_555 1_555
H164_3 C156_3 1_555 1_555
O19_3 Co3_2 1_555 1_555
Co6_2 O5_2 1_555 1_555
O21_2 Co3_2 1_555 1_555
O22_2 Co1_2 1_555 1_555
C5_3 C6_3 1_555 1_555
C17_3 C18_3 1_555 1_555
C29_3 C30_3 1_555 1_555
C41_3 C42_3 1_555 1_555
C44_3 O7_3 1_555 1_555
C52_3 C53_3 1_555 1_555
C57_3 C58_3 1_555 1_555
C67_3 C68_3 1_555 1_555
C72_3 C73_3 1_555 1_555
C77_3 C78_3 1_555 1_555
C83_3 C84_3 1_555 1_555
C92_3 C93_3 1_555 1_555
C95_3 C96_3 1_555 1_555
C107_3 C108_3 1_555 1_555
C116_3 C117_3 1_555 1_555
C119_3 C120_3 1_555 1_555
C130_3 C131_3 1_555 1_555
C135_3 C136_3 1_555 1_555
C140_3 C141_3 1_555 1_555
C155_3 C156_3 1_555 1_555
O10_3 H165_3 1_555 1_555
O10_3 H166_3 1_555 1_555
O9_3 H167_3 1_555 1_555
O9_3 H168_3 1_555 1_555
O19_3 H169_3 1_555 1_555
O19_3 H170_3 1_555 1_555
O15_2 C110_3 1_555 1_555
O16_3 C110_3 1_555 1_555
C124_3 C123_3 1_555 1_555
H126_3 C124_3 1_555 1_555
H127_3 C124_3 1_555 1_555
H128_3 C124_3 1_555 1_555
C125_3 C123_3 1_555 1_555
H129_3 C125_3 1_555 1_555
H131_3 C125_3 1_555 1_555
C126_3 C123_3 1_555 1_555
H132_3 C126_3 1_555 1_555
H133_3 C126_3 1_555 1_555
H134_3 C126_3 1_555 1_555
Co5_2 O15_2 1_555 1_555
Co5_2 O2_4 1_555 1_555
N1_4 Co5_2 1_555 1_555
C49_4 N1_4 1_555 1_555
H53_4 C49_4 1_555 1_555
C50_4 C49_4 1_555 1_555
H54_4 C50_4 1_555 1_555
C51_4 C50_4 1_555 1_555
H55_4 C51_4 1_555 1_555
C52_4 C51_4 1_555 1_555
H56_4 C52_4 1_555 1_555
C53_4 N1_4 1_555 1_555
H57_4 C53_4 1_555 1_555
N2_4 Co5_2 1_555 1_555
C58_4 N2_4 1_555 1_555
H62_4 C58_4 1_555 1_555
N3_4 Co5_2 1_555 1_555
O9_4 Co5_2 1_555 1_555
C100_4 C99_4 1_555 1_555
H100_4 C100_4 1_555 1_555
H101_4 C100_4 1_555 1_555
H102_4 C100_4 1_555 1_555
C101_4 C99_4 1_555 1_555
H103_4 C101_4 1_555 1_555
H104_4 C101_4 1_555 1_555
H105_4 C101_4 1_555 1_555
C52_4 C53_4 1_555 1_555
O9_4 H167_4 1_555 1_555
O9_4 H168_4 1_555 1_555
H64_4 C60_4 1_555 1_555
C61_4 C60_4 1_555 1_555
H65_4 C61_4 1_555 1_555
O13_4 C98_4 1_555 1_555
O14_4 C98_4 1_555 1_555
Co4_2 O13_4 1_555 1_555
N10_4 Co4_2 1_555 1_555
C142_4 N10_4 1_555 1_555
H150_4 C142_4 1_555 1_555
C143_4 C142_4 1_555 1_555
H151_4 C143_4 1_555 1_555
C144_4 C143_4 1_555 1_555
H152_4 C144_4 1_555 1_555
C145_4 C144_4 1_555 1_555
H153_4 C145_4 1_555 1_555
C146_4 N10_4 1_555 1_555
H154_4 C146_4 1_555 1_555
N11_4 Co4_2 1_555 1_555
C151_4 N11_4 1_555 1_555
H159_4 C151_4 1_555 1_555
O20_4 Co4_2 1_555 1_555
O23_2 Co4_2 1_555 1_555
C145_4 C146_4 1_555 1_555
O20_4 H171_4 1_555 1_555
O20_4 H172_4 1_555 1_555
S1_4 C1_4 1_555 1_555
C1_4 C2_4 1_555 1_555
C2_4 C3_4 1_555 1_555
C3_4 C4_4 1_555 1_555
C4_4 H1_4 1_555 1_555
C5_4 C4_4 1_555 1_555
C6_4 C1_4 1_555 1_555
H2_4 C6_4 1_555 1_555
S2_4 C2_4 1_555 1_555
C7_4 S2_4 1_555 1_555
H3_4 C7_4 1_555 1_555
H4_4 C7_4 1_555 1_555
C8_4 C7_4 1_555 1_555
C9_4 C5_4 1_555 1_555
C10_4 C9_4 1_555 1_555
H5_4 C10_4 1_555 1_555
H6_4 C10_4 1_555 1_555
H7_4 C10_4 1_555 1_555
C11_4 C9_4 1_555 1_555
H8_4 C11_4 1_555 1_555
H9_4 C11_4 1_555 1_555
H10_4 C11_4 1_555 1_555
C12_4 C9_4 1_555 1_555
H11_4 C12_4 1_555 1_555
H12_4 C12_4 1_555 1_555
H13_4 C12_4 1_555 1_555
S3_4 C3_4 1_555 1_555
C31_4 S6_4 1_555 1_555
H29_4 C31_4 1_555 1_555
H30_4 C31_4 1_555 1_555
C32_4 C31_4 1_555 1_555
O21_2 C32_4 1_555 1_555
O6_4 C32_4 1_555 1_555
C40_4 C39_4 1_555 1_555
H40_4 C40_4 1_555 1_555
C41_4 C40_4 1_555 1_555
H41_4 C42_4 1_555 1_555
C45_4 C41_4 1_555 1_555
C46_4 C45_4 1_555 1_555
H44_4 C46_4 1_555 1_555
H45_4 C46_4 1_555 1_555
H46_4 C46_4 1_555 1_555
C47_4 C45_4 1_555 1_555
H47_4 C47_4 1_555 1_555
H48_4 C47_4 1_555 1_555
H49_4 C47_4 1_555 1_555
C48_4 C45_4 1_555 1_555
H50_4 C48_4 1_555 1_555
H51_4 C48_4 1_555 1_555
H52_4 C48_4 1_555 1_555
S9_5 C39_4 1_555 1_555
H58_4 C54_4 1_555 1_555
C55_4 C54_4 1_555 1_555
H59_4 C55_4 1_555 1_555
C56_4 C55_4 1_555 1_555
H60_4 C56_4 1_555 1_555
C57_4 C56_4 1_555 1_555
H63_4 C59_4 1_555 1_555
H73_4 C69_4 1_555 1_555
C70_4 C69_4 1_555 1_555
H74_4 C70_4 1_555 1_555
C71_4 C70_4 1_555 1_555
H75_4 C71_4 1_555 1_555
C72_4 C71_4 1_555 1_555
H76_4 C72_4 1_555 1_555
C92_4 C91_4 1_555 1_555
C93_4 S1_4 1_555 1_555
C94_4 C93_4 1_555 1_555
H96_4 C94_4 1_555 1_555
C95_4 C94_4 1_555 1_555
C96_4 C91_4 1_555 1_555
H97_4 C96_4 1_555 1_555
S13_4 C92_4 1_555 1_555
C97_4 S13_4 1_555 1_555
H99_4 C97_4 1_555 1_555
C103_4 S5_5 1_555 1_555
C104_4 C103_4 1_555 1_555
C105_4 C104_4 1_555 1_555
C106_4 C105_4 1_555 1_555
H109_4 C106_4 1_555 1_555
C107_4 C106_4 1_555 1_555
C108_4 C103_4 1_555 1_555
H110_4 C108_4 1_555 1_555
C111_4 C107_4 1_555 1_555
C112_4 C111_4 1_555 1_555
H113_4 C112_4 1_555 1_555
H114_4 C112_4 1_555 1_555
H115_4 C112_4 1_555 1_555
C113_4 C111_4 1_555 1_555
H116_4 C113_4 1_555 1_555
H117_4 C113_4 1_555 1_555
H118_4 C113_4 1_555 1_555
C114_4 C111_4 1_555 1_555
H119_4 C114_4 1_555 1_555
H120_4 C114_4 1_555 1_555
H121_4 C114_4 1_555 1_555
S15_4 C105_4 1_555 1_555
C115_4 S15_4 1_555 1_555
C116_4 C115_4 1_555 1_555
S16_4 C116_4 1_555 1_555
C121_4 S16_4 1_555 1_555
H124_4 C121_4 1_555 1_555
H125_4 C121_4 1_555 1_555
C122_4 C121_4 1_555 1_555
O23_2 C122_4 1_555 1_555
O18_4 C122_4 1_555 1_555
C152_4 N12_4 1_555 1_555
C153_4 C152_4 1_555 1_555
C154_4 C153_4 1_555 1_555
H162_4 C154_4 1_555 1_555
C155_4 C154_4 1_555 1_555
H163_4 C155_4 1_555 1_555
C156_4 N12_4 1_555 1_555
H164_4 C156_4 1_555 1_555
C5_4 C6_4 1_555 1_555
C41_4 C42_4 1_555 1_555
C92_4 C93_4 1_555 1_555
C95_4 C96_4 1_555 1_555
C107_4 C108_4 1_555 1_555
C155_4 C156_4 1_555 1_555
C22_4 C21_4 1_555 1_555
H18_4 C22_4 1_555 1_555
H19_4 C22_4 1_555 1_555
H20_4 C22_4 1_555 1_555
C23_4 C21_4 1_555 1_555
H21_4 C23_4 1_555 1_555
H22_4 C23_4 1_555 1_555
H23_4 C23_4 1_555 1_555
C24_4 C21_4 1_555 1_555
H24_4 C24_4 1_555 1_555
H25_4 C24_4 1_555 1_555
H26_4 C24_4 1_555 1_555
Co6_2 O12_4 1_555 1_555
N7_4 Co6_2 1_555 1_555
C127_4 N7_4 1_555 1_555
H135_4 C127_4 1_555 1_555
C128_4 C127_4 1_555 1_555
H136_4 C128_4 1_555 1_555
C129_4 C128_4 1_555 1_555
H137_4 C129_4 1_555 1_555
C130_4 C129_4 1_555 1_555
H138_4 C130_4 1_555 1_555
C131_4 N7_4 1_555 1_555
H139_4 C131_4 1_555 1_555
N8_4 Co6_2 1_555 1_555
C136_4 N8_4 1_555 1_555
H144_4 C136_4 1_555 1_555
N9_4 Co6_2 1_555 1_555
H148_4 C140_4 1_555 1_555
C141_4 N9_4 1_555 1_555
H149_4 C141_4 1_555 1_555
O19_4 Co6_2 1_555 1_555
C130_4 C131_4 1_555 1_555
C140_4 C141_4 1_555 1_555
O19_4 H169_4 1_555 1_555
O19_4 H170_4 1_555 1_555
H155_4 C147_4 1_555 1_555
C148_4 C147_4 1_555 1_555
H156_4 C148_4 1_555 1_555
C149_4 C148_4 1_555 1_555
H157_4 C149_4 1_555 1_555
C150_4 C149_4 1_555 1_555
H158_4 C150_4 1_555 1_555
Co2_4 O3_4 1_555 1_555
C14_4 C13_4 1_555 1_555
C15_4 C14_4 1_555 1_555
C16_4 C15_4 1_555 1_555
H14_4 C16_4 1_555 1_555
C17_4 C16_4 1_555 1_555
C18_4 C13_4 1_555 1_555
H15_4 C18_4 1_555 1_555
S4_4 C14_4 1_555 1_555
C19_4 S4_4 1_555 1_555
H16_4 C19_4 1_555 1_555
H17_4 C19_4 1_555 1_555
C20_4 C19_4 1_555 1_555
O3_4 C20_4 1_555 1_555
O4_4 C20_4 1_555 1_555
S5_6 C25_4 1_555 1_555
C25_4 C26_4 1_555 1_555
C26_4 C27_4 1_555 1_555
C27_4 C28_4 1_555 1_555
C28_4 H27_4 1_555 1_555
C29_4 C28_4 1_555 1_555
C30_4 C25_4 1_555 1_555
H28_4 C30_4 1_555 1_555
C33_4 C29_4 1_555 1_555
C34_4 C33_4 1_555 1_555
H31_4 C34_4 1_555 1_555
H32_4 C34_4 1_555 1_555
H33_4 C34_4 1_555 1_555
C35_4 C33_4 1_555 1_555
H34_4 C35_4 1_555 1_555
H35_4 C35_4 1_555 1_555
H36_4 C35_4 1_555 1_555
C36_4 C33_4 1_555 1_555
H37_4 C36_4 1_555 1_555
H38_4 C36_4 1_555 1_555
H39_4 C36_4 1_555 1_555
S7_4 C27_4 1_555 1_555
C37_4 S7_4 1_555 1_555
C38_4 C37_4 1_555 1_555
S8_4 C38_4 1_555 1_555
C43_4 S8_4 1_555 1_555
H42_4 C43_4 1_555 1_555
H43_4 C43_4 1_555 1_555
C44_4 C43_4 1_555 1_555
O7_4 Co2_4 1_555 1_555
O8_4 C44_4 1_555 1_555
N4_4 Co2_4 1_555 1_555
C64_4 N4_4 1_555 1_555
H68_4 C64_4 1_555 1_555
C65_4 C64_4 1_555 1_555
H69_4 C65_4 1_555 1_555
C66_4 C65_4 1_555 1_555
H70_4 C66_4 1_555 1_555
C67_4 C66_4 1_555 1_555
H71_4 C67_4 1_555 1_555
C68_4 N4_4 1_555 1_555
H72_4 C68_4 1_555 1_555
N5_4 Co2_4 1_555 1_555
C73_4 N5_4 1_555 1_555
H77_4 C73_4 1_555 1_555
N6_4 Co2_4 1_555 1_555
C74_4 N6_4 1_555 1_555
H78_4 C74_4 1_555 1_555
C75_4 C74_4 1_555 1_555
C76_4 C75_4 1_555 1_555
H80_4 C76_4 1_555 1_555
C77_4 C76_4 1_555 1_555
H81_4 C77_4 1_555 1_555
C78_4 N6_4 1_555 1_555
H82_4 C78_4 1_555 1_555
O10_4 Co2_4 1_555 1_555
S10_4 C15_4 1_555 1_555
C79_4 S10_4 1_555 1_555
C80_4 C79_4 1_555 1_555
C81_4 C80_4 1_555 1_555
C82_4 C81_4 1_555 1_555
H83_4 C82_4 1_555 1_555
C83_4 C82_4 1_555 1_555
C84_4 C79_4 1_555 1_555
H84_4 C84_4 1_555 1_555
S11_4 C80_4 1_555 1_555
C85_4 S11_4 1_555 1_555
H85_4 C85_4 1_555 1_555
H86_4 C85_4 1_555 1_555
C86_4 C85_4 1_555 1_555
C87_4 C83_4 1_555 1_555
C88_4 C87_4 1_555 1_555
H87_4 C88_4 1_555 1_555
H88_4 C88_4 1_555 1_555
H89_4 C88_4 1_555 1_555
C89_4 C87_4 1_555 1_555
H90_4 C89_4 1_555 1_555
H91_4 C89_4 1_555 1_555
H92_4 C89_4 1_555 1_555
C90_4 C87_4 1_555 1_555
H93_4 C90_4 1_555 1_555
H94_4 C90_4 1_555 1_555
H95_4 C90_4 1_555 1_555
S12_4 C81_4 1_555 1_555
C109_4 S14_4 1_555 1_555
H111_4 C109_4 1_555 1_555
C117_4 S9_6 1_555 1_555
C118_4 C117_4 1_555 1_555
H122_4 C118_4 1_555 1_555
C119_4 C118_4 1_555 1_555
H140_4 C132_4 1_555 1_555
C133_4 C132_4 1_555 1_555
H141_4 C133_4 1_555 1_555
C134_4 C133_4 1_555 1_555
H142_3 C134_4 1_555 1_555
C135_4 C134_4 1_555 1_555
H145_4 C137_4 1_555 1_555
C138_4 C137_4 1_555 1_555
H146_4 C138_4 1_555 1_555
C139_4 C138_4 1_555 1_555
H147_4 C139_4 1_555 1_555
C17_4 C18_4 1_555 1_555
C29_4 C30_4 1_555 1_555
C44_4 O7_4 1_555 1_555
C67_4 C68_4 1_555 1_555
C77_4 C78_4 1_555 1_555
C83_4 C84_4 1_555 1_555
C119_4 C120_4 1_555 1_555
O10_4 H165_4 1_555 1_555
O10_4 H166_4 1_555 1_555
O22_2 C110_4 1_555 1_555
O16_4 C110_4 1_555 1_555
C124_4 C123_4 1_555 1_555
H126_4 C124_4 1_555 1_555
H127_4 C124_4 1_555 1_555
H128_4 C124_4 1_555 1_555
C125_4 C123_4 1_555 1_555
H129_4 C125_4 1_555 1_555
H131_4 C125_4 1_555 1_555
C126_4 C123_4 1_555 1_555
H132_4 C126_4 1_555 1_555
H133_4 C126_4 1_555 1_555
H134_4 C126_4 1_555 1_555
H66_4 C62_4 1_555 1_555
H67_4 C63_4 1_555 1_555
H106_4 C102_4 1_555 1_555
H107_4 C102_4 1_555 1_555
H108_4 C102_4 1_555 1_555
C62_4 C63_4 1_555 1_555

#END
