
###############################################################################
#
# This file contains modified crystal structure data generated from the
# MOF subset of the Cambridge Structural Database (CSD) v543 
# hosted by the Cambridge Crystallographic Data Centre (CCDC).
#
# This work is licensed under the Creative Commons
# Attribution-NonCommercial-ShareAlike 4.0 International License.
# To view a copy of this license, visit
# http://creativecommons.org/licenses/by-nc-sa/4.0/
# or send a letter to
# Creative Commons, PO Box 1866, Mountain View, CA 94042, USA.
#
# CIF created using the CSD Python API on 29 September 2022
# The structure has been converted into the P1 space group
# The structure has a 3D framework
# The original CSD entry HEQCEO is in the monoclinic crystal system
# The framework has been calculated to contain at least 10.0% void space
# The void calculation uses a probe of radius 1.32A, grid spacing 0.4
#
###############################################################################

data_HEQCEO
_chemical_formula_moiety         '(C160 H120 N40 O32 Zn4)n'
_symmetry_cell_setting           triclinic
_symmetry_space_group_name_H-M   'P 1'
_symmetry_Int_Tables_number      1
_space_group_name_Hall           'P 1'
loop_
_symmetry_equiv_pos_site_id
_symmetry_equiv_pos_as_xyz
1 x,y,z
_cell_length_a                   24.53(2)
_cell_length_b                   10.083(9)
_cell_length_c                   18.066(17)
_cell_angle_alpha                90
_cell_angle_beta                 111.876(12)
_cell_angle_gamma                90
_cell_volume                     4146.62
loop_
_atom_site_label
_atom_site_type_symbol
_atom_site_fract_x
_atom_site_fract_y
_atom_site_fract_z
C5 C 0.1284(2) 0.0764(5) 0.7786(3)
C6 C 0.1765(2) 0.0907(5) 0.7554(3)
C7 C 0.1790(2) 0.0121(5) 0.6928(3)
H3 H 0.2119 0.0171 0.6789
C8 C 0.1225(2) 0.1501(5) 0.8468(3)
N5 N 0.2219(2) 0.1803(6) 0.7891(3)
H14 H 0.2217 0.2318 0.8270
H15 H 0.2503 0.1844 0.7722
O3 O 0.15389(16) 0.2497(4) 0.8748(2)
O4 O 0.08698(18) 0.1111(4) 0.8768(2)
Zn2 Zn 0.11860(2) 0.29488(5) 0.95936(3)
C18 C 0.0339(3) 0.5114(7) 0.8747(4)
H11 H 0.0673 0.5644 0.8903
N4 N 0.03935(16) 0.3872(4) 0.8959(2)
C9 C 0.22443(19) 0.4602(5) 0.9945(3)
H4 H 0.2298 0.4017 0.9580
Zn1 Zn 0.11860(2) 0.70512(5) 0.45936(3)
C1 C 0.1373(2) 0.8454(5) 0.5844(3)
C2 C 0.1339(2) 0.9274(5) 0.6516(3)
C3 C 0.0849(2) 0.9188(6) 0.6728(3)
H1 H 0.0537 0.8637 0.6445
C4 C 0.0831(2) 0.9919(6) 0.7353(3)
H2 H 0.0505 0.9847 0.7495
C9_2 C 0.22443(19) 0.5398(5) 0.4945(3)
H4_2 H 0.2298 0.5983 0.4580
C10 C 0.2682(2) 0.4496(5) 0.5322(3)
H5 H 0.3023 0.4480 0.5211
C11 C 0.26134(19) 0.3625(5) 0.5862(3)
C12 C 0.2099(2) 0.3682(6) 0.5998(3)
H6 H 0.2032 0.3098 0.6353
C13 C 0.1686(2) 0.4612(5) 0.5600(3)
H7 H 0.1341 0.4649 0.5702
C14 C 0.3106(2) 0.2732(6) 0.6298(3)
H8 H 0.3443 0.2768 0.6180
C15 C 0.3721(3) 0.0501(9) 0.7605(5)
H9 H 0.3390 0.0132 0.7658
C17 C 0.4799(3) 0.0677(7) 0.8296(5)
H10 H 0.4777 0.1562 0.8141
C18_2 C 0.5339(3) 0.0114(7) 0.8747(4)
H11_2 H 0.5673 0.0644 0.8903
N1 N 0.17515(15) 0.5464(4) 0.5079(2)
N2 N 0.3091(2) 0.1934(5) 0.6814(3)
N3 N 0.3655(3) 0.1351(7) 0.7186(4)
O1 O 0.09413(16) 0.7712(4) 0.5474(2)
O2 O 0.17999(17) 0.8527(4) 0.5639(2)
N6 N 0.03935(16) 0.6128(4) 0.3959(2)
O5 O 0.15389(16) 0.7503(4) 0.3748(2)
O6 O 0.08698(18) 0.8889(4) 0.3768(2)
C5_2 C 0.1284(2) 0.9236(5) 0.2786(3)
C6_2 C 0.1765(2) 0.9093(5) 0.2554(3)
C7_2 C 0.1790(2) 0.9879(5) 0.1928(3)
H3_2 H 0.2119 0.9829 0.1789
C8_2 C 0.1225(2) 0.8499(5) 0.3468(3)
N5_2 N 0.2219(2) 0.8197(6) 0.2891(3)
H14_2 H 0.2217 0.7682 0.3270
H15_2 H 0.2503 0.8156 0.2722
C18_3 C 0.0339(3) 0.4886(7) 0.3747(4)
H11_3 H 0.0673 0.4356 0.3903
C16 C 0.4302(2) 0.9923(7) 0.8081(4)
C19 C 0.4904(2) 0.8150(6) 0.8717(5)
H12 H 0.4935 0.7252 0.8844
C20 C 0.4361(3) 0.8654(7) 0.8293(5)
H13 H 0.4032 0.8108 0.8152
N4_2 N 0.53935(16) 0.8872(4) 0.8959(2)
Zn3 Zn 0.61860(2) 0.79488(5) 0.95936(3)
Zn1_2 Zn 0.61860(2) 0.20512(5) 0.45936(3)
C1_2 C 0.6373(2) 0.3454(5) 0.5844(3)
C2_2 C 0.6339(2) 0.4274(5) 0.6516(3)
C3_2 C 0.5849(2) 0.4188(6) 0.6728(3)
H1_2 H 0.5537 0.3637 0.6445
C4_2 C 0.5831(2) 0.4919(6) 0.7353(3)
H2_2 H 0.5505 0.4847 0.7495
C5_3 C 0.6284(2) 0.5764(5) 0.7786(3)
C6_3 C 0.6765(2) 0.5907(5) 0.7554(3)
C7_3 C 0.6790(2) 0.5121(5) 0.6928(3)
H3_3 H 0.7119 0.5171 0.6789
C8_3 C 0.6225(2) 0.6501(5) 0.8468(3)
C9_3 C 0.72443(19) 0.0398(5) 0.4945(3)
H4_3 H 0.7298 0.0983 0.4580
N1_2 N 0.67515(15) 0.0464(4) 0.5079(2)
N5_3 N 0.7219(2) 0.6803(6) 0.7891(3)
H14_3 H 0.7217 0.7318 0.8270
H15_3 H 0.7503 0.6844 0.7722
O1_2 O 0.59413(16) 0.2712(4) 0.5474(2)
O2_2 O 0.67999(17) 0.3527(4) 0.5639(2)
O3_2 O 0.65389(16) 0.7497(4) 0.8748(2)
O4_2 O 0.58698(18) 0.6111(4) 0.8768(2)
N6_2 N 0.53935(16) 0.1128(4) 0.3959(2)
O5_2 O 0.65389(16) 0.2503(4) 0.3748(2)
O6_2 O 0.58698(18) 0.3889(4) 0.3768(2)
C16_2 C 0.4302(2) 0.0077(7) 0.3081(4)
C19_2 C 0.4904(2) 0.1850(6) 0.3717(5)
H12_2 H 0.4935 0.2748 0.3844
C20_2 C 0.4361(3) 0.1346(7) 0.3293(5)
H13_2 H 0.4032 0.1892 0.3152
C1_3 C 0.6373(2) 0.6546(5) 0.0844(3)
C2_3 C 0.6339(2) 0.5726(5) 0.1516(3)
C3_3 C 0.5849(2) 0.5812(6) 0.1728(3)
H1_3 H 0.5537 0.6363 0.1445
C4_3 C 0.5831(2) 0.5081(6) 0.2353(3)
H2_3 H 0.5505 0.5153 0.2495
C5_4 C 0.6284(2) 0.4236(5) 0.2786(3)
C6_4 C 0.6765(2) 0.4093(5) 0.2554(3)
C7_4 C 0.6790(2) 0.4879(5) 0.1928(3)
H3_4 H 0.7119 0.4829 0.1789
C8_4 C 0.6225(2) 0.3499(5) 0.3468(3)
N1_3 N 0.67515(15) 0.9536(4) 0.0079(2)
N5_4 N 0.7219(2) 0.3197(6) 0.2891(3)
H14_4 H 0.7217 0.2682 0.3270
H15_4 H 0.7503 0.3156 0.2722
O1_3 O 0.59413(16) 0.7288(4) 0.0474(2)
O2_3 O 0.67999(17) 0.6473(4) 0.0639(2)
C9_4 C 0.72443(19) 0.9602(5) 0.9945(3)
H4_4 H 0.7298 0.9017 0.9580
C5_5 C 0.8716(2) 0.0764(5) 0.7214(3)
C6_5 C 0.8235(2) 0.0907(5) 0.7446(3)
C7_5 C 0.8210(2) 0.0121(5) 0.8072(3)
H3_5 H 0.7881 0.0171 0.8211
C8_5 C 0.8775(2) 0.1501(5) 0.6532(3)
N5_5 N 0.7781(2) 0.1803(6) 0.7109(3)
H14_5 H 0.7783 0.2318 0.6730
H15_5 H 0.7497 0.1844 0.7278
O3_3 O 0.84611(16) 0.2497(4) 0.6252(2)
O4_3 O 0.91302(18) 0.1111(4) 0.6232(2)
Zn2_2 Zn 0.88140(2) 0.29488(5) 0.54064(3)
C18_4 C 0.9661(3) 0.5114(7) 0.6253(4)
H11_4 H 0.9327 0.5644 0.6097
N4_3 N 0.96065(16) 0.3872(4) 0.6041(2)
C1_4 C 0.8627(2) 0.1546(5) 0.4156(3)
C2_4 C 0.8661(2) 0.0726(5) 0.3484(3)
C3_4 C 0.9151(2) 0.0812(6) 0.3272(3)
H1_4 H 0.9463 0.1363 0.3555
C4_4 C 0.9169(2) 0.0081(6) 0.2647(3)
H2_4 H 0.9495 0.0153 0.2505
C9_5 C 0.77557(19) 0.4602(5) 0.5055(3)
H4_5 H 0.7702 0.4017 0.5420
C10_2 C 0.7318(2) 0.5504(5) 0.4678(3)
H5_2 H 0.6977 0.5520 0.4789
C11_2 C 0.73866(19) 0.6375(5) 0.4138(3)
C12_2 C 0.7901(2) 0.6318(6) 0.4002(3)
H6_2 H 0.7968 0.6902 0.3647
C13_2 C 0.8314(2) 0.5388(5) 0.4400(3)
H7_2 H 0.8659 0.5351 0.4298
C14_2 C 0.6894(2) 0.7268(6) 0.3702(3)
H8_2 H 0.6557 0.7232 0.3820
C15_2 C 0.6279(3) 0.9499(9) 0.2395(5)
H9_2 H 0.6610 0.9868 0.2342
C17_2 C 0.5201(3) 0.9323(7) 0.1704(5)
H10_2 H 0.5223 0.8438 0.1859
C18_5 C 0.4661(3) 0.9886(7) 0.1253(4)
H11_5 H 0.4327 0.9356 0.1097
N1_4 N 0.82485(15) 0.4536(4) 0.4921(2)
N2_2 N 0.6909(2) 0.8066(5) 0.3186(3)
N3_2 N 0.6345(3) 0.8649(7) 0.2814(4)
O1_4 O 0.90587(16) 0.2288(4) 0.4526(2)
O2_4 O 0.82001(17) 0.1473(4) 0.4361(2)
Zn1_3 Zn 0.88140(2) 0.70512(5) 0.04064(3)
C9_6 C 0.77557(19) 0.5398(5) 0.0055(3)
H4_6 H 0.7702 0.5983 0.0420
N6_3 N 0.96065(16) 0.6128(4) 0.1041(2)
O5_3 O 0.84611(16) 0.7503(4) 0.1252(2)
O6_3 O 0.91302(18) 0.8889(4) 0.1232(2)
C5_6 C 0.8716(2) 0.9236(5) 0.2214(3)
C6_6 C 0.8235(2) 0.9093(5) 0.2446(3)
C7_6 C 0.8210(2) 0.9879(5) 0.3072(3)
H3_6 H 0.7881 0.9829 0.3211
C8_6 C 0.8775(2) 0.8499(5) 0.1532(3)
N5_6 N 0.7781(2) 0.8197(6) 0.2109(3)
H14_6 H 0.7783 0.7682 0.1730
H15_6 H 0.7497 0.8156 0.2278
C18_6 C 0.9661(3) 0.4886(7) 0.1253(4)
H11_6 H 0.9327 0.4356 0.1097
C1_5 C 0.8627(2) 0.8454(5) 0.9156(3)
C2_5 C 0.8661(2) 0.9274(5) 0.8484(3)
C3_5 C 0.9151(2) 0.9188(6) 0.8272(3)
H1_5 H 0.9463 0.8637 0.8555
C4_5 C 0.9169(2) 0.9919(6) 0.7647(3)
H2_5 H 0.9495 0.9847 0.7505
C10_3 C 0.7318(2) 0.4496(5) 0.9678(3)
H5_3 H 0.6977 0.4480 0.9789
C11_3 C 0.73866(19) 0.3625(5) 0.9138(3)
C12_3 C 0.7901(2) 0.3682(6) 0.9002(3)
H6_3 H 0.7968 0.3098 0.8647
C13_3 C 0.8314(2) 0.4612(5) 0.9400(3)
H7_3 H 0.8659 0.4649 0.9298
C14_3 C 0.6894(2) 0.2732(6) 0.8702(3)
H8_3 H 0.6557 0.2768 0.8820
C15_3 C 0.6279(3) 0.0501(9) 0.7395(5)
H9_3 H 0.6610 0.0132 0.7342
C17_3 C 0.5201(3) 0.0677(7) 0.6704(5)
H10_3 H 0.5223 0.1562 0.6859
C18_7 C 0.4661(3) 0.0114(7) 0.6253(4)
H11_7 H 0.4327 0.0644 0.6097
N1_5 N 0.82485(15) 0.5464(4) 0.9921(2)
N2_3 N 0.6909(2) 0.1934(5) 0.8186(3)
N3_3 N 0.6345(3) 0.1351(7) 0.7814(4)
O1_5 O 0.90587(16) 0.7712(4) 0.9526(2)
O2_5 O 0.82001(17) 0.8527(4) 0.9361(2)
C16_3 C 0.5698(2) 0.9923(7) 0.6919(4)
C19_3 C 0.5096(2) 0.8150(6) 0.6283(5)
H12_3 H 0.5065 0.7252 0.6156
C20_3 C 0.5639(3) 0.8654(7) 0.6707(5)
H13_3 H 0.5968 0.8108 0.6848
N4_4 N 0.46065(16) 0.8872(4) 0.6041(2)
Zn3_2 Zn 0.38140(2) 0.79488(5) 0.54064(3)
Zn1_4 Zn 0.38140(2) 0.20512(5) 0.04064(3)
C9_7 C 0.27557(19) 0.0398(5) 0.0055(3)
H4_7 H 0.2702 0.0983 0.0420
N6_4 N 0.46065(16) 0.1128(4) 0.1041(2)
O5_4 O 0.34611(16) 0.2503(4) 0.1252(2)
O6_4 O 0.41302(18) 0.3889(4) 0.1232(2)
C1_6 C 0.3627(2) 0.3454(5) 0.9156(3)
C2_6 C 0.3661(2) 0.4274(5) 0.8484(3)
C3_6 C 0.4151(2) 0.4188(6) 0.8272(3)
H1_6 H 0.4463 0.3637 0.8555
C4_6 C 0.4169(2) 0.4919(6) 0.7647(3)
H2_6 H 0.4495 0.4847 0.7505
C5_7 C 0.3716(2) 0.5764(5) 0.7214(3)
C6_7 C 0.3235(2) 0.5907(5) 0.7446(3)
C7_7 C 0.3210(2) 0.5121(5) 0.8072(3)
H3_7 H 0.2881 0.5171 0.8211
C8_7 C 0.3775(2) 0.6501(5) 0.6532(3)
N1_6 N 0.32485(15) 0.0464(4) 0.9921(2)
N5_7 N 0.2781(2) 0.6803(6) 0.7109(3)
H14_7 H 0.2783 0.7318 0.6730
H15_7 H 0.2497 0.6844 0.7278
O1_6 O 0.40587(16) 0.2712(4) 0.9526(2)
O2_6 O 0.32001(17) 0.3527(4) 0.9361(2)
O3_4 O 0.34611(16) 0.7497(4) 0.6252(2)
O4_4 O 0.41302(18) 0.6111(4) 0.6232(2)
C16_4 C 0.5698(2) 0.0077(7) 0.1919(4)
C19_4 C 0.5096(2) 0.1850(6) 0.1283(5)
H12_4 H 0.5065 0.2748 0.1156
C20_4 C 0.5639(3) 0.1346(7) 0.1707(5)
H13_4 H 0.5968 0.1892 0.1848
C1_7 C 0.3627(2) 0.6546(5) 0.4156(3)
C2_7 C 0.3661(2) 0.5726(5) 0.3484(3)
C3_7 C 0.4151(2) 0.5812(6) 0.3272(3)
H1_7 H 0.4463 0.6363 0.3555
C4_7 C 0.4169(2) 0.5081(6) 0.2647(3)
H2_7 H 0.4495 0.5153 0.2505
C5_8 C 0.3716(2) 0.4236(5) 0.2214(3)
C6_8 C 0.3235(2) 0.4093(5) 0.2446(3)
C7_8 C 0.3210(2) 0.4879(5) 0.3072(3)
H3_8 H 0.2881 0.4829 0.3211
C8_8 C 0.3775(2) 0.3499(5) 0.1532(3)
C9_8 C 0.27557(19) 0.9602(5) 0.5055(3)
H4_8 H 0.2702 0.9017 0.5420
N1_7 N 0.32485(15) 0.9536(4) 0.4921(2)
N5_8 N 0.2781(2) 0.3197(6) 0.2109(3)
H14_8 H 0.2783 0.2682 0.1730
H15_8 H 0.2497 0.3156 0.2278
O1_7 O 0.40587(16) 0.7288(4) 0.4526(2)
O2_7 O 0.32001(17) 0.6473(4) 0.4361(2)
C10_4 C 0.7682(2) 0.9496(5) 0.5322(3)
H5_4 H 0.8023 0.9480 0.5211
C11_4 C 0.76134(19) 0.8625(5) 0.5862(3)
C12_4 C 0.7099(2) 0.8682(6) 0.5998(3)
H6_4 H 0.7032 0.8098 0.6353
C13_4 C 0.6686(2) 0.9612(5) 0.5600(3)
H7_4 H 0.6341 0.9649 0.5702
C14_4 C 0.8106(2) 0.7732(6) 0.6298(3)
H8_4 H 0.8443 0.7768 0.6180
C15_4 C 0.8721(3) 0.5501(9) 0.7605(5)
H9_4 H 0.8390 0.5132 0.7658
C16_5 C 0.9302(2) 0.4923(7) 0.8081(4)
C17_4 C 0.9799(3) 0.5677(7) 0.8296(5)
H10_4 H 0.9777 0.6562 0.8141
C19_5 C 0.9904(2) 0.3150(6) 0.8717(5)
H12_5 H 0.9935 0.2252 0.8844
C20_5 C 0.9361(3) 0.3654(7) 0.8293(5)
H13_5 H 0.9032 0.3108 0.8152
N2_4 N 0.8091(2) 0.6934(5) 0.6814(3)
N3_4 N 0.8655(3) 0.6351(7) 0.7186(4)
C10_5 C 0.2318(2) 0.9496(5) 0.9678(3)
H5_5 H 0.1977 0.9480 0.9789
C11_5 C 0.23866(19) 0.8625(5) 0.9138(3)
C12_5 C 0.2901(2) 0.8682(6) 0.9002(3)
H6_5 H 0.2968 0.8098 0.8647
C13_5 C 0.3314(2) 0.9612(5) 0.9400(3)
H7_5 H 0.3659 0.9649 0.9298
C14_5 C 0.1894(2) 0.7732(6) 0.8702(3)
H8_5 H 0.1557 0.7768 0.8820
C15_5 C 0.1279(3) 0.5501(9) 0.7395(5)
H9_5 H 0.1610 0.5132 0.7342
C16_6 C 0.0698(2) 0.4923(7) 0.6919(4)
C17_5 C 0.0201(3) 0.5677(7) 0.6704(5)
H10_5 H 0.0223 0.6562 0.6859
C19_6 C 0.0096(2) 0.3150(6) 0.6283(5)
H12_6 H 0.0065 0.2252 0.6156
C20_6 C 0.0639(3) 0.3654(7) 0.6707(5)
H13_6 H 0.0968 0.3108 0.6848
N2_5 N 0.1909(2) 0.6934(5) 0.8186(3)
N3_5 N 0.1345(3) 0.6351(7) 0.7814(4)
C1_8 C 0.1373(2) 0.1546(5) 0.0844(3)
C2_8 C 0.1339(2) 0.0726(5) 0.1516(3)
C3_8 C 0.0849(2) 0.0812(6) 0.1728(3)
H1_8 H 0.0537 0.1363 0.1445
C4_8 C 0.0831(2) 0.0081(6) 0.2353(3)
H2_8 H 0.0505 0.0153 0.2495
C10_6 C 0.2682(2) 0.5504(5) 0.0322(3)
H5_6 H 0.3023 0.5520 0.0211
C11_6 C 0.26134(19) 0.6375(5) 0.0862(3)
C12_6 C 0.2099(2) 0.6318(6) 0.0998(3)
H6_6 H 0.2032 0.6902 0.1353
C13_6 C 0.1686(2) 0.5388(5) 0.0600(3)
H7_6 H 0.1341 0.5351 0.0702
C14_6 C 0.3106(2) 0.7268(6) 0.1298(3)
H8_6 H 0.3443 0.7232 0.1180
C15_6 C 0.3721(3) 0.9499(9) 0.2605(5)
H9_6 H 0.3390 0.9868 0.2658
C17_6 C 0.4799(3) 0.9323(7) 0.3296(5)
H10_6 H 0.4777 0.8438 0.3141
C18_8 C 0.5339(3) 0.9886(7) 0.3747(4)
H11_8 H 0.5673 0.9356 0.3903
N1_8 N 0.17515(15) 0.4536(4) 0.0079(2)
N2_6 N 0.3091(2) 0.8066(5) 0.1814(3)
N3_6 N 0.3655(3) 0.8649(7) 0.2186(4)
O1_8 O 0.09413(16) 0.2288(4) 0.0474(2)
O2_8 O 0.17999(17) 0.1473(4) 0.0639(2)
C10_7 C 0.2318(2) 0.0504(5) 0.4678(3)
H5_7 H 0.1977 0.0520 0.4789
C11_7 C 0.23866(19) 0.1375(5) 0.4138(3)
C12_7 C 0.2901(2) 0.1318(6) 0.4002(3)
H6_7 H 0.2968 0.1902 0.3647
C13_7 C 0.3314(2) 0.0388(5) 0.4400(3)
H7_7 H 0.3659 0.0351 0.4298
C14_7 C 0.1894(2) 0.2268(6) 0.3702(3)
H8_7 H 0.1557 0.2232 0.3820
C15_7 C 0.1279(3) 0.4499(9) 0.2395(5)
H9_7 H 0.1610 0.4868 0.2342
C16_7 C 0.0698(2) 0.5077(7) 0.1919(4)
C17_7 C 0.0201(3) 0.4323(7) 0.1704(5)
H10_7 H 0.0223 0.3438 0.1859
C19_7 C 0.0096(2) 0.6850(6) 0.1283(5)
H12_7 H 0.0065 0.7748 0.1156
C20_7 C 0.0639(3) 0.6346(7) 0.1707(5)
H13_7 H 0.0968 0.6892 0.1848
N2_7 N 0.1909(2) 0.3066(5) 0.3186(3)
N3_7 N 0.1345(3) 0.3649(7) 0.2814(4)
C10_8 C 0.7682(2) 0.0504(5) 0.0322(3)
H5_8 H 0.8023 0.0520 0.0211
C11_8 C 0.76134(19) 0.1375(5) 0.0862(3)
C12_8 C 0.7099(2) 0.1318(6) 0.0998(3)
H6_8 H 0.7032 0.1902 0.1353
C13_8 C 0.6686(2) 0.0388(5) 0.0600(3)
H7_8 H 0.6341 0.0351 0.0702
C14_8 C 0.8106(2) 0.2268(6) 0.1298(3)
H8_8 H 0.8443 0.2232 0.1180
C15_8 C 0.8721(3) 0.4499(9) 0.2605(5)
H9_8 H 0.8390 0.4868 0.2658
C16_8 C 0.9302(2) 0.5077(7) 0.3081(4)
C17_8 C 0.9799(3) 0.4323(7) 0.3296(5)
H10_8 H 0.9777 0.3438 0.3141
C19_8 C 0.9904(2) 0.6850(6) 0.3717(5)
H12_8 H 0.9935 0.7748 0.3844
C20_8 C 0.9361(3) 0.6346(7) 0.3293(5)
H13_8 H 0.9032 0.6892 0.3152
N2_8 N 0.8091(2) 0.3066(5) 0.1814(3)
N3_8 N 0.8655(3) 0.3649(7) 0.2186(4)
loop_
_geom_bond_atom_site_label_1
_geom_bond_atom_site_label_2
_geom_bond_site_symmetry_1
_geom_bond_site_symmetry_2
C6 C5 1_555 1_555
H3 C7 1_555 1_555
C8 C5 1_555 1_555
N5 C6 1_555 1_555
H14 N5 1_555 1_555
H15 N5 1_555 1_555
O3 C8 1_555 1_555
O4 C8 1_555 1_555
Zn2 O3 1_555 1_555
C6 C7 1_555 1_555
O4 Zn2 1_555 1_555
H11 C18 1_555 1_555
N4 C18 1_555 1_555
Zn2 N4 1_555 1_555
C9 H4 1_555 1_555
Zn1 N1 1_555 1_555
C1 C2 1_555 1_555
C2 C3 1_555 1_555
C3 H1 1_555 1_555
C4 C3 1_555 1_555
H2 C4 1_555 1_555
C9_2 H4_2 1_555 1_555
C10 C9_2 1_555 1_555
H5 C10 1_555 1_555
C11 C10 1_555 1_555
C12 C11 1_555 1_555
H6 C12 1_555 1_555
C13 C12 1_555 1_555
H7 C13 1_555 1_555
C14 C11 1_555 1_555
H8 C14 1_555 1_555
C15 H9 1_555 1_555
H10 C17 1_555 1_555
C18_2 C17 1_555 1_555
H11_2 C18_2 1_555 1_555
N1 C9_2 1_555 1_555
N2 C14 1_555 1_555
N3 C15 1_555 1_555
O1 Zn1 1_555 1_555
O2 Zn1 1_555 1_555
N6 Zn1 1_555 1_555
O5 Zn1 1_555 1_555
O6 Zn1 1_555 1_555
C1 O1 1_555 1_555
C1 O2 1_555 1_555
C13 N1 1_555 1_555
N2 N3 1_555 1_555
C6_2 C5_2 1_555 1_555
H3_2 C7_2 1_555 1_555
C8_2 C5_2 1_555 1_555
N5_2 C6_2 1_555 1_555
H14_2 N5_2 1_555 1_555
H15_2 N5_2 1_555 1_555
O5 C8_2 1_555 1_555
O6 C8_2 1_555 1_555
C6_2 C7_2 1_555 1_555
H11_3 C18_3 1_555 1_555
N6 C18_3 1_555 1_555
C19 H12 1_555 1_555
C20 C16 1_555 1_555
H13 C20 1_555 1_555
Zn3 N4_2 1_555 1_555
C19 C20 1_555 1_555
C19 N4_2 1_555 1_555
Zn1_2 N1_2 1_555 1_555
C1_2 C2_2 1_555 1_555
C2_2 C3_2 1_555 1_555
C3_2 H1_2 1_555 1_555
C4_2 C3_2 1_555 1_555
H2_2 C4_2 1_555 1_555
C5_3 C4_2 1_555 1_555
C6_3 C5_3 1_555 1_555
C7_3 C2_2 1_555 1_555
H3_3 C7_3 1_555 1_555
C8_3 C5_3 1_555 1_555
C9_3 H4_3 1_555 1_555
N1_2 C9_3 1_555 1_555
N5_3 C6_3 1_555 1_555
H14_3 N5_3 1_555 1_555
H15_3 N5_3 1_555 1_555
O1_2 Zn1_2 1_555 1_555
O2_2 Zn1_2 1_555 1_555
O3_2 C8_3 1_555 1_555
O4_2 C8_3 1_555 1_555
Zn3 O3_2 1_555 1_555
N6_2 Zn1_2 1_555 1_555
O5_2 Zn1_2 1_555 1_555
O6_2 Zn1_2 1_555 1_555
C1_2 O1_2 1_555 1_555
C1_2 O2_2 1_555 1_555
C6_3 C7_3 1_555 1_555
O4_2 Zn3 1_555 1_555
C19_2 H12_2 1_555 1_555
C20_2 C16_2 1_555 1_555
H13_2 C20_2 1_555 1_555
C19_2 C20_2 1_555 1_555
C19_2 N6_2 1_555 1_555
C1_3 C2_3 1_555 1_555
C2_3 C3_3 1_555 1_555
C3_3 H1_3 1_555 1_555
C4_3 C3_3 1_555 1_555
H2_3 C4_3 1_555 1_555
C5_4 C4_3 1_555 1_555
C6_4 C5_4 1_555 1_555
C7_4 C2_3 1_555 1_555
H3_4 C7_4 1_555 1_555
C8_4 C5_4 1_555 1_555
N5_4 C6_4 1_555 1_555
H14_4 N5_4 1_555 1_555
H15_4 N5_4 1_555 1_555
O5_2 C8_4 1_555 1_555
O6_2 C8_4 1_555 1_555
C1_3 O1_3 1_555 1_555
C1_3 O2_3 1_555 1_555
C6_4 C7_4 1_555 1_555
C9_4 H4_4 1_555 1_555
C6_5 C5_5 1_555 1_555
H3_5 C7_5 1_555 1_555
C8_5 C5_5 1_555 1_555
N5_5 C6_5 1_555 1_555
H14_5 N5_5 1_555 1_555
H15_5 N5_5 1_555 1_555
O3_3 C8_5 1_555 1_555
O4_3 C8_5 1_555 1_555
Zn2_2 O3_3 1_555 1_555
C6_5 C7_5 1_555 1_555
O4_3 Zn2_2 1_555 1_555
H11_4 C18_4 1_555 1_555
N4_3 C18_4 1_555 1_555
Zn2_2 N4_3 1_555 1_555
Zn2_2 N1_4 1_555 1_555
C1_4 C2_4 1_555 1_555
C2_4 C3_4 1_555 1_555
C3_4 H1_4 1_555 1_555
C4_4 C3_4 1_555 1_555
H2_4 C4_4 1_555 1_555
C9_5 H4_5 1_555 1_555
C10_2 C9_5 1_555 1_555
H5_2 C10_2 1_555 1_555
C11_2 C10_2 1_555 1_555
C12_2 C11_2 1_555 1_555
H6_2 C12_2 1_555 1_555
C13_2 C12_2 1_555 1_555
H7_2 C13_2 1_555 1_555
C14_2 C11_2 1_555 1_555
H8_2 C14_2 1_555 1_555
C15_2 H9_2 1_555 1_555
H10_2 C17_2 1_555 1_555
C18_5 C17_2 1_555 1_555
H11_5 C18_5 1_555 1_555
N1_4 C9_5 1_555 1_555
N2_2 C14_2 1_555 1_555
N3_2 C15_2 1_555 1_555
O1_4 Zn2_2 1_555 1_555
O2_4 Zn2_2 1_555 1_555
C1_4 O1_4 1_555 1_555
C1_4 O2_4 1_555 1_555
C13_2 N1_4 1_555 1_555
N2_2 N3_2 1_555 1_555
C9_6 H4_6 1_555 1_555
N6_3 Zn1_3 1_555 1_555
O5_3 Zn1_3 1_555 1_555
O6_3 Zn1_3 1_555 1_555
C6_6 C5_6 1_555 1_555
H3_6 C7_6 1_555 1_555
C8_6 C5_6 1_555 1_555
N5_6 C6_6 1_555 1_555
H14_6 N5_6 1_555 1_555
H15_6 N5_6 1_555 1_555
O5_3 C8_6 1_555 1_555
O6_3 C8_6 1_555 1_555
C6_6 C7_6 1_555 1_555
H11_6 C18_6 1_555 1_555
N6_3 C18_6 1_555 1_555
C1_5 C2_5 1_555 1_555
C2_5 C3_5 1_555 1_555
C3_5 H1_5 1_555 1_555
C4_5 C3_5 1_555 1_555
H2_5 C4_5 1_555 1_555
H5_3 C10_3 1_555 1_555
C11_3 C10_3 1_555 1_555
C12_3 C11_3 1_555 1_555
H6_3 C12_3 1_555 1_555
C13_3 C12_3 1_555 1_555
H7_3 C13_3 1_555 1_555
C14_3 C11_3 1_555 1_555
H8_3 C14_3 1_555 1_555
C15_3 H9_3 1_555 1_555
H10_3 C17_3 1_555 1_555
C18_7 C17_3 1_555 1_555
H11_7 C18_7 1_555 1_555
N2_3 C14_3 1_555 1_555
N3_3 C15_3 1_555 1_555
C1_5 O1_5 1_555 1_555
C1_5 O2_5 1_555 1_555
C13_3 N1_5 1_555 1_555
N2_3 N3_3 1_555 1_555
C19_3 H12_3 1_555 1_555
C20_3 C16_3 1_555 1_555
H13_3 C20_3 1_555 1_555
Zn3_2 N4_4 1_555 1_555
C19_3 C20_3 1_555 1_555
C19_3 N4_4 1_555 1_555
C9_7 H4_7 1_555 1_555
N6_4 Zn1_4 1_555 1_555
O5_4 Zn1_4 1_555 1_555
O6_4 Zn1_4 1_555 1_555
C1_6 C2_6 1_555 1_555
C2_6 C3_6 1_555 1_555
C3_6 H1_6 1_555 1_555
C4_6 C3_6 1_555 1_555
H2_6 C4_6 1_555 1_555
C5_7 C4_6 1_555 1_555
C6_7 C5_7 1_555 1_555
C7_7 C2_6 1_555 1_555
H3_7 C7_7 1_555 1_555
C8_7 C5_7 1_555 1_555
N5_7 C6_7 1_555 1_555
H14_7 N5_7 1_555 1_555
H15_7 N5_7 1_555 1_555
O3_4 C8_7 1_555 1_555
O4_4 C8_7 1_555 1_555
Zn3_2 O3_4 1_555 1_555
C1_6 O1_6 1_555 1_555
C1_6 O2_6 1_555 1_555
C6_7 C7_7 1_555 1_555
O4_4 Zn3_2 1_555 1_555
C19_4 H12_4 1_555 1_555
C20_4 C16_4 1_555 1_555
H13_4 C20_4 1_555 1_555
C19_4 C20_4 1_555 1_555
C19_4 N6_4 1_555 1_555
Zn3_2 N1_7 1_555 1_555
C1_7 C2_7 1_555 1_555
C2_7 C3_7 1_555 1_555
C3_7 H1_7 1_555 1_555
C4_7 C3_7 1_555 1_555
H2_7 C4_7 1_555 1_555
C5_8 C4_7 1_555 1_555
C6_8 C5_8 1_555 1_555
C7_8 C2_7 1_555 1_555
H3_8 C7_8 1_555 1_555
C8_8 C5_8 1_555 1_555
C9_8 H4_8 1_555 1_555
N1_7 C9_8 1_555 1_555
N5_8 C6_8 1_555 1_555
H14_8 N5_8 1_555 1_555
H15_8 N5_8 1_555 1_555
O1_7 Zn3_2 1_555 1_555
O2_7 Zn3_2 1_555 1_555
O5_4 C8_8 1_555 1_555
O6_4 C8_8 1_555 1_555
C1_7 O1_7 1_555 1_555
C1_7 O2_7 1_555 1_555
C6_8 C7_8 1_555 1_555
H5_4 C10_4 1_555 1_555
C11_4 C10_4 1_555 1_555
C12_4 C11_4 1_555 1_555
H6_4 C12_4 1_555 1_555
C13_4 C12_4 1_555 1_555
H7_4 C13_4 1_555 1_555
C14_4 C11_4 1_555 1_555
H8_4 C14_4 1_555 1_555
C15_4 H9_4 1_555 1_555
C16_5 C15_4 1_555 1_555
C17_4 C16_5 1_555 1_555
H10_4 C17_4 1_555 1_555
C19_5 H12_5 1_555 1_555
C20_5 C16_5 1_555 1_555
H13_5 C20_5 1_555 1_555
N2_4 C14_4 1_555 1_555
N3_4 C15_4 1_555 1_555
C19_5 C20_5 1_555 1_555
N2_4 N3_4 1_555 1_555
H5_5 C10_5 1_555 1_555
C11_5 C10_5 1_555 1_555
C12_5 C11_5 1_555 1_555
H6_5 C12_5 1_555 1_555
C13_5 C12_5 1_555 1_555
H7_5 C13_5 1_555 1_555
C14_5 C11_5 1_555 1_555
H8_5 C14_5 1_555 1_555
C15_5 H9_5 1_555 1_555
C16_6 C15_5 1_555 1_555
C17_5 C16_6 1_555 1_555
H10_5 C17_5 1_555 1_555
C19_6 H12_6 1_555 1_555
C20_6 C16_6 1_555 1_555
H13_6 C20_6 1_555 1_555
N2_5 C14_5 1_555 1_555
N3_5 C15_5 1_555 1_555
C19_6 C20_6 1_555 1_555
N2_5 N3_5 1_555 1_555
C1_8 C2_8 1_555 1_555
C2_8 C3_8 1_555 1_555
C3_8 H1_8 1_555 1_555
C4_8 C3_8 1_555 1_555
H2_8 C4_8 1_555 1_555
H5_6 C10_6 1_555 1_555
C11_6 C10_6 1_555 1_555
C12_6 C11_6 1_555 1_555
H6_6 C12_6 1_555 1_555
C13_6 C12_6 1_555 1_555
H7_6 C13_6 1_555 1_555
C14_6 C11_6 1_555 1_555
H8_6 C14_6 1_555 1_555
C15_6 H9_6 1_555 1_555
H10_6 C17_6 1_555 1_555
C18_8 C17_6 1_555 1_555
H11_8 C18_8 1_555 1_555
N2_6 C14_6 1_555 1_555
N3_6 C15_6 1_555 1_555
C1_8 O1_8 1_555 1_555
C1_8 O2_8 1_555 1_555
C13_6 N1_8 1_555 1_555
N2_6 N3_6 1_555 1_555
H5_7 C10_7 1_555 1_555
C11_7 C10_7 1_555 1_555
C12_7 C11_7 1_555 1_555
H6_7 C12_7 1_555 1_555
C13_7 C12_7 1_555 1_555
H7_7 C13_7 1_555 1_555
C14_7 C11_7 1_555 1_555
H8_7 C14_7 1_555 1_555
C15_7 H9_7 1_555 1_555
C16_7 C15_7 1_555 1_555
C17_7 C16_7 1_555 1_555
H10_7 C17_7 1_555 1_555
C19_7 H12_7 1_555 1_555
C20_7 C16_7 1_555 1_555
H13_7 C20_7 1_555 1_555
N2_7 C14_7 1_555 1_555
N3_7 C15_7 1_555 1_555
C19_7 C20_7 1_555 1_555
N2_7 N3_7 1_555 1_555
H5_8 C10_8 1_555 1_555
C11_8 C10_8 1_555 1_555
C12_8 C11_8 1_555 1_555
H6_8 C12_8 1_555 1_555
C13_8 C12_8 1_555 1_555
H7_8 C13_8 1_555 1_555
C14_8 C11_8 1_555 1_555
H8_8 C14_8 1_555 1_555
C15_8 H9_8 1_555 1_555
C16_8 C15_8 1_555 1_555
C17_8 C16_8 1_555 1_555
H10_8 C17_8 1_555 1_555
C19_8 H12_8 1_555 1_555
C20_8 C16_8 1_555 1_555
H13_8 C20_8 1_555 1_555
N2_8 C14_8 1_555 1_555
N3_8 C15_8 1_555 1_555
C19_8 C20_8 1_555 1_555
N2_8 N3_8 1_555 1_555

#END
