
###############################################################################
#
# This file contains modified crystal structure data generated from the
# MOF subset of the Cambridge Structural Database (CSD) v543 
# hosted by the Cambridge Crystallographic Data Centre (CCDC).
#
# This work is licensed under the Creative Commons
# Attribution-NonCommercial-ShareAlike 4.0 International License.
# To view a copy of this license, visit
# http://creativecommons.org/licenses/by-nc-sa/4.0/
# or send a letter to
# Creative Commons, PO Box 1866, Mountain View, CA 94042, USA.
#
# CIF created using the CSD Python API on 29 September 2022
# The structure has been converted into the P1 space group
# The structure has a 3D framework
# The original CSD entry HERHUK02 is in the hexagonal crystal system
# The framework has been calculated to contain at least 10.0% void space
# The void calculation uses a probe of radius 1.32A, grid spacing 0.4
# H atom positions have been added when not included in the experimental data
# Generated hydrogen atom positions removed from atoms on special positions
#
###############################################################################

data_HERHUK02
_chemical_formula_moiety         '(C240 H336 O114 Zr32)n'
_symmetry_cell_setting           triclinic
_symmetry_space_group_name_H-M   'P 1'
_symmetry_Int_Tables_number      1
_space_group_name_Hall           'P 1'
loop_
_symmetry_equiv_pos_site_id
_symmetry_equiv_pos_as_xyz
1 x,y,z
_cell_length_a                   40.962(17)
_cell_length_b                   40.962
_cell_length_c                   15.438(6)
_cell_angle_alpha                90
_cell_angle_beta                 90
_cell_angle_gamma                120
_cell_volume                     22432.8
loop_
_atom_site_label
_atom_site_type_symbol
_atom_site_fract_x
_atom_site_fract_y
_atom_site_fract_z
Zr4 Zr 0.53489(2) 0.06979(2) 0.0000
Zr7 Zr 0.53490(3) 0.46511(2) 0.0000
Zr2 Zr 0.45651(2) -0.0000 0.11398(3)
O1 O 0.51632(5) 0.03265(10) 0.1164(3)
O2 O 0.40220(9) 0.0000 0.0669(3)
O3 O 0.51750(7) 0.10120(5) 0.08912(15)
O4 O 0.46569(7) 0.05661(6) 0.15863(16)
O5 O 0.47535(10) 0.03436(10) 0.0000
O6 O 0.45913(11) 0.0000 0.2567(3)
C1 C 0.4766(2) 0.23829(10) 0.4514(3)
C2 C 0.47640(15) 0.20946(12) 0.4053(2)
H1 H 0.4756 0.1894 0.4354
C3 C 0.48724(12) 0.12105(10) 0.1856(2)
C4 C 0.45910(13) 0.11266(11) 0.2439(3)
H2 H 0.4423 0.0875 0.2568
O7 O 0.47859(17) 0.23929(8) 0.1778(2)
C5 C 0.48981(12) 0.09052(10) 0.1407(2)
C6 C 0.47743(15) 0.20920(11) 0.3134(3)
C7 C 0.45462(14) 0.14065(12) 0.2850(3)
H3 H 0.4349 0.1344 0.3235
C8 C 0.4775(2) 0.23875(10) 0.2659(5)
C9 C 0.48092(15) 0.17839(11) 0.2664(3)
C10 C 0.50891(15) 0.18670(12) 0.2066(3)
H4 H 0.5259 0.2116 0.1920
C11 C 0.51146(14) 0.15792(11) 0.1688(3)
H5 H 0.5309 0.1640 0.1295
O8 O 0.51750(7) 0.41630(9) 0.91088(15)
O9 O 0.46569(7) 0.40908(9) 0.84137(16)
C12 C 0.4766(2) 0.23831(22) 0.5486(3)
C13 C 0.47640(15) 0.26694(19) 0.5947(2)
H6 H 0.4756 0.2862 0.5646
C14 C 0.48724(12) 0.36619(16) 0.8144(2)
C15 C 0.45910(13) 0.34644(17) 0.7561(3)
H7 H 0.4423 0.3548 0.7432
O10 O 0.47859(17) 0.23930(19) 0.8222(2)
C16 C 0.48981(12) 0.39929(16) 0.8593(2)
C17 C 0.47743(15) 0.26823(19) 0.6866(3)
C18 C 0.45462(14) 0.31397(18) 0.7150(3)
H8 H 0.4349 0.3005 0.6765
C19 C 0.4775(2) 0.23875(22) 0.7341(5)
C20 C 0.48092(15) 0.30253(19) 0.7336(3)
C21 C 0.50891(15) 0.32221(19) 0.7934(3)
H9 H 0.5259 0.3143 0.8080
C22 C 0.51146(14) 0.35354(18) 0.8312(3)
H10 H 0.5309 0.3669 0.8705
O11 O 0.51750(7) 0.10120(5) 0.91088(15)
O12 O 0.46569(7) 0.05661(6) 0.84137(16)
C23 C 0.47640(15) 0.20946(12) 0.5947(2)
H11 H 0.4756 0.1894 0.5646
C24 C 0.48724(12) 0.12105(10) 0.8144(2)
C25 C 0.45910(13) 0.11266(11) 0.7561(3)
H12 H 0.4423 0.0875 0.7432
C26 C 0.48981(12) 0.09052(10) 0.8593(2)
C27 C 0.47743(15) 0.20920(11) 0.6866(3)
C28 C 0.45462(14) 0.14065(12) 0.7150(3)
H13 H 0.4349 0.1344 0.6765
C29 C 0.48092(15) 0.17839(11) 0.7336(3)
C30 C 0.50891(15) 0.18670(12) 0.7934(3)
H14 H 0.5259 0.2116 0.8080
C31 C 0.51146(14) 0.15792(11) 0.8312(3)
H15 H 0.5309 0.1640 0.8705
O13 O 0.51750(7) 0.41630(9) 0.08912(15)
O14 O 0.46569(7) 0.40908(9) 0.15863(16)
C32 C 0.47640(15) 0.26694(19) 0.4053(2)
H16 H 0.4756 0.2862 0.4354
C33 C 0.48724(12) 0.36619(16) 0.1856(2)
C34 C 0.45910(13) 0.34644(17) 0.2439(3)
H17 H 0.4423 0.3548 0.2568
C35 C 0.48981(12) 0.39929(16) 0.1407(2)
C36 C 0.47743(15) 0.26823(19) 0.3134(3)
C37 C 0.45462(14) 0.31397(18) 0.2850(3)
H18 H 0.4349 0.3005 0.3235
C38 C 0.48092(15) 0.30253(19) 0.2664(3)
C39 C 0.50891(15) 0.32221(19) 0.2066(3)
H19 H 0.5259 0.3143 0.1920
C40 C 0.51146(14) 0.35354(18) 0.1688(3)
H20 H 0.5309 0.3669 0.1295
Zr3 Zr 0.45651(2) 0.45651(2) 0.11398(3)
O15 O 0.40220(9) 0.40220(9) 0.0669(3)
O16 O 0.44099(14) 0.47535(10) 0.0000
O17 O 0.45913(11) 0.45913(11) 0.2567(3)
Zr4_2 Zr 0.53489(2) 0.06979(2) 1.0000
Zr5 Zr 0.46510(3) 0.53489(2) 0.0000
Zr7_2 Zr 0.53490(3) 0.46511(2) 1.0000
Zr8 Zr 0.54349(2) -0.0000 0.11398(3)
Zr10 Zr 0.45651(2) -0.0000 0.88602(3)
Zr13 Zr 0.45651(2) 0.45651(2) 0.88602(3)
O19 O 0.48367(11) 0.51632(5) 0.1164(3)
O21 O 0.51633(11) 0.48368(5) 0.1164(3)
O24 O 0.58370(9) 0.10120(5) 0.08912(15)
O25 O 0.40908(9) 0.46569(7) 0.15863(16)
O28 O 0.55901(14) 0.03436(10) 0.0000
O29 O 0.47535(10) 0.44099(14) 0.0000
H21 H 0.456212 0.239839 0.845106
H28 H 0.456212 0.216373 0.154894
O5_2 O 0.47535(10) 0.03436(10) 1.0000
O16_2 O 0.44099(14) 0.47535(10) 1.0000
O18 O 0.51633(11) 0.03265(10) 0.8836(3)
Zr5_2 Zr 0.46510(3) 0.53489(2) 1.0000
Zr11 Zr 0.54349(2) -0.0000 0.88602(3)
O22 O 0.58370(9) 0.10120(5) 0.91088(15)
O28_2 O 0.55901(14) 0.03436(10) 1.0000
O29_2 O 0.47535(10) 0.44099(14) 1.0000
Zr2_2 Zr 0.45651(2) 1.0000 0.11398(3)
O2_2 O 0.40220(9) 1.0000 0.0669(3)
O6_2 O 0.45913(11) 1.0000 0.2567(3)
Zr8_2 Zr 0.54349(2) 1.0000 0.11398(3)
Zr10_2 Zr 0.45651(2) 1.0000 0.88602(3)
O20 O 0.48368(5) 0.96735(10) 0.1164(3)
O26 O 0.40908(9) 0.94339(6) 0.15863(16)
O27 O 0.44099(14) 0.96564(10) 0.0000
Zr11_2 Zr 0.54349(2) 1.0000 0.88602(3)
O27_2 O 0.44099(14) 0.96564(10) 1.0000
Zr7_3 Zr 0.06979(4) 0.53490(3) 0.0000
O3_2 O 0.41630(9) 0.51750(7) 0.08912(15)
C1_2 C 0.23831(22) 0.4766(2) 0.4514(3)
C2_2 C 0.26694(19) 0.47640(15) 0.4053(2)
H1_2 H 0.2862 0.4756 0.4354
C3_2 C 0.36619(16) 0.48724(12) 0.1856(2)
C4_2 C 0.34644(17) 0.45910(13) 0.2439(3)
H2_2 H 0.3548 0.4423 0.2568
O7_2 O 0.23930(19) 0.47859(17) 0.1778(2)
C5_2 C 0.39929(16) 0.48981(12) 0.1407(2)
C6_2 C 0.26823(19) 0.47743(15) 0.3134(3)
C7_2 C 0.31397(18) 0.45462(14) 0.2850(3)
H3_2 H 0.3005 0.4349 0.3235
C8_2 C 0.23875(22) 0.4775(2) 0.2659(5)
C9_2 C 0.30253(19) 0.48092(15) 0.2664(3)
C10_2 C 0.32221(19) 0.50891(15) 0.2066(3)
H4_2 H 0.3143 0.5259 0.1920
C11_2 C 0.35354(18) 0.51146(14) 0.1688(3)
H5_2 H 0.3669 0.5309 0.1295
O8_2 O 0.10120(11) 0.51750(7) 0.91088(15)
O9_2 O 0.05661(11) 0.46569(7) 0.84137(16)
C12_2 C 0.23829(30) 0.4766(2) 0.5486(3)
C13_2 C 0.20946(24) 0.47640(15) 0.5947(2)
H6_2 H 0.1894 0.4756 0.5646
C14_2 C 0.12105(20) 0.48724(12) 0.8144(2)
C15_2 C 0.11266(21) 0.45910(13) 0.7561(3)
H7_2 H 0.0875 0.4423 0.7432
O10_2 O 0.23929(25) 0.47859(17) 0.8222(2)
C16_2 C 0.09052(20) 0.48981(12) 0.8593(2)
C17_2 C 0.20920(24) 0.47743(15) 0.6866(3)
C18_2 C 0.14065(23) 0.45462(14) 0.7150(3)
H8_2 H 0.1344 0.4349 0.6765
C19_2 C 0.23875(30) 0.4775(2) 0.7341(5)
C20_2 C 0.17839(24) 0.48092(15) 0.7336(3)
C21_2 C 0.18670(24) 0.50891(15) 0.7934(3)
H9_2 H 0.2116 0.5259 0.8080
C22_2 C 0.15792(23) 0.51146(14) 0.8312(3)
H10_2 H 0.1640 0.5309 0.8705
O11_2 O 0.41630(9) 0.51750(7) 0.91088(15)
O12_2 O 0.40908(9) 0.46569(7) 0.84137(16)
C23_2 C 0.26694(19) 0.47640(15) 0.5947(2)
H11_2 H 0.2862 0.4756 0.5646
C24_2 C 0.36619(16) 0.48724(12) 0.8144(2)
C25_2 C 0.34644(17) 0.45910(13) 0.7561(3)
H12_2 H 0.3548 0.4423 0.7432
C26_2 C 0.39929(16) 0.48981(12) 0.8593(2)
C27_2 C 0.26823(19) 0.47743(15) 0.6866(3)
C28_2 C 0.31397(18) 0.45462(14) 0.7150(3)
H13_2 H 0.3005 0.4349 0.6765
C29_2 C 0.30253(19) 0.48092(15) 0.7336(3)
C30_2 C 0.32221(19) 0.50891(15) 0.7934(3)
H14_2 H 0.3143 0.5259 0.8080
C31_2 C 0.35354(18) 0.51146(14) 0.8312(3)
H15_2 H 0.3669 0.5309 0.8705
O13_2 O 0.10120(11) 0.51750(7) 0.08912(15)
O14_2 O 0.05661(11) 0.46569(7) 0.15863(16)
C32_2 C 0.20946(24) 0.47640(15) 0.4053(2)
H16_2 H 0.1894 0.4756 0.4354
C33_2 C 0.12105(20) 0.48724(12) 0.1856(2)
C34_2 C 0.11266(21) 0.45910(13) 0.2439(3)
H17_2 H 0.0875 0.4423 0.2568
C35_2 C 0.09052(20) 0.48981(12) 0.1407(2)
C36_2 C 0.20920(24) 0.47743(15) 0.3134(3)
C37_2 C 0.14065(23) 0.45462(14) 0.2850(3)
H18_2 H 0.1344 0.4349 0.3235
C38_2 C 0.17839(24) 0.48092(15) 0.2664(3)
C39_2 C 0.18670(24) 0.50891(15) 0.2066(3)
H19_2 H 0.2116 0.5259 0.1920
C40_2 C 0.15792(23) 0.51146(14) 0.1688(3)
H20_2 H 0.1640 0.5309 0.1295
Zr3_2 Zr -0.00000(3) 0.45651(2) 0.11398(3)
O15_2 O -0.00000(13) 0.40220(9) 0.0669(3)
O17_2 O -0.00000(16) 0.45913(11) 0.2567(3)
Zr7_4 Zr 0.06979(4) 0.53490(3) 1.0000
Zr8_3 Zr 0.54349(2) 0.54349(2) 0.11398(3)
Zr13_2 Zr -0.00000(3) 0.45651(2) 0.88602(3)
O21_2 O 0.03265(12) 0.51633(11) 0.1164(3)
O24_2 O 0.48250(10) 0.58370(9) 0.08912(15)
O28_3 O 0.52465(17) 0.55901(14) 0.0000
O29_3 O 0.03436(17) 0.47535(10) 0.0000
H21_2 H 0.216373 0.456212 0.845106
H28_2 H 0.239839 0.456212 0.154894
O18_2 O 0.48368(15) 0.51633(11) 0.8836(3)
Zr11_3 Zr 0.54349(2) 0.54349(2) 0.88602(3)
O22_2 O 0.48250(10) 0.58370(9) 0.91088(15)
O28_4 O 0.52465(17) 0.55901(14) 1.0000
O29_4 O 0.03436(17) 0.47535(10) 1.0000
Zr3_3 Zr 1.00000(3) 0.45651(2) 0.11398(3)
O15_3 O 1.00000(13) 0.40220(9) 0.0669(3)
O16_3 O 0.96564(17) 0.44099(14) 0.0000
O17_3 O 1.00000(16) 0.45913(11) 0.2567(3)
Zr5_3 Zr 0.93021(4) 0.46510(3) 0.0000
Zr13_3 Zr 1.00000(3) 0.45651(2) 0.88602(3)
O19_2 O 0.96735(12) 0.48367(11) 0.1164(3)
O25_2 O 0.94339(11) 0.40908(9) 0.15863(16)
O16_4 O 0.96564(17) 0.44099(14) 1.0000
Zr5_4 Zr 0.93021(4) 0.46510(3) 1.0000
Zr8_4 Zr -0.0000 0.54349(2) 0.11398(3)
Zr11_4 Zr -0.0000 0.54349(2) 0.88602(3)
O3_3 O 0.89880(5) 0.41630(9) 0.08912(15)
C1_3 C 0.76171(10) 0.23831(22) 0.4514(3)
C2_3 C 0.79054(12) 0.26694(19) 0.4053(2)
H1_3 H 0.8106 0.2862 0.4354
C3_3 C 0.87895(10) 0.36619(16) 0.1856(2)
C4_3 C 0.88734(11) 0.34644(17) 0.2439(3)
H2_3 H 0.9125 0.3548 0.2568
O7_3 O 0.76071(8) 0.23930(19) 0.1778(2)
C5_3 C 0.90948(10) 0.39929(16) 0.1407(2)
C6_3 C 0.79080(11) 0.26823(19) 0.3134(3)
C7_3 C 0.85935(12) 0.31397(18) 0.2850(3)
H3_3 H 0.8656 0.3005 0.3235
C8_3 C 0.76125(10) 0.23875(22) 0.2659(5)
C9_3 C 0.82161(11) 0.30253(19) 0.2664(3)
C10_3 C 0.81330(12) 0.32221(19) 0.2066(3)
H4_3 H 0.7884 0.3143 0.1920
C11_3 C 0.84208(11) 0.35354(18) 0.1688(3)
H5_3 H 0.8360 0.3669 0.1295
O9_3 O 0.59092(9) 0.05661(11) 0.84137(16)
C12_3 C 0.76169(22) 0.23829(30) 0.5486(3)
C13_3 C 0.73306(19) 0.20946(24) 0.5947(2)
H6_3 H 0.7138 0.1894 0.5646
C14_3 C 0.63381(16) 0.12105(20) 0.8144(2)
C15_3 C 0.65356(17) 0.11266(21) 0.7561(3)
H7_3 H 0.6452 0.0875 0.7432
O10_3 O 0.76070(19) 0.23929(25) 0.8222(2)
C16_3 C 0.60071(16) 0.09052(20) 0.8593(2)
C17_3 C 0.73177(19) 0.20920(24) 0.6866(3)
C18_3 C 0.68603(18) 0.14065(23) 0.7150(3)
H8_3 H 0.6995 0.1344 0.6765
C19_3 C 0.76125(22) 0.23875(30) 0.7341(5)
C20_3 C 0.69747(19) 0.17839(24) 0.7336(3)
C21_3 C 0.67779(19) 0.18670(24) 0.7934(3)
H9_3 H 0.6857 0.2116 0.8080
C22_3 C 0.64646(18) 0.15792(23) 0.8312(3)
H10_3 H 0.6331 0.1640 0.8705
O11_3 O 0.89880(5) 0.41630(9) 0.91088(15)
O12_3 O 0.94339(6) 0.40908(9) 0.84137(16)
C23_3 C 0.79054(12) 0.26694(19) 0.5947(2)
H11_3 H 0.8106 0.2862 0.5646
C24_3 C 0.87895(10) 0.36619(16) 0.8144(2)
C25_3 C 0.88734(11) 0.34644(17) 0.7561(3)
H12_3 H 0.9125 0.3548 0.7432
C26_3 C 0.90948(10) 0.39929(16) 0.8593(2)
C27_3 C 0.79080(11) 0.26823(19) 0.6866(3)
C28_3 C 0.85935(12) 0.31397(18) 0.7150(3)
H13_3 H 0.8656 0.3005 0.6765
C29_3 C 0.82161(11) 0.30253(19) 0.7336(3)
C30_3 C 0.81330(12) 0.32221(19) 0.7934(3)
H14_3 H 0.7884 0.3143 0.8080
C31_3 C 0.84208(11) 0.35354(18) 0.8312(3)
H15_3 H 0.8360 0.3669 0.8705
O14_3 O 0.59092(9) 0.05661(11) 0.15863(16)
C32_3 C 0.73306(19) 0.20946(24) 0.4053(2)
H16_3 H 0.7138 0.1894 0.4354
C33_3 C 0.63381(16) 0.12105(20) 0.1856(2)
C34_3 C 0.65356(17) 0.11266(21) 0.2439(3)
H17_3 H 0.6452 0.0875 0.2568
C35_3 C 0.60071(16) 0.09052(20) 0.1407(2)
C36_3 C 0.73177(19) 0.20920(24) 0.3134(3)
C37_3 C 0.68603(18) 0.14065(23) 0.2850(3)
H18_3 H 0.6995 0.1344 0.3235
C38_3 C 0.69747(19) 0.17839(24) 0.2664(3)
C39_3 C 0.67779(19) 0.18670(24) 0.2066(3)
H19_3 H 0.6857 0.2116 0.1920
C40_3 C 0.64646(18) 0.15792(23) 0.1688(3)
H20_3 H 0.6331 0.1640 0.1295
O15_4 O 0.59780(9) 0.00000(13) 0.0669(3)
O17_4 O 0.54087(11) 0.00000(16) 0.2567(3)
Zr8_5 Zr 1.0000 0.54349(2) 0.11398(3)
O24_3 O 0.89880(5) 0.48250(10) 0.08912(15)
O28_5 O 0.96564(10) 0.52465(17) 0.0000
H21_3 H 0.760161 0.216373 0.845106
H28_3 H 0.783627 0.239839 0.154894
O18_3 O 0.96735(10) 0.48368(15) 0.8836(3)
Zr11_5 Zr 1.0000 0.54349(2) 0.88602(3)
O22_3 O 0.89880(5) 0.48250(10) 0.91088(15)
O28_6 O 0.96564(10) 0.52465(17) 1.0000
O15_5 O 0.59780(9) 1.00000(13) 0.0669(3)
O16_5 O 0.52465(10) 0.96564(17) 0.0000
O17_5 O 0.54087(11) 1.00000(16) 0.2567(3)
Zr5_5 Zr 0.46511(2) 0.93021(4) 0.0000
O25_3 O 0.53431(7) 0.94339(11) 0.15863(16)
O16_6 O 0.52465(10) 0.96564(17) 1.0000
Zr5_6 Zr 0.46511(2) 0.93021(4) 1.0000
O3_4 O 0.48250(7) 0.89880(5) 0.08912(15)
C1_4 C 0.5234(2) 0.76171(10) 0.4514(3)
C2_4 C 0.52360(15) 0.79054(12) 0.4053(2)
H1_4 H 0.5244 0.8106 0.4354
C3_4 C 0.51276(12) 0.87895(10) 0.1856(2)
C4_4 C 0.54090(13) 0.88734(11) 0.2439(3)
H2_4 H 0.5577 0.9125 0.2568
O7_4 O 0.52141(17) 0.76071(8) 0.1778(2)
C5_4 C 0.51019(12) 0.90948(10) 0.1407(2)
C6_4 C 0.52257(15) 0.79080(11) 0.3134(3)
C7_4 C 0.54538(14) 0.85935(12) 0.2850(3)
H3_4 H 0.5651 0.8656 0.3235
C8_4 C 0.5225(2) 0.76125(10) 0.2659(5)
C9_4 C 0.51908(15) 0.82161(11) 0.2664(3)
C10_4 C 0.49109(15) 0.81330(12) 0.2066(3)
H4_4 H 0.4741 0.7884 0.1920
C11_4 C 0.48854(14) 0.84208(11) 0.1688(3)
H5_4 H 0.4691 0.8360 0.1295
O9_4 O 0.53431(7) 0.59092(9) 0.84137(16)
C12_4 C 0.5234(2) 0.76169(22) 0.5486(3)
C13_4 C 0.52360(15) 0.73306(19) 0.5947(2)
H6_4 H 0.5244 0.7138 0.5646
C14_4 C 0.51276(12) 0.63381(16) 0.8144(2)
C15_4 C 0.54090(13) 0.65356(17) 0.7561(3)
H7_4 H 0.5577 0.6452 0.7432
O10_4 O 0.52141(17) 0.76070(19) 0.8222(2)
C16_4 C 0.51019(12) 0.60071(16) 0.8593(2)
C17_4 C 0.52257(15) 0.73177(19) 0.6866(3)
C18_4 C 0.54538(14) 0.68603(18) 0.7150(3)
H8_4 H 0.5651 0.6995 0.6765
C19_4 C 0.5225(2) 0.76125(22) 0.7341(5)
C20_4 C 0.51908(15) 0.69747(19) 0.7336(3)
C21_4 C 0.49109(15) 0.67779(19) 0.7934(3)
H9_4 H 0.4741 0.6857 0.8080
C22_4 C 0.48854(14) 0.64646(18) 0.8312(3)
H10_4 H 0.4691 0.6331 0.8705
O11_4 O 0.48250(7) 0.89880(5) 0.91088(15)
O12_4 O 0.53431(7) 0.94339(6) 0.84137(16)
C23_4 C 0.52360(15) 0.79054(12) 0.5947(2)
H11_4 H 0.5244 0.8106 0.5646
C24_4 C 0.51276(12) 0.87895(10) 0.8144(2)
C25_4 C 0.54090(13) 0.88734(11) 0.7561(3)
H12_4 H 0.5577 0.9125 0.7432
C26_4 C 0.51019(12) 0.90948(10) 0.8593(2)
C27_4 C 0.52257(15) 0.79080(11) 0.6866(3)
C28_4 C 0.54538(14) 0.85935(12) 0.7150(3)
H13_4 H 0.5651 0.8656 0.6765
C29_4 C 0.51908(15) 0.82161(11) 0.7336(3)
C30_4 C 0.49109(15) 0.81330(12) 0.7934(3)
H14_4 H 0.4741 0.7884 0.8080
C31_4 C 0.48854(14) 0.84208(11) 0.8312(3)
H15_4 H 0.4691 0.8360 0.8705
O14_4 O 0.53431(7) 0.59092(9) 0.15863(16)
C32_4 C 0.52360(15) 0.73306(19) 0.4053(2)
H16_4 H 0.5244 0.7138 0.4354
C33_4 C 0.51276(12) 0.63381(16) 0.1856(2)
C34_4 C 0.54090(13) 0.65356(17) 0.2439(3)
H17_4 H 0.5577 0.6452 0.2568
C35_4 C 0.51019(12) 0.60071(16) 0.1407(2)
C36_4 C 0.52257(15) 0.73177(19) 0.3134(3)
C37_4 C 0.54538(14) 0.68603(18) 0.2850(3)
H18_4 H 0.5651 0.6995 0.3235
C38_4 C 0.51908(15) 0.69747(19) 0.2664(3)
C39_4 C 0.49109(15) 0.67779(19) 0.2066(3)
H19_4 H 0.4741 0.6857 0.1920
C40_4 C 0.48854(14) 0.64646(18) 0.1688(3)
H20_4 H 0.4691 0.6331 0.1295
O15_6 O 0.59780(9) 0.59780(9) 0.0669(3)
O16_7 O 0.55901(14) 0.52465(10) 0.0000
O17_6 O 0.54087(11) 0.54087(11) 0.2567(3)
O24_4 O 0.41630(9) 0.89880(5) 0.08912(15)
O25_4 O 0.59092(9) 0.53431(7) 0.15863(16)
H21_4 H 0.543788 0.760161 0.845106
H28_4 H 0.543788 0.783627 0.154894
O16_8 O 0.55901(14) 0.52465(10) 1.0000
O18_4 O 0.48367(11) 0.96735(10) 0.8836(3)
O22_4 O 0.41630(9) 0.89880(5) 0.91088(15)
O15_7 O -0.00000(13) 0.59780(9) 0.0669(3)
O16_9 O 0.03436(17) 0.55901(14) 0.0000
O17_7 O -0.00000(16) 0.54087(11) 0.2567(3)
O25_5 O 0.05661(11) 0.59092(9) 0.15863(16)
O16_10 O 0.03436(17) 0.55901(14) 1.0000
O3_5 O 0.58370(9) 0.48250(7) 0.08912(15)
C1_5 C 0.76169(22) 0.5234(2) 0.4514(3)
C2_5 C 0.73306(19) 0.52360(15) 0.4053(2)
H1_5 H 0.7138 0.5244 0.4354
C3_5 C 0.63381(16) 0.51276(12) 0.1856(2)
C4_5 C 0.65356(17) 0.54090(13) 0.2439(3)
H2_5 H 0.6452 0.5577 0.2568
O7_5 O 0.76070(19) 0.52141(17) 0.1778(2)
C5_5 C 0.60071(16) 0.51019(12) 0.1407(2)
C6_5 C 0.73177(19) 0.52257(15) 0.3134(3)
C7_5 C 0.68603(18) 0.54538(14) 0.2850(3)
H3_5 H 0.6995 0.5651 0.3235
C8_5 C 0.76125(22) 0.5225(2) 0.2659(5)
C9_5 C 0.69747(19) 0.51908(15) 0.2664(3)
C10_5 C 0.67779(19) 0.49109(15) 0.2066(3)
H4_5 H 0.6857 0.4741 0.1920
C11_5 C 0.64646(18) 0.48854(14) 0.1688(3)
H5_5 H 0.6331 0.4691 0.1295
O9_5 O 0.94339(11) 0.53431(7) 0.84137(16)
C12_5 C 0.76171(30) 0.5234(2) 0.5486(3)
C13_5 C 0.79054(24) 0.52360(15) 0.5947(2)
H6_5 H 0.8106 0.5244 0.5646
C14_5 C 0.87895(20) 0.51276(12) 0.8144(2)
C15_5 C 0.88734(21) 0.54090(13) 0.7561(3)
H7_5 H 0.9125 0.5577 0.7432
O10_5 O 0.76071(25) 0.52141(17) 0.8222(2)
C16_5 C 0.90948(20) 0.51019(12) 0.8593(2)
C17_5 C 0.79080(24) 0.52257(15) 0.6866(3)
C18_5 C 0.85935(23) 0.54538(14) 0.7150(3)
H8_5 H 0.8656 0.5651 0.6765
C19_5 C 0.76125(30) 0.5225(2) 0.7341(5)
C20_5 C 0.82161(24) 0.51908(15) 0.7336(3)
C21_5 C 0.81330(24) 0.49109(15) 0.7934(3)
H9_5 H 0.7884 0.4741 0.8080
C22_5 C 0.84208(23) 0.48854(14) 0.8312(3)
H10_5 H 0.8360 0.4691 0.8705
O11_5 O 0.58370(9) 0.48250(7) 0.91088(15)
O12_5 O 0.59092(9) 0.53431(7) 0.84137(16)
C23_5 C 0.73306(19) 0.52360(15) 0.5947(2)
H11_5 H 0.7138 0.5244 0.5646
C24_5 C 0.63381(16) 0.51276(12) 0.8144(2)
C25_5 C 0.65356(17) 0.54090(13) 0.7561(3)
H12_5 H 0.6452 0.5577 0.7432
C26_5 C 0.60071(16) 0.51019(12) 0.8593(2)
C27_5 C 0.73177(19) 0.52257(15) 0.6866(3)
C28_5 C 0.68603(18) 0.54538(14) 0.7150(3)
H13_5 H 0.6995 0.5651 0.6765
C29_5 C 0.69747(19) 0.51908(15) 0.7336(3)
C30_5 C 0.67779(19) 0.49109(15) 0.7934(3)
H14_5 H 0.6857 0.4741 0.8080
C31_5 C 0.64646(18) 0.48854(14) 0.8312(3)
H15_5 H 0.6331 0.4691 0.8705
O14_5 O 0.94339(11) 0.53431(7) 0.15863(16)
C32_5 C 0.79054(24) 0.52360(15) 0.4053(2)
H16_5 H 0.8106 0.5244 0.4354
C33_5 C 0.87895(20) 0.51276(12) 0.1856(2)
C34_5 C 0.88734(21) 0.54090(13) 0.2439(3)
H17_5 H 0.9125 0.5577 0.2568
C35_5 C 0.90948(20) 0.51019(12) 0.1407(2)
C36_5 C 0.79080(24) 0.52257(15) 0.3134(3)
C37_5 C 0.85935(23) 0.54538(14) 0.2850(3)
H18_5 H 0.8656 0.5651 0.3235
C38_5 C 0.82161(24) 0.51908(15) 0.2664(3)
C39_5 C 0.81330(24) 0.49109(15) 0.2066(3)
H19_5 H 0.7884 0.4741 0.1920
C40_5 C 0.84208(23) 0.48854(14) 0.1688(3)
H20_5 H 0.8360 0.4691 0.1295
O15_8 O 1.00000(13) 0.59780(9) 0.0669(3)
O17_8 O 1.00000(16) 0.54087(11) 0.2567(3)
H21_5 H 0.783627 0.543788 0.845106
H28_5 H 0.760161 0.543788 0.154894
O18_5 O 0.51632(15) 0.48367(11) 0.8836(3)
O3_6 O 0.10120(5) 0.58370(9) 0.08912(15)
C1_6 C 0.23829(10) 0.76169(22) 0.4514(3)
C2_6 C 0.20946(12) 0.73306(19) 0.4053(2)
H1_6 H 0.1894 0.7138 0.4354
C3_6 C 0.12105(10) 0.63381(16) 0.1856(2)
C4_6 C 0.11266(11) 0.65356(17) 0.2439(3)
H2_6 H 0.0875 0.6452 0.2568
O7_6 O 0.23929(8) 0.76070(19) 0.1778(2)
C5_6 C 0.09052(10) 0.60071(16) 0.1407(2)
C6_6 C 0.20920(11) 0.73177(19) 0.3134(3)
C7_6 C 0.14065(12) 0.68603(18) 0.2850(3)
H3_6 H 0.1344 0.6995 0.3235
C8_6 C 0.23875(10) 0.76125(22) 0.2659(5)
C9_6 C 0.17839(11) 0.69747(19) 0.2664(3)
C10_6 C 0.18670(12) 0.67779(19) 0.2066(3)
H4_6 H 0.2116 0.6857 0.1920
C11_6 C 0.15792(11) 0.64646(18) 0.1688(3)
H5_6 H 0.1640 0.6331 0.1295
O9_6 O 0.40908(9) 0.94339(11) 0.84137(16)
C12_6 C 0.23831(22) 0.76171(30) 0.5486(3)
C13_6 C 0.26694(19) 0.79054(24) 0.5947(2)
H6_6 H 0.2862 0.8106 0.5646
C14_6 C 0.36619(16) 0.87895(20) 0.8144(2)
C15_6 C 0.34644(17) 0.88734(21) 0.7561(3)
H7_6 H 0.3548 0.9125 0.7432
O10_6 O 0.23930(19) 0.76071(25) 0.8222(2)
C16_6 C 0.39929(16) 0.90948(20) 0.8593(2)
C17_6 C 0.26823(19) 0.79080(24) 0.6866(3)
C18_6 C 0.31397(18) 0.85935(23) 0.7150(3)
H8_6 H 0.3005 0.8656 0.6765
C19_6 C 0.23875(22) 0.76125(30) 0.7341(5)
C20_6 C 0.30253(19) 0.82161(24) 0.7336(3)
C21_6 C 0.32221(19) 0.81330(24) 0.7934(3)
H9_6 H 0.3143 0.7884 0.8080
C22_6 C 0.35354(18) 0.84208(23) 0.8312(3)
H10_6 H 0.3669 0.8360 0.8705
O11_6 O 0.10120(5) 0.58370(9) 0.91088(15)
O12_6 O 0.05661(6) 0.59092(9) 0.84137(16)
C23_6 C 0.20946(12) 0.73306(19) 0.5947(2)
H11_6 H 0.1894 0.7138 0.5646
C24_6 C 0.12105(10) 0.63381(16) 0.8144(2)
C25_6 C 0.11266(11) 0.65356(17) 0.7561(3)
H12_6 H 0.0875 0.6452 0.7432
C26_6 C 0.09052(10) 0.60071(16) 0.8593(2)
C27_6 C 0.20920(11) 0.73177(19) 0.6866(3)
C28_6 C 0.14065(12) 0.68603(18) 0.7150(3)
H13_6 H 0.1344 0.6995 0.6765
C29_6 C 0.17839(11) 0.69747(19) 0.7336(3)
C30_6 C 0.18670(12) 0.67779(19) 0.7934(3)
H14_6 H 0.2116 0.6857 0.8080
C31_6 C 0.15792(11) 0.64646(18) 0.8312(3)
H15_6 H 0.1640 0.6331 0.8705
C32_6 C 0.26694(19) 0.79054(24) 0.4053(2)
H16_6 H 0.2862 0.8106 0.4354
C33_6 C 0.36619(16) 0.87895(20) 0.1856(2)
C34_6 C 0.34644(17) 0.88734(21) 0.2439(3)
H17_6 H 0.3548 0.9125 0.2568
C35_6 C 0.39929(16) 0.90948(20) 0.1407(2)
C36_6 C 0.26823(19) 0.79080(24) 0.3134(3)
C37_6 C 0.31397(18) 0.85935(23) 0.2850(3)
H18_6 H 0.3005 0.8656 0.3235
C38_6 C 0.30253(19) 0.82161(24) 0.2664(3)
C39_6 C 0.32221(19) 0.81330(24) 0.2066(3)
H19_6 H 0.3143 0.7884 0.1920
C40_6 C 0.35354(18) 0.84208(23) 0.1688(3)
H20_6 H 0.3669 0.8360 0.1295
H21_6 H 0.239839 0.783627 0.845106
H28_6 H 0.216373 0.760161 0.154894
O18_6 O 0.03265(10) 0.51632(15) 0.8836(3)
O2_3 O 0.40220(9) 0.0000 0.9331(3)
O6_3 O 0.45913(11) -0.0000 0.7433(3)
O2_4 O 0.40220(9) 1.0000 0.9331(3)
O6_4 O 0.45913(11) 1.0000 0.7433(3)
O15_9 O -0.00000(13) 0.59780(9) 0.9331(3)
O17_9 O 0.00000(16) 0.54087(11) 0.7433(3)
O15_10 O 1.00000(13) 0.59780(9) 0.9331(3)
O17_10 O 1.00000(16) 0.54087(11) 0.7433(3)
O15_11 O 0.59780(9) -0.00000(13) 0.9331(3)
O17_11 O 0.54087(11) -0.00000(16) 0.7433(3)
O2_5 O 0.59780(9) 0.59780(9) 0.9331(3)
O6_5 O 0.54087(11) 0.54087(11) 0.7433(3)
O15_12 O 0.59780(9) 1.00000(13) 0.9331(3)
O17_12 O 0.54087(11) 1.00000(16) 0.7433(3)
O2_6 O -0.0000 0.40220(9) 0.9331(3)
O6_6 O -0.0000 0.45913(11) 0.7433(3)
O15_13 O 0.40220(9) 0.40220(9) 0.9331(3)
O17_13 O 0.45913(11) 0.45913(11) 0.7433(3)
O2_7 O 1.0000 0.40220(9) 0.9331(3)
O6_7 O 1.0000 0.45913(11) 0.7433(3)
H21_7 H 0.543788 0.760161 0.154894
H28_7 H 0.543788 0.783627 0.845106
H21_8 H 0.783627 0.543788 0.154894
H28_8 H 0.760161 0.543788 0.845106
H21_9 H 0.239839 0.783627 0.154894
H28_9 H 0.216373 0.760161 0.845106
H21_10 H 0.456212 0.239839 0.154894
H28_10 H 0.456212 0.216373 0.845106
H21_11 H 0.216373 0.456212 0.154894
H28_11 H 0.239839 0.456212 0.845106
H21_12 H 0.760161 0.216373 0.154894
H28_12 H 0.783627 0.239839 0.845106
loop_
_geom_bond_atom_site_label_1
_geom_bond_atom_site_label_2
_geom_bond_site_symmetry_1
_geom_bond_site_symmetry_2
Zr4 O1 1_555 1_555
Zr2 O1 1_555 1_555
O1 Zr8 1_555 1_555
O2 Zr2 1_555 1_555
O3 Zr4 1_555 1_555
O4 Zr2 1_555 1_555
O5 Zr4 1_555 1_555
O6 Zr2 1_555 1_555
C1 C2 1_555 1_555
C2 H1 1_555 1_555
C3 C4 1_555 1_555
C4 H2 1_555 1_555
O7 C8 1_555 1_555
C5 O3 1_555 1_555
C6 C2 1_555 1_555
C7 C4 1_555 1_555
H3 C7 1_555 1_555
C8 C6 1_555 1_555
C9 C6 1_555 1_555
C10 C9 1_555 1_555
H4 C10 1_555 1_555
C11 C3 1_555 1_555
H5 C11 1_555 1_555
O8 C16 1_555 1_555
O9 C16 1_555 1_555
C12 C1 1_555 1_555
C13 C12 1_555 1_555
H6 C13 1_555 1_555
C14 C15 1_555 1_555
C15 H7 1_555 1_555
O10 C19 1_555 1_555
C16 C14 1_555 1_555
C17 C13 1_555 1_555
C18 C15 1_555 1_555
H8 C18 1_555 1_555
C19 C17 1_555 1_555
C20 C17 1_555 1_555
C21 C20 1_555 1_555
H9 C21 1_555 1_555
C22 C14 1_555 1_555
H10 C22 1_555 1_555
O11 C26 1_555 1_555
O12 C26 1_555 1_555
C23 C12 1_555 1_555
H11 C23 1_555 1_555
C24 C25 1_555 1_555
C25 H12 1_555 1_555
C26 C24 1_555 1_555
C27 C19 1_555 1_555
C28 C25 1_555 1_555
H13 C28 1_555 1_555
C29 C27 1_555 1_555
C30 C29 1_555 1_555
H14 C30 1_555 1_555
C31 C24 1_555 1_555
H15 C31 1_555 1_555
O13 C35 1_555 1_555
O14 C35 1_555 1_555
C32 C1 1_555 1_555
H16 C32 1_555 1_555
C33 C34 1_555 1_555
C34 H17 1_555 1_555
C35 C33 1_555 1_555
C36 C8 1_555 1_555
C37 C34 1_555 1_555
H18 C37 1_555 1_555
C38 C36 1_555 1_555
C39 C38 1_555 1_555
H19 C39 1_555 1_555
C40 C33 1_555 1_555
H20 C40 1_555 1_555
Zr3 O14 1_555 1_555
O15 Zr3 1_555 1_555
O16 Zr3 1_555 1_555
O17 Zr3 1_555 1_555
Zr4_2 O11 1_555 1_555
Zr5 O16 1_555 1_555
Zr7 O13 1_555 1_555
Zr7_2 O8 1_555 1_555
Zr10 O12 1_555 1_555
Zr13 O9 1_555 1_555
O19 Zr3 1_555 1_555
O21 Zr3 1_555 1_555
O24 Zr4 1_555 1_555
O25 Zr3 1_555 1_555
O28 Zr4 1_555 1_555
O29 Zr3 1_555 1_555
Zr2 O5 1_555 1_555
O4 C5 1_555 1_555
C3 C5 1_555 1_555
C7 C9 1_555 1_555
C10 C11 1_555 1_555
C18 C20 1_555 1_555
C21 C22 1_555 1_555
C23 C27 1_555 1_555
C28 C29 1_555 1_555
C30 C31 1_555 1_555
C32 C36 1_555 1_555
C37 C38 1_555 1_555
C39 C40 1_555 1_555
Zr5 O19 1_555 1_555
Zr7 O21 1_555 1_555
Zr7 O29 1_555 1_555
Zr8 O28 1_555 1_555
O10 H21 1_555 1_555
O7 H28 1_555 1_555
O5_2 Zr4_2 1_555 1_555
O18 Zr4_2 1_555 1_555
Zr5_2 O16_2 1_555 1_555
Zr10 O5_2 1_555 1_555
Zr11 O18 1_555 1_555
Zr13 O16_2 1_555 1_555
O22 Zr4_2 1_555 1_555
O28_2 Zr4_2 1_555 1_555
O18 Zr10 1_555 1_555
Zr7_2 O29_2 1_555 1_555
Zr11 O28_2 1_555 1_555
Zr13 O29_2 1_555 1_555
O2_2 Zr2_2 1_555 1_555
O6_2 Zr2_2 1_555 1_555
Zr8_2 O20 1_555 1_555
O20 Zr2_2 1_555 1_555
O26 Zr2_2 1_555 1_555
O27 Zr2_2 1_555 1_555
Zr10_2 O27_2 1_555 1_555
O19 Zr8_3 1_555 1_555
O3_2 Zr5 1_555 1_555
C1_2 C2_2 1_555 1_555
C2_2 H1_2 1_555 1_555
C3_2 C4_2 1_555 1_555
C4_2 H2_2 1_555 1_555
O7_2 C8_2 1_555 1_555
C5_2 O3_2 1_555 1_555
C6_2 C2_2 1_555 1_555
C7_2 C4_2 1_555 1_555
H3_2 C7_2 1_555 1_555
C8_2 C6_2 1_555 1_555
C9_2 C6_2 1_555 1_555
C10_2 C9_2 1_555 1_555
H4_2 C10_2 1_555 1_555
C11_2 C3_2 1_555 1_555
H5_2 C11_2 1_555 1_555
O8_2 C16_2 1_555 1_555
O9_2 C16_2 1_555 1_555
C12_2 C1_2 1_555 1_555
C13_2 C12_2 1_555 1_555
H6_2 C13_2 1_555 1_555
C14_2 C15_2 1_555 1_555
C15_2 H7_2 1_555 1_555
O10_2 C19_2 1_555 1_555
C16_2 C14_2 1_555 1_555
C17_2 C13_2 1_555 1_555
C18_2 C15_2 1_555 1_555
H8_2 C18_2 1_555 1_555
C19_2 C17_2 1_555 1_555
C20_2 C17_2 1_555 1_555
C21_2 C20_2 1_555 1_555
H9_2 C21_2 1_555 1_555
C22_2 C14_2 1_555 1_555
H10_2 C22_2 1_555 1_555
O11_2 C26_2 1_555 1_555
O12_2 C26_2 1_555 1_555
C23_2 C12_2 1_555 1_555
H11_2 C23_2 1_555 1_555
C24_2 C25_2 1_555 1_555
C25_2 H12_2 1_555 1_555
C26_2 C24_2 1_555 1_555
C27_2 C19_2 1_555 1_555
C28_2 C25_2 1_555 1_555
H13_2 C28_2 1_555 1_555
C29_2 C27_2 1_555 1_555
C30_2 C29_2 1_555 1_555
H14_2 C30_2 1_555 1_555
C31_2 C24_2 1_555 1_555
H15_2 C31_2 1_555 1_555
O13_2 C35_2 1_555 1_555
O14_2 C35_2 1_555 1_555
C32_2 C1_2 1_555 1_555
H16_2 C32_2 1_555 1_555
C33_2 C34_2 1_555 1_555
C34_2 H17_2 1_555 1_555
C35_2 C33_2 1_555 1_555
C36_2 C8_2 1_555 1_555
C37_2 C34_2 1_555 1_555
H18_2 C37_2 1_555 1_555
C38_2 C36_2 1_555 1_555
C39_2 C38_2 1_555 1_555
H19_2 C39_2 1_555 1_555
C40_2 C33_2 1_555 1_555
H20_2 C40_2 1_555 1_555
Zr3_2 O14_2 1_555 1_555
O15_2 Zr3_2 1_555 1_555
O17_2 Zr3_2 1_555 1_555
Zr5_2 O11_2 1_555 1_555
Zr7_3 O13_2 1_555 1_555
Zr7_4 O8_2 1_555 1_555
Zr8_3 O21 1_555 1_555
Zr13 O12_2 1_555 1_555
Zr13_2 O9_2 1_555 1_555
O21_2 Zr3_2 1_555 1_555
O24_2 Zr5 1_555 1_555
O28_3 Zr5 1_555 1_555
O29_3 Zr3_2 1_555 1_555
O25 C5_2 1_555 1_555
C3_2 C5_2 1_555 1_555
C7_2 C9_2 1_555 1_555
C10_2 C11_2 1_555 1_555
C18_2 C20_2 1_555 1_555
C21_2 C22_2 1_555 1_555
C23_2 C27_2 1_555 1_555
C28_2 C29_2 1_555 1_555
C30_2 C31_2 1_555 1_555
C32_2 C36_2 1_555 1_555
C37_2 C38_2 1_555 1_555
C39_2 C40_2 1_555 1_555
Zr7_3 O21_2 1_555 1_555
Zr7_3 O29_3 1_555 1_555
Zr8_3 O28_3 1_555 1_555
O10_2 H21_2 1_555 1_555
O7_2 H28_2 1_555 1_555
O18_2 Zr5_2 1_555 1_555
Zr11_3 O18_2 1_555 1_555
O22_2 Zr5_2 1_555 1_555
O28_4 Zr5_2 1_555 1_555
O18_2 Zr13 1_555 1_555
Zr7_4 O29_4 1_555 1_555
Zr11_3 O28_4 1_555 1_555
Zr13_2 O29_4 1_555 1_555
O15_3 Zr3_3 1_555 1_555
O16_3 Zr3_3 1_555 1_555
O17_3 Zr3_3 1_555 1_555
Zr5_3 O16_3 1_555 1_555
O19_2 Zr3_3 1_555 1_555
O25_2 Zr3_3 1_555 1_555
Zr5_3 O19_2 1_555 1_555
Zr5_4 O16_4 1_555 1_555
Zr13_3 O16_4 1_555 1_555
Zr8_4 O21_2 1_555 1_555
O19_2 Zr8_5 1_555 1_555
O3_3 Zr5_3 1_555 1_555
C1_3 C2_3 1_555 1_555
C2_3 H1_3 1_555 1_555
C3_3 C4_3 1_555 1_555
C4_3 H2_3 1_555 1_555
O7_3 C8_3 1_555 1_555
C5_3 O3_3 1_555 1_555
C6_3 C2_3 1_555 1_555
C7_3 C4_3 1_555 1_555
H3_3 C7_3 1_555 1_555
C8_3 C6_3 1_555 1_555
C9_3 C6_3 1_555 1_555
C10_3 C9_3 1_555 1_555
H4_3 C10_3 1_555 1_555
C11_3 C3_3 1_555 1_555
H5_3 C11_3 1_555 1_555
O22 C16_3 1_555 1_555
O9_3 C16_3 1_555 1_555
C12_3 C1_3 1_555 1_555
C13_3 C12_3 1_555 1_555
H6_3 C13_3 1_555 1_555
C14_3 C15_3 1_555 1_555
C15_3 H7_3 1_555 1_555
O10_3 C19_3 1_555 1_555
C16_3 C14_3 1_555 1_555
C17_3 C13_3 1_555 1_555
C18_3 C15_3 1_555 1_555
H8_3 C18_3 1_555 1_555
C19_3 C17_3 1_555 1_555
C20_3 C17_3 1_555 1_555
C21_3 C20_3 1_555 1_555
H9_3 C21_3 1_555 1_555
C22_3 C14_3 1_555 1_555
H10_3 C22_3 1_555 1_555
O11_3 C26_3 1_555 1_555
O12_3 C26_3 1_555 1_555
C23_3 C12_3 1_555 1_555
H11_3 C23_3 1_555 1_555
C24_3 C25_3 1_555 1_555
C25_3 H12_3 1_555 1_555
C26_3 C24_3 1_555 1_555
C27_3 C19_3 1_555 1_555
C28_3 C25_3 1_555 1_555
H13_3 C28_3 1_555 1_555
C29_3 C27_3 1_555 1_555
C30_3 C29_3 1_555 1_555
H14_3 C30_3 1_555 1_555
C31_3 C24_3 1_555 1_555
H15_3 C31_3 1_555 1_555
O24 C35_3 1_555 1_555
O14_3 C35_3 1_555 1_555
C32_3 C1_3 1_555 1_555
H16_3 C32_3 1_555 1_555
C33_3 C34_3 1_555 1_555
C34_3 H17_3 1_555 1_555
C35_3 C33_3 1_555 1_555
C36_3 C8_3 1_555 1_555
C37_3 C34_3 1_555 1_555
H18_3 C37_3 1_555 1_555
C38_3 C36_3 1_555 1_555
C39_3 C38_3 1_555 1_555
H19_3 C39_3 1_555 1_555
C40_3 C33_3 1_555 1_555
H20_3 C40_3 1_555 1_555
Zr8 O14_3 1_555 1_555
O15_4 Zr8 1_555 1_555
O17_4 Zr8 1_555 1_555
Zr5_4 O11_3 1_555 1_555
Zr13_3 O12_3 1_555 1_555
Zr11 O9_3 1_555 1_555
O24_3 Zr5_3 1_555 1_555
O28_5 Zr5_3 1_555 1_555
O25_2 C5_3 1_555 1_555
C3_3 C5_3 1_555 1_555
C7_3 C9_3 1_555 1_555
C10_3 C11_3 1_555 1_555
C18_3 C20_3 1_555 1_555
C21_3 C22_3 1_555 1_555
C23_3 C27_3 1_555 1_555
C28_3 C29_3 1_555 1_555
C30_3 C31_3 1_555 1_555
C32_3 C36_3 1_555 1_555
C37_3 C38_3 1_555 1_555
C39_3 C40_3 1_555 1_555
Zr8_5 O28_5 1_555 1_555
O10_3 H21_3 1_555 1_555
O7_3 H28_3 1_555 1_555
O18_3 Zr5_4 1_555 1_555
Zr11_5 O18_3 1_555 1_555
O22_3 Zr5_4 1_555 1_555
O28_6 Zr5_4 1_555 1_555
O18_3 Zr13_3 1_555 1_555
Zr11_5 O28_6 1_555 1_555
O15_5 Zr8_2 1_555 1_555
O16_5 Zr8_2 1_555 1_555
O17_5 Zr8_2 1_555 1_555
Zr5_5 O16_5 1_555 1_555
O25_3 Zr8_2 1_555 1_555
Zr5_5 O20 1_555 1_555
Zr5_6 O16_6 1_555 1_555
Zr11_2 O16_6 1_555 1_555
O3_4 Zr5_5 1_555 1_555
C1_4 C2_4 1_555 1_555
C2_4 H1_4 1_555 1_555
C3_4 C4_4 1_555 1_555
C4_4 H2_4 1_555 1_555
O7_4 C8_4 1_555 1_555
C5_4 O3_4 1_555 1_555
C6_4 C2_4 1_555 1_555
C7_4 C4_4 1_555 1_555
H3_4 C7_4 1_555 1_555
C8_4 C6_4 1_555 1_555
C9_4 C6_4 1_555 1_555
C10_4 C9_4 1_555 1_555
H4_4 C10_4 1_555 1_555
C11_4 C3_4 1_555 1_555
H5_4 C11_4 1_555 1_555
O22_2 C16_4 1_555 1_555
O9_4 C16_4 1_555 1_555
C12_4 C1_4 1_555 1_555
C13_4 C12_4 1_555 1_555
H6_4 C13_4 1_555 1_555
C14_4 C15_4 1_555 1_555
C15_4 H7_4 1_555 1_555
O10_4 C19_4 1_555 1_555
C16_4 C14_4 1_555 1_555
C17_4 C13_4 1_555 1_555
C18_4 C15_4 1_555 1_555
H8_4 C18_4 1_555 1_555
C19_4 C17_4 1_555 1_555
C20_4 C17_4 1_555 1_555
C21_4 C20_4 1_555 1_555
H9_4 C21_4 1_555 1_555
C22_4 C14_4 1_555 1_555
H10_4 C22_4 1_555 1_555
O11_4 C26_4 1_555 1_555
O12_4 C26_4 1_555 1_555
C23_4 C12_4 1_555 1_555
H11_4 C23_4 1_555 1_555
C24_4 C25_4 1_555 1_555
C25_4 H12_4 1_555 1_555
C26_4 C24_4 1_555 1_555
C27_4 C19_4 1_555 1_555
C28_4 C25_4 1_555 1_555
H13_4 C28_4 1_555 1_555
C29_4 C27_4 1_555 1_555
C30_4 C29_4 1_555 1_555
H14_4 C30_4 1_555 1_555
C31_4 C24_4 1_555 1_555
H15_4 C31_4 1_555 1_555
O24_2 C35_4 1_555 1_555
O14_4 C35_4 1_555 1_555
C32_4 C1_4 1_555 1_555
H16_4 C32_4 1_555 1_555
C33_4 C34_4 1_555 1_555
C34_4 H17_4 1_555 1_555
C35_4 C33_4 1_555 1_555
C36_4 C8_4 1_555 1_555
C37_4 C34_4 1_555 1_555
H18_4 C37_4 1_555 1_555
C38_4 C36_4 1_555 1_555
C39_4 C38_4 1_555 1_555
H19_4 C39_4 1_555 1_555
C40_4 C33_4 1_555 1_555
H20_4 C40_4 1_555 1_555
Zr8_3 O14_4 1_555 1_555
O15_6 Zr8_3 1_555 1_555
O16_7 Zr8_3 1_555 1_555
O17_6 Zr8_3 1_555 1_555
Zr5_6 O11_4 1_555 1_555
Zr7 O16_7 1_555 1_555
Zr11_2 O12_4 1_555 1_555
Zr11_3 O9_4 1_555 1_555
O24_4 Zr5_5 1_555 1_555
O25_4 Zr8_3 1_555 1_555
O27 Zr5_5 1_555 1_555
O25_3 C5_4 1_555 1_555
C3_4 C5_4 1_555 1_555
C7_4 C9_4 1_555 1_555
C10_4 C11_4 1_555 1_555
C18_4 C20_4 1_555 1_555
C21_4 C22_4 1_555 1_555
C23_4 C27_4 1_555 1_555
C28_4 C29_4 1_555 1_555
C30_4 C31_4 1_555 1_555
C32_4 C36_4 1_555 1_555
C37_4 C38_4 1_555 1_555
C39_4 C40_4 1_555 1_555
O10_4 H21_4 1_555 1_555
O7_4 H28_4 1_555 1_555
O18_4 Zr5_6 1_555 1_555
Zr7_2 O16_8 1_555 1_555
Zr10_2 O18_4 1_555 1_555
Zr11_3 O16_8 1_555 1_555
O22_4 Zr5_6 1_555 1_555
O27_2 Zr5_6 1_555 1_555
O18_4 Zr11_2 1_555 1_555
O15_7 Zr8_4 1_555 1_555
O16_9 Zr8_4 1_555 1_555
O17_7 Zr8_4 1_555 1_555
Zr7_3 O16_9 1_555 1_555
O25_5 Zr8_4 1_555 1_555
Zr7_4 O16_10 1_555 1_555
Zr11_4 O16_10 1_555 1_555
O3_5 Zr7 1_555 1_555
C1_5 C2_5 1_555 1_555
C2_5 H1_5 1_555 1_555
C3_5 C4_5 1_555 1_555
C4_5 H2_5 1_555 1_555
O7_5 C8_5 1_555 1_555
C5_5 O3_5 1_555 1_555
C6_5 C2_5 1_555 1_555
C7_5 C4_5 1_555 1_555
H3_5 C7_5 1_555 1_555
C8_5 C6_5 1_555 1_555
C9_5 C6_5 1_555 1_555
C10_5 C9_5 1_555 1_555
H4_5 C10_5 1_555 1_555
C11_5 C3_5 1_555 1_555
H5_5 C11_5 1_555 1_555
O22_3 C16_5 1_555 1_555
O9_5 C16_5 1_555 1_555
C12_5 C1_5 1_555 1_555
C13_5 C12_5 1_555 1_555
H6_5 C13_5 1_555 1_555
C14_5 C15_5 1_555 1_555
C15_5 H7_5 1_555 1_555
O10_5 C19_5 1_555 1_555
C16_5 C14_5 1_555 1_555
C17_5 C13_5 1_555 1_555
C18_5 C15_5 1_555 1_555
H8_5 C18_5 1_555 1_555
C19_5 C17_5 1_555 1_555
C20_5 C17_5 1_555 1_555
C21_5 C20_5 1_555 1_555
H9_5 C21_5 1_555 1_555
C22_5 C14_5 1_555 1_555
H10_5 C22_5 1_555 1_555
O11_5 C26_5 1_555 1_555
O12_5 C26_5 1_555 1_555
C23_5 C12_5 1_555 1_555
H11_5 C23_5 1_555 1_555
C24_5 C25_5 1_555 1_555
C25_5 H12_5 1_555 1_555
C26_5 C24_5 1_555 1_555
C27_5 C19_5 1_555 1_555
C28_5 C25_5 1_555 1_555
H13_5 C28_5 1_555 1_555
C29_5 C27_5 1_555 1_555
C30_5 C29_5 1_555 1_555
H14_5 C30_5 1_555 1_555
C31_5 C24_5 1_555 1_555
H15_5 C31_5 1_555 1_555
O24_3 C35_5 1_555 1_555
O14_5 C35_5 1_555 1_555
C32_5 C1_5 1_555 1_555
H16_5 C32_5 1_555 1_555
C33_5 C34_5 1_555 1_555
C34_5 H17_5 1_555 1_555
C35_5 C33_5 1_555 1_555
C36_5 C8_5 1_555 1_555
C37_5 C34_5 1_555 1_555
H18_5 C37_5 1_555 1_555
C38_5 C36_5 1_555 1_555
C39_5 C38_5 1_555 1_555
H19_5 C39_5 1_555 1_555
C40_5 C33_5 1_555 1_555
H20_5 C40_5 1_555 1_555
Zr8_5 O14_5 1_555 1_555
O15_8 Zr8_5 1_555 1_555
O17_8 Zr8_5 1_555 1_555
Zr7_2 O11_5 1_555 1_555
Zr11_3 O12_5 1_555 1_555
Zr11_5 O9_5 1_555 1_555
O25_4 C5_5 1_555 1_555
C3_5 C5_5 1_555 1_555
C7_5 C9_5 1_555 1_555
C10_5 C11_5 1_555 1_555
C18_5 C20_5 1_555 1_555
C21_5 C22_5 1_555 1_555
C23_5 C27_5 1_555 1_555
C28_5 C29_5 1_555 1_555
C30_5 C31_5 1_555 1_555
C32_5 C36_5 1_555 1_555
C37_5 C38_5 1_555 1_555
C39_5 C40_5 1_555 1_555
O10_5 H21_5 1_555 1_555
O7_5 H28_5 1_555 1_555
O18_5 Zr7_2 1_555 1_555
Zr13 O18_5 1_555 1_555
O18_5 Zr11_3 1_555 1_555
O3_6 Zr7_3 1_555 1_555
C1_6 C2_6 1_555 1_555
C2_6 H1_6 1_555 1_555
C3_6 C4_6 1_555 1_555
C4_6 H2_6 1_555 1_555
O7_6 C8_6 1_555 1_555
C5_6 O3_6 1_555 1_555
C6_6 C2_6 1_555 1_555
C7_6 C4_6 1_555 1_555
H3_6 C7_6 1_555 1_555
C8_6 C6_6 1_555 1_555
C9_6 C6_6 1_555 1_555
C10_6 C9_6 1_555 1_555
H4_6 C10_6 1_555 1_555
C11_6 C3_6 1_555 1_555
H5_6 C11_6 1_555 1_555
O22_4 C16_6 1_555 1_555
O9_6 C16_6 1_555 1_555
C12_6 C1_6 1_555 1_555
C13_6 C12_6 1_555 1_555
H6_6 C13_6 1_555 1_555
C14_6 C15_6 1_555 1_555
C15_6 H7_6 1_555 1_555
O10_6 C19_6 1_555 1_555
C16_6 C14_6 1_555 1_555
C17_6 C13_6 1_555 1_555
C18_6 C15_6 1_555 1_555
H8_6 C18_6 1_555 1_555
C19_6 C17_6 1_555 1_555
C20_6 C17_6 1_555 1_555
C21_6 C20_6 1_555 1_555
H9_6 C21_6 1_555 1_555
C22_6 C14_6 1_555 1_555
H10_6 C22_6 1_555 1_555
O11_6 C26_6 1_555 1_555
O12_6 C26_6 1_555 1_555
C23_6 C12_6 1_555 1_555
H11_6 C23_6 1_555 1_555
C24_6 C25_6 1_555 1_555
C25_6 H12_6 1_555 1_555
C26_6 C24_6 1_555 1_555
C27_6 C19_6 1_555 1_555
C28_6 C25_6 1_555 1_555
H13_6 C28_6 1_555 1_555
C29_6 C27_6 1_555 1_555
C30_6 C29_6 1_555 1_555
H14_6 C30_6 1_555 1_555
C31_6 C24_6 1_555 1_555
H15_6 C31_6 1_555 1_555
O24_4 C35_6 1_555 1_555
O26 C35_6 1_555 1_555
C32_6 C1_6 1_555 1_555
H16_6 C32_6 1_555 1_555
C33_6 C34_6 1_555 1_555
C34_6 H17_6 1_555 1_555
C35_6 C33_6 1_555 1_555
C36_6 C8_6 1_555 1_555
C37_6 C34_6 1_555 1_555
H18_6 C37_6 1_555 1_555
C38_6 C36_6 1_555 1_555
C39_6 C38_6 1_555 1_555
H19_6 C39_6 1_555 1_555
C40_6 C33_6 1_555 1_555
H20_6 C40_6 1_555 1_555
Zr7_4 O11_6 1_555 1_555
Zr11_4 O12_6 1_555 1_555
Zr10_2 O9_6 1_555 1_555
O25_5 C5_6 1_555 1_555
C3_6 C5_6 1_555 1_555
C7_6 C9_6 1_555 1_555
C10_6 C11_6 1_555 1_555
C18_6 C20_6 1_555 1_555
C21_6 C22_6 1_555 1_555
C23_6 C27_6 1_555 1_555
C28_6 C29_6 1_555 1_555
C30_6 C31_6 1_555 1_555
C32_6 C36_6 1_555 1_555
C37_6 C38_6 1_555 1_555
C39_6 C40_6 1_555 1_555
O10_6 H21_6 1_555 1_555
O7_6 H28_6 1_555 1_555
O18_6 Zr7_4 1_555 1_555
Zr13_2 O18_6 1_555 1_555
O18_6 Zr11_4 1_555 1_555
O2_3 Zr10 1_555 1_555
O6_3 Zr10 1_555 1_555
O2_4 Zr10_2 1_555 1_555
O6_4 Zr10_2 1_555 1_555
O15_9 Zr11_4 1_555 1_555
O17_9 Zr11_4 1_555 1_555
O15_10 Zr11_5 1_555 1_555
O17_10 Zr11_5 1_555 1_555
O15_11 Zr11 1_555 1_555
O17_11 Zr11 1_555 1_555
O2_5 Zr11_3 1_555 1_555
O6_5 Zr11_3 1_555 1_555
O15_12 Zr11_2 1_555 1_555
O17_12 Zr11_2 1_555 1_555
O2_6 Zr13_2 1_555 1_555
O6_6 Zr13_2 1_555 1_555
O15_13 Zr13 1_555 1_555
O17_13 Zr13 1_555 1_555
O2_7 Zr13_3 1_555 1_555
O6_7 Zr13_3 1_555 1_555
O7_4 H21_7 1_555 1_555
O10_4 H28_7 1_555 1_555
O7_5 H21_8 1_555 1_555
O10_5 H28_8 1_555 1_555
O7_6 H21_9 1_555 1_555
O10_6 H28_9 1_555 1_555
O7 H21_10 1_555 1_555
O10 H28_10 1_555 1_555
O7_2 H21_11 1_555 1_555
O10_2 H28_11 1_555 1_555
O7_3 H21_12 1_555 1_555
O10_3 H28_12 1_555 1_555

#END
