
###############################################################################
#
# This file contains modified crystal structure data generated from the
# MOF subset of the Cambridge Structural Database (CSD) v543 
# hosted by the Cambridge Crystallographic Data Centre (CCDC).
#
# This work is licensed under the Creative Commons
# Attribution-NonCommercial-ShareAlike 4.0 International License.
# To view a copy of this license, visit
# http://creativecommons.org/licenses/by-nc-sa/4.0/
# or send a letter to
# Creative Commons, PO Box 1866, Mountain View, CA 94042, USA.
#
# CIF created using the CSD Python API on 29 September 2022
# The structure has been converted into the P1 space group
# The structure has a 3D framework
# The original CSD entry HERHOE is in the orthorhombic crystal system
# The framework has been calculated to contain at least 10.0% void space
# The void calculation uses a probe of radius 1.32A, grid spacing 0.4
# H atom positions have been added when not included in the experimental data
# Generated hydrogen atom positions removed from atoms on special positions
#
###############################################################################

data_HERHOE
_chemical_formula_moiety         '(C160 H192 N8 O66 Zr16)n'
_symmetry_cell_setting           triclinic
_symmetry_space_group_name_H-M   'P 1'
_symmetry_Int_Tables_number      1
_space_group_name_Hall           'P 1'
loop_
_symmetry_equiv_pos_site_id
_symmetry_equiv_pos_as_xyz
1 x,y,z
_cell_length_a                   35.1569(4)
_cell_length_b                   20.1235(6)
_cell_length_c                   15.6584(2)
_cell_angle_alpha                90
_cell_angle_beta                 90
_cell_angle_gamma                90
_cell_volume                     11078
loop_
_atom_site_label
_atom_site_type_symbol
_atom_site_fract_x
_atom_site_fract_y
_atom_site_fract_z
Zr1 Zr 0.430913(9) 0.5000 0.5000
Zr2 Zr 0.5000 0.58830(2) 0.613239(19)
O1 O 0.39876(5) 0.43429(14) 0.41581(12)
O2 O 0.46603(9) 0.5899(3) 0.5000
O3 O 0.44182(5) 0.37655(17) 0.34049(16)
O4 O 0.5000 0.5821(3) 0.7524(2)
O5 O 0.46630(11) 0.5000 0.6142(3)
O6 O 0.5000 0.6964(2) 0.6052(3)
C1 C 0.40828(8) 0.3936(2) 0.3592(2)
C2 C 0.31415(8) 0.3064(3) 0.2274(2)
C3 C 0.28086(9) 0.2761(3) 0.1823(2)
C4 C 0.37613(8) 0.3618(3) 0.3110(2)
C5 C 0.38142(8) 0.3133(3) 0.2550(2)
H1 H 0.4066 0.2984 0.2436
C6 C 0.28059(8) 0.2750(3) 0.0945(2)
H2 H 0.3020 0.2918 0.0646
C7 C 0.2500 0.2500 0.2284(3)
C8 C 0.2500 0.2500 0.0476(3)
C9 C 0.30921(9) 0.3573(3) 0.2828(3)
H3 H 0.2843 0.3737 0.2929
C10 C 0.35081(9) 0.2835(3) 0.2121(2)
H4 H 0.3551 0.2481 0.1731
N1 N 0.2500 0.2500 0.3176(3)
C11 C 0.33962(9) 0.3860(3) 0.3250(3)
H5 H 0.3356 0.4220 0.3633
O7 O 0.10124(5) 0.06571(14) 0.41581(12)
O8 O 0.05818(5) 0.12345(17) 0.34049(16)
C12 C 0.09172(8) 0.1064(2) 0.3592(2)
C13 C 0.18585(8) 0.1936(3) 0.2274(2)
C14 C 0.21914(9) 0.2239(3) 0.1823(2)
C15 C 0.12387(8) 0.1382(3) 0.3110(2)
C16 C 0.11858(8) 0.1867(3) 0.2550(2)
H6 H 0.0934 0.2016 0.2436
C17 C 0.21941(8) 0.2250(3) 0.0945(2)
H7 H 0.1980 0.2082 0.0646
C18 C 0.19079(9) 0.1427(3) 0.2828(3)
H8 H 0.2157 0.1263 0.2929
C19 C 0.14919(9) 0.2165(3) 0.2121(2)
H9 H 0.1449 0.2519 0.1731
C20 C 0.16038(9) 0.1140(3) 0.3250(3)
H10 H 0.1644 0.0780 0.3633
Zr3 Zr 0.5000 0.41170(2) 0.613239(19)
O13 O 0.53397(9) 0.4101(3) 0.5000
O14 O 0.5000 0.4179(3) 0.7524(2)
O15 O 0.53370(11) 0.5000 0.6142(3)
O16 O 0.5000 0.3036(2) 0.6052(3)
Zr5 Zr 0.569087(9) 0.5000 0.5000
Zr7 Zr 0.069087(9) -0.0000 0.5000
Zr9 Zr 0.5000 0.58830(2) 0.386761(19)
Zr10 Zr 0.5000 0.41170(2) 0.386761(19)
Zr12 Zr -0.0000 0.08830(2) 0.386761(19)
O17 O 0.39876(5) 0.56571(14) 0.58419(12)
O18 O 0.39876(5) 0.43429(14) 0.58419(12)
O19 O 0.39876(5) 0.56571(14) 0.41581(12)
O20 O 0.53397(9) 0.5899(3) 0.5000
O21 O 0.46603(9) 0.4101(3) 0.5000
O22 O 0.55818(5) 0.37655(17) 0.65951(16)
O23 O 0.44182(5) 0.62345(17) 0.65951(16)
O24 O 0.55818(5) 0.62345(17) 0.65951(16)
O25 O 0.44182(5) 0.37655(17) 0.65951(16)
O26 O 0.46630(11) 0.5000 0.3858(3)
H25 H 0.227496 0.230967 0.350011
H26 H 0.272504 0.269033 0.350011
C21 C 0.40828(8) 0.3936(2) 0.6408(2)
C22 C 0.31415(8) 0.3064(3) 0.7726(2)
C23 C 0.28086(9) 0.2761(3) 0.8177(2)
C24 C 0.37613(8) 0.3618(3) 0.6890(2)
C25 C 0.38142(8) 0.3133(3) 0.7450(2)
H11 H 0.4066 0.2984 0.7564
C26 C 0.28059(8) 0.2750(3) 0.9055(2)
H12 H 0.3020 0.2918 0.9354
C27 C 0.2500 0.2500 0.7716(3)
C28 C 0.2500 0.2500 0.9524(3)
C29 C 0.30921(9) 0.3573(3) 0.7172(3)
H13 H 0.2843 0.3737 0.7071
C30 C 0.35081(9) 0.2835(3) 0.7879(2)
H14 H 0.3551 0.2481 0.8269
N2 N 0.2500 0.2500 0.6824(3)
C31 C 0.33962(9) 0.3860(3) 0.6750(3)
H15 H 0.3356 0.4220 0.6367
O11 O 0.10124(5) 0.06571(14) 0.58419(12)
O12 O 0.05818(5) 0.12345(17) 0.65951(16)
C32 C 0.09172(8) 0.1064(2) 0.6408(2)
C33 C 0.18585(8) 0.1936(3) 0.7726(2)
C34 C 0.21914(9) 0.2239(3) 0.8177(2)
C35 C 0.12387(8) 0.1382(3) 0.6890(2)
C36 C 0.11858(8) 0.1867(3) 0.7450(2)
H16 H 0.0934 0.2016 0.7564
C37 C 0.21941(8) 0.2250(3) 0.9055(2)
H17 H 0.1980 0.2082 0.9354
C38 C 0.19079(9) 0.1427(3) 0.7172(3)
H18 H 0.2157 0.1263 0.7071
C39 C 0.14919(9) 0.2165(3) 0.7879(2)
H19 H 0.1449 0.2519 0.8269
C40 C 0.16038(9) 0.1140(3) 0.6750(3)
H20 H 0.1644 0.0780 0.6367
Zr11 Zr 0.0000 0.08830(2) 0.613239(19)
H27 H 0.227496 0.230967 0.649989
H28 H 0.272504 0.269033 0.649989
Zr7_2 Zr 0.069087(9) 1.0000 0.5000
Zr12_2 Zr 1.0000 0.08830(2) 0.386761(19)
Zr11_2 Zr 1.0000 0.08830(2) 0.613239(19)
Zr12_3 Zr 0.0000 0.91170(2) 0.386761(19)
Zr11_3 Zr -0.0000 0.91170(2) 0.613239(19)
Zr7_3 Zr 0.930913(9) 0.0000 0.5000
O1_2 O 0.60124(5) 0.56571(14) 0.41581(12)
O3_2 O 0.55818(5) 0.62345(17) 0.34049(16)
C1_2 C 0.59172(8) 0.6064(2) 0.3592(2)
C2_2 C 0.68585(8) 0.6936(3) 0.2274(2)
C3_2 C 0.71914(9) 0.7239(3) 0.1823(2)
C4_2 C 0.62387(8) 0.6382(3) 0.3110(2)
C5_2 C 0.61858(8) 0.6867(3) 0.2550(2)
H1_2 H 0.5934 0.7016 0.2436
C6_2 C 0.71941(8) 0.7250(3) 0.0945(2)
H2_2 H 0.6980 0.7082 0.0646
C7_2 C 0.7500 0.7500 0.2284(3)
C8_2 C 0.7500 0.7500 0.0476(3)
C9_2 C 0.69079(9) 0.6427(3) 0.2828(3)
H3_2 H 0.7157 0.6263 0.2929
C10_2 C 0.64919(9) 0.7165(3) 0.2121(2)
H4_2 H 0.6449 0.7519 0.1731
N1_2 N 0.7500 0.7500 0.3176(3)
C11_2 C 0.66038(9) 0.6140(3) 0.3250(3)
H5_2 H 0.6644 0.5780 0.3633
O7_2 O 0.89876(5) 0.93429(14) 0.41581(12)
O8_2 O 0.94182(5) 0.87655(17) 0.34049(16)
C12_2 C 0.90828(8) 0.8936(2) 0.3592(2)
C13_2 C 0.81415(8) 0.8064(3) 0.2274(2)
C14_2 C 0.78086(9) 0.7761(3) 0.1823(2)
C15_2 C 0.87613(8) 0.8618(3) 0.3110(2)
C16_2 C 0.88142(8) 0.8133(3) 0.2550(2)
H6_2 H 0.9066 0.7984 0.2436
C17_2 C 0.78059(8) 0.7750(3) 0.0945(2)
H7_2 H 0.8020 0.7918 0.0646
C18_2 C 0.80921(9) 0.8573(3) 0.2828(3)
H8_2 H 0.7843 0.8737 0.2929
C19_2 C 0.85081(9) 0.7835(3) 0.2121(2)
H9_2 H 0.8551 0.7481 0.1731
C20_2 C 0.83962(9) 0.8860(3) 0.3250(3)
H10_2 H 0.8356 0.9220 0.3633
Zr7_4 Zr 0.930913(9) 1.0000 0.5000
Zr12_4 Zr 1.0000 0.91170(2) 0.386761(19)
O17_2 O 0.60124(5) 0.43429(14) 0.58419(12)
O18_2 O 0.60124(5) 0.56571(14) 0.58419(12)
O19_2 O 0.60124(5) 0.43429(14) 0.41581(12)
O26_2 O 0.53370(11) 0.5000 0.3858(3)
H25_2 H 0.772504 0.769033 0.350011
H26_2 H 0.727496 0.730967 0.350011
C21_2 C 0.59172(8) 0.6064(2) 0.6408(2)
C22_2 C 0.68585(8) 0.6936(3) 0.7726(2)
C23_2 C 0.71914(9) 0.7239(3) 0.8177(2)
C24_2 C 0.62387(8) 0.6382(3) 0.6890(2)
C25_2 C 0.61858(8) 0.6867(3) 0.7450(2)
H11_2 H 0.5934 0.7016 0.7564
C26_2 C 0.71941(8) 0.7250(3) 0.9055(2)
H12_2 H 0.6980 0.7082 0.9354
C27_2 C 0.7500 0.7500 0.7716(3)
C28_2 C 0.7500 0.7500 0.9524(3)
C29_2 C 0.69079(9) 0.6427(3) 0.7172(3)
H13_2 H 0.7157 0.6263 0.7071
C30_2 C 0.64919(9) 0.7165(3) 0.7879(2)
H14_2 H 0.6449 0.7519 0.8269
N2_2 N 0.7500 0.7500 0.6824(3)
C31_2 C 0.66038(9) 0.6140(3) 0.6750(3)
H15_2 H 0.6644 0.5780 0.6367
O11_2 O 0.89876(5) 0.93429(14) 0.58419(12)
O12_2 O 0.94182(5) 0.87655(17) 0.65951(16)
C32_2 C 0.90828(8) 0.8936(2) 0.6408(2)
C33_2 C 0.81415(8) 0.8064(3) 0.7726(2)
C34_2 C 0.78086(9) 0.7761(3) 0.8177(2)
C35_2 C 0.87613(8) 0.8618(3) 0.6890(2)
C36_2 C 0.88142(8) 0.8133(3) 0.7450(2)
H16_2 H 0.9066 0.7984 0.7564
C37_2 C 0.78059(8) 0.7750(3) 0.9055(2)
H17_2 H 0.8020 0.7918 0.9354
C38_2 C 0.80921(9) 0.8573(3) 0.7172(3)
H18_2 H 0.7843 0.8737 0.7071
C39_2 C 0.85081(9) 0.7835(3) 0.7879(2)
H19_2 H 0.8551 0.7481 0.8269
C40_2 C 0.83962(9) 0.8860(3) 0.6750(3)
H20_2 H 0.8356 0.9220 0.6367
Zr11_4 Zr 1.0000 0.91170(2) 0.613239(19)
H27_2 H 0.772504 0.769033 0.649989
H28_2 H 0.727496 0.730967 0.649989
O10 O 0.55818(5) 0.37655(17) 0.34049(16)
C21_3 C 0.59172(8) 0.3936(2) 0.3592(2)
C22_3 C 0.68585(8) 0.3064(3) 0.2274(2)
C23_3 C 0.71914(9) 0.2761(3) 0.1823(2)
C24_3 C 0.62387(8) 0.3618(3) 0.3110(2)
C25_3 C 0.61858(8) 0.3133(3) 0.2550(2)
H11_3 H 0.5934 0.2984 0.2436
C26_3 C 0.71941(8) 0.2750(3) 0.0945(2)
H12_3 H 0.6980 0.2918 0.0646
C27_3 C 0.7500 0.2500 0.2284(3)
C28_3 C 0.7500 0.2500 0.0476(3)
C29_3 C 0.69079(9) 0.3573(3) 0.2828(3)
H13_3 H 0.7157 0.3737 0.2929
C30_3 C 0.64919(9) 0.2835(3) 0.2121(2)
H14_3 H 0.6449 0.2481 0.1731
N2_3 N 0.7500 0.2500 0.3176(3)
C31_3 C 0.66038(9) 0.3860(3) 0.3250(3)
H15_3 H 0.6644 0.4220 0.3633
O11_3 O 0.89876(5) 0.06571(14) 0.41581(12)
O12_3 O 0.94182(5) 0.12345(17) 0.34049(16)
C32_3 C 0.90828(8) 0.1064(2) 0.3592(2)
C33_3 C 0.81415(8) 0.1936(3) 0.2274(2)
C34_3 C 0.78086(9) 0.2239(3) 0.1823(2)
C35_3 C 0.87613(8) 0.1382(3) 0.3110(2)
C36_3 C 0.88142(8) 0.1867(3) 0.2550(2)
H16_3 H 0.9066 0.2016 0.2436
C37_3 C 0.78059(8) 0.2250(3) 0.0945(2)
H17_3 H 0.8020 0.2082 0.0646
C38_3 C 0.80921(9) 0.1427(3) 0.2828(3)
H18_3 H 0.7843 0.1263 0.2929
C39_3 C 0.85081(9) 0.2165(3) 0.2121(2)
H19_3 H 0.8551 0.2519 0.1731
C40_3 C 0.83962(9) 0.1140(3) 0.3250(3)
H20_3 H 0.8356 0.0780 0.3633
H27_3 H 0.772504 0.230967 0.350011
H28_3 H 0.727496 0.269033 0.350011
O4_2 O 0.5000 0.5821(3) 0.2476(2)
O6_2 O 0.5000 0.6964(2) 0.3948(3)
C1_3 C 0.59172(8) 0.3936(2) 0.6408(2)
C2_3 C 0.68585(8) 0.3064(3) 0.7726(2)
C3_3 C 0.71914(9) 0.2761(3) 0.8177(2)
C4_3 C 0.62387(8) 0.3618(3) 0.6890(2)
C5_3 C 0.61858(8) 0.3133(3) 0.7450(2)
H1_3 H 0.5934 0.2984 0.7564
C6_3 C 0.71941(8) 0.2750(3) 0.9055(2)
H2_3 H 0.6980 0.2918 0.9354
C7_3 C 0.7500 0.2500 0.7716(3)
C8_3 C 0.7500 0.2500 0.9524(3)
C9_3 C 0.69079(9) 0.3573(3) 0.7172(3)
H3_3 H 0.7157 0.3737 0.7071
C10_3 C 0.64919(9) 0.2835(3) 0.7879(2)
H4_3 H 0.6449 0.2481 0.8269
N1_3 N 0.7500 0.2500 0.6824(3)
C11_3 C 0.66038(9) 0.3860(3) 0.6750(3)
H5_3 H 0.6644 0.4220 0.6367
O7_3 O 0.89876(5) 0.06571(14) 0.58419(12)
O8_3 O 0.94182(5) 0.12345(17) 0.65951(16)
C12_3 C 0.90828(8) 0.1064(2) 0.6408(2)
C13_3 C 0.81415(8) 0.1936(3) 0.7726(2)
C14_3 C 0.78086(9) 0.2239(3) 0.8177(2)
C15_3 C 0.87613(8) 0.1382(3) 0.6890(2)
C16_3 C 0.88142(8) 0.1867(3) 0.7450(2)
H6_3 H 0.9066 0.2016 0.7564
C17_3 C 0.78059(8) 0.2250(3) 0.9055(2)
H7_3 H 0.8020 0.2082 0.9354
C18_3 C 0.80921(9) 0.1427(3) 0.7172(3)
H8_3 H 0.7843 0.1263 0.7071
C19_3 C 0.85081(9) 0.2165(3) 0.7879(2)
H9_3 H 0.8551 0.2519 0.8269
C20_3 C 0.83962(9) 0.1140(3) 0.6750(3)
H10_3 H 0.8356 0.0780 0.6367
O14_2 O 0.5000 0.4179(3) 0.2476(2)
O16_2 O 0.5000 0.3036(2) 0.3948(3)
O24_2 O 0.44182(5) 0.62345(17) 0.34049(16)
H25_3 H 0.772504 0.230967 0.649989
H26_3 H 0.727496 0.269033 0.649989
C21_4 C 0.40828(8) 0.6064(2) 0.3592(2)
C22_4 C 0.31415(8) 0.6936(3) 0.2274(2)
C23_4 C 0.28086(9) 0.7239(3) 0.1823(2)
C24_4 C 0.37613(8) 0.6382(3) 0.3110(2)
C25_4 C 0.38142(8) 0.6867(3) 0.2550(2)
H11_4 H 0.4066 0.7016 0.2436
C26_4 C 0.28059(8) 0.7250(3) 0.0945(2)
H12_4 H 0.3020 0.7082 0.0646
C27_4 C 0.2500 0.7500 0.2284(3)
C28_4 C 0.2500 0.7500 0.0476(3)
C29_4 C 0.30921(9) 0.6427(3) 0.2828(3)
H13_4 H 0.2843 0.6263 0.2929
C30_4 C 0.35081(9) 0.7165(3) 0.2121(2)
H14_4 H 0.3551 0.7519 0.1731
N2_4 N 0.2500 0.7500 0.3176(3)
C31_4 C 0.33962(9) 0.6140(3) 0.3250(3)
H15_4 H 0.3356 0.5780 0.3633
O11_4 O 0.10124(5) 0.93429(14) 0.41581(12)
O12_4 O 0.05818(5) 0.87655(17) 0.34049(16)
C32_4 C 0.09172(8) 0.8936(2) 0.3592(2)
C33_4 C 0.18585(8) 0.8064(3) 0.2274(2)
C34_4 C 0.21914(9) 0.7761(3) 0.1823(2)
C35_4 C 0.12387(8) 0.8618(3) 0.3110(2)
C36_4 C 0.11858(8) 0.8133(3) 0.2550(2)
H16_4 H 0.0934 0.7984 0.2436
C37_4 C 0.21941(8) 0.7750(3) 0.0945(2)
H17_4 H 0.1980 0.7918 0.0646
C38_4 C 0.19079(9) 0.8573(3) 0.2828(3)
H18_4 H 0.2157 0.8737 0.2929
C39_4 C 0.14919(9) 0.7835(3) 0.2121(2)
H19_4 H 0.1449 0.7481 0.1731
C40_4 C 0.16038(9) 0.8860(3) 0.3250(3)
H20_4 H 0.1644 0.9220 0.3633
H27_4 H 0.227496 0.769033 0.350011
H28_4 H 0.272504 0.730967 0.350011
C1_4 C 0.40828(8) 0.6064(2) 0.6408(2)
C2_4 C 0.31415(8) 0.6936(3) 0.7726(2)
C3_4 C 0.28086(9) 0.7239(3) 0.8177(2)
C4_4 C 0.37613(8) 0.6382(3) 0.6890(2)
C5_4 C 0.38142(8) 0.6867(3) 0.7450(2)
H1_4 H 0.4066 0.7016 0.7564
C6_4 C 0.28059(8) 0.7250(3) 0.9055(2)
H2_4 H 0.3020 0.7082 0.9354
C7_4 C 0.2500 0.7500 0.7716(3)
C8_4 C 0.2500 0.7500 0.9524(3)
C9_4 C 0.30921(9) 0.6427(3) 0.7172(3)
H3_4 H 0.2843 0.6263 0.7071
C10_4 C 0.35081(9) 0.7165(3) 0.7879(2)
H4_4 H 0.3551 0.7519 0.8269
N1_4 N 0.2500 0.7500 0.6824(3)
C11_4 C 0.33962(9) 0.6140(3) 0.6750(3)
H5_4 H 0.3356 0.5780 0.6367
O7_4 O 0.10124(5) 0.93429(14) 0.58419(12)
O8_4 O 0.05818(5) 0.87655(17) 0.65951(16)
C12_4 C 0.09172(8) 0.8936(2) 0.6408(2)
C13_4 C 0.18585(8) 0.8064(3) 0.7726(2)
C14_4 C 0.21914(9) 0.7761(3) 0.8177(2)
C15_4 C 0.12387(8) 0.8618(3) 0.6890(2)
C16_4 C 0.11858(8) 0.8133(3) 0.7450(2)
H6_4 H 0.0934 0.7984 0.7564
C17_4 C 0.21941(8) 0.7750(3) 0.9055(2)
H7_4 H 0.1980 0.7918 0.9354
C18_4 C 0.19079(9) 0.8573(3) 0.7172(3)
H8_4 H 0.2157 0.8737 0.7071
C19_4 C 0.14919(9) 0.7835(3) 0.7879(2)
H9_4 H 0.1449 0.7481 0.8269
C20_4 C 0.16038(9) 0.8860(3) 0.6750(3)
H10_4 H 0.1644 0.9220 0.6367
H25_4 H 0.227496 0.769033 0.649989
H26_4 H 0.272504 0.730967 0.649989
O4_3 O 0.0000 0.0821(3) 0.7524(2)
O6_3 O -0.0000 0.1964(2) 0.6052(3)
O15_2 O 0.03370(11) -0.0000 0.6142(3)
O20_2 O 0.03397(9) 0.0899(3) 0.5000
O13_2 O 0.03397(9) 0.9101(3) 0.5000
O14_3 O 0.0000 0.9179(3) 0.7524(2)
O15_3 O 0.03370(11) 1.0000 0.6142(3)
O16_3 O 0.0000 0.8036(2) 0.6052(3)
O2_2 O 0.96603(9) 0.0899(3) 0.5000
O4_4 O 1.0000 0.0821(3) 0.7524(2)
O5_2 O 0.96630(11) -0.0000 0.6142(3)
O6_4 O 1.0000 0.1964(2) 0.6052(3)
O26_3 O 0.96630(11) -0.0000 0.3858(3)
O5_3 O 0.96630(11) 1.0000 0.6142(3)
O14_4 O 1.0000 0.9179(3) 0.7524(2)
O16_4 O 1.0000 0.8036(2) 0.6052(3)
O21_2 O 0.96603(9) 0.9101(3) 0.5000
O26_4 O 0.96630(11) 1.0000 0.3858(3)
O26_5 O 0.03370(11) 0.0000 0.3858(3)
O26_6 O 0.03370(11) 1.0000 0.3858(3)
O4_5 O 0.0000 0.0821(3) 0.2476(2)
O6_5 O -0.0000 0.1964(2) 0.3948(3)
O14_5 O 0.0000 0.9179(3) 0.2476(2)
O16_5 O 0.0000 0.8036(2) 0.3948(3)
O4_6 O 1.0000 0.0821(3) 0.2476(2)
O6_6 O 1.0000 0.1964(2) 0.3948(3)
O14_6 O 1.0000 0.9179(3) 0.2476(2)
O16_6 O 1.0000 0.8036(2) 0.3948(3)
loop_
_geom_bond_atom_site_label_1
_geom_bond_atom_site_label_2
_geom_bond_site_symmetry_1
_geom_bond_site_symmetry_2
Zr1 O1 1_555 1_555
Zr2 O2 1_555 1_555
O1 C1 1_555 1_555
O2 Zr1 1_555 1_555
O3 C1 1_555 1_555
O4 Zr2 1_555 1_555
O5 Zr1 1_555 1_555
O6 Zr2 1_555 1_555
C1 C4 1_555 1_555
C2 C3 1_555 1_555
C3 C6 1_555 1_555
C4 C5 1_555 1_555
C5 H1 1_555 1_555
C6 H2 1_555 1_555
C7 C3 1_555 1_555
C8 C6 1_555 1_555
C9 C2 1_555 1_555
H3 C9 1_555 1_555
C10 C2 1_555 1_555
H4 C10 1_555 1_555
N1 C7 1_555 1_555
C11 C4 1_555 1_555
H5 C11 1_555 1_555
O7 C12 1_555 1_555
O8 C12 1_555 1_555
C12 C15 1_555 1_555
C13 C14 1_555 1_555
C14 C7 1_555 1_555
C15 C16 1_555 1_555
C16 H6 1_555 1_555
C17 C8 1_555 1_555
H7 C17 1_555 1_555
C18 C13 1_555 1_555
H8 C18 1_555 1_555
C19 C13 1_555 1_555
H9 C19 1_555 1_555
C20 C15 1_555 1_555
H10 C20 1_555 1_555
Zr3 O5 1_555 1_555
O13 Zr3 1_555 1_555
O14 Zr3 1_555 1_555
O15 Zr2 1_555 1_555
O16 Zr3 1_555 1_555
Zr5 O13 1_555 1_555
Zr7 O7 1_555 1_555
Zr9 O2 1_555 1_555
Zr10 O3 1_555 1_555
Zr12 O8 1_555 1_555
O17 Zr1 1_555 1_555
O18 Zr1 1_555 1_555
O19 Zr1 1_555 1_555
O20 Zr2 1_555 1_555
O21 Zr1 1_555 1_555
O22 Zr3 1_555 1_555
O23 Zr2 1_555 1_555
O24 Zr2 1_555 1_555
O25 Zr3 1_555 1_555
O26 Zr1 1_555 1_555
Zr2 O5 1_555 1_555
C5 C10 1_555 1_555
C9 C11 1_555 1_555
C14 C17 1_555 1_555
C16 C19 1_555 1_555
C18 C20 1_555 1_555
Zr3 O15 1_555 1_555
Zr3 O21 1_555 1_555
O13 Zr10 1_555 1_555
O15 Zr5 1_555 1_555
Zr5 O20 1_555 1_555
Zr9 O20 1_555 1_555
Zr9 O26 1_555 1_555
Zr10 O21 1_555 1_555
Zr10 O26 1_555 1_555
N1 H25 1_555 1_555
N1 H26 1_555 1_555
O18 C21 1_555 1_555
O25 C21 1_555 1_555
C21 C24 1_555 1_555
C22 C23 1_555 1_555
C23 C26 1_555 1_555
C24 C25 1_555 1_555
C25 H11 1_555 1_555
C26 H12 1_555 1_555
C27 C23 1_555 1_555
C29 C22 1_555 1_555
H13 C29 1_555 1_555
C30 C22 1_555 1_555
H14 C30 1_555 1_555
N2 C27 1_555 1_555
C31 C24 1_555 1_555
H15 C31 1_555 1_555
O11 C32 1_555 1_555
O12 C32 1_555 1_555
C32 C35 1_555 1_555
C33 C34 1_555 1_555
C34 C27 1_555 1_555
C35 C36 1_555 1_555
C36 H16 1_555 1_555
C37 C28 1_555 1_555
H17 C37 1_555 1_555
C38 C33 1_555 1_555
H18 C38 1_555 1_555
C39 C33 1_555 1_555
H19 C39 1_555 1_555
C40 C35 1_555 1_555
H20 C40 1_555 1_555
Zr7 O11 1_555 1_555
Zr11 O12 1_555 1_555
C25 C30 1_555 1_555
C26 C28 1_555 1_555
C29 C31 1_555 1_555
C34 C37 1_555 1_555
C36 C39 1_555 1_555
C38 C40 1_555 1_555
N2 H27 1_555 1_555
N2 H28 1_555 1_555
Zr5 O1_2 1_555 1_555
O1_2 C1_2 1_555 1_555
O3_2 C1_2 1_555 1_555
C1_2 C4_2 1_555 1_555
C2_2 C3_2 1_555 1_555
C3_2 C6_2 1_555 1_555
C4_2 C5_2 1_555 1_555
C5_2 H1_2 1_555 1_555
C6_2 H2_2 1_555 1_555
C7_2 C3_2 1_555 1_555
C8_2 C6_2 1_555 1_555
C9_2 C2_2 1_555 1_555
H3_2 C9_2 1_555 1_555
C10_2 C2_2 1_555 1_555
H4_2 C10_2 1_555 1_555
N1_2 C7_2 1_555 1_555
C11_2 C4_2 1_555 1_555
H5_2 C11_2 1_555 1_555
O7_2 C12_2 1_555 1_555
O8_2 C12_2 1_555 1_555
C12_2 C15_2 1_555 1_555
C13_2 C14_2 1_555 1_555
C14_2 C7_2 1_555 1_555
C15_2 C16_2 1_555 1_555
C16_2 H6_2 1_555 1_555
C17_2 C8_2 1_555 1_555
H7_2 C17_2 1_555 1_555
C18_2 C13_2 1_555 1_555
H8_2 C18_2 1_555 1_555
C19_2 C13_2 1_555 1_555
H9_2 C19_2 1_555 1_555
C20_2 C15_2 1_555 1_555
H10_2 C20_2 1_555 1_555
Zr7_4 O7_2 1_555 1_555
Zr9 O3_2 1_555 1_555
Zr12_4 O8_2 1_555 1_555
O17_2 Zr5 1_555 1_555
O18_2 Zr5 1_555 1_555
O19_2 Zr5 1_555 1_555
O26_2 Zr5 1_555 1_555
C5_2 C10_2 1_555 1_555
C9_2 C11_2 1_555 1_555
C14_2 C17_2 1_555 1_555
C16_2 C19_2 1_555 1_555
C18_2 C20_2 1_555 1_555
Zr10 O26_2 1_555 1_555
Zr9 O26_2 1_555 1_555
N1_2 H25_2 1_555 1_555
N1_2 H26_2 1_555 1_555
O18_2 C21_2 1_555 1_555
O24 C21_2 1_555 1_555
C21_2 C24_2 1_555 1_555
C22_2 C23_2 1_555 1_555
C23_2 C26_2 1_555 1_555
C24_2 C25_2 1_555 1_555
C25_2 H11_2 1_555 1_555
C26_2 H12_2 1_555 1_555
C27_2 C23_2 1_555 1_555
C29_2 C22_2 1_555 1_555
H13_2 C29_2 1_555 1_555
C30_2 C22_2 1_555 1_555
H14_2 C30_2 1_555 1_555
N2_2 C27_2 1_555 1_555
C31_2 C24_2 1_555 1_555
H15_2 C31_2 1_555 1_555
O11_2 C32_2 1_555 1_555
O12_2 C32_2 1_555 1_555
C32_2 C35_2 1_555 1_555
C33_2 C34_2 1_555 1_555
C34_2 C27_2 1_555 1_555
C35_2 C36_2 1_555 1_555
C36_2 H16_2 1_555 1_555
C37_2 C28_2 1_555 1_555
H17_2 C37_2 1_555 1_555
C38_2 C33_2 1_555 1_555
H18_2 C38_2 1_555 1_555
C39_2 C33_2 1_555 1_555
H19_2 C39_2 1_555 1_555
C40_2 C35_2 1_555 1_555
H20_2 C40_2 1_555 1_555
Zr7_4 O11_2 1_555 1_555
Zr11_4 O12_2 1_555 1_555
C25_2 C30_2 1_555 1_555
C26_2 C28_2 1_555 1_555
C29_2 C31_2 1_555 1_555
C34_2 C37_2 1_555 1_555
C36_2 C39_2 1_555 1_555
C38_2 C40_2 1_555 1_555
N2_2 H27_2 1_555 1_555
N2_2 H28_2 1_555 1_555
O19_2 C21_3 1_555 1_555
O10 C21_3 1_555 1_555
C21_3 C24_3 1_555 1_555
C22_3 C23_3 1_555 1_555
C23_3 C26_3 1_555 1_555
C24_3 C25_3 1_555 1_555
C25_3 H11_3 1_555 1_555
C26_3 H12_3 1_555 1_555
C27_3 C23_3 1_555 1_555
C29_3 C22_3 1_555 1_555
H13_3 C29_3 1_555 1_555
C30_3 C22_3 1_555 1_555
H14_3 C30_3 1_555 1_555
N2_3 C27_3 1_555 1_555
C31_3 C24_3 1_555 1_555
H15_3 C31_3 1_555 1_555
O11_3 C32_3 1_555 1_555
O12_3 C32_3 1_555 1_555
C32_3 C35_3 1_555 1_555
C33_3 C34_3 1_555 1_555
C34_3 C27_3 1_555 1_555
C35_3 C36_3 1_555 1_555
C36_3 H16_3 1_555 1_555
C37_3 C28_3 1_555 1_555
H17_3 C37_3 1_555 1_555
C38_3 C33_3 1_555 1_555
H18_3 C38_3 1_555 1_555
C39_3 C33_3 1_555 1_555
H19_3 C39_3 1_555 1_555
C40_3 C35_3 1_555 1_555
H20_3 C40_3 1_555 1_555
Zr7_3 O11_3 1_555 1_555
Zr10 O10 1_555 1_555
Zr12_2 O12_3 1_555 1_555
C25_3 C30_3 1_555 1_555
C26_3 C28_3 1_555 1_555
C29_3 C31_3 1_555 1_555
C34_3 C37_3 1_555 1_555
C36_3 C39_3 1_555 1_555
C38_3 C40_3 1_555 1_555
N2_3 H27_3 1_555 1_555
N2_3 H28_3 1_555 1_555
O17_2 C1_3 1_555 1_555
O22 C1_3 1_555 1_555
O4_2 Zr9 1_555 1_555
O6_2 Zr9 1_555 1_555
C1_3 C4_3 1_555 1_555
C2_3 C3_3 1_555 1_555
C3_3 C6_3 1_555 1_555
C4_3 C5_3 1_555 1_555
C5_3 H1_3 1_555 1_555
C6_3 H2_3 1_555 1_555
C7_3 C3_3 1_555 1_555
C8_3 C6_3 1_555 1_555
C9_3 C2_3 1_555 1_555
H3_3 C9_3 1_555 1_555
C10_3 C2_3 1_555 1_555
H4_3 C10_3 1_555 1_555
N1_3 C7_3 1_555 1_555
C11_3 C4_3 1_555 1_555
H5_3 C11_3 1_555 1_555
O7_3 C12_3 1_555 1_555
O8_3 C12_3 1_555 1_555
C12_3 C15_3 1_555 1_555
C13_3 C14_3 1_555 1_555
C14_3 C7_3 1_555 1_555
C15_3 C16_3 1_555 1_555
C16_3 H6_3 1_555 1_555
C17_3 C8_3 1_555 1_555
H7_3 C17_3 1_555 1_555
C18_3 C13_3 1_555 1_555
H8_3 C18_3 1_555 1_555
C19_3 C13_3 1_555 1_555
H9_3 C19_3 1_555 1_555
C20_3 C15_3 1_555 1_555
H10_3 C20_3 1_555 1_555
O14_2 Zr10 1_555 1_555
O16_2 Zr10 1_555 1_555
Zr7_3 O7_3 1_555 1_555
Zr11_2 O8_3 1_555 1_555
O24_2 Zr9 1_555 1_555
C5_3 C10_3 1_555 1_555
C9_3 C11_3 1_555 1_555
C14_3 C17_3 1_555 1_555
C16_3 C19_3 1_555 1_555
C18_3 C20_3 1_555 1_555
N1_3 H25_3 1_555 1_555
N1_3 H26_3 1_555 1_555
O19 C21_4 1_555 1_555
O24_2 C21_4 1_555 1_555
C21_4 C24_4 1_555 1_555
C22_4 C23_4 1_555 1_555
C23_4 C26_4 1_555 1_555
C24_4 C25_4 1_555 1_555
C25_4 H11_4 1_555 1_555
C26_4 H12_4 1_555 1_555
C27_4 C23_4 1_555 1_555
C29_4 C22_4 1_555 1_555
H13_4 C29_4 1_555 1_555
C30_4 C22_4 1_555 1_555
H14_4 C30_4 1_555 1_555
N2_4 C27_4 1_555 1_555
C31_4 C24_4 1_555 1_555
H15_4 C31_4 1_555 1_555
O11_4 C32_4 1_555 1_555
O12_4 C32_4 1_555 1_555
C32_4 C35_4 1_555 1_555
C33_4 C34_4 1_555 1_555
C34_4 C27_4 1_555 1_555
C35_4 C36_4 1_555 1_555
C36_4 H16_4 1_555 1_555
C37_4 C28_4 1_555 1_555
H17_4 C37_4 1_555 1_555
C38_4 C33_4 1_555 1_555
H18_4 C38_4 1_555 1_555
C39_4 C33_4 1_555 1_555
H19_4 C39_4 1_555 1_555
C40_4 C35_4 1_555 1_555
H20_4 C40_4 1_555 1_555
Zr7_2 O11_4 1_555 1_555
Zr12_3 O12_4 1_555 1_555
C25_4 C30_4 1_555 1_555
C26_4 C28_4 1_555 1_555
C29_4 C31_4 1_555 1_555
C34_4 C37_4 1_555 1_555
C36_4 C39_4 1_555 1_555
C38_4 C40_4 1_555 1_555
N2_4 H27_4 1_555 1_555
N2_4 H28_4 1_555 1_555
O17 C1_4 1_555 1_555
O23 C1_4 1_555 1_555
C1_4 C4_4 1_555 1_555
C2_4 C3_4 1_555 1_555
C3_4 C6_4 1_555 1_555
C4_4 C5_4 1_555 1_555
C5_4 H1_4 1_555 1_555
C6_4 H2_4 1_555 1_555
C7_4 C3_4 1_555 1_555
C8_4 C6_4 1_555 1_555
C9_4 C2_4 1_555 1_555
H3_4 C9_4 1_555 1_555
C10_4 C2_4 1_555 1_555
H4_4 C10_4 1_555 1_555
N1_4 C7_4 1_555 1_555
C11_4 C4_4 1_555 1_555
H5_4 C11_4 1_555 1_555
O7_4 C12_4 1_555 1_555
O8_4 C12_4 1_555 1_555
C12_4 C15_4 1_555 1_555
C13_4 C14_4 1_555 1_555
C14_4 C7_4 1_555 1_555
C15_4 C16_4 1_555 1_555
C16_4 H6_4 1_555 1_555
C17_4 C8_4 1_555 1_555
H7_4 C17_4 1_555 1_555
C18_4 C13_4 1_555 1_555
H8_4 C18_4 1_555 1_555
C19_4 C13_4 1_555 1_555
H9_4 C19_4 1_555 1_555
C20_4 C15_4 1_555 1_555
H10_4 C20_4 1_555 1_555
Zr7_2 O7_4 1_555 1_555
Zr11_3 O8_4 1_555 1_555
C5_4 C10_4 1_555 1_555
C9_4 C11_4 1_555 1_555
C14_4 C17_4 1_555 1_555
C16_4 C19_4 1_555 1_555
C18_4 C20_4 1_555 1_555
N1_4 H25_4 1_555 1_555
N1_4 H26_4 1_555 1_555
O4_3 Zr11 1_555 1_555
O6_3 Zr11 1_555 1_555
O15_2 Zr11 1_555 1_555
O20_2 Zr11 1_555 1_555
O15_2 Zr7 1_555 1_555
Zr7 O20_2 1_555 1_555
Zr12 O20_2 1_555 1_555
O13_2 Zr11_3 1_555 1_555
O14_3 Zr11_3 1_555 1_555
O16_3 Zr11_3 1_555 1_555
Zr7_2 O13_2 1_555 1_555
Zr11_3 O15_3 1_555 1_555
O13_2 Zr12_3 1_555 1_555
O15_3 Zr7_2 1_555 1_555
Zr11_2 O2_2 1_555 1_555
O2_2 Zr7_3 1_555 1_555
O4_4 Zr11_2 1_555 1_555
O5_2 Zr7_3 1_555 1_555
O6_4 Zr11_2 1_555 1_555
Zr12_2 O2_2 1_555 1_555
O26_3 Zr7_3 1_555 1_555
Zr11_2 O5_2 1_555 1_555
Zr12_2 O26_3 1_555 1_555
O5_3 Zr7_4 1_555 1_555
Zr11_4 O5_3 1_555 1_555
O14_4 Zr11_4 1_555 1_555
O16_4 Zr11_4 1_555 1_555
O21_2 Zr7_4 1_555 1_555
O26_4 Zr7_4 1_555 1_555
Zr11_4 O21_2 1_555 1_555
Zr12_4 O21_2 1_555 1_555
Zr12_4 O26_4 1_555 1_555
O26_5 Zr7 1_555 1_555
Zr12 O26_5 1_555 1_555
O26_6 Zr7_2 1_555 1_555
Zr12_3 O26_6 1_555 1_555
O4_5 Zr12 1_555 1_555
O6_5 Zr12 1_555 1_555
O14_5 Zr12_3 1_555 1_555
O16_5 Zr12_3 1_555 1_555
O4_6 Zr12_2 1_555 1_555
O6_6 Zr12_2 1_555 1_555
O14_6 Zr12_4 1_555 1_555
O16_6 Zr12_4 1_555 1_555

#END
