
###############################################################################
#
# This file contains modified crystal structure data generated from the
# MOF subset of the Cambridge Structural Database (CSD) v543 
# hosted by the Cambridge Crystallographic Data Centre (CCDC).
#
# This work is licensed under the Creative Commons
# Attribution-NonCommercial-ShareAlike 4.0 International License.
# To view a copy of this license, visit
# http://creativecommons.org/licenses/by-nc-sa/4.0/
# or send a letter to
# Creative Commons, PO Box 1866, Mountain View, CA 94042, USA.
#
# CIF created using the CSD Python API on 29 September 2022
# The structure has been converted into the P1 space group
# The structure has a 3D framework
# The original CSD entry HERHEU is in the orthorhombic crystal system
# The framework has been calculated to contain at least 10.0% void space
# The void calculation uses a probe of radius 1.32A, grid spacing 0.4
# H atom positions have been added when not included in the experimental data
# Generated hydrogen atom positions removed from atoms on special positions
#
###############################################################################

data_HERHEU
_chemical_formula_moiety         '(C320 H432 O160 Zr42)n'
_symmetry_cell_setting           triclinic
_symmetry_space_group_name_H-M   'P 1'
_symmetry_Int_Tables_number      1
_space_group_name_Hall           'P 1'
loop_
_symmetry_equiv_pos_site_id
_symmetry_equiv_pos_as_xyz
1 x,y,z
_cell_length_a                   16.1168(11)
_cell_length_b                   33.0336(5)
_cell_length_c                   35.7249(6)
_cell_angle_alpha                90
_cell_angle_beta                 90
_cell_angle_gamma                90
_cell_volume                     19019.8
loop_
_atom_site_label
_atom_site_type_symbol
_atom_site_fract_x
_atom_site_fract_y
_atom_site_fract_z
Zr6 Zr -0.0000 0.0000 0.568021(16)
Zr5 Zr 0.0000 0.5000 0.931979(16)
Zr6_2 Zr -0.0000 1.0000 0.568021(16)
Zr4 Zr 0.5000 -0.0000 0.931979(16)
Zr6_3 Zr 1.0000 0.0000 0.568021(16)
Zr9 Zr 0.60948(5) 0.946155(13) 0.0000
Zr10 Zr 0.89052(5) 0.553845(13) 0.0000
Zr1 Zr 0.5000 0.5000 0.568021(16)
Zr2 Zr 0.39052(5) 0.446155(13) 0.5000
O1 O 0.3877(4) 0.5000 0.53293(12)
O2 O 0.5822(3) 0.53958(8) 0.59903(7)
O3 O 0.5000 0.44569(16) 0.53378(14)
O4 O 0.2572(4) 0.44872(14) 0.5000
O5 O 0.6517(3) 0.57727(9) 0.55752(7)
O6 O 0.4023(4) 0.37984(12) 0.5000
C1 C 0.7500 0.72714(14) 0.7500
C2 C 0.7291(3) 0.70611(10) 0.71781(10)
H1 H 0.7148 0.7206 0.6958
C3 C 0.7287(4) 0.66425(11) 0.71739(10)
C4 C 0.6270(4) 0.56847(14) 0.59044(11)
C5 C 0.7037(4) 0.64075(12) 0.68398(10)
C6 C 0.7500 0.64363(16) 0.7500
H2 H 0.7500 0.6149 0.7500
C7 C 0.6557(4) 0.59460(13) 0.62230(10)
C8 C 0.7285(4) 0.65120(12) 0.64816(11)
H3 H 0.7620 0.6745 0.6444
C9 C 0.7046(4) 0.62784(13) 0.61776(11)
H4 H 0.7227 0.6352 0.5934
C10 C 0.6552(4) 0.60673(13) 0.68807(11)
H5 H 0.6388 0.5987 0.7125
C11 C 0.6300(4) 0.58427(14) 0.65816(12)
H6 H 0.5948 0.5615 0.6618
O7 O 0.5822(3) 0.96042(8) 0.90097(7)
O8 O 0.6517(3) 0.92273(9) 0.94248(7)
C12 C 0.7500 0.77286(14) 0.7500
C13 C 0.7291(3) 0.79389(10) 0.78219(10)
H7 H 0.7148 0.7794 0.8042
C14 C 0.7287(4) 0.83575(11) 0.78261(10)
C15 C 0.6270(4) 0.93153(14) 0.90956(11)
C16 C 0.7037(4) 0.85925(12) 0.81602(10)
C17 C 0.7500 0.85637(16) 0.7500
H8 H 0.7500 0.8851 0.7500
C18 C 0.6557(4) 0.90540(13) 0.87770(10)
C19 C 0.7285(4) 0.84880(12) 0.85184(11)
H9 H 0.7620 0.8255 0.8556
C20 C 0.7046(4) 0.87216(13) 0.88224(11)
H10 H 0.7227 0.8648 0.9066
C21 C 0.6552(4) 0.89327(13) 0.81193(11)
H11 H 0.6388 0.9013 0.7875
C22 C 0.6300(4) 0.91573(14) 0.84184(12)
H12 H 0.5948 0.9385 0.8382
O9 O 0.9178(3) 0.53958(8) 0.90097(7)
O10 O 0.8483(3) 0.57727(9) 0.94248(7)
C23 C 0.7709(3) 0.70611(10) 0.78219(10)
H13 H 0.7852 0.7206 0.8042
C24 C 0.7713(4) 0.66425(11) 0.78261(10)
C25 C 0.8730(4) 0.56847(14) 0.90956(11)
C26 C 0.7963(4) 0.64075(12) 0.81602(10)
C27 C 0.8443(4) 0.59460(13) 0.87770(10)
C28 C 0.7715(4) 0.65120(12) 0.85184(11)
H14 H 0.7380 0.6745 0.8556
C29 C 0.7954(4) 0.62784(13) 0.88224(11)
H15 H 0.7773 0.6352 0.9066
C30 C 0.8448(4) 0.60673(13) 0.81193(11)
H16 H 0.8612 0.5987 0.7875
C31 C 0.8700(4) 0.58427(14) 0.84184(12)
H17 H 0.9052 0.5615 0.8382
O11 O 0.9178(3) 0.96042(8) 0.59903(7)
O12 O 0.8483(3) 0.92273(9) 0.55752(7)
C32 C 0.7709(3) 0.79389(10) 0.71781(10)
H18 H 0.7852 0.7794 0.6958
C33 C 0.7713(4) 0.83575(11) 0.71739(10)
C34 C 0.8730(4) 0.93153(14) 0.59044(11)
C35 C 0.7963(4) 0.85925(12) 0.68398(10)
C36 C 0.8443(4) 0.90540(13) 0.62230(10)
C37 C 0.7715(4) 0.84880(12) 0.64816(11)
H19 H 0.7380 0.8255 0.6444
C38 C 0.7954(4) 0.87216(13) 0.61776(11)
H20 H 0.7773 0.8648 0.5934
C39 C 0.8448(4) 0.89327(13) 0.68807(11)
H21 H 0.8612 0.9013 0.7125
C40 C 0.8700(4) 0.91573(14) 0.65816(12)
H22 H 0.9052 0.9385 0.6618
Zr3 Zr 0.60948(5) 0.553845(13) 0.5000
O13 O 0.6123(4) 0.5000 0.53293(12)
O14 O 0.5000 0.55431(16) 0.53378(14)
O15 O 0.7428(4) 0.55128(14) 0.5000
O16 O 0.5977(4) 0.62016(12) 0.5000
Zr4_2 Zr 0.5000 1.0000 0.931979(16)
Zr5_2 Zr 1.0000 0.5000 0.931979(16)
Zr6_4 Zr 1.0000 1.0000 0.568021(16)
Zr7 Zr 0.60948(5) 0.446155(13) 0.5000
Zr8 Zr 0.39052(5) 0.553845(13) 0.5000
Zr9_2 Zr 0.60948(5) 0.946155(13) 1.0000
Zr10_2 Zr 0.89052(5) 0.553845(13) 1.0000
Zr11 Zr 0.89052(5) 0.946155(13) 0.5000
O17 O 0.6123(4) 0.5000 0.46707(12)
O18 O 0.3877(4) 0.5000 0.46707(12)
O19 O 0.4178(3) 0.46042(8) 0.59903(7)
O20 O 0.5822(3) 0.46042(8) 0.59903(7)
O21 O 0.4178(3) 0.53958(8) 0.59903(7)
O22 O 0.5000 0.44569(16) 0.46622(14)
O23 O 0.5000 0.55431(16) 0.46622(14)
O24 O 0.3483(3) 0.42273(9) 0.55752(7)
O25 O 0.3483(3) 0.42273(9) 0.44248(7)
O26 O 0.6517(3) 0.57727(9) 0.44248(7)
Zr9_3 Zr 0.39052(5) 0.053845(13) 0.0000
Zr10_3 Zr 0.10948(5) 0.446155(13) 0.0000
C1_2 C 0.2500 0.27286(14) 0.7500
C2_2 C 0.2709(3) 0.29389(10) 0.71781(10)
H1_2 H 0.2852 0.2794 0.6958
C3_2 C 0.2713(4) 0.33575(11) 0.71739(10)
C4_2 C 0.3730(4) 0.43153(14) 0.59044(11)
C5_2 C 0.2963(4) 0.35925(12) 0.68398(10)
C6_2 C 0.2500 0.35637(16) 0.7500
H2_2 H 0.2500 0.3851 0.7500
C7_2 C 0.3443(4) 0.40540(13) 0.62230(10)
C8_2 C 0.2715(4) 0.34880(12) 0.64816(11)
H3_2 H 0.2380 0.3255 0.6444
C9_2 C 0.2954(4) 0.37216(13) 0.61776(11)
H4_2 H 0.2773 0.3648 0.5934
C10_2 C 0.3448(4) 0.39327(13) 0.68807(11)
H5_2 H 0.3612 0.4013 0.7125
C11_2 C 0.3700(4) 0.41573(14) 0.65816(12)
H6_2 H 0.4052 0.4385 0.6618
O7_2 O 0.4178(3) 0.03958(8) 0.90097(7)
O8_2 O 0.3483(3) 0.07727(9) 0.94248(7)
C12_2 C 0.2500 0.22714(14) 0.7500
C13_2 C 0.2709(3) 0.20611(10) 0.78219(10)
H7_2 H 0.2852 0.2206 0.8042
C14_2 C 0.2713(4) 0.16425(11) 0.78261(10)
C15_2 C 0.3730(4) 0.06847(14) 0.90956(11)
C16_2 C 0.2963(4) 0.14075(12) 0.81602(10)
C17_2 C 0.2500 0.14363(16) 0.7500
H8_2 H 0.2500 0.1149 0.7500
C18_2 C 0.3443(4) 0.09460(13) 0.87770(10)
C19_2 C 0.2715(4) 0.15120(12) 0.85184(11)
H9_2 H 0.2380 0.1745 0.8556
C20_2 C 0.2954(4) 0.12784(13) 0.88224(11)
H10_2 H 0.2773 0.1352 0.9066
C21_2 C 0.3448(4) 0.10673(13) 0.81193(11)
H11_2 H 0.3612 0.0987 0.7875
C22_2 C 0.3700(4) 0.08427(14) 0.84184(12)
H12_2 H 0.4052 0.0615 0.8382
O9_2 O 0.0822(3) 0.46042(8) 0.90097(7)
O10_2 O 0.1517(3) 0.42273(9) 0.94248(7)
C23_2 C 0.2291(3) 0.29389(10) 0.78219(10)
H13_2 H 0.2148 0.2794 0.8042
C24_2 C 0.2287(4) 0.33575(11) 0.78261(10)
C25_2 C 0.1270(4) 0.43153(14) 0.90956(11)
C26_2 C 0.2037(4) 0.35925(12) 0.81602(10)
C27_2 C 0.1557(4) 0.40540(13) 0.87770(10)
C28_2 C 0.2285(4) 0.34880(12) 0.85184(11)
H14_2 H 0.2620 0.3255 0.8556
C29_2 C 0.2046(4) 0.37216(13) 0.88224(11)
H15_2 H 0.2227 0.3648 0.9066
C30_2 C 0.1552(4) 0.39327(13) 0.81193(11)
H16_2 H 0.1388 0.4013 0.7875
C31_2 C 0.1300(4) 0.41573(14) 0.84184(12)
H17_2 H 0.0948 0.4385 0.8382
O11_2 O 0.0822(3) 0.03958(8) 0.59903(7)
O12_2 O 0.1517(3) 0.07727(9) 0.55752(7)
C32_2 C 0.2291(3) 0.20611(10) 0.71781(10)
H18_2 H 0.2148 0.2206 0.6958
C33_2 C 0.2287(4) 0.16425(11) 0.71739(10)
C34_2 C 0.1270(4) 0.06847(14) 0.59044(11)
C35_2 C 0.2037(4) 0.14075(12) 0.68398(10)
C36_2 C 0.1557(4) 0.09460(13) 0.62230(10)
C37_2 C 0.2285(4) 0.15120(12) 0.64816(11)
H19_2 H 0.2620 0.1745 0.6444
C38_2 C 0.2046(4) 0.12784(13) 0.61776(11)
H20_2 H 0.2227 0.1352 0.5934
C39_2 C 0.1552(4) 0.10673(13) 0.68807(11)
H21_2 H 0.1388 0.0987 0.7125
C40_2 C 0.1300(4) 0.08427(14) 0.65816(12)
H22_2 H 0.0948 0.0615 0.6618
Zr9_4 Zr 0.39052(5) 0.053845(13) 1.0000
Zr10_4 Zr 0.10948(5) 0.446155(13) 1.0000
Zr11_2 Zr 0.10948(5) 0.053845(13) 0.5000
Zr4_3 Zr 0.5000 -0.0000 0.068021(16)
Zr6_5 Zr 0.0000 0.0000 0.431979(16)
Zr1_2 Zr 0.5000 0.5000 0.431979(16)
O2_2 O 0.4178(3) 0.53958(8) 0.40097(7)
O4_2 O 0.7428(4) 0.44872(14) 0.5000
O5_2 O 0.3483(3) 0.57727(9) 0.44248(7)
O6_2 O 0.5977(4) 0.37984(12) 0.5000
C1_3 C 0.2500 0.72714(14) 0.2500
C2_3 C 0.2709(3) 0.70611(10) 0.28219(10)
H1_3 H 0.2852 0.7206 0.3042
C3_3 C 0.2713(4) 0.66425(11) 0.28261(10)
C4_3 C 0.3730(4) 0.56847(14) 0.40956(11)
C5_3 C 0.2963(4) 0.64075(12) 0.31602(10)
C6_3 C 0.2500 0.64363(16) 0.2500
H2_3 H 0.2500 0.6149 0.2500
C7_3 C 0.3443(4) 0.59460(13) 0.37770(10)
C8_3 C 0.2715(4) 0.65120(12) 0.35184(11)
H3_3 H 0.2380 0.6745 0.3556
C9_3 C 0.2954(4) 0.62784(13) 0.38224(11)
H4_3 H 0.2773 0.6352 0.4066
C10_3 C 0.3448(4) 0.60673(13) 0.31193(11)
H5_3 H 0.3612 0.5987 0.2875
C11_3 C 0.3700(4) 0.58427(14) 0.34184(12)
H6_3 H 0.4052 0.5615 0.3382
O7_3 O 0.4178(3) 0.96042(8) 0.09903(7)
O8_3 O 0.3483(3) 0.92273(9) 0.05752(7)
C12_3 C 0.2500 0.77286(14) 0.2500
C13_3 C 0.2709(3) 0.79389(10) 0.21781(10)
H7_3 H 0.2852 0.7794 0.1958
C14_3 C 0.2713(4) 0.83575(11) 0.21739(10)
C15_3 C 0.3730(4) 0.93153(14) 0.09044(11)
C16_3 C 0.2963(4) 0.85925(12) 0.18398(10)
C17_3 C 0.2500 0.85637(16) 0.2500
H8_3 H 0.2500 0.8851 0.2500
C18_3 C 0.3443(4) 0.90540(13) 0.12230(10)
C19_3 C 0.2715(4) 0.84880(12) 0.14816(11)
H9_3 H 0.2380 0.8255 0.1444
C20_3 C 0.2954(4) 0.87216(13) 0.11776(11)
H10_3 H 0.2773 0.8648 0.0934
C21_3 C 0.3448(4) 0.89327(13) 0.18807(11)
H11_3 H 0.3612 0.9013 0.2125
C22_3 C 0.3700(4) 0.91573(14) 0.15816(12)
H12_3 H 0.4052 0.9385 0.1618
O9_3 O 0.0822(3) 0.53958(8) 0.09903(7)
O10_3 O 0.1517(3) 0.57727(9) 0.05752(7)
C23_3 C 0.2291(3) 0.70611(10) 0.21781(10)
H13_3 H 0.2148 0.7206 0.1958
C24_3 C 0.2287(4) 0.66425(11) 0.21739(10)
C25_3 C 0.1270(4) 0.56847(14) 0.09044(11)
C26_3 C 0.2037(4) 0.64075(12) 0.18398(10)
C27_3 C 0.1557(4) 0.59460(13) 0.12230(10)
C28_3 C 0.2285(4) 0.65120(12) 0.14816(11)
H14_3 H 0.2620 0.6745 0.1444
C29_3 C 0.2046(4) 0.62784(13) 0.11776(11)
H15_3 H 0.2227 0.6352 0.0934
C30_3 C 0.1552(4) 0.60673(13) 0.18807(11)
H16_3 H 0.1388 0.5987 0.2125
C31_3 C 0.1300(4) 0.58427(14) 0.15816(12)
H17_3 H 0.0948 0.5615 0.1618
O11_3 O 0.0822(3) 0.96042(8) 0.40097(7)
O12_3 O 0.1517(3) 0.92273(9) 0.44248(7)
C32_3 C 0.2291(3) 0.79389(10) 0.28219(10)
H18_3 H 0.2148 0.7794 0.3042
C33_3 C 0.2287(4) 0.83575(11) 0.28261(10)
C34_3 C 0.1270(4) 0.93153(14) 0.40956(11)
C35_3 C 0.2037(4) 0.85925(12) 0.31602(10)
C36_3 C 0.1557(4) 0.90540(13) 0.37770(10)
C37_3 C 0.2285(4) 0.84880(12) 0.35184(11)
H19_3 H 0.2620 0.8255 0.3556
C38_3 C 0.2046(4) 0.87216(13) 0.38224(11)
H20_3 H 0.2227 0.8648 0.4066
C39_3 C 0.1552(4) 0.89327(13) 0.31193(11)
H21_3 H 0.1388 0.9013 0.2875
C40_3 C 0.1300(4) 0.91573(14) 0.34184(12)
H22_3 H 0.0948 0.9385 0.3382
O15_2 O 0.2572(4) 0.55128(14) 0.5000
O16_2 O 0.4023(4) 0.62016(12) 0.5000
Zr4_4 Zr 0.5000 1.0000 0.068021(16)
Zr5_3 Zr 0.0000 0.5000 0.068021(16)
Zr6_6 Zr 0.0000 1.0000 0.431979(16)
Zr9_5 Zr 0.39052(5) 0.946155(13) 0.0000
Zr10_5 Zr 0.10948(5) 0.553845(13) 0.0000
Zr11_3 Zr 0.10948(5) 0.946155(13) 0.5000
O19_2 O 0.5822(3) 0.46042(8) 0.40097(7)
O20_2 O 0.4178(3) 0.46042(8) 0.40097(7)
O21_2 O 0.5822(3) 0.53958(8) 0.40097(7)
O24_2 O 0.6517(3) 0.42273(9) 0.44248(7)
O25_2 O 0.6517(3) 0.42273(9) 0.55752(7)
O26_2 O 0.3483(3) 0.57727(9) 0.55752(7)
Zr9_6 Zr 0.39052(5) 0.946155(13) 1.0000
Zr10_6 Zr 0.10948(5) 0.553845(13) 1.0000
Zr6_7 Zr 1.0000 0.0000 0.431979(16)
Zr5_4 Zr 1.0000 0.5000 0.068021(16)
Zr6_8 Zr 1.0000 1.0000 0.431979(16)
C1_4 C 0.7500 0.27286(14) 0.2500
C2_4 C 0.7291(3) 0.29389(10) 0.28219(10)
H1_4 H 0.7148 0.2794 0.3042
C3_4 C 0.7287(4) 0.33575(11) 0.28261(10)
C4_4 C 0.6270(4) 0.43153(14) 0.40956(11)
C5_4 C 0.7037(4) 0.35925(12) 0.31602(10)
C6_4 C 0.7500 0.35637(16) 0.2500
H2_4 H 0.7500 0.3851 0.2500
C7_4 C 0.6557(4) 0.40540(13) 0.37770(10)
C8_4 C 0.7285(4) 0.34880(12) 0.35184(11)
H3_4 H 0.7620 0.3255 0.3556
C9_4 C 0.7046(4) 0.37216(13) 0.38224(11)
H4_4 H 0.7227 0.3648 0.4066
C10_4 C 0.6552(4) 0.39327(13) 0.31193(11)
H5_4 H 0.6388 0.4013 0.2875
C11_4 C 0.6300(4) 0.41573(14) 0.34184(12)
H6_4 H 0.5948 0.4385 0.3382
O7_4 O 0.5822(3) 0.03958(8) 0.09903(7)
O8_4 O 0.6517(3) 0.07727(9) 0.05752(7)
C12_4 C 0.7500 0.22714(14) 0.2500
C13_4 C 0.7291(3) 0.20611(10) 0.21781(10)
H7_4 H 0.7148 0.2206 0.1958
C14_4 C 0.7287(4) 0.16425(11) 0.21739(10)
C15_4 C 0.6270(4) 0.06847(14) 0.09044(11)
C16_4 C 0.7037(4) 0.14075(12) 0.18398(10)
C17_4 C 0.7500 0.14363(16) 0.2500
H8_4 H 0.7500 0.1149 0.2500
C18_4 C 0.6557(4) 0.09460(13) 0.12230(10)
C19_4 C 0.7285(4) 0.15120(12) 0.14816(11)
H9_4 H 0.7620 0.1745 0.1444
C20_4 C 0.7046(4) 0.12784(13) 0.11776(11)
H10_4 H 0.7227 0.1352 0.0934
C21_4 C 0.6552(4) 0.10673(13) 0.18807(11)
H11_4 H 0.6388 0.0987 0.2125
C22_4 C 0.6300(4) 0.08427(14) 0.15816(12)
H12_4 H 0.5948 0.0615 0.1618
O9_4 O 0.9178(3) 0.46042(8) 0.09903(7)
O10_4 O 0.8483(3) 0.42273(9) 0.05752(7)
C23_4 C 0.7709(3) 0.29389(10) 0.21781(10)
H13_4 H 0.7852 0.2794 0.1958
C24_4 C 0.7713(4) 0.33575(11) 0.21739(10)
C25_4 C 0.8730(4) 0.43153(14) 0.09044(11)
C26_4 C 0.7963(4) 0.35925(12) 0.18398(10)
C27_4 C 0.8443(4) 0.40540(13) 0.12230(10)
C28_4 C 0.7715(4) 0.34880(12) 0.14816(11)
H14_4 H 0.7380 0.3255 0.1444
C29_4 C 0.7954(4) 0.37216(13) 0.11776(11)
H15_4 H 0.7773 0.3648 0.0934
C30_4 C 0.8448(4) 0.39327(13) 0.18807(11)
H16_4 H 0.8612 0.4013 0.2125
C31_4 C 0.8700(4) 0.41573(14) 0.15816(12)
H17_4 H 0.9052 0.4385 0.1618
O11_4 O 0.9178(3) 0.03958(8) 0.40097(7)
O12_4 O 0.8483(3) 0.07727(9) 0.44248(7)
C32_4 C 0.7709(3) 0.20611(10) 0.28219(10)
H18_4 H 0.7852 0.2206 0.3042
C33_4 C 0.7713(4) 0.16425(11) 0.28261(10)
C34_4 C 0.8730(4) 0.06847(14) 0.40956(11)
C35_4 C 0.7963(4) 0.14075(12) 0.31602(10)
C36_4 C 0.8443(4) 0.09460(13) 0.37770(10)
C37_4 C 0.7715(4) 0.15120(12) 0.35184(11)
H19_4 H 0.7380 0.1745 0.3556
C38_4 C 0.7954(4) 0.12784(13) 0.38224(11)
H20_4 H 0.7773 0.1352 0.4066
C39_4 C 0.8448(4) 0.10673(13) 0.31193(11)
H21_4 H 0.8612 0.0987 0.2875
C40_4 C 0.8700(4) 0.08427(14) 0.34184(12)
H22_4 H 0.9052 0.0615 0.3382
Zr9_7 Zr 0.60948(5) 0.053845(13) 0.0000
Zr10_7 Zr 0.89052(5) 0.446155(13) 0.0000
Zr11_4 Zr 0.89052(5) 0.053845(13) 0.5000
Zr9_8 Zr 0.60948(5) 0.053845(13) 1.0000
Zr10_8 Zr 0.89052(5) 0.446155(13) 1.0000
O1_2 O 0.3877(4) -0.0000 0.03293(12)
O13_2 O 0.6123(4) -0.0000 0.03293(12)
O14_2 O 0.5000 0.05431(16) 0.03378(14)
O15_3 O 0.7428(4) 0.05128(14) 0.0000
O16_3 O 0.5977(4) 0.12016(12) 0.0000
O21_3 O 0.4178(3) 0.03958(8) 0.09903(7)
O15_4 O 0.7428(4) 0.05128(14) 1.0000
O16_4 O 0.5977(4) 0.12016(12) 1.0000
O17_2 O 0.6123(4) -0.0000 0.96707(12)
O18_2 O 0.3877(4) -0.0000 0.96707(12)
O23_2 O 0.5000 0.05431(16) 0.96622(14)
O26_3 O 0.6517(3) 0.07727(9) 0.94248(7)
O1_3 O 0.3877(4) 1.0000 0.03293(12)
O3_2 O 0.5000 0.94569(16) 0.03378(14)
O4_3 O 0.2572(4) 0.94872(14) 0.0000
O6_3 O 0.4023(4) 0.87984(12) 0.0000
O13_3 O 0.6123(4) 1.0000 0.03293(12)
O20_3 O 0.5822(3) 0.96042(8) 0.09903(7)
O4_4 O 0.2572(4) 0.94872(14) 1.0000
O6_4 O 0.4023(4) 0.87984(12) 1.0000
O17_3 O 0.6123(4) 1.0000 0.96707(12)
O18_3 O 0.3877(4) 1.0000 0.96707(12)
O22_2 O 0.5000 0.94569(16) 0.96622(14)
O25_3 O 0.3483(3) 0.92273(9) 0.94248(7)
O15_5 O 0.2572(4) 0.05128(14) 0.0000
O16_5 O 0.4023(4) 0.12016(12) 0.0000
O26_4 O 0.3483(3) 0.07727(9) 0.05752(7)
O15_6 O 0.2572(4) 0.05128(14) 1.0000
O16_6 O 0.4023(4) 0.12016(12) 1.0000
O21_4 O 0.5822(3) 0.03958(8) 0.90097(7)
O4_5 O 0.7428(4) 0.94872(14) 0.0000
O6_5 O 0.5977(4) 0.87984(12) 0.0000
O25_4 O 0.6517(3) 0.92273(9) 0.05752(7)
O4_6 O 0.7428(4) 0.94872(14) 1.0000
O6_6 O 0.5977(4) 0.87984(12) 1.0000
O20_4 O 0.4178(3) 0.96042(8) 0.90097(7)
O3_3 O 0.0000 0.44569(16) 0.03378(14)
O13_4 O 0.1123(4) 0.5000 0.03293(12)
O14_3 O 0.0000 0.55431(16) 0.03378(14)
O15_7 O 0.2428(4) 0.55128(14) 0.0000
O16_7 O 0.0977(4) 0.62016(12) 0.0000
O20_5 O 0.0822(3) 0.46042(8) 0.09903(7)
O15_8 O 0.2428(4) 0.55128(14) 1.0000
O16_8 O 0.0977(4) 0.62016(12) 1.0000
O17_4 O 0.1123(4) 0.5000 0.96707(12)
O22_3 O 0.0000 0.44569(16) 0.96622(14)
O23_3 O 0.0000 0.55431(16) 0.96622(14)
O26_5 O 0.1517(3) 0.57727(9) 0.94248(7)
O1_4 O 0.8877(4) 0.5000 0.03293(12)
O3_4 O 1.0000 0.44569(16) 0.03378(14)
O4_7 O 0.7572(4) 0.44872(14) 0.0000
O6_7 O 0.9023(4) 0.37984(12) 0.0000
O14_4 O 1.0000 0.55431(16) 0.03378(14)
O21_5 O 0.9178(3) 0.53958(8) 0.09903(7)
O4_8 O 0.7572(4) 0.44872(14) 1.0000
O6_8 O 0.9023(4) 0.37984(12) 1.0000
O18_4 O 0.8877(4) 0.5000 0.96707(12)
O22_4 O 1.0000 0.44569(16) 0.96622(14)
O23_4 O 1.0000 0.55431(16) 0.96622(14)
O25_5 O 0.8483(3) 0.42273(9) 0.94248(7)
O4_9 O 0.2428(4) 0.44872(14) 0.0000
O6_9 O 0.0977(4) 0.37984(12) 0.0000
O25_6 O 0.1517(3) 0.42273(9) 0.05752(7)
O4_10 O 0.2428(4) 0.44872(14) 1.0000
O6_10 O 0.0977(4) 0.37984(12) 1.0000
O21_6 O 0.0822(3) 0.53958(8) 0.90097(7)
O15_9 O 0.7572(4) 0.55128(14) 0.0000
O16_9 O 0.9023(4) 0.62016(12) 0.0000
O26_6 O 0.8483(3) 0.57727(9) 0.05752(7)
O15_10 O 0.7572(4) 0.55128(14) 1.0000
O16_10 O 0.9023(4) 0.62016(12) 1.0000
O20_6 O 0.9178(3) 0.46042(8) 0.90097(7)
O13_5 O 0.1123(4) -0.0000 0.53293(12)
O14_5 O 0.0000 0.05431(16) 0.53378(14)
O15_11 O 0.2428(4) 0.05128(14) 0.5000
O16_11 O 0.0977(4) 0.12016(12) 0.5000
O17_5 O 0.1123(4) -0.0000 0.46707(12)
O23_5 O 0.0000 0.05431(16) 0.46622(14)
O26_7 O 0.1517(3) 0.07727(9) 0.44248(7)
O3_5 O 0.0000 0.94569(16) 0.53378(14)
O13_6 O 0.1123(4) 1.0000 0.53293(12)
O17_6 O 0.1123(4) 1.0000 0.46707(12)
O20_7 O 0.0822(3) 0.96042(8) 0.59903(7)
O22_5 O 0.0000 0.94569(16) 0.46622(14)
O1_5 O 0.8877(4) -0.0000 0.53293(12)
O14_6 O 1.0000 0.05431(16) 0.53378(14)
O18_5 O 0.8877(4) -0.0000 0.46707(12)
O21_7 O 0.9178(3) 0.03958(8) 0.59903(7)
O23_6 O 1.0000 0.05431(16) 0.46622(14)
O1_6 O 0.8877(4) 1.0000 0.53293(12)
O3_6 O 1.0000 0.94569(16) 0.53378(14)
O4_11 O 0.7572(4) 0.94872(14) 0.5000
O6_11 O 0.9023(4) 0.87984(12) 0.5000
O18_6 O 0.8877(4) 1.0000 0.46707(12)
O22_6 O 1.0000 0.94569(16) 0.46622(14)
O25_7 O 0.8483(3) 0.92273(9) 0.44248(7)
O21_8 O 0.0822(3) 0.03958(8) 0.40097(7)
O4_12 O 0.2428(4) 0.94872(14) 0.5000
O6_12 O 0.0977(4) 0.87984(12) 0.5000
O25_8 O 0.1517(3) 0.92273(9) 0.55752(7)
O15_12 O 0.7572(4) 0.05128(14) 0.5000
O16_12 O 0.9023(4) 0.12016(12) 0.5000
O26_8 O 0.8483(3) 0.07727(9) 0.55752(7)
O20_8 O 0.9178(3) 0.96042(8) 0.40097(7)
C1_5 C 0.2500 0.27286(14) 0.2500
C2_5 C 0.2709(3) 0.29389(10) 0.28219(10)
H1_5 H 0.2852 0.2794 0.3042
C3_5 C 0.2713(4) 0.33575(11) 0.28261(10)
C4_5 C 0.3730(4) 0.43153(14) 0.40956(11)
C5_5 C 0.2963(4) 0.35925(12) 0.31602(10)
C6_5 C 0.2500 0.35637(16) 0.2500
H2_5 H 0.2500 0.3851 0.2500
C7_5 C 0.3443(4) 0.40540(13) 0.37770(10)
C8_5 C 0.2715(4) 0.34880(12) 0.35184(11)
H3_5 H 0.2380 0.3255 0.3556
C9_5 C 0.2954(4) 0.37216(13) 0.38224(11)
H4_5 H 0.2773 0.3648 0.4066
C10_5 C 0.3448(4) 0.39327(13) 0.31193(11)
H5_5 H 0.3612 0.4013 0.2875
C11_5 C 0.3700(4) 0.41573(14) 0.34184(12)
H6_5 H 0.4052 0.4385 0.3382
C12_5 C 0.2500 0.22714(14) 0.2500
C13_5 C 0.2709(3) 0.20611(10) 0.21781(10)
H7_5 H 0.2852 0.2206 0.1958
C14_5 C 0.2713(4) 0.16425(11) 0.21739(10)
C15_5 C 0.3730(4) 0.06847(14) 0.09044(11)
C16_5 C 0.2963(4) 0.14075(12) 0.18398(10)
C17_5 C 0.2500 0.14363(16) 0.2500
H8_5 H 0.2500 0.1149 0.2500
C18_5 C 0.3443(4) 0.09460(13) 0.12230(10)
C19_5 C 0.2715(4) 0.15120(12) 0.14816(11)
H9_5 H 0.2380 0.1745 0.1444
C20_5 C 0.2954(4) 0.12784(13) 0.11776(11)
H10_5 H 0.2773 0.1352 0.0934
C21_5 C 0.3448(4) 0.10673(13) 0.18807(11)
H11_5 H 0.3612 0.0987 0.2125
C22_5 C 0.3700(4) 0.08427(14) 0.15816(12)
H12_5 H 0.4052 0.0615 0.1618
C23_5 C 0.2291(3) 0.29389(10) 0.21781(10)
H13_5 H 0.2148 0.2794 0.1958
C24_5 C 0.2287(4) 0.33575(11) 0.21739(10)
C25_5 C 0.1270(4) 0.43153(14) 0.09044(11)
C26_5 C 0.2037(4) 0.35925(12) 0.18398(10)
C27_5 C 0.1557(4) 0.40540(13) 0.12230(10)
C28_5 C 0.2285(4) 0.34880(12) 0.14816(11)
H14_5 H 0.2620 0.3255 0.1444
C29_5 C 0.2046(4) 0.37216(13) 0.11776(11)
H15_5 H 0.2227 0.3648 0.0934
C30_5 C 0.1552(4) 0.39327(13) 0.18807(11)
H16_5 H 0.1388 0.4013 0.2125
C31_5 C 0.1300(4) 0.41573(14) 0.15816(12)
H17_5 H 0.0948 0.4385 0.1618
C32_5 C 0.2291(3) 0.20611(10) 0.28219(10)
H18_5 H 0.2148 0.2206 0.3042
C33_5 C 0.2287(4) 0.16425(11) 0.28261(10)
C34_5 C 0.1270(4) 0.06847(14) 0.40956(11)
C35_5 C 0.2037(4) 0.14075(12) 0.31602(10)
C36_5 C 0.1557(4) 0.09460(13) 0.37770(10)
C37_5 C 0.2285(4) 0.15120(12) 0.35184(11)
H19_5 H 0.2620 0.1745 0.3556
C38_5 C 0.2046(4) 0.12784(13) 0.38224(11)
H20_5 H 0.2227 0.1352 0.4066
C39_5 C 0.1552(4) 0.10673(13) 0.31193(11)
H21_5 H 0.1388 0.0987 0.2875
C40_5 C 0.1300(4) 0.08427(14) 0.34184(12)
H22_5 H 0.0948 0.0615 0.3382
C1_6 C 0.7500 0.72714(14) 0.2500
C2_6 C 0.7291(3) 0.70611(10) 0.28219(10)
H1_6 H 0.7148 0.7206 0.3042
C3_6 C 0.7287(4) 0.66425(11) 0.28261(10)
C4_6 C 0.6270(4) 0.56847(14) 0.40956(11)
C5_6 C 0.7037(4) 0.64075(12) 0.31602(10)
C6_6 C 0.7500 0.64363(16) 0.2500
H2_6 H 0.7500 0.6149 0.2500
C7_6 C 0.6557(4) 0.59460(13) 0.37770(10)
C8_6 C 0.7285(4) 0.65120(12) 0.35184(11)
H3_6 H 0.7620 0.6745 0.3556
C9_6 C 0.7046(4) 0.62784(13) 0.38224(11)
H4_6 H 0.7227 0.6352 0.4066
C10_6 C 0.6552(4) 0.60673(13) 0.31193(11)
H5_6 H 0.6388 0.5987 0.2875
C11_6 C 0.6300(4) 0.58427(14) 0.34184(12)
H6_6 H 0.5948 0.5615 0.3382
C12_6 C 0.7500 0.77286(14) 0.2500
C13_6 C 0.7291(3) 0.79389(10) 0.21781(10)
H7_6 H 0.7148 0.7794 0.1958
C14_6 C 0.7287(4) 0.83575(11) 0.21739(10)
C15_6 C 0.6270(4) 0.93153(14) 0.09044(11)
C16_6 C 0.7037(4) 0.85925(12) 0.18398(10)
C17_6 C 0.7500 0.85637(16) 0.2500
H8_6 H 0.7500 0.8851 0.2500
C18_6 C 0.6557(4) 0.90540(13) 0.12230(10)
C19_6 C 0.7285(4) 0.84880(12) 0.14816(11)
H9_6 H 0.7620 0.8255 0.1444
C20_6 C 0.7046(4) 0.87216(13) 0.11776(11)
H10_6 H 0.7227 0.8648 0.0934
C21_6 C 0.6552(4) 0.89327(13) 0.18807(11)
H11_6 H 0.6388 0.9013 0.2125
C22_6 C 0.6300(4) 0.91573(14) 0.15816(12)
H12_6 H 0.5948 0.9385 0.1618
C23_6 C 0.7709(3) 0.70611(10) 0.21781(10)
H13_6 H 0.7852 0.7206 0.1958
C24_6 C 0.7713(4) 0.66425(11) 0.21739(10)
C25_6 C 0.8730(4) 0.56847(14) 0.09044(11)
C26_6 C 0.7963(4) 0.64075(12) 0.18398(10)
C27_6 C 0.8443(4) 0.59460(13) 0.12230(10)
C28_6 C 0.7715(4) 0.65120(12) 0.14816(11)
H14_6 H 0.7380 0.6745 0.1444
C29_6 C 0.7954(4) 0.62784(13) 0.11776(11)
H15_6 H 0.7773 0.6352 0.0934
C30_6 C 0.8448(4) 0.60673(13) 0.18807(11)
H16_6 H 0.8612 0.5987 0.2125
C31_6 C 0.8700(4) 0.58427(14) 0.15816(12)
H17_6 H 0.9052 0.5615 0.1618
C32_6 C 0.7709(3) 0.79389(10) 0.28219(10)
H18_6 H 0.7852 0.7794 0.3042
C33_6 C 0.7713(4) 0.83575(11) 0.28261(10)
C34_6 C 0.8730(4) 0.93153(14) 0.40956(11)
C35_6 C 0.7963(4) 0.85925(12) 0.31602(10)
C36_6 C 0.8443(4) 0.90540(13) 0.37770(10)
C37_6 C 0.7715(4) 0.84880(12) 0.35184(11)
H19_6 H 0.7380 0.8255 0.3556
C38_6 C 0.7954(4) 0.87216(13) 0.38224(11)
H20_6 H 0.7773 0.8648 0.4066
C39_6 C 0.8448(4) 0.89327(13) 0.31193(11)
H21_6 H 0.8612 0.9013 0.2875
C40_6 C 0.8700(4) 0.91573(14) 0.34184(12)
H22_6 H 0.9052 0.9385 0.3382
C1_7 C 0.7500 0.27286(14) 0.7500
C2_7 C 0.7291(3) 0.29389(10) 0.71781(10)
H1_7 H 0.7148 0.2794 0.6958
C3_7 C 0.7287(4) 0.33575(11) 0.71739(10)
C4_7 C 0.6270(4) 0.43153(14) 0.59044(11)
C5_7 C 0.7037(4) 0.35925(12) 0.68398(10)
C6_7 C 0.7500 0.35637(16) 0.7500
H2_7 H 0.7500 0.3851 0.7500
C7_7 C 0.6557(4) 0.40540(13) 0.62230(10)
C8_7 C 0.7285(4) 0.34880(12) 0.64816(11)
H3_7 H 0.7620 0.3255 0.6444
C9_7 C 0.7046(4) 0.37216(13) 0.61776(11)
H4_7 H 0.7227 0.3648 0.5934
C10_7 C 0.6552(4) 0.39327(13) 0.68807(11)
H5_7 H 0.6388 0.4013 0.7125
C11_7 C 0.6300(4) 0.41573(14) 0.65816(12)
H6_7 H 0.5948 0.4385 0.6618
C12_7 C 0.7500 0.22714(14) 0.7500
C13_7 C 0.7291(3) 0.20611(10) 0.78219(10)
H7_7 H 0.7148 0.2206 0.8042
C14_7 C 0.7287(4) 0.16425(11) 0.78261(10)
C15_7 C 0.6270(4) 0.06847(14) 0.90956(11)
C16_7 C 0.7037(4) 0.14075(12) 0.81602(10)
C17_7 C 0.7500 0.14363(16) 0.7500
H8_7 H 0.7500 0.1149 0.7500
C18_7 C 0.6557(4) 0.09460(13) 0.87770(10)
C19_7 C 0.7285(4) 0.15120(12) 0.85184(11)
H9_7 H 0.7620 0.1745 0.8556
C20_7 C 0.7046(4) 0.12784(13) 0.88224(11)
H10_7 H 0.7227 0.1352 0.9066
C21_7 C 0.6552(4) 0.10673(13) 0.81193(11)
H11_7 H 0.6388 0.0987 0.7875
C22_7 C 0.6300(4) 0.08427(14) 0.84184(12)
H12_7 H 0.5948 0.0615 0.8382
C23_7 C 0.7709(3) 0.29389(10) 0.78219(10)
H13_7 H 0.7852 0.2794 0.8042
C24_7 C 0.7713(4) 0.33575(11) 0.78261(10)
C25_7 C 0.8730(4) 0.43153(14) 0.90956(11)
C26_7 C 0.7963(4) 0.35925(12) 0.81602(10)
C27_7 C 0.8443(4) 0.40540(13) 0.87770(10)
C28_7 C 0.7715(4) 0.34880(12) 0.85184(11)
H14_7 H 0.7380 0.3255 0.8556
C29_7 C 0.7954(4) 0.37216(13) 0.88224(11)
H15_7 H 0.7773 0.3648 0.9066
C30_7 C 0.8448(4) 0.39327(13) 0.81193(11)
H16_7 H 0.8612 0.4013 0.7875
C31_7 C 0.8700(4) 0.41573(14) 0.84184(12)
H17_7 H 0.9052 0.4385 0.8382
C32_7 C 0.7709(3) 0.20611(10) 0.71781(10)
H18_7 H 0.7852 0.2206 0.6958
C33_7 C 0.7713(4) 0.16425(11) 0.71739(10)
C34_7 C 0.8730(4) 0.06847(14) 0.59044(11)
C35_7 C 0.7963(4) 0.14075(12) 0.68398(10)
C36_7 C 0.8443(4) 0.09460(13) 0.62230(10)
C37_7 C 0.7715(4) 0.15120(12) 0.64816(11)
H19_7 H 0.7380 0.1745 0.6444
C38_7 C 0.7954(4) 0.12784(13) 0.61776(11)
H20_7 H 0.7773 0.1352 0.5934
C39_7 C 0.8448(4) 0.10673(13) 0.68807(11)
H21_7 H 0.8612 0.0987 0.7125
C40_7 C 0.8700(4) 0.08427(14) 0.65816(12)
H22_7 H 0.9052 0.0615 0.6618
C1_8 C 0.2500 0.72714(14) 0.7500
C2_8 C 0.2709(3) 0.70611(10) 0.71781(10)
H1_8 H 0.2852 0.7206 0.6958
C3_8 C 0.2713(4) 0.66425(11) 0.71739(10)
C4_8 C 0.3730(4) 0.56847(14) 0.59044(11)
C5_8 C 0.2963(4) 0.64075(12) 0.68398(10)
C6_8 C 0.2500 0.64363(16) 0.7500
H2_8 H 0.2500 0.6149 0.7500
C7_8 C 0.3443(4) 0.59460(13) 0.62230(10)
C8_8 C 0.2715(4) 0.65120(12) 0.64816(11)
H3_8 H 0.2380 0.6745 0.6444
C9_8 C 0.2954(4) 0.62784(13) 0.61776(11)
H4_8 H 0.2773 0.6352 0.5934
C10_8 C 0.3448(4) 0.60673(13) 0.68807(11)
H5_8 H 0.3612 0.5987 0.7125
C11_8 C 0.3700(4) 0.58427(14) 0.65816(12)
H6_8 H 0.4052 0.5615 0.6618
C12_8 C 0.2500 0.77286(14) 0.7500
C13_8 C 0.2709(3) 0.79389(10) 0.78219(10)
H7_8 H 0.2852 0.7794 0.8042
C14_8 C 0.2713(4) 0.83575(11) 0.78261(10)
C15_8 C 0.3730(4) 0.93153(14) 0.90956(11)
C16_8 C 0.2963(4) 0.85925(12) 0.81602(10)
C17_8 C 0.2500 0.85637(16) 0.7500
H8_8 H 0.2500 0.8851 0.7500
C18_8 C 0.3443(4) 0.90540(13) 0.87770(10)
C19_8 C 0.2715(4) 0.84880(12) 0.85184(11)
H9_8 H 0.2380 0.8255 0.8556
C20_8 C 0.2954(4) 0.87216(13) 0.88224(11)
H10_8 H 0.2773 0.8648 0.9066
C21_8 C 0.3448(4) 0.89327(13) 0.81193(11)
H11_8 H 0.3612 0.9013 0.7875
C22_8 C 0.3700(4) 0.91573(14) 0.84184(12)
H12_8 H 0.4052 0.9385 0.8382
C23_8 C 0.2291(3) 0.70611(10) 0.78219(10)
H13_8 H 0.2148 0.7206 0.8042
C24_8 C 0.2287(4) 0.66425(11) 0.78261(10)
C25_8 C 0.1270(4) 0.56847(14) 0.90956(11)
C26_8 C 0.2037(4) 0.64075(12) 0.81602(10)
C27_8 C 0.1557(4) 0.59460(13) 0.87770(10)
C28_8 C 0.2285(4) 0.65120(12) 0.85184(11)
H14_8 H 0.2620 0.6745 0.8556
C29_8 C 0.2046(4) 0.62784(13) 0.88224(11)
H15_8 H 0.2227 0.6352 0.9066
C30_8 C 0.1552(4) 0.60673(13) 0.81193(11)
H16_8 H 0.1388 0.5987 0.7875
C31_8 C 0.1300(4) 0.58427(14) 0.84184(12)
H17_8 H 0.0948 0.5615 0.8382
C32_8 C 0.2291(3) 0.79389(10) 0.71781(10)
H18_8 H 0.2148 0.7794 0.6958
C33_8 C 0.2287(4) 0.83575(11) 0.71739(10)
C34_8 C 0.1270(4) 0.93153(14) 0.59044(11)
C35_8 C 0.2037(4) 0.85925(12) 0.68398(10)
C36_8 C 0.1557(4) 0.90540(13) 0.62230(10)
C37_8 C 0.2285(4) 0.84880(12) 0.64816(11)
H19_8 H 0.2620 0.8255 0.6444
C38_8 C 0.2046(4) 0.87216(13) 0.61776(11)
H20_8 H 0.2227 0.8648 0.5934
C39_8 C 0.1552(4) 0.89327(13) 0.68807(11)
H21_8 H 0.1388 0.9013 0.7125
C40_8 C 0.1300(4) 0.91573(14) 0.65816(12)
H22_8 H 0.0948 0.9385 0.6618
loop_
_geom_bond_atom_site_label_1
_geom_bond_atom_site_label_2
_geom_bond_site_symmetry_1
_geom_bond_site_symmetry_2
Zr1 O1 1_555 1_555
Zr2 O1 1_555 1_555
O1 Zr8 1_555 1_555
O2 Zr1 1_555 1_555
O3 Zr1 1_555 1_555
O4 Zr2 1_555 1_555
O5 C4 1_555 1_555
O6 Zr2 1_555 1_555
C1 C2 1_555 1_555
C2 H1 1_555 1_555
C3 C2 1_555 1_555
C4 O2 1_555 1_555
C5 C3 1_555 1_555
C6 C3 1_555 1_555
H2 C6 1_555 1_555
C7 C4 1_555 1_555
C8 C5 1_555 1_555
H3 C8 1_555 1_555
C9 C7 1_555 1_555
H4 C9 1_555 1_555
C10 C5 1_555 1_555
H5 C10 1_555 1_555
C11 C7 1_555 1_555
H6 C11 1_555 1_555
O7 C15 1_555 1_555
O8 C15 1_555 1_555
C12 C1 1_555 1_555
C13 C12 1_555 1_555
H7 C13 1_555 1_555
C14 C13 1_555 1_555
C15 C18 1_555 1_555
C16 C14 1_555 1_555
C17 C14 1_555 1_555
H8 C17 1_555 1_555
C18 C20 1_555 1_555
C19 C16 1_555 1_555
H9 C19 1_555 1_555
C20 C19 1_555 1_555
H10 C20 1_555 1_555
C21 C16 1_555 1_555
H11 C21 1_555 1_555
C22 C18 1_555 1_555
H12 C22 1_555 1_555
O9 C25 1_555 1_555
O10 C25 1_555 1_555
C23 C1 1_555 1_555
H13 C23 1_555 1_555
C24 C6 1_555 1_555
C25 C27 1_555 1_555
C26 C24 1_555 1_555
C27 C29 1_555 1_555
C28 C26 1_555 1_555
H14 C28 1_555 1_555
C29 C28 1_555 1_555
H15 C29 1_555 1_555
C30 C26 1_555 1_555
H16 C30 1_555 1_555
C31 C27 1_555 1_555
H17 C31 1_555 1_555
O11 C34 1_555 1_555
O12 C34 1_555 1_555
C32 C12 1_555 1_555
H18 C32 1_555 1_555
C33 C17 1_555 1_555
C34 C36 1_555 1_555
C35 C33 1_555 1_555
C36 C38 1_555 1_555
C37 C35 1_555 1_555
H19 C37 1_555 1_555
C38 C37 1_555 1_555
H20 C38 1_555 1_555
C39 C35 1_555 1_555
H21 C39 1_555 1_555
C40 C36 1_555 1_555
H22 C40 1_555 1_555
Zr3 O5 1_555 1_555
O13 Zr1 1_555 1_555
O14 Zr1 1_555 1_555
O15 Zr3 1_555 1_555
O16 Zr3 1_555 1_555
Zr4_2 O7 1_555 1_555
Zr5_2 O9 1_555 1_555
Zr6_4 O11 1_555 1_555
Zr7 O3 1_555 1_555
Zr8 O14 1_555 1_555
Zr9_2 O8 1_555 1_555
Zr10_2 O10 1_555 1_555
Zr11 O12 1_555 1_555
O17 Zr3 1_555 1_555
O18 Zr2 1_555 1_555
O19 Zr1 1_555 1_555
O20 Zr1 1_555 1_555
O21 Zr1 1_555 1_555
O22 Zr2 1_555 1_555
O23 Zr3 1_555 1_555
O24 Zr2 1_555 1_555
O25 Zr2 1_555 1_555
O26 Zr3 1_555 1_555
Zr2 O3 1_555 1_555
C8 C9 1_555 1_555
C10 C11 1_555 1_555
C21 C22 1_555 1_555
C23 C24 1_555 1_555
C30 C31 1_555 1_555
C32 C33 1_555 1_555
C39 C40 1_555 1_555
Zr3 O13 1_555 1_555
Zr3 O14 1_555 1_555
O13 Zr7 1_555 1_555
Zr7 O17 1_555 1_555
Zr7 O22 1_555 1_555
Zr8 O18 1_555 1_555
Zr8 O23 1_555 1_555
O24 C4_2 1_555 1_555
C1_2 C2_2 1_555 1_555
C2_2 H1_2 1_555 1_555
C3_2 C2_2 1_555 1_555
C4_2 O19 1_555 1_555
C5_2 C3_2 1_555 1_555
C6_2 C3_2 1_555 1_555
H2_2 C6_2 1_555 1_555
C7_2 C4_2 1_555 1_555
C8_2 C5_2 1_555 1_555
H3_2 C8_2 1_555 1_555
C9_2 C7_2 1_555 1_555
H4_2 C9_2 1_555 1_555
C10_2 C5_2 1_555 1_555
H5_2 C10_2 1_555 1_555
C11_2 C7_2 1_555 1_555
H6_2 C11_2 1_555 1_555
O7_2 C15_2 1_555 1_555
O8_2 C15_2 1_555 1_555
C12_2 C1_2 1_555 1_555
C13_2 C12_2 1_555 1_555
H7_2 C13_2 1_555 1_555
C14_2 C13_2 1_555 1_555
C15_2 C18_2 1_555 1_555
C16_2 C14_2 1_555 1_555
C17_2 C14_2 1_555 1_555
H8_2 C17_2 1_555 1_555
C18_2 C20_2 1_555 1_555
C19_2 C16_2 1_555 1_555
H9_2 C19_2 1_555 1_555
C20_2 C19_2 1_555 1_555
H10_2 C20_2 1_555 1_555
C21_2 C16_2 1_555 1_555
H11_2 C21_2 1_555 1_555
C22_2 C18_2 1_555 1_555
H12_2 C22_2 1_555 1_555
O9_2 C25_2 1_555 1_555
O10_2 C25_2 1_555 1_555
C23_2 C1_2 1_555 1_555
H13_2 C23_2 1_555 1_555
C24_2 C6_2 1_555 1_555
C25_2 C27_2 1_555 1_555
C26_2 C24_2 1_555 1_555
C27_2 C29_2 1_555 1_555
C28_2 C26_2 1_555 1_555
H14_2 C28_2 1_555 1_555
C29_2 C28_2 1_555 1_555
H15_2 C29_2 1_555 1_555
C30_2 C26_2 1_555 1_555
H16_2 C30_2 1_555 1_555
C31_2 C27_2 1_555 1_555
H17_2 C31_2 1_555 1_555
O11_2 C34_2 1_555 1_555
O12_2 C34_2 1_555 1_555
C32_2 C12_2 1_555 1_555
H18_2 C32_2 1_555 1_555
C33_2 C17_2 1_555 1_555
C34_2 C36_2 1_555 1_555
C35_2 C33_2 1_555 1_555
C36_2 C38_2 1_555 1_555
C37_2 C35_2 1_555 1_555
H19_2 C37_2 1_555 1_555
C38_2 C37_2 1_555 1_555
H20_2 C38_2 1_555 1_555
C39_2 C35_2 1_555 1_555
H21_2 C39_2 1_555 1_555
C40_2 C36_2 1_555 1_555
H22_2 C40_2 1_555 1_555
Zr4 O7_2 1_555 1_555
Zr5 O9_2 1_555 1_555
Zr6 O11_2 1_555 1_555
Zr9_4 O8_2 1_555 1_555
Zr10_4 O10_2 1_555 1_555
Zr11_2 O12_2 1_555 1_555
C8_2 C9_2 1_555 1_555
C10_2 C11_2 1_555 1_555
C21_2 C22_2 1_555 1_555
C23_2 C24_2 1_555 1_555
C30_2 C31_2 1_555 1_555
C32_2 C33_2 1_555 1_555
C39_2 C40_2 1_555 1_555
Zr1_2 O17 1_555 1_555
O2_2 Zr1_2 1_555 1_555
O22 Zr1_2 1_555 1_555
O4_2 Zr7 1_555 1_555
O5_2 C4_3 1_555 1_555
O6_2 Zr7 1_555 1_555
C1_3 C2_3 1_555 1_555
C2_3 H1_3 1_555 1_555
C3_3 C2_3 1_555 1_555
C4_3 O2_2 1_555 1_555
C5_3 C3_3 1_555 1_555
C6_3 C3_3 1_555 1_555
H2_3 C6_3 1_555 1_555
C7_3 C4_3 1_555 1_555
C8_3 C5_3 1_555 1_555
H3_3 C8_3 1_555 1_555
C9_3 C7_3 1_555 1_555
H4_3 C9_3 1_555 1_555
C10_3 C5_3 1_555 1_555
H5_3 C10_3 1_555 1_555
C11_3 C7_3 1_555 1_555
H6_3 C11_3 1_555 1_555
O7_3 C15_3 1_555 1_555
O8_3 C15_3 1_555 1_555
C12_3 C1_3 1_555 1_555
C13_3 C12_3 1_555 1_555
H7_3 C13_3 1_555 1_555
C14_3 C13_3 1_555 1_555
C15_3 C18_3 1_555 1_555
C16_3 C14_3 1_555 1_555
C17_3 C14_3 1_555 1_555
H8_3 C17_3 1_555 1_555
C18_3 C20_3 1_555 1_555
C19_3 C16_3 1_555 1_555
H9_3 C19_3 1_555 1_555
C20_3 C19_3 1_555 1_555
H10_3 C20_3 1_555 1_555
C21_3 C16_3 1_555 1_555
H11_3 C21_3 1_555 1_555
C22_3 C18_3 1_555 1_555
H12_3 C22_3 1_555 1_555
O9_3 C25_3 1_555 1_555
O10_3 C25_3 1_555 1_555
C23_3 C1_3 1_555 1_555
H13_3 C23_3 1_555 1_555
C24_3 C6_3 1_555 1_555
C25_3 C27_3 1_555 1_555
C26_3 C24_3 1_555 1_555
C27_3 C29_3 1_555 1_555
C28_3 C26_3 1_555 1_555
H14_3 C28_3 1_555 1_555
C29_3 C28_3 1_555 1_555
H15_3 C29_3 1_555 1_555
C30_3 C26_3 1_555 1_555
H16_3 C30_3 1_555 1_555
C31_3 C27_3 1_555 1_555
H17_3 C31_3 1_555 1_555
O11_3 C34_3 1_555 1_555
O12_3 C34_3 1_555 1_555
C32_3 C12_3 1_555 1_555
H18_3 C32_3 1_555 1_555
C33_3 C17_3 1_555 1_555
C34_3 C36_3 1_555 1_555
C35_3 C33_3 1_555 1_555
C36_3 C38_3 1_555 1_555
C37_3 C35_3 1_555 1_555
H19_3 C37_3 1_555 1_555
C38_3 C37_3 1_555 1_555
H20_3 C38_3 1_555 1_555
C39_3 C35_3 1_555 1_555
H21_3 C39_3 1_555 1_555
C40_3 C36_3 1_555 1_555
H22_3 C40_3 1_555 1_555
Zr8 O5_2 1_555 1_555
O18 Zr1_2 1_555 1_555
O23 Zr1_2 1_555 1_555
O15_2 Zr8 1_555 1_555
O16_2 Zr8 1_555 1_555
Zr4_4 O7_3 1_555 1_555
Zr5_3 O9_3 1_555 1_555
Zr6_6 O11_3 1_555 1_555
Zr9_5 O8_3 1_555 1_555
Zr10_5 O10_3 1_555 1_555
Zr11_3 O12_3 1_555 1_555
O19_2 Zr1_2 1_555 1_555
O20_2 Zr1_2 1_555 1_555
O21_2 Zr1_2 1_555 1_555
O24_2 Zr7 1_555 1_555
O25_2 Zr7 1_555 1_555
O26_2 Zr8 1_555 1_555
C8_3 C9_3 1_555 1_555
C10_3 C11_3 1_555 1_555
C21_3 C22_3 1_555 1_555
C23_3 C24_3 1_555 1_555
C30_3 C31_3 1_555 1_555
C32_3 C33_3 1_555 1_555
C39_3 C40_3 1_555 1_555
O24_2 C4_4 1_555 1_555
C1_4 C2_4 1_555 1_555
C2_4 H1_4 1_555 1_555
C3_4 C2_4 1_555 1_555
C4_4 O19_2 1_555 1_555
C5_4 C3_4 1_555 1_555
C6_4 C3_4 1_555 1_555
H2_4 C6_4 1_555 1_555
C7_4 C4_4 1_555 1_555
C8_4 C5_4 1_555 1_555
H3_4 C8_4 1_555 1_555
C9_4 C7_4 1_555 1_555
H4_4 C9_4 1_555 1_555
C10_4 C5_4 1_555 1_555
H5_4 C10_4 1_555 1_555
C11_4 C7_4 1_555 1_555
H6_4 C11_4 1_555 1_555
O7_4 C15_4 1_555 1_555
O8_4 C15_4 1_555 1_555
C12_4 C1_4 1_555 1_555
C13_4 C12_4 1_555 1_555
H7_4 C13_4 1_555 1_555
C14_4 C13_4 1_555 1_555
C15_4 C18_4 1_555 1_555
C16_4 C14_4 1_555 1_555
C17_4 C14_4 1_555 1_555
H8_4 C17_4 1_555 1_555
C18_4 C20_4 1_555 1_555
C19_4 C16_4 1_555 1_555
H9_4 C19_4 1_555 1_555
C20_4 C19_4 1_555 1_555
H10_4 C20_4 1_555 1_555
C21_4 C16_4 1_555 1_555
H11_4 C21_4 1_555 1_555
C22_4 C18_4 1_555 1_555
H12_4 C22_4 1_555 1_555
O9_4 C25_4 1_555 1_555
O10_4 C25_4 1_555 1_555
C23_4 C1_4 1_555 1_555
H13_4 C23_4 1_555 1_555
C24_4 C6_4 1_555 1_555
C25_4 C27_4 1_555 1_555
C26_4 C24_4 1_555 1_555
C27_4 C29_4 1_555 1_555
C28_4 C26_4 1_555 1_555
H14_4 C28_4 1_555 1_555
C29_4 C28_4 1_555 1_555
H15_4 C29_4 1_555 1_555
C30_4 C26_4 1_555 1_555
H16_4 C30_4 1_555 1_555
C31_4 C27_4 1_555 1_555
H17_4 C31_4 1_555 1_555
O11_4 C34_4 1_555 1_555
O12_4 C34_4 1_555 1_555
C32_4 C12_4 1_555 1_555
H18_4 C32_4 1_555 1_555
C33_4 C17_4 1_555 1_555
C34_4 C36_4 1_555 1_555
C35_4 C33_4 1_555 1_555
C36_4 C38_4 1_555 1_555
C37_4 C35_4 1_555 1_555
H19_4 C37_4 1_555 1_555
C38_4 C37_4 1_555 1_555
H20_4 C38_4 1_555 1_555
C39_4 C35_4 1_555 1_555
H21_4 C39_4 1_555 1_555
C40_4 C36_4 1_555 1_555
H22_4 C40_4 1_555 1_555
Zr4_3 O7_4 1_555 1_555
Zr5_4 O9_4 1_555 1_555
Zr6_7 O11_4 1_555 1_555
Zr9_7 O8_4 1_555 1_555
Zr10_7 O10_4 1_555 1_555
Zr11_4 O12_4 1_555 1_555
C8_4 C9_4 1_555 1_555
C10_4 C11_4 1_555 1_555
C21_4 C22_4 1_555 1_555
C23_4 C24_4 1_555 1_555
C30_4 C31_4 1_555 1_555
C32_4 C33_4 1_555 1_555
C39_4 C40_4 1_555 1_555
Zr4_3 O1_2 1_555 1_555
O1_2 Zr9_3 1_555 1_555
O13_2 Zr4_3 1_555 1_555
O14_2 Zr4_3 1_555 1_555
O15_3 Zr9_7 1_555 1_555
O16_3 Zr9_7 1_555 1_555
Zr9_3 O14_2 1_555 1_555
O21_3 Zr4_3 1_555 1_555
Zr9_7 O13_2 1_555 1_555
Zr9_7 O14_2 1_555 1_555
O15_4 Zr9_8 1_555 1_555
O16_4 Zr9_8 1_555 1_555
O17_2 Zr9_8 1_555 1_555
O23_2 Zr9_8 1_555 1_555
O26_3 Zr9_8 1_555 1_555
Zr9_4 O18_2 1_555 1_555
Zr9_4 O23_2 1_555 1_555
Zr4_4 O1_3 1_555 1_555
Zr9_5 O1_3 1_555 1_555
O3_2 Zr4_4 1_555 1_555
O4_3 Zr9_5 1_555 1_555
O6_3 Zr9_5 1_555 1_555
O13_3 Zr4_4 1_555 1_555
Zr9 O3_2 1_555 1_555
O20_3 Zr4_4 1_555 1_555
Zr9_5 O3_2 1_555 1_555
O13_3 Zr9 1_555 1_555
O4_4 Zr9_6 1_555 1_555
O6_4 Zr9_6 1_555 1_555
O18_3 Zr9_6 1_555 1_555
O22_2 Zr9_6 1_555 1_555
O25_3 Zr9_6 1_555 1_555
Zr9_2 O17_3 1_555 1_555
Zr9_2 O22_2 1_555 1_555
O15_5 Zr9_3 1_555 1_555
O16_5 Zr9_3 1_555 1_555
O26_4 Zr9_3 1_555 1_555
Zr4 O17_2 1_555 1_555
O18_2 Zr4 1_555 1_555
O23_2 Zr4 1_555 1_555
O15_6 Zr9_4 1_555 1_555
O16_6 Zr9_4 1_555 1_555
O21_4 Zr4 1_555 1_555
O4_5 Zr9 1_555 1_555
O6_5 Zr9 1_555 1_555
O25_4 Zr9 1_555 1_555
Zr4_2 O17_3 1_555 1_555
O22_2 Zr4_2 1_555 1_555
O4_6 Zr9_2 1_555 1_555
O6_6 Zr9_2 1_555 1_555
O18_3 Zr4_2 1_555 1_555
O20_4 Zr4_2 1_555 1_555
O3_3 Zr5_3 1_555 1_555
O13_4 Zr5_3 1_555 1_555
O14_3 Zr5_3 1_555 1_555
O15_7 Zr10_5 1_555 1_555
O16_7 Zr10_5 1_555 1_555
Zr10_3 O3_3 1_555 1_555
O20_5 Zr5_3 1_555 1_555
Zr10_5 O13_4 1_555 1_555
Zr10_5 O14_3 1_555 1_555
O13_4 Zr10_3 1_555 1_555
O15_8 Zr10_6 1_555 1_555
O16_8 Zr10_6 1_555 1_555
O17_4 Zr10_6 1_555 1_555
O23_3 Zr10_6 1_555 1_555
O26_5 Zr10_6 1_555 1_555
Zr10_4 O17_4 1_555 1_555
Zr10_4 O22_3 1_555 1_555
Zr5_4 O1_4 1_555 1_555
Zr10_7 O1_4 1_555 1_555
O1_4 Zr10 1_555 1_555
O3_4 Zr5_4 1_555 1_555
O4_7 Zr10_7 1_555 1_555
O6_7 Zr10_7 1_555 1_555
O14_4 Zr5_4 1_555 1_555
Zr10 O14_4 1_555 1_555
O21_5 Zr5_4 1_555 1_555
Zr10_7 O3_4 1_555 1_555
O4_8 Zr10_8 1_555 1_555
O6_8 Zr10_8 1_555 1_555
O18_4 Zr10_8 1_555 1_555
O22_4 Zr10_8 1_555 1_555
O25_5 Zr10_8 1_555 1_555
Zr10_2 O18_4 1_555 1_555
Zr10_2 O23_4 1_555 1_555
O4_9 Zr10_3 1_555 1_555
O6_9 Zr10_3 1_555 1_555
O25_6 Zr10_3 1_555 1_555
Zr5 O17_4 1_555 1_555
O22_3 Zr5 1_555 1_555
O4_10 Zr10_4 1_555 1_555
O6_10 Zr10_4 1_555 1_555
O23_3 Zr5 1_555 1_555
O21_6 Zr5 1_555 1_555
O15_9 Zr10 1_555 1_555
O16_9 Zr10 1_555 1_555
O26_6 Zr10 1_555 1_555
O22_4 Zr5_2 1_555 1_555
O18_4 Zr5_2 1_555 1_555
O23_4 Zr5_2 1_555 1_555
O15_10 Zr10_2 1_555 1_555
O16_10 Zr10_2 1_555 1_555
O20_6 Zr5_2 1_555 1_555
O13_5 Zr6 1_555 1_555
O14_5 Zr6 1_555 1_555
O15_11 Zr11_2 1_555 1_555
O16_11 Zr11_2 1_555 1_555
O17_5 Zr11_2 1_555 1_555
O23_5 Zr11_2 1_555 1_555
O26_7 Zr11_2 1_555 1_555
Zr11_2 O13_5 1_555 1_555
Zr11_2 O14_5 1_555 1_555
O3_5 Zr6_2 1_555 1_555
O13_6 Zr6_2 1_555 1_555
Zr11_3 O3_5 1_555 1_555
O20_7 Zr6_2 1_555 1_555
O13_6 Zr11_3 1_555 1_555
Zr11_3 O17_6 1_555 1_555
Zr11_3 O22_5 1_555 1_555
Zr6_3 O1_5 1_555 1_555
O1_5 Zr11_4 1_555 1_555
O14_6 Zr6_3 1_555 1_555
Zr11_4 O14_6 1_555 1_555
O21_7 Zr6_3 1_555 1_555
Zr11_4 O18_5 1_555 1_555
Zr11_4 O23_6 1_555 1_555
Zr6_4 O1_6 1_555 1_555
Zr11 O1_6 1_555 1_555
O3_6 Zr6_4 1_555 1_555
O4_11 Zr11 1_555 1_555
O6_11 Zr11 1_555 1_555
O18_6 Zr11 1_555 1_555
O22_6 Zr11 1_555 1_555
O25_7 Zr11 1_555 1_555
Zr11 O3_6 1_555 1_555
Zr6_5 O17_5 1_555 1_555
O23_5 Zr6_5 1_555 1_555
O21_8 Zr6_5 1_555 1_555
Zr6_6 O17_6 1_555 1_555
O22_5 Zr6_6 1_555 1_555
O4_12 Zr11_3 1_555 1_555
O6_12 Zr11_3 1_555 1_555
O25_8 Zr11_3 1_555 1_555
O18_5 Zr6_7 1_555 1_555
O23_6 Zr6_7 1_555 1_555
O15_12 Zr11_4 1_555 1_555
O16_12 Zr11_4 1_555 1_555
O26_8 Zr11_4 1_555 1_555
O22_6 Zr6_8 1_555 1_555
O18_6 Zr6_8 1_555 1_555
O20_8 Zr6_8 1_555 1_555
O25 C4_5 1_555 1_555
C1_5 C2_5 1_555 1_555
C2_5 H1_5 1_555 1_555
C3_5 C2_5 1_555 1_555
C4_5 O20_2 1_555 1_555
C5_5 C3_5 1_555 1_555
C6_5 C3_5 1_555 1_555
H2_5 C6_5 1_555 1_555
C7_5 C4_5 1_555 1_555
C8_5 C5_5 1_555 1_555
H3_5 C8_5 1_555 1_555
C9_5 C7_5 1_555 1_555
H4_5 C9_5 1_555 1_555
C10_5 C5_5 1_555 1_555
H5_5 C10_5 1_555 1_555
C11_5 C7_5 1_555 1_555
H6_5 C11_5 1_555 1_555
O21_3 C15_5 1_555 1_555
O26_4 C15_5 1_555 1_555
C12_5 C1_5 1_555 1_555
C13_5 C12_5 1_555 1_555
H7_5 C13_5 1_555 1_555
C14_5 C13_5 1_555 1_555
C15_5 C18_5 1_555 1_555
C16_5 C14_5 1_555 1_555
C17_5 C14_5 1_555 1_555
H8_5 C17_5 1_555 1_555
C18_5 C20_5 1_555 1_555
C19_5 C16_5 1_555 1_555
H9_5 C19_5 1_555 1_555
C20_5 C19_5 1_555 1_555
H10_5 C20_5 1_555 1_555
C21_5 C16_5 1_555 1_555
H11_5 C21_5 1_555 1_555
C22_5 C18_5 1_555 1_555
H12_5 C22_5 1_555 1_555
O20_5 C25_5 1_555 1_555
O25_6 C25_5 1_555 1_555
C23_5 C1_5 1_555 1_555
H13_5 C23_5 1_555 1_555
C24_5 C6_5 1_555 1_555
C25_5 C27_5 1_555 1_555
C26_5 C24_5 1_555 1_555
C27_5 C29_5 1_555 1_555
C28_5 C26_5 1_555 1_555
H14_5 C28_5 1_555 1_555
C29_5 C28_5 1_555 1_555
H15_5 C29_5 1_555 1_555
C30_5 C26_5 1_555 1_555
H16_5 C30_5 1_555 1_555
C31_5 C27_5 1_555 1_555
H17_5 C31_5 1_555 1_555
O21_8 C34_5 1_555 1_555
O26_7 C34_5 1_555 1_555
C32_5 C12_5 1_555 1_555
H18_5 C32_5 1_555 1_555
C33_5 C17_5 1_555 1_555
C34_5 C36_5 1_555 1_555
C35_5 C33_5 1_555 1_555
C36_5 C38_5 1_555 1_555
C37_5 C35_5 1_555 1_555
H19_5 C37_5 1_555 1_555
C38_5 C37_5 1_555 1_555
H20_5 C38_5 1_555 1_555
C39_5 C35_5 1_555 1_555
H21_5 C39_5 1_555 1_555
C40_5 C36_5 1_555 1_555
H22_5 C40_5 1_555 1_555
C8_5 C9_5 1_555 1_555
C10_5 C11_5 1_555 1_555
C21_5 C22_5 1_555 1_555
C23_5 C24_5 1_555 1_555
C30_5 C31_5 1_555 1_555
C32_5 C33_5 1_555 1_555
C39_5 C40_5 1_555 1_555
O26 C4_6 1_555 1_555
C1_6 C2_6 1_555 1_555
C2_6 H1_6 1_555 1_555
C3_6 C2_6 1_555 1_555
C4_6 O21_2 1_555 1_555
C5_6 C3_6 1_555 1_555
C6_6 C3_6 1_555 1_555
H2_6 C6_6 1_555 1_555
C7_6 C4_6 1_555 1_555
C8_6 C5_6 1_555 1_555
H3_6 C8_6 1_555 1_555
C9_6 C7_6 1_555 1_555
H4_6 C9_6 1_555 1_555
C10_6 C5_6 1_555 1_555
H5_6 C10_6 1_555 1_555
C11_6 C7_6 1_555 1_555
H6_6 C11_6 1_555 1_555
O20_3 C15_6 1_555 1_555
O25_4 C15_6 1_555 1_555
C12_6 C1_6 1_555 1_555
C13_6 C12_6 1_555 1_555
H7_6 C13_6 1_555 1_555
C14_6 C13_6 1_555 1_555
C15_6 C18_6 1_555 1_555
C16_6 C14_6 1_555 1_555
C17_6 C14_6 1_555 1_555
H8_6 C17_6 1_555 1_555
C18_6 C20_6 1_555 1_555
C19_6 C16_6 1_555 1_555
H9_6 C19_6 1_555 1_555
C20_6 C19_6 1_555 1_555
H10_6 C20_6 1_555 1_555
C21_6 C16_6 1_555 1_555
H11_6 C21_6 1_555 1_555
C22_6 C18_6 1_555 1_555
H12_6 C22_6 1_555 1_555
O21_5 C25_6 1_555 1_555
O26_6 C25_6 1_555 1_555
C23_6 C1_6 1_555 1_555
H13_6 C23_6 1_555 1_555
C24_6 C6_6 1_555 1_555
C25_6 C27_6 1_555 1_555
C26_6 C24_6 1_555 1_555
C27_6 C29_6 1_555 1_555
C28_6 C26_6 1_555 1_555
H14_6 C28_6 1_555 1_555
C29_6 C28_6 1_555 1_555
H15_6 C29_6 1_555 1_555
C30_6 C26_6 1_555 1_555
H16_6 C30_6 1_555 1_555
C31_6 C27_6 1_555 1_555
H17_6 C31_6 1_555 1_555
O20_8 C34_6 1_555 1_555
O25_7 C34_6 1_555 1_555
C32_6 C12_6 1_555 1_555
H18_6 C32_6 1_555 1_555
C33_6 C17_6 1_555 1_555
C34_6 C36_6 1_555 1_555
C35_6 C33_6 1_555 1_555
C36_6 C38_6 1_555 1_555
C37_6 C35_6 1_555 1_555
H19_6 C37_6 1_555 1_555
C38_6 C37_6 1_555 1_555
H20_6 C38_6 1_555 1_555
C39_6 C35_6 1_555 1_555
H21_6 C39_6 1_555 1_555
C40_6 C36_6 1_555 1_555
H22_6 C40_6 1_555 1_555
C8_6 C9_6 1_555 1_555
C10_6 C11_6 1_555 1_555
C21_6 C22_6 1_555 1_555
C23_6 C24_6 1_555 1_555
C30_6 C31_6 1_555 1_555
C32_6 C33_6 1_555 1_555
C39_6 C40_6 1_555 1_555
O25_2 C4_7 1_555 1_555
C1_7 C2_7 1_555 1_555
C2_7 H1_7 1_555 1_555
C3_7 C2_7 1_555 1_555
C4_7 O20 1_555 1_555
C5_7 C3_7 1_555 1_555
C6_7 C3_7 1_555 1_555
H2_7 C6_7 1_555 1_555
C7_7 C4_7 1_555 1_555
C8_7 C5_7 1_555 1_555
H3_7 C8_7 1_555 1_555
C9_7 C7_7 1_555 1_555
H4_7 C9_7 1_555 1_555
C10_7 C5_7 1_555 1_555
H5_7 C10_7 1_555 1_555
C11_7 C7_7 1_555 1_555
H6_7 C11_7 1_555 1_555
O21_4 C15_7 1_555 1_555
O26_3 C15_7 1_555 1_555
C12_7 C1_7 1_555 1_555
C13_7 C12_7 1_555 1_555
H7_7 C13_7 1_555 1_555
C14_7 C13_7 1_555 1_555
C15_7 C18_7 1_555 1_555
C16_7 C14_7 1_555 1_555
C17_7 C14_7 1_555 1_555
H8_7 C17_7 1_555 1_555
C18_7 C20_7 1_555 1_555
C19_7 C16_7 1_555 1_555
H9_7 C19_7 1_555 1_555
C20_7 C19_7 1_555 1_555
H10_7 C20_7 1_555 1_555
C21_7 C16_7 1_555 1_555
H11_7 C21_7 1_555 1_555
C22_7 C18_7 1_555 1_555
H12_7 C22_7 1_555 1_555
O20_6 C25_7 1_555 1_555
O25_5 C25_7 1_555 1_555
C23_7 C1_7 1_555 1_555
H13_7 C23_7 1_555 1_555
C24_7 C6_7 1_555 1_555
C25_7 C27_7 1_555 1_555
C26_7 C24_7 1_555 1_555
C27_7 C29_7 1_555 1_555
C28_7 C26_7 1_555 1_555
H14_7 C28_7 1_555 1_555
C29_7 C28_7 1_555 1_555
H15_7 C29_7 1_555 1_555
C30_7 C26_7 1_555 1_555
H16_7 C30_7 1_555 1_555
C31_7 C27_7 1_555 1_555
H17_7 C31_7 1_555 1_555
O21_7 C34_7 1_555 1_555
O26_8 C34_7 1_555 1_555
C32_7 C12_7 1_555 1_555
H18_7 C32_7 1_555 1_555
C33_7 C17_7 1_555 1_555
C34_7 C36_7 1_555 1_555
C35_7 C33_7 1_555 1_555
C36_7 C38_7 1_555 1_555
C37_7 C35_7 1_555 1_555
H19_7 C37_7 1_555 1_555
C38_7 C37_7 1_555 1_555
H20_7 C38_7 1_555 1_555
C39_7 C35_7 1_555 1_555
H21_7 C39_7 1_555 1_555
C40_7 C36_7 1_555 1_555
H22_7 C40_7 1_555 1_555
C8_7 C9_7 1_555 1_555
C10_7 C11_7 1_555 1_555
C21_7 C22_7 1_555 1_555
C23_7 C24_7 1_555 1_555
C30_7 C31_7 1_555 1_555
C32_7 C33_7 1_555 1_555
C39_7 C40_7 1_555 1_555
O26_2 C4_8 1_555 1_555
C1_8 C2_8 1_555 1_555
C2_8 H1_8 1_555 1_555
C3_8 C2_8 1_555 1_555
C4_8 O21 1_555 1_555
C5_8 C3_8 1_555 1_555
C6_8 C3_8 1_555 1_555
H2_8 C6_8 1_555 1_555
C7_8 C4_8 1_555 1_555
C8_8 C5_8 1_555 1_555
H3_8 C8_8 1_555 1_555
C9_8 C7_8 1_555 1_555
H4_8 C9_8 1_555 1_555
C10_8 C5_8 1_555 1_555
H5_8 C10_8 1_555 1_555
C11_8 C7_8 1_555 1_555
H6_8 C11_8 1_555 1_555
O20_4 C15_8 1_555 1_555
O25_3 C15_8 1_555 1_555
C12_8 C1_8 1_555 1_555
C13_8 C12_8 1_555 1_555
H7_8 C13_8 1_555 1_555
C14_8 C13_8 1_555 1_555
C15_8 C18_8 1_555 1_555
C16_8 C14_8 1_555 1_555
C17_8 C14_8 1_555 1_555
H8_8 C17_8 1_555 1_555
C18_8 C20_8 1_555 1_555
C19_8 C16_8 1_555 1_555
H9_8 C19_8 1_555 1_555
C20_8 C19_8 1_555 1_555
H10_8 C20_8 1_555 1_555
C21_8 C16_8 1_555 1_555
H11_8 C21_8 1_555 1_555
C22_8 C18_8 1_555 1_555
H12_8 C22_8 1_555 1_555
O21_6 C25_8 1_555 1_555
O26_5 C25_8 1_555 1_555
C23_8 C1_8 1_555 1_555
H13_8 C23_8 1_555 1_555
C24_8 C6_8 1_555 1_555
C25_8 C27_8 1_555 1_555
C26_8 C24_8 1_555 1_555
C27_8 C29_8 1_555 1_555
C28_8 C26_8 1_555 1_555
H14_8 C28_8 1_555 1_555
C29_8 C28_8 1_555 1_555
H15_8 C29_8 1_555 1_555
C30_8 C26_8 1_555 1_555
H16_8 C30_8 1_555 1_555
C31_8 C27_8 1_555 1_555
H17_8 C31_8 1_555 1_555
O20_7 C34_8 1_555 1_555
O25_8 C34_8 1_555 1_555
C32_8 C12_8 1_555 1_555
H18_8 C32_8 1_555 1_555
C33_8 C17_8 1_555 1_555
C34_8 C36_8 1_555 1_555
C35_8 C33_8 1_555 1_555
C36_8 C38_8 1_555 1_555
C37_8 C35_8 1_555 1_555
H19_8 C37_8 1_555 1_555
C38_8 C37_8 1_555 1_555
H20_8 C38_8 1_555 1_555
C39_8 C35_8 1_555 1_555
H21_8 C39_8 1_555 1_555
C40_8 C36_8 1_555 1_555
H22_8 C40_8 1_555 1_555
C8_8 C9_8 1_555 1_555
C10_8 C11_8 1_555 1_555
C21_8 C22_8 1_555 1_555
C23_8 C24_8 1_555 1_555
C30_8 C31_8 1_555 1_555
C32_8 C33_8 1_555 1_555
C39_8 C40_8 1_555 1_555

#END
