
###############################################################################
#
# This file contains modified crystal structure data generated from the
# MOF subset of the Cambridge Structural Database (CSD) v543 
# hosted by the Cambridge Crystallographic Data Centre (CCDC).
#
# This work is licensed under the Creative Commons
# Attribution-NonCommercial-ShareAlike 4.0 International License.
# To view a copy of this license, visit
# http://creativecommons.org/licenses/by-nc-sa/4.0/
# or send a letter to
# Creative Commons, PO Box 1866, Mountain View, CA 94042, USA.
#
# CIF created using the CSD Python API on 29 September 2022
# The structure has been converted into the P1 space group
# The structure has a 3D framework
# The original CSD entry HERJOG is in the tetragonal crystal system
# The framework has been calculated to contain at least 10.0% void space
# The void calculation uses a probe of radius 1.32A, grid spacing 0.4
# H atom positions have been added when not included in the experimental data
# Generated hydrogen atom positions removed from atoms on special positions
#
###############################################################################

data_HERJOG
_chemical_formula_moiety         '(C128 H192 O73 Zr21)n'
_symmetry_cell_setting           triclinic
_symmetry_space_group_name_H-M   'P 1'
_symmetry_Int_Tables_number      1
_space_group_name_Hall           'P 1'
loop_
_symmetry_equiv_pos_site_id
_symmetry_equiv_pos_as_xyz
1 x,y,z
_cell_length_a                   24.2719(5)
_cell_length_b                   24.272
_cell_length_c                   15.0960(4)
_cell_angle_alpha                90
_cell_angle_beta                 90
_cell_angle_gamma                90
_cell_volume                     8893.47
loop_
_atom_site_label
_atom_site_type_symbol
_atom_site_fract_x
_atom_site_fract_y
_atom_site_fract_z
Zr8 Zr -0.0000 0.572807(16) 0.11715(3)
Zr2 Zr 0.572807(16) 0.0000 0.61715(3)
O5 O 0.5692(2) 0.0000 0.7623(3)
O6 O 0.66403(16) 0.0000 0.6104(3)
Zr3 Zr 0.427193(16) 0.0000 0.61715(3)
O9 O 0.5000 0.04931(19) 0.6180(4)
O10 O 0.4271(3) 0.0488(2) 0.5000
O11 O 0.4308(2) 0.0000 0.7623(3)
O12 O 0.33597(16) 0.0000 0.6104(3)
Zr4 Zr 0.5000 0.101154(19) 0.5000
Zr9 Zr 0.427193(16) 0.0000 0.38285(3)
Zr10 Zr 0.572807(16) 0.0000 0.38285(3)
O21 O 0.39731(13) 0.08299(11) 0.6621(2)
O22 O 0.60269(13) 0.08299(11) 0.6621(2)
O25 O 0.5729(3) 0.0488(2) 0.5000
Zr1 Zr 0.5000 0.898846(19) 0.5000
Zr2_2 Zr 0.572807(16) 1.0000 0.61715(3)
O1 O 0.44493(10) 0.85292(10) 0.41259(18)
O2 O 0.5000 0.95069(19) 0.6180(4)
O3 O 0.39731(13) 0.91701(11) 0.3379(2)
O4 O 0.5729(3) 0.9512(2) 0.5000
O5_2 O 0.5692(2) 1.0000 0.7623(3)
O6_2 O 0.66403(16) 1.0000 0.6104(3)
C1 C 0.40725(17) 0.86795(16) 0.3615(3)
C2 C 0.36965(18) 0.82473(17) 0.3250(4)
C3 C 0.3725(2) 0.77127(18) 0.3587(4)
H1 H 0.3989 0.7627 0.4030
C4 C 0.2970(2) 0.74433(19) 0.2664(4)
C5 C 0.3371(2) 0.7305(2) 0.3282(4)
C6 C 0.3307(2) 0.8374(2) 0.2655(5)
H2 H 0.3272 0.8742 0.2452
C7 C 0.2948(3) 0.7963(2) 0.2326(6)
H3 H 0.2692 0.8049 0.1870
C8 C 0.3414(4) 0.6741(3) 0.3636(6)
H4 H 0.3725 0.6720 0.4049
H5 H 0.3473 0.6482 0.3148
H6 H 0.3073 0.6645 0.3947
O7 O 0.14708(10) 0.55507(10) 0.08741(18)
O8 O 0.08299(11) 0.60269(13) 0.1621(2)
C9 C 0.13205(16) 0.59275(17) 0.1385(3)
C10 C 0.17527(17) 0.63035(18) 0.1750(4)
C11 C 0.22873(18) 0.6275(2) 0.1413(4)
H7 H 0.2373 0.6011 0.0970
C12 C 0.25567(19) 0.7030(2) 0.2336(4)
C13 C 0.2695(2) 0.6629(2) 0.1718(4)
C14 C 0.1626(2) 0.6693(2) 0.2345(5)
H8 H 0.1258 0.6728 0.2548
C15 C 0.2037(2) 0.7052(3) 0.2674(6)
H9 H 0.1951 0.7308 0.3130
C16 C 0.3259(3) 0.6586(4) 0.1364(6)
H10 H 0.3280 0.6275 0.0951
H11 H 0.3518 0.6527 0.1852
H12 H 0.3355 0.6927 0.1053
Zr3_2 Zr 0.427193(16) 1.0000 0.61715(3)
O11_2 O 0.4308(2) 1.0000 0.7623(3)
O12_2 O 0.33597(16) 1.0000 0.6104(3)
O13 O 0.55507(10) 0.85292(10) 0.41259(18)
O14 O 0.60269(13) 0.91701(11) 0.3379(2)
C17 C 0.59275(17) 0.86795(16) 0.3615(3)
C18 C 0.63035(18) 0.82473(17) 0.3250(4)
C19 C 0.6275(2) 0.77127(18) 0.3587(4)
H13 H 0.6011 0.7627 0.4030
C20 C 0.7030(2) 0.74433(19) 0.2664(4)
C21 C 0.6629(2) 0.7305(2) 0.3282(4)
C22 C 0.6693(2) 0.8374(2) 0.2655(5)
H14 H 0.6728 0.8742 0.2452
C23 C 0.7052(3) 0.7963(2) 0.2326(6)
H15 H 0.7308 0.8049 0.1870
C24 C 0.6586(4) 0.6741(3) 0.3636(6)
H16 H 0.6275 0.6720 0.4049
H17 H 0.6527 0.6482 0.3148
H18 H 0.6927 0.6645 0.3947
O15 O 0.85292(10) 0.55507(10) 0.08741(18)
O16 O 0.91701(11) 0.60269(13) 0.1621(2)
C25 C 0.86795(16) 0.59275(17) 0.1385(3)
C26 C 0.82473(17) 0.63035(18) 0.1750(4)
C27 C 0.77127(18) 0.6275(2) 0.1413(4)
H19 H 0.7627 0.6011 0.0970
C28 C 0.74433(19) 0.7030(2) 0.2336(4)
C29 C 0.7305(2) 0.6629(2) 0.1718(4)
C30 C 0.8374(2) 0.6693(2) 0.2345(5)
H20 H 0.8742 0.6728 0.2548
C31 C 0.7963(2) 0.7052(3) 0.2674(6)
H21 H 0.8049 0.7308 0.3130
C32 C 0.6741(3) 0.6586(4) 0.1364(6)
H22 H 0.6720 0.6275 0.0951
H23 H 0.6482 0.6527 0.1852
H24 H 0.6645 0.6927 0.1053
Zr5 Zr 0.101154(19) 0.5000 0.0000
Zr6 Zr 0.898846(19) 0.5000 0.0000
Zr8_2 Zr 1.0000 0.572807(16) 0.11715(3)
Zr9_2 Zr 0.427193(16) 1.0000 0.38285(3)
Zr10_2 Zr 0.572807(16) 1.0000 0.38285(3)
O17 O 0.55507(10) 0.85292(10) 0.58741(18)
O18 O 0.44493(10) 0.85292(10) 0.58741(18)
O19 O 0.5000 0.95069(19) 0.3820(4)
O20 O 0.60269(13) 0.91701(11) 0.6621(2)
O23 O 0.39731(13) 0.91701(11) 0.6621(2)
O24 O 0.4271(3) 0.9512(2) 0.5000
Zr5_2 Zr 0.101154(19) 0.5000 1.0000
Zr6_2 Zr 0.898846(19) 0.5000 1.0000
Zr7 Zr -0.0000 0.427193(16) 0.11715(3)
O1_2 O 0.55507(10) 0.14708(10) 0.41259(18)
O3_2 O 0.60269(13) 0.08299(11) 0.3379(2)
C1_2 C 0.59275(17) 0.13205(16) 0.3615(3)
C2_2 C 0.63035(18) 0.17527(17) 0.3250(4)
C3_2 C 0.6275(2) 0.22873(18) 0.3587(4)
H1_2 H 0.6011 0.2373 0.4030
C4_2 C 0.7030(2) 0.25567(19) 0.2664(4)
C5_2 C 0.6629(2) 0.2695(2) 0.3282(4)
C6_2 C 0.6693(2) 0.1626(2) 0.2655(5)
H2_2 H 0.6728 0.1258 0.2452
C7_2 C 0.7052(3) 0.2037(2) 0.2326(6)
H3_2 H 0.7308 0.1951 0.1870
C8_2 C 0.6586(4) 0.3259(3) 0.3636(6)
H4_2 H 0.6275 0.3280 0.4049
H5_2 H 0.6527 0.3518 0.3148
H6_2 H 0.6927 0.3355 0.3947
O7_2 O 0.85292(10) 0.44493(10) 0.08741(18)
O8_2 O 0.91701(11) 0.39731(13) 0.1621(2)
C9_2 C 0.86795(16) 0.40725(17) 0.1385(3)
C10_2 C 0.82473(17) 0.36965(18) 0.1750(4)
C11_2 C 0.77127(18) 0.3725(2) 0.1413(4)
H7_2 H 0.7627 0.3989 0.0970
C12_2 C 0.74433(19) 0.2970(2) 0.2336(4)
C13_2 C 0.7305(2) 0.3371(2) 0.1718(4)
C14_2 C 0.8374(2) 0.3307(2) 0.2345(5)
H8_2 H 0.8742 0.3272 0.2548
C15_2 C 0.7963(2) 0.2948(3) 0.2674(6)
H9_2 H 0.8049 0.2692 0.3130
C16_2 C 0.6741(3) 0.3414(4) 0.1364(6)
H10_2 H 0.6720 0.3725 0.0951
H11_2 H 0.6482 0.3473 0.1852
H12_2 H 0.6645 0.3073 0.1053
O13_2 O 0.44493(10) 0.14708(10) 0.41259(18)
O14_2 O 0.39731(13) 0.08299(11) 0.3379(2)
C17_2 C 0.40725(17) 0.13205(16) 0.3615(3)
C18_2 C 0.36965(18) 0.17527(17) 0.3250(4)
C19_2 C 0.3725(2) 0.22873(18) 0.3587(4)
H13_2 H 0.3989 0.2373 0.4030
C20_2 C 0.2970(2) 0.25567(19) 0.2664(4)
C21_2 C 0.3371(2) 0.2695(2) 0.3282(4)
C22_2 C 0.3307(2) 0.1626(2) 0.2655(5)
H14_2 H 0.3272 0.1258 0.2452
C23_2 C 0.2948(3) 0.2037(2) 0.2326(6)
H15_2 H 0.2692 0.1951 0.1870
C24_2 C 0.3414(4) 0.3259(3) 0.3636(6)
H16_2 H 0.3725 0.3280 0.4049
H17_2 H 0.3473 0.3518 0.3148
H18_2 H 0.3073 0.3355 0.3947
O15_2 O 0.14708(10) 0.44493(10) 0.08741(18)
O16_2 O 0.08299(11) 0.39731(13) 0.1621(2)
C25_2 C 0.13205(16) 0.40725(17) 0.1385(3)
C26_2 C 0.17527(17) 0.36965(18) 0.1750(4)
C27_2 C 0.22873(18) 0.3725(2) 0.1413(4)
H19_2 H 0.2373 0.3989 0.0970
C28_2 C 0.25567(19) 0.2970(2) 0.2336(4)
C29_2 C 0.2695(2) 0.3371(2) 0.1718(4)
C30_2 C 0.1626(2) 0.3307(2) 0.2345(5)
H20_2 H 0.1258 0.3272 0.2548
C31_2 C 0.2037(2) 0.2948(3) 0.2674(6)
H21_2 H 0.1951 0.2692 0.3130
C32_2 C 0.3259(3) 0.3414(4) 0.1364(6)
H22_2 H 0.3280 0.3725 0.0951
H23_2 H 0.3518 0.3473 0.1852
H24_2 H 0.3355 0.3073 0.1053
Zr7_2 Zr 1.0000 0.427193(16) 0.11715(3)
O17_2 O 0.44493(10) 0.14708(10) 0.58741(18)
O18_2 O 0.55507(10) 0.14708(10) 0.58741(18)
O19_2 O 0.5000 0.04931(19) 0.3820(4)
O2_2 O 0.04931(19) 0.5000 0.1180(4)
O4_2 O 0.0488(2) 0.5729(3) 0.0000
O5_3 O 0.0000 0.5692(2) 0.2623(3)
O6_3 O -0.0000 0.66403(16) 0.1104(3)
O11_3 O -0.0000 0.4308(2) 0.2623(3)
O12_3 O -0.0000 0.33597(16) 0.1104(3)
O24_2 O 0.0488(2) 0.4271(3) 0.0000
O1_3 O 0.14708(10) 0.44493(10) 0.91259(18)
O3_3 O 0.08299(11) 0.39731(13) 0.8379(2)
O4_3 O 0.0488(2) 0.5729(3) 1.0000
C1_3 C 0.13205(16) 0.40725(17) 0.8615(3)
C2_3 C 0.17527(17) 0.36965(18) 0.8250(4)
C3_3 C 0.22873(18) 0.3725(2) 0.8587(4)
H1_3 H 0.2373 0.3989 0.9030
C4_3 C 0.25567(19) 0.2970(2) 0.7664(4)
C5_3 C 0.2695(2) 0.3371(2) 0.8282(4)
C6_3 C 0.1626(2) 0.3307(2) 0.7655(5)
H2_3 H 0.1258 0.3272 0.7452
C7_3 C 0.2037(2) 0.2948(3) 0.7326(6)
H3_3 H 0.1951 0.2692 0.6870
C8_3 C 0.3259(3) 0.3414(4) 0.8636(6)
H4_3 H 0.3280 0.3725 0.9049
H5_3 H 0.3518 0.3473 0.8148
H6_3 H 0.3355 0.3073 0.8947
C9_3 C 0.40725(17) 0.13205(16) 0.6385(3)
C10_3 C 0.36965(18) 0.17527(17) 0.6750(4)
C11_3 C 0.3725(2) 0.22873(18) 0.6413(4)
H7_3 H 0.3989 0.2373 0.5970
C12_3 C 0.2970(2) 0.25567(19) 0.7336(4)
C13_3 C 0.3371(2) 0.2695(2) 0.6718(4)
C14_3 C 0.3307(2) 0.1626(2) 0.7345(5)
H8_3 H 0.3272 0.1258 0.7548
C15_3 C 0.2948(3) 0.2037(2) 0.7674(6)
H9_3 H 0.2692 0.1951 0.8130
C16_3 C 0.3414(4) 0.3259(3) 0.6364(6)
H10_3 H 0.3725 0.3280 0.5951
H11_3 H 0.3473 0.3518 0.6852
H12_3 H 0.3073 0.3355 0.6053
O13_3 O 0.14708(10) 0.55507(10) 0.91259(18)
O14_3 O 0.08299(11) 0.60269(13) 0.8379(2)
C17_3 C 0.13205(16) 0.59275(17) 0.8615(3)
C18_3 C 0.17527(17) 0.63035(18) 0.8250(4)
C19_3 C 0.22873(18) 0.6275(2) 0.8587(4)
H13_3 H 0.2373 0.6011 0.9030
C20_3 C 0.25567(19) 0.7030(2) 0.7664(4)
C21_3 C 0.2695(2) 0.6629(2) 0.8282(4)
C22_3 C 0.1626(2) 0.6693(2) 0.7655(5)
H14_3 H 0.1258 0.6728 0.7452
C23_3 C 0.2037(2) 0.7052(3) 0.7326(6)
H15_3 H 0.1951 0.7308 0.6870
C24_3 C 0.3259(3) 0.6586(4) 0.8636(6)
H16_3 H 0.3280 0.6275 0.9049
H17_3 H 0.3518 0.6527 0.8148
H18_3 H 0.3355 0.6927 0.8947
C25_3 C 0.40725(17) 0.86795(16) 0.6385(3)
C26_3 C 0.36965(18) 0.82473(17) 0.6750(4)
C27_3 C 0.3725(2) 0.77127(18) 0.6413(4)
H19_3 H 0.3989 0.7627 0.5970
C28_3 C 0.2970(2) 0.74433(19) 0.7336(4)
C29_3 C 0.3371(2) 0.7305(2) 0.6718(4)
C30_3 C 0.3307(2) 0.8374(2) 0.7345(5)
H20_3 H 0.3272 0.8742 0.7548
C31_3 C 0.2948(3) 0.7963(2) 0.7674(6)
H21_3 H 0.2692 0.8049 0.8130
C32_3 C 0.3414(4) 0.6741(3) 0.6364(6)
H22_3 H 0.3725 0.6720 0.5951
H23_3 H 0.3473 0.6482 0.6852
H24_3 H 0.3073 0.6645 0.6053
Zr9_3 Zr -0.0000 0.427193(16) 0.88285(3)
Zr10_3 Zr 0.0000 0.572807(16) 0.88285(3)
O19_3 O 0.04931(19) 0.5000 0.8820(4)
O24_3 O 0.0488(2) 0.4271(3) 1.0000
O5_4 O 1.0000 0.5692(2) 0.2623(3)
O6_4 O 1.0000 0.66403(16) 0.1104(3)
O9_2 O 0.95069(19) 0.5000 0.1180(4)
O10_2 O 0.9512(2) 0.4271(3) 0.0000
O11_4 O 1.0000 0.4308(2) 0.2623(3)
O12_4 O 1.0000 0.33597(16) 0.1104(3)
O25_2 O 0.9512(2) 0.5729(3) 0.0000
O10_3 O 0.9512(2) 0.4271(3) 1.0000
Zr9_4 Zr 1.0000 0.427193(16) 0.88285(3)
Zr10_4 Zr 1.0000 0.572807(16) 0.88285(3)
O25_3 O 0.9512(2) 0.5729(3) 1.0000
O1_4 O 0.85292(10) 0.55507(10) 0.91259(18)
O3_4 O 0.91701(11) 0.60269(13) 0.8379(2)
C1_4 C 0.86795(16) 0.59275(17) 0.8615(3)
C2_4 C 0.82473(17) 0.63035(18) 0.8250(4)
C3_4 C 0.77127(18) 0.6275(2) 0.8587(4)
H1_4 H 0.7627 0.6011 0.9030
C4_4 C 0.74433(19) 0.7030(2) 0.7664(4)
C5_4 C 0.7305(2) 0.6629(2) 0.8282(4)
C6_4 C 0.8374(2) 0.6693(2) 0.7655(5)
H2_4 H 0.8742 0.6728 0.7452
C7_4 C 0.7963(2) 0.7052(3) 0.7326(6)
H3_4 H 0.8049 0.7308 0.6870
C8_4 C 0.6741(3) 0.6586(4) 0.8636(6)
H4_4 H 0.6720 0.6275 0.9049
H5_4 H 0.6482 0.6527 0.8148
H6_4 H 0.6645 0.6927 0.8947
C9_4 C 0.59275(17) 0.86795(16) 0.6385(3)
C10_4 C 0.63035(18) 0.82473(17) 0.6750(4)
C11_4 C 0.6275(2) 0.77127(18) 0.6413(4)
H7_4 H 0.6011 0.7627 0.5970
C12_4 C 0.7030(2) 0.74433(19) 0.7336(4)
C13_4 C 0.6629(2) 0.7305(2) 0.6718(4)
C14_4 C 0.6693(2) 0.8374(2) 0.7345(5)
H8_4 H 0.6728 0.8742 0.7548
C15_4 C 0.7052(3) 0.7963(2) 0.7674(6)
H9_4 H 0.7308 0.8049 0.8130
C16_4 C 0.6586(4) 0.6741(3) 0.6364(6)
H10_4 H 0.6275 0.6720 0.5951
H11_4 H 0.6527 0.6482 0.6852
H12_4 H 0.6927 0.6645 0.6053
O13_4 O 0.85292(10) 0.44493(10) 0.91259(18)
O14_4 O 0.91701(11) 0.39731(13) 0.8379(2)
C17_4 C 0.86795(16) 0.40725(17) 0.8615(3)
C18_4 C 0.82473(17) 0.36965(18) 0.8250(4)
C19_4 C 0.77127(18) 0.3725(2) 0.8587(4)
H13_4 H 0.7627 0.3989 0.9030
C20_4 C 0.74433(19) 0.2970(2) 0.7664(4)
C21_4 C 0.7305(2) 0.3371(2) 0.8282(4)
C22_4 C 0.8374(2) 0.3307(2) 0.7655(5)
H14_4 H 0.8742 0.3272 0.7452
C23_4 C 0.7963(2) 0.2948(3) 0.7326(6)
H15_4 H 0.8049 0.2692 0.6870
C24_4 C 0.6741(3) 0.3414(4) 0.8636(6)
H16_4 H 0.6720 0.3725 0.9049
H17_4 H 0.6482 0.3473 0.8148
H18_4 H 0.6645 0.3073 0.8947
C25_4 C 0.59275(17) 0.13205(16) 0.6385(3)
C26_4 C 0.63035(18) 0.17527(17) 0.6750(4)
C27_4 C 0.6275(2) 0.22873(18) 0.6413(4)
H19_4 H 0.6011 0.2373 0.5970
C28_4 C 0.7030(2) 0.25567(19) 0.7336(4)
C29_4 C 0.6629(2) 0.2695(2) 0.6718(4)
C30_4 C 0.6693(2) 0.1626(2) 0.7345(5)
H20_4 H 0.6728 0.1258 0.7548
C31_4 C 0.7052(3) 0.2037(2) 0.7674(6)
H21_4 H 0.7308 0.1951 0.8130
C32_4 C 0.6586(4) 0.3259(3) 0.6364(6)
H22_4 H 0.6275 0.3280 0.5951
H23_4 H 0.6527 0.3518 0.6852
H24_4 H 0.6927 0.3355 0.6053
O19_4 O 0.95069(19) 0.5000 0.8820(4)
O5_5 O 0.4308(2) 0.0000 0.2377(3)
O6_5 O 0.33597(16) 0.0000 0.3896(3)
O11_5 O 0.5692(2) 0.0000 0.2377(3)
O12_5 O 0.66403(16) 0.0000 0.3896(3)
O5_6 O 0.4308(2) 1.0000 0.2377(3)
O6_6 O 0.33597(16) 1.0000 0.3896(3)
O11_6 O 0.5692(2) 1.0000 0.2377(3)
O12_6 O 0.66403(16) 1.0000 0.3896(3)
O5_7 O 0.0000 0.5692(2) 0.7377(3)
O6_7 O -0.0000 0.66403(16) 0.8896(3)
O11_7 O -0.0000 0.4308(2) 0.7377(3)
O12_7 O 0.0000 0.33597(16) 0.8896(3)
O5_8 O 1.0000 0.5692(2) 0.7377(3)
O6_8 O 1.0000 0.66403(16) 0.8896(3)
O11_8 O 1.0000 0.4308(2) 0.7377(3)
O12_8 O 1.0000 0.33597(16) 0.8896(3)
loop_
_geom_bond_atom_site_label_1
_geom_bond_atom_site_label_2
_geom_bond_site_symmetry_1
_geom_bond_site_symmetry_2
O5 Zr2 1_555 1_555
O6 Zr2 1_555 1_555
O9 Zr2 1_555 1_555
O10 Zr3 1_555 1_555
O11 Zr3 1_555 1_555
O12 Zr3 1_555 1_555
Zr4 O9 1_555 1_555
O21 Zr3 1_555 1_555
O22 Zr2 1_555 1_555
O25 Zr2 1_555 1_555
Zr3 O9 1_555 1_555
O10 Zr4 1_555 1_555
O10 Zr9 1_555 1_555
Zr4 O25 1_555 1_555
Zr10 O25 1_555 1_555
Zr1 O1 1_555 1_555
Zr2_2 O2 1_555 1_555
O1 C1 1_555 1_555
O2 Zr1 1_555 1_555
O3 C1 1_555 1_555
O4 Zr1 1_555 1_555
O5_2 Zr2_2 1_555 1_555
O6_2 Zr2_2 1_555 1_555
C1 C2 1_555 1_555
C2 C3 1_555 1_555
C3 H1 1_555 1_555
C4 C5 1_555 1_555
C5 C3 1_555 1_555
C6 C2 1_555 1_555
H2 C6 1_555 1_555
C7 C4 1_555 1_555
H3 C7 1_555 1_555
C8 C5 1_555 1_555
H4 C8 1_555 1_555
H5 C8 1_555 1_555
H6 C8 1_555 1_555
O7 C9 1_555 1_555
O8 C9 1_555 1_555
C9 C10 1_555 1_555
C10 C11 1_555 1_555
C11 H7 1_555 1_555
C12 C4 1_555 1_555
C13 C11 1_555 1_555
C14 C10 1_555 1_555
H8 C14 1_555 1_555
C15 C12 1_555 1_555
H9 C15 1_555 1_555
C16 C13 1_555 1_555
H10 C16 1_555 1_555
H11 C16 1_555 1_555
H12 C16 1_555 1_555
Zr3_2 O2 1_555 1_555
O11_2 Zr3_2 1_555 1_555
O12_2 Zr3_2 1_555 1_555
O13 Zr1 1_555 1_555
O14 C17 1_555 1_555
C17 O13 1_555 1_555
C18 C17 1_555 1_555
C19 C18 1_555 1_555
H13 C19 1_555 1_555
C20 C21 1_555 1_555
C21 C19 1_555 1_555
C22 C18 1_555 1_555
H14 C22 1_555 1_555
C23 C20 1_555 1_555
H15 C23 1_555 1_555
C24 C21 1_555 1_555
H16 C24 1_555 1_555
H17 C24 1_555 1_555
H18 C24 1_555 1_555
O15 C25 1_555 1_555
O16 C25 1_555 1_555
C25 C26 1_555 1_555
C26 C27 1_555 1_555
C27 H19 1_555 1_555
C28 C20 1_555 1_555
C29 C27 1_555 1_555
C30 C26 1_555 1_555
H20 C30 1_555 1_555
C31 C28 1_555 1_555
H21 C31 1_555 1_555
C32 C29 1_555 1_555
H22 C32 1_555 1_555
H23 C32 1_555 1_555
H24 C32 1_555 1_555
Zr5 O7 1_555 1_555
Zr6 O15 1_555 1_555
Zr8 O8 1_555 1_555
Zr8_2 O16 1_555 1_555
Zr9_2 O3 1_555 1_555
Zr10_2 O4 1_555 1_555
O17 Zr1 1_555 1_555
O18 Zr1 1_555 1_555
O19 Zr1 1_555 1_555
O20 Zr2_2 1_555 1_555
O23 Zr3_2 1_555 1_555
O24 Zr1 1_555 1_555
Zr2_2 O4 1_555 1_555
C6 C7 1_555 1_555
C12 C13 1_555 1_555
C14 C15 1_555 1_555
Zr3_2 O24 1_555 1_555
O14 Zr10_2 1_555 1_555
C22 C23 1_555 1_555
C28 C29 1_555 1_555
C30 C31 1_555 1_555
Zr9_2 O19 1_555 1_555
Zr9_2 O24 1_555 1_555
Zr10_2 O19 1_555 1_555
Zr4 O1_2 1_555 1_555
O1_2 C1_2 1_555 1_555
O3_2 C1_2 1_555 1_555
C1_2 C2_2 1_555 1_555
C2_2 C3_2 1_555 1_555
C3_2 H1_2 1_555 1_555
C4_2 C5_2 1_555 1_555
C5_2 C3_2 1_555 1_555
C6_2 C2_2 1_555 1_555
H2_2 C6_2 1_555 1_555
C7_2 C4_2 1_555 1_555
H3_2 C7_2 1_555 1_555
C8_2 C5_2 1_555 1_555
H4_2 C8_2 1_555 1_555
H5_2 C8_2 1_555 1_555
H6_2 C8_2 1_555 1_555
O7_2 C9_2 1_555 1_555
O8_2 C9_2 1_555 1_555
C9_2 C10_2 1_555 1_555
C10_2 C11_2 1_555 1_555
C11_2 H7_2 1_555 1_555
C12_2 C4_2 1_555 1_555
C13_2 C11_2 1_555 1_555
C14_2 C10_2 1_555 1_555
H8_2 C14_2 1_555 1_555
C15_2 C12_2 1_555 1_555
H9_2 C15_2 1_555 1_555
C16_2 C13_2 1_555 1_555
H10_2 C16_2 1_555 1_555
H11_2 C16_2 1_555 1_555
H12_2 C16_2 1_555 1_555
O13_2 Zr4 1_555 1_555
O14_2 C17_2 1_555 1_555
C17_2 O13_2 1_555 1_555
C18_2 C17_2 1_555 1_555
C19_2 C18_2 1_555 1_555
H13_2 C19_2 1_555 1_555
C20_2 C21_2 1_555 1_555
C21_2 C19_2 1_555 1_555
C22_2 C18_2 1_555 1_555
H14_2 C22_2 1_555 1_555
C23_2 C20_2 1_555 1_555
H15_2 C23_2 1_555 1_555
C24_2 C21_2 1_555 1_555
H16_2 C24_2 1_555 1_555
H17_2 C24_2 1_555 1_555
H18_2 C24_2 1_555 1_555
O15_2 C25_2 1_555 1_555
O16_2 C25_2 1_555 1_555
C25_2 C26_2 1_555 1_555
C26_2 C27_2 1_555 1_555
C27_2 H19_2 1_555 1_555
C28_2 C20_2 1_555 1_555
C29_2 C27_2 1_555 1_555
C30_2 C26_2 1_555 1_555
H20_2 C30_2 1_555 1_555
C31_2 C28_2 1_555 1_555
H21_2 C31_2 1_555 1_555
C32_2 C29_2 1_555 1_555
H22_2 C32_2 1_555 1_555
H23_2 C32_2 1_555 1_555
H24_2 C32_2 1_555 1_555
Zr6 O7_2 1_555 1_555
Zr5 O15_2 1_555 1_555
Zr7_2 O8_2 1_555 1_555
Zr7 O16_2 1_555 1_555
Zr10 O3_2 1_555 1_555
O17_2 Zr4 1_555 1_555
O18_2 Zr4 1_555 1_555
O19_2 Zr4 1_555 1_555
C6_2 C7_2 1_555 1_555
C12_2 C13_2 1_555 1_555
C14_2 C15_2 1_555 1_555
O14_2 Zr9 1_555 1_555
C22_2 C23_2 1_555 1_555
C28_2 C29_2 1_555 1_555
C30_2 C31_2 1_555 1_555
Zr10 O19_2 1_555 1_555
Zr9 O19_2 1_555 1_555
Zr8 O2_2 1_555 1_555
O2_2 Zr5 1_555 1_555
O4_2 Zr5 1_555 1_555
O5_3 Zr8 1_555 1_555
O6_3 Zr8 1_555 1_555
Zr7 O2_2 1_555 1_555
O11_3 Zr7 1_555 1_555
O12_3 Zr7 1_555 1_555
O24_2 Zr5 1_555 1_555
Zr8 O4_2 1_555 1_555
Zr7 O24_2 1_555 1_555
Zr5_2 O1_3 1_555 1_555
O1_3 C1_3 1_555 1_555
O3_3 C1_3 1_555 1_555
O4_3 Zr5_2 1_555 1_555
C1_3 C2_3 1_555 1_555
C2_3 C3_3 1_555 1_555
C3_3 H1_3 1_555 1_555
C4_3 C5_3 1_555 1_555
C5_3 C3_3 1_555 1_555
C6_3 C2_3 1_555 1_555
H2_3 C6_3 1_555 1_555
C7_3 C4_3 1_555 1_555
H3_3 C7_3 1_555 1_555
C8_3 C5_3 1_555 1_555
H4_3 C8_3 1_555 1_555
H5_3 C8_3 1_555 1_555
H6_3 C8_3 1_555 1_555
O17_2 C9_3 1_555 1_555
O21 C9_3 1_555 1_555
C9_3 C10_3 1_555 1_555
C10_3 C11_3 1_555 1_555
C11_3 H7_3 1_555 1_555
C12_3 C4_3 1_555 1_555
C13_3 C11_3 1_555 1_555
C14_3 C10_3 1_555 1_555
H8_3 C14_3 1_555 1_555
C15_3 C12_3 1_555 1_555
H9_3 C15_3 1_555 1_555
C16_3 C13_3 1_555 1_555
H10_3 C16_3 1_555 1_555
H11_3 C16_3 1_555 1_555
H12_3 C16_3 1_555 1_555
O13_3 Zr5_2 1_555 1_555
O14_3 C17_3 1_555 1_555
C17_3 O13_3 1_555 1_555
C18_3 C17_3 1_555 1_555
C19_3 C18_3 1_555 1_555
H13_3 C19_3 1_555 1_555
C20_3 C21_3 1_555 1_555
C21_3 C19_3 1_555 1_555
C22_3 C18_3 1_555 1_555
H14_3 C22_3 1_555 1_555
C23_3 C20_3 1_555 1_555
H15_3 C23_3 1_555 1_555
C24_3 C21_3 1_555 1_555
H16_3 C24_3 1_555 1_555
H17_3 C24_3 1_555 1_555
H18_3 C24_3 1_555 1_555
O18 C25_3 1_555 1_555
O23 C25_3 1_555 1_555
C25_3 C26_3 1_555 1_555
C26_3 C27_3 1_555 1_555
C27_3 H19_3 1_555 1_555
C28_3 C20_3 1_555 1_555
C29_3 C27_3 1_555 1_555
C30_3 C26_3 1_555 1_555
H20_3 C30_3 1_555 1_555
C31_3 C28_3 1_555 1_555
H21_3 C31_3 1_555 1_555
C32_3 C29_3 1_555 1_555
H22_3 C32_3 1_555 1_555
H23_3 C32_3 1_555 1_555
H24_3 C32_3 1_555 1_555
Zr9_3 O3_3 1_555 1_555
Zr10_3 O4_3 1_555 1_555
O19_3 Zr5_2 1_555 1_555
O24_3 Zr5_2 1_555 1_555
C6_3 C7_3 1_555 1_555
C12_3 C13_3 1_555 1_555
C14_3 C15_3 1_555 1_555
O14_3 Zr10_3 1_555 1_555
C22_3 C23_3 1_555 1_555
C28_3 C29_3 1_555 1_555
C30_3 C31_3 1_555 1_555
Zr9_3 O19_3 1_555 1_555
Zr9_3 O24_3 1_555 1_555
Zr10_3 O19_3 1_555 1_555
O5_4 Zr8_2 1_555 1_555
O6_4 Zr8_2 1_555 1_555
O9_2 Zr8_2 1_555 1_555
O10_2 Zr7_2 1_555 1_555
O11_4 Zr7_2 1_555 1_555
O12_4 Zr7_2 1_555 1_555
Zr6 O9_2 1_555 1_555
O25_2 Zr8_2 1_555 1_555
Zr7_2 O9_2 1_555 1_555
O10_2 Zr6 1_555 1_555
Zr6 O25_2 1_555 1_555
O10_3 Zr6_2 1_555 1_555
O10_3 Zr9_4 1_555 1_555
Zr6_2 O25_3 1_555 1_555
Zr10_4 O25_3 1_555 1_555
Zr6_2 O1_4 1_555 1_555
O1_4 C1_4 1_555 1_555
O3_4 C1_4 1_555 1_555
C1_4 C2_4 1_555 1_555
C2_4 C3_4 1_555 1_555
C3_4 H1_4 1_555 1_555
C4_4 C5_4 1_555 1_555
C5_4 C3_4 1_555 1_555
C6_4 C2_4 1_555 1_555
H2_4 C6_4 1_555 1_555
C7_4 C4_4 1_555 1_555
H3_4 C7_4 1_555 1_555
C8_4 C5_4 1_555 1_555
H4_4 C8_4 1_555 1_555
H5_4 C8_4 1_555 1_555
H6_4 C8_4 1_555 1_555
O17 C9_4 1_555 1_555
O20 C9_4 1_555 1_555
C9_4 C10_4 1_555 1_555
C10_4 C11_4 1_555 1_555
C11_4 H7_4 1_555 1_555
C12_4 C4_4 1_555 1_555
C13_4 C11_4 1_555 1_555
C14_4 C10_4 1_555 1_555
H8_4 C14_4 1_555 1_555
C15_4 C12_4 1_555 1_555
H9_4 C15_4 1_555 1_555
C16_4 C13_4 1_555 1_555
H10_4 C16_4 1_555 1_555
H11_4 C16_4 1_555 1_555
H12_4 C16_4 1_555 1_555
O13_4 Zr6_2 1_555 1_555
O14_4 C17_4 1_555 1_555
C17_4 O13_4 1_555 1_555
C18_4 C17_4 1_555 1_555
C19_4 C18_4 1_555 1_555
H13_4 C19_4 1_555 1_555
C20_4 C21_4 1_555 1_555
C21_4 C19_4 1_555 1_555
C22_4 C18_4 1_555 1_555
H14_4 C22_4 1_555 1_555
C23_4 C20_4 1_555 1_555
H15_4 C23_4 1_555 1_555
C24_4 C21_4 1_555 1_555
H16_4 C24_4 1_555 1_555
H17_4 C24_4 1_555 1_555
H18_4 C24_4 1_555 1_555
O18_2 C25_4 1_555 1_555
O22 C25_4 1_555 1_555
C25_4 C26_4 1_555 1_555
C26_4 C27_4 1_555 1_555
C27_4 H19_4 1_555 1_555
C28_4 C20_4 1_555 1_555
C29_4 C27_4 1_555 1_555
C30_4 C26_4 1_555 1_555
H20_4 C30_4 1_555 1_555
C31_4 C28_4 1_555 1_555
H21_4 C31_4 1_555 1_555
C32_4 C29_4 1_555 1_555
H22_4 C32_4 1_555 1_555
H23_4 C32_4 1_555 1_555
H24_4 C32_4 1_555 1_555
Zr10_4 O3_4 1_555 1_555
O19_4 Zr6_2 1_555 1_555
C6_4 C7_4 1_555 1_555
C12_4 C13_4 1_555 1_555
C14_4 C15_4 1_555 1_555
O14_4 Zr9_4 1_555 1_555
C22_4 C23_4 1_555 1_555
C28_4 C29_4 1_555 1_555
C30_4 C31_4 1_555 1_555
Zr10_4 O19_4 1_555 1_555
Zr9_4 O19_4 1_555 1_555
O5_5 Zr9 1_555 1_555
O6_5 Zr9 1_555 1_555
O11_5 Zr10 1_555 1_555
O12_5 Zr10 1_555 1_555
O5_6 Zr9_2 1_555 1_555
O6_6 Zr9_2 1_555 1_555
O11_6 Zr10_2 1_555 1_555
O12_6 Zr10_2 1_555 1_555
O5_7 Zr10_3 1_555 1_555
O6_7 Zr10_3 1_555 1_555
O11_7 Zr9_3 1_555 1_555
O12_7 Zr9_3 1_555 1_555
O5_8 Zr10_4 1_555 1_555
O6_8 Zr10_4 1_555 1_555
O11_8 Zr9_4 1_555 1_555
O12_8 Zr9_4 1_555 1_555

#END
