
###############################################################################
#
# This file contains modified crystal structure data generated from the
# MOF subset of the Cambridge Structural Database (CSD) v543 
# hosted by the Cambridge Crystallographic Data Centre (CCDC).
#
# This work is licensed under the Creative Commons
# Attribution-NonCommercial-ShareAlike 4.0 International License.
# To view a copy of this license, visit
# http://creativecommons.org/licenses/by-nc-sa/4.0/
# or send a letter to
# Creative Commons, PO Box 1866, Mountain View, CA 94042, USA.
#
# CIF created using the CSD Python API on 29 September 2022
# The structure has been converted into the P1 space group
# The structure has a 3D framework
# The original CSD entry HERJAS is in the orthorhombic crystal system
# The framework has been calculated to contain at least 10.0% void space
# The void calculation uses a probe of radius 1.32A, grid spacing 0.4
# H atom positions have been added when not included in the experimental data
# Generated hydrogen atom positions removed from atoms on special positions
#
###############################################################################

data_HERJAS
_chemical_formula_moiety         '(C168 H168 O62 Zr12)n'
_symmetry_cell_setting           triclinic
_symmetry_space_group_name_H-M   'P 1'
_symmetry_Int_Tables_number      1
_space_group_name_Hall           'P 1'
loop_
_symmetry_equiv_pos_site_id
_symmetry_equiv_pos_as_xyz
1 x,y,z
_cell_length_a                   35.2146(9)
_cell_length_b                   19.7752(16)
_cell_length_c                   15.7268(6)
_cell_angle_alpha                90
_cell_angle_beta                 90
_cell_angle_gamma                90
_cell_volume                     10951.8
loop_
_atom_site_label
_atom_site_type_symbol
_atom_site_fract_x
_atom_site_fract_y
_atom_site_fract_z
Zr1 Zr 0.431060(18) 0.49540(5) 0.5000
Zr2 Zr 0.497856(12) 0.58962(4) 0.61286(3)
O1 O 0.40061(10) 0.4274(3) 0.4170(3)
O2 O 0.53176(15) 0.5927(4) 0.5000
O3 O 0.10279(11) 0.0586(3) 0.4163(3)
O4 O 0.46420(16) 0.5871(4) 0.5000
O5 O 0.49808(11) 0.5821(3) 0.7513(3)
O6 O 0.46615(15) 0.4972(2) 0.6134(4)
O7 O 0.06089(12) 0.1210(3) 0.3408(3)
O8 O 0.44536(12) 0.3708(3) 0.3404(3)
O9 O 0.49538(11) 0.6998(3) 0.6052(3)
O10 O 0.25344(11) 0.2388(3) 0.3116(3)
C1 C 0.41031(19) 0.3874(5) 0.3601(5)
C2 C 0.25405(18) 0.2384(5) 0.0485(5)
C3 C 0.0948(2) 0.1000(5) 0.3602(5)
C4 C 0.12672(17) 0.1333(5) 0.3113(5)
C5 C 0.38582(18) 0.3035(5) 0.2506(5)
H1 H 0.4113 0.2921 0.2367
C6 C 0.28531(19) 0.2600(5) 0.0951(5)
H2 H 0.3069 0.2769 0.0657
C7 C 0.22385(19) 0.2140(5) 0.0940(5)
H3 H 0.2025 0.1969 0.0640
C8 C 0.12166(19) 0.1819(5) 0.2510(5)
H4 H 0.0968 0.1973 0.2377
C9 C 0.37948(18) 0.3507(5) 0.3121(5)
C10 C 0.1526(2) 0.2087(5) 0.2091(5)
H5 H 0.1492 0.2439 0.1687
C11 C 0.25497(19) 0.2353(5) 0.2244(5)
C12 C 0.35615(19) 0.2712(5) 0.2071(4)
H6 H 0.3609 0.2373 0.1657
C13 C 0.2860(2) 0.2577(5) 0.1814(5)
C14 C 0.1892(2) 0.1836(6) 0.2267(5)
C15 C 0.22337(19) 0.2132(6) 0.1797(5)
C16 C 0.31825(19) 0.2919(6) 0.2283(5)
C17 C 0.1629(2) 0.1051(6) 0.3288(5)
H7 H 0.1661 0.0687 0.3675
C18 C 0.1934(2) 0.1341(6) 0.2859(6)
H8 H 0.2183 0.1185 0.2985
C19 C 0.34220(19) 0.3734(5) 0.3299(5)
H9 H 0.3376 0.4088 0.3695
C20 C 0.3127(2) 0.3420(7) 0.2873(6)
H10 H 0.2874 0.3557 0.2995
C21 C 0.28286(18) 0.1833(5) 0.3493(4)
H11 H 0.2902 0.1517 0.3041
H12 H 0.2706 0.1583 0.3956
H13 H 0.3055 0.2062 0.3709
Zr3 Zr 0.502144(12) 0.41038(4) 0.61286(3)
O16 O 0.50192(11) 0.4179(3) 0.7513(3)
O17 O 0.53385(15) 0.5028(2) 0.6134(4)
O18 O 0.50462(11) 0.3002(3) 0.6052(3)
Zr5 Zr 0.568940(18) 0.50460(5) 0.5000
Zr9 Zr 0.002144(12) 0.08962(4) 0.38714(3)
Zr10 Zr 0.502144(12) 0.41038(4) 0.38714(3)
Zr11 Zr 0.497856(12) 0.58962(4) 0.38714(3)
O19 O 0.40061(10) 0.4274(3) 0.5830(3)
O20 O 0.46824(15) 0.4073(4) 0.5000
O21 O 0.39721(11) 0.5586(3) 0.5837(3)
O22 O 0.39721(11) 0.5586(3) 0.4163(3)
O23 O 0.53580(16) 0.4129(4) 0.5000
O24 O 0.46615(15) 0.4972(2) 0.3866(4)
O25 O 0.43911(12) 0.6210(3) 0.6592(3)
O26 O 0.56089(12) 0.3790(3) 0.6592(3)
O27 O 0.55464(12) 0.6292(3) 0.6596(3)
O28 O 0.44536(12) 0.3708(3) 0.6596(3)
O12 O 0.10279(11) 0.0586(3) 0.5837(3)
O13 O 0.06089(12) 0.1210(3) 0.6592(3)
O15 O 0.25344(11) 0.2388(3) 0.6884(3)
C22 C 0.41031(19) 0.3874(5) 0.6399(5)
C23 C 0.25405(18) 0.2384(5) 0.9515(5)
C24 C 0.0948(2) 0.1000(5) 0.6398(5)
C25 C 0.12672(17) 0.1333(5) 0.6887(5)
C26 C 0.38582(18) 0.3035(5) 0.7494(5)
H14 H 0.4113 0.2921 0.7633
C27 C 0.28531(19) 0.2600(5) 0.9049(5)
H15 H 0.3069 0.2769 0.9343
C28 C 0.22385(19) 0.2140(5) 0.9060(5)
H16 H 0.2025 0.1969 0.9360
C29 C 0.12166(19) 0.1819(5) 0.7490(5)
H17 H 0.0968 0.1973 0.7623
C30 C 0.37948(18) 0.3507(5) 0.6879(5)
C31 C 0.1526(2) 0.2087(5) 0.7909(5)
H18 H 0.1492 0.2439 0.8313
C32 C 0.25497(19) 0.2353(5) 0.7756(5)
C33 C 0.35615(19) 0.2712(5) 0.7929(4)
H19 H 0.3609 0.2373 0.8343
C34 C 0.2860(2) 0.2577(5) 0.8186(5)
C35 C 0.1892(2) 0.1836(6) 0.7733(5)
C36 C 0.22337(19) 0.2132(6) 0.8203(5)
C37 C 0.31825(19) 0.2919(6) 0.7717(5)
C38 C 0.1629(2) 0.1051(6) 0.6712(5)
H20 H 0.1661 0.0687 0.6325
C39 C 0.1934(2) 0.1341(6) 0.7141(6)
H21 H 0.2183 0.1185 0.7015
C40 C 0.34220(19) 0.3734(5) 0.6701(5)
H22 H 0.3376 0.4088 0.6305
C41 C 0.3127(2) 0.3420(7) 0.7127(6)
H23 H 0.2874 0.3557 0.7005
C42 C 0.28286(18) 0.1833(5) 0.6507(4)
H24 H 0.2902 0.1517 0.6959
H25 H 0.2706 0.1583 0.6044
H26 H 0.3055 0.2062 0.6291
Zr12 Zr 0.002144(12) 0.08962(4) 0.61286(3)
Zr7 Zr 0.068940(18) 0.99540(5) 0.5000
Zr7_2 Zr 0.931060(18) 0.00460(5) 0.5000
O1_2 O 0.59939(10) 0.5726(3) 0.4170(3)
O3_2 O 0.89721(11) 0.9414(3) 0.4163(3)
O7_2 O 0.93911(12) 0.8790(3) 0.3408(3)
O8_2 O 0.55464(12) 0.6292(3) 0.3404(3)
O10_2 O 0.74656(11) 0.7612(3) 0.3116(3)
C1_2 C 0.58969(19) 0.6126(5) 0.3601(5)
C2_2 C 0.74595(18) 0.7616(5) 0.0485(5)
C3_2 C 0.9052(2) 0.9000(5) 0.3602(5)
C4_2 C 0.87328(17) 0.8667(5) 0.3113(5)
C5_2 C 0.61418(18) 0.6965(5) 0.2506(5)
H1_2 H 0.5887 0.7079 0.2367
C6_2 C 0.71469(19) 0.7400(5) 0.0951(5)
H2_2 H 0.6931 0.7231 0.0657
C7_2 C 0.77615(19) 0.7860(5) 0.0940(5)
H3_2 H 0.7975 0.8031 0.0640
C8_2 C 0.87834(19) 0.8181(5) 0.2510(5)
H4_2 H 0.9032 0.8027 0.2377
C9_2 C 0.62052(18) 0.6493(5) 0.3121(5)
C10_2 C 0.8474(2) 0.7913(5) 0.2091(5)
H5_2 H 0.8508 0.7561 0.1687
C11_2 C 0.74503(19) 0.7647(5) 0.2244(5)
C12_2 C 0.64385(19) 0.7288(5) 0.2071(4)
H6_2 H 0.6391 0.7627 0.1657
C13_2 C 0.7140(2) 0.7423(5) 0.1814(5)
C14_2 C 0.8108(2) 0.8164(6) 0.2267(5)
C15_2 C 0.77663(19) 0.7868(6) 0.1797(5)
C16_2 C 0.68175(19) 0.7081(6) 0.2283(5)
C17_2 C 0.8371(2) 0.8949(6) 0.3288(5)
H7_2 H 0.8339 0.9313 0.3675
C18_2 C 0.8066(2) 0.8659(6) 0.2859(6)
H8_2 H 0.7817 0.8815 0.2985
C19_2 C 0.65780(19) 0.6266(5) 0.3299(5)
H9_2 H 0.6624 0.5912 0.3695
C20_2 C 0.6873(2) 0.6580(7) 0.2873(6)
H10_2 H 0.7126 0.6443 0.2995
C21_2 C 0.71714(18) 0.8167(5) 0.3493(4)
H11_2 H 0.7098 0.8483 0.3041
H12_2 H 0.7294 0.8417 0.3956
H13_2 H 0.6945 0.7938 0.3709
Zr9_2 Zr 0.997856(12) 0.91038(4) 0.38714(3)
O19_2 O 0.59939(10) 0.5726(3) 0.5830(3)
O21_2 O 0.60279(11) 0.4414(3) 0.5837(3)
O22_2 O 0.60279(11) 0.4414(3) 0.4163(3)
O24_2 O 0.53385(15) 0.5028(2) 0.3866(4)
O12_2 O 0.89721(11) 0.9414(3) 0.5837(3)
O13_2 O 0.93911(12) 0.8790(3) 0.6592(3)
O15_2 O 0.74656(11) 0.7612(3) 0.6884(3)
C22_2 C 0.58969(19) 0.6126(5) 0.6399(5)
C23_2 C 0.74595(18) 0.7616(5) 0.9515(5)
C24_2 C 0.9052(2) 0.9000(5) 0.6398(5)
C25_2 C 0.87328(17) 0.8667(5) 0.6887(5)
C26_2 C 0.61418(18) 0.6965(5) 0.7494(5)
H14_2 H 0.5887 0.7079 0.7633
C27_2 C 0.71469(19) 0.7400(5) 0.9049(5)
H15_2 H 0.6931 0.7231 0.9343
C28_2 C 0.77615(19) 0.7860(5) 0.9060(5)
H16_2 H 0.7975 0.8031 0.9360
C29_2 C 0.87834(19) 0.8181(5) 0.7490(5)
H17_2 H 0.9032 0.8027 0.7623
C30_2 C 0.62052(18) 0.6493(5) 0.6879(5)
C31_2 C 0.8474(2) 0.7913(5) 0.7909(5)
H18_2 H 0.8508 0.7561 0.8313
C32_2 C 0.74503(19) 0.7647(5) 0.7756(5)
C33_2 C 0.64385(19) 0.7288(5) 0.7929(4)
H19_2 H 0.6391 0.7627 0.8343
C34_2 C 0.7140(2) 0.7423(5) 0.8186(5)
C35_2 C 0.8108(2) 0.8164(6) 0.7733(5)
C36_2 C 0.77663(19) 0.7868(6) 0.8203(5)
C37_2 C 0.68175(19) 0.7081(6) 0.7717(5)
C38_2 C 0.8371(2) 0.8949(6) 0.6712(5)
H20_2 H 0.8339 0.9313 0.6325
C39_2 C 0.8066(2) 0.8659(6) 0.7141(6)
H21_2 H 0.7817 0.8815 0.7015
C40_2 C 0.65780(19) 0.6266(5) 0.6701(5)
H22_2 H 0.6624 0.5912 0.6305
C41_2 C 0.6873(2) 0.6580(7) 0.7127(6)
H23_2 H 0.7126 0.6443 0.7005
C42_2 C 0.71714(18) 0.8167(5) 0.6507(4)
H24_2 H 0.7098 0.8483 0.6959
H25_2 H 0.7294 0.8417 0.6044
H26_2 H 0.6945 0.7938 0.6291
Zr12_2 Zr 0.997856(12) 0.91038(4) 0.61286(3)
O4_2 O 0.03580(16) 0.0871(4) 0.5000
O5_2 O 0.00192(11) 0.0821(3) 0.2487(3)
O9_2 O 0.00462(11) 0.1998(3) 0.3948(3)
H32 H 0.0284383 0.083313 0.227285
O11 O 0.09939(10) 0.9274(3) 0.4170(3)
O13_3 O 0.43911(12) 0.6210(3) 0.3408(3)
O14 O 0.05464(12) 0.8708(3) 0.3404(3)
O15_3 O 0.24656(11) 0.7388(3) 0.3116(3)
C22_3 C 0.08969(19) 0.8874(5) 0.3601(5)
C23_3 C 0.24595(18) 0.7384(5) 0.0485(5)
C24_3 C 0.4052(2) 0.6000(5) 0.3602(5)
C25_3 C 0.37328(17) 0.6333(5) 0.3113(5)
C26_3 C 0.11418(18) 0.8035(5) 0.2506(5)
H14_3 H 0.0887 0.7921 0.2367
C27_3 C 0.21469(19) 0.7600(5) 0.0951(5)
H15_3 H 0.1931 0.7769 0.0657
C28_3 C 0.27615(19) 0.7140(5) 0.0940(5)
H16_3 H 0.2975 0.6969 0.0640
C29_3 C 0.37834(19) 0.6819(5) 0.2510(5)
H17_3 H 0.4032 0.6973 0.2377
C30_3 C 0.12052(18) 0.8507(5) 0.3121(5)
C31_3 C 0.3474(2) 0.7087(5) 0.2091(5)
H18_3 H 0.3508 0.7439 0.1687
C32_3 C 0.24503(19) 0.7353(5) 0.2244(5)
C33_3 C 0.14385(19) 0.7712(5) 0.2071(4)
H19_3 H 0.1391 0.7373 0.1657
C34_3 C 0.2140(2) 0.7577(5) 0.1814(5)
C35_3 C 0.3108(2) 0.6836(6) 0.2267(5)
C36_3 C 0.27663(19) 0.7132(6) 0.1797(5)
C37_3 C 0.18175(19) 0.7919(6) 0.2283(5)
C38_3 C 0.3371(2) 0.6051(6) 0.3288(5)
H20_3 H 0.3339 0.5687 0.3675
C39_3 C 0.3066(2) 0.6341(6) 0.2859(6)
H21_3 H 0.2817 0.6185 0.2985
C40_3 C 0.15780(19) 0.8734(5) 0.3299(5)
H22_3 H 0.1624 0.9088 0.3695
C41_3 C 0.1873(2) 0.8420(7) 0.2873(6)
H23_3 H 0.2126 0.8557 0.2995
C42_3 C 0.21714(18) 0.6833(5) 0.3493(4)
H24_3 H 0.2098 0.6517 0.3041
H25_3 H 0.2294 0.6583 0.3956
H26_3 H 0.1945 0.7062 0.3709
O1_3 O 0.09939(10) 0.9274(3) 0.5830(3)
O6_2 O 0.03385(15) 0.9972(2) 0.3866(4)
O8_3 O 0.05464(12) 0.8708(3) 0.6596(3)
O10_3 O 0.24656(11) 0.7388(3) 0.6884(3)
C1_3 C 0.08969(19) 0.8874(5) 0.6399(5)
C2_3 C 0.24595(18) 0.7384(5) 0.9515(5)
C3_3 C 0.4052(2) 0.6000(5) 0.6398(5)
C4_3 C 0.37328(17) 0.6333(5) 0.6887(5)
C5_3 C 0.11418(18) 0.8035(5) 0.7494(5)
H1_3 H 0.0887 0.7921 0.7633
C6_3 C 0.21469(19) 0.7600(5) 0.9049(5)
H2_3 H 0.1931 0.7769 0.9343
C7_3 C 0.27615(19) 0.7140(5) 0.9060(5)
H3_3 H 0.2975 0.6969 0.9360
C8_3 C 0.37834(19) 0.6819(5) 0.7490(5)
H4_3 H 0.4032 0.6973 0.7623
C9_3 C 0.12052(18) 0.8507(5) 0.6879(5)
C10_3 C 0.3474(2) 0.7087(5) 0.7909(5)
H5_3 H 0.3508 0.7439 0.8313
C11_3 C 0.24503(19) 0.7353(5) 0.7756(5)
C12_3 C 0.14385(19) 0.7712(5) 0.7929(4)
H6_3 H 0.1391 0.7373 0.8343
C13_3 C 0.2140(2) 0.7577(5) 0.8186(5)
C14_3 C 0.3108(2) 0.6836(6) 0.7733(5)
C15_3 C 0.27663(19) 0.7132(6) 0.8203(5)
C16_3 C 0.18175(19) 0.7919(6) 0.7717(5)
C17_3 C 0.3371(2) 0.6051(6) 0.6712(5)
H7_3 H 0.3339 0.5687 0.6325
C18_3 C 0.3066(2) 0.6341(6) 0.7141(6)
H8_3 H 0.2817 0.6185 0.7015
C19_3 C 0.15780(19) 0.8734(5) 0.6701(5)
H9_3 H 0.1624 0.9088 0.6305
C20_3 C 0.1873(2) 0.8420(7) 0.7127(6)
H10_3 H 0.2126 0.8557 0.7005
C21_3 C 0.21714(18) 0.6833(5) 0.6507(4)
H11_3 H 0.2098 0.6517 0.6959
H12_3 H 0.2294 0.6583 0.6044
H13_3 H 0.1945 0.7062 0.6291
O20_2 O 0.03176(15) 0.9073(4) 0.5000
O24_3 O 0.03385(15) 0.9972(2) 0.6134(4)
H27 H 0.0245287 0.913682 0.227456
H29 H 0.00659977 0.785028 0.449496
O2_2 O 0.96824(15) 0.0927(4) 0.5000
O17_2 O 0.96615(15) 0.0028(2) 0.3866(4)
O27_2 O 0.94536(12) 0.1292(3) 0.3404(3)
H31 H 0.987457 0.120636 0.224412
O16_2 O 0.99808(11) 0.9179(3) 0.2487(3)
O18_2 O 0.99538(11) 0.8002(3) 0.3948(3)
O23_2 O 0.96420(16) 0.9129(4) 0.5000
H28 H 0.9823 0.881079 0.224314
H28_2 H 0.0176998 0.118921 0.224314
H31_2 H 0.0125431 0.879364 0.224412
O11_2 O 0.90061(10) 0.0726(3) 0.4170(3)
O13_4 O 0.56089(12) 0.3790(3) 0.3408(3)
O15_4 O 0.75344(11) 0.2612(3) 0.3116(3)
C22_4 C 0.91031(19) 0.1126(5) 0.3601(5)
C23_4 C 0.75405(18) 0.2616(5) 0.0485(5)
C24_4 C 0.5948(2) 0.4000(5) 0.3602(5)
C25_4 C 0.62672(17) 0.3667(5) 0.3113(5)
C26_4 C 0.88582(18) 0.1965(5) 0.2506(5)
H14_4 H 0.9113 0.2079 0.2367
C27_4 C 0.78531(19) 0.2400(5) 0.0951(5)
H15_4 H 0.8069 0.2231 0.0657
C28_4 C 0.72385(19) 0.2860(5) 0.0940(5)
H16_4 H 0.7025 0.3031 0.0640
C29_4 C 0.62166(19) 0.3181(5) 0.2510(5)
H17_4 H 0.5968 0.3027 0.2377
C30_4 C 0.87948(18) 0.1493(5) 0.3121(5)
C31_4 C 0.6526(2) 0.2913(5) 0.2091(5)
H18_4 H 0.6492 0.2561 0.1687
C32_4 C 0.75497(19) 0.2647(5) 0.2244(5)
C33_4 C 0.85615(19) 0.2288(5) 0.2071(4)
H19_4 H 0.8609 0.2627 0.1657
C34_4 C 0.7860(2) 0.2423(5) 0.1814(5)
C35_4 C 0.6892(2) 0.3164(6) 0.2267(5)
C36_4 C 0.72337(19) 0.2868(6) 0.1797(5)
C37_4 C 0.81825(19) 0.2081(6) 0.2283(5)
C38_4 C 0.6629(2) 0.3949(6) 0.3288(5)
H20_4 H 0.6661 0.4313 0.3675
C39_4 C 0.6934(2) 0.3659(6) 0.2859(6)
H21_4 H 0.7183 0.3815 0.2985
C40_4 C 0.84220(19) 0.1266(5) 0.3299(5)
H22_4 H 0.8376 0.0912 0.3695
C41_4 C 0.8127(2) 0.1580(7) 0.2873(6)
H23_4 H 0.7874 0.1443 0.2995
C42_4 C 0.78286(18) 0.3167(5) 0.3493(4)
H24_4 H 0.7902 0.3483 0.3041
H25_4 H 0.7706 0.3417 0.3956
H26_4 H 0.8055 0.2938 0.3709
O1_4 O 0.90061(10) 0.0726(3) 0.5830(3)
O8_4 O 0.94536(12) 0.1292(3) 0.6596(3)
O10_4 O 0.75344(11) 0.2612(3) 0.6884(3)
C1_4 C 0.91031(19) 0.1126(5) 0.6399(5)
C2_4 C 0.75405(18) 0.2616(5) 0.9515(5)
C3_4 C 0.5948(2) 0.4000(5) 0.6398(5)
C4_4 C 0.62672(17) 0.3667(5) 0.6887(5)
C5_4 C 0.88582(18) 0.1965(5) 0.7494(5)
H1_4 H 0.9113 0.2079 0.7633
C6_4 C 0.78531(19) 0.2400(5) 0.9049(5)
H2_4 H 0.8069 0.2231 0.9343
C7_4 C 0.72385(19) 0.2860(5) 0.9060(5)
H3_4 H 0.7025 0.3031 0.9360
C8_4 C 0.62166(19) 0.3181(5) 0.7490(5)
H4_4 H 0.5968 0.3027 0.7623
C9_4 C 0.87948(18) 0.1493(5) 0.6879(5)
C10_4 C 0.6526(2) 0.2913(5) 0.7909(5)
H5_4 H 0.6492 0.2561 0.8313
C11_4 C 0.75497(19) 0.2647(5) 0.7756(5)
C12_4 C 0.85615(19) 0.2288(5) 0.7929(4)
H6_4 H 0.8609 0.2627 0.8343
C13_4 C 0.7860(2) 0.2423(5) 0.8186(5)
C14_4 C 0.6892(2) 0.3164(6) 0.7733(5)
C15_4 C 0.72337(19) 0.2868(6) 0.8203(5)
C16_4 C 0.81825(19) 0.2081(6) 0.7717(5)
C17_4 C 0.6629(2) 0.3949(6) 0.6712(5)
H7_4 H 0.6661 0.4313 0.6325
C18_4 C 0.6934(2) 0.3659(6) 0.7141(6)
H8_4 H 0.7183 0.3815 0.7015
C19_4 C 0.84220(19) 0.1266(5) 0.6701(5)
H9_4 H 0.8376 0.0912 0.6305
C20_4 C 0.8127(2) 0.1580(7) 0.7127(6)
H10_4 H 0.7874 0.1443 0.7005
C21_4 C 0.78286(18) 0.3167(5) 0.6507(4)
H11_4 H 0.7902 0.3483 0.6959
H12_4 H 0.7706 0.3417 0.6044
H13_4 H 0.8055 0.2938 0.6291
O24_4 O 0.96615(15) 0.0028(2) 0.6134(4)
H27_2 H 0.975471 0.086318 0.227456
H29_2 H 0.9934 0.214972 0.449496
H32_2 H 0.971562 0.916687 0.227285
O5_3 O 0.50192(11) 0.4179(3) 0.2487(3)
O9_3 O 0.50462(11) 0.3002(3) 0.3948(3)
O16_3 O 0.49808(11) 0.5821(3) 0.2487(3)
O18_3 O 0.49538(11) 0.6998(3) 0.3948(3)
O16_4 O 0.00192(11) 0.0821(3) 0.7513(3)
O18_4 O 0.00462(11) 0.1998(3) 0.6052(3)
H28_3 H 0.0176998 0.118921 0.775686
H31_3 H 0.0125431 0.879364 0.775588
H27_3 H 0.975471 0.086318 0.772544
H29_3 H 0.9934 0.214972 0.550504
O5_4 O 0.99808(11) 0.9179(3) 0.7513(3)
O9_4 O 0.99538(11) 0.8002(3) 0.6052(3)
H32_3 H 0.971562 0.916687 0.772715
H32_4 H 0.0284383 0.083313 0.772715
H27_4 H 0.0245287 0.913682 0.772544
H29_4 H 0.00659977 0.785028 0.550504
H31_4 H 0.987457 0.120636 0.775588
H28_4 H 0.9823 0.881079 0.775686
loop_
_geom_bond_atom_site_label_1
_geom_bond_atom_site_label_2
_geom_bond_site_symmetry_1
_geom_bond_site_symmetry_2
Zr1 O1 1_555 1_555
Zr2 O2 1_555 1_555
O1 C1 1_555 1_555
O2 Zr5 1_555 1_555
O3 C3 1_555 1_555
O4 Zr1 1_555 1_555
O5 Zr2 1_555 1_555
O6 Zr1 1_555 1_555
O7 C3 1_555 1_555
O8 C1 1_555 1_555
O9 Zr2 1_555 1_555
O10 C11 1_555 1_555
C1 C9 1_555 1_555
C2 C6 1_555 1_555
C3 C4 1_555 1_555
C4 C8 1_555 1_555
C5 H1 1_555 1_555
C6 H2 1_555 1_555
C7 C2 1_555 1_555
H3 C7 1_555 1_555
C8 H4 1_555 1_555
C9 C5 1_555 1_555
C10 C8 1_555 1_555
H5 C10 1_555 1_555
C11 C13 1_555 1_555
C12 C5 1_555 1_555
H6 C12 1_555 1_555
C13 C6 1_555 1_555
C14 C10 1_555 1_555
C15 C7 1_555 1_555
C16 C12 1_555 1_555
C17 C4 1_555 1_555
H7 C17 1_555 1_555
C18 C14 1_555 1_555
H8 C18 1_555 1_555
C19 C9 1_555 1_555
H9 C19 1_555 1_555
C20 C16 1_555 1_555
H10 C20 1_555 1_555
C21 O10 1_555 1_555
H11 C21 1_555 1_555
H12 C21 1_555 1_555
H13 C21 1_555 1_555
Zr3 O6 1_555 1_555
O16 Zr3 1_555 1_555
O17 Zr2 1_555 1_555
O18 Zr3 1_555 1_555
Zr5 O17 1_555 1_555
Zr9 O7 1_555 1_555
Zr10 O8 1_555 1_555
Zr11 O2 1_555 1_555
O19 Zr1 1_555 1_555
O20 Zr1 1_555 1_555
O21 Zr1 1_555 1_555
O22 Zr1 1_555 1_555
O23 Zr3 1_555 1_555
O24 Zr1 1_555 1_555
O25 Zr2 1_555 1_555
O26 Zr3 1_555 1_555
O27 Zr2 1_555 1_555
O28 Zr3 1_555 1_555
Zr2 O4 1_555 1_555
Zr2 O6 1_555 1_555
O4 Zr11 1_555 1_555
C11 C15 1_555 1_555
C13 C16 1_555 1_555
C14 C15 1_555 1_555
C17 C18 1_555 1_555
C19 C20 1_555 1_555
Zr3 O17 1_555 1_555
Zr3 O20 1_555 1_555
Zr5 O23 1_555 1_555
Zr10 O20 1_555 1_555
Zr10 O23 1_555 1_555
Zr10 O24 1_555 1_555
Zr11 O24 1_555 1_555
O19 C22 1_555 1_555
O12 C24 1_555 1_555
O13 C24 1_555 1_555
O28 C22 1_555 1_555
O15 C32 1_555 1_555
C22 C30 1_555 1_555
C24 C25 1_555 1_555
C25 C29 1_555 1_555
C26 H14 1_555 1_555
C27 C23 1_555 1_555
H15 C27 1_555 1_555
C28 C23 1_555 1_555
H16 C28 1_555 1_555
C29 H17 1_555 1_555
C30 C26 1_555 1_555
C31 C29 1_555 1_555
H18 C31 1_555 1_555
C32 C34 1_555 1_555
C33 C26 1_555 1_555
H19 C33 1_555 1_555
C34 C27 1_555 1_555
C35 C31 1_555 1_555
C36 C28 1_555 1_555
C37 C33 1_555 1_555
C38 C25 1_555 1_555
H20 C38 1_555 1_555
C39 C35 1_555 1_555
H21 C39 1_555 1_555
C40 C30 1_555 1_555
H22 C40 1_555 1_555
C41 C37 1_555 1_555
H23 C41 1_555 1_555
C42 O15 1_555 1_555
H24 C42 1_555 1_555
H25 C42 1_555 1_555
H26 C42 1_555 1_555
Zr12 O13 1_555 1_555
C32 C36 1_555 1_555
C34 C37 1_555 1_555
C35 C36 1_555 1_555
C38 C39 1_555 1_555
C40 C41 1_555 1_555
Zr5 O1_2 1_555 1_555
O1_2 C1_2 1_555 1_555
O3_2 C3_2 1_555 1_555
O7_2 C3_2 1_555 1_555
O8_2 C1_2 1_555 1_555
O10_2 C11_2 1_555 1_555
C1_2 C9_2 1_555 1_555
C2_2 C6_2 1_555 1_555
C3_2 C4_2 1_555 1_555
C4_2 C8_2 1_555 1_555
C5_2 H1_2 1_555 1_555
C6_2 H2_2 1_555 1_555
C7_2 C2_2 1_555 1_555
H3_2 C7_2 1_555 1_555
C8_2 H4_2 1_555 1_555
C9_2 C5_2 1_555 1_555
C10_2 C8_2 1_555 1_555
H5_2 C10_2 1_555 1_555
C11_2 C13_2 1_555 1_555
C12_2 C5_2 1_555 1_555
H6_2 C12_2 1_555 1_555
C13_2 C6_2 1_555 1_555
C14_2 C10_2 1_555 1_555
C15_2 C7_2 1_555 1_555
C16_2 C12_2 1_555 1_555
C17_2 C4_2 1_555 1_555
H7_2 C17_2 1_555 1_555
C18_2 C14_2 1_555 1_555
H8_2 C18_2 1_555 1_555
C19_2 C9_2 1_555 1_555
H9_2 C19_2 1_555 1_555
C20_2 C16_2 1_555 1_555
H10_2 C20_2 1_555 1_555
C21_2 O10_2 1_555 1_555
H11_2 C21_2 1_555 1_555
H12_2 C21_2 1_555 1_555
H13_2 C21_2 1_555 1_555
Zr9_2 O7_2 1_555 1_555
Zr11 O8_2 1_555 1_555
O19_2 Zr5 1_555 1_555
O21_2 Zr5 1_555 1_555
O22_2 Zr5 1_555 1_555
O24_2 Zr5 1_555 1_555
C11_2 C15_2 1_555 1_555
C13_2 C16_2 1_555 1_555
C14_2 C15_2 1_555 1_555
C17_2 C18_2 1_555 1_555
C19_2 C20_2 1_555 1_555
Zr11 O24_2 1_555 1_555
Zr10 O24_2 1_555 1_555
O19_2 C22_2 1_555 1_555
O12_2 C24_2 1_555 1_555
O13_2 C24_2 1_555 1_555
O27 C22_2 1_555 1_555
O15_2 C32_2 1_555 1_555
C22_2 C30_2 1_555 1_555
C24_2 C25_2 1_555 1_555
C25_2 C29_2 1_555 1_555
C26_2 H14_2 1_555 1_555
C27_2 C23_2 1_555 1_555
H15_2 C27_2 1_555 1_555
C28_2 C23_2 1_555 1_555
H16_2 C28_2 1_555 1_555
C29_2 H17_2 1_555 1_555
C30_2 C26_2 1_555 1_555
C31_2 C29_2 1_555 1_555
H18_2 C31_2 1_555 1_555
C32_2 C34_2 1_555 1_555
C33_2 C26_2 1_555 1_555
H19_2 C33_2 1_555 1_555
C34_2 C27_2 1_555 1_555
C35_2 C31_2 1_555 1_555
C36_2 C28_2 1_555 1_555
C37_2 C33_2 1_555 1_555
C38_2 C25_2 1_555 1_555
H20_2 C38_2 1_555 1_555
C39_2 C35_2 1_555 1_555
H21_2 C39_2 1_555 1_555
C40_2 C30_2 1_555 1_555
H22_2 C40_2 1_555 1_555
C41_2 C37_2 1_555 1_555
H23_2 C41_2 1_555 1_555
C42_2 O15_2 1_555 1_555
H24_2 C42_2 1_555 1_555
H25_2 C42_2 1_555 1_555
H26_2 C42_2 1_555 1_555
Zr12_2 O13_2 1_555 1_555
C32_2 C36_2 1_555 1_555
C34_2 C37_2 1_555 1_555
C35_2 C36_2 1_555 1_555
C38_2 C39_2 1_555 1_555
C40_2 C41_2 1_555 1_555
O5_2 Zr9 1_555 1_555
O9_2 Zr9 1_555 1_555
Zr9 O4_2 1_555 1_555
O4_2 Zr12 1_555 1_555
O5_2 H32 1_555 1_555
O11 C22_3 1_555 1_555
O22 C24_3 1_555 1_555
O13_3 C24_3 1_555 1_555
O14 C22_3 1_555 1_555
O15_3 C32_3 1_555 1_555
C22_3 C30_3 1_555 1_555
C24_3 C25_3 1_555 1_555
C25_3 C29_3 1_555 1_555
C26_3 H14_3 1_555 1_555
C27_3 C23_3 1_555 1_555
H15_3 C27_3 1_555 1_555
C28_3 C23_3 1_555 1_555
H16_3 C28_3 1_555 1_555
C29_3 H17_3 1_555 1_555
C30_3 C26_3 1_555 1_555
C31_3 C29_3 1_555 1_555
H18_3 C31_3 1_555 1_555
C32_3 C34_3 1_555 1_555
C33_3 C26_3 1_555 1_555
H19_3 C33_3 1_555 1_555
C34_3 C27_3 1_555 1_555
C35_3 C31_3 1_555 1_555
C36_3 C28_3 1_555 1_555
C37_3 C33_3 1_555 1_555
C38_3 C25_3 1_555 1_555
H20_3 C38_3 1_555 1_555
C39_3 C35_3 1_555 1_555
H21_3 C39_3 1_555 1_555
C40_3 C30_3 1_555 1_555
H22_3 C40_3 1_555 1_555
C41_3 C37_3 1_555 1_555
H23_3 C41_3 1_555 1_555
C42_3 O15_3 1_555 1_555
H24_3 C42_3 1_555 1_555
H25_3 C42_3 1_555 1_555
H26_3 C42_3 1_555 1_555
Zr7 O11 1_555 1_555
Zr11 O13_3 1_555 1_555
C32_3 C36_3 1_555 1_555
C34_3 C37_3 1_555 1_555
C35_3 C36_3 1_555 1_555
C38_3 C39_3 1_555 1_555
C40_3 C41_3 1_555 1_555
Zr7 O1_3 1_555 1_555
O1_3 C1_3 1_555 1_555
O21 C3_3 1_555 1_555
O6_2 Zr7 1_555 1_555
O25 C3_3 1_555 1_555
O8_3 C1_3 1_555 1_555
O10_3 C11_3 1_555 1_555
C1_3 C9_3 1_555 1_555
C2_3 C6_3 1_555 1_555
C3_3 C4_3 1_555 1_555
C4_3 C8_3 1_555 1_555
C5_3 H1_3 1_555 1_555
C6_3 H2_3 1_555 1_555
C7_3 C2_3 1_555 1_555
H3_3 C7_3 1_555 1_555
C8_3 H4_3 1_555 1_555
C9_3 C5_3 1_555 1_555
C10_3 C8_3 1_555 1_555
H5_3 C10_3 1_555 1_555
C11_3 C13_3 1_555 1_555
C12_3 C5_3 1_555 1_555
H6_3 C12_3 1_555 1_555
C13_3 C6_3 1_555 1_555
C14_3 C10_3 1_555 1_555
C15_3 C7_3 1_555 1_555
C16_3 C12_3 1_555 1_555
C17_3 C4_3 1_555 1_555
H7_3 C17_3 1_555 1_555
C18_3 C14_3 1_555 1_555
H8_3 C18_3 1_555 1_555
C19_3 C9_3 1_555 1_555
H9_3 C19_3 1_555 1_555
C20_3 C16_3 1_555 1_555
H10_3 C20_3 1_555 1_555
C21_3 O10_3 1_555 1_555
H11_3 C21_3 1_555 1_555
H12_3 C21_3 1_555 1_555
H13_3 C21_3 1_555 1_555
O20_2 Zr7 1_555 1_555
O24_3 Zr7 1_555 1_555
C11_3 C15_3 1_555 1_555
C13_3 C16_3 1_555 1_555
C14_3 C15_3 1_555 1_555
C17_3 C18_3 1_555 1_555
C19_3 C20_3 1_555 1_555
O2_2 Zr7_2 1_555 1_555
Zr7_2 O17_2 1_555 1_555
O16_2 Zr9_2 1_555 1_555
O18_2 Zr9_2 1_555 1_555
O23_2 Zr9_2 1_555 1_555
Zr12_2 O23_2 1_555 1_555
O16_2 H28 1_555 1_555
O5_2 H28_2 1_555 1_555
O11_2 C22_4 1_555 1_555
O22_2 C24_4 1_555 1_555
O13_4 C24_4 1_555 1_555
O27_2 C22_4 1_555 1_555
O15_4 C32_4 1_555 1_555
C22_4 C30_4 1_555 1_555
C24_4 C25_4 1_555 1_555
C25_4 C29_4 1_555 1_555
C26_4 H14_4 1_555 1_555
C27_4 C23_4 1_555 1_555
H15_4 C27_4 1_555 1_555
C28_4 C23_4 1_555 1_555
H16_4 C28_4 1_555 1_555
C29_4 H17_4 1_555 1_555
C30_4 C26_4 1_555 1_555
C31_4 C29_4 1_555 1_555
H18_4 C31_4 1_555 1_555
C32_4 C34_4 1_555 1_555
C33_4 C26_4 1_555 1_555
H19_4 C33_4 1_555 1_555
C34_4 C27_4 1_555 1_555
C35_4 C31_4 1_555 1_555
C36_4 C28_4 1_555 1_555
C37_4 C33_4 1_555 1_555
C38_4 C25_4 1_555 1_555
H20_4 C38_4 1_555 1_555
C39_4 C35_4 1_555 1_555
H21_4 C39_4 1_555 1_555
C40_4 C30_4 1_555 1_555
H22_4 C40_4 1_555 1_555
C41_4 C37_4 1_555 1_555
H23_4 C41_4 1_555 1_555
C42_4 O15_4 1_555 1_555
H24_4 C42_4 1_555 1_555
H25_4 C42_4 1_555 1_555
H26_4 C42_4 1_555 1_555
Zr7_2 O11_2 1_555 1_555
Zr10 O13_4 1_555 1_555
C32_4 C36_4 1_555 1_555
C34_4 C37_4 1_555 1_555
C35_4 C36_4 1_555 1_555
C38_4 C39_4 1_555 1_555
C40_4 C41_4 1_555 1_555
Zr7_2 O1_4 1_555 1_555
O1_4 C1_4 1_555 1_555
O21_2 C3_4 1_555 1_555
O26 C3_4 1_555 1_555
O8_4 C1_4 1_555 1_555
O10_4 C11_4 1_555 1_555
C1_4 C9_4 1_555 1_555
C2_4 C6_4 1_555 1_555
C3_4 C4_4 1_555 1_555
C4_4 C8_4 1_555 1_555
C5_4 H1_4 1_555 1_555
C6_4 H2_4 1_555 1_555
C7_4 C2_4 1_555 1_555
H3_4 C7_4 1_555 1_555
C8_4 H4_4 1_555 1_555
C9_4 C5_4 1_555 1_555
C10_4 C8_4 1_555 1_555
H5_4 C10_4 1_555 1_555
C11_4 C13_4 1_555 1_555
C12_4 C5_4 1_555 1_555
H6_4 C12_4 1_555 1_555
C13_4 C6_4 1_555 1_555
C14_4 C10_4 1_555 1_555
C15_4 C7_4 1_555 1_555
C16_4 C12_4 1_555 1_555
C17_4 C4_4 1_555 1_555
H7_4 C17_4 1_555 1_555
C18_4 C14_4 1_555 1_555
H8_4 C18_4 1_555 1_555
C19_4 C9_4 1_555 1_555
H9_4 C19_4 1_555 1_555
C20_4 C16_4 1_555 1_555
H10_4 C20_4 1_555 1_555
C21_4 O10_4 1_555 1_555
H11_4 C21_4 1_555 1_555
H12_4 C21_4 1_555 1_555
H13_4 C21_4 1_555 1_555
O24_4 Zr7_2 1_555 1_555
C11_4 C15_4 1_555 1_555
C13_4 C16_4 1_555 1_555
C14_4 C15_4 1_555 1_555
C17_4 C18_4 1_555 1_555
C19_4 C20_4 1_555 1_555
O16_2 H32_2 1_555 1_555
O5_3 Zr10 1_555 1_555
O9_3 Zr10 1_555 1_555
O16_3 Zr11 1_555 1_555
O18_3 Zr11 1_555 1_555
O16_4 Zr12 1_555 1_555
O18_4 Zr12 1_555 1_555
O16_4 H28_3 1_555 1_555
O5_4 Zr12_2 1_555 1_555
O9_4 Zr12_2 1_555 1_555
O5_4 H32_3 1_555 1_555
O16_4 H32_4 1_555 1_555
O5_4 H28_4 1_555 1_555

#END
