
###############################################################################
#
# This file contains modified crystal structure data generated from the
# MOF subset of the Cambridge Structural Database (CSD) v543 
# hosted by the Cambridge Crystallographic Data Centre (CCDC).
#
# This work is licensed under the Creative Commons
# Attribution-NonCommercial-ShareAlike 4.0 International License.
# To view a copy of this license, visit
# http://creativecommons.org/licenses/by-nc-sa/4.0/
# or send a letter to
# Creative Commons, PO Box 1866, Mountain View, CA 94042, USA.
#
# CIF created using the CSD Python API on 29 September 2022
# The structure has been converted into the P1 space group
# The structure has a 3D framework
# The original CSD entry HERMEZ04 is in the monoclinic crystal system
# The framework has been calculated to contain at least 10.0% void space
# The void calculation uses a probe of radius 1.32A, grid spacing 0.4
#
###############################################################################

data_HERMEZ04
_chemical_formula_moiety         '(C128 H80 Ag16 Fe8 N80)n'
_symmetry_cell_setting           triclinic
_symmetry_space_group_name_H-M   'P 1'
_symmetry_Int_Tables_number      1
_space_group_name_Hall           'P 1'
loop_
_symmetry_equiv_pos_site_id
_symmetry_equiv_pos_as_xyz
1 x,y,z
_cell_length_a                   31.9580(11)
_cell_length_b                   12.9515(4)
_cell_length_c                   16.7173(4)
_cell_angle_alpha                90
_cell_angle_beta                 112.4720(10)
_cell_angle_gamma                90
_cell_volume                     6393.95
loop_
_atom_site_label
_atom_site_type_symbol
_atom_site_fract_x
_atom_site_fract_y
_atom_site_fract_z
Fe3 Fe 0.05362(2) 0.75029(3) 0.03141(2)
Fe4 Fe 0.55362(2) 0.25029(3) 0.03141(2)
Ag1 Ag 0.05422(2) 0.49547(2) 0.78770(2)
Ag2 Ag 0.04983(2) 0.02520(2) 0.26209(2)
Fe1 Fe 0.05362(2) 0.24971(3) 0.53141(2)
N1 N 0.05210(9) 0.3546(2) 0.63026(17)
N2 N 0.05477(9) 0.1486(2) 0.43085(17)
N3 N 0.12729(8) 0.2294(2) 0.60170(16)
N4 N 0.28221(11) 0.0700(3) 0.7391(3)
N5 N 0.32835(10) 0.0687(3) 0.7858(3)
N6 N 0.30404(8) 0.2274(2) 0.78211(17)
N7 N 0.30398(10) 0.3337(2) 0.8007(2)
H1 H 0.2890 0.3702 0.7489
H2 H 0.2887 0.3425 0.8368
N8 N 0.47971(8) 0.22837(19) 0.96182(16)
N9 N 0.06349(10) 0.6244(2) 0.95580(18)
C1 C 0.05196(12) 0.4066(3) 0.6848(2)
C2 C 0.05419(12) 0.1049(3) 0.3713(2)
C3 C 0.14522(11) 0.1348(3) 0.6059(2)
H3 H 0.1259 0.0801 0.5778
C4 C 0.19079(11) 0.1139(3) 0.6496(2)
H4 H 0.2018 0.0465 0.6507
C5 C 0.22019(10) 0.1933(2) 0.6920(2)
C6 C 0.20172(11) 0.2919(3) 0.6873(2)
H5 H 0.2202 0.3483 0.7145
C7 C 0.15560(11) 0.3053(3) 0.6416(2)
H6 H 0.1436 0.3721 0.6387
C8 C 0.26813(11) 0.1654(3) 0.7377(2)
C9 C 0.34091(11) 0.1640(3) 0.8105(2)
C10 C 0.38826(10) 0.1912(3) 0.8628(2)
C11 C 0.41586(11) 0.1146(3) 0.9136(2)
H7 H 0.4041 0.0486 0.9158
C12 C 0.46079(11) 0.1360(2) 0.9611(2)
H8 H 0.4792 0.0828 0.9948
C13 C 0.45282(11) 0.3026(3) 0.9138(2)
H9 H 0.4654 0.3684 0.9144
C14 C 0.40758(11) 0.2883(3) 0.8631(2)
H10 H 0.3901 0.3426 0.8295
C15 C 0.06059(13) 0.5771(3) 0.8968(2)
N12 N 0.06349(10) 0.3756(2) 0.45580(18)
N13 N 0.04338(9) 0.1218(2) 0.60443(17)
N10 N 0.04338(9) 0.8782(2) 0.10443(17)
C16 C 0.04543(12) 0.9344(3) 0.1579(2)
N11 N 0.97971(8) 0.27163(19) 0.46182(16)
N9_2 N 0.56349(10) 0.1244(2) 0.95580(18)
C15_2 C 0.56059(13) 0.0771(3) 0.8968(2)
Ag1_2 Ag 0.55422(2) 0.99547(2) 0.78770(2)
Ag2_2 Ag 0.54983(2) 0.52520(2) 0.26209(2)
Fe1_2 Fe 0.55362(2) 0.74971(3) 0.53141(2)
N1_2 N 0.55210(9) 0.8546(2) 0.63026(17)
N2_2 N 0.55477(9) 0.6486(2) 0.43085(17)
N3_2 N 0.62729(8) 0.7294(2) 0.60170(16)
N4_2 N 0.78221(11) 0.5700(3) 0.7391(3)
N5_2 N 0.82835(10) 0.5687(3) 0.7858(3)
N6_2 N 0.80404(8) 0.7274(2) 0.78211(17)
N7_2 N 0.80398(10) 0.8337(2) 0.8007(2)
H1_2 H 0.7890 0.8702 0.7489
H2_2 H 0.7887 0.8425 0.8368
N8_2 N 0.97971(8) 0.72837(19) 0.96182(16)
N10_2 N 0.54338(9) 0.3782(2) 0.10443(17)
C1_2 C 0.55196(12) 0.9066(3) 0.6848(2)
C2_2 C 0.55419(12) 0.6049(3) 0.3713(2)
C3_2 C 0.64522(11) 0.6348(3) 0.6059(2)
H3_2 H 0.6259 0.5801 0.5778
C4_2 C 0.69079(11) 0.6139(3) 0.6496(2)
H4_2 H 0.7018 0.5465 0.6507
C5_2 C 0.72019(10) 0.6933(2) 0.6920(2)
C6_2 C 0.70172(11) 0.7919(3) 0.6873(2)
H5_2 H 0.7202 0.8483 0.7145
C7_2 C 0.65560(11) 0.8053(3) 0.6416(2)
H6_2 H 0.6436 0.8721 0.6387
C8_2 C 0.76813(11) 0.6654(3) 0.7377(2)
C9_2 C 0.84091(11) 0.6640(3) 0.8105(2)
C10_2 C 0.88826(10) 0.6912(3) 0.8628(2)
C11_2 C 0.91586(11) 0.6146(3) 0.9136(2)
H7_2 H 0.9041 0.5486 0.9158
C12_2 C 0.96079(11) 0.6360(2) 0.9611(2)
H8_2 H 0.9792 0.5828 0.9948
C13_2 C 0.95282(11) 0.8026(3) 0.9138(2)
H9_2 H 0.9654 0.8684 0.9144
C14_2 C 0.90758(11) 0.7883(3) 0.8631(2)
H10_2 H 0.8901 0.8426 0.8295
C16_2 C 0.54543(12) 0.4344(3) 0.1579(2)
N11_2 N 0.47971(8) 0.77163(19) 0.46182(16)
N12_2 N 0.56349(10) 0.8756(2) 0.45580(18)
N13_2 N 0.54338(9) 0.6218(2) 0.60443(17)
C16_3 C 0.04543(12) 0.0656(3) 0.6579(2)
Ag1_3 Ag 0.05422(2) 0.50453(2) 0.28770(2)
N1_3 N 0.05210(9) 0.6454(2) 0.13026(17)
N3_3 N 0.12729(8) 0.7706(2) 0.10170(16)
N4_3 N 0.28221(11) 0.9300(3) 0.2391(3)
N5_3 N 0.32835(10) 0.9313(3) 0.2858(3)
N6_3 N 0.30404(8) 0.7726(2) 0.28211(17)
N7_3 N 0.30398(10) 0.6663(2) 0.3007(2)
H1_3 H 0.2890 0.6298 0.2489
H2_3 H 0.2887 0.6575 0.3368
C1_3 C 0.05196(12) 0.5934(3) 0.1848(2)
C3_3 C 0.14522(11) 0.8652(3) 0.1059(2)
H3_3 H 0.1259 0.9199 0.0778
C4_3 C 0.19079(11) 0.8861(3) 0.1496(2)
H4_3 H 0.2018 0.9535 0.1507
C5_3 C 0.22019(10) 0.8067(2) 0.1920(2)
C6_3 C 0.20172(11) 0.7081(3) 0.1873(2)
H5_3 H 0.2202 0.6517 0.2145
C7_3 C 0.15560(11) 0.6947(3) 0.1416(2)
H6_3 H 0.1436 0.6279 0.1387
C8_3 C 0.26813(11) 0.8346(3) 0.2377(2)
C9_3 C 0.34091(11) 0.8360(3) 0.3105(2)
C10_3 C 0.38826(10) 0.8088(3) 0.3628(2)
C11_3 C 0.41586(11) 0.8854(3) 0.4136(2)
H7_3 H 0.4041 0.9514 0.4158
C12_3 C 0.46079(11) 0.8640(2) 0.4611(2)
H8_3 H 0.4792 0.9172 0.4948
C13_3 C 0.45282(11) 0.6974(3) 0.4138(2)
H9_3 H 0.4654 0.6316 0.4144
C14_3 C 0.40758(11) 0.7117(3) 0.3631(2)
H10_3 H 0.3901 0.6574 0.3295
C15_3 C 0.06059(13) 0.4229(3) 0.3968(2)
Ag2_3 Ag 0.04983(2) 0.97480(2) 0.76209(2)
N2_3 N 0.05477(9) 0.8514(2) 0.93085(17)
C2_3 C 0.05419(12) 0.8951(3) 0.8713(2)
Ag1_4 Ag 0.55422(2) 0.00453(2) 0.28770(2)
N1_4 N 0.55210(9) 0.1454(2) 0.13026(17)
N3_4 N 0.62729(8) 0.2706(2) 0.10170(16)
N4_4 N 0.78221(11) 0.4300(3) 0.2391(3)
N5_4 N 0.82835(10) 0.4313(3) 0.2858(3)
N6_4 N 0.80404(8) 0.2726(2) 0.28211(17)
N7_4 N 0.80398(10) 0.1663(2) 0.3007(2)
H1_4 H 0.7890 0.1298 0.2489
H2_4 H 0.7887 0.1575 0.3368
C1_4 C 0.55196(12) 0.0934(3) 0.1848(2)
C3_4 C 0.64522(11) 0.3652(3) 0.1059(2)
H3_4 H 0.6259 0.4199 0.0778
C4_4 C 0.69079(11) 0.3861(3) 0.1496(2)
H4_4 H 0.7018 0.4535 0.1507
C5_4 C 0.72019(10) 0.3067(2) 0.1920(2)
C6_4 C 0.70172(11) 0.2081(3) 0.1873(2)
H5_4 H 0.7202 0.1517 0.2145
C7_4 C 0.65560(11) 0.1947(3) 0.1416(2)
H6_4 H 0.6436 0.1279 0.1387
C8_4 C 0.76813(11) 0.3346(3) 0.2377(2)
C9_4 C 0.84091(11) 0.3360(3) 0.3105(2)
C10_4 C 0.88826(10) 0.3088(3) 0.3628(2)
C11_4 C 0.91586(11) 0.3854(3) 0.4136(2)
H7_4 H 0.9041 0.4514 0.4158
C12_4 C 0.96079(11) 0.3640(2) 0.4611(2)
H8_4 H 0.9792 0.4172 0.4948
C13_4 C 0.95282(11) 0.1974(3) 0.4138(2)
H9_4 H 0.9654 0.1316 0.4144
C14_4 C 0.90758(11) 0.2117(3) 0.3631(2)
H10_4 H 0.8901 0.1574 0.3295
Ag2_4 Ag 0.54983(2) 0.47480(2) 0.76209(2)
N2_4 N 0.55477(9) 0.3514(2) 0.93085(17)
C2_4 C 0.55419(12) 0.3951(3) 0.8713(2)
C16_4 C 0.54543(12) 0.5656(3) 0.6579(2)
C15_4 C 0.56059(13) 0.9229(3) 0.3968(2)
N11_3 N 0.02029(8) 0.27163(19) 0.03818(16)
Ag2_5 Ag 0.95017(2) 0.02520(2) 0.23791(2)
N2_5 N 0.94523(9) 0.1486(2) 0.06915(17)
C2_5 C 0.94581(12) 0.1049(3) 0.1287(2)
N12_3 N 0.93651(10) 0.3756(2) 0.04420(18)
Ag1_5 Ag 0.94578(2) 0.49547(2) 0.71230(2)
Fe1_3 Fe 0.94638(2) 0.24971(3) 0.96859(2)
N1_5 N 0.94790(9) 0.3546(2) 0.86974(17)
N3_5 N 0.87271(8) 0.2294(2) 0.89830(16)
N4_5 N 0.71779(11) 0.0700(3) 0.7609(3)
N5_5 N 0.67165(10) 0.0687(3) 0.7142(3)
N6_5 N 0.69596(8) 0.2274(2) 0.71789(17)
N7_5 N 0.69602(10) 0.3337(2) 0.6993(2)
H1_5 H 0.7110 0.3702 0.7511
H2_5 H 0.7113 0.3425 0.6632
N8_3 N 0.52029(8) 0.22837(19) 0.53818(16)
N9_3 N 0.93651(10) 0.6244(2) 0.54420(18)
C1_5 C 0.94804(12) 0.4066(3) 0.8152(2)
C3_5 C 0.85478(11) 0.1348(3) 0.8941(2)
H3_5 H 0.8741 0.0801 0.9222
C4_5 C 0.80921(11) 0.1139(3) 0.8504(2)
H4_5 H 0.7982 0.0465 0.8493
C5_5 C 0.77981(10) 0.1933(2) 0.8080(2)
C6_5 C 0.79828(11) 0.2919(3) 0.8127(2)
H5_5 H 0.7798 0.3483 0.7855
C7_5 C 0.84440(11) 0.3053(3) 0.8584(2)
H6_5 H 0.8564 0.3721 0.8613
C8_5 C 0.73187(11) 0.1654(3) 0.7623(2)
C9_5 C 0.65909(11) 0.1640(3) 0.6895(2)
C10_5 C 0.61174(10) 0.1912(3) 0.6372(2)
C11_5 C 0.58414(11) 0.1146(3) 0.5864(2)
H7_5 H 0.5959 0.0486 0.5842
C12_5 C 0.53921(11) 0.1360(2) 0.5389(2)
H8_5 H 0.5208 0.0828 0.5052
C13_5 C 0.54718(11) 0.3026(3) 0.5862(2)
H9_5 H 0.5346 0.3684 0.5856
C14_5 C 0.59242(11) 0.2883(3) 0.6369(2)
H10_5 H 0.6099 0.3426 0.6705
C15_5 C 0.93941(13) 0.5771(3) 0.6032(2)
Fe3_2 Fe 0.94638(2) 0.75029(3) 0.46859(2)
Fe4_2 Fe 0.44638(2) 0.25029(3) 0.46859(2)
N13_3 N 0.95662(9) 0.1218(2) 0.89557(17)
N10_3 N 0.95662(9) 0.8782(2) 0.39557(17)
C16_5 C 0.95457(12) 0.9344(3) 0.3421(2)
N9_4 N 0.43651(10) 0.1244(2) 0.54420(18)
C15_6 C 0.43941(13) 0.0771(3) 0.6032(2)
Ag2_6 Ag 0.45017(2) 0.52520(2) 0.23791(2)
N2_6 N 0.44523(9) 0.6486(2) 0.06915(17)
N10_4 N 0.45662(9) 0.3782(2) 0.39557(17)
C2_6 C 0.44581(12) 0.6049(3) 0.1287(2)
C16_6 C 0.45457(12) 0.4344(3) 0.3421(2)
N11_4 N 0.52029(8) 0.77163(19) 0.03818(16)
N12_4 N 0.43651(10) 0.8756(2) 0.04420(18)
Ag1_6 Ag 0.44578(2) 0.99547(2) 0.71230(2)
Fe1_4 Fe 0.44638(2) 0.74971(3) 0.96859(2)
N1_6 N 0.44790(9) 0.8546(2) 0.86974(17)
N3_6 N 0.37271(8) 0.7294(2) 0.89830(16)
N4_6 N 0.21779(11) 0.5700(3) 0.7609(3)
N5_6 N 0.17165(10) 0.5687(3) 0.7142(3)
N6_6 N 0.19596(8) 0.7274(2) 0.71789(17)
N7_6 N 0.19602(10) 0.8337(2) 0.6993(2)
H1_6 H 0.2110 0.8702 0.7511
H2_6 H 0.2113 0.8425 0.6632
N8_4 N 0.02029(8) 0.72837(19) 0.53818(16)
C1_6 C 0.44804(12) 0.9066(3) 0.8152(2)
C3_6 C 0.35478(11) 0.6348(3) 0.8941(2)
H3_6 H 0.3741 0.5801 0.9222
C4_6 C 0.30921(11) 0.6139(3) 0.8504(2)
H4_6 H 0.2982 0.5465 0.8493
C5_6 C 0.27981(10) 0.6933(2) 0.8080(2)
C6_6 C 0.29828(11) 0.7919(3) 0.8127(2)
H5_6 H 0.2798 0.8483 0.7855
C7_6 C 0.34440(11) 0.8053(3) 0.8584(2)
H6_6 H 0.3564 0.8721 0.8613
C8_6 C 0.23187(11) 0.6654(3) 0.7623(2)
C9_6 C 0.15909(11) 0.6640(3) 0.6895(2)
C10_6 C 0.11174(10) 0.6912(3) 0.6372(2)
C11_6 C 0.08414(11) 0.6146(3) 0.5864(2)
H7_6 H 0.0959 0.5486 0.5842
C12_6 C 0.03921(11) 0.6360(2) 0.5389(2)
H8_6 H 0.0208 0.5828 0.5052
C13_6 C 0.04718(11) 0.8026(3) 0.5862(2)
H9_6 H 0.0346 0.8684 0.5856
C14_6 C 0.09242(11) 0.7883(3) 0.6369(2)
H10_6 H 0.1099 0.8426 0.6705
N13_4 N 0.45662(9) 0.6218(2) 0.89557(17)
C16_7 C 0.95457(12) 0.0656(3) 0.8421(2)
Ag1_7 Ag 0.94578(2) 0.50453(2) 0.21230(2)
Ag2_7 Ag 0.95017(2) 0.97480(2) 0.73791(2)
N1_7 N 0.94790(9) 0.6454(2) 0.36974(17)
N2_7 N 0.94523(9) 0.8514(2) 0.56915(17)
N3_7 N 0.87271(8) 0.7706(2) 0.39830(16)
N4_7 N 0.71779(11) 0.9300(3) 0.2609(3)
N5_7 N 0.67165(10) 0.9313(3) 0.2142(3)
N6_7 N 0.69596(8) 0.7726(2) 0.21789(17)
N7_7 N 0.69602(10) 0.6663(2) 0.1993(2)
H1_7 H 0.7110 0.6298 0.2511
H2_7 H 0.7113 0.6575 0.1632
C1_7 C 0.94804(12) 0.5934(3) 0.3152(2)
C2_7 C 0.94581(12) 0.8951(3) 0.6287(2)
C3_7 C 0.85478(11) 0.8652(3) 0.3941(2)
H3_7 H 0.8741 0.9199 0.4222
C4_7 C 0.80921(11) 0.8861(3) 0.3504(2)
H4_7 H 0.7982 0.9535 0.3493
C5_7 C 0.77981(10) 0.8067(2) 0.3080(2)
C6_7 C 0.79828(11) 0.7081(3) 0.3127(2)
H5_7 H 0.7798 0.6517 0.2855
C7_7 C 0.84440(11) 0.6947(3) 0.3584(2)
H6_7 H 0.8564 0.6279 0.3613
C8_7 C 0.73187(11) 0.8346(3) 0.2623(2)
C9_7 C 0.65909(11) 0.8360(3) 0.1895(2)
C10_7 C 0.61174(10) 0.8088(3) 0.1372(2)
C11_7 C 0.58414(11) 0.8854(3) 0.0864(2)
H7_7 H 0.5959 0.9514 0.0842
C12_7 C 0.53921(11) 0.8640(2) 0.0389(2)
H8_7 H 0.5208 0.9172 0.0052
C13_7 C 0.54718(11) 0.6974(3) 0.0862(2)
H9_7 H 0.5346 0.6316 0.0856
C14_7 C 0.59242(11) 0.7117(3) 0.1369(2)
H10_7 H 0.6099 0.6574 0.1705
C15_7 C 0.93941(13) 0.4229(3) 0.1032(2)
Ag1_8 Ag 0.44578(2) 0.00453(2) 0.21230(2)
Ag2_8 Ag 0.45017(2) 0.47480(2) 0.73791(2)
N1_8 N 0.44790(9) 0.1454(2) 0.36974(17)
N2_8 N 0.44523(9) 0.3514(2) 0.56915(17)
N3_8 N 0.37271(8) 0.2706(2) 0.39830(16)
N4_8 N 0.21779(11) 0.4300(3) 0.2609(3)
N5_8 N 0.17165(10) 0.4313(3) 0.2142(3)
N6_8 N 0.19596(8) 0.2726(2) 0.21789(17)
N7_8 N 0.19602(10) 0.1663(2) 0.1993(2)
H1_8 H 0.2110 0.1298 0.2511
H2_8 H 0.2113 0.1575 0.1632
C1_8 C 0.44804(12) 0.0934(3) 0.3152(2)
C2_8 C 0.44581(12) 0.3951(3) 0.6287(2)
C3_8 C 0.35478(11) 0.3652(3) 0.3941(2)
H3_8 H 0.3741 0.4199 0.4222
C4_8 C 0.30921(11) 0.3861(3) 0.3504(2)
H4_8 H 0.2982 0.4535 0.3493
C5_8 C 0.27981(10) 0.3067(2) 0.3080(2)
C6_8 C 0.29828(11) 0.2081(3) 0.3127(2)
H5_8 H 0.2798 0.1517 0.2855
C7_8 C 0.34440(11) 0.1947(3) 0.3584(2)
H6_8 H 0.3564 0.1279 0.3613
C8_8 C 0.23187(11) 0.3346(3) 0.2623(2)
C9_8 C 0.15909(11) 0.3360(3) 0.1895(2)
C10_8 C 0.11174(10) 0.3088(3) 0.1372(2)
C11_8 C 0.08414(11) 0.3854(3) 0.0864(2)
H7_8 H 0.0959 0.4514 0.0842
C12_8 C 0.03921(11) 0.3640(2) 0.0389(2)
H8_8 H 0.0208 0.4172 0.0052
C13_8 C 0.04718(11) 0.1974(3) 0.0862(2)
H9_8 H 0.0346 0.1316 0.0856
C14_8 C 0.09242(11) 0.2117(3) 0.1369(2)
H10_8 H 0.1099 0.1574 0.1705
C16_8 C 0.45457(12) 0.5656(3) 0.8421(2)
C15_8 C 0.43941(13) 0.9229(3) 0.1032(2)
loop_
_geom_bond_atom_site_label_1
_geom_bond_atom_site_label_2
_geom_bond_site_symmetry_1
_geom_bond_site_symmetry_2
Ag1 C1 1_555 1_555
Ag2 C2 1_555 1_555
Fe1 N1 1_555 1_555
N1 C1 1_555 1_555
N2 Fe1 1_555 1_555
N3 Fe1 1_555 1_555
N4 N5 1_555 1_555
N5 C9 1_555 1_555
N6 N7 1_555 1_555
N7 H1 1_555 1_555
H2 N7 1_555 1_555
N8 C12 1_555 1_555
N9 C15 1_555 1_555
C2 N2 1_555 1_555
C3 N3 1_555 1_555
H3 C3 1_555 1_555
C4 C3 1_555 1_555
H4 C4 1_555 1_555
C5 C4 1_555 1_555
C6 C5 1_555 1_555
H5 C6 1_555 1_555
C7 N3 1_555 1_555
H6 C7 1_555 1_555
C8 N4 1_555 1_555
C9 N6 1_555 1_555
C10 C9 1_555 1_555
C11 C10 1_555 1_555
H7 C11 1_555 1_555
C12 C11 1_555 1_555
H8 C12 1_555 1_555
C13 N8 1_555 1_555
H9 C13 1_555 1_555
C14 C10 1_555 1_555
H10 C14 1_555 1_555
C15 Ag1 1_555 1_555
N12 Fe1 1_555 1_555
N13 Fe1 1_555 1_555
N6 C8 1_555 1_555
C5 C8 1_555 1_555
C6 C7 1_555 1_555
C13 C14 1_555 1_555
N10 C16 1_555 1_555
Fe3 N10 1_555 1_555
N9_2 C15_2 1_555 1_555
Ag1_2 C1_2 1_555 1_555
Ag2_2 C2_2 1_555 1_555
Fe1_2 N1_2 1_555 1_555
N1_2 C1_2 1_555 1_555
N2_2 Fe1_2 1_555 1_555
N3_2 Fe1_2 1_555 1_555
N4_2 N5_2 1_555 1_555
N5_2 C9_2 1_555 1_555
N6_2 N7_2 1_555 1_555
N7_2 H1_2 1_555 1_555
H2_2 N7_2 1_555 1_555
N8_2 C12_2 1_555 1_555
N10_2 C16_2 1_555 1_555
C2_2 N2_2 1_555 1_555
C3_2 N3_2 1_555 1_555
H3_2 C3_2 1_555 1_555
C4_2 C3_2 1_555 1_555
H4_2 C4_2 1_555 1_555
C5_2 C4_2 1_555 1_555
C6_2 C5_2 1_555 1_555
H5_2 C6_2 1_555 1_555
C7_2 N3_2 1_555 1_555
H6_2 C7_2 1_555 1_555
C8_2 N4_2 1_555 1_555
C9_2 N6_2 1_555 1_555
C10_2 C9_2 1_555 1_555
C11_2 C10_2 1_555 1_555
H7_2 C11_2 1_555 1_555
C12_2 C11_2 1_555 1_555
H8_2 C12_2 1_555 1_555
C13_2 N8_2 1_555 1_555
H9_2 C13_2 1_555 1_555
C14_2 C10_2 1_555 1_555
H10_2 C14_2 1_555 1_555
C16_2 Ag2_2 1_555 1_555
Fe4 N10_2 1_555 1_555
N11_2 Fe1_2 1_555 1_555
N12_2 Fe1_2 1_555 1_555
N13_2 Fe1_2 1_555 1_555
N6_2 C8_2 1_555 1_555
C5_2 C8_2 1_555 1_555
C6_2 C7_2 1_555 1_555
C13_2 C14_2 1_555 1_555
N13 C16_3 1_555 1_555
Ag1_3 C1_3 1_555 1_555
Fe3 N1_3 1_555 1_555
N1_3 C1_3 1_555 1_555
N3_3 Fe3 1_555 1_555
N4_3 N5_3 1_555 1_555
N5_3 C9_3 1_555 1_555
N6_3 N7_3 1_555 1_555
N7_3 H1_3 1_555 1_555
H2_3 N7_3 1_555 1_555
N11_2 C12_3 1_555 1_555
N12 C15_3 1_555 1_555
C3_3 N3_3 1_555 1_555
H3_3 C3_3 1_555 1_555
C4_3 C3_3 1_555 1_555
H4_3 C4_3 1_555 1_555
C5_3 C4_3 1_555 1_555
C6_3 C5_3 1_555 1_555
H5_3 C6_3 1_555 1_555
C7_3 N3_3 1_555 1_555
H6_3 C7_3 1_555 1_555
C8_3 N4_3 1_555 1_555
C9_3 N6_3 1_555 1_555
C10_3 C9_3 1_555 1_555
C11_3 C10_3 1_555 1_555
H7_3 C11_3 1_555 1_555
C12_3 C11_3 1_555 1_555
H8_3 C12_3 1_555 1_555
C13_3 N11_2 1_555 1_555
H9_3 C13_3 1_555 1_555
C14_3 C10_3 1_555 1_555
H10_3 C14_3 1_555 1_555
C15_3 Ag1_3 1_555 1_555
N6_3 C8_3 1_555 1_555
C5_3 C8_3 1_555 1_555
C6_3 C7_3 1_555 1_555
C13_3 C14_3 1_555 1_555
Ag2_3 C2_3 1_555 1_555
C2_3 N2_3 1_555 1_555
Ag1_4 C1_4 1_555 1_555
Fe4 N1_4 1_555 1_555
N1_4 C1_4 1_555 1_555
N3_4 Fe4 1_555 1_555
N4_4 N5_4 1_555 1_555
N5_4 C9_4 1_555 1_555
N6_4 N7_4 1_555 1_555
N7_4 H1_4 1_555 1_555
H2_4 N7_4 1_555 1_555
N11 C12_4 1_555 1_555
C3_4 N3_4 1_555 1_555
H3_4 C3_4 1_555 1_555
C4_4 C3_4 1_555 1_555
H4_4 C4_4 1_555 1_555
C5_4 C4_4 1_555 1_555
C6_4 C5_4 1_555 1_555
H5_4 C6_4 1_555 1_555
C7_4 N3_4 1_555 1_555
H6_4 C7_4 1_555 1_555
C8_4 N4_4 1_555 1_555
C9_4 N6_4 1_555 1_555
C10_4 C9_4 1_555 1_555
C11_4 C10_4 1_555 1_555
H7_4 C11_4 1_555 1_555
C12_4 C11_4 1_555 1_555
H8_4 C12_4 1_555 1_555
C13_4 N11 1_555 1_555
H9_4 C13_4 1_555 1_555
C14_4 C10_4 1_555 1_555
H10_4 C14_4 1_555 1_555
N6_4 C8_4 1_555 1_555
C5_4 C8_4 1_555 1_555
C6_4 C7_4 1_555 1_555
C13_4 C14_4 1_555 1_555
Ag2_4 C2_4 1_555 1_555
N13_2 C16_4 1_555 1_555
C2_4 N2_4 1_555 1_555
C16_4 Ag2_4 1_555 1_555
N12_2 C15_4 1_555 1_555
Ag2_5 C2_5 1_555 1_555
C2_5 N2_5 1_555 1_555
Ag1_5 C1_5 1_555 1_555
Fe1_3 N1_5 1_555 1_555
N1_5 C1_5 1_555 1_555
N3_5 Fe1_3 1_555 1_555
N4_5 N5_5 1_555 1_555
N5_5 C9_5 1_555 1_555
N6_5 N7_5 1_555 1_555
N7_5 H1_5 1_555 1_555
H2_5 N7_5 1_555 1_555
N8_3 C12_5 1_555 1_555
N9_3 C15_5 1_555 1_555
C3_5 N3_5 1_555 1_555
H3_5 C3_5 1_555 1_555
C4_5 C3_5 1_555 1_555
H4_5 C4_5 1_555 1_555
C5_5 C4_5 1_555 1_555
C6_5 C5_5 1_555 1_555
H5_5 C6_5 1_555 1_555
C7_5 N3_5 1_555 1_555
H6_5 C7_5 1_555 1_555
C8_5 N4_5 1_555 1_555
C9_5 N6_5 1_555 1_555
C10_5 C9_5 1_555 1_555
C11_5 C10_5 1_555 1_555
H7_5 C11_5 1_555 1_555
C12_5 C11_5 1_555 1_555
H8_5 C12_5 1_555 1_555
C13_5 N8_3 1_555 1_555
H9_5 C13_5 1_555 1_555
C14_5 C10_5 1_555 1_555
H10_5 C14_5 1_555 1_555
C15_5 Ag1_5 1_555 1_555
Fe3_2 N9_3 1_555 1_555
Fe4_2 N8_3 1_555 1_555
N13_3 Fe1_3 1_555 1_555
N6_5 C8_5 1_555 1_555
C5_5 C8_5 1_555 1_555
C6_5 C7_5 1_555 1_555
C13_5 C14_5 1_555 1_555
N10_3 C16_5 1_555 1_555
Fe3_2 N10_3 1_555 1_555
N9_4 C15_6 1_555 1_555
Fe4_2 N9_4 1_555 1_555
Ag2_6 C2_6 1_555 1_555
N10_4 C16_6 1_555 1_555
C2_6 N2_6 1_555 1_555
C16_6 Ag2_6 1_555 1_555
Fe4_2 N10_4 1_555 1_555
Ag1_6 C1_6 1_555 1_555
Fe1_4 N1_6 1_555 1_555
N1_6 C1_6 1_555 1_555
N3_6 Fe1_4 1_555 1_555
N4_6 N5_6 1_555 1_555
N5_6 C9_6 1_555 1_555
N6_6 N7_6 1_555 1_555
N7_6 H1_6 1_555 1_555
H2_6 N7_6 1_555 1_555
N8_4 C12_6 1_555 1_555
C3_6 N3_6 1_555 1_555
H3_6 C3_6 1_555 1_555
C4_6 C3_6 1_555 1_555
H4_6 C4_6 1_555 1_555
C5_6 C4_6 1_555 1_555
C6_6 C5_6 1_555 1_555
H5_6 C6_6 1_555 1_555
C7_6 N3_6 1_555 1_555
H6_6 C7_6 1_555 1_555
C8_6 N4_6 1_555 1_555
C9_6 N6_6 1_555 1_555
C10_6 C9_6 1_555 1_555
C11_6 C10_6 1_555 1_555
H7_6 C11_6 1_555 1_555
C12_6 C11_6 1_555 1_555
H8_6 C12_6 1_555 1_555
C13_6 N8_4 1_555 1_555
H9_6 C13_6 1_555 1_555
C14_6 C10_6 1_555 1_555
H10_6 C14_6 1_555 1_555
N13_4 Fe1_4 1_555 1_555
N6_6 C8_6 1_555 1_555
C5_6 C8_6 1_555 1_555
C6_6 C7_6 1_555 1_555
C13_6 C14_6 1_555 1_555
N13_3 C16_7 1_555 1_555
Ag1_7 C1_7 1_555 1_555
Ag2_7 C2_7 1_555 1_555
Fe3_2 N1_7 1_555 1_555
N1_7 C1_7 1_555 1_555
N2_7 Fe3_2 1_555 1_555
N3_7 Fe3_2 1_555 1_555
N4_7 N5_7 1_555 1_555
N5_7 C9_7 1_555 1_555
N6_7 N7_7 1_555 1_555
N7_7 H1_7 1_555 1_555
H2_7 N7_7 1_555 1_555
N11_4 C12_7 1_555 1_555
N12_3 C15_7 1_555 1_555
C2_7 N2_7 1_555 1_555
C3_7 N3_7 1_555 1_555
H3_7 C3_7 1_555 1_555
C4_7 C3_7 1_555 1_555
H4_7 C4_7 1_555 1_555
C5_7 C4_7 1_555 1_555
C6_7 C5_7 1_555 1_555
H5_7 C6_7 1_555 1_555
C7_7 N3_7 1_555 1_555
H6_7 C7_7 1_555 1_555
C8_7 N4_7 1_555 1_555
C9_7 N6_7 1_555 1_555
C10_7 C9_7 1_555 1_555
C11_7 C10_7 1_555 1_555
H7_7 C11_7 1_555 1_555
C12_7 C11_7 1_555 1_555
H8_7 C12_7 1_555 1_555
C13_7 N11_4 1_555 1_555
H9_7 C13_7 1_555 1_555
C14_7 C10_7 1_555 1_555
H10_7 C14_7 1_555 1_555
C15_7 Ag1_7 1_555 1_555
N6_7 C8_7 1_555 1_555
C5_7 C8_7 1_555 1_555
C6_7 C7_7 1_555 1_555
C13_7 C14_7 1_555 1_555
Ag1_8 C1_8 1_555 1_555
Ag2_8 C2_8 1_555 1_555
Fe4_2 N1_8 1_555 1_555
N1_8 C1_8 1_555 1_555
N2_8 Fe4_2 1_555 1_555
N3_8 Fe4_2 1_555 1_555
N4_8 N5_8 1_555 1_555
N5_8 C9_8 1_555 1_555
N6_8 N7_8 1_555 1_555
N7_8 H1_8 1_555 1_555
H2_8 N7_8 1_555 1_555
N11_3 C12_8 1_555 1_555
N13_4 C16_8 1_555 1_555
C2_8 N2_8 1_555 1_555
C3_8 N3_8 1_555 1_555
H3_8 C3_8 1_555 1_555
C4_8 C3_8 1_555 1_555
H4_8 C4_8 1_555 1_555
C5_8 C4_8 1_555 1_555
C6_8 C5_8 1_555 1_555
H5_8 C6_8 1_555 1_555
C7_8 N3_8 1_555 1_555
H6_8 C7_8 1_555 1_555
C8_8 N4_8 1_555 1_555
C9_8 N6_8 1_555 1_555
C10_8 C9_8 1_555 1_555
C11_8 C10_8 1_555 1_555
H7_8 C11_8 1_555 1_555
C12_8 C11_8 1_555 1_555
H8_8 C12_8 1_555 1_555
C13_8 N11_3 1_555 1_555
H9_8 C13_8 1_555 1_555
C14_8 C10_8 1_555 1_555
H10_8 C14_8 1_555 1_555
C16_8 Ag2_8 1_555 1_555
N6_8 C8_8 1_555 1_555
C5_8 C8_8 1_555 1_555
C6_8 C7_8 1_555 1_555
C13_8 C14_8 1_555 1_555
N12_4 C15_8 1_555 1_555

#END
