
###############################################################################
#
# This file contains modified crystal structure data generated from the
# MOF subset of the Cambridge Structural Database (CSD) v543 
# hosted by the Cambridge Crystallographic Data Centre (CCDC).
#
# This work is licensed under the Creative Commons
# Attribution-NonCommercial-ShareAlike 4.0 International License.
# To view a copy of this license, visit
# http://creativecommons.org/licenses/by-nc-sa/4.0/
# or send a letter to
# Creative Commons, PO Box 1866, Mountain View, CA 94042, USA.
#
# CIF created using the CSD Python API on 29 September 2022
# The structure has been converted into the P1 space group
# The structure has a 3D framework
# The original CSD entry HERMEZ is in the monoclinic crystal system
# The framework has been calculated to contain at least 10.0% void space
# The void calculation uses a probe of radius 1.32A, grid spacing 0.4
#
###############################################################################

data_HERMEZ
_chemical_formula_moiety         '(C128 H80 Ag16 Fe8 N80)n'
_symmetry_cell_setting           triclinic
_symmetry_space_group_name_H-M   'P 1'
_symmetry_Int_Tables_number      1
_space_group_name_Hall           'P 1'
loop_
_symmetry_equiv_pos_site_id
_symmetry_equiv_pos_as_xyz
1 x,y,z
_cell_length_a                   31.7181(18)
_cell_length_b                   12.8070(8)
_cell_length_c                   15.9866(8)
_cell_angle_alpha                90
_cell_angle_beta                 114.000(2)
_cell_angle_gamma                90
_cell_volume                     5932.54
loop_
_atom_site_label
_atom_site_type_symbol
_atom_site_fract_x
_atom_site_fract_y
_atom_site_fract_z
Fe3 Fe 0.05255(2) 0.74987(5) 0.02860(5)
Fe4 Fe 0.55255(2) 0.24987(5) 0.02860(5)
Ag1 Ag 0.05379(2) 0.49202(4) 0.78664(3)
Ag2 Ag 0.04906(2) 0.02240(3) 0.26064(3)
Fe1 Fe 0.05255(2) 0.25013(5) 0.52860(5)
N1 N 0.05229(15) 0.3462(3) 0.6225(3)
N2 N 0.05240(15) 0.1560(3) 0.4331(3)
N3 N 0.12111(15) 0.2336(3) 0.5939(3)
N4 N 0.28058(18) 0.0798(4) 0.7328(4)
N5 N 0.32766(18) 0.0795(4) 0.7794(4)
N6 N 0.30303(15) 0.2397(3) 0.7773(3)
N7 N 0.30268(18) 0.3475(4) 0.7949(4)
H1 H 0.2877 0.3841 0.7431
H2 H 0.2874 0.3564 0.8310
N8 N 0.48433(15) 0.2333(3) 0.9627(3)
N9 N 0.05958(15) 0.6369(3) 0.9539(3)
C1 C 0.0520(2) 0.3998(4) 0.6803(4)
C2 C 0.05265(19) 0.1078(4) 0.3729(4)
C3 C 0.13990(18) 0.1381(4) 0.6021(4)
H3 H 0.1200 0.0804 0.5762
C4 C 0.18665(19) 0.1199(4) 0.6463(4)
H4 H 0.1983 0.0510 0.6497
C5 C 0.21695(18) 0.2030(4) 0.6862(4)
C6 C 0.19752(19) 0.3024(4) 0.6780(4)
H5 H 0.2165 0.3616 0.7035
C7 C 0.15011(18) 0.3133(4) 0.6321(4)
H6 H 0.1374 0.3813 0.6274
C8 C 0.26602(18) 0.1767(4) 0.7314(4)
C9 C 0.34070(19) 0.1760(4) 0.8064(4)
C10 C 0.38927(18) 0.2026(4) 0.8599(4)
C11 C 0.41852(19) 0.1205(4) 0.9062(4)
H7 H 0.4063 0.0522 0.9038
C12 C 0.46488(18) 0.1382(4) 0.9551(4)
H8 H 0.4841 0.0808 0.9849
C13 C 0.45618(19) 0.3132(4) 0.9203(4)
H9 H 0.4690 0.3812 0.9264
C14 C 0.40940(19) 0.3010(4) 0.8684(4)
H10 H 0.3910 0.3596 0.8386
C15 C 0.0592(2) 0.5809(5) 0.8977(4)
N12 N 0.05958(15) 0.3631(3) 0.4539(3)
N13 N 0.04534(15) 0.1355(3) 0.6019(3)
N10 N 0.04534(15) 0.8645(3) 0.1019(3)
C16 C 0.04561(19) 0.9259(4) 0.1543(4)
N11 N 0.98433(15) 0.2667(3) 0.4627(3)
N9_2 N 0.55958(15) 0.1369(3) 0.9539(3)
C15_2 C 0.5592(2) 0.0809(5) 0.8977(4)
Ag1_2 Ag 0.55379(2) 0.99202(4) 0.78664(3)
Ag2_2 Ag 0.54906(2) 0.52240(3) 0.26064(3)
Fe1_2 Fe 0.55255(2) 0.75013(5) 0.52860(5)
N1_2 N 0.55229(15) 0.8462(3) 0.6225(3)
N2_2 N 0.55240(15) 0.6560(3) 0.4331(3)
N3_2 N 0.62111(15) 0.7336(3) 0.5939(3)
N4_2 N 0.78058(18) 0.5798(4) 0.7328(4)
N5_2 N 0.82766(18) 0.5795(4) 0.7794(4)
N6_2 N 0.80303(15) 0.7397(3) 0.7773(3)
N7_2 N 0.80268(18) 0.8475(4) 0.7949(4)
H1_2 H 0.7877 0.8841 0.7431
H2_2 H 0.7874 0.8564 0.8310
N8_2 N 0.98433(15) 0.7333(3) 0.9627(3)
N10_2 N 0.54534(15) 0.3645(3) 0.1019(3)
C1_2 C 0.5520(2) 0.8998(4) 0.6803(4)
C2_2 C 0.55265(19) 0.6078(4) 0.3729(4)
C3_2 C 0.63990(18) 0.6381(4) 0.6021(4)
H3_2 H 0.6200 0.5804 0.5762
C4_2 C 0.68665(19) 0.6199(4) 0.6463(4)
H4_2 H 0.6983 0.5510 0.6497
C5_2 C 0.71695(18) 0.7030(4) 0.6862(4)
C6_2 C 0.69752(19) 0.8024(4) 0.6780(4)
H5_2 H 0.7165 0.8616 0.7035
C7_2 C 0.65011(18) 0.8133(4) 0.6321(4)
H6_2 H 0.6374 0.8813 0.6274
C8_2 C 0.76602(18) 0.6767(4) 0.7314(4)
C9_2 C 0.84070(19) 0.6760(4) 0.8064(4)
C10_2 C 0.88927(18) 0.7026(4) 0.8599(4)
C11_2 C 0.91852(19) 0.6205(4) 0.9062(4)
H7_2 H 0.9063 0.5522 0.9038
C12_2 C 0.96488(18) 0.6382(4) 0.9551(4)
H8_2 H 0.9841 0.5808 0.9849
C13_2 C 0.95618(19) 0.8132(4) 0.9203(4)
H9_2 H 0.9690 0.8812 0.9264
C14_2 C 0.90940(19) 0.8010(4) 0.8684(4)
H10_2 H 0.8910 0.8596 0.8386
C16_2 C 0.54561(19) 0.4259(4) 0.1543(4)
N11_2 N 0.48433(15) 0.7667(3) 0.4627(3)
N12_2 N 0.55958(15) 0.8631(3) 0.4539(3)
N13_2 N 0.54534(15) 0.6355(3) 0.6019(3)
C16_3 C 0.04561(19) 0.0741(4) 0.6543(4)
Ag1_3 Ag 0.05379(2) 0.50798(4) 0.28664(3)
N1_3 N 0.05229(15) 0.6538(3) 0.1225(3)
N3_3 N 0.12111(15) 0.7664(3) 0.0939(3)
N4_3 N 0.28058(18) 0.9202(4) 0.2328(4)
N5_3 N 0.32766(18) 0.9205(4) 0.2794(4)
N6_3 N 0.30303(15) 0.7603(3) 0.2773(3)
N7_3 N 0.30268(18) 0.6525(4) 0.2949(4)
H1_3 H 0.2877 0.6159 0.2431
H2_3 H 0.2874 0.6436 0.3310
C1_3 C 0.0520(2) 0.6002(4) 0.1803(4)
C3_3 C 0.13990(18) 0.8619(4) 0.1021(4)
H3_3 H 0.1200 0.9196 0.0762
C4_3 C 0.18665(19) 0.8801(4) 0.1463(4)
H4_3 H 0.1983 0.9490 0.1497
C5_3 C 0.21695(18) 0.7970(4) 0.1862(4)
C6_3 C 0.19752(19) 0.6976(4) 0.1780(4)
H5_3 H 0.2165 0.6384 0.2035
C7_3 C 0.15011(18) 0.6867(4) 0.1321(4)
H6_3 H 0.1374 0.6187 0.1274
C8_3 C 0.26602(18) 0.8233(4) 0.2314(4)
C9_3 C 0.34070(19) 0.8240(4) 0.3064(4)
C10_3 C 0.38927(18) 0.7974(4) 0.3599(4)
C11_3 C 0.41852(19) 0.8795(4) 0.4062(4)
H7_3 H 0.4063 0.9478 0.4038
C12_3 C 0.46488(18) 0.8618(4) 0.4551(4)
H8_3 H 0.4841 0.9192 0.4849
C13_3 C 0.45618(19) 0.6868(4) 0.4203(4)
H9_3 H 0.4690 0.6188 0.4264
C14_3 C 0.40940(19) 0.6990(4) 0.3684(4)
H10_3 H 0.3910 0.6404 0.3386
C15_3 C 0.0592(2) 0.4191(5) 0.3977(4)
Ag2_3 Ag 0.04906(2) 0.97760(3) 0.76064(3)
N2_3 N 0.05240(15) 0.8440(3) 0.9331(3)
C2_3 C 0.05265(19) 0.8922(4) 0.8729(4)
Ag1_4 Ag 0.55379(2) 0.00798(4) 0.28664(3)
N1_4 N 0.55229(15) 0.1538(3) 0.1225(3)
N3_4 N 0.62111(15) 0.2664(3) 0.0939(3)
N4_4 N 0.78058(18) 0.4202(4) 0.2328(4)
N5_4 N 0.82766(18) 0.4205(4) 0.2794(4)
N6_4 N 0.80303(15) 0.2603(3) 0.2773(3)
N7_4 N 0.80268(18) 0.1525(4) 0.2949(4)
H1_4 H 0.7877 0.1159 0.2431
H2_4 H 0.7874 0.1436 0.3310
C1_4 C 0.5520(2) 0.1002(4) 0.1803(4)
C3_4 C 0.63990(18) 0.3619(4) 0.1021(4)
H3_4 H 0.6200 0.4196 0.0762
C4_4 C 0.68665(19) 0.3801(4) 0.1463(4)
H4_4 H 0.6983 0.4490 0.1497
C5_4 C 0.71695(18) 0.2970(4) 0.1862(4)
C6_4 C 0.69752(19) 0.1976(4) 0.1780(4)
H5_4 H 0.7165 0.1384 0.2035
C7_4 C 0.65011(18) 0.1867(4) 0.1321(4)
H6_4 H 0.6374 0.1187 0.1274
C8_4 C 0.76602(18) 0.3233(4) 0.2314(4)
C9_4 C 0.84070(19) 0.3240(4) 0.3064(4)
C10_4 C 0.88927(18) 0.2974(4) 0.3599(4)
C11_4 C 0.91852(19) 0.3795(4) 0.4062(4)
H7_4 H 0.9063 0.4478 0.4038
C12_4 C 0.96488(18) 0.3618(4) 0.4551(4)
H8_4 H 0.9841 0.4192 0.4849
C13_4 C 0.95618(19) 0.1868(4) 0.4203(4)
H9_4 H 0.9690 0.1188 0.4264
C14_4 C 0.90940(19) 0.1990(4) 0.3684(4)
H10_4 H 0.8910 0.1404 0.3386
Ag2_4 Ag 0.54906(2) 0.47760(3) 0.76064(3)
N2_4 N 0.55240(15) 0.3440(3) 0.9331(3)
C2_4 C 0.55265(19) 0.3922(4) 0.8729(4)
C16_4 C 0.54561(19) 0.5741(4) 0.6543(4)
C15_4 C 0.5592(2) 0.9191(5) 0.3977(4)
N11_3 N 0.01567(15) 0.2667(3) 0.0373(3)
Ag2_5 Ag 0.95094(2) 0.02240(3) 0.23936(3)
N2_5 N 0.94760(15) 0.1560(3) 0.0669(3)
C2_5 C 0.94735(19) 0.1078(4) 0.1271(4)
N12_3 N 0.94042(15) 0.3631(3) 0.0461(3)
Ag1_5 Ag 0.94621(2) 0.49202(4) 0.71336(3)
Fe1_3 Fe 0.94745(2) 0.25013(5) 0.97140(5)
N1_5 N 0.94771(15) 0.3462(3) 0.8775(3)
N3_5 N 0.87889(15) 0.2336(3) 0.9061(3)
N4_5 N 0.71942(18) 0.0798(4) 0.7672(4)
N5_5 N 0.67234(18) 0.0795(4) 0.7206(4)
N6_5 N 0.69697(15) 0.2397(3) 0.7227(3)
N7_5 N 0.69732(18) 0.3475(4) 0.7051(4)
H1_5 H 0.7123 0.3841 0.7569
H2_5 H 0.7126 0.3564 0.6690
N8_3 N 0.51567(15) 0.2333(3) 0.5373(3)
N9_3 N 0.94042(15) 0.6369(3) 0.5461(3)
C1_5 C 0.9480(2) 0.3998(4) 0.8197(4)
C3_5 C 0.86010(18) 0.1381(4) 0.8979(4)
H3_5 H 0.8800 0.0804 0.9238
C4_5 C 0.81335(19) 0.1199(4) 0.8537(4)
H4_5 H 0.8017 0.0510 0.8503
C5_5 C 0.78305(18) 0.2030(4) 0.8138(4)
C6_5 C 0.80248(19) 0.3024(4) 0.8220(4)
H5_5 H 0.7835 0.3616 0.7965
C7_5 C 0.84989(18) 0.3133(4) 0.8679(4)
H6_5 H 0.8626 0.3813 0.8726
C8_5 C 0.73398(18) 0.1767(4) 0.7686(4)
C9_5 C 0.65930(19) 0.1760(4) 0.6936(4)
C10_5 C 0.61073(18) 0.2026(4) 0.6401(4)
C11_5 C 0.58148(19) 0.1205(4) 0.5938(4)
H7_5 H 0.5937 0.0522 0.5962
C12_5 C 0.53512(18) 0.1382(4) 0.5449(4)
H8_5 H 0.5159 0.0808 0.5151
C13_5 C 0.54382(19) 0.3132(4) 0.5797(4)
H9_5 H 0.5310 0.3812 0.5736
C14_5 C 0.59060(19) 0.3010(4) 0.6316(4)
H10_5 H 0.6090 0.3596 0.6614
C15_5 C 0.9408(2) 0.5809(5) 0.6023(4)
Fe3_2 Fe 0.94745(2) 0.74987(5) 0.47140(5)
Fe4_2 Fe 0.44745(2) 0.24987(5) 0.47140(5)
N13_3 N 0.95466(15) 0.1355(3) 0.8981(3)
N10_3 N 0.95466(15) 0.8645(3) 0.3981(3)
C16_5 C 0.95439(19) 0.9259(4) 0.3457(4)
N9_4 N 0.44042(15) 0.1369(3) 0.5461(3)
C15_6 C 0.4408(2) 0.0809(5) 0.6023(4)
Ag2_6 Ag 0.45094(2) 0.52240(3) 0.23936(3)
N2_6 N 0.44760(15) 0.6560(3) 0.0669(3)
N10_4 N 0.45466(15) 0.3645(3) 0.3981(3)
C2_6 C 0.44735(19) 0.6078(4) 0.1271(4)
C16_6 C 0.45439(19) 0.4259(4) 0.3457(4)
N11_4 N 0.51567(15) 0.7667(3) 0.0373(3)
N12_4 N 0.44042(15) 0.8631(3) 0.0461(3)
Ag1_6 Ag 0.44621(2) 0.99202(4) 0.71336(3)
Fe1_4 Fe 0.44745(2) 0.75013(5) 0.97140(5)
N1_6 N 0.44771(15) 0.8462(3) 0.8775(3)
N3_6 N 0.37889(15) 0.7336(3) 0.9061(3)
N4_6 N 0.21942(18) 0.5798(4) 0.7672(4)
N5_6 N 0.17234(18) 0.5795(4) 0.7206(4)
N6_6 N 0.19697(15) 0.7397(3) 0.7227(3)
N7_6 N 0.19732(18) 0.8475(4) 0.7051(4)
H1_6 H 0.2123 0.8841 0.7569
H2_6 H 0.2126 0.8564 0.6690
N8_4 N 0.01567(15) 0.7333(3) 0.5373(3)
C1_6 C 0.4480(2) 0.8998(4) 0.8197(4)
C3_6 C 0.36010(18) 0.6381(4) 0.8979(4)
H3_6 H 0.3800 0.5804 0.9238
C4_6 C 0.31335(19) 0.6199(4) 0.8537(4)
H4_6 H 0.3017 0.5510 0.8503
C5_6 C 0.28305(18) 0.7030(4) 0.8138(4)
C6_6 C 0.30248(19) 0.8024(4) 0.8220(4)
H5_6 H 0.2835 0.8616 0.7965
C7_6 C 0.34989(18) 0.8133(4) 0.8679(4)
H6_6 H 0.3626 0.8813 0.8726
C8_6 C 0.23398(18) 0.6767(4) 0.7686(4)
C9_6 C 0.15930(19) 0.6760(4) 0.6936(4)
C10_6 C 0.11073(18) 0.7026(4) 0.6401(4)
C11_6 C 0.08148(19) 0.6205(4) 0.5938(4)
H7_6 H 0.0937 0.5522 0.5962
C12_6 C 0.03512(18) 0.6382(4) 0.5449(4)
H8_6 H 0.0159 0.5808 0.5151
C13_6 C 0.04382(19) 0.8132(4) 0.5797(4)
H9_6 H 0.0310 0.8812 0.5736
C14_6 C 0.09060(19) 0.8010(4) 0.6316(4)
H10_6 H 0.1090 0.8596 0.6614
N13_4 N 0.45466(15) 0.6355(3) 0.8981(3)
C16_7 C 0.95439(19) 0.0741(4) 0.8457(4)
Ag1_7 Ag 0.94621(2) 0.50798(4) 0.21336(3)
Ag2_7 Ag 0.95094(2) 0.97760(3) 0.73936(3)
N1_7 N 0.94771(15) 0.6538(3) 0.3775(3)
N2_7 N 0.94760(15) 0.8440(3) 0.5669(3)
N3_7 N 0.87889(15) 0.7664(3) 0.4061(3)
N4_7 N 0.71942(18) 0.9202(4) 0.2672(4)
N5_7 N 0.67234(18) 0.9205(4) 0.2206(4)
N6_7 N 0.69697(15) 0.7603(3) 0.2227(3)
N7_7 N 0.69732(18) 0.6525(4) 0.2051(4)
H1_7 H 0.7123 0.6159 0.2569
H2_7 H 0.7126 0.6436 0.1690
C1_7 C 0.9480(2) 0.6002(4) 0.3197(4)
C2_7 C 0.94735(19) 0.8922(4) 0.6271(4)
C3_7 C 0.86010(18) 0.8619(4) 0.3979(4)
H3_7 H 0.8800 0.9196 0.4238
C4_7 C 0.81335(19) 0.8801(4) 0.3537(4)
H4_7 H 0.8017 0.9490 0.3503
C5_7 C 0.78305(18) 0.7970(4) 0.3138(4)
C6_7 C 0.80248(19) 0.6976(4) 0.3220(4)
H5_7 H 0.7835 0.6384 0.2965
C7_7 C 0.84989(18) 0.6867(4) 0.3679(4)
H6_7 H 0.8626 0.6187 0.3726
C8_7 C 0.73398(18) 0.8233(4) 0.2686(4)
C9_7 C 0.65930(19) 0.8240(4) 0.1936(4)
C10_7 C 0.61073(18) 0.7974(4) 0.1401(4)
C11_7 C 0.58148(19) 0.8795(4) 0.0938(4)
H7_7 H 0.5937 0.9478 0.0962
C12_7 C 0.53512(18) 0.8618(4) 0.0449(4)
H8_7 H 0.5159 0.9192 0.0151
C13_7 C 0.54382(19) 0.6868(4) 0.0797(4)
H9_7 H 0.5310 0.6188 0.0736
C14_7 C 0.59060(19) 0.6990(4) 0.1316(4)
H10_7 H 0.6090 0.6404 0.1614
C15_7 C 0.9408(2) 0.4191(5) 0.1023(4)
Ag1_8 Ag 0.44621(2) 0.00798(4) 0.21336(3)
Ag2_8 Ag 0.45094(2) 0.47760(3) 0.73936(3)
N1_8 N 0.44771(15) 0.1538(3) 0.3775(3)
N2_8 N 0.44760(15) 0.3440(3) 0.5669(3)
N3_8 N 0.37889(15) 0.2664(3) 0.4061(3)
N4_8 N 0.21942(18) 0.4202(4) 0.2672(4)
N5_8 N 0.17234(18) 0.4205(4) 0.2206(4)
N6_8 N 0.19697(15) 0.2603(3) 0.2227(3)
N7_8 N 0.19732(18) 0.1525(4) 0.2051(4)
H1_8 H 0.2123 0.1159 0.2569
H2_8 H 0.2126 0.1436 0.1690
C1_8 C 0.4480(2) 0.1002(4) 0.3197(4)
C2_8 C 0.44735(19) 0.3922(4) 0.6271(4)
C3_8 C 0.36010(18) 0.3619(4) 0.3979(4)
H3_8 H 0.3800 0.4196 0.4238
C4_8 C 0.31335(19) 0.3801(4) 0.3537(4)
H4_8 H 0.3017 0.4490 0.3503
C5_8 C 0.28305(18) 0.2970(4) 0.3138(4)
C6_8 C 0.30248(19) 0.1976(4) 0.3220(4)
H5_8 H 0.2835 0.1384 0.2965
C7_8 C 0.34989(18) 0.1867(4) 0.3679(4)
H6_8 H 0.3626 0.1187 0.3726
C8_8 C 0.23398(18) 0.3233(4) 0.2686(4)
C9_8 C 0.15930(19) 0.3240(4) 0.1936(4)
C10_8 C 0.11073(18) 0.2974(4) 0.1401(4)
C11_8 C 0.08148(19) 0.3795(4) 0.0938(4)
H7_8 H 0.0937 0.4478 0.0962
C12_8 C 0.03512(18) 0.3618(4) 0.0449(4)
H8_8 H 0.0159 0.4192 0.0151
C13_8 C 0.04382(19) 0.1868(4) 0.0797(4)
H9_8 H 0.0310 0.1188 0.0736
C14_8 C 0.09060(19) 0.1990(4) 0.1316(4)
H10_8 H 0.1090 0.1404 0.1614
C16_8 C 0.45439(19) 0.5741(4) 0.8457(4)
C15_8 C 0.4408(2) 0.9191(5) 0.1023(4)
loop_
_geom_bond_atom_site_label_1
_geom_bond_atom_site_label_2
_geom_bond_site_symmetry_1
_geom_bond_site_symmetry_2
Ag1 C1 1_555 1_555
Ag2 C2 1_555 1_555
Fe1 N1 1_555 1_555
N1 C1 1_555 1_555
N2 Fe1 1_555 1_555
N3 Fe1 1_555 1_555
N4 N5 1_555 1_555
N5 C9 1_555 1_555
N6 N7 1_555 1_555
N7 H1 1_555 1_555
H2 N7 1_555 1_555
N8 C12 1_555 1_555
N9 C15 1_555 1_555
C2 N2 1_555 1_555
C3 N3 1_555 1_555
H3 C3 1_555 1_555
C4 C3 1_555 1_555
H4 C4 1_555 1_555
C5 C4 1_555 1_555
C6 C5 1_555 1_555
H5 C6 1_555 1_555
C7 N3 1_555 1_555
H6 C7 1_555 1_555
C8 N4 1_555 1_555
C9 N6 1_555 1_555
C10 C9 1_555 1_555
C11 C10 1_555 1_555
H7 C11 1_555 1_555
C12 C11 1_555 1_555
H8 C12 1_555 1_555
C13 N8 1_555 1_555
H9 C13 1_555 1_555
C14 C10 1_555 1_555
H10 C14 1_555 1_555
C15 Ag1 1_555 1_555
N12 Fe1 1_555 1_555
N13 Fe1 1_555 1_555
N6 C8 1_555 1_555
C5 C8 1_555 1_555
C6 C7 1_555 1_555
C13 C14 1_555 1_555
N10 C16 1_555 1_555
Fe3 N10 1_555 1_555
N9_2 C15_2 1_555 1_555
Ag1_2 C1_2 1_555 1_555
Ag2_2 C2_2 1_555 1_555
Fe1_2 N1_2 1_555 1_555
N1_2 C1_2 1_555 1_555
N2_2 Fe1_2 1_555 1_555
N3_2 Fe1_2 1_555 1_555
N4_2 N5_2 1_555 1_555
N5_2 C9_2 1_555 1_555
N6_2 N7_2 1_555 1_555
N7_2 H1_2 1_555 1_555
H2_2 N7_2 1_555 1_555
N8_2 C12_2 1_555 1_555
N10_2 C16_2 1_555 1_555
C2_2 N2_2 1_555 1_555
C3_2 N3_2 1_555 1_555
H3_2 C3_2 1_555 1_555
C4_2 C3_2 1_555 1_555
H4_2 C4_2 1_555 1_555
C5_2 C4_2 1_555 1_555
C6_2 C5_2 1_555 1_555
H5_2 C6_2 1_555 1_555
C7_2 N3_2 1_555 1_555
H6_2 C7_2 1_555 1_555
C8_2 N4_2 1_555 1_555
C9_2 N6_2 1_555 1_555
C10_2 C9_2 1_555 1_555
C11_2 C10_2 1_555 1_555
H7_2 C11_2 1_555 1_555
C12_2 C11_2 1_555 1_555
H8_2 C12_2 1_555 1_555
C13_2 N8_2 1_555 1_555
H9_2 C13_2 1_555 1_555
C14_2 C10_2 1_555 1_555
H10_2 C14_2 1_555 1_555
C16_2 Ag2_2 1_555 1_555
Fe4 N10_2 1_555 1_555
N11_2 Fe1_2 1_555 1_555
N12_2 Fe1_2 1_555 1_555
N13_2 Fe1_2 1_555 1_555
N6_2 C8_2 1_555 1_555
C5_2 C8_2 1_555 1_555
C6_2 C7_2 1_555 1_555
C13_2 C14_2 1_555 1_555
N13 C16_3 1_555 1_555
Ag1_3 C1_3 1_555 1_555
Fe3 N1_3 1_555 1_555
N1_3 C1_3 1_555 1_555
N3_3 Fe3 1_555 1_555
N4_3 N5_3 1_555 1_555
N5_3 C9_3 1_555 1_555
N6_3 N7_3 1_555 1_555
N7_3 H1_3 1_555 1_555
H2_3 N7_3 1_555 1_555
N11_2 C12_3 1_555 1_555
N12 C15_3 1_555 1_555
C3_3 N3_3 1_555 1_555
H3_3 C3_3 1_555 1_555
C4_3 C3_3 1_555 1_555
H4_3 C4_3 1_555 1_555
C5_3 C4_3 1_555 1_555
C6_3 C5_3 1_555 1_555
H5_3 C6_3 1_555 1_555
C7_3 N3_3 1_555 1_555
H6_3 C7_3 1_555 1_555
C8_3 N4_3 1_555 1_555
C9_3 N6_3 1_555 1_555
C10_3 C9_3 1_555 1_555
C11_3 C10_3 1_555 1_555
H7_3 C11_3 1_555 1_555
C12_3 C11_3 1_555 1_555
H8_3 C12_3 1_555 1_555
C13_3 N11_2 1_555 1_555
H9_3 C13_3 1_555 1_555
C14_3 C10_3 1_555 1_555
H10_3 C14_3 1_555 1_555
C15_3 Ag1_3 1_555 1_555
N6_3 C8_3 1_555 1_555
C5_3 C8_3 1_555 1_555
C6_3 C7_3 1_555 1_555
C13_3 C14_3 1_555 1_555
Ag2_3 C2_3 1_555 1_555
C2_3 N2_3 1_555 1_555
Ag1_4 C1_4 1_555 1_555
Fe4 N1_4 1_555 1_555
N1_4 C1_4 1_555 1_555
N3_4 Fe4 1_555 1_555
N4_4 N5_4 1_555 1_555
N5_4 C9_4 1_555 1_555
N6_4 N7_4 1_555 1_555
N7_4 H1_4 1_555 1_555
H2_4 N7_4 1_555 1_555
N11 C12_4 1_555 1_555
C3_4 N3_4 1_555 1_555
H3_4 C3_4 1_555 1_555
C4_4 C3_4 1_555 1_555
H4_4 C4_4 1_555 1_555
C5_4 C4_4 1_555 1_555
C6_4 C5_4 1_555 1_555
H5_4 C6_4 1_555 1_555
C7_4 N3_4 1_555 1_555
H6_4 C7_4 1_555 1_555
C8_4 N4_4 1_555 1_555
C9_4 N6_4 1_555 1_555
C10_4 C9_4 1_555 1_555
C11_4 C10_4 1_555 1_555
H7_4 C11_4 1_555 1_555
C12_4 C11_4 1_555 1_555
H8_4 C12_4 1_555 1_555
C13_4 N11 1_555 1_555
H9_4 C13_4 1_555 1_555
C14_4 C10_4 1_555 1_555
H10_4 C14_4 1_555 1_555
N6_4 C8_4 1_555 1_555
C5_4 C8_4 1_555 1_555
C6_4 C7_4 1_555 1_555
C13_4 C14_4 1_555 1_555
Ag2_4 C2_4 1_555 1_555
N13_2 C16_4 1_555 1_555
C2_4 N2_4 1_555 1_555
C16_4 Ag2_4 1_555 1_555
N12_2 C15_4 1_555 1_555
Ag2_5 C2_5 1_555 1_555
C2_5 N2_5 1_555 1_555
Ag1_5 C1_5 1_555 1_555
Fe1_3 N1_5 1_555 1_555
N1_5 C1_5 1_555 1_555
N3_5 Fe1_3 1_555 1_555
N4_5 N5_5 1_555 1_555
N5_5 C9_5 1_555 1_555
N6_5 N7_5 1_555 1_555
N7_5 H1_5 1_555 1_555
H2_5 N7_5 1_555 1_555
N8_3 C12_5 1_555 1_555
N9_3 C15_5 1_555 1_555
C3_5 N3_5 1_555 1_555
H3_5 C3_5 1_555 1_555
C4_5 C3_5 1_555 1_555
H4_5 C4_5 1_555 1_555
C5_5 C4_5 1_555 1_555
C6_5 C5_5 1_555 1_555
H5_5 C6_5 1_555 1_555
C7_5 N3_5 1_555 1_555
H6_5 C7_5 1_555 1_555
C8_5 N4_5 1_555 1_555
C9_5 N6_5 1_555 1_555
C10_5 C9_5 1_555 1_555
C11_5 C10_5 1_555 1_555
H7_5 C11_5 1_555 1_555
C12_5 C11_5 1_555 1_555
H8_5 C12_5 1_555 1_555
C13_5 N8_3 1_555 1_555
H9_5 C13_5 1_555 1_555
C14_5 C10_5 1_555 1_555
H10_5 C14_5 1_555 1_555
C15_5 Ag1_5 1_555 1_555
Fe3_2 N9_3 1_555 1_555
Fe4_2 N8_3 1_555 1_555
N13_3 Fe1_3 1_555 1_555
N6_5 C8_5 1_555 1_555
C5_5 C8_5 1_555 1_555
C6_5 C7_5 1_555 1_555
C13_5 C14_5 1_555 1_555
N10_3 C16_5 1_555 1_555
Fe3_2 N10_3 1_555 1_555
N9_4 C15_6 1_555 1_555
Fe4_2 N9_4 1_555 1_555
Ag2_6 C2_6 1_555 1_555
N10_4 C16_6 1_555 1_555
C2_6 N2_6 1_555 1_555
C16_6 Ag2_6 1_555 1_555
Fe4_2 N10_4 1_555 1_555
Ag1_6 C1_6 1_555 1_555
Fe1_4 N1_6 1_555 1_555
N1_6 C1_6 1_555 1_555
N3_6 Fe1_4 1_555 1_555
N4_6 N5_6 1_555 1_555
N5_6 C9_6 1_555 1_555
N6_6 N7_6 1_555 1_555
N7_6 H1_6 1_555 1_555
H2_6 N7_6 1_555 1_555
N8_4 C12_6 1_555 1_555
C3_6 N3_6 1_555 1_555
H3_6 C3_6 1_555 1_555
C4_6 C3_6 1_555 1_555
H4_6 C4_6 1_555 1_555
C5_6 C4_6 1_555 1_555
C6_6 C5_6 1_555 1_555
H5_6 C6_6 1_555 1_555
C7_6 N3_6 1_555 1_555
H6_6 C7_6 1_555 1_555
C8_6 N4_6 1_555 1_555
C9_6 N6_6 1_555 1_555
C10_6 C9_6 1_555 1_555
C11_6 C10_6 1_555 1_555
H7_6 C11_6 1_555 1_555
C12_6 C11_6 1_555 1_555
H8_6 C12_6 1_555 1_555
C13_6 N8_4 1_555 1_555
H9_6 C13_6 1_555 1_555
C14_6 C10_6 1_555 1_555
H10_6 C14_6 1_555 1_555
N13_4 Fe1_4 1_555 1_555
N6_6 C8_6 1_555 1_555
C5_6 C8_6 1_555 1_555
C6_6 C7_6 1_555 1_555
C13_6 C14_6 1_555 1_555
N13_3 C16_7 1_555 1_555
Ag1_7 C1_7 1_555 1_555
Ag2_7 C2_7 1_555 1_555
Fe3_2 N1_7 1_555 1_555
N1_7 C1_7 1_555 1_555
N2_7 Fe3_2 1_555 1_555
N3_7 Fe3_2 1_555 1_555
N4_7 N5_7 1_555 1_555
N5_7 C9_7 1_555 1_555
N6_7 N7_7 1_555 1_555
N7_7 H1_7 1_555 1_555
H2_7 N7_7 1_555 1_555
N11_4 C12_7 1_555 1_555
N12_3 C15_7 1_555 1_555
C2_7 N2_7 1_555 1_555
C3_7 N3_7 1_555 1_555
H3_7 C3_7 1_555 1_555
C4_7 C3_7 1_555 1_555
H4_7 C4_7 1_555 1_555
C5_7 C4_7 1_555 1_555
C6_7 C5_7 1_555 1_555
H5_7 C6_7 1_555 1_555
C7_7 N3_7 1_555 1_555
H6_7 C7_7 1_555 1_555
C8_7 N4_7 1_555 1_555
C9_7 N6_7 1_555 1_555
C10_7 C9_7 1_555 1_555
C11_7 C10_7 1_555 1_555
H7_7 C11_7 1_555 1_555
C12_7 C11_7 1_555 1_555
H8_7 C12_7 1_555 1_555
C13_7 N11_4 1_555 1_555
H9_7 C13_7 1_555 1_555
C14_7 C10_7 1_555 1_555
H10_7 C14_7 1_555 1_555
C15_7 Ag1_7 1_555 1_555
N6_7 C8_7 1_555 1_555
C5_7 C8_7 1_555 1_555
C6_7 C7_7 1_555 1_555
C13_7 C14_7 1_555 1_555
Ag1_8 C1_8 1_555 1_555
Ag2_8 C2_8 1_555 1_555
Fe4_2 N1_8 1_555 1_555
N1_8 C1_8 1_555 1_555
N2_8 Fe4_2 1_555 1_555
N3_8 Fe4_2 1_555 1_555
N4_8 N5_8 1_555 1_555
N5_8 C9_8 1_555 1_555
N6_8 N7_8 1_555 1_555
N7_8 H1_8 1_555 1_555
H2_8 N7_8 1_555 1_555
N11_3 C12_8 1_555 1_555
N13_4 C16_8 1_555 1_555
C2_8 N2_8 1_555 1_555
C3_8 N3_8 1_555 1_555
H3_8 C3_8 1_555 1_555
C4_8 C3_8 1_555 1_555
H4_8 C4_8 1_555 1_555
C5_8 C4_8 1_555 1_555
C6_8 C5_8 1_555 1_555
H5_8 C6_8 1_555 1_555
C7_8 N3_8 1_555 1_555
H6_8 C7_8 1_555 1_555
C8_8 N4_8 1_555 1_555
C9_8 N6_8 1_555 1_555
C10_8 C9_8 1_555 1_555
C11_8 C10_8 1_555 1_555
H7_8 C11_8 1_555 1_555
C12_8 C11_8 1_555 1_555
H8_8 C12_8 1_555 1_555
C13_8 N11_3 1_555 1_555
H9_8 C13_8 1_555 1_555
C14_8 C10_8 1_555 1_555
H10_8 C14_8 1_555 1_555
C16_8 Ag2_8 1_555 1_555
N6_8 C8_8 1_555 1_555
C5_8 C8_8 1_555 1_555
C6_8 C7_8 1_555 1_555
C13_8 C14_8 1_555 1_555
N12_4 C15_8 1_555 1_555

#END
