
###############################################################################
#
# This file contains modified crystal structure data generated from the
# MOF subset of the Cambridge Structural Database (CSD) v543 
# hosted by the Cambridge Crystallographic Data Centre (CCDC).
#
# This work is licensed under the Creative Commons
# Attribution-NonCommercial-ShareAlike 4.0 International License.
# To view a copy of this license, visit
# http://creativecommons.org/licenses/by-nc-sa/4.0/
# or send a letter to
# Creative Commons, PO Box 1866, Mountain View, CA 94042, USA.
#
# CIF created using the CSD Python API on 29 September 2022
# The structure has been converted into the P1 space group
# The structure has a 3D framework
# The original CSD entry HERXUA is in the tetragonal crystal system
# The original CSD entry HERXUA is in a Sohncke space group
# The framework has been calculated to contain at least 10.0% void space
# The void calculation uses a probe of radius 1.32A, grid spacing 0.4
#
###############################################################################

data_HERXUA
_chemical_formula_moiety         '(C192 H180 N16 O84 Pb16)n'
_symmetry_cell_setting           triclinic
_symmetry_space_group_name_H-M   'P 1'
_symmetry_Int_Tables_number      1
_space_group_name_Hall           'P 1'
loop_
_symmetry_equiv_pos_site_id
_symmetry_equiv_pos_as_xyz
1 x,y,z
_cell_length_a                   10.31360(10)
_cell_length_b                   10.31360(10)
_cell_length_c                   57.3888(7)
_cell_angle_alpha                90
_cell_angle_beta                 90
_cell_angle_gamma                90
_cell_volume                     6104.47
loop_
_atom_site_label
_atom_site_type_symbol
_atom_site_fract_x
_atom_site_fract_y
_atom_site_fract_z
Pb3 Pb 0.14682(5) 0.22673(6) 0.96150(2)
O15 O 0.0307(10) 0.9126(11) 0.83838(17)
Pb2 Pb 0.76818(5) 0.97199(6) 0.83749(2)
O1 O 0.3035(10) 0.2547(11) 0.92848(17)
O2 O 0.4049(16) 0.1741(16) 0.9587(3)
O3 O 0.8877(9) 0.1604(11) 0.95976(16)
O4 O 0.9967(9) 0.2213(11) 0.92861(16)
O5 O 0.7281(14) 0.7604(13) 0.86767(17)
O6 O 0.7389(12) 0.7554(11) 0.82937(17)
O7 O 0.6160(11) 0.9967(12) 0.80489(18)
O8 O 0.5124(11) 0.9323(13) 0.83710(19)
N1 N 0.6722(12) 0.5012(12) 0.87029(17)
H1 H 0.756226 0.516017 0.874343
H2 H 0.621068 0.532244 0.881945
C1 C 0.4042(13) 0.2190(18) 0.9389(2)
C2 C 0.5330(13) 0.2300(14) 0.9261(2)
C3 C 0.6495(14) 0.2021(14) 0.9373(2)
H5 H 0.647980 0.170022 0.952855
C4 C 0.7667(14) 0.2201(14) 0.9263(2)
C5 C 0.8917(13) 0.1975(14) 0.9393(2)
C6 C 0.7685(14) 0.2712(14) 0.9035(2)
H6 H 0.849231 0.287040 0.896088
C7 C 0.6533(15) 0.2987(13) 0.8917(2)
C8 C 0.5342(12) 0.2770(14) 0.9031(2)
H7 H 0.454898 0.294043 0.895266
C9 C 0.6516(16) 0.3610(16) 0.8681(2)
H8 H 0.720656 0.322778 0.858297
H9 H 0.567164 0.344293 0.860481
C10 C 0.6424(15) 0.5747(14) 0.8481(2)
H10 H 0.672816 0.524567 0.834216
C11 C 0.4954(18) 0.5969(19) 0.8468(3)
H11 H 0.450487 0.513316 0.847592
H12 H 0.473973 0.639996 0.832051
H13 H 0.468001 0.651615 0.859838
C12 C 0.7086(15) 0.7060(14) 0.8490(2)
C13 C 0.5118(13) 0.9664(15) 0.8158(3)
C14 C 0.3850(13) 0.9788(14) 0.8035(2)
C15 C 0.2693(13) 0.9460(13) 0.8146(2)
H14 H 0.272038 0.908487 0.829675
C16 C 0.1503(15) 0.9671(15) 0.8040(2)
C17 C 0.0247(14) 0.9420(15) 0.8168(2)
O16 O 0.9215(10) 0.9585(11) 0.80591(18)
O17 O 0.1547(14) 0.0051(13) 0.95601(18)
O18 O 0.2326(13) 0.0202(10) 0.99177(16)
O11 O 0.5051(13) 0.3453(14) 0.70601(18)
O12 O 0.5202(10) 0.2674(13) 0.74177(16)
N2 N 0.2648(13) 0.2520(14) 0.7486(2)
H3 H 0.317771 0.272709 0.760739
H4 H 0.183379 0.279263 0.752233
C18 C 0.1490(16) 0.0168(16) 0.7817(2)
H15 H 0.068341 0.031634 0.774179
C19 C 0.2638(15) 0.0458(15) 0.7701(2)
C20 C 0.3790(14) 0.0272(15) 0.7810(3)
H16 H 0.457129 0.047651 0.773004
C21 C 0.2638(17) 0.1102(19) 0.7456(2)
H17 H 0.341340 0.082433 0.736714
H18 H 0.185673 0.083463 0.736802
C22 C 0.311(2) 0.322(2) 0.7269(3)
H19 H 0.268089 0.285986 0.712721
C23 C 0.284(3) 0.464(2) 0.7291(5)
H20 H 0.191148 0.477635 0.731976
H21 H 0.308650 0.508039 0.714602
H22 H 0.334042 0.500011 0.742074
C24 C 0.4577(15) 0.3084(17) 0.7253(2)
Pb4 Pb 0.72673(6) 0.35318(5) 0.71150(2)
O1_2 O 0.7547(11) 0.1965(10) 0.67848(17)
O2_2 O 0.6741(16) 0.0951(16) 0.7087(3)
C1_2 C 0.7190(18) 0.0958(13) 0.6889(2)
H7_2 H 0.794043 0.045102 0.645266
O13 O 0.6604(11) 0.6123(9) 0.70976(16)
O14 O 0.7213(11) 0.5033(9) 0.67861(16)
C2_2 C 0.7300(14) 0.9670(13) 0.6761(2)
C3_2 C 0.7021(14) 0.8505(14) 0.6873(2)
H5_2 H 0.670022 0.852020 0.702855
C4_2 C 0.7201(14) 0.7333(14) 0.6763(2)
C5_2 C 0.6975(14) 0.6083(13) 0.6893(2)
C6_2 C 0.7712(14) 0.7315(14) 0.6535(2)
H6_2 H 0.787040 0.650769 0.646088
C7_2 C 0.7987(13) 0.8467(15) 0.6417(2)
C8_2 C 0.7770(14) 0.9658(12) 0.6531(2)
C9_2 C 0.8610(16) 0.8484(16) 0.6181(2)
H8_2 H 0.822778 0.779344 0.608297
H9_2 H 0.844293 0.932836 0.610481
O3_2 O 0.3396(11) 0.3877(9) 0.20976(16)
O4_2 O 0.2787(11) 0.4967(9) 0.17861(16)
C2_3 C 0.2700(14) 0.0330(13) 0.1761(2)
C3_3 C 0.2979(14) 0.1495(14) 0.1873(2)
H5_3 H 0.329978 0.147980 0.202855
C4_3 C 0.2799(14) 0.2667(14) 0.1763(2)
C5_3 C 0.3025(14) 0.3917(13) 0.1893(2)
C6_3 C 0.2288(14) 0.2685(14) 0.1535(2)
H6_3 H 0.212960 0.349231 0.146088
C7_3 C 0.2013(13) 0.1533(15) 0.1417(2)
C8_3 C 0.2230(14) 0.0342(12) 0.1531(2)
C9_3 C 0.1390(16) 0.1516(16) 0.1181(2)
H8_3 H 0.177222 0.220656 0.108297
H9_3 H 0.155707 0.067164 0.110481
Pb3_2 Pb 0.27327(6) 0.64682(5) 0.21150(2)
O1_3 O 0.2453(11) 0.8035(10) 0.17848(17)
O2_3 O 0.3259(16) 0.9049(16) 0.2087(3)
C1_3 C 0.2810(18) 0.9042(13) 0.1889(2)
H7_3 H 0.205957 0.954898 0.145266
O17_2 O 0.4949(13) 0.6547(14) 0.20601(18)
O18_2 O 0.4798(10) 0.7326(13) 0.24177(16)
N2_2 N 0.7352(13) 0.7480(14) 0.2486(2)
H3_2 H 0.682229 0.727291 0.260739
H4_2 H 0.816621 0.720737 0.252233
C18_2 C 0.8510(16) 0.9832(16) 0.2817(2)
H15_2 H 0.931659 0.968366 0.274179
C19_2 C 0.7362(15) 0.9542(15) 0.2701(2)
C20_2 C 0.6210(14) 0.9728(15) 0.2810(3)
H16_2 H 0.542871 0.952349 0.273004
C21_2 C 0.7362(17) 0.8898(19) 0.2456(2)
H17_2 H 0.658660 0.917567 0.236714
H18_2 H 0.814327 0.916537 0.236802
C22_2 C 0.689(2) 0.678(2) 0.2269(3)
H19_2 H 0.731911 0.714014 0.212721
C23_2 C 0.716(3) 0.536(2) 0.2291(5)
H20_2 H 0.808852 0.522365 0.231976
H21_2 H 0.691350 0.491961 0.214602
H22_2 H 0.665958 0.499989 0.242074
C24_2 C 0.5423(15) 0.6916(17) 0.2253(2)
Pb2_2 Pb 0.52801(6) 0.26818(5) 0.08749(2)
O5_2 O 0.7396(13) 0.2281(14) 0.11767(17)
O6_2 O 0.7446(11) 0.2389(12) 0.07937(17)
O7_2 O 0.5033(12) 0.1160(11) 0.05489(18)
O8_2 O 0.5677(13) 0.0124(11) 0.08710(19)
N1_2 N 0.9988(12) 0.1722(12) 0.12029(17)
H1_2 H 0.983983 0.256226 0.124343
H2_2 H 0.967756 0.121068 0.131945
C10_2 C 0.9253(14) 0.1424(15) 0.0981(2)
H10_2 H 0.975433 0.172816 0.084216
C12_2 C 0.7940(14) 0.2086(15) 0.0990(2)
C13_2 C 0.5336(15) 0.0118(13) 0.0658(3)
O15_2 O 0.5874(11) 0.5307(10) 0.08838(17)
O16_2 O 0.5415(11) 0.4215(10) 0.05591(18)
H3_3 H 0.227291 0.817771 0.010739
H4_3 H 0.220737 0.683379 0.002233
C11_2 C 0.9031(19) 0.9954(18) 0.0968(3)
H11_2 H 0.986684 0.950487 0.097592
H12_2 H 0.860004 0.973973 0.082051
H13_2 H 0.848385 0.968001 0.109838
C14_2 C 0.5212(14) 0.8850(13) 0.0535(2)
C15_2 C 0.5540(13) 0.7693(13) 0.0646(2)
H14_2 H 0.591513 0.772038 0.079675
C16_2 C 0.5329(15) 0.6503(15) 0.0540(2)
C17_2 C 0.5580(15) 0.5247(14) 0.0668(2)
C18_3 C 0.4832(16) 0.6490(16) 0.0317(2)
H15_3 H 0.468366 0.568341 0.024179
C19_3 C 0.4542(15) 0.7638(15) 0.0201(2)
C20_3 C 0.4728(15) 0.8790(14) 0.0310(3)
H16_3 H 0.452349 0.957129 0.023004
N2_3 N 0.2480(14) 0.7648(13) 0.9986(2)
C21_3 C 0.3898(19) 0.7638(17) 0.9956(2)
H17_3 H 0.417567 0.841340 0.986714
H18_3 H 0.416537 0.685673 0.986802
C22_3 C 0.178(2) 0.811(2) 0.9769(3)
H19_3 H 0.214014 0.768089 0.962721
C23_3 C 0.036(2) 0.784(3) 0.9791(5)
H20_3 H 0.022365 0.691148 0.981976
H22_3 H -0.000011 0.834042 0.992074
C24_3 C 0.1916(17) 0.9577(15) 0.9753(2)
H21_3 H 0.991961 0.808650 0.964602
H22_4 H 0.999989 0.834042 0.992074
O10 O 0.0785(10) 0.0415(11) 0.30591(18)
Pb5 Pb 0.23182(5) 0.02801(6) 0.33749(2)
O13_2 O 0.1123(9) 0.8396(11) 0.45976(16)
O14_2 O 0.0033(9) 0.7787(11) 0.42861(16)
Pb1 Pb 0.85318(5) 0.77327(6) 0.46150(2)
O1_4 O 0.6965(10) 0.7453(11) 0.42848(17)
O2_4 O 0.5951(16) 0.8259(16) 0.4587(3)
O5_3 O 0.2719(14) 0.2396(13) 0.36767(17)
O6_3 O 0.2611(12) 0.2446(11) 0.32937(17)
O7_3 O 0.3840(11) 0.0033(12) 0.30489(18)
O8_3 O 0.4876(11) 0.0677(13) 0.33710(19)
O9 O 0.9693(10) 0.0874(11) 0.33838(17)
N1_3 N 0.3278(12) 0.4988(12) 0.37029(17)
H1_3 H 0.243774 0.483983 0.374343
H2_3 H 0.378932 0.467756 0.381945
C1_4 C 0.5958(13) 0.7810(18) 0.4389(2)
C2_4 C 0.4670(13) 0.7700(14) 0.4261(2)
C3_4 C 0.3505(14) 0.7979(14) 0.4373(2)
H5_4 H 0.352020 0.829978 0.452855
C4_4 C 0.2333(14) 0.7799(14) 0.4263(2)
C5_4 C 0.1083(13) 0.8025(14) 0.4393(2)
C6_4 C 0.2315(14) 0.7288(14) 0.4035(2)
H6_4 H 0.150769 0.712960 0.396088
C7_4 C 0.3467(15) 0.7013(13) 0.3917(2)
C8_4 C 0.4658(12) 0.7230(14) 0.4031(2)
H7_4 H 0.545102 0.705957 0.395266
C9_4 C 0.3484(16) 0.6390(16) 0.3681(2)
H8_4 H 0.279344 0.677222 0.358297
H9_4 H 0.432836 0.655707 0.360481
C10_3 C 0.3576(15) 0.4253(14) 0.3481(2)
H10_3 H 0.327184 0.475433 0.334216
C11_3 C 0.5046(18) 0.4031(19) 0.3468(3)
H11_3 H 0.549513 0.486684 0.347592
H12_3 H 0.526027 0.360004 0.332051
H13_3 H 0.531999 0.348385 0.359838
C12_3 C 0.2914(15) 0.2940(14) 0.3490(2)
C13_3 C 0.4882(13) 0.0336(15) 0.3158(3)
C14_3 C 0.6150(13) 0.0212(14) 0.3035(2)
C15_3 C 0.7307(13) 0.0540(13) 0.3146(2)
H14_3 H 0.727962 0.091513 0.329675
C16_3 C 0.8497(15) 0.0329(15) 0.3040(2)
C17_3 C 0.9753(14) 0.0580(15) 0.3168(2)
O17_3 O 0.8453(14) 0.9949(13) 0.45601(18)
O18_3 O 0.7674(13) 0.9798(10) 0.49177(16)
O9_2 O 0.4126(11) 0.4693(10) 0.58838(17)
O10_2 O 0.4585(11) 0.5785(10) 0.55591(18)
N2_4 N 0.7520(14) 0.2352(13) 0.4986(2)
H3_4 H 0.772709 0.182229 0.510739
H4_4 H 0.779263 0.316621 0.502233
C11_4 C 0.0969(19) 0.0046(18) 0.5968(3)
H11_4 H 0.013316 0.049513 0.597592
H12_4 H 0.139996 0.026027 0.582051
H13_4 H 0.151615 0.031999 0.609838
C14_4 C 0.4788(14) 0.1150(13) 0.5535(2)
C15_4 C 0.4460(13) 0.2307(13) 0.5646(2)
H14_4 H 0.408487 0.227962 0.579675
C16_4 C 0.4671(15) 0.3497(15) 0.5540(2)
C17_4 C 0.4420(15) 0.4753(14) 0.5668(2)
C18_4 C 0.5168(16) 0.3510(16) 0.5317(2)
H15_4 H 0.531634 0.431659 0.524179
C19_4 C 0.5458(15) 0.2362(15) 0.5201(2)
C20_4 C 0.5272(15) 0.1210(14) 0.5310(3)
H16_4 H 0.547651 0.042871 0.523004
C21_4 C 0.6102(19) 0.2362(17) 0.4956(2)
H17_4 H 0.582433 0.158660 0.486714
H18_4 H 0.583463 0.314327 0.486802
C22_4 C 0.822(2) 0.189(2) 0.4769(3)
H19_4 H 0.785986 0.231911 0.462721
C23_4 C 0.964(2) 0.216(3) 0.4791(5)
H20_4 H 0.977635 0.308852 0.481976
H22_5 H 1.000011 0.165958 0.492074
C24_4 C 0.8084(17) 0.0423(15) 0.4753(2)
Pb5_2 Pb 0.47199(6) 0.73182(5) 0.58749(2)
O5_4 O 0.2604(13) 0.7719(14) 0.61767(17)
O6_4 O 0.2554(11) 0.7611(12) 0.57937(17)
O7_4 O 0.4967(12) 0.8840(11) 0.55489(18)
O8_4 O 0.4323(13) 0.9876(11) 0.58710(19)
N1_4 N 0.0012(12) 0.8278(12) 0.62029(17)
H1_4 H 0.016017 0.743774 0.624343
H2_4 H 0.032244 0.878932 0.631945
C10_4 C 0.0747(14) 0.8576(15) 0.5981(2)
H10_4 H 0.024567 0.827184 0.584216
C12_4 C 0.2060(14) 0.7914(15) 0.5990(2)
C13_4 C 0.4664(15) 0.9882(13) 0.5658(3)
H21_4 H 0.008039 0.191350 0.464602
H22_6 H 0.000011 0.165958 0.492074
O3_3 O 0.3877(9) 0.3396(11) 0.79024(16)
O4_3 O 0.4967(9) 0.2787(11) 0.82139(16)
C2_5 C 0.0330(13) 0.2700(14) 0.8239(2)
C3_5 C 0.1495(14) 0.2979(14) 0.8127(2)
H5_5 H 0.147980 0.329978 0.797145
C4_5 C 0.2667(14) 0.2799(14) 0.8237(2)
C5_5 C 0.3917(13) 0.3025(14) 0.8107(2)
C6_5 C 0.2685(14) 0.2288(14) 0.8465(2)
H6_5 H 0.349231 0.212960 0.853912
C7_5 C 0.1533(15) 0.2013(13) 0.8583(2)
C8_5 C 0.0342(12) 0.2230(14) 0.8469(2)
C9_5 C 0.1516(16) 0.1390(16) 0.8819(2)
H8_5 H 0.220656 0.177222 0.891703
H9_5 H 0.067164 0.155707 0.889519
Pb3_3 Pb 0.64682(5) 0.27327(6) 0.78850(2)
O1_5 O 0.8035(10) 0.2453(11) 0.82152(17)
O2_5 O 0.9049(16) 0.3259(16) 0.7913(3)
C1_5 C 0.9042(13) 0.2810(18) 0.8111(2)
H7_5 H 0.954898 0.205957 0.854734
O17_4 O 0.6547(14) 0.4949(13) 0.79399(18)
O18_4 O 0.7326(13) 0.4798(10) 0.75823(16)
N2_5 N 0.7480(14) 0.7352(13) 0.7514(2)
H3_5 H 0.727291 0.682229 0.739261
H4_5 H 0.720737 0.816621 0.747767
C18_5 C 0.9832(16) 0.8510(16) 0.7183(2)
H15_5 H 0.968366 0.931659 0.725821
C19_5 C 0.9542(15) 0.7362(15) 0.7299(2)
C20_5 C 0.9728(15) 0.6210(14) 0.7190(3)
H16_5 H 0.952349 0.542871 0.726996
C21_5 C 0.8898(19) 0.7362(17) 0.7544(2)
H17_5 H 0.917567 0.658660 0.763286
H18_5 H 0.916537 0.814327 0.763198
C22_5 C 0.678(2) 0.689(2) 0.7731(3)
H19_5 H 0.714014 0.731911 0.787279
C23_5 C 0.536(2) 0.716(3) 0.7709(5)
H20_5 H 0.522365 0.808852 0.768024
H21_5 H 0.491961 0.691350 0.785398
H22_7 H 0.499989 0.665958 0.757926
C24_5 C 0.6916(17) 0.5423(15) 0.7747(2)
O11_2 O 0.0051(13) 0.1547(14) 0.04399(18)
O12_2 O 0.0202(10) 0.2326(13) 0.00823(16)
Pb4_2 Pb 0.22673(6) 0.14682(5) 0.03850(2)
O15_3 O 0.9126(11) 0.0307(10) 0.16162(17)
Pb2_3 Pb 0.97199(6) 0.76818(5) 0.16251(2)
O1_6 O 0.2547(11) 0.3035(10) 0.07152(17)
O2_6 O 0.1741(16) 0.4049(16) 0.0413(3)
O3_4 O 0.1604(11) 0.8877(9) 0.04024(16)
O4_4 O 0.2213(11) 0.9967(9) 0.07139(16)
O5_5 O 0.7604(13) 0.7281(14) 0.13233(17)
O6_5 O 0.7554(11) 0.7389(12) 0.17063(17)
O7_5 O 0.9967(12) 0.6160(11) 0.19511(18)
O8_5 O 0.9323(13) 0.5124(11) 0.16290(19)
N1_5 N 0.5012(12) 0.6722(12) 0.12971(17)
H1_5 H 0.516017 0.756226 0.125657
H2_5 H 0.532244 0.621068 0.118055
C1_6 C 0.2190(18) 0.4042(13) 0.0611(2)
C2_6 C 0.2300(14) 0.5330(13) 0.0739(2)
C3_6 C 0.2021(14) 0.6495(14) 0.0627(2)
H5_6 H 0.170022 0.647980 0.047145
C4_6 C 0.2201(14) 0.7667(14) 0.0737(2)
C5_6 C 0.1975(14) 0.8917(13) 0.0607(2)
C6_6 C 0.2712(14) 0.7685(14) 0.0965(2)
H6_6 H 0.287040 0.849231 0.103912
C7_6 C 0.2987(13) 0.6533(15) 0.1083(2)
C8_6 C 0.2770(14) 0.5342(12) 0.0969(2)
H7_6 H 0.294043 0.454898 0.104734
C9_6 C 0.3610(16) 0.6516(16) 0.1319(2)
H8_6 H 0.322778 0.720656 0.141703
H9_6 H 0.344293 0.567164 0.139519
C10_5 C 0.5747(14) 0.6424(15) 0.1519(2)
H10_5 H 0.524567 0.672816 0.165784
C11_5 C 0.5969(19) 0.4954(18) 0.1532(3)
H11_5 H 0.513316 0.450487 0.152408
H12_5 H 0.639996 0.473973 0.167949
H13_5 H 0.651615 0.468001 0.140162
C12_5 C 0.7060(14) 0.7086(15) 0.1510(2)
C13_5 C 0.9664(15) 0.5118(13) 0.1842(3)
C14_5 C 0.9788(14) 0.3850(13) 0.1965(2)
C15_5 C 0.9460(13) 0.2693(13) 0.1854(2)
H14_5 H 0.908487 0.272038 0.170325
C16_5 C 0.9671(15) 0.1503(15) 0.1960(2)
C17_5 C 0.9420(15) 0.0247(14) 0.1832(2)
O16_3 O 0.9585(11) 0.9215(10) 0.19409(18)
Pb2_4 Pb 0.26818(5) 0.52801(6) 0.91251(2)
O5_6 O 0.2281(14) 0.7396(13) 0.88233(17)
O6_6 O 0.2389(12) 0.7446(11) 0.92063(17)
O7_6 O 0.1160(11) 0.5033(12) 0.94511(18)
O8_6 O 0.0124(11) 0.5677(13) 0.91290(19)
N1_6 N 0.1722(12) 0.9988(12) 0.87971(17)
H1_6 H 0.256226 0.983983 0.875657
H2_6 H 0.121068 0.967756 0.868055
C10_6 C 0.1424(15) 0.9253(14) 0.9019(2)
H10_6 H 0.172816 0.975433 0.915784
C12_6 C 0.2086(15) 0.7940(14) 0.9010(2)
C13_6 C 0.0118(13) 0.5336(15) 0.9342(3)
O15_4 O 0.5307(10) 0.5874(11) 0.91162(17)
O16_4 O 0.4215(10) 0.5415(11) 0.94409(18)
H3_6 H 0.817771 0.227291 0.989261
H4_6 H 0.683379 0.220737 0.997767
C11_6 C 0.9954(18) 0.9031(19) 0.9032(3)
H11_6 H 0.950487 0.986684 0.902408
H12_6 H 0.973973 0.860004 0.917949
H13_6 H 0.968001 0.848385 0.890162
C14_6 C 0.8850(13) 0.5212(14) 0.9465(2)
C15_6 C 0.7693(13) 0.5540(13) 0.9354(2)
H14_6 H 0.772038 0.591513 0.920325
C16_6 C 0.6503(15) 0.5329(15) 0.9460(2)
C17_6 C 0.5247(14) 0.5580(15) 0.9332(2)
C18_6 C 0.6490(16) 0.4832(16) 0.9683(2)
H15_6 H 0.568341 0.468366 0.975821
C19_6 C 0.7638(15) 0.4542(15) 0.9799(2)
C20_6 C 0.8790(14) 0.4728(15) 0.9690(3)
H16_6 H 0.957129 0.452349 0.976996
N2_6 N 0.7648(13) 0.2480(14) 0.0014(2)
C21_6 C 0.7638(17) 0.3898(19) 0.0044(2)
H17_6 H 0.841340 0.417567 0.013286
H18_6 H 0.685673 0.416537 0.013198
C22_6 C 0.811(2) 0.178(2) 0.0231(3)
H19_6 H 0.768089 0.214014 0.037279
C23_6 C 0.784(3) 0.036(2) 0.0209(5)
H20_6 H 0.691148 0.022365 0.018024
H22_8 H 0.834042 -0.000011 0.007926
C24_6 C 0.9577(15) 0.1916(17) 0.0247(2)
H21_6 H 0.808650 0.991961 0.035398
H22_9 H 0.834042 0.999989 0.007926
H21_7 H 0.191350 0.008039 0.535398
H22_10 H 0.165958 0.000011 0.507926
O9_3 O 0.4693(10) 0.4126(11) 0.41162(17)
O10_3 O 0.5785(10) 0.4585(11) 0.44409(18)
N2_7 N 0.2352(13) 0.7520(14) 0.5014(2)
H3_7 H 0.182229 0.772709 0.489261
H4_7 H 0.316621 0.779263 0.497767
C11_7 C 0.0046(18) 0.0969(19) 0.4032(3)
H11_7 H 0.049513 0.013316 0.402408
H12_7 H 0.026027 0.139996 0.417949
H13_7 H 0.031999 0.151615 0.390162
C14_7 C 0.1150(13) 0.4788(14) 0.4465(2)
C15_7 C 0.2307(13) 0.4460(13) 0.4354(2)
H14_7 H 0.227962 0.408487 0.420325
C16_7 C 0.3497(15) 0.4671(15) 0.4460(2)
C17_7 C 0.4753(14) 0.4420(15) 0.4332(2)
C18_7 C 0.3510(16) 0.5168(16) 0.4683(2)
H15_7 H 0.431659 0.531634 0.475821
C19_7 C 0.2362(15) 0.5458(15) 0.4799(2)
C20_7 C 0.1210(14) 0.5272(15) 0.4690(3)
H16_7 H 0.042871 0.547651 0.476996
C21_7 C 0.2362(17) 0.6102(19) 0.5044(2)
H17_7 H 0.158660 0.582433 0.513286
H18_7 H 0.314327 0.583463 0.513198
C22_7 C 0.189(2) 0.822(2) 0.5231(3)
H19_7 H 0.231911 0.785986 0.537279
C23_7 C 0.216(3) 0.964(2) 0.5209(5)
H20_7 H 0.308852 0.977635 0.518024
H22_11 H 0.165958 1.000011 0.507926
C24_7 C 0.0423(15) 0.8084(17) 0.5247(2)
Pb5_3 Pb 0.73182(5) 0.47199(6) 0.41251(2)
O5_7 O 0.7719(14) 0.2604(13) 0.38233(17)
O6_7 O 0.7611(12) 0.2554(11) 0.42063(17)
O7_7 O 0.8840(11) 0.4967(12) 0.44511(18)
O8_7 O 0.9876(11) 0.4323(13) 0.41290(19)
O11_3 O 0.9949(13) 0.8453(14) 0.54399(18)
O12_3 O 0.9798(10) 0.7674(13) 0.50823(16)
N1_7 N 0.8278(12) 0.0012(12) 0.37971(17)
H1_7 H 0.743774 0.016017 0.375657
H2_7 H 0.878932 0.032244 0.368055
C10_7 C 0.8576(15) 0.0747(14) 0.4019(2)
H10_7 H 0.827184 0.024567 0.415784
C12_7 C 0.7914(15) 0.2060(14) 0.4010(2)
C13_7 C 0.9882(13) 0.4664(15) 0.4342(3)
Pb4_3 Pb 0.77327(6) 0.85318(5) 0.53850(2)
O10_4 O 0.0415(11) 0.0785(10) 0.69409(18)
Pb5_4 Pb 0.02801(6) 0.23182(5) 0.66251(2)
O13_3 O 0.8396(11) 0.1123(9) 0.54024(16)
O14_3 O 0.7787(11) 0.0033(9) 0.57139(16)
O1_7 O 0.7453(11) 0.6965(10) 0.57152(17)
O2_7 O 0.8259(16) 0.5951(16) 0.5413(3)
O5_8 O 0.2396(13) 0.2719(14) 0.63233(17)
O6_8 O 0.2446(11) 0.2611(12) 0.67063(17)
O7_8 O 0.0033(12) 0.3840(11) 0.69511(18)
O8_8 O 0.0677(13) 0.4876(11) 0.66290(19)
O9_4 O 0.0874(11) 0.9693(10) 0.66162(17)
N1_8 N 0.4988(12) 0.3278(12) 0.62971(17)
H1_8 H 0.483983 0.243774 0.625657
H2_8 H 0.467756 0.378932 0.618055
C1_7 C 0.7810(18) 0.5958(13) 0.5611(2)
C2_7 C 0.7700(14) 0.4670(13) 0.5739(2)
C3_7 C 0.7979(14) 0.3505(14) 0.5627(2)
H5_7 H 0.829978 0.352020 0.547145
C4_7 C 0.7799(14) 0.2333(14) 0.5737(2)
C5_7 C 0.8025(14) 0.1083(13) 0.5607(2)
C6_7 C 0.7288(14) 0.2315(14) 0.5965(2)
H6_7 H 0.712960 0.150769 0.603912
C7_7 C 0.7013(13) 0.3467(15) 0.6083(2)
C8_7 C 0.7230(14) 0.4658(12) 0.5969(2)
H7_7 H 0.705957 0.545102 0.604734
C9_7 C 0.6390(16) 0.3484(16) 0.6319(2)
H8_7 H 0.677222 0.279344 0.641703
H9_7 H 0.655707 0.432836 0.639519
C10_8 C 0.4253(14) 0.3576(15) 0.6519(2)
H10_8 H 0.475433 0.327184 0.665784
C11_8 C 0.4031(19) 0.5046(18) 0.6532(3)
H11_8 H 0.486684 0.549513 0.652408
H12_8 H 0.360004 0.526027 0.667949
H13_8 H 0.348385 0.531999 0.640162
C12_8 C 0.2940(14) 0.2914(15) 0.6510(2)
C13_8 C 0.0336(15) 0.4882(13) 0.6842(3)
C14_8 C 0.0212(14) 0.6150(13) 0.6965(2)
C15_8 C 0.0540(13) 0.7307(13) 0.6854(2)
H14_8 H 0.091513 0.727962 0.670325
C16_8 C 0.0329(15) 0.8497(15) 0.6960(2)
C17_8 C 0.0580(15) 0.9753(14) 0.6832(2)
Pb1_2 Pb 0.35318(5) 0.72673(6) 0.28850(2)
O1_8 O 0.1965(10) 0.7547(11) 0.32152(17)
O2_8 O 0.0951(16) 0.6741(16) 0.2913(3)
C1_8 C 0.0958(13) 0.7190(18) 0.3111(2)
H7_8 H 0.045102 0.794043 0.354734
O13_4 O 0.6123(9) 0.6604(11) 0.29024(16)
O14_4 O 0.5033(9) 0.7213(11) 0.32139(16)
O17_5 O 0.3453(14) 0.5051(13) 0.29399(18)
O18_5 O 0.2674(13) 0.5202(10) 0.25823(16)
C2_8 C 0.9670(13) 0.7300(14) 0.3239(2)
C3_8 C 0.8505(14) 0.7021(14) 0.3127(2)
H5_8 H 0.852020 0.670022 0.297145
C4_8 C 0.7333(14) 0.7201(14) 0.3237(2)
C5_8 C 0.6083(13) 0.6975(14) 0.3107(2)
C6_8 C 0.7315(14) 0.7712(14) 0.3465(2)
H6_8 H 0.650769 0.787040 0.353912
C7_8 C 0.8467(15) 0.7987(13) 0.3583(2)
C8_8 C 0.9658(12) 0.7770(14) 0.3469(2)
C9_8 C 0.8484(16) 0.8610(16) 0.3819(2)
H8_8 H 0.779344 0.822778 0.391703
H9_8 H 0.932836 0.844293 0.389519
N2_8 N 0.2520(14) 0.2648(13) 0.2514(2)
H3_8 H 0.272709 0.317771 0.239261
H4_8 H 0.279263 0.183379 0.247767
C18_8 C 0.0168(16) 0.1490(16) 0.2183(2)
H15_8 H 0.031634 0.068341 0.225821
C19_8 C 0.0458(15) 0.2638(15) 0.2299(2)
C20_8 C 0.0272(15) 0.3790(14) 0.2190(3)
H16_8 H 0.047651 0.457129 0.226996
C21_8 C 0.1102(19) 0.2638(17) 0.2544(2)
H17_8 H 0.082433 0.341340 0.263286
H18_8 H 0.083463 0.185673 0.263198
C22_8 C 0.322(2) 0.311(2) 0.2731(3)
H19_8 H 0.285986 0.268089 0.287279
C23_8 C 0.464(2) 0.284(3) 0.2709(5)
H20_8 H 0.477635 0.191148 0.268024
H21_8 H 0.508039 0.308650 0.285398
H22_12 H 0.500011 0.334042 0.257926
C24_8 C 0.3084(17) 0.4577(15) 0.2747(2)
loop_
_geom_bond_atom_site_label_1
_geom_bond_atom_site_label_2
_geom_bond_site_symmetry_1
_geom_bond_site_symmetry_2
Pb3 O1 1_555 1_555
Pb2 O5 1_555 1_555
O1 C1 1_555 1_555
O2 Pb3 1_555 1_555
O3 C5 1_555 1_555
O4 C5 1_555 1_555
O5 C12 1_555 1_555
O6 Pb2 1_555 1_555
O7 Pb2 1_555 1_555
O8 Pb2 1_555 1_555
O15 C17 1_555 1_555
N1 H1 1_555 1_555
H2 N1 1_555 1_555
C1 O2 1_555 1_555
C2 C1 1_555 1_555
C3 C2 1_555 1_555
H5 C3 1_555 1_555
C4 C3 1_555 1_555
C5 C4 1_555 1_555
C6 C4 1_555 1_555
H6 C6 1_555 1_555
C7 C6 1_555 1_555
C8 C2 1_555 1_555
H7 C8 1_555 1_555
C9 N1 1_555 1_555
H8 C9 1_555 1_555
H9 C9 1_555 1_555
C10 N1 1_555 1_555
H10 C10 1_555 1_555
C11 C10 1_555 1_555
H11 C11 1_555 1_555
H12 C11 1_555 1_555
H13 C11 1_555 1_555
C12 O6 1_555 1_555
C13 O7 1_555 1_555
C14 C13 1_555 1_555
C15 C14 1_555 1_555
H14 C15 1_555 1_555
C16 C15 1_555 1_555
C17 C16 1_555 1_555
O16 Pb2 1_555 1_555
O17 Pb3 1_555 1_555
O18 Pb3 1_555 1_555
O8 C13 1_555 1_555
C7 C8 1_555 1_555
C7 C9 1_555 1_555
C10 C12 1_555 1_555
O11 C24 1_555 1_555
O12 C24 1_555 1_555
N2 H3 1_555 1_555
H4 N2 1_555 1_555
H15 C18 1_555 1_555
C19 C18 1_555 1_555
H16 C20 1_555 1_555
C21 N2 1_555 1_555
H17 C21 1_555 1_555
H18 C21 1_555 1_555
C22 N2 1_555 1_555
H19 C22 1_555 1_555
C23 C22 1_555 1_555
H20 C23 1_555 1_555
H21 C23 1_555 1_555
H22 C23 1_555 1_555
C24 C22 1_555 1_555
Pb4 O11 1_555 1_555
O12 Pb4 1_555 1_555
C19 C20 1_555 1_555
C19 C21 1_555 1_555
Pb4 O1_2 1_555 1_555
O1_2 C1_2 1_555 1_555
O2_2 Pb4 1_555 1_555
C1_2 O2_2 1_555 1_555
O13 Pb4 1_555 1_555
O14 Pb4 1_555 1_555
O13 C5_2 1_555 1_555
O14 C5_2 1_555 1_555
C3_2 C2_2 1_555 1_555
H5_2 C3_2 1_555 1_555
C4_2 C3_2 1_555 1_555
C5_2 C4_2 1_555 1_555
C6_2 C4_2 1_555 1_555
H6_2 C6_2 1_555 1_555
C7_2 C6_2 1_555 1_555
C8_2 C2_2 1_555 1_555
H8_2 C9_2 1_555 1_555
H9_2 C9_2 1_555 1_555
C7_2 C8_2 1_555 1_555
C7_2 C9_2 1_555 1_555
O3_2 C5_3 1_555 1_555
O4_2 C5_3 1_555 1_555
C3_3 C2_3 1_555 1_555
H5_3 C3_3 1_555 1_555
C4_3 C3_3 1_555 1_555
C5_3 C4_3 1_555 1_555
C6_3 C4_3 1_555 1_555
H6_3 C6_3 1_555 1_555
C7_3 C6_3 1_555 1_555
C8_3 C2_3 1_555 1_555
H8_3 C9_3 1_555 1_555
H9_3 C9_3 1_555 1_555
Pb3_2 O3_2 1_555 1_555
O4_2 Pb3_2 1_555 1_555
C7_3 C8_3 1_555 1_555
C7_3 C9_3 1_555 1_555
Pb3_2 O1_3 1_555 1_555
O1_3 C1_3 1_555 1_555
O2_3 Pb3_2 1_555 1_555
C1_3 O2_3 1_555 1_555
O17_2 Pb3_2 1_555 1_555
O18_2 Pb3_2 1_555 1_555
O17_2 C24_2 1_555 1_555
O18_2 C24_2 1_555 1_555
N2_2 H3_2 1_555 1_555
H4_2 N2_2 1_555 1_555
H15_2 C18_2 1_555 1_555
C19_2 C18_2 1_555 1_555
H16_2 C20_2 1_555 1_555
C21_2 N2_2 1_555 1_555
H17_2 C21_2 1_555 1_555
H18_2 C21_2 1_555 1_555
C22_2 N2_2 1_555 1_555
H19_2 C22_2 1_555 1_555
C23_2 C22_2 1_555 1_555
H20_2 C23_2 1_555 1_555
H21_2 C23_2 1_555 1_555
H22_2 C23_2 1_555 1_555
C24_2 C22_2 1_555 1_555
C19_2 C20_2 1_555 1_555
C19_2 C21_2 1_555 1_555
Pb2_2 O5_2 1_555 1_555
O5_2 C12_2 1_555 1_555
O6_2 Pb2_2 1_555 1_555
O7_2 Pb2_2 1_555 1_555
O8_2 Pb2_2 1_555 1_555
N1_2 H1_2 1_555 1_555
H2_2 N1_2 1_555 1_555
C10_2 N1_2 1_555 1_555
H10_2 C10_2 1_555 1_555
C12_2 O6_2 1_555 1_555
C13_2 O7_2 1_555 1_555
O15_2 Pb2_2 1_555 1_555
O16_2 Pb2_2 1_555 1_555
O8_2 C13_2 1_555 1_555
C10_2 C12_2 1_555 1_555
O15_2 C17_2 1_555 1_555
O16_2 C17_2 1_555 1_555
H11_2 C11_2 1_555 1_555
H12_2 C11_2 1_555 1_555
H13_2 C11_2 1_555 1_555
C15_2 C14_2 1_555 1_555
H14_2 C15_2 1_555 1_555
C16_2 C15_2 1_555 1_555
C17_2 C16_2 1_555 1_555
C18_3 C16_2 1_555 1_555
H15_3 C18_3 1_555 1_555
C19_3 C18_3 1_555 1_555
C20_3 C14_2 1_555 1_555
H16_3 C20_3 1_555 1_555
C19_3 C20_3 1_555 1_555
C21_3 N2_3 1_555 1_555
H17_3 C21_3 1_555 1_555
H18_3 C21_3 1_555 1_555
C22_3 N2_3 1_555 1_555
H19_3 C22_3 1_555 1_555
C23_3 C22_3 1_555 1_555
H20_3 C23_3 1_555 1_555
H22_3 C23_3 1_555 1_555
C24_3 C22_3 1_555 1_555
O10 Pb5 1_555 1_555
Pb1 O1_4 1_555 1_555
Pb5 O5_3 1_555 1_555
O1_4 C1_4 1_555 1_555
O2_4 Pb1 1_555 1_555
O13_2 C5_4 1_555 1_555
O14_2 C5_4 1_555 1_555
O5_3 C12_3 1_555 1_555
O6_3 Pb5 1_555 1_555
O7_3 Pb5 1_555 1_555
O8_3 Pb5 1_555 1_555
O9 C17_3 1_555 1_555
N1_3 H1_3 1_555 1_555
H2_3 N1_3 1_555 1_555
C1_4 O2_4 1_555 1_555
C2_4 C1_4 1_555 1_555
C3_4 C2_4 1_555 1_555
H5_4 C3_4 1_555 1_555
C4_4 C3_4 1_555 1_555
C5_4 C4_4 1_555 1_555
C6_4 C4_4 1_555 1_555
H6_4 C6_4 1_555 1_555
C7_4 C6_4 1_555 1_555
C8_4 C2_4 1_555 1_555
H7_4 C8_4 1_555 1_555
C9_4 N1_3 1_555 1_555
H8_4 C9_4 1_555 1_555
H9_4 C9_4 1_555 1_555
C10_3 N1_3 1_555 1_555
H10_3 C10_3 1_555 1_555
C11_3 C10_3 1_555 1_555
H11_3 C11_3 1_555 1_555
H12_3 C11_3 1_555 1_555
H13_3 C11_3 1_555 1_555
C12_3 O6_3 1_555 1_555
C13_3 O7_3 1_555 1_555
C14_3 C13_3 1_555 1_555
C15_3 C14_3 1_555 1_555
H14_3 C15_3 1_555 1_555
C16_3 C15_3 1_555 1_555
C17_3 C16_3 1_555 1_555
O17_3 Pb1 1_555 1_555
O18_3 Pb1 1_555 1_555
O8_3 C13_3 1_555 1_555
C7_4 C8_4 1_555 1_555
C7_4 C9_4 1_555 1_555
C10_3 C12_3 1_555 1_555
O9_2 C17_4 1_555 1_555
O10_2 C17_4 1_555 1_555
N2_4 H3_4 1_555 1_555
H4_4 N2_4 1_555 1_555
H11_4 C11_4 1_555 1_555
H12_4 C11_4 1_555 1_555
H13_4 C11_4 1_555 1_555
C15_4 C14_4 1_555 1_555
H14_4 C15_4 1_555 1_555
C16_4 C15_4 1_555 1_555
C17_4 C16_4 1_555 1_555
C18_4 C16_4 1_555 1_555
H15_4 C18_4 1_555 1_555
C19_4 C18_4 1_555 1_555
C20_4 C14_4 1_555 1_555
H16_4 C20_4 1_555 1_555
C21_4 N2_4 1_555 1_555
H17_4 C21_4 1_555 1_555
H18_4 C21_4 1_555 1_555
C22_4 N2_4 1_555 1_555
H19_4 C22_4 1_555 1_555
C23_4 C22_4 1_555 1_555
H20_4 C23_4 1_555 1_555
H22_5 C23_4 1_555 1_555
C24_4 C22_4 1_555 1_555
Pb5_2 O9_2 1_555 1_555
O10_2 Pb5_2 1_555 1_555
C19_4 C20_4 1_555 1_555
C19_4 C21_4 1_555 1_555
Pb5_2 O5_4 1_555 1_555
O5_4 C12_4 1_555 1_555
O6_4 Pb5_2 1_555 1_555
O7_4 Pb5_2 1_555 1_555
O8_4 Pb5_2 1_555 1_555
N1_4 H1_4 1_555 1_555
H2_4 N1_4 1_555 1_555
C10_4 N1_4 1_555 1_555
H10_4 C10_4 1_555 1_555
C12_4 O6_4 1_555 1_555
C13_4 O7_4 1_555 1_555
O8_4 C13_4 1_555 1_555
C10_4 C12_4 1_555 1_555
O3_3 C5_5 1_555 1_555
O4_3 C5_5 1_555 1_555
C3_5 C2_5 1_555 1_555
H5_5 C3_5 1_555 1_555
C4_5 C3_5 1_555 1_555
C5_5 C4_5 1_555 1_555
C6_5 C4_5 1_555 1_555
H6_5 C6_5 1_555 1_555
C7_5 C6_5 1_555 1_555
C8_5 C2_5 1_555 1_555
H8_5 C9_5 1_555 1_555
H9_5 C9_5 1_555 1_555
Pb3_3 O3_3 1_555 1_555
O4_3 Pb3_3 1_555 1_555
C7_5 C8_5 1_555 1_555
C7_5 C9_5 1_555 1_555
Pb3_3 O1_5 1_555 1_555
O1_5 C1_5 1_555 1_555
O2_5 Pb3_3 1_555 1_555
C1_5 O2_5 1_555 1_555
O17_4 Pb3_3 1_555 1_555
O18_4 Pb3_3 1_555 1_555
O17_4 C24_5 1_555 1_555
O18_4 C24_5 1_555 1_555
N2_5 H3_5 1_555 1_555
H4_5 N2_5 1_555 1_555
H15_5 C18_5 1_555 1_555
C19_5 C18_5 1_555 1_555
H16_5 C20_5 1_555 1_555
C21_5 N2_5 1_555 1_555
H17_5 C21_5 1_555 1_555
H18_5 C21_5 1_555 1_555
C22_5 N2_5 1_555 1_555
H19_5 C22_5 1_555 1_555
C23_5 C22_5 1_555 1_555
H20_5 C23_5 1_555 1_555
H21_5 C23_5 1_555 1_555
H22_7 C23_5 1_555 1_555
C24_5 C22_5 1_555 1_555
C19_5 C20_5 1_555 1_555
C19_5 C21_5 1_555 1_555
Pb4_2 O11_2 1_555 1_555
O12_2 Pb4_2 1_555 1_555
Pb4_2 O1_6 1_555 1_555
Pb2_3 O5_5 1_555 1_555
O1_6 C1_6 1_555 1_555
O2_6 Pb4_2 1_555 1_555
O3_4 C5_6 1_555 1_555
O4_4 C5_6 1_555 1_555
O5_5 C12_5 1_555 1_555
O6_5 Pb2_3 1_555 1_555
O7_5 Pb2_3 1_555 1_555
O8_5 Pb2_3 1_555 1_555
O15_3 C17_5 1_555 1_555
N1_5 H1_5 1_555 1_555
H2_5 N1_5 1_555 1_555
C1_6 O2_6 1_555 1_555
C2_6 C1_6 1_555 1_555
C3_6 C2_6 1_555 1_555
H5_6 C3_6 1_555 1_555
C4_6 C3_6 1_555 1_555
C5_6 C4_6 1_555 1_555
C6_6 C4_6 1_555 1_555
H6_6 C6_6 1_555 1_555
C7_6 C6_6 1_555 1_555
C8_6 C2_6 1_555 1_555
H7_6 C8_6 1_555 1_555
C9_6 N1_5 1_555 1_555
H8_6 C9_6 1_555 1_555
H9_6 C9_6 1_555 1_555
C10_5 N1_5 1_555 1_555
H10_5 C10_5 1_555 1_555
C11_5 C10_5 1_555 1_555
H11_5 C11_5 1_555 1_555
H12_5 C11_5 1_555 1_555
H13_5 C11_5 1_555 1_555
C12_5 O6_5 1_555 1_555
C13_5 O7_5 1_555 1_555
C14_5 C13_5 1_555 1_555
C15_5 C14_5 1_555 1_555
H14_5 C15_5 1_555 1_555
C16_5 C15_5 1_555 1_555
C17_5 C16_5 1_555 1_555
O16_3 Pb2_3 1_555 1_555
O8_5 C13_5 1_555 1_555
C7_6 C8_6 1_555 1_555
C7_6 C9_6 1_555 1_555
C10_5 C12_5 1_555 1_555
Pb2_4 O5_6 1_555 1_555
O5_6 C12_6 1_555 1_555
O6_6 Pb2_4 1_555 1_555
O7_6 Pb2_4 1_555 1_555
O8_6 Pb2_4 1_555 1_555
N1_6 H1_6 1_555 1_555
H2_6 N1_6 1_555 1_555
C10_6 N1_6 1_555 1_555
H10_6 C10_6 1_555 1_555
C12_6 O6_6 1_555 1_555
C13_6 O7_6 1_555 1_555
O15_4 Pb2_4 1_555 1_555
O16_4 Pb2_4 1_555 1_555
O8_6 C13_6 1_555 1_555
C10_6 C12_6 1_555 1_555
O15_4 C17_6 1_555 1_555
O16_4 C17_6 1_555 1_555
H11_6 C11_6 1_555 1_555
H12_6 C11_6 1_555 1_555
H13_6 C11_6 1_555 1_555
C15_6 C14_6 1_555 1_555
H14_6 C15_6 1_555 1_555
C16_6 C15_6 1_555 1_555
C17_6 C16_6 1_555 1_555
C18_6 C16_6 1_555 1_555
H15_6 C18_6 1_555 1_555
C19_6 C18_6 1_555 1_555
C20_6 C14_6 1_555 1_555
H16_6 C20_6 1_555 1_555
C19_6 C20_6 1_555 1_555
C21_6 N2_6 1_555 1_555
H17_6 C21_6 1_555 1_555
H18_6 C21_6 1_555 1_555
C22_6 N2_6 1_555 1_555
H19_6 C22_6 1_555 1_555
C23_6 C22_6 1_555 1_555
H20_6 C23_6 1_555 1_555
H22_8 C23_6 1_555 1_555
C24_6 C22_6 1_555 1_555
O9_3 C17_7 1_555 1_555
O10_3 C17_7 1_555 1_555
N2_7 H3_7 1_555 1_555
H4_7 N2_7 1_555 1_555
H11_7 C11_7 1_555 1_555
H12_7 C11_7 1_555 1_555
H13_7 C11_7 1_555 1_555
C15_7 C14_7 1_555 1_555
H14_7 C15_7 1_555 1_555
C16_7 C15_7 1_555 1_555
C17_7 C16_7 1_555 1_555
C18_7 C16_7 1_555 1_555
H15_7 C18_7 1_555 1_555
C19_7 C18_7 1_555 1_555
C20_7 C14_7 1_555 1_555
H16_7 C20_7 1_555 1_555
C21_7 N2_7 1_555 1_555
H17_7 C21_7 1_555 1_555
H18_7 C21_7 1_555 1_555
C22_7 N2_7 1_555 1_555
H19_7 C22_7 1_555 1_555
C23_7 C22_7 1_555 1_555
H20_7 C23_7 1_555 1_555
H22_11 C23_7 1_555 1_555
C24_7 C22_7 1_555 1_555
Pb5_3 O9_3 1_555 1_555
O10_3 Pb5_3 1_555 1_555
C19_7 C20_7 1_555 1_555
C19_7 C21_7 1_555 1_555
Pb5_3 O5_7 1_555 1_555
O5_7 C12_7 1_555 1_555
O6_7 Pb5_3 1_555 1_555
O7_7 Pb5_3 1_555 1_555
O8_7 Pb5_3 1_555 1_555
N1_7 H1_7 1_555 1_555
H2_7 N1_7 1_555 1_555
C10_7 N1_7 1_555 1_555
H10_7 C10_7 1_555 1_555
C12_7 O6_7 1_555 1_555
C13_7 O7_7 1_555 1_555
Pb4_3 O11_3 1_555 1_555
O8_7 C13_7 1_555 1_555
O12_3 Pb4_3 1_555 1_555
C10_7 C12_7 1_555 1_555
O10_4 Pb5_4 1_555 1_555
Pb4_3 O1_7 1_555 1_555
Pb5_4 O5_8 1_555 1_555
O1_7 C1_7 1_555 1_555
O2_7 Pb4_3 1_555 1_555
O13_3 C5_7 1_555 1_555
O14_3 C5_7 1_555 1_555
O5_8 C12_8 1_555 1_555
O6_8 Pb5_4 1_555 1_555
O7_8 Pb5_4 1_555 1_555
O8_8 Pb5_4 1_555 1_555
O9_4 C17_8 1_555 1_555
N1_8 H1_8 1_555 1_555
H2_8 N1_8 1_555 1_555
C1_7 O2_7 1_555 1_555
C2_7 C1_7 1_555 1_555
C3_7 C2_7 1_555 1_555
H5_7 C3_7 1_555 1_555
C4_7 C3_7 1_555 1_555
C5_7 C4_7 1_555 1_555
C6_7 C4_7 1_555 1_555
H6_7 C6_7 1_555 1_555
C7_7 C6_7 1_555 1_555
C8_7 C2_7 1_555 1_555
H7_7 C8_7 1_555 1_555
C9_7 N1_8 1_555 1_555
H8_7 C9_7 1_555 1_555
H9_7 C9_7 1_555 1_555
C10_8 N1_8 1_555 1_555
H10_8 C10_8 1_555 1_555
C11_8 C10_8 1_555 1_555
H11_8 C11_8 1_555 1_555
H12_8 C11_8 1_555 1_555
H13_8 C11_8 1_555 1_555
C12_8 O6_8 1_555 1_555
C13_8 O7_8 1_555 1_555
C14_8 C13_8 1_555 1_555
C15_8 C14_8 1_555 1_555
H14_8 C15_8 1_555 1_555
C16_8 C15_8 1_555 1_555
C17_8 C16_8 1_555 1_555
O8_8 C13_8 1_555 1_555
C7_7 C8_7 1_555 1_555
C7_7 C9_7 1_555 1_555
C10_8 C12_8 1_555 1_555
Pb1_2 O1_8 1_555 1_555
O1_8 C1_8 1_555 1_555
O2_8 Pb1_2 1_555 1_555
C1_8 O2_8 1_555 1_555
O13_4 Pb1_2 1_555 1_555
O14_4 Pb1_2 1_555 1_555
O17_5 Pb1_2 1_555 1_555
O18_5 Pb1_2 1_555 1_555
O13_4 C5_8 1_555 1_555
O14_4 C5_8 1_555 1_555
C3_8 C2_8 1_555 1_555
H5_8 C3_8 1_555 1_555
C4_8 C3_8 1_555 1_555
C5_8 C4_8 1_555 1_555
C6_8 C4_8 1_555 1_555
H6_8 C6_8 1_555 1_555
C7_8 C6_8 1_555 1_555
C8_8 C2_8 1_555 1_555
H8_8 C9_8 1_555 1_555
H9_8 C9_8 1_555 1_555
C7_8 C8_8 1_555 1_555
C7_8 C9_8 1_555 1_555
O17_5 C24_8 1_555 1_555
O18_5 C24_8 1_555 1_555
N2_8 H3_8 1_555 1_555
H4_8 N2_8 1_555 1_555
H15_8 C18_8 1_555 1_555
C19_8 C18_8 1_555 1_555
H16_8 C20_8 1_555 1_555
C21_8 N2_8 1_555 1_555
H17_8 C21_8 1_555 1_555
H18_8 C21_8 1_555 1_555
C22_8 N2_8 1_555 1_555
H19_8 C22_8 1_555 1_555
C23_8 C22_8 1_555 1_555
H20_8 C23_8 1_555 1_555
H21_8 C23_8 1_555 1_555
H22_12 C23_8 1_555 1_555
C24_8 C22_8 1_555 1_555
C19_8 C20_8 1_555 1_555
C19_8 C21_8 1_555 1_555

#END
