
###############################################################################
#
# This file contains modified crystal structure data generated from the
# MOF subset of the Cambridge Structural Database (CSD) v543 
# hosted by the Cambridge Crystallographic Data Centre (CCDC).
#
# This work is licensed under the Creative Commons
# Attribution-NonCommercial-ShareAlike 4.0 International License.
# To view a copy of this license, visit
# http://creativecommons.org/licenses/by-nc-sa/4.0/
# or send a letter to
# Creative Commons, PO Box 1866, Mountain View, CA 94042, USA.
#
# CIF created using the CSD Python API on 29 September 2022
# The structure has been converted into the P1 space group
# The structure has a 3D framework
# The original CSD entry HESCUG is in the rhombohedral crystal system
# The framework has been calculated to contain at least 10.0% void space
# The void calculation uses a probe of radius 1.32A, grid spacing 0.4
# H atom positions have been added when not included in the experimental data
#
###############################################################################

data_HESCUG
_chemical_formula_moiety         '(C216 H252 Gd36 N108 O196 Re108 Se90)n'
_symmetry_cell_setting           triclinic
_symmetry_space_group_name_H-M   'P 1'
_symmetry_Int_Tables_number      1
_space_group_name_Hall           'P 1'
loop_
_symmetry_equiv_pos_site_id
_symmetry_equiv_pos_as_xyz
1 x,y,z
_cell_length_a                   27.6730(10)
_cell_length_b                   27.6730(10)
_cell_length_c                   31.4943(14)
_cell_angle_alpha                90
_cell_angle_beta                 90
_cell_angle_gamma                120
_cell_volume                     20887
loop_
_atom_site_label
_atom_site_type_symbol
_atom_site_fract_x
_atom_site_fract_y
_atom_site_fract_z
Re1 Re 0.10689(3) 0.72288(3) 0.06781(2)
Re2 Re 0.11443(3) 0.81066(3) 0.02845(2)
Re3 Re 0.20206(3) 0.81806(3) 0.06731(2)
Se1 Se 0.16244(8) 0.76014(8) 0.00055(6)
Se2 Se 0.02416(8) 0.71861(8) 0.03060(6)
Se3 Se 0.19209(8) 0.73339(8) 0.10493(6)
Se4 Se 0.20603(8) 0.90161(8) 0.03099(5)
C1 C 0.0818(9) 0.6388(8) 0.0533(6)
C3 C 0.2855(8) 0.8472(9) 0.0499(6)
N1 N 0.0682(7) 0.5934(7) 0.0462(5)
N3 N 0.3324(7) 0.8640(8) 0.0409(5)
Gd1 Gd 0.09274(4) 0.52389(4) 0.01996(3)
O1 O 0.1781(6) 0.6005(6) 0.0487(5)
O4 O 0.0016(6) 0.4603(6) 0.0326(4)
H1 H 0.0312 0.3807 0.0643
Re4 Re 0.27712(3) 0.38401(4) 0.06781(2)
Re5 Re 0.18934(3) 0.30377(4) 0.02845(2)
Re6 Re 0.18194(3) 0.38400(4) 0.06731(2)
Se5 Se 0.23986(8) 0.40230(11) 0.00055(6)
Se6 Se 0.28139(8) 0.30555(11) 0.03060(6)
Se7 Se 0.26661(8) 0.45870(11) 0.10493(6)
Se8 Se 0.09839(8) 0.30442(11) 0.03099(5)
C10 C 0.3612(8) 0.4430(12) 0.0533(6)
C12 C 0.1528(9) 0.4383(12) 0.0499(6)
N4 N 0.4066(7) 0.4748(10) 0.0462(5)
N6 N 0.1360(8) 0.4684(11) 0.0409(5)
Gd2 Gd 0.47611(4) 0.56885(6) 0.01996(3)
O9 O 0.3995(6) 0.5776(8) 0.0487(5)
Re7 Re 0.22644(3) 0.28266(4) 0.09886(2)
Re8 Re 0.05621(3) 0.77356(3) 0.09886(2)
Re9 Re 0.21890(3) 0.36290(4) 0.13822(2)
Re10 Re 0.14399(3) 0.78110(3) 0.13822(2)
Re11 Re 0.13127(3) 0.28267(4) 0.09936(2)
Re12 Re 0.15139(3) 0.86873(3) 0.09936(2)
Se9 Se 0.30917(8) 0.36112(11) 0.13607(6)
Se10 Se 0.05194(8) 0.69083(8) 0.13607(6)
Se11 Se 0.14124(8) 0.20797(11) 0.06174(6)
Se12 Se 0.06672(8) 0.85876(8) 0.06174(6)
Se13 Se 0.12730(8) 0.36225(11) 0.13568(5)
Se14 Se 0.23494(8) 0.87270(8) 0.13568(5)
N7 N 0.0798(10) 0.5079(7) 0.0994(5)
N8 N 0.4921(7) 0.5720(7) 0.0994(5)
N9 N 0.5316(11) 0.6676(7) 0.0409(5)
Gd3 Gd 0.43115(6) 0.90726(4) 0.01996(3)
O12 O 0.5397(6) 0.5413(8) 0.0326(4)
H3 H 0.172719 0.605348 0.0792528
H4 H 0.208905 0.59218 0.0455144
H11 H 0.394652 0.567372 0.0792528
H12 H 0.40782 0.616725 0.0455144
C2 C 0.1002(8) 0.8286(8) 0.9659(6)
N2 N 0.0947(7) 0.8412(7) 0.9327(5)
O2 O 0.1687(6) 0.5453(8) 0.9706(5)
O3 O 0.0566(6) 0.4501(6) 0.9656(4)
C11 C 0.1714(8) 0.2716(11) 0.9659(6)
N5 N 0.1588(7) 0.2535(10) 0.9327(5)
O10 O 0.4547(8) 0.6234(10) 0.9706(5)
O11 O 0.5499(6) 0.6065(8) 0.9656(4)
Gd6 Gd 0.09782(6) 0.85722(4) 0.85329(3)
Gd7 Gd 0.14278(4) 0.24059(4) 0.85329(3)
O13 O 0.0907(6) 0.5780(6) 0.9603(4)
O14 O 0.4220(6) 0.5127(8) 0.9603(4)
H5 H 0.204542 0.574008 0.983265
H6 H 0.17042 0.510923 0.964787
H7 H 0.0587002 0.46682 0.937281
H8 H 0.0793488 0.431483 0.965466
H9 H 0.425992 0.630535 0.983265
H10 H 0.489077 0.659497 0.964787
H13 H 0.53318 0.591881 0.937281
H14 H 0.568517 0.647865 0.965466
O5 O 0.9093(6) 0.4220(6) 0.0397(4)
C4 C 0.9544(9) 0.4222(8) 0.0449(6)
C5 C 0.9522(9) 0.3744(8) 0.0671(6)
C6 C 0.9932(9) 0.3598(8) 0.0728(6)
O6 O 0.9020(7) 0.3333 0.0833
O7 O 0.8746(8) 0.2064(6) 0.1341(4)
O8 O 0.8206(8) 0.2447(6) 0.1270(4)
C7 C 0.8655(12) 0.2445(8) 0.1218(6)
C8 C 0.9111(12) 0.2923(8) 0.0996(6)
C9 C 0.9667(12) 0.3069(8) 0.0939(6)
H2 H 0.9838 0.2860 0.1024
Gd4 Gd 0.90218(6) 0.14278(4) 0.14671(3)
Gd8 Gd 0.76448(6) 0.19056(4) 0.18663(3)
Gd5 Gd 0.90726(4) 0.47611(4) 0.98004(3)
O5_2 O 0.5780(6) 0.4873(8) 0.0397(4)
C4_2 C 0.5778(8) 0.5322(12) 0.0449(6)
C5_2 C 0.6256(8) 0.5778(12) 0.0671(6)
C6_2 C 0.6402(8) 0.6334(12) 0.0728(6)
H1_2 H 0.6193 0.6505 0.0643
O6_2 O 0.6667 0.5687(7) 0.0833
O7_2 O 0.7936(6) 0.6683(10) 0.1341(4)
O8_2 O 0.7553(6) 0.5760(10) 0.1270(4)
C7_2 C 0.7555(8) 0.6211(14) 0.1218(6)
C8_2 C 0.7077(8) 0.6189(14) 0.0996(6)
C9_2 C 0.6931(8) 0.6599(14) 0.0939(6)
H2_2 H 0.7140 0.6979 0.1024
Re4_2 Re 0.61599(4) 0.89311(5) 0.06781(2)
Re5_2 Re 0.69623(4) 0.88557(5) 0.02845(2)
Re6_2 Re 0.61600(4) 0.79794(5) 0.06731(2)
Se5_2 Se 0.59770(11) 0.83756(14) 0.00055(6)
Se6_2 Se 0.69445(11) 0.97584(14) 0.03060(6)
Se7_2 Se 0.54130(11) 0.80791(14) 0.10493(6)
Se8_2 Se 0.69558(11) 0.79397(14) 0.03099(5)
C10_2 C 0.5570(12) 0.9182(14) 0.0533(6)
C12_2 C 0.5617(12) 0.7145(15) 0.0499(6)
N4_2 N 0.5252(10) 0.9318(12) 0.0462(5)
O9_2 O 0.4224(8) 0.8219(10) 0.0487(5)
Re7_2 Re 0.71734(4) 0.94379(5) 0.09886(2)
Re9_2 Re 0.63710(4) 0.85601(5) 0.13822(2)
Re11_2 Re 0.71733(4) 0.84861(5) 0.09936(2)
Se9_2 Se 0.63888(11) 0.94806(14) 0.13607(6)
Se11_2 Se 0.79203(11) 0.93328(14) 0.06174(6)
Se13_2 Se 0.63775(11) 0.76506(14) 0.13568(5)
N8_2 N 0.4280(7) 0.9202(10) 0.0994(5)
Gd4_2 Gd 0.85722(4) 0.75941(7) 0.14671(3)
Gd8_2 Gd 0.80944(4) 0.57393(7) 0.18663(3)
O12_2 O 0.4587(8) 0.9984(10) 0.0326(4)
H11_2 H 0.432628 0.827281 0.0792528
H12_2 H 0.383275 0.791095 0.0455144
C11_2 C 0.7284(11) 0.8998(14) 0.9659(6)
N5_2 N 0.7465(10) 0.9053(12) 0.9327(5)
O10_2 O 0.3766(10) 0.8313(13) 0.9706(5)
O11_2 O 0.3935(8) 0.9434(10) 0.9656(4)
Gd5_2 Gd 0.52389(4) 0.43115(6) 0.98004(3)
Gd7_2 Gd 0.75941(4) 0.90218(6) 0.85329(3)
O14_2 O 0.4873(8) 0.9093(10) 0.9603(4)
H9_2 H 0.369465 0.795458 0.983265
H10_2 H 0.340503 0.82958 0.964787
H13_2 H 0.408119 0.9413 0.937281
H14_2 H 0.352135 0.920651 0.965466
O5_3 O 0.5127(8) 0.0907(6) 0.0397(4)
C4_3 C 0.4678(12) 0.0456(9) 0.0449(6)
C5_3 C 0.4222(12) 0.0478(9) 0.0671(6)
C6_3 C 0.3666(12) 0.0068(9) 0.0728(6)
O6_3 O 0.4313(7) 0.0980(7) 0.0833
O7_3 O 0.3317(10) 0.1254(8) 0.1341(4)
O8_3 O 0.4240(10) 0.1794(8) 0.1270(4)
C7_3 C 0.3789(14) 0.1345(12) 0.1218(6)
C8_3 C 0.3811(14) 0.0889(12) 0.0996(6)
C9_3 C 0.3401(14) 0.0333(12) 0.0939(6)
H2_3 H 0.3021 0.0162 0.1024
Gd4_3 Gd 0.24059(7) 0.09782(6) 0.14671(3)
Gd8_3 Gd 0.42607(7) 0.23552(6) 0.18663(3)
Gd5_3 Gd 0.56885(6) 0.09274(4) 0.98004(3)
H1_3 H 0.3495 0.9688 0.0643
Re1_2 Re 0.38401(4) 0.27712(3) 0.43219(2)
Re2_2 Re 0.30377(4) 0.18934(3) 0.47155(2)
Re3_2 Re 0.38400(4) 0.18194(3) 0.43269(2)
Se1_2 Se 0.40230(11) 0.23986(8) 0.49945(6)
Se2_2 Se 0.30555(11) 0.28139(8) 0.46940(6)
Se3_2 Se 0.45870(11) 0.26661(8) 0.39507(6)
Se4_2 Se 0.30442(11) 0.09839(8) 0.46901(5)
C1_2 C 0.4430(12) 0.3612(8) 0.4467(6)
C2_2 C 0.2716(11) 0.1714(8) 0.5341(6)
C3_2 C 0.4383(12) 0.1528(9) 0.4501(6)
N1_2 N 0.4748(10) 0.4066(7) 0.4538(5)
N2_2 N 0.2535(10) 0.1588(7) 0.5673(5)
N3_2 N 0.4684(11) 0.1360(8) 0.4591(5)
Gd1_2 Gd 0.56885(6) 0.47611(4) 0.48004(3)
O1_2 O 0.5776(8) 0.3995(6) 0.4513(5)
O2_2 O 0.6234(10) 0.4547(8) 0.5294(5)
O3_2 O 0.6065(8) 0.5499(6) 0.5344(4)
O4_2 O 0.5413(8) 0.5397(6) 0.4674(4)
O5_4 O 0.4873(8) 0.5780(6) 0.4603(4)
C4_4 C 0.5322(12) 0.5778(8) 0.4551(6)
C5_4 C 0.5778(12) 0.6256(8) 0.4329(6)
C6_4 C 0.6334(12) 0.6402(8) 0.4272(6)
H1_4 H 0.6505 0.6193 0.4357
O6_4 O 0.5687(7) 0.6667 0.4167
O7_4 O 0.6683(10) 0.7936(6) 0.3659(4)
O8_4 O 0.5760(10) 0.7553(6) 0.3730(4)
C7_4 C 0.6211(14) 0.7555(8) 0.3782(6)
C8_4 C 0.6189(14) 0.7077(8) 0.4004(6)
C9_4 C 0.6599(14) 0.6931(8) 0.4061(6)
H2_4 H 0.6979 0.7140 0.3976
Re4_3 Re 0.89311(5) 0.61599(4) 0.43219(2)
Re5_3 Re 0.88557(5) 0.69623(4) 0.47155(2)
Re6_3 Re 0.79794(5) 0.61600(4) 0.43269(2)
Se5_3 Se 0.83756(14) 0.59770(11) 0.49945(6)
Se6_3 Se 0.97584(14) 0.69445(11) 0.46940(6)
Se7_3 Se 0.80791(14) 0.54130(11) 0.39507(6)
Se8_3 Se 0.79397(14) 0.69558(11) 0.46901(5)
C10_3 C 0.9182(14) 0.5570(12) 0.4467(6)
C11_3 C 0.8998(14) 0.7284(11) 0.5341(6)
C12_3 C 0.7145(15) 0.5617(12) 0.4501(6)
N4_3 N 0.9318(12) 0.5252(10) 0.4538(5)
N5_3 N 0.9053(12) 0.7465(10) 0.5673(5)
N6_2 N 0.6676(14) 0.5316(11) 0.4591(5)
Gd2_2 Gd 0.90726(7) 0.43115(6) 0.48004(3)
O9_3 O 0.8219(10) 0.4224(8) 0.4513(5)
O10_3 O 0.8313(13) 0.3766(10) 0.5294(5)
O11_3 O 0.9434(10) 0.3935(8) 0.5344(4)
Re7_3 Re 0.94379(5) 0.71734(4) 0.40114(2)
Re8_2 Re 0.28266(4) 0.22644(3) 0.40114(2)
Re9_3 Re 0.85601(5) 0.63710(4) 0.36178(2)
Re10_2 Re 0.36290(4) 0.21890(3) 0.36178(2)
Re11_3 Re 0.84861(5) 0.71733(4) 0.40064(2)
Re12_2 Re 0.28267(4) 0.13127(3) 0.40064(2)
Se9_3 Se 0.94806(14) 0.63888(11) 0.36393(6)
Se10_2 Se 0.36112(11) 0.30917(8) 0.36393(6)
Se11_3 Se 0.93328(14) 0.79203(11) 0.43826(6)
Se12_2 Se 0.20797(11) 0.14124(8) 0.43826(6)
Se13_3 Se 0.76506(14) 0.63775(11) 0.36432(5)
Se14_2 Se 0.36225(11) 0.12730(8) 0.36432(5)
N7_2 N 0.5720(12) 0.4921(7) 0.4006(5)
N8_3 N 0.9202(10) 0.4280(7) 0.4006(5)
N9_2 N 0.8640(13) 0.3324(7) 0.4591(5)
Gd3_2 Gd 0.52389(7) 0.09274(4) 0.48004(3)
Gd4_4 Gd 0.75941(7) 0.85722(4) 0.35329(3)
Gd5_4 Gd 0.43115(6) 0.52389(4) 0.51996(3)
Gd6_2 Gd 0.24059(7) 0.14278(4) 0.64671(3)
Gd7_3 Gd 0.90218(6) 0.75941(4) 0.64671(3)
Gd8_4 Gd 0.57393(7) 0.80944(4) 0.31337(3)
O12_3 O 0.9984(10) 0.4587(8) 0.4674(4)
O13_2 O 0.5127(8) 0.4220(6) 0.5397(4)
O14_3 O 0.9093(10) 0.4873(8) 0.5397(4)
H3_2 H 0.567372 0.394652 0.420747
H4_2 H 0.616725 0.40782 0.454486
H5_2 H 0.630535 0.425992 0.516735
H6_2 H 0.659497 0.489077 0.535213
H7_2 H 0.591881 0.53318 0.562719
H8_2 H 0.647865 0.568517 0.534534
H9_3 H 0.795458 0.369465 0.516735
H10_3 H 0.82958 0.340503 0.535213
H11_3 H 0.827281 0.432628 0.420747
H12_3 H 0.791095 0.383275 0.454486
H13_3 H 0.9413 0.408119 0.562719
H14_3 H 0.920651 0.352135 0.534534
O5_5 O 0.0907(6) 0.5127(8) 0.4603(4)
C4_5 C 0.0456(9) 0.4678(12) 0.4551(6)
C5_5 C 0.0478(9) 0.4222(12) 0.4329(6)
C6_5 C 0.0068(9) 0.3666(12) 0.4272(6)
O6_5 O 0.0980(7) 0.4313(7) 0.4167
O7_5 O 0.1254(8) 0.3317(10) 0.3659(4)
O8_5 O 0.1794(8) 0.4240(10) 0.3730(4)
C7_5 C 0.1345(12) 0.3789(14) 0.3782(6)
C8_5 C 0.0889(12) 0.3811(14) 0.4004(6)
C9_5 C 0.0333(12) 0.3401(14) 0.4061(6)
H2_5 H 0.0162 0.3021 0.3976
Gd4_5 Gd 0.09782(6) 0.24059(7) 0.35329(3)
Gd5_5 Gd 0.09274(4) 0.56885(6) 0.51996(3)
Gd8_5 Gd 0.23552(6) 0.42607(7) 0.31337(3)
H1_5 H 0.9688 0.3495 0.4357
Re4_4 Re 0.72288(3) 0.10689(5) 0.43219(2)
Re5_4 Re 0.81066(3) 0.11443(5) 0.47155(2)
Re6_4 Re 0.81806(3) 0.20206(5) 0.43269(2)
Se5_4 Se 0.76014(8) 0.16244(14) 0.49945(6)
Se6_4 Se 0.71861(8) 0.02416(14) 0.46940(6)
Se7_4 Se 0.73339(8) 0.19209(14) 0.39507(6)
Se8_4 Se 0.90161(8) 0.20603(14) 0.46901(5)
C10_4 C 0.6388(8) 0.0818(14) 0.4467(6)
C11_4 C 0.8286(8) 0.1002(14) 0.5341(6)
C12_4 C 0.8472(9) 0.2855(15) 0.4501(6)
N4_4 N 0.5934(7) 0.0682(12) 0.4538(5)
N5_4 N 0.8412(7) 0.0947(12) 0.5673(5)
O9_4 O 0.6005(6) 0.1781(10) 0.4513(5)
O10_4 O 0.5453(8) 0.1687(13) 0.5294(5)
O11_4 O 0.4501(6) 0.0566(10) 0.5344(4)
Re7_4 Re 0.77356(3) 0.05621(5) 0.40114(2)
Re9_4 Re 0.78110(3) 0.14399(5) 0.36178(2)
Re11_4 Re 0.86873(3) 0.15139(5) 0.40064(2)
Se9_4 Se 0.69083(8) 0.05194(14) 0.36393(6)
Se11_4 Se 0.85876(8) 0.06672(14) 0.43826(6)
Se13_4 Se 0.87270(8) 0.23494(14) 0.36432(5)
N8_4 N 0.5079(7) 0.0798(10) 0.4006(5)
Gd7_4 Gd 0.85722(4) 0.09782(6) 0.64671(3)
O12_4 O 0.4603(6) 0.0016(10) 0.4674(4)
O14_4 O 0.5780(6) 0.0907(10) 0.5397(4)
H9_4 H 0.574008 0.204542 0.516735
H10_4 H 0.510923 0.17042 0.535213
H11_4 H 0.605348 0.172719 0.420747
H12_4 H 0.59218 0.208905 0.454486
H13_4 H 0.46682 0.0587002 0.562719
H14_4 H 0.431483 0.0793488 0.534534
H1_6 H 0.3807 0.0312 0.4357
O5_6 O 0.4220(6) 0.9093(6) 0.4603(4)
C4_6 C 0.4222(8) 0.9544(9) 0.4551(6)
C5_6 C 0.3744(8) 0.9522(9) 0.4329(6)
C6_6 C 0.3598(8) 0.9932(9) 0.4272(6)
O6_6 O 0.3333 0.9020(7) 0.4167
O7_6 O 0.2064(6) 0.8746(8) 0.3659(4)
O8_6 O 0.2447(6) 0.8206(8) 0.3730(4)
C7_6 C 0.2445(8) 0.8655(12) 0.3782(6)
C8_6 C 0.2923(8) 0.9111(12) 0.4004(6)
C9_6 C 0.3069(8) 0.9667(12) 0.4061(6)
H2_6 H 0.2860 0.9838 0.3976
Gd4_6 Gd 0.14278(4) 0.90218(6) 0.35329(3)
Gd5_6 Gd 0.47611(4) 0.90726(4) 0.51996(3)
Gd8_6 Gd 0.19056(4) 0.76448(6) 0.31337(3)
N9_3 N 0.1983(11) 0.0009(7) 0.3742(5)
C10_5 C 0.0279(8) 0.7763(12) 0.3866(6)
N4_5 N 0.0733(7) 0.8081(10) 0.3795(5)
O9_5 O 0.0662(6) 0.9109(8) 0.3820(5)
O10_5 O 0.1214(8) 0.9567(10) 0.3039(5)
O11_5 O 0.2166(6) 0.9398(8) 0.2989(4)
N8_5 N 0.1588(7) 0.9053(7) 0.4327(5)
O14_5 O 0.0887(6) 0.8460(8) 0.2936(4)
H9_5 H 0.0926588 0.963868 0.316598
H10_5 H 0.155743 0.99283 0.29812
H11_5 H 0.0613191 0.900705 0.412586
H12_5 H 0.0744871 0.950059 0.378848
H13_5 H 0.199847 0.925214 0.270614
H14_5 H 0.235183 0.981199 0.2988
Se1_3 Se 0.82911(8) 0.09347(8) 0.33388(6)
C2_3 C 0.7669(8) 0.1619(8) 0.2992(6)
C3_3 C 0.9522(8) 0.1805(9) 0.3832(6)
N2_3 N 0.7614(7) 0.1745(7) 0.2660(5)
N3_3 N 0.9991(7) 0.1973(8) 0.3742(5)
C1_3 C 0.7485(9) 0.9721(8) 0.3866(6)
N1_3 N 0.7349(7) 0.9267(7) 0.3795(5)
O1_3 O 0.8448(6) 0.9338(6) 0.3820(5)
O2_3 O 0.8354(6) 0.8786(8) 0.3039(5)
O3_3 O 0.7233(6) 0.7834(6) 0.2989(4)
Se5_5 Se 0.90653(8) 0.73563(11) 0.33388(6)
C11_5 C 0.8381(8) 0.6049(11) 0.2992(6)
C12_5 C 0.8195(9) 0.7716(12) 0.3832(6)
N5_5 N 0.8255(7) 0.5868(10) 0.2660(5)
N6_3 N 0.8027(8) 0.8017(11) 0.3742(5)
N7_3 N 0.7465(10) 0.8412(7) 0.4327(5)
O13_3 O 0.7574(6) 0.9113(6) 0.2936(4)
H3_3 H 0.839386 0.938681 0.412586
H4_3 H 0.875571 0.925513 0.378848
H5_3 H 0.871209 0.907341 0.316598
H6_3 H 0.837087 0.844257 0.29812
H7_3 H 0.725367 0.800153 0.270614
H8_3 H 0.746015 0.764817 0.2988
Se5_6 Se 0.26437(11) 0.17089(14) 0.33388(6)
C10_6 C 0.2237(12) 0.2515(14) 0.3866(6)
C11_6 C 0.3951(11) 0.2331(14) 0.2992(6)
C12_6 C 0.2284(12) 0.0478(15) 0.3832(6)
N4_6 N 0.1919(10) 0.2651(12) 0.3795(5)
N5_6 N 0.4132(10) 0.2386(12) 0.2660(5)
O9_6 O 0.0891(8) 0.1552(10) 0.3820(5)
O10_6 O 0.0433(10) 0.1646(13) 0.3039(5)
O11_6 O 0.0602(8) 0.2767(10) 0.2989(4)
N8_6 N 0.0947(7) 0.2535(10) 0.4327(5)
O14_6 O 0.1540(8) 0.2426(10) 0.2936(4)
H9_6 H 0.0361321 0.128791 0.316598
H10_6 H 0.00716989 0.162913 0.29812
H11_6 H 0.099295 0.160614 0.412586
H12_6 H 0.0499415 0.124429 0.378848
H13_6 H 0.0747861 0.274633 0.270614
H14_6 H 0.0188013 0.253985 0.2988
O6_7 O 0.2354(7) 0.0000 0.7500
O7_7 O 0.3349(10) 0.1270(6) 0.6993(4)
O8_7 O 0.2426(10) 0.0887(6) 0.7064(4)
C7_7 C 0.2877(14) 0.0889(8) 0.7116(6)
C8_7 C 0.2855(14) 0.0411(8) 0.7338(6)
C9_7 C 0.3265(14) 0.0265(8) 0.7395(6)
H2_7 H 0.3645 0.0474 0.7310
Re5_5 Re 0.55224(5) 0.02956(4) 0.80488(2)
Se6_5 Se 0.64251(14) 0.02778(11) 0.80273(6)
Se8_5 Se 0.46064(14) 0.02891(11) 0.80234(5)
C11_7 C 0.5665(14) 0.0617(11) 0.8674(6)
N5_7 N 0.5720(12) 0.0798(10) 0.9006(5)
Re7_5 Re 0.61045(5) 0.05068(4) 0.73448(2)
Re11_5 Re 0.51527(5) 0.05067(4) 0.73398(2)
Se11_5 Se 0.59994(14) 0.12537(11) 0.77160(6)
Gd4_7 Gd 0.42607(7) 0.19056(4) 0.68663(3)
Re1_3 Re 0.05068(4) 0.61045(3) 0.76552(2)
Re3_3 Re 0.05067(4) 0.51527(3) 0.76602(2)
Se1_4 Se 0.06897(11) 0.57319(8) 0.83278(6)
Se3_3 Se 0.12537(11) 0.59994(8) 0.72840(6)
C1_4 C 0.1097(12) 0.6945(8) 0.7800(6)
C3_4 C 0.1050(12) 0.4861(9) 0.7834(6)
N1_4 N 0.1415(10) 0.7399(7) 0.7871(5)
N3_4 N 0.1351(11) 0.4693(8) 0.7924(5)
Gd1_3 Gd 0.23552(6) 0.80944(4) 0.81337(3)
O1_4 O 0.2443(8) 0.7328(6) 0.7846(5)
O2_4 O 0.2901(10) 0.7880(8) 0.8627(5)
O3_4 O 0.2732(8) 0.8832(6) 0.8677(4)
O4_3 O 0.2080(8) 0.8730(6) 0.8007(4)
O5_7 O 0.1540(8) 0.9113(6) 0.7936(4)
C4_7 C 0.1989(12) 0.9111(8) 0.7884(6)
C5_7 C 0.2445(12) 0.9589(8) 0.7662(6)
C6_7 C 0.3001(12) 0.9735(8) 0.7605(6)
H1_7 H 0.3172 0.9526 0.7690
O6_8 O 0.2354(7) 1.0000 0.7500
Re4_5 Re 0.55978(5) 0.94932(4) 0.76552(2)
Re6_5 Re 0.46461(5) 0.94933(4) 0.76602(2)
Se5_7 Se 0.50423(14) 0.93103(11) 0.83278(6)
Se7_5 Se 0.47458(14) 0.87463(11) 0.72840(6)
C10_7 C 0.5849(14) 0.8903(12) 0.7800(6)
C12_7 C 0.3812(15) 0.8950(12) 0.7834(6)
N4_7 N 0.5985(12) 0.8585(10) 0.7871(5)
N6_4 N 0.3343(14) 0.8649(11) 0.7924(5)
Gd2_3 Gd 0.57393(7) 0.76448(6) 0.81337(3)
O9_7 O 0.4886(10) 0.7557(8) 0.7846(5)
O10_7 O 0.4980(13) 0.7099(10) 0.8627(5)
O11_7 O 0.6101(10) 0.7268(8) 0.8677(4)
Re9_5 Re 0.52267(5) 0.97044(4) 0.69512(2)
Re10_3 Re 0.02956(4) 0.55224(3) 0.69512(2)
Se9_5 Se 0.61472(14) 0.97222(11) 0.69727(6)
Se10_3 Se 0.02778(11) 0.64251(8) 0.69727(6)
Se13_5 Se 0.43172(14) 0.97109(11) 0.69766(5)
Se14_3 Se 0.02891(11) 0.46064(8) 0.69766(5)
N7_4 N 0.2386(12) 0.8255(7) 0.7340(5)
N8_7 N 0.5868(10) 0.7614(7) 0.7340(5)
N9_4 N 0.5307(13) 0.6657(7) 0.7924(5)
Gd3_3 Gd 0.19056(7) 0.42607(4) 0.81337(3)
O12_5 O 0.6651(10) 0.7920(8) 0.8007(4)
O13_4 O 0.1794(8) 0.7553(6) 0.8730(4)
O14_7 O 0.5760(10) 0.8206(8) 0.8730(4)
H3_4 H 0.234038 0.727986 0.75408
H4_4 H 0.283392 0.741154 0.787819
H5_4 H 0.297201 0.759325 0.850069
H6_4 H 0.326163 0.82241 0.868546
H7_4 H 0.258547 0.866514 0.896053
H8_4 H 0.314532 0.90185 0.867867
H9_7 H 0.462124 0.702799 0.850069
H10_7 H 0.496247 0.673837 0.868546
H11_7 H 0.493948 0.765962 0.75408
H12_7 H 0.457762 0.716608 0.787819
H13_7 H 0.607966 0.741453 0.896053
H14_7 H 0.587318 0.685468 0.867867
Re2_3 Re 0.97044(4) 0.52267(3) 0.80488(2)
Se2_3 Se 0.97222(11) 0.61472(8) 0.80273(6)
Se4_3 Se 0.97109(11) 0.43172(8) 0.80234(5)
C2_4 C 0.9383(11) 0.5047(8) 0.8674(6)
N2_4 N 0.9202(10) 0.4921(7) 0.9006(5)
Re8_3 Re 0.94932(4) 0.55978(3) 0.73448(2)
Re12_3 Re 0.94933(4) 0.46461(3) 0.73398(2)
Se12_3 Se 0.87463(11) 0.47458(8) 0.77160(6)
O5_8 O 0.7574(6) 0.8460(8) 0.7936(4)
C4_8 C 0.7123(9) 0.8011(12) 0.7884(6)
C5_8 C 0.7145(9) 0.7555(12) 0.7662(6)
C6_8 C 0.6735(9) 0.6999(12) 0.7605(6)
H1_8 H 0.6355 0.6828 0.7690
O6_9 O 0.7647(7) 0.7646(7) 0.7500
O7_8 O 0.7920(8) 0.6651(10) 0.6993(4)
O8_8 O 0.8460(8) 0.7574(10) 0.7064(4)
C7_8 C 0.8011(12) 0.7123(14) 0.7116(6)
C8_8 C 0.7555(12) 0.7145(14) 0.7338(6)
C9_8 C 0.6999(12) 0.6735(14) 0.7395(6)
H2_8 H 0.6828 0.6355 0.7310
Re4_6 Re 0.38955(3) 0.44022(5) 0.76552(2)
Re5_6 Re 0.47733(3) 0.44776(5) 0.80488(2)
Re6_6 Re 0.48473(3) 0.53539(5) 0.76602(2)
Se5_8 Se 0.42681(8) 0.49577(14) 0.83278(6)
Se6_6 Se 0.38528(8) 0.35749(14) 0.80273(6)
Se7_6 Se 0.40006(8) 0.52542(14) 0.72840(6)
Se8_6 Se 0.56828(8) 0.53936(14) 0.80234(5)
C10_8 C 0.3055(8) 0.4151(14) 0.7800(6)
C11_8 C 0.4953(8) 0.4335(14) 0.8674(6)
C12_8 C 0.5139(9) 0.6188(15) 0.7834(6)
N4_8 N 0.2601(7) 0.4015(12) 0.7871(5)
N5_8 N 0.5079(7) 0.4280(12) 0.9006(5)
O9_8 O 0.2672(6) 0.5114(10) 0.7846(5)
O10_8 O 0.2120(8) 0.5020(13) 0.8627(5)
O11_8 O 0.1168(6) 0.3899(10) 0.8677(4)
Re7_6 Re 0.44022(3) 0.38955(5) 0.73448(2)
Re9_6 Re 0.44776(3) 0.47733(5) 0.69512(2)
Re11_6 Re 0.53539(3) 0.48473(5) 0.73398(2)
Se9_6 Se 0.35749(8) 0.38528(14) 0.69727(6)
Se11_6 Se 0.52542(8) 0.40006(14) 0.77160(6)
Se13_6 Se 0.53936(8) 0.56828(14) 0.69766(5)
N8_8 N 0.1745(7) 0.4132(10) 0.7340(5)
Gd4_8 Gd 0.76448(6) 0.57393(7) 0.68663(3)
O12_6 O 0.1270(6) 0.3349(10) 0.8007(4)
O14_8 O 0.2447(6) 0.4240(10) 0.8730(4)
H9_8 H 0.240675 0.537876 0.850069
H10_8 H 0.17759 0.503753 0.868546
H11_8 H 0.272014 0.506052 0.75408
H12_8 H 0.258846 0.542238 0.787819
H13_8 H 0.133486 0.392034 0.896053
H14_8 H 0.09815 0.412682 0.867867
O5_9 O 0.0887(6) 0.2426(6) 0.7936(4)
C4_9 C 0.0889(8) 0.2877(9) 0.7884(6)
C5_9 C 0.0411(8) 0.2855(9) 0.7662(6)
C6_9 C 0.0265(8) 0.3265(9) 0.7605(6)
H1_9 H 0.0474 0.3645 0.7690
O6_10 O -0.0000 0.2353(7) 0.7500
O6_11 O 1.0000 0.2353(7) 0.7500
O7_9 O 0.8730(6) 0.2080(8) 0.6993(4)
O8_9 O 0.9113(6) 0.1540(8) 0.7064(4)
C7_9 C 0.9111(8) 0.1989(12) 0.7116(6)
C8_9 C 0.9589(8) 0.2445(12) 0.7338(6)
C9_9 C 0.9735(8) 0.3001(12) 0.7395(6)
H2_9 H 0.9526 0.3172 0.7310
Gd4_9 Gd 0.80944(4) 0.23552(6) 0.68663(3)
Se1_5 Se 0.49577(8) 0.42681(8) 0.66722(6)
C1_5 C 0.4151(9) 0.3055(8) 0.7200(6)
C2_5 C 0.4335(8) 0.4953(8) 0.6326(6)
C3_5 C 0.6188(8) 0.5139(9) 0.7166(6)
N1_5 N 0.4015(7) 0.2601(7) 0.7129(5)
N2_5 N 0.4280(7) 0.5079(7) 0.5994(5)
N3_5 N 0.6657(7) 0.5307(8) 0.7076(5)
O1_5 O 0.5114(6) 0.2672(6) 0.7154(5)
O2_5 O 0.5020(6) 0.2120(8) 0.6373(5)
O3_5 O 0.3899(6) 0.1168(6) 0.6323(4)
Se5_9 Se 0.57319(8) 0.06897(11) 0.66722(6)
C10_9 C 0.6945(8) 0.1097(12) 0.7200(6)
C12_9 C 0.4861(9) 0.1050(12) 0.7166(6)
N4_9 N 0.7399(7) 0.1415(10) 0.7129(5)
N6_5 N 0.4693(8) 0.1351(11) 0.7076(5)
O9_9 O 0.7328(6) 0.2443(8) 0.7154(5)
O10_9 O 0.7880(8) 0.2901(10) 0.6373(5)
O11_9 O 0.8832(6) 0.2732(8) 0.6323(4)
N7_5 N 0.4132(10) 0.1745(7) 0.7660(5)
N8_9 N 0.8255(7) 0.2386(7) 0.7660(5)
N9_5 N 0.8649(11) 0.3343(7) 0.7076(5)
O13_5 O 0.4240(6) 0.2447(6) 0.6270(4)
O14_9 O 0.7553(6) 0.1794(8) 0.6270(4)
H3_5 H 0.506052 0.272014 0.74592
H4_5 H 0.542238 0.258846 0.712181
H5_5 H 0.537876 0.240675 0.649931
H6_5 H 0.503753 0.17759 0.631454
H7_5 H 0.392034 0.133486 0.603947
H8_5 H 0.412682 0.09815 0.632133
H9_9 H 0.759325 0.297201 0.649931
H10_9 H 0.82241 0.326163 0.631454
H11_9 H 0.727986 0.234038 0.74592
H12_9 H 0.741154 0.283392 0.712181
H13_9 H 0.866514 0.258547 0.603947
H14_9 H 0.90185 0.314532 0.632133
C11_9 C 0.5047(8) 0.9383(11) 0.6326(6)
N5_9 N 0.4921(7) 0.9202(10) 0.5994(5)
C11_10 C 0.0617(11) 0.5665(14) 0.6326(6)
N5_10 N 0.0798(10) 0.5720(12) 0.5994(5)
Se5_10 Se 0.93103(11) 0.50423(14) 0.66722(6)
C10_10 C 0.8903(12) 0.5849(14) 0.7200(6)
C12_10 C 0.8950(12) 0.3812(15) 0.7166(6)
N4_10 N 0.8585(10) 0.5985(12) 0.7129(5)
O9_10 O 0.7557(8) 0.4886(10) 0.7154(5)
O10_10 O 0.7099(10) 0.4980(13) 0.6373(5)
O11_10 O 0.7268(8) 0.6101(10) 0.6323(4)
N8_10 N 0.7614(7) 0.5868(10) 0.7660(5)
O14_10 O 0.8206(8) 0.5760(10) 0.6270(4)
H9_10 H 0.702799 0.462124 0.649931
H10_10 H 0.673837 0.496247 0.631454
H11_10 H 0.765962 0.493948 0.74592
H12_10 H 0.716608 0.457762 0.712181
H13_10 H 0.741453 0.607966 0.603947
H14_10 H 0.685468 0.587318 0.632133
Se5_11 Se 0.17089(14) 0.26437(11) 0.16612(6)
C10_11 C 0.2515(14) 0.2237(12) 0.1134(6)
C11_11 C 0.2331(14) 0.3951(11) 0.2008(6)
C12_11 C 0.0478(15) 0.2284(12) 0.1168(6)
N4_11 N 0.2651(12) 0.1919(10) 0.1205(5)
N5_11 N 0.2386(12) 0.4132(10) 0.2340(5)
N6_6 N 0.0009(14) 0.1983(11) 0.1258(5)
O9_11 O 0.1552(10) 0.0891(8) 0.1180(5)
O10_11 O 0.1646(13) 0.0433(10) 0.1961(5)
O11_11 O 0.2767(10) 0.0602(8) 0.2011(4)
N8_11 N 0.2535(10) 0.0947(7) 0.0673(5)
O14_11 O 0.2426(10) 0.1540(8) 0.2064(4)
H9_11 H 0.128791 0.0361321 0.183402
H10_11 H 0.162913 0.00716989 0.20188
H11_11 H 0.160614 0.099295 0.0874138
H12_11 H 0.124429 0.0499415 0.121152
H13_11 H 0.274633 0.0747861 0.229386
H14_11 H 0.253985 0.0188013 0.2012
N9_6 N 0.1973(13) 0.9991(7) 0.1258(5)
C1_6 C 0.7763(12) 0.0279(8) 0.1134(6)
N1_6 N 0.8081(10) 0.0733(7) 0.1205(5)
O1_6 O 0.9109(8) 0.0662(6) 0.1180(5)
O2_6 O 0.9567(10) 0.1214(8) 0.1961(5)
O3_6 O 0.9398(8) 0.2166(6) 0.2011(4)
N7_6 N 0.9053(12) 0.1588(7) 0.0673(5)
O13_6 O 0.8460(8) 0.0887(6) 0.2064(4)
H3_6 H 0.900705 0.0613191 0.0874138
H4_6 H 0.950059 0.0744871 0.121152
H5_6 H 0.963868 0.0926588 0.183402
H6_6 H 0.99283 0.155743 0.20188
H7_6 H 0.925214 0.199847 0.229386
H8_6 H 0.981199 0.235183 0.2012
Se1_6 Se 0.73563(11) 0.90653(8) 0.16612(6)
C2_6 C 0.6049(11) 0.8381(8) 0.2008(6)
C3_6 C 0.7716(12) 0.8195(9) 0.1168(6)
N2_6 N 0.5868(10) 0.8255(7) 0.2340(5)
N3_6 N 0.8017(11) 0.8027(8) 0.1258(5)
Se5_12 Se 0.09347(8) 0.82911(14) 0.16612(6)
C11_12 C 0.1619(8) 0.7669(14) 0.2008(6)
C12_12 C 0.1805(9) 0.9522(15) 0.1168(6)
N5_12 N 0.1745(7) 0.7614(12) 0.2340(5)
C10_12 C 0.9721(8) 0.7485(14) 0.1134(6)
N4_12 N 0.9267(7) 0.7349(12) 0.1205(5)
O9_12 O 0.9338(6) 0.8448(10) 0.1180(5)
O10_12 O 0.8786(8) 0.8354(13) 0.1961(5)
O11_12 O 0.7834(6) 0.7233(10) 0.2011(4)
N8_12 N 0.8412(7) 0.7465(10) 0.0673(5)
O14_12 O 0.9113(6) 0.7574(10) 0.2064(4)
H9_12 H 0.907341 0.871209 0.183402
H10_12 H 0.844257 0.837087 0.20188
H11_12 H 0.938681 0.839386 0.0874138
H12_12 H 0.925513 0.875571 0.121152
H13_12 H 0.800153 0.725367 0.229386
H14_12 H 0.764817 0.746015 0.2012
C4_10 C 0.0456(9) 0.5778(8) 0.9551(6)
C5_10 C 0.0478(9) 0.6256(8) 0.9329(6)
C6_10 C 0.0068(9) 0.6402(8) 0.9272(6)
O6_12 O 0.0980(7) 0.6667 0.9167
O7_10 O 0.1254(8) 0.7936(6) 0.8659(4)
C7_10 C 0.1345(12) 0.7555(8) 0.8782(6)
C8_10 C 0.0889(12) 0.7077(8) 0.9004(6)
C9_10 C 0.0333(12) 0.6931(8) 0.9061(6)
H2_10 H 0.0162 0.7140 0.8976
C2_7 C 0.8998(8) 0.1714(8) 0.0341(6)
O2_7 O 0.8313(6) 0.4547(8) 0.0294(5)
O3_7 O 0.9434(6) 0.5499(6) 0.0344(4)
C11_13 C 0.8286(8) 0.7284(11) 0.0341(6)
O10_13 O 0.5453(8) 0.3766(10) 0.0294(5)
O11_13 O 0.4501(6) 0.3935(8) 0.0344(4)
H5_7 H 0.795458 0.425992 0.0167353
H6_7 H 0.82958 0.489077 0.035213
H7_7 H 0.9413 0.53318 0.0627194
H8_7 H 0.920651 0.568517 0.0345338
H9_13 H 0.574008 0.369465 0.0167353
H10_13 H 0.510923 0.340503 0.035213
H13_13 H 0.46682 0.408119 0.0627194
H14_13 H 0.431483 0.352135 0.0345338
Re1_4 Re 0.89311(3) 0.27712(3) 0.93219(2)
Re2_4 Re 0.88557(3) 0.18934(3) 0.97155(2)
Re3_4 Re 0.79794(3) 0.18194(3) 0.93269(2)
Se1_7 Se 0.83756(8) 0.23986(8) 0.99945(6)
Se2_4 Se 0.97584(8) 0.28139(8) 0.96940(6)
Se3_4 Se 0.80791(8) 0.26661(8) 0.89507(6)
Se4_4 Se 0.79397(8) 0.09839(8) 0.96901(5)
C1_7 C 0.9182(9) 0.3612(8) 0.9467(6)
C3_7 C 0.7145(8) 0.1528(9) 0.9501(6)
N1_7 N 0.9318(7) 0.4066(7) 0.9538(5)
N3_7 N 0.6676(7) 0.1360(8) 0.9591(5)
O1_7 O 0.8219(6) 0.3995(6) 0.9513(5)
O4_4 O 0.9984(6) 0.5397(6) 0.9674(4)
H1_10 H 0.9688 0.6193 0.9357
Re4_7 Re 0.72288(3) 0.61599(4) 0.93219(2)
Re5_7 Re 0.81066(3) 0.69623(4) 0.97155(2)
Re6_7 Re 0.81806(3) 0.61600(4) 0.93269(2)
Se5_13 Se 0.76014(8) 0.59770(11) 0.99945(6)
Se6_7 Se 0.71861(8) 0.69445(11) 0.96940(6)
Se7_7 Se 0.73339(8) 0.54130(11) 0.89507(6)
Se8_7 Se 0.90161(8) 0.69558(11) 0.96901(5)
C10_13 C 0.6388(8) 0.5570(12) 0.9467(6)
C12_13 C 0.8472(9) 0.5617(12) 0.9501(6)
N4_13 N 0.5934(7) 0.5252(10) 0.9538(5)
N6_7 N 0.8640(8) 0.5316(11) 0.9591(5)
O9_13 O 0.6005(6) 0.4224(8) 0.9513(5)
Re7_7 Re 0.77356(3) 0.71734(4) 0.90114(2)
Re8_4 Re 0.94379(3) 0.22644(3) 0.90114(2)
Re9_7 Re 0.78110(3) 0.63710(4) 0.86178(2)
Re10_4 Re 0.85601(3) 0.21890(3) 0.86178(2)
Re11_7 Re 0.86873(3) 0.71733(4) 0.90064(2)
Re12_4 Re 0.84861(3) 0.13127(3) 0.90064(2)
Se9_7 Se 0.69083(8) 0.63888(11) 0.86393(6)
Se10_4 Se 0.94806(8) 0.30917(8) 0.86393(6)
Se11_7 Se 0.85876(8) 0.79203(11) 0.93826(6)
Se12_4 Se 0.93328(8) 0.14124(8) 0.93826(6)
Se13_7 Se 0.87270(8) 0.63775(11) 0.86432(5)
Se14_4 Se 0.76506(8) 0.12730(8) 0.86432(5)
N9_7 N 0.4684(11) 0.3324(7) 0.9591(5)
O12_7 O 0.4603(6) 0.4587(8) 0.9674(4)
H3_7 H 0.827281 0.394652 0.920747
H4_7 H 0.791095 0.40782 0.954486
H11_13 H 0.605348 0.432628 0.920747
H12_13 H 0.59218 0.383275 0.954486
C11_14 C 0.2716(11) 0.1002(14) 0.0341(6)
O10_14 O 0.6234(10) 0.1687(13) 0.0294(5)
O11_14 O 0.6065(8) 0.0566(10) 0.0344(4)
H9_14 H 0.630535 0.204542 0.0167353
H10_14 H 0.659497 0.17042 0.035213
H13_14 H 0.591881 0.0587002 0.0627194
H14_14 H 0.647865 0.0793488 0.0345338
C4_11 C 0.4222(8) 0.4678(12) 0.9551(6)
C5_11 C 0.3744(8) 0.4222(12) 0.9329(6)
C6_11 C 0.3598(8) 0.3666(12) 0.9272(6)
H1_11 H 0.3807 0.3495 0.9357
O6_13 O 0.3333 0.4313(7) 0.9167
O7_11 O 0.2064(6) 0.3317(10) 0.8659(4)
C7_11 C 0.2445(8) 0.3789(14) 0.8782(6)
C8_11 C 0.2923(8) 0.3811(14) 0.9004(6)
C9_11 C 0.3069(8) 0.3401(14) 0.9061(6)
H2_11 H 0.2860 0.3021 0.8976
Re4_8 Re 0.38401(4) 0.10689(5) 0.93219(2)
Re5_8 Re 0.30377(4) 0.11443(5) 0.97155(2)
Re6_8 Re 0.38400(4) 0.20206(5) 0.93269(2)
Se5_14 Se 0.40230(11) 0.16244(14) 0.99945(6)
Se6_8 Se 0.30555(11) 0.02416(14) 0.96940(6)
Se7_8 Se 0.45870(11) 0.19209(14) 0.89507(6)
Se8_8 Se 0.30442(11) 0.20603(14) 0.96901(5)
C10_14 C 0.4430(12) 0.0818(14) 0.9467(6)
C12_14 C 0.4383(12) 0.2855(15) 0.9501(6)
N4_14 N 0.4748(10) 0.0682(12) 0.9538(5)
O9_14 O 0.5776(8) 0.1781(10) 0.9513(5)
Re7_8 Re 0.28266(4) 0.05621(5) 0.90114(2)
Re9_8 Re 0.36290(4) 0.14399(5) 0.86178(2)
Re11_8 Re 0.28267(4) 0.15139(5) 0.90064(2)
Se9_8 Se 0.36112(11) 0.05194(14) 0.86393(6)
Se11_8 Se 0.20797(11) 0.06672(14) 0.93826(6)
Se13_8 Se 0.36225(11) 0.23494(14) 0.86432(5)
O12_8 O 0.5413(8) 0.0016(10) 0.9674(4)
H11_14 H 0.567372 0.172719 0.920747
H12_14 H 0.616725 0.208905 0.954486
H1_12 H 0.6505 0.0312 0.9357
C4_12 C 0.5322(12) 0.9544(9) 0.9551(6)
C5_12 C 0.5778(12) 0.9522(9) 0.9329(6)
C6_12 C 0.6334(12) 0.9932(9) 0.9272(6)
O6_14 O 0.5687(7) 0.9020(7) 0.9167
O7_12 O 0.6683(10) 0.8746(8) 0.8659(4)
C7_12 C 0.6211(14) 0.8655(12) 0.8782(6)
C8_12 C 0.6189(14) 0.9111(12) 0.9004(6)
C9_12 C 0.6599(14) 0.9667(12) 0.9061(6)
H2_12 H 0.6979 0.9838 0.8976
Re1_5 Re 0.61599(4) 0.72288(3) 0.56781(2)
Re2_5 Re 0.69623(4) 0.81066(3) 0.52845(2)
Re3_5 Re 0.61600(4) 0.81806(3) 0.56731(2)
Se1_8 Se 0.59770(11) 0.76014(8) 0.50055(6)
Se2_5 Se 0.69445(11) 0.71861(8) 0.53060(6)
Se3_5 Se 0.54130(11) 0.73339(8) 0.60493(6)
Se4_5 Se 0.69558(11) 0.90161(8) 0.53099(5)
C1_8 C 0.5570(12) 0.6388(8) 0.5533(6)
C2_8 C 0.7284(11) 0.8286(8) 0.4659(6)
C3_8 C 0.5617(12) 0.8472(9) 0.5499(6)
N1_8 N 0.5252(10) 0.5934(7) 0.5462(5)
N3_8 N 0.5316(11) 0.8640(8) 0.5409(5)
O1_8 O 0.4224(8) 0.6005(6) 0.5487(5)
O2_8 O 0.3766(10) 0.5453(8) 0.4706(5)
O3_8 O 0.3935(8) 0.4501(6) 0.4656(4)
O4_5 O 0.4587(8) 0.4603(6) 0.5326(4)
C4_13 C 0.4678(12) 0.4222(8) 0.5449(6)
C5_13 C 0.4222(12) 0.3744(8) 0.5671(6)
C6_13 C 0.3666(12) 0.3598(8) 0.5728(6)
H1_13 H 0.3495 0.3807 0.5643
O6_15 O 0.4313(7) 0.3333 0.5833
O7_13 O 0.3317(10) 0.2064(6) 0.6341(4)
C7_13 C 0.3789(14) 0.2445(8) 0.6218(6)
C8_13 C 0.3811(14) 0.2923(8) 0.5996(6)
C9_13 C 0.3401(14) 0.3069(8) 0.5939(6)
H2_13 H 0.3021 0.2860 0.6024
Re4_9 Re 0.10689(5) 0.38401(4) 0.56781(2)
Re5_9 Re 0.11443(5) 0.30377(4) 0.52845(2)
Re6_9 Re 0.20206(5) 0.38400(4) 0.56731(2)
Se5_15 Se 0.16244(14) 0.40230(11) 0.50055(6)
Se6_9 Se 0.02416(14) 0.30555(11) 0.53060(6)
Se7_9 Se 0.19209(14) 0.45870(11) 0.60493(6)
Se8_9 Se 0.20603(14) 0.30442(11) 0.53099(5)
C10_15 C 0.0818(14) 0.4430(12) 0.5533(6)
C11_15 C 0.1002(14) 0.2716(11) 0.4659(6)
C12_15 C 0.2855(15) 0.4383(12) 0.5499(6)
N4_15 N 0.0682(12) 0.4748(10) 0.5462(5)
N6_8 N 0.3324(14) 0.4684(11) 0.5409(5)
O9_15 O 0.1781(10) 0.5776(8) 0.5487(5)
O10_15 O 0.1687(13) 0.6234(10) 0.4706(5)
O11_15 O 0.0566(10) 0.6065(8) 0.4656(4)
Re7_9 Re 0.05621(5) 0.28266(4) 0.59886(2)
Re8_5 Re 0.71734(4) 0.77356(3) 0.59886(2)
Re9_9 Re 0.14399(5) 0.36290(4) 0.63822(2)
Re10_5 Re 0.63710(4) 0.78110(3) 0.63822(2)
Re11_9 Re 0.15139(5) 0.28267(4) 0.59936(2)
Re12_5 Re 0.71733(4) 0.86873(3) 0.59936(2)
Se9_9 Se 0.05194(14) 0.36112(11) 0.63607(6)
Se10_5 Se 0.63888(11) 0.69083(8) 0.63607(6)
Se11_9 Se 0.06672(14) 0.20797(11) 0.56174(6)
Se12_5 Se 0.79203(11) 0.85876(8) 0.56174(6)
Se13_9 Se 0.23494(14) 0.36225(11) 0.63568(5)
Se14_5 Se 0.63775(11) 0.87270(8) 0.63568(5)
N9_8 N 0.1360(13) 0.6676(7) 0.5409(5)
O12_9 O 0.0016(10) 0.5413(8) 0.5326(4)
H3_8 H 0.432628 0.605348 0.579253
H4_8 H 0.383275 0.59218 0.545514
H5_8 H 0.369465 0.574008 0.483265
H6_8 H 0.340503 0.510923 0.464787
H7_8 H 0.408119 0.46682 0.437281
H8_8 H 0.352135 0.431483 0.465466
H9_15 H 0.204542 0.630535 0.483265
H10_15 H 0.17042 0.659497 0.464787
H11_15 H 0.172719 0.567372 0.579253
H12_15 H 0.208905 0.616725 0.545514
H13_15 H 0.0587002 0.591881 0.437281
H14_15 H 0.0793488 0.647865 0.465466
H1_14 H 0.0312 0.6505 0.5643
Re4_10 Re 0.27712(3) 0.89311(5) 0.56781(2)
Re5_10 Re 0.18934(3) 0.88557(5) 0.52845(2)
Re6_10 Re 0.18194(3) 0.79794(5) 0.56731(2)
Se5_16 Se 0.23986(8) 0.83756(14) 0.50055(6)
Se6_10 Se 0.28139(8) 0.97584(14) 0.53060(6)
Se7_10 Se 0.26661(8) 0.80791(14) 0.60493(6)
Se8_10 Se 0.09839(8) 0.79397(14) 0.53099(5)
C10_16 C 0.3612(8) 0.9182(14) 0.5533(6)
C11_16 C 0.1714(8) 0.8998(14) 0.4659(6)
C12_16 C 0.1528(9) 0.7145(15) 0.5499(6)
N4_16 N 0.4066(7) 0.9318(12) 0.5462(5)
O9_16 O 0.3995(6) 0.8219(10) 0.5487(5)
O10_16 O 0.4547(8) 0.8313(13) 0.4706(5)
O11_16 O 0.5499(6) 0.9434(10) 0.4656(4)
Re7_10 Re 0.22644(3) 0.94379(5) 0.59886(2)
Re9_10 Re 0.21890(3) 0.85601(5) 0.63822(2)
Re11_10 Re 0.13127(3) 0.84861(5) 0.59936(2)
Se9_10 Se 0.30917(8) 0.94806(14) 0.63607(6)
Se11_10 Se 0.14124(8) 0.93328(14) 0.56174(6)
Se13_10 Se 0.12730(8) 0.76506(14) 0.63568(5)
O12_10 O 0.5397(6) 0.9984(10) 0.5326(4)
H9_16 H 0.425992 0.795458 0.483265
H10_16 H 0.489077 0.82958 0.464787
H11_16 H 0.394652 0.827281 0.579253
H12_16 H 0.40782 0.791095 0.545514
H13_16 H 0.53318 0.9413 0.437281
H14_16 H 0.568517 0.920651 0.465466
C4_14 C 0.9544(9) 0.5322(12) 0.5449(6)
C5_14 C 0.9522(9) 0.5778(12) 0.5671(6)
C6_14 C 0.9932(9) 0.6334(12) 0.5728(6)
O6_16 O 0.9020(7) 0.5687(7) 0.5833
O7_14 O 0.8746(8) 0.6683(10) 0.6341(4)
C7_14 C 0.8655(12) 0.6211(14) 0.6218(6)
C8_14 C 0.9111(12) 0.6189(14) 0.5996(6)
C9_14 C 0.9667(12) 0.6599(14) 0.5939(6)
H2_14 H 0.9838 0.6979 0.6024
C4_15 C 0.5778(8) 0.0456(9) 0.5449(6)
C5_15 C 0.6256(8) 0.0478(9) 0.5671(6)
C6_15 C 0.6402(8) 0.0068(9) 0.5728(6)
O6_17 O 0.6667 0.0980(7) 0.5833
O7_15 O 0.7936(6) 0.1254(8) 0.6341(4)
C7_15 C 0.7555(8) 0.1345(12) 0.6218(6)
C8_15 C 0.7077(8) 0.0889(12) 0.5996(6)
C9_15 C 0.6931(8) 0.0333(12) 0.5939(6)
H2_15 H 0.7140 0.0162 0.6024
H1_15 H 0.6193 0.9688 0.5643
C1_9 C 0.2515(9) 0.0279(8) 0.6134(6)
N1_9 N 0.2651(7) 0.0733(7) 0.6205(5)
O1_9 O 0.1552(6) 0.0662(6) 0.6180(5)
O2_9 O 0.1646(6) 0.1214(8) 0.6961(5)
O3_9 O 0.2767(6) 0.2166(6) 0.7011(4)
Se5_17 Se 0.09347(8) 0.26437(11) 0.66612(6)
C11_17 C 0.1619(8) 0.3951(11) 0.7008(6)
C12_17 C 0.1805(9) 0.2284(12) 0.6168(6)
N6_9 N 0.1973(8) 0.1983(11) 0.6258(5)
H3_9 H 0.160614 0.0613191 0.587414
H4_9 H 0.124429 0.0744871 0.621152
H5_9 H 0.128791 0.0926588 0.683402
H6_9 H 0.162913 0.155743 0.70188
H7_9 H 0.274633 0.199847 0.729386
H8_9 H 0.253985 0.235183 0.7012
Se1_9 Se 0.17089(8) 0.90653(8) 0.66612(6)
C2_9 C 0.2331(8) 0.8381(8) 0.7008(6)
C3_9 C 0.0478(8) 0.8195(9) 0.6168(6)
N3_9 N 0.0009(7) 0.8027(8) 0.6258(5)
C10_17 C 0.9721(8) 0.2237(12) 0.6134(6)
N4_17 N 0.9267(7) 0.1919(10) 0.6205(5)
O9_17 O 0.9338(6) 0.0891(8) 0.6180(5)
O10_17 O 0.8786(8) 0.0433(10) 0.6961(5)
O11_17 O 0.7834(6) 0.0602(8) 0.7011(4)
H9_17 H 0.907341 0.0361321 0.683402
H10_17 H 0.844257 0.00716989 0.70188
H11_17 H 0.938681 0.099295 0.587414
H12_17 H 0.925513 0.0499415 0.621152
H13_17 H 0.800153 0.0747861 0.729386
H14_17 H 0.764817 0.0188013 0.7012
N9_9 N 0.8017(11) 0.9991(7) 0.6258(5)
Se5_18 Se 0.73563(11) 0.82911(14) 0.66612(6)
C10_18 C 0.7763(12) 0.7485(14) 0.6134(6)
C11_18 C 0.6049(11) 0.7669(14) 0.7008(6)
C12_18 C 0.7716(12) 0.9522(15) 0.6168(6)
N4_18 N 0.8081(10) 0.7349(12) 0.6205(5)
O9_18 O 0.9109(8) 0.8448(10) 0.6180(5)
O10_18 O 0.9567(10) 0.8354(13) 0.6961(5)
O11_18 O 0.9398(8) 0.7233(10) 0.7011(4)
H9_18 H 0.963868 0.871209 0.683402
H10_18 H 0.99283 0.837087 0.70188
H11_18 H 0.900705 0.839386 0.587414
H12_18 H 0.950059 0.875571 0.621152
H13_18 H 0.925214 0.725367 0.729386
H14_18 H 0.981199 0.746015 0.7012
Re2_6 Re 0.02956(4) 0.47733(3) 0.19512(2)
Se2_6 Se 0.02778(11) 0.38528(8) 0.19727(6)
Se4_6 Se 0.02891(11) 0.56828(8) 0.19766(5)
C2_10 C 0.0617(11) 0.4953(8) 0.1326(6)
Re8_6 Re 0.05068(4) 0.44022(3) 0.26552(2)
Re12_6 Re 0.05067(4) 0.53539(3) 0.26602(2)
Se12_6 Se 0.12537(11) 0.52542(8) 0.22840(6)
Re1_6 Re 0.94932(4) 0.38955(3) 0.23448(2)
Re3_6 Re 0.94933(4) 0.48473(3) 0.23398(2)
Se1_10 Se 0.93103(11) 0.42681(8) 0.16722(6)
Se3_6 Se 0.87463(11) 0.40006(8) 0.27160(6)
C1_10 C 0.8903(12) 0.3055(8) 0.2200(6)
C3_10 C 0.8950(12) 0.5139(9) 0.2166(6)
N1_10 N 0.8585(10) 0.2601(7) 0.2129(5)
N3_10 N 0.8649(11) 0.5307(8) 0.2076(5)
O1_10 O 0.7557(8) 0.2672(6) 0.2154(5)
O2_10 O 0.7099(10) 0.2120(8) 0.1373(5)
O3_10 O 0.7268(8) 0.1168(6) 0.1323(4)
O4_6 O 0.7920(8) 0.1270(6) 0.1993(4)
C4_16 C 0.8011(12) 0.0889(8) 0.2116(6)
C5_16 C 0.7555(12) 0.0411(8) 0.2338(6)
C6_16 C 0.6999(12) 0.0265(8) 0.2395(6)
H1_16 H 0.6828 0.0474 0.2310
O6_18 O 0.7646(7) -0.0000 0.2500
Re4_11 Re 0.44022(5) 0.05068(4) 0.23448(2)
Re6_11 Re 0.53539(5) 0.05067(4) 0.23398(2)
Se5_19 Se 0.49577(14) 0.06897(11) 0.16722(6)
Se7_11 Se 0.52542(14) 0.12537(11) 0.27160(6)
C10_19 C 0.4151(14) 0.1097(12) 0.2200(6)
C12_19 C 0.6188(15) 0.1050(12) 0.2166(6)
N4_19 N 0.4015(12) 0.1415(10) 0.2129(5)
N6_10 N 0.6657(14) 0.1351(11) 0.2076(5)
O9_19 O 0.5114(10) 0.2443(8) 0.2154(5)
O10_19 O 0.5020(13) 0.2901(10) 0.1373(5)
O11_19 O 0.3899(10) 0.2732(8) 0.1323(4)
Re9_11 Re 0.47733(5) 0.02956(4) 0.30488(2)
Re10_6 Re 0.97044(4) 0.44776(3) 0.30488(2)
Se9_11 Se 0.38528(14) 0.02778(11) 0.30273(6)
Se10_6 Se 0.97222(11) 0.35749(8) 0.30273(6)
Se13_11 Se 0.56828(14) 0.02891(11) 0.30234(5)
Se14_6 Se 0.97109(11) 0.53936(8) 0.30234(5)
N9_10 N 0.4693(13) 0.3343(7) 0.2076(5)
O12_11 O 0.3349(10) 0.2080(8) 0.1993(4)
H3_10 H 0.765962 0.272014 0.24592
H4_10 H 0.716608 0.258846 0.212181
H5_10 H 0.702799 0.240675 0.149931
H6_10 H 0.673837 0.17759 0.131454
H7_10 H 0.741453 0.133486 0.103947
H8_10 H 0.685468 0.09815 0.132133
H9_19 H 0.537876 0.297201 0.149931
H10_19 H 0.503753 0.326163 0.131454
H11_19 H 0.506052 0.234038 0.24592
H12_19 H 0.542238 0.283392 0.212181
H13_19 H 0.392034 0.258547 0.103947
H14_19 H 0.412682 0.314532 0.132133
O6_19 O 0.7646(7) 1.0000 0.2500
O7_16 O 0.6651(10) 0.8730(6) 0.3007(4)
C7_16 C 0.7123(14) 0.9111(8) 0.2884(6)
C8_16 C 0.7145(14) 0.9589(8) 0.2662(6)
C9_16 C 0.6735(14) 0.9735(8) 0.2605(6)
H2_16 H 0.6355 0.9526 0.2690
Re5_11 Re 0.44776(5) 0.97044(4) 0.19512(2)
Se6_11 Se 0.35749(14) 0.97222(11) 0.19727(6)
Se8_11 Se 0.53936(14) 0.97109(11) 0.19766(5)
C11_19 C 0.4335(14) 0.9383(11) 0.1326(6)
Re7_11 Re 0.38955(5) 0.94932(4) 0.26552(2)
Re11_11 Re 0.48473(5) 0.94933(4) 0.26602(2)
Se11_11 Se 0.40006(14) 0.87463(11) 0.22840(6)
C4_17 C 0.2877(9) 0.1989(12) 0.2116(6)
C5_17 C 0.2855(9) 0.2445(12) 0.2338(6)
C6_17 C 0.3265(9) 0.3001(12) 0.2395(6)
H1_17 H 0.3645 0.3172 0.2310
O6_20 O 0.2353(7) 0.2354(7) 0.2500
O7_17 O 0.2080(8) 0.3349(10) 0.3007(4)
C7_17 C 0.1989(12) 0.2877(14) 0.2884(6)
C8_17 C 0.2445(12) 0.2855(14) 0.2662(6)
C9_17 C 0.3001(12) 0.3265(14) 0.2605(6)
H2_17 H 0.3172 0.3645 0.2690
Re4_12 Re 0.61045(3) 0.55978(5) 0.23448(2)
Re5_12 Re 0.52267(3) 0.55224(5) 0.19512(2)
Re6_12 Re 0.51527(3) 0.46461(5) 0.23398(2)
Se5_20 Se 0.57319(8) 0.50423(14) 0.16722(6)
Se6_12 Se 0.61472(8) 0.64251(14) 0.19727(6)
Se7_12 Se 0.59994(8) 0.47458(14) 0.27160(6)
Se8_12 Se 0.43172(8) 0.46064(14) 0.19766(5)
C10_20 C 0.6945(8) 0.5849(14) 0.2200(6)
C11_20 C 0.5047(8) 0.5665(14) 0.1326(6)
C12_20 C 0.4861(9) 0.3812(15) 0.2166(6)
N4_20 N 0.7399(7) 0.5985(12) 0.2129(5)
O9_20 O 0.7328(6) 0.4886(10) 0.2154(5)
O10_20 O 0.7880(8) 0.4980(13) 0.1373(5)
O11_20 O 0.8832(6) 0.6101(10) 0.1323(4)
Re7_12 Re 0.55978(3) 0.61045(5) 0.26552(2)
Re9_12 Re 0.55224(3) 0.52267(5) 0.30488(2)
Re11_12 Re 0.46461(3) 0.51527(5) 0.26602(2)
Se9_12 Se 0.64251(8) 0.61472(14) 0.30273(6)
Se11_12 Se 0.47458(8) 0.59994(14) 0.22840(6)
Se13_12 Se 0.46064(8) 0.43172(14) 0.30234(5)
O12_12 O 0.8730(6) 0.6651(10) 0.1993(4)
H9_20 H 0.759325 0.462124 0.149931
H10_20 H 0.82241 0.496247 0.131454
H11_20 H 0.727986 0.493948 0.24592
H12_20 H 0.741154 0.457762 0.212181
H13_20 H 0.866514 0.607966 0.103947
H14_20 H 0.90185 0.587318 0.132133
O6_21 O 0.0000 0.7647(7) 0.2500
O7_18 O 0.1270(6) 0.7920(8) 0.3007(4)
C7_18 C 0.0889(8) 0.8011(12) 0.2884(6)
C8_18 C 0.0411(8) 0.7555(12) 0.2662(6)
C9_18 C 0.0265(8) 0.6999(12) 0.2605(6)
H2_18 H 0.0474 0.6828 0.2690
C4_18 C 0.9111(8) 0.7123(9) 0.2116(6)
C5_18 C 0.9589(8) 0.7145(9) 0.2338(6)
C6_18 C 0.9735(8) 0.6735(9) 0.2395(6)
H1_18 H 0.9526 0.6355 0.2310
O6_22 O 1.0000 0.7647(7) 0.2500
C11_21 C 0.4953(8) 0.0617(11) 0.3674(6)
Se1_11 Se 0.50423(8) 0.57319(8) 0.33278(6)
C1_11 C 0.5849(9) 0.6945(8) 0.2800(6)
C2_11 C 0.5665(8) 0.5047(8) 0.3674(6)
C3_11 C 0.3812(8) 0.4861(9) 0.2834(6)
N1_11 N 0.5985(7) 0.7399(7) 0.2871(5)
N3_11 N 0.3343(7) 0.4693(8) 0.2924(5)
O1_11 O 0.4886(6) 0.7328(6) 0.2846(5)
O2_11 O 0.4980(6) 0.7880(8) 0.3627(5)
O3_11 O 0.6101(6) 0.8832(6) 0.3677(4)
Se5_21 Se 0.42681(8) 0.93103(11) 0.33278(6)
C10_21 C 0.3055(8) 0.8903(12) 0.2800(6)
C12_21 C 0.5139(9) 0.8950(12) 0.2834(6)
N4_21 N 0.2601(7) 0.8585(10) 0.2871(5)
N6_11 N 0.5307(8) 0.8649(11) 0.2924(5)
O9_21 O 0.2672(6) 0.7557(8) 0.2846(5)
O10_21 O 0.2120(8) 0.7099(10) 0.3627(5)
O11_21 O 0.1168(6) 0.7268(8) 0.3677(4)
N9_11 N 0.1351(11) 0.6657(7) 0.2924(5)
H3_11 H 0.493948 0.727986 0.25408
H4_11 H 0.457762 0.741154 0.287819
H5_11 H 0.462124 0.759325 0.350069
H6_11 H 0.496247 0.82241 0.368546
H7_11 H 0.607966 0.866514 0.396053
H8_11 H 0.587318 0.90185 0.367867
H9_21 H 0.240675 0.702799 0.350069
H10_21 H 0.17759 0.673837 0.368546
H11_21 H 0.272014 0.765962 0.25408
H12_21 H 0.258846 0.716608 0.287819
H13_21 H 0.133486 0.741453 0.396053
H14_21 H 0.09815 0.685468 0.367867
Se5_22 Se 0.06897(11) 0.49577(14) 0.33278(6)
C10_22 C 0.1097(12) 0.4151(14) 0.2800(6)
C12_22 C 0.1050(12) 0.6188(15) 0.2834(6)
N4_22 N 0.1415(10) 0.4015(12) 0.2871(5)
O9_22 O 0.2443(8) 0.5114(10) 0.2846(5)
O10_22 O 0.2901(10) 0.5020(13) 0.3627(5)
O11_22 O 0.2732(8) 0.3899(10) 0.3677(4)
H9_22 H 0.297201 0.537876 0.350069
H10_22 H 0.326163 0.503753 0.368546
H11_22 H 0.234038 0.506052 0.25408
H12_22 H 0.283392 0.542238 0.287819
H13_22 H 0.258547 0.392034 0.396053
H14_22 H 0.314532 0.412682 0.367867
C11_22 C 0.9383(11) 0.4335(14) 0.3674(6)
Se1_12 Se 0.26437(11) 0.09347(8) 0.83388(6)
C2_12 C 0.3951(11) 0.1619(8) 0.7992(6)
C3_12 C 0.2284(12) 0.1805(9) 0.8832(6)
N3_12 N 0.1983(11) 0.1973(8) 0.8742(5)
C1_12 C 0.2237(12) 0.9721(8) 0.8866(6)
N1_12 N 0.1919(10) 0.9267(7) 0.8795(5)
O1_12 O 0.0891(8) 0.9338(6) 0.8820(5)
O2_12 O 0.0433(10) 0.8786(8) 0.8039(5)
O3_12 O 0.0602(8) 0.7834(6) 0.7989(4)
H3_12 H 0.099295 0.938681 0.912586
H4_12 H 0.0499415 0.925513 0.878848
H5_12 H 0.0361321 0.907341 0.816598
H6_12 H 0.00716989 0.844257 0.79812
H7_12 H 0.0747861 0.800153 0.770614
H8_12 H 0.0188013 0.764817 0.7988
N9_12 N 0.8027(13) 0.0009(7) 0.8742(5)
Se5_23 Se 0.82911(14) 0.73563(11) 0.83388(6)
C10_23 C 0.7485(14) 0.7763(12) 0.8866(6)
C11_23 C 0.7669(14) 0.6049(11) 0.7992(6)
C12_23 C 0.9522(15) 0.7716(12) 0.8832(6)
N4_23 N 0.7349(12) 0.8081(10) 0.8795(5)
N6_12 N 0.9991(14) 0.8017(11) 0.8742(5)
O9_23 O 0.8448(10) 0.9109(8) 0.8820(5)
O10_23 O 0.8354(13) 0.9567(10) 0.8039(5)
O11_23 O 0.7233(10) 0.9398(8) 0.7989(4)
H9_23 H 0.871209 0.963868 0.816598
H10_23 H 0.837087 0.99283 0.79812
H11_23 H 0.839386 0.900705 0.912586
H12_23 H 0.875571 0.950059 0.878848
H13_23 H 0.725367 0.925214 0.770614
H14_23 H 0.746015 0.981199 0.7988
C10_24 C 0.0279(8) 0.2515(14) 0.8866(6)
N4_24 N 0.0733(7) 0.2651(12) 0.8795(5)
O9_24 O 0.0662(6) 0.1552(10) 0.8820(5)
O10_24 O 0.1214(8) 0.1646(13) 0.8039(5)
O11_24 O 0.2166(6) 0.2767(10) 0.7989(4)
H9_24 H 0.0926588 0.128791 0.816598
H10_24 H 0.155743 0.162913 0.79812
H11_24 H 0.0613191 0.160614 0.912586
H12_24 H 0.0744871 0.124429 0.878848
H13_24 H 0.199847 0.274633 0.770614
H14_24 H 0.235183 0.253985 0.7988
Se5_24 Se 0.90653(8) 0.17089(14) 0.83388(6)
C11_24 C 0.8381(8) 0.2331(14) 0.7992(6)
C12_24 C 0.8195(9) 0.0478(15) 0.8832(6)
loop_
_geom_bond_atom_site_label_1
_geom_bond_atom_site_label_2
_geom_bond_site_symmetry_1
_geom_bond_site_symmetry_2
Re1 Re2 1_555 1_555
Re2 Re3 1_555 1_555
Re3 Re1 1_555 1_555
Se1 Re1 1_555 1_555
Se2 Re1 1_555 1_555
Se3 Re1 1_555 1_555
Se4 Re2 1_555 1_555
C1 Re1 1_555 1_555
C3 Re3 1_555 1_555
N1 C1 1_555 1_555
N3 C3 1_555 1_555
Gd1 N1 1_555 1_555
O1 Gd1 1_555 1_555
O4 Gd1 1_555 1_555
Re4 Re5 1_555 1_555
Re5 Re6 1_555 1_555
Re6 Re4 1_555 1_555
Se5 Re4 1_555 1_555
Se6 Re4 1_555 1_555
Se7 Re4 1_555 1_555
Se8 Re5 1_555 1_555
C10 Re4 1_555 1_555
C12 Re6 1_555 1_555
N4 C10 1_555 1_555
N6 Gd1 1_555 1_555
Gd2 N4 1_555 1_555
O9 Gd2 1_555 1_555
Re7 Re4 1_555 1_555
Re8 Re1 1_555 1_555
Re9 Re4 1_555 1_555
Re10 Re1 1_555 1_555
Re11 Re5 1_555 1_555
Re12 Re2 1_555 1_555
Se9 Re4 1_555 1_555
Se10 Re1 1_555 1_555
Se11 Re5 1_555 1_555
Se12 Re2 1_555 1_555
Se13 Re6 1_555 1_555
Se14 Re3 1_555 1_555
N7 Gd1 1_555 1_555
N8 Gd2 1_555 1_555
N9 Gd2 1_555 1_555
Gd3 N3 1_555 1_555
O12 Gd2 1_555 1_555
Re2 Se1 1_555 1_555
Re2 Se2 1_555 1_555
Re2 Re8 1_555 1_555
Re3 Se1 1_555 1_555
Re3 Se3 1_555 1_555
Re3 Se4 1_555 1_555
Re3 Re10 1_555 1_555
Re3 Re12 1_555 1_555
Se2 Re8 1_555 1_555
Se3 Re10 1_555 1_555
Se4 Re12 1_555 1_555
Re5 Se5 1_555 1_555
Re5 Se6 1_555 1_555
Re5 Re7 1_555 1_555
Re6 Se5 1_555 1_555
Re6 Se7 1_555 1_555
Re6 Se8 1_555 1_555
Re6 Re9 1_555 1_555
Re6 Re11 1_555 1_555
Se6 Re7 1_555 1_555
Se7 Re9 1_555 1_555
Se8 Re11 1_555 1_555
C12 N6 1_555 1_555
Re7 Re9 1_555 1_555
Re7 Re11 1_555 1_555
Re7 Se9 1_555 1_555
Re7 Se11 1_555 1_555
Re8 Re10 1_555 1_555
Re8 Re12 1_555 1_555
Re8 Se10 1_555 1_555
Re8 Se12 1_555 1_555
Re9 Re11 1_555 1_555
Re9 Se9 1_555 1_555
Re9 Se13 1_555 1_555
Re10 Re12 1_555 1_555
Re10 Se10 1_555 1_555
Re10 Se14 1_555 1_555
Re11 Se11 1_555 1_555
Re11 Se13 1_555 1_555
Re12 Se12 1_555 1_555
Re12 Se14 1_555 1_555
O1 H3 1_555 1_555
O1 H4 1_555 1_555
O9 H11 1_555 1_555
O9 H12 1_555 1_555
N2 C2 1_555 1_555
N5 C11 1_555 1_555
Gd6 N2 1_555 1_555
Gd7 N5 1_555 1_555
O2 H5 1_555 1_555
O2 H6 1_555 1_555
O3 H7 1_555 1_555
O3 H8 1_555 1_555
O10 H9 1_555 1_555
O10 H10 1_555 1_555
O11 H13 1_555 1_555
O11 H14 1_555 1_555
O5 C4 1_555 1_555
C5 C4 1_555 1_555
C6 C5 1_555 1_555
O6 C5 1_555 1_555
O7 C7 1_555 1_555
O8 C7 1_555 1_555
C7 C8 1_555 1_555
C8 O6 1_555 1_555
C9 C6 1_555 1_555
H2 C9 1_555 1_555
Gd4 O7 1_555 1_555
Gd8 O8 1_555 1_555
C8 C9 1_555 1_555
O5_2 C4_2 1_555 1_555
C4_2 O12 1_555 1_555
C5_2 C4_2 1_555 1_555
C6_2 C5_2 1_555 1_555
H1_2 C6_2 1_555 1_555
O6_2 C5_2 1_555 1_555
O7_2 C7_2 1_555 1_555
O8_2 C7_2 1_555 1_555
C7_2 C8_2 1_555 1_555
C8_2 O6_2 1_555 1_555
C9_2 C6_2 1_555 1_555
H2_2 C9_2 1_555 1_555
Re4_2 Re5_2 1_555 1_555
Re5_2 Re6_2 1_555 1_555
Re6_2 Re4_2 1_555 1_555
Se5_2 Re4_2 1_555 1_555
Se6_2 Re4_2 1_555 1_555
Se7_2 Re4_2 1_555 1_555
Se8_2 Re5_2 1_555 1_555
C10_2 Re4_2 1_555 1_555
C12_2 Re6_2 1_555 1_555
N4_2 C10_2 1_555 1_555
Gd3 N4_2 1_555 1_555
O9_2 Gd3 1_555 1_555
Re7_2 Re4_2 1_555 1_555
Re9_2 Re4_2 1_555 1_555
Re11_2 Re5_2 1_555 1_555
Se9_2 Re4_2 1_555 1_555
Se11_2 Re5_2 1_555 1_555
Se13_2 Re6_2 1_555 1_555
N8_2 Gd3 1_555 1_555
Gd4_2 O7_2 1_555 1_555
Gd8_2 O8_2 1_555 1_555
O12_2 Gd3 1_555 1_555
C8_2 C9_2 1_555 1_555
Re5_2 Se5_2 1_555 1_555
Re5_2 Se6_2 1_555 1_555
Re5_2 Re7_2 1_555 1_555
Re6_2 Se5_2 1_555 1_555
Re6_2 Se7_2 1_555 1_555
Re6_2 Se8_2 1_555 1_555
Re6_2 Re9_2 1_555 1_555
Re6_2 Re11_2 1_555 1_555
Se6_2 Re7_2 1_555 1_555
Se7_2 Re9_2 1_555 1_555
Se8_2 Re11_2 1_555 1_555
C12_2 N9 1_555 1_555
Re7_2 Re9_2 1_555 1_555
Re7_2 Re11_2 1_555 1_555
Re7_2 Se9_2 1_555 1_555
Re7_2 Se11_2 1_555 1_555
Re9_2 Re11_2 1_555 1_555
Re9_2 Se9_2 1_555 1_555
Re9_2 Se13_2 1_555 1_555
Re11_2 Se11_2 1_555 1_555
Re11_2 Se13_2 1_555 1_555
O9_2 H11_2 1_555 1_555
O9_2 H12_2 1_555 1_555
N5_2 C11_2 1_555 1_555
Gd7_2 N5_2 1_555 1_555
O10_2 H9_2 1_555 1_555
O10_2 H10_2 1_555 1_555
O11_2 H13_2 1_555 1_555
O11_2 H14_2 1_555 1_555
O5_3 C4_3 1_555 1_555
C5_3 C4_3 1_555 1_555
C6_3 C5_3 1_555 1_555
O6_3 C5_3 1_555 1_555
O7_3 C7_3 1_555 1_555
O8_3 C7_3 1_555 1_555
C7_3 C8_3 1_555 1_555
C8_3 O6_3 1_555 1_555
C9_3 C6_3 1_555 1_555
H2_3 C9_3 1_555 1_555
Gd4_3 O7_3 1_555 1_555
Gd8_3 O8_3 1_555 1_555
C8_3 C9_3 1_555 1_555
Re1_2 Re2_2 1_555 1_555
Re2_2 Re3_2 1_555 1_555
Re3_2 Re1_2 1_555 1_555
Se1_2 Re1_2 1_555 1_555
Se2_2 Re1_2 1_555 1_555
Se3_2 Re1_2 1_555 1_555
Se4_2 Re2_2 1_555 1_555
C1_2 Re1_2 1_555 1_555
C2_2 Re2_2 1_555 1_555
C3_2 Re3_2 1_555 1_555
N1_2 C1_2 1_555 1_555
N2_2 C2_2 1_555 1_555
N3_2 C3_2 1_555 1_555
Gd1_2 N1_2 1_555 1_555
O1_2 Gd1_2 1_555 1_555
O2_2 Gd1_2 1_555 1_555
O3_2 Gd1_2 1_555 1_555
O4_2 Gd1_2 1_555 1_555
O5_4 C4_4 1_555 1_555
C4_4 O4_2 1_555 1_555
C5_4 C4_4 1_555 1_555
C6_4 C5_4 1_555 1_555
H1_4 C6_4 1_555 1_555
O6_4 C5_4 1_555 1_555
O7_4 C7_4 1_555 1_555
O8_4 C7_4 1_555 1_555
C7_4 C8_4 1_555 1_555
C8_4 O6_4 1_555 1_555
C9_4 C6_4 1_555 1_555
H2_4 C9_4 1_555 1_555
Re4_3 Re5_3 1_555 1_555
Re5_3 Re6_3 1_555 1_555
Re6_3 Re4_3 1_555 1_555
Se5_3 Re4_3 1_555 1_555
Se6_3 Re4_3 1_555 1_555
Se7_3 Re4_3 1_555 1_555
Se8_3 Re5_3 1_555 1_555
C10_3 Re4_3 1_555 1_555
C11_3 Re5_3 1_555 1_555
C12_3 Re6_3 1_555 1_555
N4_3 C10_3 1_555 1_555
N5_3 C11_3 1_555 1_555
N6_2 Gd1_2 1_555 1_555
Gd2_2 N4_3 1_555 1_555
O9_3 Gd2_2 1_555 1_555
O10_3 Gd2_2 1_555 1_555
O11_3 Gd2_2 1_555 1_555
Re7_3 Re4_3 1_555 1_555
Re8_2 Re1_2 1_555 1_555
Re9_3 Re4_3 1_555 1_555
Re10_2 Re1_2 1_555 1_555
Re11_3 Re5_3 1_555 1_555
Re12_2 Re2_2 1_555 1_555
Se9_3 Re4_3 1_555 1_555
Se10_2 Re1_2 1_555 1_555
Se11_3 Re5_3 1_555 1_555
Se12_2 Re2_2 1_555 1_555
Se13_3 Re6_3 1_555 1_555
Se14_2 Re3_2 1_555 1_555
N7_2 Gd1_2 1_555 1_555
N8_3 Gd2_2 1_555 1_555
N9_2 Gd2_2 1_555 1_555
Gd3_2 N3_2 1_555 1_555
Gd4_4 O7_4 1_555 1_555
Gd5_4 O5_4 1_555 1_555
Gd6_2 N2_2 1_555 1_555
Gd7_3 N5_3 1_555 1_555
Gd8_4 O8_4 1_555 1_555
O12_3 Gd2_2 1_555 1_555
O13_2 Gd1_2 1_555 1_555
O14_3 Gd2_2 1_555 1_555
Re2_2 Se1_2 1_555 1_555
Re2_2 Se2_2 1_555 1_555
Re2_2 Re8_2 1_555 1_555
Re3_2 Se1_2 1_555 1_555
Re3_2 Se3_2 1_555 1_555
Re3_2 Se4_2 1_555 1_555
Re3_2 Re10_2 1_555 1_555
Re3_2 Re12_2 1_555 1_555
Se2_2 Re8_2 1_555 1_555
Se3_2 Re10_2 1_555 1_555
Se4_2 Re12_2 1_555 1_555
C8_4 C9_4 1_555 1_555
Re5_3 Se5_3 1_555 1_555
Re5_3 Se6_3 1_555 1_555
Re5_3 Re7_3 1_555 1_555
Re6_3 Se5_3 1_555 1_555
Re6_3 Se7_3 1_555 1_555
Re6_3 Se8_3 1_555 1_555
Re6_3 Re9_3 1_555 1_555
Re6_3 Re11_3 1_555 1_555
Se6_3 Re7_3 1_555 1_555
Se7_3 Re9_3 1_555 1_555
Se8_3 Re11_3 1_555 1_555
C12_3 N6_2 1_555 1_555
Re7_3 Re9_3 1_555 1_555
Re7_3 Re11_3 1_555 1_555
Re7_3 Se9_3 1_555 1_555
Re7_3 Se11_3 1_555 1_555
Re8_2 Re10_2 1_555 1_555
Re8_2 Re12_2 1_555 1_555
Re8_2 Se10_2 1_555 1_555
Re8_2 Se12_2 1_555 1_555
Re9_3 Re11_3 1_555 1_555
Re9_3 Se9_3 1_555 1_555
Re9_3 Se13_3 1_555 1_555
Re10_2 Re12_2 1_555 1_555
Re10_2 Se10_2 1_555 1_555
Re10_2 Se14_2 1_555 1_555
Re11_3 Se11_3 1_555 1_555
Re11_3 Se13_3 1_555 1_555
Re12_2 Se12_2 1_555 1_555
Re12_2 Se14_2 1_555 1_555
O1_2 H3_2 1_555 1_555
O1_2 H4_2 1_555 1_555
O2_2 H5_2 1_555 1_555
O2_2 H6_2 1_555 1_555
O3_2 H7_2 1_555 1_555
O3_2 H8_2 1_555 1_555
O10_3 H9_3 1_555 1_555
O10_3 H10_3 1_555 1_555
O9_3 H11_3 1_555 1_555
O9_3 H12_3 1_555 1_555
O11_3 H13_3 1_555 1_555
O11_3 H14_3 1_555 1_555
O5_5 C4_5 1_555 1_555
C5_5 C4_5 1_555 1_555
C6_5 C5_5 1_555 1_555
O6_5 C5_5 1_555 1_555
O7_5 C7_5 1_555 1_555
O8_5 C7_5 1_555 1_555
C7_5 C8_5 1_555 1_555
C8_5 O6_5 1_555 1_555
C9_5 C6_5 1_555 1_555
H2_5 C9_5 1_555 1_555
Gd4_5 O7_5 1_555 1_555
Gd5_5 O5_5 1_555 1_555
Gd8_5 O8_5 1_555 1_555
C8_5 C9_5 1_555 1_555
Re4_4 Re5_4 1_555 1_555
Re5_4 Re6_4 1_555 1_555
Re6_4 Re4_4 1_555 1_555
Se5_4 Re4_4 1_555 1_555
Se6_4 Re4_4 1_555 1_555
Se7_4 Re4_4 1_555 1_555
Se8_4 Re5_4 1_555 1_555
C10_4 Re4_4 1_555 1_555
C11_4 Re5_4 1_555 1_555
C12_4 Re6_4 1_555 1_555
N4_4 C10_4 1_555 1_555
N5_4 C11_4 1_555 1_555
Gd3_2 N4_4 1_555 1_555
O9_4 Gd3_2 1_555 1_555
O10_4 Gd3_2 1_555 1_555
O11_4 Gd3_2 1_555 1_555
Re7_4 Re4_4 1_555 1_555
Re9_4 Re4_4 1_555 1_555
Re11_4 Re5_4 1_555 1_555
Se9_4 Re4_4 1_555 1_555
Se11_4 Re5_4 1_555 1_555
Se13_4 Re6_4 1_555 1_555
N8_4 Gd3_2 1_555 1_555
Gd7_4 N5_4 1_555 1_555
O12_4 Gd3_2 1_555 1_555
O14_4 Gd3_2 1_555 1_555
Re5_4 Se5_4 1_555 1_555
Re5_4 Se6_4 1_555 1_555
Re5_4 Re7_4 1_555 1_555
Re6_4 Se5_4 1_555 1_555
Re6_4 Se7_4 1_555 1_555
Re6_4 Se8_4 1_555 1_555
Re6_4 Re9_4 1_555 1_555
Re6_4 Re11_4 1_555 1_555
Se6_4 Re7_4 1_555 1_555
Se7_4 Re9_4 1_555 1_555
Se8_4 Re11_4 1_555 1_555
C12_4 N9_2 1_555 1_555
Re7_4 Re9_4 1_555 1_555
Re7_4 Re11_4 1_555 1_555
Re7_4 Se9_4 1_555 1_555
Re7_4 Se11_4 1_555 1_555
Re9_4 Re11_4 1_555 1_555
Re9_4 Se9_4 1_555 1_555
Re9_4 Se13_4 1_555 1_555
Re11_4 Se11_4 1_555 1_555
Re11_4 Se13_4 1_555 1_555
O10_4 H9_4 1_555 1_555
O10_4 H10_4 1_555 1_555
O9_4 H11_4 1_555 1_555
O9_4 H12_4 1_555 1_555
O11_4 H13_4 1_555 1_555
O11_4 H14_4 1_555 1_555
O5_6 C4_6 1_555 1_555
C5_6 C4_6 1_555 1_555
C6_6 C5_6 1_555 1_555
O6_6 C5_6 1_555 1_555
O7_6 C7_6 1_555 1_555
O8_6 C7_6 1_555 1_555
C7_6 C8_6 1_555 1_555
C8_6 O6_6 1_555 1_555
C9_6 C6_6 1_555 1_555
H2_6 C9_6 1_555 1_555
Gd4_6 O7_6 1_555 1_555
Gd5_6 O5_6 1_555 1_555
Gd8_6 O8_6 1_555 1_555
C8_6 C9_6 1_555 1_555
N4_5 C10_5 1_555 1_555
Gd4_6 N4_5 1_555 1_555
O9_5 Gd4_6 1_555 1_555
O10_5 Gd4_6 1_555 1_555
O11_5 Gd4_6 1_555 1_555
N8_5 Gd4_6 1_555 1_555
O14_5 Gd4_6 1_555 1_555
O10_5 H9_5 1_555 1_555
O10_5 H10_5 1_555 1_555
O9_5 H11_5 1_555 1_555
O9_5 H12_5 1_555 1_555
O11_5 H13_5 1_555 1_555
O11_5 H14_5 1_555 1_555
Se1_3 Re7_4 1_555 1_555
C2_3 Re9_4 1_555 1_555
C3_3 Re11_4 1_555 1_555
N2_3 C2_3 1_555 1_555
N3_3 C3_3 1_555 1_555
Gd8 N2_3 1_555 1_555
Re9_4 Se1_3 1_555 1_555
Re11_4 Se1_3 1_555 1_555
N1_3 C1_3 1_555 1_555
Gd4_4 N1_3 1_555 1_555
O1_3 Gd4_4 1_555 1_555
O2_3 Gd4_4 1_555 1_555
O3_3 Gd4_4 1_555 1_555
Se5_5 Re7_3 1_555 1_555
C11_5 Re9_3 1_555 1_555
C12_5 Re11_3 1_555 1_555
N5_5 C11_5 1_555 1_555
N6_3 Gd4_4 1_555 1_555
N7_3 Gd4_4 1_555 1_555
Gd8_2 N5_5 1_555 1_555
O13_3 Gd4_4 1_555 1_555
Re9_3 Se5_5 1_555 1_555
Re11_3 Se5_5 1_555 1_555
C12_5 N6_3 1_555 1_555
O1_3 H3_3 1_555 1_555
O1_3 H4_3 1_555 1_555
O2_3 H5_3 1_555 1_555
O2_3 H6_3 1_555 1_555
O3_3 H7_3 1_555 1_555
O3_3 H8_3 1_555 1_555
Se5_6 Re8_2 1_555 1_555
C10_6 Re8_2 1_555 1_555
C11_6 Re10_2 1_555 1_555
C12_6 Re12_2 1_555 1_555
N4_6 C10_6 1_555 1_555
N5_6 C11_6 1_555 1_555
Gd4_5 N4_6 1_555 1_555
O9_6 Gd4_5 1_555 1_555
O10_6 Gd4_5 1_555 1_555
O11_6 Gd4_5 1_555 1_555
N8_6 Gd4_5 1_555 1_555
Gd8_3 N5_6 1_555 1_555
O14_6 Gd4_5 1_555 1_555
Re10_2 Se5_6 1_555 1_555
Re12_2 Se5_6 1_555 1_555
C12_6 N9_3 1_555 1_555
O10_6 H9_6 1_555 1_555
O10_6 H10_6 1_555 1_555
O9_6 H11_6 1_555 1_555
O9_6 H12_6 1_555 1_555
O11_6 H13_6 1_555 1_555
O11_6 H14_6 1_555 1_555
O7_7 C7_7 1_555 1_555
O8_7 C7_7 1_555 1_555
C7_7 C8_7 1_555 1_555
C8_7 O6_7 1_555 1_555
H2_7 C9_7 1_555 1_555
Se8_5 Re5_5 1_555 1_555
C11_7 Re5_5 1_555 1_555
N5_7 C11_7 1_555 1_555
Re11_5 Re5_5 1_555 1_555
Se11_5 Re5_5 1_555 1_555
Gd4_7 O7_7 1_555 1_555
Gd5_3 N5_7 1_555 1_555
Gd6_2 O8_7 1_555 1_555
C8_7 C9_7 1_555 1_555
Re5_5 Se6_5 1_555 1_555
Re5_5 Re7_5 1_555 1_555
Se6_5 Re7_5 1_555 1_555
Se8_5 Re11_5 1_555 1_555
Re7_5 Re11_5 1_555 1_555
Re7_5 Se11_5 1_555 1_555
Re11_5 Se11_5 1_555 1_555
Re3_3 Re1_3 1_555 1_555
Se1_4 Re1_3 1_555 1_555
Se3_3 Re1_3 1_555 1_555
C1_4 Re1_3 1_555 1_555
C3_4 Re3_3 1_555 1_555
N1_4 C1_4 1_555 1_555
N3_4 C3_4 1_555 1_555
Gd1_3 N1_4 1_555 1_555
O1_4 Gd1_3 1_555 1_555
O2_4 Gd1_3 1_555 1_555
O3_4 Gd1_3 1_555 1_555
O4_3 Gd1_3 1_555 1_555
O5_7 C4_7 1_555 1_555
C4_7 O4_3 1_555 1_555
C5_7 C4_7 1_555 1_555
C6_7 C5_7 1_555 1_555
H1_7 C6_7 1_555 1_555
O6_8 C5_7 1_555 1_555
Re6_5 Re4_5 1_555 1_555
Se5_7 Re4_5 1_555 1_555
Se7_5 Re4_5 1_555 1_555
C10_7 Re4_5 1_555 1_555
C12_7 Re6_5 1_555 1_555
N4_7 C10_7 1_555 1_555
N6_4 Gd1_3 1_555 1_555
Gd2_3 N4_7 1_555 1_555
O9_7 Gd2_3 1_555 1_555
O10_7 Gd2_3 1_555 1_555
O11_7 Gd2_3 1_555 1_555
Re9_5 Re4_5 1_555 1_555
Re10_3 Re1_3 1_555 1_555
Se9_5 Re4_5 1_555 1_555
Se10_3 Re1_3 1_555 1_555
Se13_5 Re6_5 1_555 1_555
Se14_3 Re3_3 1_555 1_555
N7_4 Gd1_3 1_555 1_555
N8_7 Gd2_3 1_555 1_555
N9_4 Gd2_3 1_555 1_555
Gd3_3 N3_4 1_555 1_555
Gd6 O5_7 1_555 1_555
O12_5 Gd2_3 1_555 1_555
O13_4 Gd1_3 1_555 1_555
O14_7 Gd2_3 1_555 1_555
Re3_3 Se1_4 1_555 1_555
Re3_3 Se3_3 1_555 1_555
Re3_3 Re10_3 1_555 1_555
Se3_3 Re10_3 1_555 1_555
Re6_5 Se5_7 1_555 1_555
Re6_5 Se7_5 1_555 1_555
Re6_5 Re9_5 1_555 1_555
Se7_5 Re9_5 1_555 1_555
C12_7 N6_4 1_555 1_555
Re9_5 Se9_5 1_555 1_555
Re9_5 Se13_5 1_555 1_555
Re10_3 Se10_3 1_555 1_555
Re10_3 Se14_3 1_555 1_555
O1_4 H3_4 1_555 1_555
O1_4 H4_4 1_555 1_555
O2_4 H5_4 1_555 1_555
O2_4 H6_4 1_555 1_555
O3_4 H7_4 1_555 1_555
O3_4 H8_4 1_555 1_555
O10_7 H9_7 1_555 1_555
O10_7 H10_7 1_555 1_555
O9_7 H11_7 1_555 1_555
O9_7 H12_7 1_555 1_555
O11_7 H13_7 1_555 1_555
O11_7 H14_7 1_555 1_555
Se4_3 Re2_3 1_555 1_555
C2_4 Re2_3 1_555 1_555
N2_4 C2_4 1_555 1_555
Re12_3 Re2_3 1_555 1_555
Se12_3 Re2_3 1_555 1_555
Gd5 N2_4 1_555 1_555
Re2_3 Se2_3 1_555 1_555
Re2_3 Re8_3 1_555 1_555
Se2_3 Re8_3 1_555 1_555
Se4_3 Re12_3 1_555 1_555
Re8_3 Re12_3 1_555 1_555
Re8_3 Se12_3 1_555 1_555
Re12_3 Se12_3 1_555 1_555
O5_8 C4_8 1_555 1_555
C4_8 O12_5 1_555 1_555
C5_8 C4_8 1_555 1_555
C6_8 C5_8 1_555 1_555
H1_8 C6_8 1_555 1_555
O6_9 C5_8 1_555 1_555
O7_8 C7_8 1_555 1_555
O8_8 C7_8 1_555 1_555
C7_8 C8_8 1_555 1_555
C8_8 O6_9 1_555 1_555
C9_8 C6_8 1_555 1_555
H2_8 C9_8 1_555 1_555
Re4_6 Re5_6 1_555 1_555
Re5_6 Re6_6 1_555 1_555
Re6_6 Re4_6 1_555 1_555
Se5_8 Re4_6 1_555 1_555
Se6_6 Re4_6 1_555 1_555
Se7_6 Re4_6 1_555 1_555
Se8_6 Re5_6 1_555 1_555
C10_8 Re4_6 1_555 1_555
C11_8 Re5_6 1_555 1_555
C12_8 Re6_6 1_555 1_555
N4_8 C10_8 1_555 1_555
N5_8 C11_8 1_555 1_555
Gd3_3 N4_8 1_555 1_555
O9_8 Gd3_3 1_555 1_555
O10_8 Gd3_3 1_555 1_555
O11_8 Gd3_3 1_555 1_555
Re7_6 Re4_6 1_555 1_555
Re9_6 Re4_6 1_555 1_555
Re11_6 Re5_6 1_555 1_555
Se9_6 Re4_6 1_555 1_555
Se11_6 Re5_6 1_555 1_555
Se13_6 Re6_6 1_555 1_555
N8_8 Gd3_3 1_555 1_555
Gd4_8 O7_8 1_555 1_555
Gd7_2 O5_8 1_555 1_555
Gd5_2 N5_8 1_555 1_555
Gd7_3 O8_8 1_555 1_555
O12_6 Gd3_3 1_555 1_555
O14_8 Gd3_3 1_555 1_555
C8_8 C9_8 1_555 1_555
Re5_6 Se5_8 1_555 1_555
Re5_6 Se6_6 1_555 1_555
Re5_6 Re7_6 1_555 1_555
Re6_6 Se5_8 1_555 1_555
Re6_6 Se7_6 1_555 1_555
Re6_6 Se8_6 1_555 1_555
Re6_6 Re9_6 1_555 1_555
Re6_6 Re11_6 1_555 1_555
Se6_6 Re7_6 1_555 1_555
Se7_6 Re9_6 1_555 1_555
Se8_6 Re11_6 1_555 1_555
C12_8 N9_4 1_555 1_555
Re7_6 Re9_6 1_555 1_555
Re7_6 Re11_6 1_555 1_555
Re7_6 Se9_6 1_555 1_555
Re7_6 Se11_6 1_555 1_555
Re9_6 Re11_6 1_555 1_555
Re9_6 Se9_6 1_555 1_555
Re9_6 Se13_6 1_555 1_555
Re11_6 Se11_6 1_555 1_555
Re11_6 Se13_6 1_555 1_555
O10_8 H9_8 1_555 1_555
O10_8 H10_8 1_555 1_555
O9_8 H11_8 1_555 1_555
O9_8 H12_8 1_555 1_555
O11_8 H13_8 1_555 1_555
O11_8 H14_8 1_555 1_555
O5_9 C4_9 1_555 1_555
C4_9 O12_6 1_555 1_555
C5_9 C4_9 1_555 1_555
C6_9 C5_9 1_555 1_555
H1_9 C6_9 1_555 1_555
O6_10 C5_9 1_555 1_555
Gd7 O5_9 1_555 1_555
O7_9 C7_9 1_555 1_555
O8_9 C7_9 1_555 1_555
C7_9 C8_9 1_555 1_555
C8_9 O6_11 1_555 1_555
H2_9 C9_9 1_555 1_555
Gd4_9 O7_9 1_555 1_555
Gd7_4 O8_9 1_555 1_555
C8_9 C9_9 1_555 1_555
Se1_5 Re7_6 1_555 1_555
C1_5 Re7_6 1_555 1_555
C2_5 Re9_6 1_555 1_555
C3_5 Re11_6 1_555 1_555
N1_5 C1_5 1_555 1_555
N2_5 C2_5 1_555 1_555
N3_5 C3_5 1_555 1_555
Gd4_7 N1_5 1_555 1_555
O1_5 Gd4_7 1_555 1_555
O2_5 Gd4_7 1_555 1_555
O3_5 Gd4_7 1_555 1_555
Se5_9 Re7_5 1_555 1_555
C10_9 Re7_5 1_555 1_555
C12_9 Re11_5 1_555 1_555
N4_9 C10_9 1_555 1_555
N6_5 Gd4_7 1_555 1_555
Gd4_9 N4_9 1_555 1_555
O9_9 Gd4_9 1_555 1_555
O10_9 Gd4_9 1_555 1_555
O11_9 Gd4_9 1_555 1_555
N7_5 Gd4_7 1_555 1_555
N8_9 Gd4_9 1_555 1_555
N9_5 Gd4_9 1_555 1_555
Gd4_8 N3_5 1_555 1_555
Gd5_4 N2_5 1_555 1_555
O13_5 Gd4_7 1_555 1_555
O14_9 Gd4_9 1_555 1_555
Re9_6 Se1_5 1_555 1_555
Re11_6 Se1_5 1_555 1_555
Re11_5 Se5_9 1_555 1_555
C12_9 N6_5 1_555 1_555
O1_5 H3_5 1_555 1_555
O1_5 H4_5 1_555 1_555
O2_5 H5_5 1_555 1_555
O2_5 H6_5 1_555 1_555
O3_5 H7_5 1_555 1_555
O3_5 H8_5 1_555 1_555
O10_9 H9_9 1_555 1_555
O10_9 H10_9 1_555 1_555
O9_9 H11_9 1_555 1_555
O9_9 H12_9 1_555 1_555
O11_9 H13_9 1_555 1_555
O11_9 H14_9 1_555 1_555
C11_9 Re9_5 1_555 1_555
N5_9 C11_9 1_555 1_555
Gd5_6 N5_9 1_555 1_555
C11_10 Re10_3 1_555 1_555
N5_10 C11_10 1_555 1_555
Gd5_5 N5_10 1_555 1_555
Se5_10 Re8_3 1_555 1_555
C10_10 Re8_3 1_555 1_555
C12_10 Re12_3 1_555 1_555
N4_10 C10_10 1_555 1_555
Gd4_8 N4_10 1_555 1_555
O9_10 Gd4_8 1_555 1_555
O10_10 Gd4_8 1_555 1_555
O11_10 Gd4_8 1_555 1_555
N8_10 Gd4_8 1_555 1_555
O14_10 Gd4_8 1_555 1_555
Re12_3 Se5_10 1_555 1_555
C12_10 N9_5 1_555 1_555
O10_10 H9_10 1_555 1_555
O10_10 H10_10 1_555 1_555
O9_10 H11_10 1_555 1_555
O9_10 H12_10 1_555 1_555
O11_10 H13_10 1_555 1_555
O11_10 H14_10 1_555 1_555
Se5_11 Re7 1_555 1_555
C10_11 Re7 1_555 1_555
C11_11 Re9 1_555 1_555
C12_11 Re11 1_555 1_555
N4_11 C10_11 1_555 1_555
N5_11 C11_11 1_555 1_555
Gd4_3 N4_11 1_555 1_555
O9_11 Gd4_3 1_555 1_555
O10_11 Gd4_3 1_555 1_555
O11_11 Gd4_3 1_555 1_555
N8_11 Gd4_3 1_555 1_555
Gd8_5 N5_11 1_555 1_555
O14_11 Gd4_3 1_555 1_555
Re9 Se5_11 1_555 1_555
Re11 Se5_11 1_555 1_555
C12_11 N6_6 1_555 1_555
O10_11 H9_11 1_555 1_555
O10_11 H10_11 1_555 1_555
O9_11 H11_11 1_555 1_555
O9_11 H12_11 1_555 1_555
O11_11 H13_11 1_555 1_555
O11_11 H14_11 1_555 1_555
N1_6 C1_6 1_555 1_555
Gd4 N1_6 1_555 1_555
O1_6 Gd4 1_555 1_555
O2_6 Gd4 1_555 1_555
O3_6 Gd4 1_555 1_555
N7_6 Gd4 1_555 1_555
O13_6 Gd4 1_555 1_555
O1_6 H3_6 1_555 1_555
O1_6 H4_6 1_555 1_555
O2_6 H5_6 1_555 1_555
O2_6 H6_6 1_555 1_555
O3_6 H7_6 1_555 1_555
O3_6 H8_6 1_555 1_555
Se1_6 Re7_2 1_555 1_555
C2_6 Re9_2 1_555 1_555
C3_6 Re11_2 1_555 1_555
N2_6 C2_6 1_555 1_555
N3_6 C3_6 1_555 1_555
Gd4_2 N3_6 1_555 1_555
Gd8_4 N2_6 1_555 1_555
Re9_2 Se1_6 1_555 1_555
Re11_2 Se1_6 1_555 1_555
Se5_12 Re8 1_555 1_555
C11_12 Re10 1_555 1_555
C12_12 Re12 1_555 1_555
N5_12 C11_12 1_555 1_555
Gd8_6 N5_12 1_555 1_555
Re10 Se5_12 1_555 1_555
Re12 Se5_12 1_555 1_555
C12_12 N9_6 1_555 1_555
N4_12 C10_12 1_555 1_555
Gd4_2 N4_12 1_555 1_555
O9_12 Gd4_2 1_555 1_555
O10_12 Gd4_2 1_555 1_555
O11_12 Gd4_2 1_555 1_555
N8_12 Gd4_2 1_555 1_555
O14_12 Gd4_2 1_555 1_555
O10_12 H9_12 1_555 1_555
O10_12 H10_12 1_555 1_555
O9_12 H11_12 1_555 1_555
O9_12 H12_12 1_555 1_555
O11_12 H13_12 1_555 1_555
O11_12 H14_12 1_555 1_555
O13 C4_10 1_555 1_555
C5_10 C4_10 1_555 1_555
C6_10 C5_10 1_555 1_555
O6_12 C5_10 1_555 1_555
O7_10 C7_10 1_555 1_555
O13_4 C7_10 1_555 1_555
C7_10 C8_10 1_555 1_555
C8_10 O6_12 1_555 1_555
C9_10 C6_10 1_555 1_555
H2_10 C9_10 1_555 1_555
Gd6 O7_10 1_555 1_555
C8_10 C9_10 1_555 1_555
N7_6 C2_7 1_555 1_555
N8_12 C11_13 1_555 1_555
O2_7 H5_7 1_555 1_555
O2_7 H6_7 1_555 1_555
O3_7 H7_7 1_555 1_555
O3_7 H8_7 1_555 1_555
O10_13 H9_13 1_555 1_555
O10_13 H10_13 1_555 1_555
O11_13 H13_13 1_555 1_555
O11_13 H14_13 1_555 1_555
Re1_4 Re2_4 1_555 1_555
Re2_4 Re3_4 1_555 1_555
Re3_4 Re1_4 1_555 1_555
Se1_7 Re1_4 1_555 1_555
Se2_4 Re1_4 1_555 1_555
Se3_4 Re1_4 1_555 1_555
Se4_4 Re2_4 1_555 1_555
C1_7 Re1_4 1_555 1_555
C3_7 Re3_4 1_555 1_555
N1_7 C1_7 1_555 1_555
N3_7 C3_7 1_555 1_555
Gd5 N1_7 1_555 1_555
O1_7 Gd5 1_555 1_555
O4_4 Gd5 1_555 1_555
Re4_7 Re5_7 1_555 1_555
Re5_7 Re6_7 1_555 1_555
Re6_7 Re4_7 1_555 1_555
Se5_13 Re4_7 1_555 1_555
Se6_7 Re4_7 1_555 1_555
Se7_7 Re4_7 1_555 1_555
Se8_7 Re5_7 1_555 1_555
C10_13 Re4_7 1_555 1_555
C12_13 Re6_7 1_555 1_555
N4_13 C10_13 1_555 1_555
N6_7 Gd5 1_555 1_555
Gd5_2 N4_13 1_555 1_555
O9_13 Gd5_2 1_555 1_555
Re7_7 Re4_7 1_555 1_555
Re8_4 Re1_4 1_555 1_555
Re9_7 Re4_7 1_555 1_555
Re10_4 Re1_4 1_555 1_555
Re11_7 Re5_7 1_555 1_555
Re12_4 Re2_4 1_555 1_555
Se9_7 Re4_7 1_555 1_555
Se10_4 Re1_4 1_555 1_555
Se11_7 Re5_7 1_555 1_555
Se12_4 Re2_4 1_555 1_555
Se13_7 Re6_7 1_555 1_555
Se14_4 Re3_4 1_555 1_555
N9_7 Gd5_2 1_555 1_555
Gd5_3 N3_7 1_555 1_555
O12_7 Gd5_2 1_555 1_555
Re2_4 Se1_7 1_555 1_555
Re2_4 Se2_4 1_555 1_555
Re2_4 Re8_4 1_555 1_555
Re3_4 Se1_7 1_555 1_555
Re3_4 Se3_4 1_555 1_555
Re3_4 Se4_4 1_555 1_555
Re3_4 Re10_4 1_555 1_555
Re3_4 Re12_4 1_555 1_555
Se2_4 Re8_4 1_555 1_555
Se3_4 Re10_4 1_555 1_555
Se4_4 Re12_4 1_555 1_555
Re5_7 Se5_13 1_555 1_555
Re5_7 Se6_7 1_555 1_555
Re5_7 Re7_7 1_555 1_555
Re6_7 Se5_13 1_555 1_555
Re6_7 Se7_7 1_555 1_555
Re6_7 Se8_7 1_555 1_555
Re6_7 Re9_7 1_555 1_555
Re6_7 Re11_7 1_555 1_555
Se6_7 Re7_7 1_555 1_555
Se7_7 Re9_7 1_555 1_555
Se8_7 Re11_7 1_555 1_555
C12_13 N6_7 1_555 1_555
Re7_7 Re9_7 1_555 1_555
Re7_7 Re11_7 1_555 1_555
Re7_7 Se9_7 1_555 1_555
Re7_7 Se11_7 1_555 1_555
Re8_4 Re10_4 1_555 1_555
Re8_4 Re12_4 1_555 1_555
Re8_4 Se10_4 1_555 1_555
Re8_4 Se12_4 1_555 1_555
Re9_7 Re11_7 1_555 1_555
Re9_7 Se9_7 1_555 1_555
Re9_7 Se13_7 1_555 1_555
Re10_4 Re12_4 1_555 1_555
Re10_4 Se10_4 1_555 1_555
Re10_4 Se14_4 1_555 1_555
Re11_7 Se11_7 1_555 1_555
Re11_7 Se13_7 1_555 1_555
Re12_4 Se12_4 1_555 1_555
Re12_4 Se14_4 1_555 1_555
O1_7 H3_7 1_555 1_555
O1_7 H4_7 1_555 1_555
O9_13 H11_13 1_555 1_555
O9_13 H12_13 1_555 1_555
N8_11 C11_14 1_555 1_555
O10_14 H9_14 1_555 1_555
O10_14 H10_14 1_555 1_555
O11_14 H13_14 1_555 1_555
O11_14 H14_14 1_555 1_555
O14 C4_11 1_555 1_555
C4_11 O12_7 1_555 1_555
C5_11 C4_11 1_555 1_555
C6_11 C5_11 1_555 1_555
H1_11 C6_11 1_555 1_555
O6_13 C5_11 1_555 1_555
O7_11 C7_11 1_555 1_555
O14_8 C7_11 1_555 1_555
C7_11 C8_11 1_555 1_555
C8_11 O6_13 1_555 1_555
C9_11 C6_11 1_555 1_555
H2_11 C9_11 1_555 1_555
Re4_8 Re5_8 1_555 1_555
Re5_8 Re6_8 1_555 1_555
Re6_8 Re4_8 1_555 1_555
Se5_14 Re4_8 1_555 1_555
Se6_8 Re4_8 1_555 1_555
Se7_8 Re4_8 1_555 1_555
Se8_8 Re5_8 1_555 1_555
C10_14 Re4_8 1_555 1_555
C12_14 Re6_8 1_555 1_555
N4_14 C10_14 1_555 1_555
Gd5_3 N4_14 1_555 1_555
O9_14 Gd5_3 1_555 1_555
Re7_8 Re4_8 1_555 1_555
Re9_8 Re4_8 1_555 1_555
Re11_8 Re5_8 1_555 1_555
Se9_8 Re4_8 1_555 1_555
Se11_8 Re5_8 1_555 1_555
Se13_8 Re6_8 1_555 1_555
Gd7 O7_11 1_555 1_555
O12_8 Gd5_3 1_555 1_555
C8_11 C9_11 1_555 1_555
Re5_8 Se5_14 1_555 1_555
Re5_8 Se6_8 1_555 1_555
Re5_8 Re7_8 1_555 1_555
Re6_8 Se5_14 1_555 1_555
Re6_8 Se7_8 1_555 1_555
Re6_8 Se8_8 1_555 1_555
Re6_8 Re9_8 1_555 1_555
Re6_8 Re11_8 1_555 1_555
Se6_8 Re7_8 1_555 1_555
Se7_8 Re9_8 1_555 1_555
Se8_8 Re11_8 1_555 1_555
C12_14 N9_7 1_555 1_555
Re7_8 Re9_8 1_555 1_555
Re7_8 Re11_8 1_555 1_555
Re7_8 Se9_8 1_555 1_555
Re7_8 Se11_8 1_555 1_555
Re9_8 Re11_8 1_555 1_555
Re9_8 Se9_8 1_555 1_555
Re9_8 Se13_8 1_555 1_555
Re11_8 Se11_8 1_555 1_555
Re11_8 Se13_8 1_555 1_555
O9_14 H11_14 1_555 1_555
O9_14 H12_14 1_555 1_555
O14_2 C4_12 1_555 1_555
C5_12 C4_12 1_555 1_555
C6_12 C5_12 1_555 1_555
O6_14 C5_12 1_555 1_555
O7_12 C7_12 1_555 1_555
O14_7 C7_12 1_555 1_555
C7_12 C8_12 1_555 1_555
C8_12 O6_14 1_555 1_555
C9_12 C6_12 1_555 1_555
H2_12 C9_12 1_555 1_555
Gd7_2 O7_12 1_555 1_555
C8_12 C9_12 1_555 1_555
Re1_5 Re2_5 1_555 1_555
Re2_5 Re3_5 1_555 1_555
Re3_5 Re1_5 1_555 1_555
Se1_8 Re1_5 1_555 1_555
Se2_5 Re1_5 1_555 1_555
Se3_5 Re1_5 1_555 1_555
Se4_5 Re2_5 1_555 1_555
C1_8 Re1_5 1_555 1_555
C2_8 Re2_5 1_555 1_555
C3_8 Re3_5 1_555 1_555
N1_8 C1_8 1_555 1_555
N7_3 C2_8 1_555 1_555
N3_8 C3_8 1_555 1_555
Gd5_4 N1_8 1_555 1_555
O1_8 Gd5_4 1_555 1_555
O2_8 Gd5_4 1_555 1_555
O3_8 Gd5_4 1_555 1_555
O4_5 Gd5_4 1_555 1_555
O13_2 C4_13 1_555 1_555
C4_13 O4_5 1_555 1_555
C5_13 C4_13 1_555 1_555
C6_13 C5_13 1_555 1_555
H1_13 C6_13 1_555 1_555
O6_15 C5_13 1_555 1_555
O7_13 C7_13 1_555 1_555
O13_5 C7_13 1_555 1_555
C7_13 C8_13 1_555 1_555
C8_13 O6_15 1_555 1_555
C9_13 C6_13 1_555 1_555
H2_13 C9_13 1_555 1_555
Re4_9 Re5_9 1_555 1_555
Re5_9 Re6_9 1_555 1_555
Re6_9 Re4_9 1_555 1_555
Se5_15 Re4_9 1_555 1_555
Se6_9 Re4_9 1_555 1_555
Se7_9 Re4_9 1_555 1_555
Se8_9 Re5_9 1_555 1_555
C10_15 Re4_9 1_555 1_555
C11_15 Re5_9 1_555 1_555
C12_15 Re6_9 1_555 1_555
N4_15 C10_15 1_555 1_555
N8_6 C11_15 1_555 1_555
N6_8 Gd5_4 1_555 1_555
Gd5_5 N4_15 1_555 1_555
O9_15 Gd5_5 1_555 1_555
O10_15 Gd5_5 1_555 1_555
O11_15 Gd5_5 1_555 1_555
Re7_9 Re4_9 1_555 1_555
Re8_5 Re1_5 1_555 1_555
Re9_9 Re4_9 1_555 1_555
Re10_5 Re1_5 1_555 1_555
Re11_9 Re5_9 1_555 1_555
Re12_5 Re2_5 1_555 1_555
Se9_9 Re4_9 1_555 1_555
Se10_5 Re1_5 1_555 1_555
Se11_9 Re5_9 1_555 1_555
Se12_5 Re2_5 1_555 1_555
Se13_9 Re6_9 1_555 1_555
Se14_5 Re3_5 1_555 1_555
N9_8 Gd5_5 1_555 1_555
Gd5_6 N3_8 1_555 1_555
Gd6_2 O7_13 1_555 1_555
O12_9 Gd5_5 1_555 1_555
Re2_5 Se1_8 1_555 1_555
Re2_5 Se2_5 1_555 1_555
Re2_5 Re8_5 1_555 1_555
Re3_5 Se1_8 1_555 1_555
Re3_5 Se3_5 1_555 1_555
Re3_5 Se4_5 1_555 1_555
Re3_5 Re10_5 1_555 1_555
Re3_5 Re12_5 1_555 1_555
Se2_5 Re8_5 1_555 1_555
Se3_5 Re10_5 1_555 1_555
Se4_5 Re12_5 1_555 1_555
C8_13 C9_13 1_555 1_555
Re5_9 Se5_15 1_555 1_555
Re5_9 Se6_9 1_555 1_555
Re5_9 Re7_9 1_555 1_555
Re6_9 Se5_15 1_555 1_555
Re6_9 Se7_9 1_555 1_555
Re6_9 Se8_9 1_555 1_555
Re6_9 Re9_9 1_555 1_555
Re6_9 Re11_9 1_555 1_555
Se6_9 Re7_9 1_555 1_555
Se7_9 Re9_9 1_555 1_555
Se8_9 Re11_9 1_555 1_555
C12_15 N6_8 1_555 1_555
Re7_9 Re9_9 1_555 1_555
Re7_9 Re11_9 1_555 1_555
Re7_9 Se9_9 1_555 1_555
Re7_9 Se11_9 1_555 1_555
Re8_5 Re10_5 1_555 1_555
Re8_5 Re12_5 1_555 1_555
Re8_5 Se10_5 1_555 1_555
Re8_5 Se12_5 1_555 1_555
Re9_9 Re11_9 1_555 1_555
Re9_9 Se9_9 1_555 1_555
Re9_9 Se13_9 1_555 1_555
Re10_5 Re12_5 1_555 1_555
Re10_5 Se10_5 1_555 1_555
Re10_5 Se14_5 1_555 1_555
Re11_9 Se11_9 1_555 1_555
Re11_9 Se13_9 1_555 1_555
Re12_5 Se12_5 1_555 1_555
Re12_5 Se14_5 1_555 1_555
O1_8 H3_8 1_555 1_555
O1_8 H4_8 1_555 1_555
O2_8 H5_8 1_555 1_555
O2_8 H6_8 1_555 1_555
O3_8 H7_8 1_555 1_555
O3_8 H8_8 1_555 1_555
O10_15 H9_15 1_555 1_555
O10_15 H10_15 1_555 1_555
O9_15 H11_15 1_555 1_555
O9_15 H12_15 1_555 1_555
O11_15 H13_15 1_555 1_555
O11_15 H14_15 1_555 1_555
Re4_10 Re5_10 1_555 1_555
Re5_10 Re6_10 1_555 1_555
Re6_10 Re4_10 1_555 1_555
Se5_16 Re4_10 1_555 1_555
Se6_10 Re4_10 1_555 1_555
Se7_10 Re4_10 1_555 1_555
Se8_10 Re5_10 1_555 1_555
C10_16 Re4_10 1_555 1_555
C11_16 Re5_10 1_555 1_555
C12_16 Re6_10 1_555 1_555
N4_16 C10_16 1_555 1_555
N8_5 C11_16 1_555 1_555
Gd5_6 N4_16 1_555 1_555
O9_16 Gd5_6 1_555 1_555
O10_16 Gd5_6 1_555 1_555
O11_16 Gd5_6 1_555 1_555
Re7_10 Re4_10 1_555 1_555
Re9_10 Re4_10 1_555 1_555
Re11_10 Re5_10 1_555 1_555
Se9_10 Re4_10 1_555 1_555
Se11_10 Re5_10 1_555 1_555
Se13_10 Re6_10 1_555 1_555
O12_10 Gd5_6 1_555 1_555
Re5_10 Se5_16 1_555 1_555
Re5_10 Se6_10 1_555 1_555
Re5_10 Re7_10 1_555 1_555
Re6_10 Se5_16 1_555 1_555
Re6_10 Se7_10 1_555 1_555
Re6_10 Se8_10 1_555 1_555
Re6_10 Re9_10 1_555 1_555
Re6_10 Re11_10 1_555 1_555
Se6_10 Re7_10 1_555 1_555
Se7_10 Re9_10 1_555 1_555
Se8_10 Re11_10 1_555 1_555
C12_16 N9_8 1_555 1_555
Re7_10 Re9_10 1_555 1_555
Re7_10 Re11_10 1_555 1_555
Re7_10 Se9_10 1_555 1_555
Re7_10 Se11_10 1_555 1_555
Re9_10 Re11_10 1_555 1_555
Re9_10 Se9_10 1_555 1_555
Re9_10 Se13_10 1_555 1_555
Re11_10 Se11_10 1_555 1_555
Re11_10 Se13_10 1_555 1_555
O10_16 H9_16 1_555 1_555
O10_16 H10_16 1_555 1_555
O9_16 H11_16 1_555 1_555
O9_16 H12_16 1_555 1_555
O11_16 H13_16 1_555 1_555
O11_16 H14_16 1_555 1_555
O14_3 C4_14 1_555 1_555
C5_14 C4_14 1_555 1_555
C6_14 C5_14 1_555 1_555
O6_16 C5_14 1_555 1_555
O7_14 C7_14 1_555 1_555
O14_10 C7_14 1_555 1_555
C7_14 C8_14 1_555 1_555
C8_14 O6_16 1_555 1_555
C9_14 C6_14 1_555 1_555
H2_14 C9_14 1_555 1_555
Gd7_3 O7_14 1_555 1_555
C8_14 C9_14 1_555 1_555
O14_4 C4_15 1_555 1_555
C5_15 C4_15 1_555 1_555
C6_15 C5_15 1_555 1_555
O6_17 C5_15 1_555 1_555
O7_15 C7_15 1_555 1_555
O14_9 C7_15 1_555 1_555
C7_15 C8_15 1_555 1_555
C8_15 O6_17 1_555 1_555
C9_15 C6_15 1_555 1_555
H2_15 C9_15 1_555 1_555
Gd7_4 O7_15 1_555 1_555
C8_15 C9_15 1_555 1_555
N1_9 C1_9 1_555 1_555
Gd6_2 N1_9 1_555 1_555
O1_9 Gd6_2 1_555 1_555
O2_9 Gd6_2 1_555 1_555
O3_9 Gd6_2 1_555 1_555
Se5_17 Re7_9 1_555 1_555
C11_17 Re9_9 1_555 1_555
C12_17 Re11_9 1_555 1_555
N8_8 C11_17 1_555 1_555
N6_9 Gd6_2 1_555 1_555
Re9_9 Se5_17 1_555 1_555
Re11_9 Se5_17 1_555 1_555
C12_17 N6_9 1_555 1_555
O1_9 H3_9 1_555 1_555
O1_9 H4_9 1_555 1_555
O2_9 H5_9 1_555 1_555
O2_9 H6_9 1_555 1_555
O3_9 H7_9 1_555 1_555
O3_9 H8_9 1_555 1_555
Se1_9 Re7_10 1_555 1_555
C2_9 Re9_10 1_555 1_555
C3_9 Re11_10 1_555 1_555
N7_4 C2_9 1_555 1_555
N3_9 C3_9 1_555 1_555
Re9_10 Se1_9 1_555 1_555
Re11_10 Se1_9 1_555 1_555
N4_17 C10_17 1_555 1_555
Gd7_4 N4_17 1_555 1_555
O9_17 Gd7_4 1_555 1_555
O10_17 Gd7_4 1_555 1_555
O11_17 Gd7_4 1_555 1_555
O10_17 H9_17 1_555 1_555
O10_17 H10_17 1_555 1_555
O9_17 H11_17 1_555 1_555
O9_17 H12_17 1_555 1_555
O11_17 H13_17 1_555 1_555
O11_17 H14_17 1_555 1_555
Se5_18 Re8_5 1_555 1_555
C10_18 Re8_5 1_555 1_555
C11_18 Re10_5 1_555 1_555
C12_18 Re12_5 1_555 1_555
N4_18 C10_18 1_555 1_555
N8_7 C11_18 1_555 1_555
Gd7_3 N4_18 1_555 1_555
O9_18 Gd7_3 1_555 1_555
O10_18 Gd7_3 1_555 1_555
O11_18 Gd7_3 1_555 1_555
Re10_5 Se5_18 1_555 1_555
Re12_5 Se5_18 1_555 1_555
C12_18 N9_9 1_555 1_555
O10_18 H9_18 1_555 1_555
O10_18 H10_18 1_555 1_555
O9_18 H11_18 1_555 1_555
O9_18 H12_18 1_555 1_555
O11_18 H13_18 1_555 1_555
O11_18 H14_18 1_555 1_555
Se4_6 Re2_6 1_555 1_555
C2_10 Re2_6 1_555 1_555
N7 C2_10 1_555 1_555
Re12_6 Re2_6 1_555 1_555
Se12_6 Re2_6 1_555 1_555
Re2_6 Se2_6 1_555 1_555
Re2_6 Re8_6 1_555 1_555
Se2_6 Re8_6 1_555 1_555
Se4_6 Re12_6 1_555 1_555
Re8_6 Re12_6 1_555 1_555
Re8_6 Se12_6 1_555 1_555
Re12_6 Se12_6 1_555 1_555
Re3_6 Re1_6 1_555 1_555
Se1_10 Re1_6 1_555 1_555
Se3_6 Re1_6 1_555 1_555
C1_10 Re1_6 1_555 1_555
C3_10 Re3_6 1_555 1_555
N1_10 C1_10 1_555 1_555
N3_10 C3_10 1_555 1_555
Gd8 N1_10 1_555 1_555
O1_10 Gd8 1_555 1_555
O2_10 Gd8 1_555 1_555
O3_10 Gd8 1_555 1_555
O4_6 Gd8 1_555 1_555
O13_6 C4_16 1_555 1_555
C4_16 O4_6 1_555 1_555
C5_16 C4_16 1_555 1_555
C6_16 C5_16 1_555 1_555
H1_16 C6_16 1_555 1_555
O6_18 C5_16 1_555 1_555
Re6_11 Re4_11 1_555 1_555
Se5_19 Re4_11 1_555 1_555
Se7_11 Re4_11 1_555 1_555
C10_19 Re4_11 1_555 1_555
C12_19 Re6_11 1_555 1_555
N4_19 C10_19 1_555 1_555
N6_10 Gd8 1_555 1_555
Gd8_3 N4_19 1_555 1_555
O9_19 Gd8_3 1_555 1_555
O10_19 Gd8_3 1_555 1_555
O11_19 Gd8_3 1_555 1_555
Re9_11 Re4_11 1_555 1_555
Re10_6 Re1_6 1_555 1_555
Se9_11 Re4_11 1_555 1_555
Se10_6 Re1_6 1_555 1_555
Se13_11 Re6_11 1_555 1_555
Se14_6 Re3_6 1_555 1_555
N9_10 Gd8_3 1_555 1_555
Gd8_2 N3_10 1_555 1_555
O12_11 Gd8_3 1_555 1_555
Re3_6 Se1_10 1_555 1_555
Re3_6 Se3_6 1_555 1_555
Re3_6 Re10_6 1_555 1_555
Se3_6 Re10_6 1_555 1_555
Re6_11 Se5_19 1_555 1_555
Re6_11 Se7_11 1_555 1_555
Re6_11 Re9_11 1_555 1_555
Se7_11 Re9_11 1_555 1_555
C12_19 N6_10 1_555 1_555
Re9_11 Se9_11 1_555 1_555
Re9_11 Se13_11 1_555 1_555
Re10_6 Se10_6 1_555 1_555
Re10_6 Se14_6 1_555 1_555
O1_10 H3_10 1_555 1_555
O1_10 H4_10 1_555 1_555
O2_10 H5_10 1_555 1_555
O2_10 H6_10 1_555 1_555
O3_10 H7_10 1_555 1_555
O3_10 H8_10 1_555 1_555
O10_19 H9_19 1_555 1_555
O10_19 H10_19 1_555 1_555
O9_19 H11_19 1_555 1_555
O9_19 H12_19 1_555 1_555
O11_19 H13_19 1_555 1_555
O11_19 H14_19 1_555 1_555
O7_16 C7_16 1_555 1_555
O13_3 C7_16 1_555 1_555
C7_16 C8_16 1_555 1_555
C8_16 O6_19 1_555 1_555
H2_16 C9_16 1_555 1_555
Se8_11 Re5_11 1_555 1_555
C11_19 Re5_11 1_555 1_555
N8_2 C11_19 1_555 1_555
Re11_11 Re5_11 1_555 1_555
Se11_11 Re5_11 1_555 1_555
Gd8_4 O7_16 1_555 1_555
C8_16 C9_16 1_555 1_555
Re5_11 Se6_11 1_555 1_555
Re5_11 Re7_11 1_555 1_555
Se6_11 Re7_11 1_555 1_555
Se8_11 Re11_11 1_555 1_555
Re7_11 Re11_11 1_555 1_555
Re7_11 Se11_11 1_555 1_555
Re11_11 Se11_11 1_555 1_555
O14_11 C4_17 1_555 1_555
C4_17 O12_11 1_555 1_555
C5_17 C4_17 1_555 1_555
C6_17 C5_17 1_555 1_555
H1_17 C6_17 1_555 1_555
O6_20 C5_17 1_555 1_555
O7_17 C7_17 1_555 1_555
O14_6 C7_17 1_555 1_555
C7_17 C8_17 1_555 1_555
C8_17 O6_20 1_555 1_555
C9_17 C6_17 1_555 1_555
H2_17 C9_17 1_555 1_555
Re4_12 Re5_12 1_555 1_555
Re5_12 Re6_12 1_555 1_555
Re6_12 Re4_12 1_555 1_555
Se5_20 Re4_12 1_555 1_555
Se6_12 Re4_12 1_555 1_555
Se7_12 Re4_12 1_555 1_555
Se8_12 Re5_12 1_555 1_555
C10_20 Re4_12 1_555 1_555
C11_20 Re5_12 1_555 1_555
C12_20 Re6_12 1_555 1_555
N4_20 C10_20 1_555 1_555
N8 C11_20 1_555 1_555
Gd8_2 N4_20 1_555 1_555
O9_20 Gd8_2 1_555 1_555
O10_20 Gd8_2 1_555 1_555
O11_20 Gd8_2 1_555 1_555
Re7_12 Re4_12 1_555 1_555
Re9_12 Re4_12 1_555 1_555
Re11_12 Re5_12 1_555 1_555
Se9_12 Re4_12 1_555 1_555
Se11_12 Re5_12 1_555 1_555
Se13_12 Re6_12 1_555 1_555
Gd8_5 O7_17 1_555 1_555
O12_12 Gd8_2 1_555 1_555
C8_17 C9_17 1_555 1_555
Re5_12 Se5_20 1_555 1_555
Re5_12 Se6_12 1_555 1_555
Re5_12 Re7_12 1_555 1_555
Re6_12 Se5_20 1_555 1_555
Re6_12 Se7_12 1_555 1_555
Re6_12 Se8_12 1_555 1_555
Re6_12 Re9_12 1_555 1_555
Re6_12 Re11_12 1_555 1_555
Se6_12 Re7_12 1_555 1_555
Se7_12 Re9_12 1_555 1_555
Se8_12 Re11_12 1_555 1_555
C12_20 N9_10 1_555 1_555
Re7_12 Re9_12 1_555 1_555
Re7_12 Re11_12 1_555 1_555
Re7_12 Se9_12 1_555 1_555
Re7_12 Se11_12 1_555 1_555
Re9_12 Re11_12 1_555 1_555
Re9_12 Se9_12 1_555 1_555
Re9_12 Se13_12 1_555 1_555
Re11_12 Se11_12 1_555 1_555
Re11_12 Se13_12 1_555 1_555
O10_20 H9_20 1_555 1_555
O10_20 H10_20 1_555 1_555
O9_20 H11_20 1_555 1_555
O9_20 H12_20 1_555 1_555
O11_20 H13_20 1_555 1_555
O11_20 H14_20 1_555 1_555
O7_18 C7_18 1_555 1_555
O14_5 C7_18 1_555 1_555
C7_18 C8_18 1_555 1_555
C8_18 O6_21 1_555 1_555
H2_18 C9_18 1_555 1_555
Gd8_6 O7_18 1_555 1_555
C8_18 C9_18 1_555 1_555
O14_12 C4_18 1_555 1_555
C4_18 O12_12 1_555 1_555
C5_18 C4_18 1_555 1_555
C6_18 C5_18 1_555 1_555
H1_18 C6_18 1_555 1_555
O6_22 C5_18 1_555 1_555
C11_21 Re9_11 1_555 1_555
N8_4 C11_21 1_555 1_555
Se1_11 Re7_12 1_555 1_555
C1_11 Re7_12 1_555 1_555
C2_11 Re9_12 1_555 1_555
C3_11 Re11_12 1_555 1_555
N1_11 C1_11 1_555 1_555
N7_2 C2_11 1_555 1_555
N3_11 C3_11 1_555 1_555
Gd8_4 N1_11 1_555 1_555
O1_11 Gd8_4 1_555 1_555
O2_11 Gd8_4 1_555 1_555
O3_11 Gd8_4 1_555 1_555
Se5_21 Re7_11 1_555 1_555
C10_21 Re7_11 1_555 1_555
C12_21 Re11_11 1_555 1_555
N4_21 C10_21 1_555 1_555
N6_11 Gd8_4 1_555 1_555
Gd8_6 N4_21 1_555 1_555
O9_21 Gd8_6 1_555 1_555
O10_21 Gd8_6 1_555 1_555
O11_21 Gd8_6 1_555 1_555
N9_11 Gd8_6 1_555 1_555
Gd8_5 N3_11 1_555 1_555
Re9_12 Se1_11 1_555 1_555
Re11_12 Se1_11 1_555 1_555
Re11_11 Se5_21 1_555 1_555
C12_21 N6_11 1_555 1_555
O1_11 H3_11 1_555 1_555
O1_11 H4_11 1_555 1_555
O2_11 H5_11 1_555 1_555
O2_11 H6_11 1_555 1_555
O3_11 H7_11 1_555 1_555
O3_11 H8_11 1_555 1_555
O10_21 H9_21 1_555 1_555
O10_21 H10_21 1_555 1_555
O9_21 H11_21 1_555 1_555
O9_21 H12_21 1_555 1_555
O11_21 H13_21 1_555 1_555
O11_21 H14_21 1_555 1_555
Se5_22 Re8_6 1_555 1_555
C10_22 Re8_6 1_555 1_555
C12_22 Re12_6 1_555 1_555
N4_22 C10_22 1_555 1_555
Gd8_5 N4_22 1_555 1_555
O9_22 Gd8_5 1_555 1_555
O10_22 Gd8_5 1_555 1_555
O11_22 Gd8_5 1_555 1_555
Re12_6 Se5_22 1_555 1_555
C12_22 N9_11 1_555 1_555
O10_22 H9_22 1_555 1_555
O10_22 H10_22 1_555 1_555
O9_22 H11_22 1_555 1_555
O9_22 H12_22 1_555 1_555
O11_22 H13_22 1_555 1_555
O11_22 H14_22 1_555 1_555
C11_22 Re10_6 1_555 1_555
N8_3 C11_22 1_555 1_555
Se1_12 Re7_8 1_555 1_555
C2_12 Re9_8 1_555 1_555
C3_12 Re11_8 1_555 1_555
N7_5 C2_12 1_555 1_555
N3_12 C3_12 1_555 1_555
Gd7 N3_12 1_555 1_555
Re9_8 Se1_12 1_555 1_555
Re11_8 Se1_12 1_555 1_555
N1_12 C1_12 1_555 1_555
Gd6 N1_12 1_555 1_555
O1_12 Gd6 1_555 1_555
O2_12 Gd6 1_555 1_555
O3_12 Gd6 1_555 1_555
O1_12 H3_12 1_555 1_555
O1_12 H4_12 1_555 1_555
O2_12 H5_12 1_555 1_555
O2_12 H6_12 1_555 1_555
O3_12 H7_12 1_555 1_555
O3_12 H8_12 1_555 1_555
Se5_23 Re7_7 1_555 1_555
C10_23 Re7_7 1_555 1_555
C11_23 Re9_7 1_555 1_555
C12_23 Re11_7 1_555 1_555
N4_23 C10_23 1_555 1_555
N8_10 C11_23 1_555 1_555
Gd7_2 N4_23 1_555 1_555
O9_23 Gd7_2 1_555 1_555
O10_23 Gd7_2 1_555 1_555
O11_23 Gd7_2 1_555 1_555
Re9_7 Se5_23 1_555 1_555
Re11_7 Se5_23 1_555 1_555
C12_23 N6_12 1_555 1_555
O10_23 H9_23 1_555 1_555
O10_23 H10_23 1_555 1_555
O9_23 H11_23 1_555 1_555
O9_23 H12_23 1_555 1_555
O11_23 H13_23 1_555 1_555
O11_23 H14_23 1_555 1_555
N4_24 C10_24 1_555 1_555
Gd7 N4_24 1_555 1_555
O9_24 Gd7 1_555 1_555
O10_24 Gd7 1_555 1_555
O11_24 Gd7 1_555 1_555
O10_24 H9_24 1_555 1_555
O10_24 H10_24 1_555 1_555
O9_24 H11_24 1_555 1_555
O9_24 H12_24 1_555 1_555
O11_24 H13_24 1_555 1_555
O11_24 H14_24 1_555 1_555
Se5_24 Re8_4 1_555 1_555
C11_24 Re10_4 1_555 1_555
C12_24 Re12_4 1_555 1_555
N8_9 C11_24 1_555 1_555
Re10_4 Se5_24 1_555 1_555
Re12_4 Se5_24 1_555 1_555
C12_24 N9_12 1_555 1_555

#END
