
###############################################################################
#
# This file contains modified crystal structure data generated from the
# MOF subset of the Cambridge Structural Database (CSD) v543 
# hosted by the Cambridge Crystallographic Data Centre (CCDC).
#
# This work is licensed under the Creative Commons
# Attribution-NonCommercial-ShareAlike 4.0 International License.
# To view a copy of this license, visit
# http://creativecommons.org/licenses/by-nc-sa/4.0/
# or send a letter to
# Creative Commons, PO Box 1866, Mountain View, CA 94042, USA.
#
# CIF created using the CSD Python API on 29 September 2022
# The structure has been converted into the P1 space group
# The structure has a 3D framework
# The original CSD entry HESDAN is in the rhombohedral crystal system
# The framework has been calculated to contain at least 10.0% void space
# The void calculation uses a probe of radius 1.32A, grid spacing 0.4
# H atom positions have been added when not included in the experimental data
#
###############################################################################

data_HESDAN
_chemical_formula_moiety         '(C216 H252 Gd36 N108 O174 Re108 S22 Se90)n'
_symmetry_cell_setting           triclinic
_symmetry_space_group_name_H-M   'P 1'
_symmetry_Int_Tables_number      1
_space_group_name_Hall           'P 1'
loop_
_symmetry_equiv_pos_site_id
_symmetry_equiv_pos_as_xyz
1 x,y,z
_cell_length_a                   27.7451(6)
_cell_length_b                   27.7451(6)
_cell_length_c                   31.9252(8)
_cell_angle_alpha                90
_cell_angle_beta                 90
_cell_angle_gamma                120
_cell_volume                     21283.2
loop_
_atom_site_label
_atom_site_type_symbol
_atom_site_fract_x
_atom_site_fract_y
_atom_site_fract_z
Re1 Re 0.10180(2) 0.71750(2) 0.06867(2)
Re2 Re 0.10979(2) 0.80456(2) 0.02883(2)
Re3 Re 0.19650(2) 0.81239(2) 0.06833(2)
Se1 Se 0.15867(2) 0.75465(2) 0.00310(2)
Se2 Se 0.01976(2) 0.71296(2) 0.03088(2)
Se3 Se 0.18603(2) 0.72824(2) 0.10645(2)
Se4 Se 0.20116(2) 0.89531(2) 0.03147(2)
C1 C 0.0808(2) 0.6354(2) 0.05450(17)
C3 C 0.2792(3) 0.8385(3) 0.05139(18)
N1 N 0.0731(2) 0.5917(2) 0.04757(15)
N3 N 0.3249(2) 0.8544(2) 0.04294(15)
Gd1 Gd 0.09692(2) 0.52090(2) 0.02289(2)
O1 O 0.17969(19) 0.59588(19) 0.05489(14)
O4 O 0.00566(17) 0.45889(16) 0.02897(12)
H1 H 0.0196 0.3784 0.0652
Re4 Re 0.28250(2) 0.38430(3) 0.06867(2)
Re5 Re 0.19544(2) 0.30523(3) 0.02883(2)
Re6 Re 0.18761(2) 0.38411(3) 0.06833(2)
Se5 Se 0.24535(2) 0.40402(3) 0.00310(2)
Se6 Se 0.28704(2) 0.30680(3) 0.03088(2)
Se7 Se 0.27176(2) 0.45779(3) 0.10645(2)
Se8 Se 0.10469(2) 0.30585(3) 0.03147(2)
C10 C 0.3646(2) 0.4454(3) 0.05450(17)
C12 C 0.1615(3) 0.4407(4) 0.05139(18)
N4 N 0.4083(2) 0.4814(3) 0.04757(15)
N6 N 0.1456(2) 0.4705(3) 0.04294(15)
Gd2 Gd 0.47910(2) 0.57602(3) 0.02289(2)
O8 O 0.40412(19) 0.58381(27) 0.05489(14)
Re7 Re 0.23153(2) 0.28237(3) 0.09800(2)
Re8 Re 0.05083(2) 0.76847(2) 0.09800(2)
Re9 Re 0.22354(2) 0.36144(3) 0.13784(2)
Re10 Re 0.13789(2) 0.77646(2) 0.13784(2)
Re11 Re 0.13683(2) 0.28256(3) 0.09834(2)
Re12 Re 0.14572(2) 0.86317(2) 0.09834(2)
Se9 Se 0.31357(2) 0.35987(3) 0.13579(2)
Se10 Se 0.04629(2) 0.68643(2) 0.13579(2)
Se11 Se 0.14730(2) 0.20888(3) 0.06022(2)
Se12 Se 0.06157(2) 0.85270(2) 0.06022(2)
Se13 Se 0.13217(2) 0.36082(3) 0.13520(2)
Se14 Se 0.22864(2) 0.86783(2) 0.13520(2)
N7 N 0.0779(3) 0.5013(2) 0.10048(15)
N8 N 0.4987(2) 0.5767(2) 0.10048(15)
N9 N 0.5295(3) 0.6751(2) 0.04294(15)
Gd3 Gd 0.42398(3) 0.90308(2) 0.02289(2)
O11 O 0.54111(16) 0.54677(23) 0.02897(12)
H7 H 0.171873 0.599892 0.0846468
H8 H 0.210398 0.587342 0.053425
H9 H 0.400108 0.571982 0.0846468
H10 H 0.412658 0.623056 0.053425
C2 C 0.0959(2) 0.8226(2) 0.96678(17)
N2 N 0.0900(2) 0.8346(2) 0.93381(15)
O2 O 0.17341(18) 0.55193(19) 0.97301(12)
O3 O 0.06624(18) 0.44095(17) 0.97193(13)
C11 C 0.1774(2) 0.2733(3) 0.96678(17)
N5 N 0.1654(2) 0.2554(3) 0.93381(15)
O9 O 0.44807(19) 0.62148(26) 0.97301(12)
O10 O 0.55905(17) 0.62529(25) 0.97193(13)
Gd6 Gd 0.09065(3) 0.85423(2) 0.85622(2)
Gd7 Gd 0.14577(2) 0.23641(2) 0.85622(2)
O12 O 0.08179(17) 0.56033(17) 0.96279(12)
O13 O 0.43967(17) 0.52146(24) 0.96279(12)
H3 H 0.208035 0.5821 0.985796
H4 H 0.178846 0.520206 0.965608
H5 H 0.0678642 0.454627 0.942931
H6 H 0.0913169 0.425178 0.974361
H11 H 0.4179 0.625935 0.985796
H12 H 0.479794 0.65864 0.965608
H13 H 0.545373 0.613238 0.942931
H14 H 0.574822 0.666139 0.974361
O5 O 0.91821(17) 0.43967(17) 0.03721(12)
C4 C 0.9571(2) 0.4291(2) 0.04267(17)
C5 C 0.9447(2) 0.3777(2) 0.06481(16)
C6 C 0.9814(2) 0.3589(2) 0.07290(17)
S1 S 0.87931(7) 0.3333 0.0833
O6 O 0.88010(23) 0.20778(16) 0.13770(12)
O7 O 0.81187(24) 0.22700(17) 0.12946(12)
C7 C 0.8613(3) 0.2376(2) 0.12400(17)
C8 C 0.9003(3) 0.2890(2) 0.10186(16)
C9 C 0.9558(3) 0.3078(2) 0.09377(17)
H2 H 0.9745 0.2883 0.1015
Gd4 Gd 0.90935(3) 0.14577(2) 0.14378(2)
Gd8 Gd 0.75731(3) 0.18757(2) 0.18956(2)
Gd5 Gd 0.90308(2) 0.47910(2) 0.97711(2)
O5_2 O 0.56033(17) 0.47854(24) 0.03721(12)
C4_2 C 0.5709(2) 0.5280(3) 0.04267(17)
C5_2 C 0.6223(2) 0.5670(3) 0.06481(16)
C6_2 C 0.6411(2) 0.6225(3) 0.07290(17)
H1_2 H 0.6216 0.6412 0.0652
S1_2 S 0.6667 0.54601(7) 0.0833
O6_2 O 0.79222(16) 0.67233(28) 0.13770(12)
O7_2 O 0.77300(17) 0.58488(29) 0.12946(12)
C7_2 C 0.7624(2) 0.6238(4) 0.12400(17)
C8_2 C 0.7110(2) 0.6114(4) 0.10186(16)
C9_2 C 0.6922(2) 0.6481(4) 0.09377(17)
H2_2 H 0.7117 0.6863 0.1015
Re4_2 Re 0.61570(3) 0.89820(4) 0.06867(2)
Re5_2 Re 0.69477(3) 0.89021(4) 0.02883(2)
Re6_2 Re 0.61589(3) 0.80350(4) 0.06833(2)
Se5_2 Se 0.59598(3) 0.84133(4) 0.00310(2)
Se6_2 Se 0.69320(3) 0.98024(4) 0.03088(2)
Se7_2 Se 0.54221(3) 0.81397(4) 0.10645(2)
Se8_2 Se 0.69415(3) 0.79884(4) 0.03147(2)
C10_2 C 0.5546(3) 0.9192(4) 0.05450(17)
C12_2 C 0.5593(4) 0.7208(5) 0.05139(18)
N4_2 N 0.5186(3) 0.9269(4) 0.04757(15)
O8_2 O 0.41619(27) 0.82031(33) 0.05489(14)
Re7_2 Re 0.71763(3) 0.94917(4) 0.09800(2)
Re9_2 Re 0.63856(3) 0.86211(4) 0.13784(2)
Re11_2 Re 0.71744(3) 0.85428(4) 0.09834(2)
Se9_2 Se 0.64013(3) 0.95371(4) 0.13579(2)
Se11_2 Se 0.79112(3) 0.93843(4) 0.06022(2)
Se13_2 Se 0.63918(3) 0.77136(4) 0.13520(2)
N8_2 N 0.4233(2) 0.9221(3) 0.10048(15)
Gd4_2 Gd 0.85423(2) 0.76359(4) 0.14378(2)
Gd8_2 Gd 0.81243(2) 0.56975(4) 0.18956(2)
O11_2 O 0.45323(23) 0.99434(28) 0.02897(12)
H9_2 H 0.428018 0.828127 0.0846468
H10_2 H 0.376944 0.789602 0.053425
C11_2 C 0.7267(3) 0.9041(4) 0.96678(17)
N5_2 N 0.7446(3) 0.9100(4) 0.93381(15)
O9_2 O 0.37852(26) 0.82659(32) 0.97301(12)
O10_2 O 0.37471(25) 0.93376(30) 0.97193(13)
Gd5_2 Gd 0.52090(2) 0.42398(3) 0.97711(2)
Gd7_2 Gd 0.76359(2) 0.90935(3) 0.85622(2)
O13_2 O 0.47854(24) 0.91821(29) 0.96279(12)
H11_2 H 0.374065 0.791965 0.985796
H12_2 H 0.34136 0.821154 0.965608
H13_2 H 0.386762 0.932136 0.942931
H14_2 H 0.333861 0.908683 0.974361
O5_3 O 0.52146(24) 0.08179(17) 0.03721(12)
C4_3 C 0.4720(3) 0.0429(2) 0.04267(17)
C5_3 C 0.4330(3) 0.0553(2) 0.06481(16)
C6_3 C 0.3775(3) 0.0186(2) 0.07290(17)
S1_3 S 0.45399(7) 0.12069(7) 0.0833
O6_3 O 0.32767(28) 0.11990(23) 0.13770(12)
O7_3 O 0.41512(29) 0.18813(24) 0.12946(12)
C7_3 C 0.3762(4) 0.1387(3) 0.12400(17)
C8_3 C 0.3886(4) 0.0997(3) 0.10186(16)
C9_3 C 0.3519(4) 0.0442(3) 0.09377(17)
H2_3 H 0.3137 0.0255 0.1015
Gd4_3 Gd 0.23641(4) 0.09065(3) 0.14378(2)
Gd8_3 Gd 0.43025(4) 0.24269(3) 0.18956(2)
Gd5_3 Gd 0.57602(3) 0.09692(2) 0.97711(2)
H1_3 H 0.3588 0.9804 0.0652
Re1_2 Re 0.38430(3) 0.28250(2) 0.43133(2)
Re2_2 Re 0.30523(3) 0.19544(2) 0.47117(2)
Re3_2 Re 0.38411(3) 0.18761(2) 0.43167(2)
Se1_2 Se 0.40402(3) 0.24535(2) 0.49690(2)
Se2_2 Se 0.30680(3) 0.28704(2) 0.46912(2)
Se3_2 Se 0.45779(3) 0.27176(2) 0.39355(2)
Se4_2 Se 0.30585(3) 0.10469(2) 0.46853(2)
C1_2 C 0.4454(3) 0.3646(2) 0.44550(17)
C2_2 C 0.2733(3) 0.1774(2) 0.53322(17)
C3_2 C 0.4407(4) 0.1615(3) 0.44861(18)
N1_2 N 0.4814(3) 0.4083(2) 0.45243(15)
N2_2 N 0.2554(3) 0.1654(2) 0.56619(15)
N3_2 N 0.4705(3) 0.1456(2) 0.45706(15)
Gd1_2 Gd 0.57602(3) 0.47910(2) 0.47711(2)
O1_2 O 0.58381(27) 0.40412(19) 0.44511(14)
O2_2 O 0.62148(26) 0.44807(19) 0.52699(12)
O3_2 O 0.62529(25) 0.55905(17) 0.52807(13)
O4_2 O 0.54677(23) 0.54111(16) 0.47103(12)
O5_4 O 0.47854(24) 0.56033(17) 0.46279(12)
C4_4 C 0.5280(3) 0.5709(2) 0.45733(17)
C5_4 C 0.5670(3) 0.6223(2) 0.43519(16)
C6_4 C 0.6225(3) 0.6411(2) 0.42710(17)
H1_4 H 0.6412 0.6216 0.4348
S1_4 S 0.54601(7) 0.6667 0.4167
O6_4 O 0.67233(28) 0.79222(16) 0.36230(12)
O7_4 O 0.58488(29) 0.77300(17) 0.37054(12)
C7_4 C 0.6238(4) 0.7624(2) 0.37600(17)
C8_4 C 0.6114(4) 0.7110(2) 0.39814(16)
C9_4 C 0.6481(4) 0.6922(2) 0.40623(17)
H2_4 H 0.6863 0.7117 0.3985
Re4_3 Re 0.89820(4) 0.61570(3) 0.43133(2)
Re5_3 Re 0.89021(4) 0.69477(3) 0.47117(2)
Re6_3 Re 0.80350(4) 0.61589(3) 0.43167(2)
Se5_3 Se 0.84133(4) 0.59598(3) 0.49690(2)
Se6_3 Se 0.98024(4) 0.69320(3) 0.46912(2)
Se7_3 Se 0.81397(4) 0.54221(3) 0.39355(2)
Se8_3 Se 0.79884(4) 0.69415(3) 0.46853(2)
C10_3 C 0.9192(4) 0.5546(3) 0.44550(17)
C11_3 C 0.9041(4) 0.7267(3) 0.53322(17)
C12_3 C 0.7208(5) 0.5593(4) 0.44861(18)
N4_3 N 0.9269(4) 0.5186(3) 0.45243(15)
N5_3 N 0.9100(4) 0.7446(3) 0.56619(15)
N6_2 N 0.6751(4) 0.5295(3) 0.45706(15)
Gd2_2 Gd 0.90308(4) 0.42398(3) 0.47711(2)
O8_3 O 0.82031(33) 0.41619(27) 0.44511(14)
O9_3 O 0.82659(32) 0.37852(26) 0.52699(12)
O10_3 O 0.93376(30) 0.37471(25) 0.52807(13)
Re7_3 Re 0.94917(4) 0.71763(3) 0.40200(2)
Re8_2 Re 0.28237(3) 0.23153(2) 0.40200(2)
Re9_3 Re 0.86211(4) 0.63856(3) 0.36216(2)
Re10_2 Re 0.36144(3) 0.22354(2) 0.36216(2)
Re11_3 Re 0.85428(4) 0.71744(3) 0.40166(2)
Re12_2 Re 0.28256(3) 0.13683(2) 0.40166(2)
Se9_3 Se 0.95371(4) 0.64013(3) 0.36421(2)
Se10_2 Se 0.35987(3) 0.31357(2) 0.36421(2)
Se11_3 Se 0.93843(4) 0.79112(3) 0.43978(2)
Se12_2 Se 0.20888(3) 0.14730(2) 0.43978(2)
Se13_3 Se 0.77136(4) 0.63918(3) 0.36480(2)
Se14_2 Se 0.36082(3) 0.13217(2) 0.36480(2)
N7_2 N 0.5767(4) 0.4987(2) 0.39952(15)
N8_3 N 0.9221(3) 0.4233(2) 0.39952(15)
N9_2 N 0.8544(4) 0.3249(2) 0.45706(15)
Gd3_2 Gd 0.52090(4) 0.09692(2) 0.47711(2)
Gd4_4 Gd 0.76359(4) 0.85423(2) 0.35622(2)
Gd5_4 Gd 0.42398(3) 0.52090(2) 0.52289(2)
Gd6_2 Gd 0.23641(4) 0.14577(2) 0.64378(2)
Gd7_3 Gd 0.90935(3) 0.76359(2) 0.64378(2)
Gd8_4 Gd 0.56975(4) 0.81243(2) 0.31044(2)
O11_3 O 0.99434(28) 0.45323(23) 0.47103(12)
O12_2 O 0.52146(24) 0.43967(17) 0.53721(12)
O13_3 O 0.91821(29) 0.47854(24) 0.53721(12)
H3_2 H 0.625935 0.4179 0.514204
H4_2 H 0.65864 0.479794 0.534392
H5_2 H 0.613238 0.545373 0.557069
H6_2 H 0.666139 0.574822 0.525639
H7_2 H 0.571982 0.400108 0.415353
H8_2 H 0.623056 0.412658 0.446575
H9_3 H 0.828127 0.428018 0.415353
H10_3 H 0.789602 0.376944 0.446575
H11_3 H 0.791965 0.374065 0.514204
H12_3 H 0.821154 0.34136 0.534392
H13_3 H 0.932136 0.386762 0.557069
H14_3 H 0.908683 0.333861 0.525639
O5_5 O 0.08179(17) 0.52146(24) 0.46279(12)
C4_5 C 0.0429(2) 0.4720(3) 0.45733(17)
C5_5 C 0.0553(2) 0.4330(3) 0.43519(16)
C6_5 C 0.0186(2) 0.3775(3) 0.42710(17)
S1_5 S 0.12069(7) 0.45399(7) 0.4167
O6_5 O 0.11990(23) 0.32767(28) 0.36230(12)
O7_5 O 0.18813(24) 0.41512(29) 0.37054(12)
C7_5 C 0.1387(3) 0.3762(4) 0.37600(17)
C8_5 C 0.0997(3) 0.3886(4) 0.39814(16)
C9_5 C 0.0442(3) 0.3519(4) 0.40623(17)
H2_5 H 0.0255 0.3137 0.3985
Gd4_5 Gd 0.09065(3) 0.23641(4) 0.35622(2)
Gd5_5 Gd 0.09692(2) 0.57602(3) 0.52289(2)
Gd8_5 Gd 0.24269(3) 0.43025(4) 0.31044(2)
H1_5 H 0.9804 0.3588 0.4348
Re4_4 Re 0.71750(2) 0.10180(4) 0.43133(2)
Re5_4 Re 0.80456(2) 0.10979(4) 0.47117(2)
Re6_4 Re 0.81239(2) 0.19650(4) 0.43167(2)
Se5_4 Se 0.75465(2) 0.15867(4) 0.49690(2)
Se6_4 Se 0.71296(2) 0.01976(4) 0.46912(2)
Se7_4 Se 0.72824(2) 0.18603(4) 0.39355(2)
Se8_4 Se 0.89531(2) 0.20116(4) 0.46853(2)
C10_4 C 0.6354(2) 0.0808(4) 0.44550(17)
C11_4 C 0.8226(2) 0.0959(4) 0.53322(17)
C12_4 C 0.8385(3) 0.2792(5) 0.44861(18)
N4_4 N 0.5917(2) 0.0731(4) 0.45243(15)
N5_4 N 0.8346(2) 0.0900(4) 0.56619(15)
O8_4 O 0.59588(19) 0.17969(33) 0.44511(14)
O9_4 O 0.55193(19) 0.17341(32) 0.52699(12)
O10_4 O 0.44095(17) 0.06624(30) 0.52807(13)
Re7_4 Re 0.76847(2) 0.05083(4) 0.40200(2)
Re9_4 Re 0.77646(2) 0.13789(4) 0.36216(2)
Re11_4 Re 0.86317(2) 0.14572(4) 0.40166(2)
Se9_4 Se 0.68643(2) 0.04629(4) 0.36421(2)
Se11_4 Se 0.85270(2) 0.06157(4) 0.43978(2)
Se13_4 Se 0.86783(2) 0.22864(4) 0.36480(2)
N8_4 N 0.5013(2) 0.0779(3) 0.39952(15)
Gd7_4 Gd 0.85423(2) 0.09065(3) 0.64378(2)
O11_4 O 0.45889(16) 0.00566(28) 0.47103(12)
O13_4 O 0.56033(17) 0.08179(29) 0.53721(12)
H9_4 H 0.599892 0.171873 0.415353
H10_4 H 0.587342 0.210398 0.446575
H11_4 H 0.5821 0.208035 0.514204
H12_4 H 0.520206 0.178846 0.534392
H13_4 H 0.454627 0.0678642 0.557069
H14_4 H 0.425178 0.0913169 0.525639
H1_6 H 0.3784 0.0196 0.4348
O5_6 O 0.43967(17) 0.91821(17) 0.46279(12)
C4_6 C 0.4291(2) 0.9571(2) 0.45733(17)
C5_6 C 0.3777(2) 0.9447(2) 0.43519(16)
C6_6 C 0.3589(2) 0.9814(2) 0.42710(17)
S1_6 S 0.3333 0.87931(7) 0.4167
O6_6 O 0.20778(16) 0.88010(23) 0.36230(12)
O7_6 O 0.22700(17) 0.81187(24) 0.37054(12)
C7_6 C 0.2376(2) 0.8613(3) 0.37600(17)
C8_6 C 0.2890(2) 0.9003(3) 0.39814(16)
C9_6 C 0.3078(2) 0.9558(3) 0.40623(17)
H2_6 H 0.2883 0.9745 0.3985
Gd4_6 Gd 0.14577(2) 0.90935(3) 0.35622(2)
Gd5_6 Gd 0.47910(2) 0.90308(2) 0.52289(2)
Gd8_6 Gd 0.18757(2) 0.75731(3) 0.31044(2)
N9_3 N 0.1962(3) 0.0084(2) 0.37627(15)
C10_5 C 0.0313(2) 0.7787(3) 0.38783(17)
N4_5 N 0.0750(2) 0.8147(3) 0.38090(15)
O8_5 O 0.07079(19) 0.91714(27) 0.38822(14)
O9_5 O 0.11474(19) 0.95481(26) 0.30634(12)
O10_5 O 0.22572(17) 0.95862(25) 0.30526(13)
N8_5 N 0.1654(2) 0.9100(2) 0.43381(15)
O13_5 O 0.10634(17) 0.85479(24) 0.29612(12)
H9_5 H 0.0667751 0.905315 0.41798
H10_5 H 0.0793245 0.95639 0.386758
H11_5 H 0.0845664 0.959268 0.319129
H12_5 H 0.14646 0.991973 0.298942
H13_5 H 0.21204 0.946571 0.276264
H14_5 H 0.241488 0.999472 0.307694
Se1_3 Se 0.82534(2) 0.08798(2) 0.33643(2)
C2_3 C 0.7626(2) 0.1559(2) 0.30011(17)
C3_3 C 0.9459(3) 0.1718(3) 0.38472(18)
N2_3 N 0.7567(2) 0.1679(2) 0.26714(15)
N3_3 N 0.9916(2) 0.1877(2) 0.37627(15)
C1_3 C 0.7475(2) 0.9687(2) 0.38783(17)
N1_3 N 0.7398(2) 0.9250(2) 0.38090(15)
O1_3 O 0.84636(19) 0.92921(19) 0.38822(14)
O2_3 O 0.84008(18) 0.88526(19) 0.30634(12)
O3_3 O 0.73291(18) 0.77428(17) 0.30526(13)
Se5_5 Se 0.91202(2) 0.73735(3) 0.33643(2)
C11_5 C 0.8441(2) 0.6066(3) 0.30011(17)
C12_5 C 0.8282(3) 0.7740(4) 0.38472(18)
N5_5 N 0.8321(2) 0.5887(3) 0.26714(15)
N6_3 N 0.8123(2) 0.8038(3) 0.37627(15)
N7_3 N 0.7446(3) 0.8346(2) 0.43381(15)
O12_3 O 0.74846(17) 0.89366(17) 0.29612(12)
H3_3 H 0.874702 0.915434 0.319129
H4_3 H 0.845513 0.85354 0.298942
H5_3 H 0.734531 0.78796 0.276264
H6_3 H 0.757984 0.758512 0.307694
H7_3 H 0.83854 0.933225 0.41798
H8_3 H 0.877065 0.920675 0.386758
Se5_6 Se 0.26265(3) 0.17466(4) 0.33643(2)
C10_6 C 0.2213(3) 0.2525(4) 0.38783(17)
C11_6 C 0.3934(3) 0.2374(4) 0.30011(17)
C12_6 C 0.2260(4) 0.0541(5) 0.38472(18)
N4_6 N 0.1853(3) 0.2602(4) 0.38090(15)
N5_6 N 0.4113(3) 0.2433(4) 0.26714(15)
O8_6 O 0.08286(27) 0.15364(33) 0.38822(14)
O9_6 O 0.04519(26) 0.15992(32) 0.30634(12)
O10_6 O 0.04138(25) 0.26709(30) 0.30526(13)
N8_6 N 0.0900(2) 0.2554(3) 0.43381(15)
O13_6 O 0.14521(24) 0.25154(29) 0.29612(12)
H9_6 H 0.0946851 0.16146 0.41798
H10_6 H 0.0436103 0.122935 0.386758
H11_6 H 0.040732 0.125298 0.319129
H12_6 H 0.00802695 0.154487 0.298942
H13_6 H 0.0534291 0.265469 0.276264
H14_6 H 0.000527952 0.242016 0.307694
S1_7 S 0.21268(7) 0.0000 0.7500
O6_7 O 0.33899(28) 0.12556(16) 0.69564(12)
O7_7 O 0.25154(29) 0.10634(17) 0.70388(12)
C7_7 C 0.2904(4) 0.0958(2) 0.70934(17)
C8_7 C 0.2780(4) 0.0444(2) 0.73148(16)
C9_7 C 0.3147(4) 0.0256(2) 0.73957(17)
H2_7 H 0.3529 0.0451 0.7319
Re5_5 Re 0.55688(4) 0.02810(3) 0.80450(2)
Se6_5 Se 0.64691(4) 0.02653(3) 0.80245(2)
Se8_5 Se 0.46551(4) 0.02748(3) 0.80186(2)
C11_7 C 0.5708(4) 0.0600(3) 0.86655(17)
N5_7 N 0.5767(4) 0.0779(3) 0.89952(15)
Re7_5 Re 0.61583(4) 0.05097(3) 0.73534(2)
Re11_5 Re 0.52094(4) 0.05078(3) 0.73500(2)
Se11_5 Se 0.60509(4) 0.12446(3) 0.77312(2)
Gd4_7 Gd 0.43025(4) 0.18757(2) 0.68956(2)
Re1_3 Re 0.05097(3) 0.61583(2) 0.76466(2)
Re3_3 Re 0.05078(3) 0.52094(2) 0.76500(2)
Se1_4 Se 0.07069(3) 0.57868(2) 0.83023(2)
Se3_3 Se 0.12446(3) 0.60509(2) 0.72688(2)
C1_4 C 0.1121(3) 0.6979(2) 0.77883(17)
C3_4 C 0.1074(4) 0.4948(3) 0.78194(18)
N1_4 N 0.1481(3) 0.7416(2) 0.78576(15)
N3_4 N 0.1372(3) 0.4789(2) 0.79039(15)
Gd1_3 Gd 0.24269(3) 0.81243(2) 0.81044(2)
O1_4 O 0.25048(27) 0.73745(19) 0.77844(14)
O2_4 O 0.28815(26) 0.78140(19) 0.86032(12)
O3_4 O 0.29196(25) 0.89238(17) 0.86140(13)
O4_3 O 0.21344(23) 0.87444(16) 0.80436(12)
O5_7 O 0.14521(24) 0.89366(17) 0.79612(12)
C4_7 C 0.1947(3) 0.9042(2) 0.79066(17)
C5_7 C 0.2337(3) 0.9556(2) 0.76852(16)
C6_7 C 0.2892(3) 0.9744(2) 0.76043(17)
H1_7 H 0.3079 0.9549 0.7681
S1_8 S 0.21268(7) 1.0000 0.7500
Re4_5 Re 0.56487(4) 0.94903(3) 0.76466(2)
Re6_5 Re 0.47017(4) 0.94922(3) 0.76500(2)
Se5_7 Se 0.50800(4) 0.92931(3) 0.83023(2)
Se7_5 Se 0.48064(4) 0.87554(3) 0.72688(2)
C10_7 C 0.5859(4) 0.8879(3) 0.77883(17)
C12_7 C 0.3875(5) 0.8926(4) 0.78194(18)
N4_7 N 0.5936(4) 0.8519(3) 0.78576(15)
N6_4 N 0.3418(4) 0.8628(3) 0.79039(15)
Gd2_3 Gd 0.56975(4) 0.75731(3) 0.81044(2)
O8_7 O 0.48698(33) 0.74952(27) 0.77844(14)
O9_7 O 0.49326(32) 0.71185(26) 0.86032(12)
O10_7 O 0.60043(30) 0.70804(25) 0.86140(13)
Re9_5 Re 0.52877(4) 0.97190(3) 0.69550(2)
Re10_3 Re 0.02810(3) 0.55688(2) 0.69550(2)
Se9_5 Se 0.62037(4) 0.97347(3) 0.69755(2)
Se10_3 Se 0.02653(3) 0.64691(2) 0.69755(2)
Se13_5 Se 0.43802(4) 0.97252(3) 0.69814(2)
Se14_3 Se 0.02748(3) 0.46551(2) 0.69814(2)
N7_4 N 0.2433(4) 0.8321(2) 0.73286(15)
N8_7 N 0.5887(3) 0.7567(2) 0.73286(15)
N9_4 N 0.5211(4) 0.6582(2) 0.79039(15)
Gd3_3 Gd 0.18757(4) 0.43025(2) 0.81044(2)
O11_5 O 0.66101(28) 0.78656(23) 0.80436(12)
O12_4 O 0.18813(24) 0.77300(17) 0.87054(12)
O13_7 O 0.58488(29) 0.81187(24) 0.87054(12)
H3_4 H 0.292601 0.751233 0.847538
H4_4 H 0.325306 0.813127 0.867725
H5_4 H 0.279904 0.878707 0.890403
H6_4 H 0.332805 0.908155 0.858973
H7_4 H 0.238648 0.733442 0.748687
H8_4 H 0.289723 0.745991 0.779908
H9_7 H 0.494793 0.761352 0.748687
H10_7 H 0.456268 0.710277 0.779908
H11_7 H 0.458632 0.707399 0.847538
H12_7 H 0.487821 0.674694 0.867725
H13_7 H 0.598803 0.720096 0.890403
H14_7 H 0.57535 0.667195 0.858973
Re2_3 Re 0.97190(3) 0.52877(2) 0.80450(2)
Se2_3 Se 0.97347(3) 0.62037(2) 0.80245(2)
Se4_3 Se 0.97252(3) 0.43802(2) 0.80186(2)
C2_4 C 0.9400(3) 0.5107(2) 0.86655(17)
N2_4 N 0.9221(3) 0.4987(2) 0.89952(15)
Re8_3 Re 0.94903(3) 0.56487(2) 0.73534(2)
Re12_3 Re 0.94922(3) 0.47017(2) 0.73500(2)
Se12_3 Se 0.87554(3) 0.48064(2) 0.77312(2)
O5_8 O 0.74846(17) 0.85479(24) 0.79612(12)
C4_8 C 0.7096(2) 0.8053(3) 0.79066(17)
C5_8 C 0.7220(2) 0.7663(3) 0.76852(16)
C6_8 C 0.6853(2) 0.7108(3) 0.76043(17)
H1_8 H 0.6471 0.6921 0.7681
S1_9 S 0.78736(7) 0.78732(7) 0.7500
O6_8 O 0.78656(23) 0.66101(28) 0.69564(12)
O7_8 O 0.85479(24) 0.74846(29) 0.70388(12)
C7_8 C 0.8053(3) 0.7096(4) 0.70934(17)
C8_8 C 0.7663(3) 0.7220(4) 0.73148(16)
C9_8 C 0.7108(3) 0.6853(4) 0.73957(17)
H2_8 H 0.6921 0.6471 0.7319
Re4_6 Re 0.38417(2) 0.43513(4) 0.76466(2)
Re5_6 Re 0.47123(2) 0.44312(4) 0.80450(2)
Re6_6 Re 0.47906(2) 0.52983(4) 0.76500(2)
Se5_8 Se 0.42132(2) 0.49200(4) 0.83023(2)
Se6_6 Se 0.37963(2) 0.35309(4) 0.80245(2)
Se7_6 Se 0.39491(2) 0.51936(4) 0.72688(2)
Se8_6 Se 0.56198(2) 0.53449(4) 0.80186(2)
C10_8 C 0.3021(2) 0.4141(4) 0.77883(17)
C11_8 C 0.4893(2) 0.4292(4) 0.86655(17)
C12_8 C 0.5052(3) 0.6125(5) 0.78194(18)
N4_8 N 0.2584(2) 0.4064(4) 0.78576(15)
N5_8 N 0.5013(2) 0.4233(4) 0.89952(15)
O8_8 O 0.26255(19) 0.51302(33) 0.77844(14)
O9_8 O 0.21860(19) 0.50674(32) 0.86032(12)
O10_8 O 0.10762(17) 0.39957(30) 0.86140(13)
Re7_6 Re 0.43513(2) 0.38417(4) 0.73534(2)
Re9_6 Re 0.44312(2) 0.47123(4) 0.69550(2)
Re11_6 Re 0.52983(2) 0.47906(4) 0.73500(2)
Se9_6 Se 0.35309(2) 0.37963(4) 0.69755(2)
Se11_6 Se 0.51936(2) 0.39491(4) 0.77312(2)
Se13_6 Se 0.53449(2) 0.56198(4) 0.69814(2)
N8_8 N 0.1679(2) 0.4113(3) 0.73286(15)
Gd4_8 Gd 0.75731(3) 0.56975(4) 0.68956(2)
O11_6 O 0.12556(16) 0.33899(28) 0.80436(12)
O13_8 O 0.22700(17) 0.41512(29) 0.87054(12)
H9_8 H 0.266558 0.505207 0.748687
H10_8 H 0.254009 0.543732 0.779908
H11_8 H 0.248767 0.541368 0.847538
H12_8 H 0.186873 0.512179 0.867725
H13_8 H 0.121293 0.401197 0.890403
H14_8 H 0.0918448 0.42465 0.858973
O5_9 O 0.10634(17) 0.25154(17) 0.79612(12)
C4_9 C 0.0958(2) 0.2904(2) 0.79066(17)
C5_9 C 0.0444(2) 0.2780(2) 0.76852(16)
C6_9 C 0.0256(2) 0.3147(2) 0.76043(17)
H1_9 H 0.0451 0.3529 0.7681
S1_10 S -0.0000 0.21264(7) 0.7500
S1_11 S 1.0000 0.21264(7) 0.7500
O6_9 O 0.87444(16) 0.21344(23) 0.69564(12)
O7_9 O 0.89366(17) 0.14521(24) 0.70388(12)
C7_9 C 0.9042(2) 0.1947(3) 0.70934(17)
C8_9 C 0.9556(2) 0.2337(3) 0.73148(16)
C9_9 C 0.9744(2) 0.2892(3) 0.73957(17)
H2_9 H 0.9549 0.3079 0.7319
Gd4_9 Gd 0.81243(2) 0.24269(3) 0.68956(2)
Se1_5 Se 0.49200(2) 0.42132(2) 0.66977(2)
C1_5 C 0.4141(2) 0.3021(2) 0.72117(17)
C2_5 C 0.4292(2) 0.4893(2) 0.63345(17)
C3_5 C 0.6125(3) 0.5052(3) 0.71806(18)
N1_5 N 0.4064(2) 0.2584(2) 0.71424(15)
N2_5 N 0.4233(2) 0.5013(2) 0.60048(15)
N3_5 N 0.6582(2) 0.5211(2) 0.70961(15)
O1_5 O 0.51302(19) 0.26255(19) 0.72156(14)
O2_5 O 0.50674(18) 0.21860(19) 0.63968(12)
O3_5 O 0.39957(18) 0.10762(17) 0.63860(13)
Se5_9 Se 0.57868(2) 0.07069(3) 0.66977(2)
C10_9 C 0.6979(2) 0.1121(3) 0.72117(17)
C12_9 C 0.4948(3) 0.1074(4) 0.71806(18)
N4_9 N 0.7416(2) 0.1481(3) 0.71424(15)
N6_5 N 0.4789(2) 0.1372(3) 0.70961(15)
O8_9 O 0.73745(19) 0.25048(27) 0.72156(14)
O9_9 O 0.78140(19) 0.28815(26) 0.63968(12)
O10_9 O 0.89238(17) 0.29196(25) 0.63860(13)
N7_5 N 0.4113(3) 0.1679(2) 0.76714(15)
N8_9 N 0.8321(2) 0.2433(2) 0.76714(15)
N9_5 N 0.8628(3) 0.3418(2) 0.70961(15)
O12_5 O 0.41512(17) 0.22700(17) 0.62946(12)
O13_9 O 0.77300(17) 0.18813(24) 0.62946(12)
H3_5 H 0.541368 0.248767 0.652462
H4_5 H 0.512179 0.186873 0.632275
H5_5 H 0.401197 0.121293 0.609597
H6_5 H 0.42465 0.0918448 0.641027
H7_5 H 0.505207 0.266558 0.751313
H8_5 H 0.543732 0.254009 0.720092
H9_9 H 0.733442 0.238648 0.751313
H10_9 H 0.745991 0.289723 0.720092
H11_9 H 0.751233 0.292601 0.652462
H12_9 H 0.813127 0.325306 0.632275
H13_9 H 0.878707 0.279904 0.609597
H14_9 H 0.908155 0.332805 0.641027
C11_9 C 0.5107(2) 0.9400(3) 0.63345(17)
N5_9 N 0.4987(2) 0.9221(3) 0.60048(15)
C11_10 C 0.0600(3) 0.5708(4) 0.63345(17)
N5_10 N 0.0779(3) 0.5767(4) 0.60048(15)
Se5_10 Se 0.92931(3) 0.50800(4) 0.66977(2)
C10_10 C 0.8879(3) 0.5859(4) 0.72117(17)
C12_10 C 0.8926(4) 0.3875(5) 0.71806(18)
N4_10 N 0.8519(3) 0.5936(4) 0.71424(15)
O8_10 O 0.74952(27) 0.48698(33) 0.72156(14)
O9_10 O 0.71185(26) 0.49326(32) 0.63968(12)
O10_10 O 0.70804(25) 0.60043(30) 0.63860(13)
N8_10 N 0.7567(2) 0.5887(3) 0.76714(15)
O13_10 O 0.81187(24) 0.58488(29) 0.62946(12)
H9_10 H 0.761352 0.494793 0.751313
H10_10 H 0.710277 0.456268 0.720092
H11_10 H 0.707399 0.458632 0.652462
H12_10 H 0.674694 0.487821 0.632275
H13_10 H 0.720096 0.598803 0.609597
H14_10 H 0.667195 0.57535 0.641027
Se5_11 Se 0.17466(4) 0.26265(3) 0.16357(2)
C10_11 C 0.2525(4) 0.2213(3) 0.11217(17)
C11_11 C 0.2374(4) 0.3934(3) 0.19989(17)
C12_11 C 0.0541(5) 0.2260(4) 0.11528(18)
N4_11 N 0.2602(4) 0.1853(3) 0.11910(15)
N5_11 N 0.2433(4) 0.4113(3) 0.23286(15)
N6_6 N 0.0084(4) 0.1962(3) 0.12373(15)
O8_11 O 0.15364(33) 0.08286(27) 0.11178(14)
O9_11 O 0.15992(32) 0.04519(26) 0.19366(12)
O10_11 O 0.26709(30) 0.04138(25) 0.19474(13)
N8_11 N 0.2554(3) 0.0900(2) 0.06619(15)
O13_11 O 0.25154(29) 0.14521(24) 0.20388(12)
H9_11 H 0.16146 0.0946851 0.0820198
H10_11 H 0.122935 0.0436103 0.113242
H11_11 H 0.125298 0.040732 0.180871
H12_11 H 0.154487 0.00802695 0.201058
H13_11 H 0.265469 0.0534291 0.223736
H14_11 H 0.242016 0.000527952 0.192306
N9_6 N 0.1877(4) 0.9916(2) 0.12373(15)
C1_6 C 0.7787(3) 0.0313(2) 0.11217(17)
N1_6 N 0.8147(3) 0.0750(2) 0.11910(15)
O1_6 O 0.91714(27) 0.07079(19) 0.11178(14)
O2_6 O 0.95481(26) 0.11474(19) 0.19366(12)
O3_6 O 0.95862(25) 0.22572(17) 0.19474(13)
N7_6 N 0.9100(4) 0.1654(2) 0.06619(15)
O12_6 O 0.85479(24) 0.10634(17) 0.20388(12)
H3_6 H 0.959268 0.0845664 0.180871
H4_6 H 0.991973 0.14646 0.201058
H5_6 H 0.946571 0.21204 0.223736
H6_6 H 0.999472 0.241488 0.192306
H7_6 H 0.905315 0.0667751 0.0820198
H8_6 H 0.95639 0.0793245 0.113242
Se1_6 Se 0.73735(3) 0.91202(2) 0.16357(2)
C2_6 C 0.6066(3) 0.8441(2) 0.19989(17)
C3_6 C 0.7740(4) 0.8282(3) 0.11528(18)
N2_6 N 0.5887(3) 0.8321(2) 0.23286(15)
N3_6 N 0.8038(3) 0.8123(2) 0.12373(15)
Se5_12 Se 0.08798(2) 0.82534(4) 0.16357(2)
C11_12 C 0.1559(2) 0.7626(4) 0.19989(17)
C12_12 C 0.1718(3) 0.9459(5) 0.11528(18)
N5_12 N 0.1679(2) 0.7567(4) 0.23286(15)
C10_12 C 0.9687(2) 0.7475(4) 0.11217(17)
N4_12 N 0.9250(2) 0.7398(4) 0.11910(15)
O8_12 O 0.92921(19) 0.84636(33) 0.11178(14)
O9_12 O 0.88526(19) 0.84008(32) 0.19366(12)
O10_12 O 0.77428(17) 0.73291(30) 0.19474(13)
N8_12 N 0.8346(2) 0.7446(3) 0.06619(15)
O13_12 O 0.89366(17) 0.74846(29) 0.20388(12)
H9_12 H 0.933225 0.83854 0.0820198
H10_12 H 0.920675 0.877065 0.113242
H11_12 H 0.915434 0.874702 0.180871
H12_12 H 0.85354 0.845513 0.201058
H13_12 H 0.78796 0.734531 0.223736
H14_12 H 0.758512 0.757984 0.192306
C4_10 C 0.0429(2) 0.5709(2) 0.95733(17)
C5_10 C 0.0553(2) 0.6223(2) 0.93519(16)
C6_10 C 0.0186(2) 0.6411(2) 0.92710(17)
S1_12 S 0.12069(7) 0.6667 0.9167
O6_10 O 0.11990(23) 0.79222(16) 0.86230(12)
C7_10 C 0.1387(3) 0.7624(2) 0.87600(17)
C8_10 C 0.0997(3) 0.7110(2) 0.89814(16)
C9_10 C 0.0442(3) 0.6922(2) 0.90623(17)
H2_10 H 0.0255 0.7117 0.8985
C2_7 C 0.9041(2) 0.1774(2) 0.03322(17)
O2_7 O 0.82659(18) 0.44807(19) 0.02699(12)
O3_7 O 0.93376(18) 0.55905(17) 0.02807(13)
C11_13 C 0.8226(2) 0.7267(3) 0.03322(17)
O9_13 O 0.55193(19) 0.37852(26) 0.02699(12)
O10_13 O 0.44095(17) 0.37471(25) 0.02807(13)
H3_7 H 0.791965 0.4179 0.0142043
H4_7 H 0.821154 0.479794 0.0343918
H5_7 H 0.932136 0.545373 0.0570694
H6_7 H 0.908683 0.574822 0.0256393
H11_13 H 0.5821 0.374065 0.0142043
H12_13 H 0.520206 0.34136 0.0343918
H13_13 H 0.454627 0.386762 0.0570694
H14_13 H 0.425178 0.333861 0.0256393
Re1_4 Re 0.89820(2) 0.28250(2) 0.93133(2)
Re2_4 Re 0.89021(2) 0.19544(2) 0.97117(2)
Re3_4 Re 0.80350(2) 0.18761(2) 0.93167(2)
Se1_7 Se 0.84133(2) 0.24535(2) 0.99690(2)
Se2_4 Se 0.98024(2) 0.28704(2) 0.96912(2)
Se3_4 Se 0.81397(2) 0.27176(2) 0.89355(2)
Se4_4 Se 0.79884(2) 0.10469(2) 0.96853(2)
C1_7 C 0.9192(2) 0.3646(2) 0.94550(17)
C3_7 C 0.7208(3) 0.1615(3) 0.94861(18)
N1_7 N 0.9269(2) 0.4083(2) 0.95243(15)
N3_7 N 0.6751(2) 0.1456(2) 0.95706(15)
O1_7 O 0.82031(19) 0.40412(19) 0.94511(14)
O4_4 O 0.99434(17) 0.54111(16) 0.97103(12)
H1_10 H 0.9804 0.6216 0.9348
Re4_7 Re 0.71750(2) 0.61570(3) 0.93133(2)
Re5_7 Re 0.80456(2) 0.69477(3) 0.97117(2)
Re6_7 Re 0.81239(2) 0.61589(3) 0.93167(2)
Se5_13 Se 0.75465(2) 0.59598(3) 0.99690(2)
Se6_7 Se 0.71296(2) 0.69320(3) 0.96912(2)
Se7_7 Se 0.72824(2) 0.54221(3) 0.89355(2)
Se8_7 Se 0.89531(2) 0.69415(3) 0.96853(2)
C10_13 C 0.6354(2) 0.5546(3) 0.94550(17)
C12_13 C 0.8385(3) 0.5593(4) 0.94861(18)
N4_13 N 0.5917(2) 0.5186(3) 0.95243(15)
N6_7 N 0.8544(2) 0.5295(3) 0.95706(15)
O8_13 O 0.59588(19) 0.41619(27) 0.94511(14)
Re7_7 Re 0.76847(2) 0.71763(3) 0.90200(2)
Re8_4 Re 0.94917(2) 0.23153(2) 0.90200(2)
Re9_7 Re 0.77646(2) 0.63856(3) 0.86216(2)
Re10_4 Re 0.86211(2) 0.22354(2) 0.86216(2)
Re11_7 Re 0.86317(2) 0.71744(3) 0.90166(2)
Re12_4 Re 0.85428(2) 0.13683(2) 0.90166(2)
Se9_7 Se 0.68643(2) 0.64013(3) 0.86421(2)
Se10_4 Se 0.95371(2) 0.31357(2) 0.86421(2)
Se11_7 Se 0.85270(2) 0.79112(3) 0.93978(2)
Se12_4 Se 0.93843(2) 0.14730(2) 0.93978(2)
Se13_7 Se 0.86783(2) 0.63918(3) 0.86480(2)
Se14_4 Se 0.77136(2) 0.13217(2) 0.86480(2)
N9_7 N 0.4705(3) 0.3249(2) 0.95706(15)
O11_7 O 0.45889(16) 0.45323(23) 0.97103(12)
H7_7 H 0.828127 0.400108 0.915353
H8_7 H 0.789602 0.412658 0.946575
H9_13 H 0.599892 0.428018 0.915353
H10_13 H 0.587342 0.376944 0.946575
C11_14 C 0.2733(3) 0.0959(4) 0.03322(17)
O9_14 O 0.62148(26) 0.17341(32) 0.02699(12)
O10_14 O 0.62529(25) 0.06624(30) 0.02807(13)
H11_14 H 0.625935 0.208035 0.0142043
H12_14 H 0.65864 0.178846 0.0343918
H13_14 H 0.613238 0.0678642 0.0570694
H14_14 H 0.666139 0.0913169 0.0256393
C4_11 C 0.4291(2) 0.4720(3) 0.95733(17)
C5_11 C 0.3777(2) 0.4330(3) 0.93519(16)
C6_11 C 0.3589(2) 0.3775(3) 0.92710(17)
H1_11 H 0.3784 0.3588 0.9348
S1_13 S 0.3333 0.45399(7) 0.9167
O6_11 O 0.20778(16) 0.32767(28) 0.86230(12)
C7_11 C 0.2376(2) 0.3762(4) 0.87600(17)
C8_11 C 0.2890(2) 0.3886(4) 0.89814(16)
C9_11 C 0.3078(2) 0.3519(4) 0.90623(17)
H2_11 H 0.2883 0.3137 0.8985
Re4_8 Re 0.38430(3) 0.10180(4) 0.93133(2)
Re5_8 Re 0.30523(3) 0.10979(4) 0.97117(2)
Re6_8 Re 0.38411(3) 0.19650(4) 0.93167(2)
Se5_14 Se 0.40402(3) 0.15867(4) 0.99690(2)
Se6_8 Se 0.30680(3) 0.01976(4) 0.96912(2)
Se7_8 Se 0.45779(3) 0.18603(4) 0.89355(2)
Se8_8 Se 0.30585(3) 0.20116(4) 0.96853(2)
C10_14 C 0.4454(3) 0.0808(4) 0.94550(17)
C12_14 C 0.4407(4) 0.2792(5) 0.94861(18)
N4_14 N 0.4814(3) 0.0731(4) 0.95243(15)
O8_14 O 0.58381(27) 0.17969(33) 0.94511(14)
Re7_8 Re 0.28237(3) 0.05083(4) 0.90200(2)
Re9_8 Re 0.36144(3) 0.13789(4) 0.86216(2)
Re11_8 Re 0.28256(3) 0.14572(4) 0.90166(2)
Se9_8 Se 0.35987(3) 0.04629(4) 0.86421(2)
Se11_8 Se 0.20888(3) 0.06157(4) 0.93978(2)
Se13_8 Se 0.36082(3) 0.22864(4) 0.86480(2)
O11_8 O 0.54677(23) 0.00566(28) 0.97103(12)
H9_14 H 0.571982 0.171873 0.915353
H10_14 H 0.623056 0.210398 0.946575
H1_12 H 0.6412 0.0196 0.9348
C4_12 C 0.5280(3) 0.9571(2) 0.95733(17)
C5_12 C 0.5670(3) 0.9447(2) 0.93519(16)
C6_12 C 0.6225(3) 0.9814(2) 0.92710(17)
S1_14 S 0.54601(7) 0.87931(7) 0.9167
O6_12 O 0.67233(28) 0.88010(23) 0.86230(12)
C7_12 C 0.6238(4) 0.8613(3) 0.87600(17)
C8_12 C 0.6114(4) 0.9003(3) 0.89814(16)
C9_12 C 0.6481(4) 0.9558(3) 0.90623(17)
H2_12 H 0.6863 0.9745 0.8985
Re1_5 Re 0.61570(3) 0.71750(2) 0.56867(2)
Re2_5 Re 0.69477(3) 0.80456(2) 0.52883(2)
Re3_5 Re 0.61589(3) 0.81239(2) 0.56833(2)
Se1_8 Se 0.59598(3) 0.75465(2) 0.50310(2)
Se2_5 Se 0.69320(3) 0.71296(2) 0.53088(2)
Se3_5 Se 0.54221(3) 0.72824(2) 0.60645(2)
Se4_5 Se 0.69415(3) 0.89531(2) 0.53147(2)
C1_8 C 0.5546(3) 0.6354(2) 0.55450(17)
C2_8 C 0.7267(3) 0.8226(2) 0.46678(17)
C3_8 C 0.5593(4) 0.8385(3) 0.55139(18)
N1_8 N 0.5186(3) 0.5917(2) 0.54757(15)
N3_8 N 0.5295(3) 0.8544(2) 0.54294(15)
O1_8 O 0.41619(27) 0.59588(19) 0.55489(14)
O2_8 O 0.37852(26) 0.55193(19) 0.47301(12)
O3_8 O 0.37471(25) 0.44095(17) 0.47193(13)
O4_5 O 0.45323(23) 0.45889(16) 0.52897(12)
C4_13 C 0.4720(3) 0.4291(2) 0.54267(17)
C5_13 C 0.4330(3) 0.3777(2) 0.56481(16)
C6_13 C 0.3775(3) 0.3589(2) 0.57290(17)
H1_13 H 0.3588 0.3784 0.5652
S1_15 S 0.45399(7) 0.3333 0.5833
O6_13 O 0.32767(28) 0.20778(16) 0.63770(12)
C7_13 C 0.3762(4) 0.2376(2) 0.62400(17)
C8_13 C 0.3886(4) 0.2890(2) 0.60186(16)
C9_13 C 0.3519(4) 0.3078(2) 0.59377(17)
H2_13 H 0.3137 0.2883 0.6015
Re4_9 Re 0.10180(4) 0.38430(3) 0.56867(2)
Re5_9 Re 0.10979(4) 0.30523(3) 0.52883(2)
Re6_9 Re 0.19650(4) 0.38411(3) 0.56833(2)
Se5_15 Se 0.15867(4) 0.40402(3) 0.50310(2)
Se6_9 Se 0.01976(4) 0.30680(3) 0.53088(2)
Se7_9 Se 0.18603(4) 0.45779(3) 0.60645(2)
Se8_9 Se 0.20116(4) 0.30585(3) 0.53147(2)
C10_15 C 0.0808(4) 0.4454(3) 0.55450(17)
C11_15 C 0.0959(4) 0.2733(3) 0.46678(17)
C12_15 C 0.2792(5) 0.4407(4) 0.55139(18)
N4_15 N 0.0731(4) 0.4814(3) 0.54757(15)
N6_8 N 0.3249(4) 0.4705(3) 0.54294(15)
O8_15 O 0.17969(33) 0.58381(27) 0.55489(14)
O9_15 O 0.17341(32) 0.62148(26) 0.47301(12)
O10_15 O 0.06624(30) 0.62529(25) 0.47193(13)
Re7_9 Re 0.05083(4) 0.28237(3) 0.59800(2)
Re8_5 Re 0.71763(3) 0.76847(2) 0.59800(2)
Re9_9 Re 0.13789(4) 0.36144(3) 0.63784(2)
Re10_5 Re 0.63856(3) 0.77646(2) 0.63784(2)
Re11_9 Re 0.14572(4) 0.28256(3) 0.59834(2)
Re12_5 Re 0.71744(3) 0.86317(2) 0.59834(2)
Se9_9 Se 0.04629(4) 0.35987(3) 0.63579(2)
Se10_5 Se 0.64013(3) 0.68643(2) 0.63579(2)
Se11_9 Se 0.06157(4) 0.20888(3) 0.56022(2)
Se12_5 Se 0.79112(3) 0.85270(2) 0.56022(2)
Se13_9 Se 0.22864(4) 0.36082(3) 0.63520(2)
Se14_5 Se 0.63918(3) 0.86783(2) 0.63520(2)
N9_8 N 0.1456(4) 0.6751(2) 0.54294(15)
O11_9 O 0.00566(28) 0.54677(23) 0.52897(12)
H3_8 H 0.374065 0.5821 0.485796
H4_8 H 0.34136 0.520206 0.465608
H5_8 H 0.386762 0.454627 0.442931
H6_8 H 0.333861 0.425178 0.474361
H7_8 H 0.428018 0.599892 0.584647
H8_8 H 0.376944 0.587342 0.553425
H9_15 H 0.171873 0.571982 0.584647
H10_15 H 0.210398 0.623056 0.553425
H11_15 H 0.208035 0.625935 0.485796
H12_15 H 0.178846 0.65864 0.465608
H13_15 H 0.0678642 0.613238 0.442931
H14_15 H 0.0913169 0.666139 0.474361
H1_14 H 0.0196 0.6412 0.5652
Re4_10 Re 0.28250(2) 0.89820(4) 0.56867(2)
Re5_10 Re 0.19544(2) 0.89021(4) 0.52883(2)
Re6_10 Re 0.18761(2) 0.80350(4) 0.56833(2)
Se5_16 Se 0.24535(2) 0.84133(4) 0.50310(2)
Se6_10 Se 0.28704(2) 0.98024(4) 0.53088(2)
Se7_10 Se 0.27176(2) 0.81397(4) 0.60645(2)
Se8_10 Se 0.10469(2) 0.79884(4) 0.53147(2)
C10_16 C 0.3646(2) 0.9192(4) 0.55450(17)
C11_16 C 0.1774(2) 0.9041(4) 0.46678(17)
C12_16 C 0.1615(3) 0.7208(5) 0.55139(18)
N4_16 N 0.4083(2) 0.9269(4) 0.54757(15)
O8_16 O 0.40412(19) 0.82031(33) 0.55489(14)
O9_16 O 0.44807(19) 0.82659(32) 0.47301(12)
O10_16 O 0.55905(17) 0.93376(30) 0.47193(13)
Re7_10 Re 0.23153(2) 0.94917(4) 0.59800(2)
Re9_10 Re 0.22354(2) 0.86211(4) 0.63784(2)
Re11_10 Re 0.13683(2) 0.85428(4) 0.59834(2)
Se9_10 Se 0.31357(2) 0.95371(4) 0.63579(2)
Se11_10 Se 0.14730(2) 0.93843(4) 0.56022(2)
Se13_10 Se 0.13217(2) 0.77136(4) 0.63520(2)
O11_10 O 0.54111(16) 0.99434(28) 0.52897(12)
H9_16 H 0.400108 0.828127 0.584647
H10_16 H 0.412658 0.789602 0.553425
H11_16 H 0.4179 0.791965 0.485796
H12_16 H 0.479794 0.821154 0.465608
H13_16 H 0.545373 0.932136 0.442931
H14_16 H 0.574822 0.908683 0.474361
C4_14 C 0.9571(2) 0.5280(3) 0.54267(17)
C5_14 C 0.9447(2) 0.5670(3) 0.56481(16)
C6_14 C 0.9814(2) 0.6225(3) 0.57290(17)
S1_16 S 0.87931(7) 0.54601(7) 0.5833
O6_14 O 0.88010(23) 0.67233(28) 0.63770(12)
C7_14 C 0.8613(3) 0.6238(4) 0.62400(17)
C8_14 C 0.9003(3) 0.6114(4) 0.60186(16)
C9_14 C 0.9558(3) 0.6481(4) 0.59377(17)
H2_14 H 0.9745 0.6863 0.6015
C4_15 C 0.5709(2) 0.0429(2) 0.54267(17)
C5_15 C 0.6223(2) 0.0553(2) 0.56481(16)
C6_15 C 0.6411(2) 0.0186(2) 0.57290(17)
S1_17 S 0.6667 0.12069(7) 0.5833
O6_15 O 0.79222(16) 0.11990(23) 0.63770(12)
C7_15 C 0.7624(2) 0.1387(3) 0.62400(17)
C8_15 C 0.7110(2) 0.0997(3) 0.60186(16)
C9_15 C 0.6922(2) 0.0442(3) 0.59377(17)
H2_15 H 0.7117 0.0255 0.6015
H1_15 H 0.6216 0.9804 0.5652
C1_9 C 0.2525(2) 0.0313(2) 0.61217(17)
N1_9 N 0.2602(2) 0.0750(2) 0.61910(15)
O1_9 O 0.15364(19) 0.07079(19) 0.61178(14)
O2_9 O 0.15992(18) 0.11474(19) 0.69366(12)
O3_9 O 0.26709(18) 0.22572(17) 0.69474(13)
Se5_17 Se 0.08798(2) 0.26265(3) 0.66357(2)
C11_17 C 0.1559(2) 0.3934(3) 0.69989(17)
C12_17 C 0.1718(3) 0.2260(4) 0.61528(18)
N6_9 N 0.1877(2) 0.1962(3) 0.62373(15)
H3_9 H 0.125298 0.0845664 0.680871
H4_9 H 0.154487 0.14646 0.701058
H5_9 H 0.265469 0.21204 0.723736
H6_9 H 0.242016 0.241488 0.692306
H7_9 H 0.16146 0.0667751 0.58202
H8_9 H 0.122935 0.0793245 0.613242
Se1_9 Se 0.17466(2) 0.91202(2) 0.66357(2)
C2_9 C 0.2374(2) 0.8441(2) 0.69989(17)
C3_9 C 0.0541(3) 0.8282(3) 0.61528(18)
N3_9 N 0.0084(2) 0.8123(2) 0.62373(15)
C10_17 C 0.9687(2) 0.2213(3) 0.61217(17)
N4_17 N 0.9250(2) 0.1853(3) 0.61910(15)
O8_17 O 0.92921(19) 0.08286(27) 0.61178(14)
O9_17 O 0.88526(19) 0.04519(26) 0.69366(12)
O10_17 O 0.77428(17) 0.04138(25) 0.69474(13)
H9_17 H 0.933225 0.0946851 0.58202
H10_17 H 0.920675 0.0436103 0.613242
H11_17 H 0.915434 0.040732 0.680871
H12_17 H 0.85354 0.00802695 0.701058
H13_17 H 0.78796 0.0534291 0.723736
H14_17 H 0.758512 0.000527952 0.692306
N9_9 N 0.8038(3) 0.9916(2) 0.62373(15)
Se5_18 Se 0.73735(3) 0.82534(4) 0.66357(2)
C10_18 C 0.7787(3) 0.7475(4) 0.61217(17)
C11_18 C 0.6066(3) 0.7626(4) 0.69989(17)
C12_18 C 0.7740(4) 0.9459(5) 0.61528(18)
N4_18 N 0.8147(3) 0.7398(4) 0.61910(15)
O8_18 O 0.91714(27) 0.84636(33) 0.61178(14)
O9_18 O 0.95481(26) 0.84008(32) 0.69366(12)
O10_18 O 0.95862(25) 0.73291(30) 0.69474(13)
H9_18 H 0.905315 0.83854 0.58202
H10_18 H 0.95639 0.877065 0.613242
H11_18 H 0.959268 0.874702 0.680871
H12_18 H 0.991973 0.845513 0.701058
H13_18 H 0.946571 0.734531 0.723736
H14_18 H 0.999472 0.757984 0.692306
Re2_6 Re 0.02810(3) 0.47123(2) 0.19550(2)
Se2_6 Se 0.02653(3) 0.37963(2) 0.19755(2)
Se4_6 Se 0.02748(3) 0.56198(2) 0.19814(2)
C2_10 C 0.0600(3) 0.4893(2) 0.13345(17)
Re8_6 Re 0.05097(3) 0.43513(2) 0.26466(2)
Re12_6 Re 0.05078(3) 0.52983(2) 0.26500(2)
Se12_6 Se 0.12446(3) 0.51936(2) 0.22688(2)
Re1_6 Re 0.94903(3) 0.38417(2) 0.23534(2)
Re3_6 Re 0.94922(3) 0.47906(2) 0.23500(2)
Se1_10 Se 0.92931(3) 0.42132(2) 0.16977(2)
Se3_6 Se 0.87554(3) 0.39491(2) 0.27312(2)
C1_10 C 0.8879(3) 0.3021(2) 0.22117(17)
C3_10 C 0.8926(4) 0.5052(3) 0.21806(18)
N1_10 N 0.8519(3) 0.2584(2) 0.21424(15)
N3_10 N 0.8628(3) 0.5211(2) 0.20961(15)
O1_10 O 0.74952(27) 0.26255(19) 0.22156(14)
O2_10 O 0.71185(26) 0.21860(19) 0.13968(12)
O3_10 O 0.70804(25) 0.10762(17) 0.13860(13)
O4_6 O 0.78656(23) 0.12556(16) 0.19564(12)
C4_16 C 0.8053(3) 0.0958(2) 0.20934(17)
C5_16 C 0.7663(3) 0.0444(2) 0.23148(16)
C6_16 C 0.7108(3) 0.0256(2) 0.23957(17)
H1_16 H 0.6921 0.0451 0.2319
S1_18 S 0.78732(7) -0.0000 0.2500
Re4_11 Re 0.43513(4) 0.05097(3) 0.23534(2)
Re6_11 Re 0.52983(4) 0.05078(3) 0.23500(2)
Se5_19 Se 0.49200(4) 0.07069(3) 0.16977(2)
Se7_11 Se 0.51936(4) 0.12446(3) 0.27312(2)
C10_19 C 0.4141(4) 0.1121(3) 0.22117(17)
C12_19 C 0.6125(5) 0.1074(4) 0.21806(18)
N4_19 N 0.4064(4) 0.1481(3) 0.21424(15)
N6_10 N 0.6582(4) 0.1372(3) 0.20961(15)
O8_19 O 0.51302(33) 0.25048(27) 0.22156(14)
O9_19 O 0.50674(32) 0.28815(26) 0.13968(12)
O10_19 O 0.39957(30) 0.29196(25) 0.13860(13)
Re9_11 Re 0.47123(4) 0.02810(3) 0.30450(2)
Re10_6 Re 0.97190(3) 0.44312(2) 0.30450(2)
Se9_11 Se 0.37963(4) 0.02653(3) 0.30245(2)
Se10_6 Se 0.97347(3) 0.35309(2) 0.30245(2)
Se13_11 Se 0.56198(4) 0.02748(3) 0.30186(2)
Se14_6 Se 0.97252(3) 0.53449(2) 0.30186(2)
N9_10 N 0.4789(4) 0.3418(2) 0.20961(15)
O11_11 O 0.33899(28) 0.21344(23) 0.19564(12)
H3_10 H 0.707399 0.248767 0.152462
H4_10 H 0.674694 0.186873 0.132275
H5_10 H 0.720096 0.121293 0.109597
H6_10 H 0.667195 0.0918448 0.141027
H7_10 H 0.761352 0.266558 0.251313
H8_10 H 0.710277 0.254009 0.220092
H9_19 H 0.505207 0.238648 0.251313
H10_19 H 0.543732 0.289723 0.220092
H11_19 H 0.541368 0.292601 0.152462
H12_19 H 0.512179 0.325306 0.132275
H13_19 H 0.401197 0.279904 0.109597
H14_19 H 0.42465 0.332805 0.141027
S1_19 S 0.78732(7) 1.0000 0.2500
O6_16 O 0.66101(28) 0.87444(16) 0.30436(12)
C7_16 C 0.7096(4) 0.9042(2) 0.29066(17)
C8_16 C 0.7220(4) 0.9556(2) 0.26852(16)
C9_16 C 0.6853(4) 0.9744(2) 0.26043(17)
H2_16 H 0.6471 0.9549 0.2681
Re5_11 Re 0.44312(4) 0.97190(3) 0.19550(2)
Se6_11 Se 0.35309(4) 0.97347(3) 0.19755(2)
Se8_11 Se 0.53449(4) 0.97252(3) 0.19814(2)
C11_19 C 0.4292(4) 0.9400(3) 0.13345(17)
Re7_11 Re 0.38417(4) 0.94903(3) 0.26466(2)
Re11_11 Re 0.47906(4) 0.94922(3) 0.26500(2)
Se11_11 Se 0.39491(4) 0.87554(3) 0.22688(2)
C4_17 C 0.2904(2) 0.1947(3) 0.20934(17)
C5_17 C 0.2780(2) 0.2337(3) 0.23148(16)
C6_17 C 0.3147(2) 0.2892(3) 0.23957(17)
H1_17 H 0.3529 0.3079 0.2319
S1_20 S 0.21264(7) 0.21268(7) 0.2500
O6_17 O 0.21344(23) 0.33899(28) 0.30436(12)
C7_17 C 0.1947(3) 0.2904(4) 0.29066(17)
C8_17 C 0.2337(3) 0.2780(4) 0.26852(16)
C9_17 C 0.2892(3) 0.3147(4) 0.26043(17)
H2_17 H 0.3079 0.3529 0.2681
Re4_12 Re 0.61583(2) 0.56487(4) 0.23534(2)
Re5_12 Re 0.52877(2) 0.55688(4) 0.19550(2)
Re6_12 Re 0.52094(2) 0.47017(4) 0.23500(2)
Se5_20 Se 0.57868(2) 0.50800(4) 0.16977(2)
Se6_12 Se 0.62037(2) 0.64691(4) 0.19755(2)
Se7_12 Se 0.60509(2) 0.48064(4) 0.27312(2)
Se8_12 Se 0.43802(2) 0.46551(4) 0.19814(2)
C10_20 C 0.6979(2) 0.5859(4) 0.22117(17)
C11_20 C 0.5107(2) 0.5708(4) 0.13345(17)
C12_20 C 0.4948(3) 0.3875(5) 0.21806(18)
N4_20 N 0.7416(2) 0.5936(4) 0.21424(15)
O8_20 O 0.73745(19) 0.48698(33) 0.22156(14)
O9_20 O 0.78140(19) 0.49326(32) 0.13968(12)
O10_20 O 0.89238(17) 0.60043(30) 0.13860(13)
Re7_12 Re 0.56487(2) 0.61583(4) 0.26466(2)
Re9_12 Re 0.55688(2) 0.52877(4) 0.30450(2)
Re11_12 Re 0.47017(2) 0.52094(4) 0.26500(2)
Se9_12 Se 0.64691(2) 0.62037(4) 0.30245(2)
Se11_12 Se 0.48064(2) 0.60509(4) 0.22688(2)
Se13_12 Se 0.46551(2) 0.43802(4) 0.30186(2)
O11_12 O 0.87444(16) 0.66101(28) 0.19564(12)
H9_20 H 0.733442 0.494793 0.251313
H10_20 H 0.745991 0.456268 0.220092
H11_20 H 0.751233 0.458632 0.152462
H12_20 H 0.813127 0.487821 0.132275
H13_20 H 0.878707 0.598803 0.109597
H14_20 H 0.908155 0.57535 0.141027
S1_21 S 0.0000 0.78736(7) 0.2500
O6_18 O 0.12556(16) 0.78656(23) 0.30436(12)
C7_18 C 0.0958(2) 0.8053(3) 0.29066(17)
C8_18 C 0.0444(2) 0.7663(3) 0.26852(16)
C9_18 C 0.0256(2) 0.7108(3) 0.26043(17)
H2_18 H 0.0451 0.6921 0.2681
C4_18 C 0.9042(2) 0.7096(2) 0.20934(17)
C5_18 C 0.9556(2) 0.7220(2) 0.23148(16)
C6_18 C 0.9744(2) 0.6853(2) 0.23957(17)
H1_18 H 0.9549 0.6471 0.2319
S1_22 S 1.0000 0.78736(7) 0.2500
C11_21 C 0.4893(2) 0.0600(3) 0.36655(17)
Se1_11 Se 0.50800(2) 0.57868(2) 0.33023(2)
C1_11 C 0.5859(2) 0.6979(2) 0.27883(17)
C2_11 C 0.5708(2) 0.5107(2) 0.36655(17)
C3_11 C 0.3875(3) 0.4948(3) 0.28194(18)
N1_11 N 0.5936(2) 0.7416(2) 0.28576(15)
N3_11 N 0.3418(2) 0.4789(2) 0.29039(15)
O1_11 O 0.48698(19) 0.73745(19) 0.27844(14)
O2_11 O 0.49326(18) 0.78140(19) 0.36032(12)
O3_11 O 0.60043(18) 0.89238(17) 0.36140(13)
Se5_21 Se 0.42132(2) 0.92931(3) 0.33023(2)
C10_21 C 0.3021(2) 0.8879(3) 0.27883(17)
C12_21 C 0.5052(3) 0.8926(4) 0.28194(18)
N4_21 N 0.2584(2) 0.8519(3) 0.28576(15)
N6_11 N 0.5211(2) 0.8628(3) 0.29039(15)
O8_21 O 0.26255(19) 0.74952(27) 0.27844(14)
O9_21 O 0.21860(19) 0.71185(26) 0.36032(12)
O10_21 O 0.10762(17) 0.70804(25) 0.36140(13)
N9_11 N 0.1372(3) 0.6582(2) 0.29039(15)
H3_11 H 0.458632 0.751233 0.347538
H4_11 H 0.487821 0.813127 0.367725
H5_11 H 0.598803 0.878707 0.390403
H6_11 H 0.57535 0.908155 0.358973
H7_11 H 0.494793 0.733442 0.248687
H8_11 H 0.456268 0.745991 0.279908
H9_21 H 0.266558 0.761352 0.248687
H10_21 H 0.254009 0.710277 0.279908
H11_21 H 0.248767 0.707399 0.347538
H12_21 H 0.186873 0.674694 0.367725
H13_21 H 0.121293 0.720096 0.390403
H14_21 H 0.0918448 0.667195 0.358973
Se5_22 Se 0.07069(3) 0.49200(4) 0.33023(2)
C10_22 C 0.1121(3) 0.4141(4) 0.27883(17)
C12_22 C 0.1074(4) 0.6125(5) 0.28194(18)
N4_22 N 0.1481(3) 0.4064(4) 0.28576(15)
O8_22 O 0.25048(27) 0.51302(33) 0.27844(14)
O9_22 O 0.28815(26) 0.50674(32) 0.36032(12)
O10_22 O 0.29196(25) 0.39957(30) 0.36140(13)
H9_22 H 0.238648 0.505207 0.248687
H10_22 H 0.289723 0.543732 0.279908
H11_22 H 0.292601 0.541368 0.347538
H12_22 H 0.325306 0.512179 0.367725
H13_22 H 0.279904 0.401197 0.390403
H14_22 H 0.332805 0.42465 0.358973
C11_22 C 0.9400(3) 0.4292(4) 0.36655(17)
Se1_12 Se 0.26265(3) 0.08798(2) 0.83643(2)
C2_12 C 0.3934(3) 0.1559(2) 0.80011(17)
C3_12 C 0.2260(4) 0.1718(3) 0.88472(18)
N3_12 N 0.1962(3) 0.1877(2) 0.87627(15)
C1_12 C 0.2213(3) 0.9687(2) 0.88783(17)
N1_12 N 0.1853(3) 0.9250(2) 0.88090(15)
O1_12 O 0.08286(27) 0.92921(19) 0.88822(14)
O2_12 O 0.04519(26) 0.88526(19) 0.80634(12)
O3_12 O 0.04138(25) 0.77428(17) 0.80526(13)
H3_12 H 0.040732 0.915434 0.819129
H4_12 H 0.00802695 0.85354 0.798942
H5_12 H 0.0534291 0.78796 0.776264
H6_12 H 0.000527952 0.758512 0.807694
H7_12 H 0.0946851 0.933225 0.91798
H8_12 H 0.0436103 0.920675 0.886758
N9_12 N 0.8123(4) 0.0084(2) 0.87627(15)
Se5_23 Se 0.82534(4) 0.73735(3) 0.83643(2)
C10_23 C 0.7475(4) 0.7787(3) 0.88783(17)
C11_23 C 0.7626(4) 0.6066(3) 0.80011(17)
C12_23 C 0.9459(5) 0.7740(4) 0.88472(18)
N4_23 N 0.7398(4) 0.8147(3) 0.88090(15)
N6_12 N 0.9916(4) 0.8038(3) 0.87627(15)
O8_23 O 0.84636(33) 0.91714(27) 0.88822(14)
O9_23 O 0.84008(32) 0.95481(26) 0.80634(12)
O10_23 O 0.73291(30) 0.95862(25) 0.80526(13)
H9_23 H 0.83854 0.905315 0.91798
H10_23 H 0.877065 0.95639 0.886758
H11_23 H 0.874702 0.959268 0.819129
H12_23 H 0.845513 0.991973 0.798942
H13_23 H 0.734531 0.946571 0.776264
H14_23 H 0.757984 0.999472 0.807694
C10_24 C 0.0313(2) 0.2525(4) 0.88783(17)
N4_24 N 0.0750(2) 0.2602(4) 0.88090(15)
O8_24 O 0.07079(19) 0.15364(33) 0.88822(14)
O9_24 O 0.11474(19) 0.15992(32) 0.80634(12)
O10_24 O 0.22572(17) 0.26709(30) 0.80526(13)
H9_24 H 0.0667751 0.16146 0.91798
H10_24 H 0.0793245 0.122935 0.886758
H11_24 H 0.0845664 0.125298 0.819129
H12_24 H 0.14646 0.154487 0.798942
H13_24 H 0.21204 0.265469 0.776264
H14_24 H 0.241488 0.242016 0.807694
Se5_24 Se 0.91202(2) 0.17466(4) 0.83643(2)
C11_24 C 0.8441(2) 0.2374(4) 0.80011(17)
C12_24 C 0.8282(3) 0.0541(5) 0.88472(18)
loop_
_geom_bond_atom_site_label_1
_geom_bond_atom_site_label_2
_geom_bond_site_symmetry_1
_geom_bond_site_symmetry_2
Re1 Re2 1_555 1_555
Re2 Re3 1_555 1_555
Re3 Re1 1_555 1_555
Se1 Re1 1_555 1_555
Se2 Re1 1_555 1_555
Se3 Re1 1_555 1_555
Se4 Re2 1_555 1_555
C1 Re1 1_555 1_555
C3 Re3 1_555 1_555
N1 C1 1_555 1_555
N3 C3 1_555 1_555
Gd1 N1 1_555 1_555
O1 Gd1 1_555 1_555
O4 Gd1 1_555 1_555
Re4 Re5 1_555 1_555
Re5 Re6 1_555 1_555
Re6 Re4 1_555 1_555
Se5 Re4 1_555 1_555
Se6 Re4 1_555 1_555
Se7 Re4 1_555 1_555
Se8 Re5 1_555 1_555
C10 Re4 1_555 1_555
C12 Re6 1_555 1_555
N4 C10 1_555 1_555
N6 Gd1 1_555 1_555
Gd2 N4 1_555 1_555
O8 Gd2 1_555 1_555
Re7 Re4 1_555 1_555
Re8 Re1 1_555 1_555
Re9 Re4 1_555 1_555
Re10 Re1 1_555 1_555
Re11 Re5 1_555 1_555
Re12 Re2 1_555 1_555
Se9 Re4 1_555 1_555
Se10 Re1 1_555 1_555
Se11 Re5 1_555 1_555
Se12 Re2 1_555 1_555
Se13 Re6 1_555 1_555
Se14 Re3 1_555 1_555
N7 Gd1 1_555 1_555
N8 Gd2 1_555 1_555
N9 Gd2 1_555 1_555
Gd3 N3 1_555 1_555
O11 Gd2 1_555 1_555
Re2 Se1 1_555 1_555
Re2 Se2 1_555 1_555
Re2 Re8 1_555 1_555
Re3 Se1 1_555 1_555
Re3 Se3 1_555 1_555
Re3 Se4 1_555 1_555
Re3 Re10 1_555 1_555
Re3 Re12 1_555 1_555
Se2 Re8 1_555 1_555
Se3 Re10 1_555 1_555
Se4 Re12 1_555 1_555
Re5 Se5 1_555 1_555
Re5 Se6 1_555 1_555
Re5 Re7 1_555 1_555
Re6 Se5 1_555 1_555
Re6 Se7 1_555 1_555
Re6 Se8 1_555 1_555
Re6 Re9 1_555 1_555
Re6 Re11 1_555 1_555
Se6 Re7 1_555 1_555
Se7 Re9 1_555 1_555
Se8 Re11 1_555 1_555
C12 N6 1_555 1_555
Re7 Re9 1_555 1_555
Re7 Re11 1_555 1_555
Re7 Se9 1_555 1_555
Re7 Se11 1_555 1_555
Re8 Re10 1_555 1_555
Re8 Re12 1_555 1_555
Re8 Se10 1_555 1_555
Re8 Se12 1_555 1_555
Re9 Re11 1_555 1_555
Re9 Se9 1_555 1_555
Re9 Se13 1_555 1_555
Re10 Re12 1_555 1_555
Re10 Se10 1_555 1_555
Re10 Se14 1_555 1_555
Re11 Se11 1_555 1_555
Re11 Se13 1_555 1_555
Re12 Se12 1_555 1_555
Re12 Se14 1_555 1_555
O1 H7 1_555 1_555
O1 H8 1_555 1_555
O8 H9 1_555 1_555
O8 H10 1_555 1_555
N2 C2 1_555 1_555
N5 C11 1_555 1_555
Gd6 N2 1_555 1_555
Gd7 N5 1_555 1_555
O2 H3 1_555 1_555
O2 H4 1_555 1_555
O3 H5 1_555 1_555
O3 H6 1_555 1_555
O9 H11 1_555 1_555
O9 H12 1_555 1_555
O10 H13 1_555 1_555
O10 H14 1_555 1_555
O5 C4 1_555 1_555
C5 C4 1_555 1_555
C6 C5 1_555 1_555
S1 C5 1_555 1_555
O6 C7 1_555 1_555
O7 C7 1_555 1_555
C7 C8 1_555 1_555
C8 S1 1_555 1_555
C9 C6 1_555 1_555
H2 C9 1_555 1_555
Gd4 O6 1_555 1_555
Gd8 O7 1_555 1_555
C8 C9 1_555 1_555
O5_2 C4_2 1_555 1_555
C4_2 O11 1_555 1_555
C5_2 C4_2 1_555 1_555
C6_2 C5_2 1_555 1_555
H1_2 C6_2 1_555 1_555
S1_2 C5_2 1_555 1_555
O6_2 C7_2 1_555 1_555
O7_2 C7_2 1_555 1_555
C7_2 C8_2 1_555 1_555
C8_2 S1_2 1_555 1_555
C9_2 C6_2 1_555 1_555
H2_2 C9_2 1_555 1_555
Re4_2 Re5_2 1_555 1_555
Re5_2 Re6_2 1_555 1_555
Re6_2 Re4_2 1_555 1_555
Se5_2 Re4_2 1_555 1_555
Se6_2 Re4_2 1_555 1_555
Se7_2 Re4_2 1_555 1_555
Se8_2 Re5_2 1_555 1_555
C10_2 Re4_2 1_555 1_555
C12_2 Re6_2 1_555 1_555
N4_2 C10_2 1_555 1_555
Gd3 N4_2 1_555 1_555
O8_2 Gd3 1_555 1_555
Re7_2 Re4_2 1_555 1_555
Re9_2 Re4_2 1_555 1_555
Re11_2 Re5_2 1_555 1_555
Se9_2 Re4_2 1_555 1_555
Se11_2 Re5_2 1_555 1_555
Se13_2 Re6_2 1_555 1_555
N8_2 Gd3 1_555 1_555
Gd4_2 O6_2 1_555 1_555
Gd8_2 O7_2 1_555 1_555
O11_2 Gd3 1_555 1_555
C8_2 C9_2 1_555 1_555
Re5_2 Se5_2 1_555 1_555
Re5_2 Se6_2 1_555 1_555
Re5_2 Re7_2 1_555 1_555
Re6_2 Se5_2 1_555 1_555
Re6_2 Se7_2 1_555 1_555
Re6_2 Se8_2 1_555 1_555
Re6_2 Re9_2 1_555 1_555
Re6_2 Re11_2 1_555 1_555
Se6_2 Re7_2 1_555 1_555
Se7_2 Re9_2 1_555 1_555
Se8_2 Re11_2 1_555 1_555
C12_2 N9 1_555 1_555
Re7_2 Re9_2 1_555 1_555
Re7_2 Re11_2 1_555 1_555
Re7_2 Se9_2 1_555 1_555
Re7_2 Se11_2 1_555 1_555
Re9_2 Re11_2 1_555 1_555
Re9_2 Se9_2 1_555 1_555
Re9_2 Se13_2 1_555 1_555
Re11_2 Se11_2 1_555 1_555
Re11_2 Se13_2 1_555 1_555
O8_2 H9_2 1_555 1_555
O8_2 H10_2 1_555 1_555
N5_2 C11_2 1_555 1_555
Gd7_2 N5_2 1_555 1_555
O9_2 H11_2 1_555 1_555
O9_2 H12_2 1_555 1_555
O10_2 H13_2 1_555 1_555
O10_2 H14_2 1_555 1_555
O5_3 C4_3 1_555 1_555
C5_3 C4_3 1_555 1_555
C6_3 C5_3 1_555 1_555
S1_3 C5_3 1_555 1_555
O6_3 C7_3 1_555 1_555
O7_3 C7_3 1_555 1_555
C7_3 C8_3 1_555 1_555
C8_3 S1_3 1_555 1_555
C9_3 C6_3 1_555 1_555
H2_3 C9_3 1_555 1_555
Gd4_3 O6_3 1_555 1_555
Gd8_3 O7_3 1_555 1_555
C8_3 C9_3 1_555 1_555
Re1_2 Re2_2 1_555 1_555
Re2_2 Re3_2 1_555 1_555
Re3_2 Re1_2 1_555 1_555
Se1_2 Re1_2 1_555 1_555
Se2_2 Re1_2 1_555 1_555
Se3_2 Re1_2 1_555 1_555
Se4_2 Re2_2 1_555 1_555
C1_2 Re1_2 1_555 1_555
C2_2 Re2_2 1_555 1_555
C3_2 Re3_2 1_555 1_555
N1_2 C1_2 1_555 1_555
N2_2 C2_2 1_555 1_555
N3_2 C3_2 1_555 1_555
Gd1_2 N1_2 1_555 1_555
O1_2 Gd1_2 1_555 1_555
O2_2 Gd1_2 1_555 1_555
O3_2 Gd1_2 1_555 1_555
O4_2 Gd1_2 1_555 1_555
O5_4 C4_4 1_555 1_555
C4_4 O4_2 1_555 1_555
C5_4 C4_4 1_555 1_555
C6_4 C5_4 1_555 1_555
H1_4 C6_4 1_555 1_555
S1_4 C5_4 1_555 1_555
O6_4 C7_4 1_555 1_555
O7_4 C7_4 1_555 1_555
C7_4 C8_4 1_555 1_555
C8_4 S1_4 1_555 1_555
C9_4 C6_4 1_555 1_555
H2_4 C9_4 1_555 1_555
Re4_3 Re5_3 1_555 1_555
Re5_3 Re6_3 1_555 1_555
Re6_3 Re4_3 1_555 1_555
Se5_3 Re4_3 1_555 1_555
Se6_3 Re4_3 1_555 1_555
Se7_3 Re4_3 1_555 1_555
Se8_3 Re5_3 1_555 1_555
C10_3 Re4_3 1_555 1_555
C11_3 Re5_3 1_555 1_555
C12_3 Re6_3 1_555 1_555
N4_3 C10_3 1_555 1_555
N5_3 C11_3 1_555 1_555
N6_2 Gd1_2 1_555 1_555
Gd2_2 N4_3 1_555 1_555
O8_3 Gd2_2 1_555 1_555
O9_3 Gd2_2 1_555 1_555
O10_3 Gd2_2 1_555 1_555
Re7_3 Re4_3 1_555 1_555
Re8_2 Re1_2 1_555 1_555
Re9_3 Re4_3 1_555 1_555
Re10_2 Re1_2 1_555 1_555
Re11_3 Re5_3 1_555 1_555
Re12_2 Re2_2 1_555 1_555
Se9_3 Re4_3 1_555 1_555
Se10_2 Re1_2 1_555 1_555
Se11_3 Re5_3 1_555 1_555
Se12_2 Re2_2 1_555 1_555
Se13_3 Re6_3 1_555 1_555
Se14_2 Re3_2 1_555 1_555
N7_2 Gd1_2 1_555 1_555
N8_3 Gd2_2 1_555 1_555
N9_2 Gd2_2 1_555 1_555
Gd3_2 N3_2 1_555 1_555
Gd4_4 O6_4 1_555 1_555
Gd5_4 O5_4 1_555 1_555
Gd6_2 N2_2 1_555 1_555
Gd7_3 N5_3 1_555 1_555
Gd8_4 O7_4 1_555 1_555
O11_3 Gd2_2 1_555 1_555
O12_2 Gd1_2 1_555 1_555
O13_3 Gd2_2 1_555 1_555
Re2_2 Se1_2 1_555 1_555
Re2_2 Se2_2 1_555 1_555
Re2_2 Re8_2 1_555 1_555
Re3_2 Se1_2 1_555 1_555
Re3_2 Se3_2 1_555 1_555
Re3_2 Se4_2 1_555 1_555
Re3_2 Re10_2 1_555 1_555
Re3_2 Re12_2 1_555 1_555
Se2_2 Re8_2 1_555 1_555
Se3_2 Re10_2 1_555 1_555
Se4_2 Re12_2 1_555 1_555
C8_4 C9_4 1_555 1_555
Re5_3 Se5_3 1_555 1_555
Re5_3 Se6_3 1_555 1_555
Re5_3 Re7_3 1_555 1_555
Re6_3 Se5_3 1_555 1_555
Re6_3 Se7_3 1_555 1_555
Re6_3 Se8_3 1_555 1_555
Re6_3 Re9_3 1_555 1_555
Re6_3 Re11_3 1_555 1_555
Se6_3 Re7_3 1_555 1_555
Se7_3 Re9_3 1_555 1_555
Se8_3 Re11_3 1_555 1_555
C12_3 N6_2 1_555 1_555
Re7_3 Re9_3 1_555 1_555
Re7_3 Re11_3 1_555 1_555
Re7_3 Se9_3 1_555 1_555
Re7_3 Se11_3 1_555 1_555
Re8_2 Re10_2 1_555 1_555
Re8_2 Re12_2 1_555 1_555
Re8_2 Se10_2 1_555 1_555
Re8_2 Se12_2 1_555 1_555
Re9_3 Re11_3 1_555 1_555
Re9_3 Se9_3 1_555 1_555
Re9_3 Se13_3 1_555 1_555
Re10_2 Re12_2 1_555 1_555
Re10_2 Se10_2 1_555 1_555
Re10_2 Se14_2 1_555 1_555
Re11_3 Se11_3 1_555 1_555
Re11_3 Se13_3 1_555 1_555
Re12_2 Se12_2 1_555 1_555
Re12_2 Se14_2 1_555 1_555
O2_2 H3_2 1_555 1_555
O2_2 H4_2 1_555 1_555
O3_2 H5_2 1_555 1_555
O3_2 H6_2 1_555 1_555
O1_2 H7_2 1_555 1_555
O1_2 H8_2 1_555 1_555
O8_3 H9_3 1_555 1_555
O8_3 H10_3 1_555 1_555
O9_3 H11_3 1_555 1_555
O9_3 H12_3 1_555 1_555
O10_3 H13_3 1_555 1_555
O10_3 H14_3 1_555 1_555
O5_5 C4_5 1_555 1_555
C5_5 C4_5 1_555 1_555
C6_5 C5_5 1_555 1_555
S1_5 C5_5 1_555 1_555
O6_5 C7_5 1_555 1_555
O7_5 C7_5 1_555 1_555
C7_5 C8_5 1_555 1_555
C8_5 S1_5 1_555 1_555
C9_5 C6_5 1_555 1_555
H2_5 C9_5 1_555 1_555
Gd4_5 O6_5 1_555 1_555
Gd5_5 O5_5 1_555 1_555
Gd8_5 O7_5 1_555 1_555
C8_5 C9_5 1_555 1_555
Re4_4 Re5_4 1_555 1_555
Re5_4 Re6_4 1_555 1_555
Re6_4 Re4_4 1_555 1_555
Se5_4 Re4_4 1_555 1_555
Se6_4 Re4_4 1_555 1_555
Se7_4 Re4_4 1_555 1_555
Se8_4 Re5_4 1_555 1_555
C10_4 Re4_4 1_555 1_555
C11_4 Re5_4 1_555 1_555
C12_4 Re6_4 1_555 1_555
N4_4 C10_4 1_555 1_555
N5_4 C11_4 1_555 1_555
Gd3_2 N4_4 1_555 1_555
O8_4 Gd3_2 1_555 1_555
O9_4 Gd3_2 1_555 1_555
O10_4 Gd3_2 1_555 1_555
Re7_4 Re4_4 1_555 1_555
Re9_4 Re4_4 1_555 1_555
Re11_4 Re5_4 1_555 1_555
Se9_4 Re4_4 1_555 1_555
Se11_4 Re5_4 1_555 1_555
Se13_4 Re6_4 1_555 1_555
N8_4 Gd3_2 1_555 1_555
Gd7_4 N5_4 1_555 1_555
O11_4 Gd3_2 1_555 1_555
O13_4 Gd3_2 1_555 1_555
Re5_4 Se5_4 1_555 1_555
Re5_4 Se6_4 1_555 1_555
Re5_4 Re7_4 1_555 1_555
Re6_4 Se5_4 1_555 1_555
Re6_4 Se7_4 1_555 1_555
Re6_4 Se8_4 1_555 1_555
Re6_4 Re9_4 1_555 1_555
Re6_4 Re11_4 1_555 1_555
Se6_4 Re7_4 1_555 1_555
Se7_4 Re9_4 1_555 1_555
Se8_4 Re11_4 1_555 1_555
C12_4 N9_2 1_555 1_555
Re7_4 Re9_4 1_555 1_555
Re7_4 Re11_4 1_555 1_555
Re7_4 Se9_4 1_555 1_555
Re7_4 Se11_4 1_555 1_555
Re9_4 Re11_4 1_555 1_555
Re9_4 Se9_4 1_555 1_555
Re9_4 Se13_4 1_555 1_555
Re11_4 Se11_4 1_555 1_555
Re11_4 Se13_4 1_555 1_555
O8_4 H9_4 1_555 1_555
O8_4 H10_4 1_555 1_555
O9_4 H11_4 1_555 1_555
O9_4 H12_4 1_555 1_555
O10_4 H13_4 1_555 1_555
O10_4 H14_4 1_555 1_555
O5_6 C4_6 1_555 1_555
C5_6 C4_6 1_555 1_555
C6_6 C5_6 1_555 1_555
S1_6 C5_6 1_555 1_555
O6_6 C7_6 1_555 1_555
O7_6 C7_6 1_555 1_555
C7_6 C8_6 1_555 1_555
C8_6 S1_6 1_555 1_555
C9_6 C6_6 1_555 1_555
H2_6 C9_6 1_555 1_555
Gd4_6 O6_6 1_555 1_555
Gd5_6 O5_6 1_555 1_555
Gd8_6 O7_6 1_555 1_555
C8_6 C9_6 1_555 1_555
N4_5 C10_5 1_555 1_555
Gd4_6 N4_5 1_555 1_555
O8_5 Gd4_6 1_555 1_555
O9_5 Gd4_6 1_555 1_555
O10_5 Gd4_6 1_555 1_555
N8_5 Gd4_6 1_555 1_555
O13_5 Gd4_6 1_555 1_555
O8_5 H9_5 1_555 1_555
O8_5 H10_5 1_555 1_555
O9_5 H11_5 1_555 1_555
O9_5 H12_5 1_555 1_555
O10_5 H13_5 1_555 1_555
O10_5 H14_5 1_555 1_555
Se1_3 Re7_4 1_555 1_555
C2_3 Re9_4 1_555 1_555
C3_3 Re11_4 1_555 1_555
N2_3 C2_3 1_555 1_555
N3_3 C3_3 1_555 1_555
Gd8 N2_3 1_555 1_555
Re9_4 Se1_3 1_555 1_555
Re11_4 Se1_3 1_555 1_555
N1_3 C1_3 1_555 1_555
Gd4_4 N1_3 1_555 1_555
O1_3 Gd4_4 1_555 1_555
O2_3 Gd4_4 1_555 1_555
O3_3 Gd4_4 1_555 1_555
Se5_5 Re7_3 1_555 1_555
C11_5 Re9_3 1_555 1_555
C12_5 Re11_3 1_555 1_555
N5_5 C11_5 1_555 1_555
N6_3 Gd4_4 1_555 1_555
N7_3 Gd4_4 1_555 1_555
Gd8_2 N5_5 1_555 1_555
O12_3 Gd4_4 1_555 1_555
Re9_3 Se5_5 1_555 1_555
Re11_3 Se5_5 1_555 1_555
C12_5 N6_3 1_555 1_555
O2_3 H3_3 1_555 1_555
O2_3 H4_3 1_555 1_555
O3_3 H5_3 1_555 1_555
O3_3 H6_3 1_555 1_555
O1_3 H7_3 1_555 1_555
O1_3 H8_3 1_555 1_555
Se5_6 Re8_2 1_555 1_555
C10_6 Re8_2 1_555 1_555
C11_6 Re10_2 1_555 1_555
C12_6 Re12_2 1_555 1_555
N4_6 C10_6 1_555 1_555
N5_6 C11_6 1_555 1_555
Gd4_5 N4_6 1_555 1_555
O8_6 Gd4_5 1_555 1_555
O9_6 Gd4_5 1_555 1_555
O10_6 Gd4_5 1_555 1_555
N8_6 Gd4_5 1_555 1_555
Gd8_3 N5_6 1_555 1_555
O13_6 Gd4_5 1_555 1_555
Re10_2 Se5_6 1_555 1_555
Re12_2 Se5_6 1_555 1_555
C12_6 N9_3 1_555 1_555
O8_6 H9_6 1_555 1_555
O8_6 H10_6 1_555 1_555
O9_6 H11_6 1_555 1_555
O9_6 H12_6 1_555 1_555
O10_6 H13_6 1_555 1_555
O10_6 H14_6 1_555 1_555
O6_7 C7_7 1_555 1_555
O7_7 C7_7 1_555 1_555
C7_7 C8_7 1_555 1_555
C8_7 S1_7 1_555 1_555
H2_7 C9_7 1_555 1_555
Se8_5 Re5_5 1_555 1_555
C11_7 Re5_5 1_555 1_555
N5_7 C11_7 1_555 1_555
Re11_5 Re5_5 1_555 1_555
Se11_5 Re5_5 1_555 1_555
Gd4_7 O6_7 1_555 1_555
Gd5_3 N5_7 1_555 1_555
Gd6_2 O7_7 1_555 1_555
C8_7 C9_7 1_555 1_555
Re5_5 Se6_5 1_555 1_555
Re5_5 Re7_5 1_555 1_555
Se6_5 Re7_5 1_555 1_555
Se8_5 Re11_5 1_555 1_555
Re7_5 Re11_5 1_555 1_555
Re7_5 Se11_5 1_555 1_555
Re11_5 Se11_5 1_555 1_555
Re3_3 Re1_3 1_555 1_555
Se1_4 Re1_3 1_555 1_555
Se3_3 Re1_3 1_555 1_555
C1_4 Re1_3 1_555 1_555
C3_4 Re3_3 1_555 1_555
N1_4 C1_4 1_555 1_555
N3_4 C3_4 1_555 1_555
Gd1_3 N1_4 1_555 1_555
O1_4 Gd1_3 1_555 1_555
O2_4 Gd1_3 1_555 1_555
O3_4 Gd1_3 1_555 1_555
O4_3 Gd1_3 1_555 1_555
O5_7 C4_7 1_555 1_555
C4_7 O4_3 1_555 1_555
C5_7 C4_7 1_555 1_555
C6_7 C5_7 1_555 1_555
H1_7 C6_7 1_555 1_555
S1_8 C5_7 1_555 1_555
Re6_5 Re4_5 1_555 1_555
Se5_7 Re4_5 1_555 1_555
Se7_5 Re4_5 1_555 1_555
C10_7 Re4_5 1_555 1_555
C12_7 Re6_5 1_555 1_555
N4_7 C10_7 1_555 1_555
N6_4 Gd1_3 1_555 1_555
Gd2_3 N4_7 1_555 1_555
O8_7 Gd2_3 1_555 1_555
O9_7 Gd2_3 1_555 1_555
O10_7 Gd2_3 1_555 1_555
Re9_5 Re4_5 1_555 1_555
Re10_3 Re1_3 1_555 1_555
Se9_5 Re4_5 1_555 1_555
Se10_3 Re1_3 1_555 1_555
Se13_5 Re6_5 1_555 1_555
Se14_3 Re3_3 1_555 1_555
N7_4 Gd1_3 1_555 1_555
N8_7 Gd2_3 1_555 1_555
N9_4 Gd2_3 1_555 1_555
Gd3_3 N3_4 1_555 1_555
Gd6 O5_7 1_555 1_555
O11_5 Gd2_3 1_555 1_555
O12_4 Gd1_3 1_555 1_555
O13_7 Gd2_3 1_555 1_555
Re3_3 Se1_4 1_555 1_555
Re3_3 Se3_3 1_555 1_555
Re3_3 Re10_3 1_555 1_555
Se3_3 Re10_3 1_555 1_555
Re6_5 Se5_7 1_555 1_555
Re6_5 Se7_5 1_555 1_555
Re6_5 Re9_5 1_555 1_555
Se7_5 Re9_5 1_555 1_555
C12_7 N6_4 1_555 1_555
Re9_5 Se9_5 1_555 1_555
Re9_5 Se13_5 1_555 1_555
Re10_3 Se10_3 1_555 1_555
Re10_3 Se14_3 1_555 1_555
O2_4 H3_4 1_555 1_555
O2_4 H4_4 1_555 1_555
O3_4 H5_4 1_555 1_555
O3_4 H6_4 1_555 1_555
O1_4 H7_4 1_555 1_555
O1_4 H8_4 1_555 1_555
O8_7 H9_7 1_555 1_555
O8_7 H10_7 1_555 1_555
O9_7 H11_7 1_555 1_555
O9_7 H12_7 1_555 1_555
O10_7 H13_7 1_555 1_555
O10_7 H14_7 1_555 1_555
Se4_3 Re2_3 1_555 1_555
C2_4 Re2_3 1_555 1_555
N2_4 C2_4 1_555 1_555
Re12_3 Re2_3 1_555 1_555
Se12_3 Re2_3 1_555 1_555
Gd5 N2_4 1_555 1_555
Re2_3 Se2_3 1_555 1_555
Re2_3 Re8_3 1_555 1_555
Se2_3 Re8_3 1_555 1_555
Se4_3 Re12_3 1_555 1_555
Re8_3 Re12_3 1_555 1_555
Re8_3 Se12_3 1_555 1_555
Re12_3 Se12_3 1_555 1_555
O5_8 C4_8 1_555 1_555
C4_8 O11_5 1_555 1_555
C5_8 C4_8 1_555 1_555
C6_8 C5_8 1_555 1_555
H1_8 C6_8 1_555 1_555
S1_9 C5_8 1_555 1_555
O6_8 C7_8 1_555 1_555
O7_8 C7_8 1_555 1_555
C7_8 C8_8 1_555 1_555
C8_8 S1_9 1_555 1_555
C9_8 C6_8 1_555 1_555
H2_8 C9_8 1_555 1_555
Re4_6 Re5_6 1_555 1_555
Re5_6 Re6_6 1_555 1_555
Re6_6 Re4_6 1_555 1_555
Se5_8 Re4_6 1_555 1_555
Se6_6 Re4_6 1_555 1_555
Se7_6 Re4_6 1_555 1_555
Se8_6 Re5_6 1_555 1_555
C10_8 Re4_6 1_555 1_555
C11_8 Re5_6 1_555 1_555
C12_8 Re6_6 1_555 1_555
N4_8 C10_8 1_555 1_555
N5_8 C11_8 1_555 1_555
Gd3_3 N4_8 1_555 1_555
O8_8 Gd3_3 1_555 1_555
O9_8 Gd3_3 1_555 1_555
O10_8 Gd3_3 1_555 1_555
Re7_6 Re4_6 1_555 1_555
Re9_6 Re4_6 1_555 1_555
Re11_6 Re5_6 1_555 1_555
Se9_6 Re4_6 1_555 1_555
Se11_6 Re5_6 1_555 1_555
Se13_6 Re6_6 1_555 1_555
N8_8 Gd3_3 1_555 1_555
Gd4_8 O6_8 1_555 1_555
Gd7_2 O5_8 1_555 1_555
Gd5_2 N5_8 1_555 1_555
Gd7_3 O7_8 1_555 1_555
O11_6 Gd3_3 1_555 1_555
O13_8 Gd3_3 1_555 1_555
C8_8 C9_8 1_555 1_555
Re5_6 Se5_8 1_555 1_555
Re5_6 Se6_6 1_555 1_555
Re5_6 Re7_6 1_555 1_555
Re6_6 Se5_8 1_555 1_555
Re6_6 Se7_6 1_555 1_555
Re6_6 Se8_6 1_555 1_555
Re6_6 Re9_6 1_555 1_555
Re6_6 Re11_6 1_555 1_555
Se6_6 Re7_6 1_555 1_555
Se7_6 Re9_6 1_555 1_555
Se8_6 Re11_6 1_555 1_555
C12_8 N9_4 1_555 1_555
Re7_6 Re9_6 1_555 1_555
Re7_6 Re11_6 1_555 1_555
Re7_6 Se9_6 1_555 1_555
Re7_6 Se11_6 1_555 1_555
Re9_6 Re11_6 1_555 1_555
Re9_6 Se9_6 1_555 1_555
Re9_6 Se13_6 1_555 1_555
Re11_6 Se11_6 1_555 1_555
Re11_6 Se13_6 1_555 1_555
O8_8 H9_8 1_555 1_555
O8_8 H10_8 1_555 1_555
O9_8 H11_8 1_555 1_555
O9_8 H12_8 1_555 1_555
O10_8 H13_8 1_555 1_555
O10_8 H14_8 1_555 1_555
O5_9 C4_9 1_555 1_555
C4_9 O11_6 1_555 1_555
C5_9 C4_9 1_555 1_555
C6_9 C5_9 1_555 1_555
H1_9 C6_9 1_555 1_555
S1_10 C5_9 1_555 1_555
Gd7 O5_9 1_555 1_555
O6_9 C7_9 1_555 1_555
O7_9 C7_9 1_555 1_555
C7_9 C8_9 1_555 1_555
C8_9 S1_11 1_555 1_555
H2_9 C9_9 1_555 1_555
Gd4_9 O6_9 1_555 1_555
Gd7_4 O7_9 1_555 1_555
C8_9 C9_9 1_555 1_555
Se1_5 Re7_6 1_555 1_555
C1_5 Re7_6 1_555 1_555
C2_5 Re9_6 1_555 1_555
C3_5 Re11_6 1_555 1_555
N1_5 C1_5 1_555 1_555
N2_5 C2_5 1_555 1_555
N3_5 C3_5 1_555 1_555
Gd4_7 N1_5 1_555 1_555
O1_5 Gd4_7 1_555 1_555
O2_5 Gd4_7 1_555 1_555
O3_5 Gd4_7 1_555 1_555
Se5_9 Re7_5 1_555 1_555
C10_9 Re7_5 1_555 1_555
C12_9 Re11_5 1_555 1_555
N4_9 C10_9 1_555 1_555
N6_5 Gd4_7 1_555 1_555
Gd4_9 N4_9 1_555 1_555
O8_9 Gd4_9 1_555 1_555
O9_9 Gd4_9 1_555 1_555
O10_9 Gd4_9 1_555 1_555
N7_5 Gd4_7 1_555 1_555
N8_9 Gd4_9 1_555 1_555
N9_5 Gd4_9 1_555 1_555
Gd4_8 N3_5 1_555 1_555
Gd5_4 N2_5 1_555 1_555
O12_5 Gd4_7 1_555 1_555
O13_9 Gd4_9 1_555 1_555
Re9_6 Se1_5 1_555 1_555
Re11_6 Se1_5 1_555 1_555
Re11_5 Se5_9 1_555 1_555
C12_9 N6_5 1_555 1_555
O2_5 H3_5 1_555 1_555
O2_5 H4_5 1_555 1_555
O3_5 H5_5 1_555 1_555
O3_5 H6_5 1_555 1_555
O1_5 H7_5 1_555 1_555
O1_5 H8_5 1_555 1_555
O8_9 H9_9 1_555 1_555
O8_9 H10_9 1_555 1_555
O9_9 H11_9 1_555 1_555
O9_9 H12_9 1_555 1_555
O10_9 H13_9 1_555 1_555
O10_9 H14_9 1_555 1_555
C11_9 Re9_5 1_555 1_555
N5_9 C11_9 1_555 1_555
Gd5_6 N5_9 1_555 1_555
C11_10 Re10_3 1_555 1_555
N5_10 C11_10 1_555 1_555
Gd5_5 N5_10 1_555 1_555
Se5_10 Re8_3 1_555 1_555
C10_10 Re8_3 1_555 1_555
C12_10 Re12_3 1_555 1_555
N4_10 C10_10 1_555 1_555
Gd4_8 N4_10 1_555 1_555
O8_10 Gd4_8 1_555 1_555
O9_10 Gd4_8 1_555 1_555
O10_10 Gd4_8 1_555 1_555
N8_10 Gd4_8 1_555 1_555
O13_10 Gd4_8 1_555 1_555
Re12_3 Se5_10 1_555 1_555
C12_10 N9_5 1_555 1_555
O8_10 H9_10 1_555 1_555
O8_10 H10_10 1_555 1_555
O9_10 H11_10 1_555 1_555
O9_10 H12_10 1_555 1_555
O10_10 H13_10 1_555 1_555
O10_10 H14_10 1_555 1_555
Se5_11 Re7 1_555 1_555
C10_11 Re7 1_555 1_555
C11_11 Re9 1_555 1_555
C12_11 Re11 1_555 1_555
N4_11 C10_11 1_555 1_555
N5_11 C11_11 1_555 1_555
Gd4_3 N4_11 1_555 1_555
O8_11 Gd4_3 1_555 1_555
O9_11 Gd4_3 1_555 1_555
O10_11 Gd4_3 1_555 1_555
N8_11 Gd4_3 1_555 1_555
Gd8_5 N5_11 1_555 1_555
O13_11 Gd4_3 1_555 1_555
Re9 Se5_11 1_555 1_555
Re11 Se5_11 1_555 1_555
C12_11 N6_6 1_555 1_555
O8_11 H9_11 1_555 1_555
O8_11 H10_11 1_555 1_555
O9_11 H11_11 1_555 1_555
O9_11 H12_11 1_555 1_555
O10_11 H13_11 1_555 1_555
O10_11 H14_11 1_555 1_555
N1_6 C1_6 1_555 1_555
Gd4 N1_6 1_555 1_555
O1_6 Gd4 1_555 1_555
O2_6 Gd4 1_555 1_555
O3_6 Gd4 1_555 1_555
N7_6 Gd4 1_555 1_555
O12_6 Gd4 1_555 1_555
O2_6 H3_6 1_555 1_555
O2_6 H4_6 1_555 1_555
O3_6 H5_6 1_555 1_555
O3_6 H6_6 1_555 1_555
O1_6 H7_6 1_555 1_555
O1_6 H8_6 1_555 1_555
Se1_6 Re7_2 1_555 1_555
C2_6 Re9_2 1_555 1_555
C3_6 Re11_2 1_555 1_555
N2_6 C2_6 1_555 1_555
N3_6 C3_6 1_555 1_555
Gd4_2 N3_6 1_555 1_555
Gd8_4 N2_6 1_555 1_555
Re9_2 Se1_6 1_555 1_555
Re11_2 Se1_6 1_555 1_555
Se5_12 Re8 1_555 1_555
C11_12 Re10 1_555 1_555
C12_12 Re12 1_555 1_555
N5_12 C11_12 1_555 1_555
Gd8_6 N5_12 1_555 1_555
Re10 Se5_12 1_555 1_555
Re12 Se5_12 1_555 1_555
C12_12 N9_6 1_555 1_555
N4_12 C10_12 1_555 1_555
Gd4_2 N4_12 1_555 1_555
O8_12 Gd4_2 1_555 1_555
O9_12 Gd4_2 1_555 1_555
O10_12 Gd4_2 1_555 1_555
N8_12 Gd4_2 1_555 1_555
O13_12 Gd4_2 1_555 1_555
O8_12 H9_12 1_555 1_555
O8_12 H10_12 1_555 1_555
O9_12 H11_12 1_555 1_555
O9_12 H12_12 1_555 1_555
O10_12 H13_12 1_555 1_555
O10_12 H14_12 1_555 1_555
O12 C4_10 1_555 1_555
C5_10 C4_10 1_555 1_555
C6_10 C5_10 1_555 1_555
S1_12 C5_10 1_555 1_555
O6_10 C7_10 1_555 1_555
O12_4 C7_10 1_555 1_555
C7_10 C8_10 1_555 1_555
C8_10 S1_12 1_555 1_555
C9_10 C6_10 1_555 1_555
H2_10 C9_10 1_555 1_555
Gd6 O6_10 1_555 1_555
C8_10 C9_10 1_555 1_555
N7_6 C2_7 1_555 1_555
N8_12 C11_13 1_555 1_555
O2_7 H3_7 1_555 1_555
O2_7 H4_7 1_555 1_555
O3_7 H5_7 1_555 1_555
O3_7 H6_7 1_555 1_555
O9_13 H11_13 1_555 1_555
O9_13 H12_13 1_555 1_555
O10_13 H13_13 1_555 1_555
O10_13 H14_13 1_555 1_555
Re1_4 Re2_4 1_555 1_555
Re2_4 Re3_4 1_555 1_555
Re3_4 Re1_4 1_555 1_555
Se1_7 Re1_4 1_555 1_555
Se2_4 Re1_4 1_555 1_555
Se3_4 Re1_4 1_555 1_555
Se4_4 Re2_4 1_555 1_555
C1_7 Re1_4 1_555 1_555
C3_7 Re3_4 1_555 1_555
N1_7 C1_7 1_555 1_555
N3_7 C3_7 1_555 1_555
Gd5 N1_7 1_555 1_555
O1_7 Gd5 1_555 1_555
O4_4 Gd5 1_555 1_555
Re4_7 Re5_7 1_555 1_555
Re5_7 Re6_7 1_555 1_555
Re6_7 Re4_7 1_555 1_555
Se5_13 Re4_7 1_555 1_555
Se6_7 Re4_7 1_555 1_555
Se7_7 Re4_7 1_555 1_555
Se8_7 Re5_7 1_555 1_555
C10_13 Re4_7 1_555 1_555
C12_13 Re6_7 1_555 1_555
N4_13 C10_13 1_555 1_555
N6_7 Gd5 1_555 1_555
Gd5_2 N4_13 1_555 1_555
O8_13 Gd5_2 1_555 1_555
Re7_7 Re4_7 1_555 1_555
Re8_4 Re1_4 1_555 1_555
Re9_7 Re4_7 1_555 1_555
Re10_4 Re1_4 1_555 1_555
Re11_7 Re5_7 1_555 1_555
Re12_4 Re2_4 1_555 1_555
Se9_7 Re4_7 1_555 1_555
Se10_4 Re1_4 1_555 1_555
Se11_7 Re5_7 1_555 1_555
Se12_4 Re2_4 1_555 1_555
Se13_7 Re6_7 1_555 1_555
Se14_4 Re3_4 1_555 1_555
N9_7 Gd5_2 1_555 1_555
Gd5_3 N3_7 1_555 1_555
O11_7 Gd5_2 1_555 1_555
Re2_4 Se1_7 1_555 1_555
Re2_4 Se2_4 1_555 1_555
Re2_4 Re8_4 1_555 1_555
Re3_4 Se1_7 1_555 1_555
Re3_4 Se3_4 1_555 1_555
Re3_4 Se4_4 1_555 1_555
Re3_4 Re10_4 1_555 1_555
Re3_4 Re12_4 1_555 1_555
Se2_4 Re8_4 1_555 1_555
Se3_4 Re10_4 1_555 1_555
Se4_4 Re12_4 1_555 1_555
Re5_7 Se5_13 1_555 1_555
Re5_7 Se6_7 1_555 1_555
Re5_7 Re7_7 1_555 1_555
Re6_7 Se5_13 1_555 1_555
Re6_7 Se7_7 1_555 1_555
Re6_7 Se8_7 1_555 1_555
Re6_7 Re9_7 1_555 1_555
Re6_7 Re11_7 1_555 1_555
Se6_7 Re7_7 1_555 1_555
Se7_7 Re9_7 1_555 1_555
Se8_7 Re11_7 1_555 1_555
C12_13 N6_7 1_555 1_555
Re7_7 Re9_7 1_555 1_555
Re7_7 Re11_7 1_555 1_555
Re7_7 Se9_7 1_555 1_555
Re7_7 Se11_7 1_555 1_555
Re8_4 Re10_4 1_555 1_555
Re8_4 Re12_4 1_555 1_555
Re8_4 Se10_4 1_555 1_555
Re8_4 Se12_4 1_555 1_555
Re9_7 Re11_7 1_555 1_555
Re9_7 Se9_7 1_555 1_555
Re9_7 Se13_7 1_555 1_555
Re10_4 Re12_4 1_555 1_555
Re10_4 Se10_4 1_555 1_555
Re10_4 Se14_4 1_555 1_555
Re11_7 Se11_7 1_555 1_555
Re11_7 Se13_7 1_555 1_555
Re12_4 Se12_4 1_555 1_555
Re12_4 Se14_4 1_555 1_555
O1_7 H7_7 1_555 1_555
O1_7 H8_7 1_555 1_555
O8_13 H9_13 1_555 1_555
O8_13 H10_13 1_555 1_555
N8_11 C11_14 1_555 1_555
O9_14 H11_14 1_555 1_555
O9_14 H12_14 1_555 1_555
O10_14 H13_14 1_555 1_555
O10_14 H14_14 1_555 1_555
O13 C4_11 1_555 1_555
C4_11 O11_7 1_555 1_555
C5_11 C4_11 1_555 1_555
C6_11 C5_11 1_555 1_555
H1_11 C6_11 1_555 1_555
S1_13 C5_11 1_555 1_555
O6_11 C7_11 1_555 1_555
O13_8 C7_11 1_555 1_555
C7_11 C8_11 1_555 1_555
C8_11 S1_13 1_555 1_555
C9_11 C6_11 1_555 1_555
H2_11 C9_11 1_555 1_555
Re4_8 Re5_8 1_555 1_555
Re5_8 Re6_8 1_555 1_555
Re6_8 Re4_8 1_555 1_555
Se5_14 Re4_8 1_555 1_555
Se6_8 Re4_8 1_555 1_555
Se7_8 Re4_8 1_555 1_555
Se8_8 Re5_8 1_555 1_555
C10_14 Re4_8 1_555 1_555
C12_14 Re6_8 1_555 1_555
N4_14 C10_14 1_555 1_555
Gd5_3 N4_14 1_555 1_555
O8_14 Gd5_3 1_555 1_555
Re7_8 Re4_8 1_555 1_555
Re9_8 Re4_8 1_555 1_555
Re11_8 Re5_8 1_555 1_555
Se9_8 Re4_8 1_555 1_555
Se11_8 Re5_8 1_555 1_555
Se13_8 Re6_8 1_555 1_555
Gd7 O6_11 1_555 1_555
O11_8 Gd5_3 1_555 1_555
C8_11 C9_11 1_555 1_555
Re5_8 Se5_14 1_555 1_555
Re5_8 Se6_8 1_555 1_555
Re5_8 Re7_8 1_555 1_555
Re6_8 Se5_14 1_555 1_555
Re6_8 Se7_8 1_555 1_555
Re6_8 Se8_8 1_555 1_555
Re6_8 Re9_8 1_555 1_555
Re6_8 Re11_8 1_555 1_555
Se6_8 Re7_8 1_555 1_555
Se7_8 Re9_8 1_555 1_555
Se8_8 Re11_8 1_555 1_555
C12_14 N9_7 1_555 1_555
Re7_8 Re9_8 1_555 1_555
Re7_8 Re11_8 1_555 1_555
Re7_8 Se9_8 1_555 1_555
Re7_8 Se11_8 1_555 1_555
Re9_8 Re11_8 1_555 1_555
Re9_8 Se9_8 1_555 1_555
Re9_8 Se13_8 1_555 1_555
Re11_8 Se11_8 1_555 1_555
Re11_8 Se13_8 1_555 1_555
O8_14 H9_14 1_555 1_555
O8_14 H10_14 1_555 1_555
O13_2 C4_12 1_555 1_555
C5_12 C4_12 1_555 1_555
C6_12 C5_12 1_555 1_555
S1_14 C5_12 1_555 1_555
O6_12 C7_12 1_555 1_555
O13_7 C7_12 1_555 1_555
C7_12 C8_12 1_555 1_555
C8_12 S1_14 1_555 1_555
C9_12 C6_12 1_555 1_555
H2_12 C9_12 1_555 1_555
Gd7_2 O6_12 1_555 1_555
C8_12 C9_12 1_555 1_555
Re1_5 Re2_5 1_555 1_555
Re2_5 Re3_5 1_555 1_555
Re3_5 Re1_5 1_555 1_555
Se1_8 Re1_5 1_555 1_555
Se2_5 Re1_5 1_555 1_555
Se3_5 Re1_5 1_555 1_555
Se4_5 Re2_5 1_555 1_555
C1_8 Re1_5 1_555 1_555
C2_8 Re2_5 1_555 1_555
C3_8 Re3_5 1_555 1_555
N1_8 C1_8 1_555 1_555
N7_3 C2_8 1_555 1_555
N3_8 C3_8 1_555 1_555
Gd5_4 N1_8 1_555 1_555
O1_8 Gd5_4 1_555 1_555
O2_8 Gd5_4 1_555 1_555
O3_8 Gd5_4 1_555 1_555
O4_5 Gd5_4 1_555 1_555
O12_2 C4_13 1_555 1_555
C4_13 O4_5 1_555 1_555
C5_13 C4_13 1_555 1_555
C6_13 C5_13 1_555 1_555
H1_13 C6_13 1_555 1_555
S1_15 C5_13 1_555 1_555
O6_13 C7_13 1_555 1_555
O12_5 C7_13 1_555 1_555
C7_13 C8_13 1_555 1_555
C8_13 S1_15 1_555 1_555
C9_13 C6_13 1_555 1_555
H2_13 C9_13 1_555 1_555
Re4_9 Re5_9 1_555 1_555
Re5_9 Re6_9 1_555 1_555
Re6_9 Re4_9 1_555 1_555
Se5_15 Re4_9 1_555 1_555
Se6_9 Re4_9 1_555 1_555
Se7_9 Re4_9 1_555 1_555
Se8_9 Re5_9 1_555 1_555
C10_15 Re4_9 1_555 1_555
C11_15 Re5_9 1_555 1_555
C12_15 Re6_9 1_555 1_555
N4_15 C10_15 1_555 1_555
N8_6 C11_15 1_555 1_555
N6_8 Gd5_4 1_555 1_555
Gd5_5 N4_15 1_555 1_555
O8_15 Gd5_5 1_555 1_555
O9_15 Gd5_5 1_555 1_555
O10_15 Gd5_5 1_555 1_555
Re7_9 Re4_9 1_555 1_555
Re8_5 Re1_5 1_555 1_555
Re9_9 Re4_9 1_555 1_555
Re10_5 Re1_5 1_555 1_555
Re11_9 Re5_9 1_555 1_555
Re12_5 Re2_5 1_555 1_555
Se9_9 Re4_9 1_555 1_555
Se10_5 Re1_5 1_555 1_555
Se11_9 Re5_9 1_555 1_555
Se12_5 Re2_5 1_555 1_555
Se13_9 Re6_9 1_555 1_555
Se14_5 Re3_5 1_555 1_555
N9_8 Gd5_5 1_555 1_555
Gd5_6 N3_8 1_555 1_555
Gd6_2 O6_13 1_555 1_555
O11_9 Gd5_5 1_555 1_555
Re2_5 Se1_8 1_555 1_555
Re2_5 Se2_5 1_555 1_555
Re2_5 Re8_5 1_555 1_555
Re3_5 Se1_8 1_555 1_555
Re3_5 Se3_5 1_555 1_555
Re3_5 Se4_5 1_555 1_555
Re3_5 Re10_5 1_555 1_555
Re3_5 Re12_5 1_555 1_555
Se2_5 Re8_5 1_555 1_555
Se3_5 Re10_5 1_555 1_555
Se4_5 Re12_5 1_555 1_555
C8_13 C9_13 1_555 1_555
Re5_9 Se5_15 1_555 1_555
Re5_9 Se6_9 1_555 1_555
Re5_9 Re7_9 1_555 1_555
Re6_9 Se5_15 1_555 1_555
Re6_9 Se7_9 1_555 1_555
Re6_9 Se8_9 1_555 1_555
Re6_9 Re9_9 1_555 1_555
Re6_9 Re11_9 1_555 1_555
Se6_9 Re7_9 1_555 1_555
Se7_9 Re9_9 1_555 1_555
Se8_9 Re11_9 1_555 1_555
C12_15 N6_8 1_555 1_555
Re7_9 Re9_9 1_555 1_555
Re7_9 Re11_9 1_555 1_555
Re7_9 Se9_9 1_555 1_555
Re7_9 Se11_9 1_555 1_555
Re8_5 Re10_5 1_555 1_555
Re8_5 Re12_5 1_555 1_555
Re8_5 Se10_5 1_555 1_555
Re8_5 Se12_5 1_555 1_555
Re9_9 Re11_9 1_555 1_555
Re9_9 Se9_9 1_555 1_555
Re9_9 Se13_9 1_555 1_555
Re10_5 Re12_5 1_555 1_555
Re10_5 Se10_5 1_555 1_555
Re10_5 Se14_5 1_555 1_555
Re11_9 Se11_9 1_555 1_555
Re11_9 Se13_9 1_555 1_555
Re12_5 Se12_5 1_555 1_555
Re12_5 Se14_5 1_555 1_555
O2_8 H3_8 1_555 1_555
O2_8 H4_8 1_555 1_555
O3_8 H5_8 1_555 1_555
O3_8 H6_8 1_555 1_555
O1_8 H7_8 1_555 1_555
O1_8 H8_8 1_555 1_555
O8_15 H9_15 1_555 1_555
O8_15 H10_15 1_555 1_555
O9_15 H11_15 1_555 1_555
O9_15 H12_15 1_555 1_555
O10_15 H13_15 1_555 1_555
O10_15 H14_15 1_555 1_555
Re4_10 Re5_10 1_555 1_555
Re5_10 Re6_10 1_555 1_555
Re6_10 Re4_10 1_555 1_555
Se5_16 Re4_10 1_555 1_555
Se6_10 Re4_10 1_555 1_555
Se7_10 Re4_10 1_555 1_555
Se8_10 Re5_10 1_555 1_555
C10_16 Re4_10 1_555 1_555
C11_16 Re5_10 1_555 1_555
C12_16 Re6_10 1_555 1_555
N4_16 C10_16 1_555 1_555
N8_5 C11_16 1_555 1_555
Gd5_6 N4_16 1_555 1_555
O8_16 Gd5_6 1_555 1_555
O9_16 Gd5_6 1_555 1_555
O10_16 Gd5_6 1_555 1_555
Re7_10 Re4_10 1_555 1_555
Re9_10 Re4_10 1_555 1_555
Re11_10 Re5_10 1_555 1_555
Se9_10 Re4_10 1_555 1_555
Se11_10 Re5_10 1_555 1_555
Se13_10 Re6_10 1_555 1_555
O11_10 Gd5_6 1_555 1_555
Re5_10 Se5_16 1_555 1_555
Re5_10 Se6_10 1_555 1_555
Re5_10 Re7_10 1_555 1_555
Re6_10 Se5_16 1_555 1_555
Re6_10 Se7_10 1_555 1_555
Re6_10 Se8_10 1_555 1_555
Re6_10 Re9_10 1_555 1_555
Re6_10 Re11_10 1_555 1_555
Se6_10 Re7_10 1_555 1_555
Se7_10 Re9_10 1_555 1_555
Se8_10 Re11_10 1_555 1_555
C12_16 N9_8 1_555 1_555
Re7_10 Re9_10 1_555 1_555
Re7_10 Re11_10 1_555 1_555
Re7_10 Se9_10 1_555 1_555
Re7_10 Se11_10 1_555 1_555
Re9_10 Re11_10 1_555 1_555
Re9_10 Se9_10 1_555 1_555
Re9_10 Se13_10 1_555 1_555
Re11_10 Se11_10 1_555 1_555
Re11_10 Se13_10 1_555 1_555
O8_16 H9_16 1_555 1_555
O8_16 H10_16 1_555 1_555
O9_16 H11_16 1_555 1_555
O9_16 H12_16 1_555 1_555
O10_16 H13_16 1_555 1_555
O10_16 H14_16 1_555 1_555
O13_3 C4_14 1_555 1_555
C5_14 C4_14 1_555 1_555
C6_14 C5_14 1_555 1_555
S1_16 C5_14 1_555 1_555
O6_14 C7_14 1_555 1_555
O13_10 C7_14 1_555 1_555
C7_14 C8_14 1_555 1_555
C8_14 S1_16 1_555 1_555
C9_14 C6_14 1_555 1_555
H2_14 C9_14 1_555 1_555
Gd7_3 O6_14 1_555 1_555
C8_14 C9_14 1_555 1_555
O13_4 C4_15 1_555 1_555
C5_15 C4_15 1_555 1_555
C6_15 C5_15 1_555 1_555
S1_17 C5_15 1_555 1_555
O6_15 C7_15 1_555 1_555
O13_9 C7_15 1_555 1_555
C7_15 C8_15 1_555 1_555
C8_15 S1_17 1_555 1_555
C9_15 C6_15 1_555 1_555
H2_15 C9_15 1_555 1_555
Gd7_4 O6_15 1_555 1_555
C8_15 C9_15 1_555 1_555
N1_9 C1_9 1_555 1_555
Gd6_2 N1_9 1_555 1_555
O1_9 Gd6_2 1_555 1_555
O2_9 Gd6_2 1_555 1_555
O3_9 Gd6_2 1_555 1_555
Se5_17 Re7_9 1_555 1_555
C11_17 Re9_9 1_555 1_555
C12_17 Re11_9 1_555 1_555
N8_8 C11_17 1_555 1_555
N6_9 Gd6_2 1_555 1_555
Re9_9 Se5_17 1_555 1_555
Re11_9 Se5_17 1_555 1_555
C12_17 N6_9 1_555 1_555
O2_9 H3_9 1_555 1_555
O2_9 H4_9 1_555 1_555
O3_9 H5_9 1_555 1_555
O3_9 H6_9 1_555 1_555
O1_9 H7_9 1_555 1_555
O1_9 H8_9 1_555 1_555
Se1_9 Re7_10 1_555 1_555
C2_9 Re9_10 1_555 1_555
C3_9 Re11_10 1_555 1_555
N7_4 C2_9 1_555 1_555
N3_9 C3_9 1_555 1_555
Re9_10 Se1_9 1_555 1_555
Re11_10 Se1_9 1_555 1_555
N4_17 C10_17 1_555 1_555
Gd7_4 N4_17 1_555 1_555
O8_17 Gd7_4 1_555 1_555
O9_17 Gd7_4 1_555 1_555
O10_17 Gd7_4 1_555 1_555
O8_17 H9_17 1_555 1_555
O8_17 H10_17 1_555 1_555
O9_17 H11_17 1_555 1_555
O9_17 H12_17 1_555 1_555
O10_17 H13_17 1_555 1_555
O10_17 H14_17 1_555 1_555
Se5_18 Re8_5 1_555 1_555
C10_18 Re8_5 1_555 1_555
C11_18 Re10_5 1_555 1_555
C12_18 Re12_5 1_555 1_555
N4_18 C10_18 1_555 1_555
N8_7 C11_18 1_555 1_555
Gd7_3 N4_18 1_555 1_555
O8_18 Gd7_3 1_555 1_555
O9_18 Gd7_3 1_555 1_555
O10_18 Gd7_3 1_555 1_555
Re10_5 Se5_18 1_555 1_555
Re12_5 Se5_18 1_555 1_555
C12_18 N9_9 1_555 1_555
O8_18 H9_18 1_555 1_555
O8_18 H10_18 1_555 1_555
O9_18 H11_18 1_555 1_555
O9_18 H12_18 1_555 1_555
O10_18 H13_18 1_555 1_555
O10_18 H14_18 1_555 1_555
Se4_6 Re2_6 1_555 1_555
C2_10 Re2_6 1_555 1_555
N7 C2_10 1_555 1_555
Re12_6 Re2_6 1_555 1_555
Se12_6 Re2_6 1_555 1_555
Re2_6 Se2_6 1_555 1_555
Re2_6 Re8_6 1_555 1_555
Se2_6 Re8_6 1_555 1_555
Se4_6 Re12_6 1_555 1_555
Re8_6 Re12_6 1_555 1_555
Re8_6 Se12_6 1_555 1_555
Re12_6 Se12_6 1_555 1_555
Re3_6 Re1_6 1_555 1_555
Se1_10 Re1_6 1_555 1_555
Se3_6 Re1_6 1_555 1_555
C1_10 Re1_6 1_555 1_555
C3_10 Re3_6 1_555 1_555
N1_10 C1_10 1_555 1_555
N3_10 C3_10 1_555 1_555
Gd8 N1_10 1_555 1_555
O1_10 Gd8 1_555 1_555
O2_10 Gd8 1_555 1_555
O3_10 Gd8 1_555 1_555
O4_6 Gd8 1_555 1_555
O12_6 C4_16 1_555 1_555
C4_16 O4_6 1_555 1_555
C5_16 C4_16 1_555 1_555
C6_16 C5_16 1_555 1_555
H1_16 C6_16 1_555 1_555
S1_18 C5_16 1_555 1_555
Re6_11 Re4_11 1_555 1_555
Se5_19 Re4_11 1_555 1_555
Se7_11 Re4_11 1_555 1_555
C10_19 Re4_11 1_555 1_555
C12_19 Re6_11 1_555 1_555
N4_19 C10_19 1_555 1_555
N6_10 Gd8 1_555 1_555
Gd8_3 N4_19 1_555 1_555
O8_19 Gd8_3 1_555 1_555
O9_19 Gd8_3 1_555 1_555
O10_19 Gd8_3 1_555 1_555
Re9_11 Re4_11 1_555 1_555
Re10_6 Re1_6 1_555 1_555
Se9_11 Re4_11 1_555 1_555
Se10_6 Re1_6 1_555 1_555
Se13_11 Re6_11 1_555 1_555
Se14_6 Re3_6 1_555 1_555
N9_10 Gd8_3 1_555 1_555
Gd8_2 N3_10 1_555 1_555
O11_11 Gd8_3 1_555 1_555
Re3_6 Se1_10 1_555 1_555
Re3_6 Se3_6 1_555 1_555
Re3_6 Re10_6 1_555 1_555
Se3_6 Re10_6 1_555 1_555
Re6_11 Se5_19 1_555 1_555
Re6_11 Se7_11 1_555 1_555
Re6_11 Re9_11 1_555 1_555
Se7_11 Re9_11 1_555 1_555
C12_19 N6_10 1_555 1_555
Re9_11 Se9_11 1_555 1_555
Re9_11 Se13_11 1_555 1_555
Re10_6 Se10_6 1_555 1_555
Re10_6 Se14_6 1_555 1_555
O2_10 H3_10 1_555 1_555
O2_10 H4_10 1_555 1_555
O3_10 H5_10 1_555 1_555
O3_10 H6_10 1_555 1_555
O1_10 H7_10 1_555 1_555
O1_10 H8_10 1_555 1_555
O8_19 H9_19 1_555 1_555
O8_19 H10_19 1_555 1_555
O9_19 H11_19 1_555 1_555
O9_19 H12_19 1_555 1_555
O10_19 H13_19 1_555 1_555
O10_19 H14_19 1_555 1_555
O6_16 C7_16 1_555 1_555
O12_3 C7_16 1_555 1_555
C7_16 C8_16 1_555 1_555
C8_16 S1_19 1_555 1_555
H2_16 C9_16 1_555 1_555
Se8_11 Re5_11 1_555 1_555
C11_19 Re5_11 1_555 1_555
N8_2 C11_19 1_555 1_555
Re11_11 Re5_11 1_555 1_555
Se11_11 Re5_11 1_555 1_555
Gd8_4 O6_16 1_555 1_555
C8_16 C9_16 1_555 1_555
Re5_11 Se6_11 1_555 1_555
Re5_11 Re7_11 1_555 1_555
Se6_11 Re7_11 1_555 1_555
Se8_11 Re11_11 1_555 1_555
Re7_11 Re11_11 1_555 1_555
Re7_11 Se11_11 1_555 1_555
Re11_11 Se11_11 1_555 1_555
O13_11 C4_17 1_555 1_555
C4_17 O11_11 1_555 1_555
C5_17 C4_17 1_555 1_555
C6_17 C5_17 1_555 1_555
H1_17 C6_17 1_555 1_555
S1_20 C5_17 1_555 1_555
O6_17 C7_17 1_555 1_555
O13_6 C7_17 1_555 1_555
C7_17 C8_17 1_555 1_555
C8_17 S1_20 1_555 1_555
C9_17 C6_17 1_555 1_555
H2_17 C9_17 1_555 1_555
Re4_12 Re5_12 1_555 1_555
Re5_12 Re6_12 1_555 1_555
Re6_12 Re4_12 1_555 1_555
Se5_20 Re4_12 1_555 1_555
Se6_12 Re4_12 1_555 1_555
Se7_12 Re4_12 1_555 1_555
Se8_12 Re5_12 1_555 1_555
C10_20 Re4_12 1_555 1_555
C11_20 Re5_12 1_555 1_555
C12_20 Re6_12 1_555 1_555
N4_20 C10_20 1_555 1_555
N8 C11_20 1_555 1_555
Gd8_2 N4_20 1_555 1_555
O8_20 Gd8_2 1_555 1_555
O9_20 Gd8_2 1_555 1_555
O10_20 Gd8_2 1_555 1_555
Re7_12 Re4_12 1_555 1_555
Re9_12 Re4_12 1_555 1_555
Re11_12 Re5_12 1_555 1_555
Se9_12 Re4_12 1_555 1_555
Se11_12 Re5_12 1_555 1_555
Se13_12 Re6_12 1_555 1_555
Gd8_5 O6_17 1_555 1_555
O11_12 Gd8_2 1_555 1_555
C8_17 C9_17 1_555 1_555
Re5_12 Se5_20 1_555 1_555
Re5_12 Se6_12 1_555 1_555
Re5_12 Re7_12 1_555 1_555
Re6_12 Se5_20 1_555 1_555
Re6_12 Se7_12 1_555 1_555
Re6_12 Se8_12 1_555 1_555
Re6_12 Re9_12 1_555 1_555
Re6_12 Re11_12 1_555 1_555
Se6_12 Re7_12 1_555 1_555
Se7_12 Re9_12 1_555 1_555
Se8_12 Re11_12 1_555 1_555
C12_20 N9_10 1_555 1_555
Re7_12 Re9_12 1_555 1_555
Re7_12 Re11_12 1_555 1_555
Re7_12 Se9_12 1_555 1_555
Re7_12 Se11_12 1_555 1_555
Re9_12 Re11_12 1_555 1_555
Re9_12 Se9_12 1_555 1_555
Re9_12 Se13_12 1_555 1_555
Re11_12 Se11_12 1_555 1_555
Re11_12 Se13_12 1_555 1_555
O8_20 H9_20 1_555 1_555
O8_20 H10_20 1_555 1_555
O9_20 H11_20 1_555 1_555
O9_20 H12_20 1_555 1_555
O10_20 H13_20 1_555 1_555
O10_20 H14_20 1_555 1_555
O6_18 C7_18 1_555 1_555
O13_5 C7_18 1_555 1_555
C7_18 C8_18 1_555 1_555
C8_18 S1_21 1_555 1_555
H2_18 C9_18 1_555 1_555
Gd8_6 O6_18 1_555 1_555
C8_18 C9_18 1_555 1_555
O13_12 C4_18 1_555 1_555
C4_18 O11_12 1_555 1_555
C5_18 C4_18 1_555 1_555
C6_18 C5_18 1_555 1_555
H1_18 C6_18 1_555 1_555
S1_22 C5_18 1_555 1_555
C11_21 Re9_11 1_555 1_555
N8_4 C11_21 1_555 1_555
Se1_11 Re7_12 1_555 1_555
C1_11 Re7_12 1_555 1_555
C2_11 Re9_12 1_555 1_555
C3_11 Re11_12 1_555 1_555
N1_11 C1_11 1_555 1_555
N7_2 C2_11 1_555 1_555
N3_11 C3_11 1_555 1_555
Gd8_4 N1_11 1_555 1_555
O1_11 Gd8_4 1_555 1_555
O2_11 Gd8_4 1_555 1_555
O3_11 Gd8_4 1_555 1_555
Se5_21 Re7_11 1_555 1_555
C10_21 Re7_11 1_555 1_555
C12_21 Re11_11 1_555 1_555
N4_21 C10_21 1_555 1_555
N6_11 Gd8_4 1_555 1_555
Gd8_6 N4_21 1_555 1_555
O8_21 Gd8_6 1_555 1_555
O9_21 Gd8_6 1_555 1_555
O10_21 Gd8_6 1_555 1_555
N9_11 Gd8_6 1_555 1_555
Gd8_5 N3_11 1_555 1_555
Re9_12 Se1_11 1_555 1_555
Re11_12 Se1_11 1_555 1_555
Re11_11 Se5_21 1_555 1_555
C12_21 N6_11 1_555 1_555
O2_11 H3_11 1_555 1_555
O2_11 H4_11 1_555 1_555
O3_11 H5_11 1_555 1_555
O3_11 H6_11 1_555 1_555
O1_11 H7_11 1_555 1_555
O1_11 H8_11 1_555 1_555
O8_21 H9_21 1_555 1_555
O8_21 H10_21 1_555 1_555
O9_21 H11_21 1_555 1_555
O9_21 H12_21 1_555 1_555
O10_21 H13_21 1_555 1_555
O10_21 H14_21 1_555 1_555
Se5_22 Re8_6 1_555 1_555
C10_22 Re8_6 1_555 1_555
C12_22 Re12_6 1_555 1_555
N4_22 C10_22 1_555 1_555
Gd8_5 N4_22 1_555 1_555
O8_22 Gd8_5 1_555 1_555
O9_22 Gd8_5 1_555 1_555
O10_22 Gd8_5 1_555 1_555
Re12_6 Se5_22 1_555 1_555
C12_22 N9_11 1_555 1_555
O8_22 H9_22 1_555 1_555
O8_22 H10_22 1_555 1_555
O9_22 H11_22 1_555 1_555
O9_22 H12_22 1_555 1_555
O10_22 H13_22 1_555 1_555
O10_22 H14_22 1_555 1_555
C11_22 Re10_6 1_555 1_555
N8_3 C11_22 1_555 1_555
Se1_12 Re7_8 1_555 1_555
C2_12 Re9_8 1_555 1_555
C3_12 Re11_8 1_555 1_555
N7_5 C2_12 1_555 1_555
N3_12 C3_12 1_555 1_555
Gd7 N3_12 1_555 1_555
Re9_8 Se1_12 1_555 1_555
Re11_8 Se1_12 1_555 1_555
N1_12 C1_12 1_555 1_555
Gd6 N1_12 1_555 1_555
O1_12 Gd6 1_555 1_555
O2_12 Gd6 1_555 1_555
O3_12 Gd6 1_555 1_555
O2_12 H3_12 1_555 1_555
O2_12 H4_12 1_555 1_555
O3_12 H5_12 1_555 1_555
O3_12 H6_12 1_555 1_555
O1_12 H7_12 1_555 1_555
O1_12 H8_12 1_555 1_555
Se5_23 Re7_7 1_555 1_555
C10_23 Re7_7 1_555 1_555
C11_23 Re9_7 1_555 1_555
C12_23 Re11_7 1_555 1_555
N4_23 C10_23 1_555 1_555
N8_10 C11_23 1_555 1_555
Gd7_2 N4_23 1_555 1_555
O8_23 Gd7_2 1_555 1_555
O9_23 Gd7_2 1_555 1_555
O10_23 Gd7_2 1_555 1_555
Re9_7 Se5_23 1_555 1_555
Re11_7 Se5_23 1_555 1_555
C12_23 N6_12 1_555 1_555
O8_23 H9_23 1_555 1_555
O8_23 H10_23 1_555 1_555
O9_23 H11_23 1_555 1_555
O9_23 H12_23 1_555 1_555
O10_23 H13_23 1_555 1_555
O10_23 H14_23 1_555 1_555
N4_24 C10_24 1_555 1_555
Gd7 N4_24 1_555 1_555
O8_24 Gd7 1_555 1_555
O9_24 Gd7 1_555 1_555
O10_24 Gd7 1_555 1_555
O8_24 H9_24 1_555 1_555
O8_24 H10_24 1_555 1_555
O9_24 H11_24 1_555 1_555
O9_24 H12_24 1_555 1_555
O10_24 H13_24 1_555 1_555
O10_24 H14_24 1_555 1_555
Se5_24 Re8_4 1_555 1_555
C11_24 Re10_4 1_555 1_555
C12_24 Re12_4 1_555 1_555
N8_9 C11_24 1_555 1_555
Re10_4 Se5_24 1_555 1_555
Re12_4 Se5_24 1_555 1_555
C12_24 N9_12 1_555 1_555

#END
