
###############################################################################
#
# This file contains modified crystal structure data generated from the
# MOF subset of the Cambridge Structural Database (CSD) v543 
# hosted by the Cambridge Crystallographic Data Centre (CCDC).
#
# This work is licensed under the Creative Commons
# Attribution-NonCommercial-ShareAlike 4.0 International License.
# To view a copy of this license, visit
# http://creativecommons.org/licenses/by-nc-sa/4.0/
# or send a letter to
# Creative Commons, PO Box 1866, Mountain View, CA 94042, USA.
#
# CIF created using the CSD Python API on 29 September 2022
# The structure has been converted into the P1 space group
# The structure has a 3D framework
# The original CSD entry HESVOR is in the tetragonal crystal system
# The framework has been calculated to contain at least 10.0% void space
# The void calculation uses a probe of radius 1.32A, grid spacing 0.4
#
###############################################################################

data_HESVOR
_chemical_formula_moiety         '(C34 H8 N10 O16 Zn10)n'
_symmetry_cell_setting           triclinic
_symmetry_space_group_name_H-M   'P 1'
_symmetry_Int_Tables_number      1
_space_group_name_Hall           'P 1'
loop_
_symmetry_equiv_pos_site_id
_symmetry_equiv_pos_as_xyz
1 x,y,z
_cell_length_a                   7.0649(4)
_cell_length_b                   7.0649(4)
_cell_length_c                   19.775(2)
_cell_angle_alpha                90
_cell_angle_beta                 90
_cell_angle_gamma                90
_cell_volume                     987.026
loop_
_atom_site_label
_atom_site_type_symbol
_atom_site_fract_x
_atom_site_fract_y
_atom_site_fract_z
Zn1 Zn -0.0000 -0.0000 0.27846(5)
C1 C -0.0000 -0.0000 0.0376(4)
C2 C 0.1184(11) 0.1184(11) 0.0735(3)
H1 H 0.2002 0.2002 0.0510
C3 C 0.1133(12) 0.1133(12) 0.1440(3)
C4 C 0.2359(15) 0.2359(15) 0.1889(3)
N1 N -0.0000 -0.0000 0.1764(4)
O1 O 0.3472(9) 0.3472(9) 0.1606(2)
O2 O 0.2151(8) 0.2151(8) 0.2507(2)
Zn3 Zn 0.5000 0.5000 0.22154(5)
Zn2 Zn -0.0000 -0.0000 0.72154(5)
Zn4 Zn 0.5000 0.5000 0.77846(5)
C5 C -0.0000 0.0000 0.9624(4)
C6 C 0.1184(11) 0.1184(11) 0.9265(3)
H2 H 0.2002 0.2002 0.9490
C9 C 0.1133(12) 0.1133(12) 0.8560(3)
C12 C 0.2359(15) 0.2359(15) 0.8111(3)
N2 N -0.0000 -0.0000 0.8236(4)
O3 O 0.3472(9) 0.3472(9) 0.8394(2)
O10 O 0.2151(8) 0.2151(8) 0.7493(2)
Zn1_2 Zn -0.0000 1.0000 0.27846(5)
C1_2 C -0.0000 1.0000 0.0376(4)
N1_2 N -0.0000 1.0000 0.1764(4)
O7 O 0.1528(9) 0.8472(9) 0.3394(2)
Zn2_2 Zn -0.0000 1.0000 0.72154(5)
C5_2 C -0.0000 1.0000 0.9624(4)
N2_2 N -0.0000 1.0000 0.8236(4)
O8 O 0.1528(9) 0.8472(9) 0.6606(2)
Zn1_3 Zn 1.0000 -0.0000 0.27846(5)
C1_3 C 1.0000 -0.0000 0.0376(4)
N1_3 N 1.0000 -0.0000 0.1764(4)
O6 O 0.8472(9) 0.1528(9) 0.3394(2)
Zn2_3 Zn 1.0000 -0.0000 0.72154(5)
C5_3 C 1.0000 0.0000 0.9624(4)
N2_3 N 1.0000 -0.0000 0.8236(4)
O9 O 0.8472(9) 0.1528(9) 0.6606(2)
Zn1_4 Zn 1.0000 1.0000 0.27846(5)
C1_4 C 1.0000 1.0000 0.0376(4)
N1_4 N 1.0000 1.0000 0.1764(4)
C8 C 0.8816(11) 0.8816(11) 0.0735(3)
H4 H 0.7998 0.7998 0.0510
C11 C 0.8867(12) 0.8867(12) 0.1440(3)
C14 C 0.7641(15) 0.7641(15) 0.1889(3)
O5 O 0.6528(9) 0.6528(9) 0.1606(2)
O12 O 0.7849(8) 0.7849(8) 0.2507(2)
Zn2_4 Zn 1.0000 1.0000 0.72154(5)
C5_4 C 1.0000 1.0000 0.9624(4)
C7 C 0.8816(11) 0.8816(11) 0.9265(3)
H3 H 0.7998 0.7998 0.9490
C10 C 0.8867(12) 0.8867(12) 0.8560(3)
C13 C 0.7641(15) 0.7641(15) 0.8111(3)
N2_4 N 1.0000 1.0000 0.8236(4)
O4 O 0.6528(9) 0.6528(9) 0.8394(2)
O11 O 0.7849(8) 0.7849(8) 0.7493(2)
C1_5 C 0.5000 0.5000 0.5376(4)
C2_2 C 0.3816(11) 0.6184(11) 0.5735(3)
H1_2 H 0.2998 0.7002 0.5510
C3_2 C 0.3867(12) 0.6133(12) 0.6440(3)
C4_2 C 0.2641(15) 0.7359(15) 0.6889(3)
N1_5 N 0.5000 0.5000 0.6764(4)
O2_2 O 0.2849(8) 0.7151(8) 0.7507(2)
C5_5 C 0.5000 0.5000 0.4624(4)
C6_2 C 0.3816(11) 0.6184(11) 0.4265(3)
C7_2 C 0.6184(11) 0.3816(11) 0.4265(3)
C8_2 C 0.6184(11) 0.3816(11) 0.5735(3)
H2_2 H 0.2998 0.7002 0.4490
H3_2 H 0.7002 0.2998 0.4490
H4_2 H 0.7002 0.2998 0.5510
C9_2 C 0.3867(12) 0.6133(12) 0.3560(3)
C10_2 C 0.6133(12) 0.3867(12) 0.3560(3)
C11_2 C 0.6133(12) 0.3867(12) 0.6440(3)
C12_2 C 0.2641(15) 0.7359(15) 0.3111(3)
C13_2 C 0.7359(15) 0.2641(15) 0.3111(3)
C14_2 C 0.7359(15) 0.2641(15) 0.6889(3)
N2_5 N 0.5000 0.5000 0.3236(4)
O10_2 O 0.2849(8) 0.7151(8) 0.2493(2)
O11_2 O 0.7151(8) 0.2849(8) 0.2493(2)
O12_2 O 0.7151(8) 0.2849(8) 0.7507(2)
loop_
_geom_bond_atom_site_label_1
_geom_bond_atom_site_label_2
_geom_bond_site_symmetry_1
_geom_bond_site_symmetry_2
Zn1 N1 1_555 1_555
C1 C2 1_555 1_555
C2 H1 1_555 1_555
C3 C2 1_555 1_555
C4 C3 1_555 1_555
N1 C3 1_555 1_555
O1 C4 1_555 1_555
O2 Zn1 1_555 1_555
Zn3 O1 1_555 1_555
C4 O2 1_555 1_555
Zn2 N2 1_555 1_555
Zn4 O3 1_555 1_555
C6 C5 1_555 1_555
H2 C6 1_555 1_555
C9 C6 1_555 1_555
C12 C9 1_555 1_555
N2 C9 1_555 1_555
O3 C12 1_555 1_555
O10 Zn2 1_555 1_555
C12 O10 1_555 1_555
Zn1_2 N1_2 1_555 1_555
O7 Zn1_2 1_555 1_555
Zn2_2 N2_2 1_555 1_555
O8 Zn2_2 1_555 1_555
Zn1_3 N1_3 1_555 1_555
O6 Zn1_3 1_555 1_555
Zn2_3 N2_3 1_555 1_555
O9 Zn2_3 1_555 1_555
Zn1_4 N1_4 1_555 1_555
Zn3 O5 1_555 1_555
C8 C1_4 1_555 1_555
H4 C8 1_555 1_555
C11 N1_4 1_555 1_555
C14 C11 1_555 1_555
O5 C14 1_555 1_555
O12 Zn1_4 1_555 1_555
C8 C11 1_555 1_555
C14 O12 1_555 1_555
Zn2_4 N2_4 1_555 1_555
Zn4 O4 1_555 1_555
C7 C5_4 1_555 1_555
H3 C7 1_555 1_555
C10 C7 1_555 1_555
C13 C10 1_555 1_555
O4 C13 1_555 1_555
O11 Zn2_4 1_555 1_555
C10 N2_4 1_555 1_555
C13 O11 1_555 1_555
Zn4 N1_5 1_555 1_555
C1_5 C2_2 1_555 1_555
C2_2 H1_2 1_555 1_555
C3_2 C2_2 1_555 1_555
C4_2 C3_2 1_555 1_555
N1_5 C3_2 1_555 1_555
O8 C4_2 1_555 1_555
O2_2 Zn4 1_555 1_555
Zn3 N2_5 1_555 1_555
C5_5 C1_5 1_555 1_555
C6_2 C5_5 1_555 1_555
C7_2 C5_5 1_555 1_555
C8_2 C1_5 1_555 1_555
H2_2 C6_2 1_555 1_555
H3_2 C7_2 1_555 1_555
H4_2 C8_2 1_555 1_555
C9_2 C6_2 1_555 1_555
C10_2 C7_2 1_555 1_555
C11_2 N1_5 1_555 1_555
C12_2 C9_2 1_555 1_555
C13_2 C10_2 1_555 1_555
C14_2 C11_2 1_555 1_555
N2_5 C9_2 1_555 1_555
O7 C12_2 1_555 1_555
O6 C13_2 1_555 1_555
O9 C14_2 1_555 1_555
O10_2 Zn3 1_555 1_555
O11_2 Zn3 1_555 1_555
O12_2 Zn4 1_555 1_555
C4_2 O2_2 1_555 1_555
C8_2 C11_2 1_555 1_555
C10_2 N2_5 1_555 1_555
C12_2 O10_2 1_555 1_555
C13_2 O11_2 1_555 1_555
C14_2 O12_2 1_555 1_555

#END
