
###############################################################################
#
# This file contains modified crystal structure data generated from the
# MOF subset of the Cambridge Structural Database (CSD) v543 
# hosted by the Cambridge Crystallographic Data Centre (CCDC).
#
# This work is licensed under the Creative Commons
# Attribution-NonCommercial-ShareAlike 4.0 International License.
# To view a copy of this license, visit
# http://creativecommons.org/licenses/by-nc-sa/4.0/
# or send a letter to
# Creative Commons, PO Box 1866, Mountain View, CA 94042, USA.
#
# CIF created using the CSD Python API on 29 September 2022
# The structure has been converted into the P1 space group
# The structure has a 3D framework
# The original CSD entry HETCOB is in the hexagonal crystal system
# The framework has been calculated to contain at least 10.0% void space
# The void calculation uses a probe of radius 1.32A, grid spacing 0.4
# The framework is charged, counterions have been retained in the structure
# H atom positions have been added when not included in the experimental data
# Generated hydrogen atom positions removed from atoms on special positions
#
###############################################################################

data_HETCOB
_chemical_formula_moiety         '(C108 H120 Fe6 O32 S12 1-)n'
_symmetry_cell_setting           triclinic
_symmetry_space_group_name_H-M   'P 1'
_symmetry_Int_Tables_number      1
_space_group_name_Hall           'P 1'
loop_
_symmetry_equiv_pos_site_id
_symmetry_equiv_pos_as_xyz
1 x,y,z
_cell_length_a                   33.298(3)
_cell_length_b                   33.298(3)
_cell_length_c                   12.3958(7)
_cell_angle_alpha                90
_cell_angle_beta                 90
_cell_angle_gamma                120
_cell_volume                     11902.6
loop_
_atom_site_label
_atom_site_type_symbol
_atom_site_fract_x
_atom_site_fract_y
_atom_site_fract_z
C87 C 0.6065(3) 0.0197(2) 0.0000
S12 S 0.62406(9) 0.05621(6) 0.11668(12)
O27 O 0.61947(18) 0.24735(16) 0.3844(3)
O28 O 0.68974(19) 0.27451(19) 0.3797(4)
C95 C 0.6494(3) 0.2453(3) 0.3504(6)
C96 C 0.6329(3) 0.1057(2) 0.0553(5)
C97 C 0.6797(5) 0.2174(5) 0.2068(9)
H45 H 0.7099 0.2438 0.2112
C98 C 0.6688(5) 0.1826(4) 0.1212(9)
H46 H 0.6872 0.1921 0.0576
C99 C 0.6013(6) 0.1395(5) 0.1818(9)
H47 H 0.5719 0.1129 0.1694
C100 C 0.6053(5) 0.1739(5) 0.2576(9)
H48 H 0.5791 0.1707 0.2955
C101 C 0.6494(2) 0.21222(19) 0.2732(4)
C102 C 0.6389(3) 0.14421(19) 0.1273(4)
Fe10 Fe 0.71869(5) 0.32386(5) 0.5000
Fe14 Fe 0.60517(7) 0.28131(5) 0.5000
S11 S 0.62406(9) 0.05621(6) 0.88332(12)
O25 O 0.61947(18) 0.24735(16) 0.6156(3)
O26 O 0.68974(19) 0.27451(19) 0.6203(4)
C86 C 0.6494(3) 0.2453(3) 0.6496(6)
C87_2 C 0.6065(3) 0.0197(2) 1.0000
C88 C 0.6329(3) 0.1057(2) 0.9447(5)
C89 C 0.6797(5) 0.2174(5) 0.7932(9)
H41 H 0.7099 0.2438 0.7888
C90 C 0.6688(5) 0.1826(4) 0.8788(9)
H42 H 0.6872 0.1921 0.9424
C91 C 0.6013(6) 0.1395(5) 0.8182(9)
H43 H 0.5719 0.1129 0.8306
C92 C 0.6053(5) 0.1739(5) 0.7424(9)
H44 H 0.5791 0.1707 0.7045
C93 C 0.6494(2) 0.21222(19) 0.7268(4)
C94 C 0.6389(3) 0.14421(19) 0.8727(4)
Fe1 Fe 0.32386(5) 0.71869(5) 0.5000
S1 S 0.05621(6) 0.62406(9) 0.11668(12)
O1 O 0.3333 0.6667 0.5000
O2 O 0.31482(19) 0.7726(2) 0.5000
O3 O 0.24735(16) 0.61947(18) 0.3844(3)
O4 O 0.27451(19) 0.68974(19) 0.3797(4)
C1 C 0.2453(3) 0.6494(3) 0.3504(6)
C2 C 0.0197(2) 0.6065(3) 0.0000
C3 C 0.1057(2) 0.6329(3) 0.0553(5)
C4 C 0.2174(5) 0.6797(5) 0.2068(9)
H1 H 0.2438 0.7099 0.2112
C5 C 0.1826(4) 0.6688(5) 0.1212(9)
H2 H 0.1921 0.6872 0.0576
C6 C 0.1395(5) 0.6013(6) 0.1818(9)
H3 H 0.1129 0.5719 0.1694
C7 C 0.1739(5) 0.6053(5) 0.2576(9)
H4 H 0.1707 0.5791 0.2955
C8 C 0.21222(19) 0.6494(2) 0.2732(4)
C9 C 0.14421(19) 0.6389(3) 0.1273(4)
Fe2 Fe 0.28131(5) 0.60517(7) 0.5000
S5 S 0.37594(9) 0.43215(11) 0.11668(12)
O11 O 0.2274(2) 0.54222(28) 0.5000
O12 O 0.38053(18) 0.62788(24) 0.3844(3)
O13 O 0.31026(19) 0.58477(27) 0.3797(4)
C35 C 0.3506(3) 0.5959(4) 0.3504(6)
C36 C 0.3935(3) 0.4132(4) 0.0000
C37 C 0.3671(3) 0.4728(4) 0.0553(5)
C38 C 0.3203(5) 0.5377(7) 0.2068(9)
H17 H 0.2901 0.5339 0.2112
C39 C 0.3312(5) 0.5138(6) 0.1212(9)
H18 H 0.3128 0.5049 0.0576
C40 C 0.3987(6) 0.5382(8) 0.1818(9)
H19 H 0.4281 0.5410 0.1694
C41 C 0.3947(5) 0.5686(7) 0.2576(9)
H20 H 0.4209 0.5916 0.2955
C42 C 0.3506(2) 0.56282(28) 0.2732(4)
C43 C 0.3611(3) 0.50531(36) 0.1273(4)
C53 C 0.4132(4) 0.3935(3) 0.0000
S8 S 0.43215(11) 0.37594(9) 0.11668(12)
O18 O 0.62788(24) 0.38053(18) 0.3844(3)
O19 O 0.58477(27) 0.31026(19) 0.3797(4)
C61 C 0.5959(4) 0.3506(3) 0.3504(6)
C62 C 0.4728(4) 0.3671(3) 0.0553(5)
C63 C 0.5377(7) 0.3203(5) 0.2068(9)
H29 H 0.5339 0.2901 0.2112
C64 C 0.5138(6) 0.3312(5) 0.1212(9)
H30 H 0.5049 0.3128 0.0576
C65 C 0.5382(8) 0.3987(6) 0.1818(9)
H31 H 0.5410 0.4281 0.1694
C66 C 0.5686(7) 0.3947(5) 0.2576(9)
H32 H 0.5916 0.4209 0.2955
C67 C 0.56282(28) 0.3506(2) 0.2732(4)
C68 C 0.50531(36) 0.3611(3) 0.1273(4)
Fe3 Fe 0.39483(7) 0.67614(5) 0.5000
S9 S 0.56785(11) 0.94379(6) 0.11668(12)
O20 O 0.45778(28) 0.68518(19) 0.5000
O21 O 0.37212(24) 0.75265(16) 0.3844(3)
O22 O 0.41523(27) 0.72549(19) 0.3797(4)
C69 C 0.4041(4) 0.7547(3) 0.3504(6)
C70 C 0.5868(4) 0.9803(2) 0.0000
C71 C 0.5272(4) 0.8943(2) 0.0553(5)
C72 C 0.4623(7) 0.7826(5) 0.2068(9)
H33 H 0.4661 0.7562 0.2112
C73 C 0.4862(6) 0.8174(4) 0.1212(9)
H34 H 0.4951 0.8079 0.0576
C74 C 0.4618(8) 0.8605(5) 0.1818(9)
H35 H 0.4590 0.8871 0.1694
C75 C 0.4314(7) 0.8261(5) 0.2576(9)
H36 H 0.4084 0.8293 0.2955
C76 C 0.43718(28) 0.78778(19) 0.2732(4)
C77 C 0.49469(36) 0.85579(19) 0.1273(4)
Fe18 Fe 0.67614(5) 0.39483(7) 0.5000
O36 O 0.24735(16) 0.61947(18) 0.6156(3)
O37 O 0.38053(18) 0.62788(24) 0.6156(3)
O38 O 0.37212(24) 0.75265(16) 0.6156(3)
O42 O 0.27451(19) 0.68974(19) 0.6203(4)
O43 O 0.31026(19) 0.58477(27) 0.6203(4)
O44 O 0.41523(27) 0.72549(19) 0.6203(4)
C2_2 C 0.0197(2) 0.6065(3) 1.0000
S2 S 0.05621(6) 0.62406(9) 0.88332(12)
C10 C 0.2453(3) 0.6494(3) 0.6496(6)
C11 C 0.1057(2) 0.6329(3) 0.9447(5)
C12 C 0.2174(5) 0.6797(5) 0.7932(9)
H5 H 0.2438 0.7099 0.7888
C13 C 0.1826(4) 0.6688(5) 0.8788(9)
H6 H 0.1921 0.6872 0.9424
C14 C 0.1395(5) 0.6013(6) 0.8182(9)
H7 H 0.1129 0.5719 0.8306
C15 C 0.1739(5) 0.6053(5) 0.7424(9)
H8 H 0.1707 0.5791 0.7045
C16 C 0.21222(19) 0.6494(2) 0.7268(4)
C17 C 0.14421(19) 0.6389(3) 0.8727(4)
C36_2 C 0.3935(3) 0.4132(4) 1.0000
S6 S 0.37594(9) 0.43215(11) 0.88332(12)
C44 C 0.3506(3) 0.5959(4) 0.6496(6)
C45 C 0.3671(3) 0.4728(4) 0.9447(5)
C46 C 0.3203(5) 0.5377(7) 0.7932(9)
H21 H 0.2901 0.5339 0.7888
C47 C 0.3312(5) 0.5138(6) 0.8788(9)
H22 H 0.3128 0.5049 0.9424
C48 C 0.3987(6) 0.5382(8) 0.8182(9)
H23 H 0.4281 0.5410 0.8306
C49 C 0.3947(5) 0.5686(7) 0.7424(9)
H24 H 0.4209 0.5916 0.7045
C50 C 0.3506(2) 0.56282(28) 0.7268(4)
C51 C 0.3611(3) 0.50531(36) 0.8727(4)
S7 S 0.43215(11) 0.37594(9) 0.88332(12)
O16 O 0.62788(24) 0.38053(18) 0.6156(3)
O17 O 0.58477(27) 0.31026(19) 0.6203(4)
C52 C 0.5959(4) 0.3506(3) 0.6496(6)
C53_2 C 0.4132(4) 0.3935(3) 1.0000
C54 C 0.4728(4) 0.3671(3) 0.9447(5)
C55 C 0.5377(7) 0.3203(5) 0.7932(9)
H25 H 0.5339 0.2901 0.7888
C56 C 0.5138(6) 0.3312(5) 0.8788(9)
H26 H 0.5049 0.3128 0.9424
C57 C 0.5382(8) 0.3987(6) 0.8182(9)
H27 H 0.5410 0.4281 0.8306
C58 C 0.5686(7) 0.3947(5) 0.7424(9)
H28 H 0.5916 0.4209 0.7045
C59 C 0.56282(28) 0.3506(2) 0.7268(4)
C60 C 0.50531(36) 0.3611(3) 0.8727(4)
C70_2 C 0.5868(4) 0.9803(2) 1.0000
S10 S 0.56785(11) 0.94379(6) 0.88332(12)
C78 C 0.4041(4) 0.7547(3) 0.6496(6)
C79 C 0.5272(4) 0.8943(2) 0.9447(5)
C80 C 0.4623(7) 0.7826(5) 0.7932(9)
H37 H 0.4661 0.7562 0.7888
C81 C 0.4862(6) 0.8174(4) 0.8788(9)
H38 H 0.4951 0.8079 0.9424
C82 C 0.4618(8) 0.8605(5) 0.8182(9)
H39 H 0.4590 0.8871 0.8306
C83 C 0.4314(7) 0.8261(5) 0.7424(9)
H40 H 0.4084 0.8293 0.7045
C84 C 0.43718(28) 0.78778(19) 0.7268(4)
C85 C 0.49469(36) 0.85579(19) 0.8727(4)
C19 C 0.9803(2) 0.5868(4) 0.0000
S4 S 0.94379(6) 0.56785(11) 0.11668(12)
O9 O 0.75265(16) 0.37212(24) 0.3844(3)
O10 O 0.72549(19) 0.41523(27) 0.3797(4)
C27 C 0.7547(3) 0.4041(4) 0.3504(6)
C28 C 0.8943(2) 0.5272(4) 0.0553(5)
C29 C 0.7826(5) 0.4623(7) 0.2068(9)
H13 H 0.7562 0.4661 0.2112
C30 C 0.8174(4) 0.4862(6) 0.1212(9)
H14 H 0.8079 0.4951 0.0576
C31 C 0.8605(5) 0.4618(8) 0.1818(9)
H15 H 0.8871 0.4590 0.1694
C32 C 0.8261(5) 0.4314(7) 0.2576(9)
H16 H 0.8293 0.4084 0.2955
C33 C 0.78778(19) 0.43718(28) 0.2732(4)
C34 C 0.85579(19) 0.49469(36) 0.1273(4)
S3 S 0.94379(6) 0.56785(11) 0.88332(12)
O7 O 0.75265(16) 0.37212(24) 0.6156(3)
O8 O 0.72549(19) 0.41523(27) 0.6203(4)
C18 C 0.7547(3) 0.4041(4) 0.6496(6)
C19_2 C 0.9803(2) 0.5868(4) 1.0000
C20 C 0.8943(2) 0.5272(4) 0.9447(5)
C21 C 0.7826(5) 0.4623(7) 0.7932(9)
H9 H 0.7562 0.4661 0.7888
C22 C 0.8174(4) 0.4862(6) 0.8788(9)
H10 H 0.8079 0.4951 0.9424
C23 C 0.8605(5) 0.4618(8) 0.8182(9)
H11 H 0.8871 0.4590 0.8306
C24 C 0.8261(5) 0.4314(7) 0.7424(9)
H12 H 0.8293 0.4084 0.7045
C25 C 0.78778(19) 0.43718(28) 0.7268(4)
C26 C 0.85579(19) 0.49469(36) 0.8727(4)
O29 O 0.6667 0.3333 0.5000
O30 O 0.7726(2) 0.31482(19) 0.5000
O31 O 0.54222(28) 0.2274(2) 0.5000
O32 O 0.68518(19) 0.45778(28) 0.5000
loop_
_geom_bond_atom_site_label_1
_geom_bond_atom_site_label_2
_geom_bond_site_symmetry_1
_geom_bond_site_symmetry_2
S12 C87 1_555 1_555
O27 C95 1_555 1_555
O28 C95 1_555 1_555
C95 C101 1_555 1_555
C97 H45 1_555 1_555
C98 C97 1_555 1_555
H46 C98 1_555 1_555
C99 H47 1_555 1_555
C100 C99 1_555 1_555
H48 C100 1_555 1_555
C101 C97 1_555 1_555
C102 C96 1_555 1_555
Fe10 O28 1_555 1_555
Fe14 O27 1_555 1_555
S12 C96 1_555 1_555
C98 C102 1_555 1_555
C99 C102 1_555 1_555
C100 C101 1_555 1_555
S11 C87_2 1_555 1_555
O25 C86 1_555 1_555
O26 C86 1_555 1_555
C86 C93 1_555 1_555
C88 S11 1_555 1_555
C89 H41 1_555 1_555
C90 C89 1_555 1_555
H42 C90 1_555 1_555
C91 H43 1_555 1_555
C92 C91 1_555 1_555
H44 C92 1_555 1_555
C93 C89 1_555 1_555
C94 C88 1_555 1_555
Fe10 O26 1_555 1_555
Fe14 O25 1_555 1_555
C90 C94 1_555 1_555
C91 C94 1_555 1_555
C92 C93 1_555 1_555
Fe1 O1 1_555 1_555
S1 C2 1_555 1_555
O1 Fe2 1_555 1_555
O2 Fe1 1_555 1_555
O3 C1 1_555 1_555
O4 Fe1 1_555 1_555
C1 O4 1_555 1_555
C3 S1 1_555 1_555
C4 H1 1_555 1_555
C5 C4 1_555 1_555
H2 C5 1_555 1_555
C6 H3 1_555 1_555
C7 C6 1_555 1_555
H4 C7 1_555 1_555
C8 C1 1_555 1_555
C9 C3 1_555 1_555
Fe2 O3 1_555 1_555
S5 C36 1_555 1_555
O11 Fe2 1_555 1_555
O12 C35 1_555 1_555
O13 Fe2 1_555 1_555
C35 O13 1_555 1_555
C37 S5 1_555 1_555
C38 H17 1_555 1_555
C39 C38 1_555 1_555
H18 C39 1_555 1_555
C40 H19 1_555 1_555
C41 C40 1_555 1_555
H20 C41 1_555 1_555
C42 C35 1_555 1_555
C43 C37 1_555 1_555
C53 C36 1_555 1_555
S8 C53 1_555 1_555
O18 C61 1_555 1_555
O19 C61 1_555 1_555
C61 C67 1_555 1_555
C63 H29 1_555 1_555
C64 C63 1_555 1_555
H30 C64 1_555 1_555
C65 H31 1_555 1_555
C66 C65 1_555 1_555
H32 C66 1_555 1_555
C67 C63 1_555 1_555
C68 C62 1_555 1_555
Fe3 O1 1_555 1_555
S9 C70 1_555 1_555
O20 Fe3 1_555 1_555
O21 Fe1 1_555 1_555
O22 Fe3 1_555 1_555
C69 O21 1_555 1_555
C71 S9 1_555 1_555
C72 H33 1_555 1_555
C73 C72 1_555 1_555
H34 C73 1_555 1_555
C74 H35 1_555 1_555
C75 C74 1_555 1_555
H36 C75 1_555 1_555
C76 C69 1_555 1_555
C77 C71 1_555 1_555
Fe14 O19 1_555 1_555
Fe18 O18 1_555 1_555
O36 Fe2 1_555 1_555
O37 Fe3 1_555 1_555
O38 Fe1 1_555 1_555
O42 Fe1 1_555 1_555
O43 Fe2 1_555 1_555
O44 Fe3 1_555 1_555
C4 C8 1_555 1_555
C5 C9 1_555 1_555
C6 C9 1_555 1_555
C7 C8 1_555 1_555
O12 Fe3 1_555 1_555
C38 C42 1_555 1_555
C39 C43 1_555 1_555
C40 C43 1_555 1_555
C41 C42 1_555 1_555
S8 C62 1_555 1_555
C64 C68 1_555 1_555
C65 C68 1_555 1_555
C66 C67 1_555 1_555
O22 C69 1_555 1_555
C72 C76 1_555 1_555
C73 C77 1_555 1_555
C74 C77 1_555 1_555
C75 C76 1_555 1_555
C2_2 S2 1_555 1_555
S2 C11 1_555 1_555
O36 C10 1_555 1_555
O42 C10 1_555 1_555
C10 C16 1_555 1_555
C12 H5 1_555 1_555
C13 C12 1_555 1_555
H6 C13 1_555 1_555
C14 H7 1_555 1_555
C15 C14 1_555 1_555
H8 C15 1_555 1_555
C16 C12 1_555 1_555
C17 C11 1_555 1_555
C36_2 S6 1_555 1_555
S6 C45 1_555 1_555
O37 C44 1_555 1_555
O43 C44 1_555 1_555
C44 C50 1_555 1_555
C46 H21 1_555 1_555
C47 C46 1_555 1_555
H22 C47 1_555 1_555
C48 H23 1_555 1_555
C49 C48 1_555 1_555
H24 C49 1_555 1_555
C50 C46 1_555 1_555
C51 C45 1_555 1_555
S7 C53_2 1_555 1_555
O16 C52 1_555 1_555
O17 C52 1_555 1_555
C52 C59 1_555 1_555
C53_2 C36_2 1_555 1_555
C54 S7 1_555 1_555
C55 H25 1_555 1_555
C56 C55 1_555 1_555
H26 C56 1_555 1_555
C57 H27 1_555 1_555
C58 C57 1_555 1_555
H28 C58 1_555 1_555
C59 C55 1_555 1_555
C60 C54 1_555 1_555
C70_2 S10 1_555 1_555
S10 C79 1_555 1_555
O38 C78 1_555 1_555
O44 C78 1_555 1_555
C78 C84 1_555 1_555
C80 H37 1_555 1_555
C81 C80 1_555 1_555
H38 C81 1_555 1_555
C82 H39 1_555 1_555
C83 C82 1_555 1_555
H40 C83 1_555 1_555
C84 C80 1_555 1_555
C85 C79 1_555 1_555
Fe14 O17 1_555 1_555
Fe18 O16 1_555 1_555
C13 C17 1_555 1_555
C14 C17 1_555 1_555
C15 C16 1_555 1_555
C47 C51 1_555 1_555
C48 C51 1_555 1_555
C49 C50 1_555 1_555
C56 C60 1_555 1_555
C57 C60 1_555 1_555
C58 C59 1_555 1_555
C81 C85 1_555 1_555
C82 C85 1_555 1_555
C83 C84 1_555 1_555
S4 C19 1_555 1_555
O9 C27 1_555 1_555
O10 C27 1_555 1_555
C27 C33 1_555 1_555
C29 H13 1_555 1_555
C30 C29 1_555 1_555
H14 C30 1_555 1_555
C31 H15 1_555 1_555
C32 C31 1_555 1_555
H16 C32 1_555 1_555
C33 C29 1_555 1_555
C34 C28 1_555 1_555
Fe10 O9 1_555 1_555
Fe18 O10 1_555 1_555
S4 C28 1_555 1_555
C30 C34 1_555 1_555
C31 C34 1_555 1_555
C32 C33 1_555 1_555
S3 C19_2 1_555 1_555
O7 C18 1_555 1_555
O8 C18 1_555 1_555
C18 C25 1_555 1_555
C20 S3 1_555 1_555
C21 H9 1_555 1_555
C22 C21 1_555 1_555
H10 C22 1_555 1_555
C23 H11 1_555 1_555
C24 C23 1_555 1_555
H12 C24 1_555 1_555
C25 C21 1_555 1_555
C26 C20 1_555 1_555
Fe10 O7 1_555 1_555
Fe18 O8 1_555 1_555
C22 C26 1_555 1_555
C23 C26 1_555 1_555
C24 C25 1_555 1_555
O29 Fe10 1_555 1_555
O30 Fe10 1_555 1_555
O31 Fe14 1_555 1_555
O32 Fe18 1_555 1_555
O29 Fe14 1_555 1_555
O29 Fe18 1_555 1_555

#END
