
###############################################################################
#
# This file contains modified crystal structure data generated from the
# MOF subset of the Cambridge Structural Database (CSD) v543 
# hosted by the Cambridge Crystallographic Data Centre (CCDC).
#
# This work is licensed under the Creative Commons
# Attribution-NonCommercial-ShareAlike 4.0 International License.
# To view a copy of this license, visit
# http://creativecommons.org/licenses/by-nc-sa/4.0/
# or send a letter to
# Creative Commons, PO Box 1866, Mountain View, CA 94042, USA.
#
# CIF created using the CSD Python API on 29 September 2022
# The structure has been converted into the P1 space group
# The structure has a 3D framework
# The original CSD entry HEXNII is in the monoclinic crystal system
# The framework has been calculated to contain at least 10.0% void space
# The void calculation uses a probe of radius 1.32A, grid spacing 0.4
#
###############################################################################

data_HEXNII
_chemical_formula_moiety         '(C48 H38 Cd6 N22 S8)n'
_symmetry_cell_setting           triclinic
_symmetry_space_group_name_H-M   'P 1'
_symmetry_Int_Tables_number      1
_space_group_name_Hall           'P 1'
loop_
_symmetry_equiv_pos_site_id
_symmetry_equiv_pos_as_xyz
1 x,y,z
_cell_length_a                   21.9952(10)
_cell_length_b                   10.1725(5)
_cell_length_c                   7.6396(3)
_cell_angle_alpha                90
_cell_angle_beta                 97.608(3)
_cell_angle_gamma                90
_cell_volume                     1694.28
loop_
_atom_site_label
_atom_site_type_symbol
_atom_site_fract_x
_atom_site_fract_y
_atom_site_fract_z
Cd1 Cd 0.25000 0.25000 0.00000
N2 N 0.16289(10) 0.1695(2) 0.1025(3)
N3 N 0.00000 0.0166(3) 0.25000
C2 C 0.05243(12) 0.0736(3) 0.2019(3)
C3 C 0.14558(13) 0.0431(3) 0.0749(3)
C5 C 0.07121(13) 0.2033(3) 0.2370(4)
H4 H 0.0473 0.2603 0.2942
C6 C 0.12590(17) 0.2458(2) 0.1856(5)
H5 H 0.1378 0.3323 0.21
C7 C 0.20808(12) 0.5614(3) 0.1272(3)
N4 N 0.22727(12) 0.4608(2) 0.0907(3)
Cd4 Cd 0.25000 0.75000 0.50000
S2 S 0.18033(4) 0.70561(8) 0.17687(10)
S3 S 0.31967(4) 0.20561(8) 0.32313(10)
N1 N 0.27273(12) 0.0392(2) 0.9093(3)
Cd1_2 Cd 0.25000 0.25000 1.00000
S4 S 0.18033(4) 0.29439(8) 0.67687(10)
N6 N 0.33711(10) 0.3305(2) 0.8975(3)
C1 C 0.29192(12) 0.9386(3) 0.8728(3)
S1 S 0.31967(4) 0.79439(8) 0.82313(10)
N3_2 N 1.00000 0.0166(3) 0.25000
Cd3 Cd 0.75000 0.25000 0.50000
N5 N 0.83711(10) 0.1695(2) 0.3975(3)
C8 C 0.94757(12) 0.0736(3) 0.2981(3)
C9 C 0.85442(13) 0.0431(3) 0.4251(3)
C11 C 0.92879(13) 0.2033(3) 0.2630(4)
H8 H 0.9527 0.2603 0.2058
C12 C 0.87410(17) 0.2458(2) 0.3144(5)
H9 H 0.8622 0.3323 0.29
H1 H 1.00000 0.9318 0.25000
H6 H 0.8289 0.9873 0.4785
C10 C 0.90790(12) 0.9929(3) 0.3782(3)
H7 H 0.9177 0.905 0.3999
C7_2 C 0.70808(12) 0.0614(3) 0.1272(3)
S2_2 S 0.68033(4) 0.20561(8) 0.17687(10)
H1_2 H 0.50000 0.4318 0.25000
Cd1_3 Cd 0.75000 0.75000 0.00000
N2_2 N 0.66289(10) 0.6695(2) 0.1025(3)
N3_3 N 0.50000 0.5166(3) 0.25000
C2_2 C 0.55243(12) 0.5736(3) 0.2019(3)
C3_2 C 0.64558(13) 0.5431(3) 0.0749(3)
H2 H 0.6711 0.4873 0.0215
C4 C 0.59210(12) 0.4929(3) 0.1218(3)
H3 H 0.5823 0.405 0.1001
C5_2 C 0.57121(13) 0.7033(3) 0.2370(4)
H4_2 H 0.5473 0.7603 0.2942
C6_2 C 0.62590(17) 0.7458(2) 0.1856(5)
H5_2 H 0.6378 0.8323 0.21
N4_2 N 0.72727(12) 0.9608(2) 0.0907(3)
S3_2 S 0.81967(4) 0.70561(8) 0.32313(10)
N5_2 N 0.33711(10) 0.6695(2) 0.3975(3)
C8_2 C 0.44757(12) 0.5736(3) 0.2981(3)
C9_2 C 0.35442(13) 0.5431(3) 0.4251(3)
H6_2 H 0.3289 0.4873 0.4785
C10_2 C 0.40790(12) 0.4929(3) 0.3782(3)
H7_2 H 0.4177 0.405 0.3999
C11_2 C 0.42879(13) 0.7033(3) 0.2630(4)
H8_2 H 0.4527 0.7603 0.2058
C12_2 C 0.37410(17) 0.7458(2) 0.3144(5)
H9_2 H 0.3622 0.8323 0.29
C1_2 C 0.79192(12) 0.4386(3) 0.8728(3)
N1_2 N 0.77273(12) 0.5392(2) 0.9093(3)
Cd1_4 Cd 0.75000 0.75000 1.00000
S1_2 S 0.81967(4) 0.29439(8) 0.82313(10)
S4_2 S 0.68033(4) 0.79439(8) 0.67687(10)
N6_2 N 0.83711(10) 0.8305(2) 0.8975(3)
N1_3 N 0.72727(12) 0.0392(2) 0.5907(3)
C7_3 C 0.79192(12) 0.5614(3) 0.3728(3)
N4_3 N 0.77273(12) 0.4608(2) 0.4093(3)
N6_3 N 0.66289(10) 0.3305(2) 0.6025(3)
C1_3 C 0.70808(12) 0.9386(3) 0.6272(3)
C7_4 C 0.29192(12) 0.0614(3) 0.3728(3)
C1_4 C 0.20808(12) 0.4386(3) 0.6272(3)
N1_4 N 0.22727(12) 0.5392(2) 0.5907(3)
N4_4 N 0.27273(12) 0.9608(2) 0.4093(3)
N6_4 N 0.16289(10) 0.8305(2) 0.6025(3)
H1_3 H -0.00000 0.0682 0.75000
H6_3 H 0.1711 0.0127 0.5215
C10_3 C 0.09210(12) 0.0071(3) 0.6218(3)
H7_3 H 0.0823 0.095 0.6001
N3_4 N -0.00000 0.9834(3) 0.75000
C8_3 C 0.05243(12) 0.9264(3) 0.7019(3)
C9_3 C 0.14558(13) 0.9569(3) 0.5749(3)
C11_3 C 0.07121(13) 0.7967(3) 0.7370(4)
H8_3 H 0.0473 0.7397 0.7942
C12_3 C 0.12590(17) 0.7542(2) 0.6856(5)
H9_3 H 0.1378 0.6677 0.71
N3_5 N 1.00000 0.9834(3) 0.75000
C2_3 C 0.94757(12) 0.9264(3) 0.7981(3)
C3_3 C 0.85442(13) 0.9569(3) 0.9251(3)
C5_3 C 0.92879(13) 0.7967(3) 0.7630(4)
H4_3 H 0.9527 0.7397 0.7058
C6_3 C 0.87410(17) 0.7542(2) 0.8144(5)
H5_3 H 0.8622 0.6677 0.79
H1_4 H 0.50000 0.5682 0.75000
N3_6 N 0.50000 0.4834(3) 0.75000
C2_4 C 0.44757(12) 0.4264(3) 0.7981(3)
C3_4 C 0.35442(13) 0.4569(3) 0.9251(3)
H2_2 H 0.3289 0.5127 0.9785
C4_2 C 0.40790(12) 0.5071(3) 0.8782(3)
H3_2 H 0.4177 0.595 0.8999
C5_4 C 0.42879(13) 0.2967(3) 0.7630(4)
H4_4 H 0.4527 0.2397 0.7058
C6_4 C 0.37410(17) 0.2542(2) 0.8144(5)
H5_4 H 0.3622 0.1677 0.79
C8_4 C 0.55243(12) 0.4264(3) 0.7019(3)
C9_4 C 0.64558(13) 0.4569(3) 0.5749(3)
H6_4 H 0.6711 0.5127 0.5215
C10_4 C 0.59210(12) 0.5071(3) 0.6218(3)
H7_4 H 0.5823 0.595 0.6001
C11_4 C 0.57121(13) 0.2967(3) 0.7370(4)
H8_4 H 0.5473 0.2397 0.7942
C12_4 C 0.62590(17) 0.2542(2) 0.6856(5)
H9_4 H 0.6378 0.1677 0.71
H1_5 H 0.00000 0.9318 0.25000
H2_3 H 0.1711 0.9873 0.0215
C4_3 C 0.09210(12) 0.9929(3) 0.1218(3)
H3_3 H 0.0823 0.905 0.1001
H1_6 H 1.00000 0.0682 0.75000
H2_4 H 0.8289 0.0127 0.9785
C4_4 C 0.90790(12) 0.0071(3) 0.8782(3)
H3_4 H 0.9177 0.095 0.8999
loop_
_geom_bond_atom_site_label_1
_geom_bond_atom_site_label_2
_geom_bond_site_symmetry_1
_geom_bond_site_symmetry_2
Cd1 N2 1_555 1_555
N2 C3 1_555 1_555
N3 C2 1_555 1_555
C5 C2 1_555 1_555
H4 C5 1_555 1_555
C6 N2 1_555 1_555
H5 C6 1_555 1_555
C7 N4 1_555 1_555
N4 Cd1 1_555 1_555
Cd4 S2 1_555 1_555
S2 C7 1_555 1_555
S3 Cd1 1_555 1_555
C5 C6 1_555 1_555
N1 Cd1_2 1_555 1_555
S4 Cd1_2 1_555 1_555
N6 Cd1_2 1_555 1_555
S1 C1 1_555 1_555
Cd4 S1 1_555 1_555
Cd3 N5 1_555 1_555
N5 C9 1_555 1_555
C8 N3_2 1_555 1_555
C11 C8 1_555 1_555
H8 C11 1_555 1_555
C12 N5 1_555 1_555
H9 C12 1_555 1_555
C11 C12 1_555 1_555
H7 C10 1_555 1_555
Cd3 S2_2 1_555 1_555
S2_2 C7_2 1_555 1_555
H1_2 N3_3 1_555 1_555
Cd1_3 N2_2 1_555 1_555
N2_2 C3_2 1_555 1_555
N3_3 C2_2 1_555 1_555
C2_2 C4 1_555 1_555
C3_2 H2 1_555 1_555
C4 C3_2 1_555 1_555
H3 C4 1_555 1_555
C5_2 C2_2 1_555 1_555
H4_2 C5_2 1_555 1_555
C6_2 N2_2 1_555 1_555
H5_2 C6_2 1_555 1_555
N4_2 Cd1_3 1_555 1_555
Cd4 N5_2 1_555 1_555
S3_2 Cd1_3 1_555 1_555
N5_2 C9_2 1_555 1_555
C8_2 N3_3 1_555 1_555
C9_2 H6_2 1_555 1_555
C10_2 C8_2 1_555 1_555
H7_2 C10_2 1_555 1_555
C11_2 C8_2 1_555 1_555
H8_2 C11_2 1_555 1_555
C12_2 N5_2 1_555 1_555
H9_2 C12_2 1_555 1_555
C5_2 C6_2 1_555 1_555
C9_2 C10_2 1_555 1_555
C11_2 C12_2 1_555 1_555
C1_2 N1_2 1_555 1_555
N1_2 Cd1_4 1_555 1_555
S1_2 C1_2 1_555 1_555
Cd3 S1_2 1_555 1_555
S4_2 Cd1_4 1_555 1_555
N6_2 Cd1_4 1_555 1_555
N1_3 Cd3 1_555 1_555
C7_3 N4_3 1_555 1_555
N4_3 Cd3 1_555 1_555
S3_2 C7_3 1_555 1_555
N6_3 Cd3 1_555 1_555
S4_2 C1_3 1_555 1_555
S3 C7_4 1_555 1_555
C1_4 N1_4 1_555 1_555
N1_4 Cd4 1_555 1_555
S4 C1_4 1_555 1_555
N4_4 Cd4 1_555 1_555
N6_4 Cd4 1_555 1_555
H7_3 C10_3 1_555 1_555
N6_4 C9_3 1_555 1_555
C8_3 N3_4 1_555 1_555
C11_3 C8_3 1_555 1_555
H8_3 C11_3 1_555 1_555
C12_3 N6_4 1_555 1_555
H9_3 C12_3 1_555 1_555
C11_3 C12_3 1_555 1_555
N6_2 C3_3 1_555 1_555
N3_5 C2_3 1_555 1_555
C5_3 C2_3 1_555 1_555
H4_3 C5_3 1_555 1_555
C6_3 N6_2 1_555 1_555
H5_3 C6_3 1_555 1_555
C5_3 C6_3 1_555 1_555
H1_4 N3_6 1_555 1_555
N6 C3_4 1_555 1_555
N3_6 C2_4 1_555 1_555
C2_4 C4_2 1_555 1_555
C3_4 H2_2 1_555 1_555
C4_2 C3_4 1_555 1_555
H3_2 C4_2 1_555 1_555
C5_4 C2_4 1_555 1_555
H4_4 C5_4 1_555 1_555
C6_4 N6 1_555 1_555
H5_4 C6_4 1_555 1_555
N6_3 C9_4 1_555 1_555
C8_4 N3_6 1_555 1_555
C9_4 H6_4 1_555 1_555
C10_4 C8_4 1_555 1_555
H7_4 C10_4 1_555 1_555
C11_4 C8_4 1_555 1_555
H8_4 C11_4 1_555 1_555
C12_4 N6_3 1_555 1_555
H9_4 C12_4 1_555 1_555
C5_4 C6_4 1_555 1_555
C9_4 C10_4 1_555 1_555
C11_4 C12_4 1_555 1_555
H3_3 C4_3 1_555 1_555
H3_4 C4_4 1_555 1_555

#END
