
###############################################################################
#
# This file contains modified crystal structure data generated from the
# MOF subset of the Cambridge Structural Database (CSD) v543 
# hosted by the Cambridge Crystallographic Data Centre (CCDC).
#
# This work is licensed under the Creative Commons
# Attribution-NonCommercial-ShareAlike 4.0 International License.
# To view a copy of this license, visit
# http://creativecommons.org/licenses/by-nc-sa/4.0/
# or send a letter to
# Creative Commons, PO Box 1866, Mountain View, CA 94042, USA.
#
# CIF created using the CSD Python API on 29 September 2022
# The structure has been converted into the P1 space group
# The structure has a 3D framework
# The original CSD entry HEXQOT is in the tetragonal crystal system
# The framework has been calculated to contain at least 10.0% void space
# The void calculation uses a probe of radius 1.32A, grid spacing 0.4
#
###############################################################################

data_HEXQOT
_chemical_formula_moiety         '(C352 H256 Cu24 F96 N64 O96 S32)n'
_symmetry_cell_setting           triclinic
_symmetry_space_group_name_H-M   'P 1'
_symmetry_Int_Tables_number      1
_space_group_name_Hall           'P 1'
loop_
_symmetry_equiv_pos_site_id
_symmetry_equiv_pos_as_xyz
1 x,y,z
_cell_length_a                   28.576(2)
_cell_length_b                   28.576(2)
_cell_length_c                   17.9860(10)
_cell_angle_alpha                90
_cell_angle_beta                 90
_cell_angle_gamma                90
_cell_volume                     14687.1
loop_
_atom_site_label
_atom_site_type_symbol
_atom_site_fract_x
_atom_site_fract_y
_atom_site_fract_z
Cu2 Cu 0.00963(2) 0.500 0.750
Cu1 Cu 0.750 0.25963(2) 0.000
N1 N 0.70869(13) 0.30864(12) 0.0460(2)
C1 C 0.69744(18) 0.30569(17) 0.1186(3)
H1 H 0.7123 0.2827 0.1485
C2 C 0.66505(19) 0.33506(18) 0.1507(3)
H2 H 0.6575 0.3318 0.2019
C3 C 0.64338(16) 0.36930(16) 0.1086(3)
C4 C 0.65544(17) 0.37245(16) 0.0342(3)
H3 H 0.6414 0.3955 0.0034
C5 C 0.68805(16) 0.34188(16) 0.0053(2)
N2 N 0.54065(12) 0.45878(12) 0.2049(2)
C6 C 0.5444(2) 0.41429(18) 0.2254(3)
H5 H 0.5236 0.4026 0.2622
C7 C 0.5770(2) 0.38450(18) 0.1956(3)
H6 H 0.5784 0.3528 0.2116
C8 C 0.60806(16) 0.40070(16) 0.1422(3)
C9 C 0.60291(18) 0.44646(17) 0.1192(3)
H7 H 0.6224 0.4588 0.0812
C10 C 0.56920(17) 0.47417(17) 0.1520(3)
H8 H 0.5663 0.5057 0.136
O1 O 0.80014(12) 0.25927(12) 0.11066(18)
O2 O 0.8068(3) 0.2563(3) 0.2452(3)
S1 S 0.81917(7) 0.27748(8) 0.17845(9)
O3 O 0.8160(2) 0.32763(19) 0.1817(3)
C11 C 0.8816(4) 0.2649(3) 0.1683(5)
F1 F 0.8870(3) 0.2181(3) 0.1727(5)
F2 F 0.9072(3) 0.2845(3) 0.2218(4)
F3 F 0.8989(2) 0.2791(3) 0.1038(4)
H12 H 0.8038 0.3446 0.0457
Cu3 Cu 0.49037(2) 0.500 0.250
N5 N 0.70878(12) 0.20935(12) 0.0451(2)
Cu1_2 Cu 0.750 0.25963(2) 1.000
H4 H 0.6962 0.3446 0.9543
N3 N 0.79131(13) 0.30864(12) 0.9540(2)
C12 C 0.80256(18) 0.30569(17) 0.8814(3)
H9 H 0.7877 0.2827 0.8515
C13 C 0.83495(19) 0.33506(18) 0.8493(3)
H10 H 0.8425 0.3318 0.7981
C14 C 0.85662(16) 0.36930(16) 0.8914(3)
C15 C 0.84456(17) 0.37245(16) 0.9658(3)
H11 H 0.8586 0.3955 0.9966
C16 C 0.81195(16) 0.34188(16) 0.9947(2)
N4 N 0.95935(12) 0.45878(12) 0.7951(2)
C17 C 0.9556(2) 0.41429(18) 0.7746(3)
H13 H 0.9764 0.4026 0.7378
C18 C 0.9230(2) 0.38450(18) 0.8044(3)
H14 H 0.9216 0.3528 0.7884
C19 C 0.89194(16) 0.40070(16) 0.8578(3)
C20 C 0.89709(18) 0.44646(17) 0.8808(3)
H15 H 0.8776 0.4588 0.9188
C21 C 0.93080(17) 0.47417(17) 0.8480(3)
H16 H 0.9337 0.5057 0.864
O4 O 0.69986(12) 0.25927(12) 0.88934(18)
O5 O 0.6932(3) 0.2563(3) 0.7548(3)
S2 S 0.68083(7) 0.27748(8) 0.82155(9)
O6 O 0.6840(2) 0.32763(19) 0.8183(3)
C22 C 0.6184(4) 0.2649(3) 0.8317(5)
F4 F 0.6130(3) 0.2181(3) 0.8273(5)
F5 F 0.5928(3) 0.2845(3) 0.7782(4)
F6 F 0.6011(2) 0.2791(3) 0.8962(4)
N6 N 0.79122(12) 0.20935(12) 0.9549(2)
Cu1_3 Cu 0.750 0.74037(2) 0.500
N1_2 N 0.79131(13) 0.69136(12) 0.5460(2)
C1_2 C 0.80256(18) 0.69431(17) 0.6186(3)
H1_2 H 0.7877 0.7173 0.6485
C2_2 C 0.83495(19) 0.66494(18) 0.6507(3)
H2_2 H 0.8425 0.6682 0.7019
C3_2 C 0.85662(16) 0.63070(16) 0.6086(3)
C4_2 C 0.84456(17) 0.62755(16) 0.5342(3)
H3_2 H 0.8586 0.6045 0.5034
C5_2 C 0.81195(16) 0.65812(16) 0.5053(2)
H4_2 H 0.8038 0.6554 0.4543
N2_2 N 0.95935(12) 0.54122(12) 0.7049(2)
C6_2 C 0.9556(2) 0.58571(18) 0.7254(3)
H5_2 H 0.9764 0.5974 0.7622
C7_2 C 0.9230(2) 0.61550(18) 0.6956(3)
H6_2 H 0.9216 0.6472 0.7116
C8_2 C 0.89194(16) 0.59930(16) 0.6422(3)
C9_2 C 0.89709(18) 0.55354(17) 0.6192(3)
H7_2 H 0.8776 0.5412 0.5812
C10_2 C 0.93080(17) 0.52583(17) 0.6520(3)
H8_2 H 0.9337 0.4943 0.636
O1_2 O 0.69986(12) 0.74073(12) 0.61066(18)
O2_2 O 0.6932(3) 0.7437(3) 0.7452(3)
S1_2 S 0.68083(7) 0.72252(8) 0.67845(9)
O3_2 O 0.6840(2) 0.67237(19) 0.6817(3)
C11_2 C 0.6184(4) 0.7351(3) 0.6683(5)
F1_2 F 0.6130(3) 0.7819(3) 0.6727(5)
F2_2 F 0.5928(3) 0.7155(3) 0.7218(4)
F3_2 F 0.6011(2) 0.7209(3) 0.6038(4)
N3_2 N 0.70869(13) 0.69136(12) 0.4540(2)
C12_2 C 0.69744(18) 0.69431(17) 0.3814(3)
H9_2 H 0.7123 0.7173 0.3515
C13_2 C 0.66505(19) 0.66494(18) 0.3493(3)
H10_2 H 0.6575 0.6682 0.2981
C14_2 C 0.64338(16) 0.63070(16) 0.3914(3)
C15_2 C 0.65544(17) 0.62755(16) 0.4658(3)
H11_2 H 0.6414 0.6045 0.4966
C16_2 C 0.68805(16) 0.65812(16) 0.4947(2)
H12_2 H 0.6962 0.6554 0.5457
N4_2 N 0.54065(12) 0.54122(12) 0.2951(2)
C17_2 C 0.5444(2) 0.58571(18) 0.2746(3)
H13_2 H 0.5236 0.5974 0.2378
C18_2 C 0.5770(2) 0.61550(18) 0.3044(3)
H14_2 H 0.5784 0.6472 0.2884
C19_2 C 0.60806(16) 0.59930(16) 0.3578(3)
C20_2 C 0.60291(18) 0.55354(17) 0.3808(3)
H15_2 H 0.6224 0.5412 0.4188
C21_2 C 0.56920(17) 0.52583(17) 0.3480(3)
H16_2 H 0.5663 0.4943 0.364
O4_2 O 0.80014(12) 0.74073(12) 0.38934(18)
O5_2 O 0.8068(3) 0.7437(3) 0.2548(3)
S2_2 S 0.81917(7) 0.72252(8) 0.32155(9)
O6_2 O 0.8160(2) 0.67237(19) 0.3183(3)
C22_2 C 0.8816(4) 0.7351(3) 0.3317(5)
F4_2 F 0.8870(3) 0.7819(3) 0.3273(5)
F5_2 F 0.9072(3) 0.7155(3) 0.2782(4)
F6_2 F 0.8989(2) 0.7209(3) 0.3962(4)
N5_2 N 0.79122(12) 0.79065(12) 0.5451(2)
N6_2 N 0.70878(12) 0.79065(12) 0.4549(2)
H8_3 H 0.0663 0.0057 0.636
H16_3 H 0.4337 0.0057 0.364
Cu2_2 Cu 0.50963(2) -0.000 0.250
Cu1_4 Cu 0.250 0.75963(2) 0.500
N1_3 N 0.20869(13) 0.80864(12) 0.5460(2)
C1_3 C 0.19744(18) 0.80569(17) 0.6186(3)
H1_3 H 0.2123 0.7827 0.6485
C2_3 C 0.16505(19) 0.83506(18) 0.6507(3)
H2_3 H 0.1575 0.8318 0.7019
C3_3 C 0.14338(16) 0.86930(16) 0.6086(3)
C4_3 C 0.15544(17) 0.87245(16) 0.5342(3)
H3_3 H 0.1414 0.8955 0.5034
C5_3 C 0.18805(16) 0.84188(16) 0.5053(2)
H4_3 H 0.1962 0.8446 0.4543
N2_3 N 0.04065(12) 0.95878(12) 0.7049(2)
C6_3 C 0.0444(2) 0.91429(18) 0.7254(3)
H5_3 H 0.0236 0.9026 0.7622
C7_3 C 0.0770(2) 0.88450(18) 0.6956(3)
H6_3 H 0.0784 0.8528 0.7116
C8_3 C 0.10806(16) 0.90070(16) 0.6422(3)
C9_3 C 0.10291(18) 0.94646(17) 0.6192(3)
H7_3 H 0.1224 0.9588 0.5812
C10_3 C 0.06920(17) 0.97417(17) 0.6520(3)
O1_3 O 0.30014(12) 0.75927(12) 0.61066(18)
O2_3 O 0.3068(3) 0.7563(3) 0.7452(3)
S1_3 S 0.31917(7) 0.77748(8) 0.67845(9)
O3_3 O 0.3160(2) 0.82763(19) 0.6817(3)
C11_3 C 0.3816(4) 0.7649(3) 0.6683(5)
F1_3 F 0.3870(3) 0.7181(3) 0.6727(5)
F2_3 F 0.4072(3) 0.7845(3) 0.7218(4)
F3_3 F 0.3989(2) 0.7791(3) 0.6038(4)
N3_3 N 0.29131(13) 0.80864(12) 0.4540(2)
C12_3 C 0.30256(18) 0.80569(17) 0.3814(3)
H9_3 H 0.2877 0.7827 0.3515
C13_3 C 0.33495(19) 0.83506(18) 0.3493(3)
H10_3 H 0.3425 0.8318 0.2981
C14_3 C 0.35662(16) 0.86930(16) 0.3914(3)
C15_3 C 0.34456(17) 0.87245(16) 0.4658(3)
H11_3 H 0.3586 0.8955 0.4966
C16_3 C 0.31195(16) 0.84188(16) 0.4947(2)
H12_3 H 0.3038 0.8446 0.5457
N4_3 N 0.45935(12) 0.95878(12) 0.2951(2)
C17_3 C 0.4556(2) 0.91429(18) 0.2746(3)
H13_3 H 0.4764 0.9026 0.2378
C18_3 C 0.4230(2) 0.88450(18) 0.3044(3)
H14_3 H 0.4216 0.8528 0.2884
C19_3 C 0.39194(16) 0.90070(16) 0.3578(3)
C20_3 C 0.39709(18) 0.94646(17) 0.3808(3)
H15_3 H 0.3776 0.9588 0.4188
C21_3 C 0.43080(17) 0.97417(17) 0.3480(3)
O4_3 O 0.19986(12) 0.75927(12) 0.38934(18)
O5_3 O 0.1932(3) 0.7563(3) 0.2548(3)
S2_3 S 0.18083(7) 0.77748(8) 0.32155(9)
O6_3 O 0.1840(2) 0.82763(19) 0.3183(3)
C22_3 C 0.1184(4) 0.7649(3) 0.3317(5)
F4_3 F 0.1130(3) 0.7181(3) 0.3273(5)
F5_3 F 0.0928(3) 0.7845(3) 0.2782(4)
F6_3 F 0.1011(2) 0.7791(3) 0.3962(4)
Cu2_3 Cu 0.50963(2) 1.000 0.250
N5_3 N 0.20878(12) 0.70935(12) 0.5451(2)
N6_3 N 0.29122(12) 0.70935(12) 0.4549(2)
Cu3_2 Cu 0.99037(2) -0.000 0.750
Cu3_3 Cu 0.99037(2) 1.000 0.750
Cu1_5 Cu 0.250 0.24037(2) 0.000
N1_4 N 0.29131(13) 0.19136(12) 0.0460(2)
C1_4 C 0.30256(18) 0.19431(17) 0.1186(3)
H1_4 H 0.2877 0.2173 0.1485
C2_4 C 0.33495(19) 0.16494(18) 0.1507(3)
H2_4 H 0.3425 0.1682 0.2019
C3_4 C 0.35662(16) 0.13070(16) 0.1086(3)
C4_4 C 0.34456(17) 0.12755(16) 0.0342(3)
H3_4 H 0.3586 0.1045 0.0034
C5_4 C 0.31195(16) 0.15812(16) 0.0053(2)
N2_4 N 0.45935(12) 0.04122(12) 0.2049(2)
C6_4 C 0.4556(2) 0.08571(18) 0.2254(3)
H5_4 H 0.4764 0.0974 0.2622
C7_4 C 0.4230(2) 0.11550(18) 0.1956(3)
H6_4 H 0.4216 0.1472 0.2116
C8_4 C 0.39194(16) 0.09930(16) 0.1422(3)
C9_4 C 0.39709(18) 0.05354(17) 0.1192(3)
H7_4 H 0.3776 0.0412 0.0812
C10_4 C 0.43080(17) 0.02583(17) 0.1520(3)
O1_4 O 0.19986(12) 0.24073(12) 0.11066(18)
O2_4 O 0.1932(3) 0.2437(3) 0.2452(3)
S1_4 S 0.18083(7) 0.22252(8) 0.17845(9)
O3_4 O 0.1840(2) 0.17237(19) 0.1817(3)
C11_4 C 0.1184(4) 0.2351(3) 0.1683(5)
F1_4 F 0.1130(3) 0.2819(3) 0.1727(5)
F2_4 F 0.0928(3) 0.2155(3) 0.2218(4)
F3_4 F 0.1011(2) 0.2209(3) 0.1038(4)
H12_4 H 0.1962 0.1554 0.0457
N5_4 N 0.29122(12) 0.29065(12) 0.0451(2)
Cu1_6 Cu 0.250 0.24037(2) 1.000
H4_4 H 0.3038 0.1554 0.9543
N3_4 N 0.20869(13) 0.19136(12) 0.9540(2)
C12_4 C 0.19744(18) 0.19431(17) 0.8814(3)
H9_4 H 0.2123 0.2173 0.8515
C13_4 C 0.16505(19) 0.16494(18) 0.8493(3)
H10_4 H 0.1575 0.1682 0.7981
C14_4 C 0.14338(16) 0.13070(16) 0.8914(3)
C15_4 C 0.15544(17) 0.12755(16) 0.9658(3)
H11_4 H 0.1414 0.1045 0.9966
C16_4 C 0.18805(16) 0.15812(16) 0.9947(2)
N4_4 N 0.04065(12) 0.04122(12) 0.7951(2)
C17_4 C 0.0444(2) 0.08571(18) 0.7746(3)
H13_4 H 0.0236 0.0974 0.7378
C18_4 C 0.0770(2) 0.11550(18) 0.8044(3)
H14_4 H 0.0784 0.1472 0.7884
C19_4 C 0.10806(16) 0.09930(16) 0.8578(3)
C20_4 C 0.10291(18) 0.05354(17) 0.8808(3)
H15_4 H 0.1224 0.0412 0.9188
C21_4 C 0.06920(17) 0.02583(17) 0.8480(3)
O4_4 O 0.30014(12) 0.24073(12) 0.88934(18)
O5_4 O 0.3068(3) 0.2437(3) 0.7548(3)
S2_4 S 0.31917(7) 0.22252(8) 0.82155(9)
O6_4 O 0.3160(2) 0.17237(19) 0.8183(3)
C22_4 C 0.3816(4) 0.2351(3) 0.8317(5)
F4_4 F 0.3870(3) 0.2819(3) 0.8273(5)
F5_4 F 0.4072(3) 0.2155(3) 0.7782(4)
F6_4 F 0.3989(2) 0.2209(3) 0.8962(4)
N6_4 N 0.20878(12) 0.29065(12) 0.9549(2)
H8_4 H 0.4337 0.9943 0.136
H13_5 H 0.1526 0.2736 0.0122
N1_5 N 0.05864(12) 0.54131(13) 0.7040(2)
C1_5 C 0.05569(17) 0.55256(18) 0.6314(3)
H1_5 H 0.0327 0.5377 0.6015
C2_5 C 0.08506(18) 0.58495(19) 0.5993(3)
H2_5 H 0.0818 0.5925 0.5481
C3_5 C 0.11930(16) 0.60662(16) 0.6414(3)
C4_5 C 0.12245(16) 0.59456(17) 0.7158(3)
H3_5 H 0.1455 0.6086 0.7466
C5_5 C 0.09188(16) 0.56195(16) 0.7447(2)
H4_5 H 0.0946 0.5538 0.7957
C6_5 C 0.16429(18) 0.7056(2) 0.5246(3)
H5_5 H 0.1526 0.7264 0.4878
C7_5 C 0.13450(18) 0.6730(2) 0.5544(3)
H6_5 H 0.1028 0.6716 0.5384
C8_5 C 0.15070(16) 0.64194(16) 0.6078(3)
C9_5 C 0.19646(17) 0.64709(18) 0.6308(3)
H7_5 H 0.2088 0.6276 0.6688
C10_5 C 0.22417(17) 0.68080(17) 0.5980(3)
H8_5 H 0.2557 0.6837 0.614
O1_5 O 0.00927(12) 0.44986(12) 0.63934(18)
O2_5 O 0.0063(3) 0.4432(3) 0.5048(3)
S1_5 S 0.02748(8) 0.43083(7) 0.57155(9)
O3_5 O 0.07763(19) 0.4340(2) 0.5683(3)
C11_5 C 0.0149(3) 0.3684(4) 0.5817(5)
F2_5 F 0.0345(3) 0.3428(3) 0.5282(4)
F3_5 F 0.0291(3) 0.3511(2) 0.6462(4)
N3_5 N 0.05864(12) 0.45869(13) 0.7960(2)
C12_5 C 0.05569(17) 0.44744(18) 0.8686(3)
H9_5 H 0.0327 0.4623 0.8985
C13_5 C 0.08506(18) 0.41505(19) 0.9007(3)
H10_5 H 0.0818 0.4075 0.9519
C14_5 C 0.11930(16) 0.39338(16) 0.8586(3)
C15_5 C 0.12245(16) 0.40544(17) 0.7842(3)
H11_5 H 0.1455 0.3914 0.7534
C16_5 C 0.09188(16) 0.43805(16) 0.7553(2)
H12_5 H 0.0946 0.4462 0.7043
C17_5 C 0.16429(18) 0.2944(2) 0.9754(3)
C18_5 C 0.13450(18) 0.3270(2) 0.9456(3)
H14_5 H 0.1028 0.3284 0.9616
C19_5 C 0.15070(16) 0.35806(16) 0.8922(3)
C20_5 C 0.19646(17) 0.35291(18) 0.8692(3)
H15_5 H 0.2088 0.3724 0.8312
C21_5 C 0.22417(17) 0.31920(17) 0.9020(3)
H16_4 H 0.2557 0.3163 0.886
O4_5 O 0.00927(12) 0.55014(12) 0.86066(18)
O5_5 O 0.0063(3) 0.5568(3) 0.9952(3)
S2_5 S 0.02748(8) 0.56917(7) 0.92845(9)
O6_5 O 0.07763(19) 0.5660(2) 0.9317(3)
C22_5 C 0.0149(3) 0.6316(4) 0.9183(5)
F5_5 F 0.0345(3) 0.6572(3) 0.9718(4)
F6_5 F 0.0291(3) 0.6489(2) 0.8538(4)
F1_5 F 0.9681(3) 0.3630(3) 0.5773(5)
F4_5 F 0.9681(3) 0.6370(3) 0.9227(5)
N1_6 N 0.44136(12) 0.45869(13) 0.2040(2)
C1_6 C 0.44431(17) 0.44744(18) 0.1314(3)
H1_6 H 0.4673 0.4623 0.1015
C2_6 C 0.41494(18) 0.41505(19) 0.0993(3)
H2_6 H 0.4182 0.4075 0.0481
C3_6 C 0.38070(16) 0.39338(16) 0.1414(3)
C4_6 C 0.37755(16) 0.40544(17) 0.2158(3)
H3_6 H 0.3545 0.3914 0.2466
C5_6 C 0.40812(16) 0.43805(16) 0.2447(2)
H4_6 H 0.4054 0.4462 0.2957
C6_6 C 0.33571(18) 0.2944(2) 0.0246(3)
C7_6 C 0.36550(18) 0.3270(2) 0.0544(3)
H6_6 H 0.3972 0.3284 0.0384
C8_6 C 0.34930(16) 0.35806(16) 0.1078(3)
C9_6 C 0.30354(17) 0.35291(18) 0.1308(3)
H7_6 H 0.2912 0.3724 0.1688
C10_6 C 0.27583(17) 0.31920(17) 0.0980(3)
H8_6 H 0.2443 0.3163 0.114
O1_6 O 0.49073(12) 0.55014(12) 0.13934(18)
O2_6 O 0.4937(3) 0.5568(3) 0.0048(3)
S1_6 S 0.47252(8) 0.56917(7) 0.07155(9)
O3_6 O 0.42237(19) 0.5660(2) 0.0683(3)
C11_6 C 0.4851(3) 0.6316(4) 0.0817(5)
F1_6 F 0.5319(3) 0.6370(3) 0.0773(5)
F2_6 F 0.4655(3) 0.6572(3) 0.0282(4)
F3_6 F 0.4709(3) 0.6489(2) 0.1462(4)
N3_6 N 0.44136(12) 0.54131(13) 0.2960(2)
C12_6 C 0.44431(17) 0.55256(18) 0.3686(3)
H9_6 H 0.4673 0.5377 0.3985
C13_6 C 0.41494(18) 0.58495(19) 0.4007(3)
H10_6 H 0.4182 0.5925 0.4519
C14_6 C 0.38070(16) 0.60662(16) 0.3586(3)
C15_6 C 0.37755(16) 0.59456(17) 0.2842(3)
H11_6 H 0.3545 0.6086 0.2534
C16_6 C 0.40812(16) 0.56195(16) 0.2553(2)
H12_6 H 0.4054 0.5538 0.2043
C17_6 C 0.33571(18) 0.7056(2) 0.4754(3)
H13_6 H 0.3474 0.7264 0.5122
C18_6 C 0.36550(18) 0.6730(2) 0.4456(3)
H14_6 H 0.3972 0.6716 0.4616
C19_6 C 0.34930(16) 0.64194(16) 0.3922(3)
C20_6 C 0.30354(17) 0.64709(18) 0.3692(3)
H15_6 H 0.2912 0.6276 0.3312
C21_6 C 0.27583(17) 0.68080(17) 0.4020(3)
H16_5 H 0.2443 0.6837 0.386
O4_6 O 0.49073(12) 0.44986(12) 0.36066(18)
O5_6 O 0.4937(3) 0.4432(3) 0.4952(3)
S2_6 S 0.47252(8) 0.43083(7) 0.42845(9)
O6_6 O 0.42237(19) 0.4340(2) 0.4317(3)
C22_6 C 0.4851(3) 0.3684(4) 0.4183(5)
F4_6 F 0.5319(3) 0.3630(3) 0.4227(5)
F5_6 F 0.4655(3) 0.3428(3) 0.4718(4)
F6_6 F 0.4709(3) 0.3511(2) 0.3538(4)
H5_6 H 0.3474 0.2736 0.9878
N1_7 N 0.55864(12) 0.04131(13) 0.2040(2)
C1_7 C 0.55569(17) 0.05256(18) 0.1314(3)
H1_7 H 0.5327 0.0377 0.1015
C2_7 C 0.58506(18) 0.08495(19) 0.0993(3)
H2_7 H 0.5818 0.0925 0.0481
C3_7 C 0.61930(16) 0.10662(16) 0.1414(3)
C4_7 C 0.62245(16) 0.09456(17) 0.2158(3)
H3_7 H 0.6455 0.1086 0.2466
C5_7 C 0.59188(16) 0.06195(16) 0.2447(2)
H4_7 H 0.5946 0.0538 0.2957
C6_7 C 0.66429(18) 0.2056(2) 0.0246(3)
C7_7 C 0.63450(18) 0.1730(2) 0.0544(3)
H6_7 H 0.6028 0.1716 0.0384
C8_7 C 0.65070(16) 0.14194(16) 0.1078(3)
C9_7 C 0.69646(17) 0.14709(18) 0.1308(3)
H7_7 H 0.7088 0.1276 0.1688
C10_7 C 0.72417(17) 0.18080(17) 0.0980(3)
H8_7 H 0.7557 0.1837 0.114
O4_7 O 0.50927(12) 0.05014(12) 0.36066(18)
O5_7 O 0.5063(3) 0.0568(3) 0.4952(3)
S2_7 S 0.52748(8) 0.06917(7) 0.42845(9)
O6_7 O 0.57763(19) 0.0660(2) 0.4317(3)
C22_7 C 0.5149(3) 0.1316(4) 0.4183(5)
F4_7 F 0.4681(3) 0.1370(3) 0.4227(5)
F5_7 F 0.5345(3) 0.1572(3) 0.4718(4)
F6_7 F 0.5291(3) 0.1489(2) 0.3538(4)
H5_7 H 0.6526 0.2264 0.9878
O1_7 O 0.50927(12) 0.94986(12) 0.13934(18)
O2_7 O 0.5063(3) 0.9432(3) 0.0048(3)
S1_7 S 0.52748(8) 0.93083(7) 0.07155(9)
O3_7 O 0.57763(19) 0.9340(2) 0.0683(3)
C11_7 C 0.5149(3) 0.8684(4) 0.0817(5)
F1_7 F 0.4681(3) 0.8630(3) 0.0773(5)
F2_7 F 0.5345(3) 0.8428(3) 0.0282(4)
F3_7 F 0.5291(3) 0.8511(2) 0.1462(4)
N3_7 N 0.55864(12) 0.95869(13) 0.2960(2)
C12_7 C 0.55569(17) 0.94744(18) 0.3686(3)
H9_7 H 0.5327 0.9623 0.3985
C13_7 C 0.58506(18) 0.91505(19) 0.4007(3)
H10_7 H 0.5818 0.9075 0.4519
C14_7 C 0.61930(16) 0.89338(16) 0.3586(3)
C15_7 C 0.62245(16) 0.90544(17) 0.2842(3)
H11_7 H 0.6455 0.8914 0.2534
C16_7 C 0.59188(16) 0.93805(16) 0.2553(2)
H12_7 H 0.5946 0.9462 0.2043
C17_7 C 0.66429(18) 0.7944(2) 0.4754(3)
H13_7 H 0.6526 0.7736 0.5122
C18_7 C 0.63450(18) 0.8270(2) 0.4456(3)
H14_7 H 0.6028 0.8284 0.4616
C19_7 C 0.65070(16) 0.85806(16) 0.3922(3)
C20_7 C 0.69646(17) 0.85291(18) 0.3692(3)
H15_7 H 0.7088 0.8724 0.3312
C21_7 C 0.72417(17) 0.81920(17) 0.4020(3)
H16_6 H 0.7557 0.8163 0.386
F1_8 F 0.0319(3) 0.1370(3) 0.5773(5)
F4_8 F 0.0319(3) 0.8630(3) 0.9227(5)
H13_8 H 0.8474 0.2264 0.0122
O1_8 O 0.99073(12) 0.05014(12) 0.63934(18)
O2_8 O 0.9937(3) 0.0568(3) 0.5048(3)
S1_8 S 0.97252(8) 0.06917(7) 0.57155(9)
O3_8 O 0.92237(19) 0.0660(2) 0.5683(3)
C11_8 C 0.9851(3) 0.1316(4) 0.5817(5)
F2_8 F 0.9655(3) 0.1572(3) 0.5282(4)
F3_8 F 0.9709(3) 0.1489(2) 0.6462(4)
N3_8 N 0.94136(12) 0.04131(13) 0.7960(2)
C12_8 C 0.94431(17) 0.05256(18) 0.8686(3)
H9_8 H 0.9673 0.0377 0.8985
C13_8 C 0.91494(18) 0.08495(19) 0.9007(3)
H10_8 H 0.9182 0.0925 0.9519
C14_8 C 0.88070(16) 0.10662(16) 0.8586(3)
C15_8 C 0.87755(16) 0.09456(17) 0.7842(3)
H11_8 H 0.8545 0.1086 0.7534
C16_8 C 0.90812(16) 0.06195(16) 0.7553(2)
H12_8 H 0.9054 0.0538 0.7043
C17_8 C 0.83571(18) 0.2056(2) 0.9754(3)
C18_8 C 0.86550(18) 0.1730(2) 0.9456(3)
H14_8 H 0.8972 0.1716 0.9616
C19_8 C 0.84930(16) 0.14194(16) 0.8922(3)
C20_8 C 0.80354(17) 0.14709(18) 0.8692(3)
H15_8 H 0.7912 0.1276 0.8312
C21_8 C 0.77583(17) 0.18080(17) 0.9020(3)
H16_7 H 0.7443 0.1837 0.886
N1_8 N 0.94136(12) 0.95869(13) 0.7040(2)
C1_8 C 0.94431(17) 0.94744(18) 0.6314(3)
H1_8 H 0.9673 0.9623 0.6015
C2_8 C 0.91494(18) 0.91505(19) 0.5993(3)
H2_8 H 0.9182 0.9075 0.5481
C3_8 C 0.88070(16) 0.89338(16) 0.6414(3)
C4_8 C 0.87755(16) 0.90544(17) 0.7158(3)
H3_8 H 0.8545 0.8914 0.7466
C5_8 C 0.90812(16) 0.93805(16) 0.7447(2)
H4_8 H 0.9054 0.9462 0.7957
C6_8 C 0.83571(18) 0.7944(2) 0.5246(3)
H5_8 H 0.8474 0.7736 0.4878
C7_8 C 0.86550(18) 0.8270(2) 0.5544(3)
H6_8 H 0.8972 0.8284 0.5384
C8_8 C 0.84930(16) 0.85806(16) 0.6078(3)
C9_8 C 0.80354(17) 0.85291(18) 0.6308(3)
H7_8 H 0.7912 0.8724 0.6688
C10_8 C 0.77583(17) 0.81920(17) 0.5980(3)
H8_8 H 0.7443 0.8163 0.614
O4_8 O 0.99073(12) 0.94986(12) 0.86066(18)
O5_8 O 0.9937(3) 0.9432(3) 0.9952(3)
S2_8 S 0.97252(8) 0.93083(7) 0.92845(9)
O6_8 O 0.92237(19) 0.9340(2) 0.9317(3)
C22_8 C 0.9851(3) 0.8684(4) 0.9183(5)
F5_8 F 0.9655(3) 0.8428(3) 0.9718(4)
F6_8 F 0.9709(3) 0.8511(2) 0.8538(4)
F1_9 F 0.0319(3) 0.6370(3) 0.4227(5)
F4_9 F 0.0319(3) 0.3630(3) 0.0773(5)
N5_5 N 0.04065(12) 0.45878(12) 0.2951(2)
N6_5 N 0.04065(12) 0.54122(12) 0.2049(2)
Cu1_7 Cu 0.99037(2) 0.500 0.250
N1_9 N 0.94136(12) 0.45869(13) 0.2960(2)
C1_9 C 0.94431(17) 0.44744(18) 0.3686(3)
H1_9 H 0.9673 0.4623 0.3985
C2_9 C 0.91494(18) 0.41505(19) 0.4007(3)
H2_9 H 0.9182 0.4075 0.4519
C3_9 C 0.88070(16) 0.39338(16) 0.3586(3)
C4_9 C 0.87755(16) 0.40544(17) 0.2842(3)
H3_9 H 0.8545 0.3914 0.2534
C5_9 C 0.90812(16) 0.43805(16) 0.2553(2)
H4_9 H 0.9054 0.4462 0.2043
N2_5 N 0.79122(12) 0.29065(12) 0.4549(2)
C6_9 C 0.83571(18) 0.2944(2) 0.4754(3)
H5_9 H 0.8474 0.2736 0.5122
C7_9 C 0.86550(18) 0.3270(2) 0.4456(3)
H6_9 H 0.8972 0.3284 0.4616
C8_9 C 0.84930(16) 0.35806(16) 0.3922(3)
C9_9 C 0.80354(17) 0.35291(18) 0.3692(3)
H7_9 H 0.7912 0.3724 0.3312
C10_9 C 0.77583(17) 0.31920(17) 0.4020(3)
H8_9 H 0.7443 0.3163 0.386
O1_9 O 0.99073(12) 0.55014(12) 0.36066(18)
O2_9 O 0.9937(3) 0.5568(3) 0.4952(3)
S1_9 S 0.97252(8) 0.56917(7) 0.42845(9)
O3_9 O 0.92237(19) 0.5660(2) 0.4317(3)
C11_9 C 0.9851(3) 0.6316(4) 0.4183(5)
F2_9 F 0.9655(3) 0.6572(3) 0.4718(4)
F3_9 F 0.9709(3) 0.6489(2) 0.3538(4)
N3_9 N 0.94136(12) 0.54131(13) 0.2040(2)
C12_9 C 0.94431(17) 0.55256(18) 0.1314(3)
H9_9 H 0.9673 0.5377 0.1015
C13_9 C 0.91494(18) 0.58495(19) 0.0993(3)
H10_9 H 0.9182 0.5925 0.0481
C14_9 C 0.88070(16) 0.60662(16) 0.1414(3)
C15_9 C 0.87755(16) 0.59456(17) 0.2158(3)
H11_9 H 0.8545 0.6086 0.2466
C16_9 C 0.90812(16) 0.56195(16) 0.2447(2)
H12_9 H 0.9054 0.5538 0.2957
N4_5 N 0.79122(12) 0.70935(12) 0.0451(2)
C17_9 C 0.83571(18) 0.7056(2) 0.0246(3)
C18_9 C 0.86550(18) 0.6730(2) 0.0544(3)
H14_9 H 0.8972 0.6716 0.0384
C19_9 C 0.84930(16) 0.64194(16) 0.1078(3)
C20_9 C 0.80354(17) 0.64709(18) 0.1308(3)
H15_9 H 0.7912 0.6276 0.1688
C21_9 C 0.77583(17) 0.68080(17) 0.0980(3)
H16_8 H 0.7443 0.6837 0.114
O4_9 O 0.99073(12) 0.44986(12) 0.13934(18)
O5_9 O 0.9937(3) 0.4432(3) 0.0048(3)
S2_9 S 0.97252(8) 0.43083(7) 0.07155(9)
O6_9 O 0.92237(19) 0.4340(2) 0.0683(3)
C22_9 C 0.9851(3) 0.3684(4) 0.0817(5)
F5_9 F 0.9655(3) 0.3428(3) 0.0282(4)
F6_9 F 0.9709(3) 0.3511(2) 0.1462(4)
Cu2_4 Cu 0.750 0.75963(2) -0.000
Cu3_4 Cu 0.750 0.24037(2) 0.500
H13_9 H 0.8474 0.7264 0.9878
Cu2_5 Cu 0.750 0.75963(2) 1.000
H5_10 H 0.6526 0.7264 0.0122
Cu1_8 Cu 0.50963(2) 0.500 0.750
N1_10 N 0.55864(12) 0.54131(13) 0.7960(2)
C1_10 C 0.55569(17) 0.55256(18) 0.8686(3)
H1_10 H 0.5327 0.5377 0.8985
C2_10 C 0.58506(18) 0.58495(19) 0.9007(3)
H2_10 H 0.5818 0.5925 0.9519
C3_10 C 0.61930(16) 0.60662(16) 0.8586(3)
C4_10 C 0.62245(16) 0.59456(17) 0.7842(3)
H3_10 H 0.6455 0.6086 0.7534
C5_10 C 0.59188(16) 0.56195(16) 0.7553(2)
H4_10 H 0.5946 0.5538 0.7043
N2_6 N 0.70878(12) 0.70935(12) 0.9549(2)
C6_10 C 0.66429(18) 0.7056(2) 0.9754(3)
C7_10 C 0.63450(18) 0.6730(2) 0.9456(3)
H6_10 H 0.6028 0.6716 0.9616
C8_10 C 0.65070(16) 0.64194(16) 0.8922(3)
C9_10 C 0.69646(17) 0.64709(18) 0.8692(3)
H7_10 H 0.7088 0.6276 0.8312
C10_10 C 0.72417(17) 0.68080(17) 0.9020(3)
H8_10 H 0.7557 0.6837 0.886
O1_10 O 0.50927(12) 0.44986(12) 0.86066(18)
O2_10 O 0.5063(3) 0.4432(3) 0.9952(3)
S1_10 S 0.52748(8) 0.43083(7) 0.92845(9)
O3_10 O 0.57763(19) 0.4340(2) 0.9317(3)
C11_10 C 0.5149(3) 0.3684(4) 0.9183(5)
F1_10 F 0.4681(3) 0.3630(3) 0.9227(5)
F2_10 F 0.5345(3) 0.3428(3) 0.9718(4)
F3_10 F 0.5291(3) 0.3511(2) 0.8538(4)
N3_10 N 0.55864(12) 0.45869(13) 0.7040(2)
C12_10 C 0.55569(17) 0.44744(18) 0.6314(3)
H9_10 H 0.5327 0.4623 0.6015
C13_10 C 0.58506(18) 0.41505(19) 0.5993(3)
H10_10 H 0.5818 0.4075 0.5481
C14_10 C 0.61930(16) 0.39338(16) 0.6414(3)
C15_10 C 0.62245(16) 0.40544(17) 0.7158(3)
H11_10 H 0.6455 0.3914 0.7466
C16_10 C 0.59188(16) 0.43805(16) 0.7447(2)
H12_10 H 0.5946 0.4462 0.7957
N4_6 N 0.70878(12) 0.29065(12) 0.5451(2)
C17_10 C 0.66429(18) 0.2944(2) 0.5246(3)
H13_10 H 0.6526 0.2736 0.4878
C18_10 C 0.63450(18) 0.3270(2) 0.5544(3)
H14_10 H 0.6028 0.3284 0.5384
C19_10 C 0.65070(16) 0.35806(16) 0.6078(3)
C20_10 C 0.69646(17) 0.35291(18) 0.6308(3)
H15_10 H 0.7088 0.3724 0.6688
C21_10 C 0.72417(17) 0.31920(17) 0.5980(3)
H16_9 H 0.7557 0.3163 0.614
O4_10 O 0.50927(12) 0.55014(12) 0.63934(18)
O5_10 O 0.5063(3) 0.5568(3) 0.5048(3)
S2_10 S 0.52748(8) 0.56917(7) 0.57155(9)
O6_10 O 0.57763(19) 0.5660(2) 0.5683(3)
C22_10 C 0.5149(3) 0.6316(4) 0.5817(5)
F4_10 F 0.4681(3) 0.6370(3) 0.5773(5)
F5_10 F 0.5345(3) 0.6572(3) 0.5282(4)
F6_10 F 0.5291(3) 0.6489(2) 0.6462(4)
N5_6 N 0.45935(12) 0.54122(12) 0.7951(2)
N6_6 N 0.45935(12) 0.45878(12) 0.7049(2)
Cu1_9 Cu 0.49037(2) -0.000 0.750
O1_11 O 0.49073(12) 0.05014(12) 0.86066(18)
O2_11 O 0.4937(3) 0.0568(3) 0.9952(3)
S1_11 S 0.47252(8) 0.06917(7) 0.92845(9)
O3_11 O 0.42237(19) 0.0660(2) 0.9317(3)
C11_11 C 0.4851(3) 0.1316(4) 0.9183(5)
F1_11 F 0.5319(3) 0.1370(3) 0.9227(5)
F2_11 F 0.4655(3) 0.1572(3) 0.9718(4)
F3_11 F 0.4709(3) 0.1489(2) 0.8538(4)
N3_11 N 0.44136(12) 0.04131(13) 0.7040(2)
C12_11 C 0.44431(17) 0.05256(18) 0.6314(3)
H9_11 H 0.4673 0.0377 0.6015
C13_11 C 0.41494(18) 0.08495(19) 0.5993(3)
H10_11 H 0.4182 0.0925 0.5481
C14_11 C 0.38070(16) 0.10662(16) 0.6414(3)
C15_11 C 0.37755(16) 0.09456(17) 0.7158(3)
H11_11 H 0.3545 0.1086 0.7466
C16_11 C 0.40812(16) 0.06195(16) 0.7447(2)
H12_11 H 0.4054 0.0538 0.7957
N4_7 N 0.29122(12) 0.20935(12) 0.5451(2)
C17_11 C 0.33571(18) 0.2056(2) 0.5246(3)
H13_11 H 0.3474 0.2264 0.4878
C18_11 C 0.36550(18) 0.1730(2) 0.5544(3)
H14_11 H 0.3972 0.1716 0.5384
C19_11 C 0.34930(16) 0.14194(16) 0.6078(3)
C20_11 C 0.30354(17) 0.14709(18) 0.6308(3)
H15_11 H 0.2912 0.1276 0.6688
C21_11 C 0.27583(17) 0.18080(17) 0.5980(3)
H16_10 H 0.2443 0.1837 0.614
Cu2_6 Cu 0.250 0.25963(2) 0.500
N6_7 N 0.54065(12) 0.04122(12) 0.7049(2)
H5_11 H 0.3474 0.7736 0.0122
Cu3_5 Cu 0.250 0.74037(2) 0.000
Cu1_10 Cu 0.49037(2) 1.000 0.750
N1_11 N 0.44136(12) 0.95869(13) 0.7960(2)
C1_11 C 0.44431(17) 0.94744(18) 0.8686(3)
H1_11 H 0.4673 0.9623 0.8985
C2_11 C 0.41494(18) 0.91505(19) 0.9007(3)
H2_11 H 0.4182 0.9075 0.9519
C3_11 C 0.38070(16) 0.89338(16) 0.8586(3)
C4_11 C 0.37755(16) 0.90544(17) 0.7842(3)
H3_11 H 0.3545 0.8914 0.7534
C5_11 C 0.40812(16) 0.93805(16) 0.7553(2)
H4_11 H 0.4054 0.9462 0.7043
N2_7 N 0.29122(12) 0.79065(12) 0.9549(2)
C6_11 C 0.33571(18) 0.7944(2) 0.9754(3)
C7_11 C 0.36550(18) 0.8270(2) 0.9456(3)
H6_11 H 0.3972 0.8284 0.9616
C8_11 C 0.34930(16) 0.85806(16) 0.8922(3)
C9_11 C 0.30354(17) 0.85291(18) 0.8692(3)
H7_11 H 0.2912 0.8724 0.8312
C10_11 C 0.27583(17) 0.81920(17) 0.9020(3)
H8_11 H 0.2443 0.8163 0.886
O4_11 O 0.49073(12) 0.94986(12) 0.63934(18)
O5_11 O 0.4937(3) 0.9432(3) 0.5048(3)
S2_11 S 0.47252(8) 0.93083(7) 0.57155(9)
O6_11 O 0.42237(19) 0.9340(2) 0.5683(3)
C22_11 C 0.4851(3) 0.8684(4) 0.5817(5)
F4_11 F 0.5319(3) 0.8630(3) 0.5773(5)
F5_11 F 0.4655(3) 0.8428(3) 0.5282(4)
F6_11 F 0.4709(3) 0.8511(2) 0.6462(4)
Cu3_6 Cu 0.250 0.74037(2) 1.000
N5_7 N 0.54065(12) 0.95878(12) 0.7951(2)
Cu1_11 Cu 0.00963(2) -0.000 0.250
N1_12 N 0.05864(12) 0.04131(13) 0.2960(2)
C1_12 C 0.05569(17) 0.05256(18) 0.3686(3)
H1_12 H 0.0327 0.0377 0.3985
C2_12 C 0.08506(18) 0.08495(19) 0.4007(3)
H2_12 H 0.0818 0.0925 0.4519
C3_12 C 0.11930(16) 0.10662(16) 0.3586(3)
C4_12 C 0.12245(16) 0.09456(17) 0.2842(3)
H3_12 H 0.1455 0.1086 0.2534
C5_12 C 0.09188(16) 0.06195(16) 0.2553(2)
H4_12 H 0.0946 0.0538 0.2043
N2_8 N 0.20878(12) 0.20935(12) 0.4549(2)
C6_12 C 0.16429(18) 0.2056(2) 0.4754(3)
H5_12 H 0.1526 0.2264 0.5122
C7_12 C 0.13450(18) 0.1730(2) 0.4456(3)
H6_12 H 0.1028 0.1716 0.4616
C8_12 C 0.15070(16) 0.14194(16) 0.3922(3)
C9_12 C 0.19646(17) 0.14709(18) 0.3692(3)
H7_12 H 0.2088 0.1276 0.3312
C10_12 C 0.22417(17) 0.18080(17) 0.4020(3)
H8_12 H 0.2557 0.1837 0.386
O4_12 O 0.00927(12) 0.05014(12) 0.13934(18)
O5_12 O 0.0063(3) 0.0568(3) 0.0048(3)
S2_12 S 0.02748(8) 0.06917(7) 0.07155(9)
O6_12 O 0.07763(19) 0.0660(2) 0.0683(3)
C22_12 C 0.0149(3) 0.1316(4) 0.0817(5)
F5_12 F 0.0345(3) 0.1572(3) 0.0282(4)
F6_12 F 0.0291(3) 0.1489(2) 0.1462(4)
Cu1_12 Cu 0.00963(2) 1.000 0.250
O1_12 O 0.00927(12) 0.94986(12) 0.36066(18)
O2_12 O 0.0063(3) 0.9432(3) 0.4952(3)
S1_12 S 0.02748(8) 0.93083(7) 0.42845(9)
O3_12 O 0.07763(19) 0.9340(2) 0.4317(3)
C11_12 C 0.0149(3) 0.8684(4) 0.4183(5)
F2_12 F 0.0345(3) 0.8428(3) 0.4718(4)
F3_12 F 0.0291(3) 0.8511(2) 0.3538(4)
N3_12 N 0.05864(12) 0.95869(13) 0.2040(2)
C12_12 C 0.05569(17) 0.94744(18) 0.1314(3)
H9_12 H 0.0327 0.9623 0.1015
C13_12 C 0.08506(18) 0.91505(19) 0.0993(3)
H10_12 H 0.0818 0.9075 0.0481
C14_12 C 0.11930(16) 0.89338(16) 0.1414(3)
C15_12 C 0.12245(16) 0.90544(17) 0.2158(3)
H11_12 H 0.1455 0.8914 0.2466
C16_12 C 0.09188(16) 0.93805(16) 0.2447(2)
H12_12 H 0.0946 0.9462 0.2957
N4_8 N 0.20878(12) 0.79065(12) 0.0451(2)
C17_12 C 0.16429(18) 0.7944(2) 0.0246(3)
C18_12 C 0.13450(18) 0.8270(2) 0.0544(3)
H14_12 H 0.1028 0.8284 0.0384
C19_12 C 0.15070(16) 0.85806(16) 0.1078(3)
C20_12 C 0.19646(17) 0.85291(18) 0.1308(3)
H15_12 H 0.2088 0.8724 0.1688
C21_12 C 0.22417(17) 0.81920(17) 0.0980(3)
H16_11 H 0.2557 0.8163 0.114
H13_12 H 0.1526 0.7736 0.9878
F4_12 F 0.9681(3) 0.1370(3) 0.0773(5)
N5_8 N 0.95935(12) 0.04122(12) 0.2951(2)
F1_12 F 0.9681(3) 0.8630(3) 0.4227(5)
N6_8 N 0.95935(12) 0.95878(12) 0.2049(2)
H4_13 H 0.3038 0.6554 0.0457
N3_13 N 0.20869(13) 0.69136(12) 0.0460(2)
C12_13 C 0.19744(18) 0.69431(17) 0.1186(3)
H9_13 H 0.2123 0.7173 0.1485
C13_13 C 0.16505(19) 0.66494(18) 0.1507(3)
H10_13 H 0.1575 0.6682 0.2019
C14_13 C 0.14338(16) 0.63070(16) 0.1086(3)
C15_13 C 0.15544(17) 0.62755(16) 0.0342(3)
H11_13 H 0.1414 0.6045 0.0034
C16_13 C 0.18805(16) 0.65812(16) 0.0053(2)
C17_13 C 0.0444(2) 0.58571(18) 0.2254(3)
H13_13 H 0.0236 0.5974 0.2622
C18_13 C 0.0770(2) 0.61550(18) 0.1956(3)
H14_13 H 0.0784 0.6472 0.2116
C19_13 C 0.10806(16) 0.59930(16) 0.1422(3)
C20_13 C 0.10291(18) 0.55354(17) 0.1192(3)
H15_13 H 0.1224 0.5412 0.0812
C21_13 C 0.06920(17) 0.52583(17) 0.1520(3)
H16_12 H 0.0663 0.4943 0.136
O4_13 O 0.30014(12) 0.74073(12) 0.11066(18)
O5_13 O 0.3068(3) 0.7437(3) 0.2452(3)
S2_13 S 0.31917(7) 0.72252(8) 0.17845(9)
O6_13 O 0.3160(2) 0.67237(19) 0.1817(3)
C22_13 C 0.3816(4) 0.7351(3) 0.1683(5)
F4_13 F 0.3870(3) 0.7819(3) 0.1727(5)
F5_13 F 0.4072(3) 0.7155(3) 0.2218(4)
F6_13 F 0.3989(2) 0.7209(3) 0.1038(4)
N1_13 N 0.29131(13) 0.69136(12) 0.9540(2)
C1_13 C 0.30256(18) 0.69431(17) 0.8814(3)
H1_13 H 0.2877 0.7173 0.8515
C2_13 C 0.33495(19) 0.66494(18) 0.8493(3)
H2_13 H 0.3425 0.6682 0.7981
C3_13 C 0.35662(16) 0.63070(16) 0.8914(3)
C4_13 C 0.34456(17) 0.62755(16) 0.9658(3)
H3_13 H 0.3586 0.6045 0.9966
C5_13 C 0.31195(16) 0.65812(16) 0.9947(2)
C6_13 C 0.4556(2) 0.58571(18) 0.7746(3)
H5_13 H 0.4764 0.5974 0.7378
C7_13 C 0.4230(2) 0.61550(18) 0.8044(3)
H6_13 H 0.4216 0.6472 0.7884
C8_13 C 0.39194(16) 0.59930(16) 0.8578(3)
C9_13 C 0.39709(18) 0.55354(17) 0.8808(3)
H7_13 H 0.3776 0.5412 0.9188
C10_13 C 0.43080(17) 0.52583(17) 0.8480(3)
H8_13 H 0.4337 0.4943 0.864
O1_13 O 0.19986(12) 0.74073(12) 0.88934(18)
O2_13 O 0.1932(3) 0.7437(3) 0.7548(3)
S1_13 S 0.18083(7) 0.72252(8) 0.82155(9)
O3_13 O 0.1840(2) 0.67237(19) 0.8183(3)
C11_13 C 0.1184(4) 0.7351(3) 0.8317(5)
F1_13 F 0.1130(3) 0.7819(3) 0.8273(5)
F2_13 F 0.0928(3) 0.7155(3) 0.7782(4)
F3_13 F 0.1011(2) 0.7209(3) 0.8962(4)
H12_13 H 0.1962 0.6554 0.9543
N1_14 N 0.20869(13) 0.30864(12) 0.4540(2)
C1_14 C 0.19744(18) 0.30569(17) 0.3814(3)
H1_14 H 0.2123 0.2827 0.3515
C2_14 C 0.16505(19) 0.33506(18) 0.3493(3)
H2_14 H 0.1575 0.3318 0.2981
C3_14 C 0.14338(16) 0.36930(16) 0.3914(3)
C4_14 C 0.15544(17) 0.37245(16) 0.4658(3)
H3_14 H 0.1414 0.3955 0.4966
C5_14 C 0.18805(16) 0.34188(16) 0.4947(2)
H4_14 H 0.1962 0.3446 0.5457
C6_14 C 0.0444(2) 0.41429(18) 0.2746(3)
H5_14 H 0.0236 0.4026 0.2378
C7_14 C 0.0770(2) 0.38450(18) 0.3044(3)
H6_14 H 0.0784 0.3528 0.2884
C8_14 C 0.10806(16) 0.40070(16) 0.3578(3)
C9_14 C 0.10291(18) 0.44646(17) 0.3808(3)
H7_14 H 0.1224 0.4588 0.4188
C10_14 C 0.06920(17) 0.47417(17) 0.3480(3)
H8_14 H 0.0663 0.5057 0.364
O1_14 O 0.30014(12) 0.25927(12) 0.38934(18)
O2_14 O 0.3068(3) 0.2563(3) 0.2548(3)
S1_14 S 0.31917(7) 0.27748(8) 0.32155(9)
O3_14 O 0.3160(2) 0.32763(19) 0.3183(3)
C11_14 C 0.3816(4) 0.2649(3) 0.3317(5)
F1_14 F 0.3870(3) 0.2181(3) 0.3273(5)
F2_14 F 0.4072(3) 0.2845(3) 0.2782(4)
F3_14 F 0.3989(2) 0.2791(3) 0.3962(4)
N3_14 N 0.29131(13) 0.30864(12) 0.5460(2)
C12_14 C 0.30256(18) 0.30569(17) 0.6186(3)
H9_14 H 0.2877 0.2827 0.6485
C13_14 C 0.33495(19) 0.33506(18) 0.6507(3)
H10_14 H 0.3425 0.3318 0.7019
C14_14 C 0.35662(16) 0.36930(16) 0.6086(3)
C15_14 C 0.34456(17) 0.37245(16) 0.5342(3)
H11_14 H 0.3586 0.3955 0.5034
C16_14 C 0.31195(16) 0.34188(16) 0.5053(2)
H12_14 H 0.3038 0.3446 0.4543
C17_14 C 0.4556(2) 0.41429(18) 0.7254(3)
H13_14 H 0.4764 0.4026 0.7622
C18_14 C 0.4230(2) 0.38450(18) 0.6956(3)
H14_14 H 0.4216 0.3528 0.7116
C19_14 C 0.39194(16) 0.40070(16) 0.6422(3)
C20_14 C 0.39709(18) 0.44646(17) 0.6192(3)
H15_14 H 0.3776 0.4588 0.5812
C21_14 C 0.43080(17) 0.47417(17) 0.6520(3)
H16_13 H 0.4337 0.5057 0.636
O4_14 O 0.19986(12) 0.25927(12) 0.61066(18)
O5_14 O 0.1932(3) 0.2563(3) 0.7452(3)
S2_14 S 0.18083(7) 0.27748(8) 0.67845(9)
O6_14 O 0.1840(2) 0.32763(19) 0.6817(3)
C22_14 C 0.1184(4) 0.2649(3) 0.6683(5)
F4_14 F 0.1130(3) 0.2181(3) 0.6727(5)
F5_14 F 0.0928(3) 0.2845(3) 0.7218(4)
F6_14 F 0.1011(2) 0.2791(3) 0.6038(4)
N1_15 N 0.79131(13) 0.19136(12) 0.4540(2)
C1_15 C 0.80256(18) 0.19431(17) 0.3814(3)
H1_15 H 0.7877 0.2173 0.3515
C2_15 C 0.83495(19) 0.16494(18) 0.3493(3)
H2_15 H 0.8425 0.1682 0.2981
C3_15 C 0.85662(16) 0.13070(16) 0.3914(3)
C4_15 C 0.84456(17) 0.12755(16) 0.4658(3)
H3_15 H 0.8586 0.1045 0.4966
C5_15 C 0.81195(16) 0.15812(16) 0.4947(2)
H4_15 H 0.8038 0.1554 0.5457
C6_15 C 0.9556(2) 0.08571(18) 0.2746(3)
H5_15 H 0.9764 0.0974 0.2378
C7_15 C 0.9230(2) 0.11550(18) 0.3044(3)
H6_15 H 0.9216 0.1472 0.2884
C8_15 C 0.89194(16) 0.09930(16) 0.3578(3)
C9_15 C 0.89709(18) 0.05354(17) 0.3808(3)
H7_15 H 0.8776 0.0412 0.4188
C10_15 C 0.93080(17) 0.02583(17) 0.3480(3)
O1_15 O 0.69986(12) 0.24073(12) 0.38934(18)
O2_15 O 0.6932(3) 0.2437(3) 0.2548(3)
S1_15 S 0.68083(7) 0.22252(8) 0.32155(9)
O3_15 O 0.6840(2) 0.17237(19) 0.3183(3)
C11_15 C 0.6184(4) 0.2351(3) 0.3317(5)
F1_15 F 0.6130(3) 0.2819(3) 0.3273(5)
F2_15 F 0.5928(3) 0.2155(3) 0.2782(4)
F3_15 F 0.6011(2) 0.2209(3) 0.3962(4)
N3_15 N 0.70869(13) 0.19136(12) 0.5460(2)
C12_15 C 0.69744(18) 0.19431(17) 0.6186(3)
H9_15 H 0.7123 0.2173 0.6485
C13_15 C 0.66505(19) 0.16494(18) 0.6507(3)
H10_15 H 0.6575 0.1682 0.7019
C14_15 C 0.64338(16) 0.13070(16) 0.6086(3)
C15_15 C 0.65544(17) 0.12755(16) 0.5342(3)
H11_15 H 0.6414 0.1045 0.5034
C16_15 C 0.68805(16) 0.15812(16) 0.5053(2)
H12_15 H 0.6962 0.1554 0.4543
C17_15 C 0.5444(2) 0.08571(18) 0.7254(3)
H13_15 H 0.5236 0.0974 0.7622
C18_15 C 0.5770(2) 0.11550(18) 0.6956(3)
H14_15 H 0.5784 0.1472 0.7116
C19_15 C 0.60806(16) 0.09930(16) 0.6422(3)
C20_15 C 0.60291(18) 0.05354(17) 0.6192(3)
H15_15 H 0.6224 0.0412 0.5812
C21_15 C 0.56920(17) 0.02583(17) 0.6520(3)
O4_15 O 0.80014(12) 0.24073(12) 0.61066(18)
O5_15 O 0.8068(3) 0.2437(3) 0.7452(3)
S2_15 S 0.81917(7) 0.22252(8) 0.67845(9)
O6_15 O 0.8160(2) 0.17237(19) 0.6817(3)
C22_15 C 0.8816(4) 0.2351(3) 0.6683(5)
F4_15 F 0.8870(3) 0.2819(3) 0.6727(5)
F5_15 F 0.9072(3) 0.2155(3) 0.7218(4)
F6_15 F 0.8989(2) 0.2209(3) 0.6038(4)
H8_15 H 0.9337 0.9943 0.364
H16_14 H 0.5663 0.9943 0.636
H8_16 H 0.5663 0.0057 0.864
H4_16 H 0.6962 0.8446 0.0457
N3_16 N 0.79131(13) 0.80864(12) 0.0460(2)
C12_16 C 0.80256(18) 0.80569(17) 0.1186(3)
H9_16 H 0.7877 0.7827 0.1485
C13_16 C 0.83495(19) 0.83506(18) 0.1507(3)
H10_16 H 0.8425 0.8318 0.2019
C14_16 C 0.85662(16) 0.86930(16) 0.1086(3)
C15_16 C 0.84456(17) 0.87245(16) 0.0342(3)
H11_16 H 0.8586 0.8955 0.0034
C16_16 C 0.81195(16) 0.84188(16) 0.0053(2)
C17_16 C 0.9556(2) 0.91429(18) 0.2254(3)
H13_16 H 0.9764 0.9026 0.2622
C18_16 C 0.9230(2) 0.88450(18) 0.1956(3)
H14_16 H 0.9216 0.8528 0.2116
C19_16 C 0.89194(16) 0.90070(16) 0.1422(3)
C20_16 C 0.89709(18) 0.94646(17) 0.1192(3)
H15_16 H 0.8776 0.9588 0.0812
C21_16 C 0.93080(17) 0.97417(17) 0.1520(3)
O4_16 O 0.69986(12) 0.75927(12) 0.11066(18)
O5_16 O 0.6932(3) 0.7563(3) 0.2452(3)
S2_16 S 0.68083(7) 0.77748(8) 0.17845(9)
O6_16 O 0.6840(2) 0.82763(19) 0.1817(3)
C22_16 C 0.6184(4) 0.7649(3) 0.1683(5)
F4_16 F 0.6130(3) 0.7181(3) 0.1727(5)
F5_16 F 0.5928(3) 0.7845(3) 0.2218(4)
F6_16 F 0.6011(2) 0.7791(3) 0.1038(4)
N1_16 N 0.70869(13) 0.80864(12) 0.9540(2)
C1_16 C 0.69744(18) 0.80569(17) 0.8814(3)
H1_16 H 0.7123 0.7827 0.8515
C2_16 C 0.66505(19) 0.83506(18) 0.8493(3)
H2_16 H 0.6575 0.8318 0.7981
C3_16 C 0.64338(16) 0.86930(16) 0.8914(3)
C4_16 C 0.65544(17) 0.87245(16) 0.9658(3)
H3_16 H 0.6414 0.8955 0.9966
C5_16 C 0.68805(16) 0.84188(16) 0.9947(2)
C6_16 C 0.5444(2) 0.91429(18) 0.7746(3)
H5_16 H 0.5236 0.9026 0.7378
C7_16 C 0.5770(2) 0.88450(18) 0.8044(3)
H6_16 H 0.5784 0.8528 0.7884
C8_16 C 0.60806(16) 0.90070(16) 0.8578(3)
C9_16 C 0.60291(18) 0.94646(17) 0.8808(3)
H7_16 H 0.6224 0.9588 0.9188
C10_16 C 0.56920(17) 0.97417(17) 0.8480(3)
O1_16 O 0.80014(12) 0.75927(12) 0.88934(18)
O2_16 O 0.8068(3) 0.7563(3) 0.7548(3)
S1_16 S 0.81917(7) 0.77748(8) 0.82155(9)
O3_16 O 0.8160(2) 0.82763(19) 0.8183(3)
C11_16 C 0.8816(4) 0.7649(3) 0.8317(5)
F1_16 F 0.8870(3) 0.7181(3) 0.8273(5)
F2_16 F 0.9072(3) 0.7845(3) 0.7782(4)
F3_16 F 0.8989(2) 0.7791(3) 0.8962(4)
H12_16 H 0.8038 0.8446 0.9543
H16_15 H 0.0663 0.9943 0.864
H16_16 H 0.9337 0.0057 0.136
loop_
_geom_bond_atom_site_label_1
_geom_bond_atom_site_label_2
_geom_bond_site_symmetry_1
_geom_bond_site_symmetry_2
Cu1 N1 1_555 1_555
N1 C1 1_555 1_555
C1 H1 1_555 1_555
C2 C1 1_555 1_555
H2 C2 1_555 1_555
C3 C2 1_555 1_555
C4 C3 1_555 1_555
H3 C4 1_555 1_555
C5 N1 1_555 1_555
N2 C6 1_555 1_555
C6 H5 1_555 1_555
C7 C6 1_555 1_555
H6 C7 1_555 1_555
C8 C3 1_555 1_555
C9 C8 1_555 1_555
H7 C9 1_555 1_555
C10 N2 1_555 1_555
H8 C10 1_555 1_555
O1 Cu1 1_555 1_555
O2 S1 1_555 1_555
S1 O1 1_555 1_555
O3 S1 1_555 1_555
C11 S1 1_555 1_555
F1 C11 1_555 1_555
F2 C11 1_555 1_555
F3 C11 1_555 1_555
Cu3 N2 1_555 1_555
N5 Cu1 1_555 1_555
C4 C5 1_555 1_555
C7 C8 1_555 1_555
C9 C10 1_555 1_555
N3 Cu1_2 1_555 1_555
C12 N3 1_555 1_555
H9 C12 1_555 1_555
C13 C12 1_555 1_555
H10 C13 1_555 1_555
C14 C13 1_555 1_555
C15 C14 1_555 1_555
H11 C15 1_555 1_555
C16 N3 1_555 1_555
N4 C17 1_555 1_555
C17 H13 1_555 1_555
C18 C17 1_555 1_555
H14 C18 1_555 1_555
C19 C14 1_555 1_555
C20 C19 1_555 1_555
H15 C20 1_555 1_555
C21 N4 1_555 1_555
H16 C21 1_555 1_555
O4 Cu1_2 1_555 1_555
O5 S2 1_555 1_555
S2 O4 1_555 1_555
O6 S2 1_555 1_555
C22 S2 1_555 1_555
F4 C22 1_555 1_555
F5 C22 1_555 1_555
F6 C22 1_555 1_555
N6 Cu1_2 1_555 1_555
C15 C16 1_555 1_555
C18 C19 1_555 1_555
C20 C21 1_555 1_555
Cu1_3 N1_2 1_555 1_555
N1_2 C1_2 1_555 1_555
C1_2 H1_2 1_555 1_555
C2_2 C1_2 1_555 1_555
H2_2 C2_2 1_555 1_555
C3_2 C2_2 1_555 1_555
C4_2 C3_2 1_555 1_555
H3_2 C4_2 1_555 1_555
C5_2 N1_2 1_555 1_555
H4_2 C5_2 1_555 1_555
N2_2 C6_2 1_555 1_555
C6_2 H5_2 1_555 1_555
C7_2 C6_2 1_555 1_555
H6_2 C7_2 1_555 1_555
C8_2 C3_2 1_555 1_555
C9_2 C8_2 1_555 1_555
H7_2 C9_2 1_555 1_555
C10_2 N2_2 1_555 1_555
H8_2 C10_2 1_555 1_555
O1_2 Cu1_3 1_555 1_555
O2_2 S1_2 1_555 1_555
S1_2 O1_2 1_555 1_555
O3_2 S1_2 1_555 1_555
C11_2 S1_2 1_555 1_555
F1_2 C11_2 1_555 1_555
F2_2 C11_2 1_555 1_555
F3_2 C11_2 1_555 1_555
N3_2 Cu1_3 1_555 1_555
C12_2 N3_2 1_555 1_555
H9_2 C12_2 1_555 1_555
C13_2 C12_2 1_555 1_555
H10_2 C13_2 1_555 1_555
C14_2 C13_2 1_555 1_555
C15_2 C14_2 1_555 1_555
H11_2 C15_2 1_555 1_555
C16_2 N3_2 1_555 1_555
H12_2 C16_2 1_555 1_555
N4_2 C17_2 1_555 1_555
C17_2 H13_2 1_555 1_555
C18_2 C17_2 1_555 1_555
H14_2 C18_2 1_555 1_555
C19_2 C14_2 1_555 1_555
C20_2 C19_2 1_555 1_555
H15_2 C20_2 1_555 1_555
C21_2 N4_2 1_555 1_555
H16_2 C21_2 1_555 1_555
O4_2 Cu1_3 1_555 1_555
O5_2 S2_2 1_555 1_555
S2_2 O4_2 1_555 1_555
O6_2 S2_2 1_555 1_555
C22_2 S2_2 1_555 1_555
F4_2 C22_2 1_555 1_555
F5_2 C22_2 1_555 1_555
F6_2 C22_2 1_555 1_555
Cu3 N4_2 1_555 1_555
N5_2 Cu1_3 1_555 1_555
N6_2 Cu1_3 1_555 1_555
C4_2 C5_2 1_555 1_555
C7_2 C8_2 1_555 1_555
C9_2 C10_2 1_555 1_555
C15_2 C16_2 1_555 1_555
C18_2 C19_2 1_555 1_555
C20_2 C21_2 1_555 1_555
Cu1_4 N1_3 1_555 1_555
N1_3 C1_3 1_555 1_555
C1_3 H1_3 1_555 1_555
C2_3 C1_3 1_555 1_555
H2_3 C2_3 1_555 1_555
C3_3 C2_3 1_555 1_555
C4_3 C3_3 1_555 1_555
H3_3 C4_3 1_555 1_555
C5_3 N1_3 1_555 1_555
H4_3 C5_3 1_555 1_555
N2_3 C6_3 1_555 1_555
C6_3 H5_3 1_555 1_555
C7_3 C6_3 1_555 1_555
H6_3 C7_3 1_555 1_555
C8_3 C3_3 1_555 1_555
C9_3 C8_3 1_555 1_555
H7_3 C9_3 1_555 1_555
C10_3 N2_3 1_555 1_555
O1_3 Cu1_4 1_555 1_555
O2_3 S1_3 1_555 1_555
S1_3 O1_3 1_555 1_555
O3_3 S1_3 1_555 1_555
C11_3 S1_3 1_555 1_555
F1_3 C11_3 1_555 1_555
F2_3 C11_3 1_555 1_555
F3_3 C11_3 1_555 1_555
N3_3 Cu1_4 1_555 1_555
C12_3 N3_3 1_555 1_555
H9_3 C12_3 1_555 1_555
C13_3 C12_3 1_555 1_555
H10_3 C13_3 1_555 1_555
C14_3 C13_3 1_555 1_555
C15_3 C14_3 1_555 1_555
H11_3 C15_3 1_555 1_555
C16_3 N3_3 1_555 1_555
H12_3 C16_3 1_555 1_555
N4_3 C17_3 1_555 1_555
C17_3 H13_3 1_555 1_555
C18_3 C17_3 1_555 1_555
H14_3 C18_3 1_555 1_555
C19_3 C14_3 1_555 1_555
C20_3 C19_3 1_555 1_555
H15_3 C20_3 1_555 1_555
C21_3 N4_3 1_555 1_555
O4_3 Cu1_4 1_555 1_555
O5_3 S2_3 1_555 1_555
S2_3 O4_3 1_555 1_555
O6_3 S2_3 1_555 1_555
C22_3 S2_3 1_555 1_555
F4_3 C22_3 1_555 1_555
F5_3 C22_3 1_555 1_555
F6_3 C22_3 1_555 1_555
Cu2_3 N4_3 1_555 1_555
N5_3 Cu1_4 1_555 1_555
N6_3 Cu1_4 1_555 1_555
C4_3 C5_3 1_555 1_555
C7_3 C8_3 1_555 1_555
C9_3 C10_3 1_555 1_555
C15_3 C16_3 1_555 1_555
C18_3 C19_3 1_555 1_555
C20_3 C21_3 1_555 1_555
Cu1_5 N1_4 1_555 1_555
N1_4 C1_4 1_555 1_555
C1_4 H1_4 1_555 1_555
C2_4 C1_4 1_555 1_555
H2_4 C2_4 1_555 1_555
C3_4 C2_4 1_555 1_555
C4_4 C3_4 1_555 1_555
H3_4 C4_4 1_555 1_555
C5_4 N1_4 1_555 1_555
N2_4 C6_4 1_555 1_555
C6_4 H5_4 1_555 1_555
C7_4 C6_4 1_555 1_555
H6_4 C7_4 1_555 1_555
C8_4 C3_4 1_555 1_555
C9_4 C8_4 1_555 1_555
H7_4 C9_4 1_555 1_555
C10_4 N2_4 1_555 1_555
O1_4 Cu1_5 1_555 1_555
O2_4 S1_4 1_555 1_555
S1_4 O1_4 1_555 1_555
O3_4 S1_4 1_555 1_555
C11_4 S1_4 1_555 1_555
F1_4 C11_4 1_555 1_555
F2_4 C11_4 1_555 1_555
F3_4 C11_4 1_555 1_555
Cu2_2 N2_4 1_555 1_555
N5_4 Cu1_5 1_555 1_555
C4_4 C5_4 1_555 1_555
C7_4 C8_4 1_555 1_555
C9_4 C10_4 1_555 1_555
N3_4 Cu1_6 1_555 1_555
C12_4 N3_4 1_555 1_555
H9_4 C12_4 1_555 1_555
C13_4 C12_4 1_555 1_555
H10_4 C13_4 1_555 1_555
C14_4 C13_4 1_555 1_555
C15_4 C14_4 1_555 1_555
H11_4 C15_4 1_555 1_555
C16_4 N3_4 1_555 1_555
N4_4 C17_4 1_555 1_555
C17_4 H13_4 1_555 1_555
C18_4 C17_4 1_555 1_555
H14_4 C18_4 1_555 1_555
C19_4 C14_4 1_555 1_555
C20_4 C19_4 1_555 1_555
H15_4 C20_4 1_555 1_555
C21_4 N4_4 1_555 1_555
O4_4 Cu1_6 1_555 1_555
O5_4 S2_4 1_555 1_555
S2_4 O4_4 1_555 1_555
O6_4 S2_4 1_555 1_555
C22_4 S2_4 1_555 1_555
F4_4 C22_4 1_555 1_555
F5_4 C22_4 1_555 1_555
F6_4 C22_4 1_555 1_555
N6_4 Cu1_6 1_555 1_555
C15_4 C16_4 1_555 1_555
C18_4 C19_4 1_555 1_555
C20_4 C21_4 1_555 1_555
Cu2 N1_5 1_555 1_555
N1_5 C1_5 1_555 1_555
C1_5 H1_5 1_555 1_555
C2_5 C1_5 1_555 1_555
H2_5 C2_5 1_555 1_555
C3_5 C2_5 1_555 1_555
C4_5 C3_5 1_555 1_555
H3_5 C4_5 1_555 1_555
C5_5 N1_5 1_555 1_555
H4_5 C5_5 1_555 1_555
N5_3 C6_5 1_555 1_555
C6_5 H5_5 1_555 1_555
C7_5 C6_5 1_555 1_555
H6_5 C7_5 1_555 1_555
C8_5 C3_5 1_555 1_555
C9_5 C8_5 1_555 1_555
H7_5 C9_5 1_555 1_555
C10_5 N5_3 1_555 1_555
H8_5 C10_5 1_555 1_555
O1_5 Cu2 1_555 1_555
O2_5 S1_5 1_555 1_555
S1_5 O1_5 1_555 1_555
O3_5 S1_5 1_555 1_555
C11_5 S1_5 1_555 1_555
F2_5 C11_5 1_555 1_555
F3_5 C11_5 1_555 1_555
N3_5 Cu2 1_555 1_555
C12_5 N3_5 1_555 1_555
H9_5 C12_5 1_555 1_555
C13_5 C12_5 1_555 1_555
H10_5 C13_5 1_555 1_555
C14_5 C13_5 1_555 1_555
C15_5 C14_5 1_555 1_555
H11_5 C15_5 1_555 1_555
C16_5 N3_5 1_555 1_555
H12_5 C16_5 1_555 1_555
N6_4 C17_5 1_555 1_555
C18_5 C17_5 1_555 1_555
H14_5 C18_5 1_555 1_555
C19_5 C14_5 1_555 1_555
C20_5 C19_5 1_555 1_555
H15_5 C20_5 1_555 1_555
C21_5 N6_4 1_555 1_555
H16_4 C21_5 1_555 1_555
O4_5 Cu2 1_555 1_555
O5_5 S2_5 1_555 1_555
S2_5 O4_5 1_555 1_555
O6_5 S2_5 1_555 1_555
C22_5 S2_5 1_555 1_555
F5_5 C22_5 1_555 1_555
F6_5 C22_5 1_555 1_555
C4_5 C5_5 1_555 1_555
C7_5 C8_5 1_555 1_555
C9_5 C10_5 1_555 1_555
C15_5 C16_5 1_555 1_555
C18_5 C19_5 1_555 1_555
C20_5 C21_5 1_555 1_555
Cu3 N1_6 1_555 1_555
N1_6 C1_6 1_555 1_555
C1_6 H1_6 1_555 1_555
C2_6 C1_6 1_555 1_555
H2_6 C2_6 1_555 1_555
C3_6 C2_6 1_555 1_555
C4_6 C3_6 1_555 1_555
H3_6 C4_6 1_555 1_555
C5_6 N1_6 1_555 1_555
H4_6 C5_6 1_555 1_555
N5_4 C6_6 1_555 1_555
C7_6 C6_6 1_555 1_555
H6_6 C7_6 1_555 1_555
C8_6 C3_6 1_555 1_555
C9_6 C8_6 1_555 1_555
H7_6 C9_6 1_555 1_555
C10_6 N5_4 1_555 1_555
H8_6 C10_6 1_555 1_555
O1_6 Cu3 1_555 1_555
O2_6 S1_6 1_555 1_555
S1_6 O1_6 1_555 1_555
O3_6 S1_6 1_555 1_555
C11_6 S1_6 1_555 1_555
F1_6 C11_6 1_555 1_555
F2_6 C11_6 1_555 1_555
F3_6 C11_6 1_555 1_555
N3_6 Cu3 1_555 1_555
C12_6 N3_6 1_555 1_555
H9_6 C12_6 1_555 1_555
C13_6 C12_6 1_555 1_555
H10_6 C13_6 1_555 1_555
C14_6 C13_6 1_555 1_555
C15_6 C14_6 1_555 1_555
H11_6 C15_6 1_555 1_555
C16_6 N3_6 1_555 1_555
H12_6 C16_6 1_555 1_555
N6_3 C17_6 1_555 1_555
C17_6 H13_6 1_555 1_555
C18_6 C17_6 1_555 1_555
H14_6 C18_6 1_555 1_555
C19_6 C14_6 1_555 1_555
C20_6 C19_6 1_555 1_555
H15_6 C20_6 1_555 1_555
C21_6 N6_3 1_555 1_555
H16_5 C21_6 1_555 1_555
O4_6 Cu3 1_555 1_555
O5_6 S2_6 1_555 1_555
S2_6 O4_6 1_555 1_555
O6_6 S2_6 1_555 1_555
C22_6 S2_6 1_555 1_555
F4_6 C22_6 1_555 1_555
F5_6 C22_6 1_555 1_555
F6_6 C22_6 1_555 1_555
C4_6 C5_6 1_555 1_555
C7_6 C8_6 1_555 1_555
C9_6 C10_6 1_555 1_555
C15_6 C16_6 1_555 1_555
C18_6 C19_6 1_555 1_555
C20_6 C21_6 1_555 1_555
Cu2_2 N1_7 1_555 1_555
N1_7 C1_7 1_555 1_555
C1_7 H1_7 1_555 1_555
C2_7 C1_7 1_555 1_555
H2_7 C2_7 1_555 1_555
C3_7 C2_7 1_555 1_555
C4_7 C3_7 1_555 1_555
H3_7 C4_7 1_555 1_555
C5_7 N1_7 1_555 1_555
H4_7 C5_7 1_555 1_555
N5 C6_7 1_555 1_555
C7_7 C6_7 1_555 1_555
H6_7 C7_7 1_555 1_555
C8_7 C3_7 1_555 1_555
C9_7 C8_7 1_555 1_555
H7_7 C9_7 1_555 1_555
C10_7 N5 1_555 1_555
H8_7 C10_7 1_555 1_555
O4_7 Cu2_2 1_555 1_555
O5_7 S2_7 1_555 1_555
S2_7 O4_7 1_555 1_555
O6_7 S2_7 1_555 1_555
C22_7 S2_7 1_555 1_555
F4_7 C22_7 1_555 1_555
F5_7 C22_7 1_555 1_555
F6_7 C22_7 1_555 1_555
C4_7 C5_7 1_555 1_555
C7_7 C8_7 1_555 1_555
C9_7 C10_7 1_555 1_555
O1_7 Cu2_3 1_555 1_555
O2_7 S1_7 1_555 1_555
S1_7 O1_7 1_555 1_555
O3_7 S1_7 1_555 1_555
C11_7 S1_7 1_555 1_555
F1_7 C11_7 1_555 1_555
F2_7 C11_7 1_555 1_555
F3_7 C11_7 1_555 1_555
N3_7 Cu2_3 1_555 1_555
C12_7 N3_7 1_555 1_555
H9_7 C12_7 1_555 1_555
C13_7 C12_7 1_555 1_555
H10_7 C13_7 1_555 1_555
C14_7 C13_7 1_555 1_555
C15_7 C14_7 1_555 1_555
H11_7 C15_7 1_555 1_555
C16_7 N3_7 1_555 1_555
H12_7 C16_7 1_555 1_555
N6_2 C17_7 1_555 1_555
C17_7 H13_7 1_555 1_555
C18_7 C17_7 1_555 1_555
H14_7 C18_7 1_555 1_555
C19_7 C14_7 1_555 1_555
C20_7 C19_7 1_555 1_555
H15_7 C20_7 1_555 1_555
C21_7 N6_2 1_555 1_555
H16_6 C21_7 1_555 1_555
C15_7 C16_7 1_555 1_555
C18_7 C19_7 1_555 1_555
C20_7 C21_7 1_555 1_555
O1_8 Cu3_2 1_555 1_555
O2_8 S1_8 1_555 1_555
S1_8 O1_8 1_555 1_555
O3_8 S1_8 1_555 1_555
C11_8 S1_8 1_555 1_555
F2_8 C11_8 1_555 1_555
F3_8 C11_8 1_555 1_555
N3_8 Cu3_2 1_555 1_555
C12_8 N3_8 1_555 1_555
H9_8 C12_8 1_555 1_555
C13_8 C12_8 1_555 1_555
H10_8 C13_8 1_555 1_555
C14_8 C13_8 1_555 1_555
C15_8 C14_8 1_555 1_555
H11_8 C15_8 1_555 1_555
C16_8 N3_8 1_555 1_555
H12_8 C16_8 1_555 1_555
N6 C17_8 1_555 1_555
C18_8 C17_8 1_555 1_555
H14_8 C18_8 1_555 1_555
C19_8 C14_8 1_555 1_555
C20_8 C19_8 1_555 1_555
H15_8 C20_8 1_555 1_555
C21_8 N6 1_555 1_555
H16_7 C21_8 1_555 1_555
C15_8 C16_8 1_555 1_555
C18_8 C19_8 1_555 1_555
C20_8 C21_8 1_555 1_555
Cu3_3 N1_8 1_555 1_555
N1_8 C1_8 1_555 1_555
C1_8 H1_8 1_555 1_555
C2_8 C1_8 1_555 1_555
H2_8 C2_8 1_555 1_555
C3_8 C2_8 1_555 1_555
C4_8 C3_8 1_555 1_555
H3_8 C4_8 1_555 1_555
C5_8 N1_8 1_555 1_555
H4_8 C5_8 1_555 1_555
N5_2 C6_8 1_555 1_555
C6_8 H5_8 1_555 1_555
C7_8 C6_8 1_555 1_555
H6_8 C7_8 1_555 1_555
C8_8 C3_8 1_555 1_555
C9_8 C8_8 1_555 1_555
H7_8 C9_8 1_555 1_555
C10_8 N5_2 1_555 1_555
H8_8 C10_8 1_555 1_555
O4_8 Cu3_3 1_555 1_555
O5_8 S2_8 1_555 1_555
S2_8 O4_8 1_555 1_555
O6_8 S2_8 1_555 1_555
C22_8 S2_8 1_555 1_555
F5_8 C22_8 1_555 1_555
F6_8 C22_8 1_555 1_555
C4_8 C5_8 1_555 1_555
C7_8 C8_8 1_555 1_555
C9_8 C10_8 1_555 1_555
Cu1_7 N1_9 1_555 1_555
N1_9 C1_9 1_555 1_555
C1_9 H1_9 1_555 1_555
C2_9 C1_9 1_555 1_555
H2_9 C2_9 1_555 1_555
C3_9 C2_9 1_555 1_555
C4_9 C3_9 1_555 1_555
H3_9 C4_9 1_555 1_555
C5_9 N1_9 1_555 1_555
H4_9 C5_9 1_555 1_555
N2_5 C6_9 1_555 1_555
C6_9 H5_9 1_555 1_555
C7_9 C6_9 1_555 1_555
H6_9 C7_9 1_555 1_555
C8_9 C3_9 1_555 1_555
C9_9 C8_9 1_555 1_555
H7_9 C9_9 1_555 1_555
C10_9 N2_5 1_555 1_555
H8_9 C10_9 1_555 1_555
O1_9 Cu1_7 1_555 1_555
O2_9 S1_9 1_555 1_555
S1_9 O1_9 1_555 1_555
O3_9 S1_9 1_555 1_555
C11_9 S1_9 1_555 1_555
F2_9 C11_9 1_555 1_555
F3_9 C11_9 1_555 1_555
N3_9 Cu1_7 1_555 1_555
C12_9 N3_9 1_555 1_555
H9_9 C12_9 1_555 1_555
C13_9 C12_9 1_555 1_555
H10_9 C13_9 1_555 1_555
C14_9 C13_9 1_555 1_555
C15_9 C14_9 1_555 1_555
H11_9 C15_9 1_555 1_555
C16_9 N3_9 1_555 1_555
H12_9 C16_9 1_555 1_555
N4_5 C17_9 1_555 1_555
C18_9 C17_9 1_555 1_555
H14_9 C18_9 1_555 1_555
C19_9 C14_9 1_555 1_555
C20_9 C19_9 1_555 1_555
H15_9 C20_9 1_555 1_555
C21_9 N4_5 1_555 1_555
H16_8 C21_9 1_555 1_555
O4_9 Cu1_7 1_555 1_555
O5_9 S2_9 1_555 1_555
S2_9 O4_9 1_555 1_555
O6_9 S2_9 1_555 1_555
C22_9 S2_9 1_555 1_555
F5_9 C22_9 1_555 1_555
F6_9 C22_9 1_555 1_555
Cu2_4 N4_5 1_555 1_555
Cu3_4 N2_5 1_555 1_555
C4_9 C5_9 1_555 1_555
C7_9 C8_9 1_555 1_555
C9_9 C10_9 1_555 1_555
C15_9 C16_9 1_555 1_555
C18_9 C19_9 1_555 1_555
C20_9 C21_9 1_555 1_555
Cu1_8 N1_10 1_555 1_555
N1_10 C1_10 1_555 1_555
C1_10 H1_10 1_555 1_555
C2_10 C1_10 1_555 1_555
H2_10 C2_10 1_555 1_555
C3_10 C2_10 1_555 1_555
C4_10 C3_10 1_555 1_555
H3_10 C4_10 1_555 1_555
C5_10 N1_10 1_555 1_555
H4_10 C5_10 1_555 1_555
N2_6 C6_10 1_555 1_555
C7_10 C6_10 1_555 1_555
H6_10 C7_10 1_555 1_555
C8_10 C3_10 1_555 1_555
C9_10 C8_10 1_555 1_555
H7_10 C9_10 1_555 1_555
C10_10 N2_6 1_555 1_555
H8_10 C10_10 1_555 1_555
O1_10 Cu1_8 1_555 1_555
O2_10 S1_10 1_555 1_555
S1_10 O1_10 1_555 1_555
O3_10 S1_10 1_555 1_555
C11_10 S1_10 1_555 1_555
F1_10 C11_10 1_555 1_555
F2_10 C11_10 1_555 1_555
F3_10 C11_10 1_555 1_555
N3_10 Cu1_8 1_555 1_555
C12_10 N3_10 1_555 1_555
H9_10 C12_10 1_555 1_555
C13_10 C12_10 1_555 1_555
H10_10 C13_10 1_555 1_555
C14_10 C13_10 1_555 1_555
C15_10 C14_10 1_555 1_555
H11_10 C15_10 1_555 1_555
C16_10 N3_10 1_555 1_555
H12_10 C16_10 1_555 1_555
N4_6 C17_10 1_555 1_555
C17_10 H13_10 1_555 1_555
C18_10 C17_10 1_555 1_555
H14_10 C18_10 1_555 1_555
C19_10 C14_10 1_555 1_555
C20_10 C19_10 1_555 1_555
H15_10 C20_10 1_555 1_555
C21_10 N4_6 1_555 1_555
H16_9 C21_10 1_555 1_555
O4_10 Cu1_8 1_555 1_555
O5_10 S2_10 1_555 1_555
S2_10 O4_10 1_555 1_555
O6_10 S2_10 1_555 1_555
C22_10 S2_10 1_555 1_555
F4_10 C22_10 1_555 1_555
F5_10 C22_10 1_555 1_555
F6_10 C22_10 1_555 1_555
Cu3_4 N4_6 1_555 1_555
Cu2_5 N2_6 1_555 1_555
N5_6 Cu1_8 1_555 1_555
N6_6 Cu1_8 1_555 1_555
C4_10 C5_10 1_555 1_555
C7_10 C8_10 1_555 1_555
C9_10 C10_10 1_555 1_555
C15_10 C16_10 1_555 1_555
C18_10 C19_10 1_555 1_555
C20_10 C21_10 1_555 1_555
O1_11 Cu1_9 1_555 1_555
O2_11 S1_11 1_555 1_555
S1_11 O1_11 1_555 1_555
O3_11 S1_11 1_555 1_555
C11_11 S1_11 1_555 1_555
F1_11 C11_11 1_555 1_555
F2_11 C11_11 1_555 1_555
F3_11 C11_11 1_555 1_555
N3_11 Cu1_9 1_555 1_555
C12_11 N3_11 1_555 1_555
H9_11 C12_11 1_555 1_555
C13_11 C12_11 1_555 1_555
H10_11 C13_11 1_555 1_555
C14_11 C13_11 1_555 1_555
C15_11 C14_11 1_555 1_555
H11_11 C15_11 1_555 1_555
C16_11 N3_11 1_555 1_555
H12_11 C16_11 1_555 1_555
N4_7 C17_11 1_555 1_555
C17_11 H13_11 1_555 1_555
C18_11 C17_11 1_555 1_555
H14_11 C18_11 1_555 1_555
C19_11 C14_11 1_555 1_555
C20_11 C19_11 1_555 1_555
H15_11 C20_11 1_555 1_555
C21_11 N4_7 1_555 1_555
H16_10 C21_11 1_555 1_555
Cu2_6 N4_7 1_555 1_555
N6_7 Cu1_9 1_555 1_555
C15_11 C16_11 1_555 1_555
C18_11 C19_11 1_555 1_555
C20_11 C21_11 1_555 1_555
Cu1_10 N1_11 1_555 1_555
N1_11 C1_11 1_555 1_555
C1_11 H1_11 1_555 1_555
C2_11 C1_11 1_555 1_555
H2_11 C2_11 1_555 1_555
C3_11 C2_11 1_555 1_555
C4_11 C3_11 1_555 1_555
H3_11 C4_11 1_555 1_555
C5_11 N1_11 1_555 1_555
H4_11 C5_11 1_555 1_555
N2_7 C6_11 1_555 1_555
C7_11 C6_11 1_555 1_555
H6_11 C7_11 1_555 1_555
C8_11 C3_11 1_555 1_555
C9_11 C8_11 1_555 1_555
H7_11 C9_11 1_555 1_555
C10_11 N2_7 1_555 1_555
H8_11 C10_11 1_555 1_555
O4_11 Cu1_10 1_555 1_555
O5_11 S2_11 1_555 1_555
S2_11 O4_11 1_555 1_555
O6_11 S2_11 1_555 1_555
C22_11 S2_11 1_555 1_555
F4_11 C22_11 1_555 1_555
F5_11 C22_11 1_555 1_555
F6_11 C22_11 1_555 1_555
Cu3_6 N2_7 1_555 1_555
N5_7 Cu1_10 1_555 1_555
C4_11 C5_11 1_555 1_555
C7_11 C8_11 1_555 1_555
C9_11 C10_11 1_555 1_555
Cu1_11 N1_12 1_555 1_555
N1_12 C1_12 1_555 1_555
C1_12 H1_12 1_555 1_555
C2_12 C1_12 1_555 1_555
H2_12 C2_12 1_555 1_555
C3_12 C2_12 1_555 1_555
C4_12 C3_12 1_555 1_555
H3_12 C4_12 1_555 1_555
C5_12 N1_12 1_555 1_555
H4_12 C5_12 1_555 1_555
N2_8 C6_12 1_555 1_555
C6_12 H5_12 1_555 1_555
C7_12 C6_12 1_555 1_555
H6_12 C7_12 1_555 1_555
C8_12 C3_12 1_555 1_555
C9_12 C8_12 1_555 1_555
H7_12 C9_12 1_555 1_555
C10_12 N2_8 1_555 1_555
H8_12 C10_12 1_555 1_555
O4_12 Cu1_11 1_555 1_555
O5_12 S2_12 1_555 1_555
S2_12 O4_12 1_555 1_555
O6_12 S2_12 1_555 1_555
C22_12 S2_12 1_555 1_555
F5_12 C22_12 1_555 1_555
F6_12 C22_12 1_555 1_555
Cu2_6 N2_8 1_555 1_555
C4_12 C5_12 1_555 1_555
C7_12 C8_12 1_555 1_555
C9_12 C10_12 1_555 1_555
O1_12 Cu1_12 1_555 1_555
O2_12 S1_12 1_555 1_555
S1_12 O1_12 1_555 1_555
O3_12 S1_12 1_555 1_555
C11_12 S1_12 1_555 1_555
F2_12 C11_12 1_555 1_555
F3_12 C11_12 1_555 1_555
N3_12 Cu1_12 1_555 1_555
C12_12 N3_12 1_555 1_555
H9_12 C12_12 1_555 1_555
C13_12 C12_12 1_555 1_555
H10_12 C13_12 1_555 1_555
C14_12 C13_12 1_555 1_555
C15_12 C14_12 1_555 1_555
H11_12 C15_12 1_555 1_555
C16_12 N3_12 1_555 1_555
H12_12 C16_12 1_555 1_555
N4_8 C17_12 1_555 1_555
C18_12 C17_12 1_555 1_555
H14_12 C18_12 1_555 1_555
C19_12 C14_12 1_555 1_555
C20_12 C19_12 1_555 1_555
H15_12 C20_12 1_555 1_555
C21_12 N4_8 1_555 1_555
H16_11 C21_12 1_555 1_555
Cu3_5 N4_8 1_555 1_555
C15_12 C16_12 1_555 1_555
C18_12 C19_12 1_555 1_555
C20_12 C21_12 1_555 1_555
N3_13 Cu3_5 1_555 1_555
C12_13 N3_13 1_555 1_555
H9_13 C12_13 1_555 1_555
C13_13 C12_13 1_555 1_555
H10_13 C13_13 1_555 1_555
C14_13 C13_13 1_555 1_555
C15_13 C14_13 1_555 1_555
H11_13 C15_13 1_555 1_555
C16_13 N3_13 1_555 1_555
N6_5 C17_13 1_555 1_555
C17_13 H13_13 1_555 1_555
C18_13 C17_13 1_555 1_555
H14_13 C18_13 1_555 1_555
C19_13 C14_13 1_555 1_555
C20_13 C19_13 1_555 1_555
H15_13 C20_13 1_555 1_555
C21_13 N6_5 1_555 1_555
H16_12 C21_13 1_555 1_555
O4_13 Cu3_5 1_555 1_555
O5_13 S2_13 1_555 1_555
S2_13 O4_13 1_555 1_555
O6_13 S2_13 1_555 1_555
C22_13 S2_13 1_555 1_555
F4_13 C22_13 1_555 1_555
F5_13 C22_13 1_555 1_555
F6_13 C22_13 1_555 1_555
C15_13 C16_13 1_555 1_555
C18_13 C19_13 1_555 1_555
C20_13 C21_13 1_555 1_555
Cu3_6 N1_13 1_555 1_555
N1_13 C1_13 1_555 1_555
C1_13 H1_13 1_555 1_555
C2_13 C1_13 1_555 1_555
H2_13 C2_13 1_555 1_555
C3_13 C2_13 1_555 1_555
C4_13 C3_13 1_555 1_555
H3_13 C4_13 1_555 1_555
C5_13 N1_13 1_555 1_555
N5_6 C6_13 1_555 1_555
C6_13 H5_13 1_555 1_555
C7_13 C6_13 1_555 1_555
H6_13 C7_13 1_555 1_555
C8_13 C3_13 1_555 1_555
C9_13 C8_13 1_555 1_555
H7_13 C9_13 1_555 1_555
C10_13 N5_6 1_555 1_555
H8_13 C10_13 1_555 1_555
O1_13 Cu3_6 1_555 1_555
O2_13 S1_13 1_555 1_555
S1_13 O1_13 1_555 1_555
O3_13 S1_13 1_555 1_555
C11_13 S1_13 1_555 1_555
F1_13 C11_13 1_555 1_555
F2_13 C11_13 1_555 1_555
F3_13 C11_13 1_555 1_555
C4_13 C5_13 1_555 1_555
C7_13 C8_13 1_555 1_555
C9_13 C10_13 1_555 1_555
Cu2_6 N1_14 1_555 1_555
N1_14 C1_14 1_555 1_555
C1_14 H1_14 1_555 1_555
C2_14 C1_14 1_555 1_555
H2_14 C2_14 1_555 1_555
C3_14 C2_14 1_555 1_555
C4_14 C3_14 1_555 1_555
H3_14 C4_14 1_555 1_555
C5_14 N1_14 1_555 1_555
H4_14 C5_14 1_555 1_555
N5_5 C6_14 1_555 1_555
C6_14 H5_14 1_555 1_555
C7_14 C6_14 1_555 1_555
H6_14 C7_14 1_555 1_555
C8_14 C3_14 1_555 1_555
C9_14 C8_14 1_555 1_555
H7_14 C9_14 1_555 1_555
C10_14 N5_5 1_555 1_555
H8_14 C10_14 1_555 1_555
O1_14 Cu2_6 1_555 1_555
O2_14 S1_14 1_555 1_555
S1_14 O1_14 1_555 1_555
O3_14 S1_14 1_555 1_555
C11_14 S1_14 1_555 1_555
F1_14 C11_14 1_555 1_555
F2_14 C11_14 1_555 1_555
F3_14 C11_14 1_555 1_555
N3_14 Cu2_6 1_555 1_555
C12_14 N3_14 1_555 1_555
H9_14 C12_14 1_555 1_555
C13_14 C12_14 1_555 1_555
H10_14 C13_14 1_555 1_555
C14_14 C13_14 1_555 1_555
C15_14 C14_14 1_555 1_555
H11_14 C15_14 1_555 1_555
C16_14 N3_14 1_555 1_555
H12_14 C16_14 1_555 1_555
N6_6 C17_14 1_555 1_555
C17_14 H13_14 1_555 1_555
C18_14 C17_14 1_555 1_555
H14_14 C18_14 1_555 1_555
C19_14 C14_14 1_555 1_555
C20_14 C19_14 1_555 1_555
H15_14 C20_14 1_555 1_555
C21_14 N6_6 1_555 1_555
H16_13 C21_14 1_555 1_555
O4_14 Cu2_6 1_555 1_555
O5_14 S2_14 1_555 1_555
S2_14 O4_14 1_555 1_555
O6_14 S2_14 1_555 1_555
C22_14 S2_14 1_555 1_555
F4_14 C22_14 1_555 1_555
F5_14 C22_14 1_555 1_555
F6_14 C22_14 1_555 1_555
C4_14 C5_14 1_555 1_555
C7_14 C8_14 1_555 1_555
C9_14 C10_14 1_555 1_555
C15_14 C16_14 1_555 1_555
C18_14 C19_14 1_555 1_555
C20_14 C21_14 1_555 1_555
Cu3_4 N1_15 1_555 1_555
N1_15 C1_15 1_555 1_555
C1_15 H1_15 1_555 1_555
C2_15 C1_15 1_555 1_555
H2_15 C2_15 1_555 1_555
C3_15 C2_15 1_555 1_555
C4_15 C3_15 1_555 1_555
H3_15 C4_15 1_555 1_555
C5_15 N1_15 1_555 1_555
H4_15 C5_15 1_555 1_555
N5_8 C6_15 1_555 1_555
C6_15 H5_15 1_555 1_555
C7_15 C6_15 1_555 1_555
H6_15 C7_15 1_555 1_555
C8_15 C3_15 1_555 1_555
C9_15 C8_15 1_555 1_555
H7_15 C9_15 1_555 1_555
C10_15 N5_8 1_555 1_555
O1_15 Cu3_4 1_555 1_555
O2_15 S1_15 1_555 1_555
S1_15 O1_15 1_555 1_555
O3_15 S1_15 1_555 1_555
C11_15 S1_15 1_555 1_555
F1_15 C11_15 1_555 1_555
F2_15 C11_15 1_555 1_555
F3_15 C11_15 1_555 1_555
N3_15 Cu3_4 1_555 1_555
C12_15 N3_15 1_555 1_555
H9_15 C12_15 1_555 1_555
C13_15 C12_15 1_555 1_555
H10_15 C13_15 1_555 1_555
C14_15 C13_15 1_555 1_555
C15_15 C14_15 1_555 1_555
H11_15 C15_15 1_555 1_555
C16_15 N3_15 1_555 1_555
H12_15 C16_15 1_555 1_555
N6_7 C17_15 1_555 1_555
C17_15 H13_15 1_555 1_555
C18_15 C17_15 1_555 1_555
H14_15 C18_15 1_555 1_555
C19_15 C14_15 1_555 1_555
C20_15 C19_15 1_555 1_555
H15_15 C20_15 1_555 1_555
C21_15 N6_7 1_555 1_555
O4_15 Cu3_4 1_555 1_555
O5_15 S2_15 1_555 1_555
S2_15 O4_15 1_555 1_555
O6_15 S2_15 1_555 1_555
C22_15 S2_15 1_555 1_555
F4_15 C22_15 1_555 1_555
F5_15 C22_15 1_555 1_555
F6_15 C22_15 1_555 1_555
C4_15 C5_15 1_555 1_555
C7_15 C8_15 1_555 1_555
C9_15 C10_15 1_555 1_555
C15_15 C16_15 1_555 1_555
C18_15 C19_15 1_555 1_555
C20_15 C21_15 1_555 1_555
N3_16 Cu2_4 1_555 1_555
C12_16 N3_16 1_555 1_555
H9_16 C12_16 1_555 1_555
C13_16 C12_16 1_555 1_555
H10_16 C13_16 1_555 1_555
C14_16 C13_16 1_555 1_555
C15_16 C14_16 1_555 1_555
H11_16 C15_16 1_555 1_555
C16_16 N3_16 1_555 1_555
N6_8 C17_16 1_555 1_555
C17_16 H13_16 1_555 1_555
C18_16 C17_16 1_555 1_555
H14_16 C18_16 1_555 1_555
C19_16 C14_16 1_555 1_555
C20_16 C19_16 1_555 1_555
H15_16 C20_16 1_555 1_555
C21_16 N6_8 1_555 1_555
O4_16 Cu2_4 1_555 1_555
O5_16 S2_16 1_555 1_555
S2_16 O4_16 1_555 1_555
O6_16 S2_16 1_555 1_555
C22_16 S2_16 1_555 1_555
F4_16 C22_16 1_555 1_555
F5_16 C22_16 1_555 1_555
F6_16 C22_16 1_555 1_555
C15_16 C16_16 1_555 1_555
C18_16 C19_16 1_555 1_555
C20_16 C21_16 1_555 1_555
Cu2_5 N1_16 1_555 1_555
N1_16 C1_16 1_555 1_555
C1_16 H1_16 1_555 1_555
C2_16 C1_16 1_555 1_555
H2_16 C2_16 1_555 1_555
C3_16 C2_16 1_555 1_555
C4_16 C3_16 1_555 1_555
H3_16 C4_16 1_555 1_555
C5_16 N1_16 1_555 1_555
N5_7 C6_16 1_555 1_555
C6_16 H5_16 1_555 1_555
C7_16 C6_16 1_555 1_555
H6_16 C7_16 1_555 1_555
C8_16 C3_16 1_555 1_555
C9_16 C8_16 1_555 1_555
H7_16 C9_16 1_555 1_555
C10_16 N5_7 1_555 1_555
O1_16 Cu2_5 1_555 1_555
O2_16 S1_16 1_555 1_555
S1_16 O1_16 1_555 1_555
O3_16 S1_16 1_555 1_555
C11_16 S1_16 1_555 1_555
F1_16 C11_16 1_555 1_555
F2_16 C11_16 1_555 1_555
F3_16 C11_16 1_555 1_555
C4_16 C5_16 1_555 1_555
C7_16 C8_16 1_555 1_555
C9_16 C10_16 1_555 1_555

#END
