
###############################################################################
#
# This file contains modified crystal structure data generated from the
# MOF subset of the Cambridge Structural Database (CSD) v543 
# hosted by the Cambridge Crystallographic Data Centre (CCDC).
#
# This work is licensed under the Creative Commons
# Attribution-NonCommercial-ShareAlike 4.0 International License.
# To view a copy of this license, visit
# http://creativecommons.org/licenses/by-nc-sa/4.0/
# or send a letter to
# Creative Commons, PO Box 1866, Mountain View, CA 94042, USA.
#
# CIF created using the CSD Python API on 29 September 2022
# The structure has been converted into the P1 space group
# The structure has a 3D framework
# The original CSD entry HEXRIO is in the orthorhombic crystal system
# The framework has been calculated to contain at least 10.0% void space
# The void calculation uses a probe of radius 1.32A, grid spacing 0.4
#
###############################################################################

data_HEXRIO
_chemical_formula_moiety         '(C704 H512 Cd32 F192 N128 O192 S64)n'
_symmetry_cell_setting           triclinic
_symmetry_space_group_name_H-M   'P 1'
_symmetry_Int_Tables_number      1
_space_group_name_Hall           'P 1'
loop_
_symmetry_equiv_pos_site_id
_symmetry_equiv_pos_as_xyz
1 x,y,z
_cell_length_a                   17.338(1)
_cell_length_b                   42.746(2)
_cell_length_c                   43.404(2)
_cell_angle_alpha                90
_cell_angle_beta                 90
_cell_angle_gamma                90
_cell_volume                     32168
loop_
_atom_site_label
_atom_site_type_symbol
_atom_site_fract_x
_atom_site_fract_y
_atom_site_fract_z
Cd1 Cd 0.25586(2) 0.00331(2) 0.01480(2)
N1 N 0.3052(3) 0.00215(12) 0.06396(10)
C3 C 0.3641(3) 0.00054(13) 0.12390(12)
C4 C 0.4098(4) 0.0075(2) 0.09880(16)
H3 H 0.4628 0.0124 0.1018
C5 C 0.3798(4) 0.0076(2) 0.06952(15)
H4 H 0.4132 0.0116 0.0526
C9 C 0.4527(6) 0.0199(2) 0.16472(17)
H7 H 0.4716 0.0354 0.151
C10 C 0.4822(6) 0.0172(2) 0.19452(17)
H8 H 0.5238 0.0304 0.2002
S2 S 0.07571(10) 0.02825(4) 0.04740(4)
O4 O 0.1482(3) 0.03128(12) 0.03146(11)
O5 O 0.0738(3) 0.00205(13) 0.06866(14)
O6 O 0.0094(4) 0.0319(2) 0.0292(2)
C22 C 0.0884(10) 0.0622(5) 0.0746(4)
F4 F 0.1588(10) 0.0611(3) 0.0883(3)
F5 F 0.0860(10) 0.0891(4) 0.0592(4)
F6 F 0.0349(10) 0.0631(4) 0.0969(4)
N6 N 0.3090(3) 0.05200(10) 0.00561(11)
N2 N 0.4555(3) 0.99739(11) 0.21516(11)
N3 N 0.2015(3) 0.95423(11) 0.02021(11)
C1 C 0.2600(3) 0.99568(17) 0.08797(14)
H1 H 0.2071 0.9914 0.0842
C2 C 0.2857(3) 0.99492(16) 0.11801(13)
H2 H 0.251 0.9907 0.1344
C6 C 0.3970(4) 0.97902(16) 0.20678(13)
H5 H 0.3755 0.9652 0.2216
C7 C 0.3660(4) 0.97936(17) 0.17710(13)
H6 H 0.3248 0.9657 0.1719
C8 C 0.3950(4) 0.99932(14) 0.15566(12)
C11 C 0.1298(4) 0.94963(14) 0.00976(16)
H9 H 0.0985 0.9673 0.0052
C12 C 0.0997(4) 0.91982(13) 0.00536(16)
C13 C 0.1449(3) 0.89408(12) 0.01187(13)
C14 C 0.2182(4) 0.89891(13) 0.02354(16)
H11 H 0.2502 0.8817 0.0288
C15 C 0.2441(4) 0.92937(14) 0.02743(16)
H12 H 0.2943 0.9326 0.0356
C18 C 0.1150(4) 0.86204(12) 0.00631(13)
C19 C 0.1312(4) 0.83751(14) 0.02566(15)
H15 H 0.1621 0.8406 0.0435
C20 C 0.1018(4) 0.80807(14) 0.01889(14)
H16 H 0.1131 0.7914 0.0326
F2 F 0.4310(10) 0.9162(5) 0.0011(4)
Cd3 Cd 0.50586(2) 0.99669(2) 0.26480(2)
N4 N 0.0590(3) 0.80200(10) 0.99439(11)
H10 H 0.0485 0.9172 0.9979
C16 C 0.0445(4) 0.82557(14) 0.97509(15)
H13 H 0.0153 0.8215 0.957
C17 C 0.0704(4) 0.85580(14) 0.98030(16)
H14 H 0.0579 0.8721 0.9663
O1 O 0.3685(3) 0.97927(12) 0.99682(12)
S1 S 0.4346(3) 0.97306(14) 0.98167(13)
C21 C 0.4362(11) 0.9307(6) 0.9740(4)
O2 O 0.4362(10) 0.9879(5) 0.9520(4)
O3 O 0.5042(10) 0.9781(7) 0.9969(5)
F1 F 0.3763(10) 0.9234(5) 0.9553(4)
F3 F 0.5057(10) 0.9275(5) 0.9595(5)
Cd2 Cd 0.00586(2) 0.75331(2) 0.98520(2)
Cd1_2 Cd 0.25586(2) 0.24669(2) 0.23520(2)
N1_2 N 0.3052(3) 0.24785(12) 0.18604(10)
N2_2 N 0.4555(3) 0.25261(11) 0.03484(11)
N3_2 N 0.2015(3) 0.29577(11) 0.22979(11)
N4_2 N 0.0590(3) 0.44800(10) 0.25561(11)
C1_2 C 0.2600(3) 0.25432(17) 0.16203(14)
H1_2 H 0.2071 0.2586 0.1658
C2_2 C 0.2857(3) 0.25508(16) 0.13199(13)
H2_2 H 0.251 0.2593 0.1156
C3_2 C 0.3641(3) 0.24946(13) 0.12610(12)
C4_2 C 0.4098(4) 0.2425(2) 0.15120(16)
H3_2 H 0.4628 0.2376 0.1482
C5_2 C 0.3798(4) 0.2424(2) 0.18048(15)
H4_2 H 0.4132 0.2384 0.1974
C6_2 C 0.3970(4) 0.27098(16) 0.04322(13)
H5_2 H 0.3755 0.2848 0.0284
C7_2 C 0.3660(4) 0.27064(17) 0.07290(13)
H6_2 H 0.3248 0.2843 0.0781
C8_2 C 0.3950(4) 0.25068(14) 0.09434(12)
C9_2 C 0.4527(6) 0.2301(2) 0.08528(17)
H7_2 H 0.4716 0.2146 0.099
C10_2 C 0.4822(6) 0.2328(2) 0.05548(17)
H8_2 H 0.5238 0.2196 0.0498
C11_2 C 0.1298(4) 0.30037(14) 0.24024(16)
H9_2 H 0.0985 0.2827 0.2448
C12_2 C 0.0997(4) 0.33018(13) 0.24464(16)
H10_2 H 0.0485 0.3328 0.2521
C13_2 C 0.1449(3) 0.35592(12) 0.23813(13)
C14_2 C 0.2182(4) 0.35109(13) 0.22646(16)
H11_2 H 0.2502 0.3683 0.2212
C15_2 C 0.2441(4) 0.32063(14) 0.22257(16)
H12_2 H 0.2943 0.3174 0.2144
C16_2 C 0.0445(4) 0.42443(14) 0.27491(15)
H13_2 H 0.0153 0.4285 0.293
C17_2 C 0.0704(4) 0.39420(14) 0.26970(16)
H14_2 H 0.0579 0.3779 0.2837
C18_2 C 0.1150(4) 0.38796(12) 0.24369(13)
C19_2 C 0.1312(4) 0.41249(14) 0.22434(15)
H15_2 H 0.1621 0.4094 0.2065
C20_2 C 0.1018(4) 0.44193(14) 0.23111(14)
H16_2 H 0.1131 0.4586 0.2174
O1_2 O 0.3685(3) 0.27073(12) 0.25318(12)
S1_2 S 0.4346(3) 0.27694(14) 0.26833(13)
C21_2 C 0.4362(11) 0.3193(6) 0.2760(4)
O2_2 O 0.4362(10) 0.2621(5) 0.2980(4)
O3_2 O 0.5042(10) 0.2719(7) 0.2531(5)
F1_2 F 0.3763(10) 0.3266(5) 0.2947(4)
F2_2 F 0.4310(10) 0.3338(5) 0.2489(4)
F3_2 F 0.5057(10) 0.3225(5) 0.2905(5)
S2_2 S 0.07571(10) 0.22175(4) 0.20260(4)
O4_2 O 0.1482(3) 0.21872(12) 0.21854(11)
O5_2 O 0.0738(3) 0.24795(13) 0.18134(14)
O6_2 O 0.0094(4) 0.2181(2) 0.2208(2)
C22_2 C 0.0884(10) 0.1878(5) 0.1754(4)
F4_2 F 0.1588(10) 0.1889(3) 0.1617(3)
F5_2 F 0.0860(10) 0.1609(4) 0.1908(4)
F6_2 F 0.0349(10) 0.1869(4) 0.1531(4)
Cd2_2 Cd 0.00586(2) 0.49669(2) 0.26480(2)
N5 N 0.2055(3) 0.24739(11) 0.28484(11)
N6_2 N 0.3090(3) 0.19800(10) 0.24439(11)
Cd3_2 Cd 0.50586(2) 0.25331(2) 0.98520(2)
Cd1_3 Cd 0.25586(2) 0.50331(2) 0.51480(2)
N1_3 N 0.3052(3) 0.50215(12) 0.56396(10)
N2_3 N 0.4555(3) 0.49739(11) 0.71516(11)
N3_3 N 0.2015(3) 0.45423(11) 0.52021(11)
N4_3 N 0.0590(3) 0.30200(10) 0.49439(11)
C1_3 C 0.2600(3) 0.49568(17) 0.58797(14)
H1_3 H 0.2071 0.4914 0.5842
C2_3 C 0.2857(3) 0.49492(16) 0.61801(13)
H2_3 H 0.251 0.4907 0.6344
C3_3 C 0.3641(3) 0.50054(13) 0.62390(12)
C4_3 C 0.4098(4) 0.5075(2) 0.59880(16)
H3_3 H 0.4628 0.5124 0.6018
C5_3 C 0.3798(4) 0.5076(2) 0.56952(15)
H4_3 H 0.4132 0.5116 0.5526
C6_3 C 0.3970(4) 0.47902(16) 0.70678(13)
H5_3 H 0.3755 0.4652 0.7216
C7_3 C 0.3660(4) 0.47936(17) 0.67710(13)
H6_3 H 0.3248 0.4657 0.6719
C8_3 C 0.3950(4) 0.49932(14) 0.65566(12)
C9_3 C 0.4527(6) 0.5199(2) 0.66472(17)
H7_3 H 0.4716 0.5354 0.651
C10_3 C 0.4822(6) 0.5172(2) 0.69452(17)
H8_3 H 0.5238 0.5304 0.7002
C11_3 C 0.1298(4) 0.44963(14) 0.50976(16)
H9_3 H 0.0985 0.4673 0.5052
C12_3 C 0.0997(4) 0.41982(13) 0.50536(16)
H10_3 H 0.0485 0.4172 0.4979
C13_3 C 0.1449(3) 0.39408(12) 0.51187(13)
C14_3 C 0.2182(4) 0.39891(13) 0.52354(16)
H11_3 H 0.2502 0.3817 0.5288
C15_3 C 0.2441(4) 0.42937(14) 0.52743(16)
H12_3 H 0.2943 0.4326 0.5356
C16_3 C 0.0445(4) 0.32557(14) 0.47509(15)
H13_3 H 0.0153 0.3215 0.457
C17_3 C 0.0704(4) 0.35580(14) 0.48030(16)
H14_3 H 0.0579 0.3721 0.4663
C18_3 C 0.1150(4) 0.36204(12) 0.50631(13)
C19_3 C 0.1312(4) 0.33751(14) 0.52566(15)
H15_3 H 0.1621 0.3406 0.5435
C20_3 C 0.1018(4) 0.30807(14) 0.51889(14)
H16_3 H 0.1131 0.2914 0.5326
O1_3 O 0.3685(3) 0.47927(12) 0.49682(12)
S1_3 S 0.4346(3) 0.47306(14) 0.48167(13)
C21_3 C 0.4362(11) 0.4307(6) 0.4740(4)
O2_3 O 0.4362(10) 0.4879(5) 0.4520(4)
O3_3 O 0.5042(10) 0.4781(7) 0.4969(5)
F1_3 F 0.3763(10) 0.4234(5) 0.4553(4)
F2_3 F 0.4310(10) 0.4162(5) 0.5011(4)
F3_3 F 0.5057(10) 0.4275(5) 0.4595(5)
S2_3 S 0.07571(10) 0.52825(4) 0.54740(4)
O4_3 O 0.1482(3) 0.53128(12) 0.53146(11)
O5_3 O 0.0738(3) 0.50205(13) 0.56866(14)
O6_3 O 0.0094(4) 0.5319(2) 0.5292(2)
C22_3 C 0.0884(10) 0.5622(5) 0.5746(4)
F4_3 F 0.1588(10) 0.5611(3) 0.5883(3)
F5_3 F 0.0860(10) 0.5891(4) 0.5592(4)
F6_3 F 0.0349(10) 0.5631(4) 0.5969(4)
Cd2_3 Cd 0.00586(2) 0.25331(2) 0.48520(2)
Cd3_3 Cd 0.50586(2) 0.49669(2) 0.76480(2)
N5_2 N 0.2055(3) 0.50261(11) 0.46516(11)
N6_3 N 0.3090(3) 0.55200(10) 0.50561(11)
Cd1_4 Cd 0.25586(2) 0.74669(2) 0.73520(2)
N1_4 N 0.3052(3) 0.74785(12) 0.68604(10)
N2_4 N 0.4555(3) 0.75261(11) 0.53484(11)
N3_4 N 0.2015(3) 0.79577(11) 0.72979(11)
N4_4 N 0.0590(3) 0.94800(10) 0.75561(11)
C1_4 C 0.2600(3) 0.75432(17) 0.66203(14)
H1_4 H 0.2071 0.7586 0.6658
C2_4 C 0.2857(3) 0.75508(16) 0.63199(13)
H2_4 H 0.251 0.7593 0.6156
C3_4 C 0.3641(3) 0.74946(13) 0.62610(12)
C4_4 C 0.4098(4) 0.7425(2) 0.65120(16)
H3_4 H 0.4628 0.7376 0.6482
C5_4 C 0.3798(4) 0.7424(2) 0.68048(15)
H4_4 H 0.4132 0.7384 0.6974
C6_4 C 0.3970(4) 0.77098(16) 0.54322(13)
H5_4 H 0.3755 0.7848 0.5284
C7_4 C 0.3660(4) 0.77064(17) 0.57290(13)
H6_4 H 0.3248 0.7843 0.5781
C8_4 C 0.3950(4) 0.75068(14) 0.59434(12)
C9_4 C 0.4527(6) 0.7301(2) 0.58528(17)
H7_4 H 0.4716 0.7146 0.599
C10_4 C 0.4822(6) 0.7328(2) 0.55548(17)
H8_4 H 0.5238 0.7196 0.5498
C11_4 C 0.1298(4) 0.80037(14) 0.74024(16)
H9_4 H 0.0985 0.7827 0.7448
C12_4 C 0.0997(4) 0.83018(13) 0.74464(16)
H10_4 H 0.0485 0.8328 0.7521
C13_4 C 0.1449(3) 0.85592(12) 0.73813(13)
C14_4 C 0.2182(4) 0.85109(13) 0.72646(16)
H11_4 H 0.2502 0.8683 0.7212
C15_4 C 0.2441(4) 0.82063(14) 0.72257(16)
H12_4 H 0.2943 0.8174 0.7144
C16_4 C 0.0445(4) 0.92443(14) 0.77491(15)
H13_4 H 0.0153 0.9285 0.793
C17_4 C 0.0704(4) 0.89420(14) 0.76970(16)
H14_4 H 0.0579 0.8779 0.7837
C18_4 C 0.1150(4) 0.88796(12) 0.74369(13)
C19_4 C 0.1312(4) 0.91249(14) 0.72434(15)
H15_4 H 0.1621 0.9094 0.7065
C20_4 C 0.1018(4) 0.94193(14) 0.73111(14)
H16_4 H 0.1131 0.9586 0.7174
O1_4 O 0.3685(3) 0.77073(12) 0.75318(12)
S1_4 S 0.4346(3) 0.77694(14) 0.76833(13)
C21_4 C 0.4362(11) 0.8193(6) 0.7760(4)
O2_4 O 0.4362(10) 0.7621(5) 0.7980(4)
O3_4 O 0.5042(10) 0.7719(7) 0.7531(5)
F1_4 F 0.3763(10) 0.8266(5) 0.7947(4)
F2_4 F 0.4310(10) 0.8338(5) 0.7489(4)
F3_4 F 0.5057(10) 0.8225(5) 0.7905(5)
S2_4 S 0.07571(10) 0.72175(4) 0.70260(4)
O4_4 O 0.1482(3) 0.71872(12) 0.71854(11)
O5_4 O 0.0738(3) 0.74795(13) 0.68134(14)
O6_4 O 0.0094(4) 0.7181(2) 0.7208(2)
C22_4 C 0.0884(10) 0.6878(5) 0.6754(4)
F4_4 F 0.1588(10) 0.6889(3) 0.6617(3)
F5_4 F 0.0860(10) 0.6609(4) 0.6908(4)
F6_4 F 0.0349(10) 0.6869(4) 0.6531(4)
Cd2_4 Cd 0.00586(2) 0.99669(2) 0.76480(2)
Cd3_4 Cd 0.50586(2) 0.75331(2) 0.48520(2)
N5_3 N 0.2055(3) 0.74739(11) 0.78484(11)
N6_4 N 0.3090(3) 0.69800(10) 0.74439(11)
O3_5 O 0.0042(10) 0.9781(7) 0.4969(5)
F3_5 F 0.0057(10) 0.9275(5) 0.4595(5)
Cd1_5 Cd 0.75586(2) 0.00331(2) 0.51480(2)
N1_5 N 0.8052(3) 0.00215(12) 0.56396(10)
C3_5 C 0.8641(3) 0.00054(13) 0.62390(12)
C4_5 C 0.9098(4) 0.0075(2) 0.59880(16)
H3_5 H 0.9628 0.0124 0.6018
C5_5 C 0.8798(4) 0.0076(2) 0.56952(15)
H4_5 H 0.9132 0.0116 0.5526
C9_5 C 0.9527(6) 0.0199(2) 0.66472(17)
H7_5 H 0.9716 0.0354 0.651
C10_5 C 0.9822(6) 0.0172(2) 0.69452(17)
S2_5 S 0.57571(10) 0.02825(4) 0.54740(4)
O4_5 O 0.6482(3) 0.03128(12) 0.53146(11)
O5_5 O 0.5738(3) 0.00205(13) 0.56866(14)
O6_5 O 0.5094(4) 0.0319(2) 0.5292(2)
C22_5 C 0.5884(10) 0.0622(5) 0.5746(4)
F4_5 F 0.6588(10) 0.0611(3) 0.5883(3)
F5_5 F 0.5860(10) 0.0891(4) 0.5592(4)
F6_5 F 0.5349(10) 0.0631(4) 0.5969(4)
N5_4 N 0.7055(3) 0.00261(11) 0.46516(11)
N6_5 N 0.8090(3) 0.05200(10) 0.50561(11)
N2_5 N 0.9555(3) 0.99739(11) 0.71516(11)
N3_5 N 0.7015(3) 0.95423(11) 0.52021(11)
N4_5 N 0.5590(3) 0.80200(10) 0.49439(11)
C1_5 C 0.7600(3) 0.99568(17) 0.58797(14)
H1_5 H 0.7071 0.9914 0.5842
C2_5 C 0.7857(3) 0.99492(16) 0.61801(13)
H2_5 H 0.751 0.9907 0.6344
C6_5 C 0.8970(4) 0.97902(16) 0.70678(13)
H5_5 H 0.8755 0.9652 0.7216
C7_5 C 0.8660(4) 0.97936(17) 0.67710(13)
H6_5 H 0.8248 0.9657 0.6719
C8_5 C 0.8950(4) 0.99932(14) 0.65566(12)
C11_5 C 0.6298(4) 0.94963(14) 0.50976(16)
H9_5 H 0.5985 0.9673 0.5052
C12_5 C 0.5997(4) 0.91982(13) 0.50536(16)
H10_5 H 0.5485 0.9172 0.4979
C13_5 C 0.6449(3) 0.89408(12) 0.51187(13)
C14_5 C 0.7182(4) 0.89891(13) 0.52354(16)
H11_5 H 0.7502 0.8817 0.5288
C15_5 C 0.7441(4) 0.92937(14) 0.52743(16)
H12_5 H 0.7943 0.9326 0.5356
C16_5 C 0.5445(4) 0.82557(14) 0.47509(15)
H13_5 H 0.5153 0.8215 0.457
C17_5 C 0.5704(4) 0.85580(14) 0.48030(16)
H14_5 H 0.5579 0.8721 0.4663
C18_5 C 0.6150(4) 0.86204(12) 0.50631(13)
C19_5 C 0.6312(4) 0.83751(14) 0.52566(15)
H15_5 H 0.6621 0.8406 0.5435
C20_5 C 0.6018(4) 0.80807(14) 0.51889(14)
H16_5 H 0.6131 0.7914 0.5326
O1_5 O 0.8685(3) 0.97927(12) 0.49682(12)
S1_5 S 0.9346(3) 0.97306(14) 0.48167(13)
C21_5 C 0.9362(11) 0.9307(6) 0.4740(4)
O2_5 O 0.9362(10) 0.9879(5) 0.4520(4)
F1_5 F 0.8763(10) 0.9234(5) 0.4553(4)
F2_5 F 0.9310(10) 0.9162(5) 0.5011(4)
H8_5 H 0.0238 0.2196 0.5498
O3_6 O 0.0042(10) 0.2719(7) 0.7531(5)
F3_6 F 0.0057(10) 0.3225(5) 0.7905(5)
Cd1_6 Cd 0.75586(2) 0.24669(2) 0.73520(2)
N1_6 N 0.8052(3) 0.24785(12) 0.68604(10)
N2_6 N 0.9555(3) 0.25261(11) 0.53484(11)
N3_6 N 0.7015(3) 0.29577(11) 0.72979(11)
N4_6 N 0.5590(3) 0.44800(10) 0.75561(11)
C1_6 C 0.7600(3) 0.25432(17) 0.66203(14)
H1_6 H 0.7071 0.2586 0.6658
C2_6 C 0.7857(3) 0.25508(16) 0.63199(13)
H2_6 H 0.751 0.2593 0.6156
C3_6 C 0.8641(3) 0.24946(13) 0.62610(12)
C4_6 C 0.9098(4) 0.2425(2) 0.65120(16)
H3_6 H 0.9628 0.2376 0.6482
C5_6 C 0.8798(4) 0.2424(2) 0.68048(15)
H4_6 H 0.9132 0.2384 0.6974
C6_6 C 0.8970(4) 0.27098(16) 0.54322(13)
H5_6 H 0.8755 0.2848 0.5284
C7_6 C 0.8660(4) 0.27064(17) 0.57290(13)
H6_6 H 0.8248 0.2843 0.5781
C8_6 C 0.8950(4) 0.25068(14) 0.59434(12)
C9_6 C 0.9527(6) 0.2301(2) 0.58528(17)
H7_6 H 0.9716 0.2146 0.599
C10_6 C 0.9822(6) 0.2328(2) 0.55548(17)
C11_6 C 0.6298(4) 0.30037(14) 0.74024(16)
H9_6 H 0.5985 0.2827 0.7448
C12_6 C 0.5997(4) 0.33018(13) 0.74464(16)
H10_6 H 0.5485 0.3328 0.7521
C13_6 C 0.6449(3) 0.35592(12) 0.73813(13)
C14_6 C 0.7182(4) 0.35109(13) 0.72646(16)
H11_6 H 0.7502 0.3683 0.7212
C15_6 C 0.7441(4) 0.32063(14) 0.72257(16)
H12_6 H 0.7943 0.3174 0.7144
C16_6 C 0.5445(4) 0.42443(14) 0.77491(15)
H13_6 H 0.5153 0.4285 0.793
C17_6 C 0.5704(4) 0.39420(14) 0.76970(16)
H14_6 H 0.5579 0.3779 0.7837
C18_6 C 0.6150(4) 0.38796(12) 0.74369(13)
C19_6 C 0.6312(4) 0.41249(14) 0.72434(15)
H15_6 H 0.6621 0.4094 0.7065
C20_6 C 0.6018(4) 0.44193(14) 0.73111(14)
H16_6 H 0.6131 0.4586 0.7174
O1_6 O 0.8685(3) 0.27073(12) 0.75318(12)
S1_6 S 0.9346(3) 0.27694(14) 0.76833(13)
C21_6 C 0.9362(11) 0.3193(6) 0.7760(4)
O2_6 O 0.9362(10) 0.2621(5) 0.7980(4)
F1_6 F 0.8763(10) 0.3266(5) 0.7947(4)
F2_6 F 0.9310(10) 0.3338(5) 0.7489(4)
S2_6 S 0.57571(10) 0.22175(4) 0.70260(4)
O4_6 O 0.6482(3) 0.21872(12) 0.71854(11)
O5_6 O 0.5738(3) 0.24795(13) 0.68134(14)
O6_6 O 0.5094(4) 0.2181(2) 0.7208(2)
C22_6 C 0.5884(10) 0.1878(5) 0.6754(4)
F4_6 F 0.6588(10) 0.1889(3) 0.6617(3)
F5_6 F 0.5860(10) 0.1609(4) 0.6908(4)
F6_6 F 0.5349(10) 0.1869(4) 0.6531(4)
N5_5 N 0.7055(3) 0.24739(11) 0.78484(11)
N6_6 N 0.8090(3) 0.19800(10) 0.74439(11)
H8_6 H 0.0238 0.5304 0.2002
Cd1_7 Cd 0.75586(2) 0.50331(2) 0.01480(2)
N1_7 N 0.8052(3) 0.50215(12) 0.06396(10)
N2_7 N 0.9555(3) 0.49739(11) 0.21516(11)
N3_7 N 0.7015(3) 0.45423(11) 0.02021(11)
C1_7 C 0.7600(3) 0.49568(17) 0.08797(14)
H1_7 H 0.7071 0.4914 0.0842
C2_7 C 0.7857(3) 0.49492(16) 0.11801(13)
H2_7 H 0.751 0.4907 0.1344
C3_7 C 0.8641(3) 0.50054(13) 0.12390(12)
C4_7 C 0.9098(4) 0.5075(2) 0.09880(16)
H3_7 H 0.9628 0.5124 0.1018
C5_7 C 0.8798(4) 0.5076(2) 0.06952(15)
H4_7 H 0.9132 0.5116 0.0526
C6_7 C 0.8970(4) 0.47902(16) 0.20678(13)
H5_7 H 0.8755 0.4652 0.2216
C7_7 C 0.8660(4) 0.47936(17) 0.17710(13)
H6_7 H 0.8248 0.4657 0.1719
C8_7 C 0.8950(4) 0.49932(14) 0.15566(12)
C9_7 C 0.9527(6) 0.5199(2) 0.16472(17)
H7_7 H 0.9716 0.5354 0.151
C10_7 C 0.9822(6) 0.5172(2) 0.19452(17)
C11_7 C 0.6298(4) 0.44963(14) 0.00976(16)
H9_7 H 0.5985 0.4673 0.0052
C12_7 C 0.5997(4) 0.41982(13) 0.00536(16)
C13_7 C 0.6449(3) 0.39408(12) 0.01187(13)
C14_7 C 0.7182(4) 0.39891(13) 0.02354(16)
H11_7 H 0.7502 0.3817 0.0288
C15_7 C 0.7441(4) 0.42937(14) 0.02743(16)
H12_7 H 0.7943 0.4326 0.0356
C18_7 C 0.6150(4) 0.36204(12) 0.00631(13)
C19_7 C 0.6312(4) 0.33751(14) 0.02566(15)
H15_7 H 0.6621 0.3406 0.0435
C20_7 C 0.6018(4) 0.30807(14) 0.01889(14)
H16_7 H 0.6131 0.2914 0.0326
F2_7 F 0.9310(10) 0.4162(5) 0.0011(4)
S2_7 S 0.57571(10) 0.52825(4) 0.04740(4)
O4_7 O 0.6482(3) 0.53128(12) 0.03146(11)
O5_7 O 0.5738(3) 0.50205(13) 0.06866(14)
O6_7 O 0.5094(4) 0.5319(2) 0.0292(2)
C22_7 C 0.5884(10) 0.5622(5) 0.0746(4)
F4_7 F 0.6588(10) 0.5611(3) 0.0883(3)
F5_7 F 0.5860(10) 0.5891(4) 0.0592(4)
F6_7 F 0.5349(10) 0.5631(4) 0.0969(4)
N6_7 N 0.8090(3) 0.55200(10) 0.00561(11)
N4_7 N 0.5590(3) 0.30200(10) 0.99439(11)
H10_7 H 0.5485 0.4172 0.9979
C16_7 C 0.5445(4) 0.32557(14) 0.97509(15)
H13_7 H 0.5153 0.3215 0.957
C17_7 C 0.5704(4) 0.35580(14) 0.98030(16)
H14_7 H 0.5579 0.3721 0.9663
O1_7 O 0.8685(3) 0.47927(12) 0.99682(12)
S1_7 S 0.9346(3) 0.47306(14) 0.98167(13)
C21_7 C 0.9362(11) 0.4307(6) 0.9740(4)
O2_7 O 0.9362(10) 0.4879(5) 0.9520(4)
F1_7 F 0.8763(10) 0.4234(5) 0.9553(4)
N5_6 N 0.7055(3) 0.50261(11) 0.96516(11)
Cd1_8 Cd 0.75586(2) 0.74669(2) 0.23520(2)
N1_8 N 0.8052(3) 0.74785(12) 0.18604(10)
N2_8 N 0.9555(3) 0.75261(11) 0.03484(11)
N3_8 N 0.7015(3) 0.79577(11) 0.22979(11)
N4_8 N 0.5590(3) 0.94800(10) 0.25561(11)
C1_8 C 0.7600(3) 0.75432(17) 0.16203(14)
H1_8 H 0.7071 0.7586 0.1658
C2_8 C 0.7857(3) 0.75508(16) 0.13199(13)
H2_8 H 0.751 0.7593 0.1156
C3_8 C 0.8641(3) 0.74946(13) 0.12610(12)
C4_8 C 0.9098(4) 0.7425(2) 0.15120(16)
H3_8 H 0.9628 0.7376 0.1482
C5_8 C 0.8798(4) 0.7424(2) 0.18048(15)
H4_8 H 0.9132 0.7384 0.1974
C6_8 C 0.8970(4) 0.77098(16) 0.04322(13)
H5_8 H 0.8755 0.7848 0.0284
C7_8 C 0.8660(4) 0.77064(17) 0.07290(13)
H6_8 H 0.8248 0.7843 0.0781
C8_8 C 0.8950(4) 0.75068(14) 0.09434(12)
C9_8 C 0.9527(6) 0.7301(2) 0.08528(17)
H7_8 H 0.9716 0.7146 0.099
C10_8 C 0.9822(6) 0.7328(2) 0.05548(17)
C11_8 C 0.6298(4) 0.80037(14) 0.24024(16)
H9_8 H 0.5985 0.7827 0.2448
C12_8 C 0.5997(4) 0.83018(13) 0.24464(16)
H10_8 H 0.5485 0.8328 0.2521
C13_8 C 0.6449(3) 0.85592(12) 0.23813(13)
C14_8 C 0.7182(4) 0.85109(13) 0.22646(16)
H11_8 H 0.7502 0.8683 0.2212
C15_8 C 0.7441(4) 0.82063(14) 0.22257(16)
H12_8 H 0.7943 0.8174 0.2144
C16_8 C 0.5445(4) 0.92443(14) 0.27491(15)
H13_8 H 0.5153 0.9285 0.293
C17_8 C 0.5704(4) 0.89420(14) 0.26970(16)
H14_8 H 0.5579 0.8779 0.2837
C18_8 C 0.6150(4) 0.88796(12) 0.24369(13)
C19_8 C 0.6312(4) 0.91249(14) 0.22434(15)
H15_8 H 0.6621 0.9094 0.2065
C20_8 C 0.6018(4) 0.94193(14) 0.23111(14)
H16_8 H 0.6131 0.9586 0.2174
O1_8 O 0.8685(3) 0.77073(12) 0.25318(12)
S1_8 S 0.9346(3) 0.77694(14) 0.26833(13)
C21_8 C 0.9362(11) 0.8193(6) 0.2760(4)
O2_8 O 0.9362(10) 0.7621(5) 0.2980(4)
F1_8 F 0.8763(10) 0.8266(5) 0.2947(4)
F2_8 F 0.9310(10) 0.8338(5) 0.2489(4)
S2_8 S 0.57571(10) 0.72175(4) 0.20260(4)
O4_8 O 0.6482(3) 0.71872(12) 0.21854(11)
O5_8 O 0.5738(3) 0.74795(13) 0.18134(14)
O6_8 O 0.5094(4) 0.7181(2) 0.2208(2)
C22_8 C 0.5884(10) 0.6878(5) 0.1754(4)
F4_8 F 0.6588(10) 0.6889(3) 0.1617(3)
F5_8 F 0.5860(10) 0.6609(4) 0.1908(4)
F6_8 F 0.5349(10) 0.6869(4) 0.1531(4)
N5_7 N 0.7055(3) 0.74739(11) 0.28484(11)
N6_8 N 0.8090(3) 0.69800(10) 0.24439(11)
N1_9 N 0.0552(3) 0.75215(12) 0.93604(10)
C1_9 C 0.0100(3) 0.74568(17) 0.91203(14)
C2_9 C 0.0357(3) 0.74492(16) 0.88199(13)
H2_9 H 0.001 0.7407 0.8656
C3_9 C 0.1141(3) 0.75054(13) 0.87610(12)
C4_9 C 0.1598(4) 0.7575(2) 0.90120(16)
H3_9 H 0.2128 0.7624 0.8982
C5_9 C 0.1298(4) 0.7576(2) 0.93048(15)
H4_9 H 0.1632 0.7616 0.9474
C6_9 C 0.1470(4) 0.72902(16) 0.79322(13)
H5_9 H 0.1255 0.7152 0.7784
C7_9 C 0.1160(4) 0.72936(17) 0.82290(13)
H6_9 H 0.0748 0.7157 0.8281
C8_9 C 0.1450(4) 0.74932(14) 0.84434(12)
C9_9 C 0.2027(6) 0.7699(2) 0.83528(17)
H7_9 H 0.2216 0.7854 0.849
C10_9 C 0.2322(6) 0.7672(2) 0.80548(17)
H8_7 H 0.2738 0.7804 0.7998
H11_9 H 0.0002 0.6317 0.9712
H12_9 H 0.0443 0.6826 0.9644
F2_9 F 0.1810(10) 0.6662(5) 0.9989(4)
H10_9 H 0.7985 0.6672 0.0021
C16_9 C 0.7945(4) 0.57557(14) 0.02491(15)
H13_9 H 0.7653 0.5715 0.043
C17_9 C 0.8204(4) 0.60580(14) 0.01970(16)
H14_9 H 0.8079 0.6221 0.0337
N1_10 N 0.0552(3) 0.99785(12) 0.81396(10)
C3_10 C 0.1141(3) 0.99946(13) 0.87390(12)
C4_10 C 0.1598(4) 0.9925(2) 0.84880(16)
H3_10 H 0.2128 0.9876 0.8518
C5_10 C 0.1298(4) 0.9924(2) 0.81952(15)
H4_10 H 0.1632 0.9884 0.8026
C9_10 C 0.2027(6) 0.9801(2) 0.91472(17)
H7_10 H 0.2216 0.9646 0.901
C10_10 C 0.2322(6) 0.9828(2) 0.94452(17)
H8_8 H 0.2738 0.9696 0.9502
N3_9 N 0.9515(3) 0.04577(11) 0.77021(11)
H1_9 H 0.9571 0.0086 0.8342
C11_9 C 0.8798(4) 0.05037(14) 0.75976(16)
H9_9 H 0.8485 0.0327 0.7552
C12_9 C 0.8497(4) 0.08018(13) 0.75536(16)
H10_10 H 0.7985 0.0828 0.7479
C13_9 C 0.8949(3) 0.10592(12) 0.76187(13)
C14_9 C 0.9682(4) 0.10109(13) 0.77354(16)
C15_9 C 0.9941(4) 0.07063(14) 0.77743(16)
C16_10 C 0.7945(4) 0.17443(14) 0.72509(15)
H13_10 H 0.7653 0.1785 0.707
C17_10 C 0.8204(4) 0.14420(14) 0.73030(16)
H14_10 H 0.8079 0.1279 0.7163
C18_9 C 0.8650(4) 0.13796(12) 0.75631(13)
C19_9 C 0.8812(4) 0.16249(14) 0.77566(15)
H15_9 H 0.9121 0.1594 0.7935
C20_9 C 0.8518(4) 0.19193(14) 0.76889(14)
H16_9 H 0.8631 0.2086 0.7826
S2_9 S 0.82571(10) 0.97175(4) 0.79740(4)
O4_9 O 0.8982(3) 0.96872(12) 0.78146(11)
O5_9 O 0.8238(3) 0.99795(13) 0.81866(14)
O6_9 O 0.7594(4) 0.9681(2) 0.7792(2)
C22_9 C 0.8384(10) 0.9378(5) 0.8246(4)
F4_9 F 0.9088(10) 0.9389(3) 0.8383(3)
F5_9 F 0.8360(10) 0.9109(4) 0.8092(4)
F6_9 F 0.7849(10) 0.9369(4) 0.8469(4)
N1_11 N 0.0552(3) 0.25215(12) 0.43604(10)
C1_10 C 0.0100(3) 0.24568(17) 0.41203(14)
C2_10 C 0.0357(3) 0.24492(16) 0.38199(13)
H2_10 H 0.001 0.2407 0.3656
C3_11 C 0.1141(3) 0.25054(13) 0.37610(12)
C4_11 C 0.1598(4) 0.2575(2) 0.40120(16)
H3_11 H 0.2128 0.2624 0.3982
C5_11 C 0.1298(4) 0.2576(2) 0.43048(15)
H4_11 H 0.1632 0.2616 0.4474
C6_10 C 0.1470(4) 0.22902(16) 0.29322(13)
H5_10 H 0.1255 0.2152 0.2784
C7_10 C 0.1160(4) 0.22936(17) 0.32290(13)
H6_10 H 0.0748 0.2157 0.3281
C8_10 C 0.1450(4) 0.24932(14) 0.34434(12)
C9_11 C 0.2027(6) 0.2699(2) 0.33528(17)
H7_11 H 0.2216 0.2854 0.349
C10_11 C 0.2322(6) 0.2672(2) 0.30548(17)
H8_9 H 0.2738 0.2804 0.2998
H11_10 H 0.0002 0.1317 0.4712
H12_10 H 0.0443 0.1826 0.4644
O1_9 O 0.1185(3) 0.22927(12) 0.50318(12)
S1_9 S 0.1846(3) 0.22306(14) 0.51833(13)
C21_9 C 0.1862(11) 0.1807(6) 0.5260(4)
O2_9 O 0.1862(10) 0.2379(5) 0.5480(4)
O3_7 O 0.2542(10) 0.2281(7) 0.5031(5)
F1_9 F 0.1263(10) 0.1734(5) 0.5447(4)
F2_10 F 0.1810(10) 0.1662(5) 0.4989(4)
F3_7 F 0.2557(10) 0.1775(5) 0.5405(5)
N3_10 N 0.9515(3) 0.20423(11) 0.47979(11)
H1_10 H 0.9571 0.2414 0.4158
C11_10 C 0.8798(4) 0.19963(14) 0.49024(16)
H9_10 H 0.8485 0.2173 0.4948
C12_10 C 0.8497(4) 0.16982(13) 0.49464(16)
H10_11 H 0.7985 0.1672 0.5021
C13_10 C 0.8949(3) 0.14408(12) 0.48813(13)
C14_10 C 0.9682(4) 0.14891(13) 0.47646(16)
C15_10 C 0.9941(4) 0.17937(14) 0.47257(16)
C16_11 C 0.7945(4) 0.07557(14) 0.52491(15)
H13_11 H 0.7653 0.0715 0.543
C17_11 C 0.8204(4) 0.10580(14) 0.51970(16)
H14_11 H 0.8079 0.1221 0.5337
C18_10 C 0.8650(4) 0.11204(12) 0.49369(13)
C19_10 C 0.8812(4) 0.08751(14) 0.47434(15)
H15_10 H 0.9121 0.0906 0.4565
C20_10 C 0.8518(4) 0.05807(14) 0.48111(14)
H16_10 H 0.8631 0.0414 0.4674
S2_10 S 0.82571(10) 0.27825(4) 0.45260(4)
O4_10 O 0.8982(3) 0.28128(12) 0.46854(11)
O5_10 O 0.8238(3) 0.25205(13) 0.43134(14)
O6_10 O 0.7594(4) 0.2819(2) 0.4708(2)
C22_10 C 0.8384(10) 0.3122(5) 0.4254(4)
F4_10 F 0.9088(10) 0.3111(3) 0.4117(3)
F5_10 F 0.8360(10) 0.3391(4) 0.4408(4)
F6_10 F 0.7849(10) 0.3131(4) 0.4031(4)
N1_12 N 0.0552(3) 0.49785(12) 0.31396(10)
C1_11 C 0.0100(3) 0.50432(17) 0.33797(14)
C2_11 C 0.0357(3) 0.50508(16) 0.36801(13)
H2_11 H 0.001 0.5093 0.3844
C3_12 C 0.1141(3) 0.49946(13) 0.37390(12)
C4_12 C 0.1598(4) 0.4925(2) 0.34880(16)
H3_12 H 0.2128 0.4876 0.3518
C5_12 C 0.1298(4) 0.4924(2) 0.31952(15)
H4_12 H 0.1632 0.4884 0.3026
C6_11 C 0.1470(4) 0.52098(16) 0.45678(13)
H5_11 H 0.1255 0.5348 0.4716
C7_11 C 0.1160(4) 0.52064(17) 0.42710(13)
H6_11 H 0.0748 0.5343 0.4219
C8_11 C 0.1450(4) 0.50068(14) 0.40566(12)
C9_12 C 0.2027(6) 0.4801(2) 0.41472(17)
H7_12 H 0.2216 0.4646 0.401
C10_12 C 0.2322(6) 0.4828(2) 0.44452(17)
H8_10 H 0.2738 0.4696 0.4502
H11_11 H 0.0002 0.6183 0.2788
H12_11 H 0.0443 0.5674 0.2856
O1_10 O 0.1185(3) 0.52073(12) 0.24682(12)
S1_10 S 0.1846(3) 0.52694(14) 0.23167(13)
C21_10 C 0.1862(11) 0.5693(6) 0.2240(4)
O2_10 O 0.1862(10) 0.5121(5) 0.2020(4)
O3_8 O 0.2542(10) 0.5219(7) 0.2469(5)
F1_10 F 0.1263(10) 0.5766(5) 0.2053(4)
F2_11 F 0.1810(10) 0.5838(5) 0.2511(4)
F3_8 F 0.2557(10) 0.5725(5) 0.2095(5)
N3_11 N 0.9515(3) 0.54577(11) 0.27021(11)
H1_11 H 0.9571 0.5086 0.3342
C11_11 C 0.8798(4) 0.55037(14) 0.25976(16)
H9_11 H 0.8485 0.5327 0.2552
C12_11 C 0.8497(4) 0.58018(13) 0.25536(16)
H10_12 H 0.7985 0.5828 0.2479
C13_11 C 0.8949(3) 0.60592(12) 0.26187(13)
C14_11 C 0.9682(4) 0.60109(13) 0.27354(16)
C15_11 C 0.9941(4) 0.57063(14) 0.27743(16)
C16_12 C 0.7945(4) 0.67443(14) 0.22509(15)
H13_12 H 0.7653 0.6785 0.207
C17_12 C 0.8204(4) 0.64420(14) 0.23030(16)
H14_12 H 0.8079 0.6279 0.2163
C18_11 C 0.8650(4) 0.63796(12) 0.25631(13)
C19_11 C 0.8812(4) 0.66249(14) 0.27566(15)
H15_11 H 0.9121 0.6594 0.2935
C20_11 C 0.8518(4) 0.69193(14) 0.26889(14)
H16_11 H 0.8631 0.7086 0.2826
S2_11 S 0.82571(10) 0.47175(4) 0.29740(4)
O4_11 O 0.8982(3) 0.46872(12) 0.28146(11)
O5_11 O 0.8238(3) 0.49795(13) 0.31866(14)
O6_11 O 0.7594(4) 0.4681(2) 0.2792(2)
C22_11 C 0.8384(10) 0.4378(5) 0.3246(4)
F4_11 F 0.9088(10) 0.4389(3) 0.3383(3)
F5_11 F 0.8360(10) 0.4109(4) 0.3092(4)
F6_11 F 0.7849(10) 0.4369(4) 0.3469(4)
N1_13 N 0.5552(3) 0.75215(12) 0.43604(10)
N3_12 N 0.4515(3) 0.70423(11) 0.47979(11)
C1_12 C 0.5100(3) 0.74568(17) 0.41203(14)
H1_12 H 0.4571 0.7414 0.4158
C2_12 C 0.5357(3) 0.74492(16) 0.38199(13)
H2_12 H 0.501 0.7407 0.3656
C3_13 C 0.6141(3) 0.75054(13) 0.37610(12)
C4_13 C 0.6598(4) 0.7575(2) 0.40120(16)
H3_13 H 0.7128 0.7624 0.3982
C5_13 C 0.6298(4) 0.7576(2) 0.43048(15)
H4_13 H 0.6632 0.7616 0.4474
C6_12 C 0.6470(4) 0.72902(16) 0.29322(13)
H5_12 H 0.6255 0.7152 0.2784
C7_12 C 0.6160(4) 0.72936(17) 0.32290(13)
H6_12 H 0.5748 0.7157 0.3281
C8_12 C 0.6450(4) 0.74932(14) 0.34434(12)
C9_13 C 0.7027(6) 0.7699(2) 0.33528(17)
H7_13 H 0.7216 0.7854 0.349
C10_13 C 0.7322(6) 0.7672(2) 0.30548(17)
H8_11 H 0.7738 0.7804 0.2998
C11_12 C 0.3798(4) 0.69963(14) 0.49024(16)
H9_12 H 0.3485 0.7173 0.4948
C12_12 C 0.3497(4) 0.66982(13) 0.49464(16)
H10_13 H 0.2985 0.6672 0.5021
C13_12 C 0.3949(3) 0.64408(12) 0.48813(13)
C14_12 C 0.4682(4) 0.64891(13) 0.47646(16)
H11_12 H 0.5002 0.6317 0.4712
C15_12 C 0.4941(4) 0.67937(14) 0.47257(16)
H12_12 H 0.5443 0.6826 0.4644
C16_13 C 0.2945(4) 0.57557(14) 0.52491(15)
H13_13 H 0.2653 0.5715 0.543
C17_13 C 0.3204(4) 0.60580(14) 0.51970(16)
H14_13 H 0.3079 0.6221 0.5337
C18_12 C 0.3650(4) 0.61204(12) 0.49369(13)
C19_12 C 0.3812(4) 0.58751(14) 0.47434(15)
H15_12 H 0.4121 0.5906 0.4565
C20_12 C 0.3518(4) 0.55807(14) 0.48111(14)
H16_12 H 0.3631 0.5414 0.4674
O1_11 O 0.6185(3) 0.72927(12) 0.50318(12)
S1_11 S 0.6846(3) 0.72306(14) 0.51833(13)
C21_11 C 0.6862(11) 0.6807(6) 0.5260(4)
O2_11 O 0.6862(10) 0.7379(5) 0.5480(4)
O3_9 O 0.7542(10) 0.7281(7) 0.5031(5)
F1_11 F 0.6263(10) 0.6734(5) 0.5447(4)
F2_12 F 0.6810(10) 0.6662(5) 0.4989(4)
F3_9 F 0.7557(10) 0.6775(5) 0.5405(5)
S2_12 S 0.32571(10) 0.77825(4) 0.45260(4)
O4_12 O 0.3982(3) 0.78128(12) 0.46854(11)
O5_12 O 0.3238(3) 0.75205(13) 0.43134(14)
O6_12 O 0.2594(4) 0.7819(2) 0.4708(2)
C22_12 C 0.3384(10) 0.8122(5) 0.4254(4)
F4_12 F 0.4088(10) 0.8111(3) 0.4117(3)
F5_12 F 0.3360(10) 0.8391(4) 0.4408(4)
F6_12 F 0.2849(10) 0.8131(4) 0.4031(4)
N3_13 N 0.4515(3) 0.04577(11) 0.27021(11)
C1_13 C 0.5100(3) 0.00432(17) 0.33797(14)
H1_13 H 0.4571 0.0086 0.3342
C2_13 C 0.5357(3) 0.00508(16) 0.36801(13)
H2_13 H 0.501 0.0093 0.3844
C6_13 C 0.6470(4) 0.02098(16) 0.45678(13)
H5_13 H 0.6255 0.0348 0.4716
C7_13 C 0.6160(4) 0.02064(17) 0.42710(13)
H6_13 H 0.5748 0.0343 0.4219
C8_13 C 0.6450(4) 0.00068(14) 0.40566(12)
C11_13 C 0.3798(4) 0.05037(14) 0.25976(16)
H9_13 H 0.3485 0.0327 0.2552
C12_13 C 0.3497(4) 0.08018(13) 0.25536(16)
H10_14 H 0.2985 0.0828 0.2479
C13_13 C 0.3949(3) 0.10592(12) 0.26187(13)
C14_13 C 0.4682(4) 0.10109(13) 0.27354(16)
H11_13 H 0.5002 0.1183 0.2788
C15_13 C 0.4941(4) 0.07063(14) 0.27743(16)
H12_13 H 0.5443 0.0674 0.2856
C16_14 C 0.2945(4) 0.17443(14) 0.22509(15)
H13_14 H 0.2653 0.1785 0.207
C17_14 C 0.3204(4) 0.14420(14) 0.23030(16)
H14_14 H 0.3079 0.1279 0.2163
C18_13 C 0.3650(4) 0.13796(12) 0.25631(13)
C19_13 C 0.3812(4) 0.16249(14) 0.27566(15)
H15_13 H 0.4121 0.1594 0.2935
C20_13 C 0.3518(4) 0.19193(14) 0.26889(14)
H16_13 H 0.3631 0.2086 0.2826
O1_12 O 0.6185(3) 0.02073(12) 0.24682(12)
S1_12 S 0.6846(3) 0.02694(14) 0.23167(13)
C21_12 C 0.6862(11) 0.0693(6) 0.2240(4)
O2_12 O 0.6862(10) 0.0121(5) 0.2020(4)
O3_10 O 0.7542(10) 0.0219(7) 0.2469(5)
F1_12 F 0.6263(10) 0.0766(5) 0.2053(4)
F2_13 F 0.6810(10) 0.0838(5) 0.2511(4)
F3_10 F 0.7557(10) 0.0725(5) 0.2095(5)
N1_14 N 0.5552(3) 0.99785(12) 0.31396(10)
C3_14 C 0.6141(3) 0.99946(13) 0.37390(12)
C4_14 C 0.6598(4) 0.9925(2) 0.34880(16)
H3_14 H 0.7128 0.9876 0.3518
C5_14 C 0.6298(4) 0.9924(2) 0.31952(15)
H4_14 H 0.6632 0.9884 0.3026
C9_14 C 0.7027(6) 0.9801(2) 0.41472(17)
H7_14 H 0.7216 0.9646 0.401
C10_14 C 0.7322(6) 0.9828(2) 0.44452(17)
H8_12 H 0.7738 0.9696 0.4502
S2_13 S 0.32571(10) 0.97175(4) 0.29740(4)
O4_13 O 0.3982(3) 0.96872(12) 0.28146(11)
O5_13 O 0.3238(3) 0.99795(13) 0.31866(14)
O6_13 O 0.2594(4) 0.9681(2) 0.2792(2)
C22_13 C 0.3384(10) 0.9378(5) 0.3246(4)
F4_13 F 0.4088(10) 0.9389(3) 0.3383(3)
F5_13 F 0.3360(10) 0.9109(4) 0.3092(4)
F6_13 F 0.2849(10) 0.9369(4) 0.3469(4)
H10_15 H 0.2985 0.1672 0.0021
C16_15 C 0.2945(4) 0.07557(14) 0.02491(15)
H13_15 H 0.2653 0.0715 0.043
C17_15 C 0.3204(4) 0.10580(14) 0.01970(16)
H14_15 H 0.3079 0.1221 0.0337
O1_13 O 0.6185(3) 0.22927(12) 0.00318(12)
S1_13 S 0.6846(3) 0.22306(14) 0.01833(13)
C21_13 C 0.6862(11) 0.1807(6) 0.0260(4)
O2_13 O 0.6862(10) 0.2379(5) 0.0480(4)
O3_11 O 0.7542(10) 0.2281(7) 0.0031(5)
F1_13 F 0.6263(10) 0.1734(5) 0.0447(4)
F3_11 F 0.7557(10) 0.1775(5) 0.0405(5)
N1_15 N 0.5552(3) 0.25215(12) 0.93604(10)
N3_14 N 0.4515(3) 0.20423(11) 0.97979(11)
C1_14 C 0.5100(3) 0.24568(17) 0.91203(14)
H1_14 H 0.4571 0.2414 0.9158
C2_14 C 0.5357(3) 0.24492(16) 0.88199(13)
H2_14 H 0.501 0.2407 0.8656
C3_15 C 0.6141(3) 0.25054(13) 0.87610(12)
C4_15 C 0.6598(4) 0.2575(2) 0.90120(16)
H3_15 H 0.7128 0.2624 0.8982
C5_15 C 0.6298(4) 0.2576(2) 0.93048(15)
H4_15 H 0.6632 0.2616 0.9474
C6_14 C 0.6470(4) 0.22902(16) 0.79322(13)
H5_14 H 0.6255 0.2152 0.7784
C7_14 C 0.6160(4) 0.22936(17) 0.82290(13)
H6_14 H 0.5748 0.2157 0.8281
C8_14 C 0.6450(4) 0.24932(14) 0.84434(12)
C9_15 C 0.7027(6) 0.2699(2) 0.83528(17)
H7_15 H 0.7216 0.2854 0.849
C10_15 C 0.7322(6) 0.2672(2) 0.80548(17)
H8_13 H 0.7738 0.2804 0.7998
C11_14 C 0.3798(4) 0.19963(14) 0.99024(16)
H9_14 H 0.3485 0.2173 0.9948
C12_14 C 0.3497(4) 0.16982(13) 0.99464(16)
C13_14 C 0.3949(3) 0.14408(12) 0.98813(13)
C14_14 C 0.4682(4) 0.14891(13) 0.97646(16)
H11_14 H 0.5002 0.1317 0.9712
C15_14 C 0.4941(4) 0.17937(14) 0.97257(16)
H12_14 H 0.5443 0.1826 0.9644
C18_14 C 0.3650(4) 0.11204(12) 0.99369(13)
C19_14 C 0.3812(4) 0.08751(14) 0.97434(15)
H15_14 H 0.4121 0.0906 0.9565
C20_14 C 0.3518(4) 0.05807(14) 0.98111(14)
H16_14 H 0.3631 0.0414 0.9674
F2_14 F 0.6810(10) 0.1662(5) 0.9989(4)
S2_14 S 0.32571(10) 0.27825(4) 0.95260(4)
O4_14 O 0.3982(3) 0.28128(12) 0.96854(11)
O5_14 O 0.3238(3) 0.25205(13) 0.93134(14)
O6_14 O 0.2594(4) 0.2819(2) 0.9708(2)
C22_14 C 0.3384(10) 0.3122(5) 0.9254(4)
F4_14 F 0.4088(10) 0.3111(3) 0.9117(3)
F5_14 F 0.3360(10) 0.3391(4) 0.9408(4)
F6_14 F 0.2849(10) 0.3131(4) 0.9031(4)
N1_16 N 0.5552(3) 0.49785(12) 0.81396(10)
N3_15 N 0.4515(3) 0.54577(11) 0.77021(11)
C1_15 C 0.5100(3) 0.50432(17) 0.83797(14)
H1_15 H 0.4571 0.5086 0.8342
C2_15 C 0.5357(3) 0.50508(16) 0.86801(13)
H2_15 H 0.501 0.5093 0.8844
C3_16 C 0.6141(3) 0.49946(13) 0.87390(12)
C4_16 C 0.6598(4) 0.4925(2) 0.84880(16)
H3_16 H 0.7128 0.4876 0.8518
C5_16 C 0.6298(4) 0.4924(2) 0.81952(15)
H4_16 H 0.6632 0.4884 0.8026
C6_15 C 0.6470(4) 0.52098(16) 0.95678(13)
H5_15 H 0.6255 0.5348 0.9716
C7_15 C 0.6160(4) 0.52064(17) 0.92710(13)
H6_15 H 0.5748 0.5343 0.9219
C8_15 C 0.6450(4) 0.50068(14) 0.90566(12)
C9_16 C 0.7027(6) 0.4801(2) 0.91472(17)
H7_16 H 0.7216 0.4646 0.901
C10_16 C 0.7322(6) 0.4828(2) 0.94452(17)
H8_14 H 0.7738 0.4696 0.9502
C11_15 C 0.3798(4) 0.55037(14) 0.75976(16)
H9_15 H 0.3485 0.5327 0.7552
C12_15 C 0.3497(4) 0.58018(13) 0.75536(16)
H10_16 H 0.2985 0.5828 0.7479
C13_15 C 0.3949(3) 0.60592(12) 0.76187(13)
C14_15 C 0.4682(4) 0.60109(13) 0.77354(16)
H11_15 H 0.5002 0.6183 0.7788
C15_15 C 0.4941(4) 0.57063(14) 0.77743(16)
H12_15 H 0.5443 0.5674 0.7856
C16_16 C 0.2945(4) 0.67443(14) 0.72509(15)
H13_16 H 0.2653 0.6785 0.707
C17_16 C 0.3204(4) 0.64420(14) 0.73030(16)
H14_16 H 0.3079 0.6279 0.7163
C18_15 C 0.3650(4) 0.63796(12) 0.75631(13)
C19_15 C 0.3812(4) 0.66249(14) 0.77566(15)
H15_15 H 0.4121 0.6594 0.7935
C20_15 C 0.3518(4) 0.69193(14) 0.76889(14)
H16_15 H 0.3631 0.7086 0.7826
O1_14 O 0.6185(3) 0.52073(12) 0.74682(12)
S1_14 S 0.6846(3) 0.52694(14) 0.73167(13)
C21_14 C 0.6862(11) 0.5693(6) 0.7240(4)
O2_14 O 0.6862(10) 0.5121(5) 0.7020(4)
O3_12 O 0.7542(10) 0.5219(7) 0.7469(5)
F1_14 F 0.6263(10) 0.5766(5) 0.7053(4)
F2_15 F 0.6810(10) 0.5838(5) 0.7511(4)
F3_12 F 0.7557(10) 0.5725(5) 0.7095(5)
S2_15 S 0.32571(10) 0.47175(4) 0.79740(4)
O4_15 O 0.3982(3) 0.46872(12) 0.78146(11)
O5_15 O 0.3238(3) 0.49795(13) 0.81866(14)
O6_15 O 0.2594(4) 0.4681(2) 0.7792(2)
C22_15 C 0.3384(10) 0.4378(5) 0.8246(4)
F4_15 F 0.4088(10) 0.4389(3) 0.8383(3)
F5_15 F 0.3360(10) 0.4109(4) 0.8092(4)
F6_15 F 0.2849(10) 0.4369(4) 0.8469(4)
N5_8 N 0.2055(3) 0.00261(11) 0.96516(11)
C1_16 C 0.0100(3) 0.00432(17) 0.83797(14)
C2_16 C 0.0357(3) 0.00508(16) 0.86801(13)
H2_16 H 0.001 0.0093 0.8844
C6_16 C 0.1470(4) 0.02098(16) 0.95678(13)
H5_16 H 0.1255 0.0348 0.9716
C7_16 C 0.1160(4) 0.02064(17) 0.92710(13)
H6_16 H 0.0748 0.0343 0.9219
C8_16 C 0.1450(4) 0.00068(14) 0.90566(12)
H11_16 H 0.0002 0.1183 0.7788
H12_16 H 0.0443 0.0674 0.7856
O1_15 O 0.1185(3) 0.02073(12) 0.74682(12)
S1_15 S 0.1846(3) 0.02694(14) 0.73167(13)
C21_15 C 0.1862(11) 0.0693(6) 0.7240(4)
O2_15 O 0.1862(10) 0.0121(5) 0.7020(4)
O3_13 O 0.2542(10) 0.0219(7) 0.7469(5)
F1_15 F 0.1263(10) 0.0766(5) 0.7053(4)
F2_16 F 0.1810(10) 0.0838(5) 0.7511(4)
F3_13 F 0.2557(10) 0.0725(5) 0.7095(5)
N3_16 N 0.0485(3) 0.29577(11) 0.02021(11)
H1_16 H 0.0429 0.2586 0.0842
C11_16 C 0.1202(4) 0.30037(14) 0.00976(16)
H9_16 H 0.1515 0.2827 0.0052
C12_16 C 0.1503(4) 0.33018(13) 0.00536(16)
C13_16 C 0.1051(3) 0.35592(12) 0.01187(13)
C14_16 C 0.0318(4) 0.35109(13) 0.02354(16)
C15_16 C 0.0059(4) 0.32063(14) 0.02743(16)
C18_16 C 0.1350(4) 0.38796(12) 0.00631(13)
C19_16 C 0.1188(4) 0.41249(14) 0.02566(15)
H15_16 H 0.0879 0.4094 0.0435
C20_16 C 0.1482(4) 0.44193(14) 0.01889(14)
H16_16 H 0.1369 0.4586 0.0326
S2_16 S 0.17429(10) 0.22175(4) 0.04740(4)
O4_16 O 0.1018(3) 0.21872(12) 0.03146(11)
O5_16 O 0.1762(3) 0.24795(13) 0.06866(14)
O6_16 O 0.2406(4) 0.2181(2) 0.0292(2)
C22_16 C 0.1616(10) 0.1878(5) 0.0746(4)
F4_16 F 0.0912(10) 0.1889(3) 0.0883(3)
F5_16 F 0.1640(10) 0.1609(4) 0.0592(4)
F6_16 F 0.2151(10) 0.1869(4) 0.0969(4)
N4_9 N 0.1910(3) 0.44800(10) 0.99439(11)
H10_17 H 0.2015 0.3328 0.9979
C16_17 C 0.2055(4) 0.42443(14) 0.97509(15)
H13_17 H 0.2347 0.4285 0.957
C17_17 C 0.1796(4) 0.39420(14) 0.98030(16)
H14_17 H 0.1921 0.3779 0.9663
Cd2_5 Cd 0.24414(2) 0.49669(2) 0.98520(2)
N5_9 N 0.0445(3) 0.24739(11) 0.96516(11)
Cd1_9 Cd 0.99414(2) 0.24669(2) 0.01480(2)
N1_17 N 0.9448(3) 0.24785(12) 0.06396(10)
N2_9 N 0.7945(3) 0.25261(11) 0.21516(11)
C1_17 C 0.9900(3) 0.25432(17) 0.08797(14)
C2_17 C 0.9643(3) 0.25508(16) 0.11801(13)
H2_17 H 0.999 0.2593 0.1344
C3_17 C 0.8859(3) 0.24946(13) 0.12390(12)
C4_17 C 0.8402(4) 0.2425(2) 0.09880(16)
H3_17 H 0.7872 0.2376 0.1018
C5_17 C 0.8702(4) 0.2424(2) 0.06952(15)
H4_17 H 0.8368 0.2384 0.0526
C6_17 C 0.8530(4) 0.27098(16) 0.20678(13)
H5_17 H 0.8745 0.2848 0.2216
C7_17 C 0.8840(4) 0.27064(17) 0.17710(13)
H6_17 H 0.9252 0.2843 0.1719
C8_17 C 0.8550(4) 0.25068(14) 0.15566(12)
C9_17 C 0.7973(6) 0.2301(2) 0.16472(17)
H7_17 H 0.7784 0.2146 0.151
C10_17 C 0.7678(6) 0.2328(2) 0.19452(17)
H8_15 H 0.7262 0.2196 0.2002
H11_17 H 0.9998 0.3683 0.0288
H12_17 H 0.9557 0.3174 0.0356
F2_17 F 0.8190(10) 0.3338(5) 0.0011(4)
Cd3_5 Cd 0.74414(2) 0.25331(2) 0.26480(2)
N6_9 N 0.9410(3) 0.19800(10) 0.00561(11)
S2_17 S 0.17429(10) 0.02825(4) 0.20260(4)
O4_17 O 0.1018(3) 0.03128(12) 0.21854(11)
O5_17 O 0.1762(3) 0.00205(13) 0.18134(14)
O6_17 O 0.2406(4) 0.0319(2) 0.2208(2)
C22_17 C 0.1616(10) 0.0622(5) 0.1754(4)
F4_17 F 0.0912(10) 0.0611(3) 0.1617(3)
F5_17 F 0.1640(10) 0.0891(4) 0.1908(4)
F6_17 F 0.2151(10) 0.0631(4) 0.1531(4)
N5_10 N 0.0445(3) 0.00261(11) 0.28484(11)
N3_17 N 0.0485(3) 0.95423(11) 0.22979(11)
N4_10 N 0.1910(3) 0.80200(10) 0.25561(11)
H1_17 H 0.0429 0.9914 0.1658
C11_17 C 0.1202(4) 0.94963(14) 0.24024(16)
H9_17 H 0.1515 0.9673 0.2448
C12_17 C 0.1503(4) 0.91982(13) 0.24464(16)
H10_18 H 0.2015 0.9172 0.2521
C13_17 C 0.1051(3) 0.89408(12) 0.23813(13)
C14_17 C 0.0318(4) 0.89891(13) 0.22646(16)
C15_17 C 0.0059(4) 0.92937(14) 0.22257(16)
C16_18 C 0.2055(4) 0.82557(14) 0.27491(15)
H13_18 H 0.2347 0.8215 0.293
C17_18 C 0.1796(4) 0.85580(14) 0.26970(16)
H14_18 H 0.1921 0.8721 0.2837
C18_17 C 0.1350(4) 0.86204(12) 0.24369(13)
C19_17 C 0.1188(4) 0.83751(14) 0.22434(15)
H15_17 H 0.0879 0.8406 0.2065
C20_17 C 0.1482(4) 0.80807(14) 0.23111(14)
H16_17 H 0.1369 0.7914 0.2174
Cd2_6 Cd 0.24414(2) 0.75331(2) 0.26480(2)
Cd1_10 Cd 0.99414(2) 0.00331(2) 0.23520(2)
N1_18 N 0.9448(3) 0.00215(12) 0.18604(10)
C3_18 C 0.8859(3) 0.00054(13) 0.12610(12)
C4_18 C 0.8402(4) 0.0075(2) 0.15120(16)
H3_18 H 0.7872 0.0124 0.1482
C5_18 C 0.8702(4) 0.0076(2) 0.18048(15)
H4_18 H 0.8368 0.0116 0.1974
C9_18 C 0.7973(6) 0.0199(2) 0.08528(17)
H7_18 H 0.7784 0.0354 0.099
C10_18 C 0.7678(6) 0.0172(2) 0.05548(17)
H8_16 H 0.7262 0.0304 0.0498
N6_10 N 0.9410(3) 0.05200(10) 0.24439(11)
Cd3_6 Cd 0.74414(2) 0.99669(2) 0.98520(2)
N3_18 N 0.0485(3) 0.79577(11) 0.52021(11)
N4_11 N 0.1910(3) 0.94800(10) 0.49439(11)
H1_18 H 0.0429 0.7586 0.5842
C11_18 C 0.1202(4) 0.80037(14) 0.50976(16)
H9_18 H 0.1515 0.7827 0.5052
C12_18 C 0.1503(4) 0.83018(13) 0.50536(16)
H10_19 H 0.2015 0.8328 0.4979
C13_18 C 0.1051(3) 0.85592(12) 0.51187(13)
C14_18 C 0.0318(4) 0.85109(13) 0.52354(16)
C15_18 C 0.0059(4) 0.82063(14) 0.52743(16)
C16_19 C 0.2055(4) 0.92443(14) 0.47509(15)
H13_19 H 0.2347 0.9285 0.457
C17_19 C 0.1796(4) 0.89420(14) 0.48030(16)
H14_19 H 0.1921 0.8779 0.4663
C18_18 C 0.1350(4) 0.88796(12) 0.50631(13)
C19_18 C 0.1188(4) 0.91249(14) 0.52566(15)
H15_18 H 0.0879 0.9094 0.5435
C20_18 C 0.1482(4) 0.94193(14) 0.51889(14)
H16_18 H 0.1369 0.9586 0.5326
S2_18 S 0.17429(10) 0.72175(4) 0.54740(4)
O4_18 O 0.1018(3) 0.71872(12) 0.53146(11)
O5_18 O 0.1762(3) 0.74795(13) 0.56866(14)
O6_18 O 0.2406(4) 0.7181(2) 0.5292(2)
C22_18 C 0.1616(10) 0.6878(5) 0.5746(4)
F4_18 F 0.0912(10) 0.6889(3) 0.5883(3)
F5_18 F 0.1640(10) 0.6609(4) 0.5592(4)
F6_18 F 0.2151(10) 0.6869(4) 0.5969(4)
Cd2_7 Cd 0.24414(2) 0.99669(2) 0.48520(2)
N5_11 N 0.0445(3) 0.74739(11) 0.46516(11)
Cd1_11 Cd 0.99414(2) 0.74669(2) 0.51480(2)
N1_19 N 0.9448(3) 0.74785(12) 0.56396(10)
N2_10 N 0.7945(3) 0.75261(11) 0.71516(11)
C1_18 C 0.9900(3) 0.75432(17) 0.58797(14)
C2_18 C 0.9643(3) 0.75508(16) 0.61801(13)
H2_18 H 0.999 0.7593 0.6344
C3_19 C 0.8859(3) 0.74946(13) 0.62390(12)
C4_19 C 0.8402(4) 0.7425(2) 0.59880(16)
H3_19 H 0.7872 0.7376 0.6018
C5_19 C 0.8702(4) 0.7424(2) 0.56952(15)
H4_19 H 0.8368 0.7384 0.5526
C6_18 C 0.8530(4) 0.77098(16) 0.70678(13)
H5_18 H 0.8745 0.7848 0.7216
C7_18 C 0.8840(4) 0.77064(17) 0.67710(13)
H6_18 H 0.9252 0.7843 0.6719
C8_18 C 0.8550(4) 0.75068(14) 0.65566(12)
C9_19 C 0.7973(6) 0.7301(2) 0.66472(17)
H7_19 H 0.7784 0.7146 0.651
C10_19 C 0.7678(6) 0.7328(2) 0.69452(17)
H8_17 H 0.7262 0.7196 0.7002
H11_18 H 0.9998 0.8683 0.5288
H12_18 H 0.9557 0.8174 0.5356
O1_16 O 0.8815(3) 0.77073(12) 0.49682(12)
S1_16 S 0.8154(3) 0.77694(14) 0.48167(13)
C21_16 C 0.8138(11) 0.8193(6) 0.4740(4)
O2_16 O 0.8138(10) 0.7621(5) 0.4520(4)
O3_14 O 0.7458(10) 0.7719(7) 0.4969(5)
F1_16 F 0.8737(10) 0.8266(5) 0.4553(4)
F2_18 F 0.8190(10) 0.8338(5) 0.5011(4)
F3_14 F 0.7443(10) 0.8225(5) 0.4595(5)
Cd3_7 Cd 0.74414(2) 0.75331(2) 0.76480(2)
N6_11 N 0.9410(3) 0.69800(10) 0.50561(11)
N3_19 N 0.0485(3) 0.45423(11) 0.72979(11)
N4_12 N 0.1910(3) 0.30200(10) 0.75561(11)
H1_19 H 0.0429 0.4914 0.6658
C11_19 C 0.1202(4) 0.44963(14) 0.74024(16)
H9_19 H 0.1515 0.4673 0.7448
C12_19 C 0.1503(4) 0.41982(13) 0.74464(16)
H10_20 H 0.2015 0.4172 0.7521
C13_19 C 0.1051(3) 0.39408(12) 0.73813(13)
C14_19 C 0.0318(4) 0.39891(13) 0.72646(16)
C15_19 C 0.0059(4) 0.42937(14) 0.72257(16)
C16_20 C 0.2055(4) 0.32557(14) 0.77491(15)
H13_20 H 0.2347 0.3215 0.793
C17_20 C 0.1796(4) 0.35580(14) 0.76970(16)
H14_20 H 0.1921 0.3721 0.7837
C18_19 C 0.1350(4) 0.36204(12) 0.74369(13)
C19_19 C 0.1188(4) 0.33751(14) 0.72434(15)
H15_19 H 0.0879 0.3406 0.7065
C20_19 C 0.1482(4) 0.30807(14) 0.73111(14)
H16_19 H 0.1369 0.2914 0.7174
S2_19 S 0.17429(10) 0.52825(4) 0.70260(4)
O4_19 O 0.1018(3) 0.53128(12) 0.71854(11)
O5_19 O 0.1762(3) 0.50205(13) 0.68134(14)
O6_19 O 0.2406(4) 0.5319(2) 0.7208(2)
C22_19 C 0.1616(10) 0.5622(5) 0.6754(4)
F4_19 F 0.0912(10) 0.5611(3) 0.6617(3)
F5_19 F 0.1640(10) 0.5891(4) 0.6908(4)
F6_19 F 0.2151(10) 0.5631(4) 0.6531(4)
Cd2_8 Cd 0.24414(2) 0.25331(2) 0.76480(2)
N5_12 N 0.0445(3) 0.50261(11) 0.78484(11)
Cd1_12 Cd 0.99414(2) 0.50331(2) 0.73520(2)
N1_20 N 0.9448(3) 0.50215(12) 0.68604(10)
N2_11 N 0.7945(3) 0.49739(11) 0.53484(11)
C1_19 C 0.9900(3) 0.49568(17) 0.66203(14)
C2_19 C 0.9643(3) 0.49492(16) 0.63199(13)
H2_19 H 0.999 0.4907 0.6156
C3_20 C 0.8859(3) 0.50054(13) 0.62610(12)
C4_20 C 0.8402(4) 0.5075(2) 0.65120(16)
H3_20 H 0.7872 0.5124 0.6482
C5_20 C 0.8702(4) 0.5076(2) 0.68048(15)
H4_20 H 0.8368 0.5116 0.6974
C6_19 C 0.8530(4) 0.47902(16) 0.54322(13)
H5_19 H 0.8745 0.4652 0.5284
C7_19 C 0.8840(4) 0.47936(17) 0.57290(13)
H6_19 H 0.9252 0.4657 0.5781
C8_19 C 0.8550(4) 0.49932(14) 0.59434(12)
C9_20 C 0.7973(6) 0.5199(2) 0.58528(17)
H7_20 H 0.7784 0.5354 0.599
C10_20 C 0.7678(6) 0.5172(2) 0.55548(17)
H8_18 H 0.7262 0.5304 0.5498
H11_19 H 0.9998 0.3817 0.7212
H12_19 H 0.9557 0.4326 0.7144
O1_17 O 0.8815(3) 0.47927(12) 0.75318(12)
S1_17 S 0.8154(3) 0.47306(14) 0.76833(13)
C21_17 C 0.8138(11) 0.4307(6) 0.7760(4)
O2_17 O 0.8138(10) 0.4879(5) 0.7980(4)
O3_15 O 0.7458(10) 0.4781(7) 0.7531(5)
F1_17 F 0.8737(10) 0.4234(5) 0.7947(4)
F2_19 F 0.8190(10) 0.4162(5) 0.7489(4)
F3_15 F 0.7443(10) 0.4275(5) 0.7905(5)
Cd3_8 Cd 0.74414(2) 0.49669(2) 0.48520(2)
N6_12 N 0.9410(3) 0.55200(10) 0.74439(11)
Cd1_13 Cd 0.49414(2) 0.24669(2) 0.51480(2)
N1_21 N 0.4448(3) 0.24785(12) 0.56396(10)
N2_12 N 0.2945(3) 0.25261(11) 0.71516(11)
N3_20 N 0.5485(3) 0.29577(11) 0.52021(11)
N4_13 N 0.6910(3) 0.44800(10) 0.49439(11)
C1_20 C 0.4900(3) 0.25432(17) 0.58797(14)
H1_20 H 0.5429 0.2586 0.5842
C2_20 C 0.4643(3) 0.25508(16) 0.61801(13)
H2_20 H 0.499 0.2593 0.6344
C3_21 C 0.3859(3) 0.24946(13) 0.62390(12)
C4_21 C 0.3402(4) 0.2425(2) 0.59880(16)
H3_21 H 0.2872 0.2376 0.6018
C5_21 C 0.3702(4) 0.2424(2) 0.56952(15)
H4_21 H 0.3368 0.2384 0.5526
C6_20 C 0.3530(4) 0.27098(16) 0.70678(13)
H5_20 H 0.3745 0.2848 0.7216
C7_20 C 0.3840(4) 0.27064(17) 0.67710(13)
H6_20 H 0.4252 0.2843 0.6719
C8_20 C 0.3550(4) 0.25068(14) 0.65566(12)
C9_21 C 0.2973(6) 0.2301(2) 0.66472(17)
H7_21 H 0.2784 0.2146 0.651
C10_21 C 0.2678(6) 0.2328(2) 0.69452(17)
H8_19 H 0.2262 0.2196 0.7002
C11_20 C 0.6202(4) 0.30037(14) 0.50976(16)
H9_20 H 0.6515 0.2827 0.5052
C12_20 C 0.6503(4) 0.33018(13) 0.50536(16)
H10_21 H 0.7015 0.3328 0.4979
C13_20 C 0.6051(3) 0.35592(12) 0.51187(13)
C14_20 C 0.5318(4) 0.35109(13) 0.52354(16)
H11_20 H 0.4998 0.3683 0.5288
C15_20 C 0.5059(4) 0.32063(14) 0.52743(16)
H12_20 H 0.4557 0.3174 0.5356
C16_21 C 0.7055(4) 0.42443(14) 0.47509(15)
H13_21 H 0.7347 0.4285 0.457
C17_21 C 0.6796(4) 0.39420(14) 0.48030(16)
H14_21 H 0.6921 0.3779 0.4663
C18_20 C 0.6350(4) 0.38796(12) 0.50631(13)
C19_20 C 0.6188(4) 0.41249(14) 0.52566(15)
H15_20 H 0.5879 0.4094 0.5435
C20_20 C 0.6482(4) 0.44193(14) 0.51889(14)
H16_20 H 0.6369 0.4586 0.5326
O1_18 O 0.3815(3) 0.27073(12) 0.49682(12)
S1_18 S 0.3154(3) 0.27694(14) 0.48167(13)
C21_18 C 0.3138(11) 0.3193(6) 0.4740(4)
O2_18 O 0.3138(10) 0.2621(5) 0.4520(4)
O3_16 O 0.2458(10) 0.2719(7) 0.4969(5)
F1_18 F 0.3737(10) 0.3266(5) 0.4553(4)
F2_20 F 0.3190(10) 0.3338(5) 0.5011(4)
F3_16 F 0.2443(10) 0.3225(5) 0.4595(5)
S2_20 S 0.67429(10) 0.22175(4) 0.54740(4)
O4_20 O 0.6018(3) 0.21872(12) 0.53146(11)
O5_20 O 0.6762(3) 0.24795(13) 0.56866(14)
O6_20 O 0.7406(4) 0.2181(2) 0.5292(2)
C22_20 C 0.6616(10) 0.1878(5) 0.5746(4)
F4_20 F 0.5912(10) 0.1889(3) 0.5883(3)
F5_20 F 0.6640(10) 0.1609(4) 0.5592(4)
F6_20 F 0.7151(10) 0.1869(4) 0.5969(4)
N5_13 N 0.5445(3) 0.24739(11) 0.46516(11)
N6_13 N 0.4410(3) 0.19800(10) 0.50561(11)
Cd1_14 Cd 0.49414(2) 0.00331(2) 0.73520(2)
N1_22 N 0.4448(3) 0.00215(12) 0.68604(10)
C3_22 C 0.3859(3) 0.00054(13) 0.62610(12)
C4_22 C 0.3402(4) 0.0075(2) 0.65120(16)
H3_22 H 0.2872 0.0124 0.6482
C5_22 C 0.3702(4) 0.0076(2) 0.68048(15)
H4_22 H 0.3368 0.0116 0.6974
C9_22 C 0.2973(6) 0.0199(2) 0.58528(17)
H7_22 H 0.2784 0.0354 0.599
C10_22 C 0.2678(6) 0.0172(2) 0.55548(17)
H8_20 H 0.2262 0.0304 0.5498
S2_21 S 0.67429(10) 0.02825(4) 0.70260(4)
O4_21 O 0.6018(3) 0.03128(12) 0.71854(11)
O5_21 O 0.6762(3) 0.00205(13) 0.68134(14)
O6_21 O 0.7406(4) 0.0319(2) 0.7208(2)
C22_21 C 0.6616(10) 0.0622(5) 0.6754(4)
F4_21 F 0.5912(10) 0.0611(3) 0.6617(3)
F5_21 F 0.6640(10) 0.0891(4) 0.6908(4)
F6_21 F 0.7151(10) 0.0631(4) 0.6531(4)
N5_14 N 0.5445(3) 0.00261(11) 0.78484(11)
N6_14 N 0.4410(3) 0.05200(10) 0.74439(11)
N2_13 N 0.2945(3) 0.99739(11) 0.53484(11)
N3_21 N 0.5485(3) 0.95423(11) 0.72979(11)
N4_14 N 0.6910(3) 0.80200(10) 0.75561(11)
C1_21 C 0.4900(3) 0.99568(17) 0.66203(14)
H1_21 H 0.5429 0.9914 0.6658
C2_21 C 0.4643(3) 0.99492(16) 0.63199(13)
H2_21 H 0.499 0.9907 0.6156
C6_21 C 0.3530(4) 0.97902(16) 0.54322(13)
H5_21 H 0.3745 0.9652 0.5284
C7_21 C 0.3840(4) 0.97936(17) 0.57290(13)
H6_21 H 0.4252 0.9657 0.5781
C8_21 C 0.3550(4) 0.99932(14) 0.59434(12)
C11_21 C 0.6202(4) 0.94963(14) 0.74024(16)
H9_21 H 0.6515 0.9673 0.7448
C12_21 C 0.6503(4) 0.91982(13) 0.74464(16)
H10_22 H 0.7015 0.9172 0.7521
C13_21 C 0.6051(3) 0.89408(12) 0.73813(13)
C14_21 C 0.5318(4) 0.89891(13) 0.72646(16)
H11_21 H 0.4998 0.8817 0.7212
C15_21 C 0.5059(4) 0.92937(14) 0.72257(16)
H12_21 H 0.4557 0.9326 0.7144
C16_22 C 0.7055(4) 0.82557(14) 0.77491(15)
H13_22 H 0.7347 0.8215 0.793
C17_22 C 0.6796(4) 0.85580(14) 0.76970(16)
H14_22 H 0.6921 0.8721 0.7837
C18_21 C 0.6350(4) 0.86204(12) 0.74369(13)
C19_21 C 0.6188(4) 0.83751(14) 0.72434(15)
H15_21 H 0.5879 0.8406 0.7065
C20_21 C 0.6482(4) 0.80807(14) 0.73111(14)
H16_21 H 0.6369 0.7914 0.7174
O1_19 O 0.3815(3) 0.97927(12) 0.75318(12)
S1_19 S 0.3154(3) 0.97306(14) 0.76833(13)
C21_19 C 0.3138(11) 0.9307(6) 0.7760(4)
O2_19 O 0.3138(10) 0.9879(5) 0.7980(4)
O3_17 O 0.2458(10) 0.9781(7) 0.7531(5)
F1_19 F 0.3737(10) 0.9234(5) 0.7947(4)
F2_21 F 0.3190(10) 0.9162(5) 0.7489(4)
F3_17 F 0.2443(10) 0.9275(5) 0.7905(5)
Cd1_15 Cd 0.49414(2) 0.74669(2) 0.01480(2)
N1_23 N 0.4448(3) 0.74785(12) 0.06396(10)
N2_14 N 0.2945(3) 0.75261(11) 0.21516(11)
N3_22 N 0.5485(3) 0.79577(11) 0.02021(11)
C1_22 C 0.4900(3) 0.75432(17) 0.08797(14)
H1_22 H 0.5429 0.7586 0.0842
C2_22 C 0.4643(3) 0.75508(16) 0.11801(13)
H2_22 H 0.499 0.7593 0.1344
C3_23 C 0.3859(3) 0.74946(13) 0.12390(12)
C4_23 C 0.3402(4) 0.7425(2) 0.09880(16)
H3_23 H 0.2872 0.7376 0.1018
C5_23 C 0.3702(4) 0.7424(2) 0.06952(15)
H4_23 H 0.3368 0.7384 0.0526
C6_22 C 0.3530(4) 0.77098(16) 0.20678(13)
H5_22 H 0.3745 0.7848 0.2216
C7_22 C 0.3840(4) 0.77064(17) 0.17710(13)
H6_22 H 0.4252 0.7843 0.1719
C8_22 C 0.3550(4) 0.75068(14) 0.15566(12)
C9_23 C 0.2973(6) 0.7301(2) 0.16472(17)
H7_23 H 0.2784 0.7146 0.151
C10_23 C 0.2678(6) 0.7328(2) 0.19452(17)
H8_21 H 0.2262 0.7196 0.2002
C11_22 C 0.6202(4) 0.80037(14) 0.00976(16)
H9_22 H 0.6515 0.7827 0.0052
C12_22 C 0.6503(4) 0.83018(13) 0.00536(16)
C13_22 C 0.6051(3) 0.85592(12) 0.01187(13)
C14_22 C 0.5318(4) 0.85109(13) 0.02354(16)
H11_22 H 0.4998 0.8683 0.0288
C15_22 C 0.5059(4) 0.82063(14) 0.02743(16)
H12_22 H 0.4557 0.8174 0.0356
C18_22 C 0.6350(4) 0.88796(12) 0.00631(13)
C19_22 C 0.6188(4) 0.91249(14) 0.02566(15)
H15_22 H 0.5879 0.9094 0.0435
C20_22 C 0.6482(4) 0.94193(14) 0.01889(14)
H16_22 H 0.6369 0.9586 0.0326
F2_22 F 0.3190(10) 0.8338(5) 0.0011(4)
S2_22 S 0.67429(10) 0.72175(4) 0.04740(4)
O4_22 O 0.6018(3) 0.71872(12) 0.03146(11)
O5_22 O 0.6762(3) 0.74795(13) 0.06866(14)
O6_22 O 0.7406(4) 0.7181(2) 0.0292(2)
C22_22 C 0.6616(10) 0.6878(5) 0.0746(4)
F4_22 F 0.5912(10) 0.6889(3) 0.0883(3)
F5_22 F 0.6640(10) 0.6609(4) 0.0592(4)
F6_22 F 0.7151(10) 0.6869(4) 0.0969(4)
N6_15 N 0.4410(3) 0.69800(10) 0.00561(11)
N4_15 N 0.6910(3) 0.94800(10) 0.99439(11)
H10_23 H 0.7015 0.8328 0.9979
C16_23 C 0.7055(4) 0.92443(14) 0.97509(15)
H13_23 H 0.7347 0.9285 0.957
C17_23 C 0.6796(4) 0.89420(14) 0.98030(16)
H14_23 H 0.6921 0.8779 0.9663
O1_20 O 0.3815(3) 0.77073(12) 0.99682(12)
S1_20 S 0.3154(3) 0.77694(14) 0.98167(13)
C21_20 C 0.3138(11) 0.8193(6) 0.9740(4)
O2_20 O 0.3138(10) 0.7621(5) 0.9520(4)
O3_18 O 0.2458(10) 0.7719(7) 0.9969(5)
F1_20 F 0.3737(10) 0.8266(5) 0.9553(4)
F3_18 F 0.2443(10) 0.8225(5) 0.9595(5)
N5_15 N 0.5445(3) 0.74739(11) 0.96516(11)
Cd1_16 Cd 0.49414(2) 0.50331(2) 0.23520(2)
N1_24 N 0.4448(3) 0.50215(12) 0.18604(10)
N2_15 N 0.2945(3) 0.49739(11) 0.03484(11)
N3_23 N 0.5485(3) 0.45423(11) 0.22979(11)
N4_16 N 0.6910(3) 0.30200(10) 0.25561(11)
C1_23 C 0.4900(3) 0.49568(17) 0.16203(14)
H1_23 H 0.5429 0.4914 0.1658
C2_23 C 0.4643(3) 0.49492(16) 0.13199(13)
H2_23 H 0.499 0.4907 0.1156
C3_24 C 0.3859(3) 0.50054(13) 0.12610(12)
C4_24 C 0.3402(4) 0.5075(2) 0.15120(16)
H3_24 H 0.2872 0.5124 0.1482
C5_24 C 0.3702(4) 0.5076(2) 0.18048(15)
H4_24 H 0.3368 0.5116 0.1974
C6_23 C 0.3530(4) 0.47902(16) 0.04322(13)
H5_23 H 0.3745 0.4652 0.0284
C7_23 C 0.3840(4) 0.47936(17) 0.07290(13)
H6_23 H 0.4252 0.4657 0.0781
C8_23 C 0.3550(4) 0.49932(14) 0.09434(12)
C9_24 C 0.2973(6) 0.5199(2) 0.08528(17)
H7_24 H 0.2784 0.5354 0.099
C10_24 C 0.2678(6) 0.5172(2) 0.05548(17)
H8_22 H 0.2262 0.5304 0.0498
C11_23 C 0.6202(4) 0.44963(14) 0.24024(16)
H9_23 H 0.6515 0.4673 0.2448
C12_23 C 0.6503(4) 0.41982(13) 0.24464(16)
H10_24 H 0.7015 0.4172 0.2521
C13_23 C 0.6051(3) 0.39408(12) 0.23813(13)
C14_23 C 0.5318(4) 0.39891(13) 0.22646(16)
H11_23 H 0.4998 0.3817 0.2212
C15_23 C 0.5059(4) 0.42937(14) 0.22257(16)
H12_23 H 0.4557 0.4326 0.2144
C16_24 C 0.7055(4) 0.32557(14) 0.27491(15)
H13_24 H 0.7347 0.3215 0.293
C17_24 C 0.6796(4) 0.35580(14) 0.26970(16)
H14_24 H 0.6921 0.3721 0.2837
C18_23 C 0.6350(4) 0.36204(12) 0.24369(13)
C19_23 C 0.6188(4) 0.33751(14) 0.22434(15)
H15_23 H 0.5879 0.3406 0.2065
C20_23 C 0.6482(4) 0.30807(14) 0.23111(14)
H16_23 H 0.6369 0.2914 0.2174
O1_21 O 0.3815(3) 0.47927(12) 0.25318(12)
S1_21 S 0.3154(3) 0.47306(14) 0.26833(13)
C21_21 C 0.3138(11) 0.4307(6) 0.2760(4)
O2_21 O 0.3138(10) 0.4879(5) 0.2980(4)
O3_19 O 0.2458(10) 0.4781(7) 0.2531(5)
F1_21 F 0.3737(10) 0.4234(5) 0.2947(4)
F2_23 F 0.3190(10) 0.4162(5) 0.2489(4)
F3_19 F 0.2443(10) 0.4275(5) 0.2905(5)
S2_23 S 0.67429(10) 0.52825(4) 0.20260(4)
O4_23 O 0.6018(3) 0.53128(12) 0.21854(11)
O5_23 O 0.6762(3) 0.50205(13) 0.18134(14)
O6_23 O 0.7406(4) 0.5319(2) 0.2208(2)
C22_23 C 0.6616(10) 0.5622(5) 0.1754(4)
F4_23 F 0.5912(10) 0.5611(3) 0.1617(3)
F5_23 F 0.6640(10) 0.5891(4) 0.1908(4)
F6_23 F 0.7151(10) 0.5631(4) 0.1531(4)
N5_16 N 0.5445(3) 0.50261(11) 0.28484(11)
N6_16 N 0.4410(3) 0.55200(10) 0.24439(11)
H10_25 H 0.9515 0.0828 0.0021
C16_25 C 0.9555(4) 0.17443(14) 0.02491(15)
H13_25 H 0.9847 0.1785 0.043
C17_25 C 0.9296(4) 0.14420(14) 0.01970(16)
H14_25 H 0.9421 0.1279 0.0337
O1_22 O 0.6315(3) 0.02073(12) 0.00318(12)
S1_22 S 0.5654(3) 0.02694(14) 0.01833(13)
C21_22 C 0.5638(11) 0.0693(6) 0.0260(4)
O2_22 O 0.5638(10) 0.0121(5) 0.0480(4)
O3_20 O 0.4958(10) 0.0219(7) 0.0031(5)
F1_22 F 0.6237(10) 0.0766(5) 0.0447(4)
F3_20 F 0.4943(10) 0.0725(5) 0.0405(5)
N3_24 N 0.7985(3) 0.04577(11) 0.97979(11)
C1_24 C 0.7400(3) 0.00432(17) 0.91203(14)
H1_24 H 0.7929 0.0086 0.9158
C2_24 C 0.7143(3) 0.00508(16) 0.88199(13)
H2_24 H 0.749 0.0093 0.8656
C6_24 C 0.6030(4) 0.02098(16) 0.79322(13)
H5_24 H 0.6245 0.0348 0.7784
C7_24 C 0.6340(4) 0.02064(17) 0.82290(13)
H6_24 H 0.6752 0.0343 0.8281
C8_24 C 0.6050(4) 0.00068(14) 0.84434(12)
C11_24 C 0.8702(4) 0.05037(14) 0.99024(16)
H9_24 H 0.9015 0.0327 0.9948
C12_24 C 0.9003(4) 0.08018(13) 0.99464(16)
C13_24 C 0.8551(3) 0.10592(12) 0.98813(13)
C14_24 C 0.7818(4) 0.10109(13) 0.97646(16)
H11_24 H 0.7498 0.1183 0.9712
C15_24 C 0.7559(4) 0.07063(14) 0.97257(16)
H12_24 H 0.7057 0.0674 0.9644
C18_24 C 0.8850(4) 0.13796(12) 0.99369(13)
C19_24 C 0.8688(4) 0.16249(14) 0.97434(15)
H15_24 H 0.8379 0.1594 0.9565
C20_24 C 0.8982(4) 0.19193(14) 0.98111(14)
H16_24 H 0.8869 0.2086 0.9674
F2_24 F 0.5690(10) 0.0838(5) 0.9989(4)
N1_25 N 0.6948(3) 0.99785(12) 0.93604(10)
C3_25 C 0.6359(3) 0.99946(13) 0.87610(12)
C4_25 C 0.5902(4) 0.9925(2) 0.90120(16)
H3_25 H 0.5372 0.9876 0.8982
C5_25 C 0.6202(4) 0.9924(2) 0.93048(15)
H4_25 H 0.5868 0.9884 0.9474
C9_25 C 0.5473(6) 0.9801(2) 0.83528(17)
H7_25 H 0.5284 0.9646 0.849
C10_25 C 0.5178(6) 0.9828(2) 0.80548(17)
H8_23 H 0.4762 0.9696 0.7998
S2_24 S 0.92429(10) 0.97175(4) 0.95260(4)
O4_24 O 0.8518(3) 0.96872(12) 0.96854(11)
O5_24 O 0.9262(3) 0.99795(13) 0.93134(14)
O6_24 O 0.9906(4) 0.9681(2) 0.9708(2)
C22_24 C 0.9116(10) 0.9378(5) 0.9254(4)
F4_24 F 0.8412(10) 0.9389(3) 0.9117(3)
F5_24 F 0.9140(10) 0.9109(4) 0.9408(4)
F6_24 F 0.9651(10) 0.9369(4) 0.9031(4)
N1_26 N 0.6948(3) 0.75215(12) 0.81396(10)
N3_25 N 0.7985(3) 0.70423(11) 0.77021(11)
C1_25 C 0.7400(3) 0.74568(17) 0.83797(14)
H1_25 H 0.7929 0.7414 0.8342
C2_25 C 0.7143(3) 0.74492(16) 0.86801(13)
H2_25 H 0.749 0.7407 0.8844
C3_26 C 0.6359(3) 0.75054(13) 0.87390(12)
C4_26 C 0.5902(4) 0.7575(2) 0.84880(16)
H3_26 H 0.5372 0.7624 0.8518
C5_26 C 0.6202(4) 0.7576(2) 0.81952(15)
H4_26 H 0.5868 0.7616 0.8026
C6_25 C 0.6030(4) 0.72902(16) 0.95678(13)
H5_25 H 0.6245 0.7152 0.9716
C7_25 C 0.6340(4) 0.72936(17) 0.92710(13)
H6_25 H 0.6752 0.7157 0.9219
C8_25 C 0.6050(4) 0.74932(14) 0.90566(12)
C9_26 C 0.5473(6) 0.7699(2) 0.91472(17)
H7_26 H 0.5284 0.7854 0.901
C10_26 C 0.5178(6) 0.7672(2) 0.94452(17)
H8_24 H 0.4762 0.7804 0.9502
C11_25 C 0.8702(4) 0.69963(14) 0.75976(16)
H9_25 H 0.9015 0.7173 0.7552
C12_25 C 0.9003(4) 0.66982(13) 0.75536(16)
H10_26 H 0.9515 0.6672 0.7479
C13_25 C 0.8551(3) 0.64408(12) 0.76187(13)
C14_25 C 0.7818(4) 0.64891(13) 0.77354(16)
H11_25 H 0.7498 0.6317 0.7788
C15_25 C 0.7559(4) 0.67937(14) 0.77743(16)
H12_25 H 0.7057 0.6826 0.7856
C16_26 C 0.9555(4) 0.57557(14) 0.72509(15)
H13_26 H 0.9847 0.5715 0.707
C17_26 C 0.9296(4) 0.60580(14) 0.73030(16)
H14_26 H 0.9421 0.6221 0.7163
C18_25 C 0.8850(4) 0.61204(12) 0.75631(13)
C19_25 C 0.8688(4) 0.58751(14) 0.77566(15)
H15_25 H 0.8379 0.5906 0.7935
C20_25 C 0.8982(4) 0.55807(14) 0.76889(14)
H16_25 H 0.8869 0.5414 0.7826
O1_23 O 0.6315(3) 0.72927(12) 0.74682(12)
S1_23 S 0.5654(3) 0.72306(14) 0.73167(13)
C21_23 C 0.5638(11) 0.6807(6) 0.7240(4)
O2_23 O 0.5638(10) 0.7379(5) 0.7020(4)
O3_21 O 0.4958(10) 0.7281(7) 0.7469(5)
F1_23 F 0.6237(10) 0.6734(5) 0.7053(4)
F2_25 F 0.5690(10) 0.6662(5) 0.7511(4)
F3_21 F 0.4943(10) 0.6775(5) 0.7095(5)
S2_25 S 0.92429(10) 0.77825(4) 0.79740(4)
O4_25 O 0.8518(3) 0.78128(12) 0.78146(11)
O5_25 O 0.9262(3) 0.75205(13) 0.81866(14)
O6_25 O 0.9906(4) 0.7819(2) 0.7792(2)
C22_25 C 0.9116(10) 0.8122(5) 0.8246(4)
F4_25 F 0.8412(10) 0.8111(3) 0.8383(3)
F5_25 F 0.9140(10) 0.8391(4) 0.8092(4)
F6_25 F 0.9651(10) 0.8131(4) 0.8469(4)
N1_27 N 0.6948(3) 0.49785(12) 0.43604(10)
N3_26 N 0.7985(3) 0.54577(11) 0.47979(11)
C1_26 C 0.7400(3) 0.50432(17) 0.41203(14)
H1_26 H 0.7929 0.5086 0.4158
C2_26 C 0.7143(3) 0.50508(16) 0.38199(13)
H2_26 H 0.749 0.5093 0.3656
C3_27 C 0.6359(3) 0.49946(13) 0.37610(12)
C4_27 C 0.5902(4) 0.4925(2) 0.40120(16)
H3_27 H 0.5372 0.4876 0.3982
C5_27 C 0.6202(4) 0.4924(2) 0.43048(15)
H4_27 H 0.5868 0.4884 0.4474
C6_26 C 0.6030(4) 0.52098(16) 0.29322(13)
H5_26 H 0.6245 0.5348 0.2784
C7_26 C 0.6340(4) 0.52064(17) 0.32290(13)
H6_26 H 0.6752 0.5343 0.3281
C8_26 C 0.6050(4) 0.50068(14) 0.34434(12)
C9_27 C 0.5473(6) 0.4801(2) 0.33528(17)
H7_27 H 0.5284 0.4646 0.349
C10_27 C 0.5178(6) 0.4828(2) 0.30548(17)
H8_25 H 0.4762 0.4696 0.2998
C11_26 C 0.8702(4) 0.55037(14) 0.49024(16)
H9_26 H 0.9015 0.5327 0.4948
C12_26 C 0.9003(4) 0.58018(13) 0.49464(16)
H10_27 H 0.9515 0.5828 0.5021
C13_26 C 0.8551(3) 0.60592(12) 0.48813(13)
C14_26 C 0.7818(4) 0.60109(13) 0.47646(16)
H11_26 H 0.7498 0.6183 0.4712
C15_26 C 0.7559(4) 0.57063(14) 0.47257(16)
H12_26 H 0.7057 0.5674 0.4644
C16_27 C 0.9555(4) 0.67443(14) 0.52491(15)
H13_27 H 0.9847 0.6785 0.543
C17_27 C 0.9296(4) 0.64420(14) 0.51970(16)
H14_27 H 0.9421 0.6279 0.5337
C18_26 C 0.8850(4) 0.63796(12) 0.49369(13)
C19_26 C 0.8688(4) 0.66249(14) 0.47434(15)
H15_26 H 0.8379 0.6594 0.4565
C20_26 C 0.8982(4) 0.69193(14) 0.48111(14)
H16_26 H 0.8869 0.7086 0.4674
O1_24 O 0.6315(3) 0.52073(12) 0.50318(12)
S1_24 S 0.5654(3) 0.52694(14) 0.51833(13)
C21_24 C 0.5638(11) 0.5693(6) 0.5260(4)
O2_24 O 0.5638(10) 0.5121(5) 0.5480(4)
O3_22 O 0.4958(10) 0.5219(7) 0.5031(5)
F1_24 F 0.6237(10) 0.5766(5) 0.5447(4)
F2_26 F 0.5690(10) 0.5838(5) 0.4989(4)
F3_22 F 0.4943(10) 0.5725(5) 0.5405(5)
S2_26 S 0.92429(10) 0.47175(4) 0.45260(4)
O4_26 O 0.8518(3) 0.46872(12) 0.46854(11)
O5_26 O 0.9262(3) 0.49795(13) 0.43134(14)
O6_26 O 0.9906(4) 0.4681(2) 0.4708(2)
C22_26 C 0.9116(10) 0.4378(5) 0.4254(4)
F4_26 F 0.8412(10) 0.4389(3) 0.4117(3)
F5_26 F 0.9140(10) 0.4109(4) 0.4408(4)
F6_26 F 0.9651(10) 0.4369(4) 0.4031(4)
N1_28 N 0.6948(3) 0.25215(12) 0.31396(10)
N3_27 N 0.7985(3) 0.20423(11) 0.27021(11)
C1_27 C 0.7400(3) 0.24568(17) 0.33797(14)
H1_27 H 0.7929 0.2414 0.3342
C2_27 C 0.7143(3) 0.24492(16) 0.36801(13)
H2_27 H 0.749 0.2407 0.3844
C3_28 C 0.6359(3) 0.25054(13) 0.37390(12)
C4_28 C 0.5902(4) 0.2575(2) 0.34880(16)
H3_28 H 0.5372 0.2624 0.3518
C5_28 C 0.6202(4) 0.2576(2) 0.31952(15)
H4_28 H 0.5868 0.2616 0.3026
C6_27 C 0.6030(4) 0.22902(16) 0.45678(13)
H5_27 H 0.6245 0.2152 0.4716
C7_27 C 0.6340(4) 0.22936(17) 0.42710(13)
H6_27 H 0.6752 0.2157 0.4219
C8_27 C 0.6050(4) 0.24932(14) 0.40566(12)
C9_28 C 0.5473(6) 0.2699(2) 0.41472(17)
H7_28 H 0.5284 0.2854 0.401
C10_28 C 0.5178(6) 0.2672(2) 0.44452(17)
H8_26 H 0.4762 0.2804 0.4502
C11_27 C 0.8702(4) 0.19963(14) 0.25976(16)
H9_27 H 0.9015 0.2173 0.2552
C12_27 C 0.9003(4) 0.16982(13) 0.25536(16)
H10_28 H 0.9515 0.1672 0.2479
C13_27 C 0.8551(3) 0.14408(12) 0.26187(13)
C14_27 C 0.7818(4) 0.14891(13) 0.27354(16)
H11_27 H 0.7498 0.1317 0.2788
C15_27 C 0.7559(4) 0.17937(14) 0.27743(16)
H12_27 H 0.7057 0.1826 0.2856
C16_28 C 0.9555(4) 0.07557(14) 0.22509(15)
H13_28 H 0.9847 0.0715 0.207
C17_28 C 0.9296(4) 0.10580(14) 0.23030(16)
H14_28 H 0.9421 0.1221 0.2163
C18_27 C 0.8850(4) 0.11204(12) 0.25631(13)
C19_27 C 0.8688(4) 0.08751(14) 0.27566(15)
H15_27 H 0.8379 0.0906 0.2935
C20_27 C 0.8982(4) 0.05807(14) 0.26889(14)
H16_27 H 0.8869 0.0414 0.2826
O1_25 O 0.6315(3) 0.22927(12) 0.24682(12)
S1_25 S 0.5654(3) 0.22306(14) 0.23167(13)
C21_25 C 0.5638(11) 0.1807(6) 0.2240(4)
O2_25 O 0.5638(10) 0.2379(5) 0.2020(4)
O3_23 O 0.4958(10) 0.2281(7) 0.2469(5)
F1_25 F 0.6237(10) 0.1734(5) 0.2053(4)
F2_27 F 0.5690(10) 0.1662(5) 0.2511(4)
F3_23 F 0.4943(10) 0.1775(5) 0.2095(5)
S2_27 S 0.92429(10) 0.27825(4) 0.29740(4)
O4_27 O 0.8518(3) 0.28128(12) 0.28146(11)
O5_27 O 0.9262(3) 0.25205(13) 0.31866(14)
O6_27 O 0.9906(4) 0.2819(2) 0.2792(2)
C22_27 C 0.9116(10) 0.3122(5) 0.3246(4)
F4_27 F 0.8412(10) 0.3111(3) 0.3383(3)
F5_27 F 0.9140(10) 0.3391(4) 0.3092(4)
F6_27 F 0.9651(10) 0.3131(4) 0.3469(4)
N3_28 N 0.2985(3) 0.04577(11) 0.47979(11)
C1_28 C 0.2400(3) 0.00432(17) 0.41203(14)
H1_28 H 0.2929 0.0086 0.4158
C2_28 C 0.2143(3) 0.00508(16) 0.38199(13)
H2_28 H 0.249 0.0093 0.3656
C6_28 C 0.1030(4) 0.02098(16) 0.29322(13)
H5_28 H 0.1245 0.0348 0.2784
C7_28 C 0.1340(4) 0.02064(17) 0.32290(13)
H6_28 H 0.1752 0.0343 0.3281
C8_28 C 0.1050(4) 0.00068(14) 0.34434(12)
C11_28 C 0.3702(4) 0.05037(14) 0.49024(16)
H9_28 H 0.4015 0.0327 0.4948
C12_28 C 0.4003(4) 0.08018(13) 0.49464(16)
H10_29 H 0.4515 0.0828 0.5021
C13_28 C 0.3551(3) 0.10592(12) 0.48813(13)
C14_28 C 0.2818(4) 0.10109(13) 0.47646(16)
H11_28 H 0.2498 0.1183 0.4712
C15_28 C 0.2559(4) 0.07063(14) 0.47257(16)
H12_28 H 0.2057 0.0674 0.4644
C16_29 C 0.4555(4) 0.17443(14) 0.52491(15)
H13_29 H 0.4847 0.1785 0.543
C17_29 C 0.4296(4) 0.14420(14) 0.51970(16)
H14_29 H 0.4421 0.1279 0.5337
C18_28 C 0.3850(4) 0.13796(12) 0.49369(13)
C19_28 C 0.3688(4) 0.16249(14) 0.47434(15)
H15_28 H 0.3379 0.1594 0.4565
C20_28 C 0.3982(4) 0.19193(14) 0.48111(14)
H16_28 H 0.3869 0.2086 0.4674
O1_26 O 0.1315(3) 0.02073(12) 0.50318(12)
S1_26 S 0.0654(3) 0.02694(14) 0.51833(13)
C21_26 C 0.0638(11) 0.0693(6) 0.5260(4)
O2_26 O 0.0638(10) 0.0121(5) 0.5480(4)
F1_26 F 0.1237(10) 0.0766(5) 0.5447(4)
F2_28 F 0.0690(10) 0.0838(5) 0.4989(4)
N1_29 N 0.1948(3) 0.99785(12) 0.43604(10)
C3_29 C 0.1359(3) 0.99946(13) 0.37610(12)
C4_29 C 0.0902(4) 0.9925(2) 0.40120(16)
H3_29 H 0.0372 0.9876 0.3982
C5_29 C 0.1202(4) 0.9924(2) 0.43048(15)
H4_29 H 0.0868 0.9884 0.4474
C9_29 C 0.0473(6) 0.9801(2) 0.33528(17)
H7_29 H 0.0284 0.9646 0.349
C10_29 C 0.0178(6) 0.9828(2) 0.30548(17)
S2_28 S 0.42429(10) 0.97175(4) 0.45260(4)
O4_28 O 0.3518(3) 0.96872(12) 0.46854(11)
O5_28 O 0.4262(3) 0.99795(13) 0.43134(14)
O6_28 O 0.4906(4) 0.9681(2) 0.4708(2)
C22_28 C 0.4116(10) 0.9378(5) 0.4254(4)
F4_28 F 0.3412(10) 0.9389(3) 0.4117(3)
F5_28 F 0.4140(10) 0.9109(4) 0.4408(4)
F6_28 F 0.4651(10) 0.9369(4) 0.4031(4)
O3_24 O 0.9958(10) 0.0219(7) 0.5031(5)
F3_24 F 0.9943(10) 0.0725(5) 0.5405(5)
N1_30 N 0.1948(3) 0.75215(12) 0.31396(10)
N3_29 N 0.2985(3) 0.70423(11) 0.27021(11)
C1_29 C 0.2400(3) 0.74568(17) 0.33797(14)
H1_29 H 0.2929 0.7414 0.3342
C2_29 C 0.2143(3) 0.74492(16) 0.36801(13)
H2_29 H 0.249 0.7407 0.3844
C3_30 C 0.1359(3) 0.75054(13) 0.37390(12)
C4_30 C 0.0902(4) 0.7575(2) 0.34880(16)
H3_30 H 0.0372 0.7624 0.3518
C5_30 C 0.1202(4) 0.7576(2) 0.31952(15)
H4_30 H 0.0868 0.7616 0.3026
C6_29 C 0.1030(4) 0.72902(16) 0.45678(13)
H5_29 H 0.1245 0.7152 0.4716
C7_29 C 0.1340(4) 0.72936(17) 0.42710(13)
H6_29 H 0.1752 0.7157 0.4219
C8_29 C 0.1050(4) 0.74932(14) 0.40566(12)
C9_30 C 0.0473(6) 0.7699(2) 0.41472(17)
H7_30 H 0.0284 0.7854 0.401
C10_30 C 0.0178(6) 0.7672(2) 0.44452(17)
C11_29 C 0.3702(4) 0.69963(14) 0.25976(16)
H9_29 H 0.4015 0.7173 0.2552
C12_29 C 0.4003(4) 0.66982(13) 0.25536(16)
H10_30 H 0.4515 0.6672 0.2479
C13_29 C 0.3551(3) 0.64408(12) 0.26187(13)
C14_29 C 0.2818(4) 0.64891(13) 0.27354(16)
H11_29 H 0.2498 0.6317 0.2788
C15_29 C 0.2559(4) 0.67937(14) 0.27743(16)
H12_29 H 0.2057 0.6826 0.2856
C16_30 C 0.4555(4) 0.57557(14) 0.22509(15)
H13_30 H 0.4847 0.5715 0.207
C17_30 C 0.4296(4) 0.60580(14) 0.23030(16)
H14_30 H 0.4421 0.6221 0.2163
C18_29 C 0.3850(4) 0.61204(12) 0.25631(13)
C19_29 C 0.3688(4) 0.58751(14) 0.27566(15)
H15_29 H 0.3379 0.5906 0.2935
C20_29 C 0.3982(4) 0.55807(14) 0.26889(14)
H16_29 H 0.3869 0.5414 0.2826
O1_27 O 0.1315(3) 0.72927(12) 0.24682(12)
S1_27 S 0.0654(3) 0.72306(14) 0.23167(13)
C21_27 C 0.0638(11) 0.6807(6) 0.2240(4)
O2_27 O 0.0638(10) 0.7379(5) 0.2020(4)
F1_27 F 0.1237(10) 0.6734(5) 0.2053(4)
F2_29 F 0.0690(10) 0.6662(5) 0.2511(4)
S2_29 S 0.42429(10) 0.77825(4) 0.29740(4)
O4_29 O 0.3518(3) 0.78128(12) 0.28146(11)
O5_29 O 0.4262(3) 0.75205(13) 0.31866(14)
O6_29 O 0.4906(4) 0.7819(2) 0.2792(2)
C22_29 C 0.4116(10) 0.8122(5) 0.3246(4)
F4_29 F 0.3412(10) 0.8111(3) 0.3383(3)
F5_29 F 0.4140(10) 0.8391(4) 0.3092(4)
F6_29 F 0.4651(10) 0.8131(4) 0.3469(4)
H8_27 H 0.9762 0.7804 0.4502
O3_25 O 0.9958(10) 0.7281(7) 0.2469(5)
F3_25 F 0.9943(10) 0.6775(5) 0.2095(5)
H10_31 H 0.4515 0.5828 0.0021
C16_31 C 0.4555(4) 0.67443(14) 0.02491(15)
H13_31 H 0.4847 0.6785 0.043
C17_31 C 0.4296(4) 0.64420(14) 0.01970(16)
H14_31 H 0.4421 0.6279 0.0337
O1_28 O 0.1315(3) 0.52073(12) 0.00318(12)
S1_28 S 0.0654(3) 0.52694(14) 0.01833(13)
C21_28 C 0.0638(11) 0.5693(6) 0.0260(4)
O2_28 O 0.0638(10) 0.5121(5) 0.0480(4)
F1_28 F 0.1237(10) 0.5766(5) 0.0447(4)
N1_31 N 0.1948(3) 0.49785(12) 0.93604(10)
N3_30 N 0.2985(3) 0.54577(11) 0.97979(11)
C1_30 C 0.2400(3) 0.50432(17) 0.91203(14)
H1_30 H 0.2929 0.5086 0.9158
C2_30 C 0.2143(3) 0.50508(16) 0.88199(13)
H2_30 H 0.249 0.5093 0.8656
C3_31 C 0.1359(3) 0.49946(13) 0.87610(12)
C4_31 C 0.0902(4) 0.4925(2) 0.90120(16)
H3_31 H 0.0372 0.4876 0.8982
C5_31 C 0.1202(4) 0.4924(2) 0.93048(15)
H4_31 H 0.0868 0.4884 0.9474
C6_30 C 0.1030(4) 0.52098(16) 0.79322(13)
H5_30 H 0.1245 0.5348 0.7784
C7_30 C 0.1340(4) 0.52064(17) 0.82290(13)
H6_30 H 0.1752 0.5343 0.8281
C8_30 C 0.1050(4) 0.50068(14) 0.84434(12)
C9_31 C 0.0473(6) 0.4801(2) 0.83528(17)
H7_31 H 0.0284 0.4646 0.849
C10_31 C 0.0178(6) 0.4828(2) 0.80548(17)
C11_30 C 0.3702(4) 0.55037(14) 0.99024(16)
H9_30 H 0.4015 0.5327 0.9948
C12_30 C 0.4003(4) 0.58018(13) 0.99464(16)
C13_30 C 0.3551(3) 0.60592(12) 0.98813(13)
C14_30 C 0.2818(4) 0.60109(13) 0.97646(16)
H11_30 H 0.2498 0.6183 0.9712
C15_30 C 0.2559(4) 0.57063(14) 0.97257(16)
H12_30 H 0.2057 0.5674 0.9644
C18_30 C 0.3850(4) 0.63796(12) 0.99369(13)
C19_30 C 0.3688(4) 0.66249(14) 0.97434(15)
H15_30 H 0.3379 0.6594 0.9565
C20_30 C 0.3982(4) 0.69193(14) 0.98111(14)
H16_30 H 0.3869 0.7086 0.9674
F2_30 F 0.0690(10) 0.5838(5) 0.9989(4)
S2_30 S 0.42429(10) 0.47175(4) 0.95260(4)
O4_30 O 0.3518(3) 0.46872(12) 0.96854(11)
O5_30 O 0.4262(3) 0.49795(13) 0.93134(14)
O6_30 O 0.4906(4) 0.4681(2) 0.9708(2)
C22_30 C 0.4116(10) 0.4378(5) 0.9254(4)
F4_30 F 0.3412(10) 0.4389(3) 0.9117(3)
F5_30 F 0.4140(10) 0.4109(4) 0.9408(4)
F6_30 F 0.4651(10) 0.4369(4) 0.9031(4)
H8_28 H 0.9762 0.4696 0.7998
N1_32 N 0.1948(3) 0.25215(12) 0.81396(10)
N3_31 N 0.2985(3) 0.20423(11) 0.77021(11)
C1_31 C 0.2400(3) 0.24568(17) 0.83797(14)
H1_31 H 0.2929 0.2414 0.8342
C2_31 C 0.2143(3) 0.24492(16) 0.86801(13)
H2_31 H 0.249 0.2407 0.8844
C3_32 C 0.1359(3) 0.25054(13) 0.87390(12)
C4_32 C 0.0902(4) 0.2575(2) 0.84880(16)
H3_32 H 0.0372 0.2624 0.8518
C5_32 C 0.1202(4) 0.2576(2) 0.81952(15)
H4_32 H 0.0868 0.2616 0.8026
C6_31 C 0.1030(4) 0.22902(16) 0.95678(13)
H5_31 H 0.1245 0.2152 0.9716
C7_31 C 0.1340(4) 0.22936(17) 0.92710(13)
H6_31 H 0.1752 0.2157 0.9219
C8_31 C 0.1050(4) 0.24932(14) 0.90566(12)
C9_32 C 0.0473(6) 0.2699(2) 0.91472(17)
H7_32 H 0.0284 0.2854 0.901
C10_32 C 0.0178(6) 0.2672(2) 0.94452(17)
C11_31 C 0.3702(4) 0.19963(14) 0.75976(16)
H9_31 H 0.4015 0.2173 0.7552
C12_31 C 0.4003(4) 0.16982(13) 0.75536(16)
H10_32 H 0.4515 0.1672 0.7479
C13_31 C 0.3551(3) 0.14408(12) 0.76187(13)
C14_31 C 0.2818(4) 0.14891(13) 0.77354(16)
H11_31 H 0.2498 0.1317 0.7788
C15_31 C 0.2559(4) 0.17937(14) 0.77743(16)
H12_31 H 0.2057 0.1826 0.7856
C16_32 C 0.4555(4) 0.07557(14) 0.72509(15)
H13_32 H 0.4847 0.0715 0.707
C17_32 C 0.4296(4) 0.10580(14) 0.73030(16)
H14_32 H 0.4421 0.1221 0.7163
C18_31 C 0.3850(4) 0.11204(12) 0.75631(13)
C19_31 C 0.3688(4) 0.08751(14) 0.77566(15)
H15_31 H 0.3379 0.0906 0.7935
C20_31 C 0.3982(4) 0.05807(14) 0.76889(14)
H16_31 H 0.3869 0.0414 0.7826
O1_29 O 0.1315(3) 0.22927(12) 0.74682(12)
S1_29 S 0.0654(3) 0.22306(14) 0.73167(13)
C21_29 C 0.0638(11) 0.1807(6) 0.7240(4)
O2_29 O 0.0638(10) 0.2379(5) 0.7020(4)
F1_29 F 0.1237(10) 0.1734(5) 0.7053(4)
F2_31 F 0.0690(10) 0.1662(5) 0.7511(4)
S2_31 S 0.42429(10) 0.27825(4) 0.79740(4)
O4_31 O 0.3518(3) 0.28128(12) 0.78146(11)
O5_31 O 0.4262(3) 0.25205(13) 0.81866(14)
O6_31 O 0.4906(4) 0.2819(2) 0.7792(2)
C22_31 C 0.4116(10) 0.3122(5) 0.8246(4)
F4_31 F 0.3412(10) 0.3111(3) 0.8383(3)
F5_31 F 0.4140(10) 0.3391(4) 0.8092(4)
F6_31 F 0.4651(10) 0.3131(4) 0.8469(4)
O1_30 O 0.8815(3) 0.27073(12) 0.99682(12)
S1_30 S 0.8154(3) 0.27694(14) 0.98167(13)
C21_30 C 0.8138(11) 0.3193(6) 0.9740(4)
O2_30 O 0.8138(10) 0.2621(5) 0.9520(4)
O3_26 O 0.7458(10) 0.2719(7) 0.9969(5)
F1_30 F 0.8737(10) 0.3266(5) 0.9553(4)
F3_26 F 0.7443(10) 0.3225(5) 0.9595(5)
N2_16 N 0.7945(3) 0.99739(11) 0.03484(11)
C1_32 C 0.9900(3) 0.99568(17) 0.16203(14)
C2_32 C 0.9643(3) 0.99492(16) 0.13199(13)
H2_32 H 0.999 0.9907 0.1156
C6_32 C 0.8530(4) 0.97902(16) 0.04322(13)
H5_32 H 0.8745 0.9652 0.0284
C7_32 C 0.8840(4) 0.97936(17) 0.07290(13)
H6_32 H 0.9252 0.9657 0.0781
C8_32 C 0.8550(4) 0.99932(14) 0.09434(12)
H11_32 H 0.9998 0.8817 0.2212
H12_32 H 0.9557 0.9326 0.2144
O1_31 O 0.8815(3) 0.97927(12) 0.25318(12)
S1_31 S 0.8154(3) 0.97306(14) 0.26833(13)
C21_31 C 0.8138(11) 0.9307(6) 0.2760(4)
O2_31 O 0.8138(10) 0.9879(5) 0.2980(4)
O3_27 O 0.7458(10) 0.9781(7) 0.2531(5)
F1_31 F 0.8737(10) 0.9234(5) 0.2947(4)
F2_32 F 0.8190(10) 0.9162(5) 0.2489(4)
F3_27 F 0.7443(10) 0.9275(5) 0.2905(5)
H8_29 H 0.0238 0.0304 0.7002
O3_28 O 0.0042(10) 0.4781(7) 0.9969(5)
F3_28 F 0.0057(10) 0.4275(5) 0.9595(5)
H8_30 H 0.0238 0.7196 0.0498
O3_29 O 0.0042(10) 0.7719(7) 0.2531(5)
F3_29 F 0.0057(10) 0.8225(5) 0.2905(5)
O1_32 O 0.1185(3) 0.72927(12) 0.00318(12)
S1_32 S 0.1846(3) 0.72306(14) 0.01833(13)
C21_32 C 0.1862(11) 0.6807(6) 0.0260(4)
O2_32 O 0.1862(10) 0.7379(5) 0.0480(4)
O3_30 O 0.2542(10) 0.7281(7) 0.0031(5)
F1_32 F 0.1263(10) 0.6734(5) 0.0447(4)
F3_30 F 0.2557(10) 0.6775(5) 0.0405(5)
N3_32 N 0.9515(3) 0.70423(11) 0.97979(11)
H1_32 H 0.9571 0.7414 0.9158
C11_32 C 0.8798(4) 0.69963(14) 0.99024(16)
H9_32 H 0.8485 0.7173 0.9948
C12_32 C 0.8497(4) 0.66982(13) 0.99464(16)
C13_32 C 0.8949(3) 0.64408(12) 0.98813(13)
C14_32 C 0.9682(4) 0.64891(13) 0.97646(16)
C15_32 C 0.9941(4) 0.67937(14) 0.97257(16)
C18_32 C 0.8650(4) 0.61204(12) 0.99369(13)
C19_32 C 0.8812(4) 0.58751(14) 0.97434(15)
H15_32 H 0.9121 0.5906 0.9565
C20_32 C 0.8518(4) 0.55807(14) 0.98111(14)
H16_32 H 0.8631 0.5414 0.9674
S2_32 S 0.82571(10) 0.77825(4) 0.95260(4)
O4_32 O 0.8982(3) 0.78128(12) 0.96854(11)
O5_32 O 0.8238(3) 0.75205(13) 0.93134(14)
O6_32 O 0.7594(4) 0.7819(2) 0.9708(2)
C22_32 C 0.8384(10) 0.8122(5) 0.9254(4)
F4_32 F 0.9088(10) 0.8111(3) 0.9117(3)
F5_32 F 0.8360(10) 0.8391(4) 0.9408(4)
F6_32 F 0.7849(10) 0.8131(4) 0.9031(4)
H8_31 H 0.9762 0.9696 0.2998
O3_31 O 0.9958(10) 0.5219(7) 0.0031(5)
F3_31 F 0.9943(10) 0.5725(5) 0.0405(5)
H8_32 H 0.9762 0.2804 0.9502
O3_32 O 0.9958(10) 0.2281(7) 0.7469(5)
F3_32 F 0.9943(10) 0.1775(5) 0.7095(5)
loop_
_geom_bond_atom_site_label_1
_geom_bond_atom_site_label_2
_geom_bond_site_symmetry_1
_geom_bond_site_symmetry_2
Cd1 N1 1_555 1_555
C4 C3 1_555 1_555
H3 C4 1_555 1_555
C5 N1 1_555 1_555
H4 C5 1_555 1_555
H7 C9 1_555 1_555
H8 C10 1_555 1_555
S2 O4 1_555 1_555
O4 Cd1 1_555 1_555
O5 S2 1_555 1_555
O6 S2 1_555 1_555
C22 S2 1_555 1_555
F4 C22 1_555 1_555
F5 C22 1_555 1_555
F6 C22 1_555 1_555
N6 Cd1 1_555 1_555
C4 C5 1_555 1_555
C9 C10 1_555 1_555
N2 C6 1_555 1_555
C1 H1 1_555 1_555
C2 C1 1_555 1_555
H2 C2 1_555 1_555
C6 H5 1_555 1_555
C7 C6 1_555 1_555
H6 C7 1_555 1_555
C11 N3 1_555 1_555
H9 C11 1_555 1_555
C12 C11 1_555 1_555
C13 C12 1_555 1_555
C14 C13 1_555 1_555
H11 C14 1_555 1_555
C15 N3 1_555 1_555
H12 C15 1_555 1_555
C18 C13 1_555 1_555
C19 C18 1_555 1_555
H15 C19 1_555 1_555
H16 C20 1_555 1_555
Cd3 N2 1_555 1_555
C7 C8 1_555 1_555
C14 C15 1_555 1_555
C19 C20 1_555 1_555
N4 C16 1_555 1_555
C16 H13 1_555 1_555
C17 C16 1_555 1_555
H14 C17 1_555 1_555
S1 O1 1_555 1_555
C21 S1 1_555 1_555
O2 S1 1_555 1_555
O3 S1 1_555 1_555
F1 C21 1_555 1_555
F3 C21 1_555 1_555
Cd2 N4 1_555 1_555
Cd1_2 N1_2 1_555 1_555
N1_2 C1_2 1_555 1_555
N2_2 C6_2 1_555 1_555
N3_2 Cd1_2 1_555 1_555
N4_2 C16_2 1_555 1_555
C1_2 H1_2 1_555 1_555
C2_2 C1_2 1_555 1_555
H2_2 C2_2 1_555 1_555
C3_2 C2_2 1_555 1_555
C4_2 C3_2 1_555 1_555
H3_2 C4_2 1_555 1_555
C5_2 N1_2 1_555 1_555
H4_2 C5_2 1_555 1_555
C6_2 H5_2 1_555 1_555
C7_2 C6_2 1_555 1_555
H6_2 C7_2 1_555 1_555
C8_2 C3_2 1_555 1_555
C9_2 C8_2 1_555 1_555
H7_2 C9_2 1_555 1_555
C10_2 N2_2 1_555 1_555
H8_2 C10_2 1_555 1_555
C11_2 N3_2 1_555 1_555
H9_2 C11_2 1_555 1_555
C12_2 C11_2 1_555 1_555
H10_2 C12_2 1_555 1_555
C13_2 C12_2 1_555 1_555
C14_2 C13_2 1_555 1_555
H11_2 C14_2 1_555 1_555
C15_2 N3_2 1_555 1_555
H12_2 C15_2 1_555 1_555
C16_2 H13_2 1_555 1_555
C17_2 C16_2 1_555 1_555
H14_2 C17_2 1_555 1_555
C18_2 C13_2 1_555 1_555
C19_2 C18_2 1_555 1_555
H15_2 C19_2 1_555 1_555
C20_2 N4_2 1_555 1_555
H16_2 C20_2 1_555 1_555
O1_2 Cd1_2 1_555 1_555
S1_2 O1_2 1_555 1_555
C21_2 S1_2 1_555 1_555
O2_2 S1_2 1_555 1_555
O3_2 S1_2 1_555 1_555
F1_2 C21_2 1_555 1_555
F2_2 C21_2 1_555 1_555
F3_2 C21_2 1_555 1_555
S2_2 O4_2 1_555 1_555
O4_2 Cd1_2 1_555 1_555
O5_2 S2_2 1_555 1_555
O6_2 S2_2 1_555 1_555
C22_2 S2_2 1_555 1_555
F4_2 C22_2 1_555 1_555
F5_2 C22_2 1_555 1_555
F6_2 C22_2 1_555 1_555
Cd2_2 N4_2 1_555 1_555
N5 Cd1_2 1_555 1_555
N6_2 Cd1_2 1_555 1_555
C4_2 C5_2 1_555 1_555
C7_2 C8_2 1_555 1_555
C9_2 C10_2 1_555 1_555
C14_2 C15_2 1_555 1_555
C17_2 C18_2 1_555 1_555
C19_2 C20_2 1_555 1_555
Cd1_3 N1_3 1_555 1_555
N1_3 C1_3 1_555 1_555
N2_3 C6_3 1_555 1_555
N3_3 Cd1_3 1_555 1_555
N4_3 C16_3 1_555 1_555
C1_3 H1_3 1_555 1_555
C2_3 C1_3 1_555 1_555
H2_3 C2_3 1_555 1_555
C3_3 C2_3 1_555 1_555
C4_3 C3_3 1_555 1_555
H3_3 C4_3 1_555 1_555
C5_3 N1_3 1_555 1_555
H4_3 C5_3 1_555 1_555
C6_3 H5_3 1_555 1_555
C7_3 C6_3 1_555 1_555
H6_3 C7_3 1_555 1_555
C8_3 C3_3 1_555 1_555
C9_3 C8_3 1_555 1_555
H7_3 C9_3 1_555 1_555
C10_3 N2_3 1_555 1_555
H8_3 C10_3 1_555 1_555
C11_3 N3_3 1_555 1_555
H9_3 C11_3 1_555 1_555
C12_3 C11_3 1_555 1_555
H10_3 C12_3 1_555 1_555
C13_3 C12_3 1_555 1_555
C14_3 C13_3 1_555 1_555
H11_3 C14_3 1_555 1_555
C15_3 N3_3 1_555 1_555
H12_3 C15_3 1_555 1_555
C16_3 H13_3 1_555 1_555
C17_3 C16_3 1_555 1_555
H14_3 C17_3 1_555 1_555
C18_3 C13_3 1_555 1_555
C19_3 C18_3 1_555 1_555
H15_3 C19_3 1_555 1_555
C20_3 N4_3 1_555 1_555
H16_3 C20_3 1_555 1_555
O1_3 Cd1_3 1_555 1_555
S1_3 O1_3 1_555 1_555
C21_3 S1_3 1_555 1_555
O2_3 S1_3 1_555 1_555
O3_3 S1_3 1_555 1_555
F1_3 C21_3 1_555 1_555
F2_3 C21_3 1_555 1_555
F3_3 C21_3 1_555 1_555
S2_3 O4_3 1_555 1_555
O4_3 Cd1_3 1_555 1_555
O5_3 S2_3 1_555 1_555
O6_3 S2_3 1_555 1_555
C22_3 S2_3 1_555 1_555
F4_3 C22_3 1_555 1_555
F5_3 C22_3 1_555 1_555
F6_3 C22_3 1_555 1_555
Cd2_3 N4_3 1_555 1_555
Cd3_3 N2_3 1_555 1_555
N5_2 Cd1_3 1_555 1_555
N6_3 Cd1_3 1_555 1_555
C4_3 C5_3 1_555 1_555
C7_3 C8_3 1_555 1_555
C9_3 C10_3 1_555 1_555
C14_3 C15_3 1_555 1_555
C17_3 C18_3 1_555 1_555
C19_3 C20_3 1_555 1_555
Cd1_4 N1_4 1_555 1_555
N1_4 C1_4 1_555 1_555
N2_4 C6_4 1_555 1_555
N3_4 Cd1_4 1_555 1_555
N4_4 C16_4 1_555 1_555
C1_4 H1_4 1_555 1_555
C2_4 C1_4 1_555 1_555
H2_4 C2_4 1_555 1_555
C3_4 C2_4 1_555 1_555
C4_4 C3_4 1_555 1_555
H3_4 C4_4 1_555 1_555
C5_4 N1_4 1_555 1_555
H4_4 C5_4 1_555 1_555
C6_4 H5_4 1_555 1_555
C7_4 C6_4 1_555 1_555
H6_4 C7_4 1_555 1_555
C8_4 C3_4 1_555 1_555
C9_4 C8_4 1_555 1_555
H7_4 C9_4 1_555 1_555
C10_4 N2_4 1_555 1_555
H8_4 C10_4 1_555 1_555
C11_4 N3_4 1_555 1_555
H9_4 C11_4 1_555 1_555
C12_4 C11_4 1_555 1_555
H10_4 C12_4 1_555 1_555
C13_4 C12_4 1_555 1_555
C14_4 C13_4 1_555 1_555
H11_4 C14_4 1_555 1_555
C15_4 N3_4 1_555 1_555
H12_4 C15_4 1_555 1_555
C16_4 H13_4 1_555 1_555
C17_4 C16_4 1_555 1_555
H14_4 C17_4 1_555 1_555
C18_4 C13_4 1_555 1_555
C19_4 C18_4 1_555 1_555
H15_4 C19_4 1_555 1_555
C20_4 N4_4 1_555 1_555
H16_4 C20_4 1_555 1_555
O1_4 Cd1_4 1_555 1_555
S1_4 O1_4 1_555 1_555
C21_4 S1_4 1_555 1_555
O2_4 S1_4 1_555 1_555
O3_4 S1_4 1_555 1_555
F1_4 C21_4 1_555 1_555
F2_4 C21_4 1_555 1_555
F3_4 C21_4 1_555 1_555
S2_4 O4_4 1_555 1_555
O4_4 Cd1_4 1_555 1_555
O5_4 S2_4 1_555 1_555
O6_4 S2_4 1_555 1_555
C22_4 S2_4 1_555 1_555
F4_4 C22_4 1_555 1_555
F5_4 C22_4 1_555 1_555
F6_4 C22_4 1_555 1_555
Cd2_4 N4_4 1_555 1_555
Cd3_4 N2_4 1_555 1_555
N5_3 Cd1_4 1_555 1_555
N6_4 Cd1_4 1_555 1_555
C4_4 C5_4 1_555 1_555
C7_4 C8_4 1_555 1_555
C9_4 C10_4 1_555 1_555
C14_4 C15_4 1_555 1_555
C17_4 C18_4 1_555 1_555
C19_4 C20_4 1_555 1_555
Cd1_5 N1_5 1_555 1_555
C4_5 C3_5 1_555 1_555
H3_5 C4_5 1_555 1_555
C5_5 N1_5 1_555 1_555
H4_5 C5_5 1_555 1_555
H7_5 C9_5 1_555 1_555
S2_5 O4_5 1_555 1_555
O4_5 Cd1_5 1_555 1_555
O5_5 S2_5 1_555 1_555
O6_5 S2_5 1_555 1_555
C22_5 S2_5 1_555 1_555
F4_5 C22_5 1_555 1_555
F5_5 C22_5 1_555 1_555
F6_5 C22_5 1_555 1_555
N5_4 Cd1_5 1_555 1_555
N6_5 Cd1_5 1_555 1_555
C4_5 C5_5 1_555 1_555
C9_5 C10_5 1_555 1_555
N2_5 C6_5 1_555 1_555
N4_5 C16_5 1_555 1_555
C1_5 H1_5 1_555 1_555
C2_5 C1_5 1_555 1_555
H2_5 C2_5 1_555 1_555
C6_5 H5_5 1_555 1_555
C7_5 C6_5 1_555 1_555
H6_5 C7_5 1_555 1_555
C11_5 N3_5 1_555 1_555
H9_5 C11_5 1_555 1_555
C12_5 C11_5 1_555 1_555
H10_5 C12_5 1_555 1_555
C13_5 C12_5 1_555 1_555
C14_5 C13_5 1_555 1_555
H11_5 C14_5 1_555 1_555
C15_5 N3_5 1_555 1_555
H12_5 C15_5 1_555 1_555
C16_5 H13_5 1_555 1_555
C17_5 C16_5 1_555 1_555
H14_5 C17_5 1_555 1_555
C18_5 C13_5 1_555 1_555
C19_5 C18_5 1_555 1_555
H15_5 C19_5 1_555 1_555
C20_5 N4_5 1_555 1_555
H16_5 C20_5 1_555 1_555
S1_5 O1_5 1_555 1_555
C21_5 S1_5 1_555 1_555
O2_5 S1_5 1_555 1_555
F1_5 C21_5 1_555 1_555
F2_5 C21_5 1_555 1_555
Cd3_4 N4_5 1_555 1_555
C7_5 C8_5 1_555 1_555
C14_5 C15_5 1_555 1_555
C17_5 C18_5 1_555 1_555
C19_5 C20_5 1_555 1_555
Cd1_6 N1_6 1_555 1_555
N1_6 C1_6 1_555 1_555
N2_6 C6_6 1_555 1_555
N3_6 Cd1_6 1_555 1_555
N4_6 C16_6 1_555 1_555
C1_6 H1_6 1_555 1_555
C2_6 C1_6 1_555 1_555
H2_6 C2_6 1_555 1_555
C3_6 C2_6 1_555 1_555
C4_6 C3_6 1_555 1_555
H3_6 C4_6 1_555 1_555
C5_6 N1_6 1_555 1_555
H4_6 C5_6 1_555 1_555
C6_6 H5_6 1_555 1_555
C7_6 C6_6 1_555 1_555
H6_6 C7_6 1_555 1_555
C8_6 C3_6 1_555 1_555
C9_6 C8_6 1_555 1_555
H7_6 C9_6 1_555 1_555
C10_6 N2_6 1_555 1_555
C11_6 N3_6 1_555 1_555
H9_6 C11_6 1_555 1_555
C12_6 C11_6 1_555 1_555
H10_6 C12_6 1_555 1_555
C13_6 C12_6 1_555 1_555
C14_6 C13_6 1_555 1_555
H11_6 C14_6 1_555 1_555
C15_6 N3_6 1_555 1_555
H12_6 C15_6 1_555 1_555
C16_6 H13_6 1_555 1_555
C17_6 C16_6 1_555 1_555
H14_6 C17_6 1_555 1_555
C18_6 C13_6 1_555 1_555
C19_6 C18_6 1_555 1_555
H15_6 C19_6 1_555 1_555
C20_6 N4_6 1_555 1_555
H16_6 C20_6 1_555 1_555
O1_6 Cd1_6 1_555 1_555
S1_6 O1_6 1_555 1_555
C21_6 S1_6 1_555 1_555
O2_6 S1_6 1_555 1_555
F1_6 C21_6 1_555 1_555
F2_6 C21_6 1_555 1_555
S2_6 O4_6 1_555 1_555
O4_6 Cd1_6 1_555 1_555
O5_6 S2_6 1_555 1_555
O6_6 S2_6 1_555 1_555
C22_6 S2_6 1_555 1_555
F4_6 C22_6 1_555 1_555
F5_6 C22_6 1_555 1_555
F6_6 C22_6 1_555 1_555
Cd3_3 N4_6 1_555 1_555
N5_5 Cd1_6 1_555 1_555
N6_6 Cd1_6 1_555 1_555
C4_6 C5_6 1_555 1_555
C7_6 C8_6 1_555 1_555
C9_6 C10_6 1_555 1_555
C14_6 C15_6 1_555 1_555
C17_6 C18_6 1_555 1_555
C19_6 C20_6 1_555 1_555
Cd1_7 N1_7 1_555 1_555
N1_7 C1_7 1_555 1_555
N2_7 C6_7 1_555 1_555
N3_7 Cd1_7 1_555 1_555
C1_7 H1_7 1_555 1_555
C2_7 C1_7 1_555 1_555
H2_7 C2_7 1_555 1_555
C3_7 C2_7 1_555 1_555
C4_7 C3_7 1_555 1_555
H3_7 C4_7 1_555 1_555
C5_7 N1_7 1_555 1_555
H4_7 C5_7 1_555 1_555
C6_7 H5_7 1_555 1_555
C7_7 C6_7 1_555 1_555
H6_7 C7_7 1_555 1_555
C8_7 C3_7 1_555 1_555
C9_7 C8_7 1_555 1_555
H7_7 C9_7 1_555 1_555
C10_7 N2_7 1_555 1_555
C11_7 N3_7 1_555 1_555
H9_7 C11_7 1_555 1_555
C12_7 C11_7 1_555 1_555
C13_7 C12_7 1_555 1_555
C14_7 C13_7 1_555 1_555
H11_7 C14_7 1_555 1_555
C15_7 N3_7 1_555 1_555
H12_7 C15_7 1_555 1_555
C18_7 C13_7 1_555 1_555
C19_7 C18_7 1_555 1_555
H15_7 C19_7 1_555 1_555
H16_7 C20_7 1_555 1_555
S2_7 O4_7 1_555 1_555
O4_7 Cd1_7 1_555 1_555
O5_7 S2_7 1_555 1_555
O6_7 S2_7 1_555 1_555
C22_7 S2_7 1_555 1_555
F4_7 C22_7 1_555 1_555
F5_7 C22_7 1_555 1_555
F6_7 C22_7 1_555 1_555
N6_7 Cd1_7 1_555 1_555
C4_7 C5_7 1_555 1_555
C7_7 C8_7 1_555 1_555
C9_7 C10_7 1_555 1_555
C14_7 C15_7 1_555 1_555
C19_7 C20_7 1_555 1_555
N4_7 C16_7 1_555 1_555
C16_7 H13_7 1_555 1_555
C17_7 C16_7 1_555 1_555
H14_7 C17_7 1_555 1_555
S1_7 O1_7 1_555 1_555
C21_7 S1_7 1_555 1_555
O2_7 S1_7 1_555 1_555
F1_7 C21_7 1_555 1_555
Cd3_2 N4_7 1_555 1_555
Cd1_8 N1_8 1_555 1_555
N1_8 C1_8 1_555 1_555
N2_8 C6_8 1_555 1_555
N3_8 Cd1_8 1_555 1_555
N4_8 C16_8 1_555 1_555
C1_8 H1_8 1_555 1_555
C2_8 C1_8 1_555 1_555
H2_8 C2_8 1_555 1_555
C3_8 C2_8 1_555 1_555
C4_8 C3_8 1_555 1_555
H3_8 C4_8 1_555 1_555
C5_8 N1_8 1_555 1_555
H4_8 C5_8 1_555 1_555
C6_8 H5_8 1_555 1_555
C7_8 C6_8 1_555 1_555
H6_8 C7_8 1_555 1_555
C8_8 C3_8 1_555 1_555
C9_8 C8_8 1_555 1_555
H7_8 C9_8 1_555 1_555
C10_8 N2_8 1_555 1_555
C11_8 N3_8 1_555 1_555
H9_8 C11_8 1_555 1_555
C12_8 C11_8 1_555 1_555
H10_8 C12_8 1_555 1_555
C13_8 C12_8 1_555 1_555
C14_8 C13_8 1_555 1_555
H11_8 C14_8 1_555 1_555
C15_8 N3_8 1_555 1_555
H12_8 C15_8 1_555 1_555
C16_8 H13_8 1_555 1_555
C17_8 C16_8 1_555 1_555
H14_8 C17_8 1_555 1_555
C18_8 C13_8 1_555 1_555
C19_8 C18_8 1_555 1_555
H15_8 C19_8 1_555 1_555
C20_8 N4_8 1_555 1_555
H16_8 C20_8 1_555 1_555
O1_8 Cd1_8 1_555 1_555
S1_8 O1_8 1_555 1_555
C21_8 S1_8 1_555 1_555
O2_8 S1_8 1_555 1_555
F1_8 C21_8 1_555 1_555
F2_8 C21_8 1_555 1_555
S2_8 O4_8 1_555 1_555
O4_8 Cd1_8 1_555 1_555
O5_8 S2_8 1_555 1_555
O6_8 S2_8 1_555 1_555
C22_8 S2_8 1_555 1_555
F4_8 C22_8 1_555 1_555
F5_8 C22_8 1_555 1_555
F6_8 C22_8 1_555 1_555
Cd3 N4_8 1_555 1_555
N5_7 Cd1_8 1_555 1_555
N6_8 Cd1_8 1_555 1_555
C4_8 C5_8 1_555 1_555
C7_8 C8_8 1_555 1_555
C9_8 C10_8 1_555 1_555
C14_8 C15_8 1_555 1_555
C17_8 C18_8 1_555 1_555
C19_8 C20_8 1_555 1_555
Cd2 N1_9 1_555 1_555
N1_9 C1_9 1_555 1_555
N5_3 C6_9 1_555 1_555
C2_9 C1_9 1_555 1_555
H2_9 C2_9 1_555 1_555
C3_9 C2_9 1_555 1_555
C4_9 C3_9 1_555 1_555
H3_9 C4_9 1_555 1_555
C5_9 N1_9 1_555 1_555
H4_9 C5_9 1_555 1_555
C6_9 H5_9 1_555 1_555
C7_9 C6_9 1_555 1_555
H6_9 C7_9 1_555 1_555
C8_9 C3_9 1_555 1_555
C9_9 C8_9 1_555 1_555
H7_9 C9_9 1_555 1_555
C10_9 N5_3 1_555 1_555
H8_7 C10_9 1_555 1_555
C4_9 C5_9 1_555 1_555
C7_9 C8_9 1_555 1_555
C9_9 C10_9 1_555 1_555
N6_7 C16_9 1_555 1_555
C16_9 H13_9 1_555 1_555
C17_9 C16_9 1_555 1_555
H14_9 C17_9 1_555 1_555
Cd2_4 N1_10 1_555 1_555
C4_10 C3_10 1_555 1_555
H3_10 C4_10 1_555 1_555
C5_10 N1_10 1_555 1_555
H4_10 C5_10 1_555 1_555
H7_10 C9_10 1_555 1_555
H8_8 C10_10 1_555 1_555
C4_10 C5_10 1_555 1_555
C9_10 C10_10 1_555 1_555
N6_6 C16_10 1_555 1_555
C11_9 N3_9 1_555 1_555
H9_9 C11_9 1_555 1_555
C12_9 C11_9 1_555 1_555
H10_10 C12_9 1_555 1_555
C13_9 C12_9 1_555 1_555
C14_9 C13_9 1_555 1_555
C15_9 N3_9 1_555 1_555
C16_10 H13_10 1_555 1_555
C17_10 C16_10 1_555 1_555
H14_10 C17_10 1_555 1_555
C18_9 C13_9 1_555 1_555
C19_9 C18_9 1_555 1_555
H15_9 C19_9 1_555 1_555
C20_9 N6_6 1_555 1_555
H16_9 C20_9 1_555 1_555
C14_9 C15_9 1_555 1_555
C17_10 C18_9 1_555 1_555
C19_9 C20_9 1_555 1_555
S2_9 O4_9 1_555 1_555
O5_9 S2_9 1_555 1_555
O6_9 S2_9 1_555 1_555
C22_9 S2_9 1_555 1_555
F4_9 C22_9 1_555 1_555
F5_9 C22_9 1_555 1_555
F6_9 C22_9 1_555 1_555
Cd2_3 N1_11 1_555 1_555
N1_11 C1_10 1_555 1_555
N5 C6_10 1_555 1_555
C2_10 C1_10 1_555 1_555
H2_10 C2_10 1_555 1_555
C3_11 C2_10 1_555 1_555
C4_11 C3_11 1_555 1_555
H3_11 C4_11 1_555 1_555
C5_11 N1_11 1_555 1_555
H4_11 C5_11 1_555 1_555
C6_10 H5_10 1_555 1_555
C7_10 C6_10 1_555 1_555
H6_10 C7_10 1_555 1_555
C8_10 C3_11 1_555 1_555
C9_11 C8_10 1_555 1_555
H7_11 C9_11 1_555 1_555
C10_11 N5 1_555 1_555
H8_9 C10_11 1_555 1_555
O1_9 Cd2_3 1_555 1_555
S1_9 O1_9 1_555 1_555
C21_9 S1_9 1_555 1_555
O2_9 S1_9 1_555 1_555
O3_7 S1_9 1_555 1_555
F1_9 C21_9 1_555 1_555
F2_10 C21_9 1_555 1_555
F3_7 C21_9 1_555 1_555
C4_11 C5_11 1_555 1_555
C7_10 C8_10 1_555 1_555
C9_11 C10_11 1_555 1_555
N6_5 C16_11 1_555 1_555
C11_10 N3_10 1_555 1_555
H9_10 C11_10 1_555 1_555
C12_10 C11_10 1_555 1_555
H10_11 C12_10 1_555 1_555
C13_10 C12_10 1_555 1_555
C14_10 C13_10 1_555 1_555
C15_10 N3_10 1_555 1_555
C16_11 H13_11 1_555 1_555
C17_11 C16_11 1_555 1_555
H14_11 C17_11 1_555 1_555
C18_10 C13_10 1_555 1_555
C19_10 C18_10 1_555 1_555
H15_10 C19_10 1_555 1_555
C20_10 N6_5 1_555 1_555
H16_10 C20_10 1_555 1_555
S2_10 O4_10 1_555 1_555
O5_10 S2_10 1_555 1_555
O6_10 S2_10 1_555 1_555
C22_10 S2_10 1_555 1_555
F4_10 C22_10 1_555 1_555
F5_10 C22_10 1_555 1_555
F6_10 C22_10 1_555 1_555
C14_10 C15_10 1_555 1_555
C17_11 C18_10 1_555 1_555
C19_10 C20_10 1_555 1_555
Cd2_2 N1_12 1_555 1_555
N1_12 C1_11 1_555 1_555
N5_2 C6_11 1_555 1_555
C2_11 C1_11 1_555 1_555
H2_11 C2_11 1_555 1_555
C3_12 C2_11 1_555 1_555
C4_12 C3_12 1_555 1_555
H3_12 C4_12 1_555 1_555
C5_12 N1_12 1_555 1_555
H4_12 C5_12 1_555 1_555
C6_11 H5_11 1_555 1_555
C7_11 C6_11 1_555 1_555
H6_11 C7_11 1_555 1_555
C8_11 C3_12 1_555 1_555
C9_12 C8_11 1_555 1_555
H7_12 C9_12 1_555 1_555
C10_12 N5_2 1_555 1_555
H8_10 C10_12 1_555 1_555
O1_10 Cd2_2 1_555 1_555
S1_10 O1_10 1_555 1_555
C21_10 S1_10 1_555 1_555
O2_10 S1_10 1_555 1_555
O3_8 S1_10 1_555 1_555
F1_10 C21_10 1_555 1_555
F2_11 C21_10 1_555 1_555
F3_8 C21_10 1_555 1_555
C4_12 C5_12 1_555 1_555
C7_11 C8_11 1_555 1_555
C9_12 C10_12 1_555 1_555
N6_8 C16_12 1_555 1_555
C11_11 N3_11 1_555 1_555
H9_11 C11_11 1_555 1_555
C12_11 C11_11 1_555 1_555
H10_12 C12_11 1_555 1_555
C13_11 C12_11 1_555 1_555
C14_11 C13_11 1_555 1_555
C15_11 N3_11 1_555 1_555
C16_12 H13_12 1_555 1_555
C17_12 C16_12 1_555 1_555
H14_12 C17_12 1_555 1_555
C18_11 C13_11 1_555 1_555
C19_11 C18_11 1_555 1_555
H15_11 C19_11 1_555 1_555
C20_11 N6_8 1_555 1_555
H16_11 C20_11 1_555 1_555
S2_11 O4_11 1_555 1_555
O5_11 S2_11 1_555 1_555
O6_11 S2_11 1_555 1_555
C22_11 S2_11 1_555 1_555
F4_11 C22_11 1_555 1_555
F5_11 C22_11 1_555 1_555
F6_11 C22_11 1_555 1_555
C14_11 C15_11 1_555 1_555
C17_12 C18_11 1_555 1_555
C19_11 C20_11 1_555 1_555
Cd3_4 N1_13 1_555 1_555
N1_13 C1_12 1_555 1_555
N5_7 C6_12 1_555 1_555
N3_12 Cd3_4 1_555 1_555
N6_3 C16_13 1_555 1_555
C1_12 H1_12 1_555 1_555
C2_12 C1_12 1_555 1_555
H2_12 C2_12 1_555 1_555
C3_13 C2_12 1_555 1_555
C4_13 C3_13 1_555 1_555
H3_13 C4_13 1_555 1_555
C5_13 N1_13 1_555 1_555
H4_13 C5_13 1_555 1_555
C6_12 H5_12 1_555 1_555
C7_12 C6_12 1_555 1_555
H6_12 C7_12 1_555 1_555
C8_12 C3_13 1_555 1_555
C9_13 C8_12 1_555 1_555
H7_13 C9_13 1_555 1_555
C10_13 N5_7 1_555 1_555
H8_11 C10_13 1_555 1_555
C11_12 N3_12 1_555 1_555
H9_12 C11_12 1_555 1_555
C12_12 C11_12 1_555 1_555
H10_13 C12_12 1_555 1_555
C13_12 C12_12 1_555 1_555
C14_12 C13_12 1_555 1_555
H11_12 C14_12 1_555 1_555
C15_12 N3_12 1_555 1_555
H12_12 C15_12 1_555 1_555
C16_13 H13_13 1_555 1_555
C17_13 C16_13 1_555 1_555
H14_13 C17_13 1_555 1_555
C18_12 C13_12 1_555 1_555
C19_12 C18_12 1_555 1_555
H15_12 C19_12 1_555 1_555
C20_12 N6_3 1_555 1_555
H16_12 C20_12 1_555 1_555
O1_11 Cd3_4 1_555 1_555
S1_11 O1_11 1_555 1_555
C21_11 S1_11 1_555 1_555
O2_11 S1_11 1_555 1_555
O3_9 S1_11 1_555 1_555
F1_11 C21_11 1_555 1_555
F2_12 C21_11 1_555 1_555
F3_9 C21_11 1_555 1_555
S2_12 O4_12 1_555 1_555
O4_12 Cd3_4 1_555 1_555
O5_12 S2_12 1_555 1_555
O6_12 S2_12 1_555 1_555
C22_12 S2_12 1_555 1_555
F4_12 C22_12 1_555 1_555
F5_12 C22_12 1_555 1_555
F6_12 C22_12 1_555 1_555
C4_13 C5_13 1_555 1_555
C7_12 C8_12 1_555 1_555
C9_13 C10_13 1_555 1_555
C14_12 C15_12 1_555 1_555
C17_13 C18_12 1_555 1_555
C19_12 C20_12 1_555 1_555
N5_4 C6_13 1_555 1_555
N6_2 C16_14 1_555 1_555
C1_13 H1_13 1_555 1_555
C2_13 C1_13 1_555 1_555
H2_13 C2_13 1_555 1_555
C6_13 H5_13 1_555 1_555
C7_13 C6_13 1_555 1_555
H6_13 C7_13 1_555 1_555
C11_13 N3_13 1_555 1_555
H9_13 C11_13 1_555 1_555
C12_13 C11_13 1_555 1_555
H10_14 C12_13 1_555 1_555
C13_13 C12_13 1_555 1_555
C14_13 C13_13 1_555 1_555
H11_13 C14_13 1_555 1_555
C15_13 N3_13 1_555 1_555
H12_13 C15_13 1_555 1_555
C16_14 H13_14 1_555 1_555
C17_14 C16_14 1_555 1_555
H14_14 C17_14 1_555 1_555
C18_13 C13_13 1_555 1_555
C19_13 C18_13 1_555 1_555
H15_13 C19_13 1_555 1_555
C20_13 N6_2 1_555 1_555
H16_13 C20_13 1_555 1_555
S1_12 O1_12 1_555 1_555
C21_12 S1_12 1_555 1_555
O2_12 S1_12 1_555 1_555
O3_10 S1_12 1_555 1_555
F1_12 C21_12 1_555 1_555
F2_13 C21_12 1_555 1_555
F3_10 C21_12 1_555 1_555
C7_13 C8_13 1_555 1_555
C14_13 C15_13 1_555 1_555
C17_14 C18_13 1_555 1_555
C19_13 C20_13 1_555 1_555
Cd3 N1_14 1_555 1_555
C4_14 C3_14 1_555 1_555
H3_14 C4_14 1_555 1_555
C5_14 N1_14 1_555 1_555
H4_14 C5_14 1_555 1_555
H7_14 C9_14 1_555 1_555
H8_12 C10_14 1_555 1_555
S2_13 O4_13 1_555 1_555
O4_13 Cd3 1_555 1_555
O5_13 S2_13 1_555 1_555
O6_13 S2_13 1_555 1_555
C22_13 S2_13 1_555 1_555
F4_13 C22_13 1_555 1_555
F5_13 C22_13 1_555 1_555
F6_13 C22_13 1_555 1_555
C4_14 C5_14 1_555 1_555
C9_14 C10_14 1_555 1_555
N6 C16_15 1_555 1_555
C16_15 H13_15 1_555 1_555
C17_15 C16_15 1_555 1_555
H14_15 C17_15 1_555 1_555
S1_13 O1_13 1_555 1_555
C21_13 S1_13 1_555 1_555
O2_13 S1_13 1_555 1_555
O3_11 S1_13 1_555 1_555
F1_13 C21_13 1_555 1_555
F3_11 C21_13 1_555 1_555
Cd3_2 N1_15 1_555 1_555
N1_15 C1_14 1_555 1_555
N5_5 C6_14 1_555 1_555
N3_14 Cd3_2 1_555 1_555
C1_14 H1_14 1_555 1_555
C2_14 C1_14 1_555 1_555
H2_14 C2_14 1_555 1_555
C3_15 C2_14 1_555 1_555
C4_15 C3_15 1_555 1_555
H3_15 C4_15 1_555 1_555
C5_15 N1_15 1_555 1_555
H4_15 C5_15 1_555 1_555
C6_14 H5_14 1_555 1_555
C7_14 C6_14 1_555 1_555
H6_14 C7_14 1_555 1_555
C8_14 C3_15 1_555 1_555
C9_15 C8_14 1_555 1_555
H7_15 C9_15 1_555 1_555
C10_15 N5_5 1_555 1_555
H8_13 C10_15 1_555 1_555
C11_14 N3_14 1_555 1_555
H9_14 C11_14 1_555 1_555
C12_14 C11_14 1_555 1_555
C13_14 C12_14 1_555 1_555
C14_14 C13_14 1_555 1_555
H11_14 C14_14 1_555 1_555
C15_14 N3_14 1_555 1_555
H12_14 C15_14 1_555 1_555
C18_14 C13_14 1_555 1_555
C19_14 C18_14 1_555 1_555
H15_14 C19_14 1_555 1_555
H16_14 C20_14 1_555 1_555
S2_14 O4_14 1_555 1_555
O4_14 Cd3_2 1_555 1_555
O5_14 S2_14 1_555 1_555
O6_14 S2_14 1_555 1_555
C22_14 S2_14 1_555 1_555
F4_14 C22_14 1_555 1_555
F5_14 C22_14 1_555 1_555
F6_14 C22_14 1_555 1_555
C4_15 C5_15 1_555 1_555
C7_14 C8_14 1_555 1_555
C9_15 C10_15 1_555 1_555
C14_14 C15_14 1_555 1_555
C19_14 C20_14 1_555 1_555
Cd3_3 N1_16 1_555 1_555
N1_16 C1_15 1_555 1_555
N5_6 C6_15 1_555 1_555
N3_15 Cd3_3 1_555 1_555
N6_4 C16_16 1_555 1_555
C1_15 H1_15 1_555 1_555
C2_15 C1_15 1_555 1_555
H2_15 C2_15 1_555 1_555
C3_16 C2_15 1_555 1_555
C4_16 C3_16 1_555 1_555
H3_16 C4_16 1_555 1_555
C5_16 N1_16 1_555 1_555
H4_16 C5_16 1_555 1_555
C6_15 H5_15 1_555 1_555
C7_15 C6_15 1_555 1_555
H6_15 C7_15 1_555 1_555
C8_15 C3_16 1_555 1_555
C9_16 C8_15 1_555 1_555
H7_16 C9_16 1_555 1_555
C10_16 N5_6 1_555 1_555
H8_14 C10_16 1_555 1_555
C11_15 N3_15 1_555 1_555
H9_15 C11_15 1_555 1_555
C12_15 C11_15 1_555 1_555
H10_16 C12_15 1_555 1_555
C13_15 C12_15 1_555 1_555
C14_15 C13_15 1_555 1_555
H11_15 C14_15 1_555 1_555
C15_15 N3_15 1_555 1_555
H12_15 C15_15 1_555 1_555
C16_16 H13_16 1_555 1_555
C17_16 C16_16 1_555 1_555
H14_16 C17_16 1_555 1_555
C18_15 C13_15 1_555 1_555
C19_15 C18_15 1_555 1_555
H15_15 C19_15 1_555 1_555
C20_15 N6_4 1_555 1_555
H16_15 C20_15 1_555 1_555
O1_14 Cd3_3 1_555 1_555
S1_14 O1_14 1_555 1_555
C21_14 S1_14 1_555 1_555
O2_14 S1_14 1_555 1_555
O3_12 S1_14 1_555 1_555
F1_14 C21_14 1_555 1_555
F2_15 C21_14 1_555 1_555
F3_12 C21_14 1_555 1_555
S2_15 O4_15 1_555 1_555
O4_15 Cd3_3 1_555 1_555
O5_15 S2_15 1_555 1_555
O6_15 S2_15 1_555 1_555
C22_15 S2_15 1_555 1_555
F4_15 C22_15 1_555 1_555
F5_15 C22_15 1_555 1_555
F6_15 C22_15 1_555 1_555
C4_16 C5_16 1_555 1_555
C7_15 C8_15 1_555 1_555
C9_16 C10_16 1_555 1_555
C14_15 C15_15 1_555 1_555
C17_16 C18_15 1_555 1_555
C19_15 C20_15 1_555 1_555
N5_8 C6_16 1_555 1_555
C2_16 C1_16 1_555 1_555
H2_16 C2_16 1_555 1_555
C6_16 H5_16 1_555 1_555
C7_16 C6_16 1_555 1_555
H6_16 C7_16 1_555 1_555
S1_15 O1_15 1_555 1_555
C21_15 S1_15 1_555 1_555
O2_15 S1_15 1_555 1_555
O3_13 S1_15 1_555 1_555
F1_15 C21_15 1_555 1_555
F2_16 C21_15 1_555 1_555
F3_13 C21_15 1_555 1_555
C7_16 C8_16 1_555 1_555
C11_16 N3_16 1_555 1_555
H9_16 C11_16 1_555 1_555
C12_16 C11_16 1_555 1_555
C13_16 C12_16 1_555 1_555
C14_16 C13_16 1_555 1_555
C15_16 N3_16 1_555 1_555
C18_16 C13_16 1_555 1_555
C19_16 C18_16 1_555 1_555
H15_16 C19_16 1_555 1_555
H16_16 C20_16 1_555 1_555
S2_16 O4_16 1_555 1_555
O5_16 S2_16 1_555 1_555
O6_16 S2_16 1_555 1_555
C22_16 S2_16 1_555 1_555
F4_16 C22_16 1_555 1_555
F5_16 C22_16 1_555 1_555
F6_16 C22_16 1_555 1_555
C14_16 C15_16 1_555 1_555
C19_16 C20_16 1_555 1_555
N4_9 C16_17 1_555 1_555
C16_17 H13_17 1_555 1_555
C17_17 C16_17 1_555 1_555
H14_17 C17_17 1_555 1_555
Cd2_5 N4_9 1_555 1_555
Cd1_9 N1_17 1_555 1_555
N1_17 C1_17 1_555 1_555
N2_9 C6_17 1_555 1_555
C2_17 C1_17 1_555 1_555
H2_17 C2_17 1_555 1_555
C3_17 C2_17 1_555 1_555
C4_17 C3_17 1_555 1_555
H3_17 C4_17 1_555 1_555
C5_17 N1_17 1_555 1_555
H4_17 C5_17 1_555 1_555
C6_17 H5_17 1_555 1_555
C7_17 C6_17 1_555 1_555
H6_17 C7_17 1_555 1_555
C8_17 C3_17 1_555 1_555
C9_17 C8_17 1_555 1_555
H7_17 C9_17 1_555 1_555
C10_17 N2_9 1_555 1_555
H8_15 C10_17 1_555 1_555
Cd3_5 N2_9 1_555 1_555
N6_9 Cd1_9 1_555 1_555
C4_17 C5_17 1_555 1_555
C7_17 C8_17 1_555 1_555
C9_17 C10_17 1_555 1_555
S2_17 O4_17 1_555 1_555
O5_17 S2_17 1_555 1_555
O6_17 S2_17 1_555 1_555
C22_17 S2_17 1_555 1_555
F4_17 C22_17 1_555 1_555
F5_17 C22_17 1_555 1_555
F6_17 C22_17 1_555 1_555
N4_10 C16_18 1_555 1_555
C11_17 N3_17 1_555 1_555
H9_17 C11_17 1_555 1_555
C12_17 C11_17 1_555 1_555
H10_18 C12_17 1_555 1_555
C13_17 C12_17 1_555 1_555
C14_17 C13_17 1_555 1_555
C15_17 N3_17 1_555 1_555
C16_18 H13_18 1_555 1_555
C17_18 C16_18 1_555 1_555
H14_18 C17_18 1_555 1_555
C18_17 C13_17 1_555 1_555
C19_17 C18_17 1_555 1_555
H15_17 C19_17 1_555 1_555
C20_17 N4_10 1_555 1_555
H16_17 C20_17 1_555 1_555
Cd2_6 N4_10 1_555 1_555
C14_17 C15_17 1_555 1_555
C17_18 C18_17 1_555 1_555
C19_17 C20_17 1_555 1_555
Cd1_10 N1_18 1_555 1_555
C4_18 C3_18 1_555 1_555
H3_18 C4_18 1_555 1_555
C5_18 N1_18 1_555 1_555
H4_18 C5_18 1_555 1_555
H7_18 C9_18 1_555 1_555
H8_16 C10_18 1_555 1_555
N6_10 Cd1_10 1_555 1_555
C4_18 C5_18 1_555 1_555
C9_18 C10_18 1_555 1_555
N4_11 C16_19 1_555 1_555
C11_18 N3_18 1_555 1_555
H9_18 C11_18 1_555 1_555
C12_18 C11_18 1_555 1_555
H10_19 C12_18 1_555 1_555
C13_18 C12_18 1_555 1_555
C14_18 C13_18 1_555 1_555
C15_18 N3_18 1_555 1_555
C16_19 H13_19 1_555 1_555
C17_19 C16_19 1_555 1_555
H14_19 C17_19 1_555 1_555
C18_18 C13_18 1_555 1_555
C19_18 C18_18 1_555 1_555
H15_18 C19_18 1_555 1_555
C20_18 N4_11 1_555 1_555
H16_18 C20_18 1_555 1_555
S2_18 O4_18 1_555 1_555
O5_18 S2_18 1_555 1_555
O6_18 S2_18 1_555 1_555
C22_18 S2_18 1_555 1_555
F4_18 C22_18 1_555 1_555
F5_18 C22_18 1_555 1_555
F6_18 C22_18 1_555 1_555
Cd2_7 N4_11 1_555 1_555
C14_18 C15_18 1_555 1_555
C17_19 C18_18 1_555 1_555
C19_18 C20_18 1_555 1_555
Cd1_11 N1_19 1_555 1_555
N1_19 C1_18 1_555 1_555
N2_10 C6_18 1_555 1_555
C2_18 C1_18 1_555 1_555
H2_18 C2_18 1_555 1_555
C3_19 C2_18 1_555 1_555
C4_19 C3_19 1_555 1_555
H3_19 C4_19 1_555 1_555
C5_19 N1_19 1_555 1_555
H4_19 C5_19 1_555 1_555
C6_18 H5_18 1_555 1_555
C7_18 C6_18 1_555 1_555
H6_18 C7_18 1_555 1_555
C8_18 C3_19 1_555 1_555
C9_19 C8_18 1_555 1_555
H7_19 C9_19 1_555 1_555
C10_19 N2_10 1_555 1_555
H8_17 C10_19 1_555 1_555
O1_16 Cd1_11 1_555 1_555
S1_16 O1_16 1_555 1_555
C21_16 S1_16 1_555 1_555
O2_16 S1_16 1_555 1_555
O3_14 S1_16 1_555 1_555
F1_16 C21_16 1_555 1_555
F2_18 C21_16 1_555 1_555
F3_14 C21_16 1_555 1_555
Cd3_7 N2_10 1_555 1_555
N6_11 Cd1_11 1_555 1_555
C4_19 C5_19 1_555 1_555
C7_18 C8_18 1_555 1_555
C9_19 C10_19 1_555 1_555
N4_12 C16_20 1_555 1_555
C11_19 N3_19 1_555 1_555
H9_19 C11_19 1_555 1_555
C12_19 C11_19 1_555 1_555
H10_20 C12_19 1_555 1_555
C13_19 C12_19 1_555 1_555
C14_19 C13_19 1_555 1_555
C15_19 N3_19 1_555 1_555
C16_20 H13_20 1_555 1_555
C17_20 C16_20 1_555 1_555
H14_20 C17_20 1_555 1_555
C18_19 C13_19 1_555 1_555
C19_19 C18_19 1_555 1_555
H15_19 C19_19 1_555 1_555
C20_19 N4_12 1_555 1_555
H16_19 C20_19 1_555 1_555
S2_19 O4_19 1_555 1_555
O5_19 S2_19 1_555 1_555
O6_19 S2_19 1_555 1_555
C22_19 S2_19 1_555 1_555
F4_19 C22_19 1_555 1_555
F5_19 C22_19 1_555 1_555
F6_19 C22_19 1_555 1_555
Cd2_8 N4_12 1_555 1_555
C14_19 C15_19 1_555 1_555
C17_20 C18_19 1_555 1_555
C19_19 C20_19 1_555 1_555
Cd1_12 N1_20 1_555 1_555
N1_20 C1_19 1_555 1_555
N2_11 C6_19 1_555 1_555
C2_19 C1_19 1_555 1_555
H2_19 C2_19 1_555 1_555
C3_20 C2_19 1_555 1_555
C4_20 C3_20 1_555 1_555
H3_20 C4_20 1_555 1_555
C5_20 N1_20 1_555 1_555
H4_20 C5_20 1_555 1_555
C6_19 H5_19 1_555 1_555
C7_19 C6_19 1_555 1_555
H6_19 C7_19 1_555 1_555
C8_19 C3_20 1_555 1_555
C9_20 C8_19 1_555 1_555
H7_20 C9_20 1_555 1_555
C10_20 N2_11 1_555 1_555
H8_18 C10_20 1_555 1_555
O1_17 Cd1_12 1_555 1_555
S1_17 O1_17 1_555 1_555
C21_17 S1_17 1_555 1_555
O2_17 S1_17 1_555 1_555
O3_15 S1_17 1_555 1_555
F1_17 C21_17 1_555 1_555
F2_19 C21_17 1_555 1_555
F3_15 C21_17 1_555 1_555
Cd3_8 N2_11 1_555 1_555
N6_12 Cd1_12 1_555 1_555
C4_20 C5_20 1_555 1_555
C7_19 C8_19 1_555 1_555
C9_20 C10_20 1_555 1_555
Cd1_13 N1_21 1_555 1_555
N1_21 C1_20 1_555 1_555
N2_12 C6_20 1_555 1_555
N3_20 Cd1_13 1_555 1_555
N4_13 C16_21 1_555 1_555
C1_20 H1_20 1_555 1_555
C2_20 C1_20 1_555 1_555
H2_20 C2_20 1_555 1_555
C3_21 C2_20 1_555 1_555
C4_21 C3_21 1_555 1_555
H3_21 C4_21 1_555 1_555
C5_21 N1_21 1_555 1_555
H4_21 C5_21 1_555 1_555
C6_20 H5_20 1_555 1_555
C7_20 C6_20 1_555 1_555
H6_20 C7_20 1_555 1_555
C8_20 C3_21 1_555 1_555
C9_21 C8_20 1_555 1_555
H7_21 C9_21 1_555 1_555
C10_21 N2_12 1_555 1_555
H8_19 C10_21 1_555 1_555
C11_20 N3_20 1_555 1_555
H9_20 C11_20 1_555 1_555
C12_20 C11_20 1_555 1_555
H10_21 C12_20 1_555 1_555
C13_20 C12_20 1_555 1_555
C14_20 C13_20 1_555 1_555
H11_20 C14_20 1_555 1_555
C15_20 N3_20 1_555 1_555
H12_20 C15_20 1_555 1_555
C16_21 H13_21 1_555 1_555
C17_21 C16_21 1_555 1_555
H14_21 C17_21 1_555 1_555
C18_20 C13_20 1_555 1_555
C19_20 C18_20 1_555 1_555
H15_20 C19_20 1_555 1_555
C20_20 N4_13 1_555 1_555
H16_20 C20_20 1_555 1_555
O1_18 Cd1_13 1_555 1_555
S1_18 O1_18 1_555 1_555
C21_18 S1_18 1_555 1_555
O2_18 S1_18 1_555 1_555
O3_16 S1_18 1_555 1_555
F1_18 C21_18 1_555 1_555
F2_20 C21_18 1_555 1_555
F3_16 C21_18 1_555 1_555
S2_20 O4_20 1_555 1_555
O4_20 Cd1_13 1_555 1_555
O5_20 S2_20 1_555 1_555
O6_20 S2_20 1_555 1_555
C22_20 S2_20 1_555 1_555
F4_20 C22_20 1_555 1_555
F5_20 C22_20 1_555 1_555
F6_20 C22_20 1_555 1_555
Cd3_8 N4_13 1_555 1_555
Cd2_8 N2_12 1_555 1_555
N5_13 Cd1_13 1_555 1_555
N6_13 Cd1_13 1_555 1_555
C4_21 C5_21 1_555 1_555
C7_20 C8_20 1_555 1_555
C9_21 C10_21 1_555 1_555
C14_20 C15_20 1_555 1_555
C17_21 C18_20 1_555 1_555
C19_20 C20_20 1_555 1_555
Cd1_14 N1_22 1_555 1_555
C4_22 C3_22 1_555 1_555
H3_22 C4_22 1_555 1_555
C5_22 N1_22 1_555 1_555
H4_22 C5_22 1_555 1_555
H7_22 C9_22 1_555 1_555
H8_20 C10_22 1_555 1_555
S2_21 O4_21 1_555 1_555
O4_21 Cd1_14 1_555 1_555
O5_21 S2_21 1_555 1_555
O6_21 S2_21 1_555 1_555
C22_21 S2_21 1_555 1_555
F4_21 C22_21 1_555 1_555
F5_21 C22_21 1_555 1_555
F6_21 C22_21 1_555 1_555
N5_14 Cd1_14 1_555 1_555
N6_14 Cd1_14 1_555 1_555
C4_22 C5_22 1_555 1_555
C9_22 C10_22 1_555 1_555
N2_13 C6_21 1_555 1_555
N4_14 C16_22 1_555 1_555
C1_21 H1_21 1_555 1_555
C2_21 C1_21 1_555 1_555
H2_21 C2_21 1_555 1_555
C6_21 H5_21 1_555 1_555
C7_21 C6_21 1_555 1_555
H6_21 C7_21 1_555 1_555
C11_21 N3_21 1_555 1_555
H9_21 C11_21 1_555 1_555
C12_21 C11_21 1_555 1_555
H10_22 C12_21 1_555 1_555
C13_21 C12_21 1_555 1_555
C14_21 C13_21 1_555 1_555
H11_21 C14_21 1_555 1_555
C15_21 N3_21 1_555 1_555
H12_21 C15_21 1_555 1_555
C16_22 H13_22 1_555 1_555
C17_22 C16_22 1_555 1_555
H14_22 C17_22 1_555 1_555
C18_21 C13_21 1_555 1_555
C19_21 C18_21 1_555 1_555
H15_21 C19_21 1_555 1_555
C20_21 N4_14 1_555 1_555
H16_21 C20_21 1_555 1_555
S1_19 O1_19 1_555 1_555
C21_19 S1_19 1_555 1_555
O2_19 S1_19 1_555 1_555
O3_17 S1_19 1_555 1_555
F1_19 C21_19 1_555 1_555
F2_21 C21_19 1_555 1_555
F3_17 C21_19 1_555 1_555
Cd3_7 N4_14 1_555 1_555
Cd2_7 N2_13 1_555 1_555
C7_21 C8_21 1_555 1_555
C14_21 C15_21 1_555 1_555
C17_22 C18_21 1_555 1_555
C19_21 C20_21 1_555 1_555
Cd1_15 N1_23 1_555 1_555
N1_23 C1_22 1_555 1_555
N2_14 C6_22 1_555 1_555
N3_22 Cd1_15 1_555 1_555
C1_22 H1_22 1_555 1_555
C2_22 C1_22 1_555 1_555
H2_22 C2_22 1_555 1_555
C3_23 C2_22 1_555 1_555
C4_23 C3_23 1_555 1_555
H3_23 C4_23 1_555 1_555
C5_23 N1_23 1_555 1_555
H4_23 C5_23 1_555 1_555
C6_22 H5_22 1_555 1_555
C7_22 C6_22 1_555 1_555
H6_22 C7_22 1_555 1_555
C8_22 C3_23 1_555 1_555
C9_23 C8_22 1_555 1_555
H7_23 C9_23 1_555 1_555
C10_23 N2_14 1_555 1_555
H8_21 C10_23 1_555 1_555
C11_22 N3_22 1_555 1_555
H9_22 C11_22 1_555 1_555
C12_22 C11_22 1_555 1_555
C13_22 C12_22 1_555 1_555
C14_22 C13_22 1_555 1_555
H11_22 C14_22 1_555 1_555
C15_22 N3_22 1_555 1_555
H12_22 C15_22 1_555 1_555
C18_22 C13_22 1_555 1_555
C19_22 C18_22 1_555 1_555
H15_22 C19_22 1_555 1_555
H16_22 C20_22 1_555 1_555
S2_22 O4_22 1_555 1_555
O4_22 Cd1_15 1_555 1_555
O5_22 S2_22 1_555 1_555
O6_22 S2_22 1_555 1_555
C22_22 S2_22 1_555 1_555
F4_22 C22_22 1_555 1_555
F5_22 C22_22 1_555 1_555
F6_22 C22_22 1_555 1_555
Cd2_6 N2_14 1_555 1_555
N6_15 Cd1_15 1_555 1_555
C4_23 C5_23 1_555 1_555
C7_22 C8_22 1_555 1_555
C9_23 C10_23 1_555 1_555
C14_22 C15_22 1_555 1_555
C19_22 C20_22 1_555 1_555
N4_15 C16_23 1_555 1_555
C16_23 H13_23 1_555 1_555
C17_23 C16_23 1_555 1_555
H14_23 C17_23 1_555 1_555
S1_20 O1_20 1_555 1_555
C21_20 S1_20 1_555 1_555
O2_20 S1_20 1_555 1_555
O3_18 S1_20 1_555 1_555
F1_20 C21_20 1_555 1_555
F3_18 C21_20 1_555 1_555
Cd3_6 N4_15 1_555 1_555
Cd1_16 N1_24 1_555 1_555
N1_24 C1_23 1_555 1_555
N2_15 C6_23 1_555 1_555
N3_23 Cd1_16 1_555 1_555
N4_16 C16_24 1_555 1_555
C1_23 H1_23 1_555 1_555
C2_23 C1_23 1_555 1_555
H2_23 C2_23 1_555 1_555
C3_24 C2_23 1_555 1_555
C4_24 C3_24 1_555 1_555
H3_24 C4_24 1_555 1_555
C5_24 N1_24 1_555 1_555
H4_24 C5_24 1_555 1_555
C6_23 H5_23 1_555 1_555
C7_23 C6_23 1_555 1_555
H6_23 C7_23 1_555 1_555
C8_23 C3_24 1_555 1_555
C9_24 C8_23 1_555 1_555
H7_24 C9_24 1_555 1_555
C10_24 N2_15 1_555 1_555
H8_22 C10_24 1_555 1_555
C11_23 N3_23 1_555 1_555
H9_23 C11_23 1_555 1_555
C12_23 C11_23 1_555 1_555
H10_24 C12_23 1_555 1_555
C13_23 C12_23 1_555 1_555
C14_23 C13_23 1_555 1_555
H11_23 C14_23 1_555 1_555
C15_23 N3_23 1_555 1_555
H12_23 C15_23 1_555 1_555
C16_24 H13_24 1_555 1_555
C17_24 C16_24 1_555 1_555
H14_24 C17_24 1_555 1_555
C18_23 C13_23 1_555 1_555
C19_23 C18_23 1_555 1_555
H15_23 C19_23 1_555 1_555
C20_23 N4_16 1_555 1_555
H16_23 C20_23 1_555 1_555
O1_21 Cd1_16 1_555 1_555
S1_21 O1_21 1_555 1_555
C21_21 S1_21 1_555 1_555
O2_21 S1_21 1_555 1_555
O3_19 S1_21 1_555 1_555
F1_21 C21_21 1_555 1_555
F2_23 C21_21 1_555 1_555
F3_19 C21_21 1_555 1_555
S2_23 O4_23 1_555 1_555
O4_23 Cd1_16 1_555 1_555
O5_23 S2_23 1_555 1_555
O6_23 S2_23 1_555 1_555
C22_23 S2_23 1_555 1_555
F4_23 C22_23 1_555 1_555
F5_23 C22_23 1_555 1_555
F6_23 C22_23 1_555 1_555
Cd3_5 N4_16 1_555 1_555
N5_16 Cd1_16 1_555 1_555
N6_16 Cd1_16 1_555 1_555
C4_24 C5_24 1_555 1_555
C7_23 C8_23 1_555 1_555
C9_24 C10_24 1_555 1_555
C14_23 C15_23 1_555 1_555
C17_24 C18_23 1_555 1_555
C19_23 C20_23 1_555 1_555
N6_9 C16_25 1_555 1_555
C16_25 H13_25 1_555 1_555
C17_25 C16_25 1_555 1_555
H14_25 C17_25 1_555 1_555
S1_22 O1_22 1_555 1_555
C21_22 S1_22 1_555 1_555
O2_22 S1_22 1_555 1_555
O3_20 S1_22 1_555 1_555
F1_22 C21_22 1_555 1_555
F3_20 C21_22 1_555 1_555
N5_14 C6_24 1_555 1_555
C1_24 H1_24 1_555 1_555
C2_24 C1_24 1_555 1_555
H2_24 C2_24 1_555 1_555
C6_24 H5_24 1_555 1_555
C7_24 C6_24 1_555 1_555
H6_24 C7_24 1_555 1_555
C11_24 N3_24 1_555 1_555
H9_24 C11_24 1_555 1_555
C12_24 C11_24 1_555 1_555
C13_24 C12_24 1_555 1_555
C14_24 C13_24 1_555 1_555
H11_24 C14_24 1_555 1_555
C15_24 N3_24 1_555 1_555
H12_24 C15_24 1_555 1_555
C18_24 C13_24 1_555 1_555
C19_24 C18_24 1_555 1_555
H15_24 C19_24 1_555 1_555
H16_24 C20_24 1_555 1_555
C7_24 C8_24 1_555 1_555
C14_24 C15_24 1_555 1_555
C19_24 C20_24 1_555 1_555
Cd3_6 N1_25 1_555 1_555
C4_25 C3_25 1_555 1_555
H3_25 C4_25 1_555 1_555
C5_25 N1_25 1_555 1_555
H4_25 C5_25 1_555 1_555
H7_25 C9_25 1_555 1_555
H8_23 C10_25 1_555 1_555
S2_24 O4_24 1_555 1_555
O4_24 Cd3_6 1_555 1_555
O5_24 S2_24 1_555 1_555
O6_24 S2_24 1_555 1_555
C22_24 S2_24 1_555 1_555
F4_24 C22_24 1_555 1_555
F5_24 C22_24 1_555 1_555
F6_24 C22_24 1_555 1_555
C4_25 C5_25 1_555 1_555
C9_25 C10_25 1_555 1_555
Cd3_7 N1_26 1_555 1_555
N1_26 C1_25 1_555 1_555
N5_15 C6_25 1_555 1_555
N3_25 Cd3_7 1_555 1_555
N6_12 C16_26 1_555 1_555
C1_25 H1_25 1_555 1_555
C2_25 C1_25 1_555 1_555
H2_25 C2_25 1_555 1_555
C3_26 C2_25 1_555 1_555
C4_26 C3_26 1_555 1_555
H3_26 C4_26 1_555 1_555
C5_26 N1_26 1_555 1_555
H4_26 C5_26 1_555 1_555
C6_25 H5_25 1_555 1_555
C7_25 C6_25 1_555 1_555
H6_25 C7_25 1_555 1_555
C8_25 C3_26 1_555 1_555
C9_26 C8_25 1_555 1_555
H7_26 C9_26 1_555 1_555
C10_26 N5_15 1_555 1_555
H8_24 C10_26 1_555 1_555
C11_25 N3_25 1_555 1_555
H9_25 C11_25 1_555 1_555
C12_25 C11_25 1_555 1_555
H10_26 C12_25 1_555 1_555
C13_25 C12_25 1_555 1_555
C14_25 C13_25 1_555 1_555
H11_25 C14_25 1_555 1_555
C15_25 N3_25 1_555 1_555
H12_25 C15_25 1_555 1_555
C16_26 H13_26 1_555 1_555
C17_26 C16_26 1_555 1_555
H14_26 C17_26 1_555 1_555
C18_25 C13_25 1_555 1_555
C19_25 C18_25 1_555 1_555
H15_25 C19_25 1_555 1_555
C20_25 N6_12 1_555 1_555
H16_25 C20_25 1_555 1_555
O1_23 Cd3_7 1_555 1_555
S1_23 O1_23 1_555 1_555
C21_23 S1_23 1_555 1_555
O2_23 S1_23 1_555 1_555
O3_21 S1_23 1_555 1_555
F1_23 C21_23 1_555 1_555
F2_25 C21_23 1_555 1_555
F3_21 C21_23 1_555 1_555
S2_25 O4_25 1_555 1_555
O4_25 Cd3_7 1_555 1_555
O5_25 S2_25 1_555 1_555
O6_25 S2_25 1_555 1_555
C22_25 S2_25 1_555 1_555
F4_25 C22_25 1_555 1_555
F5_25 C22_25 1_555 1_555
F6_25 C22_25 1_555 1_555
C4_26 C5_26 1_555 1_555
C7_25 C8_25 1_555 1_555
C9_26 C10_26 1_555 1_555
C14_25 C15_25 1_555 1_555
C17_26 C18_25 1_555 1_555
C19_25 C20_25 1_555 1_555
Cd3_8 N1_27 1_555 1_555
N1_27 C1_26 1_555 1_555
N5_16 C6_26 1_555 1_555
N3_26 Cd3_8 1_555 1_555
N6_11 C16_27 1_555 1_555
C1_26 H1_26 1_555 1_555
C2_26 C1_26 1_555 1_555
H2_26 C2_26 1_555 1_555
C3_27 C2_26 1_555 1_555
C4_27 C3_27 1_555 1_555
H3_27 C4_27 1_555 1_555
C5_27 N1_27 1_555 1_555
H4_27 C5_27 1_555 1_555
C6_26 H5_26 1_555 1_555
C7_26 C6_26 1_555 1_555
H6_26 C7_26 1_555 1_555
C8_26 C3_27 1_555 1_555
C9_27 C8_26 1_555 1_555
H7_27 C9_27 1_555 1_555
C10_27 N5_16 1_555 1_555
H8_25 C10_27 1_555 1_555
C11_26 N3_26 1_555 1_555
H9_26 C11_26 1_555 1_555
C12_26 C11_26 1_555 1_555
H10_27 C12_26 1_555 1_555
C13_26 C12_26 1_555 1_555
C14_26 C13_26 1_555 1_555
H11_26 C14_26 1_555 1_555
C15_26 N3_26 1_555 1_555
H12_26 C15_26 1_555 1_555
C16_27 H13_27 1_555 1_555
C17_27 C16_27 1_555 1_555
H14_27 C17_27 1_555 1_555
C18_26 C13_26 1_555 1_555
C19_26 C18_26 1_555 1_555
H15_26 C19_26 1_555 1_555
C20_26 N6_11 1_555 1_555
H16_26 C20_26 1_555 1_555
O1_24 Cd3_8 1_555 1_555
S1_24 O1_24 1_555 1_555
C21_24 S1_24 1_555 1_555
O2_24 S1_24 1_555 1_555
O3_22 S1_24 1_555 1_555
F1_24 C21_24 1_555 1_555
F2_26 C21_24 1_555 1_555
F3_22 C21_24 1_555 1_555
S2_26 O4_26 1_555 1_555
O4_26 Cd3_8 1_555 1_555
O5_26 S2_26 1_555 1_555
O6_26 S2_26 1_555 1_555
C22_26 S2_26 1_555 1_555
F4_26 C22_26 1_555 1_555
F5_26 C22_26 1_555 1_555
F6_26 C22_26 1_555 1_555
C4_27 C5_27 1_555 1_555
C7_26 C8_26 1_555 1_555
C9_27 C10_27 1_555 1_555
C14_26 C15_26 1_555 1_555
C17_27 C18_26 1_555 1_555
C19_26 C20_26 1_555 1_555
Cd3_5 N1_28 1_555 1_555
N1_28 C1_27 1_555 1_555
N5_13 C6_27 1_555 1_555
N3_27 Cd3_5 1_555 1_555
N6_10 C16_28 1_555 1_555
C1_27 H1_27 1_555 1_555
C2_27 C1_27 1_555 1_555
H2_27 C2_27 1_555 1_555
C3_28 C2_27 1_555 1_555
C4_28 C3_28 1_555 1_555
H3_28 C4_28 1_555 1_555
C5_28 N1_28 1_555 1_555
H4_28 C5_28 1_555 1_555
C6_27 H5_27 1_555 1_555
C7_27 C6_27 1_555 1_555
H6_27 C7_27 1_555 1_555
C8_27 C3_28 1_555 1_555
C9_28 C8_27 1_555 1_555
H7_28 C9_28 1_555 1_555
C10_28 N5_13 1_555 1_555
H8_26 C10_28 1_555 1_555
C11_27 N3_27 1_555 1_555
H9_27 C11_27 1_555 1_555
C12_27 C11_27 1_555 1_555
H10_28 C12_27 1_555 1_555
C13_27 C12_27 1_555 1_555
C14_27 C13_27 1_555 1_555
H11_27 C14_27 1_555 1_555
C15_27 N3_27 1_555 1_555
H12_27 C15_27 1_555 1_555
C16_28 H13_28 1_555 1_555
C17_28 C16_28 1_555 1_555
H14_28 C17_28 1_555 1_555
C18_27 C13_27 1_555 1_555
C19_27 C18_27 1_555 1_555
H15_27 C19_27 1_555 1_555
C20_27 N6_10 1_555 1_555
H16_27 C20_27 1_555 1_555
O1_25 Cd3_5 1_555 1_555
S1_25 O1_25 1_555 1_555
C21_25 S1_25 1_555 1_555
O2_25 S1_25 1_555 1_555
O3_23 S1_25 1_555 1_555
F1_25 C21_25 1_555 1_555
F2_27 C21_25 1_555 1_555
F3_23 C21_25 1_555 1_555
S2_27 O4_27 1_555 1_555
O4_27 Cd3_5 1_555 1_555
O5_27 S2_27 1_555 1_555
O6_27 S2_27 1_555 1_555
C22_27 S2_27 1_555 1_555
F4_27 C22_27 1_555 1_555
F5_27 C22_27 1_555 1_555
F6_27 C22_27 1_555 1_555
C4_28 C5_28 1_555 1_555
C7_27 C8_27 1_555 1_555
C9_28 C10_28 1_555 1_555
C14_27 C15_27 1_555 1_555
C17_28 C18_27 1_555 1_555
C19_27 C20_27 1_555 1_555
N5_10 C6_28 1_555 1_555
N6_13 C16_29 1_555 1_555
C1_28 H1_28 1_555 1_555
C2_28 C1_28 1_555 1_555
H2_28 C2_28 1_555 1_555
C6_28 H5_28 1_555 1_555
C7_28 C6_28 1_555 1_555
H6_28 C7_28 1_555 1_555
C11_28 N3_28 1_555 1_555
H9_28 C11_28 1_555 1_555
C12_28 C11_28 1_555 1_555
H10_29 C12_28 1_555 1_555
C13_28 C12_28 1_555 1_555
C14_28 C13_28 1_555 1_555
H11_28 C14_28 1_555 1_555
C15_28 N3_28 1_555 1_555
H12_28 C15_28 1_555 1_555
C16_29 H13_29 1_555 1_555
C17_29 C16_29 1_555 1_555
H14_29 C17_29 1_555 1_555
C18_28 C13_28 1_555 1_555
C19_28 C18_28 1_555 1_555
H15_28 C19_28 1_555 1_555
C20_28 N6_13 1_555 1_555
H16_28 C20_28 1_555 1_555
S1_26 O1_26 1_555 1_555
C21_26 S1_26 1_555 1_555
O2_26 S1_26 1_555 1_555
F1_26 C21_26 1_555 1_555
F2_28 C21_26 1_555 1_555
C7_28 C8_28 1_555 1_555
C14_28 C15_28 1_555 1_555
C17_29 C18_28 1_555 1_555
C19_28 C20_28 1_555 1_555
Cd2_7 N1_29 1_555 1_555
C4_29 C3_29 1_555 1_555
H3_29 C4_29 1_555 1_555
C5_29 N1_29 1_555 1_555
H4_29 C5_29 1_555 1_555
H7_29 C9_29 1_555 1_555
S2_28 O4_28 1_555 1_555
O4_28 Cd2_7 1_555 1_555
O5_28 S2_28 1_555 1_555
O6_28 S2_28 1_555 1_555
C22_28 S2_28 1_555 1_555
F4_28 C22_28 1_555 1_555
F5_28 C22_28 1_555 1_555
F6_28 C22_28 1_555 1_555
C4_29 C5_29 1_555 1_555
C9_29 C10_29 1_555 1_555
Cd2_6 N1_30 1_555 1_555
N1_30 C1_29 1_555 1_555
N5_11 C6_29 1_555 1_555
N3_29 Cd2_6 1_555 1_555
N6_16 C16_30 1_555 1_555
C1_29 H1_29 1_555 1_555
C2_29 C1_29 1_555 1_555
H2_29 C2_29 1_555 1_555
C3_30 C2_29 1_555 1_555
C4_30 C3_30 1_555 1_555
H3_30 C4_30 1_555 1_555
C5_30 N1_30 1_555 1_555
H4_30 C5_30 1_555 1_555
C6_29 H5_29 1_555 1_555
C7_29 C6_29 1_555 1_555
H6_29 C7_29 1_555 1_555
C8_29 C3_30 1_555 1_555
C9_30 C8_29 1_555 1_555
H7_30 C9_30 1_555 1_555
C10_30 N5_11 1_555 1_555
C11_29 N3_29 1_555 1_555
H9_29 C11_29 1_555 1_555
C12_29 C11_29 1_555 1_555
H10_30 C12_29 1_555 1_555
C13_29 C12_29 1_555 1_555
C14_29 C13_29 1_555 1_555
H11_29 C14_29 1_555 1_555
C15_29 N3_29 1_555 1_555
H12_29 C15_29 1_555 1_555
C16_30 H13_30 1_555 1_555
C17_30 C16_30 1_555 1_555
H14_30 C17_30 1_555 1_555
C18_29 C13_29 1_555 1_555
C19_29 C18_29 1_555 1_555
H15_29 C19_29 1_555 1_555
C20_29 N6_16 1_555 1_555
H16_29 C20_29 1_555 1_555
O1_27 Cd2_6 1_555 1_555
S1_27 O1_27 1_555 1_555
C21_27 S1_27 1_555 1_555
O2_27 S1_27 1_555 1_555
F1_27 C21_27 1_555 1_555
F2_29 C21_27 1_555 1_555
S2_29 O4_29 1_555 1_555
O4_29 Cd2_6 1_555 1_555
O5_29 S2_29 1_555 1_555
O6_29 S2_29 1_555 1_555
C22_29 S2_29 1_555 1_555
F4_29 C22_29 1_555 1_555
F5_29 C22_29 1_555 1_555
F6_29 C22_29 1_555 1_555
C4_30 C5_30 1_555 1_555
C7_29 C8_29 1_555 1_555
C9_30 C10_30 1_555 1_555
C14_29 C15_29 1_555 1_555
C17_30 C18_29 1_555 1_555
C19_29 C20_29 1_555 1_555
N6_15 C16_31 1_555 1_555
C16_31 H13_31 1_555 1_555
C17_31 C16_31 1_555 1_555
H14_31 C17_31 1_555 1_555
S1_28 O1_28 1_555 1_555
C21_28 S1_28 1_555 1_555
O2_28 S1_28 1_555 1_555
F1_28 C21_28 1_555 1_555
Cd2_5 N1_31 1_555 1_555
N1_31 C1_30 1_555 1_555
N5_12 C6_30 1_555 1_555
N3_30 Cd2_5 1_555 1_555
C1_30 H1_30 1_555 1_555
C2_30 C1_30 1_555 1_555
H2_30 C2_30 1_555 1_555
C3_31 C2_30 1_555 1_555
C4_31 C3_31 1_555 1_555
H3_31 C4_31 1_555 1_555
C5_31 N1_31 1_555 1_555
H4_31 C5_31 1_555 1_555
C6_30 H5_30 1_555 1_555
C7_30 C6_30 1_555 1_555
H6_30 C7_30 1_555 1_555
C8_30 C3_31 1_555 1_555
C9_31 C8_30 1_555 1_555
H7_31 C9_31 1_555 1_555
C10_31 N5_12 1_555 1_555
C11_30 N3_30 1_555 1_555
H9_30 C11_30 1_555 1_555
C12_30 C11_30 1_555 1_555
C13_30 C12_30 1_555 1_555
C14_30 C13_30 1_555 1_555
H11_30 C14_30 1_555 1_555
C15_30 N3_30 1_555 1_555
H12_30 C15_30 1_555 1_555
C18_30 C13_30 1_555 1_555
C19_30 C18_30 1_555 1_555
H15_30 C19_30 1_555 1_555
H16_30 C20_30 1_555 1_555
S2_30 O4_30 1_555 1_555
O4_30 Cd2_5 1_555 1_555
O5_30 S2_30 1_555 1_555
O6_30 S2_30 1_555 1_555
C22_30 S2_30 1_555 1_555
F4_30 C22_30 1_555 1_555
F5_30 C22_30 1_555 1_555
F6_30 C22_30 1_555 1_555
C4_31 C5_31 1_555 1_555
C7_30 C8_30 1_555 1_555
C9_31 C10_31 1_555 1_555
C14_30 C15_30 1_555 1_555
C19_30 C20_30 1_555 1_555
Cd2_8 N1_32 1_555 1_555
N1_32 C1_31 1_555 1_555
N5_9 C6_31 1_555 1_555
N3_31 Cd2_8 1_555 1_555
N6_14 C16_32 1_555 1_555
C1_31 H1_31 1_555 1_555
C2_31 C1_31 1_555 1_555
H2_31 C2_31 1_555 1_555
C3_32 C2_31 1_555 1_555
C4_32 C3_32 1_555 1_555
H3_32 C4_32 1_555 1_555
C5_32 N1_32 1_555 1_555
H4_32 C5_32 1_555 1_555
C6_31 H5_31 1_555 1_555
C7_31 C6_31 1_555 1_555
H6_31 C7_31 1_555 1_555
C8_31 C3_32 1_555 1_555
C9_32 C8_31 1_555 1_555
H7_32 C9_32 1_555 1_555
C10_32 N5_9 1_555 1_555
C11_31 N3_31 1_555 1_555
H9_31 C11_31 1_555 1_555
C12_31 C11_31 1_555 1_555
H10_32 C12_31 1_555 1_555
C13_31 C12_31 1_555 1_555
C14_31 C13_31 1_555 1_555
H11_31 C14_31 1_555 1_555
C15_31 N3_31 1_555 1_555
H12_31 C15_31 1_555 1_555
C16_32 H13_32 1_555 1_555
C17_32 C16_32 1_555 1_555
H14_32 C17_32 1_555 1_555
C18_31 C13_31 1_555 1_555
C19_31 C18_31 1_555 1_555
H15_31 C19_31 1_555 1_555
C20_31 N6_14 1_555 1_555
H16_31 C20_31 1_555 1_555
O1_29 Cd2_8 1_555 1_555
S1_29 O1_29 1_555 1_555
C21_29 S1_29 1_555 1_555
O2_29 S1_29 1_555 1_555
F1_29 C21_29 1_555 1_555
F2_31 C21_29 1_555 1_555
S2_31 O4_31 1_555 1_555
O4_31 Cd2_8 1_555 1_555
O5_31 S2_31 1_555 1_555
O6_31 S2_31 1_555 1_555
C22_31 S2_31 1_555 1_555
F4_31 C22_31 1_555 1_555
F5_31 C22_31 1_555 1_555
F6_31 C22_31 1_555 1_555
C4_32 C5_32 1_555 1_555
C7_31 C8_31 1_555 1_555
C9_32 C10_32 1_555 1_555
C14_31 C15_31 1_555 1_555
C17_32 C18_31 1_555 1_555
C19_31 C20_31 1_555 1_555
S1_30 O1_30 1_555 1_555
C21_30 S1_30 1_555 1_555
O2_30 S1_30 1_555 1_555
O3_26 S1_30 1_555 1_555
F1_30 C21_30 1_555 1_555
F3_26 C21_30 1_555 1_555
N2_16 C6_32 1_555 1_555
C2_32 C1_32 1_555 1_555
H2_32 C2_32 1_555 1_555
C6_32 H5_32 1_555 1_555
C7_32 C6_32 1_555 1_555
H6_32 C7_32 1_555 1_555
S1_31 O1_31 1_555 1_555
C21_31 S1_31 1_555 1_555
O2_31 S1_31 1_555 1_555
O3_27 S1_31 1_555 1_555
F1_31 C21_31 1_555 1_555
F2_32 C21_31 1_555 1_555
F3_27 C21_31 1_555 1_555
C7_32 C8_32 1_555 1_555
S1_32 O1_32 1_555 1_555
C21_32 S1_32 1_555 1_555
O2_32 S1_32 1_555 1_555
O3_30 S1_32 1_555 1_555
F1_32 C21_32 1_555 1_555
F3_30 C21_32 1_555 1_555
C11_32 N3_32 1_555 1_555
H9_32 C11_32 1_555 1_555
C12_32 C11_32 1_555 1_555
C13_32 C12_32 1_555 1_555
C14_32 C13_32 1_555 1_555
C15_32 N3_32 1_555 1_555
C18_32 C13_32 1_555 1_555
C19_32 C18_32 1_555 1_555
H15_32 C19_32 1_555 1_555
H16_32 C20_32 1_555 1_555
S2_32 O4_32 1_555 1_555
O5_32 S2_32 1_555 1_555
O6_32 S2_32 1_555 1_555
C22_32 S2_32 1_555 1_555
F4_32 C22_32 1_555 1_555
F5_32 C22_32 1_555 1_555
F6_32 C22_32 1_555 1_555
C14_32 C15_32 1_555 1_555
C19_32 C20_32 1_555 1_555

#END
