
###############################################################################
#
# This file contains modified crystal structure data generated from the
# MOF subset of the Cambridge Structural Database (CSD) v543 
# hosted by the Cambridge Crystallographic Data Centre (CCDC).
#
# This work is licensed under the Creative Commons
# Attribution-NonCommercial-ShareAlike 4.0 International License.
# To view a copy of this license, visit
# http://creativecommons.org/licenses/by-nc-sa/4.0/
# or send a letter to
# Creative Commons, PO Box 1866, Mountain View, CA 94042, USA.
#
# CIF created using the CSD Python API on 29 September 2022
# The structure has been converted into the P1 space group
# The structure has a 3D framework
# The original CSD entry HEXVEM is in the cubic crystal system
# The framework has been calculated to contain at least 10.0% void space
# The void calculation uses a probe of radius 1.32A, grid spacing 0.4
# H atom positions have been added when not included in the experimental data
# Generated hydrogen atom positions removed from atoms on special positions
#
###############################################################################

data_HEXVEM
_chemical_formula_moiety         '(C768 H840 Cu72 N192 O264)n'
_symmetry_cell_setting           triclinic
_symmetry_space_group_name_H-M   'P 1'
_symmetry_Int_Tables_number      1
_space_group_name_Hall           'P 1'
loop_
_symmetry_equiv_pos_site_id
_symmetry_equiv_pos_as_xyz
1 x,y,z
_cell_length_a                   49.6188(8)
_cell_length_b                   49.6188(8)
_cell_length_c                   49.6188(8)
_cell_angle_alpha                90
_cell_angle_beta                 90
_cell_angle_gamma                90
_cell_volume                     122163
loop_
_atom_site_label
_atom_site_type_symbol
_atom_site_fract_x
_atom_site_fract_y
_atom_site_fract_z
Cu1 Cu 0.26322(3) 0.0000 0.22685(3)
O1 O 0.23492(14) 0.02611(16) 0.21542(13)
O2 O 0.28261(17) 0.0000 0.18776(16)
O3 O 0.21677(13) 0.02749(13) 0.25991(15)
N1 N 0.1829(2) 0.1416(2) 0.1673(4)
N2 N 0.1589(2) 0.1288(2) 0.2035(2)
H1 H 0.1448 0.1312 0.2137
C1 C 0.1605(5) 0.1484(6) 0.1843(3)
C2 C 0.1735(3) 0.1057(3) 0.2120(4)
C3 C 0.1912(4) 0.0937(4) 0.1951(3)
H2 H 0.1940 0.1013 0.1780
C4 C 0.2050(2) 0.0712(4) 0.2017(4)
H3 H 0.2164 0.0633 0.1888
C5 C 0.2031(3) 0.0591(3) 0.2271(3)
C6 C 0.1852(4) 0.0710(3) 0.2423(3)
H4 H 0.1822 0.0630 0.2592
C7 C 0.1702(3) 0.0938(4) 0.2366(3)
H5 H 0.1580 0.1009 0.2493
C8 C 0.2205(3) 0.0357(2) 0.2319(3)
Cu2 Cu 0.0000 0.22685(3) 0.26322(3)
Cu3 Cu 0.22685(3) 0.26322(3) 0.0000
Cu4 Cu 0.23678(3) 0.0000 0.27315(3)
Cu5 Cu 0.0000 0.27315(3) 0.23678(3)
Cu6 Cu 0.27315(3) 0.23678(3) 0.0000
O4 O 0.02611(16) 0.21542(13) 0.23492(14)
O5 O 0.21542(13) 0.23492(14) 0.02611(16)
O11 O 0.0000 0.18776(16) 0.28261(17)
O12 O 0.18776(16) 0.28261(17) 0.0000
O13 O 0.02749(13) 0.25991(15) 0.21677(13)
O14 O 0.25991(15) 0.21677(13) 0.02749(13)
O19 O 0.28323(13) 0.02749(13) 0.24009(15)
O21 O 0.02749(13) 0.24009(15) 0.28323(13)
O23 O 0.24009(15) 0.28323(13) 0.02749(13)
N3 N 0.1673(4) 0.1829(2) 0.1416(2)
N4 N 0.1416(2) 0.1673(4) 0.1829(2)
N8 N 0.1288(2) 0.2035(2) 0.1589(2)
N9 N 0.2035(2) 0.1589(2) 0.1288(2)
H6 H 0.1312 0.2137 0.1448
H7 H 0.2137 0.1448 0.1312
C9 C 0.1843(3) 0.1605(5) 0.1484(6)
C10 C 0.1484(6) 0.1843(3) 0.1605(5)
C14 C 0.1057(3) 0.2120(4) 0.1735(3)
C15 C 0.2120(4) 0.1735(3) 0.1057(3)
C19 C 0.0937(4) 0.1951(3) 0.1912(4)
C20 C 0.1951(3) 0.1912(4) 0.0937(4)
H11 H 0.1013 0.1780 0.1940
H12 H 0.1780 0.1940 0.1013
C24 C 0.0712(4) 0.2017(4) 0.2050(2)
C25 C 0.2017(4) 0.2050(2) 0.0712(4)
H16 H 0.0633 0.1888 0.2164
H17 H 0.1888 0.2164 0.0633
C29 C 0.0591(3) 0.2271(3) 0.2031(3)
C30 C 0.2271(3) 0.2031(3) 0.0591(3)
C34 C 0.0710(3) 0.2423(3) 0.1852(4)
C35 C 0.2423(3) 0.1852(4) 0.0710(3)
H21 H 0.0630 0.2592 0.1822
H22 H 0.2592 0.1822 0.0630
C39 C 0.0938(4) 0.2366(3) 0.1702(3)
C40 C 0.2366(3) 0.1702(3) 0.0938(4)
H26 H 0.1009 0.2493 0.1580
H27 H 0.2493 0.1580 0.1009
C44 C 0.0357(2) 0.2319(3) 0.2205(3)
C45 C 0.2319(3) 0.2205(3) 0.0357(2)
Cu3_2 Cu 0.22685(3) 0.26322(3) 1.0000
Cu6_2 Cu 0.27315(3) 0.23678(3) 1.0000
O10 O 0.21542(13) 0.23492(14) 0.97389(16)
O12_2 O 0.18776(16) 0.28261(17) 1.0000
O22 O 0.24009(15) 0.28323(13) 0.97251(13)
Cu1_2 Cu 0.26322(3) 1.0000 0.22685(3)
O2_2 O 0.28261(17) 1.0000 0.18776(16)
Cu4_2 Cu 0.23678(3) 1.0000 0.27315(3)
Cu7 Cu 0.0000 0.77315(3) 0.26322(3)
Cu8 Cu 0.0000 0.72685(3) 0.23678(3)
Cu9 Cu 0.22685(3) 0.73678(3) 0.0000
Cu10 Cu 0.27315(3) 0.76322(3) 0.0000
O6 O 0.23492(14) 0.97389(16) 0.21542(13)
O7 O 0.02611(16) 0.78458(13) 0.23492(14)
O8 O 0.21542(13) 0.76508(14) 0.02611(16)
O15 O 0.21677(13) 0.97251(13) 0.25991(15)
O16 O 0.02749(13) 0.74009(15) 0.21677(13)
O17 O 0.25991(15) 0.78323(13) 0.02749(13)
O18 O 0.28323(13) 0.97251(13) 0.24009(15)
N5 N 0.1829(2) 0.8584(2) 0.1673(4)
N6 N 0.1673(4) 0.8171(2) 0.1416(2)
N7 N 0.1416(2) 0.8327(4) 0.1829(2)
N10 N 0.1589(2) 0.8712(2) 0.2035(2)
N11 N 0.1288(2) 0.7965(2) 0.1589(2)
N12 N 0.2035(2) 0.8411(2) 0.1288(2)
H8 H 0.1448 0.8688 0.2137
H9 H 0.1312 0.7863 0.1448
H10 H 0.2137 0.8552 0.1312
C11 C 0.1605(5) 0.8516(6) 0.1843(3)
C12 C 0.1843(3) 0.8395(5) 0.1484(6)
C13 C 0.1484(6) 0.8157(3) 0.1605(5)
C16 C 0.1735(3) 0.8943(3) 0.2120(4)
C17 C 0.1057(3) 0.7880(4) 0.1735(3)
C18 C 0.2120(4) 0.8265(3) 0.1057(3)
C21 C 0.1912(4) 0.9063(4) 0.1951(3)
C22 C 0.0937(4) 0.8049(3) 0.1912(4)
C23 C 0.1951(3) 0.8088(4) 0.0937(4)
H13 H 0.1940 0.8987 0.1780
H14 H 0.1013 0.8220 0.1940
H15 H 0.1780 0.8060 0.1013
C26 C 0.2050(2) 0.9288(4) 0.2017(4)
C27 C 0.0712(4) 0.7983(4) 0.2050(2)
C28 C 0.2017(4) 0.7950(2) 0.0712(4)
H18 H 0.2164 0.9367 0.1888
H19 H 0.0633 0.8112 0.2164
H20 H 0.1888 0.7836 0.0633
C31 C 0.2031(3) 0.9409(3) 0.2271(3)
C32 C 0.0591(3) 0.7729(3) 0.2031(3)
C33 C 0.2271(3) 0.7969(3) 0.0591(3)
C36 C 0.1852(4) 0.9290(3) 0.2423(3)
C37 C 0.0710(3) 0.7577(3) 0.1852(4)
C38 C 0.2423(3) 0.8148(4) 0.0710(3)
H23 H 0.1822 0.9370 0.2592
H24 H 0.0630 0.7408 0.1822
H25 H 0.2592 0.8178 0.0630
C41 C 0.1702(3) 0.9062(4) 0.2366(3)
C42 C 0.0938(4) 0.7634(3) 0.1702(3)
C43 C 0.2366(3) 0.8298(3) 0.0938(4)
H28 H 0.1580 0.8991 0.2493
H29 H 0.1009 0.7507 0.1580
H30 H 0.2493 0.8420 0.1009
C46 C 0.2205(3) 0.9643(2) 0.2319(3)
C47 C 0.0357(2) 0.7681(3) 0.2205(3)
C48 C 0.2319(3) 0.7795(3) 0.0357(2)
Cu9_2 Cu 0.22685(3) 0.73678(3) 1.0000
Cu10_2 Cu 0.27315(3) 0.76322(3) 1.0000
Cu2_2 Cu 1.0000 0.22685(3) 0.26322(3)
Cu5_2 Cu 1.0000 0.27315(3) 0.23678(3)
O9 O 0.97389(16) 0.21542(13) 0.23492(14)
O11_2 O 1.0000 0.18776(16) 0.28261(17)
O20 O 0.97251(13) 0.24009(15) 0.28323(13)
Cu7_2 Cu 1.0000 0.77315(3) 0.26322(3)
Cu8_2 Cu 1.0000 0.72685(3) 0.23678(3)
Cu7_3 Cu 0.26322(3) 0.0000 0.77315(3)
Cu8_3 Cu 0.23678(3) 0.0000 0.72685(3)
Cu9_3 Cu 0.0000 0.22685(3) 0.73678(3)
Cu10_3 Cu -0.0000 0.27315(3) 0.76322(3)
O7_2 O 0.23492(14) 0.02611(16) 0.78458(13)
O8_2 O 0.02611(16) 0.21542(13) 0.76508(14)
O15_2 O 0.25991(15) 0.21677(13) 0.97251(13)
O16_2 O 0.21677(13) 0.02749(13) 0.74009(15)
O17_2 O 0.02749(13) 0.25991(15) 0.78323(13)
N5_2 N 0.1673(4) 0.1829(2) 0.8584(2)
N6_2 N 0.1416(2) 0.1673(4) 0.8171(2)
N7_2 N 0.1829(2) 0.1416(2) 0.8327(4)
N10_2 N 0.2035(2) 0.1589(2) 0.8712(2)
N11_2 N 0.1589(2) 0.1288(2) 0.7965(2)
N12_2 N 0.1288(2) 0.2035(2) 0.8411(2)
H8_2 H 0.2137 0.1448 0.8688
H9_2 H 0.1448 0.1312 0.7863
H10_2 H 0.1312 0.2137 0.8552
C11_2 C 0.1843(3) 0.1605(5) 0.8516(6)
C12_2 C 0.1484(6) 0.1843(3) 0.8395(5)
C13_2 C 0.1605(5) 0.1484(6) 0.8157(3)
C16_2 C 0.2120(4) 0.1735(3) 0.8943(3)
C17_2 C 0.1735(3) 0.1057(3) 0.7880(4)
C18_2 C 0.1057(3) 0.2120(4) 0.8265(3)
C21_2 C 0.1951(3) 0.1912(4) 0.9063(4)
C22_2 C 0.1912(4) 0.0937(4) 0.8049(3)
C23_2 C 0.0937(4) 0.1951(3) 0.8088(4)
H13_2 H 0.1780 0.1940 0.8987
H14_2 H 0.1940 0.1013 0.8220
H15_2 H 0.1013 0.1780 0.8060
C26_2 C 0.2017(4) 0.2050(2) 0.9288(4)
C27_2 C 0.2050(2) 0.0712(4) 0.7983(4)
C28_2 C 0.0712(4) 0.2017(4) 0.7950(2)
H18_2 H 0.1888 0.2164 0.9367
H19_2 H 0.2164 0.0633 0.8112
H20_2 H 0.0633 0.1888 0.7836
C31_2 C 0.2271(3) 0.2031(3) 0.9409(3)
C32_2 C 0.2031(3) 0.0591(3) 0.7729(3)
C33_2 C 0.0591(3) 0.2271(3) 0.7969(3)
C36_2 C 0.2423(3) 0.1852(4) 0.9290(3)
C37_2 C 0.1852(4) 0.0710(3) 0.7577(3)
C38_2 C 0.0710(3) 0.2423(3) 0.8148(4)
H23_2 H 0.2592 0.1822 0.9370
H24_2 H 0.1822 0.0630 0.7408
H25_2 H 0.0630 0.2592 0.8178
C41_2 C 0.2366(3) 0.1702(3) 0.9062(4)
C42_2 C 0.1702(3) 0.0938(4) 0.7634(3)
C43_2 C 0.0938(4) 0.2366(3) 0.8298(3)
H28_2 H 0.2493 0.1580 0.8991
H29_2 H 0.1580 0.1009 0.7507
H30_2 H 0.1009 0.2493 0.8420
C46_2 C 0.2319(3) 0.2205(3) 0.9643(2)
C47_2 C 0.2205(3) 0.0357(2) 0.7681(3)
C48_2 C 0.0357(2) 0.2319(3) 0.7795(3)
Cu7_4 Cu 0.26322(3) 1.0000 0.77315(3)
Cu8_4 Cu 0.23678(3) 1.0000 0.72685(3)
Cu9_4 Cu 1.0000 0.22685(3) 0.73678(3)
Cu10_4 Cu 1.0000 0.27315(3) 0.76322(3)
Cu7_5 Cu 0.77315(3) 0.26322(3) 0.0000
Cu8_5 Cu 0.72685(3) 0.23678(3) -0.0000
Cu9_5 Cu 0.73678(3) 0.0000 0.22685(3)
Cu10_5 Cu 0.76322(3) 0.0000 0.27315(3)
O7_3 O 0.78458(13) 0.23492(14) 0.02611(16)
O8_3 O 0.76508(14) 0.02611(16) 0.21542(13)
O15_3 O 0.97251(13) 0.25991(15) 0.21677(13)
O16_3 O 0.74009(15) 0.21677(13) 0.02749(13)
O17_3 O 0.78323(13) 0.02749(13) 0.25991(15)
N5_3 N 0.8584(2) 0.1673(4) 0.1829(2)
N6_3 N 0.8171(2) 0.1416(2) 0.1673(4)
N7_3 N 0.8327(4) 0.1829(2) 0.1416(2)
N10_3 N 0.8712(2) 0.2035(2) 0.1589(2)
N11_3 N 0.7965(2) 0.1589(2) 0.1288(2)
N12_3 N 0.8411(2) 0.1288(2) 0.2035(2)
H8_3 H 0.8688 0.2137 0.1448
H9_3 H 0.7863 0.1448 0.1312
H10_3 H 0.8552 0.1312 0.2137
C11_3 C 0.8516(6) 0.1843(3) 0.1605(5)
C12_3 C 0.8395(5) 0.1484(6) 0.1843(3)
C13_3 C 0.8157(3) 0.1605(5) 0.1484(6)
C16_3 C 0.8943(3) 0.2120(4) 0.1735(3)
C17_3 C 0.7880(4) 0.1735(3) 0.1057(3)
C18_3 C 0.8265(3) 0.1057(3) 0.2120(4)
C21_3 C 0.9063(4) 0.1951(3) 0.1912(4)
C22_3 C 0.8049(3) 0.1912(4) 0.0937(4)
C23_3 C 0.8088(4) 0.0937(4) 0.1951(3)
H13_3 H 0.8987 0.1780 0.1940
H14_3 H 0.8220 0.1940 0.1013
H15_3 H 0.8060 0.1013 0.1780
C26_3 C 0.9288(4) 0.2017(4) 0.2050(2)
C27_3 C 0.7983(4) 0.2050(2) 0.0712(4)
C28_3 C 0.7950(2) 0.0712(4) 0.2017(4)
H18_3 H 0.9367 0.1888 0.2164
H19_3 H 0.8112 0.2164 0.0633
H20_3 H 0.7836 0.0633 0.1888
C31_3 C 0.9409(3) 0.2271(3) 0.2031(3)
C32_3 C 0.7729(3) 0.2031(3) 0.0591(3)
C33_3 C 0.7969(3) 0.0591(3) 0.2271(3)
C36_3 C 0.9290(3) 0.2423(3) 0.1852(4)
C37_3 C 0.7577(3) 0.1852(4) 0.0710(3)
C38_3 C 0.8148(4) 0.0710(3) 0.2423(3)
H23_3 H 0.9370 0.2592 0.1822
H24_3 H 0.7408 0.1822 0.0630
H25_3 H 0.8178 0.0630 0.2592
C41_3 C 0.9062(4) 0.2366(3) 0.1702(3)
C42_3 C 0.7634(3) 0.1702(3) 0.0938(4)
C43_3 C 0.8298(3) 0.0938(4) 0.2366(3)
H28_3 H 0.8991 0.2493 0.1580
H29_3 H 0.7507 0.1580 0.1009
H30_3 H 0.8420 0.1009 0.2493
C46_3 C 0.9643(2) 0.2319(3) 0.2205(3)
C47_3 C 0.7681(3) 0.2205(3) 0.0357(2)
C48_3 C 0.7795(3) 0.0357(2) 0.2319(3)
Cu7_6 Cu 0.77315(3) 0.26322(3) 1.0000
Cu8_6 Cu 0.72685(3) 0.23678(3) 1.0000
Cu9_6 Cu 0.73678(3) 1.0000 0.22685(3)
Cu10_6 Cu 0.76322(3) 1.0000 0.27315(3)
Cu1_3 Cu 0.26322(3) 0.5000 0.72685(3)
O1_2 O 0.23492(14) 0.52611(16) 0.71542(13)
O2_3 O 0.28261(17) 0.5000 0.68776(16)
O3_2 O 0.21677(13) 0.52749(13) 0.75991(15)
N1_2 N 0.1829(2) 0.6416(2) 0.6673(4)
N2_2 N 0.1589(2) 0.6288(2) 0.7035(2)
H1_2 H 0.1448 0.6312 0.7137
C1_2 C 0.1605(5) 0.6484(6) 0.6843(3)
C2_2 C 0.1735(3) 0.6057(3) 0.7120(4)
C3_2 C 0.1912(4) 0.5937(4) 0.6951(3)
H2_2 H 0.1940 0.6013 0.6780
C4_2 C 0.2050(2) 0.5712(4) 0.7017(4)
H3_2 H 0.2164 0.5633 0.6888
C5_2 C 0.2031(3) 0.5591(3) 0.7271(3)
C6_2 C 0.1852(4) 0.5710(3) 0.7423(3)
H4_2 H 0.1822 0.5630 0.7592
C7_2 C 0.1702(3) 0.5938(4) 0.7366(3)
H5_2 H 0.1580 0.6009 0.7493
C8_2 C 0.2205(3) 0.5357(2) 0.7319(3)
Cu2_3 Cu 0.0000 0.72685(3) 0.76322(3)
Cu3_3 Cu 0.22685(3) 0.76322(3) 0.5000
Cu4_3 Cu 0.23678(3) 0.5000 0.77315(3)
Cu5_3 Cu 0.0000 0.77315(3) 0.73678(3)
Cu6_3 Cu 0.27315(3) 0.73678(3) 0.5000
Cu9_7 Cu 0.22685(3) 0.23678(3) 0.5000
Cu10_7 Cu 0.27315(3) 0.26322(3) 0.5000
O4_2 O 0.02611(16) 0.71542(13) 0.73492(14)
O5_2 O 0.21542(13) 0.73492(14) 0.52611(16)
O6_2 O 0.23492(14) 0.47389(16) 0.71542(13)
O7_4 O 0.02611(16) 0.28458(13) 0.73492(14)
O8_4 O 0.21542(13) 0.26508(14) 0.52611(16)
O10_2 O 0.21542(13) 0.73492(14) 0.47389(16)
O11_3 O 0.0000 0.68776(16) 0.78261(17)
O12_3 O 0.18776(16) 0.78261(17) 0.5000
O13_2 O 0.02749(13) 0.75991(15) 0.71677(13)
O14_2 O 0.25991(15) 0.71677(13) 0.52749(13)
O15_4 O 0.21677(13) 0.47251(13) 0.75991(15)
O16_4 O 0.02749(13) 0.24009(15) 0.71677(13)
O17_4 O 0.25991(15) 0.28323(13) 0.52749(13)
O18_2 O 0.28323(13) 0.47251(13) 0.74009(15)
O19_2 O 0.28323(13) 0.52749(13) 0.74009(15)
O21_2 O 0.02749(13) 0.74009(15) 0.78323(13)
O22_2 O 0.24009(15) 0.78323(13) 0.47251(13)
O23_2 O 0.24009(15) 0.78323(13) 0.52749(13)
N3_2 N 0.1673(4) 0.6829(2) 0.6416(2)
N4_2 N 0.1416(2) 0.6673(4) 0.6829(2)
N5_4 N 0.1829(2) 0.3584(2) 0.6673(4)
N6_4 N 0.1673(4) 0.3171(2) 0.6416(2)
N7_4 N 0.1416(2) 0.3327(4) 0.6829(2)
N8_2 N 0.1288(2) 0.7035(2) 0.6589(2)
N9_2 N 0.2035(2) 0.6589(2) 0.6288(2)
N10_4 N 0.1589(2) 0.3712(2) 0.7035(2)
N11_4 N 0.1288(2) 0.2965(2) 0.6589(2)
N12_4 N 0.2035(2) 0.3411(2) 0.6288(2)
H6_2 H 0.1312 0.7137 0.6448
H7_2 H 0.2137 0.6448 0.6312
H8_4 H 0.1448 0.3688 0.7137
H9_4 H 0.1312 0.2863 0.6448
H10_4 H 0.2137 0.3552 0.6312
C9_2 C 0.1843(3) 0.6605(5) 0.6484(6)
C10_2 C 0.1484(6) 0.6843(3) 0.6605(5)
C11_4 C 0.1605(5) 0.3516(6) 0.6843(3)
C12_4 C 0.1843(3) 0.3395(5) 0.6484(6)
C13_4 C 0.1484(6) 0.3157(3) 0.6605(5)
C14_2 C 0.1057(3) 0.7120(4) 0.6735(3)
C15_2 C 0.2120(4) 0.6735(3) 0.6057(3)
C16_4 C 0.1735(3) 0.3943(3) 0.7120(4)
C17_4 C 0.1057(3) 0.2880(4) 0.6735(3)
C18_4 C 0.2120(4) 0.3265(3) 0.6057(3)
C19_2 C 0.0937(4) 0.6951(3) 0.6912(4)
C20_2 C 0.1951(3) 0.6912(4) 0.5937(4)
C21_4 C 0.1912(4) 0.4063(4) 0.6951(3)
C22_4 C 0.0937(4) 0.3049(3) 0.6912(4)
C23_4 C 0.1951(3) 0.3088(4) 0.5937(4)
H11_2 H 0.1013 0.6780 0.6940
H12_2 H 0.1780 0.6940 0.6013
H13_4 H 0.1940 0.3987 0.6780
H14_4 H 0.1013 0.3220 0.6940
H15_4 H 0.1780 0.3060 0.6013
C24_2 C 0.0712(4) 0.7017(4) 0.7050(2)
C25_2 C 0.2017(4) 0.7050(2) 0.5712(4)
C26_4 C 0.2050(2) 0.4288(4) 0.7017(4)
C27_4 C 0.0712(4) 0.2983(4) 0.7050(2)
C28_4 C 0.2017(4) 0.2950(2) 0.5712(4)
H16_2 H 0.0633 0.6888 0.7164
H17_2 H 0.1888 0.7164 0.5633
H18_4 H 0.2164 0.4367 0.6888
H19_4 H 0.0633 0.3112 0.7164
H20_4 H 0.1888 0.2836 0.5633
C29_2 C 0.0591(3) 0.7271(3) 0.7031(3)
C30_2 C 0.2271(3) 0.7031(3) 0.5591(3)
C31_4 C 0.2031(3) 0.4409(3) 0.7271(3)
C32_4 C 0.0591(3) 0.2729(3) 0.7031(3)
C33_4 C 0.2271(3) 0.2969(3) 0.5591(3)
C34_2 C 0.0710(3) 0.7423(3) 0.6852(4)
C35_2 C 0.2423(3) 0.6852(4) 0.5710(3)
C36_4 C 0.1852(4) 0.4290(3) 0.7423(3)
C37_4 C 0.0710(3) 0.2577(3) 0.6852(4)
C38_4 C 0.2423(3) 0.3148(4) 0.5710(3)
H21_2 H 0.0630 0.7592 0.6822
H22_2 H 0.2592 0.6822 0.5630
H23_4 H 0.1822 0.4370 0.7592
H24_4 H 0.0630 0.2408 0.6822
H25_4 H 0.2592 0.3178 0.5630
C39_2 C 0.0938(4) 0.7366(3) 0.6702(3)
C40_2 C 0.2366(3) 0.6702(3) 0.5938(4)
C41_4 C 0.1702(3) 0.4062(4) 0.7366(3)
C42_4 C 0.0938(4) 0.2634(3) 0.6702(3)
C43_4 C 0.2366(3) 0.3298(3) 0.5938(4)
H26_2 H 0.1009 0.7493 0.6580
H27_2 H 0.2493 0.6580 0.6009
H28_4 H 0.1580 0.3991 0.7493
H29_4 H 0.1009 0.2507 0.6580
H30_4 H 0.2493 0.3420 0.6009
C44_2 C 0.0357(2) 0.7319(3) 0.7205(3)
C45_2 C 0.2319(3) 0.7205(3) 0.5357(2)
C46_4 C 0.2205(3) 0.4643(2) 0.7319(3)
C47_4 C 0.0357(2) 0.2681(3) 0.7205(3)
C48_4 C 0.2319(3) 0.2795(3) 0.5357(2)
Cu2_4 Cu 1.0000 0.72685(3) 0.76322(3)
Cu5_4 Cu 1.0000 0.77315(3) 0.73678(3)
O9_2 O 0.97389(16) 0.71542(13) 0.73492(14)
O11_4 O 1.0000 0.68776(16) 0.78261(17)
O20_2 O 0.97251(13) 0.74009(15) 0.78323(13)
Cu7_7 Cu 0.26322(3) 0.5000 0.27315(3)
Cu8_7 Cu 0.23678(3) 0.5000 0.22685(3)
O7_5 O 0.23492(14) 0.52611(16) 0.28458(13)
O8_5 O 0.02611(16) 0.71542(13) 0.26508(14)
O15_5 O 0.25991(15) 0.71677(13) 0.47251(13)
O16_5 O 0.21677(13) 0.52749(13) 0.24009(15)
O17_5 O 0.02749(13) 0.75991(15) 0.28323(13)
N5_5 N 0.1673(4) 0.6829(2) 0.3584(2)
N6_5 N 0.1416(2) 0.6673(4) 0.3171(2)
N7_5 N 0.1829(2) 0.6416(2) 0.3327(4)
N10_5 N 0.2035(2) 0.6589(2) 0.3712(2)
N11_5 N 0.1589(2) 0.6288(2) 0.2965(2)
N12_5 N 0.1288(2) 0.7035(2) 0.3411(2)
H8_5 H 0.2137 0.6448 0.3688
H9_5 H 0.1448 0.6312 0.2863
H10_5 H 0.1312 0.7137 0.3552
C11_5 C 0.1843(3) 0.6605(5) 0.3516(6)
C12_5 C 0.1484(6) 0.6843(3) 0.3395(5)
C13_5 C 0.1605(5) 0.6484(6) 0.3157(3)
C16_5 C 0.2120(4) 0.6735(3) 0.3943(3)
C17_5 C 0.1735(3) 0.6057(3) 0.2880(4)
C18_5 C 0.1057(3) 0.7120(4) 0.3265(3)
C21_5 C 0.1951(3) 0.6912(4) 0.4063(4)
C22_5 C 0.1912(4) 0.5937(4) 0.3049(3)
C23_5 C 0.0937(4) 0.6951(3) 0.3088(4)
H13_5 H 0.1780 0.6940 0.3987
H14_5 H 0.1940 0.6013 0.3220
H15_5 H 0.1013 0.6780 0.3060
C26_5 C 0.2017(4) 0.7050(2) 0.4288(4)
C27_5 C 0.2050(2) 0.5712(4) 0.2983(4)
C28_5 C 0.0712(4) 0.7017(4) 0.2950(2)
H18_5 H 0.1888 0.7164 0.4367
H19_5 H 0.2164 0.5633 0.3112
H20_5 H 0.0633 0.6888 0.2836
C31_5 C 0.2271(3) 0.7031(3) 0.4409(3)
C32_5 C 0.2031(3) 0.5591(3) 0.2729(3)
C33_5 C 0.0591(3) 0.7271(3) 0.2969(3)
C36_5 C 0.2423(3) 0.6852(4) 0.4290(3)
C37_5 C 0.1852(4) 0.5710(3) 0.2577(3)
C38_5 C 0.0710(3) 0.7423(3) 0.3148(4)
H23_5 H 0.2592 0.6822 0.4370
H24_5 H 0.1822 0.5630 0.2408
H25_5 H 0.0630 0.7592 0.3178
C41_5 C 0.2366(3) 0.6702(3) 0.4062(4)
C42_5 C 0.1702(3) 0.5938(4) 0.2634(3)
C43_5 C 0.0938(4) 0.7366(3) 0.3298(3)
H28_5 H 0.2493 0.6580 0.3991
H29_5 H 0.1580 0.6009 0.2507
H30_5 H 0.1009 0.7493 0.3420
C46_5 C 0.2319(3) 0.7205(3) 0.4643(2)
C47_5 C 0.2205(3) 0.5357(2) 0.2681(3)
C48_5 C 0.0357(2) 0.7319(3) 0.2795(3)
Cu7_8 Cu 0.77315(3) 0.76322(3) 0.5000
Cu8_8 Cu 0.72685(3) 0.73678(3) 0.5000
Cu9_8 Cu 0.73678(3) 0.5000 0.72685(3)
Cu10_8 Cu 0.76322(3) 0.5000 0.77315(3)
O7_6 O 0.78458(13) 0.73492(14) 0.52611(16)
O8_6 O 0.76508(14) 0.52611(16) 0.71542(13)
O15_6 O 0.97251(13) 0.75991(15) 0.71677(13)
O16_6 O 0.74009(15) 0.71677(13) 0.52749(13)
O17_6 O 0.78323(13) 0.52749(13) 0.75991(15)
N5_6 N 0.8584(2) 0.6673(4) 0.6829(2)
N6_6 N 0.8171(2) 0.6416(2) 0.6673(4)
N7_6 N 0.8327(4) 0.6829(2) 0.6416(2)
N10_6 N 0.8712(2) 0.7035(2) 0.6589(2)
N11_6 N 0.7965(2) 0.6589(2) 0.6288(2)
N12_6 N 0.8411(2) 0.6288(2) 0.7035(2)
H8_6 H 0.8688 0.7137 0.6448
H9_6 H 0.7863 0.6448 0.6312
H10_6 H 0.8552 0.6312 0.7137
C11_6 C 0.8516(6) 0.6843(3) 0.6605(5)
C12_6 C 0.8395(5) 0.6484(6) 0.6843(3)
C13_6 C 0.8157(3) 0.6605(5) 0.6484(6)
C16_6 C 0.8943(3) 0.7120(4) 0.6735(3)
C17_6 C 0.7880(4) 0.6735(3) 0.6057(3)
C18_6 C 0.8265(3) 0.6057(3) 0.7120(4)
C21_6 C 0.9063(4) 0.6951(3) 0.6912(4)
C22_6 C 0.8049(3) 0.6912(4) 0.5937(4)
C23_6 C 0.8088(4) 0.5937(4) 0.6951(3)
H13_6 H 0.8987 0.6780 0.6940
H14_6 H 0.8220 0.6940 0.6013
H15_6 H 0.8060 0.6013 0.6780
C26_6 C 0.9288(4) 0.7017(4) 0.7050(2)
C27_6 C 0.7983(4) 0.7050(2) 0.5712(4)
C28_6 C 0.7950(2) 0.5712(4) 0.7017(4)
H18_6 H 0.9367 0.6888 0.7164
H19_6 H 0.8112 0.7164 0.5633
H20_6 H 0.7836 0.5633 0.6888
C31_6 C 0.9409(3) 0.7271(3) 0.7031(3)
C32_6 C 0.7729(3) 0.7031(3) 0.5591(3)
C33_6 C 0.7969(3) 0.5591(3) 0.7271(3)
C36_6 C 0.9290(3) 0.7423(3) 0.6852(4)
C37_6 C 0.7577(3) 0.6852(4) 0.5710(3)
C38_6 C 0.8148(4) 0.5710(3) 0.7423(3)
H23_6 H 0.9370 0.7592 0.6822
H24_6 H 0.7408 0.6822 0.5630
H25_6 H 0.8178 0.5630 0.7592
C41_6 C 0.9062(4) 0.7366(3) 0.6702(3)
C42_6 C 0.7634(3) 0.6702(3) 0.5938(4)
C43_6 C 0.8298(3) 0.5938(4) 0.7366(3)
H28_6 H 0.8991 0.7493 0.6580
H29_6 H 0.7507 0.6580 0.6009
H30_6 H 0.8420 0.6009 0.7493
C46_6 C 0.9643(2) 0.7319(3) 0.7205(3)
C47_6 C 0.7681(3) 0.7205(3) 0.5357(2)
C48_6 C 0.7795(3) 0.5357(2) 0.7319(3)
Cu1_4 Cu 0.76322(3) 0.0000 0.72685(3)
O1_3 O 0.73492(14) 0.02611(16) 0.71542(13)
O2_4 O 0.78261(17) 0.0000 0.68776(16)
O3_3 O 0.71677(13) 0.02749(13) 0.75991(15)
N1_3 N 0.6829(2) 0.1416(2) 0.6673(4)
N2_3 N 0.6589(2) 0.1288(2) 0.7035(2)
H1_3 H 0.6448 0.1312 0.7137
C1_3 C 0.6605(5) 0.1484(6) 0.6843(3)
C2_3 C 0.6735(3) 0.1057(3) 0.7120(4)
C3_3 C 0.6912(4) 0.0937(4) 0.6951(3)
H2_3 H 0.6940 0.1013 0.6780
C4_3 C 0.7050(2) 0.0712(4) 0.7017(4)
H3_3 H 0.7164 0.0633 0.6888
C5_3 C 0.7031(3) 0.0591(3) 0.7271(3)
C6_3 C 0.6852(4) 0.0710(3) 0.7423(3)
H4_3 H 0.6822 0.0630 0.7592
C7_3 C 0.6702(3) 0.0938(4) 0.7366(3)
H5_3 H 0.6580 0.1009 0.7493
C8_3 C 0.7205(3) 0.0357(2) 0.7319(3)
Cu2_5 Cu 0.5000 0.22685(3) 0.76322(3)
Cu3_4 Cu 0.72685(3) 0.26322(3) 0.5000
Cu4_4 Cu 0.73678(3) 0.0000 0.77315(3)
Cu5_5 Cu 0.5000 0.27315(3) 0.73678(3)
Cu6_4 Cu 0.77315(3) 0.23678(3) 0.5000
O4_3 O 0.52611(16) 0.21542(13) 0.73492(14)
O5_3 O 0.71542(13) 0.23492(14) 0.52611(16)
O9_3 O 0.47389(16) 0.21542(13) 0.73492(14)
O10_3 O 0.71542(13) 0.23492(14) 0.47389(16)
O11_5 O 0.5000 0.18776(16) 0.78261(17)
O12_4 O 0.68776(16) 0.28261(17) 0.5000
O13_3 O 0.52749(13) 0.25991(15) 0.71677(13)
O14_3 O 0.75991(15) 0.21677(13) 0.52749(13)
O19_3 O 0.78323(13) 0.02749(13) 0.74009(15)
O20_3 O 0.47251(13) 0.24009(15) 0.78323(13)
O21_3 O 0.52749(13) 0.24009(15) 0.78323(13)
O22_3 O 0.74009(15) 0.28323(13) 0.47251(13)
O23_3 O 0.74009(15) 0.28323(13) 0.52749(13)
N3_3 N 0.6673(4) 0.1829(2) 0.6416(2)
N4_3 N 0.6416(2) 0.1673(4) 0.6829(2)
N8_3 N 0.6288(2) 0.2035(2) 0.6589(2)
N9_3 N 0.7035(2) 0.1589(2) 0.6288(2)
H6_3 H 0.6312 0.2137 0.6448
H7_3 H 0.7137 0.1448 0.6312
C9_3 C 0.6843(3) 0.1605(5) 0.6484(6)
C10_3 C 0.6484(6) 0.1843(3) 0.6605(5)
C14_3 C 0.6057(3) 0.2120(4) 0.6735(3)
C15_3 C 0.7120(4) 0.1735(3) 0.6057(3)
C19_3 C 0.5937(4) 0.1951(3) 0.6912(4)
C20_3 C 0.6951(3) 0.1912(4) 0.5937(4)
H11_3 H 0.6013 0.1780 0.6940
H12_3 H 0.6780 0.1940 0.6013
C24_3 C 0.5712(4) 0.2017(4) 0.7050(2)
C25_3 C 0.7017(4) 0.2050(2) 0.5712(4)
H16_3 H 0.5633 0.1888 0.7164
H17_3 H 0.6888 0.2164 0.5633
C29_3 C 0.5591(3) 0.2271(3) 0.7031(3)
C30_3 C 0.7271(3) 0.2031(3) 0.5591(3)
C34_3 C 0.5710(3) 0.2423(3) 0.6852(4)
C35_3 C 0.7423(3) 0.1852(4) 0.5710(3)
H21_3 H 0.5630 0.2592 0.6822
H22_3 H 0.7592 0.1822 0.5630
C39_3 C 0.5938(4) 0.2366(3) 0.6702(3)
C40_3 C 0.7366(3) 0.1702(3) 0.5938(4)
H26_3 H 0.6009 0.2493 0.6580
H27_3 H 0.7493 0.1580 0.6009
C44_3 C 0.5357(2) 0.2319(3) 0.7205(3)
C45_3 C 0.7319(3) 0.2205(3) 0.5357(2)
Cu1_5 Cu 0.76322(3) 1.0000 0.72685(3)
O2_5 O 0.78261(17) 1.0000 0.68776(16)
Cu4_5 Cu 0.73678(3) 1.0000 0.77315(3)
Cu7_9 Cu 0.5000 0.77315(3) 0.76322(3)
Cu8_9 Cu 0.5000 0.72685(3) 0.73678(3)
O6_3 O 0.73492(14) 0.97389(16) 0.71542(13)
O7_7 O 0.52611(16) 0.78458(13) 0.73492(14)
O8_7 O 0.71542(13) 0.76508(14) 0.52611(16)
O15_7 O 0.71677(13) 0.97251(13) 0.75991(15)
O16_7 O 0.52749(13) 0.74009(15) 0.71677(13)
O17_7 O 0.75991(15) 0.78323(13) 0.52749(13)
O18_3 O 0.78323(13) 0.97251(13) 0.74009(15)
N5_7 N 0.6829(2) 0.8584(2) 0.6673(4)
N6_7 N 0.6673(4) 0.8171(2) 0.6416(2)
N7_7 N 0.6416(2) 0.8327(4) 0.6829(2)
N10_7 N 0.6589(2) 0.8712(2) 0.7035(2)
N11_7 N 0.6288(2) 0.7965(2) 0.6589(2)
N12_7 N 0.7035(2) 0.8411(2) 0.6288(2)
H8_7 H 0.6448 0.8688 0.7137
H9_7 H 0.6312 0.7863 0.6448
H10_7 H 0.7137 0.8552 0.6312
C11_7 C 0.6605(5) 0.8516(6) 0.6843(3)
C12_7 C 0.6843(3) 0.8395(5) 0.6484(6)
C13_7 C 0.6484(6) 0.8157(3) 0.6605(5)
C16_7 C 0.6735(3) 0.8943(3) 0.7120(4)
C17_7 C 0.6057(3) 0.7880(4) 0.6735(3)
C18_7 C 0.7120(4) 0.8265(3) 0.6057(3)
C21_7 C 0.6912(4) 0.9063(4) 0.6951(3)
C22_7 C 0.5937(4) 0.8049(3) 0.6912(4)
C23_7 C 0.6951(3) 0.8088(4) 0.5937(4)
H13_7 H 0.6940 0.8987 0.6780
H14_7 H 0.6013 0.8220 0.6940
H15_7 H 0.6780 0.8060 0.6013
C26_7 C 0.7050(2) 0.9288(4) 0.7017(4)
C27_7 C 0.5712(4) 0.7983(4) 0.7050(2)
C28_7 C 0.7017(4) 0.7950(2) 0.5712(4)
H18_7 H 0.7164 0.9367 0.6888
H19_7 H 0.5633 0.8112 0.7164
H20_7 H 0.6888 0.7836 0.5633
C31_7 C 0.7031(3) 0.9409(3) 0.7271(3)
C32_7 C 0.5591(3) 0.7729(3) 0.7031(3)
C33_7 C 0.7271(3) 0.7969(3) 0.5591(3)
C36_7 C 0.6852(4) 0.9290(3) 0.7423(3)
C37_7 C 0.5710(3) 0.7577(3) 0.6852(4)
C38_7 C 0.7423(3) 0.8148(4) 0.5710(3)
H23_7 H 0.6822 0.9370 0.7592
H24_7 H 0.5630 0.7408 0.6822
H25_7 H 0.7592 0.8178 0.5630
C41_7 C 0.6702(3) 0.9062(4) 0.7366(3)
C42_7 C 0.5938(4) 0.7634(3) 0.6702(3)
C43_7 C 0.7366(3) 0.8298(3) 0.5938(4)
H28_7 H 0.6580 0.8991 0.7493
H29_7 H 0.6009 0.7507 0.6580
H30_7 H 0.7493 0.8420 0.6009
C46_7 C 0.7205(3) 0.9643(2) 0.7319(3)
C47_7 C 0.5357(2) 0.7681(3) 0.7205(3)
C48_7 C 0.7319(3) 0.7795(3) 0.5357(2)
Cu9_9 Cu 0.5000 0.22685(3) 0.23678(3)
Cu10_9 Cu 0.5000 0.27315(3) 0.26322(3)
O7_8 O 0.73492(14) 0.02611(16) 0.28458(13)
O8_8 O 0.52611(16) 0.21542(13) 0.26508(14)
O15_8 O 0.75991(15) 0.21677(13) 0.47251(13)
O16_8 O 0.71677(13) 0.02749(13) 0.24009(15)
O17_8 O 0.52749(13) 0.25991(15) 0.28323(13)
N5_8 N 0.6673(4) 0.1829(2) 0.3584(2)
N6_8 N 0.6416(2) 0.1673(4) 0.3171(2)
N7_8 N 0.6829(2) 0.1416(2) 0.3327(4)
N10_8 N 0.7035(2) 0.1589(2) 0.3712(2)
N11_8 N 0.6589(2) 0.1288(2) 0.2965(2)
N12_8 N 0.6288(2) 0.2035(2) 0.3411(2)
H8_8 H 0.7137 0.1448 0.3688
H9_8 H 0.6448 0.1312 0.2863
H10_8 H 0.6312 0.2137 0.3552
C11_8 C 0.6843(3) 0.1605(5) 0.3516(6)
C12_8 C 0.6484(6) 0.1843(3) 0.3395(5)
C13_8 C 0.6605(5) 0.1484(6) 0.3157(3)
C16_8 C 0.7120(4) 0.1735(3) 0.3943(3)
C17_8 C 0.6735(3) 0.1057(3) 0.2880(4)
C18_8 C 0.6057(3) 0.2120(4) 0.3265(3)
C21_8 C 0.6951(3) 0.1912(4) 0.4063(4)
C22_8 C 0.6912(4) 0.0937(4) 0.3049(3)
C23_8 C 0.5937(4) 0.1951(3) 0.3088(4)
H13_8 H 0.6780 0.1940 0.3987
H14_8 H 0.6940 0.1013 0.3220
H15_8 H 0.6013 0.1780 0.3060
C26_8 C 0.7017(4) 0.2050(2) 0.4288(4)
C27_8 C 0.7050(2) 0.0712(4) 0.2983(4)
C28_8 C 0.5712(4) 0.2017(4) 0.2950(2)
H18_8 H 0.6888 0.2164 0.4367
H19_8 H 0.7164 0.0633 0.3112
H20_8 H 0.5633 0.1888 0.2836
C31_8 C 0.7271(3) 0.2031(3) 0.4409(3)
C32_8 C 0.7031(3) 0.0591(3) 0.2729(3)
C33_8 C 0.5591(3) 0.2271(3) 0.2969(3)
C36_8 C 0.7423(3) 0.1852(4) 0.4290(3)
C37_8 C 0.6852(4) 0.0710(3) 0.2577(3)
C38_8 C 0.5710(3) 0.2423(3) 0.3148(4)
H23_8 H 0.7592 0.1822 0.4370
H24_8 H 0.6822 0.0630 0.2408
H25_8 H 0.5630 0.2592 0.3178
C41_8 C 0.7366(3) 0.1702(3) 0.4062(4)
C42_8 C 0.6702(3) 0.0938(4) 0.2634(3)
C43_8 C 0.5938(4) 0.2366(3) 0.3298(3)
H28_8 H 0.7493 0.1580 0.3991
H29_8 H 0.6580 0.1009 0.2507
H30_8 H 0.6009 0.2493 0.3420
C46_8 C 0.7319(3) 0.2205(3) 0.4643(2)
C47_8 C 0.7205(3) 0.0357(2) 0.2681(3)
C48_8 C 0.5357(2) 0.2319(3) 0.2795(3)
O7_9 O 0.28458(13) 0.23492(14) 0.52611(16)
O8_9 O 0.26508(14) 0.02611(16) 0.71542(13)
O15_9 O 0.47251(13) 0.25991(15) 0.71677(13)
O16_9 O 0.24009(15) 0.21677(13) 0.52749(13)
O17_9 O 0.28323(13) 0.02749(13) 0.75991(15)
N5_9 N 0.3584(2) 0.1673(4) 0.6829(2)
N6_9 N 0.3171(2) 0.1416(2) 0.6673(4)
N7_9 N 0.3327(4) 0.1829(2) 0.6416(2)
N10_9 N 0.3712(2) 0.2035(2) 0.6589(2)
N11_9 N 0.2965(2) 0.1589(2) 0.6288(2)
N12_9 N 0.3411(2) 0.1288(2) 0.7035(2)
H8_9 H 0.3688 0.2137 0.6448
H9_9 H 0.2863 0.1448 0.6312
H10_9 H 0.3552 0.1312 0.7137
C11_9 C 0.3516(6) 0.1843(3) 0.6605(5)
C12_9 C 0.3395(5) 0.1484(6) 0.6843(3)
C13_9 C 0.3157(3) 0.1605(5) 0.6484(6)
C16_9 C 0.3943(3) 0.2120(4) 0.6735(3)
C17_9 C 0.2880(4) 0.1735(3) 0.6057(3)
C18_9 C 0.3265(3) 0.1057(3) 0.7120(4)
C21_9 C 0.4063(4) 0.1951(3) 0.6912(4)
C22_9 C 0.3049(3) 0.1912(4) 0.5937(4)
C23_9 C 0.3088(4) 0.0937(4) 0.6951(3)
H13_9 H 0.3987 0.1780 0.6940
H14_9 H 0.3220 0.1940 0.6013
H15_9 H 0.3060 0.1013 0.6780
C26_9 C 0.4288(4) 0.2017(4) 0.7050(2)
C27_9 C 0.2983(4) 0.2050(2) 0.5712(4)
C28_9 C 0.2950(2) 0.0712(4) 0.7017(4)
H18_9 H 0.4367 0.1888 0.7164
H19_9 H 0.3112 0.2164 0.5633
H20_9 H 0.2836 0.0633 0.6888
C31_9 C 0.4409(3) 0.2271(3) 0.7031(3)
C32_9 C 0.2729(3) 0.2031(3) 0.5591(3)
C33_9 C 0.2969(3) 0.0591(3) 0.7271(3)
C36_9 C 0.4290(3) 0.2423(3) 0.6852(4)
C37_9 C 0.2577(3) 0.1852(4) 0.5710(3)
C38_9 C 0.3148(4) 0.0710(3) 0.7423(3)
H23_9 H 0.4370 0.2592 0.6822
H24_9 H 0.2408 0.1822 0.5630
H25_9 H 0.3178 0.0630 0.7592
C41_9 C 0.4062(4) 0.2366(3) 0.6702(3)
C42_9 C 0.2634(3) 0.1702(3) 0.5938(4)
C43_9 C 0.3298(3) 0.0938(4) 0.7366(3)
H28_9 H 0.3991 0.2493 0.6580
H29_9 H 0.2507 0.1580 0.6009
H30_9 H 0.3420 0.1009 0.7493
C46_9 C 0.4643(2) 0.2319(3) 0.7205(3)
C47_9 C 0.2681(3) 0.2205(3) 0.5357(2)
C48_9 C 0.2795(3) 0.0357(2) 0.7319(3)
Cu1_6 Cu 0.76322(3) 0.5000 0.22685(3)
O1_4 O 0.73492(14) 0.52611(16) 0.21542(13)
O2_6 O 0.78261(17) 0.5000 0.18776(16)
O3_4 O 0.71677(13) 0.52749(13) 0.25991(15)
N1_4 N 0.6829(2) 0.6416(2) 0.1673(4)
N2_4 N 0.6589(2) 0.6288(2) 0.2035(2)
H1_4 H 0.6448 0.6312 0.2137
C1_4 C 0.6605(5) 0.6484(6) 0.1843(3)
C2_4 C 0.6735(3) 0.6057(3) 0.2120(4)
C3_4 C 0.6912(4) 0.5937(4) 0.1951(3)
H2_4 H 0.6940 0.6013 0.1780
C4_4 C 0.7050(2) 0.5712(4) 0.2017(4)
H3_4 H 0.7164 0.5633 0.1888
C5_4 C 0.7031(3) 0.5591(3) 0.2271(3)
C6_4 C 0.6852(4) 0.5710(3) 0.2423(3)
H4_4 H 0.6822 0.5630 0.2592
C7_4 C 0.6702(3) 0.5938(4) 0.2366(3)
H5_4 H 0.6580 0.6009 0.2493
C8_4 C 0.7205(3) 0.5357(2) 0.2319(3)
Cu2_6 Cu 0.5000 0.72685(3) 0.26322(3)
Cu3_5 Cu 0.72685(3) 0.76322(3) 0.0000
Cu4_6 Cu 0.73678(3) 0.5000 0.27315(3)
Cu5_6 Cu 0.5000 0.77315(3) 0.23678(3)
Cu6_5 Cu 0.77315(3) 0.73678(3) 0.0000
O4_4 O 0.52611(16) 0.71542(13) 0.23492(14)
O5_4 O 0.71542(13) 0.73492(14) 0.02611(16)
O6_4 O 0.73492(14) 0.47389(16) 0.21542(13)
O7_10 O 0.52611(16) 0.28458(13) 0.23492(14)
O8_10 O 0.71542(13) 0.26508(14) 0.02611(16)
O9_4 O 0.47389(16) 0.71542(13) 0.23492(14)
O11_6 O 0.5000 0.68776(16) 0.28261(17)
O12_5 O 0.68776(16) 0.78261(17) 0.0000
O13_4 O 0.52749(13) 0.75991(15) 0.21677(13)
O14_4 O 0.75991(15) 0.71677(13) 0.02749(13)
O15_10 O 0.71677(13) 0.47251(13) 0.25991(15)
O16_10 O 0.52749(13) 0.24009(15) 0.21677(13)
O17_10 O 0.75991(15) 0.28323(13) 0.02749(13)
O18_4 O 0.78323(13) 0.47251(13) 0.24009(15)
O19_4 O 0.78323(13) 0.52749(13) 0.24009(15)
O20_4 O 0.47251(13) 0.74009(15) 0.28323(13)
O21_4 O 0.52749(13) 0.74009(15) 0.28323(13)
O23_4 O 0.74009(15) 0.78323(13) 0.02749(13)
N3_4 N 0.6673(4) 0.6829(2) 0.1416(2)
N4_4 N 0.6416(2) 0.6673(4) 0.1829(2)
N5_10 N 0.6829(2) 0.3584(2) 0.1673(4)
N6_10 N 0.6673(4) 0.3171(2) 0.1416(2)
N7_10 N 0.6416(2) 0.3327(4) 0.1829(2)
N8_4 N 0.6288(2) 0.7035(2) 0.1589(2)
N9_4 N 0.7035(2) 0.6589(2) 0.1288(2)
N10_10 N 0.6589(2) 0.3712(2) 0.2035(2)
N11_10 N 0.6288(2) 0.2965(2) 0.1589(2)
N12_10 N 0.7035(2) 0.3411(2) 0.1288(2)
H6_4 H 0.6312 0.7137 0.1448
H7_4 H 0.7137 0.6448 0.1312
H8_10 H 0.6448 0.3688 0.2137
H9_10 H 0.6312 0.2863 0.1448
H10_10 H 0.7137 0.3552 0.1312
C9_4 C 0.6843(3) 0.6605(5) 0.1484(6)
C10_4 C 0.6484(6) 0.6843(3) 0.1605(5)
C11_10 C 0.6605(5) 0.3516(6) 0.1843(3)
C12_10 C 0.6843(3) 0.3395(5) 0.1484(6)
C13_10 C 0.6484(6) 0.3157(3) 0.1605(5)
C14_4 C 0.6057(3) 0.7120(4) 0.1735(3)
C15_4 C 0.7120(4) 0.6735(3) 0.1057(3)
C16_10 C 0.6735(3) 0.3943(3) 0.2120(4)
C17_10 C 0.6057(3) 0.2880(4) 0.1735(3)
C18_10 C 0.7120(4) 0.3265(3) 0.1057(3)
C19_4 C 0.5937(4) 0.6951(3) 0.1912(4)
C20_4 C 0.6951(3) 0.6912(4) 0.0937(4)
C21_10 C 0.6912(4) 0.4063(4) 0.1951(3)
C22_10 C 0.5937(4) 0.3049(3) 0.1912(4)
C23_10 C 0.6951(3) 0.3088(4) 0.0937(4)
H11_4 H 0.6013 0.6780 0.1940
H12_4 H 0.6780 0.6940 0.1013
H13_10 H 0.6940 0.3987 0.1780
H14_10 H 0.6013 0.3220 0.1940
H15_10 H 0.6780 0.3060 0.1013
C24_4 C 0.5712(4) 0.7017(4) 0.2050(2)
C25_4 C 0.7017(4) 0.7050(2) 0.0712(4)
C26_10 C 0.7050(2) 0.4288(4) 0.2017(4)
C27_10 C 0.5712(4) 0.2983(4) 0.2050(2)
C28_10 C 0.7017(4) 0.2950(2) 0.0712(4)
H16_4 H 0.5633 0.6888 0.2164
H17_4 H 0.6888 0.7164 0.0633
H18_10 H 0.7164 0.4367 0.1888
H19_10 H 0.5633 0.3112 0.2164
H20_10 H 0.6888 0.2836 0.0633
C29_4 C 0.5591(3) 0.7271(3) 0.2031(3)
C30_4 C 0.7271(3) 0.7031(3) 0.0591(3)
C31_10 C 0.7031(3) 0.4409(3) 0.2271(3)
C32_10 C 0.5591(3) 0.2729(3) 0.2031(3)
C33_10 C 0.7271(3) 0.2969(3) 0.0591(3)
C34_4 C 0.5710(3) 0.7423(3) 0.1852(4)
C35_4 C 0.7423(3) 0.6852(4) 0.0710(3)
C36_10 C 0.6852(4) 0.4290(3) 0.2423(3)
C37_10 C 0.5710(3) 0.2577(3) 0.1852(4)
C38_10 C 0.7423(3) 0.3148(4) 0.0710(3)
H21_4 H 0.5630 0.7592 0.1822
H22_4 H 0.7592 0.6822 0.0630
H23_10 H 0.6822 0.4370 0.2592
H24_10 H 0.5630 0.2408 0.1822
H25_10 H 0.7592 0.3178 0.0630
C39_4 C 0.5938(4) 0.7366(3) 0.1702(3)
C40_4 C 0.7366(3) 0.6702(3) 0.0938(4)
C41_10 C 0.6702(3) 0.4062(4) 0.2366(3)
C42_10 C 0.5938(4) 0.2634(3) 0.1702(3)
C43_10 C 0.7366(3) 0.3298(3) 0.0938(4)
H26_4 H 0.6009 0.7493 0.1580
H27_4 H 0.7493 0.6580 0.1009
H28_10 H 0.6580 0.3991 0.2493
H29_10 H 0.6009 0.2507 0.1580
H30_10 H 0.7493 0.3420 0.1009
C44_4 C 0.5357(2) 0.7319(3) 0.2205(3)
C45_4 C 0.7319(3) 0.7205(3) 0.0357(2)
C46_10 C 0.7205(3) 0.4643(2) 0.2319(3)
C47_10 C 0.5357(2) 0.2681(3) 0.2205(3)
C48_10 C 0.7319(3) 0.2795(3) 0.0357(2)
Cu3_6 Cu 0.72685(3) 0.76322(3) 1.0000
Cu6_6 Cu 0.77315(3) 0.73678(3) 1.0000
O10_4 O 0.71542(13) 0.73492(14) 0.97389(16)
O12_6 O 0.68776(16) 0.78261(17) 1.0000
O22_4 O 0.74009(15) 0.78323(13) 0.97251(13)
O7_11 O 0.73492(14) 0.52611(16) 0.78458(13)
O8_11 O 0.52611(16) 0.71542(13) 0.76508(14)
O15_11 O 0.75991(15) 0.71677(13) 0.97251(13)
O16_11 O 0.71677(13) 0.52749(13) 0.74009(15)
O17_11 O 0.52749(13) 0.75991(15) 0.78323(13)
N5_11 N 0.6673(4) 0.6829(2) 0.8584(2)
N6_11 N 0.6416(2) 0.6673(4) 0.8171(2)
N7_11 N 0.6829(2) 0.6416(2) 0.8327(4)
N10_11 N 0.7035(2) 0.6589(2) 0.8712(2)
N11_11 N 0.6589(2) 0.6288(2) 0.7965(2)
N12_11 N 0.6288(2) 0.7035(2) 0.8411(2)
H8_11 H 0.7137 0.6448 0.8688
H9_11 H 0.6448 0.6312 0.7863
H10_11 H 0.6312 0.7137 0.8552
C11_11 C 0.6843(3) 0.6605(5) 0.8516(6)
C12_11 C 0.6484(6) 0.6843(3) 0.8395(5)
C13_11 C 0.6605(5) 0.6484(6) 0.8157(3)
C16_11 C 0.7120(4) 0.6735(3) 0.8943(3)
C17_11 C 0.6735(3) 0.6057(3) 0.7880(4)
C18_11 C 0.6057(3) 0.7120(4) 0.8265(3)
C21_11 C 0.6951(3) 0.6912(4) 0.9063(4)
C22_11 C 0.6912(4) 0.5937(4) 0.8049(3)
C23_11 C 0.5937(4) 0.6951(3) 0.8088(4)
H13_11 H 0.6780 0.6940 0.8987
H14_11 H 0.6940 0.6013 0.8220
H15_11 H 0.6013 0.6780 0.8060
C26_11 C 0.7017(4) 0.7050(2) 0.9288(4)
C27_11 C 0.7050(2) 0.5712(4) 0.7983(4)
C28_11 C 0.5712(4) 0.7017(4) 0.7950(2)
H18_11 H 0.6888 0.7164 0.9367
H19_11 H 0.7164 0.5633 0.8112
H20_11 H 0.5633 0.6888 0.7836
C31_11 C 0.7271(3) 0.7031(3) 0.9409(3)
C32_11 C 0.7031(3) 0.5591(3) 0.7729(3)
C33_11 C 0.5591(3) 0.7271(3) 0.7969(3)
C36_11 C 0.7423(3) 0.6852(4) 0.9290(3)
C37_11 C 0.6852(4) 0.5710(3) 0.7577(3)
C38_11 C 0.5710(3) 0.7423(3) 0.8148(4)
H23_11 H 0.7592 0.6822 0.9370
H24_11 H 0.6822 0.5630 0.7408
H25_11 H 0.5630 0.7592 0.8178
C41_11 C 0.7366(3) 0.6702(3) 0.9062(4)
C42_11 C 0.6702(3) 0.5938(4) 0.7634(3)
C43_11 C 0.5938(4) 0.7366(3) 0.8298(3)
H28_11 H 0.7493 0.6580 0.8991
H29_11 H 0.6580 0.6009 0.7507
H30_11 H 0.6009 0.7493 0.8420
C46_11 C 0.7319(3) 0.7205(3) 0.9643(2)
C47_11 C 0.7205(3) 0.5357(2) 0.7681(3)
C48_11 C 0.5357(2) 0.7319(3) 0.7795(3)
O7_12 O 0.28458(13) 0.73492(14) 0.02611(16)
O8_12 O 0.26508(14) 0.52611(16) 0.21542(13)
O15_12 O 0.47251(13) 0.75991(15) 0.21677(13)
O16_12 O 0.24009(15) 0.71677(13) 0.02749(13)
O17_12 O 0.28323(13) 0.52749(13) 0.25991(15)
N5_12 N 0.3584(2) 0.6673(4) 0.1829(2)
N6_12 N 0.3171(2) 0.6416(2) 0.1673(4)
N7_12 N 0.3327(4) 0.6829(2) 0.1416(2)
N10_12 N 0.3712(2) 0.7035(2) 0.1589(2)
N11_12 N 0.2965(2) 0.6589(2) 0.1288(2)
N12_12 N 0.3411(2) 0.6288(2) 0.2035(2)
H8_12 H 0.3688 0.7137 0.1448
H9_12 H 0.2863 0.6448 0.1312
H10_12 H 0.3552 0.6312 0.2137
C11_12 C 0.3516(6) 0.6843(3) 0.1605(5)
C12_12 C 0.3395(5) 0.6484(6) 0.1843(3)
C13_12 C 0.3157(3) 0.6605(5) 0.1484(6)
C16_12 C 0.3943(3) 0.7120(4) 0.1735(3)
C17_12 C 0.2880(4) 0.6735(3) 0.1057(3)
C18_12 C 0.3265(3) 0.6057(3) 0.2120(4)
C21_12 C 0.4063(4) 0.6951(3) 0.1912(4)
C22_12 C 0.3049(3) 0.6912(4) 0.0937(4)
C23_12 C 0.3088(4) 0.5937(4) 0.1951(3)
H13_12 H 0.3987 0.6780 0.1940
H14_12 H 0.3220 0.6940 0.1013
H15_12 H 0.3060 0.6013 0.1780
C26_12 C 0.4288(4) 0.7017(4) 0.2050(2)
C27_12 C 0.2983(4) 0.7050(2) 0.0712(4)
C28_12 C 0.2950(2) 0.5712(4) 0.2017(4)
H18_12 H 0.4367 0.6888 0.2164
H19_12 H 0.3112 0.7164 0.0633
H20_12 H 0.2836 0.5633 0.1888
C31_12 C 0.4409(3) 0.7271(3) 0.2031(3)
C32_12 C 0.2729(3) 0.7031(3) 0.0591(3)
C33_12 C 0.2969(3) 0.5591(3) 0.2271(3)
C36_12 C 0.4290(3) 0.7423(3) 0.1852(4)
C37_12 C 0.2577(3) 0.6852(4) 0.0710(3)
C38_12 C 0.3148(4) 0.5710(3) 0.2423(3)
H23_12 H 0.4370 0.7592 0.1822
H24_12 H 0.2408 0.6822 0.0630
H25_12 H 0.3178 0.5630 0.2592
C41_12 C 0.4062(4) 0.7366(3) 0.1702(3)
C42_12 C 0.2634(3) 0.6702(3) 0.0938(4)
C43_12 C 0.3298(3) 0.5938(4) 0.2366(3)
H28_12 H 0.3991 0.7493 0.1580
H29_12 H 0.2507 0.6580 0.1009
H30_12 H 0.3420 0.6009 0.2493
C46_12 C 0.4643(2) 0.7319(3) 0.2205(3)
C47_12 C 0.2681(3) 0.7205(3) 0.0357(2)
C48_12 C 0.2795(3) 0.5357(2) 0.2319(3)
O11_7 O 0.0000 0.81224(16) 0.28261(17)
O2_7 O 0.71739(17) 0.0000 0.18776(16)
O1_5 O 0.76508(14) 0.97389(16) 0.21542(13)
O2_8 O 0.71739(17) 1.0000 0.18776(16)
O3_5 O 0.78323(13) 0.97251(13) 0.25991(15)
N1_5 N 0.8171(2) 0.8584(2) 0.1673(4)
N2_5 N 0.8411(2) 0.8712(2) 0.2035(2)
H1_5 H 0.8552 0.8688 0.2137
C1_5 C 0.8395(5) 0.8516(6) 0.1843(3)
C2_5 C 0.8265(3) 0.8943(3) 0.2120(4)
C3_5 C 0.8088(4) 0.9063(4) 0.1951(3)
H2_5 H 0.8060 0.8987 0.1780
C4_5 C 0.7950(2) 0.9288(4) 0.2017(4)
H3_5 H 0.7836 0.9367 0.1888
C5_5 C 0.7969(3) 0.9409(3) 0.2271(3)
C6_5 C 0.8148(4) 0.9290(3) 0.2423(3)
H4_5 H 0.8178 0.9370 0.2592
C7_5 C 0.8298(3) 0.9062(4) 0.2366(3)
H5_5 H 0.8420 0.8991 0.2493
C8_5 C 0.7795(3) 0.9643(2) 0.2319(3)
O4_5 O 0.97389(16) 0.78458(13) 0.23492(14)
O5_5 O 0.78458(13) 0.76508(14) 0.02611(16)
O11_8 O 1.0000 0.81224(16) 0.28261(17)
O12_7 O 0.81224(16) 0.71739(17) 0.0000
O13_5 O 0.97251(13) 0.74009(15) 0.21677(13)
O19_5 O 0.71677(13) 0.97251(13) 0.24009(15)
O21_5 O 0.97251(13) 0.75991(15) 0.28323(13)
N3_5 N 0.8327(4) 0.8171(2) 0.1416(2)
N4_5 N 0.8584(2) 0.8327(4) 0.1829(2)
N8_5 N 0.8712(2) 0.7965(2) 0.1589(2)
N9_5 N 0.7965(2) 0.8411(2) 0.1288(2)
H6_5 H 0.8688 0.7863 0.1448
H7_5 H 0.7863 0.8552 0.1312
C9_5 C 0.8157(3) 0.8395(5) 0.1484(6)
C10_5 C 0.8516(6) 0.8157(3) 0.1605(5)
C14_5 C 0.8943(3) 0.7880(4) 0.1735(3)
C15_5 C 0.7880(4) 0.8265(3) 0.1057(3)
C19_5 C 0.9063(4) 0.8049(3) 0.1912(4)
C20_5 C 0.8049(3) 0.8088(4) 0.0937(4)
H11_5 H 0.8987 0.8220 0.1940
H12_5 H 0.8220 0.8060 0.1013
C24_5 C 0.9288(4) 0.7983(4) 0.2050(2)
C25_5 C 0.7983(4) 0.7950(2) 0.0712(4)
H16_5 H 0.9367 0.8112 0.2164
H17_5 H 0.8112 0.7836 0.0633
C29_5 C 0.9409(3) 0.7729(3) 0.2031(3)
C30_5 C 0.7729(3) 0.7969(3) 0.0591(3)
C34_5 C 0.9290(3) 0.7577(3) 0.1852(4)
C35_5 C 0.7577(3) 0.8148(4) 0.0710(3)
H21_5 H 0.9370 0.7408 0.1822
H22_5 H 0.7408 0.8178 0.0630
C39_5 C 0.9062(4) 0.7634(3) 0.1702(3)
C40_5 C 0.7634(3) 0.8298(3) 0.0938(4)
H26_5 H 0.8991 0.7507 0.1580
H27_5 H 0.7507 0.8420 0.1009
C44_5 C 0.9643(2) 0.7681(3) 0.2205(3)
C45_5 C 0.7681(3) 0.7795(3) 0.0357(2)
O10_5 O 0.78458(13) 0.76508(14) 0.97389(16)
O12_8 O 0.81224(16) 0.71739(17) 1.0000
O11_9 O -0.0000 0.18776(16) 0.71739(17)
O12_9 O 0.81224(16) 0.28261(17) 0.0000
O1_6 O 0.76508(14) 0.02611(16) 0.78458(13)
O2_9 O 0.71739(17) 0.0000 0.81224(16)
N1_6 N 0.8171(2) 0.1416(2) 0.8327(4)
N2_6 N 0.8411(2) 0.1288(2) 0.7965(2)
H1_6 H 0.8552 0.1312 0.7863
C1_6 C 0.8395(5) 0.1484(6) 0.8157(3)
C2_6 C 0.8265(3) 0.1057(3) 0.7880(4)
C3_6 C 0.8088(4) 0.0937(4) 0.8049(3)
H2_6 H 0.8060 0.1013 0.8220
C4_6 C 0.7950(2) 0.0712(4) 0.7983(4)
H3_6 H 0.7836 0.0633 0.8112
C5_6 C 0.7969(3) 0.0591(3) 0.7729(3)
C6_6 C 0.8148(4) 0.0710(3) 0.7577(3)
H4_6 H 0.8178 0.0630 0.7408
C7_6 C 0.8298(3) 0.0938(4) 0.7634(3)
H5_6 H 0.8420 0.1009 0.7507
C8_6 C 0.7795(3) 0.0357(2) 0.7681(3)
O4_6 O 0.97389(16) 0.21542(13) 0.76508(14)
O5_6 O 0.78458(13) 0.23492(14) 0.97389(16)
O11_10 O 1.0000 0.18776(16) 0.71739(17)
O12_10 O 0.81224(16) 0.28261(17) 1.0000
O13_6 O 0.97251(13) 0.25991(15) 0.78323(13)
O14_5 O 0.74009(15) 0.21677(13) 0.97251(13)
O21_6 O 0.97251(13) 0.24009(15) 0.71677(13)
O23_5 O 0.75991(15) 0.28323(13) 0.97251(13)
N3_6 N 0.8327(4) 0.1829(2) 0.8584(2)
N4_6 N 0.8584(2) 0.1673(4) 0.8171(2)
N8_6 N 0.8712(2) 0.2035(2) 0.8411(2)
N9_6 N 0.7965(2) 0.1589(2) 0.8712(2)
H6_6 H 0.8688 0.2137 0.8552
H7_6 H 0.7863 0.1448 0.8688
C9_6 C 0.8157(3) 0.1605(5) 0.8516(6)
C10_6 C 0.8516(6) 0.1843(3) 0.8395(5)
C14_6 C 0.8943(3) 0.2120(4) 0.8265(3)
C15_6 C 0.7880(4) 0.1735(3) 0.8943(3)
C19_6 C 0.9063(4) 0.1951(3) 0.8088(4)
C20_6 C 0.8049(3) 0.1912(4) 0.9063(4)
H11_6 H 0.8987 0.1780 0.8060
H12_6 H 0.8220 0.1940 0.8987
C24_6 C 0.9288(4) 0.2017(4) 0.7950(2)
C25_6 C 0.7983(4) 0.2050(2) 0.9288(4)
H16_6 H 0.9367 0.1888 0.7836
H17_6 H 0.8112 0.2164 0.9367
C29_6 C 0.9409(3) 0.2271(3) 0.7969(3)
C30_6 C 0.7729(3) 0.2031(3) 0.9409(3)
C34_6 C 0.9290(3) 0.2423(3) 0.8148(4)
C35_6 C 0.7577(3) 0.1852(4) 0.9290(3)
H21_6 H 0.9370 0.2592 0.8178
H22_6 H 0.7408 0.1822 0.9370
C39_6 C 0.9062(4) 0.2366(3) 0.8298(3)
C40_6 C 0.7634(3) 0.1702(3) 0.9062(4)
H26_6 H 0.8991 0.2493 0.8420
H27_6 H 0.7507 0.1580 0.8991
C44_6 C 0.9643(2) 0.2319(3) 0.7795(3)
C45_6 C 0.7681(3) 0.2205(3) 0.9643(2)
O2_10 O 0.71739(17) 1.0000 0.81224(16)
O6_5 O 0.76508(14) 0.97389(16) 0.78458(13)
O7_13 O 0.97389(16) 0.78458(13) 0.76508(14)
N5_13 N 0.8171(2) 0.8584(2) 0.8327(4)
N6_13 N 0.8327(4) 0.8171(2) 0.8584(2)
N7_13 N 0.8584(2) 0.8327(4) 0.8171(2)
N10_13 N 0.8411(2) 0.8712(2) 0.7965(2)
N11_13 N 0.8712(2) 0.7965(2) 0.8411(2)
N12_13 N 0.7965(2) 0.8411(2) 0.8712(2)
H8_13 H 0.8552 0.8688 0.7863
H9_13 H 0.8688 0.7863 0.8552
H10_13 H 0.7863 0.8552 0.8688
C11_13 C 0.8395(5) 0.8516(6) 0.8157(3)
C12_13 C 0.8157(3) 0.8395(5) 0.8516(6)
C13_13 C 0.8516(6) 0.8157(3) 0.8395(5)
C16_13 C 0.8265(3) 0.8943(3) 0.7880(4)
C17_13 C 0.8943(3) 0.7880(4) 0.8265(3)
C18_13 C 0.7880(4) 0.8265(3) 0.8943(3)
C21_13 C 0.8088(4) 0.9063(4) 0.8049(3)
C22_13 C 0.9063(4) 0.8049(3) 0.8088(4)
C23_13 C 0.8049(3) 0.8088(4) 0.9063(4)
H13_13 H 0.8060 0.8987 0.8220
H14_13 H 0.8987 0.8220 0.8060
H15_13 H 0.8220 0.8060 0.8987
C26_13 C 0.7950(2) 0.9288(4) 0.7983(4)
C27_13 C 0.9288(4) 0.7983(4) 0.7950(2)
C28_13 C 0.7983(4) 0.7950(2) 0.9288(4)
H18_13 H 0.7836 0.9367 0.8112
H19_13 H 0.9367 0.8112 0.7836
H20_13 H 0.8112 0.7836 0.9367
C31_13 C 0.7969(3) 0.9409(3) 0.7729(3)
C32_13 C 0.9409(3) 0.7729(3) 0.7969(3)
C33_13 C 0.7729(3) 0.7969(3) 0.9409(3)
C36_13 C 0.8148(4) 0.9290(3) 0.7577(3)
C37_13 C 0.9290(3) 0.7577(3) 0.8148(4)
C38_13 C 0.7577(3) 0.8148(4) 0.9290(3)
H23_13 H 0.8178 0.9370 0.7408
H24_13 H 0.9370 0.7408 0.8178
H25_13 H 0.7408 0.8178 0.9370
C41_13 C 0.8298(3) 0.9062(4) 0.7634(3)
C42_13 C 0.9062(4) 0.7634(3) 0.8298(3)
C43_13 C 0.7634(3) 0.8298(3) 0.9062(4)
H28_13 H 0.8420 0.8991 0.7507
H29_13 H 0.8991 0.7507 0.8420
H30_13 H 0.7507 0.8420 0.8991
C46_13 C 0.7795(3) 0.9643(2) 0.7681(3)
C47_13 C 0.9643(2) 0.7681(3) 0.7795(3)
C48_13 C 0.7681(3) 0.7795(3) 0.9643(2)
O2_11 O 0.28261(17) 0.0000 0.81224(16)
O12_11 O 0.18776(16) 0.71739(17) 0.0000
O1_7 O 0.23492(14) 0.97389(16) 0.78458(13)
O2_12 O 0.28261(17) 1.0000 0.81224(16)
O3_6 O 0.21677(13) 0.97251(13) 0.74009(15)
N1_7 N 0.1829(2) 0.8584(2) 0.8327(4)
N2_7 N 0.1589(2) 0.8712(2) 0.7965(2)
H1_7 H 0.1448 0.8688 0.7863
C1_7 C 0.1605(5) 0.8516(6) 0.8157(3)
C2_7 C 0.1735(3) 0.8943(3) 0.7880(4)
C3_7 C 0.1912(4) 0.9063(4) 0.8049(3)
H2_7 H 0.1940 0.8987 0.8220
C4_7 C 0.2050(2) 0.9288(4) 0.7983(4)
H3_7 H 0.2164 0.9367 0.8112
C5_7 C 0.2031(3) 0.9409(3) 0.7729(3)
C6_7 C 0.1852(4) 0.9290(3) 0.7577(3)
H4_7 H 0.1822 0.9370 0.7408
C7_7 C 0.1702(3) 0.9062(4) 0.7634(3)
H5_7 H 0.1580 0.8991 0.7507
C8_7 C 0.2205(3) 0.9643(2) 0.7681(3)
O4_7 O 0.02611(16) 0.78458(13) 0.76508(14)
O5_7 O 0.21542(13) 0.76508(14) 0.97389(16)
O11_11 O 0.0000 0.81224(16) 0.71739(17)
O12_12 O 0.18776(16) 0.71739(17) 1.0000
O14_6 O 0.25991(15) 0.78323(13) 0.97251(13)
O19_6 O 0.28323(13) 0.97251(13) 0.75991(15)
O23_6 O 0.24009(15) 0.71677(13) 0.97251(13)
N3_7 N 0.1673(4) 0.8171(2) 0.8584(2)
N4_7 N 0.1416(2) 0.8327(4) 0.8171(2)
N8_7 N 0.1288(2) 0.7965(2) 0.8411(2)
N9_7 N 0.2035(2) 0.8411(2) 0.8712(2)
H6_7 H 0.1312 0.7863 0.8552
H7_7 H 0.2137 0.8552 0.8688
C9_7 C 0.1843(3) 0.8395(5) 0.8516(6)
C10_7 C 0.1484(6) 0.8157(3) 0.8395(5)
C14_7 C 0.1057(3) 0.7880(4) 0.8265(3)
C15_7 C 0.2120(4) 0.8265(3) 0.8943(3)
C19_7 C 0.0937(4) 0.8049(3) 0.8088(4)
C20_7 C 0.1951(3) 0.8088(4) 0.9063(4)
H11_7 H 0.1013 0.8220 0.8060
H12_7 H 0.1780 0.8060 0.8987
C24_7 C 0.0712(4) 0.7983(4) 0.7950(2)
C25_7 C 0.2017(4) 0.7950(2) 0.9288(4)
H16_7 H 0.0633 0.8112 0.7836
H17_7 H 0.1888 0.7836 0.9367
C29_7 C 0.0591(3) 0.7729(3) 0.7969(3)
C30_7 C 0.2271(3) 0.7969(3) 0.9409(3)
C34_7 C 0.0710(3) 0.7577(3) 0.8148(4)
C35_7 C 0.2423(3) 0.8148(4) 0.9290(3)
H21_7 H 0.0630 0.7408 0.8178
H22_7 H 0.2592 0.8178 0.9370
C39_7 C 0.0938(4) 0.7634(3) 0.8298(3)
C40_7 C 0.2366(3) 0.8298(3) 0.9062(4)
H26_7 H 0.1009 0.7507 0.8420
H27_7 H 0.2493 0.8420 0.8991
C44_7 C 0.0357(2) 0.7681(3) 0.7795(3)
C45_7 C 0.2319(3) 0.7795(3) 0.9643(2)
O11_12 O 1.0000 0.81224(16) 0.71739(17)
O11_13 O -0.0000 0.31224(16) 0.78261(17)
O1_8 O 0.76508(14) 0.47389(16) 0.71542(13)
O2_13 O 0.71739(17) 0.5000 0.68776(16)
O3_7 O 0.78323(13) 0.47251(13) 0.75991(15)
N1_8 N 0.8171(2) 0.3584(2) 0.6673(4)
N2_8 N 0.8411(2) 0.3712(2) 0.7035(2)
H1_8 H 0.8552 0.3688 0.7137
C1_8 C 0.8395(5) 0.3516(6) 0.6843(3)
C2_8 C 0.8265(3) 0.3943(3) 0.7120(4)
C3_8 C 0.8088(4) 0.4063(4) 0.6951(3)
H2_8 H 0.8060 0.3987 0.6780
C4_8 C 0.7950(2) 0.4288(4) 0.7017(4)
H3_8 H 0.7836 0.4367 0.6888
C5_8 C 0.7969(3) 0.4409(3) 0.7271(3)
C6_8 C 0.8148(4) 0.4290(3) 0.7423(3)
H4_8 H 0.8178 0.4370 0.7592
C7_8 C 0.8298(3) 0.4062(4) 0.7366(3)
H5_8 H 0.8420 0.3991 0.7493
C8_8 C 0.7795(3) 0.4643(2) 0.7319(3)
O4_8 O 0.97389(16) 0.28458(13) 0.73492(14)
O5_8 O 0.78458(13) 0.26508(14) 0.52611(16)
O10_6 O 0.78458(13) 0.26508(14) 0.47389(16)
O11_14 O 1.0000 0.31224(16) 0.78261(17)
O12_13 O 0.81224(16) 0.21739(17) 0.5000
O19_7 O 0.71677(13) 0.47251(13) 0.74009(15)
N3_8 N 0.8327(4) 0.3171(2) 0.6416(2)
N4_8 N 0.8584(2) 0.3327(4) 0.6829(2)
N8_8 N 0.8712(2) 0.2965(2) 0.6589(2)
N9_8 N 0.7965(2) 0.3411(2) 0.6288(2)
H6_8 H 0.8688 0.2863 0.6448
H7_8 H 0.7863 0.3552 0.6312
C9_8 C 0.8157(3) 0.3395(5) 0.6484(6)
C10_8 C 0.8516(6) 0.3157(3) 0.6605(5)
C14_8 C 0.8943(3) 0.2880(4) 0.6735(3)
C15_8 C 0.7880(4) 0.3265(3) 0.6057(3)
C19_8 C 0.9063(4) 0.3049(3) 0.6912(4)
C20_8 C 0.8049(3) 0.3088(4) 0.5937(4)
H11_8 H 0.8987 0.3220 0.6940
H12_8 H 0.8220 0.3060 0.6013
C24_8 C 0.9288(4) 0.2983(4) 0.7050(2)
C25_8 C 0.7983(4) 0.2950(2) 0.5712(4)
H16_8 H 0.9367 0.3112 0.7164
H17_8 H 0.8112 0.2836 0.5633
C29_8 C 0.9409(3) 0.2729(3) 0.7031(3)
C30_8 C 0.7729(3) 0.2969(3) 0.5591(3)
C34_8 C 0.9290(3) 0.2577(3) 0.6852(4)
C35_8 C 0.7577(3) 0.3148(4) 0.5710(3)
H21_8 H 0.9370 0.2408 0.6822
H22_8 H 0.7408 0.3178 0.5630
C39_8 C 0.9062(4) 0.2634(3) 0.6702(3)
C40_8 C 0.7634(3) 0.3298(3) 0.5938(4)
H26_8 H 0.8991 0.2507 0.6580
H27_8 H 0.7507 0.3420 0.6009
C44_8 C 0.9643(2) 0.2681(3) 0.7205(3)
C45_8 C 0.7681(3) 0.2795(3) 0.5357(2)
O11_15 O -0.0000 0.68776(16) 0.21739(17)
O1_9 O 0.76508(14) 0.52611(16) 0.28458(13)
O2_14 O 0.71739(17) 0.5000 0.31224(16)
N1_9 N 0.8171(2) 0.6416(2) 0.3327(4)
N2_9 N 0.8411(2) 0.6288(2) 0.2965(2)
H1_9 H 0.8552 0.6312 0.2863
C1_9 C 0.8395(5) 0.6484(6) 0.3157(3)
C2_9 C 0.8265(3) 0.6057(3) 0.2880(4)
C3_9 C 0.8088(4) 0.5937(4) 0.3049(3)
H2_9 H 0.8060 0.6013 0.3220
C4_9 C 0.7950(2) 0.5712(4) 0.2983(4)
H3_9 H 0.7836 0.5633 0.3112
C5_9 C 0.7969(3) 0.5591(3) 0.2729(3)
C6_9 C 0.8148(4) 0.5710(3) 0.2577(3)
H4_9 H 0.8178 0.5630 0.2408
C7_9 C 0.8298(3) 0.5938(4) 0.2634(3)
H5_9 H 0.8420 0.6009 0.2507
C8_9 C 0.7795(3) 0.5357(2) 0.2681(3)
O4_9 O 0.97389(16) 0.71542(13) 0.26508(14)
O5_9 O 0.78458(13) 0.73492(14) 0.47389(16)
O6_6 O 0.76508(14) 0.47389(16) 0.28458(13)
O7_14 O 0.97389(16) 0.28458(13) 0.26508(14)
O11_16 O 1.0000 0.68776(16) 0.21739(17)
O12_14 O 0.81224(16) 0.78261(17) 0.5000
O14_7 O 0.74009(15) 0.71677(13) 0.47251(13)
O23_7 O 0.75991(15) 0.78323(13) 0.47251(13)
N3_9 N 0.8327(4) 0.6829(2) 0.3584(2)
N4_9 N 0.8584(2) 0.6673(4) 0.3171(2)
N5_14 N 0.8171(2) 0.3584(2) 0.3327(4)
N6_14 N 0.8327(4) 0.3171(2) 0.3584(2)
N7_14 N 0.8584(2) 0.3327(4) 0.3171(2)
N8_9 N 0.8712(2) 0.7035(2) 0.3411(2)
N9_9 N 0.7965(2) 0.6589(2) 0.3712(2)
N10_14 N 0.8411(2) 0.3712(2) 0.2965(2)
N11_14 N 0.8712(2) 0.2965(2) 0.3411(2)
N12_14 N 0.7965(2) 0.3411(2) 0.3712(2)
H6_9 H 0.8688 0.7137 0.3552
H7_9 H 0.7863 0.6448 0.3688
H8_14 H 0.8552 0.3688 0.2863
H9_14 H 0.8688 0.2863 0.3552
H10_14 H 0.7863 0.3552 0.3688
C9_9 C 0.8157(3) 0.6605(5) 0.3516(6)
C10_9 C 0.8516(6) 0.6843(3) 0.3395(5)
C11_14 C 0.8395(5) 0.3516(6) 0.3157(3)
C12_14 C 0.8157(3) 0.3395(5) 0.3516(6)
C13_14 C 0.8516(6) 0.3157(3) 0.3395(5)
C14_9 C 0.8943(3) 0.7120(4) 0.3265(3)
C15_9 C 0.7880(4) 0.6735(3) 0.3943(3)
C16_14 C 0.8265(3) 0.3943(3) 0.2880(4)
C17_14 C 0.8943(3) 0.2880(4) 0.3265(3)
C18_14 C 0.7880(4) 0.3265(3) 0.3943(3)
C19_9 C 0.9063(4) 0.6951(3) 0.3088(4)
C20_9 C 0.8049(3) 0.6912(4) 0.4063(4)
C21_14 C 0.8088(4) 0.4063(4) 0.3049(3)
C22_14 C 0.9063(4) 0.3049(3) 0.3088(4)
C23_14 C 0.8049(3) 0.3088(4) 0.4063(4)
H11_9 H 0.8987 0.6780 0.3060
H12_9 H 0.8220 0.6940 0.3987
H13_14 H 0.8060 0.3987 0.3220
H14_14 H 0.8987 0.3220 0.3060
H15_14 H 0.8220 0.3060 0.3987
C24_9 C 0.9288(4) 0.7017(4) 0.2950(2)
C25_9 C 0.7983(4) 0.7050(2) 0.4288(4)
C26_14 C 0.7950(2) 0.4288(4) 0.2983(4)
C27_14 C 0.9288(4) 0.2983(4) 0.2950(2)
C28_14 C 0.7983(4) 0.2950(2) 0.4288(4)
H16_9 H 0.9367 0.6888 0.2836
H17_9 H 0.8112 0.7164 0.4367
H18_14 H 0.7836 0.4367 0.3112
H19_14 H 0.9367 0.3112 0.2836
H20_14 H 0.8112 0.2836 0.4367
C29_9 C 0.9409(3) 0.7271(3) 0.2969(3)
C30_9 C 0.7729(3) 0.7031(3) 0.4409(3)
C31_14 C 0.7969(3) 0.4409(3) 0.2729(3)
C32_14 C 0.9409(3) 0.2729(3) 0.2969(3)
C33_14 C 0.7729(3) 0.2969(3) 0.4409(3)
C34_9 C 0.9290(3) 0.7423(3) 0.3148(4)
C35_9 C 0.7577(3) 0.6852(4) 0.4290(3)
C36_14 C 0.8148(4) 0.4290(3) 0.2577(3)
C37_14 C 0.9290(3) 0.2577(3) 0.3148(4)
C38_14 C 0.7577(3) 0.3148(4) 0.4290(3)
H21_9 H 0.9370 0.7592 0.3178
H22_9 H 0.7408 0.6822 0.4370
H23_14 H 0.8178 0.4370 0.2408
H24_14 H 0.9370 0.2408 0.3178
H25_14 H 0.7408 0.3178 0.4370
C39_9 C 0.9062(4) 0.7366(3) 0.3298(3)
C40_9 C 0.7634(3) 0.6702(3) 0.4062(4)
C41_14 C 0.8298(3) 0.4062(4) 0.2634(3)
C42_14 C 0.9062(4) 0.2634(3) 0.3298(3)
C43_14 C 0.7634(3) 0.3298(3) 0.4062(4)
H26_9 H 0.8991 0.7493 0.3420
H27_9 H 0.7507 0.6580 0.3991
H28_14 H 0.8420 0.3991 0.2507
H29_14 H 0.8991 0.2507 0.3420
H30_14 H 0.7507 0.3420 0.3991
C44_9 C 0.9643(2) 0.7319(3) 0.2795(3)
C45_9 C 0.7681(3) 0.7205(3) 0.4643(2)
C46_14 C 0.7795(3) 0.4643(2) 0.2681(3)
C47_14 C 0.9643(2) 0.2681(3) 0.2795(3)
C48_14 C 0.7681(3) 0.2795(3) 0.4643(2)
O1_10 O 0.23492(14) 0.47389(16) 0.28458(13)
O2_15 O 0.28261(17) 0.5000 0.31224(16)
O3_8 O 0.21677(13) 0.47251(13) 0.24009(15)
N1_10 N 0.1829(2) 0.3584(2) 0.3327(4)
N2_10 N 0.1589(2) 0.3712(2) 0.2965(2)
H1_10 H 0.1448 0.3688 0.2863
C1_10 C 0.1605(5) 0.3516(6) 0.3157(3)
C2_10 C 0.1735(3) 0.3943(3) 0.2880(4)
C3_10 C 0.1912(4) 0.4063(4) 0.3049(3)
H2_10 H 0.1940 0.3987 0.3220
C4_10 C 0.2050(2) 0.4288(4) 0.2983(4)
H3_10 H 0.2164 0.4367 0.3112
C5_10 C 0.2031(3) 0.4409(3) 0.2729(3)
C6_10 C 0.1852(4) 0.4290(3) 0.2577(3)
H4_10 H 0.1822 0.4370 0.2408
C7_10 C 0.1702(3) 0.4062(4) 0.2634(3)
H5_10 H 0.1580 0.3991 0.2507
C8_10 C 0.2205(3) 0.4643(2) 0.2681(3)
O4_10 O 0.02611(16) 0.28458(13) 0.26508(14)
O5_10 O 0.21542(13) 0.26508(14) 0.47389(16)
O11_17 O 0.0000 0.31224(16) 0.21739(17)
O12_15 O 0.18776(16) 0.21739(17) 0.5000
O14_8 O 0.25991(15) 0.28323(13) 0.47251(13)
O19_8 O 0.28323(13) 0.47251(13) 0.25991(15)
O23_8 O 0.24009(15) 0.21677(13) 0.47251(13)
N3_10 N 0.1673(4) 0.3171(2) 0.3584(2)
N4_10 N 0.1416(2) 0.3327(4) 0.3171(2)
N8_10 N 0.1288(2) 0.2965(2) 0.3411(2)
N9_10 N 0.2035(2) 0.3411(2) 0.3712(2)
H6_10 H 0.1312 0.2863 0.3552
H7_10 H 0.2137 0.3552 0.3688
C9_10 C 0.1843(3) 0.3395(5) 0.3516(6)
C10_10 C 0.1484(6) 0.3157(3) 0.3395(5)
C14_10 C 0.1057(3) 0.2880(4) 0.3265(3)
C15_10 C 0.2120(4) 0.3265(3) 0.3943(3)
C19_10 C 0.0937(4) 0.3049(3) 0.3088(4)
C20_10 C 0.1951(3) 0.3088(4) 0.4063(4)
H11_10 H 0.1013 0.3220 0.3060
H12_10 H 0.1780 0.3060 0.3987
C24_10 C 0.0712(4) 0.2983(4) 0.2950(2)
C25_10 C 0.2017(4) 0.2950(2) 0.4288(4)
H16_10 H 0.0633 0.3112 0.2836
H17_10 H 0.1888 0.2836 0.4367
C29_10 C 0.0591(3) 0.2729(3) 0.2969(3)
C30_10 C 0.2271(3) 0.2969(3) 0.4409(3)
C34_10 C 0.0710(3) 0.2577(3) 0.3148(4)
C35_10 C 0.2423(3) 0.3148(4) 0.4290(3)
H21_10 H 0.0630 0.2408 0.3178
H22_10 H 0.2592 0.3178 0.4370
C39_10 C 0.0938(4) 0.2634(3) 0.3298(3)
C40_10 C 0.2366(3) 0.3298(3) 0.4062(4)
H26_10 H 0.1009 0.2507 0.3420
H27_10 H 0.2493 0.3420 0.3991
C44_10 C 0.0357(2) 0.2681(3) 0.2795(3)
C45_10 C 0.2319(3) 0.2795(3) 0.4643(2)
O11_18 O 1.0000 0.31224(16) 0.21739(17)
O2_16 O 0.21739(17) 0.0000 0.68776(16)
O1_11 O 0.26508(14) 0.97389(16) 0.71542(13)
O2_17 O 0.21739(17) 1.0000 0.68776(16)
N1_11 N 0.3171(2) 0.8584(2) 0.6673(4)
N2_11 N 0.3411(2) 0.8712(2) 0.7035(2)
H1_11 H 0.3552 0.8688 0.7137
C1_11 C 0.3395(5) 0.8516(6) 0.6843(3)
C2_11 C 0.3265(3) 0.8943(3) 0.7120(4)
C3_11 C 0.3088(4) 0.9063(4) 0.6951(3)
H2_11 H 0.3060 0.8987 0.6780
C4_11 C 0.2950(2) 0.9288(4) 0.7017(4)
H3_11 H 0.2836 0.9367 0.6888
C5_11 C 0.2969(3) 0.9409(3) 0.7271(3)
C6_11 C 0.3148(4) 0.9290(3) 0.7423(3)
H4_11 H 0.3178 0.9370 0.7592
C7_11 C 0.3298(3) 0.9062(4) 0.7366(3)
H5_11 H 0.3420 0.8991 0.7493
C8_11 C 0.2795(3) 0.9643(2) 0.7319(3)
O4_11 O 0.47389(16) 0.78458(13) 0.73492(14)
O5_11 O 0.28458(13) 0.76508(14) 0.52611(16)
O10_7 O 0.28458(13) 0.76508(14) 0.47389(16)
O11_19 O 0.5000 0.81224(16) 0.78261(17)
O12_16 O 0.31224(16) 0.71739(17) 0.5000
O13_7 O 0.47251(13) 0.74009(15) 0.71677(13)
O21_7 O 0.47251(13) 0.75991(15) 0.78323(13)
N3_11 N 0.3327(4) 0.8171(2) 0.6416(2)
N4_11 N 0.3584(2) 0.8327(4) 0.6829(2)
N8_11 N 0.3712(2) 0.7965(2) 0.6589(2)
N9_11 N 0.2965(2) 0.8411(2) 0.6288(2)
H6_11 H 0.3688 0.7863 0.6448
H7_11 H 0.2863 0.8552 0.6312
C9_11 C 0.3157(3) 0.8395(5) 0.6484(6)
C10_11 C 0.3516(6) 0.8157(3) 0.6605(5)
C14_11 C 0.3943(3) 0.7880(4) 0.6735(3)
C15_11 C 0.2880(4) 0.8265(3) 0.6057(3)
C19_11 C 0.4063(4) 0.8049(3) 0.6912(4)
C20_11 C 0.3049(3) 0.8088(4) 0.5937(4)
H11_11 H 0.3987 0.8220 0.6940
H12_11 H 0.3220 0.8060 0.6013
C24_11 C 0.4288(4) 0.7983(4) 0.7050(2)
C25_11 C 0.2983(4) 0.7950(2) 0.5712(4)
H16_11 H 0.4367 0.8112 0.7164
H17_11 H 0.3112 0.7836 0.5633
C29_11 C 0.4409(3) 0.7729(3) 0.7031(3)
C30_11 C 0.2729(3) 0.7969(3) 0.5591(3)
C34_11 C 0.4290(3) 0.7577(3) 0.6852(4)
C35_11 C 0.2577(3) 0.8148(4) 0.5710(3)
H21_11 H 0.4370 0.7408 0.6822
H22_11 H 0.2408 0.8178 0.5630
C39_11 C 0.4062(4) 0.7634(3) 0.6702(3)
C40_11 C 0.2634(3) 0.8298(3) 0.5938(4)
H26_11 H 0.3991 0.7507 0.6580
H27_11 H 0.2507 0.8420 0.6009
C44_11 C 0.4643(2) 0.7681(3) 0.7205(3)
C45_11 C 0.2681(3) 0.7795(3) 0.5357(2)
O1_12 O 0.26508(14) 0.02611(16) 0.28458(13)
O2_18 O 0.21739(17) 0.0000 0.31224(16)
N1_12 N 0.3171(2) 0.1416(2) 0.3327(4)
N2_12 N 0.3411(2) 0.1288(2) 0.2965(2)
H1_12 H 0.3552 0.1312 0.2863
C1_12 C 0.3395(5) 0.1484(6) 0.3157(3)
C2_12 C 0.3265(3) 0.1057(3) 0.2880(4)
C3_12 C 0.3088(4) 0.0937(4) 0.3049(3)
H2_12 H 0.3060 0.1013 0.3220
C4_12 C 0.2950(2) 0.0712(4) 0.2983(4)
H3_12 H 0.2836 0.0633 0.3112
C5_12 C 0.2969(3) 0.0591(3) 0.2729(3)
C6_12 C 0.3148(4) 0.0710(3) 0.2577(3)
H4_12 H 0.3178 0.0630 0.2408
C7_12 C 0.3298(3) 0.0938(4) 0.2634(3)
H5_12 H 0.3420 0.1009 0.2507
C8_12 C 0.2795(3) 0.0357(2) 0.2681(3)
O4_12 O 0.47389(16) 0.21542(13) 0.26508(14)
O5_12 O 0.28458(13) 0.23492(14) 0.47389(16)
O11_20 O 0.5000 0.18776(16) 0.21739(17)
O12_17 O 0.31224(16) 0.28261(17) 0.5000
O13_8 O 0.47251(13) 0.25991(15) 0.28323(13)
O21_8 O 0.47251(13) 0.24009(15) 0.21677(13)
N3_12 N 0.3327(4) 0.1829(2) 0.3584(2)
N4_12 N 0.3584(2) 0.1673(4) 0.3171(2)
N8_12 N 0.3712(2) 0.2035(2) 0.3411(2)
N9_12 N 0.2965(2) 0.1589(2) 0.3712(2)
H6_12 H 0.3688 0.2137 0.3552
H7_12 H 0.2863 0.1448 0.3688
C9_12 C 0.3157(3) 0.1605(5) 0.3516(6)
C10_12 C 0.3516(6) 0.1843(3) 0.3395(5)
C14_12 C 0.3943(3) 0.2120(4) 0.3265(3)
C15_12 C 0.2880(4) 0.1735(3) 0.3943(3)
C19_12 C 0.4063(4) 0.1951(3) 0.3088(4)
C20_12 C 0.3049(3) 0.1912(4) 0.4063(4)
H11_12 H 0.3987 0.1780 0.3060
H12_12 H 0.3220 0.1940 0.3987
C24_12 C 0.4288(4) 0.2017(4) 0.2950(2)
C25_12 C 0.2983(4) 0.2050(2) 0.4288(4)
H16_12 H 0.4367 0.1888 0.2836
H17_12 H 0.3112 0.2164 0.4367
C29_12 C 0.4409(3) 0.2271(3) 0.2969(3)
C30_12 C 0.2729(3) 0.2031(3) 0.4409(3)
C34_12 C 0.4290(3) 0.2423(3) 0.3148(4)
C35_12 C 0.2577(3) 0.1852(4) 0.4290(3)
H21_12 H 0.4370 0.2592 0.3178
H22_12 H 0.2408 0.1822 0.4370
C39_12 C 0.4062(4) 0.2366(3) 0.3298(3)
C40_12 C 0.2634(3) 0.1702(3) 0.4062(4)
H26_12 H 0.3991 0.2493 0.3420
H27_12 H 0.2507 0.1580 0.3991
C44_12 C 0.4643(2) 0.2319(3) 0.2795(3)
C45_12 C 0.2681(3) 0.2205(3) 0.4643(2)
O2_19 O 0.21739(17) 1.0000 0.31224(16)
O6_7 O 0.26508(14) 0.97389(16) 0.28458(13)
O7_15 O 0.47389(16) 0.78458(13) 0.26508(14)
N5_15 N 0.3171(2) 0.8584(2) 0.3327(4)
N6_15 N 0.3327(4) 0.8171(2) 0.3584(2)
N7_15 N 0.3584(2) 0.8327(4) 0.3171(2)
N10_15 N 0.3411(2) 0.8712(2) 0.2965(2)
N11_15 N 0.3712(2) 0.7965(2) 0.3411(2)
N12_15 N 0.2965(2) 0.8411(2) 0.3712(2)
H8_15 H 0.3552 0.8688 0.2863
H9_15 H 0.3688 0.7863 0.3552
H10_15 H 0.2863 0.8552 0.3688
C11_15 C 0.3395(5) 0.8516(6) 0.3157(3)
C12_15 C 0.3157(3) 0.8395(5) 0.3516(6)
C13_15 C 0.3516(6) 0.8157(3) 0.3395(5)
C16_15 C 0.3265(3) 0.8943(3) 0.2880(4)
C17_15 C 0.3943(3) 0.7880(4) 0.3265(3)
C18_15 C 0.2880(4) 0.8265(3) 0.3943(3)
C21_15 C 0.3088(4) 0.9063(4) 0.3049(3)
C22_15 C 0.4063(4) 0.8049(3) 0.3088(4)
C23_15 C 0.3049(3) 0.8088(4) 0.4063(4)
H13_15 H 0.3060 0.8987 0.3220
H14_15 H 0.3987 0.8220 0.3060
H15_15 H 0.3220 0.8060 0.3987
C26_15 C 0.2950(2) 0.9288(4) 0.2983(4)
C27_15 C 0.4288(4) 0.7983(4) 0.2950(2)
C28_15 C 0.2983(4) 0.7950(2) 0.4288(4)
H18_15 H 0.2836 0.9367 0.3112
H19_15 H 0.4367 0.8112 0.2836
H20_15 H 0.3112 0.7836 0.4367
C31_15 C 0.2969(3) 0.9409(3) 0.2729(3)
C32_15 C 0.4409(3) 0.7729(3) 0.2969(3)
C33_15 C 0.2729(3) 0.7969(3) 0.4409(3)
C36_15 C 0.3148(4) 0.9290(3) 0.2577(3)
C37_15 C 0.4290(3) 0.7577(3) 0.3148(4)
C38_15 C 0.2577(3) 0.8148(4) 0.4290(3)
H23_15 H 0.3178 0.9370 0.2408
H24_15 H 0.4370 0.7408 0.3178
H25_15 H 0.2408 0.8178 0.4370
C41_15 C 0.3298(3) 0.9062(4) 0.2634(3)
C42_15 C 0.4062(4) 0.7634(3) 0.3298(3)
C43_15 C 0.2634(3) 0.8298(3) 0.4062(4)
H28_15 H 0.3420 0.8991 0.2507
H29_15 H 0.3991 0.7507 0.3420
H30_15 H 0.2507 0.8420 0.3991
C46_15 C 0.2795(3) 0.9643(2) 0.2681(3)
C47_15 C 0.4643(2) 0.7681(3) 0.2795(3)
C48_15 C 0.2681(3) 0.7795(3) 0.4643(2)
O2_20 O 0.78261(17) 0.0000 0.31224(16)
O1_13 O 0.73492(14) 0.97389(16) 0.28458(13)
O2_21 O 0.78261(17) 1.0000 0.31224(16)
N1_13 N 0.6829(2) 0.8584(2) 0.3327(4)
N2_13 N 0.6589(2) 0.8712(2) 0.2965(2)
H1_13 H 0.6448 0.8688 0.2863
C1_13 C 0.6605(5) 0.8516(6) 0.3157(3)
C2_13 C 0.6735(3) 0.8943(3) 0.2880(4)
C3_13 C 0.6912(4) 0.9063(4) 0.3049(3)
H2_13 H 0.6940 0.8987 0.3220
C4_13 C 0.7050(2) 0.9288(4) 0.2983(4)
H3_13 H 0.7164 0.9367 0.3112
C5_13 C 0.7031(3) 0.9409(3) 0.2729(3)
C6_13 C 0.6852(4) 0.9290(3) 0.2577(3)
H4_13 H 0.6822 0.9370 0.2408
C7_13 C 0.6702(3) 0.9062(4) 0.2634(3)
H5_13 H 0.6580 0.8991 0.2507
C8_13 C 0.7205(3) 0.9643(2) 0.2681(3)
O4_13 O 0.52611(16) 0.78458(13) 0.26508(14)
O5_13 O 0.71542(13) 0.76508(14) 0.47389(16)
O11_21 O 0.5000 0.81224(16) 0.21739(17)
O12_18 O 0.68776(16) 0.71739(17) 0.5000
N3_13 N 0.6673(4) 0.8171(2) 0.3584(2)
N4_13 N 0.6416(2) 0.8327(4) 0.3171(2)
N8_13 N 0.6288(2) 0.7965(2) 0.3411(2)
N9_13 N 0.7035(2) 0.8411(2) 0.3712(2)
H6_13 H 0.6312 0.7863 0.3552
H7_13 H 0.7137 0.8552 0.3688
C9_13 C 0.6843(3) 0.8395(5) 0.3516(6)
C10_13 C 0.6484(6) 0.8157(3) 0.3395(5)
C14_13 C 0.6057(3) 0.7880(4) 0.3265(3)
C15_13 C 0.7120(4) 0.8265(3) 0.3943(3)
C19_13 C 0.5937(4) 0.8049(3) 0.3088(4)
C20_13 C 0.6951(3) 0.8088(4) 0.4063(4)
H11_13 H 0.6013 0.8220 0.3060
H12_13 H 0.6780 0.8060 0.3987
C24_13 C 0.5712(4) 0.7983(4) 0.2950(2)
C25_13 C 0.7017(4) 0.7950(2) 0.4288(4)
H16_13 H 0.5633 0.8112 0.2836
H17_13 H 0.6888 0.7836 0.4367
C29_13 C 0.5591(3) 0.7729(3) 0.2969(3)
C30_13 C 0.7271(3) 0.7969(3) 0.4409(3)
C34_13 C 0.5710(3) 0.7577(3) 0.3148(4)
C35_13 C 0.7423(3) 0.8148(4) 0.4290(3)
H21_13 H 0.5630 0.7408 0.3178
H22_13 H 0.7592 0.8178 0.4370
C39_13 C 0.5938(4) 0.7634(3) 0.3298(3)
C40_13 C 0.7366(3) 0.8298(3) 0.4062(4)
H26_13 H 0.6009 0.7507 0.3420
H27_13 H 0.7493 0.8420 0.3991
C44_13 C 0.5357(2) 0.7681(3) 0.2795(3)
C45_13 C 0.7319(3) 0.7795(3) 0.4643(2)
O1_14 O 0.26508(14) 0.47389(16) 0.21542(13)
O2_22 O 0.21739(17) 0.5000 0.18776(16)
N1_14 N 0.3171(2) 0.3584(2) 0.1673(4)
N2_14 N 0.3411(2) 0.3712(2) 0.2035(2)
H1_14 H 0.3552 0.3688 0.2137
C1_14 C 0.3395(5) 0.3516(6) 0.1843(3)
C2_14 C 0.3265(3) 0.3943(3) 0.2120(4)
C3_14 C 0.3088(4) 0.4063(4) 0.1951(3)
H2_14 H 0.3060 0.3987 0.1780
C4_14 C 0.2950(2) 0.4288(4) 0.2017(4)
H3_14 H 0.2836 0.4367 0.1888
C5_14 C 0.2969(3) 0.4409(3) 0.2271(3)
C6_14 C 0.3148(4) 0.4290(3) 0.2423(3)
H4_14 H 0.3178 0.4370 0.2592
C7_14 C 0.3298(3) 0.4062(4) 0.2366(3)
H5_14 H 0.3420 0.3991 0.2493
C8_14 C 0.2795(3) 0.4643(2) 0.2319(3)
O4_14 O 0.47389(16) 0.28458(13) 0.23492(14)
O5_14 O 0.28458(13) 0.26508(14) 0.02611(16)
O11_22 O 0.5000 0.31224(16) 0.28261(17)
O12_19 O 0.31224(16) 0.21739(17) 0.0000
N3_14 N 0.3327(4) 0.3171(2) 0.1416(2)
N4_14 N 0.3584(2) 0.3327(4) 0.1829(2)
N8_14 N 0.3712(2) 0.2965(2) 0.1589(2)
N9_14 N 0.2965(2) 0.3411(2) 0.1288(2)
H6_14 H 0.3688 0.2863 0.1448
H7_14 H 0.2863 0.3552 0.1312
C9_14 C 0.3157(3) 0.3395(5) 0.1484(6)
C10_14 C 0.3516(6) 0.3157(3) 0.1605(5)
C14_14 C 0.3943(3) 0.2880(4) 0.1735(3)
C15_14 C 0.2880(4) 0.3265(3) 0.1057(3)
C19_14 C 0.4063(4) 0.3049(3) 0.1912(4)
C20_14 C 0.3049(3) 0.3088(4) 0.0937(4)
H11_14 H 0.3987 0.3220 0.1940
H12_14 H 0.3220 0.3060 0.1013
C24_14 C 0.4288(4) 0.2983(4) 0.2050(2)
C25_14 C 0.2983(4) 0.2950(2) 0.0712(4)
H16_14 H 0.4367 0.3112 0.2164
H17_14 H 0.3112 0.2836 0.0633
C29_14 C 0.4409(3) 0.2729(3) 0.2031(3)
C30_14 C 0.2729(3) 0.2969(3) 0.0591(3)
C34_14 C 0.4290(3) 0.2577(3) 0.1852(4)
C35_14 C 0.2577(3) 0.3148(4) 0.0710(3)
H21_14 H 0.4370 0.2408 0.1822
H22_14 H 0.2408 0.3178 0.0630
C39_14 C 0.4062(4) 0.2634(3) 0.1702(3)
C40_14 C 0.2634(3) 0.3298(3) 0.0938(4)
H26_14 H 0.3991 0.2507 0.1580
H27_14 H 0.2507 0.3420 0.1009
C44_14 C 0.4643(2) 0.2681(3) 0.2205(3)
C45_14 C 0.2681(3) 0.2795(3) 0.0357(2)
O10_8 O 0.28458(13) 0.26508(14) 0.97389(16)
O12_20 O 0.31224(16) 0.21739(17) 1.0000
O12_21 O 0.31224(16) 0.78261(17) 0.0000
O1_15 O 0.26508(14) 0.52611(16) 0.78458(13)
O2_23 O 0.21739(17) 0.5000 0.81224(16)
N1_15 N 0.3171(2) 0.6416(2) 0.8327(4)
N2_15 N 0.3411(2) 0.6288(2) 0.7965(2)
H1_15 H 0.3552 0.6312 0.7863
C1_15 C 0.3395(5) 0.6484(6) 0.8157(3)
C2_15 C 0.3265(3) 0.6057(3) 0.7880(4)
C3_15 C 0.3088(4) 0.5937(4) 0.8049(3)
H2_15 H 0.3060 0.6013 0.8220
C4_15 C 0.2950(2) 0.5712(4) 0.7983(4)
H3_15 H 0.2836 0.5633 0.8112
C5_15 C 0.2969(3) 0.5591(3) 0.7729(3)
C6_15 C 0.3148(4) 0.5710(3) 0.7577(3)
H4_15 H 0.3178 0.5630 0.7408
C7_15 C 0.3298(3) 0.5938(4) 0.7634(3)
H5_15 H 0.3420 0.6009 0.7507
C8_15 C 0.2795(3) 0.5357(2) 0.7681(3)
O4_15 O 0.47389(16) 0.71542(13) 0.76508(14)
O5_15 O 0.28458(13) 0.73492(14) 0.97389(16)
O6_8 O 0.26508(14) 0.47389(16) 0.78458(13)
O7_16 O 0.47389(16) 0.28458(13) 0.76508(14)
O11_23 O 0.5000 0.68776(16) 0.71739(17)
O12_22 O 0.31224(16) 0.78261(17) 1.0000
N3_15 N 0.3327(4) 0.6829(2) 0.8584(2)
N4_15 N 0.3584(2) 0.6673(4) 0.8171(2)
N5_16 N 0.3171(2) 0.3584(2) 0.8327(4)
N6_16 N 0.3327(4) 0.3171(2) 0.8584(2)
N7_16 N 0.3584(2) 0.3327(4) 0.8171(2)
N8_15 N 0.3712(2) 0.7035(2) 0.8411(2)
N9_15 N 0.2965(2) 0.6589(2) 0.8712(2)
N10_16 N 0.3411(2) 0.3712(2) 0.7965(2)
N11_16 N 0.3712(2) 0.2965(2) 0.8411(2)
N12_16 N 0.2965(2) 0.3411(2) 0.8712(2)
H6_15 H 0.3688 0.7137 0.8552
H7_15 H 0.2863 0.6448 0.8688
H8_16 H 0.3552 0.3688 0.7863
H9_16 H 0.3688 0.2863 0.8552
H10_16 H 0.2863 0.3552 0.8688
C9_15 C 0.3157(3) 0.6605(5) 0.8516(6)
C10_15 C 0.3516(6) 0.6843(3) 0.8395(5)
C11_16 C 0.3395(5) 0.3516(6) 0.8157(3)
C12_16 C 0.3157(3) 0.3395(5) 0.8516(6)
C13_16 C 0.3516(6) 0.3157(3) 0.8395(5)
C14_15 C 0.3943(3) 0.7120(4) 0.8265(3)
C15_15 C 0.2880(4) 0.6735(3) 0.8943(3)
C16_16 C 0.3265(3) 0.3943(3) 0.7880(4)
C17_16 C 0.3943(3) 0.2880(4) 0.8265(3)
C18_16 C 0.2880(4) 0.3265(3) 0.8943(3)
C19_15 C 0.4063(4) 0.6951(3) 0.8088(4)
C20_15 C 0.3049(3) 0.6912(4) 0.9063(4)
C21_16 C 0.3088(4) 0.4063(4) 0.8049(3)
C22_16 C 0.4063(4) 0.3049(3) 0.8088(4)
C23_16 C 0.3049(3) 0.3088(4) 0.9063(4)
H11_15 H 0.3987 0.6780 0.8060
H12_15 H 0.3220 0.6940 0.8987
H13_16 H 0.3060 0.3987 0.8220
H14_16 H 0.3987 0.3220 0.8060
H15_16 H 0.3220 0.3060 0.8987
C24_15 C 0.4288(4) 0.7017(4) 0.7950(2)
C25_15 C 0.2983(4) 0.7050(2) 0.9288(4)
C26_16 C 0.2950(2) 0.4288(4) 0.7983(4)
C27_16 C 0.4288(4) 0.2983(4) 0.7950(2)
C28_16 C 0.2983(4) 0.2950(2) 0.9288(4)
H16_15 H 0.4367 0.6888 0.7836
H17_15 H 0.3112 0.7164 0.9367
H18_16 H 0.2836 0.4367 0.8112
H19_16 H 0.4367 0.3112 0.7836
H20_16 H 0.3112 0.2836 0.9367
C29_15 C 0.4409(3) 0.7271(3) 0.7969(3)
C30_15 C 0.2729(3) 0.7031(3) 0.9409(3)
C31_16 C 0.2969(3) 0.4409(3) 0.7729(3)
C32_16 C 0.4409(3) 0.2729(3) 0.7969(3)
C33_16 C 0.2729(3) 0.2969(3) 0.9409(3)
C34_15 C 0.4290(3) 0.7423(3) 0.8148(4)
C35_15 C 0.2577(3) 0.6852(4) 0.9290(3)
C36_16 C 0.3148(4) 0.4290(3) 0.7577(3)
C37_16 C 0.4290(3) 0.2577(3) 0.8148(4)
C38_16 C 0.2577(3) 0.3148(4) 0.9290(3)
H21_15 H 0.4370 0.7592 0.8178
H22_15 H 0.2408 0.6822 0.9370
H23_16 H 0.3178 0.4370 0.7408
H24_16 H 0.4370 0.2408 0.8178
H25_16 H 0.2408 0.3178 0.9370
C39_15 C 0.4062(4) 0.7366(3) 0.8298(3)
C40_15 C 0.2634(3) 0.6702(3) 0.9062(4)
C41_16 C 0.3298(3) 0.4062(4) 0.7634(3)
C42_16 C 0.4062(4) 0.2634(3) 0.8298(3)
C43_16 C 0.2634(3) 0.3298(3) 0.9062(4)
H26_15 H 0.3991 0.7493 0.8420
H27_15 H 0.2507 0.6580 0.8991
H28_16 H 0.3420 0.3991 0.7507
H29_16 H 0.3991 0.2507 0.8420
H30_16 H 0.2507 0.3420 0.8991
C44_15 C 0.4643(2) 0.7319(3) 0.7795(3)
C45_15 C 0.2681(3) 0.7205(3) 0.9643(2)
C46_16 C 0.2795(3) 0.4643(2) 0.7681(3)
C47_16 C 0.4643(2) 0.2681(3) 0.7795(3)
C48_16 C 0.2681(3) 0.2795(3) 0.9643(2)
O12_23 O 0.68776(16) 0.21739(17) 0.0000
O1_16 O 0.73492(14) 0.47389(16) 0.78458(13)
O2_24 O 0.78261(17) 0.5000 0.81224(16)
N1_16 N 0.6829(2) 0.3584(2) 0.8327(4)
N2_16 N 0.6589(2) 0.3712(2) 0.7965(2)
H1_16 H 0.6448 0.3688 0.7863
C1_16 C 0.6605(5) 0.3516(6) 0.8157(3)
C2_16 C 0.6735(3) 0.3943(3) 0.7880(4)
C3_16 C 0.6912(4) 0.4063(4) 0.8049(3)
H2_16 H 0.6940 0.3987 0.8220
C4_16 C 0.7050(2) 0.4288(4) 0.7983(4)
H3_16 H 0.7164 0.4367 0.8112
C5_16 C 0.7031(3) 0.4409(3) 0.7729(3)
C6_16 C 0.6852(4) 0.4290(3) 0.7577(3)
H4_16 H 0.6822 0.4370 0.7408
C7_16 C 0.6702(3) 0.4062(4) 0.7634(3)
H5_16 H 0.6580 0.3991 0.7507
C8_16 C 0.7205(3) 0.4643(2) 0.7681(3)
O4_16 O 0.52611(16) 0.28458(13) 0.76508(14)
O5_16 O 0.71542(13) 0.26508(14) 0.97389(16)
O11_24 O 0.5000 0.31224(16) 0.71739(17)
O12_24 O 0.68776(16) 0.21739(17) 1.0000
N3_16 N 0.6673(4) 0.3171(2) 0.8584(2)
N4_16 N 0.6416(2) 0.3327(4) 0.8171(2)
N8_16 N 0.6288(2) 0.2965(2) 0.8411(2)
N9_16 N 0.7035(2) 0.3411(2) 0.8712(2)
H6_16 H 0.6312 0.2863 0.8552
H7_16 H 0.7137 0.3552 0.8688
C9_16 C 0.6843(3) 0.3395(5) 0.8516(6)
C10_16 C 0.6484(6) 0.3157(3) 0.8395(5)
C14_16 C 0.6057(3) 0.2880(4) 0.8265(3)
C15_16 C 0.7120(4) 0.3265(3) 0.8943(3)
C19_16 C 0.5937(4) 0.3049(3) 0.8088(4)
C20_16 C 0.6951(3) 0.3088(4) 0.9063(4)
H11_16 H 0.6013 0.3220 0.8060
H12_16 H 0.6780 0.3060 0.8987
C24_16 C 0.5712(4) 0.2983(4) 0.7950(2)
C25_16 C 0.7017(4) 0.2950(2) 0.9288(4)
H16_16 H 0.5633 0.3112 0.7836
H17_16 H 0.6888 0.2836 0.9367
C29_16 C 0.5591(3) 0.2729(3) 0.7969(3)
C30_16 C 0.7271(3) 0.2969(3) 0.9409(3)
C34_16 C 0.5710(3) 0.2577(3) 0.8148(4)
C35_16 C 0.7423(3) 0.3148(4) 0.9290(3)
H21_16 H 0.5630 0.2408 0.8178
H22_16 H 0.7592 0.3178 0.9370
C39_16 C 0.5938(4) 0.2634(3) 0.8298(3)
C40_16 C 0.7366(3) 0.3298(3) 0.9062(4)
H26_16 H 0.6009 0.2507 0.8420
H27_16 H 0.7493 0.3420 0.8991
C44_16 C 0.5357(2) 0.2681(3) 0.7795(3)
C45_16 C 0.7319(3) 0.2795(3) 0.9643(2)
loop_
_geom_bond_atom_site_label_1
_geom_bond_atom_site_label_2
_geom_bond_site_symmetry_1
_geom_bond_site_symmetry_2
Cu1 O1 1_555 1_555
O1 C8 1_555 1_555
O2 Cu1 1_555 1_555
O3 C8 1_555 1_555
N1 C1 1_555 1_555
N2 H1 1_555 1_555
C1 N2 1_555 1_555
C2 N2 1_555 1_555
C3 C2 1_555 1_555
H2 C3 1_555 1_555
C4 C3 1_555 1_555
H3 C4 1_555 1_555
C5 C4 1_555 1_555
C6 C5 1_555 1_555
H4 C6 1_555 1_555
C7 C2 1_555 1_555
H5 C7 1_555 1_555
C8 C5 1_555 1_555
Cu2 Cu5 1_555 1_555
Cu3 Cu6 1_555 1_555
Cu4 Cu1 1_555 1_555
Cu5 O13 1_555 1_555
Cu6 O14 1_555 1_555
O4 Cu2 1_555 1_555
O5 Cu3 1_555 1_555
O11 Cu2 1_555 1_555
O12 Cu3 1_555 1_555
O13 C44 1_555 1_555
O14 C45 1_555 1_555
O19 Cu1 1_555 1_555
O21 Cu2 1_555 1_555
O23 Cu3 1_555 1_555
N3 C9 1_555 1_555
N4 C1 1_555 1_555
N8 H6 1_555 1_555
N9 H7 1_555 1_555
C9 N1 1_555 1_555
C10 N3 1_555 1_555
C14 N8 1_555 1_555
C15 N9 1_555 1_555
C19 C14 1_555 1_555
C20 C15 1_555 1_555
H11 C19 1_555 1_555
H12 C20 1_555 1_555
C24 C19 1_555 1_555
C25 C20 1_555 1_555
H16 C24 1_555 1_555
H17 C25 1_555 1_555
C29 C24 1_555 1_555
C30 C25 1_555 1_555
C34 C29 1_555 1_555
C35 C30 1_555 1_555
H21 C34 1_555 1_555
H22 C35 1_555 1_555
C39 C14 1_555 1_555
C40 C15 1_555 1_555
H26 C39 1_555 1_555
H27 C40 1_555 1_555
C44 O4 1_555 1_555
C45 O5 1_555 1_555
O3 Cu4 1_555 1_555
C6 C7 1_555 1_555
N4 C10 1_555 1_555
N8 C10 1_555 1_555
N9 C9 1_555 1_555
C29 C44 1_555 1_555
C30 C45 1_555 1_555
C34 C39 1_555 1_555
C35 C40 1_555 1_555
Cu3_2 Cu6_2 1_555 1_555
O10 Cu3_2 1_555 1_555
O12_2 Cu3_2 1_555 1_555
O22 Cu3_2 1_555 1_555
O2_2 Cu1_2 1_555 1_555
Cu4_2 Cu1_2 1_555 1_555
Cu7 Cu8 1_555 1_555
Cu8 O16 1_555 1_555
Cu9 Cu10 1_555 1_555
Cu10 O17 1_555 1_555
O6 Cu1_2 1_555 1_555
O7 Cu7 1_555 1_555
O8 Cu9 1_555 1_555
O15 Cu4_2 1_555 1_555
O16 C47 1_555 1_555
O17 C48 1_555 1_555
O18 Cu1_2 1_555 1_555
N5 C11 1_555 1_555
N6 C12 1_555 1_555
N7 C11 1_555 1_555
N10 H8 1_555 1_555
N11 H9 1_555 1_555
N12 H10 1_555 1_555
C11 N10 1_555 1_555
C12 N5 1_555 1_555
C13 N6 1_555 1_555
C16 N10 1_555 1_555
C17 N11 1_555 1_555
C18 N12 1_555 1_555
C21 C16 1_555 1_555
C22 C17 1_555 1_555
C23 C18 1_555 1_555
H13 C21 1_555 1_555
H14 C22 1_555 1_555
H15 C23 1_555 1_555
C26 C21 1_555 1_555
C27 C22 1_555 1_555
C28 C23 1_555 1_555
H18 C26 1_555 1_555
H19 C27 1_555 1_555
H20 C28 1_555 1_555
C31 C26 1_555 1_555
C32 C27 1_555 1_555
C33 C28 1_555 1_555
C36 C31 1_555 1_555
C37 C32 1_555 1_555
C38 C33 1_555 1_555
H23 C36 1_555 1_555
H24 C37 1_555 1_555
H25 C38 1_555 1_555
C41 C16 1_555 1_555
C42 C17 1_555 1_555
C43 C18 1_555 1_555
H28 C41 1_555 1_555
H29 C42 1_555 1_555
H30 C43 1_555 1_555
C46 O6 1_555 1_555
C47 O7 1_555 1_555
C48 O8 1_555 1_555
O15 C46 1_555 1_555
N7 C13 1_555 1_555
N11 C13 1_555 1_555
N12 C12 1_555 1_555
C31 C46 1_555 1_555
C32 C47 1_555 1_555
C33 C48 1_555 1_555
C36 C41 1_555 1_555
C37 C42 1_555 1_555
C38 C43 1_555 1_555
Cu9_2 Cu10_2 1_555 1_555
Cu2_2 Cu5_2 1_555 1_555
O9 Cu2_2 1_555 1_555
O11_2 Cu2_2 1_555 1_555
O20 Cu2_2 1_555 1_555
Cu7_2 Cu8_2 1_555 1_555
Cu7_3 Cu8_3 1_555 1_555
Cu8_3 O16_2 1_555 1_555
Cu9_3 Cu10_3 1_555 1_555
Cu10_3 O17_2 1_555 1_555
O7_2 Cu7_3 1_555 1_555
O8_2 Cu9_3 1_555 1_555
O15_2 Cu6_2 1_555 1_555
O16_2 C47_2 1_555 1_555
O17_2 C48_2 1_555 1_555
N5_2 C11_2 1_555 1_555
N6_2 C12_2 1_555 1_555
N7_2 C11_2 1_555 1_555
N10_2 H8_2 1_555 1_555
N11_2 H9_2 1_555 1_555
N12_2 H10_2 1_555 1_555
C11_2 N10_2 1_555 1_555
C12_2 N5_2 1_555 1_555
C13_2 N6_2 1_555 1_555
C16_2 N10_2 1_555 1_555
C17_2 N11_2 1_555 1_555
C18_2 N12_2 1_555 1_555
C21_2 C16_2 1_555 1_555
C22_2 C17_2 1_555 1_555
C23_2 C18_2 1_555 1_555
H13_2 C21_2 1_555 1_555
H14_2 C22_2 1_555 1_555
H15_2 C23_2 1_555 1_555
C26_2 C21_2 1_555 1_555
C27_2 C22_2 1_555 1_555
C28_2 C23_2 1_555 1_555
H18_2 C26_2 1_555 1_555
H19_2 C27_2 1_555 1_555
H20_2 C28_2 1_555 1_555
C31_2 C26_2 1_555 1_555
C32_2 C27_2 1_555 1_555
C33_2 C28_2 1_555 1_555
C36_2 C31_2 1_555 1_555
C37_2 C32_2 1_555 1_555
C38_2 C33_2 1_555 1_555
H23_2 C36_2 1_555 1_555
H24_2 C37_2 1_555 1_555
H25_2 C38_2 1_555 1_555
C41_2 C16_2 1_555 1_555
C42_2 C17_2 1_555 1_555
C43_2 C18_2 1_555 1_555
H28_2 C41_2 1_555 1_555
H29_2 C42_2 1_555 1_555
H30_2 C43_2 1_555 1_555
C46_2 O10 1_555 1_555
C47_2 O7_2 1_555 1_555
C48_2 O8_2 1_555 1_555
O15_2 C46_2 1_555 1_555
N7_2 C13_2 1_555 1_555
N11_2 C13_2 1_555 1_555
N12_2 C12_2 1_555 1_555
C31_2 C46_2 1_555 1_555
C32_2 C47_2 1_555 1_555
C33_2 C48_2 1_555 1_555
C36_2 C41_2 1_555 1_555
C37_2 C42_2 1_555 1_555
C38_2 C43_2 1_555 1_555
Cu7_4 Cu8_4 1_555 1_555
Cu9_4 Cu10_4 1_555 1_555
Cu7_5 Cu8_5 1_555 1_555
Cu8_5 O16_3 1_555 1_555
Cu9_5 Cu10_5 1_555 1_555
Cu10_5 O17_3 1_555 1_555
O7_3 Cu7_5 1_555 1_555
O8_3 Cu9_5 1_555 1_555
O15_3 Cu5_2 1_555 1_555
O16_3 C47_3 1_555 1_555
O17_3 C48_3 1_555 1_555
N5_3 C11_3 1_555 1_555
N6_3 C12_3 1_555 1_555
N7_3 C11_3 1_555 1_555
N10_3 H8_3 1_555 1_555
N11_3 H9_3 1_555 1_555
N12_3 H10_3 1_555 1_555
C11_3 N10_3 1_555 1_555
C12_3 N5_3 1_555 1_555
C13_3 N6_3 1_555 1_555
C16_3 N10_3 1_555 1_555
C17_3 N11_3 1_555 1_555
C18_3 N12_3 1_555 1_555
C21_3 C16_3 1_555 1_555
C22_3 C17_3 1_555 1_555
C23_3 C18_3 1_555 1_555
H13_3 C21_3 1_555 1_555
H14_3 C22_3 1_555 1_555
H15_3 C23_3 1_555 1_555
C26_3 C21_3 1_555 1_555
C27_3 C22_3 1_555 1_555
C28_3 C23_3 1_555 1_555
H18_3 C26_3 1_555 1_555
H19_3 C27_3 1_555 1_555
H20_3 C28_3 1_555 1_555
C31_3 C26_3 1_555 1_555
C32_3 C27_3 1_555 1_555
C33_3 C28_3 1_555 1_555
C36_3 C31_3 1_555 1_555
C37_3 C32_3 1_555 1_555
C38_3 C33_3 1_555 1_555
H23_3 C36_3 1_555 1_555
H24_3 C37_3 1_555 1_555
H25_3 C38_3 1_555 1_555
C41_3 C16_3 1_555 1_555
C42_3 C17_3 1_555 1_555
C43_3 C18_3 1_555 1_555
H28_3 C41_3 1_555 1_555
H29_3 C42_3 1_555 1_555
H30_3 C43_3 1_555 1_555
C46_3 O9 1_555 1_555
C47_3 O7_3 1_555 1_555
C48_3 O8_3 1_555 1_555
O15_3 C46_3 1_555 1_555
N7_3 C13_3 1_555 1_555
N11_3 C13_3 1_555 1_555
N12_3 C12_3 1_555 1_555
C31_3 C46_3 1_555 1_555
C32_3 C47_3 1_555 1_555
C33_3 C48_3 1_555 1_555
C36_3 C41_3 1_555 1_555
C37_3 C42_3 1_555 1_555
C38_3 C43_3 1_555 1_555
Cu7_6 Cu8_6 1_555 1_555
Cu9_6 Cu10_6 1_555 1_555
Cu1_3 O1_2 1_555 1_555
O1_2 C8_2 1_555 1_555
O2_3 Cu1_3 1_555 1_555
O3_2 C8_2 1_555 1_555
N1_2 C1_2 1_555 1_555
N2_2 H1_2 1_555 1_555
C1_2 N2_2 1_555 1_555
C2_2 N2_2 1_555 1_555
C3_2 C2_2 1_555 1_555
H2_2 C3_2 1_555 1_555
C4_2 C3_2 1_555 1_555
H3_2 C4_2 1_555 1_555
C5_2 C4_2 1_555 1_555
C6_2 C5_2 1_555 1_555
H4_2 C6_2 1_555 1_555
C7_2 C2_2 1_555 1_555
H5_2 C7_2 1_555 1_555
C8_2 C5_2 1_555 1_555
Cu2_3 Cu5_3 1_555 1_555
Cu3_3 Cu6_3 1_555 1_555
Cu4_3 Cu1_3 1_555 1_555
Cu5_3 O13_2 1_555 1_555
Cu6_3 O14_2 1_555 1_555
Cu9_3 O16_4 1_555 1_555
Cu9_7 Cu10_7 1_555 1_555
Cu10_7 O17_4 1_555 1_555
O4_2 Cu2_3 1_555 1_555
O5_2 Cu3_3 1_555 1_555
O6_2 Cu1_3 1_555 1_555
O7_4 Cu10_3 1_555 1_555
O8_4 Cu9_7 1_555 1_555
O10_2 Cu3_3 1_555 1_555
O11_3 Cu2_3 1_555 1_555
O12_3 Cu3_3 1_555 1_555
O13_2 C44_2 1_555 1_555
O14_2 C45_2 1_555 1_555
O15_4 Cu4_3 1_555 1_555
O16_4 C47_4 1_555 1_555
O17_4 C48_4 1_555 1_555
O18_2 Cu1_3 1_555 1_555
O19_2 Cu1_3 1_555 1_555
O21_2 Cu2_3 1_555 1_555
O22_2 Cu3_3 1_555 1_555
O23_2 Cu3_3 1_555 1_555
N3_2 C9_2 1_555 1_555
N4_2 C1_2 1_555 1_555
N5_4 C11_4 1_555 1_555
N6_4 C12_4 1_555 1_555
N7_4 C11_4 1_555 1_555
N8_2 H6_2 1_555 1_555
N9_2 H7_2 1_555 1_555
N10_4 H8_4 1_555 1_555
N11_4 H9_4 1_555 1_555
N12_4 H10_4 1_555 1_555
C9_2 N1_2 1_555 1_555
C10_2 N3_2 1_555 1_555
C11_4 N10_4 1_555 1_555
C12_4 N5_4 1_555 1_555
C13_4 N6_4 1_555 1_555
C14_2 N8_2 1_555 1_555
C15_2 N9_2 1_555 1_555
C16_4 N10_4 1_555 1_555
C17_4 N11_4 1_555 1_555
C18_4 N12_4 1_555 1_555
C19_2 C14_2 1_555 1_555
C20_2 C15_2 1_555 1_555
C21_4 C16_4 1_555 1_555
C22_4 C17_4 1_555 1_555
C23_4 C18_4 1_555 1_555
H11_2 C19_2 1_555 1_555
H12_2 C20_2 1_555 1_555
H13_4 C21_4 1_555 1_555
H14_4 C22_4 1_555 1_555
H15_4 C23_4 1_555 1_555
C24_2 C19_2 1_555 1_555
C25_2 C20_2 1_555 1_555
C26_4 C21_4 1_555 1_555
C27_4 C22_4 1_555 1_555
C28_4 C23_4 1_555 1_555
H16_2 C24_2 1_555 1_555
H17_2 C25_2 1_555 1_555
H18_4 C26_4 1_555 1_555
H19_4 C27_4 1_555 1_555
H20_4 C28_4 1_555 1_555
C29_2 C24_2 1_555 1_555
C30_2 C25_2 1_555 1_555
C31_4 C26_4 1_555 1_555
C32_4 C27_4 1_555 1_555
C33_4 C28_4 1_555 1_555
C34_2 C29_2 1_555 1_555
C35_2 C30_2 1_555 1_555
C36_4 C31_4 1_555 1_555
C37_4 C32_4 1_555 1_555
C38_4 C33_4 1_555 1_555
H21_2 C34_2 1_555 1_555
H22_2 C35_2 1_555 1_555
H23_4 C36_4 1_555 1_555
H24_4 C37_4 1_555 1_555
H25_4 C38_4 1_555 1_555
C39_2 C14_2 1_555 1_555
C40_2 C15_2 1_555 1_555
C41_4 C16_4 1_555 1_555
C42_4 C17_4 1_555 1_555
C43_4 C18_4 1_555 1_555
H26_2 C39_2 1_555 1_555
H27_2 C40_2 1_555 1_555
H28_4 C41_4 1_555 1_555
H29_4 C42_4 1_555 1_555
H30_4 C43_4 1_555 1_555
C44_2 O4_2 1_555 1_555
C45_2 O5_2 1_555 1_555
C46_4 O6_2 1_555 1_555
C47_4 O7_4 1_555 1_555
C48_4 O8_4 1_555 1_555
O3_2 Cu4_3 1_555 1_555
C6_2 C7_2 1_555 1_555
O15_4 C46_4 1_555 1_555
N4_2 C10_2 1_555 1_555
N7_4 C13_4 1_555 1_555
N8_2 C10_2 1_555 1_555
N9_2 C9_2 1_555 1_555
N11_4 C13_4 1_555 1_555
N12_4 C12_4 1_555 1_555
C29_2 C44_2 1_555 1_555
C30_2 C45_2 1_555 1_555
C31_4 C46_4 1_555 1_555
C32_4 C47_4 1_555 1_555
C33_4 C48_4 1_555 1_555
C34_2 C39_2 1_555 1_555
C35_2 C40_2 1_555 1_555
C36_4 C41_4 1_555 1_555
C37_4 C42_4 1_555 1_555
C38_4 C43_4 1_555 1_555
Cu2_4 Cu5_4 1_555 1_555
O9_2 Cu2_4 1_555 1_555
O11_4 Cu2_4 1_555 1_555
O20_2 Cu2_4 1_555 1_555
Cu7_7 Cu8_7 1_555 1_555
Cu8_7 O16_5 1_555 1_555
Cu7 O17_5 1_555 1_555
O7_5 Cu7_7 1_555 1_555
O8_5 Cu8 1_555 1_555
O15_5 Cu6_3 1_555 1_555
O16_5 C47_5 1_555 1_555
O17_5 C48_5 1_555 1_555
N5_5 C11_5 1_555 1_555
N6_5 C12_5 1_555 1_555
N7_5 C11_5 1_555 1_555
N10_5 H8_5 1_555 1_555
N11_5 H9_5 1_555 1_555
N12_5 H10_5 1_555 1_555
C11_5 N10_5 1_555 1_555
C12_5 N5_5 1_555 1_555
C13_5 N6_5 1_555 1_555
C16_5 N10_5 1_555 1_555
C17_5 N11_5 1_555 1_555
C18_5 N12_5 1_555 1_555
C21_5 C16_5 1_555 1_555
C22_5 C17_5 1_555 1_555
C23_5 C18_5 1_555 1_555
H13_5 C21_5 1_555 1_555
H14_5 C22_5 1_555 1_555
H15_5 C23_5 1_555 1_555
C26_5 C21_5 1_555 1_555
C27_5 C22_5 1_555 1_555
C28_5 C23_5 1_555 1_555
H18_5 C26_5 1_555 1_555
H19_5 C27_5 1_555 1_555
H20_5 C28_5 1_555 1_555
C31_5 C26_5 1_555 1_555
C32_5 C27_5 1_555 1_555
C33_5 C28_5 1_555 1_555
C36_5 C31_5 1_555 1_555
C37_5 C32_5 1_555 1_555
C38_5 C33_5 1_555 1_555
H23_5 C36_5 1_555 1_555
H24_5 C37_5 1_555 1_555
H25_5 C38_5 1_555 1_555
C41_5 C16_5 1_555 1_555
C42_5 C17_5 1_555 1_555
C43_5 C18_5 1_555 1_555
H28_5 C41_5 1_555 1_555
H29_5 C42_5 1_555 1_555
H30_5 C43_5 1_555 1_555
C46_5 O10_2 1_555 1_555
C47_5 O7_5 1_555 1_555
C48_5 O8_5 1_555 1_555
O15_5 C46_5 1_555 1_555
N7_5 C13_5 1_555 1_555
N11_5 C13_5 1_555 1_555
N12_5 C12_5 1_555 1_555
C31_5 C46_5 1_555 1_555
C32_5 C47_5 1_555 1_555
C33_5 C48_5 1_555 1_555
C36_5 C41_5 1_555 1_555
C37_5 C42_5 1_555 1_555
C38_5 C43_5 1_555 1_555
Cu7_8 Cu8_8 1_555 1_555
Cu8_8 O16_6 1_555 1_555
Cu9_8 Cu10_8 1_555 1_555
Cu10_8 O17_6 1_555 1_555
O7_6 Cu7_8 1_555 1_555
O8_6 Cu9_8 1_555 1_555
O15_6 Cu5_4 1_555 1_555
O16_6 C47_6 1_555 1_555
O17_6 C48_6 1_555 1_555
N5_6 C11_6 1_555 1_555
N6_6 C12_6 1_555 1_555
N7_6 C11_6 1_555 1_555
N10_6 H8_6 1_555 1_555
N11_6 H9_6 1_555 1_555
N12_6 H10_6 1_555 1_555
C11_6 N10_6 1_555 1_555
C12_6 N5_6 1_555 1_555
C13_6 N6_6 1_555 1_555
C16_6 N10_6 1_555 1_555
C17_6 N11_6 1_555 1_555
C18_6 N12_6 1_555 1_555
C21_6 C16_6 1_555 1_555
C22_6 C17_6 1_555 1_555
C23_6 C18_6 1_555 1_555
H13_6 C21_6 1_555 1_555
H14_6 C22_6 1_555 1_555
H15_6 C23_6 1_555 1_555
C26_6 C21_6 1_555 1_555
C27_6 C22_6 1_555 1_555
C28_6 C23_6 1_555 1_555
H18_6 C26_6 1_555 1_555
H19_6 C27_6 1_555 1_555
H20_6 C28_6 1_555 1_555
C31_6 C26_6 1_555 1_555
C32_6 C27_6 1_555 1_555
C33_6 C28_6 1_555 1_555
C36_6 C31_6 1_555 1_555
C37_6 C32_6 1_555 1_555
C38_6 C33_6 1_555 1_555
H23_6 C36_6 1_555 1_555
H24_6 C37_6 1_555 1_555
H25_6 C38_6 1_555 1_555
C41_6 C16_6 1_555 1_555
C42_6 C17_6 1_555 1_555
C43_6 C18_6 1_555 1_555
H28_6 C41_6 1_555 1_555
H29_6 C42_6 1_555 1_555
H30_6 C43_6 1_555 1_555
C46_6 O9_2 1_555 1_555
C47_6 O7_6 1_555 1_555
C48_6 O8_6 1_555 1_555
O15_6 C46_6 1_555 1_555
N7_6 C13_6 1_555 1_555
N11_6 C13_6 1_555 1_555
N12_6 C12_6 1_555 1_555
C31_6 C46_6 1_555 1_555
C32_6 C47_6 1_555 1_555
C33_6 C48_6 1_555 1_555
C36_6 C41_6 1_555 1_555
C37_6 C42_6 1_555 1_555
C38_6 C43_6 1_555 1_555
Cu1_4 O1_3 1_555 1_555
O1_3 C8_3 1_555 1_555
O2_4 Cu1_4 1_555 1_555
O3_3 C8_3 1_555 1_555
N1_3 C1_3 1_555 1_555
N2_3 H1_3 1_555 1_555
C1_3 N2_3 1_555 1_555
C2_3 N2_3 1_555 1_555
C3_3 C2_3 1_555 1_555
H2_3 C3_3 1_555 1_555
C4_3 C3_3 1_555 1_555
H3_3 C4_3 1_555 1_555
C5_3 C4_3 1_555 1_555
C6_3 C5_3 1_555 1_555
H4_3 C6_3 1_555 1_555
C7_3 C2_3 1_555 1_555
H5_3 C7_3 1_555 1_555
C8_3 C5_3 1_555 1_555
Cu2_5 Cu5_5 1_555 1_555
Cu3_4 Cu6_4 1_555 1_555
Cu4_4 Cu1_4 1_555 1_555
Cu5_5 O13_3 1_555 1_555
Cu6_4 O14_3 1_555 1_555
O4_3 Cu2_5 1_555 1_555
O5_3 Cu3_4 1_555 1_555
O9_3 Cu2_5 1_555 1_555
O10_3 Cu3_4 1_555 1_555
O11_5 Cu2_5 1_555 1_555
O12_4 Cu3_4 1_555 1_555
O13_3 C44_3 1_555 1_555
O14_3 C45_3 1_555 1_555
O19_3 Cu1_4 1_555 1_555
O20_3 Cu2_5 1_555 1_555
O21_3 Cu2_5 1_555 1_555
O22_3 Cu3_4 1_555 1_555
O23_3 Cu3_4 1_555 1_555
N3_3 C9_3 1_555 1_555
N4_3 C1_3 1_555 1_555
N8_3 H6_3 1_555 1_555
N9_3 H7_3 1_555 1_555
C9_3 N1_3 1_555 1_555
C10_3 N3_3 1_555 1_555
C14_3 N8_3 1_555 1_555
C15_3 N9_3 1_555 1_555
C19_3 C14_3 1_555 1_555
C20_3 C15_3 1_555 1_555
H11_3 C19_3 1_555 1_555
H12_3 C20_3 1_555 1_555
C24_3 C19_3 1_555 1_555
C25_3 C20_3 1_555 1_555
H16_3 C24_3 1_555 1_555
H17_3 C25_3 1_555 1_555
C29_3 C24_3 1_555 1_555
C30_3 C25_3 1_555 1_555
C34_3 C29_3 1_555 1_555
C35_3 C30_3 1_555 1_555
H21_3 C34_3 1_555 1_555
H22_3 C35_3 1_555 1_555
C39_3 C14_3 1_555 1_555
C40_3 C15_3 1_555 1_555
H26_3 C39_3 1_555 1_555
H27_3 C40_3 1_555 1_555
C44_3 O4_3 1_555 1_555
C45_3 O5_3 1_555 1_555
O3_3 Cu4_4 1_555 1_555
C6_3 C7_3 1_555 1_555
N4_3 C10_3 1_555 1_555
N8_3 C10_3 1_555 1_555
N9_3 C9_3 1_555 1_555
C29_3 C44_3 1_555 1_555
C30_3 C45_3 1_555 1_555
C34_3 C39_3 1_555 1_555
C35_3 C40_3 1_555 1_555
O2_5 Cu1_5 1_555 1_555
Cu4_5 Cu1_5 1_555 1_555
Cu7_9 Cu8_9 1_555 1_555
Cu8_9 O16_7 1_555 1_555
Cu7_8 O17_7 1_555 1_555
O6_3 Cu1_5 1_555 1_555
O7_7 Cu7_9 1_555 1_555
O8_7 Cu8_8 1_555 1_555
O15_7 Cu4_5 1_555 1_555
O16_7 C47_7 1_555 1_555
O17_7 C48_7 1_555 1_555
O18_3 Cu1_5 1_555 1_555
N5_7 C11_7 1_555 1_555
N6_7 C12_7 1_555 1_555
N7_7 C11_7 1_555 1_555
N10_7 H8_7 1_555 1_555
N11_7 H9_7 1_555 1_555
N12_7 H10_7 1_555 1_555
C11_7 N10_7 1_555 1_555
C12_7 N5_7 1_555 1_555
C13_7 N6_7 1_555 1_555
C16_7 N10_7 1_555 1_555
C17_7 N11_7 1_555 1_555
C18_7 N12_7 1_555 1_555
C21_7 C16_7 1_555 1_555
C22_7 C17_7 1_555 1_555
C23_7 C18_7 1_555 1_555
H13_7 C21_7 1_555 1_555
H14_7 C22_7 1_555 1_555
H15_7 C23_7 1_555 1_555
C26_7 C21_7 1_555 1_555
C27_7 C22_7 1_555 1_555
C28_7 C23_7 1_555 1_555
H18_7 C26_7 1_555 1_555
H19_7 C27_7 1_555 1_555
H20_7 C28_7 1_555 1_555
C31_7 C26_7 1_555 1_555
C32_7 C27_7 1_555 1_555
C33_7 C28_7 1_555 1_555
C36_7 C31_7 1_555 1_555
C37_7 C32_7 1_555 1_555
C38_7 C33_7 1_555 1_555
H23_7 C36_7 1_555 1_555
H24_7 C37_7 1_555 1_555
H25_7 C38_7 1_555 1_555
C41_7 C16_7 1_555 1_555
C42_7 C17_7 1_555 1_555
C43_7 C18_7 1_555 1_555
H28_7 C41_7 1_555 1_555
H29_7 C42_7 1_555 1_555
H30_7 C43_7 1_555 1_555
C46_7 O6_3 1_555 1_555
C47_7 O7_7 1_555 1_555
C48_7 O8_7 1_555 1_555
O15_7 C46_7 1_555 1_555
N7_7 C13_7 1_555 1_555
N11_7 C13_7 1_555 1_555
N12_7 C12_7 1_555 1_555
C31_7 C46_7 1_555 1_555
C32_7 C47_7 1_555 1_555
C33_7 C48_7 1_555 1_555
C36_7 C41_7 1_555 1_555
C37_7 C42_7 1_555 1_555
C38_7 C43_7 1_555 1_555
Cu9_5 O16_8 1_555 1_555
Cu9_9 Cu10_9 1_555 1_555
Cu10_9 O17_8 1_555 1_555
O7_8 Cu10_5 1_555 1_555
O8_8 Cu9_9 1_555 1_555
O15_8 Cu6_4 1_555 1_555
O16_8 C47_8 1_555 1_555
O17_8 C48_8 1_555 1_555
N5_8 C11_8 1_555 1_555
N6_8 C12_8 1_555 1_555
N7_8 C11_8 1_555 1_555
N10_8 H8_8 1_555 1_555
N11_8 H9_8 1_555 1_555
N12_8 H10_8 1_555 1_555
C11_8 N10_8 1_555 1_555
C12_8 N5_8 1_555 1_555
C13_8 N6_8 1_555 1_555
C16_8 N10_8 1_555 1_555
C17_8 N11_8 1_555 1_555
C18_8 N12_8 1_555 1_555
C21_8 C16_8 1_555 1_555
C22_8 C17_8 1_555 1_555
C23_8 C18_8 1_555 1_555
H13_8 C21_8 1_555 1_555
H14_8 C22_8 1_555 1_555
H15_8 C23_8 1_555 1_555
C26_8 C21_8 1_555 1_555
C27_8 C22_8 1_555 1_555
C28_8 C23_8 1_555 1_555
H18_8 C26_8 1_555 1_555
H19_8 C27_8 1_555 1_555
H20_8 C28_8 1_555 1_555
C31_8 C26_8 1_555 1_555
C32_8 C27_8 1_555 1_555
C33_8 C28_8 1_555 1_555
C36_8 C31_8 1_555 1_555
C37_8 C32_8 1_555 1_555
C38_8 C33_8 1_555 1_555
H23_8 C36_8 1_555 1_555
H24_8 C37_8 1_555 1_555
H25_8 C38_8 1_555 1_555
C41_8 C16_8 1_555 1_555
C42_8 C17_8 1_555 1_555
C43_8 C18_8 1_555 1_555
H28_8 C41_8 1_555 1_555
H29_8 C42_8 1_555 1_555
H30_8 C43_8 1_555 1_555
C46_8 O10_3 1_555 1_555
C47_8 O7_8 1_555 1_555
C48_8 O8_8 1_555 1_555
O15_8 C46_8 1_555 1_555
N7_8 C13_8 1_555 1_555
N11_8 C13_8 1_555 1_555
N12_8 C12_8 1_555 1_555
C31_8 C46_8 1_555 1_555
C32_8 C47_8 1_555 1_555
C33_8 C48_8 1_555 1_555
C36_8 C41_8 1_555 1_555
C37_8 C42_8 1_555 1_555
C38_8 C43_8 1_555 1_555
Cu9_7 O16_9 1_555 1_555
Cu7_3 O17_9 1_555 1_555
O7_9 Cu10_7 1_555 1_555
O8_9 Cu8_3 1_555 1_555
O15_9 Cu5_5 1_555 1_555
O16_9 C47_9 1_555 1_555
O17_9 C48_9 1_555 1_555
N5_9 C11_9 1_555 1_555
N6_9 C12_9 1_555 1_555
N7_9 C11_9 1_555 1_555
N10_9 H8_9 1_555 1_555
N11_9 H9_9 1_555 1_555
N12_9 H10_9 1_555 1_555
C11_9 N10_9 1_555 1_555
C12_9 N5_9 1_555 1_555
C13_9 N6_9 1_555 1_555
C16_9 N10_9 1_555 1_555
C17_9 N11_9 1_555 1_555
C18_9 N12_9 1_555 1_555
C21_9 C16_9 1_555 1_555
C22_9 C17_9 1_555 1_555
C23_9 C18_9 1_555 1_555
H13_9 C21_9 1_555 1_555
H14_9 C22_9 1_555 1_555
H15_9 C23_9 1_555 1_555
C26_9 C21_9 1_555 1_555
C27_9 C22_9 1_555 1_555
C28_9 C23_9 1_555 1_555
H18_9 C26_9 1_555 1_555
H19_9 C27_9 1_555 1_555
H20_9 C28_9 1_555 1_555
C31_9 C26_9 1_555 1_555
C32_9 C27_9 1_555 1_555
C33_9 C28_9 1_555 1_555
C36_9 C31_9 1_555 1_555
C37_9 C32_9 1_555 1_555
C38_9 C33_9 1_555 1_555
H23_9 C36_9 1_555 1_555
H24_9 C37_9 1_555 1_555
H25_9 C38_9 1_555 1_555
C41_9 C16_9 1_555 1_555
C42_9 C17_9 1_555 1_555
C43_9 C18_9 1_555 1_555
H28_9 C41_9 1_555 1_555
H29_9 C42_9 1_555 1_555
H30_9 C43_9 1_555 1_555
C46_9 O9_3 1_555 1_555
C47_9 O7_9 1_555 1_555
C48_9 O8_9 1_555 1_555
O15_9 C46_9 1_555 1_555
N7_9 C13_9 1_555 1_555
N11_9 C13_9 1_555 1_555
N12_9 C12_9 1_555 1_555
C31_9 C46_9 1_555 1_555
C32_9 C47_9 1_555 1_555
C33_9 C48_9 1_555 1_555
C36_9 C41_9 1_555 1_555
C37_9 C42_9 1_555 1_555
C38_9 C43_9 1_555 1_555
Cu1_6 O1_4 1_555 1_555
O1_4 C8_4 1_555 1_555
O2_6 Cu1_6 1_555 1_555
O3_4 C8_4 1_555 1_555
N1_4 C1_4 1_555 1_555
N2_4 H1_4 1_555 1_555
C1_4 N2_4 1_555 1_555
C2_4 N2_4 1_555 1_555
C3_4 C2_4 1_555 1_555
H2_4 C3_4 1_555 1_555
C4_4 C3_4 1_555 1_555
H3_4 C4_4 1_555 1_555
C5_4 C4_4 1_555 1_555
C6_4 C5_4 1_555 1_555
H4_4 C6_4 1_555 1_555
C7_4 C2_4 1_555 1_555
H5_4 C7_4 1_555 1_555
C8_4 C5_4 1_555 1_555
Cu2_6 Cu5_6 1_555 1_555
Cu3_5 Cu6_5 1_555 1_555
Cu4_6 Cu1_6 1_555 1_555
Cu5_6 O13_4 1_555 1_555
Cu6_5 O14_4 1_555 1_555
Cu9_9 O16_10 1_555 1_555
Cu7_5 O17_10 1_555 1_555
O4_4 Cu2_6 1_555 1_555
O5_4 Cu3_5 1_555 1_555
O6_4 Cu1_6 1_555 1_555
O7_10 Cu10_9 1_555 1_555
O8_10 Cu8_5 1_555 1_555
O9_4 Cu2_6 1_555 1_555
O11_6 Cu2_6 1_555 1_555
O12_5 Cu3_5 1_555 1_555
O13_4 C44_4 1_555 1_555
O14_4 C45_4 1_555 1_555
O15_10 Cu4_6 1_555 1_555
O16_10 C47_10 1_555 1_555
O17_10 C48_10 1_555 1_555
O18_4 Cu1_6 1_555 1_555
O19_4 Cu1_6 1_555 1_555
O20_4 Cu2_6 1_555 1_555
O21_4 Cu2_6 1_555 1_555
O23_4 Cu3_5 1_555 1_555
N3_4 C9_4 1_555 1_555
N4_4 C1_4 1_555 1_555
N5_10 C11_10 1_555 1_555
N6_10 C12_10 1_555 1_555
N7_10 C11_10 1_555 1_555
N8_4 H6_4 1_555 1_555
N9_4 H7_4 1_555 1_555
N10_10 H8_10 1_555 1_555
N11_10 H9_10 1_555 1_555
N12_10 H10_10 1_555 1_555
C9_4 N1_4 1_555 1_555
C10_4 N3_4 1_555 1_555
C11_10 N10_10 1_555 1_555
C12_10 N5_10 1_555 1_555
C13_10 N6_10 1_555 1_555
C14_4 N8_4 1_555 1_555
C15_4 N9_4 1_555 1_555
C16_10 N10_10 1_555 1_555
C17_10 N11_10 1_555 1_555
C18_10 N12_10 1_555 1_555
C19_4 C14_4 1_555 1_555
C20_4 C15_4 1_555 1_555
C21_10 C16_10 1_555 1_555
C22_10 C17_10 1_555 1_555
C23_10 C18_10 1_555 1_555
H11_4 C19_4 1_555 1_555
H12_4 C20_4 1_555 1_555
H13_10 C21_10 1_555 1_555
H14_10 C22_10 1_555 1_555
H15_10 C23_10 1_555 1_555
C24_4 C19_4 1_555 1_555
C25_4 C20_4 1_555 1_555
C26_10 C21_10 1_555 1_555
C27_10 C22_10 1_555 1_555
C28_10 C23_10 1_555 1_555
H16_4 C24_4 1_555 1_555
H17_4 C25_4 1_555 1_555
H18_10 C26_10 1_555 1_555
H19_10 C27_10 1_555 1_555
H20_10 C28_10 1_555 1_555
C29_4 C24_4 1_555 1_555
C30_4 C25_4 1_555 1_555
C31_10 C26_10 1_555 1_555
C32_10 C27_10 1_555 1_555
C33_10 C28_10 1_555 1_555
C34_4 C29_4 1_555 1_555
C35_4 C30_4 1_555 1_555
C36_10 C31_10 1_555 1_555
C37_10 C32_10 1_555 1_555
C38_10 C33_10 1_555 1_555
H21_4 C34_4 1_555 1_555
H22_4 C35_4 1_555 1_555
H23_10 C36_10 1_555 1_555
H24_10 C37_10 1_555 1_555
H25_10 C38_10 1_555 1_555
C39_4 C14_4 1_555 1_555
C40_4 C15_4 1_555 1_555
C41_10 C16_10 1_555 1_555
C42_10 C17_10 1_555 1_555
C43_10 C18_10 1_555 1_555
H26_4 C39_4 1_555 1_555
H27_4 C40_4 1_555 1_555
H28_10 C41_10 1_555 1_555
H29_10 C42_10 1_555 1_555
H30_10 C43_10 1_555 1_555
C44_4 O4_4 1_555 1_555
C45_4 O5_4 1_555 1_555
C46_10 O6_4 1_555 1_555
C47_10 O7_10 1_555 1_555
C48_10 O8_10 1_555 1_555
O3_4 Cu4_6 1_555 1_555
C6_4 C7_4 1_555 1_555
O15_10 C46_10 1_555 1_555
N4_4 C10_4 1_555 1_555
N7_10 C13_10 1_555 1_555
N8_4 C10_4 1_555 1_555
N9_4 C9_4 1_555 1_555
N11_10 C13_10 1_555 1_555
N12_10 C12_10 1_555 1_555
C29_4 C44_4 1_555 1_555
C30_4 C45_4 1_555 1_555
C31_10 C46_10 1_555 1_555
C32_10 C47_10 1_555 1_555
C33_10 C48_10 1_555 1_555
C34_4 C39_4 1_555 1_555
C35_4 C40_4 1_555 1_555
C36_10 C41_10 1_555 1_555
C37_10 C42_10 1_555 1_555
C38_10 C43_10 1_555 1_555
Cu3_6 Cu6_6 1_555 1_555
O10_4 Cu3_6 1_555 1_555
O12_6 Cu3_6 1_555 1_555
O22_4 Cu3_6 1_555 1_555
Cu9_8 O16_11 1_555 1_555
Cu7_9 O17_11 1_555 1_555
O7_11 Cu10_8 1_555 1_555
O8_11 Cu8_9 1_555 1_555
O15_11 Cu6_6 1_555 1_555
O16_11 C47_11 1_555 1_555
O17_11 C48_11 1_555 1_555
N5_11 C11_11 1_555 1_555
N6_11 C12_11 1_555 1_555
N7_11 C11_11 1_555 1_555
N10_11 H8_11 1_555 1_555
N11_11 H9_11 1_555 1_555
N12_11 H10_11 1_555 1_555
C11_11 N10_11 1_555 1_555
C12_11 N5_11 1_555 1_555
C13_11 N6_11 1_555 1_555
C16_11 N10_11 1_555 1_555
C17_11 N11_11 1_555 1_555
C18_11 N12_11 1_555 1_555
C21_11 C16_11 1_555 1_555
C22_11 C17_11 1_555 1_555
C23_11 C18_11 1_555 1_555
H13_11 C21_11 1_555 1_555
H14_11 C22_11 1_555 1_555
H15_11 C23_11 1_555 1_555
C26_11 C21_11 1_555 1_555
C27_11 C22_11 1_555 1_555
C28_11 C23_11 1_555 1_555
H18_11 C26_11 1_555 1_555
H19_11 C27_11 1_555 1_555
H20_11 C28_11 1_555 1_555
C31_11 C26_11 1_555 1_555
C32_11 C27_11 1_555 1_555
C33_11 C28_11 1_555 1_555
C36_11 C31_11 1_555 1_555
C37_11 C32_11 1_555 1_555
C38_11 C33_11 1_555 1_555
H23_11 C36_11 1_555 1_555
H24_11 C37_11 1_555 1_555
H25_11 C38_11 1_555 1_555
C41_11 C16_11 1_555 1_555
C42_11 C17_11 1_555 1_555
C43_11 C18_11 1_555 1_555
H28_11 C41_11 1_555 1_555
H29_11 C42_11 1_555 1_555
H30_11 C43_11 1_555 1_555
C46_11 O10_4 1_555 1_555
C47_11 O7_11 1_555 1_555
C48_11 O8_11 1_555 1_555
O15_11 C46_11 1_555 1_555
N7_11 C13_11 1_555 1_555
N11_11 C13_11 1_555 1_555
N12_11 C12_11 1_555 1_555
C31_11 C46_11 1_555 1_555
C32_11 C47_11 1_555 1_555
C33_11 C48_11 1_555 1_555
C36_11 C41_11 1_555 1_555
C37_11 C42_11 1_555 1_555
C38_11 C43_11 1_555 1_555
Cu9 O16_12 1_555 1_555
Cu7_7 O17_12 1_555 1_555
O7_12 Cu10 1_555 1_555
O8_12 Cu8_7 1_555 1_555
O15_12 Cu5_6 1_555 1_555
O16_12 C47_12 1_555 1_555
O17_12 C48_12 1_555 1_555
N5_12 C11_12 1_555 1_555
N6_12 C12_12 1_555 1_555
N7_12 C11_12 1_555 1_555
N10_12 H8_12 1_555 1_555
N11_12 H9_12 1_555 1_555
N12_12 H10_12 1_555 1_555
C11_12 N10_12 1_555 1_555
C12_12 N5_12 1_555 1_555
C13_12 N6_12 1_555 1_555
C16_12 N10_12 1_555 1_555
C17_12 N11_12 1_555 1_555
C18_12 N12_12 1_555 1_555
C21_12 C16_12 1_555 1_555
C22_12 C17_12 1_555 1_555
C23_12 C18_12 1_555 1_555
H13_12 C21_12 1_555 1_555
H14_12 C22_12 1_555 1_555
H15_12 C23_12 1_555 1_555
C26_12 C21_12 1_555 1_555
C27_12 C22_12 1_555 1_555
C28_12 C23_12 1_555 1_555
H18_12 C26_12 1_555 1_555
H19_12 C27_12 1_555 1_555
H20_12 C28_12 1_555 1_555
C31_12 C26_12 1_555 1_555
C32_12 C27_12 1_555 1_555
C33_12 C28_12 1_555 1_555
C36_12 C31_12 1_555 1_555
C37_12 C32_12 1_555 1_555
C38_12 C33_12 1_555 1_555
H23_12 C36_12 1_555 1_555
H24_12 C37_12 1_555 1_555
H25_12 C38_12 1_555 1_555
C41_12 C16_12 1_555 1_555
C42_12 C17_12 1_555 1_555
C43_12 C18_12 1_555 1_555
H28_12 C41_12 1_555 1_555
H29_12 C42_12 1_555 1_555
H30_12 C43_12 1_555 1_555
C46_12 O9_4 1_555 1_555
C47_12 O7_12 1_555 1_555
C48_12 O8_12 1_555 1_555
O15_12 C46_12 1_555 1_555
N7_12 C13_12 1_555 1_555
N11_12 C13_12 1_555 1_555
N12_12 C12_12 1_555 1_555
C31_12 C46_12 1_555 1_555
C32_12 C47_12 1_555 1_555
C33_12 C48_12 1_555 1_555
C36_12 C41_12 1_555 1_555
C37_12 C42_12 1_555 1_555
C38_12 C43_12 1_555 1_555
O11_7 Cu7 1_555 1_555
O2_7 Cu9_5 1_555 1_555
Cu9_6 O1_5 1_555 1_555
O1_5 C8_5 1_555 1_555
O2_8 Cu9_6 1_555 1_555
O3_5 C8_5 1_555 1_555
N1_5 C1_5 1_555 1_555
N2_5 H1_5 1_555 1_555
C1_5 N2_5 1_555 1_555
C2_5 N2_5 1_555 1_555
C3_5 C2_5 1_555 1_555
H2_5 C3_5 1_555 1_555
C4_5 C3_5 1_555 1_555
H3_5 C4_5 1_555 1_555
C5_5 C4_5 1_555 1_555
C6_5 C5_5 1_555 1_555
H4_5 C6_5 1_555 1_555
C7_5 C2_5 1_555 1_555
H5_5 C7_5 1_555 1_555
C8_5 C5_5 1_555 1_555
Cu8_2 O13_5 1_555 1_555
O4_5 Cu7_2 1_555 1_555
O5_5 Cu6_5 1_555 1_555
O11_8 Cu7_2 1_555 1_555
O12_7 Cu6_5 1_555 1_555
O13_5 C44_5 1_555 1_555
O23_4 C45_5 1_555 1_555
O19_5 Cu9_6 1_555 1_555
O21_5 Cu7_2 1_555 1_555
N3_5 C9_5 1_555 1_555
N4_5 C1_5 1_555 1_555
N8_5 H6_5 1_555 1_555
N9_5 H7_5 1_555 1_555
C9_5 N1_5 1_555 1_555
C10_5 N3_5 1_555 1_555
C14_5 N8_5 1_555 1_555
C15_5 N9_5 1_555 1_555
C19_5 C14_5 1_555 1_555
C20_5 C15_5 1_555 1_555
H11_5 C19_5 1_555 1_555
H12_5 C20_5 1_555 1_555
C24_5 C19_5 1_555 1_555
C25_5 C20_5 1_555 1_555
H16_5 C24_5 1_555 1_555
H17_5 C25_5 1_555 1_555
C29_5 C24_5 1_555 1_555
C30_5 C25_5 1_555 1_555
C34_5 C29_5 1_555 1_555
C35_5 C30_5 1_555 1_555
H21_5 C34_5 1_555 1_555
H22_5 C35_5 1_555 1_555
C39_5 C14_5 1_555 1_555
C40_5 C15_5 1_555 1_555
H26_5 C39_5 1_555 1_555
H27_5 C40_5 1_555 1_555
C44_5 O4_5 1_555 1_555
C45_5 O5_5 1_555 1_555
O3_5 Cu10_6 1_555 1_555
C6_5 C7_5 1_555 1_555
N4_5 C10_5 1_555 1_555
N8_5 C10_5 1_555 1_555
N9_5 C9_5 1_555 1_555
C29_5 C44_5 1_555 1_555
C30_5 C45_5 1_555 1_555
C34_5 C39_5 1_555 1_555
C35_5 C40_5 1_555 1_555
O10_5 Cu6_6 1_555 1_555
O12_8 Cu6_6 1_555 1_555
O11_9 Cu9_3 1_555 1_555
O12_9 Cu7_5 1_555 1_555
Cu4_4 O1_6 1_555 1_555
O1_6 C8_6 1_555 1_555
O2_9 Cu4_4 1_555 1_555
O19_3 C8_6 1_555 1_555
N1_6 C1_6 1_555 1_555
N2_6 H1_6 1_555 1_555
C1_6 N2_6 1_555 1_555
C2_6 N2_6 1_555 1_555
C3_6 C2_6 1_555 1_555
H2_6 C3_6 1_555 1_555
C4_6 C3_6 1_555 1_555
H3_6 C4_6 1_555 1_555
C5_6 C4_6 1_555 1_555
C6_6 C5_6 1_555 1_555
H4_6 C6_6 1_555 1_555
C7_6 C2_6 1_555 1_555
H5_6 C7_6 1_555 1_555
C8_6 C5_6 1_555 1_555
Cu10_4 O13_6 1_555 1_555
Cu8_6 O14_5 1_555 1_555
O4_6 Cu9_4 1_555 1_555
O5_6 Cu7_6 1_555 1_555
O11_10 Cu9_4 1_555 1_555
O12_10 Cu7_6 1_555 1_555
O13_6 C44_6 1_555 1_555
O14_5 C45_6 1_555 1_555
O21_6 Cu9_4 1_555 1_555
O23_5 Cu7_6 1_555 1_555
N3_6 C9_6 1_555 1_555
N4_6 C1_6 1_555 1_555
N8_6 H6_6 1_555 1_555
N9_6 H7_6 1_555 1_555
C9_6 N1_6 1_555 1_555
C10_6 N3_6 1_555 1_555
C14_6 N8_6 1_555 1_555
C15_6 N9_6 1_555 1_555
C19_6 C14_6 1_555 1_555
C20_6 C15_6 1_555 1_555
H11_6 C19_6 1_555 1_555
H12_6 C20_6 1_555 1_555
C24_6 C19_6 1_555 1_555
C25_6 C20_6 1_555 1_555
H16_6 C24_6 1_555 1_555
H17_6 C25_6 1_555 1_555
C29_6 C24_6 1_555 1_555
C30_6 C25_6 1_555 1_555
C34_6 C29_6 1_555 1_555
C35_6 C30_6 1_555 1_555
H21_6 C34_6 1_555 1_555
H22_6 C35_6 1_555 1_555
C39_6 C14_6 1_555 1_555
C40_6 C15_6 1_555 1_555
H26_6 C39_6 1_555 1_555
H27_6 C40_6 1_555 1_555
C44_6 O4_6 1_555 1_555
C45_6 O5_6 1_555 1_555
C6_6 C7_6 1_555 1_555
N4_6 C10_6 1_555 1_555
N8_6 C10_6 1_555 1_555
N9_6 C9_6 1_555 1_555
C29_6 C44_6 1_555 1_555
C30_6 C45_6 1_555 1_555
C34_6 C39_6 1_555 1_555
C35_6 C40_6 1_555 1_555
O2_10 Cu4_5 1_555 1_555
O6_5 Cu4_5 1_555 1_555
O7_13 Cu5_4 1_555 1_555
O20_2 C47_13 1_555 1_555
O22_4 C48_13 1_555 1_555
N5_13 C11_13 1_555 1_555
N6_13 C12_13 1_555 1_555
N7_13 C11_13 1_555 1_555
N10_13 H8_13 1_555 1_555
N11_13 H9_13 1_555 1_555
N12_13 H10_13 1_555 1_555
C11_13 N10_13 1_555 1_555
C12_13 N5_13 1_555 1_555
C13_13 N6_13 1_555 1_555
C16_13 N10_13 1_555 1_555
C17_13 N11_13 1_555 1_555
C18_13 N12_13 1_555 1_555
C21_13 C16_13 1_555 1_555
C22_13 C17_13 1_555 1_555
C23_13 C18_13 1_555 1_555
H13_13 C21_13 1_555 1_555
H14_13 C22_13 1_555 1_555
H15_13 C23_13 1_555 1_555
C26_13 C21_13 1_555 1_555
C27_13 C22_13 1_555 1_555
C28_13 C23_13 1_555 1_555
H18_13 C26_13 1_555 1_555
H19_13 C27_13 1_555 1_555
H20_13 C28_13 1_555 1_555
C31_13 C26_13 1_555 1_555
C32_13 C27_13 1_555 1_555
C33_13 C28_13 1_555 1_555
C36_13 C31_13 1_555 1_555
C37_13 C32_13 1_555 1_555
C38_13 C33_13 1_555 1_555
H23_13 C36_13 1_555 1_555
H24_13 C37_13 1_555 1_555
H25_13 C38_13 1_555 1_555
C41_13 C16_13 1_555 1_555
C42_13 C17_13 1_555 1_555
C43_13 C18_13 1_555 1_555
H28_13 C41_13 1_555 1_555
H29_13 C42_13 1_555 1_555
H30_13 C43_13 1_555 1_555
C46_13 O6_5 1_555 1_555
C47_13 O7_13 1_555 1_555
C48_13 O10_5 1_555 1_555
O18_3 C46_13 1_555 1_555
N7_13 C13_13 1_555 1_555
N11_13 C13_13 1_555 1_555
N12_13 C12_13 1_555 1_555
C31_13 C46_13 1_555 1_555
C32_13 C47_13 1_555 1_555
C33_13 C48_13 1_555 1_555
C36_13 C41_13 1_555 1_555
C37_13 C42_13 1_555 1_555
C38_13 C43_13 1_555 1_555
O2_11 Cu7_3 1_555 1_555
O12_11 Cu9 1_555 1_555
Cu7_4 O1_7 1_555 1_555
O1_7 C8_7 1_555 1_555
O2_12 Cu7_4 1_555 1_555
O3_6 C8_7 1_555 1_555
N1_7 C1_7 1_555 1_555
N2_7 H1_7 1_555 1_555
C1_7 N2_7 1_555 1_555
C2_7 N2_7 1_555 1_555
C3_7 C2_7 1_555 1_555
H2_7 C3_7 1_555 1_555
C4_7 C3_7 1_555 1_555
H3_7 C4_7 1_555 1_555
C5_7 C4_7 1_555 1_555
C6_7 C5_7 1_555 1_555
H4_7 C6_7 1_555 1_555
C7_7 C2_7 1_555 1_555
H5_7 C7_7 1_555 1_555
C8_7 C5_7 1_555 1_555
Cu10_2 O14_6 1_555 1_555
O4_7 Cu5_3 1_555 1_555
O5_7 Cu9_2 1_555 1_555
O11_11 Cu5_3 1_555 1_555
O12_12 Cu9_2 1_555 1_555
O21_2 C44_7 1_555 1_555
O14_6 C45_7 1_555 1_555
O19_6 Cu7_4 1_555 1_555
O23_6 Cu9_2 1_555 1_555
N3_7 C9_7 1_555 1_555
N4_7 C1_7 1_555 1_555
N8_7 H6_7 1_555 1_555
N9_7 H7_7 1_555 1_555
C9_7 N1_7 1_555 1_555
C10_7 N3_7 1_555 1_555
C14_7 N8_7 1_555 1_555
C15_7 N9_7 1_555 1_555
C19_7 C14_7 1_555 1_555
C20_7 C15_7 1_555 1_555
H11_7 C19_7 1_555 1_555
H12_7 C20_7 1_555 1_555
C24_7 C19_7 1_555 1_555
C25_7 C20_7 1_555 1_555
H16_7 C24_7 1_555 1_555
H17_7 C25_7 1_555 1_555
C29_7 C24_7 1_555 1_555
C30_7 C25_7 1_555 1_555
C34_7 C29_7 1_555 1_555
C35_7 C30_7 1_555 1_555
H21_7 C34_7 1_555 1_555
H22_7 C35_7 1_555 1_555
C39_7 C14_7 1_555 1_555
C40_7 C15_7 1_555 1_555
H26_7 C39_7 1_555 1_555
H27_7 C40_7 1_555 1_555
C44_7 O4_7 1_555 1_555
C45_7 O5_7 1_555 1_555
O3_6 Cu8_4 1_555 1_555
C6_7 C7_7 1_555 1_555
N4_7 C10_7 1_555 1_555
N8_7 C10_7 1_555 1_555
N9_7 C9_7 1_555 1_555
C29_7 C44_7 1_555 1_555
C30_7 C45_7 1_555 1_555
C34_7 C39_7 1_555 1_555
C35_7 C40_7 1_555 1_555
O11_12 Cu5_4 1_555 1_555
O11_13 Cu10_3 1_555 1_555
Cu9_8 O1_8 1_555 1_555
O1_8 C8_8 1_555 1_555
O2_13 Cu9_8 1_555 1_555
O3_7 C8_8 1_555 1_555
N1_8 C1_8 1_555 1_555
N2_8 H1_8 1_555 1_555
C1_8 N2_8 1_555 1_555
C2_8 N2_8 1_555 1_555
C3_8 C2_8 1_555 1_555
H2_8 C3_8 1_555 1_555
C4_8 C3_8 1_555 1_555
H3_8 C4_8 1_555 1_555
C5_8 C4_8 1_555 1_555
C6_8 C5_8 1_555 1_555
H4_8 C6_8 1_555 1_555
C7_8 C2_8 1_555 1_555
H5_8 C7_8 1_555 1_555
C8_8 C5_8 1_555 1_555
O4_8 Cu10_4 1_555 1_555
O5_8 Cu6_4 1_555 1_555
O10_6 Cu6_4 1_555 1_555
O11_14 Cu10_4 1_555 1_555
O12_13 Cu6_4 1_555 1_555
O21_6 C44_8 1_555 1_555
O23_3 C45_8 1_555 1_555
O19_7 Cu9_8 1_555 1_555
N3_8 C9_8 1_555 1_555
N4_8 C1_8 1_555 1_555
N8_8 H6_8 1_555 1_555
N9_8 H7_8 1_555 1_555
C9_8 N1_8 1_555 1_555
C10_8 N3_8 1_555 1_555
C14_8 N8_8 1_555 1_555
C15_8 N9_8 1_555 1_555
C19_8 C14_8 1_555 1_555
C20_8 C15_8 1_555 1_555
H11_8 C19_8 1_555 1_555
H12_8 C20_8 1_555 1_555
C24_8 C19_8 1_555 1_555
C25_8 C20_8 1_555 1_555
H16_8 C24_8 1_555 1_555
H17_8 C25_8 1_555 1_555
C29_8 C24_8 1_555 1_555
C30_8 C25_8 1_555 1_555
C34_8 C29_8 1_555 1_555
C35_8 C30_8 1_555 1_555
H21_8 C34_8 1_555 1_555
H22_8 C35_8 1_555 1_555
C39_8 C14_8 1_555 1_555
C40_8 C15_8 1_555 1_555
H26_8 C39_8 1_555 1_555
H27_8 C40_8 1_555 1_555
C44_8 O4_8 1_555 1_555
C45_8 O5_8 1_555 1_555
O3_7 Cu10_8 1_555 1_555
C6_8 C7_8 1_555 1_555
N4_8 C10_8 1_555 1_555
N8_8 C10_8 1_555 1_555
N9_8 C9_8 1_555 1_555
C29_8 C44_8 1_555 1_555
C30_8 C45_8 1_555 1_555
C34_8 C39_8 1_555 1_555
C35_8 C40_8 1_555 1_555
O11_15 Cu8 1_555 1_555
Cu4_6 O1_9 1_555 1_555
O1_9 C8_9 1_555 1_555
O2_14 Cu4_6 1_555 1_555
O19_4 C8_9 1_555 1_555
N1_9 C1_9 1_555 1_555
N2_9 H1_9 1_555 1_555
C1_9 N2_9 1_555 1_555
C2_9 N2_9 1_555 1_555
C3_9 C2_9 1_555 1_555
H2_9 C3_9 1_555 1_555
C4_9 C3_9 1_555 1_555
H3_9 C4_9 1_555 1_555
C5_9 C4_9 1_555 1_555
C6_9 C5_9 1_555 1_555
H4_9 C6_9 1_555 1_555
C7_9 C2_9 1_555 1_555
H5_9 C7_9 1_555 1_555
C8_9 C5_9 1_555 1_555
Cu8_8 O14_7 1_555 1_555
O4_9 Cu8_2 1_555 1_555
O5_9 Cu7_8 1_555 1_555
O6_6 Cu4_6 1_555 1_555
O7_14 Cu5_2 1_555 1_555
O11_16 Cu8_2 1_555 1_555
O12_14 Cu7_8 1_555 1_555
O21_5 C44_9 1_555 1_555
O14_7 C45_9 1_555 1_555
O20 C47_14 1_555 1_555
O22_3 C48_14 1_555 1_555
O23_7 Cu7_8 1_555 1_555
N3_9 C9_9 1_555 1_555
N4_9 C1_9 1_555 1_555
N5_14 C11_14 1_555 1_555
N6_14 C12_14 1_555 1_555
N7_14 C11_14 1_555 1_555
N8_9 H6_9 1_555 1_555
N9_9 H7_9 1_555 1_555
N10_14 H8_14 1_555 1_555
N11_14 H9_14 1_555 1_555
N12_14 H10_14 1_555 1_555
C9_9 N1_9 1_555 1_555
C10_9 N3_9 1_555 1_555
C11_14 N10_14 1_555 1_555
C12_14 N5_14 1_555 1_555
C13_14 N6_14 1_555 1_555
C14_9 N8_9 1_555 1_555
C15_9 N9_9 1_555 1_555
C16_14 N10_14 1_555 1_555
C17_14 N11_14 1_555 1_555
C18_14 N12_14 1_555 1_555
C19_9 C14_9 1_555 1_555
C20_9 C15_9 1_555 1_555
C21_14 C16_14 1_555 1_555
C22_14 C17_14 1_555 1_555
C23_14 C18_14 1_555 1_555
H11_9 C19_9 1_555 1_555
H12_9 C20_9 1_555 1_555
H13_14 C21_14 1_555 1_555
H14_14 C22_14 1_555 1_555
H15_14 C23_14 1_555 1_555
C24_9 C19_9 1_555 1_555
C25_9 C20_9 1_555 1_555
C26_14 C21_14 1_555 1_555
C27_14 C22_14 1_555 1_555
C28_14 C23_14 1_555 1_555
H16_9 C24_9 1_555 1_555
H17_9 C25_9 1_555 1_555
H18_14 C26_14 1_555 1_555
H19_14 C27_14 1_555 1_555
H20_14 C28_14 1_555 1_555
C29_9 C24_9 1_555 1_555
C30_9 C25_9 1_555 1_555
C31_14 C26_14 1_555 1_555
C32_14 C27_14 1_555 1_555
C33_14 C28_14 1_555 1_555
C34_9 C29_9 1_555 1_555
C35_9 C30_9 1_555 1_555
C36_14 C31_14 1_555 1_555
C37_14 C32_14 1_555 1_555
C38_14 C33_14 1_555 1_555
H21_9 C34_9 1_555 1_555
H22_9 C35_9 1_555 1_555
H23_14 C36_14 1_555 1_555
H24_14 C37_14 1_555 1_555
H25_14 C38_14 1_555 1_555
C39_9 C14_9 1_555 1_555
C40_9 C15_9 1_555 1_555
C41_14 C16_14 1_555 1_555
C42_14 C17_14 1_555 1_555
C43_14 C18_14 1_555 1_555
H26_9 C39_9 1_555 1_555
H27_9 C40_9 1_555 1_555
H28_14 C41_14 1_555 1_555
H29_14 C42_14 1_555 1_555
H30_14 C43_14 1_555 1_555
C44_9 O4_9 1_555 1_555
C45_9 O5_9 1_555 1_555
C46_14 O6_6 1_555 1_555
C47_14 O7_14 1_555 1_555
C48_14 O10_6 1_555 1_555
C6_9 C7_9 1_555 1_555
O18_4 C46_14 1_555 1_555
N4_9 C10_9 1_555 1_555
N7_14 C13_14 1_555 1_555
N8_9 C10_9 1_555 1_555
N9_9 C9_9 1_555 1_555
N11_14 C13_14 1_555 1_555
N12_14 C12_14 1_555 1_555
C29_9 C44_9 1_555 1_555
C30_9 C45_9 1_555 1_555
C31_14 C46_14 1_555 1_555
C32_14 C47_14 1_555 1_555
C33_14 C48_14 1_555 1_555
C34_9 C39_9 1_555 1_555
C35_9 C40_9 1_555 1_555
C36_14 C41_14 1_555 1_555
C37_14 C42_14 1_555 1_555
C38_14 C43_14 1_555 1_555
Cu7_7 O1_10 1_555 1_555
O1_10 C8_10 1_555 1_555
O2_15 Cu7_7 1_555 1_555
O3_8 C8_10 1_555 1_555
N1_10 C1_10 1_555 1_555
N2_10 H1_10 1_555 1_555
C1_10 N2_10 1_555 1_555
C2_10 N2_10 1_555 1_555
C3_10 C2_10 1_555 1_555
H2_10 C3_10 1_555 1_555
C4_10 C3_10 1_555 1_555
H3_10 C4_10 1_555 1_555
C5_10 C4_10 1_555 1_555
C6_10 C5_10 1_555 1_555
H4_10 C6_10 1_555 1_555
C7_10 C2_10 1_555 1_555
H5_10 C7_10 1_555 1_555
C8_10 C5_10 1_555 1_555
Cu10_7 O14_8 1_555 1_555
O4_10 Cu5 1_555 1_555
O5_10 Cu9_7 1_555 1_555
O11_17 Cu5 1_555 1_555
O12_15 Cu9_7 1_555 1_555
O21 C44_10 1_555 1_555
O14_8 C45_10 1_555 1_555
O19_8 Cu7_7 1_555 1_555
O23_8 Cu9_7 1_555 1_555
N3_10 C9_10 1_555 1_555
N4_10 C1_10 1_555 1_555
N8_10 H6_10 1_555 1_555
N9_10 H7_10 1_555 1_555
C9_10 N1_10 1_555 1_555
C10_10 N3_10 1_555 1_555
C14_10 N8_10 1_555 1_555
C15_10 N9_10 1_555 1_555
C19_10 C14_10 1_555 1_555
C20_10 C15_10 1_555 1_555
H11_10 C19_10 1_555 1_555
H12_10 C20_10 1_555 1_555
C24_10 C19_10 1_555 1_555
C25_10 C20_10 1_555 1_555
H16_10 C24_10 1_555 1_555
H17_10 C25_10 1_555 1_555
C29_10 C24_10 1_555 1_555
C30_10 C25_10 1_555 1_555
C34_10 C29_10 1_555 1_555
C35_10 C30_10 1_555 1_555
H21_10 C34_10 1_555 1_555
H22_10 C35_10 1_555 1_555
C39_10 C14_10 1_555 1_555
C40_10 C15_10 1_555 1_555
H26_10 C39_10 1_555 1_555
H27_10 C40_10 1_555 1_555
C44_10 O4_10 1_555 1_555
C45_10 O5_10 1_555 1_555
O3_8 Cu8_7 1_555 1_555
C6_10 C7_10 1_555 1_555
N4_10 C10_10 1_555 1_555
N8_10 C10_10 1_555 1_555
N9_10 C9_10 1_555 1_555
C29_10 C44_10 1_555 1_555
C30_10 C45_10 1_555 1_555
C34_10 C39_10 1_555 1_555
C35_10 C40_10 1_555 1_555
O11_18 Cu5_2 1_555 1_555
O2_16 Cu8_3 1_555 1_555
Cu8_4 O1_11 1_555 1_555
O1_11 C8_11 1_555 1_555
O2_17 Cu8_4 1_555 1_555
O19_6 C8_11 1_555 1_555
N1_11 C1_11 1_555 1_555
N2_11 H1_11 1_555 1_555
C1_11 N2_11 1_555 1_555
C2_11 N2_11 1_555 1_555
C3_11 C2_11 1_555 1_555
H2_11 C3_11 1_555 1_555
C4_11 C3_11 1_555 1_555
H3_11 C4_11 1_555 1_555
C5_11 C4_11 1_555 1_555
C6_11 C5_11 1_555 1_555
H4_11 C6_11 1_555 1_555
C7_11 C2_11 1_555 1_555
H5_11 C7_11 1_555 1_555
C8_11 C5_11 1_555 1_555
Cu8_9 O13_7 1_555 1_555
O4_11 Cu7_9 1_555 1_555
O5_11 Cu6_3 1_555 1_555
O10_7 Cu6_3 1_555 1_555
O11_19 Cu7_9 1_555 1_555
O12_16 Cu6_3 1_555 1_555
O13_7 C44_11 1_555 1_555
O23_2 C45_11 1_555 1_555
O21_7 Cu7_9 1_555 1_555
N3_11 C9_11 1_555 1_555
N4_11 C1_11 1_555 1_555
N8_11 H6_11 1_555 1_555
N9_11 H7_11 1_555 1_555
C9_11 N1_11 1_555 1_555
C10_11 N3_11 1_555 1_555
C14_11 N8_11 1_555 1_555
C15_11 N9_11 1_555 1_555
C19_11 C14_11 1_555 1_555
C20_11 C15_11 1_555 1_555
H11_11 C19_11 1_555 1_555
H12_11 C20_11 1_555 1_555
C24_11 C19_11 1_555 1_555
C25_11 C20_11 1_555 1_555
H16_11 C24_11 1_555 1_555
H17_11 C25_11 1_555 1_555
C29_11 C24_11 1_555 1_555
C30_11 C25_11 1_555 1_555
C34_11 C29_11 1_555 1_555
C35_11 C30_11 1_555 1_555
H21_11 C34_11 1_555 1_555
H22_11 C35_11 1_555 1_555
C39_11 C14_11 1_555 1_555
C40_11 C15_11 1_555 1_555
H26_11 C39_11 1_555 1_555
H27_11 C40_11 1_555 1_555
C44_11 O4_11 1_555 1_555
C45_11 O5_11 1_555 1_555
C6_11 C7_11 1_555 1_555
N4_11 C10_11 1_555 1_555
N8_11 C10_11 1_555 1_555
N9_11 C9_11 1_555 1_555
C29_11 C44_11 1_555 1_555
C30_11 C45_11 1_555 1_555
C34_11 C39_11 1_555 1_555
C35_11 C40_11 1_555 1_555
Cu4 O1_12 1_555 1_555
O1_12 C8_12 1_555 1_555
O2_18 Cu4 1_555 1_555
O19 C8_12 1_555 1_555
N1_12 C1_12 1_555 1_555
N2_12 H1_12 1_555 1_555
C1_12 N2_12 1_555 1_555
C2_12 N2_12 1_555 1_555
C3_12 C2_12 1_555 1_555
H2_12 C3_12 1_555 1_555
C4_12 C3_12 1_555 1_555
H3_12 C4_12 1_555 1_555
C5_12 C4_12 1_555 1_555
C6_12 C5_12 1_555 1_555
H4_12 C6_12 1_555 1_555
C7_12 C2_12 1_555 1_555
H5_12 C7_12 1_555 1_555
C8_12 C5_12 1_555 1_555
Cu10_9 O13_8 1_555 1_555
O4_12 Cu9_9 1_555 1_555
O5_12 Cu10_7 1_555 1_555
O11_20 Cu9_9 1_555 1_555
O12_17 Cu10_7 1_555 1_555
O13_8 C44_12 1_555 1_555
O23_8 C45_12 1_555 1_555
O21_8 Cu9_9 1_555 1_555
N3_12 C9_12 1_555 1_555
N4_12 C1_12 1_555 1_555
N8_12 H6_12 1_555 1_555
N9_12 H7_12 1_555 1_555
C9_12 N1_12 1_555 1_555
C10_12 N3_12 1_555 1_555
C14_12 N8_12 1_555 1_555
C15_12 N9_12 1_555 1_555
C19_12 C14_12 1_555 1_555
C20_12 C15_12 1_555 1_555
H11_12 C19_12 1_555 1_555
H12_12 C20_12 1_555 1_555
C24_12 C19_12 1_555 1_555
C25_12 C20_12 1_555 1_555
H16_12 C24_12 1_555 1_555
H17_12 C25_12 1_555 1_555
C29_12 C24_12 1_555 1_555
C30_12 C25_12 1_555 1_555
C34_12 C29_12 1_555 1_555
C35_12 C30_12 1_555 1_555
H21_12 C34_12 1_555 1_555
H22_12 C35_12 1_555 1_555
C39_12 C14_12 1_555 1_555
C40_12 C15_12 1_555 1_555
H26_12 C39_12 1_555 1_555
H27_12 C40_12 1_555 1_555
C44_12 O4_12 1_555 1_555
C45_12 O5_12 1_555 1_555
C6_12 C7_12 1_555 1_555
N4_12 C10_12 1_555 1_555
N8_12 C10_12 1_555 1_555
N9_12 C9_12 1_555 1_555
C29_12 C44_12 1_555 1_555
C30_12 C45_12 1_555 1_555
C34_12 C39_12 1_555 1_555
C35_12 C40_12 1_555 1_555
O2_19 Cu4_2 1_555 1_555
O6_7 Cu4_2 1_555 1_555
O7_15 Cu5_6 1_555 1_555
O20_4 C47_15 1_555 1_555
O22_2 C48_15 1_555 1_555
N5_15 C11_15 1_555 1_555
N6_15 C12_15 1_555 1_555
N7_15 C11_15 1_555 1_555
N10_15 H8_15 1_555 1_555
N11_15 H9_15 1_555 1_555
N12_15 H10_15 1_555 1_555
C11_15 N10_15 1_555 1_555
C12_15 N5_15 1_555 1_555
C13_15 N6_15 1_555 1_555
C16_15 N10_15 1_555 1_555
C17_15 N11_15 1_555 1_555
C18_15 N12_15 1_555 1_555
C21_15 C16_15 1_555 1_555
C22_15 C17_15 1_555 1_555
C23_15 C18_15 1_555 1_555
H13_15 C21_15 1_555 1_555
H14_15 C22_15 1_555 1_555
H15_15 C23_15 1_555 1_555
C26_15 C21_15 1_555 1_555
C27_15 C22_15 1_555 1_555
C28_15 C23_15 1_555 1_555
H18_15 C26_15 1_555 1_555
H19_15 C27_15 1_555 1_555
H20_15 C28_15 1_555 1_555
C31_15 C26_15 1_555 1_555
C32_15 C27_15 1_555 1_555
C33_15 C28_15 1_555 1_555
C36_15 C31_15 1_555 1_555
C37_15 C32_15 1_555 1_555
C38_15 C33_15 1_555 1_555
H23_15 C36_15 1_555 1_555
H24_15 C37_15 1_555 1_555
H25_15 C38_15 1_555 1_555
C41_15 C16_15 1_555 1_555
C42_15 C17_15 1_555 1_555
C43_15 C18_15 1_555 1_555
H28_15 C41_15 1_555 1_555
H29_15 C42_15 1_555 1_555
H30_15 C43_15 1_555 1_555
C46_15 O6_7 1_555 1_555
C47_15 O7_15 1_555 1_555
C48_15 O10_7 1_555 1_555
O18 C46_15 1_555 1_555
N7_15 C13_15 1_555 1_555
N11_15 C13_15 1_555 1_555
N12_15 C12_15 1_555 1_555
C31_15 C46_15 1_555 1_555
C32_15 C47_15 1_555 1_555
C33_15 C48_15 1_555 1_555
C36_15 C41_15 1_555 1_555
C37_15 C42_15 1_555 1_555
C38_15 C43_15 1_555 1_555
O2_20 Cu10_5 1_555 1_555
Cu10_6 O1_13 1_555 1_555
O1_13 C8_13 1_555 1_555
O2_21 Cu10_6 1_555 1_555
O19_5 C8_13 1_555 1_555
N1_13 C1_13 1_555 1_555
N2_13 H1_13 1_555 1_555
C1_13 N2_13 1_555 1_555
C2_13 N2_13 1_555 1_555
C3_13 C2_13 1_555 1_555
H2_13 C3_13 1_555 1_555
C4_13 C3_13 1_555 1_555
H3_13 C4_13 1_555 1_555
C5_13 C4_13 1_555 1_555
C6_13 C5_13 1_555 1_555
H4_13 C6_13 1_555 1_555
C7_13 C2_13 1_555 1_555
H5_13 C7_13 1_555 1_555
C8_13 C5_13 1_555 1_555
O4_13 Cu5_6 1_555 1_555
O5_13 Cu8_8 1_555 1_555
O11_21 Cu5_6 1_555 1_555
O12_18 Cu8_8 1_555 1_555
O21_4 C44_13 1_555 1_555
O23_7 C45_13 1_555 1_555
N3_13 C9_13 1_555 1_555
N4_13 C1_13 1_555 1_555
N8_13 H6_13 1_555 1_555
N9_13 H7_13 1_555 1_555
C9_13 N1_13 1_555 1_555
C10_13 N3_13 1_555 1_555
C14_13 N8_13 1_555 1_555
C15_13 N9_13 1_555 1_555
C19_13 C14_13 1_555 1_555
C20_13 C15_13 1_555 1_555
H11_13 C19_13 1_555 1_555
H12_13 C20_13 1_555 1_555
C24_13 C19_13 1_555 1_555
C25_13 C20_13 1_555 1_555
H16_13 C24_13 1_555 1_555
H17_13 C25_13 1_555 1_555
C29_13 C24_13 1_555 1_555
C30_13 C25_13 1_555 1_555
C34_13 C29_13 1_555 1_555
C35_13 C30_13 1_555 1_555
H21_13 C34_13 1_555 1_555
H22_13 C35_13 1_555 1_555
C39_13 C14_13 1_555 1_555
C40_13 C15_13 1_555 1_555
H26_13 C39_13 1_555 1_555
H27_13 C40_13 1_555 1_555
C44_13 O4_13 1_555 1_555
C45_13 O5_13 1_555 1_555
C6_13 C7_13 1_555 1_555
N4_13 C10_13 1_555 1_555
N8_13 C10_13 1_555 1_555
N9_13 C9_13 1_555 1_555
C29_13 C44_13 1_555 1_555
C30_13 C45_13 1_555 1_555
C34_13 C39_13 1_555 1_555
C35_13 C40_13 1_555 1_555
Cu8_7 O1_14 1_555 1_555
O1_14 C8_14 1_555 1_555
O2_22 Cu8_7 1_555 1_555
O19_8 C8_14 1_555 1_555
N1_14 C1_14 1_555 1_555
N2_14 H1_14 1_555 1_555
C1_14 N2_14 1_555 1_555
C2_14 N2_14 1_555 1_555
C3_14 C2_14 1_555 1_555
H2_14 C3_14 1_555 1_555
C4_14 C3_14 1_555 1_555
H3_14 C4_14 1_555 1_555
C5_14 C4_14 1_555 1_555
C6_14 C5_14 1_555 1_555
H4_14 C6_14 1_555 1_555
C7_14 C2_14 1_555 1_555
H5_14 C7_14 1_555 1_555
C8_14 C5_14 1_555 1_555
O4_14 Cu10_9 1_555 1_555
O5_14 Cu6 1_555 1_555
O11_22 Cu10_9 1_555 1_555
O12_19 Cu6 1_555 1_555
O21_8 C44_14 1_555 1_555
O23 C45_14 1_555 1_555
N3_14 C9_14 1_555 1_555
N4_14 C1_14 1_555 1_555
N8_14 H6_14 1_555 1_555
N9_14 H7_14 1_555 1_555
C9_14 N1_14 1_555 1_555
C10_14 N3_14 1_555 1_555
C14_14 N8_14 1_555 1_555
C15_14 N9_14 1_555 1_555
C19_14 C14_14 1_555 1_555
C20_14 C15_14 1_555 1_555
H11_14 C19_14 1_555 1_555
H12_14 C20_14 1_555 1_555
C24_14 C19_14 1_555 1_555
C25_14 C20_14 1_555 1_555
H16_14 C24_14 1_555 1_555
H17_14 C25_14 1_555 1_555
C29_14 C24_14 1_555 1_555
C30_14 C25_14 1_555 1_555
C34_14 C29_14 1_555 1_555
C35_14 C30_14 1_555 1_555
H21_14 C34_14 1_555 1_555
H22_14 C35_14 1_555 1_555
C39_14 C14_14 1_555 1_555
C40_14 C15_14 1_555 1_555
H26_14 C39_14 1_555 1_555
H27_14 C40_14 1_555 1_555
C44_14 O4_14 1_555 1_555
C45_14 O5_14 1_555 1_555
C6_14 C7_14 1_555 1_555
N4_14 C10_14 1_555 1_555
N8_14 C10_14 1_555 1_555
N9_14 C9_14 1_555 1_555
C29_14 C44_14 1_555 1_555
C30_14 C45_14 1_555 1_555
C34_14 C39_14 1_555 1_555
C35_14 C40_14 1_555 1_555
O10_8 Cu6_2 1_555 1_555
O12_20 Cu6_2 1_555 1_555
O12_21 Cu10 1_555 1_555
Cu4_3 O1_15 1_555 1_555
O1_15 C8_15 1_555 1_555
O2_23 Cu4_3 1_555 1_555
O19_2 C8_15 1_555 1_555
N1_15 C1_15 1_555 1_555
N2_15 H1_15 1_555 1_555
C1_15 N2_15 1_555 1_555
C2_15 N2_15 1_555 1_555
C3_15 C2_15 1_555 1_555
H2_15 C3_15 1_555 1_555
C4_15 C3_15 1_555 1_555
H3_15 C4_15 1_555 1_555
C5_15 C4_15 1_555 1_555
C6_15 C5_15 1_555 1_555
H4_15 C6_15 1_555 1_555
C7_15 C2_15 1_555 1_555
H5_15 C7_15 1_555 1_555
C8_15 C5_15 1_555 1_555
O4_15 Cu8_9 1_555 1_555
O5_15 Cu10_2 1_555 1_555
O6_8 Cu4_3 1_555 1_555
O7_16 Cu5_5 1_555 1_555
O11_23 Cu8_9 1_555 1_555
O12_22 Cu10_2 1_555 1_555
O21_7 C44_15 1_555 1_555
O23_6 C45_15 1_555 1_555
O20_3 C47_16 1_555 1_555
O22 C48_16 1_555 1_555
N3_15 C9_15 1_555 1_555
N4_15 C1_15 1_555 1_555
N5_16 C11_16 1_555 1_555
N6_16 C12_16 1_555 1_555
N7_16 C11_16 1_555 1_555
N8_15 H6_15 1_555 1_555
N9_15 H7_15 1_555 1_555
N10_16 H8_16 1_555 1_555
N11_16 H9_16 1_555 1_555
N12_16 H10_16 1_555 1_555
C9_15 N1_15 1_555 1_555
C10_15 N3_15 1_555 1_555
C11_16 N10_16 1_555 1_555
C12_16 N5_16 1_555 1_555
C13_16 N6_16 1_555 1_555
C14_15 N8_15 1_555 1_555
C15_15 N9_15 1_555 1_555
C16_16 N10_16 1_555 1_555
C17_16 N11_16 1_555 1_555
C18_16 N12_16 1_555 1_555
C19_15 C14_15 1_555 1_555
C20_15 C15_15 1_555 1_555
C21_16 C16_16 1_555 1_555
C22_16 C17_16 1_555 1_555
C23_16 C18_16 1_555 1_555
H11_15 C19_15 1_555 1_555
H12_15 C20_15 1_555 1_555
H13_16 C21_16 1_555 1_555
H14_16 C22_16 1_555 1_555
H15_16 C23_16 1_555 1_555
C24_15 C19_15 1_555 1_555
C25_15 C20_15 1_555 1_555
C26_16 C21_16 1_555 1_555
C27_16 C22_16 1_555 1_555
C28_16 C23_16 1_555 1_555
H16_15 C24_15 1_555 1_555
H17_15 C25_15 1_555 1_555
H18_16 C26_16 1_555 1_555
H19_16 C27_16 1_555 1_555
H20_16 C28_16 1_555 1_555
C29_15 C24_15 1_555 1_555
C30_15 C25_15 1_555 1_555
C31_16 C26_16 1_555 1_555
C32_16 C27_16 1_555 1_555
C33_16 C28_16 1_555 1_555
C34_15 C29_15 1_555 1_555
C35_15 C30_15 1_555 1_555
C36_16 C31_16 1_555 1_555
C37_16 C32_16 1_555 1_555
C38_16 C33_16 1_555 1_555
H21_15 C34_15 1_555 1_555
H22_15 C35_15 1_555 1_555
H23_16 C36_16 1_555 1_555
H24_16 C37_16 1_555 1_555
H25_16 C38_16 1_555 1_555
C39_15 C14_15 1_555 1_555
C40_15 C15_15 1_555 1_555
C41_16 C16_16 1_555 1_555
C42_16 C17_16 1_555 1_555
C43_16 C18_16 1_555 1_555
H26_15 C39_15 1_555 1_555
H27_15 C40_15 1_555 1_555
H28_16 C41_16 1_555 1_555
H29_16 C42_16 1_555 1_555
H30_16 C43_16 1_555 1_555
C44_15 O4_15 1_555 1_555
C45_15 O5_15 1_555 1_555
C46_16 O6_8 1_555 1_555
C47_16 O7_16 1_555 1_555
C48_16 O10_8 1_555 1_555
C6_15 C7_15 1_555 1_555
O18_2 C46_16 1_555 1_555
N4_15 C10_15 1_555 1_555
N7_16 C13_16 1_555 1_555
N8_15 C10_15 1_555 1_555
N9_15 C9_15 1_555 1_555
N11_16 C13_16 1_555 1_555
N12_16 C12_16 1_555 1_555
C29_15 C44_15 1_555 1_555
C30_15 C45_15 1_555 1_555
C31_16 C46_16 1_555 1_555
C32_16 C47_16 1_555 1_555
C33_16 C48_16 1_555 1_555
C34_15 C39_15 1_555 1_555
C35_15 C40_15 1_555 1_555
C36_16 C41_16 1_555 1_555
C37_16 C42_16 1_555 1_555
C38_16 C43_16 1_555 1_555
O12_23 Cu8_5 1_555 1_555
Cu10_8 O1_16 1_555 1_555
O1_16 C8_16 1_555 1_555
O2_24 Cu10_8 1_555 1_555
O19_7 C8_16 1_555 1_555
N1_16 C1_16 1_555 1_555
N2_16 H1_16 1_555 1_555
C1_16 N2_16 1_555 1_555
C2_16 N2_16 1_555 1_555
C3_16 C2_16 1_555 1_555
H2_16 C3_16 1_555 1_555
C4_16 C3_16 1_555 1_555
H3_16 C4_16 1_555 1_555
C5_16 C4_16 1_555 1_555
C6_16 C5_16 1_555 1_555
H4_16 C6_16 1_555 1_555
C7_16 C2_16 1_555 1_555
H5_16 C7_16 1_555 1_555
C8_16 C5_16 1_555 1_555
O4_16 Cu5_5 1_555 1_555
O5_16 Cu8_6 1_555 1_555
O11_24 Cu5_5 1_555 1_555
O12_24 Cu8_6 1_555 1_555
O21_3 C44_16 1_555 1_555
O23_5 C45_16 1_555 1_555
N3_16 C9_16 1_555 1_555
N4_16 C1_16 1_555 1_555
N8_16 H6_16 1_555 1_555
N9_16 H7_16 1_555 1_555
C9_16 N1_16 1_555 1_555
C10_16 N3_16 1_555 1_555
C14_16 N8_16 1_555 1_555
C15_16 N9_16 1_555 1_555
C19_16 C14_16 1_555 1_555
C20_16 C15_16 1_555 1_555
H11_16 C19_16 1_555 1_555
H12_16 C20_16 1_555 1_555
C24_16 C19_16 1_555 1_555
C25_16 C20_16 1_555 1_555
H16_16 C24_16 1_555 1_555
H17_16 C25_16 1_555 1_555
C29_16 C24_16 1_555 1_555
C30_16 C25_16 1_555 1_555
C34_16 C29_16 1_555 1_555
C35_16 C30_16 1_555 1_555
H21_16 C34_16 1_555 1_555
H22_16 C35_16 1_555 1_555
C39_16 C14_16 1_555 1_555
C40_16 C15_16 1_555 1_555
H26_16 C39_16 1_555 1_555
H27_16 C40_16 1_555 1_555
C44_16 O4_16 1_555 1_555
C45_16 O5_16 1_555 1_555
C6_16 C7_16 1_555 1_555
N4_16 C10_16 1_555 1_555
N8_16 C10_16 1_555 1_555
N9_16 C9_16 1_555 1_555
C29_16 C44_16 1_555 1_555
C30_16 C45_16 1_555 1_555
C34_16 C39_16 1_555 1_555
C35_16 C40_16 1_555 1_555

#END
