
###############################################################################
#
# This file contains modified crystal structure data generated from the
# MOF subset of the Cambridge Structural Database (CSD) v543 
# hosted by the Cambridge Crystallographic Data Centre (CCDC).
#
# This work is licensed under the Creative Commons
# Attribution-NonCommercial-ShareAlike 4.0 International License.
# To view a copy of this license, visit
# http://creativecommons.org/licenses/by-nc-sa/4.0/
# or send a letter to
# Creative Commons, PO Box 1866, Mountain View, CA 94042, USA.
#
# CIF created using the CSD Python API on 29 September 2022
# The structure has been converted into the P1 space group
# The structure has a 3D framework
# The original CSD entry HEZSAG is in the monoclinic crystal system
# The framework has been calculated to contain at least 10.0% void space
# The void calculation uses a probe of radius 1.32A, grid spacing 0.4
# H atom positions have been added when not included in the experimental data
#
###############################################################################

data_HEZSAG
_chemical_formula_moiety         '(C40 H72 Cu4 N8 O44 Sr4)n'
_symmetry_cell_setting           triclinic
_symmetry_space_group_name_H-M   'P 1'
_symmetry_Int_Tables_number      1
_space_group_name_Hall           'P 1'
loop_
_symmetry_equiv_pos_site_id
_symmetry_equiv_pos_as_xyz
1 x,y,z
_cell_length_a                   8.717(1)
_cell_length_b                   10.568(3)
_cell_length_c                   19.374(3)
_cell_angle_alpha                90
_cell_angle_beta                 100.39(1)
_cell_angle_gamma                90
_cell_volume                     1755.49
loop_
_atom_site_label
_atom_site_type_symbol
_atom_site_fract_x
_atom_site_fract_y
_atom_site_fract_z
Sr3 Sr 0.32856(6) 0.15100(5) 0.04967(2)
O1 O 0.10122(47) 0.36956(35) 0.61850(20)
O2 O 0.12244(43) 0.47708(33) 0.71971(18)
O3 O 0.12205(54) 0.25481(41) 0.95615(21)
C3 C 0.07744(55) 0.38413(46) 0.67971(26)
C5 C 0.06593(72) 0.29856(65) 0.83492(28)
C6 C 0.03163(59) 0.23292(45) 0.90055(27)
H6 H 0.0443(90) 0.1978(45) 0.7100(44)
H7 H 0.1280(87) 0.2208(49) 0.8268(45)
H8 H 0.1404(80) 0.3649(58) 0.8588(40)
Sr2 Sr 0.32856(6) 0.34900(5) 0.54967(2)
Cu2 Cu 0.23169(7) 0.62907(5) 0.69336(3)
O17 O 0.40954(45) 0.54297(34) 0.63194(21)
O9 O 0.83595(42) 0.04637(36) 0.00931(19)
H13 H 0.763673 0.113443 0.0197328
H14 H 0.90389 0.0190628 0.0535669
Cu1 Cu 0.76831(7) 0.12907(5) 0.80664(3)
N1 N 0.93577(49) 0.29765(39) 0.77512(21)
N2 N 0.63534(56) 0.28490(41) 0.82556(26)
O4 O 0.91562(47) 0.15954(34) 0.89526(20)
O5 O 0.43202(69) 0.10518(50) 0.93818(29)
O6 O 0.59046(45) 0.04297(34) 0.86806(21)
O7 O 0.40185(55) 0.20221(47) 0.65773(27)
O8 O 0.62199(49) 0.12098(36) 0.71766(21)
C1 C 0.83188(82) 0.40717(56) 0.77575(38)
C2 C 0.73596(79) 0.39996(51) 0.83252(36)
C4 C 0.98447(60) 0.27999(48) 0.70782(27)
C7 C 0.57597(76) 0.26315(52) 0.89269(34)
C8 C 0.52634(63) 0.12610(52) 0.89905(28)
C9 C 0.50321(72) 0.29418(63) 0.76585(35)
C10 C 0.50890(65) 0.19935(56) 0.70873(33)
H1 H 0.7616(83) 0.4117(94) 0.7280(21)
H2 H 0.8529(98) 0.4918(39) 0.7548(41)
H3 H 0.6464(66) 0.4613(63) 0.8305(44)
H4 H 0.8285(66) 0.3955(86) 0.8723(31)
H5 H 0.8890(60) 0.2444(76) 0.6766(37)
H9 H 0.5070(92) 0.3408(55) 0.8880(51)
H10 H 0.4857(72) 0.2964(86) 0.9134(44)
H11 H 0.470(10) 0.3855(27) 0.7597(46)
H12 H 0.494(10) 0.3211(92) 0.7153(16)
O12 O 0.87795(54) 0.74519(41) 0.04385(21)
O15 O 0.56798(69) 0.89482(50) 0.06182(29)
H16 H 0.688895 0.580349 0.0194149
Sr1 Sr 0.67144(6) 0.84900(5) 0.95033(2)
O10 O 0.37142(57) 0.82774(55) 0.91557(35)
O11 O 0.61404(97) 0.60896(64) 0.97748(38)
O13 O 0.89878(47) 0.86956(35) 0.88150(20)
O14 O 0.87756(43) 0.97708(33) 0.78029(18)
O16 O 0.59815(55) 0.70221(47) 0.84227(27)
H15 H 0.625812 0.555654 0.93655
H17 H 0.342207 0.819351 0.863814
H18 H 0.3362 0.751586 0.938373
N1_2 N 0.06423(49) 0.79765(39) 0.72488(21)
N2_2 N 0.36466(56) 0.78490(41) 0.67444(26)
O4_2 O 0.08438(47) 0.65954(34) 0.60474(20)
O5_2 O 0.56798(69) 0.60518(50) 0.56182(29)
O8_2 O 0.37801(49) 0.62098(36) 0.78234(21)
O9_2 O 0.16405(42) 0.54637(36) 0.49069(19)
O10_2 O 0.62858(57) 0.32774(55) 0.58443(35)
O11_2 O 0.38596(97) 0.10896(64) 0.52252(38)
C1_2 C 0.16812(82) 0.90717(56) 0.72425(38)
C2_2 C 0.26404(79) 0.89996(51) 0.66748(36)
C4_2 C 0.01553(60) 0.77999(48) 0.79218(27)
C7_2 C 0.42403(76) 0.76315(52) 0.60731(34)
C8_2 C 0.47366(63) 0.62610(52) 0.60095(28)
C9_2 C 0.49679(72) 0.79418(63) 0.73415(35)
C10_2 C 0.49110(65) 0.69935(56) 0.79127(33)
H1_2 H 0.2384(83) 0.9117(94) 0.7720(21)
H2_2 H 0.1471(98) 0.9918(39) 0.7452(41)
H3_2 H 0.3536(66) 0.9613(63) 0.6695(44)
H4_2 H 0.1715(66) 0.8955(86) 0.6277(31)
H5_2 H 0.1110(60) 0.7444(76) 0.8234(37)
H9_2 H 0.4930(92) 0.8408(55) 0.6120(51)
H10_2 H 0.5143(72) 0.7964(86) 0.5866(44)
H11_2 H 0.530(10) 0.8855(27) 0.7403(46)
H12_2 H 0.506(10) 0.8211(92) 0.7847(16)
O12_2 O 0.12205(54) 0.24519(41) 0.45615(21)
Sr4 Sr 0.67144(6) 0.65100(5) 0.45033(2)
O15_2 O 0.43202(69) 0.39482(50) 0.43818(29)
H13_2 H 0.236327 0.613443 0.480267
H14_2 H 0.0961101 0.519063 0.446433
H15_2 H 0.374188 0.0556538 0.56345
H16_2 H 0.311105 0.0803485 0.480585
H17_2 H 0.657793 0.319351 0.636186
H18_2 H 0.6638 0.251586 0.561627
O3_2 O 0.87795(54) 0.75481(41) 0.54385(21)
C3_2 C 0.92256(55) 0.88413(46) 0.82029(26)
C5_2 C 0.93407(72) 0.79856(65) 0.66508(28)
C6_2 C 0.96837(59) 0.73292(45) 0.59945(27)
H6_2 H 0.9557(90) 0.6978(45) 0.7900(44)
H7_2 H 0.8720(87) 0.7208(49) 0.6732(45)
H8_2 H 0.8596(80) 0.8649(58) 0.6412(40)
O10_3 O 0.62858(57) 0.17226(55) 0.08443(35)
O11_3 O 0.38596(97) 0.39104(64) 0.02252(38)
O13_2 O 0.10122(47) 0.13044(35) 0.11850(20)
O14_2 O 0.12244(43) 0.02292(33) 0.21971(18)
O16_2 O 0.40185(55) 0.29779(47) 0.15773(27)
H15_3 H 0.374188 0.444346 0.0634501
H17_3 H 0.657793 0.180649 0.136186
H18_3 H 0.6638 0.248414 0.0616273
H16_3 H 0.311105 0.419651 0.980585
Cu1_2 Cu 0.23169(7) 0.87093(5) 0.19336(3)
N1_3 N 0.06423(49) 0.70235(39) 0.22488(21)
N2_3 N 0.36466(56) 0.71510(41) 0.17444(26)
O4_3 O 0.08438(47) 0.84046(34) 0.10474(20)
O6_2 O 0.40954(45) 0.95703(34) 0.13194(21)
O7_2 O 0.59815(55) 0.79779(47) 0.34227(27)
O8_3 O 0.37801(49) 0.87902(36) 0.28234(21)
C1_3 C 0.16812(82) 0.59283(56) 0.22425(38)
C2_3 C 0.26404(79) 0.60004(51) 0.16748(36)
C4_3 C 0.01553(60) 0.72001(48) 0.29218(27)
C7_3 C 0.42403(76) 0.73685(52) 0.10731(34)
C8_3 C 0.47366(63) 0.87390(52) 0.10095(28)
C9_3 C 0.49679(72) 0.70582(63) 0.23415(35)
C10_3 C 0.49110(65) 0.80065(56) 0.29127(33)
H1_3 H 0.2384(83) 0.5883(94) 0.2720(21)
H2_3 H 0.1471(98) 0.5082(39) 0.2452(41)
H3_3 H 0.3536(66) 0.5387(63) 0.1695(44)
H4_3 H 0.1715(66) 0.6045(86) 0.1277(31)
H5_3 H 0.1110(60) 0.7556(76) 0.3234(37)
H9_3 H 0.4930(92) 0.6592(55) 0.1120(51)
H10_3 H 0.5143(72) 0.7036(86) 0.0866(44)
H11_3 H 0.530(10) 0.6145(27) 0.2403(46)
H12_3 H 0.506(10) 0.6789(92) 0.2847(16)
O9_3 O 0.16405(42) 0.95363(36) 0.99069(19)
H13_3 H 0.236327 0.886557 0.980267
H14_3 H 0.0961101 0.980937 0.946433
O1_2 O 0.89878(47) 0.63044(35) 0.38150(20)
O2_2 O 0.87756(43) 0.52292(33) 0.28029(18)
C3_3 C 0.92256(55) 0.61587(46) 0.32029(26)
C5_3 C 0.93407(72) 0.70144(65) 0.16508(28)
C6_3 C 0.96837(59) 0.76708(45) 0.09945(27)
H6_3 H 0.9557(90) 0.8022(45) 0.2900(44)
H7_3 H 0.8720(87) 0.7792(49) 0.1732(45)
H8_3 H 0.8596(80) 0.6351(58) 0.1412(40)
Cu2_2 Cu 0.76831(7) 0.37093(5) 0.30664(3)
O17_2 O 0.59046(45) 0.45703(34) 0.36806(21)
C3_4 C 0.07744(55) 0.11587(46) 0.17971(26)
C5_4 C 0.06593(72) 0.20144(65) 0.33492(28)
C6_4 C 0.03163(59) 0.26708(45) 0.40055(27)
H6_4 H 0.0443(90) 0.3022(45) 0.2100(44)
H7_4 H 0.1280(87) 0.2792(49) 0.3268(45)
H8_4 H 0.1404(80) 0.1351(58) 0.3588(40)
N1_4 N 0.93577(49) 0.20235(39) 0.27512(21)
N2_4 N 0.63534(56) 0.21510(41) 0.32556(26)
O4_4 O 0.91562(47) 0.34046(34) 0.39526(20)
O8_4 O 0.62199(49) 0.37902(36) 0.21766(21)
O9_4 O 0.83595(42) 0.45363(36) 0.50931(19)
O10_4 O 0.37142(57) 0.67226(55) 0.41557(35)
O11_4 O 0.61404(97) 0.89104(64) 0.47748(38)
C1_4 C 0.83188(82) 0.09283(56) 0.27575(38)
C2_4 C 0.73596(79) 0.10004(51) 0.33252(36)
C4_4 C 0.98447(60) 0.22001(48) 0.20782(27)
C7_4 C 0.57597(76) 0.23685(52) 0.39269(34)
C8_4 C 0.52634(63) 0.37390(52) 0.39905(28)
C9_4 C 0.50321(72) 0.20582(63) 0.26585(35)
C10_4 C 0.50890(65) 0.30065(56) 0.20873(33)
H1_4 H 0.7616(83) 0.0883(94) 0.2280(21)
H2_4 H 0.8529(98) 0.0082(39) 0.2548(41)
H3_4 H 0.6464(66) 0.0387(63) 0.3305(44)
H4_4 H 0.8285(66) 0.1045(86) 0.3723(31)
H5_4 H 0.8890(60) 0.2556(76) 0.1766(37)
H9_4 H 0.5070(92) 0.1592(55) 0.3880(51)
H10_4 H 0.4857(72) 0.2036(86) 0.4134(44)
H11_4 H 0.470(10) 0.1145(27) 0.2597(46)
H12_4 H 0.494(10) 0.1789(92) 0.2153(16)
H13_4 H 0.763673 0.386557 0.519733
H14_4 H 0.90389 0.480937 0.553567
H15_4 H 0.625812 0.944346 0.43655
H16_4 H 0.688895 0.919651 0.519415
H17_4 H 0.342207 0.680649 0.363814
H18_4 H 0.3362 0.748414 0.438373
loop_
_geom_bond_atom_site_label_1
_geom_bond_atom_site_label_2
_geom_bond_site_symmetry_1
_geom_bond_site_symmetry_2
O1 C3 1_555 1_555
O2 C3 1_555 1_555
O3 C6 1_555 1_555
H7 C5 1_555 1_555
H8 C5 1_555 1_555
Sr2 O1 1_555 1_555
Cu2 O2 1_555 1_555
O17 Sr2 1_555 1_555
C5 C6 1_555 1_555
Cu2 O17 1_555 1_555
O9 H13 1_555 1_555
O9 H14 1_555 1_555
Cu1 N1 1_555 1_555
N1 C1 1_555 1_555
N2 Cu1 1_555 1_555
O4 Cu1 1_555 1_555
O5 C8 1_555 1_555
O6 Cu1 1_555 1_555
O7 C10 1_555 1_555
O8 Cu1 1_555 1_555
C1 C2 1_555 1_555
C2 N2 1_555 1_555
C4 N1 1_555 1_555
C7 N2 1_555 1_555
C8 O6 1_555 1_555
C9 N2 1_555 1_555
C10 O8 1_555 1_555
H1 C1 1_555 1_555
H2 C1 1_555 1_555
H3 C2 1_555 1_555
H4 C2 1_555 1_555
H5 C4 1_555 1_555
H9 C7 1_555 1_555
H10 C7 1_555 1_555
H11 C9 1_555 1_555
H12 C9 1_555 1_555
Sr2 O7 1_555 1_555
C7 C8 1_555 1_555
C9 C10 1_555 1_555
O10 Sr1 1_555 1_555
O11 Sr1 1_555 1_555
O13 Sr1 1_555 1_555
O16 Sr1 1_555 1_555
O11 H15 1_555 1_555
O10 H17 1_555 1_555
O10 H18 1_555 1_555
Cu2 N1_2 1_555 1_555
N1_2 C1_2 1_555 1_555
N2_2 Cu2 1_555 1_555
O4_2 Cu2 1_555 1_555
O5_2 C8_2 1_555 1_555
O16 C10_2 1_555 1_555
O8_2 Cu2 1_555 1_555
O9_2 Sr2 1_555 1_555
O10_2 Sr2 1_555 1_555
O11_2 Sr2 1_555 1_555
C1_2 C2_2 1_555 1_555
C2_2 N2_2 1_555 1_555
C4_2 N1_2 1_555 1_555
C7_2 N2_2 1_555 1_555
C8_2 O17 1_555 1_555
C9_2 N2_2 1_555 1_555
C10_2 O8_2 1_555 1_555
H1_2 C1_2 1_555 1_555
H2_2 C1_2 1_555 1_555
H3_2 C2_2 1_555 1_555
H4_2 C2_2 1_555 1_555
H5_2 C4_2 1_555 1_555
H9_2 C7_2 1_555 1_555
H10_2 C7_2 1_555 1_555
H11_2 C9_2 1_555 1_555
H12_2 C9_2 1_555 1_555
O12_2 Sr2 1_555 1_555
Sr4 O5_2 1_555 1_555
O15_2 Sr2 1_555 1_555
C7_2 C8_2 1_555 1_555
C9_2 C10_2 1_555 1_555
O9_2 H13_2 1_555 1_555
O9_2 H14_2 1_555 1_555
O11_2 H15_2 1_555 1_555
O11_2 H16_2 1_555 1_555
O10_2 H17_2 1_555 1_555
O10_2 H18_2 1_555 1_555
O13 C3_2 1_555 1_555
O14 C3_2 1_555 1_555
O3_2 C6_2 1_555 1_555
H7_2 C5_2 1_555 1_555
H8_2 C5_2 1_555 1_555
Sr4 O3_2 1_555 1_555
C5_2 C6_2 1_555 1_555
O10_3 Sr3 1_555 1_555
O11_3 Sr3 1_555 1_555
O13_2 Sr3 1_555 1_555
O16_2 Sr3 1_555 1_555
O11_3 H15_3 1_555 1_555
O10_3 H17_3 1_555 1_555
O10_3 H18_3 1_555 1_555
Cu1_2 N1_3 1_555 1_555
N1_3 C1_3 1_555 1_555
N2_3 Cu1_2 1_555 1_555
O4_3 Cu1_2 1_555 1_555
O15 C8_3 1_555 1_555
O6_2 Cu1_2 1_555 1_555
O7_2 C10_3 1_555 1_555
O8_3 Cu1_2 1_555 1_555
C1_3 C2_3 1_555 1_555
C2_3 N2_3 1_555 1_555
C4_3 N1_3 1_555 1_555
C7_3 N2_3 1_555 1_555
C8_3 O6_2 1_555 1_555
C9_3 N2_3 1_555 1_555
C10_3 O8_3 1_555 1_555
H1_3 C1_3 1_555 1_555
H2_3 C1_3 1_555 1_555
H3_3 C2_3 1_555 1_555
H4_3 C2_3 1_555 1_555
H5_3 C4_3 1_555 1_555
H9_3 C7_3 1_555 1_555
H10_3 C7_3 1_555 1_555
H11_3 C9_3 1_555 1_555
H12_3 C9_3 1_555 1_555
Sr4 O7_2 1_555 1_555
C7_3 C8_3 1_555 1_555
C9_3 C10_3 1_555 1_555
O9_3 H13_3 1_555 1_555
O9_3 H14_3 1_555 1_555
O1_2 C3_3 1_555 1_555
O2_2 C3_3 1_555 1_555
O12 C6_3 1_555 1_555
H7_3 C5_3 1_555 1_555
H8_3 C5_3 1_555 1_555
Sr4 O1_2 1_555 1_555
Cu2_2 O2_2 1_555 1_555
O17_2 Sr4 1_555 1_555
C5_3 C6_3 1_555 1_555
Cu2_2 O17_2 1_555 1_555
O13_2 C3_4 1_555 1_555
O14_2 C3_4 1_555 1_555
O12_2 C6_4 1_555 1_555
H7_4 C5_4 1_555 1_555
H8_4 C5_4 1_555 1_555
C5_4 C6_4 1_555 1_555
Cu2_2 N1_4 1_555 1_555
N1_4 C1_4 1_555 1_555
N2_4 Cu2_2 1_555 1_555
O4_4 Cu2_2 1_555 1_555
O15_2 C8_4 1_555 1_555
O16_2 C10_4 1_555 1_555
O8_4 Cu2_2 1_555 1_555
O9_4 Sr4 1_555 1_555
O10_4 Sr4 1_555 1_555
O11_4 Sr4 1_555 1_555
C1_4 C2_4 1_555 1_555
C2_4 N2_4 1_555 1_555
C4_4 N1_4 1_555 1_555
C7_4 N2_4 1_555 1_555
C8_4 O17_2 1_555 1_555
C9_4 N2_4 1_555 1_555
C10_4 O8_4 1_555 1_555
H1_4 C1_4 1_555 1_555
H2_4 C1_4 1_555 1_555
H3_4 C2_4 1_555 1_555
H4_4 C2_4 1_555 1_555
H5_4 C4_4 1_555 1_555
H9_4 C7_4 1_555 1_555
H10_4 C7_4 1_555 1_555
H11_4 C9_4 1_555 1_555
H12_4 C9_4 1_555 1_555
C7_4 C8_4 1_555 1_555
C9_4 C10_4 1_555 1_555
O9_4 H13_4 1_555 1_555
O9_4 H14_4 1_555 1_555
O11_4 H15_4 1_555 1_555
O11_4 H16_4 1_555 1_555
O10_4 H17_4 1_555 1_555
O10_4 H18_4 1_555 1_555

#END
