
###############################################################################
#
# This file contains modified crystal structure data generated from the
# MOF subset of the Cambridge Structural Database (CSD) v543 
# hosted by the Cambridge Crystallographic Data Centre (CCDC).
#
# This work is licensed under the Creative Commons
# Attribution-NonCommercial-ShareAlike 4.0 International License.
# To view a copy of this license, visit
# http://creativecommons.org/licenses/by-nc-sa/4.0/
# or send a letter to
# Creative Commons, PO Box 1866, Mountain View, CA 94042, USA.
#
# CIF created using the CSD Python API on 29 September 2022
# The structure has been converted into the P1 space group
# The structure has a 3D framework
# The original CSD entry HIBGEF is in the monoclinic crystal system
# The framework has been calculated to contain at least 10.0% void space
# The void calculation uses a probe of radius 1.32A, grid spacing 0.4
#
###############################################################################

data_HIBGEF
_chemical_formula_moiety         '(C24 H24 Mg23 O48)n'
_symmetry_cell_setting           triclinic
_symmetry_space_group_name_H-M   'P 1'
_symmetry_Int_Tables_number      1
_space_group_name_Hall           'P 1'
loop_
_symmetry_equiv_pos_site_id
_symmetry_equiv_pos_as_xyz
1 x,y,z
_cell_length_a                   11.315(1)
_cell_length_b                   9.853(1)
_cell_length_c                   14.400(1)
_cell_angle_alpha                90
_cell_angle_beta                 91.320(1)
_cell_angle_gamma                90
_cell_volume                     1604.98
loop_
_atom_site_label
_atom_site_type_symbol
_atom_site_fract_x
_atom_site_fract_y
_atom_site_fract_z
Mg1 Mg 0.25549(3) 0.08193(4) 0.13492(3)
Mg2 Mg 0.0000 0.0000 0.0000
Mg4 Mg 0.5000 0.0000 0.0000
O2 O 0.15626(7) 0.25908(9) 0.11049(6)
O3 O 0.30932(8) 0.20376(9) 0.24670(6)
O4 O 0.39797(7) 0.15422(9) 0.06075(6)
O8 O 0.01738(8) 0.20706(10) 0.00300(7)
O9 O 0.38707(8) 0.37716(10) 0.09136(7)
O12 O 0.31197(8) 0.06251(10) 0.36884(6)
C2 C 0.07476(11) 0.28917(13) 0.05072(9)
H2 H 0.0569 0.3826 0.0424
C3 C 0.33069(10) 0.17449(13) 0.33174(8)
H3 H 0.3637 0.2440 0.3700
C4 C 0.42935(11) 0.27795(13) 0.05086(9)
H4 H 0.4907 0.2955 0.0086
Mg9 Mg 0.26124(4) 0.39212(4) 0.18845(3)
O32 O 0.64901(8) 0.10802(10) 0.03068(7)
Mg2_2 Mg -0.0000 0.0000 1.0000
Mg4_2 Mg 0.5000 0.0000 1.0000
Mg12 Mg 0.76124(4) 0.10788(4) 0.68845(3)
O23 O 0.65068(8) 0.07818(9) 0.80224(6)
O30 O 0.47917(8) 0.09985(10) 0.87544(7)
H7 H 0.0252 0.0332 0.7333
C11 C 0.54675(11) 0.12575(14) 0.81154(9)
H11 H 0.5186 0.1868 0.7650
Mg2_3 Mg 0.0000 1.0000 0.0000
Mg3 Mg 0.23876(4) 0.89212(4) 0.31155(3)
Mg4_3 Mg 0.5000 1.0000 0.0000
O1 O 0.13000(7) 0.99781(9) 0.22175(6)
O5 O 0.34932(8) 0.92182(9) 0.19776(6)
O6 O 0.18302(7) 0.97542(9) 0.02529(6)
O10 O 0.52083(8) 0.90015(10) 0.12456(7)
C1 C 0.01792(10) 0.98686(13) 0.21256(9)
C5 C 0.45325(11) 0.87425(14) 0.18846(9)
H5 H 0.4814 0.8132 0.2350
Mg6 Mg 0.24451(3) 0.58193(4) 0.36508(3)
Mg14 Mg -0.0000 0.5000 0.5000
O15 O 0.34374(7) 0.75908(9) 0.38951(6)
O17 O 0.19068(8) 0.70376(9) 0.25330(6)
O20 O 0.10203(7) 0.65422(9) 0.43925(6)
O28 O 0.11293(8) 0.87716(10) 0.40864(7)
O33 O 0.18803(8) 0.56251(10) 0.13116(6)
C9 C 0.16931(10) 0.67449(13) 0.16826(8)
H9 H 0.1363 0.7440 0.1300
C10 C 0.07065(11) 0.77795(13) 0.44914(9)
H10 H 0.0093 0.7955 0.4914
Mg2_4 Mg 0.0000 1.0000 1.0000
Mg4_4 Mg 0.5000 1.0000 1.0000
O11 O 0.35099(8) 0.89198(10) 0.96932(7)
C6 C 0.24200(11) 0.89832(13) 0.97143(9)
H6 H 0.1983 0.8415 0.9298
Mg7 Mg 0.74451(3) 0.91807(4) 0.86508(3)
O21 O 0.60203(7) 0.84578(9) 0.93925(6)
O26 O 0.03898(8) 0.99975(11) 0.86107(7)
Mg2_5 Mg 1.0000 0.0000 0.0000
O7 O 0.96102(8) 0.00025(11) 0.13893(7)
C12 C 0.75800(11) 0.10168(13) 0.02857(9)
H12 H 0.8017 0.1585 0.0702
Mg2_6 Mg 1.0000 0.0000 1.0000
O13 O 0.87000(7) 0.00219(9) 0.77825(6)
O16 O 0.65626(7) 0.24092(9) 0.61049(6)
O19 O 0.80932(8) 0.29624(9) 0.74670(6)
O25 O 0.81698(7) 0.02458(9) 0.97471(6)
O29 O 0.88707(8) 0.12284(10) 0.59136(7)
C7 C 0.98208(10) 0.01314(13) 0.78744(9)
Mg2_7 Mg 1.0000 1.0000 0.0000
H1 H 0.9748 0.9668 0.2667
Mg14_2 Mg 1.0000 0.5000 0.5000
Mg2_8 Mg 1.0000 1.0000 1.0000
Mg10 Mg 0.73876(4) 0.60788(4) 0.81155(3)
O14 O 0.84374(7) 0.74092(9) 0.88951(6)
O18 O 0.69068(8) 0.79624(9) 0.75330(6)
O27 O 0.98262(8) 0.79294(10) 0.99700(7)
O34 O 0.68803(8) 0.93749(10) 0.63116(6)
C8 C 0.92524(11) 0.71083(13) 0.94928(9)
H8 H 0.9431 0.6174 0.9576
Mg2_9 Mg 0.5000 0.5000 0.5000
O1_2 O 0.37000(7) 0.49781(9) 0.27825(6)
O5_2 O 0.15068(8) 0.42182(9) 0.30224(6)
O6_2 O 0.31698(7) 0.47542(9) 0.47471(6)
O7_2 O 0.53898(8) 0.50025(11) 0.36107(7)
O8_2 O 0.48262(8) 0.70706(10) 0.49700(7)
O11_2 O 0.14901(8) 0.39198(10) 0.53068(7)
C1_2 C 0.48208(10) 0.48686(13) 0.28744(9)
H1_2 H 0.5252 0.4668 0.2333
C2_2 C 0.42524(11) 0.78917(13) 0.44928(9)
H2_2 H 0.4431 0.8826 0.4576
C5_2 C 0.04675(11) 0.37425(14) 0.31154(9)
H5_2 H 0.0186 0.3132 0.2650
C6_2 C 0.25800(11) 0.39832(13) 0.52857(9)
H6_2 H 0.3017 0.3415 0.5702
Mg5 Mg 0.75549(3) 0.41807(4) 0.63492(3)
O13_2 O 0.63000(7) 0.50219(9) 0.72175(6)
O22 O 0.89797(7) 0.34578(9) 0.56075(6)
O24 O 0.84932(8) 0.57818(9) 0.69776(6)
O25_2 O 0.68302(7) 0.52458(9) 0.52529(6)
O26_2 O 0.46102(8) 0.49975(11) 0.63893(7)
O27_2 O 0.51738(8) 0.29294(10) 0.50300(7)
O29_2 O 0.61293(8) 0.62284(10) 0.90864(7)
O30_2 O 0.02083(8) 0.59985(10) 0.62456(7)
O31 O 0.85099(8) 0.60802(10) 0.46932(7)
O34_2 O 0.81197(8) 0.43749(10) 0.86884(6)
C7_2 C 0.51792(10) 0.51314(13) 0.71256(9)
H7_2 H 0.4748 0.5332 0.7667
C8_2 C 0.57476(11) 0.21083(13) 0.55072(9)
H8_2 H 0.5569 0.1174 0.5424
C12_2 C 0.74200(11) 0.60168(13) 0.47143(9)
H12_2 H 0.6983 0.6585 0.4298
O10_2 O 0.97917(8) 0.40015(10) 0.37544(7)
C11_2 C 0.95325(11) 0.62575(14) 0.68846(9)
H11_2 H 0.9814 0.6868 0.7350
C9_2 C 0.83069(10) 0.32551(13) 0.83174(8)
H9_2 H 0.8637 0.2560 0.8700
C10_2 C 0.92935(11) 0.22205(13) 0.55086(9)
H10_2 H 0.9907 0.2045 0.5086
C3_2 C 0.66931(10) 0.82551(13) 0.66826(8)
H3_2 H 0.6363 0.7560 0.6300
C4_2 C 0.57065(11) 0.72205(13) 0.94914(9)
H4_2 H 0.5093 0.7045 0.9914
loop_
_geom_bond_atom_site_label_1
_geom_bond_atom_site_label_2
_geom_bond_site_symmetry_1
_geom_bond_site_symmetry_2
Mg4 O4 1_555 1_555
O2 Mg1 1_555 1_555
O3 Mg1 1_555 1_555
O4 Mg1 1_555 1_555
O8 Mg2 1_555 1_555
O9 C4 1_555 1_555
C2 O2 1_555 1_555
H2 C2 1_555 1_555
C3 O3 1_555 1_555
H3 C3 1_555 1_555
C4 O4 1_555 1_555
H4 C4 1_555 1_555
Mg9 O2 1_555 1_555
O32 Mg4 1_555 1_555
O3 Mg9 1_555 1_555
O8 C2 1_555 1_555
O9 Mg9 1_555 1_555
O12 C3 1_555 1_555
Mg12 O23 1_555 1_555
O30 Mg4_2 1_555 1_555
C11 O23 1_555 1_555
H11 C11 1_555 1_555
O30 C11 1_555 1_555
Mg2_3 O6 1_555 1_555
Mg3 O1 1_555 1_555
O1 C1 1_555 1_555
O10 Mg4_3 1_555 1_555
C5 O5 1_555 1_555
H5 C5 1_555 1_555
Mg6 O15 1_555 1_555
Mg9 O33 1_555 1_555
Mg14 O20 1_555 1_555
O15 Mg3 1_555 1_555
O17 Mg3 1_555 1_555
O20 Mg6 1_555 1_555
O28 Mg3 1_555 1_555
O33 C9 1_555 1_555
C9 O17 1_555 1_555
H9 C9 1_555 1_555
C10 O20 1_555 1_555
H10 C10 1_555 1_555
Mg3 O5 1_555 1_555
O10 C5 1_555 1_555
Mg6 O17 1_555 1_555
O28 C10 1_555 1_555
O11 Mg4_4 1_555 1_555
H6 C6 1_555 1_555
Mg7 O21 1_555 1_555
O21 Mg4_4 1_555 1_555
O26 Mg2_4 1_555 1_555
O11 C6 1_555 1_555
O7 Mg2_5 1_555 1_555
H12 C12 1_555 1_555
O32 C12 1_555 1_555
Mg12 O13 1_555 1_555
O13 C7 1_555 1_555
O16 Mg12 1_555 1_555
O19 Mg12 1_555 1_555
O25 Mg2_6 1_555 1_555
O29 Mg12 1_555 1_555
Mg10 O14 1_555 1_555
O14 Mg7 1_555 1_555
O18 Mg7 1_555 1_555
O27 Mg2_8 1_555 1_555
C8 O14 1_555 1_555
H8 C8 1_555 1_555
Mg10 O18 1_555 1_555
O27 C8 1_555 1_555
Mg6 O1_2 1_555 1_555
Mg2_9 O6_2 1_555 1_555
Mg9 O1_2 1_555 1_555
O1_2 C1_2 1_555 1_555
O5_2 Mg6 1_555 1_555
O6_2 Mg6 1_555 1_555
O7_2 Mg2_9 1_555 1_555
O8_2 Mg2_9 1_555 1_555
O11_2 Mg14 1_555 1_555
C1_2 O7_2 1_555 1_555
H1_2 C1_2 1_555 1_555
C2_2 O15 1_555 1_555
H2_2 C2_2 1_555 1_555
C5_2 O5_2 1_555 1_555
H5_2 C5_2 1_555 1_555
C6_2 O6_2 1_555 1_555
H6_2 C6_2 1_555 1_555
Mg5 O13_2 1_555 1_555
Mg10 O13_2 1_555 1_555
Mg14_2 O22 1_555 1_555
O13_2 C7_2 1_555 1_555
O16 Mg5 1_555 1_555
O19 Mg5 1_555 1_555
O22 Mg5 1_555 1_555
O24 Mg5 1_555 1_555
O25_2 Mg2_9 1_555 1_555
O26_2 Mg2_9 1_555 1_555
O27_2 Mg2_9 1_555 1_555
O29_2 Mg10 1_555 1_555
O30_2 Mg14 1_555 1_555
O31 Mg14_2 1_555 1_555
O34_2 Mg10 1_555 1_555
C7_2 O26_2 1_555 1_555
H7_2 C7_2 1_555 1_555
C8_2 O16 1_555 1_555
H8_2 C8_2 1_555 1_555
C12_2 O25_2 1_555 1_555
H12_2 C12_2 1_555 1_555
Mg9 O5_2 1_555 1_555
O8_2 C2_2 1_555 1_555
O11_2 C6_2 1_555 1_555
Mg5 O25_2 1_555 1_555
Mg10 O24 1_555 1_555
O27_2 C8_2 1_555 1_555
O31 C12_2 1_555 1_555
O10_2 Mg14_2 1_555 1_555
C11_2 O24 1_555 1_555
H11_2 C11_2 1_555 1_555
O34_2 C9_2 1_555 1_555
C9_2 O19 1_555 1_555
H9_2 C9_2 1_555 1_555
C10_2 O22 1_555 1_555
H10_2 C10_2 1_555 1_555
O29 C10_2 1_555 1_555
O29_2 C4_2 1_555 1_555
C3_2 O18 1_555 1_555
H3_2 C3_2 1_555 1_555
C4_2 O21 1_555 1_555
H4_2 C4_2 1_555 1_555
O34 C3_2 1_555 1_555

#END
