
###############################################################################
#
# This file contains modified crystal structure data generated from the
# MOF subset of the Cambridge Structural Database (CSD) v543 
# hosted by the Cambridge Crystallographic Data Centre (CCDC).
#
# This work is licensed under the Creative Commons
# Attribution-NonCommercial-ShareAlike 4.0 International License.
# To view a copy of this license, visit
# http://creativecommons.org/licenses/by-nc-sa/4.0/
# or send a letter to
# Creative Commons, PO Box 1866, Mountain View, CA 94042, USA.
#
# CIF created using the CSD Python API on 29 September 2022
# The structure has been converted into the P1 space group
# The structure has a 3D framework
# The original CSD entry HIBGIJ is in the monoclinic crystal system
# The framework has been calculated to contain at least 10.0% void space
# The void calculation uses a probe of radius 1.32A, grid spacing 0.4
#
###############################################################################

data_HIBGIJ
_chemical_formula_moiety         '(C24 H24 Mn22 O48)n'
_symmetry_cell_setting           triclinic
_symmetry_space_group_name_H-M   'P 1'
_symmetry_Int_Tables_number      1
_space_group_name_Hall           'P 1'
loop_
_symmetry_equiv_pos_site_id
_symmetry_equiv_pos_as_xyz
1 x,y,z
_cell_length_a                   11.624(1)
_cell_length_b                   10.165(1)
_cell_length_c                   14.738(1)
_cell_angle_alpha                90
_cell_angle_beta                 91.402(1)
_cell_angle_gamma                90
_cell_volume                     1740.89
loop_
_atom_site_label
_atom_site_type_symbol
_atom_site_fract_x
_atom_site_fract_y
_atom_site_fract_z
Mn1 Mn 0.25606(2) 0.08549(2) 0.131719(16)
Mn2 Mn 0.0000 0.0000 0.0000
Mn4 Mn 0.5000 0.0000 0.0000
O1 O 0.12617(10) 0.00177(11) 0.22092(9)
O2 O 0.15316(10) 0.26400(11) 0.10558(8)
O3 O 0.30892(11) 0.20867(11) 0.24736(8)
O4 O 0.39947(10) 0.16327(11) 0.05725(9)
O8 O 0.01873(12) 0.21162(13) 0.00009(9)
O9 O 0.39129(12) 0.38008(12) 0.08571(10)
O12 O 0.31282(12) 0.07675(12) 0.36981(9)
C2 C 0.07406(15) 0.29203(16) 0.04666(12)
H2 H 0.0563 0.3825 0.0380
C3 C 0.33061(15) 0.18332(15) 0.33072(12)
H3 H 0.3634 0.2521 0.3665
C4 C 0.43192(16) 0.28238(17) 0.04680(13)
H4 H 0.4923 0.2977 0.0058
Mn9 Mn 0.26155(2) 0.40075(2) 0.183590(17)
O32 O 0.65189(11) 0.11317(13) 0.03067(10)
Mn2_2 Mn -0.0000 0.0000 1.0000
Mn4_2 Mn 0.5000 0.0000 1.0000
Mn12 Mn 0.76155(2) 0.09925(2) 0.683590(17)
O23 O 0.64788(11) 0.07444(11) 0.80131(9)
O30 O 0.47911(12) 0.09571(14) 0.87011(10)
H7 H 0.0239 0.0224 0.7325
C11 C 0.54638(16) 0.12014(18) 0.80847(13)
H11 H 0.5198 0.1785 0.7621
Mn2_3 Mn 0.0000 1.0000 0.0000
Mn3 Mn 0.23845(2) 0.90075(2) 0.316410(17)
Mn4_3 Mn 0.5000 1.0000 0.0000
O5 O 0.35212(11) 0.92556(11) 0.19869(9)
O6 O 0.18570(10) 0.97174(12) 0.02191(8)
O10 O 0.52089(12) 0.90429(14) 0.12989(10)
C1 C 0.01691(16) 0.99440(17) 0.21366(12)
C5 C 0.45362(16) 0.87986(18) 0.19153(13)
H5 H 0.4802 0.8215 0.2379
Mn6 Mn 0.24394(2) 0.58549(2) 0.368281(16)
Mn14 Mn -0.0000 0.5000 0.5000
O15 O 0.34684(10) 0.76400(11) 0.39442(8)
O17 O 0.19108(11) 0.70867(11) 0.25264(8)
O20 O 0.10053(10) 0.66327(11) 0.44275(9)
O28 O 0.10871(12) 0.88008(12) 0.41429(10)
O33 O 0.18718(12) 0.57675(12) 0.13019(9)
C9 C 0.16939(15) 0.68332(15) 0.16928(12)
H9 H 0.1366 0.7521 0.1335
C10 C 0.06808(16) 0.78238(17) 0.45320(13)
H10 H 0.0077 0.7977 0.4942
Mn2_4 Mn 0.0000 1.0000 1.0000
Mn4_4 Mn 0.5000 1.0000 1.0000
O11 O 0.34811(11) 0.88683(13) 0.96933(10)
C6 C 0.24256(16) 0.89497(17) 0.97060(13)
H6 H 0.1997 0.8398 0.9302
Mn7 Mn 0.74394(2) 0.91451(2) 0.868281(16)
O21 O 0.60053(10) 0.83673(11) 0.94275(9)
O26 O 0.04033(12) 0.99272(15) 0.85731(10)
Mn2_5 Mn 1.0000 0.0000 0.0000
O7 O 0.95967(12) 0.00728(15) 0.14269(10)
C12 C 0.75744(16) 0.10503(17) 0.02940(13)
H12 H 0.8003 0.1602 0.0698
Mn2_6 Mn 1.0000 0.0000 1.0000
O16 O 0.65316(10) 0.23600(11) 0.60558(8)
O19 O 0.80892(11) 0.29133(11) 0.74736(8)
O25 O 0.81430(10) 0.02826(12) 0.97809(8)
O29 O 0.89129(12) 0.11992(12) 0.58571(10)
C7 C 0.98309(16) 0.00560(17) 0.78634(12)
Mn2_7 Mn 1.0000 1.0000 0.0000
H1 H 0.9761 0.9776 0.2675
Mn14_2 Mn 1.0000 0.5000 0.5000
Mn2_8 Mn 1.0000 1.0000 1.0000
Mn10 Mn 0.73845(2) 0.59925(2) 0.816410(17)
O13 O 0.87383(10) 0.99823(11) 0.77908(9)
O14 O 0.84684(10) 0.73600(11) 0.89442(8)
O18 O 0.69108(11) 0.79133(11) 0.75264(8)
O27 O 0.98127(12) 0.78838(13) 0.99991(9)
O34 O 0.68718(12) 0.92325(12) 0.63019(9)
C8 C 0.92594(15) 0.70797(16) 0.95334(12)
H8 H 0.9437 0.6175 0.9620
Mn2_9 Mn 0.5000 0.5000 0.5000
O1_2 O 0.37383(10) 0.50177(11) 0.27908(9)
O5_2 O 0.14788(11) 0.42556(11) 0.30131(9)
O6_2 O 0.31430(10) 0.47174(12) 0.47809(8)
O7_2 O 0.54033(12) 0.50728(15) 0.35731(10)
O8_2 O 0.48127(12) 0.71162(13) 0.49991(9)
O11_2 O 0.15189(11) 0.38683(13) 0.53067(10)
C1_2 C 0.48309(16) 0.49440(17) 0.28634(12)
H1_2 H 0.5239 0.4776 0.2325
C2_2 C 0.42594(15) 0.79203(16) 0.45334(12)
H2_2 H 0.4437 0.8825 0.4620
C5_2 C 0.04638(16) 0.37986(18) 0.30847(13)
H5_2 H 0.0198 0.3215 0.2621
C6_2 C 0.25744(16) 0.39497(17) 0.52940(13)
H6_2 H 0.3003 0.3398 0.5698
Mn5 Mn 0.75606(2) 0.41451(2) 0.631719(16)
O13_2 O 0.62617(10) 0.49823(11) 0.72092(9)
O22 O 0.89947(10) 0.33673(11) 0.55725(9)
O24 O 0.85212(11) 0.57444(11) 0.69869(9)
O25_2 O 0.68570(10) 0.52826(12) 0.52191(8)
O26_2 O 0.45967(12) 0.49272(15) 0.64269(10)
O27_2 O 0.51873(12) 0.28838(13) 0.50009(9)
O29_2 O 0.60871(12) 0.61992(12) 0.91429(10)
O30_2 O 0.02089(12) 0.59571(14) 0.62989(10)
O31 O 0.84811(11) 0.61317(13) 0.46933(10)
O34_2 O 0.81282(12) 0.42325(12) 0.86981(9)
C7_2 C 0.51691(16) 0.50560(17) 0.71366(12)
H7_2 H 0.4761 0.5224 0.7675
C8_2 C 0.57406(15) 0.20797(16) 0.54666(12)
H8_2 H 0.5563 0.1175 0.5380
C12_2 C 0.74256(16) 0.60503(17) 0.47060(13)
H12_2 H 0.6997 0.6602 0.4302
O10_2 O 0.97911(12) 0.40429(14) 0.37011(10)
C11_2 C 0.95362(16) 0.62014(18) 0.69153(13)
H11_2 H 0.9802 0.6785 0.7379
C9_2 C 0.83061(15) 0.31668(15) 0.83072(12)
H9_2 H 0.8634 0.2479 0.8665
C10_2 C 0.93192(16) 0.21762(17) 0.54680(13)
H10_2 H 0.9923 0.2023 0.5058
C3_2 C 0.66939(15) 0.81668(15) 0.66928(12)
H3_2 H 0.6366 0.7479 0.6335
C4_2 C 0.56808(16) 0.71762(17) 0.95320(13)
H4_2 H 0.5077 0.7023 0.9942
loop_
_geom_bond_atom_site_label_1
_geom_bond_atom_site_label_2
_geom_bond_site_symmetry_1
_geom_bond_site_symmetry_2
Mn1 O1 1_555 1_555
Mn4 O4 1_555 1_555
O2 Mn1 1_555 1_555
O3 Mn1 1_555 1_555
O4 Mn1 1_555 1_555
O8 Mn2 1_555 1_555
O9 C4 1_555 1_555
C2 O2 1_555 1_555
H2 C2 1_555 1_555
C3 O3 1_555 1_555
H3 C3 1_555 1_555
C4 O4 1_555 1_555
H4 C4 1_555 1_555
Mn9 O2 1_555 1_555
O32 Mn4 1_555 1_555
O3 Mn9 1_555 1_555
O8 C2 1_555 1_555
O9 Mn9 1_555 1_555
O12 C3 1_555 1_555
Mn12 O23 1_555 1_555
O30 Mn4_2 1_555 1_555
C11 O23 1_555 1_555
H11 C11 1_555 1_555
O30 C11 1_555 1_555
Mn2_3 O6 1_555 1_555
O10 Mn4_3 1_555 1_555
C5 O5 1_555 1_555
H5 C5 1_555 1_555
Mn6 O15 1_555 1_555
Mn9 O33 1_555 1_555
Mn14 O20 1_555 1_555
O15 Mn3 1_555 1_555
O17 Mn3 1_555 1_555
O20 Mn6 1_555 1_555
O28 Mn3 1_555 1_555
O33 C9 1_555 1_555
C9 O17 1_555 1_555
H9 C9 1_555 1_555
C10 O20 1_555 1_555
H10 C10 1_555 1_555
Mn3 O5 1_555 1_555
O10 C5 1_555 1_555
Mn6 O17 1_555 1_555
O28 C10 1_555 1_555
O11 Mn4_4 1_555 1_555
H6 C6 1_555 1_555
Mn7 O21 1_555 1_555
O21 Mn4_4 1_555 1_555
O26 Mn2_4 1_555 1_555
O11 C6 1_555 1_555
O7 Mn2_5 1_555 1_555
H12 C12 1_555 1_555
O32 C12 1_555 1_555
O16 Mn12 1_555 1_555
O19 Mn12 1_555 1_555
O25 Mn2_6 1_555 1_555
O29 Mn12 1_555 1_555
Mn7 O13 1_555 1_555
Mn10 O14 1_555 1_555
O14 Mn7 1_555 1_555
O18 Mn7 1_555 1_555
O27 Mn2_8 1_555 1_555
C8 O14 1_555 1_555
H8 C8 1_555 1_555
Mn10 O18 1_555 1_555
O27 C8 1_555 1_555
Mn6 O1_2 1_555 1_555
Mn2_9 O6_2 1_555 1_555
Mn9 O1_2 1_555 1_555
O1_2 C1_2 1_555 1_555
O5_2 Mn6 1_555 1_555
O6_2 Mn6 1_555 1_555
O7_2 Mn2_9 1_555 1_555
O8_2 Mn2_9 1_555 1_555
O11_2 Mn14 1_555 1_555
C1_2 O7_2 1_555 1_555
H1_2 C1_2 1_555 1_555
C2_2 O15 1_555 1_555
H2_2 C2_2 1_555 1_555
C5_2 O5_2 1_555 1_555
H5_2 C5_2 1_555 1_555
C6_2 O6_2 1_555 1_555
H6_2 C6_2 1_555 1_555
Mn5 O13_2 1_555 1_555
Mn10 O13_2 1_555 1_555
Mn14_2 O22 1_555 1_555
O13_2 C7_2 1_555 1_555
O16 Mn5 1_555 1_555
O19 Mn5 1_555 1_555
O22 Mn5 1_555 1_555
O24 Mn5 1_555 1_555
O25_2 Mn2_9 1_555 1_555
O26_2 Mn2_9 1_555 1_555
O27_2 Mn2_9 1_555 1_555
O29_2 Mn10 1_555 1_555
O30_2 Mn14 1_555 1_555
O31 Mn14_2 1_555 1_555
O34_2 Mn10 1_555 1_555
C7_2 O26_2 1_555 1_555
H7_2 C7_2 1_555 1_555
C8_2 O16 1_555 1_555
H8_2 C8_2 1_555 1_555
C12_2 O25_2 1_555 1_555
H12_2 C12_2 1_555 1_555
Mn9 O5_2 1_555 1_555
O8_2 C2_2 1_555 1_555
O11_2 C6_2 1_555 1_555
Mn5 O25_2 1_555 1_555
Mn10 O24 1_555 1_555
O27_2 C8_2 1_555 1_555
O31 C12_2 1_555 1_555
O10_2 Mn14_2 1_555 1_555
C11_2 O24 1_555 1_555
H11_2 C11_2 1_555 1_555
O34_2 C9_2 1_555 1_555
C9_2 O19 1_555 1_555
H9_2 C9_2 1_555 1_555
C10_2 O22 1_555 1_555
H10_2 C10_2 1_555 1_555
O29 C10_2 1_555 1_555
O29_2 C4_2 1_555 1_555
C3_2 O18 1_555 1_555
H3_2 C3_2 1_555 1_555
C4_2 O21 1_555 1_555
H4_2 C4_2 1_555 1_555
O34 C3_2 1_555 1_555

#END
