
###############################################################################
#
# This file contains modified crystal structure data generated from the
# MOF subset of the Cambridge Structural Database (CSD) v543 
# hosted by the Cambridge Crystallographic Data Centre (CCDC).
#
# This work is licensed under the Creative Commons
# Attribution-NonCommercial-ShareAlike 4.0 International License.
# To view a copy of this license, visit
# http://creativecommons.org/licenses/by-nc-sa/4.0/
# or send a letter to
# Creative Commons, PO Box 1866, Mountain View, CA 94042, USA.
#
# CIF created using the CSD Python API on 29 September 2022
# The structure has been converted into the P1 space group
# The structure has a 3D framework
# The original CSD entry HIBPEQ is in the monoclinic crystal system
# The framework has been calculated to contain at least 10.0% void space
# The void calculation uses a probe of radius 1.32A, grid spacing 0.4
#
###############################################################################

data_HIBPEQ
_chemical_formula_moiety         '(C480 H608 N32 O64 P16 Zn16)n'
_symmetry_cell_setting           triclinic
_symmetry_space_group_name_H-M   'P 1'
_symmetry_Int_Tables_number      1
_space_group_name_Hall           'P 1'
loop_
_symmetry_equiv_pos_site_id
_symmetry_equiv_pos_as_xyz
1 x,y,z
_cell_length_a                   24.323(13)
_cell_length_b                   14.308(7)
_cell_length_c                   43.13(2)
_cell_angle_alpha                90
_cell_angle_beta                 94.1910(10)
_cell_angle_gamma                90
_cell_volume                     14969.7
loop_
_atom_site_label
_atom_site_type_symbol
_atom_site_fract_x
_atom_site_fract_y
_atom_site_fract_z
C53 C 0.0192(5) 0.3033(8) 0.0202(2)
H62 H 0.0455 0.3160 0.0371
H72 H 0.0147 0.3745 0.0803
H74 H 0.0100 0.5066 0.0385
H11 H 0.0360 0.0563 0.8190
H12 H 0.0416 0.0595 0.8776
H60 H 0.0066 0.2011 0.9525
C52 C 0.0339(5) 0.2493(7) 0.9964(3)
H61 H 0.0695 0.2217 0.9971
N5 N 0.0546(4) 0.5754(6) 0.69670(17)
N6 N 0.1249(3) 0.4831(5) 0.59436(15)
H6 H 0.0123 0.8786 0.7998
C15 C 0.0381(6) 0.9971(10) 0.8683(3)
H13 H 0.0696 0.9852 0.8559
H14 H 0.0374 0.9501 0.8848
C91 C 0.1259(4) 0.5761(6) 0.59662(18)
H115 H 0.1418 0.6112 0.5808
C92 C 0.1047(5) 0.6238(7) 0.6213(2)
H116 H 0.1059 0.6900 0.6226
C93 C 0.0809(5) 0.5692(7) 0.6447(2)
C94 C 0.0805(4) 0.4755(6) 0.6420(2)
H117 H 0.0663 0.4383 0.6578
C95 C 0.1006(4) 0.4337(7) 0.6166(2)
H118 H 0.0974 0.3678 0.6144
C96 C 0.0621(4) 0.6206(7) 0.6719(2)
H119 H 0.0557 0.6860 0.6708
C97 C 0.0335(5) 0.6238(8) 0.7228(2)
C101 C 0.0482(5) 0.7239(7) 0.7672(2)
H121 H 0.0710 0.7654 0.7796
C102 C 0.0706(5) 0.6788(7) 0.7423(2)
C106 C 0.1316(5) 0.6891(9) 0.7365(2)
H129 H 0.1395 0.6454 0.7193
C107 C 0.1696(5) 0.6631(9) 0.7648(3)
H130 H 0.1646 0.7078 0.7816
H131 H 0.1606 0.6001 0.7717
H132 H 0.2080 0.6648 0.7593
C108 C 0.1428(7) 0.7901(10) 0.7253(3)
H133 H 0.1298 0.8351 0.7403
H134 H 0.1824 0.7985 0.7236
H135 H 0.1231 0.8003 0.7049
Zn6 Zn 0.16888(4) 0.41474(7) 0.56361(2)
N4 N 0.3428(3) 0.1392(5) 0.61566(16)
C31 C 0.3804(4) 0.1778(7) 0.6360(2)
H39 H 0.3859 0.2434 0.6350
C32 C 0.4114(5) 0.1278(7) 0.6582(2)
H40 H 0.4368 0.1590 0.6724
C33 C 0.4052(4) 0.0306(6) 0.6598(2)
C35 C 0.3349(5) 0.0445(7) 0.6175(2)
H42 H 0.3079 0.0161 0.6035
Zn5 Zn 0.30007(5) 0.21643(7) 0.58229(2)
Zn1 Zn 0.31158(5) 0.43019(7) 0.51240(2)
Zn3 Zn 0.19785(5) 0.18926(7) 0.49879(2)
P1 P 0.29782(10) 0.43690(16) 0.58458(5)
P2 P 0.32622(11) 0.20734(17) 0.51141(5)
P3 P 0.18392(11) 0.41870(17) 0.49328(5)
P4 P 0.17216(11) 0.18511(17) 0.56781(5)
O1 O 0.3325(3) 0.4461(4) 0.55673(13)
O2 O 0.3036(2) 0.3392(4) 0.59935(13)
O3 O 0.3423(3) 0.2083(4) 0.54643(12)
O4 O 0.3267(3) 0.3058(4) 0.49740(13)
O5 O 0.2381(3) 0.4711(4) 0.49707(13)
O6 O 0.2385(2) 0.4700(4) 0.57680(12)
O7 O 0.2299(3) 0.1539(4) 0.57851(13)
O8 O 0.2746(3) 0.1517(4) 0.50205(13)
O9 O 0.1891(3) 0.3159(4) 0.48500(13)
O10 O 0.1489(2) 0.4372(4) 0.51998(12)
O11 O 0.1611(3) 0.2859(4) 0.57591(12)
O12 O 0.1572(3) 0.1578(4) 0.53417(12)
O13 O 0.3263(3) 0.5066(4) 0.61130(12)
O14 O 0.3730(3) 0.1471(4) 0.49566(12)
O15 O 0.1519(3) 0.4680(4) 0.46330(12)
O16 O 0.1308(3) 0.1228(4) 0.58649(12)
N1 N 0.3592(4) 0.5096(5) 0.48569(16)
N2 N 0.4158(4) 0.6272(6) 0.38434(18)
N3 N 0.1655(4) 0.1195(5) 0.46030(16)
N5_2 N 0.5546(4) 0.9246(6) 0.19670(17)
N7 N 0.1136(5) 0.0042(8) 0.3516(2)
C1 C 0.4139(5) 0.4993(8) 0.4853(2)
H1 H 0.4336 0.4652 0.5014
C2 C 0.4420(4) 0.5380(8) 0.4615(2)
H2 H 0.4809 0.5310 0.4619
C3 C 0.4147(5) 0.5865(7) 0.4376(2)
C4 C 0.3589(6) 0.5995(9) 0.4395(3)
H3 H 0.3385 0.6352 0.4241
C5 C 0.3322(5) 0.5615(9) 0.4636(2)
H4 H 0.2938 0.5722 0.4646
C6 C 0.4405(4) 0.6240(7) 0.4109(2)
H5 H 0.4772 0.6469 0.4136
C7 C 0.4397(4) 0.6663(7) 0.3576(2)
C8 C 0.4708(4) 0.6107(7) 0.3384(2)
C9 C 0.4890(4) 0.6552(7) 0.31252(19)
H6_2 H 0.5123 0.6214 0.2998
C10 C 0.4752(5) 0.7458(8) 0.3041(2)
C11 C 0.4430(5) 0.7992(7) 0.3232(2)
H7 H 0.4328 0.8613 0.3174
C12 C 0.4258(4) 0.7614(7) 0.3507(2)
C13 C 0.4833(5) 0.5086(8) 0.3468(2)
H8 H 0.4521 0.4807 0.3576
C14 C 0.4959(8) 0.4499(9) 0.3196(3)
H9 H 0.4795 0.3878 0.3215
H10 H 0.4807 0.4797 0.3004
H11_2 H 0.5360 0.4437 0.3190
C15_2 C 0.5381(6) 0.5029(10) 0.3683(3)
H12_2 H 0.5416 0.4405 0.3776
H13_2 H 0.5696 0.5148 0.3559
H14_2 H 0.5374 0.5499 0.3848
C16 C 0.3886(4) 0.8168(7) 0.3724(2)
H15 H 0.4002 0.7996 0.3944
C17 C 0.3955(6) 0.9230(8) 0.3692(3)
H16 H 0.3819 0.9424 0.3482
H17 H 0.3745 0.9550 0.3845
H18 H 0.4346 0.9393 0.3727
C18 C 0.3299(5) 0.7880(10) 0.3661(3)
H19 H 0.3176 0.8032 0.3445
H20 H 0.3265 0.7206 0.3694
H21 H 0.3069 0.8215 0.3802
C19 C 0.2992(4) 0.5844(6) 0.62409(19)
C20 C 0.3068(4) 0.6705(6) 0.6113(2)
C21 C 0.2833(4) 0.7456(6) 0.6248(2)
H22 H 0.2894 0.8067 0.6171
C22 C 0.2498(4) 0.7332(7) 0.6502(2)
H23 H 0.2314 0.7853 0.6583
C23 C 0.2441(4) 0.6461(7) 0.6628(2)
H24 H 0.2238 0.6390 0.6807
C24 C 0.2680(4) 0.5673(6) 0.64983(19)
C25 C 0.3430(4) 0.6823(7) 0.5836(2)
H25 H 0.3671 0.6260 0.5827
C26 C 0.3050(5) 0.6878(8) 0.5523(2)
H26 H 0.2784 0.7389 0.5537
H27 H 0.3278 0.6994 0.5349
H28 H 0.2851 0.6286 0.5490
C27 C 0.3788(5) 0.7664(9) 0.5858(3)
H29 H 0.3558 0.8227 0.5862
H30 H 0.4031 0.7634 0.6050
H31 H 0.4012 0.7688 0.5678
C28 C 0.2646(5) 0.4667(7) 0.6628(2)
H32 H 0.2542 0.4245 0.6449
C29 C 0.3183(5) 0.4329(8) 0.6776(2)
H33 H 0.3482 0.4528 0.6651
H34 H 0.3241 0.4593 0.6986
H35 H 0.3178 0.3646 0.6789
C30 C 0.2178(6) 0.4593(8) 0.6860(3)
H36 H 0.2101 0.3933 0.6900
H37 H 0.2298 0.4903 0.7056
H38 H 0.1843 0.4896 0.6769
C49 C 0.4276(5) 0.1814(7) 0.4960(2)
C50 C 0.4415(4) 0.2339(7) 0.4694(2)
C51 C 0.4950(5) 0.2659(7) 0.4700(2)
H60_2 H 0.5066 0.2989 0.4525
C52_2 C 0.5339(5) 0.2507(7) 0.4964(3)
H61_2 H 0.5695 0.2783 0.4971
C53_2 C 0.5192(5) 0.1967(8) 0.5202(2)
H62_2 H 0.5455 0.1840 0.5371
C54 C 0.4659(4) 0.1591(7) 0.5206(2)
C55 C 0.4030(5) 0.2407(7) 0.4414(2)
H63 H 0.3665 0.2596 0.4487
C56 C 0.3940(6) 0.1453(8) 0.4248(3)
H64 H 0.3846 0.0979 0.4399
H65 H 0.3639 0.1507 0.4085
H66 H 0.4279 0.1269 0.4154
C57 C 0.4180(6) 0.3141(7) 0.4179(2)
H67 H 0.4217 0.3752 0.4281
H68 H 0.4530 0.2972 0.4094
H69 H 0.3889 0.3172 0.4009
C58 C 0.4509(4) 0.0911(7) 0.5470(2)
H70 H 0.4098 0.0897 0.5471
C59 C 0.4743(6) 0.1279(9) 0.5792(2)
H71 H 0.4607 0.0888 0.5956
H72_2 H 0.5147 0.1255 0.5803
H73 H 0.4622 0.1925 0.5819
C61 C 0.1558(4) 0.0288(8) 0.4608(2)
C63 C 0.1338(5) 0.0216(8) 0.4062(2)
C64 C 0.1447(6) 0.1166(8) 0.4049(2)
H79 H 0.1414 0.1492 0.3857
C65 C 0.1605(5) 0.1627(8) 0.4326(2)
H80 H 0.1681 0.2278 0.4318
C73 C 0.0169(7) 0.0767(9) 0.3192(3)
H87 H 0.0104 0.0568 0.3661
C75 C 0.0327(8) 0.1606(10) 0.3062(4)
H88 H 0.0148 0.1668 0.2852
H89 H 0.0217 0.2128 0.3191
H90 H 0.0728 0.1613 0.3051
C79 C 0.1254(6) 0.4179(7) 0.4375(2)
C80 C 0.0725(6) 0.3788(9) 0.4391(3)
C81 C 0.0491(8) 0.3382(9) 0.4115(4)
H98 H 0.0124 0.3151 0.4104
C82 C 0.0819(10) 0.3318(11) 0.3842(4)
H99 H 0.0676 0.2990 0.3662
C83 C 0.1309(9) 0.3712(10) 0.3843(3)
H100 H 0.1490 0.3710 0.3655
C84 C 0.1578(7) 0.4129(8) 0.4104(2)
C85 C 0.0426(6) 0.3863(9) 0.4675(3)
H101 H 0.0652 0.4266 0.4824
C86 C 0.0337(8) 0.2960(14) 0.4834(6)
H102 H 0.0242 0.3080 0.5047
H103 H 0.0036 0.2618 0.4721
H104 H 0.0676 0.2587 0.4838
C88 C 0.2154(8) 0.4531(9) 0.4117(3)
H108 H 0.2199 0.4952 0.4302
C89 C 0.2632(7) 0.3775(11) 0.4148(4)
H109 H 0.2581 0.3371 0.4327
H110 H 0.2621 0.3395 0.3959
H111 H 0.2989 0.4092 0.4178
C90 C 0.2249(11) 0.5139(13) 0.3817(4)
H112 H 0.2345 0.4726 0.3648
H113 H 0.1911 0.5482 0.3753
H114 H 0.2551 0.5582 0.3865
C91_2 C 0.6259(4) 0.9239(6) 0.09662(18)
H115_2 H 0.6418 0.8888 0.0808
C92_2 C 0.6047(5) 0.8762(7) 0.1213(2)
H116_2 H 0.6059 0.8100 0.1226
C93_2 C 0.5809(5) 0.9308(7) 0.1447(2)
C96_2 C 0.5621(4) 0.8794(7) 0.1719(2)
H119_2 H 0.5557 0.8140 0.1708
C97_2 C 0.5335(5) 0.8762(8) 0.2228(2)
C98 C 0.4791(5) 0.8935(8) 0.2299(2)
C99 C 0.4608(4) 0.8463(7) 0.25638(19)
H120 H 0.4239 0.8547 0.2617
C100 C 0.4955(5) 0.7886(7) 0.2746(2)
C101_2 C 0.5482(5) 0.7761(7) 0.2672(2)
H121_2 H 0.5710 0.7346 0.2796
C102_2 C 0.5706(5) 0.8212(7) 0.2423(2)
C103 C 0.4421(6) 0.9555(8) 0.2075(2)
H122 H 0.4517 0.9401 0.1859
C104 C 0.3795(6) 0.9344(11) 0.2088(3)
H123 H 0.3735 0.8668 0.2075
H124 H 0.3588 0.9652 0.1913
H125 H 0.3669 0.9581 0.2284
C106_2 C 0.6316(5) 0.8109(9) 0.2365(2)
H129_2 H 0.6395 0.8546 0.2193
C107_2 C 0.6696(5) 0.8369(9) 0.2648(3)
H130_2 H 0.6646 0.7922 0.2816
H131_2 H 0.6606 0.8999 0.2717
H132_2 H 0.7080 0.8352 0.2593
C108_2 C 0.6428(7) 0.7099(10) 0.2253(3)
H133_2 H 0.6298 0.6649 0.2403
H134_2 H 0.6824 0.7015 0.2236
H135_2 H 0.6231 0.6997 0.2049
C109 C 0.1031(4) 0.1561(7) 0.6123(2)
C110 C 0.0503(5) 0.1961(7) 0.6064(2)
C111 C 0.0238(5) 0.2258(8) 0.6327(4)
C112 C 0.0474(6) 0.2161(8) 0.6633(3)
H137 H 0.0288 0.2373 0.6806
C113 C 0.0989(5) 0.1745(8) 0.6671(3)
H138 H 0.1151 0.1657 0.6876
C114 C 0.1282(5) 0.1446(7) 0.6420(2)
C115 C 0.0234(8) 0.2044(15) 0.5731(4)
H139 H 0.0523 0.2218 0.5588
H143 H 0.0178 0.0678 0.5645
C118 C 0.1852(5) 0.1001(8) 0.6481(2)
H146 H 0.1984 0.0799 0.6278
C119 C 0.1815(7) 0.0127(11) 0.6691(3)
H147 H 0.1597 0.0277 0.6867
C120 C 0.2284(5) 0.1732(10) 0.6637(3)
H150 H 0.2271 0.2310 0.6515
H151 H 0.2190 0.1869 0.6849
H152 H 0.2656 0.1466 0.6643
Zn1_2 Zn 0.81158(5) 0.06981(7) 0.01240(2)
Zn2 Zn 0.80007(5) 0.28357(7) 0.08229(2)
Zn4 Zn 0.66888(4) 0.08526(7) 0.06361(2)
P1_2 P 0.79782(10) 0.06310(16) 0.08458(5)
P2_2 P 0.82622(11) 0.29266(17) 0.01141(5)
P4_2 P 0.67216(11) 0.31489(17) 0.06781(5)
O1_2 O 0.8325(3) 0.0539(4) 0.05673(13)
O2_2 O 0.8036(2) 0.1608(4) 0.09935(13)
O3_2 O 0.8423(3) 0.2917(4) 0.04643(12)
O6_2 O 0.7385(2) 0.0300(4) 0.07680(12)
O7_2 O 0.7299(3) 0.3461(4) 0.07851(13)
O8_2 O 0.7746(3) 0.3483(4) 0.00205(13)
O10_2 O 0.6489(2) 0.0628(4) 0.01998(12)
O11_2 O 0.6611(3) 0.2141(4) 0.07591(12)
O12_2 O 0.6572(3) 0.3422(4) 0.03417(12)
O16_2 O 0.6308(3) 0.3772(4) 0.08649(12)
H1_2 H 0.9336 0.0348 0.0014
C28_2 C 0.7646(5) 0.0333(7) 0.1628(2)
H32_2 H 0.7542 0.0755 0.1449
C29_2 C 0.8183(5) 0.0671(8) 0.1776(2)
H33_2 H 0.8482 0.0472 0.1651
H34_2 H 0.8241 0.0407 0.1986
H35_2 H 0.8178 0.1354 0.1789
C30_2 C 0.7178(6) 0.0407(8) 0.1860(3)
H36_2 H 0.7101 0.1067 0.1900
H37_2 H 0.7298 0.0097 0.2056
H38_2 H 0.6843 0.0104 0.1769
C54_2 C 0.9659(4) 0.3409(7) 0.0206(2)
C58_2 C 0.9509(4) 0.4089(7) 0.0470(2)
H70_2 H 0.9098 0.4103 0.0471
C59_2 C 0.9743(6) 0.3721(9) 0.0792(2)
H71_2 H 0.9607 0.4112 0.0956
H73_2 H 0.9622 0.3075 0.0819
C60 C 0.9700(5) 0.5066(7) 0.0399(3)
H75 H 0.9605 0.5492 0.0565
H76 H 0.9519 0.5275 0.0201
H102_2 H 0.5242 0.1920 0.0047
C109_2 C 0.6031(4) 0.3439(7) 0.1123(2)
C110_2 C 0.5503(5) 0.3039(7) 0.1064(2)
C111_2 C 0.5238(5) 0.2742(8) 0.1327(4)
H136 H 0.4883 0.2463 0.1297
C112_2 C 0.5474(6) 0.2839(8) 0.1633(3)
H137_2 H 0.5288 0.2627 0.1806
C113_2 C 0.5989(5) 0.3255(8) 0.1671(3)
H138_2 H 0.6151 0.3343 0.1876
C114_2 C 0.6282(5) 0.3554(7) 0.1420(2)
C115_2 C 0.5234(8) 0.2956(15) 0.0731(4)
H139_2 H 0.5523 0.2782 0.0588
C116 C 0.4789(8) 0.2128(14) 0.0733(4)
H140 H 0.4879 0.1647 0.0583
H141 H 0.4421 0.2378 0.0676
H142 H 0.4797 0.1853 0.0941
C117 C 0.4945(8) 0.3768(14) 0.0609(4)
H143_2 H 0.5178 0.4322 0.0645
H144 H 0.4603 0.3847 0.0713
H145 H 0.4857 0.3688 0.0385
C118_2 C 0.6852(5) 0.3999(8) 0.1481(2)
H146_2 H 0.6984 0.4201 0.1278
C119_2 C 0.6815(7) 0.4873(11) 0.1691(3)
H147_2 H 0.6597 0.4723 0.1867
H148 H 0.6638 0.5384 0.1570
H149 H 0.7186 0.5064 0.1769
C120_2 C 0.7284(5) 0.3268(10) 0.1637(3)
H150_2 H 0.7271 0.2690 0.1515
H151_2 H 0.7190 0.3131 0.1849
H152_2 H 0.7656 0.3534 0.1643
N9 N 0.8428(3) 0.3608(5) 0.11566(16)
N10 N 0.6249(3) 0.0169(5) 0.09436(15)
C94_2 C 0.5805(4) 0.0245(6) 0.1420(2)
H117_2 H 0.5663 0.0617 0.1578
C95_2 C 0.6006(4) 0.0663(7) 0.1166(2)
H118_2 H 0.5974 0.1322 0.1144
C105 C 0.4543(6) 0.0570(8) 0.2124(3)
H126 H 0.4469 0.0746 0.2336
H127 H 0.4309 0.0940 0.1976
H128 H 0.4932 0.0689 0.2092
N8 N 0.9308(4) 0.6161(6) 0.18212(16)
C31_2 C 0.8804(4) 0.3222(7) 0.1360(2)
H39_2 H 0.8859 0.2566 0.1350
C32_2 C 0.9114(5) 0.3722(7) 0.1582(2)
H40_2 H 0.9368 0.3410 0.1724
C33_2 C 0.9052(4) 0.4694(6) 0.1598(2)
C34 C 0.8644(4) 0.5119(7) 0.1390(2)
H41 H 0.8576 0.5772 0.1398
C35_2 C 0.8349(5) 0.4555(7) 0.1175(2)
H42_2 H 0.8079 0.4839 0.1035
C36 C 0.9341(5) 0.5301(7) 0.1830(2)
H43 H 0.9563 0.5020 0.1995
C37 C 0.9612(5) 0.6748(7) 0.20517(19)
C41 C 0.9573(4) 0.7840(7) 0.24662(19)
H45 H 0.9363 0.8167 0.2608
C42 C 0.9301(4) 0.7278(7) 0.22442(19)
C46 C 0.8649(5) 0.7137(9) 0.2228(2)
H53 H 0.8521 0.6980 0.2008
C47 C 0.8367(5) 0.8029(10) 0.2315(3)
H54 H 0.8446 0.8148 0.2538
H55 H 0.7968 0.7966 0.2270
H56 H 0.8504 0.8550 0.2196
C48 C 0.8507(7) 0.6313(12) 0.2435(4)
H57 H 0.8110 0.6313 0.2461
H58 H 0.8711 0.6374 0.2639
H59 H 0.8610 0.5725 0.2338
H82 H 0.9884 0.9606 0.2729
Zn3_2 Zn 0.69785(5) 0.31074(7) 0.99879(2)
P3_2 P 0.68392(11) 0.08130(17) 0.99328(5)
O4_2 O 0.8267(3) 0.1942(4) 0.99740(13)
O5_2 O 0.7381(3) 0.0289(4) 0.99707(13)
O9_2 O 0.6891(3) 0.1841(4) 0.98500(13)
O14_2 O 0.8730(3) 0.3529(4) 0.99566(12)
O15_2 O 0.6519(3) 0.0320(4) 0.96330(12)
N3_2 N 0.6655(4) 0.3805(5) 0.96030(16)
N7_2 N 0.6136(5) 0.4958(8) 0.8516(2)
N8_2 N 0.4308(4) 0.8839(6) 0.68212(16)
C1_2 C 0.9139(5) 0.0007(8) 0.9853(2)
H8_2 H 0.9521 0.0193 0.8576
C14_2 C 0.9959(8) 0.0501(9) 0.8196(3)
H9_2 H 0.9795 0.1122 0.8215
H10_2 H 0.9807 0.0203 0.8004
C34_2 C 0.3644(4) 0.9881(7) 0.6390(2)
H41_2 H 0.3576 0.9228 0.6398
C36_2 C 0.4341(5) 0.9699(7) 0.6830(2)
H43_2 H 0.4563 0.9980 0.6995
C37_2 C 0.4612(5) 0.8252(7) 0.70517(19)
C38 C 0.5204(5) 0.8196(7) 0.7057(2)
C39 C 0.5445(5) 0.7564(7) 0.7280(2)
H44 H 0.5833 0.7477 0.7290
C40 C 0.5139(5) 0.7055(7) 0.7490(2)
C41_2 C 0.4573(4) 0.7160(7) 0.74662(19)
H45_2 H 0.4363 0.6833 0.7608
C42_2 C 0.4301(4) 0.7722(7) 0.72442(19)
C43 C 0.5538(7) 0.8677(9) 0.6841(3)
H46 H 0.5317 0.9184 0.6732
C44 C 0.6055(8) 0.9073(17) 0.6994(4)
H47 H 0.6287 0.8566 0.7083
H48 H 0.6254 0.9415 0.6841
H49 H 0.5963 0.9501 0.7160
C45 C 0.5756(9) 0.8065(13) 0.6619(4)
H50 H 0.5454 0.7728 0.6506
H51 H 0.5957 0.8432 0.6472
H52 H 0.6008 0.7617 0.6726
C46_2 C 0.3649(5) 0.7863(9) 0.7228(2)
H53_2 H 0.3521 0.8020 0.7008
C47_2 C 0.3367(5) 0.6971(10) 0.7315(3)
H54_2 H 0.3446 0.6852 0.7538
H55_2 H 0.2968 0.7034 0.7270
H56_2 H 0.3504 0.6450 0.7196
C48_2 C 0.3507(7) 0.8687(12) 0.7435(4)
H57_2 H 0.3110 0.8687 0.7461
H58_2 H 0.3711 0.8626 0.7639
H59_2 H 0.3610 0.9275 0.7338
C49_2 C 0.9276(5) 0.3186(7) 0.9960(2)
C50_2 C 0.9415(4) 0.2661(7) 0.9694(2)
C51_2 C 0.9950(5) 0.2341(7) 0.9700(2)
C55_2 C 0.9030(5) 0.2593(7) 0.9414(2)
H63_2 H 0.8665 0.2404 0.9487
C56_2 C 0.8940(6) 0.3547(8) 0.9248(3)
H64_2 H 0.8846 0.4021 0.9399
H65_2 H 0.8639 0.3493 0.9085
H66_2 H 0.9279 0.3731 0.9154
C57_2 C 0.9180(6) 0.1859(7) 0.9179(2)
H67_2 H 0.9217 0.1248 0.9281
H68_2 H 0.9530 0.2028 0.9094
H69_2 H 0.8889 0.1828 0.9009
C61_2 C 0.6558(4) 0.4712(8) 0.9608(2)
H77 H 0.6594 0.5024 0.9803
C62 C 0.6409(5) 0.5230(9) 0.9346(2)
H78 H 0.6355 0.5886 0.9361
C63_2 C 0.6338(5) 0.4784(8) 0.9062(2)
C64_2 C 0.6447(6) 0.3834(8) 0.9049(2)
H79_2 H 0.6414 0.3508 0.8857
C65_2 C 0.6605(5) 0.3373(8) 0.9326(2)
H80_2 H 0.6681 0.2722 0.9318
C66 C 0.6157(5) 0.5337(9) 0.8773(2)
H81 H 0.6060 0.5977 0.8790
C67 C 0.5902(5) 0.5486(8) 0.8240(3)
C68 C 0.5432(4) 0.5148(7) 0.8094(2)
C69 C 0.5203(5) 0.5635(7) 0.7842(2)
H82_2 H 0.4884 0.5394 0.7729
C70 C 0.5433(4) 0.6492(6) 0.7748(2)
C71 C 0.5926(5) 0.6792(8) 0.7888(2)
H83 H 0.6098 0.7342 0.7819
C72 C 0.6171(5) 0.6275(8) 0.8136(3)
C73_2 C 0.5169(7) 0.4233(9) 0.8192(3)
H84 H 0.4835 0.4307 0.8045
C74 C 0.4849(7) 0.4307(10) 0.8479(4)
H85 H 0.4654 0.3719 0.8510
H86 H 0.4582 0.4818 0.8453
H87_2 H 0.5104 0.4432 0.8661
C75_2 C 0.5327(8) 0.3394(10) 0.8062(4)
H88_2 H 0.5148 0.3332 0.7852
H89_2 H 0.5217 0.2872 0.8191
H90_2 H 0.5728 0.3387 0.8051
C76 C 0.6752(6) 0.6544(13) 0.8274(4)
H91 H 0.6877 0.6087 0.8440
C77 C 0.6743(7) 0.7505(12) 0.8409(4)
H92 H 0.7114 0.7670 0.8496
H93 H 0.6624 0.7953 0.8246
H94 H 0.6486 0.7522 0.8574
C78 C 0.7163(7) 0.6515(14) 0.8002(4)
H95 H 0.7167 0.5883 0.7914
H96 H 0.7039 0.6960 0.7839
H97 H 0.7535 0.6683 0.8086
C79_2 C 0.6254(6) 0.0821(7) 0.9375(2)
C80_2 C 0.5725(6) 0.1212(9) 0.9391(3)
C81_2 C 0.5491(8) 0.1618(9) 0.9115(4)
H98_2 H 0.5124 0.1849 0.9104
C82_2 C 0.5819(10) 0.1682(11) 0.8842(4)
H99_2 H 0.5676 0.2010 0.8662
C83_2 C 0.6309(9) 0.1288(10) 0.8843(3)
H100_2 H 0.6490 0.1290 0.8655
C84_2 C 0.6578(7) 0.0871(8) 0.9104(2)
C85_2 C 0.5426(6) 0.1137(9) 0.9675(3)
H101_2 H 0.5652 0.0734 0.9824
C86_2 C 0.5337(8) 0.2040(14) 0.9834(6)
H103_2 H 0.5036 0.2382 0.9721
H104_2 H 0.5676 0.2413 0.9838
C87 C 0.4864(7) 0.0694(11) 0.9628(4)
H105 H 0.4633 0.1061 0.9478
H106 H 0.4693 0.0677 0.9827
H107 H 0.4900 0.0055 0.9550
C88_2 C 0.7154(8) 0.0469(9) 0.9117(3)
H108_2 H 0.7199 0.0048 0.9302
C89_2 C 0.7632(7) 0.1225(11) 0.9148(4)
H109_2 H 0.7581 0.1629 0.9327
H110_2 H 0.7621 0.1605 0.8959
H111_2 H 0.7989 0.0908 0.9178
H112_2 H 0.7345 0.0274 0.8648
O13_2 O 0.8263(3) 0.9934(4) 0.11130(12)
C19_2 C 0.7992(4) 0.9156(6) 0.12409(19)
C20_2 C 0.8068(4) 0.8295(6) 0.1113(2)
C21_2 C 0.7833(4) 0.7544(6) 0.1248(2)
H22_2 H 0.7894 0.6933 0.1171
C22_2 C 0.7498(4) 0.7668(7) 0.1502(2)
H23_2 H 0.7314 0.7147 0.1583
C23_2 C 0.7441(4) 0.8539(7) 0.1628(2)
H24_2 H 0.7238 0.8610 0.1807
C24_2 C 0.7680(4) 0.9327(6) 0.14983(19)
C25_2 C 0.8430(4) 0.8177(7) 0.0836(2)
H25_2 H 0.8671 0.8740 0.0827
C26_2 C 0.8050(5) 0.8122(8) 0.0523(2)
H26_2 H 0.7784 0.7611 0.0537
H27_2 H 0.8278 0.8006 0.0349
H28_2 H 0.7851 0.8714 0.0490
C27_2 C 0.8788(5) 0.7336(9) 0.0858(3)
H29_2 H 0.8558 0.6773 0.0862
H30_2 H 0.9031 0.7366 0.1050
H31_2 H 0.9012 0.7312 0.0678
N1_2 N 0.8592(4) 0.9904(5) 0.98569(16)
N2_2 N 0.9158(4) 0.8728(6) 0.88434(18)
C2_2 C 0.9420(4) 0.9620(8) 0.9615(2)
H2_2 H 0.9809 0.9690 0.9619
C3_2 C 0.9147(5) 0.9135(7) 0.9376(2)
C4_2 C 0.8589(6) 0.9005(9) 0.9395(3)
H3_2 H 0.8385 0.8648 0.9241
C5_2 C 0.8322(5) 0.9385(9) 0.9636(2)
H4_2 H 0.7938 0.9278 0.9646
C6_2 C 0.9405(4) 0.8760(7) 0.9109(2)
H5_2 H 0.9772 0.8531 0.9136
C7_2 C 0.9397(4) 0.8337(7) 0.8576(2)
C8_2 C 0.9708(4) 0.8893(7) 0.8384(2)
C9_2 C 0.9890(4) 0.8448(7) 0.81252(19)
C10_2 C 0.9752(5) 0.7542(8) 0.8041(2)
C11_2 C 0.9430(5) 0.7008(7) 0.8232(2)
H7_2 H 0.9328 0.6387 0.8174
C12_2 C 0.9258(4) 0.7386(7) 0.8507(2)
C13_2 C 0.9833(5) 0.9914(8) 0.8468(2)
C16_2 C 0.8886(4) 0.6832(7) 0.8724(2)
H15_2 H 0.9002 0.7004 0.8944
C17_2 C 0.8955(6) 0.5770(8) 0.8692(3)
H16_2 H 0.8819 0.5576 0.8482
H17_2 H 0.8745 0.5450 0.8845
H18_2 H 0.9346 0.5607 0.8727
C18_2 C 0.8299(5) 0.7120(10) 0.8661(3)
H19_2 H 0.8176 0.6968 0.8445
H20_2 H 0.8265 0.7794 0.8694
H21_2 H 0.8069 0.6785 0.8802
C90_2 C 0.7249(11) 0.9861(13) 0.8817(4)
H113_2 H 0.6911 0.9518 0.8753
H114_2 H 0.7551 0.9418 0.8865
C98_2 C 0.9791(5) 0.6065(8) 0.7299(2)
C99_2 C 0.9608(4) 0.6537(7) 0.75638(19)
H120_2 H 0.9239 0.6453 0.7617
C100_2 C 0.9955(5) 0.7114(7) 0.7746(2)
C103_2 C 0.9421(6) 0.5445(8) 0.7075(2)
H122_2 H 0.9517 0.5599 0.6859
C104_2 C 0.8795(6) 0.5656(11) 0.7088(3)
H123_2 H 0.8735 0.6332 0.7075
H124_2 H 0.8588 0.5348 0.6913
H125_2 H 0.8669 0.5419 0.7284
C105_2 C 0.9543(6) 0.4430(8) 0.7124(3)
H126_2 H 0.9469 0.4254 0.7336
H127_2 H 0.9309 0.4060 0.6976
H128_2 H 0.9932 0.4311 0.7092
N4_2 N 0.1572(3) 0.6392(5) 0.88434(16)
N8_3 N 0.0692(4) 0.3839(6) 0.81788(16)
C31_3 C 0.1196(4) 0.6778(7) 0.8640(2)
H39_3 H 0.1141 0.7434 0.8650
C32_3 C 0.0886(5) 0.6278(7) 0.8418(2)
H40_3 H 0.0632 0.6590 0.8276
C33_3 C 0.0948(4) 0.5306(6) 0.8402(2)
C34_3 C 0.1356(4) 0.4881(7) 0.8610(2)
H41_3 H 0.1424 0.4228 0.8602
C35_3 C 0.1651(5) 0.5445(7) 0.8825(2)
H42_3 H 0.1921 0.5161 0.8965
C36_3 C 0.0659(5) 0.4699(7) 0.8170(2)
H43_3 H 0.0437 0.4980 0.8005
C37_3 C 0.0388(5) 0.3252(7) 0.79483(19)
C41_3 C 0.0427(4) 0.2160(7) 0.75338(19)
H45_3 H 0.0637 0.1833 0.7392
C42_3 C 0.0699(4) 0.2722(7) 0.77558(19)
C46_3 C 0.1351(5) 0.2863(9) 0.7772(2)
H53_3 H 0.1479 0.3020 0.7992
C47_3 C 0.1633(5) 0.1971(10) 0.7685(3)
H54_3 H 0.1554 0.1852 0.7462
H55_3 H 0.2032 0.2034 0.7730
H56_3 H 0.1496 0.1450 0.7804
C48_3 C 0.1493(7) 0.3687(12) 0.7565(4)
H57_3 H 0.1890 0.3687 0.7539
H58_3 H 0.1289 0.3626 0.7361
H59_3 H 0.1390 0.4275 0.7662
H82_3 H 0.0116 0.0394 0.7271
Zn5_2 Zn 0.19993(5) 0.71643(7) 0.91771(2)
N6_2 N 0.3751(3) 0.9831(5) 0.90564(15)
C94_3 C 0.4195(4) 0.9755(6) 0.8580(2)
H117_3 H 0.4337 0.9383 0.8422
C95_3 C 0.3994(4) 0.9337(7) 0.8834(2)
H118_3 H 0.4026 0.8678 0.8856
C105_3 C 0.5457(6) 0.9430(8) 0.7876(3)
H126_3 H 0.5531 0.9254 0.7664
H127_3 H 0.5691 0.9060 0.8024
H128_3 H 0.5068 0.9311 0.7908
Zn6_2 Zn 0.33112(4) 0.91474(7) 0.93639(2)
Zn1_3 Zn 0.18842(5) 0.93019(7) 0.98760(2)
P1_3 P 0.20218(10) 0.93690(16) 0.91542(5)
P2_3 P 0.17378(11) 0.70734(17) 0.98859(5)
P4_3 P 0.32784(11) 0.68511(17) 0.93219(5)
O1_3 O 0.1675(3) 0.9461(4) 0.94327(13)
O2_3 O 0.1964(2) 0.8392(4) 0.90065(13)
O3_3 O 0.1577(3) 0.7083(4) 0.95357(12)
O6_3 O 0.2615(2) 0.9700(4) 0.92320(12)
O7_3 O 0.2701(3) 0.6539(4) 0.92149(13)
O8_3 O 0.2254(3) 0.6517(4) 0.99795(13)
O10_3 O 0.3511(2) 0.9372(4) 0.98002(12)
O11_3 O 0.3389(3) 0.7859(4) 0.92409(12)
O12_3 O 0.3428(3) 0.6578(4) 0.96583(12)
O16_3 O 0.3692(3) 0.6228(4) 0.91351(12)
H1_3 H 0.0664 0.9652 0.9986
C28_3 C 0.2354(5) 0.9667(7) 0.8372(2)
H32_3 H 0.2458 0.9245 0.8551
C29_3 C 0.1817(5) 0.9329(8) 0.8224(2)
H33_3 H 0.1518 0.9528 0.8349
H34_3 H 0.1759 0.9593 0.8014
H35_3 H 0.1822 0.8646 0.8211
C30_3 C 0.2822(6) 0.9593(8) 0.8140(3)
H36_3 H 0.2899 0.8933 0.8100
H37_3 H 0.2702 0.9903 0.7944
H38_3 H 0.3157 0.9896 0.8231
C54_3 C 0.0341(4) 0.6591(7) 0.9794(2)
C58_3 C 0.0491(4) 0.5911(7) 0.9530(2)
H70_3 H 0.0902 0.5897 0.9529
C59_3 C 0.0257(6) 0.6279(9) 0.9208(2)
H71_3 H 0.0393 0.5888 0.9044
H73_3 H 0.0378 0.6925 0.9181
C60_2 C 0.0300(5) 0.4934(7) 0.9601(3)
H75_2 H 0.0395 0.4508 0.9435
H76_2 H 0.0481 0.4725 0.9799
H102_3 H 0.4758 0.8080 0.9953
C109_3 C 0.3969(4) 0.6561(7) 0.8877(2)
C110_3 C 0.4497(5) 0.6961(7) 0.8936(2)
C111_3 C 0.4762(5) 0.7258(8) 0.8673(4)
H136_2 H 0.5117 0.7537 0.8703
C112_3 C 0.4526(6) 0.7161(8) 0.8367(3)
H137_3 H 0.4712 0.7373 0.8194
C113_3 C 0.4011(5) 0.6745(8) 0.8329(3)
H138_3 H 0.3849 0.6657 0.8124
C114_3 C 0.3718(5) 0.6446(7) 0.8580(2)
C115_3 C 0.4766(8) 0.7044(15) 0.9269(4)
H139_3 H 0.4477 0.7218 0.9412
C116_2 C 0.5211(8) 0.7872(14) 0.9267(4)
H140_2 H 0.5121 0.8353 0.9417
H141_2 H 0.5579 0.7622 0.9324
H142_2 H 0.5203 0.8147 0.9059
C117_2 C 0.5055(8) 0.6232(14) 0.9391(4)
H143_3 H 0.4822 0.5678 0.9355
H144_2 H 0.5397 0.6153 0.9287
H145_2 H 0.5143 0.6312 0.9615
C118_3 C 0.3148(5) 0.6001(8) 0.8519(2)
H146_3 H 0.3016 0.5799 0.8722
C119_3 C 0.3185(7) 0.5127(11) 0.8309(3)
H147_3 H 0.3403 0.5277 0.8133
H148_2 H 0.3362 0.4616 0.8430
H149_2 H 0.2814 0.4936 0.8231
C120_3 C 0.2716(5) 0.6732(10) 0.8363(3)
H150_3 H 0.2729 0.7310 0.8485
H151_3 H 0.2810 0.6869 0.8151
H152_3 H 0.2344 0.6466 0.8357
H84_2 H 0.0165 0.9307 0.6955
C74_2 C 0.0151(7) 0.9307(10) 0.6521(4)
H85_2 H 0.0346 0.8719 0.6490
H86_2 H 0.0418 0.9818 0.6547
C87_2 C 0.0136(7) 0.5694(11) 0.5372(4)
H105_2 H 0.0367 0.6061 0.5522
H106_2 H 0.0307 0.5677 0.5173
H107_2 H 0.0100 0.5055 0.5450
H136_3 H 0.0117 0.7463 0.3703
C116_3 C 0.0211(8) 0.7128(14) 0.4267(4)
H140_3 H 0.0121 0.6647 0.4417
H141_3 H 0.0579 0.7378 0.4324
H142_3 H 0.0203 0.6853 0.4059
C117_3 C 0.0055(8) 0.8768(14) 0.4391(4)
H144_3 H 0.0397 0.8847 0.4287
H145_3 H 0.0143 0.8688 0.4615
C38_2 C 0.9796(5) 0.3196(7) 0.7943(2)
C39_2 C 0.9555(5) 0.2564(7) 0.7720(2)
H44_2 H 0.9167 0.2477 0.7710
C40_2 C 0.9861(5) 0.2055(7) 0.7510(2)
C43_2 C 0.9462(7) 0.3677(9) 0.8159(3)
H46_2 H 0.9683 0.4184 0.8268
C44_2 C 0.8945(8) 0.4073(17) 0.8006(4)
H47_2 H 0.8713 0.3566 0.7917
H48_2 H 0.8746 0.4415 0.8159
H49_2 H 0.9037 0.4501 0.7840
C45_2 C 0.9244(9) 0.3065(13) 0.8381(4)
H50_2 H 0.9546 0.2728 0.8494
H51_2 H 0.9043 0.3432 0.8528
H52_2 H 0.8992 0.2617 0.8274
C60_3 C 0.5300(5) 0.0066(7) 0.4601(3)
H74_2 H 0.4900 0.0066 0.4615
H75_3 H 0.5395 0.0492 0.4435
H76_3 H 0.5481 0.0275 0.4799
H77_2 H 0.8406 0.0024 0.5197
C62_2 C 0.8591(5) 0.0230(9) 0.5654(2)
H78_2 H 0.8645 0.0886 0.5639
C66_2 C 0.8843(5) 0.0337(9) 0.6227(2)
H81_2 H 0.8940 0.0977 0.6210
C67_2 C 0.9098(5) 0.0486(8) 0.6760(3)
C68_2 C 0.9568(4) 0.0148(7) 0.6906(2)
C69_2 C 0.9797(5) 0.0635(7) 0.7158(2)
C70_2 C 0.9567(4) 0.1492(6) 0.7252(2)
C71_2 C 0.9074(5) 0.1792(8) 0.7112(2)
H83_2 H 0.8902 0.2342 0.7181
C72_2 C 0.8829(5) 0.1275(8) 0.6864(3)
C76_2 C 0.8248(6) 0.1544(13) 0.6726(4)
H91_2 H 0.8123 0.1087 0.6560
C77_2 C 0.8257(7) 0.2505(12) 0.6591(4)
H92_2 H 0.7886 0.2670 0.6504
H93_2 H 0.8376 0.2953 0.6754
H94_2 H 0.8514 0.2522 0.6426
C78_2 C 0.7837(7) 0.1515(14) 0.6998(4)
H95_2 H 0.7833 0.0883 0.7086
H96_2 H 0.7961 0.1960 0.7161
H97_2 H 0.7465 0.1683 0.6914
H148_3 H 0.8362 0.0384 0.3430
H149_3 H 0.7814 0.0064 0.3231
Zn1_4 Zn 0.68842(5) 0.56981(7) 0.48760(2)
Zn2_2 Zn 0.69993(5) 0.78357(7) 0.41771(2)
Zn3_3 Zn 0.80215(5) 0.81074(7) 0.50121(2)
Zn4_2 Zn 0.83112(4) 0.58526(7) 0.43639(2)
P1_4 P 0.70218(10) 0.56310(16) 0.41542(5)
P2_4 P 0.67378(11) 0.79266(17) 0.48859(5)
P3_3 P 0.81608(11) 0.58130(17) 0.50672(5)
P4_4 P 0.82784(11) 0.81489(17) 0.43219(5)
O1_4 O 0.6675(3) 0.5539(4) 0.44327(13)
O2_4 O 0.6964(2) 0.6608(4) 0.40065(13)
O3_4 O 0.6577(3) 0.7917(4) 0.45357(12)
O4_3 O 0.6733(3) 0.6942(4) 0.50260(13)
O5_3 O 0.7619(3) 0.5289(4) 0.50293(13)
O6_4 O 0.7615(2) 0.5300(4) 0.42320(12)
O7_4 O 0.7701(3) 0.8461(4) 0.42149(13)
O8_4 O 0.7254(3) 0.8483(4) 0.49795(13)
O9_3 O 0.8109(3) 0.6841(4) 0.51500(13)
O10_4 O 0.8511(2) 0.5628(4) 0.48002(12)
O11_4 O 0.8389(3) 0.7141(4) 0.42409(12)
O12_4 O 0.8428(3) 0.8422(4) 0.46583(12)
O13_3 O 0.6737(3) 0.4934(4) 0.38870(12)
O14_3 O 0.6270(3) 0.8529(4) 0.50434(12)
O15_3 O 0.8481(3) 0.5320(4) 0.53670(12)
O16_4 O 0.8692(3) 0.8772(4) 0.41351(12)
N1_3 N 0.6408(4) 0.4904(5) 0.51431(16)
N2_3 N 0.5842(4) 0.3728(6) 0.61566(18)
N3_3 N 0.8345(4) 0.8805(5) 0.53970(16)
N5_3 N 0.4454(4) 0.0754(6) 0.80330(17)
N7_3 N 0.8864(5) 0.9958(8) 0.6484(2)
C1_3 C 0.5861(5) 0.5007(8) 0.5147(2)
H1_4 H 0.5664 0.5348 0.4986
C2_3 C 0.5580(4) 0.4620(8) 0.5385(2)
H2_3 H 0.5191 0.4690 0.5381
C3_3 C 0.5853(5) 0.4135(7) 0.5624(2)
C4_3 C 0.6411(6) 0.4005(9) 0.5605(3)
H3_3 H 0.6615 0.3648 0.5759
C5_3 C 0.6678(5) 0.4385(9) 0.5364(2)
H4_3 H 0.7062 0.4278 0.5354
C6_3 C 0.5595(4) 0.3760(7) 0.5891(2)
H5_3 H 0.5228 0.3531 0.5864
C7_3 C 0.5603(4) 0.3337(7) 0.6424(2)
C8_3 C 0.5292(4) 0.3893(7) 0.6616(2)
C9_3 C 0.5110(4) 0.3448(7) 0.68748(19)
H6_3 H 0.4877 0.3786 0.7002
C10_3 C 0.5248(5) 0.2542(8) 0.6959(2)
C11_3 C 0.5570(5) 0.2008(7) 0.6768(2)
H7_3 H 0.5672 0.1387 0.6826
C12_3 C 0.5742(4) 0.2386(7) 0.6493(2)
C13_3 C 0.5167(5) 0.4914(8) 0.6532(2)
H8_3 H 0.5479 0.5193 0.6424
C14_3 C 0.5041(8) 0.5501(9) 0.6804(3)
H9_3 H 0.5205 0.6122 0.6785
H10_3 H 0.5193 0.5203 0.6996
H11_3 H 0.4640 0.5563 0.6810
C15_3 C 0.4619(6) 0.4971(10) 0.6317(3)
H12_3 H 0.4584 0.5595 0.6224
H13_3 H 0.4304 0.4852 0.6441
H14_3 H 0.4626 0.4501 0.6152
C16_3 C 0.6114(4) 0.1832(7) 0.6276(2)
H15_3 H 0.5998 0.2004 0.6056
C17_3 C 0.6045(6) 0.0770(8) 0.6308(3)
H16_3 H 0.6181 0.0576 0.6518
H17_3 H 0.6255 0.0450 0.6155
H18_3 H 0.5654 0.0607 0.6273
C18_3 C 0.6701(5) 0.2120(10) 0.6339(3)
H19_3 H 0.6824 0.1968 0.6555
H20_3 H 0.6735 0.2794 0.6306
H21_3 H 0.6931 0.1785 0.6198
C19_3 C 0.7008(4) 0.4156(6) 0.37591(19)
C20_3 C 0.6932(4) 0.3295(6) 0.3887(2)
C21_3 C 0.7167(4) 0.2544(6) 0.3752(2)
H22_3 H 0.7106 0.1933 0.3829
C22_3 C 0.7502(4) 0.2668(7) 0.3498(2)
H23_3 H 0.7686 0.2147 0.3417
C23_3 C 0.7559(4) 0.3539(7) 0.3372(2)
H24_3 H 0.7762 0.3610 0.3193
C24_3 C 0.7320(4) 0.4327(6) 0.35017(19)
C25_3 C 0.6570(4) 0.3177(7) 0.4164(2)
H25_3 H 0.6329 0.3740 0.4173
C26_3 C 0.6950(5) 0.3122(8) 0.4477(2)
H26_3 H 0.7216 0.2611 0.4463
H27_3 H 0.6722 0.3006 0.4651
H28_3 H 0.7149 0.3714 0.4510
C27_3 C 0.6212(5) 0.2336(9) 0.4142(3)
H29_3 H 0.6442 0.1773 0.4138
H30_3 H 0.5969 0.2366 0.3950
H31_3 H 0.5988 0.2312 0.4322
C28_4 C 0.7354(5) 0.5333(7) 0.3372(2)
H32_4 H 0.7458 0.5755 0.3551
C29_4 C 0.6817(5) 0.5671(8) 0.3224(2)
H33_4 H 0.6518 0.5472 0.3349
H34_4 H 0.6759 0.5407 0.3014
H35_4 H 0.6822 0.6354 0.3211
C30_4 C 0.7822(6) 0.5407(8) 0.3140(3)
H36_4 H 0.7899 0.6067 0.3100
H37_4 H 0.7702 0.5097 0.2944
H38_4 H 0.8157 0.5104 0.3231
C49_3 C 0.5724(5) 0.8186(7) 0.5040(2)
C50_3 C 0.5585(4) 0.7661(7) 0.5306(2)
C51_3 C 0.5050(5) 0.7341(7) 0.5300(2)
H60_3 H 0.4934 0.7011 0.5475
C52_3 C 0.4661(5) 0.7493(7) 0.5036(3)
H61_3 H 0.4305 0.7217 0.5029
C53_3 C 0.4808(5) 0.8033(8) 0.4798(2)
H62_3 H 0.4545 0.8160 0.4629
C54_4 C 0.5341(4) 0.8409(7) 0.4794(2)
C55_3 C 0.5970(5) 0.7593(7) 0.5586(2)
H63_3 H 0.6335 0.7404 0.5513
C56_3 C 0.6060(6) 0.8547(8) 0.5752(3)
H64_3 H 0.6154 0.9021 0.5601
H65_3 H 0.6361 0.8493 0.5915
H66_3 H 0.5721 0.8731 0.5846
C57_3 C 0.5820(6) 0.6859(7) 0.5821(2)
H67_3 H 0.5783 0.6248 0.5719
H68_3 H 0.5470 0.7028 0.5906
H69_3 H 0.6111 0.6828 0.5991
C58_4 C 0.5491(4) 0.9089(7) 0.4530(2)
H70_4 H 0.5902 0.9103 0.4529
C59_4 C 0.5257(6) 0.8721(9) 0.4208(2)
H71_4 H 0.5393 0.9112 0.4044
H72_3 H 0.4853 0.8745 0.4197
H73_4 H 0.5378 0.8075 0.4181
C61_3 C 0.8442(4) 0.9712(8) 0.5392(2)
C63_3 C 0.8662(5) 0.9784(8) 0.5938(2)
C64_3 C 0.8553(6) 0.8834(8) 0.5951(2)
H79_3 H 0.8586 0.8508 0.6143
C65_3 C 0.8395(5) 0.8373(8) 0.5674(2)
H80_3 H 0.8319 0.7722 0.5682
C73_3 C 0.9831(7) 0.9233(9) 0.6808(3)
H87_3 H 0.9896 0.9432 0.6339
C75_3 C 0.9673(8) 0.8394(10) 0.6938(4)
H88_3 H 0.9852 0.8332 0.7148
H89_3 H 0.9783 0.7872 0.6809
H90_3 H 0.9272 0.8387 0.6949
C79_3 C 0.8746(6) 0.5821(7) 0.5625(2)
C80_3 C 0.9275(6) 0.6212(9) 0.5609(3)
C81_3 C 0.9509(8) 0.6618(9) 0.5885(4)
H98_3 H 0.9876 0.6849 0.5896
C82_3 C 0.9181(10) 0.6682(11) 0.6158(4)
H99_3 H 0.9324 0.7010 0.6338
C83_3 C 0.8691(9) 0.6288(10) 0.6157(3)
H100_3 H 0.8510 0.6290 0.6345
C84_3 C 0.8422(7) 0.5871(8) 0.5896(2)
C85_3 C 0.9574(6) 0.6137(9) 0.5325(3)
H101_3 H 0.9348 0.5734 0.5176
C86_3 C 0.9663(8) 0.7040(14) 0.5166(6)
H102_4 H 0.9758 0.6920 0.4953
H103_3 H 0.9964 0.7382 0.5279
H104_3 H 0.9324 0.7413 0.5162
C88_3 C 0.7846(8) 0.5469(9) 0.5883(3)
H108_3 H 0.7801 0.5048 0.5698
C89_3 C 0.7368(7) 0.6225(11) 0.5852(4)
H109_3 H 0.7419 0.6629 0.5673
H110_3 H 0.7379 0.6605 0.6041
H111_3 H 0.7011 0.5908 0.5822
C90_3 C 0.7751(11) 0.4861(13) 0.6183(4)
H112_3 H 0.7655 0.5274 0.6352
H113_3 H 0.8089 0.4518 0.6247
H114_3 H 0.7449 0.4418 0.6135
C91_3 C 0.3741(4) 0.0761(6) 0.90338(18)
H115_3 H 0.3582 0.1112 0.9192
C92_3 C 0.3953(5) 0.1238(7) 0.8787(2)
H116_3 H 0.3941 0.1900 0.8774
C93_3 C 0.4191(5) 0.0692(7) 0.8553(2)
C96_3 C 0.4379(4) 0.1206(7) 0.8281(2)
H119_3 H 0.4443 0.1860 0.8292
C97_3 C 0.4665(5) 0.1238(8) 0.7772(2)
C98_3 C 0.5209(5) 0.1065(8) 0.7701(2)
C99_3 C 0.5392(4) 0.1537(7) 0.74362(19)
H120_3 H 0.5761 0.1453 0.7383
C100_3 C 0.5045(5) 0.2114(7) 0.7254(2)
C101_3 C 0.4518(5) 0.2239(7) 0.7328(2)
H121_3 H 0.4290 0.2654 0.7204
C102_3 C 0.4294(5) 0.1788(7) 0.7577(2)
C103_3 C 0.5579(6) 0.0445(8) 0.7925(2)
H122_3 H 0.5483 0.0599 0.8141
C104_3 C 0.6205(6) 0.0656(11) 0.7912(3)
H123_3 H 0.6265 0.1332 0.7925
H124_3 H 0.6412 0.0348 0.8087
H125_3 H 0.6331 0.0419 0.7716
C106_3 C 0.3684(5) 0.1891(9) 0.7635(2)
H129_3 H 0.3605 0.1454 0.7807
C107_3 C 0.3304(5) 0.1631(9) 0.7352(3)
H130_3 H 0.3354 0.2078 0.7184
H131_3 H 0.3394 0.1001 0.7283
H132_3 H 0.2920 0.1648 0.7407
C108_3 C 0.3572(7) 0.2901(10) 0.7747(3)
H133_3 H 0.3702 0.3351 0.7597
H134_3 H 0.3176 0.2985 0.7764
H135_3 H 0.3769 0.3003 0.7951
C109_4 C 0.8969(4) 0.8439(7) 0.3877(2)
C110_4 C 0.9497(5) 0.8039(7) 0.3936(2)
C111_4 C 0.9762(5) 0.7742(8) 0.3673(4)
C112_4 C 0.9526(6) 0.7839(8) 0.3367(3)
H137_4 H 0.9712 0.7627 0.3194
C113_4 C 0.9011(5) 0.8255(8) 0.3329(3)
H138_4 H 0.8849 0.8343 0.3124
C114_4 C 0.8718(5) 0.8554(7) 0.3580(2)
C115_4 C 0.9766(8) 0.7956(15) 0.4269(4)
H139_4 H 0.9477 0.7782 0.4412
H143_4 H 0.9822 0.9322 0.4355
C118_4 C 0.8148(5) 0.8999(8) 0.3519(2)
H146_4 H 0.8016 0.9201 0.3722
C119_4 C 0.8185(7) 0.9873(11) 0.3309(3)
H147_4 H 0.8403 0.9723 0.3133
C120_4 C 0.7716(5) 0.8268(10) 0.3363(3)
H150_4 H 0.7729 0.7690 0.3485
H151_4 H 0.7810 0.8131 0.3151
H152_4 H 0.7344 0.8534 0.3357
N9_2 N 0.6572(3) 0.8608(5) 0.38434(16)
N10_2 N 0.8751(3) 0.5169(5) 0.40564(15)
C31_4 C 0.6196(4) 0.8222(7) 0.3640(2)
H39_4 H 0.6141 0.7566 0.3650
C32_4 C 0.5886(5) 0.8722(7) 0.3418(2)
H40_4 H 0.5632 0.8410 0.3276
C33_4 C 0.5948(4) 0.9694(6) 0.3402(2)
C35_4 C 0.6651(5) 0.9555(7) 0.3825(2)
H42_4 H 0.6921 0.9839 0.3965
N5_4 N 0.9454(4) 0.4246(6) 0.30330(17)
H6_4 H 0.9877 0.1214 0.2002
C15_4 C 0.9619(6) 0.0029(10) 0.1317(3)
H13_4 H 0.9304 0.0148 0.1441
H14_4 H 0.9626 0.0499 0.1152
C91_4 C 0.8741(4) 0.4239(6) 0.40338(18)
H115_4 H 0.8582 0.3888 0.4192
C92_4 C 0.8953(5) 0.3762(7) 0.3787(2)
H116_4 H 0.8941 0.3100 0.3774
C93_4 C 0.9191(5) 0.4308(7) 0.3553(2)
C94_4 C 0.9195(4) 0.5245(6) 0.3580(2)
H117_4 H 0.9337 0.5617 0.3422
C95_4 C 0.8994(4) 0.5663(7) 0.3834(2)
H118_4 H 0.9026 0.6322 0.3856
C96_4 C 0.9379(4) 0.3794(7) 0.3281(2)
H119_4 H 0.9443 0.3140 0.3292
C97_4 C 0.9665(5) 0.3762(8) 0.2772(2)
C101_4 C 0.9518(5) 0.2761(7) 0.2328(2)
H121_4 H 0.9290 0.2346 0.2204
C102_4 C 0.9294(5) 0.3212(7) 0.2577(2)
C106_4 C 0.8684(5) 0.3109(9) 0.2635(2)
H129_4 H 0.8605 0.3546 0.2807
C107_4 C 0.8304(5) 0.3369(9) 0.2352(3)
H130_4 H 0.8354 0.2922 0.2184
H131_4 H 0.8394 0.3999 0.2283
H132_4 H 0.7920 0.3352 0.2407
C108_4 C 0.8572(7) 0.2099(10) 0.2747(3)
H133_4 H 0.8702 0.1649 0.2597
H134_4 H 0.8176 0.2015 0.2764
H135_4 H 0.8769 0.1997 0.2951
N1_4 N 0.1408(4) 0.0096(5) 0.01431(16)
N2_4 N 0.0842(4) 0.1272(6) 0.11566(18)
C2_4 C 0.0580(4) 0.0380(8) 0.0385(2)
H2_4 H 0.0191 0.0310 0.0381
C3_4 C 0.0853(5) 0.0865(7) 0.0624(2)
C4_4 C 0.1411(6) 0.0995(9) 0.0605(3)
H3_4 H 0.1615 0.1352 0.0759
C5_4 C 0.1678(5) 0.0615(9) 0.0364(2)
H4_4 H 0.2062 0.0722 0.0354
C6_4 C 0.0595(4) 0.1240(7) 0.0891(2)
H5_4 H 0.0228 0.1469 0.0864
C7_4 C 0.0603(4) 0.1663(7) 0.1424(2)
C8_4 C 0.0292(4) 0.1107(7) 0.1616(2)
C9_4 C 0.0110(4) 0.1552(7) 0.18748(19)
C10_4 C 0.0248(5) 0.2458(8) 0.1959(2)
C11_4 C 0.0570(5) 0.2992(7) 0.1768(2)
H7_4 H 0.0672 0.3613 0.1826
C12_4 C 0.0742(4) 0.2614(7) 0.1493(2)
C13_4 C 0.0167(5) 0.0086(8) 0.1532(2)
C16_4 C 0.1114(4) 0.3168(7) 0.1276(2)
H15_4 H 0.0998 0.2996 0.1056
C17_4 C 0.1045(6) 0.4230(8) 0.1308(3)
H16_4 H 0.1181 0.4424 0.1518
H17_4 H 0.1255 0.4550 0.1155
H18_4 H 0.0654 0.4393 0.1273
C18_4 C 0.1701(5) 0.2880(10) 0.1339(3)
H19_4 H 0.1824 0.3032 0.1555
H20_4 H 0.1735 0.2206 0.1306
H21_4 H 0.1931 0.3215 0.1198
C90_4 C 0.2751(11) 0.0139(13) 0.1183(4)
H113_4 H 0.3089 0.0482 0.1247
H114_4 H 0.2449 0.0582 0.1135
C98_4 C 0.0209(5) 0.3935(8) 0.2701(2)
C99_4 C 0.0392(4) 0.3463(7) 0.24362(19)
H120_4 H 0.0761 0.3547 0.2383
C100_4 C 0.0045(5) 0.2886(7) 0.2254(2)
C103_4 C 0.0579(6) 0.4555(8) 0.2925(2)
H122_4 H 0.0483 0.4401 0.3141
C104_4 C 0.1205(6) 0.4344(11) 0.2912(3)
H123_4 H 0.1265 0.3668 0.2925
H124_4 H 0.1412 0.4652 0.3087
H125_4 H 0.1331 0.4581 0.2716
C105_4 C 0.0457(6) 0.5570(8) 0.2876(3)
H126_4 H 0.0531 0.5746 0.2664
H127_4 H 0.0691 0.5940 0.3024
H128_4 H 0.0068 0.5689 0.2908
O13_4 O 0.1737(3) 0.0066(4) 0.88870(12)
C19_4 C 0.2008(4) 0.0844(6) 0.87591(19)
C20_4 C 0.1932(4) 0.1705(6) 0.8887(2)
C21_4 C 0.2167(4) 0.2456(6) 0.8752(2)
H22_4 H 0.2106 0.3067 0.8829
C22_4 C 0.2502(4) 0.2332(7) 0.8498(2)
H23_4 H 0.2686 0.2853 0.8417
C23_4 C 0.2559(4) 0.1461(7) 0.8372(2)
H24_4 H 0.2762 0.1390 0.8193
C24_4 C 0.2320(4) 0.0673(6) 0.85017(19)
C25_4 C 0.1570(4) 0.1823(7) 0.9164(2)
H25_4 H 0.1329 0.1260 0.9173
C26_4 C 0.1950(5) 0.1878(8) 0.9477(2)
H26_4 H 0.2216 0.2389 0.9463
H27_4 H 0.1722 0.1994 0.9651
H28_4 H 0.2149 0.1286 0.9510
C27_4 C 0.1212(5) 0.2664(9) 0.9142(3)
H29_4 H 0.1442 0.3227 0.9138
H30_4 H 0.0969 0.2634 0.8950
H31_4 H 0.0988 0.2688 0.9322
Zn3_4 Zn 0.30215(5) 0.68926(7) 0.00121(2)
P3_4 P 0.31608(11) 0.91870(17) 0.00672(5)
O4_4 O 0.1733(3) 0.8058(4) 0.00260(13)
O5_4 O 0.2619(3) 0.9711(4) 0.00293(13)
O9_4 O 0.3109(3) 0.8159(4) 0.01500(13)
O14_4 O 0.1270(3) 0.6471(4) 0.00434(12)
O15_4 O 0.3481(3) 0.9680(4) 0.03670(12)
N3_4 N 0.3345(4) 0.6195(5) 0.03970(16)
N7_4 N 0.3864(5) 0.5042(8) 0.1484(2)
N8_4 N 0.5692(4) 0.1161(6) 0.31788(16)
C1_4 C 0.0861(5) 0.9993(8) 0.0147(2)
H8_4 H 0.0479 0.9807 0.1424
C14_4 C 0.0041(8) 0.9499(9) 0.1804(3)
H9_4 H 0.0205 0.8878 0.1785
H10_4 H 0.0193 0.9797 0.1996
C34_4 C 0.6356(4) 0.0119(7) 0.3610(2)
H41_4 H 0.6424 0.0772 0.3602
C36_4 C 0.5659(5) 0.0301(7) 0.3170(2)
H43_4 H 0.5437 0.0020 0.3005
C37_4 C 0.5388(5) 0.1748(7) 0.29483(19)
C38_3 C 0.4796(5) 0.1804(7) 0.2943(2)
C39_3 C 0.4555(5) 0.2436(7) 0.2720(2)
H44_3 H 0.4167 0.2523 0.2710
C40_3 C 0.4861(5) 0.2945(7) 0.2510(2)
C41_4 C 0.5427(4) 0.2840(7) 0.25338(19)
H45_4 H 0.5637 0.3167 0.2392
C42_4 C 0.5699(4) 0.2278(7) 0.27558(19)
C43_3 C 0.4462(7) 0.1323(9) 0.3159(3)
H46_3 H 0.4683 0.0816 0.3268
C44_3 C 0.3945(8) 0.0927(17) 0.3006(4)
H47_3 H 0.3713 0.1434 0.2917
H48_3 H 0.3746 0.0585 0.3159
H49_3 H 0.4037 0.0499 0.2840
C45_3 C 0.4244(9) 0.1935(13) 0.3381(4)
H50_3 H 0.4546 0.2272 0.3494
H51_3 H 0.4043 0.1568 0.3528
H52_3 H 0.3992 0.2383 0.3274
C46_4 C 0.6351(5) 0.2137(9) 0.2772(2)
H53_4 H 0.6479 0.1980 0.2992
C47_4 C 0.6633(5) 0.3029(10) 0.2685(3)
H54_4 H 0.6554 0.3148 0.2462
H55_4 H 0.7032 0.2966 0.2730
H56_4 H 0.6496 0.3550 0.2804
C48_4 C 0.6493(7) 0.1313(12) 0.2565(4)
H57_4 H 0.6890 0.1313 0.2539
H58_4 H 0.6289 0.1374 0.2361
H59_4 H 0.6390 0.0725 0.2662
C49_4 C 0.0724(5) 0.6814(7) 0.0040(2)
C50_4 C 0.0585(4) 0.7339(7) 0.0306(2)
C51_4 C 0.0050(5) 0.7659(7) 0.0300(2)
C55_4 C 0.0970(5) 0.7407(7) 0.0586(2)
H63_4 H 0.1335 0.7596 0.0513
C56_4 C 0.1060(6) 0.6453(8) 0.0752(3)
H64_4 H 0.1154 0.5979 0.0601
H65_4 H 0.1361 0.6507 0.0915
H66_4 H 0.0721 0.6269 0.0846
C57_4 C 0.0820(6) 0.8141(7) 0.0821(2)
H67_4 H 0.0783 0.8752 0.0719
H68_4 H 0.0470 0.7972 0.0906
H69_4 H 0.1111 0.8172 0.0991
C61_4 C 0.3442(4) 0.5288(8) 0.0392(2)
H77_3 H 0.3406 0.4976 0.0197
C62_3 C 0.3591(5) 0.4770(9) 0.0654(2)
H78_3 H 0.3645 0.4114 0.0639
C63_4 C 0.3662(5) 0.5216(8) 0.0938(2)
C64_4 C 0.3553(6) 0.6166(8) 0.0951(2)
H79_4 H 0.3586 0.6492 0.1143
C65_4 C 0.3395(5) 0.6627(8) 0.0674(2)
H80_4 H 0.3319 0.7278 0.0682
C66_3 C 0.3843(5) 0.4663(9) 0.1227(2)
H81_3 H 0.3940 0.4023 0.1210
C67_3 C 0.4098(5) 0.4514(8) 0.1760(3)
C68_3 C 0.4568(4) 0.4852(7) 0.1906(2)
C69_3 C 0.4797(5) 0.4365(7) 0.2158(2)
H82_4 H 0.5116 0.4606 0.2271
C70_3 C 0.4567(4) 0.3508(6) 0.2252(2)
C71_3 C 0.4074(5) 0.3208(8) 0.2112(2)
H83_3 H 0.3902 0.2658 0.2181
C72_3 C 0.3829(5) 0.3725(8) 0.1864(3)
C73_4 C 0.4831(7) 0.5767(9) 0.1808(3)
H84_3 H 0.5165 0.5693 0.1955
C74_3 C 0.5151(7) 0.5693(10) 0.1521(4)
H85_3 H 0.5346 0.6281 0.1490
H86_3 H 0.5418 0.5182 0.1547
H87_4 H 0.4896 0.5568 0.1339
C75_4 C 0.4673(8) 0.6606(10) 0.1938(4)
H88_4 H 0.4852 0.6668 0.2148
H89_4 H 0.4783 0.7128 0.1809
H90_4 H 0.4272 0.6613 0.1949
C76_3 C 0.3248(6) 0.3456(13) 0.1726(4)
H91_3 H 0.3123 0.3913 0.1560
C77_3 C 0.3257(7) 0.2495(12) 0.1591(4)
H92_3 H 0.2886 0.2330 0.1504
H93_3 H 0.3376 0.2047 0.1754
H94_3 H 0.3514 0.2478 0.1426
C78_3 C 0.2837(7) 0.3485(14) 0.1998(4)
H95_3 H 0.2833 0.4117 0.2086
H96_3 H 0.2961 0.3040 0.2161
H97_3 H 0.2465 0.3317 0.1914
C79_4 C 0.3746(6) 0.9179(7) 0.0625(2)
C80_4 C 0.4275(6) 0.8788(9) 0.0609(3)
C81_4 C 0.4509(8) 0.8382(9) 0.0885(4)
H98_4 H 0.4876 0.8151 0.0896
C82_4 C 0.4181(10) 0.8318(11) 0.1158(4)
H99_4 H 0.4324 0.7990 0.1338
C83_4 C 0.3691(9) 0.8712(10) 0.1157(3)
H100_4 H 0.3510 0.8710 0.1345
C84_4 C 0.3422(7) 0.9129(8) 0.0896(2)
C85_4 C 0.4574(6) 0.8863(9) 0.0325(3)
H101_4 H 0.4348 0.9266 0.0176
C86_4 C 0.4663(8) 0.7960(14) 0.0166(6)
H103_4 H 0.4964 0.7618 0.0279
H104_4 H 0.4324 0.7587 0.0162
C87_3 C 0.5136(7) 0.9306(11) 0.0372(4)
H105_3 H 0.5367 0.8939 0.0522
H106_3 H 0.5307 0.9323 0.0173
H107_3 H 0.5100 0.9945 0.0450
C88_4 C 0.2846(8) 0.9531(9) 0.0883(3)
H108_4 H 0.2801 0.9952 0.0698
C89_4 C 0.2368(7) 0.8775(11) 0.0852(4)
H109_4 H 0.2419 0.8371 0.0673
H110_4 H 0.2379 0.8395 0.1041
H111_4 H 0.2011 0.9092 0.0822
H112_4 H 0.2655 0.9726 0.1352
H11_4 H 0.9640 0.9437 0.1810
H12_4 H 0.9584 0.9405 0.1224
H60_4 H 0.9934 0.7989 0.0475
C52_4 C 0.9661(5) 0.7507(7) 0.0036(3)
H61_4 H 0.9305 0.7783 0.0029
C53_4 C 0.9808(5) 0.6967(8) 0.9798(2)
H62_4 H 0.9545 0.6840 0.9629
H72_4 H 0.9853 0.6255 0.9197
H74_3 H 0.9900 0.4934 0.9615
C38_4 C 0.0204(5) 0.6804(7) 0.2057(2)
C39_4 C 0.0445(5) 0.7436(7) 0.2280(2)
H44_4 H 0.0833 0.7523 0.2290
C40_4 C 0.0139(5) 0.7945(7) 0.2490(2)
C43_4 C 0.0538(7) 0.6323(9) 0.1841(3)
H46_4 H 0.0317 0.5816 0.1732
C44_4 C 0.1055(8) 0.5927(17) 0.1994(4)
H47_4 H 0.1287 0.6434 0.2083
H48_4 H 0.1254 0.5585 0.1841
H49_4 H 0.0963 0.5499 0.2160
C45_4 C 0.0756(9) 0.6935(13) 0.1619(4)
H50_4 H 0.0454 0.7272 0.1506
H51_4 H 0.0957 0.6568 0.1472
H52_4 H 0.1008 0.7383 0.1726
C60_4 C 0.4700(5) 0.9934(7) 0.5399(3)
H74_4 H 0.5100 0.9934 0.5385
H75_4 H 0.4605 0.9508 0.5565
H76_4 H 0.4519 0.9725 0.5201
H77_4 H 0.1594 0.9976 0.4803
C62_4 C 0.1409(5) 0.9770(9) 0.4346(2)
H78_4 H 0.1355 0.9114 0.4361
C66_4 C 0.1157(5) 0.9663(9) 0.3773(2)
H81_4 H 0.1060 0.9023 0.3790
C67_4 C 0.0902(5) 0.9514(8) 0.3240(3)
C68_4 C 0.0432(4) 0.9852(7) 0.3094(2)
C69_4 C 0.0203(5) 0.9365(7) 0.2842(2)
C70_4 C 0.0433(4) 0.8508(6) 0.2748(2)
C71_4 C 0.0926(5) 0.8208(8) 0.2888(2)
H83_4 H 0.1098 0.7658 0.2819
C72_4 C 0.1171(5) 0.8725(8) 0.3136(3)
C76_4 C 0.1752(6) 0.8456(13) 0.3274(4)
H91_4 H 0.1877 0.8913 0.3440
C77_4 C 0.1743(7) 0.7495(12) 0.3409(4)
H92_4 H 0.2114 0.7330 0.3496
H93_4 H 0.1624 0.7047 0.3246
H94_4 H 0.1486 0.7478 0.3574
C78_4 C 0.2163(7) 0.8485(14) 0.3002(4)
H95_4 H 0.2167 0.9117 0.2914
H96_4 H 0.2039 0.8040 0.2839
H97_4 H 0.2535 0.8317 0.3086
H148_4 H 0.1638 0.9616 0.6570
H149_4 H 0.2186 0.9936 0.6769
H84_4 H 0.9835 0.0693 0.3045
C74_4 C 0.9849(7) 0.0693(10) 0.3479(4)
H85_4 H 0.9654 0.1281 0.3510
H86_4 H 0.9582 0.0182 0.3453
C87_4 C 0.9864(7) 0.4306(11) 0.4628(4)
H105_4 H 0.9633 0.3939 0.4478
H106_4 H 0.9693 0.4323 0.4827
H107_4 H 0.9900 0.4945 0.4550
H136_4 H 0.9883 0.2537 0.6297
C116_4 C 0.9789(8) 0.2872(14) 0.5733(4)
H140_4 H 0.9879 0.3353 0.5583
H141_4 H 0.9421 0.2622 0.5676
H142_4 H 0.9797 0.3147 0.5941
C117_4 C 0.9945(8) 0.1232(14) 0.5609(4)
H144_4 H 0.9603 0.1153 0.5713
H145_4 H 0.9857 0.1312 0.5385
loop_
_geom_bond_atom_site_label_1
_geom_bond_atom_site_label_2
_geom_bond_site_symmetry_1
_geom_bond_site_symmetry_2
H62 C53 1_555 1_555
H61 C52 1_555 1_555
N5 C96 1_555 1_555
N6 C91 1_555 1_555
H13 C15 1_555 1_555
H14 C15 1_555 1_555
C91 H115 1_555 1_555
C92 C91 1_555 1_555
H116 C92 1_555 1_555
C93 C92 1_555 1_555
C94 C93 1_555 1_555
H117 C94 1_555 1_555
C95 N6 1_555 1_555
H118 C95 1_555 1_555
C96 C93 1_555 1_555
H119 C96 1_555 1_555
C97 N5 1_555 1_555
H121 C101 1_555 1_555
C102 C97 1_555 1_555
C106 C102 1_555 1_555
H129 C106 1_555 1_555
C107 C106 1_555 1_555
H130 C107 1_555 1_555
H131 C107 1_555 1_555
H132 C107 1_555 1_555
C108 C106 1_555 1_555
H133 C108 1_555 1_555
H134 C108 1_555 1_555
H135 C108 1_555 1_555
Zn6 N6 1_555 1_555
C94 C95 1_555 1_555
C101 C102 1_555 1_555
N4 C31 1_555 1_555
C31 H39 1_555 1_555
C32 C31 1_555 1_555
H40 C32 1_555 1_555
C33 C32 1_555 1_555
C35 N4 1_555 1_555
H42 C35 1_555 1_555
Zn5 N4 1_555 1_555
Zn1 O1 1_555 1_555
Zn5 O2 1_555 1_555
Zn3 O8 1_555 1_555
Zn6 O6 1_555 1_555
P1 O1 1_555 1_555
P2 O3 1_555 1_555
P3 O5 1_555 1_555
P4 O7 1_555 1_555
O2 P1 1_555 1_555
O3 Zn5 1_555 1_555
O4 Zn1 1_555 1_555
O5 Zn1 1_555 1_555
O6 P1 1_555 1_555
O7 Zn5 1_555 1_555
O8 P2 1_555 1_555
O9 Zn3 1_555 1_555
O10 Zn6 1_555 1_555
O11 Zn6 1_555 1_555
O12 Zn3 1_555 1_555
O13 P1 1_555 1_555
O14 P2 1_555 1_555
O15 P3 1_555 1_555
O16 P4 1_555 1_555
N1 Zn1 1_555 1_555
N2 C6 1_555 1_555
N3 Zn3 1_555 1_555
N5_2 C96_2 1_555 1_555
C1 N1 1_555 1_555
H1 C1 1_555 1_555
C2 C1 1_555 1_555
H2 C2 1_555 1_555
C3 C2 1_555 1_555
C4 C3 1_555 1_555
H3 C4 1_555 1_555
C5 N1 1_555 1_555
H4 C5 1_555 1_555
C6 C3 1_555 1_555
H5 C6 1_555 1_555
C7 N2 1_555 1_555
C8 C7 1_555 1_555
C9 C8 1_555 1_555
H6_2 C9 1_555 1_555
C10 C9 1_555 1_555
C11 C10 1_555 1_555
H7 C11 1_555 1_555
C12 C7 1_555 1_555
C13 C8 1_555 1_555
H8 C13 1_555 1_555
C14 C13 1_555 1_555
H9 C14 1_555 1_555
H10 C14 1_555 1_555
H11_2 C14 1_555 1_555
C15_2 C13 1_555 1_555
H12_2 C15_2 1_555 1_555
H13_2 C15_2 1_555 1_555
H14_2 C15_2 1_555 1_555
C16 C12 1_555 1_555
H15 C16 1_555 1_555
C17 C16 1_555 1_555
H16 C17 1_555 1_555
H17 C17 1_555 1_555
H18 C17 1_555 1_555
C18 C16 1_555 1_555
H19 C18 1_555 1_555
H20 C18 1_555 1_555
H21 C18 1_555 1_555
C19 O13 1_555 1_555
C20 C19 1_555 1_555
C21 C20 1_555 1_555
H22 C21 1_555 1_555
C22 C21 1_555 1_555
H23 C22 1_555 1_555
C23 C22 1_555 1_555
H24 C23 1_555 1_555
C24 C19 1_555 1_555
C25 C20 1_555 1_555
H25 C25 1_555 1_555
C26 C25 1_555 1_555
H26 C26 1_555 1_555
H27 C26 1_555 1_555
H28 C26 1_555 1_555
C27 C25 1_555 1_555
H29 C27 1_555 1_555
H30 C27 1_555 1_555
H31 C27 1_555 1_555
C28 C24 1_555 1_555
H32 C28 1_555 1_555
C29 C28 1_555 1_555
H33 C29 1_555 1_555
H34 C29 1_555 1_555
H35 C29 1_555 1_555
C30 C28 1_555 1_555
H36 C30 1_555 1_555
H37 C30 1_555 1_555
H38 C30 1_555 1_555
C49 O14 1_555 1_555
C50 C49 1_555 1_555
C51 C50 1_555 1_555
H60_2 C51 1_555 1_555
C52_2 C51 1_555 1_555
H61_2 C52_2 1_555 1_555
C53_2 C52_2 1_555 1_555
H62_2 C53_2 1_555 1_555
C54 C49 1_555 1_555
C55 C50 1_555 1_555
H63 C55 1_555 1_555
C56 C55 1_555 1_555
H64 C56 1_555 1_555
H65 C56 1_555 1_555
H66 C56 1_555 1_555
C57 C55 1_555 1_555
H67 C57 1_555 1_555
H68 C57 1_555 1_555
H69 C57 1_555 1_555
C58 C54 1_555 1_555
H70 C58 1_555 1_555
C59 C58 1_555 1_555
H71 C59 1_555 1_555
H72_2 C59 1_555 1_555
H73 C59 1_555 1_555
C61 N3 1_555 1_555
C64 C63 1_555 1_555
H79 C64 1_555 1_555
C65 N3 1_555 1_555
H80 C65 1_555 1_555
C75 C73 1_555 1_555
H88 C75 1_555 1_555
H89 C75 1_555 1_555
H90 C75 1_555 1_555
C79 O15 1_555 1_555
C80 C79 1_555 1_555
C81 C80 1_555 1_555
H98 C81 1_555 1_555
C82 C81 1_555 1_555
H99 C82 1_555 1_555
C83 C82 1_555 1_555
H100 C83 1_555 1_555
C84 C79 1_555 1_555
C85 C80 1_555 1_555
H101 C85 1_555 1_555
C86 C85 1_555 1_555
H102 C86 1_555 1_555
H103 C86 1_555 1_555
H104 C86 1_555 1_555
C88 C84 1_555 1_555
H108 C88 1_555 1_555
C89 C88 1_555 1_555
H109 C89 1_555 1_555
H110 C89 1_555 1_555
H111 C89 1_555 1_555
C90 C88 1_555 1_555
H112 C90 1_555 1_555
H113 C90 1_555 1_555
H114 C90 1_555 1_555
C91_2 H115_2 1_555 1_555
C92_2 C91_2 1_555 1_555
H116_2 C92_2 1_555 1_555
C93_2 C92_2 1_555 1_555
C96_2 C93_2 1_555 1_555
H119_2 C96_2 1_555 1_555
C97_2 N5_2 1_555 1_555
C98 C97_2 1_555 1_555
C99 C98 1_555 1_555
H120 C99 1_555 1_555
C100 C10 1_555 1_555
C101_2 C100 1_555 1_555
H121_2 C101_2 1_555 1_555
C102_2 C97_2 1_555 1_555
C103 C98 1_555 1_555
H122 C103 1_555 1_555
C104 C103 1_555 1_555
H123 C104 1_555 1_555
H124 C104 1_555 1_555
H125 C104 1_555 1_555
C106_2 C102_2 1_555 1_555
H129_2 C106_2 1_555 1_555
C107_2 C106_2 1_555 1_555
H130_2 C107_2 1_555 1_555
H131_2 C107_2 1_555 1_555
H132_2 C107_2 1_555 1_555
C108_2 C106_2 1_555 1_555
H133_2 C108_2 1_555 1_555
H134_2 C108_2 1_555 1_555
H135_2 C108_2 1_555 1_555
C109 O16 1_555 1_555
C110 C109 1_555 1_555
C111 C110 1_555 1_555
C112 C111 1_555 1_555
H137 C112 1_555 1_555
C113 C112 1_555 1_555
H138 C113 1_555 1_555
C114 C109 1_555 1_555
C115 C110 1_555 1_555
H139 C115 1_555 1_555
C118 C114 1_555 1_555
H146 C118 1_555 1_555
C119 C118 1_555 1_555
H147 C119 1_555 1_555
C120 C118 1_555 1_555
H150 C120 1_555 1_555
H151 C120 1_555 1_555
H152 C120 1_555 1_555
P2 O4 1_555 1_555
P3 O9 1_555 1_555
P3 O10 1_555 1_555
P4 O11 1_555 1_555
P4 O12 1_555 1_555
C4 C5 1_555 1_555
C11 C12 1_555 1_555
C23 C24 1_555 1_555
C53_2 C54 1_555 1_555
C64 C65 1_555 1_555
C83 C84 1_555 1_555
C99 C100 1_555 1_555
C101_2 C102_2 1_555 1_555
C113 C114 1_555 1_555
Zn1_2 O1_2 1_555 1_555
Zn2 O2_2 1_555 1_555
Zn4 O6_2 1_555 1_555
P1_2 O1_2 1_555 1_555
P2_2 O3_2 1_555 1_555
P4_2 O7_2 1_555 1_555
O2_2 P1_2 1_555 1_555
O3_2 Zn2 1_555 1_555
O6_2 P1_2 1_555 1_555
O7_2 Zn2 1_555 1_555
O8_2 P2_2 1_555 1_555
O10_2 Zn4 1_555 1_555
O11_2 Zn4 1_555 1_555
O16_2 P4_2 1_555 1_555
H32_2 C28_2 1_555 1_555
C29_2 C28_2 1_555 1_555
H33_2 C29_2 1_555 1_555
H34_2 C29_2 1_555 1_555
H35_2 C29_2 1_555 1_555
C30_2 C28_2 1_555 1_555
H36_2 C30_2 1_555 1_555
H37_2 C30_2 1_555 1_555
H38_2 C30_2 1_555 1_555
C58_2 C54_2 1_555 1_555
H70_2 C58_2 1_555 1_555
C59_2 C58_2 1_555 1_555
H71_2 C59_2 1_555 1_555
H73_2 C59_2 1_555 1_555
C60 C58_2 1_555 1_555
H75 C60 1_555 1_555
H76 C60 1_555 1_555
C109_2 O16_2 1_555 1_555
C110_2 C109_2 1_555 1_555
C111_2 C110_2 1_555 1_555
H136 C111_2 1_555 1_555
C112_2 C111_2 1_555 1_555
H137_2 C112_2 1_555 1_555
C113_2 C112_2 1_555 1_555
H138_2 C113_2 1_555 1_555
C114_2 C109_2 1_555 1_555
C115_2 C110_2 1_555 1_555
H139_2 C115_2 1_555 1_555
C116 C115_2 1_555 1_555
H140 C116 1_555 1_555
H141 C116 1_555 1_555
H142 C116 1_555 1_555
C117 C115_2 1_555 1_555
H143_2 C117 1_555 1_555
H144 C117 1_555 1_555
H145 C117 1_555 1_555
C118_2 C114_2 1_555 1_555
H146_2 C118_2 1_555 1_555
C119_2 C118_2 1_555 1_555
H147_2 C119_2 1_555 1_555
H148 C119_2 1_555 1_555
H149 C119_2 1_555 1_555
C120_2 C118_2 1_555 1_555
H150_2 C120_2 1_555 1_555
H151_2 C120_2 1_555 1_555
H152_2 C120_2 1_555 1_555
N9 Zn2 1_555 1_555
N10 Zn4 1_555 1_555
P4_2 O11_2 1_555 1_555
P4_2 O12_2 1_555 1_555
C113_2 C114_2 1_555 1_555
H117_2 C94_2 1_555 1_555
C95_2 N10 1_555 1_555
H118_2 C95_2 1_555 1_555
H126 C105 1_555 1_555
H127 C105 1_555 1_555
H128 C105 1_555 1_555
C94_2 C95_2 1_555 1_555
N9 C31_2 1_555 1_555
N8 C36 1_555 1_555
C31_2 H39_2 1_555 1_555
C32_2 C31_2 1_555 1_555
H40_2 C32_2 1_555 1_555
C33_2 C32_2 1_555 1_555
C34 C33_2 1_555 1_555
H41 C34 1_555 1_555
C35_2 N9 1_555 1_555
H42_2 C35_2 1_555 1_555
C36 C33_2 1_555 1_555
H43 C36 1_555 1_555
C37 N8 1_555 1_555
H45 C41 1_555 1_555
C42 C37 1_555 1_555
C46 C42 1_555 1_555
H53 C46 1_555 1_555
C47 C46 1_555 1_555
H54 C47 1_555 1_555
H55 C47 1_555 1_555
H56 C47 1_555 1_555
C48 C46 1_555 1_555
H57 C48 1_555 1_555
H58 C48 1_555 1_555
H59 C48 1_555 1_555
C34 C35_2 1_555 1_555
C41 C42 1_555 1_555
P3_2 O5_2 1_555 1_555
O9_2 Zn3_2 1_555 1_555
O15_2 P3_2 1_555 1_555
N3_2 Zn3_2 1_555 1_555
N7_2 C66 1_555 1_555
N8_2 C36_2 1_555 1_555
H9_2 C14_2 1_555 1_555
H10_2 C14_2 1_555 1_555
H41_2 C34_2 1_555 1_555
H43_2 C36_2 1_555 1_555
C37_2 N8_2 1_555 1_555
C38 C37_2 1_555 1_555
C39 C38 1_555 1_555
H44 C39 1_555 1_555
C40 C39 1_555 1_555
C41_2 C40 1_555 1_555
H45_2 C41_2 1_555 1_555
C42_2 C37_2 1_555 1_555
C43 C38 1_555 1_555
H46 C43 1_555 1_555
C44 C43 1_555 1_555
H47 C44 1_555 1_555
H48 C44 1_555 1_555
H49 C44 1_555 1_555
C45 C43 1_555 1_555
H50 C45 1_555 1_555
H51 C45 1_555 1_555
H52 C45 1_555 1_555
C46_2 C42_2 1_555 1_555
H53_2 C46_2 1_555 1_555
C47_2 C46_2 1_555 1_555
H54_2 C47_2 1_555 1_555
H55_2 C47_2 1_555 1_555
H56_2 C47_2 1_555 1_555
C48_2 C46_2 1_555 1_555
H57_2 C48_2 1_555 1_555
H58_2 C48_2 1_555 1_555
H59_2 C48_2 1_555 1_555
C49_2 O14_2 1_555 1_555
C50_2 C49_2 1_555 1_555
C51_2 C50_2 1_555 1_555
C55_2 C50_2 1_555 1_555
H63_2 C55_2 1_555 1_555
C56_2 C55_2 1_555 1_555
H64_2 C56_2 1_555 1_555
H65_2 C56_2 1_555 1_555
H66_2 C56_2 1_555 1_555
C57_2 C55_2 1_555 1_555
H67_2 C57_2 1_555 1_555
H68_2 C57_2 1_555 1_555
H69_2 C57_2 1_555 1_555
C61_2 N3_2 1_555 1_555
H77 C61_2 1_555 1_555
C62 C61_2 1_555 1_555
H78 C62 1_555 1_555
C63_2 C62 1_555 1_555
C64_2 C63_2 1_555 1_555
H79_2 C64_2 1_555 1_555
C65_2 N3_2 1_555 1_555
H80_2 C65_2 1_555 1_555
C66 C63_2 1_555 1_555
H81 C66 1_555 1_555
C67 N7_2 1_555 1_555
C68 C67 1_555 1_555
C69 C68 1_555 1_555
H82_2 C69 1_555 1_555
C70 C40 1_555 1_555
C71 C70 1_555 1_555
H83 C71 1_555 1_555
C72 C67 1_555 1_555
C73_2 C68 1_555 1_555
H84 C73_2 1_555 1_555
C74 C73_2 1_555 1_555
H85 C74 1_555 1_555
H86 C74 1_555 1_555
H87_2 C74 1_555 1_555
C75_2 C73_2 1_555 1_555
H88_2 C75_2 1_555 1_555
H89_2 C75_2 1_555 1_555
H90_2 C75_2 1_555 1_555
C76 C72 1_555 1_555
H91 C76 1_555 1_555
C77 C76 1_555 1_555
H92 C77 1_555 1_555
H93 C77 1_555 1_555
H94 C77 1_555 1_555
C78 C76 1_555 1_555
H95 C78 1_555 1_555
H96 C78 1_555 1_555
H97 C78 1_555 1_555
C79_2 O15_2 1_555 1_555
C80_2 C79_2 1_555 1_555
C81_2 C80_2 1_555 1_555
H98_2 C81_2 1_555 1_555
C82_2 C81_2 1_555 1_555
H99_2 C82_2 1_555 1_555
C83_2 C82_2 1_555 1_555
H100_2 C83_2 1_555 1_555
C84_2 C79_2 1_555 1_555
C85_2 C80_2 1_555 1_555
H101_2 C85_2 1_555 1_555
C86_2 C85_2 1_555 1_555
H103_2 C86_2 1_555 1_555
H104_2 C86_2 1_555 1_555
C87 C85_2 1_555 1_555
H105 C87 1_555 1_555
H106 C87 1_555 1_555
H107 C87 1_555 1_555
C88_2 C84_2 1_555 1_555
H108_2 C88_2 1_555 1_555
C89_2 C88_2 1_555 1_555
H109_2 C89_2 1_555 1_555
H110_2 C89_2 1_555 1_555
H111_2 C89_2 1_555 1_555
P3_2 O9_2 1_555 1_555
C41_2 C42_2 1_555 1_555
C64_2 C65_2 1_555 1_555
C69 C70 1_555 1_555
C71 C72 1_555 1_555
C83_2 C84_2 1_555 1_555
C19_2 O13_2 1_555 1_555
C20_2 C19_2 1_555 1_555
C21_2 C20_2 1_555 1_555
H22_2 C21_2 1_555 1_555
C22_2 C21_2 1_555 1_555
H23_2 C22_2 1_555 1_555
C23_2 C22_2 1_555 1_555
H24_2 C23_2 1_555 1_555
C24_2 C19_2 1_555 1_555
C25_2 C20_2 1_555 1_555
H25_2 C25_2 1_555 1_555
C26_2 C25_2 1_555 1_555
H26_2 C26_2 1_555 1_555
H27_2 C26_2 1_555 1_555
H28_2 C26_2 1_555 1_555
C27_2 C25_2 1_555 1_555
H29_2 C27_2 1_555 1_555
H30_2 C27_2 1_555 1_555
H31_2 C27_2 1_555 1_555
C23_2 C24_2 1_555 1_555
N2_2 C6_2 1_555 1_555
H2_2 C2_2 1_555 1_555
C3_2 C2_2 1_555 1_555
C4_2 C3_2 1_555 1_555
H3_2 C4_2 1_555 1_555
C5_2 N1_2 1_555 1_555
H4_2 C5_2 1_555 1_555
C6_2 C3_2 1_555 1_555
H5_2 C6_2 1_555 1_555
C7_2 N2_2 1_555 1_555
C8_2 C7_2 1_555 1_555
C9_2 C8_2 1_555 1_555
C10_2 C9_2 1_555 1_555
C11_2 C10_2 1_555 1_555
H7_2 C11_2 1_555 1_555
C12_2 C7_2 1_555 1_555
C13_2 C8_2 1_555 1_555
C16_2 C12_2 1_555 1_555
H15_2 C16_2 1_555 1_555
C17_2 C16_2 1_555 1_555
H16_2 C17_2 1_555 1_555
H17_2 C17_2 1_555 1_555
H18_2 C17_2 1_555 1_555
C18_2 C16_2 1_555 1_555
H19_2 C18_2 1_555 1_555
H20_2 C18_2 1_555 1_555
H21_2 C18_2 1_555 1_555
H113_2 C90_2 1_555 1_555
H114_2 C90_2 1_555 1_555
C99_2 C98_2 1_555 1_555
H120_2 C99_2 1_555 1_555
C100_2 C10_2 1_555 1_555
C103_2 C98_2 1_555 1_555
H122_2 C103_2 1_555 1_555
C104_2 C103_2 1_555 1_555
H123_2 C104_2 1_555 1_555
H124_2 C104_2 1_555 1_555
H125_2 C104_2 1_555 1_555
C105_2 C103_2 1_555 1_555
H126_2 C105_2 1_555 1_555
H127_2 C105_2 1_555 1_555
H128_2 C105_2 1_555 1_555
C4_2 C5_2 1_555 1_555
C11_2 C12_2 1_555 1_555
C99_2 C100_2 1_555 1_555
N4_2 C31_3 1_555 1_555
N8_3 C36_3 1_555 1_555
C31_3 H39_3 1_555 1_555
C32_3 C31_3 1_555 1_555
H40_3 C32_3 1_555 1_555
C33_3 C32_3 1_555 1_555
C34_3 C33_3 1_555 1_555
H41_3 C34_3 1_555 1_555
C35_3 N4_2 1_555 1_555
H42_3 C35_3 1_555 1_555
C36_3 C33_3 1_555 1_555
H43_3 C36_3 1_555 1_555
C37_3 N8_3 1_555 1_555
H45_3 C41_3 1_555 1_555
C42_3 C37_3 1_555 1_555
C46_3 C42_3 1_555 1_555
H53_3 C46_3 1_555 1_555
C47_3 C46_3 1_555 1_555
H54_3 C47_3 1_555 1_555
H55_3 C47_3 1_555 1_555
H56_3 C47_3 1_555 1_555
C48_3 C46_3 1_555 1_555
H57_3 C48_3 1_555 1_555
H58_3 C48_3 1_555 1_555
H59_3 C48_3 1_555 1_555
Zn5_2 N4_2 1_555 1_555
C34_3 C35_3 1_555 1_555
C41_3 C42_3 1_555 1_555
H117_3 C94_3 1_555 1_555
C95_3 N6_2 1_555 1_555
H118_3 C95_3 1_555 1_555
H126_3 C105_3 1_555 1_555
H127_3 C105_3 1_555 1_555
H128_3 C105_3 1_555 1_555
Zn6_2 N6_2 1_555 1_555
C94_3 C95_3 1_555 1_555
Zn1_3 O1_3 1_555 1_555
Zn5_2 O2_3 1_555 1_555
Zn6_2 O6_3 1_555 1_555
P1_3 O1_3 1_555 1_555
P2_3 O3_3 1_555 1_555
P4_3 O7_3 1_555 1_555
O2_3 P1_3 1_555 1_555
O3_3 Zn5_2 1_555 1_555
O6_3 P1_3 1_555 1_555
O7_3 Zn5_2 1_555 1_555
O8_3 P2_3 1_555 1_555
O10_3 Zn6_2 1_555 1_555
O11_3 Zn6_2 1_555 1_555
O16_3 P4_3 1_555 1_555
H32_3 C28_3 1_555 1_555
C29_3 C28_3 1_555 1_555
H33_3 C29_3 1_555 1_555
H34_3 C29_3 1_555 1_555
H35_3 C29_3 1_555 1_555
C30_3 C28_3 1_555 1_555
H36_3 C30_3 1_555 1_555
H37_3 C30_3 1_555 1_555
H38_3 C30_3 1_555 1_555
C58_3 C54_3 1_555 1_555
H70_3 C58_3 1_555 1_555
C59_3 C58_3 1_555 1_555
H71_3 C59_3 1_555 1_555
H73_3 C59_3 1_555 1_555
C60_2 C58_3 1_555 1_555
H75_2 C60_2 1_555 1_555
H76_2 C60_2 1_555 1_555
C109_3 O16_3 1_555 1_555
C110_3 C109_3 1_555 1_555
C111_3 C110_3 1_555 1_555
H136_2 C111_3 1_555 1_555
C112_3 C111_3 1_555 1_555
H137_3 C112_3 1_555 1_555
C113_3 C112_3 1_555 1_555
H138_3 C113_3 1_555 1_555
C114_3 C109_3 1_555 1_555
C115_3 C110_3 1_555 1_555
H139_3 C115_3 1_555 1_555
C116_2 C115_3 1_555 1_555
H140_2 C116_2 1_555 1_555
H141_2 C116_2 1_555 1_555
H142_2 C116_2 1_555 1_555
C117_2 C115_3 1_555 1_555
H143_3 C117_2 1_555 1_555
H144_2 C117_2 1_555 1_555
H145_2 C117_2 1_555 1_555
C118_3 C114_3 1_555 1_555
H146_3 C118_3 1_555 1_555
C119_3 C118_3 1_555 1_555
H147_3 C119_3 1_555 1_555
H148_2 C119_3 1_555 1_555
H149_2 C119_3 1_555 1_555
C120_3 C118_3 1_555 1_555
H150_3 C120_3 1_555 1_555
H151_3 C120_3 1_555 1_555
H152_3 C120_3 1_555 1_555
P4_3 O11_3 1_555 1_555
P4_3 O12_3 1_555 1_555
C113_3 C114_3 1_555 1_555
H85_2 C74_2 1_555 1_555
H86_2 C74_2 1_555 1_555
H105_2 C87_2 1_555 1_555
H106_2 C87_2 1_555 1_555
H107_2 C87_2 1_555 1_555
H140_3 C116_3 1_555 1_555
H141_3 C116_3 1_555 1_555
H142_3 C116_3 1_555 1_555
H144_3 C117_3 1_555 1_555
H145_3 C117_3 1_555 1_555
C39_2 C38_2 1_555 1_555
H44_2 C39_2 1_555 1_555
C40_2 C39_2 1_555 1_555
C43_2 C38_2 1_555 1_555
H46_2 C43_2 1_555 1_555
C44_2 C43_2 1_555 1_555
H47_2 C44_2 1_555 1_555
H48_2 C44_2 1_555 1_555
H49_2 C44_2 1_555 1_555
C45_2 C43_2 1_555 1_555
H50_2 C45_2 1_555 1_555
H51_2 C45_2 1_555 1_555
H52_2 C45_2 1_555 1_555
H74_2 C60_3 1_555 1_555
H75_3 C60_3 1_555 1_555
H76_3 C60_3 1_555 1_555
H78_2 C62_2 1_555 1_555
H81_2 C66_2 1_555 1_555
C68_2 C67_2 1_555 1_555
C69_2 C68_2 1_555 1_555
C70_2 C40_2 1_555 1_555
C71_2 C70_2 1_555 1_555
H83_2 C71_2 1_555 1_555
C72_2 C67_2 1_555 1_555
C76_2 C72_2 1_555 1_555
H91_2 C76_2 1_555 1_555
C77_2 C76_2 1_555 1_555
H92_2 C77_2 1_555 1_555
H93_2 C77_2 1_555 1_555
H94_2 C77_2 1_555 1_555
C78_2 C76_2 1_555 1_555
H95_2 C78_2 1_555 1_555
H96_2 C78_2 1_555 1_555
H97_2 C78_2 1_555 1_555
C69_2 C70_2 1_555 1_555
C71_2 C72_2 1_555 1_555
Zn1_4 O1_4 1_555 1_555
Zn2_2 O2_4 1_555 1_555
Zn3_3 O8_4 1_555 1_555
Zn4_2 O6_4 1_555 1_555
P1_4 O1_4 1_555 1_555
P2_4 O3_4 1_555 1_555
P3_3 O5_3 1_555 1_555
P4_4 O7_4 1_555 1_555
O2_4 P1_4 1_555 1_555
O3_4 Zn2_2 1_555 1_555
O4_3 Zn1_4 1_555 1_555
O5_3 Zn1_4 1_555 1_555
O6_4 P1_4 1_555 1_555
O7_4 Zn2_2 1_555 1_555
O8_4 P2_4 1_555 1_555
O9_3 Zn3_3 1_555 1_555
O10_4 Zn4_2 1_555 1_555
O11_4 Zn4_2 1_555 1_555
O12_4 Zn3_3 1_555 1_555
O13_3 P1_4 1_555 1_555
O14_3 P2_4 1_555 1_555
O15_3 P3_3 1_555 1_555
O16_4 P4_4 1_555 1_555
N1_3 Zn1_4 1_555 1_555
N2_3 C6_3 1_555 1_555
N3_3 Zn3_3 1_555 1_555
N5_3 C96_3 1_555 1_555
C1_3 N1_3 1_555 1_555
H1_4 C1_3 1_555 1_555
C2_3 C1_3 1_555 1_555
H2_3 C2_3 1_555 1_555
C3_3 C2_3 1_555 1_555
C4_3 C3_3 1_555 1_555
H3_3 C4_3 1_555 1_555
C5_3 N1_3 1_555 1_555
H4_3 C5_3 1_555 1_555
C6_3 C3_3 1_555 1_555
H5_3 C6_3 1_555 1_555
C7_3 N2_3 1_555 1_555
C8_3 C7_3 1_555 1_555
C9_3 C8_3 1_555 1_555
H6_3 C9_3 1_555 1_555
C10_3 C9_3 1_555 1_555
C11_3 C10_3 1_555 1_555
H7_3 C11_3 1_555 1_555
C12_3 C7_3 1_555 1_555
C13_3 C8_3 1_555 1_555
H8_3 C13_3 1_555 1_555
C14_3 C13_3 1_555 1_555
H9_3 C14_3 1_555 1_555
H10_3 C14_3 1_555 1_555
H11_3 C14_3 1_555 1_555
C15_3 C13_3 1_555 1_555
H12_3 C15_3 1_555 1_555
H13_3 C15_3 1_555 1_555
H14_3 C15_3 1_555 1_555
C16_3 C12_3 1_555 1_555
H15_3 C16_3 1_555 1_555
C17_3 C16_3 1_555 1_555
H16_3 C17_3 1_555 1_555
H17_3 C17_3 1_555 1_555
H18_3 C17_3 1_555 1_555
C18_3 C16_3 1_555 1_555
H19_3 C18_3 1_555 1_555
H20_3 C18_3 1_555 1_555
H21_3 C18_3 1_555 1_555
C19_3 O13_3 1_555 1_555
C20_3 C19_3 1_555 1_555
C21_3 C20_3 1_555 1_555
H22_3 C21_3 1_555 1_555
C22_3 C21_3 1_555 1_555
H23_3 C22_3 1_555 1_555
C23_3 C22_3 1_555 1_555
H24_3 C23_3 1_555 1_555
C24_3 C19_3 1_555 1_555
C25_3 C20_3 1_555 1_555
H25_3 C25_3 1_555 1_555
C26_3 C25_3 1_555 1_555
H26_3 C26_3 1_555 1_555
H27_3 C26_3 1_555 1_555
H28_3 C26_3 1_555 1_555
C27_3 C25_3 1_555 1_555
H29_3 C27_3 1_555 1_555
H30_3 C27_3 1_555 1_555
H31_3 C27_3 1_555 1_555
C28_4 C24_3 1_555 1_555
H32_4 C28_4 1_555 1_555
C29_4 C28_4 1_555 1_555
H33_4 C29_4 1_555 1_555
H34_4 C29_4 1_555 1_555
H35_4 C29_4 1_555 1_555
C30_4 C28_4 1_555 1_555
H36_4 C30_4 1_555 1_555
H37_4 C30_4 1_555 1_555
H38_4 C30_4 1_555 1_555
C49_3 O14_3 1_555 1_555
C50_3 C49_3 1_555 1_555
C51_3 C50_3 1_555 1_555
H60_3 C51_3 1_555 1_555
C52_3 C51_3 1_555 1_555
H61_3 C52_3 1_555 1_555
C53_3 C52_3 1_555 1_555
H62_3 C53_3 1_555 1_555
C54_4 C49_3 1_555 1_555
C55_3 C50_3 1_555 1_555
H63_3 C55_3 1_555 1_555
C56_3 C55_3 1_555 1_555
H64_3 C56_3 1_555 1_555
H65_3 C56_3 1_555 1_555
H66_3 C56_3 1_555 1_555
C57_3 C55_3 1_555 1_555
H67_3 C57_3 1_555 1_555
H68_3 C57_3 1_555 1_555
H69_3 C57_3 1_555 1_555
C58_4 C54_4 1_555 1_555
H70_4 C58_4 1_555 1_555
C59_4 C58_4 1_555 1_555
H71_4 C59_4 1_555 1_555
H72_3 C59_4 1_555 1_555
H73_4 C59_4 1_555 1_555
C61_3 N3_3 1_555 1_555
C64_3 C63_3 1_555 1_555
H79_3 C64_3 1_555 1_555
C65_3 N3_3 1_555 1_555
H80_3 C65_3 1_555 1_555
C75_3 C73_3 1_555 1_555
H88_3 C75_3 1_555 1_555
H89_3 C75_3 1_555 1_555
H90_3 C75_3 1_555 1_555
C79_3 O15_3 1_555 1_555
C80_3 C79_3 1_555 1_555
C81_3 C80_3 1_555 1_555
H98_3 C81_3 1_555 1_555
C82_3 C81_3 1_555 1_555
H99_3 C82_3 1_555 1_555
C83_3 C82_3 1_555 1_555
H100_3 C83_3 1_555 1_555
C84_3 C79_3 1_555 1_555
C85_3 C80_3 1_555 1_555
H101_3 C85_3 1_555 1_555
C86_3 C85_3 1_555 1_555
H102_4 C86_3 1_555 1_555
H103_3 C86_3 1_555 1_555
H104_3 C86_3 1_555 1_555
C88_3 C84_3 1_555 1_555
H108_3 C88_3 1_555 1_555
C89_3 C88_3 1_555 1_555
H109_3 C89_3 1_555 1_555
H110_3 C89_3 1_555 1_555
H111_3 C89_3 1_555 1_555
C90_3 C88_3 1_555 1_555
H112_3 C90_3 1_555 1_555
H113_3 C90_3 1_555 1_555
H114_3 C90_3 1_555 1_555
C91_3 H115_3 1_555 1_555
C92_3 C91_3 1_555 1_555
H116_3 C92_3 1_555 1_555
C93_3 C92_3 1_555 1_555
C96_3 C93_3 1_555 1_555
H119_3 C96_3 1_555 1_555
C97_3 N5_3 1_555 1_555
C98_3 C97_3 1_555 1_555
C99_3 C98_3 1_555 1_555
H120_3 C99_3 1_555 1_555
C100_3 C10_3 1_555 1_555
C101_3 C100_3 1_555 1_555
H121_3 C101_3 1_555 1_555
C102_3 C97_3 1_555 1_555
C103_3 C98_3 1_555 1_555
H122_3 C103_3 1_555 1_555
C104_3 C103_3 1_555 1_555
H123_3 C104_3 1_555 1_555
H124_3 C104_3 1_555 1_555
H125_3 C104_3 1_555 1_555
C106_3 C102_3 1_555 1_555
H129_3 C106_3 1_555 1_555
C107_3 C106_3 1_555 1_555
H130_3 C107_3 1_555 1_555
H131_3 C107_3 1_555 1_555
H132_3 C107_3 1_555 1_555
C108_3 C106_3 1_555 1_555
H133_3 C108_3 1_555 1_555
H134_3 C108_3 1_555 1_555
H135_3 C108_3 1_555 1_555
C109_4 O16_4 1_555 1_555
C110_4 C109_4 1_555 1_555
C111_4 C110_4 1_555 1_555
C112_4 C111_4 1_555 1_555
H137_4 C112_4 1_555 1_555
C113_4 C112_4 1_555 1_555
H138_4 C113_4 1_555 1_555
C114_4 C109_4 1_555 1_555
C115_4 C110_4 1_555 1_555
H139_4 C115_4 1_555 1_555
C118_4 C114_4 1_555 1_555
H146_4 C118_4 1_555 1_555
C119_4 C118_4 1_555 1_555
H147_4 C119_4 1_555 1_555
C120_4 C118_4 1_555 1_555
H150_4 C120_4 1_555 1_555
H151_4 C120_4 1_555 1_555
H152_4 C120_4 1_555 1_555
N9_2 Zn2_2 1_555 1_555
N10_2 Zn4_2 1_555 1_555
P2_4 O4_3 1_555 1_555
P3_3 O9_3 1_555 1_555
P3_3 O10_4 1_555 1_555
P4_4 O11_4 1_555 1_555
P4_4 O12_4 1_555 1_555
C4_3 C5_3 1_555 1_555
C11_3 C12_3 1_555 1_555
C23_3 C24_3 1_555 1_555
C53_3 C54_4 1_555 1_555
C64_3 C65_3 1_555 1_555
C83_3 C84_3 1_555 1_555
C99_3 C100_3 1_555 1_555
C101_3 C102_3 1_555 1_555
C113_4 C114_4 1_555 1_555
N9_2 C31_4 1_555 1_555
C31_4 H39_4 1_555 1_555
C32_4 C31_4 1_555 1_555
H40_4 C32_4 1_555 1_555
C33_4 C32_4 1_555 1_555
C35_4 N9_2 1_555 1_555
H42_4 C35_4 1_555 1_555
N5_4 C96_4 1_555 1_555
N10_2 C91_4 1_555 1_555
H13_4 C15_4 1_555 1_555
H14_4 C15_4 1_555 1_555
C91_4 H115_4 1_555 1_555
C92_4 C91_4 1_555 1_555
H116_4 C92_4 1_555 1_555
C93_4 C92_4 1_555 1_555
C94_4 C93_4 1_555 1_555
H117_4 C94_4 1_555 1_555
C95_4 N10_2 1_555 1_555
H118_4 C95_4 1_555 1_555
C96_4 C93_4 1_555 1_555
H119_4 C96_4 1_555 1_555
C97_4 N5_4 1_555 1_555
H121_4 C101_4 1_555 1_555
C102_4 C97_4 1_555 1_555
C106_4 C102_4 1_555 1_555
H129_4 C106_4 1_555 1_555
C107_4 C106_4 1_555 1_555
H130_4 C107_4 1_555 1_555
H131_4 C107_4 1_555 1_555
H132_4 C107_4 1_555 1_555
C108_4 C106_4 1_555 1_555
H133_4 C108_4 1_555 1_555
H134_4 C108_4 1_555 1_555
H135_4 C108_4 1_555 1_555
C94_4 C95_4 1_555 1_555
C101_4 C102_4 1_555 1_555
N2_4 C6_4 1_555 1_555
H2_4 C2_4 1_555 1_555
C3_4 C2_4 1_555 1_555
C4_4 C3_4 1_555 1_555
H3_4 C4_4 1_555 1_555
C5_4 N1_4 1_555 1_555
H4_4 C5_4 1_555 1_555
C6_4 C3_4 1_555 1_555
H5_4 C6_4 1_555 1_555
C7_4 N2_4 1_555 1_555
C8_4 C7_4 1_555 1_555
C9_4 C8_4 1_555 1_555
C10_4 C9_4 1_555 1_555
C11_4 C10_4 1_555 1_555
H7_4 C11_4 1_555 1_555
C12_4 C7_4 1_555 1_555
C13_4 C8_4 1_555 1_555
C16_4 C12_4 1_555 1_555
H15_4 C16_4 1_555 1_555
C17_4 C16_4 1_555 1_555
H16_4 C17_4 1_555 1_555
H17_4 C17_4 1_555 1_555
H18_4 C17_4 1_555 1_555
C18_4 C16_4 1_555 1_555
H19_4 C18_4 1_555 1_555
H20_4 C18_4 1_555 1_555
H21_4 C18_4 1_555 1_555
H113_4 C90_4 1_555 1_555
H114_4 C90_4 1_555 1_555
C99_4 C98_4 1_555 1_555
H120_4 C99_4 1_555 1_555
C100_4 C10_4 1_555 1_555
C103_4 C98_4 1_555 1_555
H122_4 C103_4 1_555 1_555
C104_4 C103_4 1_555 1_555
H123_4 C104_4 1_555 1_555
H124_4 C104_4 1_555 1_555
H125_4 C104_4 1_555 1_555
C105_4 C103_4 1_555 1_555
H126_4 C105_4 1_555 1_555
H127_4 C105_4 1_555 1_555
H128_4 C105_4 1_555 1_555
C4_4 C5_4 1_555 1_555
C11_4 C12_4 1_555 1_555
C99_4 C100_4 1_555 1_555
C19_4 O13_4 1_555 1_555
C20_4 C19_4 1_555 1_555
C21_4 C20_4 1_555 1_555
H22_4 C21_4 1_555 1_555
C22_4 C21_4 1_555 1_555
H23_4 C22_4 1_555 1_555
C23_4 C22_4 1_555 1_555
H24_4 C23_4 1_555 1_555
C24_4 C19_4 1_555 1_555
C25_4 C20_4 1_555 1_555
H25_4 C25_4 1_555 1_555
C26_4 C25_4 1_555 1_555
H26_4 C26_4 1_555 1_555
H27_4 C26_4 1_555 1_555
H28_4 C26_4 1_555 1_555
C27_4 C25_4 1_555 1_555
H29_4 C27_4 1_555 1_555
H30_4 C27_4 1_555 1_555
H31_4 C27_4 1_555 1_555
C23_4 C24_4 1_555 1_555
P3_4 O5_4 1_555 1_555
O9_4 Zn3_4 1_555 1_555
O15_4 P3_4 1_555 1_555
N3_4 Zn3_4 1_555 1_555
N7_4 C66_3 1_555 1_555
N8_4 C36_4 1_555 1_555
H9_4 C14_4 1_555 1_555
H10_4 C14_4 1_555 1_555
H41_4 C34_4 1_555 1_555
H43_4 C36_4 1_555 1_555
C37_4 N8_4 1_555 1_555
C38_3 C37_4 1_555 1_555
C39_3 C38_3 1_555 1_555
H44_3 C39_3 1_555 1_555
C40_3 C39_3 1_555 1_555
C41_4 C40_3 1_555 1_555
H45_4 C41_4 1_555 1_555
C42_4 C37_4 1_555 1_555
C43_3 C38_3 1_555 1_555
H46_3 C43_3 1_555 1_555
C44_3 C43_3 1_555 1_555
H47_3 C44_3 1_555 1_555
H48_3 C44_3 1_555 1_555
H49_3 C44_3 1_555 1_555
C45_3 C43_3 1_555 1_555
H50_3 C45_3 1_555 1_555
H51_3 C45_3 1_555 1_555
H52_3 C45_3 1_555 1_555
C46_4 C42_4 1_555 1_555
H53_4 C46_4 1_555 1_555
C47_4 C46_4 1_555 1_555
H54_4 C47_4 1_555 1_555
H55_4 C47_4 1_555 1_555
H56_4 C47_4 1_555 1_555
C48_4 C46_4 1_555 1_555
H57_4 C48_4 1_555 1_555
H58_4 C48_4 1_555 1_555
H59_4 C48_4 1_555 1_555
C49_4 O14_4 1_555 1_555
C50_4 C49_4 1_555 1_555
C51_4 C50_4 1_555 1_555
C55_4 C50_4 1_555 1_555
H63_4 C55_4 1_555 1_555
C56_4 C55_4 1_555 1_555
H64_4 C56_4 1_555 1_555
H65_4 C56_4 1_555 1_555
H66_4 C56_4 1_555 1_555
C57_4 C55_4 1_555 1_555
H67_4 C57_4 1_555 1_555
H68_4 C57_4 1_555 1_555
H69_4 C57_4 1_555 1_555
C61_4 N3_4 1_555 1_555
H77_3 C61_4 1_555 1_555
C62_3 C61_4 1_555 1_555
H78_3 C62_3 1_555 1_555
C63_4 C62_3 1_555 1_555
C64_4 C63_4 1_555 1_555
H79_4 C64_4 1_555 1_555
C65_4 N3_4 1_555 1_555
H80_4 C65_4 1_555 1_555
C66_3 C63_4 1_555 1_555
H81_3 C66_3 1_555 1_555
C67_3 N7_4 1_555 1_555
C68_3 C67_3 1_555 1_555
C69_3 C68_3 1_555 1_555
H82_4 C69_3 1_555 1_555
C70_3 C40_3 1_555 1_555
C71_3 C70_3 1_555 1_555
H83_3 C71_3 1_555 1_555
C72_3 C67_3 1_555 1_555
C73_4 C68_3 1_555 1_555
H84_3 C73_4 1_555 1_555
C74_3 C73_4 1_555 1_555
H85_3 C74_3 1_555 1_555
H86_3 C74_3 1_555 1_555
H87_4 C74_3 1_555 1_555
C75_4 C73_4 1_555 1_555
H88_4 C75_4 1_555 1_555
H89_4 C75_4 1_555 1_555
H90_4 C75_4 1_555 1_555
C76_3 C72_3 1_555 1_555
H91_3 C76_3 1_555 1_555
C77_3 C76_3 1_555 1_555
H92_3 C77_3 1_555 1_555
H93_3 C77_3 1_555 1_555
H94_3 C77_3 1_555 1_555
C78_3 C76_3 1_555 1_555
H95_3 C78_3 1_555 1_555
H96_3 C78_3 1_555 1_555
H97_3 C78_3 1_555 1_555
C79_4 O15_4 1_555 1_555
C80_4 C79_4 1_555 1_555
C81_4 C80_4 1_555 1_555
H98_4 C81_4 1_555 1_555
C82_4 C81_4 1_555 1_555
H99_4 C82_4 1_555 1_555
C83_4 C82_4 1_555 1_555
H100_4 C83_4 1_555 1_555
C84_4 C79_4 1_555 1_555
C85_4 C80_4 1_555 1_555
H101_4 C85_4 1_555 1_555
C86_4 C85_4 1_555 1_555
H103_4 C86_4 1_555 1_555
H104_4 C86_4 1_555 1_555
C87_3 C85_4 1_555 1_555
H105_3 C87_3 1_555 1_555
H106_3 C87_3 1_555 1_555
H107_3 C87_3 1_555 1_555
C88_4 C84_4 1_555 1_555
H108_4 C88_4 1_555 1_555
C89_4 C88_4 1_555 1_555
H109_4 C89_4 1_555 1_555
H110_4 C89_4 1_555 1_555
H111_4 C89_4 1_555 1_555
P3_4 O9_4 1_555 1_555
C41_4 C42_4 1_555 1_555
C64_4 C65_4 1_555 1_555
C69_3 C70_3 1_555 1_555
C71_3 C72_3 1_555 1_555
C83_4 C84_4 1_555 1_555
H61_4 C52_4 1_555 1_555
H62_4 C53_4 1_555 1_555
C39_4 C38_4 1_555 1_555
H44_4 C39_4 1_555 1_555
C40_4 C39_4 1_555 1_555
C43_4 C38_4 1_555 1_555
H46_4 C43_4 1_555 1_555
C44_4 C43_4 1_555 1_555
H47_4 C44_4 1_555 1_555
H48_4 C44_4 1_555 1_555
H49_4 C44_4 1_555 1_555
C45_4 C43_4 1_555 1_555
H50_4 C45_4 1_555 1_555
H51_4 C45_4 1_555 1_555
H52_4 C45_4 1_555 1_555
H74_4 C60_4 1_555 1_555
H75_4 C60_4 1_555 1_555
H76_4 C60_4 1_555 1_555
H78_4 C62_4 1_555 1_555
H81_4 C66_4 1_555 1_555
C68_4 C67_4 1_555 1_555
C69_4 C68_4 1_555 1_555
C70_4 C40_4 1_555 1_555
C71_4 C70_4 1_555 1_555
H83_4 C71_4 1_555 1_555
C72_4 C67_4 1_555 1_555
C76_4 C72_4 1_555 1_555
H91_4 C76_4 1_555 1_555
C77_4 C76_4 1_555 1_555
H92_4 C77_4 1_555 1_555
H93_4 C77_4 1_555 1_555
H94_4 C77_4 1_555 1_555
C78_4 C76_4 1_555 1_555
H95_4 C78_4 1_555 1_555
H96_4 C78_4 1_555 1_555
H97_4 C78_4 1_555 1_555
C69_4 C70_4 1_555 1_555
C71_4 C72_4 1_555 1_555
H85_4 C74_4 1_555 1_555
H86_4 C74_4 1_555 1_555
H105_4 C87_4 1_555 1_555
H106_4 C87_4 1_555 1_555
H107_4 C87_4 1_555 1_555
H140_4 C116_4 1_555 1_555
H141_4 C116_4 1_555 1_555
H142_4 C116_4 1_555 1_555
H144_4 C117_4 1_555 1_555
H145_4 C117_4 1_555 1_555

#END
