
###############################################################################
#
# This file contains modified crystal structure data generated from the
# MOF subset of the Cambridge Structural Database (CSD) v543 
# hosted by the Cambridge Crystallographic Data Centre (CCDC).
#
# This work is licensed under the Creative Commons
# Attribution-NonCommercial-ShareAlike 4.0 International License.
# To view a copy of this license, visit
# http://creativecommons.org/licenses/by-nc-sa/4.0/
# or send a letter to
# Creative Commons, PO Box 1866, Mountain View, CA 94042, USA.
#
# CIF created using the CSD Python API on 29 September 2022
# The structure has been converted into the P1 space group
# The structure has a 3D framework
# The original CSD entry HIBTEU is in the tetragonal crystal system
# The original CSD entry HIBTEU is in a Sohncke space group
# The framework has been calculated to contain at least 10.0% void space
# The void calculation uses a probe of radius 1.32A, grid spacing 0.4
#
###############################################################################

data_HIBTEU
_chemical_formula_moiety         '(C96 H64 Cu8 O40 S8)n'
_symmetry_cell_setting           triclinic
_symmetry_space_group_name_H-M   'P 1'
_symmetry_Int_Tables_number      1
_space_group_name_Hall           'P 1'
loop_
_symmetry_equiv_pos_site_id
_symmetry_equiv_pos_as_xyz
1 x,y,z
_cell_length_a                   10.7632(10)
_cell_length_b                   10.7632(10)
_cell_length_c                   30.626(6)
_cell_angle_alpha                90
_cell_angle_beta                 90
_cell_angle_gamma                90
_cell_volume                     3547.91
loop_
_atom_site_label
_atom_site_type_symbol
_atom_site_fract_x
_atom_site_fract_y
_atom_site_fract_z
C1 C 0.3480(8) 0.6341(8) 0.1904(2)
C2 C 0.4135(8) 0.5638(8) 0.1544(2)
C3 C 0.4051(8) 0.4345(8) 0.1520(3)
H1 H 0.3581 0.3927 0.1728
C4 C 0.4631(9) 0.3677(9) 0.1204(3)
C5 C 0.5388(8) 0.4372(8) 0.0900(3)
H2 H 0.5840 0.3947 0.0688
C6 C 0.5452(8) 0.5640(8) 0.0916(3)
C7 C 0.4832(7) 0.6280(8) 0.1239(2)
H3 H 0.4883 0.7142 0.1253
C8 C 0.6196(8) 0.6329(8) 0.0570(2)
C9 C 0.4529(9) 0.2296(9) 0.1164(3)
C10 C 0.3639(9) 0.1510(7) 0.1425(3)
H4 H 0.3034 0.1770 0.1622
C11 C 0.3954(11) 0.0247(11) 0.1296(4)
C12 C 0.4911(12) 0.0145(11) 0.0984(4)
Cu1 Cu 0.15722(8) 0.67103(8) 0.25198(2)
O1 O 0.0190(6) 0.5348(6) 0.2557(2)
O2 O 0.2675(6) 0.5759(6) 0.21284(18)
O3 O 0.3809(5) 0.7438(5) 0.19611(17)
O4 O 0.5898(6) 0.7428(6) 0.05019(17)
O5 O 0.7055(5) 0.5733(6) 0.03933(17)
S1 S 0.5488(4) 0.1489(3) 0.08266(12)
Cu2 Cu 0.82897(8) 0.65722(8) 0.00198(2)
Cu4 Cu 0.32897(8) 0.84278(8) 0.24802(2)
O6 O 0.2562(5) 0.6191(5) 0.30389(17)
O7 O 0.0898(6) 0.7572(6) 0.19981(17)
O8 O 0.0733(6) 0.7945(5) 0.28933(17)
Cu3 Cu 0.65722(8) 0.82897(8) 0.99802(2)
C6_2 C 0.9360(8) 0.0452(8) 0.8416(3)
C8_2 C 0.8671(8) 0.1196(8) 0.8070(2)
O4_2 O 0.7572(6) 0.0898(6) 0.80019(17)
O5_2 O 0.9267(6) 0.2055(5) 0.78933(17)
Cu2_2 Cu 0.84278(8) 0.32897(8) 0.75198(2)
Cu3_2 Cu 0.67103(8) 0.15722(8) 0.74802(2)
O1_2 O 0.9652(6) 0.5190(6) 0.0057(2)
H8 H 0.9803 0.4995 0.0320
O6_2 O 0.8809(5) 0.7562(5) 0.05389(17)
C1_2 C 0.8659(8) 0.8480(8) 0.9404(2)
C2_2 C 0.9362(8) 0.9135(8) 0.9044(2)
C7_2 C 0.8720(8) 0.9832(7) 0.8739(2)
H3_2 H 0.7858 0.9883 0.8753
H7 H 0.9882 0.4989 0.9801
O2_2 O 0.9241(6) 0.7675(6) 0.96284(18)
O3_2 O 0.7562(5) 0.8809(5) 0.94611(17)
O7_2 O 0.7428(6) 0.5898(6) 0.94981(17)
C1_3 C 0.6520(8) 0.3659(8) 0.6904(2)
C2_3 C 0.5865(8) 0.4362(8) 0.6544(2)
C3_2 C 0.5949(8) 0.5655(8) 0.6520(3)
H1_2 H 0.6419 0.6073 0.6728
C4_2 C 0.5369(9) 0.6323(9) 0.6204(3)
C5_2 C 0.4612(8) 0.5628(8) 0.5900(3)
H2_2 H 0.4160 0.6053 0.5688
C6_3 C 0.4548(8) 0.4360(8) 0.5916(3)
C7_3 C 0.5168(7) 0.3720(8) 0.6239(2)
H3_3 H 0.5117 0.2858 0.6253
C8_3 C 0.3804(8) 0.3671(8) 0.5570(2)
C9_2 C 0.5471(9) 0.7704(9) 0.6164(3)
C10_2 C 0.6361(9) 0.8490(7) 0.6425(3)
H4_2 H 0.6966 0.8230 0.6622
C11_2 C 0.6046(11) 0.9753(11) 0.6296(4)
C12_2 C 0.5089(12) 0.9855(11) 0.5984(4)
O1_3 O 0.9810(6) 0.4652(6) 0.7557(2)
O2_3 O 0.7325(6) 0.4241(6) 0.71284(18)
O3_3 O 0.6191(5) 0.2562(5) 0.69611(17)
O4_3 O 0.4102(6) 0.2572(6) 0.55019(17)
O5_3 O 0.2945(5) 0.4267(6) 0.53933(17)
S1_2 S 0.4512(4) 0.8511(3) 0.58266(12)
Cu2_3 Cu 0.17103(8) 0.34278(8) 0.50198(2)
Cu3_3 Cu 0.34278(8) 0.17103(8) 0.49802(2)
O6_3 O 0.7438(5) 0.3809(5) 0.80389(17)
O7_3 O 0.9102(6) 0.2428(6) 0.69981(17)
C1_4 C 0.1341(8) 0.1520(8) 0.4404(2)
C2_4 C 0.0638(8) 0.0865(8) 0.4044(2)
C7_4 C 0.1280(8) 0.0168(7) 0.3739(2)
H3_4 H 0.2142 0.0117 0.3753
O1_4 O 0.0348(6) 0.4810(6) 0.5057(2)
H7_2 H 0.0118 0.5011 0.4801
H8_2 H 0.0197 0.5005 0.5320
O2_4 O 0.0759(6) 0.2325(6) 0.46284(18)
O3_4 O 0.2438(5) 0.1191(5) 0.44611(17)
O6_4 O 0.1191(5) 0.2438(5) 0.55389(17)
O7_4 O 0.2572(6) 0.4102(6) 0.44981(17)
C6_4 C 0.0640(8) 0.9548(8) 0.3416(3)
C8_4 C 0.1329(8) 0.8804(8) 0.3070(2)
O4_4 O 0.2428(6) 0.9102(6) 0.30019(17)
C6_5 C 0.0452(8) 0.9360(8) 0.1584(3)
C8_5 C 0.1196(8) 0.8671(8) 0.1930(2)
O5_4 O 0.2055(5) 0.9267(6) 0.21067(17)
C1_5 C 0.8480(8) 0.8659(8) 0.0596(2)
C2_5 C 0.9135(8) 0.9362(8) 0.0956(2)
C7_5 C 0.9832(7) 0.8720(8) 0.1261(2)
H3_5 H 0.9883 0.7858 0.1247
H7_3 H 0.4989 0.9882 0.0199
O2_5 O 0.7675(6) 0.9241(6) 0.03716(18)
O1_5 O 0.5190(6) 0.9652(6) 0.9943(2)
H8_3 H 0.4995 0.9803 0.9680
O8_2 O 0.5733(6) 0.7055(5) 0.96067(17)
C1_6 C 0.6341(8) 0.3480(8) 0.8096(2)
C2_6 C 0.5638(8) 0.4135(8) 0.8456(2)
C3_3 C 0.4345(8) 0.4051(8) 0.8480(3)
H1_3 H 0.3927 0.3581 0.8272
C4_3 C 0.3677(9) 0.4631(9) 0.8796(3)
C5_3 C 0.4372(8) 0.5388(8) 0.9100(3)
H2_3 H 0.3947 0.5840 0.9312
C6_6 C 0.5640(8) 0.5452(8) 0.9084(3)
C7_6 C 0.6280(8) 0.4832(7) 0.8761(2)
H3_6 H 0.7142 0.4883 0.8747
C8_6 C 0.6329(8) 0.6196(8) 0.9430(2)
C9_3 C 0.2296(9) 0.4529(9) 0.8836(3)
C10_3 C 0.1510(7) 0.3639(9) 0.8575(3)
H4_3 H 0.1770 0.3034 0.8378
C11_3 C 0.0247(11) 0.3954(11) 0.8704(4)
C12_3 C 0.0145(11) 0.4911(12) 0.9016(4)
O1_6 O 0.5348(6) 0.0190(6) 0.7443(2)
O2_6 O 0.5759(6) 0.2675(6) 0.78716(18)
S1_3 S 0.1489(3) 0.5488(4) 0.91734(12)
O8_3 O 0.7945(5) 0.0733(6) 0.71067(17)
C1_7 C 0.1520(8) 0.1341(8) 0.5596(2)
C2_7 C 0.0865(8) 0.0638(8) 0.5956(2)
C7_7 C 0.0168(7) 0.1280(8) 0.6261(2)
H3_7 H 0.0117 0.2142 0.6247
O1_7 O 0.4810(6) 0.0348(6) 0.4943(2)
H7_4 H 0.5011 0.0118 0.5199
H8_4 H 0.5005 0.0197 0.4680
O2_7 O 0.2325(6) 0.0759(6) 0.53716(18)
O8_4 O 0.4267(6) 0.2945(5) 0.46067(17)
C6_7 C 0.9548(8) 0.0640(8) 0.6584(3)
C8_7 C 0.8804(8) 0.1329(8) 0.6930(2)
C1_8 C 0.3659(8) 0.6520(8) 0.3096(2)
C2_8 C 0.4362(8) 0.5865(8) 0.3456(2)
C3_4 C 0.5655(8) 0.5949(8) 0.3480(3)
H1_4 H 0.6073 0.6419 0.3272
C4_4 C 0.6323(9) 0.5369(9) 0.3796(3)
C5_4 C 0.5628(8) 0.4612(8) 0.4100(3)
H2_4 H 0.6053 0.4160 0.4312
C6_8 C 0.4360(8) 0.4548(8) 0.4084(3)
C7_8 C 0.3720(8) 0.5168(7) 0.3761(2)
H3_8 H 0.2858 0.5117 0.3747
C8_8 C 0.3671(8) 0.3804(8) 0.4430(2)
C9_4 C 0.7704(9) 0.5471(9) 0.3836(3)
C10_4 C 0.8490(7) 0.6361(9) 0.3575(3)
H4_4 H 0.8230 0.6966 0.3378
C11_4 C 0.9753(11) 0.6046(11) 0.3704(4)
C12_4 C 0.9855(11) 0.5089(12) 0.4016(4)
O1_8 O 0.4652(6) 0.9810(6) 0.2443(2)
O2_8 O 0.4241(6) 0.7325(6) 0.28716(18)
S1_4 S 0.8511(3) 0.4512(4) 0.41734(12)
H5 H 0.3552 0.9557 0.1412
H6 H 0.5191 0.9387 0.0877
H7_5 H 0.9989 0.5118 0.2301
H8_5 H 0.9995 0.5197 0.2820
C5_5 C 0.0628(8) 0.0388(8) 0.8400(3)
H2_5 H 0.1053 0.0840 0.8188
H6_2 H 0.5613 0.0191 0.8377
S1_5 S 0.3511(3) 0.0488(4) 0.83266(12)
C3_5 C 0.0655(8) 0.9051(8) 0.9020(3)
H1_5 H 0.1073 0.8581 0.9228
C4_5 C 0.1323(9) 0.9631(9) 0.8704(3)
C9_5 C 0.2704(9) 0.9529(9) 0.8664(3)
C10_5 C 0.3490(7) 0.8639(9) 0.8925(3)
H4_5 H 0.3230 0.8034 0.9122
C11_5 C 0.4753(11) 0.8954(11) 0.8796(4)
H5_2 H 0.5443 0.8552 0.8912
C12_5 C 0.4855(11) 0.9911(12) 0.8484(4)
H7_6 H 0.0011 0.4882 0.7301
H8_6 H 0.0005 0.4803 0.7820
H5_3 H 0.6448 0.0443 0.6412
H6_3 H 0.4809 0.0613 0.5877
C3_6 C 0.9345(8) 0.0949(8) 0.4020(3)
H1_6 H 0.8927 0.1419 0.4228
C4_6 C 0.8677(9) 0.0369(9) 0.3704(3)
C9_6 C 0.7296(9) 0.0471(9) 0.3664(3)
C10_6 C 0.6510(7) 0.1361(9) 0.3925(3)
H4_6 H 0.6770 0.1966 0.4122
C11_6 C 0.5247(11) 0.1046(11) 0.3796(4)
H5_4 H 0.4557 0.1448 0.3912
C12_6 C 0.5145(11) 0.0089(12) 0.3484(4)
C5_6 C 0.9372(8) 0.9612(8) 0.3400(3)
H2_6 H 0.8947 0.9160 0.3188
H6_4 H 0.4387 0.9809 0.3377
S1_6 S 0.6489(3) 0.9512(4) 0.33266(12)
C5_7 C 0.0388(8) 0.0628(8) 0.1600(3)
H2_7 H 0.0840 0.1053 0.1812
H6_5 H 0.0191 0.5613 0.1623
S1_7 S 0.0488(4) 0.3511(3) 0.16734(12)
C3_7 C 0.9051(8) 0.0655(8) 0.0980(3)
H1_7 H 0.8581 0.1073 0.0772
C4_7 C 0.9631(9) 0.1323(9) 0.1296(3)
C9_7 C 0.9529(9) 0.2704(9) 0.1336(3)
C10_7 C 0.8639(9) 0.3490(7) 0.1075(3)
H4_7 H 0.8034 0.3230 0.0878
C11_7 C 0.8954(11) 0.4753(11) 0.1204(4)
H5_5 H 0.8552 0.5443 0.1088
C12_7 C 0.9911(12) 0.4855(11) 0.1516(4)
H7_7 H 0.5118 0.9989 0.7699
H8_7 H 0.5197 0.9995 0.7180
H5_6 H 0.9557 0.3552 0.8588
H6_6 H 0.9387 0.5191 0.9123
C3_8 C 0.0949(8) 0.9345(8) 0.5980(3)
H1_8 H 0.1419 0.8927 0.5772
C4_8 C 0.0369(9) 0.8677(9) 0.6296(3)
C9_8 C 0.0471(9) 0.7296(9) 0.6336(3)
C10_8 C 0.1361(9) 0.6510(7) 0.6075(3)
H4_8 H 0.1966 0.6770 0.5878
C11_8 C 0.1046(11) 0.5247(11) 0.6204(4)
H5_7 H 0.1448 0.4557 0.6088
C12_8 C 0.0089(12) 0.5145(11) 0.6516(4)
C5_8 C 0.9612(8) 0.9372(8) 0.6600(3)
H2_8 H 0.9160 0.8947 0.6812
H6_7 H 0.9809 0.4387 0.6623
S1_8 S 0.9512(4) 0.6489(3) 0.66734(12)
H5_8 H 0.0443 0.6448 0.3588
H6_8 H 0.0613 0.4809 0.4123
H7_8 H 0.4882 0.0011 0.2699
H8_8 H 0.4803 0.0005 0.2180
loop_
_geom_bond_atom_site_label_1
_geom_bond_atom_site_label_2
_geom_bond_site_symmetry_1
_geom_bond_site_symmetry_2
C1 C2 1_555 1_555
C2 C3 1_555 1_555
C3 H1 1_555 1_555
C4 C3 1_555 1_555
C5 C4 1_555 1_555
H2 C5 1_555 1_555
C6 C5 1_555 1_555
C7 C2 1_555 1_555
H3 C7 1_555 1_555
C8 C6 1_555 1_555
C9 C4 1_555 1_555
C10 C9 1_555 1_555
H4 C10 1_555 1_555
C11 C10 1_555 1_555
C12 C11 1_555 1_555
Cu1 O1 1_555 1_555
O2 C1 1_555 1_555
O3 C1 1_555 1_555
O4 C8 1_555 1_555
O5 C8 1_555 1_555
S1 C9 1_555 1_555
Cu2 O5 1_555 1_555
Cu4 Cu1 1_555 1_555
O6 Cu1 1_555 1_555
O7 Cu1 1_555 1_555
O8 Cu1 1_555 1_555
C6 C7 1_555 1_555
C12 S1 1_555 1_555
Cu1 O2 1_555 1_555
O3 Cu4 1_555 1_555
C8_2 C6_2 1_555 1_555
O4_2 C8_2 1_555 1_555
O5_2 C8_2 1_555 1_555
Cu2_2 O5_2 1_555 1_555
Cu3_2 O4_2 1_555 1_555
Cu2_2 Cu3_2 1_555 1_555
Cu2 O1_2 1_555 1_555
H8 O1_2 1_555 1_555
O6_2 Cu2 1_555 1_555
C1_2 C2_2 1_555 1_555
C7_2 C2_2 1_555 1_555
H3_2 C7_2 1_555 1_555
O2_2 C1_2 1_555 1_555
O3_2 C1_2 1_555 1_555
O3_2 Cu3 1_555 1_555
C1_3 C2_3 1_555 1_555
C2_3 C3_2 1_555 1_555
C3_2 H1_2 1_555 1_555
C4_2 C3_2 1_555 1_555
C5_2 C4_2 1_555 1_555
H2_2 C5_2 1_555 1_555
C6_3 C5_2 1_555 1_555
C7_3 C2_3 1_555 1_555
H3_3 C7_3 1_555 1_555
C8_3 C6_3 1_555 1_555
C9_2 C4_2 1_555 1_555
C10_2 C9_2 1_555 1_555
H4_2 C10_2 1_555 1_555
C11_2 C10_2 1_555 1_555
C12_2 C11_2 1_555 1_555
Cu2_2 O1_3 1_555 1_555
O2_3 C1_3 1_555 1_555
O3_3 C1_3 1_555 1_555
O4_3 C8_3 1_555 1_555
O5_3 C8_3 1_555 1_555
S1_2 C9_2 1_555 1_555
Cu2_3 O5_3 1_555 1_555
Cu3_3 O4_3 1_555 1_555
O6_3 Cu2_2 1_555 1_555
O7_3 Cu2_2 1_555 1_555
C6_3 C7_3 1_555 1_555
C12_2 S1_2 1_555 1_555
Cu2_2 O2_3 1_555 1_555
O3_3 Cu3_2 1_555 1_555
Cu2_3 Cu3_3 1_555 1_555
C1_4 C2_4 1_555 1_555
C7_4 C2_4 1_555 1_555
H3_4 C7_4 1_555 1_555
Cu2_3 O1_4 1_555 1_555
O1_4 H7_2 1_555 1_555
H8_2 O1_4 1_555 1_555
O2_4 C1_4 1_555 1_555
O3_4 C1_4 1_555 1_555
O6_4 Cu2_3 1_555 1_555
O7_4 Cu2_3 1_555 1_555
Cu2_3 O2_4 1_555 1_555
O3_4 Cu3_3 1_555 1_555
C8_4 C6_4 1_555 1_555
O4_4 C8_4 1_555 1_555
O8 C8_4 1_555 1_555
Cu4 O4_4 1_555 1_555
C8_5 C6_5 1_555 1_555
O7 C8_5 1_555 1_555
O5_4 C8_5 1_555 1_555
Cu4 O5_4 1_555 1_555
C1_5 C2_5 1_555 1_555
C7_5 C2_5 1_555 1_555
H3_5 C7_5 1_555 1_555
O2_5 C1_5 1_555 1_555
O6_2 C1_5 1_555 1_555
Cu3 O1_5 1_555 1_555
H8_3 O1_5 1_555 1_555
O8_2 Cu3 1_555 1_555
C1_6 C2_6 1_555 1_555
C2_6 C3_3 1_555 1_555
C3_3 H1_3 1_555 1_555
C4_3 C3_3 1_555 1_555
C5_3 C4_3 1_555 1_555
H2_3 C5_3 1_555 1_555
C6_6 C5_3 1_555 1_555
C7_6 C2_6 1_555 1_555
H3_6 C7_6 1_555 1_555
C8_6 C6_6 1_555 1_555
C9_3 C4_3 1_555 1_555
C10_3 C9_3 1_555 1_555
H4_3 C10_3 1_555 1_555
C11_3 C10_3 1_555 1_555
C12_3 C11_3 1_555 1_555
Cu3_2 O1_6 1_555 1_555
O2_6 C1_6 1_555 1_555
O6_3 C1_6 1_555 1_555
O7_2 C8_6 1_555 1_555
O8_2 C8_6 1_555 1_555
S1_3 C9_3 1_555 1_555
O8_3 Cu3_2 1_555 1_555
C6_6 C7_6 1_555 1_555
C12_3 S1_3 1_555 1_555
Cu3_2 O2_6 1_555 1_555
C1_7 C2_7 1_555 1_555
C7_7 C2_7 1_555 1_555
H3_7 C7_7 1_555 1_555
Cu3_3 O1_7 1_555 1_555
O1_7 H7_4 1_555 1_555
H8_4 O1_7 1_555 1_555
O2_7 C1_7 1_555 1_555
O6_4 C1_7 1_555 1_555
O8_4 Cu3_3 1_555 1_555
Cu3_3 O2_7 1_555 1_555
C8_7 C6_7 1_555 1_555
O7_3 C8_7 1_555 1_555
O8_3 C8_7 1_555 1_555
C1_8 C2_8 1_555 1_555
C2_8 C3_4 1_555 1_555
C3_4 H1_4 1_555 1_555
C4_4 C3_4 1_555 1_555
C5_4 C4_4 1_555 1_555
H2_4 C5_4 1_555 1_555
C6_8 C5_4 1_555 1_555
C7_8 C2_8 1_555 1_555
H3_8 C7_8 1_555 1_555
C8_8 C6_8 1_555 1_555
C9_4 C4_4 1_555 1_555
C10_4 C9_4 1_555 1_555
H4_4 C10_4 1_555 1_555
C11_4 C10_4 1_555 1_555
C12_4 C11_4 1_555 1_555
Cu4 O1_8 1_555 1_555
O2_8 C1_8 1_555 1_555
O6 C1_8 1_555 1_555
O7_4 C8_8 1_555 1_555
O8_4 C8_8 1_555 1_555
S1_4 C9_4 1_555 1_555
C6_8 C7_8 1_555 1_555
C12_4 S1_4 1_555 1_555
Cu4 O2_8 1_555 1_555
H2_5 C5_5 1_555 1_555
C3_5 H1_5 1_555 1_555
C4_5 C3_5 1_555 1_555
C9_5 C4_5 1_555 1_555
C10_5 C9_5 1_555 1_555
H4_5 C10_5 1_555 1_555
C11_5 C10_5 1_555 1_555
H5_2 C11_5 1_555 1_555
C12_5 C11_5 1_555 1_555
C3_6 H1_6 1_555 1_555
C4_6 C3_6 1_555 1_555
C9_6 C4_6 1_555 1_555
C10_6 C9_6 1_555 1_555
H4_6 C10_6 1_555 1_555
C11_6 C10_6 1_555 1_555
H5_4 C11_6 1_555 1_555
C12_6 C11_6 1_555 1_555
H2_6 C5_6 1_555 1_555
H2_7 C5_7 1_555 1_555
C3_7 H1_7 1_555 1_555
C4_7 C3_7 1_555 1_555
C9_7 C4_7 1_555 1_555
C10_7 C9_7 1_555 1_555
H4_7 C10_7 1_555 1_555
C11_7 C10_7 1_555 1_555
H5_5 C11_7 1_555 1_555
C12_7 C11_7 1_555 1_555
C3_8 H1_8 1_555 1_555
C4_8 C3_8 1_555 1_555
C9_8 C4_8 1_555 1_555
C10_8 C9_8 1_555 1_555
H4_8 C10_8 1_555 1_555
C11_8 C10_8 1_555 1_555
H5_7 C11_8 1_555 1_555
C12_8 C11_8 1_555 1_555
H2_8 C5_8 1_555 1_555

#END
