
###############################################################################
#
# This file contains modified crystal structure data generated from the
# MOF subset of the Cambridge Structural Database (CSD) v543 
# hosted by the Cambridge Crystallographic Data Centre (CCDC).
#
# This work is licensed under the Creative Commons
# Attribution-NonCommercial-ShareAlike 4.0 International License.
# To view a copy of this license, visit
# http://creativecommons.org/licenses/by-nc-sa/4.0/
# or send a letter to
# Creative Commons, PO Box 1866, Mountain View, CA 94042, USA.
#
# CIF created using the CSD Python API on 29 September 2022
# The structure has been converted into the P1 space group
# The structure has a 3D framework
# The original CSD entry HICCUU is in the orthorhombic crystal system
# The framework has been calculated to contain at least 10.0% void space
# The void calculation uses a probe of radius 1.32A, grid spacing 0.4
# H atom positions have been added when not included in the experimental data
# Generated hydrogen atom positions removed from atoms on special positions
#
###############################################################################

data_HICCUU
_chemical_formula_moiety         '(C176 H184 Hf16 O66)n'
_symmetry_cell_setting           triclinic
_symmetry_space_group_name_H-M   'P 1'
_symmetry_Int_Tables_number      1
_space_group_name_Hall           'P 1'
loop_
_symmetry_equiv_pos_site_id
_symmetry_equiv_pos_as_xyz
1 x,y,z
_cell_length_a                   20.5524(17)
_cell_length_b                   34.409(2)
_cell_length_c                   21.0160(16)
_cell_angle_alpha                90
_cell_angle_beta                 90
_cell_angle_gamma                90
_cell_volume                     14862.3
loop_
_atom_site_label
_atom_site_type_symbol
_atom_site_fract_x
_atom_site_fract_y
_atom_site_fract_z
Hf1 Hf -0.0000 0.070626(17) 0.5000
Hf2 Hf 0.08551(3) -0.0000 0.41616(2)
O1 O 0.0867(5) 0.0344(3) 0.5000
O2 O 0.0643(3) 0.10376(15) 0.4380(3)
O3 O 0.0000 0.0348(3) 0.4147(5)
O4 O 0.0787(5) 0.0000 0.3140(4)
O5 O 0.1191(4) 0.05878(17) 0.3817(3)
O6 O 0.1920(5) 0.0000 0.4218(5)
C1 C 0.1027(7) 0.0932(3) 0.3960(5)
C2 C 0.1397(6) 0.1249(3) 0.3588(5)
C3 C 0.1748(6) 0.1171(3) 0.3073(4)
H1 H 0.1816 0.0910 0.2939
C4 C 0.2500 0.2500 0.2868(5)
H2 H 0.2500 0.2500 0.3320
C5 C 0.1970(6) 0.1853(3) 0.2920(4)
C6 C 0.2243(7) 0.2188(3) 0.1894(4)
H3 H 0.2085 0.1972 0.1659
C7 C 0.2015(7) 0.1481(3) 0.2733(5)
H4 H 0.2241 0.1426 0.2349
C8 C 0.2211(6) 0.2184(3) 0.2557(4)
C9 C 0.1293(7) 0.1633(2) 0.3790(4)
H5 H 0.1032 0.1689 0.4152
C10 C 0.1575(7) 0.1919(3) 0.3456(5)
H6 H 0.1505 0.2179 0.3588
C11 C 0.2500 0.2500 0.1579(5)
C12 C 0.2500 0.2500 0.0873(7)
C13 C 0.2500 0.2500 0.0336(7)
O7 O 0.4357(3) 0.39624(15) 0.4380(3)
O8 O 0.3809(4) 0.44122(17) 0.3817(3)
C14 C 0.3973(7) 0.4068(3) 0.3960(5)
C15 C 0.3603(6) 0.3751(3) 0.3588(5)
C16 C 0.3252(6) 0.3829(3) 0.3073(4)
H7 H 0.3184 0.4090 0.2939
C17 C 0.3030(6) 0.3147(3) 0.2920(4)
C18 C 0.2757(7) 0.2812(3) 0.1894(4)
H8 H 0.2915 0.3028 0.1659
C19 C 0.2985(7) 0.3519(3) 0.2733(5)
H9 H 0.2759 0.3574 0.2349
C20 C 0.2789(6) 0.2816(3) 0.2557(4)
C21 C 0.3707(7) 0.3367(2) 0.3790(4)
H10 H 0.3968 0.3311 0.4152
C22 C 0.3425(7) 0.3081(3) 0.3456(5)
H11 H 0.3495 0.2821 0.3588
Hf7 Hf 0.5000 0.429374(17) 0.5000
Hf10 Hf 0.08551(3) 0.0000 0.58384(2)
Hf11 Hf 0.41449(3) 0.5000 0.41616(2)
O20 O 0.0643(3) 0.10376(15) 0.5620(3)
O22 O -0.0000 0.0348(3) 0.5853(5)
O10 O 0.1191(4) 0.05878(17) 0.6183(3)
C23 C 0.1027(7) 0.0932(3) 0.6040(5)
C24 C 0.1397(6) 0.1249(3) 0.6412(5)
C25 C 0.1748(6) 0.1171(3) 0.6927(4)
H12 H 0.1816 0.0910 0.7061
C26 C 0.2500 0.2500 0.7132(5)
H13 H 0.2500 0.2500 0.6680
C27 C 0.1970(6) 0.1853(3) 0.7080(4)
C28 C 0.2243(7) 0.2188(3) 0.8106(4)
H14 H 0.2085 0.1972 0.8341
C29 C 0.2015(7) 0.1481(3) 0.7267(5)
H15 H 0.2241 0.1426 0.7651
C30 C 0.2211(6) 0.2184(3) 0.7443(4)
C31 C 0.1293(7) 0.1633(2) 0.6210(4)
H16 H 0.1032 0.1689 0.5848
C32 C 0.1575(7) 0.1919(3) 0.6544(5)
H17 H 0.1505 0.2179 0.6412
C33 C 0.2500 0.2500 0.8421(5)
C34 C 0.2500 0.2500 0.9127(7)
C35 C 0.2500 0.2500 0.9664(7)
O11 O 0.4357(3) 0.39624(15) 0.5620(3)
O12 O 0.3809(4) 0.44122(17) 0.6183(3)
C36 C 0.3973(7) 0.4068(3) 0.6040(5)
C37 C 0.3603(6) 0.3751(3) 0.6412(5)
C38 C 0.3252(6) 0.3829(3) 0.6927(4)
H18 H 0.3184 0.4090 0.7061
C39 C 0.3030(6) 0.3147(3) 0.7080(4)
C40 C 0.2757(7) 0.2812(3) 0.8106(4)
H19 H 0.2915 0.3028 0.8341
C41 C 0.2985(7) 0.3519(3) 0.7267(5)
H20 H 0.2759 0.3574 0.7651
C42 C 0.2789(6) 0.2816(3) 0.7443(4)
C43 C 0.3707(7) 0.3367(2) 0.6210(4)
H21 H 0.3968 0.3311 0.5848
C44 C 0.3425(7) 0.3081(3) 0.6544(5)
H22 H 0.3495 0.2821 0.6412
Hf12 Hf 0.41449(3) 0.5000 0.58384(2)
Hf2_2 Hf 0.08551(3) 1.0000 0.41616(2)
O4_2 O 0.0787(5) 1.0000 0.3140(4)
O6_2 O 0.1920(5) 1.0000 0.4218(5)
O14 O 0.0000 0.9652(3) 0.4147(5)
Hf5 Hf -0.0000 0.929374(17) 0.5000
Hf10_2 Hf 0.08551(3) 1.0000 0.58384(2)
O18 O 0.0867(5) 0.9656(3) 0.5000
O24 O 0.1191(4) 0.94122(17) 0.3817(3)
Hf1_2 Hf 1.0000 0.070626(17) 0.5000
O3_2 O 1.0000 0.0348(3) 0.4147(5)
Hf3 Hf 0.91449(3) -0.0000 0.41616(2)
O15 O 0.9213(5) 0.0000 0.3140(4)
O16 O 0.8080(5) 0.0000 0.4218(5)
Hf8 Hf 0.91449(3) 0.0000 0.58384(2)
O17 O 0.9133(5) 0.0344(3) 0.5000
O19 O 0.9357(3) 0.10376(15) 0.5620(3)
O21 O 0.9357(3) 0.10376(15) 0.4380(3)
O22_2 O 1.0000 0.0348(3) 0.5853(5)
O25 O 0.8809(4) 0.05878(17) 0.3817(3)
Hf3_2 Hf 0.91449(3) 1.0000 0.41616(2)
O13 O 0.9133(5) 0.9656(3) 0.5000
O14_2 O 1.0000 0.9652(3) 0.4147(5)
O15_2 O 0.9213(5) 1.0000 0.3140(4)
O16_2 O 0.8080(5) 1.0000 0.4218(5)
Hf5_2 Hf 1.0000 0.929374(17) 0.5000
Hf8_2 Hf 0.91449(3) 1.0000 0.58384(2)
O23 O 0.8809(4) 0.94122(17) 0.3817(3)
O19_2 O 0.0643(3) 0.89624(15) 0.5620(3)
O21_2 O 0.0643(3) 0.89624(15) 0.4380(3)
O22_3 O 0.0000 0.9652(3) 0.5853(5)
O2_2 O 0.9357(3) 0.89624(15) 0.4380(3)
C1_2 C 0.8973(7) 0.9068(3) 0.3960(5)
C2_2 C 0.8603(6) 0.8751(3) 0.3588(5)
C3_2 C 0.8252(6) 0.8829(3) 0.3073(4)
H1_2 H 0.8184 0.9090 0.2939
C4_2 C 0.7500 0.7500 0.2868(5)
H2_2 H 0.7500 0.7500 0.3320
C5_2 C 0.8030(6) 0.8147(3) 0.2920(4)
C6_2 C 0.7757(7) 0.7812(3) 0.1894(4)
H3_2 H 0.7915 0.8028 0.1659
C7_2 C 0.7985(7) 0.8519(3) 0.2733(5)
H4_2 H 0.7759 0.8574 0.2349
C8_2 C 0.7789(6) 0.7816(3) 0.2557(4)
C9_2 C 0.8707(7) 0.8367(2) 0.3790(4)
H5_2 H 0.8968 0.8311 0.4152
C10_2 C 0.8425(7) 0.8081(3) 0.3456(5)
H6_2 H 0.8495 0.7821 0.3588
C11_2 C 0.7500 0.7500 0.1579(5)
C12_2 C 0.7500 0.7500 0.0873(7)
C13_2 C 0.7500 0.7500 0.0336(7)
O7_2 O 0.5643(3) 0.60376(15) 0.4380(3)
O8_2 O 0.6191(4) 0.55878(17) 0.3817(3)
C14_2 C 0.6027(7) 0.5932(3) 0.3960(5)
C15_2 C 0.6397(6) 0.6249(3) 0.3588(5)
C16_2 C 0.6748(6) 0.6171(3) 0.3073(4)
H7_2 H 0.6816 0.5910 0.2939
C17_2 C 0.6970(6) 0.6853(3) 0.2920(4)
C18_2 C 0.7243(7) 0.7188(3) 0.1894(4)
H8_2 H 0.7085 0.6972 0.1659
C19_2 C 0.7015(7) 0.6481(3) 0.2733(5)
H9_2 H 0.7241 0.6426 0.2349
C20_2 C 0.7211(6) 0.7184(3) 0.2557(4)
C21_2 C 0.6293(7) 0.6633(2) 0.3790(4)
H10_2 H 0.6032 0.6689 0.4152
C22_2 C 0.6575(7) 0.6919(3) 0.3456(5)
H11_2 H 0.6505 0.7179 0.3588
Hf7_2 Hf 0.5000 0.570626(17) 0.5000
Hf11_2 Hf 0.58551(3) 0.5000 0.41616(2)
O20_2 O 0.9357(3) 0.89624(15) 0.5620(3)
O22_4 O 1.0000 0.9652(3) 0.5853(5)
O10_2 O 0.8809(4) 0.94122(17) 0.6183(3)
C23_2 C 0.8973(7) 0.9068(3) 0.6040(5)
C24_2 C 0.8603(6) 0.8751(3) 0.6412(5)
C25_2 C 0.8252(6) 0.8829(3) 0.6927(4)
H12_2 H 0.8184 0.9090 0.7061
C26_2 C 0.7500 0.7500 0.7132(5)
H13_2 H 0.7500 0.7500 0.6680
C27_2 C 0.8030(6) 0.8147(3) 0.7080(4)
C28_2 C 0.7757(7) 0.7812(3) 0.8106(4)
H14_2 H 0.7915 0.8028 0.8341
C29_2 C 0.7985(7) 0.8519(3) 0.7267(5)
H15_2 H 0.7759 0.8574 0.7651
C30_2 C 0.7789(6) 0.7816(3) 0.7443(4)
C31_2 C 0.8707(7) 0.8367(2) 0.6210(4)
H16_2 H 0.8968 0.8311 0.5848
C32_2 C 0.8425(7) 0.8081(3) 0.6544(5)
H17_2 H 0.8495 0.7821 0.6412
C33_2 C 0.7500 0.7500 0.8421(5)
C34_2 C 0.7500 0.7500 0.9127(7)
C35_2 C 0.7500 0.7500 0.9664(7)
O11_2 O 0.5643(3) 0.60376(15) 0.5620(3)
O12_2 O 0.6191(4) 0.55878(17) 0.6183(3)
C36_2 C 0.6027(7) 0.5932(3) 0.6040(5)
C37_2 C 0.6397(6) 0.6249(3) 0.6412(5)
C38_2 C 0.6748(6) 0.6171(3) 0.6927(4)
H18_2 H 0.6816 0.5910 0.7061
C39_2 C 0.6970(6) 0.6853(3) 0.7080(4)
C40_2 C 0.7243(7) 0.7188(3) 0.8106(4)
H19_2 H 0.7085 0.6972 0.8341
C41_2 C 0.7015(7) 0.6481(3) 0.7267(5)
H20_2 H 0.7241 0.6426 0.7651
C42_2 C 0.7211(6) 0.7184(3) 0.7443(4)
C43_2 C 0.6293(7) 0.6633(2) 0.6210(4)
H21_2 H 0.6032 0.6689 0.5848
C44_2 C 0.6575(7) 0.6919(3) 0.6544(5)
H22_2 H 0.6505 0.7179 0.6412
Hf12_2 Hf 0.58551(3) 0.5000 0.58384(2)
O15_3 O 0.0787(5) 0.0000 0.6860(4)
O16_3 O 0.1920(5) 0.0000 0.5782(5)
O15_4 O 0.0787(5) 1.0000 0.6860(4)
O16_4 O 0.1920(5) 1.0000 0.5782(5)
O23_2 O 0.1191(4) 0.94122(17) 0.6183(3)
C23_3 C 0.8973(7) 0.0932(3) 0.3960(5)
C24_3 C 0.8603(6) 0.1249(3) 0.3588(5)
C25_3 C 0.8252(6) 0.1171(3) 0.3073(4)
H12_3 H 0.8184 0.0910 0.2939
C26_3 C 0.7500 0.2500 0.2868(5)
H13_3 H 0.7500 0.2500 0.3320
C27_3 C 0.8030(6) 0.1853(3) 0.2920(4)
C28_3 C 0.7757(7) 0.2188(3) 0.1894(4)
H14_3 H 0.7915 0.1972 0.1659
C29_3 C 0.7985(7) 0.1481(3) 0.2733(5)
H15_3 H 0.7759 0.1426 0.2349
C30_3 C 0.7789(6) 0.2184(3) 0.2557(4)
C31_3 C 0.8707(7) 0.1633(2) 0.3790(4)
H16_3 H 0.8968 0.1689 0.4152
C32_3 C 0.8425(7) 0.1919(3) 0.3456(5)
H17_3 H 0.8495 0.2179 0.3588
C33_3 C 0.7500 0.2500 0.1579(5)
C34_3 C 0.7500 0.2500 0.0873(7)
C35_3 C 0.7500 0.2500 0.0336(7)
O11_3 O 0.5643(3) 0.39624(15) 0.4380(3)
O12_3 O 0.6191(4) 0.44122(17) 0.3817(3)
C36_3 C 0.6027(7) 0.4068(3) 0.3960(5)
C37_3 C 0.6397(6) 0.3751(3) 0.3588(5)
C38_3 C 0.6748(6) 0.3829(3) 0.3073(4)
H18_3 H 0.6816 0.4090 0.2939
C39_3 C 0.6970(6) 0.3147(3) 0.2920(4)
C40_3 C 0.7243(7) 0.2812(3) 0.1894(4)
H19_3 H 0.7085 0.3028 0.1659
C41_3 C 0.7015(7) 0.3519(3) 0.2733(5)
H20_3 H 0.7241 0.3574 0.2349
C42_3 C 0.7211(6) 0.2816(3) 0.2557(4)
C43_3 C 0.6293(7) 0.3367(2) 0.3790(4)
H21_3 H 0.6032 0.3311 0.4152
C44_3 C 0.6575(7) 0.3081(3) 0.3456(5)
H22_3 H 0.6505 0.2821 0.3588
O4_3 O 0.9213(5) 0.0000 0.6860(4)
O5_2 O 0.8809(4) 0.05878(17) 0.6183(3)
O6_3 O 0.8080(5) 0.0000 0.5782(5)
C1_3 C 0.8973(7) 0.0932(3) 0.6040(5)
C2_3 C 0.8603(6) 0.1249(3) 0.6412(5)
C3_3 C 0.8252(6) 0.1171(3) 0.6927(4)
H1_3 H 0.8184 0.0910 0.7061
C4_3 C 0.7500 0.2500 0.7132(5)
H2_3 H 0.7500 0.2500 0.6680
C5_3 C 0.8030(6) 0.1853(3) 0.7080(4)
C6_3 C 0.7757(7) 0.2188(3) 0.8106(4)
H3_3 H 0.7915 0.1972 0.8341
C7_3 C 0.7985(7) 0.1481(3) 0.7267(5)
H4_3 H 0.7759 0.1426 0.7651
C8_3 C 0.7789(6) 0.2184(3) 0.7443(4)
C9_3 C 0.8707(7) 0.1633(2) 0.6210(4)
H5_3 H 0.8968 0.1689 0.5848
C10_3 C 0.8425(7) 0.1919(3) 0.6544(5)
H6_3 H 0.8495 0.2179 0.6412
C11_3 C 0.7500 0.2500 0.8421(5)
C12_3 C 0.7500 0.2500 0.9127(7)
C13_3 C 0.7500 0.2500 0.9664(7)
O7_3 O 0.5643(3) 0.39624(15) 0.5620(3)
O8_3 O 0.6191(4) 0.44122(17) 0.6183(3)
C14_3 C 0.6027(7) 0.4068(3) 0.6040(5)
C15_3 C 0.6397(6) 0.3751(3) 0.6412(5)
C16_3 C 0.6748(6) 0.3829(3) 0.6927(4)
H7_3 H 0.6816 0.4090 0.7061
C17_3 C 0.6970(6) 0.3147(3) 0.7080(4)
C18_3 C 0.7243(7) 0.2812(3) 0.8106(4)
H8_3 H 0.7085 0.3028 0.8341
C19_3 C 0.7015(7) 0.3519(3) 0.7267(5)
H9_3 H 0.7241 0.3574 0.7651
C20_3 C 0.7211(6) 0.2816(3) 0.7443(4)
C21_3 C 0.6293(7) 0.3367(2) 0.6210(4)
H10_3 H 0.6032 0.3311 0.5848
C22_3 C 0.6575(7) 0.3081(3) 0.6544(5)
H11_3 H 0.6505 0.2821 0.6412
O4_4 O 0.9213(5) 1.0000 0.6860(4)
O6_4 O 0.8080(5) 1.0000 0.5782(5)
C23_4 C 0.1027(7) 0.9068(3) 0.3960(5)
C24_4 C 0.1397(6) 0.8751(3) 0.3588(5)
C25_4 C 0.1748(6) 0.8829(3) 0.3073(4)
H12_4 H 0.1816 0.9090 0.2939
C26_4 C 0.2500 0.7500 0.2868(5)
H13_4 H 0.2500 0.7500 0.3320
C27_4 C 0.1970(6) 0.8147(3) 0.2920(4)
C28_4 C 0.2243(7) 0.7812(3) 0.1894(4)
H14_4 H 0.2085 0.8028 0.1659
C29_4 C 0.2015(7) 0.8519(3) 0.2733(5)
H15_4 H 0.2241 0.8574 0.2349
C30_4 C 0.2211(6) 0.7816(3) 0.2557(4)
C31_4 C 0.1293(7) 0.8367(2) 0.3790(4)
H16_4 H 0.1032 0.8311 0.4152
C32_4 C 0.1575(7) 0.8081(3) 0.3456(5)
H17_4 H 0.1505 0.7821 0.3588
C33_4 C 0.2500 0.7500 0.1579(5)
C34_4 C 0.2500 0.7500 0.0873(7)
C35_4 C 0.2500 0.7500 0.0336(7)
O11_4 O 0.4357(3) 0.60376(15) 0.4380(3)
O12_4 O 0.3809(4) 0.55878(17) 0.3817(3)
C36_4 C 0.3973(7) 0.5932(3) 0.3960(5)
C37_4 C 0.3603(6) 0.6249(3) 0.3588(5)
C38_4 C 0.3252(6) 0.6171(3) 0.3073(4)
H18_4 H 0.3184 0.5910 0.2939
C39_4 C 0.3030(6) 0.6853(3) 0.2920(4)
C40_4 C 0.2757(7) 0.7188(3) 0.1894(4)
H19_4 H 0.2915 0.6972 0.1659
C41_4 C 0.2985(7) 0.6481(3) 0.2733(5)
H20_4 H 0.2759 0.6426 0.2349
C42_4 C 0.2789(6) 0.7184(3) 0.2557(4)
C43_4 C 0.3707(7) 0.6633(2) 0.3790(4)
H21_4 H 0.3968 0.6689 0.4152
C44_4 C 0.3425(7) 0.6919(3) 0.3456(5)
H22_4 H 0.3495 0.7179 0.3588
C1_4 C 0.1027(7) 0.9068(3) 0.6040(5)
C2_4 C 0.1397(6) 0.8751(3) 0.6412(5)
C3_4 C 0.1748(6) 0.8829(3) 0.6927(4)
H1_4 H 0.1816 0.9090 0.7061
C4_4 C 0.2500 0.7500 0.7132(5)
H2_4 H 0.2500 0.7500 0.6680
C5_4 C 0.1970(6) 0.8147(3) 0.7080(4)
C6_4 C 0.2243(7) 0.7812(3) 0.8106(4)
H3_4 H 0.2085 0.8028 0.8341
C7_4 C 0.2015(7) 0.8519(3) 0.7267(5)
H4_4 H 0.2241 0.8574 0.7651
C8_4 C 0.2211(6) 0.7816(3) 0.7443(4)
C9_4 C 0.1293(7) 0.8367(2) 0.6210(4)
H5_4 H 0.1032 0.8311 0.5848
C10_4 C 0.1575(7) 0.8081(3) 0.6544(5)
H6_4 H 0.1505 0.7821 0.6412
C11_4 C 0.2500 0.7500 0.8421(5)
C12_4 C 0.2500 0.7500 0.9127(7)
C13_4 C 0.2500 0.7500 0.9664(7)
O7_4 O 0.4357(3) 0.60376(15) 0.5620(3)
O8_4 O 0.3809(4) 0.55878(17) 0.6183(3)
C14_4 C 0.3973(7) 0.5932(3) 0.6040(5)
C15_4 C 0.3603(6) 0.6249(3) 0.6412(5)
C16_4 C 0.3252(6) 0.6171(3) 0.6927(4)
H7_4 H 0.3184 0.5910 0.7061
C17_4 C 0.3030(6) 0.6853(3) 0.7080(4)
C18_4 C 0.2757(7) 0.7188(3) 0.8106(4)
H8_4 H 0.2915 0.6972 0.8341
C19_4 C 0.2985(7) 0.6481(3) 0.7267(5)
H9_4 H 0.2759 0.6426 0.7651
C20_4 C 0.2789(6) 0.7184(3) 0.7443(4)
C21_4 C 0.3707(7) 0.6633(2) 0.6210(4)
H10_4 H 0.3968 0.6689 0.5848
C22_4 C 0.3425(7) 0.6919(3) 0.6544(5)
H11_4 H 0.3495 0.7179 0.6412
O1_2 O 0.5867(5) 0.5344(3) 0.5000
O3_3 O 0.5000 0.5348(3) 0.4147(5)
O4_5 O 0.5787(5) 0.5000 0.3140(4)
O6_5 O 0.6920(5) 0.5000 0.4218(5)
O13_2 O 0.4133(5) 0.4656(3) 0.5000
O14_3 O 0.5000 0.4652(3) 0.4147(5)
O15_5 O 0.4213(5) 0.5000 0.3140(4)
O16_5 O 0.3080(5) 0.5000 0.4218(5)
O17_2 O 0.4133(5) 0.5344(3) 0.5000
O18_2 O 0.5867(5) 0.4656(3) 0.5000
O22_5 O 0.5000 0.5348(3) 0.5853(5)
O22_6 O 0.5000 0.4652(3) 0.5853(5)
O4_6 O 0.4213(5) 0.5000 0.6860(4)
O6_6 O 0.3080(5) 0.5000 0.5782(5)
O15_6 O 0.5787(5) 0.5000 0.6860(4)
O16_6 O 0.6920(5) 0.5000 0.5782(5)
loop_
_geom_bond_atom_site_label_1
_geom_bond_atom_site_label_2
_geom_bond_site_symmetry_1
_geom_bond_site_symmetry_2
Hf1 O1 1_555 1_555
Hf2 O1 1_555 1_555
O1 Hf10 1_555 1_555
O2 Hf1 1_555 1_555
O3 Hf1 1_555 1_555
O4 Hf2 1_555 1_555
O5 Hf2 1_555 1_555
O6 Hf2 1_555 1_555
C1 O2 1_555 1_555
C2 C1 1_555 1_555
C3 C2 1_555 1_555
H1 C3 1_555 1_555
C4 H2 1_555 1_555
C5 C7 1_555 1_555
C6 H3 1_555 1_555
C7 C3 1_555 1_555
H4 C7 1_555 1_555
C8 C4 1_555 1_555
C9 C2 1_555 1_555
H5 C9 1_555 1_555
C10 C5 1_555 1_555
H6 C10 1_555 1_555
C11 C6 1_555 1_555
C12 C11 1_555 1_555
C13 C12 1_555 1_555
O7 C14 1_555 1_555
O8 C14 1_555 1_555
C14 C15 1_555 1_555
C15 C16 1_555 1_555
C16 H7 1_555 1_555
C17 C19 1_555 1_555
C18 C11 1_555 1_555
H8 C18 1_555 1_555
C19 C16 1_555 1_555
H9 C19 1_555 1_555
C20 C4 1_555 1_555
C21 C15 1_555 1_555
H10 C21 1_555 1_555
C22 C17 1_555 1_555
H11 C22 1_555 1_555
Hf7 O7 1_555 1_555
Hf11 O8 1_555 1_555
O20 Hf1 1_555 1_555
O22 Hf1 1_555 1_555
Hf2 O3 1_555 1_555
O5 C1 1_555 1_555
C5 C8 1_555 1_555
C6 C8 1_555 1_555
C9 C10 1_555 1_555
C17 C20 1_555 1_555
C18 C20 1_555 1_555
C21 C22 1_555 1_555
Hf10 O22 1_555 1_555
O20 C23 1_555 1_555
O10 C23 1_555 1_555
C23 C24 1_555 1_555
C24 C25 1_555 1_555
C25 H12 1_555 1_555
C26 H13 1_555 1_555
C27 C29 1_555 1_555
C28 H14 1_555 1_555
C29 C25 1_555 1_555
H15 C29 1_555 1_555
C30 C26 1_555 1_555
C31 C24 1_555 1_555
H16 C31 1_555 1_555
C32 C27 1_555 1_555
H17 C32 1_555 1_555
C33 C28 1_555 1_555
C34 C33 1_555 1_555
O11 C36 1_555 1_555
O12 C36 1_555 1_555
C36 C37 1_555 1_555
C37 C38 1_555 1_555
C38 H18 1_555 1_555
C39 C41 1_555 1_555
C40 C33 1_555 1_555
H19 C40 1_555 1_555
C41 C38 1_555 1_555
H20 C41 1_555 1_555
C42 C26 1_555 1_555
C43 C37 1_555 1_555
H21 C43 1_555 1_555
C44 C39 1_555 1_555
H22 C44 1_555 1_555
Hf7 O11 1_555 1_555
Hf10 O10 1_555 1_555
Hf12 O12 1_555 1_555
C27 C30 1_555 1_555
C28 C30 1_555 1_555
C31 C32 1_555 1_555
C34 C35 1_555 1_555
C39 C42 1_555 1_555
C40 C42 1_555 1_555
C43 C44 1_555 1_555
O4_2 Hf2_2 1_555 1_555
O6_2 Hf2_2 1_555 1_555
O14 Hf2_2 1_555 1_555
Hf10_2 O18 1_555 1_555
O18 Hf2_2 1_555 1_555
O24 Hf2_2 1_555 1_555
O14 Hf5 1_555 1_555
Hf5 O18 1_555 1_555
O3_2 Hf1_2 1_555 1_555
Hf3 O3_2 1_555 1_555
O15 Hf3 1_555 1_555
O16 Hf3 1_555 1_555
O17 Hf1_2 1_555 1_555
O19 Hf1_2 1_555 1_555
O21 Hf1_2 1_555 1_555
O22_2 Hf1_2 1_555 1_555
O25 Hf3 1_555 1_555
Hf3 O17 1_555 1_555
Hf8 O17 1_555 1_555
Hf8 O22_2 1_555 1_555
O13 Hf3_2 1_555 1_555
O15_2 Hf3_2 1_555 1_555
O16_2 Hf3_2 1_555 1_555
Hf5_2 O13 1_555 1_555
Hf8_2 O13 1_555 1_555
O23 Hf3_2 1_555 1_555
Hf3_2 O14_2 1_555 1_555
O14_2 Hf5_2 1_555 1_555
O19_2 Hf5 1_555 1_555
O21_2 Hf5 1_555 1_555
O22_3 Hf5 1_555 1_555
Hf10_2 O22_3 1_555 1_555
O2_2 Hf5_2 1_555 1_555
C1_2 O2_2 1_555 1_555
C2_2 C1_2 1_555 1_555
C3_2 C2_2 1_555 1_555
H1_2 C3_2 1_555 1_555
C4_2 H2_2 1_555 1_555
C5_2 C7_2 1_555 1_555
C6_2 H3_2 1_555 1_555
C7_2 C3_2 1_555 1_555
H4_2 C7_2 1_555 1_555
C8_2 C4_2 1_555 1_555
C9_2 C2_2 1_555 1_555
H5_2 C9_2 1_555 1_555
C10_2 C5_2 1_555 1_555
H6_2 C10_2 1_555 1_555
C11_2 C6_2 1_555 1_555
C12_2 C11_2 1_555 1_555
C13_2 C12_2 1_555 1_555
O7_2 C14_2 1_555 1_555
O8_2 C14_2 1_555 1_555
C14_2 C15_2 1_555 1_555
C15_2 C16_2 1_555 1_555
C16_2 H7_2 1_555 1_555
C17_2 C19_2 1_555 1_555
C18_2 C11_2 1_555 1_555
H8_2 C18_2 1_555 1_555
C19_2 C16_2 1_555 1_555
H9_2 C19_2 1_555 1_555
C20_2 C4_2 1_555 1_555
C21_2 C15_2 1_555 1_555
H10_2 C21_2 1_555 1_555
C22_2 C17_2 1_555 1_555
H11_2 C22_2 1_555 1_555
Hf7_2 O7_2 1_555 1_555
Hf11_2 O8_2 1_555 1_555
O20_2 Hf5_2 1_555 1_555
O22_4 Hf5_2 1_555 1_555
O23 C1_2 1_555 1_555
C5_2 C8_2 1_555 1_555
C6_2 C8_2 1_555 1_555
C9_2 C10_2 1_555 1_555
C17_2 C20_2 1_555 1_555
C18_2 C20_2 1_555 1_555
C21_2 C22_2 1_555 1_555
Hf8_2 O22_4 1_555 1_555
O20_2 C23_2 1_555 1_555
O10_2 C23_2 1_555 1_555
C23_2 C24_2 1_555 1_555
C24_2 C25_2 1_555 1_555
C25_2 H12_2 1_555 1_555
C26_2 H13_2 1_555 1_555
C27_2 C29_2 1_555 1_555
C28_2 H14_2 1_555 1_555
C29_2 C25_2 1_555 1_555
H15_2 C29_2 1_555 1_555
C30_2 C26_2 1_555 1_555
C31_2 C24_2 1_555 1_555
H16_2 C31_2 1_555 1_555
C32_2 C27_2 1_555 1_555
H17_2 C32_2 1_555 1_555
C33_2 C28_2 1_555 1_555
C34_2 C33_2 1_555 1_555
O11_2 C36_2 1_555 1_555
O12_2 C36_2 1_555 1_555
C36_2 C37_2 1_555 1_555
C37_2 C38_2 1_555 1_555
C38_2 H18_2 1_555 1_555
C39_2 C41_2 1_555 1_555
C40_2 C33_2 1_555 1_555
H19_2 C40_2 1_555 1_555
C41_2 C38_2 1_555 1_555
H20_2 C41_2 1_555 1_555
C42_2 C26_2 1_555 1_555
C43_2 C37_2 1_555 1_555
H21_2 C43_2 1_555 1_555
C44_2 C39_2 1_555 1_555
H22_2 C44_2 1_555 1_555
Hf7_2 O11_2 1_555 1_555
Hf8_2 O10_2 1_555 1_555
Hf12_2 O12_2 1_555 1_555
C27_2 C30_2 1_555 1_555
C28_2 C30_2 1_555 1_555
C31_2 C32_2 1_555 1_555
C34_2 C35_2 1_555 1_555
C39_2 C42_2 1_555 1_555
C40_2 C42_2 1_555 1_555
C43_2 C44_2 1_555 1_555
O15_3 Hf10 1_555 1_555
O16_3 Hf10 1_555 1_555
O15_4 Hf10_2 1_555 1_555
O16_4 Hf10_2 1_555 1_555
O23_2 Hf10_2 1_555 1_555
O21 C23_3 1_555 1_555
O25 C23_3 1_555 1_555
C23_3 C24_3 1_555 1_555
C24_3 C25_3 1_555 1_555
C25_3 H12_3 1_555 1_555
C26_3 H13_3 1_555 1_555
C27_3 C29_3 1_555 1_555
C28_3 H14_3 1_555 1_555
C29_3 C25_3 1_555 1_555
H15_3 C29_3 1_555 1_555
C30_3 C26_3 1_555 1_555
C31_3 C24_3 1_555 1_555
H16_3 C31_3 1_555 1_555
C32_3 C27_3 1_555 1_555
H17_3 C32_3 1_555 1_555
C33_3 C28_3 1_555 1_555
C34_3 C33_3 1_555 1_555
O11_3 C36_3 1_555 1_555
O12_3 C36_3 1_555 1_555
C36_3 C37_3 1_555 1_555
C37_3 C38_3 1_555 1_555
C38_3 H18_3 1_555 1_555
C39_3 C41_3 1_555 1_555
C40_3 C33_3 1_555 1_555
H19_3 C40_3 1_555 1_555
C41_3 C38_3 1_555 1_555
H20_3 C41_3 1_555 1_555
C42_3 C26_3 1_555 1_555
C43_3 C37_3 1_555 1_555
H21_3 C43_3 1_555 1_555
C44_3 C39_3 1_555 1_555
H22_3 C44_3 1_555 1_555
Hf7 O11_3 1_555 1_555
Hf11_2 O12_3 1_555 1_555
C27_3 C30_3 1_555 1_555
C28_3 C30_3 1_555 1_555
C31_3 C32_3 1_555 1_555
C34_3 C35_3 1_555 1_555
C39_3 C42_3 1_555 1_555
C40_3 C42_3 1_555 1_555
C43_3 C44_3 1_555 1_555
O4_3 Hf8 1_555 1_555
O5_2 Hf8 1_555 1_555
O6_3 Hf8 1_555 1_555
C1_3 O19 1_555 1_555
C2_3 C1_3 1_555 1_555
C3_3 C2_3 1_555 1_555
H1_3 C3_3 1_555 1_555
C4_3 H2_3 1_555 1_555
C5_3 C7_3 1_555 1_555
C6_3 H3_3 1_555 1_555
C7_3 C3_3 1_555 1_555
H4_3 C7_3 1_555 1_555
C8_3 C4_3 1_555 1_555
C9_3 C2_3 1_555 1_555
H5_3 C9_3 1_555 1_555
C10_3 C5_3 1_555 1_555
H6_3 C10_3 1_555 1_555
C11_3 C6_3 1_555 1_555
C12_3 C11_3 1_555 1_555
C13_3 C12_3 1_555 1_555
O7_3 C14_3 1_555 1_555
O8_3 C14_3 1_555 1_555
C14_3 C15_3 1_555 1_555
C15_3 C16_3 1_555 1_555
C16_3 H7_3 1_555 1_555
C17_3 C19_3 1_555 1_555
C18_3 C11_3 1_555 1_555
H8_3 C18_3 1_555 1_555
C19_3 C16_3 1_555 1_555
H9_3 C19_3 1_555 1_555
C20_3 C4_3 1_555 1_555
C21_3 C15_3 1_555 1_555
H10_3 C21_3 1_555 1_555
C22_3 C17_3 1_555 1_555
H11_3 C22_3 1_555 1_555
Hf7 O7_3 1_555 1_555
Hf12_2 O8_3 1_555 1_555
O5_2 C1_3 1_555 1_555
C5_3 C8_3 1_555 1_555
C6_3 C8_3 1_555 1_555
C9_3 C10_3 1_555 1_555
C17_3 C20_3 1_555 1_555
C18_3 C20_3 1_555 1_555
C21_3 C22_3 1_555 1_555
O4_4 Hf8_2 1_555 1_555
O6_4 Hf8_2 1_555 1_555
O21_2 C23_4 1_555 1_555
O24 C23_4 1_555 1_555
C23_4 C24_4 1_555 1_555
C24_4 C25_4 1_555 1_555
C25_4 H12_4 1_555 1_555
C26_4 H13_4 1_555 1_555
C27_4 C29_4 1_555 1_555
C28_4 H14_4 1_555 1_555
C29_4 C25_4 1_555 1_555
H15_4 C29_4 1_555 1_555
C30_4 C26_4 1_555 1_555
C31_4 C24_4 1_555 1_555
H16_4 C31_4 1_555 1_555
C32_4 C27_4 1_555 1_555
H17_4 C32_4 1_555 1_555
C33_4 C28_4 1_555 1_555
C34_4 C33_4 1_555 1_555
O11_4 C36_4 1_555 1_555
O12_4 C36_4 1_555 1_555
C36_4 C37_4 1_555 1_555
C37_4 C38_4 1_555 1_555
C38_4 H18_4 1_555 1_555
C39_4 C41_4 1_555 1_555
C40_4 C33_4 1_555 1_555
H19_4 C40_4 1_555 1_555
C41_4 C38_4 1_555 1_555
H20_4 C41_4 1_555 1_555
C42_4 C26_4 1_555 1_555
C43_4 C37_4 1_555 1_555
H21_4 C43_4 1_555 1_555
C44_4 C39_4 1_555 1_555
H22_4 C44_4 1_555 1_555
Hf7_2 O11_4 1_555 1_555
Hf11 O12_4 1_555 1_555
C27_4 C30_4 1_555 1_555
C28_4 C30_4 1_555 1_555
C31_4 C32_4 1_555 1_555
C34_4 C35_4 1_555 1_555
C39_4 C42_4 1_555 1_555
C40_4 C42_4 1_555 1_555
C43_4 C44_4 1_555 1_555
C1_4 O19_2 1_555 1_555
C2_4 C1_4 1_555 1_555
C3_4 C2_4 1_555 1_555
H1_4 C3_4 1_555 1_555
C4_4 H2_4 1_555 1_555
C5_4 C7_4 1_555 1_555
C6_4 H3_4 1_555 1_555
C7_4 C3_4 1_555 1_555
H4_4 C7_4 1_555 1_555
C8_4 C4_4 1_555 1_555
C9_4 C2_4 1_555 1_555
H5_4 C9_4 1_555 1_555
C10_4 C5_4 1_555 1_555
H6_4 C10_4 1_555 1_555
C11_4 C6_4 1_555 1_555
C12_4 C11_4 1_555 1_555
C13_4 C12_4 1_555 1_555
O7_4 C14_4 1_555 1_555
O8_4 C14_4 1_555 1_555
C14_4 C15_4 1_555 1_555
C15_4 C16_4 1_555 1_555
C16_4 H7_4 1_555 1_555
C17_4 C19_4 1_555 1_555
C18_4 C11_4 1_555 1_555
H8_4 C18_4 1_555 1_555
C19_4 C16_4 1_555 1_555
H9_4 C19_4 1_555 1_555
C20_4 C4_4 1_555 1_555
C21_4 C15_4 1_555 1_555
H10_4 C21_4 1_555 1_555
C22_4 C17_4 1_555 1_555
H11_4 C22_4 1_555 1_555
Hf7_2 O7_4 1_555 1_555
Hf12 O8_4 1_555 1_555
O23_2 C1_4 1_555 1_555
C5_4 C8_4 1_555 1_555
C6_4 C8_4 1_555 1_555
C9_4 C10_4 1_555 1_555
C17_4 C20_4 1_555 1_555
C18_4 C20_4 1_555 1_555
C21_4 C22_4 1_555 1_555
Hf7_2 O1_2 1_555 1_555
Hf11_2 O1_2 1_555 1_555
O1_2 Hf12_2 1_555 1_555
O3_3 Hf7_2 1_555 1_555
O4_5 Hf11_2 1_555 1_555
O6_5 Hf11_2 1_555 1_555
Hf11 O3_3 1_555 1_555
O13_2 Hf11 1_555 1_555
O14_3 Hf11_2 1_555 1_555
O15_5 Hf11 1_555 1_555
O16_5 Hf11 1_555 1_555
Hf7 O13_2 1_555 1_555
Hf12 O13_2 1_555 1_555
Hf12_2 O18_2 1_555 1_555
O17_2 Hf7_2 1_555 1_555
O18_2 Hf11_2 1_555 1_555
O22_5 Hf7_2 1_555 1_555
Hf11_2 O3_3 1_555 1_555
Hf11 O14_3 1_555 1_555
Hf11 O17_2 1_555 1_555
O14_3 Hf7 1_555 1_555
Hf7 O18_2 1_555 1_555
Hf12 O17_2 1_555 1_555
Hf12 O22_5 1_555 1_555
Hf12_2 O22_5 1_555 1_555
O22_6 Hf7 1_555 1_555
Hf12_2 O22_6 1_555 1_555
Hf12 O22_6 1_555 1_555
O4_6 Hf12 1_555 1_555
O6_6 Hf12 1_555 1_555
O15_6 Hf12_2 1_555 1_555
O16_6 Hf12_2 1_555 1_555

#END
