
###############################################################################
#
# This file contains modified crystal structure data generated from the
# MOF subset of the Cambridge Structural Database (CSD) v543 
# hosted by the Cambridge Crystallographic Data Centre (CCDC).
#
# This work is licensed under the Creative Commons
# Attribution-NonCommercial-ShareAlike 4.0 International License.
# To view a copy of this license, visit
# http://creativecommons.org/licenses/by-nc-sa/4.0/
# or send a letter to
# Creative Commons, PO Box 1866, Mountain View, CA 94042, USA.
#
# CIF created using the CSD Python API on 29 September 2022
# The structure has been converted into the P1 space group
# The structure has a 3D framework
# The original CSD entry HICKAG is in the triclinic crystal system
# The framework has been calculated to contain at least 10.0% void space
# The void calculation uses a probe of radius 1.32A, grid spacing 0.4
# H atom positions have been added when not included in the experimental data
# Generated hydrogen atom positions removed from atoms on special positions
#
###############################################################################

data_HICKAG
_chemical_formula_moiety         '(C240 H218 Co17 N48 O54)n'
_symmetry_cell_setting           triclinic
_symmetry_space_group_name_H-M   'P 1'
_symmetry_Int_Tables_number      1
_space_group_name_Hall           'P 1'
loop_
_symmetry_equiv_pos_site_id
_symmetry_equiv_pos_as_xyz
1 x,y,z
_cell_length_a                   16.070(4)
_cell_length_b                   19.567(4)
_cell_length_c                   22.659(4)
_cell_angle_alpha                74.255(7)
_cell_angle_beta                 80.665(8)
_cell_angle_gamma                67.870(7)
_cell_volume                     6338.02
loop_
_atom_site_label
_atom_site_type_symbol
_atom_site_fract_x
_atom_site_fract_y
_atom_site_fract_z
Co6 Co 0.5000 0.0000 0.5000
C1 C 0.1494(3) 0.2383(2) 0.63739(17)
C2 C 0.2291(3) 0.2201(2) 0.60070(18)
H1 H 0.2619 0.2525 0.5900
C3 C 0.2602(3) 0.1529(2) 0.57982(18)
C4 C 0.2122(3) 0.1041(2) 0.59755(18)
H2 H 0.2328 0.0594 0.5840
C5 C 0.1333(3) 0.1213(2) 0.63556(18)
C6 C 0.1009(3) 0.1894(2) 0.65434(17)
H3 H 0.0469 0.2022 0.6782
C7 C 0.1177(3) 0.3076(2) 0.66234(17)
C8 C 0.3492(3) 0.1291(2) 0.54375(19)
C9 C 0.0912(3) 0.0624(2) 0.66113(19)
H79 H 0.0111 0.0147 0.5606
C107 C 0.3444(3) 0.0108(2) 0.7915(2)
C108 C 0.4017(3) 0.0091(4) 0.7385(3)
C109 C 0.4060(4) 0.0765(5) 0.69979(19)
H84 H 0.4444 0.0754 0.6643
C110 C 0.3530(5) 0.1454(4) 0.7141(3)
H85 H 0.3558 0.1905 0.6881
C111 C 0.2956(4) 0.1470(2) 0.7671(3)
H86 H 0.2601 0.1932 0.7766
C112 C 0.2913(3) 0.0797(3) 0.8058(2)
C114 C 0.2343(5) 0.0860(6) 0.8616(4)
H89 H 0.2184 0.1368 0.8676
H90 H 0.2682 0.0508 0.8959
C115 C 0.0973(4) 0.0954(4) 0.8169(2)
H91 H 0.1069 0.1268 0.7795
C116 C 0.0398(5) 0.0295(3) 0.8882(3)
H92 H 0.0006 0.0058 0.9110
C117 C 0.1161(5) 0.0277(4) 0.9083(3)
H93 H 0.1394 0.0017 0.9464
N23 N 0.0301(3) 0.0715(2) 0.82927(17)
N24 N 0.1511(3) 0.0709(4) 0.8623(2)
O1 O 0.0458(2) 0.32183(17) 0.69545(14)
O2 O 0.1627(2) 0.35087(17) 0.65144(14)
O3 O 0.3993(3) 0.1667(2) 0.5393(2)
O4 O 0.3695(2) 0.07176(17) 0.52261(14)
O6 O 0.0235(2) 0.07553(19) 0.69774(15)
Co13 Co 0.05567(4) 0.41955(3) 0.71239(2)
Co23 Co 0.5000 0.5000 0.0000
C157 C 0.6079(4) 0.3260(3) 0.2653(2)
C158 C 0.5805(5) 0.3987(3) 0.2750(3)
H109 H 0.6018 0.4344 0.2479
C159 C 0.5221(5) 0.4184(3) 0.3241(3)
H110 H 0.5042 0.4674 0.3298
C160 C 0.4904(5) 0.3666(3) 0.3645(3)
H111 H 0.4501 0.3802 0.3974
C161 C 0.5188(4) 0.2940(3) 0.3561(2)
H112 H 0.4984 0.2585 0.3845
C162 C 0.5770(4) 0.2721(3) 0.3068(2)
C163 C 0.6737(4) 0.3061(3) 0.2120(2)
H113 H 0.6712 0.2609 0.2036
H114 H 0.7341 0.2944 0.2233
C164 C 0.6104(4) 0.1923(3) 0.2992(2)
H115 H 0.6724 0.1675 0.3102
H116 H 0.6093 0.1931 0.2563
C165 C 0.5860(4) 0.3915(3) 0.1227(2)
H117 H 0.5388 0.3730 0.1329
C166 C 0.6673(4) 0.4547(3) 0.0775(3)
H118 H 0.6885 0.4898 0.0494
C167 C 0.7102(4) 0.4067(4) 0.1278(3)
H119 H 0.7648 0.4022 0.1401
C168 C 0.5778(3) 0.0978(3) 0.38941(19)
H120 H 0.6328 0.0814 0.4065
C169 C 0.4719(4) 0.1572(3) 0.3270(2)
H121 H 0.4392 0.1888 0.2935
C170 C 0.4443(4) 0.1116(3) 0.3747(2)
H122 H 0.3880 0.1067 0.3801
N25 N 0.5896(3) 0.4448(2) 0.07367(17)
N28 N 0.6564(3) 0.3665(2) 0.15620(18)
N29 N 0.5567(3) 0.1487(2) 0.33671(16)
N30 N 0.5110(3) 0.0734(2) 0.41456(16)
O68 O 0.5597(2) 0.05710(18) 0.54131(13)
Co23_2 Co 0.5000 0.5000 1.0000
C70 C 0.0048(5) 0.3206(3) 0.0008(2)
C72 C 0.0387(5) 0.3781(3) 0.0090(2)
H48 H 0.0986 0.3527 0.0239
Co3 Co 0.08305(4) 0.91915(3) 0.70118(3)
Co6_2 Co 0.5000 1.0000 0.5000
C10 C 0.1600(3) 0.6023(2) 0.67301(18)
C11 C 0.2333(3) 0.5656(2) 0.63637(18)
H4 H 0.2438 0.5161 0.6346
C12 C 0.2898(3) 0.6027(2) 0.60297(18)
C13 C 0.2747(3) 0.6765(2) 0.60563(19)
H5 H 0.3128 0.7013 0.5825
C14 C 0.2033(3) 0.7137(2) 0.64253(19)
C15 C 0.1468(3) 0.6756(2) 0.67616(18)
H6 H 0.0992 0.6998 0.7013
C16 C 0.0976(3) 0.5622(2) 0.70758(18)
C17 C 0.3678(3) 0.5625(2) 0.56567(19)
C18 C 0.1875(3) 0.7930(2) 0.6464(2)
C37 C 0.3921(4) 0.6740(3) 0.7347(2)
C38 C 0.4195(5) 0.6013(3) 0.7250(3)
H13 H 0.3982 0.5656 0.7521
C39 C 0.4779(5) 0.5816(3) 0.6759(3)
H14 H 0.4958 0.5326 0.6702
C40 C 0.5096(5) 0.6334(3) 0.6355(3)
H15 H 0.5499 0.6198 0.6026
C41 C 0.4812(4) 0.7060(3) 0.6439(2)
H16 H 0.5016 0.7415 0.6155
C42 C 0.4230(4) 0.7279(3) 0.6932(2)
C43 C 0.3263(4) 0.6939(3) 0.7880(2)
H17 H 0.3288 0.7391 0.7964
H18 H 0.2659 0.7056 0.7767
C44 C 0.3896(4) 0.8077(3) 0.7008(2)
H19 H 0.3276 0.8325 0.6898
H20 H 0.3907 0.8069 0.7437
C45 C 0.4140(4) 0.6085(3) 0.8773(2)
H21 H 0.4612 0.6270 0.8671
C46 C 0.3327(4) 0.5453(3) 0.9225(3)
H22 H 0.3115 0.5102 0.9506
C47 C 0.2898(4) 0.5933(4) 0.8722(3)
H23 H 0.2352 0.5978 0.8599
C48 C 0.4222(3) 0.9022(3) 0.61059(19)
H24 H 0.3672 0.9186 0.5935
C49 C 0.5281(4) 0.8428(3) 0.6730(2)
H25 H 0.5608 0.8112 0.7065
C50 C 0.5557(4) 0.8884(3) 0.6253(2)
H26 H 0.6120 0.8933 0.6199
C53 C 0.0685(6) 0.6758(5) 0.4827(3)
H29 H 0.1051 0.6364 0.4643
C54 C 0.1054(7) 0.7253(7) 0.4912(4)
H30 H 0.1650 0.7204 0.4785
C55 C 0.0491(8) 0.7837(6) 0.5199(4)
H31 H 0.0717 0.8175 0.5277
C59 C 0.0074(4) 0.5297(3) 0.5875(2)
H35 H 0.0635 0.5349 0.5822
C65 C 0.0585(5) 0.2613(3) 0.9722(2)
C66 C 0.0250(7) 0.2093(4) 0.9674(3)
H41 H 0.0616 0.1687 0.9505
C71 C 0.1549(5) 0.2533(4) 0.9482(2)
H45 H 0.1802 0.2726 0.9733
H46 H 0.1905 0.2000 0.9517
C73 C 0.0991(4) 0.3240(3) 0.8432(2)
H49 H 0.0411 0.3225 0.8509
C74 C 0.2366(5) 0.3072(4) 0.8555(3)
H50 H 0.2916 0.2922 0.8724
C75 C 0.2163(4) 0.3464(3) 0.7979(3)
H51 H 0.2551 0.3641 0.7681
C77 C 0.1141(5) 0.4553(3) 0.9252(3)
H53 H 0.1710 0.4367 0.9402
C78 C 0.0863(4) 0.5079(3) 0.8726(3)
H54 H 0.1216 0.5324 0.8453
H83 H 0.4372 0.9630 0.7290
C113 C 0.3423(6) 0.9376(4) 0.8309(5)
H87 H 0.3332 0.9409 0.8735
H88 H 0.4002 0.8984 0.8258
C118 C 0.2281(4) 0.9393(3) 0.7652(3)
H94 H 0.2386 0.9750 0.7312
C119 C 0.2378(5) 0.8638(4) 0.8547(3)
H95 H 0.2554 0.8365 0.8939
C120 C 0.1754(4) 0.8597(3) 0.8252(3)
H96 H 0.1409 0.8291 0.8413
N1 N 0.4104(3) 0.5552(2) 0.92633(17)
N2 N 0.3436(3) 0.6335(2) 0.84380(18)
N3 N 0.4433(3) 0.8513(2) 0.66329(16)
N4 N 0.4890(3) 0.9266(2) 0.58544(16)
N9 N 0.1604(4) 0.2937(3) 0.88460(18)
N10 N 0.1298(3) 0.3561(2) 0.79024(16)
N11 N 0.0421(4) 0.4355(3) 0.95146(19)
N17 N 0.1695(3) 0.9063(2) 0.7686(2)
N18 N 0.2706(4) 0.9154(3) 0.8166(3)
O5 O 0.1289(2) 0.99966(17) 0.64560(15)
O7 O 0.0335(2) 0.59702(17) 0.73985(14)
O8 O 0.1141(2) 0.49731(17) 0.70014(15)
O9 O 0.4194(2) 0.59627(17) 0.53387(14)
O10 O 0.3853(2) 0.49421(16) 0.56513(13)
O11 O 0.1435(3) 0.81227(18) 0.69351(15)
O12 O 0.2173(4) 0.8340(2) 0.6056(2)
O26 O 0.4403(2) 0.94290(18) 0.45869(13)
Co24 Co 0.5000 0.5000 0.5000
O36 O 0.6305(2) 0.92824(17) 0.47739(14)
Co5 Co 0.5000 0.0000 -0.0000
O27 O 0.5674(3) 0.0401(2) 0.04881(16)
Co9 Co 0.07910(4) 0.41187(3) 0.21001(2)
C139 C 0.1746(3) 0.2192(2) 0.12636(18)
C140 C 0.2386(3) 0.1819(2) 0.08551(17)
H103 H 0.2813 0.2025 0.0640
C141 C 0.2390(3) 0.1146(2) 0.07671(18)
C142 C 0.1783(3) 0.0832(2) 0.11035(19)
H104 H 0.1783 0.0382 0.1039
C143 C 0.1169(3) 0.1165(2) 0.15372(18)
C144 C 0.1141(3) 0.1858(2) 0.16059(18)
H105 H 0.0714 0.2100 0.1883
C145 C 0.1730(3) 0.2923(2) 0.1366(2)
C146 C 0.3055(3) 0.0722(2) 0.03267(19)
C147 C 0.0597(3) 0.0755(3) 0.19420(19)
C171 C 0.1702(5) 0.2520(3) 0.4491(2)
H123 H 0.2050 0.1985 0.4529
H124 H 0.1947 0.2706 0.4752
C172 C 0.0200(5) 0.3184(3) 0.4999(2)
C176 C 0.0393(6) 0.2094(4) 0.4638(3)
H128 H 0.0768 0.1686 0.4473
C177 C 0.0745(5) 0.2610(3) 0.4708(2)
C178 C 0.0506(6) 0.3767(3) 0.5096(2)
H129 H 0.1095 0.3522 0.5261
H130 H 0.0093 0.4021 0.5397
C180 C 0.1031(4) 0.5055(4) 0.3751(3)
H132 H 0.1389 0.5306 0.3491
C181 C 0.1270(5) 0.4548(4) 0.4289(3)
H133 H 0.1820 0.4378 0.4462
C182 C 0.1184(4) 0.3225(3) 0.3425(2)
H134 H 0.0605 0.3209 0.3494
C183 C 0.2364(4) 0.3450(4) 0.3002(3)
H135 H 0.2758 0.3629 0.2711
C184 C 0.2553(4) 0.3069(4) 0.3574(3)
H136 H 0.3094 0.2926 0.3751
C187 C 0.0649(9) 0.7837(6) 0.0122(4)
H138 H 0.0885 0.8180 0.0178
C196 C 0.0263(4) 0.5243(3) 0.0853(2)
H148 H 0.0837 0.5273 0.0772
C213 C 0.2812(4) 0.0599(4) 0.3267(3)
C214 C 0.2688(7) 0.1335(5) 0.2953(7)
H165 H 0.2292 0.1730 0.3125
C215 C 0.3110(11) 0.1495(8) 0.2423(8)
H166 H 0.3038 0.1999 0.2240
C216 C 0.3675(8) 0.0927(9) 0.2116(5)
H167 H 0.3951 0.1045 0.1727
C217 C 0.3796(5) 0.0175(5) 0.2430(3)
C218 C 0.3365(4) 0.0018(3) 0.3005(3)
C219 C 0.2346(5) 0.0461(5) 0.3893(4)
H169 H 0.2261 0.0876 0.4080
H170 H 0.2734 -0.0000 0.4146
C221 C 0.0905(4) 0.0719(4) 0.3444(3)
H173 H 0.1006 0.1038 0.3076
C223 C 0.0298(6) 0.0072(4) 0.4164(3)
N31 N 0.0184(3) 0.5139(2) 0.36524(17)
N32 N 0.0559(4) 0.4336(2) 0.45240(19)
N33 N 0.1510(3) 0.3541(2) 0.29019(17)
N34 N 0.1793(3) 0.2928(2) 0.38494(18)
N38 N 0.0015(3) 0.4804(2) 0.13417(16)
N39 N 0.0184(3) 0.0534(2) 0.35915(19)
N40 N 0.1483(3) 0.0389(3) 0.3895(3)
O50 O 0.2243(3) 0.3237(2) 0.1037(2)
O51 O 0.1185(3) 0.31831(18) 0.17793(14)
O52 O 0.0014(2) 0.1093(2) 0.22963(15)
O53 O 0.0755(3) 0.01004(18) 0.18885(15)
O54 O 0.3781(2) 0.0839(2) 0.01945(16)
O55 O 0.2842(2) 0.0276(2) 0.01267(15)
O57 O 0.1641(2) 0.47331(16) 0.18047(14)
O59 O 0.0593(2) 0.54684(19) 0.23320(14)
Co4 Co 0.93244(4) 0.09234(3) 0.76979(3)
Co5_2 Co 0.5000 0.0000 1.0000
H72 H 0.5832 0.0221 0.7749
H74 H 0.7266 -0.0000 0.5854
C100 C 0.6477(4) 0.0787(4) 0.6679(3)
H75 H 0.6401 0.0856 0.6248
H76 H 0.5923 0.1105 0.6855
C102 C 0.8889(6) 0.0019(5) 0.5653(4)
H78 H 0.8644 0.0311 0.5282
C104 C 0.7723(3) 0.0798(3) 0.7201(2)
H80 H 0.7659 0.0442 0.7555
C105 C 0.7518(4) 0.1538(3) 0.6304(3)
H81 H 0.7302 0.1797 0.5919
C106 C 0.8188(4) 0.1593(3) 0.6545(2)
H82 H 0.8514 0.1907 0.6351
N15 N 0.7213(3) 0.1034(2) 0.6727(2)
N16 N 0.8329(3) 0.1127(2) 0.71133(17)
Co10 Co 0.92090(4) 0.58813(3) 0.78999(2)
C148 C 0.7200(3) 0.3635(2) 0.89689(19)
C149 C 0.7588(3) 0.4177(2) 0.8716(2)
H106 H 0.7376 0.4627 0.8848
C150 C 0.8298(3) 0.4059(2) 0.82626(18)
C151 C 0.8596(3) 0.3390(2) 0.80625(18)
H107 H 0.9065 0.3308 0.7760
C152 C 0.8206(3) 0.2847(2) 0.83064(18)
C153 C 0.7517(3) 0.2962(2) 0.87682(19)
H108 H 0.7268 0.2589 0.8944
C154 C 0.8718(3) 0.4652(2) 0.80255(18)
C155 C 0.8530(3) 0.2135(2) 0.80765(19)
C156 C 0.6413(3) 0.3814(3) 0.9431(2)
C188 C 0.1171(7) 0.7268(7) 0.9844(4)
H139 H 0.1759 0.7226 0.9697
C189 C 0.0803(6) 0.6745(5) 0.9782(3)
H140 H 0.1156 0.6354 0.9591
H143 H 0.0001 0.5965 0.9600
C199 C 0.5743(4) 0.2823(3) 0.8049(2)
C200 C 0.5158(5) 0.3043(3) 0.8535(3)
H151 H 0.4934 0.2695 0.8811
C201 C 0.4894(6) 0.3774(4) 0.8622(3)
H152 H 0.4498 0.3915 0.8951
C202 C 0.5225(6) 0.4278(4) 0.8218(3)
H153 H 0.5060 0.4766 0.8277
C203 C 0.5798(5) 0.4080(3) 0.7726(3)
H154 H 0.6017 0.4433 0.7453
C204 C 0.6055(4) 0.3345(3) 0.7632(2)
C205 C 0.6082(4) 0.2019(3) 0.7983(3)
H155 H 0.6709 0.1784 0.8078
H156 H 0.6053 0.2021 0.7558
C206 C 0.6695(5) 0.3133(3) 0.7098(2)
H157 H 0.6646 0.2689 0.7015
H158 H 0.7306 0.2999 0.7206
C207 C 0.5788(4) 0.1081(3) 0.8926(2)
H159 H 0.6313 0.0970 0.9113
C208 C 0.4776(4) 0.1583(4) 0.8254(3)
H160 H 0.4462 0.1865 0.7905
C209 C 0.4521(4) 0.1114(4) 0.8736(3)
H161 H 0.3984 0.1024 0.8775
C210 C 0.5811(4) 0.4020(3) 0.6207(2)
H162 H 0.5326 0.3849 0.6306
C211 C 0.6659(5) 0.4631(4) 0.5757(3)
H163 H 0.6881 0.4978 0.5478
C212 C 0.7076(5) 0.4133(4) 0.6251(3)
H164 H 0.7634 0.4066 0.6371
N45 N 0.5159(3) 0.0781(3) 0.91687(19)
N46 N 0.5577(3) 0.1564(2) 0.8377(2)
N47 N 0.5865(3) 0.4551(2) 0.57266(17)
N49 N 0.6522(3) 0.3750(3) 0.65378(19)
O56 O 0.8359(2) 0.52669(16) 0.81953(14)
O58 O 0.9407(2) 0.45316(19) 0.76680(14)
O60 O 0.9026(2) 0.21059(17) 0.75923(13)
O62 O 0.8314(2) 0.15726(17) 0.83691(14)
O64 O 0.6025(2) 0.45055(17) 0.94273(14)
O66 O 0.6183(3) 0.32936(19) 0.97725(17)
Co5_3 Co 0.5000 1.0000 -0.0000
C68 C 0.8829(7) 0.2732(7) 0.0156(4)
H43 H 0.8241 0.2774 0.0303
C69 C 0.9197(6) 0.3255(5) 0.0218(3)
H44 H 0.8844 0.3646 0.0409
H47 H 0.9999 0.4035 0.0400
C79 C 0.4257(4) 0.7177(3) 0.1951(2)
C80 C 0.4842(5) 0.6957(3) 0.1465(3)
H55 H 0.5066 0.7305 0.1189
C81 C 0.5106(6) 0.6226(4) 0.1378(3)
H56 H 0.5502 0.6085 0.1049
C82 C 0.4775(6) 0.5722(4) 0.1782(3)
H57 H 0.4940 0.5234 0.1723
C83 C 0.4202(5) 0.5920(3) 0.2274(3)
H58 H 0.3983 0.5567 0.2547
C84 C 0.3945(4) 0.6655(3) 0.2368(2)
C85 C 0.3918(4) 0.7981(3) 0.2017(3)
H59 H 0.3291 0.8216 0.1922
H60 H 0.3947 0.7979 0.2442
C86 C 0.3305(5) 0.6867(3) 0.2902(2)
H61 H 0.3354 0.7311 0.2985
H62 H 0.2694 0.7001 0.2794
C87 C 0.4212(4) 0.8919(3) 0.1074(2)
H63 H 0.3687 0.9030 0.0887
C88 C 0.5224(4) 0.8417(4) 0.1746(3)
H64 H 0.5538 0.8135 0.2095
C89 C 0.5479(4) 0.8886(4) 0.1264(3)
H65 H 0.6016 0.8976 0.1225
C90 C 0.4189(4) 0.5980(3) 0.3793(2)
H66 H 0.4674 0.6151 0.3694
C91 C 0.3341(5) 0.5369(4) 0.4243(3)
H67 H 0.3119 0.5022 0.4522
C92 C 0.2924(5) 0.5867(4) 0.3749(3)
H68 H 0.2366 0.5934 0.3629
N19 N 0.4841(3) 0.9219(3) 0.08313(19)
N20 N 0.4423(3) 0.8436(2) 0.1623(2)
N21 N 0.4135(3) 0.5449(2) 0.42734(17)
N22 N 0.3478(3) 0.6250(3) 0.34622(19)
O25 O 0.4535(2) 0.40357(19) 0.02202(15)
Co18 Co 0.06756(4) 0.90766(3) 0.23021(3)
H168 H 0.4168 0.9779 0.2251
H170_2 H 0.2734 1.0000 0.4146
C220 C 0.3523(4) 0.9213(4) 0.3321(3)
H171 H 0.3599 0.9144 0.3752
H172 H 0.4077 0.8895 0.3145
C222 C 0.1111(6) 0.9981(5) 0.4347(4)
H174 H 0.1356 0.9689 0.4718
C224 C 0.2277(3) 0.9202(3) 0.2799(2)
H176 H 0.2341 0.9558 0.2445
C225 C 0.2482(4) 0.8462(3) 0.3696(3)
H177 H 0.2698 0.8203 0.4081
C226 C 0.1812(4) 0.8407(3) 0.3455(2)
H178 H 0.1486 0.8093 0.3649
N41 N 0.2787(3) 0.8966(2) 0.3273(2)
N42 N 0.1671(3) 0.8873(2) 0.28867(17)
O44 O 0.5806(2) 0.40373(17) 0.46613(14)
O46 O 0.6147(2) 0.50579(16) 0.43487(13)
O61 O 0.0974(2) 0.78941(17) 0.24077(13)
O63 O 0.1686(2) 0.84274(17) 0.16309(14)
O65 O 0.3975(2) 0.54945(17) 0.05727(14)
H193 H 0.621614 0.997844 0.0659338
H198 H 0.506802 0.634996 0.00080736
Co5_4 Co 0.5000 1.0000 1.0000
C19 C 0.8254(3) 0.7808(2) 0.87364(18)
C20 C 0.7614(3) 0.8181(2) 0.91449(17)
H7 H 0.7187 0.7975 0.9360
C21 C 0.7610(3) 0.8854(2) 0.92329(18)
C22 C 0.8217(3) 0.9168(2) 0.88965(19)
H8 H 0.8217 0.9618 0.8961
C23 C 0.8831(3) 0.8835(2) 0.84628(18)
C24 C 0.8859(3) 0.8142(2) 0.83941(18)
H9 H 0.9286 0.7900 0.8117
C25 C 0.8270(3) 0.7077(2) 0.8634(2)
C26 C 0.6945(3) 0.9278(2) 0.96733(19)
C27 C 0.9403(3) 0.9245(3) 0.80580(19)
C51 C 0.8298(5) 0.7480(3) 0.5509(2)
H27 H 0.7950 0.8015 0.5471
H28 H 0.8053 0.7294 0.5248
C52 C 0.9800(5) 0.6816(3) 0.5001(2)
C56 C 0.9607(6) 0.7906(4) 0.5362(3)
H32 H 0.9232 0.8314 0.5527
C57 C 0.9255(5) 0.7390(3) 0.5292(2)
C58 C 0.9494(6) 0.6233(3) 0.4904(2)
H33 H 0.8905 0.6478 0.4739
H34 H 0.9907 0.5979 0.4603
C60 C 0.8969(4) 0.4945(4) 0.6249(3)
H36 H 0.8611 0.4694 0.6509
C61 C 0.8730(5) 0.5452(4) 0.5711(3)
H37 H 0.8180 0.5622 0.5538
C62 C 0.8816(4) 0.6775(3) 0.6575(2)
H38 H 0.9395 0.6791 0.6506
C63 C 0.7636(4) 0.6550(4) 0.6998(3)
H39 H 0.7242 0.6371 0.7289
C64 C 0.7447(4) 0.6931(4) 0.6426(3)
H40 H 0.6906 0.7074 0.6249
C67 C 0.9351(9) 0.2163(6) 0.9878(4)
H42 H 0.9115 0.1820 0.9822
C76 C 0.9737(4) 0.4757(3) 0.9147(2)
H52 H 0.9163 0.4727 0.9228
C93 C 0.7188(4) 0.9401(4) 0.6733(3)
C94 C 0.7312(7) 0.8665(5) 0.7047(7)
H69 H 0.7708 0.8270 0.6875
C95 C 0.6890(11) 0.8505(8) 0.7577(8)
H70 H 0.6962 0.8001 0.7760
C96 C 0.6325(8) 0.9073(9) 0.7884(5)
H71 H 0.6049 0.8955 0.8273
C97 C 0.6204(5) 0.9825(5) 0.7570(3)
C98 C 0.6635(4) 0.9982(3) 0.6995(3)
C99 C 0.7654(5) 0.9539(5) 0.6107(4)
H73 H 0.7739 0.9124 0.5920
H74_2 H 0.7266 1.0000 0.5854
C101 C 0.9095(4) 0.9281(4) 0.6556(3)
H77 H 0.8994 0.8962 0.6924
C103 C 0.9702(6) 0.9928(4) 0.5836(3)
N5 N 0.9816(3) 0.4861(2) 0.63476(17)
N6 N 0.9441(4) 0.5664(2) 0.54760(19)
N7 N 0.8490(3) 0.6459(2) 0.70981(17)
N8 N 0.8207(3) 0.7072(2) 0.61506(18)
N12 N 0.9985(3) 0.5196(2) 0.86583(16)
N13 N 0.9816(3) 0.9466(2) 0.64085(19)
N14 N 0.8517(3) 0.9611(3) 0.6105(3)
O13 O 0.7757(3) 0.6763(2) 0.8963(2)
O14 O 0.8815(3) 0.68169(18) 0.82207(14)
O15 O 0.9986(2) 0.8907(2) 0.77037(15)
O16 O 0.9245(3) 0.98996(18) 0.81115(15)
O17 O 0.6219(2) 0.9161(2) 0.98055(16)
O18 O 0.7158(2) 0.9724(2) 0.98733(15)
O67 O 0.5465(2) 0.59643(19) 0.97798(15)
O69 O 0.4326(3) 0.9599(2) 0.95119(16)
Co12 Co 0.94433(4) 0.58045(3) 0.28761(2)
Co16 Co 0.91695(4) 0.08085(3) 0.29882(3)
C173 C 0.9315(6) 0.3242(5) 0.5173(3)
H125 H 0.8949 0.3636 0.5357
C174 C 0.8946(7) 0.2747(7) 0.5088(4)
H126 H 0.8350 0.2796 0.5215
C175 C 0.9509(8) 0.2163(6) 0.4801(4)
H127 H 0.9283 0.1825 0.4723
C179 C 0.9926(4) 0.4703(3) 0.4125(2)
H131 H 0.9365 0.4651 0.4178
C185 C 0.9415(5) 0.7387(3) 0.0278(2)
C186 C 0.9750(7) 0.7907(4) 0.0326(3)
H137 H 0.9384 0.8313 0.0495
C191 C 0.8451(5) 0.7467(4) 0.0518(2)
H141 H 0.8198 0.7274 0.0267
H142 H 0.8095 0.8000 0.0483
C193 C 0.9009(4) 0.6760(3) 0.1568(2)
H145 H 0.9589 0.6775 0.1491
C194 C 0.7634(5) 0.6928(4) 0.1445(3)
H146 H 0.7084 0.7078 0.1276
C195 C 0.7837(4) 0.6536(3) 0.2021(3)
H147 H 0.7449 0.6359 0.2319
C197 C 0.8859(5) 0.5447(3) 0.0748(3)
H149 H 0.8290 0.5633 0.0598
C198 C 0.9137(4) 0.4921(3) 0.1274(3)
H150 H 0.8784 0.4676 0.1547
H179 H 0.5628 0.0370 0.2710
C233 C 0.6577(6) 0.0624(4) 0.1691(5)
H183 H 0.6668 0.0591 0.1265
H184 H 0.5998 0.1016 0.1742
C238 C 0.7719(4) 0.0607(3) 0.2348(3)
H190 H 0.7614 0.0250 0.2688
C239 C 0.7622(5) 0.1362(4) 0.1453(3)
H191 H 0.7446 0.1635 0.1061
C240 C 0.8246(4) 0.1403(3) 0.1748(3)
H192 H 0.8591 0.1709 0.1587
N35 N 0.8396(4) 0.7063(3) 0.11540(18)
N36 N 0.8702(3) 0.6439(2) 0.20976(16)
N37 N 0.9579(4) 0.5645(3) 0.04854(19)
N43 N 0.8305(3) 0.0937(2) 0.2314(2)
N44 N 0.7294(4) 0.0846(3) 0.1834(3)
O30 O 0.9542(2) 0.67817(17) 0.30455(14)
O33 O 0.8373(2) 0.64913(17) 0.34856(14)
O37 O 0.8711(2) 0.00034(17) 0.35440(15)
O40 O 0.9665(2) 0.40298(17) 0.26015(14)
O42 O 0.8859(2) 0.50269(17) 0.29986(15)
O48 O 0.8565(3) 0.18773(18) 0.30649(15)
C190 C 0.9952(5) 0.6794(3) 0.9992(2)
C192 C 0.9613(5) 0.6219(3) 0.9910(2)
H144 H 0.9014 0.6473 0.9761
C121 C 0.8506(3) 0.7617(2) 0.36261(17)
C122 C 0.7709(3) 0.7799(2) 0.39930(18)
H97 H 0.7381 0.7475 0.4100
C123 C 0.7398(3) 0.8471(2) 0.42018(18)
C124 C 0.7878(3) 0.8959(2) 0.40245(18)
H98 H 0.7672 0.9406 0.4160
C125 C 0.8667(3) 0.8787(2) 0.36444(18)
C126 C 0.8991(3) 0.8106(2) 0.34566(17)
H99 H 0.9531 0.7978 0.3218
C127 C 0.8823(3) 0.6924(2) 0.33766(17)
C128 C 0.6508(3) 0.8709(2) 0.45625(19)
C129 C 0.9088(3) 0.9376(2) 0.33887(19)
H175 H 0.9889 0.9853 0.4394
C227 C 0.6556(3) 0.9892(2) 0.2085(2)
C228 C 0.5983(3) 0.9909(4) 0.2615(3)
C229 C 0.5940(4) 0.9235(5) 0.30021(19)
H180 H 0.5556 0.9246 0.3357
C230 C 0.6470(5) 0.8546(4) 0.2859(3)
H181 H 0.6442 0.8095 0.3119
C231 C 0.7044(4) 0.8530(2) 0.2329(3)
H182 H 0.7399 0.8068 0.2234
C232 C 0.7087(3) 0.9203(3) 0.1942(2)
C234 C 0.7657(5) 0.9140(6) 0.1384(4)
H185 H 0.7816 0.8632 0.1324
H186 H 0.7318 0.9492 0.1041
C235 C 0.9027(4) 0.9046(4) 0.1831(2)
H187 H 0.8931 0.8732 0.2205
C236 C 0.9602(5) 0.9705(3) 0.1118(3)
H188 H 0.9994 0.9942 0.0890
C237 C 0.8839(5) 0.9723(4) 0.0917(3)
H189 H 0.8606 0.9983 0.0536
N50 N 0.9699(3) 0.9285(2) 0.17073(17)
N51 N 0.8489(3) 0.9291(4) 0.1377(2)
O34 O 0.6007(3) 0.8333(2) 0.4607(2)
O38 O 0.9765(2) 0.92447(19) 0.30226(15)
C28 C 0.2800(3) 0.6365(2) 0.10311(19)
C29 C 0.2412(3) 0.5823(2) 0.1284(2)
H10 H 0.2624 0.5373 0.1152
C30 C 0.1702(3) 0.5941(2) 0.17374(18)
C31 C 0.1404(3) 0.6610(2) 0.19375(18)
H11 H 0.0935 0.6692 0.2240
C32 C 0.1794(3) 0.7153(2) 0.16936(18)
C33 C 0.2483(3) 0.7038(2) 0.12318(19)
H12 H 0.2732 0.7411 0.1056
C34 C 0.1282(3) 0.5348(2) 0.19745(18)
C35 C 0.1470(3) 0.7865(2) 0.19235(19)
C36 C 0.3587(3) 0.6186(3) 0.0569(2)
O24 O 0.3817(3) 0.67064(19) 0.02275(17)
C130 C 0.8400(3) 0.3977(2) 0.32699(18)
C131 C 0.7667(3) 0.4344(2) 0.36363(18)
H100 H 0.7562 0.4839 0.3654
C132 C 0.7102(3) 0.3973(2) 0.39703(18)
C133 C 0.7253(3) 0.3235(2) 0.39437(19)
H101 H 0.6872 0.2987 0.4175
C134 C 0.7967(3) 0.2863(2) 0.35747(19)
C135 C 0.8532(3) 0.3244(2) 0.32384(18)
H102 H 0.9008 0.3002 0.2987
C136 C 0.9024(3) 0.4378(2) 0.29242(18)
C137 C 0.6322(3) 0.4375(2) 0.43433(19)
C138 C 0.8125(3) 0.2070(2) 0.3536(2)
O49 O 0.7827(4) 0.1660(2) 0.3944(2)
H193_2 H 0.378386 0.00215641 0.934066
H198_2 H 0.493198 0.365004 0.999193
loop_
_geom_bond_atom_site_label_1
_geom_bond_atom_site_label_2
_geom_bond_site_symmetry_1
_geom_bond_site_symmetry_2
C1 C2 1_555 1_555
C2 H1 1_555 1_555
C3 C2 1_555 1_555
C4 C3 1_555 1_555
H2 C4 1_555 1_555
C5 C4 1_555 1_555
C6 C1 1_555 1_555
H3 C6 1_555 1_555
C7 C1 1_555 1_555
C8 C3 1_555 1_555
C9 C5 1_555 1_555
C107 C108 1_555 1_555
C109 C108 1_555 1_555
H84 C109 1_555 1_555
C110 C109 1_555 1_555
H85 C110 1_555 1_555
C111 C110 1_555 1_555
H86 C111 1_555 1_555
C112 C107 1_555 1_555
C114 C112 1_555 1_555
H89 C114 1_555 1_555
H90 C114 1_555 1_555
C115 H91 1_555 1_555
C116 H92 1_555 1_555
C117 C116 1_555 1_555
H93 C117 1_555 1_555
N24 C114 1_555 1_555
O1 C7 1_555 1_555
O2 C7 1_555 1_555
O3 C8 1_555 1_555
O4 Co6 1_555 1_555
Co13 O1 1_555 1_555
Co23 N25 1_555 1_555
C157 C158 1_555 1_555
C158 H109 1_555 1_555
C159 C158 1_555 1_555
H110 C159 1_555 1_555
C160 C159 1_555 1_555
H111 C160 1_555 1_555
C161 C160 1_555 1_555
H112 C161 1_555 1_555
C162 C157 1_555 1_555
C163 C157 1_555 1_555
H113 C163 1_555 1_555
H114 C163 1_555 1_555
C164 C162 1_555 1_555
H115 C164 1_555 1_555
H116 C164 1_555 1_555
C165 H117 1_555 1_555
C166 H118 1_555 1_555
C167 C166 1_555 1_555
H119 C167 1_555 1_555
C168 H120 1_555 1_555
C169 H121 1_555 1_555
C170 C169 1_555 1_555
H122 C170 1_555 1_555
N25 C165 1_555 1_555
N28 C163 1_555 1_555
N29 C164 1_555 1_555
N30 Co6 1_555 1_555
O68 Co6 1_555 1_555
C5 C6 1_555 1_555
C8 O4 1_555 1_555
C9 O6 1_555 1_555
C111 C112 1_555 1_555
C115 N23 1_555 1_555
C115 N24 1_555 1_555
C116 N23 1_555 1_555
C117 N24 1_555 1_555
O2 Co13 1_555 1_555
C161 C162 1_555 1_555
C165 N28 1_555 1_555
C166 N25 1_555 1_555
C167 N28 1_555 1_555
C168 N29 1_555 1_555
C168 N30 1_555 1_555
C169 N29 1_555 1_555
C170 N30 1_555 1_555
C72 C70 1_555 1_555
H48 C72 1_555 1_555
Co6_2 N4 1_555 1_555
C10 C11 1_555 1_555
C11 H4 1_555 1_555
C12 C11 1_555 1_555
C13 C12 1_555 1_555
H5 C13 1_555 1_555
C14 C13 1_555 1_555
C15 C10 1_555 1_555
H6 C15 1_555 1_555
C16 C10 1_555 1_555
C17 C12 1_555 1_555
C18 C14 1_555 1_555
C37 C38 1_555 1_555
C38 H13 1_555 1_555
C39 C38 1_555 1_555
H14 C39 1_555 1_555
C40 C39 1_555 1_555
H15 C40 1_555 1_555
C41 C40 1_555 1_555
H16 C41 1_555 1_555
C42 C37 1_555 1_555
C43 C37 1_555 1_555
H17 C43 1_555 1_555
H18 C43 1_555 1_555
C44 C42 1_555 1_555
H19 C44 1_555 1_555
H20 C44 1_555 1_555
C45 H21 1_555 1_555
C46 H22 1_555 1_555
C47 C46 1_555 1_555
H23 C47 1_555 1_555
C48 H24 1_555 1_555
C49 H25 1_555 1_555
C50 C49 1_555 1_555
H26 C50 1_555 1_555
C53 H29 1_555 1_555
C54 C53 1_555 1_555
H30 C54 1_555 1_555
C55 C54 1_555 1_555
H31 C55 1_555 1_555
C59 H35 1_555 1_555
C65 C66 1_555 1_555
C66 H41 1_555 1_555
C71 C65 1_555 1_555
H45 C71 1_555 1_555
H46 C71 1_555 1_555
C73 H49 1_555 1_555
C74 H50 1_555 1_555
C75 C74 1_555 1_555
H51 C75 1_555 1_555
C77 H53 1_555 1_555
C78 C77 1_555 1_555
H54 C78 1_555 1_555
H87 C113 1_555 1_555
H88 C113 1_555 1_555
C118 H94 1_555 1_555
C119 H95 1_555 1_555
C120 C119 1_555 1_555
H96 C120 1_555 1_555
N1 C45 1_555 1_555
N2 C43 1_555 1_555
N3 C44 1_555 1_555
N4 C48 1_555 1_555
N9 C71 1_555 1_555
N10 Co13 1_555 1_555
N17 Co3 1_555 1_555
N18 C113 1_555 1_555
O5 Co3 1_555 1_555
O8 Co13 1_555 1_555
O9 C17 1_555 1_555
O10 C17 1_555 1_555
O11 Co3 1_555 1_555
O12 C18 1_555 1_555
O26 Co6_2 1_555 1_555
Co23_2 N1 1_555 1_555
Co24 O9 1_555 1_555
O36 Co6_2 1_555 1_555
C14 C15 1_555 1_555
C16 O7 1_555 1_555
C16 O8 1_555 1_555
C18 O11 1_555 1_555
C41 C42 1_555 1_555
C45 N2 1_555 1_555
C46 N1 1_555 1_555
C47 N2 1_555 1_555
C48 N3 1_555 1_555
C49 N3 1_555 1_555
C50 N4 1_555 1_555
C73 N9 1_555 1_555
C73 N10 1_555 1_555
C74 N9 1_555 1_555
C75 N10 1_555 1_555
C77 N11 1_555 1_555
C118 N17 1_555 1_555
C118 N18 1_555 1_555
C119 N18 1_555 1_555
C120 N17 1_555 1_555
O10 Co24 1_555 1_555
O27 Co5 1_555 1_555
Co9 N33 1_555 1_555
C139 C140 1_555 1_555
C140 H103 1_555 1_555
C141 C140 1_555 1_555
C142 C141 1_555 1_555
H104 C142 1_555 1_555
C143 C142 1_555 1_555
C144 C139 1_555 1_555
H105 C144 1_555 1_555
C145 C139 1_555 1_555
C146 C141 1_555 1_555
C147 C143 1_555 1_555
C171 H123 1_555 1_555
H124 C171 1_555 1_555
H128 C176 1_555 1_555
C177 C171 1_555 1_555
C178 C172 1_555 1_555
H129 C178 1_555 1_555
H130 C178 1_555 1_555
C180 H132 1_555 1_555
C181 C180 1_555 1_555
H133 C181 1_555 1_555
C182 H134 1_555 1_555
C183 H135 1_555 1_555
C184 C183 1_555 1_555
H136 C184 1_555 1_555
H138 C187 1_555 1_555
C196 H148 1_555 1_555
C213 C214 1_555 1_555
C214 H165 1_555 1_555
C215 C214 1_555 1_555
H166 C215 1_555 1_555
C216 C215 1_555 1_555
H167 C216 1_555 1_555
C217 C216 1_555 1_555
C218 C213 1_555 1_555
C219 C213 1_555 1_555
H169 C219 1_555 1_555
H170 C219 1_555 1_555
C221 H173 1_555 1_555
N32 C178 1_555 1_555
N33 C182 1_555 1_555
N34 C171 1_555 1_555
N38 Co9 1_555 1_555
N39 C221 1_555 1_555
N40 C219 1_555 1_555
O50 C145 1_555 1_555
O51 Co9 1_555 1_555
O54 Co5 1_555 1_555
O55 C146 1_555 1_555
O57 Co9 1_555 1_555
C143 C144 1_555 1_555
C145 O51 1_555 1_555
C146 O54 1_555 1_555
C147 O52 1_555 1_555
C147 O53 1_555 1_555
C172 C177 1_555 1_555
C176 C177 1_555 1_555
C180 N31 1_555 1_555
C181 N32 1_555 1_555
C182 N34 1_555 1_555
C183 N33 1_555 1_555
C184 N34 1_555 1_555
C196 N38 1_555 1_555
C217 C218 1_555 1_555
C221 N40 1_555 1_555
C223 N39 1_555 1_555
Co4 N16 1_555 1_555
H75 C100 1_555 1_555
H76 C100 1_555 1_555
C102 H78 1_555 1_555
C104 H80 1_555 1_555
C105 H81 1_555 1_555
C106 C105 1_555 1_555
H82 C106 1_555 1_555
N15 C100 1_555 1_555
N16 C104 1_555 1_555
Co10 O56 1_555 1_555
Co23_2 O64 1_555 1_555
Co24 N47 1_555 1_555
C148 C149 1_555 1_555
C149 H106 1_555 1_555
C150 C149 1_555 1_555
C151 C150 1_555 1_555
H107 C151 1_555 1_555
C152 C151 1_555 1_555
C153 C148 1_555 1_555
H108 C153 1_555 1_555
C154 C150 1_555 1_555
C155 C152 1_555 1_555
C156 C148 1_555 1_555
H139 C188 1_555 1_555
C189 C188 1_555 1_555
H140 C189 1_555 1_555
C199 C200 1_555 1_555
C200 H151 1_555 1_555
C201 C200 1_555 1_555
H152 C201 1_555 1_555
C202 C201 1_555 1_555
H153 C202 1_555 1_555
C203 C202 1_555 1_555
H154 C203 1_555 1_555
C204 C199 1_555 1_555
C205 C199 1_555 1_555
H155 C205 1_555 1_555
H156 C205 1_555 1_555
C206 C204 1_555 1_555
H157 C206 1_555 1_555
H158 C206 1_555 1_555
C207 H159 1_555 1_555
C208 H160 1_555 1_555
C209 C208 1_555 1_555
H161 C209 1_555 1_555
C210 H162 1_555 1_555
C211 H163 1_555 1_555
C212 C211 1_555 1_555
H164 C212 1_555 1_555
N45 Co5_2 1_555 1_555
N46 C205 1_555 1_555
N47 C210 1_555 1_555
N49 C206 1_555 1_555
O56 C154 1_555 1_555
O60 Co4 1_555 1_555
O62 Co4 1_555 1_555
O64 C156 1_555 1_555
O66 C156 1_555 1_555
C104 N15 1_555 1_555
C105 N15 1_555 1_555
C106 N16 1_555 1_555
C152 C153 1_555 1_555
C154 O58 1_555 1_555
C155 O60 1_555 1_555
C155 O62 1_555 1_555
C203 C204 1_555 1_555
C207 N45 1_555 1_555
C207 N46 1_555 1_555
C208 N46 1_555 1_555
C209 N45 1_555 1_555
C210 N49 1_555 1_555
C211 N47 1_555 1_555
C212 N49 1_555 1_555
Co5_3 N19 1_555 1_555
Co24 N21 1_555 1_555
H43 C68 1_555 1_555
C69 C68 1_555 1_555
H44 C69 1_555 1_555
C79 C80 1_555 1_555
C80 H55 1_555 1_555
C81 C80 1_555 1_555
H56 C81 1_555 1_555
C82 C81 1_555 1_555
H57 C82 1_555 1_555
C83 C82 1_555 1_555
H58 C83 1_555 1_555
C84 C79 1_555 1_555
C85 C79 1_555 1_555
H59 C85 1_555 1_555
H60 C85 1_555 1_555
C86 C84 1_555 1_555
H61 C86 1_555 1_555
H62 C86 1_555 1_555
C87 H63 1_555 1_555
C88 H64 1_555 1_555
C89 C88 1_555 1_555
H65 C89 1_555 1_555
C90 H66 1_555 1_555
C91 H67 1_555 1_555
C92 C91 1_555 1_555
H68 C92 1_555 1_555
N19 C87 1_555 1_555
N20 C85 1_555 1_555
N21 C90 1_555 1_555
N22 C86 1_555 1_555
O25 Co23 1_555 1_555
Co18 N42 1_555 1_555
H171 C220 1_555 1_555
H172 C220 1_555 1_555
C222 H174 1_555 1_555
C224 H176 1_555 1_555
C225 H177 1_555 1_555
C226 C225 1_555 1_555
H178 C226 1_555 1_555
N41 C220 1_555 1_555
N42 C224 1_555 1_555
O44 Co24 1_555 1_555
O46 Co24 1_555 1_555
O61 Co18 1_555 1_555
O63 Co18 1_555 1_555
O65 Co23 1_555 1_555
C83 C84 1_555 1_555
C87 N20 1_555 1_555
C88 N20 1_555 1_555
C89 N19 1_555 1_555
C90 N22 1_555 1_555
C91 N21 1_555 1_555
C92 N22 1_555 1_555
C224 N41 1_555 1_555
C225 N41 1_555 1_555
C226 N42 1_555 1_555
Co10 N7 1_555 1_555
C19 C20 1_555 1_555
C20 H7 1_555 1_555
C21 C20 1_555 1_555
C22 C21 1_555 1_555
H8 C22 1_555 1_555
C23 C22 1_555 1_555
C24 C19 1_555 1_555
H9 C24 1_555 1_555
C25 C19 1_555 1_555
C26 C21 1_555 1_555
C27 C23 1_555 1_555
C51 H27 1_555 1_555
H28 C51 1_555 1_555
H32 C56 1_555 1_555
C57 C51 1_555 1_555
C58 C52 1_555 1_555
H33 C58 1_555 1_555
H34 C58 1_555 1_555
C60 H36 1_555 1_555
C61 C60 1_555 1_555
H37 C61 1_555 1_555
C62 H38 1_555 1_555
C63 H39 1_555 1_555
C64 C63 1_555 1_555
H40 C64 1_555 1_555
H42 C67 1_555 1_555
C76 H52 1_555 1_555
C93 C94 1_555 1_555
C94 H69 1_555 1_555
C95 C94 1_555 1_555
H70 C95 1_555 1_555
C96 C95 1_555 1_555
H71 C96 1_555 1_555
C97 C96 1_555 1_555
C98 C93 1_555 1_555
C99 C93 1_555 1_555
H73 C99 1_555 1_555
H74_2 C99 1_555 1_555
C101 H77 1_555 1_555
N6 C58 1_555 1_555
N7 C62 1_555 1_555
N8 C51 1_555 1_555
N12 Co10 1_555 1_555
N13 C101 1_555 1_555
N14 C99 1_555 1_555
O13 C25 1_555 1_555
O14 Co10 1_555 1_555
O17 Co5_4 1_555 1_555
O18 C26 1_555 1_555
O67 Co23_2 1_555 1_555
O69 Co5_4 1_555 1_555
C23 C24 1_555 1_555
C25 O14 1_555 1_555
C26 O17 1_555 1_555
C27 O15 1_555 1_555
C27 O16 1_555 1_555
C52 C57 1_555 1_555
C56 C57 1_555 1_555
C60 N5 1_555 1_555
C61 N6 1_555 1_555
C62 N8 1_555 1_555
C63 N7 1_555 1_555
C64 N8 1_555 1_555
C76 N12 1_555 1_555
C97 C98 1_555 1_555
C101 N14 1_555 1_555
C103 N13 1_555 1_555
C173 H125 1_555 1_555
C174 C173 1_555 1_555
H126 C174 1_555 1_555
C175 C174 1_555 1_555
H127 C175 1_555 1_555
C179 H131 1_555 1_555
C185 C186 1_555 1_555
C186 H137 1_555 1_555
C191 C185 1_555 1_555
H141 C191 1_555 1_555
H142 C191 1_555 1_555
C193 H145 1_555 1_555
C194 H146 1_555 1_555
C195 C194 1_555 1_555
H147 C195 1_555 1_555
C197 H149 1_555 1_555
C198 C197 1_555 1_555
H150 C198 1_555 1_555
H183 C233 1_555 1_555
H184 C233 1_555 1_555
C238 H190 1_555 1_555
C239 H191 1_555 1_555
C240 C239 1_555 1_555
H192 C240 1_555 1_555
N35 C191 1_555 1_555
N36 Co12 1_555 1_555
N43 Co16 1_555 1_555
N44 C233 1_555 1_555
O30 Co12 1_555 1_555
O33 Co12 1_555 1_555
O37 Co16 1_555 1_555
O42 Co12 1_555 1_555
O48 Co16 1_555 1_555
C193 N35 1_555 1_555
C193 N36 1_555 1_555
C194 N35 1_555 1_555
C195 N36 1_555 1_555
C197 N37 1_555 1_555
C238 N43 1_555 1_555
C238 N44 1_555 1_555
C239 N44 1_555 1_555
C240 N43 1_555 1_555
C192 C190 1_555 1_555
H144 C192 1_555 1_555
C121 C122 1_555 1_555
C122 H97 1_555 1_555
C123 C122 1_555 1_555
C124 C123 1_555 1_555
H98 C124 1_555 1_555
C125 C124 1_555 1_555
C126 C121 1_555 1_555
H99 C126 1_555 1_555
C127 C121 1_555 1_555
C128 C123 1_555 1_555
C129 C125 1_555 1_555
C227 C228 1_555 1_555
C229 C228 1_555 1_555
H180 C229 1_555 1_555
C230 C229 1_555 1_555
H181 C230 1_555 1_555
C231 C230 1_555 1_555
H182 C231 1_555 1_555
C232 C227 1_555 1_555
C234 C232 1_555 1_555
H185 C234 1_555 1_555
H186 C234 1_555 1_555
C235 H187 1_555 1_555
C236 H188 1_555 1_555
C237 C236 1_555 1_555
H189 C237 1_555 1_555
N51 C234 1_555 1_555
O30 C127 1_555 1_555
O34 C128 1_555 1_555
O36 C128 1_555 1_555
C125 C126 1_555 1_555
C127 O33 1_555 1_555
C129 O38 1_555 1_555
C231 C232 1_555 1_555
C235 N50 1_555 1_555
C235 N51 1_555 1_555
C236 N50 1_555 1_555
C237 N51 1_555 1_555
C28 C29 1_555 1_555
C29 H10 1_555 1_555
C30 C29 1_555 1_555
C31 C30 1_555 1_555
H11 C31 1_555 1_555
C32 C31 1_555 1_555
C33 C28 1_555 1_555
H12 C33 1_555 1_555
C34 C30 1_555 1_555
C35 C32 1_555 1_555
C36 C28 1_555 1_555
O61 C35 1_555 1_555
O63 C35 1_555 1_555
O65 C36 1_555 1_555
O24 C36 1_555 1_555
C32 C33 1_555 1_555
C34 O57 1_555 1_555
C34 O59 1_555 1_555
C130 C131 1_555 1_555
C131 H100 1_555 1_555
C132 C131 1_555 1_555
C133 C132 1_555 1_555
H101 C133 1_555 1_555
C134 C133 1_555 1_555
C135 C130 1_555 1_555
H102 C135 1_555 1_555
C136 C130 1_555 1_555
C137 C132 1_555 1_555
C138 C134 1_555 1_555
O40 C136 1_555 1_555
O42 C136 1_555 1_555
O48 C138 1_555 1_555
O49 C138 1_555 1_555
C134 C135 1_555 1_555
C137 O44 1_555 1_555
C137 O46 1_555 1_555

#END
