
###############################################################################
#
# This file contains modified crystal structure data generated from the
# MOF subset of the Cambridge Structural Database (CSD) v543 
# hosted by the Cambridge Crystallographic Data Centre (CCDC).
#
# This work is licensed under the Creative Commons
# Attribution-NonCommercial-ShareAlike 4.0 International License.
# To view a copy of this license, visit
# http://creativecommons.org/licenses/by-nc-sa/4.0/
# or send a letter to
# Creative Commons, PO Box 1866, Mountain View, CA 94042, USA.
#
# CIF created using the CSD Python API on 29 September 2022
# The structure has been converted into the P1 space group
# The structure has a 3D framework
# The original CSD entry HICNOZ is in the orthorhombic crystal system
# The framework has been calculated to contain at least 10.0% void space
# The void calculation uses a probe of radius 1.32A, grid spacing 0.4
# H atom positions have been added when not included in the experimental data
# Generated hydrogen atom positions removed from atoms on special positions
#
###############################################################################

data_HICNOZ
_chemical_formula_moiety         '(C176 H184 O66 Zr16)n'
_symmetry_cell_setting           triclinic
_symmetry_space_group_name_H-M   'P 1'
_symmetry_Int_Tables_number      1
_space_group_name_Hall           'P 1'
loop_
_symmetry_equiv_pos_site_id
_symmetry_equiv_pos_as_xyz
1 x,y,z
_cell_length_a                   20.2175(9)
_cell_length_b                   34.4927(15)
_cell_length_c                   21.0753(9)
_cell_angle_alpha                90
_cell_angle_beta                 90
_cell_angle_gamma                90
_cell_volume                     14697
loop_
_atom_site_label
_atom_site_type_symbol
_atom_site_fract_x
_atom_site_fract_y
_atom_site_fract_z
Zr1 Zr 0.0000 0.429315(15) 0.5000
Zr2 Zr 0.08716(3) 0.5000 0.41604(2)
O1 O 0.0000 0.46452(11) 0.4156(2)
O2 O 0.0877(3) 0.46576(13) 0.5000
O3 O 0.12194(19) 0.44115(7) 0.38169(15)
O4 O 0.06644(16) 0.39666(6) 0.43757(14)
O5 O 0.1961(3) 0.5000 0.4210(2)
O6 O 0.0784(2) 0.5000 0.31291(19)
C1 C 0.1056(3) 0.40639(11) 0.3947(2)
C2 C 0.1376(3) 0.37515(10) 0.3585(2)
C3 C 0.1286(3) 0.33722(11) 0.3775(2)
H1 H 0.1021 0.3316 0.4124
C4 C 0.1591(3) 0.30760(12) 0.3444(2)
H2 H 0.1559 0.2823 0.3594
C5 C 0.1942(3) 0.31479(11) 0.2897(2)
C6 C 0.2034(3) 0.35262(11) 0.2716(2)
H3 H 0.2293 0.3582 0.2363
C7 C 0.1748(3) 0.38211(11) 0.3050(2)
H4 H 0.1806 0.4075 0.2913
C8 C 0.2247(3) 0.28149(13) 0.2540(2)
C9 C 0.2500 0.2500 0.2861(3)
H5 H 0.2500 0.2500 0.3302
C10 C 0.2227(3) 0.28160(13) 0.1880(2)
H6 H 0.2037 0.3021 0.1660
C11 C 0.2500 0.2500 0.1558(3)
C12 C 0.2500 0.2500 0.0890(4)
C13 C 0.2500 0.2500 0.0322(4)
O7 O 0.37806(19) 0.05885(7) 0.38169(15)
O8 O 0.43356(16) 0.10334(6) 0.43757(14)
C14 C 0.3944(3) 0.09361(11) 0.3947(2)
C15 C 0.3624(3) 0.12485(10) 0.3585(2)
C16 C 0.3714(3) 0.16278(11) 0.3775(2)
H7 H 0.3979 0.1684 0.4124
C17 C 0.3409(3) 0.19240(12) 0.3444(2)
H8 H 0.3441 0.2177 0.3594
C18 C 0.3058(3) 0.18521(11) 0.2897(2)
C19 C 0.2966(3) 0.14738(11) 0.2716(2)
H9 H 0.2707 0.1418 0.2363
C20 C 0.3252(3) 0.11789(11) 0.3050(2)
H10 H 0.3194 0.0925 0.2913
C21 C 0.2753(3) 0.21851(13) 0.2540(2)
C22 C 0.2773(3) 0.21840(13) 0.1880(2)
H11 H 0.2963 0.1979 0.1660
O13 O 0.0000 0.53548(11) 0.4156(2)
Zr5 Zr 0.0000 0.570685(15) 0.5000
Zr7 Zr 0.5000 0.070685(15) 0.5000
Zr10 Zr 0.08716(3) 0.5000 0.58396(2)
Zr11 Zr 0.41284(3) 0.0000 0.41604(2)
O17 O 0.0000 0.46452(11) 0.5844(2)
O19 O 0.0877(3) 0.53424(13) 0.5000
O21 O 0.12194(19) 0.55885(7) 0.38169(15)
O24 O 0.06644(16) 0.39666(6) 0.56243(14)
O9 O 0.12194(19) 0.44115(7) 0.61831(15)
C23 C 0.1056(3) 0.40639(11) 0.6053(2)
C24 C 0.1376(3) 0.37515(10) 0.6415(2)
C25 C 0.1286(3) 0.33722(11) 0.6225(2)
H12 H 0.1021 0.3316 0.5876
C26 C 0.1591(3) 0.30760(12) 0.6556(2)
H13 H 0.1559 0.2823 0.6406
C27 C 0.1942(3) 0.31479(11) 0.7103(2)
C28 C 0.2034(3) 0.35262(11) 0.7284(2)
H14 H 0.2293 0.3582 0.7637
C29 C 0.1748(3) 0.38211(11) 0.6950(2)
H15 H 0.1806 0.4075 0.7087
C30 C 0.2247(3) 0.28149(13) 0.7460(2)
C31 C 0.2500 0.2500 0.7139(3)
H16 H 0.2500 0.2500 0.6698
C32 C 0.2227(3) 0.28160(13) 0.8120(2)
H17 H 0.2037 0.3021 0.8340
C33 C 0.2500 0.2500 0.8442(3)
C34 C 0.2500 0.2500 0.9110(4)
C35 C 0.2500 0.2500 0.9678(4)
O11 O 0.37806(19) 0.05885(7) 0.61831(15)
O12 O 0.43356(16) 0.10334(6) 0.56243(14)
C36 C 0.3944(3) 0.09361(11) 0.6053(2)
C37 C 0.3624(3) 0.12485(10) 0.6415(2)
C38 C 0.3714(3) 0.16278(11) 0.6225(2)
H18 H 0.3979 0.1684 0.5876
C39 C 0.3409(3) 0.19240(12) 0.6556(2)
H19 H 0.3441 0.2177 0.6406
C40 C 0.3058(3) 0.18521(11) 0.7103(2)
C41 C 0.2966(3) 0.14738(11) 0.7284(2)
H20 H 0.2707 0.1418 0.7637
C42 C 0.3252(3) 0.11789(11) 0.6950(2)
H21 H 0.3194 0.0925 0.7087
C43 C 0.2753(3) 0.21851(13) 0.7460(2)
C44 C 0.2773(3) 0.21840(13) 0.8120(2)
H22 H 0.2963 0.1979 0.8340
Zr12 Zr 0.41284(3) -0.0000 0.58396(2)
Zr11_2 Zr 0.41284(3) 1.0000 0.41604(2)
Zr12_2 Zr 0.41284(3) 1.0000 0.58396(2)
Zr1_2 Zr 1.0000 0.429315(15) 0.5000
O1_2 O 1.0000 0.46452(11) 0.4156(2)
Zr3 Zr 0.91284(3) 0.5000 0.41604(2)
O13_2 O 1.0000 0.53548(11) 0.4156(2)
O14 O 0.9123(3) 0.53424(13) 0.5000
O15 O 0.8039(3) 0.5000 0.4210(2)
O16 O 0.9216(2) 0.5000 0.31291(19)
Zr5_2 Zr 1.0000 0.570685(15) 0.5000
Zr8 Zr 0.91284(3) 0.5000 0.58396(2)
O17_2 O 1.0000 0.46452(11) 0.5844(2)
O18 O 0.9123(3) 0.46576(13) 0.5000
O20 O 0.87806(19) 0.55885(7) 0.38169(15)
O22 O 0.87806(19) 0.44115(7) 0.38169(15)
O23 O 0.93356(16) 0.39666(6) 0.56243(14)
O25 O 0.93356(16) 0.39666(6) 0.43757(14)
O17_3 O 0.0000 0.53548(11) 0.5844(2)
O23_2 O 0.06644(16) 0.60334(6) 0.56243(14)
O25_2 O 0.06644(16) 0.60334(6) 0.43757(14)
Zr11_3 Zr 0.58716(3) 0.0000 0.41604(2)
Zr12_3 Zr 0.58716(3) 0.0000 0.58396(2)
O4_2 O 0.93356(16) 0.60334(6) 0.43757(14)
C1_2 C 0.8944(3) 0.59361(11) 0.3947(2)
C2_2 C 0.8624(3) 0.62485(10) 0.3585(2)
C3_2 C 0.8714(3) 0.66278(11) 0.3775(2)
H1_2 H 0.8979 0.6684 0.4124
C4_2 C 0.8409(3) 0.69240(12) 0.3444(2)
H2_2 H 0.8441 0.7177 0.3594
C5_2 C 0.8058(3) 0.68521(11) 0.2897(2)
C6_2 C 0.7966(3) 0.64738(11) 0.2716(2)
H3_2 H 0.7707 0.6418 0.2363
C7_2 C 0.8252(3) 0.61789(11) 0.3050(2)
H4_2 H 0.8194 0.5925 0.2913
C8_2 C 0.7753(3) 0.71851(13) 0.2540(2)
C9_2 C 0.7500 0.7500 0.2861(3)
H5_2 H 0.7500 0.7500 0.3302
C10_2 C 0.7773(3) 0.71840(13) 0.1880(2)
H6_2 H 0.7963 0.6979 0.1660
C11_2 C 0.7500 0.7500 0.1558(3)
C12_2 C 0.7500 0.7500 0.0890(4)
C13_2 C 0.7500 0.7500 0.0322(4)
O7_2 O 0.62194(19) 0.94115(7) 0.38169(15)
O8_2 O 0.56644(16) 0.89666(6) 0.43757(14)
C14_2 C 0.6056(3) 0.90639(11) 0.3947(2)
C15_2 C 0.6376(3) 0.87515(10) 0.3585(2)
C16_2 C 0.6286(3) 0.83722(11) 0.3775(2)
H7_2 H 0.6021 0.8316 0.4124
C17_2 C 0.6591(3) 0.80760(12) 0.3444(2)
H8_2 H 0.6559 0.7823 0.3594
C18_2 C 0.6942(3) 0.81479(11) 0.2897(2)
C19_2 C 0.7034(3) 0.85262(11) 0.2716(2)
H9_2 H 0.7293 0.8582 0.2363
C20_2 C 0.6748(3) 0.88211(11) 0.3050(2)
H10_2 H 0.6806 0.9075 0.2913
C21_2 C 0.7247(3) 0.78149(13) 0.2540(2)
C22_2 C 0.7227(3) 0.78160(13) 0.1880(2)
H11_2 H 0.7037 0.8021 0.1660
Zr7_2 Zr 0.5000 0.929315(15) 0.5000
Zr11_4 Zr 0.58716(3) 1.0000 0.41604(2)
O17_4 O 1.0000 0.53548(11) 0.5844(2)
O24_2 O 0.93356(16) 0.60334(6) 0.56243(14)
O9_2 O 0.87806(19) 0.55885(7) 0.61831(15)
C23_2 C 0.8944(3) 0.59361(11) 0.6053(2)
C24_2 C 0.8624(3) 0.62485(10) 0.6415(2)
C25_2 C 0.8714(3) 0.66278(11) 0.6225(2)
H12_2 H 0.8979 0.6684 0.5876
C26_2 C 0.8409(3) 0.69240(12) 0.6556(2)
H13_2 H 0.8441 0.7177 0.6406
C27_2 C 0.8058(3) 0.68521(11) 0.7103(2)
C28_2 C 0.7966(3) 0.64738(11) 0.7284(2)
H14_2 H 0.7707 0.6418 0.7637
C29_2 C 0.8252(3) 0.61789(11) 0.6950(2)
H15_2 H 0.8194 0.5925 0.7087
C30_2 C 0.7753(3) 0.71851(13) 0.7460(2)
C31_2 C 0.7500 0.7500 0.7139(3)
H16_2 H 0.7500 0.7500 0.6698
C32_2 C 0.7773(3) 0.71840(13) 0.8120(2)
H17_2 H 0.7963 0.6979 0.8340
C33_2 C 0.7500 0.7500 0.8442(3)
C34_2 C 0.7500 0.7500 0.9110(4)
C35_2 C 0.7500 0.7500 0.9678(4)
O11_2 O 0.62194(19) 0.94115(7) 0.61831(15)
O12_2 O 0.56644(16) 0.89666(6) 0.56243(14)
C36_2 C 0.6056(3) 0.90639(11) 0.6053(2)
C37_2 C 0.6376(3) 0.87515(10) 0.6415(2)
C38_2 C 0.6286(3) 0.83722(11) 0.6225(2)
H18_2 H 0.6021 0.8316 0.5876
C39_2 C 0.6591(3) 0.80760(12) 0.6556(2)
H19_2 H 0.6559 0.7823 0.6406
C40_2 C 0.6942(3) 0.81479(11) 0.7103(2)
C41_2 C 0.7034(3) 0.85262(11) 0.7284(2)
H20_2 H 0.7293 0.8582 0.7637
C42_2 C 0.6748(3) 0.88211(11) 0.6950(2)
H21_2 H 0.6806 0.9075 0.7087
C43_2 C 0.7247(3) 0.78149(13) 0.7460(2)
C44_2 C 0.7227(3) 0.78160(13) 0.8120(2)
H22_2 H 0.7037 0.8021 0.8340
Zr12_4 Zr 0.58716(3) 1.0000 0.58396(2)
O15_2 O 0.1961(3) 0.5000 0.5790(2)
O16_2 O 0.0784(2) 0.5000 0.68709(19)
O20_2 O 0.12194(19) 0.55885(7) 0.61831(15)
C23_3 C 0.8944(3) 0.40639(11) 0.3947(2)
C24_3 C 0.8624(3) 0.37515(10) 0.3585(2)
C25_3 C 0.8714(3) 0.33722(11) 0.3775(2)
H12_3 H 0.8979 0.3316 0.4124
C26_3 C 0.8409(3) 0.30760(12) 0.3444(2)
H13_3 H 0.8441 0.2823 0.3594
C27_3 C 0.8058(3) 0.31479(11) 0.2897(2)
C28_3 C 0.7966(3) 0.35262(11) 0.2716(2)
H14_3 H 0.7707 0.3582 0.2363
C29_3 C 0.8252(3) 0.38211(11) 0.3050(2)
H15_3 H 0.8194 0.4075 0.2913
C30_3 C 0.7753(3) 0.28149(13) 0.2540(2)
C31_3 C 0.7500 0.2500 0.2861(3)
H16_3 H 0.7500 0.2500 0.3302
C32_3 C 0.7773(3) 0.28160(13) 0.1880(2)
H17_3 H 0.7963 0.3021 0.1660
C33_3 C 0.7500 0.2500 0.1558(3)
C34_3 C 0.7500 0.2500 0.0890(4)
C35_3 C 0.7500 0.2500 0.0322(4)
O11_3 O 0.62194(19) 0.05885(7) 0.38169(15)
O12_3 O 0.56644(16) 0.10334(6) 0.43757(14)
C36_3 C 0.6056(3) 0.09361(11) 0.3947(2)
C37_3 C 0.6376(3) 0.12485(10) 0.3585(2)
C38_3 C 0.6286(3) 0.16278(11) 0.3775(2)
H18_3 H 0.6021 0.1684 0.4124
C39_3 C 0.6591(3) 0.19240(12) 0.3444(2)
H19_3 H 0.6559 0.2177 0.3594
C40_3 C 0.6942(3) 0.18521(11) 0.2897(2)
C41_3 C 0.7034(3) 0.14738(11) 0.2716(2)
H20_3 H 0.7293 0.1418 0.2363
C42_3 C 0.6748(3) 0.11789(11) 0.3050(2)
H21_3 H 0.6806 0.0925 0.2913
C43_3 C 0.7247(3) 0.21851(13) 0.2540(2)
C44_3 C 0.7227(3) 0.21840(13) 0.1880(2)
H22_3 H 0.7037 0.1979 0.1660
O3_2 O 0.87806(19) 0.44115(7) 0.61831(15)
O5_2 O 0.8039(3) 0.5000 0.5790(2)
O6_2 O 0.9216(2) 0.5000 0.68709(19)
C1_3 C 0.8944(3) 0.40639(11) 0.6053(2)
C2_3 C 0.8624(3) 0.37515(10) 0.6415(2)
C3_3 C 0.8714(3) 0.33722(11) 0.6225(2)
H1_3 H 0.8979 0.3316 0.5876
C4_3 C 0.8409(3) 0.30760(12) 0.6556(2)
H2_3 H 0.8441 0.2823 0.6406
C5_3 C 0.8058(3) 0.31479(11) 0.7103(2)
C6_3 C 0.7966(3) 0.35262(11) 0.7284(2)
H3_3 H 0.7707 0.3582 0.7637
C7_3 C 0.8252(3) 0.38211(11) 0.6950(2)
H4_3 H 0.8194 0.4075 0.7087
C8_3 C 0.7753(3) 0.28149(13) 0.7460(2)
C9_3 C 0.7500 0.2500 0.7139(3)
H5_3 H 0.7500 0.2500 0.6698
C10_3 C 0.7773(3) 0.28160(13) 0.8120(2)
H6_3 H 0.7963 0.3021 0.8340
C11_3 C 0.7500 0.2500 0.8442(3)
C12_3 C 0.7500 0.2500 0.9110(4)
C13_3 C 0.7500 0.2500 0.9678(4)
O7_3 O 0.62194(19) 0.05885(7) 0.61831(15)
O8_3 O 0.56644(16) 0.10334(6) 0.56243(14)
C14_3 C 0.6056(3) 0.09361(11) 0.6053(2)
C15_3 C 0.6376(3) 0.12485(10) 0.6415(2)
C16_3 C 0.6286(3) 0.16278(11) 0.6225(2)
H7_3 H 0.6021 0.1684 0.5876
C17_3 C 0.6591(3) 0.19240(12) 0.6556(2)
H8_3 H 0.6559 0.2177 0.6406
C18_3 C 0.6942(3) 0.18521(11) 0.7103(2)
C19_3 C 0.7034(3) 0.14738(11) 0.7284(2)
H9_3 H 0.7293 0.1418 0.7637
C20_3 C 0.6748(3) 0.11789(11) 0.6950(2)
H10_3 H 0.6806 0.0925 0.7087
C21_3 C 0.7247(3) 0.21851(13) 0.7460(2)
C22_3 C 0.7227(3) 0.21840(13) 0.8120(2)
H11_3 H 0.7037 0.1979 0.8340
C23_4 C 0.1056(3) 0.59361(11) 0.3947(2)
C24_4 C 0.1376(3) 0.62485(10) 0.3585(2)
C25_4 C 0.1286(3) 0.66278(11) 0.3775(2)
H12_4 H 0.1021 0.6684 0.4124
C26_4 C 0.1591(3) 0.69240(12) 0.3444(2)
H13_4 H 0.1559 0.7177 0.3594
C27_4 C 0.1942(3) 0.68521(11) 0.2897(2)
C28_4 C 0.2034(3) 0.64738(11) 0.2716(2)
H14_4 H 0.2293 0.6418 0.2363
C29_4 C 0.1748(3) 0.61789(11) 0.3050(2)
H15_4 H 0.1806 0.5925 0.2913
C30_4 C 0.2247(3) 0.71851(13) 0.2540(2)
C31_4 C 0.2500 0.7500 0.2861(3)
H16_4 H 0.2500 0.7500 0.3302
C32_4 C 0.2227(3) 0.71840(13) 0.1880(2)
H17_4 H 0.2037 0.6979 0.1660
C33_4 C 0.2500 0.7500 0.1558(3)
C34_4 C 0.2500 0.7500 0.0890(4)
C35_4 C 0.2500 0.7500 0.0322(4)
O11_4 O 0.37806(19) 0.94115(7) 0.38169(15)
O12_4 O 0.43356(16) 0.89666(6) 0.43757(14)
C36_4 C 0.3944(3) 0.90639(11) 0.3947(2)
C37_4 C 0.3624(3) 0.87515(10) 0.3585(2)
C38_4 C 0.3714(3) 0.83722(11) 0.3775(2)
H18_4 H 0.3979 0.8316 0.4124
C39_4 C 0.3409(3) 0.80760(12) 0.3444(2)
H19_4 H 0.3441 0.7823 0.3594
C40_4 C 0.3058(3) 0.81479(11) 0.2897(2)
C41_4 C 0.2966(3) 0.85262(11) 0.2716(2)
H20_4 H 0.2707 0.8582 0.2363
C42_4 C 0.3252(3) 0.88211(11) 0.3050(2)
H21_4 H 0.3194 0.9075 0.2913
C43_4 C 0.2753(3) 0.78149(13) 0.2540(2)
C44_4 C 0.2773(3) 0.78160(13) 0.1880(2)
H22_4 H 0.2963 0.8021 0.1660
C1_4 C 0.1056(3) 0.59361(11) 0.6053(2)
C2_4 C 0.1376(3) 0.62485(10) 0.6415(2)
C3_4 C 0.1286(3) 0.66278(11) 0.6225(2)
H1_4 H 0.1021 0.6684 0.5876
C4_4 C 0.1591(3) 0.69240(12) 0.6556(2)
H2_4 H 0.1559 0.7177 0.6406
C5_4 C 0.1942(3) 0.68521(11) 0.7103(2)
C6_4 C 0.2034(3) 0.64738(11) 0.7284(2)
H3_4 H 0.2293 0.6418 0.7637
C7_4 C 0.1748(3) 0.61789(11) 0.6950(2)
H4_4 H 0.1806 0.5925 0.7087
C8_4 C 0.2247(3) 0.71851(13) 0.7460(2)
C9_4 C 0.2500 0.7500 0.7139(3)
H5_4 H 0.2500 0.7500 0.6698
C10_4 C 0.2227(3) 0.71840(13) 0.8120(2)
H6_4 H 0.2037 0.6979 0.8340
C11_4 C 0.2500 0.7500 0.8442(3)
C12_4 C 0.2500 0.7500 0.9110(4)
C13_4 C 0.2500 0.7500 0.9678(4)
O7_4 O 0.37806(19) 0.94115(7) 0.61831(15)
O8_4 O 0.43356(16) 0.89666(6) 0.56243(14)
C14_4 C 0.3944(3) 0.90639(11) 0.6053(2)
C15_4 C 0.3624(3) 0.87515(10) 0.6415(2)
C16_4 C 0.3714(3) 0.83722(11) 0.6225(2)
H7_4 H 0.3979 0.8316 0.5876
C17_4 C 0.3409(3) 0.80760(12) 0.6556(2)
H8_4 H 0.3441 0.7823 0.6406
C18_4 C 0.3058(3) 0.81479(11) 0.7103(2)
C19_4 C 0.2966(3) 0.85262(11) 0.7284(2)
H9_4 H 0.2707 0.8582 0.7637
C20_4 C 0.3252(3) 0.88211(11) 0.6950(2)
H10_4 H 0.3194 0.9075 0.7087
C21_4 C 0.2753(3) 0.78149(13) 0.7460(2)
C22_4 C 0.2773(3) 0.78160(13) 0.8120(2)
H11_4 H 0.2963 0.8021 0.8340
O5_3 O 0.6961(3) 0.0000 0.4210(2)
O6_3 O 0.5784(2) 0.0000 0.31291(19)
O13_3 O 0.5000 0.03548(11) 0.4156(2)
O14_2 O 0.4123(3) 0.03424(13) 0.5000
O15_3 O 0.3039(3) 0.0000 0.4210(2)
O16_3 O 0.4216(2) 0.0000 0.31291(19)
O19_2 O 0.5877(3) 0.03424(13) 0.5000
O1_3 O 0.5000 0.96452(11) 0.4156(2)
O2_2 O 0.5877(3) 0.96576(13) 0.5000
O5_4 O 0.6961(3) 1.0000 0.4210(2)
O6_4 O 0.5784(2) 1.0000 0.31291(19)
O15_4 O 0.3039(3) 1.0000 0.4210(2)
O16_4 O 0.4216(2) 1.0000 0.31291(19)
O17_5 O 0.5000 0.96452(11) 0.5844(2)
O18_2 O 0.4123(3) 0.96576(13) 0.5000
O17_6 O 0.5000 0.03548(11) 0.5844(2)
O5_5 O 0.3039(3) 0.0000 0.5790(2)
O6_5 O 0.4216(2) 0.0000 0.68709(19)
O15_5 O 0.6961(3) 0.0000 0.5790(2)
O16_5 O 0.5784(2) 0.0000 0.68709(19)
O5_6 O 0.3039(3) 1.0000 0.5790(2)
O6_6 O 0.4216(2) 1.0000 0.68709(19)
O15_6 O 0.6961(3) 1.0000 0.5790(2)
O16_6 O 0.5784(2) 1.0000 0.68709(19)
loop_
_geom_bond_atom_site_label_1
_geom_bond_atom_site_label_2
_geom_bond_site_symmetry_1
_geom_bond_site_symmetry_2
Zr1 O1 1_555 1_555
Zr2 O1 1_555 1_555
O2 Zr1 1_555 1_555
O3 Zr2 1_555 1_555
O4 Zr1 1_555 1_555
O5 Zr2 1_555 1_555
O6 Zr2 1_555 1_555
C1 O3 1_555 1_555
C2 C1 1_555 1_555
C3 C2 1_555 1_555
H1 C3 1_555 1_555
C4 C3 1_555 1_555
H2 C4 1_555 1_555
C5 C4 1_555 1_555
C6 C5 1_555 1_555
H3 C6 1_555 1_555
C7 C2 1_555 1_555
H4 C7 1_555 1_555
C8 C5 1_555 1_555
C9 C8 1_555 1_555
H5 C9 1_555 1_555
C10 C8 1_555 1_555
H6 C10 1_555 1_555
C11 C10 1_555 1_555
C12 C11 1_555 1_555
C13 C12 1_555 1_555
O7 C14 1_555 1_555
O8 C14 1_555 1_555
C14 C15 1_555 1_555
C15 C16 1_555 1_555
C16 H7 1_555 1_555
C17 C16 1_555 1_555
H8 C17 1_555 1_555
C18 C17 1_555 1_555
C19 C18 1_555 1_555
H9 C19 1_555 1_555
C20 C15 1_555 1_555
H10 C20 1_555 1_555
C21 C9 1_555 1_555
C22 C11 1_555 1_555
H11 C22 1_555 1_555
O13 Zr2 1_555 1_555
Zr5 O13 1_555 1_555
Zr7 O8 1_555 1_555
Zr10 O2 1_555 1_555
Zr11 O7 1_555 1_555
O17 Zr1 1_555 1_555
O19 Zr2 1_555 1_555
O21 Zr2 1_555 1_555
O24 Zr1 1_555 1_555
Zr2 O2 1_555 1_555
O4 C1 1_555 1_555
C6 C7 1_555 1_555
C18 C21 1_555 1_555
C19 C20 1_555 1_555
C21 C22 1_555 1_555
Zr5 O19 1_555 1_555
Zr10 O17 1_555 1_555
Zr10 O19 1_555 1_555
O9 C23 1_555 1_555
O24 C23 1_555 1_555
C23 C24 1_555 1_555
C24 C25 1_555 1_555
C25 H12 1_555 1_555
C26 C25 1_555 1_555
H13 C26 1_555 1_555
C27 C26 1_555 1_555
C28 C27 1_555 1_555
H14 C28 1_555 1_555
C29 C24 1_555 1_555
H15 C29 1_555 1_555
C30 C27 1_555 1_555
C31 C30 1_555 1_555
H16 C31 1_555 1_555
C32 C30 1_555 1_555
H17 C32 1_555 1_555
C33 C32 1_555 1_555
C34 C33 1_555 1_555
O11 C36 1_555 1_555
O12 C36 1_555 1_555
C36 C37 1_555 1_555
C37 C38 1_555 1_555
C38 H18 1_555 1_555
C39 C38 1_555 1_555
H19 C39 1_555 1_555
C40 C39 1_555 1_555
C41 C40 1_555 1_555
H20 C41 1_555 1_555
C42 C37 1_555 1_555
H21 C42 1_555 1_555
C43 C31 1_555 1_555
C44 C33 1_555 1_555
H22 C44 1_555 1_555
Zr7 O12 1_555 1_555
Zr10 O9 1_555 1_555
Zr12 O11 1_555 1_555
C28 C29 1_555 1_555
C34 C35 1_555 1_555
C40 C43 1_555 1_555
C41 C42 1_555 1_555
C43 C44 1_555 1_555
Zr1_2 O1_2 1_555 1_555
O1_2 Zr3 1_555 1_555
Zr3 O13_2 1_555 1_555
O14 Zr3 1_555 1_555
O15 Zr3 1_555 1_555
O16 Zr3 1_555 1_555
Zr5_2 O13_2 1_555 1_555
Zr8 O14 1_555 1_555
O17_2 Zr1_2 1_555 1_555
O18 Zr1_2 1_555 1_555
O20 Zr3 1_555 1_555
O22 Zr3 1_555 1_555
O23 Zr1_2 1_555 1_555
O25 Zr1_2 1_555 1_555
Zr3 O18 1_555 1_555
O14 Zr5_2 1_555 1_555
Zr8 O17_2 1_555 1_555
Zr8 O18 1_555 1_555
O17_3 Zr5 1_555 1_555
O23_2 Zr5 1_555 1_555
O25_2 Zr5 1_555 1_555
Zr10 O17_3 1_555 1_555
O4_2 Zr5_2 1_555 1_555
C1_2 O20 1_555 1_555
C2_2 C1_2 1_555 1_555
C3_2 C2_2 1_555 1_555
H1_2 C3_2 1_555 1_555
C4_2 C3_2 1_555 1_555
H2_2 C4_2 1_555 1_555
C5_2 C4_2 1_555 1_555
C6_2 C5_2 1_555 1_555
H3_2 C6_2 1_555 1_555
C7_2 C2_2 1_555 1_555
H4_2 C7_2 1_555 1_555
C8_2 C5_2 1_555 1_555
C9_2 C8_2 1_555 1_555
H5_2 C9_2 1_555 1_555
C10_2 C8_2 1_555 1_555
H6_2 C10_2 1_555 1_555
C11_2 C10_2 1_555 1_555
C12_2 C11_2 1_555 1_555
C13_2 C12_2 1_555 1_555
O7_2 C14_2 1_555 1_555
O8_2 C14_2 1_555 1_555
C14_2 C15_2 1_555 1_555
C15_2 C16_2 1_555 1_555
C16_2 H7_2 1_555 1_555
C17_2 C16_2 1_555 1_555
H8_2 C17_2 1_555 1_555
C18_2 C17_2 1_555 1_555
C19_2 C18_2 1_555 1_555
H9_2 C19_2 1_555 1_555
C20_2 C15_2 1_555 1_555
H10_2 C20_2 1_555 1_555
C21_2 C9_2 1_555 1_555
C22_2 C11_2 1_555 1_555
H11_2 C22_2 1_555 1_555
Zr7_2 O8_2 1_555 1_555
Zr11_4 O7_2 1_555 1_555
O17_4 Zr5_2 1_555 1_555
O24_2 Zr5_2 1_555 1_555
O4_2 C1_2 1_555 1_555
C6_2 C7_2 1_555 1_555
C18_2 C21_2 1_555 1_555
C19_2 C20_2 1_555 1_555
C21_2 C22_2 1_555 1_555
Zr8 O17_4 1_555 1_555
O9_2 C23_2 1_555 1_555
O24_2 C23_2 1_555 1_555
C23_2 C24_2 1_555 1_555
C24_2 C25_2 1_555 1_555
C25_2 H12_2 1_555 1_555
C26_2 C25_2 1_555 1_555
H13_2 C26_2 1_555 1_555
C27_2 C26_2 1_555 1_555
C28_2 C27_2 1_555 1_555
H14_2 C28_2 1_555 1_555
C29_2 C24_2 1_555 1_555
H15_2 C29_2 1_555 1_555
C30_2 C27_2 1_555 1_555
C31_2 C30_2 1_555 1_555
H16_2 C31_2 1_555 1_555
C32_2 C30_2 1_555 1_555
H17_2 C32_2 1_555 1_555
C33_2 C32_2 1_555 1_555
C34_2 C33_2 1_555 1_555
O11_2 C36_2 1_555 1_555
O12_2 C36_2 1_555 1_555
C36_2 C37_2 1_555 1_555
C37_2 C38_2 1_555 1_555
C38_2 H18_2 1_555 1_555
C39_2 C38_2 1_555 1_555
H19_2 C39_2 1_555 1_555
C40_2 C39_2 1_555 1_555
C41_2 C40_2 1_555 1_555
H20_2 C41_2 1_555 1_555
C42_2 C37_2 1_555 1_555
H21_2 C42_2 1_555 1_555
C43_2 C31_2 1_555 1_555
C44_2 C33_2 1_555 1_555
H22_2 C44_2 1_555 1_555
Zr7_2 O12_2 1_555 1_555
Zr8 O9_2 1_555 1_555
Zr12_4 O11_2 1_555 1_555
C28_2 C29_2 1_555 1_555
C34_2 C35_2 1_555 1_555
C40_2 C43_2 1_555 1_555
C41_2 C42_2 1_555 1_555
C43_2 C44_2 1_555 1_555
O15_2 Zr10 1_555 1_555
O16_2 Zr10 1_555 1_555
O20_2 Zr10 1_555 1_555
O22 C23_3 1_555 1_555
O25 C23_3 1_555 1_555
C23_3 C24_3 1_555 1_555
C24_3 C25_3 1_555 1_555
C25_3 H12_3 1_555 1_555
C26_3 C25_3 1_555 1_555
H13_3 C26_3 1_555 1_555
C27_3 C26_3 1_555 1_555
C28_3 C27_3 1_555 1_555
H14_3 C28_3 1_555 1_555
C29_3 C24_3 1_555 1_555
H15_3 C29_3 1_555 1_555
C30_3 C27_3 1_555 1_555
C31_3 C30_3 1_555 1_555
H16_3 C31_3 1_555 1_555
C32_3 C30_3 1_555 1_555
H17_3 C32_3 1_555 1_555
C33_3 C32_3 1_555 1_555
C34_3 C33_3 1_555 1_555
O11_3 C36_3 1_555 1_555
O12_3 C36_3 1_555 1_555
C36_3 C37_3 1_555 1_555
C37_3 C38_3 1_555 1_555
C38_3 H18_3 1_555 1_555
C39_3 C38_3 1_555 1_555
H19_3 C39_3 1_555 1_555
C40_3 C39_3 1_555 1_555
C41_3 C40_3 1_555 1_555
H20_3 C41_3 1_555 1_555
C42_3 C37_3 1_555 1_555
H21_3 C42_3 1_555 1_555
C43_3 C31_3 1_555 1_555
C44_3 C33_3 1_555 1_555
H22_3 C44_3 1_555 1_555
Zr7 O12_3 1_555 1_555
Zr11_3 O11_3 1_555 1_555
C28_3 C29_3 1_555 1_555
C34_3 C35_3 1_555 1_555
C40_3 C43_3 1_555 1_555
C41_3 C42_3 1_555 1_555
C43_3 C44_3 1_555 1_555
O3_2 Zr8 1_555 1_555
O5_2 Zr8 1_555 1_555
O6_2 Zr8 1_555 1_555
C1_3 O3_2 1_555 1_555
C2_3 C1_3 1_555 1_555
C3_3 C2_3 1_555 1_555
H1_3 C3_3 1_555 1_555
C4_3 C3_3 1_555 1_555
H2_3 C4_3 1_555 1_555
C5_3 C4_3 1_555 1_555
C6_3 C5_3 1_555 1_555
H3_3 C6_3 1_555 1_555
C7_3 C2_3 1_555 1_555
H4_3 C7_3 1_555 1_555
C8_3 C5_3 1_555 1_555
C9_3 C8_3 1_555 1_555
H5_3 C9_3 1_555 1_555
C10_3 C8_3 1_555 1_555
H6_3 C10_3 1_555 1_555
C11_3 C10_3 1_555 1_555
C12_3 C11_3 1_555 1_555
C13_3 C12_3 1_555 1_555
O7_3 C14_3 1_555 1_555
O8_3 C14_3 1_555 1_555
C14_3 C15_3 1_555 1_555
C15_3 C16_3 1_555 1_555
C16_3 H7_3 1_555 1_555
C17_3 C16_3 1_555 1_555
H8_3 C17_3 1_555 1_555
C18_3 C17_3 1_555 1_555
C19_3 C18_3 1_555 1_555
H9_3 C19_3 1_555 1_555
C20_3 C15_3 1_555 1_555
H10_3 C20_3 1_555 1_555
C21_3 C9_3 1_555 1_555
C22_3 C11_3 1_555 1_555
H11_3 C22_3 1_555 1_555
Zr7 O8_3 1_555 1_555
Zr12_3 O7_3 1_555 1_555
O23 C1_3 1_555 1_555
C6_3 C7_3 1_555 1_555
C18_3 C21_3 1_555 1_555
C19_3 C20_3 1_555 1_555
C21_3 C22_3 1_555 1_555
O21 C23_4 1_555 1_555
O25_2 C23_4 1_555 1_555
C23_4 C24_4 1_555 1_555
C24_4 C25_4 1_555 1_555
C25_4 H12_4 1_555 1_555
C26_4 C25_4 1_555 1_555
H13_4 C26_4 1_555 1_555
C27_4 C26_4 1_555 1_555
C28_4 C27_4 1_555 1_555
H14_4 C28_4 1_555 1_555
C29_4 C24_4 1_555 1_555
H15_4 C29_4 1_555 1_555
C30_4 C27_4 1_555 1_555
C31_4 C30_4 1_555 1_555
H16_4 C31_4 1_555 1_555
C32_4 C30_4 1_555 1_555
H17_4 C32_4 1_555 1_555
C33_4 C32_4 1_555 1_555
C34_4 C33_4 1_555 1_555
O11_4 C36_4 1_555 1_555
O12_4 C36_4 1_555 1_555
C36_4 C37_4 1_555 1_555
C37_4 C38_4 1_555 1_555
C38_4 H18_4 1_555 1_555
C39_4 C38_4 1_555 1_555
H19_4 C39_4 1_555 1_555
C40_4 C39_4 1_555 1_555
C41_4 C40_4 1_555 1_555
H20_4 C41_4 1_555 1_555
C42_4 C37_4 1_555 1_555
H21_4 C42_4 1_555 1_555
C43_4 C31_4 1_555 1_555
C44_4 C33_4 1_555 1_555
H22_4 C44_4 1_555 1_555
Zr7_2 O12_4 1_555 1_555
Zr11_2 O11_4 1_555 1_555
C28_4 C29_4 1_555 1_555
C34_4 C35_4 1_555 1_555
C40_4 C43_4 1_555 1_555
C41_4 C42_4 1_555 1_555
C43_4 C44_4 1_555 1_555
C1_4 O20_2 1_555 1_555
C2_4 C1_4 1_555 1_555
C3_4 C2_4 1_555 1_555
H1_4 C3_4 1_555 1_555
C4_4 C3_4 1_555 1_555
H2_4 C4_4 1_555 1_555
C5_4 C4_4 1_555 1_555
C6_4 C5_4 1_555 1_555
H3_4 C6_4 1_555 1_555
C7_4 C2_4 1_555 1_555
H4_4 C7_4 1_555 1_555
C8_4 C5_4 1_555 1_555
C9_4 C8_4 1_555 1_555
H5_4 C9_4 1_555 1_555
C10_4 C8_4 1_555 1_555
H6_4 C10_4 1_555 1_555
C11_4 C10_4 1_555 1_555
C12_4 C11_4 1_555 1_555
C13_4 C12_4 1_555 1_555
O7_4 C14_4 1_555 1_555
O8_4 C14_4 1_555 1_555
C14_4 C15_4 1_555 1_555
C15_4 C16_4 1_555 1_555
C16_4 H7_4 1_555 1_555
C17_4 C16_4 1_555 1_555
H8_4 C17_4 1_555 1_555
C18_4 C17_4 1_555 1_555
C19_4 C18_4 1_555 1_555
H9_4 C19_4 1_555 1_555
C20_4 C15_4 1_555 1_555
H10_4 C20_4 1_555 1_555
C21_4 C9_4 1_555 1_555
C22_4 C11_4 1_555 1_555
H11_4 C22_4 1_555 1_555
Zr7_2 O8_4 1_555 1_555
Zr12_2 O7_4 1_555 1_555
O23_2 C1_4 1_555 1_555
C6_4 C7_4 1_555 1_555
C18_4 C21_4 1_555 1_555
C19_4 C20_4 1_555 1_555
C21_4 C22_4 1_555 1_555
O5_3 Zr11_3 1_555 1_555
O6_3 Zr11_3 1_555 1_555
Zr11 O13_3 1_555 1_555
O13_3 Zr11_3 1_555 1_555
O14_2 Zr11 1_555 1_555
O15_3 Zr11 1_555 1_555
O16_3 Zr11 1_555 1_555
Zr7 O13_3 1_555 1_555
Zr12 O14_2 1_555 1_555
O19_2 Zr11_3 1_555 1_555
O14_2 Zr7 1_555 1_555
Zr7 O19_2 1_555 1_555
Zr12_3 O19_2 1_555 1_555
Zr7_2 O1_3 1_555 1_555
Zr11_4 O1_3 1_555 1_555
O1_3 Zr11_2 1_555 1_555
O2_2 Zr7_2 1_555 1_555
O5_4 Zr11_4 1_555 1_555
O6_4 Zr11_4 1_555 1_555
O15_4 Zr11_2 1_555 1_555
O16_4 Zr11_2 1_555 1_555
Zr12_4 O2_2 1_555 1_555
O17_5 Zr7_2 1_555 1_555
O18_2 Zr7_2 1_555 1_555
Zr11_4 O2_2 1_555 1_555
Zr11_2 O18_2 1_555 1_555
Zr12_2 O17_5 1_555 1_555
Zr12_2 O18_2 1_555 1_555
Zr12_4 O17_5 1_555 1_555
O17_6 Zr7 1_555 1_555
Zr12_3 O17_6 1_555 1_555
Zr12 O17_6 1_555 1_555
O5_5 Zr12 1_555 1_555
O6_5 Zr12 1_555 1_555
O15_5 Zr12_3 1_555 1_555
O16_5 Zr12_3 1_555 1_555
O5_6 Zr12_2 1_555 1_555
O6_6 Zr12_2 1_555 1_555
O15_6 Zr12_4 1_555 1_555
O16_6 Zr12_4 1_555 1_555

#END
