
###############################################################################
#
# This file contains modified crystal structure data generated from the
# MOF subset of the Cambridge Structural Database (CSD) v543 
# hosted by the Cambridge Crystallographic Data Centre (CCDC).
#
# This work is licensed under the Creative Commons
# Attribution-NonCommercial-ShareAlike 4.0 International License.
# To view a copy of this license, visit
# http://creativecommons.org/licenses/by-nc-sa/4.0/
# or send a letter to
# Creative Commons, PO Box 1866, Mountain View, CA 94042, USA.
#
# CIF created using the CSD Python API on 29 September 2022
# The structure has been converted into the P1 space group
# The structure has a 3D framework
# The original CSD entry HICNIT is in the orthorhombic crystal system
# The framework has been calculated to contain at least 10.0% void space
# The void calculation uses a probe of radius 1.32A, grid spacing 0.4
# H atom positions have been added when not included in the experimental data
# Generated hydrogen atom positions removed from atoms on special positions
#
###############################################################################

data_HICNIT
_chemical_formula_moiety         '(C176 H184 O66 Zr16)n'
_symmetry_cell_setting           triclinic
_symmetry_space_group_name_H-M   'P 1'
_symmetry_Int_Tables_number      1
_space_group_name_Hall           'P 1'
loop_
_symmetry_equiv_pos_site_id
_symmetry_equiv_pos_as_xyz
1 x,y,z
_cell_length_a                   22.327(6)
_cell_length_b                   33.727(9)
_cell_length_c                   20.888(6)
_cell_angle_alpha                90
_cell_angle_beta                 90
_cell_angle_gamma                90
_cell_volume                     15729.1
loop_
_atom_site_label
_atom_site_type_symbol
_atom_site_fract_x
_atom_site_fract_y
_atom_site_fract_z
Zr7 Zr 0.0000 0.92691(3) 0.5000
Zr11 Zr 0.92125(4) -0.0000 0.41547(4)
Zr12 Zr 0.92125(4) -0.0000 0.58453(4)
O9 O 0.5608(3) 0.60614(16) 0.4360(3)
O10 O 0.6102(3) 0.55965(18) 0.3806(3)
C23 C 0.5970(5) 0.5951(3) 0.3943(5)
C24 C 0.7500 0.7500 0.2886(6)
H12 H 0.7500 0.7500 0.3331
C25 C 0.6878(6) 0.6879(3) 0.2930(5)
C26 C 0.6307(4) 0.6267(3) 0.3589(4)
C27 C 0.7214(5) 0.7193(3) 0.2570(4)
C28 C 0.6549(6) 0.6955(3) 0.3453(5)
H13 H 0.6514 0.7216 0.3591
C29 C 0.6269(5) 0.6669(3) 0.3782(5)
H14 H 0.6046 0.6736 0.4142
C30 C 0.7213(6) 0.7197(3) 0.1912(4)
H15 H 0.7021 0.6995 0.1688
C31 C 0.6936(6) 0.6484(3) 0.2744(5)
H16 H 0.7171 0.6420 0.2391
C32 C 0.6648(5) 0.6190(3) 0.3078(5)
H17 H 0.6692 0.5929 0.2944
C33 C 0.7500 0.7500 0.1580(6)
C34 C 0.7500 0.7500 0.0897(7)
C35 C 0.7500 0.7500 0.0335(8)
O11 O 0.9392(3) 0.89386(16) 0.4360(3)
O12 O 0.8898(3) 0.94035(18) 0.3806(3)
C36 C 0.9030(5) 0.9049(3) 0.3943(5)
C37 C 0.8122(6) 0.8121(3) 0.2930(5)
C38 C 0.8693(4) 0.8733(3) 0.3589(4)
C39 C 0.7786(5) 0.7807(3) 0.2570(4)
C40 C 0.8451(6) 0.8045(3) 0.3453(5)
H18 H 0.8486 0.7784 0.3591
C41 C 0.8731(5) 0.8331(3) 0.3782(5)
H19 H 0.8954 0.8264 0.4142
C42 C 0.7787(6) 0.7803(3) 0.1912(4)
H20 H 0.7979 0.8005 0.1688
C43 C 0.8064(6) 0.8516(3) 0.2744(5)
H21 H 0.7829 0.8580 0.2391
C44 C 0.8352(5) 0.8810(3) 0.3078(5)
H22 H 0.8308 0.9071 0.2944
Zr4 Zr 0.5000 0.57309(3) 0.5000
Zr7_2 Zr 1.0000 0.92691(3) 0.5000
Zr8 Zr 0.57875(4) 0.5000 0.41547(4)
Zr11_2 Zr 0.92125(4) 1.0000 0.41547(4)
Zr2 Zr 0.42125(4) 0.5000 0.41547(4)
O1 O 0.5608(3) 0.60614(16) 0.5640(3)
O2 O 0.6102(3) 0.55965(18) 0.6194(3)
O3 O 0.5000 0.5360(3) 0.4164(5)
O4 O 0.4198(4) 0.5359(3) 0.5000
O5 O 0.4375(6) 0.5000 0.3118(4)
O6 O 0.3237(4) 0.5000 0.4250(6)
C1 C 0.5970(5) 0.5951(3) 0.6057(5)
C2 C 0.7500 0.7500 0.7114(6)
H1 H 0.7500 0.7500 0.6669
C3 C 0.6878(6) 0.6879(3) 0.7070(5)
C4 C 0.6307(4) 0.6267(3) 0.6411(4)
C5 C 0.7214(5) 0.7193(3) 0.7430(4)
C6 C 0.6549(6) 0.6955(3) 0.6547(5)
H2 H 0.6514 0.7216 0.6409
C7 C 0.6269(5) 0.6669(3) 0.6218(5)
H3 H 0.6046 0.6736 0.5858
C8 C 0.7213(6) 0.7197(3) 0.8088(4)
H4 H 0.7021 0.6995 0.8312
C9 C 0.6936(6) 0.6484(3) 0.7256(5)
H5 H 0.7171 0.6420 0.7609
C10 C 0.6648(5) 0.6190(3) 0.6922(5)
H6 H 0.6692 0.5929 0.7056
C11 C 0.7500 0.7500 0.8420(6)
C12 C 0.7500 0.7500 0.9103(7)
C13 C 0.7500 0.7500 0.9665(8)
O7 O 0.9392(3) 0.89386(16) 0.5640(3)
O8 O 0.8898(3) 0.94035(18) 0.6194(3)
C14 C 0.9030(5) 0.9049(3) 0.6057(5)
C15 C 0.8122(6) 0.8121(3) 0.7070(5)
C16 C 0.8693(4) 0.8733(3) 0.6411(4)
C17 C 0.7786(5) 0.7807(3) 0.7430(4)
C18 C 0.8451(6) 0.8045(3) 0.6547(5)
H7 H 0.8486 0.7784 0.6409
C19 C 0.8731(5) 0.8331(3) 0.6218(5)
H8 H 0.8954 0.8264 0.5858
C20 C 0.7787(6) 0.7803(3) 0.8088(4)
H9 H 0.7979 0.8005 0.8312
C21 C 0.8064(6) 0.8516(3) 0.7256(5)
H10 H 0.7829 0.8580 0.7609
C22 C 0.8352(5) 0.8810(3) 0.6922(5)
H11 H 0.8308 0.9071 0.7056
O13 O 0.5000 0.4640(3) 0.4164(5)
O14 O 0.5802(4) 0.4641(3) 0.5000
O15 O 0.5625(6) 0.5000 0.3118(4)
O16 O 0.6763(4) 0.5000 0.4250(6)
Zr5 Zr 0.5000 0.42691(3) 0.5000
Zr9 Zr 0.42125(4) 0.5000 0.58453(4)
Zr10 Zr 0.57875(4) 0.5000 0.58453(4)
Zr12_2 Zr 0.92125(4) 1.0000 0.58453(4)
O17 O 0.4392(3) 0.60614(16) 0.4360(3)
O19 O 0.4392(3) 0.60614(16) 0.5640(3)
O20 O 0.6102(3) 0.44035(18) 0.3806(3)
O21 O 0.3898(3) 0.55965(18) 0.3806(3)
O22 O 0.3898(3) 0.44035(18) 0.3806(3)
O24 O 0.5000 0.5360(3) 0.5836(5)
O25 O 0.4198(4) 0.4641(3) 0.5000
O26 O 0.5802(4) 0.5359(3) 0.5000
O9_2 O 0.4392(3) 0.39386(16) 0.4360(3)
C23_2 C 0.4030(5) 0.4049(3) 0.3943(5)
C24_2 C 0.2500 0.2500 0.2886(6)
H12_2 H 0.2500 0.2500 0.3331
C25_2 C 0.3122(6) 0.3121(3) 0.2930(5)
C26_2 C 0.3693(4) 0.3733(3) 0.3589(4)
C27_2 C 0.2786(5) 0.2807(3) 0.2570(4)
C28_2 C 0.3451(6) 0.3045(3) 0.3453(5)
H13_2 H 0.3486 0.2784 0.3591
C29_2 C 0.3731(5) 0.3331(3) 0.3782(5)
H14_2 H 0.3954 0.3264 0.4142
C30_2 C 0.2787(6) 0.2803(3) 0.1912(4)
H15_2 H 0.2979 0.3005 0.1688
C31_2 C 0.3064(6) 0.3516(3) 0.2744(5)
H16_2 H 0.2829 0.3580 0.2391
C32_2 C 0.3352(5) 0.3810(3) 0.3078(5)
H17_2 H 0.3308 0.4071 0.2944
C33_2 C 0.2500 0.2500 0.1580(6)
C34_2 C 0.2500 0.2500 0.0897(7)
C35_2 C 0.2500 0.2500 0.0335(8)
O11_2 O 0.0608(3) 0.10614(16) 0.4360(3)
O12_2 O 0.1102(3) 0.05965(18) 0.3806(3)
C36_2 C 0.0970(5) 0.0951(3) 0.3943(5)
C37_2 C 0.1878(6) 0.1879(3) 0.2930(5)
C38_2 C 0.1307(4) 0.1267(3) 0.3589(4)
C39_2 C 0.2214(5) 0.2193(3) 0.2570(4)
C40_2 C 0.1549(6) 0.1955(3) 0.3453(5)
H18_2 H 0.1514 0.2216 0.3591
C41_2 C 0.1269(5) 0.1669(3) 0.3782(5)
H19_2 H 0.1046 0.1736 0.4142
C42_2 C 0.2213(6) 0.2197(3) 0.1912(4)
H20_2 H 0.2021 0.1995 0.1688
C43_2 C 0.1936(6) 0.1484(3) 0.2744(5)
H21_2 H 0.2171 0.1420 0.2391
C44_2 C 0.1648(5) 0.1190(3) 0.3078(5)
H22_2 H 0.1692 0.0929 0.2944
Zr7_3 Zr -0.0000 0.07309(3) 0.5000
Zr11_3 Zr 0.07875(4) -0.0000 0.41547(4)
O1_2 O 0.4392(3) 0.39386(16) 0.5640(3)
O2_2 O 0.3898(3) 0.44035(18) 0.6194(3)
C1_2 C 0.4030(5) 0.4049(3) 0.6057(5)
C2_2 C 0.2500 0.2500 0.7114(6)
H1_2 H 0.2500 0.2500 0.6669
C3_2 C 0.3122(6) 0.3121(3) 0.7070(5)
C4_2 C 0.3693(4) 0.3733(3) 0.6411(4)
C5_2 C 0.2786(5) 0.2807(3) 0.7430(4)
C6_2 C 0.3451(6) 0.3045(3) 0.6547(5)
H2_2 H 0.3486 0.2784 0.6409
C7_2 C 0.3731(5) 0.3331(3) 0.6218(5)
H3_2 H 0.3954 0.3264 0.5858
C8_2 C 0.2787(6) 0.2803(3) 0.8088(4)
H4_2 H 0.2979 0.3005 0.8312
C9_2 C 0.3064(6) 0.3516(3) 0.7256(5)
H5_2 H 0.2829 0.3580 0.7609
C10_2 C 0.3352(5) 0.3810(3) 0.6922(5)
H6_2 H 0.3308 0.4071 0.7056
C11_2 C 0.2500 0.2500 0.8420(6)
C12_2 C 0.2500 0.2500 0.9103(7)
C13_2 C 0.2500 0.2500 0.9665(8)
O7_2 O 0.0608(3) 0.10614(16) 0.5640(3)
O8_2 O 0.1102(3) 0.05965(18) 0.6194(3)
C14_2 C 0.0970(5) 0.0951(3) 0.6057(5)
C15_2 C 0.1878(6) 0.1879(3) 0.7070(5)
C16_2 C 0.1307(4) 0.1267(3) 0.6411(4)
C17_2 C 0.2214(5) 0.2193(3) 0.7430(4)
C18_2 C 0.1549(6) 0.1955(3) 0.6547(5)
H7_2 H 0.1514 0.2216 0.6409
C19_2 C 0.1269(5) 0.1669(3) 0.6218(5)
H8_2 H 0.1046 0.1736 0.5858
C20_2 C 0.2213(6) 0.2197(3) 0.8088(4)
H9_2 H 0.2021 0.1995 0.8312
C21_2 C 0.1936(6) 0.1484(3) 0.7256(5)
H10_2 H 0.2171 0.1420 0.7609
C22_2 C 0.1648(5) 0.1190(3) 0.6922(5)
H11_2 H 0.1692 0.0929 0.7056
Zr12_3 Zr 0.07875(4) -0.0000 0.58453(4)
O17_2 O 0.5608(3) 0.39386(16) 0.4360(3)
O19_2 O 0.5608(3) 0.39386(16) 0.5640(3)
O24_2 O 0.5000 0.4640(3) 0.5836(5)
Zr11_4 Zr 0.07875(4) 1.0000 0.41547(4)
Zr12_4 Zr 0.07875(4) 1.0000 0.58453(4)
Zr7_4 Zr 1.0000 0.07309(3) 0.5000
O5_2 O 0.4375(6) 0.5000 0.6882(4)
O6_2 O 0.3237(4) 0.5000 0.5750(6)
C1_3 C 0.5970(5) 0.4049(3) 0.3943(5)
C2_3 C 0.7500 0.2500 0.2886(6)
H1_3 H 0.7500 0.2500 0.3331
C3_3 C 0.6878(6) 0.3121(3) 0.2930(5)
C4_3 C 0.6307(4) 0.3733(3) 0.3589(4)
C5_3 C 0.7214(5) 0.2807(3) 0.2570(4)
C6_3 C 0.6549(6) 0.3045(3) 0.3453(5)
H2_3 H 0.6514 0.2784 0.3591
C7_3 C 0.6269(5) 0.3331(3) 0.3782(5)
H3_3 H 0.6046 0.3264 0.4142
C8_3 C 0.7213(6) 0.2803(3) 0.1912(4)
H4_3 H 0.7021 0.3005 0.1688
C9_3 C 0.6936(6) 0.3516(3) 0.2744(5)
H5_3 H 0.7171 0.3580 0.2391
C10_3 C 0.6648(5) 0.3810(3) 0.3078(5)
H6_3 H 0.6692 0.4071 0.2944
C11_3 C 0.7500 0.2500 0.1580(6)
C12_3 C 0.7500 0.2500 0.0897(7)
C13_3 C 0.7500 0.2500 0.0335(8)
O7_3 O 0.9392(3) 0.10614(16) 0.4360(3)
O8_3 O 0.8898(3) 0.05965(18) 0.3806(3)
C14_3 C 0.9030(5) 0.0951(3) 0.3943(5)
C15_3 C 0.8122(6) 0.1879(3) 0.2930(5)
C16_3 C 0.8693(4) 0.1267(3) 0.3589(4)
C17_3 C 0.7786(5) 0.2193(3) 0.2570(4)
C18_3 C 0.8451(6) 0.1955(3) 0.3453(5)
H7_3 H 0.8486 0.2216 0.3591
C19_3 C 0.8731(5) 0.1669(3) 0.3782(5)
H8_3 H 0.8954 0.1736 0.4142
C20_3 C 0.7787(6) 0.2197(3) 0.1912(4)
H9_3 H 0.7979 0.1995 0.1688
C21_3 C 0.8064(6) 0.1484(3) 0.2744(5)
H10_3 H 0.7829 0.1420 0.2391
C22_3 C 0.8352(5) 0.1190(3) 0.3078(5)
H11_3 H 0.8308 0.0929 0.2944
O15_2 O 0.5625(6) 0.5000 0.6882(4)
O16_2 O 0.6763(4) 0.5000 0.5750(6)
O22_2 O 0.3898(3) 0.55965(18) 0.6194(3)
O23 O 0.6102(3) 0.44035(18) 0.6194(3)
C23_3 C 0.5970(5) 0.4049(3) 0.6057(5)
C24_3 C 0.7500 0.2500 0.7114(6)
H12_3 H 0.7500 0.2500 0.6669
C25_3 C 0.6878(6) 0.3121(3) 0.7070(5)
C26_3 C 0.6307(4) 0.3733(3) 0.6411(4)
C27_3 C 0.7214(5) 0.2807(3) 0.7430(4)
C28_3 C 0.6549(6) 0.3045(3) 0.6547(5)
H13_3 H 0.6514 0.2784 0.6409
C29_3 C 0.6269(5) 0.3331(3) 0.6218(5)
H14_3 H 0.6046 0.3264 0.5858
C30_3 C 0.7213(6) 0.2803(3) 0.8088(4)
H15_3 H 0.7021 0.3005 0.8312
C31_3 C 0.6936(6) 0.3516(3) 0.7256(5)
H16_3 H 0.7171 0.3580 0.7609
C32_3 C 0.6648(5) 0.3810(3) 0.6922(5)
H17_3 H 0.6692 0.4071 0.7056
C33_3 C 0.7500 0.2500 0.8420(6)
C34_3 C 0.7500 0.2500 0.9103(7)
C35_3 C 0.7500 0.2500 0.9665(8)
O11_3 O 0.9392(3) 0.10614(16) 0.5640(3)
O12_3 O 0.8898(3) 0.05965(18) 0.6194(3)
C36_3 C 0.9030(5) 0.0951(3) 0.6057(5)
C37_3 C 0.8122(6) 0.1879(3) 0.7070(5)
C38_3 C 0.8693(4) 0.1267(3) 0.6411(4)
C39_3 C 0.7786(5) 0.2193(3) 0.7430(4)
C40_3 C 0.8451(6) 0.1955(3) 0.6547(5)
H18_3 H 0.8486 0.2216 0.6409
C41_3 C 0.8731(5) 0.1669(3) 0.6218(5)
H19_3 H 0.8954 0.1736 0.5858
C42_3 C 0.7787(6) 0.2197(3) 0.8088(4)
H20_3 H 0.7979 0.1995 0.8312
C43_3 C 0.8064(6) 0.1484(3) 0.7256(5)
H21_3 H 0.7829 0.1420 0.7609
C44_3 C 0.8352(5) 0.1190(3) 0.6922(5)
H22_3 H 0.8308 0.0929 0.7056
C1_4 C 0.4030(5) 0.5951(3) 0.3943(5)
C2_4 C 0.2500 0.7500 0.2886(6)
H1_4 H 0.2500 0.7500 0.3331
C3_4 C 0.3122(6) 0.6879(3) 0.2930(5)
C4_4 C 0.3693(4) 0.6267(3) 0.3589(4)
C5_4 C 0.2786(5) 0.7193(3) 0.2570(4)
C6_4 C 0.3451(6) 0.6955(3) 0.3453(5)
H2_4 H 0.3486 0.7216 0.3591
C7_4 C 0.3731(5) 0.6669(3) 0.3782(5)
H3_4 H 0.3954 0.6736 0.4142
C8_4 C 0.2787(6) 0.7197(3) 0.1912(4)
H4_4 H 0.2979 0.6995 0.1688
C9_4 C 0.3064(6) 0.6484(3) 0.2744(5)
H5_4 H 0.2829 0.6420 0.2391
C10_4 C 0.3352(5) 0.6190(3) 0.3078(5)
H6_4 H 0.3308 0.5929 0.2944
C11_4 C 0.2500 0.7500 0.1580(6)
C12_4 C 0.2500 0.7500 0.0897(7)
C13_4 C 0.2500 0.7500 0.0335(8)
O7_4 O 0.0608(3) 0.89386(16) 0.4360(3)
O8_4 O 0.1102(3) 0.94035(18) 0.3806(3)
C14_4 C 0.0970(5) 0.9049(3) 0.3943(5)
C15_4 C 0.1878(6) 0.8121(3) 0.2930(5)
C16_4 C 0.1307(4) 0.8733(3) 0.3589(4)
C17_4 C 0.2214(5) 0.7807(3) 0.2570(4)
C18_4 C 0.1549(6) 0.8045(3) 0.3453(5)
H7_4 H 0.1514 0.7784 0.3591
C19_4 C 0.1269(5) 0.8331(3) 0.3782(5)
H8_4 H 0.1046 0.8264 0.4142
C20_4 C 0.2213(6) 0.7803(3) 0.1912(4)
H9_4 H 0.2021 0.8005 0.1688
C21_4 C 0.1936(6) 0.8516(3) 0.2744(5)
H10_4 H 0.2171 0.8580 0.2391
C22_4 C 0.1648(5) 0.8810(3) 0.3078(5)
H11_4 H 0.1692 0.9071 0.2944
C23_4 C 0.4030(5) 0.5951(3) 0.6057(5)
C24_4 C 0.2500 0.7500 0.7114(6)
H12_4 H 0.2500 0.7500 0.6669
C25_4 C 0.3122(6) 0.6879(3) 0.7070(5)
C26_4 C 0.3693(4) 0.6267(3) 0.6411(4)
C27_4 C 0.2786(5) 0.7193(3) 0.7430(4)
C28_4 C 0.3451(6) 0.6955(3) 0.6547(5)
H13_4 H 0.3486 0.7216 0.6409
C29_4 C 0.3731(5) 0.6669(3) 0.6218(5)
H14_4 H 0.3954 0.6736 0.5858
C30_4 C 0.2787(6) 0.7197(3) 0.8088(4)
H15_4 H 0.2979 0.6995 0.8312
C31_4 C 0.3064(6) 0.6484(3) 0.7256(5)
H16_4 H 0.2829 0.6420 0.7609
C32_4 C 0.3352(5) 0.6190(3) 0.6922(5)
H17_4 H 0.3308 0.5929 0.7056
C33_4 C 0.2500 0.7500 0.8420(6)
C34_4 C 0.2500 0.7500 0.9103(7)
C35_4 C 0.2500 0.7500 0.9665(8)
O11_4 O 0.0608(3) 0.89386(16) 0.5640(3)
O12_4 O 0.1102(3) 0.94035(18) 0.6194(3)
C36_4 C 0.0970(5) 0.9049(3) 0.6057(5)
C37_4 C 0.1878(6) 0.8121(3) 0.7070(5)
C38_4 C 0.1307(4) 0.8733(3) 0.6411(4)
C39_4 C 0.2214(5) 0.7807(3) 0.7430(4)
C40_4 C 0.1549(6) 0.8045(3) 0.6547(5)
H18_4 H 0.1514 0.7784 0.6409
C41_4 C 0.1269(5) 0.8331(3) 0.6218(5)
H19_4 H 0.1046 0.8264 0.5858
C42_4 C 0.2213(6) 0.7803(3) 0.8088(4)
H20_4 H 0.2021 0.8005 0.8312
C43_4 C 0.1936(6) 0.8516(3) 0.7256(5)
H21_4 H 0.2171 0.8580 0.7609
C44_4 C 0.1648(5) 0.8810(3) 0.6922(5)
H22_4 H 0.1692 0.9071 0.7056
O3_2 O 0.0000 0.0360(3) 0.4164(5)
O15_3 O 0.0625(6) -0.0000 0.3118(4)
O16_3 O 0.1763(4) -0.0000 0.4250(6)
O24_3 O 0.0000 0.0360(3) 0.5836(5)
O26_2 O 0.0802(4) 0.0359(3) 0.5000
O13_2 O 0.0000 0.9640(3) 0.4164(5)
O14_2 O 0.0802(4) 0.9641(3) 0.5000
O15_4 O 0.0625(6) 1.0000 0.3118(4)
O16_4 O 0.1763(4) 1.0000 0.4250(6)
O3_3 O 1.0000 0.0360(3) 0.4164(5)
O4_2 O 0.9198(4) 0.0359(3) 0.5000
O5_3 O 0.9375(6) -0.0000 0.3118(4)
O6_3 O 0.8237(4) -0.0000 0.4250(6)
O24_4 O 1.0000 0.0360(3) 0.5836(5)
O5_4 O 0.9375(6) 1.0000 0.3118(4)
O6_4 O 0.8237(4) 1.0000 0.4250(6)
O13_3 O 1.0000 0.9640(3) 0.4164(5)
O25_2 O 0.9198(4) 0.9641(3) 0.5000
O24_5 O -0.0000 0.9640(3) 0.5836(5)
O24_6 O 1.0000 0.9640(3) 0.5836(5)
O15_5 O 0.0625(6) -0.0000 0.6882(4)
O16_5 O 0.1763(4) -0.0000 0.5750(6)
O15_6 O 0.0625(6) 1.0000 0.6882(4)
O16_6 O 0.1763(4) 1.0000 0.5750(6)
O5_5 O 0.9375(6) -0.0000 0.6882(4)
O6_5 O 0.8237(4) -0.0000 0.5750(6)
O5_6 O 0.9375(6) 1.0000 0.6882(4)
O6_6 O 0.8237(4) 1.0000 0.5750(6)
loop_
_geom_bond_atom_site_label_1
_geom_bond_atom_site_label_2
_geom_bond_site_symmetry_1
_geom_bond_site_symmetry_2
O9 C23 1_555 1_555
O10 C23 1_555 1_555
C23 C26 1_555 1_555
C24 H12 1_555 1_555
C25 C27 1_555 1_555
C26 C29 1_555 1_555
C27 C24 1_555 1_555
C28 C25 1_555 1_555
H13 C28 1_555 1_555
C29 C28 1_555 1_555
H14 C29 1_555 1_555
C30 C27 1_555 1_555
H15 C30 1_555 1_555
C31 C25 1_555 1_555
H16 C31 1_555 1_555
C32 C26 1_555 1_555
H17 C32 1_555 1_555
C33 C30 1_555 1_555
C34 C33 1_555 1_555
O11 C36 1_555 1_555
O12 C36 1_555 1_555
C36 C38 1_555 1_555
C37 C39 1_555 1_555
C38 C41 1_555 1_555
C39 C24 1_555 1_555
C40 C37 1_555 1_555
H18 C40 1_555 1_555
C41 C40 1_555 1_555
H19 C41 1_555 1_555
C42 C33 1_555 1_555
H20 C42 1_555 1_555
C43 C37 1_555 1_555
H21 C43 1_555 1_555
C44 C38 1_555 1_555
H22 C44 1_555 1_555
Zr4 O9 1_555 1_555
Zr7_2 O11 1_555 1_555
Zr8 O10 1_555 1_555
Zr11_2 O12 1_555 1_555
C31 C32 1_555 1_555
C34 C35 1_555 1_555
C39 C42 1_555 1_555
C43 C44 1_555 1_555
Zr4 O1 1_555 1_555
Zr2 O3 1_555 1_555
O1 C1 1_555 1_555
O2 C1 1_555 1_555
O3 Zr4 1_555 1_555
O4 Zr4 1_555 1_555
O5 Zr2 1_555 1_555
O6 Zr2 1_555 1_555
C1 C4 1_555 1_555
C2 H1 1_555 1_555
C3 C5 1_555 1_555
C4 C7 1_555 1_555
C5 C2 1_555 1_555
C6 C3 1_555 1_555
H2 C6 1_555 1_555
C7 C6 1_555 1_555
H3 C7 1_555 1_555
C8 C5 1_555 1_555
H4 C8 1_555 1_555
C9 C3 1_555 1_555
H5 C9 1_555 1_555
C10 C4 1_555 1_555
H6 C10 1_555 1_555
C11 C8 1_555 1_555
C12 C11 1_555 1_555
C13 C12 1_555 1_555
O7 C14 1_555 1_555
O8 C14 1_555 1_555
C14 C16 1_555 1_555
C15 C17 1_555 1_555
C16 C19 1_555 1_555
C17 C2 1_555 1_555
C18 C15 1_555 1_555
H7 C18 1_555 1_555
C19 C18 1_555 1_555
H8 C19 1_555 1_555
C20 C11 1_555 1_555
H9 C20 1_555 1_555
C21 C15 1_555 1_555
H10 C21 1_555 1_555
C22 C16 1_555 1_555
H11 C22 1_555 1_555
Zr8 O3 1_555 1_555
O13 Zr2 1_555 1_555
O14 Zr8 1_555 1_555
O15 Zr8 1_555 1_555
O16 Zr8 1_555 1_555
Zr5 O13 1_555 1_555
Zr7_2 O7 1_555 1_555
Zr9 O4 1_555 1_555
Zr10 O2 1_555 1_555
Zr12_2 O8 1_555 1_555
O17 Zr4 1_555 1_555
O19 Zr4 1_555 1_555
O20 Zr8 1_555 1_555
O21 Zr2 1_555 1_555
O22 Zr2 1_555 1_555
O24 Zr4 1_555 1_555
O25 Zr2 1_555 1_555
O26 Zr4 1_555 1_555
Zr2 O4 1_555 1_555
C9 C10 1_555 1_555
C17 C20 1_555 1_555
C21 C22 1_555 1_555
Zr8 O13 1_555 1_555
Zr8 O26 1_555 1_555
O14 Zr5 1_555 1_555
O14 Zr10 1_555 1_555
Zr5 O25 1_555 1_555
Zr9 O24 1_555 1_555
Zr9 O25 1_555 1_555
Zr10 O24 1_555 1_555
Zr10 O26 1_555 1_555
O9_2 C23_2 1_555 1_555
O22 C23_2 1_555 1_555
C23_2 C26_2 1_555 1_555
C24_2 H12_2 1_555 1_555
C25_2 C27_2 1_555 1_555
C26_2 C29_2 1_555 1_555
C27_2 C24_2 1_555 1_555
C28_2 C25_2 1_555 1_555
H13_2 C28_2 1_555 1_555
C29_2 C28_2 1_555 1_555
H14_2 C29_2 1_555 1_555
C30_2 C27_2 1_555 1_555
H15_2 C30_2 1_555 1_555
C31_2 C25_2 1_555 1_555
H16_2 C31_2 1_555 1_555
C32_2 C26_2 1_555 1_555
H17_2 C32_2 1_555 1_555
C33_2 C30_2 1_555 1_555
C34_2 C33_2 1_555 1_555
O11_2 C36_2 1_555 1_555
O12_2 C36_2 1_555 1_555
C36_2 C38_2 1_555 1_555
C37_2 C39_2 1_555 1_555
C38_2 C41_2 1_555 1_555
C39_2 C24_2 1_555 1_555
C40_2 C37_2 1_555 1_555
H18_2 C40_2 1_555 1_555
C41_2 C40_2 1_555 1_555
H19_2 C41_2 1_555 1_555
C42_2 C33_2 1_555 1_555
H20_2 C42_2 1_555 1_555
C43_2 C37_2 1_555 1_555
H21_2 C43_2 1_555 1_555
C44_2 C38_2 1_555 1_555
H22_2 C44_2 1_555 1_555
Zr5 O9_2 1_555 1_555
Zr7_3 O11_2 1_555 1_555
Zr11_3 O12_2 1_555 1_555
C31_2 C32_2 1_555 1_555
C34_2 C35_2 1_555 1_555
C39_2 C42_2 1_555 1_555
C43_2 C44_2 1_555 1_555
Zr5 O1_2 1_555 1_555
O1_2 C1_2 1_555 1_555
O2_2 C1_2 1_555 1_555
C1_2 C4_2 1_555 1_555
C2_2 H1_2 1_555 1_555
C3_2 C5_2 1_555 1_555
C4_2 C7_2 1_555 1_555
C5_2 C2_2 1_555 1_555
C6_2 C3_2 1_555 1_555
H2_2 C6_2 1_555 1_555
C7_2 C6_2 1_555 1_555
H3_2 C7_2 1_555 1_555
C8_2 C5_2 1_555 1_555
H4_2 C8_2 1_555 1_555
C9_2 C3_2 1_555 1_555
H5_2 C9_2 1_555 1_555
C10_2 C4_2 1_555 1_555
H6_2 C10_2 1_555 1_555
C11_2 C8_2 1_555 1_555
C12_2 C11_2 1_555 1_555
C13_2 C12_2 1_555 1_555
O7_2 C14_2 1_555 1_555
O8_2 C14_2 1_555 1_555
C14_2 C16_2 1_555 1_555
C15_2 C17_2 1_555 1_555
C16_2 C19_2 1_555 1_555
C17_2 C2_2 1_555 1_555
C18_2 C15_2 1_555 1_555
H7_2 C18_2 1_555 1_555
C19_2 C18_2 1_555 1_555
H8_2 C19_2 1_555 1_555
C20_2 C11_2 1_555 1_555
H9_2 C20_2 1_555 1_555
C21_2 C15_2 1_555 1_555
H10_2 C21_2 1_555 1_555
C22_2 C16_2 1_555 1_555
H11_2 C22_2 1_555 1_555
Zr7_3 O7_2 1_555 1_555
Zr9 O2_2 1_555 1_555
Zr12_3 O8_2 1_555 1_555
O17_2 Zr5 1_555 1_555
O19_2 Zr5 1_555 1_555
O24_2 Zr5 1_555 1_555
C9_2 C10_2 1_555 1_555
C17_2 C20_2 1_555 1_555
C21_2 C22_2 1_555 1_555
Zr10 O24_2 1_555 1_555
Zr9 O24_2 1_555 1_555
O17_2 C1_3 1_555 1_555
O20 C1_3 1_555 1_555
O5_2 Zr9 1_555 1_555
O6_2 Zr9 1_555 1_555
C1_3 C4_3 1_555 1_555
C2_3 H1_3 1_555 1_555
C3_3 C5_3 1_555 1_555
C4_3 C7_3 1_555 1_555
C5_3 C2_3 1_555 1_555
C6_3 C3_3 1_555 1_555
H2_3 C6_3 1_555 1_555
C7_3 C6_3 1_555 1_555
H3_3 C7_3 1_555 1_555
C8_3 C5_3 1_555 1_555
H4_3 C8_3 1_555 1_555
C9_3 C3_3 1_555 1_555
H5_3 C9_3 1_555 1_555
C10_3 C4_3 1_555 1_555
H6_3 C10_3 1_555 1_555
C11_3 C8_3 1_555 1_555
C12_3 C11_3 1_555 1_555
C13_3 C12_3 1_555 1_555
O7_3 C14_3 1_555 1_555
O8_3 C14_3 1_555 1_555
C14_3 C16_3 1_555 1_555
C15_3 C17_3 1_555 1_555
C16_3 C19_3 1_555 1_555
C17_3 C2_3 1_555 1_555
C18_3 C15_3 1_555 1_555
H7_3 C18_3 1_555 1_555
C19_3 C18_3 1_555 1_555
H8_3 C19_3 1_555 1_555
C20_3 C11_3 1_555 1_555
H9_3 C20_3 1_555 1_555
C21_3 C15_3 1_555 1_555
H10_3 C21_3 1_555 1_555
C22_3 C16_3 1_555 1_555
H11_3 C22_3 1_555 1_555
O15_2 Zr10 1_555 1_555
O16_2 Zr10 1_555 1_555
Zr7_4 O7_3 1_555 1_555
Zr11 O8_3 1_555 1_555
O22_2 Zr9 1_555 1_555
O23 Zr10 1_555 1_555
C9_3 C10_3 1_555 1_555
C17_3 C20_3 1_555 1_555
C21_3 C22_3 1_555 1_555
O19_2 C23_3 1_555 1_555
O23 C23_3 1_555 1_555
C23_3 C26_3 1_555 1_555
C24_3 H12_3 1_555 1_555
C25_3 C27_3 1_555 1_555
C26_3 C29_3 1_555 1_555
C27_3 C24_3 1_555 1_555
C28_3 C25_3 1_555 1_555
H13_3 C28_3 1_555 1_555
C29_3 C28_3 1_555 1_555
H14_3 C29_3 1_555 1_555
C30_3 C27_3 1_555 1_555
H15_3 C30_3 1_555 1_555
C31_3 C25_3 1_555 1_555
H16_3 C31_3 1_555 1_555
C32_3 C26_3 1_555 1_555
H17_3 C32_3 1_555 1_555
C33_3 C30_3 1_555 1_555
C34_3 C33_3 1_555 1_555
O11_3 C36_3 1_555 1_555
O12_3 C36_3 1_555 1_555
C36_3 C38_3 1_555 1_555
C37_3 C39_3 1_555 1_555
C38_3 C41_3 1_555 1_555
C39_3 C24_3 1_555 1_555
C40_3 C37_3 1_555 1_555
H18_3 C40_3 1_555 1_555
C41_3 C40_3 1_555 1_555
H19_3 C41_3 1_555 1_555
C42_3 C33_3 1_555 1_555
H20_3 C42_3 1_555 1_555
C43_3 C37_3 1_555 1_555
H21_3 C43_3 1_555 1_555
C44_3 C38_3 1_555 1_555
H22_3 C44_3 1_555 1_555
Zr7_4 O11_3 1_555 1_555
Zr12 O12_3 1_555 1_555
C31_3 C32_3 1_555 1_555
C34_3 C35_3 1_555 1_555
C39_3 C42_3 1_555 1_555
C43_3 C44_3 1_555 1_555
O17 C1_4 1_555 1_555
O21 C1_4 1_555 1_555
C1_4 C4_4 1_555 1_555
C2_4 H1_4 1_555 1_555
C3_4 C5_4 1_555 1_555
C4_4 C7_4 1_555 1_555
C5_4 C2_4 1_555 1_555
C6_4 C3_4 1_555 1_555
H2_4 C6_4 1_555 1_555
C7_4 C6_4 1_555 1_555
H3_4 C7_4 1_555 1_555
C8_4 C5_4 1_555 1_555
H4_4 C8_4 1_555 1_555
C9_4 C3_4 1_555 1_555
H5_4 C9_4 1_555 1_555
C10_4 C4_4 1_555 1_555
H6_4 C10_4 1_555 1_555
C11_4 C8_4 1_555 1_555
C12_4 C11_4 1_555 1_555
C13_4 C12_4 1_555 1_555
O7_4 C14_4 1_555 1_555
O8_4 C14_4 1_555 1_555
C14_4 C16_4 1_555 1_555
C15_4 C17_4 1_555 1_555
C16_4 C19_4 1_555 1_555
C17_4 C2_4 1_555 1_555
C18_4 C15_4 1_555 1_555
H7_4 C18_4 1_555 1_555
C19_4 C18_4 1_555 1_555
H8_4 C19_4 1_555 1_555
C20_4 C11_4 1_555 1_555
H9_4 C20_4 1_555 1_555
C21_4 C15_4 1_555 1_555
H10_4 C21_4 1_555 1_555
C22_4 C16_4 1_555 1_555
H11_4 C22_4 1_555 1_555
Zr7 O7_4 1_555 1_555
Zr11_4 O8_4 1_555 1_555
C9_4 C10_4 1_555 1_555
C17_4 C20_4 1_555 1_555
C21_4 C22_4 1_555 1_555
O19 C23_4 1_555 1_555
O22_2 C23_4 1_555 1_555
C23_4 C26_4 1_555 1_555
C24_4 H12_4 1_555 1_555
C25_4 C27_4 1_555 1_555
C26_4 C29_4 1_555 1_555
C27_4 C24_4 1_555 1_555
C28_4 C25_4 1_555 1_555
H13_4 C28_4 1_555 1_555
C29_4 C28_4 1_555 1_555
H14_4 C29_4 1_555 1_555
C30_4 C27_4 1_555 1_555
H15_4 C30_4 1_555 1_555
C31_4 C25_4 1_555 1_555
H16_4 C31_4 1_555 1_555
C32_4 C26_4 1_555 1_555
H17_4 C32_4 1_555 1_555
C33_4 C30_4 1_555 1_555
C34_4 C33_4 1_555 1_555
O11_4 C36_4 1_555 1_555
O12_4 C36_4 1_555 1_555
C36_4 C38_4 1_555 1_555
C37_4 C39_4 1_555 1_555
C38_4 C41_4 1_555 1_555
C39_4 C24_4 1_555 1_555
C40_4 C37_4 1_555 1_555
H18_4 C40_4 1_555 1_555
C41_4 C40_4 1_555 1_555
H19_4 C41_4 1_555 1_555
C42_4 C33_4 1_555 1_555
H20_4 C42_4 1_555 1_555
C43_4 C37_4 1_555 1_555
H21_4 C43_4 1_555 1_555
C44_4 C38_4 1_555 1_555
H22_4 C44_4 1_555 1_555
Zr7 O11_4 1_555 1_555
Zr12_4 O12_4 1_555 1_555
C31_4 C32_4 1_555 1_555
C34_4 C35_4 1_555 1_555
C39_4 C42_4 1_555 1_555
C43_4 C44_4 1_555 1_555
O3_2 Zr7_3 1_555 1_555
Zr11_3 O3_2 1_555 1_555
O15_3 Zr11_3 1_555 1_555
O16_3 Zr11_3 1_555 1_555
O24_3 Zr7_3 1_555 1_555
O26_2 Zr7_3 1_555 1_555
Zr11_3 O26_2 1_555 1_555
Zr12_3 O24_3 1_555 1_555
Zr12_3 O26_2 1_555 1_555
O14_2 Zr11_4 1_555 1_555
O15_4 Zr11_4 1_555 1_555
O16_4 Zr11_4 1_555 1_555
Zr7 O13_2 1_555 1_555
Zr11_4 O13_2 1_555 1_555
O14_2 Zr7 1_555 1_555
O14_2 Zr12_4 1_555 1_555
Zr11 O3_3 1_555 1_555
O3_3 Zr7_4 1_555 1_555
O4_2 Zr7_4 1_555 1_555
O5_3 Zr11 1_555 1_555
O6_3 Zr11 1_555 1_555
Zr12 O4_2 1_555 1_555
O24_4 Zr7_4 1_555 1_555
Zr11 O4_2 1_555 1_555
Zr12 O24_4 1_555 1_555
O5_4 Zr11_2 1_555 1_555
O6_4 Zr11_2 1_555 1_555
O13_3 Zr11_2 1_555 1_555
Zr7_2 O13_3 1_555 1_555
O25_2 Zr11_2 1_555 1_555
Zr7_2 O25_2 1_555 1_555
Zr12_2 O25_2 1_555 1_555
O24_5 Zr7 1_555 1_555
Zr12_4 O24_5 1_555 1_555
O24_6 Zr7_2 1_555 1_555
Zr12_2 O24_6 1_555 1_555
O15_5 Zr12_3 1_555 1_555
O16_5 Zr12_3 1_555 1_555
O15_6 Zr12_4 1_555 1_555
O16_6 Zr12_4 1_555 1_555
O5_5 Zr12 1_555 1_555
O6_5 Zr12 1_555 1_555
O5_6 Zr12_2 1_555 1_555
O6_6 Zr12_2 1_555 1_555

#END
