
###############################################################################
#
# This file contains modified crystal structure data generated from the
# MOF subset of the Cambridge Structural Database (CSD) v543 
# hosted by the Cambridge Crystallographic Data Centre (CCDC).
#
# This work is licensed under the Creative Commons
# Attribution-NonCommercial-ShareAlike 4.0 International License.
# To view a copy of this license, visit
# http://creativecommons.org/licenses/by-nc-sa/4.0/
# or send a letter to
# Creative Commons, PO Box 1866, Mountain View, CA 94042, USA.
#
# CIF created using the CSD Python API on 29 September 2022
# The structure has been converted into the P1 space group
# The structure has a 3D framework
# The original CSD entry HICSOE is in the cubic crystal system
# The framework has been calculated to contain at least 10.0% void space
# The void calculation uses a probe of radius 1.32A, grid spacing 0.4
#
###############################################################################

data_HICSOE
_chemical_formula_moiety         '(C216 H120 Cl24 Cu48 N168 O32 4-)n'
_symmetry_cell_setting           triclinic
_symmetry_space_group_name_H-M   'P 1'
_symmetry_Int_Tables_number      1
_space_group_name_Hall           'P 1'
loop_
_symmetry_equiv_pos_site_id
_symmetry_equiv_pos_as_xyz
1 x,y,z
_cell_length_a                   19.48490(10)
_cell_length_b                   19.48490(10)
_cell_length_c                   19.48490(10)
_cell_angle_alpha                90
_cell_angle_beta                 90
_cell_angle_gamma                90
_cell_volume                     7397.66
loop_
_atom_site_label
_atom_site_type_symbol
_atom_site_fract_x
_atom_site_fract_y
_atom_site_fract_z
C17 C 0.0164(2) 0.2680(2) 0.6366(2)
H9 H 0.0539 0.2594 0.6649
C18 C 0.01767(18) 0.2491(2) 0.5681(2)
H10 H 0.0569 0.2278 0.5511
N24 N 0.04707(13) 0.18971(13) 0.41781(13)
N27 N 0.00097(13) 0.29885(13) 0.34049(15)
C1 C 0.94822(16) 0.08601(16) 0.35747(16)
H1 H 0.9850 0.0716 0.3843
C2 C 0.86719(15) 0.08804(15) 0.28562(15)
C3 C 0.82662(15) 0.06406(15) 0.22764(15)
C4 C 0.80031(17) 0.00081(16) 0.14510(16)
Cl1 Cl 0.68147(4) 0.18147(4) 0.31853(4)
Cl2 Cl 0.79023(4) 0.29023(4) 0.20977(4)
Cu1 Cu 0.71944(2) 0.07153(2) 0.04946(2)
Cu2 Cu 0.72709(2) 0.18736(2) 0.20038(3)
N1 N 0.91781(13) 0.04707(13) 0.31029(13)
N2 N 0.91991(14) 0.14768(14) 0.36173(14)
N3 N 0.86697(13) 0.14922(13) 0.31580(13)
N4 N 0.84049(15) 0.00097(13) 0.20115(13)
N5 N 0.78077(13) 0.10000(13) 0.19165(13)
N6 N 0.76445(13) 0.05874(13) 0.13827(13)
C10 C 0.64253(16) 0.44822(16) 0.41399(16)
H6 H 0.6157 0.4850 0.4284
C11 C 0.71438(15) 0.36719(15) 0.41196(15)
C12 C 0.77236(15) 0.32662(15) 0.43594(15)
C13 C 0.85490(16) 0.30031(17) 0.49919(16)
C14 C 0.90897(17) 0.29199(18) 0.55056(17)
C15 C 0.9041(2) 0.3122(2) 0.6180(2)
H7 H 0.8648 0.3341 0.6339
C16 C 0.9588(2) 0.2994(3) 0.6619(2)
H8 H 0.9564 0.3120 0.7079
Cu3 Cu 0.95054(2) 0.21944(2) 0.42847(2)
Cu4 Cu 0.79962(3) 0.22709(2) 0.31264(2)
N8 N 0.68971(13) 0.41781(13) 0.45293(13)
N9 N 0.63827(14) 0.41991(14) 0.35232(14)
N10 N 0.68420(13) 0.36697(13) 0.35078(13)
N11 N 0.79885(13) 0.34049(15) 0.49903(13)
N12 N 0.80835(13) 0.28077(13) 0.40000(13)
N13 N 0.86173(13) 0.26445(13) 0.44126(13)
N14 N 0.96518(14) 0.26000(15) 0.52523(14)
C19 C 0.58601(16) 0.14253(16) 0.05178(16)
H11 H 0.5716 0.1157 0.0150
C20 C 0.58804(15) 0.21438(15) 0.13281(15)
C21 C 0.56406(15) 0.27236(15) 0.17338(15)
C22 C 0.50081(16) 0.35490(16) 0.19969(17)
C23 C 0.44944(17) 0.40897(17) 0.20801(18)
C24 C 0.3820(2) 0.4041(2) 0.1878(2)
H12 H 0.3661 0.3648 0.1659
C25 C 0.3381(2) 0.4588(2) 0.2006(3)
H13 H 0.2921 0.4564 0.1880
C26 C 0.3634(2) 0.5164(2) 0.2320(2)
H14 H 0.3351 0.5539 0.2406
C27 C 0.4319(2) 0.51767(18) 0.2509(2)
H15 H 0.4489 0.5569 0.2722
Cu5 Cu 0.57153(2) 0.45054(2) 0.28056(2)
Cu6 Cu 0.68736(2) 0.29962(3) 0.27291(2)
N15 N 0.54707(13) 0.18971(13) 0.08219(13)
N16 N 0.64768(14) 0.13827(14) 0.08009(14)
N17 N 0.64922(13) 0.18420(13) 0.13303(13)
N18 N 0.50097(13) 0.29885(13) 0.15951(15)
N19 N 0.60000(13) 0.30835(13) 0.21923(13)
N20 N 0.55874(13) 0.36173(13) 0.23555(13)
N21 N 0.47477(14) 0.46518(14) 0.24000(15)
Cu7 Cu 0.71944(2) 0.42847(2) 0.54946(2)
Cu8 Cu 0.45054(2) 0.21944(2) 0.07153(2)
N22 N 0.58219(13) 0.54707(13) 0.31029(13)
N25 N 0.65951(15) 0.50097(13) 0.20115(13)
N23 N 0.68971(13) 0.08219(13) 0.95293(13)
N26 N 0.79885(13) 0.15951(15) 0.99903(13)
C5 C 0.79199(18) 0.94944(17) 0.09103(17)
C6 C 0.8122(2) 0.8820(2) 0.0959(2)
H2 H 0.8341 0.8661 0.1352
C7 C 0.7994(3) 0.8381(2) 0.0412(2)
H3 H 0.8120 0.7921 0.0436
N7 N 0.76000(15) 0.97477(14) 0.03482(14)
Cu9 Cu 0.92847(2) 0.95054(2) 0.28056(2)
C23_2 C 0.05056(17) 0.59103(17) 0.70801(18)
C24_2 C 0.1180(2) 0.5959(2) 0.6878(2)
H12_2 H 0.1339 0.6352 0.6659
C25_2 C 0.1619(2) 0.5412(2) 0.7006(3)
H13_2 H 0.2079 0.5436 0.6880
C26_2 C 0.1366(2) 0.4836(2) 0.7320(2)
H14_2 H 0.1649 0.4461 0.7406
C27_2 C 0.0681(2) 0.48233(18) 0.7509(2)
H15_2 H 0.0511 0.4431 0.7722
N21_2 N 0.02523(14) 0.53482(14) 0.74000(15)
Cu8_2 Cu 0.04946(2) 0.78056(2) 0.57153(2)
C5_2 C 0.70801(18) 0.05056(17) 0.59103(17)
C6_2 C 0.6878(2) 0.1180(2) 0.5959(2)
H2_2 H 0.6659 0.1339 0.6352
C7_2 C 0.7006(3) 0.1619(2) 0.5412(2)
H3_2 H 0.6880 0.2079 0.5436
C8 C 0.7320(2) 0.1366(2) 0.4836(2)
H4 H 0.7406 0.1649 0.4461
C9 C 0.7509(2) 0.0681(2) 0.48233(18)
H5 H 0.7722 0.0511 0.4431
N7_2 N 0.74000(15) 0.02523(14) 0.53482(14)
Cu9_2 Cu 0.57153(2) 0.04946(2) 0.78056(2)
C14_2 C 0.59103(17) 0.70801(18) 0.05056(17)
C15_2 C 0.5959(2) 0.6878(2) 0.1180(2)
H7_2 H 0.6352 0.6659 0.1339
C16_2 C 0.5412(2) 0.7006(3) 0.1619(2)
H8_2 H 0.5436 0.6880 0.2079
C17_2 C 0.4836(2) 0.7320(2) 0.1366(2)
H9_2 H 0.4461 0.7406 0.1649
C18_2 C 0.48233(18) 0.7509(2) 0.0681(2)
H10_2 H 0.4431 0.7722 0.0511
N14_2 N 0.53482(14) 0.74000(15) 0.02523(14)
Cu7_2 Cu 0.78056(2) 0.57153(2) 0.04946(2)
C1_2 C 0.55178(16) 0.91399(16) 0.85747(16)
H1_2 H 0.5150 0.9284 0.8843
C2_2 C 0.63281(15) 0.91196(15) 0.78562(15)
C3_2 C 0.67338(15) 0.93594(15) 0.72764(15)
C4_2 C 0.69969(17) 0.99919(16) 0.64510(16)
Cl1_2 Cl 0.81853(4) 0.81853(4) 0.81853(4)
Cl2_2 Cl 0.70977(4) 0.70977(4) 0.70977(4)
Cu1_2 Cu 0.78056(2) 0.92847(2) 0.54946(2)
Cu2_2 Cu 0.77291(2) 0.81264(2) 0.70038(3)
N1_2 N 0.58219(13) 0.95293(13) 0.81029(13)
N2_2 N 0.58009(14) 0.85232(14) 0.86173(14)
N3_2 N 0.63303(13) 0.85078(13) 0.81580(13)
N4_2 N 0.65951(15) 0.99903(13) 0.70115(13)
N5_2 N 0.71923(13) 0.90000(13) 0.69165(13)
N6_2 N 0.73555(13) 0.94126(13) 0.63827(13)
C10_2 C 0.85747(16) 0.55178(16) 0.91399(16)
H6_2 H 0.8843 0.5150 0.9284
C11_2 C 0.78562(15) 0.63281(15) 0.91196(15)
C12_2 C 0.72764(15) 0.67338(15) 0.93594(15)
C13_2 C 0.64510(16) 0.69969(17) 0.99919(16)
Cu3_2 Cu 0.54946(2) 0.78056(2) 0.92847(2)
Cu4_2 Cu 0.70038(3) 0.77291(2) 0.81264(2)
N8_2 N 0.81029(13) 0.58219(13) 0.95293(13)
N9_2 N 0.86173(14) 0.58009(14) 0.85232(14)
N10_2 N 0.81580(13) 0.63303(13) 0.85078(13)
N11_2 N 0.70115(13) 0.65951(15) 0.99903(13)
N12_2 N 0.69165(13) 0.71923(13) 0.90000(13)
N13_2 N 0.63827(13) 0.73555(13) 0.94126(13)
C19_2 C 0.91399(16) 0.85747(16) 0.55178(16)
H11_2 H 0.9284 0.8843 0.5150
C20_2 C 0.91196(15) 0.78562(15) 0.63281(15)
C21_2 C 0.93594(15) 0.72764(15) 0.67338(15)
C22_2 C 0.99919(16) 0.64510(16) 0.69969(17)
Cu5_2 Cu 0.92847(2) 0.54946(2) 0.78056(2)
Cu6_2 Cu 0.81264(2) 0.70038(3) 0.77291(2)
N15_2 N 0.95293(13) 0.81029(13) 0.58219(13)
N16_2 N 0.85232(14) 0.86173(14) 0.58009(14)
N17_2 N 0.85078(13) 0.81580(13) 0.63303(13)
N18_2 N 0.99903(13) 0.70115(13) 0.65951(15)
N19_2 N 0.90000(13) 0.69165(13) 0.71923(13)
N20_2 N 0.94126(13) 0.63827(13) 0.73555(13)
N22_2 N 0.91781(13) 0.45293(13) 0.81029(13)
N23_2 N 0.81029(13) 0.91781(13) 0.45293(13)
N24_2 N 0.45293(13) 0.81029(13) 0.91781(13)
N25_2 N 0.84049(15) 0.49903(13) 0.70115(13)
N26_2 N 0.70115(13) 0.84049(15) 0.49903(13)
N27_2 N 0.49903(13) 0.70115(13) 0.84049(15)
C26_3 C 0.6366(2) 0.0164(2) 0.2680(2)
H14_3 H 0.6649 0.0539 0.2594
C27_3 C 0.5681(2) 0.01767(18) 0.2491(2)
H15_3 H 0.5511 0.0569 0.2278
N22_3 N 0.41781(13) 0.04707(13) 0.18971(13)
N25_3 N 0.34049(15) 0.00097(13) 0.29885(13)
C1_3 C 0.05178(16) 0.58601(16) 0.14253(16)
H1_3 H 0.0150 0.5716 0.1157
C2_3 C 0.13281(15) 0.58804(15) 0.21438(15)
C3_3 C 0.17338(15) 0.56406(15) 0.27236(15)
C4_3 C 0.19969(17) 0.50081(16) 0.35490(16)
C5_3 C 0.20801(18) 0.44944(17) 0.40897(17)
C6_3 C 0.1878(2) 0.3820(2) 0.4041(2)
H2_3 H 0.1659 0.3661 0.3648
C7_3 C 0.2006(3) 0.3381(2) 0.4588(2)
H3_3 H 0.1880 0.2921 0.4564
C8_2 C 0.2320(2) 0.3634(2) 0.5164(2)
H4_2 H 0.2406 0.3351 0.5539
C9_2 C 0.2509(2) 0.4319(2) 0.51767(18)
H5_2 H 0.2722 0.4489 0.5569
Cl1_3 Cl 0.31853(4) 0.68147(4) 0.18147(4)
Cl2_3 Cl 0.20977(4) 0.79023(4) 0.29023(4)
Cu1_3 Cu 0.28056(2) 0.57153(2) 0.45054(2)
Cu2_3 Cu 0.27291(2) 0.68736(2) 0.29962(3)
N1_3 N 0.08219(13) 0.54707(13) 0.18971(13)
N2_3 N 0.08009(14) 0.64768(14) 0.13827(14)
N3_3 N 0.13303(13) 0.64922(13) 0.18420(13)
N4_3 N 0.15951(15) 0.50097(13) 0.29885(13)
N5_3 N 0.21923(13) 0.60000(13) 0.30835(13)
N6_3 N 0.23555(13) 0.55874(13) 0.36173(13)
N7_3 N 0.24000(15) 0.47477(14) 0.46518(14)
C10_3 C 0.35747(16) 0.94822(16) 0.08601(16)
H6_3 H 0.3843 0.9850 0.0716
C11_3 C 0.28562(15) 0.86719(15) 0.08804(15)
C12_3 C 0.22764(15) 0.82662(15) 0.06406(15)
C13_3 C 0.14510(16) 0.80031(17) 0.00081(16)
Cu3_3 Cu 0.04946(2) 0.71944(2) 0.07153(2)
Cu4_3 Cu 0.20038(3) 0.72709(2) 0.18736(2)
N8_3 N 0.31029(13) 0.91781(13) 0.04707(13)
N9_3 N 0.36173(14) 0.91991(14) 0.14768(14)
N10_3 N 0.31580(13) 0.86697(13) 0.14922(13)
N11_3 N 0.20115(13) 0.84049(15) 0.00097(13)
N12_3 N 0.19165(13) 0.78077(13) 0.10000(13)
N13_3 N 0.13827(13) 0.76445(13) 0.05874(13)
C19_3 C 0.41399(16) 0.64253(16) 0.44822(16)
H11_3 H 0.4284 0.6157 0.4850
C20_3 C 0.41196(15) 0.71438(15) 0.36719(15)
C21_3 C 0.43594(15) 0.77236(15) 0.32662(15)
C22_3 C 0.49919(16) 0.85490(16) 0.30031(17)
C23_3 C 0.55056(17) 0.90897(17) 0.29199(18)
C24_3 C 0.6180(2) 0.9041(2) 0.3122(2)
H12_3 H 0.6339 0.8648 0.3341
C25_3 C 0.6619(2) 0.9588(2) 0.2994(3)
H13_3 H 0.7079 0.9564 0.3120
Cu5_3 Cu 0.42847(2) 0.95054(2) 0.21944(2)
Cu6_3 Cu 0.31264(2) 0.79962(3) 0.22709(2)
N15_3 N 0.45293(13) 0.68971(13) 0.41781(13)
N16_3 N 0.35232(14) 0.63827(14) 0.41991(14)
N17_3 N 0.35078(13) 0.68420(13) 0.36697(13)
N18_3 N 0.49903(13) 0.79885(13) 0.34049(15)
N19_3 N 0.40000(13) 0.80835(13) 0.28077(13)
N20_3 N 0.44126(13) 0.86173(13) 0.26445(13)
N21_3 N 0.52523(14) 0.96518(14) 0.26000(15)
Cu8_3 Cu 0.54946(2) 0.71944(2) 0.42847(2)
Cu9_3 Cu 0.07153(2) 0.45054(2) 0.21944(2)
N23_3 N 0.31029(13) 0.58219(13) 0.54707(13)
N26_3 N 0.20115(13) 0.65951(15) 0.50097(13)
C14_3 C 0.09103(17) 0.79199(18) 0.94944(17)
C15_3 C 0.0959(2) 0.8122(2) 0.8820(2)
H7_3 H 0.1352 0.8341 0.8661
C16_3 C 0.0412(2) 0.7994(3) 0.8381(2)
H8_3 H 0.0436 0.8120 0.7921
N14_3 N 0.03482(14) 0.76000(15) 0.97477(14)
Cu7_3 Cu 0.28056(2) 0.92847(2) 0.95054(2)
N24_3 N 0.95293(13) 0.68971(13) 0.08219(13)
N27_3 N 0.99903(13) 0.79885(13) 0.15951(15)
C8_3 C 0.2680(2) 0.6366(2) 0.0164(2)
H4_3 H 0.2594 0.6649 0.0539
C9_3 C 0.2491(2) 0.5681(2) 0.01767(18)
H5_3 H 0.2278 0.5511 0.0569
N23_4 N 0.18971(13) 0.41781(13) 0.04707(13)
N26_4 N 0.29885(13) 0.34049(15) 0.00097(13)
C1_4 C 0.44822(16) 0.41399(16) 0.64253(16)
H1_4 H 0.4850 0.4284 0.6157
C2_4 C 0.36719(15) 0.41196(15) 0.71438(15)
C3_4 C 0.32662(15) 0.43594(15) 0.77236(15)
C4_4 C 0.30031(17) 0.49919(16) 0.85490(16)
C5_4 C 0.29199(18) 0.55056(17) 0.90897(17)
C6_4 C 0.3122(2) 0.6180(2) 0.9041(2)
H2_4 H 0.3341 0.6339 0.8648
C7_4 C 0.2994(3) 0.6619(2) 0.9588(2)
H3_4 H 0.3120 0.7079 0.9564
Cl1_4 Cl 0.18147(4) 0.31853(4) 0.68147(4)
Cl2_4 Cl 0.29023(4) 0.20977(4) 0.79023(4)
Cu1_4 Cu 0.21944(2) 0.42847(2) 0.95054(2)
Cu2_4 Cu 0.22709(2) 0.31264(2) 0.79962(3)
N1_4 N 0.41781(13) 0.45293(13) 0.68971(13)
N2_4 N 0.41991(14) 0.35232(14) 0.63827(14)
N3_4 N 0.36697(13) 0.35078(13) 0.68420(13)
N4_4 N 0.34049(15) 0.49903(13) 0.79885(13)
N5_4 N 0.28077(13) 0.40000(13) 0.80835(13)
N6_4 N 0.26445(13) 0.44126(13) 0.86173(13)
N7_4 N 0.26000(15) 0.52523(14) 0.96518(14)
C10_4 C 0.14253(16) 0.05178(16) 0.58601(16)
H6_4 H 0.1157 0.0150 0.5716
C11_4 C 0.21438(15) 0.13281(15) 0.58804(15)
C12_4 C 0.27236(15) 0.17338(15) 0.56406(15)
C13_4 C 0.35490(16) 0.19969(17) 0.50081(16)
C14_4 C 0.40897(17) 0.20801(18) 0.44944(17)
C15_4 C 0.4041(2) 0.1878(2) 0.3820(2)
H7_4 H 0.3648 0.1659 0.3661
C16_4 C 0.4588(2) 0.2006(3) 0.3381(2)
H8_4 H 0.4564 0.1880 0.2921
C17_3 C 0.5164(2) 0.2320(2) 0.3634(2)
H9_3 H 0.5539 0.2406 0.3351
C18_3 C 0.51767(18) 0.2509(2) 0.4319(2)
H10_3 H 0.5569 0.2722 0.4489
Cu3_4 Cu 0.45054(2) 0.28056(2) 0.57153(2)
Cu4_4 Cu 0.29962(3) 0.27291(2) 0.68736(2)
N8_4 N 0.18971(13) 0.08219(13) 0.54707(13)
N9_4 N 0.13827(14) 0.08009(14) 0.64768(14)
N10_4 N 0.18420(13) 0.13303(13) 0.64922(13)
N11_4 N 0.29885(13) 0.15951(15) 0.50097(13)
N12_4 N 0.30835(13) 0.21923(13) 0.60000(13)
N13_4 N 0.36173(13) 0.23555(13) 0.55874(13)
N14_4 N 0.46518(14) 0.24000(15) 0.47477(14)
C19_4 C 0.08601(16) 0.35747(16) 0.94822(16)
H11_4 H 0.0716 0.3843 0.9850
C20_4 C 0.08804(15) 0.28562(15) 0.86719(15)
C21_4 C 0.06406(15) 0.22764(15) 0.82662(15)
C22_4 C 0.00081(16) 0.14510(16) 0.80031(17)
Cu5_4 Cu 0.07153(2) 0.04946(2) 0.71944(2)
Cu6_4 Cu 0.18736(2) 0.20038(3) 0.72709(2)
N15_4 N 0.04707(13) 0.31029(13) 0.91781(13)
N16_4 N 0.14768(14) 0.36173(14) 0.91991(14)
N17_4 N 0.14922(13) 0.31580(13) 0.86697(13)
N18_4 N 0.00097(13) 0.20115(13) 0.84049(15)
N19_4 N 0.10000(13) 0.19165(13) 0.78077(13)
N20_4 N 0.05874(13) 0.13827(13) 0.76445(13)
Cu7_4 Cu 0.21944(2) 0.07153(2) 0.45054(2)
Cu9_4 Cu 0.42847(2) 0.54946(2) 0.71944(2)
N24_4 N 0.54707(13) 0.31029(13) 0.58219(13)
N27_4 N 0.50097(13) 0.20115(13) 0.65951(15)
N22_4 N 0.08219(13) 0.95293(13) 0.68971(13)
N25_4 N 0.15951(15) 0.99903(13) 0.79885(13)
C23_4 C 0.94944(17) 0.09103(17) 0.79199(18)
C24_4 C 0.8820(2) 0.0959(2) 0.8122(2)
H12_4 H 0.8661 0.1352 0.8341
C25_4 C 0.8381(2) 0.0412(2) 0.7994(3)
H13_4 H 0.7921 0.0436 0.8120
N21_4 N 0.97477(14) 0.03482(14) 0.76000(15)
Cu8_4 Cu 0.95054(2) 0.28056(2) 0.92847(2)
C5_5 C 0.20801(18) 0.05056(17) 0.90897(17)
C6_5 C 0.1878(2) 0.1180(2) 0.9041(2)
H2_5 H 0.1659 0.1339 0.8648
C7_5 C 0.2006(3) 0.1619(2) 0.9588(2)
H3_5 H 0.1880 0.2079 0.9564
N7_5 N 0.24000(15) 0.02523(14) 0.96518(14)
C1_5 C 0.05178(16) 0.91399(16) 0.64253(16)
H1_5 H 0.0150 0.9284 0.6157
C2_5 C 0.13281(15) 0.91196(15) 0.71438(15)
C3_5 C 0.17338(15) 0.93594(15) 0.77236(15)
C4_5 C 0.19969(17) 0.99919(16) 0.85490(16)
Cl1_5 Cl 0.31853(4) 0.81853(4) 0.68147(4)
Cl2_5 Cl 0.20977(4) 0.70977(4) 0.79023(4)
Cu2_5 Cu 0.27291(2) 0.81264(2) 0.79962(3)
N2_5 N 0.08009(14) 0.85232(14) 0.63827(14)
N3_5 N 0.13303(13) 0.85078(13) 0.68420(13)
N5_5 N 0.21923(13) 0.90000(13) 0.80835(13)
N6_5 N 0.23555(13) 0.94126(13) 0.86173(13)
C10_5 C 0.35747(16) 0.55178(16) 0.58601(16)
H6_5 H 0.3843 0.5150 0.5716
C11_5 C 0.28562(15) 0.63281(15) 0.58804(15)
C12_5 C 0.22764(15) 0.67338(15) 0.56406(15)
C13_5 C 0.14510(16) 0.69969(17) 0.50081(16)
C14_5 C 0.09103(17) 0.70801(18) 0.44944(17)
C15_5 C 0.0959(2) 0.6878(2) 0.3820(2)
H7_5 H 0.1352 0.6659 0.3661
C16_5 C 0.0412(2) 0.7006(3) 0.3381(2)
H8_5 H 0.0436 0.6880 0.2921
Cu4_5 Cu 0.20038(3) 0.77291(2) 0.68736(2)
N9_5 N 0.36173(14) 0.58009(14) 0.64768(14)
N10_5 N 0.31580(13) 0.63303(13) 0.64922(13)
N12_5 N 0.19165(13) 0.71923(13) 0.60000(13)
N13_5 N 0.13827(13) 0.73555(13) 0.55874(13)
N14_5 N 0.03482(14) 0.74000(15) 0.47477(14)
C19_5 C 0.41399(16) 0.85747(16) 0.94822(16)
H11_5 H 0.4284 0.8843 0.9850
C20_5 C 0.41196(15) 0.78562(15) 0.86719(15)
C21_5 C 0.43594(15) 0.72764(15) 0.82662(15)
C22_5 C 0.49919(16) 0.64510(16) 0.80031(17)
C23_5 C 0.55056(17) 0.59103(17) 0.79199(18)
C24_5 C 0.6180(2) 0.5959(2) 0.8122(2)
H12_5 H 0.6339 0.6352 0.8341
C25_5 C 0.6619(2) 0.5412(2) 0.7994(3)
H13_5 H 0.7079 0.5436 0.8120
C26_4 C 0.6366(2) 0.4836(2) 0.7680(2)
H14_4 H 0.6649 0.4461 0.7594
C27_4 C 0.5681(2) 0.48233(18) 0.7491(2)
H15_4 H 0.5511 0.4431 0.7278
Cu6_5 Cu 0.31264(2) 0.70038(3) 0.72709(2)
N16_5 N 0.35232(14) 0.86173(14) 0.91991(14)
N17_5 N 0.35078(13) 0.81580(13) 0.86697(13)
N19_5 N 0.40000(13) 0.69165(13) 0.78077(13)
N20_5 N 0.44126(13) 0.63827(13) 0.76445(13)
N21_5 N 0.52523(14) 0.53482(14) 0.76000(15)
C17_4 C 0.9836(2) 0.7320(2) 0.3634(2)
H9_4 H 0.9461 0.7406 0.3351
C18_4 C 0.98233(18) 0.7509(2) 0.4319(2)
H10_4 H 0.9431 0.7722 0.4489
C1_6 C 0.44822(16) 0.08601(16) 0.14253(16)
H1_6 H 0.4850 0.0716 0.1157
C2_6 C 0.36719(15) 0.08804(15) 0.21438(15)
C3_6 C 0.32662(15) 0.06406(15) 0.27236(15)
C4_6 C 0.30031(17) 0.00081(16) 0.35490(16)
Cl1_6 Cl 0.18147(4) 0.18147(4) 0.18147(4)
Cl2_6 Cl 0.29023(4) 0.29023(4) 0.29023(4)
Cu2_6 Cu 0.22709(2) 0.18736(2) 0.29962(3)
N2_6 N 0.41991(14) 0.14768(14) 0.13827(14)
N3_6 N 0.36697(13) 0.14922(13) 0.18420(13)
N5_6 N 0.28077(13) 0.10000(13) 0.30835(13)
N6_6 N 0.26445(13) 0.05874(13) 0.36173(13)
C10_6 C 0.14253(16) 0.44822(16) 0.08601(16)
H6_6 H 0.1157 0.4850 0.0716
C11_6 C 0.21438(15) 0.36719(15) 0.08804(15)
C12_6 C 0.27236(15) 0.32662(15) 0.06406(15)
C13_6 C 0.35490(16) 0.30031(17) 0.00081(16)
Cu4_6 Cu 0.29962(3) 0.22709(2) 0.18736(2)
N9_6 N 0.13827(14) 0.41991(14) 0.14768(14)
N10_6 N 0.18420(13) 0.36697(13) 0.14922(13)
N12_6 N 0.30835(13) 0.28077(13) 0.10000(13)
N13_6 N 0.36173(13) 0.26445(13) 0.05874(13)
C19_6 C 0.08601(16) 0.14253(16) 0.44822(16)
H11_6 H 0.0716 0.1157 0.4850
C20_6 C 0.08804(15) 0.21438(15) 0.36719(15)
C21_6 C 0.06406(15) 0.27236(15) 0.32662(15)
C22_6 C 0.00081(16) 0.35490(16) 0.30031(17)
Cu6_6 Cu 0.18736(2) 0.29962(3) 0.22709(2)
N16_6 N 0.14768(14) 0.13827(14) 0.41991(14)
N17_6 N 0.14922(13) 0.18420(13) 0.36697(13)
N19_6 N 0.10000(13) 0.30835(13) 0.28077(13)
N20_6 N 0.05874(13) 0.36173(13) 0.26445(13)
C14_6 C 0.40897(17) 0.29199(18) 0.94944(17)
C15_6 C 0.4041(2) 0.3122(2) 0.8820(2)
H7_6 H 0.3648 0.3341 0.8661
C16_6 C 0.4588(2) 0.2994(3) 0.8381(2)
H8_6 H 0.4564 0.3120 0.7921
C17_5 C 0.5164(2) 0.2680(2) 0.8634(2)
H9_5 H 0.5539 0.2594 0.8351
C18_5 C 0.51767(18) 0.2491(2) 0.9319(2)
H10_5 H 0.5569 0.2278 0.9489
N14_6 N 0.46518(14) 0.26000(15) 0.97477(14)
C5_6 C 0.29199(18) 0.94944(17) 0.40897(17)
C6_6 C 0.3122(2) 0.8820(2) 0.4041(2)
H2_6 H 0.3341 0.8661 0.3648
C7_6 C 0.2994(3) 0.8381(2) 0.4588(2)
H3_6 H 0.3120 0.7921 0.4564
C8_4 C 0.2680(2) 0.8634(2) 0.5164(2)
H4_4 H 0.2594 0.8351 0.5539
C9_4 C 0.2491(2) 0.9319(2) 0.51767(18)
H5_4 H 0.2278 0.9489 0.5569
N7_6 N 0.26000(15) 0.97477(14) 0.46518(14)
C23_6 C 0.94944(17) 0.40897(17) 0.29199(18)
C24_6 C 0.8820(2) 0.4041(2) 0.3122(2)
H12_6 H 0.8661 0.3648 0.3341
C25_6 C 0.8381(2) 0.4588(2) 0.2994(3)
H13_6 H 0.7921 0.4564 0.3120
C26_5 C 0.8634(2) 0.5164(2) 0.2680(2)
H14_5 H 0.8351 0.5539 0.2594
C27_5 C 0.9319(2) 0.51767(18) 0.2491(2)
H15_5 H 0.9489 0.5569 0.2278
N21_6 N 0.97477(14) 0.46518(14) 0.26000(15)
C14_7 C 0.90897(17) 0.20801(18) 0.05056(17)
C15_7 C 0.9041(2) 0.1878(2) 0.1180(2)
H7_7 H 0.8648 0.1659 0.1339
C16_7 C 0.9588(2) 0.2006(3) 0.1619(2)
H8_7 H 0.9564 0.1880 0.2079
N14_7 N 0.96518(14) 0.24000(15) 0.02523(14)
C1_7 C 0.94822(16) 0.41399(16) 0.85747(16)
H1_7 H 0.9850 0.4284 0.8843
C2_7 C 0.86719(15) 0.41196(15) 0.78562(15)
C3_7 C 0.82662(15) 0.43594(15) 0.72764(15)
C4_7 C 0.80031(17) 0.49919(16) 0.64510(16)
C5_7 C 0.79199(18) 0.55056(17) 0.59103(17)
C6_7 C 0.8122(2) 0.6180(2) 0.5959(2)
H2_7 H 0.8341 0.6339 0.6352
C7_7 C 0.7994(3) 0.6619(2) 0.5412(2)
H3_7 H 0.8120 0.7079 0.5436
C8_5 C 0.7680(2) 0.6366(2) 0.4836(2)
H4_5 H 0.7594 0.6649 0.4461
C9_5 C 0.7491(2) 0.5681(2) 0.48233(18)
H5_5 H 0.7278 0.5511 0.4431
Cl1_7 Cl 0.68147(4) 0.31853(4) 0.81853(4)
Cl2_7 Cl 0.79023(4) 0.20977(4) 0.70977(4)
Cu2_7 Cu 0.72709(2) 0.31264(2) 0.70038(3)
N2_7 N 0.91991(14) 0.35232(14) 0.86173(14)
N3_7 N 0.86697(13) 0.35078(13) 0.81580(13)
N5_7 N 0.78077(13) 0.40000(13) 0.69165(13)
N6_7 N 0.76445(13) 0.44126(13) 0.63827(13)
N7_7 N 0.76000(15) 0.52523(14) 0.53482(14)
C10_7 C 0.64253(16) 0.05178(16) 0.91399(16)
H6_7 H 0.6157 0.0150 0.9284
C11_7 C 0.71438(15) 0.13281(15) 0.91196(15)
C12_7 C 0.77236(15) 0.17338(15) 0.93594(15)
C13_7 C 0.85490(16) 0.19969(17) 0.99919(16)
Cu4_7 Cu 0.79962(3) 0.27291(2) 0.81264(2)
N9_7 N 0.63827(14) 0.08009(14) 0.85232(14)
N10_7 N 0.68420(13) 0.13303(13) 0.85078(13)
N12_7 N 0.80835(13) 0.21923(13) 0.90000(13)
N13_7 N 0.86173(13) 0.23555(13) 0.94126(13)
C19_7 C 0.58601(16) 0.35747(16) 0.55178(16)
H11_7 H 0.5716 0.3843 0.5150
C20_7 C 0.58804(15) 0.28562(15) 0.63281(15)
C21_7 C 0.56406(15) 0.22764(15) 0.67338(15)
C22_7 C 0.50081(16) 0.14510(16) 0.69969(17)
C23_7 C 0.44944(17) 0.09103(17) 0.70801(18)
C24_7 C 0.3820(2) 0.0959(2) 0.6878(2)
H12_7 H 0.3661 0.1352 0.6659
C25_7 C 0.3381(2) 0.0412(2) 0.7006(3)
H13_7 H 0.2921 0.0436 0.6880
Cu6_7 Cu 0.68736(2) 0.20038(3) 0.77291(2)
N16_7 N 0.64768(14) 0.36173(14) 0.58009(14)
N17_7 N 0.64922(13) 0.31580(13) 0.63303(13)
N19_7 N 0.60000(13) 0.19165(13) 0.71923(13)
N20_7 N 0.55874(13) 0.13827(13) 0.73555(13)
N21_7 N 0.47477(14) 0.03482(14) 0.74000(15)
C26_6 C 0.3634(2) 0.9836(2) 0.7320(2)
H14_6 H 0.3351 0.9461 0.7406
C27_6 C 0.4319(2) 0.98233(18) 0.7509(2)
H15_6 H 0.4489 0.9431 0.7722
C23_8 C 0.05056(17) 0.90897(17) 0.20801(18)
C24_8 C 0.1180(2) 0.9041(2) 0.1878(2)
H12_8 H 0.1339 0.8648 0.1659
C25_8 C 0.1619(2) 0.9588(2) 0.2006(3)
H13_8 H 0.2079 0.9564 0.1880
N21_8 N 0.02523(14) 0.96518(14) 0.24000(15)
C1_8 C 0.55178(16) 0.58601(16) 0.35747(16)
H1_8 H 0.5150 0.5716 0.3843
C2_8 C 0.63281(15) 0.58804(15) 0.28562(15)
C3_8 C 0.67338(15) 0.56406(15) 0.22764(15)
C4_8 C 0.69969(17) 0.50081(16) 0.14510(16)
C5_8 C 0.70801(18) 0.44944(17) 0.09103(17)
C6_8 C 0.6878(2) 0.3820(2) 0.0959(2)
H2_8 H 0.6659 0.3661 0.1352
C7_8 C 0.7006(3) 0.3381(2) 0.0412(2)
H3_8 H 0.6880 0.2921 0.0436
Cl1_8 Cl 0.81853(4) 0.68147(4) 0.31853(4)
Cl2_8 Cl 0.70977(4) 0.79023(4) 0.20977(4)
Cu2_8 Cu 0.77291(2) 0.68736(2) 0.20038(3)
N2_8 N 0.58009(14) 0.64768(14) 0.36173(14)
N3_8 N 0.63303(13) 0.64922(13) 0.31580(13)
N5_8 N 0.71923(13) 0.60000(13) 0.19165(13)
N6_8 N 0.73555(13) 0.55874(13) 0.13827(13)
N7_8 N 0.74000(15) 0.47477(14) 0.03482(14)
C10_8 C 0.85747(16) 0.94822(16) 0.41399(16)
H6_8 H 0.8843 0.9850 0.4284
C11_8 C 0.78562(15) 0.86719(15) 0.41196(15)
C12_8 C 0.72764(15) 0.82662(15) 0.43594(15)
C13_8 C 0.64510(16) 0.80031(17) 0.49919(16)
C14_8 C 0.59103(17) 0.79199(18) 0.55056(17)
C15_8 C 0.5959(2) 0.8122(2) 0.6180(2)
H7_8 H 0.6352 0.8341 0.6339
C16_8 C 0.5412(2) 0.7994(3) 0.6619(2)
H8_8 H 0.5436 0.8120 0.7079
C17_6 C 0.4836(2) 0.7680(2) 0.6366(2)
H9_6 H 0.4461 0.7594 0.6649
C18_6 C 0.48233(18) 0.7491(2) 0.5681(2)
H10_6 H 0.4431 0.7278 0.5511
Cu4_8 Cu 0.70038(3) 0.72709(2) 0.31264(2)
N9_8 N 0.86173(14) 0.91991(14) 0.35232(14)
N10_8 N 0.81580(13) 0.86697(13) 0.35078(13)
N12_8 N 0.69165(13) 0.78077(13) 0.40000(13)
N13_8 N 0.63827(13) 0.76445(13) 0.44126(13)
N14_8 N 0.53482(14) 0.76000(15) 0.52523(14)
C19_8 C 0.91399(16) 0.64253(16) 0.05178(16)
H11_8 H 0.9284 0.6157 0.0150
C20_8 C 0.91196(15) 0.71438(15) 0.13281(15)
C21_8 C 0.93594(15) 0.77236(15) 0.17338(15)
C22_8 C 0.99919(16) 0.85490(16) 0.19969(17)
Cu6_8 Cu 0.81264(2) 0.79962(3) 0.27291(2)
N16_8 N 0.85232(14) 0.63827(14) 0.08009(14)
N17_8 N 0.85078(13) 0.68420(13) 0.13303(13)
N19_8 N 0.90000(13) 0.80835(13) 0.21923(13)
N20_8 N 0.94126(13) 0.86173(13) 0.23555(13)
C8_6 C 0.7320(2) 0.3634(2) 0.9836(2)
H4_6 H 0.7406 0.3351 0.9461
C9_6 C 0.7509(2) 0.4319(2) 0.98233(18)
H5_6 H 0.7722 0.4489 0.9431
C8_7 C 0.7680(2) 0.8634(2) 0.9836(2)
H4_7 H 0.7594 0.8351 0.9461
C9_7 C 0.7491(2) 0.9319(2) 0.98233(18)
H5_7 H 0.7278 0.9489 0.9431
C17_7 C 0.9836(2) 0.7680(2) 0.8634(2)
H9_7 H 0.9461 0.7594 0.8351
C18_7 C 0.98233(18) 0.7491(2) 0.9319(2)
H10_7 H 0.9431 0.7278 0.9489
C26_7 C 0.8634(2) 0.9836(2) 0.7680(2)
H14_7 H 0.8351 0.9461 0.7594
C27_7 C 0.9319(2) 0.98233(18) 0.7491(2)
H15_7 H 0.9489 0.9431 0.7278
C8_8 C 0.2320(2) 0.1366(2) 0.0164(2)
H4_8 H 0.2406 0.1649 0.0539
C9_8 C 0.2509(2) 0.0681(2) 0.01767(18)
H5_8 H 0.2722 0.0511 0.0569
C17_8 C 0.0164(2) 0.2320(2) 0.1366(2)
H9_8 H 0.0539 0.2406 0.1649
C18_8 C 0.01767(18) 0.2509(2) 0.0681(2)
H10_8 H 0.0569 0.2722 0.0511
C26_8 C 0.1366(2) 0.0164(2) 0.2320(2)
H14_8 H 0.1649 0.0539 0.2406
C27_8 C 0.0681(2) 0.01767(18) 0.2509(2)
H15_8 H 0.0511 0.0569 0.2722
Cl3 Cl 0.57212(5) 0.92788(5) 0.07212(5)
O1 O 0.5992(2) 0.9957(2) 0.0726(2)
O2 O 0.6144(2) 0.8856(2) 0.1144(2)
O3 O 0.5726(2) 0.9008(2) 0.0043(2)
O4 O 0.5043(2) 0.9274(2) 0.0992(2)
Cl3_2 Cl 0.92788(5) 0.07212(5) 0.57212(5)
O1_2 O 0.9008(2) 0.0043(2) 0.5726(2)
O2_2 O 0.8856(2) 0.1144(2) 0.6144(2)
O3_2 O 0.9274(2) 0.0992(2) 0.5043(2)
O4_2 O 0.9957(2) 0.0726(2) 0.5992(2)
Cl3_3 Cl 0.42788(5) 0.42788(5) 0.42788(5)
O1_3 O 0.4008(2) 0.4957(2) 0.4274(2)
O2_3 O 0.3856(2) 0.3856(2) 0.3856(2)
O3_3 O 0.4274(2) 0.4008(2) 0.4957(2)
O4_3 O 0.4957(2) 0.4274(2) 0.4008(2)
Cl3_4 Cl 0.07212(5) 0.57212(5) 0.92788(5)
O1_4 O 0.0992(2) 0.5043(2) 0.9274(2)
O2_4 O 0.1144(2) 0.6144(2) 0.8856(2)
O3_4 O 0.0726(2) 0.5992(2) 0.9957(2)
O4_4 O 0.0043(2) 0.5726(2) 0.9008(2)
Cl3_5 Cl 0.42788(5) 0.07212(5) 0.92788(5)
O1_5 O 0.4008(2) 0.0043(2) 0.9274(2)
O2_5 O 0.3856(2) 0.1144(2) 0.8856(2)
O3_5 O 0.4274(2) 0.0992(2) 0.9957(2)
O4_5 O 0.4957(2) 0.0726(2) 0.9008(2)
Cl3_6 Cl 0.07212(5) 0.92788(5) 0.42788(5)
O1_6 O 0.0992(2) 0.9957(2) 0.4274(2)
O2_6 O 0.1144(2) 0.8856(2) 0.3856(2)
O3_6 O 0.0726(2) 0.9008(2) 0.4957(2)
O4_6 O 0.0043(2) 0.9274(2) 0.4008(2)
Cl3_7 Cl 0.57212(5) 0.57212(5) 0.57212(5)
O1_7 O 0.5992(2) 0.5043(2) 0.5726(2)
O2_7 O 0.6144(2) 0.6144(2) 0.6144(2)
O3_7 O 0.5726(2) 0.5992(2) 0.5043(2)
O4_7 O 0.5043(2) 0.5726(2) 0.5992(2)
Cl3_8 Cl 0.92788(5) 0.42788(5) 0.07212(5)
O1_8 O 0.9008(2) 0.4957(2) 0.0726(2)
O2_8 O 0.8856(2) 0.3856(2) 0.1144(2)
O3_8 O 0.9274(2) 0.4008(2) 0.0043(2)
O4_8 O 0.9957(2) 0.4274(2) 0.0992(2)
loop_
_geom_bond_atom_site_label_1
_geom_bond_atom_site_label_2
_geom_bond_site_symmetry_1
_geom_bond_site_symmetry_2
H9 C17 1_555 1_555
C18 C17 1_555 1_555
H10 C18 1_555 1_555
C1 H1 1_555 1_555
C2 C3 1_555 1_555
C3 N4 1_555 1_555
Cl1 Cu2 1_555 1_555
Cl2 Cu2 1_555 1_555
Cu1 N6 1_555 1_555
Cu2 N5 1_555 1_555
N1 C1 1_555 1_555
N2 C1 1_555 1_555
N3 C2 1_555 1_555
N4 C4 1_555 1_555
N5 C3 1_555 1_555
N6 C4 1_555 1_555
C10 H6 1_555 1_555
C11 C12 1_555 1_555
C12 N11 1_555 1_555
C13 C14 1_555 1_555
C14 C15 1_555 1_555
C15 H7 1_555 1_555
C16 C15 1_555 1_555
H8 C16 1_555 1_555
Cu3 N2 1_555 1_555
Cu4 Cl1 1_555 1_555
N8 C10 1_555 1_555
N9 C10 1_555 1_555
N10 C11 1_555 1_555
N11 C13 1_555 1_555
N12 C12 1_555 1_555
N13 C13 1_555 1_555
N14 C14 1_555 1_555
C19 H11 1_555 1_555
C20 C21 1_555 1_555
C21 N18 1_555 1_555
C22 C23 1_555 1_555
C23 C24 1_555 1_555
C24 H12 1_555 1_555
C25 C24 1_555 1_555
H13 C25 1_555 1_555
C26 C25 1_555 1_555
H14 C26 1_555 1_555
C27 C26 1_555 1_555
H15 C27 1_555 1_555
Cu5 N9 1_555 1_555
Cu6 Cl1 1_555 1_555
N15 C19 1_555 1_555
N16 Cu1 1_555 1_555
N17 Cu2 1_555 1_555
N18 C22 1_555 1_555
N19 C21 1_555 1_555
N20 C22 1_555 1_555
N21 C23 1_555 1_555
Cu7 N8 1_555 1_555
Cu8 N15 1_555 1_555
N22 Cu5 1_555 1_555
N25 Cu5 1_555 1_555
C2 N1 1_555 1_555
Cl2 Cu4 1_555 1_555
Cl2 Cu6 1_555 1_555
N2 N3 1_555 1_555
N3 Cu4 1_555 1_555
N5 N6 1_555 1_555
C11 N8 1_555 1_555
Cu3 N13 1_555 1_555
Cu3 N14 1_555 1_555
Cu4 N12 1_555 1_555
N9 N10 1_555 1_555
N10 Cu6 1_555 1_555
N11 Cu7 1_555 1_555
N12 N13 1_555 1_555
C19 N16 1_555 1_555
C20 N15 1_555 1_555
C20 N17 1_555 1_555
C27 N21 1_555 1_555
Cu5 N20 1_555 1_555
Cu5 N21 1_555 1_555
Cu6 N19 1_555 1_555
N16 N17 1_555 1_555
N18 Cu8 1_555 1_555
N19 N20 1_555 1_555
C5 C6 1_555 1_555
C6 H2 1_555 1_555
C7 C6 1_555 1_555
H3 C7 1_555 1_555
N7 C5 1_555 1_555
C23_2 C24_2 1_555 1_555
C24_2 H12_2 1_555 1_555
C25_2 C24_2 1_555 1_555
H13_2 C25_2 1_555 1_555
C26_2 C25_2 1_555 1_555
H14_2 C26_2 1_555 1_555
C27_2 C26_2 1_555 1_555
H15_2 C27_2 1_555 1_555
N21_2 C23_2 1_555 1_555
C27_2 N21_2 1_555 1_555
C5_2 C6_2 1_555 1_555
C6_2 H2_2 1_555 1_555
C7_2 C6_2 1_555 1_555
H3_2 C7_2 1_555 1_555
C8 C7_2 1_555 1_555
H4 C8 1_555 1_555
C9 C8 1_555 1_555
H5 C9 1_555 1_555
N7_2 C5_2 1_555 1_555
C9 N7_2 1_555 1_555
C14_2 C15_2 1_555 1_555
C15_2 H7_2 1_555 1_555
C16_2 C15_2 1_555 1_555
H8_2 C16_2 1_555 1_555
C17_2 C16_2 1_555 1_555
H9_2 C17_2 1_555 1_555
C18_2 C17_2 1_555 1_555
H10_2 C18_2 1_555 1_555
N14_2 C14_2 1_555 1_555
C18_2 N14_2 1_555 1_555
C1_2 H1_2 1_555 1_555
C2_2 C3_2 1_555 1_555
C3_2 N4_2 1_555 1_555
Cl1_2 Cu2_2 1_555 1_555
Cl2_2 Cu2_2 1_555 1_555
Cu1_2 N6_2 1_555 1_555
Cu2_2 N5_2 1_555 1_555
N1_2 C1_2 1_555 1_555
N2_2 C1_2 1_555 1_555
N3_2 C2_2 1_555 1_555
N4_2 C4_2 1_555 1_555
N5_2 C3_2 1_555 1_555
N6_2 C4_2 1_555 1_555
C10_2 H6_2 1_555 1_555
C11_2 C12_2 1_555 1_555
C12_2 N11_2 1_555 1_555
Cu3_2 N2_2 1_555 1_555
Cu4_2 Cl1_2 1_555 1_555
N8_2 C10_2 1_555 1_555
N9_2 C10_2 1_555 1_555
N10_2 C11_2 1_555 1_555
N11_2 C13_2 1_555 1_555
N12_2 C12_2 1_555 1_555
N13_2 C13_2 1_555 1_555
C19_2 H11_2 1_555 1_555
C20_2 C21_2 1_555 1_555
C21_2 N18_2 1_555 1_555
Cu5_2 N9_2 1_555 1_555
Cu6_2 Cl1_2 1_555 1_555
N15_2 C19_2 1_555 1_555
N16_2 Cu1_2 1_555 1_555
N17_2 Cu2_2 1_555 1_555
N18_2 C22_2 1_555 1_555
N19_2 C21_2 1_555 1_555
N20_2 C22_2 1_555 1_555
N22_2 Cu5_2 1_555 1_555
N23_2 Cu1_2 1_555 1_555
N24_2 Cu3_2 1_555 1_555
N25_2 Cu5_2 1_555 1_555
N26_2 Cu1_2 1_555 1_555
N27_2 Cu3_2 1_555 1_555
C2_2 N1_2 1_555 1_555
Cl2_2 Cu4_2 1_555 1_555
Cl2_2 Cu6_2 1_555 1_555
N2_2 N3_2 1_555 1_555
N3_2 Cu4_2 1_555 1_555
N5_2 N6_2 1_555 1_555
C11_2 N8_2 1_555 1_555
Cu3_2 N13_2 1_555 1_555
Cu4_2 N12_2 1_555 1_555
N9_2 N10_2 1_555 1_555
N10_2 Cu6_2 1_555 1_555
N12_2 N13_2 1_555 1_555
C19_2 N16_2 1_555 1_555
C20_2 N15_2 1_555 1_555
C20_2 N17_2 1_555 1_555
Cu5_2 N20_2 1_555 1_555
Cu6_2 N19_2 1_555 1_555
N16_2 N17_2 1_555 1_555
N19_2 N20_2 1_555 1_555
H14_3 C26_3 1_555 1_555
C27_3 C26_3 1_555 1_555
H15_3 C27_3 1_555 1_555
C1_3 H1_3 1_555 1_555
C2_3 C3_3 1_555 1_555
C3_3 N4_3 1_555 1_555
C4_3 C5_3 1_555 1_555
C5_3 C6_3 1_555 1_555
C6_3 H2_3 1_555 1_555
C7_3 C6_3 1_555 1_555
H3_3 C7_3 1_555 1_555
C8_2 C7_3 1_555 1_555
H4_2 C8_2 1_555 1_555
C9_2 C8_2 1_555 1_555
H5_2 C9_2 1_555 1_555
Cl1_3 Cu2_3 1_555 1_555
Cl2_3 Cu2_3 1_555 1_555
Cu1_3 N6_3 1_555 1_555
Cu2_3 N5_3 1_555 1_555
N1_3 C1_3 1_555 1_555
N2_3 C1_3 1_555 1_555
N3_3 C2_3 1_555 1_555
N4_3 C4_3 1_555 1_555
N5_3 C3_3 1_555 1_555
N6_3 C4_3 1_555 1_555
N7_3 C5_3 1_555 1_555
C10_3 H6_3 1_555 1_555
C11_3 C12_3 1_555 1_555
C12_3 N11_3 1_555 1_555
Cu3_3 N2_3 1_555 1_555
Cu4_3 Cl1_3 1_555 1_555
N8_3 C10_3 1_555 1_555
N9_3 C10_3 1_555 1_555
N10_3 C11_3 1_555 1_555
N11_3 C13_3 1_555 1_555
N12_3 C12_3 1_555 1_555
N13_3 C13_3 1_555 1_555
C19_3 H11_3 1_555 1_555
C20_3 C21_3 1_555 1_555
C21_3 N18_3 1_555 1_555
C22_3 C23_3 1_555 1_555
C23_3 C24_3 1_555 1_555
C24_3 H12_3 1_555 1_555
C25_3 C24_3 1_555 1_555
H13_3 C25_3 1_555 1_555
Cu5_3 N9_3 1_555 1_555
Cu6_3 Cl1_3 1_555 1_555
N15_3 C19_3 1_555 1_555
N16_3 Cu1_3 1_555 1_555
N17_3 Cu2_3 1_555 1_555
N18_3 C22_3 1_555 1_555
N19_3 C21_3 1_555 1_555
N20_3 C22_3 1_555 1_555
N21_3 C23_3 1_555 1_555
Cu8_3 N15_3 1_555 1_555
Cu9_3 N1_3 1_555 1_555
N23_3 Cu1_3 1_555 1_555
N26_3 Cu1_3 1_555 1_555
C2_3 N1_3 1_555 1_555
C9_2 N7_3 1_555 1_555
Cl2_3 Cu4_3 1_555 1_555
Cl2_3 Cu6_3 1_555 1_555
Cu1_3 N7_3 1_555 1_555
N2_3 N3_3 1_555 1_555
N3_3 Cu4_3 1_555 1_555
N4_3 Cu9_3 1_555 1_555
N5_3 N6_3 1_555 1_555
C11_3 N8_3 1_555 1_555
Cu3_3 N13_3 1_555 1_555
Cu4_3 N12_3 1_555 1_555
N9_3 N10_3 1_555 1_555
N10_3 Cu6_3 1_555 1_555
N12_3 N13_3 1_555 1_555
C19_3 N16_3 1_555 1_555
C20_3 N15_3 1_555 1_555
C20_3 N17_3 1_555 1_555
Cu5_3 N20_3 1_555 1_555
Cu5_3 N21_3 1_555 1_555
Cu6_3 N19_3 1_555 1_555
N16_3 N17_3 1_555 1_555
N18_3 Cu8_3 1_555 1_555
N19_3 N20_3 1_555 1_555
C14_3 C15_3 1_555 1_555
C15_3 H7_3 1_555 1_555
C16_3 C15_3 1_555 1_555
H8_3 C16_3 1_555 1_555
N14_3 C14_3 1_555 1_555
H4_3 C8_3 1_555 1_555
C9_3 C8_3 1_555 1_555
H5_3 C9_3 1_555 1_555
C1_4 H1_4 1_555 1_555
C2_4 C3_4 1_555 1_555
C3_4 N4_4 1_555 1_555
C4_4 C5_4 1_555 1_555
C5_4 C6_4 1_555 1_555
C6_4 H2_4 1_555 1_555
C7_4 C6_4 1_555 1_555
H3_4 C7_4 1_555 1_555
Cl1_4 Cu2_4 1_555 1_555
Cl2_4 Cu2_4 1_555 1_555
Cu1_4 N6_4 1_555 1_555
Cu2_4 N5_4 1_555 1_555
N1_4 C1_4 1_555 1_555
N2_4 C1_4 1_555 1_555
N3_4 C2_4 1_555 1_555
N4_4 C4_4 1_555 1_555
N5_4 C3_4 1_555 1_555
N6_4 C4_4 1_555 1_555
N7_4 C5_4 1_555 1_555
C10_4 H6_4 1_555 1_555
C11_4 C12_4 1_555 1_555
C12_4 N11_4 1_555 1_555
C13_4 C14_4 1_555 1_555
C14_4 C15_4 1_555 1_555
C15_4 H7_4 1_555 1_555
C16_4 C15_4 1_555 1_555
H8_4 C16_4 1_555 1_555
C17_3 C16_4 1_555 1_555
H9_3 C17_3 1_555 1_555
C18_3 C17_3 1_555 1_555
H10_3 C18_3 1_555 1_555
Cu3_4 N2_4 1_555 1_555
Cu4_4 Cl1_4 1_555 1_555
N8_4 C10_4 1_555 1_555
N9_4 C10_4 1_555 1_555
N10_4 C11_4 1_555 1_555
N11_4 C13_4 1_555 1_555
N12_4 C12_4 1_555 1_555
N13_4 C13_4 1_555 1_555
N14_4 C14_4 1_555 1_555
C19_4 H11_4 1_555 1_555
C20_4 C21_4 1_555 1_555
C21_4 N18_4 1_555 1_555
Cu5_4 N9_4 1_555 1_555
Cu6_4 Cl1_4 1_555 1_555
N15_4 C19_4 1_555 1_555
N16_4 Cu1_4 1_555 1_555
N17_4 Cu2_4 1_555 1_555
N18_4 C22_4 1_555 1_555
N19_4 C21_4 1_555 1_555
N20_4 C22_4 1_555 1_555
Cu7_4 N8_4 1_555 1_555
Cu9_4 N1_4 1_555 1_555
N24_4 Cu3_4 1_555 1_555
N27_4 Cu3_4 1_555 1_555
C2_4 N1_4 1_555 1_555
Cl2_4 Cu4_4 1_555 1_555
Cl2_4 Cu6_4 1_555 1_555
Cu1_4 N7_4 1_555 1_555
N2_4 N3_4 1_555 1_555
N3_4 Cu4_4 1_555 1_555
N4_4 Cu9_4 1_555 1_555
N5_4 N6_4 1_555 1_555
C11_4 N8_4 1_555 1_555
C18_3 N14_4 1_555 1_555
Cu3_4 N13_4 1_555 1_555
Cu3_4 N14_4 1_555 1_555
Cu4_4 N12_4 1_555 1_555
N9_4 N10_4 1_555 1_555
N10_4 Cu6_4 1_555 1_555
N11_4 Cu7_4 1_555 1_555
N12_4 N13_4 1_555 1_555
C19_4 N16_4 1_555 1_555
C20_4 N15_4 1_555 1_555
C20_4 N17_4 1_555 1_555
Cu5_4 N20_4 1_555 1_555
Cu6_4 N19_4 1_555 1_555
N16_4 N17_4 1_555 1_555
N19_4 N20_4 1_555 1_555
C23_4 C24_4 1_555 1_555
C24_4 H12_4 1_555 1_555
C25_4 C24_4 1_555 1_555
H13_4 C25_4 1_555 1_555
N21_4 C23_4 1_555 1_555
C5_5 C6_5 1_555 1_555
C6_5 H2_5 1_555 1_555
C7_5 C6_5 1_555 1_555
H3_5 C7_5 1_555 1_555
N7_5 C5_5 1_555 1_555
C1_5 H1_5 1_555 1_555
C2_5 C3_5 1_555 1_555
C3_5 N25_4 1_555 1_555
Cl1_5 Cu2_5 1_555 1_555
Cl2_5 Cu2_5 1_555 1_555
Cu7_3 N6_5 1_555 1_555
Cu2_5 N5_5 1_555 1_555
N22_4 C1_5 1_555 1_555
N2_5 C1_5 1_555 1_555
N3_5 C2_5 1_555 1_555
N25_4 C4_5 1_555 1_555
N5_5 C3_5 1_555 1_555
N6_5 C4_5 1_555 1_555
C10_5 H6_5 1_555 1_555
C11_5 C12_5 1_555 1_555
C12_5 N26_3 1_555 1_555
C13_5 C14_5 1_555 1_555
C14_5 C15_5 1_555 1_555
C15_5 H7_5 1_555 1_555
C16_5 C15_5 1_555 1_555
H8_5 C16_5 1_555 1_555
Cu8_2 N2_5 1_555 1_555
Cu4_5 Cl1_5 1_555 1_555
N23_3 C10_5 1_555 1_555
N9_5 C10_5 1_555 1_555
N10_5 C11_5 1_555 1_555
N26_3 C13_5 1_555 1_555
N12_5 C12_5 1_555 1_555
N13_5 C13_5 1_555 1_555
N14_5 C14_5 1_555 1_555
C19_5 H11_5 1_555 1_555
C20_5 C21_5 1_555 1_555
C21_5 N27_2 1_555 1_555
C22_5 C23_5 1_555 1_555
C23_5 C24_5 1_555 1_555
C24_5 H12_5 1_555 1_555
C25_5 C24_5 1_555 1_555
H13_5 C25_5 1_555 1_555
C26_4 C25_5 1_555 1_555
H14_4 C26_4 1_555 1_555
C27_4 C26_4 1_555 1_555
H15_4 C27_4 1_555 1_555
Cu9_4 N9_5 1_555 1_555
Cu6_5 Cl1_5 1_555 1_555
N24_2 C19_5 1_555 1_555
N16_5 Cu7_3 1_555 1_555
N17_5 Cu2_5 1_555 1_555
N27_2 C22_5 1_555 1_555
N19_5 C21_5 1_555 1_555
N20_5 C22_5 1_555 1_555
N21_5 C23_5 1_555 1_555
C2_5 N22_4 1_555 1_555
Cl2_5 Cu4_5 1_555 1_555
Cl2_5 Cu6_5 1_555 1_555
N2_5 N3_5 1_555 1_555
N3_5 Cu4_5 1_555 1_555
N5_5 N6_5 1_555 1_555
C11_5 N23_3 1_555 1_555
Cu8_2 N13_5 1_555 1_555
Cu8_2 N14_5 1_555 1_555
Cu4_5 N12_5 1_555 1_555
N9_5 N10_5 1_555 1_555
N10_5 Cu6_5 1_555 1_555
N12_5 N13_5 1_555 1_555
C19_5 N16_5 1_555 1_555
C20_5 N24_2 1_555 1_555
C20_5 N17_5 1_555 1_555
C27_4 N21_5 1_555 1_555
Cu9_4 N20_5 1_555 1_555
Cu9_4 N21_5 1_555 1_555
Cu6_5 N19_5 1_555 1_555
N16_5 N17_5 1_555 1_555
N19_5 N20_5 1_555 1_555
H9_4 C17_4 1_555 1_555
C18_4 C17_4 1_555 1_555
H10_4 C18_4 1_555 1_555
C1_6 H1_6 1_555 1_555
C2_6 C3_6 1_555 1_555
C3_6 N25_3 1_555 1_555
Cl1_6 Cu2_6 1_555 1_555
Cl2_6 Cu2_6 1_555 1_555
Cu7_4 N6_6 1_555 1_555
Cu2_6 N5_6 1_555 1_555
N22_3 C1_6 1_555 1_555
N2_6 C1_6 1_555 1_555
N3_6 C2_6 1_555 1_555
N25_3 C4_6 1_555 1_555
N5_6 C3_6 1_555 1_555
N6_6 C4_6 1_555 1_555
C10_6 H6_6 1_555 1_555
C11_6 C12_6 1_555 1_555
C12_6 N26_4 1_555 1_555
Cu8 N2_6 1_555 1_555
Cu4_6 Cl1_6 1_555 1_555
N23_4 C10_6 1_555 1_555
N9_6 C10_6 1_555 1_555
N10_6 C11_6 1_555 1_555
N26_4 C13_6 1_555 1_555
N12_6 C12_6 1_555 1_555
N13_6 C13_6 1_555 1_555
C19_6 H11_6 1_555 1_555
C20_6 C21_6 1_555 1_555
C21_6 N27 1_555 1_555
Cu9_3 N9_6 1_555 1_555
Cu6_6 Cl1_6 1_555 1_555
N24 C19_6 1_555 1_555
N16_6 Cu7_4 1_555 1_555
N17_6 Cu2_6 1_555 1_555
N27 C22_6 1_555 1_555
N19_6 C21_6 1_555 1_555
N20_6 C22_6 1_555 1_555
C2_6 N22_3 1_555 1_555
Cl2_6 Cu4_6 1_555 1_555
Cl2_6 Cu6_6 1_555 1_555
N2_6 N3_6 1_555 1_555
N3_6 Cu4_6 1_555 1_555
N5_6 N6_6 1_555 1_555
C11_6 N23_4 1_555 1_555
Cu8 N13_6 1_555 1_555
Cu4_6 N12_6 1_555 1_555
N9_6 N10_6 1_555 1_555
N10_6 Cu6_6 1_555 1_555
N12_6 N13_6 1_555 1_555
C19_6 N16_6 1_555 1_555
C20_6 N24 1_555 1_555
C20_6 N17_6 1_555 1_555
Cu9_3 N20_6 1_555 1_555
Cu6_6 N19_6 1_555 1_555
N16_6 N17_6 1_555 1_555
N19_6 N20_6 1_555 1_555
C14_6 C15_6 1_555 1_555
C15_6 H7_6 1_555 1_555
C16_6 C15_6 1_555 1_555
H8_6 C16_6 1_555 1_555
C17_5 C16_6 1_555 1_555
H9_5 C17_5 1_555 1_555
C18_5 C17_5 1_555 1_555
H10_5 C18_5 1_555 1_555
N14_6 C14_6 1_555 1_555
C18_5 N14_6 1_555 1_555
C5_6 C6_6 1_555 1_555
C6_6 H2_6 1_555 1_555
C7_6 C6_6 1_555 1_555
H3_6 C7_6 1_555 1_555
C8_4 C7_6 1_555 1_555
H4_4 C8_4 1_555 1_555
C9_4 C8_4 1_555 1_555
H5_4 C9_4 1_555 1_555
N7_6 C5_6 1_555 1_555
C9_4 N7_6 1_555 1_555
C23_6 C24_6 1_555 1_555
C24_6 H12_6 1_555 1_555
C25_6 C24_6 1_555 1_555
H13_6 C25_6 1_555 1_555
C26_5 C25_6 1_555 1_555
H14_5 C26_5 1_555 1_555
C27_5 C26_5 1_555 1_555
H15_5 C27_5 1_555 1_555
N21_6 C23_6 1_555 1_555
C27_5 N21_6 1_555 1_555
C14_7 C15_7 1_555 1_555
C15_7 H7_7 1_555 1_555
C16_7 C15_7 1_555 1_555
H8_7 C16_7 1_555 1_555
N14_7 C14_7 1_555 1_555
C1_7 H1_7 1_555 1_555
C2_7 C3_7 1_555 1_555
C3_7 N25_2 1_555 1_555
C4_7 C5_7 1_555 1_555
C5_7 C6_7 1_555 1_555
C6_7 H2_7 1_555 1_555
C7_7 C6_7 1_555 1_555
H3_7 C7_7 1_555 1_555
C8_5 C7_7 1_555 1_555
H4_5 C8_5 1_555 1_555
C9_5 C8_5 1_555 1_555
H5_5 C9_5 1_555 1_555
Cl1_7 Cu2_7 1_555 1_555
Cl2_7 Cu2_7 1_555 1_555
Cu7 N6_7 1_555 1_555
Cu2_7 N5_7 1_555 1_555
N22_2 C1_7 1_555 1_555
N2_7 C1_7 1_555 1_555
N3_7 C2_7 1_555 1_555
N25_2 C4_7 1_555 1_555
N5_7 C3_7 1_555 1_555
N6_7 C4_7 1_555 1_555
N7_7 C5_7 1_555 1_555
C10_7 H6_7 1_555 1_555
C11_7 C12_7 1_555 1_555
C12_7 N26 1_555 1_555
Cu8_4 N2_7 1_555 1_555
Cu4_7 Cl1_7 1_555 1_555
N23 C10_7 1_555 1_555
N9_7 C10_7 1_555 1_555
N10_7 C11_7 1_555 1_555
N26 C13_7 1_555 1_555
N12_7 C12_7 1_555 1_555
N13_7 C13_7 1_555 1_555
C19_7 H11_7 1_555 1_555
C20_7 C21_7 1_555 1_555
C21_7 N27_4 1_555 1_555
C22_7 C23_7 1_555 1_555
C23_7 C24_7 1_555 1_555
C24_7 H12_7 1_555 1_555
C25_7 C24_7 1_555 1_555
H13_7 C25_7 1_555 1_555
Cu9_2 N9_7 1_555 1_555
Cu6_7 Cl1_7 1_555 1_555
N24_4 C19_7 1_555 1_555
N16_7 Cu7 1_555 1_555
N17_7 Cu2_7 1_555 1_555
N27_4 C22_7 1_555 1_555
N19_7 C21_7 1_555 1_555
N20_7 C22_7 1_555 1_555
N21_7 C23_7 1_555 1_555
C2_7 N22_2 1_555 1_555
C9_5 N7_7 1_555 1_555
Cl2_7 Cu4_7 1_555 1_555
Cl2_7 Cu6_7 1_555 1_555
Cu7 N7_7 1_555 1_555
N2_7 N3_7 1_555 1_555
N3_7 Cu4_7 1_555 1_555
N5_7 N6_7 1_555 1_555
C11_7 N23 1_555 1_555
Cu8_4 N13_7 1_555 1_555
Cu4_7 N12_7 1_555 1_555
N9_7 N10_7 1_555 1_555
N10_7 Cu6_7 1_555 1_555
N12_7 N13_7 1_555 1_555
C19_7 N16_7 1_555 1_555
C20_7 N24_4 1_555 1_555
C20_7 N17_7 1_555 1_555
Cu9_2 N20_7 1_555 1_555
Cu9_2 N21_7 1_555 1_555
Cu6_7 N19_7 1_555 1_555
N16_7 N17_7 1_555 1_555
N19_7 N20_7 1_555 1_555
H14_6 C26_6 1_555 1_555
C27_6 C26_6 1_555 1_555
H15_6 C27_6 1_555 1_555
C23_8 C24_8 1_555 1_555
C24_8 H12_8 1_555 1_555
C25_8 C24_8 1_555 1_555
H13_8 C25_8 1_555 1_555
N21_8 C23_8 1_555 1_555
C1_8 H1_8 1_555 1_555
C2_8 C3_8 1_555 1_555
C3_8 N25 1_555 1_555
C4_8 C5_8 1_555 1_555
C5_8 C6_8 1_555 1_555
C6_8 H2_8 1_555 1_555
C7_8 C6_8 1_555 1_555
H3_8 C7_8 1_555 1_555
Cl1_8 Cu2_8 1_555 1_555
Cl2_8 Cu2_8 1_555 1_555
Cu7_2 N6_8 1_555 1_555
Cu2_8 N5_8 1_555 1_555
N22 C1_8 1_555 1_555
N2_8 C1_8 1_555 1_555
N3_8 C2_8 1_555 1_555
N25 C4_8 1_555 1_555
N5_8 C3_8 1_555 1_555
N6_8 C4_8 1_555 1_555
N7_8 C5_8 1_555 1_555
C10_8 H6_8 1_555 1_555
C11_8 C12_8 1_555 1_555
C12_8 N26_2 1_555 1_555
C13_8 C14_8 1_555 1_555
C14_8 C15_8 1_555 1_555
C15_8 H7_8 1_555 1_555
C16_8 C15_8 1_555 1_555
H8_8 C16_8 1_555 1_555
C17_6 C16_8 1_555 1_555
H9_6 C17_6 1_555 1_555
C18_6 C17_6 1_555 1_555
H10_6 C18_6 1_555 1_555
Cu8_3 N2_8 1_555 1_555
Cu4_8 Cl1_8 1_555 1_555
N23_2 C10_8 1_555 1_555
N9_8 C10_8 1_555 1_555
N10_8 C11_8 1_555 1_555
N26_2 C13_8 1_555 1_555
N12_8 C12_8 1_555 1_555
N13_8 C13_8 1_555 1_555
N14_8 C14_8 1_555 1_555
C19_8 H11_8 1_555 1_555
C20_8 C21_8 1_555 1_555
C21_8 N27_3 1_555 1_555
Cu9 N9_8 1_555 1_555
Cu6_8 Cl1_8 1_555 1_555
N24_3 C19_8 1_555 1_555
N16_8 Cu7_2 1_555 1_555
N17_8 Cu2_8 1_555 1_555
N27_3 C22_8 1_555 1_555
N19_8 C21_8 1_555 1_555
N20_8 C22_8 1_555 1_555
C2_8 N22 1_555 1_555
Cl2_8 Cu4_8 1_555 1_555
Cl2_8 Cu6_8 1_555 1_555
Cu7_2 N7_8 1_555 1_555
N2_8 N3_8 1_555 1_555
N3_8 Cu4_8 1_555 1_555
N5_8 N6_8 1_555 1_555
C11_8 N23_2 1_555 1_555
C18_6 N14_8 1_555 1_555
Cu8_3 N13_8 1_555 1_555
Cu8_3 N14_8 1_555 1_555
Cu4_8 N12_8 1_555 1_555
N9_8 N10_8 1_555 1_555
N10_8 Cu6_8 1_555 1_555
N12_8 N13_8 1_555 1_555
C19_8 N16_8 1_555 1_555
C20_8 N24_3 1_555 1_555
C20_8 N17_8 1_555 1_555
Cu9 N20_8 1_555 1_555
Cu6_8 N19_8 1_555 1_555
N16_8 N17_8 1_555 1_555
N19_8 N20_8 1_555 1_555
H4_6 C8_6 1_555 1_555
C9_6 C8_6 1_555 1_555
H5_6 C9_6 1_555 1_555
H4_7 C8_7 1_555 1_555
C9_7 C8_7 1_555 1_555
H5_7 C9_7 1_555 1_555
H9_7 C17_7 1_555 1_555
C18_7 C17_7 1_555 1_555
H10_7 C18_7 1_555 1_555
H14_7 C26_7 1_555 1_555
C27_7 C26_7 1_555 1_555
H15_7 C27_7 1_555 1_555
H4_8 C8_8 1_555 1_555
C9_8 C8_8 1_555 1_555
H5_8 C9_8 1_555 1_555
H9_8 C17_8 1_555 1_555
C18_8 C17_8 1_555 1_555
H10_8 C18_8 1_555 1_555
H14_8 C26_8 1_555 1_555
C27_8 C26_8 1_555 1_555
H15_8 C27_8 1_555 1_555
Cl3 O1 1_555 1_555
O2 Cl3 1_555 1_555
O3 Cl3 1_555 1_555
O4 Cl3 1_555 1_555
Cl3_2 O1_2 1_555 1_555
O2_2 Cl3_2 1_555 1_555
O3_2 Cl3_2 1_555 1_555
O4_2 Cl3_2 1_555 1_555
Cl3_3 O1_3 1_555 1_555
O2_3 Cl3_3 1_555 1_555
O3_3 Cl3_3 1_555 1_555
O4_3 Cl3_3 1_555 1_555
Cl3_4 O1_4 1_555 1_555
O2_4 Cl3_4 1_555 1_555
O3_4 Cl3_4 1_555 1_555
O4_4 Cl3_4 1_555 1_555
Cl3_5 O1_5 1_555 1_555
O2_5 Cl3_5 1_555 1_555
O3_5 Cl3_5 1_555 1_555
O4_5 Cl3_5 1_555 1_555
Cl3_6 O1_6 1_555 1_555
O2_6 Cl3_6 1_555 1_555
O3_6 Cl3_6 1_555 1_555
O4_6 Cl3_6 1_555 1_555
Cl3_7 O1_7 1_555 1_555
O2_7 Cl3_7 1_555 1_555
O3_7 Cl3_7 1_555 1_555
O4_7 Cl3_7 1_555 1_555
Cl3_8 O1_8 1_555 1_555
O2_8 Cl3_8 1_555 1_555
O3_8 Cl3_8 1_555 1_555
O4_8 Cl3_8 1_555 1_555

#END
