
###############################################################################
#
# This file contains modified crystal structure data generated from the
# MOF subset of the Cambridge Structural Database (CSD) v543 
# hosted by the Cambridge Crystallographic Data Centre (CCDC).
#
# This work is licensed under the Creative Commons
# Attribution-NonCommercial-ShareAlike 4.0 International License.
# To view a copy of this license, visit
# http://creativecommons.org/licenses/by-nc-sa/4.0/
# or send a letter to
# Creative Commons, PO Box 1866, Mountain View, CA 94042, USA.
#
# CIF created using the CSD Python API on 29 September 2022
# The structure has been converted into the P1 space group
# The structure has a 3D framework
# The original CSD entry HICVOG is in the tetragonal crystal system
# The original CSD entry HICVOG is in a Sohncke space group
# The framework has been calculated to contain at least 10.0% void space
# The void calculation uses a probe of radius 1.32A, grid spacing 0.4
#
###############################################################################

data_HICVOG
_chemical_formula_moiety         '(C79 H37 N29 O24 Zn8)n'
_symmetry_cell_setting           triclinic
_symmetry_space_group_name_H-M   'P 1'
_symmetry_Int_Tables_number      1
_space_group_name_Hall           'P 1'
loop_
_symmetry_equiv_pos_site_id
_symmetry_equiv_pos_as_xyz
1 x,y,z
_cell_length_a                   10.8140(13)
_cell_length_b                   10.8140(13)
_cell_length_c                   25.410(4)
_cell_angle_alpha                90
_cell_angle_beta                 90
_cell_angle_gamma                90
_cell_volume                     2971.51
loop_
_atom_site_label
_atom_site_type_symbol
_atom_site_fract_x
_atom_site_fract_y
_atom_site_fract_z
Zn6 Zn 0.04341(3) 0.95906(3) 0.170750(8)
Zn4 Zn 0.95906(3) 0.04341(3) 0.829250(8)
Zn1 Zn 0.54341(3) 0.54094(3) 0.079250(8)
O1 O 0.4628(2) 0.40525(19) 0.04012(8)
O2 O 0.1993(2) 0.0972(2) 0.13779(7)
O3 O 0.0336(2) 0.0330(2) 0.09791(7)
N1 N 0.8886(2) 0.8426(2) 0.15828(8)
N2 N 0.6881(3) 0.6931(3) 0.13179(9)
N3 N 0.6427(2) 0.6396(2) 0.02663(7)
N4 N 0.78039(19) 0.78039(19) 0.0000
C1 C 0.7171(4) 0.7166(4) 0.18163(11)
H1 H 0.6680 0.6840 0.2083
C2 C 0.8188(3) 0.7888(3) 0.19499(11)
H2 H 0.8386 0.7997 0.2303
C3 C 0.8591(3) 0.8206(3) 0.10840(10)
H3 H 0.9066 0.8553 0.0817
C4 C 0.7584(3) 0.7466(3) 0.09534(10)
C5 C 0.7282(3) 0.7224(3) 0.04066(10)
C6 C 0.3962(2) 0.3962(2) 0.0000
C7 C 0.2983(2) 0.2983(2) 0.0000
C8 C 0.2648(3) 0.2414(3) 0.04669(9)
H4 H 0.3042 0.2631 0.0779
C9 C 0.1727(2) 0.1520(2) 0.04707(9)
C10 C 0.1168(2) 0.1168(2) 0.0000
H5 H 0.0560 0.0560 0.0000
C11 C 0.1336(3) 0.0922(2) 0.09768(10)
O8 O 0.6993(2) 0.4028(2) 0.11221(7)
O10 O 0.5336(2) 0.4670(2) 0.15209(7)
N9 N 0.3886(2) 0.6574(2) 0.09172(8)
N4_2 N 0.78039(19) 0.78039(19) 1.0000
C6_2 C 0.3962(2) 0.3962(2) 1.0000
C7_2 C 0.2983(2) 0.2983(2) 1.0000
C10_2 C 0.1168(2) 0.1168(2) 1.0000
H5_2 H 0.0560 0.0560 1.0000
O4 O 0.40525(19) 0.4628(2) 0.95988(8)
O5 O 0.0972(2) 0.1993(2) 0.86221(7)
O6 O 0.0330(2) 0.0336(2) 0.90209(7)
C12 C 0.2414(3) 0.2648(3) 0.95331(9)
H6 H 0.2631 0.3042 0.9221
C13 C 0.1520(2) 0.1727(2) 0.95293(9)
C14 C 0.0922(2) 0.1336(3) 0.90232(10)
N5 N 0.8426(2) 0.8886(2) 0.84172(8)
N6 N 0.6931(3) 0.6881(3) 0.86821(9)
N7 N 0.6396(2) 0.6427(2) 0.97337(7)
C15 C 0.7166(4) 0.7171(4) 0.81837(11)
H7 H 0.6840 0.6680 0.7917
C16 C 0.7888(3) 0.8188(3) 0.80501(11)
H8 H 0.7997 0.8386 0.7697
C17 C 0.8206(3) 0.8591(3) 0.89160(10)
H9 H 0.8553 0.9066 0.9183
C18 C 0.7466(3) 0.7584(3) 0.90466(10)
C19 C 0.7224(3) 0.7282(3) 0.95934(10)
Zn2 Zn 0.54094(3) 0.54341(3) 0.920750(8)
O7 O 0.4028(2) 0.6993(2) 0.88779(7)
O9 O 0.4670(2) 0.5336(2) 0.84791(7)
N8 N 0.6574(2) 0.3886(2) 0.90828(8)
N8_2 N 0.1114(2) 0.1574(2) 0.65828(8)
O1_2 O 0.09475(19) 0.9628(2) 0.79012(8)
C6_3 C 0.1038(2) 0.8962(2) 0.7500
C7_3 C 0.2017(2) 0.7983(2) 0.7500
C8_2 C 0.2586(3) 0.7648(3) 0.79669(9)
H4_2 H 0.2369 0.8042 0.8279
C9_2 C 0.3480(2) 0.6727(2) 0.79707(9)
C10_3 C 0.3832(2) 0.6168(2) 0.7500
H5_3 H 0.4440 0.5560 0.7500
C11_2 C 0.4078(2) 0.6336(3) 0.84768(10)
O4_2 O 0.0372(2) 0.90525(19) 0.70988(8)
O5_2 O 0.3007(2) 0.5972(2) 0.61221(7)
O6_2 O 0.4664(2) 0.5330(2) 0.65209(7)
C12_2 C 0.2352(3) 0.7414(3) 0.70331(9)
H6_2 H 0.1958 0.7631 0.6721
C13_2 C 0.3273(2) 0.6520(2) 0.70293(9)
C14_2 C 0.3664(3) 0.5922(2) 0.65232(10)
Zn3 Zn 0.45659(3) 0.45906(3) 0.579250(8)
N2_2 N 0.8069(3) 0.1881(3) 0.88179(9)
N3_2 N 0.8604(2) 0.1427(2) 0.77663(7)
N4_3 N 0.71961(19) 0.28039(19) 0.7500
C1_2 C 0.7834(4) 0.2171(4) 0.93163(11)
H1_2 H 0.8160 0.1680 0.9583
C2_2 C 0.7112(3) 0.3188(3) 0.94499(11)
H2_2 H 0.7003 0.3386 0.9803
C3_2 C 0.6794(3) 0.3591(3) 0.85840(10)
H3_2 H 0.6447 0.4066 0.8317
C4_2 C 0.7534(3) 0.2584(3) 0.84534(10)
C5_2 C 0.7776(3) 0.2282(3) 0.79066(10)
N5_2 N 0.6114(2) 0.3426(2) 0.59172(8)
N6_2 N 0.8119(3) 0.1931(3) 0.61821(9)
N7_2 N 0.8573(2) 0.1396(2) 0.72337(7)
C15_2 C 0.7829(4) 0.2166(4) 0.56837(11)
H7_2 H 0.8320 0.1840 0.5417
C16_2 C 0.6812(3) 0.2888(3) 0.55501(11)
H8_2 H 0.6614 0.2997 0.5197
C17_2 C 0.6409(3) 0.3206(3) 0.64160(10)
H9_2 H 0.5934 0.3553 0.6683
C18_2 C 0.7416(3) 0.2466(3) 0.65466(10)
C19_2 C 0.7718(3) 0.2224(3) 0.70934(10)
Zn2_2 Zn 0.95659(3) 0.04094(3) 0.670750(8)
O7_2 O 0.8007(2) 0.9028(2) 0.63779(7)
O9_2 O 0.9664(2) 0.9670(2) 0.59791(7)
Zn3_2 Zn 0.04094(3) 0.95659(3) 0.329250(8)
O1_3 O 0.5372(2) 0.59475(19) 0.54012(8)
N2_3 N 0.3119(3) 0.3069(3) 0.63179(9)
N3_3 N 0.3573(2) 0.3604(2) 0.52663(7)
N4_4 N 0.21961(19) 0.21961(19) 0.5000
C1_3 C 0.2829(4) 0.2834(4) 0.68163(11)
H1_3 H 0.3320 0.3160 0.7083
C2_3 C 0.1812(3) 0.2112(3) 0.69499(11)
H2_3 H 0.1614 0.2003 0.7303
C3_3 C 0.1409(3) 0.1794(3) 0.60840(10)
H3_3 H 0.0934 0.1447 0.5817
C4_3 C 0.2416(3) 0.2534(3) 0.59534(10)
C5_3 C 0.2718(3) 0.2776(3) 0.54066(10)
C6_4 C 0.6038(2) 0.6038(2) 0.5000
C7_4 C 0.7017(2) 0.7017(2) 0.5000
C8_3 C 0.7352(3) 0.7586(3) 0.54669(9)
H4_3 H 0.6958 0.7369 0.5779
C9_3 C 0.8273(2) 0.8480(2) 0.54707(9)
C10_4 C 0.8832(2) 0.8832(2) 0.5000
H5_4 H 0.9440 0.9440 0.5000
C11_3 C 0.8664(3) 0.9078(2) 0.59768(10)
O4_3 O 0.59475(19) 0.5372(2) 0.45988(8)
O5_3 O 0.9028(2) 0.8007(2) 0.36221(7)
O6_3 O 0.9670(2) 0.9664(2) 0.40209(7)
C12_3 C 0.7586(3) 0.7352(3) 0.45331(9)
H6_3 H 0.7369 0.6958 0.4221
C13_3 C 0.8480(2) 0.8273(2) 0.45293(9)
C14_3 C 0.9078(2) 0.8664(3) 0.40232(10)
N5_3 N 0.1574(2) 0.1114(2) 0.34172(8)
N6_3 N 0.3069(3) 0.3119(3) 0.36821(9)
N7_3 N 0.3604(2) 0.3573(2) 0.47337(7)
C15_3 C 0.2834(4) 0.2829(4) 0.31837(11)
H7_3 H 0.3160 0.3320 0.2917
C16_3 C 0.2112(3) 0.1812(3) 0.30501(11)
H8_3 H 0.2003 0.1614 0.2697
C17_3 C 0.1794(3) 0.1409(3) 0.39160(10)
H9_3 H 0.1447 0.0934 0.4183
C18_3 C 0.2534(3) 0.2416(3) 0.40466(10)
C19_3 C 0.2776(3) 0.2718(3) 0.45934(10)
Zn2_3 Zn 0.45906(3) 0.45659(3) 0.420750(8)
O7_3 O 0.5972(2) 0.3007(2) 0.38779(7)
O9_3 O 0.5330(2) 0.4664(2) 0.34791(7)
N8_3 N 0.3426(2) 0.6114(2) 0.40828(8)
N2_4 N 0.1931(3) 0.8119(3) 0.38179(9)
N3_4 N 0.1396(2) 0.8573(2) 0.27663(7)
N4_5 N 0.28039(19) 0.71961(19) 0.2500
C1_4 C 0.2166(4) 0.7829(4) 0.43163(11)
H1_4 H 0.1840 0.8320 0.4583
C2_4 C 0.2888(3) 0.6812(3) 0.44499(11)
H2_4 H 0.2997 0.6614 0.4803
C3_4 C 0.3206(3) 0.6409(3) 0.35840(10)
H3_4 H 0.3553 0.5934 0.3317
C4_4 C 0.2466(3) 0.7416(3) 0.34534(10)
C5_4 C 0.2224(3) 0.7718(3) 0.29066(10)
N6_4 N 0.1881(3) 0.8069(3) 0.11821(9)
N7_4 N 0.1427(2) 0.8604(2) 0.22337(7)
C15_4 C 0.2171(4) 0.7834(4) 0.06837(11)
H7_4 H 0.1680 0.8160 0.0417
C16_4 C 0.3188(3) 0.7112(3) 0.05501(11)
H8_4 H 0.3386 0.7003 0.0197
C17_4 C 0.3591(3) 0.6794(3) 0.14160(10)
H9_4 H 0.4066 0.6447 0.1683
C18_4 C 0.2584(3) 0.7534(3) 0.15466(10)
C19_4 C 0.2282(3) 0.7776(3) 0.20934(10)
O1_4 O 0.90525(19) 0.0372(2) 0.29012(8)
C6_5 C 0.8962(2) 0.1038(2) 0.2500
C7_5 C 0.7983(2) 0.2017(2) 0.2500
C8_4 C 0.7414(3) 0.2352(3) 0.29669(9)
H4_4 H 0.7631 0.1958 0.3279
C9_4 C 0.6520(2) 0.3273(2) 0.29707(9)
C10_5 C 0.6168(2) 0.3832(2) 0.2500
H5_5 H 0.5560 0.4440 0.2500
C11_4 C 0.5922(2) 0.3664(3) 0.34768(10)
O4_4 O 0.9628(2) 0.09475(19) 0.20988(8)
C12_4 C 0.7648(3) 0.2586(3) 0.20331(9)
H6_4 H 0.8042 0.2369 0.1721
C13_4 C 0.6727(2) 0.3480(2) 0.20293(9)
C14_4 C 0.6336(3) 0.4078(2) 0.15232(10)
loop_
_geom_bond_atom_site_label_1
_geom_bond_atom_site_label_2
_geom_bond_site_symmetry_1
_geom_bond_site_symmetry_2
Zn1 O1 1_555 1_555
O1 C6 1_555 1_555
O2 C11 1_555 1_555
O3 C11 1_555 1_555
N1 C2 1_555 1_555
N2 C1 1_555 1_555
N3 Zn1 1_555 1_555
N4 C5 1_555 1_555
C1 H1 1_555 1_555
C2 C1 1_555 1_555
H2 C2 1_555 1_555
C3 N1 1_555 1_555
H3 C3 1_555 1_555
C4 N2 1_555 1_555
C5 N3 1_555 1_555
C6 C7 1_555 1_555
C7 C8 1_555 1_555
C8 H4 1_555 1_555
C9 C8 1_555 1_555
C10 C9 1_555 1_555
H5 C10 1_555 1_555
C11 C9 1_555 1_555
O8 Zn1 1_555 1_555
O10 Zn1 1_555 1_555
N9 Zn1 1_555 1_555
C3 C4 1_555 1_555
C4 C5 1_555 1_555
C6_2 C7_2 1_555 1_555
H5_2 C10_2 1_555 1_555
O4 C6_2 1_555 1_555
O5 C14 1_555 1_555
O6 C14 1_555 1_555
C12 C7_2 1_555 1_555
H6 C12 1_555 1_555
C13 C10_2 1_555 1_555
C14 C13 1_555 1_555
N5 C16 1_555 1_555
N6 C15 1_555 1_555
C15 H7 1_555 1_555
C16 C15 1_555 1_555
H8 C16 1_555 1_555
C17 N5 1_555 1_555
H9 C17 1_555 1_555
C18 N6 1_555 1_555
C19 N4_2 1_555 1_555
Zn2 O4 1_555 1_555
O7 Zn2 1_555 1_555
O9 Zn2 1_555 1_555
N8 Zn2 1_555 1_555
C12 C13 1_555 1_555
N7 C19 1_555 1_555
N7 Zn2 1_555 1_555
C17 C18 1_555 1_555
C18 C19 1_555 1_555
O1_2 C6_3 1_555 1_555
O7 C11_2 1_555 1_555
O9 C11_2 1_555 1_555
C6_3 C7_3 1_555 1_555
C7_3 C8_2 1_555 1_555
C8_2 H4_2 1_555 1_555
C9_2 C8_2 1_555 1_555
C10_3 C9_2 1_555 1_555
H5_3 C10_3 1_555 1_555
C11_2 C9_2 1_555 1_555
O4_2 C6_3 1_555 1_555
O5_2 C14_2 1_555 1_555
O6_2 C14_2 1_555 1_555
C12_2 C7_3 1_555 1_555
H6_2 C12_2 1_555 1_555
C13_2 C10_3 1_555 1_555
C14_2 C13_2 1_555 1_555
Zn3 O5_2 1_555 1_555
O6_2 Zn3 1_555 1_555
C12_2 C13_2 1_555 1_555
N8 C2_2 1_555 1_555
N2_2 C1_2 1_555 1_555
N3_2 Zn4 1_555 1_555
N4_3 C5_2 1_555 1_555
C1_2 H1_2 1_555 1_555
C2_2 C1_2 1_555 1_555
H2_2 C2_2 1_555 1_555
C3_2 N8 1_555 1_555
H3_2 C3_2 1_555 1_555
C4_2 N2_2 1_555 1_555
C5_2 N3_2 1_555 1_555
N5_2 C16_2 1_555 1_555
N6_2 C15_2 1_555 1_555
N7_2 N3_2 1_555 1_555
C15_2 H7_2 1_555 1_555
C16_2 C15_2 1_555 1_555
H8_2 C16_2 1_555 1_555
C17_2 N5_2 1_555 1_555
H9_2 C17_2 1_555 1_555
C18_2 N6_2 1_555 1_555
C19_2 N4_3 1_555 1_555
Zn3 N5_2 1_555 1_555
C3_2 C4_2 1_555 1_555
C4_2 C5_2 1_555 1_555
N7_2 C19_2 1_555 1_555
N7_2 Zn2_2 1_555 1_555
C17_2 C18_2 1_555 1_555
C18_2 C19_2 1_555 1_555
Zn3 O1_3 1_555 1_555
O1_3 C6_4 1_555 1_555
O7_2 C11_3 1_555 1_555
O9_2 C11_3 1_555 1_555
N8_2 C2_3 1_555 1_555
N2_3 C1_3 1_555 1_555
N3_3 Zn3 1_555 1_555
N4_4 C5_3 1_555 1_555
C1_3 H1_3 1_555 1_555
C2_3 C1_3 1_555 1_555
H2_3 C2_3 1_555 1_555
C3_3 N8_2 1_555 1_555
H3_3 C3_3 1_555 1_555
C4_3 N2_3 1_555 1_555
C5_3 N3_3 1_555 1_555
C6_4 C7_4 1_555 1_555
C7_4 C8_3 1_555 1_555
C8_3 H4_3 1_555 1_555
C9_3 C8_3 1_555 1_555
C10_4 C9_3 1_555 1_555
H5_4 C10_4 1_555 1_555
C11_3 C9_3 1_555 1_555
O4_3 C6_4 1_555 1_555
O5_3 C14_3 1_555 1_555
O6_3 C14_3 1_555 1_555
C12_3 C7_4 1_555 1_555
H6_3 C12_3 1_555 1_555
C13_3 C10_4 1_555 1_555
C14_3 C13_3 1_555 1_555
N5_3 C16_3 1_555 1_555
N6_3 C15_3 1_555 1_555
N7_3 N3_3 1_555 1_555
C15_3 H7_3 1_555 1_555
C16_3 C15_3 1_555 1_555
H8_3 C16_3 1_555 1_555
C17_3 N5_3 1_555 1_555
H9_3 C17_3 1_555 1_555
C18_3 N6_3 1_555 1_555
C19_3 N4_4 1_555 1_555
Zn2_3 O4_3 1_555 1_555
O7_3 Zn2_3 1_555 1_555
O9_3 Zn2_3 1_555 1_555
N8_3 Zn2_3 1_555 1_555
C3_3 C4_3 1_555 1_555
C4_3 C5_3 1_555 1_555
C12_3 C13_3 1_555 1_555
N7_3 C19_3 1_555 1_555
N7_3 Zn2_3 1_555 1_555
C17_3 C18_3 1_555 1_555
C18_3 C19_3 1_555 1_555
N8_3 C2_4 1_555 1_555
N2_4 C1_4 1_555 1_555
N3_4 Zn3_2 1_555 1_555
N4_5 C5_4 1_555 1_555
C1_4 H1_4 1_555 1_555
C2_4 C1_4 1_555 1_555
H2_4 C2_4 1_555 1_555
C3_4 N8_3 1_555 1_555
H3_4 C3_4 1_555 1_555
C4_4 N2_4 1_555 1_555
C5_4 N3_4 1_555 1_555
N9 C16_4 1_555 1_555
N6_4 C15_4 1_555 1_555
N7_4 N3_4 1_555 1_555
C15_4 H7_4 1_555 1_555
C16_4 C15_4 1_555 1_555
H8_4 C16_4 1_555 1_555
C17_4 N9 1_555 1_555
H9_4 C17_4 1_555 1_555
C18_4 N6_4 1_555 1_555
C19_4 N4_5 1_555 1_555
C3_4 C4_4 1_555 1_555
C4_4 C5_4 1_555 1_555
N7_4 C19_4 1_555 1_555
N7_4 Zn6 1_555 1_555
C17_4 C18_4 1_555 1_555
C18_4 C19_4 1_555 1_555
O1_4 C6_5 1_555 1_555
O7_3 C11_4 1_555 1_555
O9_3 C11_4 1_555 1_555
C6_5 C7_5 1_555 1_555
C7_5 C8_4 1_555 1_555
C8_4 H4_4 1_555 1_555
C9_4 C8_4 1_555 1_555
C10_5 C9_4 1_555 1_555
H5_5 C10_5 1_555 1_555
C11_4 C9_4 1_555 1_555
O4_4 C6_5 1_555 1_555
O8 C14_4 1_555 1_555
O10 C14_4 1_555 1_555
C12_4 C7_5 1_555 1_555
H6_4 C12_4 1_555 1_555
C13_4 C10_5 1_555 1_555
C14_4 C13_4 1_555 1_555
C12_4 C13_4 1_555 1_555

#END
