
###############################################################################
#
# This file contains modified crystal structure data generated from the
# MOF subset of the Cambridge Structural Database (CSD) v543 
# hosted by the Cambridge Crystallographic Data Centre (CCDC).
#
# This work is licensed under the Creative Commons
# Attribution-NonCommercial-ShareAlike 4.0 International License.
# To view a copy of this license, visit
# http://creativecommons.org/licenses/by-nc-sa/4.0/
# or send a letter to
# Creative Commons, PO Box 1866, Mountain View, CA 94042, USA.
#
# CIF created using the CSD Python API on 29 September 2022
# The structure has been converted into the P1 space group
# The structure has a 3D framework
# The original CSD entry HICVUM is in the monoclinic crystal system
# The framework has been calculated to contain at least 10.0% void space
# The void calculation uses a probe of radius 1.32A, grid spacing 0.4
# H atom positions have been added when not included in the experimental data
#
###############################################################################

data_HICVUM
_chemical_formula_moiety         '(C152 H88 Cd20 N56 O56)n'
_symmetry_cell_setting           triclinic
_symmetry_space_group_name_H-M   'P 1'
_symmetry_Int_Tables_number      1
_space_group_name_Hall           'P 1'
loop_
_symmetry_equiv_pos_site_id
_symmetry_equiv_pos_as_xyz
1 x,y,z
_cell_length_a                   20.730(8)
_cell_length_b                   14.751(5)
_cell_length_c                   20.709(8)
_cell_angle_alpha                90
_cell_angle_beta                 97.174(4)
_cell_angle_gamma                90
_cell_volume                     6282.99
loop_
_atom_site_label
_atom_site_type_symbol
_atom_site_fract_x
_atom_site_fract_y
_atom_site_fract_z
Cd1 Cd 0.43240(2) 0.49859(3) 0.17921(2)
Cd2 Cd 0.45381(2) 0.00001(3) 0.10118(2)
C1 C 0.4730(3) 0.3116(4) 0.1293(3)
H1 H 0.4910 0.3541 0.1036
N1 N 0.4465(3) 0.3394(4) 0.1814(3)
C2 C 0.4264(3) 0.1851(4) 0.2032(3)
H2 H 0.4106 0.1424 0.2303
N2 N 0.4515(3) 0.1562(4) 0.1506(3)
C3 C 0.4230(3) 0.2745(5) 0.2189(3)
H3 H 0.4043 0.2914 0.2556
C4 C 0.4742(3) 0.2202(4) 0.1126(3)
N3 N 0.4992(3) 0.1052(3) 0.0352(3)
C5 C 0.4964(3) 0.1919(4) 0.0528(3)
N4 N 0.5135(3) 0.2513(4) 0.0083(3)
C6 C 0.2897(4) 0.5123(4) 0.3535(3)
H4 H 0.2691 0.5109 0.3110
O1 O 0.3621(3) 0.4985(4) 0.2525(3)
C7 C 0.3959(4) 0.5063(4) 0.3068(3)
C8 C 0.3582(3) 0.5115(4) 0.3653(4)
O2 O 0.4556(3) 0.5089(3) 0.3141(3)
C12 C 0.1795(4) 0.5116(4) 0.3937(4)
C13 C 0.3522(3) 0.5150(4) 0.4808(3)
C14 C 0.3891(3) 0.5126(4) 0.4286(3)
H6 H 0.4342 0.5117 0.4364
C15 C 0.2841(3) 0.5164(5) 0.4684(3)
H7 H 0.2596 0.5183 0.5030
C16 C 0.2530(3) 0.5152(4) 0.4049(4)
O3 O 0.4441(2) 0.5062(3) 0.5633(2)
O4 O 0.1514(3) 0.5042(3) 0.3366(3)
O5 O 0.1496(3) 0.5162(4) 0.4428(3)
C19 C 0.3841(3) 0.5126(4) 0.5504(3)
O7 O 0.3469(3) 0.5171(4) 0.5952(2)
Cd3 Cd 0.56760(2) 0.49859(3) 0.32079(2)
Cd5 Cd 0.43240(2) 0.50141(3) 0.67921(2)
Cd6 Cd 0.04619(2) 0.50001(3) 0.39882(2)
O8 O 0.5444(3) 0.5089(3) 0.1859(3)
N9 N 0.4361(3) 0.6580(4) 0.1730(3)
O9 O 0.4441(2) 0.4938(3) 0.0633(2)
O10 O 0.3486(3) 0.0042(3) 0.1634(3)
O11 O 0.3504(3) 0.0162(4) 0.0572(3)
O12 O 0.3469(3) 0.4829(4) 0.0952(2)
N5 N 0.5173(3) 0.1061(4) 0.9745(3)
C9 C 0.5459(3) 0.3128(5) 0.8819(4)
H5 H 0.5331 0.3551 0.9112
C10 C 0.5452(3) 0.2223(5) 0.8980(3)
C11 C 0.5261(4) 0.1938(4) 0.9607(3)
N6 N 0.5639(3) 0.3420(4) 0.8270(3)
N7 N 0.5601(3) 0.1574(4) 0.8575(3)
C17 C 0.5792(4) 0.2766(5) 0.7856(4)
H8 H 0.5913 0.2935 0.7456
C18 C 0.5773(4) 0.1860(5) 0.8008(4)
H9 H 0.5884 0.1435 0.7709
Cd4 Cd 0.56760(2) 0.50141(3) 0.82079(2)
Cd7 Cd 0.54619(2) -0.00001(3) 0.89882(2)
Cd2_2 Cd 0.45381(2) 1.00001(3) 0.10118(2)
O6 O 0.5479(3) 0.9864(3) 0.1719(3)
N8 N 0.4827(3) 0.8939(4) 0.0255(3)
N10 N 0.4399(3) 0.8426(4) 0.1425(3)
H10 H 0.538001 0.994379 0.217249
H11 H 0.567003 0.925396 0.167141
Cd7_2 Cd 0.54619(2) 0.99999(3) 0.89882(2)
Cd2_3 Cd 0.54619(2) 0.00001(3) 0.39882(2)
C1_2 C 0.5270(3) 0.3116(4) 0.3707(3)
H1_2 H 0.5090 0.3541 0.3964
N1_2 N 0.5535(3) 0.3394(4) 0.3186(3)
C2_2 C 0.5736(3) 0.1851(4) 0.2968(3)
H2_2 H 0.5894 0.1424 0.2697
N2_2 N 0.5485(3) 0.1562(4) 0.3494(3)
C3_2 C 0.5770(3) 0.2745(5) 0.2811(3)
H3_2 H 0.5957 0.2914 0.2444
C4_2 C 0.5258(3) 0.2202(4) 0.3874(3)
N3_2 N 0.5008(3) 0.1052(3) 0.4648(3)
C5_2 C 0.5036(3) 0.1919(4) 0.4472(3)
N4_2 N 0.4865(3) 0.2513(4) 0.4917(3)
C6_2 C 0.7103(4) 0.5123(4) 0.1465(3)
H4_2 H 0.7309 0.5109 0.1890
O1_2 O 0.6379(3) 0.4985(4) 0.2475(3)
C7_2 C 0.6041(4) 0.5063(4) 0.1932(3)
C8_2 C 0.6418(3) 0.5115(4) 0.1347(4)
N5_2 N 0.4827(3) 0.1061(4) 0.5255(3)
C9_2 C 0.4541(3) 0.3128(5) 0.6181(4)
H5_2 H 0.4669 0.3551 0.5888
C10_2 C 0.4548(3) 0.2223(5) 0.6020(3)
C11_2 C 0.4739(4) 0.1938(4) 0.5393(3)
C12_2 C 0.8205(4) 0.5116(4) 0.1063(4)
C13_2 C 0.6478(3) 0.5150(4) 0.0192(3)
C14_2 C 0.6109(3) 0.5126(4) 0.0714(3)
H6_2 H 0.5658 0.5117 0.0636
C15_2 C 0.7159(3) 0.5164(5) 0.0316(3)
N6_2 N 0.4361(3) 0.3420(4) 0.6730(3)
C16_2 C 0.7470(3) 0.5152(4) 0.0951(4)
N7_2 N 0.4399(3) 0.1574(4) 0.6425(3)
C17_2 C 0.4208(4) 0.2766(5) 0.7144(4)
H8_2 H 0.4087 0.2935 0.7544
C18_2 C 0.4227(4) 0.1860(5) 0.6992(4)
H9_2 H 0.4116 0.1435 0.7291
O4_2 O 0.8486(3) 0.5042(3) 0.1634(3)
O5_2 O 0.8504(3) 0.5162(4) 0.0572(3)
Cd6_2 Cd 0.95381(2) 0.50001(3) 0.10118(2)
Cd7_3 Cd 0.45381(2) -0.00001(3) 0.60118(2)
N9_2 N 0.5639(3) 0.6580(4) 0.3270(3)
O9_2 O 0.5559(2) 0.4938(3) 0.4367(2)
O10_2 O 0.6514(3) 0.0042(3) 0.3366(3)
O11_2 O 0.6496(3) 0.0162(4) 0.4428(3)
O12_2 O 0.6531(3) 0.4829(4) 0.4048(2)
H7_2 H 0.7404 0.5183 0.9970
O3_2 O 0.5559(2) 0.5062(3) 0.9367(2)
C19_2 C 0.6159(3) 0.5126(4) 0.9496(3)
O7_2 O 0.6531(3) 0.5171(4) 0.9048(2)
Cd2_4 Cd 0.54619(2) 1.00001(3) 0.39882(2)
O6_2 O 0.4521(3) 0.9864(3) 0.3281(3)
Cd7_4 Cd 0.45381(2) 0.99999(3) 0.60118(2)
N8_2 N 0.5173(3) 0.8939(4) 0.4745(3)
N10_2 N 0.5601(3) 0.8426(4) 0.3575(3)
H10_2 H 0.461999 0.994379 0.282751
H11_2 H 0.432997 0.925396 0.332859
O8_2 O 0.0444(3) 0.0089(3) 0.1859(3)
Cd4_2 Cd 0.06760(2) 0.00141(3) 0.82079(2)
N4_3 N 0.0135(3) 0.7513(4) 0.0083(3)
O6_3 O 0.0479(3) 0.4864(3) 0.1719(3)
Cd3_2 Cd 0.06760(2) 0.99859(3) 0.32079(2)
H10_3 H 0.0380014 0.494379 0.217249
H11_3 H 0.0670026 0.425396 0.167141
N5_3 N 0.0173(3) 0.6061(4) 0.9745(3)
C9_3 C 0.0459(3) 0.8128(5) 0.8819(4)
H5_3 H 0.0331 0.8551 0.9112
C10_3 C 0.0452(3) 0.7223(5) 0.8980(3)
C11_3 C 0.0261(4) 0.6938(4) 0.9607(3)
N6_3 N 0.0639(3) 0.8420(4) 0.8270(3)
N7_3 N 0.0601(3) 0.6574(4) 0.8575(3)
C17_3 C 0.0792(4) 0.7766(5) 0.7856(4)
H8_3 H 0.0913 0.7935 0.7456
C18_3 C 0.0773(4) 0.6860(5) 0.8008(4)
H9_3 H 0.0884 0.6435 0.7709
Cd7_5 Cd 0.04619(2) 0.49999(3) 0.89882(2)
C6_3 C 0.7897(4) 0.0123(4) 0.3535(3)
H4_3 H 0.7691 0.0109 0.3110
C7_3 C 0.8959(4) 0.0063(4) 0.3068(3)
C8_3 C 0.8582(3) 0.0115(4) 0.3653(4)
O2_2 O 0.9556(3) 0.0089(3) 0.3141(3)
C12_3 C 0.6795(4) 0.0116(4) 0.3937(4)
C13_3 C 0.8522(3) 0.0150(4) 0.4808(3)
C14_3 C 0.8891(3) 0.0126(4) 0.4286(3)
H6_3 H 0.9342 0.0117 0.4364
C15_3 C 0.7841(3) 0.0164(5) 0.4684(3)
H7_3 H 0.7596 0.0183 0.5030
C16_3 C 0.7530(3) 0.0152(4) 0.4049(4)
O3_3 O 0.9441(2) 0.0062(3) 0.5633(2)
C19_3 C 0.8841(3) 0.0126(4) 0.5504(3)
O7_3 O 0.8469(3) 0.0171(4) 0.5952(2)
Cd5_2 Cd 0.93240(2) 0.00141(3) 0.67921(2)
N9_3 N 0.9361(3) 0.1580(4) 0.1730(3)
Cd1_2 Cd 0.93240(2) 0.99859(3) 0.17921(2)
C1_3 C 0.9730(3) 0.8116(4) 0.1293(3)
H1_3 H 0.9910 0.8541 0.1036
N1_3 N 0.9465(3) 0.8394(4) 0.1814(3)
C2_3 C 0.9264(3) 0.6851(4) 0.2032(3)
H2_3 H 0.9106 0.6424 0.2303
N2_3 N 0.9515(3) 0.6562(4) 0.1506(3)
C3_3 C 0.9230(3) 0.7745(5) 0.2189(3)
H3_3 H 0.9043 0.7914 0.2556
C4_3 C 0.9742(3) 0.7202(4) 0.1126(3)
N3_3 N 0.9992(3) 0.6052(3) 0.0352(3)
C5_3 C 0.9964(3) 0.6919(4) 0.0528(3)
O1_3 O 0.8621(3) 0.9985(4) 0.2525(3)
N8_3 N 0.9827(3) 0.3939(4) 0.0255(3)
N10_3 N 0.9399(3) 0.3426(4) 0.1425(3)
O9_3 O 0.9441(2) 0.9938(3) 0.0633(2)
O12_3 O 0.8469(3) 0.9829(4) 0.0952(2)
C6_4 C 0.2103(4) 0.0123(4) 0.1465(3)
H4_4 H 0.2309 0.0109 0.1890
C7_4 C 0.1041(4) 0.0063(4) 0.1932(3)
C8_4 C 0.1418(3) 0.0115(4) 0.1347(4)
C12_4 C 0.3205(4) 0.0116(4) 0.1063(4)
C13_4 C 0.1478(3) 0.0150(4) 0.0192(3)
C14_4 C 0.1109(3) 0.0126(4) 0.0714(3)
H6_4 H 0.0658 0.0117 0.0636
C15_4 C 0.2159(3) 0.0164(5) 0.0316(3)
C16_4 C 0.2470(3) 0.0152(4) 0.0951(4)
N9_4 N 0.0639(3) 0.1580(4) 0.3270(3)
H7_4 H 0.2404 0.0183 0.9970
O3_4 O 0.0559(2) 0.0062(3) 0.9367(2)
C19_4 C 0.1159(3) 0.0126(4) 0.9496(3)
O7_4 O 0.1531(3) 0.0171(4) 0.9048(2)
C1_4 C 0.0270(3) 0.8116(4) 0.3707(3)
H1_4 H 0.0090 0.8541 0.3964
N1_4 N 0.0535(3) 0.8394(4) 0.3186(3)
C2_4 C 0.0736(3) 0.6851(4) 0.2968(3)
H2_4 H 0.0894 0.6424 0.2697
N2_4 N 0.0485(3) 0.6562(4) 0.3494(3)
C3_4 C 0.0770(3) 0.7745(5) 0.2811(3)
H3_4 H 0.0957 0.7914 0.2444
C4_4 C 0.0258(3) 0.7202(4) 0.3874(3)
N3_4 N 0.0008(3) 0.6052(3) 0.4648(3)
C5_4 C 0.0036(3) 0.6919(4) 0.4472(3)
O1_4 O 0.1379(3) 0.9985(4) 0.2475(3)
N8_4 N 0.0173(3) 0.3939(4) 0.4745(3)
N10_4 N 0.0601(3) 0.3426(4) 0.3575(3)
O9_4 O 0.0559(2) 0.9938(3) 0.4367(2)
O12_4 O 0.1531(3) 0.9829(4) 0.4048(2)
N4_4 N 0.9865(3) 0.7513(4) 0.4917(3)
N5_4 N 0.9827(3) 0.6061(4) 0.5255(3)
C9_4 C 0.9541(3) 0.8128(5) 0.6181(4)
H5_4 H 0.9669 0.8551 0.5888
C10_4 C 0.9548(3) 0.7223(5) 0.6020(3)
C11_4 C 0.9739(4) 0.6938(4) 0.5393(3)
N6_4 N 0.9361(3) 0.8420(4) 0.6730(3)
N7_4 N 0.9399(3) 0.6574(4) 0.6425(3)
C17_4 C 0.9208(4) 0.7766(5) 0.7144(4)
H8_4 H 0.9087 0.7935 0.7544
C18_4 C 0.9227(4) 0.6860(5) 0.6992(4)
H9_4 H 0.9116 0.6435 0.7291
O6_4 O 0.9521(3) 0.4864(3) 0.3281(3)
Cd7_6 Cd 0.95381(2) 0.49999(3) 0.60118(2)
H10_4 H 0.961999 0.494379 0.282751
H11_4 H 0.932997 0.425396 0.332859
O6_5 O 0.4521(3) 0.0136(3) 0.8281(3)
H10_5 H 0.461999 0.0056212 0.782751
H11_5 H 0.432997 0.0746045 0.832859
C9_5 C 0.4541(3) 0.6872(5) 0.1181(4)
H5_5 H 0.4669 0.6449 0.0888
C10_5 C 0.4548(3) 0.7777(5) 0.1020(3)
C11_5 C 0.4739(4) 0.8062(4) 0.0393(3)
C17_5 C 0.4208(4) 0.7234(5) 0.2144(4)
H8_5 H 0.4087 0.7065 0.2544
C18_5 C 0.4227(4) 0.8140(5) 0.1992(4)
H9_5 H 0.4116 0.8565 0.2291
C1_5 C 0.5270(3) 0.6884(4) 0.8707(3)
H1_5 H 0.5090 0.6459 0.8964
N1_5 N 0.5535(3) 0.6606(4) 0.8186(3)
C2_5 C 0.5736(3) 0.8149(4) 0.7968(3)
H2_5 H 0.5894 0.8576 0.7697
N2_5 N 0.5485(3) 0.8438(4) 0.8494(3)
C3_5 C 0.5770(3) 0.7255(5) 0.7811(3)
H3_5 H 0.5957 0.7086 0.7444
C4_5 C 0.5258(3) 0.7798(4) 0.8874(3)
N3_5 N 0.5008(3) 0.8948(3) 0.9648(3)
C5_5 C 0.5036(3) 0.8081(4) 0.9472(3)
N4_5 N 0.4865(3) 0.7487(4) 0.9917(3)
C6_5 C 0.7103(4) 0.4877(4) 0.6465(3)
H4_5 H 0.7309 0.4891 0.6890
O1_5 O 0.6379(3) 0.5015(4) 0.7475(3)
C7_5 C 0.6041(4) 0.4937(4) 0.6932(3)
C8_5 C 0.6418(3) 0.4885(4) 0.6347(4)
O2_3 O 0.5444(3) 0.4911(3) 0.6859(3)
C12_5 C 0.8205(4) 0.4884(4) 0.6063(4)
C13_5 C 0.6478(3) 0.4850(4) 0.5192(3)
C14_5 C 0.6109(3) 0.4874(4) 0.5714(3)
H6_5 H 0.5658 0.4883 0.5636
C15_5 C 0.7159(3) 0.4836(5) 0.5316(3)
H7_5 H 0.7404 0.4817 0.4970
C16_5 C 0.7470(3) 0.4848(4) 0.5951(4)
O4_3 O 0.8486(3) 0.4958(3) 0.6634(3)
O5_3 O 0.8504(3) 0.4838(4) 0.5572(3)
C19_5 C 0.6159(3) 0.4874(4) 0.4496(3)
O8_3 O 0.4556(3) 0.4911(3) 0.8141(3)
O10_3 O 0.6514(3) 0.9958(3) 0.8366(3)
O11_3 O 0.6496(3) 0.9838(4) 0.9428(3)
O6_6 O 0.5479(3) 0.0136(3) 0.6719(3)
H10_6 H 0.538001 0.0056212 0.717249
H11_6 H 0.567003 0.0746045 0.667141
H7_6 H 0.2596 0.4817 0.0030
C19_6 C 0.3841(3) 0.4874(4) 0.0504(3)
C1_6 C 0.4730(3) 0.6884(4) 0.6293(3)
H1_6 H 0.4910 0.6459 0.6036
N1_6 N 0.4465(3) 0.6606(4) 0.6814(3)
C2_6 C 0.4264(3) 0.8149(4) 0.7032(3)
H2_6 H 0.4106 0.8576 0.7303
N2_6 N 0.4515(3) 0.8438(4) 0.6506(3)
C3_6 C 0.4230(3) 0.7255(5) 0.7189(3)
H3_6 H 0.4043 0.7086 0.7556
C4_6 C 0.4742(3) 0.7798(4) 0.6126(3)
N3_6 N 0.4992(3) 0.8948(3) 0.5352(3)
C5_6 C 0.4964(3) 0.8081(4) 0.5528(3)
N4_6 N 0.5135(3) 0.7487(4) 0.5083(3)
C6_6 C 0.2897(4) 0.4877(4) 0.8535(3)
H4_6 H 0.2691 0.4891 0.8110
O1_6 O 0.3621(3) 0.5015(4) 0.7525(3)
C7_6 C 0.3959(4) 0.4937(4) 0.8068(3)
C8_6 C 0.3582(3) 0.4885(4) 0.8653(4)
C9_6 C 0.5459(3) 0.6872(5) 0.3819(4)
H5_6 H 0.5331 0.6449 0.4112
C10_6 C 0.5452(3) 0.7777(5) 0.3980(3)
C11_6 C 0.5261(4) 0.8062(4) 0.4607(3)
C12_6 C 0.1795(4) 0.4884(4) 0.8937(4)
C13_6 C 0.3522(3) 0.4850(4) 0.9808(3)
C14_6 C 0.3891(3) 0.4874(4) 0.9286(3)
H6_6 H 0.4342 0.4883 0.9364
C15_6 C 0.2841(3) 0.4836(5) 0.9684(3)
C16_6 C 0.2530(3) 0.4848(4) 0.9049(4)
C17_6 C 0.5792(4) 0.7234(5) 0.2856(4)
H8_6 H 0.5913 0.7065 0.2456
C18_6 C 0.5773(4) 0.8140(5) 0.3008(4)
H9_6 H 0.5884 0.8565 0.2709
O4_4 O 0.1514(3) 0.4958(3) 0.8366(3)
O5_4 O 0.1496(3) 0.4838(4) 0.9428(3)
O10_4 O 0.3486(3) 0.9958(3) 0.6634(3)
O11_4 O 0.3504(3) 0.9838(4) 0.5572(3)
C1_7 C 0.0270(3) 0.1884(4) 0.8707(3)
H1_7 H 0.0090 0.1459 0.8964
N1_7 N 0.0535(3) 0.1606(4) 0.8186(3)
C2_7 C 0.0736(3) 0.3149(4) 0.7968(3)
H2_7 H 0.0894 0.3576 0.7697
N2_7 N 0.0485(3) 0.3438(4) 0.8494(3)
C3_7 C 0.0770(3) 0.2255(5) 0.7811(3)
H3_7 H 0.0957 0.2086 0.7444
C4_7 C 0.0258(3) 0.2798(4) 0.8874(3)
N3_7 N 0.0008(3) 0.3948(3) 0.9648(3)
C5_7 C 0.0036(3) 0.3081(4) 0.9472(3)
O1_7 O 0.1379(3) 0.0015(4) 0.7475(3)
C6_7 C 0.2103(4) 0.9877(4) 0.6465(3)
H4_7 H 0.2309 0.9891 0.6890
C7_7 C 0.1041(4) 0.9937(4) 0.6932(3)
C8_7 C 0.1418(3) 0.9885(4) 0.6347(4)
O2_4 O 0.0444(3) 0.9911(3) 0.6859(3)
C12_7 C 0.3205(4) 0.9884(4) 0.6063(4)
C13_7 C 0.1478(3) 0.9850(4) 0.5192(3)
C14_7 C 0.1109(3) 0.9874(4) 0.5714(3)
H6_7 H 0.0658 0.9883 0.5636
C15_7 C 0.2159(3) 0.9836(5) 0.5316(3)
H7_7 H 0.2404 0.9817 0.4970
C16_7 C 0.2470(3) 0.9848(4) 0.5951(4)
C19_7 C 0.1159(3) 0.9874(4) 0.4496(3)
C9_7 C 0.9541(3) 0.1872(5) 0.1181(4)
H5_7 H 0.9669 0.1449 0.0888
C10_7 C 0.9548(3) 0.2777(5) 0.1020(3)
C11_7 C 0.9739(4) 0.3062(4) 0.0393(3)
C17_7 C 0.9208(4) 0.2234(5) 0.2144(4)
H8_7 H 0.9087 0.2065 0.2544
C18_7 C 0.9227(4) 0.3140(5) 0.1992(4)
H9_7 H 0.9116 0.3565 0.2291
N4_7 N 0.9865(3) 0.2487(4) 0.9917(3)
O6_7 O 0.9521(3) 0.5136(3) 0.8281(3)
H10_7 H 0.961999 0.505621 0.782751
H11_7 H 0.932997 0.574604 0.832859
O8_4 O 0.9556(3) 0.9911(3) 0.8141(3)
N4_8 N 0.0135(3) 0.2487(4) 0.5083(3)
C9_8 C 0.0459(3) 0.1872(5) 0.3819(4)
H5_8 H 0.0331 0.1449 0.4112
C10_8 C 0.0452(3) 0.2777(5) 0.3980(3)
C11_8 C 0.0261(4) 0.3062(4) 0.4607(3)
C17_8 C 0.0792(4) 0.2234(5) 0.2856(4)
H8_8 H 0.0913 0.2065 0.2456
C18_8 C 0.0773(4) 0.3140(5) 0.3008(4)
H9_8 H 0.0884 0.3565 0.2709
O6_8 O 0.0479(3) 0.5136(3) 0.6719(3)
H10_8 H 0.0380014 0.505621 0.717249
H11_8 H 0.0670026 0.574604 0.667141
C1_8 C 0.9730(3) 0.1884(4) 0.6293(3)
H1_8 H 0.9910 0.1459 0.6036
N1_8 N 0.9465(3) 0.1606(4) 0.6814(3)
C2_8 C 0.9264(3) 0.3149(4) 0.7032(3)
H2_8 H 0.9106 0.3576 0.7303
N2_8 N 0.9515(3) 0.3438(4) 0.6506(3)
C3_8 C 0.9230(3) 0.2255(5) 0.7189(3)
H3_8 H 0.9043 0.2086 0.7556
C4_8 C 0.9742(3) 0.2798(4) 0.6126(3)
N3_8 N 0.9992(3) 0.3948(3) 0.5352(3)
C5_8 C 0.9964(3) 0.3081(4) 0.5528(3)
O1_8 O 0.8621(3) 0.0015(4) 0.7525(3)
H7_8 H 0.7596 0.9817 0.0030
C19_8 C 0.8841(3) 0.9874(4) 0.0504(3)
C6_8 C 0.7897(4) 0.9877(4) 0.8535(3)
H4_8 H 0.7691 0.9891 0.8110
C7_8 C 0.8959(4) 0.9937(4) 0.8068(3)
C8_8 C 0.8582(3) 0.9885(4) 0.8653(4)
C12_8 C 0.6795(4) 0.9884(4) 0.8937(4)
C13_8 C 0.8522(3) 0.9850(4) 0.9808(3)
C14_8 C 0.8891(3) 0.9874(4) 0.9286(3)
H6_8 H 0.9342 0.9883 0.9364
C15_8 C 0.7841(3) 0.9836(5) 0.9684(3)
C16_8 C 0.7530(3) 0.9848(4) 0.9049(4)
loop_
_geom_bond_atom_site_label_1
_geom_bond_atom_site_label_2
_geom_bond_site_symmetry_1
_geom_bond_site_symmetry_2
Cd1 N1 1_555 1_555
Cd2 N2 1_555 1_555
C1 H1 1_555 1_555
N1 C1 1_555 1_555
C2 H2 1_555 1_555
N2 C2 1_555 1_555
C3 N1 1_555 1_555
H3 C3 1_555 1_555
C4 C1 1_555 1_555
N3 Cd2 1_555 1_555
C5 C4 1_555 1_555
N4 C5 1_555 1_555
C6 H4 1_555 1_555
O1 Cd1 1_555 1_555
C7 O1 1_555 1_555
C8 C6 1_555 1_555
O2 Cd1 1_555 1_555
C12 C16 1_555 1_555
C13 C14 1_555 1_555
C14 C8 1_555 1_555
H6 C14 1_555 1_555
C15 C13 1_555 1_555
H7 C15 1_555 1_555
C16 C6 1_555 1_555
O3 C19 1_555 1_555
O4 C12 1_555 1_555
O5 C12 1_555 1_555
C19 C13 1_555 1_555
O7 C19 1_555 1_555
Cd3 O2 1_555 1_555
Cd5 O3 1_555 1_555
Cd6 O4 1_555 1_555
O8 Cd1 1_555 1_555
N9 Cd1 1_555 1_555
O9 Cd1 1_555 1_555
O10 Cd2 1_555 1_555
O11 Cd2 1_555 1_555
O12 Cd1 1_555 1_555
C2 C3 1_555 1_555
N2 C4 1_555 1_555
N3 C5 1_555 1_555
C7 C8 1_555 1_555
C7 O2 1_555 1_555
C15 C16 1_555 1_555
O5 Cd6 1_555 1_555
O7 Cd5 1_555 1_555
Cd3 O8 1_555 1_555
C9 H5 1_555 1_555
C10 C9 1_555 1_555
N6 C9 1_555 1_555
N7 C10 1_555 1_555
C17 N6 1_555 1_555
H8 C17 1_555 1_555
C18 N7 1_555 1_555
H9 C18 1_555 1_555
Cd4 N6 1_555 1_555
Cd7 N5 1_555 1_555
N5 C11 1_555 1_555
C10 C11 1_555 1_555
N7 Cd7 1_555 1_555
C17 C18 1_555 1_555
O6 Cd2_2 1_555 1_555
N8 Cd2_2 1_555 1_555
N10 Cd2_2 1_555 1_555
O6 H10 1_555 1_555
O6 H11 1_555 1_555
Cd3 N1_2 1_555 1_555
Cd2_3 N2_2 1_555 1_555
C1_2 H1_2 1_555 1_555
N1_2 C1_2 1_555 1_555
C2_2 H2_2 1_555 1_555
N2_2 C2_2 1_555 1_555
C3_2 N1_2 1_555 1_555
H3_2 C3_2 1_555 1_555
C4_2 C1_2 1_555 1_555
N3_2 Cd2_3 1_555 1_555
C5_2 C4_2 1_555 1_555
N4_2 C5_2 1_555 1_555
C6_2 H4_2 1_555 1_555
O1_2 Cd3 1_555 1_555
C7_2 O1_2 1_555 1_555
C8_2 C6_2 1_555 1_555
N5_2 N3_2 1_555 1_555
C9_2 H5_2 1_555 1_555
C10_2 C9_2 1_555 1_555
C11_2 N4_2 1_555 1_555
C12_2 C16_2 1_555 1_555
C13_2 C14_2 1_555 1_555
C14_2 C8_2 1_555 1_555
H6_2 C14_2 1_555 1_555
C15_2 C13_2 1_555 1_555
N6_2 C9_2 1_555 1_555
C16_2 C6_2 1_555 1_555
N7_2 C10_2 1_555 1_555
C17_2 N6_2 1_555 1_555
H8_2 C17_2 1_555 1_555
C18_2 N7_2 1_555 1_555
H9_2 C18_2 1_555 1_555
O4_2 C12_2 1_555 1_555
O5_2 C12_2 1_555 1_555
Cd5 N6_2 1_555 1_555
Cd6_2 O4_2 1_555 1_555
Cd7_3 N5_2 1_555 1_555
N9_2 Cd3 1_555 1_555
O9_2 Cd3 1_555 1_555
O10_2 Cd2_3 1_555 1_555
O11_2 Cd2_3 1_555 1_555
O12_2 Cd3 1_555 1_555
C2_2 C3_2 1_555 1_555
N2_2 C4_2 1_555 1_555
N3_2 C5_2 1_555 1_555
C7_2 C8_2 1_555 1_555
C7_2 O8 1_555 1_555
N5_2 C11_2 1_555 1_555
C10_2 C11_2 1_555 1_555
C15_2 C16_2 1_555 1_555
N7_2 Cd7_3 1_555 1_555
C17_2 C18_2 1_555 1_555
O5_2 Cd6_2 1_555 1_555
O3_2 C19_2 1_555 1_555
O7_2 C19_2 1_555 1_555
Cd4 O3_2 1_555 1_555
O7_2 Cd4 1_555 1_555
O6_2 Cd2_4 1_555 1_555
N8_2 Cd2_4 1_555 1_555
N10_2 Cd2_4 1_555 1_555
O6_2 H10_2 1_555 1_555
O6_2 H11_2 1_555 1_555
O6_3 H10_3 1_555 1_555
O6_3 H11_3 1_555 1_555
C9_3 H5_3 1_555 1_555
C10_3 C9_3 1_555 1_555
N6_3 C9_3 1_555 1_555
N7_3 C10_3 1_555 1_555
C17_3 N6_3 1_555 1_555
H8_3 C17_3 1_555 1_555
C18_3 N7_3 1_555 1_555
H9_3 C18_3 1_555 1_555
Cd7_5 N5_3 1_555 1_555
N5_3 C11_3 1_555 1_555
C10_3 C11_3 1_555 1_555
N7_3 Cd7_5 1_555 1_555
C17_3 C18_3 1_555 1_555
C6_3 H4_3 1_555 1_555
C8_3 C6_3 1_555 1_555
C12_3 C16_3 1_555 1_555
C13_3 C14_3 1_555 1_555
C14_3 C8_3 1_555 1_555
H6_3 C14_3 1_555 1_555
C15_3 C13_3 1_555 1_555
H7_3 C15_3 1_555 1_555
C16_3 C6_3 1_555 1_555
O3_3 C19_3 1_555 1_555
O10_2 C12_3 1_555 1_555
O11_2 C12_3 1_555 1_555
C19_3 C13_3 1_555 1_555
O7_3 C19_3 1_555 1_555
Cd5_2 O3_3 1_555 1_555
C7_3 C8_3 1_555 1_555
C7_3 O2_2 1_555 1_555
C15_3 C16_3 1_555 1_555
O7_3 Cd5_2 1_555 1_555
Cd1_2 N1_3 1_555 1_555
Cd6_2 N2_3 1_555 1_555
C1_3 H1_3 1_555 1_555
N1_3 C1_3 1_555 1_555
C2_3 H2_3 1_555 1_555
N2_3 C2_3 1_555 1_555
C3_3 N1_3 1_555 1_555
H3_3 C3_3 1_555 1_555
C4_3 C1_3 1_555 1_555
N3_3 Cd6_2 1_555 1_555
C5_3 C4_3 1_555 1_555
O1_3 Cd1_2 1_555 1_555
N8_3 Cd6_2 1_555 1_555
N10_3 Cd6_2 1_555 1_555
O9_3 Cd1_2 1_555 1_555
O12_3 Cd1_2 1_555 1_555
C2_3 C3_3 1_555 1_555
N2_3 C4_3 1_555 1_555
N3_3 C5_3 1_555 1_555
C6_4 H4_4 1_555 1_555
C8_4 C6_4 1_555 1_555
C12_4 C16_4 1_555 1_555
C13_4 C14_4 1_555 1_555
C14_4 C8_4 1_555 1_555
H6_4 C14_4 1_555 1_555
C15_4 C13_4 1_555 1_555
C16_4 C6_4 1_555 1_555
O10 C12_4 1_555 1_555
O11 C12_4 1_555 1_555
C7_4 C8_4 1_555 1_555
C7_4 O8_2 1_555 1_555
C15_4 C16_4 1_555 1_555
O3_4 C19_4 1_555 1_555
O7_4 C19_4 1_555 1_555
Cd4_2 O3_4 1_555 1_555
O7_4 Cd4_2 1_555 1_555
Cd3_2 N1_4 1_555 1_555
Cd6 N2_4 1_555 1_555
C1_4 H1_4 1_555 1_555
N1_4 C1_4 1_555 1_555
C2_4 H2_4 1_555 1_555
N2_4 C2_4 1_555 1_555
C3_4 N1_4 1_555 1_555
H3_4 C3_4 1_555 1_555
C4_4 C1_4 1_555 1_555
N3_4 Cd6 1_555 1_555
C5_4 C4_4 1_555 1_555
O1_4 Cd3_2 1_555 1_555
N8_4 Cd6 1_555 1_555
N10_4 Cd6 1_555 1_555
O9_4 Cd3_2 1_555 1_555
O12_4 Cd3_2 1_555 1_555
C2_4 C3_4 1_555 1_555
N2_4 C4_4 1_555 1_555
N3_4 C5_4 1_555 1_555
C9_4 H5_4 1_555 1_555
C10_4 C9_4 1_555 1_555
C11_4 N4_4 1_555 1_555
N6_4 C9_4 1_555 1_555
N7_4 C10_4 1_555 1_555
C17_4 N6_4 1_555 1_555
H8_4 C17_4 1_555 1_555
C18_4 N7_4 1_555 1_555
H9_4 C18_4 1_555 1_555
Cd7_6 N5_4 1_555 1_555
N5_4 C11_4 1_555 1_555
C10_4 C11_4 1_555 1_555
N7_4 Cd7_6 1_555 1_555
C17_4 C18_4 1_555 1_555
O6_4 H10_4 1_555 1_555
O6_4 H11_4 1_555 1_555
O6_5 Cd7 1_555 1_555
O6_5 H10_5 1_555 1_555
O6_5 H11_5 1_555 1_555
C9_5 H5_5 1_555 1_555
C10_5 C9_5 1_555 1_555
N9 C9_5 1_555 1_555
N10 C10_5 1_555 1_555
C17_5 N9 1_555 1_555
H8_5 C17_5 1_555 1_555
C18_5 N10 1_555 1_555
H9_5 C18_5 1_555 1_555
N8 C11_5 1_555 1_555
C10_5 C11_5 1_555 1_555
C17_5 C18_5 1_555 1_555
Cd4 N1_5 1_555 1_555
Cd7_2 N2_5 1_555 1_555
C1_5 H1_5 1_555 1_555
N1_5 C1_5 1_555 1_555
C2_5 H2_5 1_555 1_555
N2_5 C2_5 1_555 1_555
C3_5 N1_5 1_555 1_555
H3_5 C3_5 1_555 1_555
C4_5 C1_5 1_555 1_555
N3_5 Cd7_2 1_555 1_555
C5_5 C4_5 1_555 1_555
N4_5 C5_5 1_555 1_555
C6_5 H4_5 1_555 1_555
O1_5 Cd4 1_555 1_555
C7_5 O1_5 1_555 1_555
C8_5 C6_5 1_555 1_555
O2_3 Cd4 1_555 1_555
C12_5 C16_5 1_555 1_555
C13_5 C14_5 1_555 1_555
C14_5 C8_5 1_555 1_555
H6_5 C14_5 1_555 1_555
C15_5 C13_5 1_555 1_555
H7_5 C15_5 1_555 1_555
C16_5 C6_5 1_555 1_555
O9_2 C19_5 1_555 1_555
O4_3 C12_5 1_555 1_555
O5_3 C12_5 1_555 1_555
C19_5 C13_5 1_555 1_555
O12_2 C19_5 1_555 1_555
Cd5 O2_3 1_555 1_555
Cd7_6 O4_3 1_555 1_555
O8_3 Cd4 1_555 1_555
O10_3 Cd7_2 1_555 1_555
O11_3 Cd7_2 1_555 1_555
C2_5 C3_5 1_555 1_555
N2_5 C4_5 1_555 1_555
N3_5 C5_5 1_555 1_555
C7_5 C8_5 1_555 1_555
C7_5 O2_3 1_555 1_555
C15_5 C16_5 1_555 1_555
O5_3 Cd7_6 1_555 1_555
Cd5 O8_3 1_555 1_555
O6_6 Cd7_3 1_555 1_555
O6_6 H10_6 1_555 1_555
O6_6 H11_6 1_555 1_555
O9 C19_6 1_555 1_555
O12 C19_6 1_555 1_555
Cd5 N1_6 1_555 1_555
Cd7_4 N2_6 1_555 1_555
C1_6 H1_6 1_555 1_555
N1_6 C1_6 1_555 1_555
C2_6 H2_6 1_555 1_555
N2_6 C2_6 1_555 1_555
C3_6 N1_6 1_555 1_555
H3_6 C3_6 1_555 1_555
C4_6 C1_6 1_555 1_555
N3_6 Cd7_4 1_555 1_555
C5_6 C4_6 1_555 1_555
N4_6 C5_6 1_555 1_555
C6_6 H4_6 1_555 1_555
O1_6 Cd5 1_555 1_555
C7_6 O1_6 1_555 1_555
C8_6 C6_6 1_555 1_555
N8_2 N3_6 1_555 1_555
C9_6 H5_6 1_555 1_555
C10_6 C9_6 1_555 1_555
C11_6 N4_6 1_555 1_555
C12_6 C16_6 1_555 1_555
C13_6 C14_6 1_555 1_555
C14_6 C8_6 1_555 1_555
H6_6 C14_6 1_555 1_555
C15_6 C13_6 1_555 1_555
N9_2 C9_6 1_555 1_555
C16_6 C6_6 1_555 1_555
N10_2 C10_6 1_555 1_555
C17_6 N9_2 1_555 1_555
H8_6 C17_6 1_555 1_555
C18_6 N10_2 1_555 1_555
H9_6 C18_6 1_555 1_555
O4_4 C12_6 1_555 1_555
O5_4 C12_6 1_555 1_555
Cd7_5 O4_4 1_555 1_555
O10_4 Cd7_4 1_555 1_555
O11_4 Cd7_4 1_555 1_555
C2_6 C3_6 1_555 1_555
N2_6 C4_6 1_555 1_555
N3_6 C5_6 1_555 1_555
C7_6 C8_6 1_555 1_555
C7_6 O8_3 1_555 1_555
N8_2 C11_6 1_555 1_555
C10_6 C11_6 1_555 1_555
C15_6 C16_6 1_555 1_555
C17_6 C18_6 1_555 1_555
O5_4 Cd7_5 1_555 1_555
Cd4_2 N1_7 1_555 1_555
Cd7_5 N2_7 1_555 1_555
C1_7 H1_7 1_555 1_555
N1_7 C1_7 1_555 1_555
C2_7 H2_7 1_555 1_555
N2_7 C2_7 1_555 1_555
C3_7 N1_7 1_555 1_555
H3_7 C3_7 1_555 1_555
C4_7 C1_7 1_555 1_555
N3_7 Cd7_5 1_555 1_555
C5_7 C4_7 1_555 1_555
O1_7 Cd4_2 1_555 1_555
C2_7 C3_7 1_555 1_555
N2_7 C4_7 1_555 1_555
N3_7 C5_7 1_555 1_555
C6_7 H4_7 1_555 1_555
C8_7 C6_7 1_555 1_555
C12_7 C16_7 1_555 1_555
C13_7 C14_7 1_555 1_555
C14_7 C8_7 1_555 1_555
H6_7 C14_7 1_555 1_555
C15_7 C13_7 1_555 1_555
H7_7 C15_7 1_555 1_555
C16_7 C6_7 1_555 1_555
O9_4 C19_7 1_555 1_555
O10_4 C12_7 1_555 1_555
O11_4 C12_7 1_555 1_555
C19_7 C13_7 1_555 1_555
O12_4 C19_7 1_555 1_555
C7_7 C8_7 1_555 1_555
C7_7 O2_4 1_555 1_555
C15_7 C16_7 1_555 1_555
C9_7 H5_7 1_555 1_555
C10_7 C9_7 1_555 1_555
N9_3 C9_7 1_555 1_555
N10_3 C10_7 1_555 1_555
C17_7 N9_3 1_555 1_555
H8_7 C17_7 1_555 1_555
C18_7 N10_3 1_555 1_555
H9_7 C18_7 1_555 1_555
N8_3 C11_7 1_555 1_555
C10_7 C11_7 1_555 1_555
C17_7 C18_7 1_555 1_555
O6_7 H10_7 1_555 1_555
O6_7 H11_7 1_555 1_555
C9_8 H5_8 1_555 1_555
C10_8 C9_8 1_555 1_555
C11_8 N4_8 1_555 1_555
N9_4 C9_8 1_555 1_555
N10_4 C10_8 1_555 1_555
C17_8 N9_4 1_555 1_555
H8_8 C17_8 1_555 1_555
C18_8 N10_4 1_555 1_555
H9_8 C18_8 1_555 1_555
N8_4 C11_8 1_555 1_555
C10_8 C11_8 1_555 1_555
C17_8 C18_8 1_555 1_555
O6_8 H10_8 1_555 1_555
O6_8 H11_8 1_555 1_555
Cd5_2 N1_8 1_555 1_555
Cd7_6 N2_8 1_555 1_555
C1_8 H1_8 1_555 1_555
N1_8 C1_8 1_555 1_555
C2_8 H2_8 1_555 1_555
N2_8 C2_8 1_555 1_555
C3_8 N1_8 1_555 1_555
H3_8 C3_8 1_555 1_555
C4_8 C1_8 1_555 1_555
N3_8 Cd7_6 1_555 1_555
C5_8 C4_8 1_555 1_555
O1_8 Cd5_2 1_555 1_555
C2_8 C3_8 1_555 1_555
N2_8 C4_8 1_555 1_555
N3_8 C5_8 1_555 1_555
O9_3 C19_8 1_555 1_555
O12_3 C19_8 1_555 1_555
C6_8 H4_8 1_555 1_555
C8_8 C6_8 1_555 1_555
C12_8 C16_8 1_555 1_555
C13_8 C14_8 1_555 1_555
C14_8 C8_8 1_555 1_555
H6_8 C14_8 1_555 1_555
C15_8 C13_8 1_555 1_555
C16_8 C6_8 1_555 1_555
O10_3 C12_8 1_555 1_555
O11_3 C12_8 1_555 1_555
C7_8 C8_8 1_555 1_555
C7_8 O8_4 1_555 1_555
C15_8 C16_8 1_555 1_555

#END
