
###############################################################################
#
# This file contains modified crystal structure data generated from the
# MOF subset of the Cambridge Structural Database (CSD) v543 
# hosted by the Cambridge Crystallographic Data Centre (CCDC).
#
# This work is licensed under the Creative Commons
# Attribution-NonCommercial-ShareAlike 4.0 International License.
# To view a copy of this license, visit
# http://creativecommons.org/licenses/by-nc-sa/4.0/
# or send a letter to
# Creative Commons, PO Box 1866, Mountain View, CA 94042, USA.
#
# CIF created using the CSD Python API on 29 September 2022
# The structure has been converted into the P1 space group
# The structure has a 3D framework
# The original CSD entry HIDTUM is in the orthorhombic crystal system
# The framework has been calculated to contain at least 10.0% void space
# The void calculation uses a probe of radius 1.32A, grid spacing 0.4
#
###############################################################################

data_HIDTUM
_chemical_formula_moiety         '(C282 H196 Cu28 O124)n'
_symmetry_cell_setting           triclinic
_symmetry_space_group_name_H-M   'P 1'
_symmetry_Int_Tables_number      1
_space_group_name_Hall           'P 1'
loop_
_symmetry_equiv_pos_site_id
_symmetry_equiv_pos_as_xyz
1 x,y,z
_cell_length_a                   24.8102(15)
_cell_length_b                   33.4318(19)
_cell_length_c                   18.3552(10)
_cell_angle_alpha                90
_cell_angle_beta                 90
_cell_angle_gamma                90
_cell_volume                     15224.7
loop_
_atom_site_label
_atom_site_type_symbol
_atom_site_fract_x
_atom_site_fract_y
_atom_site_fract_z
Cu1 Cu 0.21896(5) 0.27419(3) 0.30141(6)
Cu2 Cu 0.29744(5) 0.23943(3) 0.37605(7)
Cu3 Cu 0.0000 0.13984(5) 0.10195(10)
Cu4 Cu 0.0000 0.06111(5) 0.11095(10)
O1 O 0.0559(3) 0.07112(19) 0.1835(4)
O2 O 0.0545(4) 0.1381(2) 0.1738(5)
O3 O 0.1904(3) 0.21955(17) 0.2924(4)
O4 O 0.2562(3) 0.1909(2) 0.3549(4)
O9 O 0.2653(3) 0.2633(2) 0.2203(4)
O10 O 0.3325(3) 0.2320(2) 0.2813(4)
O13 O 0.1572(3) 0.3074(3) 0.2478(5)
H1 H 0.1455 0.3032 0.2043
H2 H 0.1401 0.3274 0.2665
O14 O 0.3575(4) 0.2088(4) 0.4373(5)
H3 H 0.3500 0.1845 0.4463
H4 H 0.3664 0.2211 0.4760
O15 O -0.0000 0.2043(3) 0.0862(9)
H5 H 0.0278 0.2142 0.1063
C1 C 0.0740(4) 0.1054(3) 0.1984(6)
C2 C 0.1228(4) 0.1095(3) 0.2477(6)
C3 C 0.1483(4) 0.0748(3) 0.2731(5)
H7 H 0.1331 0.0499 0.2636
C4 C 0.1439(4) 0.1454(3) 0.2633(6)
H8 H 0.1269 0.1683 0.2459
C5 C 0.1911(4) 0.1495(3) 0.3051(6)
C6 C 0.2161(5) 0.1160(3) 0.3281(6)
H9 H 0.2476 0.1182 0.3553
C7 C 0.1950(4) 0.0770(3) 0.3115(6)
C8 C 0.2144(4) 0.1913(3) 0.3194(5)
C9 C 0.2235(5) 0.0413(3) 0.3370(6)
C10 C 0.1960(4) 0.0067(3) 0.3571(7)
H10 H 0.1585 0.0069 0.3553
C11 C 0.2823(4) 0.0398(3) 0.3392(8)
H11 H 0.3031 0.0609 0.3217
C13 C 0.3064(5) 0.0050(5) 0.3693(14)
C14 C 0.3693(5) 0.0056(3) 0.3592(10)
H12 H 0.3812 0.0327 0.3529
C24 C 0.3081(5) 0.2442(3) 0.2238(5)
C25 C 0.3343(4) 0.2309(3) 0.1524(5)
C26 C 0.3815(4) 0.2090(3) 0.1501(5)
H19 H 0.4009 0.2047 0.1927
C27 C 0.3062(4) 0.2387(3) 0.0867(6)
H20 H 0.2746 0.2537 0.0877
C28 C 0.3248(4) 0.2249(3) 0.0233(5)
C29 C 0.4003(5) 0.1931(3) 0.0835(6)
C30 C 0.3720(4) 0.2018(3) 0.0197(6)
C32 C 0.4508(4) 0.1707(3) 0.0789(5)
C33 C 0.5000 0.1873(4) 0.0946(9)
H22 H 0.5000 0.2120 0.1180
C34 C 0.4510(4) 0.1338(3) 0.0426(6)
H23 H 0.4187 0.1221 0.0284
C35 C 0.5000 0.1142(5) 0.0275(14)
C36 C 0.5000 0.0676(6) 0.0020(16)
H25 H 0.5000 0.0484 0.0397
O17 O 0.7347(3) 0.2633(2) 0.2203(4)
O18 O 0.6675(3) 0.2320(2) 0.2813(4)
C37 C 0.6919(5) 0.2442(3) 0.2238(5)
C38 C 0.6657(4) 0.2309(3) 0.1524(5)
C39 C 0.6185(4) 0.2090(3) 0.1501(5)
H26 H 0.5991 0.2047 0.1927
C40 C 0.6938(4) 0.2387(3) 0.0867(6)
H27 H 0.7254 0.2537 0.0877
C41 C 0.6752(4) 0.2249(3) 0.0233(5)
C42 C 0.5997(5) 0.1931(3) 0.0835(6)
C43 C 0.6280(4) 0.2018(3) 0.0197(6)
C45 C 0.5492(4) 0.1707(3) 0.0789(5)
C46 C 0.5490(4) 0.1338(3) 0.0426(6)
H29 H 0.5813 0.1221 0.0284
Cu7 Cu 0.78104(5) 0.27419(3) 0.30141(6)
Cu12 Cu 0.70256(5) 0.23943(3) 0.37605(7)
O32 O 0.0569(3) 0.06404(19) 0.0306(4)
O34 O 0.0558(4) 0.1294(2) 0.0288(5)
O36 O 0.3254(3) 0.29349(18) 0.3830(4)
O38 O 0.2579(3) 0.3226(2) 0.3213(4)
O41 O 0.2503(3) 0.2503(2) 0.4602(4)
O43 O 0.1824(3) 0.2789(2) 0.3956(4)
O11 O 0.2497(3) 0.2497(2) 0.9602(4)
O12 O 0.3176(3) 0.2211(2) 0.8956(4)
H21 H 0.3843 0.1923 0.9751
C31 C 0.2958(5) 0.2322(3) 0.9572(6)
H24 H 0.4698 0.0638 0.9736
O19 O 0.7503(3) 0.2497(2) 0.9602(4)
O20 O 0.6824(3) 0.2211(2) 0.8956(4)
H28 H 0.6157 0.1923 0.9751
C44 C 0.7042(5) 0.2322(3) 0.9572(6)
H30 H 0.5302 0.0638 0.9736
Cu9 Cu 0.28104(5) 0.22581(3) 0.80141(6)
Cu11 Cu 0.71896(5) 0.22581(3) 0.80141(6)
Cu14 Cu 0.20256(5) 0.26057(3) 0.87605(7)
Cu16 Cu 0.79744(5) 0.26057(3) 0.87605(7)
O5 O 0.0569(3) 0.93596(19) 0.5306(4)
O6 O 0.0558(4) 0.8706(2) 0.5288(5)
O7 O 0.1746(3) 0.79349(18) 0.3830(4)
O8 O 0.2421(3) 0.8226(2) 0.3213(4)
O16 O 0.0000 0.9978(3) 0.1223(7)
C12 C 0.2222(4) 0.9714(3) 0.3800(7)
H13 H 0.3862 0.9944 0.4015
H14 H 0.3789 0.9902 0.3170
C15 C 0.2770(7) 0.9713(4) 0.3794(11)
H15 H 0.2950 0.9472 0.3863
C16 C 0.1924(4) 0.9350(3) 0.3941(6)
C17 C 0.1457(5) 0.9381(3) 0.4383(6)
H16 H 0.1338 0.9630 0.4543
C18 C 0.1181(5) 0.9038(3) 0.4572(6)
C19 C 0.0732(5) 0.9040(3) 0.5098(6)
C20 C 0.1332(5) 0.8662(4) 0.4293(7)
H17 H 0.1136 0.8431 0.4395
C21 C 0.2072(4) 0.8984(3) 0.3681(6)
H18 H 0.2372 0.8968 0.3379
C22 C 0.1809(4) 0.8653(3) 0.3837(6)
C23 C 0.1980(4) 0.8244(3) 0.3634(6)
H32 H 0.0278 0.9907 0.1462
Cu10 Cu 0.28104(5) 0.77419(3) 0.30141(6)
Cu15 Cu 0.20256(5) 0.73943(3) 0.37605(7)
Cu17 Cu -0.0000 0.86016(5) 0.60195(10)
Cu18 Cu 0.0000 0.93889(5) 0.61095(10)
Cu3_2 Cu 1.0000 0.13984(5) 0.10195(10)
Cu4_2 Cu 1.0000 0.06111(5) 0.11095(10)
O15_2 O 1.0000 0.2043(3) 0.0862(9)
H31 H 0.9722 0.2142 0.1063
O21 O 0.9441(3) 0.07112(19) 0.1835(4)
O22 O 0.9455(4) 0.1381(2) 0.1738(5)
O23 O 0.8096(3) 0.21955(17) 0.2924(4)
O24 O 0.7438(3) 0.1909(2) 0.3549(4)
O29 O 0.8428(3) 0.3074(3) 0.2478(5)
H33 H 0.8545 0.3032 0.2043
H34 H 0.8599 0.3274 0.2665
O30 O 0.6425(4) 0.2088(4) 0.4373(5)
H35 H 0.6500 0.1845 0.4463
H36 H 0.6336 0.2211 0.4760
C47 C 0.9260(4) 0.1054(3) 0.1984(6)
C48 C 0.8772(4) 0.1095(3) 0.2477(6)
C49 C 0.8517(4) 0.0748(3) 0.2731(5)
H37 H 0.8669 0.0499 0.2636
C50 C 0.8561(4) 0.1454(3) 0.2633(6)
H38 H 0.8731 0.1683 0.2459
C51 C 0.8089(4) 0.1495(3) 0.3051(6)
C52 C 0.7839(5) 0.1160(3) 0.3281(6)
H39 H 0.7524 0.1182 0.3553
C53 C 0.8050(4) 0.0770(3) 0.3115(6)
C54 C 0.7856(4) 0.1913(3) 0.3194(5)
C55 C 0.7765(5) 0.0413(3) 0.3370(6)
C56 C 0.8040(4) 0.0067(3) 0.3571(7)
H40 H 0.8415 0.0069 0.3553
C57 C 0.7177(4) 0.0398(3) 0.3392(8)
H41 H 0.6969 0.0609 0.3217
C59 C 0.6936(5) 0.0050(5) 0.3693(14)
C60 C 0.6307(5) 0.0056(3) 0.3592(10)
H42 H 0.6188 0.0327 0.3529
O31 O 0.9431(3) 0.06404(19) 0.0306(4)
O33 O 0.9442(4) 0.1294(2) 0.0288(5)
O35 O 0.6746(3) 0.29349(18) 0.3830(4)
O37 O 0.7421(3) 0.3226(2) 0.3213(4)
O42 O 0.7497(3) 0.2503(2) 0.4602(4)
O44 O 0.8176(3) 0.2789(2) 0.3956(4)
O16_2 O 1.0000 0.9978(3) 0.1223(7)
H6 H 0.9722 0.9907 0.1462
O25 O 0.9431(3) 0.93596(19) 0.5306(4)
O26 O 0.9442(4) 0.8706(2) 0.5288(5)
O27 O 0.8254(3) 0.79349(18) 0.3830(4)
O28 O 0.7579(3) 0.8226(2) 0.3213(4)
C58 C 0.7778(4) 0.9714(3) 0.3800(7)
H43 H 0.6138 0.9944 0.4015
H44 H 0.6211 0.9902 0.3170
C61 C 0.7230(7) 0.9713(4) 0.3794(11)
H45 H 0.7050 0.9472 0.3863
C62 C 0.8076(4) 0.9350(3) 0.3941(6)
C63 C 0.8543(5) 0.9381(3) 0.4383(6)
H46 H 0.8662 0.9630 0.4543
C64 C 0.8819(5) 0.9038(3) 0.4572(6)
C65 C 0.9268(5) 0.9040(3) 0.5098(6)
C66 C 0.8668(5) 0.8662(4) 0.4293(7)
H47 H 0.8864 0.8431 0.4395
C67 C 0.7928(4) 0.8984(3) 0.3681(6)
H48 H 0.7628 0.8968 0.3379
C68 C 0.8191(4) 0.8653(3) 0.3837(6)
C69 C 0.8020(4) 0.8244(3) 0.3634(6)
Cu8 Cu 0.71896(5) 0.77419(3) 0.30141(6)
Cu13 Cu 0.79744(5) 0.73943(3) 0.37605(7)
Cu17_2 Cu 1.0000 0.86016(5) 0.60195(10)
Cu18_2 Cu 1.0000 0.93889(5) 0.61095(10)
C65_2 C 0.0732(5) 0.0960(3) 0.0098(6)
O16_3 O 0.0000 0.0022(3) 0.6223(7)
H6_2 H 0.0278 0.0093 0.6462
O27_2 O 0.1746(3) 0.20651(18) 0.8830(4)
O28_2 O 0.2421(3) 0.1774(2) 0.8213(4)
C58_2 C 0.2222(4) 0.0286(3) 0.8800(7)
H43_2 H 0.3862 0.0056 0.9015
H44_2 H 0.3789 0.0098 0.8170
C61_2 C 0.2770(7) 0.0287(4) 0.8794(11)
H45_2 H 0.2950 0.0528 0.8863
C62_2 C 0.1924(4) 0.0650(3) 0.8941(6)
C63_2 C 0.1457(5) 0.0619(3) 0.9383(6)
H46_2 H 0.1338 0.0370 0.9543
C64_2 C 0.1181(5) 0.0962(3) 0.9572(6)
C66_2 C 0.1332(5) 0.1338(4) 0.9293(7)
H47_2 H 0.1136 0.1569 0.9395
C67_2 C 0.2072(4) 0.1016(3) 0.8681(6)
H48_2 H 0.2372 0.1032 0.8379
C68_2 C 0.1809(4) 0.1347(3) 0.8837(6)
C69_2 C 0.1980(4) 0.1756(3) 0.8634(6)
O15_3 O 0.0000 0.7957(3) 0.5862(9)
H31_2 H 0.0278 0.7858 0.6063
Cu5 Cu 0.21896(5) 0.72581(3) 0.80141(6)
Cu6 Cu 0.29744(5) 0.76057(3) 0.87605(7)
O21_2 O 0.0559(3) 0.92888(19) 0.6835(4)
O22_2 O 0.0545(4) 0.8619(2) 0.6738(5)
O23_2 O 0.1904(3) 0.78045(17) 0.7924(4)
O24_2 O 0.2562(3) 0.8091(2) 0.8549(4)
O29_2 O 0.1572(3) 0.6926(3) 0.7478(5)
H33_2 H 0.1455 0.6968 0.7043
H34_2 H 0.1401 0.6726 0.7665
O30_2 O 0.3575(4) 0.7912(4) 0.9373(5)
H35_2 H 0.3500 0.8155 0.9463
H36_2 H 0.3664 0.7789 0.9760
C47_2 C 0.0740(4) 0.8946(3) 0.6984(6)
C48_2 C 0.1228(4) 0.8905(3) 0.7477(6)
C49_2 C 0.1483(4) 0.9252(3) 0.7731(5)
H37_2 H 0.1331 0.9501 0.7636
C50_2 C 0.1439(4) 0.8546(3) 0.7633(6)
H38_2 H 0.1269 0.8317 0.7459
C51_2 C 0.1911(4) 0.8505(3) 0.8051(6)
C52_2 C 0.2161(5) 0.8840(3) 0.8281(6)
H39_2 H 0.2476 0.8818 0.8553
C53_2 C 0.1950(4) 0.9230(3) 0.8115(6)
C54_2 C 0.2144(4) 0.8087(3) 0.8194(5)
C55_2 C 0.2235(5) 0.9587(3) 0.8370(6)
C56_2 C 0.1960(4) 0.9933(3) 0.8571(7)
H40_2 H 0.1585 0.9931 0.8553
C57_2 C 0.2823(4) 0.9602(3) 0.8392(8)
H41_2 H 0.3031 0.9391 0.8217
C59_2 C 0.3064(5) 0.9950(5) 0.8693(14)
C60_2 C 0.3693(5) 0.9944(3) 0.8592(10)
H42_2 H 0.3812 0.9673 0.8529
O35_2 O 0.3254(3) 0.70651(18) 0.8830(4)
O37_2 O 0.2579(3) 0.6774(2) 0.8213(4)
O39 O 0.2653(3) 0.7367(2) 0.7203(4)
O40 O 0.3325(3) 0.7680(2) 0.7813(4)
O42_2 O 0.2503(3) 0.7497(2) 0.9602(4)
O44_2 O 0.1824(3) 0.7211(2) 0.8956(4)
C19_2 C 0.9268(5) 0.0960(3) 0.0098(6)
O7_2 O 0.8254(3) 0.20651(18) 0.8830(4)
O8_2 O 0.7579(3) 0.1774(2) 0.8213(4)
O16_4 O 1.0000 0.0022(3) 0.6223(7)
C12_2 C 0.7778(4) 0.0286(3) 0.8800(7)
H13_2 H 0.6138 0.0056 0.9015
H14_2 H 0.6211 0.0098 0.8170
C15_2 C 0.7230(7) 0.0287(4) 0.8794(11)
H15_2 H 0.7050 0.0528 0.8863
C16_2 C 0.8076(4) 0.0650(3) 0.8941(6)
C17_2 C 0.8543(5) 0.0619(3) 0.9383(6)
H16_2 H 0.8662 0.0370 0.9543
C18_2 C 0.8819(5) 0.0962(3) 0.9572(6)
C20_2 C 0.8668(5) 0.1338(4) 0.9293(7)
H17_2 H 0.8864 0.1569 0.9395
C21_2 C 0.7928(4) 0.1016(3) 0.8681(6)
H18_2 H 0.7628 0.1032 0.8379
C22_2 C 0.8191(4) 0.1347(3) 0.8837(6)
C23_2 C 0.8020(4) 0.1756(3) 0.8634(6)
H32_2 H 0.9722 0.0093 0.6462
Cu1_2 Cu 0.78104(5) 0.72581(3) 0.80141(6)
Cu2_2 Cu 0.70256(5) 0.76057(3) 0.87605(7)
O1_2 O 0.9441(3) 0.92888(19) 0.6835(4)
O2_2 O 0.9455(4) 0.8619(2) 0.6738(5)
O3_2 O 0.8096(3) 0.78045(17) 0.7924(4)
O4_2 O 0.7438(3) 0.8091(2) 0.8549(4)
O9_2 O 0.7347(3) 0.7367(2) 0.7203(4)
O10_2 O 0.6675(3) 0.7680(2) 0.7813(4)
O11_2 O 0.7503(3) 0.7503(2) 0.4602(4)
O12_2 O 0.6824(3) 0.7789(2) 0.3956(4)
O13_2 O 0.8428(3) 0.6926(3) 0.7478(5)
H1_2 H 0.8545 0.6968 0.7043
H2_2 H 0.8599 0.6726 0.7665
O14_2 O 0.6425(4) 0.7912(4) 0.9373(5)
H3_2 H 0.6500 0.8155 0.9463
H4_2 H 0.6336 0.7789 0.9760
O15_4 O 1.0000 0.7957(3) 0.5862(9)
H5_2 H 0.9722 0.7858 0.6063
C1_2 C 0.9260(4) 0.8946(3) 0.6984(6)
C2_2 C 0.8772(4) 0.8905(3) 0.7477(6)
C3_2 C 0.8517(4) 0.9252(3) 0.7731(5)
H7_2 H 0.8669 0.9501 0.7636
C4_2 C 0.8561(4) 0.8546(3) 0.7633(6)
H8_2 H 0.8731 0.8317 0.7459
C5_2 C 0.8089(4) 0.8505(3) 0.8051(6)
C6_2 C 0.7839(5) 0.8840(3) 0.8281(6)
H9_2 H 0.7524 0.8818 0.8553
C7_2 C 0.8050(4) 0.9230(3) 0.8115(6)
C8_2 C 0.7856(4) 0.8087(3) 0.8194(5)
C9_2 C 0.7765(5) 0.9587(3) 0.8370(6)
C10_2 C 0.8040(4) 0.9933(3) 0.8571(7)
H10_2 H 0.8415 0.9931 0.8553
C11_2 C 0.7177(4) 0.9602(3) 0.8392(8)
H11_2 H 0.6969 0.9391 0.8217
C13_2 C 0.6936(5) 0.9950(5) 0.8693(14)
C14_2 C 0.6307(5) 0.9944(3) 0.8592(10)
H12_2 H 0.6188 0.9673 0.8529
C24_2 C 0.6919(5) 0.7558(3) 0.7238(5)
C25_2 C 0.6657(4) 0.7691(3) 0.6524(5)
C26_2 C 0.6185(4) 0.7910(3) 0.6501(5)
H19_2 H 0.5991 0.7953 0.6927
C27_2 C 0.6938(4) 0.7613(3) 0.5867(6)
H20_2 H 0.7254 0.7463 0.5877
C28_2 C 0.6752(4) 0.7751(3) 0.5233(5)
C29_2 C 0.5997(5) 0.8069(3) 0.5835(6)
C30_2 C 0.6280(4) 0.7982(3) 0.5197(6)
H21_2 H 0.6157 0.8077 0.4751
C31_2 C 0.7042(5) 0.7678(3) 0.4572(6)
C32_2 C 0.5492(4) 0.8293(3) 0.5789(5)
C33_2 C 0.5000 0.8127(4) 0.5946(9)
H22_2 H 0.5000 0.7880 0.6180
C34_2 C 0.5490(4) 0.8662(3) 0.5426(6)
H23_2 H 0.5813 0.8779 0.5284
C35_2 C 0.5000 0.8858(5) 0.5275(14)
C36_2 C 0.5000 0.9324(6) 0.5020(16)
H24_2 H 0.5302 0.9362 0.4736
H25_2 H 0.5000 0.9516 0.5397
O19_2 O 0.2497(3) 0.7503(2) 0.4602(4)
O20_2 O 0.3176(3) 0.7789(2) 0.3956(4)
C37_2 C 0.3081(5) 0.7558(3) 0.7238(5)
C38_2 C 0.3343(4) 0.7691(3) 0.6524(5)
C39_2 C 0.3815(4) 0.7910(3) 0.6501(5)
H26_2 H 0.4009 0.7953 0.6927
C40_2 C 0.3062(4) 0.7613(3) 0.5867(6)
H27_2 H 0.2746 0.7463 0.5877
C41_2 C 0.3248(4) 0.7751(3) 0.5233(5)
C42_2 C 0.4003(5) 0.8069(3) 0.5835(6)
C43_2 C 0.3720(4) 0.7982(3) 0.5197(6)
H28_2 H 0.3843 0.8077 0.4751
C44_2 C 0.2958(5) 0.7678(3) 0.4572(6)
C45_2 C 0.4508(4) 0.8293(3) 0.5789(5)
C46_2 C 0.4510(4) 0.8662(3) 0.5426(6)
H29_2 H 0.4187 0.8779 0.5284
H30_2 H 0.4698 0.9362 0.4736
O36_2 O 0.6746(3) 0.70651(18) 0.8830(4)
O38_2 O 0.7421(3) 0.6774(2) 0.8213(4)
O41_2 O 0.7497(3) 0.7497(2) 0.9602(4)
O43_2 O 0.8176(3) 0.7211(2) 0.8956(4)
C33_3 C -0.0000 0.6873(4) 0.0946(9)
H22_3 H 0.0000 0.7120 0.1180
C35_3 C 0.0000 0.6142(5) 0.0275(14)
C36_3 C -0.0000 0.5676(6) 0.0020(16)
H25_3 H -0.0000 0.5484 0.0397
O17_2 O 0.2347(3) 0.7633(2) 0.2203(4)
O18_2 O 0.1675(3) 0.7320(2) 0.2813(4)
C37_3 C 0.1919(5) 0.7442(3) 0.2238(5)
C38_3 C 0.1657(4) 0.7309(3) 0.1524(5)
C39_3 C 0.1185(4) 0.7090(3) 0.1501(5)
H26_3 H 0.0991 0.7047 0.1927
C40_3 C 0.1938(4) 0.7387(3) 0.0867(6)
H27_3 H 0.2254 0.7537 0.0877
C41_3 C 0.1752(4) 0.7249(3) 0.0233(5)
C42_3 C 0.0997(5) 0.6931(3) 0.0835(6)
C43_3 C 0.1280(4) 0.7018(3) 0.0197(6)
C45_3 C 0.0492(4) 0.6707(3) 0.0789(5)
C46_3 C 0.0490(4) 0.6338(3) 0.0426(6)
H29_3 H 0.0813 0.6221 0.0284
H28_3 H 0.1157 0.6923 0.9751
C44_3 C 0.2042(5) 0.7322(3) 0.9572(6)
H30_3 H 0.0302 0.5638 0.9736
Cu3_3 Cu 0.5000 0.63984(5) 0.10195(10)
Cu4_3 Cu 0.5000 0.56111(5) 0.11095(10)
O1_3 O 0.5559(3) 0.57112(19) 0.1835(4)
O2_3 O 0.5545(4) 0.6381(2) 0.1738(5)
O3_3 O 0.6904(3) 0.71955(17) 0.2924(4)
O4_3 O 0.7562(3) 0.6909(2) 0.3549(4)
O5_2 O 0.5569(3) 0.43596(19) 0.5306(4)
O6_2 O 0.5558(4) 0.3706(2) 0.5288(5)
O9_3 O 0.7653(3) 0.7633(2) 0.2203(4)
O10_3 O 0.8325(3) 0.7320(2) 0.2813(4)
O13_3 O 0.6572(3) 0.8074(3) 0.2478(5)
H1_3 H 0.6455 0.8032 0.2043
H2_3 H 0.6401 0.8274 0.2665
O14_3 O 0.8575(4) 0.7088(4) 0.4373(5)
H3_3 H 0.8500 0.6845 0.4463
H4_3 H 0.8664 0.7211 0.4760
O15_5 O 0.5000 0.7043(3) 0.0862(9)
H5_3 H 0.5278 0.7142 0.1063
O16_5 O 0.5000 0.4978(3) 0.1223(7)
H6_3 H 0.4722 0.4907 0.1462
C1_3 C 0.5740(4) 0.6054(3) 0.1984(6)
C2_3 C 0.6228(4) 0.6095(3) 0.2477(6)
C3_3 C 0.6483(4) 0.5748(3) 0.2731(5)
H7_3 H 0.6331 0.5499 0.2636
C4_3 C 0.6439(4) 0.6454(3) 0.2633(6)
H8_3 H 0.6269 0.6683 0.2459
C5_3 C 0.6911(4) 0.6495(3) 0.3051(6)
C6_3 C 0.7161(5) 0.6160(3) 0.3281(6)
H9_3 H 0.7476 0.6182 0.3553
C7_3 C 0.6950(4) 0.5770(3) 0.3115(6)
C8_3 C 0.7144(4) 0.6913(3) 0.3194(5)
C9_3 C 0.7235(5) 0.5413(3) 0.3370(6)
C10_3 C 0.6960(4) 0.5067(3) 0.3571(7)
H10_3 H 0.6585 0.5069 0.3553
C11_3 C 0.7823(4) 0.5398(3) 0.3392(8)
H11_3 H 0.8031 0.5609 0.3217
C12_3 C 0.7222(4) 0.4714(3) 0.3800(7)
C13_3 C 0.8064(5) 0.5050(5) 0.3693(14)
C14_3 C 0.8693(5) 0.5056(3) 0.3592(10)
H12_3 H 0.8812 0.5327 0.3529
H13_3 H 0.8862 0.4944 0.4015
H14_3 H 0.8789 0.4902 0.3170
C15_3 C 0.7770(7) 0.4713(4) 0.3794(11)
H15_3 H 0.7950 0.4472 0.3863
C16_3 C 0.6924(4) 0.4350(3) 0.3941(6)
C17_3 C 0.6457(5) 0.4381(3) 0.4383(6)
H16_3 H 0.6338 0.4630 0.4543
C18_3 C 0.6181(5) 0.4038(3) 0.4572(6)
C19_3 C 0.5732(5) 0.4040(3) 0.5098(6)
C20_3 C 0.6332(5) 0.3662(4) 0.4293(7)
H17_3 H 0.6136 0.3431 0.4395
C21_3 C 0.7072(4) 0.3984(3) 0.3681(6)
H18_3 H 0.7372 0.3968 0.3379
C22_3 C 0.6809(4) 0.3653(3) 0.3837(6)
C23_3 C 0.6980(4) 0.3244(3) 0.3634(6)
C24_3 C 0.8081(5) 0.7442(3) 0.2238(5)
C25_3 C 0.8343(4) 0.7309(3) 0.1524(5)
C26_3 C 0.8815(4) 0.7090(3) 0.1501(5)
H19_3 H 0.9009 0.7047 0.1927
C27_3 C 0.8062(4) 0.7387(3) 0.0867(6)
H20_3 H 0.7746 0.7537 0.0877
C28_3 C 0.8248(4) 0.7249(3) 0.0233(5)
C29_3 C 0.9003(5) 0.6931(3) 0.0835(6)
C30_3 C 0.8720(4) 0.7018(3) 0.0197(6)
C32_3 C 0.9508(4) 0.6707(3) 0.0789(5)
C33_4 C 1.0000 0.6873(4) 0.0946(9)
H22_4 H 1.0000 0.7120 0.1180
C34_3 C 0.9510(4) 0.6338(3) 0.0426(6)
H23_3 H 0.9187 0.6221 0.0284
C35_4 C 1.0000 0.6142(5) 0.0275(14)
C36_4 C 1.0000 0.5676(6) 0.0020(16)
H25_4 H 1.0000 0.5484 0.0397
H31_3 H 0.4722 0.7142 0.1063
H32_3 H 0.5278 0.4907 0.1462
O21_3 O 0.4441(3) 0.57112(19) 0.1835(4)
O22_3 O 0.4455(4) 0.6381(2) 0.1738(5)
O23_3 O 0.3096(3) 0.71955(17) 0.2924(4)
O24_3 O 0.2438(3) 0.6909(2) 0.3549(4)
O25_2 O 0.4431(3) 0.43596(19) 0.5306(4)
O26_2 O 0.4442(4) 0.3706(2) 0.5288(5)
O29_3 O 0.3428(3) 0.8074(3) 0.2478(5)
H33_3 H 0.3545 0.8032 0.2043
H34_3 H 0.3599 0.8274 0.2665
O30_3 O 0.1425(4) 0.7088(4) 0.4373(5)
H35_3 H 0.1500 0.6845 0.4463
H36_3 H 0.1336 0.7211 0.4760
C47_3 C 0.4260(4) 0.6054(3) 0.1984(6)
C48_3 C 0.3772(4) 0.6095(3) 0.2477(6)
C49_3 C 0.3517(4) 0.5748(3) 0.2731(5)
H37_3 H 0.3669 0.5499 0.2636
C50_3 C 0.3561(4) 0.6454(3) 0.2633(6)
H38_3 H 0.3731 0.6683 0.2459
C51_3 C 0.3089(4) 0.6495(3) 0.3051(6)
C52_3 C 0.2839(5) 0.6160(3) 0.3281(6)
H39_3 H 0.2524 0.6182 0.3553
C53_3 C 0.3050(4) 0.5770(3) 0.3115(6)
C54_3 C 0.2856(4) 0.6913(3) 0.3194(5)
C55_3 C 0.2765(5) 0.5413(3) 0.3370(6)
C56_3 C 0.3040(4) 0.5067(3) 0.3571(7)
H40_3 H 0.3415 0.5069 0.3553
C57_3 C 0.2177(4) 0.5398(3) 0.3392(8)
H41_3 H 0.1969 0.5609 0.3217
C58_3 C 0.2778(4) 0.4714(3) 0.3800(7)
C59_3 C 0.1936(5) 0.5050(5) 0.3693(14)
C60_3 C 0.1307(5) 0.5056(3) 0.3592(10)
H42_3 H 0.1188 0.5327 0.3529
H43_3 H 0.1138 0.4944 0.4015
H44_3 H 0.1211 0.4902 0.3170
C61_3 C 0.2230(7) 0.4713(4) 0.3794(11)
H45_3 H 0.2050 0.4472 0.3863
C62_3 C 0.3076(4) 0.4350(3) 0.3941(6)
C63_3 C 0.3543(5) 0.4381(3) 0.4383(6)
H46_3 H 0.3662 0.4630 0.4543
C64_3 C 0.3819(5) 0.4038(3) 0.4572(6)
C65_3 C 0.4268(5) 0.4040(3) 0.5098(6)
C66_3 C 0.3668(5) 0.3662(4) 0.4293(7)
H47_3 H 0.3864 0.3431 0.4395
C67_3 C 0.2928(4) 0.3984(3) 0.3681(6)
H48_3 H 0.2628 0.3968 0.3379
C68_3 C 0.3191(4) 0.3653(3) 0.3837(6)
C69_3 C 0.3020(4) 0.3244(3) 0.3634(6)
Cu17_3 Cu 0.5000 0.36016(5) 0.60195(10)
Cu18_3 Cu 0.5000 0.43889(5) 0.61095(10)
O31_2 O 0.4431(3) 0.56404(19) 0.0306(4)
O32_2 O 0.5569(3) 0.56404(19) 0.0306(4)
O33_2 O 0.4442(4) 0.6294(2) 0.0288(5)
O34_2 O 0.5558(4) 0.6294(2) 0.0288(5)
H21_3 H 0.8843 0.6923 0.9751
C31_3 C 0.7958(5) 0.7322(3) 0.9572(6)
H24_3 H 0.9698 0.5638 0.9736
C19_4 C 0.4268(5) 0.5960(3) 0.0098(6)
C65_4 C 0.5732(5) 0.5960(3) 0.0098(6)
O1_4 O 0.4441(3) 0.42888(19) 0.6835(4)
O2_4 O 0.4455(4) 0.3619(2) 0.6738(5)
O3_4 O 0.3096(3) 0.28045(17) 0.7924(4)
O4_4 O 0.2438(3) 0.3091(2) 0.8549(4)
O9_4 O 0.2347(3) 0.2367(2) 0.7203(4)
O10_4 O 0.1675(3) 0.2680(2) 0.7813(4)
O13_4 O 0.3428(3) 0.1926(3) 0.7478(5)
H1_4 H 0.3545 0.1968 0.7043
H2_4 H 0.3599 0.1726 0.7665
O14_4 O 0.1425(4) 0.2912(4) 0.9373(5)
H3_4 H 0.1500 0.3155 0.9463
H4_4 H 0.1336 0.2789 0.9760
O15_6 O 0.5000 0.2957(3) 0.5862(9)
H5_4 H 0.4722 0.2858 0.6063
O16_6 O 0.5000 0.5022(3) 0.6223(7)
H6_4 H 0.5278 0.5093 0.6462
C1_4 C 0.4260(4) 0.3946(3) 0.6984(6)
C2_4 C 0.3772(4) 0.3905(3) 0.7477(6)
C3_4 C 0.3517(4) 0.4252(3) 0.7731(5)
H7_4 H 0.3669 0.4501 0.7636
C4_4 C 0.3561(4) 0.3546(3) 0.7633(6)
H8_4 H 0.3731 0.3317 0.7459
C5_4 C 0.3089(4) 0.3505(3) 0.8051(6)
C6_4 C 0.2839(5) 0.3840(3) 0.8281(6)
H9_4 H 0.2524 0.3818 0.8553
C7_4 C 0.3050(4) 0.4230(3) 0.8115(6)
C8_4 C 0.2856(4) 0.3087(3) 0.8194(5)
C9_4 C 0.2765(5) 0.4587(3) 0.8370(6)
C10_4 C 0.3040(4) 0.4933(3) 0.8571(7)
H10_4 H 0.3415 0.4931 0.8553
C11_4 C 0.2177(4) 0.4602(3) 0.8392(8)
H11_4 H 0.1969 0.4391 0.8217
C12_4 C 0.2778(4) 0.5286(3) 0.8800(7)
C13_4 C 0.1936(5) 0.4950(5) 0.8693(14)
C14_4 C 0.1307(5) 0.4944(3) 0.8592(10)
H12_4 H 0.1188 0.4673 0.8529
H13_4 H 0.1138 0.5056 0.9015
H14_4 H 0.1211 0.5098 0.8170
C15_4 C 0.2230(7) 0.5287(4) 0.8794(11)
H15_4 H 0.2050 0.5528 0.8863
C16_4 C 0.3076(4) 0.5650(3) 0.8941(6)
C17_4 C 0.3543(5) 0.5619(3) 0.9383(6)
H16_4 H 0.3662 0.5370 0.9543
C18_4 C 0.3819(5) 0.5962(3) 0.9572(6)
C20_4 C 0.3668(5) 0.6338(4) 0.9293(7)
H17_4 H 0.3864 0.6569 0.9395
C21_4 C 0.2928(4) 0.6016(3) 0.8681(6)
H18_4 H 0.2628 0.6032 0.8379
C22_4 C 0.3191(4) 0.6347(3) 0.8837(6)
C23_4 C 0.3020(4) 0.6756(3) 0.8634(6)
C24_4 C 0.1919(5) 0.2558(3) 0.7238(5)
C25_4 C 0.1657(4) 0.2691(3) 0.6524(5)
C26_4 C 0.1185(4) 0.2910(3) 0.6501(5)
H19_4 H 0.0991 0.2953 0.6927
C27_4 C 0.1938(4) 0.2613(3) 0.5867(6)
H20_4 H 0.2254 0.2463 0.5877
C28_4 C 0.1752(4) 0.2751(3) 0.5233(5)
C29_4 C 0.0997(5) 0.3069(3) 0.5835(6)
C30_4 C 0.1280(4) 0.2982(3) 0.5197(6)
H21_4 H 0.1157 0.3077 0.4751
C31_4 C 0.2042(5) 0.2678(3) 0.4572(6)
C32_4 C 0.0492(4) 0.3293(3) 0.5789(5)
C33_5 C 0.0000 0.3127(4) 0.5946(9)
H22_5 H 0.0000 0.2880 0.6180
C34_4 C 0.0490(4) 0.3662(3) 0.5426(6)
H23_4 H 0.0813 0.3779 0.5284
C35_5 C 0.0000 0.3858(5) 0.5275(14)
C36_5 C 0.0000 0.4324(6) 0.5020(16)
H24_4 H 0.0302 0.4362 0.4736
H25_5 H 0.0000 0.4516 0.5397
H31_4 H 0.5278 0.2858 0.6063
H32_4 H 0.4722 0.5093 0.6462
O21_4 O 0.5559(3) 0.42888(19) 0.6835(4)
O22_4 O 0.5545(4) 0.3619(2) 0.6738(5)
O23_4 O 0.6904(3) 0.28045(17) 0.7924(4)
O24_4 O 0.7562(3) 0.3091(2) 0.8549(4)
O29_4 O 0.6572(3) 0.1926(3) 0.7478(5)
H33_4 H 0.6455 0.1968 0.7043
H34_4 H 0.6401 0.1726 0.7665
O30_4 O 0.8575(4) 0.2912(4) 0.9373(5)
H35_4 H 0.8500 0.3155 0.9463
H36_4 H 0.8664 0.2789 0.9760
C47_4 C 0.5740(4) 0.3946(3) 0.6984(6)
C48_4 C 0.6228(4) 0.3905(3) 0.7477(6)
C49_4 C 0.6483(4) 0.4252(3) 0.7731(5)
H37_4 H 0.6331 0.4501 0.7636
C50_4 C 0.6439(4) 0.3546(3) 0.7633(6)
H38_4 H 0.6269 0.3317 0.7459
C51_4 C 0.6911(4) 0.3505(3) 0.8051(6)
C52_4 C 0.7161(5) 0.3840(3) 0.8281(6)
H39_4 H 0.7476 0.3818 0.8553
C53_4 C 0.6950(4) 0.4230(3) 0.8115(6)
C54_4 C 0.7144(4) 0.3087(3) 0.8194(5)
C55_4 C 0.7235(5) 0.4587(3) 0.8370(6)
C56_4 C 0.6960(4) 0.4933(3) 0.8571(7)
H40_4 H 0.6585 0.4931 0.8553
C57_4 C 0.7823(4) 0.4602(3) 0.8392(8)
H41_4 H 0.8031 0.4391 0.8217
C58_4 C 0.7222(4) 0.5286(3) 0.8800(7)
C59_4 C 0.8064(5) 0.4950(5) 0.8693(14)
C60_4 C 0.8693(5) 0.4944(3) 0.8592(10)
H42_4 H 0.8812 0.4673 0.8529
H43_4 H 0.8862 0.5056 0.9015
H44_4 H 0.8789 0.5098 0.8170
C61_4 C 0.7770(7) 0.5287(4) 0.8794(11)
H45_4 H 0.7950 0.5528 0.8863
C62_4 C 0.6924(4) 0.5650(3) 0.8941(6)
C63_4 C 0.6457(5) 0.5619(3) 0.9383(6)
H46_4 H 0.6338 0.5370 0.9543
C64_4 C 0.6181(5) 0.5962(3) 0.9572(6)
C66_4 C 0.6332(5) 0.6338(4) 0.9293(7)
H47_4 H 0.6136 0.6569 0.9395
C67_4 C 0.7072(4) 0.6016(3) 0.8681(6)
H48_4 H 0.7372 0.6032 0.8379
C68_4 C 0.6809(4) 0.6347(3) 0.8837(6)
C69_4 C 0.6980(4) 0.6756(3) 0.8634(6)
O39_2 O 0.7653(3) 0.2367(2) 0.7203(4)
O40_2 O 0.8325(3) 0.2680(2) 0.7813(4)
C33_6 C 1.0000 0.3127(4) 0.5946(9)
H22_6 H 1.0000 0.2880 0.6180
C35_6 C 1.0000 0.3858(5) 0.5275(14)
C36_6 C 1.0000 0.4324(6) 0.5020(16)
H25_6 H 1.0000 0.4516 0.5397
C37_4 C 0.8081(5) 0.2558(3) 0.7238(5)
C38_4 C 0.8343(4) 0.2691(3) 0.6524(5)
C39_4 C 0.8815(4) 0.2910(3) 0.6501(5)
H26_4 H 0.9009 0.2953 0.6927
C40_4 C 0.8062(4) 0.2613(3) 0.5867(6)
H27_4 H 0.7746 0.2463 0.5877
C41_4 C 0.8248(4) 0.2751(3) 0.5233(5)
C42_4 C 0.9003(5) 0.3069(3) 0.5835(6)
C43_4 C 0.8720(4) 0.2982(3) 0.5197(6)
H28_4 H 0.8843 0.3077 0.4751
C44_4 C 0.7958(5) 0.2678(3) 0.4572(6)
C45_4 C 0.9508(4) 0.3293(3) 0.5789(5)
C46_4 C 0.9510(4) 0.3662(3) 0.5426(6)
H29_4 H 0.9187 0.3779 0.5284
H30_4 H 0.9698 0.4362 0.4736
loop_
_geom_bond_atom_site_label_1
_geom_bond_atom_site_label_2
_geom_bond_site_symmetry_1
_geom_bond_site_symmetry_2
Cu1 Cu2 1_555 1_555
Cu2 O4 1_555 1_555
Cu3 Cu4 1_555 1_555
Cu4 O1 1_555 1_555
O1 C1 1_555 1_555
O2 Cu3 1_555 1_555
O3 Cu1 1_555 1_555
O4 C8 1_555 1_555
O9 Cu1 1_555 1_555
O10 Cu2 1_555 1_555
O13 Cu1 1_555 1_555
H1 O13 1_555 1_555
H2 O13 1_555 1_555
O14 Cu2 1_555 1_555
H3 O14 1_555 1_555
H4 O14 1_555 1_555
O15 Cu3 1_555 1_555
H5 O15 1_555 1_555
C1 O2 1_555 1_555
C2 C1 1_555 1_555
C3 C2 1_555 1_555
H7 C3 1_555 1_555
C4 C2 1_555 1_555
H8 C4 1_555 1_555
C5 C4 1_555 1_555
C6 C5 1_555 1_555
H9 C6 1_555 1_555
C7 C3 1_555 1_555
C8 O3 1_555 1_555
C9 C7 1_555 1_555
C10 C9 1_555 1_555
H10 C10 1_555 1_555
C11 C9 1_555 1_555
H11 C11 1_555 1_555
C13 C11 1_555 1_555
C14 C13 1_555 1_555
H12 C14 1_555 1_555
C24 O9 1_555 1_555
C25 C24 1_555 1_555
C26 C25 1_555 1_555
H19 C26 1_555 1_555
C27 C25 1_555 1_555
H20 C27 1_555 1_555
C28 C27 1_555 1_555
C29 C26 1_555 1_555
C30 C28 1_555 1_555
C32 C29 1_555 1_555
C33 C32 1_555 1_555
H22 C33 1_555 1_555
C34 C32 1_555 1_555
H23 C34 1_555 1_555
C35 C34 1_555 1_555
C36 C35 1_555 1_555
H25 C36 1_555 1_555
O17 C37 1_555 1_555
O18 C37 1_555 1_555
C37 C38 1_555 1_555
C38 C39 1_555 1_555
C39 H26 1_555 1_555
C40 C38 1_555 1_555
H27 C40 1_555 1_555
C41 C40 1_555 1_555
C42 C39 1_555 1_555
C43 C41 1_555 1_555
C45 C33 1_555 1_555
C46 C35 1_555 1_555
H29 C46 1_555 1_555
Cu7 O17 1_555 1_555
Cu12 O18 1_555 1_555
O32 Cu4 1_555 1_555
O34 Cu3 1_555 1_555
O36 Cu2 1_555 1_555
O38 Cu1 1_555 1_555
O41 Cu2 1_555 1_555
O43 Cu1 1_555 1_555
O10 C24 1_555 1_555
C5 C8 1_555 1_555
C6 C7 1_555 1_555
C29 C30 1_555 1_555
C42 C43 1_555 1_555
C42 C45 1_555 1_555
C45 C46 1_555 1_555
Cu7 Cu12 1_555 1_555
O11 C31 1_555 1_555
O12 C31 1_555 1_555
O19 C44 1_555 1_555
O20 C44 1_555 1_555
Cu9 O12 1_555 1_555
Cu11 O20 1_555 1_555
Cu14 O11 1_555 1_555
Cu16 O19 1_555 1_555
Cu9 Cu14 1_555 1_555
Cu11 Cu16 1_555 1_555
O5 C19 1_555 1_555
O6 C19 1_555 1_555
O7 C23 1_555 1_555
O8 C23 1_555 1_555
C15 C12 1_555 1_555
H15 C15 1_555 1_555
C16 C12 1_555 1_555
C17 C16 1_555 1_555
H16 C17 1_555 1_555
C18 C17 1_555 1_555
C19 C18 1_555 1_555
C20 C18 1_555 1_555
H17 C20 1_555 1_555
C21 C16 1_555 1_555
H18 C21 1_555 1_555
C22 C20 1_555 1_555
C23 C22 1_555 1_555
H32 O16 1_555 1_555
Cu10 O8 1_555 1_555
Cu15 O7 1_555 1_555
Cu17 O6 1_555 1_555
Cu18 O5 1_555 1_555
C21 C22 1_555 1_555
Cu10 Cu15 1_555 1_555
Cu17 Cu18 1_555 1_555
Cu3_2 Cu4_2 1_555 1_555
O15_2 Cu3_2 1_555 1_555
H31 O15_2 1_555 1_555
Cu12 O24 1_555 1_555
O21 Cu4_2 1_555 1_555
O22 Cu3_2 1_555 1_555
O23 Cu7 1_555 1_555
O24 C54 1_555 1_555
O29 Cu7 1_555 1_555
H33 O29 1_555 1_555
H34 O29 1_555 1_555
O30 Cu12 1_555 1_555
H35 O30 1_555 1_555
H36 O30 1_555 1_555
C47 O21 1_555 1_555
C48 C47 1_555 1_555
C49 C48 1_555 1_555
H37 C49 1_555 1_555
C50 C48 1_555 1_555
H38 C50 1_555 1_555
C51 C50 1_555 1_555
C52 C51 1_555 1_555
H39 C52 1_555 1_555
C53 C49 1_555 1_555
C54 O23 1_555 1_555
C55 C53 1_555 1_555
C56 C55 1_555 1_555
H40 C56 1_555 1_555
C57 C55 1_555 1_555
H41 C57 1_555 1_555
C59 C57 1_555 1_555
C60 C59 1_555 1_555
H42 C60 1_555 1_555
O31 Cu4_2 1_555 1_555
O33 Cu3_2 1_555 1_555
O35 Cu12 1_555 1_555
O37 Cu7 1_555 1_555
O42 Cu12 1_555 1_555
O44 Cu7 1_555 1_555
O22 C47 1_555 1_555
C51 C54 1_555 1_555
C52 C53 1_555 1_555
H6 O16_2 1_555 1_555
O25 C65 1_555 1_555
O26 C65 1_555 1_555
O27 C69 1_555 1_555
O28 C69 1_555 1_555
C61 C58 1_555 1_555
H45 C61 1_555 1_555
C62 C58 1_555 1_555
C63 C62 1_555 1_555
H46 C63 1_555 1_555
C64 C63 1_555 1_555
C65 C64 1_555 1_555
C66 C64 1_555 1_555
H47 C66 1_555 1_555
C67 C62 1_555 1_555
H48 C67 1_555 1_555
C68 C66 1_555 1_555
C69 C68 1_555 1_555
Cu8 O28 1_555 1_555
Cu13 O27 1_555 1_555
O25 Cu18_2 1_555 1_555
O26 Cu17_2 1_555 1_555
C67 C68 1_555 1_555
Cu8 Cu13 1_555 1_555
Cu17_2 Cu18_2 1_555 1_555
O32 C65_2 1_555 1_555
O34 C65_2 1_555 1_555
H6_2 O16_3 1_555 1_555
O27_2 C69_2 1_555 1_555
O28_2 C69_2 1_555 1_555
C61_2 C58_2 1_555 1_555
H45_2 C61_2 1_555 1_555
C62_2 C58_2 1_555 1_555
C63_2 C62_2 1_555 1_555
H46_2 C63_2 1_555 1_555
C64_2 C63_2 1_555 1_555
C66_2 C64_2 1_555 1_555
H47_2 C66_2 1_555 1_555
C67_2 C62_2 1_555 1_555
H48_2 C67_2 1_555 1_555
C68_2 C66_2 1_555 1_555
C69_2 C68_2 1_555 1_555
Cu9 O28_2 1_555 1_555
Cu14 O27_2 1_555 1_555
C67_2 C68_2 1_555 1_555
O15_3 Cu17 1_555 1_555
H31_2 O15_3 1_555 1_555
Cu5 Cu6 1_555 1_555
Cu6 O24_2 1_555 1_555
O21_2 Cu18 1_555 1_555
O22_2 Cu17 1_555 1_555
O23_2 Cu5 1_555 1_555
O24_2 C54_2 1_555 1_555
O29_2 Cu5 1_555 1_555
H33_2 O29_2 1_555 1_555
H34_2 O29_2 1_555 1_555
O30_2 Cu6 1_555 1_555
H35_2 O30_2 1_555 1_555
H36_2 O30_2 1_555 1_555
C47_2 O21_2 1_555 1_555
C48_2 C47_2 1_555 1_555
C49_2 C48_2 1_555 1_555
H37_2 C49_2 1_555 1_555
C50_2 C48_2 1_555 1_555
H38_2 C50_2 1_555 1_555
C51_2 C50_2 1_555 1_555
C52_2 C51_2 1_555 1_555
H39_2 C52_2 1_555 1_555
C53_2 C49_2 1_555 1_555
C54_2 O23_2 1_555 1_555
C55_2 C53_2 1_555 1_555
C56_2 C55_2 1_555 1_555
H40_2 C56_2 1_555 1_555
C57_2 C55_2 1_555 1_555
H41_2 C57_2 1_555 1_555
C59_2 C57_2 1_555 1_555
C60_2 C59_2 1_555 1_555
H42_2 C60_2 1_555 1_555
O35_2 Cu6 1_555 1_555
O37_2 Cu5 1_555 1_555
O39 Cu5 1_555 1_555
O40 Cu6 1_555 1_555
O42_2 Cu6 1_555 1_555
O44_2 Cu5 1_555 1_555
O22_2 C47_2 1_555 1_555
C51_2 C54_2 1_555 1_555
C52_2 C53_2 1_555 1_555
O31 C19_2 1_555 1_555
O33 C19_2 1_555 1_555
O7_2 C23_2 1_555 1_555
O8_2 C23_2 1_555 1_555
C15_2 C12_2 1_555 1_555
H15_2 C15_2 1_555 1_555
C16_2 C12_2 1_555 1_555
C17_2 C16_2 1_555 1_555
H16_2 C17_2 1_555 1_555
C18_2 C17_2 1_555 1_555
C20_2 C18_2 1_555 1_555
H17_2 C20_2 1_555 1_555
C21_2 C16_2 1_555 1_555
H18_2 C21_2 1_555 1_555
C22_2 C20_2 1_555 1_555
C23_2 C22_2 1_555 1_555
H32_2 O16_4 1_555 1_555
Cu11 O8_2 1_555 1_555
Cu16 O7_2 1_555 1_555
C21_2 C22_2 1_555 1_555
Cu1_2 Cu2_2 1_555 1_555
Cu2_2 O4_2 1_555 1_555
Cu18_2 O1_2 1_555 1_555
O1_2 C1_2 1_555 1_555
O2_2 Cu17_2 1_555 1_555
O3_2 Cu1_2 1_555 1_555
O4_2 C8_2 1_555 1_555
O9_2 Cu1_2 1_555 1_555
O10_2 Cu2_2 1_555 1_555
O11_2 C31_2 1_555 1_555
O12_2 C31_2 1_555 1_555
O13_2 Cu1_2 1_555 1_555
H1_2 O13_2 1_555 1_555
H2_2 O13_2 1_555 1_555
O14_2 Cu2_2 1_555 1_555
H3_2 O14_2 1_555 1_555
H4_2 O14_2 1_555 1_555
O15_4 Cu17_2 1_555 1_555
H5_2 O15_4 1_555 1_555
C1_2 O2_2 1_555 1_555
C2_2 C1_2 1_555 1_555
C3_2 C2_2 1_555 1_555
H7_2 C3_2 1_555 1_555
C4_2 C2_2 1_555 1_555
H8_2 C4_2 1_555 1_555
C5_2 C4_2 1_555 1_555
C6_2 C5_2 1_555 1_555
H9_2 C6_2 1_555 1_555
C7_2 C3_2 1_555 1_555
C8_2 O3_2 1_555 1_555
C9_2 C7_2 1_555 1_555
C10_2 C9_2 1_555 1_555
H10_2 C10_2 1_555 1_555
C11_2 C9_2 1_555 1_555
H11_2 C11_2 1_555 1_555
C13_2 C11_2 1_555 1_555
C14_2 C13_2 1_555 1_555
H12_2 C14_2 1_555 1_555
C24_2 O9_2 1_555 1_555
C25_2 C24_2 1_555 1_555
C26_2 C25_2 1_555 1_555
H19_2 C26_2 1_555 1_555
C27_2 C25_2 1_555 1_555
H20_2 C27_2 1_555 1_555
C28_2 C27_2 1_555 1_555
C29_2 C26_2 1_555 1_555
C30_2 C28_2 1_555 1_555
H21_2 C30_2 1_555 1_555
C31_2 C28_2 1_555 1_555
C32_2 C29_2 1_555 1_555
C33_2 C32_2 1_555 1_555
H22_2 C33_2 1_555 1_555
C34_2 C32_2 1_555 1_555
H23_2 C34_2 1_555 1_555
C35_2 C34_2 1_555 1_555
C36_2 C35_2 1_555 1_555
H24_2 C36_2 1_555 1_555
H25_2 C36_2 1_555 1_555
O39 C37_2 1_555 1_555
O40 C37_2 1_555 1_555
O19_2 C44_2 1_555 1_555
O20_2 C44_2 1_555 1_555
C37_2 C38_2 1_555 1_555
C38_2 C39_2 1_555 1_555
C39_2 H26_2 1_555 1_555
C40_2 C38_2 1_555 1_555
H27_2 C40_2 1_555 1_555
C41_2 C40_2 1_555 1_555
C42_2 C39_2 1_555 1_555
C43_2 C41_2 1_555 1_555
H28_2 C43_2 1_555 1_555
C44_2 C41_2 1_555 1_555
C45_2 C33_2 1_555 1_555
C46_2 C35_2 1_555 1_555
H29_2 C46_2 1_555 1_555
H30_2 C36_2 1_555 1_555
Cu8 O12_2 1_555 1_555
Cu10 O20_2 1_555 1_555
Cu13 O11_2 1_555 1_555
Cu15 O19_2 1_555 1_555
O36_2 Cu2_2 1_555 1_555
O38_2 Cu1_2 1_555 1_555
O41_2 Cu2_2 1_555 1_555
O43_2 Cu1_2 1_555 1_555
O10_2 C24_2 1_555 1_555
C5_2 C8_2 1_555 1_555
C6_2 C7_2 1_555 1_555
C29_2 C30_2 1_555 1_555
C42_2 C43_2 1_555 1_555
C42_2 C45_2 1_555 1_555
C45_2 C46_2 1_555 1_555
H22_3 C33_3 1_555 1_555
C36_3 C35_3 1_555 1_555
H25_3 C36_3 1_555 1_555
O17_2 C37_3 1_555 1_555
O18_2 C37_3 1_555 1_555
C37_3 C38_3 1_555 1_555
C38_3 C39_3 1_555 1_555
C39_3 H26_3 1_555 1_555
C40_3 C38_3 1_555 1_555
H27_3 C40_3 1_555 1_555
C41_3 C40_3 1_555 1_555
C42_3 C39_3 1_555 1_555
C43_3 C41_3 1_555 1_555
C45_3 C33_3 1_555 1_555
C46_3 C35_3 1_555 1_555
H29_3 C46_3 1_555 1_555
Cu10 O17_2 1_555 1_555
Cu15 O18_2 1_555 1_555
C42_3 C43_3 1_555 1_555
C42_3 C45_3 1_555 1_555
C45_3 C46_3 1_555 1_555
O42_2 C44_3 1_555 1_555
O44_2 C44_3 1_555 1_555
Cu13 O4_3 1_555 1_555
Cu3_3 Cu4_3 1_555 1_555
Cu4_3 O1_3 1_555 1_555
O1_3 C1_3 1_555 1_555
O2_3 Cu3_3 1_555 1_555
O3_3 Cu8 1_555 1_555
O4_3 C8_3 1_555 1_555
O5_2 C19_3 1_555 1_555
O6_2 C19_3 1_555 1_555
O35 C23_3 1_555 1_555
O37 C23_3 1_555 1_555
O9_3 Cu8 1_555 1_555
O10_3 Cu13 1_555 1_555
O13_3 Cu8 1_555 1_555
H1_3 O13_3 1_555 1_555
H2_3 O13_3 1_555 1_555
O14_3 Cu13 1_555 1_555
H3_3 O14_3 1_555 1_555
H4_3 O14_3 1_555 1_555
O15_5 Cu3_3 1_555 1_555
H5_3 O15_5 1_555 1_555
O16_5 Cu4_3 1_555 1_555
H6_3 O16_5 1_555 1_555
C1_3 O2_3 1_555 1_555
C2_3 C1_3 1_555 1_555
C3_3 C2_3 1_555 1_555
H7_3 C3_3 1_555 1_555
C4_3 C2_3 1_555 1_555
H8_3 C4_3 1_555 1_555
C5_3 C4_3 1_555 1_555
C6_3 C5_3 1_555 1_555
H9_3 C6_3 1_555 1_555
C7_3 C3_3 1_555 1_555
C8_3 O3_3 1_555 1_555
C9_3 C7_3 1_555 1_555
C10_3 C9_3 1_555 1_555
H10_3 C10_3 1_555 1_555
C11_3 C9_3 1_555 1_555
H11_3 C11_3 1_555 1_555
C12_3 C10_3 1_555 1_555
C13_3 C11_3 1_555 1_555
C14_3 C13_3 1_555 1_555
H12_3 C14_3 1_555 1_555
H13_3 C14_3 1_555 1_555
H14_3 C14_3 1_555 1_555
C15_3 C12_3 1_555 1_555
H15_3 C15_3 1_555 1_555
C16_3 C12_3 1_555 1_555
C17_3 C16_3 1_555 1_555
H16_3 C17_3 1_555 1_555
C18_3 C17_3 1_555 1_555
C19_3 C18_3 1_555 1_555
C20_3 C18_3 1_555 1_555
H17_3 C20_3 1_555 1_555
C21_3 C16_3 1_555 1_555
H18_3 C21_3 1_555 1_555
C22_3 C20_3 1_555 1_555
C23_3 C22_3 1_555 1_555
C24_3 O9_3 1_555 1_555
C25_3 C24_3 1_555 1_555
C26_3 C25_3 1_555 1_555
H19_3 C26_3 1_555 1_555
C27_3 C25_3 1_555 1_555
H20_3 C27_3 1_555 1_555
C28_3 C27_3 1_555 1_555
C29_3 C26_3 1_555 1_555
C30_3 C28_3 1_555 1_555
C32_3 C29_3 1_555 1_555
C33_4 C32_3 1_555 1_555
H22_4 C33_4 1_555 1_555
C34_3 C32_3 1_555 1_555
H23_3 C34_3 1_555 1_555
C35_4 C34_3 1_555 1_555
C36_4 C35_4 1_555 1_555
H25_4 C36_4 1_555 1_555
H31_3 O15_5 1_555 1_555
H32_3 O16_5 1_555 1_555
Cu15 O24_3 1_555 1_555
O21_3 Cu4_3 1_555 1_555
O22_3 Cu3_3 1_555 1_555
O23_3 Cu10 1_555 1_555
O24_3 C54_3 1_555 1_555
O25_2 C65_3 1_555 1_555
O26_2 C65_3 1_555 1_555
O36 C69_3 1_555 1_555
O38 C69_3 1_555 1_555
O29_3 Cu10 1_555 1_555
H33_3 O29_3 1_555 1_555
H34_3 O29_3 1_555 1_555
O30_3 Cu15 1_555 1_555
H35_3 O30_3 1_555 1_555
H36_3 O30_3 1_555 1_555
C47_3 O21_3 1_555 1_555
C48_3 C47_3 1_555 1_555
C49_3 C48_3 1_555 1_555
H37_3 C49_3 1_555 1_555
C50_3 C48_3 1_555 1_555
H38_3 C50_3 1_555 1_555
C51_3 C50_3 1_555 1_555
C52_3 C51_3 1_555 1_555
H39_3 C52_3 1_555 1_555
C53_3 C49_3 1_555 1_555
C54_3 O23_3 1_555 1_555
C55_3 C53_3 1_555 1_555
C56_3 C55_3 1_555 1_555
H40_3 C56_3 1_555 1_555
C57_3 C55_3 1_555 1_555
H41_3 C57_3 1_555 1_555
C58_3 C56_3 1_555 1_555
C59_3 C57_3 1_555 1_555
C60_3 C59_3 1_555 1_555
H42_3 C60_3 1_555 1_555
H43_3 C60_3 1_555 1_555
H44_3 C60_3 1_555 1_555
C61_3 C58_3 1_555 1_555
H45_3 C61_3 1_555 1_555
C62_3 C58_3 1_555 1_555
C63_3 C62_3 1_555 1_555
H46_3 C63_3 1_555 1_555
C64_3 C63_3 1_555 1_555
C65_3 C64_3 1_555 1_555
C66_3 C64_3 1_555 1_555
H47_3 C66_3 1_555 1_555
C67_3 C62_3 1_555 1_555
H48_3 C67_3 1_555 1_555
C68_3 C66_3 1_555 1_555
C69_3 C68_3 1_555 1_555
Cu17_3 O6_2 1_555 1_555
Cu18_3 O5_2 1_555 1_555
O31_2 Cu4_3 1_555 1_555
O32_2 Cu4_3 1_555 1_555
O33_2 Cu3_3 1_555 1_555
O34_2 Cu3_3 1_555 1_555
O10_3 C24_3 1_555 1_555
C5_3 C8_3 1_555 1_555
C6_3 C7_3 1_555 1_555
C13_3 C15_3 1_555 1_555
C21_3 C22_3 1_555 1_555
C29_3 C30_3 1_555 1_555
O22_3 C47_3 1_555 1_555
O25_2 Cu18_3 1_555 1_555
O26_2 Cu17_3 1_555 1_555
C51_3 C54_3 1_555 1_555
C52_3 C53_3 1_555 1_555
C59_3 C61_3 1_555 1_555
C67_3 C68_3 1_555 1_555
Cu17_3 Cu18_3 1_555 1_555
O41_2 C31_3 1_555 1_555
O43_2 C31_3 1_555 1_555
O31_2 C19_4 1_555 1_555
O33_2 C19_4 1_555 1_555
O32_2 C65_4 1_555 1_555
O34_2 C65_4 1_555 1_555
Cu14 O4_4 1_555 1_555
Cu18_3 O1_4 1_555 1_555
O1_4 C1_4 1_555 1_555
O2_4 Cu17_3 1_555 1_555
O3_4 Cu9 1_555 1_555
O4_4 C8_4 1_555 1_555
O35_2 C23_4 1_555 1_555
O37_2 C23_4 1_555 1_555
O9_4 Cu9 1_555 1_555
O10_4 Cu14 1_555 1_555
O41 C31_4 1_555 1_555
O43 C31_4 1_555 1_555
O13_4 Cu9 1_555 1_555
H1_4 O13_4 1_555 1_555
H2_4 O13_4 1_555 1_555
O14_4 Cu14 1_555 1_555
H3_4 O14_4 1_555 1_555
H4_4 O14_4 1_555 1_555
O15_6 Cu17_3 1_555 1_555
H5_4 O15_6 1_555 1_555
O16_6 Cu18_3 1_555 1_555
H6_4 O16_6 1_555 1_555
C1_4 O2_4 1_555 1_555
C2_4 C1_4 1_555 1_555
C3_4 C2_4 1_555 1_555
H7_4 C3_4 1_555 1_555
C4_4 C2_4 1_555 1_555
H8_4 C4_4 1_555 1_555
C5_4 C4_4 1_555 1_555
C6_4 C5_4 1_555 1_555
H9_4 C6_4 1_555 1_555
C7_4 C3_4 1_555 1_555
C8_4 O3_4 1_555 1_555
C9_4 C7_4 1_555 1_555
C10_4 C9_4 1_555 1_555
H10_4 C10_4 1_555 1_555
C11_4 C9_4 1_555 1_555
H11_4 C11_4 1_555 1_555
C12_4 C10_4 1_555 1_555
C13_4 C11_4 1_555 1_555
C14_4 C13_4 1_555 1_555
H12_4 C14_4 1_555 1_555
H13_4 C14_4 1_555 1_555
H14_4 C14_4 1_555 1_555
C15_4 C12_4 1_555 1_555
H15_4 C15_4 1_555 1_555
C16_4 C12_4 1_555 1_555
C17_4 C16_4 1_555 1_555
H16_4 C17_4 1_555 1_555
C18_4 C17_4 1_555 1_555
C20_4 C18_4 1_555 1_555
H17_4 C20_4 1_555 1_555
C21_4 C16_4 1_555 1_555
H18_4 C21_4 1_555 1_555
C22_4 C20_4 1_555 1_555
C23_4 C22_4 1_555 1_555
C24_4 O9_4 1_555 1_555
C25_4 C24_4 1_555 1_555
C26_4 C25_4 1_555 1_555
H19_4 C26_4 1_555 1_555
C27_4 C25_4 1_555 1_555
H20_4 C27_4 1_555 1_555
C28_4 C27_4 1_555 1_555
C29_4 C26_4 1_555 1_555
C30_4 C28_4 1_555 1_555
H21_4 C30_4 1_555 1_555
C31_4 C28_4 1_555 1_555
C32_4 C29_4 1_555 1_555
C33_5 C32_4 1_555 1_555
H22_5 C33_5 1_555 1_555
C34_4 C32_4 1_555 1_555
H23_4 C34_4 1_555 1_555
C35_5 C34_4 1_555 1_555
C36_5 C35_5 1_555 1_555
H24_4 C36_5 1_555 1_555
H25_5 C36_5 1_555 1_555
H31_4 O15_6 1_555 1_555
H32_4 O16_6 1_555 1_555
Cu16 O24_4 1_555 1_555
O21_4 Cu18_3 1_555 1_555
O22_4 Cu17_3 1_555 1_555
O23_4 Cu11 1_555 1_555
O24_4 C54_4 1_555 1_555
O36_2 C69_4 1_555 1_555
O38_2 C69_4 1_555 1_555
O29_4 Cu11 1_555 1_555
H33_4 O29_4 1_555 1_555
H34_4 O29_4 1_555 1_555
O30_4 Cu16 1_555 1_555
H35_4 O30_4 1_555 1_555
H36_4 O30_4 1_555 1_555
C47_4 O21_4 1_555 1_555
C48_4 C47_4 1_555 1_555
C49_4 C48_4 1_555 1_555
H37_4 C49_4 1_555 1_555
C50_4 C48_4 1_555 1_555
H38_4 C50_4 1_555 1_555
C51_4 C50_4 1_555 1_555
C52_4 C51_4 1_555 1_555
H39_4 C52_4 1_555 1_555
C53_4 C49_4 1_555 1_555
C54_4 O23_4 1_555 1_555
C55_4 C53_4 1_555 1_555
C56_4 C55_4 1_555 1_555
H40_4 C56_4 1_555 1_555
C57_4 C55_4 1_555 1_555
H41_4 C57_4 1_555 1_555
C58_4 C56_4 1_555 1_555
C59_4 C57_4 1_555 1_555
C60_4 C59_4 1_555 1_555
H42_4 C60_4 1_555 1_555
H43_4 C60_4 1_555 1_555
H44_4 C60_4 1_555 1_555
C61_4 C58_4 1_555 1_555
H45_4 C61_4 1_555 1_555
C62_4 C58_4 1_555 1_555
C63_4 C62_4 1_555 1_555
H46_4 C63_4 1_555 1_555
C64_4 C63_4 1_555 1_555
C66_4 C64_4 1_555 1_555
H47_4 C66_4 1_555 1_555
C67_4 C62_4 1_555 1_555
H48_4 C67_4 1_555 1_555
C68_4 C66_4 1_555 1_555
C69_4 C68_4 1_555 1_555
O39_2 Cu11 1_555 1_555
O40_2 Cu16 1_555 1_555
O10_4 C24_4 1_555 1_555
C5_4 C8_4 1_555 1_555
C6_4 C7_4 1_555 1_555
C13_4 C15_4 1_555 1_555
C21_4 C22_4 1_555 1_555
C29_4 C30_4 1_555 1_555
O22_4 C47_4 1_555 1_555
C51_4 C54_4 1_555 1_555
C52_4 C53_4 1_555 1_555
C59_4 C61_4 1_555 1_555
C67_4 C68_4 1_555 1_555
H22_6 C33_6 1_555 1_555
C36_6 C35_6 1_555 1_555
H25_6 C36_6 1_555 1_555
O39_2 C37_4 1_555 1_555
O40_2 C37_4 1_555 1_555
O42 C44_4 1_555 1_555
O44 C44_4 1_555 1_555
C37_4 C38_4 1_555 1_555
C38_4 C39_4 1_555 1_555
C39_4 H26_4 1_555 1_555
C40_4 C38_4 1_555 1_555
H27_4 C40_4 1_555 1_555
C41_4 C40_4 1_555 1_555
C42_4 C39_4 1_555 1_555
C43_4 C41_4 1_555 1_555
H28_4 C43_4 1_555 1_555
C44_4 C41_4 1_555 1_555
C45_4 C33_6 1_555 1_555
C46_4 C35_6 1_555 1_555
H29_4 C46_4 1_555 1_555
H30_4 C36_6 1_555 1_555
C42_4 C43_4 1_555 1_555
C42_4 C45_4 1_555 1_555
C45_4 C46_4 1_555 1_555

#END
