
###############################################################################
#
# This file contains modified crystal structure data generated from the
# MOF subset of the Cambridge Structural Database (CSD) v543 
# hosted by the Cambridge Crystallographic Data Centre (CCDC).
#
# This work is licensed under the Creative Commons
# Attribution-NonCommercial-ShareAlike 4.0 International License.
# To view a copy of this license, visit
# http://creativecommons.org/licenses/by-nc-sa/4.0/
# or send a letter to
# Creative Commons, PO Box 1866, Mountain View, CA 94042, USA.
#
# CIF created using the CSD Python API on 29 September 2022
# The structure has been converted into the P1 space group
# The structure has a 3D framework
# The original CSD entry HIFGIO is in the monoclinic crystal system
# The framework has been calculated to contain at least 10.0% void space
# The void calculation uses a probe of radius 1.32A, grid spacing 0.4
#
###############################################################################

data_HIFGIO
_chemical_formula_moiety         '(C88 H64 O22 Zn10)n'
_symmetry_cell_setting           triclinic
_symmetry_space_group_name_H-M   'P 1'
_symmetry_Int_Tables_number      1
_space_group_name_Hall           'P 1'
loop_
_symmetry_equiv_pos_site_id
_symmetry_equiv_pos_as_xyz
1 x,y,z
_cell_length_a                   29.411(4)
_cell_length_b                   24.104(7)
_cell_length_c                   5.966(5)
_cell_angle_alpha                90
_cell_angle_beta                 100.043(5)
_cell_angle_gamma                90
_cell_volume                     4164.63
loop_
_atom_site_label
_atom_site_type_symbol
_atom_site_fract_x
_atom_site_fract_y
_atom_site_fract_z
Zn9 Zn 0.5000 0.43988(3) 0.0000
Zn2 Zn -0.0000 0.06012(3) 0.0000
O4 O 0.4546(4) 0.4416(5) 0.5403(10)
O5 O 0.45344(13) 0.39304(14) 0.8267(5)
C12 C 0.4387(2) 0.4043(3) 0.6262(9)
C13 C 0.4004(2) 0.3711(3) 0.5007(8)
C14 C 0.3809(2) 0.3300(3) 0.5984(10)
H9 H 0.3923 0.3204 0.7523
C15 C 0.3441(3) 0.3012(4) 0.4771(13)
H10 H 0.3307 0.2724 0.5528
C16 C 0.3259(2) 0.3115(3) 0.2583(9)
C17 C 0.3460(4) 0.3523(5) 0.1632(13)
H11 H 0.3334 0.3625 0.0112
C18 C 0.3838(5) 0.3804(6) 0.2721(13)
H12 H 0.3988 0.4064 0.1904
C19 C 0.2865(2) 0.2798(3) 0.1256(9)
C20 C 0.2411(3) 0.2895(4) 0.1549(15)
C21 C 0.2063(3) 0.2578(4) 0.0261(13)
H13 H 0.1755 0.2635 0.0488
C22 C 0.2288(4) 0.3236(4) 0.3589(17)
H14 H 0.1952 0.3260 0.3454
H15 H 0.2418 0.3053 0.5022
H16 H 0.2417 0.3611 0.3569
Zn5 Zn 0.5000 0.5000 0.5000
Zn9_2 Zn 0.5000 0.43988(3) 1.0000
O13 O 0.04656(13) 0.10696(14) 0.1733(5)
Zn1 Zn -0.0000 0.0000 0.5000
Zn2_2 Zn -0.0000 0.06012(3) 1.0000
O1 O 0.0454(4) 0.0584(5) 0.4597(10)
O3 O 0.02831(15) 0.0000 0.8373(7)
C1 C 0.0613(2) 0.0957(3) 0.3738(9)
C2 C 0.0996(2) 0.1289(3) 0.4993(8)
C3 C 0.1191(2) 0.1700(3) 0.4016(10)
H1 H 0.1077 0.1796 0.2477
C4 C 0.1559(3) 0.1988(4) 0.5229(13)
H2 H 0.1693 0.2276 0.4472
C5 C 0.1741(2) 0.1885(3) 0.7417(9)
C6 C 0.1540(4) 0.1477(5) 0.8368(13)
H3 H 0.1666 0.1375 0.9888
C7 C 0.1162(5) 0.1196(6) 0.7279(13)
H4 H 0.1012 0.0936 0.8096
C8 C 0.2135(2) 0.2202(3) 0.8744(9)
C9 C 0.2589(3) 0.2105(4) 0.8451(15)
C10 C 0.2937(3) 0.2422(4) 0.9739(13)
H5 H 0.3245 0.2365 0.9512
C11 C 0.2712(4) 0.1764(4) 0.6411(17)
H6 H 0.3048 0.1740 0.6546
H7 H 0.2582 0.1947 0.4978
H8 H 0.2583 0.1389 0.6431
Zn3 Zn -0.0000 0.93988(3) 0.0000
O15 O 0.04656(13) 0.89304(14) 0.1733(5)
Zn1_2 Zn -0.0000 1.0000 0.5000
O3_2 O 0.02831(15) 1.0000 0.8373(7)
Zn3_2 Zn -0.0000 0.93988(3) 1.0000
O12 O 0.0454(4) 0.9416(5) 0.4597(10)
Zn2_3 Zn 1.0000 0.06012(3) 0.0000
O16 O 0.97169(15) 0.0000 0.1627(7)
Zn1_3 Zn 1.0000 0.0000 0.5000
Zn2_4 Zn 1.0000 0.06012(3) 1.0000
O6 O 0.9546(4) 0.0584(5) 0.5403(10)
O7 O 0.95344(13) 0.10696(14) 0.8267(5)
C23 C 0.9387(2) 0.0957(3) 0.6262(9)
C24 C 0.9004(2) 0.1289(3) 0.5007(8)
C25 C 0.8809(2) 0.1700(3) 0.5984(10)
H17 H 0.8923 0.1796 0.7523
C26 C 0.8441(3) 0.1988(4) 0.4771(13)
H18 H 0.8307 0.2276 0.5528
C27 C 0.8259(2) 0.1885(3) 0.2583(9)
C28 C 0.8460(4) 0.1477(5) 0.1632(13)
H19 H 0.8334 0.1375 0.0112
C29 C 0.8838(5) 0.1196(6) 0.2721(13)
H20 H 0.8988 0.0936 0.1904
C30 C 0.7865(2) 0.2202(3) 0.1256(9)
C31 C 0.7411(3) 0.2105(4) 0.1549(15)
C32 C 0.7063(3) 0.2422(4) 0.0261(13)
H21 H 0.6755 0.2365 0.0488
C33 C 0.7288(4) 0.1764(4) 0.3589(17)
H22 H 0.6952 0.1740 0.3454
H23 H 0.7418 0.1947 0.5022
H24 H 0.7417 0.1389 0.3569
O9 O 0.5454(4) 0.4416(5) 0.4597(10)
O10 O 0.54656(13) 0.39304(14) 0.1733(5)
C34 C 0.5613(2) 0.4043(3) 0.3738(9)
C35 C 0.5996(2) 0.3711(3) 0.4993(8)
C36 C 0.6191(2) 0.3300(3) 0.4016(10)
H25 H 0.6077 0.3204 0.2477
C37 C 0.6559(3) 0.3012(4) 0.5229(13)
H26 H 0.6693 0.2724 0.4472
C38 C 0.6741(2) 0.3115(3) 0.7417(9)
C39 C 0.6540(4) 0.3523(5) 0.8368(13)
H27 H 0.6666 0.3625 0.9888
C40 C 0.6162(5) 0.3804(6) 0.7279(13)
H28 H 0.6012 0.4064 0.8096
C41 C 0.7135(2) 0.2798(3) 0.8744(9)
C42 C 0.7589(3) 0.2895(4) 0.8451(15)
C43 C 0.7937(3) 0.2578(4) 0.9739(13)
H29 H 0.8245 0.2635 0.9512
C44 C 0.7712(4) 0.3236(4) 0.6411(17)
H30 H 0.8048 0.3260 0.6546
H31 H 0.7582 0.3053 0.4978
H32 H 0.7583 0.3611 0.6431
Zn3_3 Zn 1.0000 0.93988(3) 0.0000
O16_2 O 0.97169(15) 1.0000 0.1627(7)
Zn1_4 Zn 1.0000 1.0000 0.5000
Zn3_4 Zn 1.0000 0.93988(3) 1.0000
O11 O 0.9546(4) 0.9416(5) 0.5403(10)
O14 O 0.95344(13) 0.89304(14) 0.8267(5)
Zn2_5 Zn 0.5000 0.56012(3) 0.0000
C12_2 C 0.9387(2) 0.9043(3) 0.6262(9)
C13_2 C 0.9004(2) 0.8711(3) 0.5007(8)
C14_2 C 0.8809(2) 0.8300(3) 0.5984(10)
H9_2 H 0.8923 0.8204 0.7523
C15_2 C 0.8441(3) 0.8012(4) 0.4771(13)
H10_2 H 0.8307 0.7724 0.5528
C16_2 C 0.8259(2) 0.8115(3) 0.2583(9)
C17_2 C 0.8460(4) 0.8523(5) 0.1632(13)
H11_2 H 0.8334 0.8625 0.0112
C18_2 C 0.8838(5) 0.8804(6) 0.2721(13)
H12_2 H 0.8988 0.9064 0.1904
C19_2 C 0.7865(2) 0.7798(3) 0.1256(9)
C20_2 C 0.7411(3) 0.7895(4) 0.1549(15)
C21_2 C 0.7063(3) 0.7578(4) 0.0261(13)
H13_2 H 0.6755 0.7635 0.0488
C22_2 C 0.7288(4) 0.8236(4) 0.3589(17)
H14_2 H 0.6952 0.8260 0.3454
H15_2 H 0.7418 0.8053 0.5022
H16_2 H 0.7417 0.8611 0.3569
O13_2 O 0.54656(13) 0.60696(14) 0.1733(5)
O16_3 O 0.47169(15) 0.5000 0.1627(7)
Zn2_6 Zn 0.5000 0.56012(3) 1.0000
O1_2 O 0.5454(4) 0.5584(5) 0.4597(10)
O3_3 O 0.52831(15) 0.5000 0.8373(7)
C1_2 C 0.5613(2) 0.5957(3) 0.3738(9)
C2_2 C 0.5996(2) 0.6289(3) 0.4993(8)
C3_2 C 0.6191(2) 0.6700(3) 0.4016(10)
H1_2 H 0.6077 0.6796 0.2477
C4_2 C 0.6559(3) 0.6988(4) 0.5229(13)
H2_2 H 0.6693 0.7276 0.4472
C5_2 C 0.6741(2) 0.6885(3) 0.7417(9)
C6_2 C 0.6540(4) 0.6477(5) 0.8368(13)
H3_2 H 0.6666 0.6375 0.9888
C7_2 C 0.6162(5) 0.6196(6) 0.7279(13)
H4_2 H 0.6012 0.5936 0.8096
C8_2 C 0.7135(2) 0.7202(3) 0.8744(9)
C9_2 C 0.7589(3) 0.7105(4) 0.8451(15)
C10_2 C 0.7937(3) 0.7422(4) 0.9739(13)
H5_2 H 0.8245 0.7365 0.9512
C11_2 C 0.7712(4) 0.6764(4) 0.6411(17)
H6_2 H 0.8048 0.6740 0.6546
H7_2 H 0.7582 0.6947 0.4978
H8_2 H 0.7583 0.6389 0.6431
O6_2 O 0.4546(4) 0.5584(5) 0.5403(10)
O7_2 O 0.45344(13) 0.60696(14) 0.8267(5)
C23_2 C 0.4387(2) 0.5957(3) 0.6262(9)
C24_2 C 0.4004(2) 0.6289(3) 0.5007(8)
C25_2 C 0.3809(2) 0.6700(3) 0.5984(10)
H17_2 H 0.3923 0.6796 0.7523
C26_2 C 0.3441(3) 0.6988(4) 0.4771(13)
H18_2 H 0.3307 0.7276 0.5528
C27_2 C 0.3259(2) 0.6885(3) 0.2583(9)
C28_2 C 0.3460(4) 0.6477(5) 0.1632(13)
H19_2 H 0.3334 0.6375 0.0112
C29_2 C 0.3838(5) 0.6196(6) 0.2721(13)
H20_2 H 0.3988 0.5936 0.1904
C30_2 C 0.2865(2) 0.7202(3) 0.1256(9)
C31_2 C 0.2411(3) 0.7105(4) 0.1549(15)
C32_2 C 0.2063(3) 0.7422(4) 0.0261(13)
H21_2 H 0.1755 0.7365 0.0488
C33_2 C 0.2288(4) 0.6764(4) 0.3589(17)
H22_2 H 0.1952 0.6740 0.3454
H23_2 H 0.2418 0.6947 0.5022
H24_2 H 0.2417 0.6389 0.3569
C34_2 C 0.0613(2) 0.9043(3) 0.3738(9)
C35_2 C 0.0996(2) 0.8711(3) 0.4993(8)
C36_2 C 0.1191(2) 0.8300(3) 0.4016(10)
H25_2 H 0.1077 0.8204 0.2477
C37_2 C 0.1559(3) 0.8012(4) 0.5229(13)
H26_2 H 0.1693 0.7724 0.4472
C38_2 C 0.1741(2) 0.8115(3) 0.7417(9)
C39_2 C 0.1540(4) 0.8523(5) 0.8368(13)
H27_2 H 0.1666 0.8625 0.9888
C40_2 C 0.1162(5) 0.8804(6) 0.7279(13)
H28_2 H 0.1012 0.9064 0.8096
C41_2 C 0.2135(2) 0.7798(3) 0.8744(9)
C42_2 C 0.2589(3) 0.7895(4) 0.8451(15)
C43_2 C 0.2937(3) 0.7578(4) 0.9739(13)
H29_2 H 0.3245 0.7635 0.9512
C44_2 C 0.2712(4) 0.8236(4) 0.6411(17)
H30_2 H 0.3048 0.8260 0.6546
H31_2 H 0.2582 0.8053 0.4978
H32_2 H 0.2583 0.8611 0.6431
loop_
_geom_bond_atom_site_label_1
_geom_bond_atom_site_label_2
_geom_bond_site_symmetry_1
_geom_bond_site_symmetry_2
O4 C12 1_555 1_555
O5 C12 1_555 1_555
C12 C13 1_555 1_555
C13 C14 1_555 1_555
C14 H9 1_555 1_555
C15 C14 1_555 1_555
H10 C15 1_555 1_555
C16 C15 1_555 1_555
C17 C16 1_555 1_555
H11 C17 1_555 1_555
C18 C13 1_555 1_555
H12 C18 1_555 1_555
C20 C19 1_555 1_555
H13 C21 1_555 1_555
C22 C20 1_555 1_555
H14 C22 1_555 1_555
H15 C22 1_555 1_555
H16 C22 1_555 1_555
Zn5 O4 1_555 1_555
Zn9_2 O5 1_555 1_555
O13 Zn2 1_555 1_555
C16 C19 1_555 1_555
C17 C18 1_555 1_555
C20 C21 1_555 1_555
Zn1 O1 1_555 1_555
Zn2_2 O3 1_555 1_555
O1 C1 1_555 1_555
O13 C1 1_555 1_555
O3 Zn1 1_555 1_555
C1 C2 1_555 1_555
C2 C3 1_555 1_555
C3 H1 1_555 1_555
C4 C3 1_555 1_555
H2 C4 1_555 1_555
C5 C4 1_555 1_555
C6 C5 1_555 1_555
H3 C6 1_555 1_555
C7 C2 1_555 1_555
H4 C7 1_555 1_555
C8 C5 1_555 1_555
C9 C8 1_555 1_555
C10 C9 1_555 1_555
H5 C10 1_555 1_555
C11 C9 1_555 1_555
H6 C11 1_555 1_555
H7 C11 1_555 1_555
H8 C11 1_555 1_555
C6 C7 1_555 1_555
O15 Zn3 1_555 1_555
O3_2 Zn1_2 1_555 1_555
Zn3_2 O3_2 1_555 1_555
O12 Zn1_2 1_555 1_555
O16 Zn2_3 1_555 1_555
O6 Zn1_3 1_555 1_555
O7 Zn2_4 1_555 1_555
O16 Zn1_3 1_555 1_555
C23 O6 1_555 1_555
C24 C23 1_555 1_555
C25 C24 1_555 1_555
H17 C25 1_555 1_555
C26 C25 1_555 1_555
H18 C26 1_555 1_555
C27 C26 1_555 1_555
C28 C27 1_555 1_555
H19 C28 1_555 1_555
C29 C24 1_555 1_555
H20 C29 1_555 1_555
C30 C27 1_555 1_555
C31 C30 1_555 1_555
C32 C31 1_555 1_555
H21 C32 1_555 1_555
C33 C31 1_555 1_555
H22 C33 1_555 1_555
H23 C33 1_555 1_555
H24 C33 1_555 1_555
O7 C23 1_555 1_555
C28 C29 1_555 1_555
O9 C34 1_555 1_555
O10 C34 1_555 1_555
C34 C35 1_555 1_555
C35 C36 1_555 1_555
C36 H25 1_555 1_555
C37 C36 1_555 1_555
H26 C37 1_555 1_555
C38 C37 1_555 1_555
C39 C38 1_555 1_555
H27 C39 1_555 1_555
C40 C35 1_555 1_555
H28 C40 1_555 1_555
C42 C41 1_555 1_555
H29 C43 1_555 1_555
C44 C42 1_555 1_555
H30 C44 1_555 1_555
H31 C44 1_555 1_555
H32 C44 1_555 1_555
Zn5 O9 1_555 1_555
Zn9 O10 1_555 1_555
C38 C41 1_555 1_555
C39 C40 1_555 1_555
C42 C43 1_555 1_555
Zn3_3 O16_2 1_555 1_555
O16_2 Zn1_4 1_555 1_555
O11 Zn1_4 1_555 1_555
O14 Zn3_4 1_555 1_555
O11 C12_2 1_555 1_555
O14 C12_2 1_555 1_555
C12_2 C13_2 1_555 1_555
C13_2 C14_2 1_555 1_555
C14_2 H9_2 1_555 1_555
C15_2 C14_2 1_555 1_555
H10_2 C15_2 1_555 1_555
C16_2 C15_2 1_555 1_555
C17_2 C16_2 1_555 1_555
H11_2 C17_2 1_555 1_555
C18_2 C13_2 1_555 1_555
H12_2 C18_2 1_555 1_555
C20_2 C19_2 1_555 1_555
H13_2 C21_2 1_555 1_555
C22_2 C20_2 1_555 1_555
H14_2 C22_2 1_555 1_555
H15_2 C22_2 1_555 1_555
H16_2 C22_2 1_555 1_555
O13_2 Zn2_5 1_555 1_555
O16_3 Zn2_5 1_555 1_555
C16_2 C19_2 1_555 1_555
C17_2 C18_2 1_555 1_555
C20_2 C21_2 1_555 1_555
Zn9 O16_3 1_555 1_555
Zn5 O1_2 1_555 1_555
Zn2_6 O3_3 1_555 1_555
O1_2 C1_2 1_555 1_555
O13_2 C1_2 1_555 1_555
O3_3 Zn5 1_555 1_555
C1_2 C2_2 1_555 1_555
C2_2 C3_2 1_555 1_555
C3_2 H1_2 1_555 1_555
C4_2 C3_2 1_555 1_555
H2_2 C4_2 1_555 1_555
C5_2 C4_2 1_555 1_555
C6_2 C5_2 1_555 1_555
H3_2 C6_2 1_555 1_555
C7_2 C2_2 1_555 1_555
H4_2 C7_2 1_555 1_555
C8_2 C5_2 1_555 1_555
C9_2 C8_2 1_555 1_555
C10_2 C9_2 1_555 1_555
H5_2 C10_2 1_555 1_555
C11_2 C9_2 1_555 1_555
H6_2 C11_2 1_555 1_555
H7_2 C11_2 1_555 1_555
H8_2 C11_2 1_555 1_555
O6_2 Zn5 1_555 1_555
O7_2 Zn2_6 1_555 1_555
O16_3 Zn5 1_555 1_555
C23_2 O6_2 1_555 1_555
C24_2 C23_2 1_555 1_555
C25_2 C24_2 1_555 1_555
H17_2 C25_2 1_555 1_555
C26_2 C25_2 1_555 1_555
H18_2 C26_2 1_555 1_555
C27_2 C26_2 1_555 1_555
C28_2 C27_2 1_555 1_555
H19_2 C28_2 1_555 1_555
C29_2 C24_2 1_555 1_555
H20_2 C29_2 1_555 1_555
C30_2 C27_2 1_555 1_555
C31_2 C30_2 1_555 1_555
C32_2 C31_2 1_555 1_555
H21_2 C32_2 1_555 1_555
C33_2 C31_2 1_555 1_555
H22_2 C33_2 1_555 1_555
H23_2 C33_2 1_555 1_555
H24_2 C33_2 1_555 1_555
Zn9_2 O3_3 1_555 1_555
C6_2 C7_2 1_555 1_555
O7_2 C23_2 1_555 1_555
C28_2 C29_2 1_555 1_555
O12 C34_2 1_555 1_555
O15 C34_2 1_555 1_555
C34_2 C35_2 1_555 1_555
C35_2 C36_2 1_555 1_555
C36_2 H25_2 1_555 1_555
C37_2 C36_2 1_555 1_555
H26_2 C37_2 1_555 1_555
C38_2 C37_2 1_555 1_555
C39_2 C38_2 1_555 1_555
H27_2 C39_2 1_555 1_555
C40_2 C35_2 1_555 1_555
H28_2 C40_2 1_555 1_555
C42_2 C41_2 1_555 1_555
H29_2 C43_2 1_555 1_555
C44_2 C42_2 1_555 1_555
H30_2 C44_2 1_555 1_555
H31_2 C44_2 1_555 1_555
H32_2 C44_2 1_555 1_555
C38_2 C41_2 1_555 1_555
C39_2 C40_2 1_555 1_555
C42_2 C43_2 1_555 1_555

#END
