
###############################################################################
#
# This file contains modified crystal structure data generated from the
# MOF subset of the Cambridge Structural Database (CSD) v543 
# hosted by the Cambridge Crystallographic Data Centre (CCDC).
#
# This work is licensed under the Creative Commons
# Attribution-NonCommercial-ShareAlike 4.0 International License.
# To view a copy of this license, visit
# http://creativecommons.org/licenses/by-nc-sa/4.0/
# or send a letter to
# Creative Commons, PO Box 1866, Mountain View, CA 94042, USA.
#
# CIF created using the CSD Python API on 29 September 2022
# The structure has been converted into the P1 space group
# The structure has a 3D framework
# The original CSD entry HIFGOU is in the triclinic crystal system
# The framework has been calculated to contain at least 10.0% void space
# The void calculation uses a probe of radius 1.32A, grid spacing 0.4
#
###############################################################################

data_HIFGOU
_chemical_formula_moiety         '(C60 H52 N4 O8 Zn1)n'
_symmetry_cell_setting           triclinic
_symmetry_space_group_name_H-M   'P 1'
_symmetry_Int_Tables_number      1
_space_group_name_Hall           'P 1'
loop_
_symmetry_equiv_pos_site_id
_symmetry_equiv_pos_as_xyz
1 x,y,z
_cell_length_a                   9.728(4)
_cell_length_b                   11.672(5)
_cell_length_c                   14.554(5)
_cell_angle_alpha                93.466(5)
_cell_angle_beta                 96.367(5)
_cell_angle_gamma                93.175(5)
_cell_volume                     1636.13
loop_
_atom_site_label
_atom_site_type_symbol
_atom_site_fract_x
_atom_site_fract_y
_atom_site_fract_z
O10 O -0.0001(2) 0.1499(2) 0.10810(17)
O1 O 0.7958(2) 0.9095(2) 0.92982(16)
O2 O 1.0001(2) 0.8501(2) 0.89190(17)
C1 C 0.8682(4) 0.8489(3) 0.8828(2)
C2 C 0.7942(4) 0.7694(3) 0.8069(2)
C3 C 0.8609(4) 0.7268(3) 0.7337(2)
H1 H 0.9556 0.7435 0.7338
C4 C 0.7885(4) 0.6602(3) 0.6610(3)
H2 H 0.8346 0.6347 0.6117
C5 C 0.6463(4) 0.6299(3) 0.6596(3)
C6 C 0.5802(4) 0.6716(3) 0.7344(3)
H3 H 0.4864 0.6524 0.7357
C7 C 0.6517(4) 0.7407(3) 0.8061(3)
H4 H 0.6053 0.7686 0.8545
C8 C 0.5708(4) 0.5616(3) 0.5801(3)
C9 C 0.5861(4) 0.5937(3) 0.4909(3)
H5 H 0.6454 0.6575 0.4848
C10 C 0.4816(4) 0.4635(3) 0.5901(3)
C11 C 0.4610(4) 0.4177(3) 0.6823(3)
H6 H 0.5142 0.4659 0.7309
H7 H 0.4910 0.3408 0.6839
H8 H 0.3646 0.4172 0.6911
O5 O 0.2042(2) 0.0905(2) 0.07018(16)
C31 C 0.1318(4) 0.1511(3) 0.1172(2)
C32 C 0.2058(4) 0.2306(3) 0.1931(2)
C33 C 0.1391(4) 0.2732(3) 0.2663(2)
H27 H 0.0444 0.2565 0.2662
C34 C 0.2115(4) 0.3398(3) 0.3390(3)
H28 H 0.1654 0.3653 0.3883
C35 C 0.3537(4) 0.3701(3) 0.3404(3)
C36 C 0.4198(4) 0.3284(3) 0.2656(3)
H29 H 0.5136 0.3476 0.2643
C37 C 0.3483(4) 0.2593(3) 0.1939(3)
H30 H 0.3947 0.2314 0.1455
C38 C 0.4292(4) 0.4384(3) 0.4199(3)
C39 C 0.4139(4) 0.4063(3) 0.5091(3)
H31 H 0.3546 0.3425 0.5152
C40 C 0.5184(4) 0.5365(3) 0.4099(3)
C41 C 0.5390(4) 0.5823(3) 0.3177(3)
H32 H 0.4858 0.5341 0.2691
H33 H 0.5090 0.6592 0.3161
H34 H 0.6354 0.5828 0.3089
O4 O 0.0292(3) 0.0920(2) 0.90394(18)
C14 C 0.0650(4) 0.2431(4) 0.7701(3)
H9 H 0.1407 0.2047 0.7942
C15 C 0.0774(4) 0.3099(4) 0.6952(3)
H10 H 0.1623 0.3189 0.6720
C20 C 0.0861(4) 0.5186(3) 0.5815(3)
H13 H 0.1440 0.5306 0.6369
O7 O 0.1734(3) 0.8418(2) 0.06932(17)
C42 C 0.0692(4) 0.8446(3) 0.1129(3)
C43 C 0.0568(4) 0.7675(3) 0.1910(3)
C46 C 0.0357(4) 0.6369(4) 0.3449(3)
C47 C 0.1575(4) 0.6456(4) 0.3043(3)
H37 H 0.2335 0.6078 0.3287
C48 C 0.1688(4) 0.7096(4) 0.2279(3)
H38 H 0.2515 0.7137 0.2014
C49 C 0.0199(4) 0.5685(3) 0.4262(3)
C51 C 0.1084(4) 0.5877(3) 0.5099(3)
C52 C 0.2251(4) 0.6812(3) 0.5258(3)
H40 H 0.2285 0.7220 0.4707
H41 H 0.2090 0.7337 0.5762
H42 H 0.3116 0.6469 0.5404
Zn4 Zn 0.86462(4) 0.03767(3) 0.02663(2)
N1 N 0.7094(3) 0.0304(3) 0.1098(2)
N2 N 0.4781(3) 0.0188(3) 0.4031(2)
C25 C 0.5204(4) 0.0023(4) 0.2388(3)
C26 C 0.6303(6) 0.0807(5) 0.2548(3)
H19 H 0.6440 0.1262 0.3101
C27 C 0.7215(6) 0.0933(5) 0.1901(3)
H20 H 0.7951 0.1483 0.2028
H21 H 0.3438 0.0460 0.2942
C30 C 0.3754(4) 0.0483(4) 0.4656(3)
H26 H 0.3256 0.1129 0.4436
C53 C 0.3974(5) 0.0450(4) 0.9057(3)
H43 H 0.4087 0.0904 0.9610
C54 C 0.4945(5) 0.0603(5) 0.8435(3)
H44 H 0.5696 0.1136 0.8584
C58 C 0.5846(4) 0.0069(4) 0.6916(3)
H48 H 0.6281 0.0842 0.6975
C59 C 0.4479(5) 0.0793(4) 0.5626(3)
H49 H 0.3801 0.1000 0.6038
H50 H 0.5130 0.1451 0.5615
H51 H 0.6911 0.0165 0.5331
O10_2 O 0.9999(2) 0.1499(2) 0.10810(17)
Zn7 Zn 0.13538(4) 0.96233(3) 0.97337(2)
O2_2 O 0.0001(2) 0.8501(2) 0.89190(17)
O3 O 0.8266(3) 0.1582(2) 0.93068(17)
C12 C 0.9308(4) 0.1554(3) 0.8871(3)
C13 C 0.9432(4) 0.2325(3) 0.8090(3)
C16 C 0.9643(4) 0.3631(4) 0.6551(3)
C17 C 0.8425(4) 0.3544(4) 0.6957(3)
H11 H 0.7665 0.3922 0.6713
C18 C 0.8312(4) 0.2904(4) 0.7721(3)
H12 H 0.7485 0.2863 0.7986
C19 C 0.9801(4) 0.4315(3) 0.5738(3)
C21 C 0.8916(4) 0.4123(3) 0.4901(3)
C22 C 0.7749(4) 0.3188(3) 0.4742(3)
H14 H 0.7715 0.2780 0.5293
H15 H 0.7910 0.2663 0.4238
H16 H 0.6884 0.3531 0.4596
C44 C 0.9350(4) 0.7569(4) 0.2299(3)
H35 H 0.8593 0.7953 0.2058
C45 C 0.9226(4) 0.6901(4) 0.3048(3)
H36 H 0.8377 0.6811 0.3280
C50 C 0.9139(4) 0.4814(3) 0.4185(3)
H39 H 0.8560 0.4694 0.3631
O8 O 0.9708(3) 0.9080(2) 0.09606(18)
C23 C 0.6026(5) 0.9550(4) 0.0943(3)
H17 H 0.5913 0.9096 0.0390
C24 C 0.5055(5) 0.9397(5) 0.1565(3)
H18 H 0.4304 0.8864 0.1416
C28 C 0.4154(4) 0.9931(4) 0.3084(3)
H22 H 0.3719 0.9158 0.3025
C29 C 0.5521(5) 0.9207(4) 0.4374(3)
H23 H 0.6199 0.9000 0.3962
H24 H 0.4870 0.8549 0.4385
H25 H 0.3089 0.9835 0.4669
N3 N 0.2906(3) 0.9696(3) 0.8902(2)
N4 N 0.5219(3) 0.9812(3) 0.5969(2)
C55 C 0.4796(4) 0.9977(4) 0.7612(3)
C56 C 0.3697(6) 0.9193(5) 0.7452(3)
H45 H 0.3560 0.8738 0.6899
C57 C 0.2785(6) 0.9067(5) 0.8099(3)
H46 H 0.2049 0.8517 0.7972
H47 H 0.6562 0.9540 0.7058
C60 C 0.6246(4) 0.9517(4) 0.5344(3)
H52 H 0.6744 0.8871 0.5564
loop_
_geom_bond_atom_site_label_1
_geom_bond_atom_site_label_2
_geom_bond_site_symmetry_1
_geom_bond_site_symmetry_2
O1 C1 1_555 1_555
O2 C1 1_555 1_555
C1 C2 1_555 1_555
C2 C3 1_555 1_555
C3 H1 1_555 1_555
C4 C3 1_555 1_555
H2 C4 1_555 1_555
C5 C4 1_555 1_555
C6 C5 1_555 1_555
H3 C6 1_555 1_555
C7 C2 1_555 1_555
H4 C7 1_555 1_555
C8 C5 1_555 1_555
C9 C8 1_555 1_555
H5 C9 1_555 1_555
C10 C8 1_555 1_555
C11 C10 1_555 1_555
H6 C11 1_555 1_555
H7 C11 1_555 1_555
H8 C11 1_555 1_555
O5 C31 1_555 1_555
C31 C32 1_555 1_555
C32 C33 1_555 1_555
C33 H27 1_555 1_555
C34 C33 1_555 1_555
H28 C34 1_555 1_555
C35 C34 1_555 1_555
C36 C35 1_555 1_555
H29 C36 1_555 1_555
C37 C32 1_555 1_555
H30 C37 1_555 1_555
C38 C35 1_555 1_555
C39 C10 1_555 1_555
H31 C39 1_555 1_555
C40 C9 1_555 1_555
C41 C40 1_555 1_555
H32 C41 1_555 1_555
H33 C41 1_555 1_555
H34 C41 1_555 1_555
O10 C31 1_555 1_555
C6 C7 1_555 1_555
C36 C37 1_555 1_555
C38 C39 1_555 1_555
C38 C40 1_555 1_555
H9 C14 1_555 1_555
C15 C14 1_555 1_555
H10 C15 1_555 1_555
H13 C20 1_555 1_555
O7 C42 1_555 1_555
C42 C43 1_555 1_555
C47 C46 1_555 1_555
H37 C47 1_555 1_555
C48 C43 1_555 1_555
H38 C48 1_555 1_555
C49 C46 1_555 1_555
C51 C20 1_555 1_555
C52 C51 1_555 1_555
H40 C52 1_555 1_555
H41 C52 1_555 1_555
H42 C52 1_555 1_555
C47 C48 1_555 1_555
C49 C51 1_555 1_555
N1 Zn4 1_555 1_555
C26 C25 1_555 1_555
H19 C26 1_555 1_555
C27 N1 1_555 1_555
H20 C27 1_555 1_555
C30 N2 1_555 1_555
H26 C30 1_555 1_555
C53 H43 1_555 1_555
C54 C53 1_555 1_555
H44 C54 1_555 1_555
H48 C58 1_555 1_555
C59 C30 1_555 1_555
H49 C59 1_555 1_555
H50 C59 1_555 1_555
O10_2 Zn4 1_555 1_555
C26 C27 1_555 1_555
Zn7 O2_2 1_555 1_555
C12 O3 1_555 1_555
C13 C12 1_555 1_555
C17 C16 1_555 1_555
H11 C17 1_555 1_555
C18 C13 1_555 1_555
H12 C18 1_555 1_555
C19 C16 1_555 1_555
C21 C19 1_555 1_555
C22 C21 1_555 1_555
H14 C22 1_555 1_555
H15 C22 1_555 1_555
H16 C22 1_555 1_555
C44 H35 1_555 1_555
C45 C44 1_555 1_555
H36 C45 1_555 1_555
C50 C21 1_555 1_555
H39 C50 1_555 1_555
C17 C18 1_555 1_555
H17 C23 1_555 1_555
C24 C23 1_555 1_555
H18 C24 1_555 1_555
H22 C28 1_555 1_555
H23 C29 1_555 1_555
H24 C29 1_555 1_555
C56 C55 1_555 1_555
H45 C56 1_555 1_555
C57 N3 1_555 1_555
H46 C57 1_555 1_555
C60 C29 1_555 1_555
H52 C60 1_555 1_555
Zn7 N3 1_555 1_555
N4 C60 1_555 1_555
C56 C57 1_555 1_555

#END
