
###############################################################################
#
# This file contains modified crystal structure data generated from the
# MOF subset of the Cambridge Structural Database (CSD) v543 
# hosted by the Cambridge Crystallographic Data Centre (CCDC).
#
# This work is licensed under the Creative Commons
# Attribution-NonCommercial-ShareAlike 4.0 International License.
# To view a copy of this license, visit
# http://creativecommons.org/licenses/by-nc-sa/4.0/
# or send a letter to
# Creative Commons, PO Box 1866, Mountain View, CA 94042, USA.
#
# CIF created using the CSD Python API on 29 September 2022
# The structure has been converted into the P1 space group
# The structure has a 3D framework
# The original CSD entry HIFHEL is in the monoclinic crystal system
# The framework has been calculated to contain at least 10.0% void space
# The void calculation uses a probe of radius 1.32A, grid spacing 0.4
#
###############################################################################

data_HIFHEL
_chemical_formula_moiety         '(C264 H192 O54 Pb16)n'
_symmetry_cell_setting           triclinic
_symmetry_space_group_name_H-M   'P 1'
_symmetry_Int_Tables_number      1
_space_group_name_Hall           'P 1'
loop_
_symmetry_equiv_pos_site_id
_symmetry_equiv_pos_as_xyz
1 x,y,z
_cell_length_a                   40.205(5)
_cell_length_b                   6.984(7)
_cell_length_c                   26.098(5)
_cell_angle_alpha                90
_cell_angle_beta                 118.408(5)
_cell_angle_gamma                90
_cell_volume                     6445.67
loop_
_atom_site_label
_atom_site_type_symbol
_atom_site_fract_x
_atom_site_fract_y
_atom_site_fract_z
O8 O 0.45471(9) 0.2090(5) 0.12633(15)
C34 C 0.44261(13) 0.0758(7) 0.1455(2)
C35 C 0.40187(13) 0.0169(7) 0.1138(2)
C39 C 0.34132(14) 0.0059(8) 0.0272(2)
C40 C 0.37849(14) 0.0665(7) 0.0555(2)
H28 H 0.3880 0.1404 0.0358
H30 H 0.2070 0.0114 0.0593
Pb7 Pb 0.524367(5) 0.14686(3) 0.207856(8)
Pb8 Pb 0.475633(5) 0.14686(3) 0.292144(8)
Pb11 Pb 0.458413(5) 0.55130(3) 0.178701(8)
O8_2 O 0.54529(9) 0.2090(5) 0.37367(15)
C34_2 C 0.55739(13) 0.0758(7) 0.3545(2)
C35_2 C 0.59813(13) 0.0169(7) 0.3862(2)
C39_2 C 0.65868(14) 0.0059(8) 0.4728(2)
H27 H 0.6739 0.0372 0.5118
C40_2 C 0.62151(14) 0.0665(7) 0.4445(2)
H28_2 H 0.6120 0.1404 0.4642
H30_2 H 0.7930 0.0114 0.4407
Pb11_2 Pb 0.541587(5) 0.55130(3) 0.321299(8)
Pb7_2 Pb 0.024367(5) 0.64686(3) 0.207856(8)
Pb11_3 Pb 0.958413(5) 0.05130(3) 0.178701(8)
H23 H 0.8253 0.0291 0.0040
O8_3 O 0.95471(9) 0.7090(5) 0.12633(15)
O9 O 0.96417(9) 0.4851(5) 0.19193(14)
C34_3 C 0.94261(13) 0.5758(7) 0.1455(2)
C35_3 C 0.90187(13) 0.5169(7) 0.1138(2)
C36 C 0.88692(13) 0.4131(7) 0.1433(2)
H25 H 0.9023 0.3803 0.1821
C37 C 0.84915(13) 0.3573(7) 0.1156(2)
H26 H 0.8391 0.2932 0.1363
C38 C 0.82638(13) 0.3980(7) 0.0565(2)
C39_3 C 0.84132(14) 0.5059(8) 0.0272(2)
C40_3 C 0.87849(14) 0.5665(7) 0.0555(2)
H28_3 H 0.8880 0.6404 0.0358
C41 C 0.78700(13) 0.3222(7) 0.0263(2)
C42 C 0.76005(13) 0.3930(7) 0.0407(2)
H29 H 0.7670 0.4896 0.0684
C43 C 0.72305(13) 0.3245(7) 0.0151(2)
C44 C 0.69477(14) 0.4144(7) 0.0302(2)
H30_3 H 0.7070 0.5114 0.0593
H32 H 0.6846 0.3179 0.0451
Pb8_2 Pb 0.975633(5) 0.64686(3) 0.292144(8)
O2 O 0.53583(9) 0.0149(5) 0.80807(14)
C3 C 0.61308(13) 0.0869(7) 0.8567(2)
H1 H 0.5977 0.1197 0.8179
C4 C 0.65085(13) 0.1427(7) 0.8844(2)
H2 H 0.6609 0.2068 0.8637
C5 C 0.67362(13) 0.1020(7) 0.9435(2)
C8 C 0.71300(13) 0.1778(7) 0.9737(2)
C9 C 0.73995(13) 0.1070(7) 0.9593(2)
H5 H 0.7330 0.0104 0.9316
C10 C 0.77695(13) 0.1755(7) 0.9849(2)
C33 C 0.80523(14) 0.0856(7) 0.9698(2)
H24 H 0.8154 0.1821 0.9549
H27_2 H 0.8261 0.5372 0.9882
H31 H 0.6747 0.4709 0.9960
O15 O 0.46417(9) 0.0149(5) 0.69193(14)
Pb11_4 Pb 0.041587(5) 0.05130(3) 0.321299(8)
C3_2 C 0.38692(13) 0.0869(7) 0.6433(2)
H1_2 H 0.4023 0.1197 0.6821
C4_2 C 0.34915(13) 0.1427(7) 0.6156(2)
H2_2 H 0.3391 0.2068 0.6363
C5_2 C 0.32638(13) 0.1020(7) 0.5565(2)
C8_2 C 0.28700(13) 0.1778(7) 0.5263(2)
C9_2 C 0.26005(13) 0.1070(7) 0.5407(2)
H5_2 H 0.2670 0.0104 0.5684
C10_2 C 0.22305(13) 0.1755(7) 0.5151(2)
C33_2 C 0.19477(14) 0.0856(7) 0.5302(2)
H23_2 H 0.1747 0.0291 0.4960
H24_2 H 0.1846 0.1821 0.5451
O8_4 O 0.04529(9) 0.7090(5) 0.37367(15)
O9_2 O 0.03583(9) 0.4851(5) 0.30807(14)
C34_4 C 0.05739(13) 0.5758(7) 0.3545(2)
C35_4 C 0.09813(13) 0.5169(7) 0.3862(2)
C36_2 C 0.11308(13) 0.4131(7) 0.3567(2)
H25_2 H 0.0977 0.3803 0.3179
C37_2 C 0.15085(13) 0.3573(7) 0.3844(2)
H26_2 H 0.1609 0.2932 0.3637
C38_2 C 0.17362(13) 0.3980(7) 0.4435(2)
C39_4 C 0.15868(14) 0.5059(8) 0.4728(2)
H27_3 H 0.1739 0.5372 0.5118
C40_4 C 0.12151(14) 0.5665(7) 0.4445(2)
H28_4 H 0.1120 0.6404 0.4642
C41_2 C 0.21300(13) 0.3222(7) 0.4737(2)
C42_2 C 0.23995(13) 0.3930(7) 0.4593(2)
H29_2 H 0.2330 0.4896 0.4316
C43_2 C 0.27695(13) 0.3245(7) 0.4849(2)
C44_2 C 0.30523(14) 0.4144(7) 0.4698(2)
H30_4 H 0.2930 0.5114 0.4407
H31_2 H 0.3253 0.4709 0.5040
H32_2 H 0.3154 0.3179 0.4549
O4 O 0.03512(9) 0.2077(5) 0.22191(15)
O5 O 0.38691(9) 0.4621(5) 0.12170(16)
O6 O 0.41843(9) 0.3573(5) 0.21266(15)
C11 C 0.04031(13) 0.1019(7) 0.1871(2)
C12 C 0.07394(13) 0.1346(7) 0.1782(2)
C13 C 0.08181(14) 0.0101(7) 0.1438(2)
C14 C 0.11360(14) 0.0352(8) 0.1370(2)
C15 C 0.13830(13) 0.1881(7) 0.1641(2)
C16 C 0.13013(13) 0.3109(7) 0.1983(2)
H8 H 0.1462 0.4135 0.2167
C17 C 0.09848(13) 0.2844(7) 0.2057(2)
H9 H 0.0938 0.3678 0.2293
C18 C 0.17337(13) 0.2128(7) 0.1587(2)
C19 C 0.19986(13) 0.0657(7) 0.1774(2)
C20 C 0.23473(13) 0.0805(7) 0.1787(2)
C21 C 0.24336(12) 0.2525(7) 0.16055(19)
C22 C 0.21613(13) 0.3983(7) 0.1389(2)
H11 H 0.2216 0.5095 0.1248
C23 C 0.18119(13) 0.3836(7) 0.1377(2)
C25 C 0.15293(14) 0.5443(8) 0.1131(2)
H15 H 0.1305 0.5111 0.1155
H16 H 0.1637 0.6590 0.1351
H17 H 0.1466 0.5654 0.0732
C26 C 0.38723(14) 0.3925(7) 0.1659(2)
C27 C 0.35060(13) 0.3519(7) 0.1656(2)
C28 C 0.34924(13) 0.2867(7) 0.2149(2)
H18 H 0.3715 0.2650 0.2493
C29 C 0.31460(13) 0.2541(7) 0.2127(2)
H19 H 0.3140 0.2081 0.2458
C30 C 0.28063(13) 0.2884(7) 0.1626(2)
C31 C 0.28221(13) 0.3574(7) 0.1131(2)
H20 H 0.2600 0.3834 0.0791
C32 C 0.31691(13) 0.3865(7) 0.1152(2)
H21 H 0.3176 0.4303 0.0821
O3 O 0.01753(9) 0.9670(5) 0.15825(15)
O7 O -0.0000 0.8419(7) 0.2500
H6 H 0.0655 0.9087 0.1251
H7 H 0.1186 0.9498 0.1142
H10 H 0.1939 0.9516 0.1895
C24 C 0.26079(14) 0.9097(7) 0.1980(2)
H12 H 0.2836 0.9409 0.1967
H13 H 0.2668 0.8758 0.2371
H14 H 0.2486 0.8037 0.1725
O17 O 0.11309(9) 0.9621(5) 0.37830(16)
O19 O 0.08157(9) 0.8573(5) 0.28734(15)
O11 O 0.96488(9) 0.2077(5) 0.27809(15)
O12 O 0.61309(9) 0.4621(5) 0.37830(16)
O13 O 0.58157(9) 0.3573(5) 0.28734(15)
C45 C 0.95969(13) 0.1019(7) 0.3129(2)
C46 C 0.92606(13) 0.1346(7) 0.3218(2)
C47 C 0.91819(14) 0.0101(7) 0.3562(2)
C48 C 0.88640(14) 0.0352(8) 0.3630(2)
C49 C 0.86170(13) 0.1881(7) 0.3359(2)
C50 C 0.86987(13) 0.3109(7) 0.3017(2)
H35 H 0.8538 0.4135 0.2833
C51 C 0.90152(13) 0.2844(7) 0.2943(2)
H36 H 0.9062 0.3678 0.2707
C52 C 0.82663(13) 0.2128(7) 0.3413(2)
C53 C 0.80014(13) 0.0657(7) 0.3226(2)
C54 C 0.76527(13) 0.0805(7) 0.3213(2)
C55 C 0.75664(12) 0.2525(7) 0.33945(19)
C56 C 0.78387(13) 0.3983(7) 0.3611(2)
H38 H 0.7784 0.5095 0.3752
C57 C 0.81881(13) 0.3836(7) 0.3623(2)
C59 C 0.84707(14) 0.5443(8) 0.3869(2)
H42 H 0.8695 0.5111 0.3845
H43 H 0.8363 0.6590 0.3649
H44 H 0.8534 0.5654 0.4268
C60 C 0.61277(14) 0.3925(7) 0.3341(2)
C61 C 0.64940(13) 0.3519(7) 0.3344(2)
C62 C 0.65076(13) 0.2867(7) 0.2851(2)
H45 H 0.6285 0.2650 0.2507
C63 C 0.68540(13) 0.2541(7) 0.2873(2)
H46 H 0.6860 0.2081 0.2542
C64 C 0.71937(13) 0.2884(7) 0.3374(2)
C65 C 0.71779(13) 0.3574(7) 0.3869(2)
H47 H 0.7400 0.3834 0.4209
C66 C 0.68309(13) 0.3865(7) 0.3848(2)
H48 H 0.6824 0.4303 0.4179
O7_2 O 1.0000 0.8419(7) 0.2500
O10 O 0.98247(9) 0.9670(5) 0.34175(15)
H33 H 0.9345 0.9087 0.3749
H34 H 0.8814 0.9498 0.3858
H37 H 0.8061 0.9516 0.3105
C58 C 0.73921(14) 0.9097(7) 0.3020(2)
H39 H 0.7164 0.9409 0.3033
H40 H 0.7332 0.8758 0.2629
H41 H 0.7514 0.8037 0.3275
O16 O 0.88691(9) 0.9621(5) 0.12170(16)
O18 O 0.91843(9) 0.8573(5) 0.21266(15)
H11_2 H 0.7216 0.0095 0.1248
C25_2 C 0.65293(14) 0.0443(8) 0.1131(2)
H15_2 H 0.6305 0.0111 0.1155
H16_2 H 0.6637 0.1590 0.1351
H17_2 H 0.6466 0.0654 0.0732
H38_2 H 0.2784 0.0095 0.3752
C59_2 C 0.34707(14) 0.0443(8) 0.3869(2)
H42_2 H 0.3695 0.0111 0.3845
H43_2 H 0.3363 0.1590 0.3649
H44_2 H 0.3534 0.0654 0.4268
O3_2 O 0.51753(9) 0.4670(5) 0.15825(15)
O4_2 O 0.53512(9) 0.7077(5) 0.22191(15)
O7_3 O 0.5000 0.3419(7) 0.2500
C11_2 C 0.54031(13) 0.6019(7) 0.1871(2)
C12_2 C 0.57394(13) 0.6346(7) 0.1782(2)
C13_2 C 0.58181(14) 0.5101(7) 0.1438(2)
H6_2 H 0.5655 0.4087 0.1251
C14_2 C 0.61360(14) 0.5352(8) 0.1370(2)
H7_2 H 0.6186 0.4498 0.1142
C15_2 C 0.63830(13) 0.6881(7) 0.1641(2)
C16_2 C 0.63013(13) 0.8109(7) 0.1983(2)
H8_2 H 0.6462 0.9135 0.2167
C17_2 C 0.59848(13) 0.7844(7) 0.2057(2)
H9_2 H 0.5938 0.8678 0.2293
C18_2 C 0.67337(13) 0.7128(7) 0.1587(2)
C19_2 C 0.69986(13) 0.5657(7) 0.1774(2)
H10_2 H 0.6939 0.4516 0.1895
C20_2 C 0.73473(13) 0.5805(7) 0.1787(2)
C21_2 C 0.74336(12) 0.7525(7) 0.16055(19)
C22_2 C 0.71613(13) 0.8983(7) 0.1389(2)
C23_2 C 0.68119(13) 0.8836(7) 0.1377(2)
C24_2 C 0.76079(14) 0.4097(7) 0.1980(2)
H12_2 H 0.7836 0.4409 0.1967
H13_2 H 0.7668 0.3758 0.2371
H14_2 H 0.7486 0.3037 0.1725
C26_2 C 0.88723(14) 0.8925(7) 0.1659(2)
C27_2 C 0.85060(13) 0.8519(7) 0.1656(2)
C28_2 C 0.84924(13) 0.7867(7) 0.2149(2)
H18_2 H 0.8715 0.7650 0.2493
C29_2 C 0.81460(13) 0.7541(7) 0.2127(2)
H19_2 H 0.8140 0.7081 0.2458
C30_2 C 0.78063(13) 0.7884(7) 0.1626(2)
C31_2 C 0.78221(13) 0.8574(7) 0.1131(2)
H20_2 H 0.7600 0.8834 0.0791
C32_2 C 0.81691(13) 0.8865(7) 0.1152(2)
H21_2 H 0.8176 0.9303 0.0821
O10_2 O 0.48247(9) 0.4670(5) 0.34175(15)
O11_2 O 0.46488(9) 0.7077(5) 0.27809(15)
C45_2 C 0.45969(13) 0.6019(7) 0.3129(2)
C46_2 C 0.42606(13) 0.6346(7) 0.3218(2)
C47_2 C 0.41819(14) 0.5101(7) 0.3562(2)
H33_2 H 0.4345 0.4087 0.3749
C48_2 C 0.38640(14) 0.5352(8) 0.3630(2)
H34_2 H 0.3814 0.4498 0.3858
C49_2 C 0.36170(13) 0.6881(7) 0.3359(2)
C50_2 C 0.36987(13) 0.8109(7) 0.3017(2)
H35_2 H 0.3538 0.9135 0.2833
C51_2 C 0.40152(13) 0.7844(7) 0.2943(2)
H36_2 H 0.4062 0.8678 0.2707
C52_2 C 0.32663(13) 0.7128(7) 0.3413(2)
C53_2 C 0.30014(13) 0.5657(7) 0.3226(2)
H37_2 H 0.3061 0.4516 0.3105
C54_2 C 0.26527(13) 0.5805(7) 0.3213(2)
C55_2 C 0.25664(12) 0.7525(7) 0.33945(19)
C56_2 C 0.28387(13) 0.8983(7) 0.3611(2)
C57_2 C 0.31881(13) 0.8836(7) 0.3623(2)
C58_2 C 0.23921(14) 0.4097(7) 0.3020(2)
H39_2 H 0.2164 0.4409 0.3033
H40_2 H 0.2332 0.3758 0.2629
H41_2 H 0.2514 0.3037 0.3275
C60_2 C 0.11277(14) 0.8925(7) 0.3341(2)
C61_2 C 0.14940(13) 0.8519(7) 0.3344(2)
C62_2 C 0.15076(13) 0.7867(7) 0.2851(2)
H45_2 H 0.1285 0.7650 0.2507
C63_2 C 0.18540(13) 0.7541(7) 0.2873(2)
H46_2 H 0.1860 0.7081 0.2542
C64_2 C 0.21937(13) 0.7884(7) 0.3374(2)
C65_2 C 0.21779(13) 0.8574(7) 0.3869(2)
H47_2 H 0.2400 0.8834 0.4209
C66_2 C 0.18309(13) 0.8865(7) 0.3848(2)
H48_2 H 0.1824 0.9303 0.4179
H27_4 H 0.3261 0.0372 0.9882
H3 H 0.1739 0.4628 0.0118
H23_3 H 0.3253 0.5291 0.0040
O9_3 O 0.46417(9) 0.9851(5) 0.19193(14)
C36_3 C 0.38692(13) 0.9131(7) 0.1433(2)
H25_3 H 0.4023 0.8803 0.1821
C37_3 C 0.34915(13) 0.8573(7) 0.1156(2)
H26_3 H 0.3391 0.7932 0.1363
C38_3 C 0.32638(13) 0.8980(7) 0.0565(2)
C41_3 C 0.28700(13) 0.8222(7) 0.0263(2)
C42_3 C 0.26005(13) 0.8930(7) 0.0407(2)
H29_3 H 0.2670 0.9896 0.0684
C43_3 C 0.22305(13) 0.8245(7) 0.0151(2)
C44_3 C 0.19477(14) 0.9144(7) 0.0302(2)
H32_3 H 0.1846 0.8179 0.0451
O1 O 0.04529(9) 0.2910(5) 0.87367(15)
O2_2 O 0.03583(9) 0.5149(5) 0.80807(14)
O7_4 O 0.0000 0.1581(7) 0.7500
C1 C 0.05739(13) 0.4242(7) 0.8545(2)
C2 C 0.09813(13) 0.4831(7) 0.8862(2)
C3_3 C 0.11308(13) 0.5869(7) 0.8567(2)
H1_3 H 0.0977 0.6197 0.8179
C4_3 C 0.15085(13) 0.6427(7) 0.8844(2)
H2_3 H 0.1609 0.7068 0.8637
C5_3 C 0.17362(13) 0.6020(7) 0.9435(2)
C6 C 0.15868(14) 0.4941(8) 0.9728(2)
C7 C 0.12151(14) 0.4335(7) 0.9445(2)
H4 H 0.1120 0.3596 0.9642
C8_3 C 0.21300(13) 0.6778(7) 0.9737(2)
C9_3 C 0.23995(13) 0.6070(7) 0.9593(2)
H5_3 H 0.2330 0.5104 0.9316
C10_3 C 0.27695(13) 0.6755(7) 0.9849(2)
C33_3 C 0.30523(14) 0.5856(7) 0.9698(2)
H22 H 0.2930 0.4886 0.9407
H24_3 H 0.3154 0.6821 0.9549
H31_3 H 0.1747 0.9709 0.9960
Pb3 Pb 0.024367(5) 0.35314(3) 0.707856(8)
O10_3 O 0.01753(9) 0.0330(5) 0.65825(15)
H33_3 H 0.0655 0.0913 0.6251
H34_3 H 0.1186 0.0502 0.6142
H37_3 H 0.1939 0.0484 0.6895
C58_3 C 0.26079(14) 0.0903(7) 0.6980(2)
H39_3 H 0.2836 0.0591 0.6967
H40_3 H 0.2668 0.1242 0.7371
H41_3 H 0.2486 0.1963 0.6725
O16_2 O 0.11309(9) 0.0379(5) 0.87830(16)
O18_2 O 0.08157(9) 0.1427(5) 0.78734(15)
Pb4 Pb 0.041587(5) 0.94870(3) 0.821299(8)
O11_3 O 0.03512(9) 0.7923(5) 0.72191(15)
O12_2 O 0.38691(9) 0.5379(5) 0.62170(16)
O13_2 O 0.41843(9) 0.6427(5) 0.71266(15)
C45_3 C 0.04031(13) 0.8981(7) 0.6871(2)
C46_3 C 0.07394(13) 0.8654(7) 0.6782(2)
C47_3 C 0.08181(14) 0.9899(7) 0.6438(2)
C48_3 C 0.11360(14) 0.9648(8) 0.6370(2)
C49_3 C 0.13830(13) 0.8119(7) 0.6641(2)
C50_3 C 0.13013(13) 0.6891(7) 0.6983(2)
H35_3 H 0.1462 0.5865 0.7167
C51_3 C 0.09848(13) 0.7156(7) 0.7057(2)
H36_3 H 0.0938 0.6322 0.7293
C52_3 C 0.17337(13) 0.7872(7) 0.6587(2)
C53_3 C 0.19986(13) 0.9343(7) 0.6774(2)
C54_3 C 0.23473(13) 0.9195(7) 0.6787(2)
C55_3 C 0.24336(12) 0.7475(7) 0.66055(19)
C56_3 C 0.21613(13) 0.6017(7) 0.6389(2)
H38_3 H 0.2216 0.4905 0.6248
C57_3 C 0.18119(13) 0.6164(7) 0.6377(2)
C59_3 C 0.15293(14) 0.4557(8) 0.6131(2)
H42_3 H 0.1305 0.4889 0.6155
H43_3 H 0.1637 0.3410 0.6351
H44_3 H 0.1466 0.4346 0.5732
C60_3 C 0.38723(14) 0.6075(7) 0.6659(2)
C61_3 C 0.35060(13) 0.6481(7) 0.6656(2)
C62_3 C 0.34924(13) 0.7133(7) 0.7149(2)
H45_3 H 0.3715 0.7350 0.7493
C63_3 C 0.31460(13) 0.7459(7) 0.7127(2)
H46_3 H 0.3140 0.7919 0.7458
C64_3 C 0.28063(13) 0.7116(7) 0.6626(2)
C65_3 C 0.28221(13) 0.6426(7) 0.6131(2)
H47_3 H 0.2600 0.6166 0.5791
C66_3 C 0.31691(13) 0.6135(7) 0.6152(2)
H48_3 H 0.3176 0.5697 0.5821
Pb5 Pb 0.475633(5) 0.85314(3) 0.792144(8)
Pb9 Pb 0.458413(5) 0.44870(3) 0.678701(8)
Pb1 Pb 0.975633(5) 0.35314(3) 0.792144(8)
O3_3 O 0.98247(9) 0.0330(5) 0.84175(15)
O7_5 O 1.0000 0.1581(7) 0.7500
H6_3 H 0.9345 0.0913 0.8749
H7_3 H 0.8814 0.0502 0.8858
H10_3 H 0.8061 0.0484 0.8105
C24_3 C 0.73921(14) 0.0903(7) 0.8020(2)
H12_3 H 0.7164 0.0591 0.8033
H13_3 H 0.7332 0.1242 0.7629
H14_3 H 0.7514 0.1963 0.8275
O14 O 0.95471(9) 0.2910(5) 0.62633(15)
O15_2 O 0.96417(9) 0.5149(5) 0.69193(14)
O17_2 O 0.88691(9) 0.0379(5) 0.62170(16)
O19_2 O 0.91843(9) 0.1427(5) 0.71266(15)
Pb2 Pb 0.958413(5) 0.94870(3) 0.678701(8)
O4_3 O 0.96488(9) 0.7923(5) 0.77809(15)
O5_2 O 0.61309(9) 0.5379(5) 0.87830(16)
O6_2 O 0.58157(9) 0.6427(5) 0.78734(15)
C11_3 C 0.95969(13) 0.8981(7) 0.8129(2)
C12_3 C 0.92606(13) 0.8654(7) 0.8218(2)
C13_3 C 0.91819(14) 0.9899(7) 0.8562(2)
C14_3 C 0.88640(14) 0.9648(8) 0.8630(2)
C15_3 C 0.86170(13) 0.8119(7) 0.8359(2)
C16_3 C 0.86987(13) 0.6891(7) 0.8017(2)
H8_3 H 0.8538 0.5865 0.7833
C17_3 C 0.90152(13) 0.7156(7) 0.7943(2)
H9_3 H 0.9062 0.6322 0.7707
C18_3 C 0.82663(13) 0.7872(7) 0.8413(2)
C19_3 C 0.80014(13) 0.9343(7) 0.8226(2)
C20_3 C 0.76527(13) 0.9195(7) 0.8213(2)
C21_3 C 0.75664(12) 0.7475(7) 0.83945(19)
C22_3 C 0.78387(13) 0.6017(7) 0.8611(2)
H11_3 H 0.7784 0.4905 0.8752
C23_3 C 0.81881(13) 0.6164(7) 0.8623(2)
C25_3 C 0.84707(14) 0.4557(8) 0.8869(2)
H15_3 H 0.8695 0.4889 0.8845
H16_3 H 0.8363 0.3410 0.8649
H17_3 H 0.8534 0.4346 0.9268
C26_3 C 0.61277(14) 0.6075(7) 0.8341(2)
C27_3 C 0.64940(13) 0.6481(7) 0.8344(2)
C28_3 C 0.65076(13) 0.7133(7) 0.7851(2)
H18_3 H 0.6285 0.7350 0.7507
C29_3 C 0.68540(13) 0.7459(7) 0.7873(2)
H19_3 H 0.6860 0.7919 0.7542
C30_3 C 0.71937(13) 0.7116(7) 0.8374(2)
C31_3 C 0.71779(13) 0.6426(7) 0.8869(2)
H20_3 H 0.7400 0.6166 0.9209
C32_3 C 0.68309(13) 0.6135(7) 0.8848(2)
H21_3 H 0.6824 0.5697 0.9179
Pb6 Pb 0.524367(5) 0.85314(3) 0.707856(8)
Pb10 Pb 0.541587(5) 0.44870(3) 0.821299(8)
C1_2 C 0.94261(13) 0.4242(7) 0.6455(2)
C2_2 C 0.90187(13) 0.4831(7) 0.6138(2)
C3_4 C 0.88692(13) 0.5869(7) 0.6433(2)
H1_4 H 0.9023 0.6197 0.6821
C4_4 C 0.84915(13) 0.6427(7) 0.6156(2)
H2_4 H 0.8391 0.7068 0.6363
C5_4 C 0.82638(13) 0.6020(7) 0.5565(2)
C6_2 C 0.84132(14) 0.4941(8) 0.5272(2)
H3_2 H 0.8261 0.4628 0.4882
C7_2 C 0.87849(14) 0.4335(7) 0.5555(2)
H4_2 H 0.8880 0.3596 0.5358
C8_4 C 0.78700(13) 0.6778(7) 0.5263(2)
C9_4 C 0.76005(13) 0.6070(7) 0.5407(2)
H5_4 H 0.7670 0.5104 0.5684
C10_4 C 0.72305(13) 0.6755(7) 0.5151(2)
C33_4 C 0.69477(14) 0.5856(7) 0.5302(2)
H22_2 H 0.7070 0.4886 0.5593
H23_4 H 0.6747 0.5291 0.4960
H24_4 H 0.6846 0.6821 0.5451
O9_4 O 0.53583(9) 0.9851(5) 0.30807(14)
C36_4 C 0.61308(13) 0.9131(7) 0.3567(2)
H25_4 H 0.5977 0.8803 0.3179
C37_4 C 0.65085(13) 0.8573(7) 0.3844(2)
H26_4 H 0.6609 0.7932 0.3637
C38_4 C 0.67362(13) 0.8980(7) 0.4435(2)
C41_4 C 0.71300(13) 0.8222(7) 0.4737(2)
C42_4 C 0.73995(13) 0.8930(7) 0.4593(2)
H29_4 H 0.7330 0.9896 0.4316
C43_4 C 0.77695(13) 0.8245(7) 0.4849(2)
C44_4 C 0.80523(14) 0.9144(7) 0.4698(2)
H31_4 H 0.8253 0.9709 0.5040
H32_4 H 0.8154 0.8179 0.4549
O1_2 O 0.54529(9) 0.7910(5) 0.87367(15)
O3_4 O 0.48247(9) 0.5330(5) 0.84175(15)
O4_4 O 0.46488(9) 0.2923(5) 0.77809(15)
O7_6 O 0.5000 0.6581(7) 0.7500
C1_3 C 0.55739(13) 0.9242(7) 0.8545(2)
C2_3 C 0.59813(13) 0.9831(7) 0.8862(2)
C6_3 C 0.65868(14) 0.9941(8) 0.9728(2)
C7_3 C 0.62151(14) 0.9335(7) 0.9445(2)
H4_3 H 0.6120 0.8596 0.9642
C11_4 C 0.45969(13) 0.3981(7) 0.8129(2)
C12_4 C 0.42606(13) 0.3654(7) 0.8218(2)
C13_4 C 0.41819(14) 0.4899(7) 0.8562(2)
H6_4 H 0.4345 0.5913 0.8749
C14_4 C 0.38640(14) 0.4648(8) 0.8630(2)
H7_4 H 0.3814 0.5502 0.8858
C15_4 C 0.36170(13) 0.3119(7) 0.8359(2)
C16_4 C 0.36987(13) 0.1891(7) 0.8017(2)
H8_4 H 0.3538 0.0865 0.7833
C17_4 C 0.40152(13) 0.2156(7) 0.7943(2)
H9_4 H 0.4062 0.1322 0.7707
C18_4 C 0.32663(13) 0.2872(7) 0.8413(2)
C19_4 C 0.30014(13) 0.4343(7) 0.8226(2)
H10_4 H 0.3061 0.5484 0.8105
C20_4 C 0.26527(13) 0.4195(7) 0.8213(2)
C21_4 C 0.25664(12) 0.2475(7) 0.83945(19)
C22_4 C 0.28387(13) 0.1017(7) 0.8611(2)
C23_4 C 0.31881(13) 0.1164(7) 0.8623(2)
C24_4 C 0.23921(14) 0.5903(7) 0.8020(2)
H12_4 H 0.2164 0.5591 0.8033
H13_4 H 0.2332 0.6242 0.7629
H14_4 H 0.2514 0.6963 0.8275
C26_4 C 0.11277(14) 0.1075(7) 0.8341(2)
C27_4 C 0.14940(13) 0.1481(7) 0.8344(2)
C28_4 C 0.15076(13) 0.2133(7) 0.7851(2)
H18_4 H 0.1285 0.2350 0.7507
C29_4 C 0.18540(13) 0.2459(7) 0.7873(2)
H19_4 H 0.1860 0.2919 0.7542
C30_4 C 0.21937(13) 0.2116(7) 0.8374(2)
C31_4 C 0.21779(13) 0.1426(7) 0.8869(2)
H20_4 H 0.2400 0.1166 0.9209
C32_4 C 0.18309(13) 0.1135(7) 0.8848(2)
H21_4 H 0.1824 0.0697 0.9179
H22_3 H 0.7930 0.9886 0.9407
O10_4 O 0.51753(9) 0.5330(5) 0.65825(15)
O11_4 O 0.53512(9) 0.2923(5) 0.72191(15)
C45_4 C 0.54031(13) 0.3981(7) 0.6871(2)
C46_4 C 0.57394(13) 0.3654(7) 0.6782(2)
C47_4 C 0.58181(14) 0.4899(7) 0.6438(2)
H33_4 H 0.5655 0.5913 0.6251
C48_4 C 0.61360(14) 0.4648(8) 0.6370(2)
H34_4 H 0.6186 0.5502 0.6142
C49_4 C 0.63830(13) 0.3119(7) 0.6641(2)
C50_4 C 0.63013(13) 0.1891(7) 0.6983(2)
H35_4 H 0.6462 0.0865 0.7167
C51_4 C 0.59848(13) 0.2156(7) 0.7057(2)
H36_4 H 0.5938 0.1322 0.7293
C52_4 C 0.67337(13) 0.2872(7) 0.6587(2)
C53_4 C 0.69986(13) 0.4343(7) 0.6774(2)
H37_4 H 0.6939 0.5484 0.6895
C54_4 C 0.73473(13) 0.4195(7) 0.6787(2)
C55_4 C 0.74336(12) 0.2475(7) 0.66055(19)
C56_4 C 0.71613(13) 0.1017(7) 0.6389(2)
C57_4 C 0.68119(13) 0.1164(7) 0.6377(2)
C58_4 C 0.76079(14) 0.5903(7) 0.6980(2)
H39_4 H 0.7836 0.5591 0.6967
H40_4 H 0.7668 0.6242 0.7371
H41_4 H 0.7486 0.6963 0.6725
C60_4 C 0.88723(14) 0.1075(7) 0.6659(2)
C61_4 C 0.85060(13) 0.1481(7) 0.6656(2)
C62_4 C 0.84924(13) 0.2133(7) 0.7149(2)
H45_4 H 0.8715 0.2350 0.7493
C63_4 C 0.81460(13) 0.2459(7) 0.7127(2)
H46_4 H 0.8140 0.2919 0.7458
C64_4 C 0.78063(13) 0.2116(7) 0.6626(2)
C65_4 C 0.78221(13) 0.1426(7) 0.6131(2)
H47_4 H 0.7600 0.1166 0.5791
C66_4 C 0.81691(13) 0.1135(7) 0.6152(2)
H48_4 H 0.8176 0.0697 0.5821
O14_2 O 0.45471(9) 0.7910(5) 0.62633(15)
H11_4 H 0.2784 0.9905 0.8752
C25_4 C 0.34707(14) 0.9557(8) 0.8869(2)
H15_4 H 0.3695 0.9889 0.8845
H16_4 H 0.3363 0.8410 0.8649
H17_4 H 0.3534 0.9346 0.9268
H38_4 H 0.7216 0.9905 0.6248
C59_4 C 0.65293(14) 0.9557(8) 0.6131(2)
H42_4 H 0.6305 0.9889 0.6155
H43_4 H 0.6637 0.8410 0.6351
H44_4 H 0.6466 0.9346 0.5732
C1_4 C 0.44261(13) 0.9242(7) 0.6455(2)
C2_4 C 0.40187(13) 0.9831(7) 0.6138(2)
C6_4 C 0.34132(14) 0.9941(8) 0.5272(2)
H3_3 H 0.3261 0.9628 0.4882
C7_4 C 0.37849(14) 0.9335(7) 0.5555(2)
H4_4 H 0.3880 0.8596 0.5358
H22_4 H 0.2070 0.9886 0.5593
H3_4 H 0.6739 0.9628 0.0118
loop_
_geom_bond_atom_site_label_1
_geom_bond_atom_site_label_2
_geom_bond_site_symmetry_1
_geom_bond_site_symmetry_2
O8 C34 1_555 1_555
C34 C35 1_555 1_555
C40 C35 1_555 1_555
H28 C40 1_555 1_555
Pb7 O8 1_555 1_555
Pb11 O8 1_555 1_555
C39 C40 1_555 1_555
O8_2 C34_2 1_555 1_555
C34_2 C35_2 1_555 1_555
H27 C39_2 1_555 1_555
C40_2 C35_2 1_555 1_555
H28_2 C40_2 1_555 1_555
Pb8 O8_2 1_555 1_555
Pb11_2 O8_2 1_555 1_555
C39_2 C40_2 1_555 1_555
O8_3 C34_3 1_555 1_555
O9 C34_3 1_555 1_555
C34_3 C35_3 1_555 1_555
C35_3 C36 1_555 1_555
C36 H25 1_555 1_555
C37 C36 1_555 1_555
H26 C37 1_555 1_555
C38 C37 1_555 1_555
C39_3 C38 1_555 1_555
C40_3 C35_3 1_555 1_555
H28_3 C40_3 1_555 1_555
C42 C41 1_555 1_555
H29 C42 1_555 1_555
C44 C43 1_555 1_555
H30_3 C44 1_555 1_555
H32 C44 1_555 1_555
Pb8_2 O9 1_555 1_555
C38 C41 1_555 1_555
C39_3 C40_3 1_555 1_555
C42 C43 1_555 1_555
H1 C3 1_555 1_555
C4 C3 1_555 1_555
H2 C4 1_555 1_555
C5 C4 1_555 1_555
C8 C5 1_555 1_555
C9 C8 1_555 1_555
H5 C9 1_555 1_555
C10 C9 1_555 1_555
C33 C10 1_555 1_555
H24 C33 1_555 1_555
H1_2 C3_2 1_555 1_555
C4_2 C3_2 1_555 1_555
H2_2 C4_2 1_555 1_555
C5_2 C4_2 1_555 1_555
C8_2 C5_2 1_555 1_555
C9_2 C8_2 1_555 1_555
H5_2 C9_2 1_555 1_555
C10_2 C9_2 1_555 1_555
C33_2 C10_2 1_555 1_555
H23_2 C33_2 1_555 1_555
H24_2 C33_2 1_555 1_555
O8_4 C34_4 1_555 1_555
O9_2 C34_4 1_555 1_555
C34_4 C35_4 1_555 1_555
C35_4 C36_2 1_555 1_555
C36_2 H25_2 1_555 1_555
C37_2 C36_2 1_555 1_555
H26_2 C37_2 1_555 1_555
C38_2 C37_2 1_555 1_555
C39_4 C38_2 1_555 1_555
H27_3 C39_4 1_555 1_555
C40_4 C35_4 1_555 1_555
H28_4 C40_4 1_555 1_555
C41_2 C10_2 1_555 1_555
C42_2 C41_2 1_555 1_555
H29_2 C42_2 1_555 1_555
C43_2 C8_2 1_555 1_555
C44_2 C43_2 1_555 1_555
H30_4 C44_2 1_555 1_555
H31_2 C44_2 1_555 1_555
H32_2 C44_2 1_555 1_555
Pb7_2 O9_2 1_555 1_555
C38_2 C41_2 1_555 1_555
C39_4 C40_4 1_555 1_555
C42_2 C43_2 1_555 1_555
Pb11_4 O4 1_555 1_555
O4 C11 1_555 1_555
O5 C26 1_555 1_555
O6 C26 1_555 1_555
C12 C11 1_555 1_555
C13 C12 1_555 1_555
C14 C13 1_555 1_555
C15 C14 1_555 1_555
C16 C15 1_555 1_555
H8 C16 1_555 1_555
C17 C12 1_555 1_555
H9 C17 1_555 1_555
C18 C15 1_555 1_555
C19 C18 1_555 1_555
C20 C19 1_555 1_555
C21 C20 1_555 1_555
C22 C21 1_555 1_555
H11 C22 1_555 1_555
C23 C18 1_555 1_555
C25 C23 1_555 1_555
H15 C25 1_555 1_555
H16 C25 1_555 1_555
H17 C25 1_555 1_555
C26 C27 1_555 1_555
C27 C28 1_555 1_555
C28 H18 1_555 1_555
C29 C28 1_555 1_555
H19 C29 1_555 1_555
C30 C21 1_555 1_555
C31 C30 1_555 1_555
H20 C31 1_555 1_555
C32 C27 1_555 1_555
H21 C32 1_555 1_555
Pb8 O6 1_555 1_555
Pb11 O5 1_555 1_555
O6 Pb11 1_555 1_555
C16 C17 1_555 1_555
C22 C23 1_555 1_555
C29 C30 1_555 1_555
C31 C32 1_555 1_555
O3 Pb7_2 1_555 1_555
O7 Pb7_2 1_555 1_555
H12 C24 1_555 1_555
H13 C24 1_555 1_555
H14 C24 1_555 1_555
O19 Pb7_2 1_555 1_555
O11 Pb11_3 1_555 1_555
O12 C60 1_555 1_555
O13 C60 1_555 1_555
C46 C45 1_555 1_555
C47 C46 1_555 1_555
C48 C47 1_555 1_555
C49 C48 1_555 1_555
C50 C49 1_555 1_555
H35 C50 1_555 1_555
C51 C46 1_555 1_555
H36 C51 1_555 1_555
C52 C49 1_555 1_555
C53 C52 1_555 1_555
C54 C53 1_555 1_555
C55 C54 1_555 1_555
C56 C55 1_555 1_555
H38 C56 1_555 1_555
C57 C52 1_555 1_555
C59 C57 1_555 1_555
H42 C59 1_555 1_555
H43 C59 1_555 1_555
H44 C59 1_555 1_555
C60 C61 1_555 1_555
C61 C62 1_555 1_555
C62 H45 1_555 1_555
C63 C62 1_555 1_555
H46 C63 1_555 1_555
C64 C55 1_555 1_555
C65 C64 1_555 1_555
H47 C65 1_555 1_555
C66 C61 1_555 1_555
H48 C66 1_555 1_555
Pb7 O13 1_555 1_555
Pb11_2 O12 1_555 1_555
O11 C45 1_555 1_555
O13 Pb11_2 1_555 1_555
C50 C51 1_555 1_555
C56 C57 1_555 1_555
C63 C64 1_555 1_555
C65 C66 1_555 1_555
H39 C58 1_555 1_555
H40 C58 1_555 1_555
H41 C58 1_555 1_555
O18 Pb8_2 1_555 1_555
O7_2 Pb8_2 1_555 1_555
Pb8_2 O10 1_555 1_555
H15_2 C25_2 1_555 1_555
H16_2 C25_2 1_555 1_555
H17_2 C25_2 1_555 1_555
H42_2 C59_2 1_555 1_555
H43_2 C59_2 1_555 1_555
H44_2 C59_2 1_555 1_555
Pb11_2 O4_2 1_555 1_555
O3_2 Pb7 1_555 1_555
O4_2 C11_2 1_555 1_555
O16 C26_2 1_555 1_555
O18 C26_2 1_555 1_555
O7_3 Pb7 1_555 1_555
C11_2 O3_2 1_555 1_555
C12_2 C11_2 1_555 1_555
C13_2 C12_2 1_555 1_555
H6_2 C13_2 1_555 1_555
C14_2 C13_2 1_555 1_555
H7_2 C14_2 1_555 1_555
C15_2 C14_2 1_555 1_555
C16_2 C15_2 1_555 1_555
H8_2 C16_2 1_555 1_555
C17_2 C12_2 1_555 1_555
H9_2 C17_2 1_555 1_555
C18_2 C15_2 1_555 1_555
C19_2 C18_2 1_555 1_555
H10_2 C19_2 1_555 1_555
C20_2 C19_2 1_555 1_555
C21_2 C20_2 1_555 1_555
C22_2 C21_2 1_555 1_555
C23_2 C18_2 1_555 1_555
C24_2 C20_2 1_555 1_555
H12_2 C24_2 1_555 1_555
H13_2 C24_2 1_555 1_555
H14_2 C24_2 1_555 1_555
C26_2 C27_2 1_555 1_555
C27_2 C28_2 1_555 1_555
C28_2 H18_2 1_555 1_555
C29_2 C28_2 1_555 1_555
H19_2 C29_2 1_555 1_555
C30_2 C21_2 1_555 1_555
C31_2 C30_2 1_555 1_555
H20_2 C31_2 1_555 1_555
C32_2 C27_2 1_555 1_555
H21_2 C32_2 1_555 1_555
O10_2 Pb11_2 1_555 1_555
O11_2 Pb11 1_555 1_555
O17 C60_2 1_555 1_555
O19 C60_2 1_555 1_555
C45_2 O10_2 1_555 1_555
C46_2 C45_2 1_555 1_555
C47_2 C46_2 1_555 1_555
H33_2 C47_2 1_555 1_555
C48_2 C47_2 1_555 1_555
H34_2 C48_2 1_555 1_555
C49_2 C48_2 1_555 1_555
C50_2 C49_2 1_555 1_555
H35_2 C50_2 1_555 1_555
C51_2 C46_2 1_555 1_555
H36_2 C51_2 1_555 1_555
C52_2 C49_2 1_555 1_555
C53_2 C52_2 1_555 1_555
H37_2 C53_2 1_555 1_555
C54_2 C53_2 1_555 1_555
C55_2 C54_2 1_555 1_555
C56_2 C55_2 1_555 1_555
C57_2 C52_2 1_555 1_555
C58_2 C54_2 1_555 1_555
H39_2 C58_2 1_555 1_555
H40_2 C58_2 1_555 1_555
H41_2 C58_2 1_555 1_555
C60_2 C61_2 1_555 1_555
C61_2 C62_2 1_555 1_555
C62_2 H45_2 1_555 1_555
C63_2 C62_2 1_555 1_555
H46_2 C63_2 1_555 1_555
C64_2 C55_2 1_555 1_555
C65_2 C64_2 1_555 1_555
H47_2 C65_2 1_555 1_555
C66_2 C61_2 1_555 1_555
H48_2 C66_2 1_555 1_555
Pb11_2 O7_3 1_555 1_555
O3_2 Pb11 1_555 1_555
O7_3 Pb8 1_555 1_555
O7_3 Pb11 1_555 1_555
C16_2 C17_2 1_555 1_555
C22_2 C23_2 1_555 1_555
C29_2 C30_2 1_555 1_555
C31_2 C32_2 1_555 1_555
Pb8 O10_2 1_555 1_555
O11_2 C45_2 1_555 1_555
C50_2 C51_2 1_555 1_555
C56_2 C57_2 1_555 1_555
C63_2 C64_2 1_555 1_555
C65_2 C66_2 1_555 1_555
C36_3 H25_3 1_555 1_555
C37_3 C36_3 1_555 1_555
H26_3 C37_3 1_555 1_555
C38_3 C37_3 1_555 1_555
C42_3 C41_3 1_555 1_555
H29_3 C42_3 1_555 1_555
C44_3 C43_3 1_555 1_555
H32_3 C44_3 1_555 1_555
C38_3 C41_3 1_555 1_555
C42_3 C43_3 1_555 1_555
O1 C1 1_555 1_555
C1 O2_2 1_555 1_555
C2 C1 1_555 1_555
C3_3 C2 1_555 1_555
H1_3 C3_3 1_555 1_555
C4_3 C3_3 1_555 1_555
H2_3 C4_3 1_555 1_555
C5_3 C4_3 1_555 1_555
C6 C5_3 1_555 1_555
C7 C2 1_555 1_555
H4 C7 1_555 1_555
C8_3 C5_3 1_555 1_555
C9_3 C8_3 1_555 1_555
H5_3 C9_3 1_555 1_555
C10_3 C9_3 1_555 1_555
C33_3 C10_3 1_555 1_555
H22 C33_3 1_555 1_555
H24_3 C33_3 1_555 1_555
Pb3 O2_2 1_555 1_555
H39_3 C58_3 1_555 1_555
H40_3 C58_3 1_555 1_555
H41_3 C58_3 1_555 1_555
O18_2 Pb3 1_555 1_555
O7_4 Pb3 1_555 1_555
C6 C7 1_555 1_555
Pb3 O10_3 1_555 1_555
O11_3 Pb4 1_555 1_555
O12_2 C60_3 1_555 1_555
O13_2 C60_3 1_555 1_555
C46_3 C45_3 1_555 1_555
C47_3 C46_3 1_555 1_555
C48_3 C47_3 1_555 1_555
C49_3 C48_3 1_555 1_555
C50_3 C49_3 1_555 1_555
H35_3 C50_3 1_555 1_555
C51_3 C46_3 1_555 1_555
H36_3 C51_3 1_555 1_555
C52_3 C49_3 1_555 1_555
C53_3 C52_3 1_555 1_555
C54_3 C53_3 1_555 1_555
C55_3 C54_3 1_555 1_555
C56_3 C55_3 1_555 1_555
H38_3 C56_3 1_555 1_555
C57_3 C52_3 1_555 1_555
C59_3 C57_3 1_555 1_555
H42_3 C59_3 1_555 1_555
H43_3 C59_3 1_555 1_555
H44_3 C59_3 1_555 1_555
C60_3 C61_3 1_555 1_555
C61_3 C62_3 1_555 1_555
C62_3 H45_3 1_555 1_555
C63_3 C62_3 1_555 1_555
H46_3 C63_3 1_555 1_555
C64_3 C55_3 1_555 1_555
C65_3 C64_3 1_555 1_555
H47_3 C65_3 1_555 1_555
C66_3 C61_3 1_555 1_555
H48_3 C66_3 1_555 1_555
Pb5 O13_2 1_555 1_555
Pb9 O12_2 1_555 1_555
O11_3 C45_3 1_555 1_555
O13_2 Pb9 1_555 1_555
C50_3 C51_3 1_555 1_555
C56_3 C57_3 1_555 1_555
C63_3 C64_3 1_555 1_555
C65_3 C66_3 1_555 1_555
O3_3 Pb1 1_555 1_555
O7_5 Pb1 1_555 1_555
H12_3 C24_3 1_555 1_555
H13_3 C24_3 1_555 1_555
H14_3 C24_3 1_555 1_555
O15_2 Pb1 1_555 1_555
O19_2 Pb1 1_555 1_555
Pb2 O4_3 1_555 1_555
O4_3 C11_3 1_555 1_555
O5_2 C26_3 1_555 1_555
O6_2 C26_3 1_555 1_555
C12_3 C11_3 1_555 1_555
C13_3 C12_3 1_555 1_555
C14_3 C13_3 1_555 1_555
C15_3 C14_3 1_555 1_555
C16_3 C15_3 1_555 1_555
H8_3 C16_3 1_555 1_555
C17_3 C12_3 1_555 1_555
H9_3 C17_3 1_555 1_555
C18_3 C15_3 1_555 1_555
C19_3 C18_3 1_555 1_555
C20_3 C19_3 1_555 1_555
C21_3 C20_3 1_555 1_555
C22_3 C21_3 1_555 1_555
H11_3 C22_3 1_555 1_555
C23_3 C18_3 1_555 1_555
C25_3 C23_3 1_555 1_555
H15_3 C25_3 1_555 1_555
H16_3 C25_3 1_555 1_555
H17_3 C25_3 1_555 1_555
C26_3 C27_3 1_555 1_555
C27_3 C28_3 1_555 1_555
C28_3 H18_3 1_555 1_555
C29_3 C28_3 1_555 1_555
H19_3 C29_3 1_555 1_555
C30_3 C21_3 1_555 1_555
C31_3 C30_3 1_555 1_555
H20_3 C31_3 1_555 1_555
C32_3 C27_3 1_555 1_555
H21_3 C32_3 1_555 1_555
Pb6 O6_2 1_555 1_555
Pb10 O5_2 1_555 1_555
O6_2 Pb10 1_555 1_555
C16_3 C17_3 1_555 1_555
C22_3 C23_3 1_555 1_555
C29_3 C30_3 1_555 1_555
C31_3 C32_3 1_555 1_555
O14 C1_2 1_555 1_555
C1_2 O15_2 1_555 1_555
C2_2 C1_2 1_555 1_555
C3_4 C2_2 1_555 1_555
H1_4 C3_4 1_555 1_555
C4_4 C3_4 1_555 1_555
H2_4 C4_4 1_555 1_555
C5_4 C4_4 1_555 1_555
C6_2 C5_4 1_555 1_555
H3_2 C6_2 1_555 1_555
C7_2 C2_2 1_555 1_555
H4_2 C7_2 1_555 1_555
C8_4 C5_4 1_555 1_555
C9_4 C8_4 1_555 1_555
H5_4 C9_4 1_555 1_555
C10_4 C9_4 1_555 1_555
C33_4 C10_4 1_555 1_555
H22_2 C33_4 1_555 1_555
H23_4 C33_4 1_555 1_555
H24_4 C33_4 1_555 1_555
C36_4 H25_4 1_555 1_555
C37_4 C36_4 1_555 1_555
H26_4 C37_4 1_555 1_555
C38_4 C37_4 1_555 1_555
C41_4 C10_4 1_555 1_555
C42_4 C41_4 1_555 1_555
H29_4 C42_4 1_555 1_555
C43_4 C8_4 1_555 1_555
C44_4 C43_4 1_555 1_555
H31_4 C44_4 1_555 1_555
H32_4 C44_4 1_555 1_555
C6_2 C7_2 1_555 1_555
C38_4 C41_4 1_555 1_555
C42_4 C43_4 1_555 1_555
Pb5 O1_2 1_555 1_555
Pb9 O4_4 1_555 1_555
O1_2 C1_3 1_555 1_555
O3_4 Pb5 1_555 1_555
O4_4 C11_4 1_555 1_555
O16_2 C26_4 1_555 1_555
O18_2 C26_4 1_555 1_555
O7_6 Pb5 1_555 1_555
C2_3 C1_3 1_555 1_555
C7_3 C2_3 1_555 1_555
H4_3 C7_3 1_555 1_555
C11_4 O3_4 1_555 1_555
C12_4 C11_4 1_555 1_555
C13_4 C12_4 1_555 1_555
H6_4 C13_4 1_555 1_555
C14_4 C13_4 1_555 1_555
H7_4 C14_4 1_555 1_555
C15_4 C14_4 1_555 1_555
C16_4 C15_4 1_555 1_555
H8_4 C16_4 1_555 1_555
C17_4 C12_4 1_555 1_555
H9_4 C17_4 1_555 1_555
C18_4 C15_4 1_555 1_555
C19_4 C18_4 1_555 1_555
H10_4 C19_4 1_555 1_555
C20_4 C19_4 1_555 1_555
C21_4 C20_4 1_555 1_555
C22_4 C21_4 1_555 1_555
C23_4 C18_4 1_555 1_555
C24_4 C20_4 1_555 1_555
H12_4 C24_4 1_555 1_555
H13_4 C24_4 1_555 1_555
H14_4 C24_4 1_555 1_555
C26_4 C27_4 1_555 1_555
C27_4 C28_4 1_555 1_555
C28_4 H18_4 1_555 1_555
C29_4 C28_4 1_555 1_555
H19_4 C29_4 1_555 1_555
C30_4 C21_4 1_555 1_555
C31_4 C30_4 1_555 1_555
H20_4 C31_4 1_555 1_555
C32_4 C27_4 1_555 1_555
H21_4 C32_4 1_555 1_555
Pb10 O1_2 1_555 1_555
O10_4 Pb9 1_555 1_555
O11_4 Pb10 1_555 1_555
O17_2 C60_4 1_555 1_555
O19_2 C60_4 1_555 1_555
C45_4 O10_4 1_555 1_555
C46_4 C45_4 1_555 1_555
C47_4 C46_4 1_555 1_555
H33_4 C47_4 1_555 1_555
C48_4 C47_4 1_555 1_555
H34_4 C48_4 1_555 1_555
C49_4 C48_4 1_555 1_555
C50_4 C49_4 1_555 1_555
H35_4 C50_4 1_555 1_555
C51_4 C46_4 1_555 1_555
H36_4 C51_4 1_555 1_555
C52_4 C49_4 1_555 1_555
C53_4 C52_4 1_555 1_555
H37_4 C53_4 1_555 1_555
C54_4 C53_4 1_555 1_555
C55_4 C54_4 1_555 1_555
C56_4 C55_4 1_555 1_555
C57_4 C52_4 1_555 1_555
C58_4 C54_4 1_555 1_555
H39_4 C58_4 1_555 1_555
H40_4 C58_4 1_555 1_555
H41_4 C58_4 1_555 1_555
C60_4 C61_4 1_555 1_555
C61_4 C62_4 1_555 1_555
C62_4 H45_4 1_555 1_555
C63_4 C62_4 1_555 1_555
H46_4 C63_4 1_555 1_555
C64_4 C55_4 1_555 1_555
C65_4 C64_4 1_555 1_555
H47_4 C65_4 1_555 1_555
C66_4 C61_4 1_555 1_555
H48_4 C66_4 1_555 1_555
O14_2 Pb9 1_555 1_555
Pb9 O7_6 1_555 1_555
O3_4 Pb10 1_555 1_555
O7_6 Pb6 1_555 1_555
O7_6 Pb10 1_555 1_555
C6_3 C7_3 1_555 1_555
C16_4 C17_4 1_555 1_555
C22_4 C23_4 1_555 1_555
C29_4 C30_4 1_555 1_555
C31_4 C32_4 1_555 1_555
Pb6 O10_4 1_555 1_555
Pb6 O14_2 1_555 1_555
O11_4 C45_4 1_555 1_555
C50_4 C51_4 1_555 1_555
C56_4 C57_4 1_555 1_555
C63_4 C64_4 1_555 1_555
C65_4 C66_4 1_555 1_555
H15_4 C25_4 1_555 1_555
H16_4 C25_4 1_555 1_555
H17_4 C25_4 1_555 1_555
H42_4 C59_4 1_555 1_555
H43_4 C59_4 1_555 1_555
H44_4 C59_4 1_555 1_555
O14_2 C1_4 1_555 1_555
C2_4 C1_4 1_555 1_555
H3_3 C6_4 1_555 1_555
C7_4 C2_4 1_555 1_555
H4_4 C7_4 1_555 1_555
C6_4 C7_4 1_555 1_555

#END
