
###############################################################################
#
# This file contains modified crystal structure data generated from the
# MOF subset of the Cambridge Structural Database (CSD) v543 
# hosted by the Cambridge Crystallographic Data Centre (CCDC).
#
# This work is licensed under the Creative Commons
# Attribution-NonCommercial-ShareAlike 4.0 International License.
# To view a copy of this license, visit
# http://creativecommons.org/licenses/by-nc-sa/4.0/
# or send a letter to
# Creative Commons, PO Box 1866, Mountain View, CA 94042, USA.
#
# CIF created using the CSD Python API on 29 September 2022
# The structure has been converted into the P1 space group
# The structure has a 3D framework
# The original CSD entry HIFHIP is in the monoclinic crystal system
# The framework has been calculated to contain at least 10.0% void space
# The void calculation uses a probe of radius 1.32A, grid spacing 0.4
# H atom positions have been added when not included in the experimental data
#
###############################################################################

data_HIFHIP
_chemical_formula_moiety         '(C264 H200 O52 Pb12)n'
_symmetry_cell_setting           triclinic
_symmetry_space_group_name_H-M   'P 1'
_symmetry_Int_Tables_number      1
_space_group_name_Hall           'P 1'
loop_
_symmetry_equiv_pos_site_id
_symmetry_equiv_pos_as_xyz
1 x,y,z
_cell_length_a                   35.402(5)
_cell_length_b                   15.813(6)
_cell_length_c                   11.424(5)
_cell_angle_alpha                90
_cell_angle_beta                 90.361(5)
_cell_angle_gamma                90
_cell_volume                     6395.16
loop_
_atom_site_label
_atom_site_type_symbol
_atom_site_fract_x
_atom_site_fract_y
_atom_site_fract_z
C58 C 0.1372(3) 0.0106(6) 0.7713(8)
H39 H 0.1107 0.0192 0.7830
H40 H 0.1490 0.0636 0.7529
Pb2 Pb 0.371748(11) 0.63042(2) 0.66913(2)
Pb3 Pb 0.395333(11) 0.65914(3) 0.30488(2)
O9 O 0.35096(19) 0.7016(4) 0.4838(5)
O10 O 0.3489(2) 0.7799(5) 0.3235(6)
O13 O 0.3710(3) 0.7831(5) 0.7090(7)
C47 C 0.0091(3) 0.9763(6) 0.5895(7)
C48 C 0.0457(3) 0.9640(6) 0.5598(8)
H34 H 0.0534 0.9759 0.4839
C49 C 0.0722(3) 0.9335(6) 0.6416(8)
C50 C 0.0591(3) 0.9146(6) 0.7538(8)
H35 H 0.0757 0.8927 0.8094
C51 C 0.0230(3) 0.9278(6) 0.7823(8)
H36 H 0.0153 0.9163 0.8584
C52 C 0.1124(3) 0.9171(6) 0.6090(7)
C53 C 0.1429(3) 0.9498(6) 0.6723(8)
C54 C 0.1790(3) 0.9275(6) 0.6405(8)
H37 H 0.1994 0.9496 0.6826
C55 C 0.1864(3) 0.8716(6) 0.5449(8)
C56 C 0.1552(3) 0.8380(6) 0.4822(7)
C57 C 0.1196(3) 0.8624(6) 0.5154(7)
H38 H 0.0991 0.8414 0.4732
H41 H 0.1483 0.9879 0.8415
C59 C 0.1603(3) 0.7761(6) 0.3834(8)
H42 H 0.1360 0.7606 0.3522
H43 H 0.1730 0.7265 0.4120
H44 H 0.1751 0.8018 0.3230
C60 C 0.2259(3) 0.8485(6) 0.5176(8)
C61 C 0.2483(3) 0.8086(6) 0.5987(8)
H45 H 0.2394 0.8005 0.6743
C62 C 0.2846(3) 0.7797(7) 0.5690(8)
H46 H 0.2992 0.7506 0.6236
C63 C 0.2981(3) 0.7947(6) 0.4589(8)
C64 C 0.2773(3) 0.8404(7) 0.3791(9)
H47 H 0.2874 0.8539 0.3065
C65 C 0.2411(3) 0.8662(7) 0.4074(9)
H48 H 0.2268 0.8956 0.3525
C66 C 0.3358(3) 0.7574(6) 0.4208(8)
O14 O 0.3668(2) 0.5174(4) 0.5000(6)
O15 O 0.3502(2) 0.5221(4) 0.3113(5)
O16 O 0.3585(2) 0.6588(4) 0.9018(5)
O17 O 0.36506(19) 0.6591(4) 0.0945(6)
O18 O 0.44895(19) 0.5368(4) 0.3450(6)
O20 O 0.4455(4) 0.7683(8) 0.2996(11)
O21 O 0.4426(3) 0.7127(7) 0.1224(18)
O23 O 0.4365(2) 0.6573(4) 0.7581(5)
O25 O 0.42758(19) 0.6681(4) 0.5674(6)
H49 H 0.345064 0.805398 0.696522
H50 H 0.37893 0.793397 0.791304
O4 O 0.86506(19) 0.1591(4) 0.0945(6)
O11 O 0.4365(2) 0.3427(4) 0.2581(5)
O12 O 0.42758(19) 0.3319(4) 0.0674(6)
C23 C 0.8447(3) 0.1685(5) 0.0035(7)
C24 C 0.8041(3) 0.1888(6) 0.0141(8)
C27 C 0.7261(3) 0.2186(6) 0.0394(8)
C28 C 0.7506(3) 0.2226(6) 0.1371(8)
H19 H 0.7410 0.2345 0.2109
C29 C 0.7891(3) 0.2089(7) 0.1227(8)
H20 H 0.8051 0.2133 0.1872
C30 C 0.6855(3) 0.2352(7) 0.0556(8)
C31 C 0.6707(3) 0.3160(6) 0.0269(8)
C32 C 0.6318(3) 0.3292(6) 0.0453(8)
H21 H 0.6213 0.3816 0.0276
C33 C 0.6086(3) 0.2655(6) 0.0894(8)
C34 C 0.6229(3) 0.1861(7) 0.1159(8)
C35 C 0.6611(3) 0.1732(6) 0.0981(8)
H22 H 0.6711 0.1203 0.1154
H24 H 0.6947 0.4324 0.0309
C37 C 0.5984(3) 0.1170(7) 0.1654(10)
H26 H 0.6133 0.0671 0.1779
H27 H 0.5782 0.1047 0.1114
H28 H 0.5880 0.1353 0.2386
C38 C 0.5671(3) 0.2834(6) 0.1075(8)
C39 C 0.5416(3) 0.2744(7) 0.0160(8)
C40 C 0.5037(3) 0.2900(6) 0.0303(8)
C41 C 0.4903(3) 0.3133(6) 0.1380(8)
C42 C 0.5159(3) 0.3243(6) 0.2315(8)
H31 H 0.5074 0.3424 0.3041
C43 C 0.5529(3) 0.3083(7) 0.2148(8)
H32 H 0.5695 0.3143 0.2777
C44 C 0.4475(3) 0.3316(6) 0.1536(8)
Pb6 Pb 0.417638(10) 0.41349(2) 0.47599(2)
Pb7 Pb 0.371748(11) 0.36958(2) 0.16913(2)
Pb11 Pb 0.895333(11) 0.15914(3) 0.30488(2)
O19 O 0.9305(2) 0.0173(5) 0.1598(6)
O22 O 0.9426(3) 0.2127(7) 0.1224(18)
Pb1 Pb 0.917638(10) 0.08651(2) 0.97599(2)
O3 O 0.8585(2) 0.1588(4) 0.9018(5)
C15 C 0.6604(3) 0.0132(7) 0.8743(9)
H10 H 0.6869 0.0232 0.8641
H11 H 0.6480 0.0655 0.8926
C25 C 0.7801(3) 0.1845(7) 0.9195(8)
H17 H 0.7898 0.1710 0.8463
C26 C 0.7416(3) 0.1997(7) 0.9306(8)
H18 H 0.7260 0.1973 0.8648
C36 C 0.6953(3) 0.3846(7) 0.9792(10)
H23 H 0.7208 0.3643 0.9729
H25 H 0.6862 0.4011 0.9033
H29 H 0.5503 0.2575 0.9430
H30 H 0.4872 0.2848 0.9670
Pb8 Pb 0.871748(11) 0.13042(2) 0.66913(2)
O24 O 0.9365(2) 0.1573(4) 0.7581(5)
O1 O 0.8668(2) 0.9826(4) 0.0000(6)
C3 C 0.7888(3) 0.9774(6) 0.0654(8)
H1 H 0.8055 0.9969 0.1223
C4 C 0.7511(3) 0.9628(6) 0.0946(8)
H2 H 0.7430 0.9714 0.1710
C5 C 0.7254(3) 0.9352(6) 0.0085(8)
C8 C 0.6856(3) 0.9170(6) 0.0397(8)
C10 C 0.6187(3) 0.9267(6) 0.0056(8)
C11 C 0.6112(3) 0.8715(6) 0.0954(8)
C12 C 0.6409(3) 0.8388(6) 0.1624(8)
C13 C 0.6772(3) 0.8630(6) 0.1333(8)
H6 H 0.6971 0.8423 0.1783
C14 C 0.6360(3) 0.7774(7) 0.2601(8)
H7 H 0.6096 0.7661 0.2706
H8 H 0.6463 0.8008 0.3308
H9 H 0.6489 0.7257 0.2417
C16 C 0.5716(3) 0.8460(6) 0.1186(9)
C17 C 0.5491(4) 0.8074(9) 0.0321(12)
C18 C 0.5132(4) 0.7772(9) 0.0563(18)
C19 C 0.4937(4) 0.7877(8) 0.1723(15)
C20 C 0.5183(3) 0.8305(9) 0.2485(13)
H15 H 0.5090 0.8422 0.3228
C21 C 0.5546(3) 0.8573(8) 0.2263(10)
H16 H 0.5682 0.8839 0.2858
C22 C 0.4598(3) 0.7519(8) 0.1952(18)
Pb9 Pb 0.871748(11) 0.86958(2) 0.16913(2)
O1_2 O 0.8668(2) 0.9826(4) 1.0000(6)
O2 O 0.8502(2) 0.9779(4) 0.8113(5)
O5 O 0.94895(19) 0.9632(4) 0.8450(6)
O6 O 0.9305(2) 0.9827(5) 0.6598(6)
C1 C 0.8416(3) 0.9764(6) 0.9184(7)
C2 C 0.8014(3) 0.9630(5) 0.9528(7)
C6 C 0.7384(3) 0.9194(6) 0.8974(8)
H3 H 0.7219 0.8992 0.8401
C7 C 0.7765(3) 0.9337(6) 0.8705(8)
H4 H 0.7849 0.9229 0.7951
C9 C 0.6547(3) 0.9506(6) 0.9739(8)
H5 H 0.5985 0.9491 0.9638
H12 H 0.6499 0.9904 0.8033
H13 H 0.5585 0.8019 0.9567
H14 H 0.5003 0.7487 0.9971
C45 C 0.9565(3) 0.9695(6) 0.7397(8)
C46 C 0.9961(3) 0.9583(5) 0.7013(8)
H33 H 0.9922 0.9973 0.5337
Pb4 Pb 0.917638(10) 0.91349(2) 0.47599(2)
Pb5 Pb 0.417638(10) 0.58651(2) 0.97599(2)
Pb12 Pb 0.895333(11) 0.84086(3) 0.80488(2)
O13_2 O 0.3710(3) 0.2169(5) 0.2090(7)
C47_2 C 0.0091(3) 0.0237(6) 0.0895(7)
C48_2 C 0.0457(3) 0.0360(6) 0.0598(8)
C49_2 C 0.0722(3) 0.0665(6) 0.1416(8)
C50_2 C 0.0591(3) 0.0854(6) 0.2538(8)
H35_2 H 0.0757 0.1073 0.3094
C51_2 C 0.0230(3) 0.0722(6) 0.2823(8)
H36_2 H 0.0153 0.0837 0.3584
C52_2 C 0.1124(3) 0.0829(6) 0.1090(7)
C53_2 C 0.1429(3) 0.0502(6) 0.1723(8)
C54_2 C 0.1790(3) 0.0725(6) 0.1405(8)
H37_2 H 0.1994 0.0504 0.1826
C55_2 C 0.1864(3) 0.1284(6) 0.0449(8)
C57_2 C 0.1196(3) 0.1376(6) 0.0154(7)
H41_2 H 0.1483 0.0121 0.3415
C60_2 C 0.2259(3) 0.1515(6) 0.0176(8)
C61_2 C 0.2483(3) 0.1914(6) 0.0987(8)
H45_2 H 0.2394 0.1995 0.1743
C62_2 C 0.2846(3) 0.2203(7) 0.0690(8)
H46_2 H 0.2992 0.2494 0.1236
O14_2 O 0.3668(2) 0.4826(4) 0.0000(6)
O16_2 O 0.3585(2) 0.3412(4) 0.4018(5)
H49_2 H 0.345064 0.194602 0.196522
H50_2 H 0.37893 0.206603 0.291304
Pb3_2 Pb 0.395333(11) 0.34086(3) 0.80488(2)
O9_2 O 0.35096(19) 0.2984(4) 0.9838(5)
O10_2 O 0.3489(2) 0.2201(5) 0.8235(6)
H34_2 H 0.0534 0.0241 0.9839
C56_2 C 0.1552(3) 0.1620(6) 0.9822(7)
H38_2 H 0.0991 0.1586 0.9732
C59_2 C 0.1603(3) 0.2239(6) 0.8834(8)
H42_2 H 0.1360 0.2394 0.8522
H43_2 H 0.1730 0.2735 0.9120
H44_2 H 0.1751 0.1982 0.8230
C63_2 C 0.2981(3) 0.2053(6) 0.9589(8)
C64_2 C 0.2773(3) 0.1596(7) 0.8791(9)
H47_2 H 0.2874 0.1461 0.8065
C65_2 C 0.2411(3) 0.1338(7) 0.9074(9)
H48_2 H 0.2268 0.1044 0.8525
C66_2 C 0.3358(3) 0.2426(6) 0.9208(8)
O14_3 O 0.3668(2) 0.4826(4) 1.0000(6)
O15_2 O 0.3502(2) 0.4779(4) 0.8113(5)
O17_2 O 0.36506(19) 0.3409(4) 0.5945(6)
O18_2 O 0.44895(19) 0.4632(4) 0.8450(6)
O20_2 O 0.4455(4) 0.2317(8) 0.7996(11)
O21_2 O 0.4426(3) 0.2873(7) 0.6224(18)
O1_3 O 0.8668(2) 0.0174(4) 0.5000(6)
O2_2 O 0.8502(2) 0.0221(4) 0.3113(5)
O5_2 O 0.94895(19) 0.0368(4) 0.3450(6)
C1_2 C 0.8416(3) 0.0236(6) 0.4184(7)
C2_2 C 0.8014(3) 0.0370(5) 0.4528(7)
C3_2 C 0.7888(3) 0.0226(6) 0.5654(8)
H1_2 H 0.8055 0.0031 0.6223
C4_2 C 0.7511(3) 0.0372(6) 0.5946(8)
H2_2 H 0.7430 0.0286 0.6710
C5_2 C 0.7254(3) 0.0648(6) 0.5085(8)
C6_2 C 0.7384(3) 0.0806(6) 0.3974(8)
H3_2 H 0.7219 0.1008 0.3401
C7_2 C 0.7765(3) 0.0663(6) 0.3705(8)
H4_2 H 0.7849 0.0771 0.2951
C8_2 C 0.6856(3) 0.0830(6) 0.5397(8)
C9_2 C 0.6547(3) 0.0494(6) 0.4739(8)
C10_2 C 0.6187(3) 0.0733(6) 0.5056(8)
H5_2 H 0.5985 0.0509 0.4638
C11_2 C 0.6112(3) 0.1285(6) 0.5954(8)
C12_2 C 0.6409(3) 0.1612(6) 0.6624(8)
C13_2 C 0.6772(3) 0.1370(6) 0.6333(8)
H6_2 H 0.6971 0.1577 0.6783
C14_2 C 0.6360(3) 0.2226(7) 0.7601(8)
H7_2 H 0.6096 0.2339 0.7706
H8_2 H 0.6463 0.1992 0.8308
H9_2 H 0.6489 0.2743 0.7417
H12_2 H 0.6499 0.0096 0.3033
C16_2 C 0.5716(3) 0.1540(6) 0.6186(9)
C17_2 C 0.5491(4) 0.1926(9) 0.5321(12)
H13_2 H 0.5585 0.1981 0.4567
C18_2 C 0.5132(4) 0.2228(9) 0.5563(18)
H14_2 H 0.5003 0.2513 0.4971
C19_2 C 0.4937(4) 0.2123(8) 0.6723(15)
C20_2 C 0.5183(3) 0.1695(9) 0.7485(13)
H15_2 H 0.5090 0.1578 0.8228
C21_2 C 0.5546(3) 0.1427(8) 0.7263(10)
H16_2 H 0.5682 0.1161 0.7858
C22_2 C 0.4598(3) 0.2481(8) 0.6952(18)
C45_2 C 0.9565(3) 0.0305(6) 0.2397(8)
C46_2 C 0.9961(3) 0.0417(5) 0.2013(8)
H33_2 H 0.9922 0.0027 0.0337
O3_2 O 0.8585(2) 0.8412(4) 0.4018(5)
O4_2 O 0.86506(19) 0.8409(4) 0.5945(6)
C15_2 C 0.6604(3) 0.9868(7) 0.3743(9)
H10_2 H 0.6869 0.9768 0.3641
H11_2 H 0.6480 0.9345 0.3926
C23_2 C 0.8447(3) 0.8315(5) 0.5035(7)
C24_2 C 0.8041(3) 0.8112(6) 0.5141(8)
C25_2 C 0.7801(3) 0.8155(7) 0.4195(8)
H17_2 H 0.7898 0.8290 0.3463
C26_2 C 0.7416(3) 0.8003(7) 0.4306(8)
H18_2 H 0.7260 0.8027 0.3648
C27_2 C 0.7261(3) 0.7814(6) 0.5394(8)
C28_2 C 0.7506(3) 0.7774(6) 0.6371(8)
H19_2 H 0.7410 0.7655 0.7109
C29_2 C 0.7891(3) 0.7911(7) 0.6227(8)
H20_2 H 0.8051 0.7867 0.6872
C30_2 C 0.6855(3) 0.7648(7) 0.5556(8)
C31_2 C 0.6707(3) 0.6840(6) 0.5269(8)
C32_2 C 0.6318(3) 0.6708(6) 0.5453(8)
H21_2 H 0.6213 0.6184 0.5276
C33_2 C 0.6086(3) 0.7345(6) 0.5894(8)
C34_2 C 0.6229(3) 0.8139(7) 0.6159(8)
C35_2 C 0.6611(3) 0.8268(6) 0.5981(8)
H22_2 H 0.6711 0.8797 0.6154
C36_2 C 0.6953(3) 0.6154(7) 0.4792(10)
H23_2 H 0.7208 0.6357 0.4729
H24_2 H 0.6947 0.5676 0.5309
H25_2 H 0.6862 0.5989 0.4033
C37_2 C 0.5984(3) 0.8830(7) 0.6654(10)
H26_2 H 0.6133 0.9329 0.6779
H27_2 H 0.5782 0.8953 0.6114
H28_2 H 0.5880 0.8647 0.7386
C38_2 C 0.5671(3) 0.7166(6) 0.6075(8)
C39_2 C 0.5416(3) 0.7256(7) 0.5160(8)
H29_2 H 0.5503 0.7425 0.4430
C40_2 C 0.5037(3) 0.7100(6) 0.5303(8)
H30_2 H 0.4872 0.7152 0.4670
C41_2 C 0.4903(3) 0.6867(6) 0.6380(8)
C42_2 C 0.5159(3) 0.6757(6) 0.7315(8)
H31_2 H 0.5074 0.6576 0.8041
C43_2 C 0.5529(3) 0.6917(7) 0.7148(8)
H32_2 H 0.5695 0.6857 0.7777
C44_2 C 0.4475(3) 0.6684(6) 0.6536(8)
O22_2 O 0.9426(3) 0.7873(7) 0.6224(18)
O24_2 O 0.9365(2) 0.8427(4) 0.2581(5)
C3_3 C 0.2888(3) 0.4774(6) 0.0654(8)
H1_3 H 0.3055 0.4969 0.1223
C4_3 C 0.2511(3) 0.4628(6) 0.0946(8)
H2_3 H 0.2430 0.4714 0.1710
C5_3 C 0.2254(3) 0.4352(6) 0.0085(8)
C8_3 C 0.1856(3) 0.4170(6) 0.0397(8)
C10_3 C 0.1187(3) 0.4267(6) 0.0056(8)
C11_3 C 0.1112(3) 0.3715(6) 0.0954(8)
C12_3 C 0.1409(3) 0.3388(6) 0.1624(8)
C13_3 C 0.1772(3) 0.3630(6) 0.1333(8)
H6_3 H 0.1971 0.3423 0.1783
C14_3 C 0.1360(3) 0.2774(7) 0.2601(8)
H7_3 H 0.1096 0.2661 0.2706
H8_3 H 0.1463 0.3008 0.3308
H9_3 H 0.1489 0.2257 0.2417
C16_3 C 0.0716(3) 0.3460(6) 0.1186(9)
C17_3 C 0.0491(4) 0.3074(9) 0.0321(12)
C18_3 C 0.0132(4) 0.2772(9) 0.0563(18)
C20_3 C 0.0183(3) 0.3305(9) 0.2485(13)
H15_3 H 0.0090 0.3422 0.3228
C21_3 C 0.0546(3) 0.3573(8) 0.2263(10)
H16_3 H 0.0682 0.3839 0.2858
C23_3 C 0.3447(3) 0.6685(5) 0.0035(7)
C24_3 C 0.3041(3) 0.6888(6) 0.0141(8)
C27_3 C 0.2261(3) 0.7186(6) 0.0394(8)
C28_3 C 0.2506(3) 0.7226(6) 0.1371(8)
H19_3 H 0.2410 0.7345 0.2109
C29_3 C 0.2891(3) 0.7089(7) 0.1227(8)
H20_3 H 0.3051 0.7133 0.1872
C30_3 C 0.1855(3) 0.7352(7) 0.0556(8)
C31_3 C 0.1707(3) 0.8160(6) 0.0269(8)
C32_3 C 0.1318(3) 0.8292(6) 0.0453(8)
H21_3 H 0.1213 0.8816 0.0276
C33_3 C 0.1086(3) 0.7655(6) 0.0894(8)
C34_3 C 0.1229(3) 0.6861(7) 0.1159(8)
C35_3 C 0.1611(3) 0.6732(6) 0.0981(8)
H22_3 H 0.1711 0.6203 0.1154
H24_3 H 0.1947 0.9324 0.0309
C37_3 C 0.0984(3) 0.6170(7) 0.1654(10)
H26_3 H 0.1133 0.5671 0.1779
H27_3 H 0.0782 0.6047 0.1114
H28_3 H 0.0880 0.6353 0.2386
C38_3 C 0.0671(3) 0.7834(6) 0.1075(8)
C39_3 C 0.0416(3) 0.7744(7) 0.0160(8)
C40_3 C 0.0037(3) 0.7900(6) 0.0303(8)
C42_3 C 0.0159(3) 0.8243(6) 0.2315(8)
H31_3 H 0.0074 0.8424 0.3041
C43_3 C 0.0529(3) 0.8083(7) 0.2148(8)
H32_3 H 0.0695 0.8143 0.2777
O19_2 O 0.4305(2) 0.5173(5) 0.1598(6)
O6_2 O 0.4305(2) 0.4827(5) 0.6598(6)
O9_3 O 0.85096(19) 0.2016(4) 0.4838(5)
O10_3 O 0.8489(2) 0.2799(5) 0.3235(6)
O13_3 O 0.8710(3) 0.2831(5) 0.7090(7)
C1_3 C 0.3416(3) 0.4764(6) 0.9184(7)
C2_3 C 0.3014(3) 0.4630(5) 0.9528(7)
C6_3 C 0.2384(3) 0.4194(6) 0.8974(8)
H3_3 H 0.2219 0.3992 0.8401
C7_3 C 0.2765(3) 0.4337(6) 0.8705(8)
H4_3 H 0.2849 0.4229 0.7951
C9_3 C 0.1547(3) 0.4506(6) 0.9739(8)
H5_3 H 0.0985 0.4491 0.9638
C15_3 C 0.1604(3) 0.5132(7) 0.8743(9)
H10_3 H 0.1869 0.5232 0.8641
H11_3 H 0.1480 0.5655 0.8926
H12_3 H 0.1499 0.4904 0.8033
H13_3 H 0.0585 0.3019 0.9567
H14_3 H 0.0003 0.2487 0.9971
C25_3 C 0.2801(3) 0.6845(7) 0.9195(8)
H17_3 H 0.2898 0.6710 0.8463
C26_3 C 0.2416(3) 0.6997(7) 0.9306(8)
H18_3 H 0.2260 0.6973 0.8648
C36_3 C 0.1953(3) 0.8846(7) 0.9792(10)
H23_3 H 0.2208 0.8643 0.9729
H25_3 H 0.1862 0.9011 0.9033
H29_3 H 0.0503 0.7575 0.9430
C45_3 C 0.4565(3) 0.4695(6) 0.7397(8)
C46_3 C 0.4961(3) 0.4583(5) 0.7013(8)
C47_3 C 0.5091(3) 0.4763(6) 0.5895(7)
H33_3 H 0.4922 0.4973 0.5337
C48_3 C 0.5457(3) 0.4640(6) 0.5598(8)
H34_3 H 0.5534 0.4759 0.4839
C49_3 C 0.5722(3) 0.4335(6) 0.6416(8)
C50_3 C 0.5591(3) 0.4146(6) 0.7538(8)
H35_3 H 0.5757 0.3927 0.8094
C51_3 C 0.5230(3) 0.4278(6) 0.7823(8)
H36_3 H 0.5153 0.4163 0.8584
C52_3 C 0.6124(3) 0.4171(6) 0.6090(7)
C53_3 C 0.6429(3) 0.4498(6) 0.6723(8)
C54_3 C 0.6790(3) 0.4275(6) 0.6405(8)
H37_3 H 0.6994 0.4496 0.6826
C55_3 C 0.6864(3) 0.3716(6) 0.5449(8)
C56_3 C 0.6552(3) 0.3380(6) 0.4822(7)
C57_3 C 0.6196(3) 0.3624(6) 0.5154(7)
H38_3 H 0.5991 0.3414 0.4732
C58_2 C 0.6372(3) 0.5106(6) 0.7713(8)
H39_2 H 0.6107 0.5192 0.7830
H40_2 H 0.6490 0.5636 0.7529
H41_3 H 0.6483 0.4879 0.8415
C59_3 C 0.6603(3) 0.2761(6) 0.3834(8)
H42_3 H 0.6360 0.2606 0.3522
H43_3 H 0.6730 0.2265 0.4120
H44_3 H 0.6751 0.3018 0.3230
C60_3 C 0.7259(3) 0.3485(6) 0.5176(8)
C61_3 C 0.7483(3) 0.3086(6) 0.5987(8)
H45_3 H 0.7394 0.3005 0.6743
C62_3 C 0.7846(3) 0.2797(7) 0.5690(8)
H46_3 H 0.7992 0.2506 0.6236
C63_3 C 0.7981(3) 0.2947(6) 0.4589(8)
C64_3 C 0.7773(3) 0.3404(7) 0.3791(9)
H47_3 H 0.7874 0.3539 0.3065
C65_3 C 0.7411(3) 0.3662(7) 0.4074(9)
H48_3 H 0.7268 0.3956 0.3525
C66_3 C 0.8358(3) 0.2574(6) 0.4208(8)
O20_3 O 0.9455(4) 0.2683(8) 0.2996(11)
O25_2 O 0.92758(19) 0.1681(4) 0.5674(6)
H49_3 H 0.845064 0.305398 0.696522
H50_3 H 0.87893 0.293397 0.791304
O12_2 O 0.92758(19) 0.8319(4) 0.0674(6)
C19_3 C 0.9937(4) 0.2877(8) 0.1723(15)
C22_3 C 0.9598(3) 0.2519(8) 0.1952(18)
C41_3 C 0.9903(3) 0.8133(6) 0.1380(8)
C44_3 C 0.9475(3) 0.8316(6) 0.1536(8)
H30_3 H 0.9872 0.7848 0.9670
O13_4 O 0.8710(3) 0.7169(5) 0.2090(7)
C1_4 C 0.3416(3) 0.5236(6) 0.4184(7)
C2_4 C 0.3014(3) 0.5370(5) 0.4528(7)
C3_4 C 0.2888(3) 0.5226(6) 0.5654(8)
H1_4 H 0.3055 0.5031 0.6223
C4_4 C 0.2511(3) 0.5372(6) 0.5946(8)
H2_4 H 0.2430 0.5286 0.6710
C5_4 C 0.2254(3) 0.5648(6) 0.5085(8)
C6_4 C 0.2384(3) 0.5806(6) 0.3974(8)
H3_4 H 0.2219 0.6008 0.3401
C7_4 C 0.2765(3) 0.5663(6) 0.3705(8)
H4_4 H 0.2849 0.5771 0.2951
C8_4 C 0.1856(3) 0.5830(6) 0.5397(8)
C9_4 C 0.1547(3) 0.5494(6) 0.4739(8)
C10_4 C 0.1187(3) 0.5733(6) 0.5056(8)
H5_4 H 0.0985 0.5509 0.4638
C11_4 C 0.1112(3) 0.6285(6) 0.5954(8)
C12_4 C 0.1409(3) 0.6612(6) 0.6624(8)
C13_4 C 0.1772(3) 0.6370(6) 0.6333(8)
H6_4 H 0.1971 0.6577 0.6783
C14_4 C 0.1360(3) 0.7226(7) 0.7601(8)
H7_4 H 0.1096 0.7339 0.7706
H8_4 H 0.1463 0.6992 0.8308
H9_4 H 0.1489 0.7743 0.7417
C15_4 C 0.1604(3) 0.4868(7) 0.3743(9)
H10_4 H 0.1869 0.4768 0.3641
H11_4 H 0.1480 0.4345 0.3926
H12_4 H 0.1499 0.5096 0.3033
C16_4 C 0.0716(3) 0.6540(6) 0.6186(9)
C17_4 C 0.0491(4) 0.6926(9) 0.5321(12)
H13_4 H 0.0585 0.6981 0.4567
C18_4 C 0.0132(4) 0.7228(9) 0.5563(18)
H14_4 H 0.0003 0.7513 0.4971
C20_4 C 0.0183(3) 0.6695(9) 0.7485(13)
H15_4 H 0.0090 0.6578 0.8228
C21_4 C 0.0546(3) 0.6427(8) 0.7263(10)
H16_4 H 0.0682 0.6161 0.7858
C23_4 C 0.3447(3) 0.3315(5) 0.5035(7)
C24_4 C 0.3041(3) 0.3112(6) 0.5141(8)
C25_4 C 0.2801(3) 0.3155(7) 0.4195(8)
H17_4 H 0.2898 0.3290 0.3463
C26_4 C 0.2416(3) 0.3003(7) 0.4306(8)
H18_4 H 0.2260 0.3027 0.3648
C27_4 C 0.2261(3) 0.2814(6) 0.5394(8)
C28_4 C 0.2506(3) 0.2774(6) 0.6371(8)
H19_4 H 0.2410 0.2655 0.7109
C29_4 C 0.2891(3) 0.2911(7) 0.6227(8)
H20_4 H 0.3051 0.2867 0.6872
C30_4 C 0.1855(3) 0.2648(7) 0.5556(8)
C31_4 C 0.1707(3) 0.1840(6) 0.5269(8)
C32_4 C 0.1318(3) 0.1708(6) 0.5453(8)
H21_4 H 0.1213 0.1184 0.5276
C33_4 C 0.1086(3) 0.2345(6) 0.5894(8)
C34_4 C 0.1229(3) 0.3139(7) 0.6159(8)
C35_4 C 0.1611(3) 0.3268(6) 0.5981(8)
H22_4 H 0.1711 0.3797 0.6154
C36_4 C 0.1953(3) 0.1154(7) 0.4792(10)
H23_4 H 0.2208 0.1357 0.4729
H24_4 H 0.1947 0.0676 0.5309
H25_4 H 0.1862 0.0989 0.4033
C37_4 C 0.0984(3) 0.3830(7) 0.6654(10)
H26_4 H 0.1133 0.4329 0.6779
H27_4 H 0.0782 0.3953 0.6114
H28_4 H 0.0880 0.3647 0.7386
C38_4 C 0.0671(3) 0.2166(6) 0.6075(8)
C39_4 C 0.0416(3) 0.2256(7) 0.5160(8)
H29_4 H 0.0503 0.2425 0.4430
C40_4 C 0.0037(3) 0.2100(6) 0.5303(8)
C42_4 C 0.0159(3) 0.1757(6) 0.7315(8)
H31_4 H 0.0074 0.1576 0.8041
C43_4 C 0.0529(3) 0.1917(7) 0.7148(8)
H32_4 H 0.0695 0.1857 0.7777
C45_4 C 0.4565(3) 0.5305(6) 0.2397(8)
C46_4 C 0.4961(3) 0.5417(5) 0.2013(8)
C47_4 C 0.5091(3) 0.5237(6) 0.0895(7)
H33_4 H 0.4922 0.5027 0.0337
C48_4 C 0.5457(3) 0.5360(6) 0.0598(8)
C49_4 C 0.5722(3) 0.5665(6) 0.1416(8)
C50_4 C 0.5591(3) 0.5854(6) 0.2538(8)
H35_4 H 0.5757 0.6073 0.3094
C51_4 C 0.5230(3) 0.5722(6) 0.2823(8)
H36_4 H 0.5153 0.5837 0.3584
C52_4 C 0.6124(3) 0.5829(6) 0.1090(7)
C53_4 C 0.6429(3) 0.5502(6) 0.1723(8)
C54_4 C 0.6790(3) 0.5725(6) 0.1405(8)
H37_4 H 0.6994 0.5504 0.1826
C55_4 C 0.6864(3) 0.6284(6) 0.0449(8)
C57_4 C 0.6196(3) 0.6376(6) 0.0154(7)
C58_3 C 0.6372(3) 0.4894(6) 0.2713(8)
H39_3 H 0.6107 0.4808 0.2830
H40_3 H 0.6490 0.4364 0.2529
H41_4 H 0.6483 0.5121 0.3415
C60_4 C 0.7259(3) 0.6515(6) 0.0176(8)
C61_4 C 0.7483(3) 0.6914(6) 0.0987(8)
H45_4 H 0.7394 0.6995 0.1743
C62_4 C 0.7846(3) 0.7203(7) 0.0690(8)
H46_4 H 0.7992 0.7494 0.1236
H49_4 H 0.845064 0.694602 0.196522
H50_4 H 0.87893 0.706603 0.291304
O9_4 O 0.85096(19) 0.7984(4) 0.9838(5)
O10_4 O 0.8489(2) 0.7201(5) 0.8235(6)
H34_4 H 0.5534 0.5241 0.9839
C56_4 C 0.6552(3) 0.6620(6) 0.9822(7)
H38_4 H 0.5991 0.6586 0.9732
C59_4 C 0.6603(3) 0.7239(6) 0.8834(8)
H42_4 H 0.6360 0.7394 0.8522
H43_4 H 0.6730 0.7735 0.9120
H44_4 H 0.6751 0.6982 0.8230
C63_4 C 0.7981(3) 0.7053(6) 0.9589(8)
C64_4 C 0.7773(3) 0.6596(7) 0.8791(9)
H47_4 H 0.7874 0.6461 0.8065
C65_4 C 0.7411(3) 0.6338(7) 0.9074(9)
H48_4 H 0.7268 0.6044 0.8525
C66_4 C 0.8358(3) 0.7426(6) 0.9208(8)
O20_4 O 0.9455(4) 0.7317(8) 0.7996(11)
C19_4 C 0.9937(4) 0.7123(8) 0.6723(15)
C22_4 C 0.9598(3) 0.7481(8) 0.6952(18)
H30_4 H 0.9872 0.2152 0.4670
C41_4 C 0.9903(3) 0.1867(6) 0.6380(8)
C44_4 C 0.9475(3) 0.1684(6) 0.6536(8)
C58_4 C 0.1372(3) 0.9894(6) 0.2713(8)
H39_4 H 0.1107 0.9808 0.2830
H40_4 H 0.1490 0.9364 0.2529
loop_
_geom_bond_atom_site_label_1
_geom_bond_atom_site_label_2
_geom_bond_site_symmetry_1
_geom_bond_site_symmetry_2
H39 C58 1_555 1_555
H40 C58 1_555 1_555
Pb2 O9 1_555 1_555
Pb3 O9 1_555 1_555
O9 C66 1_555 1_555
O10 Pb3 1_555 1_555
O13 Pb2 1_555 1_555
C48 C47 1_555 1_555
H34 C48 1_555 1_555
C49 C48 1_555 1_555
C50 C49 1_555 1_555
H35 C50 1_555 1_555
H36 C51 1_555 1_555
C52 C49 1_555 1_555
C53 C52 1_555 1_555
C54 C53 1_555 1_555
H37 C54 1_555 1_555
C55 C54 1_555 1_555
C56 C55 1_555 1_555
C57 C52 1_555 1_555
H38 C57 1_555 1_555
C59 C56 1_555 1_555
H42 C59 1_555 1_555
H43 C59 1_555 1_555
H44 C59 1_555 1_555
C60 C55 1_555 1_555
C61 C60 1_555 1_555
H45 C61 1_555 1_555
C62 C61 1_555 1_555
H46 C62 1_555 1_555
C63 C62 1_555 1_555
C64 C63 1_555 1_555
H47 C64 1_555 1_555
C65 C60 1_555 1_555
H48 C65 1_555 1_555
C66 O10 1_555 1_555
O14 Pb2 1_555 1_555
O15 Pb3 1_555 1_555
O16 Pb2 1_555 1_555
O17 Pb3 1_555 1_555
O18 Pb3 1_555 1_555
O20 Pb3 1_555 1_555
O21 Pb3 1_555 1_555
O23 Pb2 1_555 1_555
O25 Pb2 1_555 1_555
C50 C51 1_555 1_555
C56 C57 1_555 1_555
C63 C66 1_555 1_555
C64 C65 1_555 1_555
O13 H49 1_555 1_555
O13 H50 1_555 1_555
O11 C44 1_555 1_555
O12 C44 1_555 1_555
C24 C23 1_555 1_555
C28 C27 1_555 1_555
H19 C28 1_555 1_555
C29 C24 1_555 1_555
H20 C29 1_555 1_555
C30 C27 1_555 1_555
C31 C30 1_555 1_555
C32 C31 1_555 1_555
H21 C32 1_555 1_555
C33 C32 1_555 1_555
C34 C33 1_555 1_555
C35 C30 1_555 1_555
H22 C35 1_555 1_555
C37 C34 1_555 1_555
H26 C37 1_555 1_555
H27 C37 1_555 1_555
H28 C37 1_555 1_555
C38 C33 1_555 1_555
C39 C38 1_555 1_555
C40 C39 1_555 1_555
C41 C40 1_555 1_555
C42 C41 1_555 1_555
H31 C42 1_555 1_555
C43 C38 1_555 1_555
H32 C43 1_555 1_555
C44 C41 1_555 1_555
Pb6 O11 1_555 1_555
Pb7 O11 1_555 1_555
Pb11 O4 1_555 1_555
O4 C23 1_555 1_555
O12 Pb7 1_555 1_555
C28 C29 1_555 1_555
C34 C35 1_555 1_555
C42 C43 1_555 1_555
Pb11 O22 1_555 1_555
O3 Pb1 1_555 1_555
H10 C15 1_555 1_555
H11 C15 1_555 1_555
H17 C25 1_555 1_555
C26 C25 1_555 1_555
H18 C26 1_555 1_555
H23 C36 1_555 1_555
H25 C36 1_555 1_555
Pb8 O3 1_555 1_555
O24 Pb1 1_555 1_555
Pb8 O24 1_555 1_555
O20 C22 1_555 1_555
O21 C22 1_555 1_555
C3 H1 1_555 1_555
C4 C3 1_555 1_555
H2 C4 1_555 1_555
C5 C4 1_555 1_555
C8 C5 1_555 1_555
C11 C10 1_555 1_555
C12 C11 1_555 1_555
C13 C8 1_555 1_555
H6 C13 1_555 1_555
C14 C12 1_555 1_555
H7 C14 1_555 1_555
H8 C14 1_555 1_555
H9 C14 1_555 1_555
C16 C11 1_555 1_555
C17 C16 1_555 1_555
C18 C17 1_555 1_555
C19 C18 1_555 1_555
C20 C19 1_555 1_555
H15 C20 1_555 1_555
C21 C16 1_555 1_555
H16 C21 1_555 1_555
C22 C19 1_555 1_555
Pb9 O1 1_555 1_555
C12 C13 1_555 1_555
C20 C21 1_555 1_555
O1_2 C1 1_555 1_555
O2 C1 1_555 1_555
O6 C45 1_555 1_555
C1 C2 1_555 1_555
H3 C6 1_555 1_555
C7 C2 1_555 1_555
H4 C7 1_555 1_555
C45 O5 1_555 1_555
C46 C45 1_555 1_555
Pb4 O6 1_555 1_555
Pb12 O2 1_555 1_555
O5 Pb12 1_555 1_555
C6 C7 1_555 1_555
O13_2 Pb7 1_555 1_555
C48_2 C47_2 1_555 1_555
C49_2 C48_2 1_555 1_555
C50_2 C49_2 1_555 1_555
H35_2 C50_2 1_555 1_555
H36_2 C51_2 1_555 1_555
C52_2 C49_2 1_555 1_555
C53_2 C52_2 1_555 1_555
C54_2 C53_2 1_555 1_555
H37_2 C54_2 1_555 1_555
C55_2 C54_2 1_555 1_555
C57_2 C52_2 1_555 1_555
C60_2 C55_2 1_555 1_555
C61_2 C60_2 1_555 1_555
H45_2 C61_2 1_555 1_555
C62_2 C61_2 1_555 1_555
H46_2 C62_2 1_555 1_555
O14_2 Pb7 1_555 1_555
O16_2 Pb7 1_555 1_555
C50_2 C51_2 1_555 1_555
O13_2 H49_2 1_555 1_555
O13_2 H50_2 1_555 1_555
Pb3_2 O9_2 1_555 1_555
O9_2 C66_2 1_555 1_555
O10_2 Pb3_2 1_555 1_555
C59_2 C56_2 1_555 1_555
H42_2 C59_2 1_555 1_555
H43_2 C59_2 1_555 1_555
H44_2 C59_2 1_555 1_555
C64_2 C63_2 1_555 1_555
H47_2 C64_2 1_555 1_555
H48_2 C65_2 1_555 1_555
C66_2 O10_2 1_555 1_555
O15_2 Pb3_2 1_555 1_555
O17_2 Pb3_2 1_555 1_555
O18_2 Pb3_2 1_555 1_555
O20_2 Pb3_2 1_555 1_555
O21_2 Pb3_2 1_555 1_555
C63_2 C66_2 1_555 1_555
C64_2 C65_2 1_555 1_555
O1_3 C1_2 1_555 1_555
O2_2 C1_2 1_555 1_555
O19 C45_2 1_555 1_555
O20_2 C22_2 1_555 1_555
O21_2 C22_2 1_555 1_555
C1_2 C2_2 1_555 1_555
C2_2 C3_2 1_555 1_555
C3_2 H1_2 1_555 1_555
C4_2 C3_2 1_555 1_555
H2_2 C4_2 1_555 1_555
C5_2 C4_2 1_555 1_555
C6_2 C5_2 1_555 1_555
H3_2 C6_2 1_555 1_555
C7_2 C2_2 1_555 1_555
H4_2 C7_2 1_555 1_555
C8_2 C5_2 1_555 1_555
C9_2 C8_2 1_555 1_555
C10_2 C9_2 1_555 1_555
H5_2 C10_2 1_555 1_555
C11_2 C10_2 1_555 1_555
C12_2 C11_2 1_555 1_555
C13_2 C8_2 1_555 1_555
H6_2 C13_2 1_555 1_555
C14_2 C12_2 1_555 1_555
H7_2 C14_2 1_555 1_555
H8_2 C14_2 1_555 1_555
H9_2 C14_2 1_555 1_555
C16_2 C11_2 1_555 1_555
C17_2 C16_2 1_555 1_555
H13_2 C17_2 1_555 1_555
C18_2 C17_2 1_555 1_555
H14_2 C18_2 1_555 1_555
C19_2 C18_2 1_555 1_555
C20_2 C19_2 1_555 1_555
H15_2 C20_2 1_555 1_555
C21_2 C16_2 1_555 1_555
H16_2 C21_2 1_555 1_555
C22_2 C19_2 1_555 1_555
C45_2 O5_2 1_555 1_555
C46_2 C45_2 1_555 1_555
Pb6 O21_2 1_555 1_555
Pb8 O1_3 1_555 1_555
Pb11 O2_2 1_555 1_555
O5_2 Pb11 1_555 1_555
C6_2 C7_2 1_555 1_555
C12_2 C13_2 1_555 1_555
C20_2 C21_2 1_555 1_555
O3_2 Pb4 1_555 1_555
O4_2 Pb4 1_555 1_555
O23 C44_2 1_555 1_555
O25 C44_2 1_555 1_555
H10_2 C15_2 1_555 1_555
H11_2 C15_2 1_555 1_555
C23_2 O3_2 1_555 1_555
C24_2 C23_2 1_555 1_555
C25_2 C24_2 1_555 1_555
H17_2 C25_2 1_555 1_555
C26_2 C25_2 1_555 1_555
H18_2 C26_2 1_555 1_555
C27_2 C26_2 1_555 1_555
C28_2 C27_2 1_555 1_555
H19_2 C28_2 1_555 1_555
C29_2 C24_2 1_555 1_555
H20_2 C29_2 1_555 1_555
C30_2 C27_2 1_555 1_555
C31_2 C30_2 1_555 1_555
C32_2 C31_2 1_555 1_555
H21_2 C32_2 1_555 1_555
C33_2 C32_2 1_555 1_555
C34_2 C33_2 1_555 1_555
C35_2 C30_2 1_555 1_555
H22_2 C35_2 1_555 1_555
C36_2 C31_2 1_555 1_555
H23_2 C36_2 1_555 1_555
H24_2 C36_2 1_555 1_555
H25_2 C36_2 1_555 1_555
C37_2 C34_2 1_555 1_555
H26_2 C37_2 1_555 1_555
H27_2 C37_2 1_555 1_555
H28_2 C37_2 1_555 1_555
C38_2 C33_2 1_555 1_555
C39_2 C38_2 1_555 1_555
H29_2 C39_2 1_555 1_555
C40_2 C39_2 1_555 1_555
H30_2 C40_2 1_555 1_555
C41_2 C40_2 1_555 1_555
C42_2 C41_2 1_555 1_555
H31_2 C42_2 1_555 1_555
C43_2 C38_2 1_555 1_555
H32_2 C43_2 1_555 1_555
C44_2 C41_2 1_555 1_555
Pb5 O23 1_555 1_555
Pb9 O3_2 1_555 1_555
Pb12 O4_2 1_555 1_555
O22_2 Pb4 1_555 1_555
O24_2 Pb4 1_555 1_555
O4_2 C23_2 1_555 1_555
C28_2 C29_2 1_555 1_555
C34_2 C35_2 1_555 1_555
C42_2 C43_2 1_555 1_555
Pb9 O24_2 1_555 1_555
Pb12 O22_2 1_555 1_555
C3_3 H1_3 1_555 1_555
C4_3 C3_3 1_555 1_555
H2_3 C4_3 1_555 1_555
C5_3 C4_3 1_555 1_555
C8_3 C5_3 1_555 1_555
C11_3 C10_3 1_555 1_555
C12_3 C11_3 1_555 1_555
C13_3 C8_3 1_555 1_555
H6_3 C13_3 1_555 1_555
C14_3 C12_3 1_555 1_555
H7_3 C14_3 1_555 1_555
H8_3 C14_3 1_555 1_555
H9_3 C14_3 1_555 1_555
C16_3 C11_3 1_555 1_555
C17_3 C16_3 1_555 1_555
C18_3 C17_3 1_555 1_555
H15_3 C20_3 1_555 1_555
C21_3 C16_3 1_555 1_555
H16_3 C21_3 1_555 1_555
C24_3 C23_3 1_555 1_555
C28_3 C27_3 1_555 1_555
H19_3 C28_3 1_555 1_555
C29_3 C24_3 1_555 1_555
H20_3 C29_3 1_555 1_555
C30_3 C27_3 1_555 1_555
C31_3 C30_3 1_555 1_555
C32_3 C31_3 1_555 1_555
H21_3 C32_3 1_555 1_555
C33_3 C32_3 1_555 1_555
C34_3 C33_3 1_555 1_555
C35_3 C30_3 1_555 1_555
H22_3 C35_3 1_555 1_555
C37_3 C34_3 1_555 1_555
H26_3 C37_3 1_555 1_555
H27_3 C37_3 1_555 1_555
H28_3 C37_3 1_555 1_555
C38_3 C33_3 1_555 1_555
C39_3 C38_3 1_555 1_555
C40_3 C39_3 1_555 1_555
H31_3 C42_3 1_555 1_555
C43_3 C38_3 1_555 1_555
H32_3 C43_3 1_555 1_555
O17 C23_3 1_555 1_555
C12_3 C13_3 1_555 1_555
C20_3 C21_3 1_555 1_555
C28_3 C29_3 1_555 1_555
C34_3 C35_3 1_555 1_555
C42_3 C43_3 1_555 1_555
Pb5 O14_3 1_555 1_555
Pb8 O9_3 1_555 1_555
Pb11 O9_3 1_555 1_555
O14_3 C1_3 1_555 1_555
O15_2 C1_3 1_555 1_555
O16 Pb5 1_555 1_555
O18_2 Pb5 1_555 1_555
O6_2 C45_3 1_555 1_555
O9_3 C66_3 1_555 1_555
O10_3 Pb11 1_555 1_555
O13_3 Pb8 1_555 1_555
C1_3 C2_3 1_555 1_555
H3_3 C6_3 1_555 1_555
C7_3 C2_3 1_555 1_555
H4_3 C7_3 1_555 1_555
C15_3 C9_3 1_555 1_555
H10_3 C15_3 1_555 1_555
H11_3 C15_3 1_555 1_555
H12_3 C15_3 1_555 1_555
H17_3 C25_3 1_555 1_555
C26_3 C25_3 1_555 1_555
H18_3 C26_3 1_555 1_555
H23_3 C36_3 1_555 1_555
H25_3 C36_3 1_555 1_555
C45_3 O18_2 1_555 1_555
C46_3 C45_3 1_555 1_555
C47_3 C46_3 1_555 1_555
H33_3 C47_3 1_555 1_555
C48_3 C47_3 1_555 1_555
H34_3 C48_3 1_555 1_555
C49_3 C48_3 1_555 1_555
C50_3 C49_3 1_555 1_555
H35_3 C50_3 1_555 1_555
C51_3 C46_3 1_555 1_555
H36_3 C51_3 1_555 1_555
C52_3 C49_3 1_555 1_555
C53_3 C52_3 1_555 1_555
C54_3 C53_3 1_555 1_555
H37_3 C54_3 1_555 1_555
C55_3 C54_3 1_555 1_555
C56_3 C55_3 1_555 1_555
C57_3 C52_3 1_555 1_555
H38_3 C57_3 1_555 1_555
C58_2 C53_3 1_555 1_555
H39_2 C58_2 1_555 1_555
H40_2 C58_2 1_555 1_555
H41_3 C58_2 1_555 1_555
C59_3 C56_3 1_555 1_555
H42_3 C59_3 1_555 1_555
H43_3 C59_3 1_555 1_555
H44_3 C59_3 1_555 1_555
C60_3 C55_3 1_555 1_555
C61_3 C60_3 1_555 1_555
H45_3 C61_3 1_555 1_555
C62_3 C61_3 1_555 1_555
H46_3 C62_3 1_555 1_555
C63_3 C62_3 1_555 1_555
C64_3 C63_3 1_555 1_555
H47_3 C64_3 1_555 1_555
C65_3 C60_3 1_555 1_555
H48_3 C65_3 1_555 1_555
C66_3 O10_3 1_555 1_555
Pb6 O6_2 1_555 1_555
O20_3 Pb11 1_555 1_555
O25_2 Pb8 1_555 1_555
C6_3 C7_3 1_555 1_555
C50_3 C51_3 1_555 1_555
C56_3 C57_3 1_555 1_555
C63_3 C66_3 1_555 1_555
C64_3 C65_3 1_555 1_555
O13_3 H49_3 1_555 1_555
O13_3 H50_3 1_555 1_555
O20_3 C22_3 1_555 1_555
O22 C22_3 1_555 1_555
O24_2 C44_3 1_555 1_555
O12_2 C44_3 1_555 1_555
C22_3 C19_3 1_555 1_555
C44_3 C41_3 1_555 1_555
O12_2 Pb9 1_555 1_555
Pb6 O14 1_555 1_555
O14 C1_4 1_555 1_555
O15 C1_4 1_555 1_555
O16_2 Pb6 1_555 1_555
O17_2 Pb6 1_555 1_555
O18 Pb6 1_555 1_555
O19_2 C45_4 1_555 1_555
O13_4 Pb9 1_555 1_555
C1_4 C2_4 1_555 1_555
C2_4 C3_4 1_555 1_555
C3_4 H1_4 1_555 1_555
C4_4 C3_4 1_555 1_555
H2_4 C4_4 1_555 1_555
C5_4 C4_4 1_555 1_555
C6_4 C5_4 1_555 1_555
H3_4 C6_4 1_555 1_555
C7_4 C2_4 1_555 1_555
H4_4 C7_4 1_555 1_555
C8_4 C5_4 1_555 1_555
C9_4 C8_4 1_555 1_555
C10_4 C9_4 1_555 1_555
H5_4 C10_4 1_555 1_555
C11_4 C10_4 1_555 1_555
C12_4 C11_4 1_555 1_555
C13_4 C8_4 1_555 1_555
H6_4 C13_4 1_555 1_555
C14_4 C12_4 1_555 1_555
H7_4 C14_4 1_555 1_555
H8_4 C14_4 1_555 1_555
H9_4 C14_4 1_555 1_555
C15_4 C9_4 1_555 1_555
H10_4 C15_4 1_555 1_555
H11_4 C15_4 1_555 1_555
H12_4 C15_4 1_555 1_555
C16_4 C11_4 1_555 1_555
C17_4 C16_4 1_555 1_555
H13_4 C17_4 1_555 1_555
C18_4 C17_4 1_555 1_555
H14_4 C18_4 1_555 1_555
H15_4 C20_4 1_555 1_555
C21_4 C16_4 1_555 1_555
H16_4 C21_4 1_555 1_555
C23_4 O16_2 1_555 1_555
C24_4 C23_4 1_555 1_555
C25_4 C24_4 1_555 1_555
H17_4 C25_4 1_555 1_555
C26_4 C25_4 1_555 1_555
H18_4 C26_4 1_555 1_555
C27_4 C26_4 1_555 1_555
C28_4 C27_4 1_555 1_555
H19_4 C28_4 1_555 1_555
C29_4 C24_4 1_555 1_555
H20_4 C29_4 1_555 1_555
C30_4 C27_4 1_555 1_555
C31_4 C30_4 1_555 1_555
C32_4 C31_4 1_555 1_555
H21_4 C32_4 1_555 1_555
C33_4 C32_4 1_555 1_555
C34_4 C33_4 1_555 1_555
C35_4 C30_4 1_555 1_555
H22_4 C35_4 1_555 1_555
C36_4 C31_4 1_555 1_555
H23_4 C36_4 1_555 1_555
H24_4 C36_4 1_555 1_555
H25_4 C36_4 1_555 1_555
C37_4 C34_4 1_555 1_555
H26_4 C37_4 1_555 1_555
H27_4 C37_4 1_555 1_555
H28_4 C37_4 1_555 1_555
C38_4 C33_4 1_555 1_555
C39_4 C38_4 1_555 1_555
H29_4 C39_4 1_555 1_555
C40_4 C39_4 1_555 1_555
H31_4 C42_4 1_555 1_555
C43_4 C38_4 1_555 1_555
H32_4 C43_4 1_555 1_555
C45_4 O18 1_555 1_555
C46_4 C45_4 1_555 1_555
C47_4 C46_4 1_555 1_555
H33_4 C47_4 1_555 1_555
C48_4 C47_4 1_555 1_555
C49_4 C48_4 1_555 1_555
C50_4 C49_4 1_555 1_555
H35_4 C50_4 1_555 1_555
C51_4 C46_4 1_555 1_555
H36_4 C51_4 1_555 1_555
C52_4 C49_4 1_555 1_555
C53_4 C52_4 1_555 1_555
C54_4 C53_4 1_555 1_555
H37_4 C54_4 1_555 1_555
C55_4 C54_4 1_555 1_555
C57_4 C52_4 1_555 1_555
C58_3 C53_4 1_555 1_555
H39_3 C58_3 1_555 1_555
H40_3 C58_3 1_555 1_555
H41_4 C58_3 1_555 1_555
C60_4 C55_4 1_555 1_555
C61_4 C60_4 1_555 1_555
H45_4 C61_4 1_555 1_555
C62_4 C61_4 1_555 1_555
H46_4 C62_4 1_555 1_555
O17_2 C23_4 1_555 1_555
C6_4 C7_4 1_555 1_555
C12_4 C13_4 1_555 1_555
C20_4 C21_4 1_555 1_555
C28_4 C29_4 1_555 1_555
C34_4 C35_4 1_555 1_555
C42_4 C43_4 1_555 1_555
C50_4 C51_4 1_555 1_555
O13_4 H49_4 1_555 1_555
O13_4 H50_4 1_555 1_555
Pb12 O9_4 1_555 1_555
O9_4 C66_4 1_555 1_555
O10_4 Pb12 1_555 1_555
C59_4 C56_4 1_555 1_555
H42_4 C59_4 1_555 1_555
H43_4 C59_4 1_555 1_555
H44_4 C59_4 1_555 1_555
C64_4 C63_4 1_555 1_555
H47_4 C64_4 1_555 1_555
H48_4 C65_4 1_555 1_555
C66_4 O10_4 1_555 1_555
O20_4 Pb12 1_555 1_555
C63_4 C66_4 1_555 1_555
C64_4 C65_4 1_555 1_555
O20_4 C22_4 1_555 1_555
O22_2 C22_4 1_555 1_555
O24 C44_4 1_555 1_555
O25_2 C44_4 1_555 1_555
C22_4 C19_4 1_555 1_555
C44_4 C41_4 1_555 1_555
H39_4 C58_4 1_555 1_555
H40_4 C58_4 1_555 1_555

#END
