
###############################################################################
#
# This file contains modified crystal structure data generated from the
# MOF subset of the Cambridge Structural Database (CSD) v543 
# hosted by the Cambridge Crystallographic Data Centre (CCDC).
#
# This work is licensed under the Creative Commons
# Attribution-NonCommercial-ShareAlike 4.0 International License.
# To view a copy of this license, visit
# http://creativecommons.org/licenses/by-nc-sa/4.0/
# or send a letter to
# Creative Commons, PO Box 1866, Mountain View, CA 94042, USA.
#
# CIF created using the CSD Python API on 29 September 2022
# The structure has been converted into the P1 space group
# The structure has a 3D framework
# The original CSD entry HIFTOG02 is in the rhombohedral crystal system
# The framework has been calculated to contain at least 10.0% void space
# The void calculation uses a probe of radius 1.32A, grid spacing 0.4
#
###############################################################################

data_HIFTOG02
_chemical_formula_moiety         '(C288 H144 O162 Zn54)n'
_symmetry_cell_setting           triclinic
_symmetry_space_group_name_H-M   'P 1'
_symmetry_Int_Tables_number      1
_space_group_name_Hall           'P 1'
loop_
_symmetry_equiv_pos_site_id
_symmetry_equiv_pos_as_xyz
1 x,y,z
_cell_length_a                   18.452(6)
_cell_length_b                   18.452(6)
_cell_length_c                   44.933(6)
_cell_angle_alpha                90
_cell_angle_beta                 90
_cell_angle_gamma                120
_cell_volume                     13249
loop_
_atom_site_label
_atom_site_type_symbol
_atom_site_fract_x
_atom_site_fract_y
_atom_site_fract_z
Zn8 Zn 0.057985(19) 0.942015(19) 0.332682(12)
Zn9 Zn 0.608627(19) 0.217254(27) 0.195230(12)
Zn17 Zn 0.6667 0.3333 0.13672(2)
O20 O 0.6667 0.3333 0.18059(13)
O22 O 0.60942(14) 0.21884(20) 0.12131(11)
O26 O 0.56925(15) 0.13850(21) 0.16215(10)
O34 O 0.6835(3) 0.1956(2) 0.21948(9)
O35 O 0.5122(2) 0.1956(2) 0.21948(9)
C33 C 0.5745(2) 0.1490(3) 0.13457(15)
C35 C 0.5356(2) 0.0712(3) 0.11506(14)
C37 C 0.5392(2) 0.0784(3) 0.08479(15)
H17 H 0.5655 0.1310 0.0760
C39 C 0.5034(2) 0.0068(3) 0.06680(14)
H19 H 0.5062 0.0124 0.0462
Zn16 Zn 0.941960(19) 0.058040(19) 0.861897(12)
Zn2 Zn 0.3333 0.6667 0.05788(2)
O1 O 0.3333 0.6667 0.01414(13)
O2 O 0.43085(15) 0.56915(15) 0.03219(10)
O3 O 0.39060(15) 0.60940(15) 0.07315(11)
Zn3 Zn 0.608627(19) 0.391373(19) 0.195230(12)
O6 O 0.60942(14) 0.39058(14) 0.12131(11)
O7 O 0.56925(15) 0.43075(15) 0.16215(10)
C7 C 0.5745(2) 0.4255(2) 0.13457(15)
C8 C 0.5356(2) 0.4644(2) 0.11506(14)
C9 C 0.5392(2) 0.4608(2) 0.08479(15)
H3 H 0.5655 0.4345 0.0760
C10 C 0.5034(2) 0.4966(2) 0.06680(14)
H4 H 0.5062 0.4938 0.0462
C11 C 0.4967(3) 0.5033(3) 0.12754(17)
H5 H 0.4939 0.5061 0.1481
C12 C 0.4613(2) 0.5387(2) 0.10967(18)
H6 H 0.4351 0.5649 0.1186
C13 C 0.4641(2) 0.5359(2) 0.07937(15)
C14 C 0.4256(2) 0.5744(2) 0.06001(15)
Zn7 Zn 0.884031(27) 0.942015(19) 0.332682(12)
O9 O 0.43085(15) 0.86170(21) 0.03219(10)
O10 O 0.13830(21) 0.56915(15) 0.03219(10)
O11 O 0.39060(15) 0.78120(21) 0.07315(11)
O12 O 0.21880(21) 0.60940(15) 0.07315(11)
O16 O 0.8618(3) 0.8453(2) 0.30856(9)
O17 O 0.9836(2) 0.8453(2) 0.30856(9)
C16 C 0.7588(2) 0.5175(4) 0.22663(16)
C18 C 0.7974(2) 0.5947(5) 0.24637(18)
C22 C 0.7510(6) 0.6299(4) 0.25546(18)
C23 C 0.8790(4) 0.6299(4) 0.25546(18)
H10 H 0.6953 0.6063 0.2496
H11 H 0.9111 0.6063 0.2496
C27 C 0.7871(6) 0.7012(4) 0.27348(17)
C28 C 0.9142(4) 0.7012(4) 0.27348(17)
H15 H 0.7550 0.7244 0.2796
H16 H 0.9695 0.7244 0.2796
C30 C 0.8687(5) 0.7371(5) 0.28218(18)
C32 C 0.9079(2) 0.8157(4) 0.30114(15)
Zn12 Zn 0.782746(27) 0.391373(19) 0.195230(12)
O25 O 0.78116(20) 0.39058(14) 0.12131(11)
O31 O 0.6835(3) 0.4878(2) 0.21948(9)
O32 O 0.8044(2) 0.4878(2) 0.21948(9)
O33 O 0.5122(2) 0.3165(3) 0.21948(9)
C41 C 0.4967(3) 0.9934(4) 0.12754(17)
C42 C 0.0066(4) 0.5033(3) 0.12754(17)
H21 H 0.4939 0.9878 0.1481
H22 H 0.0122 0.5061 0.1481
C43 C 0.4613(2) 0.9226(3) 0.10967(18)
C44 C 0.0774(3) 0.5387(2) 0.10967(18)
H23 H 0.4351 0.8702 0.1186
H24 H 0.1298 0.5649 0.1186
C45 C 0.4641(2) 0.9282(3) 0.07937(15)
C46 C 0.0718(3) 0.5359(2) 0.07937(15)
C47 C 0.4256(2) 0.8512(3) 0.06001(15)
C48 C 0.1488(3) 0.5744(2) 0.06001(15)
Zn1 Zn 0.391318(19) 0.608682(19) 0.999349(12)
O4 O 0.3169(2) 0.5120(2) 0.97523(9)
C1 C 0.0921(2) 0.1842(4) 0.89330(16)
C2 C 0.1307(2) 0.2614(5) 0.91304(18)
C3 C 0.2123(4) 0.2966(4) 0.92213(18)
H1 H 0.2444 0.2730 0.9163
C4 C 0.2475(4) 0.3679(4) 0.94015(17)
H2 H 0.3028 0.3911 0.9463
C5 C 0.2018(2) 0.4038(5) 0.94885(18)
C6 C 0.2412(2) 0.4824(4) 0.96781(15)
O8 O 0.1377(2) 0.1545(2) 0.88615(9)
Zn5 Zn 0.217364(27) 0.608682(19) 0.999349(12)
Zn6 Zn 0.391318(19) 0.782636(27) 0.999349(12)
O13 O 0.1951(3) 0.5120(2) 0.97523(9)
O14 O 0.4880(2) 0.6831(2) 0.97523(9)
O15 O 0.4880(2) 0.8049(3) 0.97523(9)
O18 O 0.1951(3) 0.6831(2) 0.97523(9)
O19 O 0.3169(2) 0.8049(3) 0.97523(9)
C15 C 0.8158(4) 0.9079(4) 0.89330(16)
C17 C 0.7386(5) 0.8693(5) 0.91304(18)
C19 C 0.0843(6) 0.2966(4) 0.92213(18)
C20 C 0.7034(4) 0.7877(4) 0.92213(18)
C21 C 0.7034(4) 0.9157(6) 0.92213(18)
H7 H 0.0286 0.2730 0.9163
H8 H 0.7270 0.7556 0.9163
H9 H 0.7270 0.9714 0.9163
C24 C 0.1204(6) 0.3679(4) 0.94015(17)
C25 C 0.6321(4) 0.7525(4) 0.94015(17)
C26 C 0.6321(4) 0.8796(6) 0.94015(17)
H12 H 0.0883 0.3911 0.9463
H13 H 0.6089 0.6972 0.9463
H14 H 0.6089 0.9117 0.9463
C29 C 0.5962(5) 0.7982(2) 0.94885(18)
C31 C 0.5176(4) 0.7588(4) 0.96781(15)
Zn13 Zn 0.116079(27) 0.058040(19) 0.861897(12)
Zn15 Zn 0.941960(19) 0.883921(27) 0.861897(12)
O28 O 0.0168(3) 0.1545(2) 0.88615(9)
O29 O 0.8455(2) 0.8623(2) 0.88615(9)
O30 O 0.8455(2) 0.9832(3) 0.88615(9)
O27 O 0.86150(21) 0.43075(15) 0.16215(10)
O37 O 0.8044(2) 0.3165(3) 0.21948(9)
C34 C 0.8510(3) 0.4255(2) 0.13457(15)
C36 C 0.9288(3) 0.4644(2) 0.11506(14)
C38 C 0.9216(3) 0.4608(2) 0.08479(15)
H18 H 0.8690 0.4345 0.0760
C40 C 0.9932(3) 0.4966(2) 0.06680(14)
H20 H 0.9876 0.4938 0.0462
Zn8_2 Zn 0.057985(19) 0.115969(27) 0.332682(12)
O16_2 O 0.1547(2) 0.0164(4) 0.30856(9)
O17_2 O 0.1547(2) 0.1382(3) 0.30856(9)
C16_2 C 0.4825(4) 0.2412(4) 0.22663(16)
C18_2 C 0.4053(5) 0.2026(5) 0.24637(18)
C22_2 C 0.3701(4) 0.1210(7) 0.25546(18)
C23_2 C 0.3701(4) 0.2490(6) 0.25546(18)
H10_2 H 0.3937 0.0889 0.2496
H11_2 H 0.3937 0.3047 0.2496
C27_2 C 0.2988(4) 0.0858(7) 0.27348(17)
C28_2 C 0.2988(4) 0.2129(6) 0.27348(17)
H15_2 H 0.2756 0.0305 0.2796
H16_2 H 0.2756 0.2450 0.2796
C30_2 C 0.2629(5) 0.1315(7) 0.28218(18)
C32_2 C 0.1843(4) 0.0921(4) 0.30114(15)
C15_2 C 0.0921(4) 0.9079(6) 0.89330(16)
C17_2 C 0.1307(5) 0.8693(7) 0.91304(18)
C20_2 C 0.2123(4) 0.9157(6) 0.92213(18)
C21_2 C 0.0843(6) 0.7877(7) 0.92213(18)
H8_2 H 0.2444 0.9714 0.9163
H9_2 H 0.0286 0.7556 0.9163
C25_2 C 0.2475(4) 0.8796(6) 0.94015(17)
C26_2 C 0.1204(6) 0.7525(7) 0.94015(17)
H13_2 H 0.3028 0.9117 0.9463
H14_2 H 0.0883 0.6972 0.9463
C29_2 C 0.2018(2) 0.7980(5) 0.94885(18)
C31_2 C 0.2412(4) 0.7588(6) 0.96781(15)
O29_2 O 0.1377(2) 0.9832(3) 0.88615(9)
O30_2 O 0.0168(3) 0.8623(4) 0.88615(9)
O16_3 O 0.9836(4) 0.1382(3) 0.30856(9)
O17_3 O 0.8618(3) 0.0164(2) 0.30856(9)
C16_3 C 0.7588(4) 0.2412(2) 0.22663(16)
C18_3 C 0.7974(5) 0.2026(2) 0.24637(18)
C22_3 C 0.8790(7) 0.2490(6) 0.25546(18)
C23_3 C 0.7510(6) 0.1210(4) 0.25546(18)
H10_3 H 0.9111 0.3047 0.2496
H11_3 H 0.6953 0.0889 0.2496
C27_3 C 0.9142(7) 0.2129(6) 0.27348(17)
C28_3 C 0.7871(6) 0.0858(4) 0.27348(17)
H15_3 H 0.9695 0.2450 0.2796
H16_3 H 0.7550 0.0305 0.2796
C30_3 C 0.8685(7) 0.1313(5) 0.28218(18)
C32_3 C 0.9079(4) 0.0921(2) 0.30114(15)
Zn2_2 Zn -0.0000 0.0000 0.39121(2)
O1_2 O -0.0000 0.0000 0.34747(13)
Zn7_2 Zn 0.550697(27) 0.275349(19) 0.666016(12)
Zn8_3 Zn 0.724651(19) 0.275349(19) 0.666016(12)
O9_2 O 0.09752(15) 0.19503(21) 0.36552(10)
O11_2 O 0.05727(15) 0.11453(21) 0.40648(11)
O16_4 O 0.5284(3) 0.1787(2) 0.64190(9)
O17_4 O 0.6502(2) 0.1787(2) 0.64190(9)
C27_4 C 0.4537(6) 0.0346(4) 0.60682(17)
C28_4 C 0.5808(4) 0.0346(4) 0.60682(17)
H15_4 H 0.4216 0.0578 0.6130
H16_4 H 0.6361 0.0578 0.6130
C30_4 C 0.5353(5) 0.0705(5) 0.61552(18)
C32_4 C 0.5745(2) 0.1491(4) 0.63448(15)
Zn9_2 Zn 0.275294(19) 0.550587(27) 0.528563(12)
Zn17_2 Zn 0.3334 0.6666 0.47005(2)
O20_2 O 0.3334 0.6666 0.51392(13)
O22_2 O 0.27609(14) 0.55217(20) 0.45464(11)
O26_2 O 0.23592(15) 0.47183(21) 0.49548(10)
O34_2 O 0.3501(3) 0.5290(2) 0.55282(9)
O35_2 O 0.1788(2) 0.5290(2) 0.55282(9)
C33_2 C 0.2412(2) 0.4823(3) 0.46790(15)
C35_2 C 0.2023(2) 0.4045(3) 0.44839(14)
C37_2 C 0.2059(2) 0.4117(3) 0.41812(15)
H17_2 H 0.2322 0.4643 0.4093
C39_2 C 0.1701(2) 0.3401(3) 0.40013(14)
H19_2 H 0.1729 0.3457 0.3795
C41_2 C 0.1634(3) 0.3267(4) 0.46087(17)
H21_2 H 0.1606 0.3211 0.4814
C43_2 C 0.1280(2) 0.2559(3) 0.44300(18)
H23_2 H 0.1018 0.2035 0.4519
C45_2 C 0.1308(2) 0.2615(3) 0.41270(15)
C47_2 C 0.0923(2) 0.1845(3) 0.39334(15)
Zn2_3 Zn -0.0000 1.0000 0.39121(2)
O1_3 O -0.0000 1.0000 0.34747(13)
O2_2 O 0.09752(15) 0.90248(15) 0.36552(10)
O3_2 O 0.05727(15) 0.94273(15) 0.40648(11)
Zn3_2 Zn 0.275294(19) 0.724706(19) 0.528563(12)
O6_2 O 0.27609(14) 0.72391(14) 0.45464(11)
O7_2 O 0.23592(15) 0.76408(15) 0.49548(10)
C7_2 C 0.2412(2) 0.7588(2) 0.46790(15)
C8_2 C 0.2023(2) 0.7977(2) 0.44839(14)
C9_2 C 0.2059(2) 0.7941(2) 0.41812(15)
H3_2 H 0.2322 0.7678 0.4093
C10_2 C 0.1701(2) 0.8299(2) 0.40013(14)
H4_2 H 0.1729 0.8271 0.3795
C11_2 C 0.1634(3) 0.8366(3) 0.46087(17)
H5_2 H 0.1606 0.8394 0.4814
C12_2 C 0.1280(2) 0.8720(2) 0.44300(18)
H6_2 H 0.1018 0.8982 0.4519
C13_2 C 0.1308(2) 0.8692(2) 0.41270(15)
C14_2 C 0.0923(2) 0.9077(2) 0.39334(15)
C16_4 C 0.4254(2) 0.8509(4) 0.55997(16)
C18_4 C 0.4640(2) 0.9281(5) 0.57971(18)
C22_4 C 0.4176(6) 0.9633(4) 0.58880(18)
C23_4 C 0.5456(4) 0.9633(4) 0.58880(18)
H10_4 H 0.3619 0.9397 0.5830
H11_4 H 0.5777 0.9397 0.5830
Zn12_2 Zn 0.449413(27) 0.724706(19) 0.528563(12)
O25_2 O 0.44783(20) 0.72391(14) 0.45464(11)
O31_2 O 0.3501(3) 0.8212(2) 0.55282(9)
O32_2 O 0.4710(2) 0.8212(2) 0.55282(9)
O33_2 O 0.1788(2) 0.6499(3) 0.55282(9)
Zn2_4 Zn 1.0000 0.0000 0.39121(2)
O1_4 O 1.0000 0.0000 0.34747(13)
Zn2_5 Zn 1.0000 1.0000 0.39121(2)
O1_5 O 1.0000 1.0000 0.34747(13)
O10_2 O 0.80497(21) 0.90248(15) 0.36552(10)
O12_2 O 0.88547(21) 0.94273(15) 0.40648(11)
O27_2 O 0.52817(21) 0.76408(15) 0.49548(10)
O37_2 O 0.4710(2) 0.6499(3) 0.55282(9)
C34_2 C 0.5177(3) 0.7588(2) 0.46790(15)
C36_2 C 0.5955(3) 0.7977(2) 0.44839(14)
C38_2 C 0.5883(3) 0.7941(2) 0.41812(15)
H18_2 H 0.5357 0.7678 0.4093
C40_2 C 0.6599(3) 0.8299(2) 0.40013(14)
H20_2 H 0.6543 0.8271 0.3795
C42_2 C 0.6733(4) 0.8366(3) 0.46087(17)
H22_2 H 0.6789 0.8394 0.4814
C44_2 C 0.7441(3) 0.8720(2) 0.44300(18)
H24_2 H 0.7965 0.8982 0.4519
C46_2 C 0.7385(3) 0.8692(2) 0.41270(15)
C48_2 C 0.8155(3) 0.9077(2) 0.39334(15)
C16_5 C 0.1491(4) 0.5746(4) 0.55997(16)
C18_5 C 0.0719(5) 0.5360(5) 0.57971(18)
C22_5 C 0.0367(4) 0.4544(7) 0.58880(18)
C23_5 C 0.0367(4) 0.5824(6) 0.58880(18)
H10_5 H 0.0603 0.4223 0.5830
H11_5 H 0.0603 0.6381 0.5830
Zn8_4 Zn 0.724651(19) 0.449303(27) 0.666016(12)
O16_5 O 0.8213(2) 0.3498(4) 0.64190(9)
O17_5 O 0.8213(2) 0.4716(3) 0.64190(9)
C27_5 C 0.9654(4) 0.4192(7) 0.60682(17)
C28_5 C 0.9654(4) 0.5463(6) 0.60682(17)
H15_5 H 0.9422 0.3639 0.6130
H16_5 H 0.9422 0.5784 0.6130
C30_5 C 0.9295(5) 0.4649(7) 0.61552(18)
C32_5 C 0.8509(4) 0.4255(4) 0.63448(15)
O16_6 O 0.6502(4) 0.4716(3) 0.64190(9)
O17_6 O 0.5284(3) 0.3498(2) 0.64190(9)
C16_6 C 0.4254(4) 0.5746(2) 0.55997(16)
C18_6 C 0.4640(5) 0.5360(2) 0.57971(18)
C22_6 C 0.5456(7) 0.5824(6) 0.58880(18)
C23_6 C 0.4176(6) 0.4544(4) 0.58880(18)
H10_6 H 0.5777 0.6381 0.5830
H11_6 H 0.3619 0.4223 0.5830
C27_6 C 0.5808(7) 0.5463(6) 0.60682(17)
C28_6 C 0.4537(6) 0.4192(4) 0.60682(17)
H15_6 H 0.6361 0.5784 0.6130
H16_6 H 0.4216 0.3639 0.6130
C30_6 C 0.5351(7) 0.4647(5) 0.61552(18)
C32_6 C 0.5745(4) 0.4255(2) 0.63448(15)
Zn17_3 Zn 0.0000 -0.0000 0.80339(2)
O20_3 O 0.0000 -0.0000 0.84726(13)
Zn17_4 Zn 0.0000 1.0000 0.80339(2)
O20_4 O 0.0000 1.0000 0.84726(13)
O25_3 O 0.11449(20) 0.05725(14) 0.78798(11)
Zn17_5 Zn 1.0000 -0.0000 0.80339(2)
O20_5 O 1.0000 -0.0000 0.84726(13)
Zn2_6 Zn 0.6666 0.3334 0.72455(2)
O1_6 O 0.6666 0.3334 0.68081(13)
O2_3 O 0.76418(15) 0.23582(15) 0.69886(10)
O3_3 O 0.72393(15) 0.27607(15) 0.73982(11)
O6_3 O 0.94275(14) 0.05725(14) 0.78798(11)
O7_3 O 0.90258(15) 0.09742(15) 0.82882(10)
C7_3 C 0.9078(2) 0.0922(2) 0.80124(15)
C8_3 C 0.8689(2) 0.1311(2) 0.78173(14)
C9_3 C 0.8725(2) 0.1275(2) 0.75146(15)
H3_3 H 0.8988 0.1012 0.7427
C10_3 C 0.8367(2) 0.1633(2) 0.73347(14)
H4_3 H 0.8395 0.1605 0.7129
C11_3 C 0.8300(3) 0.1700(3) 0.79421(17)
H5_3 H 0.8272 0.1728 0.8148
C12_3 C 0.7946(2) 0.2054(2) 0.77634(18)
H6_3 H 0.7684 0.2316 0.7853
C13_3 C 0.7974(2) 0.2026(2) 0.74604(15)
C14_3 C 0.7589(2) 0.2411(2) 0.72668(15)
O9_3 O 0.76418(15) 0.52837(21) 0.69886(10)
O10_3 O 0.47163(21) 0.23582(15) 0.69886(10)
O11_3 O 0.72393(15) 0.44787(21) 0.73982(11)
O12_3 O 0.55213(21) 0.27607(15) 0.73982(11)
Zn17_6 Zn 1.0000 1.0000 0.80339(2)
O20_6 O 1.0000 1.0000 0.84726(13)
O22_3 O 0.94275(14) 0.88551(20) 0.78798(11)
O26_3 O 0.90258(15) 0.80517(21) 0.82882(10)
O27_3 O 0.19483(21) 0.09742(15) 0.82882(10)
C33_3 C 0.9078(2) 0.8157(3) 0.80124(15)
C34_3 C 0.1843(3) 0.0922(2) 0.80124(15)
C35_3 C 0.8689(2) 0.7379(3) 0.78173(14)
C36_3 C 0.2621(3) 0.1311(2) 0.78173(14)
C37_3 C 0.8725(2) 0.7451(3) 0.75146(15)
C38_3 C 0.2549(3) 0.1275(2) 0.75146(15)
H17_3 H 0.8988 0.7977 0.7427
H18_3 H 0.2023 0.1012 0.7427
C39_3 C 0.8367(2) 0.6735(3) 0.73347(14)
C40_3 C 0.3265(3) 0.1633(2) 0.73347(14)
H19_3 H 0.8395 0.6791 0.7129
H20_3 H 0.3209 0.1605 0.7129
C41_3 C 0.8300(3) 0.6601(4) 0.79421(17)
C42_3 C 0.3399(4) 0.1700(3) 0.79421(17)
H21_3 H 0.8272 0.6545 0.8148
H22_3 H 0.3455 0.1728 0.8148
C43_3 C 0.7946(2) 0.5893(3) 0.77634(18)
C44_3 C 0.4107(3) 0.2054(2) 0.77634(18)
H23_3 H 0.7684 0.5369 0.7853
H24_3 H 0.4631 0.2316 0.7853
C45_3 C 0.7974(2) 0.5949(3) 0.74604(15)
C46_3 C 0.4051(3) 0.2026(2) 0.74604(15)
C47_3 C 0.7589(2) 0.5179(3) 0.72668(15)
C48_3 C 0.4821(3) 0.2411(2) 0.72668(15)
Zn16_2 Zn 0.058040(19) 0.941960(19) 0.138103(12)
Zn9_3 Zn 0.217254(27) 0.608627(19) 0.804770(12)
Zn17_7 Zn 0.3333 0.6667 0.86328(2)
O20_7 O 0.3333 0.6667 0.81941(13)
O22_4 O 0.21884(20) 0.60942(14) 0.87869(11)
O26_4 O 0.13850(21) 0.56925(15) 0.83785(10)
O34_3 O 0.1956(2) 0.6835(3) 0.78052(9)
O35_3 O 0.1956(2) 0.5122(2) 0.78052(9)
C33_4 C 0.1490(3) 0.5745(2) 0.86543(15)
C35_4 C 0.0712(3) 0.5356(2) 0.88494(14)
C37_4 C 0.0784(3) 0.5392(2) 0.91521(15)
H17_4 H 0.1310 0.5655 0.9240
C39_4 C 0.0068(3) 0.5034(2) 0.93320(14)
H19_4 H 0.0124 0.5062 0.9538
Zn8_5 Zn 0.942015(19) 0.057985(19) 0.667318(12)
Zn1_2 Zn 0.608682(19) 0.391318(19) 0.000651(12)
O4_2 O 0.5120(2) 0.3169(2) 0.02477(9)
C1_2 C 0.1842(4) 0.0921(2) 0.10670(16)
C2_2 C 0.2614(5) 0.1307(2) 0.08696(18)
C3_2 C 0.2966(4) 0.2123(4) 0.07787(18)
H1_2 H 0.2730 0.2444 0.0837
C4_2 C 0.3679(4) 0.2475(4) 0.05985(17)
H2_2 H 0.3911 0.3028 0.0537
C5_2 C 0.4038(5) 0.2018(2) 0.05115(18)
C6_2 C 0.4824(4) 0.2412(2) 0.03219(15)
O8_2 O 0.1545(2) 0.1377(2) 0.11385(9)
Zn5_2 Zn 0.608682(19) 0.217364(27) 0.000651(12)
Zn6_2 Zn 0.782636(27) 0.391318(19) 0.000651(12)
O13_2 O 0.5120(2) 0.1951(3) 0.02477(9)
O14_2 O 0.6831(2) 0.4880(2) 0.02477(9)
O15_2 O 0.8049(3) 0.4880(2) 0.02477(9)
O18_2 O 0.6831(2) 0.1951(3) 0.02477(9)
O19_2 O 0.8049(3) 0.3169(2) 0.02477(9)
C15_3 C 0.9079(4) 0.8158(4) 0.10670(16)
C17_3 C 0.8693(5) 0.7386(5) 0.08696(18)
C19_2 C 0.2966(4) 0.0843(6) 0.07787(18)
C20_3 C 0.7877(4) 0.7034(4) 0.07787(18)
C21_3 C 0.9157(6) 0.7034(4) 0.07787(18)
H7_2 H 0.2730 0.0286 0.0837
H8_3 H 0.7556 0.7270 0.0837
H9_3 H 0.9714 0.7270 0.0837
C24_2 C 0.3679(4) 0.1204(6) 0.05985(17)
C25_3 C 0.7525(4) 0.6321(4) 0.05985(17)
C26_3 C 0.8796(6) 0.6321(4) 0.05985(17)
H12_2 H 0.3911 0.0883 0.0537
H13_3 H 0.6972 0.6089 0.0537
H14_3 H 0.9117 0.6089 0.0537
C29_3 C 0.7982(2) 0.5962(5) 0.05115(18)
C31_3 C 0.7588(4) 0.5176(4) 0.03219(15)
Zn13_2 Zn 0.058040(19) 0.116079(27) 0.138103(12)
Zn15_2 Zn 0.883921(27) 0.941960(19) 0.138103(12)
O28_2 O 0.1545(2) 0.0168(3) 0.11385(9)
O29_3 O 0.8623(2) 0.8455(2) 0.11385(9)
O30_3 O 0.9832(3) 0.8455(2) 0.11385(9)
Zn2_7 Zn 0.6667 0.3333 0.94212(2)
O1_7 O 0.6667 0.3333 0.98586(13)
O2_4 O 0.56915(15) 0.43085(15) 0.96781(10)
O3_4 O 0.60940(15) 0.39060(15) 0.92685(11)
Zn3_3 Zn 0.391373(19) 0.608627(19) 0.804770(12)
O6_4 O 0.39058(14) 0.60942(14) 0.87869(11)
O7_4 O 0.43075(15) 0.56925(15) 0.83785(10)
C7_4 C 0.4255(2) 0.5745(2) 0.86543(15)
C8_4 C 0.4644(2) 0.5356(2) 0.88494(14)
C9_4 C 0.4608(2) 0.5392(2) 0.91521(15)
H3_4 H 0.4345 0.5655 0.9240
C10_4 C 0.4966(2) 0.5034(2) 0.93320(14)
H4_4 H 0.4938 0.5062 0.9538
C11_4 C 0.5033(3) 0.4967(3) 0.87246(17)
H5_4 H 0.5061 0.4939 0.8519
C12_4 C 0.5387(2) 0.4613(2) 0.89033(18)
H6_4 H 0.5649 0.4351 0.8814
C13_4 C 0.5359(2) 0.4641(2) 0.92063(15)
C14_4 C 0.5744(2) 0.4256(2) 0.93999(15)
Zn7_3 Zn 0.942015(19) 0.884031(27) 0.667318(12)
O9_4 O 0.86170(21) 0.43085(15) 0.96781(10)
O10_4 O 0.56915(15) 0.13830(21) 0.96781(10)
O11_4 O 0.78120(21) 0.39060(15) 0.92685(11)
O12_4 O 0.60940(15) 0.21880(21) 0.92685(11)
O16_7 O 0.8453(2) 0.8618(3) 0.69144(9)
O17_7 O 0.8453(2) 0.9836(2) 0.69144(9)
C16_7 C 0.5175(4) 0.7588(2) 0.77337(16)
C18_7 C 0.5947(5) 0.7974(2) 0.75363(18)
C22_7 C 0.6299(4) 0.7510(6) 0.74454(18)
C23_7 C 0.6299(4) 0.8790(4) 0.74454(18)
H10_7 H 0.6063 0.6953 0.7504
H11_7 H 0.6063 0.9111 0.7504
C27_7 C 0.7012(4) 0.7871(6) 0.72652(17)
C28_7 C 0.7012(4) 0.9142(4) 0.72652(17)
H15_7 H 0.7244 0.7550 0.7204
H16_7 H 0.7244 0.9695 0.7204
C30_7 C 0.7371(5) 0.8687(5) 0.71782(18)
C32_7 C 0.8157(4) 0.9079(2) 0.69886(15)
Zn12_3 Zn 0.391373(19) 0.782746(27) 0.804770(12)
O25_4 O 0.39058(14) 0.78116(20) 0.87869(11)
O31_3 O 0.4878(2) 0.6835(3) 0.78052(9)
O32_3 O 0.4878(2) 0.8044(2) 0.78052(9)
O33_3 O 0.3165(3) 0.5122(2) 0.78052(9)
C41_4 C 0.9934(4) 0.4967(3) 0.87246(17)
C42_4 C 0.5033(3) 0.0066(4) 0.87246(17)
H21_4 H 0.9878 0.4939 0.8519
H22_4 H 0.5061 0.0122 0.8519
C43_4 C 0.9226(3) 0.4613(2) 0.89033(18)
C44_4 C 0.5387(2) 0.0774(3) 0.89033(18)
H23_4 H 0.8702 0.4351 0.8814
H24_4 H 0.5649 0.1298 0.8814
C45_4 C 0.9282(3) 0.4641(2) 0.92063(15)
C46_4 C 0.5359(2) 0.0718(3) 0.92063(15)
C47_4 C 0.8512(3) 0.4256(2) 0.93999(15)
C48_4 C 0.5744(2) 0.1488(3) 0.93999(15)
O27_4 O 0.43075(15) 0.86150(21) 0.83785(10)
O37_3 O 0.3165(3) 0.8044(2) 0.78052(9)
C34_4 C 0.4255(2) 0.8510(3) 0.86543(15)
C36_4 C 0.4644(2) 0.9288(3) 0.88494(14)
C38_4 C 0.4608(2) 0.9216(3) 0.91521(15)
H18_4 H 0.4345 0.8690 0.9240
C40_4 C 0.4966(2) 0.9932(3) 0.93320(14)
H20_4 H 0.4938 0.9876 0.9538
Zn17_8 Zn -0.0000 0.0000 0.19661(2)
O20_8 O -0.0000 0.0000 0.15274(13)
Zn17_9 Zn -0.0000 1.0000 0.19661(2)
O20_9 O -0.0000 1.0000 0.15274(13)
C15_4 C 0.5746(4) 0.1491(4) 0.44003(16)
C17_4 C 0.5360(5) 0.0719(5) 0.42029(18)
C20_4 C 0.4544(4) 0.0367(4) 0.41120(18)
C21_4 C 0.5824(6) 0.0367(4) 0.41120(18)
H8_4 H 0.4223 0.0603 0.4170
H9_4 H 0.6381 0.0603 0.4170
Zn15_3 Zn 0.550587(27) 0.275294(19) 0.471437(12)
Zn16_3 Zn 0.724706(19) 0.275294(19) 0.471437(12)
Zn17_10 Zn 1.0000 0.0000 0.19661(2)
O20_10 O 1.0000 0.0000 0.15274(13)
O25_5 O 0.05725(14) 0.11449(20) 0.21202(11)
O29_4 O 0.5290(2) 0.1788(2) 0.44718(9)
O30_4 O 0.6499(3) 0.1788(2) 0.44718(9)
O34_4 O 0.8623(2) 0.0168(3) 0.11385(9)
Zn1_3 Zn 0.275349(19) 0.724651(19) 0.333984(12)
Zn2_8 Zn 0.3334 0.6666 0.27545(2)
O1_8 O 0.3334 0.6666 0.31919(13)
O2_5 O 0.23582(15) 0.76418(15) 0.30114(10)
O3_5 O 0.27607(15) 0.72393(15) 0.26018(11)
O4_3 O 0.1787(2) 0.6502(2) 0.35810(9)
C4_3 C 0.0346(4) 0.5808(4) 0.39318(17)
H2_3 H 0.0578 0.6361 0.3870
C5_3 C 0.0705(5) 0.5351(2) 0.38448(18)
C6_3 C 0.1491(4) 0.5745(2) 0.36552(15)
O6_5 O 0.05725(14) 0.94275(14) 0.21202(11)
O7_5 O 0.09742(15) 0.90258(15) 0.17118(10)
C7_5 C 0.0922(2) 0.9078(2) 0.19876(15)
C8_5 C 0.1311(2) 0.8689(2) 0.21827(14)
C9_5 C 0.1275(2) 0.8725(2) 0.24854(15)
H3_5 H 0.1012 0.8988 0.2573
C10_5 C 0.1633(2) 0.8367(2) 0.26653(14)
H4_5 H 0.1605 0.8395 0.2871
C11_5 C 0.1700(3) 0.8300(3) 0.20579(17)
H5_5 H 0.1728 0.8272 0.1852
C12_5 C 0.2054(2) 0.7946(2) 0.22366(18)
H6_5 H 0.2316 0.7684 0.2147
C13_5 C 0.2026(2) 0.7974(2) 0.25396(15)
C14_5 C 0.2411(2) 0.7589(2) 0.27332(15)
Zn5_3 Zn 0.275349(19) 0.550697(27) 0.333984(12)
Zn6_3 Zn 0.449303(27) 0.724651(19) 0.333984(12)
O9_5 O 0.52837(21) 0.76418(15) 0.30114(10)
O10_5 O 0.23582(15) 0.47163(21) 0.30114(10)
O11_5 O 0.44787(21) 0.72393(15) 0.26018(11)
O12_5 O 0.27607(15) 0.55213(21) 0.26018(11)
O13_3 O 0.1787(2) 0.5284(3) 0.35810(9)
O14_3 O 0.3498(2) 0.8213(2) 0.35810(9)
O15_3 O 0.4716(3) 0.8213(2) 0.35810(9)
O18_3 O 0.3498(2) 0.5284(3) 0.35810(9)
O19_3 O 0.4716(3) 0.6502(2) 0.35810(9)
C24_3 C 0.0346(4) 0.4537(6) 0.39318(17)
C25_4 C 0.4192(4) 0.9654(4) 0.39318(17)
C26_4 C 0.5463(6) 0.9654(4) 0.39318(17)
H12_3 H 0.0578 0.4216 0.3870
H13_4 H 0.3639 0.9422 0.3870
H14_4 H 0.5784 0.9422 0.3870
C29_4 C 0.4649(2) 0.9295(5) 0.38448(18)
C31_4 C 0.4255(4) 0.8509(4) 0.36552(15)
Zn17_11 Zn 1.0000 1.0000 0.19661(2)
O20_11 O 1.0000 1.0000 0.15274(13)
O22_5 O 0.88551(20) 0.94275(14) 0.21202(11)
O26_5 O 0.80517(21) 0.90258(15) 0.17118(10)
O27_5 O 0.09742(15) 0.19483(21) 0.17118(10)
C33_5 C 0.8157(3) 0.9078(2) 0.19876(15)
C34_5 C 0.0922(2) 0.1843(3) 0.19876(15)
C35_5 C 0.7379(3) 0.8689(2) 0.21827(14)
C36_5 C 0.1311(2) 0.2621(3) 0.21827(14)
C37_5 C 0.7451(3) 0.8725(2) 0.24854(15)
C38_5 C 0.1275(2) 0.2549(3) 0.24854(15)
H17_5 H 0.7977 0.8988 0.2573
H18_5 H 0.1012 0.2023 0.2573
C39_5 C 0.6735(3) 0.8367(2) 0.26653(14)
C40_5 C 0.1633(2) 0.3265(3) 0.26653(14)
H19_5 H 0.6791 0.8395 0.2871
H20_5 H 0.1605 0.3209 0.2871
C41_5 C 0.6601(4) 0.8300(3) 0.20579(17)
C42_5 C 0.1700(3) 0.3399(4) 0.20579(17)
H21_5 H 0.6545 0.8272 0.1852
H22_5 H 0.1728 0.3455 0.1852
C43_5 C 0.5893(3) 0.7946(2) 0.22366(18)
C44_5 C 0.2054(2) 0.4107(3) 0.22366(18)
H23_5 H 0.5369 0.7684 0.2147
H24_5 H 0.2316 0.4631 0.2147
C45_5 C 0.5949(3) 0.7974(2) 0.25396(15)
C46_5 C 0.2026(2) 0.4051(3) 0.25396(15)
C47_5 C 0.5179(3) 0.7589(2) 0.27332(15)
C48_5 C 0.2411(2) 0.4821(3) 0.27332(15)
C1_3 C 0.8509(4) 0.4254(2) 0.44003(16)
C2_3 C 0.9281(5) 0.4640(2) 0.42029(18)
C3_3 C 0.9633(4) 0.5456(4) 0.41120(18)
H1_3 H 0.9397 0.5777 0.4170
O8_3 O 0.8212(2) 0.4710(2) 0.44718(9)
C19_3 C 0.9633(4) 0.4176(6) 0.41120(18)
H7_3 H 0.9397 0.3619 0.4170
Zn13_3 Zn 0.724706(19) 0.449413(27) 0.471437(12)
O28_3 O 0.8212(2) 0.3501(3) 0.44718(9)
O37_4 O 0.9832(3) 0.1377(2) 0.11385(9)
Zn2_9 Zn 0.0000 -0.0000 0.60879(2)
O1_9 O 0.0000 -0.0000 0.65253(13)
Zn6_4 Zn 0.115969(27) 0.057985(19) 0.667318(12)
O9_6 O 0.19503(21) 0.09752(15) 0.63448(10)
O11_6 O 0.11453(21) 0.05727(15) 0.59352(11)
O14_4 O 0.0164(2) 0.1547(2) 0.69144(9)
O15_4 O 0.1382(3) 0.1547(2) 0.69144(9)
C15_5 C 0.2412(4) 0.4825(4) 0.77337(16)
C17_5 C 0.2026(5) 0.4053(5) 0.75363(18)
C20_5 C 0.1210(4) 0.3701(4) 0.74454(18)
C21_5 C 0.2490(6) 0.3701(4) 0.74454(18)
H8_5 H 0.0889 0.3937 0.7504
H9_5 H 0.3047 0.3937 0.7504
C25_5 C 0.0858(4) 0.2988(4) 0.72652(17)
C26_5 C 0.2129(6) 0.2988(4) 0.72652(17)
H13_5 H 0.0305 0.2756 0.7204
H14_5 H 0.2450 0.2756 0.7204
C29_5 C 0.1315(2) 0.2629(5) 0.71782(18)
C31_5 C 0.0921(4) 0.1843(4) 0.69886(15)
Zn17_12 Zn 0.6666 0.3334 0.52995(2)
O20_12 O 0.6666 0.3334 0.48608(13)
O22_6 O 0.55217(20) 0.27609(14) 0.54536(11)
O26_6 O 0.47183(21) 0.23592(15) 0.50452(10)
O34_5 O 0.5290(2) 0.3501(3) 0.44718(9)
C33_6 C 0.4823(3) 0.2412(2) 0.53210(15)
C35_6 C 0.4045(3) 0.2023(2) 0.55161(14)
C37_6 C 0.4117(3) 0.2059(2) 0.58188(15)
H17_6 H 0.4643 0.2322 0.5907
C39_6 C 0.3401(3) 0.1701(2) 0.59987(14)
H19_6 H 0.3457 0.1729 0.6205
C41_6 C 0.3267(4) 0.1634(3) 0.53913(17)
H21_6 H 0.3211 0.1606 0.5186
C43_6 C 0.2559(3) 0.1280(2) 0.55700(18)
H23_6 H 0.2035 0.1018 0.5481
C45_6 C 0.2615(3) 0.1308(2) 0.58730(15)
C47_6 C 0.1845(3) 0.0923(2) 0.60666(15)
Zn2_10 Zn 0.0000 1.0000 0.60879(2)
O1_10 O 0.0000 1.0000 0.65253(13)
O18_4 O 0.0164(2) 0.8618(3) 0.69144(9)
O19_4 O 0.1382(3) 0.9836(2) 0.69144(9)
Zn2_11 Zn 1.0000 -0.0000 0.60879(2)
O1_11 O 1.0000 -0.0000 0.65253(13)
O2_6 O 0.90248(15) 0.09752(15) 0.63448(10)
O3_6 O 0.94273(15) 0.05727(15) 0.59352(11)
O6_6 O 0.72391(14) 0.27609(14) 0.54536(11)
O7_6 O 0.76408(15) 0.23592(15) 0.50452(10)
C7_6 C 0.7588(2) 0.2412(2) 0.53210(15)
C8_6 C 0.7977(2) 0.2023(2) 0.55161(14)
C9_6 C 0.7941(2) 0.2059(2) 0.58188(15)
H3_6 H 0.7678 0.2322 0.5907
C10_6 C 0.8299(2) 0.1701(2) 0.59987(14)
H4_6 H 0.8271 0.1729 0.6205
C11_6 C 0.8366(3) 0.1634(3) 0.53913(17)
H5_6 H 0.8394 0.1606 0.5186
C12_6 C 0.8720(2) 0.1280(2) 0.55700(18)
H6_6 H 0.8982 0.1018 0.5481
C13_6 C 0.8692(2) 0.1308(2) 0.58730(15)
C14_6 C 0.9077(2) 0.0923(2) 0.60666(15)
O25_6 O 0.72391(14) 0.44783(20) 0.54536(11)
Zn2_12 Zn 1.0000 1.0000 0.60879(2)
O1_12 O 1.0000 1.0000 0.65253(13)
O10_6 O 0.90248(15) 0.80497(21) 0.63448(10)
O12_6 O 0.94273(15) 0.88547(21) 0.59352(11)
O27_6 O 0.76408(15) 0.52817(21) 0.50452(10)
O37_5 O 0.6499(3) 0.4710(2) 0.44718(9)
C34_6 C 0.7588(2) 0.5177(3) 0.53210(15)
C36_6 C 0.7977(2) 0.5955(3) 0.55161(14)
C38_6 C 0.7941(2) 0.5883(3) 0.58188(15)
H18_6 H 0.7678 0.5357 0.5907
C40_6 C 0.8299(2) 0.6599(3) 0.59987(14)
H20_6 H 0.8271 0.6543 0.6205
C42_6 C 0.8366(3) 0.6733(4) 0.53913(17)
H22_6 H 0.8394 0.6789 0.5186
C44_6 C 0.8720(2) 0.7441(3) 0.55700(18)
H24_6 H 0.8982 0.7965 0.5481
C46_6 C 0.8692(2) 0.7385(3) 0.58730(15)
C48_6 C 0.9077(2) 0.8155(3) 0.60666(15)
C15_6 C 0.9079(6) 0.0921(4) 0.10670(16)
C17_6 C 0.8693(7) 0.1307(5) 0.08696(18)
C20_6 C 0.9157(6) 0.2123(4) 0.07787(18)
C21_6 C 0.7877(7) 0.0843(6) 0.07787(18)
H8_6 H 0.9714 0.2444 0.0837
H9_6 H 0.7556 0.0286 0.0837
C25_6 C 0.8796(6) 0.2475(4) 0.05985(17)
C26_6 C 0.7525(7) 0.1204(6) 0.05985(17)
H13_6 H 0.9117 0.3028 0.0537
H14_6 H 0.6972 0.0883 0.0537
C29_6 C 0.7980(5) 0.2018(2) 0.05115(18)
C31_6 C 0.7588(6) 0.2412(4) 0.03219(15)
C16_8 C 0.2412(2) 0.7588(4) 0.77337(16)
C18_8 C 0.2026(2) 0.7974(5) 0.75363(18)
C22_8 C 0.2490(6) 0.8790(7) 0.74454(18)
C23_8 C 0.1210(4) 0.7510(6) 0.74454(18)
H10_8 H 0.3047 0.9111 0.7504
H11_8 H 0.0889 0.6953 0.7504
C27_8 C 0.2129(6) 0.9142(7) 0.72652(17)
C28_8 C 0.0858(4) 0.7871(6) 0.72652(17)
H15_8 H 0.2450 0.9695 0.7204
H16_8 H 0.0305 0.7550 0.7204
C30_8 C 0.1313(5) 0.8685(7) 0.71782(18)
C32_8 C 0.0921(2) 0.9079(4) 0.69886(15)
C16_9 C 0.5746(2) 0.4254(4) 0.44003(16)
C18_9 C 0.5360(2) 0.4640(5) 0.42029(18)
C22_9 C 0.5824(6) 0.5456(7) 0.41120(18)
C23_9 C 0.4544(4) 0.4176(6) 0.41120(18)
H10_9 H 0.6381 0.5777 0.4170
H11_9 H 0.4223 0.3619 0.4170
C27_9 C 0.5463(6) 0.5808(7) 0.39318(17)
C28_9 C 0.4192(4) 0.4537(6) 0.39318(17)
H15_9 H 0.5784 0.6361 0.3870
H16_9 H 0.3639 0.4216 0.3870
C30_9 C 0.4647(5) 0.5351(7) 0.38448(18)
C32_9 C 0.4255(2) 0.5745(4) 0.36552(15)
loop_
_geom_bond_atom_site_label_1
_geom_bond_atom_site_label_2
_geom_bond_site_symmetry_1
_geom_bond_site_symmetry_2
Zn9 O20 1_555 1_555
Zn17 O20 1_555 1_555
O22 Zn17 1_555 1_555
O26 Zn9 1_555 1_555
O34 Zn9 1_555 1_555
O35 Zn9 1_555 1_555
C33 O22 1_555 1_555
C35 C33 1_555 1_555
C37 C35 1_555 1_555
H17 C37 1_555 1_555
C39 C37 1_555 1_555
H19 C39 1_555 1_555
O26 C33 1_555 1_555
Zn2 O1 1_555 1_555
O3 Zn2 1_555 1_555
Zn3 O20 1_555 1_555
O6 Zn17 1_555 1_555
O7 Zn3 1_555 1_555
C7 O6 1_555 1_555
C8 C7 1_555 1_555
C9 C8 1_555 1_555
H3 C9 1_555 1_555
C10 C9 1_555 1_555
H4 C10 1_555 1_555
C11 C8 1_555 1_555
H5 C11 1_555 1_555
C12 C11 1_555 1_555
H6 C12 1_555 1_555
C13 C10 1_555 1_555
C14 O2 1_555 1_555
Zn7 O16 1_555 1_555
O10 C48 1_555 1_555
O11 Zn2 1_555 1_555
O12 Zn2 1_555 1_555
O16 C32 1_555 1_555
O17 C32 1_555 1_555
C16 C18 1_555 1_555
C18 C22 1_555 1_555
C22 H10 1_555 1_555
C23 C18 1_555 1_555
H11 C23 1_555 1_555
C27 C22 1_555 1_555
C28 C23 1_555 1_555
H15 C27 1_555 1_555
H16 C28 1_555 1_555
C30 C27 1_555 1_555
C32 C30 1_555 1_555
Zn12 O20 1_555 1_555
O25 Zn17 1_555 1_555
O31 Zn3 1_555 1_555
O32 C16 1_555 1_555
O33 Zn3 1_555 1_555
H21 C41 1_555 1_555
H22 C42 1_555 1_555
C43 C41 1_555 1_555
C44 C42 1_555 1_555
H23 C43 1_555 1_555
H24 C44 1_555 1_555
C47 O9 1_555 1_555
C48 O12 1_555 1_555
O3 C14 1_555 1_555
O7 C7 1_555 1_555
C12 C13 1_555 1_555
C13 C14 1_555 1_555
O11 C47 1_555 1_555
C16 O31 1_555 1_555
C28 C30 1_555 1_555
Zn12 O32 1_555 1_555
C43 C45 1_555 1_555
C44 C46 1_555 1_555
C45 C47 1_555 1_555
C46 C48 1_555 1_555
O4 Zn1 1_555 1_555
C1 C2 1_555 1_555
C2 C3 1_555 1_555
C3 H1 1_555 1_555
C4 C3 1_555 1_555
H2 C4 1_555 1_555
C5 C4 1_555 1_555
C6 O4 1_555 1_555
O8 C1 1_555 1_555
O13 C6 1_555 1_555
O14 Zn1 1_555 1_555
O15 Zn6 1_555 1_555
O18 Zn5 1_555 1_555
O19 Zn6 1_555 1_555
C15 C17 1_555 1_555
C17 C20 1_555 1_555
C19 C2 1_555 1_555
C20 H8 1_555 1_555
C21 C17 1_555 1_555
H7 C19 1_555 1_555
H9 C21 1_555 1_555
C24 C5 1_555 1_555
C25 C20 1_555 1_555
C26 C21 1_555 1_555
H12 C24 1_555 1_555
H13 C25 1_555 1_555
H14 C26 1_555 1_555
C29 C25 1_555 1_555
C31 O14 1_555 1_555
Zn13 O8 1_555 1_555
Zn15 O29 1_555 1_555
O28 C1 1_555 1_555
O29 C15 1_555 1_555
O30 C15 1_555 1_555
C5 C6 1_555 1_555
Zn5 O13 1_555 1_555
O15 C31 1_555 1_555
C19 C24 1_555 1_555
C26 C29 1_555 1_555
C29 C31 1_555 1_555
O27 Zn12 1_555 1_555
O37 Zn12 1_555 1_555
C34 O25 1_555 1_555
C36 C34 1_555 1_555
C38 C36 1_555 1_555
H18 C38 1_555 1_555
C40 C38 1_555 1_555
H20 C40 1_555 1_555
O27 C34 1_555 1_555
Zn8_2 O17_2 1_555 1_555
O16_2 C32_2 1_555 1_555
O17_2 C32_2 1_555 1_555
C16_2 C18_2 1_555 1_555
C18_2 C22_2 1_555 1_555
C22_2 H10_2 1_555 1_555
C23_2 C18_2 1_555 1_555
H11_2 C23_2 1_555 1_555
C27_2 C22_2 1_555 1_555
C28_2 C23_2 1_555 1_555
H15_2 C27_2 1_555 1_555
H16_2 C28_2 1_555 1_555
C30_2 C27_2 1_555 1_555
C32_2 C30_2 1_555 1_555
O33 C16_2 1_555 1_555
C16_2 O35 1_555 1_555
C28_2 C30_2 1_555 1_555
C15_2 C17_2 1_555 1_555
C17_2 C20_2 1_555 1_555
C20_2 H8_2 1_555 1_555
C21_2 C17_2 1_555 1_555
H9_2 C21_2 1_555 1_555
C25_2 C20_2 1_555 1_555
C26_2 C21_2 1_555 1_555
H13_2 C25_2 1_555 1_555
H14_2 C26_2 1_555 1_555
C29_2 C25_2 1_555 1_555
C31_2 O19 1_555 1_555
O29_2 C15_2 1_555 1_555
O30_2 C15_2 1_555 1_555
O18 C31_2 1_555 1_555
C26_2 C29_2 1_555 1_555
C29_2 C31_2 1_555 1_555
O16_3 C32_3 1_555 1_555
O17_3 C32_3 1_555 1_555
C16_3 C18_3 1_555 1_555
C18_3 C22_3 1_555 1_555
C22_3 H10_3 1_555 1_555
C23_3 C18_3 1_555 1_555
H11_3 C23_3 1_555 1_555
C27_3 C22_3 1_555 1_555
C28_3 C23_3 1_555 1_555
H15_3 C27_3 1_555 1_555
H16_3 C28_3 1_555 1_555
C30_3 C27_3 1_555 1_555
C32_3 C30_3 1_555 1_555
O34 C16_3 1_555 1_555
C16_3 O37 1_555 1_555
C28_3 C30_3 1_555 1_555
Zn2_2 O1_2 1_555 1_555
Zn8_2 O1_2 1_555 1_555
Zn7_2 O16_4 1_555 1_555
Zn8_3 O17_4 1_555 1_555
O9_2 Zn8_2 1_555 1_555
O11_2 Zn2_2 1_555 1_555
O16_4 C32_4 1_555 1_555
O17_4 C32_4 1_555 1_555
H15_4 C27_4 1_555 1_555
H16_4 C28_4 1_555 1_555
C30_4 C27_4 1_555 1_555
C32_4 C30_4 1_555 1_555
Zn9_2 O20_2 1_555 1_555
Zn17_2 O20_2 1_555 1_555
O22_2 Zn17_2 1_555 1_555
O26_2 Zn9_2 1_555 1_555
O34_2 Zn9_2 1_555 1_555
O35_2 Zn9_2 1_555 1_555
C33_2 O22_2 1_555 1_555
C35_2 C33_2 1_555 1_555
C37_2 C35_2 1_555 1_555
H17_2 C37_2 1_555 1_555
C39_2 C37_2 1_555 1_555
H19_2 C39_2 1_555 1_555
C41_2 C35_2 1_555 1_555
H21_2 C41_2 1_555 1_555
C43_2 C41_2 1_555 1_555
H23_2 C43_2 1_555 1_555
C45_2 C39_2 1_555 1_555
C47_2 O9_2 1_555 1_555
O11_2 C47_2 1_555 1_555
C28_4 C30_4 1_555 1_555
O26_2 C33_2 1_555 1_555
C43_2 C45_2 1_555 1_555
C45_2 C47_2 1_555 1_555
Zn8 O1_3 1_555 1_555
Zn2_3 O1_3 1_555 1_555
O2_2 Zn8 1_555 1_555
O3_2 Zn2_3 1_555 1_555
Zn3_2 O20_2 1_555 1_555
O6_2 Zn17_2 1_555 1_555
O7_2 Zn3_2 1_555 1_555
C7_2 O6_2 1_555 1_555
C8_2 C7_2 1_555 1_555
C9_2 C8_2 1_555 1_555
H3_2 C9_2 1_555 1_555
C10_2 C9_2 1_555 1_555
H4_2 C10_2 1_555 1_555
C11_2 C8_2 1_555 1_555
H5_2 C11_2 1_555 1_555
C12_2 C11_2 1_555 1_555
H6_2 C12_2 1_555 1_555
C13_2 C10_2 1_555 1_555
C14_2 O2_2 1_555 1_555
C16_4 C18_4 1_555 1_555
C18_4 C22_4 1_555 1_555
C22_4 H10_4 1_555 1_555
C23_4 C18_4 1_555 1_555
H11_4 C23_4 1_555 1_555
Zn12_2 O20_2 1_555 1_555
O25_2 Zn17_2 1_555 1_555
O31_2 Zn3_2 1_555 1_555
O32_2 C16_4 1_555 1_555
O33_2 Zn3_2 1_555 1_555
O3_2 C14_2 1_555 1_555
O7_2 C7_2 1_555 1_555
C12_2 C13_2 1_555 1_555
C13_2 C14_2 1_555 1_555
C16_4 O31_2 1_555 1_555
Zn12_2 O32_2 1_555 1_555
Zn2_4 O1_4 1_555 1_555
Zn2_5 O1_5 1_555 1_555
O1_5 Zn7 1_555 1_555
Zn7 O10_2 1_555 1_555
O10_2 C48_2 1_555 1_555
O12_2 Zn2_5 1_555 1_555
O27_2 Zn12_2 1_555 1_555
O37_2 Zn12_2 1_555 1_555
C34_2 O25_2 1_555 1_555
C36_2 C34_2 1_555 1_555
C38_2 C36_2 1_555 1_555
H18_2 C38_2 1_555 1_555
C40_2 C38_2 1_555 1_555
H20_2 C40_2 1_555 1_555
C42_2 C36_2 1_555 1_555
H22_2 C42_2 1_555 1_555
C44_2 C42_2 1_555 1_555
H24_2 C44_2 1_555 1_555
C46_2 C40_2 1_555 1_555
C48_2 O12_2 1_555 1_555
O27_2 C34_2 1_555 1_555
C44_2 C46_2 1_555 1_555
C46_2 C48_2 1_555 1_555
C16_5 C18_5 1_555 1_555
C18_5 C22_5 1_555 1_555
C22_5 H10_5 1_555 1_555
C23_5 C18_5 1_555 1_555
H11_5 C23_5 1_555 1_555
O33_2 C16_5 1_555 1_555
C16_5 O35_2 1_555 1_555
Zn8_3 O16_5 1_555 1_555
Zn8_4 O17_5 1_555 1_555
O16_5 C32_5 1_555 1_555
O17_5 C32_5 1_555 1_555
H15_5 C27_5 1_555 1_555
H16_5 C28_5 1_555 1_555
C30_5 C27_5 1_555 1_555
C32_5 C30_5 1_555 1_555
C28_5 C30_5 1_555 1_555
Zn8_4 O16_6 1_555 1_555
Zn7_2 O17_6 1_555 1_555
O16_6 C32_6 1_555 1_555
O17_6 C32_6 1_555 1_555
C16_6 C18_6 1_555 1_555
C18_6 C22_6 1_555 1_555
C22_6 H10_6 1_555 1_555
C23_6 C18_6 1_555 1_555
H11_6 C23_6 1_555 1_555
C27_6 C22_6 1_555 1_555
C28_6 C23_6 1_555 1_555
H15_6 C27_6 1_555 1_555
H16_6 C28_6 1_555 1_555
C30_6 C27_6 1_555 1_555
C32_6 C30_6 1_555 1_555
O34_2 C16_6 1_555 1_555
C16_6 O37_2 1_555 1_555
C28_6 C30_6 1_555 1_555
Zn17_3 O20_3 1_555 1_555
Zn13 O20_3 1_555 1_555
Zn17_4 O20_4 1_555 1_555
O25_3 Zn17_3 1_555 1_555
Zn17_5 O20_5 1_555 1_555
Zn8_3 O1_6 1_555 1_555
Zn2_6 O1_6 1_555 1_555
O1_6 Zn7_2 1_555 1_555
O2_3 Zn8_3 1_555 1_555
O3_3 Zn2_6 1_555 1_555
Zn16 O20_5 1_555 1_555
O6_3 Zn17_5 1_555 1_555
O7_3 Zn16 1_555 1_555
C7_3 O6_3 1_555 1_555
C8_3 C7_3 1_555 1_555
C9_3 C8_3 1_555 1_555
H3_3 C9_3 1_555 1_555
C10_3 C9_3 1_555 1_555
H4_3 C10_3 1_555 1_555
C11_3 C8_3 1_555 1_555
H5_3 C11_3 1_555 1_555
C12_3 C11_3 1_555 1_555
H6_3 C12_3 1_555 1_555
C13_3 C10_3 1_555 1_555
C14_3 O2_3 1_555 1_555
Zn7_2 O10_3 1_555 1_555
Zn8_4 O1_6 1_555 1_555
O9_3 Zn8_4 1_555 1_555
O10_3 C48_3 1_555 1_555
O11_3 Zn2_6 1_555 1_555
O12_3 Zn2_6 1_555 1_555
Zn15 O20_6 1_555 1_555
Zn17_6 O20_6 1_555 1_555
O22_3 Zn17_6 1_555 1_555
O26_3 Zn15 1_555 1_555
O27_3 Zn13 1_555 1_555
C33_3 O22_3 1_555 1_555
C34_3 O25_3 1_555 1_555
C35_3 C33_3 1_555 1_555
C36_3 C34_3 1_555 1_555
C37_3 C35_3 1_555 1_555
C38_3 C36_3 1_555 1_555
H17_3 C37_3 1_555 1_555
H18_3 C38_3 1_555 1_555
C39_3 C37_3 1_555 1_555
C40_3 C38_3 1_555 1_555
H19_3 C39_3 1_555 1_555
H20_3 C40_3 1_555 1_555
C41_3 C35_3 1_555 1_555
C42_3 C36_3 1_555 1_555
H21_3 C41_3 1_555 1_555
H22_3 C42_3 1_555 1_555
C43_3 C41_3 1_555 1_555
C44_3 C42_3 1_555 1_555
H23_3 C43_3 1_555 1_555
H24_3 C44_3 1_555 1_555
C45_3 C39_3 1_555 1_555
C46_3 C40_3 1_555 1_555
C47_3 O9_3 1_555 1_555
C48_3 O12_3 1_555 1_555
O3_3 C14_3 1_555 1_555
O7_3 C7_3 1_555 1_555
C12_3 C13_3 1_555 1_555
C13_3 C14_3 1_555 1_555
O11_3 C47_3 1_555 1_555
O26_3 C33_3 1_555 1_555
O27_3 C34_3 1_555 1_555
C43_3 C45_3 1_555 1_555
C44_3 C46_3 1_555 1_555
C45_3 C47_3 1_555 1_555
C46_3 C48_3 1_555 1_555
Zn9_3 O20_7 1_555 1_555
Zn17_7 O20_7 1_555 1_555
O22_4 Zn17_7 1_555 1_555
O26_4 Zn9_3 1_555 1_555
O34_3 Zn9_3 1_555 1_555
O35_3 Zn9_3 1_555 1_555
C33_4 O22_4 1_555 1_555
C35_4 C33_4 1_555 1_555
C37_4 C35_4 1_555 1_555
H17_4 C37_4 1_555 1_555
C39_4 C37_4 1_555 1_555
H19_4 C39_4 1_555 1_555
O26_4 C33_4 1_555 1_555
O4_2 Zn1_2 1_555 1_555
C1_2 C2_2 1_555 1_555
C2_2 C3_2 1_555 1_555
C3_2 H1_2 1_555 1_555
C4_2 C3_2 1_555 1_555
H2_2 C4_2 1_555 1_555
C5_2 C4_2 1_555 1_555
C6_2 O4_2 1_555 1_555
O8_2 C1_2 1_555 1_555
O13_2 C6_2 1_555 1_555
O14_2 Zn1_2 1_555 1_555
O15_2 Zn6_2 1_555 1_555
O18_2 Zn5_2 1_555 1_555
O19_2 Zn6_2 1_555 1_555
C15_3 C17_3 1_555 1_555
C17_3 C20_3 1_555 1_555
C19_2 C2_2 1_555 1_555
C20_3 H8_3 1_555 1_555
C21_3 C17_3 1_555 1_555
H7_2 C19_2 1_555 1_555
H9_3 C21_3 1_555 1_555
C24_2 C5_2 1_555 1_555
C25_3 C20_3 1_555 1_555
C26_3 C21_3 1_555 1_555
H12_2 C24_2 1_555 1_555
H13_3 C25_3 1_555 1_555
H14_3 C26_3 1_555 1_555
C29_3 C25_3 1_555 1_555
C31_3 O14_2 1_555 1_555
Zn13_2 O8_2 1_555 1_555
Zn15_2 O29_3 1_555 1_555
O28_2 C1_2 1_555 1_555
O29_3 C15_3 1_555 1_555
O30_3 C15_3 1_555 1_555
C5_2 C6_2 1_555 1_555
Zn5_2 O13_2 1_555 1_555
O15_2 C31_3 1_555 1_555
C19_2 C24_2 1_555 1_555
C26_3 C29_3 1_555 1_555
C29_3 C31_3 1_555 1_555
Zn2_7 O1_7 1_555 1_555
O3_4 Zn2_7 1_555 1_555
Zn3_3 O20_7 1_555 1_555
O6_4 Zn17_7 1_555 1_555
O7_4 Zn3_3 1_555 1_555
C7_4 O6_4 1_555 1_555
C8_4 C7_4 1_555 1_555
C9_4 C8_4 1_555 1_555
H3_4 C9_4 1_555 1_555
C10_4 C9_4 1_555 1_555
H4_4 C10_4 1_555 1_555
C11_4 C8_4 1_555 1_555
H5_4 C11_4 1_555 1_555
C12_4 C11_4 1_555 1_555
H6_4 C12_4 1_555 1_555
C13_4 C10_4 1_555 1_555
C14_4 O2_4 1_555 1_555
Zn7_3 O16_7 1_555 1_555
O10_4 C48_4 1_555 1_555
O11_4 Zn2_7 1_555 1_555
O12_4 Zn2_7 1_555 1_555
O16_7 C32_7 1_555 1_555
O17_7 C32_7 1_555 1_555
C16_7 C18_7 1_555 1_555
C18_7 C22_7 1_555 1_555
C22_7 H10_7 1_555 1_555
C23_7 C18_7 1_555 1_555
H11_7 C23_7 1_555 1_555
C27_7 C22_7 1_555 1_555
C28_7 C23_7 1_555 1_555
H15_7 C27_7 1_555 1_555
H16_7 C28_7 1_555 1_555
C30_7 C27_7 1_555 1_555
C32_7 C30_7 1_555 1_555
Zn12_3 O20_7 1_555 1_555
O25_4 Zn17_7 1_555 1_555
O31_3 Zn3_3 1_555 1_555
O32_3 C16_7 1_555 1_555
O33_3 Zn3_3 1_555 1_555
H21_4 C41_4 1_555 1_555
H22_4 C42_4 1_555 1_555
C43_4 C41_4 1_555 1_555
C44_4 C42_4 1_555 1_555
H23_4 C43_4 1_555 1_555
H24_4 C44_4 1_555 1_555
C47_4 O9_4 1_555 1_555
C48_4 O12_4 1_555 1_555
O3_4 C14_4 1_555 1_555
O7_4 C7_4 1_555 1_555
C12_4 C13_4 1_555 1_555
C13_4 C14_4 1_555 1_555
O11_4 C47_4 1_555 1_555
C16_7 O31_3 1_555 1_555
C28_7 C30_7 1_555 1_555
Zn12_3 O32_3 1_555 1_555
C43_4 C45_4 1_555 1_555
C44_4 C46_4 1_555 1_555
C45_4 C47_4 1_555 1_555
C46_4 C48_4 1_555 1_555
O27_4 Zn12_3 1_555 1_555
O37_3 Zn12_3 1_555 1_555
C34_4 O25_4 1_555 1_555
C36_4 C34_4 1_555 1_555
C38_4 C36_4 1_555 1_555
H18_4 C38_4 1_555 1_555
C40_4 C38_4 1_555 1_555
H20_4 C40_4 1_555 1_555
O27_4 C34_4 1_555 1_555
Zn17_8 O20_8 1_555 1_555
Zn17_9 O20_9 1_555 1_555
C15_4 C17_4 1_555 1_555
C17_4 C20_4 1_555 1_555
C20_4 H8_4 1_555 1_555
C21_4 C17_4 1_555 1_555
H9_4 C21_4 1_555 1_555
Zn13_2 O20_8 1_555 1_555
Zn15_3 O29_4 1_555 1_555
Zn16_3 O30_4 1_555 1_555
Zn17_10 O20_10 1_555 1_555
O25_5 Zn17_8 1_555 1_555
O29_4 C15_4 1_555 1_555
O30_4 C15_4 1_555 1_555
Zn1_3 O1_8 1_555 1_555
Zn2_8 O1_8 1_555 1_555
O1_8 Zn5_3 1_555 1_555
O2_5 Zn1_3 1_555 1_555
O3_5 Zn2_8 1_555 1_555
O4_3 Zn1_3 1_555 1_555
H2_3 C4_3 1_555 1_555
C5_3 C4_3 1_555 1_555
C6_3 O4_3 1_555 1_555
Zn16_2 O20_9 1_555 1_555
O6_5 Zn17_9 1_555 1_555
O7_5 Zn16_2 1_555 1_555
C7_5 O6_5 1_555 1_555
C8_5 C7_5 1_555 1_555
C9_5 C8_5 1_555 1_555
H3_5 C9_5 1_555 1_555
C10_5 C9_5 1_555 1_555
H4_5 C10_5 1_555 1_555
C11_5 C8_5 1_555 1_555
H5_5 C11_5 1_555 1_555
C12_5 C11_5 1_555 1_555
H6_5 C12_5 1_555 1_555
C13_5 C10_5 1_555 1_555
C14_5 O2_5 1_555 1_555
Zn5_3 O10_5 1_555 1_555
Zn6_3 O1_8 1_555 1_555
O9_5 Zn6_3 1_555 1_555
O10_5 C48_5 1_555 1_555
O11_5 Zn2_8 1_555 1_555
O12_5 Zn2_8 1_555 1_555
O13_3 C6_3 1_555 1_555
O14_3 Zn1_3 1_555 1_555
O15_3 Zn6_3 1_555 1_555
O18_3 Zn5_3 1_555 1_555
O19_3 Zn6_3 1_555 1_555
C24_3 C5_3 1_555 1_555
H12_3 C24_3 1_555 1_555
H13_4 C25_4 1_555 1_555
H14_4 C26_4 1_555 1_555
C29_4 C25_4 1_555 1_555
C31_4 O14_3 1_555 1_555
Zn15_2 O20_11 1_555 1_555
Zn17_11 O20_11 1_555 1_555
O22_5 Zn17_11 1_555 1_555
O26_5 Zn15_2 1_555 1_555
O27_5 Zn13_2 1_555 1_555
C33_5 O22_5 1_555 1_555
C34_5 O25_5 1_555 1_555
C35_5 C33_5 1_555 1_555
C36_5 C34_5 1_555 1_555
C37_5 C35_5 1_555 1_555
C38_5 C36_5 1_555 1_555
H17_5 C37_5 1_555 1_555
H18_5 C38_5 1_555 1_555
C39_5 C37_5 1_555 1_555
C40_5 C38_5 1_555 1_555
H19_5 C39_5 1_555 1_555
H20_5 C40_5 1_555 1_555
C41_5 C35_5 1_555 1_555
C42_5 C36_5 1_555 1_555
H21_5 C41_5 1_555 1_555
H22_5 C42_5 1_555 1_555
C43_5 C41_5 1_555 1_555
C44_5 C42_5 1_555 1_555
H23_5 C43_5 1_555 1_555
H24_5 C44_5 1_555 1_555
C45_5 C39_5 1_555 1_555
C46_5 C40_5 1_555 1_555
C47_5 O9_5 1_555 1_555
C48_5 O12_5 1_555 1_555
O3_5 C14_5 1_555 1_555
C5_3 C6_3 1_555 1_555
O7_5 C7_5 1_555 1_555
C12_5 C13_5 1_555 1_555
C13_5 C14_5 1_555 1_555
Zn5_3 O13_3 1_555 1_555
O11_5 C47_5 1_555 1_555
O15_3 C31_4 1_555 1_555
C26_4 C29_4 1_555 1_555
C29_4 C31_4 1_555 1_555
O26_5 C33_5 1_555 1_555
O27_5 C34_5 1_555 1_555
C43_5 C45_5 1_555 1_555
C44_5 C46_5 1_555 1_555
C45_5 C47_5 1_555 1_555
C46_5 C48_5 1_555 1_555
C1_3 C2_3 1_555 1_555
C2_3 C3_3 1_555 1_555
C3_3 H1_3 1_555 1_555
O8_3 C1_3 1_555 1_555
C19_3 C2_3 1_555 1_555
H7_3 C19_3 1_555 1_555
Zn13_3 O8_3 1_555 1_555
Zn16_3 O28_3 1_555 1_555
O28_3 C1_3 1_555 1_555
Zn2_9 O1_9 1_555 1_555
Zn6_4 O1_9 1_555 1_555
O9_6 Zn6_4 1_555 1_555
O11_6 Zn2_9 1_555 1_555
O15_4 Zn6_4 1_555 1_555
C15_5 C17_5 1_555 1_555
C17_5 C20_5 1_555 1_555
C20_5 H8_5 1_555 1_555
C21_5 C17_5 1_555 1_555
H9_5 C21_5 1_555 1_555
C25_5 C20_5 1_555 1_555
C26_5 C21_5 1_555 1_555
H13_5 C25_5 1_555 1_555
H14_5 C26_5 1_555 1_555
C29_5 C25_5 1_555 1_555
C31_5 O14_4 1_555 1_555
Zn15_3 O20_12 1_555 1_555
Zn17_12 O20_12 1_555 1_555
O22_6 Zn17_12 1_555 1_555
O26_6 Zn15_3 1_555 1_555
O35_3 C15_5 1_555 1_555
O33_3 C15_5 1_555 1_555
O34_5 Zn15_3 1_555 1_555
C33_6 O22_6 1_555 1_555
C35_6 C33_6 1_555 1_555
C37_6 C35_6 1_555 1_555
H17_6 C37_6 1_555 1_555
C39_6 C37_6 1_555 1_555
H19_6 C39_6 1_555 1_555
C41_6 C35_6 1_555 1_555
H21_6 C41_6 1_555 1_555
C43_6 C41_6 1_555 1_555
H23_6 C43_6 1_555 1_555
C45_6 C39_6 1_555 1_555
C47_6 O9_6 1_555 1_555
O11_6 C47_6 1_555 1_555
O15_4 C31_5 1_555 1_555
C26_5 C29_5 1_555 1_555
C29_5 C31_5 1_555 1_555
O26_6 C33_6 1_555 1_555
C43_6 C45_6 1_555 1_555
C45_6 C47_6 1_555 1_555
Zn2_10 O1_10 1_555 1_555
Zn8_5 O1_11 1_555 1_555
Zn2_11 O1_11 1_555 1_555
O2_6 Zn8_5 1_555 1_555
O3_6 Zn2_11 1_555 1_555
Zn16_3 O20_12 1_555 1_555
O6_6 Zn17_12 1_555 1_555
O7_6 Zn16_3 1_555 1_555
C7_6 O6_6 1_555 1_555
C8_6 C7_6 1_555 1_555
C9_6 C8_6 1_555 1_555
H3_6 C9_6 1_555 1_555
C10_6 C9_6 1_555 1_555
H4_6 C10_6 1_555 1_555
C11_6 C8_6 1_555 1_555
H5_6 C11_6 1_555 1_555
C12_6 C11_6 1_555 1_555
H6_6 C12_6 1_555 1_555
C13_6 C10_6 1_555 1_555
C14_6 O2_6 1_555 1_555
Zn13_3 O20_12 1_555 1_555
O25_6 Zn17_12 1_555 1_555
O3_6 C14_6 1_555 1_555
O7_6 C7_6 1_555 1_555
C12_6 C13_6 1_555 1_555
C13_6 C14_6 1_555 1_555
Zn2_12 O1_12 1_555 1_555
O1_12 Zn7_3 1_555 1_555
Zn7_3 O10_6 1_555 1_555
O10_6 C48_6 1_555 1_555
O12_6 Zn2_12 1_555 1_555
O27_6 Zn13_3 1_555 1_555
O37_5 Zn13_3 1_555 1_555
C34_6 O25_6 1_555 1_555
C36_6 C34_6 1_555 1_555
C38_6 C36_6 1_555 1_555
H18_6 C38_6 1_555 1_555
C40_6 C38_6 1_555 1_555
H20_6 C40_6 1_555 1_555
C42_6 C36_6 1_555 1_555
H22_6 C42_6 1_555 1_555
C44_6 C42_6 1_555 1_555
H24_6 C44_6 1_555 1_555
C46_6 C40_6 1_555 1_555
C48_6 O12_6 1_555 1_555
O27_6 C34_6 1_555 1_555
C44_6 C46_6 1_555 1_555
C46_6 C48_6 1_555 1_555
C15_6 C17_6 1_555 1_555
C17_6 C20_6 1_555 1_555
C20_6 H8_6 1_555 1_555
C21_6 C17_6 1_555 1_555
H9_6 C21_6 1_555 1_555
C25_6 C20_6 1_555 1_555
C26_6 C21_6 1_555 1_555
H13_6 C25_6 1_555 1_555
H14_6 C26_6 1_555 1_555
C29_6 C25_6 1_555 1_555
C31_6 O19_2 1_555 1_555
O37_4 C15_6 1_555 1_555
O34_4 C15_6 1_555 1_555
O18_2 C31_6 1_555 1_555
C26_6 C29_6 1_555 1_555
C29_6 C31_6 1_555 1_555
O19_4 C32_8 1_555 1_555
O18_4 C32_8 1_555 1_555
C16_8 C18_8 1_555 1_555
C18_8 C22_8 1_555 1_555
C22_8 H10_8 1_555 1_555
C23_8 C18_8 1_555 1_555
H11_8 C23_8 1_555 1_555
C27_8 C22_8 1_555 1_555
C28_8 C23_8 1_555 1_555
H15_8 C27_8 1_555 1_555
H16_8 C28_8 1_555 1_555
C30_8 C27_8 1_555 1_555
C32_8 C30_8 1_555 1_555
O34_3 C16_8 1_555 1_555
C16_8 O37_3 1_555 1_555
C28_8 C30_8 1_555 1_555
O19_3 C32_9 1_555 1_555
O18_3 C32_9 1_555 1_555
C16_9 C18_9 1_555 1_555
C18_9 C22_9 1_555 1_555
C22_9 H10_9 1_555 1_555
C23_9 C18_9 1_555 1_555
H11_9 C23_9 1_555 1_555
C27_9 C22_9 1_555 1_555
C28_9 C23_9 1_555 1_555
H15_9 C27_9 1_555 1_555
H16_9 C28_9 1_555 1_555
C30_9 C27_9 1_555 1_555
C32_9 C30_9 1_555 1_555
O34_5 C16_9 1_555 1_555
C16_9 O37_5 1_555 1_555
C28_9 C30_9 1_555 1_555

#END
