
###############################################################################
#
# This file contains modified crystal structure data generated from the
# MOF subset of the Cambridge Structural Database (CSD) v543 
# hosted by the Cambridge Crystallographic Data Centre (CCDC).
#
# This work is licensed under the Creative Commons
# Attribution-NonCommercial-ShareAlike 4.0 International License.
# To view a copy of this license, visit
# http://creativecommons.org/licenses/by-nc-sa/4.0/
# or send a letter to
# Creative Commons, PO Box 1866, Mountain View, CA 94042, USA.
#
# CIF created using the CSD Python API on 29 September 2022
# The structure has been converted into the P1 space group
# The structure has a 3D framework
# The original CSD entry HIFTOG is in the rhombohedral crystal system
# The framework has been calculated to contain at least 10.0% void space
# The void calculation uses a probe of radius 1.32A, grid spacing 0.4
#
###############################################################################

data_HIFTOG
_chemical_formula_moiety         '(C288 H144 O162 Zn54)n'
_symmetry_cell_setting           triclinic
_symmetry_space_group_name_H-M   'P 1'
_symmetry_Int_Tables_number      1
_space_group_name_Hall           'P 1'
loop_
_symmetry_equiv_pos_site_id
_symmetry_equiv_pos_as_xyz
1 x,y,z
_cell_length_a                   18.382(12)
_cell_length_b                   18.382(12)
_cell_length_c                   44.97(2)
_cell_angle_alpha                90
_cell_angle_beta                 90
_cell_angle_gamma                120
_cell_volume                     13159.5
loop_
_atom_site_label
_atom_site_type_symbol
_atom_site_fract_x
_atom_site_fract_y
_atom_site_fract_z
Zn9 Zn 0.6667 0.3333 0.13579(2)
Zn11 Zn 0.608688(18) 0.217376(25) 0.193907(14)
O20 O 0.6667 0.3333 0.17900(13)
O22 O 0.60932(13) 0.21864(18) 0.12049(10)
O26 O 0.56907(14) 0.13814(20) 0.16096(9)
O34 O 0.6836(2) 0.1955(3) 0.21828(9)
O35 O 0.5120(2) 0.1955(3) 0.21828(9)
C33 C 0.57484(18) 0.14968(25) 0.13335(14)
C35 C 0.53576(19) 0.07152(27) 0.11411(13)
C37 C 0.5392(2) 0.0784(3) 0.08377(14)
H17 H 0.5656 0.1312 0.0750
C39 C 0.5036(2) 0.0072(3) 0.06584(14)
H19 H 0.5067 0.0134 0.0453
Zn15 Zn 0.942021(18) 0.057979(18) 0.860574(14)
Zn2 Zn 0.3333 0.6667 0.05656(2)
O1 O 0.3333 0.6667 0.01299(13)
O2 O 0.43107(15) 0.56893(15) 0.03117(10)
O3 O 0.39074(15) 0.60926(15) 0.07175(11)
Zn4 Zn 0.608688(18) 0.391312(18) 0.193907(14)
O6 O 0.60932(13) 0.39068(13) 0.12049(10)
O7 O 0.56907(14) 0.43093(14) 0.16096(9)
C7 C 0.57484(18) 0.42516(18) 0.13335(14)
C8 C 0.53576(19) 0.46424(19) 0.11411(13)
C9 C 0.5392(2) 0.4608(2) 0.08377(14)
H3 H 0.5656 0.4344 0.0750
C10 C 0.5036(2) 0.4964(2) 0.06584(14)
H4 H 0.5067 0.4933 0.0453
C11 C 0.4964(2) 0.5036(2) 0.12660(17)
H5 H 0.4936 0.5064 0.1472
C12 C 0.4607(3) 0.5393(3) 0.10882(17)
H6 H 0.4342 0.5658 0.1176
C13 C 0.46429(19) 0.53571(19) 0.07789(14)
C14 C 0.42552(19) 0.57448(19) 0.05892(14)
Zn8 Zn 0.057921(18) 0.115841(25) 0.331605(14)
O9 O 0.43107(15) 0.86214(21) 0.03117(10)
O10 O 0.13786(21) 0.56893(15) 0.03117(10)
O11 O 0.39074(15) 0.78148(21) 0.07175(11)
O12 O 0.21852(21) 0.60926(15) 0.07175(11)
O16 O 0.1544(2) 0.0163(2) 0.30732(9)
O17 O 0.1544(2) 0.1380(3) 0.30732(9)
C16 C 0.4828(2) 0.2414(4) 0.22553(16)
C18 C 0.4059(2) 0.2030(4) 0.24494(17)
C22 C 0.3703(4) 0.2500(4) 0.25432(17)
C23 C 0.3703(4) 0.1202(6) 0.25432(17)
H10 H 0.3944 0.3060 0.2487
H11 H 0.3944 0.0883 0.2487
C27 C 0.2988(4) 0.2140(4) 0.27208(16)
C28 C 0.2988(4) 0.0847(6) 0.27208(16)
H15 H 0.2756 0.2464 0.2782
H16 H 0.2756 0.0291 0.2782
C30 C 0.2617(2) 0.1308(4) 0.28075(17)
C32 C 0.18400(19) 0.0920(4) 0.30017(14)
Zn14 Zn 0.782624(25) 0.391312(18) 0.193907(14)
O25 O 0.78136(18) 0.39068(13) 0.12049(10)
O31 O 0.5120(2) 0.3164(2) 0.21828(9)
O33 O 0.6836(2) 0.4880(2) 0.21828(9)
C41 C 0.4964(2) 0.9928(3) 0.12660(17)
C42 C 0.0072(3) 0.5036(2) 0.12660(17)
H21 H 0.4936 0.9872 0.1472
H22 H 0.0128 0.5064 0.1472
C43 C 0.4607(3) 0.9214(4) 0.10882(17)
C44 C 0.0786(4) 0.5393(3) 0.10882(17)
H23 H 0.4342 0.8684 0.1176
H24 H 0.1316 0.5658 0.1176
C45 C 0.46429(19) 0.92858(27) 0.07789(14)
C46 C 0.07142(27) 0.53571(19) 0.07789(14)
C47 C 0.42552(19) 0.85104(27) 0.05892(14)
C48 C 0.14896(27) 0.57448(19) 0.05892(14)
Zn1 Zn 0.391254(18) 0.608746(18) 0.998272(14)
O4 O 0.4877(2) 0.6830(2) 0.97399(9)
C1 C 0.8161(2) 0.9081(4) 0.89220(16)
C2 C 0.7392(2) 0.8697(4) 0.91161(17)
C3 C 0.7036(4) 0.9167(4) 0.92099(17)
H1 H 0.7277 0.9727 0.9154
C4 C 0.6321(4) 0.8807(4) 0.93875(16)
H2 H 0.6089 0.9131 0.9449
C5 C 0.5950(2) 0.7975(4) 0.94742(17)
C6 C 0.51733(19) 0.7587(4) 0.96684(14)
O8 O 0.8453(2) 0.9831(2) 0.88495(9)
Zn5 Zn 0.217492(25) 0.608746(18) 0.998272(14)
Zn6 Zn 0.391254(18) 0.782508(25) 0.998272(14)
O13 O 0.4877(2) 0.8047(3) 0.97399(9)
O14 O 0.3170(2) 0.5123(2) 0.97399(9)
O15 O 0.1953(3) 0.5123(2) 0.97399(9)
O18 O 0.1953(3) 0.6830(2) 0.97399(9)
O19 O 0.3170(2) 0.8047(3) 0.97399(9)
C15 C 0.0919(4) 0.1839(2) 0.89220(16)
C17 C 0.1303(4) 0.2608(2) 0.91161(17)
C19 C 0.7036(4) 0.7869(6) 0.92099(17)
C20 C 0.0833(4) 0.2964(4) 0.92099(17)
C21 C 0.2131(6) 0.2964(4) 0.92099(17)
H7 H 0.7277 0.7550 0.9154
H8 H 0.0273 0.2723 0.9154
H9 H 0.2450 0.2723 0.9154
C24 C 0.6321(4) 0.7514(6) 0.93875(16)
C25 C 0.1193(4) 0.3679(4) 0.93875(16)
C26 C 0.2486(6) 0.3679(4) 0.93875(16)
H12 H 0.6089 0.6958 0.9449
H13 H 0.0869 0.3911 0.9449
H14 H 0.3042 0.3911 0.9449
C29 C 0.2025(4) 0.4050(2) 0.94742(17)
C31 C 0.2413(4) 0.48267(19) 0.96684(14)
Zn16 Zn 0.942021(18) 0.884043(25) 0.860574(14)
Zn18 Zn 0.115957(25) 0.057979(18) 0.860574(14)
O28 O 0.8453(2) 0.8622(3) 0.88495(9)
O29 O 0.0169(2) 0.1547(2) 0.88495(9)
O30 O 0.1378(3) 0.1547(2) 0.88495(9)
Zn7 Zn 0.057921(18) 0.942079(18) 0.331605(14)
O27 O 0.86186(20) 0.43093(14) 0.16096(9)
O36 O 0.8045(3) 0.4880(2) 0.21828(9)
O37 O 0.8045(3) 0.3164(2) 0.21828(9)
C34 C 0.85032(25) 0.42516(18) 0.13335(14)
C36 C 0.92848(27) 0.46424(19) 0.11411(13)
C38 C 0.9216(3) 0.4608(2) 0.08377(14)
H18 H 0.8688 0.4344 0.0750
C40 C 0.9928(3) 0.4964(2) 0.06584(14)
H20 H 0.9866 0.4933 0.0453
O16_2 O 0.9837(2) 0.1380(3) 0.30732(9)
O17_2 O 0.8620(3) 0.0163(4) 0.30732(9)
C16_2 C 0.7586(4) 0.2413(4) 0.22553(16)
C18_2 C 0.7970(4) 0.2028(4) 0.24494(17)
C22_2 C 0.7500(4) 0.1202(6) 0.25432(17)
C23_2 C 0.8798(6) 0.2500(7) 0.25432(17)
H10_2 H 0.6940 0.0883 0.2487
H11_2 H 0.9117 0.3060 0.2487
C27_2 C 0.7860(4) 0.0847(6) 0.27208(16)
C28_2 C 0.9153(6) 0.2140(7) 0.27208(16)
H15_2 H 0.7536 0.0291 0.2782
H16_2 H 0.9709 0.2464 0.2782
C30_2 C 0.8692(4) 0.1308(4) 0.28075(17)
C32_2 C 0.9080(4) 0.09196(44) 0.30017(14)
Zn8_2 Zn 0.884159(25) 0.942079(31) 0.331605(14)
C1_2 C 0.0919(4) 0.9080(4) 0.89220(16)
C2_2 C 0.1303(4) 0.8695(4) 0.91161(17)
C3_2 C 0.0833(4) 0.7869(6) 0.92099(17)
H1_2 H 0.0273 0.7550 0.9154
C4_2 C 0.1193(4) 0.7514(6) 0.93875(16)
H2_2 H 0.0869 0.6958 0.9449
C5_2 C 0.2025(4) 0.7975(4) 0.94742(17)
C6_2 C 0.2413(4) 0.75863(44) 0.96684(14)
O8_2 O 0.0169(2) 0.8622(3) 0.88495(9)
C19_2 C 0.2131(6) 0.9167(7) 0.92099(17)
H7_2 H 0.2450 0.9727 0.9154
C24_2 C 0.2486(6) 0.8807(7) 0.93875(16)
H12_2 H 0.3042 0.9131 0.9449
O28_2 O 0.1378(3) 0.9831(4) 0.88495(9)
O16_3 O 0.8620(3) 0.8456(2) 0.30732(9)
O17_3 O 0.9837(4) 0.8456(2) 0.30732(9)
C16_3 C 0.7587(4) 0.5172(2) 0.22553(16)
C18_3 C 0.7972(4) 0.5941(2) 0.24494(17)
C22_3 C 0.8798(6) 0.6297(4) 0.25432(17)
C23_3 C 0.7500(7) 0.6297(4) 0.25432(17)
H10_3 H 0.9117 0.6056 0.2487
H11_3 H 0.6940 0.6056 0.2487
C27_3 C 0.9153(6) 0.7012(4) 0.27208(16)
C28_3 C 0.7860(7) 0.7012(4) 0.27208(16)
H15_3 H 0.9709 0.7244 0.2782
H16_3 H 0.7536 0.7244 0.2782
C30_3 C 0.8692(4) 0.7383(2) 0.28075(17)
C32_3 C 0.90804(44) 0.81600(19) 0.30017(14)
Zn2_2 Zn -0.0000 0.0000 0.38989(2)
O1_2 O -0.0000 0.0000 0.34632(13)
O9_2 O 0.09774(15) 0.19547(21) 0.36450(10)
O11_2 O 0.05741(15) 0.11481(21) 0.40508(11)
Zn9_2 Zn 0.3334 0.6666 0.46912(2)
Zn11_2 Zn 0.275355(18) 0.550709(25) 0.527240(14)
O20_2 O 0.3334 0.6666 0.51233(13)
O22_2 O 0.27599(13) 0.55197(18) 0.45382(10)
O26_2 O 0.23574(14) 0.47147(20) 0.49429(9)
O34_2 O 0.3502(2) 0.5289(3) 0.55162(9)
O35_2 O 0.1786(2) 0.5289(3) 0.55162(9)
C33_2 C 0.24151(18) 0.48301(25) 0.46668(14)
C35_2 C 0.20243(19) 0.40485(27) 0.44744(13)
C37_2 C 0.2059(2) 0.4117(3) 0.41710(14)
H17_2 H 0.2323 0.4645 0.4083
C39_2 C 0.1703(2) 0.3405(3) 0.39917(14)
H19_2 H 0.1734 0.3467 0.3786
C41_2 C 0.1631(2) 0.3261(3) 0.45993(17)
H21_2 H 0.1603 0.3205 0.4805
C43_2 C 0.1274(3) 0.2547(4) 0.44215(17)
H23_2 H 0.1009 0.2017 0.4509
C45_2 C 0.13096(19) 0.26191(27) 0.41122(14)
C47_2 C 0.09219(19) 0.18437(27) 0.39225(14)
Zn2_3 Zn -0.0000 1.0000 0.38989(2)
O1_3 O -0.0000 1.0000 0.34632(13)
O2_2 O 0.09774(15) 0.90226(15) 0.36450(10)
O3_2 O 0.05741(15) 0.94259(15) 0.40508(11)
Zn4_2 Zn 0.275355(18) 0.724645(18) 0.527240(14)
O6_2 O 0.27599(13) 0.72401(13) 0.45382(10)
O7_2 O 0.23574(14) 0.76426(14) 0.49429(9)
C7_2 C 0.24151(18) 0.75849(18) 0.46668(14)
C8_2 C 0.20243(19) 0.79757(19) 0.44744(13)
C9_2 C 0.2059(2) 0.7941(2) 0.41710(14)
H3_2 H 0.2323 0.7677 0.4083
C10_2 C 0.1703(2) 0.8297(2) 0.39917(14)
H4_2 H 0.1734 0.8266 0.3786
C11_2 C 0.1631(2) 0.8369(2) 0.45993(17)
H5_2 H 0.1603 0.8397 0.4805
C12_2 C 0.1274(3) 0.8726(3) 0.44215(17)
H6_2 H 0.1009 0.8991 0.4509
C13_2 C 0.13096(19) 0.86904(19) 0.41122(14)
C14_2 C 0.09219(19) 0.90781(19) 0.39225(14)
C16_4 C 0.1494(2) 0.5748(4) 0.55887(16)
C18_4 C 0.0725(2) 0.5364(4) 0.57828(17)
C22_4 C 0.0369(4) 0.5834(4) 0.58766(17)
C23_4 C 0.0369(4) 0.4536(6) 0.58766(17)
H10_4 H 0.0610 0.6394 0.5821
H11_4 H 0.0610 0.4217 0.5821
Zn14_2 Zn 0.449291(25) 0.724645(18) 0.527240(14)
O25_2 O 0.44803(18) 0.72401(13) 0.45382(10)
O31_2 O 0.1786(2) 0.6498(2) 0.55162(9)
O33_2 O 0.3502(2) 0.8214(2) 0.55162(9)
Zn2_4 Zn 1.0000 0.0000 0.38989(2)
O1_4 O 1.0000 0.0000 0.34632(13)
Zn2_5 Zn 1.0000 1.0000 0.38989(2)
O1_5 O 1.0000 1.0000 0.34632(13)
Zn7_2 Zn 0.724587(18) 0.275413(18) 0.664939(14)
Zn8_3 Zn 0.724587(18) 0.449175(25) 0.664939(14)
O10_2 O 0.80453(21) 0.90226(15) 0.36450(10)
O12_2 O 0.88519(21) 0.94259(15) 0.40508(11)
O16_4 O 0.8210(2) 0.3497(2) 0.64066(9)
O17_4 O 0.8210(2) 0.4714(3) 0.64066(9)
C27_4 C 0.9654(4) 0.5474(4) 0.60542(16)
C28_4 C 0.9654(4) 0.4181(6) 0.60542(16)
H15_4 H 0.9422 0.5798 0.6116
H16_4 H 0.9422 0.3625 0.6116
C30_4 C 0.9283(2) 0.4642(4) 0.61409(17)
C32_4 C 0.85066(19) 0.4254(4) 0.63351(14)
O27_2 O 0.52853(20) 0.76426(14) 0.49429(9)
O36_2 O 0.4711(3) 0.8214(2) 0.55162(9)
O37_2 O 0.4711(3) 0.6498(2) 0.55162(9)
C34_2 C 0.51699(25) 0.75849(18) 0.46668(14)
C36_2 C 0.59515(27) 0.79757(19) 0.44744(13)
C38_2 C 0.5883(3) 0.7941(2) 0.41710(14)
H18_2 H 0.5355 0.7677 0.4083
C40_2 C 0.6595(3) 0.8297(2) 0.39917(14)
H20_2 H 0.6533 0.8266 0.3786
C42_2 C 0.6739(3) 0.8369(2) 0.45993(17)
H22_2 H 0.6795 0.8397 0.4805
C44_2 C 0.7453(4) 0.8726(3) 0.44215(17)
H24_2 H 0.7983 0.8991 0.4509
C46_2 C 0.73809(27) 0.86904(19) 0.41122(14)
C48_2 C 0.81563(27) 0.90781(19) 0.39225(14)
Zn8_4 Zn 0.550825(25) 0.275413(31) 0.664939(14)
O16_5 O 0.6503(2) 0.4714(3) 0.64066(9)
O17_5 O 0.5286(3) 0.3497(4) 0.64066(9)
C16_5 C 0.4252(4) 0.5747(4) 0.55887(16)
C18_5 C 0.4636(4) 0.5362(4) 0.57828(17)
C22_5 C 0.4166(4) 0.4536(6) 0.58766(17)
C23_5 C 0.5464(6) 0.5834(7) 0.58766(17)
H10_5 H 0.3606 0.4217 0.5821
H11_5 H 0.5783 0.6394 0.5821
C27_5 C 0.4526(4) 0.4181(6) 0.60542(16)
C28_5 C 0.5819(6) 0.5474(7) 0.60542(16)
H15_5 H 0.4202 0.3625 0.6116
H16_5 H 0.6375 0.5798 0.6116
C30_5 C 0.5358(4) 0.4642(4) 0.61409(17)
C32_5 C 0.5746(4) 0.42530(44) 0.63351(14)
O16_6 O 0.5286(3) 0.1790(2) 0.64066(9)
O17_6 O 0.6503(4) 0.1790(2) 0.64066(9)
C27_6 C 0.5819(6) 0.0346(4) 0.60542(16)
C28_6 C 0.4526(7) 0.0346(4) 0.60542(16)
H15_6 H 0.6375 0.0578 0.6116
H16_6 H 0.4202 0.0578 0.6116
C30_6 C 0.5358(4) 0.0717(2) 0.61409(17)
C32_6 C 0.57470(44) 0.14934(19) 0.63351(14)
C16_6 C 0.4253(4) 0.8506(2) 0.55887(16)
C18_6 C 0.4638(4) 0.9275(2) 0.57828(17)
C22_6 C 0.5464(6) 0.9631(4) 0.58766(17)
C23_6 C 0.4166(7) 0.9631(4) 0.58766(17)
H10_6 H 0.5783 0.9390 0.5821
H11_6 H 0.3606 0.9390 0.5821
Zn9_3 Zn 0.0000 -0.0000 0.80246(2)
O20_3 O 0.0000 -0.0000 0.84567(13)
Zn9_4 Zn 0.0000 1.0000 0.80246(2)
O20_4 O 0.0000 1.0000 0.84567(13)
O25_3 O 0.11469(18) 0.05735(13) 0.78716(10)
Zn9_5 Zn 1.0000 -0.0000 0.80246(2)
O20_5 O 1.0000 -0.0000 0.84567(13)
Zn2_6 Zn 0.6666 0.3334 0.72323(2)
O1_6 O 0.6666 0.3334 0.67966(13)
O2_3 O 0.76440(15) 0.23560(15) 0.69784(10)
O3_3 O 0.72407(15) 0.27593(15) 0.73842(11)
O6_3 O 0.94265(13) 0.05735(13) 0.78716(10)
O7_3 O 0.90240(14) 0.09760(14) 0.82763(9)
C7_3 C 0.90817(18) 0.09183(18) 0.80002(14)
C8_3 C 0.86909(19) 0.13091(19) 0.78078(13)
C9_3 C 0.8725(2) 0.1275(2) 0.75044(14)
H3_3 H 0.8989 0.1011 0.7417
C10_3 C 0.8369(2) 0.1631(2) 0.73251(14)
H4_3 H 0.8400 0.1600 0.7120
C11_3 C 0.8297(2) 0.1703(2) 0.79327(17)
H5_3 H 0.8269 0.1731 0.8139
C12_3 C 0.7940(3) 0.2060(3) 0.77549(17)
H6_3 H 0.7675 0.2325 0.7843
C13_3 C 0.79762(19) 0.20238(19) 0.74456(14)
C14_3 C 0.75885(19) 0.24115(19) 0.72559(14)
O9_3 O 0.76440(15) 0.52881(21) 0.69784(10)
O10_3 O 0.47119(21) 0.23560(15) 0.69784(10)
O11_3 O 0.72407(15) 0.44815(21) 0.73842(11)
O12_3 O 0.55185(21) 0.27593(15) 0.73842(11)
Zn9_6 Zn 1.0000 1.0000 0.80246(2)
O20_6 O 1.0000 1.0000 0.84567(13)
O22_3 O 0.94265(13) 0.88531(18) 0.78716(10)
O26_3 O 0.90240(14) 0.80481(20) 0.82763(9)
O27_3 O 0.19519(20) 0.09760(14) 0.82763(9)
C33_3 C 0.90817(18) 0.81635(25) 0.80002(14)
C34_3 C 0.18365(25) 0.09183(18) 0.80002(14)
C35_3 C 0.86909(19) 0.73819(27) 0.78078(13)
C36_3 C 0.26181(27) 0.13091(19) 0.78078(13)
C37_3 C 0.8725(2) 0.7451(3) 0.75044(14)
C38_3 C 0.2549(3) 0.1275(2) 0.75044(14)
H17_3 H 0.8989 0.7979 0.7417
H18_3 H 0.2021 0.1011 0.7417
C39_3 C 0.8369(2) 0.6739(3) 0.73251(14)
C40_3 C 0.3261(3) 0.1631(2) 0.73251(14)
H19_3 H 0.8400 0.6801 0.7120
H20_3 H 0.3199 0.1600 0.7120
C41_3 C 0.8297(2) 0.6595(3) 0.79327(17)
C42_3 C 0.3405(3) 0.1703(2) 0.79327(17)
H21_3 H 0.8269 0.6539 0.8139
H22_3 H 0.3461 0.1731 0.8139
C43_3 C 0.7940(3) 0.5881(4) 0.77549(17)
C44_3 C 0.4119(4) 0.2060(3) 0.77549(17)
H23_3 H 0.7675 0.5351 0.7843
H24_3 H 0.4649 0.2325 0.7843
C45_3 C 0.79762(19) 0.59525(27) 0.74456(14)
C46_3 C 0.40475(27) 0.20238(19) 0.74456(14)
C47_3 C 0.75885(19) 0.51771(27) 0.72559(14)
C48_3 C 0.48229(27) 0.24115(19) 0.72559(14)
Zn15_2 Zn 0.057979(18) 0.942021(18) 0.139426(14)
Zn9_7 Zn 0.3333 0.6667 0.86421(2)
Zn11_3 Zn 0.217376(25) 0.608688(18) 0.806093(14)
O20_7 O 0.3333 0.6667 0.82100(13)
O22_4 O 0.21864(18) 0.60932(13) 0.87951(10)
O26_4 O 0.13814(20) 0.56907(14) 0.83904(9)
O34_3 O 0.1955(3) 0.6836(2) 0.78172(9)
O35_3 O 0.1955(3) 0.5120(2) 0.78172(9)
C33_4 C 0.14968(25) 0.57484(18) 0.86665(14)
C35_4 C 0.07152(27) 0.53576(19) 0.88589(13)
C37_4 C 0.0784(3) 0.5392(2) 0.91623(14)
H17_4 H 0.1312 0.5656 0.9250
C39_4 C 0.0072(3) 0.5036(2) 0.93416(14)
H19_4 H 0.0134 0.5067 0.9547
Zn1_2 Zn 0.608746(18) 0.391254(18) 0.001728(14)
O4_2 O 0.6830(2) 0.4877(2) 0.02601(9)
C1_3 C 0.9081(4) 0.8161(2) 0.10780(16)
C2_3 C 0.8697(4) 0.7392(2) 0.08839(17)
C3_3 C 0.9167(4) 0.7036(4) 0.07901(17)
H1_3 H 0.9727 0.7277 0.0846
C4_3 C 0.8807(4) 0.6321(4) 0.06125(16)
H2_3 H 0.9131 0.6089 0.0551
C5_3 C 0.7975(4) 0.5950(2) 0.05258(17)
C6_3 C 0.7587(4) 0.51733(19) 0.03316(14)
O8_3 O 0.9831(2) 0.8453(2) 0.11505(9)
Zn5_2 Zn 0.608746(18) 0.217492(25) 0.001728(14)
Zn6_2 Zn 0.782508(25) 0.391254(18) 0.001728(14)
O13_2 O 0.8047(3) 0.4877(2) 0.02601(9)
O14_2 O 0.5123(2) 0.3170(2) 0.02601(9)
O15_2 O 0.5123(2) 0.1953(3) 0.02601(9)
O18_2 O 0.6830(2) 0.1953(3) 0.02601(9)
O19_2 O 0.8047(3) 0.3170(2) 0.02601(9)
C15_2 C 0.1839(2) 0.0919(4) 0.10780(16)
C17_2 C 0.2608(2) 0.1303(4) 0.08839(17)
C19_3 C 0.7869(6) 0.7036(4) 0.07901(17)
C20_2 C 0.2964(4) 0.0833(4) 0.07901(17)
C21_2 C 0.2964(4) 0.2131(6) 0.07901(17)
H7_3 H 0.7550 0.7277 0.0846
H8_2 H 0.2723 0.0273 0.0846
H9_2 H 0.2723 0.2450 0.0846
C24_3 C 0.7514(6) 0.6321(4) 0.06125(16)
C25_2 C 0.3679(4) 0.1193(4) 0.06125(16)
C26_2 C 0.3679(4) 0.2486(6) 0.06125(16)
H12_3 H 0.6958 0.6089 0.0551
H13_2 H 0.3911 0.0869 0.0551
H14_2 H 0.3911 0.3042 0.0551
C29_2 C 0.4050(2) 0.2025(4) 0.05258(17)
C31_2 C 0.48267(19) 0.2413(4) 0.03316(14)
Zn16_2 Zn 0.884043(25) 0.942021(18) 0.139426(14)
Zn18_2 Zn 0.057979(18) 0.115957(25) 0.139426(14)
O28_3 O 0.8622(3) 0.8453(2) 0.11505(9)
O29_2 O 0.1547(2) 0.0169(2) 0.11505(9)
O30_2 O 0.1547(2) 0.1378(3) 0.11505(9)
Zn2_7 Zn 0.6667 0.3333 0.94344(2)
O1_7 O 0.6667 0.3333 0.98701(13)
O2_4 O 0.56893(15) 0.43107(15) 0.96883(10)
O3_4 O 0.60926(15) 0.39074(15) 0.92825(11)
Zn4_3 Zn 0.391312(18) 0.608688(18) 0.806093(14)
O6_4 O 0.39068(13) 0.60932(13) 0.87951(10)
O7_4 O 0.43093(14) 0.56907(14) 0.83904(9)
C7_4 C 0.42516(18) 0.57484(18) 0.86665(14)
C8_4 C 0.46424(19) 0.53576(19) 0.88589(13)
C9_4 C 0.4608(2) 0.5392(2) 0.91623(14)
H3_4 H 0.4344 0.5656 0.9250
C10_4 C 0.4964(2) 0.5036(2) 0.93416(14)
H4_4 H 0.4933 0.5067 0.9547
C11_4 C 0.5036(2) 0.4964(2) 0.87340(17)
H5_4 H 0.5064 0.4936 0.8528
C12_4 C 0.5393(3) 0.4607(3) 0.89118(17)
H6_4 H 0.5658 0.4342 0.8824
C13_4 C 0.53571(19) 0.46429(19) 0.92211(14)
C14_4 C 0.57448(19) 0.42552(19) 0.94108(14)
Zn8_5 Zn 0.115841(25) 0.057921(18) 0.668395(14)
O9_4 O 0.86214(21) 0.43107(15) 0.96883(10)
O10_4 O 0.56893(15) 0.13786(21) 0.96883(10)
O11_4 O 0.78148(21) 0.39074(15) 0.92825(11)
O12_4 O 0.60926(15) 0.21852(21) 0.92825(11)
O16_7 O 0.0163(2) 0.1544(2) 0.69268(9)
O17_7 O 0.1380(3) 0.1544(2) 0.69268(9)
C16_7 C 0.2414(4) 0.4828(2) 0.77447(16)
C18_7 C 0.2030(4) 0.4059(2) 0.75506(17)
C22_7 C 0.2500(4) 0.3703(4) 0.74568(17)
C23_7 C 0.1202(6) 0.3703(4) 0.74568(17)
H10_7 H 0.3060 0.3944 0.7513
H11_7 H 0.0883 0.3944 0.7513
C27_7 C 0.2140(4) 0.2988(4) 0.72792(16)
C28_7 C 0.0847(6) 0.2988(4) 0.72792(16)
H15_7 H 0.2464 0.2756 0.7218
H16_7 H 0.0291 0.2756 0.7218
C30_7 C 0.1308(4) 0.2617(2) 0.71925(17)
C32_7 C 0.0920(4) 0.18400(19) 0.69983(14)
Zn14_3 Zn 0.391312(18) 0.782624(25) 0.806093(14)
O25_4 O 0.39068(13) 0.78136(18) 0.87951(10)
O31_3 O 0.3164(2) 0.5120(2) 0.78172(9)
O33_3 O 0.4880(2) 0.6836(2) 0.78172(9)
C41_4 C 0.9928(3) 0.4964(2) 0.87340(17)
C42_4 C 0.5036(2) 0.0072(3) 0.87340(17)
H21_4 H 0.9872 0.4936 0.8528
H22_4 H 0.5064 0.0128 0.8528
C43_4 C 0.9214(4) 0.4607(3) 0.89118(17)
C44_4 C 0.5393(3) 0.0786(4) 0.89118(17)
H23_4 H 0.8684 0.4342 0.8824
H24_4 H 0.5658 0.1316 0.8824
C45_4 C 0.92858(27) 0.46429(19) 0.92211(14)
C46_4 C 0.53571(19) 0.07142(27) 0.92211(14)
C47_4 C 0.85104(27) 0.42552(19) 0.94108(14)
C48_4 C 0.57448(19) 0.14896(27) 0.94108(14)
O27_4 O 0.43093(14) 0.86186(20) 0.83904(9)
O36_3 O 0.4880(2) 0.8045(3) 0.78172(9)
O37_3 O 0.3164(2) 0.8045(3) 0.78172(9)
C34_4 C 0.42516(18) 0.85032(25) 0.86665(14)
C36_4 C 0.46424(19) 0.92848(27) 0.88589(13)
C38_4 C 0.4608(2) 0.9216(3) 0.91623(14)
H18_4 H 0.4344 0.8688 0.9250
C40_4 C 0.4964(2) 0.9928(3) 0.93416(14)
H20_4 H 0.4933 0.9866 0.9547
Zn7_3 Zn 0.942079(18) 0.057921(18) 0.668395(14)
Zn9_8 Zn -0.0000 0.0000 0.19754(2)
O20_8 O -0.0000 0.0000 0.15433(13)
Zn9_9 Zn -0.0000 1.0000 0.19754(2)
O20_9 O -0.0000 1.0000 0.15433(13)
C1_4 C 0.5748(4) 0.1494(2) 0.44113(16)
C2_4 C 0.5364(4) 0.0725(2) 0.42172(17)
C3_4 C 0.5834(4) 0.0369(4) 0.41234(17)
H1_4 H 0.6394 0.0610 0.4179
O8_4 O 0.6498(2) 0.1786(2) 0.44838(9)
C19_4 C 0.4536(6) 0.0369(4) 0.41234(17)
H7_4 H 0.4217 0.0610 0.4179
Zn9_10 Zn 1.0000 0.0000 0.19754(2)
Zn15_3 Zn 0.724645(18) 0.275355(18) 0.472760(14)
Zn16_3 Zn 0.550709(25) 0.275355(18) 0.472760(14)
O20_10 O 1.0000 0.0000 0.15433(13)
O25_5 O 0.05735(13) 0.11469(18) 0.21284(10)
O28_4 O 0.5289(3) 0.1786(2) 0.44838(9)
O34_4 O 0.8622(3) 0.0169(2) 0.11505(9)
Zn1_3 Zn 0.275413(18) 0.724587(18) 0.335061(14)
Zn2_8 Zn 0.3334 0.6666 0.27677(2)
O1_8 O 0.3334 0.6666 0.32034(13)
O2_5 O 0.23560(15) 0.76440(15) 0.30216(10)
O3_5 O 0.27593(15) 0.72407(15) 0.26158(11)
O4_3 O 0.3497(2) 0.8210(2) 0.35934(9)
C4_4 C 0.5474(4) 0.9654(4) 0.39458(16)
H2_4 H 0.5798 0.9422 0.3884
C5_4 C 0.4642(4) 0.9283(2) 0.38591(17)
C6_4 C 0.4254(4) 0.85066(19) 0.36649(14)
O6_5 O 0.05735(13) 0.94265(13) 0.21284(10)
O7_5 O 0.09760(14) 0.90240(14) 0.17237(9)
C7_5 C 0.09183(18) 0.90817(18) 0.19998(14)
C8_5 C 0.13091(19) 0.86909(19) 0.21922(13)
C9_5 C 0.1275(2) 0.8725(2) 0.24956(14)
H3_5 H 0.1011 0.8989 0.2583
C10_5 C 0.1631(2) 0.8369(2) 0.26749(14)
H4_5 H 0.1600 0.8400 0.2880
C11_5 C 0.1703(2) 0.8297(2) 0.20673(17)
H5_5 H 0.1731 0.8269 0.1861
C12_5 C 0.2060(3) 0.7940(3) 0.22451(17)
H6_5 H 0.2325 0.7675 0.2157
C13_5 C 0.20238(19) 0.79762(19) 0.25544(14)
C14_5 C 0.24115(19) 0.75885(19) 0.27441(14)
Zn5_3 Zn 0.275413(18) 0.550825(25) 0.335061(14)
Zn6_3 Zn 0.449175(25) 0.724587(18) 0.335061(14)
O9_5 O 0.52881(21) 0.76440(15) 0.30216(10)
O10_5 O 0.23560(15) 0.47119(21) 0.30216(10)
O11_5 O 0.44815(21) 0.72407(15) 0.26158(11)
O12_5 O 0.27593(15) 0.55185(21) 0.26158(11)
O13_3 O 0.4714(3) 0.8210(2) 0.35934(9)
O14_3 O 0.1790(2) 0.6503(2) 0.35934(9)
O15_3 O 0.1790(2) 0.5286(3) 0.35934(9)
O18_3 O 0.3497(2) 0.5286(3) 0.35934(9)
O19_3 O 0.4714(3) 0.6503(2) 0.35934(9)
C24_4 C 0.4181(6) 0.9654(4) 0.39458(16)
C25_3 C 0.0346(4) 0.4526(4) 0.39458(16)
C26_3 C 0.0346(4) 0.5819(6) 0.39458(16)
H12_4 H 0.3625 0.9422 0.3884
H13_3 H 0.0578 0.4202 0.3884
H14_3 H 0.0578 0.6375 0.3884
C29_3 C 0.0717(2) 0.5358(4) 0.38591(17)
C31_3 C 0.14934(19) 0.5746(4) 0.36649(14)
Zn9_11 Zn 1.0000 1.0000 0.19754(2)
O20_11 O 1.0000 1.0000 0.15433(13)
O22_5 O 0.88531(18) 0.94265(13) 0.21284(10)
O26_5 O 0.80481(20) 0.90240(14) 0.17237(9)
O27_5 O 0.09760(14) 0.19519(20) 0.17237(9)
C33_5 C 0.81635(25) 0.90817(18) 0.19998(14)
C34_5 C 0.09183(18) 0.18365(25) 0.19998(14)
C35_5 C 0.73819(27) 0.86909(19) 0.21922(13)
C36_5 C 0.13091(19) 0.26181(27) 0.21922(13)
C37_5 C 0.7451(3) 0.8725(2) 0.24956(14)
C38_5 C 0.1275(2) 0.2549(3) 0.24956(14)
H17_5 H 0.7979 0.8989 0.2583
H18_5 H 0.1011 0.2021 0.2583
C39_5 C 0.6739(3) 0.8369(2) 0.26749(14)
C40_5 C 0.1631(2) 0.3261(3) 0.26749(14)
H19_5 H 0.6801 0.8400 0.2880
H20_5 H 0.1600 0.3199 0.2880
C41_5 C 0.6595(3) 0.8297(2) 0.20673(17)
C42_5 C 0.1703(2) 0.3405(3) 0.20673(17)
H21_5 H 0.6539 0.8269 0.1861
H22_5 H 0.1731 0.3461 0.1861
C43_5 C 0.5881(4) 0.7940(3) 0.22451(17)
C44_5 C 0.2060(3) 0.4119(4) 0.22451(17)
H23_5 H 0.5351 0.7675 0.2157
H24_5 H 0.2325 0.4649 0.2157
C45_5 C 0.59525(27) 0.79762(19) 0.25544(14)
C46_5 C 0.20238(19) 0.40475(27) 0.25544(14)
C47_5 C 0.51771(27) 0.75885(19) 0.27441(14)
C48_5 C 0.24115(19) 0.48229(27) 0.27441(14)
C15_3 C 0.8506(2) 0.4252(4) 0.44113(16)
C17_3 C 0.9275(2) 0.4636(4) 0.42172(17)
C20_3 C 0.9631(4) 0.4166(4) 0.41234(17)
C21_3 C 0.9631(4) 0.5464(6) 0.41234(17)
H8_3 H 0.9390 0.3606 0.4179
H9_3 H 0.9390 0.5783 0.4179
Zn18_3 Zn 0.724645(18) 0.449291(25) 0.472760(14)
O29_3 O 0.8214(2) 0.3502(2) 0.44838(9)
O30_3 O 0.8214(2) 0.4711(3) 0.44838(9)
O37_4 O 0.9831(2) 0.1378(3) 0.11505(9)
Zn2_9 Zn 0.0000 -0.0000 0.61011(2)
O1_9 O 0.0000 -0.0000 0.65368(13)
O9_6 O 0.19547(21) 0.09774(15) 0.63550(10)
O11_6 O 0.11481(21) 0.05741(15) 0.59492(11)
Zn9_12 Zn 0.6666 0.3334 0.53088(2)
O20_12 O 0.6666 0.3334 0.48767(13)
O22_6 O 0.55197(18) 0.27599(13) 0.54618(10)
O26_6 O 0.47147(20) 0.23574(14) 0.50571(9)
O34_5 O 0.5289(3) 0.3502(2) 0.44838(9)
C33_6 C 0.48301(25) 0.24151(18) 0.53332(14)
C35_6 C 0.40485(27) 0.20243(19) 0.55256(13)
C37_6 C 0.4117(3) 0.2059(2) 0.58290(14)
H17_6 H 0.4645 0.2323 0.5917
C39_6 C 0.3405(3) 0.1703(2) 0.60083(14)
H19_6 H 0.3467 0.1734 0.6214
C41_6 C 0.3261(3) 0.1631(2) 0.54007(17)
H21_6 H 0.3205 0.1603 0.5195
C43_6 C 0.2547(4) 0.1274(3) 0.55785(17)
H23_6 H 0.2017 0.1009 0.5491
C45_6 C 0.26191(27) 0.13096(19) 0.58878(14)
C47_6 C 0.18437(27) 0.09219(19) 0.60775(14)
Zn2_10 Zn 0.0000 1.0000 0.61011(2)
O1_10 O 0.0000 1.0000 0.65368(13)
O18_4 O 0.0163(2) 0.8620(3) 0.69268(9)
O19_4 O 0.1380(3) 0.9837(2) 0.69268(9)
Zn2_11 Zn 1.0000 -0.0000 0.61011(2)
O1_11 O 1.0000 -0.0000 0.65368(13)
O2_6 O 0.90226(15) 0.09774(15) 0.63550(10)
O3_6 O 0.94259(15) 0.05741(15) 0.59492(11)
O6_6 O 0.72401(13) 0.27599(13) 0.54618(10)
O7_6 O 0.76426(14) 0.23574(14) 0.50571(9)
C7_6 C 0.75849(18) 0.24151(18) 0.53332(14)
C8_6 C 0.79757(19) 0.20243(19) 0.55256(13)
C9_6 C 0.7941(2) 0.2059(2) 0.58290(14)
H3_6 H 0.7677 0.2323 0.5917
C10_6 C 0.8297(2) 0.1703(2) 0.60083(14)
H4_6 H 0.8266 0.1734 0.6214
C11_6 C 0.8369(2) 0.1631(2) 0.54007(17)
H5_6 H 0.8397 0.1603 0.5195
C12_6 C 0.8726(3) 0.1274(3) 0.55785(17)
H6_6 H 0.8991 0.1009 0.5491
C13_6 C 0.86904(19) 0.13096(19) 0.58878(14)
C14_6 C 0.90781(19) 0.09219(19) 0.60775(14)
O25_6 O 0.72401(13) 0.44803(18) 0.54618(10)
Zn2_12 Zn 1.0000 1.0000 0.61011(2)
O1_12 O 1.0000 1.0000 0.65368(13)
Zn5_4 Zn 0.942079(18) 0.884159(25) 0.668395(14)
O10_6 O 0.90226(15) 0.80453(21) 0.63550(10)
O12_6 O 0.94259(15) 0.88519(21) 0.59492(11)
O14_4 O 0.8456(2) 0.9837(2) 0.69268(9)
O15_4 O 0.8456(2) 0.8620(3) 0.69268(9)
C15_4 C 0.5172(2) 0.7586(4) 0.77447(16)
C17_4 C 0.5941(2) 0.7970(4) 0.75506(17)
C20_4 C 0.6297(4) 0.7500(4) 0.74568(17)
C21_4 C 0.6297(4) 0.8798(6) 0.74568(17)
H8_4 H 0.6056 0.6940 0.7513
H9_4 H 0.6056 0.9117 0.7513
C25_4 C 0.7012(4) 0.7860(4) 0.72792(16)
C26_4 C 0.7012(4) 0.9153(6) 0.72792(16)
H13_4 H 0.7244 0.7536 0.7218
H14_4 H 0.7244 0.9709 0.7218
C29_4 C 0.7383(2) 0.8692(4) 0.71925(17)
C31_4 C 0.81600(19) 0.9080(4) 0.69983(14)
O27_6 O 0.76426(14) 0.52853(20) 0.50571(9)
O37_5 O 0.6498(2) 0.4711(3) 0.44838(9)
C34_6 C 0.75849(18) 0.51699(25) 0.53332(14)
C36_6 C 0.79757(19) 0.59515(27) 0.55256(13)
C38_6 C 0.7941(2) 0.5883(3) 0.58290(14)
H18_6 H 0.7677 0.5355 0.5917
C40_6 C 0.8297(2) 0.6595(3) 0.60083(14)
H20_6 H 0.8266 0.6533 0.6214
C42_6 C 0.8369(2) 0.6739(3) 0.54007(17)
H22_6 H 0.8397 0.6795 0.5195
C44_6 C 0.8726(3) 0.7453(4) 0.55785(17)
H24_6 H 0.8991 0.7983 0.5491
C46_6 C 0.86904(19) 0.73809(27) 0.58878(14)
C48_6 C 0.90781(19) 0.81563(27) 0.60775(14)
C16_8 C 0.2413(4) 0.7586(4) 0.77447(16)
C18_8 C 0.2028(4) 0.7970(4) 0.75506(17)
C22_8 C 0.1202(6) 0.7500(4) 0.74568(17)
C23_8 C 0.2500(7) 0.8798(6) 0.74568(17)
H10_8 H 0.0883 0.6940 0.7513
H11_8 H 0.3060 0.9117 0.7513
C27_8 C 0.0847(6) 0.7860(4) 0.72792(16)
C28_8 C 0.2140(7) 0.9153(6) 0.72792(16)
H15_8 H 0.0291 0.7536 0.7218
H16_8 H 0.2464 0.9709 0.7218
C30_8 C 0.1308(4) 0.8692(4) 0.71925(17)
C32_8 C 0.09196(44) 0.9080(4) 0.69983(14)
C1_5 C 0.9080(4) 0.0919(4) 0.10780(16)
C2_5 C 0.8695(4) 0.1303(4) 0.08839(17)
C3_5 C 0.7869(6) 0.0833(4) 0.07901(17)
H1_5 H 0.7550 0.0273 0.0846
C4_5 C 0.7514(6) 0.1193(4) 0.06125(16)
H2_5 H 0.6958 0.0869 0.0551
C5_5 C 0.7975(4) 0.2025(4) 0.05258(17)
C6_5 C 0.75863(44) 0.2413(4) 0.03316(14)
C19_5 C 0.9167(7) 0.2131(6) 0.07901(17)
H7_5 H 0.9727 0.2450 0.0846
C24_5 C 0.8807(7) 0.2486(6) 0.06125(16)
H12_5 H 0.9131 0.3042 0.0551
C16_9 C 0.5747(4) 0.4252(4) 0.44113(16)
C18_9 C 0.5362(4) 0.4636(4) 0.42172(17)
C22_9 C 0.4536(6) 0.4166(4) 0.41234(17)
C23_9 C 0.5834(7) 0.5464(6) 0.41234(17)
H10_9 H 0.4217 0.3606 0.4179
H11_9 H 0.6394 0.5783 0.4179
C27_9 C 0.4181(6) 0.4526(4) 0.39458(16)
C28_9 C 0.5474(7) 0.5819(6) 0.39458(16)
H15_9 H 0.3625 0.4202 0.3884
H16_9 H 0.5798 0.6375 0.3884
C30_9 C 0.4642(4) 0.5358(4) 0.38591(17)
C32_9 C 0.42530(44) 0.5746(4) 0.36649(14)
loop_
_geom_bond_atom_site_label_1
_geom_bond_atom_site_label_2
_geom_bond_site_symmetry_1
_geom_bond_site_symmetry_2
Zn9 O20 1_555 1_555
Zn11 O20 1_555 1_555
O22 Zn9 1_555 1_555
O26 Zn11 1_555 1_555
O34 Zn11 1_555 1_555
O35 Zn11 1_555 1_555
C33 O22 1_555 1_555
C35 C33 1_555 1_555
C37 C35 1_555 1_555
H17 C37 1_555 1_555
C39 C37 1_555 1_555
H19 C39 1_555 1_555
O26 C33 1_555 1_555
Zn2 O1 1_555 1_555
O3 Zn2 1_555 1_555
Zn4 O20 1_555 1_555
O6 Zn9 1_555 1_555
O7 Zn4 1_555 1_555
C7 O6 1_555 1_555
C8 C7 1_555 1_555
C9 C8 1_555 1_555
H3 C9 1_555 1_555
C10 C9 1_555 1_555
H4 C10 1_555 1_555
C11 C8 1_555 1_555
H5 C11 1_555 1_555
C12 C11 1_555 1_555
H6 C12 1_555 1_555
C13 C10 1_555 1_555
C14 O2 1_555 1_555
Zn8 O17 1_555 1_555
O10 C48 1_555 1_555
O11 Zn2 1_555 1_555
O12 Zn2 1_555 1_555
O16 C32 1_555 1_555
O17 C32 1_555 1_555
C16 C18 1_555 1_555
C18 C22 1_555 1_555
C22 H10 1_555 1_555
C23 C18 1_555 1_555
H11 C23 1_555 1_555
C27 C22 1_555 1_555
C28 C23 1_555 1_555
H15 C27 1_555 1_555
H16 C28 1_555 1_555
C30 C27 1_555 1_555
C32 C30 1_555 1_555
Zn14 O20 1_555 1_555
O25 Zn9 1_555 1_555
O31 Zn4 1_555 1_555
O35 C16 1_555 1_555
O33 Zn4 1_555 1_555
H21 C41 1_555 1_555
H22 C42 1_555 1_555
C43 C41 1_555 1_555
C44 C42 1_555 1_555
H23 C43 1_555 1_555
H24 C44 1_555 1_555
C47 O9 1_555 1_555
C48 O12 1_555 1_555
O3 C14 1_555 1_555
O7 C7 1_555 1_555
C12 C13 1_555 1_555
C13 C14 1_555 1_555
O11 C47 1_555 1_555
C16 O31 1_555 1_555
C28 C30 1_555 1_555
C43 C45 1_555 1_555
C44 C46 1_555 1_555
C45 C47 1_555 1_555
C46 C48 1_555 1_555
O4 Zn1 1_555 1_555
C1 C2 1_555 1_555
C2 C3 1_555 1_555
C3 H1 1_555 1_555
C4 C3 1_555 1_555
H2 C4 1_555 1_555
C5 C4 1_555 1_555
C6 O4 1_555 1_555
O8 C1 1_555 1_555
O13 C6 1_555 1_555
O14 Zn1 1_555 1_555
O15 Zn5 1_555 1_555
O18 Zn5 1_555 1_555
O19 Zn6 1_555 1_555
C15 C17 1_555 1_555
C17 C20 1_555 1_555
C19 C2 1_555 1_555
C20 H8 1_555 1_555
C21 C17 1_555 1_555
H7 C19 1_555 1_555
H9 C21 1_555 1_555
C24 C5 1_555 1_555
C25 C20 1_555 1_555
C26 C21 1_555 1_555
H12 C24 1_555 1_555
H13 C25 1_555 1_555
H14 C26 1_555 1_555
C29 C25 1_555 1_555
C31 O14 1_555 1_555
Zn16 O28 1_555 1_555
Zn18 O30 1_555 1_555
O28 C1 1_555 1_555
O29 C15 1_555 1_555
O30 C15 1_555 1_555
C5 C6 1_555 1_555
Zn6 O13 1_555 1_555
O15 C31 1_555 1_555
C19 C24 1_555 1_555
C26 C29 1_555 1_555
C29 C31 1_555 1_555
O27 Zn14 1_555 1_555
O36 Zn14 1_555 1_555
O37 Zn14 1_555 1_555
C34 O25 1_555 1_555
C36 C34 1_555 1_555
C38 C36 1_555 1_555
H18 C38 1_555 1_555
C40 C38 1_555 1_555
H20 C40 1_555 1_555
O27 C34 1_555 1_555
O16_2 C32_2 1_555 1_555
O17_2 C32_2 1_555 1_555
C16_2 C18_2 1_555 1_555
C18_2 C22_2 1_555 1_555
C22_2 H10_2 1_555 1_555
C23_2 C18_2 1_555 1_555
H11_2 C23_2 1_555 1_555
C27_2 C22_2 1_555 1_555
C28_2 C23_2 1_555 1_555
H15_2 C27_2 1_555 1_555
H16_2 C28_2 1_555 1_555
C30_2 C27_2 1_555 1_555
C32_2 C30_2 1_555 1_555
O37 C16_2 1_555 1_555
C16_2 O34 1_555 1_555
C28_2 C30_2 1_555 1_555
C1_2 C2_2 1_555 1_555
C2_2 C3_2 1_555 1_555
C3_2 H1_2 1_555 1_555
C4_2 C3_2 1_555 1_555
H2_2 C4_2 1_555 1_555
C5_2 C4_2 1_555 1_555
C6_2 O19 1_555 1_555
O8_2 C1_2 1_555 1_555
O18 C6_2 1_555 1_555
C19_2 C2_2 1_555 1_555
H7_2 C19_2 1_555 1_555
C24_2 C5_2 1_555 1_555
H12_2 C24_2 1_555 1_555
O28_2 C1_2 1_555 1_555
C5_2 C6_2 1_555 1_555
C19_2 C24_2 1_555 1_555
Zn8_2 O16_3 1_555 1_555
O16_3 C32_3 1_555 1_555
O17_3 C32_3 1_555 1_555
C16_3 C18_3 1_555 1_555
C18_3 C22_3 1_555 1_555
C22_3 H10_3 1_555 1_555
C23_3 C18_3 1_555 1_555
H11_3 C23_3 1_555 1_555
C27_3 C22_3 1_555 1_555
C28_3 C23_3 1_555 1_555
H15_3 C27_3 1_555 1_555
H16_3 C28_3 1_555 1_555
C30_3 C27_3 1_555 1_555
C32_3 C30_3 1_555 1_555
O33 C16_3 1_555 1_555
C16_3 O36 1_555 1_555
C28_3 C30_3 1_555 1_555
Zn2_2 O1_2 1_555 1_555
Zn8 O1_2 1_555 1_555
O9_2 Zn8 1_555 1_555
O11_2 Zn2_2 1_555 1_555
Zn9_2 O20_2 1_555 1_555
Zn11_2 O20_2 1_555 1_555
O22_2 Zn9_2 1_555 1_555
O26_2 Zn11_2 1_555 1_555
O34_2 Zn11_2 1_555 1_555
O35_2 Zn11_2 1_555 1_555
C33_2 O22_2 1_555 1_555
C35_2 C33_2 1_555 1_555
C37_2 C35_2 1_555 1_555
H17_2 C37_2 1_555 1_555
C39_2 C37_2 1_555 1_555
H19_2 C39_2 1_555 1_555
C41_2 C35_2 1_555 1_555
H21_2 C41_2 1_555 1_555
C43_2 C41_2 1_555 1_555
H23_2 C43_2 1_555 1_555
C45_2 C39_2 1_555 1_555
C47_2 O9_2 1_555 1_555
O11_2 C47_2 1_555 1_555
O26_2 C33_2 1_555 1_555
C43_2 C45_2 1_555 1_555
C45_2 C47_2 1_555 1_555
Zn7 O1_3 1_555 1_555
Zn2_3 O1_3 1_555 1_555
O2_2 Zn7 1_555 1_555
O3_2 Zn2_3 1_555 1_555
Zn4_2 O20_2 1_555 1_555
O6_2 Zn9_2 1_555 1_555
O7_2 Zn4_2 1_555 1_555
C7_2 O6_2 1_555 1_555
C8_2 C7_2 1_555 1_555
C9_2 C8_2 1_555 1_555
H3_2 C9_2 1_555 1_555
C10_2 C9_2 1_555 1_555
H4_2 C10_2 1_555 1_555
C11_2 C8_2 1_555 1_555
H5_2 C11_2 1_555 1_555
C12_2 C11_2 1_555 1_555
H6_2 C12_2 1_555 1_555
C13_2 C10_2 1_555 1_555
C14_2 O2_2 1_555 1_555
C16_4 C18_4 1_555 1_555
C18_4 C22_4 1_555 1_555
C22_4 H10_4 1_555 1_555
C23_4 C18_4 1_555 1_555
H11_4 C23_4 1_555 1_555
Zn14_2 O20_2 1_555 1_555
O25_2 Zn9_2 1_555 1_555
O31_2 Zn4_2 1_555 1_555
O35_2 C16_4 1_555 1_555
O33_2 Zn4_2 1_555 1_555
O3_2 C14_2 1_555 1_555
O7_2 C7_2 1_555 1_555
C12_2 C13_2 1_555 1_555
C13_2 C14_2 1_555 1_555
C16_4 O31_2 1_555 1_555
Zn2_4 O1_4 1_555 1_555
Zn2_5 O1_5 1_555 1_555
O1_5 Zn8_2 1_555 1_555
Zn8_2 O10_2 1_555 1_555
Zn7_2 O16_4 1_555 1_555
Zn8_3 O17_4 1_555 1_555
O10_2 C48_2 1_555 1_555
O12_2 Zn2_5 1_555 1_555
O16_4 C32_4 1_555 1_555
O17_4 C32_4 1_555 1_555
H15_4 C27_4 1_555 1_555
H16_4 C28_4 1_555 1_555
C30_4 C27_4 1_555 1_555
C32_4 C30_4 1_555 1_555
O27_2 Zn14_2 1_555 1_555
O36_2 Zn14_2 1_555 1_555
O37_2 Zn14_2 1_555 1_555
C34_2 O25_2 1_555 1_555
C36_2 C34_2 1_555 1_555
C38_2 C36_2 1_555 1_555
H18_2 C38_2 1_555 1_555
C40_2 C38_2 1_555 1_555
H20_2 C40_2 1_555 1_555
C42_2 C36_2 1_555 1_555
H22_2 C42_2 1_555 1_555
C44_2 C42_2 1_555 1_555
H24_2 C44_2 1_555 1_555
C46_2 C40_2 1_555 1_555
C48_2 O12_2 1_555 1_555
C28_4 C30_4 1_555 1_555
O27_2 C34_2 1_555 1_555
C44_2 C46_2 1_555 1_555
C46_2 C48_2 1_555 1_555
Zn8_3 O16_5 1_555 1_555
Zn8_4 O17_5 1_555 1_555
O16_5 C32_5 1_555 1_555
O17_5 C32_5 1_555 1_555
C16_5 C18_5 1_555 1_555
C18_5 C22_5 1_555 1_555
C22_5 H10_5 1_555 1_555
C23_5 C18_5 1_555 1_555
H11_5 C23_5 1_555 1_555
C27_5 C22_5 1_555 1_555
C28_5 C23_5 1_555 1_555
H15_5 C27_5 1_555 1_555
H16_5 C28_5 1_555 1_555
C30_5 C27_5 1_555 1_555
C32_5 C30_5 1_555 1_555
O37_2 C16_5 1_555 1_555
C16_5 O34_2 1_555 1_555
C28_5 C30_5 1_555 1_555
Zn8_4 O16_6 1_555 1_555
Zn7_2 O17_6 1_555 1_555
O16_6 C32_6 1_555 1_555
O17_6 C32_6 1_555 1_555
H15_6 C27_6 1_555 1_555
H16_6 C28_6 1_555 1_555
C30_6 C27_6 1_555 1_555
C32_6 C30_6 1_555 1_555
C28_6 C30_6 1_555 1_555
C16_6 C18_6 1_555 1_555
C18_6 C22_6 1_555 1_555
C22_6 H10_6 1_555 1_555
C23_6 C18_6 1_555 1_555
H11_6 C23_6 1_555 1_555
O33_2 C16_6 1_555 1_555
C16_6 O36_2 1_555 1_555
Zn9_3 O20_3 1_555 1_555
Zn9_4 O20_4 1_555 1_555
Zn18 O20_3 1_555 1_555
O25_3 Zn9_3 1_555 1_555
Zn9_5 O20_5 1_555 1_555
Zn7_2 O1_6 1_555 1_555
Zn2_6 O1_6 1_555 1_555
O1_6 Zn8_4 1_555 1_555
O2_3 Zn7_2 1_555 1_555
O3_3 Zn2_6 1_555 1_555
Zn15 O20_5 1_555 1_555
O6_3 Zn9_5 1_555 1_555
O7_3 Zn15 1_555 1_555
C7_3 O6_3 1_555 1_555
C8_3 C7_3 1_555 1_555
C9_3 C8_3 1_555 1_555
H3_3 C9_3 1_555 1_555
C10_3 C9_3 1_555 1_555
H4_3 C10_3 1_555 1_555
C11_3 C8_3 1_555 1_555
H5_3 C11_3 1_555 1_555
C12_3 C11_3 1_555 1_555
H6_3 C12_3 1_555 1_555
C13_3 C10_3 1_555 1_555
C14_3 O2_3 1_555 1_555
Zn8_4 O10_3 1_555 1_555
Zn8_3 O1_6 1_555 1_555
O9_3 Zn8_3 1_555 1_555
O10_3 C48_3 1_555 1_555
O11_3 Zn2_6 1_555 1_555
O12_3 Zn2_6 1_555 1_555
Zn9_6 O20_6 1_555 1_555
Zn16 O20_6 1_555 1_555
O22_3 Zn9_6 1_555 1_555
O26_3 Zn16 1_555 1_555
O27_3 Zn18 1_555 1_555
C33_3 O22_3 1_555 1_555
C34_3 O25_3 1_555 1_555
C35_3 C33_3 1_555 1_555
C36_3 C34_3 1_555 1_555
C37_3 C35_3 1_555 1_555
C38_3 C36_3 1_555 1_555
H17_3 C37_3 1_555 1_555
H18_3 C38_3 1_555 1_555
C39_3 C37_3 1_555 1_555
C40_3 C38_3 1_555 1_555
H19_3 C39_3 1_555 1_555
H20_3 C40_3 1_555 1_555
C41_3 C35_3 1_555 1_555
C42_3 C36_3 1_555 1_555
H21_3 C41_3 1_555 1_555
H22_3 C42_3 1_555 1_555
C43_3 C41_3 1_555 1_555
C44_3 C42_3 1_555 1_555
H23_3 C43_3 1_555 1_555
H24_3 C44_3 1_555 1_555
C45_3 C39_3 1_555 1_555
C46_3 C40_3 1_555 1_555
C47_3 O9_3 1_555 1_555
C48_3 O12_3 1_555 1_555
O3_3 C14_3 1_555 1_555
O7_3 C7_3 1_555 1_555
C12_3 C13_3 1_555 1_555
C13_3 C14_3 1_555 1_555
O11_3 C47_3 1_555 1_555
O26_3 C33_3 1_555 1_555
O27_3 C34_3 1_555 1_555
C43_3 C45_3 1_555 1_555
C44_3 C46_3 1_555 1_555
C45_3 C47_3 1_555 1_555
C46_3 C48_3 1_555 1_555
Zn9_7 O20_7 1_555 1_555
Zn11_3 O20_7 1_555 1_555
O22_4 Zn9_7 1_555 1_555
O26_4 Zn11_3 1_555 1_555
O34_3 Zn11_3 1_555 1_555
O35_3 Zn11_3 1_555 1_555
C33_4 O22_4 1_555 1_555
C35_4 C33_4 1_555 1_555
C37_4 C35_4 1_555 1_555
H17_4 C37_4 1_555 1_555
C39_4 C37_4 1_555 1_555
H19_4 C39_4 1_555 1_555
O26_4 C33_4 1_555 1_555
O4_2 Zn1_2 1_555 1_555
C1_3 C2_3 1_555 1_555
C2_3 C3_3 1_555 1_555
C3_3 H1_3 1_555 1_555
C4_3 C3_3 1_555 1_555
H2_3 C4_3 1_555 1_555
C5_3 C4_3 1_555 1_555
C6_3 O4_2 1_555 1_555
O8_3 C1_3 1_555 1_555
O13_2 C6_3 1_555 1_555
O14_2 Zn1_2 1_555 1_555
O15_2 Zn5_2 1_555 1_555
O18_2 Zn5_2 1_555 1_555
O19_2 Zn6_2 1_555 1_555
C15_2 C17_2 1_555 1_555
C17_2 C20_2 1_555 1_555
C19_3 C2_3 1_555 1_555
C20_2 H8_2 1_555 1_555
C21_2 C17_2 1_555 1_555
H7_3 C19_3 1_555 1_555
H9_2 C21_2 1_555 1_555
C24_3 C5_3 1_555 1_555
C25_2 C20_2 1_555 1_555
C26_2 C21_2 1_555 1_555
H12_3 C24_3 1_555 1_555
H13_2 C25_2 1_555 1_555
H14_2 C26_2 1_555 1_555
C29_2 C25_2 1_555 1_555
C31_2 O14_2 1_555 1_555
Zn16_2 O28_3 1_555 1_555
Zn18_2 O30_2 1_555 1_555
O28_3 C1_3 1_555 1_555
O29_2 C15_2 1_555 1_555
O30_2 C15_2 1_555 1_555
C5_3 C6_3 1_555 1_555
Zn6_2 O13_2 1_555 1_555
O15_2 C31_2 1_555 1_555
C19_3 C24_3 1_555 1_555
C26_2 C29_2 1_555 1_555
C29_2 C31_2 1_555 1_555
Zn2_7 O1_7 1_555 1_555
O3_4 Zn2_7 1_555 1_555
Zn4_3 O20_7 1_555 1_555
O6_4 Zn9_7 1_555 1_555
O7_4 Zn4_3 1_555 1_555
C7_4 O6_4 1_555 1_555
C8_4 C7_4 1_555 1_555
C9_4 C8_4 1_555 1_555
H3_4 C9_4 1_555 1_555
C10_4 C9_4 1_555 1_555
H4_4 C10_4 1_555 1_555
C11_4 C8_4 1_555 1_555
H5_4 C11_4 1_555 1_555
C12_4 C11_4 1_555 1_555
H6_4 C12_4 1_555 1_555
C13_4 C10_4 1_555 1_555
C14_4 O2_4 1_555 1_555
Zn8_5 O17_7 1_555 1_555
O10_4 C48_4 1_555 1_555
O11_4 Zn2_7 1_555 1_555
O12_4 Zn2_7 1_555 1_555
O16_7 C32_7 1_555 1_555
O17_7 C32_7 1_555 1_555
C16_7 C18_7 1_555 1_555
C18_7 C22_7 1_555 1_555
C22_7 H10_7 1_555 1_555
C23_7 C18_7 1_555 1_555
H11_7 C23_7 1_555 1_555
C27_7 C22_7 1_555 1_555
C28_7 C23_7 1_555 1_555
H15_7 C27_7 1_555 1_555
H16_7 C28_7 1_555 1_555
C30_7 C27_7 1_555 1_555
C32_7 C30_7 1_555 1_555
Zn14_3 O20_7 1_555 1_555
O25_4 Zn9_7 1_555 1_555
O31_3 Zn4_3 1_555 1_555
O35_3 C16_7 1_555 1_555
O33_3 Zn4_3 1_555 1_555
H21_4 C41_4 1_555 1_555
H22_4 C42_4 1_555 1_555
C43_4 C41_4 1_555 1_555
C44_4 C42_4 1_555 1_555
H23_4 C43_4 1_555 1_555
H24_4 C44_4 1_555 1_555
C47_4 O9_4 1_555 1_555
C48_4 O12_4 1_555 1_555
O3_4 C14_4 1_555 1_555
O7_4 C7_4 1_555 1_555
C12_4 C13_4 1_555 1_555
C13_4 C14_4 1_555 1_555
O11_4 C47_4 1_555 1_555
C16_7 O31_3 1_555 1_555
C28_7 C30_7 1_555 1_555
C43_4 C45_4 1_555 1_555
C44_4 C46_4 1_555 1_555
C45_4 C47_4 1_555 1_555
C46_4 C48_4 1_555 1_555
O27_4 Zn14_3 1_555 1_555
O36_3 Zn14_3 1_555 1_555
O37_3 Zn14_3 1_555 1_555
C34_4 O25_4 1_555 1_555
C36_4 C34_4 1_555 1_555
C38_4 C36_4 1_555 1_555
H18_4 C38_4 1_555 1_555
C40_4 C38_4 1_555 1_555
H20_4 C40_4 1_555 1_555
O27_4 C34_4 1_555 1_555
Zn9_8 O20_8 1_555 1_555
Zn9_9 O20_9 1_555 1_555
C1_4 C2_4 1_555 1_555
C2_4 C3_4 1_555 1_555
C3_4 H1_4 1_555 1_555
O8_4 C1_4 1_555 1_555
C19_4 C2_4 1_555 1_555
H7_4 C19_4 1_555 1_555
Zn9_10 O20_10 1_555 1_555
Zn18_2 O20_8 1_555 1_555
Zn15_3 O8_4 1_555 1_555
Zn16_3 O28_4 1_555 1_555
O25_5 Zn9_8 1_555 1_555
O28_4 C1_4 1_555 1_555
Zn1_3 O1_8 1_555 1_555
Zn2_8 O1_8 1_555 1_555
O1_8 Zn5_3 1_555 1_555
O2_5 Zn1_3 1_555 1_555
O3_5 Zn2_8 1_555 1_555
O4_3 Zn1_3 1_555 1_555
H2_4 C4_4 1_555 1_555
C5_4 C4_4 1_555 1_555
C6_4 O4_3 1_555 1_555
Zn15_2 O20_9 1_555 1_555
O6_5 Zn9_9 1_555 1_555
O7_5 Zn15_2 1_555 1_555
C7_5 O6_5 1_555 1_555
C8_5 C7_5 1_555 1_555
C9_5 C8_5 1_555 1_555
H3_5 C9_5 1_555 1_555
C10_5 C9_5 1_555 1_555
H4_5 C10_5 1_555 1_555
C11_5 C8_5 1_555 1_555
H5_5 C11_5 1_555 1_555
C12_5 C11_5 1_555 1_555
H6_5 C12_5 1_555 1_555
C13_5 C10_5 1_555 1_555
C14_5 O2_5 1_555 1_555
Zn5_3 O10_5 1_555 1_555
Zn6_3 O1_8 1_555 1_555
O9_5 Zn6_3 1_555 1_555
O10_5 C48_5 1_555 1_555
O11_5 Zn2_8 1_555 1_555
O12_5 Zn2_8 1_555 1_555
O13_3 C6_4 1_555 1_555
O14_3 Zn1_3 1_555 1_555
O15_3 Zn5_3 1_555 1_555
O18_3 Zn5_3 1_555 1_555
O19_3 Zn6_3 1_555 1_555
C24_4 C5_4 1_555 1_555
H12_4 C24_4 1_555 1_555
H13_3 C25_3 1_555 1_555
H14_3 C26_3 1_555 1_555
C29_3 C25_3 1_555 1_555
C31_3 O14_3 1_555 1_555
Zn9_11 O20_11 1_555 1_555
Zn16_2 O20_11 1_555 1_555
O22_5 Zn9_11 1_555 1_555
O26_5 Zn16_2 1_555 1_555
O27_5 Zn18_2 1_555 1_555
C33_5 O22_5 1_555 1_555
C34_5 O25_5 1_555 1_555
C35_5 C33_5 1_555 1_555
C36_5 C34_5 1_555 1_555
C37_5 C35_5 1_555 1_555
C38_5 C36_5 1_555 1_555
H17_5 C37_5 1_555 1_555
H18_5 C38_5 1_555 1_555
C39_5 C37_5 1_555 1_555
C40_5 C38_5 1_555 1_555
H19_5 C39_5 1_555 1_555
H20_5 C40_5 1_555 1_555
C41_5 C35_5 1_555 1_555
C42_5 C36_5 1_555 1_555
H21_5 C41_5 1_555 1_555
H22_5 C42_5 1_555 1_555
C43_5 C41_5 1_555 1_555
C44_5 C42_5 1_555 1_555
H23_5 C43_5 1_555 1_555
H24_5 C44_5 1_555 1_555
C45_5 C39_5 1_555 1_555
C46_5 C40_5 1_555 1_555
C47_5 O9_5 1_555 1_555
C48_5 O12_5 1_555 1_555
O3_5 C14_5 1_555 1_555
C5_4 C6_4 1_555 1_555
O7_5 C7_5 1_555 1_555
C12_5 C13_5 1_555 1_555
C13_5 C14_5 1_555 1_555
Zn6_3 O13_3 1_555 1_555
O11_5 C47_5 1_555 1_555
O15_3 C31_3 1_555 1_555
C26_3 C29_3 1_555 1_555
C29_3 C31_3 1_555 1_555
O26_5 C33_5 1_555 1_555
O27_5 C34_5 1_555 1_555
C43_5 C45_5 1_555 1_555
C44_5 C46_5 1_555 1_555
C45_5 C47_5 1_555 1_555
C46_5 C48_5 1_555 1_555
C15_3 C17_3 1_555 1_555
C17_3 C20_3 1_555 1_555
C20_3 H8_3 1_555 1_555
C21_3 C17_3 1_555 1_555
H9_3 C21_3 1_555 1_555
Zn15_3 O29_3 1_555 1_555
Zn18_3 O30_3 1_555 1_555
O29_3 C15_3 1_555 1_555
O30_3 C15_3 1_555 1_555
Zn2_9 O1_9 1_555 1_555
Zn8_5 O1_9 1_555 1_555
O9_6 Zn8_5 1_555 1_555
O11_6 Zn2_9 1_555 1_555
Zn9_12 O20_12 1_555 1_555
Zn16_3 O20_12 1_555 1_555
O22_6 Zn9_12 1_555 1_555
O26_6 Zn16_3 1_555 1_555
O34_5 Zn16_3 1_555 1_555
C33_6 O22_6 1_555 1_555
C35_6 C33_6 1_555 1_555
C37_6 C35_6 1_555 1_555
H17_6 C37_6 1_555 1_555
C39_6 C37_6 1_555 1_555
H19_6 C39_6 1_555 1_555
C41_6 C35_6 1_555 1_555
H21_6 C41_6 1_555 1_555
C43_6 C41_6 1_555 1_555
H23_6 C43_6 1_555 1_555
C45_6 C39_6 1_555 1_555
C47_6 O9_6 1_555 1_555
O11_6 C47_6 1_555 1_555
O26_6 C33_6 1_555 1_555
C43_6 C45_6 1_555 1_555
C45_6 C47_6 1_555 1_555
Zn2_10 O1_10 1_555 1_555
Zn7_3 O1_11 1_555 1_555
Zn2_11 O1_11 1_555 1_555
O2_6 Zn7_3 1_555 1_555
O3_6 Zn2_11 1_555 1_555
Zn15_3 O20_12 1_555 1_555
O6_6 Zn9_12 1_555 1_555
O7_6 Zn15_3 1_555 1_555
C7_6 O6_6 1_555 1_555
C8_6 C7_6 1_555 1_555
C9_6 C8_6 1_555 1_555
H3_6 C9_6 1_555 1_555
C10_6 C9_6 1_555 1_555
H4_6 C10_6 1_555 1_555
C11_6 C8_6 1_555 1_555
H5_6 C11_6 1_555 1_555
C12_6 C11_6 1_555 1_555
H6_6 C12_6 1_555 1_555
C13_6 C10_6 1_555 1_555
C14_6 O2_6 1_555 1_555
Zn18_3 O20_12 1_555 1_555
O25_6 Zn9_12 1_555 1_555
O3_6 C14_6 1_555 1_555
O7_6 C7_6 1_555 1_555
C12_6 C13_6 1_555 1_555
C13_6 C14_6 1_555 1_555
Zn2_12 O1_12 1_555 1_555
O1_12 Zn5_4 1_555 1_555
Zn5_4 O10_6 1_555 1_555
O10_6 C48_6 1_555 1_555
O12_6 Zn2_12 1_555 1_555
O15_4 Zn5_4 1_555 1_555
C15_4 C17_4 1_555 1_555
C17_4 C20_4 1_555 1_555
C20_4 H8_4 1_555 1_555
C21_4 C17_4 1_555 1_555
H9_4 C21_4 1_555 1_555
C25_4 C20_4 1_555 1_555
C26_4 C21_4 1_555 1_555
H13_4 C25_4 1_555 1_555
H14_4 C26_4 1_555 1_555
C29_4 C25_4 1_555 1_555
C31_4 O14_4 1_555 1_555
O27_6 Zn18_3 1_555 1_555
O33_3 C15_4 1_555 1_555
O36_3 C15_4 1_555 1_555
O37_5 Zn18_3 1_555 1_555
C34_6 O25_6 1_555 1_555
C36_6 C34_6 1_555 1_555
C38_6 C36_6 1_555 1_555
H18_6 C38_6 1_555 1_555
C40_6 C38_6 1_555 1_555
H20_6 C40_6 1_555 1_555
C42_6 C36_6 1_555 1_555
H22_6 C42_6 1_555 1_555
C44_6 C42_6 1_555 1_555
H24_6 C44_6 1_555 1_555
C46_6 C40_6 1_555 1_555
C48_6 O12_6 1_555 1_555
O15_4 C31_4 1_555 1_555
C26_4 C29_4 1_555 1_555
C29_4 C31_4 1_555 1_555
O27_6 C34_6 1_555 1_555
C44_6 C46_6 1_555 1_555
C46_6 C48_6 1_555 1_555
O19_4 C32_8 1_555 1_555
O18_4 C32_8 1_555 1_555
C16_8 C18_8 1_555 1_555
C18_8 C22_8 1_555 1_555
C22_8 H10_8 1_555 1_555
C23_8 C18_8 1_555 1_555
H11_8 C23_8 1_555 1_555
C27_8 C22_8 1_555 1_555
C28_8 C23_8 1_555 1_555
H15_8 C27_8 1_555 1_555
H16_8 C28_8 1_555 1_555
C30_8 C27_8 1_555 1_555
C32_8 C30_8 1_555 1_555
O37_3 C16_8 1_555 1_555
C16_8 O34_3 1_555 1_555
C28_8 C30_8 1_555 1_555
C1_5 C2_5 1_555 1_555
C2_5 C3_5 1_555 1_555
C3_5 H1_5 1_555 1_555
C4_5 C3_5 1_555 1_555
H2_5 C4_5 1_555 1_555
C5_5 C4_5 1_555 1_555
C6_5 O19_2 1_555 1_555
O34_4 C1_5 1_555 1_555
O18_2 C6_5 1_555 1_555
C19_5 C2_5 1_555 1_555
H7_5 C19_5 1_555 1_555
C24_5 C5_5 1_555 1_555
H12_5 C24_5 1_555 1_555
O37_4 C1_5 1_555 1_555
C5_5 C6_5 1_555 1_555
C19_5 C24_5 1_555 1_555
O19_3 C32_9 1_555 1_555
O18_3 C32_9 1_555 1_555
C16_9 C18_9 1_555 1_555
C18_9 C22_9 1_555 1_555
C22_9 H10_9 1_555 1_555
C23_9 C18_9 1_555 1_555
H11_9 C23_9 1_555 1_555
C27_9 C22_9 1_555 1_555
C28_9 C23_9 1_555 1_555
H15_9 C27_9 1_555 1_555
H16_9 C28_9 1_555 1_555
C30_9 C27_9 1_555 1_555
C32_9 C30_9 1_555 1_555
O37_5 C16_9 1_555 1_555
C16_9 O34_5 1_555 1_555
C28_9 C30_9 1_555 1_555

#END
