
###############################################################################
#
# This file contains modified crystal structure data generated from the
# MOF subset of the Cambridge Structural Database (CSD) v543 
# hosted by the Cambridge Crystallographic Data Centre (CCDC).
#
# This work is licensed under the Creative Commons
# Attribution-NonCommercial-ShareAlike 4.0 International License.
# To view a copy of this license, visit
# http://creativecommons.org/licenses/by-nc-sa/4.0/
# or send a letter to
# Creative Commons, PO Box 1866, Mountain View, CA 94042, USA.
#
# CIF created using the CSD Python API on 29 September 2022
# The structure has been converted into the P1 space group
# The structure has a 3D framework
# The original CSD entry HIFTOG01 is in the rhombohedral crystal system
# The framework has been calculated to contain at least 10.0% void space
# The void calculation uses a probe of radius 1.32A, grid spacing 0.4
#
###############################################################################

data_HIFTOG01
_chemical_formula_moiety         '(C144 H72 O84 Zn30)n'
_symmetry_cell_setting           triclinic
_symmetry_space_group_name_H-M   'P 1'
_symmetry_Int_Tables_number      1
_space_group_name_Hall           'P 1'
loop_
_symmetry_equiv_pos_site_id
_symmetry_equiv_pos_as_xyz
1 x,y,z
_cell_length_a                   18.406(3)
_cell_length_b                   18.406(3)
_cell_length_c                   44.750(9)
_cell_angle_alpha                90
_cell_angle_beta                 90
_cell_angle_gamma                120
_cell_volume                     13129.3
loop_
_atom_site_label
_atom_site_type_symbol
_atom_site_fract_x
_atom_site_fract_y
_atom_site_fract_z
Zn10 Zn -0.0000 0.0000 0.20609(6)
Zn6 Zn 0.27575(5) 0.55150(7) 0.93102(3)
Zn7 Zn 0.27575(5) 0.72425(5) 0.93102(3)
O12 O 0.1806(5) 0.5271(7) 0.95469(19)
O13 O 0.1806(5) 0.6535(5) 0.95469(19)
C12 C 0.1482(11) 0.5741(5) 0.9635(4)
C15 C 0.0783(11) 0.5392(13) 0.9816(4)
C18 C 0.0372(7) 0.5854(11) 0.9905(3)
C19 C 0.0372(7) 0.4518(8) 0.9905(3)
H7 H 0.0588 0.4185 0.9838
H8 H 0.0588 0.6403 0.9838
Zn10_2 Zn -0.0000 1.0000 0.20609(6)
O1 O 0.6667 0.3333 0.0818(3)
Zn1 Zn 0.72425(5) 0.27575(5) 0.06898(3)
Zn2 Zn 0.6667 0.3333 0.12724(6)
O2 O 0.7227(4) 0.2773(4) 0.1432(2)
O3 O 0.7648(3) 0.2352(3) 0.1014(3)
O4 O 0.8194(5) 0.3465(5) 0.04531(19)
C1 C 0.7596(5) 0.2404(5) 0.1291(4)
C2 C 0.7967(5) 0.2033(5) 0.1494(4)
C3 C 0.8353(6) 0.1647(6) 0.1353(4)
H1 H 0.8366 0.1634 0.1146
C4 C 0.7936(6) 0.2064(6) 0.1812(5)
H2 H 0.7676 0.2324 0.1907
C5 C 0.8518(11) 0.4259(5) 0.0365(4)
C6 C 0.9217(11) 0.4609(6) 0.0184(4)
C7 C 0.9628(7) 0.5482(8) 0.0095(3)
H3 H 0.9412 0.5815 0.0162
Zn3 Zn 0.55150(7) 0.27575(5) 0.06898(3)
Zn4 Zn 0.72425(5) 0.44850(7) 0.06898(3)
Zn5 Zn 0.94242(5) 0.05758(5) 0.26435(3)
Zn10_3 Zn 1.0000 0.0000 0.20609(6)
O5 O 0.9440(4) 0.0560(4) 0.1901(2)
O6 O 0.7227(4) 0.4454(6) 0.1432(2)
O7 O 0.5546(6) 0.2773(4) 0.1432(2)
O8 O 0.9019(3) 0.0981(3) 0.2319(3)
O9 O 0.7648(3) 0.5296(4) 0.1014(3)
O10 O 0.4704(4) 0.2352(3) 0.1014(3)
O11 O 0.8194(5) 0.4729(7) 0.04531(19)
O14 O 0.6535(5) 0.1806(5) 0.04531(19)
O15 O 0.5271(7) 0.1806(5) 0.04531(19)
O18 O 0.5271(7) 0.3465(5) 0.04531(19)
O19 O 0.6535(5) 0.4729(7) 0.04531(19)
C8 C 0.9071(5) 0.0929(5) 0.2042(4)
C9 C 0.8700(5) 0.1300(5) 0.1839(4)
C10 C 0.8314(6) 0.1686(6) 0.1980(4)
H4 H 0.8301 0.1699 0.2187
C11 C 0.8731(6) 0.1269(6) 0.1521(5)
H5 H 0.8991 0.1009 0.1426
C13 C 0.5741(12) 0.1482(11) 0.0365(4)
C16 C 0.5391(6) 0.0783(11) 0.0184(4)
C20 C 0.9628(7) 0.4146(11) 0.0095(3)
C21 C 0.4518(8) 0.0372(7) 0.0095(3)
C24 C 0.5854(11) 0.0372(7) 0.0095(3)
H6 H 0.9412 0.3597 0.0162
H9 H 0.4185 0.0588 0.0162
H10 H 0.6403 0.0588 0.0162
Zn10_4 Zn 1.0000 1.0000 0.20609(6)
Zn8 Zn 0.44850(7) 0.72425(5) 0.93102(3)
O16 O 0.4729(7) 0.8194(5) 0.95469(19)
O17 O 0.3465(5) 0.8194(5) 0.95469(19)
C14 C 0.4259(5) 0.8518(11) 0.9635(4)
C17 C 0.4608(13) 0.9217(11) 0.9816(4)
C22 C 0.4146(11) 0.9628(7) 0.9905(3)
C23 C 0.5482(8) 0.9628(7) 0.9905(3)
H11 H 0.5815 0.9412 0.9838
H12 H 0.3597 0.9412 0.9838
C1_2 C 0.7596(5) 0.5192(7) 0.1291(4)
C2_2 C 0.7967(5) 0.5934(7) 0.1494(4)
C3_2 C 0.8353(6) 0.6706(8) 0.1353(4)
H1_2 H 0.8366 0.6732 0.1146
C4_2 C 0.7936(6) 0.5872(8) 0.1812(5)
H2_2 H 0.7676 0.5352 0.1907
C5_2 C 0.5741(5) 0.4259(12) 0.0365(4)
C6_2 C 0.5391(6) 0.4608(13) 0.0184(4)
C7_2 C 0.4518(8) 0.4146(11) 0.0095(3)
H3_2 H 0.4185 0.3597 0.0162
Zn5_2 Zn 0.94242(5) 0.88483(7) 0.26435(3)
O5_2 O 0.9440(4) 0.8879(6) 0.1901(2)
O8_2 O 0.9019(3) 0.8037(4) 0.2319(3)
C8_2 C 0.9071(5) 0.8141(7) 0.2042(4)
C9_2 C 0.8700(5) 0.7399(7) 0.1839(4)
C10_2 C 0.8314(6) 0.6627(8) 0.1980(4)
H4_2 H 0.8301 0.6601 0.2187
C11_2 C 0.8731(6) 0.7461(8) 0.1521(5)
H5_2 H 0.8991 0.7981 0.1426
C20_2 C 0.5854(11) 0.5482(13) 0.0095(3)
H6_2 H 0.6403 0.5815 0.0162
O12_2 O 0.4729(7) 0.6535(9) 0.95469(19)
O13_2 O 0.3465(5) 0.5271(7) 0.95469(19)
C12_2 C 0.4259(5) 0.5741(12) 0.9635(4)
C15_2 C 0.4608(13) 0.5391(17) 0.9816(4)
C18_2 C 0.4146(11) 0.4518(13) 0.9905(3)
C19_2 C 0.5482(8) 0.5854(11) 0.9905(3)
H7_2 H 0.5815 0.6403 0.9838
H8_2 H 0.3597 0.4185 0.9838
C1_3 C 0.4808(7) 0.2404(5) 0.1291(4)
C2_3 C 0.4066(7) 0.2033(5) 0.1494(4)
C3_3 C 0.3294(8) 0.1647(6) 0.1353(4)
H1_3 H 0.3268 0.1634 0.1146
C4_3 C 0.4128(8) 0.2064(6) 0.1812(5)
H2_3 H 0.4648 0.2324 0.1907
Zn5_3 Zn 0.11517(7) 0.05758(5) 0.26435(3)
O5_3 O 0.1121(6) 0.0560(4) 0.1901(2)
O8_3 O 0.1963(4) 0.0981(3) 0.2319(3)
C8_3 C 0.1859(7) 0.0929(5) 0.2042(4)
C9_3 C 0.2601(7) 0.1300(5) 0.1839(4)
C10_3 C 0.3373(8) 0.1686(6) 0.1980(4)
H4_3 H 0.3399 0.1699 0.2187
C11_3 C 0.2539(8) 0.1269(6) 0.1521(5)
H5_3 H 0.2019 0.1009 0.1426
Zn10_5 Zn 0.0000 -0.0000 0.79391(6)
O1_2 O 0.3333 0.6667 0.9182(3)
Zn2_2 Zn 0.3333 0.6667 0.87276(6)
O2_2 O 0.2773(4) 0.7227(4) 0.8568(2)
O3_2 O 0.2352(3) 0.7648(3) 0.8986(3)
C1_4 C 0.2404(5) 0.7596(5) 0.8709(4)
C2_4 C 0.2033(5) 0.7967(5) 0.8506(4)
C3_4 C 0.1647(6) 0.8353(6) 0.8647(4)
H1_4 H 0.1634 0.8366 0.8854
C4_4 C 0.2064(6) 0.7936(6) 0.8188(5)
H2_4 H 0.2324 0.7676 0.8093
Zn5_4 Zn 0.05758(5) 0.94242(5) 0.73565(3)
Zn10_6 Zn 0.0000 1.0000 0.79391(6)
O5_4 O 0.0560(4) 0.9440(4) 0.8099(2)
O6_2 O 0.4454(6) 0.7227(4) 0.8568(2)
O7_2 O 0.2773(4) 0.5546(6) 0.8568(2)
O8_4 O 0.0981(3) 0.9019(3) 0.7681(3)
O9_2 O 0.5296(4) 0.7648(3) 0.8986(3)
O10_2 O 0.2352(3) 0.4704(4) 0.8986(3)
C8_4 C 0.0929(5) 0.9071(5) 0.7958(4)
C9_4 C 0.1300(5) 0.8700(5) 0.8161(4)
C10_4 C 0.1686(6) 0.8314(6) 0.8020(4)
H4_4 H 0.1699 0.8301 0.7813
C11_4 C 0.1269(6) 0.8731(6) 0.8479(5)
H5_4 H 0.1009 0.8991 0.8574
Zn10_7 Zn 1.0000 -0.0000 0.79391(6)
Zn10_8 Zn 1.0000 1.0000 0.79391(6)
O1_3 O 0.3334 0.6666 0.4151(3)
Zn1_2 Zn 0.39092(5) 0.60908(5) 0.40231(3)
Zn2_3 Zn 0.3334 0.6666 0.46057(6)
O2_3 O 0.3894(4) 0.6106(4) 0.4765(2)
O3_3 O 0.4315(3) 0.5685(3) 0.4347(3)
O4_2 O 0.4861(5) 0.6798(5) 0.37864(19)
C1_5 C 0.4263(5) 0.5737(5) 0.4624(4)
C2_5 C 0.4634(5) 0.5366(5) 0.4827(4)
C3_5 C 0.5020(6) 0.4980(6) 0.4686(4)
H1_5 H 0.5033 0.4967 0.4479
C4_5 C 0.4603(6) 0.5397(6) 0.5145(5)
H2_5 H 0.4343 0.5657 0.5240
C5_3 C 0.5185(11) 0.7592(5) 0.3698(4)
C6_3 C 0.5884(11) 0.7942(6) 0.3517(4)
C7_3 C 0.6295(7) 0.8815(8) 0.3428(3)
H3_3 H 0.6079 0.9148 0.3495
Zn3_2 Zn 0.21817(7) 0.60908(5) 0.40231(3)
Zn4_2 Zn 0.39092(5) 0.78183(7) 0.40231(3)
Zn5_5 Zn 0.60908(5) 0.39092(5) 0.59769(3)
Zn10_9 Zn 0.6666 0.3334 0.53943(6)
O5_5 O 0.6106(4) 0.3894(4) 0.5235(2)
O6_3 O 0.3894(4) 0.7787(6) 0.4765(2)
O7_3 O 0.2213(6) 0.6106(4) 0.4765(2)
O8_5 O 0.5685(3) 0.4315(3) 0.5653(3)
O9_3 O 0.4315(3) 0.8629(4) 0.4347(3)
O10_3 O 0.1371(4) 0.5685(3) 0.4347(3)
O11_2 O 0.4861(5) 0.8062(7) 0.37864(19)
O12_3 O 0.8473(5) 0.8604(7) 0.28802(19)
O13_3 O 0.8473(5) 0.9868(5) 0.28802(19)
O14_2 O 0.3202(5) 0.5139(5) 0.37864(19)
O15_2 O 0.1938(7) 0.5139(5) 0.37864(19)
O16_2 O 0.1396(7) 0.1527(5) 0.28802(19)
O17_2 O 0.0132(5) 0.1527(5) 0.28802(19)
O18_2 O 0.1938(7) 0.6798(5) 0.37864(19)
O19_2 O 0.3202(5) 0.8062(7) 0.37864(19)
C8_5 C 0.5737(5) 0.4263(5) 0.5376(4)
C9_5 C 0.5366(5) 0.4634(5) 0.5173(4)
C10_5 C 0.4980(6) 0.5020(6) 0.5314(4)
H4_5 H 0.4967 0.5033 0.5521
C11_5 C 0.5397(6) 0.4603(6) 0.4855(5)
H5_5 H 0.5657 0.4343 0.4760
C12_3 C 0.8149(11) 0.9074(5) 0.2968(4)
C13_2 C 0.2408(12) 0.4815(11) 0.3698(4)
C14_2 C 0.0926(5) 0.1851(11) 0.2968(4)
C15_3 C 0.7450(11) 0.8725(13) 0.3149(4)
C16_2 C 0.2058(6) 0.4116(11) 0.3517(4)
C17_2 C 0.1275(13) 0.2550(11) 0.3149(4)
C18_3 C 0.7039(7) 0.9187(11) 0.3238(3)
C19_3 C 0.7039(7) 0.7851(8) 0.3238(3)
C20_3 C 0.6295(7) 0.7479(11) 0.3428(3)
C21_2 C 0.1185(8) 0.3705(7) 0.3428(3)
C22_2 C 0.0813(11) 0.2961(7) 0.3238(3)
C23_2 C 0.2149(8) 0.2961(7) 0.3238(3)
C24_2 C 0.2521(11) 0.3705(7) 0.3428(3)
H6_3 H 0.6079 0.6930 0.3495
H7_3 H 0.7255 0.7518 0.3171
H8_3 H 0.7255 0.9736 0.3171
H9_2 H 0.0852 0.3921 0.3495
H10_2 H 0.3070 0.3921 0.3495
H11_2 H 0.2482 0.2745 0.3171
H12_2 H 0.0264 0.2745 0.3171
C3_6 C 0.5020(6) 0.0039(8) 0.4686(4)
H1_6 H 0.5033 0.0065 0.4479
Zn5_6 Zn 0.60908(5) 0.21817(7) 0.59769(3)
O5_6 O 0.6106(4) 0.2213(6) 0.5235(2)
O8_6 O 0.5685(3) 0.1371(4) 0.5653(3)
C8_6 C 0.5737(5) 0.1475(7) 0.5376(4)
C9_6 C 0.5366(5) 0.0733(7) 0.5173(4)
C11_6 C 0.5397(6) 0.0795(8) 0.4855(5)
H5_6 H 0.5657 0.1315 0.4760
C1_6 C 0.4263(5) 0.8525(7) 0.4624(4)
C2_6 C 0.4634(5) 0.9267(7) 0.4827(4)
C4_6 C 0.4603(6) 0.9205(8) 0.5145(5)
H2_6 H 0.4343 0.8685 0.5240
C5_4 C 0.2408(5) 0.7592(12) 0.3698(4)
C6_4 C 0.2058(6) 0.7941(13) 0.3517(4)
C7_4 C 0.1185(8) 0.7479(11) 0.3428(3)
H3_4 H 0.0852 0.6930 0.3495
O12_4 O 0.1396(7) 0.9868(9) 0.28802(19)
O13_4 O 0.0132(5) 0.8604(7) 0.28802(19)
C10_6 C 0.4980(6) 0.9961(8) 0.5314(4)
H4_6 H 0.4967 0.9935 0.5521
C12_4 C 0.0926(5) 0.9074(12) 0.2968(4)
C15_4 C 0.1275(13) 0.8724(17) 0.3149(4)
C18_4 C 0.0813(11) 0.7851(13) 0.3238(3)
C19_4 C 0.2149(8) 0.9187(11) 0.3238(3)
C20_4 C 0.2521(11) 0.8815(13) 0.3428(3)
H6_4 H 0.3070 0.9148 0.3495
H7_4 H 0.2482 0.9736 0.3171
H8_4 H 0.0264 0.7518 0.3171
C1_7 C 0.1475(7) 0.5737(5) 0.4624(4)
C2_7 C 0.0733(7) 0.5366(5) 0.4827(4)
C4_7 C 0.0795(8) 0.5397(6) 0.5145(5)
H2_7 H 0.1315 0.5657 0.5240
C10_7 C 0.0039(8) 0.5020(6) 0.5314(4)
H4_7 H 0.0065 0.5033 0.5521
C3_7 C 0.9961(8) 0.4980(6) 0.4686(4)
H1_7 H 0.9935 0.4967 0.4479
Zn5_7 Zn 0.78183(7) 0.39092(5) 0.59769(3)
O5_7 O 0.7787(6) 0.3894(4) 0.5235(2)
O8_7 O 0.8629(4) 0.4315(3) 0.5653(3)
C8_7 C 0.8525(7) 0.4263(5) 0.5376(4)
C9_7 C 0.9267(7) 0.4634(5) 0.5173(4)
C11_7 C 0.9205(8) 0.4603(6) 0.4855(5)
H5_7 H 0.8685 0.4343 0.4760
O1_4 O -0.0000 0.0000 0.2515(3)
O1_5 O -0.0000 1.0000 0.2515(3)
O1_6 O 1.0000 0.0000 0.2515(3)
O1_7 O 1.0000 1.0000 0.2515(3)
O1_8 O 0.0000 -0.0000 0.7485(3)
O4_3 O 0.1527(5) 0.0132(5) 0.71198(19)
C5_5 C 0.1851(11) 0.0926(5) 0.7032(4)
C6_5 C 0.2550(11) 0.1276(6) 0.6851(4)
C7_5 C 0.2961(7) 0.2149(8) 0.6762(3)
H3_5 H 0.2745 0.2482 0.6829
Zn4_3 Zn 0.05758(5) 0.11517(7) 0.73565(3)
O6_4 O 0.0560(4) 0.1121(6) 0.8099(2)
O9_4 O 0.0981(3) 0.1963(4) 0.7681(3)
O11_3 O 0.1527(5) 0.1396(7) 0.71198(19)
O12_5 O 0.5139(5) 0.1938(7) 0.62136(19)
O13_5 O 0.5139(5) 0.3202(5) 0.62136(19)
C12_5 C 0.4815(11) 0.2408(5) 0.6302(4)
C15_5 C 0.4116(11) 0.2059(13) 0.6483(4)
C18_5 C 0.3705(7) 0.2521(11) 0.6572(3)
C19_5 C 0.3705(7) 0.1185(8) 0.6572(3)
C20_5 C 0.2961(7) 0.0813(11) 0.6762(3)
H6_5 H 0.2745 0.0264 0.6829
H7_5 H 0.3921 0.0852 0.6505
H8_5 H 0.3921 0.3070 0.6505
O1_9 O 0.0000 1.0000 0.7485(3)
O1_10 O 1.0000 -0.0000 0.7485(3)
O18_3 O 0.8604(7) 0.0132(5) 0.71198(19)
O19_3 O 0.9868(5) 0.1396(7) 0.71198(19)
O1_11 O 1.0000 1.0000 0.7485(3)
Zn3_3 Zn 0.88483(7) 0.94242(5) 0.73565(3)
O7_4 O 0.8879(6) 0.9440(4) 0.8099(2)
O10_4 O 0.8037(4) 0.9019(3) 0.7681(3)
O14_3 O 0.9868(5) 0.8473(5) 0.71198(19)
O15_3 O 0.8604(7) 0.8473(5) 0.71198(19)
O16_3 O 0.8062(7) 0.4861(5) 0.62136(19)
O17_3 O 0.6798(5) 0.4861(5) 0.62136(19)
C13_3 C 0.9074(12) 0.8149(11) 0.7032(4)
C14_3 C 0.7592(5) 0.5185(11) 0.6302(4)
C16_3 C 0.8724(6) 0.7450(11) 0.6851(4)
C17_3 C 0.7941(13) 0.5884(11) 0.6483(4)
C21_3 C 0.7851(8) 0.7039(7) 0.6762(3)
C22_3 C 0.7479(11) 0.6295(7) 0.6572(3)
C23_3 C 0.8815(8) 0.6295(7) 0.6572(3)
C24_3 C 0.9187(11) 0.7039(7) 0.6762(3)
H9_3 H 0.7518 0.7255 0.6829
H10_3 H 0.9736 0.7255 0.6829
H11_3 H 0.9148 0.6079 0.6505
H12_3 H 0.6930 0.6079 0.6505
O1_12 O 0.6666 0.3334 0.5849(3)
O18_4 O 0.6798(5) 0.1938(7) 0.62136(19)
O19_4 O 0.8062(7) 0.3202(5) 0.62136(19)
C1_8 C 0.5192(7) 0.7596(5) 0.8709(4)
C2_8 C 0.5934(7) 0.7967(5) 0.8506(4)
C3_8 C 0.6706(8) 0.8353(6) 0.8647(4)
H1_8 H 0.6732 0.8366 0.8854
C4_8 C 0.5872(8) 0.7936(6) 0.8188(5)
H2_8 H 0.5352 0.7676 0.8093
C8_8 C 0.8141(7) 0.9071(5) 0.7958(4)
C9_8 C 0.7399(7) 0.8700(5) 0.8161(4)
C10_8 C 0.6627(8) 0.8314(6) 0.8020(4)
H4_8 H 0.6601 0.8301 0.7813
C11_8 C 0.7461(8) 0.8731(6) 0.8479(5)
H5_8 H 0.7981 0.8991 0.8574
C1_9 C 0.2404(5) 0.4808(7) 0.8709(4)
C2_9 C 0.2033(5) 0.4066(7) 0.8506(4)
C3_9 C 0.1647(6) 0.3294(8) 0.8647(4)
H1_9 H 0.1634 0.3268 0.8854
C4_9 C 0.2064(6) 0.4128(8) 0.8188(5)
H2_9 H 0.2324 0.4648 0.8093
C8_9 C 0.0929(5) 0.1859(7) 0.7958(4)
C9_9 C 0.1300(5) 0.2601(7) 0.8161(4)
C10_9 C 0.1686(6) 0.3373(8) 0.8020(4)
H4_9 H 0.1699 0.3399 0.7813
C11_9 C 0.1269(6) 0.2539(8) 0.8479(5)
H5_9 H 0.1009 0.2019 0.8574
C5_6 C 0.9074(5) 0.0926(12) 0.7032(4)
C6_6 C 0.8724(6) 0.1275(13) 0.6851(4)
C7_6 C 0.7851(8) 0.0813(11) 0.6762(3)
H3_6 H 0.7518 0.0264 0.6829
C12_6 C 0.7592(5) 0.2408(12) 0.6302(4)
C15_6 C 0.7941(13) 0.2058(17) 0.6483(4)
C18_6 C 0.7479(11) 0.1185(13) 0.6572(3)
C19_6 C 0.8815(8) 0.2521(11) 0.6572(3)
C20_6 C 0.9187(11) 0.2149(13) 0.6762(3)
H6_6 H 0.9736 0.2482 0.6829
H7_6 H 0.9148 0.3070 0.6505
H8_6 H 0.6930 0.0852 0.6505
loop_
_geom_bond_atom_site_label_1
_geom_bond_atom_site_label_2
_geom_bond_site_symmetry_1
_geom_bond_site_symmetry_2
Zn6 O12 1_555 1_555
Zn7 O13 1_555 1_555
O12 C12 1_555 1_555
O13 C12 1_555 1_555
C12 C15 1_555 1_555
C15 C18 1_555 1_555
C19 C15 1_555 1_555
H7 C19 1_555 1_555
H8 C18 1_555 1_555
O1 Zn1 1_555 1_555
Zn1 O3 1_555 1_555
Zn2 O1 1_555 1_555
O2 Zn2 1_555 1_555
O3 C1 1_555 1_555
O4 Zn1 1_555 1_555
C1 O2 1_555 1_555
C2 C1 1_555 1_555
C3 C2 1_555 1_555
H1 C3 1_555 1_555
C4 C2 1_555 1_555
H2 C4 1_555 1_555
C5 O4 1_555 1_555
C6 C5 1_555 1_555
C7 C6 1_555 1_555
H3 C7 1_555 1_555
Zn3 O1 1_555 1_555
Zn4 O1 1_555 1_555
Zn5 O8 1_555 1_555
Zn10_3 O5 1_555 1_555
O5 C8 1_555 1_555
O6 Zn2 1_555 1_555
O7 Zn2 1_555 1_555
O8 C8 1_555 1_555
O9 Zn4 1_555 1_555
O10 Zn3 1_555 1_555
O11 C5 1_555 1_555
O14 Zn1 1_555 1_555
O15 Zn3 1_555 1_555
O18 Zn3 1_555 1_555
O19 Zn4 1_555 1_555
C8 C9 1_555 1_555
C9 C10 1_555 1_555
C10 C4 1_555 1_555
H4 C10 1_555 1_555
C11 C3 1_555 1_555
H5 C11 1_555 1_555
C13 O14 1_555 1_555
C16 C13 1_555 1_555
C20 C6 1_555 1_555
C21 C16 1_555 1_555
C24 C16 1_555 1_555
H6 C20 1_555 1_555
H9 C21 1_555 1_555
H10 C24 1_555 1_555
Zn4 O11 1_555 1_555
O15 C13 1_555 1_555
C9 C11 1_555 1_555
Zn8 O16 1_555 1_555
Zn7 O17 1_555 1_555
O16 C14 1_555 1_555
O17 C14 1_555 1_555
C14 C17 1_555 1_555
C17 C22 1_555 1_555
C23 C17 1_555 1_555
H11 C23 1_555 1_555
H12 C22 1_555 1_555
O9 C1_2 1_555 1_555
C1_2 O6 1_555 1_555
C2_2 C1_2 1_555 1_555
C3_2 C2_2 1_555 1_555
H1_2 C3_2 1_555 1_555
C4_2 C2_2 1_555 1_555
H2_2 C4_2 1_555 1_555
C5_2 O19 1_555 1_555
C6_2 C5_2 1_555 1_555
C7_2 C6_2 1_555 1_555
H3_2 C7_2 1_555 1_555
Zn5_2 O8_2 1_555 1_555
Zn10_4 O5_2 1_555 1_555
O5_2 C8_2 1_555 1_555
O8_2 C8_2 1_555 1_555
O18 C5_2 1_555 1_555
C8_2 C9_2 1_555 1_555
C9_2 C10_2 1_555 1_555
C10_2 C4_2 1_555 1_555
H4_2 C10_2 1_555 1_555
C11_2 C3_2 1_555 1_555
H5_2 C11_2 1_555 1_555
C20_2 C6_2 1_555 1_555
H6_2 C20_2 1_555 1_555
C9_2 C11_2 1_555 1_555
Zn8 O12_2 1_555 1_555
Zn6 O13_2 1_555 1_555
O12_2 C12_2 1_555 1_555
O13_2 C12_2 1_555 1_555
C12_2 C15_2 1_555 1_555
C15_2 C18_2 1_555 1_555
C19_2 C15_2 1_555 1_555
H7_2 C19_2 1_555 1_555
H8_2 C18_2 1_555 1_555
O10 C1_3 1_555 1_555
C1_3 O7 1_555 1_555
C2_3 C1_3 1_555 1_555
C3_3 C2_3 1_555 1_555
H1_3 C3_3 1_555 1_555
C4_3 C2_3 1_555 1_555
H2_3 C4_3 1_555 1_555
Zn5_3 O8_3 1_555 1_555
Zn10 O5_3 1_555 1_555
O5_3 C8_3 1_555 1_555
O8_3 C8_3 1_555 1_555
C8_3 C9_3 1_555 1_555
C9_3 C10_3 1_555 1_555
C10_3 C4_3 1_555 1_555
H4_3 C10_3 1_555 1_555
C11_3 C3_3 1_555 1_555
H5_3 C11_3 1_555 1_555
C9_3 C11_3 1_555 1_555
O1_2 Zn7 1_555 1_555
Zn7 O3_2 1_555 1_555
Zn2_2 O1_2 1_555 1_555
O2_2 Zn2_2 1_555 1_555
O3_2 C1_4 1_555 1_555
C1_4 O2_2 1_555 1_555
C2_4 C1_4 1_555 1_555
C3_4 C2_4 1_555 1_555
H1_4 C3_4 1_555 1_555
C4_4 C2_4 1_555 1_555
H2_4 C4_4 1_555 1_555
Zn6 O1_2 1_555 1_555
Zn8 O1_2 1_555 1_555
Zn5_4 O8_4 1_555 1_555
Zn10_6 O5_4 1_555 1_555
O5_4 C8_4 1_555 1_555
O6_2 Zn2_2 1_555 1_555
O7_2 Zn2_2 1_555 1_555
O8_4 C8_4 1_555 1_555
O9_2 Zn8 1_555 1_555
O10_2 Zn6 1_555 1_555
C8_4 C9_4 1_555 1_555
C9_4 C10_4 1_555 1_555
C10_4 C4_4 1_555 1_555
H4_4 C10_4 1_555 1_555
C11_4 C3_4 1_555 1_555
H5_4 C11_4 1_555 1_555
C9_4 C11_4 1_555 1_555
O1_3 Zn1_2 1_555 1_555
Zn1_2 O3_3 1_555 1_555
Zn2_3 O1_3 1_555 1_555
O2_3 Zn2_3 1_555 1_555
O3_3 C1_5 1_555 1_555
O4_2 Zn1_2 1_555 1_555
C1_5 O2_3 1_555 1_555
C2_5 C1_5 1_555 1_555
C3_5 C2_5 1_555 1_555
H1_5 C3_5 1_555 1_555
C4_5 C2_5 1_555 1_555
H2_5 C4_5 1_555 1_555
C5_3 O4_2 1_555 1_555
C6_3 C5_3 1_555 1_555
C7_3 C6_3 1_555 1_555
H3_3 C7_3 1_555 1_555
Zn3_2 O1_3 1_555 1_555
Zn4_2 O1_3 1_555 1_555
Zn5_5 O8_5 1_555 1_555
Zn5_2 O12_3 1_555 1_555
Zn5_3 O16_2 1_555 1_555
Zn10_9 O5_5 1_555 1_555
O5_5 C8_5 1_555 1_555
O6_3 Zn2_3 1_555 1_555
O7_3 Zn2_3 1_555 1_555
O8_5 C8_5 1_555 1_555
O9_3 Zn4_2 1_555 1_555
O10_3 Zn3_2 1_555 1_555
O11_2 C5_3 1_555 1_555
O12_3 C12_3 1_555 1_555
O13_3 C12_3 1_555 1_555
O14_2 Zn1_2 1_555 1_555
O15_2 Zn3_2 1_555 1_555
O16_2 C14_2 1_555 1_555
O17_2 C14_2 1_555 1_555
O18_2 Zn3_2 1_555 1_555
O19_2 Zn4_2 1_555 1_555
C8_5 C9_5 1_555 1_555
C9_5 C10_5 1_555 1_555
C10_5 C4_5 1_555 1_555
H4_5 C10_5 1_555 1_555
C11_5 C3_5 1_555 1_555
H5_5 C11_5 1_555 1_555
C12_3 C15_3 1_555 1_555
C13_2 O14_2 1_555 1_555
C14_2 C17_2 1_555 1_555
C15_3 C18_3 1_555 1_555
C16_2 C13_2 1_555 1_555
C17_2 C22_2 1_555 1_555
C18_3 C7_3 1_555 1_555
C19_3 C15_3 1_555 1_555
C20_3 C6_3 1_555 1_555
C21_2 C16_2 1_555 1_555
C22_2 C21_2 1_555 1_555
C23_2 C17_2 1_555 1_555
C24_2 C16_2 1_555 1_555
H6_3 C20_3 1_555 1_555
H7_3 C19_3 1_555 1_555
H8_3 C18_3 1_555 1_555
H9_2 C21_2 1_555 1_555
H10_2 C24_2 1_555 1_555
H11_2 C23_2 1_555 1_555
H12_2 C22_2 1_555 1_555
Zn4_2 O11_2 1_555 1_555
O15_2 C13_2 1_555 1_555
C9_5 C11_5 1_555 1_555
C19_3 C20_3 1_555 1_555
C23_2 C24_2 1_555 1_555
H1_6 C3_6 1_555 1_555
Zn5_6 O8_6 1_555 1_555
Zn10_9 O5_6 1_555 1_555
O5_6 C8_6 1_555 1_555
O8_6 C8_6 1_555 1_555
C8_6 C9_6 1_555 1_555
C11_6 C3_6 1_555 1_555
H5_6 C11_6 1_555 1_555
C9_6 C11_6 1_555 1_555
O9_3 C1_6 1_555 1_555
C1_6 O6_3 1_555 1_555
C2_6 C1_6 1_555 1_555
C4_6 C2_6 1_555 1_555
H2_6 C4_6 1_555 1_555
C5_4 O19_2 1_555 1_555
C6_4 C5_4 1_555 1_555
C7_4 C6_4 1_555 1_555
H3_4 C7_4 1_555 1_555
O18_2 C5_4 1_555 1_555
O12_4 C12_4 1_555 1_555
O13_4 C12_4 1_555 1_555
C10_6 C4_6 1_555 1_555
H4_6 C10_6 1_555 1_555
C12_4 C15_4 1_555 1_555
C15_4 C18_4 1_555 1_555
C18_4 C7_4 1_555 1_555
C19_4 C15_4 1_555 1_555
C20_4 C6_4 1_555 1_555
H6_4 C20_4 1_555 1_555
H7_4 C19_4 1_555 1_555
H8_4 C18_4 1_555 1_555
C19_4 C20_4 1_555 1_555
O10_3 C1_7 1_555 1_555
C1_7 O7_3 1_555 1_555
C2_7 C1_7 1_555 1_555
C4_7 C2_7 1_555 1_555
H2_7 C4_7 1_555 1_555
C10_7 C4_7 1_555 1_555
H4_7 C10_7 1_555 1_555
H1_7 C3_7 1_555 1_555
Zn5_7 O8_7 1_555 1_555
Zn10_9 O5_7 1_555 1_555
O5_7 C8_7 1_555 1_555
O8_7 C8_7 1_555 1_555
C8_7 C9_7 1_555 1_555
C11_7 C3_7 1_555 1_555
H5_7 C11_7 1_555 1_555
C9_7 C11_7 1_555 1_555
Zn10 O1_4 1_555 1_555
Zn5_3 O1_4 1_555 1_555
Zn10_2 O1_5 1_555 1_555
O1_6 Zn5 1_555 1_555
Zn10_3 O1_6 1_555 1_555
Zn10_4 O1_7 1_555 1_555
Zn5_2 O1_7 1_555 1_555
Zn10_5 O1_8 1_555 1_555
C5_5 O4_3 1_555 1_555
C6_5 C5_5 1_555 1_555
C7_5 C6_5 1_555 1_555
H3_5 C7_5 1_555 1_555
Zn4_3 O1_8 1_555 1_555
Zn5_6 O12_5 1_555 1_555
Zn5_5 O13_5 1_555 1_555
O6_4 Zn10_5 1_555 1_555
O9_4 Zn4_3 1_555 1_555
O11_3 C5_5 1_555 1_555
O12_5 C12_5 1_555 1_555
O13_5 C12_5 1_555 1_555
C12_5 C15_5 1_555 1_555
C15_5 C18_5 1_555 1_555
C18_5 C7_5 1_555 1_555
C19_5 C15_5 1_555 1_555
C20_5 C6_5 1_555 1_555
H6_5 C20_5 1_555 1_555
H7_5 C19_5 1_555 1_555
H8_5 C18_5 1_555 1_555
Zn4_3 O11_3 1_555 1_555
C19_5 C20_5 1_555 1_555
O1_9 Zn5_4 1_555 1_555
Zn10_6 O1_9 1_555 1_555
Zn10_7 O1_10 1_555 1_555
Zn10_8 O1_11 1_555 1_555
Zn3_3 O1_11 1_555 1_555
Zn5_7 O16_3 1_555 1_555
Zn5_5 O17_3 1_555 1_555
O7_4 Zn10_8 1_555 1_555
O10_4 Zn3_3 1_555 1_555
O15_3 Zn3_3 1_555 1_555
O16_3 C14_3 1_555 1_555
O17_3 C14_3 1_555 1_555
C13_3 O14_3 1_555 1_555
C14_3 C17_3 1_555 1_555
C16_3 C13_3 1_555 1_555
C17_3 C22_3 1_555 1_555
C21_3 C16_3 1_555 1_555
C22_3 C21_3 1_555 1_555
C23_3 C17_3 1_555 1_555
C24_3 C16_3 1_555 1_555
H9_3 C21_3 1_555 1_555
H10_3 C24_3 1_555 1_555
H11_3 C23_3 1_555 1_555
H12_3 C22_3 1_555 1_555
O15_3 C13_3 1_555 1_555
C23_3 C24_3 1_555 1_555
O1_12 Zn5_5 1_555 1_555
Zn10_9 O1_12 1_555 1_555
Zn5_6 O1_12 1_555 1_555
Zn5_7 O1_12 1_555 1_555
O18_4 Zn5_6 1_555 1_555
O19_4 Zn5_7 1_555 1_555
O9_2 C1_8 1_555 1_555
C1_8 O6_2 1_555 1_555
C2_8 C1_8 1_555 1_555
C3_8 C2_8 1_555 1_555
H1_8 C3_8 1_555 1_555
C4_8 C2_8 1_555 1_555
H2_8 C4_8 1_555 1_555
O7_4 C8_8 1_555 1_555
O10_4 C8_8 1_555 1_555
C8_8 C9_8 1_555 1_555
C9_8 C10_8 1_555 1_555
C10_8 C4_8 1_555 1_555
H4_8 C10_8 1_555 1_555
C11_8 C3_8 1_555 1_555
H5_8 C11_8 1_555 1_555
C9_8 C11_8 1_555 1_555
O10_2 C1_9 1_555 1_555
C1_9 O7_2 1_555 1_555
C2_9 C1_9 1_555 1_555
C3_9 C2_9 1_555 1_555
H1_9 C3_9 1_555 1_555
C4_9 C2_9 1_555 1_555
H2_9 C4_9 1_555 1_555
O6_4 C8_9 1_555 1_555
O9_4 C8_9 1_555 1_555
C8_9 C9_9 1_555 1_555
C9_9 C10_9 1_555 1_555
C10_9 C4_9 1_555 1_555
H4_9 C10_9 1_555 1_555
C11_9 C3_9 1_555 1_555
H5_9 C11_9 1_555 1_555
C9_9 C11_9 1_555 1_555
C5_6 O19_3 1_555 1_555
C6_6 C5_6 1_555 1_555
C7_6 C6_6 1_555 1_555
H3_6 C7_6 1_555 1_555
O18_3 C5_6 1_555 1_555
O19_4 C12_6 1_555 1_555
O18_4 C12_6 1_555 1_555
C12_6 C15_6 1_555 1_555
C15_6 C18_6 1_555 1_555
C18_6 C7_6 1_555 1_555
C19_6 C15_6 1_555 1_555
C20_6 C6_6 1_555 1_555
H6_6 C20_6 1_555 1_555
H7_6 C19_6 1_555 1_555
H8_6 C18_6 1_555 1_555
C19_6 C20_6 1_555 1_555

#END
