
###############################################################################
#
# This file contains modified crystal structure data generated from the
# MOF subset of the Cambridge Structural Database (CSD) v543 
# hosted by the Cambridge Crystallographic Data Centre (CCDC).
#
# This work is licensed under the Creative Commons
# Attribution-NonCommercial-ShareAlike 4.0 International License.
# To view a copy of this license, visit
# http://creativecommons.org/licenses/by-nc-sa/4.0/
# or send a letter to
# Creative Commons, PO Box 1866, Mountain View, CA 94042, USA.
#
# CIF created using the CSD Python API on 29 September 2022
# The structure has been converted into the P1 space group
# The structure has a 3D framework
# The original CSD entry HIFTOG03 is in the cubic crystal system
# The framework has been calculated to contain at least 10.0% void space
# The void calculation uses a probe of radius 1.32A, grid spacing 0.4
# H atom positions have been added when not included in the experimental data
#
###############################################################################

data_HIFTOG03
_chemical_formula_moiety         '(C192 H96 O99 Zn18)n'
_symmetry_cell_setting           triclinic
_symmetry_space_group_name_H-M   'P 1'
_symmetry_Int_Tables_number      1
_space_group_name_Hall           'P 1'
loop_
_symmetry_equiv_pos_site_id
_symmetry_equiv_pos_as_xyz
1 x,y,z
_cell_length_a                   25.7643(3)
_cell_length_b                   25.7643(3)
_cell_length_c                   25.7643(3)
_cell_angle_alpha                90
_cell_angle_beta                 90
_cell_angle_gamma                90
_cell_volume                     17102.3
loop_
_atom_site_label
_atom_site_type_symbol
_atom_site_fract_x
_atom_site_fract_y
_atom_site_fract_z
Zn1 Zn 0.29340(2) 0.70660(2) 0.20660(2)
O1 O 0.2500 0.7500 0.2500
O2 O 0.28144(12) 0.63393(15) 0.21856(12)
C1 C 0.2824(2) 0.5263(2) 0.2176(2)
C2 C 0.2500 0.6118(3) 0.2500
C3 C 0.2500 0.5540(3) 0.2500
O3 O 0.21856(12) 0.63393(15) 0.28144(12)
C4 C 0.2176(2) 0.5263(2) 0.2824(2)
O4 O 0.28144(12) 0.36607(15) 0.21856(12)
C5 C 0.2824(2) 0.4737(2) 0.2176(2)
C6 C 0.2500 0.3882(3) 0.2500
C7 C 0.2500 0.4460(3) 0.2500
O5 O 0.21856(12) 0.36607(15) 0.28144(12)
C8 C 0.2176(2) 0.4737(2) 0.2824(2)
Zn2 Zn 0.29340(2) 0.29340(2) 0.20660(2)
O6 O 0.36607(15) 0.28144(12) 0.21856(12)
C9 C 0.4737(2) 0.2824(2) 0.2176(2)
C10 C 0.3882(3) 0.2500 0.2500
C11 C 0.4460(3) 0.2500 0.2500
O7 O 0.36607(15) 0.21856(12) 0.28144(12)
C12 C 0.4737(2) 0.2176(2) 0.2824(2)
O8 O 0.63393(15) 0.28144(12) 0.21856(12)
C13 C 0.5263(2) 0.2824(2) 0.2176(2)
C14 C 0.6118(3) 0.2500 0.2500
C15 C 0.5540(3) 0.2500 0.2500
O9 O 0.63393(15) 0.21856(12) 0.28144(12)
C16 C 0.5263(2) 0.2176(2) 0.2824(2)
Zn3 Zn 0.70660(2) 0.70660(2) 0.20660(2)
O10 O 0.63393(15) 0.71856(12) 0.21856(12)
C17 C 0.5263(2) 0.7176(2) 0.2176(2)
C18 C 0.6118(3) 0.7500 0.2500
C19 C 0.5540(3) 0.7500 0.2500
O11 O 0.63393(15) 0.78144(12) 0.28144(12)
C20 C 0.5263(2) 0.7824(2) 0.2824(2)
O12 O 0.36607(15) 0.71856(12) 0.21856(12)
C21 C 0.4737(2) 0.7176(2) 0.2176(2)
C22 C 0.3882(3) 0.7500 0.2500
C23 C 0.4460(3) 0.7500 0.2500
O13 O 0.36607(15) 0.78144(12) 0.28144(12)
C24 C 0.4737(2) 0.7824(2) 0.2824(2)
Zn4 Zn 0.29340(2) 0.79340(2) 0.29340(2)
Zn5 Zn 0.70660(2) 0.29340(2) 0.20660(2)
Zn6 Zn 0.29340(2) 0.20660(2) 0.29340(2)
Zn7 Zn 0.70660(2) 0.20660(2) 0.29340(2)
Zn8 Zn 0.20660(2) 0.70660(2) 0.29340(2)
Zn9 Zn 0.70660(2) 0.79340(2) 0.29340(2)
Zn10 Zn 0.20660(2) 0.29340(2) 0.29340(2)
Zn11 Zn 0.20660(2) 0.79340(2) 0.20660(2)
O14 O 0.2500 0.2500 0.2500
O15 O 0.7500 0.7500 0.2500
O16 O 0.28144(12) 0.28144(12) 0.13393(15)
O17 O 0.28144(12) 0.86607(15) 0.28144(12)
O18 O 0.71856(12) 0.71856(12) 0.13393(15)
O19 O 0.71856(12) 0.63393(15) 0.21856(12)
O20 O 0.28144(12) 0.71856(12) 0.13393(15)
O21 O 0.28144(12) 0.78144(12) 0.36607(15)
H1 H 0.191567 0.547064 0.308433
H2 H 0.308433 0.547064 0.191567
H3 H 0.308433 0.452936 0.191567
H4 H 0.547064 0.691567 0.191567
H5 H 0.452936 0.808433 0.308433
H6 H 0.452936 0.691567 0.191567
H7 H 0.547064 0.191567 0.308433
H8 H 0.452936 0.308433 0.191567
H9 H 0.547064 0.808433 0.308433
H10 H 0.191567 0.452936 0.308433
H11 H 0.547064 0.308433 0.191567
H12 H 0.452936 0.191567 0.308433
O6_2 O 0.71856(12) 0.36607(15) 0.21856(12)
C9_2 C 0.7176(2) 0.4737(2) 0.2176(2)
C10_2 C 0.7500 0.3882(3) 0.2500
C11_2 C 0.7500 0.4460(3) 0.2500
O7_2 O 0.78144(12) 0.36607(15) 0.28144(12)
C12_2 C 0.7824(2) 0.4737(2) 0.2824(2)
C13_2 C 0.7176(2) 0.5263(2) 0.2176(2)
C14_2 C 0.7500 0.6118(3) 0.2500
C15_2 C 0.7500 0.5540(3) 0.2500
O9_2 O 0.78144(12) 0.63393(15) 0.28144(12)
C16_2 C 0.7824(2) 0.5263(2) 0.2824(2)
Zn6_2 Zn 0.79340(2) 0.29340(2) 0.29340(2)
Zn7_2 Zn 0.79340(2) 0.70660(2) 0.29340(2)
Zn11_2 Zn 0.20660(2) 0.20660(2) 0.20660(2)
O14_2 O 0.7500 0.2500 0.2500
O16_2 O 0.71856(12) 0.28144(12) 0.13393(15)
O17_2 O 0.13393(15) 0.28144(12) 0.28144(12)
O21_2 O 0.21856(12) 0.28144(12) 0.36607(15)
H7_2 H 0.808433 0.547064 0.308433
H8_2 H 0.691567 0.452936 0.191567
H11_2 H 0.691567 0.547064 0.191567
H12_2 H 0.808433 0.452936 0.308433
Zn11_3 Zn 0.79340(2) 0.20660(2) 0.20660(2)
O17_3 O 0.71856(12) 0.13393(15) 0.28144(12)
O21_3 O 0.71856(12) 0.21856(12) 0.36607(15)
Zn11_4 Zn 0.79340(2) 0.79340(2) 0.20660(2)
O17_4 O 0.86607(15) 0.71856(12) 0.28144(12)
O21_4 O 0.78144(12) 0.71856(12) 0.36607(15)
Zn1_2 Zn 0.29340(2) 0.79340(2) 0.70660(2)
O1_2 O 0.2500 0.7500 0.7500
O2_2 O 0.28144(12) 0.78144(12) 0.63393(15)
C1_2 C 0.2824(2) 0.7824(2) 0.5263(2)
C2_2 C 0.2500 0.7500 0.6118(3)
C3_2 C 0.2500 0.7500 0.5540(3)
O3_2 O 0.21856(12) 0.71856(12) 0.63393(15)
C4_2 C 0.2176(2) 0.7176(2) 0.5263(2)
C5_2 C 0.2824(2) 0.7824(2) 0.4737(2)
C6_2 C 0.2500 0.7500 0.3882(3)
C7_2 C 0.2500 0.7500 0.4460(3)
O5_2 O 0.21856(12) 0.71856(12) 0.36607(15)
C8_2 C 0.2176(2) 0.7176(2) 0.4737(2)
Zn3_2 Zn 0.70660(2) 0.79340(2) 0.70660(2)
O10_2 O 0.63393(15) 0.78144(12) 0.71856(12)
C17_2 C 0.5263(2) 0.7824(2) 0.7176(2)
C18_2 C 0.6118(3) 0.7500 0.7500
C19_2 C 0.5540(3) 0.7500 0.7500
O11_2 O 0.63393(15) 0.71856(12) 0.78144(12)
C20_2 C 0.5263(2) 0.7176(2) 0.7824(2)
O12_2 O 0.36607(15) 0.78144(12) 0.71856(12)
C21_2 C 0.4737(2) 0.7824(2) 0.7176(2)
C22_2 C 0.3882(3) 0.7500 0.7500
C23_2 C 0.4460(3) 0.7500 0.7500
O13_2 O 0.36607(15) 0.71856(12) 0.78144(12)
C24_2 C 0.4737(2) 0.7176(2) 0.7824(2)
Zn4_2 Zn 0.29340(2) 0.70660(2) 0.79340(2)
Zn8_2 Zn 0.20660(2) 0.70660(2) 0.70660(2)
Zn9_2 Zn 0.70660(2) 0.70660(2) 0.79340(2)
Zn11_5 Zn 0.20660(2) 0.79340(2) 0.79340(2)
O15_2 O 0.7500 0.7500 0.7500
O17_5 O 0.28144(12) 0.71856(12) 0.86607(15)
O18_2 O 0.71856(12) 0.86607(15) 0.71856(12)
O19_2 O 0.71856(12) 0.78144(12) 0.63393(15)
O20_2 O 0.28144(12) 0.86607(15) 0.71856(12)
O21_5 O 0.28144(12) 0.63393(15) 0.78144(12)
H1_2 H 0.191567 0.691567 0.547064
H2_2 H 0.308433 0.808433 0.547064
H3_2 H 0.308433 0.808433 0.452936
H4_2 H 0.547064 0.808433 0.691567
H5_2 H 0.452936 0.691567 0.808433
H6_2 H 0.452936 0.808433 0.691567
H9_2 H 0.547064 0.691567 0.808433
H10_2 H 0.191567 0.691567 0.452936
Zn1_3 Zn 0.29340(2) 0.29340(2) 0.79340(2)
O1_3 O 0.2500 0.2500 0.7500
O2_3 O 0.28144(12) 0.36607(15) 0.78144(12)
C1_3 C 0.2824(2) 0.4737(2) 0.7824(2)
C2_3 C 0.2500 0.3882(3) 0.7500
C3_3 C 0.2500 0.4460(3) 0.7500
O3_3 O 0.21856(12) 0.36607(15) 0.71856(12)
C4_3 C 0.2176(2) 0.4737(2) 0.7176(2)
C5_3 C 0.2824(2) 0.5263(2) 0.7824(2)
C6_3 C 0.2500 0.6118(3) 0.7500
C7_3 C 0.2500 0.5540(3) 0.7500
O5_3 O 0.21856(12) 0.63393(15) 0.71856(12)
C8_3 C 0.2176(2) 0.5263(2) 0.7176(2)
Zn3_3 Zn 0.70660(2) 0.29340(2) 0.79340(2)
O10_3 O 0.63393(15) 0.28144(12) 0.78144(12)
C17_3 C 0.5263(2) 0.2824(2) 0.7824(2)
C18_3 C 0.6118(3) 0.2500 0.7500
C19_3 C 0.5540(3) 0.2500 0.7500
O11_3 O 0.63393(15) 0.21856(12) 0.71856(12)
C20_3 C 0.5263(2) 0.2176(2) 0.7176(2)
O12_3 O 0.36607(15) 0.28144(12) 0.78144(12)
C21_3 C 0.4737(2) 0.2824(2) 0.7824(2)
C22_3 C 0.3882(3) 0.2500 0.7500
C23_3 C 0.4460(3) 0.2500 0.7500
O13_3 O 0.36607(15) 0.21856(12) 0.71856(12)
C24_3 C 0.4737(2) 0.2176(2) 0.7176(2)
Zn4_3 Zn 0.29340(2) 0.20660(2) 0.70660(2)
Zn8_3 Zn 0.20660(2) 0.29340(2) 0.70660(2)
Zn9_3 Zn 0.70660(2) 0.20660(2) 0.70660(2)
Zn11_6 Zn 0.20660(2) 0.20660(2) 0.79340(2)
O15_3 O 0.7500 0.2500 0.7500
O17_6 O 0.28144(12) 0.13393(15) 0.71856(12)
O18_3 O 0.71856(12) 0.28144(12) 0.86607(15)
O19_3 O 0.71856(12) 0.36607(15) 0.78144(12)
O20_3 O 0.28144(12) 0.28144(12) 0.86607(15)
O21_6 O 0.28144(12) 0.21856(12) 0.63393(15)
H1_3 H 0.191567 0.452936 0.691567
H2_3 H 0.308433 0.452936 0.808433
H3_3 H 0.308433 0.547064 0.808433
H4_3 H 0.547064 0.308433 0.808433
H5_3 H 0.452936 0.191567 0.691567
H6_3 H 0.452936 0.308433 0.808433
H9_3 H 0.547064 0.191567 0.691567
H10_3 H 0.191567 0.547064 0.691567
O2_4 O 0.28144(12) 0.21856(12) 0.36607(15)
C1_4 C 0.2824(2) 0.2176(2) 0.4737(2)
C2_4 C 0.2500 0.2500 0.3882(3)
C3_4 C 0.2500 0.2500 0.4460(3)
C4_4 C 0.2176(2) 0.2824(2) 0.4737(2)
C5_4 C 0.2824(2) 0.2176(2) 0.5263(2)
C6_4 C 0.2500 0.2500 0.6118(3)
C7_4 C 0.2500 0.2500 0.5540(3)
O5_4 O 0.21856(12) 0.28144(12) 0.63393(15)
C8_4 C 0.2176(2) 0.2824(2) 0.5263(2)
O20_4 O 0.28144(12) 0.13393(15) 0.28144(12)
H1_4 H 0.191567 0.308433 0.452936
H2_4 H 0.308433 0.191567 0.452936
H3_4 H 0.308433 0.191567 0.547064
H10_4 H 0.191567 0.308433 0.547064
O16_3 O 0.13393(15) 0.28144(12) 0.71856(12)
O18_4 O 0.13393(15) 0.71856(12) 0.28144(12)
O20_5 O 0.13393(15) 0.71856(12) 0.71856(12)
O2_5 O 0.71856(12) 0.63393(15) 0.78144(12)
C1_5 C 0.7176(2) 0.5263(2) 0.7824(2)
C2_5 C 0.7500 0.6118(3) 0.7500
C3_5 C 0.7500 0.5540(3) 0.7500
O3_4 O 0.78144(12) 0.63393(15) 0.71856(12)
C4_5 C 0.7824(2) 0.5263(2) 0.7176(2)
C5_5 C 0.7176(2) 0.4737(2) 0.7824(2)
C6_5 C 0.7500 0.3882(3) 0.7500
C7_5 C 0.7500 0.4460(3) 0.7500
O5_5 O 0.78144(12) 0.36607(15) 0.71856(12)
C8_5 C 0.7824(2) 0.4737(2) 0.7176(2)
Zn8_4 Zn 0.79340(2) 0.70660(2) 0.70660(2)
Zn10_2 Zn 0.79340(2) 0.29340(2) 0.70660(2)
Zn11_7 Zn 0.79340(2) 0.79340(2) 0.79340(2)
O20_6 O 0.71856(12) 0.71856(12) 0.86607(15)
H1_5 H 0.808433 0.547064 0.691567
H2_5 H 0.691567 0.547064 0.808433
H3_5 H 0.691567 0.452936 0.808433
H10_5 H 0.808433 0.452936 0.691567
O6_3 O 0.78144(12) 0.28144(12) 0.36607(15)
C9_3 C 0.7824(2) 0.2824(2) 0.4737(2)
C10_3 C 0.7500 0.2500 0.3882(3)
C11_3 C 0.7500 0.2500 0.4460(3)
C12_3 C 0.7176(2) 0.2176(2) 0.4737(2)
O8_2 O 0.78144(12) 0.28144(12) 0.63393(15)
C13_3 C 0.7824(2) 0.2824(2) 0.5263(2)
C14_3 C 0.7500 0.2500 0.6118(3)
C15_3 C 0.7500 0.2500 0.5540(3)
O9_3 O 0.71856(12) 0.21856(12) 0.63393(15)
C16_3 C 0.7176(2) 0.2176(2) 0.5263(2)
O10_4 O 0.78144(12) 0.71856(12) 0.63393(15)
C17_4 C 0.7824(2) 0.7176(2) 0.5263(2)
C18_4 C 0.7500 0.7500 0.6118(3)
C19_4 C 0.7500 0.7500 0.5540(3)
C20_4 C 0.7176(2) 0.7824(2) 0.5263(2)
C21_4 C 0.7824(2) 0.7176(2) 0.4737(2)
C22_4 C 0.7500 0.7500 0.3882(3)
C23_4 C 0.7500 0.7500 0.4460(3)
O13_4 O 0.71856(12) 0.78144(12) 0.36607(15)
C24_4 C 0.7176(2) 0.7824(2) 0.4737(2)
O16_4 O 0.86607(15) 0.28144(12) 0.28144(12)
O17_7 O 0.71856(12) 0.86607(15) 0.28144(12)
O18_5 O 0.86607(15) 0.71856(12) 0.71856(12)
H4_4 H 0.808433 0.691567 0.547064
H5_4 H 0.691567 0.808433 0.452936
H6_4 H 0.808433 0.691567 0.452936
H7_3 H 0.691567 0.191567 0.547064
H8_3 H 0.808433 0.308433 0.452936
H9_4 H 0.691567 0.808433 0.547064
H11_3 H 0.808433 0.308433 0.547064
H12_3 H 0.691567 0.191567 0.452936
O18_6 O 0.71856(12) 0.13393(15) 0.71856(12)
O18_7 O 0.86607(15) 0.28144(12) 0.71856(12)
Zn11_8 Zn 0.79340(2) 0.20660(2) 0.79340(2)
C1_6 C 0.2824(2) 0.0263(2) 0.7176(2)
C2_6 C 0.2500 0.1118(3) 0.7500
C3_6 C 0.2500 0.0540(3) 0.7500
O3_5 O 0.21856(12) 0.13393(15) 0.78144(12)
C4_6 C 0.2176(2) 0.0263(2) 0.7824(2)
H1_6 H 0.191567 0.0470641 0.808433
H2_6 H 0.308433 0.0470641 0.691567
C5_6 C 0.2824(2) 0.9737(2) 0.7176(2)
C6_6 C 0.2500 0.8882(3) 0.7500
C7_6 C 0.2500 0.9460(3) 0.7500
O5_6 O 0.21856(12) 0.86607(15) 0.78144(12)
C8_6 C 0.2176(2) 0.9737(2) 0.7824(2)
H3_6 H 0.308433 0.952936 0.691567
H10_6 H 0.191567 0.952936 0.808433
C13_4 C 0.7176(2) 0.0263(2) 0.7176(2)
C14_4 C 0.7500 0.1118(3) 0.7500
C15_4 C 0.7500 0.0540(3) 0.7500
O9_4 O 0.78144(12) 0.13393(15) 0.78144(12)
C16_4 C 0.7824(2) 0.0263(2) 0.7824(2)
H7_4 H 0.808433 0.0470641 0.808433
H11_4 H 0.691567 0.0470641 0.691567
C9_4 C 0.7176(2) 0.9737(2) 0.7176(2)
C10_4 C 0.7500 0.8882(3) 0.7500
C11_4 C 0.7500 0.9460(3) 0.7500
O7_3 O 0.78144(12) 0.86607(15) 0.78144(12)
C12_4 C 0.7824(2) 0.9737(2) 0.7824(2)
O17_8 O 0.13393(15) 0.78144(12) 0.78144(12)
O21_7 O 0.21856(12) 0.78144(12) 0.86607(15)
H8_4 H 0.691567 0.952936 0.691567
H12_4 H 0.808433 0.952936 0.808433
O17_9 O 0.86607(15) 0.21856(12) 0.78144(12)
O21_8 O 0.78144(12) 0.21856(12) 0.86607(15)
C1_7 C 0.2824(2) 0.2824(2) 0.0263(2)
C2_7 C 0.2500 0.2500 0.1118(3)
C3_7 C 0.2500 0.2500 0.0540(3)
O3_6 O 0.21856(12) 0.21856(12) 0.13393(15)
C4_7 C 0.2176(2) 0.2176(2) 0.0263(2)
H1_7 H 0.191567 0.191567 0.0470641
H2_7 H 0.308433 0.308433 0.0470641
C5_7 C 0.2824(2) 0.2824(2) 0.9737(2)
C6_7 C 0.2500 0.2500 0.8882(3)
C7_7 C 0.2500 0.2500 0.9460(3)
O5_7 O 0.21856(12) 0.21856(12) 0.86607(15)
C8_7 C 0.2176(2) 0.2176(2) 0.9737(2)
H3_7 H 0.308433 0.308433 0.952936
H10_7 H 0.191567 0.191567 0.952936
C5_8 C 0.2824(2) 0.0263(2) 0.2824(2)
C6_8 C 0.2500 0.1118(3) 0.2500
C7_8 C 0.2500 0.0540(3) 0.2500
O5_8 O 0.21856(12) 0.13393(15) 0.21856(12)
C8_8 C 0.2176(2) 0.0263(2) 0.2176(2)
H3_8 H 0.308433 0.0470641 0.308433
H10_8 H 0.191567 0.0470641 0.191567
C1_8 C 0.2824(2) 0.9737(2) 0.2824(2)
C2_8 C 0.2500 0.8882(3) 0.2500
C3_8 C 0.2500 0.9460(3) 0.2500
O3_7 O 0.21856(12) 0.86607(15) 0.21856(12)
C4_8 C 0.2176(2) 0.9737(2) 0.2176(2)
H1_8 H 0.191567 0.952936 0.191567
H2_8 H 0.308433 0.952936 0.308433
C5_9 C 0.2824(2) 0.7176(2) 0.0263(2)
C6_9 C 0.2500 0.7500 0.1118(3)
C7_9 C 0.2500 0.7500 0.0540(3)
O5_9 O 0.21856(12) 0.78144(12) 0.13393(15)
C8_9 C 0.2176(2) 0.7824(2) 0.0263(2)
H3_9 H 0.308433 0.691567 0.0470641
H10_9 H 0.191567 0.808433 0.0470641
C1_9 C 0.2824(2) 0.7176(2) 0.9737(2)
C2_9 C 0.2500 0.7500 0.8882(3)
C3_9 C 0.2500 0.7500 0.9460(3)
C4_9 C 0.2176(2) 0.7824(2) 0.9737(2)
H1_9 H 0.191567 0.808433 0.952936
H2_9 H 0.308433 0.691567 0.952936
O20_7 O 0.13393(15) 0.21856(12) 0.21856(12)
O18_8 O 0.13393(15) 0.21856(12) 0.78144(12)
O16_5 O 0.13393(15) 0.78144(12) 0.21856(12)
C1_10 C 0.7176(2) 0.0263(2) 0.2824(2)
C2_10 C 0.7500 0.1118(3) 0.2500
C3_10 C 0.7500 0.0540(3) 0.2500
O3_8 O 0.78144(12) 0.13393(15) 0.21856(12)
C4_10 C 0.7824(2) 0.0263(2) 0.2176(2)
H1_10 H 0.808433 0.0470641 0.191567
H2_10 H 0.691567 0.0470641 0.308433
C5_10 C 0.7176(2) 0.9737(2) 0.2824(2)
C6_10 C 0.7500 0.8882(3) 0.2500
C7_10 C 0.7500 0.9460(3) 0.2500
O5_10 O 0.78144(12) 0.86607(15) 0.21856(12)
C8_10 C 0.7824(2) 0.9737(2) 0.2176(2)
H3_10 H 0.691567 0.952936 0.308433
H10_10 H 0.808433 0.952936 0.191567
O10_5 O 0.78144(12) 0.21856(12) 0.13393(15)
C17_5 C 0.7824(2) 0.2176(2) 0.0263(2)
C18_5 C 0.7500 0.2500 0.1118(3)
C19_5 C 0.7500 0.2500 0.0540(3)
C20_5 C 0.7176(2) 0.2824(2) 0.0263(2)
O18_9 O 0.86607(15) 0.21856(12) 0.21856(12)
H4_5 H 0.808433 0.191567 0.0470641
H9_5 H 0.691567 0.308433 0.0470641
C21_5 C 0.7824(2) 0.2176(2) 0.9737(2)
C22_5 C 0.7500 0.2500 0.8882(3)
C23_5 C 0.7500 0.2500 0.9460(3)
C24_5 C 0.7176(2) 0.2824(2) 0.9737(2)
H5_5 H 0.691567 0.308433 0.952936
H6_5 H 0.808433 0.191567 0.952936
O8_3 O 0.78144(12) 0.78144(12) 0.13393(15)
C13_5 C 0.7824(2) 0.7824(2) 0.0263(2)
C14_5 C 0.7500 0.7500 0.1118(3)
C15_5 C 0.7500 0.7500 0.0540(3)
C16_5 C 0.7176(2) 0.7176(2) 0.0263(2)
H7_5 H 0.691567 0.691567 0.0470641
H11_5 H 0.808433 0.808433 0.0470641
O6_4 O 0.78144(12) 0.78144(12) 0.86607(15)
C9_5 C 0.7824(2) 0.7824(2) 0.9737(2)
C10_5 C 0.7500 0.7500 0.8882(3)
C11_5 C 0.7500 0.7500 0.9460(3)
C12_5 C 0.7176(2) 0.7176(2) 0.9737(2)
O16_6 O 0.86607(15) 0.78144(12) 0.78144(12)
H8_5 H 0.808433 0.808433 0.952936
H12_5 H 0.691567 0.691567 0.952936
O18_10 O 0.86607(15) 0.78144(12) 0.21856(12)
C13_6 C 0.0263(2) 0.2824(2) 0.7176(2)
C14_6 C 0.1118(3) 0.2500 0.7500
C15_6 C 0.0540(3) 0.2500 0.7500
C16_6 C 0.0263(2) 0.2176(2) 0.7824(2)
C17_6 C 0.0263(2) 0.7176(2) 0.7176(2)
C18_6 C 0.1118(3) 0.7500 0.7500
C19_6 C 0.0540(3) 0.7500 0.7500
C20_6 C 0.0263(2) 0.7824(2) 0.7824(2)
H4_6 H 0.0470641 0.691567 0.691567
H7_6 H 0.0470641 0.191567 0.808433
H9_6 H 0.0470641 0.808433 0.808433
H11_6 H 0.0470641 0.308433 0.691567
C9_6 C 0.9737(2) 0.2824(2) 0.7176(2)
C10_6 C 0.8882(3) 0.2500 0.7500
C11_6 C 0.9460(3) 0.2500 0.7500
C12_6 C 0.9737(2) 0.2176(2) 0.7824(2)
C21_6 C 0.9737(2) 0.7176(2) 0.7176(2)
C22_6 C 0.8882(3) 0.7500 0.7500
C23_6 C 0.9460(3) 0.7500 0.7500
C24_6 C 0.9737(2) 0.7824(2) 0.7824(2)
H5_6 H 0.952936 0.808433 0.808433
H6_6 H 0.952936 0.691567 0.691567
H8_6 H 0.952936 0.308433 0.691567
H12_6 H 0.952936 0.191567 0.808433
C17_7 C 0.0263(2) 0.7824(2) 0.2176(2)
C18_7 C 0.1118(3) 0.7500 0.2500
C19_7 C 0.0540(3) 0.7500 0.2500
C20_7 C 0.0263(2) 0.7176(2) 0.2824(2)
H4_7 H 0.0470641 0.808433 0.191567
H9_7 H 0.0470641 0.691567 0.308433
C21_7 C 0.9737(2) 0.7824(2) 0.2176(2)
C22_7 C 0.8882(3) 0.7500 0.2500
C23_7 C 0.9460(3) 0.7500 0.2500
C24_7 C 0.9737(2) 0.7176(2) 0.2824(2)
H5_7 H 0.952936 0.691567 0.308433
H6_7 H 0.952936 0.808433 0.191567
C17_8 C 0.0263(2) 0.2824(2) 0.2824(2)
C18_8 C 0.1118(3) 0.2500 0.2500
C19_8 C 0.0540(3) 0.2500 0.2500
C20_8 C 0.0263(2) 0.2176(2) 0.2176(2)
H4_8 H 0.0470641 0.308433 0.308433
H9_8 H 0.0470641 0.191567 0.191567
C21_8 C 0.9737(2) 0.2824(2) 0.2824(2)
C22_8 C 0.8882(3) 0.2500 0.2500
C23_8 C 0.9460(3) 0.2500 0.2500
C24_8 C 0.9737(2) 0.2176(2) 0.2176(2)
H5_8 H 0.952936 0.191567 0.191567
H6_8 H 0.952936 0.308433 0.308433
loop_
_geom_bond_atom_site_label_1
_geom_bond_atom_site_label_2
_geom_bond_site_symmetry_1
_geom_bond_site_symmetry_2
Zn1 O1 1_555 1_555
O1 Zn4 1_555 1_555
O2 Zn1 1_555 1_555
C1 C3 1_555 1_555
C2 O2 1_555 1_555
C3 C2 1_555 1_555
O3 C2 1_555 1_555
C4 C3 1_555 1_555
O4 C6 1_555 1_555
C5 C1 1_555 1_555
C6 C7 1_555 1_555
C7 C5 1_555 1_555
O5 C6 1_555 1_555
C8 C4 1_555 1_555
Zn2 O4 1_555 1_555
O6 Zn2 1_555 1_555
C9 C11 1_555 1_555
C10 O6 1_555 1_555
C11 C10 1_555 1_555
O7 C10 1_555 1_555
C12 C11 1_555 1_555
O8 C14 1_555 1_555
C13 C9 1_555 1_555
C14 C15 1_555 1_555
C15 C13 1_555 1_555
O9 C14 1_555 1_555
C16 C12 1_555 1_555
Zn3 O10 1_555 1_555
O10 C18 1_555 1_555
C17 C19 1_555 1_555
C18 C19 1_555 1_555
C19 C20 1_555 1_555
O11 C18 1_555 1_555
C20 C24 1_555 1_555
O12 Zn1 1_555 1_555
C21 C17 1_555 1_555
C22 O12 1_555 1_555
C23 C21 1_555 1_555
O13 C22 1_555 1_555
C24 C23 1_555 1_555
Zn4 O13 1_555 1_555
Zn5 O8 1_555 1_555
Zn6 O7 1_555 1_555
Zn7 O9 1_555 1_555
Zn8 O1 1_555 1_555
Zn9 O11 1_555 1_555
Zn10 O5 1_555 1_555
Zn11 O1 1_555 1_555
O14 Zn2 1_555 1_555
O15 Zn3 1_555 1_555
O16 Zn2 1_555 1_555
O17 Zn4 1_555 1_555
O18 Zn3 1_555 1_555
O19 Zn3 1_555 1_555
O20 Zn1 1_555 1_555
O21 Zn4 1_555 1_555
O3 Zn8 1_555 1_555
C7 C8 1_555 1_555
C15 C16 1_555 1_555
C22 C23 1_555 1_555
Zn6 O14 1_555 1_555
Zn9 O15 1_555 1_555
Zn10 O14 1_555 1_555
C4 H1 1_555 1_555
C1 H2 1_555 1_555
C5 H3 1_555 1_555
C17 H4 1_555 1_555
C24 H5 1_555 1_555
C21 H6 1_555 1_555
C16 H7 1_555 1_555
C9 H8 1_555 1_555
C20 H9 1_555 1_555
C8 H10 1_555 1_555
C13 H11 1_555 1_555
C12 H12 1_555 1_555
O6_2 Zn5 1_555 1_555
C9_2 C11_2 1_555 1_555
C10_2 O6_2 1_555 1_555
C11_2 C10_2 1_555 1_555
O7_2 C10_2 1_555 1_555
C12_2 C11_2 1_555 1_555
O19 C14_2 1_555 1_555
C13_2 C9_2 1_555 1_555
C14_2 C15_2 1_555 1_555
C15_2 C13_2 1_555 1_555
O9_2 C14_2 1_555 1_555
C16_2 C12_2 1_555 1_555
Zn6_2 O7_2 1_555 1_555
Zn7_2 O9_2 1_555 1_555
Zn11_2 O14 1_555 1_555
O14_2 Zn5 1_555 1_555
O16_2 Zn5 1_555 1_555
O17_2 Zn10 1_555 1_555
O21_2 Zn10 1_555 1_555
C15_2 C16_2 1_555 1_555
Zn6_2 O14_2 1_555 1_555
Zn7 O14_2 1_555 1_555
C16_2 H7_2 1_555 1_555
C9_2 H8_2 1_555 1_555
C13_2 H11_2 1_555 1_555
C12_2 H12_2 1_555 1_555
Zn11_3 O14_2 1_555 1_555
O17_3 Zn7 1_555 1_555
O21_3 Zn7 1_555 1_555
Zn7_2 O15 1_555 1_555
Zn11_4 O15 1_555 1_555
O17_4 Zn7_2 1_555 1_555
O21_4 Zn7_2 1_555 1_555
Zn1_2 O1_2 1_555 1_555
O1_2 Zn4_2 1_555 1_555
O2_2 Zn1_2 1_555 1_555
C1_2 C3_2 1_555 1_555
C2_2 O2_2 1_555 1_555
C3_2 C2_2 1_555 1_555
O3_2 C2_2 1_555 1_555
C4_2 C3_2 1_555 1_555
O21 C6_2 1_555 1_555
C5_2 C1_2 1_555 1_555
C6_2 C7_2 1_555 1_555
C7_2 C5_2 1_555 1_555
O5_2 C6_2 1_555 1_555
C8_2 C4_2 1_555 1_555
Zn3_2 O10_2 1_555 1_555
O10_2 C18_2 1_555 1_555
C17_2 C19_2 1_555 1_555
C18_2 C19_2 1_555 1_555
C19_2 C20_2 1_555 1_555
O11_2 C18_2 1_555 1_555
C20_2 C24_2 1_555 1_555
O12_2 Zn1_2 1_555 1_555
C21_2 C17_2 1_555 1_555
C22_2 O12_2 1_555 1_555
C23_2 C21_2 1_555 1_555
O13_2 C22_2 1_555 1_555
C24_2 C23_2 1_555 1_555
Zn4_2 O13_2 1_555 1_555
Zn8_2 O1_2 1_555 1_555
Zn9_2 O11_2 1_555 1_555
Zn8 O5_2 1_555 1_555
Zn11_5 O1_2 1_555 1_555
O15_2 Zn3_2 1_555 1_555
O17_5 Zn4_2 1_555 1_555
O18_2 Zn3_2 1_555 1_555
O19_2 Zn3_2 1_555 1_555
O20_2 Zn1_2 1_555 1_555
O21_5 Zn4_2 1_555 1_555
O3_2 Zn8_2 1_555 1_555
C7_2 C8_2 1_555 1_555
C22_2 C23_2 1_555 1_555
Zn9_2 O15_2 1_555 1_555
C4_2 H1_2 1_555 1_555
C1_2 H2_2 1_555 1_555
C5_2 H3_2 1_555 1_555
C17_2 H4_2 1_555 1_555
C24_2 H5_2 1_555 1_555
C21_2 H6_2 1_555 1_555
C20_2 H9_2 1_555 1_555
C8_2 H10_2 1_555 1_555
Zn1_3 O1_3 1_555 1_555
O1_3 Zn4_3 1_555 1_555
O2_3 Zn1_3 1_555 1_555
C1_3 C3_3 1_555 1_555
C2_3 O2_3 1_555 1_555
C3_3 C2_3 1_555 1_555
O3_3 C2_3 1_555 1_555
C4_3 C3_3 1_555 1_555
O21_5 C6_3 1_555 1_555
C5_3 C1_3 1_555 1_555
C6_3 C7_3 1_555 1_555
C7_3 C5_3 1_555 1_555
O5_3 C6_3 1_555 1_555
C8_3 C4_3 1_555 1_555
Zn3_3 O10_3 1_555 1_555
O10_3 C18_3 1_555 1_555
C17_3 C19_3 1_555 1_555
C18_3 C19_3 1_555 1_555
C19_3 C20_3 1_555 1_555
O11_3 C18_3 1_555 1_555
C20_3 C24_3 1_555 1_555
O12_3 Zn1_3 1_555 1_555
C21_3 C17_3 1_555 1_555
C22_3 O12_3 1_555 1_555
C23_3 C21_3 1_555 1_555
O13_3 C22_3 1_555 1_555
C24_3 C23_3 1_555 1_555
Zn4_3 O13_3 1_555 1_555
Zn8_3 O1_3 1_555 1_555
Zn9_3 O11_3 1_555 1_555
Zn8_2 O5_3 1_555 1_555
Zn11_6 O1_3 1_555 1_555
O15_3 Zn3_3 1_555 1_555
O17_6 Zn4_3 1_555 1_555
O18_3 Zn3_3 1_555 1_555
O19_3 Zn3_3 1_555 1_555
O20_3 Zn1_3 1_555 1_555
O21_6 Zn4_3 1_555 1_555
O3_3 Zn8_3 1_555 1_555
C7_3 C8_3 1_555 1_555
C22_3 C23_3 1_555 1_555
Zn9_3 O15_3 1_555 1_555
C4_3 H1_3 1_555 1_555
C1_3 H2_3 1_555 1_555
C5_3 H3_3 1_555 1_555
C17_3 H4_3 1_555 1_555
C24_3 H5_3 1_555 1_555
C21_3 H6_3 1_555 1_555
C20_3 H9_3 1_555 1_555
C8_3 H10_3 1_555 1_555
O2_4 Zn6 1_555 1_555
C1_4 C3_4 1_555 1_555
C2_4 O2_4 1_555 1_555
C3_4 C2_4 1_555 1_555
O21_2 C2_4 1_555 1_555
C4_4 C3_4 1_555 1_555
O21_6 C6_4 1_555 1_555
C5_4 C1_4 1_555 1_555
C6_4 C7_4 1_555 1_555
C7_4 C5_4 1_555 1_555
O5_4 C6_4 1_555 1_555
C8_4 C4_4 1_555 1_555
Zn8_3 O5_4 1_555 1_555
O20_4 Zn6 1_555 1_555
C7_4 C8_4 1_555 1_555
C4_4 H1_4 1_555 1_555
C1_4 H2_4 1_555 1_555
C5_4 H3_4 1_555 1_555
C8_4 H10_4 1_555 1_555
O16_3 Zn8_3 1_555 1_555
O18_4 Zn8 1_555 1_555
O20_5 Zn8_2 1_555 1_555
O2_5 Zn9_2 1_555 1_555
C1_5 C3_5 1_555 1_555
C2_5 O2_5 1_555 1_555
C3_5 C2_5 1_555 1_555
O3_4 C2_5 1_555 1_555
C4_5 C3_5 1_555 1_555
O19_3 C6_5 1_555 1_555
C5_5 C1_5 1_555 1_555
C6_5 C7_5 1_555 1_555
C7_5 C5_5 1_555 1_555
O5_5 C6_5 1_555 1_555
C8_5 C4_5 1_555 1_555
Zn8_4 O15_2 1_555 1_555
Zn10_2 O5_5 1_555 1_555
Zn11_7 O15_2 1_555 1_555
O20_6 Zn9_2 1_555 1_555
O3_4 Zn8_4 1_555 1_555
C7_5 C8_5 1_555 1_555
Zn10_2 O15_3 1_555 1_555
C4_5 H1_5 1_555 1_555
C1_5 H2_5 1_555 1_555
C5_5 H3_5 1_555 1_555
C8_5 H10_5 1_555 1_555
O6_3 Zn6_2 1_555 1_555
C9_3 C11_3 1_555 1_555
C10_3 O6_3 1_555 1_555
C11_3 C10_3 1_555 1_555
O21_3 C10_3 1_555 1_555
C12_3 C11_3 1_555 1_555
O8_2 C14_3 1_555 1_555
C13_3 C9_3 1_555 1_555
C14_3 C15_3 1_555 1_555
C15_3 C13_3 1_555 1_555
O9_3 C14_3 1_555 1_555
C16_3 C12_3 1_555 1_555
Zn8_4 O10_4 1_555 1_555
O10_4 C18_4 1_555 1_555
C17_4 C19_4 1_555 1_555
C18_4 C19_4 1_555 1_555
C19_4 C20_4 1_555 1_555
O19_2 C18_4 1_555 1_555
C20_4 C24_4 1_555 1_555
C21_4 C17_4 1_555 1_555
C22_4 O21_4 1_555 1_555
C23_4 C21_4 1_555 1_555
O13_4 C22_4 1_555 1_555
C24_4 C23_4 1_555 1_555
Zn9 O13_4 1_555 1_555
Zn10_2 O8_2 1_555 1_555
Zn9_3 O9_3 1_555 1_555
O16_4 Zn6_2 1_555 1_555
O17_7 Zn9 1_555 1_555
O18_5 Zn8_4 1_555 1_555
C15_3 C16_3 1_555 1_555
C22_4 C23_4 1_555 1_555
C17_4 H4_4 1_555 1_555
C24_4 H5_4 1_555 1_555
C21_4 H6_4 1_555 1_555
C16_3 H7_3 1_555 1_555
C9_3 H8_3 1_555 1_555
C20_4 H9_4 1_555 1_555
C13_3 H11_3 1_555 1_555
C12_3 H12_3 1_555 1_555
O18_6 Zn9_3 1_555 1_555
O18_7 Zn10_2 1_555 1_555
Zn11_8 O15_3 1_555 1_555
C1_6 C3_6 1_555 1_555
C2_6 O17_6 1_555 1_555
C3_6 C2_6 1_555 1_555
O3_5 C2_6 1_555 1_555
C4_6 C3_6 1_555 1_555
O3_5 Zn11_6 1_555 1_555
C4_6 H1_6 1_555 1_555
C1_6 H2_6 1_555 1_555
O20_2 C6_6 1_555 1_555
C6_6 C7_6 1_555 1_555
C7_6 C5_6 1_555 1_555
O5_6 C6_6 1_555 1_555
Zn11_5 O5_6 1_555 1_555
C7_6 C8_6 1_555 1_555
C5_6 H3_6 1_555 1_555
C8_6 H10_6 1_555 1_555
O18_6 C14_4 1_555 1_555
C14_4 C15_4 1_555 1_555
C15_4 C13_4 1_555 1_555
O9_4 C14_4 1_555 1_555
Zn11_8 O9_4 1_555 1_555
C15_4 C16_4 1_555 1_555
C16_4 H7_4 1_555 1_555
C13_4 H11_4 1_555 1_555
C9_4 C11_4 1_555 1_555
C10_4 O18_2 1_555 1_555
C11_4 C10_4 1_555 1_555
O7_3 C10_4 1_555 1_555
C12_4 C11_4 1_555 1_555
Zn11_7 O7_3 1_555 1_555
O17_8 Zn11_5 1_555 1_555
O21_7 Zn11_5 1_555 1_555
C9_4 H8_4 1_555 1_555
C12_4 H12_4 1_555 1_555
O17_9 Zn11_8 1_555 1_555
O21_8 Zn11_8 1_555 1_555
C1_7 C3_7 1_555 1_555
C2_7 O16 1_555 1_555
C3_7 C2_7 1_555 1_555
O3_6 C2_7 1_555 1_555
C4_7 C3_7 1_555 1_555
O3_6 Zn11_2 1_555 1_555
C4_7 H1_7 1_555 1_555
C1_7 H2_7 1_555 1_555
O20_3 C6_7 1_555 1_555
C6_7 C7_7 1_555 1_555
C7_7 C5_7 1_555 1_555
O5_7 C6_7 1_555 1_555
Zn11_6 O5_7 1_555 1_555
C7_7 C8_7 1_555 1_555
C5_7 H3_7 1_555 1_555
C8_7 H10_7 1_555 1_555
O20_4 C6_8 1_555 1_555
C6_8 C7_8 1_555 1_555
C7_8 C5_8 1_555 1_555
O5_8 C6_8 1_555 1_555
Zn11_2 O5_8 1_555 1_555
C7_8 C8_8 1_555 1_555
C5_8 H3_8 1_555 1_555
C8_8 H10_8 1_555 1_555
C1_8 C3_8 1_555 1_555
C2_8 O17 1_555 1_555
C3_8 C2_8 1_555 1_555
O3_7 C2_8 1_555 1_555
C4_8 C3_8 1_555 1_555
O3_7 Zn11 1_555 1_555
C4_8 H1_8 1_555 1_555
C1_8 H2_8 1_555 1_555
O20 C6_9 1_555 1_555
C6_9 C7_9 1_555 1_555
C7_9 C5_9 1_555 1_555
O5_9 C6_9 1_555 1_555
Zn11 O5_9 1_555 1_555
C7_9 C8_9 1_555 1_555
C5_9 H3_9 1_555 1_555
C8_9 H10_9 1_555 1_555
C1_9 C3_9 1_555 1_555
C2_9 O17_5 1_555 1_555
C3_9 C2_9 1_555 1_555
O21_7 C2_9 1_555 1_555
C4_9 C3_9 1_555 1_555
C4_9 H1_9 1_555 1_555
C1_9 H2_9 1_555 1_555
O20_7 Zn11_2 1_555 1_555
O18_8 Zn11_6 1_555 1_555
O16_5 Zn11 1_555 1_555
C1_10 C3_10 1_555 1_555
C2_10 O17_3 1_555 1_555
C3_10 C2_10 1_555 1_555
O3_8 C2_10 1_555 1_555
C4_10 C3_10 1_555 1_555
O3_8 Zn11_3 1_555 1_555
C4_10 H1_10 1_555 1_555
C1_10 H2_10 1_555 1_555
O17_7 C6_10 1_555 1_555
C6_10 C7_10 1_555 1_555
C7_10 C5_10 1_555 1_555
O5_10 C6_10 1_555 1_555
Zn11_4 O5_10 1_555 1_555
C7_10 C8_10 1_555 1_555
C5_10 H3_10 1_555 1_555
C8_10 H10_10 1_555 1_555
Zn11_3 O10_5 1_555 1_555
O10_5 C18_5 1_555 1_555
C17_5 C19_5 1_555 1_555
C18_5 C19_5 1_555 1_555
C19_5 C20_5 1_555 1_555
O16_2 C18_5 1_555 1_555
O18_9 Zn11_3 1_555 1_555
C17_5 H4_5 1_555 1_555
C20_5 H9_5 1_555 1_555
C22_5 O21_8 1_555 1_555
C23_5 C21_5 1_555 1_555
O18_3 C22_5 1_555 1_555
C24_5 C23_5 1_555 1_555
C22_5 C23_5 1_555 1_555
C24_5 H5_5 1_555 1_555
C21_5 H6_5 1_555 1_555
O8_3 C14_5 1_555 1_555
C14_5 C15_5 1_555 1_555
C15_5 C13_5 1_555 1_555
O18 C14_5 1_555 1_555
Zn11_4 O8_3 1_555 1_555
C15_5 C16_5 1_555 1_555
C16_5 H7_5 1_555 1_555
C13_5 H11_5 1_555 1_555
O6_4 Zn11_7 1_555 1_555
C9_5 C11_5 1_555 1_555
C10_5 O6_4 1_555 1_555
C11_5 C10_5 1_555 1_555
O20_6 C10_5 1_555 1_555
C12_5 C11_5 1_555 1_555
O16_6 Zn11_7 1_555 1_555
C9_5 H8_5 1_555 1_555
C12_5 H12_5 1_555 1_555
O18_10 Zn11_4 1_555 1_555
O16_3 C14_6 1_555 1_555
C14_6 C15_6 1_555 1_555
C15_6 C13_6 1_555 1_555
O18_8 C14_6 1_555 1_555
O20_5 C18_6 1_555 1_555
C17_6 C19_6 1_555 1_555
C18_6 C19_6 1_555 1_555
C19_6 C20_6 1_555 1_555
O17_8 C18_6 1_555 1_555
C15_6 C16_6 1_555 1_555
C17_6 H4_6 1_555 1_555
C16_6 H7_6 1_555 1_555
C20_6 H9_6 1_555 1_555
C13_6 H11_6 1_555 1_555
C9_6 C11_6 1_555 1_555
C10_6 O18_7 1_555 1_555
C11_6 C10_6 1_555 1_555
O17_9 C10_6 1_555 1_555
C12_6 C11_6 1_555 1_555
C22_6 O18_5 1_555 1_555
C23_6 C21_6 1_555 1_555
O16_6 C22_6 1_555 1_555
C24_6 C23_6 1_555 1_555
C22_6 C23_6 1_555 1_555
C24_6 H5_6 1_555 1_555
C21_6 H6_6 1_555 1_555
C9_6 H8_6 1_555 1_555
C12_6 H12_6 1_555 1_555
O16_5 C18_7 1_555 1_555
C17_7 C19_7 1_555 1_555
C18_7 C19_7 1_555 1_555
C19_7 C20_7 1_555 1_555
O18_4 C18_7 1_555 1_555
C17_7 H4_7 1_555 1_555
C20_7 H9_7 1_555 1_555
C22_7 O18_10 1_555 1_555
C23_7 C21_7 1_555 1_555
O17_4 C22_7 1_555 1_555
C24_7 C23_7 1_555 1_555
C22_7 C23_7 1_555 1_555
C24_7 H5_7 1_555 1_555
C21_7 H6_7 1_555 1_555
O17_2 C18_8 1_555 1_555
C17_8 C19_8 1_555 1_555
C18_8 C19_8 1_555 1_555
C19_8 C20_8 1_555 1_555
O20_7 C18_8 1_555 1_555
C17_8 H4_8 1_555 1_555
C20_8 H9_8 1_555 1_555
C22_8 O16_4 1_555 1_555
C23_8 C21_8 1_555 1_555
O18_9 C22_8 1_555 1_555
C24_8 C23_8 1_555 1_555
C22_8 C23_8 1_555 1_555
C24_8 H5_8 1_555 1_555
C21_8 H6_8 1_555 1_555

#END
