
###############################################################################
#
# This file contains modified crystal structure data generated from the
# MOF subset of the Cambridge Structural Database (CSD) v543 
# hosted by the Cambridge Crystallographic Data Centre (CCDC).
#
# This work is licensed under the Creative Commons
# Attribution-NonCommercial-ShareAlike 4.0 International License.
# To view a copy of this license, visit
# http://creativecommons.org/licenses/by-nc-sa/4.0/
# or send a letter to
# Creative Commons, PO Box 1866, Mountain View, CA 94042, USA.
#
# CIF created using the CSD Python API on 29 September 2022
# The structure has been converted into the P1 space group
# The structure has a 3D framework
# The original CSD entry HIFVUO is in the tetragonal crystal system
# The framework has been calculated to contain at least 10.0% void space
# The void calculation uses a probe of radius 1.32A, grid spacing 0.4
#
###############################################################################

data_HIFVUO
_chemical_formula_moiety         '(C96 H96 N60 Zn16)n'
_symmetry_cell_setting           triclinic
_symmetry_space_group_name_H-M   'P 1'
_symmetry_Int_Tables_number      1
_space_group_name_Hall           'P 1'
loop_
_symmetry_equiv_pos_site_id
_symmetry_equiv_pos_as_xyz
1 x,y,z
_cell_length_a                   18.389(4)
_cell_length_b                   18.389(4)
_cell_length_c                   19.129(5)
_cell_angle_alpha                90
_cell_angle_beta                 90
_cell_angle_gamma                90
_cell_volume                     6468.57
loop_
_atom_site_label
_atom_site_type_symbol
_atom_site_fract_x
_atom_site_fract_y
_atom_site_fract_z
Zn1 Zn 0.68429(4) 0.11813(4) 0.40694(3)
N1 N 0.6953(3) 0.0788(3) 0.5025(2)
N2 N 0.6731(3) 0.0129(3) 0.5984(2)
N3 N 0.5917(3) 0.0814(3) 0.3672(3)
N4 N 0.4753(3) 0.0608(3) 0.3431(3)
C1 C 0.6532(3) 0.0335(3) 0.5347(3)
H1 H 0.6108 0.0160 0.5141
C2 C 0.7522(5) 0.0848(5) 0.5482(5)
H2 H 0.7947 0.1109 0.5401
C3 C 0.7374(5) 0.0477(5) 0.6057(4)
H3 H 0.7668 0.0458 0.6452
C4 C 0.5244(4) 0.0994(4) 0.3771(3)
H4 H 0.5114 0.1374 0.4067
C5 C 0.5871(6) 0.0241(7) 0.3260(7)
C6 C 0.5147(6) 0.0105(7) 0.3083(7)
Zn3 Zn 0.36813(4) 0.06571(4) 0.34306(3)
N5 N 0.7629(3) 0.0769(3) 0.3484(2)
N6 N 0.6892(3) 0.2253(3) 0.4069(3)
H5 H 0.6266 0.9966 0.3109
H6 H 0.4973 0.9743 0.2787
Zn2 Zn 0.63187(4) 0.93429(4) 0.65694(3)
C2_2 C 0.6652(5) 0.0022(5) 0.7982(5)
H2_2 H 0.6391 0.0447 0.7901
H3_2 H 0.7042 0.0168 0.8952
N1_2 N 0.6712(3) 0.9453(3) 0.7525(2)
N2_2 N 0.7371(3) 0.9231(3) 0.8484(2)
N3_2 N 0.6686(3) 0.8417(3) 0.6172(3)
N4_2 N 0.6892(3) 0.7253(3) 0.5931(3)
C1_2 C 0.7165(3) 0.9032(3) 0.7847(3)
H1_2 H 0.7340 0.8608 0.7641
C3_2 C 0.7023(5) 0.9874(5) 0.8557(4)
C4_2 C 0.6506(4) 0.7744(4) 0.6271(3)
H4_2 H 0.6126 0.7614 0.6567
C5_2 C 0.7259(7) 0.8371(6) 0.5760(7)
H5_2 H 0.7534 0.8766 0.5609
C6_2 C 0.7395(7) 0.7647(6) 0.5583(7)
H6_2 H 0.7757 0.7473 0.5287
Zn2_2 Zn 0.81571(4) 0.88187(4) 0.90694(3)
Zn3_2 Zn 0.68429(4) 0.61813(4) 0.59306(3)
N6_2 N 0.5247(3) 0.9392(3) 0.6569(3)
N1_3 N 0.1953(3) 0.5788(3) 0.0025(2)
N2_3 N 0.1731(3) 0.5129(3) 0.0984(2)
C1_3 C 0.1532(3) 0.5335(3) 0.0347(3)
H1_3 H 0.1108 0.5160 0.0141
C2_3 C 0.2522(5) 0.5848(5) 0.0482(5)
H2_3 H 0.2947 0.6109 0.0401
C3_3 C 0.2374(5) 0.5477(5) 0.1057(4)
H3_3 H 0.2668 0.5458 0.1452
Zn2_3 Zn 0.13187(4) 0.43429(4) 0.15694(3)
Zn1_2 Zn 0.18429(4) 0.61813(4) 0.90694(3)
N3_3 N 0.0917(3) 0.5814(3) 0.8672(3)
C4_3 C 0.0244(4) 0.5994(4) 0.8771(3)
H4_3 H 0.0114 0.6374 0.9067
C5_3 C 0.0871(6) 0.5241(7) 0.8260(7)
H5_3 H 0.1266 0.4966 0.8109
C6_3 C 0.0147(6) 0.5105(7) 0.8083(7)
N5_2 N 0.2629(3) 0.5769(3) 0.8484(2)
N6_3 N 0.1892(3) 0.7253(3) 0.9069(3)
N4_3 N 0.9753(3) 0.5608(3) 0.8431(3)
H6_3 H 0.9973 0.4743 0.7787
Zn3_3 Zn 0.86813(4) 0.56571(4) 0.84306(3)
N1_4 N 0.1712(3) 0.4453(3) 0.2525(2)
N2_4 N 0.2371(3) 0.4231(3) 0.3484(2)
N3_4 N 0.1686(3) 0.3417(3) 0.1172(3)
N4_4 N 0.1892(3) 0.2253(3) 0.0931(3)
C1_4 C 0.2165(3) 0.4032(3) 0.2847(3)
H1_4 H 0.2340 0.3608 0.2641
C2_4 C 0.1652(5) 0.5022(5) 0.2982(5)
H2_4 H 0.1391 0.5447 0.2901
C3_4 C 0.2023(5) 0.4874(5) 0.3557(4)
H3_4 H 0.2042 0.5168 0.3952
C4_4 C 0.1506(4) 0.2744(4) 0.1271(3)
H4_4 H 0.1126 0.2614 0.1567
C5_4 C 0.2259(7) 0.3371(6) 0.0760(7)
H5_4 H 0.2534 0.3766 0.0609
C6_4 C 0.2395(7) 0.2647(6) 0.0583(7)
H6_4 H 0.2757 0.2473 0.0287
Zn2_4 Zn 0.31571(4) 0.38187(4) 0.40694(3)
Zn3_4 Zn 0.18429(4) 0.11813(4) 0.09306(3)
N6_4 N 0.0247(3) 0.4392(3) 0.1569(3)
Zn1_3 Zn 0.36813(4) 0.56571(4) 0.65694(3)
N1_5 N 0.3288(3) 0.5547(3) 0.7525(2)
N3_5 N 0.3314(3) 0.6583(3) 0.6172(3)
N4_5 N 0.3108(3) 0.7747(3) 0.5931(3)
C1_5 C 0.2835(3) 0.5968(3) 0.7847(3)
H1_5 H 0.2660 0.6392 0.7641
C2_5 C 0.3348(5) 0.4978(5) 0.7982(5)
H2_5 H 0.3609 0.4553 0.7901
C3_5 C 0.2977(5) 0.5126(5) 0.8557(4)
H3_5 H 0.2958 0.4832 0.8952
C4_5 C 0.3494(4) 0.7256(4) 0.6271(3)
H4_5 H 0.3874 0.7386 0.6567
C5_5 C 0.2741(7) 0.6629(6) 0.5760(7)
H5_5 H 0.2466 0.6234 0.5609
C6_5 C 0.2605(7) 0.7353(6) 0.5583(7)
H6_5 H 0.2243 0.7527 0.5287
Zn3_5 Zn 0.31571(4) 0.88187(4) 0.59306(3)
N5_3 N 0.3269(3) 0.4871(3) 0.5984(2)
N6_5 N 0.4753(3) 0.5608(3) 0.6569(3)
N4_6 N 0.0247(3) 0.9392(3) 0.8431(3)
Zn3_6 Zn 0.13187(4) 0.93429(4) 0.84306(3)
Zn2_5 Zn 0.86813(4) 0.06571(4) 0.15694(3)
N3_6 N 0.9083(3) 0.9186(3) 0.8672(3)
C4_6 C 0.9756(4) 0.9006(4) 0.8771(3)
H4_6 H 0.9886 0.8626 0.9067
C5_6 C 0.9129(6) 0.9759(7) 0.8260(7)
C6_6 C 0.9853(6) 0.9895(7) 0.8083(7)
N6_6 N 0.8108(3) 0.7747(3) 0.9069(3)
N1_6 N 0.8288(3) 0.0547(3) 0.2525(2)
N3_7 N 0.8314(3) 0.1583(3) 0.1172(3)
N4_7 N 0.8108(3) 0.2747(3) 0.0931(3)
C1_6 C 0.7835(3) 0.0968(3) 0.2847(3)
H1_6 H 0.7660 0.1392 0.2641
C3_6 C 0.7977(5) 0.0126(5) 0.3557(4)
C4_7 C 0.8494(4) 0.2256(4) 0.1271(3)
H4_7 H 0.8874 0.2386 0.1567
C5_7 C 0.7741(7) 0.1629(6) 0.0760(7)
H5_6 H 0.7466 0.1234 0.0609
C6_7 C 0.7605(7) 0.2353(6) 0.0583(7)
H6_6 H 0.7243 0.2527 0.0287
Zn3_7 Zn 0.81571(4) 0.38187(4) 0.09306(3)
N6_7 N 0.9753(3) 0.0608(3) 0.1569(3)
N1_7 N 0.3047(3) 0.4212(3) 0.5025(2)
N3_8 N 0.4083(3) 0.4186(3) 0.3672(3)
N4_8 N 0.5247(3) 0.4392(3) 0.3431(3)
C1_7 C 0.3468(3) 0.4665(3) 0.5347(3)
H1_7 H 0.3892 0.4840 0.5141
C2_6 C 0.2478(5) 0.4152(5) 0.5482(5)
H2_6 H 0.2053 0.3891 0.5401
C3_7 C 0.2626(5) 0.4523(5) 0.6057(4)
H3_6 H 0.2332 0.4542 0.6452
C4_8 C 0.4756(4) 0.4006(4) 0.3771(3)
H4_8 H 0.4886 0.3626 0.4067
C5_8 C 0.4129(6) 0.4759(7) 0.3260(7)
H5_7 H 0.3734 0.5034 0.3109
C6_8 C 0.4853(6) 0.4895(7) 0.3083(7)
H6_7 H 0.5027 0.5257 0.2787
Zn3_8 Zn 0.63187(4) 0.43429(4) 0.34306(3)
N6_8 N 0.3108(3) 0.2747(3) 0.4069(3)
H5_8 H 0.3734 0.0034 0.6891
H6_8 H 0.5027 0.0257 0.7213
N1_8 N 0.3047(3) 0.9212(3) 0.4975(2)
N2_5 N 0.3269(3) 0.9871(3) 0.4016(2)
N3_9 N 0.4083(3) 0.9186(3) 0.6328(3)
C1_8 C 0.3468(3) 0.9665(3) 0.4653(3)
H1_8 H 0.3892 0.9840 0.4859
C2_7 C 0.2478(5) 0.9152(5) 0.4518(5)
H2_7 H 0.2053 0.8891 0.4599
C3_8 C 0.2626(5) 0.9523(5) 0.3943(4)
H3_7 H 0.2332 0.9542 0.3548
C4_9 C 0.4756(4) 0.9006(4) 0.6229(3)
H4_9 H 0.4886 0.8626 0.5933
C5_9 C 0.4129(6) 0.9759(7) 0.6740(7)
C6_9 C 0.4853(6) 0.9895(7) 0.6917(7)
N5_4 N 0.2371(3) 0.9231(3) 0.6516(2)
N1_9 N 0.3288(3) 0.0547(3) 0.2475(2)
N2_6 N 0.2629(3) 0.0769(3) 0.1516(2)
N3_10 N 0.3314(3) 0.1583(3) 0.3828(3)
C1_9 C 0.2835(3) 0.0968(3) 0.2153(3)
H1_9 H 0.2660 0.1392 0.2359
C3_9 C 0.2977(5) 0.0126(5) 0.1443(4)
C4_10 C 0.3494(4) 0.2256(4) 0.3729(3)
H4_10 H 0.3874 0.2386 0.3433
C5_10 C 0.2741(7) 0.1629(6) 0.4240(7)
H5_9 H 0.2466 0.1234 0.4391
C6_10 C 0.2605(7) 0.2353(6) 0.4417(7)
H6_9 H 0.2243 0.2527 0.4713
C2_8 C 0.3348(5) 0.9978(5) 0.2018(5)
H2_8 H 0.3609 0.9553 0.2099
H3_8 H 0.2958 0.9832 0.1048
H6_10 H 0.0027 0.5257 0.2213
N3_11 N 0.9083(3) 0.4186(3) 0.1328(3)
C4_11 C 0.9756(4) 0.4006(4) 0.1229(3)
H4_11 H 0.9886 0.3626 0.0933
C5_11 C 0.9129(6) 0.4759(7) 0.1740(7)
H5_10 H 0.8734 0.5034 0.1891
C6_11 C 0.9853(6) 0.4895(7) 0.1917(7)
N5_5 N 0.7371(3) 0.4231(3) 0.1516(2)
N1_10 N 0.8047(3) 0.4212(3) 0.9975(2)
N2_7 N 0.8269(3) 0.4871(3) 0.9016(2)
C1_10 C 0.8468(3) 0.4665(3) 0.9653(3)
H1_10 H 0.8892 0.4840 0.9859
C2_9 C 0.7478(5) 0.4152(5) 0.9518(5)
H2_9 H 0.7053 0.3891 0.9599
C3_10 C 0.7626(5) 0.4523(5) 0.8943(4)
H3_9 H 0.7332 0.4542 0.8548
N1_11 N 0.8288(3) 0.5547(3) 0.7475(2)
N2_8 N 0.7629(3) 0.5769(3) 0.6516(2)
N3_12 N 0.8314(3) 0.6583(3) 0.8828(3)
C1_11 C 0.7835(3) 0.5968(3) 0.7153(3)
H1_11 H 0.7660 0.6392 0.7359
C2_10 C 0.8348(5) 0.4978(5) 0.7018(5)
H2_10 H 0.8609 0.4553 0.7099
C3_11 C 0.7977(5) 0.5126(5) 0.6443(4)
H3_10 H 0.7958 0.4832 0.6048
C4_12 C 0.8494(4) 0.7256(4) 0.8729(3)
H4_12 H 0.8874 0.7386 0.8433
C5_12 C 0.7741(7) 0.6629(6) 0.9240(7)
H5_11 H 0.7466 0.6234 0.9391
C6_12 C 0.7605(7) 0.7353(6) 0.9417(7)
H6_11 H 0.7243 0.7527 0.9713
N1_12 N 0.6712(3) 0.4453(3) 0.2475(2)
N3_13 N 0.6686(3) 0.3417(3) 0.3828(3)
C1_12 C 0.7165(3) 0.4032(3) 0.2153(3)
H1_12 H 0.7340 0.3608 0.2359
C2_11 C 0.6652(5) 0.5022(5) 0.2018(5)
H2_11 H 0.6391 0.5447 0.2099
C3_12 C 0.7023(5) 0.4874(5) 0.1443(4)
H3_11 H 0.7042 0.5168 0.1048
C4_13 C 0.6506(4) 0.2744(4) 0.3729(3)
H4_13 H 0.6126 0.2614 0.3433
C5_13 C 0.7259(7) 0.3371(6) 0.4240(7)
H5_12 H 0.7534 0.3766 0.4391
C6_13 C 0.7395(7) 0.2647(6) 0.4417(7)
H6_12 H 0.7757 0.2473 0.4713
N5_6 N 0.6731(3) 0.5129(3) 0.4016(2)
N3_14 N 0.0917(3) 0.0814(3) 0.1328(3)
C4_14 C 0.0244(4) 0.0994(4) 0.1229(3)
H4_14 H 0.0114 0.1374 0.0933
C5_14 C 0.0871(6) 0.0241(7) 0.1740(7)
C6_14 C 0.0147(6) 0.0105(7) 0.1917(7)
N1_13 N 0.1712(3) 0.9453(3) 0.7475(2)
N3_15 N 0.1686(3) 0.8417(3) 0.8828(3)
C1_13 C 0.2165(3) 0.9032(3) 0.7153(3)
H1_13 H 0.2340 0.8608 0.7359
C3_13 C 0.2023(5) 0.9874(5) 0.6443(4)
C4_15 C 0.1506(4) 0.7744(4) 0.8729(3)
H4_15 H 0.1126 0.7614 0.8433
C5_15 C 0.2259(7) 0.8371(6) 0.9240(7)
H5_13 H 0.2534 0.8766 0.9391
C6_15 C 0.2395(7) 0.7647(6) 0.9417(7)
H6_13 H 0.2757 0.7473 0.9713
N1_14 N 0.6953(3) 0.5788(3) 0.4975(2)
N3_16 N 0.5917(3) 0.5814(3) 0.6328(3)
C1_14 C 0.6532(3) 0.5335(3) 0.4653(3)
H1_14 H 0.6108 0.5160 0.4859
C2_12 C 0.7522(5) 0.5848(5) 0.4518(5)
H2_12 H 0.7947 0.6109 0.4599
C3_14 C 0.7374(5) 0.5477(5) 0.3943(4)
H3_12 H 0.7668 0.5458 0.3548
C4_16 C 0.5244(4) 0.5994(4) 0.6229(3)
H4_16 H 0.5114 0.6374 0.5933
C5_16 C 0.5871(6) 0.5241(7) 0.6740(7)
H5_14 H 0.6266 0.4966 0.6891
C6_16 C 0.5147(6) 0.5105(7) 0.6917(7)
H6_14 H 0.4973 0.4743 0.7213
H6_15 H 0.0027 0.0257 0.7787
H5_15 H 0.8734 0.0034 0.8109
N1_15 N 0.8047(3) 0.9212(3) 0.0025(2)
N2_9 N 0.8269(3) 0.9871(3) 0.0984(2)
C1_15 C 0.8468(3) 0.9665(3) 0.0347(3)
H1_15 H 0.8892 0.9840 0.0141
C2_13 C 0.7478(5) 0.9152(5) 0.0482(5)
H2_13 H 0.7053 0.8891 0.0401
C3_15 C 0.7626(5) 0.9523(5) 0.1057(4)
H3_13 H 0.7332 0.9542 0.1452
C2_14 C 0.8348(5) 0.9978(5) 0.2982(5)
H2_14 H 0.8609 0.9553 0.2901
H3_14 H 0.7958 0.9832 0.3952
N1_16 N 0.1953(3) 0.0788(3) 0.9975(2)
N2_10 N 0.1731(3) 0.0129(3) 0.9016(2)
C1_16 C 0.1532(3) 0.0335(3) 0.9653(3)
H1_16 H 0.1108 0.0160 0.9859
C2_15 C 0.2522(5) 0.0848(5) 0.9518(5)
H2_15 H 0.2947 0.1109 0.9599
C3_16 C 0.2374(5) 0.0477(5) 0.8943(4)
H3_15 H 0.2668 0.0458 0.8548
C2_16 C 0.1652(5) 0.0022(5) 0.7018(5)
H2_16 H 0.1391 0.0447 0.7099
H3_16 H 0.2042 0.0168 0.6048
H5_16 H 0.1266 0.9966 0.1891
H6_16 H 0.9973 0.9743 0.2213
loop_
_geom_bond_atom_site_label_1
_geom_bond_atom_site_label_2
_geom_bond_site_symmetry_1
_geom_bond_site_symmetry_2
Zn1 N1 1_555 1_555
N1 C1 1_555 1_555
N2 C1 1_555 1_555
N3 Zn1 1_555 1_555
N4 C4 1_555 1_555
C1 H1 1_555 1_555
C2 N1 1_555 1_555
H2 C2 1_555 1_555
C3 N2 1_555 1_555
H3 C3 1_555 1_555
C4 N3 1_555 1_555
H4 C4 1_555 1_555
C5 N3 1_555 1_555
C6 N4 1_555 1_555
Zn3 N4 1_555 1_555
N5 Zn1 1_555 1_555
N6 Zn1 1_555 1_555
C2 C3 1_555 1_555
C5 C6 1_555 1_555
H2_2 C2_2 1_555 1_555
Zn2 N1_2 1_555 1_555
N1_2 C1_2 1_555 1_555
N2_2 C1_2 1_555 1_555
N3_2 Zn2 1_555 1_555
N4_2 C4_2 1_555 1_555
C1_2 H1_2 1_555 1_555
C3_2 N2_2 1_555 1_555
C4_2 N3_2 1_555 1_555
H4_2 C4_2 1_555 1_555
C5_2 N3_2 1_555 1_555
H5_2 C5_2 1_555 1_555
C6_2 N4_2 1_555 1_555
H6_2 C6_2 1_555 1_555
Zn2_2 N2_2 1_555 1_555
Zn3_2 N4_2 1_555 1_555
N6_2 Zn2 1_555 1_555
C5_2 C6_2 1_555 1_555
N1_3 C1_3 1_555 1_555
N2_3 C1_3 1_555 1_555
C1_3 H1_3 1_555 1_555
C2_3 N1_3 1_555 1_555
H2_3 C2_3 1_555 1_555
C3_3 N2_3 1_555 1_555
H3_3 C3_3 1_555 1_555
Zn2_3 N2_3 1_555 1_555
C2_3 C3_3 1_555 1_555
N3_3 Zn1_2 1_555 1_555
C4_3 N3_3 1_555 1_555
H4_3 C4_3 1_555 1_555
C5_3 N3_3 1_555 1_555
H5_3 C5_3 1_555 1_555
N5_2 Zn1_2 1_555 1_555
N6_3 Zn1_2 1_555 1_555
C5_3 C6_3 1_555 1_555
Zn3_3 N4_3 1_555 1_555
Zn2_3 N1_4 1_555 1_555
N1_4 C1_4 1_555 1_555
N2_4 C1_4 1_555 1_555
N3_4 Zn2_3 1_555 1_555
N4_4 C4_4 1_555 1_555
C1_4 H1_4 1_555 1_555
C2_4 N1_4 1_555 1_555
H2_4 C2_4 1_555 1_555
C3_4 N2_4 1_555 1_555
H3_4 C3_4 1_555 1_555
C4_4 N3_4 1_555 1_555
H4_4 C4_4 1_555 1_555
C5_4 N3_4 1_555 1_555
H5_4 C5_4 1_555 1_555
C6_4 N4_4 1_555 1_555
H6_4 C6_4 1_555 1_555
Zn2_4 N2_4 1_555 1_555
Zn3_4 N4_4 1_555 1_555
N6_4 Zn2_3 1_555 1_555
C2_4 C3_4 1_555 1_555
C5_4 C6_4 1_555 1_555
Zn1_3 N1_5 1_555 1_555
N1_5 C1_5 1_555 1_555
N5_2 C1_5 1_555 1_555
N3_5 Zn1_3 1_555 1_555
N4_5 C4_5 1_555 1_555
C1_5 H1_5 1_555 1_555
C2_5 N1_5 1_555 1_555
H2_5 C2_5 1_555 1_555
C3_5 N5_2 1_555 1_555
H3_5 C3_5 1_555 1_555
C4_5 N3_5 1_555 1_555
H4_5 C4_5 1_555 1_555
C5_5 N3_5 1_555 1_555
H5_5 C5_5 1_555 1_555
C6_5 N4_5 1_555 1_555
H6_5 C6_5 1_555 1_555
Zn3_5 N4_5 1_555 1_555
N5_3 Zn1_3 1_555 1_555
N6_5 Zn1_3 1_555 1_555
C2_5 C3_5 1_555 1_555
C5_5 C6_5 1_555 1_555
Zn3_6 N4_6 1_555 1_555
N3_6 Zn2_2 1_555 1_555
C4_6 N3_6 1_555 1_555
H4_6 C4_6 1_555 1_555
C5_6 N3_6 1_555 1_555
N6_6 Zn2_2 1_555 1_555
C5_6 C6_6 1_555 1_555
Zn2_5 N1_6 1_555 1_555
N1_6 C1_6 1_555 1_555
N5 C1_6 1_555 1_555
N3_7 Zn2_5 1_555 1_555
N4_7 C4_7 1_555 1_555
C1_6 H1_6 1_555 1_555
C3_6 N5 1_555 1_555
C4_7 N3_7 1_555 1_555
H4_7 C4_7 1_555 1_555
C5_7 N3_7 1_555 1_555
H5_6 C5_7 1_555 1_555
C6_7 N4_7 1_555 1_555
H6_6 C6_7 1_555 1_555
Zn3_7 N4_7 1_555 1_555
N6_7 Zn2_5 1_555 1_555
C5_7 C6_7 1_555 1_555
Zn2_4 N1_7 1_555 1_555
N1_7 C1_7 1_555 1_555
N5_3 C1_7 1_555 1_555
N3_8 Zn2_4 1_555 1_555
N4_8 C4_8 1_555 1_555
C1_7 H1_7 1_555 1_555
C2_6 N1_7 1_555 1_555
H2_6 C2_6 1_555 1_555
C3_7 N5_3 1_555 1_555
H3_6 C3_7 1_555 1_555
C4_8 N3_8 1_555 1_555
H4_8 C4_8 1_555 1_555
C5_8 N3_8 1_555 1_555
H5_7 C5_8 1_555 1_555
C6_8 N4_8 1_555 1_555
H6_7 C6_8 1_555 1_555
Zn3_8 N4_8 1_555 1_555
N6_8 Zn2_4 1_555 1_555
C2_6 C3_7 1_555 1_555
C5_8 C6_8 1_555 1_555
Zn3_5 N1_8 1_555 1_555
N1_8 C1_8 1_555 1_555
N2_5 C1_8 1_555 1_555
N3_9 Zn3_5 1_555 1_555
N6_2 C4_9 1_555 1_555
C1_8 H1_8 1_555 1_555
C2_7 N1_8 1_555 1_555
H2_7 C2_7 1_555 1_555
C3_8 N2_5 1_555 1_555
H3_7 C3_8 1_555 1_555
C4_9 N3_9 1_555 1_555
H4_9 C4_9 1_555 1_555
C5_9 N3_9 1_555 1_555
C6_9 N6_2 1_555 1_555
N5_4 Zn3_5 1_555 1_555
C2_7 C3_8 1_555 1_555
C5_9 C6_9 1_555 1_555
Zn3 N1_9 1_555 1_555
N1_9 C1_9 1_555 1_555
N2_6 C1_9 1_555 1_555
N3_10 Zn3 1_555 1_555
N6_8 C4_10 1_555 1_555
C1_9 H1_9 1_555 1_555
C3_9 N2_6 1_555 1_555
C4_10 N3_10 1_555 1_555
H4_10 C4_10 1_555 1_555
C5_10 N3_10 1_555 1_555
H5_9 C5_10 1_555 1_555
C6_10 N6_8 1_555 1_555
H6_9 C6_10 1_555 1_555
Zn3_4 N2_6 1_555 1_555
C5_10 C6_10 1_555 1_555
H2_8 C2_8 1_555 1_555
N3_11 Zn3_7 1_555 1_555
C4_11 N3_11 1_555 1_555
H4_11 C4_11 1_555 1_555
C5_11 N3_11 1_555 1_555
H5_10 C5_11 1_555 1_555
N5_5 Zn3_7 1_555 1_555
C5_11 C6_11 1_555 1_555
N1_10 C1_10 1_555 1_555
N2_7 C1_10 1_555 1_555
C1_10 H1_10 1_555 1_555
C2_9 N1_10 1_555 1_555
H2_9 C2_9 1_555 1_555
C3_10 N2_7 1_555 1_555
H3_9 C3_10 1_555 1_555
Zn3_3 N2_7 1_555 1_555
C2_9 C3_10 1_555 1_555
Zn3_3 N1_11 1_555 1_555
N1_11 C1_11 1_555 1_555
N2_8 C1_11 1_555 1_555
N3_12 Zn3_3 1_555 1_555
N6_6 C4_12 1_555 1_555
C1_11 H1_11 1_555 1_555
C2_10 N1_11 1_555 1_555
H2_10 C2_10 1_555 1_555
C3_11 N2_8 1_555 1_555
H3_10 C3_11 1_555 1_555
C4_12 N3_12 1_555 1_555
H4_12 C4_12 1_555 1_555
C5_12 N3_12 1_555 1_555
H5_11 C5_12 1_555 1_555
C6_12 N6_6 1_555 1_555
H6_11 C6_12 1_555 1_555
Zn3_2 N2_8 1_555 1_555
C2_10 C3_11 1_555 1_555
C5_12 C6_12 1_555 1_555
Zn3_8 N1_12 1_555 1_555
N1_12 C1_12 1_555 1_555
N5_5 C1_12 1_555 1_555
N3_13 Zn3_8 1_555 1_555
N6 C4_13 1_555 1_555
C1_12 H1_12 1_555 1_555
C2_11 N1_12 1_555 1_555
H2_11 C2_11 1_555 1_555
C3_12 N5_5 1_555 1_555
H3_11 C3_12 1_555 1_555
C4_13 N3_13 1_555 1_555
H4_13 C4_13 1_555 1_555
C5_13 N3_13 1_555 1_555
H5_12 C5_13 1_555 1_555
C6_13 N6 1_555 1_555
H6_12 C6_13 1_555 1_555
N5_6 Zn3_8 1_555 1_555
C2_11 C3_12 1_555 1_555
C5_13 C6_13 1_555 1_555
N3_14 Zn3_4 1_555 1_555
C4_14 N3_14 1_555 1_555
H4_14 C4_14 1_555 1_555
C5_14 N3_14 1_555 1_555
C5_14 C6_14 1_555 1_555
Zn3_6 N1_13 1_555 1_555
N1_13 C1_13 1_555 1_555
N5_4 C1_13 1_555 1_555
N3_15 Zn3_6 1_555 1_555
N6_3 C4_15 1_555 1_555
C1_13 H1_13 1_555 1_555
C3_13 N5_4 1_555 1_555
C4_15 N3_15 1_555 1_555
H4_15 C4_15 1_555 1_555
C5_15 N3_15 1_555 1_555
H5_13 C5_15 1_555 1_555
C6_15 N6_3 1_555 1_555
H6_13 C6_15 1_555 1_555
C5_15 C6_15 1_555 1_555
Zn3_2 N1_14 1_555 1_555
N1_14 C1_14 1_555 1_555
N5_6 C1_14 1_555 1_555
N3_16 Zn3_2 1_555 1_555
N6_5 C4_16 1_555 1_555
C1_14 H1_14 1_555 1_555
C2_12 N1_14 1_555 1_555
H2_12 C2_12 1_555 1_555
C3_14 N5_6 1_555 1_555
H3_12 C3_14 1_555 1_555
C4_16 N3_16 1_555 1_555
H4_16 C4_16 1_555 1_555
C5_16 N3_16 1_555 1_555
H5_14 C5_16 1_555 1_555
C6_16 N6_5 1_555 1_555
H6_14 C6_16 1_555 1_555
C2_12 C3_14 1_555 1_555
C5_16 C6_16 1_555 1_555
N1_15 C1_15 1_555 1_555
N2_9 C1_15 1_555 1_555
C1_15 H1_15 1_555 1_555
C2_13 N1_15 1_555 1_555
H2_13 C2_13 1_555 1_555
C3_15 N2_9 1_555 1_555
H3_13 C3_15 1_555 1_555
C2_13 C3_15 1_555 1_555
H2_14 C2_14 1_555 1_555
N1_16 C1_16 1_555 1_555
N2_10 C1_16 1_555 1_555
C1_16 H1_16 1_555 1_555
C2_15 N1_16 1_555 1_555
H2_15 C2_15 1_555 1_555
C3_16 N2_10 1_555 1_555
H3_15 C3_16 1_555 1_555
C2_15 C3_16 1_555 1_555
H2_16 C2_16 1_555 1_555

#END
