
###############################################################################
#
# This file contains modified crystal structure data generated from the
# MOF subset of the Cambridge Structural Database (CSD) v543 
# hosted by the Cambridge Crystallographic Data Centre (CCDC).
#
# This work is licensed under the Creative Commons
# Attribution-NonCommercial-ShareAlike 4.0 International License.
# To view a copy of this license, visit
# http://creativecommons.org/licenses/by-nc-sa/4.0/
# or send a letter to
# Creative Commons, PO Box 1866, Mountain View, CA 94042, USA.
#
# CIF created using the CSD Python API on 29 September 2022
# The structure has been converted into the P1 space group
# The structure has a 3D framework
# The original CSD entry HIFWAV is in the monoclinic crystal system
# The framework has been calculated to contain at least 10.0% void space
# The void calculation uses a probe of radius 1.32A, grid spacing 0.4
#
###############################################################################

data_HIFWAV
_chemical_formula_moiety         '(C120 H120 N80 Zn20)n'
_symmetry_cell_setting           triclinic
_symmetry_space_group_name_H-M   'P 1'
_symmetry_Int_Tables_number      1
_space_group_name_Hall           'P 1'
loop_
_symmetry_equiv_pos_site_id
_symmetry_equiv_pos_as_xyz
1 x,y,z
_cell_length_a                   24.359(5)
_cell_length_b                   9.6097(19)
_cell_length_c                   24.804(5)
_cell_angle_alpha                90
_cell_angle_beta                 91.774(4)
_cell_angle_gamma                90
_cell_volume                     5803.4
loop_
_atom_site_label
_atom_site_type_symbol
_atom_site_fract_x
_atom_site_fract_y
_atom_site_fract_z
N7 N 0.0088(3) 0.0800(8) 0.7605(3)
N19 N 0.1386(3) 0.3792(9) 0.6715(3)
N20 N 0.0523(3) 0.3237(8) 0.6849(3)
H7 H 0.0059 0.5641 0.7722
H12 H 0.0810 0.0139 0.7287
C28 C 0.0997(4) 0.3661(11) 0.7053(4)
H28 H 0.1050 0.3855 0.7419
C29 C 0.1146(6) 0.337(2) 0.6268(5)
H29 H 0.1323 0.3316 0.5942
C30 C 0.0620(6) 0.3022(19) 0.6322(5)
H30 H 0.0374 0.2702 0.6056
Zn11 Zn 0.21659(4) 0.44020(12) 0.68391(5)
N22 N 0.0026(3) 0.8917(8) 0.8111(3)
N24 N 0.0144(3) 0.7486(8) 0.9296(3)
C11 C 0.0492(4) 0.8824(12) 0.7834(4)
H11 H 0.0745 0.8098 0.7855
C12 C 0.0529(4) 0.9956(12) 0.7522(5)
Zn1 Zn 0.76737(4) 0.03285(11) 0.68206(4)
Zn2 Zn 0.98714(4) 0.25880(12) 0.72411(4)
Zn3 Zn 0.96787(4) 0.76364(11) 0.86253(4)
N3 N 0.8364(3) 0.1287(9) 0.6640(3)
N4 N 0.9202(3) 0.2155(9) 0.6785(3)
N5 N 0.9624(3) 0.3925(8) 0.7798(3)
N6 N 0.9530(3) 0.5791(8) 0.8305(3)
C4 C 0.8813(4) 0.1303(11) 0.6925(4)
H4 H 0.8860 0.0723 0.7223
C5 C 0.8453(6) 0.2265(18) 0.6291(6)
H5 H 0.8201 0.2574 0.6028
C6 C 0.8968(6) 0.2760(18) 0.6368(6)
H6 H 0.9132 0.3432 0.6156
C7 C 0.9784(4) 0.5195(10) 0.7910(4)
C8 C 0.9216(4) 0.3704(11) 0.8166(4)
H8 H 0.9010 0.2896 0.8197
C9 C 0.9169(4) 0.4844(11) 0.8470(4)
H9 H 0.8926 0.4960 0.8748
C10 C 0.9809(4) 0.0117(10) 0.7967(4)
H10 H 0.9486 0.0455 0.8108
H20 H 0.6664 0.0070 0.5019
C21 C 0.7067(4) 0.0647(11) 0.5721(4)
H21 H 0.7093 0.1610 0.5693
Zn10 Zn 0.71659(4) 0.05980(12) 0.18391(5)
N21 N 0.7293(3) 0.1604(8) 0.7325(3)
N23 N 0.8998(3) 0.8634(8) 0.8834(3)
Zn4 Zn 0.65902(4) 0.67200(12) 0.51774(4)
Zn5 Zn 0.78341(4) 0.55980(12) 0.31609(5)
N1 N 0.7832(3) 0.8503(8) 0.7183(3)
N2 N 0.7707(3) 0.6604(8) 0.7675(3)
N9 N 0.6002(3) 0.3634(8) 0.6166(3)
N10 N 0.6471(3) 0.5268(8) 0.5742(3)
N11 N 0.5144(3) 0.7514(8) 0.4296(3)
N12 N 0.5857(3) 0.7254(8) 0.4861(3)
N13 N 0.6877(3) 0.8457(8) 0.5521(3)
N14 N 0.7260(3) 0.9870(8) 0.6143(3)
N15 N 0.7061(3) 0.5875(8) 0.4628(3)
N16 N 0.7519(3) 0.5434(9) 0.3884(3)
N17 N 0.7405(3) 0.6933(8) 0.2717(3)
N18 N 0.7167(3) 0.8764(8) 0.2215(3)
C1 C 0.7522(4) 0.7845(10) 0.7522(4)
H1 H 0.7197 0.8219 0.7645
C2 C 0.8251(4) 0.7626(12) 0.7116(4)
H2 H 0.8548 0.7796 0.6899
C3 C 0.8182(4) 0.6479(11) 0.7404(4)
H3 H 0.8418 0.5718 0.7419
C13 C 0.6007(4) 0.4528(11) 0.5764(4)
H13 H 0.5715 0.4635 0.5518
C14 C 0.6765(4) 0.4766(11) 0.6180(4)
H14 H 0.7116 0.5067 0.6283
C15 C 0.6489(4) 0.3801(10) 0.6437(4)
H15 H 0.6608 0.3326 0.6746
C16 C 0.5641(4) 0.6979(9) 0.4381(4)
H16 H 0.5821 0.6457 0.4124
C17 C 0.5041(4) 0.8182(12) 0.4763(5)
H17 H 0.4720 0.8664 0.4833
C18 C 0.5468(4) 0.8049(12) 0.5108(4)
H18 H 0.5498 0.8424 0.5454
C19 C 0.7125(4) 0.8572(10) 0.6004(4)
H19 H 0.7197 0.7811 0.6227
C20 C 0.6830(4) 0.9789(11) 0.5344(4)
C22 C 0.7149(4) 0.6238(10) 0.4123(4)
H22 H 0.6971 0.6979 0.3951
C23 C 0.7388(5) 0.4754(12) 0.4711(5)
H23 H 0.7417 0.4249 0.5031
C24 C 0.7665(5) 0.4475(13) 0.4261(5)
H24 H 0.7913 0.3752 0.4218
C25 C 0.7543(4) 0.8158(11) 0.2533(4)
H25 H 0.7880 0.8570 0.2619
C26 C 0.6753(4) 0.7833(12) 0.2198(5)
H26 H 0.6422 0.7943 0.2006
C27 C 0.6896(4) 0.6702(12) 0.2506(5)
H27 H 0.6682 0.5917 0.2561
Zn6 Zn 0.73263(4) 0.53285(11) 0.81794(4)
Zn8 Zn 0.53213(4) 0.26364(11) 0.63747(4)
Zn9 Zn 0.46787(4) 0.73636(11) 0.36253(4)
N25 N 0.7833(3) 0.3764(8) 0.2785(3)
N26 N 0.8614(3) 0.6208(9) 0.3285(3)
H17_2 H 0.0280 0.3664 0.0167
Zn9_2 Zn 0.03213(4) 0.23636(11) 0.13747(4)
N6_2 N 0.5470(3) 0.0791(8) 0.6695(3)
C7_2 C 0.5216(4) 0.0195(10) 0.7090(4)
H7_2 H 0.4941 0.0641 0.7278
N22_2 N 0.4974(3) 0.3917(8) 0.6889(3)
N24_2 N 0.4856(3) 0.2486(8) 0.5704(3)
N11_2 N 0.9856(3) 0.2514(8) 0.0704(3)
N12_2 N 0.9143(3) 0.2254(8) 0.0139(3)
N15_2 N 0.7939(3) 0.0875(8) 0.0372(3)
N16_2 N 0.7481(3) 0.0434(9) 0.1116(3)
N17_2 N 0.7595(3) 0.1933(8) 0.2283(3)
C16_2 C 0.9359(4) 0.1979(9) 0.0619(4)
H16_2 H 0.9179 0.1457 0.0876
C17_2 C 0.9959(4) 0.3182(12) 0.0237(5)
C22_2 C 0.7851(4) 0.1238(10) 0.0877(4)
H22_2 H 0.8029 0.1979 0.1049
C25_2 C 0.7457(4) 0.3158(11) 0.2467(4)
H25_2 H 0.7120 0.3570 0.2381
C26_2 C 0.8247(4) 0.2833(12) 0.2802(5)
H26_2 H 0.8578 0.2943 0.2994
C27_2 C 0.8104(4) 0.1702(12) 0.2494(5)
H27_2 H 0.8318 0.0917 0.2439
N26_2 N 0.6386(3) 0.1208(9) 0.1715(3)
Zn2_2 Zn 0.51286(4) 0.75880(12) 0.77589(4)
Zn4_2 Zn 0.84098(4) 0.17200(12) 0.98226(4)
N1_2 N 0.7168(3) 0.3503(8) 0.7817(3)
N3_2 N 0.6636(3) 0.6287(9) 0.8360(3)
N4_2 N 0.5798(3) 0.7155(9) 0.8215(3)
N5_2 N 0.5376(3) 0.8925(8) 0.7202(3)
N7_2 N 0.4912(3) 0.5800(8) 0.7395(3)
N10_2 N 0.8529(3) 0.0268(8) 0.9258(3)
N13_2 N 0.8123(3) 0.3457(8) 0.9479(3)
N14_2 N 0.7740(3) 0.4870(8) 0.8857(3)
N19_2 N 0.3614(3) 0.8792(9) 0.8285(3)
N20_2 N 0.4477(3) 0.8237(8) 0.8151(3)
C1_2 C 0.7478(4) 0.2845(10) 0.7478(4)
H1_2 H 0.7803 0.3219 0.7355
C2_2 C 0.6749(4) 0.2626(12) 0.7884(4)
H2_2 H 0.6452 0.2796 0.8101
C3_2 C 0.6818(4) 0.1479(11) 0.7596(4)
H3_2 H 0.6582 0.0718 0.7581
C4_2 C 0.6187(4) 0.6303(11) 0.8075(4)
H4_2 H 0.6140 0.5723 0.7777
C5_2 C 0.6547(6) 0.7265(18) 0.8709(6)
H5_2 H 0.6799 0.7574 0.8972
C6_2 C 0.6032(6) 0.7760(18) 0.8632(6)
H6_2 H 0.5868 0.8432 0.8844
C8_2 C 0.5784(4) 0.8704(11) 0.6834(4)
H8_2 H 0.5990 0.7896 0.6803
C9_2 C 0.5831(4) 0.9844(11) 0.6530(4)
H9_2 H 0.6074 0.9960 0.6252
C10_2 C 0.5191(4) 0.5117(10) 0.7033(4)
H10_2 H 0.5514 0.5455 0.6892
C11_2 C 0.4508(4) 0.3824(12) 0.7166(4)
H11_2 H 0.4255 0.3098 0.7145
C12_2 C 0.4471(4) 0.4956(12) 0.7478(5)
H12_2 H 0.4190 0.5139 0.7713
H14_2 H 0.7884 0.0067 0.8717
C18_2 C 0.9532(4) 0.3049(12) 0.9892(4)
H18_2 H 0.9502 0.3424 0.9546
C19_2 C 0.7875(4) 0.3572(10) 0.8996(4)
H19_2 H 0.7803 0.2811 0.8773
C20_2 C 0.8170(4) 0.4789(11) 0.9656(4)
H20_2 H 0.8336 0.5070 0.9981
C21_2 C 0.7933(4) 0.5647(11) 0.9279(4)
H21_2 H 0.7907 0.6610 0.9307
C28_2 C 0.4003(4) 0.8661(11) 0.7947(4)
H28_2 H 0.3950 0.8855 0.7581
C29_2 C 0.3854(6) 0.837(2) 0.8732(5)
H29_2 H 0.3677 0.8316 0.9058
C30_2 C 0.4380(6) 0.8022(19) 0.8678(5)
H30_2 H 0.4626 0.7702 0.8944
Zn11_2 Zn 0.28341(4) 0.94020(12) 0.81609(5)
C23_2 C 0.7612(5) 0.9754(12) 0.0289(5)
C24_2 C 0.7335(5) 0.9475(13) 0.0739(5)
H24_2 H 0.7087 0.8752 0.0782
C13_2 C 0.8993(4) 0.9528(11) 0.9236(4)
H13_2 H 0.9285 0.9635 0.9482
C14_2 C 0.8235(4) 0.9766(11) 0.8820(4)
C15_2 C 0.8511(4) 0.8801(10) 0.8563(4)
H15_2 H 0.8392 0.8326 0.8254
H23_2 H 0.7583 0.9249 0.9969
Zn4_3 Zn 0.34098(4) 0.32800(12) 0.48226(4)
N1_3 N 0.2168(3) 0.1497(8) 0.2817(3)
N2_2 N 0.2293(3) 0.3396(8) 0.2325(3)
N9_2 N 0.3998(3) 0.6366(8) 0.3834(3)
N10_3 N 0.3529(3) 0.4732(8) 0.4258(3)
N12_3 N 0.4143(3) 0.2746(8) 0.5139(3)
N13_3 N 0.3123(3) 0.1543(8) 0.4479(3)
N14_3 N 0.2740(3) 0.0130(8) 0.3857(3)
N15_3 N 0.2939(3) 0.4125(8) 0.5372(3)
N16_3 N 0.2481(3) 0.4566(9) 0.6116(3)
N17_3 N 0.2595(3) 0.3067(8) 0.7283(3)
N18_2 N 0.2833(3) 0.1236(8) 0.7785(3)
C1_3 C 0.2478(4) 0.2155(10) 0.2478(4)
H1_3 H 0.2803 0.1781 0.2355
C2_3 C 0.1749(4) 0.2374(12) 0.2884(4)
H2_3 H 0.1452 0.2204 0.3101
C3_3 C 0.1818(4) 0.3521(11) 0.2596(4)
H3_3 H 0.1582 0.4282 0.2581
C13_3 C 0.3993(4) 0.5472(11) 0.4236(4)
H13_3 H 0.4285 0.5365 0.4482
C14_3 C 0.3235(4) 0.5234(11) 0.3820(4)
H14_3 H 0.2884 0.4933 0.3717
C15_3 C 0.3511(4) 0.6199(10) 0.3563(4)
H15_3 H 0.3392 0.6674 0.3254
C16_3 C 0.4359(4) 0.3021(9) 0.5619(4)
H16_3 H 0.4179 0.3543 0.5876
C17_3 C 0.4959(4) 0.1818(12) 0.5237(5)
H17_3 H 0.5280 0.1336 0.5167
C18_3 C 0.4532(4) 0.1951(12) 0.4892(4)
H18_3 H 0.4502 0.1576 0.4546
C19_3 C 0.2875(4) 0.1428(10) 0.3996(4)
H19_3 H 0.2803 0.2189 0.3773
C20_3 C 0.3170(4) 0.0211(11) 0.4656(4)
C22_3 C 0.2851(4) 0.3762(10) 0.5877(4)
H22_3 H 0.3029 0.3021 0.6049
C23_3 C 0.2612(5) 0.5246(12) 0.5289(5)
H23_3 H 0.2583 0.5751 0.4969
C24_3 C 0.2335(5) 0.5525(13) 0.5739(5)
H24_3 H 0.2087 0.6248 0.5782
C25_3 C 0.2457(4) 0.1842(11) 0.7467(4)
H25_3 H 0.2120 0.1430 0.7381
C26_3 C 0.3247(4) 0.2167(12) 0.7802(5)
H26_3 H 0.3578 0.2057 0.7994
C27_3 C 0.3104(4) 0.3298(12) 0.7494(5)
H27_3 H 0.3318 0.4083 0.7439
Zn6_2 Zn 0.26737(4) 0.46715(11) 0.18206(4)
N25_2 N 0.2167(3) 0.6236(8) 0.7215(3)
Zn1_2 Zn 0.23263(4) 0.96715(11) 0.31794(4)
Zn2_3 Zn 0.01286(4) 0.74120(12) 0.27589(4)
N3_3 N 0.1636(3) 0.8713(9) 0.3360(3)
N4_3 N 0.0798(3) 0.7845(9) 0.3215(3)
N5_3 N 0.0376(3) 0.6075(8) 0.2202(3)
N6_3 N 0.0470(3) 0.4209(8) 0.1695(3)
C4_3 C 0.1187(4) 0.8697(11) 0.3075(4)
H4_3 H 0.1140 0.9277 0.2777
C5_3 C 0.1547(6) 0.7735(18) 0.3709(6)
H5_3 H 0.1799 0.7426 0.3972
C6_3 C 0.1032(6) 0.7240(18) 0.3632(6)
H6_3 H 0.0868 0.6568 0.3844
C7_3 C 0.0216(4) 0.4805(10) 0.2090(4)
C8_3 C 0.0784(4) 0.6296(11) 0.1834(4)
H8_3 H 0.0990 0.7104 0.1803
C9_3 C 0.0831(4) 0.5156(11) 0.1530(4)
H9_3 H 0.1074 0.5040 0.1252
C10_3 C 0.0191(4) 0.9883(10) 0.2033(4)
H10_3 H 0.0514 0.9545 0.1892
H20_3 H 0.3336 0.9930 0.4981
C21_3 C 0.2933(4) 0.9353(11) 0.4279(4)
H21_3 H 0.2907 0.8390 0.4307
N21_2 N 0.2707(3) 0.8396(8) 0.2675(3)
N23_2 N 0.1002(3) 0.1366(8) 0.1166(3)
N8 N 0.9974(3) 0.1083(8) 0.1889(3)
C11_3 C 0.9508(4) 0.1176(12) 0.2166(4)
H11_3 H 0.9255 0.1902 0.2145
C12_3 C 0.9471(4) 0.0044(12) 0.2478(5)
N7_3 N 0.9912(3) 0.9200(8) 0.2395(3)
N20_3 N 0.9477(3) 0.6763(8) 0.3151(3)
H7_3 H 0.9941 0.4359 0.2278
H12_3 H 0.9190 0.9861 0.2713
C28_3 C 0.9003(4) 0.6339(11) 0.2947(4)
H28_3 H 0.8950 0.6145 0.2581
C29_3 C 0.8854(6) 0.663(2) 0.3732(5)
H29_3 H 0.8677 0.6684 0.4058
C30_3 C 0.9380(6) 0.6978(19) 0.3678(5)
H30_3 H 0.9626 0.7298 0.3944
C13_4 C 0.1007(4) 0.0472(11) 0.0764(4)
H13_4 H 0.0715 0.0365 0.0518
C14_4 C 0.1765(4) 0.0234(11) 0.1180(4)
C15_4 C 0.1489(4) 0.1199(10) 0.1437(4)
H15_4 H 0.1608 0.1674 0.1746
H23_4 H 0.2417 0.0751 0.0031
C23_4 C 0.2388(5) 0.0246(12) 0.9711(5)
C24_4 C 0.2665(5) 0.0525(13) 0.9261(5)
H24_4 H 0.2913 0.1248 0.9218
Zn2_4 Zn 0.48714(4) 0.24120(12) 0.22411(4)
Zn4_4 Zn 0.15902(4) 0.82800(12) 0.01774(4)
N1_4 N 0.2832(3) 0.6497(8) 0.2183(3)
N3_4 N 0.3364(3) 0.3713(9) 0.1640(3)
N4_4 N 0.4202(3) 0.2845(9) 0.1785(3)
N5_4 N 0.4624(3) 0.1075(8) 0.2798(3)
N7_4 N 0.5088(3) 0.4200(8) 0.2605(3)
N8_2 N 0.5026(3) 0.6083(8) 0.3111(3)
N10_4 N 0.1471(3) 0.9732(8) 0.0742(3)
N13_4 N 0.1877(3) 0.6543(8) 0.0521(3)
N14_4 N 0.2260(3) 0.5130(8) 0.1143(3)
N20_4 N 0.5523(3) 0.1763(8) 0.1849(3)
C1_4 C 0.2522(4) 0.7155(10) 0.2522(4)
H1_4 H 0.2197 0.6781 0.2645
C2_4 C 0.3251(4) 0.7374(12) 0.2116(4)
H2_4 H 0.3548 0.7204 0.1899
C3_4 C 0.3182(4) 0.8521(11) 0.2404(4)
H3_4 H 0.3418 0.9282 0.2419
C4_4 C 0.3813(4) 0.3697(11) 0.1925(4)
H4_4 H 0.3860 0.4277 0.2223
C5_4 C 0.3453(6) 0.2735(18) 0.1291(6)
H5_4 H 0.3201 0.2426 0.1028
C6_4 C 0.3968(6) 0.2240(18) 0.1368(6)
H6_4 H 0.4132 0.1568 0.1156
C8_4 C 0.4216(4) 0.1296(11) 0.3166(4)
H8_4 H 0.4010 0.2104 0.3197
C9_4 C 0.4169(4) 0.0156(11) 0.3470(4)
H9_4 H 0.3926 0.0040 0.3748
C10_4 C 0.4809(4) 0.4883(10) 0.2967(4)
H10_4 H 0.4486 0.4545 0.3108
C11_4 C 0.5492(4) 0.6176(12) 0.2834(4)
H11_4 H 0.5745 0.6902 0.2855
C12_4 C 0.5529(4) 0.5044(12) 0.2522(5)
H12_4 H 0.5810 0.4861 0.2287
H14_4 H 0.2116 0.9933 0.1283
C18_4 C 0.0468(4) 0.6951(12) 0.0108(4)
H18_4 H 0.0498 0.6576 0.0454
C19_4 C 0.2125(4) 0.6428(10) 0.1004(4)
H19_4 H 0.2197 0.7189 0.1227
C20_4 C 0.1830(4) 0.5211(11) 0.0344(4)
H20_4 H 0.1664 0.4930 0.0019
C21_4 C 0.2067(4) 0.4353(11) 0.0721(4)
H21_4 H 0.2093 0.3390 0.0693
C28_4 C 0.5997(4) 0.1339(11) 0.2053(4)
H28_4 H 0.6050 0.1145 0.2419
C29_4 C 0.6146(6) 0.163(2) 0.1268(5)
H29_4 H 0.6323 0.1684 0.0942
C30_4 C 0.5620(6) 0.1978(19) 0.1322(5)
H30_4 H 0.5374 0.2298 0.1056
N12_4 N 0.0857(3) 0.7746(8) 0.9861(3)
N15_4 N 0.2061(3) 0.9125(8) 0.9628(3)
N16_4 N 0.2519(3) 0.9566(9) 0.8884(3)
N17_4 N 0.2405(3) 0.8067(8) 0.7717(3)
C16_4 C 0.0641(4) 0.8021(9) 0.9381(4)
H16_4 H 0.0821 0.8543 0.9124
C17_4 C 0.0041(4) 0.6818(12) 0.9763(5)
C22_4 C 0.2149(4) 0.8762(10) 0.9123(4)
H22_4 H 0.1971 0.8021 0.8951
C25_4 C 0.2543(4) 0.6842(11) 0.7533(4)
H25_4 H 0.2880 0.6430 0.7619
C26_4 C 0.1753(4) 0.7167(12) 0.7198(5)
H26_4 H 0.1422 0.7057 0.7006
C27_4 C 0.1896(4) 0.8298(12) 0.7506(5)
H27_4 H 0.1682 0.9083 0.7561
N6_4 N 0.4530(3) 0.9209(8) 0.3305(3)
C7_4 C 0.4784(4) 0.9805(10) 0.2910(4)
H7_4 H 0.5059 0.9359 0.2722
H17_4 H 0.9720 0.6336 0.9833
loop_
_geom_bond_atom_site_label_1
_geom_bond_atom_site_label_2
_geom_bond_site_symmetry_1
_geom_bond_site_symmetry_2
N19 C28 1_555 1_555
C28 N20 1_555 1_555
H28 C28 1_555 1_555
C29 N19 1_555 1_555
H29 C29 1_555 1_555
C30 N20 1_555 1_555
H30 C30 1_555 1_555
Zn11 N19 1_555 1_555
C29 C30 1_555 1_555
C11 N22 1_555 1_555
H11 C11 1_555 1_555
C11 C12 1_555 1_555
Zn2 N4 1_555 1_555
Zn3 N6 1_555 1_555
N3 Zn1 1_555 1_555
N4 C4 1_555 1_555
N5 Zn2 1_555 1_555
N6 C7 1_555 1_555
C4 N3 1_555 1_555
H4 C4 1_555 1_555
C5 N3 1_555 1_555
H5 C5 1_555 1_555
C6 N4 1_555 1_555
H6 C6 1_555 1_555
C7 N5 1_555 1_555
C8 N5 1_555 1_555
H8 C8 1_555 1_555
C9 N6 1_555 1_555
H9 C9 1_555 1_555
H10 C10 1_555 1_555
H21 C21 1_555 1_555
N21 Zn1 1_555 1_555
N23 Zn3 1_555 1_555
C5 C6 1_555 1_555
C8 C9 1_555 1_555
Zn4 N10 1_555 1_555
Zn5 N16 1_555 1_555
N1 C1 1_555 1_555
N2 C1 1_555 1_555
N9 C13 1_555 1_555
N10 C13 1_555 1_555
N11 C16 1_555 1_555
N12 Zn4 1_555 1_555
N13 Zn4 1_555 1_555
N15 Zn4 1_555 1_555
N16 C22 1_555 1_555
N17 Zn5 1_555 1_555
N18 C25 1_555 1_555
C1 H1 1_555 1_555
C2 N1 1_555 1_555
H2 C2 1_555 1_555
C3 N2 1_555 1_555
H3 C3 1_555 1_555
C13 H13 1_555 1_555
C14 N10 1_555 1_555
H14 C14 1_555 1_555
C15 N9 1_555 1_555
H15 C15 1_555 1_555
C16 N12 1_555 1_555
H16 C16 1_555 1_555
C17 N11 1_555 1_555
H17 C17 1_555 1_555
C18 N12 1_555 1_555
H18 C18 1_555 1_555
C19 N13 1_555 1_555
H19 C19 1_555 1_555
C20 N13 1_555 1_555
C22 N15 1_555 1_555
H22 C22 1_555 1_555
C23 N15 1_555 1_555
H23 C23 1_555 1_555
C24 N16 1_555 1_555
H24 C24 1_555 1_555
C25 N17 1_555 1_555
H25 C25 1_555 1_555
C26 N18 1_555 1_555
H26 C26 1_555 1_555
C27 N17 1_555 1_555
H27 C27 1_555 1_555
Zn6 N2 1_555 1_555
Zn8 N9 1_555 1_555
Zn9 N11 1_555 1_555
N25 Zn5 1_555 1_555
N26 Zn5 1_555 1_555
N14 C19 1_555 1_555
C2 C3 1_555 1_555
C14 C15 1_555 1_555
C17 C18 1_555 1_555
C23 C24 1_555 1_555
C26 C27 1_555 1_555
Zn8 N6_2 1_555 1_555
N6_2 C7_2 1_555 1_555
H7_2 C7_2 1_555 1_555
N22_2 Zn8 1_555 1_555
N24_2 Zn8 1_555 1_555
Zn10 N16_2 1_555 1_555
N11_2 C16_2 1_555 1_555
N16_2 C22_2 1_555 1_555
N17_2 Zn10 1_555 1_555
N25 C25_2 1_555 1_555
C16_2 N12_2 1_555 1_555
H16_2 C16_2 1_555 1_555
C17_2 N11_2 1_555 1_555
C22_2 N15_2 1_555 1_555
H22_2 C22_2 1_555 1_555
C25_2 N17_2 1_555 1_555
H25_2 C25_2 1_555 1_555
C26_2 N25 1_555 1_555
H26_2 C26_2 1_555 1_555
C27_2 N17_2 1_555 1_555
H27_2 C27_2 1_555 1_555
N26_2 Zn10 1_555 1_555
C26_2 C27_2 1_555 1_555
Zn6 N1_2 1_555 1_555
Zn2_2 N4_2 1_555 1_555
Zn4_2 N10_2 1_555 1_555
N1_2 C1_2 1_555 1_555
N21 C1_2 1_555 1_555
N3_2 Zn6 1_555 1_555
N4_2 C4_2 1_555 1_555
N5_2 Zn2_2 1_555 1_555
N7_2 Zn2_2 1_555 1_555
N22_2 C10_2 1_555 1_555
N13_2 Zn4_2 1_555 1_555
N14_2 Zn6 1_555 1_555
N19_2 C28_2 1_555 1_555
N20_2 Zn2_2 1_555 1_555
C1_2 H1_2 1_555 1_555
C2_2 N1_2 1_555 1_555
H2_2 C2_2 1_555 1_555
C3_2 N21 1_555 1_555
H3_2 C3_2 1_555 1_555
C4_2 N3_2 1_555 1_555
H4_2 C4_2 1_555 1_555
C5_2 N3_2 1_555 1_555
H5_2 C5_2 1_555 1_555
C6_2 N4_2 1_555 1_555
H6_2 C6_2 1_555 1_555
C8_2 N5_2 1_555 1_555
H8_2 C8_2 1_555 1_555
H9_2 C9_2 1_555 1_555
C10_2 N7_2 1_555 1_555
H10_2 C10_2 1_555 1_555
C11_2 N22_2 1_555 1_555
H11_2 C11_2 1_555 1_555
C12_2 N7_2 1_555 1_555
H12_2 C12_2 1_555 1_555
H18_2 C18_2 1_555 1_555
C19_2 N13_2 1_555 1_555
H19_2 C19_2 1_555 1_555
C20_2 N13_2 1_555 1_555
H20_2 C20_2 1_555 1_555
C21_2 N14_2 1_555 1_555
H21_2 C21_2 1_555 1_555
C28_2 N20_2 1_555 1_555
H28_2 C28_2 1_555 1_555
C29_2 N19_2 1_555 1_555
H29_2 C29_2 1_555 1_555
C30_2 N20_2 1_555 1_555
H30_2 C30_2 1_555 1_555
Zn11_2 N19_2 1_555 1_555
N14_2 C19_2 1_555 1_555
C2_2 C3_2 1_555 1_555
C5_2 C6_2 1_555 1_555
C8_2 C9_2 1_555 1_555
C11_2 C12_2 1_555 1_555
C20_2 C21_2 1_555 1_555
C29_2 C30_2 1_555 1_555
H24_2 C24_2 1_555 1_555
C23_2 C24_2 1_555 1_555
N23 C13_2 1_555 1_555
C13_2 H13_2 1_555 1_555
C15_2 N23 1_555 1_555
H15_2 C15_2 1_555 1_555
C14_2 C15_2 1_555 1_555
Zn4_3 N10_3 1_555 1_555
Zn11 N16_3 1_555 1_555
N1_3 C1_3 1_555 1_555
N2_2 C1_3 1_555 1_555
N9_2 C13_3 1_555 1_555
N10_3 C13_3 1_555 1_555
N24_2 C16_3 1_555 1_555
N12_3 Zn4_3 1_555 1_555
N13_3 Zn4_3 1_555 1_555
N15_3 Zn4_3 1_555 1_555
N16_3 C22_3 1_555 1_555
N17_3 Zn11 1_555 1_555
N18_2 C25_3 1_555 1_555
C1_3 H1_3 1_555 1_555
C2_3 N1_3 1_555 1_555
H2_3 C2_3 1_555 1_555
C3_3 N2_2 1_555 1_555
H3_3 C3_3 1_555 1_555
C13_3 H13_3 1_555 1_555
C14_3 N10_3 1_555 1_555
H14_3 C14_3 1_555 1_555
C15_3 N9_2 1_555 1_555
H15_3 C15_3 1_555 1_555
C16_3 N12_3 1_555 1_555
H16_3 C16_3 1_555 1_555
C17_3 N24_2 1_555 1_555
H17_3 C17_3 1_555 1_555
C18_3 N12_3 1_555 1_555
H18_3 C18_3 1_555 1_555
C19_3 N13_3 1_555 1_555
H19_3 C19_3 1_555 1_555
C20_3 N13_3 1_555 1_555
C22_3 N15_3 1_555 1_555
H22_3 C22_3 1_555 1_555
C23_3 N15_3 1_555 1_555
H23_3 C23_3 1_555 1_555
C24_3 N16_3 1_555 1_555
H24_3 C24_3 1_555 1_555
C25_3 N17_3 1_555 1_555
H25_3 C25_3 1_555 1_555
C26_3 N18_2 1_555 1_555
H26_3 C26_3 1_555 1_555
C27_3 N17_3 1_555 1_555
H27_3 C27_3 1_555 1_555
Zn6_2 N2_2 1_555 1_555
Zn9 N9_2 1_555 1_555
N25_2 Zn11 1_555 1_555
N14_3 C19_3 1_555 1_555
C2_3 C3_3 1_555 1_555
C14_3 C15_3 1_555 1_555
C17_3 C18_3 1_555 1_555
C23_3 C24_3 1_555 1_555
C26_3 C27_3 1_555 1_555
Zn2_3 N4_3 1_555 1_555
Zn9_2 N6_3 1_555 1_555
N3_3 Zn1_2 1_555 1_555
N4_3 C4_3 1_555 1_555
N5_3 Zn2_3 1_555 1_555
N6_3 C7_3 1_555 1_555
C4_3 N3_3 1_555 1_555
H4_3 C4_3 1_555 1_555
C5_3 N3_3 1_555 1_555
H5_3 C5_3 1_555 1_555
C6_3 N4_3 1_555 1_555
H6_3 C6_3 1_555 1_555
C7_3 N5_3 1_555 1_555
C8_3 N5_3 1_555 1_555
H8_3 C8_3 1_555 1_555
C9_3 N6_3 1_555 1_555
H9_3 C9_3 1_555 1_555
H10_3 C10_3 1_555 1_555
H21_3 C21_3 1_555 1_555
N21_2 Zn1_2 1_555 1_555
N23_2 Zn9_2 1_555 1_555
C5_3 C6_3 1_555 1_555
C8_3 C9_3 1_555 1_555
C11_3 N8 1_555 1_555
H11_3 C11_3 1_555 1_555
C11_3 C12_3 1_555 1_555
N26 C28_3 1_555 1_555
C28_3 N20_3 1_555 1_555
H28_3 C28_3 1_555 1_555
C29_3 N26 1_555 1_555
H29_3 C29_3 1_555 1_555
C30_3 N20_3 1_555 1_555
H30_3 C30_3 1_555 1_555
C29_3 C30_3 1_555 1_555
N23_2 C13_4 1_555 1_555
C13_4 H13_4 1_555 1_555
C15_4 N23_2 1_555 1_555
H15_4 C15_4 1_555 1_555
C14_4 C15_4 1_555 1_555
H24_4 C24_4 1_555 1_555
C23_4 C24_4 1_555 1_555
Zn6_2 N1_4 1_555 1_555
Zn2_4 N4_4 1_555 1_555
Zn4_4 N10_4 1_555 1_555
N1_4 C1_4 1_555 1_555
N21_2 C1_4 1_555 1_555
N3_4 Zn6_2 1_555 1_555
N4_4 C4_4 1_555 1_555
N5_4 Zn2_4 1_555 1_555
N7_4 Zn2_4 1_555 1_555
N8_2 C10_4 1_555 1_555
N13_4 Zn4_4 1_555 1_555
N14_4 Zn6_2 1_555 1_555
N26_2 C28_4 1_555 1_555
N20_4 Zn2_4 1_555 1_555
C1_4 H1_4 1_555 1_555
C2_4 N1_4 1_555 1_555
H2_4 C2_4 1_555 1_555
C3_4 N21_2 1_555 1_555
H3_4 C3_4 1_555 1_555
C4_4 N3_4 1_555 1_555
H4_4 C4_4 1_555 1_555
C5_4 N3_4 1_555 1_555
H5_4 C5_4 1_555 1_555
C6_4 N4_4 1_555 1_555
H6_4 C6_4 1_555 1_555
C8_4 N5_4 1_555 1_555
H8_4 C8_4 1_555 1_555
H9_4 C9_4 1_555 1_555
C10_4 N7_4 1_555 1_555
H10_4 C10_4 1_555 1_555
C11_4 N8_2 1_555 1_555
H11_4 C11_4 1_555 1_555
C12_4 N7_4 1_555 1_555
H12_4 C12_4 1_555 1_555
H18_4 C18_4 1_555 1_555
C19_4 N13_4 1_555 1_555
H19_4 C19_4 1_555 1_555
C20_4 N13_4 1_555 1_555
H20_4 C20_4 1_555 1_555
C21_4 N14_4 1_555 1_555
H21_4 C21_4 1_555 1_555
C28_4 N20_4 1_555 1_555
H28_4 C28_4 1_555 1_555
C29_4 N26_2 1_555 1_555
H29_4 C29_4 1_555 1_555
C30_4 N20_4 1_555 1_555
H30_4 C30_4 1_555 1_555
Zn9 N8_2 1_555 1_555
N14_4 C19_4 1_555 1_555
C2_4 C3_4 1_555 1_555
C5_4 C6_4 1_555 1_555
C8_4 C9_4 1_555 1_555
C11_4 C12_4 1_555 1_555
C20_4 C21_4 1_555 1_555
C29_4 C30_4 1_555 1_555
Zn11_2 N16_4 1_555 1_555
N24 C16_4 1_555 1_555
N16_4 C22_4 1_555 1_555
N17_4 Zn11_2 1_555 1_555
N25_2 C25_4 1_555 1_555
C16_4 N12_4 1_555 1_555
H16_4 C16_4 1_555 1_555
C17_4 N24 1_555 1_555
C22_4 N15_4 1_555 1_555
H22_4 C22_4 1_555 1_555
C25_4 N17_4 1_555 1_555
H25_4 C25_4 1_555 1_555
C26_4 N25_2 1_555 1_555
H26_4 C26_4 1_555 1_555
C27_4 N17_4 1_555 1_555
H27_4 C27_4 1_555 1_555
C26_4 C27_4 1_555 1_555
Zn9 N6_4 1_555 1_555
N6_4 C7_4 1_555 1_555
H7_4 C7_4 1_555 1_555

#END
