
###############################################################################
#
# This file contains modified crystal structure data generated from the
# MOF subset of the Cambridge Structural Database (CSD) v543 
# hosted by the Cambridge Crystallographic Data Centre (CCDC).
#
# This work is licensed under the Creative Commons
# Attribution-NonCommercial-ShareAlike 4.0 International License.
# To view a copy of this license, visit
# http://creativecommons.org/licenses/by-nc-sa/4.0/
# or send a letter to
# Creative Commons, PO Box 1866, Mountain View, CA 94042, USA.
#
# CIF created using the CSD Python API on 29 September 2022
# The structure has been converted into the P1 space group
# The structure has a 3D framework
# The original CSD entry HIFZAY is in the monoclinic crystal system
# The framework has been calculated to contain at least 10.0% void space
# The void calculation uses a probe of radius 1.32A, grid spacing 0.4
# The framework is charged, counterions have been retained in the structure
# H atom positions have been added when not included in the experimental data
# Generated hydrogen atom positions removed from atoms on special positions
#
###############################################################################

data_HIFZAY
_chemical_formula_moiety         '(C96 H84 B12 Cu14 F48 N48 O8 16+)n'
_symmetry_cell_setting           triclinic
_symmetry_space_group_name_H-M   'P 1'
_symmetry_Int_Tables_number      1
_space_group_name_Hall           'P 1'
loop_
_symmetry_equiv_pos_site_id
_symmetry_equiv_pos_as_xyz
1 x,y,z
_cell_length_a                   12.0861(8)
_cell_length_b                   14.6555(8)
_cell_length_c                   21.5673(15)
_cell_angle_alpha                90
_cell_angle_beta                 104.025(8)
_cell_angle_gamma                90
_cell_volume                     3706.29
loop_
_atom_site_label
_atom_site_type_symbol
_atom_site_fract_x
_atom_site_fract_y
_atom_site_fract_z
Cu6 Cu 0.72527(3) 0.25876(3) 0.00477(2)
Cu1 Cu -0.0000 0.0000 0.5000
Cu2 Cu 0.27473(3) 0.25876(3) 0.49523(2)
O1 O 0.13979(19) 0.12280(19) 0.49626(14)
O2 O 0.3803(3) 0.3863(2) 0.4774(2)
N2 N 0.0746(3) 0.0071(3) 0.3872(2)
N7 N 0.3658(3) 0.2517(2) 0.58740(18)
N8 N 0.3768(3) 0.1730(3) 0.6185(2)
N9 N 0.1819(2) 0.2703(2) 0.40238(18)
N10 N 0.0702(3) 0.2563(3) 0.39533(19)
N11 N 0.1561(2) 0.3341(2) 0.52498(18)
N12 N 0.1216(3) 0.2970(3) 0.5740(2)
H3 H 0.1380 0.0216 0.3133
H9 H 0.6481 0.0189 0.6051
C13 C 0.4082(5) 0.3260(4) 0.6162(3)
H10 H 0.4012 0.3803 0.5925
C14 C 0.4632(6) 0.3288(4) 0.6800(3)
H11 H 0.4940 0.3838 0.6992
C15 C 0.4722(3) 0.2497(3) 0.7153(2)
C16 C 0.4272(4) 0.1731(3) 0.6811(3)
H12 H 0.4323 0.1174 0.7032
C17 C 0.2239(3) 0.2850(4) 0.3524(2)
H13 H 0.3029 0.2936 0.3589
C18 C 0.1558(3) 0.2885(4) 0.2902(2)
H14 H 0.1875 0.3002 0.2553
C19 C 0.0403(3) 0.2741(3) 0.2818(2)
C20 C 0.0032(3) 0.2573(3) 0.3368(2)
C21 C 0.1110(3) 0.4099(3) 0.4977(2)
H16 H 0.1390 0.4336 0.4640
C22 C 0.0232(3) 0.4575(3) 0.5160(2)
C24 C 0.0383(4) 0.3387(4) 0.5930(3)
H18 H 0.0126 0.3129 0.6269
Cu3 Cu 0.0000 0.0000 0.0000
N14 N 0.0091(2) 0.0326(2) 0.59115(16)
N19 N 0.3789(2) 0.1696(2) 0.46602(17)
N22 N 0.6342(3) 0.2517(2) 0.91260(18)
N24 N 0.6232(3) 0.1730(3) 0.8815(2)
C37 C 0.5918(5) 0.3260(4) 0.8838(3)
H28 H 0.5988 0.3803 0.9075
C38 C 0.5368(6) 0.3288(4) 0.8200(3)
H29 H 0.5060 0.3838 0.8008
C39 C 0.5278(3) 0.2497(3) 0.7847(2)
C40 C 0.5728(4) 0.1731(3) 0.8189(3)
H30 H 0.5677 0.1174 0.7968
H33 H 0.0749 0.2459 0.1678
C47 C 0.0132(4) 0.5814(3) 0.4346(3)
H35 H 0.0722 0.5543 0.4195
Cu3_2 Cu 0.0000 0.0000 1.0000
Cu1_2 Cu -0.0000 1.0000 0.5000
N3 N 0.1299(2) 0.9098(2) 0.52560(18)
N4 N 0.0913(2) 0.8254(2) 0.5295(2)
N5 N 0.6211(2) 0.8304(2) 0.53398(17)
N6 N 0.6726(2) 0.9060(2) 0.56226(19)
C4 C 0.0780(3) 0.9947(4) 0.3275(2)
C5 C 0.2403(3) 0.9271(3) 0.5347(2)
H4 H 0.2646 0.9878 0.5329
C6 C 0.3214(3) 0.8573(3) 0.5468(2)
C7 C 0.2823(3) 0.7700(3) 0.5512(3)
H5 H 0.3326 0.7201 0.5593
C8 C 0.1654(3) 0.7584(3) 0.5431(3)
H6 H 0.1380 0.6994 0.5477
C9 C 0.5105(3) 0.8162(3) 0.5289(2)
H7 H 0.4766 0.7630 0.5085
C10 C 0.4432(3) 0.8777(3) 0.5530(2)
C11 C 0.4952(3) 0.9551(3) 0.5820(2)
H8 H 0.4542 0.9991 0.5990
C12 C 0.6115(3) 0.9661(3) 0.5854(2)
Cu3_3 Cu 0.0000 1.0000 0.0000
Cu5 Cu 0.72527(3) 0.74124(3) 0.50477(2)
N13 N 0.0091(2) 0.9674(2) 0.09115(16)
C25 C 0.0868(3) 0.9175(3) 0.1298(2)
H19 H 0.1443 0.8900 0.1137
C26 C 0.0867(3) 0.9040(3) 0.1937(2)
H20 H 0.1433 0.8684 0.2205
C27 C 0.0021(3) 0.9440(3) 0.2162(2)
Cu3_4 Cu 0.0000 1.0000 1.0000
Cu1_3 Cu 1.0000 0.0000 0.5000
H15 H 0.9251 0.2459 0.3322
C23 C 0.9868(4) 0.4186(3) 0.5654(3)
H17 H 0.9278 0.4457 0.5805
Cu3_5 Cu 1.0000 0.0000 0.0000
N15 N 0.9254(3) 0.0071(3) 0.1128(2)
N16 N 0.8701(2) 0.0902(2) 0.47440(18)
N17 N 0.9087(2) 0.1746(2) 0.4705(2)
N21 N 0.3274(2) 0.0940(2) 0.43774(19)
N25 N 0.8181(2) 0.2703(2) 0.09762(18)
N27 N 0.9298(3) 0.2563(3) 0.10467(19)
N28 N 0.8439(2) 0.6659(2) 0.47502(18)
N30 N 0.8784(3) 0.7030(3) 0.4260(2)
H21 H 0.8620 0.0216 0.1867
C29 C 0.7597(3) 0.0729(3) 0.4653(2)
H22 H 0.7354 0.0122 0.4671
C30 C 0.6786(3) 0.1427(3) 0.4532(2)
C31 C 0.7177(3) 0.2300(3) 0.4488(3)
H23 H 0.6674 0.2799 0.4407
C32 C 0.8346(3) 0.2416(3) 0.4569(3)
H24 H 0.8620 0.3006 0.4523
C33 C 0.4895(3) 0.1838(3) 0.4711(2)
H25 H 0.5234 0.2370 0.4915
C34 C 0.5568(3) 0.1223(3) 0.4470(2)
C35 C 0.5048(3) 0.0449(3) 0.4180(2)
H26 H 0.5458 0.0009 0.4010
C36 C 0.3885(3) 0.0339(3) 0.4146(2)
C41 C 0.7761(3) 0.2850(4) 0.1476(2)
H31 H 0.6971 0.2936 0.1411
C42 C 0.8442(3) 0.2885(4) 0.2098(2)
H32 H 0.8125 0.3002 0.2447
C43 C 0.9597(3) 0.2741(3) 0.2182(2)
C44 C 0.9968(3) 0.2573(3) 0.1632(2)
C45 C 0.8890(3) 0.5901(3) 0.5023(2)
H34 H 0.8610 0.5664 0.5360
C46 C 0.9768(3) 0.5425(3) 0.4840(2)
C48 C 0.9617(4) 0.6613(4) 0.4070(3)
H36 H 0.9874 0.6871 0.3731
Cu3_6 Cu 1.0000 0.0000 1.0000
Cu1_4 Cu 1.0000 1.0000 0.5000
N1 N 0.9909(2) 0.9674(2) 0.40885(16)
C1 C 0.9132(3) 0.9175(3) 0.3702(2)
H1 H 0.8557 0.8900 0.3863
C2 C 0.9133(3) 0.9040(3) 0.3063(2)
H2 H 0.8567 0.8684 0.2795
C3 C 0.9979(3) 0.9440(3) 0.2838(2)
Cu3_7 Cu 1.0000 1.0000 0.0000
O3 O 0.86021(19) 0.87720(19) 0.50374(14)
O4 O 0.6197(3) 0.6137(2) 0.5226(2)
N23 N 0.6342(3) 0.7483(2) 0.41260(18)
N26 N 0.8181(2) 0.7297(2) 0.59762(18)
C28 C 0.9220(3) 0.9947(4) 0.1725(2)
H27 H 0.3519 0.9811 0.3949
Cu3_8 Cu 1.0000 1.0000 1.0000
N16_2 N 0.1299(2) 0.0902(2) 0.02560(18)
N17_2 N 0.0913(2) 0.1746(2) 0.0295(2)
N18 N 0.6211(2) 0.1696(2) 0.03398(17)
N21_2 N 0.6726(2) 0.0940(2) 0.06226(19)
N28_2 N 0.1561(2) 0.6659(2) 0.02498(18)
N30_2 N 0.1216(3) 0.7030(3) 0.0740(2)
C29_2 C 0.2403(3) 0.0729(3) 0.0347(2)
H22_2 H 0.2646 0.0122 0.0329
C30_2 C 0.3214(3) 0.1427(3) 0.0468(2)
C31_2 C 0.2823(3) 0.2300(3) 0.0512(3)
H23_2 H 0.3326 0.2799 0.0593
C32_2 C 0.1654(3) 0.2416(3) 0.0431(3)
H24_2 H 0.1380 0.3006 0.0477
C33_2 C 0.5105(3) 0.1838(3) 0.0289(2)
H25_2 H 0.4766 0.2370 0.0085
C34_2 C 0.4432(3) 0.1223(3) 0.0530(2)
C35_2 C 0.4952(3) 0.0449(3) 0.0820(2)
H26_2 H 0.4542 0.0009 0.0990
C36_2 C 0.6115(3) 0.0339(3) 0.0854(2)
C46_2 C 0.0232(3) 0.5425(3) 0.0160(2)
C48_2 C 0.0383(4) 0.6613(4) 0.0930(3)
H36_2 H 0.0126 0.6871 0.1269
C23_2 C 0.0132(4) 0.4186(3) 0.9346(3)
H17_2 H 0.0722 0.4457 0.9195
Cu8 Cu 0.27473(3) 0.74124(3) 0.99523(2)
C45_2 C 0.1110(3) 0.5901(3) 0.9977(2)
H34_2 H 0.1390 0.5664 0.9640
N23_2 N 0.3658(3) 0.7483(2) 0.08740(18)
H27_2 H 0.6481 0.9811 0.1051
H40 H 0.441509 0.601045 0.0163466
O3_2 O 0.13979(19) 0.87720(19) 0.99626(14)
O4_2 O 0.3803(3) 0.6137(2) 0.9774(2)
N20 N 0.3789(2) 0.8304(2) 0.96602(17)
N26_2 N 0.1819(2) 0.7297(2) 0.90238(18)
H39 H 0.414945 0.626176 0.940957
O1_2 O 0.86021(19) 0.12280(19) 0.00374(14)
O2_2 O 0.6197(3) 0.3863(2) 0.0226(2)
C21_2 C 0.8890(3) 0.4099(3) 0.0023(2)
H16_2 H 0.8610 0.4336 0.0360
C47_2 C 0.9868(4) 0.5814(3) 0.0654(3)
H35_2 H 0.9278 0.5543 0.0805
H37 H 0.670884 0.440087 0.0326475
N11_2 N 0.8439(2) 0.3341(2) 0.97502(18)
N12_2 N 0.8784(3) 0.2970(3) 0.9260(2)
H9_2 H 0.3519 0.0189 0.8949
C22_2 C 0.9768(3) 0.4575(3) 0.9840(2)
C24_2 C 0.9617(4) 0.3387(4) 0.9070(3)
H18_2 H 0.9874 0.3129 0.8731
N14_2 N 0.9909(2) 0.0326(2) 0.90885(16)
H38 H 0.558491 0.398955 0.983653
N3_2 N 0.8701(2) 0.9098(2) 0.97440(18)
N4_2 N 0.9087(2) 0.8254(2) 0.9705(2)
N6_2 N 0.3274(2) 0.9060(2) 0.93774(19)
C5_2 C 0.7597(3) 0.9271(3) 0.9653(2)
H4_2 H 0.7354 0.9878 0.9671
C6_2 C 0.6786(3) 0.8573(3) 0.9532(2)
C7_2 C 0.7177(3) 0.7700(3) 0.9488(3)
H5_2 H 0.6674 0.7201 0.9407
C8_2 C 0.8346(3) 0.7584(3) 0.9569(3)
H6_2 H 0.8620 0.6994 0.9523
C9_2 C 0.4895(3) 0.8162(3) 0.9711(2)
H7_2 H 0.5234 0.7630 0.9915
C10_2 C 0.5568(3) 0.8777(3) 0.9470(2)
C11_2 C 0.5048(3) 0.9551(3) 0.9180(2)
H8_2 H 0.5458 0.9991 0.9010
C12_2 C 0.3885(3) 0.9661(3) 0.9146(2)
C1_2 C 0.0868(3) 0.0825(3) 0.6298(2)
H1_2 H 0.1443 0.1100 0.6137
C2_2 C 0.0867(3) 0.0960(3) 0.6937(2)
H2_2 H 0.1433 0.1316 0.7205
C3_2 C 0.0021(3) 0.0560(3) 0.7162(2)
C28_2 C 0.0780(3) 0.0053(4) 0.8275(2)
H15_2 H 0.0749 0.7541 0.6678
N15_2 N 0.0746(3) 0.9929(3) 0.8872(2)
N27_2 N 0.0702(3) 0.7437(3) 0.89533(19)
H21_2 H 0.1380 0.9784 0.8133
C41_2 C 0.2239(3) 0.7150(4) 0.8524(2)
H31_2 H 0.3029 0.7064 0.8589
C42_2 C 0.1558(3) 0.7115(4) 0.7902(2)
H32_2 H 0.1875 0.6998 0.7553
C43_2 C 0.0403(3) 0.7259(3) 0.7818(2)
C44_2 C 0.0032(3) 0.7427(3) 0.8368(2)
C4_2 C 0.9220(3) 0.0053(4) 0.6725(2)
C25_2 C 0.9132(3) 0.0825(3) 0.8702(2)
H19_2 H 0.8557 0.1100 0.8863
C26_2 C 0.9133(3) 0.0960(3) 0.8063(2)
H20_2 H 0.8567 0.1316 0.7795
C27_2 C 0.9979(3) 0.0560(3) 0.7838(2)
N2_2 N 0.9254(3) 0.9929(3) 0.6128(2)
N8_2 N 0.6232(3) 0.8270(3) 0.3815(2)
N10_2 N 0.9298(3) 0.7437(3) 0.60467(19)
H3_2 H 0.8620 0.9784 0.6867
C13_2 C 0.5918(5) 0.6740(4) 0.3838(3)
H10_2 H 0.5988 0.6197 0.4075
C14_2 C 0.5368(6) 0.6712(4) 0.3200(3)
H11_2 H 0.5060 0.6162 0.3008
C15_2 C 0.5278(3) 0.7503(3) 0.2847(2)
C16_2 C 0.5728(4) 0.8269(3) 0.3189(3)
H12_2 H 0.5677 0.8826 0.2968
C17_2 C 0.7761(3) 0.7150(4) 0.6476(2)
H13_2 H 0.6971 0.7064 0.6411
C18_2 C 0.8442(3) 0.7115(4) 0.7098(2)
H14_2 H 0.8125 0.6998 0.7447
C19_2 C 0.9597(3) 0.7259(3) 0.7182(2)
C20_2 C 0.9968(3) 0.7427(3) 0.6632(2)
N24_2 N 0.3768(3) 0.8270(3) 0.1185(2)
C37_2 C 0.4082(5) 0.6740(4) 0.1162(3)
H28_2 H 0.4012 0.6197 0.0925
C38_2 C 0.4632(6) 0.6712(4) 0.1800(3)
H29_2 H 0.4940 0.6162 0.1992
C39_2 C 0.4722(3) 0.7503(3) 0.2153(2)
C40_2 C 0.4272(4) 0.8269(3) 0.1811(3)
H30_2 H 0.4323 0.8826 0.2032
H33_2 H 0.9251 0.7541 0.8322
H37_2 H 0.329116 0.559913 0.967352
H39_2 H 0.585055 0.373824 0.0590435
B1 B 0.2369(8) 0.5604(6) 0.6448(6)
F1 F 0.2614(5) 0.5515(3) 0.5853(3)
F2 F 0.2939(4) 0.6321(4) 0.6775(3)
F3 F 0.1227(4) 0.5787(4) 0.6350(4)
F4 F 0.2628(5) 0.4797(4) 0.6759(3)
B1_2 B 0.7631(8) 0.5604(6) 0.8552(6)
F1_2 F 0.7386(5) 0.5515(3) 0.9147(3)
F2_2 F 0.7061(4) 0.6321(4) 0.8225(3)
F3_2 F 0.8773(4) 0.5787(4) 0.8650(4)
F4_2 F 0.7372(5) 0.4797(4) 0.8241(3)
B1_3 B 0.7631(8) 0.4396(6) 0.3552(6)
F1_3 F 0.7386(5) 0.4485(3) 0.4147(3)
F2_3 F 0.7061(4) 0.3679(4) 0.3225(3)
F3_3 F 0.8773(4) 0.4213(4) 0.3650(4)
F4_3 F 0.7372(5) 0.5203(4) 0.3241(3)
B1_4 B 0.2369(8) 0.4396(6) 0.1448(6)
F1_4 F 0.2614(5) 0.4485(3) 0.0853(3)
F2_4 F 0.2939(4) 0.3679(4) 0.1775(3)
F3_4 F 0.1227(4) 0.4213(4) 0.1350(4)
F4_4 F 0.2628(5) 0.5203(4) 0.1759(3)
B2 B 0.2965(5) 0.9102(5) 0.7218(4)
F5 F 0.1851(3) 0.8926(3) 0.6993(4)
F6 F 0.3327(6) 0.9641(5) 0.6804(3)
F7 F 0.3552(5) 0.8343(5) 0.7321(6)
F8 F 0.3099(6) 0.9611(10) 0.7717(4)
B2_2 B 0.7035(5) 0.9102(5) 0.7782(4)
F5_2 F 0.8149(3) 0.8926(3) 0.8007(4)
F6_2 F 0.6673(6) 0.9641(5) 0.8196(3)
F7_2 F 0.6448(5) 0.8343(5) 0.7679(6)
F8_2 F 0.6901(6) 0.9611(10) 0.7283(4)
B2_3 B 0.7035(5) 0.0898(5) 0.2782(4)
F5_3 F 0.8149(3) 0.1074(3) 0.3007(4)
F6_3 F 0.6673(6) 0.0359(5) 0.3196(3)
F7_3 F 0.6448(5) 0.1657(5) 0.2679(6)
F8_3 F 0.6901(6) 0.0389(10) 0.2283(4)
B2_4 B 0.2965(5) 0.0898(5) 0.2218(4)
F5_4 F 0.1851(3) 0.1074(3) 0.1993(4)
F6_4 F 0.3327(6) 0.0359(5) 0.1804(3)
F7_4 F 0.3552(5) 0.1657(5) 0.2321(6)
F8_4 F 0.3099(6) 0.0389(10) 0.2717(4)
B3 B 0.2596(6) 0.7693(5) 0.3686(4)
F9 F 0.1789(7) 0.8115(7) 0.3913(5)
F10 F 0.2425(11) 0.7592(8) 0.3090(4)
F11 F 0.3534(6) 0.8135(7) 0.3949(4)
F12 F 0.2913(12) 0.6951(5) 0.4046(6)
B3_2 B 0.7404(6) 0.7693(5) 0.1314(4)
F9_2 F 0.8211(7) 0.8115(7) 0.1087(5)
F10_2 F 0.7575(11) 0.7592(8) 0.1910(4)
F11_2 F 0.6466(6) 0.8135(7) 0.1051(4)
F12_2 F 0.7087(12) 0.6951(5) 0.0954(6)
B3_3 B 0.7404(6) 0.2307(5) 0.6314(4)
F9_3 F 0.8211(7) 0.1885(7) 0.6087(5)
F10_3 F 0.7575(11) 0.2408(8) 0.6910(4)
F11_3 F 0.6466(6) 0.1865(7) 0.6051(4)
F12_3 F 0.7087(12) 0.3049(5) 0.5954(6)
B3_4 B 0.2596(6) 0.2307(5) 0.8686(4)
F9_4 F 0.1789(7) 0.1885(7) 0.8913(5)
F10_4 F 0.2425(11) 0.2408(8) 0.8090(4)
F11_4 F 0.3534(6) 0.1865(7) 0.8949(4)
F12_4 F 0.2913(12) 0.3049(5) 0.9046(6)
loop_
_geom_bond_atom_site_label_1
_geom_bond_atom_site_label_2
_geom_bond_site_symmetry_1
_geom_bond_site_symmetry_2
Cu1 O1 1_555 1_555
Cu2 O1 1_555 1_555
O2 Cu2 1_555 1_555
N7 Cu2 1_555 1_555
N8 N7 1_555 1_555
N9 Cu2 1_555 1_555
N10 N9 1_555 1_555
N11 Cu2 1_555 1_555
N12 N11 1_555 1_555
C13 N7 1_555 1_555
H10 C13 1_555 1_555
C14 C13 1_555 1_555
H11 C14 1_555 1_555
C15 C14 1_555 1_555
C16 N8 1_555 1_555
H12 C16 1_555 1_555
C17 N9 1_555 1_555
H13 C17 1_555 1_555
C18 C17 1_555 1_555
H14 C18 1_555 1_555
C19 C18 1_555 1_555
C20 N10 1_555 1_555
C21 N11 1_555 1_555
H16 C21 1_555 1_555
C22 C21 1_555 1_555
C24 N12 1_555 1_555
H18 C24 1_555 1_555
N14 Cu1 1_555 1_555
N19 Cu2 1_555 1_555
N22 N24 1_555 1_555
N24 C40 1_555 1_555
C37 N22 1_555 1_555
H28 C37 1_555 1_555
C38 C37 1_555 1_555
H29 C38 1_555 1_555
C39 C15 1_555 1_555
C40 C39 1_555 1_555
H30 C40 1_555 1_555
H35 C47 1_555 1_555
C15 C16 1_555 1_555
C19 C20 1_555 1_555
C38 C39 1_555 1_555
N3 Cu1_2 1_555 1_555
N4 N3 1_555 1_555
N5 N6 1_555 1_555
N6 C12 1_555 1_555
C5 N3 1_555 1_555
H4 C5 1_555 1_555
C6 C5 1_555 1_555
C7 C6 1_555 1_555
H5 C7 1_555 1_555
C8 N4 1_555 1_555
H6 C8 1_555 1_555
C9 N5 1_555 1_555
H7 C9 1_555 1_555
C10 C6 1_555 1_555
C11 C10 1_555 1_555
H8 C11 1_555 1_555
C12 C11 1_555 1_555
Cu3_3 N13 1_555 1_555
Cu5 N5 1_555 1_555
C25 N13 1_555 1_555
H19 C25 1_555 1_555
C26 C25 1_555 1_555
H20 C26 1_555 1_555
C7 C8 1_555 1_555
C9 C10 1_555 1_555
C26 C27 1_555 1_555
H17 C23 1_555 1_555
Cu6 N25 1_555 1_555
Cu5 N28 1_555 1_555
N16 Cu1_3 1_555 1_555
N17 N16 1_555 1_555
N19 N21 1_555 1_555
N21 C36 1_555 1_555
N25 N27 1_555 1_555
N27 C44 1_555 1_555
N28 N30 1_555 1_555
N30 C48 1_555 1_555
C29 N16 1_555 1_555
H22 C29 1_555 1_555
C30 C29 1_555 1_555
C31 C30 1_555 1_555
H23 C31 1_555 1_555
C32 N17 1_555 1_555
H24 C32 1_555 1_555
C33 N19 1_555 1_555
H25 C33 1_555 1_555
C34 C30 1_555 1_555
C35 C34 1_555 1_555
H26 C35 1_555 1_555
C36 C35 1_555 1_555
C41 N25 1_555 1_555
H31 C41 1_555 1_555
C42 C41 1_555 1_555
H32 C42 1_555 1_555
C44 C43 1_555 1_555
C45 N28 1_555 1_555
H34 C45 1_555 1_555
H36 C48 1_555 1_555
C31 C32 1_555 1_555
C33 C34 1_555 1_555
C42 C43 1_555 1_555
C45 C46 1_555 1_555
N1 Cu1_4 1_555 1_555
C1 N1 1_555 1_555
H1 C1 1_555 1_555
C2 C1 1_555 1_555
H2 C2 1_555 1_555
C3 C2 1_555 1_555
Cu5 O3 1_555 1_555
O3 Cu1_4 1_555 1_555
O4 Cu5 1_555 1_555
N23 Cu5 1_555 1_555
N26 Cu5 1_555 1_555
Cu6 N18 1_555 1_555
N16_2 Cu3 1_555 1_555
N17_2 N16_2 1_555 1_555
N18 N21_2 1_555 1_555
N21_2 C36_2 1_555 1_555
N28_2 N30_2 1_555 1_555
N30_2 C48_2 1_555 1_555
C29_2 N16_2 1_555 1_555
H22_2 C29_2 1_555 1_555
C30_2 C29_2 1_555 1_555
C31_2 C30_2 1_555 1_555
H23_2 C31_2 1_555 1_555
C32_2 N17_2 1_555 1_555
H24_2 C32_2 1_555 1_555
C33_2 N18 1_555 1_555
H25_2 C33_2 1_555 1_555
C34_2 C30_2 1_555 1_555
C35_2 C34_2 1_555 1_555
H26_2 C35_2 1_555 1_555
C36_2 C35_2 1_555 1_555
H36_2 C48_2 1_555 1_555
C31_2 C32_2 1_555 1_555
C33_2 C34_2 1_555 1_555
H17_2 C23_2 1_555 1_555
H34_2 C45_2 1_555 1_555
Cu8 O3_2 1_555 1_555
O3_2 Cu3_4 1_555 1_555
O4_2 Cu8 1_555 1_555
N20 Cu8 1_555 1_555
N26_2 Cu8 1_555 1_555
O4_2 H39 1_555 1_555
Cu3_5 O1_2 1_555 1_555
Cu6 O1_2 1_555 1_555
O2_2 Cu6 1_555 1_555
H16_2 C21_2 1_555 1_555
H35_2 C47_2 1_555 1_555
O2_2 H37 1_555 1_555
N12_2 N11_2 1_555 1_555
C24_2 N12_2 1_555 1_555
H18_2 C24_2 1_555 1_555
N14_2 Cu3_6 1_555 1_555
N3_2 Cu3_8 1_555 1_555
N4_2 N3_2 1_555 1_555
N20 N6_2 1_555 1_555
N6_2 C12_2 1_555 1_555
C5_2 N3_2 1_555 1_555
H4_2 C5_2 1_555 1_555
C6_2 C5_2 1_555 1_555
C7_2 C6_2 1_555 1_555
H5_2 C7_2 1_555 1_555
C8_2 N4_2 1_555 1_555
H6_2 C8_2 1_555 1_555
C9_2 N20 1_555 1_555
H7_2 C9_2 1_555 1_555
C10_2 C6_2 1_555 1_555
C11_2 C10_2 1_555 1_555
H8_2 C11_2 1_555 1_555
C12_2 C11_2 1_555 1_555
C7_2 C8_2 1_555 1_555
C9_2 C10_2 1_555 1_555
C1_2 N14 1_555 1_555
H1_2 C1_2 1_555 1_555
C2_2 C1_2 1_555 1_555
H2_2 C2_2 1_555 1_555
C3_2 C2_2 1_555 1_555
N26_2 N27_2 1_555 1_555
N27_2 C44_2 1_555 1_555
C41_2 N26_2 1_555 1_555
H31_2 C41_2 1_555 1_555
C42_2 C41_2 1_555 1_555
H32_2 C42_2 1_555 1_555
C44_2 C43_2 1_555 1_555
C42_2 C43_2 1_555 1_555
C25_2 N14_2 1_555 1_555
H19_2 C25_2 1_555 1_555
C26_2 C25_2 1_555 1_555
H20_2 C26_2 1_555 1_555
C26_2 C27_2 1_555 1_555
N8_2 N23 1_555 1_555
N10_2 N26 1_555 1_555
C13_2 N23 1_555 1_555
H10_2 C13_2 1_555 1_555
C14_2 C13_2 1_555 1_555
H11_2 C14_2 1_555 1_555
C15_2 C14_2 1_555 1_555
C16_2 N8_2 1_555 1_555
H12_2 C16_2 1_555 1_555
C17_2 N26 1_555 1_555
H13_2 C17_2 1_555 1_555
C18_2 C17_2 1_555 1_555
H14_2 C18_2 1_555 1_555
C19_2 C18_2 1_555 1_555
C20_2 N10_2 1_555 1_555
N23_2 N24_2 1_555 1_555
N24_2 C40_2 1_555 1_555
C37_2 N23_2 1_555 1_555
H28_2 C37_2 1_555 1_555
C38_2 C37_2 1_555 1_555
H29_2 C38_2 1_555 1_555
C39_2 C15_2 1_555 1_555
C40_2 C39_2 1_555 1_555
H30_2 C40_2 1_555 1_555
C15_2 C16_2 1_555 1_555
C19_2 C20_2 1_555 1_555
C38_2 C39_2 1_555 1_555
O4_2 H37_2 1_555 1_555
O2_2 H39_2 1_555 1_555
B1 F1 1_555 1_555
F2 B1 1_555 1_555
F3 B1 1_555 1_555
F4 B1 1_555 1_555
B1_2 F1_2 1_555 1_555
F2_2 B1_2 1_555 1_555
F3_2 B1_2 1_555 1_555
F4_2 B1_2 1_555 1_555
B1_3 F1_3 1_555 1_555
F2_3 B1_3 1_555 1_555
F3_3 B1_3 1_555 1_555
F4_3 B1_3 1_555 1_555
B1_4 F1_4 1_555 1_555
F2_4 B1_4 1_555 1_555
F3_4 B1_4 1_555 1_555
F4_4 B1_4 1_555 1_555
B2 F5 1_555 1_555
F6 B2 1_555 1_555
F7 B2 1_555 1_555
F8 B2 1_555 1_555
B2_2 F5_2 1_555 1_555
F6_2 B2_2 1_555 1_555
F7_2 B2_2 1_555 1_555
F8_2 B2_2 1_555 1_555
B2_3 F5_3 1_555 1_555
F6_3 B2_3 1_555 1_555
F7_3 B2_3 1_555 1_555
F8_3 B2_3 1_555 1_555
B2_4 F5_4 1_555 1_555
F6_4 B2_4 1_555 1_555
F7_4 B2_4 1_555 1_555
F8_4 B2_4 1_555 1_555
B3 F9 1_555 1_555
F10 B3 1_555 1_555
F11 B3 1_555 1_555
F12 B3 1_555 1_555
B3_2 F9_2 1_555 1_555
F10_2 B3_2 1_555 1_555
F11_2 B3_2 1_555 1_555
F12_2 B3_2 1_555 1_555
B3_3 F9_3 1_555 1_555
F10_3 B3_3 1_555 1_555
F11_3 B3_3 1_555 1_555
F12_3 B3_3 1_555 1_555
B3_4 F9_4 1_555 1_555
F10_4 B3_4 1_555 1_555
F11_4 B3_4 1_555 1_555
F12_4 B3_4 1_555 1_555

#END
