
###############################################################################
#
# This file contains modified crystal structure data generated from the
# MOF subset of the Cambridge Structural Database (CSD) v543 
# hosted by the Cambridge Crystallographic Data Centre (CCDC).
#
# This work is licensed under the Creative Commons
# Attribution-NonCommercial-ShareAlike 4.0 International License.
# To view a copy of this license, visit
# http://creativecommons.org/licenses/by-nc-sa/4.0/
# or send a letter to
# Creative Commons, PO Box 1866, Mountain View, CA 94042, USA.
#
# CIF created using the CSD Python API on 29 September 2022
# The structure has been converted into the P1 space group
# The structure has a 3D framework
# The original CSD entry HIHFOV is in the monoclinic crystal system
# The framework has been calculated to contain at least 10.0% void space
# The void calculation uses a probe of radius 1.32A, grid spacing 0.4
#
###############################################################################

data_HIHFOV
_chemical_formula_moiety         '(C144 H104 N32 Ni4)n'
_symmetry_cell_setting           triclinic
_symmetry_space_group_name_H-M   'P 1'
_symmetry_Int_Tables_number      1
_space_group_name_Hall           'P 1'
loop_
_symmetry_equiv_pos_site_id
_symmetry_equiv_pos_as_xyz
1 x,y,z
_cell_length_a                   23.9544(6)
_cell_length_b                   9.6535(2)
_cell_length_c                   17.2072(4)
_cell_angle_alpha                90
_cell_angle_beta                 107.043(2)
_cell_angle_gamma                90
_cell_volume                     3804.32
loop_
_atom_site_label
_atom_site_type_symbol
_atom_site_fract_x
_atom_site_fract_y
_atom_site_fract_z
C1 C 0.03734(8) 0.19580(19) 0.28301(10)
H1 H 0.0071 0.1732 0.2369
C2 C 0.08837(10) 0.2666(3) 0.28115(13)
H2 H 0.0972 0.2999 0.2354
C3 C 0.12232(8) 0.2764(2) 0.36026(12)
H3 H 0.1592 0.3163 0.3787
C4 C 0.09048(7) 0.21424(17) 0.40877(10)
C5 C 0.10910(7) 0.19958(17) 0.49370(10)
C6 C 0.07804(8) 0.1377(2) 0.54185(11)
C7 C 0.09305(10) 0.1399(3) 0.62864(12)
H4 H 0.1272 0.1758 0.6638
C8 C 0.04846(11) 0.0799(3) 0.65057(12)
H5 H 0.0458 0.0676 0.7030
C9 C 0.00658(9) 0.0401(2) 0.57621(11)
C10 C 0.16803(7) 0.25741(18) 0.53801(10)
C11 C 0.17738(8) 0.3999(2) 0.54463(12)
H7 H 0.1468 0.4603 0.5213
C12 C 0.23193(9) 0.45230(19) 0.58576(13)
H8 H 0.2376 0.5475 0.5914
C13 C 0.27785(7) 0.36317(18) 0.61837(10)
C14 C 0.26973(8) 0.22049(19) 0.61129(12)
H9 H 0.3009 0.1606 0.6327
C15 C 0.21477(8) 0.1685(2) 0.57193(12)
H10 H 0.2090 0.0731 0.5681
C16 C 0.37107(8) 0.36941(19) 0.73034(11)
H11 H 0.3656 0.2864 0.7545
C17 C 0.40765(9) 0.5601(2) 0.70530(13)
H12 H 0.4330 0.6344 0.7092
C18 C 0.35693(11) 0.5425(2) 0.64444(14)
H13 H 0.3411 0.6018 0.6009
N1 N 0.03741(6) 0.16508(14) 0.35833(8)
N2 N 0.02347(8) 0.07221(16) 0.51117(10)
N3 N 0.33389(6) 0.41889(16) 0.66064(9)
N4 N 0.41612(7) 0.45258(15) 0.76017(10)
Ni3 Ni 0.472438(8) 0.444951(18) 0.889615(9)
N10 N 0.01622(6) 0.86605(15) 0.36766(9)
C19 C 0.94187(8) 0.36063(18) 0.38520(12)
H14 H 0.9791 0.3850 0.3836
C20 C 0.89500(11) 0.45487(19) 0.37323(17)
H15 H 0.8959 0.5494 0.3633
C21 C 0.84807(9) 0.37953(19) 0.37909(14)
H16 H 0.8107 0.4128 0.3736
C22 C 0.86768(7) 0.23977(17) 0.39520(11)
C23 C 0.83352(7) 0.12471(16) 0.40215(10)
C28 C 0.77035(7) 0.15271(17) 0.39321(10)
C29 C 0.75444(7) 0.23730(18) 0.44876(11)
H20 H 0.7831 0.2761 0.4920
C30 C 0.69585(7) 0.26403(18) 0.43990(11)
H21 H 0.6853 0.3185 0.4779
C31 C 0.65336(7) 0.20935(17) 0.37443(10)
C32 C 0.66845(8) 0.12462(19) 0.31828(11)
H22 H 0.6397 0.0879 0.2744
C33 C 0.72689(8) 0.09553(19) 0.32845(11)
H23 H 0.7372 0.0374 0.2918
C34 C 0.57347(7) 0.36616(18) 0.38193(11)
H24 H 0.5973 0.4422 0.4014
C35 C 0.49888(7) 0.23444(19) 0.33907(12)
H25 H 0.4605 0.2033 0.3236
C36 C 0.54579(8) 0.15641(19) 0.33668(12)
H26 H 0.5456 0.0649 0.3197
N5 N 0.92626(6) 0.23272(14) 0.39899(9)
N7 N 0.59328(6) 0.24148(15) 0.36469(9)
N8 N 0.51622(6) 0.36605(15) 0.36766(9)
Ni1 Ni 0.972438(8) 0.055049(18) 0.389615(9)
N9 N 0.91612(7) 0.04742(15) 0.26017(10)
Ni2 Ni 0.472438(8) 0.555049(18) 0.389615(9)
N10_2 N 0.01622(6) 0.13395(15) 0.86766(9)
C6_2 C 0.07804(8) 0.8623(2) 0.04185(11)
C7_2 C 0.09305(10) 0.8601(3) 0.12864(12)
H4_2 H 0.1272 0.8242 0.1638
C8_2 C 0.04846(11) 0.9201(3) 0.15057(12)
H5_2 H 0.0458 0.9324 0.2030
C9_2 C 0.00658(9) 0.9599(2) 0.07621(11)
C10_2 C 0.16803(7) 0.74259(18) 0.03801(10)
C11_2 C 0.17738(8) 0.6001(2) 0.04463(12)
H7_2 H 0.1468 0.5397 0.0213
C12_2 C 0.23193(9) 0.54770(19) 0.08576(13)
H8_2 H 0.2376 0.4525 0.0914
C13_2 C 0.27785(7) 0.63683(18) 0.11837(10)
C14_2 C 0.26973(8) 0.77951(19) 0.11129(12)
H9_2 H 0.3009 0.8394 0.1327
C15_2 C 0.21477(8) 0.8315(2) 0.07193(12)
H10_2 H 0.2090 0.9269 0.0681
C16_2 C 0.37107(8) 0.63059(19) 0.23034(11)
H11_2 H 0.3656 0.7136 0.2545
C17_2 C 0.40765(9) 0.4399(2) 0.20530(13)
H12_2 H 0.4330 0.3656 0.2092
C18_2 C 0.35693(11) 0.4575(2) 0.14444(14)
H13_2 H 0.3411 0.3982 0.1009
N2_2 N 0.02347(8) 0.92779(16) 0.01117(10)
N3_2 N 0.33389(6) 0.58111(16) 0.16064(9)
N4_2 N 0.41612(7) 0.54742(15) 0.26017(10)
C19_2 C 0.94187(8) 0.63937(18) 0.88520(12)
H14_2 H 0.9791 0.6150 0.8836
C20_2 C 0.89500(11) 0.54513(19) 0.87323(17)
H15_2 H 0.8959 0.4506 0.8633
C21_2 C 0.84807(9) 0.62047(19) 0.87909(14)
H16_2 H 0.8107 0.5872 0.8736
C22_2 C 0.86768(7) 0.76023(17) 0.89520(11)
C23_2 C 0.83352(7) 0.87529(16) 0.90215(10)
C28_2 C 0.77035(7) 0.84729(17) 0.89321(10)
C29_2 C 0.75444(7) 0.76270(18) 0.94876(11)
H20_2 H 0.7831 0.7239 0.9920
C30_2 C 0.69585(7) 0.73597(18) 0.93990(11)
H21_2 H 0.6853 0.6815 0.9779
C31_2 C 0.65336(7) 0.79065(17) 0.87443(10)
C32_2 C 0.66845(8) 0.87538(19) 0.81828(11)
H22_2 H 0.6397 0.9121 0.7744
C33_2 C 0.72689(8) 0.90447(19) 0.82845(11)
H23_2 H 0.7372 0.9626 0.7918
C34_2 C 0.57347(7) 0.63384(18) 0.88193(11)
H24_2 H 0.5973 0.5578 0.9014
C35_2 C 0.49888(7) 0.76556(19) 0.83907(12)
H25_2 H 0.4605 0.7967 0.8236
C36_2 C 0.54579(8) 0.84359(19) 0.83668(12)
H26_2 H 0.5456 0.9351 0.8197
N5_2 N 0.92626(6) 0.76728(14) 0.89899(9)
N7_2 N 0.59328(6) 0.75852(15) 0.86469(9)
N8_2 N 0.51622(6) 0.63395(15) 0.86766(9)
Ni1_2 Ni 0.972438(8) 0.944951(18) 0.889615(9)
N9_2 N 0.91612(7) 0.95258(15) 0.76017(10)
C1_2 C 0.53734(8) 0.69580(19) 0.28301(10)
H1_2 H 0.5071 0.6732 0.2369
C2_2 C 0.58837(10) 0.7666(3) 0.28115(13)
H2_2 H 0.5972 0.7999 0.2354
C3_2 C 0.62232(8) 0.7764(2) 0.36026(12)
H3_2 H 0.6592 0.8163 0.3787
C4_2 C 0.59048(7) 0.71424(17) 0.40877(10)
C5_2 C 0.60910(7) 0.69958(17) 0.49370(10)
C6_3 C 0.57804(8) 0.6377(2) 0.54185(11)
C7_3 C 0.59305(10) 0.6399(3) 0.62864(12)
H4_3 H 0.6272 0.6758 0.6638
C8_3 C 0.54846(11) 0.5799(3) 0.65057(12)
H5_3 H 0.5458 0.5676 0.7030
C9_3 C 0.50658(9) 0.5401(2) 0.57621(11)
H6 H 0.4714 0.4966 0.5735
C10_3 C 0.66803(7) 0.75741(18) 0.53801(10)
C11_3 C 0.67738(8) 0.8999(2) 0.54463(12)
H7_3 H 0.6468 0.9603 0.5213
C12_3 C 0.73193(9) 0.95230(19) 0.58576(13)
C13_3 C 0.77785(7) 0.86317(18) 0.61837(10)
C14_3 C 0.76973(8) 0.72049(19) 0.61129(12)
H9_3 H 0.8009 0.6606 0.6327
C15_3 C 0.71477(8) 0.6685(2) 0.57193(12)
H10_3 H 0.7090 0.5731 0.5681
C16_3 C 0.87107(8) 0.86941(19) 0.73034(11)
H11_3 H 0.8656 0.7864 0.7545
C19_3 C 0.44187(8) 0.86063(18) 0.38520(12)
H14_3 H 0.4791 0.8850 0.3836
C20_3 C 0.39500(11) 0.95487(19) 0.37323(17)
C21_3 C 0.34807(9) 0.87953(19) 0.37909(14)
H16_3 H 0.3107 0.9128 0.3736
C22_3 C 0.36768(7) 0.73977(17) 0.39520(11)
C23_3 C 0.33352(7) 0.62471(16) 0.40215(10)
C24 C 0.35258(6) 0.48748(16) 0.41650(10)
C25 C 0.32066(7) 0.37628(17) 0.43890(11)
H17 H 0.2820 0.3785 0.4394
C26 C 0.35814(8) 0.26628(18) 0.45946(12)
H18 H 0.3503 0.1796 0.4774
C27 C 0.41151(7) 0.31203(17) 0.44774(10)
H19 H 0.4447 0.2569 0.4571
C28_3 C 0.27035(7) 0.65271(17) 0.39321(10)
C29_3 C 0.25444(7) 0.73730(18) 0.44876(11)
H20_3 H 0.2831 0.7761 0.4920
C30_3 C 0.19585(7) 0.76403(18) 0.43990(11)
H21_3 H 0.1853 0.8185 0.4779
C31_3 C 0.15336(7) 0.70935(17) 0.37443(10)
C32_3 C 0.16845(8) 0.62462(19) 0.31828(11)
H22_3 H 0.1397 0.5879 0.2744
C33_3 C 0.22689(8) 0.59553(19) 0.32845(11)
H23_3 H 0.2372 0.5374 0.2918
C34_3 C 0.07347(7) 0.86616(18) 0.38193(11)
H24_3 H 0.0973 0.9422 0.4014
C36_3 C 0.04579(8) 0.65641(19) 0.33668(12)
H26_3 H 0.0456 0.5649 0.3197
N1_2 N 0.53741(6) 0.66508(14) 0.35833(8)
N2_3 N 0.52347(8) 0.57221(16) 0.51117(10)
N3_3 N 0.83389(6) 0.91889(16) 0.66064(9)
N5_3 N 0.42626(6) 0.73272(14) 0.39899(9)
N6 N 0.40884(6) 0.44224(13) 0.42191(8)
N7_3 N 0.09328(6) 0.74148(15) 0.36469(9)
C6_4 C 0.57804(8) 0.3623(2) 0.04185(11)
C7_4 C 0.59305(10) 0.3601(3) 0.12864(12)
H4_4 H 0.6272 0.3242 0.1638
C8_4 C 0.54846(11) 0.4201(3) 0.15057(12)
H5_4 H 0.5458 0.4324 0.2030
C9_4 C 0.50658(9) 0.4599(2) 0.07621(11)
H6_2 H 0.4714 0.5034 0.0735
C10_4 C 0.66803(7) 0.24259(18) 0.03801(10)
C11_4 C 0.67738(8) 0.1001(2) 0.04463(12)
H7_4 H 0.6468 0.0397 0.0213
C12_4 C 0.73193(9) 0.04770(19) 0.08576(13)
C13_4 C 0.77785(7) 0.13683(18) 0.11837(10)
C14_4 C 0.76973(8) 0.27951(19) 0.11129(12)
H9_4 H 0.8009 0.3394 0.1327
C15_4 C 0.71477(8) 0.3315(2) 0.07193(12)
H10_4 H 0.7090 0.4269 0.0681
C16_4 C 0.87107(8) 0.13059(19) 0.23034(11)
H11_4 H 0.8656 0.2136 0.2545
N2_4 N 0.52347(8) 0.42779(16) 0.01117(10)
N3_4 N 0.83389(6) 0.08111(16) 0.16064(9)
C1_3 C 0.53734(8) 0.30420(19) 0.78301(10)
H1_3 H 0.5071 0.3268 0.7369
C2_3 C 0.58837(10) 0.2334(3) 0.78115(13)
H2_3 H 0.5972 0.2001 0.7354
C3_3 C 0.62232(8) 0.2236(2) 0.86026(12)
H3_3 H 0.6592 0.1837 0.8787
C4_3 C 0.59048(7) 0.28576(17) 0.90877(10)
C5_3 C 0.60910(7) 0.30042(17) 0.99370(10)
C19_4 C 0.44187(8) 0.13937(18) 0.88520(12)
H14_4 H 0.4791 0.1150 0.8836
C20_4 C 0.39500(11) 0.04513(19) 0.87323(17)
C21_4 C 0.34807(9) 0.12047(19) 0.87909(14)
H16_4 H 0.3107 0.0872 0.8736
C22_4 C 0.36768(7) 0.26023(17) 0.89520(11)
C23_4 C 0.33352(7) 0.37529(16) 0.90215(10)
C24_2 C 0.35258(6) 0.51252(16) 0.91650(10)
C25_2 C 0.32066(7) 0.62372(17) 0.93890(11)
H17_2 H 0.2820 0.6215 0.9394
C26_2 C 0.35814(8) 0.73372(18) 0.95946(12)
H18_2 H 0.3503 0.8204 0.9774
C27_2 C 0.41151(7) 0.68797(17) 0.94774(10)
H19_2 H 0.4447 0.7431 0.9571
C28_4 C 0.27035(7) 0.34729(17) 0.89321(10)
C29_4 C 0.25444(7) 0.26270(18) 0.94876(11)
H20_4 H 0.2831 0.2239 0.9920
C30_4 C 0.19585(7) 0.23597(18) 0.93990(11)
H21_4 H 0.1853 0.1815 0.9779
C31_4 C 0.15336(7) 0.29065(17) 0.87443(10)
C32_4 C 0.16845(8) 0.37538(19) 0.81828(11)
H22_4 H 0.1397 0.4121 0.7744
C33_4 C 0.22689(8) 0.40447(19) 0.82845(11)
H23_4 H 0.2372 0.4626 0.7918
C34_4 C 0.07347(7) 0.13384(18) 0.88193(11)
H24_4 H 0.0973 0.0578 0.9014
C36_4 C 0.04579(8) 0.34359(19) 0.83668(12)
H26_4 H 0.0456 0.4351 0.8197
N1_3 N 0.53741(6) 0.33492(14) 0.85833(8)
N5_4 N 0.42626(6) 0.26728(14) 0.89899(9)
N6_2 N 0.40884(6) 0.55776(13) 0.92191(8)
N7_4 N 0.09328(6) 0.25852(15) 0.86469(9)
H6_3 H 0.9714 0.9966 0.5735
C24_3 C 0.85258(6) 0.98748(16) 0.41650(10)
C25_3 C 0.82066(7) 0.87628(17) 0.43890(11)
H17_3 H 0.7820 0.8785 0.4394
C26_3 C 0.85814(8) 0.76628(18) 0.45946(12)
H18_3 H 0.8503 0.6796 0.4774
C27_3 C 0.91151(7) 0.81203(17) 0.44774(10)
H19_3 H 0.9447 0.7569 0.4571
N6_3 N 0.90884(6) 0.94224(13) 0.42191(8)
C1_4 C 0.03734(8) 0.80420(19) 0.78301(10)
H1_4 H 0.0071 0.8268 0.7369
C2_4 C 0.08837(10) 0.7334(3) 0.78115(13)
H2_4 H 0.0972 0.7001 0.7354
C3_4 C 0.12232(8) 0.7236(2) 0.86026(12)
H3_4 H 0.1592 0.6837 0.8787
C4_4 C 0.09048(7) 0.78576(17) 0.90877(10)
C5_4 C 0.10910(7) 0.80042(17) 0.99370(10)
N1_4 N 0.03741(6) 0.83492(14) 0.85833(8)
H6_4 H 0.9714 0.0034 0.0735
C24_4 C 0.85258(6) 0.01252(16) 0.91650(10)
C25_4 C 0.82066(7) 0.12372(17) 0.93890(11)
H17_4 H 0.7820 0.1215 0.9394
C26_4 C 0.85814(8) 0.23372(18) 0.95946(12)
H18_4 H 0.8503 0.3204 0.9774
C27_4 C 0.91151(7) 0.18797(17) 0.94774(10)
H19_4 H 0.9447 0.2431 0.9571
N6_4 N 0.90884(6) 0.05776(13) 0.92191(8)
H8_3 H 0.7376 0.0475 0.5914
C17_3 C 0.90765(9) 0.0601(2) 0.70530(13)
H12_3 H 0.9330 0.1344 0.7092
C18_3 C 0.85693(11) 0.0425(2) 0.64444(14)
H13_3 H 0.8411 0.1018 0.6009
H15_3 H 0.3959 0.0494 0.3633
C35_3 C 0.99888(7) 0.73444(19) 0.33907(12)
H25_3 H 0.9605 0.7033 0.3236
H8_4 H 0.7376 0.9525 0.0914
C17_4 C 0.90765(9) 0.9399(2) 0.20530(13)
H12_4 H 0.9330 0.8656 0.2092
C18_4 C 0.85693(11) 0.9575(2) 0.14444(14)
H13_4 H 0.8411 0.8982 0.1009
H15_4 H 0.3959 0.9506 0.8633
C35_4 C 0.99888(7) 0.26556(19) 0.83907(12)
H25_4 H 0.9605 0.2967 0.8236
loop_
_geom_bond_atom_site_label_1
_geom_bond_atom_site_label_2
_geom_bond_site_symmetry_1
_geom_bond_site_symmetry_2
C1 H1 1_555 1_555
C2 C1 1_555 1_555
H2 C2 1_555 1_555
C3 C2 1_555 1_555
H3 C3 1_555 1_555
C4 C3 1_555 1_555
C5 C4 1_555 1_555
C6 C5 1_555 1_555
C7 C6 1_555 1_555
H4 C7 1_555 1_555
C8 C7 1_555 1_555
H5 C8 1_555 1_555
C9 C8 1_555 1_555
C10 C5 1_555 1_555
C11 C10 1_555 1_555
H7 C11 1_555 1_555
C12 C11 1_555 1_555
H8 C12 1_555 1_555
C13 C12 1_555 1_555
C14 C13 1_555 1_555
H9 C14 1_555 1_555
C15 C10 1_555 1_555
H10 C15 1_555 1_555
C16 H11 1_555 1_555
C17 H12 1_555 1_555
C18 C17 1_555 1_555
H13 C18 1_555 1_555
N1 C1 1_555 1_555
N2 C6 1_555 1_555
N3 C13 1_555 1_555
N4 C16 1_555 1_555
Ni3 N4 1_555 1_555
C4 N1 1_555 1_555
C9 N2 1_555 1_555
C14 C15 1_555 1_555
C16 N3 1_555 1_555
C17 N4 1_555 1_555
C18 N3 1_555 1_555
C19 H14 1_555 1_555
C20 C19 1_555 1_555
H15 C20 1_555 1_555
C21 C20 1_555 1_555
H16 C21 1_555 1_555
C22 C21 1_555 1_555
C23 C22 1_555 1_555
C28 C23 1_555 1_555
C29 C28 1_555 1_555
H20 C29 1_555 1_555
C30 C29 1_555 1_555
H21 C30 1_555 1_555
C31 C30 1_555 1_555
C32 C31 1_555 1_555
H22 C32 1_555 1_555
C33 C28 1_555 1_555
H23 C33 1_555 1_555
C34 H24 1_555 1_555
C35 H25 1_555 1_555
C36 C35 1_555 1_555
H26 C36 1_555 1_555
N5 C19 1_555 1_555
N7 C31 1_555 1_555
N8 C34 1_555 1_555
N9 Ni1 1_555 1_555
Ni2 N8 1_555 1_555
C22 N5 1_555 1_555
C32 C33 1_555 1_555
C34 N7 1_555 1_555
C35 N8 1_555 1_555
C36 N7 1_555 1_555
N5 Ni1 1_555 1_555
C7_2 C6_2 1_555 1_555
H4_2 C7_2 1_555 1_555
C8_2 C7_2 1_555 1_555
H5_2 C8_2 1_555 1_555
C9_2 C8_2 1_555 1_555
C11_2 C10_2 1_555 1_555
H7_2 C11_2 1_555 1_555
C12_2 C11_2 1_555 1_555
H8_2 C12_2 1_555 1_555
C13_2 C12_2 1_555 1_555
C14_2 C13_2 1_555 1_555
H9_2 C14_2 1_555 1_555
C15_2 C10_2 1_555 1_555
H10_2 C15_2 1_555 1_555
C16_2 H11_2 1_555 1_555
C17_2 H12_2 1_555 1_555
C18_2 C17_2 1_555 1_555
H13_2 C18_2 1_555 1_555
N2_2 C6_2 1_555 1_555
N3_2 C13_2 1_555 1_555
N4_2 C16_2 1_555 1_555
Ni2 N4_2 1_555 1_555
C9_2 N2_2 1_555 1_555
C14_2 C15_2 1_555 1_555
C16_2 N3_2 1_555 1_555
C17_2 N4_2 1_555 1_555
C18_2 N3_2 1_555 1_555
C19_2 H14_2 1_555 1_555
C20_2 C19_2 1_555 1_555
H15_2 C20_2 1_555 1_555
C21_2 C20_2 1_555 1_555
H16_2 C21_2 1_555 1_555
C22_2 C21_2 1_555 1_555
C23_2 C22_2 1_555 1_555
C28_2 C23_2 1_555 1_555
C29_2 C28_2 1_555 1_555
H20_2 C29_2 1_555 1_555
C30_2 C29_2 1_555 1_555
H21_2 C30_2 1_555 1_555
C31_2 C30_2 1_555 1_555
C32_2 C31_2 1_555 1_555
H22_2 C32_2 1_555 1_555
C33_2 C28_2 1_555 1_555
H23_2 C33_2 1_555 1_555
C34_2 H24_2 1_555 1_555
C35_2 H25_2 1_555 1_555
C36_2 C35_2 1_555 1_555
H26_2 C36_2 1_555 1_555
N5_2 C19_2 1_555 1_555
N7_2 C31_2 1_555 1_555
N8_2 C34_2 1_555 1_555
N9_2 Ni1_2 1_555 1_555
Ni3 N8_2 1_555 1_555
C22_2 N5_2 1_555 1_555
C32_2 C33_2 1_555 1_555
C34_2 N7_2 1_555 1_555
C35_2 N8_2 1_555 1_555
C36_2 N7_2 1_555 1_555
N5_2 Ni1_2 1_555 1_555
C1_2 H1_2 1_555 1_555
C2_2 C1_2 1_555 1_555
H2_2 C2_2 1_555 1_555
C3_2 C2_2 1_555 1_555
H3_2 C3_2 1_555 1_555
C4_2 C3_2 1_555 1_555
C5_2 C4_2 1_555 1_555
C6_3 C5_2 1_555 1_555
C7_3 C6_3 1_555 1_555
H4_3 C7_3 1_555 1_555
C8_3 C7_3 1_555 1_555
H5_3 C8_3 1_555 1_555
C9_3 C8_3 1_555 1_555
H6 C9_3 1_555 1_555
C10_3 C5_2 1_555 1_555
C11_3 C10_3 1_555 1_555
H7_3 C11_3 1_555 1_555
C12_3 C11_3 1_555 1_555
C13_3 C12_3 1_555 1_555
C14_3 C13_3 1_555 1_555
H9_3 C14_3 1_555 1_555
C15_3 C10_3 1_555 1_555
H10_3 C15_3 1_555 1_555
C16_3 H11_3 1_555 1_555
C19_3 H14_3 1_555 1_555
C20_3 C19_3 1_555 1_555
C21_3 C20_3 1_555 1_555
H16_3 C21_3 1_555 1_555
C22_3 C21_3 1_555 1_555
C23_3 C22_3 1_555 1_555
C24 C23_3 1_555 1_555
C25 C24 1_555 1_555
H17 C25 1_555 1_555
C26 C25 1_555 1_555
H18 C26 1_555 1_555
C27 C26 1_555 1_555
H19 C27 1_555 1_555
C28_3 C23_3 1_555 1_555
C29_3 C28_3 1_555 1_555
H20_3 C29_3 1_555 1_555
C30_3 C29_3 1_555 1_555
H21_3 C30_3 1_555 1_555
C31_3 C30_3 1_555 1_555
C32_3 C31_3 1_555 1_555
H22_3 C32_3 1_555 1_555
C33_3 C28_3 1_555 1_555
H23_3 C33_3 1_555 1_555
C34_3 H24_3 1_555 1_555
H26_3 C36_3 1_555 1_555
N1_2 C1_2 1_555 1_555
N2_3 C6_3 1_555 1_555
N3_3 C13_3 1_555 1_555
N9_2 C16_3 1_555 1_555
N5_3 C19_3 1_555 1_555
N6 C24 1_555 1_555
N7_3 C31_3 1_555 1_555
N10 C34_3 1_555 1_555
Ni2 N1_2 1_555 1_555
C4_2 N1_2 1_555 1_555
C9_3 N2_3 1_555 1_555
C14_3 C15_3 1_555 1_555
C16_3 N3_3 1_555 1_555
C22_3 N5_3 1_555 1_555
C27 N6 1_555 1_555
C32_3 C33_3 1_555 1_555
C34_3 N7_3 1_555 1_555
C36_3 N7_3 1_555 1_555
N2_3 Ni2 1_555 1_555
N5_3 Ni2 1_555 1_555
N6 Ni2 1_555 1_555
C7_4 C6_4 1_555 1_555
H4_4 C7_4 1_555 1_555
C8_4 C7_4 1_555 1_555
H5_4 C8_4 1_555 1_555
C9_4 C8_4 1_555 1_555
H6_2 C9_4 1_555 1_555
C11_4 C10_4 1_555 1_555
H7_4 C11_4 1_555 1_555
C12_4 C11_4 1_555 1_555
C13_4 C12_4 1_555 1_555
C14_4 C13_4 1_555 1_555
H9_4 C14_4 1_555 1_555
C15_4 C10_4 1_555 1_555
H10_4 C15_4 1_555 1_555
C16_4 H11_4 1_555 1_555
N2_4 C6_4 1_555 1_555
N3_4 C13_4 1_555 1_555
N9 C16_4 1_555 1_555
C9_4 N2_4 1_555 1_555
C14_4 C15_4 1_555 1_555
C16_4 N3_4 1_555 1_555
C1_3 H1_3 1_555 1_555
C2_3 C1_3 1_555 1_555
H2_3 C2_3 1_555 1_555
C3_3 C2_3 1_555 1_555
H3_3 C3_3 1_555 1_555
C4_3 C3_3 1_555 1_555
C5_3 C4_3 1_555 1_555
C19_4 H14_4 1_555 1_555
C20_4 C19_4 1_555 1_555
C21_4 C20_4 1_555 1_555
H16_4 C21_4 1_555 1_555
C22_4 C21_4 1_555 1_555
C23_4 C22_4 1_555 1_555
C24_2 C23_4 1_555 1_555
C25_2 C24_2 1_555 1_555
H17_2 C25_2 1_555 1_555
C26_2 C25_2 1_555 1_555
H18_2 C26_2 1_555 1_555
C27_2 C26_2 1_555 1_555
H19_2 C27_2 1_555 1_555
C28_4 C23_4 1_555 1_555
C29_4 C28_4 1_555 1_555
H20_4 C29_4 1_555 1_555
C30_4 C29_4 1_555 1_555
H21_4 C30_4 1_555 1_555
C31_4 C30_4 1_555 1_555
C32_4 C31_4 1_555 1_555
H22_4 C32_4 1_555 1_555
C33_4 C28_4 1_555 1_555
H23_4 C33_4 1_555 1_555
C34_4 H24_4 1_555 1_555
H26_4 C36_4 1_555 1_555
N1_3 C1_3 1_555 1_555
N5_4 C19_4 1_555 1_555
N6_2 C24_2 1_555 1_555
N7_4 C31_4 1_555 1_555
N10_2 C34_4 1_555 1_555
Ni3 N1_3 1_555 1_555
C4_3 N1_3 1_555 1_555
C22_4 N5_4 1_555 1_555
C27_2 N6_2 1_555 1_555
C32_4 C33_4 1_555 1_555
C34_4 N7_4 1_555 1_555
C36_4 N7_4 1_555 1_555
N5_4 Ni3 1_555 1_555
N6_2 Ni3 1_555 1_555
C25_3 C24_3 1_555 1_555
H17_3 C25_3 1_555 1_555
C26_3 C25_3 1_555 1_555
H18_3 C26_3 1_555 1_555
C27_3 C26_3 1_555 1_555
H19_3 C27_3 1_555 1_555
N6_3 C24_3 1_555 1_555
C27_3 N6_3 1_555 1_555
C1_4 H1_4 1_555 1_555
C2_4 C1_4 1_555 1_555
H2_4 C2_4 1_555 1_555
C3_4 C2_4 1_555 1_555
H3_4 C3_4 1_555 1_555
C4_4 C3_4 1_555 1_555
C5_4 C4_4 1_555 1_555
N1_4 C1_4 1_555 1_555
C4_4 N1_4 1_555 1_555
C25_4 C24_4 1_555 1_555
H17_4 C25_4 1_555 1_555
C26_4 C25_4 1_555 1_555
H18_4 C26_4 1_555 1_555
C27_4 C26_4 1_555 1_555
H19_4 C27_4 1_555 1_555
N6_4 C24_4 1_555 1_555
C27_4 N6_4 1_555 1_555
C17_3 H12_3 1_555 1_555
C18_3 C17_3 1_555 1_555
H13_3 C18_3 1_555 1_555
C35_3 H25_3 1_555 1_555
C17_4 H12_4 1_555 1_555
C18_4 C17_4 1_555 1_555
H13_4 C18_4 1_555 1_555
C35_4 H25_4 1_555 1_555

#END
