
###############################################################################
#
# This file contains modified crystal structure data generated from the
# MOF subset of the Cambridge Structural Database (CSD) v543 
# hosted by the Cambridge Crystallographic Data Centre (CCDC).
#
# This work is licensed under the Creative Commons
# Attribution-NonCommercial-ShareAlike 4.0 International License.
# To view a copy of this license, visit
# http://creativecommons.org/licenses/by-nc-sa/4.0/
# or send a letter to
# Creative Commons, PO Box 1866, Mountain View, CA 94042, USA.
#
# CIF created using the CSD Python API on 29 September 2022
# The structure has been converted into the P1 space group
# The structure has a 3D framework
# The original CSD entry HIHFUB is in the monoclinic crystal system
# The framework has been calculated to contain at least 10.0% void space
# The void calculation uses a probe of radius 1.32A, grid spacing 0.4
# The framework is charged, counterions have been retained in the structure
# H atom positions have been added when not included in the experimental data
#
###############################################################################

data_HIHFUB
_chemical_formula_moiety         '(C240 H208 N8 Nd8 O72 Si8)n'
_symmetry_cell_setting           triclinic
_symmetry_space_group_name_H-M   'P 1'
_symmetry_Int_Tables_number      1
_space_group_name_Hall           'P 1'
loop_
_symmetry_equiv_pos_site_id
_symmetry_equiv_pos_as_xyz
1 x,y,z
_cell_length_a                   24.3021(10)
_cell_length_b                   16.0142(6)
_cell_length_c                   22.0018(9)
_cell_angle_alpha                90
_cell_angle_beta                 100.1380(10)
_cell_angle_gamma                90
_cell_volume                     8428.94
loop_
_atom_site_label
_atom_site_type_symbol
_atom_site_fract_x
_atom_site_fract_y
_atom_site_fract_z
N1 N 0.6798(2) 0.4416(3) 0.2110(2)
H1 H 0.7164 0.4504 0.2251
H2 H 0.6773 0.4106 0.1765
C1 C 0.6591(3) 0.3930(5) 0.2552(3)
H3 H 0.6811 0.3431 0.2633
H4 H 0.6209 0.3784 0.2399
H5 H 0.6613 0.4244 0.2928
C2 C 0.6562(4) 0.5162(6) 0.1946(4)
H6 H 0.6759 0.5427 0.1657
H7 H 0.6582 0.5508 0.2305
H8 H 0.6179 0.5083 0.1758
N1_2 N 0.3202(2) 0.4416(3) 0.2890(2)
H1_2 H 0.2836 0.4504 0.2749
H2_2 H 0.3227 0.4106 0.3235
C1_2 C 0.3409(3) 0.3930(5) 0.2448(3)
H3_2 H 0.3189 0.3431 0.2367
H4_2 H 0.3791 0.3784 0.2601
H5_2 H 0.3387 0.4244 0.2072
C2_2 C 0.3438(4) 0.5162(6) 0.3054(4)
H6_2 H 0.3241 0.5427 0.3343
H7_2 H 0.3418 0.5508 0.2695
H8_2 H 0.3821 0.5083 0.3242
C2_3 C 0.1562(4) 0.0162(6) 0.1946(4)
H6_3 H 0.1759 0.0427 0.1657
H7_3 H 0.1582 0.0508 0.2305
H8_3 H 0.1179 0.0083 0.1758
N1_3 N 0.1798(2) 0.9416(3) 0.2110(2)
H1_3 H 0.2164 0.9504 0.2251
H2_3 H 0.1773 0.9106 0.1765
C1_3 C 0.1591(3) 0.8930(5) 0.2552(3)
H3_3 H 0.1811 0.8431 0.2633
H4_3 H 0.1209 0.8784 0.2399
H5_3 H 0.1613 0.9244 0.2928
C2_4 C 0.8438(4) 0.0162(6) 0.3054(4)
H6_4 H 0.8241 0.0427 0.3343
H7_4 H 0.8418 0.0508 0.2695
H8_4 H 0.8821 0.0083 0.3242
N1_4 N 0.8202(2) 0.9416(3) 0.2890(2)
H1_4 H 0.7836 0.9504 0.2749
H2_4 H 0.8227 0.9106 0.3235
C1_4 C 0.8409(3) 0.8930(5) 0.2448(3)
H3_4 H 0.8189 0.8431 0.2367
H4_4 H 0.8791 0.8784 0.2601
H5_4 H 0.8387 0.9244 0.2072
N1_5 N 0.3202(2) 0.5584(3) 0.7890(2)
H1_5 H 0.2836 0.5496 0.7749
H2_5 H 0.3227 0.5894 0.8235
C1_5 C 0.3409(3) 0.6070(5) 0.7448(3)
H3_5 H 0.3189 0.6569 0.7367
H4_5 H 0.3791 0.6216 0.7601
H5_5 H 0.3387 0.5756 0.7072
C2_5 C 0.3438(4) 0.4838(6) 0.8054(4)
H6_5 H 0.3241 0.4573 0.8343
H7_5 H 0.3418 0.4492 0.7695
H8_5 H 0.3821 0.4917 0.8242
N1_6 N 0.6798(2) 0.5584(3) 0.7110(2)
H1_6 H 0.7164 0.5496 0.7251
H2_6 H 0.6773 0.5894 0.6765
C1_6 C 0.6591(3) 0.6070(5) 0.7552(3)
H3_6 H 0.6811 0.6569 0.7633
H4_6 H 0.6209 0.6216 0.7399
H5_6 H 0.6613 0.5756 0.7928
C2_6 C 0.6562(4) 0.4838(6) 0.6946(4)
H6_6 H 0.6759 0.4573 0.6657
H7_6 H 0.6582 0.4492 0.7305
H8_6 H 0.6179 0.4917 0.6758
N1_7 N 0.8202(2) 0.0584(3) 0.7890(2)
H1_7 H 0.7836 0.0496 0.7749
H2_7 H 0.8227 0.0894 0.8235
C1_7 C 0.8409(3) 0.1070(5) 0.7448(3)
H3_7 H 0.8189 0.1569 0.7367
H4_7 H 0.8791 0.1216 0.7601
H5_7 H 0.8387 0.0756 0.7072
C2_7 C 0.8438(4) 0.9838(6) 0.8054(4)
H6_7 H 0.8241 0.9573 0.8343
H7_7 H 0.8418 0.9492 0.7695
H8_7 H 0.8821 0.9917 0.8242
N1_8 N 0.1798(2) 0.0584(3) 0.7110(2)
H1_8 H 0.2164 0.0496 0.7251
H2_8 H 0.1773 0.0894 0.6765
C1_8 C 0.1591(3) 0.1070(5) 0.7552(3)
H3_8 H 0.1811 0.1569 0.7633
H4_8 H 0.1209 0.1216 0.7399
H5_8 H 0.1613 0.0756 0.7928
C2_8 C 0.1562(4) 0.9838(6) 0.6946(4)
H6_8 H 0.1759 0.9573 0.6657
H7_8 H 0.1582 0.9492 0.7305
H8_8 H 0.1179 0.9917 0.6758
C4 C 0.28916(11) 0.61908(18) 0.05794(14)
C6 C 0.31058(11) 0.53429(17) 0.04592(12)
C7 C 0.30152(13) 0.46747(19) 0.08196(14)
H9 H 0.2819 0.4752 0.1142
Nd1 Nd 0.758191(6) 0.288431(9) 0.095452(6)
O3 O 0.28413(10) 0.63813(13) 0.11168(9)
Si1 Si 0.38008(3) 0.27093(5) 0.00599(3)
O4 O 0.66542(8) 0.21016(12) 0.06499(10)
O6 O 0.27771(8) 0.67126(12) 0.01390(8)
O7 O 0.66113(8) 0.33432(13) 0.10627(9)
C13 C 0.45784(12) 0.27223(17) 0.02777(12)
C15 C 0.35402(11) 0.18495(18) 0.04979(13)
C16 C 0.35187(11) 0.37494(18) 0.02440(12)
C17 C 0.63695(12) 0.27131(18) 0.07935(12)
C18 C 0.57512(11) 0.27032(18) 0.06243(13)
C19 C 0.54652(13) 0.20030(18) 0.03882(15)
H14 H 0.5662 0.1517 0.0338
C20 C 0.30311(14) 0.0558(2) 0.05592(15)
H15 H 0.2814 0.0132 0.0354
C21 C 0.48913(13) 0.20073(19) 0.02236(16)
H16 H 0.4708 0.1520 0.0073
O9 O 0.84415(9) 0.32693(17) 0.05776(10)
C22 C 0.31605(13) 0.05440(19) 0.11874(14)
C24 C 0.36719(15) 0.1820(2) 0.11413(15)
H18 H 0.3898 0.2235 0.1350
C25 C 0.48753(13) 0.34289(19) 0.05125(15)
H19 H 0.4681 0.3920 0.0555
C27 C 0.32103(13) 0.38939(19) 0.07121(14)
H21 H 0.3135 0.3450 0.0957
C28 C 0.34750(15) 0.1188(2) 0.14784(14)
H22 H 0.3557 0.1202 0.1907
C29 C 0.54500(12) 0.3423(2) 0.06839(15)
H23 H 0.5636 0.3906 0.0840
C30 C 0.32192(14) 0.1201(2) 0.02171(14)
O10 O 0.76560(9) 0.42992(13) 0.12461(11)
Nd3 Nd 0.258191(6) 0.788431(9) 0.095452(6)
O11 O 0.78413(10) 0.13813(13) 0.11168(9)
O12 O 0.83449(9) 0.28337(14) 0.18916(9)
O13 O 0.77771(8) 0.17126(12) 0.01390(8)
O15 O 0.74801(9) 0.26330(15) 0.20389(9)
H25 H 0.834454 0.360798 0.0195689
H26 H 0.86867 0.360021 0.0898414
C3 C 0.30010(13) 0.22966(19) 0.72446(14)
C8 C 0.34061(13) 0.52076(19) 0.99891(14)
H10 H 0.3472 0.5651 0.9739
C9 C 0.31952(12) 0.23781(19) 0.79317(12)
C10 C 0.39327(13) 0.2321(2) 0.88146(14)
H11 H 0.4308 0.2227 0.8976
C11 C 0.28279(13) 0.2610(2) 0.83139(14)
H12 H 0.2454 0.2709 0.8150
O5 O 0.33449(9) 0.21663(14) 0.68916(9)
C12 C 0.37461(14) 0.2228(2) 0.81820(15)
H13 H 0.3995 0.2064 0.7928
O8 O 0.24801(9) 0.23670(15) 0.70389(9)
C14 C 0.35712(12) 0.25526(19) 0.92107(13)
C23 C 0.36086(13) 0.44327(19) 0.98866(14)
H17 H 0.3812 0.4362 0.9569
C26 C 0.30190(13) 0.2694(2) 0.89432(14)
H20 H 0.2767 0.2851 0.9195
H24 H 0.3125 0.1191 0.9789
Nd4 Nd 0.241809(6) 0.711569(9) 0.904548(6)
Nd5 Nd 0.258191(6) 0.211569(9) 0.595452(6)
O14 O 0.72229(8) 0.32874(12) 0.98610(8)
O1 O 0.26560(9) 0.92992(13) 0.12461(11)
C5 C 0.29323(16) 0.9871(2) 0.15320(16)
O2 O 0.30017(16) 0.9933(2) 0.21033(15)
C3_2 C 0.69990(13) 0.22966(19) 0.77554(14)
C4_2 C 0.71084(11) 0.61908(18) 0.44206(14)
C6_2 C 0.68942(11) 0.53429(17) 0.45408(12)
C7_2 C 0.69848(13) 0.46747(19) 0.41804(14)
H9_2 H 0.7181 0.4752 0.3858
C8_2 C 0.65939(13) 0.52076(19) 0.50109(14)
H10_2 H 0.6528 0.5651 0.5261
C9_2 C 0.68048(12) 0.23781(19) 0.70683(12)
C10_2 C 0.60673(13) 0.2321(2) 0.61854(14)
H11_2 H 0.5692 0.2227 0.6024
C11_2 C 0.71721(13) 0.2610(2) 0.66861(14)
H12_2 H 0.7546 0.2709 0.6850
Nd1_2 Nd 0.241809(6) 0.288431(9) 0.404548(6)
O3_2 O 0.71587(10) 0.63813(13) 0.38832(9)
Si1_2 Si 0.61992(3) 0.27093(5) 0.49401(3)
O4_2 O 0.33458(8) 0.21016(12) 0.43501(10)
O5_2 O 0.66551(9) 0.21663(14) 0.81084(9)
O6_2 O 0.72229(8) 0.67126(12) 0.48610(8)
O7_2 O 0.33887(8) 0.33432(13) 0.39373(9)
C12_2 C 0.62539(14) 0.2228(2) 0.68180(15)
H13_2 H 0.6005 0.2064 0.7072
O8_2 O 0.75199(9) 0.23670(15) 0.79611(9)
C13_2 C 0.54216(12) 0.27223(17) 0.47223(12)
C14_2 C 0.64288(12) 0.25526(19) 0.57893(13)
C15_2 C 0.64598(11) 0.18495(18) 0.45021(13)
C16_2 C 0.64813(11) 0.37494(18) 0.47560(12)
C17_2 C 0.36305(12) 0.27131(18) 0.42065(12)
C18_2 C 0.42488(11) 0.27032(18) 0.43757(13)
C19_2 C 0.45348(13) 0.20030(18) 0.46118(15)
H14_2 H 0.4338 0.1517 0.4662
C20_2 C 0.69689(14) 0.0558(2) 0.44408(15)
H15_2 H 0.7186 0.0132 0.4646
C21_2 C 0.51087(13) 0.20073(19) 0.47764(16)
H16_2 H 0.5292 0.1520 0.4927
O9_2 O 0.15585(9) 0.32693(17) 0.44224(10)
C22_2 C 0.68395(13) 0.05440(19) 0.38126(14)
C23_2 C 0.63914(13) 0.44327(19) 0.51134(14)
H17_2 H 0.6188 0.4362 0.5431
C24_2 C 0.63281(15) 0.1820(2) 0.38587(15)
H18_2 H 0.6102 0.2235 0.3650
C25_2 C 0.51247(13) 0.34289(19) 0.44875(15)
H19_2 H 0.5319 0.3920 0.4445
C26_2 C 0.69810(13) 0.2694(2) 0.60568(14)
H20_2 H 0.7233 0.2851 0.5805
C27_2 C 0.67897(13) 0.38939(19) 0.42879(14)
H21_2 H 0.6865 0.3450 0.4043
C28_2 C 0.65250(15) 0.1188(2) 0.35216(14)
H22_2 H 0.6443 0.1202 0.3093
C29_2 C 0.45500(12) 0.3423(2) 0.43161(15)
H23_2 H 0.4364 0.3906 0.4160
C30_2 C 0.67808(14) 0.1201(2) 0.47829(14)
H24_2 H 0.6875 0.1191 0.5211
O10_2 O 0.23440(9) 0.42992(13) 0.37539(11)
Nd3_2 Nd 0.741809(6) 0.788431(9) 0.404548(6)
Nd4_2 Nd 0.758191(6) 0.711569(9) 0.595452(6)
Nd5_2 Nd 0.741809(6) 0.211569(9) 0.904548(6)
O11_2 O 0.21587(10) 0.13813(13) 0.38832(9)
O12_2 O 0.16551(9) 0.28337(14) 0.31084(9)
O13_2 O 0.22229(8) 0.17126(12) 0.48610(8)
O14_2 O 0.27771(8) 0.32874(12) 0.51390(8)
O15_2 O 0.25199(9) 0.26330(15) 0.29611(9)
H25_2 H 0.165546 0.360798 0.480431
H26_2 H 0.13133 0.360021 0.410159
O1_2 O 0.73440(9) 0.92992(13) 0.37539(11)
C5_2 C 0.70677(16) 0.9871(2) 0.34680(16)
O2_2 O 0.69983(16) 0.9933(2) 0.28967(15)
O4_3 O 0.16542(8) 0.71016(12) 0.06499(10)
O7_3 O 0.16113(8) 0.83432(13) 0.10627(9)
C17_3 C 0.13695(12) 0.77131(18) 0.07935(12)
C18_3 C 0.07512(11) 0.77032(18) 0.06243(13)
C19_3 C 0.04652(13) 0.70030(18) 0.03882(15)
H14_3 H 0.0662 0.6517 0.0338
O9_3 O 0.34415(9) 0.82693(17) 0.05776(10)
C29_3 C 0.04500(12) 0.8423(2) 0.06839(15)
H23_3 H 0.0636 0.8906 0.0840
O12_3 O 0.33449(9) 0.78337(14) 0.18916(9)
O15_3 O 0.24801(9) 0.76330(15) 0.20389(9)
H25_3 H 0.334454 0.860798 0.0195689
H26_3 H 0.36867 0.860021 0.0898414
O14_3 O 0.22229(8) 0.82874(12) 0.98610(8)
C4_3 C 0.78916(11) 0.11908(18) 0.05794(14)
C6_3 C 0.81058(11) 0.03429(17) 0.04592(12)
C8_3 C 0.84061(13) 0.02076(19) 0.99891(14)
H10_3 H 0.8472 0.0651 0.9739
C5_3 C 0.79323(16) 0.4871(2) 0.15320(16)
O2_3 O 0.80017(16) 0.4933(2) 0.21033(15)
C7_3 C 0.80152(13) 0.96747(19) 0.08196(14)
H9_3 H 0.7819 0.9752 0.1142
Si1_3 Si 0.88008(3) 0.77093(5) 0.00599(3)
C13_3 C 0.95784(12) 0.77223(17) 0.02777(12)
C15_3 C 0.85402(11) 0.68495(18) 0.04979(13)
C16_3 C 0.85187(11) 0.87494(18) 0.02440(12)
C20_3 C 0.80311(14) 0.5558(2) 0.05592(15)
H15_3 H 0.7814 0.5132 0.0354
C21_3 C 0.98913(13) 0.70073(19) 0.02236(16)
H16_3 H 0.9708 0.6520 0.0073
C22_3 C 0.81605(13) 0.55440(19) 0.11874(14)
C24_3 C 0.86719(15) 0.6820(2) 0.11413(15)
H18_3 H 0.8898 0.7235 0.1350
C25_3 C 0.98753(13) 0.84289(19) 0.05125(15)
H19_3 H 0.9681 0.8920 0.0555
C27_3 C 0.82103(13) 0.88939(19) 0.07121(14)
H21_3 H 0.8135 0.8450 0.0957
C28_3 C 0.84750(15) 0.6188(2) 0.14784(14)
H22_3 H 0.8557 0.6202 0.1907
C30_3 C 0.82192(14) 0.6201(2) 0.02171(14)
C3_3 C 0.80010(13) 0.72966(19) 0.72446(14)
C9_3 C 0.81952(12) 0.73781(19) 0.79317(12)
C10_3 C 0.89327(13) 0.7321(2) 0.88146(14)
H11_3 H 0.9308 0.7227 0.8976
C11_3 C 0.78279(13) 0.7610(2) 0.83139(14)
H12_3 H 0.7454 0.7709 0.8150
O5_3 O 0.83449(9) 0.71663(14) 0.68916(9)
C12_3 C 0.87461(14) 0.7228(2) 0.81820(15)
H13_3 H 0.8995 0.7064 0.7928
O8_3 O 0.74801(9) 0.73670(15) 0.70389(9)
C14_3 C 0.85712(12) 0.75526(19) 0.92107(13)
C23_3 C 0.86086(13) 0.94327(19) 0.98866(14)
H17_3 H 0.8812 0.9362 0.9569
C26_3 C 0.80190(13) 0.7694(2) 0.89432(14)
H20_3 H 0.7767 0.7851 0.9195
H24_3 H 0.8125 0.6191 0.9789
C4_4 C 0.21084(11) 0.11908(18) 0.44206(14)
C6_4 C 0.18942(11) 0.03429(17) 0.45408(12)
C8_4 C 0.15939(13) 0.02076(19) 0.50109(14)
H10_4 H 0.1528 0.0651 0.5261
C3_4 C 0.19990(13) 0.72966(19) 0.77554(14)
C5_4 C 0.20677(16) 0.4871(2) 0.34680(16)
O2_4 O 0.19983(16) 0.4933(2) 0.28967(15)
C7_4 C 0.19848(13) 0.96747(19) 0.41804(14)
H9_4 H 0.2181 0.9752 0.3858
C9_4 C 0.18048(12) 0.73781(19) 0.70683(12)
C10_4 C 0.10673(13) 0.7321(2) 0.61854(14)
H11_4 H 0.0692 0.7227 0.6024
C11_4 C 0.21721(13) 0.7610(2) 0.66861(14)
H12_4 H 0.2546 0.7709 0.6850
Si1_4 Si 0.11992(3) 0.77093(5) 0.49401(3)
O5_4 O 0.16551(9) 0.71663(14) 0.81084(9)
C12_4 C 0.12539(14) 0.7228(2) 0.68180(15)
H13_4 H 0.1005 0.7064 0.7072
O8_4 O 0.25199(9) 0.73670(15) 0.79611(9)
C13_4 C 0.04216(12) 0.77223(17) 0.47223(12)
C14_4 C 0.14288(12) 0.75526(19) 0.57893(13)
C15_4 C 0.14598(11) 0.68495(18) 0.45021(13)
C16_4 C 0.14813(11) 0.87494(18) 0.47560(12)
C20_4 C 0.19689(14) 0.5558(2) 0.44408(15)
H15_4 H 0.2186 0.5132 0.4646
C21_4 C 0.01087(13) 0.70073(19) 0.47764(16)
H16_4 H 0.0292 0.6520 0.4927
C22_4 C 0.18395(13) 0.55440(19) 0.38126(14)
C23_4 C 0.13914(13) 0.94327(19) 0.51134(14)
H17_4 H 0.1188 0.9362 0.5431
C24_4 C 0.13281(15) 0.6820(2) 0.38587(15)
H18_4 H 0.1102 0.7235 0.3650
C25_4 C 0.01247(13) 0.84289(19) 0.44875(15)
H19_4 H 0.0319 0.8920 0.4445
C26_4 C 0.19810(13) 0.7694(2) 0.60568(14)
H20_4 H 0.2233 0.7851 0.5805
C27_4 C 0.17897(13) 0.88939(19) 0.42879(14)
H21_4 H 0.1865 0.8450 0.4043
C28_4 C 0.15250(15) 0.6188(2) 0.35216(14)
H22_4 H 0.1443 0.6202 0.3093
C30_4 C 0.17808(14) 0.6201(2) 0.47829(14)
H24_4 H 0.1875 0.6191 0.5211
O4_4 O 0.83458(8) 0.71016(12) 0.43501(10)
O7_4 O 0.83887(8) 0.83432(13) 0.39373(9)
C17_4 C 0.86305(12) 0.77131(18) 0.42065(12)
C18_4 C 0.92488(11) 0.77032(18) 0.43757(13)
C19_4 C 0.95348(13) 0.70030(18) 0.46118(15)
H14_4 H 0.9338 0.6517 0.4662
O9_4 O 0.65585(9) 0.82693(17) 0.44224(10)
C29_4 C 0.95500(12) 0.8423(2) 0.43161(15)
H23_4 H 0.9364 0.8906 0.4160
O12_4 O 0.66551(9) 0.78337(14) 0.31084(9)
O14_4 O 0.77771(8) 0.82874(12) 0.51390(8)
O15_4 O 0.75199(9) 0.76330(15) 0.29611(9)
H25_4 H 0.665546 0.860798 0.480431
H26_4 H 0.63133 0.860021 0.410159
O1_3 O 0.73440(9) 0.07008(13) 0.87539(11)
C5_5 C 0.70677(16) 0.0129(2) 0.84680(16)
O2_5 O 0.69983(16) 0.0067(2) 0.78967(15)
C3_5 C 0.69990(13) 0.77034(19) 0.27554(14)
C8_5 C 0.65939(13) 0.47924(19) 0.00109(14)
H10_5 H 0.6528 0.4349 0.0261
C9_5 C 0.68048(12) 0.76219(19) 0.20683(12)
C10_5 C 0.60673(13) 0.7679(2) 0.11854(14)
H11_5 H 0.5692 0.7773 0.1024
C11_5 C 0.71721(13) 0.7390(2) 0.16861(14)
H12_5 H 0.7546 0.7291 0.1850
C12_5 C 0.62539(14) 0.7772(2) 0.18180(15)
H13_5 H 0.6005 0.7936 0.2072
C14_5 C 0.64288(12) 0.74474(19) 0.07893(13)
C23_5 C 0.63914(13) 0.55673(19) 0.01134(14)
H17_5 H 0.6188 0.5638 0.0431
C26_5 C 0.69810(13) 0.7306(2) 0.10568(14)
H20_5 H 0.7233 0.7149 0.0805
H24_5 H 0.6875 0.8809 0.0211
C4_5 C 0.71084(11) 0.38092(18) 0.94206(14)
C6_5 C 0.68942(11) 0.46571(17) 0.95408(12)
C7_5 C 0.69848(13) 0.53253(19) 0.91804(14)
H9_5 H 0.7181 0.5248 0.8858
O3_3 O 0.71587(10) 0.36187(13) 0.88832(9)
Si1_5 Si 0.61992(3) 0.72907(5) 0.99401(3)
O4_5 O 0.33458(8) 0.78984(12) 0.93501(10)
O7_5 O 0.33887(8) 0.66568(13) 0.89373(9)
C13_5 C 0.54216(12) 0.72777(17) 0.97223(12)
C15_5 C 0.64598(11) 0.81505(18) 0.95021(13)
C16_5 C 0.64813(11) 0.62506(18) 0.97560(12)
C17_5 C 0.36305(12) 0.72869(18) 0.92065(12)
C18_5 C 0.42488(11) 0.72968(18) 0.93757(13)
C19_5 C 0.45348(13) 0.79970(18) 0.96118(15)
H14_5 H 0.4338 0.8483 0.9662
C20_5 C 0.69689(14) 0.9442(2) 0.94408(15)
H15_5 H 0.7186 0.9868 0.9646
C21_5 C 0.51087(13) 0.79927(19) 0.97764(16)
H16_5 H 0.5292 0.8480 0.9927
O9_5 O 0.15585(9) 0.67307(17) 0.94224(10)
C22_5 C 0.68395(13) 0.94560(19) 0.88126(14)
C24_5 C 0.63281(15) 0.8180(2) 0.88587(15)
H18_5 H 0.6102 0.7765 0.8650
C25_5 C 0.51247(13) 0.65711(19) 0.94875(15)
H19_5 H 0.5319 0.6080 0.9445
C27_5 C 0.67897(13) 0.61061(19) 0.92879(14)
H21_5 H 0.6865 0.6550 0.9043
C28_5 C 0.65250(15) 0.8812(2) 0.85216(14)
H22_5 H 0.6443 0.8798 0.8093
C29_5 C 0.45500(12) 0.6577(2) 0.93161(15)
H23_5 H 0.4364 0.6094 0.9160
C30_5 C 0.67808(14) 0.8799(2) 0.97829(14)
O10_3 O 0.23440(9) 0.57008(13) 0.87539(11)
O11_3 O 0.21587(10) 0.86187(13) 0.88832(9)
H25_5 H 0.165546 0.639202 0.980431
H26_5 H 0.13133 0.639979 0.910159
O1_4 O 0.26560(9) 0.07008(13) 0.62461(11)
C5_6 C 0.29323(16) 0.0129(2) 0.65320(16)
O2_6 O 0.30017(16) 0.0067(2) 0.71033(15)
C3_6 C 0.30010(13) 0.77034(19) 0.22446(14)
C4_6 C 0.28916(11) 0.38092(18) 0.55794(14)
C6_6 C 0.31058(11) 0.46571(17) 0.54592(12)
C7_6 C 0.30152(13) 0.53253(19) 0.58196(14)
H9_6 H 0.2819 0.5248 0.6142
C8_6 C 0.34061(13) 0.47924(19) 0.49891(14)
H10_6 H 0.3472 0.4349 0.4739
C9_6 C 0.31952(12) 0.76219(19) 0.29317(12)
C10_6 C 0.39327(13) 0.7679(2) 0.38146(14)
H11_6 H 0.4308 0.7773 0.3976
C11_6 C 0.28279(13) 0.7390(2) 0.33139(14)
H12_6 H 0.2454 0.7291 0.3150
O3_4 O 0.28413(10) 0.36187(13) 0.61168(9)
Si1_6 Si 0.38008(3) 0.72907(5) 0.50599(3)
O4_6 O 0.66542(8) 0.78984(12) 0.56499(10)
O7_6 O 0.66113(8) 0.66568(13) 0.60627(9)
C12_6 C 0.37461(14) 0.7772(2) 0.31820(15)
H13_6 H 0.3995 0.7936 0.2928
C13_6 C 0.45784(12) 0.72777(17) 0.52777(12)
C14_6 C 0.35712(12) 0.74474(19) 0.42107(13)
C15_6 C 0.35402(11) 0.81505(18) 0.54979(13)
C16_6 C 0.35187(11) 0.62506(18) 0.52440(12)
C17_6 C 0.63695(12) 0.72869(18) 0.57935(12)
C18_6 C 0.57512(11) 0.72968(18) 0.56243(13)
C19_6 C 0.54652(13) 0.79970(18) 0.53882(15)
H14_6 H 0.5662 0.8483 0.5338
C20_6 C 0.30311(14) 0.9442(2) 0.55592(15)
H15_6 H 0.2814 0.9868 0.5354
C21_6 C 0.48913(13) 0.79927(19) 0.52236(16)
H16_6 H 0.4708 0.8480 0.5073
O9_6 O 0.84415(9) 0.67307(17) 0.55776(10)
C22_6 C 0.31605(13) 0.94560(19) 0.61874(14)
C23_6 C 0.36086(13) 0.55673(19) 0.48866(14)
H17_6 H 0.3812 0.5638 0.4569
C24_6 C 0.36719(15) 0.8180(2) 0.61413(15)
H18_6 H 0.3898 0.7765 0.6350
C25_6 C 0.48753(13) 0.65711(19) 0.55125(15)
H19_6 H 0.4681 0.6080 0.5555
C26_6 C 0.30190(13) 0.7306(2) 0.39432(14)
H20_6 H 0.2767 0.7149 0.4195
C27_6 C 0.32103(13) 0.61061(19) 0.57121(14)
H21_6 H 0.3135 0.6550 0.5957
C28_6 C 0.34750(15) 0.8812(2) 0.64784(14)
H22_6 H 0.3557 0.8798 0.6907
C29_6 C 0.54500(12) 0.6577(2) 0.56839(15)
H23_6 H 0.5636 0.6094 0.5840
C30_6 C 0.32192(14) 0.8799(2) 0.52171(14)
H24_6 H 0.3125 0.8809 0.4789
O10_4 O 0.76560(9) 0.57008(13) 0.62461(11)
O11_4 O 0.78413(10) 0.86187(13) 0.61168(9)
H25_6 H 0.834454 0.639202 0.519569
H26_6 H 0.86867 0.639979 0.589841
C3_7 C 0.19990(13) 0.27034(19) 0.27554(14)
C9_7 C 0.18048(12) 0.26219(19) 0.20683(12)
C10_7 C 0.10673(13) 0.2679(2) 0.11854(14)
H11_7 H 0.0692 0.2773 0.1024
C11_7 C 0.21721(13) 0.2390(2) 0.16861(14)
H12_7 H 0.2546 0.2291 0.1850
C12_7 C 0.12539(14) 0.2772(2) 0.18180(15)
H13_7 H 0.1005 0.2936 0.2072
C14_7 C 0.14288(12) 0.24474(19) 0.07893(13)
C23_7 C 0.13914(13) 0.05673(19) 0.01134(14)
H17_7 H 0.1188 0.0638 0.0431
C26_7 C 0.19810(13) 0.2306(2) 0.10568(14)
H20_7 H 0.2233 0.2149 0.0805
H24_7 H 0.1875 0.3809 0.0211
C5_7 C 0.20677(16) 0.5129(2) 0.84680(16)
O2_7 O 0.19983(16) 0.5067(2) 0.78967(15)
C7_7 C 0.19848(13) 0.03253(19) 0.91804(14)
H9_7 H 0.2181 0.0248 0.8858
Si1_7 Si 0.11992(3) 0.22907(5) 0.99401(3)
C13_7 C 0.04216(12) 0.22777(17) 0.97223(12)
C15_7 C 0.14598(11) 0.31505(18) 0.95021(13)
C16_7 C 0.14813(11) 0.12506(18) 0.97560(12)
C20_7 C 0.19689(14) 0.4442(2) 0.94408(15)
H15_7 H 0.2186 0.4868 0.9646
C21_7 C 0.01087(13) 0.29927(19) 0.97764(16)
H16_7 H 0.0292 0.3480 0.9927
C22_7 C 0.18395(13) 0.44560(19) 0.88126(14)
C24_7 C 0.13281(15) 0.3180(2) 0.88587(15)
H18_7 H 0.1102 0.2765 0.8650
C25_7 C 0.01247(13) 0.15711(19) 0.94875(15)
H19_7 H 0.0319 0.1080 0.9445
C27_7 C 0.17897(13) 0.11061(19) 0.92879(14)
H21_7 H 0.1865 0.1550 0.9043
C28_7 C 0.15250(15) 0.3812(2) 0.85216(14)
H22_7 H 0.1443 0.3798 0.8093
C30_7 C 0.17808(14) 0.3799(2) 0.97829(14)
C8_7 C 0.15939(13) 0.97924(19) 0.00109(14)
H10_7 H 0.1528 0.9349 0.0261
C4_7 C 0.21084(11) 0.88092(18) 0.94206(14)
C6_7 C 0.18942(11) 0.96571(17) 0.95408(12)
O4_7 O 0.83458(8) 0.28984(12) 0.93501(10)
O7_7 O 0.83887(8) 0.16568(13) 0.89373(9)
C17_7 C 0.86305(12) 0.22869(18) 0.92065(12)
C18_7 C 0.92488(11) 0.22968(18) 0.93757(13)
C19_7 C 0.95348(13) 0.29970(18) 0.96118(15)
H14_7 H 0.9338 0.3483 0.9662
O9_7 O 0.65585(9) 0.17307(17) 0.94224(10)
C29_7 C 0.95500(12) 0.1577(2) 0.93161(15)
H23_7 H 0.9364 0.1094 0.9160
H25_7 H 0.665546 0.139202 0.980431
H26_7 H 0.63133 0.139979 0.910159
O4_8 O 0.16542(8) 0.28984(12) 0.56499(10)
O7_8 O 0.16113(8) 0.16568(13) 0.60627(9)
C17_8 C 0.13695(12) 0.22869(18) 0.57935(12)
C18_8 C 0.07512(11) 0.22968(18) 0.56243(13)
C19_8 C 0.04652(13) 0.29970(18) 0.53882(15)
H14_8 H 0.0662 0.3483 0.5338
O9_8 O 0.34415(9) 0.17307(17) 0.55776(10)
C29_8 C 0.04500(12) 0.1577(2) 0.56839(15)
H23_8 H 0.0636 0.1094 0.5840
H25_8 H 0.334454 0.139202 0.519569
H26_8 H 0.36867 0.139979 0.589841
C3_8 C 0.80010(13) 0.27034(19) 0.22446(14)
C5_8 C 0.79323(16) 0.5129(2) 0.65320(16)
O2_8 O 0.80017(16) 0.5067(2) 0.71033(15)
C7_8 C 0.80152(13) 0.03253(19) 0.58196(14)
H9_8 H 0.7819 0.0248 0.6142
C9_8 C 0.81952(12) 0.26219(19) 0.29317(12)
C10_8 C 0.89327(13) 0.2679(2) 0.38146(14)
H11_8 H 0.9308 0.2773 0.3976
C11_8 C 0.78279(13) 0.2390(2) 0.33139(14)
H12_8 H 0.7454 0.2291 0.3150
Si1_8 Si 0.88008(3) 0.22907(5) 0.50599(3)
C12_8 C 0.87461(14) 0.2772(2) 0.31820(15)
H13_8 H 0.8995 0.2936 0.2928
C13_8 C 0.95784(12) 0.22777(17) 0.52777(12)
C14_8 C 0.85712(12) 0.24474(19) 0.42107(13)
C15_8 C 0.85402(11) 0.31505(18) 0.54979(13)
C16_8 C 0.85187(11) 0.12506(18) 0.52440(12)
C20_8 C 0.80311(14) 0.4442(2) 0.55592(15)
H15_8 H 0.7814 0.4868 0.5354
C21_8 C 0.98913(13) 0.29927(19) 0.52236(16)
H16_8 H 0.9708 0.3480 0.5073
C22_8 C 0.81605(13) 0.44560(19) 0.61874(14)
C23_8 C 0.86086(13) 0.05673(19) 0.48866(14)
H17_8 H 0.8812 0.0638 0.4569
C24_8 C 0.86719(15) 0.3180(2) 0.61413(15)
H18_8 H 0.8898 0.2765 0.6350
C25_8 C 0.98753(13) 0.15711(19) 0.55125(15)
H19_8 H 0.9681 0.1080 0.5555
C26_8 C 0.80190(13) 0.2306(2) 0.39432(14)
H20_8 H 0.7767 0.2149 0.4195
C27_8 C 0.82103(13) 0.11061(19) 0.57121(14)
H21_8 H 0.8135 0.1550 0.5957
C28_8 C 0.84750(15) 0.3812(2) 0.64784(14)
H22_8 H 0.8557 0.3798 0.6907
C30_8 C 0.82192(14) 0.3799(2) 0.52171(14)
H24_8 H 0.8125 0.3809 0.4789
C4_8 C 0.78916(11) 0.88092(18) 0.55794(14)
C6_8 C 0.81058(11) 0.96571(17) 0.54592(12)
C8_8 C 0.84061(13) 0.97924(19) 0.49891(14)
H10_8 H 0.8472 0.9349 0.4739
loop_
_geom_bond_atom_site_label_1
_geom_bond_atom_site_label_2
_geom_bond_site_symmetry_1
_geom_bond_site_symmetry_2
N1 H1 1_555 1_555
H2 N1 1_555 1_555
C1 N1 1_555 1_555
H3 C1 1_555 1_555
H4 C1 1_555 1_555
H5 C1 1_555 1_555
C2 N1 1_555 1_555
H6 C2 1_555 1_555
H7 C2 1_555 1_555
H8 C2 1_555 1_555
N1_2 H1_2 1_555 1_555
H2_2 N1_2 1_555 1_555
C1_2 N1_2 1_555 1_555
H3_2 C1_2 1_555 1_555
H4_2 C1_2 1_555 1_555
H5_2 C1_2 1_555 1_555
C2_2 N1_2 1_555 1_555
H6_2 C2_2 1_555 1_555
H7_2 C2_2 1_555 1_555
H8_2 C2_2 1_555 1_555
H6_3 C2_3 1_555 1_555
H7_3 C2_3 1_555 1_555
H8_3 C2_3 1_555 1_555
N1_3 H1_3 1_555 1_555
H2_3 N1_3 1_555 1_555
C1_3 N1_3 1_555 1_555
H3_3 C1_3 1_555 1_555
H4_3 C1_3 1_555 1_555
H5_3 C1_3 1_555 1_555
H6_4 C2_4 1_555 1_555
H7_4 C2_4 1_555 1_555
H8_4 C2_4 1_555 1_555
N1_4 H1_4 1_555 1_555
H2_4 N1_4 1_555 1_555
C1_4 N1_4 1_555 1_555
H3_4 C1_4 1_555 1_555
H4_4 C1_4 1_555 1_555
H5_4 C1_4 1_555 1_555
N1_5 H1_5 1_555 1_555
H2_5 N1_5 1_555 1_555
C1_5 N1_5 1_555 1_555
H3_5 C1_5 1_555 1_555
H4_5 C1_5 1_555 1_555
H5_5 C1_5 1_555 1_555
C2_5 N1_5 1_555 1_555
H6_5 C2_5 1_555 1_555
H7_5 C2_5 1_555 1_555
H8_5 C2_5 1_555 1_555
N1_6 H1_6 1_555 1_555
H2_6 N1_6 1_555 1_555
C1_6 N1_6 1_555 1_555
H3_6 C1_6 1_555 1_555
H4_6 C1_6 1_555 1_555
H5_6 C1_6 1_555 1_555
C2_6 N1_6 1_555 1_555
H6_6 C2_6 1_555 1_555
H7_6 C2_6 1_555 1_555
H8_6 C2_6 1_555 1_555
N1_7 H1_7 1_555 1_555
H2_7 N1_7 1_555 1_555
C1_7 N1_7 1_555 1_555
H3_7 C1_7 1_555 1_555
H4_7 C1_7 1_555 1_555
H5_7 C1_7 1_555 1_555
H6_7 C2_7 1_555 1_555
H7_7 C2_7 1_555 1_555
H8_7 C2_7 1_555 1_555
N1_8 H1_8 1_555 1_555
H2_8 N1_8 1_555 1_555
C1_8 N1_8 1_555 1_555
H3_8 C1_8 1_555 1_555
H4_8 C1_8 1_555 1_555
H5_8 C1_8 1_555 1_555
H6_8 C2_8 1_555 1_555
H7_8 C2_8 1_555 1_555
H8_8 C2_8 1_555 1_555
C4 C6 1_555 1_555
C6 C7 1_555 1_555
C7 H9 1_555 1_555
Nd1 O4 1_555 1_555
O3 C4 1_555 1_555
Si1 C13 1_555 1_555
O4 C17 1_555 1_555
O6 C4 1_555 1_555
O7 Nd1 1_555 1_555
C13 C21 1_555 1_555
C15 Si1 1_555 1_555
C16 Si1 1_555 1_555
C17 O7 1_555 1_555
C18 C17 1_555 1_555
C19 C18 1_555 1_555
H14 C19 1_555 1_555
C20 H15 1_555 1_555
C21 C19 1_555 1_555
H16 C21 1_555 1_555
O9 Nd1 1_555 1_555
C24 C15 1_555 1_555
H18 C24 1_555 1_555
C25 C13 1_555 1_555
H19 C25 1_555 1_555
C27 C7 1_555 1_555
H21 C27 1_555 1_555
C28 C22 1_555 1_555
H22 C28 1_555 1_555
C29 C18 1_555 1_555
H23 C29 1_555 1_555
C30 C15 1_555 1_555
O10 Nd1 1_555 1_555
Nd3 O3 1_555 1_555
O11 Nd1 1_555 1_555
O12 Nd1 1_555 1_555
O13 Nd1 1_555 1_555
O15 Nd1 1_555 1_555
O6 Nd3 1_555 1_555
C16 C27 1_555 1_555
C20 C22 1_555 1_555
C20 C30 1_555 1_555
C24 C28 1_555 1_555
C25 C29 1_555 1_555
O9 H25 1_555 1_555
O9 H26 1_555 1_555
C3 C9 1_555 1_555
H10 C8 1_555 1_555
C9 C11 1_555 1_555
C10 H11 1_555 1_555
C11 H12 1_555 1_555
O5 C3 1_555 1_555
C12 C9 1_555 1_555
H13 C12 1_555 1_555
O8 C3 1_555 1_555
C14 C10 1_555 1_555
C23 C8 1_555 1_555
H17 C23 1_555 1_555
C26 C11 1_555 1_555
H20 C26 1_555 1_555
Nd5 O5 1_555 1_555
C10 C12 1_555 1_555
O8 Nd5 1_555 1_555
C14 C26 1_555 1_555
O1 C5 1_555 1_555
C5 O2 1_555 1_555
Nd3 O1 1_555 1_555
C3_2 C9_2 1_555 1_555
C4_2 C6_2 1_555 1_555
C6_2 C7_2 1_555 1_555
C7_2 H9_2 1_555 1_555
C8_2 C6_2 1_555 1_555
H10_2 C8_2 1_555 1_555
C9_2 C11_2 1_555 1_555
C10_2 H11_2 1_555 1_555
C11_2 H12_2 1_555 1_555
Nd1_2 O4_2 1_555 1_555
O3_2 C4_2 1_555 1_555
Si1_2 C13_2 1_555 1_555
O4_2 C17_2 1_555 1_555
O5_2 C3_2 1_555 1_555
O6_2 C4_2 1_555 1_555
O7_2 Nd1_2 1_555 1_555
C12_2 C9_2 1_555 1_555
H13_2 C12_2 1_555 1_555
O8_2 C3_2 1_555 1_555
C13_2 C21_2 1_555 1_555
C14_2 C10_2 1_555 1_555
C15_2 Si1_2 1_555 1_555
C16_2 Si1_2 1_555 1_555
C17_2 O7_2 1_555 1_555
C18_2 C17_2 1_555 1_555
C19_2 C18_2 1_555 1_555
H14_2 C19_2 1_555 1_555
C20_2 H15_2 1_555 1_555
C21_2 C19_2 1_555 1_555
H16_2 C21_2 1_555 1_555
O9_2 Nd1_2 1_555 1_555
C23_2 C8_2 1_555 1_555
H17_2 C23_2 1_555 1_555
C24_2 C15_2 1_555 1_555
H18_2 C24_2 1_555 1_555
C25_2 C13_2 1_555 1_555
H19_2 C25_2 1_555 1_555
C26_2 C11_2 1_555 1_555
H20_2 C26_2 1_555 1_555
C27_2 C7_2 1_555 1_555
H21_2 C27_2 1_555 1_555
C28_2 C22_2 1_555 1_555
H22_2 C28_2 1_555 1_555
C29_2 C18_2 1_555 1_555
H23_2 C29_2 1_555 1_555
C30_2 C15_2 1_555 1_555
H24_2 C30_2 1_555 1_555
O10_2 Nd1_2 1_555 1_555
Nd3_2 O3_2 1_555 1_555
Nd4_2 O6_2 1_555 1_555
Nd5_2 O5_2 1_555 1_555
O11_2 Nd1_2 1_555 1_555
O12_2 Nd1_2 1_555 1_555
O13_2 Nd1_2 1_555 1_555
O14_2 Nd1_2 1_555 1_555
O15_2 Nd1_2 1_555 1_555
C10_2 C12_2 1_555 1_555
Si1_2 C14_2 1_555 1_555
O6_2 Nd3_2 1_555 1_555
O8_2 Nd5_2 1_555 1_555
C14_2 C26_2 1_555 1_555
C16_2 C23_2 1_555 1_555
C16_2 C27_2 1_555 1_555
C20_2 C22_2 1_555 1_555
C20_2 C30_2 1_555 1_555
C24_2 C28_2 1_555 1_555
C25_2 C29_2 1_555 1_555
O9_2 H25_2 1_555 1_555
O9_2 H26_2 1_555 1_555
O1_2 C5_2 1_555 1_555
C5_2 O2_2 1_555 1_555
Nd3_2 O1_2 1_555 1_555
Nd3 O4_3 1_555 1_555
O4_3 C17_3 1_555 1_555
O7_3 Nd3 1_555 1_555
C17_3 O7_3 1_555 1_555
C18_3 C17_3 1_555 1_555
C19_3 C18_3 1_555 1_555
H14_3 C19_3 1_555 1_555
O9_3 Nd3 1_555 1_555
C29_3 C18_3 1_555 1_555
H23_3 C29_3 1_555 1_555
O12_3 Nd3 1_555 1_555
O15_3 Nd3 1_555 1_555
O9_3 H25_3 1_555 1_555
O9_3 H26_3 1_555 1_555
C4_3 C6_3 1_555 1_555
O11 C4_3 1_555 1_555
O13 C4_3 1_555 1_555
H10_3 C8_3 1_555 1_555
O10 C5_3 1_555 1_555
C5_3 O2_3 1_555 1_555
C7_3 H9_3 1_555 1_555
Si1_3 C13_3 1_555 1_555
C13_3 C21_3 1_555 1_555
C15_3 Si1_3 1_555 1_555
C16_3 Si1_3 1_555 1_555
C20_3 H15_3 1_555 1_555
H16_3 C21_3 1_555 1_555
C22_3 C5_3 1_555 1_555
C24_3 C15_3 1_555 1_555
H18_3 C24_3 1_555 1_555
C25_3 C13_3 1_555 1_555
H19_3 C25_3 1_555 1_555
C27_3 C7_3 1_555 1_555
H21_3 C27_3 1_555 1_555
C28_3 C22_3 1_555 1_555
H22_3 C28_3 1_555 1_555
C30_3 C15_3 1_555 1_555
C16_3 C27_3 1_555 1_555
C20_3 C22_3 1_555 1_555
C20_3 C30_3 1_555 1_555
C24_3 C28_3 1_555 1_555
C3_3 C9_3 1_555 1_555
C9_3 C11_3 1_555 1_555
C10_3 H11_3 1_555 1_555
C11_3 H12_3 1_555 1_555
O5_3 C3_3 1_555 1_555
C12_3 C9_3 1_555 1_555
H13_3 C12_3 1_555 1_555
O8_3 C3_3 1_555 1_555
C14_3 C10_3 1_555 1_555
H17_3 C23_3 1_555 1_555
C26_3 C11_3 1_555 1_555
H20_3 C26_3 1_555 1_555
Nd4_2 O5_3 1_555 1_555
C10_3 C12_3 1_555 1_555
O8_3 Nd4_2 1_555 1_555
C14_3 C26_3 1_555 1_555
C4_4 C6_4 1_555 1_555
C8_4 C6_4 1_555 1_555
H10_4 C8_4 1_555 1_555
O11_2 C4_4 1_555 1_555
O13_2 C4_4 1_555 1_555
Nd5 O13_2 1_555 1_555
C3_4 C9_4 1_555 1_555
O10_2 C5_4 1_555 1_555
C5_4 O2_4 1_555 1_555
C7_4 H9_4 1_555 1_555
C9_4 C11_4 1_555 1_555
C10_4 H11_4 1_555 1_555
C11_4 H12_4 1_555 1_555
Si1_4 C13_4 1_555 1_555
O5_4 C3_4 1_555 1_555
C12_4 C9_4 1_555 1_555
H13_4 C12_4 1_555 1_555
O8_4 C3_4 1_555 1_555
C13_4 C21_4 1_555 1_555
C14_4 C10_4 1_555 1_555
C15_4 Si1_4 1_555 1_555
C16_4 Si1_4 1_555 1_555
C20_4 H15_4 1_555 1_555
H16_4 C21_4 1_555 1_555
C22_4 C5_4 1_555 1_555
H17_4 C23_4 1_555 1_555
C24_4 C15_4 1_555 1_555
H18_4 C24_4 1_555 1_555
C25_4 C13_4 1_555 1_555
H19_4 C25_4 1_555 1_555
C26_4 C11_4 1_555 1_555
H20_4 C26_4 1_555 1_555
C27_4 C7_4 1_555 1_555
H21_4 C27_4 1_555 1_555
C28_4 C22_4 1_555 1_555
H22_4 C28_4 1_555 1_555
C30_4 C15_4 1_555 1_555
H24_4 C30_4 1_555 1_555
Nd4 O5_4 1_555 1_555
C10_4 C12_4 1_555 1_555
Si1_4 C14_4 1_555 1_555
O8_4 Nd4 1_555 1_555
C14_4 C26_4 1_555 1_555
C16_4 C23_4 1_555 1_555
C16_4 C27_4 1_555 1_555
C20_4 C22_4 1_555 1_555
C20_4 C30_4 1_555 1_555
C24_4 C28_4 1_555 1_555
Nd3_2 O4_4 1_555 1_555
O4_4 C17_4 1_555 1_555
O7_4 Nd3_2 1_555 1_555
C17_4 O7_4 1_555 1_555
C18_4 C17_4 1_555 1_555
C19_4 C18_4 1_555 1_555
H14_4 C19_4 1_555 1_555
O9_4 Nd3_2 1_555 1_555
C29_4 C18_4 1_555 1_555
H23_4 C29_4 1_555 1_555
O12_4 Nd3_2 1_555 1_555
O14_4 Nd3_2 1_555 1_555
O15_4 Nd3_2 1_555 1_555
O9_4 H25_4 1_555 1_555
O9_4 H26_4 1_555 1_555
O1_3 C5_5 1_555 1_555
C5_5 O2_5 1_555 1_555
Nd5_2 O1_3 1_555 1_555
C3_5 C9_5 1_555 1_555
H10_5 C8_5 1_555 1_555
C9_5 C11_5 1_555 1_555
C10_5 H11_5 1_555 1_555
C11_5 H12_5 1_555 1_555
O12_4 C3_5 1_555 1_555
C12_5 C9_5 1_555 1_555
H13_5 C12_5 1_555 1_555
O15_4 C3_5 1_555 1_555
C14_5 C10_5 1_555 1_555
C23_5 C8_5 1_555 1_555
H17_5 C23_5 1_555 1_555
C26_5 C11_5 1_555 1_555
H20_5 C26_5 1_555 1_555
C10_5 C12_5 1_555 1_555
C14_5 C26_5 1_555 1_555
C4_5 C6_5 1_555 1_555
C6_5 C7_5 1_555 1_555
C7_5 H9_5 1_555 1_555
Nd4 O4_5 1_555 1_555
O3_3 C4_5 1_555 1_555
Si1_5 C13_5 1_555 1_555
O4_5 C17_5 1_555 1_555
O14 C4_5 1_555 1_555
O7_5 Nd4 1_555 1_555
C13_5 C21_5 1_555 1_555
C15_5 Si1_5 1_555 1_555
C16_5 Si1_5 1_555 1_555
C17_5 O7_5 1_555 1_555
C18_5 C17_5 1_555 1_555
C19_5 C18_5 1_555 1_555
H14_5 C19_5 1_555 1_555
C20_5 H15_5 1_555 1_555
C21_5 C19_5 1_555 1_555
H16_5 C21_5 1_555 1_555
O9_5 Nd4 1_555 1_555
C24_5 C15_5 1_555 1_555
H18_5 C24_5 1_555 1_555
C25_5 C13_5 1_555 1_555
H19_5 C25_5 1_555 1_555
C27_5 C7_5 1_555 1_555
H21_5 C27_5 1_555 1_555
C28_5 C22_5 1_555 1_555
H22_5 C28_5 1_555 1_555
C29_5 C18_5 1_555 1_555
H23_5 C29_5 1_555 1_555
C30_5 C15_5 1_555 1_555
O10_3 Nd4 1_555 1_555
Nd5_2 O3_3 1_555 1_555
O11_3 Nd4 1_555 1_555
O14_3 Nd4 1_555 1_555
O14 Nd5_2 1_555 1_555
C16_5 C27_5 1_555 1_555
C20_5 C22_5 1_555 1_555
C20_5 C30_5 1_555 1_555
C24_5 C28_5 1_555 1_555
C25_5 C29_5 1_555 1_555
O9_5 H25_5 1_555 1_555
O9_5 H26_5 1_555 1_555
O1_4 C5_6 1_555 1_555
C5_6 O2_6 1_555 1_555
Nd5 O1_4 1_555 1_555
C3_6 C9_6 1_555 1_555
C4_6 C6_6 1_555 1_555
C6_6 C7_6 1_555 1_555
C7_6 H9_6 1_555 1_555
C8_6 C6_6 1_555 1_555
H10_6 C8_6 1_555 1_555
C9_6 C11_6 1_555 1_555
C10_6 H11_6 1_555 1_555
C11_6 H12_6 1_555 1_555
Nd4_2 O4_6 1_555 1_555
O3_4 C4_6 1_555 1_555
Si1_6 C13_6 1_555 1_555
O4_6 C17_6 1_555 1_555
O12_3 C3_6 1_555 1_555
O14_2 C4_6 1_555 1_555
O7_6 Nd4_2 1_555 1_555
C12_6 C9_6 1_555 1_555
H13_6 C12_6 1_555 1_555
O15_3 C3_6 1_555 1_555
C13_6 C21_6 1_555 1_555
C14_6 C10_6 1_555 1_555
C15_6 Si1_6 1_555 1_555
C16_6 Si1_6 1_555 1_555
C17_6 O7_6 1_555 1_555
C18_6 C17_6 1_555 1_555
C19_6 C18_6 1_555 1_555
H14_6 C19_6 1_555 1_555
C20_6 H15_6 1_555 1_555
C21_6 C19_6 1_555 1_555
H16_6 C21_6 1_555 1_555
O9_6 Nd4_2 1_555 1_555
C23_6 C8_6 1_555 1_555
H17_6 C23_6 1_555 1_555
C24_6 C15_6 1_555 1_555
H18_6 C24_6 1_555 1_555
C25_6 C13_6 1_555 1_555
H19_6 C25_6 1_555 1_555
C26_6 C11_6 1_555 1_555
H20_6 C26_6 1_555 1_555
C27_6 C7_6 1_555 1_555
H21_6 C27_6 1_555 1_555
C28_6 C22_6 1_555 1_555
H22_6 C28_6 1_555 1_555
C29_6 C18_6 1_555 1_555
H23_6 C29_6 1_555 1_555
C30_6 C15_6 1_555 1_555
H24_6 C30_6 1_555 1_555
O10_4 Nd4_2 1_555 1_555
Nd5 O3_4 1_555 1_555
O11_4 Nd4_2 1_555 1_555
O14_4 Nd4_2 1_555 1_555
C10_6 C12_6 1_555 1_555
Si1_6 C14_6 1_555 1_555
O14_2 Nd5 1_555 1_555
C14_6 C26_6 1_555 1_555
C16_6 C23_6 1_555 1_555
C16_6 C27_6 1_555 1_555
C20_6 C22_6 1_555 1_555
C20_6 C30_6 1_555 1_555
C24_6 C28_6 1_555 1_555
C25_6 C29_6 1_555 1_555
O9_6 H25_6 1_555 1_555
O9_6 H26_6 1_555 1_555
C3_7 C9_7 1_555 1_555
C9_7 C11_7 1_555 1_555
C10_7 H11_7 1_555 1_555
C11_7 H12_7 1_555 1_555
O12_2 C3_7 1_555 1_555
C12_7 C9_7 1_555 1_555
H13_7 C12_7 1_555 1_555
O15_2 C3_7 1_555 1_555
C14_7 C10_7 1_555 1_555
H17_7 C23_7 1_555 1_555
C26_7 C11_7 1_555 1_555
H20_7 C26_7 1_555 1_555
C10_7 C12_7 1_555 1_555
C14_7 C26_7 1_555 1_555
O10_3 C5_7 1_555 1_555
C5_7 O2_7 1_555 1_555
C7_7 H9_7 1_555 1_555
Si1_7 C13_7 1_555 1_555
C13_7 C21_7 1_555 1_555
C15_7 Si1_7 1_555 1_555
C16_7 Si1_7 1_555 1_555
C20_7 H15_7 1_555 1_555
H16_7 C21_7 1_555 1_555
C22_7 C5_7 1_555 1_555
C24_7 C15_7 1_555 1_555
H18_7 C24_7 1_555 1_555
C25_7 C13_7 1_555 1_555
H19_7 C25_7 1_555 1_555
C27_7 C7_7 1_555 1_555
H21_7 C27_7 1_555 1_555
C28_7 C22_7 1_555 1_555
H22_7 C28_7 1_555 1_555
C30_7 C15_7 1_555 1_555
C16_7 C27_7 1_555 1_555
C20_7 C22_7 1_555 1_555
C20_7 C30_7 1_555 1_555
C24_7 C28_7 1_555 1_555
H10_7 C8_7 1_555 1_555
C4_7 C6_7 1_555 1_555
O11_3 C4_7 1_555 1_555
O14_3 C4_7 1_555 1_555
Nd5_2 O4_7 1_555 1_555
O4_7 C17_7 1_555 1_555
O7_7 Nd5_2 1_555 1_555
C17_7 O7_7 1_555 1_555
C18_7 C17_7 1_555 1_555
C19_7 C18_7 1_555 1_555
H14_7 C19_7 1_555 1_555
O9_7 Nd5_2 1_555 1_555
C29_7 C18_7 1_555 1_555
H23_7 C29_7 1_555 1_555
O9_7 H25_7 1_555 1_555
O9_7 H26_7 1_555 1_555
Nd5 O4_8 1_555 1_555
O4_8 C17_8 1_555 1_555
O7_8 Nd5 1_555 1_555
C17_8 O7_8 1_555 1_555
C18_8 C17_8 1_555 1_555
C19_8 C18_8 1_555 1_555
H14_8 C19_8 1_555 1_555
O9_8 Nd5 1_555 1_555
C29_8 C18_8 1_555 1_555
H23_8 C29_8 1_555 1_555
O9_8 H25_8 1_555 1_555
O9_8 H26_8 1_555 1_555
C3_8 C9_8 1_555 1_555
O10_4 C5_8 1_555 1_555
C5_8 O2_8 1_555 1_555
C7_8 H9_8 1_555 1_555
C9_8 C11_8 1_555 1_555
C10_8 H11_8 1_555 1_555
C11_8 H12_8 1_555 1_555
Si1_8 C13_8 1_555 1_555
O12 C3_8 1_555 1_555
C12_8 C9_8 1_555 1_555
H13_8 C12_8 1_555 1_555
O15 C3_8 1_555 1_555
C13_8 C21_8 1_555 1_555
C14_8 C10_8 1_555 1_555
C15_8 Si1_8 1_555 1_555
C16_8 Si1_8 1_555 1_555
C20_8 H15_8 1_555 1_555
H16_8 C21_8 1_555 1_555
C22_8 C5_8 1_555 1_555
H17_8 C23_8 1_555 1_555
C24_8 C15_8 1_555 1_555
H18_8 C24_8 1_555 1_555
C25_8 C13_8 1_555 1_555
H19_8 C25_8 1_555 1_555
C26_8 C11_8 1_555 1_555
H20_8 C26_8 1_555 1_555
C27_8 C7_8 1_555 1_555
H21_8 C27_8 1_555 1_555
C28_8 C22_8 1_555 1_555
H22_8 C28_8 1_555 1_555
C30_8 C15_8 1_555 1_555
H24_8 C30_8 1_555 1_555
C10_8 C12_8 1_555 1_555
Si1_8 C14_8 1_555 1_555
C14_8 C26_8 1_555 1_555
C16_8 C23_8 1_555 1_555
C16_8 C27_8 1_555 1_555
C20_8 C22_8 1_555 1_555
C20_8 C30_8 1_555 1_555
C24_8 C28_8 1_555 1_555
C4_8 C6_8 1_555 1_555
C8_8 C6_8 1_555 1_555
H10_8 C8_8 1_555 1_555
O11_4 C4_8 1_555 1_555
O14_4 C4_8 1_555 1_555

#END
