
###############################################################################
#
# This file contains modified crystal structure data generated from the
# MOF subset of the Cambridge Structural Database (CSD) v543 
# hosted by the Cambridge Crystallographic Data Centre (CCDC).
#
# This work is licensed under the Creative Commons
# Attribution-NonCommercial-ShareAlike 4.0 International License.
# To view a copy of this license, visit
# http://creativecommons.org/licenses/by-nc-sa/4.0/
# or send a letter to
# Creative Commons, PO Box 1866, Mountain View, CA 94042, USA.
#
# CIF created using the CSD Python API on 29 September 2022
# The structure has been converted into the P1 space group
# The structure has a 3D framework
# The original CSD entry HIHGOW is in the monoclinic crystal system
# The framework has been calculated to contain at least 10.0% void space
# The void calculation uses a probe of radius 1.32A, grid spacing 0.4
#
###############################################################################

data_HIHGOW
_chemical_formula_moiety         '(C360 H272 N16 O94 Zn16)n'
_symmetry_cell_setting           triclinic
_symmetry_space_group_name_H-M   'P 1'
_symmetry_Int_Tables_number      1
_space_group_name_Hall           'P 1'
loop_
_symmetry_equiv_pos_site_id
_symmetry_equiv_pos_as_xyz
1 x,y,z
_cell_length_a                   23.763(3)
_cell_length_b                   21.535(2)
_cell_length_c                   26.471(3)
_cell_angle_alpha                90
_cell_angle_beta                 97.687(2)
_cell_angle_gamma                90
_cell_volume                     13424.4
loop_
_atom_site_label
_atom_site_type_symbol
_atom_site_fract_x
_atom_site_fract_y
_atom_site_fract_z
C1 C 0.3727(3) 0.1769(3) 0.4225(3)
C2 C 0.3327(3) 0.1364(3) 0.3894(2)
C3 C 0.3476(3) 0.0758(3) 0.3802(3)
H1 H 0.3832 0.0609 0.3938
C4 C 0.3103(3) 0.0379(3) 0.3513(3)
C5 C 0.2567(3) 0.0591(3) 0.3321(3)
C6 C 0.2419(3) 0.1176(3) 0.3428(3)
H3 H 0.2059 0.1321 0.3302
C7 C 0.2793(3) 0.1561(3) 0.3718(3)
H4 H 0.2680 0.1959 0.3796
C26 C 0.1722(3) 0.0151(3) 0.1974(3)
H19 H 0.1594 0.0493 0.2169
H20 H 0.2057 0.0286 0.1831
C27 C 0.1038(3) 0.0464(3) 0.1306(3)
C28 C 0.1230(3) 0.1055(3) 0.1313(3)
H21 H 0.1570 0.1167 0.1508
C29 C 0.0904(3) 0.1491(3) 0.1018(3)
H22 H 0.1030 0.1900 0.1019
C30 C 0.0403(3) 0.1339(3) 0.0725(2)
C31 C 0.0240(3) 0.0740(3) 0.0720(3)
C32 C 0.0553(3) 0.0288(3) 0.0999(3)
C33 C 0.0040(3) 0.1808(3) 0.0425(3)
C34 C 0.2918(2) 0.3546(3) 0.4982(3)
H25 H 0.2895 0.3178 0.5162
C35 C 0.2501(3) 0.3977(3) 0.4992(3)
H26 H 0.2203 0.3903 0.5179
C36 C 0.2522(2) 0.4519(3) 0.4728(2)
C37 C 0.2979(3) 0.4603(3) 0.4451(3)
H27 H 0.3004 0.4962 0.4260
C38 C 0.3396(3) 0.4147(3) 0.4464(2)
H28 H 0.3703 0.4209 0.4287
C39 C 0.2102(3) 0.5002(3) 0.4731(3)
H29 H 0.2157 0.5367 0.4557
C40 C 0.1657(3) 0.4966(3) 0.4956(3)
H30 H 0.1614 0.4604 0.5139
C41 C 0.1204(4) 0.5438(4) 0.4954(4)
C42 C 0.1314(4) 0.6034(4) 0.4791(4)
H31 H 0.1659 0.6122 0.4677
C43 C 0.0909(3) 0.6498(4) 0.4799(3)
H32 H 0.0982 0.6897 0.4690
C44 C 0.0283(3) 0.5771(4) 0.5132(3)
C45 C 0.06884(17) 0.5306(2) 0.51246(19)
H34 H 0.0615 0.4908 0.5233
N1 N 0.03932(17) 0.6366(2) 0.49691(19)
N2 N 0.33611(18) 0.36294(19) 0.47222(17)
O1 O 0.41876(18) 0.1554(2) 0.44312(18)
O2 O 0.35691(17) 0.2318(2) 0.42819(17)
O3 O 0.2158(2) 0.0252(2) 0.3028(2)
O11 O 0.02256(18) 0.2348(2) 0.03913(17)
Zn1 Zn 0.47908(2) 0.20098(3) 0.49331(3)
Zn2 Zn 0.39624(2) 0.29741(3) 0.47211(3)
N3 N 0.53932(17) 0.1366(2) 0.49691(19)
O13 O 0.43562(16) 0.17552(19) 0.54981(17)
O14 O 0.37150(17) 0.24906(19) 0.53463(16)
O15 O 0.43890(17) 0.3251(2) 0.41273(17)
O16 O 0.50021(18) 0.2484(2) 0.43197(18)
O17 O 0.52256(18) 0.2652(2) 0.53913(17)
O18 O 0.45755(18) 0.33793(19) 0.51956(18)
H2 H 0.3209 0.9975 0.3445
C8 C 0.2346(3) 0.9752(3) 0.2765(3)
H5 H 0.2425 0.9400 0.2992
H6 H 0.2692 0.9861 0.2628
C9 C 0.1872(3) 0.9587(3) 0.2328(3)
C10 C 0.2101(3) 0.9042(3) 0.2015(3)
H7 H 0.2180 0.8678 0.2227
H8 H 0.1823 0.8933 0.1725
C11 C 0.2875(3) 0.8897(3) 0.1550(3)
C12 C 0.3393(3) 0.9144(3) 0.1462(3)
H9 H 0.3516 0.9520 0.1611
C13 C 0.3727(3) 0.8834(3) 0.1153(3)
H10 H 0.4074 0.9001 0.1098
C14 C 0.3553(2) 0.8294(2) 0.0933(3)
C15 C 0.3055(3) 0.8035(3) 0.1046(3)
H11 H 0.2945 0.7648 0.0911
C16 C 0.2711(3) 0.8334(3) 0.1355(3)
H12 H 0.2376 0.8151 0.1427
C17 C 0.3902(2) 0.7990(3) 0.0562(2)
C18 C 0.1306(3) 0.9392(3) 0.2568(3)
H13 H 0.1186 0.9728 0.2773
H14 H 0.1000 0.9297 0.2299
C19 C 0.1008(3) 0.8678(4) 0.3142(3)
C20 C 0.1136(3) 0.8186(4) 0.3426(3)
H15 H 0.1485 0.7993 0.3420
C21 C 0.0765(3) 0.7952(3) 0.3730(3)
H16 H 0.0871 0.7613 0.3939
C22 C 0.0231(3) 0.8215(3) 0.3730(2)
C23 C 0.0102(3) 0.8716(3) 0.3440(2)
C24 C 0.0490(3) 0.8969(3) 0.3130(2)
H18 H 0.0397 0.9317 0.2927
H24 H 0.0438 0.9875 0.0981
O4 O 0.2590(2) 0.9262(2) 0.1853(2)
O5 O 0.43562(16) 0.82448(19) 0.04981(17)
O6 O 0.37150(17) 0.75094(19) 0.03463(16)
O7 O 0.1441(2) 0.8886(2) 0.2860(2)
O9 O 0.00021(18) 0.7484(2) 0.43197(18)
O10 O 0.1304(2) 0.9992(2) 0.15902(19)
Zn5 Zn 0.47908(2) 0.79902(3) 0.99331(3)
Zn8 Zn 0.39624(2) 0.70259(3) 0.97211(3)
H23 H 0.9903 0.0627 0.0520
H33 H 0.9938 0.5682 0.5246
O12 O 0.95755(18) 0.16207(19) 0.01956(18)
Zn4 Zn 0.97908(2) 0.70098(3) 0.49331(3)
Zn6 Zn 0.97908(2) 0.29902(3) 0.99331(3)
Zn9 Zn 0.89624(2) 0.20259(3) 0.97211(3)
H17 H 0.9749 0.8904 0.3440
C25 C 0.9849(3) 0.7971(3) 0.4079(3)
O8 O 0.93890(17) 0.8251(2) 0.41273(17)
Zn7 Zn 0.89624(2) 0.79741(3) 0.47211(3)
O17_2 O 0.02256(18) 0.7652(2) 0.53913(17)
C39_2 C 0.7102(3) 0.0002(3) 0.4731(3)
H29_2 H 0.7157 0.0367 0.4557
C41_2 C 0.6204(4) 0.0438(4) 0.4954(4)
C42_2 C 0.6314(4) 0.1034(4) 0.4791(4)
H31_2 H 0.6659 0.1122 0.4677
C43_2 C 0.5909(3) 0.1498(4) 0.4799(3)
H32_2 H 0.5982 0.1897 0.4690
C44_2 C 0.5283(3) 0.0771(4) 0.5132(3)
H33_2 H 0.4938 0.0682 0.5246
C45_2 C 0.56884(17) 0.0306(2) 0.51246(19)
C1_2 C 0.8727(3) 0.6769(3) 0.4225(3)
C2_2 C 0.8327(3) 0.6364(3) 0.3894(2)
C3_2 C 0.8476(3) 0.5758(3) 0.3802(3)
H1_2 H 0.8832 0.5609 0.3938
C4_2 C 0.8103(3) 0.5379(3) 0.3513(3)
H2_2 H 0.8209 0.4975 0.3445
C5_2 C 0.7567(3) 0.5591(3) 0.3321(3)
C6_2 C 0.7419(3) 0.6176(3) 0.3428(3)
H3_2 H 0.7059 0.6321 0.3302
C7_2 C 0.7793(3) 0.6561(3) 0.3718(3)
H4_2 H 0.7680 0.6959 0.3796
C8_2 C 0.7346(3) 0.4752(3) 0.2765(3)
H5_2 H 0.7425 0.4400 0.2992
H6_2 H 0.7692 0.4861 0.2628
C9_2 C 0.6872(3) 0.4587(3) 0.2328(3)
C10_2 C 0.7101(3) 0.4042(3) 0.2015(3)
H7_2 H 0.7180 0.3678 0.2227
H8_2 H 0.6823 0.3933 0.1725
C11_2 C 0.7875(3) 0.3897(3) 0.1550(3)
C12_2 C 0.8393(3) 0.4144(3) 0.1462(3)
H9_2 H 0.8516 0.4520 0.1611
C13_2 C 0.8727(3) 0.3834(3) 0.1153(3)
H10_2 H 0.9074 0.4001 0.1098
C14_2 C 0.8553(2) 0.3294(2) 0.0933(3)
C15_2 C 0.8055(3) 0.3035(3) 0.1046(3)
H11_2 H 0.7945 0.2648 0.0911
C16_2 C 0.7711(3) 0.3334(3) 0.1355(3)
H12_2 H 0.7376 0.3151 0.1427
C17_2 C 0.8902(2) 0.2990(3) 0.0562(2)
C18_2 C 0.6306(3) 0.4392(3) 0.2568(3)
H13_2 H 0.6186 0.4728 0.2773
H14_2 H 0.6000 0.4297 0.2299
C19_2 C 0.6008(3) 0.3678(4) 0.3142(3)
C20_2 C 0.6136(3) 0.3186(4) 0.3426(3)
H15_2 H 0.6485 0.2993 0.3420
C21_2 C 0.5765(3) 0.2952(3) 0.3730(3)
H16_2 H 0.5871 0.2613 0.3939
C22_2 C 0.5231(3) 0.3215(3) 0.3730(2)
C23_2 C 0.5102(3) 0.3716(3) 0.3440(2)
H17_2 H 0.4749 0.3904 0.3440
C24_2 C 0.5490(3) 0.3969(3) 0.3130(2)
H18_2 H 0.5397 0.4317 0.2927
C25_2 C 0.4849(3) 0.2971(3) 0.4079(3)
C26_2 C 0.6722(3) 0.5151(3) 0.1974(3)
H19_2 H 0.6594 0.5493 0.2169
H20_2 H 0.7057 0.5286 0.1831
C27_2 C 0.6038(3) 0.5464(3) 0.1306(3)
C28_2 C 0.6230(3) 0.6055(3) 0.1313(3)
H21_2 H 0.6570 0.6167 0.1508
C29_2 C 0.5904(3) 0.6491(3) 0.1018(3)
H22_2 H 0.6030 0.6900 0.1019
C30_2 C 0.5403(3) 0.6339(3) 0.0725(2)
C31_2 C 0.5240(3) 0.5740(3) 0.0720(3)
H23_2 H 0.4903 0.5627 0.0520
C32_2 C 0.5553(3) 0.5288(3) 0.0999(3)
H24_2 H 0.5438 0.4875 0.0981
C33_2 C 0.5040(3) 0.6808(3) 0.0425(3)
C34_2 C 0.7918(2) 0.8546(3) 0.4982(3)
H25_2 H 0.7895 0.8178 0.5162
C35_2 C 0.7501(3) 0.8977(3) 0.4992(3)
H26_2 H 0.7203 0.8903 0.5179
C36_2 C 0.7522(2) 0.9519(3) 0.4728(2)
C37_2 C 0.7979(3) 0.9603(3) 0.4451(3)
H27_2 H 0.8004 0.9962 0.4260
C38_2 C 0.8396(3) 0.9147(3) 0.4464(2)
H28_2 H 0.8703 0.9209 0.4287
C40_2 C 0.6657(3) 0.9966(3) 0.4956(3)
H30_2 H 0.6614 0.9604 0.5139
H34_2 H 0.5615 0.9908 0.5233
N2_2 N 0.83611(18) 0.86294(19) 0.47222(17)
O1_2 O 0.91876(18) 0.6554(2) 0.44312(18)
O2_2 O 0.85691(17) 0.7318(2) 0.42819(17)
O3_2 O 0.7158(2) 0.5252(2) 0.3028(2)
O4_2 O 0.7590(2) 0.4262(2) 0.1853(2)
O5_2 O 0.93562(16) 0.32448(19) 0.04981(17)
O6_2 O 0.87150(17) 0.25094(19) 0.03463(16)
O7_2 O 0.6441(2) 0.3886(2) 0.2860(2)
O10_2 O 0.6304(2) 0.4992(2) 0.15902(19)
O11_2 O 0.52256(18) 0.7348(2) 0.03913(17)
O12_2 O 0.45755(18) 0.66207(19) 0.01956(18)
O13_2 O 0.93562(16) 0.67552(19) 0.54981(17)
O14_2 O 0.87150(17) 0.74906(19) 0.53463(16)
O18_2 O 0.95755(18) 0.83793(19) 0.51956(18)
H2_3 H 0.3209 0.0025 0.8445
C8_3 C 0.2346(3) 0.0248(3) 0.7765(3)
H5_3 H 0.2425 0.0600 0.7992
H6_3 H 0.2692 0.0139 0.7628
C9_3 C 0.1872(3) 0.0413(3) 0.7328(3)
C10_3 C 0.2101(3) 0.0958(3) 0.7015(3)
H7_3 H 0.2180 0.1322 0.7227
H8_3 H 0.1823 0.1067 0.6725
C11_3 C 0.2875(3) 0.1103(3) 0.6550(3)
C12_3 C 0.3393(3) 0.0856(3) 0.6462(3)
H9_3 H 0.3516 0.0480 0.6611
C13_3 C 0.3727(3) 0.1166(3) 0.6153(3)
H10_3 H 0.4074 0.0999 0.6098
C14_3 C 0.3553(2) 0.1706(2) 0.5933(3)
C15_3 C 0.3055(3) 0.1965(3) 0.6046(3)
H11_3 H 0.2945 0.2352 0.5911
C16_3 C 0.2711(3) 0.1666(3) 0.6355(3)
H12_3 H 0.2376 0.1849 0.6427
C17_3 C 0.3902(2) 0.2010(3) 0.5562(2)
C18_3 C 0.1306(3) 0.0608(3) 0.7568(3)
H13_3 H 0.1186 0.0272 0.7773
H14_3 H 0.1000 0.0703 0.7299
C19_3 C 0.1008(3) 0.1322(4) 0.8142(3)
C20_3 C 0.1136(3) 0.1814(4) 0.8426(3)
H15_3 H 0.1485 0.2007 0.8420
C21_3 C 0.0765(3) 0.2048(3) 0.8730(3)
H16_3 H 0.0871 0.2387 0.8939
C22_3 C 0.0231(3) 0.1785(3) 0.8730(2)
C23_3 C 0.0102(3) 0.1284(3) 0.8440(2)
C24_3 C 0.0490(3) 0.1031(3) 0.8130(2)
H18_3 H 0.0397 0.0683 0.7927
H24_3 H 0.0438 0.0125 0.5981
O4_3 O 0.2590(2) 0.0738(2) 0.6853(2)
O7_3 O 0.1441(2) 0.1114(2) 0.7860(2)
O9_2 O 0.00021(18) 0.2516(2) 0.93197(18)
O10_3 O 0.1304(2) 0.0008(2) 0.65902(19)
H25_3 H 0.2895 0.6822 0.0162
H26_3 H 0.2203 0.6097 0.0179
H30_3 H 0.1614 0.5396 0.0139
C44_3 C 0.0283(3) 0.4229(4) 0.0132(3)
C45_3 C 0.06884(17) 0.4694(2) 0.01246(19)
H34_3 H 0.0615 0.5092 0.0233
C1_3 C 0.3727(3) 0.8231(3) 0.9225(3)
C2_3 C 0.3327(3) 0.8636(3) 0.8894(2)
C3_3 C 0.3476(3) 0.9242(3) 0.8802(3)
H1_3 H 0.3832 0.9391 0.8938
C4_3 C 0.3103(3) 0.9621(3) 0.8513(3)
C5_3 C 0.2567(3) 0.9409(3) 0.8321(3)
C6_3 C 0.2419(3) 0.8824(3) 0.8428(3)
H3_3 H 0.2059 0.8679 0.8302
C7_3 C 0.2793(3) 0.8439(3) 0.8718(3)
H4_3 H 0.2680 0.8041 0.8796
C26_3 C 0.1722(3) 0.9849(3) 0.6974(3)
H19_3 H 0.1594 0.9507 0.7169
H20_3 H 0.2057 0.9714 0.6831
C27_3 C 0.1038(3) 0.9536(3) 0.6306(3)
C28_3 C 0.1230(3) 0.8945(3) 0.6313(3)
H21_3 H 0.1570 0.8833 0.6508
C29_3 C 0.0904(3) 0.8509(3) 0.6018(3)
H22_3 H 0.1030 0.8100 0.6019
C30_3 C 0.0403(3) 0.8661(3) 0.5725(2)
C31_3 C 0.0240(3) 0.9260(3) 0.5720(3)
C32_3 C 0.0553(3) 0.9712(3) 0.5999(3)
C33_3 C 0.0040(3) 0.8192(3) 0.5425(3)
C34_3 C 0.2918(2) 0.6454(3) 0.9982(3)
C35_3 C 0.2501(3) 0.6023(3) 0.9992(3)
C36_3 C 0.2522(2) 0.5481(3) 0.9728(2)
C37_3 C 0.2979(3) 0.5397(3) 0.9451(3)
H27_3 H 0.3004 0.5038 0.9260
C38_3 C 0.3396(3) 0.5853(3) 0.9464(2)
H28_3 H 0.3703 0.5791 0.9287
C39_3 C 0.2102(3) 0.4998(3) 0.9731(3)
H29_3 H 0.2157 0.4633 0.9557
C40_3 C 0.1657(3) 0.5034(3) 0.9956(3)
C41_3 C 0.1204(4) 0.4562(4) 0.9954(4)
C42_3 C 0.1314(4) 0.3966(4) 0.9791(4)
H31_3 H 0.1659 0.3878 0.9677
C43_3 C 0.0909(3) 0.3502(4) 0.9799(3)
H32_3 H 0.0982 0.3103 0.9690
N1_2 N 0.03932(17) 0.3634(2) 0.99691(19)
N2_3 N 0.33611(18) 0.63706(19) 0.97222(17)
O1_3 O 0.41876(18) 0.8446(2) 0.94312(18)
O2_3 O 0.35691(17) 0.7682(2) 0.92819(17)
O3_3 O 0.2158(2) 0.9748(2) 0.8028(2)
N3_2 N 0.53932(17) 0.8634(2) 0.99691(19)
O15_2 O 0.43890(17) 0.6749(2) 0.91273(17)
O16_2 O 0.50021(18) 0.7516(2) 0.93197(18)
H17_3 H 0.9749 0.1096 0.8440
C25_3 C 0.9849(3) 0.2029(3) 0.9079(3)
O8_2 O 0.93890(17) 0.1749(2) 0.91273(17)
H23_3 H 0.9903 0.9373 0.5520
H25_4 H 0.7895 0.1822 0.0162
H26_4 H 0.7203 0.1097 0.0179
H30_4 H 0.6614 0.0396 0.0139
H34_4 H 0.5615 0.0092 0.0233
C1_4 C 0.8727(3) 0.3231(3) 0.9225(3)
C2_4 C 0.8327(3) 0.3636(3) 0.8894(2)
C3_4 C 0.8476(3) 0.4242(3) 0.8802(3)
H1_4 H 0.8832 0.4391 0.8938
C4_4 C 0.8103(3) 0.4621(3) 0.8513(3)
H2_4 H 0.8209 0.5025 0.8445
C5_4 C 0.7567(3) 0.4409(3) 0.8321(3)
C6_4 C 0.7419(3) 0.3824(3) 0.8428(3)
H3_4 H 0.7059 0.3679 0.8302
C7_4 C 0.7793(3) 0.3439(3) 0.8718(3)
H4_4 H 0.7680 0.3041 0.8796
C8_4 C 0.7346(3) 0.5248(3) 0.7765(3)
H5_4 H 0.7425 0.5600 0.7992
H6_4 H 0.7692 0.5139 0.7628
C9_4 C 0.6872(3) 0.5413(3) 0.7328(3)
C10_4 C 0.7101(3) 0.5958(3) 0.7015(3)
H7_4 H 0.7180 0.6322 0.7227
H8_4 H 0.6823 0.6067 0.6725
C11_4 C 0.7875(3) 0.6103(3) 0.6550(3)
C12_4 C 0.8393(3) 0.5856(3) 0.6462(3)
H9_4 H 0.8516 0.5480 0.6611
C13_4 C 0.8727(3) 0.6166(3) 0.6153(3)
H10_4 H 0.9074 0.5999 0.6098
C14_4 C 0.8553(2) 0.6706(2) 0.5933(3)
C15_4 C 0.8055(3) 0.6965(3) 0.6046(3)
H11_4 H 0.7945 0.7352 0.5911
C16_4 C 0.7711(3) 0.6666(3) 0.6355(3)
H12_4 H 0.7376 0.6849 0.6427
C17_4 C 0.8902(2) 0.7010(3) 0.5562(2)
C18_4 C 0.6306(3) 0.5608(3) 0.7568(3)
H13_4 H 0.6186 0.5272 0.7773
H14_4 H 0.6000 0.5703 0.7299
C19_4 C 0.6008(3) 0.6322(4) 0.8142(3)
C20_4 C 0.6136(3) 0.6814(4) 0.8426(3)
H15_4 H 0.6485 0.7007 0.8420
C21_4 C 0.5765(3) 0.7048(3) 0.8730(3)
H16_4 H 0.5871 0.7387 0.8939
C22_4 C 0.5231(3) 0.6785(3) 0.8730(2)
C23_4 C 0.5102(3) 0.6284(3) 0.8440(2)
H17_4 H 0.4749 0.6096 0.8440
C24_4 C 0.5490(3) 0.6031(3) 0.8130(2)
H18_4 H 0.5397 0.5683 0.7927
C25_4 C 0.4849(3) 0.7029(3) 0.9079(3)
C26_4 C 0.6722(3) 0.4849(3) 0.6974(3)
H19_4 H 0.6594 0.4507 0.7169
H20_4 H 0.7057 0.4714 0.6831
C27_4 C 0.6038(3) 0.4536(3) 0.6306(3)
C28_4 C 0.6230(3) 0.3945(3) 0.6313(3)
H21_4 H 0.6570 0.3833 0.6508
C29_4 C 0.5904(3) 0.3509(3) 0.6018(3)
H22_4 H 0.6030 0.3100 0.6019
C30_4 C 0.5403(3) 0.3661(3) 0.5725(2)
C31_4 C 0.5240(3) 0.4260(3) 0.5720(3)
H23_4 H 0.4903 0.4373 0.5520
C32_4 C 0.5553(3) 0.4712(3) 0.5999(3)
H24_4 H 0.5438 0.5125 0.5981
C33_4 C 0.5040(3) 0.3192(3) 0.5425(3)
C34_4 C 0.7918(2) 0.1454(3) 0.9982(3)
C35_4 C 0.7501(3) 0.1023(3) 0.9992(3)
C36_4 C 0.7522(2) 0.0481(3) 0.9728(2)
C37_4 C 0.7979(3) 0.0397(3) 0.9451(3)
H27_4 H 0.8004 0.0038 0.9260
C38_4 C 0.8396(3) 0.0853(3) 0.9464(2)
H28_4 H 0.8703 0.0791 0.9287
C40_4 C 0.6657(3) 0.0034(3) 0.9956(3)
N2_4 N 0.83611(18) 0.13706(19) 0.97222(17)
O1_4 O 0.91876(18) 0.3446(2) 0.94312(18)
O2_4 O 0.85691(17) 0.2682(2) 0.92819(17)
O3_4 O 0.7158(2) 0.4748(2) 0.8028(2)
O4_4 O 0.7590(2) 0.5738(2) 0.6853(2)
O7_4 O 0.6441(2) 0.6114(2) 0.7860(2)
O10_4 O 0.6304(2) 0.5008(2) 0.65902(19)
C39_4 C 0.7102(3) 0.9998(3) 0.9731(3)
H29_4 H 0.7157 0.9633 0.9557
C41_4 C 0.6204(4) 0.9562(4) 0.9954(4)
C42_4 C 0.6314(4) 0.8966(4) 0.9791(4)
H31_4 H 0.6659 0.8878 0.9677
C43_4 C 0.5909(3) 0.8502(4) 0.9799(3)
H32_4 H 0.5982 0.8103 0.9690
H23_5 H 0.0097 0.0627 0.4480
O12_3 O 0.04245(18) 0.16207(19) 0.48044(18)
Zn4_2 Zn 0.02092(2) 0.70098(3) 0.00669(3)
Zn6_2 Zn 0.02092(2) 0.29902(3) 0.50669(3)
Zn9_2 Zn 0.10376(2) 0.20259(3) 0.52789(3)
H17_5 H 0.0251 0.8904 0.1560
C25_5 C 0.0151(3) 0.7971(3) 0.0921(3)
O8_3 O 0.06110(17) 0.8251(2) 0.08727(17)
Zn7_2 Zn 0.10376(2) 0.79741(3) 0.02789(3)
C1_5 C 0.6273(3) 0.1769(3) 0.0775(3)
C2_5 C 0.6673(3) 0.1364(3) 0.1106(2)
C3_5 C 0.6524(3) 0.0758(3) 0.1198(3)
H1_5 H 0.6168 0.0609 0.1062
C4_5 C 0.6897(3) 0.0379(3) 0.1487(3)
C5_5 C 0.7433(3) 0.0591(3) 0.1679(3)
C6_5 C 0.7581(3) 0.1176(3) 0.1572(3)
H3_5 H 0.7941 0.1321 0.1698
C7_5 C 0.7207(3) 0.1561(3) 0.1282(3)
H4_5 H 0.7320 0.1959 0.1204
C26_5 C 0.8278(3) 0.0151(3) 0.3026(3)
H19_5 H 0.8406 0.0493 0.2831
H20_5 H 0.7943 0.0286 0.3169
C27_5 C 0.8962(3) 0.0464(3) 0.3694(3)
C28_5 C 0.8770(3) 0.1055(3) 0.3687(3)
H21_5 H 0.8430 0.1167 0.3492
C29_5 C 0.9096(3) 0.1491(3) 0.3982(3)
H22_5 H 0.8970 0.1900 0.3981
C30_5 C 0.9597(3) 0.1339(3) 0.4275(2)
C31_5 C 0.9760(3) 0.0740(3) 0.4280(3)
C32_5 C 0.9447(3) 0.0288(3) 0.4001(3)
C33_5 C 0.9960(3) 0.1808(3) 0.4575(3)
C34_5 C 0.7082(2) 0.3546(3) 0.0018(3)
C35_5 C 0.7499(3) 0.3977(3) 0.0008(3)
C36_5 C 0.7478(2) 0.4519(3) 0.0272(2)
C37_5 C 0.7021(3) 0.4603(3) 0.0549(3)
H27_5 H 0.6996 0.4962 0.0740
C38_5 C 0.6604(3) 0.4147(3) 0.0536(2)
H28_5 H 0.6297 0.4209 0.0713
C39_5 C 0.7898(3) 0.5002(3) 0.0269(3)
H29_5 H 0.7843 0.5367 0.0443
C40_5 C 0.8343(3) 0.4966(3) 0.0044(3)
C41_5 C 0.8796(4) 0.5438(4) 0.0046(4)
C42_5 C 0.8686(4) 0.6034(4) 0.0209(4)
H31_5 H 0.8341 0.6122 0.0323
C43_5 C 0.9091(3) 0.6498(4) 0.0201(3)
H32_5 H 0.9018 0.6897 0.0310
N1_3 N 0.96068(17) 0.6366(2) 0.00309(19)
N2_5 N 0.66389(18) 0.36294(19) 0.02778(17)
O1_5 O 0.58124(18) 0.1554(2) 0.05688(18)
O2_5 O 0.64309(17) 0.2318(2) 0.07181(17)
O3_5 O 0.7842(2) 0.0252(2) 0.1972(2)
O11_3 O 0.97744(18) 0.2348(2) 0.46087(17)
Zn1_2 Zn 0.52092(2) 0.20098(3) 0.00669(3)
Zn2_2 Zn 0.60376(2) 0.29741(3) 0.02789(3)
N3_3 N 0.46068(17) 0.1366(2) 0.00309(19)
O15_3 O 0.56110(17) 0.3251(2) 0.08727(17)
O16_3 O 0.49979(18) 0.2484(2) 0.06803(18)
H25_5 H 0.7105 0.3178 0.9838
H26_5 H 0.7797 0.3903 0.9821
H30_5 H 0.8386 0.4604 0.9861
C44_4 C 0.9717(3) 0.5771(4) 0.9868(3)
C45_4 C 0.93116(17) 0.5306(2) 0.98754(19)
H34_5 H 0.9385 0.4908 0.9767
O13_3 O 0.56438(16) 0.17552(19) 0.95019(17)
O14_3 O 0.62850(17) 0.24906(19) 0.96537(16)
O17_3 O 0.47744(18) 0.2652(2) 0.96087(17)
O18_3 O 0.54245(18) 0.33793(19) 0.98044(18)
H2_5 H 0.6791 0.9975 0.1555
C8_5 C 0.7654(3) 0.9752(3) 0.2235(3)
H5_5 H 0.7575 0.9400 0.2008
H6_5 H 0.7308 0.9861 0.2372
C9_5 C 0.8128(3) 0.9587(3) 0.2672(3)
C10_5 C 0.7899(3) 0.9042(3) 0.2985(3)
H7_5 H 0.7820 0.8678 0.2773
H8_5 H 0.8177 0.8933 0.3275
C11_5 C 0.7125(3) 0.8897(3) 0.3450(3)
C12_5 C 0.6607(3) 0.9144(3) 0.3538(3)
H9_5 H 0.6484 0.9520 0.3389
C13_5 C 0.6273(3) 0.8834(3) 0.3847(3)
H10_5 H 0.5926 0.9001 0.3902
C14_5 C 0.6447(2) 0.8294(2) 0.4067(3)
C15_5 C 0.6945(3) 0.8035(3) 0.3954(3)
H11_5 H 0.7055 0.7648 0.4089
C16_5 C 0.7289(3) 0.8334(3) 0.3645(3)
H12_5 H 0.7624 0.8151 0.3573
C17_5 C 0.6098(2) 0.7990(3) 0.4438(2)
C18_5 C 0.8694(3) 0.9392(3) 0.2432(3)
H13_5 H 0.8814 0.9728 0.2227
H14_5 H 0.9000 0.9297 0.2701
C19_5 C 0.8992(3) 0.8678(4) 0.1858(3)
C20_5 C 0.8864(3) 0.8186(4) 0.1574(3)
H15_5 H 0.8515 0.7993 0.1580
C21_5 C 0.9235(3) 0.7952(3) 0.1270(3)
H16_5 H 0.9129 0.7613 0.1061
C22_5 C 0.9769(3) 0.8215(3) 0.1270(2)
C23_5 C 0.9898(3) 0.8716(3) 0.1560(2)
C24_5 C 0.9510(3) 0.8969(3) 0.1870(2)
H18_5 H 0.9603 0.9317 0.2073
H24_5 H 0.9562 0.9875 0.4019
O4_5 O 0.7410(2) 0.9262(2) 0.3147(2)
O5_3 O 0.56438(16) 0.82448(19) 0.45019(17)
O6_3 O 0.62850(17) 0.75094(19) 0.46537(16)
O7_5 O 0.8559(2) 0.8886(2) 0.2140(2)
O9_3 O 0.99979(18) 0.7484(2) 0.06803(18)
O10_5 O 0.8696(2) 0.9992(2) 0.34098(19)
Zn5_2 Zn 0.52092(2) 0.79902(3) 0.50669(3)
Zn8_2 Zn 0.60376(2) 0.70259(3) 0.52789(3)
C39_6 C 0.2898(3) 0.0002(3) 0.0269(3)
H29_6 H 0.2843 0.0367 0.0443
C41_6 C 0.3796(4) 0.0438(4) 0.0046(4)
C42_6 C 0.3686(4) 0.1034(4) 0.0209(4)
H31_6 H 0.3341 0.1122 0.0323
C43_6 C 0.4091(3) 0.1498(4) 0.0201(3)
H32_6 H 0.4018 0.1897 0.0310
C1_6 C 0.1273(3) 0.6769(3) 0.0775(3)
C2_6 C 0.1673(3) 0.6364(3) 0.1106(2)
C3_6 C 0.1524(3) 0.5758(3) 0.1198(3)
H1_6 H 0.1168 0.5609 0.1062
C4_6 C 0.1897(3) 0.5379(3) 0.1487(3)
H2_6 H 0.1791 0.4975 0.1555
C5_6 C 0.2433(3) 0.5591(3) 0.1679(3)
C6_6 C 0.2581(3) 0.6176(3) 0.1572(3)
H3_6 H 0.2941 0.6321 0.1698
C7_6 C 0.2207(3) 0.6561(3) 0.1282(3)
H4_6 H 0.2320 0.6959 0.1204
C8_6 C 0.2654(3) 0.4752(3) 0.2235(3)
H5_6 H 0.2575 0.4400 0.2008
H6_6 H 0.2308 0.4861 0.2372
C9_6 C 0.3128(3) 0.4587(3) 0.2672(3)
C10_6 C 0.2899(3) 0.4042(3) 0.2985(3)
H7_6 H 0.2820 0.3678 0.2773
H8_6 H 0.3177 0.3933 0.3275
C11_6 C 0.2125(3) 0.3897(3) 0.3450(3)
C12_6 C 0.1607(3) 0.4144(3) 0.3538(3)
H9_6 H 0.1484 0.4520 0.3389
C13_6 C 0.1273(3) 0.3834(3) 0.3847(3)
H10_6 H 0.0926 0.4001 0.3902
C14_6 C 0.1447(2) 0.3294(2) 0.4067(3)
C15_6 C 0.1945(3) 0.3035(3) 0.3954(3)
H11_6 H 0.2055 0.2648 0.4089
C16_6 C 0.2289(3) 0.3334(3) 0.3645(3)
H12_6 H 0.2624 0.3151 0.3573
C17_6 C 0.1098(2) 0.2990(3) 0.4438(2)
C18_6 C 0.3694(3) 0.4392(3) 0.2432(3)
H13_6 H 0.3814 0.4728 0.2227
H14_6 H 0.4000 0.4297 0.2701
C19_6 C 0.3992(3) 0.3678(4) 0.1858(3)
C20_6 C 0.3864(3) 0.3186(4) 0.1574(3)
H15_6 H 0.3515 0.2993 0.1580
C21_6 C 0.4235(3) 0.2952(3) 0.1270(3)
H16_6 H 0.4129 0.2613 0.1061
C22_6 C 0.4769(3) 0.3215(3) 0.1270(2)
C23_6 C 0.4898(3) 0.3716(3) 0.1560(2)
H17_6 H 0.5251 0.3904 0.1560
C24_6 C 0.4510(3) 0.3969(3) 0.1870(2)
H18_6 H 0.4603 0.4317 0.2073
C25_6 C 0.5151(3) 0.2971(3) 0.0921(3)
C26_6 C 0.3278(3) 0.5151(3) 0.3026(3)
H19_6 H 0.3406 0.5493 0.2831
H20_6 H 0.2943 0.5286 0.3169
C27_6 C 0.3962(3) 0.5464(3) 0.3694(3)
C28_6 C 0.3770(3) 0.6055(3) 0.3687(3)
H21_6 H 0.3430 0.6167 0.3492
C29_6 C 0.4096(3) 0.6491(3) 0.3982(3)
H22_6 H 0.3970 0.6900 0.3981
C30_6 C 0.4597(3) 0.6339(3) 0.4275(2)
C31_6 C 0.4760(3) 0.5740(3) 0.4280(3)
H23_6 H 0.5097 0.5627 0.4480
C32_6 C 0.4447(3) 0.5288(3) 0.4001(3)
H24_6 H 0.4562 0.4875 0.4019
C33_6 C 0.4960(3) 0.6808(3) 0.4575(3)
C34_6 C 0.2082(2) 0.8546(3) 0.0018(3)
C35_6 C 0.2499(3) 0.8977(3) 0.0008(3)
C36_6 C 0.2478(2) 0.9519(3) 0.0272(2)
C37_6 C 0.2021(3) 0.9603(3) 0.0549(3)
H27_6 H 0.1996 0.9962 0.0740
C38_6 C 0.1604(3) 0.9147(3) 0.0536(2)
H28_6 H 0.1297 0.9209 0.0713
C40_6 C 0.3343(3) 0.9966(3) 0.0044(3)
N2_6 N 0.16389(18) 0.86294(19) 0.02778(17)
O1_6 O 0.08124(18) 0.6554(2) 0.05688(18)
O2_6 O 0.14309(17) 0.7318(2) 0.07181(17)
O3_6 O 0.2842(2) 0.5252(2) 0.1972(2)
O4_6 O 0.2410(2) 0.4262(2) 0.3147(2)
O5_4 O 0.06438(16) 0.32448(19) 0.45019(17)
O6_4 O 0.12850(17) 0.25094(19) 0.46537(16)
O7_6 O 0.3559(2) 0.3886(2) 0.2140(2)
O10_6 O 0.3696(2) 0.4992(2) 0.34098(19)
O11_4 O 0.47744(18) 0.7348(2) 0.46087(17)
O12_4 O 0.54245(18) 0.66207(19) 0.48044(18)
H25_6 H 0.2105 0.8178 0.9838
H26_6 H 0.2797 0.8903 0.9821
H30_6 H 0.3386 0.9604 0.9861
H34_6 H 0.4385 0.9908 0.9767
O13_4 O 0.06438(16) 0.67552(19) 0.95019(17)
O14_4 O 0.12850(17) 0.74906(19) 0.96537(16)
O18_4 O 0.04245(18) 0.83793(19) 0.98044(18)
O17_4 O 0.97744(18) 0.7652(2) 0.96087(17)
H17_7 H 0.0251 0.1096 0.6560
C25_7 C 0.0151(3) 0.2029(3) 0.5921(3)
O8_4 O 0.06110(17) 0.1749(2) 0.58727(17)
H23_7 H 0.0097 0.9373 0.9480
H33_3 H 0.0062 0.4318 0.4754
H2_7 H 0.6791 0.0025 0.6555
C8_7 C 0.7654(3) 0.0248(3) 0.7235(3)
H5_7 H 0.7575 0.0600 0.7008
H6_7 H 0.7308 0.0139 0.7372
C9_7 C 0.8128(3) 0.0413(3) 0.7672(3)
C10_7 C 0.7899(3) 0.0958(3) 0.7985(3)
H7_7 H 0.7820 0.1322 0.7773
H8_7 H 0.8177 0.1067 0.8275
C11_7 C 0.7125(3) 0.1103(3) 0.8450(3)
C12_7 C 0.6607(3) 0.0856(3) 0.8538(3)
H9_7 H 0.6484 0.0480 0.8389
C13_7 C 0.6273(3) 0.1166(3) 0.8847(3)
H10_7 H 0.5926 0.0999 0.8902
C14_7 C 0.6447(2) 0.1706(2) 0.9067(3)
C15_7 C 0.6945(3) 0.1965(3) 0.8954(3)
H11_7 H 0.7055 0.2352 0.9089
C16_7 C 0.7289(3) 0.1666(3) 0.8645(3)
H12_7 H 0.7624 0.1849 0.8573
C17_7 C 0.6098(2) 0.2010(3) 0.9438(2)
C18_7 C 0.8694(3) 0.0608(3) 0.7432(3)
H13_7 H 0.8814 0.0272 0.7227
H14_7 H 0.9000 0.0703 0.7701
C19_7 C 0.8992(3) 0.1322(4) 0.6858(3)
C20_7 C 0.8864(3) 0.1814(4) 0.6574(3)
H15_7 H 0.8515 0.2007 0.6580
C21_7 C 0.9235(3) 0.2048(3) 0.6270(3)
H16_7 H 0.9129 0.2387 0.6061
C22_7 C 0.9769(3) 0.1785(3) 0.6270(2)
C23_7 C 0.9898(3) 0.1284(3) 0.6560(2)
C24_7 C 0.9510(3) 0.1031(3) 0.6870(2)
H18_7 H 0.9603 0.0683 0.7073
H24_7 H 0.9562 0.0125 0.9019
O4_7 O 0.7410(2) 0.0738(2) 0.8147(2)
O7_7 O 0.8559(2) 0.1114(2) 0.7140(2)
O9_4 O 0.99979(18) 0.2516(2) 0.56803(18)
O10_7 O 0.8696(2) 0.0008(2) 0.84098(19)
C1_7 C 0.6273(3) 0.8231(3) 0.5775(3)
C2_7 C 0.6673(3) 0.8636(3) 0.6106(2)
C3_7 C 0.6524(3) 0.9242(3) 0.6198(3)
H1_7 H 0.6168 0.9391 0.6062
C4_7 C 0.6897(3) 0.9621(3) 0.6487(3)
C5_7 C 0.7433(3) 0.9409(3) 0.6679(3)
C6_7 C 0.7581(3) 0.8824(3) 0.6572(3)
H3_7 H 0.7941 0.8679 0.6698
C7_7 C 0.7207(3) 0.8439(3) 0.6282(3)
H4_7 H 0.7320 0.8041 0.6204
C26_7 C 0.8278(3) 0.9849(3) 0.8026(3)
H19_7 H 0.8406 0.9507 0.7831
H20_7 H 0.7943 0.9714 0.8169
C27_7 C 0.8962(3) 0.9536(3) 0.8694(3)
C28_7 C 0.8770(3) 0.8945(3) 0.8687(3)
H21_7 H 0.8430 0.8833 0.8492
C29_7 C 0.9096(3) 0.8509(3) 0.8982(3)
H22_7 H 0.8970 0.8100 0.8981
C30_7 C 0.9597(3) 0.8661(3) 0.9275(2)
C31_7 C 0.9760(3) 0.9260(3) 0.9280(3)
C32_7 C 0.9447(3) 0.9712(3) 0.9001(3)
C33_7 C 0.9960(3) 0.8192(3) 0.9575(3)
C34_7 C 0.7082(2) 0.6454(3) 0.5018(3)
H25_7 H 0.7105 0.6822 0.4838
C35_7 C 0.7499(3) 0.6023(3) 0.5008(3)
H26_7 H 0.7797 0.6097 0.4821
C36_7 C 0.7478(2) 0.5481(3) 0.5272(2)
C37_7 C 0.7021(3) 0.5397(3) 0.5549(3)
H27_7 H 0.6996 0.5038 0.5740
C38_7 C 0.6604(3) 0.5853(3) 0.5536(2)
H28_7 H 0.6297 0.5791 0.5713
C39_7 C 0.7898(3) 0.4998(3) 0.5269(3)
H29_7 H 0.7843 0.4633 0.5443
C40_7 C 0.8343(3) 0.5034(3) 0.5044(3)
H30_7 H 0.8386 0.5396 0.4861
C41_7 C 0.8796(4) 0.4562(4) 0.5046(4)
C42_7 C 0.8686(4) 0.3966(4) 0.5209(4)
H31_7 H 0.8341 0.3878 0.5323
C43_7 C 0.9091(3) 0.3502(4) 0.5201(3)
H32_7 H 0.9018 0.3103 0.5310
C44_5 C 0.9717(3) 0.4229(4) 0.4868(3)
C45_5 C 0.93116(17) 0.4694(2) 0.48754(19)
H34_7 H 0.9385 0.5092 0.4767
N1_4 N 0.96068(17) 0.3634(2) 0.50309(19)
N2_7 N 0.66389(18) 0.63706(19) 0.52778(17)
O1_7 O 0.58124(18) 0.8446(2) 0.55688(18)
O2_7 O 0.64309(17) 0.7682(2) 0.57181(17)
O3_7 O 0.7842(2) 0.9748(2) 0.6972(2)
N3_4 N 0.46068(17) 0.8634(2) 0.50309(19)
O15_4 O 0.56110(17) 0.6749(2) 0.58727(17)
O16_4 O 0.49979(18) 0.7516(2) 0.56803(18)
C1_8 C 0.1273(3) 0.3231(3) 0.5775(3)
C2_8 C 0.1673(3) 0.3636(3) 0.6106(2)
C3_8 C 0.1524(3) 0.4242(3) 0.6198(3)
H1_8 H 0.1168 0.4391 0.6062
C4_8 C 0.1897(3) 0.4621(3) 0.6487(3)
H2_8 H 0.1791 0.5025 0.6555
C5_8 C 0.2433(3) 0.4409(3) 0.6679(3)
C6_8 C 0.2581(3) 0.3824(3) 0.6572(3)
H3_8 H 0.2941 0.3679 0.6698
C7_8 C 0.2207(3) 0.3439(3) 0.6282(3)
H4_8 H 0.2320 0.3041 0.6204
C8_8 C 0.2654(3) 0.5248(3) 0.7235(3)
H5_8 H 0.2575 0.5600 0.7008
H6_8 H 0.2308 0.5139 0.7372
C9_8 C 0.3128(3) 0.5413(3) 0.7672(3)
C10_8 C 0.2899(3) 0.5958(3) 0.7985(3)
H7_8 H 0.2820 0.6322 0.7773
H8_8 H 0.3177 0.6067 0.8275
C11_8 C 0.2125(3) 0.6103(3) 0.8450(3)
C12_8 C 0.1607(3) 0.5856(3) 0.8538(3)
H9_8 H 0.1484 0.5480 0.8389
C13_8 C 0.1273(3) 0.6166(3) 0.8847(3)
H10_8 H 0.0926 0.5999 0.8902
C14_8 C 0.1447(2) 0.6706(2) 0.9067(3)
C15_8 C 0.1945(3) 0.6965(3) 0.8954(3)
H11_8 H 0.2055 0.7352 0.9089
C16_8 C 0.2289(3) 0.6666(3) 0.8645(3)
H12_8 H 0.2624 0.6849 0.8573
C17_8 C 0.1098(2) 0.7010(3) 0.9438(2)
C18_8 C 0.3694(3) 0.5608(3) 0.7432(3)
H13_8 H 0.3814 0.5272 0.7227
H14_8 H 0.4000 0.5703 0.7701
C19_8 C 0.3992(3) 0.6322(4) 0.6858(3)
C20_8 C 0.3864(3) 0.6814(4) 0.6574(3)
H15_8 H 0.3515 0.7007 0.6580
C21_8 C 0.4235(3) 0.7048(3) 0.6270(3)
H16_8 H 0.4129 0.7387 0.6061
C22_8 C 0.4769(3) 0.6785(3) 0.6270(2)
C23_8 C 0.4898(3) 0.6284(3) 0.6560(2)
H17_8 H 0.5251 0.6096 0.6560
C24_8 C 0.4510(3) 0.6031(3) 0.6870(2)
H18_8 H 0.4603 0.5683 0.7073
C25_8 C 0.5151(3) 0.7029(3) 0.5921(3)
C26_8 C 0.3278(3) 0.4849(3) 0.8026(3)
H19_8 H 0.3406 0.4507 0.7831
H20_8 H 0.2943 0.4714 0.8169
C27_8 C 0.3962(3) 0.4536(3) 0.8694(3)
C28_8 C 0.3770(3) 0.3945(3) 0.8687(3)
H21_8 H 0.3430 0.3833 0.8492
C29_8 C 0.4096(3) 0.3509(3) 0.8982(3)
H22_8 H 0.3970 0.3100 0.8981
C30_8 C 0.4597(3) 0.3661(3) 0.9275(2)
C31_8 C 0.4760(3) 0.4260(3) 0.9280(3)
H23_8 H 0.5097 0.4373 0.9480
C32_8 C 0.4447(3) 0.4712(3) 0.9001(3)
H24_8 H 0.4562 0.5125 0.9019
C33_8 C 0.4960(3) 0.3192(3) 0.9575(3)
C34_8 C 0.2082(2) 0.1454(3) 0.5018(3)
H25_8 H 0.2105 0.1822 0.4838
C35_8 C 0.2499(3) 0.1023(3) 0.5008(3)
H26_8 H 0.2797 0.1097 0.4821
C36_8 C 0.2478(2) 0.0481(3) 0.5272(2)
C37_8 C 0.2021(3) 0.0397(3) 0.5549(3)
H27_8 H 0.1996 0.0038 0.5740
C38_8 C 0.1604(3) 0.0853(3) 0.5536(2)
H28_8 H 0.1297 0.0791 0.5713
C40_8 C 0.3343(3) 0.0034(3) 0.5044(3)
H30_8 H 0.3386 0.0396 0.4861
H34_8 H 0.4385 0.0092 0.4767
N2_8 N 0.16389(18) 0.13706(19) 0.52778(17)
O1_8 O 0.08124(18) 0.3446(2) 0.55688(18)
O2_8 O 0.14309(17) 0.2682(2) 0.57181(17)
O3_8 O 0.2842(2) 0.4748(2) 0.6972(2)
O4_8 O 0.2410(2) 0.5738(2) 0.8147(2)
O7_8 O 0.3559(2) 0.6114(2) 0.7140(2)
O10_8 O 0.3696(2) 0.5008(2) 0.84098(19)
C39_8 C 0.2898(3) 0.9998(3) 0.5269(3)
H29_8 H 0.2843 0.9633 0.5443
C41_8 C 0.3796(4) 0.9562(4) 0.5046(4)
C42_8 C 0.3686(4) 0.8966(4) 0.5209(4)
H31_8 H 0.3341 0.8878 0.5323
C43_8 C 0.4091(3) 0.8502(4) 0.5201(3)
H32_8 H 0.4018 0.8103 0.5310
C44_6 C 0.4717(3) 0.9229(4) 0.4868(3)
H33_4 H 0.5062 0.9318 0.4754
C45_6 C 0.43116(17) 0.9694(2) 0.48754(19)
H33_5 H 0.0062 0.5682 0.9754
C44_7 C 0.4717(3) 0.0771(4) 0.9868(3)
H33_6 H 0.5062 0.0682 0.9754
C45_7 C 0.43116(17) 0.0306(2) 0.98754(19)
H33_7 H 0.9938 0.4318 0.0246
C44_8 C 0.5283(3) 0.9229(4) 0.0132(3)
H33_8 H 0.4938 0.9318 0.0246
C45_8 C 0.56884(17) 0.9694(2) 0.01246(19)
loop_
_geom_bond_atom_site_label_1
_geom_bond_atom_site_label_2
_geom_bond_site_symmetry_1
_geom_bond_site_symmetry_2
C1 C2 1_555 1_555
C2 C3 1_555 1_555
C3 H1 1_555 1_555
C4 C3 1_555 1_555
C5 C4 1_555 1_555
C6 C5 1_555 1_555
H3 C6 1_555 1_555
C7 C2 1_555 1_555
H4 C7 1_555 1_555
H19 C26 1_555 1_555
H20 C26 1_555 1_555
C27 C28 1_555 1_555
C28 H21 1_555 1_555
C29 C28 1_555 1_555
H22 C29 1_555 1_555
C30 C29 1_555 1_555
C31 C30 1_555 1_555
C32 C27 1_555 1_555
C33 C30 1_555 1_555
C34 H25 1_555 1_555
C35 C34 1_555 1_555
H26 C35 1_555 1_555
C36 C35 1_555 1_555
C37 C36 1_555 1_555
H27 C37 1_555 1_555
C38 C37 1_555 1_555
H28 C38 1_555 1_555
C39 C36 1_555 1_555
H29 C39 1_555 1_555
C40 C39 1_555 1_555
H30 C40 1_555 1_555
C41 C40 1_555 1_555
C42 C41 1_555 1_555
H31 C42 1_555 1_555
C43 C42 1_555 1_555
H32 C43 1_555 1_555
C45 C41 1_555 1_555
H34 C45 1_555 1_555
N1 C43 1_555 1_555
N2 C34 1_555 1_555
O1 C1 1_555 1_555
O2 C1 1_555 1_555
O3 C5 1_555 1_555
O11 C33 1_555 1_555
Zn1 O1 1_555 1_555
Zn2 N2 1_555 1_555
N3 Zn1 1_555 1_555
O13 Zn1 1_555 1_555
O14 Zn2 1_555 1_555
O15 Zn2 1_555 1_555
O16 Zn1 1_555 1_555
O17 Zn1 1_555 1_555
O18 Zn2 1_555 1_555
C6 C7 1_555 1_555
C31 C32 1_555 1_555
C38 N2 1_555 1_555
C44 C45 1_555 1_555
C44 N1 1_555 1_555
O2 Zn2 1_555 1_555
C8 H5 1_555 1_555
H6 C8 1_555 1_555
C9 C8 1_555 1_555
C10 C9 1_555 1_555
H7 C10 1_555 1_555
H8 C10 1_555 1_555
C11 C12 1_555 1_555
C12 H9 1_555 1_555
C13 C12 1_555 1_555
H10 C13 1_555 1_555
C14 C13 1_555 1_555
C15 C14 1_555 1_555
H11 C15 1_555 1_555
C16 C11 1_555 1_555
H12 C16 1_555 1_555
C17 C14 1_555 1_555
C18 C9 1_555 1_555
H13 C18 1_555 1_555
H14 C18 1_555 1_555
C19 C20 1_555 1_555
C20 H15 1_555 1_555
C21 C20 1_555 1_555
H16 C21 1_555 1_555
C22 C21 1_555 1_555
C23 C22 1_555 1_555
C24 C19 1_555 1_555
H18 C24 1_555 1_555
O4 C10 1_555 1_555
O5 C17 1_555 1_555
O6 C17 1_555 1_555
O7 C18 1_555 1_555
C11 O4 1_555 1_555
C15 C16 1_555 1_555
C19 O7 1_555 1_555
C23 C24 1_555 1_555
O8 C25 1_555 1_555
Zn7 O8 1_555 1_555
H29_2 C39_2 1_555 1_555
C42_2 C41_2 1_555 1_555
H31_2 C42_2 1_555 1_555
C43_2 C42_2 1_555 1_555
H32_2 C43_2 1_555 1_555
C44_2 H33_2 1_555 1_555
C45_2 C41_2 1_555 1_555
N3 C43_2 1_555 1_555
C44_2 C45_2 1_555 1_555
C44_2 N3 1_555 1_555
C1_2 C2_2 1_555 1_555
C2_2 C3_2 1_555 1_555
C3_2 H1_2 1_555 1_555
C4_2 C3_2 1_555 1_555
H2_2 C4_2 1_555 1_555
C5_2 C4_2 1_555 1_555
C6_2 C5_2 1_555 1_555
H3_2 C6_2 1_555 1_555
C7_2 C2_2 1_555 1_555
H4_2 C7_2 1_555 1_555
C8_2 H5_2 1_555 1_555
H6_2 C8_2 1_555 1_555
C9_2 C8_2 1_555 1_555
C10_2 C9_2 1_555 1_555
H7_2 C10_2 1_555 1_555
H8_2 C10_2 1_555 1_555
C11_2 C12_2 1_555 1_555
C12_2 H9_2 1_555 1_555
C13_2 C12_2 1_555 1_555
H10_2 C13_2 1_555 1_555
C14_2 C13_2 1_555 1_555
C15_2 C14_2 1_555 1_555
H11_2 C15_2 1_555 1_555
C16_2 C11_2 1_555 1_555
H12_2 C16_2 1_555 1_555
C17_2 C14_2 1_555 1_555
C18_2 C9_2 1_555 1_555
H13_2 C18_2 1_555 1_555
H14_2 C18_2 1_555 1_555
C19_2 C20_2 1_555 1_555
C20_2 H15_2 1_555 1_555
C21_2 C20_2 1_555 1_555
H16_2 C21_2 1_555 1_555
C22_2 C21_2 1_555 1_555
C23_2 C22_2 1_555 1_555
H17_2 C23_2 1_555 1_555
C24_2 C19_2 1_555 1_555
H18_2 C24_2 1_555 1_555
C25_2 C22_2 1_555 1_555
C26_2 C9_2 1_555 1_555
H19_2 C26_2 1_555 1_555
H20_2 C26_2 1_555 1_555
C27_2 C28_2 1_555 1_555
C28_2 H21_2 1_555 1_555
C29_2 C28_2 1_555 1_555
H22_2 C29_2 1_555 1_555
C30_2 C29_2 1_555 1_555
C31_2 C30_2 1_555 1_555
H23_2 C31_2 1_555 1_555
C32_2 C27_2 1_555 1_555
H24_2 C32_2 1_555 1_555
C33_2 C30_2 1_555 1_555
C34_2 H25_2 1_555 1_555
C35_2 C34_2 1_555 1_555
H26_2 C35_2 1_555 1_555
C36_2 C35_2 1_555 1_555
C37_2 C36_2 1_555 1_555
H27_2 C37_2 1_555 1_555
C38_2 C37_2 1_555 1_555
H28_2 C38_2 1_555 1_555
H30_2 C40_2 1_555 1_555
N2_2 C34_2 1_555 1_555
O1_2 C1_2 1_555 1_555
O2_2 C1_2 1_555 1_555
O3_2 C5_2 1_555 1_555
O4_2 C10_2 1_555 1_555
O5_2 C17_2 1_555 1_555
O6_2 C17_2 1_555 1_555
O7_2 C18_2 1_555 1_555
O15 C25_2 1_555 1_555
O16 C25_2 1_555 1_555
O10_2 C26_2 1_555 1_555
O11_2 C33_2 1_555 1_555
O12_2 C33_2 1_555 1_555
Zn4 O1_2 1_555 1_555
Zn7 N2_2 1_555 1_555
O13_2 Zn4 1_555 1_555
O14_2 Zn7 1_555 1_555
O18_2 Zn7 1_555 1_555
C6_2 C7_2 1_555 1_555
C8_2 O3_2 1_555 1_555
C11_2 O4_2 1_555 1_555
C15_2 C16_2 1_555 1_555
C19_2 O7_2 1_555 1_555
C23_2 C24_2 1_555 1_555
C27_2 O10_2 1_555 1_555
C31_2 C32_2 1_555 1_555
C38_2 N2_2 1_555 1_555
O2_2 Zn7 1_555 1_555
C8_3 H5_3 1_555 1_555
H6_3 C8_3 1_555 1_555
C9_3 C8_3 1_555 1_555
C10_3 C9_3 1_555 1_555
H7_3 C10_3 1_555 1_555
H8_3 C10_3 1_555 1_555
C11_3 C12_3 1_555 1_555
C12_3 H9_3 1_555 1_555
C13_3 C12_3 1_555 1_555
H10_3 C13_3 1_555 1_555
C14_3 C13_3 1_555 1_555
C15_3 C14_3 1_555 1_555
H11_3 C15_3 1_555 1_555
C16_3 C11_3 1_555 1_555
H12_3 C16_3 1_555 1_555
C17_3 C14_3 1_555 1_555
C18_3 C9_3 1_555 1_555
H13_3 C18_3 1_555 1_555
H14_3 C18_3 1_555 1_555
C19_3 C20_3 1_555 1_555
C20_3 H15_3 1_555 1_555
C21_3 C20_3 1_555 1_555
H16_3 C21_3 1_555 1_555
C22_3 C21_3 1_555 1_555
C23_3 C22_3 1_555 1_555
C24_3 C19_3 1_555 1_555
H18_3 C24_3 1_555 1_555
O4_3 C10_3 1_555 1_555
O13 C17_3 1_555 1_555
O14 C17_3 1_555 1_555
O7_3 C18_3 1_555 1_555
C11_3 O4_3 1_555 1_555
C15_3 C16_3 1_555 1_555
C19_3 O7_3 1_555 1_555
C23_3 C24_3 1_555 1_555
H34_3 C45_3 1_555 1_555
C44_3 C45_3 1_555 1_555
C1_3 C2_3 1_555 1_555
C2_3 C3_3 1_555 1_555
C3_3 H1_3 1_555 1_555
C4_3 C3_3 1_555 1_555
C5_3 C4_3 1_555 1_555
C6_3 C5_3 1_555 1_555
H3_3 C6_3 1_555 1_555
C7_3 C2_3 1_555 1_555
H4_3 C7_3 1_555 1_555
H19_3 C26_3 1_555 1_555
H20_3 C26_3 1_555 1_555
C27_3 C28_3 1_555 1_555
C28_3 H21_3 1_555 1_555
C29_3 C28_3 1_555 1_555
H22_3 C29_3 1_555 1_555
C30_3 C29_3 1_555 1_555
C31_3 C30_3 1_555 1_555
C32_3 C27_3 1_555 1_555
C33_3 C30_3 1_555 1_555
C35_3 C34_3 1_555 1_555
C36_3 C35_3 1_555 1_555
C37_3 C36_3 1_555 1_555
H27_3 C37_3 1_555 1_555
C38_3 C37_3 1_555 1_555
H28_3 C38_3 1_555 1_555
C39_3 C36_3 1_555 1_555
H29_3 C39_3 1_555 1_555
C40_3 C39_3 1_555 1_555
C41_3 C40_3 1_555 1_555
C42_3 C41_3 1_555 1_555
H31_3 C42_3 1_555 1_555
C43_3 C42_3 1_555 1_555
H32_3 C43_3 1_555 1_555
N1_2 C43_3 1_555 1_555
N2_3 C34_3 1_555 1_555
O1_3 C1_3 1_555 1_555
O2_3 C1_3 1_555 1_555
O3_3 C5_3 1_555 1_555
O17_2 C33_3 1_555 1_555
Zn5 O1_3 1_555 1_555
Zn8 N2_3 1_555 1_555
N3_2 Zn5 1_555 1_555
O15_2 Zn8 1_555 1_555
O16_2 Zn5 1_555 1_555
C6_3 C7_3 1_555 1_555
C31_3 C32_3 1_555 1_555
C38_3 N2_3 1_555 1_555
O2_3 Zn8 1_555 1_555
O8_2 C25_3 1_555 1_555
Zn9 O8_2 1_555 1_555
C1_4 C2_4 1_555 1_555
C2_4 C3_4 1_555 1_555
C3_4 H1_4 1_555 1_555
C4_4 C3_4 1_555 1_555
H2_4 C4_4 1_555 1_555
C5_4 C4_4 1_555 1_555
C6_4 C5_4 1_555 1_555
H3_4 C6_4 1_555 1_555
C7_4 C2_4 1_555 1_555
H4_4 C7_4 1_555 1_555
C8_4 H5_4 1_555 1_555
H6_4 C8_4 1_555 1_555
C9_4 C8_4 1_555 1_555
C10_4 C9_4 1_555 1_555
H7_4 C10_4 1_555 1_555
H8_4 C10_4 1_555 1_555
C11_4 C12_4 1_555 1_555
C12_4 H9_4 1_555 1_555
C13_4 C12_4 1_555 1_555
H10_4 C13_4 1_555 1_555
C14_4 C13_4 1_555 1_555
C15_4 C14_4 1_555 1_555
H11_4 C15_4 1_555 1_555
C16_4 C11_4 1_555 1_555
H12_4 C16_4 1_555 1_555
C17_4 C14_4 1_555 1_555
C18_4 C9_4 1_555 1_555
H13_4 C18_4 1_555 1_555
H14_4 C18_4 1_555 1_555
C19_4 C20_4 1_555 1_555
C20_4 H15_4 1_555 1_555
C21_4 C20_4 1_555 1_555
H16_4 C21_4 1_555 1_555
C22_4 C21_4 1_555 1_555
C23_4 C22_4 1_555 1_555
H17_4 C23_4 1_555 1_555
C24_4 C19_4 1_555 1_555
H18_4 C24_4 1_555 1_555
C25_4 C22_4 1_555 1_555
C26_4 C9_4 1_555 1_555
H19_4 C26_4 1_555 1_555
H20_4 C26_4 1_555 1_555
C27_4 C28_4 1_555 1_555
C28_4 H21_4 1_555 1_555
C29_4 C28_4 1_555 1_555
H22_4 C29_4 1_555 1_555
C30_4 C29_4 1_555 1_555
C31_4 C30_4 1_555 1_555
H23_4 C31_4 1_555 1_555
C32_4 C27_4 1_555 1_555
H24_4 C32_4 1_555 1_555
C33_4 C30_4 1_555 1_555
C35_4 C34_4 1_555 1_555
C36_4 C35_4 1_555 1_555
C37_4 C36_4 1_555 1_555
H27_4 C37_4 1_555 1_555
C38_4 C37_4 1_555 1_555
H28_4 C38_4 1_555 1_555
N2_4 C34_4 1_555 1_555
O1_4 C1_4 1_555 1_555
O2_4 C1_4 1_555 1_555
O3_4 C5_4 1_555 1_555
O4_4 C10_4 1_555 1_555
O13_2 C17_4 1_555 1_555
O14_2 C17_4 1_555 1_555
O7_4 C18_4 1_555 1_555
O15_2 C25_4 1_555 1_555
O16_2 C25_4 1_555 1_555
O10_4 C26_4 1_555 1_555
O17 C33_4 1_555 1_555
O18 C33_4 1_555 1_555
Zn6 O1_4 1_555 1_555
Zn9 N2_4 1_555 1_555
C6_4 C7_4 1_555 1_555
C8_4 O3_4 1_555 1_555
C11_4 O4_4 1_555 1_555
C15_4 C16_4 1_555 1_555
C19_4 O7_4 1_555 1_555
C23_4 C24_4 1_555 1_555
C27_4 O10_4 1_555 1_555
C31_4 C32_4 1_555 1_555
C38_4 N2_4 1_555 1_555
O2_4 Zn9 1_555 1_555
H29_4 C39_4 1_555 1_555
C42_4 C41_4 1_555 1_555
H31_4 C42_4 1_555 1_555
C43_4 C42_4 1_555 1_555
H32_4 C43_4 1_555 1_555
N3_2 C43_4 1_555 1_555
Zn9_2 O12_3 1_555 1_555
O8_3 C25_5 1_555 1_555
Zn7_2 O8_3 1_555 1_555
C1_5 C2_5 1_555 1_555
C2_5 C3_5 1_555 1_555
C3_5 H1_5 1_555 1_555
C4_5 C3_5 1_555 1_555
C5_5 C4_5 1_555 1_555
C6_5 C5_5 1_555 1_555
H3_5 C6_5 1_555 1_555
C7_5 C2_5 1_555 1_555
H4_5 C7_5 1_555 1_555
H19_5 C26_5 1_555 1_555
H20_5 C26_5 1_555 1_555
C27_5 C28_5 1_555 1_555
C28_5 H21_5 1_555 1_555
C29_5 C28_5 1_555 1_555
H22_5 C29_5 1_555 1_555
C30_5 C29_5 1_555 1_555
C31_5 C30_5 1_555 1_555
C32_5 C27_5 1_555 1_555
C33_5 C30_5 1_555 1_555
C35_5 C34_5 1_555 1_555
C36_5 C35_5 1_555 1_555
C37_5 C36_5 1_555 1_555
H27_5 C37_5 1_555 1_555
C38_5 C37_5 1_555 1_555
H28_5 C38_5 1_555 1_555
C39_5 C36_5 1_555 1_555
H29_5 C39_5 1_555 1_555
C40_5 C39_5 1_555 1_555
C41_5 C40_5 1_555 1_555
C42_5 C41_5 1_555 1_555
H31_5 C42_5 1_555 1_555
C43_5 C42_5 1_555 1_555
H32_5 C43_5 1_555 1_555
N1_3 C43_5 1_555 1_555
N2_5 C34_5 1_555 1_555
O1_5 C1_5 1_555 1_555
O2_5 C1_5 1_555 1_555
O3_5 C5_5 1_555 1_555
O11_3 C33_5 1_555 1_555
Zn1_2 O1_5 1_555 1_555
Zn2_2 N2_5 1_555 1_555
N3_3 Zn1_2 1_555 1_555
O15_3 Zn2_2 1_555 1_555
O16_3 Zn1_2 1_555 1_555
C6_5 C7_5 1_555 1_555
C31_5 C32_5 1_555 1_555
C38_5 N2_5 1_555 1_555
O2_5 Zn2_2 1_555 1_555
H34_5 C45_4 1_555 1_555
C44_4 C45_4 1_555 1_555
C8_5 H5_5 1_555 1_555
H6_5 C8_5 1_555 1_555
C9_5 C8_5 1_555 1_555
C10_5 C9_5 1_555 1_555
H7_5 C10_5 1_555 1_555
H8_5 C10_5 1_555 1_555
C11_5 C12_5 1_555 1_555
C12_5 H9_5 1_555 1_555
C13_5 C12_5 1_555 1_555
H10_5 C13_5 1_555 1_555
C14_5 C13_5 1_555 1_555
C15_5 C14_5 1_555 1_555
H11_5 C15_5 1_555 1_555
C16_5 C11_5 1_555 1_555
H12_5 C16_5 1_555 1_555
C17_5 C14_5 1_555 1_555
C18_5 C9_5 1_555 1_555
H13_5 C18_5 1_555 1_555
H14_5 C18_5 1_555 1_555
C19_5 C20_5 1_555 1_555
C20_5 H15_5 1_555 1_555
C21_5 C20_5 1_555 1_555
H16_5 C21_5 1_555 1_555
C22_5 C21_5 1_555 1_555
C23_5 C22_5 1_555 1_555
C24_5 C19_5 1_555 1_555
H18_5 C24_5 1_555 1_555
O4_5 C10_5 1_555 1_555
O5_3 C17_5 1_555 1_555
O6_3 C17_5 1_555 1_555
O7_5 C18_5 1_555 1_555
Zn5_2 O5_3 1_555 1_555
Zn8_2 O6_3 1_555 1_555
C11_5 O4_5 1_555 1_555
C15_5 C16_5 1_555 1_555
C19_5 O7_5 1_555 1_555
C23_5 C24_5 1_555 1_555
H29_6 C39_6 1_555 1_555
C42_6 C41_6 1_555 1_555
H31_6 C42_6 1_555 1_555
C43_6 C42_6 1_555 1_555
H32_6 C43_6 1_555 1_555
N3_3 C43_6 1_555 1_555
C1_6 C2_6 1_555 1_555
C2_6 C3_6 1_555 1_555
C3_6 H1_6 1_555 1_555
C4_6 C3_6 1_555 1_555
H2_6 C4_6 1_555 1_555
C5_6 C4_6 1_555 1_555
C6_6 C5_6 1_555 1_555
H3_6 C6_6 1_555 1_555
C7_6 C2_6 1_555 1_555
H4_6 C7_6 1_555 1_555
C8_6 H5_6 1_555 1_555
H6_6 C8_6 1_555 1_555
C9_6 C8_6 1_555 1_555
C10_6 C9_6 1_555 1_555
H7_6 C10_6 1_555 1_555
H8_6 C10_6 1_555 1_555
C11_6 C12_6 1_555 1_555
C12_6 H9_6 1_555 1_555
C13_6 C12_6 1_555 1_555
H10_6 C13_6 1_555 1_555
C14_6 C13_6 1_555 1_555
C15_6 C14_6 1_555 1_555
H11_6 C15_6 1_555 1_555
C16_6 C11_6 1_555 1_555
H12_6 C16_6 1_555 1_555
C17_6 C14_6 1_555 1_555
C18_6 C9_6 1_555 1_555
H13_6 C18_6 1_555 1_555
H14_6 C18_6 1_555 1_555
C19_6 C20_6 1_555 1_555
C20_6 H15_6 1_555 1_555
C21_6 C20_6 1_555 1_555
H16_6 C21_6 1_555 1_555
C22_6 C21_6 1_555 1_555
C23_6 C22_6 1_555 1_555
H17_6 C23_6 1_555 1_555
C24_6 C19_6 1_555 1_555
H18_6 C24_6 1_555 1_555
C25_6 C22_6 1_555 1_555
C26_6 C9_6 1_555 1_555
H19_6 C26_6 1_555 1_555
H20_6 C26_6 1_555 1_555
C27_6 C28_6 1_555 1_555
C28_6 H21_6 1_555 1_555
C29_6 C28_6 1_555 1_555
H22_6 C29_6 1_555 1_555
C30_6 C29_6 1_555 1_555
C31_6 C30_6 1_555 1_555
H23_6 C31_6 1_555 1_555
C32_6 C27_6 1_555 1_555
H24_6 C32_6 1_555 1_555
C33_6 C30_6 1_555 1_555
C35_6 C34_6 1_555 1_555
C36_6 C35_6 1_555 1_555
C37_6 C36_6 1_555 1_555
H27_6 C37_6 1_555 1_555
C38_6 C37_6 1_555 1_555
H28_6 C38_6 1_555 1_555
N2_6 C34_6 1_555 1_555
O1_6 C1_6 1_555 1_555
O2_6 C1_6 1_555 1_555
O3_6 C5_6 1_555 1_555
O4_6 C10_6 1_555 1_555
O5_4 C17_6 1_555 1_555
O6_4 C17_6 1_555 1_555
O7_6 C18_6 1_555 1_555
O15_3 C25_6 1_555 1_555
O16_3 C25_6 1_555 1_555
O10_6 C26_6 1_555 1_555
O11_4 C33_6 1_555 1_555
O12_4 C33_6 1_555 1_555
Zn4_2 O1_6 1_555 1_555
Zn7_2 N2_6 1_555 1_555
Zn6_2 O5_4 1_555 1_555
Zn5_2 O11_4 1_555 1_555
Zn9_2 O6_4 1_555 1_555
Zn8_2 O12_4 1_555 1_555
C6_6 C7_6 1_555 1_555
C8_6 O3_6 1_555 1_555
C11_6 O4_6 1_555 1_555
C15_6 C16_6 1_555 1_555
C19_6 O7_6 1_555 1_555
C23_6 C24_6 1_555 1_555
C27_6 O10_6 1_555 1_555
C31_6 C32_6 1_555 1_555
C38_6 N2_6 1_555 1_555
O2_6 Zn7_2 1_555 1_555
O8_4 C25_7 1_555 1_555
Zn9_2 O8_4 1_555 1_555
C8_7 H5_7 1_555 1_555
H6_7 C8_7 1_555 1_555
C9_7 C8_7 1_555 1_555
C10_7 C9_7 1_555 1_555
H7_7 C10_7 1_555 1_555
H8_7 C10_7 1_555 1_555
C11_7 C12_7 1_555 1_555
C12_7 H9_7 1_555 1_555
C13_7 C12_7 1_555 1_555
H10_7 C13_7 1_555 1_555
C14_7 C13_7 1_555 1_555
C15_7 C14_7 1_555 1_555
H11_7 C15_7 1_555 1_555
C16_7 C11_7 1_555 1_555
H12_7 C16_7 1_555 1_555
C17_7 C14_7 1_555 1_555
C18_7 C9_7 1_555 1_555
H13_7 C18_7 1_555 1_555
H14_7 C18_7 1_555 1_555
C19_7 C20_7 1_555 1_555
C20_7 H15_7 1_555 1_555
C21_7 C20_7 1_555 1_555
H16_7 C21_7 1_555 1_555
C22_7 C21_7 1_555 1_555
C23_7 C22_7 1_555 1_555
C24_7 C19_7 1_555 1_555
H18_7 C24_7 1_555 1_555
O4_7 C10_7 1_555 1_555
O13_3 C17_7 1_555 1_555
O14_3 C17_7 1_555 1_555
O7_7 C18_7 1_555 1_555
C11_7 O4_7 1_555 1_555
C15_7 C16_7 1_555 1_555
C19_7 O7_7 1_555 1_555
C23_7 C24_7 1_555 1_555
C1_7 C2_7 1_555 1_555
C2_7 C3_7 1_555 1_555
C3_7 H1_7 1_555 1_555
C4_7 C3_7 1_555 1_555
C5_7 C4_7 1_555 1_555
C6_7 C5_7 1_555 1_555
H3_7 C6_7 1_555 1_555
C7_7 C2_7 1_555 1_555
H4_7 C7_7 1_555 1_555
H19_7 C26_7 1_555 1_555
H20_7 C26_7 1_555 1_555
C27_7 C28_7 1_555 1_555
C28_7 H21_7 1_555 1_555
C29_7 C28_7 1_555 1_555
H22_7 C29_7 1_555 1_555
C30_7 C29_7 1_555 1_555
C31_7 C30_7 1_555 1_555
C32_7 C27_7 1_555 1_555
C33_7 C30_7 1_555 1_555
C34_7 H25_7 1_555 1_555
C35_7 C34_7 1_555 1_555
H26_7 C35_7 1_555 1_555
C36_7 C35_7 1_555 1_555
C37_7 C36_7 1_555 1_555
H27_7 C37_7 1_555 1_555
C38_7 C37_7 1_555 1_555
H28_7 C38_7 1_555 1_555
C39_7 C36_7 1_555 1_555
H29_7 C39_7 1_555 1_555
C40_7 C39_7 1_555 1_555
H30_7 C40_7 1_555 1_555
C41_7 C40_7 1_555 1_555
C42_7 C41_7 1_555 1_555
H31_7 C42_7 1_555 1_555
C43_7 C42_7 1_555 1_555
H32_7 C43_7 1_555 1_555
C45_5 C41_7 1_555 1_555
H34_7 C45_5 1_555 1_555
N1_4 C43_7 1_555 1_555
N2_7 C34_7 1_555 1_555
O1_7 C1_7 1_555 1_555
O2_7 C1_7 1_555 1_555
O3_7 C5_7 1_555 1_555
O17_4 C33_7 1_555 1_555
Zn5_2 O1_7 1_555 1_555
Zn8_2 N2_7 1_555 1_555
N3_4 Zn5_2 1_555 1_555
O15_4 Zn8_2 1_555 1_555
O16_4 Zn5_2 1_555 1_555
C6_7 C7_7 1_555 1_555
C31_7 C32_7 1_555 1_555
C38_7 N2_7 1_555 1_555
C44_5 C45_5 1_555 1_555
C44_5 N1_4 1_555 1_555
O2_7 Zn8_2 1_555 1_555
C1_8 C2_8 1_555 1_555
C2_8 C3_8 1_555 1_555
C3_8 H1_8 1_555 1_555
C4_8 C3_8 1_555 1_555
H2_8 C4_8 1_555 1_555
C5_8 C4_8 1_555 1_555
C6_8 C5_8 1_555 1_555
H3_8 C6_8 1_555 1_555
C7_8 C2_8 1_555 1_555
H4_8 C7_8 1_555 1_555
C8_8 H5_8 1_555 1_555
H6_8 C8_8 1_555 1_555
C9_8 C8_8 1_555 1_555
C10_8 C9_8 1_555 1_555
H7_8 C10_8 1_555 1_555
H8_8 C10_8 1_555 1_555
C11_8 C12_8 1_555 1_555
C12_8 H9_8 1_555 1_555
C13_8 C12_8 1_555 1_555
H10_8 C13_8 1_555 1_555
C14_8 C13_8 1_555 1_555
C15_8 C14_8 1_555 1_555
H11_8 C15_8 1_555 1_555
C16_8 C11_8 1_555 1_555
H12_8 C16_8 1_555 1_555
C17_8 C14_8 1_555 1_555
C18_8 C9_8 1_555 1_555
H13_8 C18_8 1_555 1_555
H14_8 C18_8 1_555 1_555
C19_8 C20_8 1_555 1_555
C20_8 H15_8 1_555 1_555
C21_8 C20_8 1_555 1_555
H16_8 C21_8 1_555 1_555
C22_8 C21_8 1_555 1_555
C23_8 C22_8 1_555 1_555
H17_8 C23_8 1_555 1_555
C24_8 C19_8 1_555 1_555
H18_8 C24_8 1_555 1_555
C25_8 C22_8 1_555 1_555
C26_8 C9_8 1_555 1_555
H19_8 C26_8 1_555 1_555
H20_8 C26_8 1_555 1_555
C27_8 C28_8 1_555 1_555
C28_8 H21_8 1_555 1_555
C29_8 C28_8 1_555 1_555
H22_8 C29_8 1_555 1_555
C30_8 C29_8 1_555 1_555
C31_8 C30_8 1_555 1_555
H23_8 C31_8 1_555 1_555
C32_8 C27_8 1_555 1_555
H24_8 C32_8 1_555 1_555
C33_8 C30_8 1_555 1_555
C34_8 H25_8 1_555 1_555
C35_8 C34_8 1_555 1_555
H26_8 C35_8 1_555 1_555
C36_8 C35_8 1_555 1_555
C37_8 C36_8 1_555 1_555
H27_8 C37_8 1_555 1_555
C38_8 C37_8 1_555 1_555
H28_8 C38_8 1_555 1_555
H30_8 C40_8 1_555 1_555
N2_8 C34_8 1_555 1_555
O1_8 C1_8 1_555 1_555
O2_8 C1_8 1_555 1_555
O3_8 C5_8 1_555 1_555
O4_8 C10_8 1_555 1_555
O13_4 C17_8 1_555 1_555
O14_4 C17_8 1_555 1_555
O7_8 C18_8 1_555 1_555
O15_4 C25_8 1_555 1_555
O16_4 C25_8 1_555 1_555
O10_8 C26_8 1_555 1_555
O17_3 C33_8 1_555 1_555
O18_3 C33_8 1_555 1_555
Zn6_2 O1_8 1_555 1_555
Zn9_2 N2_8 1_555 1_555
C6_8 C7_8 1_555 1_555
C8_8 O3_8 1_555 1_555
C11_8 O4_8 1_555 1_555
C15_8 C16_8 1_555 1_555
C19_8 O7_8 1_555 1_555
C23_8 C24_8 1_555 1_555
C27_8 O10_8 1_555 1_555
C31_8 C32_8 1_555 1_555
C38_8 N2_8 1_555 1_555
O2_8 Zn9_2 1_555 1_555
H29_8 C39_8 1_555 1_555
C42_8 C41_8 1_555 1_555
H31_8 C42_8 1_555 1_555
C43_8 C42_8 1_555 1_555
H32_8 C43_8 1_555 1_555
C44_6 H33_4 1_555 1_555
C45_6 C41_8 1_555 1_555
N3_4 C43_8 1_555 1_555
C44_6 C45_6 1_555 1_555
C44_6 N3_4 1_555 1_555
C44_7 H33_6 1_555 1_555
C44_7 C45_7 1_555 1_555
C44_8 H33_8 1_555 1_555
C44_8 C45_8 1_555 1_555

#END
