
###############################################################################
#
# This file contains modified crystal structure data generated from the
# MOF subset of the Cambridge Structural Database (CSD) v543 
# hosted by the Cambridge Crystallographic Data Centre (CCDC).
#
# This work is licensed under the Creative Commons
# Attribution-NonCommercial-ShareAlike 4.0 International License.
# To view a copy of this license, visit
# http://creativecommons.org/licenses/by-nc-sa/4.0/
# or send a letter to
# Creative Commons, PO Box 1866, Mountain View, CA 94042, USA.
#
# CIF created using the CSD Python API on 29 September 2022
# The structure has been converted into the P1 space group
# The structure has a 3D framework
# The original CSD entry HIHJUF is in the trigonal crystal system
# The framework has been calculated to contain at least 10.0% void space
# The void calculation uses a probe of radius 1.32A, grid spacing 0.4
#
###############################################################################

data_HIHJUF
_chemical_formula_moiety         '(C72 H60 N48 O24 Zn12)n'
_symmetry_cell_setting           triclinic
_symmetry_space_group_name_H-M   'P 1'
_symmetry_Int_Tables_number      1
_space_group_name_Hall           'P 1'
loop_
_symmetry_equiv_pos_site_id
_symmetry_equiv_pos_as_xyz
1 x,y,z
_cell_length_a                   11.8739(15)
_cell_length_b                   11.8739(15)
_cell_length_c                   25.494(5)
_cell_angle_alpha                90
_cell_angle_beta                 90
_cell_angle_gamma                120
_cell_volume                     3112.83
loop_
_atom_site_label
_atom_site_type_symbol
_atom_site_fract_x
_atom_site_fract_y
_atom_site_fract_z
O5 O 0.6927(8) 0.1054(12) 0.1144(2)
N11 N 0.6601(11) 0.0967(7) 0.9993(2)
C1 C 0.4071(12) 0.3489(11) 0.1599(3)
C2 C 0.4026(12) 0.2696(10) 0.2060(3)
C3 C 0.3997(15) 0.3135(12) 0.2563(3)
H1 H 0.3983 0.3906 0.2607
C4 C 0.1655(8) 0.4476(9) 0.0799(3)
C5 C 0.1929(10) 0.4130(12) 0.0018(3)
C6 C 0.3987(13) 0.1553(10) 0.2002(3)
H3 H 0.3954 0.1225 0.1667
N1 N 0.0764(11) 0.4601(8) 0.0531(2)
N2 N 0.2423(9) 0.4195(9) 0.0504(2)
N3 N 0.1766(10) 0.4605(11) 0.1331(3)
N4 N 0.0967(7) 0.4366(9) 0.0007(2)
O1 O 0.4127(9) 0.3073(8) 0.1144(2)
O2 O 0.4031(8) 0.4504(8) 0.1658(3)
Zn1 Zn 0.41315(13) 0.42694(12) 0.06271(3)
H4 H 0.244(8) 0.466(7) 0.146(3)
H5 H 0.131(11) 0.497(10) 0.154(4)
C7 C 0.4071(12) 0.0582(16) 0.3401(3)
C8 C 0.4026(12) 0.1330(16) 0.2940(3)
C9 C 0.3997(15) 0.0862(19) 0.2437(3)
H6 H 0.3983 0.0077 0.2393
C10 C 0.3987(13) 0.2434(16) 0.2998(3)
H7 H 0.3954 0.2729 0.3333
O3 O 0.4127(9) 0.1054(12) 0.3856(2)
C11 C 0.5524(9) 0.7179(12) 0.0799(3)
C12 C 0.5870(12) 0.7799(16) 0.0018(3)
N5 N 0.5399(8) 0.6163(14) 0.0531(2)
N6 N 0.5805(9) 0.8228(13) 0.0504(2)
N7 N 0.5395(11) 0.7161(15) 0.1331(3)
N8 N 0.5634(9) 0.6601(11) 0.0007(2)
Zn2 Zn 0.57306(12) 0.98621(18) 0.06271(3)
H9 H 0.534(7) 0.778(11) 0.146(3)
H10 H 0.503(10) 0.634(15) 0.154(4)
N9 N 0.3837(14) 0.9236(11) 0.0531(2)
Zn3 Zn 0.01379(18) 0.58685(13) 0.06271(3)
H2 H 0.2247 0.3935 0.9719
H8 H 0.6065 0.8312 0.9719
N10 N 0.4366(9) 0.3399(11) 0.9993(2)
Zn5 Zn 0.58685(13) 0.57306(12) 0.93729(3)
O4 O 0.4031(8) 0.9527(11) 0.3342(3)
Zn4 Zn 0.41315(13) 0.98621(18) 0.43729(3)
Zn6 Zn 0.98621(18) 0.41315(13) 0.93729(3)
O4_2 O 0.0473(11) 0.4504(14) 0.3342(3)
Zn4_2 Zn 0.01379(18) 0.42694(22) 0.43729(3)
C1_2 C 0.6511(11) 0.0582(16) 0.1599(3)
C2_2 C 0.7304(10) 0.1330(16) 0.2060(3)
C3_2 C 0.6865(12) 0.0862(19) 0.2563(3)
H1_2 H 0.6094 0.0077 0.2607
C6_2 C 0.8447(10) 0.2434(16) 0.2002(3)
H3_2 H 0.8775 0.2729 0.1667
C7_2 C 0.9418(16) 0.3489(20) 0.3401(3)
C8_2 C 0.8670(16) 0.2696(20) 0.2940(3)
C9_2 C 0.9138(19) 0.3135(24) 0.2437(3)
H6_2 H 0.9923 0.3906 0.2393
C10_2 C 0.7566(16) 0.1553(21) 0.2998(3)
H7_2 H 0.7271 0.1225 0.3333
O3_2 O 0.8946(12) 0.3073(15) 0.3856(2)
Zn5_2 Zn 0.42694(12) 0.01379(18) 0.93729(3)
O2_2 O 0.5496(8) 0.9527(11) 0.1658(3)
C11_2 C 0.2821(12) 0.8345(15) 0.0799(3)
C12_2 C 0.2201(16) 0.8071(20) 0.0018(3)
N6_2 N 0.1772(13) 0.7577(16) 0.0504(2)
N7_2 N 0.2839(15) 0.8234(19) 0.1331(3)
N8_2 N 0.3399(11) 0.9033(14) 0.0007(2)
H9_2 H 0.222(11) 0.756(13) 0.146(3)
H10_2 H 0.366(15) 0.869(18) 0.154(4)
H8_2 H 0.1688 0.7753 0.9719
O5_2 O 0.8946(12) 0.5873(14) 0.1144(2)
N11_2 N 0.9033(7) 0.5634(13) 0.9993(2)
O2_3 O 0.0473(11) 0.5969(8) 0.1658(3)
C1_3 C 0.9418(16) 0.5929(12) 0.1599(3)
C2_3 C 0.8670(16) 0.5974(12) 0.2060(3)
C3_3 C 0.9138(19) 0.6003(15) 0.2563(3)
H1_3 H 0.9923 0.6017 0.2607
C6_3 C 0.7566(16) 0.6013(13) 0.2002(3)
H3_3 H 0.7271 0.6046 0.1667
C7_3 C 0.6511(20) 0.5929(12) 0.3401(3)
C8_3 C 0.7304(20) 0.5974(12) 0.2940(3)
C9_3 C 0.6865(24) 0.6003(15) 0.2437(3)
H6_3 H 0.6094 0.6017 0.2393
C10_3 C 0.8447(21) 0.6013(13) 0.2998(3)
H7_3 H 0.8775 0.6046 0.3333
O3_3 O 0.6927(15) 0.5873(9) 0.3856(2)
O4_3 O 0.5496(14) 0.5969(8) 0.3342(3)
Zn4_3 Zn 0.57306(22) 0.58685(13) 0.43729(3)
Zn6_2 Zn 0.58685(13) 0.01379(18) 0.56271(3)
C4_2 C 0.5524(9) 0.8345(8) 0.4201(3)
C5_2 C 0.5870(12) 0.8071(10) 0.4982(3)
H2_2 H 0.6065 0.7753 0.5281
N1_2 N 0.5399(8) 0.9236(11) 0.4469(2)
N2_2 N 0.5805(9) 0.7577(9) 0.4496(2)
N3_2 N 0.5395(11) 0.8234(10) 0.3669(3)
N4_2 N 0.5634(9) 0.9033(7) 0.4993(2)
H4_2 H 0.534(7) 0.756(8) 0.354(3)
H5_2 H 0.503(10) 0.869(11) 0.346(4)
C11_3 C 0.2821(12) 0.4476(9) 0.4201(3)
C12_3 C 0.2201(16) 0.4130(12) 0.4982(3)
H8_3 H 0.1688 0.3935 0.5281
N5_2 N 0.3837(14) 0.4601(8) 0.4469(2)
N6_3 N 0.1772(13) 0.4195(9) 0.4496(2)
N7_3 N 0.2839(15) 0.4605(11) 0.3669(3)
N8_3 N 0.3399(11) 0.4366(9) 0.4993(2)
H9_3 H 0.222(11) 0.466(7) 0.354(3)
H10_3 H 0.366(15) 0.497(10) 0.346(4)
N9_2 N 0.0764(11) 0.6163(14) 0.4469(2)
N10_2 N 0.6601(11) 0.5634(9) 0.5007(2)
Zn5_3 Zn 0.42694(12) 0.41315(13) 0.56271(3)
N11_3 N 0.9033(7) 0.3399(11) 0.5007(2)
N10_3 N 0.4366(9) 0.0967(14) 0.5007(2)
C4_3 C 0.1655(8) 0.7179(12) 0.4201(3)
C5_3 C 0.1929(10) 0.7799(16) 0.4982(3)
H2_3 H 0.2247 0.8312 0.5281
N2_3 N 0.2423(9) 0.8228(13) 0.4496(2)
N3_3 N 0.1766(10) 0.7161(15) 0.3669(3)
N4_3 N 0.0967(7) 0.6601(11) 0.4993(2)
H4_3 H 0.244(8) 0.778(11) 0.354(3)
H5_3 H 0.131(11) 0.634(15) 0.346(4)
Zn6_3 Zn 0.98621(18) 0.57306(22) 0.56271(3)
O4_4 O 0.5969(8) 0.0473(11) 0.6658(3)
H2_4 H 0.7753 0.6065 0.0281
H8_4 H 0.3935 0.1688 0.0281
C1_4 C 0.5929(12) 0.6511(11) 0.8401(3)
C2_4 C 0.5974(12) 0.7304(10) 0.7940(3)
C3_4 C 0.6003(15) 0.6865(12) 0.7437(3)
H1_4 H 0.6017 0.6094 0.7393
C4_4 C 0.8345(8) 0.5524(9) 0.9201(3)
C5_4 C 0.8071(10) 0.5870(12) 0.9982(3)
C6_4 C 0.6013(13) 0.8447(10) 0.7998(3)
H3_4 H 0.6046 0.8775 0.8333
N1_3 N 0.9236(11) 0.5399(8) 0.9469(2)
N2_4 N 0.7577(9) 0.5805(9) 0.9496(2)
N3_4 N 0.8234(10) 0.5395(11) 0.8669(3)
O1_2 O 0.5873(9) 0.6927(8) 0.8856(2)
O2_4 O 0.5969(8) 0.5496(8) 0.8342(3)
H4_4 H 0.756(8) 0.534(7) 0.854(3)
H5_4 H 0.869(11) 0.503(10) 0.846(4)
C7_4 C 0.5929(12) 0.9418(16) 0.6599(3)
C8_4 C 0.5974(12) 0.8670(16) 0.7060(3)
C9_4 C 0.6003(15) 0.9138(19) 0.7563(3)
H6_4 H 0.6017 0.9923 0.7607
C10_4 C 0.6013(13) 0.7566(16) 0.7002(3)
H7_4 H 0.6046 0.7271 0.6667
O3_4 O 0.5873(9) 0.8946(12) 0.6144(2)
C11_4 C 0.4476(9) 0.2821(12) 0.9201(3)
C12_4 C 0.4130(12) 0.2201(16) 0.9982(3)
N5_3 N 0.4601(8) 0.3837(14) 0.9469(2)
N6_4 N 0.4195(9) 0.1772(13) 0.9496(2)
N7_4 N 0.4605(11) 0.2839(15) 0.8669(3)
H9_4 H 0.466(7) 0.222(11) 0.854(3)
H10_4 H 0.497(10) 0.366(15) 0.846(4)
N9_3 N 0.6163(14) 0.0764(11) 0.9469(2)
O5_3 O 0.3073(8) 0.8946(12) 0.8856(2)
O5_4 O 0.1054(12) 0.4127(14) 0.8856(2)
H8_5 H 0.8312 0.2247 0.0281
O2_5 O 0.4504(8) 0.0473(11) 0.8342(3)
C11_5 C 0.7179(12) 0.1655(15) 0.9201(3)
C12_5 C 0.7799(16) 0.1929(20) 0.9982(3)
N6_5 N 0.8228(13) 0.2423(16) 0.9496(2)
N7_5 N 0.7161(15) 0.1766(19) 0.8669(3)
H9_5 H 0.778(11) 0.244(13) 0.854(3)
H10_5 H 0.634(15) 0.131(18) 0.846(4)
C1_5 C 0.3489(11) 0.9418(16) 0.8401(3)
C2_5 C 0.2696(10) 0.8670(16) 0.7940(3)
C3_5 C 0.3135(12) 0.9138(19) 0.7437(3)
H1_5 H 0.3906 0.9923 0.7393
C6_5 C 0.1553(10) 0.7566(16) 0.7998(3)
H3_5 H 0.1225 0.7271 0.8333
C7_5 C 0.0582(16) 0.6511(20) 0.6599(3)
C8_5 C 0.1330(16) 0.7304(20) 0.7060(3)
C9_5 C 0.0862(19) 0.6865(24) 0.7563(3)
H6_5 H 0.0077 0.6094 0.7607
C10_5 C 0.2434(16) 0.8447(21) 0.7002(3)
H7_5 H 0.2729 0.8775 0.6667
O3_5 O 0.1054(12) 0.6927(15) 0.6144(2)
O4_5 O 0.9527(11) 0.5496(14) 0.6658(3)
C1_6 C 0.0582(16) 0.4071(12) 0.8401(3)
C2_6 C 0.1330(16) 0.4026(12) 0.7940(3)
C3_6 C 0.0862(19) 0.3997(15) 0.7437(3)
H1_6 H 0.0077 0.3983 0.7393
C6_6 C 0.2434(16) 0.3987(13) 0.7998(3)
H3_6 H 0.2729 0.3954 0.8333
C7_6 C 0.3489(20) 0.4071(12) 0.6599(3)
C8_6 C 0.2696(20) 0.4026(12) 0.7060(3)
C9_6 C 0.3135(24) 0.3997(15) 0.7563(3)
H6_6 H 0.3906 0.3983 0.7607
C10_6 C 0.1553(21) 0.3987(13) 0.7002(3)
H7_6 H 0.1225 0.3954 0.6667
O3_6 O 0.3073(15) 0.4127(9) 0.6144(2)
O4_6 O 0.4504(14) 0.4031(8) 0.6658(3)
O2_6 O 0.9527(11) 0.4031(8) 0.8342(3)
C4_5 C 0.4476(9) 0.1655(8) 0.5799(3)
C5_5 C 0.4130(12) 0.1929(10) 0.5018(3)
H2_5 H 0.3935 0.2247 0.4719
N1_4 N 0.4601(8) 0.0764(11) 0.5531(2)
N2_5 N 0.4195(9) 0.2423(9) 0.5504(2)
N3_5 N 0.4605(11) 0.1766(10) 0.6331(3)
H4_5 H 0.466(7) 0.244(8) 0.646(3)
H5_5 H 0.497(10) 0.131(11) 0.654(4)
C11_6 C 0.7179(12) 0.5524(9) 0.5799(3)
C12_6 C 0.7799(16) 0.5870(12) 0.5018(3)
H8_6 H 0.8312 0.6065 0.4719
N5_4 N 0.6163(14) 0.5399(8) 0.5531(2)
N6_6 N 0.8228(13) 0.5805(9) 0.5504(2)
N7_6 N 0.7161(15) 0.5395(11) 0.6331(3)
H9_6 H 0.778(11) 0.534(7) 0.646(3)
H10_6 H 0.634(15) 0.503(10) 0.654(4)
N9_4 N 0.9236(11) 0.3837(14) 0.5531(2)
C4_6 C 0.8345(8) 0.2821(12) 0.5799(3)
C5_6 C 0.8071(10) 0.2201(16) 0.5018(3)
H2_6 H 0.7753 0.1688 0.4719
N2_6 N 0.7577(9) 0.1772(13) 0.5504(2)
N3_6 N 0.8234(10) 0.2839(15) 0.6331(3)
H4_6 H 0.756(8) 0.222(11) 0.646(3)
H5_6 H 0.869(11) 0.366(15) 0.654(4)
loop_
_geom_bond_atom_site_label_1
_geom_bond_atom_site_label_2
_geom_bond_site_symmetry_1
_geom_bond_site_symmetry_2
C1 C2 1_555 1_555
C2 C3 1_555 1_555
C3 H1 1_555 1_555
C4 N1 1_555 1_555
C6 C2 1_555 1_555
H3 C6 1_555 1_555
N1 N4 1_555 1_555
N2 C4 1_555 1_555
N3 C4 1_555 1_555
N4 C5 1_555 1_555
O1 C1 1_555 1_555
O2 C1 1_555 1_555
Zn1 N2 1_555 1_555
H4 N3 1_555 1_555
H5 N3 1_555 1_555
C7 C8 1_555 1_555
C8 C9 1_555 1_555
C9 C6 1_555 1_555
H6 C9 1_555 1_555
C10 C3 1_555 1_555
H7 C10 1_555 1_555
O3 C7 1_555 1_555
C11 N5 1_555 1_555
N5 Zn1 1_555 1_555
N6 C11 1_555 1_555
N7 C11 1_555 1_555
N8 C12 1_555 1_555
Zn2 N6 1_555 1_555
H9 N7 1_555 1_555
H10 N7 1_555 1_555
N9 Zn2 1_555 1_555
Zn3 N1 1_555 1_555
C5 N2 1_555 1_555
O1 Zn1 1_555 1_555
C8 C10 1_555 1_555
C12 N6 1_555 1_555
N5 N8 1_555 1_555
C1_2 C2_2 1_555 1_555
C2_2 C3_2 1_555 1_555
C3_2 H1_2 1_555 1_555
C6_2 C2_2 1_555 1_555
H3_2 C6_2 1_555 1_555
O5 C1_2 1_555 1_555
C7_2 C8_2 1_555 1_555
C8_2 C9_2 1_555 1_555
C9_2 C6_2 1_555 1_555
H6_2 C9_2 1_555 1_555
C10_2 C3_2 1_555 1_555
H7_2 C10_2 1_555 1_555
O3_2 C7_2 1_555 1_555
C8_2 C10_2 1_555 1_555
C11_2 N9 1_555 1_555
N6_2 C11_2 1_555 1_555
N7_2 C11_2 1_555 1_555
N8_2 C12_2 1_555 1_555
Zn3 N6_2 1_555 1_555
H9_2 N7_2 1_555 1_555
H10_2 N7_2 1_555 1_555
C12_2 N6_2 1_555 1_555
N9 N8_2 1_555 1_555
C1_3 C2_3 1_555 1_555
C2_3 C3_3 1_555 1_555
C3_3 H1_3 1_555 1_555
C6_3 C2_3 1_555 1_555
H3_3 C6_3 1_555 1_555
O5_2 C1_3 1_555 1_555
C7_3 C8_3 1_555 1_555
C8_3 C9_3 1_555 1_555
C9_3 C6_3 1_555 1_555
H6_3 C9_3 1_555 1_555
C10_3 C3_3 1_555 1_555
H7_3 C10_3 1_555 1_555
O3_3 C7_3 1_555 1_555
O4_3 C7_3 1_555 1_555
Zn4_3 O3_3 1_555 1_555
C8_3 C10_3 1_555 1_555
C4_2 N1_2 1_555 1_555
C5_2 H2_2 1_555 1_555
N1_2 N4_2 1_555 1_555
N2_2 C4_2 1_555 1_555
N3_2 C4_2 1_555 1_555
N4_2 C5_2 1_555 1_555
Zn4_3 N2_2 1_555 1_555
H4_2 N3_2 1_555 1_555
H5_2 N3_2 1_555 1_555
C11_3 N5_2 1_555 1_555
C12_3 H8_3 1_555 1_555
N5_2 Zn4_3 1_555 1_555
N6_3 C11_3 1_555 1_555
N7_3 C11_3 1_555 1_555
N8_3 C12_3 1_555 1_555
Zn4_2 N6_3 1_555 1_555
H9_3 N7_3 1_555 1_555
H10_3 N7_3 1_555 1_555
N9_2 Zn4_2 1_555 1_555
N10_2 Zn4_3 1_555 1_555
Zn4 N1_2 1_555 1_555
Zn5_3 N8_3 1_555 1_555
C5_2 N2_2 1_555 1_555
C12_3 N6_3 1_555 1_555
N5_2 N8_3 1_555 1_555
C4_3 N9_2 1_555 1_555
C5_3 H2_3 1_555 1_555
N9_2 N4_3 1_555 1_555
N2_3 C4_3 1_555 1_555
N3_3 C4_3 1_555 1_555
N4_3 C5_3 1_555 1_555
Zn4 N2_3 1_555 1_555
H4_3 N3_3 1_555 1_555
H5_3 N3_3 1_555 1_555
C5_3 N2_3 1_555 1_555
C1_4 C2_4 1_555 1_555
C2_4 C3_4 1_555 1_555
C3_4 H1_4 1_555 1_555
C4_4 N1_3 1_555 1_555
C6_4 C2_4 1_555 1_555
H3_4 C6_4 1_555 1_555
N1_3 N11_2 1_555 1_555
N2_4 C4_4 1_555 1_555
N3_4 C4_4 1_555 1_555
N11_2 C5_4 1_555 1_555
O1_2 C1_4 1_555 1_555
O2_4 C1_4 1_555 1_555
Zn5 N2_4 1_555 1_555
H4_4 N3_4 1_555 1_555
H5_4 N3_4 1_555 1_555
C7_4 C8_4 1_555 1_555
C8_4 C9_4 1_555 1_555
C9_4 C6_4 1_555 1_555
H6_4 C9_4 1_555 1_555
C10_4 C3_4 1_555 1_555
H7_4 C10_4 1_555 1_555
O3_4 C7_4 1_555 1_555
C11_4 N5_3 1_555 1_555
N5_3 Zn5 1_555 1_555
N6_4 C11_4 1_555 1_555
N7_4 C11_4 1_555 1_555
N10 C12_4 1_555 1_555
Zn5_2 N6_4 1_555 1_555
H9_4 N7_4 1_555 1_555
H10_4 N7_4 1_555 1_555
N9_3 Zn5_2 1_555 1_555
Zn6 N1_3 1_555 1_555
C5_4 N2_4 1_555 1_555
O1_2 Zn5 1_555 1_555
C8_4 C10_4 1_555 1_555
C12_4 N6_4 1_555 1_555
N5_3 N10 1_555 1_555
C11_5 N9_3 1_555 1_555
N6_5 C11_5 1_555 1_555
N7_5 C11_5 1_555 1_555
N11 C12_5 1_555 1_555
Zn6 N6_5 1_555 1_555
H9_5 N7_5 1_555 1_555
H10_5 N7_5 1_555 1_555
C12_5 N6_5 1_555 1_555
N9_3 N11 1_555 1_555
C1_5 C2_5 1_555 1_555
C2_5 C3_5 1_555 1_555
C3_5 H1_5 1_555 1_555
C6_5 C2_5 1_555 1_555
H3_5 C6_5 1_555 1_555
O5_3 C1_5 1_555 1_555
C7_5 C8_5 1_555 1_555
C8_5 C9_5 1_555 1_555
C9_5 C6_5 1_555 1_555
H6_5 C9_5 1_555 1_555
C10_5 C3_5 1_555 1_555
H7_5 C10_5 1_555 1_555
O3_5 C7_5 1_555 1_555
C8_5 C10_5 1_555 1_555
C1_6 C2_6 1_555 1_555
C2_6 C3_6 1_555 1_555
C3_6 H1_6 1_555 1_555
C6_6 C2_6 1_555 1_555
H3_6 C6_6 1_555 1_555
O5_4 C1_6 1_555 1_555
C7_6 C8_6 1_555 1_555
C8_6 C9_6 1_555 1_555
C9_6 C6_6 1_555 1_555
H6_6 C9_6 1_555 1_555
C10_6 C3_6 1_555 1_555
H7_6 C10_6 1_555 1_555
O3_6 C7_6 1_555 1_555
O4_6 C7_6 1_555 1_555
Zn5_3 O3_6 1_555 1_555
C8_6 C10_6 1_555 1_555
C4_5 N1_4 1_555 1_555
C5_5 H2_5 1_555 1_555
N1_4 N10_3 1_555 1_555
N2_5 C4_5 1_555 1_555
N3_5 C4_5 1_555 1_555
N10_3 C5_5 1_555 1_555
Zn5_3 N2_5 1_555 1_555
H4_5 N3_5 1_555 1_555
H5_5 N3_5 1_555 1_555
C11_6 N5_4 1_555 1_555
C12_6 H8_6 1_555 1_555
N5_4 Zn5_3 1_555 1_555
N6_6 C11_6 1_555 1_555
N7_6 C11_6 1_555 1_555
N10_2 C12_6 1_555 1_555
Zn6_3 N6_6 1_555 1_555
H9_6 N7_6 1_555 1_555
H10_6 N7_6 1_555 1_555
N9_4 Zn6_3 1_555 1_555
Zn6_2 N1_4 1_555 1_555
C5_5 N2_5 1_555 1_555
C12_6 N6_6 1_555 1_555
N5_4 N10_2 1_555 1_555
C4_6 N9_4 1_555 1_555
C5_6 H2_6 1_555 1_555
N9_4 N11_3 1_555 1_555
N2_6 C4_6 1_555 1_555
N3_6 C4_6 1_555 1_555
N11_3 C5_6 1_555 1_555
Zn6_2 N2_6 1_555 1_555
H4_6 N3_6 1_555 1_555
H5_6 N3_6 1_555 1_555
C5_6 N2_6 1_555 1_555

#END
