
###############################################################################
#
# This file contains modified crystal structure data generated from the
# MOF subset of the Cambridge Structural Database (CSD) v543 
# hosted by the Cambridge Crystallographic Data Centre (CCDC).
#
# This work is licensed under the Creative Commons
# Attribution-NonCommercial-ShareAlike 4.0 International License.
# To view a copy of this license, visit
# http://creativecommons.org/licenses/by-nc-sa/4.0/
# or send a letter to
# Creative Commons, PO Box 1866, Mountain View, CA 94042, USA.
#
# CIF created using the CSD Python API on 29 September 2022
# The structure has been converted into the P1 space group
# The structure has a 3D framework
# The original CSD entry HIHNUJ is in the tetragonal crystal system
# The original CSD entry HIHNUJ is in a Sohncke space group
# The framework has been calculated to contain at least 10.0% void space
# The void calculation uses a probe of radius 1.32A, grid spacing 0.4
#
###############################################################################

data_HIHNUJ
_chemical_formula_moiety         '(C64 H24 In4 O30)n'
_symmetry_cell_setting           triclinic
_symmetry_space_group_name_H-M   'P 1'
_symmetry_Int_Tables_number      1
_space_group_name_Hall           'P 1'
loop_
_symmetry_equiv_pos_site_id
_symmetry_equiv_pos_as_xyz
1 x,y,z
_cell_length_a                   17.9218(8)
_cell_length_b                   17.9218(8)
_cell_length_c                   11.2184(8)
_cell_angle_alpha                90
_cell_angle_beta                 90
_cell_angle_gamma                90
_cell_volume                     3603.25
loop_
_atom_site_label
_atom_site_type_symbol
_atom_site_fract_x
_atom_site_fract_y
_atom_site_fract_z
O1 O 0.66143(11) 0.58042(9) 0.11003(16)
C1 C 0.69402(12) 0.53900(11) 0.0364(2)
C2 C 0.67651(11) 0.35260(11) 0.19283(18)
C4 C 0.69934(12) 0.45697(11) 0.0599(2)
C5 C 0.73884(11) 0.33323(11) 0.0037(2)
C7 C 0.66999(12) 0.42839(12) 0.1657(2)
H2 H 0.6453 0.4608 0.2198
C8 C 0.71028(13) 0.30528(12) 0.11035(19)
H3 H 0.7139 0.2534 0.1269
O5 O 0.41958(9) 0.33857(11) 0.38997(16)
O6 O 0.78889(9) 0.23744(10) 0.57217(14)
O7 O 0.43361(9) 0.27727(11) 0.55811(16)
C9 C 0.46100(11) 0.30598(12) 0.4636(2)
O8 O 0.69514(9) 0.19798(11) 0.68056(15)
C10 C 0.64740(11) 0.32349(11) 0.30717(18)
C11 C 0.71949(13) 0.22978(12) 0.5875(2)
C12 C 0.54303(11) 0.30066(12) 0.4401(2)
C13 C 0.66677(11) 0.26116(11) 0.4963(2)
C14 C 0.59011(11) 0.26705(13) 0.52141(18)
H4 H 0.5708 0.2479 0.5941
C15 C 0.57161(12) 0.33001(12) 0.3343(2)
H5 H 0.5392 0.3547 0.2802
C16 C 0.69472(12) 0.28972(13) 0.38965(19)
H6 H 0.7466 0.2861 0.3731
In2 In 0.816007(7) 0.183993(7) 0.7500
In3 In 0.316007(7) 0.316007(7) 0.5000
In4 In 0.683993(7) 0.683993(7) 0.0000
O2 O 0.76256(10) 0.21111(9) 0.92783(14)
O3 O 0.72273(11) 0.56639(9) 0.94189(16)
O4 O 0.80202(11) 0.30486(9) 0.81944(15)
C3 C 0.77022(12) 0.28051(13) 0.9125(2)
C6 C 0.73295(13) 0.40989(11) 0.97859(18)
H1 H 0.7521 0.4292 0.9059
In4_2 In 0.683993(7) 0.683993(7) 1.0000
O9 O 0.91958(9) 0.16143(11) 0.86003(16)
O10 O 0.83857(11) 0.08042(9) 0.63997(16)
O12 O 0.93361(9) 0.22273(11) 0.69189(16)
O13 O 0.77727(11) 0.06639(9) 0.80811(16)
O6_2 O 0.26256(10) 0.28889(9) 0.32217(14)
O8_2 O 0.30202(11) 0.19514(9) 0.43056(15)
C10_2 C 0.17651(11) 0.14740(11) 0.05717(18)
C11_2 C 0.27022(12) 0.21949(13) 0.3375(2)
C12_2 C 0.19934(12) 0.04303(11) 0.1901(2)
C13_2 C 0.23884(11) 0.16677(11) 0.2463(2)
C14_2 C 0.23295(13) 0.09011(11) 0.27141(18)
H4_2 H 0.2521 0.0708 0.3441
C15_2 C 0.16999(12) 0.07161(12) 0.0843(2)
H5_2 H 0.1453 0.0392 0.0302
C16_2 C 0.21028(13) 0.19472(12) 0.13965(19)
H6_2 H 0.2139 0.2466 0.1231
O2_2 O 0.28889(9) 0.26256(10) 0.67783(14)
O4_2 O 0.19514(9) 0.30202(11) 0.56944(15)
C2_2 C 0.14740(11) 0.17651(11) 0.94283(18)
C3_2 C 0.21949(13) 0.27022(12) 0.6625(2)
C4_2 C 0.04303(11) 0.19934(12) 0.8099(2)
C5_2 C 0.16677(11) 0.23884(11) 0.7537(2)
C6_2 C 0.09011(11) 0.23295(13) 0.72859(18)
H1_2 H 0.0708 0.2521 0.6559
C7_2 C 0.07161(12) 0.16999(12) 0.9157(2)
H2_2 H 0.0392 0.1453 0.9698
C8_2 C 0.19472(12) 0.21028(13) 0.86035(19)
H3_2 H 0.2466 0.2139 0.8769
O9_2 O 0.33857(11) 0.41958(9) 0.61003(16)
O12_2 O 0.27727(11) 0.43361(9) 0.44189(16)
O5_2 O 0.16143(11) 0.91958(9) 0.13997(16)
O7_2 O 0.22273(11) 0.93361(9) 0.30811(16)
C9_2 C 0.19402(12) 0.96100(11) 0.2136(2)
In3_2 In 0.183993(7) 0.816007(7) 0.2500
C1_2 C 0.96100(11) 0.19402(12) 0.7864(2)
O6_3 O 0.21111(9) 0.76256(10) 0.07217(14)
O7_3 O 0.56639(9) 0.72273(11) 0.05811(16)
O8_3 O 0.30486(9) 0.80202(11) 0.18056(15)
C11_3 C 0.28051(13) 0.77022(12) 0.0875(2)
C14_3 C 0.40989(11) 0.73295(13) 0.02141(18)
H4_3 H 0.4292 0.7521 0.0941
O2_3 O 0.23744(10) 0.78889(9) 0.42783(14)
C1_3 C 0.30598(12) 0.46100(11) 0.5364(2)
O4_3 O 0.19798(11) 0.69514(9) 0.31944(15)
C2_3 C 0.32349(11) 0.64740(11) 0.69283(18)
C3_3 C 0.22978(12) 0.71949(13) 0.4125(2)
C4_3 C 0.30066(12) 0.54303(11) 0.5599(2)
C5_3 C 0.26116(11) 0.66677(11) 0.5037(2)
C6_3 C 0.26705(13) 0.59011(11) 0.47859(18)
H1_3 H 0.2479 0.5708 0.4059
C7_3 C 0.33001(12) 0.57161(12) 0.6657(2)
H2_3 H 0.3547 0.5392 0.7198
C8_3 C 0.28972(13) 0.69472(12) 0.61035(19)
H3_3 H 0.2861 0.7466 0.6269
O5_3 O 0.58042(9) 0.66143(11) 0.88997(16)
C9_3 C 0.53900(11) 0.69402(12) 0.9636(2)
C10_3 C 0.35260(11) 0.67651(11) 0.80717(18)
C12_3 C 0.45697(11) 0.69934(12) 0.9401(2)
C13_3 C 0.33323(11) 0.73884(11) 0.9963(2)
C15_3 C 0.42839(12) 0.66999(12) 0.8343(2)
H5_3 H 0.4608 0.6453 0.7802
C16_3 C 0.30528(12) 0.71028(13) 0.88965(19)
H6_3 H 0.2534 0.7139 0.8731
O9_3 O 0.08042(9) 0.83857(11) 0.36003(16)
O12_3 O 0.06639(9) 0.77727(11) 0.19189(16)
C1_4 C 0.03900(11) 0.80598(12) 0.2864(2)
C9_4 C 0.80598(12) 0.03900(11) 0.7136(2)
O2_4 O 0.71111(9) 0.73744(10) 0.17783(14)
O4_4 O 0.80486(9) 0.69798(11) 0.06944(15)
C2_4 C 0.85260(11) 0.82349(11) 0.44283(18)
C3_4 C 0.78051(13) 0.72978(12) 0.1625(2)
C4_4 C 0.95697(11) 0.80066(12) 0.3099(2)
C5_4 C 0.83323(11) 0.76116(11) 0.2537(2)
C6_4 C 0.90989(11) 0.76705(13) 0.22859(18)
H1_4 H 0.9292 0.7479 0.1559
C7_4 C 0.92839(12) 0.83001(12) 0.4157(2)
H2_4 H 0.9608 0.8547 0.4698
C8_4 C 0.80528(12) 0.78972(13) 0.36035(19)
H3_4 H 0.7534 0.7861 0.3769
O6_4 O 0.73744(10) 0.71111(9) 0.82217(14)
O8_4 O 0.69798(11) 0.80486(9) 0.93056(15)
C10_4 C 0.82349(11) 0.85260(11) 0.55717(18)
C11_4 C 0.72978(12) 0.78051(13) 0.8375(2)
C12_4 C 0.80066(12) 0.95697(11) 0.6901(2)
C13_4 C 0.76116(11) 0.83323(11) 0.7463(2)
C14_4 C 0.76705(13) 0.90989(11) 0.77141(18)
H4_4 H 0.7479 0.9292 0.8441
C15_4 C 0.83001(12) 0.92839(12) 0.5843(2)
H5_4 H 0.8547 0.9608 0.5302
C16_4 C 0.78972(13) 0.80528(12) 0.63965(19)
H6_4 H 0.7861 0.7534 0.6231
loop_
_geom_bond_atom_site_label_1
_geom_bond_atom_site_label_2
_geom_bond_site_symmetry_1
_geom_bond_site_symmetry_2
O1 C1 1_555 1_555
C1 C4 1_555 1_555
C2 C7 1_555 1_555
C7 C4 1_555 1_555
H2 C7 1_555 1_555
C8 C2 1_555 1_555
H3 C8 1_555 1_555
O5 C9 1_555 1_555
O6 C11 1_555 1_555
O7 C9 1_555 1_555
C9 C12 1_555 1_555
O8 C11 1_555 1_555
C10 C2 1_555 1_555
C11 C13 1_555 1_555
C12 C14 1_555 1_555
C13 C14 1_555 1_555
C14 H4 1_555 1_555
C15 C10 1_555 1_555
H5 C15 1_555 1_555
C16 C10 1_555 1_555
H6 C16 1_555 1_555
In2 O6 1_555 1_555
In3 O5 1_555 1_555
In4 O1 1_555 1_555
C5 C8 1_555 1_555
O7 In3 1_555 1_555
O8 In2 1_555 1_555
C12 C15 1_555 1_555
C13 C16 1_555 1_555
In2 O2 1_555 1_555
O2 C3 1_555 1_555
O4 In2 1_555 1_555
C3 O4 1_555 1_555
H1 C6 1_555 1_555
O9 In2 1_555 1_555
O10 In2 1_555 1_555
O12 In2 1_555 1_555
O13 In2 1_555 1_555
O3 In4_2 1_555 1_555
O6_2 C11_2 1_555 1_555
O8_2 C11_2 1_555 1_555
C11_2 C13_2 1_555 1_555
C12_2 C14_2 1_555 1_555
C13_2 C14_2 1_555 1_555
C14_2 H4_2 1_555 1_555
C15_2 C10_2 1_555 1_555
H5_2 C15_2 1_555 1_555
C16_2 C10_2 1_555 1_555
H6_2 C16_2 1_555 1_555
In3 O6_2 1_555 1_555
O8_2 In3 1_555 1_555
C12_2 C15_2 1_555 1_555
C13_2 C16_2 1_555 1_555
In3 O2_2 1_555 1_555
O2_2 C3_2 1_555 1_555
O4_2 In3 1_555 1_555
C2_2 C7_2 1_555 1_555
C3_2 O4_2 1_555 1_555
C4_2 C6_2 1_555 1_555
C5_2 C3_2 1_555 1_555
C6_2 C5_2 1_555 1_555
H1_2 C6_2 1_555 1_555
C7_2 C4_2 1_555 1_555
H2_2 C7_2 1_555 1_555
C8_2 C2_2 1_555 1_555
H3_2 C8_2 1_555 1_555
O9_2 In3 1_555 1_555
O12_2 In3 1_555 1_555
C5_2 C8_2 1_555 1_555
O5_2 C9_2 1_555 1_555
O7_2 C9_2 1_555 1_555
In3_2 O5_2 1_555 1_555
O7_2 In3_2 1_555 1_555
O9 C1_2 1_555 1_555
O12 C1_2 1_555 1_555
O6_3 C11_3 1_555 1_555
O8_3 C11_3 1_555 1_555
C14_3 H4_3 1_555 1_555
In3_2 O6_3 1_555 1_555
O7_3 In4 1_555 1_555
O8_3 In3_2 1_555 1_555
In3_2 O2_3 1_555 1_555
O9_2 C1_3 1_555 1_555
O2_3 C3_3 1_555 1_555
O12_2 C1_3 1_555 1_555
C1_3 C4_3 1_555 1_555
O4_3 In3_2 1_555 1_555
C2_3 C7_3 1_555 1_555
C3_3 O4_3 1_555 1_555
C4_3 C6_3 1_555 1_555
C5_3 C3_3 1_555 1_555
C6_3 C5_3 1_555 1_555
H1_3 C6_3 1_555 1_555
C7_3 C4_3 1_555 1_555
H2_3 C7_3 1_555 1_555
C8_3 C2_3 1_555 1_555
H3_3 C8_3 1_555 1_555
O5_3 C9_3 1_555 1_555
C9_3 C12_3 1_555 1_555
C10_3 C2_3 1_555 1_555
C15_3 C10_3 1_555 1_555
H5_3 C15_3 1_555 1_555
C16_3 C10_3 1_555 1_555
H6_3 C16_3 1_555 1_555
In4_2 O5_3 1_555 1_555
O9_3 In3_2 1_555 1_555
O12_3 In3_2 1_555 1_555
C5_3 C8_3 1_555 1_555
C12_3 C15_3 1_555 1_555
C13_3 C16_3 1_555 1_555
O9_3 C1_4 1_555 1_555
O12_3 C1_4 1_555 1_555
O10 C9_4 1_555 1_555
O13 C9_4 1_555 1_555
In4 O2_4 1_555 1_555
O2_4 C3_4 1_555 1_555
O4_4 In4 1_555 1_555
C2_4 C7_4 1_555 1_555
C3_4 O4_4 1_555 1_555
C4_4 C6_4 1_555 1_555
C5_4 C3_4 1_555 1_555
C6_4 C5_4 1_555 1_555
H1_4 C6_4 1_555 1_555
C7_4 C4_4 1_555 1_555
H2_4 C7_4 1_555 1_555
C8_4 C2_4 1_555 1_555
H3_4 C8_4 1_555 1_555
O6_4 C11_4 1_555 1_555
O8_4 C11_4 1_555 1_555
C10_4 C2_4 1_555 1_555
C11_4 C13_4 1_555 1_555
C12_4 C14_4 1_555 1_555
C13_4 C14_4 1_555 1_555
C14_4 H4_4 1_555 1_555
C15_4 C10_4 1_555 1_555
H5_4 C15_4 1_555 1_555
C16_4 C10_4 1_555 1_555
H6_4 C16_4 1_555 1_555
In4_2 O6_4 1_555 1_555
C5_4 C8_4 1_555 1_555
O8_4 In4_2 1_555 1_555
C12_4 C15_4 1_555 1_555
C13_4 C16_4 1_555 1_555

#END
