
###############################################################################
#
# This file contains modified crystal structure data generated from the
# MOF subset of the Cambridge Structural Database (CSD) v543 
# hosted by the Cambridge Crystallographic Data Centre (CCDC).
#
# This work is licensed under the Creative Commons
# Attribution-NonCommercial-ShareAlike 4.0 International License.
# To view a copy of this license, visit
# http://creativecommons.org/licenses/by-nc-sa/4.0/
# or send a letter to
# Creative Commons, PO Box 1866, Mountain View, CA 94042, USA.
#
# CIF created using the CSD Python API on 29 September 2022
# The structure has been converted into the P1 space group
# The structure has a 3D framework
# The original CSD entry HIJSOK is in the tetragonal crystal system
# The original CSD entry HIJSOK is in a Sohncke space group
# The framework has been calculated to contain at least 10.0% void space
# The void calculation uses a probe of radius 1.32A, grid spacing 0.4
#
###############################################################################

data_HIJSOK
_chemical_formula_moiety         '(C144 H112 Co17 N112 O16)n'
_symmetry_cell_setting           triclinic
_symmetry_space_group_name_H-M   'P 1'
_symmetry_Int_Tables_number      1
_space_group_name_Hall           'P 1'
loop_
_symmetry_equiv_pos_site_id
_symmetry_equiv_pos_as_xyz
1 x,y,z
_cell_length_a                   18.2791(6)
_cell_length_b                   18.2791(6)
_cell_length_c                   17.5839(12)
_cell_angle_alpha                90
_cell_angle_beta                 90
_cell_angle_gamma                90
_cell_volume                     5875.23
loop_
_atom_site_label
_atom_site_type_symbol
_atom_site_fract_x
_atom_site_fract_y
_atom_site_fract_z
N27 N 0.01054(19) 0.60814(19) 0.0730(2)
N28 N 0.1551(2) 0.5932(2) 0.1032(2)
C31 C 0.0508(3) 0.5635(3) 0.0286(3)
C32 C 0.1282(3) 0.5528(3) 0.0452(3)
C33 C 0.1741(4) 0.5050(4) 0.0077(4)
C34 C 0.2437(3) 0.4985(4) 0.0254(3)
C35 C 0.2683(3) 0.5366(4) 0.0821(4)
H23 H 0.3167 0.5311 0.0972
C36 C 0.2235(3) 0.5856(3) 0.1206(3)
H24 H 0.2431 0.6135 0.1598
Co6 Co 0.06646(3) 0.65367(3) 0.16529(3)
N13 N 0.60814(19) 0.01054(19) 0.9270(2)
N14 N 0.5932(2) 0.1551(2) 0.8968(2)
C13 C 0.5635(3) 0.0508(3) 0.9714(3)
C14 C 0.5528(3) 0.1282(3) 0.9548(3)
C15 C 0.5050(4) 0.1741(4) 0.9923(4)
C16 C 0.4985(4) 0.2437(3) 0.9746(3)
C17 C 0.5366(4) 0.2683(3) 0.9179(4)
H9 H 0.5311 0.3167 0.9028
C18 C 0.5856(3) 0.2235(3) 0.8794(3)
H10 H 0.6135 0.2431 0.8402
Co5 Co 0.65367(3) 0.06646(3) 0.83471(3)
Co1 Co 0.65928(3) 0.65928(3) 0.0000
Co2 Co 0.56646(3) 0.84633(3) 0.08471(3)
Co3 Co 0.55681(4) 0.44319(4) 0.2500
N1 N 0.5875(2) 0.7513(2) 0.14315(19)
N2 N 0.61092(19) 0.68732(19) 0.10533(19)
N3 N 0.5737(3) 0.6542(2) 0.2206(2)
N4 N 0.6477(2) 0.5564(2) 0.0572(2)
N5 N 0.6589(2) 0.4831(2) 0.0426(2)
N6 N 0.6109(2) 0.4947(2) 0.1591(2)
N7 N 0.5936(2) 0.3513(2) 0.1786(2)
N11 N 0.5606(2) 0.9457(2) 0.0202(2)
C1 C 0.5668(3) 0.7267(3) 0.2105(3)
H1 H 0.5487 0.7575 0.2482
C2 C 0.6015(3) 0.6334(2) 0.1537(3)
C3 C 0.6198(3) 0.5612(3) 0.1260(3)
C4 C 0.6349(3) 0.4494(3) 0.1047(3)
C5 C 0.6309(3) 0.3707(3) 0.1156(3)
C6 C 0.6618(4) 0.3184(3) 0.0688(4)
H2 H 0.6877 0.3336 0.0261
C7 C 0.6560(4) 0.2476(3) 0.0823(4)
H3 H 0.6768 0.2129 0.0502
C8 C 0.6205(4) 0.2292(4) 0.1416(5)
H4 H 0.6157 0.1796 0.1521
C9 C 0.5881(3) 0.2789(3) 0.1922(4)
H5 H 0.5630 0.2621 0.2348
O1 O 0.47397(17) 0.79937(19) 0.0306(2)
H12 H 0.4363 0.8054 0.0587
O2 O 0.5463(3) 0.5388(2) 0.3129(2)
H13 H 0.4977 0.5511 0.3243
H14 H 0.5650 0.5803 0.2882
N22 N 0.8218(2) 0.63106(19) 0.0126(2)
N23 N 0.7642(2) 0.6670(2) 0.0447(2)
N24 N 0.8624(2) 0.6811(2) 0.1208(2)
C28 C 0.7906(3) 0.6971(3) 0.1083(3)
H20 H 0.7628 0.7260 0.1408
C29 C 0.8780(3) 0.6407(2) 0.0600(2)
C30 C 0.9458(3) 0.6040(2) 0.0402(2)
H25 H 0.8205 0.4669 0.0121
O4 O 0.4612(2) 0.4537(3) 0.1871(2)
H27 H 0.4489 0.5023 0.1757
H28 H 0.4197 0.4350 0.2118
N29 N 0.5053(2) 0.3891(2) 0.3409(2)
N30 N 0.6487(2) 0.4064(2) 0.3214(2)
N31 N 0.51054(19) 0.89186(19) 0.1770(2)
N33 N 0.6551(2) 0.9068(2) 0.1468(2)
Co1_2 Co 0.65928(3) 0.65928(3) 1.0000
N8 N 0.63106(19) 0.8218(2) 0.9874(2)
N9 N 0.6670(2) 0.7642(2) 0.9553(2)
N10 N 0.6811(2) 0.8624(2) 0.8792(2)
C10 C 0.6971(3) 0.7906(3) 0.8917(3)
H6 H 0.7260 0.7628 0.8592
C11 C 0.6407(2) 0.8780(3) 0.9400(2)
C12 C 0.6040(2) 0.9458(3) 0.9598(2)
H11 H 0.4669 0.8205 0.9879
Co4 Co 0.84633(3) 0.56646(3) 0.91529(3)
N15 N 0.7513(2) 0.5875(2) 0.85685(19)
N16 N 0.68732(19) 0.61092(19) 0.89467(19)
N17 N 0.6542(2) 0.5737(3) 0.7794(2)
N18 N 0.5564(2) 0.6477(2) 0.9428(2)
N19 N 0.4831(2) 0.6589(2) 0.9574(2)
N20 N 0.4947(2) 0.6109(2) 0.8409(2)
N21 N 0.3513(2) 0.5936(2) 0.8214(2)
N25 N 0.9457(2) 0.5606(2) 0.9798(2)
C19 C 0.7267(3) 0.5668(3) 0.7895(3)
H15 H 0.7575 0.5487 0.7518
C20 C 0.6334(2) 0.6015(3) 0.8463(3)
C21 C 0.5612(3) 0.6198(3) 0.8740(3)
C22 C 0.4494(3) 0.6349(3) 0.8953(3)
C23 C 0.3707(3) 0.6309(3) 0.8844(3)
C24 C 0.3184(3) 0.6618(4) 0.9312(4)
H16 H 0.3336 0.6877 0.9739
C25 C 0.2476(3) 0.6560(4) 0.9177(4)
H17 H 0.2129 0.6768 0.9498
C26 C 0.2292(4) 0.6205(4) 0.8584(5)
H18 H 0.1796 0.6157 0.8479
C27 C 0.2789(3) 0.5881(3) 0.8078(4)
H19 H 0.2621 0.5630 0.7652
O3 O 0.79937(19) 0.47397(17) 0.9694(2)
H26 H 0.8054 0.4363 0.9413
Co7 Co 0.44319(4) 0.55681(4) 0.7500
N32 N 0.89186(19) 0.51054(19) 0.8230(2)
N34 N 0.9068(2) 0.6551(2) 0.8532(2)
Co1_3 Co 0.34072(3) 0.34072(3) 0.5000
Co2_2 Co 0.43354(3) 0.15367(3) 0.58471(3)
N1_2 N 0.4125(2) 0.2487(2) 0.64315(19)
N2_2 N 0.38908(19) 0.31268(19) 0.60533(19)
N3_2 N 0.4263(3) 0.3458(2) 0.7206(2)
N4_2 N 0.3523(2) 0.4436(2) 0.5572(2)
N5_2 N 0.3411(2) 0.5169(2) 0.5426(2)
N6_2 N 0.3891(2) 0.5053(2) 0.6591(2)
N7_2 N 0.4064(2) 0.6487(2) 0.6786(2)
N8_2 N 0.36894(19) 0.1782(2) 0.4874(2)
N9_2 N 0.3330(2) 0.2358(2) 0.4553(2)
N10_2 N 0.3189(2) 0.1376(2) 0.3792(2)
N11_2 N 0.4394(2) 0.0543(2) 0.5202(2)
C1_2 C 0.4332(3) 0.2733(3) 0.7105(3)
H1_2 H 0.4513 0.2425 0.7482
C2_2 C 0.3985(3) 0.3666(2) 0.6537(3)
C3_2 C 0.3802(3) 0.4388(3) 0.6260(3)
C4_2 C 0.3651(3) 0.5506(3) 0.6047(3)
C5_2 C 0.3691(3) 0.6293(3) 0.6156(3)
C6_2 C 0.3382(4) 0.6816(3) 0.5688(4)
H2_2 H 0.3123 0.6664 0.5261
C7_2 C 0.3440(4) 0.7524(3) 0.5823(4)
H3_2 H 0.3232 0.7871 0.5502
C8_2 C 0.3795(4) 0.7708(4) 0.6416(5)
H4_2 H 0.3843 0.8204 0.6521
C9_2 C 0.4119(3) 0.7211(3) 0.6922(4)
H5_2 H 0.4370 0.7379 0.7348
C10_2 C 0.3029(3) 0.2094(3) 0.3917(3)
H6_2 H 0.2740 0.2372 0.3592
C11_2 C 0.3593(2) 0.1220(3) 0.4400(2)
C12_2 C 0.3960(2) 0.0542(3) 0.4598(2)
O1_2 O 0.52603(17) 0.20063(19) 0.5306(2)
H11_2 H 0.5331 0.1795 0.4879
H12_2 H 0.5637 0.1946 0.5587
O2_2 O 0.4537(3) 0.4612(2) 0.8129(2)
H13_2 H 0.5023 0.4489 0.8243
H14_2 H 0.4350 0.4197 0.7882
Co4_2 Co 0.15367(3) 0.43354(3) 0.41529(3)
N15_2 N 0.2487(2) 0.4125(2) 0.35685(19)
N16_2 N 0.31268(19) 0.38908(19) 0.39467(19)
N17_2 N 0.3458(2) 0.4263(3) 0.2794(2)
N18_2 N 0.4436(2) 0.3523(2) 0.4428(2)
N19_2 N 0.5169(2) 0.3411(2) 0.4574(2)
N22_2 N 0.1782(2) 0.36894(19) 0.5126(2)
N23_2 N 0.2358(2) 0.3330(2) 0.5447(2)
N24_2 N 0.1376(2) 0.3189(2) 0.6208(2)
N25_2 N 0.0543(2) 0.4394(2) 0.4798(2)
C19_2 C 0.2733(3) 0.4332(3) 0.2895(3)
H15_2 H 0.2425 0.4513 0.2518
C20_2 C 0.3666(2) 0.3985(3) 0.3463(3)
C21_2 C 0.4388(3) 0.3802(3) 0.3740(3)
C22_2 C 0.5506(3) 0.3651(3) 0.3953(3)
C23_2 C 0.6293(3) 0.3691(3) 0.3844(3)
C24_2 C 0.6816(3) 0.3382(4) 0.4312(4)
H16_2 H 0.6664 0.3123 0.4739
C25_2 C 0.7524(3) 0.3440(4) 0.4177(4)
H17_2 H 0.7871 0.3232 0.4498
C26_2 C 0.7708(4) 0.3795(4) 0.3584(5)
H18_2 H 0.8204 0.3843 0.3479
C27_2 C 0.7211(3) 0.4119(3) 0.3078(4)
H19_2 H 0.7379 0.4370 0.2652
C28_2 C 0.2094(3) 0.3029(3) 0.6083(3)
H20_2 H 0.2372 0.2740 0.6408
C29_2 C 0.1220(3) 0.3593(2) 0.5600(2)
C30_2 C 0.0542(3) 0.3960(2) 0.5402(2)
O3_2 O 0.20063(19) 0.52603(17) 0.4694(2)
H25_2 H 0.1795 0.5331 0.5121
H26_2 H 0.1946 0.5637 0.4413
O4_2 O 0.5388(2) 0.5463(3) 0.6871(2)
H27_2 H 0.5511 0.4977 0.6757
H28_2 H 0.5803 0.5650 0.7118
N31_2 N 0.48946(19) 0.10814(19) 0.6770(2)
N32_2 N 0.10814(19) 0.48946(19) 0.3230(2)
N33_2 N 0.3449(2) 0.0932(2) 0.6468(2)
N34_2 N 0.0932(2) 0.3449(2) 0.3532(2)
N12 N 0.4663(2) 0.9856(2) 0.5291(2)
N13_2 N 0.39186(19) 0.98946(19) 0.4270(2)
N14_2 N 0.4068(2) 0.8449(2) 0.3968(2)
C13_2 C 0.4365(3) 0.9492(3) 0.4714(3)
C14_2 C 0.4472(3) 0.8718(3) 0.4548(3)
C15_2 C 0.4950(4) 0.8259(4) 0.4923(4)
H7 H 0.5236 0.8448 0.5313
C16_2 C 0.5015(4) 0.7563(3) 0.4746(3)
H8 H 0.5325 0.7257 0.5019
C17_2 C 0.4634(4) 0.7317(3) 0.4179(4)
H9_2 H 0.4689 0.6833 0.4028
C18_2 C 0.4144(3) 0.7765(3) 0.3794(3)
H10_2 H 0.3865 0.7569 0.3402
Co5_2 Co 0.34633(3) 0.93354(3) 0.33471(3)
N26 N 0.9856(2) 0.4663(2) 0.4709(2)
N27_2 N 0.98946(19) 0.39186(19) 0.5730(2)
N28_2 N 0.8449(2) 0.4068(2) 0.6032(2)
C31_2 C 0.9492(3) 0.4365(3) 0.5286(3)
C32_2 C 0.8718(3) 0.4472(3) 0.5452(3)
C33_2 C 0.8259(4) 0.4950(4) 0.5077(4)
H21 H 0.8448 0.5236 0.4687
C34_2 C 0.7563(3) 0.5015(4) 0.5254(3)
H22 H 0.7257 0.5325 0.4981
C35_2 C 0.7317(3) 0.4634(4) 0.5821(4)
H23_2 H 0.6833 0.4689 0.5972
C36_2 C 0.7765(3) 0.4144(3) 0.6206(3)
H24_2 H 0.7569 0.3865 0.6598
Co6_2 Co 0.93354(3) 0.34633(3) 0.66529(3)
Co1_4 Co 0.84072(3) 0.15928(3) 0.7500
N1_3 N 0.7487(2) 0.0875(2) 0.89315(19)
N2_3 N 0.81268(19) 0.11092(19) 0.85533(19)
N3_3 N 0.8458(2) 0.0737(3) 0.9706(2)
N4_3 N 0.9436(2) 0.1477(2) 0.8072(2)
N8_3 N 0.6782(2) 0.13106(19) 0.7374(2)
N9_3 N 0.7358(2) 0.1670(2) 0.7053(2)
N10_3 N 0.6376(2) 0.1811(2) 0.6292(2)
N11_3 N 0.5543(2) 0.0606(2) 0.7702(2)
N12_2 N 0.4856(2) 0.0337(2) 0.7791(2)
C1_3 C 0.7733(3) 0.0668(3) 0.9605(3)
H1_3 H 0.7425 0.0487 0.9982
C2_3 C 0.8666(2) 0.1015(3) 0.9037(3)
C3_3 C 0.9388(3) 0.1198(3) 0.8760(3)
C10_3 C 0.7094(3) 0.1971(3) 0.6417(3)
H6_3 H 0.7372 0.2260 0.6092
C11_3 C 0.6220(3) 0.1407(2) 0.6900(2)
C12_3 C 0.5542(3) 0.1040(2) 0.7098(2)
C13_3 C 0.4492(3) 0.0635(3) 0.7214(3)
C14_3 C 0.3718(3) 0.0528(3) 0.7048(3)
C15_3 C 0.3259(4) 0.0050(4) 0.7423(4)
C17_3 C 0.2317(3) 0.0366(4) 0.6679(4)
H9_3 H 0.1833 0.0311 0.6528
C18_3 C 0.2765(3) 0.0856(3) 0.6294(3)
H10_3 H 0.2569 0.1135 0.5902
N15_3 N 0.9125(2) 0.2513(2) 0.60685(19)
N16_3 N 0.88908(19) 0.18732(19) 0.64467(19)
N17_3 N 0.9263(3) 0.1542(2) 0.5294(2)
N18_3 N 0.8523(2) 0.0564(2) 0.6928(2)
N22_3 N 0.86894(19) 0.3218(2) 0.7626(2)
N23_3 N 0.8330(2) 0.2642(2) 0.7947(2)
N24_3 N 0.8189(2) 0.3624(2) 0.8708(2)
N25_3 N 0.9394(2) 0.4457(2) 0.7298(2)
N26_2 N 0.9663(2) 0.5144(2) 0.7209(2)
C19_3 C 0.9332(3) 0.2267(3) 0.5395(3)
H15_3 H 0.9513 0.2575 0.5018
C20_3 C 0.8985(3) 0.1334(2) 0.5963(3)
C21_3 C 0.8802(3) 0.0612(3) 0.6240(3)
C28_3 C 0.8029(3) 0.2906(3) 0.8583(3)
H20_3 H 0.7740 0.2628 0.8908
C29_3 C 0.8593(2) 0.3780(3) 0.8100(2)
C30_3 C 0.8960(2) 0.4458(3) 0.7902(2)
C31_3 C 0.9365(3) 0.5508(3) 0.7786(3)
C32_3 C 0.9472(3) 0.6282(3) 0.7952(3)
C33_3 C 0.9950(4) 0.6741(4) 0.7577(4)
C35_3 C 0.9634(4) 0.7683(3) 0.8321(4)
H23_3 H 0.9689 0.8167 0.8472
C36_3 C 0.9144(3) 0.7235(3) 0.8706(3)
H24_3 H 0.8865 0.7431 0.9098
Co1_5 Co 0.15928(3) 0.84072(3) 0.2500
N1_4 N 0.2513(2) 0.9125(2) 0.39315(19)
N2_4 N 0.18732(19) 0.88908(19) 0.35533(19)
N3_4 N 0.1542(2) 0.9263(3) 0.4706(2)
N4_4 N 0.0564(2) 0.8523(2) 0.3072(2)
N8_4 N 0.3218(2) 0.86894(19) 0.2374(2)
N9_4 N 0.2642(2) 0.8330(2) 0.2053(2)
N10_4 N 0.3624(2) 0.8189(2) 0.1292(2)
N11_4 N 0.4457(2) 0.9394(2) 0.2702(2)
N12_3 N 0.5144(2) 0.9663(2) 0.2791(2)
C1_4 C 0.2267(3) 0.9332(3) 0.4605(3)
H1_4 H 0.2575 0.9513 0.4982
C2_4 C 0.1334(2) 0.8985(3) 0.4037(3)
C3_4 C 0.0612(3) 0.8802(3) 0.3760(3)
C10_4 C 0.2906(3) 0.8029(3) 0.1417(3)
H6_4 H 0.2628 0.7740 0.1092
C11_4 C 0.3780(3) 0.8593(2) 0.1900(2)
C12_4 C 0.4458(3) 0.8960(2) 0.2098(2)
C13_4 C 0.5508(3) 0.9365(3) 0.2214(3)
C14_4 C 0.6282(3) 0.9472(3) 0.2048(3)
C15_4 C 0.6741(4) 0.9950(4) 0.2423(4)
C17_4 C 0.7683(3) 0.9634(4) 0.1679(4)
H9_4 H 0.8167 0.9689 0.1528
C18_4 C 0.7235(3) 0.9144(3) 0.1294(3)
H10_4 H 0.7431 0.8865 0.0902
O2_3 O 0.0388(2) 0.9537(3) 0.5629(2)
H14_3 H 0.0803 0.9350 0.5382
N15_4 N 0.0875(2) 0.7487(2) 0.10685(19)
N16_4 N 0.11092(19) 0.81268(19) 0.14467(19)
N17_4 N 0.0737(3) 0.8458(2) 0.0294(2)
N18_4 N 0.1477(2) 0.9436(2) 0.1928(2)
N22_4 N 0.13106(19) 0.6782(2) 0.2626(2)
N23_4 N 0.1670(2) 0.7358(2) 0.2947(2)
N24_4 N 0.1811(2) 0.6376(2) 0.3708(2)
N25_4 N 0.0606(2) 0.5543(2) 0.2298(2)
N26_3 N 0.0337(2) 0.4856(2) 0.2209(2)
C19_4 C 0.0668(3) 0.7733(3) 0.0395(3)
H15_4 H 0.0487 0.7425 0.0018
C20_4 C 0.1015(3) 0.8666(2) 0.0963(3)
C21_4 C 0.1198(3) 0.9388(3) 0.1240(3)
C28_4 C 0.1971(3) 0.7094(3) 0.3583(3)
H20_4 H 0.2260 0.7372 0.3908
C29_4 C 0.1407(2) 0.6220(3) 0.3100(2)
C30_4 C 0.1040(2) 0.5542(3) 0.2902(2)
C31_4 C 0.0635(3) 0.4492(3) 0.2786(3)
C32_4 C 0.0528(3) 0.3718(3) 0.2952(3)
C33_4 C 0.0050(4) 0.3259(4) 0.2577(4)
C35_4 C 0.0366(4) 0.2317(3) 0.3321(4)
H23_4 H 0.0311 0.1833 0.3472
C36_4 C 0.0856(3) 0.2765(3) 0.3706(3)
H24_4 H 0.1135 0.2569 0.4098
O4_3 O 0.9537(3) 0.0388(2) 0.4371(2)
H28_3 H 0.9350 0.0803 0.4618
N26_4 N 0.0144(2) 0.5337(2) 0.9709(2)
H21_2 H 0.1552 0.4764 0.9687
H22_2 H 0.2743 0.4675 0.9981
N12_4 N 0.5337(2) 0.0144(2) 0.0291(2)
H7_2 H 0.4764 0.1552 0.0313
H8_2 H 0.4675 0.2743 0.0019
Co3_2 Co 0.05681(4) 0.05681(4) 0.0000
N29_2 N 0.1109(2) 0.0053(2) 0.0909(2)
N30_2 N 0.0936(2) 0.1487(2) 0.0714(2)
Co3_3 Co 0.05681(4) 0.05681(4) 1.0000
N5_3 N 0.0169(2) 0.1589(2) 0.7926(2)
N6_3 N 0.0053(2) 0.1109(2) 0.9091(2)
N7_3 N 0.1487(2) 0.0936(2) 0.9286(2)
C4_3 C 0.0506(3) 0.1349(3) 0.8547(3)
C5_3 C 0.1293(3) 0.1309(3) 0.8656(3)
C6_3 C 0.1816(3) 0.1618(4) 0.8188(4)
H2_3 H 0.1664 0.1877 0.7761
C7_3 C 0.2524(3) 0.1560(4) 0.8323(4)
H3_3 H 0.2871 0.1768 0.8002
C8_3 C 0.2708(4) 0.1205(4) 0.8916(5)
H4_3 H 0.3204 0.1157 0.9021
C9_3 C 0.2211(3) 0.0881(3) 0.9422(4)
H5_3 H 0.2379 0.0630 0.9848
H21_3 H 0.0236 0.6552 0.7187
C34_3 C 0.0015(4) 0.7437(3) 0.7754(3)
H22_3 H 0.0325 0.7743 0.7481
O3_3 O 0.02603(17) 0.29937(19) 0.7194(2)
H25_3 H 0.0331 0.3205 0.7621
H26_3 H 0.0637 0.3054 0.6913
H7_3 H 0.6552 0.0236 0.2813
C16_3 C 0.7437(3) 0.0015(4) 0.2246(3)
H8_3 H 0.7743 0.0325 0.2519
O1_3 O 0.29937(19) 0.02603(17) 0.2806(2)
H11_3 H 0.3205 0.0331 0.2379
H12_3 H 0.3054 0.0637 0.3087
H13_3 H 0.0511 0.0023 0.5743
N19_3 N 0.1589(2) 0.0169(2) 0.2074(2)
C22_3 C 0.1349(3) 0.0506(3) 0.1453(3)
C23_3 C 0.1309(3) 0.1293(3) 0.1344(3)
C24_3 C 0.1618(4) 0.1816(3) 0.1812(4)
H16_3 H 0.1877 0.1664 0.2239
C25_3 C 0.1560(4) 0.2524(3) 0.1677(4)
H17_3 H 0.1768 0.2871 0.1998
C26_3 C 0.1205(4) 0.2708(4) 0.1084(5)
H18_3 H 0.1157 0.3204 0.0979
C27_3 C 0.0881(3) 0.2211(3) 0.0578(4)
H19_3 H 0.0630 0.2379 0.0152
H27_3 H 0.0023 0.0511 0.4257
O4_4 O 0.0463(3) 0.9612(2) 0.9371(2)
H28_4 H 0.0650 0.9197 0.9618
O2_4 O 0.9612(2) 0.0463(3) 0.0629(2)
H14_4 H 0.9197 0.0650 0.0382
H13_4 H 0.9489 0.9977 0.0743
H7_4 H 0.3448 0.9764 0.7813
C16_4 C 0.2563(3) 0.9985(4) 0.7246(3)
H8_4 H 0.2257 0.9675 0.7519
O1_4 O 0.70063(19) 0.97397(17) 0.7806(2)
H11_4 H 0.6795 0.9669 0.7379
H12_4 H 0.6946 0.9363 0.8087
N19_4 N 0.8411(2) 0.9831(2) 0.7074(2)
N20_2 N 0.8891(2) 0.9947(2) 0.5909(2)
N21_2 N 0.9064(2) 0.8513(2) 0.5714(2)
C22_4 C 0.8651(3) 0.9494(3) 0.6453(3)
C23_4 C 0.8691(3) 0.8707(3) 0.6344(3)
C24_4 C 0.8382(4) 0.8184(3) 0.6812(4)
H16_4 H 0.8123 0.8336 0.7239
C25_4 C 0.8440(4) 0.7476(3) 0.6677(4)
H17_4 H 0.8232 0.7129 0.6998
C26_4 C 0.8795(4) 0.7292(4) 0.6084(5)
H18_4 H 0.8843 0.6796 0.5979
C27_4 C 0.9119(3) 0.7789(3) 0.5578(4)
H19_4 H 0.9370 0.7621 0.5152
H27_4 H 0.9977 0.9489 0.9257
Co7_2 Co 0.94319(4) 0.94319(4) 0.5000
N5_4 N 0.9831(2) 0.8411(2) 0.2926(2)
N6_4 N 0.9947(2) 0.8891(2) 0.4091(2)
N7_4 N 0.8513(2) 0.9064(2) 0.4286(2)
C4_4 C 0.9494(3) 0.8651(3) 0.3547(3)
C5_4 C 0.8707(3) 0.8691(3) 0.3656(3)
C6_4 C 0.8184(3) 0.8382(4) 0.3188(4)
H2_4 H 0.8336 0.8123 0.2761
C7_4 C 0.7476(3) 0.8440(4) 0.3323(4)
H3_4 H 0.7129 0.8232 0.3002
C8_4 C 0.7292(4) 0.8795(4) 0.3916(5)
H4_4 H 0.6796 0.8843 0.4021
C9_4 C 0.7789(3) 0.9119(3) 0.4422(4)
H5_4 H 0.7621 0.9370 0.4848
H21_4 H 0.9764 0.3448 0.2187
C34_4 C 0.9985(4) 0.2563(3) 0.2754(3)
H22_4 H 0.9675 0.2257 0.2481
O3_4 O 0.97397(17) 0.70063(19) 0.2194(2)
H25_4 H 0.9669 0.6795 0.2621
H26_4 H 0.9363 0.6946 0.1913
loop_
_geom_bond_atom_site_label_1
_geom_bond_atom_site_label_2
_geom_bond_site_symmetry_1
_geom_bond_site_symmetry_2
N28 C32 1_555 1_555
C32 C31 1_555 1_555
C33 C32 1_555 1_555
C34 C33 1_555 1_555
C35 C34 1_555 1_555
H23 C35 1_555 1_555
C36 N28 1_555 1_555
H24 C36 1_555 1_555
Co6 N27 1_555 1_555
N27 C31 1_555 1_555
N28 Co6 1_555 1_555
C35 C36 1_555 1_555
N14 C14 1_555 1_555
C14 C13 1_555 1_555
C15 C14 1_555 1_555
C16 C15 1_555 1_555
C17 C16 1_555 1_555
H9 C17 1_555 1_555
C18 N14 1_555 1_555
H10 C18 1_555 1_555
Co5 N13 1_555 1_555
N13 C13 1_555 1_555
N14 Co5 1_555 1_555
C17 C18 1_555 1_555
Co1 N2 1_555 1_555
Co2 N1 1_555 1_555
Co3 N6 1_555 1_555
N1 N2 1_555 1_555
N2 C2 1_555 1_555
N3 C1 1_555 1_555
N4 Co1 1_555 1_555
N5 N4 1_555 1_555
N6 C3 1_555 1_555
N7 Co3 1_555 1_555
N11 Co2 1_555 1_555
C1 N1 1_555 1_555
H1 C1 1_555 1_555
C2 N3 1_555 1_555
C3 N4 1_555 1_555
C4 N5 1_555 1_555
C5 N7 1_555 1_555
C6 C5 1_555 1_555
H2 C6 1_555 1_555
C7 C6 1_555 1_555
H3 C7 1_555 1_555
C8 C7 1_555 1_555
H4 C8 1_555 1_555
C9 N7 1_555 1_555
H5 C9 1_555 1_555
O1 Co2 1_555 1_555
H12 O1 1_555 1_555
O2 Co3 1_555 1_555
H13 O2 1_555 1_555
H14 O2 1_555 1_555
N23 Co1 1_555 1_555
N24 C28 1_555 1_555
C28 N23 1_555 1_555
H20 C28 1_555 1_555
C29 N22 1_555 1_555
O4 Co3 1_555 1_555
H27 O4 1_555 1_555
H28 O4 1_555 1_555
N29 Co3 1_555 1_555
N30 Co3 1_555 1_555
N31 Co2 1_555 1_555
N33 Co2 1_555 1_555
N6 C4 1_555 1_555
C2 C3 1_555 1_555
C4 C5 1_555 1_555
C8 C9 1_555 1_555
N22 N23 1_555 1_555
N24 C29 1_555 1_555
C29 C30 1_555 1_555
N9 Co1_2 1_555 1_555
N10 C10 1_555 1_555
C10 N9 1_555 1_555
H6 C10 1_555 1_555
C11 N8 1_555 1_555
Co4 N15 1_555 1_555
N15 N16 1_555 1_555
N16 Co1_2 1_555 1_555
N17 C19 1_555 1_555
N18 Co1_2 1_555 1_555
N19 N18 1_555 1_555
N20 C21 1_555 1_555
N21 C23 1_555 1_555
N25 Co4 1_555 1_555
C19 N15 1_555 1_555
H15 C19 1_555 1_555
C20 N16 1_555 1_555
C21 N18 1_555 1_555
C22 N19 1_555 1_555
C23 C22 1_555 1_555
C24 C23 1_555 1_555
H16 C24 1_555 1_555
C25 C24 1_555 1_555
H17 C25 1_555 1_555
C26 C25 1_555 1_555
H18 C26 1_555 1_555
C27 N21 1_555 1_555
H19 C27 1_555 1_555
O3 Co4 1_555 1_555
H26 O3 1_555 1_555
Co7 N20 1_555 1_555
N32 Co4 1_555 1_555
N34 Co4 1_555 1_555
N8 N9 1_555 1_555
N10 C11 1_555 1_555
C11 C12 1_555 1_555
N17 C20 1_555 1_555
N20 C22 1_555 1_555
N21 Co7 1_555 1_555
C20 C21 1_555 1_555
C26 C27 1_555 1_555
Co1_3 N2_2 1_555 1_555
Co2_2 N1_2 1_555 1_555
Co7 N6_2 1_555 1_555
N1_2 N2_2 1_555 1_555
N2_2 C2_2 1_555 1_555
N3_2 C1_2 1_555 1_555
N4_2 Co1_3 1_555 1_555
N5_2 N4_2 1_555 1_555
N6_2 C3_2 1_555 1_555
N7_2 Co7 1_555 1_555
N8_2 Co2_2 1_555 1_555
N9_2 Co1_3 1_555 1_555
N10_2 C10_2 1_555 1_555
N11_2 Co2_2 1_555 1_555
C1_2 N1_2 1_555 1_555
H1_2 C1_2 1_555 1_555
C2_2 N3_2 1_555 1_555
C3_2 N4_2 1_555 1_555
C4_2 N5_2 1_555 1_555
C5_2 N7_2 1_555 1_555
C6_2 C5_2 1_555 1_555
H2_2 C6_2 1_555 1_555
C7_2 C6_2 1_555 1_555
H3_2 C7_2 1_555 1_555
C8_2 C7_2 1_555 1_555
H4_2 C8_2 1_555 1_555
C9_2 N7_2 1_555 1_555
H5_2 C9_2 1_555 1_555
C10_2 N9_2 1_555 1_555
H6_2 C10_2 1_555 1_555
C11_2 N8_2 1_555 1_555
C12_2 N11_2 1_555 1_555
O1_2 Co2_2 1_555 1_555
H11_2 O1_2 1_555 1_555
H12_2 O1_2 1_555 1_555
O2_2 Co7 1_555 1_555
H13_2 O2_2 1_555 1_555
H14_2 O2_2 1_555 1_555
Co4_2 N15_2 1_555 1_555
N15_2 N16_2 1_555 1_555
N16_2 Co1_3 1_555 1_555
N17_2 C19_2 1_555 1_555
N18_2 Co1_3 1_555 1_555
N19_2 N18_2 1_555 1_555
N29 C21_2 1_555 1_555
N30 C23_2 1_555 1_555
N22_2 Co4_2 1_555 1_555
N23_2 Co1_3 1_555 1_555
N24_2 C28_2 1_555 1_555
N25_2 Co4_2 1_555 1_555
C19_2 N15_2 1_555 1_555
H15_2 C19_2 1_555 1_555
C20_2 N16_2 1_555 1_555
C21_2 N18_2 1_555 1_555
C22_2 N19_2 1_555 1_555
C23_2 C22_2 1_555 1_555
C24_2 C23_2 1_555 1_555
H16_2 C24_2 1_555 1_555
C25_2 C24_2 1_555 1_555
H17_2 C25_2 1_555 1_555
C26_2 C25_2 1_555 1_555
H18_2 C26_2 1_555 1_555
C27_2 N30 1_555 1_555
H19_2 C27_2 1_555 1_555
C28_2 N23_2 1_555 1_555
H20_2 C28_2 1_555 1_555
C29_2 N22_2 1_555 1_555
C30_2 N25_2 1_555 1_555
O3_2 Co4_2 1_555 1_555
H25_2 O3_2 1_555 1_555
H26_2 O3_2 1_555 1_555
O4_2 Co7 1_555 1_555
H27_2 O4_2 1_555 1_555
H28_2 O4_2 1_555 1_555
N31_2 Co2_2 1_555 1_555
N32_2 Co4_2 1_555 1_555
N33_2 Co2_2 1_555 1_555
N34_2 Co4_2 1_555 1_555
N6_2 C4_2 1_555 1_555
N8_2 N9_2 1_555 1_555
N10_2 C11_2 1_555 1_555
C2_2 C3_2 1_555 1_555
C4_2 C5_2 1_555 1_555
C8_2 C9_2 1_555 1_555
C11_2 C12_2 1_555 1_555
N17_2 C20_2 1_555 1_555
N29 C22_2 1_555 1_555
N22_2 N23_2 1_555 1_555
N24_2 C29_2 1_555 1_555
C20_2 C21_2 1_555 1_555
C26_2 C27_2 1_555 1_555
C29_2 C30_2 1_555 1_555
N14_2 C14_2 1_555 1_555
C13_2 N12 1_555 1_555
C14_2 C13_2 1_555 1_555
C15_2 C14_2 1_555 1_555
H7 C15_2 1_555 1_555
C16_2 C15_2 1_555 1_555
H8 C16_2 1_555 1_555
C17_2 C16_2 1_555 1_555
H9_2 C17_2 1_555 1_555
C18_2 N14_2 1_555 1_555
H10_2 C18_2 1_555 1_555
Co5_2 N13_2 1_555 1_555
N13_2 C13_2 1_555 1_555
N14_2 Co5_2 1_555 1_555
C17_2 C18_2 1_555 1_555
N28_2 C32_2 1_555 1_555
C31_2 N26 1_555 1_555
C32_2 C31_2 1_555 1_555
C33_2 C32_2 1_555 1_555
H21 C33_2 1_555 1_555
C34_2 C33_2 1_555 1_555
H22 C34_2 1_555 1_555
C35_2 C34_2 1_555 1_555
H23_2 C35_2 1_555 1_555
C36_2 N28_2 1_555 1_555
H24_2 C36_2 1_555 1_555
Co6_2 N27_2 1_555 1_555
N27_2 C31_2 1_555 1_555
N28_2 Co6_2 1_555 1_555
C35_2 C36_2 1_555 1_555
Co1_4 N2_3 1_555 1_555
Co5 N1_3 1_555 1_555
N1_3 N2_3 1_555 1_555
N2_3 C2_3 1_555 1_555
N3_3 C1_3 1_555 1_555
N4_3 Co1_4 1_555 1_555
N8_3 Co5 1_555 1_555
N9_3 Co1_4 1_555 1_555
N10_3 C10_3 1_555 1_555
N11_3 Co5 1_555 1_555
N12_2 N11_3 1_555 1_555
N31_2 C12_3 1_555 1_555
N33_2 C14_3 1_555 1_555
C1_3 N1_3 1_555 1_555
H1_3 C1_3 1_555 1_555
C2_3 N3_3 1_555 1_555
C3_3 N4_3 1_555 1_555
C10_3 N9_3 1_555 1_555
H6_3 C10_3 1_555 1_555
C11_3 N8_3 1_555 1_555
C12_3 N11_3 1_555 1_555
C13_3 N12_2 1_555 1_555
C14_3 C13_3 1_555 1_555
C15_3 C14_3 1_555 1_555
H9_3 C17_3 1_555 1_555
C18_3 N33_2 1_555 1_555
H10_3 C18_3 1_555 1_555
Co6_2 N15_3 1_555 1_555
N15_3 N16_3 1_555 1_555
N16_3 Co1_4 1_555 1_555
N17_3 C19_3 1_555 1_555
N18_3 Co1_4 1_555 1_555
N22_3 Co6_2 1_555 1_555
N23_3 Co1_4 1_555 1_555
N24_3 C28_3 1_555 1_555
N25_3 Co6_2 1_555 1_555
N26_2 N25_3 1_555 1_555
N32 C30_3 1_555 1_555
N34 C32_3 1_555 1_555
C19_3 N15_3 1_555 1_555
H15_3 C19_3 1_555 1_555
C20_3 N16_3 1_555 1_555
C21_3 N18_3 1_555 1_555
C28_3 N23_3 1_555 1_555
H20_3 C28_3 1_555 1_555
C29_3 N22_3 1_555 1_555
C30_3 N25_3 1_555 1_555
C31_3 N26_2 1_555 1_555
C32_3 C31_3 1_555 1_555
C33_3 C32_3 1_555 1_555
H23_3 C35_3 1_555 1_555
C36_3 N34 1_555 1_555
H24_3 C36_3 1_555 1_555
N8_3 N9_3 1_555 1_555
N10_3 C11_3 1_555 1_555
N31_2 C13_3 1_555 1_555
C2_3 C3_3 1_555 1_555
C11_3 C12_3 1_555 1_555
C17_3 C18_3 1_555 1_555
N17_3 C20_3 1_555 1_555
N22_3 N23_3 1_555 1_555
N24_3 C29_3 1_555 1_555
N32 C31_3 1_555 1_555
C20_3 C21_3 1_555 1_555
C29_3 C30_3 1_555 1_555
C35_3 C36_3 1_555 1_555
Co1_5 N2_4 1_555 1_555
Co5_2 N1_4 1_555 1_555
N1_4 N2_4 1_555 1_555
N2_4 C2_4 1_555 1_555
N3_4 C1_4 1_555 1_555
N4_4 Co1_5 1_555 1_555
N8_4 Co5_2 1_555 1_555
N9_4 Co1_5 1_555 1_555
N10_4 C10_4 1_555 1_555
N11_4 Co5_2 1_555 1_555
N12_3 N11_4 1_555 1_555
N31 C12_4 1_555 1_555
N33 C14_4 1_555 1_555
C1_4 N1_4 1_555 1_555
H1_4 C1_4 1_555 1_555
C2_4 N3_4 1_555 1_555
C3_4 N4_4 1_555 1_555
C10_4 N9_4 1_555 1_555
H6_4 C10_4 1_555 1_555
C11_4 N8_4 1_555 1_555
C12_4 N11_4 1_555 1_555
C13_4 N12_3 1_555 1_555
C14_4 C13_4 1_555 1_555
C15_4 C14_4 1_555 1_555
H9_4 C17_4 1_555 1_555
C18_4 N33 1_555 1_555
H10_4 C18_4 1_555 1_555
H14_3 O2_3 1_555 1_555
Co6 N15_4 1_555 1_555
N15_4 N16_4 1_555 1_555
N16_4 Co1_5 1_555 1_555
N17_4 C19_4 1_555 1_555
N18_4 Co1_5 1_555 1_555
N22_4 Co6 1_555 1_555
N23_4 Co1_5 1_555 1_555
N24_4 C28_4 1_555 1_555
N25_4 Co6 1_555 1_555
N26_3 N25_4 1_555 1_555
N32_2 C30_4 1_555 1_555
N34_2 C32_4 1_555 1_555
C19_4 N15_4 1_555 1_555
H15_4 C19_4 1_555 1_555
C20_4 N16_4 1_555 1_555
C21_4 N18_4 1_555 1_555
C28_4 N23_4 1_555 1_555
H20_4 C28_4 1_555 1_555
C29_4 N22_4 1_555 1_555
C30_4 N25_4 1_555 1_555
C31_4 N26_3 1_555 1_555
C32_4 C31_4 1_555 1_555
C33_4 C32_4 1_555 1_555
H23_4 C35_4 1_555 1_555
C36_4 N34_2 1_555 1_555
H24_4 C36_4 1_555 1_555
N8_4 N9_4 1_555 1_555
N10_4 C11_4 1_555 1_555
N31 C13_4 1_555 1_555
C2_4 C3_4 1_555 1_555
C11_4 C12_4 1_555 1_555
C17_4 C18_4 1_555 1_555
N17_4 C20_4 1_555 1_555
N22_4 N23_4 1_555 1_555
N24_4 C29_4 1_555 1_555
N32_2 C31_4 1_555 1_555
C20_4 C21_4 1_555 1_555
C29_4 C30_4 1_555 1_555
C35_4 C36_4 1_555 1_555
H28_3 O4_3 1_555 1_555
N29_2 Co3_2 1_555 1_555
N30_2 Co3_2 1_555 1_555
Co3_3 N6_3 1_555 1_555
N7_3 Co3_3 1_555 1_555
C4_3 N5_3 1_555 1_555
C5_3 N7_3 1_555 1_555
C6_3 C5_3 1_555 1_555
H2_3 C6_3 1_555 1_555
C7_3 C6_3 1_555 1_555
H3_3 C7_3 1_555 1_555
C8_3 C7_3 1_555 1_555
H4_3 C8_3 1_555 1_555
C9_3 N7_3 1_555 1_555
H5_3 C9_3 1_555 1_555
H22_3 C34_3 1_555 1_555
H25_3 O3_3 1_555 1_555
H26_3 O3_3 1_555 1_555
N6_3 C4_3 1_555 1_555
C4_3 C5_3 1_555 1_555
C8_3 C9_3 1_555 1_555
H8_3 C16_3 1_555 1_555
H11_3 O1_3 1_555 1_555
H12_3 O1_3 1_555 1_555
N30_2 C23_3 1_555 1_555
C22_3 N19_3 1_555 1_555
C23_3 C22_3 1_555 1_555
C24_3 C23_3 1_555 1_555
H16_3 C24_3 1_555 1_555
C25_3 C24_3 1_555 1_555
H17_3 C25_3 1_555 1_555
C26_3 C25_3 1_555 1_555
H18_3 C26_3 1_555 1_555
C27_3 N30_2 1_555 1_555
H19_3 C27_3 1_555 1_555
N29_2 C22_3 1_555 1_555
C26_3 C27_3 1_555 1_555
H28_4 O4_4 1_555 1_555
H14_4 O2_4 1_555 1_555
H8_4 C16_4 1_555 1_555
H11_4 O1_4 1_555 1_555
H12_4 O1_4 1_555 1_555
N21_2 C23_4 1_555 1_555
C22_4 N19_4 1_555 1_555
C23_4 C22_4 1_555 1_555
C24_4 C23_4 1_555 1_555
H16_4 C24_4 1_555 1_555
C25_4 C24_4 1_555 1_555
H17_4 C25_4 1_555 1_555
C26_4 C25_4 1_555 1_555
H18_4 C26_4 1_555 1_555
C27_4 N21_2 1_555 1_555
H19_4 C27_4 1_555 1_555
Co7_2 N20_2 1_555 1_555
N20_2 C22_4 1_555 1_555
N21_2 Co7_2 1_555 1_555
C26_4 C27_4 1_555 1_555
Co7_2 N6_4 1_555 1_555
N7_4 Co7_2 1_555 1_555
C4_4 N5_4 1_555 1_555
C5_4 N7_4 1_555 1_555
C6_4 C5_4 1_555 1_555
H2_4 C6_4 1_555 1_555
C7_4 C6_4 1_555 1_555
H3_4 C7_4 1_555 1_555
C8_4 C7_4 1_555 1_555
H4_4 C8_4 1_555 1_555
C9_4 N7_4 1_555 1_555
H5_4 C9_4 1_555 1_555
H22_4 C34_4 1_555 1_555
H25_4 O3_4 1_555 1_555
H26_4 O3_4 1_555 1_555
N6_4 C4_4 1_555 1_555
C4_4 C5_4 1_555 1_555
C8_4 C9_4 1_555 1_555

#END
