
###############################################################################
#
# This file contains modified crystal structure data generated from the
# MOF subset of the Cambridge Structural Database (CSD) v543 
# hosted by the Cambridge Crystallographic Data Centre (CCDC).
#
# This work is licensed under the Creative Commons
# Attribution-NonCommercial-ShareAlike 4.0 International License.
# To view a copy of this license, visit
# http://creativecommons.org/licenses/by-nc-sa/4.0/
# or send a letter to
# Creative Commons, PO Box 1866, Mountain View, CA 94042, USA.
#
# CIF created using the CSD Python API on 29 September 2022
# The structure has been converted into the P1 space group
# The structure has a 3D framework
# The original CSD entry HIKSIF is in the cubic crystal system
# The framework has been calculated to contain at least 10.0% void space
# The void calculation uses a probe of radius 1.32A, grid spacing 0.4
#
###############################################################################

data_HIKSIF
_chemical_formula_moiety         '(C240 H96 Cu6 N24 O38 Zr6)n'
_symmetry_cell_setting           triclinic
_symmetry_space_group_name_H-M   'P 1'
_symmetry_Int_Tables_number      1
_space_group_name_Hall           'P 1'
loop_
_symmetry_equiv_pos_site_id
_symmetry_equiv_pos_as_xyz
1 x,y,z
_cell_length_a                   19.51(3)
_cell_length_b                   19.51(3)
_cell_length_c                   19.51(3)
_cell_angle_alpha                90
_cell_angle_beta                 90
_cell_angle_gamma                90
_cell_volume                     7426.29
loop_
_atom_site_label
_atom_site_type_symbol
_atom_site_fract_x
_atom_site_fract_y
_atom_site_fract_z
O19 O 0.117(3) 0.0000 0.0000
Zr4 Zr 0.06893(8) 0.06893(8) 0.06893(8)
O27 O 0.0000 0.117(3) 0.0000
O29 O 0.0000 0.0000 0.117(3)
O31 O 0.1419(6) 0.0571(3) 0.1419(6)
O39 O 0.1419(6) 0.1419(6) 0.0571(3)
O40 O 0.0571(3) 0.1419(6) 0.1419(6)
O19_2 O 0.117(3) 0.0000 1.0000
O27_2 O 0.0000 0.117(3) 1.0000
Zr27 Zr 0.06893(8) 0.06893(8) 0.93107(8)
O53 O 0.0000 0.0000 0.883(3)
O2 O 0.0000 0.883(3) 0.0000
Cu3 Cu 0.0000 0.5000 0.5000
Zr3 Zr 0.06893(8) 0.93107(8) 0.06893(8)
C97 C 0.0000 0.8379(6) 0.1621(6)
C98 C 0.0000 0.6284(4) 0.3716(4)
C99 C 0.0000 0.6831(4) 0.3169(4)
C100 C 0.0000 0.5573(2) 0.3603(7)
C101 C 0.0000 0.5347(3) 0.2914(7)
H49 H 0.0000 0.5636 0.2515
C102 C 0.0605(3) 0.7578(5) 0.2422(5)
H50 H 0.1028 0.7749 0.2251
N9 N 0.0000 0.5000 0.3996(7)
C103 C 0.0607(3) 0.7085(5) 0.2915(5)
H51 H 0.1030 0.6915 0.3085
C104 C 0.0000 0.7832(5) 0.2168(5)
O18 O 0.0571(3) 0.8581(6) 0.1419(6)
O19_3 O 0.117(3) 1.0000 0.0000
C105 C 0.0000 0.1621(6) 0.1621(6)
C106 C 0.0000 0.3716(4) 0.3716(4)
C107 C 0.0000 0.3169(4) 0.3169(4)
C108 C 0.0000 0.4427(2) 0.3603(7)
C109 C 0.0000 0.4653(3) 0.2914(7)
H52 H 0.0000 0.4364 0.2515
C112 C 0.0000 0.2168(5) 0.2168(5)
C113 C 0.0000 0.6397(7) 0.4427(2)
C114 C 0.0000 0.7086(7) 0.4653(3)
H55 H 0.0000 0.7485 0.4364
N10 N 0.0000 0.6004(7) 0.5000
C117 C 0.0605(3) 0.2422(5) 0.2422(5)
H58 H 0.1028 0.2251 0.2251
C118 C 0.0607(3) 0.2915(5) 0.2915(5)
H59 H 0.1030 0.3085 0.3085
C119 C -0.0000 0.3603(7) 0.4427(2)
C120 C 0.0000 0.2914(7) 0.4653(3)
H60 H 0.0000 0.2515 0.4364
N11 N 0.0000 0.3996(7) 0.5000
C121 C 0.0000 0.8379(6) 0.8379(6)
C122 C 0.0000 0.6284(4) 0.6284(4)
C123 C 0.0000 0.6831(4) 0.6831(4)
C124 C 0.0000 0.6397(7) 0.5573(2)
C125 C 0.0000 0.7086(7) 0.5347(3)
H61 H 0.0000 0.7485 0.5636
C126 C 0.0605(3) 0.7578(5) 0.7578(5)
H62 H 0.1028 0.7749 0.7749
C127 C 0.0607(3) 0.7085(5) 0.7085(5)
H63 H 0.1030 0.6915 0.6915
C128 C 0.0000 0.7832(5) 0.7832(5)
O23 O 0.0571(3) 0.8581(6) 0.8581(6)
C129 C 0.0000 0.1621(6) 0.8379(6)
C130 C 0.0000 0.3716(4) 0.6284(4)
C131 C 0.0000 0.3169(4) 0.6831(4)
C132 C -0.0000 0.3603(7) 0.5573(2)
C133 C 0.0000 0.2914(7) 0.5347(3)
H64 H 0.0000 0.2515 0.5636
C136 C 0.0000 0.2168(5) 0.7832(5)
C139 C 0.0605(3) 0.2422(5) 0.7578(5)
H69 H 0.1028 0.2251 0.7749
C140 C 0.0607(3) 0.2915(5) 0.7085(5)
H70 H 0.1030 0.3085 0.6915
O26 O 0.0571(3) 0.1419(6) 0.8581(6)
C141 C 0.0000 0.5573(2) 0.6397(7)
C142 C 0.0000 0.5347(3) 0.7086(7)
H71 H 0.0000 0.5636 0.7485
N12 N 0.0000 0.5000 0.6004(7)
C143 C 0.0000 0.4427(2) 0.6397(7)
C144 C 0.0000 0.4653(3) 0.7086(7)
H72 H 0.0000 0.4364 0.7485
O29_2 O 0.0000 1.0000 0.117(3)
Zr23 Zr 0.06893(8) 0.93107(8) 0.93107(8)
O37 O 0.1419(6) 0.9429(3) 0.1419(6)
O45 O 0.1419(6) 0.8581(6) 0.0571(3)
O2_2 O 0.0000 0.883(3) 1.0000
O19_4 O 0.117(3) 1.0000 1.0000
O53_2 O 0.0000 1.0000 0.883(3)
Cu1 Cu 0.5000 0.0000 0.5000
C1 C 0.8379(6) 0.0000 0.1621(6)
C2 C 0.6284(4) 0.0000 0.3716(4)
C3 C 0.6831(4) 0.0000 0.3169(4)
C4 C 0.5573(2) 0.0000 0.3603(7)
C5 C 0.5347(3) 0.0000 0.2914(7)
H1 H 0.5636 0.0000 0.2515
N1 N 0.5000 0.0000 0.3996(7)
C8 C 0.7832(5) 0.0000 0.2168(5)
C9 C 0.1621(6) 0.0000 0.1621(6)
C10 C 0.3716(4) 0.0000 0.3716(4)
C11 C 0.3169(4) 0.0000 0.3169(4)
C12 C 0.4427(2) 0.0000 0.3603(7)
C13 C 0.4653(3) 0.0000 0.2914(7)
H4 H 0.4364 0.0000 0.2515
C14 C 0.2422(5) 0.0605(3) 0.2422(5)
H5 H 0.2251 0.1028 0.2251
C15 C 0.2915(5) 0.0607(3) 0.2915(5)
H6 H 0.3085 0.1030 0.3085
C16 C 0.2168(5) 0.0000 0.2168(5)
C17 C 0.6397(7) 0.0000 0.4427(2)
C18 C 0.7086(7) 0.0000 0.4653(3)
H7 H 0.7485 0.0000 0.4364
C19 C 0.7578(5) 0.0605(3) 0.2422(5)
H8 H 0.7749 0.1028 0.2251
N2 N 0.6004(7) 0.0000 0.5000
C20 C 0.7085(5) 0.0607(3) 0.2915(5)
H9 H 0.6915 0.1030 0.3085
O4 O 0.8581(6) 0.0571(3) 0.1419(6)
C23 C 0.3603(7) 0.0000 0.4427(2)
C24 C 0.2914(7) 0.0000 0.4653(3)
H12 H 0.2515 0.0000 0.4364
N3 N 0.3996(7) 0.0000 0.5000
C25 C 0.8379(6) 0.0000 0.8379(6)
C26 C 0.6284(4) 0.0000 0.6284(4)
C27 C 0.6831(4) 0.0000 0.6831(4)
C28 C 0.6397(7) 0.0000 0.5573(2)
C29 C 0.7086(7) 0.0000 0.5347(3)
H13 H 0.7485 0.0000 0.5636
C32 C 0.7832(5) 0.0000 0.7832(5)
C33 C 0.1621(6) 0.0000 0.8379(6)
C34 C 0.3716(4) 0.0000 0.6284(4)
C35 C 0.3169(4) 0.0000 0.6831(4)
C36 C 0.3603(7) 0.0000 0.5573(2)
C37 C 0.2914(7) 0.0000 0.5347(3)
H16 H 0.2515 0.0000 0.5636
C38 C 0.2422(5) 0.0605(3) 0.7578(5)
H17 H 0.2251 0.1028 0.7749
C39 C 0.2915(5) 0.0607(3) 0.7085(5)
H18 H 0.3085 0.1030 0.6915
C40 C 0.2168(5) 0.0000 0.7832(5)
O7 O 0.1419(6) 0.0571(3) 0.8581(6)
C41 C 0.7578(5) 0.0605(3) 0.7578(5)
H19 H 0.7749 0.1028 0.7749
C42 C 0.7085(5) 0.0607(3) 0.7085(5)
H20 H 0.6915 0.1030 0.6915
O8 O 0.8581(6) 0.0571(3) 0.8581(6)
C45 C 0.5573(2) 0.0000 0.6397(7)
C46 C 0.5347(3) 0.0000 0.7086(7)
H23 H 0.5636 0.0000 0.7485
N4 N 0.5000 0.0000 0.6004(7)
C47 C 0.4427(2) 0.0000 0.6397(7)
C48 C 0.4653(3) 0.0000 0.7086(7)
H24 H 0.4364 0.0000 0.7485
O27_3 O 1.0000 0.117(3) 0.0000
Zr6 Zr 0.93107(8) 0.06893(8) 0.06893(8)
O28 O 0.883(3) 0.0000 0.0000
O29_3 O 1.0000 0.0000 0.117(3)
Zr19 Zr 0.93107(8) 0.06893(8) 0.93107(8)
O32 O 0.9429(3) 0.1419(6) 0.1419(6)
O36 O 0.8581(6) 0.1419(6) 0.0571(3)
O27_4 O 1.0000 0.117(3) 1.0000
O28_2 O 0.883(3) 0.0000 1.0000
O53_3 O 1.0000 0.0000 0.883(3)
Cu1_2 Cu 0.5000 1.0000 0.5000
Zr1 Zr 0.93107(8) 0.93107(8) 0.06893(8)
C1_2 C 0.8379(6) 1.0000 0.1621(6)
C2_2 C 0.6284(4) 1.0000 0.3716(4)
C3_2 C 0.6831(4) 1.0000 0.3169(4)
C4_2 C 0.5573(2) 1.0000 0.3603(7)
C5_2 C 0.5347(3) 1.0000 0.2914(7)
H1_2 H 0.5636 1.0000 0.2515
C6 C 0.7578(5) 0.9395(3) 0.2422(5)
H2 H 0.7749 0.8972 0.2251
N1_2 N 0.5000 1.0000 0.3996(7)
C7 C 0.7085(5) 0.9393(3) 0.2915(5)
H3 H 0.6915 0.8970 0.3085
C8_2 C 0.7832(5) 1.0000 0.2168(5)
O1 O 0.8581(6) 0.9429(3) 0.1419(6)
O2_3 O 1.0000 0.883(3) 0.0000
C9_2 C 0.1621(6) 1.0000 0.1621(6)
C10_2 C 0.3716(4) 1.0000 0.3716(4)
C11_2 C 0.3169(4) 1.0000 0.3169(4)
C12_2 C 0.4427(2) 1.0000 0.3603(7)
C13_2 C 0.4653(3) 1.0000 0.2914(7)
H4_2 H 0.4364 1.0000 0.2515
C16_2 C 0.2168(5) 1.0000 0.2168(5)
C17_2 C 0.6397(7) 1.0000 0.4427(2)
C18_2 C 0.7086(7) 1.0000 0.4653(3)
H7_2 H 0.7485 1.0000 0.4364
N2_2 N 0.6004(7) 1.0000 0.5000
C21 C 0.2422(5) 0.9395(3) 0.2422(5)
H10 H 0.2251 0.8972 0.2251
C22 C 0.2915(5) 0.9393(3) 0.2915(5)
H11 H 0.3085 0.8970 0.3085
C23_2 C 0.3603(7) 1.0000 0.4427(2)
C24_2 C 0.2914(7) 1.0000 0.4653(3)
H12_2 H 0.2515 1.0000 0.4364
N3_2 N 0.3996(7) 1.0000 0.5000
C25_2 C 0.8379(6) 1.0000 0.8379(6)
C26_2 C 0.6284(4) 1.0000 0.6284(4)
C27_2 C 0.6831(4) 1.0000 0.6831(4)
C28_2 C 0.6397(7) 1.0000 0.5573(2)
C29_2 C 0.7086(7) 1.0000 0.5347(3)
H13_2 H 0.7485 1.0000 0.5636
C30 C 0.7578(5) 0.9395(3) 0.7578(5)
H14 H 0.7749 0.8972 0.7749
C31 C 0.7085(5) 0.9393(3) 0.7085(5)
H15 H 0.6915 0.8970 0.6915
C32_2 C 0.7832(5) 1.0000 0.7832(5)
O6 O 0.8581(6) 0.9429(3) 0.8581(6)
C33_2 C 0.1621(6) 1.0000 0.8379(6)
C34_2 C 0.3716(4) 1.0000 0.6284(4)
C35_2 C 0.3169(4) 1.0000 0.6831(4)
C36_2 C 0.3603(7) 1.0000 0.5573(2)
C37_2 C 0.2914(7) 1.0000 0.5347(3)
H16_2 H 0.2515 1.0000 0.5636
C40_2 C 0.2168(5) 1.0000 0.7832(5)
C43 C 0.2422(5) 0.9395(3) 0.7578(5)
H21 H 0.2251 0.8972 0.7749
C44 C 0.2915(5) 0.9393(3) 0.7085(5)
H22 H 0.3085 0.8970 0.6915
O9 O 0.1419(6) 0.9429(3) 0.8581(6)
C45_2 C 0.5573(2) 1.0000 0.6397(7)
C46_2 C 0.5347(3) 1.0000 0.7086(7)
H23_2 H 0.5636 1.0000 0.7485
N4_2 N 0.5000 1.0000 0.6004(7)
C47_2 C 0.4427(2) 1.0000 0.6397(7)
C48_2 C 0.4653(3) 1.0000 0.7086(7)
H24_2 H 0.4364 1.0000 0.7485
Cu3_2 Cu 1.0000 0.5000 0.5000
C97_2 C 1.0000 0.8379(6) 0.1621(6)
C98_2 C 1.0000 0.6284(4) 0.3716(4)
C99_2 C 1.0000 0.6831(4) 0.3169(4)
C100_2 C 1.0000 0.5573(2) 0.3603(7)
C101_2 C 1.0000 0.5347(3) 0.2914(7)
H49_2 H 1.0000 0.5636 0.2515
N9_2 N 1.0000 0.5000 0.3996(7)
C104_2 C 1.0000 0.7832(5) 0.2168(5)
C105_2 C 1.0000 0.1621(6) 0.1621(6)
C106_2 C 1.0000 0.3716(4) 0.3716(4)
C107_2 C 1.0000 0.3169(4) 0.3169(4)
C108_2 C 1.0000 0.4427(2) 0.3603(7)
C109_2 C 1.0000 0.4653(3) 0.2914(7)
H52_2 H 1.0000 0.4364 0.2515
C110 C 0.9395(3) 0.2422(5) 0.2422(5)
H53 H 0.8972 0.2251 0.2251
C111 C 0.9393(3) 0.2915(5) 0.2915(5)
H54 H 0.8970 0.3085 0.3085
C112_2 C 1.0000 0.2168(5) 0.2168(5)
C113_2 C 1.0000 0.6397(7) 0.4427(2)
C114_2 C 1.0000 0.7086(7) 0.4653(3)
H55_2 H 1.0000 0.7485 0.4364
C115 C 0.9395(3) 0.7578(5) 0.2422(5)
H56 H 0.8972 0.7749 0.2251
N10_2 N 1.0000 0.6004(7) 0.5000
C116 C 0.9393(3) 0.7085(5) 0.2915(5)
H57 H 0.8970 0.6915 0.3085
O21 O 0.9429(3) 0.8581(6) 0.1419(6)
C119_2 C 1.0000 0.3603(7) 0.4427(2)
C120_2 C 1.0000 0.2914(7) 0.4653(3)
H60_2 H 1.0000 0.2515 0.4364
N11_2 N 1.0000 0.3996(7) 0.5000
C121_2 C 1.0000 0.8379(6) 0.8379(6)
C122_2 C 1.0000 0.6284(4) 0.6284(4)
C123_2 C 1.0000 0.6831(4) 0.6831(4)
C124_2 C 1.0000 0.6397(7) 0.5573(2)
C125_2 C 1.0000 0.7086(7) 0.5347(3)
H61_2 H 1.0000 0.7485 0.5636
C128_2 C 1.0000 0.7832(5) 0.7832(5)
C129_2 C 1.0000 0.1621(6) 0.8379(6)
C130_2 C 1.0000 0.3716(4) 0.6284(4)
C131_2 C 1.0000 0.3169(4) 0.6831(4)
C132_2 C 1.0000 0.3603(7) 0.5573(2)
C133_2 C 1.0000 0.2914(7) 0.5347(3)
H64_2 H 1.0000 0.2515 0.5636
C134 C 0.9395(3) 0.2422(5) 0.7578(5)
H65 H 0.8972 0.2251 0.7749
C135 C 0.9393(3) 0.2915(5) 0.7085(5)
H66 H 0.8970 0.3085 0.6915
C136_2 C 1.0000 0.2168(5) 0.7832(5)
O24 O 0.9429(3) 0.1419(6) 0.8581(6)
C137 C 0.9395(3) 0.7578(5) 0.7578(5)
H67 H 0.8972 0.7749 0.7749
C138 C 0.9393(3) 0.7085(5) 0.7085(5)
H68 H 0.8970 0.6915 0.6915
O25 O 0.9429(3) 0.8581(6) 0.8581(6)
C141_2 C 1.0000 0.5573(2) 0.6397(7)
C142_2 C 1.0000 0.5347(3) 0.7086(7)
H71_2 H 1.0000 0.5636 0.7485
N12_2 N 1.0000 0.5000 0.6004(7)
C143_2 C 1.0000 0.4427(2) 0.6397(7)
C144_2 C 1.0000 0.4653(3) 0.7086(7)
H72_2 H 1.0000 0.4364 0.7485
O28_3 O 0.883(3) 1.0000 0.0000
O29_4 O 1.0000 1.0000 0.117(3)
Zr16 Zr 0.93107(8) 0.93107(8) 0.93107(8)
O41 O 0.8581(6) 0.1419(6) 0.9429(3)
O42 O 0.8581(6) 0.8581(6) 0.0571(3)
O2_4 O 1.0000 0.883(3) 1.0000
O28_4 O 0.883(3) 1.0000 1.0000
O33 O 0.8581(6) 0.8581(6) 0.9429(3)
O53_4 O 1.0000 1.0000 0.883(3)
O33_2 O 0.1419(6) 0.8581(6) 0.9429(3)
O33_3 O 0.1419(6) 0.1419(6) 0.9429(3)
Cu1_3 Cu 0.5000 0.5000 0.0000
C1_3 C 0.8379(6) 0.8379(6) 0.0000
C2_3 C 0.6284(4) 0.6284(4) 0.0000
C3_3 C 0.6831(4) 0.6831(4) 0.0000
C4_3 C 0.5573(2) 0.6397(7) 0.0000
C5_3 C 0.5347(3) 0.7086(7) 0.0000
H1_3 H 0.5636 0.7485 0.0000
N1_3 N 0.5000 0.6004(7) 0.0000
C8_3 C 0.7832(5) 0.7832(5) 0.0000
C9_3 C 0.1621(6) 0.8379(6) 0.0000
C10_3 C 0.3716(4) 0.6284(4) 0.0000
C11_3 C 0.3169(4) 0.6831(4) 0.0000
C12_3 C 0.4427(2) 0.6397(7) 0.0000
C13_3 C 0.4653(3) 0.7086(7) 0.0000
H4_3 H 0.4364 0.7485 0.0000
C14_2 C 0.2422(5) 0.7578(5) 0.0605(3)
H5_2 H 0.2251 0.7749 0.1028
C15_2 C 0.2915(5) 0.7085(5) 0.0607(3)
H6_2 H 0.3085 0.6915 0.1030
C16_3 C 0.2168(5) 0.7832(5) 0.0000
C17_3 C 0.6397(7) 0.5573(2) 0.0000
C18_3 C 0.7086(7) 0.5347(3) 0.0000
H7_3 H 0.7485 0.5636 0.0000
C19_2 C 0.7578(5) 0.7578(5) 0.0605(3)
H8_2 H 0.7749 0.7749 0.1028
N2_3 N 0.6004(7) 0.5000 0.0000
C20_2 C 0.7085(5) 0.7085(5) 0.0607(3)
H9_2 H 0.6915 0.6915 0.1030
C23_3 C 0.3603(7) 0.5573(2) 0.0000
C24_3 C 0.2914(7) 0.5347(3) 0.0000
H12_3 H 0.2515 0.5636 0.0000
N3_3 N 0.3996(7) 0.5000 0.0000
C25_3 C 0.8379(6) 0.1621(6) 0.0000
C26_3 C 0.6284(4) 0.3716(4) 0.0000
C27_3 C 0.6831(4) 0.3169(4) 0.0000
C28_3 C 0.6397(7) 0.4427(2) 0.0000
C29_3 C 0.7086(7) 0.4653(3) 0.0000
H13_3 H 0.7485 0.4364 0.0000
C32_3 C 0.7832(5) 0.2168(5) 0.0000
C33_3 C 0.1621(6) 0.1621(6) 0.0000
C34_3 C 0.3716(4) 0.3716(4) 0.0000
C35_3 C 0.3169(4) 0.3169(4) 0.0000
C36_3 C 0.3603(7) 0.4427(2) 0.0000
C37_3 C 0.2914(7) 0.4653(3) 0.0000
H16_3 H 0.2515 0.4364 0.0000
C38_2 C 0.2422(5) 0.2422(5) 0.0605(3)
H17_2 H 0.2251 0.2251 0.1028
C39_2 C 0.2915(5) 0.2915(5) 0.0607(3)
H18_2 H 0.3085 0.3085 0.1030
C40_3 C 0.2168(5) 0.2168(5) 0.0000
C41_2 C 0.7578(5) 0.2422(5) 0.0605(3)
H19_2 H 0.7749 0.2251 0.1028
C42_2 C 0.7085(5) 0.2915(5) 0.0607(3)
H20_2 H 0.6915 0.3085 0.1030
C45_3 C 0.5573(2) 0.3603(7) 0.0000
C46_3 C 0.5347(3) 0.2914(7) 0.0000
H23_3 H 0.5636 0.2515 0.0000
N4_3 N 0.5000 0.3996(7) 0.0000
C47_3 C 0.4427(2) 0.3603(7) 0.0000
C48_3 C 0.4653(3) 0.2914(7) 0.0000
H24_3 H 0.4364 0.2515 0.0000
Cu1_4 Cu 0.5000 0.5000 1.0000
C1_4 C 0.8379(6) 0.8379(6) 1.0000
C2_4 C 0.6284(4) 0.6284(4) 1.0000
C3_4 C 0.6831(4) 0.6831(4) 1.0000
C4_4 C 0.5573(2) 0.6397(7) 1.0000
C5_4 C 0.5347(3) 0.7086(7) 1.0000
H1_4 H 0.5636 0.7485 1.0000
C6_2 C 0.7578(5) 0.7578(5) 0.9395(3)
H2_2 H 0.7749 0.7749 0.8972
N1_4 N 0.5000 0.6004(7) 1.0000
C7_2 C 0.7085(5) 0.7085(5) 0.9393(3)
H3_2 H 0.6915 0.6915 0.8970
C8_4 C 0.7832(5) 0.7832(5) 1.0000
C9_4 C 0.1621(6) 0.8379(6) 1.0000
C10_4 C 0.3716(4) 0.6284(4) 1.0000
C11_4 C 0.3169(4) 0.6831(4) 1.0000
C12_4 C 0.4427(2) 0.6397(7) 1.0000
C13_4 C 0.4653(3) 0.7086(7) 1.0000
H4_4 H 0.4364 0.7485 1.0000
C16_4 C 0.2168(5) 0.7832(5) 1.0000
C17_4 C 0.6397(7) 0.5573(2) 1.0000
C18_4 C 0.7086(7) 0.5347(3) 1.0000
H7_4 H 0.7485 0.5636 1.0000
N2_4 N 0.6004(7) 0.5000 1.0000
C21_2 C 0.2422(5) 0.7578(5) 0.9395(3)
H10_2 H 0.2251 0.7749 0.8972
C22_2 C 0.2915(5) 0.7085(5) 0.9393(3)
H11_2 H 0.3085 0.6915 0.8970
C23_4 C 0.3603(7) 0.5573(2) 1.0000
C24_4 C 0.2914(7) 0.5347(3) 1.0000
H12_4 H 0.2515 0.5636 1.0000
N3_4 N 0.3996(7) 0.5000 1.0000
C25_4 C 0.8379(6) 0.1621(6) 1.0000
C26_4 C 0.6284(4) 0.3716(4) 1.0000
C27_4 C 0.6831(4) 0.3169(4) 1.0000
C28_4 C 0.6397(7) 0.4427(2) 1.0000
C29_4 C 0.7086(7) 0.4653(3) 1.0000
H13_4 H 0.7485 0.4364 1.0000
C30_2 C 0.7578(5) 0.2422(5) 0.9395(3)
H14_2 H 0.7749 0.2251 0.8972
C31_2 C 0.7085(5) 0.2915(5) 0.9393(3)
H15_2 H 0.6915 0.3085 0.8970
C32_4 C 0.7832(5) 0.2168(5) 1.0000
C33_4 C 0.1621(6) 0.1621(6) 1.0000
C34_4 C 0.3716(4) 0.3716(4) 1.0000
C35_4 C 0.3169(4) 0.3169(4) 1.0000
C36_4 C 0.3603(7) 0.4427(2) 1.0000
C37_4 C 0.2914(7) 0.4653(3) 1.0000
H16_4 H 0.2515 0.4364 1.0000
C40_4 C 0.2168(5) 0.2168(5) 1.0000
C43_2 C 0.2422(5) 0.2422(5) 0.9395(3)
H21_2 H 0.2251 0.2251 0.8972
C44_2 C 0.2915(5) 0.2915(5) 0.9393(3)
H22_2 H 0.3085 0.3085 0.8970
C45_4 C 0.5573(2) 0.3603(7) 1.0000
C46_4 C 0.5347(3) 0.2914(7) 1.0000
H23_4 H 0.5636 0.2515 1.0000
N4_4 N 0.5000 0.3996(7) 1.0000
C47_4 C 0.4427(2) 0.3603(7) 1.0000
C48_4 C 0.4653(3) 0.2914(7) 1.0000
H24_4 H 0.4364 0.2515 1.0000
loop_
_geom_bond_atom_site_label_1
_geom_bond_atom_site_label_2
_geom_bond_site_symmetry_1
_geom_bond_site_symmetry_2
Zr4 O19 1_555 1_555
O27 Zr4 1_555 1_555
O31 Zr4 1_555 1_555
O39 Zr4 1_555 1_555
O40 Zr4 1_555 1_555
Zr4 O29 1_555 1_555
Zr27 O19_2 1_555 1_555
O27_2 Zr27 1_555 1_555
Zr27 O53 1_555 1_555
Cu3 N9 1_555 1_555
Zr3 O2 1_555 1_555
C97 C104 1_555 1_555
C98 C99 1_555 1_555
C99 C103 1_555 1_555
C100 C98 1_555 1_555
C101 C100 1_555 1_555
H49 C101 1_555 1_555
C102 H50 1_555 1_555
N9 C100 1_555 1_555
C103 C102 1_555 1_555
H51 C103 1_555 1_555
C104 C102 1_555 1_555
O18 Zr3 1_555 1_555
O19_3 Zr3 1_555 1_555
C105 C112 1_555 1_555
C106 C107 1_555 1_555
C108 N9 1_555 1_555
C109 C101 1_555 1_555
H52 C109 1_555 1_555
C113 C98 1_555 1_555
C114 C113 1_555 1_555
H55 C114 1_555 1_555
N10 Cu3 1_555 1_555
C117 C112 1_555 1_555
H58 C117 1_555 1_555
C118 C107 1_555 1_555
H59 C118 1_555 1_555
O40 C105 1_555 1_555
C119 C106 1_555 1_555
C120 C119 1_555 1_555
H60 C120 1_555 1_555
N11 Cu3 1_555 1_555
C121 C128 1_555 1_555
C122 C123 1_555 1_555
C123 C127 1_555 1_555
C124 N10 1_555 1_555
C125 C114 1_555 1_555
H61 C125 1_555 1_555
C126 H62 1_555 1_555
C127 C126 1_555 1_555
H63 C127 1_555 1_555
C128 C126 1_555 1_555
O23 C121 1_555 1_555
C129 C136 1_555 1_555
C130 C131 1_555 1_555
C132 N11 1_555 1_555
C133 C120 1_555 1_555
H64 C133 1_555 1_555
C139 C136 1_555 1_555
H69 C139 1_555 1_555
C140 C131 1_555 1_555
H70 C140 1_555 1_555
O26 C129 1_555 1_555
C141 C122 1_555 1_555
C142 C141 1_555 1_555
H71 C142 1_555 1_555
N12 Cu3 1_555 1_555
C143 C130 1_555 1_555
C144 C142 1_555 1_555
H72 C144 1_555 1_555
Zr23 O23 1_555 1_555
Zr27 O26 1_555 1_555
O37 Zr3 1_555 1_555
O45 Zr3 1_555 1_555
Zr3 O29_2 1_555 1_555
C97 O18 1_555 1_555
C106 C108 1_555 1_555
C108 C109 1_555 1_555
C113 N10 1_555 1_555
C117 C118 1_555 1_555
C119 N11 1_555 1_555
C122 C124 1_555 1_555
C124 C125 1_555 1_555
C130 C132 1_555 1_555
C132 C133 1_555 1_555
C139 C140 1_555 1_555
C141 N12 1_555 1_555
N12 C143 1_555 1_555
C143 C144 1_555 1_555
Zr23 O2_2 1_555 1_555
O19_4 Zr23 1_555 1_555
Zr23 O53_2 1_555 1_555
Cu1 N1 1_555 1_555
C1 C8 1_555 1_555
C2 C3 1_555 1_555
C4 C2 1_555 1_555
C5 C4 1_555 1_555
H1 C5 1_555 1_555
N1 C4 1_555 1_555
C9 C16 1_555 1_555
C10 C11 1_555 1_555
C11 C15 1_555 1_555
C12 N1 1_555 1_555
C13 C5 1_555 1_555
H4 C13 1_555 1_555
C14 H5 1_555 1_555
C15 C14 1_555 1_555
H6 C15 1_555 1_555
C16 C14 1_555 1_555
O31 C9 1_555 1_555
C17 C2 1_555 1_555
C18 C17 1_555 1_555
H7 C18 1_555 1_555
C19 C8 1_555 1_555
H8 C19 1_555 1_555
N2 Cu1 1_555 1_555
C20 C3 1_555 1_555
H9 C20 1_555 1_555
O4 C1 1_555 1_555
C23 C10 1_555 1_555
C24 C23 1_555 1_555
H12 C24 1_555 1_555
N3 Cu1 1_555 1_555
C25 C32 1_555 1_555
C26 C27 1_555 1_555
C28 N2 1_555 1_555
C29 C18 1_555 1_555
H13 C29 1_555 1_555
C33 C40 1_555 1_555
C34 C35 1_555 1_555
C35 C39 1_555 1_555
C36 N3 1_555 1_555
C37 C24 1_555 1_555
H16 C37 1_555 1_555
C38 H17 1_555 1_555
C39 C38 1_555 1_555
H18 C39 1_555 1_555
C40 C38 1_555 1_555
O7 C33 1_555 1_555
C41 C32 1_555 1_555
H19 C41 1_555 1_555
C42 C27 1_555 1_555
H20 C42 1_555 1_555
O8 C25 1_555 1_555
C45 C26 1_555 1_555
C46 C45 1_555 1_555
H23 C46 1_555 1_555
N4 Cu1 1_555 1_555
C47 C34 1_555 1_555
C48 C46 1_555 1_555
H24 C48 1_555 1_555
Zr6 O4 1_555 1_555
Zr19 O8 1_555 1_555
Zr27 O7 1_555 1_555
O32 Zr6 1_555 1_555
O36 Zr6 1_555 1_555
C10 C12 1_555 1_555
C12 C13 1_555 1_555
C17 N2 1_555 1_555
C19 C20 1_555 1_555
C23 N3 1_555 1_555
C26 C28 1_555 1_555
C28 C29 1_555 1_555
C34 C36 1_555 1_555
C36 C37 1_555 1_555
C41 C42 1_555 1_555
C45 N4 1_555 1_555
N4 C47 1_555 1_555
C47 C48 1_555 1_555
O27_3 Zr6 1_555 1_555
Zr6 O28 1_555 1_555
Zr6 O29_3 1_555 1_555
Zr19 O27_4 1_555 1_555
O28_2 Zr19 1_555 1_555
Zr19 O53_3 1_555 1_555
Cu1_2 N1_2 1_555 1_555
Zr1 O1 1_555 1_555
C1_2 C8_2 1_555 1_555
C2_2 C3_2 1_555 1_555
C3_2 C7 1_555 1_555
C4_2 C2_2 1_555 1_555
C5_2 C4_2 1_555 1_555
H1_2 C5_2 1_555 1_555
C6 H2 1_555 1_555
N1_2 C4_2 1_555 1_555
C7 C6 1_555 1_555
H3 C7 1_555 1_555
C8_2 C6 1_555 1_555
O1 C1_2 1_555 1_555
O2_3 Zr1 1_555 1_555
C9_2 C16_2 1_555 1_555
C10_2 C11_2 1_555 1_555
C12_2 N1_2 1_555 1_555
C13_2 C5_2 1_555 1_555
H4_2 C13_2 1_555 1_555
C17_2 C2_2 1_555 1_555
C18_2 C17_2 1_555 1_555
H7_2 C18_2 1_555 1_555
N2_2 Cu1_2 1_555 1_555
C21 C16_2 1_555 1_555
H10 C21 1_555 1_555
C22 C11_2 1_555 1_555
H11 C22 1_555 1_555
O37 C9_2 1_555 1_555
C23_2 C10_2 1_555 1_555
C24_2 C23_2 1_555 1_555
H12_2 C24_2 1_555 1_555
N3_2 Cu1_2 1_555 1_555
C25_2 C32_2 1_555 1_555
C26_2 C27_2 1_555 1_555
C27_2 C31 1_555 1_555
C28_2 N2_2 1_555 1_555
C29_2 C18_2 1_555 1_555
H13_2 C29_2 1_555 1_555
C30 H14 1_555 1_555
C31 C30 1_555 1_555
H15 C31 1_555 1_555
C32_2 C30 1_555 1_555
O6 C25_2 1_555 1_555
C33_2 C40_2 1_555 1_555
C34_2 C35_2 1_555 1_555
C36_2 N3_2 1_555 1_555
C37_2 C24_2 1_555 1_555
H16_2 C37_2 1_555 1_555
C43 C40_2 1_555 1_555
H21 C43 1_555 1_555
C44 C35_2 1_555 1_555
H22 C44 1_555 1_555
O9 C33_2 1_555 1_555
C45_2 C26_2 1_555 1_555
C46_2 C45_2 1_555 1_555
H23_2 C46_2 1_555 1_555
N4_2 Cu1_2 1_555 1_555
C47_2 C34_2 1_555 1_555
C48_2 C46_2 1_555 1_555
H24_2 C48_2 1_555 1_555
Cu3_2 N9_2 1_555 1_555
C97_2 C104_2 1_555 1_555
C98_2 C99_2 1_555 1_555
C100_2 C98_2 1_555 1_555
C101_2 C100_2 1_555 1_555
H49_2 C101_2 1_555 1_555
N9_2 C100_2 1_555 1_555
C105_2 C112_2 1_555 1_555
C106_2 C107_2 1_555 1_555
C107_2 C111 1_555 1_555
C108_2 N9_2 1_555 1_555
C109_2 C101_2 1_555 1_555
H52_2 C109_2 1_555 1_555
C110 H53 1_555 1_555
C111 C110 1_555 1_555
H54 C111 1_555 1_555
C112_2 C110 1_555 1_555
O32 C105_2 1_555 1_555
C113_2 C98_2 1_555 1_555
C114_2 C113_2 1_555 1_555
H55_2 C114_2 1_555 1_555
C115 C104_2 1_555 1_555
H56 C115 1_555 1_555
N10_2 Cu3_2 1_555 1_555
C116 C99_2 1_555 1_555
H57 C116 1_555 1_555
O21 Zr1 1_555 1_555
C119_2 C106_2 1_555 1_555
C120_2 C119_2 1_555 1_555
H60_2 C120_2 1_555 1_555
N11_2 Cu3_2 1_555 1_555
C121_2 C128_2 1_555 1_555
C122_2 C123_2 1_555 1_555
C124_2 N10_2 1_555 1_555
C125_2 C114_2 1_555 1_555
H61_2 C125_2 1_555 1_555
C129_2 C136_2 1_555 1_555
C130_2 C131_2 1_555 1_555
C131_2 C135 1_555 1_555
C132_2 N11_2 1_555 1_555
C133_2 C120_2 1_555 1_555
H64_2 C133_2 1_555 1_555
C134 H65 1_555 1_555
C135 C134 1_555 1_555
H66 C135 1_555 1_555
C136_2 C134 1_555 1_555
O24 C129_2 1_555 1_555
C137 C128_2 1_555 1_555
H67 C137 1_555 1_555
C138 C123_2 1_555 1_555
H68 C138 1_555 1_555
O25 C121_2 1_555 1_555
C141_2 C122_2 1_555 1_555
C142_2 C141_2 1_555 1_555
H71_2 C142_2 1_555 1_555
N12_2 Cu3_2 1_555 1_555
C143_2 C130_2 1_555 1_555
C144_2 C142_2 1_555 1_555
H72_2 C144_2 1_555 1_555
O28_3 Zr1 1_555 1_555
O29_4 Zr1 1_555 1_555
Zr19 O24 1_555 1_555
Zr16 O6 1_555 1_555
Zr23 O9 1_555 1_555
O41 Zr19 1_555 1_555
O42 Zr1 1_555 1_555
C10_2 C12_2 1_555 1_555
C12_2 C13_2 1_555 1_555
C17_2 N2_2 1_555 1_555
C21 C22 1_555 1_555
C23_2 N3_2 1_555 1_555
C26_2 C28_2 1_555 1_555
C28_2 C29_2 1_555 1_555
C34_2 C36_2 1_555 1_555
C36_2 C37_2 1_555 1_555
C43 C44 1_555 1_555
C45_2 N4_2 1_555 1_555
N4_2 C47_2 1_555 1_555
C47_2 C48_2 1_555 1_555
C97_2 O21 1_555 1_555
C106_2 C108_2 1_555 1_555
C108_2 C109_2 1_555 1_555
C113_2 N10_2 1_555 1_555
C115 C116 1_555 1_555
C119_2 N11_2 1_555 1_555
C122_2 C124_2 1_555 1_555
C124_2 C125_2 1_555 1_555
C130_2 C132_2 1_555 1_555
C132_2 C133_2 1_555 1_555
C137 C138 1_555 1_555
O25 Zr16 1_555 1_555
C141_2 N12_2 1_555 1_555
N12_2 C143_2 1_555 1_555
C143_2 C144_2 1_555 1_555
Zr16 O2_4 1_555 1_555
O33 Zr16 1_555 1_555
O53_4 Zr16 1_555 1_555
O28_4 Zr16 1_555 1_555
O33_2 Zr23 1_555 1_555
O33_3 Zr27 1_555 1_555
Cu1_3 N1_3 1_555 1_555
C1_3 C8_3 1_555 1_555
C2_3 C3_3 1_555 1_555
C4_3 C2_3 1_555 1_555
C5_3 C4_3 1_555 1_555
H1_3 C5_3 1_555 1_555
N1_3 C4_3 1_555 1_555
C9_3 C16_3 1_555 1_555
C10_3 C11_3 1_555 1_555
C11_3 C15_2 1_555 1_555
C12_3 N1_3 1_555 1_555
C13_3 C5_3 1_555 1_555
H4_3 C13_3 1_555 1_555
C14_2 H5_2 1_555 1_555
C15_2 C14_2 1_555 1_555
H6_2 C15_2 1_555 1_555
C16_3 C14_2 1_555 1_555
O45 C9_3 1_555 1_555
C17_3 C2_3 1_555 1_555
C18_3 C17_3 1_555 1_555
H7_3 C18_3 1_555 1_555
C19_2 C8_3 1_555 1_555
H8_2 C19_2 1_555 1_555
N2_3 Cu1_3 1_555 1_555
C20_2 C3_3 1_555 1_555
H9_2 C20_2 1_555 1_555
O42 C1_3 1_555 1_555
C23_3 C10_3 1_555 1_555
C24_3 C23_3 1_555 1_555
H12_3 C24_3 1_555 1_555
N3_3 Cu1_3 1_555 1_555
C25_3 C32_3 1_555 1_555
C26_3 C27_3 1_555 1_555
C28_3 N2_3 1_555 1_555
C29_3 C18_3 1_555 1_555
H13_3 C29_3 1_555 1_555
C33_3 C40_3 1_555 1_555
C34_3 C35_3 1_555 1_555
C35_3 C39_2 1_555 1_555
C36_3 N3_3 1_555 1_555
C37_3 C24_3 1_555 1_555
H16_3 C37_3 1_555 1_555
C38_2 H17_2 1_555 1_555
C39_2 C38_2 1_555 1_555
H18_2 C39_2 1_555 1_555
C40_3 C38_2 1_555 1_555
O39 C33_3 1_555 1_555
C41_2 C32_3 1_555 1_555
H19_2 C41_2 1_555 1_555
C42_2 C27_3 1_555 1_555
H20_2 C42_2 1_555 1_555
O36 C25_3 1_555 1_555
C45_3 C26_3 1_555 1_555
C46_3 C45_3 1_555 1_555
H23_3 C46_3 1_555 1_555
N4_3 Cu1_3 1_555 1_555
C47_3 C34_3 1_555 1_555
C48_3 C46_3 1_555 1_555
H24_3 C48_3 1_555 1_555
C10_3 C12_3 1_555 1_555
C12_3 C13_3 1_555 1_555
C17_3 N2_3 1_555 1_555
C19_2 C20_2 1_555 1_555
C23_3 N3_3 1_555 1_555
C26_3 C28_3 1_555 1_555
C28_3 C29_3 1_555 1_555
C34_3 C36_3 1_555 1_555
C36_3 C37_3 1_555 1_555
C41_2 C42_2 1_555 1_555
C45_3 N4_3 1_555 1_555
N4_3 C47_3 1_555 1_555
C47_3 C48_3 1_555 1_555
Cu1_4 N1_4 1_555 1_555
C1_4 C8_4 1_555 1_555
C2_4 C3_4 1_555 1_555
C3_4 C7_2 1_555 1_555
C4_4 C2_4 1_555 1_555
C5_4 C4_4 1_555 1_555
H1_4 C5_4 1_555 1_555
C6_2 H2_2 1_555 1_555
N1_4 C4_4 1_555 1_555
C7_2 C6_2 1_555 1_555
H3_2 C7_2 1_555 1_555
C8_4 C6_2 1_555 1_555
O33 C1_4 1_555 1_555
C9_4 C16_4 1_555 1_555
C10_4 C11_4 1_555 1_555
C12_4 N1_4 1_555 1_555
C13_4 C5_4 1_555 1_555
H4_4 C13_4 1_555 1_555
C17_4 C2_4 1_555 1_555
C18_4 C17_4 1_555 1_555
H7_4 C18_4 1_555 1_555
N2_4 Cu1_4 1_555 1_555
C21_2 C16_4 1_555 1_555
H10_2 C21_2 1_555 1_555
C22_2 C11_4 1_555 1_555
H11_2 C22_2 1_555 1_555
O33_2 C9_4 1_555 1_555
C23_4 C10_4 1_555 1_555
C24_4 C23_4 1_555 1_555
H12_4 C24_4 1_555 1_555
N3_4 Cu1_4 1_555 1_555
C25_4 C32_4 1_555 1_555
C26_4 C27_4 1_555 1_555
C27_4 C31_2 1_555 1_555
C28_4 N2_4 1_555 1_555
C29_4 C18_4 1_555 1_555
H13_4 C29_4 1_555 1_555
C30_2 H14_2 1_555 1_555
C31_2 C30_2 1_555 1_555
H15_2 C31_2 1_555 1_555
C32_4 C30_2 1_555 1_555
O41 C25_4 1_555 1_555
C33_4 C40_4 1_555 1_555
C34_4 C35_4 1_555 1_555
C36_4 N3_4 1_555 1_555
C37_4 C24_4 1_555 1_555
H16_4 C37_4 1_555 1_555
C43_2 C40_4 1_555 1_555
H21_2 C43_2 1_555 1_555
C44_2 C35_4 1_555 1_555
H22_2 C44_2 1_555 1_555
O33_3 C33_4 1_555 1_555
C45_4 C26_4 1_555 1_555
C46_4 C45_4 1_555 1_555
H23_4 C46_4 1_555 1_555
N4_4 Cu1_4 1_555 1_555
C47_4 C34_4 1_555 1_555
C48_4 C46_4 1_555 1_555
H24_4 C48_4 1_555 1_555
C10_4 C12_4 1_555 1_555
C12_4 C13_4 1_555 1_555
C17_4 N2_4 1_555 1_555
C21_2 C22_2 1_555 1_555
C23_4 N3_4 1_555 1_555
C26_4 C28_4 1_555 1_555
C28_4 C29_4 1_555 1_555
C34_4 C36_4 1_555 1_555
C36_4 C37_4 1_555 1_555
C43_2 C44_2 1_555 1_555
C45_4 N4_4 1_555 1_555
N4_4 C47_4 1_555 1_555
C47_4 C48_4 1_555 1_555

#END
