
###############################################################################
#
# This file contains modified crystal structure data generated from the
# MOF subset of the Cambridge Structural Database (CSD) v543 
# hosted by the Cambridge Crystallographic Data Centre (CCDC).
#
# This work is licensed under the Creative Commons
# Attribution-NonCommercial-ShareAlike 4.0 International License.
# To view a copy of this license, visit
# http://creativecommons.org/licenses/by-nc-sa/4.0/
# or send a letter to
# Creative Commons, PO Box 1866, Mountain View, CA 94042, USA.
#
# CIF created using the CSD Python API on 29 September 2022
# The structure has been converted into the P1 space group
# The structure has a 3D framework
# The original CSD entry HIMSAY is in the orthorhombic crystal system
# The framework has been calculated to contain at least 10.0% void space
# The void calculation uses a probe of radius 1.32A, grid spacing 0.4
# The framework is charged, counterions have been retained in the structure
#
###############################################################################

data_HIMSAY
_chemical_formula_moiety         '(C80 H32 N24 Zn4 2+)n'
_symmetry_cell_setting           triclinic
_symmetry_space_group_name_H-M   'P 1'
_symmetry_Int_Tables_number      1
_space_group_name_Hall           'P 1'
loop_
_symmetry_equiv_pos_site_id
_symmetry_equiv_pos_as_xyz
1 x,y,z
_cell_length_a                   11.361(5)
_cell_length_b                   12.645(6)
_cell_length_c                   14.775(7)
_cell_angle_alpha                90
_cell_angle_beta                 90
_cell_angle_gamma                90
_cell_volume                     2122.57
loop_
_atom_site_label
_atom_site_type_symbol
_atom_site_fract_x
_atom_site_fract_y
_atom_site_fract_z
Zn1 Zn 0.5000 0.0000 0.2500
N1 N 0.49952(13) 0.11975(9) 0.14743(7)
N2 N 0.0937(2) 0.64168(18) 0.14269(16)
N3 N 0.31054(11) 0.0000 0.2500
C1 C 0.46310(10) 0.15200(10) 0.08013(9)
C2 C 0.41707(17) 0.19236(16) 0.0000
C3 C 0.32557(18) 0.27193(17) 0.0000
C4 C 0.28025(14) 0.31211(14) 0.08104(10)
C5 C 0.19887(16) 0.39254(16) 0.08103(12)
C6 C 0.1583(2) 0.4342(2) 0.0000
C7 C 0.0667(2) 0.52194(18) 0.0000
C8 C 0.08087(17) 0.59107(15) 0.08084(16)
C9 C 0.24990(11) 0.08808(11) 0.26663(9)
C10 C 0.12820(11) 0.09183(11) 0.26669(10)
C11 C 0.06535(12) 0.0000 0.2500
H1 H 0.3062 0.2833 0.1370
H2 H 0.1704 0.4201 0.1367
H3 H 0.2922 0.1512 0.2792
H4 H 0.0883 0.1565 0.2780
N8 N 0.50048(13) 0.11975(9) 0.35257(7)
N14 N 0.68946(11) 0.0000 0.2500
C2_2 C 0.41707(17) 0.19236(16) 1.0000
C3_2 C 0.32557(18) 0.27193(17) 1.0000
C6_2 C 0.1583(2) 0.4342(2) 1.0000
C7_2 C 0.0667(2) 0.52194(18) 1.0000
Zn2 Zn 0.5000 0.0000 0.7500
N4 N 0.49952(13) 0.11975(9) 0.85257(7)
N12 N 0.0937(2) 0.64168(18) 0.85731(16)
C12 C 0.46310(10) 0.15200(10) 0.91987(9)
C17 C 0.28025(14) 0.31211(14) 0.91896(10)
C20 C 0.19887(16) 0.39254(16) 0.91897(12)
C27 C 0.08087(17) 0.59107(15) 0.91916(16)
H7 H 0.3062 0.2833 0.8630
H8 H 0.1704 0.4201 0.8633
Zn1_2 Zn 0.5000 1.0000 0.2500
N3_2 N 0.31054(11) 1.0000 0.2500
C11_2 C 0.06535(12) 1.0000 0.2500
N7 N 0.49952(13) 0.88025(9) 0.35257(7)
N9 N 0.50048(13) 0.88025(9) 0.14743(7)
N14_2 N 0.68946(11) 1.0000 0.2500
C28 C 0.24990(11) 0.91192(11) 0.23337(9)
C31 C 0.12820(11) 0.90817(11) 0.23331(10)
H11 H 0.2922 0.8488 0.2208
H14 H 0.0883 0.8435 0.2220
Zn2_2 Zn 0.5000 1.0000 0.7500
N11 N 0.9063(2) 0.35832(18) 0.14269(16)
C14 C 0.53690(10) 0.84800(10) 0.08013(9)
C15 C 0.58293(17) 0.80764(16) 0.0000
C16 C 0.67443(18) 0.72807(17) 0.0000
C19 C 0.71975(14) 0.68789(14) 0.08104(10)
C22 C 0.80113(16) 0.60746(16) 0.08103(12)
C23 C 0.8417(2) 0.5658(2) 0.0000
C24 C 0.9333(2) 0.47806(18) 0.0000
C26 C 0.91913(17) 0.40893(15) 0.08084(16)
C29 C 0.75010(11) 0.08808(11) 0.23337(9)
C32 C 0.87180(11) 0.09183(11) 0.23331(10)
C34 C 0.93465(12) 0.0000 0.2500
H5 H 0.6938 0.7167 0.1370
H10 H 0.8296 0.5799 0.1367
H13 H 0.7078 0.1512 0.2208
H16 H 0.9117 0.1565 0.2220
N5 N 0.50048(13) 0.88025(9) 0.85257(7)
N10 N 0.9063(2) 0.35832(18) 0.85731(16)
C13 C 0.53690(10) 0.84800(10) 0.91987(9)
C15_2 C 0.58293(17) 0.80764(16) 1.0000
C16_2 C 0.67443(18) 0.72807(17) 1.0000
C18 C 0.71975(14) 0.68789(14) 0.91896(10)
C21 C 0.80113(16) 0.60746(16) 0.91897(12)
C23_2 C 0.8417(2) 0.5658(2) 1.0000
C24_2 C 0.9333(2) 0.47806(18) 1.0000
C25 C 0.91913(17) 0.40893(15) 0.91916(16)
H6 H 0.6938 0.7167 0.8630
H9 H 0.8296 0.5799 0.8633
C30 C 0.75010(11) 0.91192(11) 0.26663(9)
C33 C 0.87180(11) 0.90817(11) 0.26669(10)
C34_2 C 0.93465(12) 1.0000 0.2500
H12 H 0.7078 0.8488 0.2792
H15 H 0.9117 0.8435 0.2780
N2_2 N 0.0937(2) 0.35832(18) 0.35731(16)
C1_2 C 0.46310(10) 0.84800(10) 0.41987(9)
C2_3 C 0.41707(17) 0.80764(16) 0.5000
C3_3 C 0.32557(18) 0.72807(17) 0.5000
C4_2 C 0.28025(14) 0.68789(14) 0.41896(10)
C5_2 C 0.19887(16) 0.60746(16) 0.41897(12)
C6_3 C 0.1583(2) 0.5658(2) 0.5000
C7_3 C 0.0667(2) 0.47806(18) 0.5000
C8_2 C 0.08087(17) 0.40893(15) 0.41916(16)
H1_2 H 0.3062 0.7167 0.3630
H2_2 H 0.1704 0.5799 0.3633
N4_2 N 0.49952(13) 0.88025(9) 0.64743(7)
N12_2 N 0.0937(2) 0.35832(18) 0.64269(16)
C12_2 C 0.46310(10) 0.84800(10) 0.58013(9)
C17_2 C 0.28025(14) 0.68789(14) 0.58104(10)
C20_2 C 0.19887(16) 0.60746(16) 0.58103(12)
C27_2 C 0.08087(17) 0.40893(15) 0.58084(16)
H7_2 H 0.3062 0.7167 0.6370
H8_2 H 0.1704 0.5799 0.6367
N5_2 N 0.50048(13) 0.11975(9) 0.64743(7)
N10_2 N 0.9063(2) 0.64168(18) 0.64269(16)
N11_2 N 0.9063(2) 0.64168(18) 0.35731(16)
C13_2 C 0.53690(10) 0.15200(10) 0.58013(9)
C14_2 C 0.53690(10) 0.15200(10) 0.41987(9)
C15_3 C 0.58293(17) 0.19236(16) 0.5000
C16_3 C 0.67443(18) 0.27193(17) 0.5000
C18_2 C 0.71975(14) 0.31211(14) 0.58104(10)
C19_2 C 0.71975(14) 0.31211(14) 0.41896(10)
C21_2 C 0.80113(16) 0.39254(16) 0.58103(12)
C22_2 C 0.80113(16) 0.39254(16) 0.41897(12)
C23_3 C 0.8417(2) 0.4342(2) 0.5000
C24_3 C 0.9333(2) 0.52194(18) 0.5000
C25_2 C 0.91913(17) 0.59107(15) 0.58084(16)
C26_2 C 0.91913(17) 0.59107(15) 0.41916(16)
H5_2 H 0.6938 0.2833 0.3630
H6_2 H 0.6938 0.2833 0.6370
H9_2 H 0.8296 0.4201 0.6367
H10_2 H 0.8296 0.4201 0.3633
N13 N 0.31054(11) 0.0000 0.7500
C30_2 C 0.24990(11) 0.08808(11) 0.73337(9)
C33_2 C 0.12820(11) 0.09183(11) 0.73331(10)
C34_3 C 0.06535(12) 0.0000 0.7500
H12_2 H 0.2922 0.1512 0.7208
H15_2 H 0.0883 0.1565 0.7220
N13_2 N 0.31054(11) 1.0000 0.7500
C29_2 C 0.24990(11) 0.91192(11) 0.76663(9)
C32_2 C 0.12820(11) 0.90817(11) 0.76669(10)
C34_4 C 0.06535(12) 1.0000 0.7500
H13_2 H 0.2922 0.8488 0.7792
H16_2 H 0.0883 0.8435 0.7780
N3_3 N 0.68946(11) 0.0000 0.7500
C11_3 C 0.93465(12) 0.0000 0.7500
C28_2 C 0.75010(11) 0.08808(11) 0.76663(9)
C31_2 C 0.87180(11) 0.09183(11) 0.76669(10)
H11_2 H 0.7078 0.1512 0.7792
H14_2 H 0.9117 0.1565 0.7780
N3_4 N 0.68946(11) 1.0000 0.7500
C9_2 C 0.75010(11) 0.91192(11) 0.73337(9)
C10_2 C 0.87180(11) 0.90817(11) 0.73331(10)
C11_4 C 0.93465(12) 1.0000 0.7500
H3_2 H 0.7078 0.8488 0.7208
H4_2 H 0.9117 0.8435 0.7220
loop_
_geom_bond_atom_site_label_1
_geom_bond_atom_site_label_2
_geom_bond_site_symmetry_1
_geom_bond_site_symmetry_2
Zn1 N1 1_555 1_555
N1 C1 1_555 1_555
N2 C8 1_555 1_555
N3 Zn1 1_555 1_555
C1 C2 1_555 1_555
C2 C3 1_555 1_555
C3 C4 1_555 1_555
C4 C5 1_555 1_555
C5 C6 1_555 1_555
C6 C7 1_555 1_555
C7 C8 1_555 1_555
C9 N3 1_555 1_555
C10 C9 1_555 1_555
C11 C10 1_555 1_555
H1 C4 1_555 1_555
H2 C5 1_555 1_555
H3 C9 1_555 1_555
H4 C10 1_555 1_555
N8 Zn1 1_555 1_555
N14 Zn1 1_555 1_555
C2_2 C3_2 1_555 1_555
C6_2 C7_2 1_555 1_555
Zn2 N4 1_555 1_555
N4 C12 1_555 1_555
N12 C27 1_555 1_555
C12 C2_2 1_555 1_555
C17 C3_2 1_555 1_555
C20 C6_2 1_555 1_555
C27 C7_2 1_555 1_555
H7 C17 1_555 1_555
H8 C20 1_555 1_555
C17 C20 1_555 1_555
N3_2 Zn1_2 1_555 1_555
N7 Zn1_2 1_555 1_555
N9 Zn1_2 1_555 1_555
N14_2 Zn1_2 1_555 1_555
C28 N3_2 1_555 1_555
C31 C11_2 1_555 1_555
H11 C28 1_555 1_555
H14 C31 1_555 1_555
C28 C31 1_555 1_555
N9 C14 1_555 1_555
N11 C26 1_555 1_555
N14 C29 1_555 1_555
C14 C15 1_555 1_555
C15 C16 1_555 1_555
C19 C16 1_555 1_555
C22 C19 1_555 1_555
C23 C22 1_555 1_555
C26 C24 1_555 1_555
C29 C32 1_555 1_555
C32 C34 1_555 1_555
H5 C19 1_555 1_555
H10 C22 1_555 1_555
H13 C29 1_555 1_555
H16 C32 1_555 1_555
C23 C24 1_555 1_555
Zn2_2 N5 1_555 1_555
N5 C13 1_555 1_555
N10 C25 1_555 1_555
C13 C15_2 1_555 1_555
C15_2 C16_2 1_555 1_555
C16_2 C18 1_555 1_555
C18 C21 1_555 1_555
C21 C23_2 1_555 1_555
C25 C24_2 1_555 1_555
H6 C18 1_555 1_555
H9 C21 1_555 1_555
C23_2 C24_2 1_555 1_555
C30 N14_2 1_555 1_555
C33 C30 1_555 1_555
H12 C30 1_555 1_555
H15 C33 1_555 1_555
C33 C34_2 1_555 1_555
N7 C1_2 1_555 1_555
N2_2 C8_2 1_555 1_555
C1_2 C2_3 1_555 1_555
C2_3 C3_3 1_555 1_555
C3_3 C4_2 1_555 1_555
C4_2 C5_2 1_555 1_555
C5_2 C6_3 1_555 1_555
C6_3 C7_3 1_555 1_555
C7_3 C8_2 1_555 1_555
H1_2 C4_2 1_555 1_555
H2_2 C5_2 1_555 1_555
Zn2_2 N4_2 1_555 1_555
N4_2 C12_2 1_555 1_555
N12_2 C27_2 1_555 1_555
C12_2 C2_3 1_555 1_555
C17_2 C3_3 1_555 1_555
C20_2 C6_3 1_555 1_555
C27_2 C7_3 1_555 1_555
H7_2 C17_2 1_555 1_555
H8_2 C20_2 1_555 1_555
C17_2 C20_2 1_555 1_555
Zn2 N5_2 1_555 1_555
N5_2 C13_2 1_555 1_555
N8 C14_2 1_555 1_555
N10_2 C25_2 1_555 1_555
N11_2 C26_2 1_555 1_555
C13_2 C15_3 1_555 1_555
C14_2 C15_3 1_555 1_555
C15_3 C16_3 1_555 1_555
C16_3 C18_2 1_555 1_555
C18_2 C21_2 1_555 1_555
C19_2 C16_3 1_555 1_555
C21_2 C23_3 1_555 1_555
C22_2 C19_2 1_555 1_555
C23_3 C22_2 1_555 1_555
C25_2 C24_3 1_555 1_555
C26_2 C24_3 1_555 1_555
H5_2 C19_2 1_555 1_555
H6_2 C18_2 1_555 1_555
H9_2 C21_2 1_555 1_555
H10_2 C22_2 1_555 1_555
C23_3 C24_3 1_555 1_555
Zn2 N13 1_555 1_555
C30_2 N13 1_555 1_555
C33_2 C30_2 1_555 1_555
H12_2 C30_2 1_555 1_555
H15_2 C33_2 1_555 1_555
C33_2 C34_3 1_555 1_555
Zn2_2 N13_2 1_555 1_555
N13_2 C29_2 1_555 1_555
C29_2 C32_2 1_555 1_555
C32_2 C34_4 1_555 1_555
H13_2 C29_2 1_555 1_555
H16_2 C32_2 1_555 1_555
N3_3 Zn2 1_555 1_555
C28_2 N3_3 1_555 1_555
C31_2 C11_3 1_555 1_555
H11_2 C28_2 1_555 1_555
H14_2 C31_2 1_555 1_555
C28_2 C31_2 1_555 1_555
N3_4 Zn2_2 1_555 1_555
C9_2 N3_4 1_555 1_555
C10_2 C9_2 1_555 1_555
C11_4 C10_2 1_555 1_555
H3_2 C9_2 1_555 1_555
H4_2 C10_2 1_555 1_555

#END
