
###############################################################################
#
# This file contains modified crystal structure data generated from the
# MOF subset of the Cambridge Structural Database (CSD) v543 
# hosted by the Cambridge Crystallographic Data Centre (CCDC).
#
# This work is licensed under the Creative Commons
# Attribution-NonCommercial-ShareAlike 4.0 International License.
# To view a copy of this license, visit
# http://creativecommons.org/licenses/by-nc-sa/4.0/
# or send a letter to
# Creative Commons, PO Box 1866, Mountain View, CA 94042, USA.
#
# CIF created using the CSD Python API on 29 September 2022
# The structure has been converted into the P1 space group
# The structure has a 3D framework
# The original CSD entry HINFER is in the trigonal crystal system
# The framework has been calculated to contain at least 10.0% void space
# The void calculation uses a probe of radius 1.32A, grid spacing 0.4
# The framework is charged, counterions have been retained in the structure
#
###############################################################################

data_HINFER
_chemical_formula_moiety         '(C96 H48 Na4 O54 Pb18 1+)n'
_symmetry_cell_setting           triclinic
_symmetry_space_group_name_H-M   'P 1'
_symmetry_Int_Tables_number      1
_space_group_name_Hall           'P 1'
loop_
_symmetry_equiv_pos_site_id
_symmetry_equiv_pos_as_xyz
1 x,y,z
_cell_length_a                   15.492(2)
_cell_length_b                   15.492(2)
_cell_length_c                   14.471(3)
_cell_angle_alpha                90
_cell_angle_beta                 90
_cell_angle_gamma                120
_cell_volume                     3007.77
loop_
_atom_site_label
_atom_site_type_symbol
_atom_site_fract_x
_atom_site_fract_y
_atom_site_fract_z
Pb3 Pb 0.0000 0.0000 0.0000
O3 O 0.1879(3) 0.3759(6) 0.3180(6)
O4 O 0.1100(3) 0.2200(6) 0.2598(5)
O7 O -0.0000 0.0000 0.2106(12)
H3 H 0.0133 0.5067 0.1552
C6 C 0.1790(6) 0.3579(12) 0.1585(10)
C7 C 0.1478(5) 0.2955(9) 0.0798(9)
H4 H 0.1134 0.2267 0.0878
C9 C 0.1583(5) 0.3166(10) 0.2522(9)
C12 C 0.2282(8) 0.4564(16) 0.1483(15)
H6 H 0.2492 0.4983 0.1995
C13 C 0.2483(8) 0.4966(17) 0.0555(19)
H7 H 0.2828 0.5655 0.0485
Pb23 Pb 0.137976(15) 0.862024(15) 0.45451(3)
Pb26 Pb 0.137976(15) 0.275952(21) 0.45451(3)
Pb32 Pb 0.175480(23) 0.087740(16) 0.27131(3)
O57 O 0.0425(5) 0.2902(7) 0.6256(5)
O91 O 0.1786(7) 0.0893(4) 0.0828(7)
Pb3_2 Pb 0.0000 0.0000 1.0000
O5 O 0.0893(4) 0.1786(7) 0.9172(7)
O6 O 0.1574(6) 0.3149(11) 0.8349(9)
C8 C 0.1671(6) 0.3341(12) 0.9920(10)
C10 C 0.1356(5) 0.2712(10) 0.9083(9)
C11 C 0.2175(9) 0.4350(18) 0.9723(18)
H5 H 0.2304 0.4607 0.9126
O32 O -0.0000 -0.0000 0.7894(12)
Pb35 Pb 0.087740(16) 0.175480(23) 0.72869(3)
O53 O 0.2902(7) 0.0425(5) 0.3744(5)
O85 O 0.2200(6) 0.1100(3) 0.7402(5)
Pb3_3 Pb 0.0000 1.0000 0.0000
O7_2 O 0.0000 1.0000 0.2106(12)
O60 O 0.0425(5) 0.7523(5) 0.6256(5)
O83 O 0.1100(7) 0.8900(3) 0.2598(5)
Pb3_4 Pb 0.0000 1.0000 1.0000
Pb9 Pb 0.087740(16) 0.912260(16) 0.72869(3)
O27 O 0.1113(5) 0.7084(5) 0.5141(4)
O32_2 O 0.0000 1.0000 0.7894(12)
C49 C 0.0567(7) 0.6065(7) 0.6471(6)
C50 C 0.0719(10) 0.5359(11) 0.6015(8)
H25 H 0.0924 0.5462 0.5401
C51 C 0.0268(11) 0.5908(8) 0.7352(7)
H26 H 0.0174 0.6384 0.7655
C52 C 0.009(2) 0.5045(23) 0.7840(13)
C53 C 0.0728(7) 0.6960(6) 0.5919(6)
O34 O 0.1113(5) 0.4029(7) 0.5141(4)
C62 C 0.0567(7) 0.4502(10) 0.6471(6)
C63 C 0.0268(11) 0.4360(14) 0.7352(7)
H32 H 0.0174 0.3790 0.7655
C64 C 0.0728(7) 0.3768(9) 0.5919(6)
O55 O 0.2477(5) 0.9575(5) 0.6256(5)
O68 O 0.2916(5) 0.8887(5) 0.5141(4)
O75 O 0.1880(7) 0.8121(3) 0.3180(6)
O90 O 0.0893(8) 0.9107(4) 0.9172(7)
O93 O 0.1575(13) 0.8426(6) 0.8349(9)
Pb1 Pb 0.862024(15) 0.137976(15) 0.54549(3)
Pb2 Pb 0.912260(16) 0.087740(16) 0.27131(3)
Pb3_5 Pb 1.0000 0.0000 0.0000
O1 O 0.9575(5) 0.2477(5) 0.3744(5)
O2 O 0.8887(5) 0.2916(5) 0.4859(4)
O7_3 O 1.0000 0.0000 0.2106(12)
C1 C 0.9433(7) 0.3935(7) 0.3529(6)
C2 C 0.9281(10) 0.4640(5) 0.3985(8)
H1 H 0.9076 0.4538 0.4599
C3 C 0.9732(11) 0.4092(8) 0.2648(7)
H2 H 0.9826 0.3616 0.2345
C4 C 0.991(2) 0.4955(12) 0.2160(13)
C5 C 0.9272(7) 0.3040(6) 0.4081(6)
O8 O 0.9575(5) 0.7098(7) 0.3744(5)
O9 O 0.8887(5) 0.5971(7) 0.4859(4)
C14 C 0.9433(7) 0.5498(10) 0.3529(6)
C15 C 0.9732(11) 0.5640(14) 0.2648(7)
H8 H 0.9826 0.6210 0.2345
C16 C 0.9272(7) 0.6232(9) 0.4081(6)
Pb6 Pb 0.275952(21) 0.137976(15) 0.54549(3)
O19 O 0.4029(7) 0.1113(5) 0.4859(4)
C33 C 0.4502(10) 0.0567(7) 0.3529(6)
C34 C 0.5359(11) 0.0719(10) 0.3985(8)
H17 H 0.5462 0.0924 0.4599
C35 C 0.4360(14) 0.0268(11) 0.2648(7)
H18 H 0.3790 0.0174 0.2345
C36 C 0.5045(23) 0.009(2) 0.2160(13)
C37 C 0.3768(9) 0.0728(7) 0.4081(6)
O24 O 0.7523(5) 0.0425(5) 0.3744(5)
O25 O 0.7084(5) 0.1113(5) 0.4859(4)
C46 C 0.6065(7) 0.0567(7) 0.3529(6)
C47 C 0.5908(8) 0.0268(11) 0.2648(7)
H24 H 0.6384 0.0174 0.2345
C48 C 0.6960(6) 0.0728(7) 0.4081(6)
O40 O 0.3149(11) 0.1574(6) 0.1651(9)
C72 C 0.3341(12) 0.1671(6) 0.0080(10)
C74 C 0.2712(10) 0.1356(5) 0.0917(9)
C75 C 0.4350(18) 0.2175(9) 0.0277(18)
H37 H 0.4607 0.2304 0.0874
O47 O 0.9107(4) 0.0893(8) 0.0828(7)
O48 O 0.8426(6) 0.1575(13) 0.1651(9)
C88 C 0.8329(6) 0.1670(13) 0.0080(10)
C90 C 0.8644(5) 0.1356(11) 0.0917(9)
C91 C 0.7825(9) 0.2175(20) 0.0277(18)
H45 H 0.7696 0.2303 0.0874
Pb18 Pb 0.862024(15) 0.724048(21) 0.54549(3)
Pb30 Pb 0.912260(16) 0.824520(23) 0.27131(3)
O61 O 0.2477(5) 0.2902(7) 0.6256(5)
O67 O 0.2902(7) 0.2477(5) 0.3744(5)
O72 O 0.4029(7) 0.2916(5) 0.4859(4)
O76 O 0.3759(6) 0.1879(3) 0.6820(6)
O77 O 0.8121(3) 0.1880(7) 0.6820(6)
O87 O 0.8900(3) 0.1100(7) 0.7402(5)
Pb3_6 Pb 1.0000 0.0000 1.0000
O32_3 O 1.0000 -0.0000 0.7894(12)
O36 O 0.2916(5) 0.4029(7) 0.5141(4)
C65 C 0.3935(7) 0.4502(10) 0.6471(6)
C66 C 0.4641(11) 0.5360(5) 0.6015(8)
H33 H 0.4538 0.5462 0.5401
C67 C 0.4092(8) 0.4360(14) 0.7352(7)
H34 H 0.3616 0.3790 0.7655
C68 C 0.4955(23) 0.5045(12) 0.7840(13)
H35 H 0.5066 0.4933 0.8448
C69 C 0.3040(6) 0.3768(9) 0.5919(6)
C70 C 0.3579(12) 0.1790(6) 0.8415(10)
C71 C 0.2955(9) 0.1478(5) 0.9202(9)
H36 H 0.2267 0.1134 0.9122
C73 C 0.3166(10) 0.1583(5) 0.7478(9)
C76 C 0.4564(16) 0.2282(8) 0.8517(15)
H38 H 0.4983 0.2492 0.8005
C77 C 0.4966(17) 0.2483(8) 0.9445(19)
H39 H 0.5655 0.2828 0.9515
O41 O 0.7098(7) 0.7523(5) 0.6256(5)
O42 O 0.5971(7) 0.7084(5) 0.5141(4)
C78 C 0.5498(10) 0.6065(7) 0.6471(6)
C79 C 0.5640(14) 0.5908(8) 0.7352(7)
H40 H 0.6210 0.6384 0.7655
C80 C 0.6232(9) 0.6960(6) 0.5919(6)
H43 H 0.5067 0.0133 0.8448
C86 C 0.8210(6) 0.1789(13) 0.8415(10)
C87 C 0.8522(5) 0.1477(10) 0.9202(9)
H44 H 0.8866 0.1133 0.9122
C89 C 0.8417(5) 0.1583(11) 0.7478(9)
C92 C 0.7718(8) 0.2282(18) 0.8517(15)
H46 H 0.7508 0.2491 0.8005
C93 C 0.7517(8) 0.2483(19) 0.9445(19)
H47 H 0.7172 0.2827 0.9515
Pb28 Pb 0.724048(21) 0.862024(15) 0.45451(3)
Pb36 Pb 0.824520(23) 0.912260(16) 0.72869(3)
Pb3_7 Pb 1.0000 1.0000 0.0000
O7_4 O 1.0000 1.0000 0.2106(12)
O10 O 0.7523(5) 0.7098(7) 0.3744(5)
O11 O 0.7084(5) 0.5971(7) 0.4859(4)
O12 O 0.6241(6) 0.8120(7) 0.3180(6)
O13 O 0.7800(6) 0.8900(7) 0.2598(5)
C17 C 0.6065(7) 0.5498(10) 0.3529(6)
C18 C 0.5360(5) 0.4641(11) 0.3985(8)
H9 H 0.5462 0.4538 0.4599
C19 C 0.5908(8) 0.5640(14) 0.2648(7)
H10 H 0.6384 0.6210 0.2345
C20 C 0.5045(12) 0.4955(23) 0.2160(13)
H11 H 0.4933 0.5066 0.1552
C21 C 0.6960(6) 0.6232(9) 0.4081(6)
C22 C 0.6421(12) 0.8211(13) 0.1585(10)
C23 C 0.7045(9) 0.8523(10) 0.0798(9)
H12 H 0.7733 0.8867 0.0878
C25 C 0.6834(10) 0.8417(11) 0.2522(9)
C28 C 0.5436(16) 0.7718(18) 0.1483(15)
H14 H 0.5017 0.7509 0.1995
C29 C 0.5034(17) 0.7517(19) 0.0555(19)
H15 H 0.4345 0.7173 0.0485
C30 C 0.4502(10) 0.3935(7) 0.3529(6)
C31 C 0.4360(14) 0.4092(8) 0.2648(7)
H16 H 0.3790 0.3616 0.2345
C32 C 0.3768(9) 0.3040(6) 0.4081(6)
H19 H 0.4934 0.9867 0.1552
C38 C 0.1789(13) 0.8210(6) 0.1585(10)
C39 C 0.1477(10) 0.8522(5) 0.0798(9)
H20 H 0.1133 0.8866 0.0878
C41 C 0.1583(11) 0.8417(5) 0.2522(9)
C44 C 0.2282(18) 0.7718(8) 0.1483(15)
H22 H 0.2491 0.7508 0.1995
C45 C 0.2483(19) 0.7517(8) 0.0555(19)
H23 H 0.2827 0.7172 0.0485
O30 O 0.9107(8) 0.8214(7) 0.0828(7)
O31 O 0.8425(13) 0.6851(11) 0.1651(9)
C56 C 0.8330(13) 0.6659(12) 0.0080(10)
C58 C 0.8644(11) 0.7288(10) 0.0917(9)
C59 C 0.7825(20) 0.5650(18) 0.0277(18)
H29 H 0.7697 0.5393 0.0874
O62 O 0.7098(7) 0.9575(5) 0.6256(5)
O78 O 0.8120(7) 0.6241(6) 0.6820(6)
O88 O 0.8900(7) 0.7800(6) 0.7402(5)
Pb3_8 Pb 1.0000 1.0000 1.0000
O14 O 0.8214(7) 0.9107(8) 0.9172(7)
O15 O 0.6851(11) 0.8425(13) 0.8349(9)
C24 C 0.6659(12) 0.8330(13) 0.9920(10)
C26 C 0.7288(10) 0.8644(11) 0.9083(9)
C27 C 0.5650(18) 0.7825(20) 0.9723(18)
H13 H 0.5393 0.7697 0.9126
C40 C 0.1670(13) 0.8329(6) 0.9920(10)
C42 C 0.1356(11) 0.8644(5) 0.9083(9)
C43 C 0.2175(20) 0.7825(9) 0.9723(18)
H21 H 0.2303 0.7696 0.9126
O32_4 O 1.0000 1.0000 0.7894(12)
H27 H 0.9867 0.4934 0.8448
C54 C 0.8211(13) 0.6421(12) 0.8415(10)
C55 C 0.8523(10) 0.7045(9) 0.9202(9)
H28 H 0.8867 0.7733 0.9122
C57 C 0.8417(11) 0.6834(10) 0.7478(9)
C60 C 0.7718(18) 0.5436(16) 0.8517(15)
H30 H 0.7509 0.5017 0.8005
C61 C 0.7517(19) 0.5034(17) 0.9445(19)
H31 H 0.7173 0.4345 0.9515
O44 O 0.5971(7) 0.8887(5) 0.5141(4)
C81 C 0.5498(10) 0.9433(7) 0.6471(6)
C82 C 0.4640(5) 0.9281(10) 0.6015(8)
H41 H 0.4538 0.9076 0.5401
C83 C 0.5640(14) 0.9732(11) 0.7352(7)
H42 H 0.6210 0.9826 0.7655
C84 C 0.4955(12) 0.991(2) 0.7840(13)
C85 C 0.6232(9) 0.9272(7) 0.5919(6)
C94 C 0.3935(7) 0.9433(7) 0.6471(6)
C95 C 0.4092(8) 0.9732(11) 0.7352(7)
H48 H 0.3616 0.9826 0.7655
C96 C 0.3040(6) 0.9272(7) 0.5919(6)
Na1 Na 0.0000 0.0000 0.5000
Na1_2 Na 0.0000 1.0000 0.5000
Na1_3 Na 1.0000 0.0000 0.5000
Na1_4 Na 1.0000 1.0000 0.5000
loop_
_geom_bond_atom_site_label_1
_geom_bond_atom_site_label_2
_geom_bond_site_symmetry_1
_geom_bond_site_symmetry_2
O3 C9 1_555 1_555
C6 C7 1_555 1_555
C7 H4 1_555 1_555
C9 O4 1_555 1_555
C12 C6 1_555 1_555
H6 C12 1_555 1_555
H7 C13 1_555 1_555
Pb32 O4 1_555 1_555
O91 Pb3 1_555 1_555
O3 Pb26 1_555 1_555
O4 Pb26 1_555 1_555
O7 Pb32 1_555 1_555
C6 C9 1_555 1_555
C12 C13 1_555 1_555
Pb32 O91 1_555 1_555
Pb3_2 O5 1_555 1_555
O5 C10 1_555 1_555
O6 C10 1_555 1_555
C10 C8 1_555 1_555
C11 C8 1_555 1_555
H5 C11 1_555 1_555
Pb35 O5 1_555 1_555
O6 Pb35 1_555 1_555
O32 Pb35 1_555 1_555
Pb35 O85 1_555 1_555
Pb23 O27 1_555 1_555
Pb9 O60 1_555 1_555
O60 C53 1_555 1_555
O27 C53 1_555 1_555
O32_2 Pb9 1_555 1_555
C49 C50 1_555 1_555
C50 H25 1_555 1_555
C51 C49 1_555 1_555
H26 C51 1_555 1_555
C52 C51 1_555 1_555
C53 C49 1_555 1_555
O57 C64 1_555 1_555
O34 C64 1_555 1_555
C62 C50 1_555 1_555
C63 C52 1_555 1_555
H32 C63 1_555 1_555
C64 C62 1_555 1_555
Pb26 O34 1_555 1_555
Pb35 O57 1_555 1_555
O55 Pb9 1_555 1_555
O68 Pb23 1_555 1_555
O75 Pb23 1_555 1_555
O83 Pb23 1_555 1_555
O90 Pb3_4 1_555 1_555
O93 Pb9 1_555 1_555
Pb9 O90 1_555 1_555
C62 C63 1_555 1_555
Pb1 O2 1_555 1_555
Pb2 O1 1_555 1_555
O1 C5 1_555 1_555
O2 C5 1_555 1_555
O7_3 Pb2 1_555 1_555
C1 C2 1_555 1_555
C2 H1 1_555 1_555
C3 C1 1_555 1_555
H2 C3 1_555 1_555
C4 C3 1_555 1_555
C5 C1 1_555 1_555
O8 C16 1_555 1_555
O9 C16 1_555 1_555
C14 C2 1_555 1_555
C15 C4 1_555 1_555
H8 C15 1_555 1_555
C16 C14 1_555 1_555
Pb6 O19 1_555 1_555
Pb32 O53 1_555 1_555
O53 C37 1_555 1_555
O19 C37 1_555 1_555
C33 C34 1_555 1_555
C34 H17 1_555 1_555
C35 C33 1_555 1_555
H18 C35 1_555 1_555
C36 C35 1_555 1_555
C37 C33 1_555 1_555
O24 Pb2 1_555 1_555
O25 Pb1 1_555 1_555
C46 C34 1_555 1_555
C47 C36 1_555 1_555
H24 C47 1_555 1_555
C48 O24 1_555 1_555
O40 Pb32 1_555 1_555
C74 O91 1_555 1_555
C75 C72 1_555 1_555
H37 C75 1_555 1_555
O47 Pb2 1_555 1_555
O48 Pb2 1_555 1_555
C90 O47 1_555 1_555
C91 C88 1_555 1_555
H45 C91 1_555 1_555
Pb18 O9 1_555 1_555
Pb30 O8 1_555 1_555
O61 Pb6 1_555 1_555
O67 Pb32 1_555 1_555
O72 Pb6 1_555 1_555
O76 Pb6 1_555 1_555
O77 Pb1 1_555 1_555
O85 Pb6 1_555 1_555
O87 Pb1 1_555 1_555
Pb3_5 O47 1_555 1_555
C14 C15 1_555 1_555
O25 C48 1_555 1_555
C46 C47 1_555 1_555
C46 C48 1_555 1_555
O40 C74 1_555 1_555
C72 C74 1_555 1_555
O48 C90 1_555 1_555
C88 C90 1_555 1_555
Pb26 O36 1_555 1_555
Pb35 O61 1_555 1_555
O61 C69 1_555 1_555
O36 C69 1_555 1_555
O76 C73 1_555 1_555
C65 C66 1_555 1_555
C66 H33 1_555 1_555
C67 C65 1_555 1_555
H34 C67 1_555 1_555
C68 C67 1_555 1_555
H35 C68 1_555 1_555
C69 C65 1_555 1_555
C70 C71 1_555 1_555
C71 H36 1_555 1_555
C73 O85 1_555 1_555
C76 C70 1_555 1_555
H38 C76 1_555 1_555
H39 C77 1_555 1_555
O41 C80 1_555 1_555
O42 C80 1_555 1_555
C78 C66 1_555 1_555
C79 C68 1_555 1_555
H40 C79 1_555 1_555
C80 C78 1_555 1_555
O77 C89 1_555 1_555
C86 C87 1_555 1_555
C87 H44 1_555 1_555
C89 O87 1_555 1_555
C92 C86 1_555 1_555
H46 C92 1_555 1_555
H47 C93 1_555 1_555
Pb18 O41 1_555 1_555
Pb28 O42 1_555 1_555
Pb36 O41 1_555 1_555
O67 Pb26 1_555 1_555
C70 C73 1_555 1_555
C76 C77 1_555 1_555
C78 C79 1_555 1_555
C86 C89 1_555 1_555
C92 C93 1_555 1_555
Pb18 O11 1_555 1_555
Pb30 O7_4 1_555 1_555
O10 Pb30 1_555 1_555
O11 C21 1_555 1_555
O12 C25 1_555 1_555
C17 C18 1_555 1_555
C18 H9 1_555 1_555
C19 C17 1_555 1_555
H10 C19 1_555 1_555
C20 C19 1_555 1_555
H11 C20 1_555 1_555
C21 O10 1_555 1_555
C22 C23 1_555 1_555
C23 H12 1_555 1_555
C25 O13 1_555 1_555
C28 C22 1_555 1_555
H14 C28 1_555 1_555
H15 C29 1_555 1_555
O67 C32 1_555 1_555
O72 C32 1_555 1_555
C30 C18 1_555 1_555
C31 C20 1_555 1_555
H16 C31 1_555 1_555
C32 C30 1_555 1_555
O75 C41 1_555 1_555
C38 C39 1_555 1_555
C39 H20 1_555 1_555
C41 O83 1_555 1_555
C44 C38 1_555 1_555
H22 C44 1_555 1_555
H23 C45 1_555 1_555
O30 Pb3_7 1_555 1_555
O31 Pb30 1_555 1_555
C58 O30 1_555 1_555
C59 C56 1_555 1_555
H29 C59 1_555 1_555
Pb28 O10 1_555 1_555
O78 Pb18 1_555 1_555
O88 Pb18 1_555 1_555
Pb30 O13 1_555 1_555
Pb30 O30 1_555 1_555
O12 Pb28 1_555 1_555
O13 Pb28 1_555 1_555
C17 C21 1_555 1_555
C22 C25 1_555 1_555
C28 C29 1_555 1_555
C30 C31 1_555 1_555
C38 C41 1_555 1_555
C44 C45 1_555 1_555
O31 C58 1_555 1_555
C56 C58 1_555 1_555
O14 Pb3_8 1_555 1_555
O15 C26 1_555 1_555
C26 O14 1_555 1_555
C27 C24 1_555 1_555
H13 C27 1_555 1_555
O90 C42 1_555 1_555
O93 C42 1_555 1_555
C42 C40 1_555 1_555
C43 C40 1_555 1_555
H21 C43 1_555 1_555
O78 C57 1_555 1_555
C54 C55 1_555 1_555
C55 H28 1_555 1_555
C57 O88 1_555 1_555
C60 C54 1_555 1_555
H30 C60 1_555 1_555
H31 C61 1_555 1_555
Pb28 O44 1_555 1_555
Pb36 O14 1_555 1_555
O62 Pb36 1_555 1_555
O44 C85 1_555 1_555
C81 C82 1_555 1_555
C82 H41 1_555 1_555
C83 C81 1_555 1_555
H42 C83 1_555 1_555
C84 C83 1_555 1_555
C85 O62 1_555 1_555
O55 C96 1_555 1_555
O68 C96 1_555 1_555
C94 C82 1_555 1_555
C95 C84 1_555 1_555
H48 C95 1_555 1_555
C96 C94 1_555 1_555
O15 Pb36 1_555 1_555
C24 C26 1_555 1_555
O88 Pb36 1_555 1_555
O32_4 Pb36 1_555 1_555
C54 C57 1_555 1_555
C60 C61 1_555 1_555
C81 C85 1_555 1_555
C94 C95 1_555 1_555

#END
