
###############################################################################
#
# This file contains modified crystal structure data generated from the
# MOF subset of the Cambridge Structural Database (CSD) v543 
# hosted by the Cambridge Crystallographic Data Centre (CCDC).
#
# This work is licensed under the Creative Commons
# Attribution-NonCommercial-ShareAlike 4.0 International License.
# To view a copy of this license, visit
# http://creativecommons.org/licenses/by-nc-sa/4.0/
# or send a letter to
# Creative Commons, PO Box 1866, Mountain View, CA 94042, USA.
#
# CIF created using the CSD Python API on 29 September 2022
# The structure has been converted into the P1 space group
# The structure has a 3D framework
# The original CSD entry HIQDUJ02 is in the tetragonal crystal system
# The framework has been calculated to contain at least 10.0% void space
# The void calculation uses a probe of radius 1.32A, grid spacing 0.4
# H atom positions have been added when not included in the experimental data
#
###############################################################################

data_HIQDUJ02
_chemical_formula_moiety         '(C88 H64 Co1 N8 Ni3 O24 P8)n'
_symmetry_cell_setting           triclinic
_symmetry_space_group_name_H-M   'P 1'
_symmetry_Int_Tables_number      1
_space_group_name_Hall           'P 1'
loop_
_symmetry_equiv_pos_site_id
_symmetry_equiv_pos_as_xyz
1 x,y,z
_cell_length_a                   21.980(5)
_cell_length_b                   21.980(5)
_cell_length_c                   8.9600(17)
_cell_angle_alpha                90
_cell_angle_beta                 90
_cell_angle_gamma                90
_cell_volume                     4328.76
loop_
_atom_site_label
_atom_site_type_symbol
_atom_site_fract_x
_atom_site_fract_y
_atom_site_fract_z
Co2 Co -0.0000 0.5000 0.423(2)
O13 O 0.0379(11) 0.5645(11) 0.036(3)
O15 O 0.0379(11) 0.4355(11) 0.536(3)
O16 O 0.0646(11) 0.5326(13) 0.311(3)
Co1 Co -0.0000 0.5000 0.923(2)
O18 O 0.0646(11) 0.4674(13) 0.811(3)
Co5 Co 0.5000 -0.0000 0.077(2)
Co8 Co 0.5000 0.0000 0.577(2)
Ni1 Ni 0.5000 0.5000 0.0000
P1 P 0.9245(6) 0.4197(8) 0.185(2)
O1 O 0.9621(11) 0.4355(11) 0.036(3)
O2 O 0.9354(11) 0.4674(13) 0.311(3)
O3 O 0.9348(15) 0.3540(18) 0.229(4)
C4 C 0.6093(9) 0.4191(7) 0.006(3)
C5 C 0.6526(8) 0.4653(8) 0.052(3)
C6 C 0.7162(9) 0.4499(9) 0.060(3)
C8 C 0.8236(9) 0.4655(9) 0.014(4)
C9 C 0.8410(10) 0.4264(11) 0.124(3)
C10 C 0.7980(9) 0.3974(11) 0.203(3)
H5 H 0.8100 0.3682 0.2751
C11 C 0.7334(9) 0.4093(10) 0.180(3)
H6 H 0.7036 0.3912 0.2429
N2 N 0.4264(7) 0.4508(8) 0.005(3)
C12 C 0.3646(8) 0.4724(9) 0.050(3)
C13 C 0.3296(9) 0.4241(8) 0.081(3)
H7 H 0.2896 0.4262 0.1205
C14 C 0.3584(8) 0.3737(9) 0.048(3)
H8 H 0.3428 0.3335 0.0573
C18 C 0.4778(10) 0.2367(8) 0.008(4)
H9 H 0.5091 0.2463 0.0768
H10 H 0.4840 0.1466 0.0483
N3 N 0.5736(7) 0.5492(8) 0.005(3)
C23 C 0.6354(8) 0.5276(9) 0.050(3)
C24 C 0.6704(9) 0.5759(8) 0.081(3)
H13 H 0.7104 0.5738 0.1205
C25 C 0.6416(8) 0.6263(9) 0.048(3)
H14 H 0.6572 0.6665 0.0573
C29 C 0.5222(10) 0.7633(8) 0.008(4)
H15 H 0.4909 0.7537 0.0768
H16 H 0.5160 0.8534 0.0483
P4 P 0.0755(6) 0.5803(8) 0.185(2)
O12 O 0.0652(15) 0.6460(18) 0.229(4)
C37 C 0.3907(9) 0.5809(7) 0.006(3)
C38 C 0.3474(8) 0.5347(8) 0.052(3)
C39 C 0.2838(9) 0.5501(9) 0.060(3)
C41 C 0.1764(9) 0.5345(9) 0.014(4)
C42 C 0.1590(10) 0.5736(11) 0.124(3)
C43 C 0.2020(9) 0.6026(11) 0.203(3)
H23 H 0.1900 0.6318 0.2751
C44 C 0.2666(9) 0.5907(10) 0.180(3)
H24 H 0.2964 0.6088 0.2429
Co2_2 Co 1.0000 0.5000 0.423(2)
Co5_2 Co 0.5000 1.0000 0.077(2)
O14 O 0.9621(11) 0.5645(11) 0.536(3)
H25 H 0.978801 0.347202 0.24779
H26 H 0.0211987 0.652798 0.24779
Co1_2 Co 1.0000 0.5000 0.923(2)
Ni1_2 Ni 0.5000 0.5000 1.0000
N1 N 0.5492(8) 0.4264(7) 0.995(3)
C1 C 0.5276(9) 0.3646(8) 0.950(3)
C2 C 0.5759(8) 0.3296(9) 0.919(3)
H1 H 0.5738 0.2896 0.8795
C3 C 0.6263(9) 0.3584(8) 0.952(3)
H2 H 0.6665 0.3428 0.9427
C7 C 0.7633(8) 0.4778(10) 0.992(4)
H3 H 0.7537 0.5091 0.9232
H4 H 0.8534 0.4840 0.9517
P2 P 0.4197(8) 0.0755(6) 0.815(2)
O4 O 0.4355(11) 0.0379(11) 0.964(3)
O5 O 0.4674(13) 0.0646(11) 0.689(3)
O6 O 0.3540(18) 0.0652(15) 0.771(4)
C15 C 0.4191(7) 0.3907(9) 0.994(3)
C16 C 0.4653(8) 0.3474(8) 0.948(3)
C17 C 0.4499(9) 0.2838(9) 0.940(3)
C19 C 0.4655(9) 0.1764(9) 0.986(4)
C20 C 0.4264(11) 0.1590(10) 0.876(3)
C21 C 0.3974(11) 0.2020(9) 0.797(3)
H11 H 0.3682 0.1900 0.7249
C22 C 0.4093(10) 0.2666(9) 0.820(3)
H12 H 0.3912 0.2964 0.7571
P3 P 0.5803(8) 0.9245(6) 0.815(2)
O7 O 0.5645(11) 0.9621(11) 0.964(3)
O8 O 0.5326(13) 0.9354(11) 0.689(3)
O9 O 0.6460(18) 0.9348(15) 0.771(4)
C26 C 0.5809(7) 0.6093(9) 0.994(3)
C27 C 0.5347(8) 0.6526(8) 0.948(3)
C28 C 0.5501(9) 0.7162(9) 0.940(3)
C30 C 0.5345(9) 0.8236(9) 0.986(4)
C31 C 0.5736(11) 0.8410(10) 0.876(3)
C32 C 0.6026(11) 0.7980(9) 0.797(3)
H17 H 0.6318 0.8100 0.7249
C33 C 0.5907(10) 0.7334(9) 0.820(3)
H18 H 0.6088 0.7036 0.7571
N4 N 0.4508(8) 0.5736(7) 0.995(3)
C34 C 0.4724(9) 0.6354(8) 0.950(3)
C35 C 0.4241(8) 0.6704(9) 0.919(3)
H19 H 0.4262 0.7104 0.8795
C36 C 0.3737(9) 0.6416(8) 0.952(3)
H20 H 0.3335 0.6572 0.9427
C40 C 0.2367(8) 0.5222(10) 0.992(4)
H21 H 0.2463 0.4909 0.9232
H22 H 0.1466 0.5160 0.9517
Co8_2 Co 0.5000 1.0000 0.577(2)
O17 O 0.9354(11) 0.5326(13) 0.811(3)
H27 H 0.673078 0.920971 0.852971
H28 H 0.326922 0.0790286 0.852971
O17_2 O 0.5326(13) 0.0646(11) 0.189(3)
H27_2 H 0.920971 0.326922 0.147029
H28_2 H 0.0790286 0.673078 0.147029
O14_2 O 0.5645(11) 0.0379(11) 0.464(3)
H25_2 H 0.347202 0.0211987 0.75221
H26_2 H 0.652798 0.978801 0.75221
O18_2 O 0.4674(13) 0.9354(11) 0.189(3)
O15_2 O 0.4355(11) 0.9621(11) 0.464(3)
Ni1_3 Ni 0.5000 0.5000 0.5000
P1_2 P 0.9245(6) 0.5803(8) 0.685(2)
N1_2 N 0.5492(8) 0.5736(7) 0.495(3)
O3_2 O 0.9348(15) 0.6460(18) 0.729(4)
C1_2 C 0.5276(9) 0.6354(8) 0.450(3)
C2_2 C 0.5759(8) 0.6704(9) 0.419(3)
H1_2 H 0.5738 0.7104 0.3795
C3_2 C 0.6263(9) 0.6416(8) 0.452(3)
H2_2 H 0.6665 0.6572 0.4427
C4_2 C 0.6093(9) 0.5809(7) 0.506(3)
C5_2 C 0.6526(8) 0.5347(8) 0.552(3)
C6_2 C 0.7162(9) 0.5501(9) 0.560(3)
C7_2 C 0.7633(8) 0.5222(10) 0.492(4)
H3_2 H 0.7537 0.4909 0.4232
C8_2 C 0.8236(9) 0.5345(9) 0.514(4)
H4_2 H 0.8534 0.5160 0.4517
C9_2 C 0.8410(10) 0.5736(11) 0.624(3)
C10_2 C 0.7980(9) 0.6026(11) 0.703(3)
H5_2 H 0.8100 0.6318 0.7751
C11_2 C 0.7334(9) 0.5907(10) 0.680(3)
H6_2 H 0.7036 0.6088 0.7429
P2_2 P 0.4197(8) 0.9245(6) 0.315(2)
N2_2 N 0.4264(7) 0.5492(8) 0.505(3)
O6_2 O 0.3540(18) 0.9348(15) 0.271(4)
C12_2 C 0.3646(8) 0.5276(9) 0.550(3)
C13_2 C 0.3296(9) 0.5759(8) 0.581(3)
H7_2 H 0.2896 0.5738 0.6205
C14_2 C 0.3584(8) 0.6263(9) 0.548(3)
H8_2 H 0.3428 0.6665 0.5573
C15_2 C 0.4191(7) 0.6093(9) 0.494(3)
C16_2 C 0.4653(8) 0.6526(8) 0.448(3)
C17_2 C 0.4499(9) 0.7162(9) 0.440(3)
C18_2 C 0.4778(10) 0.7633(8) 0.508(4)
H9_2 H 0.5091 0.7537 0.5768
C19_2 C 0.4655(9) 0.8236(9) 0.486(4)
H10_2 H 0.4840 0.8534 0.5483
C20_2 C 0.4264(11) 0.8410(10) 0.376(3)
C21_2 C 0.3974(11) 0.7980(9) 0.297(3)
H11_2 H 0.3682 0.8100 0.2249
C22_2 C 0.4093(10) 0.7334(9) 0.320(3)
H12_2 H 0.3912 0.7036 0.2571
P3_2 P 0.5803(8) 0.0755(6) 0.315(2)
N3_2 N 0.5736(7) 0.4508(8) 0.505(3)
O9_2 O 0.6460(18) 0.0652(15) 0.271(4)
C23_2 C 0.6354(8) 0.4724(9) 0.550(3)
C24_2 C 0.6704(9) 0.4241(8) 0.581(3)
H13_2 H 0.7104 0.4262 0.6205
C25_2 C 0.6416(8) 0.3737(9) 0.548(3)
H14_2 H 0.6572 0.3335 0.5573
C26_2 C 0.5809(7) 0.3907(9) 0.494(3)
C27_2 C 0.5347(8) 0.3474(8) 0.448(3)
C28_2 C 0.5501(9) 0.2838(9) 0.440(3)
C29_2 C 0.5222(10) 0.2367(8) 0.508(4)
H15_2 H 0.4909 0.2463 0.5768
C30_2 C 0.5345(9) 0.1764(9) 0.486(4)
H16_2 H 0.5160 0.1466 0.5483
C31_2 C 0.5736(11) 0.1590(10) 0.376(3)
C32_2 C 0.6026(11) 0.2020(9) 0.297(3)
H17_2 H 0.6318 0.1900 0.2249
C33_2 C 0.5907(10) 0.2666(9) 0.320(3)
H18_2 H 0.6088 0.2964 0.2571
P4_2 P 0.0755(6) 0.4197(8) 0.685(2)
N4_2 N 0.4508(8) 0.4264(7) 0.495(3)
O12_2 O 0.0652(15) 0.3540(18) 0.729(4)
C34_2 C 0.4724(9) 0.3646(8) 0.450(3)
C35_2 C 0.4241(8) 0.3296(9) 0.419(3)
H19_2 H 0.4262 0.2896 0.3795
C36_2 C 0.3737(9) 0.3584(8) 0.452(3)
H20_2 H 0.3335 0.3428 0.4427
C37_2 C 0.3907(9) 0.4191(7) 0.506(3)
C38_2 C 0.3474(8) 0.4653(8) 0.552(3)
C39_2 C 0.2838(9) 0.4499(9) 0.560(3)
C40_2 C 0.2367(8) 0.4778(10) 0.492(4)
H21_2 H 0.2463 0.5091 0.4232
C41_2 C 0.1764(9) 0.4655(9) 0.514(4)
H22_2 H 0.1466 0.4840 0.4517
C42_2 C 0.1590(10) 0.4264(11) 0.624(3)
C43_2 C 0.2020(9) 0.3974(11) 0.703(3)
H23_2 H 0.1900 0.3682 0.7751
C44_2 C 0.2666(9) 0.4093(10) 0.680(3)
H24_2 H 0.2964 0.3912 0.7429
H25_3 H 0.978801 0.652798 0.74779
H26_3 H 0.0211987 0.347202 0.74779
H27_3 H 0.673078 0.0790286 0.352971
H28_3 H 0.326922 0.920971 0.352971
H25_4 H 0.347202 0.978801 0.25221
H26_4 H 0.652798 0.0211987 0.25221
H27_4 H 0.920971 0.673078 0.647029
H28_4 H 0.0790286 0.326922 0.647029
loop_
_geom_bond_atom_site_label_1
_geom_bond_atom_site_label_2
_geom_bond_site_symmetry_1
_geom_bond_site_symmetry_2
O15 Co2 1_555 1_555
O16 Co2 1_555 1_555
O18 Co1 1_555 1_555
P1 O1 1_555 1_555
O2 P1 1_555 1_555
O3 P1 1_555 1_555
C5 C4 1_555 1_555
C6 C5 1_555 1_555
C9 P1 1_555 1_555
C10 C9 1_555 1_555
H5 C10 1_555 1_555
C11 C6 1_555 1_555
H6 C11 1_555 1_555
N2 Ni1 1_555 1_555
C12 N2 1_555 1_555
C13 C12 1_555 1_555
H7 C13 1_555 1_555
C14 C13 1_555 1_555
H8 C14 1_555 1_555
H9 C18 1_555 1_555
N3 Ni1 1_555 1_555
C23 C5 1_555 1_555
C24 C23 1_555 1_555
H13 C24 1_555 1_555
C25 C24 1_555 1_555
H14 C25 1_555 1_555
H15 C29 1_555 1_555
P4 O13 1_555 1_555
O16 P4 1_555 1_555
O12 P4 1_555 1_555
C38 C12 1_555 1_555
C39 C38 1_555 1_555
C42 P4 1_555 1_555
C43 C42 1_555 1_555
H23 C43 1_555 1_555
C44 C39 1_555 1_555
H24 C44 1_555 1_555
Co2_2 O2 1_555 1_555
O14 Co2_2 1_555 1_555
C8 C9 1_555 1_555
C10 C11 1_555 1_555
N3 C23 1_555 1_555
C37 C38 1_555 1_555
C41 C42 1_555 1_555
C43 C44 1_555 1_555
O3 H25 1_555 1_555
O12 H26 1_555 1_555
Ni1_2 N1 1_555 1_555
N1 C1 1_555 1_555
C1 C2 1_555 1_555
C2 H1 1_555 1_555
C3 C2 1_555 1_555
H2 C3 1_555 1_555
H3 C7 1_555 1_555
P2 O4 1_555 1_555
O5 P2 1_555 1_555
O6 P2 1_555 1_555
C16 C1 1_555 1_555
C17 C16 1_555 1_555
C20 P2 1_555 1_555
C21 C20 1_555 1_555
H11 C21 1_555 1_555
C22 C17 1_555 1_555
H12 C22 1_555 1_555
P3 O7 1_555 1_555
O8 P3 1_555 1_555
O9 P3 1_555 1_555
C27 C26 1_555 1_555
C28 C27 1_555 1_555
C31 P3 1_555 1_555
C32 C31 1_555 1_555
H17 C32 1_555 1_555
C33 C28 1_555 1_555
H18 C33 1_555 1_555
N4 Ni1_2 1_555 1_555
C34 C27 1_555 1_555
C35 C34 1_555 1_555
H19 C35 1_555 1_555
C36 C35 1_555 1_555
H20 C36 1_555 1_555
H21 C40 1_555 1_555
Co8 O5 1_555 1_555
Co8_2 O8 1_555 1_555
O17 Co1_2 1_555 1_555
C15 C16 1_555 1_555
C19 C20 1_555 1_555
C21 C22 1_555 1_555
C30 C31 1_555 1_555
C32 C33 1_555 1_555
N4 C34 1_555 1_555
O9 H27 1_555 1_555
O6 H28 1_555 1_555
O17_2 Co5 1_555 1_555
O3 H27_2 1_555 1_555
O12 H28_2 1_555 1_555
O14_2 Co8 1_555 1_555
O6 H25_2 1_555 1_555
O9 H26_2 1_555 1_555
O18_2 Co5_2 1_555 1_555
O15_2 Co8_2 1_555 1_555
Ni1_3 N1_2 1_555 1_555
P1_2 O14 1_555 1_555
N1_2 C1_2 1_555 1_555
O17 P1_2 1_555 1_555
O3_2 P1_2 1_555 1_555
C1_2 C2_2 1_555 1_555
C2_2 H1_2 1_555 1_555
C3_2 C2_2 1_555 1_555
H2_2 C3_2 1_555 1_555
C4_2 N1_2 1_555 1_555
C5_2 C4_2 1_555 1_555
C6_2 C5_2 1_555 1_555
C7_2 C6_2 1_555 1_555
H3_2 C7_2 1_555 1_555
C8_2 C7_2 1_555 1_555
H4_2 C8_2 1_555 1_555
C9_2 P1_2 1_555 1_555
C10_2 C9_2 1_555 1_555
H5_2 C10_2 1_555 1_555
C11_2 C6_2 1_555 1_555
H6_2 C11_2 1_555 1_555
P2_2 O15_2 1_555 1_555
N2_2 Ni1_3 1_555 1_555
O18_2 P2_2 1_555 1_555
O6_2 P2_2 1_555 1_555
C12_2 N2_2 1_555 1_555
C13_2 C12_2 1_555 1_555
H7_2 C13_2 1_555 1_555
C14_2 C13_2 1_555 1_555
H8_2 C14_2 1_555 1_555
C15_2 N2_2 1_555 1_555
C16_2 C1_2 1_555 1_555
C17_2 C16_2 1_555 1_555
C18_2 C17_2 1_555 1_555
H9_2 C18_2 1_555 1_555
C19_2 C18_2 1_555 1_555
H10_2 C19_2 1_555 1_555
C20_2 P2_2 1_555 1_555
C21_2 C20_2 1_555 1_555
H11_2 C21_2 1_555 1_555
C22_2 C17_2 1_555 1_555
H12_2 C22_2 1_555 1_555
P3_2 O14_2 1_555 1_555
N3_2 Ni1_3 1_555 1_555
O17_2 P3_2 1_555 1_555
O9_2 P3_2 1_555 1_555
C23_2 C5_2 1_555 1_555
C24_2 C23_2 1_555 1_555
H13_2 C24_2 1_555 1_555
C25_2 C24_2 1_555 1_555
H14_2 C25_2 1_555 1_555
C26_2 N3_2 1_555 1_555
C27_2 C26_2 1_555 1_555
C28_2 C27_2 1_555 1_555
C29_2 C28_2 1_555 1_555
H15_2 C29_2 1_555 1_555
C30_2 C29_2 1_555 1_555
H16_2 C30_2 1_555 1_555
C31_2 P3_2 1_555 1_555
C32_2 C31_2 1_555 1_555
H17_2 C32_2 1_555 1_555
C33_2 C28_2 1_555 1_555
H18_2 C33_2 1_555 1_555
P4_2 O15 1_555 1_555
N4_2 Ni1_3 1_555 1_555
O18 P4_2 1_555 1_555
O12_2 P4_2 1_555 1_555
C34_2 C27_2 1_555 1_555
C35_2 C34_2 1_555 1_555
H19_2 C35_2 1_555 1_555
C36_2 C35_2 1_555 1_555
H20_2 C36_2 1_555 1_555
C37_2 N4_2 1_555 1_555
C38_2 C12_2 1_555 1_555
C39_2 C38_2 1_555 1_555
C40_2 C39_2 1_555 1_555
H21_2 C40_2 1_555 1_555
C41_2 C40_2 1_555 1_555
H22_2 C41_2 1_555 1_555
C42_2 P4_2 1_555 1_555
C43_2 C42_2 1_555 1_555
H23_2 C43_2 1_555 1_555
C44_2 C39_2 1_555 1_555
H24_2 C44_2 1_555 1_555
C3_2 C4_2 1_555 1_555
C8_2 C9_2 1_555 1_555
C10_2 C11_2 1_555 1_555
C14_2 C15_2 1_555 1_555
C15_2 C16_2 1_555 1_555
C19_2 C20_2 1_555 1_555
C21_2 C22_2 1_555 1_555
N3_2 C23_2 1_555 1_555
C25_2 C26_2 1_555 1_555
C30_2 C31_2 1_555 1_555
C32_2 C33_2 1_555 1_555
N4_2 C34_2 1_555 1_555
C36_2 C37_2 1_555 1_555
C37_2 C38_2 1_555 1_555
C41_2 C42_2 1_555 1_555
C43_2 C44_2 1_555 1_555
O3_2 H25_3 1_555 1_555
O12_2 H26_3 1_555 1_555
O9_2 H27_3 1_555 1_555
O6_2 H28_3 1_555 1_555
O6_2 H25_4 1_555 1_555
O9_2 H26_4 1_555 1_555
O3_2 H27_4 1_555 1_555
O12_2 H28_4 1_555 1_555

#END
