
###############################################################################
#
# This file contains modified crystal structure data generated from the
# MOF subset of the Cambridge Structural Database (CSD) v543 
# hosted by the Cambridge Crystallographic Data Centre (CCDC).
#
# This work is licensed under the Creative Commons
# Attribution-NonCommercial-ShareAlike 4.0 International License.
# To view a copy of this license, visit
# http://creativecommons.org/licenses/by-nc-sa/4.0/
# or send a letter to
# Creative Commons, PO Box 1866, Mountain View, CA 94042, USA.
#
# CIF created using the CSD Python API on 29 September 2022
# The structure has been converted into the P1 space group
# The structure has a 3D framework
# The original CSD entry HIQDUJ06 is in the tetragonal crystal system
# The framework has been calculated to contain at least 10.0% void space
# The void calculation uses a probe of radius 1.32A, grid spacing 0.4
# H atom positions have been added when not included in the experimental data
#
###############################################################################

data_HIQDUJ06
_chemical_formula_moiety         '(C88 H64 Co1 N8 Ni3 O24 P8)n'
_symmetry_cell_setting           triclinic
_symmetry_space_group_name_H-M   'P 1'
_symmetry_Int_Tables_number      1
_space_group_name_Hall           'P 1'
loop_
_symmetry_equiv_pos_site_id
_symmetry_equiv_pos_as_xyz
1 x,y,z
_cell_length_a                   21.980(5)
_cell_length_b                   21.980(5)
_cell_length_c                   8.9600(17)
_cell_angle_alpha                90
_cell_angle_beta                 90
_cell_angle_gamma                90
_cell_volume                     4328.76
loop_
_atom_site_label
_atom_site_type_symbol
_atom_site_fract_x
_atom_site_fract_y
_atom_site_fract_z
Co2 Co -0.0000 0.5000 0.4260(9)
O13 O 0.0390(5) 0.5669(7) 0.0370(18)
O15 O 0.0390(5) 0.4331(7) 0.5370(18)
O16 O 0.0660(5) 0.5341(8) 0.3093(18)
Co1 Co -0.0000 0.5000 0.9260(9)
O18 O 0.0660(5) 0.4659(8) 0.8093(18)
Co5 Co 0.5000 -0.0000 0.0740(9)
Co8 Co 0.5000 0.0000 0.5740(9)
Ni1 Ni 0.5000 0.5000 0.0000
P1 P 0.9228(3) 0.4194(4) 0.1793(10)
O1 O 0.9610(5) 0.4331(7) 0.0370(18)
O2 O 0.9340(5) 0.4659(8) 0.3093(18)
O3 O 0.9333(7) 0.3536(9) 0.230(3)
C5 C 0.6512(4) 0.4651(5) 0.0440(16)
C6 C 0.7172(5) 0.4499(5) 0.0692(15)
C8 C 0.8247(5) 0.4682(5) 0.0129(17)
C9 C 0.8422(5) 0.4282(6) 0.1297(17)
C10 C 0.7973(5) 0.3983(6) 0.2089(16)
H5 H 0.8086 0.3700 0.2840
C11 C 0.7339(5) 0.4090(5) 0.1804(15)
H6 H 0.7037 0.3884 0.2370
N2 N 0.4256(4) 0.4516(4) 0.0104(11)
C12 C 0.3684(5) 0.4731(5) 0.0500(16)
C13 C 0.3274(5) 0.4226(4) 0.0817(15)
H7 H 0.2869 0.4253 0.1177
C14 C 0.3593(4) 0.3702(5) 0.0491(15)
H8 H 0.3449 0.3296 0.0565
C15 C 0.4199(4) 0.3898(4) 0.0009(16)
C18 C 0.4791(6) 0.2362(5) 0.0172(17)
H9 H 0.5060 0.2471 0.0956
H10 H 0.4878 0.1449 0.0453
N3 N 0.5744(4) 0.5484(4) 0.0104(11)
C23 C 0.6316(5) 0.5269(5) 0.0500(16)
C24 C 0.6726(5) 0.5774(4) 0.0817(15)
H13 H 0.7131 0.5747 0.1177
C25 C 0.6407(4) 0.6298(5) 0.0491(15)
H14 H 0.6551 0.6704 0.0565
C26 C 0.5801(4) 0.6102(4) 0.0009(16)
C29 C 0.5209(6) 0.7638(5) 0.0172(17)
H15 H 0.4940 0.7529 0.0956
H16 H 0.5122 0.8551 0.0453
P4 P 0.0772(3) 0.5806(4) 0.1793(10)
O12 O 0.0667(7) 0.6464(9) 0.230(3)
C38 C 0.3488(4) 0.5349(5) 0.0440(16)
C39 C 0.2828(5) 0.5501(5) 0.0692(15)
C41 C 0.1753(5) 0.5318(5) 0.0129(17)
C42 C 0.1578(5) 0.5718(6) 0.1297(17)
C43 C 0.2027(5) 0.6017(6) 0.2089(16)
H23 H 0.1914 0.6300 0.2840
C44 C 0.2661(5) 0.5910(5) 0.1804(15)
H24 H 0.2963 0.6116 0.2370
Co2_2 Co 1.0000 0.5000 0.4260(9)
Co5_2 Co 0.5000 1.0000 0.0740(9)
O14 O 0.9610(5) 0.5669(7) 0.5370(18)
H25 H 0.977088 0.34755 0.252878
H28 H 0.0229116 0.65245 0.252878
Co1_2 Co 1.0000 0.5000 0.9260(9)
Ni1_2 Ni 0.5000 0.5000 1.0000
N1 N 0.5484(4) 0.4256(4) 0.9896(11)
C1 C 0.5269(5) 0.3684(5) 0.9500(16)
C2 C 0.5774(4) 0.3274(5) 0.9183(15)
H1 H 0.5747 0.2869 0.8823
C3 C 0.6298(5) 0.3593(4) 0.9509(15)
H2 H 0.6704 0.3449 0.9435
C4 C 0.6102(4) 0.4199(4) 0.9991(16)
C7 C 0.7638(5) 0.4791(6) 0.9828(17)
H3 H 0.7529 0.5060 0.9044
H4 H 0.8551 0.4878 0.9547
P2 P 0.4194(4) 0.0772(3) 0.8207(10)
O4 O 0.4331(7) 0.0390(5) 0.9630(18)
O5 O 0.4659(8) 0.0660(5) 0.6907(18)
O6 O 0.3536(9) 0.0667(7) 0.770(3)
C16 C 0.4651(5) 0.3488(4) 0.9560(16)
C17 C 0.4499(5) 0.2828(5) 0.9308(15)
C19 C 0.4682(5) 0.1753(5) 0.9871(17)
C20 C 0.4282(6) 0.1578(5) 0.8703(17)
C21 C 0.3983(6) 0.2027(5) 0.7911(16)
H11 H 0.3700 0.1914 0.7160
C22 C 0.4090(5) 0.2661(5) 0.8196(15)
H12 H 0.3884 0.2963 0.7630
P3 P 0.5806(4) 0.9228(3) 0.8207(10)
O7 O 0.5669(7) 0.9610(5) 0.9630(18)
O8 O 0.5341(8) 0.9340(5) 0.6907(18)
O9 O 0.6464(9) 0.9333(7) 0.770(3)
C27 C 0.5349(5) 0.6512(4) 0.9560(16)
C28 C 0.5501(5) 0.7172(5) 0.9308(15)
C30 C 0.5318(5) 0.8247(5) 0.9871(17)
C31 C 0.5718(6) 0.8422(5) 0.8703(17)
C32 C 0.6017(6) 0.7973(5) 0.7911(16)
H17 H 0.6300 0.8086 0.7160
C33 C 0.5910(5) 0.7339(5) 0.8196(15)
H18 H 0.6116 0.7037 0.7630
N4 N 0.4516(4) 0.5744(4) 0.9896(11)
C34 C 0.4731(5) 0.6316(5) 0.9500(16)
C35 C 0.4226(4) 0.6726(5) 0.9183(15)
H19 H 0.4253 0.7131 0.8823
C36 C 0.3702(5) 0.6407(4) 0.9509(15)
H20 H 0.3296 0.6551 0.9435
C37 C 0.3898(4) 0.5801(4) 0.9991(16)
C40 C 0.2362(5) 0.5209(6) 0.9828(17)
H21 H 0.2471 0.4940 0.9044
H22 H 0.1449 0.5122 0.9547
Co8_2 Co 0.5000 1.0000 0.5740(9)
O17 O 0.9340(5) 0.5341(8) 0.8093(18)
H26 H 0.325301 0.0791289 0.85083
H27 H 0.674699 0.920871 0.85083
O17_2 O 0.5341(8) 0.0660(5) 0.1907(18)
H26_2 H 0.0791289 0.674699 0.14917
H27_2 H 0.920871 0.325301 0.14917
O14_2 O 0.5669(7) 0.0390(5) 0.4630(18)
H25_2 H 0.34755 0.0229116 0.747122
H28_2 H 0.65245 0.977088 0.747122
O18_2 O 0.4659(8) 0.9340(5) 0.1907(18)
O15_2 O 0.4331(7) 0.9610(5) 0.4630(18)
Ni1_3 Ni 0.5000 0.5000 0.5000
P1_2 P 0.9228(3) 0.5806(4) 0.6793(10)
N1_2 N 0.5484(4) 0.5744(4) 0.4896(11)
O3_2 O 0.9333(7) 0.6464(9) 0.730(3)
C1_2 C 0.5269(5) 0.6316(5) 0.4500(16)
C2_2 C 0.5774(4) 0.6726(5) 0.4183(15)
H1_2 H 0.5747 0.7131 0.3823
C3_2 C 0.6298(5) 0.6407(4) 0.4509(15)
H2_2 H 0.6704 0.6551 0.4435
C4_2 C 0.6102(4) 0.5801(4) 0.4991(16)
C5_2 C 0.6512(4) 0.5349(5) 0.5440(16)
C6_2 C 0.7172(5) 0.5501(5) 0.5692(15)
C7_2 C 0.7638(5) 0.5209(6) 0.4828(17)
H3_2 H 0.7529 0.4940 0.4044
C8_2 C 0.8247(5) 0.5318(5) 0.5129(17)
H4_2 H 0.8551 0.5122 0.4547
C9_2 C 0.8422(5) 0.5718(6) 0.6297(17)
C10_2 C 0.7973(5) 0.6017(6) 0.7089(16)
H5_2 H 0.8086 0.6300 0.7840
C11_2 C 0.7339(5) 0.5910(5) 0.6804(15)
H6_2 H 0.7037 0.6116 0.7370
P2_2 P 0.4194(4) 0.9228(3) 0.3207(10)
N2_2 N 0.4256(4) 0.5484(4) 0.5104(11)
O6_2 O 0.3536(9) 0.9333(7) 0.270(3)
C12_2 C 0.3684(5) 0.5269(5) 0.5500(16)
C13_2 C 0.3274(5) 0.5774(4) 0.5817(15)
H7_2 H 0.2869 0.5747 0.6177
C14_2 C 0.3593(4) 0.6298(5) 0.5491(15)
H8_2 H 0.3449 0.6704 0.5565
C15_2 C 0.4199(4) 0.6102(4) 0.5009(16)
C16_2 C 0.4651(5) 0.6512(4) 0.4560(16)
C17_2 C 0.4499(5) 0.7172(5) 0.4308(15)
C18_2 C 0.4791(6) 0.7638(5) 0.5172(17)
H9_2 H 0.5060 0.7529 0.5956
C19_2 C 0.4682(5) 0.8247(5) 0.4871(17)
H10_2 H 0.4878 0.8551 0.5453
C20_2 C 0.4282(6) 0.8422(5) 0.3703(17)
C21_2 C 0.3983(6) 0.7973(5) 0.2911(16)
H11_2 H 0.3700 0.8086 0.2160
C22_2 C 0.4090(5) 0.7339(5) 0.3196(15)
H12_2 H 0.3884 0.7037 0.2630
P3_2 P 0.5806(4) 0.0772(3) 0.3207(10)
N3_2 N 0.5744(4) 0.4516(4) 0.5104(11)
O9_2 O 0.6464(9) 0.0667(7) 0.270(3)
C23_2 C 0.6316(5) 0.4731(5) 0.5500(16)
C24_2 C 0.6726(5) 0.4226(4) 0.5817(15)
H13_2 H 0.7131 0.4253 0.6177
C25_2 C 0.6407(4) 0.3702(5) 0.5491(15)
H14_2 H 0.6551 0.3296 0.5565
C26_2 C 0.5801(4) 0.3898(4) 0.5009(16)
C27_2 C 0.5349(5) 0.3488(4) 0.4560(16)
C28_2 C 0.5501(5) 0.2828(5) 0.4308(15)
C29_2 C 0.5209(6) 0.2362(5) 0.5172(17)
H15_2 H 0.4940 0.2471 0.5956
C30_2 C 0.5318(5) 0.1753(5) 0.4871(17)
H16_2 H 0.5122 0.1449 0.5453
C31_2 C 0.5718(6) 0.1578(5) 0.3703(17)
C32_2 C 0.6017(6) 0.2027(5) 0.2911(16)
H17_2 H 0.6300 0.1914 0.2160
C33_2 C 0.5910(5) 0.2661(5) 0.3196(15)
H18_2 H 0.6116 0.2963 0.2630
P4_2 P 0.0772(3) 0.4194(4) 0.6793(10)
N4_2 N 0.4516(4) 0.4256(4) 0.4896(11)
O12_2 O 0.0667(7) 0.3536(9) 0.730(3)
C34_2 C 0.4731(5) 0.3684(5) 0.4500(16)
C35_2 C 0.4226(4) 0.3274(5) 0.4183(15)
H19_2 H 0.4253 0.2869 0.3823
C36_2 C 0.3702(5) 0.3593(4) 0.4509(15)
H20_2 H 0.3296 0.3449 0.4435
C37_2 C 0.3898(4) 0.4199(4) 0.4991(16)
C38_2 C 0.3488(4) 0.4651(5) 0.5440(16)
C39_2 C 0.2828(5) 0.4499(5) 0.5692(15)
C40_2 C 0.2362(5) 0.4791(6) 0.4828(17)
H21_2 H 0.2471 0.5060 0.4044
C41_2 C 0.1753(5) 0.4682(5) 0.5129(17)
H22_2 H 0.1449 0.4878 0.4547
C42_2 C 0.1578(5) 0.4282(6) 0.6297(17)
C43_2 C 0.2027(5) 0.3983(6) 0.7089(16)
H23_2 H 0.1914 0.3700 0.7840
C44_2 C 0.2661(5) 0.4090(5) 0.6804(15)
H24_2 H 0.2963 0.3884 0.7370
H25_3 H 0.977088 0.65245 0.752878
H26_3 H 0.325301 0.920871 0.35083
H27_3 H 0.674699 0.0791289 0.35083
H28_3 H 0.0229116 0.34755 0.752878
H25_4 H 0.34755 0.977088 0.247122
H26_4 H 0.0791289 0.325301 0.64917
H27_4 H 0.920871 0.674699 0.64917
H28_4 H 0.65245 0.0229116 0.247122
loop_
_geom_bond_atom_site_label_1
_geom_bond_atom_site_label_2
_geom_bond_site_symmetry_1
_geom_bond_site_symmetry_2
O15 Co2 1_555 1_555
O16 Co2 1_555 1_555
O18 Co1 1_555 1_555
P1 O1 1_555 1_555
O2 P1 1_555 1_555
O3 P1 1_555 1_555
C6 C5 1_555 1_555
C9 P1 1_555 1_555
C10 C9 1_555 1_555
H5 C10 1_555 1_555
C11 C6 1_555 1_555
H6 C11 1_555 1_555
N2 Ni1 1_555 1_555
C12 N2 1_555 1_555
C13 C12 1_555 1_555
H7 C13 1_555 1_555
C14 C13 1_555 1_555
H8 C14 1_555 1_555
C15 N2 1_555 1_555
H9 C18 1_555 1_555
N3 Ni1 1_555 1_555
C23 C5 1_555 1_555
C24 C23 1_555 1_555
H13 C24 1_555 1_555
C25 C24 1_555 1_555
H14 C25 1_555 1_555
C26 N3 1_555 1_555
H15 C29 1_555 1_555
P4 O13 1_555 1_555
O16 P4 1_555 1_555
O12 P4 1_555 1_555
C38 C12 1_555 1_555
C39 C38 1_555 1_555
C42 P4 1_555 1_555
C43 C42 1_555 1_555
H23 C43 1_555 1_555
C44 C39 1_555 1_555
H24 C44 1_555 1_555
Co2_2 O2 1_555 1_555
O14 Co2_2 1_555 1_555
C8 C9 1_555 1_555
C10 C11 1_555 1_555
C14 C15 1_555 1_555
N3 C23 1_555 1_555
C25 C26 1_555 1_555
C41 C42 1_555 1_555
C43 C44 1_555 1_555
O3 H25 1_555 1_555
O12 H28 1_555 1_555
Ni1_2 N1 1_555 1_555
N1 C1 1_555 1_555
C1 C2 1_555 1_555
C2 H1 1_555 1_555
C3 C2 1_555 1_555
H2 C3 1_555 1_555
C4 N1 1_555 1_555
H3 C7 1_555 1_555
P2 O4 1_555 1_555
O5 P2 1_555 1_555
O6 P2 1_555 1_555
C16 C1 1_555 1_555
C17 C16 1_555 1_555
C20 P2 1_555 1_555
C21 C20 1_555 1_555
H11 C21 1_555 1_555
C22 C17 1_555 1_555
H12 C22 1_555 1_555
P3 O7 1_555 1_555
O8 P3 1_555 1_555
O9 P3 1_555 1_555
C28 C27 1_555 1_555
C31 P3 1_555 1_555
C32 C31 1_555 1_555
H17 C32 1_555 1_555
C33 C28 1_555 1_555
H18 C33 1_555 1_555
N4 Ni1_2 1_555 1_555
C34 C27 1_555 1_555
C35 C34 1_555 1_555
H19 C35 1_555 1_555
C36 C35 1_555 1_555
H20 C36 1_555 1_555
C37 N4 1_555 1_555
H21 C40 1_555 1_555
Co8 O5 1_555 1_555
Co8_2 O8 1_555 1_555
O17 Co1_2 1_555 1_555
C3 C4 1_555 1_555
C19 C20 1_555 1_555
C21 C22 1_555 1_555
C30 C31 1_555 1_555
C32 C33 1_555 1_555
N4 C34 1_555 1_555
C36 C37 1_555 1_555
O6 H26 1_555 1_555
O9 H27 1_555 1_555
O17_2 Co5 1_555 1_555
O12 H26_2 1_555 1_555
O3 H27_2 1_555 1_555
O14_2 Co8 1_555 1_555
O6 H25_2 1_555 1_555
O9 H28_2 1_555 1_555
O18_2 Co5_2 1_555 1_555
O15_2 Co8_2 1_555 1_555
Ni1_3 N1_2 1_555 1_555
P1_2 O14 1_555 1_555
N1_2 C1_2 1_555 1_555
O17 P1_2 1_555 1_555
O3_2 P1_2 1_555 1_555
C1_2 C2_2 1_555 1_555
C2_2 H1_2 1_555 1_555
C3_2 C2_2 1_555 1_555
H2_2 C3_2 1_555 1_555
C4_2 N1_2 1_555 1_555
C5_2 C4_2 1_555 1_555
C6_2 C5_2 1_555 1_555
C7_2 C6_2 1_555 1_555
H3_2 C7_2 1_555 1_555
C8_2 C7_2 1_555 1_555
H4_2 C8_2 1_555 1_555
C9_2 P1_2 1_555 1_555
C10_2 C9_2 1_555 1_555
H5_2 C10_2 1_555 1_555
C11_2 C6_2 1_555 1_555
H6_2 C11_2 1_555 1_555
P2_2 O15_2 1_555 1_555
N2_2 Ni1_3 1_555 1_555
O18_2 P2_2 1_555 1_555
O6_2 P2_2 1_555 1_555
C12_2 N2_2 1_555 1_555
C13_2 C12_2 1_555 1_555
H7_2 C13_2 1_555 1_555
C14_2 C13_2 1_555 1_555
H8_2 C14_2 1_555 1_555
C15_2 N2_2 1_555 1_555
C16_2 C1_2 1_555 1_555
C17_2 C16_2 1_555 1_555
C18_2 C17_2 1_555 1_555
H9_2 C18_2 1_555 1_555
C19_2 C18_2 1_555 1_555
H10_2 C19_2 1_555 1_555
C20_2 P2_2 1_555 1_555
C21_2 C20_2 1_555 1_555
H11_2 C21_2 1_555 1_555
C22_2 C17_2 1_555 1_555
H12_2 C22_2 1_555 1_555
P3_2 O14_2 1_555 1_555
N3_2 Ni1_3 1_555 1_555
O17_2 P3_2 1_555 1_555
O9_2 P3_2 1_555 1_555
C23_2 C5_2 1_555 1_555
C24_2 C23_2 1_555 1_555
H13_2 C24_2 1_555 1_555
C25_2 C24_2 1_555 1_555
H14_2 C25_2 1_555 1_555
C26_2 N3_2 1_555 1_555
C27_2 C26_2 1_555 1_555
C28_2 C27_2 1_555 1_555
C29_2 C28_2 1_555 1_555
H15_2 C29_2 1_555 1_555
C30_2 C29_2 1_555 1_555
H16_2 C30_2 1_555 1_555
C31_2 P3_2 1_555 1_555
C32_2 C31_2 1_555 1_555
H17_2 C32_2 1_555 1_555
C33_2 C28_2 1_555 1_555
H18_2 C33_2 1_555 1_555
P4_2 O15 1_555 1_555
N4_2 Ni1_3 1_555 1_555
O18 P4_2 1_555 1_555
O12_2 P4_2 1_555 1_555
C34_2 C27_2 1_555 1_555
C35_2 C34_2 1_555 1_555
H19_2 C35_2 1_555 1_555
C36_2 C35_2 1_555 1_555
H20_2 C36_2 1_555 1_555
C37_2 N4_2 1_555 1_555
C38_2 C12_2 1_555 1_555
C39_2 C38_2 1_555 1_555
C40_2 C39_2 1_555 1_555
H21_2 C40_2 1_555 1_555
C41_2 C40_2 1_555 1_555
H22_2 C41_2 1_555 1_555
C42_2 P4_2 1_555 1_555
C43_2 C42_2 1_555 1_555
H23_2 C43_2 1_555 1_555
C44_2 C39_2 1_555 1_555
H24_2 C44_2 1_555 1_555
C3_2 C4_2 1_555 1_555
C8_2 C9_2 1_555 1_555
C10_2 C11_2 1_555 1_555
C14_2 C15_2 1_555 1_555
C15_2 C16_2 1_555 1_555
C19_2 C20_2 1_555 1_555
C21_2 C22_2 1_555 1_555
N3_2 C23_2 1_555 1_555
C25_2 C26_2 1_555 1_555
C30_2 C31_2 1_555 1_555
C32_2 C33_2 1_555 1_555
N4_2 C34_2 1_555 1_555
C36_2 C37_2 1_555 1_555
C37_2 C38_2 1_555 1_555
C41_2 C42_2 1_555 1_555
C43_2 C44_2 1_555 1_555
O3_2 H25_3 1_555 1_555
O6_2 H26_3 1_555 1_555
O9_2 H27_3 1_555 1_555
O12_2 H28_3 1_555 1_555
O6_2 H25_4 1_555 1_555
O12_2 H26_4 1_555 1_555
O3_2 H27_4 1_555 1_555
O9_2 H28_4 1_555 1_555

#END
