
###############################################################################
#
# This file contains modified crystal structure data generated from the
# MOF subset of the Cambridge Structural Database (CSD) v543 
# hosted by the Cambridge Crystallographic Data Centre (CCDC).
#
# This work is licensed under the Creative Commons
# Attribution-NonCommercial-ShareAlike 4.0 International License.
# To view a copy of this license, visit
# http://creativecommons.org/licenses/by-nc-sa/4.0/
# or send a letter to
# Creative Commons, PO Box 1866, Mountain View, CA 94042, USA.
#
# CIF created using the CSD Python API on 29 September 2022
# The structure has been converted into the P1 space group
# The structure has a 3D framework
# The original CSD entry HIQDUJ08 is in the tetragonal crystal system
# The framework has been calculated to contain at least 10.0% void space
# The void calculation uses a probe of radius 1.32A, grid spacing 0.4
# H atom positions have been added when not included in the experimental data
#
###############################################################################

data_HIQDUJ08
_chemical_formula_moiety         '(C88 H64 Co1 N8 Ni3 O24 P8)n'
_symmetry_cell_setting           triclinic
_symmetry_space_group_name_H-M   'P 1'
_symmetry_Int_Tables_number      1
_space_group_name_Hall           'P 1'
loop_
_symmetry_equiv_pos_site_id
_symmetry_equiv_pos_as_xyz
1 x,y,z
_cell_length_a                   21.980(5)
_cell_length_b                   21.980(5)
_cell_length_c                   8.9600(17)
_cell_angle_alpha                90
_cell_angle_beta                 90
_cell_angle_gamma                90
_cell_volume                     4328.76
loop_
_atom_site_label
_atom_site_type_symbol
_atom_site_fract_x
_atom_site_fract_y
_atom_site_fract_z
Co2 Co 0.0000 0.5000 0.4275(12)
O13 O 0.0376(9) 0.5678(9) 0.031(2)
O15 O 0.0376(9) 0.4322(9) 0.531(2)
O16 O 0.0661(8) 0.5318(10) 0.307(2)
Co1 Co -0.0000 0.5000 0.9275(12)
O18 O 0.0661(8) 0.4682(10) 0.807(2)
Co5 Co 0.5000 -0.0000 0.0725(12)
Co8 Co 0.5000 0.0000 0.5725(12)
Ni1 Ni 0.5000 0.5000 0.0000
P1 P 0.9236(5) 0.4199(6) 0.1825(12)
O1 O 0.9624(9) 0.4322(9) 0.031(2)
O2 O 0.9339(8) 0.4682(10) 0.307(2)
O3 O 0.9345(10) 0.3534(12) 0.227(3)
C5 C 0.6507(6) 0.4659(7) 0.0441(19)
C6 C 0.7176(7) 0.4508(8) 0.0706(19)
C8 C 0.8249(7) 0.4687(8) 0.017(2)
C9 C 0.8417(8) 0.4288(9) 0.127(2)
C10 C 0.7966(7) 0.3984(9) 0.207(2)
H5 H 0.8084 0.3697 0.2811
C11 C 0.7342(8) 0.4088(8) 0.1825(19)
H6 H 0.7042 0.3881 0.2395
N2 N 0.4251(5) 0.4533(5) 0.0093(14)
C12 C 0.3690(7) 0.4741(7) 0.051(2)
C13 C 0.3286(8) 0.4228(6) 0.083(2)
H7 H 0.2882 0.4253 0.1199
C14 C 0.3593(6) 0.3707(7) 0.0497(18)
H8 H 0.3445 0.3302 0.0567
C15 C 0.4197(6) 0.3899(7) 0.001(2)
C18 C 0.4773(8) 0.2368(6) 0.019(2)
H9 H 0.5010 0.2478 0.1034
H10 H 0.4907 0.1448 0.0362
N3 N 0.5749(5) 0.5467(5) 0.0093(14)
C23 C 0.6310(7) 0.5259(7) 0.051(2)
C24 C 0.6714(8) 0.5772(6) 0.083(2)
H13 H 0.7118 0.5747 0.1199
C25 C 0.6407(6) 0.6293(7) 0.0497(18)
H14 H 0.6555 0.6698 0.0567
C26 C 0.5803(6) 0.6101(7) 0.001(2)
C29 C 0.5227(8) 0.7632(6) 0.019(2)
H15 H 0.4990 0.7522 0.1034
H16 H 0.5093 0.8552 0.0362
P4 P 0.0764(5) 0.5801(6) 0.1825(12)
O12 O 0.0655(10) 0.6466(12) 0.227(3)
C38 C 0.3493(6) 0.5341(7) 0.0441(19)
C39 C 0.2824(7) 0.5492(8) 0.0706(19)
C41 C 0.1751(7) 0.5313(8) 0.017(2)
C42 C 0.1583(8) 0.5712(9) 0.127(2)
C43 C 0.2034(7) 0.6016(9) 0.207(2)
H23 H 0.1916 0.6303 0.2811
C44 C 0.2658(8) 0.5912(8) 0.1825(19)
H24 H 0.2958 0.6119 0.2395
Co2_2 Co 1.0000 0.5000 0.4275(12)
Co5_2 Co 0.5000 1.0000 0.0725(12)
O14 O 0.9624(9) 0.5678(9) 0.531(2)
H26 H 0.978594 0.346817 0.244917
H28 H 0.0214056 0.653183 0.244917
Co1_2 Co 1.0000 0.5000 0.9275(12)
Ni1_2 Ni 0.5000 0.5000 1.0000
N1 N 0.5467(5) 0.4251(5) 0.9907(14)
C1 C 0.5259(7) 0.3690(7) 0.949(2)
C2 C 0.5772(6) 0.3286(8) 0.917(2)
H1 H 0.5747 0.2882 0.8801
C3 C 0.6293(7) 0.3593(6) 0.9503(18)
H2 H 0.6698 0.3445 0.9433
C4 C 0.6101(7) 0.4197(6) 0.999(2)
C7 C 0.7632(6) 0.4773(8) 0.981(2)
H3 H 0.7522 0.5010 0.8966
H4 H 0.8552 0.4907 0.9638
P2 P 0.4199(6) 0.0764(5) 0.8175(12)
O4 O 0.4322(9) 0.0376(9) 0.969(2)
O5 O 0.4682(10) 0.0661(8) 0.693(2)
O6 O 0.3534(12) 0.0655(10) 0.773(3)
C16 C 0.4659(7) 0.3493(6) 0.9559(19)
C17 C 0.4508(8) 0.2824(7) 0.9294(19)
C19 C 0.4687(8) 0.1751(7) 0.983(2)
C20 C 0.4288(9) 0.1583(8) 0.873(2)
C21 C 0.3984(9) 0.2034(7) 0.793(2)
H11 H 0.3697 0.1916 0.7189
C22 C 0.4088(8) 0.2658(8) 0.8175(19)
H12 H 0.3881 0.2958 0.7605
P3 P 0.5801(6) 0.9236(5) 0.8175(12)
O7 O 0.5678(9) 0.9624(9) 0.969(2)
O8 O 0.5318(10) 0.9339(8) 0.693(2)
O9 O 0.6466(12) 0.9345(10) 0.773(3)
C27 C 0.5341(7) 0.6507(6) 0.9559(19)
C28 C 0.5492(8) 0.7176(7) 0.9294(19)
C30 C 0.5313(8) 0.8249(7) 0.983(2)
C31 C 0.5712(9) 0.8417(8) 0.873(2)
C32 C 0.6016(9) 0.7966(7) 0.793(2)
H17 H 0.6303 0.8084 0.7189
C33 C 0.5912(8) 0.7342(8) 0.8175(19)
H18 H 0.6119 0.7042 0.7605
N4 N 0.4533(5) 0.5749(5) 0.9907(14)
C34 C 0.4741(7) 0.6310(7) 0.949(2)
C35 C 0.4228(6) 0.6714(8) 0.917(2)
H19 H 0.4253 0.7118 0.8801
C36 C 0.3707(7) 0.6407(6) 0.9503(18)
H20 H 0.3302 0.6555 0.9433
C37 C 0.3899(7) 0.5803(6) 0.999(2)
C40 C 0.2368(6) 0.5227(8) 0.981(2)
H21 H 0.2478 0.4990 0.8966
H22 H 0.1448 0.5093 0.9638
Co8_2 Co 0.5000 1.0000 0.5725(12)
O17 O 0.9339(8) 0.5318(10) 0.807(2)
H25 H 0.326228 0.0794736 0.854636
H27 H 0.673772 0.920526 0.854636
O17_2 O 0.5318(10) 0.0661(8) 0.193(2)
H25_2 H 0.0794736 0.673772 0.145364
H27_2 H 0.920526 0.326228 0.145364
O14_2 O 0.5678(9) 0.0376(9) 0.469(2)
H26_2 H 0.346817 0.0214056 0.755083
H28_2 H 0.653183 0.978594 0.755083
O18_2 O 0.4682(10) 0.9339(8) 0.193(2)
O15_2 O 0.4322(9) 0.9624(9) 0.469(2)
Ni1_3 Ni 0.5000 0.5000 0.5000
P1_2 P 0.9236(5) 0.5801(6) 0.6825(12)
N1_2 N 0.5467(5) 0.5749(5) 0.4907(14)
O3_2 O 0.9345(10) 0.6466(12) 0.727(3)
C1_2 C 0.5259(7) 0.6310(7) 0.449(2)
C2_2 C 0.5772(6) 0.6714(8) 0.417(2)
H1_2 H 0.5747 0.7118 0.3801
C3_2 C 0.6293(7) 0.6407(6) 0.4503(18)
H2_2 H 0.6698 0.6555 0.4433
C4_2 C 0.6101(7) 0.5803(6) 0.499(2)
C5_2 C 0.6507(6) 0.5341(7) 0.5441(19)
C6_2 C 0.7176(7) 0.5492(8) 0.5706(19)
C7_2 C 0.7632(6) 0.5227(8) 0.481(2)
H3_2 H 0.7522 0.4990 0.3966
C8_2 C 0.8249(7) 0.5313(8) 0.517(2)
H4_2 H 0.8552 0.5093 0.4638
C9_2 C 0.8417(8) 0.5712(9) 0.627(2)
C10_2 C 0.7966(7) 0.6016(9) 0.707(2)
H5_2 H 0.8084 0.6303 0.7811
C11_2 C 0.7342(8) 0.5912(8) 0.6825(19)
H6_2 H 0.7042 0.6119 0.7395
P2_2 P 0.4199(6) 0.9236(5) 0.3175(12)
N2_2 N 0.4251(5) 0.5467(5) 0.5093(14)
O6_2 O 0.3534(12) 0.9345(10) 0.273(3)
C12_2 C 0.3690(7) 0.5259(7) 0.551(2)
C13_2 C 0.3286(8) 0.5772(6) 0.583(2)
H7_2 H 0.2882 0.5747 0.6199
C14_2 C 0.3593(6) 0.6293(7) 0.5497(18)
H8_2 H 0.3445 0.6698 0.5567
C15_2 C 0.4197(6) 0.6101(7) 0.501(2)
C16_2 C 0.4659(7) 0.6507(6) 0.4559(19)
C17_2 C 0.4508(8) 0.7176(7) 0.4294(19)
C18_2 C 0.4773(8) 0.7632(6) 0.519(2)
H9_2 H 0.5010 0.7522 0.6034
C19_2 C 0.4687(8) 0.8249(7) 0.483(2)
H10_2 H 0.4907 0.8552 0.5362
C20_2 C 0.4288(9) 0.8417(8) 0.373(2)
C21_2 C 0.3984(9) 0.7966(7) 0.293(2)
H11_2 H 0.3697 0.8084 0.2189
C22_2 C 0.4088(8) 0.7342(8) 0.3175(19)
H12_2 H 0.3881 0.7042 0.2605
P3_2 P 0.5801(6) 0.0764(5) 0.3175(12)
N3_2 N 0.5749(5) 0.4533(5) 0.5093(14)
O9_2 O 0.6466(12) 0.0655(10) 0.273(3)
C23_2 C 0.6310(7) 0.4741(7) 0.551(2)
C24_2 C 0.6714(8) 0.4228(6) 0.583(2)
H13_2 H 0.7118 0.4253 0.6199
C25_2 C 0.6407(6) 0.3707(7) 0.5497(18)
H14_2 H 0.6555 0.3302 0.5567
C26_2 C 0.5803(6) 0.3899(7) 0.501(2)
C27_2 C 0.5341(7) 0.3493(6) 0.4559(19)
C28_2 C 0.5492(8) 0.2824(7) 0.4294(19)
C29_2 C 0.5227(8) 0.2368(6) 0.519(2)
H15_2 H 0.4990 0.2478 0.6034
C30_2 C 0.5313(8) 0.1751(7) 0.483(2)
H16_2 H 0.5093 0.1448 0.5362
C31_2 C 0.5712(9) 0.1583(8) 0.373(2)
C32_2 C 0.6016(9) 0.2034(7) 0.293(2)
H17_2 H 0.6303 0.1916 0.2189
C33_2 C 0.5912(8) 0.2658(8) 0.3175(19)
H18_2 H 0.6119 0.2958 0.2605
P4_2 P 0.0764(5) 0.4199(6) 0.6825(12)
N4_2 N 0.4533(5) 0.4251(5) 0.4907(14)
O12_2 O 0.0655(10) 0.3534(12) 0.727(3)
C34_2 C 0.4741(7) 0.3690(7) 0.449(2)
C35_2 C 0.4228(6) 0.3286(8) 0.417(2)
H19_2 H 0.4253 0.2882 0.3801
C36_2 C 0.3707(7) 0.3593(6) 0.4503(18)
H20_2 H 0.3302 0.3445 0.4433
C37_2 C 0.3899(7) 0.4197(6) 0.499(2)
C38_2 C 0.3493(6) 0.4659(7) 0.5441(19)
C39_2 C 0.2824(7) 0.4508(8) 0.5706(19)
C40_2 C 0.2368(6) 0.4773(8) 0.481(2)
H21_2 H 0.2478 0.5010 0.3966
C41_2 C 0.1751(7) 0.4687(8) 0.517(2)
H22_2 H 0.1448 0.4907 0.4638
C42_2 C 0.1583(8) 0.4288(9) 0.627(2)
C43_2 C 0.2034(7) 0.3984(9) 0.707(2)
H23_2 H 0.1916 0.3697 0.7811
C44_2 C 0.2658(8) 0.4088(8) 0.6825(19)
H24_2 H 0.2958 0.3881 0.7395
H25_3 H 0.326228 0.920526 0.354636
H26_3 H 0.978594 0.653183 0.744917
H27_3 H 0.673772 0.0794736 0.354636
H28_3 H 0.0214056 0.346817 0.744917
H25_4 H 0.0794736 0.326228 0.645364
H26_4 H 0.346817 0.978594 0.255083
H27_4 H 0.920526 0.673772 0.645364
H28_4 H 0.653183 0.0214056 0.255083
loop_
_geom_bond_atom_site_label_1
_geom_bond_atom_site_label_2
_geom_bond_site_symmetry_1
_geom_bond_site_symmetry_2
O15 Co2 1_555 1_555
O16 Co2 1_555 1_555
O18 Co1 1_555 1_555
P1 O1 1_555 1_555
O2 P1 1_555 1_555
O3 P1 1_555 1_555
C6 C5 1_555 1_555
C9 P1 1_555 1_555
C10 C9 1_555 1_555
H5 C10 1_555 1_555
C11 C6 1_555 1_555
H6 C11 1_555 1_555
N2 Ni1 1_555 1_555
C12 N2 1_555 1_555
C13 C12 1_555 1_555
H7 C13 1_555 1_555
C14 C13 1_555 1_555
H8 C14 1_555 1_555
C15 N2 1_555 1_555
H9 C18 1_555 1_555
N3 Ni1 1_555 1_555
C23 C5 1_555 1_555
C24 C23 1_555 1_555
H13 C24 1_555 1_555
C25 C24 1_555 1_555
H14 C25 1_555 1_555
C26 N3 1_555 1_555
H15 C29 1_555 1_555
P4 O13 1_555 1_555
O16 P4 1_555 1_555
O12 P4 1_555 1_555
C38 C12 1_555 1_555
C39 C38 1_555 1_555
C42 P4 1_555 1_555
C43 C42 1_555 1_555
H23 C43 1_555 1_555
C44 C39 1_555 1_555
H24 C44 1_555 1_555
Co2_2 O2 1_555 1_555
O14 Co2_2 1_555 1_555
C8 C9 1_555 1_555
C10 C11 1_555 1_555
C14 C15 1_555 1_555
N3 C23 1_555 1_555
C25 C26 1_555 1_555
C41 C42 1_555 1_555
C43 C44 1_555 1_555
O3 H26 1_555 1_555
O12 H28 1_555 1_555
Ni1_2 N1 1_555 1_555
N1 C1 1_555 1_555
C1 C2 1_555 1_555
C2 H1 1_555 1_555
C3 C2 1_555 1_555
H2 C3 1_555 1_555
C4 N1 1_555 1_555
H3 C7 1_555 1_555
P2 O4 1_555 1_555
O5 P2 1_555 1_555
O6 P2 1_555 1_555
C16 C1 1_555 1_555
C17 C16 1_555 1_555
C20 P2 1_555 1_555
C21 C20 1_555 1_555
H11 C21 1_555 1_555
C22 C17 1_555 1_555
H12 C22 1_555 1_555
P3 O7 1_555 1_555
O8 P3 1_555 1_555
O9 P3 1_555 1_555
C28 C27 1_555 1_555
C31 P3 1_555 1_555
C32 C31 1_555 1_555
H17 C32 1_555 1_555
C33 C28 1_555 1_555
H18 C33 1_555 1_555
N4 Ni1_2 1_555 1_555
C34 C27 1_555 1_555
C35 C34 1_555 1_555
H19 C35 1_555 1_555
C36 C35 1_555 1_555
H20 C36 1_555 1_555
C37 N4 1_555 1_555
H21 C40 1_555 1_555
Co8 O5 1_555 1_555
Co8_2 O8 1_555 1_555
O17 Co1_2 1_555 1_555
C3 C4 1_555 1_555
C19 C20 1_555 1_555
C21 C22 1_555 1_555
C30 C31 1_555 1_555
C32 C33 1_555 1_555
N4 C34 1_555 1_555
C36 C37 1_555 1_555
O6 H25 1_555 1_555
O9 H27 1_555 1_555
O17_2 Co5 1_555 1_555
O12 H25_2 1_555 1_555
O3 H27_2 1_555 1_555
O14_2 Co8 1_555 1_555
O6 H26_2 1_555 1_555
O9 H28_2 1_555 1_555
O18_2 Co5_2 1_555 1_555
O15_2 Co8_2 1_555 1_555
Ni1_3 N1_2 1_555 1_555
P1_2 O14 1_555 1_555
N1_2 C1_2 1_555 1_555
O17 P1_2 1_555 1_555
O3_2 P1_2 1_555 1_555
C1_2 C2_2 1_555 1_555
C2_2 H1_2 1_555 1_555
C3_2 C2_2 1_555 1_555
H2_2 C3_2 1_555 1_555
C4_2 N1_2 1_555 1_555
C5_2 C4_2 1_555 1_555
C6_2 C5_2 1_555 1_555
C7_2 C6_2 1_555 1_555
H3_2 C7_2 1_555 1_555
C8_2 C7_2 1_555 1_555
H4_2 C8_2 1_555 1_555
C9_2 P1_2 1_555 1_555
C10_2 C9_2 1_555 1_555
H5_2 C10_2 1_555 1_555
C11_2 C6_2 1_555 1_555
H6_2 C11_2 1_555 1_555
P2_2 O15_2 1_555 1_555
N2_2 Ni1_3 1_555 1_555
O18_2 P2_2 1_555 1_555
O6_2 P2_2 1_555 1_555
C12_2 N2_2 1_555 1_555
C13_2 C12_2 1_555 1_555
H7_2 C13_2 1_555 1_555
C14_2 C13_2 1_555 1_555
H8_2 C14_2 1_555 1_555
C15_2 N2_2 1_555 1_555
C16_2 C1_2 1_555 1_555
C17_2 C16_2 1_555 1_555
C18_2 C17_2 1_555 1_555
H9_2 C18_2 1_555 1_555
C19_2 C18_2 1_555 1_555
H10_2 C19_2 1_555 1_555
C20_2 P2_2 1_555 1_555
C21_2 C20_2 1_555 1_555
H11_2 C21_2 1_555 1_555
C22_2 C17_2 1_555 1_555
H12_2 C22_2 1_555 1_555
P3_2 O14_2 1_555 1_555
N3_2 Ni1_3 1_555 1_555
O17_2 P3_2 1_555 1_555
O9_2 P3_2 1_555 1_555
C23_2 C5_2 1_555 1_555
C24_2 C23_2 1_555 1_555
H13_2 C24_2 1_555 1_555
C25_2 C24_2 1_555 1_555
H14_2 C25_2 1_555 1_555
C26_2 N3_2 1_555 1_555
C27_2 C26_2 1_555 1_555
C28_2 C27_2 1_555 1_555
C29_2 C28_2 1_555 1_555
H15_2 C29_2 1_555 1_555
C30_2 C29_2 1_555 1_555
H16_2 C30_2 1_555 1_555
C31_2 P3_2 1_555 1_555
C32_2 C31_2 1_555 1_555
H17_2 C32_2 1_555 1_555
C33_2 C28_2 1_555 1_555
H18_2 C33_2 1_555 1_555
P4_2 O15 1_555 1_555
N4_2 Ni1_3 1_555 1_555
O18 P4_2 1_555 1_555
O12_2 P4_2 1_555 1_555
C34_2 C27_2 1_555 1_555
C35_2 C34_2 1_555 1_555
H19_2 C35_2 1_555 1_555
C36_2 C35_2 1_555 1_555
H20_2 C36_2 1_555 1_555
C37_2 N4_2 1_555 1_555
C38_2 C12_2 1_555 1_555
C39_2 C38_2 1_555 1_555
C40_2 C39_2 1_555 1_555
H21_2 C40_2 1_555 1_555
C41_2 C40_2 1_555 1_555
H22_2 C41_2 1_555 1_555
C42_2 P4_2 1_555 1_555
C43_2 C42_2 1_555 1_555
H23_2 C43_2 1_555 1_555
C44_2 C39_2 1_555 1_555
H24_2 C44_2 1_555 1_555
C3_2 C4_2 1_555 1_555
C8_2 C9_2 1_555 1_555
C10_2 C11_2 1_555 1_555
C14_2 C15_2 1_555 1_555
C15_2 C16_2 1_555 1_555
C19_2 C20_2 1_555 1_555
C21_2 C22_2 1_555 1_555
N3_2 C23_2 1_555 1_555
C25_2 C26_2 1_555 1_555
C30_2 C31_2 1_555 1_555
C32_2 C33_2 1_555 1_555
N4_2 C34_2 1_555 1_555
C36_2 C37_2 1_555 1_555
C37_2 C38_2 1_555 1_555
C41_2 C42_2 1_555 1_555
C43_2 C44_2 1_555 1_555
O6_2 H25_3 1_555 1_555
O3_2 H26_3 1_555 1_555
O9_2 H27_3 1_555 1_555
O12_2 H28_3 1_555 1_555
O12_2 H25_4 1_555 1_555
O6_2 H26_4 1_555 1_555
O3_2 H27_4 1_555 1_555
O9_2 H28_4 1_555 1_555

#END
