
###############################################################################
#
# This file contains modified crystal structure data generated from the
# MOF subset of the Cambridge Structural Database (CSD) v543 
# hosted by the Cambridge Crystallographic Data Centre (CCDC).
#
# This work is licensed under the Creative Commons
# Attribution-NonCommercial-ShareAlike 4.0 International License.
# To view a copy of this license, visit
# http://creativecommons.org/licenses/by-nc-sa/4.0/
# or send a letter to
# Creative Commons, PO Box 1866, Mountain View, CA 94042, USA.
#
# CIF created using the CSD Python API on 29 September 2022
# The structure has been converted into the P1 space group
# The structure has a 3D framework
# The original CSD entry HIQDUJ01 is in the tetragonal crystal system
# The framework has been calculated to contain at least 10.0% void space
# The void calculation uses a probe of radius 1.32A, grid spacing 0.4
# H atom positions have been added when not included in the experimental data
#
###############################################################################

data_HIQDUJ01
_chemical_formula_moiety         '(C88 H64 Co1 N8 Ni3 O24 P8)n'
_symmetry_cell_setting           triclinic
_symmetry_space_group_name_H-M   'P 1'
_symmetry_Int_Tables_number      1
_space_group_name_Hall           'P 1'
loop_
_symmetry_equiv_pos_site_id
_symmetry_equiv_pos_as_xyz
1 x,y,z
_cell_length_a                   21.980(5)
_cell_length_b                   21.980(5)
_cell_length_c                   8.9600(17)
_cell_angle_alpha                90
_cell_angle_beta                 90
_cell_angle_gamma                90
_cell_volume                     4328.76
loop_
_atom_site_label
_atom_site_type_symbol
_atom_site_fract_x
_atom_site_fract_y
_atom_site_fract_z
Co2 Co -0.0000 0.5000 0.4284(8)
O13 O 0.0378(5) 0.5654(7) 0.0342(15)
O15 O 0.0378(5) 0.4346(7) 0.5342(15)
O16 O 0.0653(5) 0.5330(8) 0.3114(16)
Co1 Co 0.0000 0.5000 0.9284(8)
O18 O 0.0653(5) 0.4670(8) 0.8114(16)
Co5 Co 0.5000 0.0000 0.0716(8)
Co8 Co 0.5000 -0.0000 0.5716(8)
Ni1 Ni 0.5000 0.5000 0.0000
P1 P 0.9230(3) 0.4190(4) 0.1829(9)
O1 O 0.9622(5) 0.4346(7) 0.0342(15)
O2 O 0.9347(5) 0.4670(8) 0.3114(16)
O3 O 0.9339(7) 0.3546(8) 0.234(2)
C5 C 0.6515(5) 0.4644(5) 0.0455(14)
C6 C 0.7168(5) 0.4505(5) 0.0702(13)
C8 C 0.8253(5) 0.4679(6) 0.0182(15)
C9 C 0.8420(6) 0.4281(6) 0.1281(15)
C10 C 0.7970(5) 0.3982(6) 0.2076(15)
H5 H 0.8085 0.3698 0.2823
C11 C 0.7347(5) 0.4084(5) 0.1816(14)
H6 H 0.7048 0.3873 0.2383
N2 N 0.4256(4) 0.4522(4) 0.0105(11)
C12 C 0.3679(5) 0.4717(5) 0.0470(14)
C13 C 0.3283(5) 0.4240(4) 0.0861(14)
H7 H 0.2888 0.4275 0.1284
C14 C 0.3588(4) 0.3709(5) 0.0499(14)
H8 H 0.3435 0.3306 0.0552
C15 C 0.4193(4) 0.3899(5) 0.0020(14)
C18 C 0.4784(5) 0.2362(5) 0.0188(15)
H9 H 0.5035 0.2465 0.1013
H10 H 0.4892 0.1439 0.0349
N3 N 0.5744(4) 0.5478(4) 0.0105(11)
C23 C 0.6321(5) 0.5283(5) 0.0470(14)
C24 C 0.6717(5) 0.5760(4) 0.0861(14)
H13 H 0.7112 0.5725 0.1284
C25 C 0.6412(4) 0.6291(5) 0.0499(14)
H14 H 0.6565 0.6694 0.0552
C26 C 0.5807(4) 0.6101(5) 0.0020(14)
C29 C 0.5216(5) 0.7638(5) 0.0188(15)
H15 H 0.4965 0.7535 0.1013
H16 H 0.5108 0.8561 0.0349
P4 P 0.0770(3) 0.5810(4) 0.1829(9)
O12 O 0.0661(7) 0.6454(8) 0.234(2)
C38 C 0.3485(5) 0.5356(5) 0.0455(14)
C39 C 0.2832(5) 0.5495(5) 0.0702(13)
C41 C 0.1747(5) 0.5321(6) 0.0182(15)
C42 C 0.1580(6) 0.5719(6) 0.1281(15)
C43 C 0.2030(5) 0.6018(6) 0.2076(15)
H23 H 0.1915 0.6302 0.2823
C44 C 0.2653(5) 0.5916(5) 0.1816(14)
H24 H 0.2952 0.6127 0.2383
Co2_2 Co 1.0000 0.5000 0.4284(8)
Co5_2 Co 0.5000 1.0000 0.0716(8)
O14 O 0.9622(5) 0.5654(7) 0.5342(15)
H25 H 0.977735 0.349031 0.25708
H28 H 0.0222654 0.650969 0.25708
Co1_2 Co 1.0000 0.5000 0.9284(8)
Ni1_2 Ni 0.5000 0.5000 1.0000
N1 N 0.5478(4) 0.4256(4) 0.9895(11)
C1 C 0.5283(5) 0.3679(5) 0.9530(14)
C2 C 0.5760(4) 0.3283(5) 0.9139(14)
H1 H 0.5725 0.2888 0.8716
C3 C 0.6291(5) 0.3588(4) 0.9501(14)
H2 H 0.6694 0.3435 0.9448
C4 C 0.6101(5) 0.4193(4) 0.9980(14)
C7 C 0.7638(5) 0.4784(5) 0.9812(15)
H3 H 0.7535 0.5035 0.8987
H4 H 0.8561 0.4892 0.9651
P2 P 0.4190(4) 0.0770(3) 0.8171(9)
O4 O 0.4346(7) 0.0378(5) 0.9658(15)
O5 O 0.4670(8) 0.0653(5) 0.6886(16)
O6 O 0.3546(8) 0.0661(7) 0.766(2)
C16 C 0.4644(5) 0.3485(5) 0.9545(14)
C17 C 0.4505(5) 0.2832(5) 0.9298(13)
C19 C 0.4679(6) 0.1747(5) 0.9818(15)
C20 C 0.4281(6) 0.1580(6) 0.8719(15)
C21 C 0.3982(6) 0.2030(5) 0.7924(15)
H11 H 0.3698 0.1915 0.7177
C22 C 0.4084(5) 0.2653(5) 0.8184(14)
H12 H 0.3873 0.2952 0.7617
P3 P 0.5810(4) 0.9230(3) 0.8171(9)
O7 O 0.5654(7) 0.9622(5) 0.9658(15)
O8 O 0.5330(8) 0.9347(5) 0.6886(16)
O9 O 0.6454(8) 0.9339(7) 0.766(2)
C27 C 0.5356(5) 0.6515(5) 0.9545(14)
C28 C 0.5495(5) 0.7168(5) 0.9298(13)
C30 C 0.5321(6) 0.8253(5) 0.9818(15)
C31 C 0.5719(6) 0.8420(6) 0.8719(15)
C32 C 0.6018(6) 0.7970(5) 0.7924(15)
H17 H 0.6302 0.8085 0.7177
C33 C 0.5916(5) 0.7347(5) 0.8184(14)
H18 H 0.6127 0.7048 0.7617
N4 N 0.4522(4) 0.5744(4) 0.9895(11)
C34 C 0.4717(5) 0.6321(5) 0.9530(14)
C35 C 0.4240(4) 0.6717(5) 0.9139(14)
H19 H 0.4275 0.7112 0.8716
C36 C 0.3709(5) 0.6412(4) 0.9501(14)
H20 H 0.3306 0.6565 0.9448
C37 C 0.3899(5) 0.5807(4) 0.9980(14)
C40 C 0.2362(5) 0.5216(5) 0.9812(15)
H21 H 0.2465 0.4965 0.8987
H22 H 0.1439 0.5108 0.9651
Co8_2 Co 0.5000 1.0000 0.5716(8)
O17 O 0.9347(5) 0.5330(8) 0.8114(16)
H26 H 0.674074 0.921763 0.846301
H27 H 0.325926 0.0782373 0.846301
O17_2 O 0.5330(8) 0.0653(5) 0.1886(16)
H26_2 H 0.921763 0.325926 0.153699
H27_2 H 0.0782373 0.674074 0.153699
O14_2 O 0.5654(7) 0.0378(5) 0.4658(15)
H25_2 H 0.349031 0.0222654 0.74292
H28_2 H 0.650969 0.977735 0.74292
O18_2 O 0.4670(8) 0.9347(5) 0.1886(16)
O15_2 O 0.4346(7) 0.9622(5) 0.4658(15)
Ni1_3 Ni 0.5000 0.5000 0.5000
P1_2 P 0.9230(3) 0.5810(4) 0.6829(9)
N1_2 N 0.5478(4) 0.5744(4) 0.4895(11)
O3_2 O 0.9339(7) 0.6454(8) 0.734(2)
C1_2 C 0.5283(5) 0.6321(5) 0.4530(14)
C2_2 C 0.5760(4) 0.6717(5) 0.4139(14)
H1_2 H 0.5725 0.7112 0.3716
C3_2 C 0.6291(5) 0.6412(4) 0.4501(14)
H2_2 H 0.6694 0.6565 0.4448
C4_2 C 0.6101(5) 0.5807(4) 0.4980(14)
C5_2 C 0.6515(5) 0.5356(5) 0.5455(14)
C6_2 C 0.7168(5) 0.5495(5) 0.5702(13)
C7_2 C 0.7638(5) 0.5216(5) 0.4812(15)
H3_2 H 0.7535 0.4965 0.3987
C8_2 C 0.8253(5) 0.5321(6) 0.5182(15)
H4_2 H 0.8561 0.5108 0.4651
C9_2 C 0.8420(6) 0.5719(6) 0.6281(15)
C10_2 C 0.7970(5) 0.6018(6) 0.7076(15)
H5_2 H 0.8085 0.6302 0.7823
C11_2 C 0.7347(5) 0.5916(5) 0.6816(14)
H6_2 H 0.7048 0.6127 0.7383
P2_2 P 0.4190(4) 0.9230(3) 0.3171(9)
N2_2 N 0.4256(4) 0.5478(4) 0.5105(11)
O6_2 O 0.3546(8) 0.9339(7) 0.266(2)
C12_2 C 0.3679(5) 0.5283(5) 0.5470(14)
C13_2 C 0.3283(5) 0.5760(4) 0.5861(14)
H7_2 H 0.2888 0.5725 0.6284
C14_2 C 0.3588(4) 0.6291(5) 0.5499(14)
H8_2 H 0.3435 0.6694 0.5552
C15_2 C 0.4193(4) 0.6101(5) 0.5020(14)
C16_2 C 0.4644(5) 0.6515(5) 0.4545(14)
C17_2 C 0.4505(5) 0.7168(5) 0.4298(13)
C18_2 C 0.4784(5) 0.7638(5) 0.5188(15)
H9_2 H 0.5035 0.7535 0.6013
C19_2 C 0.4679(6) 0.8253(5) 0.4818(15)
H10_2 H 0.4892 0.8561 0.5349
C20_2 C 0.4281(6) 0.8420(6) 0.3719(15)
C21_2 C 0.3982(6) 0.7970(5) 0.2924(15)
H11_2 H 0.3698 0.8085 0.2177
C22_2 C 0.4084(5) 0.7347(5) 0.3184(14)
H12_2 H 0.3873 0.7048 0.2617
P3_2 P 0.5810(4) 0.0770(3) 0.3171(9)
N3_2 N 0.5744(4) 0.4522(4) 0.5105(11)
O9_2 O 0.6454(8) 0.0661(7) 0.266(2)
C23_2 C 0.6321(5) 0.4717(5) 0.5470(14)
C24_2 C 0.6717(5) 0.4240(4) 0.5861(14)
H13_2 H 0.7112 0.4275 0.6284
C25_2 C 0.6412(4) 0.3709(5) 0.5499(14)
H14_2 H 0.6565 0.3306 0.5552
C26_2 C 0.5807(4) 0.3899(5) 0.5020(14)
C27_2 C 0.5356(5) 0.3485(5) 0.4545(14)
C28_2 C 0.5495(5) 0.2832(5) 0.4298(13)
C29_2 C 0.5216(5) 0.2362(5) 0.5188(15)
H15_2 H 0.4965 0.2465 0.6013
C30_2 C 0.5321(6) 0.1747(5) 0.4818(15)
H16_2 H 0.5108 0.1439 0.5349
C31_2 C 0.5719(6) 0.1580(6) 0.3719(15)
C32_2 C 0.6018(6) 0.2030(5) 0.2924(15)
H17_2 H 0.6302 0.1915 0.2177
C33_2 C 0.5916(5) 0.2653(5) 0.3184(14)
H18_2 H 0.6127 0.2952 0.2617
P4_2 P 0.0770(3) 0.4190(4) 0.6829(9)
N4_2 N 0.4522(4) 0.4256(4) 0.4895(11)
O12_2 O 0.0661(7) 0.3546(8) 0.734(2)
C34_2 C 0.4717(5) 0.3679(5) 0.4530(14)
C35_2 C 0.4240(4) 0.3283(5) 0.4139(14)
H19_2 H 0.4275 0.2888 0.3716
C36_2 C 0.3709(5) 0.3588(4) 0.4501(14)
H20_2 H 0.3306 0.3435 0.4448
C37_2 C 0.3899(5) 0.4193(4) 0.4980(14)
C38_2 C 0.3485(5) 0.4644(5) 0.5455(14)
C39_2 C 0.2832(5) 0.4505(5) 0.5702(13)
C40_2 C 0.2362(5) 0.4784(5) 0.4812(15)
H21_2 H 0.2465 0.5035 0.3987
C41_2 C 0.1747(5) 0.4679(6) 0.5182(15)
H22_2 H 0.1439 0.4892 0.4651
C42_2 C 0.1580(6) 0.4281(6) 0.6281(15)
C43_2 C 0.2030(5) 0.3982(6) 0.7076(15)
H23_2 H 0.1915 0.3698 0.7823
C44_2 C 0.2653(5) 0.4084(5) 0.6816(14)
H24_2 H 0.2952 0.3873 0.7383
H25_3 H 0.977735 0.650969 0.75708
H26_3 H 0.674074 0.0782373 0.346301
H27_3 H 0.325926 0.921763 0.346301
H28_3 H 0.0222654 0.349031 0.75708
H25_4 H 0.349031 0.977735 0.24292
H26_4 H 0.921763 0.674074 0.653699
H27_4 H 0.0782373 0.325926 0.653699
H28_4 H 0.650969 0.0222654 0.24292
loop_
_geom_bond_atom_site_label_1
_geom_bond_atom_site_label_2
_geom_bond_site_symmetry_1
_geom_bond_site_symmetry_2
O15 Co2 1_555 1_555
O16 Co2 1_555 1_555
O18 Co1 1_555 1_555
P1 O1 1_555 1_555
O2 P1 1_555 1_555
O3 P1 1_555 1_555
C6 C5 1_555 1_555
C9 P1 1_555 1_555
C10 C9 1_555 1_555
H5 C10 1_555 1_555
C11 C6 1_555 1_555
H6 C11 1_555 1_555
N2 Ni1 1_555 1_555
C12 N2 1_555 1_555
C13 C12 1_555 1_555
H7 C13 1_555 1_555
C14 C13 1_555 1_555
H8 C14 1_555 1_555
C15 N2 1_555 1_555
H9 C18 1_555 1_555
N3 Ni1 1_555 1_555
C23 C5 1_555 1_555
C24 C23 1_555 1_555
H13 C24 1_555 1_555
C25 C24 1_555 1_555
H14 C25 1_555 1_555
C26 N3 1_555 1_555
H15 C29 1_555 1_555
P4 O13 1_555 1_555
O16 P4 1_555 1_555
O12 P4 1_555 1_555
C38 C12 1_555 1_555
C39 C38 1_555 1_555
C42 P4 1_555 1_555
C43 C42 1_555 1_555
H23 C43 1_555 1_555
C44 C39 1_555 1_555
H24 C44 1_555 1_555
Co2_2 O2 1_555 1_555
O14 Co2_2 1_555 1_555
C8 C9 1_555 1_555
C10 C11 1_555 1_555
C14 C15 1_555 1_555
N3 C23 1_555 1_555
C25 C26 1_555 1_555
C41 C42 1_555 1_555
C43 C44 1_555 1_555
O3 H25 1_555 1_555
O12 H28 1_555 1_555
Ni1_2 N1 1_555 1_555
N1 C1 1_555 1_555
C1 C2 1_555 1_555
C2 H1 1_555 1_555
C3 C2 1_555 1_555
H2 C3 1_555 1_555
C4 N1 1_555 1_555
H3 C7 1_555 1_555
P2 O4 1_555 1_555
O5 P2 1_555 1_555
O6 P2 1_555 1_555
C16 C1 1_555 1_555
C17 C16 1_555 1_555
C20 P2 1_555 1_555
C21 C20 1_555 1_555
H11 C21 1_555 1_555
C22 C17 1_555 1_555
H12 C22 1_555 1_555
P3 O7 1_555 1_555
O8 P3 1_555 1_555
O9 P3 1_555 1_555
C28 C27 1_555 1_555
C31 P3 1_555 1_555
C32 C31 1_555 1_555
H17 C32 1_555 1_555
C33 C28 1_555 1_555
H18 C33 1_555 1_555
N4 Ni1_2 1_555 1_555
C34 C27 1_555 1_555
C35 C34 1_555 1_555
H19 C35 1_555 1_555
C36 C35 1_555 1_555
H20 C36 1_555 1_555
C37 N4 1_555 1_555
H21 C40 1_555 1_555
Co8 O5 1_555 1_555
Co8_2 O8 1_555 1_555
O17 Co1_2 1_555 1_555
C3 C4 1_555 1_555
C19 C20 1_555 1_555
C21 C22 1_555 1_555
C30 C31 1_555 1_555
C32 C33 1_555 1_555
N4 C34 1_555 1_555
C36 C37 1_555 1_555
O9 H26 1_555 1_555
O6 H27 1_555 1_555
O17_2 Co5 1_555 1_555
O3 H26_2 1_555 1_555
O12 H27_2 1_555 1_555
O14_2 Co8 1_555 1_555
O6 H25_2 1_555 1_555
O9 H28_2 1_555 1_555
O18_2 Co5_2 1_555 1_555
O15_2 Co8_2 1_555 1_555
Ni1_3 N1_2 1_555 1_555
P1_2 O14 1_555 1_555
N1_2 C1_2 1_555 1_555
O17 P1_2 1_555 1_555
O3_2 P1_2 1_555 1_555
C1_2 C2_2 1_555 1_555
C2_2 H1_2 1_555 1_555
C3_2 C2_2 1_555 1_555
H2_2 C3_2 1_555 1_555
C4_2 N1_2 1_555 1_555
C5_2 C4_2 1_555 1_555
C6_2 C5_2 1_555 1_555
C7_2 C6_2 1_555 1_555
H3_2 C7_2 1_555 1_555
C8_2 C7_2 1_555 1_555
H4_2 C8_2 1_555 1_555
C9_2 P1_2 1_555 1_555
C10_2 C9_2 1_555 1_555
H5_2 C10_2 1_555 1_555
C11_2 C6_2 1_555 1_555
H6_2 C11_2 1_555 1_555
P2_2 O15_2 1_555 1_555
N2_2 Ni1_3 1_555 1_555
O18_2 P2_2 1_555 1_555
O6_2 P2_2 1_555 1_555
C12_2 N2_2 1_555 1_555
C13_2 C12_2 1_555 1_555
H7_2 C13_2 1_555 1_555
C14_2 C13_2 1_555 1_555
H8_2 C14_2 1_555 1_555
C15_2 N2_2 1_555 1_555
C16_2 C1_2 1_555 1_555
C17_2 C16_2 1_555 1_555
C18_2 C17_2 1_555 1_555
H9_2 C18_2 1_555 1_555
C19_2 C18_2 1_555 1_555
H10_2 C19_2 1_555 1_555
C20_2 P2_2 1_555 1_555
C21_2 C20_2 1_555 1_555
H11_2 C21_2 1_555 1_555
C22_2 C17_2 1_555 1_555
H12_2 C22_2 1_555 1_555
P3_2 O14_2 1_555 1_555
N3_2 Ni1_3 1_555 1_555
O17_2 P3_2 1_555 1_555
O9_2 P3_2 1_555 1_555
C23_2 C5_2 1_555 1_555
C24_2 C23_2 1_555 1_555
H13_2 C24_2 1_555 1_555
C25_2 C24_2 1_555 1_555
H14_2 C25_2 1_555 1_555
C26_2 N3_2 1_555 1_555
C27_2 C26_2 1_555 1_555
C28_2 C27_2 1_555 1_555
C29_2 C28_2 1_555 1_555
H15_2 C29_2 1_555 1_555
C30_2 C29_2 1_555 1_555
H16_2 C30_2 1_555 1_555
C31_2 P3_2 1_555 1_555
C32_2 C31_2 1_555 1_555
H17_2 C32_2 1_555 1_555
C33_2 C28_2 1_555 1_555
H18_2 C33_2 1_555 1_555
P4_2 O15 1_555 1_555
N4_2 Ni1_3 1_555 1_555
O18 P4_2 1_555 1_555
O12_2 P4_2 1_555 1_555
C34_2 C27_2 1_555 1_555
C35_2 C34_2 1_555 1_555
H19_2 C35_2 1_555 1_555
C36_2 C35_2 1_555 1_555
H20_2 C36_2 1_555 1_555
C37_2 N4_2 1_555 1_555
C38_2 C12_2 1_555 1_555
C39_2 C38_2 1_555 1_555
C40_2 C39_2 1_555 1_555
H21_2 C40_2 1_555 1_555
C41_2 C40_2 1_555 1_555
H22_2 C41_2 1_555 1_555
C42_2 P4_2 1_555 1_555
C43_2 C42_2 1_555 1_555
H23_2 C43_2 1_555 1_555
C44_2 C39_2 1_555 1_555
H24_2 C44_2 1_555 1_555
C3_2 C4_2 1_555 1_555
C8_2 C9_2 1_555 1_555
C10_2 C11_2 1_555 1_555
C14_2 C15_2 1_555 1_555
C15_2 C16_2 1_555 1_555
C19_2 C20_2 1_555 1_555
C21_2 C22_2 1_555 1_555
N3_2 C23_2 1_555 1_555
C25_2 C26_2 1_555 1_555
C30_2 C31_2 1_555 1_555
C32_2 C33_2 1_555 1_555
N4_2 C34_2 1_555 1_555
C36_2 C37_2 1_555 1_555
C37_2 C38_2 1_555 1_555
C41_2 C42_2 1_555 1_555
C43_2 C44_2 1_555 1_555
O3_2 H25_3 1_555 1_555
O9_2 H26_3 1_555 1_555
O6_2 H27_3 1_555 1_555
O12_2 H28_3 1_555 1_555
O6_2 H25_4 1_555 1_555
O3_2 H26_4 1_555 1_555
O12_2 H27_4 1_555 1_555
O9_2 H28_4 1_555 1_555

#END
