
###############################################################################
#
# This file contains modified crystal structure data generated from the
# MOF subset of the Cambridge Structural Database (CSD) v543 
# hosted by the Cambridge Crystallographic Data Centre (CCDC).
#
# This work is licensed under the Creative Commons
# Attribution-NonCommercial-ShareAlike 4.0 International License.
# To view a copy of this license, visit
# http://creativecommons.org/licenses/by-nc-sa/4.0/
# or send a letter to
# Creative Commons, PO Box 1866, Mountain View, CA 94042, USA.
#
# CIF created using the CSD Python API on 29 September 2022
# The structure has been converted into the P1 space group
# The structure has a 3D framework
# The original CSD entry HIQDUJ03 is in the tetragonal crystal system
# The framework has been calculated to contain at least 10.0% void space
# The void calculation uses a probe of radius 1.32A, grid spacing 0.4
# H atom positions have been added when not included in the experimental data
#
###############################################################################

data_HIQDUJ03
_chemical_formula_moiety         '(C88 H64 Co1 N8 Ni3 O24 P8)n'
_symmetry_cell_setting           triclinic
_symmetry_space_group_name_H-M   'P 1'
_symmetry_Int_Tables_number      1
_space_group_name_Hall           'P 1'
loop_
_symmetry_equiv_pos_site_id
_symmetry_equiv_pos_as_xyz
1 x,y,z
_cell_length_a                   21.980(5)
_cell_length_b                   21.980(5)
_cell_length_c                   8.9600(17)
_cell_angle_alpha                90
_cell_angle_beta                 90
_cell_angle_gamma                90
_cell_volume                     4328.76
loop_
_atom_site_label
_atom_site_type_symbol
_atom_site_fract_x
_atom_site_fract_y
_atom_site_fract_z
Co2 Co 0.0000 0.5000 0.4272(12)
O13 O 0.0385(8) 0.5651(11) 0.037(2)
O15 O 0.0385(8) 0.4349(11) 0.537(2)
O16 O 0.0643(8) 0.5316(11) 0.308(2)
Co1 Co -0.0000 0.5000 0.9272(12)
O18 O 0.0643(8) 0.4684(11) 0.808(2)
Co5 Co 0.5000 0.0000 0.0728(12)
Co8 Co 0.5000 0.0000 0.5728(12)
Ni1 Ni 0.5000 0.5000 0.0000
P1 P 0.9232(4) 0.4207(7) 0.1802(13)
O1 O 0.9615(8) 0.4349(11) 0.037(2)
O2 O 0.9357(8) 0.4684(11) 0.308(2)
O3 O 0.9351(11) 0.3535(13) 0.234(3)
C5 C 0.6502(7) 0.4648(8) 0.0448(19)
C6 C 0.7168(7) 0.4514(8) 0.0693(19)
C8 C 0.8255(8) 0.4668(8) 0.016(2)
C9 C 0.8418(8) 0.4261(9) 0.129(2)
C10 C 0.7971(7) 0.3970(9) 0.208(2)
H5 H 0.8079 0.3680 0.2815
C11 C 0.7362(8) 0.4092(8) 0.181(2)
H6 H 0.7063 0.3887 0.2383
N2 N 0.4260(6) 0.4529(6) 0.0108(15)
C12 C 0.3676(7) 0.4739(8) 0.0466(19)
C13 C 0.3275(9) 0.4227(7) 0.0821(19)
H7 H 0.2875 0.4250 0.1221
C14 C 0.3581(7) 0.3717(8) 0.0473(18)
H8 H 0.3427 0.3314 0.0508
C15 C 0.4197(7) 0.3899(7) 0.0028(19)
C18 C 0.4778(8) 0.2371(7) 0.015(2)
H9 H 0.5039 0.2476 0.0959
H10 H 0.4868 0.1438 0.0407
N3 N 0.5740(6) 0.5471(6) 0.0108(15)
C23 C 0.6324(7) 0.5261(8) 0.0466(19)
C24 C 0.6725(9) 0.5773(7) 0.0821(19)
H13 H 0.7125 0.5750 0.1221
C25 C 0.6419(7) 0.6283(8) 0.0473(18)
H14 H 0.6573 0.6686 0.0508
C26 C 0.5803(7) 0.6101(7) 0.0028(19)
C29 C 0.5222(8) 0.7629(7) 0.015(2)
H15 H 0.4961 0.7524 0.0959
H16 H 0.5132 0.8562 0.0407
P4 P 0.0768(4) 0.5793(7) 0.1802(13)
O12 O 0.0649(11) 0.6465(13) 0.234(3)
C38 C 0.3498(7) 0.5352(8) 0.0448(19)
C39 C 0.2832(7) 0.5486(8) 0.0693(19)
C41 C 0.1745(8) 0.5332(8) 0.016(2)
C42 C 0.1582(8) 0.5739(9) 0.129(2)
C43 C 0.2029(7) 0.6030(9) 0.208(2)
H23 H 0.1921 0.6320 0.2815
C44 C 0.2638(8) 0.5908(8) 0.181(2)
H24 H 0.2937 0.6113 0.2383
Co2_2 Co 1.0000 0.5000 0.4272(12)
Co5_2 Co 0.5000 1.0000 0.0728(12)
O14 O 0.9615(8) 0.5651(11) 0.537(2)
H25 H 0.978952 0.348317 0.257419
H28 H 0.0210479 0.651683 0.257419
Co1_2 Co 1.0000 0.5000 0.9272(12)
Ni1_2 Ni 0.5000 0.5000 1.0000
N1 N 0.5471(6) 0.4260(6) 0.9892(15)
C1 C 0.5261(8) 0.3676(7) 0.9534(19)
C2 C 0.5773(7) 0.3275(9) 0.9179(19)
H1 H 0.5750 0.2875 0.8779
C3 C 0.6283(8) 0.3581(7) 0.9527(18)
H2 H 0.6686 0.3427 0.9492
C4 C 0.6101(7) 0.4197(7) 0.9972(19)
C7 C 0.7629(7) 0.4778(8) 0.985(2)
H3 H 0.7524 0.5039 0.9041
H4 H 0.8562 0.4868 0.9593
P2 P 0.4207(7) 0.0768(4) 0.8198(13)
O4 O 0.4349(11) 0.0385(8) 0.963(2)
O5 O 0.4684(11) 0.0643(8) 0.692(2)
O6 O 0.3535(13) 0.0649(11) 0.766(3)
C16 C 0.4648(8) 0.3498(7) 0.9552(19)
C17 C 0.4514(8) 0.2832(7) 0.9307(19)
C19 C 0.4668(8) 0.1745(8) 0.984(2)
C20 C 0.4261(9) 0.1582(8) 0.871(2)
C21 C 0.3970(9) 0.2029(7) 0.792(2)
H11 H 0.3680 0.1921 0.7185
C22 C 0.4092(8) 0.2638(8) 0.819(2)
H12 H 0.3887 0.2937 0.7617
P3 P 0.5793(7) 0.9232(4) 0.8198(13)
O7 O 0.5651(11) 0.9615(8) 0.963(2)
O8 O 0.5316(11) 0.9357(8) 0.692(2)
O9 O 0.6465(13) 0.9351(11) 0.766(3)
C27 C 0.5352(8) 0.6502(7) 0.9552(19)
C28 C 0.5486(8) 0.7168(7) 0.9307(19)
C30 C 0.5332(8) 0.8255(8) 0.984(2)
C31 C 0.5739(9) 0.8418(8) 0.871(2)
C32 C 0.6030(9) 0.7971(7) 0.792(2)
H17 H 0.6320 0.8079 0.7185
C33 C 0.5908(8) 0.7362(8) 0.819(2)
H18 H 0.6113 0.7063 0.7617
N4 N 0.4529(6) 0.5740(6) 0.9892(15)
C34 C 0.4739(8) 0.6324(7) 0.9534(19)
C35 C 0.4227(7) 0.6725(9) 0.9179(19)
H19 H 0.4250 0.7125 0.8779
C36 C 0.3717(8) 0.6419(7) 0.9527(18)
H20 H 0.3314 0.6573 0.9492
C37 C 0.3899(7) 0.5803(7) 0.9972(19)
C40 C 0.2371(7) 0.5222(8) 0.985(2)
H21 H 0.2476 0.4961 0.9041
H22 H 0.1438 0.5132 0.9593
Co8_2 Co 0.5000 1.0000 0.5728(12)
O17 O 0.9357(8) 0.5316(11) 0.808(2)
H26 H 0.675331 0.923301 0.846264
H27 H 0.324669 0.0766988 0.846264
O17_2 O 0.5316(11) 0.0643(8) 0.192(2)
H26_2 H 0.923301 0.324669 0.153736
H27_2 H 0.0766988 0.675331 0.153736
O14_2 O 0.5651(11) 0.0385(8) 0.463(2)
H25_2 H 0.348317 0.0210479 0.742581
H28_2 H 0.651683 0.978952 0.742581
O18_2 O 0.4684(11) 0.9357(8) 0.192(2)
O15_2 O 0.4349(11) 0.9615(8) 0.463(2)
Ni1_3 Ni 0.5000 0.5000 0.5000
P1_2 P 0.9232(4) 0.5793(7) 0.6802(13)
N1_2 N 0.5471(6) 0.5740(6) 0.4892(15)
O3_2 O 0.9351(11) 0.6465(13) 0.734(3)
C1_2 C 0.5261(8) 0.6324(7) 0.4534(19)
C2_2 C 0.5773(7) 0.6725(9) 0.4179(19)
H1_2 H 0.5750 0.7125 0.3779
C3_2 C 0.6283(8) 0.6419(7) 0.4527(18)
H2_2 H 0.6686 0.6573 0.4492
C4_2 C 0.6101(7) 0.5803(7) 0.4972(19)
C5_2 C 0.6502(7) 0.5352(8) 0.5448(19)
C6_2 C 0.7168(7) 0.5486(8) 0.5693(19)
C7_2 C 0.7629(7) 0.5222(8) 0.485(2)
H3_2 H 0.7524 0.4961 0.4041
C8_2 C 0.8255(8) 0.5332(8) 0.516(2)
H4_2 H 0.8562 0.5132 0.4593
C9_2 C 0.8418(8) 0.5739(9) 0.629(2)
C10_2 C 0.7971(7) 0.6030(9) 0.708(2)
H5_2 H 0.8079 0.6320 0.7815
C11_2 C 0.7362(8) 0.5908(8) 0.681(2)
H6_2 H 0.7063 0.6113 0.7383
P2_2 P 0.4207(7) 0.9232(4) 0.3198(13)
N2_2 N 0.4260(6) 0.5471(6) 0.5108(15)
O6_2 O 0.3535(13) 0.9351(11) 0.266(3)
C12_2 C 0.3676(7) 0.5261(8) 0.5466(19)
C13_2 C 0.3275(9) 0.5773(7) 0.5821(19)
H7_2 H 0.2875 0.5750 0.6221
C14_2 C 0.3581(7) 0.6283(8) 0.5473(18)
H8_2 H 0.3427 0.6686 0.5508
C15_2 C 0.4197(7) 0.6101(7) 0.5028(19)
C16_2 C 0.4648(8) 0.6502(7) 0.4552(19)
C17_2 C 0.4514(8) 0.7168(7) 0.4307(19)
C18_2 C 0.4778(8) 0.7629(7) 0.515(2)
H9_2 H 0.5039 0.7524 0.5959
C19_2 C 0.4668(8) 0.8255(8) 0.484(2)
H10_2 H 0.4868 0.8562 0.5407
C20_2 C 0.4261(9) 0.8418(8) 0.371(2)
C21_2 C 0.3970(9) 0.7971(7) 0.292(2)
H11_2 H 0.3680 0.8079 0.2185
C22_2 C 0.4092(8) 0.7362(8) 0.319(2)
H12_2 H 0.3887 0.7063 0.2617
P3_2 P 0.5793(7) 0.0768(4) 0.3198(13)
N3_2 N 0.5740(6) 0.4529(6) 0.5108(15)
O9_2 O 0.6465(13) 0.0649(11) 0.266(3)
C23_2 C 0.6324(7) 0.4739(8) 0.5466(19)
C24_2 C 0.6725(9) 0.4227(7) 0.5821(19)
H13_2 H 0.7125 0.4250 0.6221
C25_2 C 0.6419(7) 0.3717(8) 0.5473(18)
H14_2 H 0.6573 0.3314 0.5508
C26_2 C 0.5803(7) 0.3899(7) 0.5028(19)
C27_2 C 0.5352(8) 0.3498(7) 0.4552(19)
C28_2 C 0.5486(8) 0.2832(7) 0.4307(19)
C29_2 C 0.5222(8) 0.2371(7) 0.515(2)
H15_2 H 0.4961 0.2476 0.5959
C30_2 C 0.5332(8) 0.1745(8) 0.484(2)
H16_2 H 0.5132 0.1438 0.5407
C31_2 C 0.5739(9) 0.1582(8) 0.371(2)
C32_2 C 0.6030(9) 0.2029(7) 0.292(2)
H17_2 H 0.6320 0.1921 0.2185
C33_2 C 0.5908(8) 0.2638(8) 0.319(2)
H18_2 H 0.6113 0.2937 0.2617
P4_2 P 0.0768(4) 0.4207(7) 0.6802(13)
N4_2 N 0.4529(6) 0.4260(6) 0.4892(15)
O12_2 O 0.0649(11) 0.3535(13) 0.734(3)
C34_2 C 0.4739(8) 0.3676(7) 0.4534(19)
C35_2 C 0.4227(7) 0.3275(9) 0.4179(19)
H19_2 H 0.4250 0.2875 0.3779
C36_2 C 0.3717(8) 0.3581(7) 0.4527(18)
H20_2 H 0.3314 0.3427 0.4492
C37_2 C 0.3899(7) 0.4197(7) 0.4972(19)
C38_2 C 0.3498(7) 0.4648(8) 0.5448(19)
C39_2 C 0.2832(7) 0.4514(8) 0.5693(19)
C40_2 C 0.2371(7) 0.4778(8) 0.485(2)
H21_2 H 0.2476 0.5039 0.4041
C41_2 C 0.1745(8) 0.4668(8) 0.516(2)
H22_2 H 0.1438 0.4868 0.4593
C42_2 C 0.1582(8) 0.4261(9) 0.629(2)
C43_2 C 0.2029(7) 0.3970(9) 0.708(2)
H23_2 H 0.1921 0.3680 0.7815
C44_2 C 0.2638(8) 0.4092(8) 0.681(2)
H24_2 H 0.2937 0.3887 0.7383
H25_3 H 0.978952 0.651683 0.757419
H26_3 H 0.675331 0.0766988 0.346264
H27_3 H 0.324669 0.923301 0.346264
H28_3 H 0.0210479 0.348317 0.757419
H25_4 H 0.348317 0.978952 0.242581
H26_4 H 0.923301 0.675331 0.653736
H27_4 H 0.0766988 0.324669 0.653736
H28_4 H 0.651683 0.0210479 0.242581
loop_
_geom_bond_atom_site_label_1
_geom_bond_atom_site_label_2
_geom_bond_site_symmetry_1
_geom_bond_site_symmetry_2
O15 Co2 1_555 1_555
O16 Co2 1_555 1_555
O18 Co1 1_555 1_555
P1 O1 1_555 1_555
O2 P1 1_555 1_555
O3 P1 1_555 1_555
C6 C5 1_555 1_555
C9 P1 1_555 1_555
C10 C9 1_555 1_555
H5 C10 1_555 1_555
C11 C6 1_555 1_555
H6 C11 1_555 1_555
N2 Ni1 1_555 1_555
C12 N2 1_555 1_555
C13 C12 1_555 1_555
H7 C13 1_555 1_555
C14 C13 1_555 1_555
H8 C14 1_555 1_555
C15 N2 1_555 1_555
H9 C18 1_555 1_555
N3 Ni1 1_555 1_555
C23 C5 1_555 1_555
C24 C23 1_555 1_555
H13 C24 1_555 1_555
C25 C24 1_555 1_555
H14 C25 1_555 1_555
C26 N3 1_555 1_555
H15 C29 1_555 1_555
P4 O13 1_555 1_555
O16 P4 1_555 1_555
O12 P4 1_555 1_555
C38 C12 1_555 1_555
C39 C38 1_555 1_555
C42 P4 1_555 1_555
C43 C42 1_555 1_555
H23 C43 1_555 1_555
C44 C39 1_555 1_555
H24 C44 1_555 1_555
Co2_2 O2 1_555 1_555
O14 Co2_2 1_555 1_555
C8 C9 1_555 1_555
C10 C11 1_555 1_555
C14 C15 1_555 1_555
N3 C23 1_555 1_555
C25 C26 1_555 1_555
C41 C42 1_555 1_555
C43 C44 1_555 1_555
O3 H25 1_555 1_555
O12 H28 1_555 1_555
Ni1_2 N1 1_555 1_555
N1 C1 1_555 1_555
C1 C2 1_555 1_555
C2 H1 1_555 1_555
C3 C2 1_555 1_555
H2 C3 1_555 1_555
C4 N1 1_555 1_555
H3 C7 1_555 1_555
P2 O4 1_555 1_555
O5 P2 1_555 1_555
O6 P2 1_555 1_555
C16 C1 1_555 1_555
C17 C16 1_555 1_555
C20 P2 1_555 1_555
C21 C20 1_555 1_555
H11 C21 1_555 1_555
C22 C17 1_555 1_555
H12 C22 1_555 1_555
P3 O7 1_555 1_555
O8 P3 1_555 1_555
O9 P3 1_555 1_555
C28 C27 1_555 1_555
C31 P3 1_555 1_555
C32 C31 1_555 1_555
H17 C32 1_555 1_555
C33 C28 1_555 1_555
H18 C33 1_555 1_555
N4 Ni1_2 1_555 1_555
C34 C27 1_555 1_555
C35 C34 1_555 1_555
H19 C35 1_555 1_555
C36 C35 1_555 1_555
H20 C36 1_555 1_555
C37 N4 1_555 1_555
H21 C40 1_555 1_555
Co8 O5 1_555 1_555
Co8_2 O8 1_555 1_555
O17 Co1_2 1_555 1_555
C3 C4 1_555 1_555
C19 C20 1_555 1_555
C21 C22 1_555 1_555
C30 C31 1_555 1_555
C32 C33 1_555 1_555
N4 C34 1_555 1_555
C36 C37 1_555 1_555
O9 H26 1_555 1_555
O6 H27 1_555 1_555
O17_2 Co5 1_555 1_555
O3 H26_2 1_555 1_555
O12 H27_2 1_555 1_555
O14_2 Co8 1_555 1_555
O6 H25_2 1_555 1_555
O9 H28_2 1_555 1_555
O18_2 Co5_2 1_555 1_555
O15_2 Co8_2 1_555 1_555
Ni1_3 N1_2 1_555 1_555
P1_2 O14 1_555 1_555
N1_2 C1_2 1_555 1_555
O17 P1_2 1_555 1_555
O3_2 P1_2 1_555 1_555
C1_2 C2_2 1_555 1_555
C2_2 H1_2 1_555 1_555
C3_2 C2_2 1_555 1_555
H2_2 C3_2 1_555 1_555
C4_2 N1_2 1_555 1_555
C5_2 C4_2 1_555 1_555
C6_2 C5_2 1_555 1_555
C7_2 C6_2 1_555 1_555
H3_2 C7_2 1_555 1_555
C8_2 C7_2 1_555 1_555
H4_2 C8_2 1_555 1_555
C9_2 P1_2 1_555 1_555
C10_2 C9_2 1_555 1_555
H5_2 C10_2 1_555 1_555
C11_2 C6_2 1_555 1_555
H6_2 C11_2 1_555 1_555
P2_2 O15_2 1_555 1_555
N2_2 Ni1_3 1_555 1_555
O18_2 P2_2 1_555 1_555
O6_2 P2_2 1_555 1_555
C12_2 N2_2 1_555 1_555
C13_2 C12_2 1_555 1_555
H7_2 C13_2 1_555 1_555
C14_2 C13_2 1_555 1_555
H8_2 C14_2 1_555 1_555
C15_2 N2_2 1_555 1_555
C16_2 C1_2 1_555 1_555
C17_2 C16_2 1_555 1_555
C18_2 C17_2 1_555 1_555
H9_2 C18_2 1_555 1_555
C19_2 C18_2 1_555 1_555
H10_2 C19_2 1_555 1_555
C20_2 P2_2 1_555 1_555
C21_2 C20_2 1_555 1_555
H11_2 C21_2 1_555 1_555
C22_2 C17_2 1_555 1_555
H12_2 C22_2 1_555 1_555
P3_2 O14_2 1_555 1_555
N3_2 Ni1_3 1_555 1_555
O17_2 P3_2 1_555 1_555
O9_2 P3_2 1_555 1_555
C23_2 C5_2 1_555 1_555
C24_2 C23_2 1_555 1_555
H13_2 C24_2 1_555 1_555
C25_2 C24_2 1_555 1_555
H14_2 C25_2 1_555 1_555
C26_2 N3_2 1_555 1_555
C27_2 C26_2 1_555 1_555
C28_2 C27_2 1_555 1_555
C29_2 C28_2 1_555 1_555
H15_2 C29_2 1_555 1_555
C30_2 C29_2 1_555 1_555
H16_2 C30_2 1_555 1_555
C31_2 P3_2 1_555 1_555
C32_2 C31_2 1_555 1_555
H17_2 C32_2 1_555 1_555
C33_2 C28_2 1_555 1_555
H18_2 C33_2 1_555 1_555
P4_2 O15 1_555 1_555
N4_2 Ni1_3 1_555 1_555
O18 P4_2 1_555 1_555
O12_2 P4_2 1_555 1_555
C34_2 C27_2 1_555 1_555
C35_2 C34_2 1_555 1_555
H19_2 C35_2 1_555 1_555
C36_2 C35_2 1_555 1_555
H20_2 C36_2 1_555 1_555
C37_2 N4_2 1_555 1_555
C38_2 C12_2 1_555 1_555
C39_2 C38_2 1_555 1_555
C40_2 C39_2 1_555 1_555
H21_2 C40_2 1_555 1_555
C41_2 C40_2 1_555 1_555
H22_2 C41_2 1_555 1_555
C42_2 P4_2 1_555 1_555
C43_2 C42_2 1_555 1_555
H23_2 C43_2 1_555 1_555
C44_2 C39_2 1_555 1_555
H24_2 C44_2 1_555 1_555
C3_2 C4_2 1_555 1_555
C8_2 C9_2 1_555 1_555
C10_2 C11_2 1_555 1_555
C14_2 C15_2 1_555 1_555
C15_2 C16_2 1_555 1_555
C19_2 C20_2 1_555 1_555
C21_2 C22_2 1_555 1_555
N3_2 C23_2 1_555 1_555
C25_2 C26_2 1_555 1_555
C30_2 C31_2 1_555 1_555
C32_2 C33_2 1_555 1_555
N4_2 C34_2 1_555 1_555
C36_2 C37_2 1_555 1_555
C37_2 C38_2 1_555 1_555
C41_2 C42_2 1_555 1_555
C43_2 C44_2 1_555 1_555
O3_2 H25_3 1_555 1_555
O9_2 H26_3 1_555 1_555
O6_2 H27_3 1_555 1_555
O12_2 H28_3 1_555 1_555
O6_2 H25_4 1_555 1_555
O3_2 H26_4 1_555 1_555
O12_2 H27_4 1_555 1_555
O9_2 H28_4 1_555 1_555

#END
