
###############################################################################
#
# This file contains modified crystal structure data generated from the
# MOF subset of the Cambridge Structural Database (CSD) v543 
# hosted by the Cambridge Crystallographic Data Centre (CCDC).
#
# This work is licensed under the Creative Commons
# Attribution-NonCommercial-ShareAlike 4.0 International License.
# To view a copy of this license, visit
# http://creativecommons.org/licenses/by-nc-sa/4.0/
# or send a letter to
# Creative Commons, PO Box 1866, Mountain View, CA 94042, USA.
#
# CIF created using the CSD Python API on 29 September 2022
# The structure has been converted into the P1 space group
# The structure has a 3D framework
# The original CSD entry HIQDUJ04 is in the tetragonal crystal system
# The framework has been calculated to contain at least 10.0% void space
# The void calculation uses a probe of radius 1.32A, grid spacing 0.4
# H atom positions have been added when not included in the experimental data
#
###############################################################################

data_HIQDUJ04
_chemical_formula_moiety         '(C88 H64 Co1 N8 Ni3 O24 P8)n'
_symmetry_cell_setting           triclinic
_symmetry_space_group_name_H-M   'P 1'
_symmetry_Int_Tables_number      1
_space_group_name_Hall           'P 1'
loop_
_symmetry_equiv_pos_site_id
_symmetry_equiv_pos_as_xyz
1 x,y,z
_cell_length_a                   21.980(5)
_cell_length_b                   21.980(5)
_cell_length_c                   8.9600(17)
_cell_angle_alpha                90
_cell_angle_beta                 90
_cell_angle_gamma                90
_cell_volume                     4328.76
loop_
_atom_site_label
_atom_site_type_symbol
_atom_site_fract_x
_atom_site_fract_y
_atom_site_fract_z
Co2 Co -0.0000 0.5000 0.4284(14)
O13 O 0.0390(11) 0.5668(12) 0.033(3)
O15 O 0.0390(11) 0.4332(12) 0.533(3)
O16 O 0.0653(9) 0.5315(12) 0.308(3)
Co1 Co 0.0000 0.5000 0.9284(14)
O18 O 0.0653(9) 0.4685(12) 0.808(3)
Co5 Co 0.5000 0.0000 0.0716(14)
Co8 Co 0.5000 -0.0000 0.5716(14)
Ni1 Ni 0.5000 0.5000 0.0000
P1 P 0.9231(6) 0.4205(8) 0.1830(16)
O1 O 0.9610(11) 0.4332(12) 0.033(3)
O2 O 0.9347(9) 0.4685(12) 0.308(3)
O3 O 0.9335(14) 0.3569(18) 0.238(4)
C5 C 0.6509(9) 0.4662(9) 0.044(2)
C6 C 0.7162(9) 0.4498(11) 0.068(3)
C8 C 0.8244(9) 0.4655(11) 0.017(3)
C9 C 0.8397(10) 0.4248(12) 0.128(3)
C10 C 0.7962(10) 0.3973(12) 0.199(3)
H5 H 0.8075 0.3683 0.2724
C11 C 0.7352(10) 0.4065(12) 0.176(3)
H6 H 0.7060 0.3842 0.2316
N2 N 0.4246(8) 0.4506(8) 0.0133(19)
C12 C 0.3672(9) 0.4736(10) 0.050(2)
C13 C 0.3284(10) 0.4236(8) 0.084(2)
H7 H 0.2885 0.4257 0.1246
C14 C 0.3590(9) 0.3735(10) 0.049(2)
H8 H 0.3436 0.3331 0.0534
C15 C 0.4195(9) 0.3905(9) 0.002(2)
C18 C 0.4779(11) 0.2370(8) 0.015(3)
H9 H 0.5054 0.2471 0.0928
H10 H 0.4853 0.1445 0.0386
N3 N 0.5754(8) 0.5494(8) 0.0133(19)
C23 C 0.6328(9) 0.5264(10) 0.050(2)
C24 C 0.6716(10) 0.5764(8) 0.084(2)
H13 H 0.7115 0.5743 0.1246
C25 C 0.6410(9) 0.6265(10) 0.049(2)
H14 H 0.6564 0.6669 0.0534
C26 C 0.5805(9) 0.6095(9) 0.002(2)
C29 C 0.5221(11) 0.7630(8) 0.015(3)
H15 H 0.4946 0.7529 0.0928
H16 H 0.5147 0.8555 0.0386
P4 P 0.0769(6) 0.5795(8) 0.1830(16)
O12 O 0.0665(14) 0.6431(18) 0.238(4)
C38 C 0.3491(9) 0.5338(9) 0.044(2)
C39 C 0.2838(9) 0.5502(11) 0.068(3)
C41 C 0.1756(9) 0.5345(11) 0.017(3)
C42 C 0.1603(10) 0.5752(12) 0.128(3)
C43 C 0.2038(10) 0.6027(12) 0.199(3)
H23 H 0.1925 0.6317 0.2724
C44 C 0.2648(10) 0.5935(12) 0.176(3)
H24 H 0.2940 0.6158 0.2316
Co2_2 Co 1.0000 0.5000 0.4284(14)
Co5_2 Co 0.5000 1.0000 0.0716(14)
O14 O 0.9610(11) 0.5668(12) 0.533(3)
H25 H 0.977438 0.350992 0.259319
H27 H 0.0225617 0.649008 0.259319
Co1_2 Co 1.0000 0.5000 0.9284(14)
Ni1_2 Ni 0.5000 0.5000 1.0000
N1 N 0.5494(8) 0.4246(8) 0.9867(19)
C1 C 0.5264(10) 0.3672(9) 0.950(2)
C2 C 0.5764(8) 0.3284(10) 0.916(2)
H1 H 0.5743 0.2885 0.8754
C3 C 0.6265(10) 0.3590(9) 0.951(2)
H2 H 0.6669 0.3436 0.9466
C4 C 0.6095(9) 0.4195(9) 0.998(2)
C7 C 0.7630(8) 0.4779(11) 0.985(3)
H3 H 0.7529 0.5054 0.9072
H4 H 0.8555 0.4853 0.9614
P2 P 0.4205(8) 0.0769(6) 0.8170(16)
O4 O 0.4332(12) 0.0390(11) 0.967(3)
O5 O 0.4685(12) 0.0653(9) 0.692(3)
O6 O 0.3569(18) 0.0665(14) 0.762(4)
C16 C 0.4662(9) 0.3491(9) 0.956(2)
C17 C 0.4498(11) 0.2838(9) 0.932(3)
C19 C 0.4655(11) 0.1756(9) 0.983(3)
C20 C 0.4248(12) 0.1603(10) 0.872(3)
C21 C 0.3973(12) 0.2038(10) 0.801(3)
H11 H 0.3683 0.1925 0.7276
C22 C 0.4065(12) 0.2648(10) 0.824(3)
H12 H 0.3842 0.2940 0.7684
P3 P 0.5795(8) 0.9231(6) 0.8170(16)
O7 O 0.5668(12) 0.9610(11) 0.967(3)
O8 O 0.5315(12) 0.9347(9) 0.692(3)
O9 O 0.6431(18) 0.9335(14) 0.762(4)
C27 C 0.5338(9) 0.6509(9) 0.956(2)
C28 C 0.5502(11) 0.7162(9) 0.932(3)
C30 C 0.5345(11) 0.8244(9) 0.983(3)
C31 C 0.5752(12) 0.8397(10) 0.872(3)
C32 C 0.6027(12) 0.7962(10) 0.801(3)
H17 H 0.6317 0.8075 0.7276
C33 C 0.5935(12) 0.7352(10) 0.824(3)
H18 H 0.6158 0.7060 0.7684
N4 N 0.4506(8) 0.5754(8) 0.9867(19)
C34 C 0.4736(10) 0.6328(9) 0.950(2)
C35 C 0.4236(8) 0.6716(10) 0.916(2)
H19 H 0.4257 0.7115 0.8754
C36 C 0.3735(10) 0.6410(9) 0.951(2)
H20 H 0.3331 0.6564 0.9466
C37 C 0.3905(9) 0.5805(9) 0.998(2)
C40 C 0.2370(8) 0.5221(11) 0.985(3)
H21 H 0.2471 0.4946 0.9072
H22 H 0.1445 0.5147 0.9614
Co8_2 Co 0.5000 1.0000 0.5716(14)
O17 O 0.9347(9) 0.5315(12) 0.808(3)
H26 H 0.327443 0.079692 0.839546
H28 H 0.672557 0.920308 0.839546
O17_2 O 0.5315(12) 0.0653(9) 0.192(3)
H26_2 H 0.079692 0.672557 0.160454
H28_2 H 0.920308 0.327443 0.160454
O14_2 O 0.5668(12) 0.0390(11) 0.467(3)
H25_2 H 0.350992 0.0225617 0.740681
H27_2 H 0.649008 0.977438 0.740681
O18_2 O 0.4685(12) 0.9347(9) 0.192(3)
O15_2 O 0.4332(12) 0.9610(11) 0.467(3)
Ni1_3 Ni 0.5000 0.5000 0.5000
P1_2 P 0.9231(6) 0.5795(8) 0.6830(16)
N1_2 N 0.5494(8) 0.5754(8) 0.4867(19)
O3_2 O 0.9335(14) 0.6431(18) 0.738(4)
C1_2 C 0.5264(10) 0.6328(9) 0.450(2)
C2_2 C 0.5764(8) 0.6716(10) 0.416(2)
H1_2 H 0.5743 0.7115 0.3754
C3_2 C 0.6265(10) 0.6410(9) 0.451(2)
H2_2 H 0.6669 0.6564 0.4466
C4_2 C 0.6095(9) 0.5805(9) 0.498(2)
C5_2 C 0.6509(9) 0.5338(9) 0.544(2)
C6_2 C 0.7162(9) 0.5502(11) 0.568(3)
C7_2 C 0.7630(8) 0.5221(11) 0.485(3)
H3_2 H 0.7529 0.4946 0.4072
C8_2 C 0.8244(9) 0.5345(11) 0.517(3)
H4_2 H 0.8555 0.5147 0.4614
C9_2 C 0.8397(10) 0.5752(12) 0.628(3)
C10_2 C 0.7962(10) 0.6027(12) 0.699(3)
H5_2 H 0.8075 0.6317 0.7724
C11_2 C 0.7352(10) 0.5935(12) 0.676(3)
H6_2 H 0.7060 0.6158 0.7316
P2_2 P 0.4205(8) 0.9231(6) 0.3170(16)
N2_2 N 0.4246(8) 0.5494(8) 0.5133(19)
O6_2 O 0.3569(18) 0.9335(14) 0.262(4)
C12_2 C 0.3672(9) 0.5264(10) 0.550(2)
C13_2 C 0.3284(10) 0.5764(8) 0.584(2)
H7_2 H 0.2885 0.5743 0.6246
C14_2 C 0.3590(9) 0.6265(10) 0.549(2)
H8_2 H 0.3436 0.6669 0.5534
C15_2 C 0.4195(9) 0.6095(9) 0.502(2)
C16_2 C 0.4662(9) 0.6509(9) 0.456(2)
C17_2 C 0.4498(11) 0.7162(9) 0.432(3)
C18_2 C 0.4779(11) 0.7630(8) 0.515(3)
H9_2 H 0.5054 0.7529 0.5928
C19_2 C 0.4655(11) 0.8244(9) 0.483(3)
H10_2 H 0.4853 0.8555 0.5386
C20_2 C 0.4248(12) 0.8397(10) 0.372(3)
C21_2 C 0.3973(12) 0.7962(10) 0.301(3)
H11_2 H 0.3683 0.8075 0.2276
C22_2 C 0.4065(12) 0.7352(10) 0.324(3)
H12_2 H 0.3842 0.7060 0.2684
P3_2 P 0.5795(8) 0.0769(6) 0.3170(16)
N3_2 N 0.5754(8) 0.4506(8) 0.5133(19)
O9_2 O 0.6431(18) 0.0665(14) 0.262(4)
C23_2 C 0.6328(9) 0.4736(10) 0.550(2)
C24_2 C 0.6716(10) 0.4236(8) 0.584(2)
H13_2 H 0.7115 0.4257 0.6246
C25_2 C 0.6410(9) 0.3735(10) 0.549(2)
H14_2 H 0.6564 0.3331 0.5534
C26_2 C 0.5805(9) 0.3905(9) 0.502(2)
C27_2 C 0.5338(9) 0.3491(9) 0.456(2)
C28_2 C 0.5502(11) 0.2838(9) 0.432(3)
C29_2 C 0.5221(11) 0.2370(8) 0.515(3)
H15_2 H 0.4946 0.2471 0.5928
C30_2 C 0.5345(11) 0.1756(9) 0.483(3)
H16_2 H 0.5147 0.1445 0.5386
C31_2 C 0.5752(12) 0.1603(10) 0.372(3)
C32_2 C 0.6027(12) 0.2038(10) 0.301(3)
H17_2 H 0.6317 0.1925 0.2276
C33_2 C 0.5935(12) 0.2648(10) 0.324(3)
H18_2 H 0.6158 0.2940 0.2684
P4_2 P 0.0769(6) 0.4205(8) 0.6830(16)
N4_2 N 0.4506(8) 0.4246(8) 0.4867(19)
O12_2 O 0.0665(14) 0.3569(18) 0.738(4)
C34_2 C 0.4736(10) 0.3672(9) 0.450(2)
C35_2 C 0.4236(8) 0.3284(10) 0.416(2)
H19_2 H 0.4257 0.2885 0.3754
C36_2 C 0.3735(10) 0.3590(9) 0.451(2)
H20_2 H 0.3331 0.3436 0.4466
C37_2 C 0.3905(9) 0.4195(9) 0.498(2)
C38_2 C 0.3491(9) 0.4662(9) 0.544(2)
C39_2 C 0.2838(9) 0.4498(11) 0.568(3)
C40_2 C 0.2370(8) 0.4779(11) 0.485(3)
H21_2 H 0.2471 0.5054 0.4072
C41_2 C 0.1756(9) 0.4655(11) 0.517(3)
H22_2 H 0.1445 0.4853 0.4614
C42_2 C 0.1603(10) 0.4248(12) 0.628(3)
C43_2 C 0.2038(10) 0.3973(12) 0.699(3)
H23_2 H 0.1925 0.3683 0.7724
C44_2 C 0.2648(10) 0.4065(12) 0.676(3)
H24_2 H 0.2940 0.3842 0.7316
H25_3 H 0.977438 0.649008 0.759319
H26_3 H 0.327443 0.920308 0.339546
H27_3 H 0.0225617 0.350992 0.759319
H28_3 H 0.672557 0.079692 0.339546
H25_4 H 0.350992 0.977438 0.240681
H26_4 H 0.079692 0.327443 0.660454
H27_4 H 0.649008 0.0225617 0.240681
H28_4 H 0.920308 0.672557 0.660454
loop_
_geom_bond_atom_site_label_1
_geom_bond_atom_site_label_2
_geom_bond_site_symmetry_1
_geom_bond_site_symmetry_2
O15 Co2 1_555 1_555
O16 Co2 1_555 1_555
O18 Co1 1_555 1_555
P1 O1 1_555 1_555
O2 P1 1_555 1_555
O3 P1 1_555 1_555
C6 C5 1_555 1_555
C9 P1 1_555 1_555
C10 C9 1_555 1_555
H5 C10 1_555 1_555
C11 C6 1_555 1_555
H6 C11 1_555 1_555
N2 Ni1 1_555 1_555
C12 N2 1_555 1_555
C13 C12 1_555 1_555
H7 C13 1_555 1_555
C14 C13 1_555 1_555
H8 C14 1_555 1_555
C15 N2 1_555 1_555
H9 C18 1_555 1_555
N3 Ni1 1_555 1_555
C23 C5 1_555 1_555
C24 C23 1_555 1_555
H13 C24 1_555 1_555
C25 C24 1_555 1_555
H14 C25 1_555 1_555
C26 N3 1_555 1_555
H15 C29 1_555 1_555
P4 O13 1_555 1_555
O16 P4 1_555 1_555
O12 P4 1_555 1_555
C38 C12 1_555 1_555
C39 C38 1_555 1_555
C42 P4 1_555 1_555
C43 C42 1_555 1_555
H23 C43 1_555 1_555
C44 C39 1_555 1_555
H24 C44 1_555 1_555
Co2_2 O2 1_555 1_555
O14 Co2_2 1_555 1_555
C8 C9 1_555 1_555
C10 C11 1_555 1_555
C14 C15 1_555 1_555
N3 C23 1_555 1_555
C25 C26 1_555 1_555
C41 C42 1_555 1_555
C43 C44 1_555 1_555
O3 H25 1_555 1_555
O12 H27 1_555 1_555
Ni1_2 N1 1_555 1_555
N1 C1 1_555 1_555
C1 C2 1_555 1_555
C2 H1 1_555 1_555
C3 C2 1_555 1_555
H2 C3 1_555 1_555
C4 N1 1_555 1_555
H3 C7 1_555 1_555
P2 O4 1_555 1_555
O5 P2 1_555 1_555
O6 P2 1_555 1_555
C16 C1 1_555 1_555
C17 C16 1_555 1_555
C20 P2 1_555 1_555
C21 C20 1_555 1_555
H11 C21 1_555 1_555
C22 C17 1_555 1_555
H12 C22 1_555 1_555
P3 O7 1_555 1_555
O8 P3 1_555 1_555
O9 P3 1_555 1_555
C28 C27 1_555 1_555
C31 P3 1_555 1_555
C32 C31 1_555 1_555
H17 C32 1_555 1_555
C33 C28 1_555 1_555
H18 C33 1_555 1_555
N4 Ni1_2 1_555 1_555
C34 C27 1_555 1_555
C35 C34 1_555 1_555
H19 C35 1_555 1_555
C36 C35 1_555 1_555
H20 C36 1_555 1_555
C37 N4 1_555 1_555
H21 C40 1_555 1_555
Co8 O5 1_555 1_555
Co8_2 O8 1_555 1_555
O17 Co1_2 1_555 1_555
C3 C4 1_555 1_555
C19 C20 1_555 1_555
C21 C22 1_555 1_555
C30 C31 1_555 1_555
C32 C33 1_555 1_555
N4 C34 1_555 1_555
C36 C37 1_555 1_555
O6 H26 1_555 1_555
O9 H28 1_555 1_555
O17_2 Co5 1_555 1_555
O12 H26_2 1_555 1_555
O3 H28_2 1_555 1_555
O14_2 Co8 1_555 1_555
O6 H25_2 1_555 1_555
O9 H27_2 1_555 1_555
O18_2 Co5_2 1_555 1_555
O15_2 Co8_2 1_555 1_555
Ni1_3 N1_2 1_555 1_555
P1_2 O14 1_555 1_555
N1_2 C1_2 1_555 1_555
O17 P1_2 1_555 1_555
O3_2 P1_2 1_555 1_555
C1_2 C2_2 1_555 1_555
C2_2 H1_2 1_555 1_555
C3_2 C2_2 1_555 1_555
H2_2 C3_2 1_555 1_555
C4_2 N1_2 1_555 1_555
C5_2 C4_2 1_555 1_555
C6_2 C5_2 1_555 1_555
C7_2 C6_2 1_555 1_555
H3_2 C7_2 1_555 1_555
C8_2 C7_2 1_555 1_555
H4_2 C8_2 1_555 1_555
C9_2 P1_2 1_555 1_555
C10_2 C9_2 1_555 1_555
H5_2 C10_2 1_555 1_555
C11_2 C6_2 1_555 1_555
H6_2 C11_2 1_555 1_555
P2_2 O15_2 1_555 1_555
N2_2 Ni1_3 1_555 1_555
O18_2 P2_2 1_555 1_555
O6_2 P2_2 1_555 1_555
C12_2 N2_2 1_555 1_555
C13_2 C12_2 1_555 1_555
H7_2 C13_2 1_555 1_555
C14_2 C13_2 1_555 1_555
H8_2 C14_2 1_555 1_555
C15_2 N2_2 1_555 1_555
C16_2 C1_2 1_555 1_555
C17_2 C16_2 1_555 1_555
C18_2 C17_2 1_555 1_555
H9_2 C18_2 1_555 1_555
C19_2 C18_2 1_555 1_555
H10_2 C19_2 1_555 1_555
C20_2 P2_2 1_555 1_555
C21_2 C20_2 1_555 1_555
H11_2 C21_2 1_555 1_555
C22_2 C17_2 1_555 1_555
H12_2 C22_2 1_555 1_555
P3_2 O14_2 1_555 1_555
N3_2 Ni1_3 1_555 1_555
O17_2 P3_2 1_555 1_555
O9_2 P3_2 1_555 1_555
C23_2 C5_2 1_555 1_555
C24_2 C23_2 1_555 1_555
H13_2 C24_2 1_555 1_555
C25_2 C24_2 1_555 1_555
H14_2 C25_2 1_555 1_555
C26_2 N3_2 1_555 1_555
C27_2 C26_2 1_555 1_555
C28_2 C27_2 1_555 1_555
C29_2 C28_2 1_555 1_555
H15_2 C29_2 1_555 1_555
C30_2 C29_2 1_555 1_555
H16_2 C30_2 1_555 1_555
C31_2 P3_2 1_555 1_555
C32_2 C31_2 1_555 1_555
H17_2 C32_2 1_555 1_555
C33_2 C28_2 1_555 1_555
H18_2 C33_2 1_555 1_555
P4_2 O15 1_555 1_555
N4_2 Ni1_3 1_555 1_555
O18 P4_2 1_555 1_555
O12_2 P4_2 1_555 1_555
C34_2 C27_2 1_555 1_555
C35_2 C34_2 1_555 1_555
H19_2 C35_2 1_555 1_555
C36_2 C35_2 1_555 1_555
H20_2 C36_2 1_555 1_555
C37_2 N4_2 1_555 1_555
C38_2 C12_2 1_555 1_555
C39_2 C38_2 1_555 1_555
C40_2 C39_2 1_555 1_555
H21_2 C40_2 1_555 1_555
C41_2 C40_2 1_555 1_555
H22_2 C41_2 1_555 1_555
C42_2 P4_2 1_555 1_555
C43_2 C42_2 1_555 1_555
H23_2 C43_2 1_555 1_555
C44_2 C39_2 1_555 1_555
H24_2 C44_2 1_555 1_555
C3_2 C4_2 1_555 1_555
C8_2 C9_2 1_555 1_555
C10_2 C11_2 1_555 1_555
C14_2 C15_2 1_555 1_555
C15_2 C16_2 1_555 1_555
C19_2 C20_2 1_555 1_555
C21_2 C22_2 1_555 1_555
N3_2 C23_2 1_555 1_555
C25_2 C26_2 1_555 1_555
C30_2 C31_2 1_555 1_555
C32_2 C33_2 1_555 1_555
N4_2 C34_2 1_555 1_555
C36_2 C37_2 1_555 1_555
C37_2 C38_2 1_555 1_555
C41_2 C42_2 1_555 1_555
C43_2 C44_2 1_555 1_555
O3_2 H25_3 1_555 1_555
O6_2 H26_3 1_555 1_555
O12_2 H27_3 1_555 1_555
O9_2 H28_3 1_555 1_555
O6_2 H25_4 1_555 1_555
O12_2 H26_4 1_555 1_555
O9_2 H27_4 1_555 1_555
O3_2 H28_4 1_555 1_555

#END
