
###############################################################################
#
# This file contains modified crystal structure data generated from the
# MOF subset of the Cambridge Structural Database (CSD) v543 
# hosted by the Cambridge Crystallographic Data Centre (CCDC).
#
# This work is licensed under the Creative Commons
# Attribution-NonCommercial-ShareAlike 4.0 International License.
# To view a copy of this license, visit
# http://creativecommons.org/licenses/by-nc-sa/4.0/
# or send a letter to
# Creative Commons, PO Box 1866, Mountain View, CA 94042, USA.
#
# CIF created using the CSD Python API on 29 September 2022
# The structure has been converted into the P1 space group
# The structure has a 3D framework
# The original CSD entry HIQDUJ07 is in the tetragonal crystal system
# The framework has been calculated to contain at least 10.0% void space
# The void calculation uses a probe of radius 1.32A, grid spacing 0.4
# H atom positions have been added when not included in the experimental data
#
###############################################################################

data_HIQDUJ07
_chemical_formula_moiety         '(C92 H64 Co1 N8 Ni3 O24 P8)n'
_symmetry_cell_setting           triclinic
_symmetry_space_group_name_H-M   'P 1'
_symmetry_Int_Tables_number      1
_space_group_name_Hall           'P 1'
loop_
_symmetry_equiv_pos_site_id
_symmetry_equiv_pos_as_xyz
1 x,y,z
_cell_length_a                   21.980(5)
_cell_length_b                   21.980(5)
_cell_length_c                   8.9600(17)
_cell_angle_alpha                90
_cell_angle_beta                 90
_cell_angle_gamma                90
_cell_volume                     4328.76
loop_
_atom_site_label
_atom_site_type_symbol
_atom_site_fract_x
_atom_site_fract_y
_atom_site_fract_z
Co2 Co -0.0000 0.5000 0.425(2)
O13 O 0.0391(8) 0.5652(9) 0.044(5)
O15 O 0.0391(8) 0.4348(9) 0.544(5)
O16 O 0.0658(8) 0.5307(11) 0.311(5)
Co1 Co -0.0000 0.5000 0.925(2)
O18 O 0.0658(8) 0.4693(11) 0.811(5)
Co5 Co 0.5000 0.0000 0.075(2)
Co8 Co 0.5000 0.0000 0.575(2)
Ni1 Ni 0.5000 0.5000 0.0000
P1 P 0.9235(4) 0.4209(5) 0.187(2)
O1 O 0.9609(8) 0.4348(9) 0.044(5)
O2 O 0.9342(8) 0.4693(11) 0.311(5)
O3 O 0.9333(7) 0.3531(10) 0.228(4)
C4 C 0.6104(6) 0.4190(5) 0.000(4)
C5 C 0.6527(6) 0.4658(6) 0.047(4)
C6 C 0.7169(6) 0.4512(6) 0.069(4)
C8 C 0.8250(6) 0.4680(7) 0.013(4)
C9 C 0.8433(7) 0.4261(8) 0.133(4)
C10 C 0.7979(7) 0.3981(7) 0.201(4)
H5 H 0.8081 0.3677 0.2723
C11 C 0.7341(7) 0.4099(7) 0.177(4)
H6 H 0.7042 0.3893 0.2344
N2 N 0.4257(5) 0.4521(5) 0.007(3)
C12 C 0.3691(6) 0.4727(6) 0.049(4)
C13 C 0.3288(6) 0.4209(6) 0.077(4)
H7 H 0.2878 0.4231 0.1103
C14 C 0.3588(5) 0.3711(6) 0.048(3)
H8 H 0.3442 0.3307 0.0569
C15 C 0.4190(5) 0.3896(6) 0.000(4)
C18 C 0.4773(6) 0.2383(5) 0.019(4)
H9 H 0.5017 0.2497 0.1020
H10 H 0.4889 0.1449 0.0430
N3 N 0.5743(5) 0.5479(5) 0.007(3)
C23 C 0.6309(6) 0.5273(6) 0.049(4)
C24 C 0.6712(6) 0.5791(6) 0.077(4)
H13 H 0.7122 0.5769 0.1103
C25 C 0.6412(5) 0.6289(6) 0.048(3)
H14 H 0.6558 0.6693 0.0569
C26 C 0.5810(5) 0.6104(6) 0.000(4)
C29 C 0.5227(6) 0.7617(5) 0.019(4)
H15 H 0.4983 0.7503 0.1020
H16 H 0.5111 0.8551 0.0430
P4 P 0.0765(4) 0.5791(5) 0.187(2)
O12 O 0.0667(7) 0.6469(10) 0.228(4)
C37 C 0.3896(6) 0.5810(5) 0.000(4)
C38 C 0.3473(6) 0.5342(6) 0.047(4)
C39 C 0.2831(6) 0.5488(6) 0.069(4)
C41 C 0.1750(6) 0.5320(7) 0.013(4)
C42 C 0.1567(7) 0.5739(8) 0.133(4)
C43 C 0.2021(7) 0.6019(7) 0.201(4)
H23 H 0.1919 0.6323 0.2723
C44 C 0.2659(7) 0.5901(7) 0.177(4)
H24 H 0.2958 0.6107 0.2344
Co2_2 Co 1.0000 0.5000 0.425(2)
Co5_2 Co 0.5000 1.0000 0.075(2)
O14 O 0.9609(8) 0.5652(9) 0.544(5)
H25 H 0.977214 0.345647 0.246522
H26 H 0.022786 0.654353 0.246522
Co1_2 Co 1.0000 0.5000 0.925(2)
Ni1_2 Ni 0.5000 0.5000 1.0000
N1 N 0.5479(5) 0.4257(5) 0.993(3)
C1 C 0.5273(6) 0.3691(6) 0.951(4)
C2 C 0.5791(6) 0.3288(6) 0.923(4)
H1 H 0.5769 0.2878 0.8897
C3 C 0.6289(6) 0.3588(5) 0.952(3)
H2 H 0.6693 0.3442 0.9431
C4_2 C 0.6104(6) 0.4190(5) 1.000(4)
C7 C 0.7617(5) 0.4773(6) 0.981(4)
H3 H 0.7503 0.5017 0.8980
H4 H 0.8551 0.4889 0.9570
P2 P 0.4209(5) 0.0765(4) 0.813(2)
O4 O 0.4348(9) 0.0391(8) 0.956(5)
O5 O 0.4693(11) 0.0658(8) 0.689(5)
O6 O 0.3531(10) 0.0667(7) 0.772(4)
C15_2 C 0.4190(5) 0.3896(6) 1.000(4)
C16 C 0.4658(6) 0.3473(6) 0.953(4)
C17 C 0.4512(6) 0.2831(6) 0.931(4)
C19 C 0.4680(7) 0.1750(6) 0.987(4)
C20 C 0.4261(8) 0.1567(7) 0.867(4)
C21 C 0.3981(7) 0.2021(7) 0.799(4)
H11 H 0.3677 0.1919 0.7277
C22 C 0.4099(7) 0.2659(7) 0.823(4)
H12 H 0.3893 0.2958 0.7656
P3 P 0.5791(5) 0.9235(4) 0.813(2)
O7 O 0.5652(9) 0.9609(8) 0.956(5)
O8 O 0.5307(11) 0.9342(8) 0.689(5)
O9 O 0.6469(10) 0.9333(7) 0.772(4)
C26_2 C 0.5810(5) 0.6104(6) 1.000(4)
C27 C 0.5342(6) 0.6527(6) 0.953(4)
C28 C 0.5488(6) 0.7169(6) 0.931(4)
C30 C 0.5320(7) 0.8250(6) 0.987(4)
C31 C 0.5739(8) 0.8433(7) 0.867(4)
C32 C 0.6019(7) 0.7979(7) 0.799(4)
H17 H 0.6323 0.8081 0.7277
C33 C 0.5901(7) 0.7341(7) 0.823(4)
H18 H 0.6107 0.7042 0.7656
N4 N 0.4521(5) 0.5743(5) 0.993(3)
C34 C 0.4727(6) 0.6309(6) 0.951(4)
C35 C 0.4209(6) 0.6712(6) 0.923(4)
H19 H 0.4231 0.7122 0.8897
C36 C 0.3711(6) 0.6412(5) 0.952(3)
H20 H 0.3307 0.6558 0.9431
C37_2 C 0.3896(6) 0.5810(5) 1.000(4)
C40 C 0.2383(5) 0.5227(6) 0.981(4)
H21 H 0.2497 0.4983 0.8980
H22 H 0.1449 0.5111 0.9570
Co8_2 Co 0.5000 1.0000 0.575(2)
O17 O 0.9342(8) 0.5307(11) 0.811(5)
H27 H 0.327002 0.0807604 0.85563
H28 H 0.672998 0.91924 0.85563
O17_2 O 0.5307(11) 0.0658(8) 0.189(5)
H27_2 H 0.0807604 0.672998 0.14437
H28_2 H 0.91924 0.327002 0.14437
O14_2 O 0.5652(9) 0.0391(8) 0.456(5)
H25_2 H 0.345647 0.022786 0.753478
H26_2 H 0.654353 0.977214 0.753478
O18_2 O 0.4693(11) 0.9342(8) 0.189(5)
O15_2 O 0.4348(9) 0.9609(8) 0.456(5)
Ni1_3 Ni 0.5000 0.5000 0.5000
P1_2 P 0.9235(4) 0.5791(5) 0.687(2)
N1_2 N 0.5479(5) 0.5743(5) 0.493(3)
O3_2 O 0.9333(7) 0.6469(10) 0.728(4)
C1_2 C 0.5273(6) 0.6309(6) 0.451(4)
C2_2 C 0.5791(6) 0.6712(6) 0.423(4)
H1_2 H 0.5769 0.7122 0.3897
C3_2 C 0.6289(6) 0.6412(5) 0.452(3)
H2_2 H 0.6693 0.6558 0.4431
C4_3 C 0.6104(6) 0.5810(5) 0.500(4)
C5_2 C 0.6527(6) 0.5342(6) 0.547(4)
C6_2 C 0.7169(6) 0.5488(6) 0.569(4)
C7_2 C 0.7617(5) 0.5227(6) 0.481(4)
H3_2 H 0.7503 0.4983 0.3980
C8_2 C 0.8250(6) 0.5320(7) 0.513(4)
H4_2 H 0.8551 0.5111 0.4570
C9_2 C 0.8433(7) 0.5739(8) 0.633(4)
C10_2 C 0.7979(7) 0.6019(7) 0.701(4)
H5_2 H 0.8081 0.6323 0.7723
C11_2 C 0.7341(7) 0.5901(7) 0.677(4)
H6_2 H 0.7042 0.6107 0.7344
P2_2 P 0.4209(5) 0.9235(4) 0.313(2)
N2_2 N 0.4257(5) 0.5479(5) 0.507(3)
O6_2 O 0.3531(10) 0.9333(7) 0.272(4)
C12_2 C 0.3691(6) 0.5273(6) 0.549(4)
C13_2 C 0.3288(6) 0.5791(6) 0.577(4)
H7_2 H 0.2878 0.5769 0.6103
C14_2 C 0.3588(5) 0.6289(6) 0.548(3)
H8_2 H 0.3442 0.6693 0.5569
C15_3 C 0.4190(5) 0.6104(6) 0.500(4)
C16_2 C 0.4658(6) 0.6527(6) 0.453(4)
C17_2 C 0.4512(6) 0.7169(6) 0.431(4)
C18_2 C 0.4773(6) 0.7617(5) 0.519(4)
H9_2 H 0.5017 0.7503 0.6020
C19_2 C 0.4680(7) 0.8250(6) 0.487(4)
H10_2 H 0.4889 0.8551 0.5430
C20_2 C 0.4261(8) 0.8433(7) 0.367(4)
C21_2 C 0.3981(7) 0.7979(7) 0.299(4)
H11_2 H 0.3677 0.8081 0.2277
C22_2 C 0.4099(7) 0.7341(7) 0.323(4)
H12_2 H 0.3893 0.7042 0.2656
P3_2 P 0.5791(5) 0.0765(4) 0.313(2)
N3_2 N 0.5743(5) 0.4521(5) 0.507(3)
O9_2 O 0.6469(10) 0.0667(7) 0.272(4)
C23_2 C 0.6309(6) 0.4727(6) 0.549(4)
C24_2 C 0.6712(6) 0.4209(6) 0.577(4)
H13_2 H 0.7122 0.4231 0.6103
C25_2 C 0.6412(5) 0.3711(6) 0.548(3)
H14_2 H 0.6558 0.3307 0.5569
C26_3 C 0.5810(5) 0.3896(6) 0.500(4)
C27_2 C 0.5342(6) 0.3473(6) 0.453(4)
C28_2 C 0.5488(6) 0.2831(6) 0.431(4)
C29_2 C 0.5227(6) 0.2383(5) 0.519(4)
H15_2 H 0.4983 0.2497 0.6020
C30_2 C 0.5320(7) 0.1750(6) 0.487(4)
H16_2 H 0.5111 0.1449 0.5430
C31_2 C 0.5739(8) 0.1567(7) 0.367(4)
C32_2 C 0.6019(7) 0.2021(7) 0.299(4)
H17_2 H 0.6323 0.1919 0.2277
C33_2 C 0.5901(7) 0.2659(7) 0.323(4)
H18_2 H 0.6107 0.2958 0.2656
P4_2 P 0.0765(4) 0.4209(5) 0.687(2)
N4_2 N 0.4521(5) 0.4257(5) 0.493(3)
O12_2 O 0.0667(7) 0.3531(10) 0.728(4)
C34_2 C 0.4727(6) 0.3691(6) 0.451(4)
C35_2 C 0.4209(6) 0.3288(6) 0.423(4)
H19_2 H 0.4231 0.2878 0.3897
C36_2 C 0.3711(6) 0.3588(5) 0.452(3)
H20_2 H 0.3307 0.3442 0.4431
C37_3 C 0.3896(6) 0.4190(5) 0.500(4)
C38_2 C 0.3473(6) 0.4658(6) 0.547(4)
C39_2 C 0.2831(6) 0.4512(6) 0.569(4)
C40_2 C 0.2383(5) 0.4773(6) 0.481(4)
H21_2 H 0.2497 0.5017 0.3980
C41_2 C 0.1750(6) 0.4680(7) 0.513(4)
H22_2 H 0.1449 0.4889 0.4570
C42_2 C 0.1567(7) 0.4261(8) 0.633(4)
C43_2 C 0.2021(7) 0.3981(7) 0.701(4)
H23_2 H 0.1919 0.3677 0.7723
C44_2 C 0.2659(7) 0.4099(7) 0.677(4)
H24_2 H 0.2958 0.3893 0.7344
H25_3 H 0.977214 0.654353 0.746522
H26_3 H 0.022786 0.345647 0.746522
H27_3 H 0.327002 0.91924 0.35563
H28_3 H 0.672998 0.0807604 0.35563
H25_4 H 0.345647 0.977214 0.253478
H26_4 H 0.654353 0.022786 0.253478
H27_4 H 0.0807604 0.327002 0.64437
H28_4 H 0.91924 0.672998 0.64437
loop_
_geom_bond_atom_site_label_1
_geom_bond_atom_site_label_2
_geom_bond_site_symmetry_1
_geom_bond_site_symmetry_2
O15 Co2 1_555 1_555
O16 Co2 1_555 1_555
O18 Co1 1_555 1_555
P1 O1 1_555 1_555
O2 P1 1_555 1_555
O3 P1 1_555 1_555
C5 C4 1_555 1_555
C6 C5 1_555 1_555
C9 P1 1_555 1_555
C10 C9 1_555 1_555
H5 C10 1_555 1_555
C11 C6 1_555 1_555
H6 C11 1_555 1_555
N2 Ni1 1_555 1_555
C12 N2 1_555 1_555
C13 C12 1_555 1_555
H7 C13 1_555 1_555
C14 C13 1_555 1_555
H8 C14 1_555 1_555
C15 N2 1_555 1_555
H9 C18 1_555 1_555
N3 Ni1 1_555 1_555
C23 C5 1_555 1_555
C24 C23 1_555 1_555
H13 C24 1_555 1_555
C25 C24 1_555 1_555
H14 C25 1_555 1_555
C26 N3 1_555 1_555
H15 C29 1_555 1_555
P4 O13 1_555 1_555
O16 P4 1_555 1_555
O12 P4 1_555 1_555
C38 C12 1_555 1_555
C39 C38 1_555 1_555
C42 P4 1_555 1_555
C43 C42 1_555 1_555
H23 C43 1_555 1_555
C44 C39 1_555 1_555
H24 C44 1_555 1_555
Co2_2 O2 1_555 1_555
O14 Co2_2 1_555 1_555
C8 C9 1_555 1_555
C10 C11 1_555 1_555
C14 C15 1_555 1_555
N3 C23 1_555 1_555
C25 C26 1_555 1_555
C37 C38 1_555 1_555
C41 C42 1_555 1_555
C43 C44 1_555 1_555
O3 H25 1_555 1_555
O12 H26 1_555 1_555
Ni1_2 N1 1_555 1_555
N1 C1 1_555 1_555
C1 C2 1_555 1_555
C2 H1 1_555 1_555
C3 C2 1_555 1_555
H2 C3 1_555 1_555
C4_2 N1 1_555 1_555
H3 C7 1_555 1_555
P2 O4 1_555 1_555
O5 P2 1_555 1_555
O6 P2 1_555 1_555
C16 C1 1_555 1_555
C17 C16 1_555 1_555
C20 P2 1_555 1_555
C21 C20 1_555 1_555
H11 C21 1_555 1_555
C22 C17 1_555 1_555
H12 C22 1_555 1_555
P3 O7 1_555 1_555
O8 P3 1_555 1_555
O9 P3 1_555 1_555
C27 C26_2 1_555 1_555
C28 C27 1_555 1_555
C31 P3 1_555 1_555
C32 C31 1_555 1_555
H17 C32 1_555 1_555
C33 C28 1_555 1_555
H18 C33 1_555 1_555
N4 Ni1_2 1_555 1_555
C34 C27 1_555 1_555
C35 C34 1_555 1_555
H19 C35 1_555 1_555
C36 C35 1_555 1_555
H20 C36 1_555 1_555
C37_2 N4 1_555 1_555
H21 C40 1_555 1_555
Co8 O5 1_555 1_555
Co8_2 O8 1_555 1_555
O17 Co1_2 1_555 1_555
C3 C4_2 1_555 1_555
C15_2 C16 1_555 1_555
C19 C20 1_555 1_555
C21 C22 1_555 1_555
C30 C31 1_555 1_555
C32 C33 1_555 1_555
N4 C34 1_555 1_555
C36 C37_2 1_555 1_555
O6 H27 1_555 1_555
O9 H28 1_555 1_555
O17_2 Co5 1_555 1_555
O12 H27_2 1_555 1_555
O3 H28_2 1_555 1_555
O14_2 Co8 1_555 1_555
O6 H25_2 1_555 1_555
O9 H26_2 1_555 1_555
O18_2 Co5_2 1_555 1_555
O15_2 Co8_2 1_555 1_555
Ni1_3 N1_2 1_555 1_555
P1_2 O14 1_555 1_555
N1_2 C1_2 1_555 1_555
O17 P1_2 1_555 1_555
O3_2 P1_2 1_555 1_555
C1_2 C2_2 1_555 1_555
C2_2 H1_2 1_555 1_555
C3_2 C2_2 1_555 1_555
H2_2 C3_2 1_555 1_555
C4_3 N1_2 1_555 1_555
C5_2 C4_3 1_555 1_555
C6_2 C5_2 1_555 1_555
C7_2 C6_2 1_555 1_555
H3_2 C7_2 1_555 1_555
C8_2 C7_2 1_555 1_555
H4_2 C8_2 1_555 1_555
C9_2 P1_2 1_555 1_555
C10_2 C9_2 1_555 1_555
H5_2 C10_2 1_555 1_555
C11_2 C6_2 1_555 1_555
H6_2 C11_2 1_555 1_555
P2_2 O15_2 1_555 1_555
N2_2 Ni1_3 1_555 1_555
O18_2 P2_2 1_555 1_555
O6_2 P2_2 1_555 1_555
C12_2 N2_2 1_555 1_555
C13_2 C12_2 1_555 1_555
H7_2 C13_2 1_555 1_555
C14_2 C13_2 1_555 1_555
H8_2 C14_2 1_555 1_555
C15_3 N2_2 1_555 1_555
C16_2 C1_2 1_555 1_555
C17_2 C16_2 1_555 1_555
C18_2 C17_2 1_555 1_555
H9_2 C18_2 1_555 1_555
C19_2 C18_2 1_555 1_555
H10_2 C19_2 1_555 1_555
C20_2 P2_2 1_555 1_555
C21_2 C20_2 1_555 1_555
H11_2 C21_2 1_555 1_555
C22_2 C17_2 1_555 1_555
H12_2 C22_2 1_555 1_555
P3_2 O14_2 1_555 1_555
N3_2 Ni1_3 1_555 1_555
O17_2 P3_2 1_555 1_555
O9_2 P3_2 1_555 1_555
C23_2 C5_2 1_555 1_555
C24_2 C23_2 1_555 1_555
H13_2 C24_2 1_555 1_555
C25_2 C24_2 1_555 1_555
H14_2 C25_2 1_555 1_555
C26_3 N3_2 1_555 1_555
C27_2 C26_3 1_555 1_555
C28_2 C27_2 1_555 1_555
C29_2 C28_2 1_555 1_555
H15_2 C29_2 1_555 1_555
C30_2 C29_2 1_555 1_555
H16_2 C30_2 1_555 1_555
C31_2 P3_2 1_555 1_555
C32_2 C31_2 1_555 1_555
H17_2 C32_2 1_555 1_555
C33_2 C28_2 1_555 1_555
H18_2 C33_2 1_555 1_555
P4_2 O15 1_555 1_555
N4_2 Ni1_3 1_555 1_555
O18 P4_2 1_555 1_555
O12_2 P4_2 1_555 1_555
C34_2 C27_2 1_555 1_555
C35_2 C34_2 1_555 1_555
H19_2 C35_2 1_555 1_555
C36_2 C35_2 1_555 1_555
H20_2 C36_2 1_555 1_555
C37_3 N4_2 1_555 1_555
C38_2 C12_2 1_555 1_555
C39_2 C38_2 1_555 1_555
C40_2 C39_2 1_555 1_555
H21_2 C40_2 1_555 1_555
C41_2 C40_2 1_555 1_555
H22_2 C41_2 1_555 1_555
C42_2 P4_2 1_555 1_555
C43_2 C42_2 1_555 1_555
H23_2 C43_2 1_555 1_555
C44_2 C39_2 1_555 1_555
H24_2 C44_2 1_555 1_555
C3_2 C4_3 1_555 1_555
C8_2 C9_2 1_555 1_555
C10_2 C11_2 1_555 1_555
C14_2 C15_3 1_555 1_555
C15_3 C16_2 1_555 1_555
C19_2 C20_2 1_555 1_555
C21_2 C22_2 1_555 1_555
N3_2 C23_2 1_555 1_555
C25_2 C26_3 1_555 1_555
C30_2 C31_2 1_555 1_555
C32_2 C33_2 1_555 1_555
N4_2 C34_2 1_555 1_555
C36_2 C37_3 1_555 1_555
C37_3 C38_2 1_555 1_555
C41_2 C42_2 1_555 1_555
C43_2 C44_2 1_555 1_555
O3_2 H25_3 1_555 1_555
O12_2 H26_3 1_555 1_555
O6_2 H27_3 1_555 1_555
O9_2 H28_3 1_555 1_555
O6_2 H25_4 1_555 1_555
O9_2 H26_4 1_555 1_555
O12_2 H27_4 1_555 1_555
O3_2 H28_4 1_555 1_555

#END
