
###############################################################################
#
# This file contains modified crystal structure data generated from the
# MOF subset of the Cambridge Structural Database (CSD) v543 
# hosted by the Cambridge Crystallographic Data Centre (CCDC).
#
# This work is licensed under the Creative Commons
# Attribution-NonCommercial-ShareAlike 4.0 International License.
# To view a copy of this license, visit
# http://creativecommons.org/licenses/by-nc-sa/4.0/
# or send a letter to
# Creative Commons, PO Box 1866, Mountain View, CA 94042, USA.
#
# CIF created using the CSD Python API on 29 September 2022
# The structure has been converted into the P1 space group
# The structure has a 3D framework
# The original CSD entry HIQDUJ05 is in the tetragonal crystal system
# The framework has been calculated to contain at least 10.0% void space
# The void calculation uses a probe of radius 1.32A, grid spacing 0.4
# H atom positions have been added when not included in the experimental data
#
###############################################################################

data_HIQDUJ05
_chemical_formula_moiety         '(C88 H64 Co1 N8 Ni3 O24 P8)n'
_symmetry_cell_setting           triclinic
_symmetry_space_group_name_H-M   'P 1'
_symmetry_Int_Tables_number      1
_space_group_name_Hall           'P 1'
loop_
_symmetry_equiv_pos_site_id
_symmetry_equiv_pos_as_xyz
1 x,y,z
_cell_length_a                   21.980(5)
_cell_length_b                   21.980(5)
_cell_length_c                   8.9600(17)
_cell_angle_alpha                90
_cell_angle_beta                 90
_cell_angle_gamma                90
_cell_volume                     4328.76
loop_
_atom_site_label
_atom_site_type_symbol
_atom_site_fract_x
_atom_site_fract_y
_atom_site_fract_z
Co2 Co 0.0000 0.5000 0.4292(11)
O13 O 0.0372(6) 0.5659(8) 0.036(2)
O15 O 0.0372(6) 0.4341(8) 0.536(2)
O16 O 0.0660(6) 0.5350(8) 0.311(2)
Co1 Co -0.0000 0.5000 0.9292(11)
O18 O 0.0660(6) 0.4650(8) 0.811(2)
Co5 Co 0.5000 0.0000 0.0708(11)
Co8 Co 0.5000 -0.0000 0.5708(11)
Ni1 Ni 0.5000 0.5000 0.0000
P1 P 0.9226(3) 0.4189(5) 0.1831(11)
O1 O 0.9628(6) 0.4341(8) 0.036(2)
O2 O 0.9340(6) 0.4650(8) 0.311(2)
O3 O 0.9336(7) 0.3549(9) 0.233(3)
C4 C 0.6107(5) 0.4193(5) 0.0009(19)
C5 C 0.6520(5) 0.4642(5) 0.0488(19)
C6 C 0.7169(5) 0.4504(6) 0.0692(18)
C8 C 0.8251(6) 0.4685(6) 0.020(2)
C9 C 0.8411(6) 0.4270(6) 0.1282(19)
C10 C 0.7969(6) 0.3976(6) 0.2068(19)
H5 H 0.8086 0.3687 0.2803
C11 C 0.7350(6) 0.4086(6) 0.1828(18)
H6 H 0.7052 0.3884 0.2415
N2 N 0.4251(5) 0.4519(5) 0.0090(15)
C12 C 0.3681(5) 0.4719(6) 0.044(2)
C13 C 0.3278(6) 0.4232(5) 0.0853(19)
H7 H 0.2884 0.4264 0.1279
C14 C 0.3593(5) 0.3707(6) 0.0496(19)
H8 H 0.3445 0.3302 0.0568
C18 C 0.4777(6) 0.2365(5) 0.019(2)
H9 H 0.5018 0.2468 0.1034
H10 H 0.4912 0.1440 0.0297
N3 N 0.5749(5) 0.5481(5) 0.0090(15)
C23 C 0.6319(5) 0.5281(6) 0.044(2)
C24 C 0.6722(6) 0.5768(5) 0.0853(19)
H13 H 0.7116 0.5736 0.1279
C25 C 0.6407(5) 0.6293(6) 0.0496(19)
H14 H 0.6555 0.6698 0.0568
C29 C 0.5223(6) 0.7635(5) 0.019(2)
H15 H 0.4982 0.7532 0.1034
H16 H 0.5088 0.8560 0.0297
P4 P 0.0774(3) 0.5811(5) 0.1831(11)
O12 O 0.0664(7) 0.6451(9) 0.233(3)
C37 C 0.3893(5) 0.5807(5) 0.0009(19)
C38 C 0.3480(5) 0.5358(5) 0.0488(19)
C39 C 0.2831(5) 0.5496(6) 0.0692(18)
C41 C 0.1749(6) 0.5315(6) 0.020(2)
C42 C 0.1589(6) 0.5730(6) 0.1282(19)
C43 C 0.2031(6) 0.6024(6) 0.2068(19)
H23 H 0.1914 0.6313 0.2803
C44 C 0.2650(6) 0.5914(6) 0.1828(18)
H24 H 0.2948 0.6116 0.2415
Co2_2 Co 1.0000 0.5000 0.4292(11)
Co5_2 Co 0.5000 1.0000 0.0708(11)
O14 O 0.9628(6) 0.5659(8) 0.536(2)
H25 H 0.977358 0.349549 0.257238
H28 H 0.0226422 0.650451 0.257238
Co1_2 Co 1.0000 0.5000 0.9292(11)
Ni1_2 Ni 0.5000 0.5000 1.0000
N1 N 0.5481(5) 0.4251(5) 0.9910(15)
C1 C 0.5281(6) 0.3681(5) 0.956(2)
C2 C 0.5768(5) 0.3278(6) 0.9147(19)
H1 H 0.5736 0.2884 0.8721
C3 C 0.6293(6) 0.3593(5) 0.9504(19)
H2 H 0.6698 0.3445 0.9432
C7 C 0.7635(5) 0.4777(6) 0.981(2)
H3 H 0.7532 0.5018 0.8966
H4 H 0.8560 0.4912 0.9703
P2 P 0.4189(5) 0.0774(3) 0.8169(11)
O4 O 0.4341(8) 0.0372(6) 0.964(2)
O5 O 0.4650(8) 0.0660(6) 0.689(2)
O6 O 0.3549(9) 0.0664(7) 0.767(3)
C15 C 0.4193(5) 0.3893(5) 0.9991(19)
C16 C 0.4642(5) 0.3480(5) 0.9512(19)
C17 C 0.4504(6) 0.2831(5) 0.9308(18)
C19 C 0.4685(6) 0.1749(6) 0.980(2)
C20 C 0.4270(6) 0.1589(6) 0.8718(19)
C21 C 0.3976(6) 0.2031(6) 0.7932(19)
H11 H 0.3687 0.1914 0.7197
C22 C 0.4086(6) 0.2650(6) 0.8172(18)
H12 H 0.3884 0.2948 0.7585
P3 P 0.5811(5) 0.9226(3) 0.8169(11)
O7 O 0.5659(8) 0.9628(6) 0.964(2)
O8 O 0.5350(8) 0.9340(6) 0.689(2)
O9 O 0.6451(9) 0.9336(7) 0.767(3)
C26 C 0.5807(5) 0.6107(5) 0.9991(19)
C27 C 0.5358(5) 0.6520(5) 0.9512(19)
C28 C 0.5496(6) 0.7169(5) 0.9308(18)
C30 C 0.5315(6) 0.8251(6) 0.980(2)
C31 C 0.5730(6) 0.8411(6) 0.8718(19)
C32 C 0.6024(6) 0.7969(6) 0.7932(19)
H17 H 0.6313 0.8086 0.7197
C33 C 0.5914(6) 0.7350(6) 0.8172(18)
H18 H 0.6116 0.7052 0.7585
N4 N 0.4519(5) 0.5749(5) 0.9910(15)
C34 C 0.4719(6) 0.6319(5) 0.956(2)
C35 C 0.4232(5) 0.6722(6) 0.9147(19)
H19 H 0.4264 0.7116 0.8721
C36 C 0.3707(6) 0.6407(5) 0.9504(19)
H20 H 0.3302 0.6555 0.9432
C40 C 0.2365(5) 0.5223(6) 0.981(2)
H21 H 0.2468 0.4982 0.8966
H22 H 0.1440 0.5088 0.9703
Co8_2 Co 0.5000 1.0000 0.5708(11)
O17 O 0.9340(6) 0.5350(8) 0.811(2)
H26 H 0.673613 0.922035 0.848147
H27 H 0.326387 0.0779651 0.848147
O17_2 O 0.5350(8) 0.0660(6) 0.189(2)
H26_2 H 0.922035 0.326387 0.151853
H27_2 H 0.0779651 0.673613 0.151853
O14_2 O 0.5659(8) 0.0372(6) 0.464(2)
H25_2 H 0.349549 0.0226422 0.742762
H28_2 H 0.650451 0.977358 0.742762
O18_2 O 0.4650(8) 0.9340(6) 0.189(2)
O15_2 O 0.4341(8) 0.9628(6) 0.464(2)
Ni1_3 Ni 0.5000 0.5000 0.5000
P1_2 P 0.9226(3) 0.5811(5) 0.6831(11)
N1_2 N 0.5481(5) 0.5749(5) 0.4910(15)
O3_2 O 0.9336(7) 0.6451(9) 0.733(3)
C1_2 C 0.5281(6) 0.6319(5) 0.456(2)
C2_2 C 0.5768(5) 0.6722(6) 0.4147(19)
H1_2 H 0.5736 0.7116 0.3721
C3_2 C 0.6293(6) 0.6407(5) 0.4504(19)
H2_2 H 0.6698 0.6555 0.4432
C4_2 C 0.6107(5) 0.5807(5) 0.5009(19)
C5_2 C 0.6520(5) 0.5358(5) 0.5488(19)
C6_2 C 0.7169(5) 0.5496(6) 0.5692(18)
C7_2 C 0.7635(5) 0.5223(6) 0.481(2)
H3_2 H 0.7532 0.4982 0.3966
C8_2 C 0.8251(6) 0.5315(6) 0.520(2)
H4_2 H 0.8560 0.5088 0.4703
C9_2 C 0.8411(6) 0.5730(6) 0.6282(19)
C10_2 C 0.7969(6) 0.6024(6) 0.7068(19)
H5_2 H 0.8086 0.6313 0.7803
C11_2 C 0.7350(6) 0.5914(6) 0.6828(18)
H6_2 H 0.7052 0.6116 0.7415
P2_2 P 0.4189(5) 0.9226(3) 0.3169(11)
N2_2 N 0.4251(5) 0.5481(5) 0.5090(15)
O6_2 O 0.3549(9) 0.9336(7) 0.267(3)
C12_2 C 0.3681(5) 0.5281(6) 0.544(2)
C13_2 C 0.3278(6) 0.5768(5) 0.5853(19)
H7_2 H 0.2884 0.5736 0.6279
C14_2 C 0.3593(5) 0.6293(6) 0.5496(19)
H8_2 H 0.3445 0.6698 0.5568
C15_2 C 0.4193(5) 0.6107(5) 0.4991(19)
C16_2 C 0.4642(5) 0.6520(5) 0.4512(19)
C17_2 C 0.4504(6) 0.7169(5) 0.4308(18)
C18_2 C 0.4777(6) 0.7635(5) 0.519(2)
H9_2 H 0.5018 0.7532 0.6034
C19_2 C 0.4685(6) 0.8251(6) 0.480(2)
H10_2 H 0.4912 0.8560 0.5297
C20_2 C 0.4270(6) 0.8411(6) 0.3718(19)
C21_2 C 0.3976(6) 0.7969(6) 0.2932(19)
H11_2 H 0.3687 0.8086 0.2197
C22_2 C 0.4086(6) 0.7350(6) 0.3172(18)
H12_2 H 0.3884 0.7052 0.2585
P3_2 P 0.5811(5) 0.0774(3) 0.3169(11)
N3_2 N 0.5749(5) 0.4519(5) 0.5090(15)
O9_2 O 0.6451(9) 0.0664(7) 0.267(3)
C23_2 C 0.6319(5) 0.4719(6) 0.544(2)
C24_2 C 0.6722(6) 0.4232(5) 0.5853(19)
H13_2 H 0.7116 0.4264 0.6279
C25_2 C 0.6407(5) 0.3707(6) 0.5496(19)
H14_2 H 0.6555 0.3302 0.5568
C26_2 C 0.5807(5) 0.3893(5) 0.4991(19)
C27_2 C 0.5358(5) 0.3480(5) 0.4512(19)
C28_2 C 0.5496(6) 0.2831(5) 0.4308(18)
C29_2 C 0.5223(6) 0.2365(5) 0.519(2)
H15_2 H 0.4982 0.2468 0.6034
C30_2 C 0.5315(6) 0.1749(6) 0.480(2)
H16_2 H 0.5088 0.1440 0.5297
C31_2 C 0.5730(6) 0.1589(6) 0.3718(19)
C32_2 C 0.6024(6) 0.2031(6) 0.2932(19)
H17_2 H 0.6313 0.1914 0.2197
C33_2 C 0.5914(6) 0.2650(6) 0.3172(18)
H18_2 H 0.6116 0.2948 0.2585
P4_2 P 0.0774(3) 0.4189(5) 0.6831(11)
N4_2 N 0.4519(5) 0.4251(5) 0.4910(15)
O12_2 O 0.0664(7) 0.3549(9) 0.733(3)
C34_2 C 0.4719(6) 0.3681(5) 0.456(2)
C35_2 C 0.4232(5) 0.3278(6) 0.4147(19)
H19_2 H 0.4264 0.2884 0.3721
C36_2 C 0.3707(6) 0.3593(5) 0.4504(19)
H20_2 H 0.3302 0.3445 0.4432
C37_2 C 0.3893(5) 0.4193(5) 0.5009(19)
C38_2 C 0.3480(5) 0.4642(5) 0.5488(19)
C39_2 C 0.2831(5) 0.4504(6) 0.5692(18)
C40_2 C 0.2365(5) 0.4777(6) 0.481(2)
H21_2 H 0.2468 0.5018 0.3966
C41_2 C 0.1749(6) 0.4685(6) 0.520(2)
H22_2 H 0.1440 0.4912 0.4703
C42_2 C 0.1589(6) 0.4270(6) 0.6282(19)
C43_2 C 0.2031(6) 0.3976(6) 0.7068(19)
H23_2 H 0.1914 0.3687 0.7803
C44_2 C 0.2650(6) 0.4086(6) 0.6828(18)
H24_2 H 0.2948 0.3884 0.7415
H25_3 H 0.977358 0.650451 0.757238
H26_3 H 0.673613 0.0779651 0.348147
H27_3 H 0.326387 0.922035 0.348147
H28_3 H 0.0226422 0.349549 0.757238
H25_4 H 0.349549 0.977358 0.242762
H26_4 H 0.922035 0.673613 0.651853
H27_4 H 0.0779651 0.326387 0.651853
H28_4 H 0.650451 0.0226422 0.242762
loop_
_geom_bond_atom_site_label_1
_geom_bond_atom_site_label_2
_geom_bond_site_symmetry_1
_geom_bond_site_symmetry_2
O15 Co2 1_555 1_555
O16 Co2 1_555 1_555
O18 Co1 1_555 1_555
P1 O1 1_555 1_555
O2 P1 1_555 1_555
O3 P1 1_555 1_555
C5 C4 1_555 1_555
C6 C5 1_555 1_555
C9 P1 1_555 1_555
C10 C9 1_555 1_555
H5 C10 1_555 1_555
C11 C6 1_555 1_555
H6 C11 1_555 1_555
N2 Ni1 1_555 1_555
C12 N2 1_555 1_555
C13 C12 1_555 1_555
H7 C13 1_555 1_555
C14 C13 1_555 1_555
H8 C14 1_555 1_555
H9 C18 1_555 1_555
N3 Ni1 1_555 1_555
C23 C5 1_555 1_555
C24 C23 1_555 1_555
H13 C24 1_555 1_555
C25 C24 1_555 1_555
H14 C25 1_555 1_555
H15 C29 1_555 1_555
P4 O13 1_555 1_555
O16 P4 1_555 1_555
O12 P4 1_555 1_555
C38 C12 1_555 1_555
C39 C38 1_555 1_555
C42 P4 1_555 1_555
C43 C42 1_555 1_555
H23 C43 1_555 1_555
C44 C39 1_555 1_555
H24 C44 1_555 1_555
Co2_2 O2 1_555 1_555
O14 Co2_2 1_555 1_555
C8 C9 1_555 1_555
C10 C11 1_555 1_555
N3 C23 1_555 1_555
C37 C38 1_555 1_555
C41 C42 1_555 1_555
C43 C44 1_555 1_555
O3 H25 1_555 1_555
O12 H28 1_555 1_555
Ni1_2 N1 1_555 1_555
N1 C1 1_555 1_555
C1 C2 1_555 1_555
C2 H1 1_555 1_555
C3 C2 1_555 1_555
H2 C3 1_555 1_555
H3 C7 1_555 1_555
P2 O4 1_555 1_555
O5 P2 1_555 1_555
O6 P2 1_555 1_555
C16 C1 1_555 1_555
C17 C16 1_555 1_555
C20 P2 1_555 1_555
C21 C20 1_555 1_555
H11 C21 1_555 1_555
C22 C17 1_555 1_555
H12 C22 1_555 1_555
P3 O7 1_555 1_555
O8 P3 1_555 1_555
O9 P3 1_555 1_555
C27 C26 1_555 1_555
C28 C27 1_555 1_555
C31 P3 1_555 1_555
C32 C31 1_555 1_555
H17 C32 1_555 1_555
C33 C28 1_555 1_555
H18 C33 1_555 1_555
N4 Ni1_2 1_555 1_555
C34 C27 1_555 1_555
C35 C34 1_555 1_555
H19 C35 1_555 1_555
C36 C35 1_555 1_555
H20 C36 1_555 1_555
H21 C40 1_555 1_555
Co8 O5 1_555 1_555
Co8_2 O8 1_555 1_555
O17 Co1_2 1_555 1_555
C15 C16 1_555 1_555
C19 C20 1_555 1_555
C21 C22 1_555 1_555
C30 C31 1_555 1_555
C32 C33 1_555 1_555
N4 C34 1_555 1_555
O9 H26 1_555 1_555
O6 H27 1_555 1_555
O17_2 Co5 1_555 1_555
O3 H26_2 1_555 1_555
O12 H27_2 1_555 1_555
O14_2 Co8 1_555 1_555
O6 H25_2 1_555 1_555
O9 H28_2 1_555 1_555
O18_2 Co5_2 1_555 1_555
O15_2 Co8_2 1_555 1_555
Ni1_3 N1_2 1_555 1_555
P1_2 O14 1_555 1_555
N1_2 C1_2 1_555 1_555
O17 P1_2 1_555 1_555
O3_2 P1_2 1_555 1_555
C1_2 C2_2 1_555 1_555
C2_2 H1_2 1_555 1_555
C3_2 C2_2 1_555 1_555
H2_2 C3_2 1_555 1_555
C4_2 N1_2 1_555 1_555
C5_2 C4_2 1_555 1_555
C6_2 C5_2 1_555 1_555
C7_2 C6_2 1_555 1_555
H3_2 C7_2 1_555 1_555
C8_2 C7_2 1_555 1_555
H4_2 C8_2 1_555 1_555
C9_2 P1_2 1_555 1_555
C10_2 C9_2 1_555 1_555
H5_2 C10_2 1_555 1_555
C11_2 C6_2 1_555 1_555
H6_2 C11_2 1_555 1_555
P2_2 O15_2 1_555 1_555
N2_2 Ni1_3 1_555 1_555
O18_2 P2_2 1_555 1_555
O6_2 P2_2 1_555 1_555
C12_2 N2_2 1_555 1_555
C13_2 C12_2 1_555 1_555
H7_2 C13_2 1_555 1_555
C14_2 C13_2 1_555 1_555
H8_2 C14_2 1_555 1_555
C15_2 N2_2 1_555 1_555
C16_2 C1_2 1_555 1_555
C17_2 C16_2 1_555 1_555
C18_2 C17_2 1_555 1_555
H9_2 C18_2 1_555 1_555
C19_2 C18_2 1_555 1_555
H10_2 C19_2 1_555 1_555
C20_2 P2_2 1_555 1_555
C21_2 C20_2 1_555 1_555
H11_2 C21_2 1_555 1_555
C22_2 C17_2 1_555 1_555
H12_2 C22_2 1_555 1_555
P3_2 O14_2 1_555 1_555
N3_2 Ni1_3 1_555 1_555
O17_2 P3_2 1_555 1_555
O9_2 P3_2 1_555 1_555
C23_2 C5_2 1_555 1_555
C24_2 C23_2 1_555 1_555
H13_2 C24_2 1_555 1_555
C25_2 C24_2 1_555 1_555
H14_2 C25_2 1_555 1_555
C26_2 N3_2 1_555 1_555
C27_2 C26_2 1_555 1_555
C28_2 C27_2 1_555 1_555
C29_2 C28_2 1_555 1_555
H15_2 C29_2 1_555 1_555
C30_2 C29_2 1_555 1_555
H16_2 C30_2 1_555 1_555
C31_2 P3_2 1_555 1_555
C32_2 C31_2 1_555 1_555
H17_2 C32_2 1_555 1_555
C33_2 C28_2 1_555 1_555
H18_2 C33_2 1_555 1_555
P4_2 O15 1_555 1_555
N4_2 Ni1_3 1_555 1_555
O18 P4_2 1_555 1_555
O12_2 P4_2 1_555 1_555
C34_2 C27_2 1_555 1_555
C35_2 C34_2 1_555 1_555
H19_2 C35_2 1_555 1_555
C36_2 C35_2 1_555 1_555
H20_2 C36_2 1_555 1_555
C37_2 N4_2 1_555 1_555
C38_2 C12_2 1_555 1_555
C39_2 C38_2 1_555 1_555
C40_2 C39_2 1_555 1_555
H21_2 C40_2 1_555 1_555
C41_2 C40_2 1_555 1_555
H22_2 C41_2 1_555 1_555
C42_2 P4_2 1_555 1_555
C43_2 C42_2 1_555 1_555
H23_2 C43_2 1_555 1_555
C44_2 C39_2 1_555 1_555
H24_2 C44_2 1_555 1_555
C3_2 C4_2 1_555 1_555
C8_2 C9_2 1_555 1_555
C10_2 C11_2 1_555 1_555
C14_2 C15_2 1_555 1_555
C15_2 C16_2 1_555 1_555
C19_2 C20_2 1_555 1_555
C21_2 C22_2 1_555 1_555
N3_2 C23_2 1_555 1_555
C25_2 C26_2 1_555 1_555
C30_2 C31_2 1_555 1_555
C32_2 C33_2 1_555 1_555
N4_2 C34_2 1_555 1_555
C36_2 C37_2 1_555 1_555
C37_2 C38_2 1_555 1_555
C41_2 C42_2 1_555 1_555
C43_2 C44_2 1_555 1_555
O3_2 H25_3 1_555 1_555
O9_2 H26_3 1_555 1_555
O6_2 H27_3 1_555 1_555
O12_2 H28_3 1_555 1_555
O6_2 H25_4 1_555 1_555
O3_2 H26_4 1_555 1_555
O12_2 H27_4 1_555 1_555
O9_2 H28_4 1_555 1_555

#END
