
###############################################################################
#
# This file contains modified crystal structure data generated from the
# MOF subset of the Cambridge Structural Database (CSD) v543 
# hosted by the Cambridge Crystallographic Data Centre (CCDC).
#
# This work is licensed under the Creative Commons
# Attribution-NonCommercial-ShareAlike 4.0 International License.
# To view a copy of this license, visit
# http://creativecommons.org/licenses/by-nc-sa/4.0/
# or send a letter to
# Creative Commons, PO Box 1866, Mountain View, CA 94042, USA.
#
# CIF created using the CSD Python API on 29 September 2022
# The structure has been converted into the P1 space group
# The structure has a 3D framework
# The original CSD entry HIQJOI is in the orthorhombic crystal system
# The framework has been calculated to contain at least 10.0% void space
# The void calculation uses a probe of radius 1.32A, grid spacing 0.4
# The framework is charged, counterions have been retained in the structure
#
###############################################################################

data_HIQJOI
_chemical_formula_moiety         '(C56 H28 O71 P28 Zn14 4-)n'
_symmetry_cell_setting           triclinic
_symmetry_space_group_name_H-M   'P 1'
_symmetry_Int_Tables_number      1
_space_group_name_Hall           'P 1'
loop_
_symmetry_equiv_pos_site_id
_symmetry_equiv_pos_as_xyz
1 x,y,z
_cell_length_a                   8.472(3)
_cell_length_b                   16.208(7)
_cell_length_c                   19.816(8)
_cell_angle_alpha                90
_cell_angle_beta                 90
_cell_angle_gamma                90
_cell_volume                     2721.02
loop_
_atom_site_label
_atom_site_type_symbol
_atom_site_fract_x
_atom_site_fract_y
_atom_site_fract_z
Zn1 Zn 0.39351(5) 0.25344(3) 0.41267(2)
O1 O 0.2496(3) 0.30770(16) 0.35364(12)
P1 P 0.13154(11) 0.37815(6) 0.36144(5)
C1 C 0.1768(4) 0.4326(2) 0.43834(18)
Zn2 Zn -0.0000 0.5000 0.2500
O2 O 0.1494(3) 0.43752(16) 0.30284(13)
P2 P 0.34688(16) 0.65555(8) 0.5000
C2 C 0.2445(4) 0.5110(2) 0.43896(19)
H1 H 0.2687 0.5369 0.3984
C3 C 0.2762(6) 0.5508(3) 0.5000
O4 O 0.1990(4) 0.7137(2) 0.5000
C4 C 0.1414(6) 0.3959(3) 0.5000
H2 H 0.0921 0.3446 0.5000
O5 O 0.4381(3) 0.67028(15) 0.56410(13)
O6 O 0.2496(3) 0.30770(16) 0.64636(12)
P3 P 0.13154(11) 0.37815(6) 0.63856(5)
C5 C 0.1768(4) 0.4326(2) 0.56166(18)
O7 O 0.1494(3) 0.43752(16) 0.69716(13)
C6 C 0.2445(4) 0.5110(2) 0.56104(19)
H3 H 0.2687 0.5369 0.6016
O9 O 0.4381(3) 0.67028(15) 0.43590(13)
O12 O 0.0357(3) 0.65548(16) 0.36706(13)
O17 O 0.0357(3) 0.65548(16) 0.63294(13)
Zn5 Zn 0.10649(5) 0.75344(3) 0.58733(2)
Zn7 Zn 0.60649(5) 0.74656(3) 0.41267(2)
Zn10 Zn 0.60649(5) 0.74656(3) 0.58733(2)
Zn12 Zn 0.39351(5) 0.25344(3) 0.58733(2)
Zn13 Zn 0.10649(5) 0.75344(3) 0.41267(2)
O19 O 0.2504(3) 0.80770(16) 0.64636(12)
Zn14 Zn -0.0000 0.5000 0.7500
O22 O 0.1494(3) 0.56248(16) 0.19716(13)
O23 O 0.4643(3) 0.15548(16) 0.36706(13)
O25 O 0.3010(4) 0.2137(2) 0.5000
O27 O 0.0619(3) 0.17028(15) 0.43590(13)
O28 O 0.5619(3) 0.32972(15) 0.43590(13)
Zn2_2 Zn 1.0000 0.5000 0.2500
O3 O 0.9643(3) 0.34452(16) 0.36706(13)
O8 O 0.9643(3) 0.34452(16) 0.63294(13)
O10 O 0.7504(3) 0.69230(16) 0.35364(12)
P4 P 0.86846(11) 0.62185(6) 0.36144(5)
C7 C 0.8232(4) 0.5674(2) 0.43834(18)
O11 O 0.8506(3) 0.56248(16) 0.30284(13)
P5 P 0.65312(16) 0.34445(8) 0.5000
C8 C 0.7555(4) 0.4890(2) 0.43896(19)
H4 H 0.7313 0.4631 0.3984
C9 C 0.7238(6) 0.4492(3) 0.5000
O13 O 0.8010(4) 0.2863(2) 0.5000
C10 C 0.8586(6) 0.6041(3) 0.5000
H5 H 0.9079 0.6554 0.5000
O14 O 0.5619(3) 0.32972(15) 0.56410(13)
O15 O 0.7504(3) 0.69230(16) 0.64636(12)
P6 P 0.86846(11) 0.62185(6) 0.63856(5)
C11 C 0.8232(4) 0.5674(2) 0.56166(18)
O16 O 0.8506(3) 0.56248(16) 0.69716(13)
C12 C 0.7555(4) 0.4890(2) 0.56104(19)
H6 H 0.7313 0.4631 0.6016
Zn4 Zn 0.89351(5) 0.24656(3) 0.41267(2)
Zn8 Zn 0.89351(5) 0.24656(3) 0.58733(2)
O20 O 0.7496(3) 0.19230(16) 0.35364(12)
Zn14_2 Zn 1.0000 0.5000 0.7500
O21 O 0.8506(3) 0.43752(16) 0.19716(13)
O24 O 0.5357(3) 0.84452(16) 0.36706(13)
O26 O 0.6990(4) 0.7863(2) 0.5000
O30 O 0.9381(3) 0.82972(15) 0.56410(13)
O20_2 O 0.2504(3) 0.80770(16) 0.35364(12)
O30_2 O 0.0619(3) 0.17028(15) 0.56410(13)
O19_2 O 0.7496(3) 0.19230(16) 0.64636(12)
O27_2 O 0.9381(3) 0.82972(15) 0.43590(13)
Zn2_3 Zn 0.5000 0.0000 0.7500
P2_2 P 0.15312(16) 0.15555(8) 0.5000
C2_2 C 0.2555(4) 0.0110(2) 0.56104(19)
H1_2 H 0.2313 0.0369 0.6016
C3_2 C 0.2238(6) 0.0508(3) 0.5000
C6_2 C 0.2555(4) 0.0110(2) 0.43896(19)
H3_2 H 0.2313 0.0369 0.3984
P4_2 P 0.63154(11) 0.12185(6) 0.63856(5)
C7_2 C 0.6768(4) 0.0674(2) 0.56166(18)
O11_2 O 0.6494(3) 0.06248(16) 0.69716(13)
O12_2 O 0.4643(3) 0.15548(16) 0.63294(13)
C10_2 C 0.6414(6) 0.1041(3) 0.5000
H5_2 H 0.5921 0.1554 0.5000
P6_2 P 0.63154(11) 0.12185(6) 0.36144(5)
C11_2 C 0.6768(4) 0.0674(2) 0.43834(18)
O16_2 O 0.6494(3) 0.06248(16) 0.30284(13)
Zn14_3 Zn 0.5000 0.0000 0.2500
O22_2 O 0.3506(3) 0.06248(16) 0.80284(13)
P1_2 P 0.36846(11) 0.87815(6) 0.63856(5)
C1_2 C 0.3232(4) 0.9326(2) 0.56166(18)
Zn2_4 Zn 0.5000 1.0000 0.7500
O2_2 O 0.3506(3) 0.93752(16) 0.69716(13)
O3_2 O 0.5357(3) 0.84452(16) 0.63294(13)
C4_2 C 0.3586(6) 0.8959(3) 0.5000
H2_2 H 0.4079 0.8446 0.5000
P3_2 P 0.36846(11) 0.87815(6) 0.36144(5)
C5_2 C 0.3232(4) 0.9326(2) 0.43834(18)
O7_2 O 0.3506(3) 0.93752(16) 0.30284(13)
P5_2 P 0.84688(16) 0.84445(8) 0.5000
C8_2 C 0.7445(4) 0.9890(2) 0.56104(19)
H4_2 H 0.7687 0.9631 0.6016
C9_2 C 0.7762(6) 0.9492(3) 0.5000
C12_2 C 0.7445(4) 0.9890(2) 0.43896(19)
H6_2 H 0.7687 0.9631 0.3984
Zn14_4 Zn 0.5000 1.0000 0.2500
O21_2 O 0.6494(3) 0.93752(16) 0.80284(13)
Zn10_2 Zn 0.10649(5) 0.24656(3) 0.08733(2)
Zn7_2 Zn 0.10649(5) 0.24656(3) 0.91267(2)
O28_2 O 0.0619(3) 0.82972(15) 0.93590(13)
P2_3 P 0.84688(16) 0.15555(8) 0.0000
C3_3 C 0.7762(6) 0.0508(3) 0.0000
O4_2 O 0.6990(4) 0.2137(2) 0.0000
O5_2 O 0.9381(3) 0.17028(15) 0.06410(13)
C6_3 C 0.7445(4) 0.0110(2) 0.06104(19)
H3_3 H 0.7687 0.0369 0.1016
C10_3 C 0.3586(6) 0.1041(3) 0.0000
H5_3 H 0.4079 0.1554 0.0000
O15_2 O 0.2504(3) 0.19230(16) 0.14636(12)
P6_3 P 0.36846(11) 0.12185(6) 0.13856(5)
C11_3 C 0.3232(4) 0.0674(2) 0.06166(18)
O16_3 O 0.3506(3) 0.06248(16) 0.19716(13)
O17_2 O 0.5357(3) 0.15548(16) 0.13294(13)
Zn5_2 Zn 0.60649(5) 0.25344(3) 0.08733(2)
O19_3 O 0.7504(3) 0.30770(16) 0.14636(12)
O26_2 O 0.1990(4) 0.2863(2) 0.0000
O30_3 O 0.4381(3) 0.32972(15) 0.06410(13)
P2_4 P 0.84688(16) 0.15555(8) 1.0000
C2_3 C 0.7445(4) 0.0110(2) 0.93896(19)
H1_3 H 0.7687 0.0369 0.8984
C3_4 C 0.7762(6) 0.0508(3) 1.0000
O4_3 O 0.6990(4) 0.2137(2) 1.0000
O9_2 O 0.9381(3) 0.17028(15) 0.93590(13)
O10_2 O 0.2504(3) 0.19230(16) 0.85364(12)
P4_3 P 0.36846(11) 0.12185(6) 0.86144(5)
C7_3 C 0.3232(4) 0.0674(2) 0.93834(18)
O12_3 O 0.5357(3) 0.15548(16) 0.86706(13)
C10_4 C 0.3586(6) 0.1041(3) 1.0000
H5_4 H 0.4079 0.1554 1.0000
Zn13_2 Zn 0.60649(5) 0.25344(3) 0.91267(2)
O24_2 O 0.0357(3) 0.34452(16) 0.86706(13)
O26_3 O 0.1990(4) 0.2863(2) 1.0000
C4_3 C 0.6414(6) 0.8959(3) 0.0000
H2_3 H 0.5921 0.8446 0.0000
O6_2 O 0.7496(3) 0.80770(16) 0.14636(12)
P3_3 P 0.63154(11) 0.87815(6) 0.13856(5)
C5_3 C 0.6768(4) 0.9326(2) 0.06166(18)
O7_3 O 0.6494(3) 0.93752(16) 0.19716(13)
O8_2 O 0.4643(3) 0.84452(16) 0.13294(13)
P5_3 P 0.15312(16) 0.84445(8) 0.0000
C9_3 C 0.2238(6) 0.9492(3) 0.0000
O13_2 O 0.3010(4) 0.7863(2) 0.0000
O14_2 O 0.0619(3) 0.82972(15) 0.06410(13)
C12_3 C 0.2555(4) 0.9890(2) 0.06104(19)
H6_3 H 0.2313 0.9631 0.1016
Zn8_2 Zn 0.39351(5) 0.74656(3) 0.08733(2)
Zn12_2 Zn 0.89351(5) 0.75344(3) 0.08733(2)
O25_2 O 0.8010(4) 0.7137(2) 0.0000
Zn1_2 Zn 0.89351(5) 0.75344(3) 0.91267(2)
O1_2 O 0.7496(3) 0.80770(16) 0.85364(12)
P1_3 P 0.63154(11) 0.87815(6) 0.86144(5)
C1_3 C 0.6768(4) 0.9326(2) 0.93834(18)
O3_3 O 0.4643(3) 0.84452(16) 0.86706(13)
C4_4 C 0.6414(6) 0.8959(3) 1.0000
H2_4 H 0.5921 0.8446 1.0000
P5_4 P 0.15312(16) 0.84445(8) 1.0000
C8_3 C 0.2555(4) 0.9890(2) 0.93896(19)
H4_3 H 0.2313 0.9631 0.8984
C9_4 C 0.2238(6) 0.9492(3) 1.0000
O13_3 O 0.3010(4) 0.7863(2) 1.0000
Zn4_2 Zn 0.39351(5) 0.74656(3) 0.91267(2)
O20_3 O 0.2496(3) 0.69230(16) 0.85364(12)
O23_2 O 0.9643(3) 0.65548(16) 0.86706(13)
O25_3 O 0.8010(4) 0.7137(2) 1.0000
O27_3 O 0.5619(3) 0.67028(15) 0.93590(13)
O20_4 O 0.7504(3) 0.30770(16) 0.85364(12)
O27_4 O 0.4381(3) 0.32972(15) 0.93590(13)
O19_4 O 0.2496(3) 0.69230(16) 0.14636(12)
O30_4 O 0.5619(3) 0.67028(15) 0.06410(13)
O3_4 O 0.0357(3) 0.34452(16) 0.13294(13)
P4_4 P 0.13154(11) 0.62185(6) 0.13856(5)
C7_4 C 0.1768(4) 0.5674(2) 0.06166(18)
P5_5 P 0.34688(16) 0.34445(8) 0.0000
C8_4 C 0.2445(4) 0.4890(2) 0.06104(19)
H4_4 H 0.2687 0.4631 0.1016
C9_5 C 0.2762(6) 0.4492(3) 0.0000
C10_5 C 0.1414(6) 0.6041(3) 0.0000
H5_5 H 0.0921 0.6554 0.0000
P5_6 P 0.34688(16) 0.34445(8) 1.0000
C9_6 C 0.2762(6) 0.4492(3) 1.0000
C10_6 C 0.1414(6) 0.6041(3) 1.0000
H5_6 H 0.0921 0.6554 1.0000
P6_4 P 0.13154(11) 0.62185(6) 0.86144(5)
C11_4 C 0.1768(4) 0.5674(2) 0.93834(18)
O16_4 O 0.1494(3) 0.56248(16) 0.80284(13)
C12_4 C 0.2445(4) 0.4890(2) 0.93896(19)
H6_4 H 0.2687 0.4631 0.8984
P1_4 P 0.86846(11) 0.37815(6) 0.13856(5)
C1_4 C 0.8232(4) 0.4326(2) 0.06166(18)
P2_5 P 0.65312(16) 0.65555(8) 0.0000
C2_4 C 0.7555(4) 0.5110(2) 0.06104(19)
H1_4 H 0.7313 0.5369 0.1016
C3_5 C 0.7238(6) 0.5508(3) 0.0000
C4_5 C 0.8586(6) 0.3959(3) 0.0000
H2_5 H 0.9079 0.3446 0.0000
O12_4 O 0.9643(3) 0.65548(16) 0.13294(13)
P2_6 P 0.65312(16) 0.65555(8) 1.0000
C3_6 C 0.7238(6) 0.5508(3) 1.0000
C4_6 C 0.8586(6) 0.3959(3) 1.0000
H2_6 H 0.9079 0.3446 1.0000
P3_4 P 0.86846(11) 0.37815(6) 0.86144(5)
C5_4 C 0.8232(4) 0.4326(2) 0.93834(18)
O7_4 O 0.8506(3) 0.43752(16) 0.80284(13)
C6_4 C 0.7555(4) 0.5110(2) 0.93896(19)
H3_4 H 0.7313 0.5369 0.8984
loop_
_geom_bond_atom_site_label_1
_geom_bond_atom_site_label_2
_geom_bond_site_symmetry_1
_geom_bond_site_symmetry_2
Zn1 O1 1_555 1_555
O1 P1 1_555 1_555
P1 C1 1_555 1_555
C1 C2 1_555 1_555
Zn2 O2 1_555 1_555
O2 P1 1_555 1_555
P2 C3 1_555 1_555
C2 H1 1_555 1_555
C3 C2 1_555 1_555
O4 P2 1_555 1_555
C4 C1 1_555 1_555
H2 C4 1_555 1_555
O5 P2 1_555 1_555
O6 P3 1_555 1_555
P3 C5 1_555 1_555
C5 C4 1_555 1_555
O7 P3 1_555 1_555
C6 C3 1_555 1_555
H3 C6 1_555 1_555
O9 P2 1_555 1_555
Zn5 O4 1_555 1_555
Zn7 O9 1_555 1_555
Zn10 O5 1_555 1_555
Zn12 O6 1_555 1_555
Zn13 O4 1_555 1_555
O19 Zn5 1_555 1_555
Zn14 O7 1_555 1_555
O22 Zn2 1_555 1_555
O23 Zn1 1_555 1_555
O25 Zn1 1_555 1_555
O28 Zn1 1_555 1_555
C5 C6 1_555 1_555
O12 Zn13 1_555 1_555
O17 Zn5 1_555 1_555
Zn12 O25 1_555 1_555
Zn7 O10 1_555 1_555
O10 P4 1_555 1_555
P4 C7 1_555 1_555
C7 C8 1_555 1_555
O11 Zn2_2 1_555 1_555
P5 C9 1_555 1_555
C8 H4 1_555 1_555
C9 C8 1_555 1_555
O13 P5 1_555 1_555
C10 C7 1_555 1_555
H5 C10 1_555 1_555
O14 P5 1_555 1_555
O15 P6 1_555 1_555
P6 C11 1_555 1_555
C11 C10 1_555 1_555
O16 P6 1_555 1_555
C12 C9 1_555 1_555
H6 C12 1_555 1_555
O28 P5 1_555 1_555
Zn4 O3 1_555 1_555
Zn8 O8 1_555 1_555
Zn10 O15 1_555 1_555
Zn12 O14 1_555 1_555
O20 Zn4 1_555 1_555
O21 Zn2_2 1_555 1_555
O24 Zn7 1_555 1_555
O26 Zn7 1_555 1_555
P4 O11 1_555 1_555
O13 Zn4 1_555 1_555
O13 Zn8 1_555 1_555
C11 C12 1_555 1_555
O16 Zn14_2 1_555 1_555
Zn10 O26 1_555 1_555
O20_2 Zn13 1_555 1_555
O19_2 Zn8 1_555 1_555
P2_2 C3_2 1_555 1_555
C2_2 H1_2 1_555 1_555
C3_2 C2_2 1_555 1_555
O25 P2_2 1_555 1_555
O27 P2_2 1_555 1_555
C6_2 C3_2 1_555 1_555
H3_2 C6_2 1_555 1_555
O30_2 P2_2 1_555 1_555
O19_2 P4_2 1_555 1_555
P4_2 C7_2 1_555 1_555
O11_2 Zn2_3 1_555 1_555
O12_2 P4_2 1_555 1_555
C10_2 C7_2 1_555 1_555
H5_2 C10_2 1_555 1_555
O20 P6_2 1_555 1_555
P6_2 C11_2 1_555 1_555
C11_2 C10_2 1_555 1_555
O16_2 P6_2 1_555 1_555
O23 P6_2 1_555 1_555
O22_2 Zn2_3 1_555 1_555
P4_2 O11_2 1_555 1_555
O12_2 Zn12 1_555 1_555
O16_2 Zn14_3 1_555 1_555
O19 P1_2 1_555 1_555
P1_2 C1_2 1_555 1_555
Zn2_4 O2_2 1_555 1_555
O2_2 P1_2 1_555 1_555
O3_2 P1_2 1_555 1_555
C4_2 C1_2 1_555 1_555
H2_2 C4_2 1_555 1_555
O20_2 P3_2 1_555 1_555
P3_2 C5_2 1_555 1_555
C5_2 C4_2 1_555 1_555
O7_2 P3_2 1_555 1_555
O24 P3_2 1_555 1_555
P5_2 C9_2 1_555 1_555
C8_2 H4_2 1_555 1_555
C9_2 C8_2 1_555 1_555
O26 P5_2 1_555 1_555
O27_2 P5_2 1_555 1_555
C12_2 C9_2 1_555 1_555
H6_2 C12_2 1_555 1_555
O30 P5_2 1_555 1_555
Zn10 O3_2 1_555 1_555
Zn14_4 O7_2 1_555 1_555
O21_2 Zn2_4 1_555 1_555
P2_3 C3_3 1_555 1_555
O4_2 P2_3 1_555 1_555
O5_2 P2_3 1_555 1_555
C6_3 C3_3 1_555 1_555
H3_3 C6_3 1_555 1_555
H5_3 C10_3 1_555 1_555
O15_2 P6_3 1_555 1_555
P6_3 C11_3 1_555 1_555
C11_3 C10_3 1_555 1_555
O16_3 P6_3 1_555 1_555
O17_2 P6_3 1_555 1_555
Zn5_2 O4_2 1_555 1_555
Zn10_2 O15_2 1_555 1_555
O19_3 Zn5_2 1_555 1_555
O30_3 Zn5_2 1_555 1_555
O16_3 Zn14_3 1_555 1_555
O17_2 Zn5_2 1_555 1_555
Zn10_2 O26_2 1_555 1_555
P2_4 C3_4 1_555 1_555
C2_3 H1_3 1_555 1_555
C3_4 C2_3 1_555 1_555
O4_3 P2_4 1_555 1_555
O9_2 P2_4 1_555 1_555
Zn7_2 O10_2 1_555 1_555
O10_2 P4_3 1_555 1_555
P4_3 C7_3 1_555 1_555
O12_3 P4_3 1_555 1_555
C10_4 C7_3 1_555 1_555
H5_4 C10_4 1_555 1_555
Zn13_2 O4_3 1_555 1_555
O24_2 Zn7_2 1_555 1_555
O26_3 Zn7_2 1_555 1_555
P4_3 O22_2 1_555 1_555
O12_3 Zn13_2 1_555 1_555
H2_3 C4_3 1_555 1_555
O6_2 P3_3 1_555 1_555
P3_3 C5_3 1_555 1_555
C5_3 C4_3 1_555 1_555
O7_3 P3_3 1_555 1_555
O8_2 P3_3 1_555 1_555
P5_3 C9_3 1_555 1_555
O13_2 P5_3 1_555 1_555
O14_2 P5_3 1_555 1_555
C12_3 C9_3 1_555 1_555
H6_3 C12_3 1_555 1_555
Zn8_2 O8_2 1_555 1_555
Zn12_2 O6_2 1_555 1_555
Zn14_4 O7_3 1_555 1_555
O13_2 Zn8_2 1_555 1_555
Zn12_2 O25_2 1_555 1_555
Zn1_2 O1_2 1_555 1_555
O1_2 P1_3 1_555 1_555
P1_3 C1_3 1_555 1_555
O21_2 P1_3 1_555 1_555
O3_3 P1_3 1_555 1_555
C4_4 C1_3 1_555 1_555
H2_4 C4_4 1_555 1_555
P5_4 C9_4 1_555 1_555
C8_3 H4_3 1_555 1_555
C9_4 C8_3 1_555 1_555
O13_3 P5_4 1_555 1_555
O28_2 P5_4 1_555 1_555
Zn4_2 O3_3 1_555 1_555
O20_3 Zn4_2 1_555 1_555
O23_2 Zn1_2 1_555 1_555
O25_3 Zn1_2 1_555 1_555
O27_3 Zn4_2 1_555 1_555
O13_3 Zn4_2 1_555 1_555
O20_4 Zn13_2 1_555 1_555
O27_4 Zn13_2 1_555 1_555
O19_4 Zn8_2 1_555 1_555
O30_4 Zn8_2 1_555 1_555
O19_4 P4_4 1_555 1_555
P4_4 C7_4 1_555 1_555
C7_4 C8_4 1_555 1_555
P5_5 C9_5 1_555 1_555
C8_4 H4_4 1_555 1_555
C9_5 C8_4 1_555 1_555
O26_2 P5_5 1_555 1_555
C10_5 C7_4 1_555 1_555
H5_5 C10_5 1_555 1_555
O30_3 P5_5 1_555 1_555
Zn10_2 O3_4 1_555 1_555
P4_4 O22 1_555 1_555
P5_6 C9_6 1_555 1_555
O26_3 P5_6 1_555 1_555
H5_6 C10_6 1_555 1_555
O27_4 P5_6 1_555 1_555
O20_3 P6_4 1_555 1_555
P6_4 C11_4 1_555 1_555
C11_4 C10_6 1_555 1_555
O16_4 P6_4 1_555 1_555
C12_4 C9_6 1_555 1_555
H6_4 C12_4 1_555 1_555
C11_4 C12_4 1_555 1_555
O16_4 Zn14 1_555 1_555
O19_3 P1_4 1_555 1_555
P1_4 C1_4 1_555 1_555
C1_4 C2_4 1_555 1_555
O21 P1_4 1_555 1_555
P2_5 C3_5 1_555 1_555
C2_4 H1_4 1_555 1_555
C3_5 C2_4 1_555 1_555
O25_2 P2_5 1_555 1_555
C4_5 C1_4 1_555 1_555
H2_5 C4_5 1_555 1_555
O30_4 P2_5 1_555 1_555
O12_4 Zn12_2 1_555 1_555
P2_6 C3_6 1_555 1_555
O25_3 P2_6 1_555 1_555
H2_6 C4_6 1_555 1_555
O27_3 P2_6 1_555 1_555
O20_4 P3_4 1_555 1_555
P3_4 C5_4 1_555 1_555
C5_4 C4_6 1_555 1_555
O7_4 P3_4 1_555 1_555
C6_4 C3_6 1_555 1_555
H3_4 C6_4 1_555 1_555
Zn14_2 O7_4 1_555 1_555
C5_4 C6_4 1_555 1_555

#END
