
###############################################################################
#
# This file contains modified crystal structure data generated from the
# MOF subset of the Cambridge Structural Database (CSD) v543 
# hosted by the Cambridge Crystallographic Data Centre (CCDC).
#
# This work is licensed under the Creative Commons
# Attribution-NonCommercial-ShareAlike 4.0 International License.
# To view a copy of this license, visit
# http://creativecommons.org/licenses/by-nc-sa/4.0/
# or send a letter to
# Creative Commons, PO Box 1866, Mountain View, CA 94042, USA.
#
# CIF created using the CSD Python API on 29 September 2022
# The structure has been converted into the P1 space group
# The structure has a 3D framework
# The original CSD entry HIQKAV is in the orthorhombic crystal system
# The framework has been calculated to contain at least 10.0% void space
# The void calculation uses a probe of radius 1.32A, grid spacing 0.4
# The framework is charged, counterions have been retained in the structure
#
###############################################################################

data_HIQKAV
_chemical_formula_moiety         '(C56 H28 O68 P28 Zn18 6-)n'
_symmetry_cell_setting           triclinic
_symmetry_space_group_name_H-M   'P 1'
_symmetry_Int_Tables_number      1
_space_group_name_Hall           'P 1'
loop_
_symmetry_equiv_pos_site_id
_symmetry_equiv_pos_as_xyz
1 x,y,z
_cell_length_a                   8.44253(17)
_cell_length_b                   16.2850(4)
_cell_length_c                   19.8132(4)
_cell_angle_alpha                90
_cell_angle_beta                 90
_cell_angle_gamma                90
_cell_volume                     2724.05
loop_
_atom_site_label
_atom_site_type_symbol
_atom_site_fract_x
_atom_site_fract_y
_atom_site_fract_z
Zn2 Zn 0 0.000 0.250
O2 O 0.0297(9) 0.1580(7) 0.1354(5)
Zn11 Zn 0.1039(3) 0.2530(2) 0.08806(13)
O24 O 0.1521(13) 0.0629(6) 0.3022(5)
O7 O 0.0297(9) 0.1580(7) 0.8646(5)
Zn9 Zn 0.1039(3) 0.2530(2) 0.91194(13)
Zn16 Zn -0 0.000 0.750
Zn2_2 Zn 0 1.000 0.250
O23 O 0.1521(13) 0.9371(6) 0.1978(5)
Zn16_2 Zn 0 1.000 0.750
Zn1 Zn 0.6039(3) 0.2470(2) 0.08806(13)
Zn2_3 Zn 1 0.000 0.250
O1 O 0.7383(12) 0.1898(7) 0.1504(6)
P1 P 0.8627(9) 0.1236(3) 0.1396(3)
C1 C 0.8195(15) 0.0665(8) 0.06102(7)
O3 O 0.8479(13) 0.0629(6) 0.1978(5)
C4 C 0.858(3) 0.1034(8) 0.000
H2 H 0.912344 0.155277 0.000
P5 P 0.3485(12) 0.1579(5) 0.000
C8 C 0.2508(14) 0.0107(8) 0.06104(7)
C9 C 0.281(3) 0.0497(9) 0.000
O13 O 0.4374(11) 0.1736(7) 0.0656(4)
O14 O 0.1980(14) 0.2092(9) 0.000
H4 H 0.278031 0.036858 0.10287
O21 O 0.5297(9) 0.3420(7) 0.1354(5)
O26 O 0.6980(14) 0.2908(9) 0.000
C4_2 C 0.858(3) 0.1034(8) 1.000
H2_2 H 0.912344 0.155277 1.000
O6 O 0.7383(12) 0.1898(7) 0.8496(6)
P3 P 0.8627(9) 0.1236(3) 0.8604(3)
C5 C 0.8195(15) 0.0665(8) 0.93898(7)
O8 O 0.8479(13) 0.0629(6) 0.8022(5)
P5_2 P 0.3485(12) 0.1579(5) 1.000
C9_2 C 0.281(3) 0.0497(9) 1.000
O14_2 O 0.1980(14) 0.2092(9) 1.000
C12 C 0.2508(14) 0.0107(8) 0.93896(7)
O18 O 0.4374(11) 0.1736(7) 0.9344(4)
H6 H 0.278031 0.036858 0.89713
Zn5 Zn 0.6039(3) 0.2470(2) 0.91194(13)
Zn16_3 Zn 1 0.000 0.750
O20 O 0.5297(9) 0.3420(7) 0.8646(5)
O26_2 O 0.6980(14) 0.2908(9) 1.000
Zn2_4 Zn 1 1.000 0.250
P2 P 0.6515(12) 0.8421(5) 0.000
C2 C 0.7492(14) 0.9893(8) 0.06104(7)
C3 C 0.719(3) 0.9503(9) 0.000
O4 O 0.5626(11) 0.8264(7) 0.0656(4)
O5 O 0.8020(14) 0.7908(9) 0.000
H1 H 0.721969 0.963142 0.10287
Zn3 Zn 0.3961(3) 0.7530(2) 0.08806(13)
O10 O 0.2617(12) 0.8102(7) 0.1504(6)
P4 P 0.1373(9) 0.8764(3) 0.1396(3)
C7 C 0.1805(15) 0.9335(8) 0.06102(7)
C10 C 0.142(3) 0.8966(8) 0.000
H5 H 0.087656 0.844723 0.000
Zn13 Zn 0.8961(3) 0.7470(2) 0.08806(13)
O22 O 0.4703(9) 0.6580(7) 0.1354(5)
O25 O 0.8479(13) 0.9371(6) 0.3022(5)
O27 O 0.3020(14) 0.7092(9) 0.000
P2_2 P 0.6515(12) 0.8421(5) 1.000
C3_2 C 0.719(3) 0.9503(9) 1.000
O5_2 O 0.8020(14) 0.7908(9) 1.000
C6 C 0.7492(14) 0.9893(8) 0.93896(7)
O9 O 0.5626(11) 0.8264(7) 0.9344(4)
H3 H 0.721969 0.963142 0.89713
C10_2 C 0.142(3) 0.8966(8) 1.000
H5_2 H 0.087656 0.844723 1.000
O15 O 0.2617(12) 0.8102(7) 0.8496(6)
P6 P 0.1373(9) 0.8764(3) 0.8604(3)
C11 C 0.1805(15) 0.9335(8) 0.93898(7)
O17 O 0.1521(13) 0.9371(6) 0.8022(5)
Zn4 Zn 0.3961(3) 0.7530(2) 0.91194(13)
Zn7 Zn 0.8961(3) 0.7470(2) 0.91194(13)
Zn16_4 Zn 1 1.000 0.750
O19 O 0.4703(9) 0.6580(7) 0.8646(5)
O27_2 O 0.3020(14) 0.7092(9) 1.000
O11 O 0.9703(9) 0.8420(7) 0.1354(5)
O16 O 0.9703(9) 0.8420(7) 0.8646(5)
P5_3 P 0.1515(12) 0.6579(5) 0.000
C9_3 C 0.219(3) 0.5497(9) 0.000
C10_3 C 0.358(3) 0.3966(8) 0.000
H5_3 H 0.412344 0.344723 0.000
O15_2 O 0.2383(12) 0.3102(7) 0.1504(6)
P6_2 P 0.3627(9) 0.3764(3) 0.1396(3)
C11_2 C 0.3195(15) 0.4335(8) 0.06102(7)
C12_2 C 0.2492(14) 0.5107(8) 0.06104(7)
O17_2 O 0.3479(13) 0.4371(6) 0.1978(5)
O18_2 O 0.0626(11) 0.6736(7) 0.0656(4)
H6_2 H 0.221969 0.536858 0.10287
Zn15 Zn 0.5 0.500 0.250
O10_2 O 0.2383(12) 0.3102(7) 0.8496(6)
P4_2 P 0.3627(9) 0.3764(3) 0.8604(3)
C7_2 C 0.3195(15) 0.4335(8) 0.93898(7)
P5_4 P 0.1515(12) 0.6579(5) 1.000
C8_2 C 0.2492(14) 0.5107(8) 0.93896(7)
O12 O 0.3479(13) 0.4371(6) 0.8022(5)
C9_4 C 0.219(3) 0.5497(9) 1.000
O13_2 O 0.0626(11) 0.6736(7) 0.9344(4)
C10_4 C 0.358(3) 0.3966(8) 1.000
H4_2 H 0.221969 0.536858 0.89713
H5_4 H 0.412344 0.344723 1.000
Zn14 Zn 0.5 0.500 0.750
P2_3 P 0.8485(12) 0.3421(5) 0.000
C3_3 C 0.781(3) 0.4503(9) 0.000
C4_3 C 0.642(3) 0.6034(8) 0.000
H2_3 H 0.587656 0.655277 0.000
O6_2 O 0.7617(12) 0.6898(7) 0.1504(6)
P3_2 P 0.6373(9) 0.6236(3) 0.1396(3)
C5_2 C 0.6805(15) 0.5665(8) 0.06102(7)
C6_2 C 0.7508(14) 0.4893(8) 0.06104(7)
O8_2 O 0.6521(13) 0.5629(6) 0.1978(5)
O9_2 O 0.9374(11) 0.3264(7) 0.0656(4)
H3_2 H 0.778031 0.463142 0.10287
O1_2 O 0.7617(12) 0.6898(7) 0.8496(6)
P1_2 P 0.6373(9) 0.6236(3) 0.8604(3)
C1_2 C 0.6805(15) 0.5665(8) 0.93898(7)
P2_4 P 0.8485(12) 0.3421(5) 1.000
C2_2 C 0.7508(14) 0.4893(8) 0.93896(7)
O3_2 O 0.6521(13) 0.5629(6) 0.8022(5)
C3_4 C 0.781(3) 0.4503(9) 1.000
O4_2 O 0.9374(11) 0.3264(7) 0.9344(4)
C4_4 C 0.642(3) 0.6034(8) 1.000
H1_2 H 0.778031 0.463142 0.89713
H2_4 H 0.587656 0.655277 1.000
O24_2 O 0.3479(13) 0.5629(6) 0.6978(5)
O25_2 O 0.6521(13) 0.4371(6) 0.6978(5)
Zn1_2 Zn 0.1039(3) 0.7470(2) 0.58806(13)
O1_3 O 0.2383(12) 0.6898(7) 0.6504(6)
P1_3 P 0.3627(9) 0.6236(3) 0.6396(3)
C1_3 C 0.3195(15) 0.5665(8) 0.56102(7)
O2_2 O 0.5297(9) 0.6580(7) 0.6354(5)
P2_5 P 0.1515(12) 0.3421(5) 0.500
C2_3 C 0.2492(14) 0.4893(8) 0.56104(7)
C3_5 C 0.219(3) 0.4503(9) 0.500
O4_3 O 0.0626(11) 0.3264(7) 0.5656(4)
C4_5 C 0.358(3) 0.6034(8) 0.500
O5_3 O 0.3020(14) 0.2908(9) 0.500
H1_3 H 0.221969 0.463142 0.60287
H2_5 H 0.412344 0.655277 0.500
O6_3 O 0.2383(12) 0.6898(7) 0.3496(6)
P3_3 P 0.3627(9) 0.6236(3) 0.3604(3)
C5_3 C 0.3195(15) 0.5665(8) 0.43898(7)
O7_2 O 0.5297(9) 0.6580(7) 0.3646(5)
C6_3 C 0.2492(14) 0.4893(8) 0.43896(7)
O8_3 O 0.3479(13) 0.5629(6) 0.3022(5)
O9_3 O 0.0626(11) 0.3264(7) 0.4344(4)
H3_3 H 0.221969 0.463142 0.39713
Zn5_2 Zn 0.1039(3) 0.7470(2) 0.41194(13)
Zn7_2 Zn 0.3961(3) 0.2470(2) 0.41194(13)
Zn9_2 Zn 0.6039(3) 0.7530(2) 0.41194(13)
Zn11_2 Zn 0.6039(3) 0.7530(2) 0.58806(13)
Zn13_2 Zn 0.3961(3) 0.2470(2) 0.58806(13)
O20_2 O 0.0297(9) 0.8420(7) 0.3646(5)
O21_2 O 0.0297(9) 0.8420(7) 0.6354(5)
O26_3 O 0.1980(14) 0.7908(9) 0.500
Zn3_2 Zn 0.8961(3) 0.2530(2) 0.58806(13)
O10_3 O 0.7617(12) 0.3102(7) 0.6504(6)
P4_3 P 0.6373(9) 0.3764(3) 0.6396(3)
C7_3 C 0.6805(15) 0.4335(8) 0.56102(7)
O11_2 O 0.4703(9) 0.3420(7) 0.6354(5)
P5_5 P 0.8485(12) 0.6579(5) 0.500
C8_3 C 0.7508(14) 0.5107(8) 0.56104(7)
C9_5 C 0.781(3) 0.5497(9) 0.500
O13_3 O 0.9374(11) 0.6736(7) 0.5656(4)
C10_5 C 0.642(3) 0.3966(8) 0.500
O14_3 O 0.6980(14) 0.7092(9) 0.500
H4_3 H 0.778031 0.536858 0.60287
H5_5 H 0.587656 0.344723 0.500
O15_3 O 0.7617(12) 0.3102(7) 0.3496(6)
P6_3 P 0.6373(9) 0.3764(3) 0.3604(3)
C11_3 C 0.6805(15) 0.4335(8) 0.43898(7)
O16_2 O 0.4703(9) 0.3420(7) 0.3646(5)
C12_3 C 0.7508(14) 0.5107(8) 0.43896(7)
O17_3 O 0.6521(13) 0.4371(6) 0.3022(5)
O18_3 O 0.9374(11) 0.6736(7) 0.4344(4)
H6_3 H 0.778031 0.536858 0.39713
Zn4_2 Zn 0.8961(3) 0.2530(2) 0.41194(13)
O19_2 O 0.9703(9) 0.1580(7) 0.3646(5)
O22_2 O 0.9703(9) 0.1580(7) 0.6354(5)
O27_3 O 0.8020(14) 0.2092(9) 0.500
O1_4 O 0.2617(12) 0.1898(7) 0.3496(6)
P1_4 P 0.1373(9) 0.1236(3) 0.3604(3)
C1_4 C 0.1805(15) 0.0665(8) 0.43898(7)
C4_6 C 0.142(3) 0.1034(8) 0.500
H2_6 H 0.087656 0.155277 0.500
O6_4 O 0.2617(12) 0.1898(7) 0.6504(6)
P3_4 P 0.1373(9) 0.1236(3) 0.6396(3)
C5_4 C 0.1805(15) 0.0665(8) 0.56102(7)
O8_4 O 0.1521(13) 0.0629(6) 0.6978(5)
P5_6 P 0.6515(12) 0.1579(5) 0.500
C8_4 C 0.7492(14) 0.0107(8) 0.43896(7)
C9_6 C 0.719(3) 0.0497(9) 0.500
O13_4 O 0.5626(11) 0.1736(7) 0.4344(4)
H4_4 H 0.721969 0.036858 0.39713
C12_4 C 0.7492(14) 0.0107(8) 0.56104(7)
O18_4 O 0.5626(11) 0.1736(7) 0.5656(4)
H6_4 H 0.721969 0.036858 0.60287
P2_6 P 0.3485(12) 0.8421(5) 0.500
C2_4 C 0.2508(14) 0.9893(8) 0.43896(7)
C3_6 C 0.281(3) 0.9503(9) 0.500
O4_4 O 0.4374(11) 0.8264(7) 0.4344(4)
H1_4 H 0.278031 0.963142 0.39713
C6_4 C 0.2508(14) 0.9893(8) 0.56104(7)
O9_4 O 0.4374(11) 0.8264(7) 0.5656(4)
H3_4 H 0.278031 0.963142 0.60287
O10_4 O 0.7383(12) 0.8102(7) 0.3496(6)
P4_4 P 0.8627(9) 0.8764(3) 0.3604(3)
C7_4 C 0.8195(15) 0.9335(8) 0.43898(7)
C10_6 C 0.858(3) 0.8966(8) 0.500
H5_6 H 0.912344 0.844723 0.500
O15_4 O 0.7383(12) 0.8102(7) 0.6504(6)
P6_4 P 0.8627(9) 0.8764(3) 0.6396(3)
C11_4 C 0.8195(15) 0.9335(8) 0.56102(7)
O17_4 O 0.8479(13) 0.9371(6) 0.6978(5)
loop_
_geom_bond_atom_site_label_1
_geom_bond_atom_site_label_2
_geom_bond_site_symmetry_1
_geom_bond_site_symmetry_2
Zn11 O2 1_555 1_555
O24 Zn2 1_555 1_555
Zn9 O7 1_555 1_555
O23 Zn2_2 1_555 1_555
Zn1 O1 1_555 1_555
Zn2_3 O3 1_555 1_555
O1 P1 1_555 1_555
P1 C1 1_555 1_555
O3 P1 1_555 1_555
C4 C1 1_555 1_555
H2 C4 1_555 1_555
P5 C9 1_555 1_555
C9 C8 1_555 1_555
O13 Zn1 1_555 1_555
O14 P5 1_555 1_555
H4 C8 1_555 1_555
Zn11 O14 1_555 1_555
O21 Zn1 1_555 1_555
O26 Zn1 1_555 1_555
P5 O13 1_555 1_555
H2_2 C4_2 1_555 1_555
O6 P3 1_555 1_555
P3 C5 1_555 1_555
C5 C4_2 1_555 1_555
O8 P3 1_555 1_555
P5_2 C9_2 1_555 1_555
O14_2 P5_2 1_555 1_555
C12 C9_2 1_555 1_555
O18 P5_2 1_555 1_555
H6 C12 1_555 1_555
Zn5 O6 1_555 1_555
Zn9 O14_2 1_555 1_555
Zn16_3 O8 1_555 1_555
O20 Zn5 1_555 1_555
O18 Zn5 1_555 1_555
Zn5 O26_2 1_555 1_555
P2 C3 1_555 1_555
C2 C3 1_555 1_555
O4 P2 1_555 1_555
O5 P2 1_555 1_555
H1 C2 1_555 1_555
Zn3 O4 1_555 1_555
O10 Zn3 1_555 1_555
P4 O10 1_555 1_555
C7 P4 1_555 1_555
O23 P4 1_555 1_555
C10 C7 1_555 1_555
H5 C10 1_555 1_555
Zn13 O5 1_555 1_555
O22 Zn3 1_555 1_555
O25 Zn2_4 1_555 1_555
O27 Zn3 1_555 1_555
P2_2 C3_2 1_555 1_555
C3_2 C6 1_555 1_555
O5_2 P2_2 1_555 1_555
O9 P2_2 1_555 1_555
H3 C6 1_555 1_555
H5_2 C10_2 1_555 1_555
O15 P6 1_555 1_555
P6 C11 1_555 1_555
C11 C10_2 1_555 1_555
O17 P6 1_555 1_555
Zn4 O9 1_555 1_555
Zn7 O5_2 1_555 1_555
Zn16_2 O17 1_555 1_555
O19 Zn4 1_555 1_555
O15 Zn4 1_555 1_555
Zn4 O27_2 1_555 1_555
Zn13 O11 1_555 1_555
Zn7 O16 1_555 1_555
P5_3 C9_3 1_555 1_555
O27 P5_3 1_555 1_555
H5_3 C10_3 1_555 1_555
O15_2 P6_2 1_555 1_555
P6_2 C11_2 1_555 1_555
C11_2 C10_3 1_555 1_555
O21 P6_2 1_555 1_555
C12_2 C9_3 1_555 1_555
O17_2 P6_2 1_555 1_555
O18_2 P5_3 1_555 1_555
H6_2 C12_2 1_555 1_555
Zn15 O17_2 1_555 1_555
O15_2 Zn11 1_555 1_555
C11_2 C12_2 1_555 1_555
O10_2 Zn9 1_555 1_555
P4_2 O10_2 1_555 1_555
C7_2 P4_2 1_555 1_555
O20 P4_2 1_555 1_555
P5_4 C9_4 1_555 1_555
C8_2 C7_2 1_555 1_555
O12 P4_2 1_555 1_555
C9_4 C8_2 1_555 1_555
C10_4 C7_2 1_555 1_555
O27_2 P5_4 1_555 1_555
H4_2 C8_2 1_555 1_555
H5_4 C10_4 1_555 1_555
Zn14 O12 1_555 1_555
P5_4 O13_2 1_555 1_555
P2_3 C3_3 1_555 1_555
C3_3 C6_2 1_555 1_555
O26 P2_3 1_555 1_555
H2_3 C4_3 1_555 1_555
O6_2 P3_2 1_555 1_555
P3_2 C5_2 1_555 1_555
C5_2 C4_3 1_555 1_555
O22 P3_2 1_555 1_555
C6_2 C5_2 1_555 1_555
O8_2 P3_2 1_555 1_555
O9_2 P2_3 1_555 1_555
H3_2 C6_2 1_555 1_555
Zn13 O6_2 1_555 1_555
Zn15 O8_2 1_555 1_555
Zn7 O1_2 1_555 1_555
Zn14 O3_2 1_555 1_555
O1_2 P1_2 1_555 1_555
P1_2 C1_2 1_555 1_555
C1_2 C2_2 1_555 1_555
O19 P1_2 1_555 1_555
P2_4 C3_4 1_555 1_555
C2_2 C3_4 1_555 1_555
O3_2 P1_2 1_555 1_555
O4_2 P2_4 1_555 1_555
C4_4 C1_2 1_555 1_555
O26_2 P2_4 1_555 1_555
H1_2 C2_2 1_555 1_555
H2_4 C4_4 1_555 1_555
O24_2 Zn14 1_555 1_555
O25_2 Zn14 1_555 1_555
Zn1_2 O1_3 1_555 1_555
O1_3 P1_3 1_555 1_555
P1_3 C1_3 1_555 1_555
C1_3 C2_3 1_555 1_555
O2_2 P1_3 1_555 1_555
P2_5 C3_5 1_555 1_555
C2_3 C3_5 1_555 1_555
O24_2 P1_3 1_555 1_555
C3_5 C6_3 1_555 1_555
O4_3 P2_5 1_555 1_555
C4_5 C1_3 1_555 1_555
O5_3 P2_5 1_555 1_555
H1_3 C2_3 1_555 1_555
H2_5 C4_5 1_555 1_555
O6_3 P3_3 1_555 1_555
P3_3 C5_3 1_555 1_555
C5_3 C4_5 1_555 1_555
O7_2 P3_3 1_555 1_555
C6_3 C5_3 1_555 1_555
O8_3 P3_3 1_555 1_555
O9_3 P2_5 1_555 1_555
H3_3 C6_3 1_555 1_555
Zn5_2 O6_3 1_555 1_555
Zn7_2 O5_3 1_555 1_555
Zn9_2 O7_2 1_555 1_555
Zn11_2 O2_2 1_555 1_555
Zn13_2 O5_3 1_555 1_555
Zn15 O8_3 1_555 1_555
O20_2 Zn5_2 1_555 1_555
O21_2 Zn1_2 1_555 1_555
O26_3 Zn1_2 1_555 1_555
Zn5_2 O26_3 1_555 1_555
O10_3 Zn3_2 1_555 1_555
P4_3 O10_3 1_555 1_555
C7_3 P4_3 1_555 1_555
O11_2 P4_3 1_555 1_555
P5_5 C9_5 1_555 1_555
C8_3 C7_3 1_555 1_555
O25_2 P4_3 1_555 1_555
C9_5 C8_3 1_555 1_555
C10_5 C7_3 1_555 1_555
O14_3 P5_5 1_555 1_555
H4_3 C8_3 1_555 1_555
H5_5 C10_5 1_555 1_555
O15_3 P6_3 1_555 1_555
P6_3 C11_3 1_555 1_555
C11_3 C10_5 1_555 1_555
O16_2 P6_3 1_555 1_555
C12_3 C9_5 1_555 1_555
O17_3 P6_3 1_555 1_555
O18_3 P5_5 1_555 1_555
H6_3 C12_3 1_555 1_555
Zn7_2 O16_2 1_555 1_555
Zn9_2 O14_3 1_555 1_555
Zn11_2 O14_3 1_555 1_555
Zn13_2 O11_2 1_555 1_555
Zn15 O17_3 1_555 1_555
O19_2 Zn4_2 1_555 1_555
O22_2 Zn3_2 1_555 1_555
O27_3 Zn3_2 1_555 1_555
P5_5 O13_3 1_555 1_555
O15_3 Zn4_2 1_555 1_555
C11_3 C12_3 1_555 1_555
Zn4_2 O27_3 1_555 1_555
Zn7_2 O1_4 1_555 1_555
O1_4 P1_4 1_555 1_555
P1_4 C1_4 1_555 1_555
O24 P1_4 1_555 1_555
C4_6 C1_4 1_555 1_555
H2_6 C4_6 1_555 1_555
O6_4 P3_4 1_555 1_555
P3_4 C5_4 1_555 1_555
C5_4 C4_6 1_555 1_555
O8_4 P3_4 1_555 1_555
P5_6 C9_6 1_555 1_555
C9_6 C8_4 1_555 1_555
O13_4 Zn7_2 1_555 1_555
O27_3 P5_6 1_555 1_555
H4_4 C8_4 1_555 1_555
C12_4 C9_6 1_555 1_555
O18_4 P5_6 1_555 1_555
H6_4 C12_4 1_555 1_555
Zn13_2 O6_4 1_555 1_555
Zn16 O8_4 1_555 1_555
P5_6 O13_4 1_555 1_555
O18_4 Zn13_2 1_555 1_555
P2_6 C3_6 1_555 1_555
C2_4 C3_6 1_555 1_555
C3_6 C6_4 1_555 1_555
O4_4 P2_6 1_555 1_555
O26_3 P2_6 1_555 1_555
H1_4 C2_4 1_555 1_555
O9_4 P2_6 1_555 1_555
H3_4 C6_4 1_555 1_555
Zn9_2 O4_4 1_555 1_555
O10_4 Zn9_2 1_555 1_555
P4_4 O10_4 1_555 1_555
C7_4 P4_4 1_555 1_555
O25 P4_4 1_555 1_555
C10_6 C7_4 1_555 1_555
H5_6 C10_6 1_555 1_555
O15_4 P6_4 1_555 1_555
P6_4 C11_4 1_555 1_555
C11_4 C10_6 1_555 1_555
O17_4 P6_4 1_555 1_555
Zn11_2 O9_4 1_555 1_555
Zn16_4 O17_4 1_555 1_555
O15_4 Zn11_2 1_555 1_555

#END
