
###############################################################################
#
# This file contains modified crystal structure data generated from the
# MOF subset of the Cambridge Structural Database (CSD) v543 
# hosted by the Cambridge Crystallographic Data Centre (CCDC).
#
# This work is licensed under the Creative Commons
# Attribution-NonCommercial-ShareAlike 4.0 International License.
# To view a copy of this license, visit
# http://creativecommons.org/licenses/by-nc-sa/4.0/
# or send a letter to
# Creative Commons, PO Box 1866, Mountain View, CA 94042, USA.
#
# CIF created using the CSD Python API on 29 September 2022
# The structure has been converted into the P1 space group
# The structure has a 3D framework
# The original CSD entry HIQLIF is in the hexagonal crystal system
# The framework has been calculated to contain at least 10.0% void space
# The void calculation uses a probe of radius 1.32A, grid spacing 0.4
#
###############################################################################

data_HIQLIF
_chemical_formula_moiety         '(C240 H192 N12 O102 Zr28)n'
_symmetry_cell_setting           triclinic
_symmetry_space_group_name_H-M   'P 1'
_symmetry_Int_Tables_number      1
_space_group_name_Hall           'P 1'
loop_
_symmetry_equiv_pos_site_id
_symmetry_equiv_pos_as_xyz
1 x,y,z
_cell_length_a                   40.9189(8)
_cell_length_b                   40.9189(8)
_cell_length_c                   15.1257(5)
_cell_angle_alpha                90
_cell_angle_beta                 90
_cell_angle_gamma                120
_cell_volume                     21932.8
loop_
_atom_site_label
_atom_site_type_symbol
_atom_site_fract_x
_atom_site_fract_y
_atom_site_fract_z
Zr4 Zr 0.534557(13) 0.06911(3) 0.0000
Zr7 Zr 0.534557(13) 0.465447(33) 0.0000
Zr2 Zr 0.456942(18) 0.0000 0.11723(4)
N1 N 0.4670(3) 0.23352(13) 0.1680(5)
H1 H 0.4642 0.2141 0.1404
O1 O 0.51842(11) 0.09990(10) 0.0852(2)
O2 O 0.46762(11) 0.05612(11) 0.1581(3)
O3 O 0.47497(12) 0.03074(11) 0.0000
O4 O 0.51621(6) 0.03243(12) 0.1091(3)
O5 O 0.45953(12) 0.0000 0.2661(3)
O6 O 0.40504(13) 0.0000 0.1087(4)
C1 C 0.4912(2) 0.0884(2) 0.1361(4)
C2 C 0.4871(2) 0.11923(17) 0.1863(4)
C3 C 0.51516(18) 0.15851(18) 0.1685(4)
H4 H 0.5362 0.1649 0.1335
C4 C 0.5090(2) 0.1863(2) 0.2064(5)
H5 H 0.5247 0.2115 0.1911
C5 C 0.4795(2) 0.1766(2) 0.2671(4)
C6 C 0.45569(17) 0.14012(17) 0.2866(4)
H6 H 0.4362 0.1340 0.3267
C7 C 0.45953(18) 0.11186(17) 0.2486(4)
H7 H 0.4431 0.0870 0.2651
C8 C 0.4756(3) 0.23780(16) 0.2634(6)
C9 C 0.4795(2) 0.20992(17) 0.3120(4)
C10 C 0.48274(18) 0.21342(15) 0.4025(4)
H8 H 0.4866 0.1960 0.4335
C11 C 0.4807(2) 0.24033(12) 0.4496(5)
N2 N 0.4670(3) 0.23348(33) 0.8320(5)
H9 H 0.4642 0.2501 0.8596
O7 O 0.51842(11) 0.41852(15) 0.9148(2)
O8 O 0.46762(11) 0.41150(16) 0.8419(3)
C12 C 0.4912(2) 0.4028(3) 0.8639(4)
C13 C 0.4871(2) 0.36787(26) 0.8137(4)
C14 C 0.51516(18) 0.35665(25) 0.8315(4)
H10 H 0.5362 0.3713 0.8665
C15 C 0.5090(2) 0.3227(3) 0.7936(5)
H11 H 0.5247 0.3132 0.8089
C16 C 0.4795(2) 0.3029(3) 0.7329(4)
C17 C 0.45569(17) 0.31557(24) 0.7134(4)
H12 H 0.4362 0.3022 0.6733
C18 C 0.45953(18) 0.34767(25) 0.7514(4)
H13 H 0.4431 0.3561 0.7349
C19 C 0.4756(3) 0.23780(34) 0.7366(6)
C20 C 0.4795(2) 0.26958(26) 0.6880(4)
C21 C 0.48274(18) 0.26932(23) 0.5975(4)
H14 H 0.4866 0.2906 0.5665
C22 C 0.4807(2) 0.24037(23) 0.5504(5)
H15 H 0.4642 0.2501 0.1404
O9 O 0.51842(11) 0.41852(15) 0.0852(2)
O10 O 0.46762(11) 0.41150(16) 0.1581(3)
C23 C 0.4912(2) 0.4028(3) 0.1361(4)
C24 C 0.4871(2) 0.36787(26) 0.1863(4)
C25 C 0.51516(18) 0.35665(25) 0.1685(4)
H16 H 0.5362 0.3713 0.1335
C26 C 0.5090(2) 0.3227(3) 0.2064(5)
H17 H 0.5247 0.3132 0.1911
C27 C 0.4795(2) 0.3029(3) 0.2671(4)
C28 C 0.45569(17) 0.31557(24) 0.2866(4)
H18 H 0.4362 0.3022 0.3267
C29 C 0.45953(18) 0.34767(25) 0.2486(4)
H19 H 0.4431 0.3561 0.2651
C30 C 0.4795(2) 0.26958(26) 0.3120(4)
C31 C 0.48274(18) 0.26932(23) 0.4025(4)
H20 H 0.4866 0.2906 0.4335
H21 H 0.4642 0.2141 0.8596
O11 O 0.51842(11) 0.09990(10) 0.9148(2)
O12 O 0.46762(11) 0.05612(11) 0.8419(3)
C32 C 0.4912(2) 0.0884(2) 0.8639(4)
C33 C 0.4871(2) 0.11923(17) 0.8137(4)
C34 C 0.51516(18) 0.15851(18) 0.8315(4)
H22 H 0.5362 0.1649 0.8665
C35 C 0.5090(2) 0.1863(2) 0.7936(5)
H23 H 0.5247 0.2115 0.8089
C36 C 0.4795(2) 0.1766(2) 0.7329(4)
C37 C 0.45569(17) 0.14012(17) 0.7134(4)
H24 H 0.4362 0.1340 0.6733
C38 C 0.45953(18) 0.11186(17) 0.7514(4)
H25 H 0.4431 0.0870 0.7349
C39 C 0.4795(2) 0.20992(17) 0.6880(4)
C40 C 0.48274(18) 0.21342(15) 0.5975(4)
H26 H 0.4866 0.1960 0.5665
H27 H 0.4572 0.0182 0.2856
H28 H 0.4066 0.0180 0.1397
Zr3 Zr 0.456942(18) 0.456942(18) 0.11723(4)
O13 O 0.44423(16) 0.47497(12) 0.0000
O14 O 0.45953(12) 0.45953(12) 0.2661(3)
H29 H 0.4572 0.4390 0.2856
O15 O 0.40504(13) 0.40504(13) 0.1087(4)
H30 H 0.4066 0.3886 0.1397
H31 H 0.4390 0.4572 0.2856
H32 H 0.3886 0.4066 0.1397
Zr4_2 Zr 0.534557(13) 0.06911(3) 1.0000
Zr5 Zr 0.465447(33) 0.534557(13) 0.0000
Zr7_2 Zr 0.534557(13) 0.465447(33) 1.0000
Zr9 Zr 0.456942(18) 0.0000 0.88277(4)
Zr10 Zr 0.543058(18) 0.0000 0.11723(4)
Zr13 Zr 0.456942(18) 0.456942(18) 0.88277(4)
O18 O 0.58148(15) 0.09990(10) 0.0852(2)
O20 O 0.41150(16) 0.46762(11) 0.1581(3)
O23 O 0.55577(16) 0.03074(11) 0.0000
O24 O 0.47497(12) 0.44423(16) 0.0000
O25 O 0.48378(13) 0.51621(6) 0.1091(3)
O27 O 0.51622(13) 0.48379(6) 0.1091(3)
O3_2 O 0.47497(12) 0.03074(11) 1.0000
O13_2 O 0.44423(16) 0.47497(12) 1.0000
O16 O 0.51622(13) 0.03243(12) 0.8909(3)
Zr5_2 Zr 0.465447(33) 0.534557(13) 1.0000
Zr11 Zr 0.543058(18) 0.0000 0.88277(4)
O17 O 0.58148(15) 0.09990(10) 0.9148(2)
O23_2 O 0.55577(16) 0.03074(11) 1.0000
O24_2 O 0.47497(12) 0.44423(16) 1.0000
Zr2_2 Zr 0.456942(18) 1.0000 0.11723(4)
O5_2 O 0.45953(12) 1.0000 0.2661(3)
H2 H 0.4390 0.9818 0.2856
O6_2 O 0.40504(13) 1.0000 0.1087(4)
H3 H 0.3886 0.9820 0.1397
Zr9_2 Zr 0.456942(18) 1.0000 0.88277(4)
Zr10_2 Zr 0.543058(18) 1.0000 0.11723(4)
O21 O 0.41150(16) 0.94388(11) 0.1581(3)
O22 O 0.44423(16) 0.96926(11) 0.0000
O26 O 0.48379(6) 0.96757(12) 0.1091(3)
Zr11_2 Zr 0.543058(18) 1.0000 0.88277(4)
O22_2 O 0.44423(16) 0.96926(11) 1.0000
Zr7_3 Zr 0.069110(35) 0.534557(13) 0.0000
N1_2 N 0.23348(33) 0.4670(3) 0.1680(5)
H1_2 H 0.2501 0.4642 0.1404
O1_2 O 0.41852(15) 0.51842(11) 0.0852(2)
C1_2 C 0.4028(3) 0.4912(2) 0.1361(4)
C2_2 C 0.36787(26) 0.4871(2) 0.1863(4)
C3_2 C 0.35665(25) 0.51516(18) 0.1685(4)
H4_2 H 0.3713 0.5362 0.1335
C4_2 C 0.3227(3) 0.5090(2) 0.2064(5)
H5_2 H 0.3132 0.5247 0.1911
C5_2 C 0.3029(3) 0.4795(2) 0.2671(4)
C6_2 C 0.31557(24) 0.45569(17) 0.2866(4)
H6_2 H 0.3022 0.4362 0.3267
C7_2 C 0.34767(25) 0.45953(18) 0.2486(4)
H7_2 H 0.3561 0.4431 0.2651
C8_2 C 0.23780(34) 0.4756(3) 0.2634(6)
C9_2 C 0.26958(26) 0.4795(2) 0.3120(4)
C10_2 C 0.26932(23) 0.48274(18) 0.4025(4)
H8_2 H 0.2906 0.4866 0.4335
C11_2 C 0.24037(23) 0.4807(2) 0.4496(5)
N2_2 N 0.23352(45) 0.4670(3) 0.8320(5)
H9_2 H 0.2141 0.4642 0.8596
O7_2 O 0.09990(19) 0.51842(11) 0.9148(2)
O8_2 O 0.05612(19) 0.46762(11) 0.8419(3)
C12_2 C 0.0884(4) 0.4912(2) 0.8639(4)
C13_2 C 0.11923(33) 0.4871(2) 0.8137(4)
C14_2 C 0.15851(31) 0.51516(18) 0.8315(4)
H10_2 H 0.1649 0.5362 0.8665
C15_2 C 0.1863(4) 0.5090(2) 0.7936(5)
H11_2 H 0.2115 0.5247 0.8089
C16_2 C 0.1766(4) 0.4795(2) 0.7329(4)
C17_2 C 0.14012(29) 0.45569(17) 0.7134(4)
H12_2 H 0.1340 0.4362 0.6733
C18_2 C 0.11186(31) 0.45953(18) 0.7514(4)
H13_2 H 0.0870 0.4431 0.7349
C19_2 C 0.23780(45) 0.4756(3) 0.7366(6)
C20_2 C 0.20992(33) 0.4795(2) 0.6880(4)
C21_2 C 0.21342(29) 0.48274(18) 0.5975(4)
H14_2 H 0.1960 0.4866 0.5665
C22_2 C 0.24033(30) 0.4807(2) 0.5504(5)
H15_2 H 0.2141 0.4642 0.1404
O9_2 O 0.09990(19) 0.51842(11) 0.0852(2)
O10_2 O 0.05612(19) 0.46762(11) 0.1581(3)
C23_2 C 0.0884(4) 0.4912(2) 0.1361(4)
C24_2 C 0.11923(33) 0.4871(2) 0.1863(4)
C25_2 C 0.15851(31) 0.51516(18) 0.1685(4)
H16_2 H 0.1649 0.5362 0.1335
C26_2 C 0.1863(4) 0.5090(2) 0.2064(5)
H17_2 H 0.2115 0.5247 0.1911
C27_2 C 0.1766(4) 0.4795(2) 0.2671(4)
C28_2 C 0.14012(29) 0.45569(17) 0.2866(4)
H18_2 H 0.1340 0.4362 0.3267
C29_2 C 0.11186(31) 0.45953(18) 0.2486(4)
H19_2 H 0.0870 0.4431 0.2651
C30_2 C 0.20992(33) 0.4795(2) 0.3120(4)
C31_2 C 0.21342(29) 0.48274(18) 0.4025(4)
H20_2 H 0.1960 0.4866 0.4335
H21_2 H 0.2501 0.4642 0.8596
O11_2 O 0.41852(15) 0.51842(11) 0.9148(2)
O12_2 O 0.41150(16) 0.46762(11) 0.8419(3)
C32_2 C 0.4028(3) 0.4912(2) 0.8639(4)
C33_2 C 0.36787(26) 0.4871(2) 0.8137(4)
C34_2 C 0.35665(25) 0.51516(18) 0.8315(4)
H22_2 H 0.3713 0.5362 0.8665
C35_2 C 0.3227(3) 0.5090(2) 0.7936(5)
H23_2 H 0.3132 0.5247 0.8089
C36_2 C 0.3029(3) 0.4795(2) 0.7329(4)
C37_2 C 0.31557(24) 0.45569(17) 0.7134(4)
H24_2 H 0.3022 0.4362 0.6733
C38_2 C 0.34767(25) 0.45953(18) 0.7514(4)
H25_2 H 0.3561 0.4431 0.7349
C39_2 C 0.26958(26) 0.4795(2) 0.6880(4)
C40_2 C 0.26932(23) 0.48274(18) 0.5975(4)
H26_2 H 0.2906 0.4866 0.5665
Zr3_2 Zr -0.000000(25) 0.456942(18) 0.11723(4)
O14_2 O -0.00000(17) 0.45953(12) 0.2661(3)
H29_2 H 0.0182 0.4572 0.2856
O15_2 O -0.00000(18) 0.40504(13) 0.1087(4)
H30_2 H 0.0180 0.4066 0.1397
Zr7_4 Zr 0.069110(35) 0.534557(13) 1.0000
Zr10_3 Zr 0.543058(18) 0.543058(18) 0.11723(4)
Zr13_2 Zr -0.000000(25) 0.456942(18) 0.88277(4)
O18_2 O 0.48158(18) 0.58148(15) 0.0852(2)
O23_3 O 0.52503(19) 0.55577(16) 0.0000
O24_3 O 0.03074(20) 0.47497(12) 0.0000
O27_2 O 0.03243(14) 0.51622(13) 0.1091(3)
O16_2 O 0.48379(18) 0.51622(13) 0.8909(3)
Zr11_3 Zr 0.543058(18) 0.543058(18) 0.88277(4)
O17_2 O 0.48158(18) 0.58148(15) 0.9148(2)
O23_4 O 0.52503(19) 0.55577(16) 1.0000
O24_4 O 0.03074(20) 0.47497(12) 1.0000
Zr3_3 Zr 1.000000(25) 0.456942(18) 0.11723(4)
O13_3 O 0.96926(20) 0.44423(16) 0.0000
O14_3 O 1.00000(17) 0.45953(12) 0.2661(3)
O15_3 O 1.00000(18) 0.40504(13) 0.1087(4)
H31_2 H 0.9818 0.4390 0.2856
H32_2 H 0.9820 0.3886 0.1397
Zr5_3 Zr 0.930890(35) 0.465447(33) 0.0000
Zr13_3 Zr 1.000000(25) 0.456942(18) 0.88277(4)
O20_2 O 0.94388(19) 0.41150(16) 0.1581(3)
O25_2 O 0.96757(14) 0.48378(13) 0.1091(3)
O13_4 O 0.96926(20) 0.44423(16) 1.0000
Zr5_4 Zr 0.930890(35) 0.465447(33) 1.0000
Zr8 Zr -0.0000 0.543058(18) 0.11723(4)
O22_3 O 0.03074(11) 0.55577(16) 0.0000
Zr2_3 Zr -0.0000 0.543058(18) 0.88277(4)
O5_3 O -0.0000 0.54047(12) 0.7339(3)
H2_2 H 0.0182 0.5610 0.7144
O6_3 O 0.0000 0.59496(13) 0.8913(4)
H3_2 H 0.0180 0.6114 0.8603
O21_2 O 0.05612(11) 0.58850(16) 0.8419(3)
O22_4 O 0.03074(11) 0.55577(16) 1.0000
O26_2 O 0.03243(12) 0.51621(6) 0.8909(3)
O3_3 O 0.96926(11) 0.52503(12) 0.0000
Zr8_2 Zr 1.0000 0.543058(18) 0.11723(4)
O17_3 O 0.90010(10) 0.41852(15) 0.0852(2)
O19 O 0.90010(10) 0.48158(11) 0.0852(2)
O24_5 O 0.55577(16) 0.52503(12) 0.0000
Zr2_4 Zr 1.0000 0.543058(18) 0.88277(4)
N1_3 N 0.76648(13) 0.5330(3) 0.8320(5)
H1_3 H 0.7859 0.5358 0.8596
O1_3 O 0.90010(10) 0.48158(11) 0.9148(2)
O2_2 O 0.94388(11) 0.53238(11) 0.8419(3)
O3_4 O 0.96926(11) 0.52503(12) 1.0000
O4_2 O 0.96757(12) 0.48379(6) 0.8909(3)
O5_4 O 1.0000 0.54047(12) 0.7339(3)
O6_4 O 1.0000 0.59496(13) 0.8913(4)
C1_3 C 0.9116(2) 0.5088(2) 0.8639(4)
C2_3 C 0.88077(17) 0.5129(2) 0.8137(4)
C3_3 C 0.84149(18) 0.48484(18) 0.8315(4)
H4_3 H 0.8351 0.4638 0.8665
C4_3 C 0.8137(2) 0.4910(2) 0.7936(5)
H5_3 H 0.7885 0.4753 0.8089
C5_3 C 0.8234(2) 0.5205(2) 0.7329(4)
C6_3 C 0.85988(17) 0.54431(17) 0.7134(4)
H6_3 H 0.8660 0.5638 0.6733
C7_3 C 0.88814(17) 0.54047(18) 0.7514(4)
H7_3 H 0.9130 0.5569 0.7349
C8_3 C 0.76220(16) 0.5244(3) 0.7366(6)
C9_3 C 0.79008(17) 0.5205(2) 0.6880(4)
C10_3 C 0.78658(15) 0.51726(18) 0.5975(4)
H8_3 H 0.8040 0.5134 0.5665
C11_3 C 0.75967(12) 0.5193(2) 0.5504(5)
N2_3 N 0.76652(33) 0.5330(3) 0.1680(5)
H9_3 H 0.7499 0.5358 0.1404
O7_3 O 0.58148(15) 0.48158(11) 0.0852(2)
O8_3 O 0.58850(16) 0.53238(11) 0.1581(3)
C12_3 C 0.5972(3) 0.5088(2) 0.1361(4)
C13_3 C 0.63213(26) 0.5129(2) 0.1863(4)
C14_3 C 0.64335(25) 0.48484(18) 0.1685(4)
H10_3 H 0.6287 0.4638 0.1335
C15_3 C 0.6773(3) 0.4910(2) 0.2064(5)
H11_3 H 0.6868 0.4753 0.1911
C16_3 C 0.6971(3) 0.5205(2) 0.2671(4)
C17_3 C 0.68443(24) 0.54431(17) 0.2866(4)
H12_3 H 0.6978 0.5638 0.3267
C18_3 C 0.65233(25) 0.54047(18) 0.2486(4)
H13_3 H 0.6439 0.5569 0.2651
C19_3 C 0.76220(34) 0.5244(3) 0.2634(6)
C20_3 C 0.73042(26) 0.5205(2) 0.3120(4)
C21_3 C 0.73068(23) 0.51726(18) 0.4025(4)
H14_3 H 0.7094 0.5134 0.4335
C22_3 C 0.75963(23) 0.5193(2) 0.4496(5)
H15_3 H 0.7499 0.5358 0.8596
O9_3 O 0.58148(15) 0.48158(11) 0.9148(2)
O10_3 O 0.58850(16) 0.53238(11) 0.8419(3)
C23_3 C 0.5972(3) 0.5088(2) 0.8639(4)
C24_3 C 0.63213(26) 0.5129(2) 0.8137(4)
C25_3 C 0.64335(25) 0.48484(18) 0.8315(4)
H16_3 H 0.6287 0.4638 0.8665
C26_3 C 0.6773(3) 0.4910(2) 0.7936(5)
H17_3 H 0.6868 0.4753 0.8089
C27_3 C 0.6971(3) 0.5205(2) 0.7329(4)
C28_3 C 0.68443(24) 0.54431(17) 0.7134(4)
H18_3 H 0.6978 0.5638 0.6733
C29_3 C 0.65233(25) 0.54047(18) 0.7514(4)
H19_3 H 0.6439 0.5569 0.7349
C30_3 C 0.73042(26) 0.5205(2) 0.6880(4)
C31_3 C 0.73068(23) 0.51726(18) 0.5975(4)
H20_3 H 0.7094 0.5134 0.5665
H21_3 H 0.7859 0.5358 0.1404
O12_3 O 0.94388(11) 0.53238(11) 0.1581(3)
C32_3 C 0.9116(2) 0.5088(2) 0.1361(4)
C33_3 C 0.88077(17) 0.5129(2) 0.1863(4)
C34_3 C 0.84149(18) 0.48484(18) 0.1685(4)
H22_3 H 0.8351 0.4638 0.1335
C35_3 C 0.8137(2) 0.4910(2) 0.2064(5)
H23_3 H 0.7885 0.4753 0.1911
C36_3 C 0.8234(2) 0.5205(2) 0.2671(4)
C37_3 C 0.85988(17) 0.54431(17) 0.2866(4)
H24_3 H 0.8660 0.5638 0.3267
C38_3 C 0.88814(17) 0.54047(18) 0.2486(4)
H25_3 H 0.9130 0.5569 0.2651
C39_3 C 0.79008(17) 0.5205(2) 0.3120(4)
C40_3 C 0.78658(15) 0.51726(18) 0.4025(4)
H26_3 H 0.8040 0.5134 0.4335
H27_2 H 0.9818 0.5428 0.7144
H28_2 H 0.9820 0.5934 0.8603
O14_4 O 0.54047(12) 0.54047(12) 0.7339(3)
H29_3 H 0.5610 0.5428 0.7144
O15_4 O 0.59496(13) 0.59496(13) 0.8913(4)
H30_3 H 0.6114 0.5934 0.8603
H31_3 H 0.5428 0.5610 0.7144
H32_3 H 0.5934 0.6114 0.8603
O18_3 O 0.90010(10) 0.41852(15) 0.9148(2)
O20_3 O 0.53238(11) 0.58850(16) 0.8419(3)
O24_6 O 0.55577(16) 0.52503(12) 1.0000
O27_3 O 0.51621(6) 0.48378(13) 0.8909(3)
N1_4 N 0.76648(13) 0.23348(33) 0.1680(5)
H1_4 H 0.7859 0.2501 0.1404
C1_4 C 0.9116(2) 0.4028(3) 0.1361(4)
C2_4 C 0.88077(17) 0.36787(26) 0.1863(4)
C3_4 C 0.84149(18) 0.35665(25) 0.1685(4)
H4_4 H 0.8351 0.3713 0.1335
C4_4 C 0.8137(2) 0.3227(3) 0.2064(5)
H5_4 H 0.7885 0.3132 0.1911
C5_4 C 0.8234(2) 0.3029(3) 0.2671(4)
C6_4 C 0.85988(17) 0.31557(24) 0.2866(4)
H6_4 H 0.8660 0.3022 0.3267
C7_4 C 0.88814(17) 0.34767(25) 0.2486(4)
H7_4 H 0.9130 0.3561 0.2651
C8_4 C 0.76220(16) 0.23780(34) 0.2634(6)
C9_4 C 0.79008(17) 0.26958(26) 0.3120(4)
C10_4 C 0.78658(15) 0.26932(23) 0.4025(4)
H8_4 H 0.8040 0.2906 0.4335
C11_4 C 0.75967(12) 0.24037(23) 0.4496(5)
N2_4 N 0.76652(33) 0.23352(45) 0.8320(5)
H9_4 H 0.7499 0.2141 0.8596
O8_4 O 0.58850(16) 0.05612(19) 0.8419(3)
C12_4 C 0.5972(3) 0.0884(4) 0.8639(4)
C13_4 C 0.63213(26) 0.11923(33) 0.8137(4)
C14_4 C 0.64335(25) 0.15851(31) 0.8315(4)
H10_4 H 0.6287 0.1649 0.8665
C15_4 C 0.6773(3) 0.1863(4) 0.7936(5)
H11_4 H 0.6868 0.2115 0.8089
C16_4 C 0.6971(3) 0.1766(4) 0.7329(4)
C17_4 C 0.68443(24) 0.14012(29) 0.7134(4)
H12_4 H 0.6978 0.1340 0.6733
C18_4 C 0.65233(25) 0.11186(31) 0.7514(4)
H13_4 H 0.6439 0.0870 0.7349
C19_4 C 0.76220(34) 0.23780(45) 0.7366(6)
C20_4 C 0.73042(26) 0.20992(33) 0.6880(4)
C21_4 C 0.73068(23) 0.21342(29) 0.5975(4)
H14_4 H 0.7094 0.1960 0.5665
C22_4 C 0.75963(23) 0.24033(30) 0.5504(5)
H15_4 H 0.7499 0.2141 0.1404
O10_4 O 0.58850(16) 0.05612(19) 0.1581(3)
C23_4 C 0.5972(3) 0.0884(4) 0.1361(4)
C24_4 C 0.63213(26) 0.11923(33) 0.1863(4)
C25_4 C 0.64335(25) 0.15851(31) 0.1685(4)
H16_4 H 0.6287 0.1649 0.1335
C26_4 C 0.6773(3) 0.1863(4) 0.2064(5)
H17_4 H 0.6868 0.2115 0.1911
C27_4 C 0.6971(3) 0.1766(4) 0.2671(4)
C28_4 C 0.68443(24) 0.14012(29) 0.2866(4)
H18_4 H 0.6978 0.1340 0.3267
C29_4 C 0.65233(25) 0.11186(31) 0.2486(4)
H19_4 H 0.6439 0.0870 0.2651
C30_4 C 0.73042(26) 0.20992(33) 0.3120(4)
C31_4 C 0.73068(23) 0.21342(29) 0.4025(4)
H20_4 H 0.7094 0.1960 0.4335
H21_4 H 0.7859 0.2501 0.8596
O12_4 O 0.94388(11) 0.41150(16) 0.8419(3)
C32_4 C 0.9116(2) 0.4028(3) 0.8639(4)
C33_4 C 0.88077(17) 0.36787(26) 0.8137(4)
C34_4 C 0.84149(18) 0.35665(25) 0.8315(4)
H22_4 H 0.8351 0.3713 0.8665
C35_4 C 0.8137(2) 0.3227(3) 0.7936(5)
H23_4 H 0.7885 0.3132 0.8089
C36_4 C 0.8234(2) 0.3029(3) 0.7329(4)
C37_4 C 0.85988(17) 0.31557(24) 0.7134(4)
H24_4 H 0.8660 0.3022 0.6733
C38_4 C 0.88814(17) 0.34767(25) 0.7514(4)
H25_4 H 0.9130 0.3561 0.7349
C39_4 C 0.79008(17) 0.26958(26) 0.6880(4)
C40_4 C 0.78658(15) 0.26932(23) 0.5975(4)
H26_4 H 0.8040 0.2906 0.5665
O14_5 O 0.54047(12) -0.00000(17) 0.2661(3)
H29_4 H 0.5610 0.0182 0.2856
O15_5 O 0.59496(13) -0.00000(18) 0.1087(4)
H30_4 H 0.6114 0.0180 0.1397
O13_5 O 0.52503(12) 0.96926(20) 0.0000
O14_6 O 0.54047(12) 1.00000(17) 0.2661(3)
O15_6 O 0.59496(13) 1.00000(18) 0.1087(4)
H31_4 H 0.5428 0.9818 0.2856
H32_4 H 0.5934 0.9820 0.1397
Zr5_5 Zr 0.465443(13) 0.930890(35) 0.0000
O20_4 O 0.53238(11) 0.94388(19) 0.1581(3)
O13_6 O 0.52503(12) 0.96926(20) 1.0000
Zr5_6 Zr 0.465443(13) 0.930890(35) 1.0000
O14_7 O 0.54047(12) 0.00000(17) 0.7339(3)
O15_7 O 0.59496(13) 0.00000(18) 0.8913(4)
H31_5 H 0.5610 0.0182 0.7144
H32_5 H 0.6114 0.0180 0.8603
N1_5 N 0.5330(3) 0.76652(33) 0.8320(5)
H1_5 H 0.5358 0.7499 0.8596
C1_5 C 0.5088(2) 0.5972(3) 0.8639(4)
C2_5 C 0.5129(2) 0.63213(26) 0.8137(4)
C3_5 C 0.48484(18) 0.64335(25) 0.8315(4)
H4_5 H 0.4638 0.6287 0.8665
C4_5 C 0.4910(2) 0.6773(3) 0.7936(5)
H5_5 H 0.4753 0.6868 0.8089
C5_5 C 0.5205(2) 0.6971(3) 0.7329(4)
C6_5 C 0.54431(17) 0.68443(24) 0.7134(4)
H6_5 H 0.5638 0.6978 0.6733
C7_5 C 0.54047(18) 0.65233(25) 0.7514(4)
H7_5 H 0.5569 0.6439 0.7349
C8_5 C 0.5244(3) 0.76220(34) 0.7366(6)
C9_5 C 0.5205(2) 0.73042(26) 0.6880(4)
C10_5 C 0.51726(18) 0.73068(23) 0.5975(4)
H8_5 H 0.5134 0.7094 0.5665
C11_5 C 0.5193(2) 0.75963(23) 0.5504(5)
N2_5 N 0.5330(3) 0.76648(45) 0.1680(5)
H9_5 H 0.5358 0.7859 0.1404
O7_4 O 0.48158(11) 0.90010(19) 0.0852(2)
C12_5 C 0.5088(2) 0.9116(4) 0.1361(4)
C13_5 C 0.5129(2) 0.88077(33) 0.1863(4)
C14_5 C 0.48484(18) 0.84149(31) 0.1685(4)
H10_5 H 0.4638 0.8351 0.1335
C15_5 C 0.4910(2) 0.8137(4) 0.2064(5)
H11_5 H 0.4753 0.7885 0.1911
C16_5 C 0.5205(2) 0.8234(4) 0.2671(4)
C17_5 C 0.54431(17) 0.85988(29) 0.2866(4)
H12_5 H 0.5638 0.8660 0.3267
C18_5 C 0.54047(18) 0.88814(31) 0.2486(4)
H13_5 H 0.5569 0.9130 0.2651
C19_5 C 0.5244(3) 0.76220(45) 0.2634(6)
C20_5 C 0.5205(2) 0.79008(33) 0.3120(4)
C21_5 C 0.51726(18) 0.78658(29) 0.4025(4)
H14_5 H 0.5134 0.8040 0.4335
C22_5 C 0.5193(2) 0.75967(30) 0.4496(5)
H15_5 H 0.5358 0.7859 0.8596
O9_4 O 0.48158(11) 0.90010(19) 0.9148(2)
O10_5 O 0.53238(11) 0.94388(19) 0.8419(3)
C23_5 C 0.5088(2) 0.9116(4) 0.8639(4)
C24_5 C 0.5129(2) 0.88077(33) 0.8137(4)
C25_5 C 0.48484(18) 0.84149(31) 0.8315(4)
H16_5 H 0.4638 0.8351 0.8665
C26_5 C 0.4910(2) 0.8137(4) 0.7936(5)
H17_5 H 0.4753 0.7885 0.8089
C27_5 C 0.5205(2) 0.8234(4) 0.7329(4)
C28_5 C 0.54431(17) 0.85988(29) 0.7134(4)
H18_5 H 0.5638 0.8660 0.6733
C29_5 C 0.54047(18) 0.88814(31) 0.7514(4)
H19_5 H 0.5569 0.9130 0.7349
C30_5 C 0.5205(2) 0.79008(33) 0.6880(4)
C31_5 C 0.51726(18) 0.78658(29) 0.5975(4)
H20_5 H 0.5134 0.8040 0.5665
H21_5 H 0.5358 0.7499 0.1404
O12_5 O 0.53238(11) 0.58850(16) 0.1581(3)
C32_5 C 0.5088(2) 0.5972(3) 0.1361(4)
C33_5 C 0.5129(2) 0.63213(26) 0.1863(4)
C34_5 C 0.48484(18) 0.64335(25) 0.1685(4)
H22_5 H 0.4638 0.6287 0.1335
C35_5 C 0.4910(2) 0.6773(3) 0.2064(5)
H23_5 H 0.4753 0.6868 0.1911
C36_5 C 0.5205(2) 0.6971(3) 0.2671(4)
C37_5 C 0.54431(17) 0.68443(24) 0.2866(4)
H24_5 H 0.5638 0.6978 0.3267
C38_5 C 0.54047(18) 0.65233(25) 0.2486(4)
H25_5 H 0.5569 0.6439 0.2651
C39_5 C 0.5205(2) 0.73042(26) 0.3120(4)
C40_5 C 0.51726(18) 0.73068(23) 0.4025(4)
H26_5 H 0.5134 0.7094 0.4335
O14_8 O 0.54047(12) 1.00000(17) 0.7339(3)
H29_5 H 0.5428 0.9818 0.7144
O15_8 O 0.59496(13) 1.00000(18) 0.8913(4)
H30_5 H 0.5934 0.9820 0.8603
O27_4 O 0.48378(13) 0.96757(14) 0.8909(3)
O5_5 O 0.45953(12) 0.0000 0.7339(3)
H2_3 H 0.4572 0.0182 0.7144
O6_5 O 0.40504(13) 0.0000 0.8913(4)
H3_3 H 0.4066 0.0180 0.8603
O19_2 O 0.41852(15) 0.90010(10) 0.0852(2)
N1_6 N 0.23348(33) 0.76648(13) 0.8320(5)
H1_6 H 0.2501 0.7859 0.8596
O1_4 O 0.41852(15) 0.90010(10) 0.9148(2)
O2_3 O 0.41150(16) 0.94388(11) 0.8419(3)
O5_6 O 0.45953(12) 1.0000 0.7339(3)
O6_6 O 0.40504(13) 1.0000 0.8913(4)
C1_6 C 0.4028(3) 0.9116(2) 0.8639(4)
C2_6 C 0.36787(26) 0.88077(17) 0.8137(4)
C3_6 C 0.35665(25) 0.84149(18) 0.8315(4)
H4_6 H 0.3713 0.8351 0.8665
C4_6 C 0.3227(3) 0.8137(2) 0.7936(5)
H5_6 H 0.3132 0.7885 0.8089
C5_6 C 0.3029(3) 0.8234(2) 0.7329(4)
C6_6 C 0.31557(24) 0.85988(17) 0.7134(4)
H6_6 H 0.3022 0.8660 0.6733
C7_6 C 0.34767(25) 0.88814(17) 0.7514(4)
H7_6 H 0.3561 0.9130 0.7349
C8_6 C 0.23780(34) 0.76220(16) 0.7366(6)
C9_6 C 0.26958(26) 0.79008(17) 0.6880(4)
C10_6 C 0.26932(23) 0.78658(15) 0.5975(4)
H8_6 H 0.2906 0.8040 0.5665
C11_6 C 0.24037(23) 0.75967(12) 0.5504(5)
N2_6 N 0.23352(45) 0.76652(33) 0.1680(5)
H9_6 H 0.2141 0.7499 0.1404
O7_5 O 0.09990(19) 0.58148(15) 0.0852(2)
O8_5 O 0.05612(19) 0.58850(16) 0.1581(3)
C12_6 C 0.0884(4) 0.5972(3) 0.1361(4)
C13_6 C 0.11923(33) 0.63213(26) 0.1863(4)
C14_6 C 0.15851(31) 0.64335(25) 0.1685(4)
H10_6 H 0.1649 0.6287 0.1335
C15_6 C 0.1863(4) 0.6773(3) 0.2064(5)
H11_6 H 0.2115 0.6868 0.1911
C16_6 C 0.1766(4) 0.6971(3) 0.2671(4)
C17_6 C 0.14012(29) 0.68443(24) 0.2866(4)
H12_6 H 0.1340 0.6978 0.3267
C18_6 C 0.11186(31) 0.65233(25) 0.2486(4)
H13_6 H 0.0870 0.6439 0.2651
C19_6 C 0.23780(45) 0.76220(34) 0.2634(6)
C20_6 C 0.20992(33) 0.73042(26) 0.3120(4)
C21_6 C 0.21342(29) 0.73068(23) 0.4025(4)
H14_6 H 0.1960 0.7094 0.4335
C22_6 C 0.24033(30) 0.75963(23) 0.4496(5)
H15_6 H 0.2141 0.7499 0.8596
O9_5 O 0.09990(19) 0.58148(15) 0.9148(2)
C23_6 C 0.0884(4) 0.5972(3) 0.8639(4)
C24_6 C 0.11923(33) 0.63213(26) 0.8137(4)
C25_6 C 0.15851(31) 0.64335(25) 0.8315(4)
H16_6 H 0.1649 0.6287 0.8665
C26_6 C 0.1863(4) 0.6773(3) 0.7936(5)
H17_6 H 0.2115 0.6868 0.8089
C27_6 C 0.1766(4) 0.6971(3) 0.7329(4)
C28_6 C 0.14012(29) 0.68443(24) 0.7134(4)
H18_6 H 0.1340 0.6978 0.6733
C29_6 C 0.11186(31) 0.65233(25) 0.7514(4)
H19_6 H 0.0870 0.6439 0.7349
C30_6 C 0.20992(33) 0.73042(26) 0.6880(4)
C31_6 C 0.21342(29) 0.73068(23) 0.5975(4)
H20_6 H 0.1960 0.7094 0.5665
H21_6 H 0.2501 0.7859 0.1404
C32_6 C 0.4028(3) 0.9116(2) 0.1361(4)
C33_6 C 0.36787(26) 0.88077(17) 0.1863(4)
C34_6 C 0.35665(25) 0.84149(18) 0.1685(4)
H22_6 H 0.3713 0.8351 0.1335
C35_6 C 0.3227(3) 0.8137(2) 0.2064(5)
H23_6 H 0.3132 0.7885 0.1911
C36_6 C 0.3029(3) 0.8234(2) 0.2671(4)
C37_6 C 0.31557(24) 0.85988(17) 0.2866(4)
H24_6 H 0.3022 0.8660 0.3267
C38_6 C 0.34767(25) 0.88814(17) 0.2486(4)
H25_6 H 0.3561 0.9130 0.2651
C39_6 C 0.26958(26) 0.79008(17) 0.3120(4)
C40_6 C 0.26932(23) 0.78658(15) 0.4025(4)
H26_6 H 0.2906 0.8040 0.4335
H27_3 H 0.4390 0.9818 0.7144
H28_3 H 0.3886 0.9820 0.8603
O14_9 O 0.54047(12) 0.54047(12) 0.2661(3)
H29_6 H 0.5428 0.5610 0.2856
O15_9 O 0.59496(13) 0.59496(13) 0.1087(4)
H30_6 H 0.5934 0.6114 0.1397
H31_6 H 0.5610 0.5428 0.2856
H32_6 H 0.6114 0.5934 0.1397
O14_10 O 0.00000(17) 0.45953(12) 0.7339(3)
O15_10 O 0.00000(18) 0.40504(13) 0.8913(4)
H31_7 H 0.0182 0.4572 0.7144
H32_7 H 0.0180 0.4066 0.8603
O14_11 O 1.00000(17) 0.45953(12) 0.7339(3)
H29_7 H 0.9818 0.4390 0.7144
O15_11 O 1.00000(18) 0.40504(13) 0.8913(4)
H30_7 H 0.9820 0.3886 0.8603
O5_7 O 0.45953(12) 0.45953(12) 0.7339(3)
H2_4 H 0.4390 0.4572 0.7144
O6_7 O 0.40504(13) 0.40504(13) 0.8913(4)
H3_4 H 0.3886 0.4066 0.8603
H27_4 H 0.4572 0.4390 0.7144
H28_4 H 0.4066 0.3886 0.8603
O5_8 O -0.0000 0.54047(12) 0.2661(3)
O6_8 O 0.0000 0.59496(13) 0.1087(4)
H27_5 H 0.0182 0.5610 0.2856
H28_5 H 0.0180 0.6114 0.1397
O5_9 O 1.0000 0.54047(12) 0.2661(3)
H2_5 H 0.9818 0.5428 0.2856
O6_9 O 1.0000 0.59496(13) 0.1087(4)
H3_5 H 0.9820 0.5934 0.1397
loop_
_geom_bond_atom_site_label_1
_geom_bond_atom_site_label_2
_geom_bond_site_symmetry_1
_geom_bond_site_symmetry_2
Zr4 O1 1_555 1_555
Zr2 O2 1_555 1_555
N1 H1 1_555 1_555
O1 C1 1_555 1_555
O2 C1 1_555 1_555
O3 Zr4 1_555 1_555
O4 Zr4 1_555 1_555
O5 Zr2 1_555 1_555
O6 Zr2 1_555 1_555
C1 C2 1_555 1_555
C2 C3 1_555 1_555
C3 H4 1_555 1_555
C4 C3 1_555 1_555
H5 C4 1_555 1_555
C5 C4 1_555 1_555
C6 C5 1_555 1_555
H6 C6 1_555 1_555
C7 C2 1_555 1_555
H7 C7 1_555 1_555
C8 N1 1_555 1_555
C9 C5 1_555 1_555
C10 C9 1_555 1_555
H8 C10 1_555 1_555
C11 C10 1_555 1_555
N2 H9 1_555 1_555
O7 C12 1_555 1_555
O8 C12 1_555 1_555
C12 C13 1_555 1_555
C13 C14 1_555 1_555
C14 H10 1_555 1_555
C15 C14 1_555 1_555
H11 C15 1_555 1_555
C16 C15 1_555 1_555
C17 C16 1_555 1_555
H12 C17 1_555 1_555
C18 C13 1_555 1_555
H13 C18 1_555 1_555
C19 N2 1_555 1_555
C20 C16 1_555 1_555
C21 C20 1_555 1_555
H14 C21 1_555 1_555
C22 C11 1_555 1_555
H15 N1 1_555 1_555
O9 C23 1_555 1_555
O10 C23 1_555 1_555
C23 C24 1_555 1_555
C24 C25 1_555 1_555
C25 H16 1_555 1_555
C26 C25 1_555 1_555
H17 C26 1_555 1_555
C27 C26 1_555 1_555
C28 C27 1_555 1_555
H18 C28 1_555 1_555
C29 C24 1_555 1_555
H19 C29 1_555 1_555
C30 C8 1_555 1_555
C31 C11 1_555 1_555
H20 C31 1_555 1_555
H21 N2 1_555 1_555
O11 C32 1_555 1_555
O12 C32 1_555 1_555
C32 C33 1_555 1_555
C33 C34 1_555 1_555
C34 H22 1_555 1_555
C35 C34 1_555 1_555
H23 C35 1_555 1_555
C36 C35 1_555 1_555
C37 C36 1_555 1_555
H24 C37 1_555 1_555
C38 C33 1_555 1_555
H25 C38 1_555 1_555
C39 C19 1_555 1_555
C40 C22 1_555 1_555
H26 C40 1_555 1_555
H27 O5 1_555 1_555
H28 O6 1_555 1_555
Zr3 O10 1_555 1_555
O13 Zr3 1_555 1_555
O14 Zr3 1_555 1_555
H29 O14 1_555 1_555
O15 Zr3 1_555 1_555
H30 O15 1_555 1_555
H31 O14 1_555 1_555
H32 O15 1_555 1_555
Zr4_2 O11 1_555 1_555
Zr5 O13 1_555 1_555
Zr7 O9 1_555 1_555
Zr7_2 O7 1_555 1_555
Zr9 O12 1_555 1_555
Zr10 O4 1_555 1_555
Zr13 O8 1_555 1_555
O18 Zr4 1_555 1_555
O20 Zr3 1_555 1_555
O23 Zr4 1_555 1_555
O24 Zr3 1_555 1_555
O25 Zr3 1_555 1_555
O27 Zr3 1_555 1_555
Zr2 O3 1_555 1_555
Zr2 O4 1_555 1_555
C6 C7 1_555 1_555
C8 C9 1_555 1_555
C17 C18 1_555 1_555
C19 C20 1_555 1_555
C21 C22 1_555 1_555
C27 C30 1_555 1_555
C28 C29 1_555 1_555
C30 C31 1_555 1_555
C36 C39 1_555 1_555
C37 C38 1_555 1_555
C39 C40 1_555 1_555
Zr5 O25 1_555 1_555
Zr7 O24 1_555 1_555
Zr7 O27 1_555 1_555
Zr10 O23 1_555 1_555
O3_2 Zr4_2 1_555 1_555
O16 Zr4_2 1_555 1_555
Zr5_2 O13_2 1_555 1_555
Zr9 O3_2 1_555 1_555
Zr11 O16 1_555 1_555
Zr13 O13_2 1_555 1_555
O17 Zr4_2 1_555 1_555
O23_2 Zr4_2 1_555 1_555
O16 Zr9 1_555 1_555
Zr7_2 O24_2 1_555 1_555
Zr11 O23_2 1_555 1_555
Zr13 O24_2 1_555 1_555
O5_2 Zr2_2 1_555 1_555
H2 O5_2 1_555 1_555
O6_2 Zr2_2 1_555 1_555
H3 O6_2 1_555 1_555
O21 Zr2_2 1_555 1_555
O22 Zr2_2 1_555 1_555
O26 Zr2_2 1_555 1_555
Zr10_2 O26 1_555 1_555
Zr9_2 O22_2 1_555 1_555
Zr5 O1_2 1_555 1_555
N1_2 H1_2 1_555 1_555
O1_2 C1_2 1_555 1_555
O20 C1_2 1_555 1_555
C1_2 C2_2 1_555 1_555
C2_2 C3_2 1_555 1_555
C3_2 H4_2 1_555 1_555
C4_2 C3_2 1_555 1_555
H5_2 C4_2 1_555 1_555
C5_2 C4_2 1_555 1_555
C6_2 C5_2 1_555 1_555
H6_2 C6_2 1_555 1_555
C7_2 C2_2 1_555 1_555
H7_2 C7_2 1_555 1_555
C8_2 N1_2 1_555 1_555
C9_2 C5_2 1_555 1_555
C10_2 C9_2 1_555 1_555
H8_2 C10_2 1_555 1_555
C11_2 C10_2 1_555 1_555
N2_2 H9_2 1_555 1_555
O7_2 C12_2 1_555 1_555
O8_2 C12_2 1_555 1_555
C12_2 C13_2 1_555 1_555
C13_2 C14_2 1_555 1_555
C14_2 H10_2 1_555 1_555
C15_2 C14_2 1_555 1_555
H11_2 C15_2 1_555 1_555
C16_2 C15_2 1_555 1_555
C17_2 C16_2 1_555 1_555
H12_2 C17_2 1_555 1_555
C18_2 C13_2 1_555 1_555
H13_2 C18_2 1_555 1_555
C19_2 N2_2 1_555 1_555
C20_2 C16_2 1_555 1_555
C21_2 C20_2 1_555 1_555
H14_2 C21_2 1_555 1_555
C22_2 C11_2 1_555 1_555
H15_2 N1_2 1_555 1_555
O9_2 C23_2 1_555 1_555
O10_2 C23_2 1_555 1_555
C23_2 C24_2 1_555 1_555
C24_2 C25_2 1_555 1_555
C25_2 H16_2 1_555 1_555
C26_2 C25_2 1_555 1_555
H17_2 C26_2 1_555 1_555
C27_2 C26_2 1_555 1_555
C28_2 C27_2 1_555 1_555
H18_2 C28_2 1_555 1_555
C29_2 C24_2 1_555 1_555
H19_2 C29_2 1_555 1_555
C30_2 C8_2 1_555 1_555
C31_2 C11_2 1_555 1_555
H20_2 C31_2 1_555 1_555
H21_2 N2_2 1_555 1_555
O11_2 C32_2 1_555 1_555
O12_2 C32_2 1_555 1_555
C32_2 C33_2 1_555 1_555
C33_2 C34_2 1_555 1_555
C34_2 H22_2 1_555 1_555
C35_2 C34_2 1_555 1_555
H23_2 C35_2 1_555 1_555
C36_2 C35_2 1_555 1_555
C37_2 C36_2 1_555 1_555
H24_2 C37_2 1_555 1_555
C38_2 C33_2 1_555 1_555
H25_2 C38_2 1_555 1_555
C39_2 C19_2 1_555 1_555
C40_2 C22_2 1_555 1_555
H26_2 C40_2 1_555 1_555
Zr3_2 O10_2 1_555 1_555
O14_2 Zr3_2 1_555 1_555
H29_2 O14_2 1_555 1_555
O15_2 Zr3_2 1_555 1_555
H30_2 O15_2 1_555 1_555
Zr5_2 O11_2 1_555 1_555
Zr7_3 O9_2 1_555 1_555
Zr7_4 O7_2 1_555 1_555
Zr13 O12_2 1_555 1_555
Zr10_3 O25 1_555 1_555
Zr13_2 O8_2 1_555 1_555
O18_2 Zr5 1_555 1_555
O23_3 Zr5 1_555 1_555
O24_3 Zr3_2 1_555 1_555
O27_2 Zr3_2 1_555 1_555
C6_2 C7_2 1_555 1_555
C8_2 C9_2 1_555 1_555
C17_2 C18_2 1_555 1_555
C19_2 C20_2 1_555 1_555
C21_2 C22_2 1_555 1_555
C27_2 C30_2 1_555 1_555
C28_2 C29_2 1_555 1_555
C30_2 C31_2 1_555 1_555
C36_2 C39_2 1_555 1_555
C37_2 C38_2 1_555 1_555
C39_2 C40_2 1_555 1_555
Zr7_3 O24_3 1_555 1_555
Zr7_3 O27_2 1_555 1_555
Zr10_3 O23_3 1_555 1_555
Zr10_3 O27 1_555 1_555
O16_2 Zr5_2 1_555 1_555
Zr11_3 O16_2 1_555 1_555
O17_2 Zr5_2 1_555 1_555
O23_4 Zr5_2 1_555 1_555
O16_2 Zr13 1_555 1_555
Zr7_4 O24_4 1_555 1_555
Zr11_3 O23_4 1_555 1_555
Zr13_2 O24_4 1_555 1_555
O13_3 Zr3_3 1_555 1_555
O14_3 Zr3_3 1_555 1_555
O15_3 Zr3_3 1_555 1_555
H31_2 O14_3 1_555 1_555
H32_2 O15_3 1_555 1_555
Zr5_3 O13_3 1_555 1_555
O20_2 Zr3_3 1_555 1_555
O25_2 Zr3_3 1_555 1_555
Zr5_3 O25_2 1_555 1_555
Zr5_4 O13_4 1_555 1_555
Zr13_3 O13_4 1_555 1_555
Zr8 O22_3 1_555 1_555
O5_3 Zr2_3 1_555 1_555
H2_2 O5_3 1_555 1_555
O6_3 Zr2_3 1_555 1_555
H3_2 O6_3 1_555 1_555
O21_2 Zr2_3 1_555 1_555
O22_4 Zr2_3 1_555 1_555
O26_2 Zr2_3 1_555 1_555
Zr13_2 O26_2 1_555 1_555
O3_3 Zr5_3 1_555 1_555
Zr8_2 O3_3 1_555 1_555
O17_3 Zr5_3 1_555 1_555
O19 Zr5_3 1_555 1_555
O25_2 Zr8_2 1_555 1_555
Zr7 O24_5 1_555 1_555
Zr10_3 O24_5 1_555 1_555
Zr5_4 O1_3 1_555 1_555
Zr2_4 O2_2 1_555 1_555
N1_3 H1_3 1_555 1_555
O1_3 C1_3 1_555 1_555
O2_2 C1_3 1_555 1_555
O3_4 Zr5_4 1_555 1_555
O4_2 Zr5_4 1_555 1_555
O5_4 Zr2_4 1_555 1_555
O6_4 Zr2_4 1_555 1_555
C1_3 C2_3 1_555 1_555
C2_3 C3_3 1_555 1_555
C3_3 H4_3 1_555 1_555
C4_3 C3_3 1_555 1_555
H5_3 C4_3 1_555 1_555
C5_3 C4_3 1_555 1_555
C6_3 C5_3 1_555 1_555
H6_3 C6_3 1_555 1_555
C7_3 C2_3 1_555 1_555
H7_3 C7_3 1_555 1_555
C8_3 N1_3 1_555 1_555
C9_3 C5_3 1_555 1_555
C10_3 C9_3 1_555 1_555
H8_3 C10_3 1_555 1_555
C11_3 C10_3 1_555 1_555
N2_3 H9_3 1_555 1_555
O7_3 C12_3 1_555 1_555
O8_3 C12_3 1_555 1_555
C12_3 C13_3 1_555 1_555
C13_3 C14_3 1_555 1_555
C14_3 H10_3 1_555 1_555
C15_3 C14_3 1_555 1_555
H11_3 C15_3 1_555 1_555
C16_3 C15_3 1_555 1_555
C17_3 C16_3 1_555 1_555
H12_3 C17_3 1_555 1_555
C18_3 C13_3 1_555 1_555
H13_3 C18_3 1_555 1_555
C19_3 N2_3 1_555 1_555
C20_3 C16_3 1_555 1_555
C21_3 C20_3 1_555 1_555
H14_3 C21_3 1_555 1_555
C22_3 C11_3 1_555 1_555
H15_3 N1_3 1_555 1_555
O9_3 C23_3 1_555 1_555
O10_3 C23_3 1_555 1_555
C23_3 C24_3 1_555 1_555
C24_3 C25_3 1_555 1_555
C25_3 H16_3 1_555 1_555
C26_3 C25_3 1_555 1_555
H17_3 C26_3 1_555 1_555
C27_3 C26_3 1_555 1_555
C28_3 C27_3 1_555 1_555
H18_3 C28_3 1_555 1_555
C29_3 C24_3 1_555 1_555
H19_3 C29_3 1_555 1_555
C30_3 C8_3 1_555 1_555
C31_3 C11_3 1_555 1_555
H20_3 C31_3 1_555 1_555
H21_3 N2_3 1_555 1_555
O19 C32_3 1_555 1_555
O12_3 C32_3 1_555 1_555
C32_3 C33_3 1_555 1_555
C33_3 C34_3 1_555 1_555
C34_3 H22_3 1_555 1_555
C35_3 C34_3 1_555 1_555
H23_3 C35_3 1_555 1_555
C36_3 C35_3 1_555 1_555
C37_3 C36_3 1_555 1_555
H24_3 C37_3 1_555 1_555
C38_3 C33_3 1_555 1_555
H25_3 C38_3 1_555 1_555
C39_3 C19_3 1_555 1_555
C40_3 C22_3 1_555 1_555
H26_3 C40_3 1_555 1_555
H27_2 O5_4 1_555 1_555
H28_2 O6_4 1_555 1_555
Zr11_3 O10_3 1_555 1_555
O14_4 Zr11_3 1_555 1_555
H29_3 O14_4 1_555 1_555
O15_4 Zr11_3 1_555 1_555
H30_3 O15_4 1_555 1_555
H31_3 O14_4 1_555 1_555
H32_3 O15_4 1_555 1_555
Zr7_2 O9_3 1_555 1_555
Zr7 O7_3 1_555 1_555
Zr8_2 O12_3 1_555 1_555
Zr13_3 O4_2 1_555 1_555
Zr10_3 O8_3 1_555 1_555
O18_3 Zr5_4 1_555 1_555
O20_3 Zr11_3 1_555 1_555
O24_6 Zr11_3 1_555 1_555
O27_3 Zr11_3 1_555 1_555
Zr2_4 O3_4 1_555 1_555
Zr2_4 O4_2 1_555 1_555
C6_3 C7_3 1_555 1_555
C8_3 C9_3 1_555 1_555
C17_3 C18_3 1_555 1_555
C19_3 C20_3 1_555 1_555
C21_3 C22_3 1_555 1_555
C27_3 C30_3 1_555 1_555
C28_3 C29_3 1_555 1_555
C30_3 C31_3 1_555 1_555
C36_3 C39_3 1_555 1_555
C37_3 C38_3 1_555 1_555
C39_3 C40_3 1_555 1_555
Zr7_2 O24_6 1_555 1_555
Zr7_2 O27_3 1_555 1_555
Zr8 O27_2 1_555 1_555
N1_4 H1_4 1_555 1_555
O17_3 C1_4 1_555 1_555
O20_2 C1_4 1_555 1_555
C1_4 C2_4 1_555 1_555
C2_4 C3_4 1_555 1_555
C3_4 H4_4 1_555 1_555
C4_4 C3_4 1_555 1_555
H5_4 C4_4 1_555 1_555
C5_4 C4_4 1_555 1_555
C6_4 C5_4 1_555 1_555
H6_4 C6_4 1_555 1_555
C7_4 C2_4 1_555 1_555
H7_4 C7_4 1_555 1_555
C8_4 N1_4 1_555 1_555
C9_4 C5_4 1_555 1_555
C10_4 C9_4 1_555 1_555
H8_4 C10_4 1_555 1_555
C11_4 C10_4 1_555 1_555
N2_4 H9_4 1_555 1_555
O17 C12_4 1_555 1_555
O8_4 C12_4 1_555 1_555
C12_4 C13_4 1_555 1_555
C13_4 C14_4 1_555 1_555
C14_4 H10_4 1_555 1_555
C15_4 C14_4 1_555 1_555
H11_4 C15_4 1_555 1_555
C16_4 C15_4 1_555 1_555
C17_4 C16_4 1_555 1_555
H12_4 C17_4 1_555 1_555
C18_4 C13_4 1_555 1_555
H13_4 C18_4 1_555 1_555
C19_4 N2_4 1_555 1_555
C20_4 C16_4 1_555 1_555
C21_4 C20_4 1_555 1_555
H14_4 C21_4 1_555 1_555
C22_4 C11_4 1_555 1_555
H15_4 N1_4 1_555 1_555
O18 C23_4 1_555 1_555
O10_4 C23_4 1_555 1_555
C23_4 C24_4 1_555 1_555
C24_4 C25_4 1_555 1_555
C25_4 H16_4 1_555 1_555
C26_4 C25_4 1_555 1_555
H17_4 C26_4 1_555 1_555
C27_4 C26_4 1_555 1_555
C28_4 C27_4 1_555 1_555
H18_4 C28_4 1_555 1_555
C29_4 C24_4 1_555 1_555
H19_4 C29_4 1_555 1_555
C30_4 C8_4 1_555 1_555
C31_4 C11_4 1_555 1_555
H20_4 C31_4 1_555 1_555
H21_4 N2_4 1_555 1_555
O18_3 C32_4 1_555 1_555
O12_4 C32_4 1_555 1_555
C32_4 C33_4 1_555 1_555
C33_4 C34_4 1_555 1_555
C34_4 H22_4 1_555 1_555
C35_4 C34_4 1_555 1_555
H23_4 C35_4 1_555 1_555
C36_4 C35_4 1_555 1_555
C37_4 C36_4 1_555 1_555
H24_4 C37_4 1_555 1_555
C38_4 C33_4 1_555 1_555
H25_4 C38_4 1_555 1_555
C39_4 C19_4 1_555 1_555
C40_4 C22_4 1_555 1_555
H26_4 C40_4 1_555 1_555
Zr10 O10_4 1_555 1_555
O14_5 Zr10 1_555 1_555
H29_4 O14_5 1_555 1_555
O15_5 Zr10 1_555 1_555
H30_4 O15_5 1_555 1_555
Zr13_3 O12_4 1_555 1_555
Zr11 O8_4 1_555 1_555
C6_4 C7_4 1_555 1_555
C8_4 C9_4 1_555 1_555
C17_4 C18_4 1_555 1_555
C19_4 C20_4 1_555 1_555
C21_4 C22_4 1_555 1_555
C27_4 C30_4 1_555 1_555
C28_4 C29_4 1_555 1_555
C30_4 C31_4 1_555 1_555
C36_4 C39_4 1_555 1_555
C37_4 C38_4 1_555 1_555
C39_4 C40_4 1_555 1_555
O13_5 Zr10_2 1_555 1_555
O14_6 Zr10_2 1_555 1_555
O15_6 Zr10_2 1_555 1_555
H31_4 O14_6 1_555 1_555
H32_4 O15_6 1_555 1_555
Zr5_5 O13_5 1_555 1_555
O20_4 Zr10_2 1_555 1_555
Zr5_5 O26 1_555 1_555
Zr5_6 O13_6 1_555 1_555
Zr11_2 O13_6 1_555 1_555
O14_7 Zr11 1_555 1_555
O15_7 Zr11 1_555 1_555
H31_5 O14_7 1_555 1_555
H32_5 O15_7 1_555 1_555
N1_5 H1_5 1_555 1_555
O17_2 C1_5 1_555 1_555
O20_3 C1_5 1_555 1_555
C1_5 C2_5 1_555 1_555
C2_5 C3_5 1_555 1_555
C3_5 H4_5 1_555 1_555
C4_5 C3_5 1_555 1_555
H5_5 C4_5 1_555 1_555
C5_5 C4_5 1_555 1_555
C6_5 C5_5 1_555 1_555
H6_5 C6_5 1_555 1_555
C7_5 C2_5 1_555 1_555
H7_5 C7_5 1_555 1_555
C8_5 N1_5 1_555 1_555
C9_5 C5_5 1_555 1_555
C10_5 C9_5 1_555 1_555
H8_5 C10_5 1_555 1_555
C11_5 C10_5 1_555 1_555
N2_5 H9_5 1_555 1_555
O7_4 C12_5 1_555 1_555
O20_4 C12_5 1_555 1_555
C12_5 C13_5 1_555 1_555
C13_5 C14_5 1_555 1_555
C14_5 H10_5 1_555 1_555
C15_5 C14_5 1_555 1_555
H11_5 C15_5 1_555 1_555
C16_5 C15_5 1_555 1_555
C17_5 C16_5 1_555 1_555
H12_5 C17_5 1_555 1_555
C18_5 C13_5 1_555 1_555
H13_5 C18_5 1_555 1_555
C19_5 N2_5 1_555 1_555
C20_5 C16_5 1_555 1_555
C21_5 C20_5 1_555 1_555
H14_5 C21_5 1_555 1_555
C22_5 C11_5 1_555 1_555
H15_5 N1_5 1_555 1_555
O9_4 C23_5 1_555 1_555
O10_5 C23_5 1_555 1_555
C23_5 C24_5 1_555 1_555
C24_5 C25_5 1_555 1_555
C25_5 H16_5 1_555 1_555
C26_5 C25_5 1_555 1_555
H17_5 C26_5 1_555 1_555
C27_5 C26_5 1_555 1_555
C28_5 C27_5 1_555 1_555
H18_5 C28_5 1_555 1_555
C29_5 C24_5 1_555 1_555
H19_5 C29_5 1_555 1_555
C30_5 C8_5 1_555 1_555
C31_5 C11_5 1_555 1_555
H20_5 C31_5 1_555 1_555
H21_5 N2_5 1_555 1_555
O18_2 C32_5 1_555 1_555
O12_5 C32_5 1_555 1_555
C32_5 C33_5 1_555 1_555
C33_5 C34_5 1_555 1_555
C34_5 H22_5 1_555 1_555
C35_5 C34_5 1_555 1_555
H23_5 C35_5 1_555 1_555
C36_5 C35_5 1_555 1_555
C37_5 C36_5 1_555 1_555
H24_5 C37_5 1_555 1_555
C38_5 C33_5 1_555 1_555
H25_5 C38_5 1_555 1_555
C39_5 C19_5 1_555 1_555
C40_5 C22_5 1_555 1_555
H26_5 C40_5 1_555 1_555
Zr11_2 O10_5 1_555 1_555
O14_8 Zr11_2 1_555 1_555
H29_5 O14_8 1_555 1_555
O15_8 Zr11_2 1_555 1_555
H30_5 O15_8 1_555 1_555
Zr5_6 O9_4 1_555 1_555
Zr5_5 O7_4 1_555 1_555
Zr10_3 O12_5 1_555 1_555
O27_4 Zr11_2 1_555 1_555
C6_5 C7_5 1_555 1_555
C8_5 C9_5 1_555 1_555
C17_5 C18_5 1_555 1_555
C19_5 C20_5 1_555 1_555
C21_5 C22_5 1_555 1_555
C27_5 C30_5 1_555 1_555
C28_5 C29_5 1_555 1_555
C30_5 C31_5 1_555 1_555
C36_5 C39_5 1_555 1_555
C37_5 C38_5 1_555 1_555
C39_5 C40_5 1_555 1_555
Zr5_6 O27_4 1_555 1_555
Zr13 O27_3 1_555 1_555
O5_5 Zr9 1_555 1_555
H2_3 O5_5 1_555 1_555
O6_5 Zr9 1_555 1_555
H3_3 O6_5 1_555 1_555
O22 Zr5_5 1_555 1_555
O19_2 Zr5_5 1_555 1_555
Zr7_3 O22_3 1_555 1_555
Zr5_6 O1_4 1_555 1_555
Zr9_2 O2_3 1_555 1_555
N1_6 H1_6 1_555 1_555
O1_4 C1_6 1_555 1_555
O2_3 C1_6 1_555 1_555
O22_2 Zr5_6 1_555 1_555
O5_6 Zr9_2 1_555 1_555
O6_6 Zr9_2 1_555 1_555
C1_6 C2_6 1_555 1_555
C2_6 C3_6 1_555 1_555
C3_6 H4_6 1_555 1_555
C4_6 C3_6 1_555 1_555
H5_6 C4_6 1_555 1_555
C5_6 C4_6 1_555 1_555
C6_6 C5_6 1_555 1_555
H6_6 C6_6 1_555 1_555
C7_6 C2_6 1_555 1_555
H7_6 C7_6 1_555 1_555
C8_6 N1_6 1_555 1_555
C9_6 C5_6 1_555 1_555
C10_6 C9_6 1_555 1_555
H8_6 C10_6 1_555 1_555
C11_6 C10_6 1_555 1_555
N2_6 H9_6 1_555 1_555
O7_5 C12_6 1_555 1_555
O8_5 C12_6 1_555 1_555
C12_6 C13_6 1_555 1_555
C13_6 C14_6 1_555 1_555
C14_6 H10_6 1_555 1_555
C15_6 C14_6 1_555 1_555
H11_6 C15_6 1_555 1_555
C16_6 C15_6 1_555 1_555
C17_6 C16_6 1_555 1_555
H12_6 C17_6 1_555 1_555
C18_6 C13_6 1_555 1_555
H13_6 C18_6 1_555 1_555
C19_6 N2_6 1_555 1_555
C20_6 C16_6 1_555 1_555
C21_6 C20_6 1_555 1_555
H14_6 C21_6 1_555 1_555
C22_6 C11_6 1_555 1_555
H15_6 N1_6 1_555 1_555
O9_5 C23_6 1_555 1_555
O21_2 C23_6 1_555 1_555
C23_6 C24_6 1_555 1_555
C24_6 C25_6 1_555 1_555
C25_6 H16_6 1_555 1_555
C26_6 C25_6 1_555 1_555
H17_6 C26_6 1_555 1_555
C27_6 C26_6 1_555 1_555
C28_6 C27_6 1_555 1_555
H18_6 C28_6 1_555 1_555
C29_6 C24_6 1_555 1_555
H19_6 C29_6 1_555 1_555
C30_6 C8_6 1_555 1_555
C31_6 C11_6 1_555 1_555
H20_6 C31_6 1_555 1_555
H21_6 N2_6 1_555 1_555
O19_2 C32_6 1_555 1_555
O21 C32_6 1_555 1_555
C32_6 C33_6 1_555 1_555
C33_6 C34_6 1_555 1_555
C34_6 H22_6 1_555 1_555
C35_6 C34_6 1_555 1_555
H23_6 C35_6 1_555 1_555
C36_6 C35_6 1_555 1_555
C37_6 C36_6 1_555 1_555
H24_6 C37_6 1_555 1_555
C38_6 C33_6 1_555 1_555
H25_6 C38_6 1_555 1_555
C39_6 C19_6 1_555 1_555
C40_6 C22_6 1_555 1_555
H26_6 C40_6 1_555 1_555
H27_3 O5_6 1_555 1_555
H28_3 O6_6 1_555 1_555
Zr7_4 O9_5 1_555 1_555
Zr7_3 O7_5 1_555 1_555
Zr8 O8_5 1_555 1_555
Zr9_2 O27_4 1_555 1_555
C6_6 C7_6 1_555 1_555
C8_6 C9_6 1_555 1_555
C17_6 C18_6 1_555 1_555
C19_6 C20_6 1_555 1_555
C21_6 C22_6 1_555 1_555
C27_6 C30_6 1_555 1_555
C28_6 C29_6 1_555 1_555
C30_6 C31_6 1_555 1_555
C36_6 C39_6 1_555 1_555
C37_6 C38_6 1_555 1_555
C39_6 C40_6 1_555 1_555
Zr7_4 O22_4 1_555 1_555
Zr7_4 O26_2 1_555 1_555
O14_9 Zr10_3 1_555 1_555
H29_6 O14_9 1_555 1_555
O15_9 Zr10_3 1_555 1_555
H30_6 O15_9 1_555 1_555
H31_6 O14_9 1_555 1_555
H32_6 O15_9 1_555 1_555
O14_10 Zr13_2 1_555 1_555
O15_10 Zr13_2 1_555 1_555
H31_7 O14_10 1_555 1_555
H32_7 O15_10 1_555 1_555
O14_11 Zr13_3 1_555 1_555
H29_7 O14_11 1_555 1_555
O15_11 Zr13_3 1_555 1_555
H30_7 O15_11 1_555 1_555
O5_7 Zr13 1_555 1_555
H2_4 O5_7 1_555 1_555
O6_7 Zr13 1_555 1_555
H3_4 O6_7 1_555 1_555
H27_4 O5_7 1_555 1_555
H28_4 O6_7 1_555 1_555
O5_8 Zr8 1_555 1_555
O6_8 Zr8 1_555 1_555
H27_5 O5_8 1_555 1_555
H28_5 O6_8 1_555 1_555
O5_9 Zr8_2 1_555 1_555
H2_5 O5_9 1_555 1_555
O6_9 Zr8_2 1_555 1_555
H3_5 O6_9 1_555 1_555

#END
