
###############################################################################
#
# This file contains modified crystal structure data generated from the
# MOF subset of the Cambridge Structural Database (CSD) v543 
# hosted by the Cambridge Crystallographic Data Centre (CCDC).
#
# This work is licensed under the Creative Commons
# Attribution-NonCommercial-ShareAlike 4.0 International License.
# To view a copy of this license, visit
# http://creativecommons.org/licenses/by-nc-sa/4.0/
# or send a letter to
# Creative Commons, PO Box 1866, Mountain View, CA 94042, USA.
#
# CIF created using the CSD Python API on 29 September 2022
# The structure has been converted into the P1 space group
# The structure has a 3D framework
# The original CSD entry HIQNIG is in the monoclinic crystal system
# The framework has been calculated to contain at least 10.0% void space
# The void calculation uses a probe of radius 1.32A, grid spacing 0.4
#
###############################################################################

data_HIQNIG
_chemical_formula_moiety         '(C96 H72 N12 O14 Zn4)n'
_symmetry_cell_setting           triclinic
_symmetry_space_group_name_H-M   'P 1'
_symmetry_Int_Tables_number      1
_space_group_name_Hall           'P 1'
loop_
_symmetry_equiv_pos_site_id
_symmetry_equiv_pos_as_xyz
1 x,y,z
_cell_length_a                   9.0531(19)
_cell_length_b                   19.218(4)
_cell_length_c                   16.342(3)
_cell_angle_alpha                90
_cell_angle_beta                 92.804(4)
_cell_angle_gamma                90
_cell_volume                     2839.82
loop_
_atom_site_label
_atom_site_type_symbol
_atom_site_fract_x
_atom_site_fract_y
_atom_site_fract_z
C37 C 0.0075(6) 0.2571(3) 0.7649(3)
C38 C 0.1039(6) 0.2976(3) 0.7233(3)
H28 H 0.0821 0.3087 0.6686
C39 C 0.2327(6) 0.3221(2) 0.7619(3)
C40 C 0.2614(6) 0.3001(3) 0.8412(3)
H29 H 0.3491 0.3132 0.8690
C41 C 0.1603(6) 0.2585(3) 0.8800(3)
H30 H 0.1826 0.2445 0.9337
C42 C 0.3311(6) 0.3715(3) 0.7242(3)
H31 H 0.4242 0.3776 0.7499
C43 C 0.3011(6) 0.4087(2) 0.6567(3)
H32 H 0.2158 0.3976 0.6253
C44 C 0.3933(6) 0.4660(2) 0.6284(3)
C45 C 0.3297(6) 0.5158(3) 0.5772(3)
H33 H 0.2348 0.5096 0.5540
C46 C 0.4104(6) 0.5757(3) 0.5605(3)
H34 H 0.3660 0.6096 0.5270
C47 C 0.6120(6) 0.5352(2) 0.6345(3)
H35 H 0.7100 0.5405 0.6532
C48 C 0.5401(6) 0.4751(3) 0.6533(3)
H36 H 0.5901 0.4403 0.6830
N5 N 0.0337(4) 0.2380(2) 0.8438(2)
N6 N 0.5483(4) 0.58646(18) 0.5907(2)
Zn6 Zn 0.63241(6) 0.68554(3) 0.59695(3)
Zn1 Zn 0.13241(6) 0.81446(3) 0.09695(3)
O1 O 0.2842(4) 0.80788(18) 0.1871(2)
O2 O 0.4221(4) 0.8810(2) 0.1202(2)
O3 O 0.4762(4) 0.71034(19) 0.4563(2)
O4 O 0.6981(4) 0.74054(18) 0.50460(19)
C1 C 0.4028(6) 0.8426(3) 0.1791(3)
C2 C 0.5195(5) 0.8367(2) 0.2475(3)
C3 C 0.6500(5) 0.8747(2) 0.2425(3)
H1 H 0.6630 0.9021 0.1965
C4 C 0.7610(5) 0.8728(2) 0.3042(3)
C5 C 0.7398(5) 0.8312(2) 0.3722(3)
H2 H 0.8118 0.8298 0.4148
C6 C 0.6111(5) 0.7914(2) 0.3774(3)
C7 C 0.5009(5) 0.7947(2) 0.3150(3)
H3 H 0.4148 0.7687 0.3187
C8 C 0.5919(5) 0.7441(2) 0.4505(3)
H8 H 0.0793 0.7578 0.2624
N1 N 0.8897(5) 0.9107(3) 0.2963(3)
H18 H 0.8955 0.9360 0.2531
O10 O 0.1981(4) 0.75946(18) 0.00460(19)
N7 N 0.0483(4) 0.91354(18) 0.0907(2)
C23 C 0.1120(6) 0.9648(2) 0.1345(3)
H16 H 0.2100 0.9595 0.1532
C2_2 C 0.9805(5) 0.3367(2) 0.2525(3)
C3_2 C 0.8500(5) 0.3747(2) 0.2575(3)
H1_2 H 0.8370 0.4021 0.3035
C4_2 C 0.7390(5) 0.3728(2) 0.1958(3)
C5_2 C 0.7602(5) 0.3312(2) 0.1278(3)
H2_2 H 0.6882 0.3298 0.0852
C6_2 C 0.8889(5) 0.2914(2) 0.1226(3)
C7_2 C 0.9991(5) 0.2947(2) 0.1850(3)
C8_2 C 0.9081(5) 0.2441(2) 0.0495(3)
C9 C 0.4848(7) 0.4113(3) 0.1455(4)
H4 H 0.3986 0.4263 0.1739
H5 H 0.4666 0.3640 0.1271
C10 C 0.4979(7) 0.4571(3) 0.0703(4)
C11 C 0.5911(8) 0.5138(4) 0.0689(4)
H6 H 0.6530 0.5241 0.1145
C12 C 0.4073(8) 0.4442(4) 0.0007(4)
H7 H 0.3435 0.4063 0.0006
N1_2 N 0.6103(5) 0.4107(3) 0.2037(3)
H18_2 H 0.6045 0.4360 0.2469
O5 O 0.7842(4) 0.69212(18) 0.6871(2)
O6 O 0.9221(4) 0.6190(2) 0.6202(2)
O7 O 0.9762(4) 0.78966(19) 0.9563(2)
C25 C 0.9028(6) 0.6574(3) 0.6791(3)
H21 H 0.9148 0.7313 0.8187
C37_2 C 0.4925(6) 0.7571(3) 0.7351(3)
H27 H 0.5793 0.7422 0.7624
C38_2 C 0.3961(6) 0.7976(3) 0.7767(3)
H28_2 H 0.4179 0.8087 0.8314
C39_2 C 0.2673(6) 0.8221(2) 0.7381(3)
C40_2 C 0.2386(6) 0.8001(3) 0.6588(3)
H29_2 H 0.1509 0.8132 0.6310
C41_2 C 0.3397(6) 0.7585(3) 0.6200(3)
H30_2 H 0.3174 0.7445 0.5663
C42_2 C 0.1689(6) 0.8715(3) 0.7758(3)
H31_2 H 0.0758 0.8776 0.7501
C43_2 C 0.1989(6) 0.9087(2) 0.8433(3)
H32_2 H 0.2842 0.8976 0.8747
C44_2 C 0.1067(6) 0.9660(2) 0.8716(3)
N5_2 N 0.4663(4) 0.7380(2) 0.6562(2)
O5_2 O 0.7158(4) 0.19212(18) 0.8129(2)
O6_2 O 0.5779(4) 0.1190(2) 0.8798(2)
O7_2 O 0.5238(4) 0.28966(19) 0.5437(2)
O8 O 0.3019(4) 0.25946(18) 0.49540(19)
C25_2 C 0.5972(6) 0.1574(3) 0.8209(3)
C26 C 0.4805(5) 0.1633(2) 0.7525(3)
C27 C 0.3500(5) 0.1253(2) 0.7575(3)
H19 H 0.3370 0.0979 0.8035
C28 C 0.2390(5) 0.1272(2) 0.6958(3)
C29 C 0.2602(5) 0.1688(2) 0.6278(3)
H20 H 0.1882 0.1702 0.5852
C30 C 0.3889(5) 0.2086(2) 0.6226(3)
C31 C 0.4991(5) 0.2053(2) 0.6850(3)
H21_2 H 0.5852 0.2313 0.6813
C32 C 0.4081(5) 0.2559(2) 0.5495(3)
N4 N 0.1103(5) 0.0893(3) 0.7037(3)
H26 H 0.1045 0.0640 0.7469
Zn2 Zn 0.86759(6) 0.18554(3) 0.90305(3)
H27_2 H 0.9207 0.2422 0.7376
Zn4 Zn 0.36759(6) 0.31446(3) 0.40305(3)
O9 O 0.8019(4) 0.24054(18) 0.99540(19)
N8 N 0.9517(4) 0.08646(18) 0.9093(2)
C13 C 0.9925(6) 0.7429(3) 0.2351(3)
C14 C 0.8961(6) 0.7024(3) 0.2767(3)
H9 H 0.9179 0.6913 0.3314
C15 C 0.7673(6) 0.6779(2) 0.2381(3)
C16 C 0.7386(6) 0.6999(3) 0.1588(3)
H10 H 0.6509 0.6868 0.1310
C17 C 0.8397(6) 0.7415(3) 0.1200(3)
H11 H 0.8174 0.7555 0.0663
C18 C 0.6689(6) 0.6285(3) 0.2758(3)
H12 H 0.5758 0.6224 0.2501
C19 C 0.6989(6) 0.5913(2) 0.3433(3)
H13 H 0.7842 0.6024 0.3747
C20 C 0.6067(6) 0.5340(2) 0.3716(3)
C21 C 0.6703(6) 0.4842(3) 0.4228(3)
H14 H 0.7652 0.4904 0.4460
C22 C 0.5896(6) 0.4243(3) 0.4395(3)
H15 H 0.6340 0.3904 0.4730
C23_2 C 0.3880(6) 0.4648(2) 0.3655(3)
H16_2 H 0.2900 0.4595 0.3468
C24 C 0.4599(6) 0.5249(3) 0.3467(3)
H17 H 0.4099 0.5597 0.3170
N2 N 0.9663(4) 0.7620(2) 0.1562(2)
N3 N 0.4517(4) 0.41354(18) 0.4093(2)
O1_2 O 0.2158(4) 0.30788(18) 0.3129(2)
O2_2 O 0.0779(4) 0.3810(2) 0.3798(2)
O3_2 O 0.0238(4) 0.21034(19) 0.0437(2)
C1_2 C 0.0972(6) 0.3426(3) 0.3209(3)
H3_2 H 0.0852 0.2687 0.1813
C13_2 C 0.5075(6) 0.2429(3) 0.2649(3)
H8_2 H 0.4207 0.2578 0.2376
C14_2 C 0.6039(6) 0.2024(3) 0.2233(3)
H9_2 H 0.5821 0.1913 0.1686
C15_2 C 0.7327(6) 0.1779(2) 0.2619(3)
C16_2 C 0.7614(6) 0.1999(3) 0.3412(3)
H10_2 H 0.8491 0.1868 0.3690
C17_2 C 0.6603(6) 0.2415(3) 0.3800(3)
H11_2 H 0.6826 0.2555 0.4337
C18_2 C 0.8311(6) 0.1285(3) 0.2242(3)
H12_2 H 0.9242 0.1224 0.2499
C19_2 C 0.8011(6) 0.0913(2) 0.1567(3)
H13_2 H 0.7158 0.1024 0.1253
C20_2 C 0.8933(6) 0.0340(2) 0.1284(3)
N2_2 N 0.5337(4) 0.2620(2) 0.3438(2)
C26_2 C 0.0195(5) 0.6633(2) 0.7475(3)
C27_2 C 0.1500(5) 0.6253(2) 0.7425(3)
H19_2 H 0.1630 0.5979 0.6965
C28_2 C 0.2610(5) 0.6272(2) 0.8042(3)
C29_2 C 0.2398(5) 0.6688(2) 0.8722(3)
H20_2 H 0.3118 0.6702 0.9148
C30_2 C 0.1111(5) 0.7086(2) 0.8774(3)
C31_2 C 0.0009(5) 0.7053(2) 0.8150(3)
C32_2 C 0.0919(5) 0.7559(2) 0.9505(3)
C33 C 0.5152(7) 0.5887(3) 0.8545(4)
H22 H 0.6014 0.5737 0.8261
H23 H 0.5334 0.6360 0.8729
C34 C 0.5021(7) 0.5429(3) 0.9297(4)
C35 C 0.4089(8) 0.4862(4) 0.9311(4)
H24 H 0.3470 0.4759 0.8855
C36 C 0.5927(8) 0.5558(4) 0.9993(4)
H25 H 0.6565 0.5937 0.9994
N4_2 N 0.3897(5) 0.5893(3) 0.7963(3)
H26_2 H 0.3955 0.5640 0.7531
C47_2 C 0.8880(6) 0.0352(2) 0.8655(3)
H35_2 H 0.7900 0.0405 0.8468
C9_2 C 0.0152(7) 0.9113(3) 0.3545(4)
H4_2 H 0.1014 0.9263 0.3261
H5_2 H 0.0334 0.8640 0.3729
C10_2 C 0.0021(7) 0.9571(3) 0.4297(4)
C12_2 C 0.0927(8) 0.9442(4) 0.4993(4)
H7_2 H 0.1565 0.9063 0.4994
C35_2 C 0.0911(8) 0.9862(4) 0.5689(4)
H24_2 H 0.1530 0.9759 0.6145
C11_2 C 0.9089(8) 0.0138(4) 0.4311(4)
H6_2 H 0.8470 0.0241 0.3855
C33_2 C 0.9848(7) 0.0887(3) 0.6455(4)
H22_2 H 0.8986 0.0737 0.6739
H23_2 H 0.9666 0.1360 0.6271
C34_2 C 0.9979(7) 0.0429(3) 0.5703(4)
C36_2 C 0.9073(8) 0.0558(4) 0.5007(4)
H25_2 H 0.8435 0.0937 0.5006
C24_2 C 0.0401(6) 0.0249(3) 0.1533(3)
H17_2 H 0.0901 0.0597 0.1830
C21_2 C 0.8297(6) 0.9842(3) 0.0772(3)
H14_2 H 0.7348 0.9904 0.0540
C22_2 C 0.9104(6) 0.9243(3) 0.0605(3)
H15_2 H 0.8660 0.8904 0.0270
C45_2 C 0.1703(6) 0.0158(3) 0.9228(3)
H33_2 H 0.2652 0.0096 0.9460
C46_2 C 0.0896(6) 0.0757(3) 0.9395(3)
H34_2 H 0.1340 0.1096 0.9730
C48_2 C 0.9599(6) 0.9751(3) 0.8467(3)
H36_2 H 0.9099 0.9403 0.8170
loop_
_geom_bond_atom_site_label_1
_geom_bond_atom_site_label_2
_geom_bond_site_symmetry_1
_geom_bond_site_symmetry_2
C38 C37 1_555 1_555
H28 C38 1_555 1_555
C39 C38 1_555 1_555
C40 C39 1_555 1_555
H29 C40 1_555 1_555
C41 C40 1_555 1_555
H30 C41 1_555 1_555
C42 C39 1_555 1_555
H31 C42 1_555 1_555
C43 C42 1_555 1_555
H32 C43 1_555 1_555
C44 C43 1_555 1_555
C45 C44 1_555 1_555
H33 C45 1_555 1_555
C46 C45 1_555 1_555
H34 C46 1_555 1_555
C47 H35 1_555 1_555
C48 C44 1_555 1_555
H36 C48 1_555 1_555
N6 C46 1_555 1_555
Zn6 N6 1_555 1_555
C37 N5 1_555 1_555
C41 N5 1_555 1_555
C47 C48 1_555 1_555
C47 N6 1_555 1_555
Zn1 O1 1_555 1_555
O1 C1 1_555 1_555
O2 C1 1_555 1_555
O3 C8 1_555 1_555
O4 C8 1_555 1_555
C1 C2 1_555 1_555
C2 C3 1_555 1_555
C3 H1 1_555 1_555
C4 C3 1_555 1_555
C5 C4 1_555 1_555
H2 C5 1_555 1_555
C6 C5 1_555 1_555
C7 C2 1_555 1_555
H3 C7 1_555 1_555
C8 C6 1_555 1_555
N1 C4 1_555 1_555
H18 N1 1_555 1_555
Zn6 O4 1_555 1_555
O10 Zn1 1_555 1_555
N7 Zn1 1_555 1_555
C6 C7 1_555 1_555
C23 H16 1_555 1_555
C23 N7 1_555 1_555
C2_2 C3_2 1_555 1_555
C3_2 H1_2 1_555 1_555
C4_2 C3_2 1_555 1_555
C5_2 C4_2 1_555 1_555
H2_2 C5_2 1_555 1_555
C6_2 C5_2 1_555 1_555
C7_2 C2_2 1_555 1_555
C8_2 C6_2 1_555 1_555
C9 H4 1_555 1_555
H5 C9 1_555 1_555
C10 C9 1_555 1_555
C11 C10 1_555 1_555
H6 C11 1_555 1_555
C12 C10 1_555 1_555
H7 C12 1_555 1_555
N1_2 C4_2 1_555 1_555
H18_2 N1_2 1_555 1_555
C6_2 C7_2 1_555 1_555
C9 N1_2 1_555 1_555
O5 C25 1_555 1_555
O6 C25 1_555 1_555
Zn6 O5 1_555 1_555
C37_2 H27 1_555 1_555
C38_2 C37_2 1_555 1_555
H28_2 C38_2 1_555 1_555
C39_2 C38_2 1_555 1_555
C40_2 C39_2 1_555 1_555
H29_2 C40_2 1_555 1_555
C41_2 C40_2 1_555 1_555
H30_2 C41_2 1_555 1_555
C42_2 C39_2 1_555 1_555
H31_2 C42_2 1_555 1_555
C43_2 C42_2 1_555 1_555
H32_2 C43_2 1_555 1_555
C44_2 C43_2 1_555 1_555
N5_2 Zn6 1_555 1_555
C37_2 N5_2 1_555 1_555
C41_2 N5_2 1_555 1_555
O5_2 C25_2 1_555 1_555
O6_2 C25_2 1_555 1_555
O7_2 C32 1_555 1_555
O8 C32 1_555 1_555
C25_2 C26 1_555 1_555
C26 C27 1_555 1_555
C27 H19 1_555 1_555
C28 C27 1_555 1_555
C29 C28 1_555 1_555
H20 C29 1_555 1_555
C30 C29 1_555 1_555
C31 C26 1_555 1_555
H21_2 C31 1_555 1_555
C32 C30 1_555 1_555
N4 C28 1_555 1_555
H26 N4 1_555 1_555
Zn2 O5_2 1_555 1_555
Zn4 O8 1_555 1_555
O9 Zn2 1_555 1_555
N8 Zn2 1_555 1_555
C30 C31 1_555 1_555
C14 C13 1_555 1_555
H9 C14 1_555 1_555
C15 C14 1_555 1_555
C16 C15 1_555 1_555
H10 C16 1_555 1_555
C17 C16 1_555 1_555
H11 C17 1_555 1_555
C18 C15 1_555 1_555
H12 C18 1_555 1_555
C19 C18 1_555 1_555
H13 C19 1_555 1_555
C20 C19 1_555 1_555
C21 C20 1_555 1_555
H14 C21 1_555 1_555
C22 C21 1_555 1_555
H15 C22 1_555 1_555
C23_2 H16_2 1_555 1_555
C24 C20 1_555 1_555
H17 C24 1_555 1_555
N3 C22 1_555 1_555
Zn4 N3 1_555 1_555
C13 N2 1_555 1_555
C17 N2 1_555 1_555
C23_2 C24 1_555 1_555
C23_2 N3 1_555 1_555
Zn4 O1_2 1_555 1_555
O1_2 C1_2 1_555 1_555
O2_2 C1_2 1_555 1_555
C13_2 H8_2 1_555 1_555
C14_2 C13_2 1_555 1_555
H9_2 C14_2 1_555 1_555
C15_2 C14_2 1_555 1_555
C16_2 C15_2 1_555 1_555
H10_2 C16_2 1_555 1_555
C17_2 C16_2 1_555 1_555
H11_2 C17_2 1_555 1_555
C18_2 C15_2 1_555 1_555
H12_2 C18_2 1_555 1_555
C19_2 C18_2 1_555 1_555
H13_2 C19_2 1_555 1_555
C20_2 C19_2 1_555 1_555
N2_2 Zn4 1_555 1_555
C13_2 N2_2 1_555 1_555
C17_2 N2_2 1_555 1_555
C26_2 C27_2 1_555 1_555
C27_2 H19_2 1_555 1_555
C28_2 C27_2 1_555 1_555
C29_2 C28_2 1_555 1_555
H20_2 C29_2 1_555 1_555
C30_2 C29_2 1_555 1_555
C31_2 C26_2 1_555 1_555
C32_2 C30_2 1_555 1_555
C33 H22 1_555 1_555
H23 C33 1_555 1_555
C34 C33 1_555 1_555
H24 C35 1_555 1_555
H25 C36 1_555 1_555
N4_2 C28_2 1_555 1_555
H26_2 N4_2 1_555 1_555
C30_2 C31_2 1_555 1_555
C33 N4_2 1_555 1_555
C34 C35 1_555 1_555
C34 C36 1_555 1_555
C47_2 H35_2 1_555 1_555
C47_2 N8 1_555 1_555
C9_2 H4_2 1_555 1_555
H5_2 C9_2 1_555 1_555
C10_2 C9_2 1_555 1_555
C12_2 C10_2 1_555 1_555
H7_2 C12_2 1_555 1_555
C35_2 C12_2 1_555 1_555
H24_2 C35_2 1_555 1_555
H6_2 C11_2 1_555 1_555
C33_2 H22_2 1_555 1_555
H23_2 C33_2 1_555 1_555
C34_2 C33_2 1_555 1_555
C36_2 C11_2 1_555 1_555
H25_2 C36_2 1_555 1_555
C34_2 C36_2 1_555 1_555
H17_2 C24_2 1_555 1_555
H14_2 C21_2 1_555 1_555
C22_2 C21_2 1_555 1_555
H15_2 C22_2 1_555 1_555
H33_2 C45_2 1_555 1_555
C46_2 C45_2 1_555 1_555
H34_2 C46_2 1_555 1_555
H36_2 C48_2 1_555 1_555

#END
