
###############################################################################
#
# This file contains modified crystal structure data generated from the
# MOF subset of the Cambridge Structural Database (CSD) v543 
# hosted by the Cambridge Crystallographic Data Centre (CCDC).
#
# This work is licensed under the Creative Commons
# Attribution-NonCommercial-ShareAlike 4.0 International License.
# To view a copy of this license, visit
# http://creativecommons.org/licenses/by-nc-sa/4.0/
# or send a letter to
# Creative Commons, PO Box 1866, Mountain View, CA 94042, USA.
#
# CIF created using the CSD Python API on 29 September 2022
# The structure has been converted into the P1 space group
# The structure has a 3D framework
# The original CSD entry HIQPII is in the tetragonal crystal system
# The framework has been calculated to contain at least 10.0% void space
# The void calculation uses a probe of radius 1.32A, grid spacing 0.4
#
###############################################################################

data_HIQPII
_chemical_formula_moiety         '(C24 H24 N8 Zn5)n'
_symmetry_cell_setting           triclinic
_symmetry_space_group_name_H-M   'P 1'
_symmetry_Int_Tables_number      1
_space_group_name_Hall           'P 1'
loop_
_symmetry_equiv_pos_site_id
_symmetry_equiv_pos_as_xyz
1 x,y,z
_cell_length_a                   8.81181(53)
_cell_length_b                   8.81181(53)
_cell_length_c                   7.36675(47)
_cell_angle_alpha                90
_cell_angle_beta                 90
_cell_angle_gamma                90
_cell_volume                     572.013
loop_
_atom_site_label
_atom_site_type_symbol
_atom_site_fract_x
_atom_site_fract_y
_atom_site_fract_z
_atom_site_U_iso_or_equiv
_atom_site_thermal_displace_type
Zn2 Zn 0.00000 0.00000 0.00000 0.0001 Uiso
Zn4 Zn -0.00000 0.00000 0.50000 0.0001 Uiso
Zn2_2 Zn -0.00000 0.00000 1.00000 0.0001 Uiso
Zn2_3 Zn -0.00000 1.00000 0.00000 0.0001 Uiso
Zn4_2 Zn -0.00000 1.00000 0.50000 0.0001 Uiso
Zn2_4 Zn 0.00000 1.00000 1.00000 0.0001 Uiso
C1 C 0.587383 0.00000 0.25000 0.0255 Uiso
C4 C 0.412617 0.00000 0.25000 0.0255 Uiso
C5 C 0.309893 0.078929 0.109683 0.0255 Uiso
N2 N 0.163108 0.052305 0.157015 0.0255 Uiso
C9 C 0.690107 0.078929 0.390317 0.0255 Uiso
C10 C 0.642414 0.160871 0.535990 0.0255 Uiso
H10 H 0.654799 0.102456 0.643360 0.0255 Uiso
H11 H 0.700731 0.251223 0.545144 0.0255 Uiso
H12 H 0.538351 0.186254 0.521367 0.0255 Uiso
N4 N 0.836892 0.052305 0.342985 0.0255 Uiso
Zn2_5 Zn 1.00000 0.00000 0.00000 0.0001 Uiso
Zn4_3 Zn 1.00000 0.00000 0.50000 0.0001 Uiso
C6 C 0.357586 0.160871 0.964010 0.0255 Uiso
H4 H 0.345201 0.102456 0.856640 0.0255 Uiso
H5 H 0.299269 0.251223 0.954856 0.0255 Uiso
H6 H 0.461649 0.186254 0.978633 0.0255 Uiso
Zn2_6 Zn 1.00000 0.00000 1.00000 0.0001 Uiso
C1_2 C 0.587383 1.00000 0.25000 0.0255 Uiso
C2 C 0.690107 0.921071 0.109683 0.0255 Uiso
N1 N 0.836892 0.947695 0.157015 0.0255 Uiso
C4_2 C 0.412617 1.00000 0.25000 0.0255 Uiso
C7 C 0.309893 0.921071 0.390317 0.0255 Uiso
C8 C 0.357586 0.839129 0.535990 0.0255 Uiso
H7 H 0.345201 0.897544 0.643360 0.0255 Uiso
H8 H 0.299269 0.748777 0.545144 0.0255 Uiso
H9 H 0.461649 0.813746 0.521367 0.0255 Uiso
N3 N 0.163108 0.947695 0.342985 0.0255 Uiso
Zn2_7 Zn 1.00000 1.00000 0.00000 0.0001 Uiso
Zn4_4 Zn 1.00000 1.00000 0.50000 0.0001 Uiso
C3 C 0.642414 0.839129 0.964010 0.0255 Uiso
H1 H 0.654799 0.897544 0.856640 0.0255 Uiso
H2 H 0.700731 0.748777 0.954856 0.0255 Uiso
H3 H 0.538351 0.813746 0.978633 0.0255 Uiso
Zn2_8 Zn 1.00000 1.00000 1.00000 0.0001 Uiso
N5 N 0.052305 0.836892 0.842985 0.0255 Uiso
N6 N 0.947695 0.163108 0.842985 0.0255 Uiso
N6_2 N 0.052305 0.163108 0.657015 0.0255 Uiso
N5_2 N 0.947695 0.836892 0.657015 0.0255 Uiso
C8_2 C 0.160871 0.642414 0.035990 0.0255 Uiso
H7_2 H 0.102456 0.654799 0.143360 0.0255 Uiso
H8_2 H 0.251223 0.700731 0.045144 0.0255 Uiso
H9_2 H 0.186254 0.538351 0.021367 0.0255 Uiso
C1_3 C 0.00000 0.412617 0.75000 0.0255 Uiso
C2_2 C 0.078929 0.309893 0.609683 0.0255 Uiso
C3_2 C 0.160871 0.357586 0.464010 0.0255 Uiso
H1_2 H 0.102456 0.345201 0.356640 0.0255 Uiso
H2_2 H 0.251223 0.299269 0.454856 0.0255 Uiso
H3_2 H 0.186254 0.461649 0.478633 0.0255 Uiso
C4_3 C 0.00000 0.587383 0.75000 0.0255 Uiso
C7_2 C 0.078929 0.690107 0.890317 0.0255 Uiso
C10_2 C 0.839129 0.357586 0.035990 0.0255 Uiso
H10_2 H 0.897544 0.345201 0.143360 0.0255 Uiso
H11_2 H 0.748777 0.299269 0.045144 0.0255 Uiso
H12_2 H 0.813746 0.461649 0.021367 0.0255 Uiso
C1_4 C 1.00000 0.412617 0.75000 0.0255 Uiso
C4_4 C 1.00000 0.587383 0.75000 0.0255 Uiso
C5_2 C 0.921071 0.690107 0.609683 0.0255 Uiso
C6_2 C 0.839129 0.642414 0.464010 0.0255 Uiso
H4_2 H 0.897544 0.654799 0.356640 0.0255 Uiso
H5_2 H 0.748777 0.700731 0.454856 0.0255 Uiso
H6_2 H 0.813746 0.538351 0.478633 0.0255 Uiso
C9_2 C 0.921071 0.309893 0.890317 0.0255 Uiso
loop_
_geom_bond_atom_site_label_1
_geom_bond_atom_site_label_2
_geom_bond_site_symmetry_1
_geom_bond_site_symmetry_2
Zn2 N2 1_555 1_555
C4 C1 1_555 1_555
C5 C4 1_555 1_555
N2 C5 1_555 1_555
C9 C1 1_555 1_555
C10 C9 1_555 1_555
H10 C10 1_555 1_555
H11 C10 1_555 1_555
H12 C10 1_555 1_555
Zn4_3 N4 1_555 1_555
C9 N4 1_555 1_555
H4 C6 1_555 1_555
H5 C6 1_555 1_555
H6 C6 1_555 1_555
C1_2 C2 1_555 1_555
N1 C2 1_555 1_555
C4_2 C1_2 1_555 1_555
C7 C4_2 1_555 1_555
C8 C7 1_555 1_555
H7 C8 1_555 1_555
H8 C8 1_555 1_555
H9 C8 1_555 1_555
Zn2_7 N1 1_555 1_555
Zn4_2 N3 1_555 1_555
C7 N3 1_555 1_555
C3 H1 1_555 1_555
H2 C3 1_555 1_555
H3 C3 1_555 1_555
N5 Zn2_4 1_555 1_555
N6 Zn2_6 1_555 1_555
N6_2 Zn4 1_555 1_555
N5_2 Zn4_4 1_555 1_555
H7_2 C8_2 1_555 1_555
H8_2 C8_2 1_555 1_555
H9_2 C8_2 1_555 1_555
C1_3 C2_2 1_555 1_555
C2_2 C3_2 1_555 1_555
C3_2 H1_2 1_555 1_555
H2_2 C3_2 1_555 1_555
H3_2 C3_2 1_555 1_555
N6_2 C2_2 1_555 1_555
C4_3 C1_3 1_555 1_555
C7_2 C4_3 1_555 1_555
C7_2 N5 1_555 1_555
H10_2 C10_2 1_555 1_555
H11_2 C10_2 1_555 1_555
H12_2 C10_2 1_555 1_555
C4_4 C1_4 1_555 1_555
C5_2 C4_4 1_555 1_555
C6_2 C5_2 1_555 1_555
H4_2 C6_2 1_555 1_555
H5_2 C6_2 1_555 1_555
H6_2 C6_2 1_555 1_555
N5_2 C5_2 1_555 1_555
C9_2 C1_4 1_555 1_555
C9_2 N6 1_555 1_555

#END
