
###############################################################################
#
# This file contains modified crystal structure data generated from the
# MOF subset of the Cambridge Structural Database (CSD) v543 
# hosted by the Cambridge Crystallographic Data Centre (CCDC).
#
# This work is licensed under the Creative Commons
# Attribution-NonCommercial-ShareAlike 4.0 International License.
# To view a copy of this license, visit
# http://creativecommons.org/licenses/by-nc-sa/4.0/
# or send a letter to
# Creative Commons, PO Box 1866, Mountain View, CA 94042, USA.
#
# CIF created using the CSD Python API on 29 September 2022
# The structure has been converted into the P1 space group
# The structure has a 3D framework
# The original CSD entry HIQPEE is in the tetragonal crystal system
# The framework has been calculated to contain at least 10.0% void space
# The void calculation uses a probe of radius 1.32A, grid spacing 0.4
#
###############################################################################

data_HIQPEE
_chemical_formula_moiety         '(C24 H24 Co5 N8)n'
_symmetry_cell_setting           triclinic
_symmetry_space_group_name_H-M   'P 1'
_symmetry_Int_Tables_number      1
_space_group_name_Hall           'P 1'
loop_
_symmetry_equiv_pos_site_id
_symmetry_equiv_pos_as_xyz
1 x,y,z
_cell_length_a                   8.81048(29)
_cell_length_b                   8.81048(29)
_cell_length_c                   7.34274(25)
_cell_angle_alpha                90
_cell_angle_beta                 90
_cell_angle_gamma                90
_cell_volume                     569.977
loop_
_atom_site_label
_atom_site_type_symbol
_atom_site_fract_x
_atom_site_fract_y
_atom_site_fract_z
_atom_site_U_iso_or_equiv
_atom_site_thermal_displace_type
Co2 Co 0.00000 0.00000 0.00000 0.0179 Uiso
Co4 Co 0.00000 0.00000 0.50000 0.0179 Uiso
Co2_2 Co 0.00000 0.00000 1.00000 0.0179 Uiso
Co2_3 Co 0.00000 1.00000 0.00000 0.0179 Uiso
Co4_2 Co 0.00000 1.00000 0.50000 0.0179 Uiso
Co2_4 Co 0.00000 1.00000 1.00000 0.0179 Uiso
C1 C 0.587396 0.00000 0.25000 0.0432 Uiso
C4 C 0.412604 0.00000 0.25000 0.0432 Uiso
C5 C 0.309864 0.078324 0.108729 0.0432 Uiso
N2 N 0.163057 0.051904 0.156382 0.0432 Uiso
C9 C 0.690136 0.078324 0.391271 0.0432 Uiso
C10 C 0.642436 0.159638 0.537935 0.0432 Uiso
H10 H 0.698670 0.251419 0.545545 0.0432 Uiso
H11 H 0.537588 0.182448 0.525172 0.0432 Uiso
H12 H 0.657681 0.101926 0.645681 0.0432 Uiso
N4 N 0.836943 0.051904 0.343618 0.0432 Uiso
Co2_5 Co 1.00000 0.00000 0.00000 0.0179 Uiso
Co4_3 Co 1.00000 0.00000 0.50000 0.0179 Uiso
C6 C 0.357564 0.159638 0.962065 0.0432 Uiso
H4 H 0.301330 0.251419 0.954455 0.0432 Uiso
H5 H 0.462412 0.182448 0.974828 0.0432 Uiso
H6 H 0.342319 0.101926 0.854319 0.0432 Uiso
Co2_6 Co 1.00000 0.00000 1.00000 0.0179 Uiso
C1_2 C 0.587396 1.00000 0.25000 0.0432 Uiso
C2 C 0.690136 0.921676 0.108729 0.0432 Uiso
N1 N 0.836943 0.948096 0.156382 0.0432 Uiso
C4_2 C 0.412604 1.00000 0.25000 0.0432 Uiso
C7 C 0.309864 0.921676 0.391271 0.0432 Uiso
C8 C 0.357564 0.840362 0.537935 0.0432 Uiso
H7 H 0.301330 0.748581 0.545545 0.0432 Uiso
H8 H 0.462412 0.817552 0.525172 0.0432 Uiso
H9 H 0.342319 0.898074 0.645681 0.0432 Uiso
N3 N 0.163057 0.948096 0.343618 0.0432 Uiso
Co2_7 Co 1.00000 1.00000 0.00000 0.0179 Uiso
Co4_4 Co 1.00000 1.00000 0.50000 0.0179 Uiso
C3 C 0.642436 0.840362 0.962065 0.0432 Uiso
H1 H 0.698670 0.748581 0.954455 0.0432 Uiso
H2 H 0.537588 0.817552 0.974828 0.0432 Uiso
H3 H 0.657681 0.898074 0.854319 0.0432 Uiso
Co2_8 Co 1.00000 1.00000 1.00000 0.0179 Uiso
N5 N 0.051904 0.836943 0.843618 0.0432 Uiso
N6 N 0.948096 0.163057 0.843618 0.0432 Uiso
N6_2 N 0.051904 0.163057 0.656382 0.0432 Uiso
N5_2 N 0.948096 0.836943 0.656382 0.0432 Uiso
C8_2 C 0.159638 0.642436 0.037935 0.0432 Uiso
H7_2 H 0.251419 0.698670 0.045545 0.0432 Uiso
H8_2 H 0.182448 0.537588 0.025172 0.0432 Uiso
H9_2 H 0.101926 0.657681 0.145681 0.0432 Uiso
C1_3 C 0.00000 0.412604 0.75000 0.0432 Uiso
C2_2 C 0.078324 0.309864 0.608729 0.0432 Uiso
C3_2 C 0.159638 0.357564 0.462065 0.0432 Uiso
H1_2 H 0.251419 0.301330 0.454455 0.0432 Uiso
H2_2 H 0.182448 0.462412 0.474828 0.0432 Uiso
H3_2 H 0.101926 0.342319 0.354319 0.0432 Uiso
C4_3 C 0.00000 0.587396 0.75000 0.0432 Uiso
C7_2 C 0.078324 0.690136 0.891271 0.0432 Uiso
C10_2 C 0.840362 0.357564 0.037935 0.0432 Uiso
H10_2 H 0.748581 0.301330 0.045545 0.0432 Uiso
H11_2 H 0.817552 0.462412 0.025172 0.0432 Uiso
H12_2 H 0.898074 0.342319 0.145681 0.0432 Uiso
C1_4 C 1.00000 0.412604 0.75000 0.0432 Uiso
C4_4 C 1.00000 0.587396 0.75000 0.0432 Uiso
C5_2 C 0.921676 0.690136 0.608729 0.0432 Uiso
C6_2 C 0.840362 0.642436 0.462065 0.0432 Uiso
H4_2 H 0.748581 0.698670 0.454455 0.0432 Uiso
H5_2 H 0.817552 0.537588 0.474828 0.0432 Uiso
H6_2 H 0.898074 0.657681 0.354319 0.0432 Uiso
C9_2 C 0.921676 0.309864 0.891271 0.0432 Uiso
loop_
_geom_bond_atom_site_label_1
_geom_bond_atom_site_label_2
_geom_bond_site_symmetry_1
_geom_bond_site_symmetry_2
Co2 N2 1_555 1_555
C4 C1 1_555 1_555
C5 C4 1_555 1_555
N2 C5 1_555 1_555
C9 C1 1_555 1_555
C10 C9 1_555 1_555
H10 C10 1_555 1_555
H11 C10 1_555 1_555
H12 C10 1_555 1_555
Co4_3 N4 1_555 1_555
C9 N4 1_555 1_555
H4 C6 1_555 1_555
H5 C6 1_555 1_555
H6 C6 1_555 1_555
C1_2 C2 1_555 1_555
N1 C2 1_555 1_555
C4_2 C1_2 1_555 1_555
C7 C4_2 1_555 1_555
C8 C7 1_555 1_555
H7 C8 1_555 1_555
H8 C8 1_555 1_555
H9 C8 1_555 1_555
Co2_7 N1 1_555 1_555
Co4_2 N3 1_555 1_555
C7 N3 1_555 1_555
C3 H1 1_555 1_555
H2 C3 1_555 1_555
H3 C3 1_555 1_555
N5 Co2_4 1_555 1_555
N6 Co2_6 1_555 1_555
N6_2 Co4 1_555 1_555
N5_2 Co4_4 1_555 1_555
H7_2 C8_2 1_555 1_555
H8_2 C8_2 1_555 1_555
H9_2 C8_2 1_555 1_555
C1_3 C2_2 1_555 1_555
C2_2 C3_2 1_555 1_555
C3_2 H1_2 1_555 1_555
H2_2 C3_2 1_555 1_555
H3_2 C3_2 1_555 1_555
N6_2 C2_2 1_555 1_555
C4_3 C1_3 1_555 1_555
C7_2 C4_3 1_555 1_555
C7_2 N5 1_555 1_555
H10_2 C10_2 1_555 1_555
H11_2 C10_2 1_555 1_555
H12_2 C10_2 1_555 1_555
C4_4 C1_4 1_555 1_555
C5_2 C4_4 1_555 1_555
C6_2 C5_2 1_555 1_555
H4_2 C6_2 1_555 1_555
H5_2 C6_2 1_555 1_555
H6_2 C6_2 1_555 1_555
N5_2 C5_2 1_555 1_555
C9_2 C1_4 1_555 1_555
C9_2 N6 1_555 1_555

#END
