
###############################################################################
#
# This file contains modified crystal structure data generated from the
# MOF subset of the Cambridge Structural Database (CSD) v543 
# hosted by the Cambridge Crystallographic Data Centre (CCDC).
#
# This work is licensed under the Creative Commons
# Attribution-NonCommercial-ShareAlike 4.0 International License.
# To view a copy of this license, visit
# http://creativecommons.org/licenses/by-nc-sa/4.0/
# or send a letter to
# Creative Commons, PO Box 1866, Mountain View, CA 94042, USA.
#
# CIF created using the CSD Python API on 29 September 2022
# The structure has been converted into the P1 space group
# The structure has a 3D framework
# The original CSD entry HIQTOT is in the monoclinic crystal system
# The framework has been calculated to contain at least 10.0% void space
# The void calculation uses a probe of radius 1.32A, grid spacing 0.4
#
###############################################################################

data_HIQTOT
_chemical_formula_moiety         '(C128 H88 Cd10 Mn5 N29 O56)n'
_symmetry_cell_setting           triclinic
_symmetry_space_group_name_H-M   'P 1'
_symmetry_Int_Tables_number      1
_space_group_name_Hall           'P 1'
loop_
_symmetry_equiv_pos_site_id
_symmetry_equiv_pos_as_xyz
1 x,y,z
_cell_length_a                   21.7859(10)
_cell_length_b                   17.0116(7)
_cell_length_c                   13.1203(6)
_cell_angle_alpha                90
_cell_angle_beta                 112.2400(10)
_cell_angle_gamma                90
_cell_volume                     4500.81
loop_
_atom_site_label
_atom_site_type_symbol
_atom_site_fract_x
_atom_site_fract_y
_atom_site_fract_z
Cd1 Cd 0.34669(2) 0.04875(2) 0.31228(2)
Cd2 Cd 0.5000 0.11657(3) 0.2500
Mn1 Mn 0.5000 0.0000 0.5000
O1 O 0.45227(13) 0.09215(16) 0.3750(2)
O2 O 0.55492(15) 0.08204(17) 0.6255(3)
O3 O 0.78438(14) 0.33654(17) 0.7709(2)
O4 O 0.72950(14) 0.44739(17) 0.7573(2)
O5 O 0.66560(15) 0.08287(18) 0.6959(3)
N1 N 0.08639(16) 0.5363(2) 0.3604(3)
N2 N 0.14503(16) 0.4673(2) 0.5020(3)
N3 N 0.14806(16) 0.5359(2) 0.3617(3)
N4 N 0.08455(16) 0.4959(2) 0.4435(3)
O6 O 0.50428(16) 0.49002(19) 0.6290(3)
O7 O 0.56286(17) 0.2164(2) 0.3507(3)
H1 H 0.6063 0.2163 0.3824
H2 H 0.5477 0.2612 0.3643
N5 N 0.48294(17) 0.3598(2) 0.5963(3)
H3 H 0.4508 0.3272 0.5673
C1 C 0.73001(19) 0.3743(2) 0.7487(3)
C2 C 0.18330(19) 0.4930(2) 0.4500(3)
C3 C 0.66619(18) 0.3289(2) 0.7093(3)
C4 C 0.54667(18) 0.3264(2) 0.6354(3)
C5 C 0.6099(2) 0.1169(2) 0.6628(3)
C6 C 0.6094(2) 0.2052(2) 0.6693(3)
C7 C 0.60584(19) 0.3694(2) 0.6739(3)
H4 H 0.6051 0.4240 0.6758
C8 C 0.3909(2) 0.4484(2) 0.5575(3)
C9 C 0.66824(19) 0.2475(2) 0.7079(3)
H5 H 0.7088 0.2214 0.7326
C10 C 0.54923(19) 0.2443(2) 0.6337(3)
H6 H 0.5100 0.2156 0.6084
C11 C 0.25485(19) 0.4775(3) 0.4853(3)
C12 C 0.4647(2) 0.4358(3) 0.5976(3)
C13 C 0.2991(2) 0.5390(3) 0.4956(4)
H7 H 0.2833 0.5900 0.4781
C14 C 0.3668(2) 0.5244(3) 0.5318(4)
H8 H 0.3960 0.5658 0.5389
C15 C 0.2788(2) 0.4011(3) 0.5113(4)
H9 H 0.2496 0.3597 0.5044
C16 C 0.3464(2) 0.3869(3) 0.5475(4)
H10 H 0.3624 0.3360 0.5653
H11 H 0.455(3) 0.142(2) 0.410(5)
Cd3 Cd 0.65331(2) 0.04875(2) 0.18772(2)
O8 O 0.54773(13) 0.09215(16) 0.1250(2)
O9 O 0.43714(17) 0.2164(2) 0.1493(3)
H12 H 0.3937 0.2163 0.1176
H13 H 0.4523 0.2612 0.1357
H14 H 0.545(3) 0.142(2) 0.090(5)
O10 O 0.05492(15) 0.41796(17) 0.1255(3)
O11 O 0.28438(14) 0.16346(17) 0.2709(2)
O12 O 0.22950(14) 0.05261(17) 0.2573(2)
O13 O 0.16560(15) 0.41713(18) 0.1959(3)
O14 O 0.00428(16) 0.00998(19) 0.1290(3)
C17 C 0.23001(19) 0.1257(2) 0.2487(3)
C19 C 0.16619(18) 0.1711(2) 0.2093(3)
C20 C 0.04667(18) 0.1736(2) 0.1354(3)
C21 C 0.1099(2) 0.3831(2) 0.1628(3)
C22 C 0.1094(2) 0.2948(2) 0.1693(3)
C23 C 0.10584(19) 0.1306(2) 0.1739(3)
H16 H 0.1051 0.0760 0.1758
C25 C 0.16824(19) 0.2525(2) 0.2079(3)
H17 H 0.2088 0.2786 0.2326
C26 C 0.04923(19) 0.2557(2) 0.1337(3)
H18 H 0.0100 0.2844 0.1084
Cd5 Cd 0.15331(2) 0.54875(2) 0.18772(2)
Cd8 Cd 0.15331(2) 0.45125(2) 0.68772(2)
Cd9 Cd 0.84669(2) 0.45125(2) 0.81228(2)
Cd10 Cd -0.0000 0.61657(3) 0.2500
Mn3 Mn 0.5000 0.0000 0.0000
Mn4 Mn -0.0000 0.5000 0.5000
Mn5 Mn 0.0000 0.5000 0.0000
O17 O 0.71562(14) 0.16346(17) 0.2291(2)
O18 O 0.77050(14) 0.05261(17) 0.2427(2)
N11 N 0.58639(16) 0.0363(2) 0.3604(3)
N12 N 0.41361(16) 0.0363(2) 0.1396(3)
N13 N 0.35497(16) 0.0327(2) 0.4980(3)
N14 N 0.64503(16) 0.0327(2) 0.0020(3)
N15 N 0.64806(16) 0.0359(2) 0.3617(3)
N16 N 0.35194(16) 0.0359(2) 0.1383(3)
N18 N 0.41545(16) 0.0041(2) 0.5565(3)
Mn3_2 Mn 0.5000 0.0000 1.0000
Mn5_2 Mn -0.0000 0.5000 1.0000
Mn1_2 Mn 0.5000 1.0000 0.5000
Cd7 Cd 0.65331(2) 0.95125(2) 0.68772(2)
Mn3_3 Mn 0.5000 1.0000 0.0000
O15 O 0.54773(13) 0.90785(16) 0.6250(2)
O16 O 0.44508(15) 0.91796(17) 0.3745(3)
O19 O 0.33440(15) 0.91713(18) 0.3041(3)
O20 O 0.66560(15) 0.91713(18) 0.1959(3)
N17 N 0.58455(16) 0.9959(2) 0.4435(3)
Mn3_4 Mn 0.5000 1.0000 1.0000
N10 N 0.98294(17) 0.1402(2) 0.0963(3)
H15 H 0.9508 0.1728 0.0673
C24 C 0.8909(2) 0.0516(2) 0.0575(3)
C28 C 0.9647(2) 0.0642(3) 0.0976(3)
C31 C 0.7788(2) 0.0989(3) 0.0113(4)
H21 H 0.7496 0.1403 0.0044
C32 C 0.8464(2) 0.1131(3) 0.0475(4)
H22 H 0.8624 0.1640 0.0653
Cd10_2 Cd 1.0000 0.61657(3) 0.2500
Mn4_2 Mn 1.0000 0.5000 0.5000
Mn5_3 Mn 1.0000 0.5000 0.0000
N9 N 0.58455(16) 0.0041(2) 0.9435(3)
C18 C 0.68330(19) 0.0070(2) 0.9500(3)
C27 C 0.75485(19) 0.0225(3) 0.9853(3)
Mn5_4 Mn 1.0000 0.5000 1.0000
C30 C 0.8668(2) 0.9756(3) 0.0318(4)
H20 H 0.8960 0.9342 0.0389
N6 N 0.58639(16) 0.9637(2) 0.8604(3)
N8 N 0.64806(16) 0.9641(2) 0.8617(3)
C29 C 0.7991(2) 0.9610(3) 0.9956(4)
H19 H 0.7833 0.9100 0.9781
Cd11 Cd 0.5000 0.88343(3) 0.7500
N10_2 N 0.01706(17) 0.1402(2) 0.4037(3)
H15_2 H 0.0492 0.1728 0.4327
C18_2 C 0.31670(19) 0.0070(2) 0.5500(3)
C24_2 C 0.1091(2) 0.0516(2) 0.4425(3)
C27_2 C 0.24515(19) 0.0225(3) 0.5147(3)
C28_2 C 0.0353(2) 0.0642(3) 0.4024(3)
C31_2 C 0.2212(2) 0.0989(3) 0.4887(4)
H21_2 H 0.2504 0.1403 0.4956
C32_2 C 0.1536(2) 0.1131(3) 0.4525(4)
H22_2 H 0.1376 0.1640 0.4347
N6_2 N 0.41361(16) 0.9637(2) 0.6396(3)
N8_2 N 0.35194(16) 0.9641(2) 0.6383(3)
C29_2 C 0.2009(2) 0.9610(3) 0.5044(4)
H19_2 H 0.2167 0.9100 0.5219
C30_2 C 0.1332(2) 0.9756(3) 0.4682(4)
H20_2 H 0.1040 0.9342 0.4611
Cd6 Cd 0.34669(2) 0.95125(2) 0.81228(2)
N1_2 N 0.91361(16) 0.5363(2) 0.1396(3)
N3_2 N 0.85194(16) 0.5359(2) 0.1383(3)
N4_2 N 0.91545(16) 0.4959(2) 0.0565(3)
C2_2 C 0.81670(19) 0.4930(2) 0.0500(3)
C11_2 C 0.74515(19) 0.4775(3) 0.0147(3)
C13_2 C 0.7009(2) 0.5390(3) 0.0044(4)
H7_2 H 0.7167 0.5900 0.0219
O10_2 O 0.94508(15) 0.41796(17) 0.3745(3)
O13_2 O 0.83440(15) 0.41713(18) 0.3041(3)
O14_2 O 0.99572(16) 0.00998(19) 0.3710(3)
C17_2 C 0.76999(19) 0.1257(2) 0.2513(3)
C19_2 C 0.83381(18) 0.1711(2) 0.2907(3)
C20_2 C 0.95333(18) 0.1736(2) 0.3646(3)
C21_2 C 0.8901(2) 0.3831(2) 0.3372(3)
C22_2 C 0.8906(2) 0.2948(2) 0.3307(3)
C23_2 C 0.89416(19) 0.1306(2) 0.3261(3)
H16_2 H 0.8949 0.0760 0.3242
C25_2 C 0.83176(19) 0.2525(2) 0.2921(3)
H17_2 H 0.7912 0.2786 0.2674
C26_2 C 0.95077(19) 0.2557(2) 0.3663(3)
H18_2 H 0.9900 0.2844 0.3916
Cd5_2 Cd 0.84669(2) 0.54875(2) 0.31228(2)
O2_2 O 0.44508(15) 0.08204(17) 0.8745(3)
O3_2 O 0.21562(14) 0.33654(17) 0.7291(2)
O4_2 O 0.27050(14) 0.44739(17) 0.7427(2)
O5_2 O 0.33440(15) 0.08287(18) 0.8041(3)
N2_2 N 0.85497(16) 0.4673(2) 0.9980(3)
O6_2 O 0.49572(16) 0.49002(19) 0.8710(3)
N5_2 N 0.51706(17) 0.3598(2) 0.9037(3)
H3_2 H 0.5492 0.3272 0.9327
C1_2 C 0.26999(19) 0.3743(2) 0.7513(3)
C3_2 C 0.33381(18) 0.3289(2) 0.7907(3)
C4_2 C 0.45333(18) 0.3264(2) 0.8646(3)
C5_2 C 0.3901(2) 0.1169(2) 0.8372(3)
C6_2 C 0.3906(2) 0.2052(2) 0.8307(3)
C7_2 C 0.39416(19) 0.3694(2) 0.8261(3)
H4_2 H 0.3949 0.4240 0.8242
C8_2 C 0.6091(2) 0.4484(2) 0.9425(3)
C9_2 C 0.33176(19) 0.2475(2) 0.7921(3)
H5_2 H 0.2912 0.2214 0.7674
C10_2 C 0.45077(19) 0.2443(2) 0.8663(3)
H6_2 H 0.4900 0.2156 0.8916
C12_2 C 0.5353(2) 0.4358(3) 0.9024(3)
C14_2 C 0.6332(2) 0.5244(3) 0.9682(4)
H8_2 H 0.6040 0.5658 0.9611
C15_2 C 0.7212(2) 0.4011(3) 0.9887(4)
H9_2 H 0.7504 0.3597 0.9956
C16_2 C 0.6536(2) 0.3869(3) 0.9525(4)
H10_2 H 0.6376 0.3360 0.9347
O16_2 O 0.55492(15) 0.91796(17) 0.1255(3)
N17_2 N 0.41545(16) 0.9959(2) 0.0565(3)
O15_2 O 0.45227(13) 0.90785(16) 0.8750(2)
O2_3 O 0.05492(15) 0.58204(17) 0.6255(3)
O3_3 O 0.28438(14) 0.83654(17) 0.7709(2)
O4_3 O 0.22950(14) 0.94739(17) 0.7573(2)
O5_3 O 0.16560(15) 0.58287(18) 0.6959(3)
O6_3 O 0.00428(16) 0.99002(19) 0.6290(3)
O7_2 O 0.06286(17) 0.7164(2) 0.3507(3)
H1_2 H 0.1063 0.7163 0.3824
H2_2 H 0.0477 0.7612 0.3643
C1_3 C 0.23001(19) 0.8743(2) 0.7487(3)
C3_3 C 0.16619(18) 0.8289(2) 0.7093(3)
C4_3 C 0.04667(18) 0.8264(2) 0.6354(3)
C5_3 C 0.1099(2) 0.6169(2) 0.6628(3)
C6_3 C 0.1094(2) 0.7052(2) 0.6693(3)
C7_3 C 0.10584(19) 0.8694(2) 0.6739(3)
H4_3 H 0.1051 0.9240 0.6758
C9_3 C 0.16824(19) 0.7475(2) 0.7079(3)
H5_3 H 0.2088 0.7214 0.7326
C10_3 C 0.04923(19) 0.7443(2) 0.6337(3)
H6_3 H 0.0100 0.7156 0.6084
O8_2 O 0.04773(13) 0.59215(16) 0.1250(2)
H14_2 H 0.045(3) 0.642(2) 0.090(5)
O15_3 O 0.04773(13) 0.40785(16) 0.6250(2)
O17_2 O 0.21562(14) 0.66346(17) 0.2291(2)
O18_2 O 0.27050(14) 0.55261(17) 0.2427(2)
N14_2 N 0.14503(16) 0.5327(2) 0.0020(3)
C13_3 C 0.7991(2) 0.0390(3) 0.4956(4)
H7_3 H 0.7833 0.0900 0.4781
C14_3 C 0.8668(2) 0.0244(3) 0.5318(4)
H8_3 H 0.8960 0.0658 0.5389
O1_2 O 0.95227(13) 0.59215(16) 0.3750(2)
N2_3 N 0.64503(16) 0.9673(2) 0.5020(3)
N5_3 N 0.98294(17) 0.8598(2) 0.5963(3)
H3_3 H 0.9508 0.8272 0.5673
C2_3 C 0.68330(19) 0.9930(2) 0.4500(3)
C8_3 C 0.8909(2) 0.9484(2) 0.5575(3)
C11_3 C 0.75485(19) 0.9775(3) 0.4853(3)
C12_3 C 0.9647(2) 0.9358(3) 0.5976(3)
C15_3 C 0.7788(2) 0.9011(3) 0.5113(4)
H9_3 H 0.7496 0.8597 0.5044
C16_3 C 0.8464(2) 0.8869(3) 0.5475(4)
H10_3 H 0.8624 0.8360 0.5653
H11_2 H 0.955(3) 0.642(2) 0.410(5)
O9_2 O 0.93714(17) 0.7164(2) 0.1493(3)
H12_2 H 0.8937 0.7163 0.1176
H13_2 H 0.9523 0.7612 0.1357
O11_2 O 0.78438(14) 0.66346(17) 0.2709(2)
O12_2 O 0.72950(14) 0.55261(17) 0.2573(2)
O14_3 O 0.50428(16) 0.50998(19) 0.1290(3)
N10_3 N 0.48294(17) 0.6402(2) 0.0963(3)
H15_3 H 0.4508 0.6728 0.0673
C17_3 C 0.73001(19) 0.6257(2) 0.2487(3)
C19_3 C 0.66619(18) 0.6711(2) 0.2093(3)
C20_3 C 0.54667(18) 0.6736(2) 0.1354(3)
C21_3 C 0.6099(2) 0.8831(2) 0.1628(3)
C22_3 C 0.6094(2) 0.7948(2) 0.1693(3)
C23_3 C 0.60584(19) 0.6306(2) 0.1739(3)
H16_3 H 0.6051 0.5760 0.1758
C24_3 C 0.3909(2) 0.5516(2) 0.0575(3)
C25_3 C 0.66824(19) 0.7525(2) 0.2079(3)
H17_3 H 0.7088 0.7786 0.2326
C26_3 C 0.54923(19) 0.7557(2) 0.1337(3)
H18_3 H 0.5100 0.7844 0.1084
C28_3 C 0.4647(2) 0.5642(3) 0.0976(3)
C30_3 C 0.3668(2) 0.4756(3) 0.0318(4)
H20_3 H 0.3960 0.4342 0.0389
C31_3 C 0.2788(2) 0.5989(3) 0.0113(4)
H21_3 H 0.2496 0.6403 0.0044
C32_3 C 0.3464(2) 0.6131(3) 0.0475(4)
H22_3 H 0.3624 0.6640 0.0653
N13_2 N 0.85497(16) 0.5327(2) 0.4980(3)
N18_2 N 0.91545(16) 0.5041(2) 0.5565(3)
N6_3 N 0.08639(16) 0.4637(2) 0.8604(3)
N8_3 N 0.14806(16) 0.4641(2) 0.8617(3)
N9_2 N 0.08455(16) 0.5041(2) 0.9435(3)
C18_3 C 0.18330(19) 0.5070(2) 0.9500(3)
C27_3 C 0.25485(19) 0.5225(3) 0.9853(3)
C29_3 C 0.2991(2) 0.4610(3) 0.9956(4)
H19_3 H 0.2833 0.4100 0.9781
Cd11_2 Cd -0.0000 0.38343(3) 0.7500
Cd11_3 Cd 1.0000 0.38343(3) 0.7500
C13_4 C 0.2009(2) 0.0390(3) 0.0044(4)
H7_4 H 0.2167 0.0900 0.0219
C14_4 C 0.1332(2) 0.0244(3) 0.9682(4)
H8_4 H 0.1040 0.0658 0.9611
C2_4 C 0.31670(19) 0.9930(2) 0.0500(3)
C11_4 C 0.24515(19) 0.9775(3) 0.0147(3)
N6_4 N 0.91361(16) 0.4637(2) 0.6396(3)
N8_4 N 0.85194(16) 0.4641(2) 0.6383(3)
O14_4 O 0.49572(16) 0.50998(19) 0.3710(3)
N10_4 N 0.51706(17) 0.6402(2) 0.4037(3)
H15_4 H 0.5492 0.6728 0.4327
C17_4 C 0.26999(19) 0.6257(2) 0.2513(3)
C18_4 C 0.81670(19) 0.5070(2) 0.5500(3)
C19_4 C 0.33381(18) 0.6711(2) 0.2907(3)
C20_4 C 0.45333(18) 0.6736(2) 0.3646(3)
C21_4 C 0.3901(2) 0.8831(2) 0.3372(3)
C22_4 C 0.3906(2) 0.7948(2) 0.3307(3)
C23_4 C 0.39416(19) 0.6306(2) 0.3261(3)
H16_4 H 0.3949 0.5760 0.3242
C24_4 C 0.6091(2) 0.5516(2) 0.4425(3)
C25_4 C 0.33176(19) 0.7525(2) 0.2921(3)
H17_4 H 0.2912 0.7786 0.2674
C26_4 C 0.45077(19) 0.7557(2) 0.3663(3)
H18_4 H 0.4900 0.7844 0.3916
C27_4 C 0.74515(19) 0.5225(3) 0.5147(3)
C28_4 C 0.5353(2) 0.5642(3) 0.4024(3)
C29_4 C 0.7009(2) 0.4610(3) 0.5044(4)
H19_4 H 0.7167 0.4100 0.5219
C30_4 C 0.6332(2) 0.4756(3) 0.4682(4)
H20_4 H 0.6040 0.4342 0.4611
C31_4 C 0.7212(2) 0.5989(3) 0.4887(4)
H21_4 H 0.7504 0.6403 0.4956
C32_4 C 0.6536(2) 0.6131(3) 0.4525(4)
H22_4 H 0.6376 0.6640 0.4347
N2_4 N 0.35497(16) 0.9673(2) 0.9980(3)
N5_4 N 0.01706(17) 0.8598(2) 0.9037(3)
H3_4 H 0.0492 0.8272 0.9327
C8_4 C 0.1091(2) 0.9484(2) 0.9425(3)
C12_4 C 0.0353(2) 0.9358(3) 0.9024(3)
C15_4 C 0.2212(2) 0.9011(3) 0.9887(4)
H9_4 H 0.2504 0.8597 0.9956
C16_4 C 0.1536(2) 0.8869(3) 0.9525(4)
H10_4 H 0.1376 0.8360 0.9347
O2_4 O 0.94508(15) 0.58204(17) 0.8745(3)
O3_4 O 0.71562(14) 0.83654(17) 0.7291(2)
O4_4 O 0.77050(14) 0.94739(17) 0.7427(2)
O5_4 O 0.83440(15) 0.58287(18) 0.8041(3)
O6_4 O 0.99572(16) 0.99002(19) 0.8710(3)
C1_4 C 0.76999(19) 0.8743(2) 0.7513(3)
C3_4 C 0.83381(18) 0.8289(2) 0.7907(3)
C4_4 C 0.95333(18) 0.8264(2) 0.8646(3)
C5_4 C 0.8901(2) 0.6169(2) 0.8372(3)
C6_4 C 0.8906(2) 0.7052(2) 0.8307(3)
C7_4 C 0.89416(19) 0.8694(2) 0.8261(3)
H4_4 H 0.8949 0.9240 0.8242
C9_4 C 0.83176(19) 0.7475(2) 0.7921(3)
H5_4 H 0.7912 0.7214 0.7674
C10_4 C 0.95077(19) 0.7443(2) 0.8663(3)
H6_4 H 0.9900 0.7156 0.8916
O15_4 O 0.95227(13) 0.40785(16) 0.8750(2)
O7_3 O 0.43714(17) 0.7836(2) 0.6493(3)
H1_3 H 0.3937 0.7837 0.6176
H2_3 H 0.4523 0.7388 0.6357
H11_3 H 0.545(3) 0.858(2) 0.590(5)
O9_3 O 0.56286(17) 0.7836(2) 0.8507(3)
H12_3 H 0.6063 0.7837 0.8824
H13_3 H 0.5477 0.7388 0.8643
H14_3 H 0.455(3) 0.858(2) 0.910(5)
H11_4 H 0.045(3) 0.358(2) 0.590(5)
O9_4 O 0.06286(17) 0.2836(2) 0.8507(3)
H12_4 H 0.1063 0.2837 0.8824
H13_4 H 0.0477 0.2388 0.8643
O7_4 O 0.93714(17) 0.2836(2) 0.6493(3)
H1_4 H 0.8937 0.2837 0.6176
H2_4 H 0.9523 0.2388 0.6357
H14_4 H 0.955(3) 0.358(2) 0.910(5)
loop_
_geom_bond_atom_site_label_1
_geom_bond_atom_site_label_2
_geom_bond_site_symmetry_1
_geom_bond_site_symmetry_2
Cd1 O1 1_555 1_555
Cd2 O1 1_555 1_555
Mn1 O1 1_555 1_555
O1 H11 1_555 1_555
O2 Mn1 1_555 1_555
O3 C1 1_555 1_555
O4 C1 1_555 1_555
O5 C5 1_555 1_555
N1 N3 1_555 1_555
N2 N4 1_555 1_555
N3 C2 1_555 1_555
N4 N1 1_555 1_555
O6 C12 1_555 1_555
O7 Cd2 1_555 1_555
H1 O7 1_555 1_555
H2 O7 1_555 1_555
N5 H3 1_555 1_555
C1 C3 1_555 1_555
C2 N2 1_555 1_555
C3 C7 1_555 1_555
C4 N5 1_555 1_555
C5 O2 1_555 1_555
C6 C5 1_555 1_555
C7 C4 1_555 1_555
H4 C7 1_555 1_555
C8 C12 1_555 1_555
C9 C3 1_555 1_555
H5 C9 1_555 1_555
C10 C4 1_555 1_555
H6 C10 1_555 1_555
C11 C2 1_555 1_555
C12 N5 1_555 1_555
C13 C11 1_555 1_555
H7 C13 1_555 1_555
C14 C8 1_555 1_555
H8 C14 1_555 1_555
C15 C11 1_555 1_555
H9 C15 1_555 1_555
C16 C8 1_555 1_555
H10 C16 1_555 1_555
Cd3 O8 1_555 1_555
O8 Cd2 1_555 1_555
O9 Cd2 1_555 1_555
H12 O9 1_555 1_555
H13 O9 1_555 1_555
H14 O8 1_555 1_555
O10 C21 1_555 1_555
O11 Cd1 1_555 1_555
O12 Cd1 1_555 1_555
O13 C21 1_555 1_555
C17 O11 1_555 1_555
C19 C17 1_555 1_555
C21 C22 1_555 1_555
C22 C25 1_555 1_555
C23 C19 1_555 1_555
H16 C23 1_555 1_555
C25 C19 1_555 1_555
H17 C25 1_555 1_555
C26 C20 1_555 1_555
H18 C26 1_555 1_555
Cd5 N3 1_555 1_555
Cd8 N2 1_555 1_555
Cd9 O3 1_555 1_555
Cd10 N1 1_555 1_555
Mn3 O8 1_555 1_555
Mn4 N4 1_555 1_555
Mn5 O10 1_555 1_555
O17 Cd3 1_555 1_555
O18 Cd3 1_555 1_555
N11 Cd2 1_555 1_555
N12 Cd2 1_555 1_555
N13 Cd1 1_555 1_555
N14 Cd3 1_555 1_555
N15 Cd3 1_555 1_555
N16 Cd1 1_555 1_555
N18 Mn1 1_555 1_555
O4 Cd9 1_555 1_555
C6 C9 1_555 1_555
C6 C10 1_555 1_555
C13 C14 1_555 1_555
C15 C16 1_555 1_555
O12 C17 1_555 1_555
O13 Cd5 1_555 1_555
C20 C23 1_555 1_555
C22 C26 1_555 1_555
N11 N15 1_555 1_555
N12 N16 1_555 1_555
N13 N18 1_555 1_555
O15 Mn1_2 1_555 1_555
O16 Mn1_2 1_555 1_555
N17 Mn1_2 1_555 1_555
Cd7 O15 1_555 1_555
N10 H15 1_555 1_555
C24 C28 1_555 1_555
C28 N10 1_555 1_555
H21 C31 1_555 1_555
C32 C24 1_555 1_555
H22 C32 1_555 1_555
C31 C32 1_555 1_555
C27 C18 1_555 1_555
Mn3_2 N9 1_555 1_555
H20 C30 1_555 1_555
N6 N8 1_555 1_555
H19 C29 1_555 1_555
Cd7 N8 1_555 1_555
Cd11 N6 1_555 1_555
N10_2 H15_2 1_555 1_555
C18_2 N13 1_555 1_555
C24_2 C28_2 1_555 1_555
C27_2 C18_2 1_555 1_555
C28_2 N10_2 1_555 1_555
C31_2 C27_2 1_555 1_555
H21_2 C31_2 1_555 1_555
C32_2 C24_2 1_555 1_555
H22_2 C32_2 1_555 1_555
C31_2 C32_2 1_555 1_555
N6_2 N8_2 1_555 1_555
H19_2 C29_2 1_555 1_555
H20_2 C30_2 1_555 1_555
Cd6 N8_2 1_555 1_555
Cd11 N6_2 1_555 1_555
C29_2 C30_2 1_555 1_555
N1_2 N3_2 1_555 1_555
N3_2 C2_2 1_555 1_555
N4_2 N1_2 1_555 1_555
C11_2 C2_2 1_555 1_555
C13_2 C11_2 1_555 1_555
H7_2 C13_2 1_555 1_555
O10_2 C21_2 1_555 1_555
O13_2 C21_2 1_555 1_555
C17_2 O17 1_555 1_555
C19_2 C17_2 1_555 1_555
C21_2 C22_2 1_555 1_555
C22_2 C25_2 1_555 1_555
C23_2 C19_2 1_555 1_555
H16_2 C23_2 1_555 1_555
C25_2 C19_2 1_555 1_555
H17_2 C25_2 1_555 1_555
C26_2 C20_2 1_555 1_555
H18_2 C26_2 1_555 1_555
Cd5_2 N3_2 1_555 1_555
Cd10_2 N1_2 1_555 1_555
Mn5_3 N4_2 1_555 1_555
Mn4_2 O10_2 1_555 1_555
O18 C17_2 1_555 1_555
O13_2 Cd5_2 1_555 1_555
C20_2 C23_2 1_555 1_555
C22_2 C26_2 1_555 1_555
O2_2 Mn3_2 1_555 1_555
O3_2 C1_2 1_555 1_555
O4_2 C1_2 1_555 1_555
O5_2 C5_2 1_555 1_555
O6_2 C12_2 1_555 1_555
N5_2 H3_2 1_555 1_555
C1_2 C3_2 1_555 1_555
C3_2 C7_2 1_555 1_555
C4_2 N5_2 1_555 1_555
C5_2 O2_2 1_555 1_555
C6_2 C5_2 1_555 1_555
C7_2 C4_2 1_555 1_555
H4_2 C7_2 1_555 1_555
C8_2 C12_2 1_555 1_555
C9_2 C3_2 1_555 1_555
H5_2 C9_2 1_555 1_555
C10_2 C4_2 1_555 1_555
H6_2 C10_2 1_555 1_555
C12_2 N5_2 1_555 1_555
C14_2 C8_2 1_555 1_555
H8_2 C14_2 1_555 1_555
H9_2 C15_2 1_555 1_555
C16_2 C8_2 1_555 1_555
H10_2 C16_2 1_555 1_555
Cd9 N2_2 1_555 1_555
Cd8 O3_2 1_555 1_555
O4_2 Cd8 1_555 1_555
C6_2 C9_2 1_555 1_555
C6_2 C10_2 1_555 1_555
C15_2 C16_2 1_555 1_555
O16_2 Mn3_3 1_555 1_555
N17_2 Mn3_3 1_555 1_555
O15_2 Mn3_4 1_555 1_555
Cd6 O15_2 1_555 1_555
O2_3 Mn4 1_555 1_555
O3_3 C1_3 1_555 1_555
O4_3 C1_3 1_555 1_555
O5_3 C5_3 1_555 1_555
O7_2 Cd10 1_555 1_555
H1_2 O7_2 1_555 1_555
H2_2 O7_2 1_555 1_555
C1_3 C3_3 1_555 1_555
C3_3 C7_3 1_555 1_555
C5_3 O2_3 1_555 1_555
C6_3 C5_3 1_555 1_555
C7_3 C4_3 1_555 1_555
H4_3 C7_3 1_555 1_555
C9_3 C3_3 1_555 1_555
H5_3 C9_3 1_555 1_555
C10_3 C4_3 1_555 1_555
H6_3 C10_3 1_555 1_555
Cd5 O8_2 1_555 1_555
O8_2 Cd10 1_555 1_555
H14_2 O8_2 1_555 1_555
Cd8 O5_3 1_555 1_555
Cd6 O3_3 1_555 1_555
Mn5 O8_2 1_555 1_555
O15_3 Mn4 1_555 1_555
O17_2 Cd5 1_555 1_555
O18_2 Cd5 1_555 1_555
N14_2 Cd5 1_555 1_555
O4_3 Cd6 1_555 1_555
C6_3 C9_3 1_555 1_555
C6_3 C10_3 1_555 1_555
Cd8 O15_3 1_555 1_555
H7_3 C13_3 1_555 1_555
H8_3 C14_3 1_555 1_555
C13_3 C14_3 1_555 1_555
Cd5_2 O1_2 1_555 1_555
Cd10_2 O1_2 1_555 1_555
Mn4_2 O1_2 1_555 1_555
O1_2 H11_2 1_555 1_555
N2_3 N17 1_555 1_555
N5_3 H3_3 1_555 1_555
C2_3 N2_3 1_555 1_555
C8_3 C12_3 1_555 1_555
C11_3 C2_3 1_555 1_555
C12_3 N5_3 1_555 1_555
C15_3 C11_3 1_555 1_555
H9_3 C15_3 1_555 1_555
C16_3 C8_3 1_555 1_555
H10_3 C16_3 1_555 1_555
O9_2 Cd10_2 1_555 1_555
H12_2 O9_2 1_555 1_555
H13_2 O9_2 1_555 1_555
O16_2 C21_3 1_555 1_555
O11_2 Cd5_2 1_555 1_555
O12_2 Cd5_2 1_555 1_555
O20 C21_3 1_555 1_555
O14_3 C28_3 1_555 1_555
N10_3 H15_3 1_555 1_555
C17_3 O11_2 1_555 1_555
C19_3 C17_3 1_555 1_555
C20_3 N10_3 1_555 1_555
C21_3 C22_3 1_555 1_555
C22_3 C25_3 1_555 1_555
C23_3 C19_3 1_555 1_555
H16_3 C23_3 1_555 1_555
C24_3 C28_3 1_555 1_555
C25_3 C19_3 1_555 1_555
H17_3 C25_3 1_555 1_555
C26_3 C20_3 1_555 1_555
H18_3 C26_3 1_555 1_555
C28_3 N10_3 1_555 1_555
C30_3 C24_3 1_555 1_555
H20_3 C30_3 1_555 1_555
H21_3 C31_3 1_555 1_555
C32_3 C24_3 1_555 1_555
H22_3 C32_3 1_555 1_555
Cd7 N2_3 1_555 1_555
N13_2 Cd5_2 1_555 1_555
N18_2 Mn4_2 1_555 1_555
C15_3 C16_3 1_555 1_555
O12_2 C17_3 1_555 1_555
C20_3 C23_3 1_555 1_555
C22_3 C26_3 1_555 1_555
C31_3 C32_3 1_555 1_555
N13_2 N18_2 1_555 1_555
N6_3 N8_3 1_555 1_555
N8_3 C18_3 1_555 1_555
N9_2 N6_3 1_555 1_555
C27_3 C18_3 1_555 1_555
C29_3 C27_3 1_555 1_555
H19_3 C29_3 1_555 1_555
Cd8 N8_3 1_555 1_555
Cd11_2 N6_3 1_555 1_555
Mn5_2 N9_2 1_555 1_555
H7_4 C13_4 1_555 1_555
H8_4 C14_4 1_555 1_555
C11_4 C2_4 1_555 1_555
O16 C21_4 1_555 1_555
O19 C21_4 1_555 1_555
N6_4 N8_4 1_555 1_555
N8_4 C18_4 1_555 1_555
N18_2 N6_4 1_555 1_555
O14_4 C28_4 1_555 1_555
N10_4 H15_4 1_555 1_555
C17_4 O17_2 1_555 1_555
C18_4 N13_2 1_555 1_555
C19_4 C17_4 1_555 1_555
C20_4 N10_4 1_555 1_555
C21_4 C22_4 1_555 1_555
C22_4 C25_4 1_555 1_555
C23_4 C19_4 1_555 1_555
H16_4 C23_4 1_555 1_555
C24_4 C28_4 1_555 1_555
C25_4 C19_4 1_555 1_555
H17_4 C25_4 1_555 1_555
C26_4 C20_4 1_555 1_555
H18_4 C26_4 1_555 1_555
C27_4 C18_4 1_555 1_555
C28_4 N10_4 1_555 1_555
C29_4 C27_4 1_555 1_555
H19_4 C29_4 1_555 1_555
C30_4 C24_4 1_555 1_555
H20_4 C30_4 1_555 1_555
C31_4 C27_4 1_555 1_555
H21_4 C31_4 1_555 1_555
C32_4 C24_4 1_555 1_555
H22_4 C32_4 1_555 1_555
Cd9 N8_4 1_555 1_555
Cd11_3 N6_4 1_555 1_555
O18_2 C17_4 1_555 1_555
C20_4 C23_4 1_555 1_555
C22_4 C26_4 1_555 1_555
C29_4 C30_4 1_555 1_555
C31_4 C32_4 1_555 1_555
N5_4 H3_4 1_555 1_555
C8_4 C12_4 1_555 1_555
C12_4 N5_4 1_555 1_555
H9_4 C15_4 1_555 1_555
C16_4 C8_4 1_555 1_555
H10_4 C16_4 1_555 1_555
Cd6 N2_4 1_555 1_555
C15_4 C16_4 1_555 1_555
O2_4 Mn5_4 1_555 1_555
O3_4 C1_4 1_555 1_555
O4_4 C1_4 1_555 1_555
O5_4 C5_4 1_555 1_555
C1_4 C3_4 1_555 1_555
C3_4 C7_4 1_555 1_555
C5_4 O2_4 1_555 1_555
C6_4 C5_4 1_555 1_555
C7_4 C4_4 1_555 1_555
H4_4 C7_4 1_555 1_555
C9_4 C3_4 1_555 1_555
H5_4 C9_4 1_555 1_555
C10_4 C4_4 1_555 1_555
H6_4 C10_4 1_555 1_555
Cd9 O5_4 1_555 1_555
Cd7 O3_4 1_555 1_555
O15_4 Mn5_4 1_555 1_555
O4_4 Cd7 1_555 1_555
C6_4 C9_4 1_555 1_555
C6_4 C10_4 1_555 1_555
Cd9 O15_4 1_555 1_555
Cd11 O15 1_555 1_555
O15 H11_3 1_555 1_555
O7_3 Cd11 1_555 1_555
H1_3 O7_3 1_555 1_555
H2_3 O7_3 1_555 1_555
O15_2 Cd11 1_555 1_555
O9_3 Cd11 1_555 1_555
H12_3 O9_3 1_555 1_555
H13_3 O9_3 1_555 1_555
H14_3 O15_2 1_555 1_555
Cd11_2 O15_3 1_555 1_555
O15_3 H11_4 1_555 1_555
O9_4 Cd11_2 1_555 1_555
H12_4 O9_4 1_555 1_555
H13_4 O9_4 1_555 1_555
O7_4 Cd11_3 1_555 1_555
H1_4 O7_4 1_555 1_555
H2_4 O7_4 1_555 1_555
O15_4 Cd11_3 1_555 1_555
H14_4 O15_4 1_555 1_555

#END
