
###############################################################################
#
# This file contains modified crystal structure data generated from the
# MOF subset of the Cambridge Structural Database (CSD) v543 
# hosted by the Cambridge Crystallographic Data Centre (CCDC).
#
# This work is licensed under the Creative Commons
# Attribution-NonCommercial-ShareAlike 4.0 International License.
# To view a copy of this license, visit
# http://creativecommons.org/licenses/by-nc-sa/4.0/
# or send a letter to
# Creative Commons, PO Box 1866, Mountain View, CA 94042, USA.
#
# CIF created using the CSD Python API on 29 September 2022
# The structure has been converted into the P1 space group
# The structure has a 3D framework
# The original CSD entry HIQTUZ is in the monoclinic crystal system
# The framework has been calculated to contain at least 10.0% void space
# The void calculation uses a probe of radius 1.32A, grid spacing 0.4
#
###############################################################################

data_HIQTUZ
_chemical_formula_moiety         '(C128 H86 Cd7 N40 O52)n'
_symmetry_cell_setting           triclinic
_symmetry_space_group_name_H-M   'P 1'
_symmetry_Int_Tables_number      1
_space_group_name_Hall           'P 1'
loop_
_symmetry_equiv_pos_site_id
_symmetry_equiv_pos_as_xyz
1 x,y,z
_cell_length_a                   22.713(4)
_cell_length_b                   17.390(3)
_cell_length_c                   13.581(3)
_cell_angle_alpha                90
_cell_angle_beta                 117.187(2)
_cell_angle_gamma                90
_cell_volume                     4771.57
loop_
_atom_site_label
_atom_site_type_symbol
_atom_site_fract_x
_atom_site_fract_y
_atom_site_fract_z
Cd8 Cd 0.00617(2) 0.43035(2) 0.91733(3)
Cd1 Cd 0.66188(2) 0.00899(2) 0.61393(3)
Cd9 Cd 0.50617(2) 0.06965(2) 0.41733(3)
O8 O 0.44027(16) 0.0400(2) 0.4904(3)
O11 O 0.57823(19) 0.1224(2) 0.5872(3)
O12 O 0.68574(19) 0.1378(2) 0.6555(4)
N7 N 0.6485(2) 0.0317(3) 0.4322(4)
Cd2 Cd 0.49383(2) 0.93035(2) 0.58267(3)
O1 O 0.55973(16) 0.9600(2) 0.5096(3)
O2 O 0.27694(18) 0.5114(2) 0.1963(4)
O3 O 0.21400(18) 0.6135(2) 0.1615(4)
N1 N 0.8591(2) 0.4883(2) 0.7327(3)
O4 O 0.42177(19) 0.8776(2) 0.4128(3)
O5 O 0.31426(19) 0.8622(2) 0.3445(4)
N2 N 0.8515(2) 0.4683(3) 0.5678(4)
N3 N 0.91608(19) 0.4584(3) 0.7426(3)
N4 N 0.91135(19) 0.4461(2) 0.6452(3)
O6 O 0.5126(2) 0.8065(3) 0.6487(4)
H1 H 0.5329 0.7942 0.7168
H2 H 0.5010 0.7660 0.6093
N5 N 0.5131(2) 0.6143(3) 0.3961(5)
H3 H 0.5151 0.5649 0.3976
C1 C 0.8202(2) 0.4937(3) 0.6241(4)
C2 C 0.3301(2) 0.6328(3) 0.2631(4)
C3 C 0.3937(2) 0.6021(3) 0.3004(5)
H4 H 0.3989 0.5508 0.2865
C4 C 0.4416(2) 0.7237(3) 0.3783(5)
H5 H 0.4788 0.7544 0.4161
C5 C 0.3705(3) 0.8363(3) 0.3679(4)
C6 C 0.3226(2) 0.7091(3) 0.2830(4)
H6 H 0.2805 0.7301 0.2570
C7 C 0.2702(2) 0.5824(3) 0.2036(4)
C8 C 0.3783(2) 0.7545(3) 0.3421(4)
C9 C 0.4490(2) 0.6475(3) 0.3578(5)
C10 C 0.7543(3) 0.5308(4) 0.5738(4)
C11 C 0.6343(3) 0.6058(4) 0.4801(6)
O7 O 0.5737(3) 0.7222(3) 0.4256(7)
C12 C 0.6355(4) 0.5275(4) 0.4855(7)
H7 H 0.5964 0.4996 0.4601
C13 C 0.6978(3) 0.4888(5) 0.5307(7)
H8 H 0.6996 0.4354 0.5307
C14 C 0.7513(3) 0.6110(4) 0.5672(7)
H9 H 0.7903 0.6394 0.5951
C15 C 0.5702(3) 0.6518(4) 0.4298(6)
C16 C 0.6911(3) 0.6484(4) 0.5198(7)
H10 H 0.6892 0.7018 0.5150
H11 H 0.559(3) 0.927(3) 0.465(4)
Cd3 Cd 0.83812(2) 0.50899(2) 0.88607(3)
Cd4 Cd 0.33812(2) 0.99101(2) 0.38607(3)
Cd5 Cd 0.83812(2) 0.49101(2) 0.38607(3)
Cd6 Cd 0.16188(2) 0.49101(2) 0.11393(3)
Cd7 Cd 0.99383(2) 0.43035(2) 0.58267(3)
O9 O 0.77694(18) 0.9886(2) 0.6963(4)
O10 O 0.71400(18) 0.8865(2) 0.6615(4)
N6 N 0.6409(2) 0.9883(2) 0.7673(3)
N8 N 0.58392(19) 0.9584(3) 0.7574(3)
N9 N 0.41135(19) 0.9461(2) 0.6452(3)
Cd9_2 Cd 0.49383(2) 0.06965(2) 0.08267(3)
O8_2 O 0.55973(16) 0.0400(2) 0.0096(3)
N7_2 N 0.3515(2) 0.0317(3) 0.0678(4)
Cd1_2 Cd 0.33812(2) 0.00899(2) 0.88607(3)
O11_2 O 0.42177(19) 0.1224(2) 0.9128(3)
O12_2 O 0.31426(19) 0.1378(2) 0.8445(4)
O2_2 O 0.72306(18) 0.5114(2) 0.3037(4)
O3_2 O 0.78600(18) 0.6135(2) 0.3385(4)
O4_2 O 0.57823(19) 0.8776(2) 0.0872(3)
O5_2 O 0.68574(19) 0.8622(2) 0.1555(4)
N5_2 N 0.4869(2) 0.6143(3) 0.1039(5)
H3_2 H 0.4849 0.5649 0.1024
C2_2 C 0.6699(2) 0.6328(3) 0.2369(4)
C3_2 C 0.6063(2) 0.6021(3) 0.1996(5)
H4_2 H 0.6011 0.5508 0.2135
C4_2 C 0.5584(2) 0.7237(3) 0.1217(5)
H5_2 H 0.5212 0.7544 0.0839
C5_2 C 0.6295(3) 0.8363(3) 0.1321(4)
C6_2 C 0.6774(2) 0.7091(3) 0.2170(4)
H6_2 H 0.7195 0.7301 0.2430
C7_2 C 0.7298(2) 0.5824(3) 0.2964(4)
C8_2 C 0.6217(2) 0.7545(3) 0.1579(4)
C9_2 C 0.5510(2) 0.6475(3) 0.1422(5)
C11_2 C 0.3657(3) 0.6058(4) 0.0199(6)
O7_2 O 0.4263(3) 0.7222(3) 0.0744(7)
C12_2 C 0.3645(4) 0.5275(4) 0.0145(7)
H7_2 H 0.4036 0.4996 0.0399
C15_2 C 0.4298(3) 0.6518(4) 0.0702(6)
H11_2 H 0.441(3) 0.927(3) 0.035(4)
Cd4_2 Cd 0.66188(2) 0.99101(2) 0.11393(3)
Cd2_2 Cd 0.50617(2) 0.93035(2) 0.91733(3)
O1_2 O 0.44027(16) 0.9600(2) 0.9904(3)
N1_2 N 0.1409(2) 0.4883(2) 0.7673(3)
N2_2 N 0.1485(2) 0.4683(3) 0.9322(4)
N3_2 N 0.08392(19) 0.4584(3) 0.7574(3)
N4_2 N 0.08865(19) 0.4461(2) 0.8548(3)
O6_2 O 0.4874(2) 0.8065(3) 0.8513(4)
H1_2 H 0.4671 0.7942 0.7832
H2_2 H 0.4990 0.7660 0.8907
C1_2 C 0.1798(2) 0.4937(3) 0.8759(4)
C10_2 C 0.2457(3) 0.5308(4) 0.9262(4)
C13_2 C 0.3022(3) 0.4888(5) 0.9693(7)
H8_2 H 0.3004 0.4354 0.9693
C14_2 C 0.2487(3) 0.6110(4) 0.9328(7)
H9_2 H 0.2097 0.6394 0.9049
C16_2 C 0.3089(3) 0.6484(4) 0.9802(7)
H10_2 H 0.3108 0.7018 0.9850
Cd3_2 Cd 0.16188(2) 0.50899(2) 0.61393(3)
O9_2 O 0.22306(18) 0.9886(2) 0.8037(4)
O10_2 O 0.28600(18) 0.8865(2) 0.8385(4)
N6_2 N 0.3591(2) 0.9883(2) 0.7327(3)
N8_2 N 0.41608(19) 0.9584(3) 0.7426(3)
N9_2 N 0.58865(19) 0.9461(2) 0.8548(3)
O1_3 O 0.05973(16) 0.4600(2) 0.5096(3)
O6_3 O 0.0126(2) 0.3065(3) 0.6487(4)
H1_3 H 0.0329 0.2942 0.7168
H2_3 H 0.0010 0.2660 0.6093
N5_3 N 0.0131(2) 0.1143(3) 0.3961(5)
H3_3 H 0.0151 0.0649 0.3976
C10_3 C 0.2543(3) 0.0308(4) 0.5738(4)
C11_3 C 0.1343(3) 0.1058(4) 0.4801(6)
O7_3 O 0.0737(3) 0.2222(3) 0.4256(7)
C12_3 C 0.1355(4) 0.0275(4) 0.4855(7)
C14_3 C 0.2513(3) 0.1110(4) 0.5672(7)
H9_3 H 0.2903 0.1394 0.5951
C15_3 C 0.0702(3) 0.1518(4) 0.4298(6)
C16_3 C 0.1911(3) 0.1484(4) 0.5198(7)
H10_3 H 0.1892 0.2018 0.5150
H11_3 H 0.059(3) 0.427(3) 0.465(4)
Cd9_3 Cd 0.00617(2) 0.56965(2) 0.41733(3)
O9_3 O 0.27694(18) 0.4886(2) 0.6963(4)
O10_3 O 0.21400(18) 0.3865(2) 0.6615(4)
O11_3 O 0.07823(19) 0.6224(2) 0.5872(3)
O12_3 O 0.18574(19) 0.6378(2) 0.6555(4)
N7_3 N 0.1485(2) 0.5317(3) 0.4322(4)
N2_3 N 0.3515(2) 0.9683(3) 0.5678(4)
C1_3 C 0.3202(2) 0.9937(3) 0.6241(4)
H7_3 H 0.0964 0.9996 0.4601
C13_3 C 0.1978(3) 0.9888(5) 0.5307(7)
H8_3 H 0.1996 0.9354 0.5307
O2_3 O 0.77694(18) 0.0114(2) 0.1963(4)
O3_3 O 0.71400(18) 0.1135(2) 0.1615(4)
O4_3 O 0.92177(19) 0.3776(2) 0.4128(3)
O5_3 O 0.81426(19) 0.3622(2) 0.3445(4)
C2_3 C 0.8301(2) 0.1328(3) 0.2631(4)
C3_3 C 0.8937(2) 0.1021(3) 0.3004(5)
H4_3 H 0.8989 0.0508 0.2865
C4_3 C 0.9416(2) 0.2237(3) 0.3783(5)
H5_3 H 0.9788 0.2544 0.4161
C5_3 C 0.8705(3) 0.3363(3) 0.3679(4)
C6_3 C 0.8226(2) 0.2091(3) 0.2830(4)
H6_3 H 0.7805 0.2301 0.2570
C7_3 C 0.7702(2) 0.0824(3) 0.2036(4)
C8_3 C 0.8783(2) 0.2545(3) 0.3421(4)
C9_3 C 0.9490(2) 0.1475(3) 0.3578(5)
O8_3 O 0.94027(16) 0.5400(2) 0.4904(3)
O2_4 O 0.22306(18) 0.0114(2) 0.3037(4)
O3_4 O 0.28600(18) 0.1135(2) 0.3385(4)
O4_4 O 0.07823(19) 0.3776(2) 0.0872(3)
O5_4 O 0.18574(19) 0.3622(2) 0.1555(4)
C2_4 C 0.1699(2) 0.1328(3) 0.2369(4)
C3_4 C 0.1063(2) 0.1021(3) 0.1996(5)
H4_4 H 0.1011 0.0508 0.2135
C4_4 C 0.0584(2) 0.2237(3) 0.1217(5)
H5_4 H 0.0212 0.2544 0.0839
C5_4 C 0.1295(3) 0.3363(3) 0.1321(4)
C6_4 C 0.1774(2) 0.2091(3) 0.2170(4)
H6_4 H 0.2195 0.2301 0.2430
C7_4 C 0.2298(2) 0.0824(3) 0.2964(4)
C8_4 C 0.1217(2) 0.2545(3) 0.1579(4)
C9_4 C 0.0510(2) 0.1475(3) 0.1422(5)
O8_4 O 0.05973(16) 0.5400(2) 0.0096(3)
N5_4 N 0.9869(2) 0.1143(3) 0.1039(5)
H3_4 H 0.9849 0.0649 0.1024
C11_4 C 0.8657(3) 0.1058(4) 0.0199(6)
O7_4 O 0.9263(3) 0.2222(3) 0.0744(7)
C12_4 C 0.8645(4) 0.0275(4) 0.0145(7)
C15_4 C 0.9298(3) 0.1518(4) 0.0702(6)
H11_4 H 0.941(3) 0.427(3) 0.035(4)
Cd9_4 Cd 0.99383(2) 0.56965(2) 0.08267(3)
N7_4 N 0.8515(2) 0.5317(3) 0.0678(4)
O1_4 O 0.94027(16) 0.4600(2) 0.9904(3)
O6_4 O 0.9874(2) 0.3065(3) 0.8513(4)
H1_4 H 0.9671 0.2942 0.7832
H2_4 H 0.9990 0.2660 0.8907
C10_4 C 0.7457(3) 0.0308(4) 0.9262(4)
C14_4 C 0.7487(3) 0.1110(4) 0.9328(7)
H9_4 H 0.7097 0.1394 0.9049
C16_4 C 0.8089(3) 0.1484(4) 0.9802(7)
H10_4 H 0.8108 0.2018 0.9850
O9_4 O 0.72306(18) 0.4886(2) 0.8037(4)
O10_4 O 0.78600(18) 0.3865(2) 0.8385(4)
O11_4 O 0.92177(19) 0.6224(2) 0.9128(3)
O12_4 O 0.81426(19) 0.6378(2) 0.8445(4)
H7_4 H 0.9036 0.9996 0.0399
N2_4 N 0.6485(2) 0.9683(3) 0.9322(4)
C1_4 C 0.6798(2) 0.9937(3) 0.8759(4)
C13_4 C 0.8022(3) 0.9888(5) 0.9693(7)
H8_4 H 0.8004 0.9354 0.9693
N1_3 N 0.1409(2) 0.5117(2) 0.2673(3)
N3_3 N 0.08392(19) 0.5416(3) 0.2574(3)
N4_3 N 0.08865(19) 0.5539(2) 0.3548(3)
O6_5 O 0.4874(2) 0.1935(3) 0.3513(4)
H1_5 H 0.4671 0.2058 0.2832
H2_5 H 0.4990 0.2340 0.3907
N5_5 N 0.4869(2) 0.3857(3) 0.6039(5)
H3_5 H 0.4849 0.4351 0.6024
C1_5 C 0.1798(2) 0.5063(3) 0.3759(4)
C2_5 C 0.6699(2) 0.3672(3) 0.7369(4)
C3_5 C 0.6063(2) 0.3979(3) 0.6996(5)
H4_5 H 0.6011 0.4492 0.7135
C4_5 C 0.5584(2) 0.2763(3) 0.6217(5)
H5_5 H 0.5212 0.2456 0.5839
C5_5 C 0.6295(3) 0.1637(3) 0.6321(4)
C6_5 C 0.6774(2) 0.2909(3) 0.7170(4)
H6_5 H 0.7195 0.2699 0.7430
C7_5 C 0.7298(2) 0.4176(3) 0.7964(4)
C8_5 C 0.6217(2) 0.2455(3) 0.6579(4)
C9_5 C 0.5510(2) 0.3525(3) 0.6422(5)
C10_5 C 0.2457(3) 0.4692(4) 0.4262(4)
C11_5 C 0.3657(3) 0.3942(4) 0.5199(6)
O7_5 O 0.4263(3) 0.2778(3) 0.5744(7)
C12_5 C 0.3645(4) 0.4725(4) 0.5145(7)
H7_5 H 0.4036 0.5004 0.5399
C13_5 C 0.3022(3) 0.5112(5) 0.4693(7)
H8_5 H 0.3004 0.5646 0.4693
C14_5 C 0.2487(3) 0.3890(4) 0.4328(7)
H9_5 H 0.2097 0.3606 0.4049
C15_5 C 0.4298(3) 0.3482(4) 0.5702(6)
C16_5 C 0.3089(3) 0.3516(4) 0.4802(7)
H10_5 H 0.3108 0.2982 0.4850
H11_5 H 0.441(3) 0.073(3) 0.535(4)
N6_3 N 0.3591(2) 0.0117(2) 0.2327(3)
N8_3 N 0.41608(19) 0.0416(3) 0.2426(3)
N9_3 N 0.58865(19) 0.0539(2) 0.3548(3)
N1_4 N 0.8591(2) 0.5117(2) 0.2327(3)
N3_4 N 0.91608(19) 0.5416(3) 0.2426(3)
N4_4 N 0.91135(19) 0.5539(2) 0.1452(3)
O6_6 O 0.5126(2) 0.1935(3) 0.1487(4)
H1_6 H 0.5329 0.2058 0.2168
H2_6 H 0.5010 0.2340 0.1093
C1_6 C 0.8202(2) 0.5063(3) 0.1241(4)
C10_6 C 0.7543(3) 0.4692(4) 0.0738(4)
C13_6 C 0.6978(3) 0.5112(5) 0.0307(7)
H8_6 H 0.6996 0.5646 0.0307
C14_6 C 0.7513(3) 0.3890(4) 0.0672(7)
H9_6 H 0.7903 0.3606 0.0951
C16_6 C 0.6911(3) 0.3516(4) 0.0198(7)
H10_6 H 0.6892 0.2982 0.0150
N6_4 N 0.6409(2) 0.0117(2) 0.2673(3)
N8_4 N 0.58392(19) 0.0416(3) 0.2574(3)
N9_4 N 0.41135(19) 0.0539(2) 0.1452(3)
N5_6 N 0.5131(2) 0.3857(3) 0.8961(5)
H3_6 H 0.5151 0.4351 0.8976
C2_6 C 0.3301(2) 0.3672(3) 0.7631(4)
C3_6 C 0.3937(2) 0.3979(3) 0.8004(5)
H4_6 H 0.3989 0.4492 0.7865
C4_6 C 0.4416(2) 0.2763(3) 0.8783(5)
H5_6 H 0.4788 0.2456 0.9161
C5_6 C 0.3705(3) 0.1637(3) 0.8679(4)
C6_6 C 0.3226(2) 0.2909(3) 0.7830(4)
H6_6 H 0.2805 0.2699 0.7570
C7_6 C 0.2702(2) 0.4176(3) 0.7036(4)
C8_6 C 0.3783(2) 0.2455(3) 0.8421(4)
C9_6 C 0.4490(2) 0.3525(3) 0.8578(5)
C11_6 C 0.6343(3) 0.3942(4) 0.9801(6)
O7_6 O 0.5737(3) 0.2778(3) 0.9256(7)
C12_6 C 0.6355(4) 0.4725(4) 0.9855(7)
H7_6 H 0.5964 0.5004 0.9601
C15_6 C 0.5702(3) 0.3482(4) 0.9298(6)
H11_6 H 0.559(3) 0.073(3) 0.965(4)
C2_7 C 0.1699(2) 0.8672(3) 0.7369(4)
C3_7 C 0.1063(2) 0.8979(3) 0.6996(5)
H4_7 H 0.1011 0.9492 0.7135
C4_7 C 0.0584(2) 0.7763(3) 0.6217(5)
H5_7 H 0.0212 0.7456 0.5839
C5_7 C 0.1295(3) 0.6637(3) 0.6321(4)
C6_7 C 0.1774(2) 0.7909(3) 0.7170(4)
H6_7 H 0.2195 0.7699 0.7430
C7_7 C 0.2298(2) 0.9176(3) 0.7964(4)
C8_7 C 0.1217(2) 0.7455(3) 0.6579(4)
C9_7 C 0.0510(2) 0.8525(3) 0.6422(5)
C1_7 C 0.6798(2) 0.0063(3) 0.3759(4)
H7_7 H 0.9036 0.0004 0.5399
C13_7 C 0.8022(3) 0.0112(5) 0.4693(7)
H8_7 H 0.8004 0.0646 0.4693
O6_7 O 0.9874(2) 0.6935(3) 0.3513(4)
H1_7 H 0.9671 0.7058 0.2832
H2_7 H 0.9990 0.7340 0.3907
N5_7 N 0.9869(2) 0.8857(3) 0.6039(5)
H3_7 H 0.9849 0.9351 0.6024
C10_7 C 0.7457(3) 0.9692(4) 0.4262(4)
C11_7 C 0.8657(3) 0.8942(4) 0.5199(6)
O7_7 O 0.9263(3) 0.7778(3) 0.5744(7)
C12_7 C 0.8645(4) 0.9725(4) 0.5145(7)
C14_7 C 0.7487(3) 0.8890(4) 0.4328(7)
H9_7 H 0.7097 0.8606 0.4049
C15_7 C 0.9298(3) 0.8482(4) 0.5702(6)
C16_7 C 0.8089(3) 0.8516(4) 0.4802(7)
H10_7 H 0.8108 0.7982 0.4850
H11_7 H 0.941(3) 0.573(3) 0.535(4)
C1_8 C 0.3202(2) 0.0063(3) 0.1241(4)
C13_8 C 0.1978(3) 0.0112(5) 0.0307(7)
H8_8 H 0.1996 0.0646 0.0307
H7_8 H 0.0964 0.0004 0.9601
O6_8 O 0.0126(2) 0.6935(3) 0.1487(4)
H1_8 H 0.0329 0.7058 0.2168
H2_8 H 0.0010 0.7340 0.1093
C10_8 C 0.2543(3) 0.9692(4) 0.0738(4)
C14_8 C 0.2513(3) 0.8890(4) 0.0672(7)
H9_8 H 0.2903 0.8606 0.0951
C16_8 C 0.1911(3) 0.8516(4) 0.0198(7)
H10_8 H 0.1892 0.7982 0.0150
N5_8 N 0.0131(2) 0.8857(3) 0.8961(5)
H3_8 H 0.0151 0.9351 0.8976
C11_8 C 0.1343(3) 0.8942(4) 0.9801(6)
O7_8 O 0.0737(3) 0.7778(3) 0.9256(7)
C12_8 C 0.1355(4) 0.9725(4) 0.9855(7)
C15_8 C 0.0702(3) 0.8482(4) 0.9298(6)
H11_8 H 0.059(3) 0.573(3) 0.965(4)
C2_8 C 0.8301(2) 0.8672(3) 0.7631(4)
C3_8 C 0.8937(2) 0.8979(3) 0.8004(5)
H4_8 H 0.8989 0.9492 0.7865
C4_8 C 0.9416(2) 0.7763(3) 0.8783(5)
H5_8 H 0.9788 0.7456 0.9161
C5_8 C 0.8705(3) 0.6637(3) 0.8679(4)
C6_8 C 0.8226(2) 0.7909(3) 0.7830(4)
H6_8 H 0.7805 0.7699 0.7570
C7_8 C 0.7702(2) 0.9176(3) 0.7036(4)
C8_8 C 0.8783(2) 0.7455(3) 0.8421(4)
C9_8 C 0.9490(2) 0.8525(3) 0.8578(5)
loop_
_geom_bond_atom_site_label_1
_geom_bond_atom_site_label_2
_geom_bond_site_symmetry_1
_geom_bond_site_symmetry_2
O11 Cd1 1_555 1_555
O12 Cd1 1_555 1_555
N7 Cd1 1_555 1_555
Cd9 O8 1_555 1_555
Cd9 O11 1_555 1_555
Cd2 O1 1_555 1_555
O1 H11 1_555 1_555
O2 C7 1_555 1_555
O3 C7 1_555 1_555
N1 N3 1_555 1_555
O4 Cd2 1_555 1_555
O5 C5 1_555 1_555
N2 N4 1_555 1_555
N3 N4 1_555 1_555
N4 Cd7 1_555 1_555
O6 Cd2 1_555 1_555
H1 O6 1_555 1_555
H2 O6 1_555 1_555
N5 H3 1_555 1_555
C1 N1 1_555 1_555
C2 C3 1_555 1_555
C3 H4 1_555 1_555
C4 H5 1_555 1_555
C5 O4 1_555 1_555
C6 C2 1_555 1_555
H6 C6 1_555 1_555
C7 C2 1_555 1_555
C8 C4 1_555 1_555
C9 N5 1_555 1_555
C10 C1 1_555 1_555
C11 C12 1_555 1_555
O7 C15 1_555 1_555
C12 H7 1_555 1_555
C13 C10 1_555 1_555
H8 C13 1_555 1_555
C14 C10 1_555 1_555
H9 C14 1_555 1_555
C15 N5 1_555 1_555
C16 C11 1_555 1_555
H10 C16 1_555 1_555
Cd3 N1 1_555 1_555
Cd4 O4 1_555 1_555
Cd5 N2 1_555 1_555
Cd6 O2 1_555 1_555
N8 Cd2 1_555 1_555
N9 Cd2 1_555 1_555
O3 Cd6 1_555 1_555
O5 Cd4 1_555 1_555
N2 C1 1_555 1_555
C3 C9 1_555 1_555
C4 C9 1_555 1_555
C5 C8 1_555 1_555
C6 C8 1_555 1_555
C11 C15 1_555 1_555
C12 C13 1_555 1_555
C14 C16 1_555 1_555
N6 N8 1_555 1_555
Cd9_2 O8_2 1_555 1_555
O11_2 Cd1_2 1_555 1_555
O12_2 Cd1_2 1_555 1_555
O2_2 C7_2 1_555 1_555
O3_2 C7_2 1_555 1_555
O5_2 C5_2 1_555 1_555
N5_2 H3_2 1_555 1_555
C2_2 C3_2 1_555 1_555
C3_2 H4_2 1_555 1_555
C4_2 H5_2 1_555 1_555
C5_2 O4_2 1_555 1_555
C6_2 C2_2 1_555 1_555
H6_2 C6_2 1_555 1_555
C7_2 C2_2 1_555 1_555
C8_2 C4_2 1_555 1_555
C9_2 N5_2 1_555 1_555
C11_2 C12_2 1_555 1_555
O7_2 C15_2 1_555 1_555
C12_2 H7_2 1_555 1_555
C15_2 N5_2 1_555 1_555
Cd4_2 O4_2 1_555 1_555
Cd5 O2_2 1_555 1_555
O3_2 Cd5 1_555 1_555
O5_2 Cd4_2 1_555 1_555
C3_2 C9_2 1_555 1_555
C4_2 C9_2 1_555 1_555
C5_2 C8_2 1_555 1_555
C6_2 C8_2 1_555 1_555
C11_2 C15_2 1_555 1_555
Cd2_2 O1_2 1_555 1_555
N1_2 N3_2 1_555 1_555
N2_2 N4_2 1_555 1_555
N3_2 N4_2 1_555 1_555
N4_2 Cd8 1_555 1_555
O6_2 Cd2_2 1_555 1_555
H1_2 O6_2 1_555 1_555
H2_2 O6_2 1_555 1_555
C1_2 N1_2 1_555 1_555
C10_2 C1_2 1_555 1_555
C13_2 C10_2 1_555 1_555
H8_2 C13_2 1_555 1_555
C14_2 C10_2 1_555 1_555
H9_2 C14_2 1_555 1_555
H10_2 C16_2 1_555 1_555
Cd3_2 N1_2 1_555 1_555
N8_2 Cd2_2 1_555 1_555
N9_2 Cd2_2 1_555 1_555
N2_2 C1_2 1_555 1_555
C14_2 C16_2 1_555 1_555
N6_2 N8_2 1_555 1_555
Cd3_2 O1_3 1_555 1_555
O1_3 H11_3 1_555 1_555
H1_3 O6_3 1_555 1_555
H2_3 O6_3 1_555 1_555
N5_3 H3_3 1_555 1_555
C11_3 C12_3 1_555 1_555
O7_3 C15_3 1_555 1_555
C14_3 C10_3 1_555 1_555
H9_3 C14_3 1_555 1_555
C15_3 N5_3 1_555 1_555
C16_3 C11_3 1_555 1_555
H10_3 C16_3 1_555 1_555
Cd9_3 O1_3 1_555 1_555
O9_3 Cd3_2 1_555 1_555
O10_3 Cd3_2 1_555 1_555
O11_3 Cd3_2 1_555 1_555
O12_3 Cd3_2 1_555 1_555
N7_3 Cd3_2 1_555 1_555
C11_3 C15_3 1_555 1_555
C14_3 C16_3 1_555 1_555
Cd9_3 O11_3 1_555 1_555
N2_3 N9 1_555 1_555
N8_2 N9 1_555 1_555
C1_3 N6_2 1_555 1_555
H8_3 C13_3 1_555 1_555
Cd4 N2_3 1_555 1_555
N2_3 C1_3 1_555 1_555
O2_3 C7_3 1_555 1_555
O3_3 C7_3 1_555 1_555
O4_3 Cd7 1_555 1_555
O5_3 C5_3 1_555 1_555
C2_3 C3_3 1_555 1_555
C3_3 H4_3 1_555 1_555
C4_3 H5_3 1_555 1_555
C5_3 O4_3 1_555 1_555
C6_3 C2_3 1_555 1_555
H6_3 C6_3 1_555 1_555
C7_3 C2_3 1_555 1_555
C8_3 C4_3 1_555 1_555
Cd5 O4_3 1_555 1_555
O8_3 Cd7 1_555 1_555
O5_3 Cd5 1_555 1_555
C3_3 C9_3 1_555 1_555
C4_3 C9_3 1_555 1_555
C5_3 C8_3 1_555 1_555
C6_3 C8_3 1_555 1_555
Cd5 O8_3 1_555 1_555
O2_4 C7_4 1_555 1_555
O3_4 C7_4 1_555 1_555
O5_4 C5_4 1_555 1_555
C2_4 C3_4 1_555 1_555
C3_4 H4_4 1_555 1_555
C4_4 H5_4 1_555 1_555
C5_4 O4_4 1_555 1_555
C6_4 C2_4 1_555 1_555
H6_4 C6_4 1_555 1_555
C7_4 C2_4 1_555 1_555
C8_4 C4_4 1_555 1_555
Cd6 O4_4 1_555 1_555
O5_4 Cd6 1_555 1_555
C3_4 C9_4 1_555 1_555
C4_4 C9_4 1_555 1_555
C5_4 C8_4 1_555 1_555
C6_4 C8_4 1_555 1_555
Cd6 O8_4 1_555 1_555
N5_4 H3_4 1_555 1_555
C11_4 C12_4 1_555 1_555
O7_4 C15_4 1_555 1_555
C15_4 N5_4 1_555 1_555
C11_4 C15_4 1_555 1_555
Cd3 O1_4 1_555 1_555
H1_4 O6_4 1_555 1_555
H2_4 O6_4 1_555 1_555
C14_4 C10_4 1_555 1_555
H9_4 C14_4 1_555 1_555
H10_4 C16_4 1_555 1_555
O9_4 Cd3 1_555 1_555
O10_4 Cd3 1_555 1_555
O11_4 Cd3 1_555 1_555
O12_4 Cd3 1_555 1_555
C14_4 C16_4 1_555 1_555
N2_4 N9_2 1_555 1_555
N8 N9_2 1_555 1_555
C1_4 N6 1_555 1_555
H8_4 C13_4 1_555 1_555
N2_4 C1_4 1_555 1_555
O8 H11_5 1_555 1_555
O9_4 C7_5 1_555 1_555
O10_4 C7_5 1_555 1_555
N1_3 N3_3 1_555 1_555
O12 C5_5 1_555 1_555
N7_3 N4_3 1_555 1_555
N3_3 N4_3 1_555 1_555
N4_3 Cd9_3 1_555 1_555
O6_5 Cd9 1_555 1_555
H1_5 O6_5 1_555 1_555
H2_5 O6_5 1_555 1_555
N5_5 H3_5 1_555 1_555
C1_5 N1_3 1_555 1_555
C2_5 C3_5 1_555 1_555
C3_5 H4_5 1_555 1_555
C4_5 H5_5 1_555 1_555
C5_5 O11 1_555 1_555
C6_5 C2_5 1_555 1_555
H6_5 C6_5 1_555 1_555
C7_5 C2_5 1_555 1_555
C8_5 C4_5 1_555 1_555
C9_5 N5_5 1_555 1_555
C10_5 C1_5 1_555 1_555
C11_5 C12_5 1_555 1_555
O7_5 C15_5 1_555 1_555
C12_5 H7_5 1_555 1_555
C13_5 C10_5 1_555 1_555
H8_5 C13_5 1_555 1_555
C14_5 C10_5 1_555 1_555
H9_5 C14_5 1_555 1_555
C15_5 N5_5 1_555 1_555
C16_5 C11_5 1_555 1_555
H10_5 C16_5 1_555 1_555
Cd6 N1_3 1_555 1_555
N8_3 Cd9 1_555 1_555
N9_3 Cd9 1_555 1_555
N7_3 C1_5 1_555 1_555
C3_5 C9_5 1_555 1_555
C4_5 C9_5 1_555 1_555
C5_5 C8_5 1_555 1_555
C6_5 C8_5 1_555 1_555
C11_5 C15_5 1_555 1_555
C12_5 C13_5 1_555 1_555
C14_5 C16_5 1_555 1_555
N6_3 N8_3 1_555 1_555
N1_4 N3_4 1_555 1_555
N7_4 N4_4 1_555 1_555
N3_4 N4_4 1_555 1_555
N4_4 Cd9_4 1_555 1_555
O6_6 Cd9_2 1_555 1_555
H1_6 O6_6 1_555 1_555
H2_6 O6_6 1_555 1_555
C1_6 N1_4 1_555 1_555
C10_6 C1_6 1_555 1_555
C13_6 C10_6 1_555 1_555
H8_6 C13_6 1_555 1_555
C14_6 C10_6 1_555 1_555
H9_6 C14_6 1_555 1_555
H10_6 C16_6 1_555 1_555
Cd5 N1_4 1_555 1_555
N8_4 Cd9_2 1_555 1_555
N9_4 Cd9_2 1_555 1_555
N7_4 C1_6 1_555 1_555
C14_6 C16_6 1_555 1_555
N6_4 N8_4 1_555 1_555
O9_3 C7_6 1_555 1_555
O10_3 C7_6 1_555 1_555
O12_2 C5_6 1_555 1_555
N5_6 H3_6 1_555 1_555
C2_6 C3_6 1_555 1_555
C3_6 H4_6 1_555 1_555
C4_6 H5_6 1_555 1_555
C5_6 O11_2 1_555 1_555
C6_6 C2_6 1_555 1_555
H6_6 C6_6 1_555 1_555
C7_6 C2_6 1_555 1_555
C8_6 C4_6 1_555 1_555
C9_6 N5_6 1_555 1_555
C11_6 C12_6 1_555 1_555
O7_6 C15_6 1_555 1_555
C12_6 H7_6 1_555 1_555
C15_6 N5_6 1_555 1_555
C3_6 C9_6 1_555 1_555
C4_6 C9_6 1_555 1_555
C5_6 C8_6 1_555 1_555
C6_6 C8_6 1_555 1_555
C11_6 C15_6 1_555 1_555
O9_2 C7_7 1_555 1_555
O10_2 C7_7 1_555 1_555
O12_3 C5_7 1_555 1_555
C2_7 C3_7 1_555 1_555
C3_7 H4_7 1_555 1_555
C4_7 H5_7 1_555 1_555
C5_7 O11_3 1_555 1_555
C6_7 C2_7 1_555 1_555
H6_7 C6_7 1_555 1_555
C7_7 C2_7 1_555 1_555
C8_7 C4_7 1_555 1_555
C3_7 C9_7 1_555 1_555
C4_7 C9_7 1_555 1_555
C5_7 C8_7 1_555 1_555
C6_7 C8_7 1_555 1_555
N7 N9_3 1_555 1_555
N8_4 N9_3 1_555 1_555
C1_7 N6_4 1_555 1_555
H8_7 C13_7 1_555 1_555
N7 C1_7 1_555 1_555
O8_3 H11_7 1_555 1_555
H1_7 O6_7 1_555 1_555
H2_7 O6_7 1_555 1_555
N5_7 H3_7 1_555 1_555
C11_7 C12_7 1_555 1_555
O7_7 C15_7 1_555 1_555
C14_7 C10_7 1_555 1_555
H9_7 C14_7 1_555 1_555
C15_7 N5_7 1_555 1_555
C16_7 C11_7 1_555 1_555
H10_7 C16_7 1_555 1_555
C11_7 C15_7 1_555 1_555
C14_7 C16_7 1_555 1_555
N7_2 N9_4 1_555 1_555
N8_3 N9_4 1_555 1_555
C1_8 N6_3 1_555 1_555
H8_8 C13_8 1_555 1_555
N7_2 C1_8 1_555 1_555
H1_8 O6_8 1_555 1_555
H2_8 O6_8 1_555 1_555
C14_8 C10_8 1_555 1_555
H9_8 C14_8 1_555 1_555
H10_8 C16_8 1_555 1_555
C14_8 C16_8 1_555 1_555
N5_8 H3_8 1_555 1_555
C11_8 C12_8 1_555 1_555
O7_8 C15_8 1_555 1_555
C15_8 N5_8 1_555 1_555
C11_8 C15_8 1_555 1_555
O9 C7_8 1_555 1_555
O10 C7_8 1_555 1_555
O12_4 C5_8 1_555 1_555
C2_8 C3_8 1_555 1_555
C3_8 H4_8 1_555 1_555
C4_8 H5_8 1_555 1_555
C5_8 O11_4 1_555 1_555
C6_8 C2_8 1_555 1_555
H6_8 C6_8 1_555 1_555
C7_8 C2_8 1_555 1_555
C8_8 C4_8 1_555 1_555
C3_8 C9_8 1_555 1_555
C4_8 C9_8 1_555 1_555
C5_8 C8_8 1_555 1_555
C6_8 C8_8 1_555 1_555

#END
