
###############################################################################
#
# This file contains modified crystal structure data generated from the
# MOF subset of the Cambridge Structural Database (CSD) v543 
# hosted by the Cambridge Crystallographic Data Centre (CCDC).
#
# This work is licensed under the Creative Commons
# Attribution-NonCommercial-ShareAlike 4.0 International License.
# To view a copy of this license, visit
# http://creativecommons.org/licenses/by-nc-sa/4.0/
# or send a letter to
# Creative Commons, PO Box 1866, Mountain View, CA 94042, USA.
#
# CIF created using the CSD Python API on 29 September 2022
# The structure has been converted into the P1 space group
# The structure has a 3D framework
# The original CSD entry HISFUM is in the triclinic crystal system
# The framework has been calculated to contain at least 10.0% void space
# The void calculation uses a probe of radius 1.32A, grid spacing 0.4
#
###############################################################################

data_HISFUM
_chemical_formula_moiety         '(C28 H16 Na2 O10 S2)n'
_symmetry_cell_setting           triclinic
_symmetry_space_group_name_H-M   'P 1'
_symmetry_Int_Tables_number      1
_space_group_name_Hall           'P 1'
loop_
_symmetry_equiv_pos_site_id
_symmetry_equiv_pos_as_xyz
1 x,y,z
_cell_length_a                   6.0616(4)
_cell_length_b                   10.9133(7)
_cell_length_c                   12.8782(7)
_cell_angle_alpha                72.017(3)
_cell_angle_beta                 79.418(3)
_cell_angle_gamma                78.143(3)
_cell_volume                     786.373
loop_
_atom_site_label
_atom_site_type_symbol
_atom_site_fract_x
_atom_site_fract_y
_atom_site_fract_z
Na2 Na 0.0864(2) 0.47174(14) 0.65475(11)
O8 O 0.4071(4) 0.4308(3) 0.7260(2)
O12 O 0.0911(4) 0.3407(2) 0.5361(2)
O14 O 0.2722(4) 0.6099(2) 0.4933(2)
Na1 Na 0.4081(2) 0.42159(14) 0.42480(11)
S1 S 0.23315(14) 0.25076(8) 0.27657(7)
O5 O 0.4143(4) 0.2573(2) 0.3328(2)
O6 O 0.0134(4) 0.3290(2) 0.2922(2)
C4 C 0.1815(9) 0.3150(9) 0.0617(4)
H2 H 0.0288 0.3097 0.0868
C5 C 0.3320(6) 0.2889(3) 0.1348(3)
C6 C 0.5555(7) 0.2976(6) 0.0986(4)
H3 H 0.6587 0.2796 0.1486
C8 C 0.1908(6) 0.0862(3) 0.3163(3)
H5 H 0.5226 0.0110 0.2867
O7 O 0.2411(4) 0.5779(3) 0.2421(2)
O9 O 0.5929(4) 0.5692(3) 0.2740(2)
O15 O 0.7278(4) 0.3901(2) 0.5067(2)
O1 O 0.7589(4) 0.4221(3) 0.7579(2)
C1 C 0.5548(6) 0.4073(3) 0.7885(3)
C2 C 0.4789(6) 0.3597(4) 0.9117(3)
C3 C 0.2559(9) 0.3497(8) 0.9492(4)
H1 H 0.1529 0.3662 0.8993
C7 C 0.6277(7) 0.3338(6) 0.9859(3)
H4 H 0.7800 0.3405 0.9609
Na6 Na 0.5919(2) 0.57841(14) 0.57520(11)
O10 O 0.9089(4) 0.6593(2) 0.4639(2)
O16 O 0.9866(4) 0.6710(2) 0.7078(2)
C9 C 0.3790(6) 0.9892(3) 0.3158(3)
C10 C 0.3511(6) 0.8598(3) 0.3589(3)
H6 H 0.4762 0.7941 0.3596
C11 C 0.1337(6) 0.8278(3) 0.4016(3)
C14 C 0.1032(6) 0.6877(3) 0.4561(3)
C13 C 0.9719(6) 0.0570(3) 0.3550(3)
H8 H 0.8469 0.1230 0.3526
Na10 Na 0.9136(2) 0.52826(14) 0.34525(11)
C12 C 0.9454(6) 0.9266(3) 0.3970(3)
H7 H 0.8007 0.9049 0.4225
C12_2 C 0.0546(6) 0.0734(3) 0.6030(3)
H7_2 H 0.1993 0.0951 0.5775
C13_2 C 0.0281(6) 0.9430(3) 0.6450(3)
H8_2 H 0.1531 0.8770 0.6474
C9_2 C 0.6210(6) 0.0108(3) 0.6842(3)
C10_2 C 0.6489(6) 0.1402(3) 0.6411(3)
H6_2 H 0.5238 0.2059 0.6404
C11_2 C 0.8663(6) 0.1722(3) 0.5984(3)
C14_2 C 0.8968(6) 0.3123(3) 0.5439(3)
C1_2 C 0.4452(6) 0.5927(3) 0.2115(3)
C2_2 C 0.5211(6) 0.6403(4) 0.0883(3)
C3_2 C 0.7441(9) 0.6503(8) 0.0508(4)
H1_2 H 0.8471 0.6338 0.1007
C7_2 C 0.3723(7) 0.6662(6) 0.0141(3)
H4_2 H 0.2200 0.6595 0.0391
S1_2 S 0.76685(14) 0.74924(8) 0.72343(7)
O5_2 O 0.5857(4) 0.7427(2) 0.6672(2)
C4_2 C 0.8185(9) 0.6850(9) 0.9383(4)
H2_2 H 0.9712 0.6903 0.9132
C5_2 C 0.6680(6) 0.7111(3) 0.8652(3)
C6_2 C 0.4445(7) 0.7024(6) 0.9014(4)
H3_2 H 0.3413 0.7204 0.8514
C8_2 C 0.8092(6) 0.9138(3) 0.6837(3)
H5_2 H 0.4774 0.9890 0.7133
loop_
_geom_bond_atom_site_label_1
_geom_bond_atom_site_label_2
_geom_bond_site_symmetry_1
_geom_bond_site_symmetry_2
O8 Na2 1_555 1_555
O12 Na2 1_555 1_555
O14 Na2 1_555 1_555
Na1 O5 1_555 1_555
S1 O5 1_555 1_555
O6 S1 1_555 1_555
H2 C4 1_555 1_555
C5 S1 1_555 1_555
C6 C5 1_555 1_555
H3 C6 1_555 1_555
C8 S1 1_555 1_555
O7 Na1 1_555 1_555
O9 Na1 1_555 1_555
O12 Na1 1_555 1_555
O14 Na1 1_555 1_555
O15 Na1 1_555 1_555
C4 C5 1_555 1_555
O1 C1 1_555 1_555
O8 C1 1_555 1_555
C1 C2 1_555 1_555
C2 C3 1_555 1_555
C3 H1 1_555 1_555
C7 C2 1_555 1_555
H4 C7 1_555 1_555
Na6 O1 1_555 1_555
O8 Na6 1_555 1_555
Na6 O10 1_555 1_555
O14 C14 1_555 1_555
C10 C9 1_555 1_555
H6 C10 1_555 1_555
C11 C10 1_555 1_555
C14 C11 1_555 1_555
Na6 O14 1_555 1_555
H8 C13 1_555 1_555
H7 C12 1_555 1_555
Na10 O10 1_555 1_555
H7_2 C12_2 1_555 1_555
H8_2 C13_2 1_555 1_555
O15 C14_2 1_555 1_555
C10_2 C9_2 1_555 1_555
H6_2 C10_2 1_555 1_555
C11_2 C10_2 1_555 1_555
C14_2 C11_2 1_555 1_555
Na6 O15 1_555 1_555
O15 Na10 1_555 1_555
O7 C1_2 1_555 1_555
O9 C1_2 1_555 1_555
C1_2 C2_2 1_555 1_555
C2_2 C3_2 1_555 1_555
C3_2 H1_2 1_555 1_555
C7_2 C2_2 1_555 1_555
H4_2 C7_2 1_555 1_555
Na10 O9 1_555 1_555
Na6 O5_2 1_555 1_555
S1_2 O5_2 1_555 1_555
O16 S1_2 1_555 1_555
H2_2 C4_2 1_555 1_555
C5_2 S1_2 1_555 1_555
C6_2 C5_2 1_555 1_555
H3_2 C6_2 1_555 1_555
C8_2 S1_2 1_555 1_555
C4_2 C5_2 1_555 1_555

#END
