
###############################################################################
#
# This file contains modified crystal structure data generated from the
# MOF subset of the Cambridge Structural Database (CSD) v543 
# hosted by the Cambridge Crystallographic Data Centre (CCDC).
#
# This work is licensed under the Creative Commons
# Attribution-NonCommercial-ShareAlike 4.0 International License.
# To view a copy of this license, visit
# http://creativecommons.org/licenses/by-nc-sa/4.0/
# or send a letter to
# Creative Commons, PO Box 1866, Mountain View, CA 94042, USA.
#
# CIF created using the CSD Python API on 29 September 2022
# The structure has been converted into the P1 space group
# The structure has a 3D framework
# The original CSD entry HISGIB is in the triclinic crystal system
# The framework has been calculated to contain at least 10.0% void space
# The void calculation uses a probe of radius 1.32A, grid spacing 0.4
#
###############################################################################

data_HISGIB
_chemical_formula_moiety         '(C28 H16 O12 S2)n'
_symmetry_cell_setting           triclinic
_symmetry_space_group_name_H-M   'P 1'
_symmetry_Int_Tables_number      1
_space_group_name_Hall           'P 1'
loop_
_symmetry_equiv_pos_site_id
_symmetry_equiv_pos_as_xyz
1 x,y,z
_cell_length_a                   6.0544(2)
_cell_length_b                   12.4991(3)
_cell_length_c                   14.7539(5)
_cell_angle_alpha                114.4620(10)
_cell_angle_beta                 93.2130(10)
_cell_angle_gamma                100.1770(10)
_cell_volume                     989.826
loop_
_atom_site_label
_atom_site_type_symbol
_atom_site_fract_x
_atom_site_fract_y
_atom_site_fract_z
Cs7 Cs 0.22922(2) 0.306976(11) 0.875946(9)
O3 O 0.6495(3) 0.39751(14) 0.04323(12)
O4 O 0.9768(3) 0.34402(15) 0.05781(13)
O5 O 0.6114(3) 0.29963(17) 0.70295(12)
O6 O 0.9181(3) 0.22160(19) 0.67343(13)
C1 C 0.7677(4) 0.33446(18) 0.06175(15)
C2 C 0.6531(3) 0.23927(17) 0.09263(14)
C3 C 0.7620(3) 0.14883(19) 0.08925(16)
H3 H 0.9002 0.1452 0.0648
C4 C 0.4443(4) 0.24306(19) 0.12662(16)
H4 H 0.3679 0.3012 0.1261
C5 C 0.6677(3) 0.06447(18) 0.12170(16)
H5 H 0.7404 0.0038 0.1191
C6 C 0.4618(3) 0.07201(17) 0.15837(14)
C7 C 0.3490(3) 0.16028(19) 0.16152(16)
H6 H 0.2116 0.1642 0.1866
C8 C 0.4533(3) 0.04352(16) 0.33516(14)
C9 C 0.6619(4) 0.02956(19) 0.36737(16)
C10 C 0.7487(3) 0.0908(2) 0.46862(16)
H8 H 0.8880 0.0823 0.4914
C11 C 0.6297(3) 0.16452(18) 0.53632(15)
C12 C 0.4212(4) 0.1775(2) 0.50331(15)
H9 H 0.3409 0.2263 0.5491
C13 C 0.3325(4) 0.1175(2) 0.40177(15)
H10 H 0.1942 0.1269 0.3789
C14 C 0.7348(4) 0.2308(2) 0.64461(16)
Cs3 Cs 0.77078(2) 0.693024(11) 0.124054(9)
S1 S 0.34417(8) 0.96919(4) 0.20551(3)
O1 O 0.1022(2) 0.95650(14) 0.19562(12)
O2 O 0.4356(3) 0.86321(13) 0.16177(11)
O7 O 0.2018(3) 0.57133(14) 0.11659(11)
H1 H 0.2381 0.5769 0.0636
H2 H 0.1309 0.4990 0.1009
H7 H 0.7416 0.9801 0.3218
O13 O 0.0819(3) 0.77840(19) 0.32657(13)
O11 O 0.0232(3) 0.65598(15) 0.94219(13)
O12 O 0.3886(3) 0.70037(17) 0.29705(12)
O10 O 0.3505(3) 0.60249(14) 0.95677(12)
O8 O 0.5644(3) 0.13679(13) 0.83823(11)
O14 O 0.7982(3) 0.42867(14) 0.88341(11)
S1_2 S 0.65583(8) 0.03081(4) 0.79449(3)
O1_2 O 0.8978(2) 0.04350(14) 0.80438(12)
H1_2 H 0.7619 0.4231 0.9364
H2_2 H 0.8691 0.5010 0.8991
H7_2 H 0.2584 0.0199 0.6782
C1_2 C 0.2323(4) 0.66554(18) 0.93825(15)
C2_2 C 0.3469(3) 0.76073(17) 0.90737(14)
C3_2 C 0.2380(3) 0.85117(19) 0.91075(16)
H3_2 H 0.0998 0.8548 0.9352
C4_2 C 0.5557(4) 0.75694(19) 0.87338(16)
H4_2 H 0.6321 0.6988 0.8739
C5_2 C 0.3323(3) 0.93553(18) 0.87830(16)
H5_2 H 0.2596 0.9962 0.8809
C6_2 C 0.5382(3) 0.92799(17) 0.84163(14)
C7_2 C 0.6510(3) 0.83972(19) 0.83848(16)
H6_2 H 0.7884 0.8358 0.8134
C8_2 C 0.5467(3) 0.95648(16) 0.66484(14)
C9_2 C 0.3381(4) 0.97044(19) 0.63263(16)
C10_2 C 0.2513(3) 0.9092(2) 0.53138(16)
H8_2 H 0.1120 0.9177 0.5086
C11_2 C 0.3703(3) 0.83548(18) 0.46368(15)
C12_2 C 0.5788(4) 0.8225(2) 0.49669(15)
H9_2 H 0.6591 0.7737 0.4509
C13_2 C 0.6675(4) 0.8825(2) 0.59823(15)
H10_2 H 0.8058 0.8731 0.6211
C14_2 C 0.2652(4) 0.7692(2) 0.35539(16)
loop_
_geom_bond_atom_site_label_1
_geom_bond_atom_site_label_2
_geom_bond_site_symmetry_1
_geom_bond_site_symmetry_2
O3 C1 1_555 1_555
O4 C1 1_555 1_555
O5 C14 1_555 1_555
O6 C14 1_555 1_555
C1 C2 1_555 1_555
C2 C3 1_555 1_555
C3 H3 1_555 1_555
C4 C2 1_555 1_555
H4 C4 1_555 1_555
C5 C3 1_555 1_555
H5 C5 1_555 1_555
C7 C4 1_555 1_555
H6 C7 1_555 1_555
C9 C8 1_555 1_555
C10 C9 1_555 1_555
H8 C10 1_555 1_555
C11 C10 1_555 1_555
C12 C11 1_555 1_555
H9 C12 1_555 1_555
C13 C8 1_555 1_555
H10 C13 1_555 1_555
C14 C11 1_555 1_555
Cs3 O3 1_555 1_555
Cs7 O5 1_555 1_555
C5 C6 1_555 1_555
C6 C7 1_555 1_555
C12 C13 1_555 1_555
S1 O1 1_555 1_555
O2 S1 1_555 1_555
H1 O7 1_555 1_555
H2 O7 1_555 1_555
Cs3 O2 1_555 1_555
O7 Cs3 1_555 1_555
O12 Cs3 1_555 1_555
O8 Cs7 1_555 1_555
O10 Cs7 1_555 1_555
O14 Cs7 1_555 1_555
S1_2 O1_2 1_555 1_555
O8 S1_2 1_555 1_555
H1_2 O14 1_555 1_555
H2_2 O14 1_555 1_555
O10 C1_2 1_555 1_555
O11 C1_2 1_555 1_555
O12 C14_2 1_555 1_555
O13 C14_2 1_555 1_555
C1_2 C2_2 1_555 1_555
C2_2 C3_2 1_555 1_555
C3_2 H3_2 1_555 1_555
C4_2 C2_2 1_555 1_555
H4_2 C4_2 1_555 1_555
C5_2 C3_2 1_555 1_555
H5_2 C5_2 1_555 1_555
C7_2 C4_2 1_555 1_555
H6_2 C7_2 1_555 1_555
C9_2 C8_2 1_555 1_555
C10_2 C9_2 1_555 1_555
H8_2 C10_2 1_555 1_555
C11_2 C10_2 1_555 1_555
C12_2 C11_2 1_555 1_555
H9_2 C12_2 1_555 1_555
C13_2 C8_2 1_555 1_555
H10_2 C13_2 1_555 1_555
C14_2 C11_2 1_555 1_555
C5_2 C6_2 1_555 1_555
C6_2 C7_2 1_555 1_555
C12_2 C13_2 1_555 1_555

#END
