
###############################################################################
#
# This file contains modified crystal structure data generated from the
# MOF subset of the Cambridge Structural Database (CSD) v543 
# hosted by the Cambridge Crystallographic Data Centre (CCDC).
#
# This work is licensed under the Creative Commons
# Attribution-NonCommercial-ShareAlike 4.0 International License.
# To view a copy of this license, visit
# http://creativecommons.org/licenses/by-nc-sa/4.0/
# or send a letter to
# Creative Commons, PO Box 1866, Mountain View, CA 94042, USA.
#
# CIF created using the CSD Python API on 29 September 2022
# The structure has been converted into the P1 space group
# The structure has a 3D framework
# The original CSD entry HISJIE is in the orthorhombic crystal system
# The framework has been calculated to contain at least 10.0% void space
# The void calculation uses a probe of radius 1.32A, grid spacing 0.4
# H atom positions have been added when not included in the experimental data
#
###############################################################################

data_HISJIE
_chemical_formula_moiety         '(C216 H184 Co20 O110)n'
_symmetry_cell_setting           triclinic
_symmetry_space_group_name_H-M   'P 1'
_symmetry_Int_Tables_number      1
_space_group_name_Hall           'P 1'
loop_
_symmetry_equiv_pos_site_id
_symmetry_equiv_pos_as_xyz
1 x,y,z
_cell_length_a                   14.3747(15)
_cell_length_b                   23.957(3)
_cell_length_c                   18.633(2)
_cell_angle_alpha                90
_cell_angle_beta                 90
_cell_angle_gamma                90
_cell_volume                     6416.73
loop_
_atom_site_label
_atom_site_type_symbol
_atom_site_fract_x
_atom_site_fract_y
_atom_site_fract_z
O37 O 0.0061(2) 0.66744(11) 0.28633(18)
O17 O 0.0083(2) 0.47258(12) 0.83935(16)
O18 O 0.0112(3) 0.41538(13) 0.9315(2)
Co11 Co 0.05697(4) 0.40601(2) 0.78922(3)
Co1 Co 0.81533(3) 0.428873(19) 0.17536(3)
Co2 Co 0.61975(3) 0.499111(18) 0.23587(3)
Co3 Co 0.42317(3) 0.568361(19) 0.29905(2)
Co4 Co 0.94303(4) 0.59399(2) 0.28922(3)
Co5 Co 0.30086(4) 0.406841(19) 0.18236(3)
O1 O 0.27939(19) 0.50398(10) 0.65007(14)
O2 O 0.2312(2) 0.55689(11) 0.56281(16)
O3 O 0.63910(19) 0.58489(10) 0.23515(17)
O4 O 0.52418(19) 0.63055(10) 0.29258(17)
O5 O 0.7127(2) 0.36844(11) 0.17867(18)
O6 O 0.59951(19) 0.41270(10) 0.23830(17)
O7 O 0.52156(19) 0.50158(10) 0.32338(14)
O8 O 0.46962(19) 0.55561(11) 0.40915(14)
O9 O 0.2522(2) 0.47579(12) 0.13715(15)
O10 O 0.2615(3) 0.41884(13) 0.04445(19)
O11 O 0.7396(2) 0.16772(11) 0.18309(18)
H1 H 0.7654 0.2008 0.1662
O12 O 0.6258(3) 0.11582(13) 0.2237(3)
O13 O 0.31453(19) 0.50512(11) 0.30737(15)
O14 O 0.3237(2) 0.41408(12) 0.28684(18)
O15 O 0.5885(2) 0.42624(12) 0.69127(15)
O16 O 0.49026(19) 0.49469(11) 0.66257(15)
O21 O 0.92477(19) 0.49039(11) 0.17544(16)
O22 O 0.9251(2) 0.58257(13) 0.18505(19)
O23 O 0.6253(3) 0.88252(12) 0.2469(3)
O24 O 0.9127(3) 0.36861(16) 0.1468(2)
O25 O 0.3194(3) 0.62699(14) 0.3227(2)
O26 O 0.8140(2) 0.60714(18) 0.3293(3)
O27 O 0.5061(2) 0.83256(11) 0.28633(18)
H2 H 0.4803 0.7995 0.3033
O28 O 0.4303(2) 0.39251(15) 0.1404(2)
C1 C 0.2720(2) 0.51350(15) 0.5828(2)
C2 C 0.3056(2) 0.47246(14) 0.53003(18)
C3 C 0.3010(2) 0.48372(15) 0.45658(19)
H3 H 0.2808 0.5185 0.4408
C4 C 0.3266(2) 0.44317(14) 0.40692(19)
C5 C 0.3546(3) 0.39059(15) 0.4316(2)
H4 H 0.3709 0.3633 0.3985
C6 C 0.3585(3) 0.37825(15) 0.5041(2)
C7 C 0.3351(3) 0.41916(15) 0.5528(2)
H5 H 0.3389 0.4115 0.6017
C8 C 0.3888(3) 0.31997(17) 0.5290(3)
H6 H 0.3875 0.3183 0.5805
H7 H 0.4508 0.3126 0.5124
H8 H 0.3471 0.2925 0.5098
C9 C 0.5993(3) 0.62834(14) 0.25732(19)
C10 C 0.6430(3) 0.68345(13) 0.2376(2)
C11 C 0.7281(3) 0.68599(14) 0.2046(2)
H9 H 0.7592 0.6530 0.1936
C12 C 0.7694(3) 0.73750(15) 0.1871(3)
C13 C 0.7216(3) 0.78610(15) 0.2046(2)
H10 H 0.7476 0.8206 0.1934
C14 C 0.6358(3) 0.78387(14) 0.2384(2)
C15 C 0.5965(3) 0.73267(14) 0.2561(2)
H11 H 0.5397 0.7312 0.2799
C16 C 0.5874(3) 0.83656(17) 0.2578(2)
C17 C 0.8644(3) 0.73917(19) 0.1513(3)
H12 H 0.8823 0.7773 0.1434
H13 H 0.8615 0.7200 0.1061
H14 H 0.9094 0.7213 0.1817
C18 C 0.6398(3) 0.36969(14) 0.2168(2)
C19 C 0.5973(2) 0.31409(13) 0.2343(2)
C20 C 0.5104(3) 0.30954(15) 0.2694(2)
H15 H 0.4787 0.3417 0.2831
C21 C 0.4720(3) 0.25778(17) 0.2836(2)
C22 C 0.5202(3) 0.21061(16) 0.2654(2)
H16 H 0.4949 0.1758 0.2758
C23 C 0.6442(3) 0.26619(14) 0.2161(2)
H17 H 0.7016 0.2687 0.1932
C24 C 0.3779(3) 0.2520(2) 0.3179(3)
H18 H 0.3633 0.2132 0.3238
H19 H 0.3319 0.2693 0.2878
H20 H 0.3783 0.2700 0.3640
C25 C 0.5135(2) 0.51274(14) 0.38984(18)
C26 C 0.5479(2) 0.47240(14) 0.44493(19)
C27 C 0.5842(3) 0.42093(16) 0.4232(2)
H21 H 0.5907 0.4130 0.3746
C28 C 0.6108(3) 0.38128(15) 0.4744(2)
C29 C 0.6021(3) 0.39443(15) 0.5464(2)
H22 H 0.6219 0.3688 0.5807
C30 C 0.5643(2) 0.44551(16) 0.5687(2)
C31 C 0.5366(2) 0.48452(15) 0.51718(19)
H23 H 0.5108 0.5184 0.5313
C32 C 0.6449(3) 0.32457(16) 0.4506(2)
H24 H 0.6460 0.3231 0.3991
H25 H 0.6038 0.2962 0.4686
H26 H 0.7065 0.3184 0.4689
C33 C 0.5470(3) 0.45690(15) 0.6468(2)
C34 C 0.6580(3) 0.16210(16) 0.2112(2)
C35 C 0.6066(3) 0.21379(15) 0.2315(2)
C36 C 0.3217(2) 0.45590(15) 0.3276(2)
C37 C 0.2436(3) 0.46566(17) 0.0700(2)
C38 C 0.2117(3) 0.51263(16) 0.0229(2)
C39 C 0.1764(3) 0.56229(15) 0.0512(2)
H27 H 0.1724 0.5668 0.1006
C40 C 0.1473(3) 0.60491(16) 0.0060(2)
C44 C 0.1127(3) 0.65908(18) 0.0377(3)
H30 H 0.1135 0.6566 0.0891
H31 H 0.0503 0.6660 0.0216
H32 H 0.1523 0.6891 0.0225
C47 C 0.9540(3) 0.50194(16) 0.0254(2)
H33 H 0.9690 0.4678 0.0461
C48 C 0.9254(2) 0.54535(15) 0.0689(2)
C49 C 0.8993(3) 0.59577(15) 0.0377(2)
H34 H 0.8783 0.6248 0.0666
C54 C 0.9229(3) 0.53852(16) 0.1480(2)
Co7 Co 0.18467(3) 0.571127(19) 0.67536(3)
Co9 Co 0.38025(3) 0.500889(18) 0.73587(3)
Co10 Co 0.57683(3) 0.431639(19) 0.79905(2)
Co12 Co 0.44303(4) 0.90601(2) 0.28922(3)
Co13 Co 0.80086(4) 0.093159(19) 0.18236(3)
O29 O 0.72061(19) 0.49602(10) 0.15007(14)
O30 O 0.7688(2) 0.44311(11) 0.06281(16)
O31 O 0.2396(2) 0.33228(11) 0.18309(18)
O32 O 0.4115(2) 0.57376(12) 0.19127(15)
O33 O 0.50974(19) 0.50531(11) 0.16257(15)
O34 O 0.9917(2) 0.52742(12) 0.33935(16)
O35 O 0.8264(2) 0.42299(12) 0.28314(16)
O36 O 0.7327(2) 0.49439(11) 0.30533(16)
H39 H 0.774371 0.574064 0.319457
H40 H 0.818059 0.613231 0.381921
H41 H 0.893731 0.350815 0.100948
H42 H 0.974582 0.386427 0.140779
H43 H 0.314369 0.654171 0.282654
H44 H 0.258953 0.607541 0.329037
H45 H 0.471456 0.424709 0.151266
H46 H 0.456817 0.358115 0.161987
O19 O 0.1736(2) 0.57701(12) 0.78314(16)
O20 O 0.2673(2) 0.50561(11) 0.80533(16)
C41 C 0.1538(3) 0.59710(15) 0.9318(2)
H28 H 0.1310 0.6244 0.9010
C42 C 0.1935(2) 0.54951(16) 0.9036(2)
C43 C 0.2213(3) 0.50612(15) 0.9492(2)
H29 H 0.2459 0.4734 0.9303
C45 C 0.9959(3) 0.46214(17) 0.9057(2)
C46 C 0.9607(3) 0.50823(16) 0.9525(2)
C50 C 0.9042(3) 0.60344(16) 0.9635(2)
C51 C 0.9361(3) 0.55998(17) 0.9214(2)
H35 H 0.9415 0.5648 0.8721
C52 C 0.8756(3) 0.65918(19) 0.9298(3)
H36 H 0.8833 0.6573 0.8787
H37 H 0.9139 0.6885 0.9488
H38 H 0.8116 0.6667 0.9408
C53 C 0.2117(3) 0.54343(15) 0.8246(2)
C1_2 C 0.7280(2) 0.48650(15) 0.0828(2)
C2_2 C 0.6944(2) 0.52754(14) 0.03003(18)
C6_2 C 0.6415(3) 0.62175(15) 0.0041(2)
C7_2 C 0.6649(3) 0.58084(15) 0.0528(2)
H5_2 H 0.6611 0.5885 0.1017
C8_2 C 0.6112(3) 0.68003(17) 0.0290(3)
H6_2 H 0.6125 0.6817 0.0805
H7_2 H 0.5492 0.6874 0.0124
H8_2 H 0.6529 0.7075 0.0098
C29_2 C 0.3979(3) 0.60557(15) 0.0464(2)
H22_2 H 0.3781 0.6312 0.0807
C30_2 C 0.4357(2) 0.55449(16) 0.0687(2)
C31_2 C 0.4634(2) 0.51548(15) 0.01718(19)
H23_2 H 0.4892 0.4816 0.0313
C33_2 C 0.4530(3) 0.54310(15) 0.1468(2)
Co5_2 Co 0.69914(4) 0.593159(19) 0.68236(3)
O3_2 O 0.36090(19) 0.41511(10) 0.73515(17)
O4_2 O 0.47582(19) 0.36945(10) 0.79258(17)
O5_2 O 0.2873(2) 0.63156(11) 0.67867(18)
O6_2 O 0.40049(19) 0.58730(10) 0.73830(17)
O7_2 O 0.47844(19) 0.49842(10) 0.82338(14)
O8_2 O 0.53038(19) 0.44439(11) 0.90915(14)
O9_2 O 0.7478(2) 0.52421(12) 0.63715(15)
O10_2 O 0.7385(3) 0.58116(13) 0.54445(19)
O11_2 O 0.2604(2) 0.83228(11) 0.68309(18)
H1_2 H 0.2346 0.7992 0.6662
O12_2 O 0.3742(3) 0.88418(13) 0.7237(3)
O13_2 O 0.68547(19) 0.49488(11) 0.80737(15)
O14_2 O 0.6763(2) 0.58592(12) 0.78684(18)
O21_2 O 0.07523(19) 0.50961(11) 0.67544(16)
O22_2 O 0.0749(2) 0.41743(13) 0.68505(19)
O23_2 O 0.3747(3) 0.11748(12) 0.7469(3)
O24_2 O 0.0873(3) 0.63139(16) 0.6468(2)
O25_2 O 0.6806(3) 0.37301(14) 0.8227(2)
O26_2 O 0.1860(2) 0.39286(18) 0.8293(3)
O27_2 O 0.4939(2) 0.16744(11) 0.78633(18)
H2_2 H 0.5197 0.2005 0.8033
O28_2 O 0.5697(2) 0.60749(15) 0.6404(2)
C3_2 C 0.6990(2) 0.51628(15) 0.95658(19)
H3_2 H 0.7192 0.4815 0.9408
C4_2 C 0.6734(2) 0.55683(14) 0.90692(19)
C5_2 C 0.6454(3) 0.60941(15) 0.9316(2)
H4_2 H 0.6291 0.6367 0.8985
C9_2 C 0.4007(3) 0.37166(14) 0.75732(19)
C10_2 C 0.3570(3) 0.31655(13) 0.7376(2)
C11_2 C 0.2719(3) 0.31401(14) 0.7046(2)
H9_2 H 0.2408 0.3470 0.6936
C12_2 C 0.2306(3) 0.26250(15) 0.6871(3)
C13_2 C 0.2784(3) 0.21390(15) 0.7046(2)
H10_2 H 0.2524 0.1794 0.6934
C14_2 C 0.3642(3) 0.21613(14) 0.7384(2)
C15_2 C 0.4035(3) 0.26733(14) 0.7561(2)
H11_2 H 0.4603 0.2688 0.7799
C16_2 C 0.4126(3) 0.16344(17) 0.7578(2)
C17_2 C 0.1356(3) 0.26083(19) 0.6513(3)
H12_2 H 0.1177 0.2227 0.6434
H13_2 H 0.1385 0.2800 0.6061
H14_2 H 0.0906 0.2787 0.6817
C18_2 C 0.3602(3) 0.63031(14) 0.7168(2)
C19_2 C 0.4027(2) 0.68591(13) 0.7343(2)
C20_2 C 0.4896(3) 0.69046(15) 0.7694(2)
H15_2 H 0.5213 0.6583 0.7831
C21_2 C 0.5280(3) 0.74222(17) 0.7836(2)
C22_2 C 0.4798(3) 0.78939(16) 0.7654(2)
H16_2 H 0.5051 0.8242 0.7758
C23_2 C 0.3558(3) 0.73381(14) 0.7161(2)
H17_2 H 0.2984 0.7313 0.6932
C24_2 C 0.6221(3) 0.7480(2) 0.8179(3)
H18_2 H 0.6367 0.7868 0.8238
H19_2 H 0.6681 0.7307 0.7878
H20_2 H 0.6217 0.7300 0.8640
C25_2 C 0.4865(2) 0.48726(14) 0.88984(18)
C26_2 C 0.4521(2) 0.52760(14) 0.94493(19)
C27_2 C 0.4158(3) 0.57907(16) 0.9232(2)
H21_2 H 0.4093 0.5870 0.8746
C28_2 C 0.3892(3) 0.61872(15) 0.9744(2)
C32_2 C 0.3551(3) 0.67543(16) 0.9506(2)
H24_2 H 0.3540 0.6769 0.8991
H25_2 H 0.3962 0.7038 0.9686
H26_2 H 0.2935 0.6816 0.9689
C34_2 C 0.3420(3) 0.83790(16) 0.7112(2)
C35_2 C 0.3934(3) 0.78621(15) 0.7315(2)
C36_2 C 0.6783(2) 0.54410(15) 0.8276(2)
C37_2 C 0.7564(3) 0.53434(17) 0.5700(2)
C38_2 C 0.7883(3) 0.48737(16) 0.5229(2)
C39_2 C 0.8236(3) 0.43771(15) 0.5512(2)
H27_2 H 0.8276 0.4332 0.6006
C40_2 C 0.8527(3) 0.39509(16) 0.5060(2)
C41_2 C 0.8462(3) 0.40290(15) 0.4318(2)
H28_2 H 0.8690 0.3756 0.4010
C42_2 C 0.8065(2) 0.45049(16) 0.4036(2)
C43_2 C 0.7787(3) 0.49388(15) 0.4492(2)
H29_2 H 0.7541 0.5266 0.4303
C44_2 C 0.8873(3) 0.34092(18) 0.5377(3)
H30_2 H 0.8865 0.3434 0.5891
H31_2 H 0.9497 0.3340 0.5216
H32_2 H 0.8477 0.3109 0.5225
C45_2 C 0.0041(3) 0.53786(17) 0.4057(2)
C46_2 C 0.0393(3) 0.49177(16) 0.4525(2)
C47_2 C 0.0460(3) 0.49806(16) 0.5254(2)
H33_2 H 0.0310 0.5322 0.5461
C48_2 C 0.0746(2) 0.45465(15) 0.5689(2)
C49_2 C 0.1007(3) 0.40423(15) 0.5377(2)
H34_2 H 0.1217 0.3752 0.5666
C50_2 C 0.0958(3) 0.39656(16) 0.4635(2)
C51_2 C 0.0639(3) 0.44002(17) 0.4214(2)
H35_2 H 0.0585 0.4352 0.3721
C52_2 C 0.1244(3) 0.34082(19) 0.4298(3)
H36_2 H 0.1167 0.3427 0.3787
H37_2 H 0.0861 0.3115 0.4488
H38_2 H 0.1884 0.3333 0.4408
C53_2 C 0.7883(3) 0.45657(15) 0.3246(2)
C54_2 C 0.0771(3) 0.46148(16) 0.6480(2)
Co12_2 Co 0.55697(4) 0.09399(2) 0.78922(3)
Co13_2 Co 0.19914(4) 0.906841(19) 0.68236(3)
O31_2 O 0.7604(2) 0.66772(11) 0.68309(18)
H39_2 H 0.225629 0.425936 0.819457
H40_2 H 0.181941 0.386769 0.881921
H41_2 H 0.106269 0.649185 0.600948
H42_2 H 0.0254184 0.613573 0.640779
H43_2 H 0.685631 0.345829 0.782654
H44_2 H 0.741047 0.392459 0.829037
H45_2 H 0.528544 0.575291 0.651266
H46_2 H 0.543183 0.641885 0.661987
O18_2 O 0.9888(3) 0.58462(13) 0.4315(2)
O37_2 O 0.9939(2) 0.33256(11) 0.78633(18)
Co1_2 Co 0.31533(3) 0.071127(19) 0.17536(3)
Co2_2 Co 0.11975(3) 0.000889(18) 0.23587(3)
O5_3 O 0.2127(2) 0.13156(11) 0.17867(18)
O6_3 O 0.09951(19) 0.08730(10) 0.23830(17)
H1_3 H 0.2654 0.2992 0.1662
O12_3 O 0.1258(3) 0.38418(13) 0.2237(3)
O15_2 O 0.0885(2) 0.07376(12) 0.69127(15)
O21_3 O 0.42477(19) 0.00961(11) 0.17544(16)
O24_3 O 0.4127(3) 0.13139(16) 0.1468(2)
C18_3 C 0.1398(3) 0.13031(14) 0.2168(2)
C19_3 C 0.0973(2) 0.18591(13) 0.2343(2)
C20_3 C 0.0104(3) 0.19046(15) 0.2694(2)
C22_3 C 0.0202(3) 0.28939(16) 0.2654(2)
C23_3 C 0.1442(3) 0.23381(14) 0.2161(2)
H17_3 H 0.2016 0.2313 0.1932
C26_3 C 0.0479(2) 0.02760(14) 0.44493(19)
C27_3 C 0.0842(3) 0.07907(16) 0.4232(2)
H21_3 H 0.0907 0.0870 0.3746
C28_3 C 0.1108(3) 0.11872(15) 0.4744(2)
C29_3 C 0.1021(3) 0.10557(15) 0.5464(2)
H22_3 H 0.1219 0.1312 0.5807
C30_3 C 0.0643(2) 0.05449(16) 0.5687(2)
C31_3 C 0.0366(2) 0.01548(15) 0.51718(19)
C32_3 C 0.1449(3) 0.17543(16) 0.4506(2)
H24_3 H 0.1460 0.1769 0.3991
H25_3 H 0.1038 0.2038 0.4686
H26_3 H 0.2065 0.1816 0.4689
C33_3 C 0.0470(3) 0.04310(15) 0.6468(2)
C34_3 C 0.1580(3) 0.33790(16) 0.2112(2)
C35_3 C 0.1066(3) 0.28621(15) 0.2315(2)
H33_3 H 0.4690 0.0322 0.0461
Co10_2 Co 0.07683(3) 0.068361(19) 0.79905(2)
O29_2 O 0.22061(19) 0.00398(10) 0.15007(14)
O30_2 O 0.2688(2) 0.05689(11) 0.06281(16)
O35_2 O 0.3264(2) 0.07701(12) 0.28314(16)
O36_2 O 0.2327(2) 0.00561(11) 0.30533(16)
H41_3 H 0.393731 0.149185 0.100948
H42_3 H 0.474582 0.113573 0.140779
O17_2 O 0.5083(2) 0.02742(12) 0.83935(16)
O18_3 O 0.5112(3) 0.08462(13) 0.9315(2)
C45_3 C 0.4959(3) 0.03786(17) 0.9057(2)
O3_3 O 0.13910(19) 0.91511(10) 0.23515(17)
O4_3 O 0.02418(19) 0.86945(10) 0.29258(17)
O7_3 O 0.02156(19) 0.99842(10) 0.32338(14)
O22_3 O 0.4251(2) 0.91743(13) 0.18505(19)
O23_3 O 0.1253(3) 0.61748(12) 0.2469(3)
O26_3 O 0.3140(2) 0.89286(18) 0.3293(3)
C9_3 C 0.0993(3) 0.87166(14) 0.25732(19)
C10_3 C 0.1430(3) 0.81655(13) 0.2376(2)
C11_3 C 0.2281(3) 0.81401(14) 0.2046(2)
H9_3 H 0.2592 0.8470 0.1936
C12_3 C 0.2694(3) 0.76250(15) 0.1871(3)
C13_3 C 0.2216(3) 0.71390(15) 0.2046(2)
H10_3 H 0.2476 0.6794 0.1934
C14_3 C 0.1358(3) 0.71613(14) 0.2384(2)
C15_3 C 0.0965(3) 0.76733(14) 0.2561(2)
H11_3 H 0.0397 0.7688 0.2799
C16_3 C 0.0874(3) 0.66344(17) 0.2578(2)
C17_3 C 0.3644(3) 0.76083(19) 0.1513(3)
H12_3 H 0.3823 0.7227 0.1434
H13_3 H 0.3615 0.7800 0.1061
H14_3 H 0.4094 0.7787 0.1817
C25_3 C 0.0135(2) 0.98726(14) 0.38984(18)
H23_3 H 0.0108 0.9816 0.5313
C47_3 C 0.4540(3) 0.99806(16) 0.0254(2)
C48_3 C 0.4254(2) 0.95465(15) 0.0689(2)
C49_3 C 0.3993(3) 0.90423(15) 0.0377(2)
H34_3 H 0.3783 0.8752 0.0666
C54_3 C 0.4229(3) 0.96148(16) 0.1480(2)
O33_2 O 0.00974(19) 0.99469(11) 0.16257(15)
O34_2 O 0.4917(2) 0.97258(12) 0.33935(16)
H39_3 H 0.274371 0.925936 0.319457
H40_3 H 0.318059 0.886769 0.381921
O9_3 O 0.7522(2) 0.02421(12) 0.13715(15)
O10_3 O 0.7615(3) 0.08116(13) 0.04445(19)
O14_3 O 0.8237(2) 0.08592(12) 0.28684(18)
O16_2 O 0.99026(19) 0.00531(11) 0.66257(15)
O28_3 O 0.9303(2) 0.10749(15) 0.1404(2)
C2_3 C 0.8056(2) 0.02754(14) 0.53003(18)
C3_3 C 0.8010(2) 0.01628(15) 0.45658(19)
C4_3 C 0.8266(2) 0.05683(14) 0.40692(19)
C5_3 C 0.8546(3) 0.10941(15) 0.4316(2)
H4_3 H 0.8709 0.1367 0.3985
C6_3 C 0.8585(3) 0.12175(15) 0.5041(2)
C7_3 C 0.8351(3) 0.08084(15) 0.5528(2)
H5_3 H 0.8389 0.0885 0.6017
C8_3 C 0.8888(3) 0.18003(17) 0.5290(3)
H6_3 H 0.8875 0.1817 0.5805
H7_3 H 0.9508 0.1874 0.5124
H8_3 H 0.8471 0.2075 0.5098
H15_3 H 0.9787 0.1583 0.2831
C21_3 C 0.9720(3) 0.24222(17) 0.2836(2)
H16_3 H 0.9949 0.3242 0.2758
C24_3 C 0.8779(3) 0.2480(2) 0.3179(3)
H18_3 H 0.8633 0.2868 0.3238
H19_3 H 0.8319 0.2307 0.2878
H20_3 H 0.8783 0.2300 0.3640
C36_3 C 0.8217(2) 0.04410(15) 0.3276(2)
C37_3 C 0.7436(3) 0.03434(17) 0.0700(2)
H45_3 H 0.971456 0.0752907 0.151266
H46_3 H 0.956817 0.141885 0.161987
Co3_2 Co 0.92317(3) 0.931639(19) 0.29905(2)
O1_2 O 0.77939(19) 0.99602(10) 0.65007(14)
O2_2 O 0.7312(2) 0.94311(11) 0.56281(16)
O8_3 O 0.96962(19) 0.94439(11) 0.40915(14)
O13_3 O 0.81453(19) 0.99488(11) 0.30737(15)
O25_3 O 0.8194(3) 0.87301(14) 0.3227(2)
H2_3 H 0.9803 0.7005 0.3033
C1_3 C 0.7720(2) 0.98650(15) 0.5828(2)
H3_3 H 0.7808 0.9815 0.4408
C38_3 C 0.7117(3) 0.98737(16) 0.0229(2)
C39_3 C 0.6764(3) 0.93771(15) 0.0512(2)
H27_3 H 0.6724 0.9332 0.1006
C40_3 C 0.6473(3) 0.89509(16) 0.0060(2)
C44_3 C 0.6127(3) 0.84092(18) 0.0377(3)
H30_3 H 0.6135 0.8434 0.0891
H31_3 H 0.5503 0.8340 0.0216
H32_3 H 0.6523 0.8109 0.0225
Co7_2 Co 0.68467(3) 0.928873(19) 0.67536(3)
Co9_2 Co 0.88025(3) 0.999111(18) 0.73587(3)
O32_2 O 0.9115(2) 0.92624(12) 0.19127(15)
H43_3 H 0.814369 0.845829 0.282654
H44_3 H 0.758953 0.892459 0.329037
O19_2 O 0.6736(2) 0.92299(12) 0.78314(16)
O20_2 O 0.7673(2) 0.99439(11) 0.80533(16)
C41_3 C 0.6538(3) 0.90290(15) 0.9318(2)
H28_3 H 0.6310 0.8756 0.9010
C42_3 C 0.6935(2) 0.95049(16) 0.9036(2)
C43_3 C 0.7213(3) 0.99388(15) 0.9492(2)
C53_3 C 0.7117(3) 0.95657(15) 0.8246(2)
C1_4 C 0.2280(2) 0.01350(15) 0.0828(2)
O8_4 O 0.03038(19) 0.05561(11) 0.90915(14)
O13_4 O 0.18547(19) 0.00512(11) 0.80737(15)
O25_4 O 0.1806(3) 0.12699(14) 0.8227(2)
H2_4 H 0.0197 0.2995 0.8033
H3_4 H 0.2192 0.0185 0.9408
C38_4 C 0.2883(3) 0.01263(16) 0.5229(2)
C39_4 C 0.3236(3) 0.06229(15) 0.5512(2)
H27_4 H 0.3276 0.0668 0.6006
C40_4 C 0.3527(3) 0.10491(16) 0.5060(2)
C41_4 C 0.3462(3) 0.09710(15) 0.4318(2)
H28_4 H 0.3690 0.1244 0.4010
C42_4 C 0.3065(2) 0.04951(16) 0.4036(2)
C43_4 C 0.2787(3) 0.00612(15) 0.4492(2)
C44_4 C 0.3873(3) 0.15908(18) 0.5377(3)
H30_4 H 0.3865 0.1566 0.5891
H31_4 H 0.4497 0.1660 0.5216
H32_4 H 0.3477 0.1891 0.5225
C53_4 C 0.2883(3) 0.04343(15) 0.3246(2)
H43_4 H 0.185631 0.154171 0.782654
H44_4 H 0.241047 0.107541 0.829037
C2_4 C 0.1944(2) 0.97246(14) 0.03003(18)
C6_4 C 0.1415(3) 0.87825(15) 0.0041(2)
C7_4 C 0.1649(3) 0.91916(15) 0.0528(2)
H5_4 H 0.1611 0.9115 0.1017
C8_4 C 0.1112(3) 0.81997(17) 0.0290(3)
H6_4 H 0.1125 0.8183 0.0805
H7_4 H 0.0492 0.8126 0.0124
H8_4 H 0.1529 0.7925 0.0098
O9_4 O 0.2478(2) 0.97579(12) 0.63715(15)
O10_4 O 0.2385(3) 0.91884(13) 0.54445(19)
O14_4 O 0.1763(2) 0.91408(12) 0.78684(18)
O28_4 O 0.0697(2) 0.89251(15) 0.6404(2)
C3_4 C 0.1990(2) 0.98372(15) 0.95658(19)
C4_4 C 0.1734(2) 0.94317(14) 0.90692(19)
C5_4 C 0.1454(3) 0.89059(15) 0.9316(2)
H4_4 H 0.1291 0.8633 0.8985
H15_4 H 0.0213 0.8417 0.7831
C21_4 C 0.0280(3) 0.75778(17) 0.7836(2)
H16_4 H 0.0051 0.6758 0.7758
C24_4 C 0.1221(3) 0.7520(2) 0.8179(3)
H18_4 H 0.1367 0.7132 0.8238
H19_4 H 0.1681 0.7693 0.7878
H20_4 H 0.1217 0.7700 0.8640
C36_4 C 0.1783(2) 0.95590(15) 0.8276(2)
C37_4 C 0.2564(3) 0.96566(17) 0.5700(2)
H29_3 H 0.2541 0.9734 0.4303
H45_4 H 0.0285438 0.924709 0.651266
H46_4 H 0.0431835 0.858115 0.661987
O3_4 O 0.86090(19) 0.08489(10) 0.73515(17)
O4_4 O 0.97582(19) 0.13055(10) 0.79258(17)
O7_4 O 0.97844(19) 0.00158(10) 0.82338(14)
O22_4 O 0.5749(2) 0.08257(13) 0.68505(19)
O23_4 O 0.8747(3) 0.38252(12) 0.7469(3)
O26_4 O 0.6860(2) 0.10714(18) 0.8293(3)
C9_4 C 0.9007(3) 0.12834(14) 0.75732(19)
C10_4 C 0.8570(3) 0.18345(13) 0.7376(2)
C11_4 C 0.7719(3) 0.18599(14) 0.7046(2)
H9_4 H 0.7408 0.1530 0.6936
C12_4 C 0.7306(3) 0.23750(15) 0.6871(3)
C13_4 C 0.7784(3) 0.28610(15) 0.7046(2)
H10_4 H 0.7524 0.3206 0.6934
C14_4 C 0.8642(3) 0.28387(14) 0.7384(2)
C15_4 C 0.9035(3) 0.23267(14) 0.7561(2)
H11_4 H 0.9603 0.2312 0.7799
C16_4 C 0.9126(3) 0.33656(17) 0.7578(2)
C17_4 C 0.6356(3) 0.23917(19) 0.6513(3)
H12_4 H 0.6177 0.2773 0.6434
H13_4 H 0.6385 0.2200 0.6061
H14_4 H 0.5906 0.2213 0.6817
C25_4 C 0.9865(2) 0.01274(14) 0.88984(18)
C46_3 C 0.5393(3) 0.00823(16) 0.4525(2)
C47_4 C 0.5460(3) 0.00194(16) 0.5254(2)
C48_4 C 0.5746(2) 0.04535(15) 0.5689(2)
C49_4 C 0.6007(3) 0.09577(15) 0.5377(2)
H34_4 H 0.6217 0.1248 0.5666
C50_3 C 0.5958(3) 0.10344(16) 0.4635(2)
C51_3 C 0.5639(3) 0.05998(17) 0.4214(2)
H35_3 H 0.5585 0.0648 0.3721
C52_3 C 0.6244(3) 0.15918(19) 0.4298(3)
H36_3 H 0.6167 0.1573 0.3787
H37_3 H 0.5861 0.1885 0.4488
H38_3 H 0.6884 0.1667 0.4408
C54_4 C 0.5771(3) 0.03852(16) 0.6480(2)
H39_4 H 0.725629 0.074064 0.819457
H40_4 H 0.681941 0.113231 0.881921
C29_4 C 0.8979(3) 0.89443(15) 0.0464(2)
H22_4 H 0.8781 0.8688 0.0807
C30_4 C 0.9357(2) 0.94551(16) 0.0687(2)
C31_4 C 0.9634(2) 0.98452(15) 0.01718(19)
C33_4 C 0.9530(3) 0.95690(15) 0.1468(2)
O5_4 O 0.7873(2) 0.86844(11) 0.67867(18)
O6_4 O 0.90049(19) 0.91270(10) 0.73830(17)
H1_4 H 0.7346 0.7008 0.6662
O12_4 O 0.8742(3) 0.61582(13) 0.7237(3)
O18_4 O 0.4888(3) 0.91538(13) 0.4315(2)
O21_4 O 0.57523(19) 0.99039(11) 0.67544(16)
O24_4 O 0.5873(3) 0.86861(16) 0.6468(2)
C18_4 C 0.8602(3) 0.86969(14) 0.7168(2)
C19_4 C 0.9027(2) 0.81409(13) 0.7343(2)
C20_4 C 0.9896(3) 0.80954(15) 0.7694(2)
C22_4 C 0.9798(3) 0.71061(16) 0.7654(2)
C23_4 C 0.8558(3) 0.76619(14) 0.7161(2)
H17_4 H 0.7984 0.7687 0.6932
C26_4 C 0.9521(2) 0.97240(14) 0.94493(19)
C27_4 C 0.9158(3) 0.92093(16) 0.9232(2)
H21_4 H 0.9093 0.9130 0.8746
C28_4 C 0.8892(3) 0.88128(15) 0.9744(2)
C32_4 C 0.8551(3) 0.82457(16) 0.9506(2)
H24_4 H 0.8540 0.8231 0.8991
H25_4 H 0.8962 0.7962 0.9686
H26_4 H 0.7935 0.8184 0.9689
C34_4 C 0.8420(3) 0.66210(16) 0.7112(2)
C35_4 C 0.8934(3) 0.71379(15) 0.7315(2)
C45_4 C 0.5041(3) 0.96214(17) 0.4057(2)
H33_4 H 0.5310 0.9678 0.5461
H41_4 H 0.606269 0.850815 0.600948
H42_4 H 0.525418 0.886427 0.640779
C46_4 C 0.4607(3) 0.99177(16) 0.9525(2)
C50_4 C 0.4042(3) 0.89656(16) 0.9635(2)
C51_4 C 0.4361(3) 0.94002(17) 0.9214(2)
H35_4 H 0.4415 0.9352 0.8721
C52_4 C 0.3756(3) 0.84082(19) 0.9298(3)
H36_4 H 0.3833 0.8427 0.8787
H37_4 H 0.4139 0.8115 0.9488
H38_4 H 0.3116 0.8333 0.9408
H29_4 H 0.7459 0.0266 0.9303
H23_4 H 0.9892 0.0184 0.0313
loop_
_geom_bond_atom_site_label_1
_geom_bond_atom_site_label_2
_geom_bond_site_symmetry_1
_geom_bond_site_symmetry_2
Co11 O17 1_555 1_555
Co1 O5 1_555 1_555
Co2 O3 1_555 1_555
Co3 O4 1_555 1_555
Co4 O22 1_555 1_555
Co5 O9 1_555 1_555
O1 C1 1_555 1_555
O2 C1 1_555 1_555
O3 C9 1_555 1_555
O4 C9 1_555 1_555
O5 C18 1_555 1_555
O6 Co2 1_555 1_555
O7 Co2 1_555 1_555
O8 Co3 1_555 1_555
O9 C37 1_555 1_555
O10 C37 1_555 1_555
O11 H1 1_555 1_555
O12 C34 1_555 1_555
O13 Co3 1_555 1_555
O14 Co5 1_555 1_555
O15 C33 1_555 1_555
O16 C33 1_555 1_555
O21 Co1 1_555 1_555
O22 C54 1_555 1_555
O23 C16 1_555 1_555
O24 Co1 1_555 1_555
O25 Co3 1_555 1_555
O26 Co4 1_555 1_555
O27 H2 1_555 1_555
O28 Co5 1_555 1_555
C1 C2 1_555 1_555
C2 C3 1_555 1_555
C3 H3 1_555 1_555
C4 C3 1_555 1_555
C5 C4 1_555 1_555
H4 C5 1_555 1_555
C6 C5 1_555 1_555
C7 C2 1_555 1_555
H5 C7 1_555 1_555
C8 C6 1_555 1_555
H6 C8 1_555 1_555
H7 C8 1_555 1_555
H8 C8 1_555 1_555
C9 C10 1_555 1_555
C10 C11 1_555 1_555
C11 H9 1_555 1_555
C12 C11 1_555 1_555
C13 C12 1_555 1_555
H10 C13 1_555 1_555
C14 C13 1_555 1_555
C15 C10 1_555 1_555
H11 C15 1_555 1_555
C16 O27 1_555 1_555
C17 C12 1_555 1_555
H12 C17 1_555 1_555
H13 C17 1_555 1_555
H14 C17 1_555 1_555
C18 O6 1_555 1_555
C19 C18 1_555 1_555
C20 C19 1_555 1_555
H15 C20 1_555 1_555
C21 C20 1_555 1_555
C22 C21 1_555 1_555
H16 C22 1_555 1_555
C23 C19 1_555 1_555
H17 C23 1_555 1_555
C24 C21 1_555 1_555
H18 C24 1_555 1_555
H19 C24 1_555 1_555
H20 C24 1_555 1_555
C25 O7 1_555 1_555
C26 C25 1_555 1_555
C27 C26 1_555 1_555
H21 C27 1_555 1_555
C28 C27 1_555 1_555
C29 C28 1_555 1_555
H22 C29 1_555 1_555
C30 C29 1_555 1_555
C31 C26 1_555 1_555
H23 C31 1_555 1_555
C32 C28 1_555 1_555
H24 C32 1_555 1_555
H25 C32 1_555 1_555
H26 C32 1_555 1_555
C33 C30 1_555 1_555
C34 O11 1_555 1_555
C35 C22 1_555 1_555
C36 O13 1_555 1_555
C37 C38 1_555 1_555
C38 C39 1_555 1_555
C39 H27 1_555 1_555
C40 C39 1_555 1_555
C44 C40 1_555 1_555
H30 C44 1_555 1_555
H31 C44 1_555 1_555
H32 C44 1_555 1_555
C47 H33 1_555 1_555
C48 C47 1_555 1_555
C49 C48 1_555 1_555
H34 C49 1_555 1_555
C54 O21 1_555 1_555
Co7 O1 1_555 1_555
Co9 O1 1_555 1_555
Co10 O15 1_555 1_555
Co12 O27 1_555 1_555
Co13 O11 1_555 1_555
O29 Co1 1_555 1_555
O30 Co1 1_555 1_555
O31 Co5 1_555 1_555
O32 Co3 1_555 1_555
O33 Co2 1_555 1_555
O34 Co4 1_555 1_555
O35 Co1 1_555 1_555
O36 Co2 1_555 1_555
Co2 O29 1_555 1_555
Co3 O7 1_555 1_555
O2 Co7 1_555 1_555
O8 C25 1_555 1_555
O14 C36 1_555 1_555
O16 Co9 1_555 1_555
C4 C36 1_555 1_555
C6 C7 1_555 1_555
C14 C15 1_555 1_555
C14 C16 1_555 1_555
C23 C35 1_555 1_555
C30 C31 1_555 1_555
C34 C35 1_555 1_555
C48 C54 1_555 1_555
O26 H39 1_555 1_555
O26 H40 1_555 1_555
O24 H41 1_555 1_555
O24 H42 1_555 1_555
O25 H43 1_555 1_555
O25 H44 1_555 1_555
O28 H45 1_555 1_555
O28 H46 1_555 1_555
O19 C53 1_555 1_555
O20 C53 1_555 1_555
H28 C41 1_555 1_555
C42 C41 1_555 1_555
H29 C43 1_555 1_555
C45 C46 1_555 1_555
C51 C46 1_555 1_555
H35 C51 1_555 1_555
C52 C50 1_555 1_555
H36 C52 1_555 1_555
H37 C52 1_555 1_555
H38 C52 1_555 1_555
C53 C42 1_555 1_555
Co7 O19 1_555 1_555
Co9 O20 1_555 1_555
C42 C43 1_555 1_555
C50 C51 1_555 1_555
O29 C1_2 1_555 1_555
O30 C1_2 1_555 1_555
O32 C33_2 1_555 1_555
O33 C33_2 1_555 1_555
C1_2 C2_2 1_555 1_555
C7_2 C2_2 1_555 1_555
H5_2 C7_2 1_555 1_555
C8_2 C6_2 1_555 1_555
H6_2 C8_2 1_555 1_555
H7_2 C8_2 1_555 1_555
H8_2 C8_2 1_555 1_555
H22_2 C29_2 1_555 1_555
C30_2 C29_2 1_555 1_555
H23_2 C31_2 1_555 1_555
C33_2 C30_2 1_555 1_555
C6_2 C7_2 1_555 1_555
C30_2 C31_2 1_555 1_555
Co7 O5_2 1_555 1_555
Co9 O3_2 1_555 1_555
Co10 O4_2 1_555 1_555
Co11 O22_2 1_555 1_555
Co5_2 O9_2 1_555 1_555
O3_2 C9_2 1_555 1_555
O4_2 C9_2 1_555 1_555
O5_2 C18_2 1_555 1_555
O6_2 Co9 1_555 1_555
O7_2 Co9 1_555 1_555
O8_2 Co10 1_555 1_555
O9_2 C37_2 1_555 1_555
O10_2 C37_2 1_555 1_555
O11_2 H1_2 1_555 1_555
O12_2 C34_2 1_555 1_555
O13_2 Co10 1_555 1_555
O14_2 Co5_2 1_555 1_555
O35 C53_2 1_555 1_555
O36 C53_2 1_555 1_555
O21_2 Co7 1_555 1_555
O22_2 C54_2 1_555 1_555
O23_2 C16_2 1_555 1_555
O24_2 Co7 1_555 1_555
O25_2 Co10 1_555 1_555
O26_2 Co11 1_555 1_555
O27_2 H2_2 1_555 1_555
O28_2 Co5_2 1_555 1_555
C3_2 H3_2 1_555 1_555
C4_2 C3_2 1_555 1_555
C5_2 C4_2 1_555 1_555
H4_2 C5_2 1_555 1_555
C9_2 C10_2 1_555 1_555
C10_2 C11_2 1_555 1_555
C11_2 H9_2 1_555 1_555
C12_2 C11_2 1_555 1_555
C13_2 C12_2 1_555 1_555
H10_2 C13_2 1_555 1_555
C14_2 C13_2 1_555 1_555
C15_2 C10_2 1_555 1_555
H11_2 C15_2 1_555 1_555
C16_2 O27_2 1_555 1_555
C17_2 C12_2 1_555 1_555
H12_2 C17_2 1_555 1_555
H13_2 C17_2 1_555 1_555
H14_2 C17_2 1_555 1_555
C18_2 O6_2 1_555 1_555
C19_2 C18_2 1_555 1_555
C20_2 C19_2 1_555 1_555
H15_2 C20_2 1_555 1_555
C21_2 C20_2 1_555 1_555
C22_2 C21_2 1_555 1_555
H16_2 C22_2 1_555 1_555
C23_2 C19_2 1_555 1_555
H17_2 C23_2 1_555 1_555
C24_2 C21_2 1_555 1_555
H18_2 C24_2 1_555 1_555
H19_2 C24_2 1_555 1_555
H20_2 C24_2 1_555 1_555
C25_2 O7_2 1_555 1_555
C26_2 C25_2 1_555 1_555
C27_2 C26_2 1_555 1_555
H21_2 C27_2 1_555 1_555
C28_2 C27_2 1_555 1_555
C32_2 C28_2 1_555 1_555
H24_2 C32_2 1_555 1_555
H25_2 C32_2 1_555 1_555
H26_2 C32_2 1_555 1_555
C34_2 O11_2 1_555 1_555
C35_2 C22_2 1_555 1_555
C36_2 O13_2 1_555 1_555
C37_2 C38_2 1_555 1_555
C38_2 C39_2 1_555 1_555
C39_2 H27_2 1_555 1_555
C40_2 C39_2 1_555 1_555
C41_2 C40_2 1_555 1_555
H28_2 C41_2 1_555 1_555
C42_2 C41_2 1_555 1_555
C43_2 C38_2 1_555 1_555
H29_2 C43_2 1_555 1_555
C44_2 C40_2 1_555 1_555
H30_2 C44_2 1_555 1_555
H31_2 C44_2 1_555 1_555
H32_2 C44_2 1_555 1_555
C45_2 C46_2 1_555 1_555
C46_2 C47_2 1_555 1_555
C47_2 H33_2 1_555 1_555
C48_2 C47_2 1_555 1_555
C49_2 C48_2 1_555 1_555
H34_2 C49_2 1_555 1_555
C50_2 C49_2 1_555 1_555
C51_2 C46_2 1_555 1_555
H35_2 C51_2 1_555 1_555
C52_2 C50_2 1_555 1_555
H36_2 C52_2 1_555 1_555
H37_2 C52_2 1_555 1_555
H38_2 C52_2 1_555 1_555
C53_2 C42_2 1_555 1_555
C54_2 O21_2 1_555 1_555
Co12_2 O27_2 1_555 1_555
Co13_2 O11_2 1_555 1_555
O31_2 Co5_2 1_555 1_555
Co10 O7_2 1_555 1_555
O8_2 C25_2 1_555 1_555
O14_2 C36_2 1_555 1_555
C4_2 C36_2 1_555 1_555
C14_2 C15_2 1_555 1_555
C14_2 C16_2 1_555 1_555
C23_2 C35_2 1_555 1_555
C34_2 C35_2 1_555 1_555
C42_2 C43_2 1_555 1_555
C48_2 C54_2 1_555 1_555
C50_2 C51_2 1_555 1_555
O26_2 H39_2 1_555 1_555
O26_2 H40_2 1_555 1_555
O24_2 H41_2 1_555 1_555
O24_2 H42_2 1_555 1_555
O25_2 H43_2 1_555 1_555
O25_2 H44_2 1_555 1_555
O28_2 H45_2 1_555 1_555
O28_2 H46_2 1_555 1_555
Co1_2 O5_3 1_555 1_555
O5_3 C18_3 1_555 1_555
O6_3 Co2_2 1_555 1_555
O31 H1_3 1_555 1_555
O12_3 C34_3 1_555 1_555
O15_2 C33_3 1_555 1_555
O21_3 Co1_2 1_555 1_555
O24_3 Co1_2 1_555 1_555
C18_3 O6_3 1_555 1_555
C19_3 C18_3 1_555 1_555
C20_3 C19_3 1_555 1_555
C23_3 C19_3 1_555 1_555
H17_3 C23_3 1_555 1_555
C27_3 C26_3 1_555 1_555
H21_3 C27_3 1_555 1_555
C28_3 C27_3 1_555 1_555
C29_3 C28_3 1_555 1_555
H22_3 C29_3 1_555 1_555
C30_3 C29_3 1_555 1_555
C31_3 C26_3 1_555 1_555
C32_3 C28_3 1_555 1_555
H24_3 C32_3 1_555 1_555
H25_3 C32_3 1_555 1_555
H26_3 C32_3 1_555 1_555
C33_3 C30_3 1_555 1_555
C34_3 O31 1_555 1_555
C35_3 C22_3 1_555 1_555
Co10_2 O15_2 1_555 1_555
O29_2 Co1_2 1_555 1_555
O30_2 Co1_2 1_555 1_555
O35_2 Co1_2 1_555 1_555
O36_2 Co2_2 1_555 1_555
Co2_2 O29_2 1_555 1_555
C23_3 C35_3 1_555 1_555
C30_3 C31_3 1_555 1_555
C34_3 C35_3 1_555 1_555
O24_3 H41_3 1_555 1_555
O24_3 H42_3 1_555 1_555
O17_2 C45_3 1_555 1_555
O18_3 C45_3 1_555 1_555
Co12_2 O17_2 1_555 1_555
Co12 O22_3 1_555 1_555
O3_3 C9_3 1_555 1_555
O4_3 C9_3 1_555 1_555
O22_3 C54_3 1_555 1_555
O23_3 C16_3 1_555 1_555
O26_3 Co12 1_555 1_555
C9_3 C10_3 1_555 1_555
C10_3 C11_3 1_555 1_555
C11_3 H9_3 1_555 1_555
C12_3 C11_3 1_555 1_555
C13_3 C12_3 1_555 1_555
H10_3 C13_3 1_555 1_555
C14_3 C13_3 1_555 1_555
C15_3 C10_3 1_555 1_555
H11_3 C15_3 1_555 1_555
C16_3 O37 1_555 1_555
C17_3 C12_3 1_555 1_555
H12_3 C17_3 1_555 1_555
H13_3 C17_3 1_555 1_555
H14_3 C17_3 1_555 1_555
C25_3 O7_3 1_555 1_555
C48_3 C47_3 1_555 1_555
C49_3 C48_3 1_555 1_555
H34_3 C49_3 1_555 1_555
O34_2 Co12 1_555 1_555
C14_3 C15_3 1_555 1_555
C14_3 C16_3 1_555 1_555
C48_3 C54_3 1_555 1_555
O26_3 H39_3 1_555 1_555
O26_3 H40_3 1_555 1_555
Co13 O9_3 1_555 1_555
O9_3 C37_3 1_555 1_555
O10_3 C37_3 1_555 1_555
O14_3 Co13 1_555 1_555
O28_3 Co13 1_555 1_555
C2_3 C3_3 1_555 1_555
C4_3 C3_3 1_555 1_555
C5_3 C4_3 1_555 1_555
H4_3 C5_3 1_555 1_555
C6_3 C5_3 1_555 1_555
C7_3 C2_3 1_555 1_555
H5_3 C7_3 1_555 1_555
C8_3 C6_3 1_555 1_555
H6_3 C8_3 1_555 1_555
H7_3 C8_3 1_555 1_555
H8_3 C8_3 1_555 1_555
C24_3 C21_3 1_555 1_555
H18_3 C24_3 1_555 1_555
H19_3 C24_3 1_555 1_555
H20_3 C24_3 1_555 1_555
O14_3 C36_3 1_555 1_555
C4_3 C36_3 1_555 1_555
C6_3 C7_3 1_555 1_555
O28_3 H45_3 1_555 1_555
O28_3 H46_3 1_555 1_555
O1_2 C1_3 1_555 1_555
O2_2 C1_3 1_555 1_555
O8_3 Co3_2 1_555 1_555
O13_3 Co3_2 1_555 1_555
O25_3 Co3_2 1_555 1_555
C38_3 C39_3 1_555 1_555
C39_3 H27_3 1_555 1_555
C40_3 C39_3 1_555 1_555
C44_3 C40_3 1_555 1_555
H30_3 C44_3 1_555 1_555
H31_3 C44_3 1_555 1_555
H32_3 C44_3 1_555 1_555
Co7_2 O1_2 1_555 1_555
Co9_2 O1_2 1_555 1_555
O32_2 Co3_2 1_555 1_555
O2_2 Co7_2 1_555 1_555
O25_3 H43_3 1_555 1_555
O25_3 H44_3 1_555 1_555
O19_2 C53_3 1_555 1_555
O20_2 C53_3 1_555 1_555
H28_3 C41_3 1_555 1_555
C42_3 C41_3 1_555 1_555
C53_3 C42_3 1_555 1_555
Co7_2 O19_2 1_555 1_555
Co9_2 O20_2 1_555 1_555
C42_3 C43_3 1_555 1_555
O29_2 C1_4 1_555 1_555
O30_2 C1_4 1_555 1_555
O8_4 Co10_2 1_555 1_555
O13_4 Co10_2 1_555 1_555
O35_2 C53_4 1_555 1_555
O36_2 C53_4 1_555 1_555
O25_4 Co10_2 1_555 1_555
C38_4 C39_4 1_555 1_555
C39_4 H27_4 1_555 1_555
C40_4 C39_4 1_555 1_555
C41_4 C40_4 1_555 1_555
H28_4 C41_4 1_555 1_555
C42_4 C41_4 1_555 1_555
C43_4 C38_4 1_555 1_555
C44_4 C40_4 1_555 1_555
H30_4 C44_4 1_555 1_555
H31_4 C44_4 1_555 1_555
H32_4 C44_4 1_555 1_555
C53_4 C42_4 1_555 1_555
C42_4 C43_4 1_555 1_555
O25_4 H43_4 1_555 1_555
O25_4 H44_4 1_555 1_555
C7_4 C2_4 1_555 1_555
H5_4 C7_4 1_555 1_555
C8_4 C6_4 1_555 1_555
H6_4 C8_4 1_555 1_555
H7_4 C8_4 1_555 1_555
H8_4 C8_4 1_555 1_555
C6_4 C7_4 1_555 1_555
Co13_2 O9_4 1_555 1_555
O9_4 C37_4 1_555 1_555
O10_4 C37_4 1_555 1_555
O14_4 Co13_2 1_555 1_555
O28_4 Co13_2 1_555 1_555
C4_4 C3_4 1_555 1_555
C5_4 C4_4 1_555 1_555
H4_4 C5_4 1_555 1_555
C24_4 C21_4 1_555 1_555
H18_4 C24_4 1_555 1_555
H19_4 C24_4 1_555 1_555
H20_4 C24_4 1_555 1_555
O14_4 C36_4 1_555 1_555
C4_4 C36_4 1_555 1_555
O28_4 H45_4 1_555 1_555
O28_4 H46_4 1_555 1_555
Co12_2 O22_4 1_555 1_555
O3_4 C9_4 1_555 1_555
O4_4 C9_4 1_555 1_555
O22_4 C54_4 1_555 1_555
O23_4 C16_4 1_555 1_555
O26_4 Co12_2 1_555 1_555
C9_4 C10_4 1_555 1_555
C10_4 C11_4 1_555 1_555
C11_4 H9_4 1_555 1_555
C12_4 C11_4 1_555 1_555
C13_4 C12_4 1_555 1_555
H10_4 C13_4 1_555 1_555
C14_4 C13_4 1_555 1_555
C15_4 C10_4 1_555 1_555
H11_4 C15_4 1_555 1_555
C16_4 O37_2 1_555 1_555
C17_4 C12_4 1_555 1_555
H12_4 C17_4 1_555 1_555
H13_4 C17_4 1_555 1_555
H14_4 C17_4 1_555 1_555
C25_4 O7_4 1_555 1_555
C46_3 C47_4 1_555 1_555
C48_4 C47_4 1_555 1_555
C49_4 C48_4 1_555 1_555
H34_4 C49_4 1_555 1_555
C50_3 C49_4 1_555 1_555
C51_3 C46_3 1_555 1_555
H35_3 C51_3 1_555 1_555
C52_3 C50_3 1_555 1_555
H36_3 C52_3 1_555 1_555
H37_3 C52_3 1_555 1_555
H38_3 C52_3 1_555 1_555
C14_4 C15_4 1_555 1_555
C14_4 C16_4 1_555 1_555
C48_4 C54_4 1_555 1_555
C50_3 C51_3 1_555 1_555
O26_4 H39_4 1_555 1_555
O26_4 H40_4 1_555 1_555
O32_2 C33_4 1_555 1_555
H22_4 C29_4 1_555 1_555
C30_4 C29_4 1_555 1_555
C33_4 C30_4 1_555 1_555
C30_4 C31_4 1_555 1_555
Co7_2 O5_4 1_555 1_555
O5_4 C18_4 1_555 1_555
O6_4 Co9_2 1_555 1_555
O31_2 H1_4 1_555 1_555
O12_4 C34_4 1_555 1_555
O34_2 C45_4 1_555 1_555
O18_4 C45_4 1_555 1_555
O21_4 Co7_2 1_555 1_555
O24_4 Co7_2 1_555 1_555
C18_4 O6_4 1_555 1_555
C19_4 C18_4 1_555 1_555
C20_4 C19_4 1_555 1_555
C23_4 C19_4 1_555 1_555
H17_4 C23_4 1_555 1_555
C27_4 C26_4 1_555 1_555
H21_4 C27_4 1_555 1_555
C28_4 C27_4 1_555 1_555
C32_4 C28_4 1_555 1_555
H24_4 C32_4 1_555 1_555
H25_4 C32_4 1_555 1_555
H26_4 C32_4 1_555 1_555
C34_4 O31_2 1_555 1_555
C35_4 C22_4 1_555 1_555
C23_4 C35_4 1_555 1_555
C34_4 C35_4 1_555 1_555
O24_4 H41_4 1_555 1_555
O24_4 H42_4 1_555 1_555
C51_4 C46_4 1_555 1_555
H35_4 C51_4 1_555 1_555
C52_4 C50_4 1_555 1_555
H36_4 C52_4 1_555 1_555
H37_4 C52_4 1_555 1_555
H38_4 C52_4 1_555 1_555
C50_4 C51_4 1_555 1_555

#END
