
###############################################################################
#
# This file contains modified crystal structure data generated from the
# MOF subset of the Cambridge Structural Database (CSD) v543 
# hosted by the Cambridge Crystallographic Data Centre (CCDC).
#
# This work is licensed under the Creative Commons
# Attribution-NonCommercial-ShareAlike 4.0 International License.
# To view a copy of this license, visit
# http://creativecommons.org/licenses/by-nc-sa/4.0/
# or send a letter to
# Creative Commons, PO Box 1866, Mountain View, CA 94042, USA.
#
# CIF created using the CSD Python API on 29 September 2022
# The structure has been converted into the P1 space group
# The structure has a 3D framework
# The original CSD entry HIVBIA is in the monoclinic crystal system
# The framework has been calculated to contain at least 10.0% void space
# The void calculation uses a probe of radius 1.32A, grid spacing 0.4
#
###############################################################################

data_HIVBIA
_chemical_formula_moiety         '(C152 H120 N32 Ni14 O52)n'
_symmetry_cell_setting           triclinic
_symmetry_space_group_name_H-M   'P 1'
_symmetry_Int_Tables_number      1
_space_group_name_Hall           'P 1'
loop_
_symmetry_equiv_pos_site_id
_symmetry_equiv_pos_as_xyz
1 x,y,z
_cell_length_a                   29.0062(14)
_cell_length_b                   10.0042(5)
_cell_length_c                   22.0701(11)
_cell_angle_alpha                90
_cell_angle_beta                 129.4620(10)
_cell_angle_gamma                90
_cell_volume                     4944.48
loop_
_atom_site_label
_atom_site_type_symbol
_atom_site_fract_x
_atom_site_fract_y
_atom_site_fract_z
O16 O 0.6656(2) 0.0278(4) 0.1629(3)
O20 O 0.6500(2) 0.1152(4) 0.0601(3)
O15 O 0.3344(2) 0.0278(4) 0.3371(3)
O19 O 0.3500(2) 0.1152(4) 0.4399(3)
Ni3 Ni 0.65197(3) 0.90358(7) 0.07638(4)
H16 H 0.6682 0.6574 0.0151
O8 O 0.66101(19) 0.7250(4) 0.1248(3)
O11 O 0.57058(18) 0.6326(4) 0.0499(3)
N6 N 0.7537(2) 0.3983(5) 0.3612(3)
H17 H 0.7457 0.3266 0.3778
H18 H 0.7438 0.4714 0.3744
O14 O 0.5612(2) 0.9106(6) 0.0183(4)
H19 H 0.5522 0.9842 0.0298
H20 H 0.5508 0.8485 0.0355
C21 C 0.7163(2) 0.3927(6) 0.2780(3)
C22 C 0.6545(3) 0.5017(5) 0.1516(3)
C23 C 0.6706(2) 0.2647(5) 0.1597(3)
C24 C 0.7056(2) 0.2724(6) 0.2406(3)
H21 H 0.7222 0.1947 0.2703
C25 C 0.6915(3) 0.5091(5) 0.2333(3)
H22 H 0.6997 0.5915 0.2578
C26 C 0.6437(2) 0.3800(6) 0.1134(3)
C27 C 0.6012(3) 0.3758(6) 0.0243(4)
C28 C 0.6609(3) 0.1296(6) 0.1244(4)
C29 C 0.6261(2) 0.6287(6) 0.1051(3)
Ni4 Ni 0.5000 0.5000 0.0000
Ni7 Ni 0.84803(3) 0.40358(7) 0.42362(4)
N10 N 0.7463(2) 0.8983(5) 0.1388(3)
Ni1 Ni 0.5000 0.5000 0.5000
Ni2 Ni 0.34803(3) 0.90358(7) 0.42362(4)
C1 C 0.3536(5) 0.7104(10) 0.5297(6)
H1 H 0.3318 0.6574 0.4849
O1 O 0.33899(19) 0.7250(4) 0.3752(3)
O3 O 0.45322(18) 0.3520(4) 0.5082(2)
O4 O 0.42942(18) 0.6326(4) 0.4501(3)
O6 O 0.3793(2) 0.3966(6) 0.5103(3)
N1 N 0.4689(2) 0.5734(6) 0.8903(3)
N2 N 0.2463(2) 0.3983(5) 0.1388(3)
H2 H 0.2543 0.3266 0.1222
H3 H 0.2562 0.4714 0.1256
O7 O 0.4388(2) 0.9106(6) 0.4817(4)
H4 H 0.4478 0.9842 0.4702
H5 H 0.4492 0.8485 0.4645
N3 N 0.3663(3) 0.8295(6) 0.5241(4)
C2 C 0.2837(2) 0.3927(6) 0.2220(3)
C3 C 0.3455(3) 0.5017(5) 0.3484(3)
C4 C 0.3294(2) 0.2647(5) 0.3403(3)
C5 C 0.2944(2) 0.2724(6) 0.2594(3)
H6 H 0.2778 0.1947 0.2297
C6 C 0.3085(3) 0.5091(5) 0.2667(3)
H7 H 0.3003 0.5915 0.2422
C7 C 0.3563(2) 0.3800(6) 0.3866(3)
C8 C 0.3988(3) 0.3758(6) 0.4757(4)
C9 C 0.3391(3) 0.1296(6) 0.3756(4)
C10 C 0.3739(2) 0.6287(6) 0.3949(3)
C11 C 0.4564(3) 0.7042(7) 0.8729(4)
H8 H 0.4633 0.7610 0.9113
C12 C 0.4338(3) 0.7587(7) 0.8015(4)
C13 C 0.4239(3) 0.6765(8) 0.7436(4)
C14 C 0.4024(4) 0.7301(9) 0.6667(5)
C15 C 0.4591(4) 0.4939(8) 0.8352(4)
H9 H 0.4672 0.4032 0.8460
C16 C 0.4371(5) 0.5410(9) 0.7616(4)
H10 H 0.4312 0.4821 0.7246
C17 C 0.4023(6) 0.9040(12) 0.5881(7)
H11 H 0.4155 0.9866 0.5850
C18 C 0.4203(6) 0.8576(14) 0.6599(6)
H12 H 0.4446 0.9113 0.7042
C19 C 0.3706(5) 0.6555(11) 0.5989(6)
H13 H 0.3603 0.5677 0.5994
N4 N 0.4150(17) 0.872(4) 0.791(2)
H14 H 0.4164 0.9113 0.8265
H15 H 0.4002 0.9121 0.7475
C20 C 0.6464(5) 0.7104(10) 0.9703(6)
O10 O 0.54678(18) 0.3520(4) 0.9918(2)
O13 O 0.6207(2) 0.3966(6) 0.9897(3)
N5 N 0.5311(2) 0.5734(6) 0.6097(3)
N7 N 0.6337(3) 0.8295(6) 0.9759(4)
C30 C 0.5436(3) 0.7042(7) 0.6271(4)
H23 H 0.5367 0.7610 0.5887
C31 C 0.5662(3) 0.7587(7) 0.6985(4)
C32 C 0.5761(3) 0.6765(8) 0.7564(4)
C33 C 0.5976(4) 0.7301(9) 0.8333(5)
C34 C 0.5409(4) 0.4939(8) 0.6648(4)
H24 H 0.5328 0.4032 0.6540
C35 C 0.5629(5) 0.5410(9) 0.7384(4)
H25 H 0.5688 0.4821 0.7754
C36 C 0.5977(6) 0.9040(12) 0.9119(7)
H26 H 0.5845 0.9866 0.9150
C37 C 0.5797(6) 0.8576(14) 0.8401(6)
H27 H 0.5554 0.9113 0.7958
C38 C 0.6294(5) 0.6555(11) 0.9011(6)
H28 H 0.6397 0.5677 0.9006
N8 N 0.5850(17) 0.872(4) 0.709(2)
H29 H 0.5836 0.9113 0.6735
H30 H 0.5998 0.9121 0.7525
Ni4_2 Ni 0.5000 0.5000 1.0000
Ni8 Ni 0.15197(3) 0.40358(7) 0.07638(4)
O17 O 0.54678(18) 0.6480(4) 0.4918(2)
O18 O 0.57058(18) 0.3674(4) 0.5499(3)
N9 N 0.4689(2) 0.4266(6) 0.3903(3)
N11 N 0.2537(2) 0.8983(5) 0.3612(3)
O17_2 O 0.45322(18) 0.6480(4) 0.0082(2)
N9_2 N 0.5311(2) 0.4266(6) 0.1097(3)
O18_2 O 0.42942(18) 0.3674(4) 0.9501(3)
H16_2 H 0.1682 0.1574 0.0151
O8_2 O 0.16101(19) 0.2250(4) 0.1248(3)
O11_2 O 0.07058(18) 0.1326(4) 0.0499(3)
O14_2 O 0.0612(2) 0.4106(6) 0.0183(4)
H19_2 H 0.0522 0.4842 0.0298
H20_2 H 0.0508 0.3485 0.0355
C22_2 C 0.1545(3) 0.0017(5) 0.1516(3)
C25_2 C 0.1915(3) 0.0091(5) 0.2333(3)
H22_2 H 0.1997 0.0915 0.2578
C29_2 C 0.1261(2) 0.1287(6) 0.1051(3)
Ni4_3 Ni -0.0000 -0.0000 0.0000
O16_2 O 0.1656(2) 0.5278(4) 0.1629(3)
O20_2 O 0.1500(2) 0.6152(4) 0.0601(3)
Ni1_2 Ni -0.0000 -0.0000 0.5000
C20_2 C 0.1464(5) 0.2104(10) 0.9703(6)
N5_2 N 0.0311(2) 0.0734(6) 0.6097(3)
N7_2 N 0.1337(3) 0.3295(6) 0.9759(4)
C30_2 C 0.0436(3) 0.2042(7) 0.6271(4)
H23_2 H 0.0367 0.2610 0.5887
C31_2 C 0.0662(3) 0.2587(7) 0.6985(4)
C32_2 C 0.0761(3) 0.1765(8) 0.7564(4)
C33_2 C 0.0976(4) 0.2301(9) 0.8333(5)
C35_2 C 0.0629(5) 0.0410(9) 0.7384(4)
C36_2 C 0.0977(6) 0.4040(12) 0.9119(7)
H26_2 H 0.0845 0.4866 0.9150
C37_2 C 0.0797(6) 0.3576(14) 0.8401(6)
H27_2 H 0.0554 0.4113 0.7958
C38_2 C 0.1294(5) 0.1555(11) 0.9011(6)
H28_2 H 0.1397 0.0677 0.9006
N8_2 N 0.0850(17) 0.372(4) 0.709(2)
H29_2 H 0.0836 0.4113 0.6735
H30_2 H 0.0998 0.4121 0.7525
Ni4_4 Ni -0.0000 -0.0000 1.0000
O17_3 O 0.04678(18) 0.1480(4) 0.4918(2)
H17_2 H 0.2457 0.8266 0.3778
H18_2 H 0.2438 0.9714 0.3744
C21_2 C 0.2163(2) 0.8927(6) 0.2780(3)
C23_2 C 0.1706(2) 0.7647(5) 0.1597(3)
C24_2 C 0.2056(2) 0.7724(6) 0.2406(3)
H21_2 H 0.2222 0.6947 0.2703
C26_2 C 0.1437(2) 0.8800(6) 0.1134(3)
C27_2 C 0.1012(3) 0.8758(6) 0.0243(4)
C28_2 C 0.1609(3) 0.6296(6) 0.1244(4)
Ni4_5 Ni 0.0000 1.0000 0.0000
Ni1_3 Ni -0.0000 1.0000 0.5000
O10_2 O 0.04678(18) 0.8520(4) 0.9918(2)
O13_2 O 0.1207(2) 0.8966(6) 0.9897(3)
C34_2 C 0.0409(4) 0.9939(8) 0.6648(4)
H24_2 H 0.0328 0.9032 0.6540
H25_2 H 0.0688 0.9821 0.7754
Ni4_6 Ni -0.0000 1.0000 1.0000
O18_3 O 0.07058(18) 0.8674(4) 0.5499(3)
Ni4_7 Ni 1.0000 -0.0000 0.0000
Ni1_4 Ni 1.0000 -0.0000 0.5000
C1_2 C 0.8536(5) 0.2104(10) 0.5297(6)
H1_2 H 0.8318 0.1574 0.4849
O1_2 O 0.83899(19) 0.2250(4) 0.3752(3)
O4_2 O 0.92942(18) 0.1326(4) 0.4501(3)
N1_2 N 0.9689(2) 0.0734(6) 0.8903(3)
O7_2 O 0.9388(2) 0.4106(6) 0.4817(4)
H4_2 H 0.9478 0.4842 0.4702
H5_2 H 0.9492 0.3485 0.4645
N3_2 N 0.8663(3) 0.3295(6) 0.5241(4)
C3_2 C 0.8455(3) 0.0017(5) 0.3484(3)
C6_2 C 0.8085(3) 0.0091(5) 0.2667(3)
H7_2 H 0.8003 0.0915 0.2422
C10_2 C 0.8739(2) 0.1287(6) 0.3949(3)
C11_2 C 0.9564(3) 0.2042(7) 0.8729(4)
H8_2 H 0.9633 0.2610 0.9113
C12_2 C 0.9338(3) 0.2587(7) 0.8015(4)
C13_2 C 0.9239(3) 0.1765(8) 0.7436(4)
C14_2 C 0.9024(4) 0.2301(9) 0.6667(5)
C16_2 C 0.9371(5) 0.0410(9) 0.7616(4)
C17_2 C 0.9023(6) 0.4040(12) 0.5881(7)
H11_2 H 0.9155 0.4866 0.5850
C18_2 C 0.9203(6) 0.3576(14) 0.6599(6)
H12_2 H 0.9446 0.4113 0.7042
C19_2 C 0.8706(5) 0.1555(11) 0.5989(6)
H13_2 H 0.8603 0.0677 0.5994
N4_2 N 0.9150(17) 0.372(4) 0.791(2)
H14_2 H 0.9164 0.4113 0.8265
H15_2 H 0.9002 0.4121 0.7475
Ni4_8 Ni 1.0000 -0.0000 1.0000
O15_2 O 0.8344(2) 0.5278(4) 0.3371(3)
O19_2 O 0.8500(2) 0.6152(4) 0.4399(3)
Ni4_9 Ni 1.0000 1.0000 0.0000
Ni1_5 Ni 1.0000 1.0000 0.5000
O3_2 O 0.95322(18) 0.8520(4) 0.5082(2)
O6_2 O 0.8793(2) 0.8966(6) 0.5103(3)
H2_2 H 0.7543 0.8266 0.1222
H3_2 H 0.7562 0.9714 0.1256
C2_2 C 0.7837(2) 0.8927(6) 0.2220(3)
C4_2 C 0.8294(2) 0.7647(5) 0.3403(3)
C5_2 C 0.7944(2) 0.7724(6) 0.2594(3)
H6_2 H 0.7778 0.6947 0.2297
C7_2 C 0.8563(2) 0.8800(6) 0.3866(3)
C8_2 C 0.8988(3) 0.8758(6) 0.4757(4)
C9_2 C 0.8391(3) 0.6296(6) 0.3756(4)
C15_2 C 0.9591(4) 0.9939(8) 0.8352(4)
H9_2 H 0.9672 0.9032 0.8460
H10_2 H 0.9312 0.9821 0.7246
Ni4_10 Ni 1.0000 1.0000 1.0000
N9_3 N 0.9689(2) 0.9266(6) 0.3903(3)
N9_4 N 0.0311(2) 0.9266(6) 0.1097(3)
O17_4 O 0.95322(18) 0.1480(4) 0.0082(2)
O18_4 O 0.92942(18) 0.8674(4) 0.9501(3)
Ni5 Ni 0.65197(3) 0.09642(7) 0.57638(4)
Ni6 Ni 0.34803(3) 0.09642(7) 0.92362(4)
C1_3 C 0.6464(5) 0.2896(10) 0.4703(6)
H1_3 H 0.6682 0.3426 0.5151
O1_3 O 0.66101(19) 0.2750(4) 0.6248(3)
O2 O 0.6656(2) 0.9722(4) 0.6629(3)
O5 O 0.6500(2) 0.8848(4) 0.5601(3)
O6_3 O 0.6207(2) 0.6034(6) 0.4897(3)
N2_2 N 0.7537(2) 0.6017(5) 0.8612(3)
H2_3 H 0.7457 0.6734 0.8778
H3_3 H 0.7438 0.5286 0.8744
O7_3 O 0.5612(2) 0.0894(6) 0.5183(4)
H4_3 H 0.5522 0.0158 0.5298
H5_3 H 0.5508 0.1515 0.5355
N3_3 N 0.6337(3) 0.1705(6) 0.4759(4)
C2_3 C 0.7163(2) 0.6073(6) 0.7780(3)
C3_3 C 0.6545(3) 0.4983(5) 0.6516(3)
C4_3 C 0.6706(2) 0.7353(5) 0.6597(3)
C5_3 C 0.7056(2) 0.7276(6) 0.7406(3)
H6_3 H 0.7222 0.8053 0.7703
C6_3 C 0.6915(3) 0.4909(5) 0.7333(3)
H7_3 H 0.6997 0.4085 0.7578
C7_3 C 0.6437(2) 0.6200(6) 0.6134(3)
C8_3 C 0.6012(3) 0.6242(6) 0.5243(4)
C9_3 C 0.6609(3) 0.8704(6) 0.6244(4)
C10_3 C 0.6261(2) 0.3713(6) 0.6051(3)
C11_3 C 0.5436(3) 0.2958(7) 0.1271(4)
H8_3 H 0.5367 0.2390 0.0887
C12_3 C 0.5662(3) 0.2413(7) 0.1985(4)
C13_3 C 0.5761(3) 0.3235(8) 0.2564(4)
C14_3 C 0.5976(4) 0.2699(9) 0.3333(5)
C15_3 C 0.5409(4) 0.5061(8) 0.1648(4)
H9_3 H 0.5328 0.5968 0.1540
C16_3 C 0.5629(5) 0.4590(9) 0.2384(4)
H10_3 H 0.5688 0.5179 0.2754
C17_3 C 0.5977(6) 0.0960(12) 0.4119(7)
H11_3 H 0.5845 0.0134 0.4150
C18_3 C 0.5797(6) 0.1424(14) 0.3401(6)
H12_3 H 0.5554 0.0887 0.2958
C19_3 C 0.6294(5) 0.3445(11) 0.4011(6)
H13_3 H 0.6397 0.4323 0.4006
N4_3 N 0.5850(17) 0.128(4) 0.209(2)
H14_3 H 0.5836 0.0887 0.1735
H15_3 H 0.5998 0.0879 0.2525
C20_3 C 0.3536(5) 0.2896(10) 0.0297(6)
O13_3 O 0.3793(2) 0.6034(6) 0.0103(3)
N7_3 N 0.3663(3) 0.1705(6) 0.0241(4)
C30_3 C 0.4564(3) 0.2958(7) 0.3729(4)
H23_3 H 0.4633 0.2390 0.4113
C31_3 C 0.4338(3) 0.2413(7) 0.3015(4)
C32_3 C 0.4239(3) 0.3235(8) 0.2436(4)
C33_3 C 0.4024(4) 0.2699(9) 0.1667(5)
C34_3 C 0.4591(4) 0.5061(8) 0.3352(4)
H24_3 H 0.4672 0.5968 0.3460
C35_3 C 0.4371(5) 0.4590(9) 0.2616(4)
H25_3 H 0.4312 0.5179 0.2246
C36_3 C 0.4023(6) 0.0960(12) 0.0881(7)
H26_3 H 0.4155 0.0134 0.0850
C37_3 C 0.4203(6) 0.1424(14) 0.1599(6)
H27_3 H 0.4446 0.0887 0.2042
C38_3 C 0.3706(5) 0.3445(11) 0.0989(6)
H28_3 H 0.3603 0.4323 0.0994
N8_3 N 0.4150(17) 0.128(4) 0.291(2)
H29_3 H 0.4164 0.0887 0.3265
H30_3 H 0.4002 0.0879 0.2475
Ni8_2 Ni 0.84803(3) 0.59642(7) 0.92362(4)
N11_2 N 0.7463(2) 0.1017(5) 0.6388(3)
H16_3 H 0.3318 0.3426 0.9849
O8_3 O 0.33899(19) 0.2750(4) 0.8752(3)
O9 O 0.3344(2) 0.9722(4) 0.8371(3)
O12 O 0.3500(2) 0.8848(4) 0.9399(3)
N6_2 N 0.2463(2) 0.6017(5) 0.6388(3)
H17_3 H 0.2543 0.6734 0.6222
H18_3 H 0.2562 0.5286 0.6256
O14_3 O 0.4388(2) 0.0894(6) 0.9817(4)
H19_3 H 0.4478 0.0158 0.9702
H20_3 H 0.4492 0.1515 0.9645
C21_3 C 0.2837(2) 0.6073(6) 0.7220(3)
C22_3 C 0.3455(3) 0.4983(5) 0.8484(3)
C23_3 C 0.3294(2) 0.7353(5) 0.8403(3)
C24_3 C 0.2944(2) 0.7276(6) 0.7594(3)
H21_3 H 0.2778 0.8053 0.7297
C25_3 C 0.3085(3) 0.4909(5) 0.7667(3)
H22_3 H 0.3003 0.4085 0.7422
C26_3 C 0.3563(2) 0.6200(6) 0.8866(3)
C27_3 C 0.3988(3) 0.6242(6) 0.9757(4)
C28_3 C 0.3391(3) 0.8704(6) 0.8756(4)
C29_3 C 0.3739(2) 0.3713(6) 0.8949(3)
Ni7_2 Ni 0.15197(3) 0.59642(7) 0.57638(4)
N10_2 N 0.2537(2) 0.1017(5) 0.8612(3)
O2_2 O 0.1656(2) 0.4722(4) 0.6629(3)
O5_2 O 0.1500(2) 0.3848(4) 0.5601(3)
O6_4 O 0.1207(2) 0.1034(6) 0.4897(3)
H2_4 H 0.2457 0.1734 0.8778
H3_4 H 0.2438 0.0286 0.8744
C2_4 C 0.2163(2) 0.1073(6) 0.7780(3)
C4_4 C 0.1706(2) 0.2353(5) 0.6597(3)
C5_4 C 0.2056(2) 0.2276(6) 0.7406(3)
H6_4 H 0.2222 0.3053 0.7703
C7_4 C 0.1437(2) 0.1200(6) 0.6134(3)
C8_4 C 0.1012(3) 0.1242(6) 0.5243(4)
C9_4 C 0.1609(3) 0.3704(6) 0.6244(4)
C15_4 C 0.0409(4) 0.0061(8) 0.1648(4)
H9_4 H 0.0328 0.0968 0.1540
H10_4 H 0.0688 0.0179 0.2754
C1_4 C 0.1464(5) 0.7896(10) 0.4703(6)
H1_4 H 0.1682 0.8426 0.5151
O1_4 O 0.16101(19) 0.7750(4) 0.6248(3)
O7_4 O 0.0612(2) 0.5894(6) 0.5183(4)
H4_4 H 0.0522 0.5158 0.5298
H5_4 H 0.0508 0.6515 0.5355
N3_4 N 0.1337(3) 0.6705(6) 0.4759(4)
C3_4 C 0.1545(3) 0.9983(5) 0.6516(3)
C6_4 C 0.1915(3) 0.9909(5) 0.7333(3)
H7_4 H 0.1997 0.9085 0.7578
C10_4 C 0.1261(2) 0.8713(6) 0.6051(3)
C11_4 C 0.0436(3) 0.7958(7) 0.1271(4)
H8_4 H 0.0367 0.7390 0.0887
C12_4 C 0.0662(3) 0.7413(7) 0.1985(4)
C13_4 C 0.0761(3) 0.8235(8) 0.2564(4)
C14_4 C 0.0976(4) 0.7699(9) 0.3333(5)
C16_4 C 0.0629(5) 0.9590(9) 0.2384(4)
C17_4 C 0.0977(6) 0.5960(12) 0.4119(7)
H11_4 H 0.0845 0.5134 0.4150
C18_4 C 0.0797(6) 0.6424(14) 0.3401(6)
H12_4 H 0.0554 0.5887 0.2958
C19_4 C 0.1294(5) 0.8445(11) 0.4011(6)
H13_4 H 0.1397 0.9323 0.4006
N4_4 N 0.0850(17) 0.628(4) 0.209(2)
H14_4 H 0.0836 0.5887 0.1735
H15_4 H 0.0998 0.5879 0.2525
O13_4 O 0.8793(2) 0.1034(6) 0.0103(3)
C34_4 C 0.9591(4) 0.0061(8) 0.3352(4)
H24_4 H 0.9672 0.0968 0.3460
H25_4 H 0.9312 0.0179 0.2246
O9_2 O 0.8344(2) 0.4722(4) 0.8371(3)
O12_2 O 0.8500(2) 0.3848(4) 0.9399(3)
H17_4 H 0.7543 0.1734 0.6222
H18_4 H 0.7562 0.0286 0.6256
C21_4 C 0.7837(2) 0.1073(6) 0.7220(3)
C23_4 C 0.8294(2) 0.2353(5) 0.8403(3)
C24_4 C 0.7944(2) 0.2276(6) 0.7594(3)
H21_4 H 0.7778 0.3053 0.7297
C26_4 C 0.8563(2) 0.1200(6) 0.8866(3)
C27_4 C 0.8988(3) 0.1242(6) 0.9757(4)
C28_4 C 0.8391(3) 0.3704(6) 0.8756(4)
C20_4 C 0.8536(5) 0.7896(10) 0.0297(6)
N7_4 N 0.8663(3) 0.6705(6) 0.0241(4)
C30_4 C 0.9564(3) 0.7958(7) 0.3729(4)
H23_4 H 0.9633 0.7390 0.4113
C31_4 C 0.9338(3) 0.7413(7) 0.3015(4)
C32_4 C 0.9239(3) 0.8235(8) 0.2436(4)
C33_4 C 0.9024(4) 0.7699(9) 0.1667(5)
C35_4 C 0.9371(5) 0.9590(9) 0.2616(4)
C36_4 C 0.9023(6) 0.5960(12) 0.0881(7)
H26_4 H 0.9155 0.5134 0.0850
C37_4 C 0.9203(6) 0.6424(14) 0.1599(6)
H27_4 H 0.9446 0.5887 0.2042
C38_4 C 0.8706(5) 0.8445(11) 0.0989(6)
H28_4 H 0.8603 0.9323 0.0994
N8_4 N 0.9150(17) 0.628(4) 0.291(2)
H29_4 H 0.9164 0.5887 0.3265
H30_4 H 0.9002 0.5879 0.2475
H16_4 H 0.8318 0.8426 0.9849
O8_4 O 0.83899(19) 0.7750(4) 0.8752(3)
O14_4 O 0.9388(2) 0.5894(6) 0.9817(4)
H19_4 H 0.9478 0.5158 0.9702
H20_4 H 0.9492 0.6515 0.9645
C22_4 C 0.8455(3) 0.9983(5) 0.8484(3)
C25_4 C 0.8085(3) 0.9909(5) 0.7667(3)
H22_4 H 0.8003 0.9085 0.7422
C29_4 C 0.8739(2) 0.8713(6) 0.8949(3)
loop_
_geom_bond_atom_site_label_1
_geom_bond_atom_site_label_2
_geom_bond_site_symmetry_1
_geom_bond_site_symmetry_2
Ni3 O8 1_555 1_555
O8 C29 1_555 1_555
O16 C28 1_555 1_555
O11 C29 1_555 1_555
O20 C28 1_555 1_555
N6 H17 1_555 1_555
H18 N6 1_555 1_555
O14 Ni3 1_555 1_555
H19 O14 1_555 1_555
H20 O14 1_555 1_555
C21 N6 1_555 1_555
C22 C25 1_555 1_555
C23 C24 1_555 1_555
C24 C21 1_555 1_555
H21 C24 1_555 1_555
C25 C21 1_555 1_555
H22 C25 1_555 1_555
C26 C22 1_555 1_555
C27 C26 1_555 1_555
C28 C23 1_555 1_555
C29 C22 1_555 1_555
Ni7 N6 1_555 1_555
N10 Ni3 1_555 1_555
O11 Ni4 1_555 1_555
C23 C26 1_555 1_555
Ni1 O3 1_555 1_555
Ni2 O1 1_555 1_555
C1 H1 1_555 1_555
O1 C10 1_555 1_555
O15 C9 1_555 1_555
O3 C8 1_555 1_555
O4 Ni1 1_555 1_555
O19 C9 1_555 1_555
O6 C8 1_555 1_555
N1 C11 1_555 1_555
N2 H2 1_555 1_555
H3 N2 1_555 1_555
O7 Ni2 1_555 1_555
H4 O7 1_555 1_555
H5 O7 1_555 1_555
N3 Ni2 1_555 1_555
C2 N2 1_555 1_555
C3 C6 1_555 1_555
C4 C5 1_555 1_555
C5 C2 1_555 1_555
H6 C5 1_555 1_555
C6 C2 1_555 1_555
H7 C6 1_555 1_555
C7 C3 1_555 1_555
C8 C7 1_555 1_555
C9 C4 1_555 1_555
C10 O4 1_555 1_555
C11 H8 1_555 1_555
C12 C11 1_555 1_555
C13 C12 1_555 1_555
C14 C13 1_555 1_555
C15 N1 1_555 1_555
H9 C15 1_555 1_555
C16 C13 1_555 1_555
H10 C16 1_555 1_555
C17 N3 1_555 1_555
H11 C17 1_555 1_555
C18 C14 1_555 1_555
H12 C18 1_555 1_555
C19 C1 1_555 1_555
H13 C19 1_555 1_555
N4 C12 1_555 1_555
H14 N4 1_555 1_555
H15 N4 1_555 1_555
N5 Ni1 1_555 1_555
C30 N5 1_555 1_555
H23 C30 1_555 1_555
C31 C30 1_555 1_555
C32 C31 1_555 1_555
C33 C32 1_555 1_555
C34 N5 1_555 1_555
H24 C34 1_555 1_555
C35 C32 1_555 1_555
H25 C35 1_555 1_555
C36 N7 1_555 1_555
H26 C36 1_555 1_555
C37 C33 1_555 1_555
H27 C37 1_555 1_555
C38 C20 1_555 1_555
H28 C38 1_555 1_555
N8 C31 1_555 1_555
H29 N8 1_555 1_555
H30 N8 1_555 1_555
Ni4_2 N1 1_555 1_555
Ni8 N2 1_555 1_555
O17 Ni1 1_555 1_555
O18 Ni1 1_555 1_555
N9 Ni1 1_555 1_555
N11 Ni2 1_555 1_555
C1 N3 1_555 1_555
C3 C10 1_555 1_555
C4 C7 1_555 1_555
C14 C19 1_555 1_555
C15 C16 1_555 1_555
C17 C18 1_555 1_555
C20 N7 1_555 1_555
O10 Ni4_2 1_555 1_555
C33 C38 1_555 1_555
C34 C35 1_555 1_555
C36 C37 1_555 1_555
O17_2 Ni4 1_555 1_555
N9_2 Ni4 1_555 1_555
O18_2 Ni4_2 1_555 1_555
Ni8 O8_2 1_555 1_555
O8_2 C29_2 1_555 1_555
O11_2 C29_2 1_555 1_555
O14_2 Ni8 1_555 1_555
H19_2 O14_2 1_555 1_555
H20_2 O14_2 1_555 1_555
C22_2 C25_2 1_555 1_555
H22_2 C25_2 1_555 1_555
C29_2 C22_2 1_555 1_555
O16_2 Ni8 1_555 1_555
O20_2 Ni8 1_555 1_555
O11_2 Ni4_3 1_555 1_555
N5_2 Ni1_2 1_555 1_555
C30_2 N5_2 1_555 1_555
H23_2 C30_2 1_555 1_555
C31_2 C30_2 1_555 1_555
C32_2 C31_2 1_555 1_555
C33_2 C32_2 1_555 1_555
C35_2 C32_2 1_555 1_555
C36_2 N7_2 1_555 1_555
H26_2 C36_2 1_555 1_555
C37_2 C33_2 1_555 1_555
H27_2 C37_2 1_555 1_555
C38_2 C20_2 1_555 1_555
H28_2 C38_2 1_555 1_555
N8_2 C31_2 1_555 1_555
H29_2 N8_2 1_555 1_555
H30_2 N8_2 1_555 1_555
O17_3 Ni1_2 1_555 1_555
C20_2 N7_2 1_555 1_555
C33_2 C38_2 1_555 1_555
C36_2 C37_2 1_555 1_555
O16_2 C28_2 1_555 1_555
O20_2 C28_2 1_555 1_555
N11 H17_2 1_555 1_555
H18_2 N11 1_555 1_555
C21_2 N11 1_555 1_555
C23_2 C24_2 1_555 1_555
C24_2 C21_2 1_555 1_555
H21_2 C24_2 1_555 1_555
C27_2 C26_2 1_555 1_555
C28_2 C23_2 1_555 1_555
C23_2 C26_2 1_555 1_555
H24_2 C34_2 1_555 1_555
O18_3 Ni1_3 1_555 1_555
O10_2 Ni4_6 1_555 1_555
Ni7 O1_2 1_555 1_555
C1_2 H1_2 1_555 1_555
O1_2 C10_2 1_555 1_555
O4_2 Ni1_4 1_555 1_555
N1_2 C11_2 1_555 1_555
O7_2 Ni7 1_555 1_555
H4_2 O7_2 1_555 1_555
H5_2 O7_2 1_555 1_555
N3_2 Ni7 1_555 1_555
C3_2 C6_2 1_555 1_555
H7_2 C6_2 1_555 1_555
C10_2 O4_2 1_555 1_555
C11_2 H8_2 1_555 1_555
C12_2 C11_2 1_555 1_555
C13_2 C12_2 1_555 1_555
C14_2 C13_2 1_555 1_555
C16_2 C13_2 1_555 1_555
C17_2 N3_2 1_555 1_555
H11_2 C17_2 1_555 1_555
C18_2 C14_2 1_555 1_555
H12_2 C18_2 1_555 1_555
C19_2 C1_2 1_555 1_555
H13_2 C19_2 1_555 1_555
N4_2 C12_2 1_555 1_555
H14_2 N4_2 1_555 1_555
H15_2 N4_2 1_555 1_555
Ni4_8 N1_2 1_555 1_555
O15_2 Ni7 1_555 1_555
O19_2 Ni7 1_555 1_555
C1_2 N3_2 1_555 1_555
C3_2 C10_2 1_555 1_555
C14_2 C19_2 1_555 1_555
C17_2 C18_2 1_555 1_555
Ni1_5 O3_2 1_555 1_555
O15_2 C9_2 1_555 1_555
O3_2 C8_2 1_555 1_555
O19_2 C9_2 1_555 1_555
O6_2 C8_2 1_555 1_555
N10 H2_2 1_555 1_555
H3_2 N10 1_555 1_555
C2_2 N10 1_555 1_555
C4_2 C5_2 1_555 1_555
C5_2 C2_2 1_555 1_555
H6_2 C5_2 1_555 1_555
C8_2 C7_2 1_555 1_555
C9_2 C4_2 1_555 1_555
H9_2 C15_2 1_555 1_555
N9_3 Ni1_5 1_555 1_555
C4_2 C7_2 1_555 1_555
N9_4 Ni4_5 1_555 1_555
O17_4 Ni4_7 1_555 1_555
O18_4 Ni4_10 1_555 1_555
Ni5 O1_3 1_555 1_555
C1_3 H1_3 1_555 1_555
O1_3 C10_3 1_555 1_555
O2 C9_3 1_555 1_555
O17 C8_3 1_555 1_555
O5 C9_3 1_555 1_555
O6_3 C8_3 1_555 1_555
N9_2 C11_3 1_555 1_555
N2_2 H2_3 1_555 1_555
H3_3 N2_2 1_555 1_555
O7_3 Ni5 1_555 1_555
H4_3 O7_3 1_555 1_555
H5_3 O7_3 1_555 1_555
N3_3 Ni5 1_555 1_555
C2_3 N2_2 1_555 1_555
C3_3 C6_3 1_555 1_555
C4_3 C5_3 1_555 1_555
C5_3 C2_3 1_555 1_555
H6_3 C5_3 1_555 1_555
C6_3 C2_3 1_555 1_555
H7_3 C6_3 1_555 1_555
C7_3 C3_3 1_555 1_555
C8_3 C7_3 1_555 1_555
C9_3 C4_3 1_555 1_555
C10_3 O18 1_555 1_555
C11_3 H8_3 1_555 1_555
C12_3 C11_3 1_555 1_555
C13_3 C12_3 1_555 1_555
C14_3 C13_3 1_555 1_555
C15_3 N9_2 1_555 1_555
H9_3 C15_3 1_555 1_555
C16_3 C13_3 1_555 1_555
H10_3 C16_3 1_555 1_555
C17_3 N3_3 1_555 1_555
H11_3 C17_3 1_555 1_555
C18_3 C14_3 1_555 1_555
H12_3 C18_3 1_555 1_555
C19_3 C1_3 1_555 1_555
H13_3 C19_3 1_555 1_555
N4_3 C12_3 1_555 1_555
H14_3 N4_3 1_555 1_555
H15_3 N4_3 1_555 1_555
C30_3 N9 1_555 1_555
H23_3 C30_3 1_555 1_555
C31_3 C30_3 1_555 1_555
C32_3 C31_3 1_555 1_555
C33_3 C32_3 1_555 1_555
C34_3 N9 1_555 1_555
H24_3 C34_3 1_555 1_555
C35_3 C32_3 1_555 1_555
H25_3 C35_3 1_555 1_555
C36_3 N7_3 1_555 1_555
H26_3 C36_3 1_555 1_555
C37_3 C33_3 1_555 1_555
H27_3 C37_3 1_555 1_555
C38_3 C20_3 1_555 1_555
H28_3 C38_3 1_555 1_555
N8_3 C31_3 1_555 1_555
H29_3 N8_3 1_555 1_555
H30_3 N8_3 1_555 1_555
Ni8_2 N2_2 1_555 1_555
N11_2 Ni5 1_555 1_555
C1_3 N3_3 1_555 1_555
C3_3 C10_3 1_555 1_555
C4_3 C7_3 1_555 1_555
C14_3 C19_3 1_555 1_555
C15_3 C16_3 1_555 1_555
C17_3 C18_3 1_555 1_555
C20_3 N7_3 1_555 1_555
C33_3 C38_3 1_555 1_555
C34_3 C35_3 1_555 1_555
C36_3 C37_3 1_555 1_555
Ni6 O8_3 1_555 1_555
O8_3 C29_3 1_555 1_555
O9 C28_3 1_555 1_555
O18_2 C29_3 1_555 1_555
O12 C28_3 1_555 1_555
N6_2 H17_3 1_555 1_555
H18_3 N6_2 1_555 1_555
O14_3 Ni6 1_555 1_555
H19_3 O14_3 1_555 1_555
H20_3 O14_3 1_555 1_555
C21_3 N6_2 1_555 1_555
C22_3 C25_3 1_555 1_555
C23_3 C24_3 1_555 1_555
C24_3 C21_3 1_555 1_555
H21_3 C24_3 1_555 1_555
C25_3 C21_3 1_555 1_555
H22_3 C25_3 1_555 1_555
C26_3 C22_3 1_555 1_555
C27_3 C26_3 1_555 1_555
C28_3 C23_3 1_555 1_555
C29_3 C22_3 1_555 1_555
Ni7_2 N6_2 1_555 1_555
N10_2 Ni6 1_555 1_555
C23_3 C26_3 1_555 1_555
O2_2 C9_4 1_555 1_555
O17_3 C8_4 1_555 1_555
O5_2 C9_4 1_555 1_555
O6_4 C8_4 1_555 1_555
N10_2 H2_4 1_555 1_555
H3_4 N10_2 1_555 1_555
C2_4 N10_2 1_555 1_555
C4_4 C5_4 1_555 1_555
C5_4 C2_4 1_555 1_555
H6_4 C5_4 1_555 1_555
C8_4 C7_4 1_555 1_555
C9_4 C4_4 1_555 1_555
H9_4 C15_4 1_555 1_555
Ni7_2 O2_2 1_555 1_555
O5_2 Ni7_2 1_555 1_555
C4_4 C7_4 1_555 1_555
Ni7_2 O1_4 1_555 1_555
C1_4 H1_4 1_555 1_555
O1_4 C10_4 1_555 1_555
N9_4 C11_4 1_555 1_555
O7_4 Ni7_2 1_555 1_555
H4_4 O7_4 1_555 1_555
H5_4 O7_4 1_555 1_555
N3_4 Ni7_2 1_555 1_555
C3_4 C6_4 1_555 1_555
H7_4 C6_4 1_555 1_555
C10_4 O18_3 1_555 1_555
C11_4 H8_4 1_555 1_555
C12_4 C11_4 1_555 1_555
C13_4 C12_4 1_555 1_555
C14_4 C13_4 1_555 1_555
C16_4 C13_4 1_555 1_555
C17_4 N3_4 1_555 1_555
H11_4 C17_4 1_555 1_555
C18_4 C14_4 1_555 1_555
H12_4 C18_4 1_555 1_555
C19_4 C1_4 1_555 1_555
H13_4 C19_4 1_555 1_555
N4_4 C12_4 1_555 1_555
H14_4 N4_4 1_555 1_555
H15_4 N4_4 1_555 1_555
C1_4 N3_4 1_555 1_555
C3_4 C10_4 1_555 1_555
C14_4 C19_4 1_555 1_555
C17_4 C18_4 1_555 1_555
H24_4 C34_4 1_555 1_555
O9_2 C28_4 1_555 1_555
O12_2 C28_4 1_555 1_555
N11_2 H17_4 1_555 1_555
H18_4 N11_2 1_555 1_555
C21_4 N11_2 1_555 1_555
C23_4 C24_4 1_555 1_555
C24_4 C21_4 1_555 1_555
H21_4 C24_4 1_555 1_555
C27_4 C26_4 1_555 1_555
C28_4 C23_4 1_555 1_555
Ni8_2 O9_2 1_555 1_555
O12_2 Ni8_2 1_555 1_555
C23_4 C26_4 1_555 1_555
C30_4 N9_3 1_555 1_555
H23_4 C30_4 1_555 1_555
C31_4 C30_4 1_555 1_555
C32_4 C31_4 1_555 1_555
C33_4 C32_4 1_555 1_555
C35_4 C32_4 1_555 1_555
C36_4 N7_4 1_555 1_555
H26_4 C36_4 1_555 1_555
C37_4 C33_4 1_555 1_555
H27_4 C37_4 1_555 1_555
C38_4 C20_4 1_555 1_555
H28_4 C38_4 1_555 1_555
N8_4 C31_4 1_555 1_555
H29_4 N8_4 1_555 1_555
H30_4 N8_4 1_555 1_555
C20_4 N7_4 1_555 1_555
C33_4 C38_4 1_555 1_555
C36_4 C37_4 1_555 1_555
Ni8_2 O8_4 1_555 1_555
O8_4 C29_4 1_555 1_555
O18_4 C29_4 1_555 1_555
O14_4 Ni8_2 1_555 1_555
H19_4 O14_4 1_555 1_555
H20_4 O14_4 1_555 1_555
C22_4 C25_4 1_555 1_555
H22_4 C25_4 1_555 1_555
C29_4 C22_4 1_555 1_555

#END
