
###############################################################################
#
# This file contains modified crystal structure data generated from the
# MOF subset of the Cambridge Structural Database (CSD) v543 
# hosted by the Cambridge Crystallographic Data Centre (CCDC).
#
# This work is licensed under the Creative Commons
# Attribution-NonCommercial-ShareAlike 4.0 International License.
# To view a copy of this license, visit
# http://creativecommons.org/licenses/by-nc-sa/4.0/
# or send a letter to
# Creative Commons, PO Box 1866, Mountain View, CA 94042, USA.
#
# CIF created using the CSD Python API on 29 September 2022
# The structure has been converted into the P1 space group
# The structure has a 3D framework
# The original CSD entry HIVPOU is in the tetragonal crystal system
# The framework has been calculated to contain at least 10.0% void space
# The void calculation uses a probe of radius 1.32A, grid spacing 0.4
#
###############################################################################

data_HIVPOU
_chemical_formula_moiety         '(C16 H8 Cu1 N8 Ni6 S8)n'
_symmetry_cell_setting           triclinic
_symmetry_space_group_name_H-M   'P 1'
_symmetry_Int_Tables_number      1
_space_group_name_Hall           'P 1'
loop_
_symmetry_equiv_pos_site_id
_symmetry_equiv_pos_as_xyz
1 x,y,z
_cell_length_a                   6.8233(8)
_cell_length_b                   6.8233(8)
_cell_length_c                   16.1432(16)
_cell_angle_alpha                90
_cell_angle_beta                 90
_cell_angle_gamma                90
_cell_volume                     751.586
loop_
_atom_site_label
_atom_site_type_symbol
_atom_site_fract_x
_atom_site_fract_y
_atom_site_fract_z
_atom_site_U_iso_or_equiv
_atom_site_thermal_displace_type
Ni1 Ni 0.500 0.000 0.000 0.0290 Uiso
Cu1 Cu 0.500 0.500 0.250 0.0120 Uiso
S1 S 0.500 0.2266(6) 0.0925(3) 0.0380 Uiso
C1 C 0.500 0.0980(19) 0.1920(8) 0.0120 Uiso
N1 N 0.500 0.2096(13) 0.2585(10) 0.0120 Uiso
C2 C 0.500 0.096(3) 0.3254(8) 0.0100 Uiso
H1 H 0.500 0.1685 0.3854 0.0130 Uiso
N5 N 0.500 0.7904(13) 0.2585(10) 0.0120 Uiso
N6 N 0.7904(13) 0.500 0.2415(10) 0.0120 Uiso
N7 N 0.2096(13) 0.500 0.2415(10) 0.0120 Uiso
Ni1_2 Ni 0.500 0.000 1.000 0.0290 Uiso
S4 S 0.500 0.2266(6) 0.9075(3) 0.0380 Uiso
C7 C 0.500 0.0980(19) 0.8080(8) 0.0120 Uiso
N4 N 0.500 0.2096(13) 0.7415(10) 0.0120 Uiso
C8 C 0.500 0.096(3) 0.6746(8) 0.0100 Uiso
H4 H 0.500 0.1685 0.6146 0.0130 Uiso
Cu3 Cu 0.500 0.500 0.750 0.0120 Uiso
Ni1_3 Ni 0.500 1.000 0.000 0.0290 Uiso
S2 S 0.500 0.7734(6) 0.0925(3) 0.0380 Uiso
C3 C 0.500 0.9020(19) 0.1920(8) 0.0120 Uiso
C4 C 0.500 0.904(3) 0.3254(8) 0.0100 Uiso
H2 H 0.500 0.8315 0.3854 0.0130 Uiso
Ni1_4 Ni 0.500 1.000 1.000 0.0290 Uiso
S3 S 0.500 0.7734(6) 0.9075(3) 0.0380 Uiso
C5 C 0.500 0.9020(19) 0.8080(8) 0.0120 Uiso
N3 N 0.500 0.7904(13) 0.7415(10) 0.0120 Uiso
C6 C 0.500 0.904(3) 0.6746(8) 0.0100 Uiso
H3 H 0.500 0.8315 0.6146 0.0130 Uiso
N6_2 N 0.2096(13) 0.500 0.7585(10) 0.0120 Uiso
N7_2 N 0.7904(13) 0.500 0.7585(10) 0.0120 Uiso
Ni1_5 Ni 0.000 0.500 0.500 0.0290 Uiso
S2_2 S 0.2266(6) 0.500 0.4075(3) 0.0380 Uiso
C3_2 C 0.0980(19) 0.500 0.3080(8) 0.0120 Uiso
C4_2 C 0.096(3) 0.500 0.1746(8) 0.0100 Uiso
H2_2 H 0.1685 0.500 0.1146 0.0130 Uiso
S3_2 S 0.2266(6) 0.500 0.5925(3) 0.0380 Uiso
C5_2 C 0.0980(19) 0.500 0.6920(8) 0.0120 Uiso
C6_2 C 0.096(3) 0.500 0.8254(8) 0.0100 Uiso
H3_2 H 0.1685 0.500 0.8854 0.0130 Uiso
Ni1_6 Ni 1.000 0.500 0.500 0.0290 Uiso
S1_2 S 0.7734(6) 0.500 0.4075(3) 0.0380 Uiso
C1_2 C 0.9020(19) 0.500 0.3080(8) 0.0120 Uiso
C2_2 C 0.904(3) 0.500 0.1746(8) 0.0100 Uiso
H1_2 H 0.8315 0.500 0.1146 0.0130 Uiso
S4_2 S 0.7734(6) 0.500 0.5925(3) 0.0380 Uiso
C7_2 C 0.9020(19) 0.500 0.6920(8) 0.0120 Uiso
C8_2 C 0.904(3) 0.500 0.8254(8) 0.0100 Uiso
H4_2 H 0.8315 0.500 0.8854 0.0130 Uiso
loop_
_geom_bond_atom_site_label_1
_geom_bond_atom_site_label_2
_geom_bond_site_symmetry_1
_geom_bond_site_symmetry_2
Ni1 S1 1_555 1_555
Cu1 N1 1_555 1_555
S1 C1 1_555 1_555
C1 N1 1_555 1_555
N1 C2 1_555 1_555
C2 H1 1_555 1_555
N5 Cu1 1_555 1_555
N6 Cu1 1_555 1_555
N7 Cu1 1_555 1_555
S4 Ni1_2 1_555 1_555
N4 C7 1_555 1_555
H4 C8 1_555 1_555
Cu3 N4 1_555 1_555
S4 C7 1_555 1_555
N4 C8 1_555 1_555
S2 Ni1_3 1_555 1_555
N5 C3 1_555 1_555
H2 C4 1_555 1_555
S2 C3 1_555 1_555
N5 C4 1_555 1_555
S3 Ni1_4 1_555 1_555
C5 S3 1_555 1_555
N3 C5 1_555 1_555
C6 N3 1_555 1_555
H3 C6 1_555 1_555
Cu3 N3 1_555 1_555
N6_2 Cu3 1_555 1_555
N7_2 Cu3 1_555 1_555
S2_2 Ni1_5 1_555 1_555
N7 C3_2 1_555 1_555
H2_2 C4_2 1_555 1_555
S3_2 Ni1_5 1_555 1_555
C5_2 S3_2 1_555 1_555
N6_2 C5_2 1_555 1_555
C6_2 N6_2 1_555 1_555
H3_2 C6_2 1_555 1_555
S2_2 C3_2 1_555 1_555
N7 C4_2 1_555 1_555
Ni1_6 S1_2 1_555 1_555
S1_2 C1_2 1_555 1_555
C1_2 N6 1_555 1_555
N6 C2_2 1_555 1_555
C2_2 H1_2 1_555 1_555
S4_2 Ni1_6 1_555 1_555
N7_2 C7_2 1_555 1_555
H4_2 C8_2 1_555 1_555
S4_2 C7_2 1_555 1_555
N7_2 C8_2 1_555 1_555

#END
