
###############################################################################
#
# This file contains modified crystal structure data generated from the
# MOF subset of the Cambridge Structural Database (CSD) v543 
# hosted by the Cambridge Crystallographic Data Centre (CCDC).
#
# This work is licensed under the Creative Commons
# Attribution-NonCommercial-ShareAlike 4.0 International License.
# To view a copy of this license, visit
# http://creativecommons.org/licenses/by-nc-sa/4.0/
# or send a letter to
# Creative Commons, PO Box 1866, Mountain View, CA 94042, USA.
#
# CIF created using the CSD Python API on 29 September 2022
# The structure has been converted into the P1 space group
# The structure has a 3D framework
# The original CSD entry HIVQAG is in the monoclinic crystal system
# The original CSD entry HIVQAG is in a Sohncke space group
# The framework has been calculated to contain at least 10.0% void space
# The void calculation uses a probe of radius 1.32A, grid spacing 0.4
#
###############################################################################

data_HIVQAG
_chemical_formula_moiety         '(C48 H32 Mn4 N8 O16)n'
_symmetry_cell_setting           triclinic
_symmetry_space_group_name_H-M   'P 1'
_symmetry_Int_Tables_number      1
_space_group_name_Hall           'P 1'
loop_
_symmetry_equiv_pos_site_id
_symmetry_equiv_pos_as_xyz
1 x,y,z
_cell_length_a                   9.9165(6)
_cell_length_b                   13.0528(7)
_cell_length_c                   10.9693(7)
_cell_angle_alpha                90
_cell_angle_beta                 101.633(6)
_cell_angle_gamma                90
_cell_volume                     1390.68
loop_
_atom_site_label
_atom_site_type_symbol
_atom_site_fract_x
_atom_site_fract_y
_atom_site_fract_z
Mn3 Mn 0.12446(9) 0.11153(8) 0.25318(9)
Mn2 Mn 0.62643(9) 0.11244(8) 0.24822(9)
C1 C 0.4097(5) 0.0143(5) 0.4009(5)
C13 C 0.3441(5) 0.2091(6) 0.1015(5)
C14 C 0.3496(6) 0.3009(6) 0.0190(6)
C15 C 0.3366(6) 0.3992(5) 0.0643(4)
H9 H 0.3225 0.4089 0.1447
H10 H 0.3405 0.5475 0.0206
C19 C 0.8417(5) 0.2102(5) 0.0972(5)
C20 C 0.8461(6) 0.2976(5) 0.0074(6)
O1 O 0.5140(4) 0.0194(4) 0.3541(4)
O2 O 0.3148(4) 0.0789(4) 0.3866(4)
O3 O 0.0170(4) 0.0261(4) 0.3669(5)
O5 O 0.2380(5) 0.2051(5) 0.1448(5)
O6 O 0.4419(4) 0.1499(5) 0.1148(4)
O7 O 0.7324(4) 0.2067(4) 0.1385(5)
O8 O 0.9405(4) 0.1522(4) 0.1184(4)
N5 N 0.6116(5) 0.2550(5) 0.3675(5)
N6 N 0.1086(5) 0.2573(4) 0.3618(5)
O9 O 0.8058(4) 0.0722(4) 0.3806(4)
C16 C 0.3450(5) 0.4821(5) 0.9880(4)
C17 C 0.3691(5) 0.3775(5) 0.8280(4)
H11 H 0.3764 0.3689 0.7454
C18 C 0.3691(5) 0.2913(5) 0.9002(4)
H12 H 0.3823 0.2270 0.8681
C21 C 0.7352(4) 0.3587(5) 0.9705(4)
H13 H 0.6531 0.3449 0.9960
C22 C 0.7452(4) 0.4422(5) 0.8942(4)
H14 H 0.6674 0.4825 0.8684
C23 C 0.9684(5) 0.4044(5) 0.8900(5)
C24 C 0.9646(4) 0.3204(5) 0.9670(5)
N3 N 0.3593(5) 0.4733(5) 0.8698(5)
N4 N 0.8599(5) 0.4677(5) 0.8559(5)
Mn5 Mn 0.87554(9) 0.61153(8) 0.74682(9)
Mn8 Mn 0.37357(9) 0.61244(8) 0.75178(9)
C2 C 0.3992(6) 0.9230(5) 0.4810(5)
C3 C 0.4012(5) 0.8245(5) 0.4359(4)
H1 H 0.4075 0.8131 0.3536
C4 C 0.3937(6) 0.7441(5) 0.5136(5)
H2 H 0.3922 0.6781 0.4813
C5 C 0.3878(5) 0.8487(5) 0.6769(4)
H3 H 0.3847 0.8576 0.7604
C6 C 0.3918(5) 0.9333(5) 0.6042(4)
H4 H 0.3894 0.9984 0.6384
C9 C 0.0188(4) 0.8657(5) 0.5329(4)
H5 H 0.1029 0.8828 0.5132
C10 C 0.0082(4) 0.7840(5) 0.6071(4)
H6 H 0.0865 0.7453 0.6372
N1 N 0.3884(5) 0.7550(5) 0.6325(5)
N7 N 0.6407(5) 0.9733(5) 0.1302(5)
N8 N 0.1401(5) 0.9677(5) 0.1441(5)
C7 C 0.9088(5) 0.0141(5) 0.4038(5)
C8 C 0.9015(5) 0.9236(5) 0.4868(5)
C11 C 0.7819(4) 0.8133(5) 0.5997(5)
H7 H 0.7009 0.7954 0.6247
C12 C 0.7804(4) 0.8966(5) 0.5248(5)
H8 H 0.7004 0.9346 0.4996
N2 N 0.8914(5) 0.7573(4) 0.6382(5)
C7_2 C 0.0912(5) 0.5141(5) 0.5962(5)
C8_2 C 0.0985(5) 0.4236(5) 0.5132(5)
C11_2 C 0.2181(4) 0.3133(5) 0.4003(5)
H7_2 H 0.2991 0.2954 0.3753
C12_2 C 0.2196(4) 0.3966(5) 0.4752(5)
H8_2 H 0.2996 0.4346 0.5004
O4 O 0.1942(4) 0.5722(4) 0.6194(4)
O10 O 0.0595(4) 0.6522(4) 0.8816(4)
C16_2 C 0.6550(5) 0.9821(5) 0.0120(4)
C17_2 C 0.6309(5) 0.8775(5) 0.1720(4)
H11_2 H 0.6236 0.8689 0.2546
C18_2 C 0.6309(5) 0.7913(5) 0.0998(4)
H12_2 H 0.6177 0.7270 0.1319
C21_2 C 0.2648(4) 0.8587(5) 0.0295(4)
H13_2 H 0.3469 0.8449 0.0040
C22_2 C 0.2548(4) 0.9422(5) 0.1058(4)
H14_2 H 0.3326 0.9825 0.1316
C23_2 C 0.0316(5) 0.9044(5) 0.1100(5)
C24_2 C 0.0354(4) 0.8204(5) 0.0330(5)
C1_2 C 0.5903(5) 0.5143(5) 0.5991(5)
C2_2 C 0.6008(6) 0.4230(5) 0.5190(5)
C3_2 C 0.5988(5) 0.3245(5) 0.5641(4)
H1_2 H 0.5925 0.3131 0.6464
C4_2 C 0.6063(6) 0.2441(5) 0.4864(5)
H2_2 H 0.6078 0.1781 0.5187
C5_2 C 0.6122(5) 0.3487(5) 0.3231(4)
H3_2 H 0.6153 0.3576 0.2396
C6_2 C 0.6082(5) 0.4333(5) 0.3958(4)
H4_2 H 0.6106 0.4984 0.3616
C9_2 C 0.9812(4) 0.3657(5) 0.4671(4)
H5_2 H 0.8971 0.3828 0.4868
C10_2 C 0.9918(4) 0.2840(5) 0.3929(4)
H6_2 H 0.9135 0.2453 0.3628
C13_2 C 0.6559(5) 0.7091(6) 0.8985(5)
C14_2 C 0.6504(6) 0.8009(6) 0.9810(6)
C15_2 C 0.6634(6) 0.8992(5) 0.9357(4)
H9_2 H 0.6775 0.9089 0.8553
C19_2 C 0.1583(5) 0.7102(5) 0.9028(5)
C20_2 C 0.1539(6) 0.7976(5) 0.9926(6)
O1_2 O 0.4860(4) 0.5194(4) 0.6459(4)
O2_2 O 0.6852(4) 0.5789(4) 0.6134(4)
O3_2 O 0.9830(4) 0.5261(4) 0.6331(5)
O5_2 O 0.7620(5) 0.7051(5) 0.8552(5)
O6_2 O 0.5581(4) 0.6499(5) 0.8852(4)
O7_2 O 0.2676(4) 0.7067(4) 0.8615(5)
H15 H 0.0486 0.4175 0.8610
H16 H 0.0424 0.2797 0.9911
H10_2 H 0.6595 0.0475 0.9794
H15_2 H 0.9514 0.9175 0.1390
H16_2 H 0.9576 0.7797 0.0089
loop_
_geom_bond_atom_site_label_1
_geom_bond_atom_site_label_2
_geom_bond_site_symmetry_1
_geom_bond_site_symmetry_2
Mn3 O2 1_555 1_555
Mn2 O1 1_555 1_555
C13 C14 1_555 1_555
C14 C15 1_555 1_555
C15 H9 1_555 1_555
C19 C20 1_555 1_555
O1 C1 1_555 1_555
O2 C1 1_555 1_555
O3 Mn3 1_555 1_555
O5 Mn3 1_555 1_555
O6 Mn2 1_555 1_555
O7 Mn2 1_555 1_555
O8 C19 1_555 1_555
N5 Mn2 1_555 1_555
N6 Mn3 1_555 1_555
O9 Mn2 1_555 1_555
C13 O5 1_555 1_555
C13 O6 1_555 1_555
C19 O7 1_555 1_555
C17 H11 1_555 1_555
H12 C18 1_555 1_555
C21 H13 1_555 1_555
C22 C21 1_555 1_555
H14 C22 1_555 1_555
N3 C16 1_555 1_555
N4 C22 1_555 1_555
Mn5 N4 1_555 1_555
Mn8 N3 1_555 1_555
C17 C18 1_555 1_555
C17 N3 1_555 1_555
C23 C24 1_555 1_555
C23 N4 1_555 1_555
C2 C3 1_555 1_555
C3 H1 1_555 1_555
C4 C3 1_555 1_555
H2 C4 1_555 1_555
C5 H3 1_555 1_555
C6 C2 1_555 1_555
H4 C6 1_555 1_555
C9 H5 1_555 1_555
C10 C9 1_555 1_555
H6 C10 1_555 1_555
N1 C4 1_555 1_555
Mn8 N1 1_555 1_555
C5 C6 1_555 1_555
C5 N1 1_555 1_555
O9 C7 1_555 1_555
C11 H7 1_555 1_555
C12 C8 1_555 1_555
H8 C12 1_555 1_555
Mn5 N2 1_555 1_555
C11 C12 1_555 1_555
C11 N2 1_555 1_555
C7_2 C8_2 1_555 1_555
C11_2 H7_2 1_555 1_555
C12_2 C8_2 1_555 1_555
H8_2 C12_2 1_555 1_555
O4 C7_2 1_555 1_555
Mn8 O4 1_555 1_555
C11_2 C12_2 1_555 1_555
C11_2 N6 1_555 1_555
C17_2 H11_2 1_555 1_555
H12_2 C18_2 1_555 1_555
C21_2 H13_2 1_555 1_555
C22_2 C21_2 1_555 1_555
H14_2 C22_2 1_555 1_555
N7 C16_2 1_555 1_555
N8 C22_2 1_555 1_555
C17_2 C18_2 1_555 1_555
C17_2 N7 1_555 1_555
C23_2 C24_2 1_555 1_555
C23_2 N8 1_555 1_555
Mn5 O2_2 1_555 1_555
Mn8 O1_2 1_555 1_555
C1_2 C2_2 1_555 1_555
C2_2 C3_2 1_555 1_555
C3_2 H1_2 1_555 1_555
C4_2 C3_2 1_555 1_555
H2_2 C4_2 1_555 1_555
C5_2 H3_2 1_555 1_555
C6_2 C2_2 1_555 1_555
H4_2 C6_2 1_555 1_555
C9_2 H5_2 1_555 1_555
C10_2 C9_2 1_555 1_555
H6_2 C10_2 1_555 1_555
C13_2 C14_2 1_555 1_555
C14_2 C15_2 1_555 1_555
C15_2 H9_2 1_555 1_555
C19_2 C20_2 1_555 1_555
N5 C4_2 1_555 1_555
O1_2 C1_2 1_555 1_555
O2_2 C1_2 1_555 1_555
O3_2 Mn5 1_555 1_555
O5_2 Mn5 1_555 1_555
O6_2 Mn8 1_555 1_555
O7_2 Mn8 1_555 1_555
O10 C19_2 1_555 1_555
C5_2 C6_2 1_555 1_555
C5_2 N5 1_555 1_555
C13_2 O5_2 1_555 1_555
C13_2 O6_2 1_555 1_555
C19_2 O7_2 1_555 1_555

#END
