
###############################################################################
#
# This file contains modified crystal structure data generated from the
# MOF subset of the Cambridge Structural Database (CSD) v543 
# hosted by the Cambridge Crystallographic Data Centre (CCDC).
#
# This work is licensed under the Creative Commons
# Attribution-NonCommercial-ShareAlike 4.0 International License.
# To view a copy of this license, visit
# http://creativecommons.org/licenses/by-nc-sa/4.0/
# or send a letter to
# Creative Commons, PO Box 1866, Mountain View, CA 94042, USA.
#
# CIF created using the CSD Python API on 29 September 2022
# The structure has been converted into the P1 space group
# The structure has a 3D framework
# The original CSD entry HIWXER01 is in the monoclinic crystal system
# The framework has been calculated to contain at least 10.0% void space
# The void calculation uses a probe of radius 1.32A, grid spacing 0.4
#
###############################################################################

data_HIWXER01
_chemical_formula_moiety         '(C16 N72 O10 Zn22)n'
_symmetry_cell_setting           triclinic
_symmetry_space_group_name_H-M   'P 1'
_symmetry_Int_Tables_number      1
_space_group_name_Hall           'P 1'
loop_
_symmetry_equiv_pos_site_id
_symmetry_equiv_pos_as_xyz
1 x,y,z
_cell_length_a                   16.0871(15)
_cell_length_b                   8.5505(8)
_cell_length_c                   14.2113(13)
_cell_angle_alpha                90
_cell_angle_beta                 111.194(2)
_cell_angle_gamma                90
_cell_volume                     1822.58
loop_
_atom_site_label
_atom_site_type_symbol
_atom_site_fract_x
_atom_site_fract_y
_atom_site_fract_z
Zn1 Zn 0.0000 0.12327(12) 0.2500
Zn6 Zn 0.22279(4) 0.06985(8) 0.36563(5)
Zn10 Zn 0.09514(4) 0.31452(9) 0.47128(5)
O3 O 0.1035(3) 0.1226(5) 0.3884(3)
O5 O 0.2998(3) 0.0663(5) 0.5112(3)
O6 O 0.2002(3) 0.4337(5) 0.4888(3)
N15 N 0.1116(3) 0.1976(6) 0.6001(4)
N19 N 0.0317(3) 0.3707(6) 0.1155(4)
N23 N 0.0780(3) 0.2936(6) 0.2014(4)
N26 N 0.2333(3) 0.2887(6) 0.3059(4)
N1 N 0.1571(3) 0.9364(6) 0.2415(4)
N2 N 0.0681(3) 0.9488(7) 0.1949(4)
N3 N 0.0408(3) 0.8701(7) 0.1115(4)
N4 N 0.1116(3) 0.8024(6) 0.1001(4)
N5 N 0.3330(3) 0.9497(6) 0.3439(4)
N6 N 0.4162(3) 0.9627(6) 0.4123(4)
N7 N 0.4683(3) 0.8707(6) 0.3845(4)
N8 N 0.4220(3) 0.7936(6) 0.2986(4)
N9 N 0.2667(3) 0.7887(6) 0.1941(4)
C1 C 0.1849(4) 0.8424(7) 0.1810(4)
C2 C 0.3387(4) 0.8442(7) 0.2751(4)
Zn4 Zn 0.5000 0.62327(12) 0.2500
Zn7 Zn 0.27721(4) 0.56985(8) 0.13437(5)
Zn13 Zn 0.59514(4) 0.81452(9) 0.47128(5)
Zn12 Zn 0.09514(4) 0.68548(9) 0.97128(5)
Zn1_2 Zn 1.0000 0.12327(12) 0.2500
Zn2 Zn 0.77721(4) 0.06985(8) 0.13437(5)
Zn3 Zn 0.90486(4) 0.31452(9) 0.02872(5)
O1 O 0.8965(3) 0.1226(5) 0.1116(3)
O4 O 0.7998(3) 0.4337(5) 0.0112(3)
N20 N 0.9683(3) 0.3707(6) 0.3845(4)
N22 N 0.9220(3) 0.2936(6) 0.2986(4)
N25 N 0.7667(3) 0.2887(6) 0.1941(4)
O2 O 0.7002(3) 0.0663(5) 0.9888(3)
Zn9 Zn 0.72279(4) 0.43015(8) 0.86563(5)
Zn11 Zn 0.59514(4) 0.18548(9) 0.97128(5)
N14 N 0.8884(3) 0.1976(6) 0.8999(4)
Zn8 Zn 0.72279(4) 0.56985(8) 0.36563(5)
Zn14 Zn 0.90486(4) 0.68548(9) 0.52872(5)
Zn15 Zn 0.40486(4) 0.81452(9) 0.02872(5)
N10 N 0.8429(3) 0.9364(6) 0.2585(4)
N11 N 0.9319(3) 0.9488(7) 0.3051(4)
N12 N 0.9592(3) 0.8701(7) 0.3885(4)
N13 N 0.8884(3) 0.8024(6) 0.3999(4)
N16 N 0.6670(3) 0.9497(6) 0.1561(4)
N17 N 0.5838(3) 0.9627(6) 0.0877(4)
N18 N 0.5317(3) 0.8707(6) 0.1155(4)
N21 N 0.5780(3) 0.7936(6) 0.2014(4)
N24 N 0.7333(3) 0.7887(6) 0.3059(4)
C3 C 0.8151(4) 0.8424(7) 0.3190(4)
C4 C 0.6613(4) 0.8442(7) 0.2249(4)
O1_2 O 0.3965(3) 0.6226(5) 0.1116(3)
N1_2 N 0.6571(3) 0.4364(6) 0.2415(4)
N2_2 N 0.5681(3) 0.4488(7) 0.1949(4)
N3_2 N 0.5408(3) 0.3701(7) 0.1115(4)
N4_2 N 0.6116(3) 0.3024(6) 0.1001(4)
N5_2 N 0.8330(3) 0.4497(6) 0.3439(4)
N6_2 N 0.9162(3) 0.4627(6) 0.4123(4)
C1_2 C 0.6849(4) 0.3424(7) 0.1810(4)
C2_2 C 0.8387(4) 0.3442(7) 0.2751(4)
Zn14_2 Zn 0.40486(4) 0.18548(9) 0.52872(5)
O3_2 O 0.6035(3) 0.6226(5) 0.3884(3)
O4_2 O 0.2998(3) 0.9337(5) 0.0112(3)
O5_2 O 0.7998(3) 0.5663(5) 0.5112(3)
O6_2 O 0.7002(3) 0.9337(5) 0.4888(3)
N10_2 N 0.3429(3) 0.4364(6) 0.2585(4)
N11_2 N 0.4319(3) 0.4488(7) 0.3051(4)
N12_2 N 0.4592(3) 0.3701(7) 0.3885(4)
N13_2 N 0.3884(3) 0.3024(6) 0.3999(4)
N15_2 N 0.6116(3) 0.6976(6) 0.6001(4)
N16_2 N 0.1670(3) 0.4497(6) 0.1561(4)
N17_2 N 0.0838(3) 0.4627(6) 0.0877(4)
C3_2 C 0.3151(4) 0.3424(7) 0.3190(4)
C4_2 C 0.1613(4) 0.3442(7) 0.2249(4)
O2_2 O 0.2002(3) 0.5663(5) 0.9888(3)
Zn9_2 Zn 0.22279(4) 0.93015(8) 0.86563(5)
N14_2 N 0.3884(3) 0.6976(6) 0.8999(4)
Zn9_3 Zn 0.27721(4) 0.43015(8) 0.63437(5)
Zn9_4 Zn 0.77721(4) 0.93015(8) 0.63437(5)
Zn5 Zn 0.5000 0.37673(12) 0.7500
N10_3 N 0.1571(3) 0.0636(6) 0.7415(4)
N11_3 N 0.0681(3) 0.0512(7) 0.6949(4)
N12_3 N 0.0408(3) 0.1299(7) 0.6115(4)
N16_3 N 0.3330(3) 0.0503(6) 0.8439(4)
N17_3 N 0.4162(3) 0.0373(6) 0.9123(4)
N18_2 N 0.4683(3) 0.1293(6) 0.8845(4)
N21_2 N 0.4220(3) 0.2064(6) 0.7986(4)
N24_2 N 0.2667(3) 0.2113(6) 0.6941(4)
C3_3 C 0.1849(4) 0.1576(7) 0.6810(4)
C4_3 C 0.3387(4) 0.1558(7) 0.7751(4)
Zn1_3 Zn -0.0000 0.87673(12) 0.7500
O1_3 O 0.1035(3) 0.8774(5) 0.8884(3)
N20_2 N 0.0317(3) 0.6293(6) 0.6155(4)
N22_2 N 0.0780(3) 0.7064(6) 0.7014(4)
N25_2 N 0.2333(3) 0.7113(6) 0.8059(4)
N1_3 N 0.8429(3) 0.0636(6) 0.7585(4)
N2_3 N 0.9319(3) 0.0512(7) 0.8051(4)
N3_3 N 0.9592(3) 0.1299(7) 0.8885(4)
N5_3 N 0.6670(3) 0.0503(6) 0.6561(4)
N6_3 N 0.5838(3) 0.0373(6) 0.5877(4)
N7_2 N 0.5317(3) 0.1293(6) 0.6155(4)
N8_2 N 0.5780(3) 0.2064(6) 0.7014(4)
N9_2 N 0.7333(3) 0.2113(6) 0.8059(4)
C1_3 C 0.8151(4) 0.1576(7) 0.8190(4)
C2_3 C 0.6613(4) 0.1558(7) 0.7249(4)
Zn1_4 Zn 1.0000 0.87673(12) 0.7500
O3_3 O 0.8965(3) 0.8774(5) 0.6116(3)
N19_2 N 0.9683(3) 0.6293(6) 0.8845(4)
N23_2 N 0.9220(3) 0.7064(6) 0.7986(4)
N26_2 N 0.7667(3) 0.7113(6) 0.6941(4)
O1_4 O 0.6035(3) 0.3774(5) 0.8884(3)
N1_4 N 0.3429(3) 0.5636(6) 0.7585(4)
N2_4 N 0.4319(3) 0.5512(7) 0.8051(4)
N3_4 N 0.4592(3) 0.6299(7) 0.8885(4)
N5_4 N 0.1670(3) 0.5503(6) 0.6561(4)
N6_4 N 0.0838(3) 0.5373(6) 0.5877(4)
C1_4 C 0.3151(4) 0.6576(7) 0.8190(4)
C2_4 C 0.1613(4) 0.6558(7) 0.7249(4)
O3_4 O 0.3965(3) 0.3774(5) 0.6116(3)
N10_4 N 0.6571(3) 0.5636(6) 0.7415(4)
N11_4 N 0.5681(3) 0.5512(7) 0.6949(4)
N12_4 N 0.5408(3) 0.6299(7) 0.6115(4)
N16_4 N 0.8330(3) 0.5503(6) 0.8439(4)
N17_4 N 0.9162(3) 0.5373(6) 0.9123(4)
C3_4 C 0.6849(4) 0.6576(7) 0.6810(4)
C4_4 C 0.8387(4) 0.6558(7) 0.7751(4)
loop_
_geom_bond_atom_site_label_1
_geom_bond_atom_site_label_2
_geom_bond_site_symmetry_1
_geom_bond_site_symmetry_2
Zn10 O3 1_555 1_555
O3 Zn1 1_555 1_555
O5 Zn6 1_555 1_555
O6 Zn10 1_555 1_555
N15 Zn10 1_555 1_555
N23 Zn1 1_555 1_555
N26 Zn6 1_555 1_555
Zn6 O3 1_555 1_555
N19 N23 1_555 1_555
N1 N2 1_555 1_555
N3 N2 1_555 1_555
N4 N3 1_555 1_555
N5 N6 1_555 1_555
N6 N7 1_555 1_555
N7 N8 1_555 1_555
N8 C2 1_555 1_555
N9 C1 1_555 1_555
C1 N1 1_555 1_555
C2 N5 1_555 1_555
Zn4 N8 1_555 1_555
Zn7 N9 1_555 1_555
Zn13 N7 1_555 1_555
N4 C1 1_555 1_555
N9 C2 1_555 1_555
Zn1_2 O1 1_555 1_555
Zn2 O1 1_555 1_555
Zn3 O1 1_555 1_555
O4 Zn3 1_555 1_555
N22 Zn1_2 1_555 1_555
N25 Zn2 1_555 1_555
N20 N22 1_555 1_555
Zn11 O2 1_555 1_555
Zn4 N21 1_555 1_555
Zn8 N24 1_555 1_555
Zn14 N13 1_555 1_555
Zn15 N18 1_555 1_555
N12 N11 1_555 1_555
N13 N12 1_555 1_555
N17 N16 1_555 1_555
N18 N17 1_555 1_555
N21 N18 1_555 1_555
N24 C3 1_555 1_555
C3 N10 1_555 1_555
C4 N16 1_555 1_555
N10 N11 1_555 1_555
N13 C3 1_555 1_555
N21 C4 1_555 1_555
N24 C4 1_555 1_555
Zn4 O1_2 1_555 1_555
Zn7 O1_2 1_555 1_555
Zn15 O1_2 1_555 1_555
N1_2 N2_2 1_555 1_555
N2_2 Zn4 1_555 1_555
N3_2 N2_2 1_555 1_555
N4_2 N3_2 1_555 1_555
N5_2 N6_2 1_555 1_555
N6_2 N20 1_555 1_555
N22 C2_2 1_555 1_555
N25 C1_2 1_555 1_555
C1_2 N1_2 1_555 1_555
C2_2 N5_2 1_555 1_555
Zn8 N1_2 1_555 1_555
Zn13 O3_2 1_555 1_555
Zn14_2 N13_2 1_555 1_555
O3_2 Zn4 1_555 1_555
O4_2 Zn15 1_555 1_555
O5_2 Zn8 1_555 1_555
O6_2 Zn13 1_555 1_555
N10_2 Zn7 1_555 1_555
N11_2 Zn4 1_555 1_555
N12_2 N11_2 1_555 1_555
N13_2 N12_2 1_555 1_555
N15_2 Zn13 1_555 1_555
N16_2 Zn7 1_555 1_555
N17_2 N16_2 1_555 1_555
N19 N17_2 1_555 1_555
N26 C3_2 1_555 1_555
C3_2 N10_2 1_555 1_555
C4_2 N16_2 1_555 1_555
N4_2 C1_2 1_555 1_555
N5_2 Zn8 1_555 1_555
N25 C2_2 1_555 1_555
Zn8 O3_2 1_555 1_555
N10_2 N11_2 1_555 1_555
N13_2 C3_2 1_555 1_555
N23 C4_2 1_555 1_555
N26 C4_2 1_555 1_555
Zn12 O2_2 1_555 1_555
Zn9_3 O6 1_555 1_555
Zn14_2 O5 1_555 1_555
Zn9_4 O6_2 1_555 1_555
Zn14 O5_2 1_555 1_555
Zn5 N21_2 1_555 1_555
Zn9_3 N24_2 1_555 1_555
Zn11 N18_2 1_555 1_555
N12_3 N11_3 1_555 1_555
N15 N12_3 1_555 1_555
N17_3 N16_3 1_555 1_555
N18_2 N17_3 1_555 1_555
N21_2 N18_2 1_555 1_555
N24_2 C3_3 1_555 1_555
C3_3 N10_3 1_555 1_555
C4_3 N16_3 1_555 1_555
N10_3 N11_3 1_555 1_555
N15 C3_3 1_555 1_555
N21_2 C4_3 1_555 1_555
N24_2 C4_3 1_555 1_555
Zn1_3 O1_3 1_555 1_555
Zn9_2 O1_3 1_555 1_555
Zn12 O1_3 1_555 1_555
N22_2 Zn1_3 1_555 1_555
N25_2 Zn9_2 1_555 1_555
N20_2 N22_2 1_555 1_555
N1_3 N2_3 1_555 1_555
N3_3 N2_3 1_555 1_555
N14 N3_3 1_555 1_555
N5_3 N6_3 1_555 1_555
N6_3 N7_2 1_555 1_555
N7_2 N8_2 1_555 1_555
N8_2 C2_3 1_555 1_555
N9_2 C1_3 1_555 1_555
C1_3 N1_3 1_555 1_555
C2_3 N5_3 1_555 1_555
Zn5 N8_2 1_555 1_555
Zn9 N9_2 1_555 1_555
Zn14_2 N7_2 1_555 1_555
N14 C1_3 1_555 1_555
N9_2 C2_3 1_555 1_555
Zn14 O3_3 1_555 1_555
O3_3 Zn1_4 1_555 1_555
N23_2 Zn1_4 1_555 1_555
N26_2 Zn9_4 1_555 1_555
Zn9_4 O3_3 1_555 1_555
N19_2 N23_2 1_555 1_555
Zn5 O1_4 1_555 1_555
Zn9 O1_4 1_555 1_555
Zn11 O1_4 1_555 1_555
N1_4 N2_4 1_555 1_555
N2_4 Zn5 1_555 1_555
N3_4 N2_4 1_555 1_555
N14_2 N3_4 1_555 1_555
N5_4 N6_4 1_555 1_555
N6_4 N20_2 1_555 1_555
N22_2 C2_4 1_555 1_555
N25_2 C1_4 1_555 1_555
C1_4 N1_4 1_555 1_555
C2_4 N5_4 1_555 1_555
Zn9_3 N1_4 1_555 1_555
Zn14_2 O3_4 1_555 1_555
O3_4 Zn5 1_555 1_555
N10_4 Zn9 1_555 1_555
N11_4 Zn5 1_555 1_555
N12_4 N11_4 1_555 1_555
N15_2 N12_4 1_555 1_555
N16_4 Zn9 1_555 1_555
N17_4 N16_4 1_555 1_555
N19_2 N17_4 1_555 1_555
N26_2 C3_4 1_555 1_555
C3_4 N10_4 1_555 1_555
C4_4 N16_4 1_555 1_555
N14_2 C1_4 1_555 1_555
N5_4 Zn9_3 1_555 1_555
N25_2 C2_4 1_555 1_555
Zn9_3 O3_4 1_555 1_555
N10_4 N11_4 1_555 1_555
N15_2 C3_4 1_555 1_555
N23_2 C4_4 1_555 1_555
N26_2 C4_4 1_555 1_555

#END
