
###############################################################################
#
# This file contains modified crystal structure data generated from the
# MOF subset of the Cambridge Structural Database (CSD) v543 
# hosted by the Cambridge Crystallographic Data Centre (CCDC).
#
# This work is licensed under the Creative Commons
# Attribution-NonCommercial-ShareAlike 4.0 International License.
# To view a copy of this license, visit
# http://creativecommons.org/licenses/by-nc-sa/4.0/
# or send a letter to
# Creative Commons, PO Box 1866, Mountain View, CA 94042, USA.
#
# CIF created using the CSD Python API on 29 September 2022
# The structure has been converted into the P1 space group
# The structure has a 3D framework
# The original CSD entry HIWXER is in the monoclinic crystal system
# The framework has been calculated to contain at least 10.0% void space
# The void calculation uses a probe of radius 1.32A, grid spacing 0.4
# H atom positions have been added when not included in the experimental data
# Generated hydrogen atom positions removed from atoms on special positions
#
###############################################################################

data_HIWXER
_chemical_formula_moiety         '(C16 H24 N72 O12 Zn22)n'
_symmetry_cell_setting           triclinic
_symmetry_space_group_name_H-M   'P 1'
_symmetry_Int_Tables_number      1
_space_group_name_Hall           'P 1'
loop_
_symmetry_equiv_pos_site_id
_symmetry_equiv_pos_as_xyz
1 x,y,z
_cell_length_a                   16.139(2)
_cell_length_b                   8.4411(11)
_cell_length_c                   14.2879(18)
_cell_angle_alpha                90
_cell_angle_beta                 111.498(2)
_cell_angle_gamma                90
_cell_volume                     1811.04
loop_
_atom_site_label
_atom_site_type_symbol
_atom_site_fract_x
_atom_site_fract_y
_atom_site_fract_z
Zn1 Zn 0.222674(18) 0.06722(3) 0.36668(2)
Zn2 Zn 0.095317(18) 0.31535(4) 0.47074(2)
Zn3 Zn 0.0000 0.12220(5) 0.2500
O1 O 0.10395(11) 0.1215(2) 0.38769(13)
H1 H 0.096(3) 0.050(3) 0.422(3)
O2 O 0.30012(12) 0.0619(2) 0.51115(14)
Zn7 Zn 0.277326(18) 0.43278(3) 0.63332(2)
Zn9 Zn 0.404683(18) 0.18465(4) 0.52926(2)
O4 O 0.19988(12) 0.4381(2) 0.48885(14)
N11 N 0.23213(13) 0.2905(2) 0.30715(16)
N17 N 0.11279(14) 0.1960(2) 0.59895(16)
N23 N 0.03121(13) 0.3713(3) 0.11534(16)
N26 N 0.07766(13) 0.2952(2) 0.20223(16)
N1 N 0.26787(13) 0.7905(2) 0.19285(16)
N2 N 0.15784(13) 0.9342(3) 0.24139(16)
N3 N 0.06832(14) 0.9473(3) 0.19496(17)
N4 N 0.04145(14) 0.8703(3) 0.11084(17)
N5 N 0.11279(14) 0.8040(2) 0.09895(16)
N6 N 0.33374(14) 0.9490(3) 0.34434(17)
N7 N 0.41682(14) 0.9619(3) 0.41228(16)
N8 N 0.46879(13) 0.8713(3) 0.38466(16)
N9 N 0.42234(13) 0.7952(2) 0.29777(16)
C1 C 0.18449(16) 0.8432(3) 0.18043(19)
C2 C 0.33757(16) 0.8440(3) 0.27469(18)
Zn5 Zn 0.277326(18) 0.56722(3) 0.13332(2)
Zn11 Zn 0.595317(18) 0.81535(4) 0.47074(2)
Zn14 Zn 0.5000 0.62220(5) 0.2500
Zn10 Zn 0.095317(18) 0.68465(4) 0.97074(2)
Zn3_2 Zn 1.0000 0.12220(5) 0.2500
Zn4 Zn 0.777326(18) 0.06722(3) 0.13332(2)
Zn8 Zn 0.904683(18) 0.31535(4) 0.02926(2)
O3 O 0.89605(11) 0.1215(2) 0.11231(13)
H3 H 0.904(3) 0.050(3) 0.078(3)
O6 O 0.80012(12) 0.4381(2) 0.01115(14)
H6 H 0.778(2) 0.407(4) 0.050(2)
N12 N 0.76787(13) 0.2905(2) 0.19285(16)
N22 N 0.96879(13) 0.3713(3) 0.38466(16)
N25 N 0.92234(13) 0.2952(2) 0.29777(16)
O5 O 0.69988(12) 0.0619(2) 0.98885(14)
H5 H 0.722(2) 0.093(4) 0.950(2)
N18 N 0.88721(14) 0.1960(2) 0.90105(16)
H7 H 0.646843 0.128607 0.979935
H8 H 0.757021 0.425716 0.941108
Zn6 Zn 0.722674(18) 0.56722(3) 0.36668(2)
Zn12 Zn 0.904683(18) 0.68465(4) 0.52926(2)
Zn13 Zn 0.404683(18) 0.81535(4) 0.02926(2)
N10 N 0.73213(13) 0.7905(2) 0.30715(16)
N13 N 0.84216(13) 0.9342(3) 0.25861(16)
N14 N 0.93168(14) 0.9473(3) 0.30504(17)
N15 N 0.95855(14) 0.8703(3) 0.38916(17)
N16 N 0.88721(14) 0.8040(2) 0.40105(16)
N19 N 0.66626(14) 0.9490(3) 0.15566(17)
N20 N 0.58318(14) 0.9619(3) 0.08772(16)
N21 N 0.53121(13) 0.8713(3) 0.11534(16)
N24 N 0.57766(13) 0.7952(2) 0.20223(16)
C3 C 0.81551(16) 0.8432(3) 0.31957(19)
C4 C 0.66243(16) 0.8440(3) 0.22531(18)
O1_2 O 0.60395(11) 0.6215(2) 0.38769(13)
H1_2 H 0.596(3) 0.550(3) 0.422(3)
O2_2 O 0.80012(12) 0.5619(2) 0.51115(14)
N2_2 N 0.65784(13) 0.4342(3) 0.24139(16)
N3_2 N 0.56832(14) 0.4473(3) 0.19496(17)
N4_2 N 0.54145(14) 0.3703(3) 0.11084(17)
N5_2 N 0.61279(14) 0.3040(2) 0.09895(16)
N6_2 N 0.83374(14) 0.4490(3) 0.34434(17)
N7_2 N 0.91682(14) 0.4619(3) 0.41228(16)
C1_2 C 0.68449(16) 0.3432(3) 0.18043(19)
C2_2 C 0.83757(16) 0.3440(3) 0.27469(18)
Zn7_2 Zn 0.777326(18) 0.93278(3) 0.63332(2)
O3_2 O 0.39605(11) 0.6215(2) 0.11231(13)
H3_2 H 0.404(3) 0.550(3) 0.078(3)
O4_2 O 0.69988(12) 0.9381(2) 0.48885(14)
O6_2 O 0.30012(12) 0.9381(2) 0.01115(14)
H6_2 H 0.278(2) 0.907(4) 0.050(2)
N13_2 N 0.34216(13) 0.4342(3) 0.25861(16)
N14_2 N 0.43168(14) 0.4473(3) 0.30504(17)
N15_2 N 0.45855(14) 0.3703(3) 0.38916(17)
N16_2 N 0.38721(14) 0.3040(2) 0.40105(16)
N17_2 N 0.61279(14) 0.6960(2) 0.59895(16)
N19_2 N 0.16626(14) 0.4490(3) 0.15566(17)
N20_2 N 0.08318(14) 0.4619(3) 0.08772(16)
C3_2 C 0.31551(16) 0.3432(3) 0.31957(19)
C4_2 C 0.16243(16) 0.3440(3) 0.22531(18)
Zn10_2 Zn 0.595317(18) 0.18465(4) 0.97074(2)
O5_2 O 0.19988(12) 0.5619(2) 0.98885(14)
H5_2 H 0.222(2) 0.593(4) 0.950(2)
N18_2 N 0.38721(14) 0.6960(2) 0.90105(16)
H7_2 H 0.146843 0.628607 0.979935
H8_2 H 0.257021 0.925716 0.941108
Zn7_3 Zn 0.722674(18) 0.43278(3) 0.86668(2)
Zn7_4 Zn 0.222674(18) 0.93278(3) 0.86668(2)
Zn15 Zn 0.5000 0.37780(5) 0.7500
N10_2 N 0.26787(13) 0.2095(2) 0.69285(16)
N13_3 N 0.15784(13) 0.0658(3) 0.74139(16)
N14_3 N 0.06832(14) 0.0527(3) 0.69496(17)
N15_3 N 0.04145(14) 0.1297(3) 0.61084(17)
N19_3 N 0.33374(14) 0.0510(3) 0.84434(17)
N20_3 N 0.41682(14) 0.0381(3) 0.91228(16)
N21_2 N 0.46879(13) 0.1287(3) 0.88466(16)
N24_2 N 0.42234(13) 0.2048(2) 0.79777(16)
C3_3 C 0.18449(16) 0.1568(3) 0.68043(19)
C4_3 C 0.33757(16) 0.1560(3) 0.77469(18)
H7_3 H 0.353157 0.871393 0.020065
H8_3 H 0.242979 0.574284 0.0588916
Zn3_3 Zn 0.0000 0.87780(5) 0.7500
O3_3 O 0.10395(11) 0.8785(2) 0.88769(13)
H3_3 H 0.096(3) 0.950(3) 0.922(3)
N12_2 N 0.23213(13) 0.7095(2) 0.80715(16)
N22_2 N 0.03121(13) 0.6287(3) 0.61534(16)
N25_2 N 0.07766(13) 0.7048(2) 0.70223(16)
N1_2 N 0.73213(13) 0.2095(2) 0.80715(16)
N2_3 N 0.84216(13) 0.0658(3) 0.75861(16)
N3_3 N 0.93168(14) 0.0527(3) 0.80504(17)
N4_3 N 0.95855(14) 0.1297(3) 0.88916(17)
N6_3 N 0.66626(14) 0.0510(3) 0.65566(17)
N7_3 N 0.58318(14) 0.0381(3) 0.58772(16)
N8_2 N 0.53121(13) 0.1287(3) 0.61534(16)
N9_2 N 0.57766(13) 0.2048(2) 0.70223(16)
C1_3 C 0.81551(16) 0.1568(3) 0.81957(19)
C2_3 C 0.66243(16) 0.1560(3) 0.72531(18)
Zn3_4 Zn 1.0000 0.87780(5) 0.7500
O1_3 O 0.89605(11) 0.8785(2) 0.61231(13)
H1_3 H 0.904(3) 0.950(3) 0.578(3)
N11_2 N 0.76787(13) 0.7095(2) 0.69285(16)
N23_2 N 0.96879(13) 0.6287(3) 0.88466(16)
N26_2 N 0.92234(13) 0.7048(2) 0.79777(16)
H7_4 H 0.853157 0.371393 0.020065
H8_4 H 0.742979 0.0742837 0.0588916
O1_4 O 0.39605(11) 0.3785(2) 0.61231(13)
H1_4 H 0.404(3) 0.450(3) 0.578(3)
N2_4 N 0.34216(13) 0.5658(3) 0.75861(16)
N3_4 N 0.43168(14) 0.5527(3) 0.80504(17)
N4_4 N 0.45855(14) 0.6297(3) 0.88916(17)
N6_4 N 0.16626(14) 0.5510(3) 0.65566(17)
N7_4 N 0.08318(14) 0.5381(3) 0.58772(16)
C1_4 C 0.31551(16) 0.6568(3) 0.81957(19)
C2_4 C 0.16243(16) 0.6560(3) 0.72531(18)
O3_4 O 0.60395(11) 0.3785(2) 0.88769(13)
H3_4 H 0.596(3) 0.450(3) 0.922(3)
N13_4 N 0.65784(13) 0.5658(3) 0.74139(16)
N14_4 N 0.56832(14) 0.5527(3) 0.69496(17)
N15_4 N 0.54145(14) 0.6297(3) 0.61084(17)
N19_4 N 0.83374(14) 0.5510(3) 0.84434(17)
N20_4 N 0.91682(14) 0.5381(3) 0.91228(16)
C3_4 C 0.68449(16) 0.6568(3) 0.68043(19)
C4_4 C 0.83757(16) 0.6560(3) 0.77469(18)
loop_
_geom_bond_atom_site_label_1
_geom_bond_atom_site_label_2
_geom_bond_site_symmetry_1
_geom_bond_site_symmetry_2
Zn1 O1 1_555 1_555
Zn2 O1 1_555 1_555
Zn3 O1 1_555 1_555
O1 H1 1_555 1_555
O2 Zn1 1_555 1_555
Zn7 O4 1_555 1_555
Zn9 O2 1_555 1_555
O4 Zn2 1_555 1_555
N11 Zn1 1_555 1_555
N17 Zn2 1_555 1_555
N26 Zn3 1_555 1_555
N23 N26 1_555 1_555
N1 C1 1_555 1_555
N4 N3 1_555 1_555
N5 N4 1_555 1_555
N7 N6 1_555 1_555
N8 N7 1_555 1_555
N9 N8 1_555 1_555
C1 N2 1_555 1_555
C2 N1 1_555 1_555
Zn5 N1 1_555 1_555
Zn11 N8 1_555 1_555
Zn14 N9 1_555 1_555
N2 N3 1_555 1_555
N5 C1 1_555 1_555
N6 C2 1_555 1_555
N9 C2 1_555 1_555
Zn4 O3 1_555 1_555
Zn8 O3 1_555 1_555
O3 Zn3_2 1_555 1_555
H3 O3 1_555 1_555
O6 Zn8 1_555 1_555
H6 O6 1_555 1_555
N12 Zn4 1_555 1_555
N25 Zn3_2 1_555 1_555
N22 N25 1_555 1_555
H5 O5 1_555 1_555
O5 H7 1_555 1_555
Zn6 N10 1_555 1_555
Zn12 N16 1_555 1_555
Zn13 N21 1_555 1_555
Zn14 N24 1_555 1_555
N10 C3 1_555 1_555
N15 N14 1_555 1_555
N16 N15 1_555 1_555
N20 N19 1_555 1_555
N21 N20 1_555 1_555
N24 N21 1_555 1_555
C3 N13 1_555 1_555
C4 N10 1_555 1_555
N13 N14 1_555 1_555
N16 C3 1_555 1_555
N19 C4 1_555 1_555
N24 C4 1_555 1_555
Zn6 O1_2 1_555 1_555
Zn11 O1_2 1_555 1_555
Zn14 O1_2 1_555 1_555
O1_2 H1_2 1_555 1_555
O2_2 Zn6 1_555 1_555
N12 C1_2 1_555 1_555
N2_2 Zn6 1_555 1_555
N3_2 Zn14 1_555 1_555
N4_2 N3_2 1_555 1_555
N5_2 N4_2 1_555 1_555
N6_2 Zn6 1_555 1_555
N7_2 N6_2 1_555 1_555
N22 N7_2 1_555 1_555
C1_2 N2_2 1_555 1_555
C2_2 N12 1_555 1_555
Zn5 O3_2 1_555 1_555
Zn7_2 O4_2 1_555 1_555
Zn13 O3_2 1_555 1_555
Zn12 O2_2 1_555 1_555
Zn9 N16_2 1_555 1_555
O3_2 Zn14 1_555 1_555
H3_2 O3_2 1_555 1_555
O4_2 Zn11 1_555 1_555
O6_2 Zn13 1_555 1_555
H6_2 O6_2 1_555 1_555
N11 C3_2 1_555 1_555
N13_2 Zn5 1_555 1_555
N14_2 Zn14 1_555 1_555
N15_2 N14_2 1_555 1_555
N16_2 N15_2 1_555 1_555
N17_2 Zn11 1_555 1_555
N19_2 Zn5 1_555 1_555
N20_2 N19_2 1_555 1_555
N23 N20_2 1_555 1_555
C3_2 N13_2 1_555 1_555
C4_2 N11 1_555 1_555
N2_2 N3_2 1_555 1_555
N5_2 C1_2 1_555 1_555
N6_2 C2_2 1_555 1_555
N25 C2_2 1_555 1_555
N13_2 N14_2 1_555 1_555
N16_2 C3_2 1_555 1_555
N19_2 C4_2 1_555 1_555
N26 C4_2 1_555 1_555
H5_2 O5_2 1_555 1_555
O5_2 H7_2 1_555 1_555
Zn10_2 O5 1_555 1_555
Zn10 O5_2 1_555 1_555
Zn7 N10_2 1_555 1_555
Zn10_2 N21_2 1_555 1_555
Zn15 N24_2 1_555 1_555
N10_2 C3_3 1_555 1_555
N15_3 N14_3 1_555 1_555
N17 N15_3 1_555 1_555
N20_3 N19_3 1_555 1_555
N21_2 N20_3 1_555 1_555
N24_2 N21_2 1_555 1_555
C3_3 N13_3 1_555 1_555
C4_3 N10_2 1_555 1_555
N13_3 N14_3 1_555 1_555
N17 C3_3 1_555 1_555
N19_3 C4_3 1_555 1_555
N24_2 C4_3 1_555 1_555
O6_2 H7_3 1_555 1_555
Zn7_4 O3_3 1_555 1_555
Zn10 O3_3 1_555 1_555
O3_3 Zn3_3 1_555 1_555
H3_3 O3_3 1_555 1_555
N12_2 Zn7_4 1_555 1_555
N25_2 Zn3_3 1_555 1_555
N22_2 N25_2 1_555 1_555
N1_2 C1_3 1_555 1_555
N4_3 N3_3 1_555 1_555
N18 N4_3 1_555 1_555
N7_3 N6_3 1_555 1_555
N8_2 N7_3 1_555 1_555
N9_2 N8_2 1_555 1_555
C1_3 N2_3 1_555 1_555
C2_3 N1_2 1_555 1_555
Zn7_3 N1_2 1_555 1_555
Zn9 N8_2 1_555 1_555
Zn15 N9_2 1_555 1_555
N2_3 N3_3 1_555 1_555
N18 C1_3 1_555 1_555
N6_3 C2_3 1_555 1_555
N9_2 C2_3 1_555 1_555
Zn7_2 O1_3 1_555 1_555
Zn12 O1_3 1_555 1_555
Zn3_4 O1_3 1_555 1_555
O1_3 H1_3 1_555 1_555
N11_2 Zn7_2 1_555 1_555
N26_2 Zn3_4 1_555 1_555
N23_2 N26_2 1_555 1_555
O6 H7_4 1_555 1_555
Zn7 O1_4 1_555 1_555
Zn9 O1_4 1_555 1_555
Zn15 O1_4 1_555 1_555
O1_4 H1_4 1_555 1_555
N12_2 C1_4 1_555 1_555
N2_4 Zn7 1_555 1_555
N3_4 Zn15 1_555 1_555
N4_4 N3_4 1_555 1_555
N18_2 N4_4 1_555 1_555
N6_4 Zn7 1_555 1_555
N7_4 N6_4 1_555 1_555
N22_2 N7_4 1_555 1_555
C1_4 N2_4 1_555 1_555
C2_4 N12_2 1_555 1_555
Zn7_3 O3_4 1_555 1_555
Zn10_2 O3_4 1_555 1_555
O3_4 Zn15 1_555 1_555
H3_4 O3_4 1_555 1_555
N11_2 C3_4 1_555 1_555
N13_4 Zn7_3 1_555 1_555
N14_4 Zn15 1_555 1_555
N15_4 N14_4 1_555 1_555
N17_2 N15_4 1_555 1_555
N19_4 Zn7_3 1_555 1_555
N20_4 N19_4 1_555 1_555
N23_2 N20_4 1_555 1_555
C3_4 N13_4 1_555 1_555
C4_4 N11_2 1_555 1_555
N2_4 N3_4 1_555 1_555
N18_2 C1_4 1_555 1_555
N6_4 C2_4 1_555 1_555
N25_2 C2_4 1_555 1_555
N13_4 N14_4 1_555 1_555
N17_2 C3_4 1_555 1_555
N19_4 C4_4 1_555 1_555
N26_2 C4_4 1_555 1_555

#END
