
###############################################################################
#
# This file contains modified crystal structure data generated from the
# MOF subset of the Cambridge Structural Database (CSD) v543 
# hosted by the Cambridge Crystallographic Data Centre (CCDC).
#
# This work is licensed under the Creative Commons
# Attribution-NonCommercial-ShareAlike 4.0 International License.
# To view a copy of this license, visit
# http://creativecommons.org/licenses/by-nc-sa/4.0/
# or send a letter to
# Creative Commons, PO Box 1866, Mountain View, CA 94042, USA.
#
# CIF created using the CSD Python API on 29 September 2022
# The structure has been converted into the P1 space group
# The structure has a 3D framework
# The original CSD entry HIXXAQ is in the monoclinic crystal system
# The framework has been calculated to contain at least 10.0% void space
# The void calculation uses a probe of radius 1.32A, grid spacing 0.4
# H atom positions have been added when not included in the experimental data
#
###############################################################################

data_HIXXAQ
_chemical_formula_moiety         '(C104 H64 Cd2 N24 O16)n'
_symmetry_cell_setting           triclinic
_symmetry_space_group_name_H-M   'P 1'
_symmetry_Int_Tables_number      1
_space_group_name_Hall           'P 1'
loop_
_symmetry_equiv_pos_site_id
_symmetry_equiv_pos_as_xyz
1 x,y,z
_cell_length_a                   8.70955(15)
_cell_length_b                   23.1334(4)
_cell_length_c                   17.9071(3)
_cell_angle_alpha                90
_cell_angle_beta                 97.1938(16)
_cell_angle_gamma                90
_cell_volume                     3579.55
loop_
_atom_site_label
_atom_site_type_symbol
_atom_site_fract_x
_atom_site_fract_y
_atom_site_fract_z
Cd3 Cd 0.17512(5) 0.947321(16) 0.01431(2)
N1 N 0.0480(8) 0.8790(3) 0.9338(4)
C12 C 0.1236(9) 0.8611(3) 0.8770(4)
H6 H 0.2106 0.8814 0.8664
C13 C 0.0744(10) 0.8126(3) 0.8332(5)
H7 H 0.1303 0.8001 0.7952
Cd4 Cd 0.17512(5) 0.552679(16) 0.51431(2)
O5 O 0.0643(6) 0.4629(2) 0.4434(3)
Cd1 Cd 0.82488(5) 0.447321(16) 0.48569(2)
O1 O 0.9357(6) 0.5371(2) 0.5566(3)
O2 O 0.7250(6) 0.4920(2) 0.5846(3)
O3 O 0.2388(6) 0.8747(2) 0.1083(3)
O4 O 0.3858(6) 0.8828(2) 0.0172(3)
N2 N 0.9720(8) 0.7093(3) 0.7505(4)
N3 N 0.7536(8) 0.7049(3) 0.8068(4)
N4 N 0.7155(7) 0.5136(3) 0.3987(3)
N5 N 0.4709(8) 0.6877(3) 0.2469(3)
N6 N 0.6687(15) 0.6603(5) 0.1857(6)
C1 C 0.8204(8) 0.5334(3) 0.5941(4)
C2 C 0.7986(9) 0.5788(3) 0.6508(4)
C3 C 0.6608(9) 0.5772(3) 0.6860(4)
H1 H 0.5890 0.5479 0.6734
C4 C 0.6319(10) 0.6177(4) 0.7378(5)
H2 H 0.5400 0.6176 0.7593
C5 C 0.7457(10) 0.6591(4) 0.7574(5)
C6 C 0.8818(9) 0.6619(3) 0.7233(5)
C7 C 0.9076(9) 0.6207(3) 0.6685(4)
H3 H 0.9967 0.6220 0.6448
C8 C 0.8896(10) 0.7333(3) 0.8004(5)
C9 C 0.9421(9) 0.7836(3) 0.8471(5)
C10 C 0.8625(9) 0.8024(4) 0.9052(5)
H4 H 0.7733 0.7836 0.9157
C11 C 0.9203(9) 0.8505(3) 0.9477(4)
H5 H 0.8681 0.8630 0.9869
C14 C 0.3480(9) 0.8576(3) 0.0746(4)
C15 C 0.4338(10) 0.8034(3) 0.1022(4)
C16 C 0.5588(16) 0.7862(5) 0.0643(6)
H8 H 0.5822 0.8078 0.0234
C17 C 0.647(2) 0.7386(6) 0.0861(7)
H9 H 0.7270 0.7264 0.0601
C18 C 0.6087(15) 0.7093(5) 0.1502(5)
C19 C 0.4843(10) 0.7250(3) 0.1876(4)
C20 C 0.3966(9) 0.7742(3) 0.1641(4)
H10 H 0.3160 0.7865 0.1897
C21 C 0.5855(11) 0.6498(4) 0.2436(5)
C22 C 0.6270(9) 0.6021(3) 0.2953(4)
C23 C 0.7268(15) 0.5573(3) 0.2791(5)
H11 H 0.7628 0.5555 0.2324
C24 C 0.7704(11) 0.5164(3) 0.3323(4)
H12 H 0.8425 0.4889 0.3218
C25 C 0.6134(9) 0.5545(3) 0.4134(5)
H13 H 0.5731 0.5528 0.4590
C26 C 0.5654(9) 0.5986(3) 0.3644(4)
H14 H 0.4936 0.6256 0.3767
O6 O 0.7612(6) 0.3747(2) 0.3917(3)
O7 O 0.6142(6) 0.3828(2) 0.4828(3)
N7 N 0.9520(8) 0.3790(3) 0.5662(4)
H15 H 0.674091 0.715602 0.841323
H16 H 0.758306 0.636384 0.171445
N4_2 N 0.2845(7) 0.0136(3) 0.1013(3)
N5_2 N 0.5291(8) 0.1877(3) 0.2531(3)
N6_2 N 0.3313(15) 0.1603(5) 0.3143(6)
C14_2 C 0.6520(9) 0.3576(3) 0.4254(4)
C15_2 C 0.5662(10) 0.3034(3) 0.3978(4)
C16_2 C 0.4412(16) 0.2862(5) 0.4357(6)
H8_2 H 0.4178 0.3078 0.4766
C17_2 C 0.353(2) 0.2386(6) 0.4139(7)
H9_2 H 0.2730 0.2264 0.4399
C18_2 C 0.3913(15) 0.2093(5) 0.3498(5)
C19_2 C 0.5157(10) 0.2250(3) 0.3124(4)
C20_2 C 0.6034(9) 0.2742(3) 0.3359(4)
H10_2 H 0.6840 0.2865 0.3103
C21_2 C 0.4145(11) 0.1498(4) 0.2564(5)
C22_2 C 0.3730(9) 0.1021(3) 0.2047(4)
C23_2 C 0.2732(15) 0.0573(3) 0.2209(5)
H11_2 H 0.2372 0.0555 0.2676
C24_2 C 0.2296(11) 0.0164(3) 0.1677(4)
C25_2 C 0.3866(9) 0.0545(3) 0.0866(5)
H13_2 H 0.4269 0.0528 0.0410
C26_2 C 0.4346(9) 0.0986(3) 0.1356(4)
H14_2 H 0.5064 0.1256 0.1233
H16_2 H 0.241694 0.136384 0.328555
H12_2 H 0.1575 0.9889 0.1782
O2_2 O 0.2750(6) 0.9920(2) 0.9154(3)
C12_2 C 0.8764(9) 0.3611(3) 0.6230(4)
H6_2 H 0.7894 0.3814 0.6336
C13_2 C 0.9256(10) 0.3126(3) 0.6668(5)
H7_2 H 0.8697 0.3001 0.7048
Cd4_2 Cd 0.82488(5) 0.052679(16) 0.98569(2)
O2_3 O 0.2750(6) 0.5080(2) 0.4154(3)
O3_2 O 0.7612(6) 0.1253(2) 0.8917(3)
O4_2 O 0.6142(6) 0.1172(2) 0.9828(3)
N2_2 N 0.0280(8) 0.2907(3) 0.2495(4)
N3_2 N 0.2464(8) 0.2951(3) 0.1932(4)
N4_3 N 0.2845(7) 0.4864(3) 0.6013(3)
N5_3 N 0.5291(8) 0.3123(3) 0.7531(3)
N6_3 N 0.3313(15) 0.3397(5) 0.8143(6)
C1_2 C 0.1796(8) 0.4666(3) 0.4059(4)
C2_2 C 0.2014(9) 0.4212(3) 0.3492(4)
C3_2 C 0.3392(9) 0.4228(3) 0.3140(4)
H1_2 H 0.4110 0.4521 0.3266
C4_2 C 0.3681(10) 0.3823(4) 0.2622(5)
H2_2 H 0.4600 0.3824 0.2407
C5_2 C 0.2543(10) 0.3409(4) 0.2426(5)
C6_2 C 0.1182(9) 0.3381(3) 0.2767(5)
C7_2 C 0.0924(9) 0.3793(3) 0.3315(4)
H3_2 H 0.0033 0.3780 0.3552
C8_2 C 0.1104(10) 0.2667(3) 0.1996(5)
C9_2 C 0.0579(9) 0.2164(3) 0.1529(5)
C10_2 C 0.1375(9) 0.1976(4) 0.0948(5)
H4_2 H 0.2267 0.2164 0.0843
C11_2 C 0.0797(9) 0.1495(3) 0.0523(4)
H5_2 H 0.1319 0.1370 0.0131
C14_3 C 0.6520(9) 0.1424(3) 0.9254(4)
C15_3 C 0.5662(10) 0.1966(3) 0.8978(4)
C16_3 C 0.4412(16) 0.2138(5) 0.9357(6)
H8_3 H 0.4178 0.1922 0.9766
C17_3 C 0.353(2) 0.2614(6) 0.9139(7)
H9_3 H 0.2730 0.2736 0.9399
C18_3 C 0.3913(15) 0.2907(5) 0.8498(5)
C19_3 C 0.5157(10) 0.2750(3) 0.8124(4)
C20_3 C 0.6034(9) 0.2258(3) 0.8359(4)
H10_3 H 0.6840 0.2135 0.8103
C21_3 C 0.4145(11) 0.3502(4) 0.7564(5)
C22_3 C 0.3730(9) 0.3979(3) 0.7047(4)
C23_3 C 0.2732(15) 0.4427(3) 0.7209(5)
H11_3 H 0.2372 0.4445 0.7676
C24_3 C 0.2296(11) 0.4836(3) 0.6677(4)
H12_3 H 0.1575 0.5111 0.6782
C25_3 C 0.3866(9) 0.4455(3) 0.5866(5)
H13_3 H 0.4269 0.4472 0.5410
C26_3 C 0.4346(9) 0.4014(3) 0.6356(4)
H14_3 H 0.5064 0.3744 0.6233
O6_2 O 0.2388(6) 0.6253(2) 0.6083(3)
O7_2 O 0.3858(6) 0.6172(2) 0.5172(3)
N7_2 N 0.0480(8) 0.6210(3) 0.4338(4)
H15_2 H 0.325909 0.284398 0.158677
H16_3 H 0.241694 0.363616 0.828555
N1_2 N 0.9520(8) 0.1210(3) 0.0662(4)
C12_3 C 0.8764(9) 0.1389(3) 0.1230(4)
H6_3 H 0.7894 0.1186 0.1336
C13_3 C 0.9256(10) 0.1874(3) 0.1668(5)
H7_3 H 0.8697 0.1999 0.2048
C12_4 C 0.1236(9) 0.6389(3) 0.3770(4)
H6_4 H 0.2106 0.6186 0.3664
C13_4 C 0.0744(10) 0.6874(3) 0.3332(5)
H7_4 H 0.1303 0.6999 0.2952
O2_4 O 0.7250(6) 0.0080(2) 0.0846(3)
H12_4 H 0.8425 0.0111 0.8218
N4_4 N 0.7155(7) 0.9864(3) 0.8987(3)
N5_4 N 0.4709(8) 0.8123(3) 0.7469(3)
N6_4 N 0.6687(15) 0.8397(5) 0.6857(6)
C14_4 C 0.3480(9) 0.6424(3) 0.5746(4)
C15_4 C 0.4338(10) 0.6966(3) 0.6022(4)
C16_4 C 0.5588(16) 0.7138(5) 0.5643(6)
H8_4 H 0.5822 0.6922 0.5234
C17_4 C 0.647(2) 0.7614(6) 0.5861(7)
H9_4 H 0.7270 0.7736 0.5601
C18_4 C 0.6087(15) 0.7907(5) 0.6502(5)
C19_4 C 0.4843(10) 0.7750(3) 0.6876(4)
C20_4 C 0.3966(9) 0.7258(3) 0.6641(4)
H10_4 H 0.3160 0.7135 0.6897
C21_4 C 0.5855(11) 0.8502(4) 0.7436(5)
C22_4 C 0.6270(9) 0.8979(3) 0.7953(4)
C23_4 C 0.7268(15) 0.9427(3) 0.7791(5)
H11_4 H 0.7628 0.9445 0.7324
C24_4 C 0.7704(11) 0.9836(3) 0.8323(4)
C25_4 C 0.6134(9) 0.9455(3) 0.9134(5)
H13_4 H 0.5731 0.9472 0.9590
C26_4 C 0.5654(9) 0.9014(3) 0.8644(4)
H14_4 H 0.4936 0.8744 0.8767
H16_4 H 0.758306 0.863616 0.671445
O1_2 O 0.0643(6) 0.0371(2) 0.9434(3)
N2_3 N 0.0280(8) 0.2093(3) 0.7495(4)
N3_3 N 0.2464(8) 0.2049(3) 0.6932(4)
C1_3 C 0.1796(8) 0.0334(3) 0.9059(4)
C2_3 C 0.2014(9) 0.0788(3) 0.8492(4)
C3_3 C 0.3392(9) 0.0772(3) 0.8140(4)
H1_3 H 0.4110 0.0479 0.8266
C4_3 C 0.3681(10) 0.1177(4) 0.7622(5)
H2_3 H 0.4600 0.1176 0.7407
C5_3 C 0.2543(10) 0.1591(4) 0.7426(5)
C6_3 C 0.1182(9) 0.1619(3) 0.7767(5)
C7_3 C 0.0924(9) 0.1207(3) 0.8315(4)
H3_3 H 0.0033 0.1220 0.8552
C8_3 C 0.1104(10) 0.2333(3) 0.6996(5)
C9_3 C 0.0579(9) 0.2836(3) 0.6529(5)
C10_3 C 0.1375(9) 0.3024(4) 0.5948(5)
H4_3 H 0.2267 0.2836 0.5843
C11_3 C 0.0797(9) 0.3505(3) 0.5523(4)
H5_3 H 0.1319 0.3630 0.5131
H15_3 H 0.325909 0.215602 0.658677
O5_2 O 0.9357(6) 0.9629(2) 0.0566(3)
N2_4 N 0.9720(8) 0.7907(3) 0.2505(4)
N3_4 N 0.7536(8) 0.7951(3) 0.3068(4)
C1_4 C 0.8204(8) 0.9666(3) 0.0941(4)
C2_4 C 0.7986(9) 0.9212(3) 0.1508(4)
C3_4 C 0.6608(9) 0.9228(3) 0.1860(4)
H1_4 H 0.5890 0.9521 0.1734
C4_4 C 0.6319(10) 0.8823(4) 0.2378(5)
H2_4 H 0.5400 0.8824 0.2593
C5_4 C 0.7457(10) 0.8409(4) 0.2574(5)
C6_4 C 0.8818(9) 0.8381(3) 0.2233(5)
C7_4 C 0.9076(9) 0.8793(3) 0.1685(4)
H3_4 H 0.9967 0.8780 0.1448
C8_4 C 0.8896(10) 0.7667(3) 0.3004(5)
C9_4 C 0.9421(9) 0.7164(3) 0.3471(5)
C10_4 C 0.8625(9) 0.6976(4) 0.4052(5)
H4_4 H 0.7733 0.7164 0.4157
C11_4 C 0.9203(9) 0.6495(3) 0.4477(4)
H5_4 H 0.8681 0.6370 0.4869
H15_4 H 0.674091 0.784398 0.341323
loop_
_geom_bond_atom_site_label_1
_geom_bond_atom_site_label_2
_geom_bond_site_symmetry_1
_geom_bond_site_symmetry_2
C12 N1 1_555 1_555
H6 C12 1_555 1_555
H7 C13 1_555 1_555
C12 C13 1_555 1_555
Cd4 O5 1_555 1_555
Cd1 O1 1_555 1_555
O1 C1 1_555 1_555
O2 Cd1 1_555 1_555
O3 C14 1_555 1_555
O4 C14 1_555 1_555
N2 C6 1_555 1_555
N3 C5 1_555 1_555
N4 Cd1 1_555 1_555
N5 C19 1_555 1_555
N6 C18 1_555 1_555
C1 O2 1_555 1_555
C2 C1 1_555 1_555
C3 C2 1_555 1_555
H1 C3 1_555 1_555
C4 C3 1_555 1_555
H2 C4 1_555 1_555
C5 C4 1_555 1_555
C6 C5 1_555 1_555
C7 C2 1_555 1_555
H3 C7 1_555 1_555
C8 N2 1_555 1_555
C9 C8 1_555 1_555
C10 C9 1_555 1_555
H4 C10 1_555 1_555
C11 C10 1_555 1_555
H5 C11 1_555 1_555
C14 C15 1_555 1_555
C15 C16 1_555 1_555
C16 H8 1_555 1_555
C17 C16 1_555 1_555
H9 C17 1_555 1_555
C18 C17 1_555 1_555
C19 C18 1_555 1_555
C20 C15 1_555 1_555
H10 C20 1_555 1_555
C21 N5 1_555 1_555
C22 C21 1_555 1_555
C23 C22 1_555 1_555
H11 C23 1_555 1_555
C24 N4 1_555 1_555
H12 C24 1_555 1_555
C25 N4 1_555 1_555
H13 C25 1_555 1_555
C26 C22 1_555 1_555
H14 C26 1_555 1_555
Cd3 O3 1_555 1_555
O6 Cd1 1_555 1_555
O7 Cd1 1_555 1_555
N7 Cd1 1_555 1_555
O4 Cd3 1_555 1_555
N3 C8 1_555 1_555
N6 C21 1_555 1_555
C6 C7 1_555 1_555
C19 C20 1_555 1_555
C23 C24 1_555 1_555
C25 C26 1_555 1_555
N3 H15 1_555 1_555
N6 H16 1_555 1_555
O6 C14_2 1_555 1_555
O7 C14_2 1_555 1_555
N5_2 C19_2 1_555 1_555
N6_2 C18_2 1_555 1_555
C14_2 C15_2 1_555 1_555
C15_2 C16_2 1_555 1_555
C16_2 H8_2 1_555 1_555
C17_2 C16_2 1_555 1_555
H9_2 C17_2 1_555 1_555
C18_2 C17_2 1_555 1_555
C19_2 C18_2 1_555 1_555
C20_2 C15_2 1_555 1_555
H10_2 C20_2 1_555 1_555
C21_2 N5_2 1_555 1_555
C22_2 C21_2 1_555 1_555
C23_2 C22_2 1_555 1_555
H11_2 C23_2 1_555 1_555
C24_2 N4_2 1_555 1_555
C25_2 N4_2 1_555 1_555
H13_2 C25_2 1_555 1_555
C26_2 C22_2 1_555 1_555
H14_2 C26_2 1_555 1_555
N6_2 C21_2 1_555 1_555
C19_2 C20_2 1_555 1_555
C23_2 C24_2 1_555 1_555
C25_2 C26_2 1_555 1_555
N6_2 H16_2 1_555 1_555
C12_2 N7 1_555 1_555
H6_2 C12_2 1_555 1_555
H7_2 C13_2 1_555 1_555
C12_2 C13_2 1_555 1_555
O5 C1_2 1_555 1_555
O2_3 Cd4 1_555 1_555
O3_2 C14_3 1_555 1_555
O4_2 C14_3 1_555 1_555
N2_2 C6_2 1_555 1_555
N3_2 C5_2 1_555 1_555
N4_3 Cd4 1_555 1_555
N5_3 C19_3 1_555 1_555
N6_3 C18_3 1_555 1_555
C1_2 O2_3 1_555 1_555
C2_2 C1_2 1_555 1_555
C3_2 C2_2 1_555 1_555
H1_2 C3_2 1_555 1_555
C4_2 C3_2 1_555 1_555
H2_2 C4_2 1_555 1_555
C5_2 C4_2 1_555 1_555
C6_2 C5_2 1_555 1_555
C7_2 C2_2 1_555 1_555
H3_2 C7_2 1_555 1_555
C8_2 N2_2 1_555 1_555
C9_2 C8_2 1_555 1_555
C10_2 C9_2 1_555 1_555
H4_2 C10_2 1_555 1_555
C11_2 C10_2 1_555 1_555
H5_2 C11_2 1_555 1_555
C14_3 C15_3 1_555 1_555
C15_3 C16_3 1_555 1_555
C16_3 H8_3 1_555 1_555
C17_3 C16_3 1_555 1_555
H9_3 C17_3 1_555 1_555
C18_3 C17_3 1_555 1_555
C19_3 C18_3 1_555 1_555
C20_3 C15_3 1_555 1_555
H10_3 C20_3 1_555 1_555
C21_3 N5_3 1_555 1_555
C22_3 C21_3 1_555 1_555
C23_3 C22_3 1_555 1_555
H11_3 C23_3 1_555 1_555
C24_3 N4_3 1_555 1_555
H12_3 C24_3 1_555 1_555
C25_3 N4_3 1_555 1_555
H13_3 C25_3 1_555 1_555
C26_3 C22_3 1_555 1_555
H14_3 C26_3 1_555 1_555
Cd4_2 O3_2 1_555 1_555
O6_2 Cd4 1_555 1_555
O7_2 Cd4 1_555 1_555
N7_2 Cd4 1_555 1_555
O4_2 Cd4_2 1_555 1_555
N3_2 C8_2 1_555 1_555
N6_3 C21_3 1_555 1_555
C6_2 C7_2 1_555 1_555
C19_3 C20_3 1_555 1_555
C23_3 C24_3 1_555 1_555
C25_3 C26_3 1_555 1_555
N3_2 H15_2 1_555 1_555
N6_3 H16_3 1_555 1_555
C12_3 N1_2 1_555 1_555
H6_3 C12_3 1_555 1_555
H7_3 C13_3 1_555 1_555
C12_3 C13_3 1_555 1_555
C12_4 N7_2 1_555 1_555
H6_4 C12_4 1_555 1_555
H7_4 C13_4 1_555 1_555
C12_4 C13_4 1_555 1_555
O6_2 C14_4 1_555 1_555
O7_2 C14_4 1_555 1_555
N5_4 C19_4 1_555 1_555
N6_4 C18_4 1_555 1_555
C14_4 C15_4 1_555 1_555
C15_4 C16_4 1_555 1_555
C16_4 H8_4 1_555 1_555
C17_4 C16_4 1_555 1_555
H9_4 C17_4 1_555 1_555
C18_4 C17_4 1_555 1_555
C19_4 C18_4 1_555 1_555
C20_4 C15_4 1_555 1_555
H10_4 C20_4 1_555 1_555
C21_4 N5_4 1_555 1_555
C22_4 C21_4 1_555 1_555
C23_4 C22_4 1_555 1_555
H11_4 C23_4 1_555 1_555
C24_4 N4_4 1_555 1_555
C25_4 N4_4 1_555 1_555
H13_4 C25_4 1_555 1_555
C26_4 C22_4 1_555 1_555
H14_4 C26_4 1_555 1_555
N6_4 C21_4 1_555 1_555
C19_4 C20_4 1_555 1_555
C23_4 C24_4 1_555 1_555
C25_4 C26_4 1_555 1_555
N6_4 H16_4 1_555 1_555
O1_2 C1_3 1_555 1_555
N2_3 C6_3 1_555 1_555
N3_3 C5_3 1_555 1_555
C2_3 C1_3 1_555 1_555
C3_3 C2_3 1_555 1_555
H1_3 C3_3 1_555 1_555
C4_3 C3_3 1_555 1_555
H2_3 C4_3 1_555 1_555
C5_3 C4_3 1_555 1_555
C6_3 C5_3 1_555 1_555
C7_3 C2_3 1_555 1_555
H3_3 C7_3 1_555 1_555
C8_3 N2_3 1_555 1_555
C9_3 C8_3 1_555 1_555
C10_3 C9_3 1_555 1_555
H4_3 C10_3 1_555 1_555
C11_3 C10_3 1_555 1_555
H5_3 C11_3 1_555 1_555
N3_3 C8_3 1_555 1_555
C6_3 C7_3 1_555 1_555
N3_3 H15_3 1_555 1_555
O5_2 C1_4 1_555 1_555
N2_4 C6_4 1_555 1_555
N3_4 C5_4 1_555 1_555
C2_4 C1_4 1_555 1_555
C3_4 C2_4 1_555 1_555
H1_4 C3_4 1_555 1_555
C4_4 C3_4 1_555 1_555
H2_4 C4_4 1_555 1_555
C5_4 C4_4 1_555 1_555
C6_4 C5_4 1_555 1_555
C7_4 C2_4 1_555 1_555
H3_4 C7_4 1_555 1_555
C8_4 N2_4 1_555 1_555
C9_4 C8_4 1_555 1_555
C10_4 C9_4 1_555 1_555
H4_4 C10_4 1_555 1_555
C11_4 C10_4 1_555 1_555
H5_4 C11_4 1_555 1_555
N3_4 C8_4 1_555 1_555
C6_4 C7_4 1_555 1_555
N3_4 H15_4 1_555 1_555

#END
