
###############################################################################
#
# This file contains modified crystal structure data generated from the
# MOF subset of the Cambridge Structural Database (CSD) v543 
# hosted by the Cambridge Crystallographic Data Centre (CCDC).
#
# This work is licensed under the Creative Commons
# Attribution-NonCommercial-ShareAlike 4.0 International License.
# To view a copy of this license, visit
# http://creativecommons.org/licenses/by-nc-sa/4.0/
# or send a letter to
# Creative Commons, PO Box 1866, Mountain View, CA 94042, USA.
#
# CIF created using the CSD Python API on 29 September 2022
# The structure has been converted into the P1 space group
# The structure has a 3D framework
# The original CSD entry HIYBEZ is in the orthorhombic crystal system
# The framework has been calculated to contain at least 10.0% void space
# The void calculation uses a probe of radius 1.32A, grid spacing 0.4
#
###############################################################################

data_HIYBEZ
_chemical_formula_moiety         '(C296 H152 Fe24 O108)n'
_symmetry_cell_setting           triclinic
_symmetry_space_group_name_H-M   'P 1'
_symmetry_Int_Tables_number      1
_space_group_name_Hall           'P 1'
loop_
_symmetry_equiv_pos_site_id
_symmetry_equiv_pos_as_xyz
1 x,y,z
_cell_length_a                   25.0824(6)
_cell_length_b                   28.1684(6)
_cell_length_c                   13.7336(3)
_cell_angle_alpha                90
_cell_angle_beta                 90
_cell_angle_gamma                90
_cell_volume                     9703.22
loop_
_atom_site_label
_atom_site_type_symbol
_atom_site_fract_x
_atom_site_fract_y
_atom_site_fract_z
O17 O 0.32705(12) 0.70126(9) 0.0679(2)
Fe1 Fe 0.36934(2) 0.76167(2) 0.10541(4)
C1 C 0.2819(2) 0.37255(14) 0.3561(3)
Fe2 Fe 0.25352(2) 0.78074(2) 0.24681(4)
C2 C 0.3054(2) 0.45873(16) 0.3679(4)
H1 H 0.3421 0.4502 0.3697
Fe3 Fe 0.36169(3) 0.69947(2) 0.90257(4)
C3 C 0.26645(19) 0.42356(15) 0.3618(3)
C4 C 0.21293(19) 0.43654(15) 0.3594(3)
H2 H 0.1861 0.4128 0.3554
C5 C 0.1988(2) 0.48396(15) 0.3630(3)
H3 H 0.1621 0.4924 0.3615
C6 C 0.2375(2) 0.51987(15) 0.3686(3)
C7 C 0.2910(2) 0.50600(15) 0.3714(4)
H4 H 0.3179 0.5296 0.3758
C8 C 0.25869(19) 0.60686(16) 0.3576(3)
H5 H 0.2945 0.5989 0.3423
C9 C 0.22162(19) 0.57050(14) 0.3731(3)
C10 C 0.39151(18) 0.73104(14) 0.4154(3)
C11 C 0.44685(18) 0.72675(14) 0.4124(3)
H6 H 0.4653 0.7321 0.3531
C12 C 0.47515(18) 0.71464(14) 0.4959(3)
C13 C 0.1684(2) 0.58357(15) 0.3940(3)
H7 H 0.1420 0.5597 0.4024
C14 C 0.19228(19) 0.66607(14) 0.3873(3)
C15 C 0.1544(2) 0.63083(16) 0.4022(3)
H8 H 0.1188 0.6393 0.4181
C16 C 0.24429(19) 0.65401(15) 0.3639(3)
H9 H 0.2700 0.6782 0.3523
C17 C 0.44854(19) 0.70640(15) 0.5830(3)
H10 H 0.4678 0.6974 0.6397
C18 C 0.17616(17) 0.71633(14) 0.3960(3)
C19 C 0.53510(17) 0.71392(14) 0.4912(3)
C20 C 0.36469(18) 0.72338(14) 0.5036(3)
H11 H 0.3270 0.7264 0.5066
C21 C 0.39334(18) 0.71144(14) 0.5862(3)
C22 C 0.36432(17) 0.70529(14) 0.6814(3)
C23 C 0.36214(17) 0.74468(14) 0.3249(3)
C24 C 0.28336(18) 0.69028(15) 0.1108(3)
C25 C 0.3018(2) 0.60238(15) 0.0949(3)
H12 H 0.3382 0.6095 0.0824
C26 C 0.2854(2) 0.55539(15) 0.1008(3)
H13 H 0.3112 0.5309 0.0938
C27 C 0.23249(19) 0.54300(15) 0.1167(3)
C28 C 0.19612(19) 0.58095(15) 0.1294(4)
H14 H 0.1596 0.5739 0.1411
C29 C 0.21201(19) 0.62768(15) 0.1254(3)
H15 H 0.1866 0.6523 0.1349
C30 C 0.26513(19) 0.63915(14) 0.1074(3)
C31 C 0.21479(19) 0.49287(14) 0.1215(3)
C32 C 0.1604(2) 0.48068(15) 0.1254(3)
H16 H 0.1344 0.5052 0.1237
C33 C 0.1439(2) 0.43358(16) 0.1316(4)
H17 H 0.1070 0.4263 0.1359
C34 C 0.18174(18) 0.39672(14) 0.1315(3)
C35 C 0.23498(19) 0.40795(14) 0.1263(3)
H18 H 0.2609 0.3833 0.1261
C36 C 0.25129(19) 0.45503(15) 0.1215(3)
H19 H 0.2883 0.4619 0.1181
C37 C 0.16288(17) 0.34637(14) 0.1319(3)
O1 O 0.11410(13) 0.33691(10) 0.1238(2)
O2 O 0.19716(12) 0.31224(10) 0.1352(2)
O3 O 0.25558(13) 0.71816(10) 0.1596(2)
O5 O 0.38706(14) 0.74161(12) 0.2462(2)
O6 O 0.31441(12) 0.75730(11) 0.3350(2)
O7 O 0.31481(12) 0.69742(10) 0.6772(2)
O8 O 0.39155(12) 0.70888(11) 0.7593(2)
O9 O 0.55558(13) 0.73697(11) 0.4231(2)
O10 O 0.56031(12) 0.69096(11) 0.5570(2)
O11 O 0.32996(13) 0.36265(10) 0.3765(2)
O12 O 0.24662(12) 0.34316(10) 0.3304(2)
O13 O 0.13287(12) 0.72645(10) 0.4418(2)
O14 O 0.20324(12) 0.74971(10) 0.3600(2)
Fe4 Fe 0.13066(2) 0.73833(2) 0.60541(4)
Fe5 Fe 0.63066(2) 0.76167(2) 0.39459(4)
Fe6 Fe 0.13066(2) 0.26167(2) 0.10541(4)
Fe7 Fe 0.24648(2) 0.71926(2) 0.74681(4)
Fe8 Fe 0.24648(2) 0.28074(2) 0.24681(4)
Fe10 Fe 0.13831(3) 0.80053(2) 0.40257(4)
Fe11 Fe 0.63831(3) 0.69947(2) 0.59743(4)
Fe12 Fe 0.36169(3) 0.30053(2) 0.40257(4)
O15 O 0.38590(13) 0.83691(10) 0.1238(2)
O16 O 0.30284(12) 0.81224(10) 0.1352(2)
O18 O 0.18519(12) 0.80258(10) 0.1772(2)
O19 O 0.44442(13) 0.73697(11) 0.0769(2)
O20 O 0.43969(12) 0.69096(11) 0.9430(2)
O21 O 0.32996(13) 0.63735(10) 0.8765(2)
O22 O 0.25338(12) 0.84316(10) 0.3304(2)
O24 O 0.36713(12) 0.77355(10) 0.9418(2)
O25 O 0.29676(12) 0.75029(10) 0.8600(2)
C1_2 C 0.2181(2) 0.12745(14) 0.8561(3)
C2_2 C 0.1946(2) 0.04127(16) 0.8679(4)
H1_2 H 0.1579 0.0498 0.8697
C3_2 C 0.23355(19) 0.07644(15) 0.8618(3)
C4_2 C 0.28707(19) 0.06346(15) 0.8594(3)
H2_2 H 0.3139 0.0872 0.8554
C5_2 C 0.3012(2) 0.01604(15) 0.8630(3)
H3_2 H 0.3379 0.0076 0.8615
C31_2 C 0.28521(19) 0.00713(14) 0.6215(3)
C32_2 C 0.3396(2) 0.01932(15) 0.6254(3)
C33_2 C 0.3561(2) 0.06642(16) 0.6316(4)
H17_2 H 0.3930 0.0737 0.6359
C34_2 C 0.31826(18) 0.10328(14) 0.6315(3)
C35_2 C 0.26502(19) 0.09205(14) 0.6263(3)
H18_2 H 0.2391 0.1167 0.6261
C36_2 C 0.24871(19) 0.04497(15) 0.6215(3)
H19_2 H 0.2117 0.0381 0.6181
C37_2 C 0.33712(17) 0.15363(14) 0.6319(3)
O1_2 O 0.38590(13) 0.16309(10) 0.6238(2)
O2_2 O 0.30284(12) 0.18776(10) 0.6352(2)
O11_2 O 0.17004(13) 0.13735(10) 0.8765(2)
O12_2 O 0.25338(12) 0.15684(10) 0.8304(2)
Fe6_2 Fe 0.36934(2) 0.23833(2) 0.60541(4)
Fe8_2 Fe 0.25352(2) 0.21926(2) 0.74681(4)
Fe12_2 Fe 0.13831(3) 0.19947(2) 0.90257(4)
C17_2 C 0.05146(19) 0.79360(15) 0.0830(3)
H10_2 H 0.0322 0.8026 0.1397
C20_2 C 0.13531(18) 0.77662(14) 0.0036(3)
H11_2 H 0.1730 0.7736 0.0066
C21_2 C 0.10666(18) 0.78856(14) 0.0862(3)
C22_2 C 0.13568(17) 0.79471(14) 0.1814(3)
O8_2 O 0.10845(12) 0.79112(11) 0.2593(2)
O17_2 O 0.17295(12) 0.79874(9) 0.5679(2)
O20_2 O 0.06031(12) 0.80904(11) 0.4430(2)
O21_2 O 0.17004(13) 0.86265(10) 0.3765(2)
C6_2 C 0.2625(2) 0.98013(15) 0.8686(3)
C7_2 C 0.2090(2) 0.99400(15) 0.8714(4)
H4_2 H 0.1821 0.9704 0.8758
C8_2 C 0.24131(19) 0.89314(16) 0.8576(3)
H5_2 H 0.2055 0.9011 0.8423
C9_2 C 0.27838(19) 0.92950(14) 0.8731(3)
C10_2 C 0.10849(18) 0.76896(14) 0.9154(3)
C11_2 C 0.05315(18) 0.77325(14) 0.9124(3)
H6_2 H 0.0347 0.7679 0.8531
C12_2 C 0.02485(18) 0.78536(14) 0.9959(3)
C13_2 C 0.3316(2) 0.91643(15) 0.8940(3)
H7_2 H 0.3580 0.9403 0.9024
C14_2 C 0.30772(19) 0.83393(14) 0.8873(3)
C15_2 C 0.3456(2) 0.86917(16) 0.9022(3)
H8_2 H 0.3812 0.8607 0.9181
C16_2 C 0.25571(19) 0.84599(15) 0.8639(3)
H9_2 H 0.2300 0.8218 0.8523
C18_2 C 0.32384(17) 0.78367(14) 0.8960(3)
C23_2 C 0.13786(17) 0.75532(14) 0.8249(3)
C24_2 C 0.21664(18) 0.80972(15) 0.6108(3)
C25_2 C 0.1982(2) 0.89762(15) 0.5949(3)
H12_2 H 0.1618 0.8905 0.5824
C26_2 C 0.2146(2) 0.94461(15) 0.6008(3)
H13_2 H 0.1888 0.9691 0.5938
C27_2 C 0.26751(19) 0.95700(15) 0.6167(3)
C28_2 C 0.30388(19) 0.91905(15) 0.6294(4)
H14_2 H 0.3404 0.9261 0.6411
C29_2 C 0.28799(19) 0.87232(15) 0.6254(3)
H15_2 H 0.3134 0.8477 0.6349
C30_2 C 0.23487(19) 0.86085(14) 0.6074(3)
H16_2 H 0.3656 0.9948 0.6237
O3_2 O 0.24442(13) 0.78184(10) 0.6596(2)
O5_2 O 0.11294(14) 0.75839(12) 0.7462(2)
O6_2 O 0.18559(12) 0.74270(11) 0.8350(2)
O15_2 O 0.11410(13) 0.66309(10) 0.6238(2)
O16_2 O 0.19716(12) 0.68776(10) 0.6352(2)
O19_2 O 0.05558(13) 0.76303(11) 0.5769(2)
O22_2 O 0.24662(12) 0.65684(10) 0.8304(2)
O10_2 O 0.93969(12) 0.80904(11) 0.0570(2)
Fe11_2 Fe 0.86169(3) 0.80053(2) 0.09743(4)
C19_2 C 0.96490(17) 0.78608(14) 0.9912(3)
O9_2 O 0.94442(13) 0.76303(11) 0.9231(2)
Fe5_2 Fe 0.86934(2) 0.73833(2) 0.89459(4)
C1_3 C 0.7181(2) 0.37255(14) 0.1439(3)
Fe2_2 Fe 0.74648(2) 0.78074(2) 0.25319(4)
C2_3 C 0.6946(2) 0.45873(16) 0.1321(4)
H1_3 H 0.6579 0.4502 0.1303
C3_3 C 0.73355(19) 0.42356(15) 0.1382(3)
C4_3 C 0.78707(19) 0.43654(15) 0.1406(3)
H2_3 H 0.8139 0.4128 0.1446
C5_3 C 0.8012(2) 0.48396(15) 0.1370(3)
H3_3 H 0.8379 0.4924 0.1385
C6_3 C 0.7625(2) 0.51987(15) 0.1314(3)
C7_3 C 0.7090(2) 0.50600(15) 0.1286(4)
H4_3 H 0.6821 0.5296 0.1242
C8_3 C 0.74131(19) 0.60686(16) 0.1424(3)
H5_3 H 0.7055 0.5989 0.1577
C9_3 C 0.77838(19) 0.57050(14) 0.1269(3)
C10_3 C 0.60849(18) 0.73104(14) 0.0846(3)
C11_3 C 0.55315(18) 0.72675(14) 0.0876(3)
H6_3 H 0.5347 0.7321 0.1469
C12_3 C 0.52485(18) 0.71464(14) 0.0041(3)
C13_3 C 0.8316(2) 0.58357(15) 0.1060(3)
H7_3 H 0.8580 0.5597 0.0976
C14_3 C 0.80772(19) 0.66607(14) 0.1127(3)
C15_3 C 0.8456(2) 0.63083(16) 0.0978(3)
H8_3 H 0.8812 0.6393 0.0819
C16_3 C 0.75571(19) 0.65401(15) 0.1361(3)
H9_3 H 0.7300 0.6782 0.1477
C18_3 C 0.82384(17) 0.71633(14) 0.1040(3)
C19_3 C 0.46490(17) 0.71392(14) 0.0088(3)
C23_3 C 0.63786(17) 0.74468(14) 0.1751(3)
C24_3 C 0.71664(18) 0.69028(15) 0.3892(3)
C25_3 C 0.6982(2) 0.60238(15) 0.4051(3)
H12_3 H 0.6618 0.6095 0.4176
C26_3 C 0.7146(2) 0.55539(15) 0.3992(3)
H13_3 H 0.6888 0.5309 0.4062
C27_3 C 0.76751(19) 0.54300(15) 0.3833(3)
C28_3 C 0.80388(19) 0.58095(15) 0.3706(4)
H14_3 H 0.8404 0.5739 0.3589
C29_3 C 0.78799(19) 0.62768(15) 0.3746(3)
H15_3 H 0.8134 0.6523 0.3651
C30_3 C 0.73487(19) 0.63915(14) 0.3926(3)
C31_3 C 0.78521(19) 0.49287(14) 0.3785(3)
C32_3 C 0.8396(2) 0.48068(15) 0.3746(3)
H16_3 H 0.8656 0.5052 0.3763
C33_3 C 0.8561(2) 0.43358(16) 0.3684(4)
H17_3 H 0.8930 0.4263 0.3641
C34_3 C 0.81826(18) 0.39672(14) 0.3685(3)
C35_3 C 0.76502(19) 0.40795(14) 0.3737(3)
H18_3 H 0.7391 0.3833 0.3739
C36_3 C 0.74871(19) 0.45503(15) 0.3785(3)
H19_3 H 0.7117 0.4619 0.3819
C37_3 C 0.83712(17) 0.34637(14) 0.3681(3)
O1_3 O 0.88590(13) 0.33691(10) 0.3762(2)
O2_3 O 0.80284(12) 0.31224(10) 0.3648(2)
O3_3 O 0.74442(13) 0.71816(10) 0.3404(2)
O4 O 0.67295(12) 0.70126(9) 0.4321(2)
O5_3 O 0.61294(14) 0.74161(12) 0.2538(2)
O6_3 O 0.68559(12) 0.75730(11) 0.1650(2)
O11_3 O 0.67004(13) 0.36265(10) 0.1235(2)
O12_3 O 0.75338(12) 0.34316(10) 0.1696(2)
O13_2 O 0.86713(12) 0.72645(10) 0.0582(2)
O14_2 O 0.79676(12) 0.74971(10) 0.1400(2)
Fe6_3 Fe 0.86934(2) 0.26167(2) 0.39459(4)
Fe8_3 Fe 0.75352(2) 0.28074(2) 0.25319(4)
Fe12_3 Fe 0.63831(3) 0.30053(2) 0.09743(4)
O15_3 O 0.61410(13) 0.83691(10) 0.3762(2)
O16_3 O 0.69716(12) 0.81224(10) 0.3648(2)
O18_2 O 0.81481(12) 0.80258(10) 0.3228(2)
O22_3 O 0.74662(12) 0.84316(10) 0.1696(2)
O23 O 0.63287(12) 0.77355(10) 0.5582(2)
C17_3 C 0.55146(19) 0.70640(15) 0.9170(3)
H10_3 H 0.5322 0.6974 0.8603
C20_3 C 0.63531(18) 0.72338(14) 0.9964(3)
H11_3 H 0.6730 0.7264 0.9934
C21_3 C 0.60666(18) 0.71144(14) 0.9138(3)
C22_3 C 0.63568(17) 0.70529(14) 0.8186(3)
O7_2 O 0.68519(12) 0.69742(10) 0.8228(2)
O8_3 O 0.60845(12) 0.70888(11) 0.7407(2)
Fe7_2 Fe 0.75352(2) 0.71926(2) 0.75319(4)
O21_3 O 0.67004(13) 0.63735(10) 0.6235(2)
O25_2 O 0.70324(12) 0.75029(10) 0.6400(2)
C19_4 C 0.03510(17) 0.78608(14) 0.5088(3)
C1_4 C 0.7819(2) 0.12745(14) 0.6439(3)
C2_4 C 0.8054(2) 0.04127(16) 0.6321(4)
H1_4 H 0.8421 0.0498 0.6303
C3_4 C 0.76645(19) 0.07644(15) 0.6382(3)
C4_4 C 0.71293(19) 0.06346(15) 0.6406(3)
H2_4 H 0.6861 0.0872 0.6446
C5_4 C 0.6988(2) 0.01604(15) 0.6370(3)
H3_4 H 0.6621 0.0076 0.6385
C31_4 C 0.71479(19) 0.00713(14) 0.8785(3)
C32_4 C 0.6604(2) 0.01932(15) 0.8746(3)
C33_4 C 0.6439(2) 0.06642(16) 0.8684(4)
H17_4 H 0.6070 0.0737 0.8641
C34_4 C 0.68174(18) 0.10328(14) 0.8685(3)
C35_4 C 0.73498(19) 0.09205(14) 0.8737(3)
H18_4 H 0.7609 0.1167 0.8739
C36_4 C 0.75129(19) 0.04497(15) 0.8785(3)
H19_4 H 0.7883 0.0381 0.8819
C37_4 C 0.66288(17) 0.15363(14) 0.8681(3)
O1_4 O 0.61410(13) 0.16309(10) 0.8762(2)
O2_4 O 0.69716(12) 0.18776(10) 0.8648(2)
O11_4 O 0.82996(13) 0.13735(10) 0.6235(2)
O12_4 O 0.74662(12) 0.15684(10) 0.6696(2)
Fe6_4 Fe 0.63066(2) 0.23833(2) 0.89459(4)
Fe8_4 Fe 0.74648(2) 0.21926(2) 0.75319(4)
Fe12_4 Fe 0.86169(3) 0.19947(2) 0.59743(4)
C6_4 C 0.7375(2) 0.98013(15) 0.6314(3)
C7_4 C 0.7910(2) 0.99400(15) 0.6286(4)
H4_4 H 0.8179 0.9704 0.6242
C8_4 C 0.75869(19) 0.89314(16) 0.6424(3)
H5_4 H 0.7945 0.9011 0.6577
C9_4 C 0.72162(19) 0.92950(14) 0.6269(3)
C10_4 C 0.89151(18) 0.76896(14) 0.5846(3)
C11_4 C 0.94685(18) 0.77325(14) 0.5876(3)
H6_4 H 0.9653 0.7679 0.6469
C12_4 C 0.97515(18) 0.78536(14) 0.5041(3)
C13_4 C 0.6684(2) 0.91643(15) 0.6060(3)
H7_4 H 0.6420 0.9403 0.5976
C14_4 C 0.69228(19) 0.83393(14) 0.6127(3)
C15_4 C 0.6544(2) 0.86917(16) 0.5978(3)
H8_4 H 0.6188 0.8607 0.5819
C16_4 C 0.74429(19) 0.84599(15) 0.6361(3)
H9_4 H 0.7700 0.8218 0.6477
C17_4 C 0.94854(19) 0.79360(15) 0.4170(3)
H10_4 H 0.9678 0.8026 0.3603
C18_4 C 0.67616(17) 0.78367(14) 0.6040(3)
C20_4 C 0.86469(18) 0.77662(14) 0.4964(3)
H11_4 H 0.8270 0.7736 0.4934
C21_4 C 0.89334(18) 0.78856(14) 0.4138(3)
C22_4 C 0.86432(17) 0.79471(14) 0.3186(3)
C23_4 C 0.86214(17) 0.75532(14) 0.6751(3)
C24_4 C 0.78336(18) 0.80972(15) 0.8892(3)
C25_4 C 0.8018(2) 0.89762(15) 0.9051(3)
H12_4 H 0.8382 0.8905 0.9176
C26_4 C 0.7854(2) 0.94461(15) 0.8992(3)
H13_4 H 0.8112 0.9691 0.9062
C27_4 C 0.73249(19) 0.95700(15) 0.8833(3)
C28_4 C 0.69612(19) 0.91905(15) 0.8706(4)
H14_4 H 0.6596 0.9261 0.8589
C29_4 C 0.71201(19) 0.87232(15) 0.8746(3)
H15_4 H 0.6866 0.8477 0.8651
C30_4 C 0.76513(19) 0.86085(14) 0.8926(3)
H16_4 H 0.6344 0.9948 0.8763
O3_4 O 0.75558(13) 0.78184(10) 0.8404(2)
O4_2 O 0.82705(12) 0.79874(9) 0.9321(2)
O5_4 O 0.88706(14) 0.75839(12) 0.7538(2)
O6_4 O 0.81441(12) 0.74270(11) 0.6650(2)
O8_4 O 0.89155(12) 0.79112(11) 0.2407(2)
O15_4 O 0.88590(13) 0.66309(10) 0.8762(2)
O16_4 O 0.80284(12) 0.68776(10) 0.8648(2)
O21_4 O 0.82996(13) 0.86265(10) 0.1235(2)
O22_4 O 0.75338(12) 0.65684(10) 0.6696(2)
O23_2 O 0.63287(12) 0.22645(10) 0.0582(2)
C1_5 C 0.7181(2) 0.62745(14) 0.6439(3)
C2_5 C 0.6946(2) 0.54127(16) 0.6321(4)
H1_5 H 0.6579 0.5498 0.6303
C3_5 C 0.73355(19) 0.57644(15) 0.6382(3)
C4_5 C 0.78707(19) 0.56346(15) 0.6406(3)
H2_5 H 0.8139 0.5872 0.6446
C5_5 C 0.8012(2) 0.51604(15) 0.6370(3)
H3_5 H 0.8379 0.5076 0.6385
C6_5 C 0.7625(2) 0.48013(15) 0.6314(3)
C7_5 C 0.7090(2) 0.49400(15) 0.6286(4)
H4_5 H 0.6821 0.4704 0.6242
C8_5 C 0.74131(19) 0.39314(16) 0.6424(3)
H5_5 H 0.7055 0.4011 0.6577
C9_5 C 0.77838(19) 0.42950(14) 0.6269(3)
C10_5 C 0.60849(18) 0.26896(14) 0.5846(3)
C11_5 C 0.55315(18) 0.27325(14) 0.5876(3)
H6_5 H 0.5347 0.2679 0.6469
C12_5 C 0.52485(18) 0.28536(14) 0.5041(3)
C13_5 C 0.8316(2) 0.41643(15) 0.6060(3)
H7_5 H 0.8580 0.4403 0.5976
C14_5 C 0.80772(19) 0.33393(14) 0.6127(3)
C15_5 C 0.8456(2) 0.36917(16) 0.5978(3)
H8_5 H 0.8812 0.3607 0.5819
C16_5 C 0.75571(19) 0.34599(15) 0.6361(3)
H9_5 H 0.7300 0.3218 0.6477
C17_5 C 0.55146(19) 0.29360(15) 0.4170(3)
H10_5 H 0.5322 0.3026 0.3603
C18_5 C 0.82384(17) 0.28367(14) 0.6040(3)
C19_5 C 0.46490(17) 0.28608(14) 0.5088(3)
C20_5 C 0.63531(18) 0.27662(14) 0.4964(3)
H11_5 H 0.6730 0.2736 0.4934
C21_5 C 0.60666(18) 0.28856(14) 0.4138(3)
C22_5 C 0.63568(17) 0.29471(14) 0.3186(3)
C23_5 C 0.63786(17) 0.25532(14) 0.6751(3)
C24_5 C 0.71664(18) 0.30972(15) 0.8892(3)
C25_5 C 0.6982(2) 0.39762(15) 0.9051(3)
H12_5 H 0.6618 0.3905 0.9176
C26_5 C 0.7146(2) 0.44461(15) 0.8992(3)
H13_5 H 0.6888 0.4691 0.9062
C27_5 C 0.76751(19) 0.45700(15) 0.8833(3)
C28_5 C 0.80388(19) 0.41905(15) 0.8706(4)
H14_5 H 0.8404 0.4261 0.8589
C29_5 C 0.78799(19) 0.37232(15) 0.8746(3)
H15_5 H 0.8134 0.3477 0.8651
C30_5 C 0.73487(19) 0.36085(14) 0.8926(3)
C31_5 C 0.78521(19) 0.50713(14) 0.8785(3)
C32_5 C 0.8396(2) 0.51932(15) 0.8746(3)
H16_5 H 0.8656 0.4948 0.8763
C33_5 C 0.8561(2) 0.56642(16) 0.8684(4)
H17_5 H 0.8930 0.5737 0.8641
C34_5 C 0.81826(18) 0.60328(14) 0.8685(3)
C35_5 C 0.76502(19) 0.59205(14) 0.8737(3)
H18_5 H 0.7391 0.6167 0.8739
C36_5 C 0.74871(19) 0.54497(15) 0.8785(3)
H19_5 H 0.7117 0.5381 0.8819
C37_5 C 0.83712(17) 0.65363(14) 0.8681(3)
O3_5 O 0.74442(13) 0.28184(10) 0.8404(2)
O4_3 O 0.67295(12) 0.29874(9) 0.9321(2)
O5_5 O 0.61294(14) 0.25839(12) 0.7538(2)
O6_5 O 0.68559(12) 0.24270(11) 0.6650(2)
O7_3 O 0.68519(12) 0.30258(10) 0.3228(2)
O8_5 O 0.60845(12) 0.29112(11) 0.2407(2)
O9_3 O 0.44442(13) 0.26303(11) 0.5769(2)
O10_3 O 0.43969(12) 0.30904(11) 0.4430(2)
O13_3 O 0.86713(12) 0.27355(10) 0.5582(2)
O14_3 O 0.79676(12) 0.25029(10) 0.6400(2)
O18_3 O 0.81481(12) 0.19742(10) 0.8228(2)
O19_3 O 0.55558(13) 0.26303(11) 0.9231(2)
O20_3 O 0.56031(12) 0.30904(11) 0.0570(2)
O25_3 O 0.70324(12) 0.24971(10) 0.1400(2)
C19_6 C 0.03510(17) 0.21392(14) 0.0088(3)
O9_4 O 0.05558(13) 0.23697(11) 0.0769(2)
O10_4 O 0.06031(12) 0.19096(11) 0.9430(2)
C6_6 C 0.7375(2) 0.01987(15) 0.1314(3)
C7_6 C 0.7910(2) 0.00600(15) 0.1286(4)
H4_6 H 0.8179 0.0296 0.1242
C8_6 C 0.75869(19) 0.10686(16) 0.1424(3)
H5_6 H 0.7945 0.0989 0.1577
C9_6 C 0.72162(19) 0.07050(14) 0.1269(3)
C10_6 C 0.89151(18) 0.23104(14) 0.0846(3)
C11_6 C 0.94685(18) 0.22675(14) 0.0876(3)
H6_6 H 0.9653 0.2321 0.1469
C12_6 C 0.97515(18) 0.21464(14) 0.0041(3)
C13_6 C 0.6684(2) 0.08357(15) 0.1060(3)
H7_6 H 0.6420 0.0597 0.0976
C14_6 C 0.69228(19) 0.16607(14) 0.1127(3)
C15_6 C 0.6544(2) 0.13083(16) 0.0978(3)
H8_6 H 0.6188 0.1393 0.0819
C16_6 C 0.74429(19) 0.15401(15) 0.1361(3)
H9_6 H 0.7700 0.1782 0.1477
C18_6 C 0.67616(17) 0.21633(14) 0.1040(3)
C23_6 C 0.86214(17) 0.24468(14) 0.1751(3)
C24_6 C 0.78336(18) 0.19028(15) 0.3892(3)
C25_6 C 0.8018(2) 0.10238(15) 0.4051(3)
H12_6 H 0.8382 0.1095 0.4176
C26_6 C 0.7854(2) 0.05539(15) 0.3992(3)
H13_6 H 0.8112 0.0309 0.4062
C27_6 C 0.73249(19) 0.04300(15) 0.3833(3)
C28_6 C 0.69612(19) 0.08095(15) 0.3706(4)
H14_6 H 0.6596 0.0739 0.3589
C29_6 C 0.71201(19) 0.12768(15) 0.3746(3)
H15_6 H 0.6866 0.1523 0.3651
C30_6 C 0.76513(19) 0.13915(14) 0.3926(3)
H16_6 H 0.6344 0.0052 0.3763
O3_6 O 0.75558(13) 0.21816(10) 0.3404(2)
O4_4 O 0.82705(12) 0.20126(9) 0.4321(2)
O5_6 O 0.88706(14) 0.24161(12) 0.2538(2)
O6_6 O 0.81441(12) 0.25730(11) 0.1650(2)
O19_4 O 0.94442(13) 0.23697(11) 0.4231(2)
C17_6 C 0.94854(19) 0.20640(15) 0.9170(3)
H10_6 H 0.9678 0.1974 0.8603
C20_6 C 0.86469(18) 0.22338(14) 0.9964(3)
H11_6 H 0.8270 0.2264 0.9934
C21_6 C 0.89334(18) 0.21144(14) 0.9138(3)
C22_6 C 0.86432(17) 0.20529(14) 0.8186(3)
O8_6 O 0.89155(12) 0.20888(11) 0.7407(2)
O20_4 O 0.93969(12) 0.19096(11) 0.5570(2)
C1_6 C 0.7819(2) 0.87255(14) 0.1439(3)
C2_6 C 0.8054(2) 0.95873(16) 0.1321(4)
H1_6 H 0.8421 0.9502 0.1303
C3_6 C 0.76645(19) 0.92356(15) 0.1382(3)
C4_6 C 0.71293(19) 0.93654(15) 0.1406(3)
H2_6 H 0.6861 0.9128 0.1446
C5_6 C 0.6988(2) 0.98396(15) 0.1370(3)
H3_6 H 0.6621 0.9924 0.1385
C31_6 C 0.71479(19) 0.99287(14) 0.3785(3)
C32_6 C 0.6604(2) 0.98068(15) 0.3746(3)
C33_6 C 0.6439(2) 0.93358(16) 0.3684(4)
H17_6 H 0.6070 0.9263 0.3641
C34_6 C 0.68174(18) 0.89672(14) 0.3685(3)
C35_6 C 0.73498(19) 0.90795(14) 0.3737(3)
H18_6 H 0.7609 0.8833 0.3739
C36_6 C 0.75129(19) 0.95503(15) 0.3785(3)
H19_6 H 0.7883 0.9619 0.3819
C37_6 C 0.66288(17) 0.84637(14) 0.3681(3)
C17_7 C 0.44854(19) 0.29360(15) 0.0830(3)
H10_7 H 0.4678 0.3026 0.1397
C20_7 C 0.36469(18) 0.27662(14) 0.0036(3)
H11_7 H 0.3270 0.2736 0.0066
C21_7 C 0.39334(18) 0.28856(14) 0.0862(3)
C22_7 C 0.36432(17) 0.29471(14) 0.1814(3)
O7_4 O 0.31481(12) 0.30258(10) 0.1772(2)
O8_7 O 0.39155(12) 0.29112(11) 0.2593(2)
O17_3 O 0.32705(12) 0.29874(9) 0.5679(2)
O24_2 O 0.36713(12) 0.22645(10) 0.4418(2)
O25_4 O 0.29676(12) 0.24971(10) 0.3600(2)
C1_7 C 0.2819(2) 0.62745(14) 0.8561(3)
C2_7 C 0.3054(2) 0.54127(16) 0.8679(4)
H1_7 H 0.3421 0.5498 0.8697
C3_7 C 0.26645(19) 0.57644(15) 0.8618(3)
C4_7 C 0.21293(19) 0.56346(15) 0.8594(3)
H2_7 H 0.1861 0.5872 0.8554
C5_7 C 0.1988(2) 0.51604(15) 0.8630(3)
H3_7 H 0.1621 0.5076 0.8615
C6_7 C 0.2375(2) 0.48013(15) 0.8686(3)
C7_7 C 0.2910(2) 0.49400(15) 0.8714(4)
H4_7 H 0.3179 0.4704 0.8758
C8_7 C 0.25869(19) 0.39314(16) 0.8576(3)
H5_7 H 0.2945 0.4011 0.8423
C9_7 C 0.22162(19) 0.42950(14) 0.8731(3)
C10_7 C 0.39151(18) 0.26896(14) 0.9154(3)
C11_7 C 0.44685(18) 0.27325(14) 0.9124(3)
H6_7 H 0.4653 0.2679 0.8531
C12_7 C 0.47515(18) 0.28536(14) 0.9959(3)
C13_7 C 0.1684(2) 0.41643(15) 0.8940(3)
H7_7 H 0.1420 0.4403 0.9024
C14_7 C 0.19228(19) 0.33393(14) 0.8873(3)
C15_7 C 0.1544(2) 0.36917(16) 0.9022(3)
H8_7 H 0.1188 0.3607 0.9181
C16_7 C 0.24429(19) 0.34599(15) 0.8639(3)
H9_7 H 0.2700 0.3218 0.8523
C18_7 C 0.17616(17) 0.28367(14) 0.8960(3)
C19_7 C 0.53510(17) 0.28608(14) 0.9912(3)
C23_7 C 0.36214(17) 0.25532(14) 0.8249(3)
C24_7 C 0.28336(18) 0.30972(15) 0.6108(3)
C25_7 C 0.3018(2) 0.39762(15) 0.5949(3)
H12_7 H 0.3382 0.3905 0.5824
C26_7 C 0.2854(2) 0.44461(15) 0.6008(3)
H13_7 H 0.3112 0.4691 0.5938
C27_7 C 0.23249(19) 0.45700(15) 0.6167(3)
C28_7 C 0.19612(19) 0.41905(15) 0.6294(4)
H14_7 H 0.1596 0.4261 0.6411
C29_7 C 0.21201(19) 0.37232(15) 0.6254(3)
H15_7 H 0.1866 0.3477 0.6349
C30_7 C 0.26513(19) 0.36085(14) 0.6074(3)
C31_7 C 0.21479(19) 0.50713(14) 0.6215(3)
C32_7 C 0.1604(2) 0.51932(15) 0.6254(3)
H16_7 H 0.1344 0.4948 0.6237
C33_7 C 0.1439(2) 0.56642(16) 0.6316(4)
H17_7 H 0.1070 0.5737 0.6359
C34_7 C 0.18174(18) 0.60328(14) 0.6315(3)
C35_7 C 0.23498(19) 0.59205(14) 0.6263(3)
H18_7 H 0.2609 0.6167 0.6261
C36_7 C 0.25129(19) 0.54497(15) 0.6215(3)
H19_7 H 0.2883 0.5381 0.6181
C37_7 C 0.16288(17) 0.65363(14) 0.6319(3)
O3_7 O 0.25558(13) 0.28184(10) 0.6596(2)
O5_7 O 0.38706(14) 0.25839(12) 0.7462(2)
O6_7 O 0.31441(12) 0.24270(11) 0.8350(2)
O13_4 O 0.13287(12) 0.27355(10) 0.9418(2)
O14_4 O 0.20324(12) 0.25029(10) 0.8600(2)
O18_4 O 0.18519(12) 0.19742(10) 0.6772(2)
O17_4 O 0.17295(12) 0.20126(9) 0.0679(2)
C6_8 C 0.2625(2) 0.01987(15) 0.3686(3)
C7_8 C 0.2090(2) 0.00600(15) 0.3714(4)
H4_8 H 0.1821 0.0296 0.3758
C8_8 C 0.24131(19) 0.10686(16) 0.3576(3)
H5_8 H 0.2055 0.0989 0.3423
C9_8 C 0.27838(19) 0.07050(14) 0.3731(3)
C10_8 C 0.10849(18) 0.23104(14) 0.4154(3)
C11_8 C 0.05315(18) 0.22675(14) 0.4124(3)
H6_8 H 0.0347 0.2321 0.3531
C12_8 C 0.02485(18) 0.21464(14) 0.4959(3)
C13_8 C 0.3316(2) 0.08357(15) 0.3940(3)
H7_8 H 0.3580 0.0597 0.4024
C14_8 C 0.30772(19) 0.16607(14) 0.3873(3)
C15_8 C 0.3456(2) 0.13083(16) 0.4022(3)
H8_8 H 0.3812 0.1393 0.4181
C16_8 C 0.25571(19) 0.15401(15) 0.3639(3)
H9_8 H 0.2300 0.1782 0.3523
C17_8 C 0.05146(19) 0.20640(15) 0.5830(3)
H10_8 H 0.0322 0.1974 0.6397
C18_8 C 0.32384(17) 0.21633(14) 0.3960(3)
C20_8 C 0.13531(18) 0.22338(14) 0.5036(3)
H11_8 H 0.1730 0.2264 0.5066
C21_8 C 0.10666(18) 0.21144(14) 0.5862(3)
C22_8 C 0.13568(17) 0.20529(14) 0.6814(3)
C23_8 C 0.13786(17) 0.24468(14) 0.3249(3)
C24_8 C 0.21664(18) 0.19028(15) 0.1108(3)
C25_8 C 0.1982(2) 0.10238(15) 0.0949(3)
H12_8 H 0.1618 0.1095 0.0824
C26_8 C 0.2146(2) 0.05539(15) 0.1008(3)
H13_8 H 0.1888 0.0309 0.0938
C27_8 C 0.26751(19) 0.04300(15) 0.1167(3)
C28_8 C 0.30388(19) 0.08095(15) 0.1294(4)
H14_8 H 0.3404 0.0739 0.1411
C29_8 C 0.28799(19) 0.12768(15) 0.1254(3)
H15_8 H 0.3134 0.1523 0.1349
C30_8 C 0.23487(19) 0.13915(14) 0.1074(3)
H16_8 H 0.3656 0.0052 0.1237
O3_8 O 0.24442(13) 0.21816(10) 0.1596(2)
O5_8 O 0.11294(14) 0.24161(12) 0.2462(2)
O6_8 O 0.18559(12) 0.25730(11) 0.3350(2)
O8_8 O 0.10845(12) 0.20888(11) 0.7593(2)
C1_8 C 0.2181(2) 0.87255(14) 0.3561(3)
C2_8 C 0.1946(2) 0.95873(16) 0.3679(4)
H1_8 H 0.1579 0.9502 0.3697
C3_8 C 0.23355(19) 0.92356(15) 0.3618(3)
C4_8 C 0.28707(19) 0.93654(15) 0.3594(3)
H2_8 H 0.3139 0.9128 0.3554
C5_8 C 0.3012(2) 0.98396(15) 0.3630(3)
H3_8 H 0.3379 0.9924 0.3615
C31_8 C 0.28521(19) 0.99287(14) 0.1215(3)
C32_8 C 0.3396(2) 0.98068(15) 0.1254(3)
C33_8 C 0.3561(2) 0.93358(16) 0.1316(4)
H17_8 H 0.3930 0.9263 0.1359
C34_8 C 0.31826(18) 0.89672(14) 0.1315(3)
C35_8 C 0.26502(19) 0.90795(14) 0.1263(3)
H18_8 H 0.2391 0.8833 0.1261
C36_8 C 0.24871(19) 0.95503(15) 0.1215(3)
H19_8 H 0.2117 0.9619 0.1181
C37_8 C 0.33712(17) 0.84637(14) 0.1319(3)
C19_8 C 0.96490(17) 0.21392(14) 0.4912(3)
loop_
_geom_bond_atom_site_label_1
_geom_bond_atom_site_label_2
_geom_bond_site_symmetry_1
_geom_bond_site_symmetry_2
Fe1 O17 1_555 1_555
C1 C3 1_555 1_555
Fe2 O3 1_555 1_555
C2 H1 1_555 1_555
Fe3 O8 1_555 1_555
C3 C2 1_555 1_555
C4 C3 1_555 1_555
H2 C4 1_555 1_555
C5 C4 1_555 1_555
H3 C5 1_555 1_555
C6 C5 1_555 1_555
C7 C2 1_555 1_555
H4 C7 1_555 1_555
C8 H5 1_555 1_555
C9 C6 1_555 1_555
C10 C11 1_555 1_555
C11 H6 1_555 1_555
C12 C11 1_555 1_555
C13 C9 1_555 1_555
H7 C13 1_555 1_555
C14 C15 1_555 1_555
C15 C13 1_555 1_555
H8 C15 1_555 1_555
C16 C8 1_555 1_555
H9 C16 1_555 1_555
C17 C12 1_555 1_555
H10 C17 1_555 1_555
C18 C14 1_555 1_555
C19 C12 1_555 1_555
C20 C10 1_555 1_555
H11 C20 1_555 1_555
C21 C17 1_555 1_555
C22 C21 1_555 1_555
C23 C10 1_555 1_555
C24 C30 1_555 1_555
C25 H12 1_555 1_555
C26 C25 1_555 1_555
H13 C26 1_555 1_555
C27 C26 1_555 1_555
C28 C27 1_555 1_555
H14 C28 1_555 1_555
C29 C28 1_555 1_555
H15 C29 1_555 1_555
C30 C25 1_555 1_555
C31 C27 1_555 1_555
C32 C31 1_555 1_555
H16 C32 1_555 1_555
C33 C32 1_555 1_555
H17 C33 1_555 1_555
C34 C33 1_555 1_555
C35 C34 1_555 1_555
H18 C35 1_555 1_555
C36 C31 1_555 1_555
H19 C36 1_555 1_555
C37 C34 1_555 1_555
O1 C37 1_555 1_555
O2 C37 1_555 1_555
O3 C24 1_555 1_555
O17 C24 1_555 1_555
O5 Fe1 1_555 1_555
O6 Fe2 1_555 1_555
O7 C22 1_555 1_555
O8 C22 1_555 1_555
O9 C19 1_555 1_555
O10 C19 1_555 1_555
O11 C1 1_555 1_555
O12 C1 1_555 1_555
O13 C18 1_555 1_555
O14 Fe2 1_555 1_555
Fe4 O13 1_555 1_555
Fe5 O9 1_555 1_555
Fe6 O1 1_555 1_555
Fe7 O7 1_555 1_555
Fe8 O2 1_555 1_555
Fe10 O13 1_555 1_555
Fe11 O10 1_555 1_555
Fe12 O11 1_555 1_555
O15 Fe1 1_555 1_555
O16 Fe1 1_555 1_555
O18 Fe2 1_555 1_555
O19 Fe1 1_555 1_555
O20 Fe3 1_555 1_555
O21 Fe3 1_555 1_555
O22 Fe2 1_555 1_555
O24 Fe3 1_555 1_555
O25 Fe3 1_555 1_555
Fe2 O16 1_555 1_555
C6 C7 1_555 1_555
C8 C9 1_555 1_555
C14 C16 1_555 1_555
C18 O14 1_555 1_555
C20 C21 1_555 1_555
C23 O5 1_555 1_555
C23 O6 1_555 1_555
C29 C30 1_555 1_555
C35 C36 1_555 1_555
O2 Fe6 1_555 1_555
O12 Fe8 1_555 1_555
O14 Fe10 1_555 1_555
Fe7 O25 1_555 1_555
C1_2 C3_2 1_555 1_555
C2_2 H1_2 1_555 1_555
C3_2 C2_2 1_555 1_555
C4_2 C3_2 1_555 1_555
H2_2 C4_2 1_555 1_555
C5_2 C4_2 1_555 1_555
H3_2 C5_2 1_555 1_555
C32_2 C31_2 1_555 1_555
C33_2 C32_2 1_555 1_555
H17_2 C33_2 1_555 1_555
C34_2 C33_2 1_555 1_555
C35_2 C34_2 1_555 1_555
H18_2 C35_2 1_555 1_555
C36_2 C31_2 1_555 1_555
H19_2 C36_2 1_555 1_555
C37_2 C34_2 1_555 1_555
O1_2 C37_2 1_555 1_555
O2_2 C37_2 1_555 1_555
O11_2 C1_2 1_555 1_555
O12_2 C1_2 1_555 1_555
Fe6_2 O1_2 1_555 1_555
Fe8_2 O2_2 1_555 1_555
Fe12_2 O11_2 1_555 1_555
C35_2 C36_2 1_555 1_555
O2_2 Fe6_2 1_555 1_555
O12_2 Fe8_2 1_555 1_555
Fe10 O8_2 1_555 1_555
H10_2 C17_2 1_555 1_555
H11_2 C20_2 1_555 1_555
C21_2 C17_2 1_555 1_555
C22_2 C21_2 1_555 1_555
O18 C22_2 1_555 1_555
O8_2 C22_2 1_555 1_555
O17_2 Fe10 1_555 1_555
O20_2 Fe10 1_555 1_555
O21_2 Fe10 1_555 1_555
C20_2 C21_2 1_555 1_555
Fe4 O17_2 1_555 1_555
Fe7 O3_2 1_555 1_555
H4_2 C7_2 1_555 1_555
C8_2 H5_2 1_555 1_555
C9_2 C6_2 1_555 1_555
C10_2 C11_2 1_555 1_555
C11_2 H6_2 1_555 1_555
C12_2 C11_2 1_555 1_555
C13_2 C9_2 1_555 1_555
H7_2 C13_2 1_555 1_555
C14_2 C15_2 1_555 1_555
C15_2 C13_2 1_555 1_555
H8_2 C15_2 1_555 1_555
C16_2 C8_2 1_555 1_555
H9_2 C16_2 1_555 1_555
C18_2 C14_2 1_555 1_555
C23_2 C10_2 1_555 1_555
C24_2 C30_2 1_555 1_555
C25_2 H12_2 1_555 1_555
C26_2 C25_2 1_555 1_555
H13_2 C26_2 1_555 1_555
C27_2 C26_2 1_555 1_555
C28_2 C27_2 1_555 1_555
H14_2 C28_2 1_555 1_555
C29_2 C28_2 1_555 1_555
H15_2 C29_2 1_555 1_555
C30_2 C25_2 1_555 1_555
O3_2 C24_2 1_555 1_555
O17_2 C24_2 1_555 1_555
O5_2 Fe4 1_555 1_555
O6_2 Fe7 1_555 1_555
O24 C18_2 1_555 1_555
O15_2 Fe4 1_555 1_555
O16_2 Fe4 1_555 1_555
O19_2 Fe4 1_555 1_555
O22_2 Fe7 1_555 1_555
Fe7 O16_2 1_555 1_555
C6_2 C7_2 1_555 1_555
C8_2 C9_2 1_555 1_555
C14_2 C16_2 1_555 1_555
C18_2 O25 1_555 1_555
C23_2 O5_2 1_555 1_555
C23_2 O6_2 1_555 1_555
C29_2 C30_2 1_555 1_555
Fe11_2 O10_2 1_555 1_555
O9_2 C19_2 1_555 1_555
Fe5_2 O9_2 1_555 1_555
Fe5 O4 1_555 1_555
C1_3 C3_3 1_555 1_555
Fe2_2 O3_3 1_555 1_555
C2_3 H1_3 1_555 1_555
C3_3 C2_3 1_555 1_555
C4_3 C3_3 1_555 1_555
H2_3 C4_3 1_555 1_555
C5_3 C4_3 1_555 1_555
H3_3 C5_3 1_555 1_555
C6_3 C5_3 1_555 1_555
C7_3 C2_3 1_555 1_555
H4_3 C7_3 1_555 1_555
C8_3 H5_3 1_555 1_555
C9_3 C6_3 1_555 1_555
C10_3 C11_3 1_555 1_555
C11_3 H6_3 1_555 1_555
C12_3 C11_3 1_555 1_555
C13_3 C9_3 1_555 1_555
H7_3 C13_3 1_555 1_555
C14_3 C15_3 1_555 1_555
C15_3 C13_3 1_555 1_555
H8_3 C15_3 1_555 1_555
C16_3 C8_3 1_555 1_555
H9_3 C16_3 1_555 1_555
C18_3 C14_3 1_555 1_555
C19_3 C12_3 1_555 1_555
C23_3 C10_3 1_555 1_555
C24_3 C30_3 1_555 1_555
C25_3 H12_3 1_555 1_555
C26_3 C25_3 1_555 1_555
H13_3 C26_3 1_555 1_555
C27_3 C26_3 1_555 1_555
C28_3 C27_3 1_555 1_555
H14_3 C28_3 1_555 1_555
C29_3 C28_3 1_555 1_555
H15_3 C29_3 1_555 1_555
C30_3 C25_3 1_555 1_555
C31_3 C27_3 1_555 1_555
C32_3 C31_3 1_555 1_555
H16_3 C32_3 1_555 1_555
C33_3 C32_3 1_555 1_555
H17_3 C33_3 1_555 1_555
C34_3 C33_3 1_555 1_555
C35_3 C34_3 1_555 1_555
H18_3 C35_3 1_555 1_555
C36_3 C31_3 1_555 1_555
H19_3 C36_3 1_555 1_555
C37_3 C34_3 1_555 1_555
O1_3 C37_3 1_555 1_555
O2_3 C37_3 1_555 1_555
O3_3 C24_3 1_555 1_555
O4 C24_3 1_555 1_555
O5_3 Fe5 1_555 1_555
O6_3 Fe2_2 1_555 1_555
O19 C19_3 1_555 1_555
O11_3 C1_3 1_555 1_555
O12_3 C1_3 1_555 1_555
O13_2 C18_3 1_555 1_555
O14_2 Fe2_2 1_555 1_555
Fe6_3 O1_3 1_555 1_555
Fe8_3 O2_3 1_555 1_555
Fe11 O4 1_555 1_555
Fe11_2 O13_2 1_555 1_555
Fe12_3 O11_3 1_555 1_555
O15_3 Fe5 1_555 1_555
O16_3 Fe5 1_555 1_555
O18_2 Fe2_2 1_555 1_555
O22_3 Fe2_2 1_555 1_555
O23 Fe5 1_555 1_555
Fe2_2 O16_3 1_555 1_555
C6_3 C7_3 1_555 1_555
C8_3 C9_3 1_555 1_555
C14_3 C16_3 1_555 1_555
C18_3 O14_2 1_555 1_555
C23_3 O5_3 1_555 1_555
C23_3 O6_3 1_555 1_555
C29_3 C30_3 1_555 1_555
C35_3 C36_3 1_555 1_555
O2_3 Fe6_3 1_555 1_555
O12_3 Fe8_3 1_555 1_555
O14_2 Fe11_2 1_555 1_555
Fe11 O23 1_555 1_555
Fe11 O8_3 1_555 1_555
H10_3 C17_3 1_555 1_555
H11_3 C20_3 1_555 1_555
C21_3 C17_3 1_555 1_555
C22_3 C21_3 1_555 1_555
O7_2 C22_3 1_555 1_555
O8_3 C22_3 1_555 1_555
Fe7_2 O7_2 1_555 1_555
O21_3 Fe11 1_555 1_555
O25_2 Fe11 1_555 1_555
C20_3 C21_3 1_555 1_555
Fe7_2 O25_2 1_555 1_555
O19_2 C19_4 1_555 1_555
O20_2 C19_4 1_555 1_555
C1_4 C3_4 1_555 1_555
C2_4 H1_4 1_555 1_555
C3_4 C2_4 1_555 1_555
C4_4 C3_4 1_555 1_555
H2_4 C4_4 1_555 1_555
C5_4 C4_4 1_555 1_555
H3_4 C5_4 1_555 1_555
C32_4 C31_4 1_555 1_555
C33_4 C32_4 1_555 1_555
H17_4 C33_4 1_555 1_555
C34_4 C33_4 1_555 1_555
C35_4 C34_4 1_555 1_555
H18_4 C35_4 1_555 1_555
C36_4 C31_4 1_555 1_555
H19_4 C36_4 1_555 1_555
C37_4 C34_4 1_555 1_555
O1_4 C37_4 1_555 1_555
O2_4 C37_4 1_555 1_555
O11_4 C1_4 1_555 1_555
O12_4 C1_4 1_555 1_555
Fe6_4 O1_4 1_555 1_555
Fe8_4 O2_4 1_555 1_555
Fe12_4 O11_4 1_555 1_555
C35_4 C36_4 1_555 1_555
O2_4 Fe6_4 1_555 1_555
O12_4 Fe8_4 1_555 1_555
Fe5_2 O4_2 1_555 1_555
Fe7_2 O3_4 1_555 1_555
Fe11_2 O8_4 1_555 1_555
H4_4 C7_4 1_555 1_555
C8_4 H5_4 1_555 1_555
C9_4 C6_4 1_555 1_555
C10_4 C11_4 1_555 1_555
C11_4 H6_4 1_555 1_555
C12_4 C11_4 1_555 1_555
C13_4 C9_4 1_555 1_555
H7_4 C13_4 1_555 1_555
C14_4 C15_4 1_555 1_555
C15_4 C13_4 1_555 1_555
H8_4 C15_4 1_555 1_555
C16_4 C8_4 1_555 1_555
H9_4 C16_4 1_555 1_555
C17_4 C12_4 1_555 1_555
H10_4 C17_4 1_555 1_555
C18_4 C14_4 1_555 1_555
C20_4 C10_4 1_555 1_555
H11_4 C20_4 1_555 1_555
C21_4 C17_4 1_555 1_555
C22_4 C21_4 1_555 1_555
C23_4 C10_4 1_555 1_555
C24_4 C30_4 1_555 1_555
C25_4 H12_4 1_555 1_555
C26_4 C25_4 1_555 1_555
H13_4 C26_4 1_555 1_555
C27_4 C26_4 1_555 1_555
C28_4 C27_4 1_555 1_555
H14_4 C28_4 1_555 1_555
C29_4 C28_4 1_555 1_555
H15_4 C29_4 1_555 1_555
C30_4 C25_4 1_555 1_555
O3_4 C24_4 1_555 1_555
O4_2 C24_4 1_555 1_555
O5_4 Fe5_2 1_555 1_555
O6_4 Fe7_2 1_555 1_555
O18_2 C22_4 1_555 1_555
O8_4 C22_4 1_555 1_555
O23 C18_4 1_555 1_555
O15_4 Fe5_2 1_555 1_555
O16_4 Fe5_2 1_555 1_555
O21_4 Fe11_2 1_555 1_555
O22_4 Fe7_2 1_555 1_555
Fe7_2 O16_4 1_555 1_555
C6_4 C7_4 1_555 1_555
C8_4 C9_4 1_555 1_555
C14_4 C16_4 1_555 1_555
C18_4 O25_2 1_555 1_555
C20_4 C21_4 1_555 1_555
C23_4 O5_4 1_555 1_555
C23_4 O6_4 1_555 1_555
C29_4 C30_4 1_555 1_555
Fe12_3 O23_2 1_555 1_555
Fe6_4 O4_3 1_555 1_555
C1_5 C3_5 1_555 1_555
Fe8_4 O3_5 1_555 1_555
C2_5 H1_5 1_555 1_555
Fe12_3 O8_5 1_555 1_555
C3_5 C2_5 1_555 1_555
C4_5 C3_5 1_555 1_555
H2_5 C4_5 1_555 1_555
C5_5 C4_5 1_555 1_555
H3_5 C5_5 1_555 1_555
C6_5 C5_5 1_555 1_555
C7_5 C2_5 1_555 1_555
H4_5 C7_5 1_555 1_555
C8_5 H5_5 1_555 1_555
C9_5 C6_5 1_555 1_555
C10_5 C11_5 1_555 1_555
C11_5 H6_5 1_555 1_555
C12_5 C11_5 1_555 1_555
C13_5 C9_5 1_555 1_555
H7_5 C13_5 1_555 1_555
C14_5 C15_5 1_555 1_555
C15_5 C13_5 1_555 1_555
H8_5 C15_5 1_555 1_555
C16_5 C8_5 1_555 1_555
H9_5 C16_5 1_555 1_555
C17_5 C12_5 1_555 1_555
H10_5 C17_5 1_555 1_555
C18_5 C14_5 1_555 1_555
C19_5 C12_5 1_555 1_555
C20_5 C10_5 1_555 1_555
H11_5 C20_5 1_555 1_555
C21_5 C17_5 1_555 1_555
C22_5 C21_5 1_555 1_555
C23_5 C10_5 1_555 1_555
C24_5 C30_5 1_555 1_555
C25_5 H12_5 1_555 1_555
C26_5 C25_5 1_555 1_555
H13_5 C26_5 1_555 1_555
C27_5 C26_5 1_555 1_555
C28_5 C27_5 1_555 1_555
H14_5 C28_5 1_555 1_555
C29_5 C28_5 1_555 1_555
H15_5 C29_5 1_555 1_555
C30_5 C25_5 1_555 1_555
C31_5 C27_5 1_555 1_555
C32_5 C31_5 1_555 1_555
H16_5 C32_5 1_555 1_555
C33_5 C32_5 1_555 1_555
H17_5 C33_5 1_555 1_555
C34_5 C33_5 1_555 1_555
C35_5 C34_5 1_555 1_555
H18_5 C35_5 1_555 1_555
C36_5 C31_5 1_555 1_555
H19_5 C36_5 1_555 1_555
C37_5 C34_5 1_555 1_555
O15_4 C37_5 1_555 1_555
O16_4 C37_5 1_555 1_555
O3_5 C24_5 1_555 1_555
O4_3 C24_5 1_555 1_555
O5_5 Fe6_4 1_555 1_555
O6_5 Fe8_4 1_555 1_555
O7_3 C22_5 1_555 1_555
O8_5 C22_5 1_555 1_555
O9_3 C19_5 1_555 1_555
O10_3 C19_5 1_555 1_555
O21_3 C1_5 1_555 1_555
O22_4 C1_5 1_555 1_555
O13_3 C18_5 1_555 1_555
O14_3 Fe8_4 1_555 1_555
Fe6_3 O13_3 1_555 1_555
Fe6_2 O9_3 1_555 1_555
Fe8_3 O7_3 1_555 1_555
Fe12_4 O13_3 1_555 1_555
Fe12 O10_3 1_555 1_555
O18_3 Fe8_4 1_555 1_555
O19_3 Fe6_4 1_555 1_555
O20_3 Fe12_3 1_555 1_555
O25_3 Fe12_3 1_555 1_555
C6_5 C7_5 1_555 1_555
C8_5 C9_5 1_555 1_555
C14_5 C16_5 1_555 1_555
C18_5 O14_3 1_555 1_555
C20_5 C21_5 1_555 1_555
C23_5 O5_5 1_555 1_555
C23_5 O6_5 1_555 1_555
C29_5 C30_5 1_555 1_555
C35_5 C36_5 1_555 1_555
O14_3 Fe12_4 1_555 1_555
Fe8_3 O25_3 1_555 1_555
O9_4 C19_6 1_555 1_555
Fe6 O9_4 1_555 1_555
Fe12_2 O10_4 1_555 1_555
Fe6_3 O4_4 1_555 1_555
Fe8_3 O3_6 1_555 1_555
H4_6 C7_6 1_555 1_555
C8_6 H5_6 1_555 1_555
C9_6 C6_6 1_555 1_555
C10_6 C11_6 1_555 1_555
C11_6 H6_6 1_555 1_555
C12_6 C11_6 1_555 1_555
C13_6 C9_6 1_555 1_555
H7_6 C13_6 1_555 1_555
C14_6 C15_6 1_555 1_555
C15_6 C13_6 1_555 1_555
H8_6 C15_6 1_555 1_555
C16_6 C8_6 1_555 1_555
H9_6 C16_6 1_555 1_555
C18_6 C14_6 1_555 1_555
C23_6 C10_6 1_555 1_555
C24_6 C30_6 1_555 1_555
C25_6 H12_6 1_555 1_555
C26_6 C25_6 1_555 1_555
H13_6 C26_6 1_555 1_555
C27_6 C26_6 1_555 1_555
C28_6 C27_6 1_555 1_555
H14_6 C28_6 1_555 1_555
C29_6 C28_6 1_555 1_555
H15_6 C29_6 1_555 1_555
C30_6 C25_6 1_555 1_555
O3_6 C24_6 1_555 1_555
O4_4 C24_6 1_555 1_555
O5_6 Fe6_3 1_555 1_555
O6_6 Fe8_3 1_555 1_555
O23_2 C18_6 1_555 1_555
Fe12_4 O4_4 1_555 1_555
O19_4 Fe6_3 1_555 1_555
C6_6 C7_6 1_555 1_555
C8_6 C9_6 1_555 1_555
C14_6 C16_6 1_555 1_555
C18_6 O25_3 1_555 1_555
C23_6 O5_6 1_555 1_555
C23_6 O6_6 1_555 1_555
C29_6 C30_6 1_555 1_555
Fe12_4 O8_6 1_555 1_555
H10_6 C17_6 1_555 1_555
H11_6 C20_6 1_555 1_555
C21_6 C17_6 1_555 1_555
C22_6 C21_6 1_555 1_555
O18_3 C22_6 1_555 1_555
O8_6 C22_6 1_555 1_555
O20_4 Fe12_4 1_555 1_555
C20_6 C21_6 1_555 1_555
C1_6 C3_6 1_555 1_555
C2_6 H1_6 1_555 1_555
C3_6 C2_6 1_555 1_555
C4_6 C3_6 1_555 1_555
H2_6 C4_6 1_555 1_555
C5_6 C4_6 1_555 1_555
H3_6 C5_6 1_555 1_555
C32_6 C31_6 1_555 1_555
C33_6 C32_6 1_555 1_555
H17_6 C33_6 1_555 1_555
C34_6 C33_6 1_555 1_555
C35_6 C34_6 1_555 1_555
H18_6 C35_6 1_555 1_555
C36_6 C31_6 1_555 1_555
H19_6 C36_6 1_555 1_555
C37_6 C34_6 1_555 1_555
O15_3 C37_6 1_555 1_555
O16_3 C37_6 1_555 1_555
O21_4 C1_6 1_555 1_555
O22_3 C1_6 1_555 1_555
C35_6 C36_6 1_555 1_555
Fe12 O8_7 1_555 1_555
H10_7 C17_7 1_555 1_555
H11_7 C20_7 1_555 1_555
C21_7 C17_7 1_555 1_555
C22_7 C21_7 1_555 1_555
O7_4 C22_7 1_555 1_555
O8_7 C22_7 1_555 1_555
Fe8 O7_4 1_555 1_555
O17_3 Fe12 1_555 1_555
O24_2 Fe12 1_555 1_555
O25_4 Fe12 1_555 1_555
C20_7 C21_7 1_555 1_555
Fe8 O25_4 1_555 1_555
Fe6_2 O17_3 1_555 1_555
C1_7 C3_7 1_555 1_555
Fe8_2 O3_7 1_555 1_555
C2_7 H1_7 1_555 1_555
C3_7 C2_7 1_555 1_555
C4_7 C3_7 1_555 1_555
H2_7 C4_7 1_555 1_555
C5_7 C4_7 1_555 1_555
H3_7 C5_7 1_555 1_555
C6_7 C5_7 1_555 1_555
C7_7 C2_7 1_555 1_555
H4_7 C7_7 1_555 1_555
C8_7 H5_7 1_555 1_555
C9_7 C6_7 1_555 1_555
C10_7 C11_7 1_555 1_555
C11_7 H6_7 1_555 1_555
C12_7 C11_7 1_555 1_555
C13_7 C9_7 1_555 1_555
H7_7 C13_7 1_555 1_555
C14_7 C15_7 1_555 1_555
C15_7 C13_7 1_555 1_555
H8_7 C15_7 1_555 1_555
C16_7 C8_7 1_555 1_555
H9_7 C16_7 1_555 1_555
C18_7 C14_7 1_555 1_555
C19_7 C12_7 1_555 1_555
C23_7 C10_7 1_555 1_555
C24_7 C30_7 1_555 1_555
C25_7 H12_7 1_555 1_555
C26_7 C25_7 1_555 1_555
H13_7 C26_7 1_555 1_555
C27_7 C26_7 1_555 1_555
C28_7 C27_7 1_555 1_555
H14_7 C28_7 1_555 1_555
C29_7 C28_7 1_555 1_555
H15_7 C29_7 1_555 1_555
C30_7 C25_7 1_555 1_555
C31_7 C27_7 1_555 1_555
C32_7 C31_7 1_555 1_555
H16_7 C32_7 1_555 1_555
C33_7 C32_7 1_555 1_555
H17_7 C33_7 1_555 1_555
C34_7 C33_7 1_555 1_555
C35_7 C34_7 1_555 1_555
H18_7 C35_7 1_555 1_555
C36_7 C31_7 1_555 1_555
H19_7 C36_7 1_555 1_555
C37_7 C34_7 1_555 1_555
O15_2 C37_7 1_555 1_555
O16_2 C37_7 1_555 1_555
O3_7 C24_7 1_555 1_555
O17_3 C24_7 1_555 1_555
O5_7 Fe6_2 1_555 1_555
O6_7 Fe8_2 1_555 1_555
O19_3 C19_7 1_555 1_555
O21 C1_7 1_555 1_555
O22_2 C1_7 1_555 1_555
O13_4 C18_7 1_555 1_555
O14_4 Fe8_2 1_555 1_555
Fe12_2 O13_4 1_555 1_555
O18_4 Fe8_2 1_555 1_555
O24_2 Fe6_2 1_555 1_555
C6_7 C7_7 1_555 1_555
C8_7 C9_7 1_555 1_555
C14_7 C16_7 1_555 1_555
C18_7 O14_4 1_555 1_555
C23_7 O5_7 1_555 1_555
C23_7 O6_7 1_555 1_555
C29_7 C30_7 1_555 1_555
C35_7 C36_7 1_555 1_555
O14_4 Fe12_2 1_555 1_555
Fe6 O17_4 1_555 1_555
Fe8 O3_8 1_555 1_555
Fe12_2 O8_8 1_555 1_555
H4_8 C7_8 1_555 1_555
C8_8 H5_8 1_555 1_555
C9_8 C6_8 1_555 1_555
C10_8 C11_8 1_555 1_555
C11_8 H6_8 1_555 1_555
C12_8 C11_8 1_555 1_555
C13_8 C9_8 1_555 1_555
H7_8 C13_8 1_555 1_555
C14_8 C15_8 1_555 1_555
C15_8 C13_8 1_555 1_555
H8_8 C15_8 1_555 1_555
C16_8 C8_8 1_555 1_555
H9_8 C16_8 1_555 1_555
C17_8 C12_8 1_555 1_555
H10_8 C17_8 1_555 1_555
C18_8 C14_8 1_555 1_555
C20_8 C10_8 1_555 1_555
H11_8 C20_8 1_555 1_555
C21_8 C17_8 1_555 1_555
C22_8 C21_8 1_555 1_555
C23_8 C10_8 1_555 1_555
C24_8 C30_8 1_555 1_555
C25_8 H12_8 1_555 1_555
C26_8 C25_8 1_555 1_555
H13_8 C26_8 1_555 1_555
C27_8 C26_8 1_555 1_555
C28_8 C27_8 1_555 1_555
H14_8 C28_8 1_555 1_555
C29_8 C28_8 1_555 1_555
H15_8 C29_8 1_555 1_555
C30_8 C25_8 1_555 1_555
O3_8 C24_8 1_555 1_555
O17_4 C24_8 1_555 1_555
O5_8 Fe6 1_555 1_555
O6_8 Fe8 1_555 1_555
O18_4 C22_8 1_555 1_555
O8_8 C22_8 1_555 1_555
O24_2 C18_8 1_555 1_555
C6_8 C7_8 1_555 1_555
C8_8 C9_8 1_555 1_555
C14_8 C16_8 1_555 1_555
C18_8 O25_4 1_555 1_555
C20_8 C21_8 1_555 1_555
C23_8 O5_8 1_555 1_555
C23_8 O6_8 1_555 1_555
C29_8 C30_8 1_555 1_555
C1_8 C3_8 1_555 1_555
C2_8 H1_8 1_555 1_555
C3_8 C2_8 1_555 1_555
C4_8 C3_8 1_555 1_555
H2_8 C4_8 1_555 1_555
C5_8 C4_8 1_555 1_555
H3_8 C5_8 1_555 1_555
C32_8 C31_8 1_555 1_555
C33_8 C32_8 1_555 1_555
H17_8 C33_8 1_555 1_555
C34_8 C33_8 1_555 1_555
C35_8 C34_8 1_555 1_555
H18_8 C35_8 1_555 1_555
C36_8 C31_8 1_555 1_555
H19_8 C36_8 1_555 1_555
C37_8 C34_8 1_555 1_555
O15 C37_8 1_555 1_555
O16 C37_8 1_555 1_555
O21_2 C1_8 1_555 1_555
O22 C1_8 1_555 1_555
C35_8 C36_8 1_555 1_555
O19_4 C19_8 1_555 1_555
O20_4 C19_8 1_555 1_555

#END
