
###############################################################################
#
# This file contains modified crystal structure data generated from the
# MOF subset of the Cambridge Structural Database (CSD) v543 
# hosted by the Cambridge Crystallographic Data Centre (CCDC).
#
# This work is licensed under the Creative Commons
# Attribution-NonCommercial-ShareAlike 4.0 International License.
# To view a copy of this license, visit
# http://creativecommons.org/licenses/by-nc-sa/4.0/
# or send a letter to
# Creative Commons, PO Box 1866, Mountain View, CA 94042, USA.
#
# CIF created using the CSD Python API on 29 September 2022
# The structure has been converted into the P1 space group
# The structure has a 3D framework
# The original CSD entry HIYBUN is in the orthorhombic crystal system
# The framework has been calculated to contain at least 10.0% void space
# The void calculation uses a probe of radius 1.32A, grid spacing 0.4
#
###############################################################################

data_HIYBUN
_chemical_formula_moiety         '(C288 H192 Br48 N96 Zn29)n'
_symmetry_cell_setting           triclinic
_symmetry_space_group_name_H-M   'P 1'
_symmetry_Int_Tables_number      1
_space_group_name_Hall           'P 1'
loop_
_symmetry_equiv_pos_site_id
_symmetry_equiv_pos_as_xyz
1 x,y,z
_cell_length_a                   49.574(6)
_cell_length_b                   50.307(6)
_cell_length_c                   6.1937(8)
_cell_angle_alpha                90
_cell_angle_beta                 90
_cell_angle_gamma                90
_cell_volume                     15446.6
loop_
_atom_site_label
_atom_site_type_symbol
_atom_site_fract_x
_atom_site_fract_y
_atom_site_fract_z
Br3 Br 0.791753(6) 0.242486(6) 0.97519(5)
Zn2 Zn 0.7500 0.2500 0.80928(8)
C8 C 0.74181(5) 0.17280(5) 0.0128(5)
C9 C 0.72104(6) 0.21658(5) 0.4768(5)
H5 H 0.7053 0.2251 0.5307
C10 C 0.71887(6) 0.20084(5) 0.2944(5)
H6 H 0.7019 0.1984 0.2255
C11 C 0.74190(6) 0.18866(5) 0.2141(5)
C12 C 0.76618(6) 0.19229(6) 0.3230(5)
H7 H 0.7822 0.1840 0.2725
C13 C 0.76667(6) 0.20801(6) 0.5048(5)
H8 H 0.7833 0.2103 0.5795
N5 N 0.74450(5) 0.22035(5) 0.5807(4)
Br6 Br 0.708247(6) 0.257514(6) 0.97519(5)
C26 C 0.75819(5) 0.32720(5) 0.0128(5)
C27 C 0.77896(6) 0.28342(5) 0.4768(5)
H17 H 0.7947 0.2749 0.5307
C28 C 0.78113(6) 0.29916(5) 0.2944(5)
H18 H 0.7981 0.3016 0.2255
C29 C 0.75810(6) 0.31134(5) 0.2141(5)
C30 C 0.73382(6) 0.30771(6) 0.3230(5)
H19 H 0.7178 0.3160 0.2725
C31 C 0.73333(6) 0.29199(6) 0.5048(5)
H20 H 0.7167 0.2897 0.5795
N11 N 0.75550(5) 0.27965(5) 0.5807(4)
Zn1 Zn 0.623470(6) 0.138655(6) 0.08231(6)
C1 C 0.67611(6) 0.12968(6) 0.2841(5)
H1 H 0.6775 0.1175 0.1673
C2 C 0.69777(6) 0.13264(6) 0.4210(5)
H2 H 0.7138 0.1226 0.3987
C3 C 0.69602(5) 0.15034(5) 0.5916(5)
C4 C 0.67208(5) 0.16414(6) 0.6234(5)
H3 H 0.6701 0.1760 0.7415
C5 C 0.65118(5) 0.16014(6) 0.4785(5)
H4 H 0.6348 0.1696 0.4994
C6 C 0.72026(5) 0.15506(5) 0.7268(5)
C7 C 0.76531(5) 0.15058(6) 0.7600(5)
C14 C 0.83910(6) 0.13717(6) 0.6738(5)
H9 H 0.8558 0.1405 0.7438
C15 C 0.81561(6) 0.14596(6) 0.7716(5)
H10 H 0.8161 0.1549 0.9066
C16 C 0.79127(5) 0.14132(6) 0.6669(5)
C17 C 0.79145(6) 0.12829(6) 0.4699(5)
H11 H 0.7751 0.1251 0.3945
C18 C 0.81570(6) 0.11995(6) 0.3848(5)
H12 H 0.8157 0.1109 0.2503
N1 N 0.65297(5) 0.14342(5) 0.3098(4)
N2 N 0.71829(5) 0.16916(5) 0.9095(4)
N3 N 0.76579(5) 0.16401(5) 0.9454(4)
N4 N 0.74323(5) 0.14526(5) 0.6460(4)
N6 N 0.83935(5) 0.12420(5) 0.4853(4)
Zn3 Zn 0.876530(6) 0.361345(6) 0.08231(6)
Zn4 Zn 0.873470(6) 0.111345(6) 0.33231(6)
Zn5 Zn 0.626530(6) 0.388655(6) 0.33231(6)
C19 C 0.82389(6) 0.37032(6) 0.2841(5)
H13 H 0.8225 0.3825 0.1673
C20 C 0.80223(6) 0.36736(6) 0.4210(5)
H14 H 0.7862 0.3774 0.3987
C21 C 0.80398(5) 0.34966(5) 0.5916(5)
C22 C 0.82792(5) 0.33586(6) 0.6234(5)
H15 H 0.8299 0.3240 0.7415
C23 C 0.84882(5) 0.33986(6) 0.4785(5)
H16 H 0.8652 0.3304 0.4994
C24 C 0.77974(5) 0.34494(5) 0.7268(5)
C25 C 0.73469(5) 0.34942(6) 0.7600(5)
C32 C 0.66090(6) 0.36283(6) 0.6738(5)
H21 H 0.6442 0.3595 0.7438
C33 C 0.68439(6) 0.35404(6) 0.7716(5)
H22 H 0.6839 0.3451 0.9066
C34 C 0.70873(5) 0.35868(6) 0.6669(5)
C35 C 0.70855(6) 0.37171(6) 0.4699(5)
H23 H 0.7249 0.3749 0.3945
C36 C 0.68430(6) 0.38005(6) 0.3848(5)
H24 H 0.6843 0.3891 0.2503
N7 N 0.84703(5) 0.35658(5) 0.3098(4)
N8 N 0.78171(5) 0.33084(5) 0.9095(4)
N9 N 0.73421(5) 0.33599(5) 0.9454(4)
N10 N 0.75677(5) 0.35474(5) 0.6460(4)
N12 N 0.66065(5) 0.37580(5) 0.4853(4)
N13 N 0.58935(5) 0.12580(5) 0.2353(4)
N14 N 0.91065(5) 0.37420(5) 0.2353(4)
Zn1_2 Zn 0.376530(6) 0.861345(6) 0.08231(6)
C1_2 C 0.32389(6) 0.87032(6) 0.2841(5)
H1_2 H 0.3225 0.8825 0.1673
C2_2 C 0.30223(6) 0.86736(6) 0.4210(5)
H2_2 H 0.2862 0.8774 0.3987
C3_2 C 0.30398(5) 0.84966(5) 0.5916(5)
C4_2 C 0.32792(5) 0.83586(6) 0.6234(5)
H3_2 H 0.3299 0.8240 0.7415
C5_2 C 0.34882(5) 0.83986(6) 0.4785(5)
H4_2 H 0.3652 0.8304 0.4994
C6_2 C 0.27974(5) 0.84494(5) 0.7268(5)
C7_2 C 0.23469(5) 0.84942(6) 0.7600(5)
C14_2 C 0.16090(6) 0.86283(6) 0.6738(5)
H9_2 H 0.1442 0.8595 0.7438
C15_2 C 0.18439(6) 0.85404(6) 0.7716(5)
H10_2 H 0.1839 0.8451 0.9066
C16_2 C 0.20873(5) 0.85868(6) 0.6669(5)
C17_2 C 0.20855(6) 0.87171(6) 0.4699(5)
H11_2 H 0.2249 0.8749 0.3945
C18_2 C 0.18430(6) 0.88005(6) 0.3848(5)
H12_2 H 0.1843 0.8891 0.2503
N1_2 N 0.34703(5) 0.85658(5) 0.3098(4)
N2_2 N 0.28171(5) 0.83084(5) 0.9095(4)
N3_2 N 0.23421(5) 0.83599(5) 0.9454(4)
N4_2 N 0.25677(5) 0.85474(5) 0.6460(4)
N6_2 N 0.16065(5) 0.87580(5) 0.4853(4)
Zn3_2 Zn 0.123470(6) 0.638655(6) 0.08231(6)
Zn4_2 Zn 0.126530(6) 0.888655(6) 0.33231(6)
Zn5_2 Zn 0.373470(6) 0.611345(6) 0.33231(6)
C19_2 C 0.17611(6) 0.62968(6) 0.2841(5)
H13_2 H 0.1775 0.6175 0.1673
C20_2 C 0.19777(6) 0.63264(6) 0.4210(5)
H14_2 H 0.2138 0.6226 0.3987
C21_2 C 0.19602(5) 0.65034(5) 0.5916(5)
C22_2 C 0.17208(5) 0.66414(6) 0.6234(5)
H15_2 H 0.1701 0.6760 0.7415
C23_2 C 0.15118(5) 0.66014(6) 0.4785(5)
H16_2 H 0.1348 0.6696 0.4994
C24_2 C 0.22026(5) 0.65506(5) 0.7268(5)
C25_2 C 0.26531(5) 0.65058(6) 0.7600(5)
C32_2 C 0.33910(6) 0.63717(6) 0.6738(5)
H21_2 H 0.3558 0.6405 0.7438
C33_2 C 0.31561(6) 0.64596(6) 0.7716(5)
H22_2 H 0.3161 0.6549 0.9066
C34_2 C 0.29127(5) 0.64132(6) 0.6669(5)
C35_2 C 0.29145(6) 0.62829(6) 0.4699(5)
H23_2 H 0.2751 0.6251 0.3945
C36_2 C 0.31570(6) 0.61995(6) 0.3848(5)
H24_2 H 0.3157 0.6109 0.2503
N7_2 N 0.15297(5) 0.64342(5) 0.3098(4)
N8_2 N 0.21829(5) 0.66916(5) 0.9095(4)
N9_2 N 0.26579(5) 0.66401(5) 0.9454(4)
N10_2 N 0.24323(5) 0.64526(5) 0.6460(4)
N12_2 N 0.33935(5) 0.62420(5) 0.4853(4)
N13_2 N 0.41065(5) 0.87420(5) 0.2353(4)
N14_2 N 0.08935(5) 0.62580(5) 0.2353(4)
C14_3 C 0.08910(6) 0.11283(6) 0.9238(5)
H9_3 H 0.1058 0.1095 0.9938
C16_3 C 0.04127(5) 0.10868(6) 0.9169(5)
C17_3 C 0.04145(6) 0.12171(6) 0.7199(5)
H11_3 H 0.0251 0.1249 0.6445
C18_3 C 0.06570(6) 0.13005(6) 0.6348(5)
H12_3 H 0.0657 0.1391 0.5003
N6_3 N 0.08935(5) 0.12580(5) 0.7353(4)
Zn4_3 Zn 0.123470(6) 0.138655(6) 0.58231(6)
Br4 Br 0.139885(6) 0.930422(6) 0.19073(5)
Br5 Br 0.110833(5) 0.854880(6) 0.09990(5)
C19_3 C 0.07389(6) 0.87968(6) 0.5341(5)
H13_3 H 0.0725 0.8675 0.4173
C20_3 C 0.05223(6) 0.88264(6) 0.6710(5)
H14_3 H 0.0362 0.8726 0.6487
C21_3 C 0.05398(5) 0.90034(5) 0.8416(5)
C22_3 C 0.07792(5) 0.91414(6) 0.8734(5)
H15_3 H 0.0799 0.9260 0.9915
C23_3 C 0.09882(5) 0.91014(6) 0.7285(5)
H16_3 H 0.1152 0.9196 0.7494
C24_3 C 0.02974(5) 0.90506(5) 0.9768(5)
N7_3 N 0.09703(5) 0.89342(5) 0.5598(4)
N10_3 N 0.00677(5) 0.89526(5) 0.8960(4)
Br1 Br 0.860115(6) 0.069578(6) 0.19073(5)
Br2 Br 0.889167(5) 0.145120(6) 0.09990(5)
C1_3 C 0.92611(6) 0.12032(6) 0.5341(5)
H1_3 H 0.9275 0.1325 0.4173
C2_3 C 0.94777(6) 0.11736(6) 0.6710(5)
H2_3 H 0.9638 0.1274 0.6487
C3_3 C 0.94602(5) 0.09966(5) 0.8416(5)
C4_3 C 0.92208(5) 0.08586(6) 0.8734(5)
H3_3 H 0.9201 0.0740 0.9915
C5_3 C 0.90118(5) 0.08986(6) 0.7285(5)
H4_3 H 0.8848 0.0804 0.7494
C6_3 C 0.97026(5) 0.09494(5) 0.9768(5)
N1_3 N 0.90297(5) 0.10658(5) 0.5598(4)
N4_3 N 0.99323(5) 0.10474(5) 0.8960(4)
Zn5_3 Zn 0.876530(6) 0.861345(6) 0.58231(6)
C32_3 C 0.91090(6) 0.88717(6) 0.9238(5)
H21_3 H 0.8942 0.8905 0.9938
C34_3 C 0.95873(5) 0.89132(6) 0.9169(5)
C35_3 C 0.95855(6) 0.87829(6) 0.7199(5)
H23_3 H 0.9749 0.8751 0.6445
C36_3 C 0.93430(6) 0.86995(6) 0.6348(5)
H24_3 H 0.9343 0.8609 0.5003
N12_3 N 0.91065(5) 0.87420(5) 0.7353(4)
Br1_2 Br 0.639885(6) 0.430422(6) 0.19073(5)
Br2_2 Br 0.610833(5) 0.354880(6) 0.09990(5)
C1_4 C 0.57389(6) 0.37968(6) 0.5341(5)
H1_4 H 0.5725 0.3675 0.4173
C2_4 C 0.55223(6) 0.38264(6) 0.6710(5)
H2_4 H 0.5362 0.3726 0.6487
C3_4 C 0.55398(5) 0.40034(5) 0.8416(5)
C4_4 C 0.57792(5) 0.41414(6) 0.8734(5)
H3_4 H 0.5799 0.4260 0.9915
C5_4 C 0.59882(5) 0.41014(6) 0.7285(5)
H4_4 H 0.6152 0.4196 0.7494
C6_4 C 0.52974(5) 0.40506(5) 0.9768(5)
C14_4 C 0.41090(6) 0.38717(6) 0.9238(5)
H9_4 H 0.3942 0.3905 0.9938
C16_4 C 0.45873(5) 0.39132(6) 0.9169(5)
C17_4 C 0.45855(6) 0.37829(6) 0.7199(5)
H11_4 H 0.4749 0.3751 0.6445
C18_4 C 0.43430(6) 0.36995(6) 0.6348(5)
H12_4 H 0.4343 0.3609 0.5003
N1_4 N 0.59703(5) 0.39342(5) 0.5598(4)
N4_4 N 0.50677(5) 0.39526(5) 0.8960(4)
N6_4 N 0.41065(5) 0.37420(5) 0.7353(4)
Br4_2 Br 0.360115(6) 0.569578(6) 0.19073(5)
Br5_2 Br 0.389167(5) 0.645120(6) 0.09990(5)
Zn4_4 Zn 0.376530(6) 0.361345(6) 0.58231(6)
Zn5_4 Zn 0.623470(6) 0.638655(6) 0.58231(6)
C19_4 C 0.42611(6) 0.62032(6) 0.5341(5)
H13_4 H 0.4275 0.6325 0.4173
C20_4 C 0.44777(6) 0.61736(6) 0.6710(5)
H14_4 H 0.4638 0.6274 0.6487
C21_4 C 0.44602(5) 0.59966(5) 0.8416(5)
C22_4 C 0.42208(5) 0.58586(6) 0.8734(5)
H15_4 H 0.4201 0.5740 0.9915
C23_4 C 0.40118(5) 0.58986(6) 0.7285(5)
H16_4 H 0.3848 0.5804 0.7494
C24_4 C 0.47026(5) 0.59494(5) 0.9768(5)
C32_4 C 0.58910(6) 0.61283(6) 0.9238(5)
H21_4 H 0.6058 0.6095 0.9938
C34_4 C 0.54127(5) 0.60868(6) 0.9169(5)
C35_4 C 0.54145(6) 0.62171(6) 0.7199(5)
H23_4 H 0.5251 0.6249 0.6445
C36_4 C 0.56570(6) 0.63005(6) 0.6348(5)
H24_4 H 0.5657 0.6391 0.5003
N7_4 N 0.40297(5) 0.60658(5) 0.5598(4)
N10_4 N 0.49323(5) 0.60474(5) 0.8960(4)
N12_4 N 0.58935(5) 0.62580(5) 0.7353(4)
Br1_3 Br 0.610115(6) 0.680422(6) 0.44073(5)
Br2_3 Br 0.639167(5) 0.604880(6) 0.34990(5)
C1_5 C 0.67611(6) 0.62968(6) 0.7841(5)
H1_5 H 0.6775 0.6175 0.6673
C2_5 C 0.69777(6) 0.63264(6) 0.9210(5)
H2_5 H 0.7138 0.6226 0.8987
C5_5 C 0.65118(5) 0.66014(6) 0.9785(5)
H4_5 H 0.6348 0.6696 0.9994
C17_5 C 0.79145(6) 0.62829(6) 0.9699(5)
H11_5 H 0.7751 0.6251 0.8945
C18_5 C 0.81570(6) 0.61995(6) 0.8848(5)
H12_5 H 0.8157 0.6109 0.7503
N1_5 N 0.65297(5) 0.64342(5) 0.8098(4)
N6_5 N 0.83935(5) 0.62420(5) 0.9853(4)
Br4_3 Br 0.889885(6) 0.819578(6) 0.44073(5)
Br5_3 Br 0.860833(5) 0.895120(6) 0.34990(5)
Zn4_5 Zn 0.873470(6) 0.611345(6) 0.83231(6)
Zn5_5 Zn 0.626530(6) 0.888655(6) 0.83231(6)
C19_5 C 0.82389(6) 0.87032(6) 0.7841(5)
H13_5 H 0.8225 0.8825 0.6673
C20_5 C 0.80223(6) 0.86736(6) 0.9210(5)
H14_5 H 0.7862 0.8774 0.8987
C23_5 C 0.84882(5) 0.83986(6) 0.9785(5)
H16_5 H 0.8652 0.8304 0.9994
C35_5 C 0.70855(6) 0.87171(6) 0.9699(5)
H23_5 H 0.7249 0.8749 0.8945
C36_5 C 0.68430(6) 0.88005(6) 0.8848(5)
H24_5 H 0.6843 0.8891 0.7503
N7_5 N 0.84703(5) 0.85658(5) 0.8098(4)
N12_5 N 0.66065(5) 0.87580(5) 0.9853(4)
Br1_4 Br 0.389885(6) 0.319578(6) 0.44073(5)
Br2_4 Br 0.360833(5) 0.395120(6) 0.34990(5)
C1_6 C 0.32389(6) 0.37032(6) 0.7841(5)
H1_6 H 0.3225 0.3825 0.6673
C2_6 C 0.30223(6) 0.36736(6) 0.9210(5)
H2_6 H 0.2862 0.3774 0.8987
C5_6 C 0.34882(5) 0.33986(6) 0.9785(5)
H4_6 H 0.3652 0.3304 0.9994
C17_6 C 0.20855(6) 0.37171(6) 0.9699(5)
H11_6 H 0.2249 0.3749 0.8945
C18_6 C 0.18430(6) 0.38005(6) 0.8848(5)
H12_6 H 0.1843 0.3891 0.7503
N1_6 N 0.34703(5) 0.35658(5) 0.8098(4)
N6_6 N 0.16065(5) 0.37580(5) 0.9853(4)
Br4_4 Br 0.110115(6) 0.180422(6) 0.44073(5)
Br5_4 Br 0.139167(5) 0.104880(6) 0.34990(5)
Zn4_6 Zn 0.126530(6) 0.388655(6) 0.83231(6)
Zn5_6 Zn 0.373470(6) 0.111345(6) 0.83231(6)
C19_6 C 0.17611(6) 0.12968(6) 0.7841(5)
H13_6 H 0.1775 0.1175 0.6673
C20_6 C 0.19777(6) 0.13264(6) 0.9210(5)
H14_6 H 0.2138 0.1226 0.8987
C23_6 C 0.15118(5) 0.16014(6) 0.9785(5)
H16_6 H 0.1348 0.1696 0.9994
C35_6 C 0.29145(6) 0.12829(6) 0.9699(5)
H23_6 H 0.2751 0.1251 0.8945
C36_6 C 0.31570(6) 0.11995(6) 0.8848(5)
H24_6 H 0.3157 0.1109 0.7503
N7_6 N 0.15297(5) 0.14342(5) 0.8098(4)
N12_6 N 0.33935(5) 0.12420(5) 0.9853(4)
C7_3 C 0.01531(5) 0.59942(6) 0.5100(5)
C14_5 C 0.08910(6) 0.61283(6) 0.4238(5)
H9_5 H 0.1058 0.6095 0.4938
C15_3 C 0.06561(6) 0.60404(6) 0.5216(5)
H10_3 H 0.0661 0.5951 0.6566
C16_5 C 0.04127(5) 0.60868(6) 0.4169(5)
C17_7 C 0.04145(6) 0.62171(6) 0.2199(5)
H11_7 H 0.0251 0.6249 0.1445
C18_7 C 0.06570(6) 0.63005(6) 0.1348(5)
H12_7 H 0.0657 0.6391 0.0003
N3_3 N 0.01579(5) 0.58599(5) 0.6954(4)
C19_7 C 0.07389(6) 0.37968(6) 0.0341(5)
C20_7 C 0.05223(6) 0.38264(6) 0.1710(5)
H14_7 H 0.0362 0.3726 0.1487
C21_5 C 0.05398(5) 0.40034(5) 0.3416(5)
C22_5 C 0.07792(5) 0.41414(6) 0.3734(5)
H15_5 H 0.0799 0.4260 0.4915
C23_7 C 0.09882(5) 0.41014(6) 0.2285(5)
H16_7 H 0.1152 0.4196 0.2494
C24_5 C 0.02974(5) 0.40506(5) 0.4768(5)
C26_2 C 0.00819(5) 0.42280(5) 0.7628(5)
H18_2 H 0.0481 0.4484 0.9755
C29_2 C 0.00810(6) 0.43866(5) 0.9641(5)
N7_7 N 0.09703(5) 0.39342(5) 0.0598(4)
N8_3 N 0.03171(5) 0.41916(5) 0.6595(4)
N10_5 N 0.00677(5) 0.39526(5) 0.3960(4)
Br4_5 Br 0.139885(6) 0.430422(6) 0.69073(5)
Br5_5 Br 0.110833(5) 0.354880(6) 0.59990(5)
H13_7 H 0.0725 0.3675 0.9173
C1_7 C 0.92611(6) 0.62032(6) 0.0341(5)
C2_7 C 0.94777(6) 0.61736(6) 0.1710(5)
H2_7 H 0.9638 0.6274 0.1487
C3_5 C 0.94602(5) 0.59966(5) 0.3416(5)
C4_5 C 0.92208(5) 0.58586(6) 0.3734(5)
H3_5 H 0.9201 0.5740 0.4915
C5_7 C 0.90118(5) 0.58986(6) 0.2285(5)
H4_7 H 0.8848 0.5804 0.2494
C6_5 C 0.97026(5) 0.59494(5) 0.4768(5)
C8_2 C 0.99181(5) 0.57720(5) 0.7628(5)
H6_2 H 0.9519 0.5516 0.9755
C11_2 C 0.99190(6) 0.56134(5) 0.9641(5)
N1_7 N 0.90297(5) 0.60658(5) 0.0598(4)
N2_3 N 0.96829(5) 0.58084(5) 0.6595(4)
N4_5 N 0.99323(5) 0.60474(5) 0.3960(4)
C25_3 C 0.98469(5) 0.40058(6) 0.5100(5)
C32_5 C 0.91090(6) 0.38717(6) 0.4238(5)
H21_5 H 0.8942 0.3905 0.4938
C33_3 C 0.93439(6) 0.39596(6) 0.5216(5)
H22_3 H 0.9339 0.4049 0.6566
C34_5 C 0.95873(5) 0.39132(6) 0.4169(5)
C35_7 C 0.95855(6) 0.37829(6) 0.2199(5)
H23_7 H 0.9749 0.3751 0.1445
C36_7 C 0.93430(6) 0.36995(6) 0.1348(5)
H24_7 H 0.9343 0.3609 0.0003
N9_3 N 0.98421(5) 0.41401(5) 0.6954(4)
Br1_5 Br 0.860115(6) 0.569578(6) 0.69073(5)
Br2_5 Br 0.889167(5) 0.645120(6) 0.59990(5)
H1_7 H 0.9275 0.6325 0.9173
C19_8 C 0.42611(6) 0.12032(6) 0.0341(5)
C20_8 C 0.44777(6) 0.11736(6) 0.1710(5)
H14_8 H 0.4638 0.1274 0.1487
C21_6 C 0.44602(5) 0.09966(5) 0.3416(5)
C22_6 C 0.42208(5) 0.08586(6) 0.3734(5)
H15_6 H 0.4201 0.0740 0.4915
C23_8 C 0.40118(5) 0.08986(6) 0.2285(5)
H16_8 H 0.3848 0.0804 0.2494
C24_6 C 0.47026(5) 0.09494(5) 0.4768(5)
C25_4 C 0.51531(5) 0.09942(6) 0.5100(5)
C26_3 C 0.49181(5) 0.07720(5) 0.7628(5)
H18_3 H 0.4519 0.0516 0.9755
C29_3 C 0.49190(6) 0.06134(5) 0.9641(5)
C32_6 C 0.58910(6) 0.11283(6) 0.4238(5)
H21_6 H 0.6058 0.1095 0.4938
C33_4 C 0.56561(6) 0.10404(6) 0.5216(5)
H22_4 H 0.5661 0.0951 0.6566
C34_6 C 0.54127(5) 0.10868(6) 0.4169(5)
C35_8 C 0.54145(6) 0.12171(6) 0.2199(5)
H23_8 H 0.5251 0.1249 0.1445
C36_8 C 0.56570(6) 0.13005(6) 0.1348(5)
H24_8 H 0.5657 0.1391 0.0003
N7_8 N 0.40297(5) 0.10658(5) 0.0598(4)
N8_4 N 0.46829(5) 0.08084(5) 0.6595(4)
N9_4 N 0.51579(5) 0.08599(5) 0.6954(4)
N10_6 N 0.49323(5) 0.10474(5) 0.3960(4)
Br4_6 Br 0.360115(6) 0.069578(6) 0.69073(5)
Br5_6 Br 0.389167(5) 0.145120(6) 0.59990(5)
H13_8 H 0.4275 0.1325 0.9173
C1_8 C 0.57389(6) 0.87968(6) 0.0341(5)
C2_8 C 0.55223(6) 0.88264(6) 0.1710(5)
H2_8 H 0.5362 0.8726 0.1487
C3_6 C 0.55398(5) 0.90034(5) 0.3416(5)
C4_6 C 0.57792(5) 0.91414(6) 0.3734(5)
H3_6 H 0.5799 0.9260 0.4915
C5_8 C 0.59882(5) 0.91014(6) 0.2285(5)
H4_8 H 0.6152 0.9196 0.2494
C6_6 C 0.52974(5) 0.90506(5) 0.4768(5)
C7_4 C 0.48469(5) 0.90058(6) 0.5100(5)
C8_3 C 0.50819(5) 0.92280(5) 0.7628(5)
H6_3 H 0.5481 0.9484 0.9755
C11_3 C 0.50810(6) 0.93866(5) 0.9641(5)
C14_6 C 0.41090(6) 0.88717(6) 0.4238(5)
H9_6 H 0.3942 0.8905 0.4938
C15_4 C 0.43439(6) 0.89596(6) 0.5216(5)
H10_4 H 0.4339 0.9049 0.6566
C16_6 C 0.45873(5) 0.89132(6) 0.4169(5)
C17_8 C 0.45855(6) 0.87829(6) 0.2199(5)
H11_8 H 0.4749 0.8751 0.1445
C18_8 C 0.43430(6) 0.86995(6) 0.1348(5)
H12_8 H 0.4343 0.8609 0.0003
N1_8 N 0.59703(5) 0.89342(5) 0.0598(4)
N2_4 N 0.53171(5) 0.91916(5) 0.6595(4)
N3_4 N 0.48421(5) 0.91401(5) 0.6954(4)
N4_6 N 0.50677(5) 0.89526(5) 0.3960(4)
Br1_6 Br 0.639885(6) 0.930422(6) 0.69073(5)
Br2_6 Br 0.610833(5) 0.854880(6) 0.59990(5)
H1_8 H 0.5725 0.8675 0.9173
Br1_7 Br 0.610115(6) 0.180422(6) 0.94073(5)
Br2_7 Br 0.639167(5) 0.104880(6) 0.84990(5)
Br4_7 Br 0.889885(6) 0.319578(6) 0.94073(5)
Br5_7 Br 0.860833(5) 0.395120(6) 0.84990(5)
Br3_2 Br 0.208247(6) 0.757514(6) 0.97519(5)
Zn2_2 Zn 0.2500 0.7500 0.80928(8)
C8_4 C 0.25819(5) 0.82720(5) 0.0128(5)
C9_2 C 0.27896(6) 0.78342(5) 0.4768(5)
H5_2 H 0.2947 0.7749 0.5307
C10_2 C 0.28113(6) 0.79916(5) 0.2944(5)
H6_4 H 0.2981 0.8016 0.2255
C11_4 C 0.25810(6) 0.81134(5) 0.2141(5)
C12_2 C 0.23382(6) 0.80771(6) 0.3230(5)
H7_2 H 0.2178 0.8160 0.2725
C13_2 C 0.23333(6) 0.79199(6) 0.5048(5)
H8_2 H 0.2167 0.7897 0.5795
N5_2 N 0.25550(5) 0.77965(5) 0.5807(4)
Br6_2 Br 0.291753(6) 0.742486(6) 0.97519(5)
C26_4 C 0.24181(5) 0.67280(5) 0.0128(5)
C27_2 C 0.22104(6) 0.71658(5) 0.4768(5)
H17_2 H 0.2053 0.7251 0.5307
C28_2 C 0.21887(6) 0.70084(5) 0.2944(5)
H18_4 H 0.2019 0.6984 0.2255
C29_4 C 0.24190(6) 0.68866(5) 0.2141(5)
C30_2 C 0.26618(6) 0.69229(6) 0.3230(5)
H19_2 H 0.2822 0.6840 0.2725
C31_2 C 0.26667(6) 0.70801(6) 0.5048(5)
H20_2 H 0.2833 0.7103 0.5795
N11_2 N 0.24450(5) 0.72035(5) 0.5807(4)
Br1_8 Br 0.389885(6) 0.819578(6) 0.94073(5)
Br2_8 Br 0.360833(5) 0.895120(6) 0.84990(5)
Br4_8 Br 0.110115(6) 0.680422(6) 0.94073(5)
Br5_8 Br 0.139167(5) 0.604880(6) 0.84990(5)
Br3_3 Br 0.041753(6) 0.007514(6) 0.22519(5)
Zn2_3 Zn -0.0000 0.0000 0.05928(8)
C7_5 C 0.01531(5) 0.09942(6) 0.0100(5)
C12_3 C 0.01618(6) 0.05771(6) 0.5730(5)
H7_3 H 0.0322 0.0660 0.5225
C13_3 C 0.01667(6) 0.04199(6) 0.7548(5)
H8_3 H 0.0333 0.0397 0.8295
C15_5 C 0.06561(6) 0.10404(6) 0.0216(5)
H10_5 H 0.0661 0.0951 0.1566
N3_5 N 0.01579(5) 0.08599(5) 0.1954(4)
Zn2_4 Zn 0.0000 1.0000 0.05928(8)
C26_5 C 0.00819(5) 0.92280(5) 0.2628(5)
C27_3 C 0.02896(6) 0.96658(5) 0.7268(5)
H17_3 H 0.0447 0.9751 0.7807
C28_3 C 0.03113(6) 0.95084(5) 0.5444(5)
H18_5 H 0.0481 0.9484 0.4755
C29_5 C 0.00810(6) 0.93866(5) 0.4641(5)
N8_5 N 0.03171(5) 0.91916(5) 0.1595(4)
N11_3 N 0.00550(5) 0.97035(5) 0.8307(4)
Zn2_5 Zn 1.0000 0.0000 0.05928(8)
C8_5 C 0.99181(5) 0.07720(5) 0.2628(5)
C9_3 C 0.97104(6) 0.03342(5) 0.7268(5)
H5_3 H 0.9553 0.0249 0.7807
C10_3 C 0.96887(6) 0.04916(5) 0.5444(5)
H6_5 H 0.9519 0.0516 0.4755
C11_5 C 0.99190(6) 0.06134(5) 0.4641(5)
N2_5 N 0.96829(5) 0.08084(5) 0.1595(4)
N5_3 N 0.99450(5) 0.02965(5) 0.8307(4)
Zn2_6 Zn 1.0000 1.0000 0.05928(8)
Br6_3 Br 0.958247(6) 0.992486(6) 0.22519(5)
C25_5 C 0.98469(5) 0.90058(6) 0.0100(5)
C30_3 C 0.98382(6) 0.94229(6) 0.5730(5)
H19_3 H 0.9678 0.9340 0.5225
C31_3 C 0.98333(6) 0.95801(6) 0.7548(5)
H20_3 H 0.9667 0.9603 0.8295
C33_5 C 0.93439(6) 0.89596(6) 0.0216(5)
H22_5 H 0.9339 0.9049 0.1566
N9_5 N 0.98421(5) 0.91401(5) 0.1954(4)
Br3_4 Br 0.458247(6) 0.492486(6) 0.22519(5)
Zn2_7 Zn 0.5000 0.5000 0.05928(8)
Br6_4 Br 0.541753(6) 0.507514(6) 0.22519(5)
C7_6 C 0.48469(5) 0.40058(6) 0.0100(5)
C8_6 C 0.50819(5) 0.42280(5) 0.2628(5)
C9_4 C 0.52896(6) 0.46658(5) 0.7268(5)
H5_4 H 0.5447 0.4751 0.7807
C10_4 C 0.53113(6) 0.45084(5) 0.5444(5)
H6_6 H 0.5481 0.4484 0.4755
C11_6 C 0.50810(6) 0.43866(5) 0.4641(5)
C12_4 C 0.48382(6) 0.44229(6) 0.5730(5)
H7_4 H 0.4678 0.4340 0.5225
C13_4 C 0.48333(6) 0.45801(6) 0.7548(5)
H8_4 H 0.4667 0.4603 0.8295
C15_6 C 0.43439(6) 0.39596(6) 0.0216(5)
H10_6 H 0.4339 0.4049 0.1566
N2_6 N 0.53171(5) 0.41916(5) 0.1595(4)
N3_6 N 0.48421(5) 0.41401(5) 0.1954(4)
N5_4 N 0.50550(5) 0.47035(5) 0.8307(4)
C25_6 C 0.51531(5) 0.59942(6) 0.0100(5)
C26_6 C 0.49181(5) 0.57720(5) 0.2628(5)
C27_4 C 0.47104(6) 0.53342(5) 0.7268(5)
H17_4 H 0.4553 0.5249 0.7807
C28_4 C 0.46887(6) 0.54916(5) 0.5444(5)
H18_6 H 0.4519 0.5516 0.4755
C29_6 C 0.49190(6) 0.56134(5) 0.4641(5)
C30_4 C 0.51618(6) 0.55771(6) 0.5730(5)
H19_4 H 0.5322 0.5660 0.5225
C31_4 C 0.51667(6) 0.54199(6) 0.7548(5)
H20_4 H 0.5333 0.5397 0.8295
C33_6 C 0.56561(6) 0.60404(6) 0.0216(5)
H22_6 H 0.5661 0.5951 0.1566
N8_6 N 0.46829(5) 0.58084(5) 0.1595(4)
N9_6 N 0.51579(5) 0.58599(5) 0.1954(4)
N11_4 N 0.49450(5) 0.52965(5) 0.8307(4)
Br3_5 Br 0.791753(6) 0.742486(6) 0.47519(5)
Zn2_8 Zn 0.7500 0.7500 0.30928(8)
H5_5 H 0.7053 0.7251 0.0307
C13_5 C 0.76667(6) 0.70801(6) 0.0048(5)
H8_5 H 0.7833 0.7103 0.0795
N5_5 N 0.74450(5) 0.72035(5) 0.0807(4)
Br6_5 Br 0.708247(6) 0.757514(6) 0.47519(5)
H17_5 H 0.7947 0.7749 0.0307
C31_5 C 0.73333(6) 0.79199(6) 0.0048(5)
H20_5 H 0.7167 0.7897 0.0795
N11_5 N 0.75550(5) 0.77965(5) 0.0807(4)
C3_7 C 0.69602(5) 0.65034(5) 0.0916(5)
C4_7 C 0.67208(5) 0.66414(6) 0.1234(5)
H3_7 H 0.6701 0.6760 0.2415
C6_7 C 0.72026(5) 0.65506(5) 0.2268(5)
C7_7 C 0.76531(5) 0.65058(6) 0.2600(5)
C8_7 C 0.74181(5) 0.67280(5) 0.5128(5)
C9_5 C 0.72104(6) 0.71658(5) 0.9768(5)
C10_5 C 0.71887(6) 0.70084(5) 0.7944(5)
H6_7 H 0.7019 0.6984 0.7255
C11_7 C 0.74190(6) 0.68866(5) 0.7141(5)
C12_5 C 0.76618(6) 0.69229(6) 0.8230(5)
H7_5 H 0.7822 0.6840 0.7725
C14_7 C 0.83910(6) 0.63717(6) 0.1738(5)
H9_7 H 0.8558 0.6405 0.2438
C15_7 C 0.81561(6) 0.64596(6) 0.2716(5)
H10_7 H 0.8161 0.6549 0.4066
C16_7 C 0.79127(5) 0.64132(6) 0.1669(5)
N2_7 N 0.71829(5) 0.66916(5) 0.4095(4)
N3_7 N 0.76579(5) 0.66401(5) 0.4454(4)
N4_7 N 0.74323(5) 0.64526(5) 0.1460(4)
C21_7 C 0.80398(5) 0.84966(5) 0.0916(5)
C22_7 C 0.82792(5) 0.83586(6) 0.1234(5)
H15_7 H 0.8299 0.8240 0.2415
C24_7 C 0.77974(5) 0.84494(5) 0.2268(5)
C25_7 C 0.73469(5) 0.84942(6) 0.2600(5)
C26_7 C 0.75819(5) 0.82720(5) 0.5128(5)
C27_5 C 0.77896(6) 0.78342(5) 0.9768(5)
C28_5 C 0.78113(6) 0.79916(5) 0.7944(5)
H18_7 H 0.7981 0.8016 0.7255
C29_7 C 0.75810(6) 0.81134(5) 0.7141(5)
C30_5 C 0.73382(6) 0.80771(6) 0.8230(5)
H19_5 H 0.7178 0.8160 0.7725
C32_7 C 0.66090(6) 0.86283(6) 0.1738(5)
H21_7 H 0.6442 0.8595 0.2438
C33_7 C 0.68439(6) 0.85404(6) 0.2716(5)
H22_7 H 0.6839 0.8451 0.4066
C34_7 C 0.70873(5) 0.85868(6) 0.1669(5)
N8_7 N 0.78171(5) 0.83084(5) 0.4095(4)
N9_7 N 0.73421(5) 0.83599(5) 0.4454(4)
N10_7 N 0.75677(5) 0.85474(5) 0.1460(4)
Br3_6 Br 0.208247(6) 0.257514(6) 0.47519(5)
Zn2_9 Zn 0.2500 0.2500 0.30928(8)
H5_6 H 0.2947 0.2749 0.0307
C13_6 C 0.23333(6) 0.29199(6) 0.0048(5)
H8_6 H 0.2167 0.2897 0.0795
N5_6 N 0.25550(5) 0.27965(5) 0.0807(4)
Br6_6 Br 0.291753(6) 0.242486(6) 0.47519(5)
H17_6 H 0.2053 0.2251 0.0307
C31_6 C 0.26667(6) 0.20801(6) 0.0048(5)
H20_6 H 0.2833 0.2103 0.0795
N11_6 N 0.24450(5) 0.22035(5) 0.0807(4)
C3_8 C 0.30398(5) 0.34966(5) 0.0916(5)
C4_8 C 0.32792(5) 0.33586(6) 0.1234(5)
H3_8 H 0.3299 0.3240 0.2415
C6_8 C 0.27974(5) 0.34494(5) 0.2268(5)
C7_8 C 0.23469(5) 0.34942(6) 0.2600(5)
C8_8 C 0.25819(5) 0.32720(5) 0.5128(5)
C9_6 C 0.27896(6) 0.28342(5) 0.9768(5)
C10_6 C 0.28113(6) 0.29916(5) 0.7944(5)
H6_8 H 0.2981 0.3016 0.7255
C11_8 C 0.25810(6) 0.31134(5) 0.7141(5)
C12_6 C 0.23382(6) 0.30771(6) 0.8230(5)
H7_6 H 0.2178 0.3160 0.7725
C14_8 C 0.16090(6) 0.36283(6) 0.1738(5)
H9_8 H 0.1442 0.3595 0.2438
C15_8 C 0.18439(6) 0.35404(6) 0.2716(5)
H10_8 H 0.1839 0.3451 0.4066
C16_8 C 0.20873(5) 0.35868(6) 0.1669(5)
N2_8 N 0.28171(5) 0.33084(5) 0.4095(4)
N3_8 N 0.23421(5) 0.33599(5) 0.4454(4)
N4_8 N 0.25677(5) 0.35474(5) 0.1460(4)
C21_8 C 0.19602(5) 0.15034(5) 0.0916(5)
C22_8 C 0.17208(5) 0.16414(6) 0.1234(5)
H15_8 H 0.1701 0.1760 0.2415
C24_8 C 0.22026(5) 0.15506(5) 0.2268(5)
C25_8 C 0.26531(5) 0.15058(6) 0.2600(5)
C26_8 C 0.24181(5) 0.17280(5) 0.5128(5)
C27_6 C 0.22104(6) 0.21658(5) 0.9768(5)
C28_6 C 0.21887(6) 0.20084(5) 0.7944(5)
H18_8 H 0.2019 0.1984 0.7255
C29_8 C 0.24190(6) 0.18866(5) 0.7141(5)
C30_6 C 0.26618(6) 0.19229(6) 0.8230(5)
H19_6 H 0.2822 0.1840 0.7725
C32_8 C 0.33910(6) 0.13717(6) 0.1738(5)
H21_8 H 0.3558 0.1405 0.2438
C33_8 C 0.31561(6) 0.14596(6) 0.2716(5)
H22_8 H 0.3161 0.1549 0.4066
C34_8 C 0.29127(5) 0.14132(6) 0.1669(5)
N8_8 N 0.21829(5) 0.16916(5) 0.4095(4)
N9_8 N 0.26579(5) 0.16401(5) 0.4454(4)
N10_8 N 0.24323(5) 0.14526(5) 0.1460(4)
Br3_7 Br 0.041753(6) 0.507514(6) 0.72519(5)
Zn2_10 Zn 0.0000 0.5000 0.55928(8)
C12_7 C 0.01618(6) 0.55771(6) 0.0730(5)
H7_7 H 0.0322 0.5660 0.0225
C13_7 C 0.01667(6) 0.54199(6) 0.2548(5)
H8_7 H 0.0333 0.5397 0.3295
C27_7 C 0.02896(6) 0.46658(5) 0.2268(5)
H17_7 H 0.0447 0.4751 0.2807
C28_7 C 0.03113(6) 0.45084(5) 0.0444(5)
N11_7 N 0.00550(5) 0.47035(5) 0.3307(4)
Zn2_11 Zn 1.0000 0.5000 0.55928(8)
C9_7 C 0.97104(6) 0.53342(5) 0.2268(5)
H5_7 H 0.9553 0.5249 0.2807
C10_7 C 0.96887(6) 0.54916(5) 0.0444(5)
N5_7 N 0.99450(5) 0.52965(5) 0.3307(4)
Br6_7 Br 0.958247(6) 0.492486(6) 0.72519(5)
C30_7 C 0.98382(6) 0.44229(6) 0.0730(5)
H19_7 H 0.9678 0.4340 0.0225
C31_7 C 0.98333(6) 0.45801(6) 0.2548(5)
H20_7 H 0.9667 0.4603 0.3295
Zn2_12 Zn 0.5000 0.0000 0.55928(8)
Br6_8 Br 0.541753(6) 0.007514(6) 0.72519(5)
C27_8 C 0.47104(6) 0.03342(5) 0.2268(5)
H17_8 H 0.4553 0.0249 0.2807
C28_8 C 0.46887(6) 0.04916(5) 0.0444(5)
C30_8 C 0.51618(6) 0.05771(6) 0.0730(5)
H19_8 H 0.5322 0.0660 0.0225
C31_8 C 0.51667(6) 0.04199(6) 0.2548(5)
H20_8 H 0.5333 0.0397 0.3295
N11_8 N 0.49450(5) 0.02965(5) 0.3307(4)
Br3_8 Br 0.458247(6) 0.992486(6) 0.72519(5)
Zn2_13 Zn 0.5000 1.0000 0.55928(8)
C9_8 C 0.52896(6) 0.96658(5) 0.2268(5)
H5_8 H 0.5447 0.9751 0.2807
C10_8 C 0.53113(6) 0.95084(5) 0.0444(5)
C12_8 C 0.48382(6) 0.94229(6) 0.0730(5)
H7_8 H 0.4678 0.9340 0.0225
C13_8 C 0.48333(6) 0.95801(6) 0.2548(5)
H8_8 H 0.4667 0.9603 0.3295
N5_8 N 0.50550(5) 0.97035(5) 0.3307(4)
loop_
_geom_bond_atom_site_label_1
_geom_bond_atom_site_label_2
_geom_bond_site_symmetry_1
_geom_bond_site_symmetry_2
Br3 Zn2 1_555 1_555
Zn2 N5 1_555 1_555
C8 C11 1_555 1_555
C9 H5 1_555 1_555
C10 C9 1_555 1_555
H6 C10 1_555 1_555
C11 C10 1_555 1_555
C12 C11 1_555 1_555
H7 C12 1_555 1_555
C13 C12 1_555 1_555
H8 C13 1_555 1_555
N5 C9 1_555 1_555
Br6 Zn2 1_555 1_555
C26 C29 1_555 1_555
C27 H17 1_555 1_555
C28 C27 1_555 1_555
H18 C28 1_555 1_555
C29 C28 1_555 1_555
C30 C29 1_555 1_555
H19 C30 1_555 1_555
C31 C30 1_555 1_555
H20 C31 1_555 1_555
N11 Zn2 1_555 1_555
C13 N5 1_555 1_555
C27 N11 1_555 1_555
C31 N11 1_555 1_555
Zn1 N1 1_555 1_555
C1 H1 1_555 1_555
C2 C1 1_555 1_555
H2 C2 1_555 1_555
C3 C2 1_555 1_555
C4 C3 1_555 1_555
H3 C4 1_555 1_555
C5 C4 1_555 1_555
H4 C5 1_555 1_555
C6 C3 1_555 1_555
C7 C16 1_555 1_555
C14 H9 1_555 1_555
C15 C14 1_555 1_555
H10 C15 1_555 1_555
C16 C15 1_555 1_555
C17 C16 1_555 1_555
H11 C17 1_555 1_555
C18 C17 1_555 1_555
H12 C18 1_555 1_555
N1 C1 1_555 1_555
N2 C6 1_555 1_555
N3 C7 1_555 1_555
N4 C6 1_555 1_555
N6 C14 1_555 1_555
Zn3 N7 1_555 1_555
Zn4 N6 1_555 1_555
Zn5 N12 1_555 1_555
C19 H13 1_555 1_555
C20 C19 1_555 1_555
H14 C20 1_555 1_555
C21 C20 1_555 1_555
C22 C21 1_555 1_555
H15 C22 1_555 1_555
C23 C22 1_555 1_555
H16 C23 1_555 1_555
C24 C21 1_555 1_555
C25 C34 1_555 1_555
C32 H21 1_555 1_555
C33 C32 1_555 1_555
H22 C33 1_555 1_555
C34 C33 1_555 1_555
C35 C34 1_555 1_555
H23 C35 1_555 1_555
C36 C35 1_555 1_555
H24 C36 1_555 1_555
N7 C19 1_555 1_555
N8 C24 1_555 1_555
N9 C25 1_555 1_555
N10 C24 1_555 1_555
N12 C32 1_555 1_555
N13 Zn1 1_555 1_555
N14 Zn3 1_555 1_555
C5 N1 1_555 1_555
C7 N4 1_555 1_555
C18 N6 1_555 1_555
C23 N7 1_555 1_555
C25 N10 1_555 1_555
C36 N12 1_555 1_555
Zn1_2 N1_2 1_555 1_555
C1_2 H1_2 1_555 1_555
C2_2 C1_2 1_555 1_555
H2_2 C2_2 1_555 1_555
C3_2 C2_2 1_555 1_555
C4_2 C3_2 1_555 1_555
H3_2 C4_2 1_555 1_555
C5_2 C4_2 1_555 1_555
H4_2 C5_2 1_555 1_555
C6_2 C3_2 1_555 1_555
C7_2 C16_2 1_555 1_555
C14_2 H9_2 1_555 1_555
C15_2 C14_2 1_555 1_555
H10_2 C15_2 1_555 1_555
C16_2 C15_2 1_555 1_555
C17_2 C16_2 1_555 1_555
H11_2 C17_2 1_555 1_555
C18_2 C17_2 1_555 1_555
H12_2 C18_2 1_555 1_555
N1_2 C1_2 1_555 1_555
N2_2 C6_2 1_555 1_555
N3_2 C7_2 1_555 1_555
N4_2 C6_2 1_555 1_555
N6_2 C14_2 1_555 1_555
Zn3_2 N7_2 1_555 1_555
Zn4_2 N6_2 1_555 1_555
Zn5_2 N12_2 1_555 1_555
C19_2 H13_2 1_555 1_555
C20_2 C19_2 1_555 1_555
H14_2 C20_2 1_555 1_555
C21_2 C20_2 1_555 1_555
C22_2 C21_2 1_555 1_555
H15_2 C22_2 1_555 1_555
C23_2 C22_2 1_555 1_555
H16_2 C23_2 1_555 1_555
C24_2 C21_2 1_555 1_555
C25_2 C34_2 1_555 1_555
C32_2 H21_2 1_555 1_555
C33_2 C32_2 1_555 1_555
H22_2 C33_2 1_555 1_555
C34_2 C33_2 1_555 1_555
C35_2 C34_2 1_555 1_555
H23_2 C35_2 1_555 1_555
C36_2 C35_2 1_555 1_555
H24_2 C36_2 1_555 1_555
N7_2 C19_2 1_555 1_555
N8_2 C24_2 1_555 1_555
N9_2 C25_2 1_555 1_555
N10_2 C24_2 1_555 1_555
N12_2 C32_2 1_555 1_555
N13_2 Zn1_2 1_555 1_555
N14_2 Zn3_2 1_555 1_555
C5_2 N1_2 1_555 1_555
C7_2 N4_2 1_555 1_555
C18_2 N6_2 1_555 1_555
C23_2 N7_2 1_555 1_555
C25_2 N10_2 1_555 1_555
C36_2 N12_2 1_555 1_555
C14_3 H9_3 1_555 1_555
C17_3 C16_3 1_555 1_555
H11_3 C17_3 1_555 1_555
C18_3 C17_3 1_555 1_555
H12_3 C18_3 1_555 1_555
N6_3 C14_3 1_555 1_555
Zn4_3 N6_3 1_555 1_555
C18_3 N6_3 1_555 1_555
Br4 Zn4_2 1_555 1_555
Br5 Zn4_2 1_555 1_555
Zn4_2 N7_3 1_555 1_555
C19_3 H13_3 1_555 1_555
C20_3 C19_3 1_555 1_555
H14_3 C20_3 1_555 1_555
C21_3 C20_3 1_555 1_555
C22_3 C21_3 1_555 1_555
H15_3 C22_3 1_555 1_555
C23_3 C22_3 1_555 1_555
H16_3 C23_3 1_555 1_555
C24_3 C21_3 1_555 1_555
N7_3 C19_3 1_555 1_555
N10_3 C24_3 1_555 1_555
C23_3 N7_3 1_555 1_555
Br1 Zn4 1_555 1_555
Br2 Zn4 1_555 1_555
Zn4 N1_3 1_555 1_555
C1_3 H1_3 1_555 1_555
C2_3 C1_3 1_555 1_555
H2_3 C2_3 1_555 1_555
C3_3 C2_3 1_555 1_555
C4_3 C3_3 1_555 1_555
H3_3 C4_3 1_555 1_555
C5_3 C4_3 1_555 1_555
H4_3 C5_3 1_555 1_555
C6_3 C3_3 1_555 1_555
N1_3 C1_3 1_555 1_555
N4_3 C6_3 1_555 1_555
C5_3 N1_3 1_555 1_555
Zn5_3 N12_3 1_555 1_555
C32_3 H21_3 1_555 1_555
C35_3 C34_3 1_555 1_555
H23_3 C35_3 1_555 1_555
C36_3 C35_3 1_555 1_555
H24_3 C36_3 1_555 1_555
N12_3 C32_3 1_555 1_555
C36_3 N12_3 1_555 1_555
Br1_2 Zn5 1_555 1_555
Br2_2 Zn5 1_555 1_555
Zn5 N1_4 1_555 1_555
C1_4 H1_4 1_555 1_555
C2_4 C1_4 1_555 1_555
H2_4 C2_4 1_555 1_555
C3_4 C2_4 1_555 1_555
C4_4 C3_4 1_555 1_555
H3_4 C4_4 1_555 1_555
C5_4 C4_4 1_555 1_555
H4_4 C5_4 1_555 1_555
C6_4 C3_4 1_555 1_555
C14_4 H9_4 1_555 1_555
C17_4 C16_4 1_555 1_555
H11_4 C17_4 1_555 1_555
C18_4 C17_4 1_555 1_555
H12_4 C18_4 1_555 1_555
N1_4 C1_4 1_555 1_555
N4_4 C6_4 1_555 1_555
N6_4 C14_4 1_555 1_555
Br4_2 Zn5_2 1_555 1_555
Br5_2 Zn5_2 1_555 1_555
Zn5_2 N7_4 1_555 1_555
Zn4_4 N6_4 1_555 1_555
Zn5_4 N12_4 1_555 1_555
C19_4 H13_4 1_555 1_555
C20_4 C19_4 1_555 1_555
H14_4 C20_4 1_555 1_555
C21_4 C20_4 1_555 1_555
C22_4 C21_4 1_555 1_555
H15_4 C22_4 1_555 1_555
C23_4 C22_4 1_555 1_555
H16_4 C23_4 1_555 1_555
C24_4 C21_4 1_555 1_555
C32_4 H21_4 1_555 1_555
C35_4 C34_4 1_555 1_555
H23_4 C35_4 1_555 1_555
C36_4 C35_4 1_555 1_555
H24_4 C36_4 1_555 1_555
N7_4 C19_4 1_555 1_555
N10_4 C24_4 1_555 1_555
N12_4 C32_4 1_555 1_555
C5_4 N1_4 1_555 1_555
C18_4 N6_4 1_555 1_555
C23_4 N7_4 1_555 1_555
C36_4 N12_4 1_555 1_555
Br1_3 Zn5_4 1_555 1_555
Br2_3 Zn5_4 1_555 1_555
Zn5_4 N1_5 1_555 1_555
C1_5 H1_5 1_555 1_555
C2_5 C1_5 1_555 1_555
H2_5 C2_5 1_555 1_555
H4_5 C5_5 1_555 1_555
H11_5 C17_5 1_555 1_555
C18_5 C17_5 1_555 1_555
H12_5 C18_5 1_555 1_555
N1_5 C1_5 1_555 1_555
Br4_3 Zn5_3 1_555 1_555
Br5_3 Zn5_3 1_555 1_555
Zn5_3 N7_5 1_555 1_555
Zn4_5 N6_5 1_555 1_555
Zn5_5 N12_5 1_555 1_555
C19_5 H13_5 1_555 1_555
C20_5 C19_5 1_555 1_555
H14_5 C20_5 1_555 1_555
H16_5 C23_5 1_555 1_555
H23_5 C35_5 1_555 1_555
C36_5 C35_5 1_555 1_555
H24_5 C36_5 1_555 1_555
N7_5 C19_5 1_555 1_555
C5_5 N1_5 1_555 1_555
C18_5 N6_5 1_555 1_555
C23_5 N7_5 1_555 1_555
C36_5 N12_5 1_555 1_555
Br1_4 Zn4_4 1_555 1_555
Br2_4 Zn4_4 1_555 1_555
Zn4_4 N1_6 1_555 1_555
C1_6 H1_6 1_555 1_555
C2_6 C1_6 1_555 1_555
H2_6 C2_6 1_555 1_555
H4_6 C5_6 1_555 1_555
H11_6 C17_6 1_555 1_555
C18_6 C17_6 1_555 1_555
H12_6 C18_6 1_555 1_555
N1_6 C1_6 1_555 1_555
Br4_4 Zn4_3 1_555 1_555
Br5_4 Zn4_3 1_555 1_555
Zn4_3 N7_6 1_555 1_555
Zn4_6 N6_6 1_555 1_555
Zn5_6 N12_6 1_555 1_555
C19_6 H13_6 1_555 1_555
C20_6 C19_6 1_555 1_555
H14_6 C20_6 1_555 1_555
H16_6 C23_6 1_555 1_555
H23_6 C35_6 1_555 1_555
C36_6 C35_6 1_555 1_555
H24_6 C36_6 1_555 1_555
N7_6 C19_6 1_555 1_555
C5_6 N1_6 1_555 1_555
C18_6 N6_6 1_555 1_555
C23_6 N7_6 1_555 1_555
C36_6 N12_6 1_555 1_555
C7_3 C16_5 1_555 1_555
C14_5 H9_5 1_555 1_555
C15_3 C14_5 1_555 1_555
H10_3 C15_3 1_555 1_555
C16_5 C15_3 1_555 1_555
C17_7 C16_5 1_555 1_555
H11_7 C17_7 1_555 1_555
C18_7 C17_7 1_555 1_555
H12_7 C18_7 1_555 1_555
N3_3 C7_3 1_555 1_555
N14_2 C14_5 1_555 1_555
C20_7 C19_7 1_555 1_555
H14_7 C20_7 1_555 1_555
C21_5 C20_7 1_555 1_555
C22_5 C21_5 1_555 1_555
H15_5 C22_5 1_555 1_555
C23_7 C22_5 1_555 1_555
H16_7 C23_7 1_555 1_555
C24_5 C21_5 1_555 1_555
C26_2 C29_2 1_555 1_555
N7_7 C19_7 1_555 1_555
N8_3 C24_5 1_555 1_555
N10_5 C24_5 1_555 1_555
C18_7 N14_2 1_555 1_555
C23_7 N7_7 1_555 1_555
C26_2 N8_3 1_555 1_555
Br4_5 Zn4_6 1_555 1_555
Br5_5 Zn4_6 1_555 1_555
C2_7 C1_7 1_555 1_555
H2_7 C2_7 1_555 1_555
C3_5 C2_7 1_555 1_555
C4_5 C3_5 1_555 1_555
H3_5 C4_5 1_555 1_555
C5_7 C4_5 1_555 1_555
H4_7 C5_7 1_555 1_555
C6_5 C3_5 1_555 1_555
C8_2 C11_2 1_555 1_555
N1_7 C1_7 1_555 1_555
N2_3 C6_5 1_555 1_555
N4_5 C6_5 1_555 1_555
C25_3 C34_5 1_555 1_555
C32_5 H21_5 1_555 1_555
C33_3 C32_5 1_555 1_555
H22_3 C33_3 1_555 1_555
C34_5 C33_3 1_555 1_555
C35_7 C34_5 1_555 1_555
H23_7 C35_7 1_555 1_555
C36_7 C35_7 1_555 1_555
H24_7 C36_7 1_555 1_555
N9_3 C25_3 1_555 1_555
N14 C32_5 1_555 1_555
C5_7 N1_7 1_555 1_555
C8_2 N2_3 1_555 1_555
C36_7 N14 1_555 1_555
Br1_5 Zn4_5 1_555 1_555
Br2_5 Zn4_5 1_555 1_555
C20_8 C19_8 1_555 1_555
H14_8 C20_8 1_555 1_555
C21_6 C20_8 1_555 1_555
C22_6 C21_6 1_555 1_555
H15_6 C22_6 1_555 1_555
C23_8 C22_6 1_555 1_555
H16_8 C23_8 1_555 1_555
C24_6 C21_6 1_555 1_555
C25_4 C34_6 1_555 1_555
C26_3 C29_3 1_555 1_555
C32_6 H21_6 1_555 1_555
C33_4 C32_6 1_555 1_555
H22_4 C33_4 1_555 1_555
C34_6 C33_4 1_555 1_555
C35_8 C34_6 1_555 1_555
H23_8 C35_8 1_555 1_555
C36_8 C35_8 1_555 1_555
H24_8 C36_8 1_555 1_555
N7_8 C19_8 1_555 1_555
N8_4 C24_6 1_555 1_555
N9_4 C25_4 1_555 1_555
N10_6 C24_6 1_555 1_555
N13 C32_6 1_555 1_555
C23_8 N7_8 1_555 1_555
C25_4 N10_6 1_555 1_555
C26_3 N8_4 1_555 1_555
C26_3 N9_4 1_555 1_555
C36_8 N13 1_555 1_555
Br4_6 Zn5_6 1_555 1_555
Br5_6 Zn5_6 1_555 1_555
C2_8 C1_8 1_555 1_555
H2_8 C2_8 1_555 1_555
C3_6 C2_8 1_555 1_555
C4_6 C3_6 1_555 1_555
H3_6 C4_6 1_555 1_555
C5_8 C4_6 1_555 1_555
H4_8 C5_8 1_555 1_555
C6_6 C3_6 1_555 1_555
C7_4 C16_6 1_555 1_555
C8_3 C11_3 1_555 1_555
C14_6 H9_6 1_555 1_555
C15_4 C14_6 1_555 1_555
H10_4 C15_4 1_555 1_555
C16_6 C15_4 1_555 1_555
C17_8 C16_6 1_555 1_555
H11_8 C17_8 1_555 1_555
C18_8 C17_8 1_555 1_555
H12_8 C18_8 1_555 1_555
N1_8 C1_8 1_555 1_555
N2_4 C6_6 1_555 1_555
N3_4 C7_4 1_555 1_555
N4_6 C6_6 1_555 1_555
N13_2 C14_6 1_555 1_555
C5_8 N1_8 1_555 1_555
C7_4 N4_6 1_555 1_555
C8_3 N2_4 1_555 1_555
C8_3 N3_4 1_555 1_555
C18_8 N13_2 1_555 1_555
Br1_6 Zn5_5 1_555 1_555
Br2_6 Zn5_5 1_555 1_555
Br3_2 Zn2_2 1_555 1_555
Zn2_2 N5_2 1_555 1_555
C8_4 C11_4 1_555 1_555
C9_2 H5_2 1_555 1_555
C10_2 C9_2 1_555 1_555
H6_4 C10_2 1_555 1_555
C11_4 C10_2 1_555 1_555
C12_2 C11_4 1_555 1_555
H7_2 C12_2 1_555 1_555
C13_2 C12_2 1_555 1_555
H8_2 C13_2 1_555 1_555
N5_2 C9_2 1_555 1_555
Br6_2 Zn2_2 1_555 1_555
C26_4 C29_4 1_555 1_555
C27_2 H17_2 1_555 1_555
C28_2 C27_2 1_555 1_555
H18_4 C28_2 1_555 1_555
C29_4 C28_2 1_555 1_555
C30_2 C29_4 1_555 1_555
H19_2 C30_2 1_555 1_555
C31_2 C30_2 1_555 1_555
H20_2 C31_2 1_555 1_555
N11_2 Zn2_2 1_555 1_555
C13_2 N5_2 1_555 1_555
C27_2 N11_2 1_555 1_555
C31_2 N11_2 1_555 1_555
Br3_3 Zn2_3 1_555 1_555
H7_3 C12_3 1_555 1_555
C13_3 C12_3 1_555 1_555
H8_3 C13_3 1_555 1_555
H10_5 C15_5 1_555 1_555
N3_5 C7_5 1_555 1_555
C26_5 C29_5 1_555 1_555
C27_3 H17_3 1_555 1_555
C28_3 C27_3 1_555 1_555
H18_5 C28_3 1_555 1_555
C29_5 C28_3 1_555 1_555
C26_5 N8_5 1_555 1_555
C27_3 N11_3 1_555 1_555
C8_5 C11_5 1_555 1_555
C9_3 H5_3 1_555 1_555
C10_3 C9_3 1_555 1_555
H6_5 C10_3 1_555 1_555
C11_5 C10_3 1_555 1_555
N5_3 C9_3 1_555 1_555
C8_5 N2_5 1_555 1_555
Br6_3 Zn2_6 1_555 1_555
H19_3 C30_3 1_555 1_555
C31_3 C30_3 1_555 1_555
H20_3 C31_3 1_555 1_555
H22_5 C33_5 1_555 1_555
N9_5 C25_5 1_555 1_555
Br3_4 Zn2_7 1_555 1_555
Br6_4 Zn2_7 1_555 1_555
C8_6 C11_6 1_555 1_555
C9_4 H5_4 1_555 1_555
C10_4 C9_4 1_555 1_555
H6_6 C10_4 1_555 1_555
C11_6 C10_4 1_555 1_555
C12_4 C11_6 1_555 1_555
H7_4 C12_4 1_555 1_555
C13_4 C12_4 1_555 1_555
H8_4 C13_4 1_555 1_555
H10_6 C15_6 1_555 1_555
N3_6 C7_6 1_555 1_555
N5_4 C9_4 1_555 1_555
C26_6 C29_6 1_555 1_555
C27_4 H17_4 1_555 1_555
C28_4 C27_4 1_555 1_555
H18_6 C28_4 1_555 1_555
C29_6 C28_4 1_555 1_555
C30_4 C29_6 1_555 1_555
H19_4 C30_4 1_555 1_555
C31_4 C30_4 1_555 1_555
H20_4 C31_4 1_555 1_555
H22_6 C33_6 1_555 1_555
N9_6 C25_6 1_555 1_555
C8_6 N2_6 1_555 1_555
C8_6 N3_6 1_555 1_555
C13_4 N5_4 1_555 1_555
C26_6 N8_6 1_555 1_555
C26_6 N9_6 1_555 1_555
C27_4 N11_4 1_555 1_555
C31_4 N11_4 1_555 1_555
Br3_5 Zn2_8 1_555 1_555
Zn2_8 N5_5 1_555 1_555
H8_5 C13_5 1_555 1_555
Br6_5 Zn2_8 1_555 1_555
H20_5 C31_5 1_555 1_555
N11_5 Zn2_8 1_555 1_555
C13_5 N5_5 1_555 1_555
C31_5 N11_5 1_555 1_555
C4_7 C3_7 1_555 1_555
H3_7 C4_7 1_555 1_555
C6_7 C3_7 1_555 1_555
C7_7 C16_7 1_555 1_555
C8_7 C11_7 1_555 1_555
C10_5 C9_5 1_555 1_555
H6_7 C10_5 1_555 1_555
C11_7 C10_5 1_555 1_555
C12_5 C11_7 1_555 1_555
H7_5 C12_5 1_555 1_555
C14_7 H9_7 1_555 1_555
C15_7 C14_7 1_555 1_555
H10_7 C15_7 1_555 1_555
C16_7 C15_7 1_555 1_555
N2_7 C6_7 1_555 1_555
N3_7 C7_7 1_555 1_555
N4_7 C6_7 1_555 1_555
C22_7 C21_7 1_555 1_555
H15_7 C22_7 1_555 1_555
C24_7 C21_7 1_555 1_555
C25_7 C34_7 1_555 1_555
C26_7 C29_7 1_555 1_555
C28_5 C27_5 1_555 1_555
H18_7 C28_5 1_555 1_555
C29_7 C28_5 1_555 1_555
C30_5 C29_7 1_555 1_555
H19_5 C30_5 1_555 1_555
C32_7 H21_7 1_555 1_555
C33_7 C32_7 1_555 1_555
H22_7 C33_7 1_555 1_555
C34_7 C33_7 1_555 1_555
N8_7 C24_7 1_555 1_555
N9_7 C25_7 1_555 1_555
N10_7 C24_7 1_555 1_555
C7_7 N4_7 1_555 1_555
C8_7 N2_7 1_555 1_555
C8_7 N3_7 1_555 1_555
C25_7 N10_7 1_555 1_555
C26_7 N8_7 1_555 1_555
C26_7 N9_7 1_555 1_555
Br3_6 Zn2_9 1_555 1_555
Zn2_9 N5_6 1_555 1_555
H8_6 C13_6 1_555 1_555
Br6_6 Zn2_9 1_555 1_555
H20_6 C31_6 1_555 1_555
N11_6 Zn2_9 1_555 1_555
C13_6 N5_6 1_555 1_555
C31_6 N11_6 1_555 1_555
C4_8 C3_8 1_555 1_555
H3_8 C4_8 1_555 1_555
C6_8 C3_8 1_555 1_555
C7_8 C16_8 1_555 1_555
C8_8 C11_8 1_555 1_555
C10_6 C9_6 1_555 1_555
H6_8 C10_6 1_555 1_555
C11_8 C10_6 1_555 1_555
C12_6 C11_8 1_555 1_555
H7_6 C12_6 1_555 1_555
C14_8 H9_8 1_555 1_555
C15_8 C14_8 1_555 1_555
H10_8 C15_8 1_555 1_555
C16_8 C15_8 1_555 1_555
N2_8 C6_8 1_555 1_555
N3_8 C7_8 1_555 1_555
N4_8 C6_8 1_555 1_555
C22_8 C21_8 1_555 1_555
H15_8 C22_8 1_555 1_555
C24_8 C21_8 1_555 1_555
C25_8 C34_8 1_555 1_555
C26_8 C29_8 1_555 1_555
C28_6 C27_6 1_555 1_555
H18_8 C28_6 1_555 1_555
C29_8 C28_6 1_555 1_555
C30_6 C29_8 1_555 1_555
H19_6 C30_6 1_555 1_555
C32_8 H21_8 1_555 1_555
C33_8 C32_8 1_555 1_555
H22_8 C33_8 1_555 1_555
C34_8 C33_8 1_555 1_555
N8_8 C24_8 1_555 1_555
N9_8 C25_8 1_555 1_555
N10_8 C24_8 1_555 1_555
C7_8 N4_8 1_555 1_555
C8_8 N2_8 1_555 1_555
C8_8 N3_8 1_555 1_555
C25_8 N10_8 1_555 1_555
C26_8 N8_8 1_555 1_555
C26_8 N9_8 1_555 1_555
Br3_7 Zn2_10 1_555 1_555
H7_7 C12_7 1_555 1_555
C13_7 C12_7 1_555 1_555
H8_7 C13_7 1_555 1_555
C27_7 H17_7 1_555 1_555
C28_7 C27_7 1_555 1_555
N11_7 Zn2_10 1_555 1_555
C27_7 N11_7 1_555 1_555
Zn2_11 N5_7 1_555 1_555
C9_7 H5_7 1_555 1_555
C10_7 C9_7 1_555 1_555
N5_7 C9_7 1_555 1_555
Br6_7 Zn2_11 1_555 1_555
H19_7 C30_7 1_555 1_555
C31_7 C30_7 1_555 1_555
H20_7 C31_7 1_555 1_555
Br6_8 Zn2_12 1_555 1_555
C27_8 H17_8 1_555 1_555
C28_8 C27_8 1_555 1_555
H19_8 C30_8 1_555 1_555
C31_8 C30_8 1_555 1_555
H20_8 C31_8 1_555 1_555
N11_8 Zn2_12 1_555 1_555
C27_8 N11_8 1_555 1_555
C31_8 N11_8 1_555 1_555
Br3_8 Zn2_13 1_555 1_555
Zn2_13 N5_8 1_555 1_555
C9_8 H5_8 1_555 1_555
C10_8 C9_8 1_555 1_555
H7_8 C12_8 1_555 1_555
C13_8 C12_8 1_555 1_555
H8_8 C13_8 1_555 1_555
N5_8 C9_8 1_555 1_555
C13_8 N5_8 1_555 1_555

#END
