
###############################################################################
#
# This file contains modified crystal structure data generated from the
# MOF subset of the Cambridge Structural Database (CSD) v543 
# hosted by the Cambridge Crystallographic Data Centre (CCDC).
#
# This work is licensed under the Creative Commons
# Attribution-NonCommercial-ShareAlike 4.0 International License.
# To view a copy of this license, visit
# http://creativecommons.org/licenses/by-nc-sa/4.0/
# or send a letter to
# Creative Commons, PO Box 1866, Mountain View, CA 94042, USA.
#
# CIF created using the CSD Python API on 29 September 2022
# The structure has been converted into the P1 space group
# The structure has a 3D framework
# The original CSD entry HIYGIH is in the tetragonal crystal system
# The framework has been calculated to contain at least 10.0% void space
# The void calculation uses a probe of radius 1.32A, grid spacing 0.4
# H atom positions have been added when not included in the experimental data
# Generated hydrogen atom positions removed from atoms on special positions
#
###############################################################################

data_HIYGIH
_chemical_formula_moiety         '(C480 H312 Cu56 N160 O248)n'
_symmetry_cell_setting           triclinic
_symmetry_space_group_name_H-M   'P 1'
_symmetry_Int_Tables_number      1
_space_group_name_Hall           'P 1'
loop_
_symmetry_equiv_pos_site_id
_symmetry_equiv_pos_as_xyz
1 x,y,z
_cell_length_a                   28.1527(16)
_cell_length_b                   28.1527(16)
_cell_length_c                   41.070(4)
_cell_angle_alpha                90
_cell_angle_beta                 90
_cell_angle_gamma                90
_cell_volume                     32551
loop_
_atom_site_label
_atom_site_type_symbol
_atom_site_fract_x
_atom_site_fract_y
_atom_site_fract_z
Cu3 Cu 0.82744(3) 0.10072(3) 0.13690(2)
Cu4 Cu 0.76972(3) 0.13507(3) 0.18213(2)
N1 N 0.4980(4) 0.1914(3) 0.1529(2)
N2 N 0.4921(4) 0.1360(4) 0.1097(2)
N3 N 0.5647(3) 0.1437(4) 0.1408(3)
N4 N 0.5704(3) 0.1949(5) 0.1811(3)
N5 N 0.5019(4) 0.2434(3) 0.1985(2)
N6 N 0.4352(3) 0.2406(3) 0.1681(2)
N7 N 0.4281(4) 0.1805(4) 0.1231(2)
N8 N 0.5573(4) 0.0897(4) 0.0971(2)
H1 H 0.5376 0.0767 0.0838
N9 N 0.5732(3) 0.2434(4) 0.2253(2)
H2 H 0.6027 0.2356 0.2249
N10 N 0.3660(4) 0.2318(3) 0.1383(2)
H3 H 0.3594 0.2580 0.1481
O3 O 0.7680(2) 0.07911(18) 0.11675(12)
O4 O 0.71874(19) 0.11235(19) 0.15359(14)
O5 O 0.42868(19) 0.27553(19) 0.29861(12)
O6 O 0.45581(17) 0.3274(2) 0.33526(14)
O7 O 0.62240(16) 0.37107(18) 0.33670(13)
O8 O 0.67178(18) 0.34614(18) 0.29673(11)
O9 O 0.3471(2) 0.13461(18) 0.03473(12)
O10 O 0.2712(2) 0.1183(2) 0.03369(12)
O11 O 0.1646(2) 0.1811(2) 0.11711(13)
O12 O 0.1932(2) 0.2262(2) 0.15719(15)
O15 O 0.8743(2) 0.0736(3) 0.09931(15)
O16 O 0.7216(2) 0.1639(2) 0.21946(16)
C1 C 0.4712(6) 0.1663(6) 0.1274(3)
C2 C 0.5390(5) 0.1224(6) 0.1157(3)
C3 C 0.5465(5) 0.1776(5) 0.1579(4)
C4 C 0.5476(6) 0.2254(6) 0.2011(4)
C5 C 0.4779(5) 0.2247(5) 0.1740(3)
C6 C 0.4108(5) 0.2162(5) 0.1432(3)
C7 C 0.6022(5) 0.0727(4) 0.0953(3)
C8 C 0.6095(4) 0.0365(4) 0.0731(2)
H4 H 0.5836 0.0233 0.0624
C9 C 0.6558(4) 0.0194(3) 0.0665(2)
C10 C 0.6935(3) 0.0391(4) 0.0847(2)
H5 H 0.7245 0.0290 0.0809
C11 C 0.6849(4) 0.0732(3) 0.1082(2)
C12 C 0.6394(5) 0.0897(3) 0.1136(3)
H6 H 0.6339 0.1124 0.1296
C14 C 0.7261(4) 0.0891(3) 0.1290(3)
C15 C 0.5601(4) 0.2734(3) 0.2520(2)
C16 C 0.5145(3) 0.2772(3) 0.2670(2)
H7 H 0.4881 0.2624 0.2580
C17 C 0.5108(4) 0.3036(3) 0.2952(2)
C18 C 0.5462(4) 0.3284(3) 0.30843(19)
H8 H 0.5413 0.3466 0.3270
C19 C 0.5897(3) 0.3265(3) 0.2940(2)
C20 C 0.5978(3) 0.2988(3) 0.2676(3)
H9 H 0.6285 0.2962 0.2594
C21 C 0.4621(4) 0.3023(3) 0.3104(3)
C22 C 0.6315(3) 0.3489(3) 0.3101(2)
C23 C 0.3282(4) 0.2129(3) 0.1199(3)
C24 C 0.3362(3) 0.1884(3) 0.0901(2)
H10 H 0.3664 0.1860 0.0810
C25 C 0.2979(4) 0.1685(3) 0.0755(2)
C26 C 0.2520(3) 0.1733(3) 0.0879(2)
H11 H 0.2264 0.1593 0.0773
C27 C 0.2450(4) 0.1983(3) 0.1153(3)
C28 C 0.2832(4) 0.2176(3) 0.1317(2)
H12 H 0.2782 0.2340 0.1511
C29 C 0.3066(4) 0.1388(3) 0.0458(2)
C30 C 0.1983(4) 0.2048(4) 0.1330(3)
O17 O 0.3729(2) 0.0427(2) 0.03253(13)
O18 O 0.2951(2) 0.02404(19) 0.03320(12)
C43 C 0.3391(4) 0.0190(3) 0.0428(2)
Cu7 Cu 0.36686(4) 0.09079(4) 0.0000
Cu8 Cu 0.27523(4) 0.06960(4) 0.0000
Cu10 Cu 0.10072(3) 0.17256(3) 0.13690(2)
Cu11 Cu 0.67256(3) 0.39928(3) 0.36310(2)
Cu14 Cu 0.39928(3) 0.32744(3) 0.36310(2)
Cu16 Cu 0.13507(3) 0.23028(3) 0.18213(2)
Cu17 Cu 0.73028(3) 0.36493(3) 0.31787(2)
Cu20 Cu 0.36493(3) 0.26972(3) 0.31787(2)
O33 O 0.77553(19) 0.07132(19) 0.20139(12)
O35 O 0.8274(2) 0.04419(17) 0.16474(14)
O37 O 0.87760(16) 0.12893(18) 0.16330(13)
O39 O 0.82822(18) 0.15386(18) 0.20327(11)
O43 O 0.8189(2) 0.1646(2) 0.11711(13)
O45 O 0.7738(2) 0.1932(2) 0.15719(15)
H29 H 0.701455 0.13794 0.228249
H30 H 0.740572 0.178066 0.237381
H31 H 0.89799 0.0983112 0.0934839
H32 H 0.890998 0.0449142 0.10749
Cu7_2 Cu 0.36686(4) 0.09079(4) 1.0000
Cu8_2 Cu 0.27523(4) 0.06960(4) 1.0000
Cu1 Cu 0.63314(4) 0.90921(4) 0.0000
Cu2 Cu 0.72477(4) 0.93040(4) 0.0000
O1 O 0.6271(2) 0.9573(2) 0.03253(13)
O2 O 0.7049(2) 0.97596(19) 0.03320(12)
O13 O 0.55961(12) 0.8871(3) 0.0000
O14 O 0.7978(3) 0.9502(3) 0.0000
C13 C 0.6609(4) 0.9810(3) 0.0428(2)
Cu5 Cu 0.17256(3) 0.89928(3) 0.13690(2)
Cu6 Cu 0.23028(3) 0.86493(3) 0.18213(2)
N11 N 0.5020(4) 0.8086(3) 0.1529(2)
N12 N 0.5079(4) 0.8640(4) 0.1097(2)
N13 N 0.4353(3) 0.8563(4) 0.1408(3)
N14 N 0.4296(3) 0.8051(5) 0.1811(3)
N15 N 0.4981(4) 0.7566(3) 0.1985(2)
N16 N 0.5648(3) 0.7594(3) 0.1681(2)
N17 N 0.5719(4) 0.8195(4) 0.1231(2)
N18 N 0.4427(4) 0.9103(4) 0.0971(2)
H13 H 0.4624 0.9233 0.0838
N19 N 0.4268(3) 0.7566(4) 0.2253(2)
H14 H 0.3973 0.7644 0.2249
N20 N 0.6340(4) 0.7682(3) 0.1383(2)
H15 H 0.6406 0.7420 0.1481
O19 O 0.2320(2) 0.92089(18) 0.11675(12)
O20 O 0.28126(19) 0.88765(19) 0.15359(14)
O21 O 0.57132(19) 0.72447(19) 0.29861(12)
O22 O 0.54419(17) 0.6726(2) 0.33526(14)
O23 O 0.37760(16) 0.62893(18) 0.33670(13)
O24 O 0.32822(18) 0.65386(18) 0.29673(11)
O25 O 0.6529(2) 0.86539(18) 0.03473(12)
O26 O 0.7288(2) 0.8817(2) 0.03369(12)
O27 O 0.8354(2) 0.8189(2) 0.11711(13)
O28 O 0.8068(2) 0.7738(2) 0.15719(15)
O29 O 0.1257(2) 0.9264(3) 0.09931(15)
O30 O 0.2784(2) 0.8361(2) 0.21946(16)
C31 C 0.5288(6) 0.8337(6) 0.1274(3)
C32 C 0.4610(5) 0.8776(6) 0.1157(3)
C33 C 0.4535(5) 0.8224(5) 0.1579(4)
C34 C 0.4524(6) 0.7746(6) 0.2011(4)
C35 C 0.5221(5) 0.7753(5) 0.1740(3)
C36 C 0.5892(5) 0.7838(5) 0.1432(3)
C37 C 0.3978(5) 0.9273(4) 0.0953(3)
C38 C 0.3905(4) 0.9635(4) 0.0731(2)
H16 H 0.4164 0.9767 0.0624
C39 C 0.3442(4) 0.9806(3) 0.0665(2)
C40 C 0.3065(3) 0.9609(4) 0.0847(2)
H17 H 0.2755 0.9710 0.0809
C41 C 0.3151(4) 0.9268(3) 0.1082(2)
C42 C 0.3606(5) 0.9103(3) 0.1136(3)
H18 H 0.3661 0.8876 0.1296
C44 C 0.2739(4) 0.9109(3) 0.1290(3)
C45 C 0.4399(4) 0.7266(3) 0.2520(2)
C46 C 0.4855(3) 0.7228(3) 0.2670(2)
H19 H 0.5119 0.7376 0.2580
C47 C 0.4892(4) 0.6964(3) 0.2952(2)
C48 C 0.4538(4) 0.6716(3) 0.30843(19)
H20 H 0.4587 0.6534 0.3270
C49 C 0.4103(3) 0.6735(3) 0.2940(2)
C50 C 0.4022(3) 0.7012(3) 0.2676(3)
H21 H 0.3715 0.7038 0.2594
C51 C 0.5379(4) 0.6977(3) 0.3104(3)
C52 C 0.3685(3) 0.6511(3) 0.3101(2)
C53 C 0.6718(4) 0.7871(3) 0.1199(3)
C54 C 0.6638(3) 0.8116(3) 0.0901(2)
H22 H 0.6336 0.8140 0.0810
C55 C 0.7021(4) 0.8315(3) 0.0755(2)
C56 C 0.7480(3) 0.8267(3) 0.0879(2)
H23 H 0.7736 0.8407 0.0773
C57 C 0.7550(4) 0.8017(3) 0.1153(3)
C58 C 0.7168(4) 0.7824(3) 0.1317(2)
H24 H 0.7218 0.7660 0.1511
C59 C 0.6934(4) 0.8612(3) 0.0458(2)
C60 C 0.8017(4) 0.7952(4) 0.1330(3)
Cu9 Cu 0.89928(3) 0.82744(3) 0.13690(2)
Cu12 Cu 0.32744(3) 0.60072(3) 0.36310(2)
Cu13 Cu 0.60072(3) 0.67256(3) 0.36310(2)
Cu15 Cu 0.86493(3) 0.76972(3) 0.18213(2)
Cu18 Cu 0.26972(3) 0.63507(3) 0.31787(2)
Cu19 Cu 0.63507(3) 0.73028(3) 0.31787(2)
O34 O 0.22447(19) 0.92868(19) 0.20139(12)
O36 O 0.1726(2) 0.95581(17) 0.16474(14)
O38 O 0.12240(16) 0.87107(18) 0.16330(13)
O40 O 0.17178(18) 0.84614(18) 0.20327(11)
O44 O 0.1811(2) 0.8354(2) 0.11711(13)
O46 O 0.2262(2) 0.8068(2) 0.15719(15)
H25 H 0.298545 0.86206 0.228249
H26 H 0.259428 0.821934 0.237381
H27 H 0.10201 0.901689 0.0934839
H28 H 0.109002 0.955086 0.10749
H33 H 0.804797 0.969325 0.0197414
H34 H 0.81785 0.921181 2.79164e-18
H35 H 0.553139 0.867791 0.0197414
H36 H 0.538775 0.915561 2.79164e-18
Cu1_2 Cu 0.63314(4) 0.90921(4) 1.0000
Cu2_2 Cu 0.72477(4) 0.93040(4) 1.0000
O13_2 O 0.55961(12) 0.8871(3) 1.0000
O14_2 O 0.7978(3) 0.9502(3) 1.0000
O31 O 0.6271(2) 0.9573(2) 0.96747(13)
O32 O 0.7049(2) 0.97596(19) 0.96680(12)
O41 O 0.6529(2) 0.86539(18) 0.96527(12)
O42 O 0.7288(2) 0.8817(2) 0.96631(12)
H34_2 H 0.81785 0.921181 1
H36_2 H 0.538775 0.915561 1
O13_3 O 0.44039(12) 0.1129(3) 0.0000
O14_3 O 0.2022(3) 0.0498(3) 0.0000
H33_2 H 0.195203 0.0306754 0.0197414
H34_3 H 0.18215 0.0788194 2.79164e-18
H35_2 H 0.446861 0.132209 0.0197414
H36_3 H 0.461225 0.0844395 2.79164e-18
O13_4 O 0.44039(12) 0.1129(3) 1.0000
O14_4 O 0.2022(3) 0.0498(3) 1.0000
O31_2 O 0.3729(2) 0.0427(2) 0.96747(13)
O32_2 O 0.2951(2) 0.02404(19) 0.96680(12)
O41_2 O 0.3471(2) 0.13461(18) 0.96527(12)
O42_2 O 0.2712(2) 0.1183(2) 0.96631(12)
H34_4 H 0.18215 0.0788194 1
H36_4 H 0.461225 0.0844395 1
Cu1_3 Cu 0.09079(4) 0.63314(4) 0.0000
Cu2_3 Cu 0.06960(4) 0.72477(4) 0.0000
O1_2 O 0.0427(2) 0.6271(2) 0.03253(13)
O2_2 O 0.02404(19) 0.7049(2) 0.03320(12)
O13_5 O 0.1129(3) 0.55961(12) 0.0000
O14_5 O 0.0498(3) 0.7978(3) 0.0000
C13_2 C 0.0190(3) 0.6609(4) 0.0428(2)
N11_2 N 0.1914(3) 0.5020(4) 0.1529(2)
N12_2 N 0.1360(4) 0.5079(4) 0.1097(2)
N13_2 N 0.1437(4) 0.4353(3) 0.1408(3)
N14_2 N 0.1949(5) 0.4296(3) 0.1811(3)
N15_2 N 0.2434(3) 0.4981(4) 0.1985(2)
N16_2 N 0.2406(3) 0.5648(3) 0.1681(2)
N17_2 N 0.1805(4) 0.5719(4) 0.1231(2)
N18_2 N 0.0897(4) 0.4427(4) 0.0971(2)
H13_2 H 0.0767 0.4624 0.0838
N19_2 N 0.2434(4) 0.4268(3) 0.2253(2)
H14_2 H 0.2356 0.3973 0.2249
N20_2 N 0.2318(3) 0.6340(4) 0.1383(2)
H15_2 H 0.2580 0.6406 0.1481
O19_2 O 0.07911(18) 0.2320(2) 0.11675(12)
O20_2 O 0.11235(19) 0.28126(19) 0.15359(14)
O21_2 O 0.27553(19) 0.57132(19) 0.29861(12)
O22_2 O 0.3274(2) 0.54419(17) 0.33526(14)
O23_2 O 0.37107(18) 0.37760(16) 0.33670(13)
O24_2 O 0.34614(18) 0.32822(18) 0.29673(11)
O25_2 O 0.13461(18) 0.6529(2) 0.03473(12)
O26_2 O 0.1183(2) 0.7288(2) 0.03369(12)
O29_2 O 0.0736(3) 0.1257(2) 0.09931(15)
O30_2 O 0.1639(2) 0.2784(2) 0.21946(16)
C31_2 C 0.1663(6) 0.5288(6) 0.1274(3)
C32_2 C 0.1224(6) 0.4610(5) 0.1157(3)
C33_2 C 0.1776(5) 0.4535(5) 0.1579(4)
C34_2 C 0.2254(6) 0.4524(6) 0.2011(4)
C35_2 C 0.2247(5) 0.5221(5) 0.1740(3)
C36_2 C 0.2162(5) 0.5892(5) 0.1432(3)
C37_2 C 0.0727(4) 0.3978(5) 0.0953(3)
C38_2 C 0.0365(4) 0.3905(4) 0.0731(2)
H16_2 H 0.0233 0.4164 0.0624
C39_2 C 0.0194(3) 0.3442(4) 0.0665(2)
C40_2 C 0.0391(4) 0.3065(3) 0.0847(2)
H17_2 H 0.0290 0.2755 0.0809
C41_2 C 0.0732(3) 0.3151(4) 0.1082(2)
C42_2 C 0.0897(3) 0.3606(5) 0.1136(3)
H18_2 H 0.1124 0.3661 0.1296
C44_2 C 0.0891(3) 0.2739(4) 0.1290(3)
C45_2 C 0.2734(3) 0.4399(4) 0.2520(2)
C46_2 C 0.2772(3) 0.4855(3) 0.2670(2)
H19_2 H 0.2624 0.5119 0.2580
C47_2 C 0.3036(3) 0.4892(4) 0.2952(2)
C48_2 C 0.3284(3) 0.4538(4) 0.30843(19)
H20_2 H 0.3466 0.4587 0.3270
C49_2 C 0.3265(3) 0.4103(3) 0.2940(2)
C50_2 C 0.2988(3) 0.4022(3) 0.2676(3)
H21_2 H 0.2962 0.3715 0.2594
C51_2 C 0.3023(3) 0.5379(4) 0.3104(3)
C52_2 C 0.3489(3) 0.3685(3) 0.3101(2)
C53_2 C 0.2129(3) 0.6718(4) 0.1199(3)
C54_2 C 0.1884(3) 0.6638(3) 0.0901(2)
H22_2 H 0.1860 0.6336 0.0810
C55_2 C 0.1685(3) 0.7021(4) 0.0755(2)
C56_2 C 0.1733(3) 0.7480(3) 0.0879(2)
H23_2 H 0.1593 0.7736 0.0773
C57_2 C 0.1983(3) 0.7550(4) 0.1153(3)
C58_2 C 0.2176(3) 0.7168(4) 0.1317(2)
H24_2 H 0.2340 0.7218 0.1511
C59_2 C 0.1388(3) 0.6934(4) 0.0458(2)
C60_2 C 0.2048(4) 0.8017(4) 0.1330(3)
O34_2 O 0.07132(19) 0.22447(19) 0.20139(12)
O36_2 O 0.04419(17) 0.1726(2) 0.16474(14)
O38_2 O 0.12893(18) 0.12240(16) 0.16330(13)
O40_2 O 0.15386(18) 0.17178(18) 0.20327(11)
H25_2 H 0.13794 0.298545 0.228249
H26_2 H 0.178066 0.259428 0.237381
H27_2 H 0.0983112 0.10201 0.0934839
H28_2 H 0.0449142 0.109002 0.10749
H33_3 H 0.0306754 0.804797 0.0197414
H34_5 H 0.0788194 0.81785 2.79164e-18
H35_3 H 0.132209 0.553139 0.0197414
H36_5 H 0.0844395 0.538775 2.79164e-18
Cu1_4 Cu 0.09079(4) 0.63314(4) 1.0000
Cu2_4 Cu 0.06960(4) 0.72477(4) 1.0000
O13_6 O 0.1129(3) 0.55961(12) 1.0000
O14_6 O 0.0498(3) 0.7978(3) 1.0000
O31_3 O 0.0427(2) 0.6271(2) 0.96747(13)
O32_3 O 0.02404(19) 0.7049(2) 0.96680(12)
O41_3 O 0.13461(18) 0.6529(2) 0.96527(12)
O42_3 O 0.1183(2) 0.7288(2) 0.96631(12)
H34_6 H 0.0788194 0.81785 1
H36_6 H 0.0844395 0.538775 1
N1_2 N 0.8086(3) 0.4980(4) 0.1529(2)
N2_2 N 0.8640(4) 0.4921(4) 0.1097(2)
N3_2 N 0.8563(4) 0.5647(3) 0.1408(3)
N4_2 N 0.8051(5) 0.5704(3) 0.1811(3)
N5_2 N 0.7566(3) 0.5019(4) 0.1985(2)
N6_2 N 0.7594(3) 0.4352(3) 0.1681(2)
N7_2 N 0.8195(4) 0.4281(4) 0.1231(2)
N8_2 N 0.9103(4) 0.5573(4) 0.0971(2)
H1_2 H 0.9233 0.5376 0.0838
N9_2 N 0.7566(4) 0.5732(3) 0.2253(2)
H2_2 H 0.7644 0.6027 0.2249
N10_2 N 0.7682(3) 0.3660(4) 0.1383(2)
H3_2 H 0.7420 0.3594 0.1481
O3_2 O 0.92089(18) 0.7680(2) 0.11675(12)
O4_2 O 0.88765(19) 0.71874(19) 0.15359(14)
O5_2 O 0.72447(19) 0.42868(19) 0.29861(12)
O6_2 O 0.6726(2) 0.45581(17) 0.33526(14)
O7_2 O 0.62893(18) 0.62240(16) 0.33670(13)
O8_2 O 0.65386(18) 0.67178(18) 0.29673(11)
O9_2 O 0.86539(18) 0.3471(2) 0.03473(12)
O10_2 O 0.8817(2) 0.2712(2) 0.03369(12)
O15_2 O 0.9264(3) 0.8743(2) 0.09931(15)
O16_2 O 0.8361(2) 0.7216(2) 0.21946(16)
C1_2 C 0.8337(6) 0.4712(6) 0.1274(3)
C2_2 C 0.8776(6) 0.5390(5) 0.1157(3)
C3_2 C 0.8224(5) 0.5465(5) 0.1579(4)
C4_2 C 0.7746(6) 0.5476(6) 0.2011(4)
C5_2 C 0.7753(5) 0.4779(5) 0.1740(3)
C6_2 C 0.7838(5) 0.4108(5) 0.1432(3)
C7_2 C 0.9273(4) 0.6022(5) 0.0953(3)
C8_2 C 0.9635(4) 0.6095(4) 0.0731(2)
H4_2 H 0.9767 0.5836 0.0624
C9_2 C 0.9806(3) 0.6558(4) 0.0665(2)
C10_2 C 0.9609(4) 0.6935(3) 0.0847(2)
H5_2 H 0.9710 0.7245 0.0809
C11_2 C 0.9268(3) 0.6849(4) 0.1082(2)
C12_2 C 0.9103(3) 0.6394(5) 0.1136(3)
H6_2 H 0.8876 0.6339 0.1296
C14_2 C 0.9109(3) 0.7261(4) 0.1290(3)
C15_2 C 0.7266(3) 0.5601(4) 0.2520(2)
C16_2 C 0.7228(3) 0.5145(3) 0.2670(2)
H7_2 H 0.7376 0.4881 0.2580
C17_2 C 0.6964(3) 0.5108(4) 0.2952(2)
C18_2 C 0.6716(3) 0.5462(4) 0.30843(19)
H8_2 H 0.6534 0.5413 0.3270
C19_2 C 0.6735(3) 0.5897(3) 0.2940(2)
C20_2 C 0.7012(3) 0.5978(3) 0.2676(3)
H9_2 H 0.7038 0.6285 0.2594
C21_2 C 0.6977(3) 0.4621(4) 0.3104(3)
C22_2 C 0.6511(3) 0.6315(3) 0.3101(2)
C23_2 C 0.7871(3) 0.3282(4) 0.1199(3)
C24_2 C 0.8116(3) 0.3362(3) 0.0901(2)
H10_2 H 0.8140 0.3664 0.0810
C25_2 C 0.8315(3) 0.2979(4) 0.0755(2)
C26_2 C 0.8267(3) 0.2520(3) 0.0879(2)
H11_2 H 0.8407 0.2264 0.0773
C27_2 C 0.8017(3) 0.2450(4) 0.1153(3)
C28_2 C 0.7824(3) 0.2832(4) 0.1317(2)
H12_2 H 0.7660 0.2782 0.1511
C29_2 C 0.8612(3) 0.3066(4) 0.0458(2)
C30_2 C 0.7952(4) 0.1983(4) 0.1330(3)
O17_2 O 0.9573(2) 0.3729(2) 0.03253(13)
O18_2 O 0.97596(19) 0.2951(2) 0.03320(12)
C43_2 C 0.9810(3) 0.3391(4) 0.0428(2)
Cu7_3 Cu 0.90921(4) 0.36686(4) 0.0000
Cu8_3 Cu 0.93040(4) 0.27523(4) 0.0000
O33_2 O 0.92868(19) 0.77553(19) 0.20139(12)
O35_2 O 0.95581(17) 0.8274(2) 0.16474(14)
O37_2 O 0.87107(18) 0.87760(16) 0.16330(13)
O39_2 O 0.84614(18) 0.82822(18) 0.20327(11)
H29_2 H 0.86206 0.701455 0.228249
H30_2 H 0.821934 0.740572 0.237381
H31_2 H 0.901689 0.89799 0.0934839
H32_2 H 0.955086 0.890998 0.10749
Cu7_4 Cu 0.90921(4) 0.36686(4) 1.0000
Cu8_4 Cu 0.93040(4) 0.27523(4) 1.0000
O13_7 O 0.8871(3) 0.44039(12) 0.0000
O14_7 O 0.9502(3) 0.2022(3) 0.0000
H33_4 H 0.969325 0.195203 0.0197414
H34_7 H 0.921181 0.18215 2.79164e-18
H35_4 H 0.867791 0.446861 0.0197414
H36_7 H 0.915561 0.461225 2.79164e-18
O13_8 O 0.8871(3) 0.44039(12) 1.0000
O14_8 O 0.9502(3) 0.2022(3) 1.0000
O31_4 O 0.9573(2) 0.3729(2) 0.96747(13)
O32_4 O 0.97596(19) 0.2951(2) 0.96680(12)
O41_4 O 0.86539(18) 0.3471(2) 0.96527(12)
O42_4 O 0.8817(2) 0.2712(2) 0.96631(12)
H34_8 H 0.921181 0.18215 1
H36_8 H 0.915561 0.461225 1
Cu1_5 Cu 0.13314(4) 0.40921(4) 0.5000
Cu2_5 Cu 0.22477(4) 0.43040(4) 0.5000
Cu3_2 Cu 0.32744(3) 0.60072(3) 0.63690(2)
Cu4_2 Cu 0.26972(3) 0.63507(3) 0.68213(2)
N3_3 N 0.0647(3) 0.6437(4) 0.6408(3)
N4_3 N 0.0704(3) 0.6949(5) 0.6811(3)
N5_3 N 0.0019(4) 0.7434(3) 0.6985(2)
N8_3 N 0.0573(4) 0.5897(4) 0.5971(2)
H1_3 H 0.0376 0.5767 0.5838
N9_3 N 0.0732(3) 0.7434(4) 0.7253(2)
H2_3 H 0.1027 0.7356 0.7249
O1_3 O 0.1271(2) 0.4573(2) 0.53253(13)
O2_3 O 0.2049(2) 0.47596(19) 0.53320(12)
O3_3 O 0.2680(2) 0.57911(18) 0.61675(12)
O4_3 O 0.21874(19) 0.61235(19) 0.65359(14)
O7_3 O 0.12240(16) 0.87107(18) 0.83670(13)
O8_3 O 0.17178(18) 0.84614(18) 0.79673(11)
O13_9 O 0.05961(12) 0.3871(3) 0.5000
O14_9 O 0.2978(3) 0.4502(3) 0.5000
O15_3 O 0.3743(2) 0.5736(3) 0.59931(15)
O16_3 O 0.2216(2) 0.6639(2) 0.71946(16)
C2_3 C 0.0390(5) 0.6224(6) 0.6157(3)
C3_3 C 0.0465(5) 0.6776(5) 0.6579(4)
C4_3 C 0.0476(6) 0.7254(6) 0.7011(4)
C7_3 C 0.1022(5) 0.5727(4) 0.5953(3)
C8_3 C 0.1095(4) 0.5365(4) 0.5731(2)
H4_3 H 0.0836 0.5233 0.5624
C9_3 C 0.1558(4) 0.5194(3) 0.5665(2)
C10_3 C 0.1935(3) 0.5391(4) 0.5847(2)
H5_3 H 0.2245 0.5290 0.5809
C11_3 C 0.1849(4) 0.5732(3) 0.6082(2)
C12_3 C 0.1394(5) 0.5897(3) 0.6136(3)
H6_3 H 0.1339 0.6124 0.6296
C13_3 C 0.1609(4) 0.4810(3) 0.5428(2)
C14_3 C 0.2261(4) 0.5891(3) 0.6290(3)
C15_3 C 0.0601(4) 0.7734(3) 0.7520(2)
C16_3 C 0.0145(3) 0.7772(3) 0.7670(2)
C17_3 C 0.0108(4) 0.8036(3) 0.7952(2)
C18_3 C 0.0462(4) 0.8284(3) 0.80843(19)
H8_3 H 0.0413 0.8466 0.8270
C19_3 C 0.0897(3) 0.8265(3) 0.7940(2)
C20_3 C 0.0978(3) 0.7988(3) 0.7676(3)
H9_3 H 0.1285 0.7962 0.7594
C22_3 C 0.1315(3) 0.8489(3) 0.8101(2)
N11_3 N 0.0020(4) 0.3086(3) 0.6529(2)
N12_3 N 0.0079(4) 0.3640(4) 0.6097(2)
N16_3 N 0.0648(3) 0.2594(3) 0.6681(2)
N17_3 N 0.0719(4) 0.3195(4) 0.6231(2)
N20_3 N 0.1340(4) 0.2682(3) 0.6383(2)
H15_3 H 0.1406 0.2420 0.6481
O21_3 O 0.07132(19) 0.22447(19) 0.79861(12)
O22_3 O 0.04419(17) 0.1726(2) 0.83526(14)
O25_3 O 0.1529(2) 0.36539(18) 0.53473(12)
O26_3 O 0.2288(2) 0.3817(2) 0.53369(12)
O27_2 O 0.3354(2) 0.3189(2) 0.61711(13)
O28_2 O 0.3068(2) 0.2738(2) 0.65719(15)
C31_3 C 0.0288(6) 0.3337(6) 0.6274(3)
C35_3 C 0.0221(5) 0.2753(5) 0.6740(3)
C36_3 C 0.0892(5) 0.2838(5) 0.6432(3)
H19_3 H 0.0119 0.2376 0.7580
C51_3 C 0.0379(4) 0.1977(3) 0.8104(3)
C53_3 C 0.1718(4) 0.2871(3) 0.6199(3)
C54_3 C 0.1638(3) 0.3116(3) 0.5901(2)
H22_3 H 0.1336 0.3140 0.5810
C55_3 C 0.2021(4) 0.3315(3) 0.5755(2)
C56_3 C 0.2480(3) 0.3267(3) 0.5879(2)
H23_3 H 0.2736 0.3407 0.5773
C57_3 C 0.2550(4) 0.3017(3) 0.6153(3)
C58_3 C 0.2168(4) 0.2824(3) 0.6317(2)
H24_3 H 0.2218 0.2660 0.6511
C59_3 C 0.1934(4) 0.3612(3) 0.5458(2)
C60_3 C 0.3017(4) 0.2952(4) 0.6330(3)
Cu9_2 Cu 0.39928(3) 0.32744(3) 0.63690(2)
Cu11_2 Cu 0.17256(3) 0.89928(3) 0.86310(2)
Cu13_2 Cu 0.10072(3) 0.17256(3) 0.86310(2)
Cu15_2 Cu 0.36493(3) 0.26972(3) 0.68213(2)
Cu17_2 Cu 0.23028(3) 0.86493(3) 0.81787(2)
Cu19_2 Cu 0.13507(3) 0.23028(3) 0.81787(2)
O31_5 O 0.1271(2) 0.4573(2) 0.46747(13)
O32_5 O 0.2049(2) 0.47596(19) 0.46680(12)
O33_3 O 0.27553(19) 0.57132(19) 0.70139(12)
O35_3 O 0.3274(2) 0.54419(17) 0.66474(14)
O37_3 O 0.37760(16) 0.62893(18) 0.66330(13)
O39_3 O 0.32822(18) 0.65386(18) 0.70327(11)
O41_5 O 0.1529(2) 0.36539(18) 0.46527(12)
O42_5 O 0.2288(2) 0.3817(2) 0.46631(12)
O43_2 O 0.3189(2) 0.6646(2) 0.61711(13)
O45_2 O 0.2738(2) 0.6932(2) 0.65719(15)
H29_3 H 0.201455 0.63794 0.728249
H30_3 H 0.240572 0.678066 0.737381
H31_3 H 0.39799 0.598311 0.593484
H32_3 H 0.390998 0.544914 0.60749
N1_3 N 0.9980(4) 0.6914(3) 0.6529(2)
N2_3 N 0.9921(4) 0.6360(4) 0.6097(2)
N6_3 N 0.9352(3) 0.7406(3) 0.6681(2)
N7_3 N 0.9281(4) 0.6805(4) 0.6231(2)
N10_3 N 0.8660(4) 0.7318(3) 0.6383(2)
H3_3 H 0.8594 0.7580 0.6481
O5_3 O 0.92868(19) 0.77553(19) 0.79861(12)
O6_3 O 0.95581(17) 0.8274(2) 0.83526(14)
O9_3 O 0.8471(2) 0.63461(18) 0.53473(12)
O10_3 O 0.7712(2) 0.6183(2) 0.53369(12)
O11_2 O 0.6646(2) 0.6811(2) 0.61711(13)
O12_2 O 0.6932(2) 0.7262(2) 0.65719(15)
C1_3 C 0.9712(6) 0.6663(6) 0.6274(3)
C5_3 C 0.9779(5) 0.7247(5) 0.6740(3)
C6_3 C 0.9108(5) 0.7162(5) 0.6432(3)
H7_3 H 0.9881 0.7624 0.7580
C21_3 C 0.9621(4) 0.8023(3) 0.8104(3)
C23_3 C 0.8282(4) 0.7129(3) 0.6199(3)
C24_3 C 0.8362(3) 0.6884(3) 0.5901(2)
H10_3 H 0.8664 0.6860 0.5810
C25_3 C 0.7979(4) 0.6685(3) 0.5755(2)
C26_3 C 0.7520(3) 0.6733(3) 0.5879(2)
H11_3 H 0.7264 0.6593 0.5773
C27_3 C 0.7450(4) 0.6983(3) 0.6153(3)
C28_3 C 0.7832(4) 0.7176(3) 0.6317(2)
H12_3 H 0.7782 0.7340 0.6511
C29_3 C 0.8066(4) 0.6388(3) 0.5458(2)
C30_3 C 0.6983(4) 0.7048(4) 0.6330(3)
Cu5_2 Cu 0.67256(3) 0.39928(3) 0.63690(2)
Cu6_2 Cu 0.73028(3) 0.36493(3) 0.68213(2)
N13_3 N 0.9353(3) 0.3563(4) 0.6408(3)
N14_3 N 0.9296(3) 0.3051(5) 0.6811(3)
N15_3 N 0.9981(4) 0.2566(3) 0.6985(2)
N18_3 N 0.9427(4) 0.4103(4) 0.5971(2)
H13_3 H 0.9624 0.4233 0.5838
N19_3 N 0.9268(3) 0.2566(4) 0.7253(2)
H14_3 H 0.8973 0.2644 0.7249
O17_3 O 0.8729(2) 0.5427(2) 0.53253(13)
O18_3 O 0.7951(2) 0.52404(19) 0.53320(12)
O19_3 O 0.7320(2) 0.42089(18) 0.61675(12)
O20_3 O 0.78126(19) 0.38765(19) 0.65359(14)
O23_3 O 0.87760(16) 0.12893(18) 0.83670(13)
O24_3 O 0.82822(18) 0.15386(18) 0.79673(11)
O29_3 O 0.6257(2) 0.4264(3) 0.59931(15)
O30_3 O 0.7784(2) 0.3361(2) 0.71946(16)
C32_3 C 0.9610(5) 0.3776(6) 0.6157(3)
C33_3 C 0.9535(5) 0.3224(5) 0.6579(4)
C34_3 C 0.9524(6) 0.2746(6) 0.7011(4)
C37_3 C 0.8978(5) 0.4273(4) 0.5953(3)
C38_3 C 0.8905(4) 0.4635(4) 0.5731(2)
H16_3 H 0.9164 0.4767 0.5624
C39_3 C 0.8442(4) 0.4806(3) 0.5665(2)
C40_3 C 0.8065(3) 0.4609(4) 0.5847(2)
H17_3 H 0.7755 0.4710 0.5809
C41_3 C 0.8151(4) 0.4268(3) 0.6082(2)
C42_3 C 0.8606(5) 0.4103(3) 0.6136(3)
H18_3 H 0.8661 0.3876 0.6296
C43_3 C 0.8391(4) 0.5190(3) 0.5428(2)
C44_3 C 0.7739(4) 0.4109(3) 0.6290(3)
C45_3 C 0.9399(4) 0.2266(3) 0.7520(2)
C46_3 C 0.9855(3) 0.2228(3) 0.7670(2)
C47_3 C 0.9892(4) 0.1964(3) 0.7952(2)
C48_3 C 0.9538(4) 0.1716(3) 0.80843(19)
H20_3 H 0.9587 0.1534 0.8270
C49_3 C 0.9103(3) 0.1735(3) 0.7940(2)
C50_3 C 0.9022(3) 0.2012(3) 0.7676(3)
H21_3 H 0.8715 0.2038 0.7594
C52_3 C 0.8685(3) 0.1511(3) 0.8101(2)
Cu7_5 Cu 0.86686(4) 0.59079(4) 0.5000
Cu8_5 Cu 0.77523(4) 0.56960(4) 0.5000
Cu10_2 Cu 0.60072(3) 0.67256(3) 0.63690(2)
Cu12_2 Cu 0.82744(3) 0.10072(3) 0.86310(2)
Cu14_2 Cu 0.89928(3) 0.82744(3) 0.86310(2)
Cu16_2 Cu 0.63507(3) 0.73028(3) 0.68213(2)
Cu18_2 Cu 0.76972(3) 0.13507(3) 0.81787(2)
Cu20_2 Cu 0.86493(3) 0.76972(3) 0.81787(2)
O34_3 O 0.72447(19) 0.42868(19) 0.70139(12)
O36_3 O 0.6726(2) 0.45581(17) 0.66474(14)
O38_3 O 0.62240(16) 0.37107(18) 0.66330(13)
O40_3 O 0.67178(18) 0.34614(18) 0.70327(11)
O44_2 O 0.6811(2) 0.3354(2) 0.61711(13)
O46_2 O 0.7262(2) 0.3068(2) 0.65719(15)
H25_3 H 0.798545 0.36206 0.728249
H26_3 H 0.759428 0.321934 0.737381
H27_3 H 0.60201 0.401689 0.593484
H28_3 H 0.609002 0.455086 0.60749
O13_10 O 0.94039(12) 0.6129(3) 0.5000
O14_10 O 0.7022(3) 0.5498(3) 0.5000
O31_6 O 0.8729(2) 0.5427(2) 0.46747(13)
O32_6 O 0.7951(2) 0.52404(19) 0.46680(12)
O41_6 O 0.8471(2) 0.63461(18) 0.46527(12)
O42_6 O 0.7712(2) 0.6183(2) 0.46631(12)
Cu1_6 Cu 0.59079(4) 0.13314(4) 0.5000
Cu2_6 Cu 0.56960(4) 0.22477(4) 0.5000
N3_4 N 0.3563(4) 0.0647(3) 0.6408(3)
N4_4 N 0.3051(5) 0.0704(3) 0.6811(3)
N5_4 N 0.2566(3) 0.0019(4) 0.6985(2)
N8_4 N 0.4103(4) 0.0573(4) 0.5971(2)
H1_4 H 0.4233 0.0376 0.5838
N9_4 N 0.2566(4) 0.0732(3) 0.7253(2)
H2_4 H 0.2644 0.1027 0.7249
O1_4 O 0.5427(2) 0.1271(2) 0.53253(13)
O2_4 O 0.52404(19) 0.2049(2) 0.53320(12)
O3_4 O 0.42089(18) 0.2680(2) 0.61675(12)
O4_4 O 0.38765(19) 0.21874(19) 0.65359(14)
O7_4 O 0.12893(18) 0.12240(16) 0.83670(13)
O8_4 O 0.15386(18) 0.17178(18) 0.79673(11)
O13_11 O 0.6129(3) 0.05961(12) 0.5000
O14_11 O 0.5498(3) 0.2978(3) 0.5000
O15_4 O 0.4264(3) 0.3743(2) 0.59931(15)
O16_4 O 0.3361(2) 0.2216(2) 0.71946(16)
C2_4 C 0.3776(6) 0.0390(5) 0.6157(3)
C3_4 C 0.3224(5) 0.0465(5) 0.6579(4)
C4_4 C 0.2746(6) 0.0476(6) 0.7011(4)
C7_4 C 0.4273(4) 0.1022(5) 0.5953(3)
C8_4 C 0.4635(4) 0.1095(4) 0.5731(2)
H4_4 H 0.4767 0.0836 0.5624
C9_4 C 0.4806(3) 0.1558(4) 0.5665(2)
C10_4 C 0.4609(4) 0.1935(3) 0.5847(2)
H5_4 H 0.4710 0.2245 0.5809
C11_4 C 0.4268(3) 0.1849(4) 0.6082(2)
C12_4 C 0.4103(3) 0.1394(5) 0.6136(3)
H6_4 H 0.3876 0.1339 0.6296
C13_4 C 0.5190(3) 0.1609(4) 0.5428(2)
C14_4 C 0.4109(3) 0.2261(4) 0.6290(3)
C15_4 C 0.2266(3) 0.0601(4) 0.7520(2)
C16_4 C 0.2228(3) 0.0145(3) 0.7670(2)
C17_4 C 0.1964(3) 0.0108(4) 0.7952(2)
C18_4 C 0.1716(3) 0.0462(4) 0.80843(19)
H8_4 H 0.1534 0.0413 0.8270
C19_4 C 0.1735(3) 0.0897(3) 0.7940(2)
C20_4 C 0.2012(3) 0.0978(3) 0.7676(3)
H9_4 H 0.2038 0.1285 0.7594
C22_4 C 0.1511(3) 0.1315(3) 0.8101(2)
N11_4 N 0.6914(3) 0.0020(4) 0.6529(2)
N12_4 N 0.6360(4) 0.0079(4) 0.6097(2)
N16_4 N 0.7406(3) 0.0648(3) 0.6681(2)
N17_4 N 0.6805(4) 0.0719(4) 0.6231(2)
N20_4 N 0.7318(3) 0.1340(4) 0.6383(2)
H15_4 H 0.7580 0.1406 0.6481
O21_4 O 0.77553(19) 0.07132(19) 0.79861(12)
O22_4 O 0.8274(2) 0.04419(17) 0.83526(14)
O25_4 O 0.63461(18) 0.1529(2) 0.53473(12)
O26_4 O 0.6183(2) 0.2288(2) 0.53369(12)
C31_4 C 0.6663(6) 0.0288(6) 0.6274(3)
C35_4 C 0.7247(5) 0.0221(5) 0.6740(3)
C36_4 C 0.7162(5) 0.0892(5) 0.6432(3)
H19_4 H 0.7624 0.0119 0.7580
C51_4 C 0.8023(3) 0.0379(4) 0.8104(3)
C53_4 C 0.7129(3) 0.1718(4) 0.6199(3)
C54_4 C 0.6884(3) 0.1638(3) 0.5901(2)
H22_4 H 0.6860 0.1336 0.5810
C55_4 C 0.6685(3) 0.2021(4) 0.5755(2)
C56_4 C 0.6733(3) 0.2480(3) 0.5879(2)
H23_4 H 0.6593 0.2736 0.5773
C57_4 C 0.6983(3) 0.2550(4) 0.6153(3)
C58_4 C 0.7176(3) 0.2168(4) 0.6317(2)
H24_4 H 0.7340 0.2218 0.6511
C59_4 C 0.6388(3) 0.1934(4) 0.5458(2)
C60_4 C 0.7048(4) 0.3017(4) 0.6330(3)
O31_7 O 0.5427(2) 0.1271(2) 0.46747(13)
O32_7 O 0.52404(19) 0.2049(2) 0.46680(12)
O33_4 O 0.42868(19) 0.27553(19) 0.70139(12)
O35_4 O 0.45581(17) 0.3274(2) 0.66474(14)
O37_4 O 0.37107(18) 0.37760(16) 0.66330(13)
O39_4 O 0.34614(18) 0.32822(18) 0.70327(11)
O41_7 O 0.63461(18) 0.1529(2) 0.46527(12)
O42_7 O 0.6183(2) 0.2288(2) 0.46631(12)
H29_4 H 0.36206 0.201455 0.728249
H30_4 H 0.321934 0.240572 0.737381
H31_4 H 0.401689 0.39799 0.593484
H32_4 H 0.455086 0.390998 0.60749
N1_4 N 0.3086(3) 0.9980(4) 0.6529(2)
N2_4 N 0.3640(4) 0.9921(4) 0.6097(2)
N6_4 N 0.2594(3) 0.9352(3) 0.6681(2)
N7_4 N 0.3195(4) 0.9281(4) 0.6231(2)
N10_4 N 0.2682(3) 0.8660(4) 0.6383(2)
H3_4 H 0.2420 0.8594 0.6481
O5_4 O 0.22447(19) 0.92868(19) 0.79861(12)
O6_4 O 0.1726(2) 0.95581(17) 0.83526(14)
O9_4 O 0.36539(18) 0.8471(2) 0.53473(12)
O10_4 O 0.3817(2) 0.7712(2) 0.53369(12)
C1_4 C 0.3337(6) 0.9712(6) 0.6274(3)
C5_4 C 0.2753(5) 0.9779(5) 0.6740(3)
C6_4 C 0.2838(5) 0.9108(5) 0.6432(3)
H7_4 H 0.2376 0.9881 0.7580
C21_4 C 0.1977(3) 0.9621(4) 0.8104(3)
C23_4 C 0.2871(3) 0.8282(4) 0.6199(3)
C24_4 C 0.3116(3) 0.8362(3) 0.5901(2)
H10_4 H 0.3140 0.8664 0.5810
C25_4 C 0.3315(3) 0.7979(4) 0.5755(2)
C26_4 C 0.3267(3) 0.7520(3) 0.5879(2)
H11_4 H 0.3407 0.7264 0.5773
C27_4 C 0.3017(3) 0.7450(4) 0.6153(3)
C28_4 C 0.2824(3) 0.7832(4) 0.6317(2)
H12_4 H 0.2660 0.7782 0.6511
C29_4 C 0.3612(3) 0.8066(4) 0.5458(2)
C30_4 C 0.2952(4) 0.6983(4) 0.6330(3)
N13_4 N 0.6437(4) 0.9353(3) 0.6408(3)
N14_4 N 0.6949(5) 0.9296(3) 0.6811(3)
N15_4 N 0.7434(3) 0.9981(4) 0.6985(2)
N18_4 N 0.5897(4) 0.9427(4) 0.5971(2)
H13_4 H 0.5767 0.9624 0.5838
N19_4 N 0.7434(4) 0.9268(3) 0.7253(2)
H14_4 H 0.7356 0.8973 0.7249
O17_4 O 0.4573(2) 0.8729(2) 0.53253(13)
O18_4 O 0.47596(19) 0.7951(2) 0.53320(12)
O19_4 O 0.57911(18) 0.7320(2) 0.61675(12)
O20_4 O 0.61235(19) 0.78126(19) 0.65359(14)
O23_4 O 0.87107(18) 0.87760(16) 0.83670(13)
O24_4 O 0.84614(18) 0.82822(18) 0.79673(11)
O29_4 O 0.5736(3) 0.6257(2) 0.59931(15)
O30_4 O 0.6639(2) 0.7784(2) 0.71946(16)
C32_4 C 0.6224(6) 0.9610(5) 0.6157(3)
C33_4 C 0.6776(5) 0.9535(5) 0.6579(4)
C34_4 C 0.7254(6) 0.9524(6) 0.7011(4)
C37_4 C 0.5727(4) 0.8978(5) 0.5953(3)
C38_4 C 0.5365(4) 0.8905(4) 0.5731(2)
H16_4 H 0.5233 0.9164 0.5624
C39_4 C 0.5194(3) 0.8442(4) 0.5665(2)
C40_4 C 0.5391(4) 0.8065(3) 0.5847(2)
H17_4 H 0.5290 0.7755 0.5809
C41_4 C 0.5732(3) 0.8151(4) 0.6082(2)
C42_4 C 0.5897(3) 0.8606(5) 0.6136(3)
H18_4 H 0.6124 0.8661 0.6296
C43_4 C 0.4810(3) 0.8391(4) 0.5428(2)
C44_4 C 0.5891(3) 0.7739(4) 0.6290(3)
C45_4 C 0.7734(3) 0.9399(4) 0.7520(2)
C46_4 C 0.7772(3) 0.9855(3) 0.7670(2)
C47_4 C 0.8036(3) 0.9892(4) 0.7952(2)
C48_4 C 0.8284(3) 0.9538(4) 0.80843(19)
H20_4 H 0.8466 0.9587 0.8270
C49_4 C 0.8265(3) 0.9103(3) 0.7940(2)
C50_4 C 0.7988(3) 0.9022(3) 0.7676(3)
H21_4 H 0.7962 0.8715 0.7594
C52_4 C 0.8489(3) 0.8685(3) 0.8101(2)
Cu7_6 Cu 0.40921(4) 0.86686(4) 0.5000
Cu8_6 Cu 0.43040(4) 0.77523(4) 0.5000
O34_4 O 0.57132(19) 0.72447(19) 0.70139(12)
O36_4 O 0.54419(17) 0.6726(2) 0.66474(14)
O38_4 O 0.62893(18) 0.62240(16) 0.66330(13)
O40_4 O 0.65386(18) 0.67178(18) 0.70327(11)
H25_4 H 0.63794 0.798545 0.728249
H26_4 H 0.678066 0.759428 0.737381
H27_4 H 0.598311 0.60201 0.593484
H28_4 H 0.544914 0.609002 0.60749
O13_12 O 0.3871(3) 0.94039(12) 0.5000
O14_12 O 0.4502(3) 0.7022(3) 0.5000
O31_8 O 0.4573(2) 0.8729(2) 0.46747(13)
O32_8 O 0.47596(19) 0.7951(2) 0.46680(12)
O41_8 O 0.36539(18) 0.8471(2) 0.46527(12)
O42_8 O 0.3817(2) 0.7712(2) 0.46631(12)
C13_5 C 0.3391(4) 0.0190(3) 0.9572(2)
N11_5 N 0.4980(4) 0.1914(3) 0.8471(2)
N12_5 N 0.4921(4) 0.1360(4) 0.8903(2)
N13_5 N 0.5647(3) 0.1437(4) 0.8592(3)
N14_5 N 0.5704(3) 0.1949(5) 0.8189(3)
N15_5 N 0.5019(4) 0.2434(3) 0.8015(2)
N16_5 N 0.4352(3) 0.2406(3) 0.8319(2)
N17_5 N 0.4281(4) 0.1805(4) 0.8769(2)
N18_5 N 0.5573(4) 0.0897(4) 0.9029(2)
H13_5 H 0.5376 0.0767 0.9162
N19_5 N 0.5732(3) 0.2434(4) 0.7747(2)
H14_5 H 0.6027 0.2356 0.7751
N20_5 N 0.3660(4) 0.2318(3) 0.8617(2)
H15_5 H 0.3594 0.2580 0.8519
O19_5 O 0.7680(2) 0.07911(18) 0.88325(12)
O20_5 O 0.71874(19) 0.11235(19) 0.84641(14)
O27_3 O 0.1646(2) 0.1811(2) 0.88289(13)
O28_3 O 0.1932(2) 0.2262(2) 0.84281(15)
O29_5 O 0.8743(2) 0.0736(3) 0.90069(15)
O30_5 O 0.7216(2) 0.1639(2) 0.78054(16)
C31_5 C 0.4712(6) 0.1663(6) 0.8726(3)
C32_5 C 0.5390(5) 0.1224(6) 0.8843(3)
C33_5 C 0.5465(5) 0.1776(5) 0.8421(4)
C34_5 C 0.5476(6) 0.2254(6) 0.7989(4)
C35_5 C 0.4779(5) 0.2247(5) 0.8260(3)
C36_5 C 0.4108(5) 0.2162(5) 0.8568(3)
C37_5 C 0.6022(5) 0.0727(4) 0.9047(3)
C38_5 C 0.6095(4) 0.0365(4) 0.9269(2)
H16_5 H 0.5836 0.0233 0.9376
C39_5 C 0.6558(4) 0.0194(3) 0.9335(2)
C40_5 C 0.6935(3) 0.0391(4) 0.9153(2)
H17_5 H 0.7245 0.0290 0.9191
C41_5 C 0.6849(4) 0.0732(3) 0.8918(2)
C42_5 C 0.6394(5) 0.0897(3) 0.8864(3)
H18_5 H 0.6339 0.1124 0.8704
C44_5 C 0.7261(4) 0.0891(3) 0.8710(3)
C45_5 C 0.5601(4) 0.2734(3) 0.7480(2)
C46_5 C 0.5145(3) 0.2772(3) 0.7330(2)
H19_5 H 0.4881 0.2624 0.7420
C47_5 C 0.5108(4) 0.3036(3) 0.7048(2)
C48_5 C 0.5462(4) 0.3284(3) 0.69157(19)
H20_5 H 0.5413 0.3466 0.6730
C49_5 C 0.5897(3) 0.3265(3) 0.7060(2)
C50_5 C 0.5978(3) 0.2988(3) 0.7324(3)
H21_5 H 0.6285 0.2962 0.7406
C51_5 C 0.4621(4) 0.3023(3) 0.6896(3)
C52_5 C 0.6315(3) 0.3489(3) 0.6899(2)
C53_5 C 0.3282(4) 0.2129(3) 0.8801(3)
C54_5 C 0.3362(3) 0.1884(3) 0.9099(2)
H22_5 H 0.3664 0.1860 0.9190
C55_5 C 0.2979(4) 0.1685(3) 0.9245(2)
C56_5 C 0.2520(3) 0.1733(3) 0.9121(2)
H23_5 H 0.2264 0.1593 0.9227
C57_5 C 0.2450(4) 0.1983(3) 0.8847(3)
C58_5 C 0.2832(4) 0.2176(3) 0.8683(2)
H24_5 H 0.2782 0.2340 0.8489
C59_5 C 0.3066(4) 0.1388(3) 0.9542(2)
C60_5 C 0.1983(4) 0.2048(4) 0.8670(3)
O44_3 O 0.8189(2) 0.1646(2) 0.88289(13)
O46_3 O 0.7738(2) 0.1932(2) 0.84281(15)
H25_5 H 0.701455 0.13794 0.771751
H26_5 H 0.740572 0.178066 0.762619
H27_5 H 0.89799 0.0983112 0.906516
H28_5 H 0.890998 0.0449142 0.89251
H33_5 H 0.195203 0.0306754 0.980259
H35_5 H 0.446861 0.132209 0.980259
N1_5 N 0.5020(4) 0.8086(3) 0.8471(2)
N2_5 N 0.5079(4) 0.8640(4) 0.8903(2)
N3_5 N 0.4353(3) 0.8563(4) 0.8592(3)
N4_5 N 0.4296(3) 0.8051(5) 0.8189(3)
N5_5 N 0.4981(4) 0.7566(3) 0.8015(2)
N6_5 N 0.5648(3) 0.7594(3) 0.8319(2)
N7_5 N 0.5719(4) 0.8195(4) 0.8769(2)
N8_5 N 0.4427(4) 0.9103(4) 0.9029(2)
H1_5 H 0.4624 0.9233 0.9162
N9_5 N 0.4268(3) 0.7566(4) 0.7747(2)
H2_5 H 0.3973 0.7644 0.7751
N10_5 N 0.6340(4) 0.7682(3) 0.8617(2)
H3_5 H 0.6406 0.7420 0.8519
O3_5 O 0.2320(2) 0.92089(18) 0.88325(12)
O4_5 O 0.28126(19) 0.88765(19) 0.84641(14)
O11_3 O 0.8354(2) 0.8189(2) 0.88289(13)
O12_3 O 0.8068(2) 0.7738(2) 0.84281(15)
O15_5 O 0.1257(2) 0.9264(3) 0.90069(15)
O16_5 O 0.2784(2) 0.8361(2) 0.78054(16)
C1_5 C 0.5288(6) 0.8337(6) 0.8726(3)
C2_5 C 0.4610(5) 0.8776(6) 0.8843(3)
C3_5 C 0.4535(5) 0.8224(5) 0.8421(4)
C4_5 C 0.4524(6) 0.7746(6) 0.7989(4)
C5_5 C 0.5221(5) 0.7753(5) 0.8260(3)
C6_5 C 0.5892(5) 0.7838(5) 0.8568(3)
C7_5 C 0.3978(5) 0.9273(4) 0.9047(3)
C8_5 C 0.3905(4) 0.9635(4) 0.9269(2)
H4_5 H 0.4164 0.9767 0.9376
C9_5 C 0.3442(4) 0.9806(3) 0.9335(2)
C10_5 C 0.3065(3) 0.9609(4) 0.9153(2)
H5_5 H 0.2755 0.9710 0.9191
C11_5 C 0.3151(4) 0.9268(3) 0.8918(2)
C12_5 C 0.3606(5) 0.9103(3) 0.8864(3)
H6_5 H 0.3661 0.8876 0.8704
C14_5 C 0.2739(4) 0.9109(3) 0.8710(3)
C15_5 C 0.4399(4) 0.7266(3) 0.7480(2)
C16_5 C 0.4855(3) 0.7228(3) 0.7330(2)
H7_5 H 0.5119 0.7376 0.7420
C17_5 C 0.4892(4) 0.6964(3) 0.7048(2)
C18_5 C 0.4538(4) 0.6716(3) 0.69157(19)
H8_5 H 0.4587 0.6534 0.6730
C19_5 C 0.4103(3) 0.6735(3) 0.7060(2)
C20_5 C 0.4022(3) 0.7012(3) 0.7324(3)
H9_5 H 0.3715 0.7038 0.7406
C21_5 C 0.5379(4) 0.6977(3) 0.6896(3)
C22_5 C 0.3685(3) 0.6511(3) 0.6899(2)
C23_5 C 0.6718(4) 0.7871(3) 0.8801(3)
C24_5 C 0.6638(3) 0.8116(3) 0.9099(2)
H10_5 H 0.6336 0.8140 0.9190
C25_5 C 0.7021(4) 0.8315(3) 0.9245(2)
C26_5 C 0.7480(3) 0.8267(3) 0.9121(2)
H11_5 H 0.7736 0.8407 0.9227
C27_5 C 0.7550(4) 0.8017(3) 0.8847(3)
C28_5 C 0.7168(4) 0.7824(3) 0.8683(2)
H12_5 H 0.7218 0.7660 0.8489
C29_5 C 0.6934(4) 0.8612(3) 0.9542(2)
C30_5 C 0.8017(4) 0.7952(4) 0.8670(3)
C43_5 C 0.6609(4) 0.9810(3) 0.9572(2)
O43_3 O 0.1811(2) 0.8354(2) 0.88289(13)
O45_3 O 0.2262(2) 0.8068(2) 0.84281(15)
H29_5 H 0.298545 0.86206 0.771751
H30_5 H 0.259428 0.821934 0.762619
H31_5 H 0.10201 0.901689 0.906516
H32_5 H 0.109002 0.955086 0.89251
H33_6 H 0.804797 0.969325 0.980259
H35_6 H 0.553139 0.867791 0.980259
N1_6 N 0.1914(3) 0.5020(4) 0.8471(2)
N2_6 N 0.1360(4) 0.5079(4) 0.8903(2)
N3_6 N 0.1437(4) 0.4353(3) 0.8592(3)
N4_6 N 0.1949(5) 0.4296(3) 0.8189(3)
N5_6 N 0.2434(3) 0.4981(4) 0.8015(2)
N6_6 N 0.2406(3) 0.5648(3) 0.8319(2)
N7_6 N 0.1805(4) 0.5719(4) 0.8769(2)
N8_6 N 0.0897(4) 0.4427(4) 0.9029(2)
H1_6 H 0.0767 0.4624 0.9162
N9_6 N 0.2434(4) 0.4268(3) 0.7747(2)
H2_6 H 0.2356 0.3973 0.7751
N10_6 N 0.2318(3) 0.6340(4) 0.8617(2)
H3_6 H 0.2580 0.6406 0.8519
O3_6 O 0.07911(18) 0.2320(2) 0.88325(12)
O4_6 O 0.11235(19) 0.28126(19) 0.84641(14)
O15_6 O 0.0736(3) 0.1257(2) 0.90069(15)
O16_6 O 0.1639(2) 0.2784(2) 0.78054(16)
C1_6 C 0.1663(6) 0.5288(6) 0.8726(3)
C2_6 C 0.1224(6) 0.4610(5) 0.8843(3)
C3_6 C 0.1776(5) 0.4535(5) 0.8421(4)
C4_6 C 0.2254(6) 0.4524(6) 0.7989(4)
C5_6 C 0.2247(5) 0.5221(5) 0.8260(3)
C6_6 C 0.2162(5) 0.5892(5) 0.8568(3)
C7_6 C 0.0727(4) 0.3978(5) 0.9047(3)
C8_6 C 0.0365(4) 0.3905(4) 0.9269(2)
H4_6 H 0.0233 0.4164 0.9376
C9_6 C 0.0194(3) 0.3442(4) 0.9335(2)
C10_6 C 0.0391(4) 0.3065(3) 0.9153(2)
H5_6 H 0.0290 0.2755 0.9191
C11_6 C 0.0732(3) 0.3151(4) 0.8918(2)
C12_6 C 0.0897(3) 0.3606(5) 0.8864(3)
H6_6 H 0.1124 0.3661 0.8704
C14_6 C 0.0891(3) 0.2739(4) 0.8710(3)
C15_6 C 0.2734(3) 0.4399(4) 0.7480(2)
C16_6 C 0.2772(3) 0.4855(3) 0.7330(2)
H7_6 H 0.2624 0.5119 0.7420
C17_6 C 0.3036(3) 0.4892(4) 0.7048(2)
C18_6 C 0.3284(3) 0.4538(4) 0.69157(19)
H8_6 H 0.3466 0.4587 0.6730
C19_6 C 0.3265(3) 0.4103(3) 0.7060(2)
C20_6 C 0.2988(3) 0.4022(3) 0.7324(3)
H9_6 H 0.2962 0.3715 0.7406
C21_6 C 0.3023(3) 0.5379(4) 0.6896(3)
C22_6 C 0.3489(3) 0.3685(3) 0.6899(2)
C23_6 C 0.2129(3) 0.6718(4) 0.8801(3)
C24_6 C 0.1884(3) 0.6638(3) 0.9099(2)
H10_6 H 0.1860 0.6336 0.9190
C25_6 C 0.1685(3) 0.7021(4) 0.9245(2)
C26_6 C 0.1733(3) 0.7480(3) 0.9121(2)
H11_6 H 0.1593 0.7736 0.9227
C27_6 C 0.1983(3) 0.7550(4) 0.8847(3)
C28_6 C 0.2176(3) 0.7168(4) 0.8683(2)
H12_6 H 0.2340 0.7218 0.8489
C29_6 C 0.1388(3) 0.6934(4) 0.9542(2)
C30_6 C 0.2048(4) 0.8017(4) 0.8670(3)
C43_6 C 0.0190(3) 0.6609(4) 0.9572(2)
H29_6 H 0.13794 0.298545 0.771751
H30_6 H 0.178066 0.259428 0.762619
H31_6 H 0.0983112 0.10201 0.906516
H32_6 H 0.0449142 0.109002 0.89251
C13_6 C 0.9810(3) 0.3391(4) 0.9572(2)
N11_6 N 0.8086(3) 0.4980(4) 0.8471(2)
N12_6 N 0.8640(4) 0.4921(4) 0.8903(2)
N13_6 N 0.8563(4) 0.5647(3) 0.8592(3)
N14_6 N 0.8051(5) 0.5704(3) 0.8189(3)
N15_6 N 0.7566(3) 0.5019(4) 0.8015(2)
N16_6 N 0.7594(3) 0.4352(3) 0.8319(2)
N17_6 N 0.8195(4) 0.4281(4) 0.8769(2)
N18_6 N 0.9103(4) 0.5573(4) 0.9029(2)
H13_6 H 0.9233 0.5376 0.9162
N19_6 N 0.7566(4) 0.5732(3) 0.7747(2)
H14_6 H 0.7644 0.6027 0.7751
N20_6 N 0.7682(3) 0.3660(4) 0.8617(2)
H15_6 H 0.7420 0.3594 0.8519
O19_6 O 0.92089(18) 0.7680(2) 0.88325(12)
O20_6 O 0.88765(19) 0.71874(19) 0.84641(14)
O29_6 O 0.9264(3) 0.8743(2) 0.90069(15)
O30_6 O 0.8361(2) 0.7216(2) 0.78054(16)
C31_6 C 0.8337(6) 0.4712(6) 0.8726(3)
C32_6 C 0.8776(6) 0.5390(5) 0.8843(3)
C33_6 C 0.8224(5) 0.5465(5) 0.8421(4)
C34_6 C 0.7746(6) 0.5476(6) 0.7989(4)
C35_6 C 0.7753(5) 0.4779(5) 0.8260(3)
C36_6 C 0.7838(5) 0.4108(5) 0.8568(3)
C37_6 C 0.9273(4) 0.6022(5) 0.9047(3)
C38_6 C 0.9635(4) 0.6095(4) 0.9269(2)
H16_6 H 0.9767 0.5836 0.9376
C39_6 C 0.9806(3) 0.6558(4) 0.9335(2)
C40_6 C 0.9609(4) 0.6935(3) 0.9153(2)
H17_6 H 0.9710 0.7245 0.9191
C41_6 C 0.9268(3) 0.6849(4) 0.8918(2)
C42_6 C 0.9103(3) 0.6394(5) 0.8864(3)
H18_6 H 0.8876 0.6339 0.8704
C44_6 C 0.9109(3) 0.7261(4) 0.8710(3)
C45_6 C 0.7266(3) 0.5601(4) 0.7480(2)
C46_6 C 0.7228(3) 0.5145(3) 0.7330(2)
H19_6 H 0.7376 0.4881 0.7420
C47_6 C 0.6964(3) 0.5108(4) 0.7048(2)
C48_6 C 0.6716(3) 0.5462(4) 0.69157(19)
H20_6 H 0.6534 0.5413 0.6730
C49_6 C 0.6735(3) 0.5897(3) 0.7060(2)
C50_6 C 0.7012(3) 0.5978(3) 0.7324(3)
H21_6 H 0.7038 0.6285 0.7406
C51_6 C 0.6977(3) 0.4621(4) 0.6896(3)
C52_6 C 0.6511(3) 0.6315(3) 0.6899(2)
C53_6 C 0.7871(3) 0.3282(4) 0.8801(3)
C54_6 C 0.8116(3) 0.3362(3) 0.9099(2)
H22_6 H 0.8140 0.3664 0.9190
C55_6 C 0.8315(3) 0.2979(4) 0.9245(2)
C56_6 C 0.8267(3) 0.2520(3) 0.9121(2)
H23_6 H 0.8407 0.2264 0.9227
C57_6 C 0.8017(3) 0.2450(4) 0.8847(3)
C58_6 C 0.7824(3) 0.2832(4) 0.8683(2)
H24_6 H 0.7660 0.2782 0.8489
C59_6 C 0.8612(3) 0.3066(4) 0.9542(2)
C60_6 C 0.7952(4) 0.1983(4) 0.8670(3)
H25_6 H 0.86206 0.701455 0.771751
H26_6 H 0.821934 0.740572 0.762619
H27_6 H 0.901689 0.89799 0.906516
H28_6 H 0.955086 0.890998 0.89251
H33_7 H 0.969325 0.195203 0.980259
H35_7 H 0.867791 0.446861 0.980259
H33_8 H 0.0306754 0.804797 0.980259
H35_8 H 0.132209 0.553139 0.980259
N1_7 N 0.0020(4) 0.3086(3) 0.3471(2)
N2_7 N 0.0079(4) 0.3640(4) 0.3903(2)
N6_7 N 0.0648(3) 0.2594(3) 0.3319(2)
N7_7 N 0.0719(4) 0.3195(4) 0.3769(2)
N10_7 N 0.1340(4) 0.2682(3) 0.3617(2)
H3_7 H 0.1406 0.2420 0.3519
O11_4 O 0.3354(2) 0.3189(2) 0.38289(13)
O12_4 O 0.3068(2) 0.2738(2) 0.34281(15)
C1_7 C 0.0288(6) 0.3337(6) 0.3726(3)
C5_7 C 0.0221(5) 0.2753(5) 0.3260(3)
C6_7 C 0.0892(5) 0.2838(5) 0.3568(3)
H7_7 H 0.0119 0.2376 0.2420
C21_7 C 0.0379(4) 0.1977(3) 0.1896(3)
C23_7 C 0.1718(4) 0.2871(3) 0.3801(3)
C24_7 C 0.1638(3) 0.3116(3) 0.4099(2)
H10_7 H 0.1336 0.3140 0.4190
C25_7 C 0.2021(4) 0.3315(3) 0.4245(2)
C26_7 C 0.2480(3) 0.3267(3) 0.4121(2)
H11_7 H 0.2736 0.3407 0.4227
C27_7 C 0.2550(4) 0.3017(3) 0.3847(3)
C28_7 C 0.2168(4) 0.2824(3) 0.3683(2)
H12_7 H 0.2218 0.2660 0.3489
C29_7 C 0.1934(4) 0.3612(3) 0.4542(2)
C30_7 C 0.3017(4) 0.2952(4) 0.3670(3)
N13_7 N 0.0647(3) 0.6437(4) 0.3592(3)
N14_7 N 0.0704(3) 0.6949(5) 0.3189(3)
N15_7 N 0.0019(4) 0.7434(3) 0.3015(2)
N18_7 N 0.0573(4) 0.5897(4) 0.4029(2)
H13_7 H 0.0376 0.5767 0.4162
N19_7 N 0.0732(3) 0.7434(4) 0.2747(2)
H14_7 H 0.1027 0.7356 0.2751
O19_7 O 0.2680(2) 0.57911(18) 0.38325(12)
O20_7 O 0.21874(19) 0.61235(19) 0.34641(14)
O29_7 O 0.3743(2) 0.5736(3) 0.40069(15)
O30_7 O 0.2216(2) 0.6639(2) 0.28054(16)
C32_7 C 0.0390(5) 0.6224(6) 0.3843(3)
C33_7 C 0.0465(5) 0.6776(5) 0.3421(4)
C34_7 C 0.0476(6) 0.7254(6) 0.2989(4)
C37_7 C 0.1022(5) 0.5727(4) 0.4047(3)
C38_7 C 0.1095(4) 0.5365(4) 0.4269(2)
H16_7 H 0.0836 0.5233 0.4376
C39_7 C 0.1558(4) 0.5194(3) 0.4335(2)
C40_7 C 0.1935(3) 0.5391(4) 0.4153(2)
H17_7 H 0.2245 0.5290 0.4191
C41_7 C 0.1849(4) 0.5732(3) 0.3918(2)
C42_7 C 0.1394(5) 0.5897(3) 0.3864(3)
H18_7 H 0.1339 0.6124 0.3704
C43_7 C 0.1609(4) 0.4810(3) 0.4572(2)
C44_7 C 0.2261(4) 0.5891(3) 0.3710(3)
C45_7 C 0.0601(4) 0.7734(3) 0.2480(2)
C46_7 C 0.0145(3) 0.7772(3) 0.2330(2)
C47_7 C 0.0108(4) 0.8036(3) 0.2048(2)
C48_7 C 0.0462(4) 0.8284(3) 0.19157(19)
H20_7 H 0.0413 0.8466 0.1730
C49_7 C 0.0897(3) 0.8265(3) 0.2060(2)
C50_7 C 0.0978(3) 0.7988(3) 0.2324(3)
H21_7 H 0.1285 0.7962 0.2406
C52_7 C 0.1315(3) 0.8489(3) 0.1899(2)
O44_4 O 0.3189(2) 0.6646(2) 0.38289(13)
O46_4 O 0.2738(2) 0.6932(2) 0.34281(15)
H25_7 H 0.201455 0.63794 0.271751
H26_7 H 0.240572 0.678066 0.262619
H27_7 H 0.39799 0.598311 0.406516
H28_7 H 0.390998 0.544914 0.39251
N3_7 N 0.9353(3) 0.3563(4) 0.3592(3)
N4_7 N 0.9296(3) 0.3051(5) 0.3189(3)
N5_7 N 0.9981(4) 0.2566(3) 0.3015(2)
N8_7 N 0.9427(4) 0.4103(4) 0.4029(2)
H1_7 H 0.9624 0.4233 0.4162
N9_7 N 0.9268(3) 0.2566(4) 0.2747(2)
H2_7 H 0.8973 0.2644 0.2751
O3_7 O 0.7320(2) 0.42089(18) 0.38325(12)
O4_7 O 0.78126(19) 0.38765(19) 0.34641(14)
O15_7 O 0.6257(2) 0.4264(3) 0.40069(15)
O16_7 O 0.7784(2) 0.3361(2) 0.28054(16)
C2_7 C 0.9610(5) 0.3776(6) 0.3843(3)
C3_7 C 0.9535(5) 0.3224(5) 0.3421(4)
C4_7 C 0.9524(6) 0.2746(6) 0.2989(4)
C7_7 C 0.8978(5) 0.4273(4) 0.4047(3)
C8_7 C 0.8905(4) 0.4635(4) 0.4269(2)
H4_7 H 0.9164 0.4767 0.4376
C9_7 C 0.8442(4) 0.4806(3) 0.4335(2)
C10_7 C 0.8065(3) 0.4609(4) 0.4153(2)
H5_7 H 0.7755 0.4710 0.4191
C11_7 C 0.8151(4) 0.4268(3) 0.3918(2)
C12_7 C 0.8606(5) 0.4103(3) 0.3864(3)
H6_7 H 0.8661 0.3876 0.3704
C13_7 C 0.8391(4) 0.5190(3) 0.4572(2)
C14_7 C 0.7739(4) 0.4109(3) 0.3710(3)
C15_7 C 0.9399(4) 0.2266(3) 0.2480(2)
C16_7 C 0.9855(3) 0.2228(3) 0.2330(2)
C17_7 C 0.9892(4) 0.1964(3) 0.2048(2)
C18_7 C 0.9538(4) 0.1716(3) 0.19157(19)
H8_7 H 0.9587 0.1534 0.1730
C19_7 C 0.9103(3) 0.1735(3) 0.2060(2)
C20_7 C 0.9022(3) 0.2012(3) 0.2324(3)
H9_7 H 0.8715 0.2038 0.2406
C22_7 C 0.8685(3) 0.1511(3) 0.1899(2)
N11_7 N 0.9980(4) 0.6914(3) 0.3471(2)
N12_7 N 0.9921(4) 0.6360(4) 0.3903(2)
N16_7 N 0.9352(3) 0.7406(3) 0.3319(2)
N17_7 N 0.9281(4) 0.6805(4) 0.3769(2)
N20_7 N 0.8660(4) 0.7318(3) 0.3617(2)
H15_7 H 0.8594 0.7580 0.3519
O27_4 O 0.6646(2) 0.6811(2) 0.38289(13)
O28_4 O 0.6932(2) 0.7262(2) 0.34281(15)
C31_7 C 0.9712(6) 0.6663(6) 0.3726(3)
C35_7 C 0.9779(5) 0.7247(5) 0.3260(3)
C36_7 C 0.9108(5) 0.7162(5) 0.3568(3)
H19_7 H 0.9881 0.7624 0.2420
C51_7 C 0.9621(4) 0.8023(3) 0.1896(3)
C53_7 C 0.8282(4) 0.7129(3) 0.3801(3)
C54_7 C 0.8362(3) 0.6884(3) 0.4099(2)
H22_7 H 0.8664 0.6860 0.4190
C55_7 C 0.7979(4) 0.6685(3) 0.4245(2)
C56_7 C 0.7520(3) 0.6733(3) 0.4121(2)
H23_7 H 0.7264 0.6593 0.4227
C57_7 C 0.7450(4) 0.6983(3) 0.3847(3)
C58_7 C 0.7832(4) 0.7176(3) 0.3683(2)
H24_7 H 0.7782 0.7340 0.3489
C59_7 C 0.8066(4) 0.6388(3) 0.4542(2)
C60_7 C 0.6983(4) 0.7048(4) 0.3670(3)
O43_4 O 0.6811(2) 0.3354(2) 0.38289(13)
O45_4 O 0.7262(2) 0.3068(2) 0.34281(15)
H29_7 H 0.798545 0.36206 0.271751
H30_7 H 0.759428 0.321934 0.262619
H31_7 H 0.60201 0.401689 0.406516
H32_7 H 0.609002 0.455086 0.39251
N1_8 N 0.6914(3) 0.0020(4) 0.3471(2)
N2_8 N 0.6360(4) 0.0079(4) 0.3903(2)
N6_8 N 0.7406(3) 0.0648(3) 0.3319(2)
N7_8 N 0.6805(4) 0.0719(4) 0.3769(2)
N10_8 N 0.7318(3) 0.1340(4) 0.3617(2)
H3_8 H 0.7580 0.1406 0.3519
C1_8 C 0.6663(6) 0.0288(6) 0.3726(3)
C5_8 C 0.7247(5) 0.0221(5) 0.3260(3)
C6_8 C 0.7162(5) 0.0892(5) 0.3568(3)
H7_8 H 0.7624 0.0119 0.2420
C21_8 C 0.8023(3) 0.0379(4) 0.1896(3)
C23_8 C 0.7129(3) 0.1718(4) 0.3801(3)
C24_8 C 0.6884(3) 0.1638(3) 0.4099(2)
H10_8 H 0.6860 0.1336 0.4190
C25_8 C 0.6685(3) 0.2021(4) 0.4245(2)
C26_8 C 0.6733(3) 0.2480(3) 0.4121(2)
H11_8 H 0.6593 0.2736 0.4227
C27_8 C 0.6983(3) 0.2550(4) 0.3847(3)
C28_8 C 0.7176(3) 0.2168(4) 0.3683(2)
H12_8 H 0.7340 0.2218 0.3489
C29_8 C 0.6388(3) 0.1934(4) 0.4542(2)
C30_8 C 0.7048(4) 0.3017(4) 0.3670(3)
N13_8 N 0.3563(4) 0.0647(3) 0.3592(3)
N14_8 N 0.3051(5) 0.0704(3) 0.3189(3)
N15_8 N 0.2566(3) 0.0019(4) 0.3015(2)
N18_8 N 0.4103(4) 0.0573(4) 0.4029(2)
H13_8 H 0.4233 0.0376 0.4162
N19_8 N 0.2566(4) 0.0732(3) 0.2747(2)
H14_8 H 0.2644 0.1027 0.2751
O19_8 O 0.42089(18) 0.2680(2) 0.38325(12)
O20_8 O 0.38765(19) 0.21874(19) 0.34641(14)
O29_8 O 0.4264(3) 0.3743(2) 0.40069(15)
O30_8 O 0.3361(2) 0.2216(2) 0.28054(16)
C32_8 C 0.3776(6) 0.0390(5) 0.3843(3)
C33_8 C 0.3224(5) 0.0465(5) 0.3421(4)
C34_8 C 0.2746(6) 0.0476(6) 0.2989(4)
C37_8 C 0.4273(4) 0.1022(5) 0.4047(3)
C38_8 C 0.4635(4) 0.1095(4) 0.4269(2)
H16_8 H 0.4767 0.0836 0.4376
C39_8 C 0.4806(3) 0.1558(4) 0.4335(2)
C40_8 C 0.4609(4) 0.1935(3) 0.4153(2)
H17_8 H 0.4710 0.2245 0.4191
C41_8 C 0.4268(3) 0.1849(4) 0.3918(2)
C42_8 C 0.4103(3) 0.1394(5) 0.3864(3)
H18_8 H 0.3876 0.1339 0.3704
C43_8 C 0.5190(3) 0.1609(4) 0.4572(2)
C44_8 C 0.4109(3) 0.2261(4) 0.3710(3)
C45_8 C 0.2266(3) 0.0601(4) 0.2480(2)
C46_8 C 0.2228(3) 0.0145(3) 0.2330(2)
C47_8 C 0.1964(3) 0.0108(4) 0.2048(2)
C48_8 C 0.1716(3) 0.0462(4) 0.19157(19)
H20_8 H 0.1534 0.0413 0.1730
C49_8 C 0.1735(3) 0.0897(3) 0.2060(2)
C50_8 C 0.2012(3) 0.0978(3) 0.2324(3)
H21_8 H 0.2038 0.1285 0.2406
C52_8 C 0.1511(3) 0.1315(3) 0.1899(2)
H25_8 H 0.36206 0.201455 0.271751
H26_8 H 0.321934 0.240572 0.262619
H27_8 H 0.401689 0.39799 0.406516
H28_8 H 0.455086 0.390998 0.39251
N3_8 N 0.6437(4) 0.9353(3) 0.3592(3)
N4_8 N 0.6949(5) 0.9296(3) 0.3189(3)
N5_8 N 0.7434(3) 0.9981(4) 0.3015(2)
N8_8 N 0.5897(4) 0.9427(4) 0.4029(2)
H1_8 H 0.5767 0.9624 0.4162
N9_8 N 0.7434(4) 0.9268(3) 0.2747(2)
H2_8 H 0.7356 0.8973 0.2751
O3_8 O 0.57911(18) 0.7320(2) 0.38325(12)
O4_8 O 0.61235(19) 0.78126(19) 0.34641(14)
O15_8 O 0.5736(3) 0.6257(2) 0.40069(15)
O16_8 O 0.6639(2) 0.7784(2) 0.28054(16)
C2_8 C 0.6224(6) 0.9610(5) 0.3843(3)
C3_8 C 0.6776(5) 0.9535(5) 0.3421(4)
C4_8 C 0.7254(6) 0.9524(6) 0.2989(4)
C7_8 C 0.5727(4) 0.8978(5) 0.4047(3)
C8_8 C 0.5365(4) 0.8905(4) 0.4269(2)
H4_8 H 0.5233 0.9164 0.4376
C9_8 C 0.5194(3) 0.8442(4) 0.4335(2)
C10_8 C 0.5391(4) 0.8065(3) 0.4153(2)
H5_8 H 0.5290 0.7755 0.4191
C11_8 C 0.5732(3) 0.8151(4) 0.3918(2)
C12_8 C 0.5897(3) 0.8606(5) 0.3864(3)
H6_8 H 0.6124 0.8661 0.3704
C13_8 C 0.4810(3) 0.8391(4) 0.4572(2)
C14_8 C 0.5891(3) 0.7739(4) 0.3710(3)
C15_8 C 0.7734(3) 0.9399(4) 0.2480(2)
C16_8 C 0.7772(3) 0.9855(3) 0.2330(2)
C17_8 C 0.8036(3) 0.9892(4) 0.2048(2)
C18_8 C 0.8284(3) 0.9538(4) 0.19157(19)
H8_8 H 0.8466 0.9587 0.1730
C19_8 C 0.8265(3) 0.9103(3) 0.2060(2)
C20_8 C 0.7988(3) 0.9022(3) 0.2324(3)
H9_8 H 0.7962 0.8715 0.2406
C22_8 C 0.8489(3) 0.8685(3) 0.1899(2)
N11_8 N 0.3086(3) 0.9980(4) 0.3471(2)
N12_8 N 0.3640(4) 0.9921(4) 0.3903(2)
N16_8 N 0.2594(3) 0.9352(3) 0.3319(2)
N17_8 N 0.3195(4) 0.9281(4) 0.3769(2)
N20_8 N 0.2682(3) 0.8660(4) 0.3617(2)
H15_8 H 0.2420 0.8594 0.3519
C31_8 C 0.3337(6) 0.9712(6) 0.3726(3)
C35_8 C 0.2753(5) 0.9779(5) 0.3260(3)
C36_8 C 0.2838(5) 0.9108(5) 0.3568(3)
H19_8 H 0.2376 0.9881 0.2420
C51_8 C 0.1977(3) 0.9621(4) 0.1896(3)
C53_8 C 0.2871(3) 0.8282(4) 0.3801(3)
C54_8 C 0.3116(3) 0.8362(3) 0.4099(2)
H22_8 H 0.3140 0.8664 0.4190
C55_8 C 0.3315(3) 0.7979(4) 0.4245(2)
C56_8 C 0.3267(3) 0.7520(3) 0.4121(2)
H23_8 H 0.3407 0.7264 0.4227
C57_8 C 0.3017(3) 0.7450(4) 0.3847(3)
C58_8 C 0.2824(3) 0.7832(4) 0.3683(2)
H24_8 H 0.2660 0.7782 0.3489
C59_8 C 0.3612(3) 0.8066(4) 0.4542(2)
C60_8 C 0.2952(4) 0.6983(4) 0.3670(3)
H29_8 H 0.63794 0.798545 0.271751
H30_8 H 0.678066 0.759428 0.262619
H31_8 H 0.598311 0.60201 0.406516
H32_8 H 0.544914 0.609002 0.39251
loop_
_geom_bond_atom_site_label_1
_geom_bond_atom_site_label_2
_geom_bond_site_symmetry_1
_geom_bond_site_symmetry_2
Cu3 Cu4 1_555 1_555
Cu4 O4 1_555 1_555
N1 C1 1_555 1_555
N2 C1 1_555 1_555
N3 C2 1_555 1_555
N4 C3 1_555 1_555
N5 C4 1_555 1_555
N6 C5 1_555 1_555
N7 C1 1_555 1_555
N8 H1 1_555 1_555
N9 H2 1_555 1_555
N10 H3 1_555 1_555
O3 Cu3 1_555 1_555
O4 C14 1_555 1_555
O5 C21 1_555 1_555
O6 C21 1_555 1_555
O7 C22 1_555 1_555
O8 C22 1_555 1_555
O9 C29 1_555 1_555
O10 C29 1_555 1_555
O11 C30 1_555 1_555
O12 C30 1_555 1_555
O15 Cu3 1_555 1_555
O16 Cu4 1_555 1_555
C2 N2 1_555 1_555
C3 N1 1_555 1_555
C4 N4 1_555 1_555
C5 N1 1_555 1_555
C6 N6 1_555 1_555
C7 N8 1_555 1_555
C8 C7 1_555 1_555
H4 C8 1_555 1_555
C9 C8 1_555 1_555
C10 C9 1_555 1_555
H5 C10 1_555 1_555
C11 C10 1_555 1_555
C12 C7 1_555 1_555
H6 C12 1_555 1_555
C14 O3 1_555 1_555
C15 N9 1_555 1_555
C16 C15 1_555 1_555
H7 C16 1_555 1_555
C17 C16 1_555 1_555
C18 C17 1_555 1_555
H8 C18 1_555 1_555
C19 C18 1_555 1_555
C20 C15 1_555 1_555
H9 C20 1_555 1_555
C21 C17 1_555 1_555
C22 C19 1_555 1_555
C23 N10 1_555 1_555
C24 C23 1_555 1_555
H10 C24 1_555 1_555
C25 C24 1_555 1_555
C26 C25 1_555 1_555
H11 C26 1_555 1_555
C27 C26 1_555 1_555
C28 C23 1_555 1_555
H12 C28 1_555 1_555
C29 C25 1_555 1_555
C30 C27 1_555 1_555
O17 C43 1_555 1_555
O18 C43 1_555 1_555
Cu7 O9 1_555 1_555
Cu8 O10 1_555 1_555
Cu10 O11 1_555 1_555
Cu11 O7 1_555 1_555
Cu14 O6 1_555 1_555
Cu16 O12 1_555 1_555
Cu17 O8 1_555 1_555
Cu20 O5 1_555 1_555
O33 Cu4 1_555 1_555
O35 Cu3 1_555 1_555
O37 Cu3 1_555 1_555
O39 Cu4 1_555 1_555
O43 Cu3 1_555 1_555
O45 Cu4 1_555 1_555
N3 C3 1_555 1_555
N5 C5 1_555 1_555
N7 C6 1_555 1_555
N8 C2 1_555 1_555
N9 C4 1_555 1_555
N10 C6 1_555 1_555
C11 C12 1_555 1_555
C11 C14 1_555 1_555
C19 C20 1_555 1_555
C27 C28 1_555 1_555
O17 Cu7 1_555 1_555
O18 Cu8 1_555 1_555
Cu7 Cu8 1_555 1_555
Cu10 Cu16 1_555 1_555
Cu11 Cu17 1_555 1_555
Cu14 Cu20 1_555 1_555
O16 H29 1_555 1_555
O16 H30 1_555 1_555
O15 H31 1_555 1_555
O15 H32 1_555 1_555
Cu7_2 Cu8_2 1_555 1_555
Cu1 Cu2 1_555 1_555
Cu2 O2 1_555 1_555
O1 Cu1 1_555 1_555
O2 C13 1_555 1_555
O13 Cu1 1_555 1_555
O14 Cu2 1_555 1_555
C13 O1 1_555 1_555
Cu5 Cu6 1_555 1_555
Cu6 O20 1_555 1_555
N11 C31 1_555 1_555
N12 C31 1_555 1_555
N13 C32 1_555 1_555
N14 C33 1_555 1_555
N15 C34 1_555 1_555
N16 C35 1_555 1_555
N17 C31 1_555 1_555
N18 H13 1_555 1_555
N19 H14 1_555 1_555
N20 H15 1_555 1_555
O19 Cu5 1_555 1_555
O20 C44 1_555 1_555
O21 C51 1_555 1_555
O22 C51 1_555 1_555
O23 C52 1_555 1_555
O24 C52 1_555 1_555
O25 Cu1 1_555 1_555
O26 Cu2 1_555 1_555
O27 C60 1_555 1_555
O28 C60 1_555 1_555
O29 Cu5 1_555 1_555
O30 Cu6 1_555 1_555
C32 N12 1_555 1_555
C33 N11 1_555 1_555
C34 N14 1_555 1_555
C35 N11 1_555 1_555
C36 N16 1_555 1_555
C37 N18 1_555 1_555
C38 C37 1_555 1_555
H16 C38 1_555 1_555
C39 C38 1_555 1_555
C40 C39 1_555 1_555
H17 C40 1_555 1_555
C41 C40 1_555 1_555
C42 C37 1_555 1_555
H18 C42 1_555 1_555
C44 O19 1_555 1_555
C45 N19 1_555 1_555
C46 C45 1_555 1_555
H19 C46 1_555 1_555
C47 C46 1_555 1_555
C48 C47 1_555 1_555
H20 C48 1_555 1_555
C49 C48 1_555 1_555
C50 C45 1_555 1_555
H21 C50 1_555 1_555
C51 C47 1_555 1_555
C52 C49 1_555 1_555
C53 N20 1_555 1_555
C54 C53 1_555 1_555
H22 C54 1_555 1_555
C55 C54 1_555 1_555
C56 C55 1_555 1_555
H23 C56 1_555 1_555
C57 C56 1_555 1_555
C58 C53 1_555 1_555
H24 C58 1_555 1_555
C59 O25 1_555 1_555
C60 C57 1_555 1_555
Cu9 O27 1_555 1_555
Cu12 O23 1_555 1_555
Cu13 O22 1_555 1_555
Cu15 O28 1_555 1_555
Cu18 O24 1_555 1_555
Cu19 O21 1_555 1_555
O34 Cu6 1_555 1_555
O36 Cu5 1_555 1_555
O38 Cu5 1_555 1_555
O40 Cu6 1_555 1_555
O44 Cu5 1_555 1_555
O46 Cu6 1_555 1_555
N13 C33 1_555 1_555
N15 C35 1_555 1_555
N17 C36 1_555 1_555
N18 C32 1_555 1_555
N19 C34 1_555 1_555
N20 C36 1_555 1_555
O26 C59 1_555 1_555
C41 C42 1_555 1_555
C41 C44 1_555 1_555
C49 C50 1_555 1_555
C55 C59 1_555 1_555
C57 C58 1_555 1_555
Cu9 Cu15 1_555 1_555
Cu12 Cu18 1_555 1_555
Cu13 Cu19 1_555 1_555
O30 H25 1_555 1_555
O30 H26 1_555 1_555
O29 H27 1_555 1_555
O29 H28 1_555 1_555
O14 H33 1_555 1_555
O14 H34 1_555 1_555
O13 H35 1_555 1_555
O13 H36 1_555 1_555
Cu1_2 Cu2_2 1_555 1_555
O13_2 Cu1_2 1_555 1_555
O14_2 Cu2_2 1_555 1_555
O31 Cu1_2 1_555 1_555
O32 Cu2_2 1_555 1_555
O41 Cu1_2 1_555 1_555
O42 Cu2_2 1_555 1_555
O14_2 H34_2 1_555 1_555
O13_2 H36_2 1_555 1_555
O13_3 Cu7 1_555 1_555
O14_3 Cu8 1_555 1_555
O14_3 H33_2 1_555 1_555
O14_3 H34_3 1_555 1_555
O13_3 H35_2 1_555 1_555
O13_3 H36_3 1_555 1_555
O13_4 Cu7_2 1_555 1_555
O14_4 Cu8_2 1_555 1_555
O31_2 Cu7_2 1_555 1_555
O32_2 Cu8_2 1_555 1_555
O41_2 Cu7_2 1_555 1_555
O42_2 Cu8_2 1_555 1_555
O14_4 H34_4 1_555 1_555
O13_4 H36_4 1_555 1_555
Cu1_3 Cu2_3 1_555 1_555
Cu2_3 O2_2 1_555 1_555
O1_2 Cu1_3 1_555 1_555
O2_2 C13_2 1_555 1_555
O13_5 Cu1_3 1_555 1_555
O14_5 Cu2_3 1_555 1_555
C13_2 O1_2 1_555 1_555
Cu16 O20_2 1_555 1_555
N11_2 C31_2 1_555 1_555
N12_2 C31_2 1_555 1_555
N13_2 C32_2 1_555 1_555
N14_2 C33_2 1_555 1_555
N15_2 C34_2 1_555 1_555
N16_2 C35_2 1_555 1_555
N17_2 C31_2 1_555 1_555
N18_2 H13_2 1_555 1_555
N19_2 H14_2 1_555 1_555
N20_2 H15_2 1_555 1_555
O19_2 Cu10 1_555 1_555
O20_2 C44_2 1_555 1_555
O21_2 C51_2 1_555 1_555
O22_2 C51_2 1_555 1_555
O23_2 C52_2 1_555 1_555
O24_2 C52_2 1_555 1_555
O25_2 Cu1_3 1_555 1_555
O26_2 Cu2_3 1_555 1_555
O44 C60_2 1_555 1_555
O46 C60_2 1_555 1_555
O29_2 Cu10 1_555 1_555
O30_2 Cu16 1_555 1_555
C32_2 N12_2 1_555 1_555
C33_2 N11_2 1_555 1_555
C34_2 N14_2 1_555 1_555
C35_2 N11_2 1_555 1_555
C36_2 N16_2 1_555 1_555
C37_2 N18_2 1_555 1_555
C38_2 C37_2 1_555 1_555
H16_2 C38_2 1_555 1_555
C39_2 C38_2 1_555 1_555
C40_2 C39_2 1_555 1_555
H17_2 C40_2 1_555 1_555
C41_2 C40_2 1_555 1_555
C42_2 C37_2 1_555 1_555
H18_2 C42_2 1_555 1_555
C44_2 O19_2 1_555 1_555
C45_2 N19_2 1_555 1_555
C46_2 C45_2 1_555 1_555
H19_2 C46_2 1_555 1_555
C47_2 C46_2 1_555 1_555
C48_2 C47_2 1_555 1_555
H20_2 C48_2 1_555 1_555
C49_2 C48_2 1_555 1_555
C50_2 C45_2 1_555 1_555
H21_2 C50_2 1_555 1_555
C51_2 C47_2 1_555 1_555
C52_2 C49_2 1_555 1_555
C53_2 N20_2 1_555 1_555
C54_2 C53_2 1_555 1_555
H22_2 C54_2 1_555 1_555
C55_2 C54_2 1_555 1_555
C56_2 C55_2 1_555 1_555
H23_2 C56_2 1_555 1_555
C57_2 C56_2 1_555 1_555
C58_2 C53_2 1_555 1_555
H24_2 C58_2 1_555 1_555
C59_2 O25_2 1_555 1_555
C60_2 C57_2 1_555 1_555
Cu14 O23_2 1_555 1_555
Cu12 O22_2 1_555 1_555
Cu20 O24_2 1_555 1_555
Cu18 O21_2 1_555 1_555
O34_2 Cu16 1_555 1_555
O36_2 Cu10 1_555 1_555
O38_2 Cu10 1_555 1_555
O40_2 Cu16 1_555 1_555
N13_2 C33_2 1_555 1_555
N15_2 C35_2 1_555 1_555
N17_2 C36_2 1_555 1_555
N18_2 C32_2 1_555 1_555
N19_2 C34_2 1_555 1_555
N20_2 C36_2 1_555 1_555
O26_2 C59_2 1_555 1_555
C41_2 C42_2 1_555 1_555
C41_2 C44_2 1_555 1_555
C49_2 C50_2 1_555 1_555
C55_2 C59_2 1_555 1_555
C57_2 C58_2 1_555 1_555
O30_2 H25_2 1_555 1_555
O30_2 H26_2 1_555 1_555
O29_2 H27_2 1_555 1_555
O29_2 H28_2 1_555 1_555
O14_5 H33_3 1_555 1_555
O14_5 H34_5 1_555 1_555
O13_5 H35_3 1_555 1_555
O13_5 H36_5 1_555 1_555
Cu1_4 Cu2_4 1_555 1_555
O13_6 Cu1_4 1_555 1_555
O14_6 Cu2_4 1_555 1_555
O31_3 Cu1_4 1_555 1_555
O32_3 Cu2_4 1_555 1_555
O41_3 Cu1_4 1_555 1_555
O42_3 Cu2_4 1_555 1_555
O14_6 H34_6 1_555 1_555
O13_6 H36_6 1_555 1_555
Cu15 O4_2 1_555 1_555
N1_2 C1_2 1_555 1_555
N2_2 C1_2 1_555 1_555
N3_2 C2_2 1_555 1_555
N4_2 C3_2 1_555 1_555
N5_2 C4_2 1_555 1_555
N6_2 C5_2 1_555 1_555
N7_2 C1_2 1_555 1_555
N8_2 H1_2 1_555 1_555
N9_2 H2_2 1_555 1_555
N10_2 H3_2 1_555 1_555
O3_2 Cu9 1_555 1_555
O4_2 C14_2 1_555 1_555
O5_2 C21_2 1_555 1_555
O6_2 C21_2 1_555 1_555
O7_2 C22_2 1_555 1_555
O8_2 C22_2 1_555 1_555
O9_2 C29_2 1_555 1_555
O10_2 C29_2 1_555 1_555
O43 C30_2 1_555 1_555
O45 C30_2 1_555 1_555
O15_2 Cu9 1_555 1_555
O16_2 Cu15 1_555 1_555
C2_2 N2_2 1_555 1_555
C3_2 N1_2 1_555 1_555
C4_2 N4_2 1_555 1_555
C5_2 N1_2 1_555 1_555
C6_2 N6_2 1_555 1_555
C7_2 N8_2 1_555 1_555
C8_2 C7_2 1_555 1_555
H4_2 C8_2 1_555 1_555
C9_2 C8_2 1_555 1_555
C10_2 C9_2 1_555 1_555
H5_2 C10_2 1_555 1_555
C11_2 C10_2 1_555 1_555
C12_2 C7_2 1_555 1_555
H6_2 C12_2 1_555 1_555
C14_2 O3_2 1_555 1_555
C15_2 N9_2 1_555 1_555
C16_2 C15_2 1_555 1_555
H7_2 C16_2 1_555 1_555
C17_2 C16_2 1_555 1_555
C18_2 C17_2 1_555 1_555
H8_2 C18_2 1_555 1_555
C19_2 C18_2 1_555 1_555
C20_2 C15_2 1_555 1_555
H9_2 C20_2 1_555 1_555
C21_2 C17_2 1_555 1_555
C22_2 C19_2 1_555 1_555
C23_2 N10_2 1_555 1_555
C24_2 C23_2 1_555 1_555
H10_2 C24_2 1_555 1_555
C25_2 C24_2 1_555 1_555
C26_2 C25_2 1_555 1_555
H11_2 C26_2 1_555 1_555
C27_2 C26_2 1_555 1_555
C28_2 C23_2 1_555 1_555
H12_2 C28_2 1_555 1_555
C29_2 C25_2 1_555 1_555
C30_2 C27_2 1_555 1_555
O17_2 C43_2 1_555 1_555
O18_2 C43_2 1_555 1_555
Cu7_3 O9_2 1_555 1_555
Cu8_3 O10_2 1_555 1_555
Cu13 O7_2 1_555 1_555
Cu11 O6_2 1_555 1_555
Cu19 O8_2 1_555 1_555
Cu17 O5_2 1_555 1_555
O33_2 Cu15 1_555 1_555
O35_2 Cu9 1_555 1_555
O37_2 Cu9 1_555 1_555
O39_2 Cu15 1_555 1_555
N3_2 C3_2 1_555 1_555
N5_2 C5_2 1_555 1_555
N7_2 C6_2 1_555 1_555
N8_2 C2_2 1_555 1_555
N9_2 C4_2 1_555 1_555
N10_2 C6_2 1_555 1_555
C11_2 C12_2 1_555 1_555
C11_2 C14_2 1_555 1_555
C19_2 C20_2 1_555 1_555
C27_2 C28_2 1_555 1_555
O17_2 Cu7_3 1_555 1_555
O18_2 Cu8_3 1_555 1_555
Cu7_3 Cu8_3 1_555 1_555
O16_2 H29_2 1_555 1_555
O16_2 H30_2 1_555 1_555
O15_2 H31_2 1_555 1_555
O15_2 H32_2 1_555 1_555
Cu7_4 Cu8_4 1_555 1_555
O13_7 Cu7_3 1_555 1_555
O14_7 Cu8_3 1_555 1_555
O14_7 H33_4 1_555 1_555
O14_7 H34_7 1_555 1_555
O13_7 H35_4 1_555 1_555
O13_7 H36_7 1_555 1_555
O13_8 Cu7_4 1_555 1_555
O14_8 Cu8_4 1_555 1_555
O31_4 Cu7_4 1_555 1_555
O32_4 Cu8_4 1_555 1_555
O41_4 Cu7_4 1_555 1_555
O42_4 Cu8_4 1_555 1_555
O14_8 H34_8 1_555 1_555
O13_8 H36_8 1_555 1_555
Cu1_5 Cu2_5 1_555 1_555
Cu2_5 O2_3 1_555 1_555
Cu3_2 Cu4_2 1_555 1_555
Cu4_2 O4_3 1_555 1_555
N3_3 C2_3 1_555 1_555
N4_3 C3_3 1_555 1_555
N5_3 C4_3 1_555 1_555
N8_3 H1_3 1_555 1_555
N9_3 H2_3 1_555 1_555
O1_3 Cu1_5 1_555 1_555
O2_3 C13_3 1_555 1_555
O3_3 Cu3_2 1_555 1_555
O4_3 C14_3 1_555 1_555
O7_3 C22_3 1_555 1_555
O8_3 C22_3 1_555 1_555
O13_9 Cu1_5 1_555 1_555
O14_9 Cu2_5 1_555 1_555
O15_3 Cu3_2 1_555 1_555
O16_3 Cu4_2 1_555 1_555
C4_3 N4_3 1_555 1_555
C7_3 N8_3 1_555 1_555
C8_3 C7_3 1_555 1_555
H4_3 C8_3 1_555 1_555
C9_3 C8_3 1_555 1_555
C10_3 C9_3 1_555 1_555
H5_3 C10_3 1_555 1_555
C11_3 C10_3 1_555 1_555
C12_3 C7_3 1_555 1_555
H6_3 C12_3 1_555 1_555
C13_3 O1_3 1_555 1_555
C14_3 O3_3 1_555 1_555
C15_3 N9_3 1_555 1_555
C16_3 C15_3 1_555 1_555
C17_3 C16_3 1_555 1_555
C18_3 C17_3 1_555 1_555
H8_3 C18_3 1_555 1_555
C19_3 C18_3 1_555 1_555
C20_3 C15_3 1_555 1_555
H9_3 C20_3 1_555 1_555
C22_3 C19_3 1_555 1_555
N11_3 C31_3 1_555 1_555
N12_3 C31_3 1_555 1_555
N16_3 C35_3 1_555 1_555
N17_3 C31_3 1_555 1_555
N20_3 H15_3 1_555 1_555
O21_3 C51_3 1_555 1_555
O22_3 C51_3 1_555 1_555
O25_3 Cu1_5 1_555 1_555
O26_3 Cu2_5 1_555 1_555
O27_2 C60_3 1_555 1_555
O28_2 C60_3 1_555 1_555
C35_3 N11_3 1_555 1_555
C36_3 N16_3 1_555 1_555
C53_3 N20_3 1_555 1_555
C54_3 C53_3 1_555 1_555
H22_3 C54_3 1_555 1_555
C55_3 C54_3 1_555 1_555
C56_3 C55_3 1_555 1_555
H23_3 C56_3 1_555 1_555
C57_3 C56_3 1_555 1_555
C58_3 C53_3 1_555 1_555
H24_3 C58_3 1_555 1_555
C59_3 O25_3 1_555 1_555
C60_3 C57_3 1_555 1_555
Cu9_2 O27_2 1_555 1_555
Cu11_2 O7_3 1_555 1_555
Cu13_2 O22_3 1_555 1_555
Cu15_2 O28_2 1_555 1_555
Cu17_2 O8_3 1_555 1_555
Cu19_2 O21_3 1_555 1_555
O31_5 Cu1_5 1_555 1_555
O32_5 Cu2_5 1_555 1_555
O33_3 Cu4_2 1_555 1_555
O35_3 Cu3_2 1_555 1_555
O37_3 Cu3_2 1_555 1_555
O39_3 Cu4_2 1_555 1_555
O41_5 Cu1_5 1_555 1_555
O42_5 Cu2_5 1_555 1_555
O43_2 Cu3_2 1_555 1_555
O45_2 Cu4_2 1_555 1_555
N3_3 C3_3 1_555 1_555
N8_3 C2_3 1_555 1_555
N9_3 C4_3 1_555 1_555
C9_3 C13_3 1_555 1_555
C11_3 C12_3 1_555 1_555
C11_3 C14_3 1_555 1_555
C19_3 C20_3 1_555 1_555
N17_3 C36_3 1_555 1_555
N20_3 C36_3 1_555 1_555
O26_3 C59_3 1_555 1_555
C55_3 C59_3 1_555 1_555
C57_3 C58_3 1_555 1_555
Cu9_2 Cu15_2 1_555 1_555
Cu11_2 Cu17_2 1_555 1_555
Cu13_2 Cu19_2 1_555 1_555
O16_3 H29_3 1_555 1_555
O16_3 H30_3 1_555 1_555
O15_3 H31_3 1_555 1_555
O15_3 H32_3 1_555 1_555
N1_3 C1_3 1_555 1_555
N2_3 C1_3 1_555 1_555
N6_3 C5_3 1_555 1_555
N7_3 C1_3 1_555 1_555
N10_3 H3_3 1_555 1_555
O5_3 C21_3 1_555 1_555
O6_3 C21_3 1_555 1_555
O9_3 C29_3 1_555 1_555
O10_3 C29_3 1_555 1_555
O11_2 C30_3 1_555 1_555
O12_2 C30_3 1_555 1_555
C5_3 N1_3 1_555 1_555
C6_3 N6_3 1_555 1_555
C23_3 N10_3 1_555 1_555
C24_3 C23_3 1_555 1_555
H10_3 C24_3 1_555 1_555
C25_3 C24_3 1_555 1_555
C26_3 C25_3 1_555 1_555
H11_3 C26_3 1_555 1_555
C27_3 C26_3 1_555 1_555
C28_3 C23_3 1_555 1_555
H12_3 C28_3 1_555 1_555
C29_3 C25_3 1_555 1_555
C30_3 C27_3 1_555 1_555
Cu5_2 Cu6_2 1_555 1_555
Cu6_2 O20_3 1_555 1_555
N13_3 C32_3 1_555 1_555
N14_3 C33_3 1_555 1_555
N15_3 C34_3 1_555 1_555
N18_3 H13_3 1_555 1_555
N19_3 H14_3 1_555 1_555
O17_3 C43_3 1_555 1_555
O18_3 C43_3 1_555 1_555
O19_3 Cu5_2 1_555 1_555
O20_3 C44_3 1_555 1_555
O23_3 C52_3 1_555 1_555
O24_3 C52_3 1_555 1_555
O29_3 Cu5_2 1_555 1_555
O30_3 Cu6_2 1_555 1_555
C34_3 N14_3 1_555 1_555
C37_3 N18_3 1_555 1_555
C38_3 C37_3 1_555 1_555
H16_3 C38_3 1_555 1_555
C39_3 C38_3 1_555 1_555
C40_3 C39_3 1_555 1_555
H17_3 C40_3 1_555 1_555
C41_3 C40_3 1_555 1_555
C42_3 C37_3 1_555 1_555
H18_3 C42_3 1_555 1_555
C43_3 C39_3 1_555 1_555
C44_3 O19_3 1_555 1_555
C45_3 N19_3 1_555 1_555
C46_3 C45_3 1_555 1_555
C47_3 C46_3 1_555 1_555
C48_3 C47_3 1_555 1_555
H20_3 C48_3 1_555 1_555
C49_3 C48_3 1_555 1_555
C50_3 C45_3 1_555 1_555
H21_3 C50_3 1_555 1_555
C52_3 C49_3 1_555 1_555
Cu7_5 O9_3 1_555 1_555
Cu8_5 O10_3 1_555 1_555
Cu10_2 O11_2 1_555 1_555
Cu12_2 O23_3 1_555 1_555
Cu14_2 O6_3 1_555 1_555
Cu16_2 O12_2 1_555 1_555
Cu18_2 O24_3 1_555 1_555
Cu20_2 O5_3 1_555 1_555
O34_3 Cu6_2 1_555 1_555
O36_3 Cu5_2 1_555 1_555
O38_3 Cu5_2 1_555 1_555
O40_3 Cu6_2 1_555 1_555
O44_2 Cu5_2 1_555 1_555
O46_2 Cu6_2 1_555 1_555
N7_3 C6_3 1_555 1_555
N10_3 C6_3 1_555 1_555
C27_3 C28_3 1_555 1_555
N13_3 C33_3 1_555 1_555
N18_3 C32_3 1_555 1_555
N19_3 C34_3 1_555 1_555
O17_3 Cu7_5 1_555 1_555
O18_3 Cu8_5 1_555 1_555
C41_3 C42_3 1_555 1_555
C41_3 C44_3 1_555 1_555
C49_3 C50_3 1_555 1_555
Cu7_5 Cu8_5 1_555 1_555
Cu10_2 Cu16_2 1_555 1_555
Cu12_2 Cu18_2 1_555 1_555
Cu14_2 Cu20_2 1_555 1_555
O30_3 H25_3 1_555 1_555
O30_3 H26_3 1_555 1_555
O29_3 H27_3 1_555 1_555
O29_3 H28_3 1_555 1_555
O13_10 Cu7_5 1_555 1_555
O14_10 Cu8_5 1_555 1_555
O31_6 Cu7_5 1_555 1_555
O32_6 Cu8_5 1_555 1_555
O41_6 Cu7_5 1_555 1_555
O42_6 Cu8_5 1_555 1_555
Cu1_6 Cu2_6 1_555 1_555
Cu2_6 O2_4 1_555 1_555
Cu15_2 O4_4 1_555 1_555
N3_4 C2_4 1_555 1_555
N4_4 C3_4 1_555 1_555
N5_4 C4_4 1_555 1_555
N8_4 H1_4 1_555 1_555
N9_4 H2_4 1_555 1_555
O1_4 Cu1_6 1_555 1_555
O2_4 C13_4 1_555 1_555
O3_4 Cu9_2 1_555 1_555
O4_4 C14_4 1_555 1_555
O7_4 C22_4 1_555 1_555
O8_4 C22_4 1_555 1_555
O13_11 Cu1_6 1_555 1_555
O14_11 Cu2_6 1_555 1_555
O15_4 Cu9_2 1_555 1_555
O16_4 Cu15_2 1_555 1_555
C4_4 N4_4 1_555 1_555
C7_4 N8_4 1_555 1_555
C8_4 C7_4 1_555 1_555
H4_4 C8_4 1_555 1_555
C9_4 C8_4 1_555 1_555
C10_4 C9_4 1_555 1_555
H5_4 C10_4 1_555 1_555
C11_4 C10_4 1_555 1_555
C12_4 C7_4 1_555 1_555
H6_4 C12_4 1_555 1_555
C13_4 O1_4 1_555 1_555
C14_4 O3_4 1_555 1_555
C15_4 N9_4 1_555 1_555
C16_4 C15_4 1_555 1_555
C17_4 C16_4 1_555 1_555
C18_4 C17_4 1_555 1_555
H8_4 C18_4 1_555 1_555
C19_4 C18_4 1_555 1_555
C20_4 C15_4 1_555 1_555
H9_4 C20_4 1_555 1_555
C22_4 C19_4 1_555 1_555
N11_4 C31_4 1_555 1_555
N12_4 C31_4 1_555 1_555
N16_4 C35_4 1_555 1_555
N17_4 C31_4 1_555 1_555
N20_4 H15_4 1_555 1_555
O21_4 C51_4 1_555 1_555
O22_4 C51_4 1_555 1_555
O25_4 Cu1_6 1_555 1_555
O26_4 Cu2_6 1_555 1_555
O44_2 C60_4 1_555 1_555
O46_2 C60_4 1_555 1_555
C35_4 N11_4 1_555 1_555
C36_4 N16_4 1_555 1_555
C53_4 N20_4 1_555 1_555
C54_4 C53_4 1_555 1_555
H22_4 C54_4 1_555 1_555
C55_4 C54_4 1_555 1_555
C56_4 C55_4 1_555 1_555
H23_4 C56_4 1_555 1_555
C57_4 C56_4 1_555 1_555
C58_4 C53_4 1_555 1_555
H24_4 C58_4 1_555 1_555
C59_4 O25_4 1_555 1_555
C60_4 C57_4 1_555 1_555
Cu13_2 O7_4 1_555 1_555
Cu12_2 O22_4 1_555 1_555
Cu19_2 O8_4 1_555 1_555
Cu18_2 O21_4 1_555 1_555
O31_7 Cu1_6 1_555 1_555
O32_7 Cu2_6 1_555 1_555
O33_4 Cu15_2 1_555 1_555
O35_4 Cu9_2 1_555 1_555
O37_4 Cu9_2 1_555 1_555
O39_4 Cu15_2 1_555 1_555
O41_7 Cu1_6 1_555 1_555
O42_7 Cu2_6 1_555 1_555
N3_4 C3_4 1_555 1_555
N8_4 C2_4 1_555 1_555
N9_4 C4_4 1_555 1_555
C9_4 C13_4 1_555 1_555
C11_4 C12_4 1_555 1_555
C11_4 C14_4 1_555 1_555
C19_4 C20_4 1_555 1_555
N17_4 C36_4 1_555 1_555
N20_4 C36_4 1_555 1_555
O26_4 C59_4 1_555 1_555
C55_4 C59_4 1_555 1_555
C57_4 C58_4 1_555 1_555
O16_4 H29_4 1_555 1_555
O16_4 H30_4 1_555 1_555
O15_4 H31_4 1_555 1_555
O15_4 H32_4 1_555 1_555
N1_4 C1_4 1_555 1_555
N2_4 C1_4 1_555 1_555
N6_4 C5_4 1_555 1_555
N7_4 C1_4 1_555 1_555
N10_4 H3_4 1_555 1_555
O5_4 C21_4 1_555 1_555
O6_4 C21_4 1_555 1_555
O9_4 C29_4 1_555 1_555
O10_4 C29_4 1_555 1_555
O43_2 C30_4 1_555 1_555
O45_2 C30_4 1_555 1_555
C5_4 N1_4 1_555 1_555
C6_4 N6_4 1_555 1_555
C23_4 N10_4 1_555 1_555
C24_4 C23_4 1_555 1_555
H10_4 C24_4 1_555 1_555
C25_4 C24_4 1_555 1_555
C26_4 C25_4 1_555 1_555
H11_4 C26_4 1_555 1_555
C27_4 C26_4 1_555 1_555
C28_4 C23_4 1_555 1_555
H12_4 C28_4 1_555 1_555
C29_4 C25_4 1_555 1_555
C30_4 C27_4 1_555 1_555
Cu16_2 O20_4 1_555 1_555
N13_4 C32_4 1_555 1_555
N14_4 C33_4 1_555 1_555
N15_4 C34_4 1_555 1_555
N18_4 H13_4 1_555 1_555
N19_4 H14_4 1_555 1_555
O17_4 C43_4 1_555 1_555
O18_4 C43_4 1_555 1_555
O19_4 Cu10_2 1_555 1_555
O20_4 C44_4 1_555 1_555
O23_4 C52_4 1_555 1_555
O24_4 C52_4 1_555 1_555
O29_4 Cu10_2 1_555 1_555
O30_4 Cu16_2 1_555 1_555
C34_4 N14_4 1_555 1_555
C37_4 N18_4 1_555 1_555
C38_4 C37_4 1_555 1_555
H16_4 C38_4 1_555 1_555
C39_4 C38_4 1_555 1_555
C40_4 C39_4 1_555 1_555
H17_4 C40_4 1_555 1_555
C41_4 C40_4 1_555 1_555
C42_4 C37_4 1_555 1_555
H18_4 C42_4 1_555 1_555
C43_4 C39_4 1_555 1_555
C44_4 O19_4 1_555 1_555
C45_4 N19_4 1_555 1_555
C46_4 C45_4 1_555 1_555
C47_4 C46_4 1_555 1_555
C48_4 C47_4 1_555 1_555
H20_4 C48_4 1_555 1_555
C49_4 C48_4 1_555 1_555
C50_4 C45_4 1_555 1_555
H21_4 C50_4 1_555 1_555
C52_4 C49_4 1_555 1_555
Cu7_6 O9_4 1_555 1_555
Cu8_6 O10_4 1_555 1_555
Cu14_2 O23_4 1_555 1_555
Cu11_2 O6_4 1_555 1_555
Cu20_2 O24_4 1_555 1_555
Cu17_2 O5_4 1_555 1_555
O34_4 Cu16_2 1_555 1_555
O36_4 Cu10_2 1_555 1_555
O38_4 Cu10_2 1_555 1_555
O40_4 Cu16_2 1_555 1_555
N7_4 C6_4 1_555 1_555
N10_4 C6_4 1_555 1_555
C27_4 C28_4 1_555 1_555
N13_4 C33_4 1_555 1_555
N18_4 C32_4 1_555 1_555
N19_4 C34_4 1_555 1_555
O17_4 Cu7_6 1_555 1_555
O18_4 Cu8_6 1_555 1_555
C41_4 C42_4 1_555 1_555
C41_4 C44_4 1_555 1_555
C49_4 C50_4 1_555 1_555
Cu7_6 Cu8_6 1_555 1_555
O30_4 H25_4 1_555 1_555
O30_4 H26_4 1_555 1_555
O29_4 H27_4 1_555 1_555
O29_4 H28_4 1_555 1_555
O13_12 Cu7_6 1_555 1_555
O14_12 Cu8_6 1_555 1_555
O31_8 Cu7_6 1_555 1_555
O32_8 Cu8_6 1_555 1_555
O41_8 Cu7_6 1_555 1_555
O42_8 Cu8_6 1_555 1_555
O32_2 C13_5 1_555 1_555
C13_5 O31_2 1_555 1_555
Cu18_2 O20_5 1_555 1_555
N11_5 C31_5 1_555 1_555
N12_5 C31_5 1_555 1_555
N13_5 C32_5 1_555 1_555
N14_5 C33_5 1_555 1_555
N15_5 C34_5 1_555 1_555
N16_5 C35_5 1_555 1_555
N17_5 C31_5 1_555 1_555
N18_5 H13_5 1_555 1_555
N19_5 H14_5 1_555 1_555
N20_5 H15_5 1_555 1_555
O19_5 Cu12_2 1_555 1_555
O20_5 C44_5 1_555 1_555
O33_4 C51_5 1_555 1_555
O35_4 C51_5 1_555 1_555
O38_3 C52_5 1_555 1_555
O40_3 C52_5 1_555 1_555
O27_3 C60_5 1_555 1_555
O28_3 C60_5 1_555 1_555
O29_5 Cu12_2 1_555 1_555
O30_5 Cu18_2 1_555 1_555
C32_5 N12_5 1_555 1_555
C33_5 N11_5 1_555 1_555
C34_5 N14_5 1_555 1_555
C35_5 N11_5 1_555 1_555
C36_5 N16_5 1_555 1_555
C37_5 N18_5 1_555 1_555
C38_5 C37_5 1_555 1_555
H16_5 C38_5 1_555 1_555
C39_5 C38_5 1_555 1_555
C40_5 C39_5 1_555 1_555
H17_5 C40_5 1_555 1_555
C41_5 C40_5 1_555 1_555
C42_5 C37_5 1_555 1_555
H18_5 C42_5 1_555 1_555
C44_5 O19_5 1_555 1_555
C45_5 N19_5 1_555 1_555
C46_5 C45_5 1_555 1_555
H19_5 C46_5 1_555 1_555
C47_5 C46_5 1_555 1_555
C48_5 C47_5 1_555 1_555
H20_5 C48_5 1_555 1_555
C49_5 C48_5 1_555 1_555
C50_5 C45_5 1_555 1_555
H21_5 C50_5 1_555 1_555
C51_5 C47_5 1_555 1_555
C52_5 C49_5 1_555 1_555
C53_5 N20_5 1_555 1_555
C54_5 C53_5 1_555 1_555
H22_5 C54_5 1_555 1_555
C55_5 C54_5 1_555 1_555
C56_5 C55_5 1_555 1_555
H23_5 C56_5 1_555 1_555
C57_5 C56_5 1_555 1_555
C58_5 C53_5 1_555 1_555
H24_5 C58_5 1_555 1_555
C59_5 O41_2 1_555 1_555
C60_5 C57_5 1_555 1_555
Cu13_2 O27_3 1_555 1_555
Cu19_2 O28_3 1_555 1_555
O44_3 Cu12_2 1_555 1_555
O46_3 Cu18_2 1_555 1_555
N13_5 C33_5 1_555 1_555
N15_5 C35_5 1_555 1_555
N17_5 C36_5 1_555 1_555
N18_5 C32_5 1_555 1_555
N19_5 C34_5 1_555 1_555
N20_5 C36_5 1_555 1_555
O42_2 C59_5 1_555 1_555
C41_5 C42_5 1_555 1_555
C41_5 C44_5 1_555 1_555
C49_5 C50_5 1_555 1_555
C55_5 C59_5 1_555 1_555
C57_5 C58_5 1_555 1_555
O30_5 H25_5 1_555 1_555
O30_5 H26_5 1_555 1_555
O29_5 H27_5 1_555 1_555
O29_5 H28_5 1_555 1_555
O14_4 H33_5 1_555 1_555
O13_4 H35_5 1_555 1_555
Cu17_2 O4_5 1_555 1_555
N1_5 C1_5 1_555 1_555
N2_5 C1_5 1_555 1_555
N3_5 C2_5 1_555 1_555
N4_5 C3_5 1_555 1_555
N5_5 C4_5 1_555 1_555
N6_5 C5_5 1_555 1_555
N7_5 C1_5 1_555 1_555
N8_5 H1_5 1_555 1_555
N9_5 H2_5 1_555 1_555
N10_5 H3_5 1_555 1_555
O3_5 Cu11_2 1_555 1_555
O4_5 C14_5 1_555 1_555
O34_4 C21_5 1_555 1_555
O36_4 C21_5 1_555 1_555
O37_3 C22_5 1_555 1_555
O39_3 C22_5 1_555 1_555
O41 C29_5 1_555 1_555
O42 C29_5 1_555 1_555
O11_3 C30_5 1_555 1_555
O12_3 C30_5 1_555 1_555
O15_5 Cu11_2 1_555 1_555
O16_5 Cu17_2 1_555 1_555
C2_5 N2_5 1_555 1_555
C3_5 N1_5 1_555 1_555
C4_5 N4_5 1_555 1_555
C5_5 N1_5 1_555 1_555
C6_5 N6_5 1_555 1_555
C7_5 N8_5 1_555 1_555
C8_5 C7_5 1_555 1_555
H4_5 C8_5 1_555 1_555
C9_5 C8_5 1_555 1_555
C10_5 C9_5 1_555 1_555
H5_5 C10_5 1_555 1_555
C11_5 C10_5 1_555 1_555
C12_5 C7_5 1_555 1_555
H6_5 C12_5 1_555 1_555
C14_5 O3_5 1_555 1_555
C15_5 N9_5 1_555 1_555
C16_5 C15_5 1_555 1_555
H7_5 C16_5 1_555 1_555
C17_5 C16_5 1_555 1_555
C18_5 C17_5 1_555 1_555
H8_5 C18_5 1_555 1_555
C19_5 C18_5 1_555 1_555
C20_5 C15_5 1_555 1_555
H9_5 C20_5 1_555 1_555
C21_5 C17_5 1_555 1_555
C22_5 C19_5 1_555 1_555
C23_5 N10_5 1_555 1_555
C24_5 C23_5 1_555 1_555
H10_5 C24_5 1_555 1_555
C25_5 C24_5 1_555 1_555
C26_5 C25_5 1_555 1_555
H11_5 C26_5 1_555 1_555
C27_5 C26_5 1_555 1_555
C28_5 C23_5 1_555 1_555
H12_5 C28_5 1_555 1_555
C29_5 C25_5 1_555 1_555
C30_5 C27_5 1_555 1_555
O31 C43_5 1_555 1_555
O32 C43_5 1_555 1_555
Cu14_2 O11_3 1_555 1_555
Cu20_2 O12_3 1_555 1_555
O43_3 Cu11_2 1_555 1_555
O45_3 Cu17_2 1_555 1_555
N3_5 C3_5 1_555 1_555
N5_5 C5_5 1_555 1_555
N7_5 C6_5 1_555 1_555
N8_5 C2_5 1_555 1_555
N9_5 C4_5 1_555 1_555
N10_5 C6_5 1_555 1_555
C11_5 C12_5 1_555 1_555
C11_5 C14_5 1_555 1_555
C19_5 C20_5 1_555 1_555
C27_5 C28_5 1_555 1_555
O16_5 H29_5 1_555 1_555
O16_5 H30_5 1_555 1_555
O15_5 H31_5 1_555 1_555
O15_5 H32_5 1_555 1_555
O14_2 H33_6 1_555 1_555
O13_2 H35_6 1_555 1_555
Cu19_2 O4_6 1_555 1_555
N1_6 C1_6 1_555 1_555
N2_6 C1_6 1_555 1_555
N3_6 C2_6 1_555 1_555
N4_6 C3_6 1_555 1_555
N5_6 C4_6 1_555 1_555
N6_6 C5_6 1_555 1_555
N7_6 C1_6 1_555 1_555
N8_6 H1_6 1_555 1_555
N9_6 H2_6 1_555 1_555
N10_6 H3_6 1_555 1_555
O3_6 Cu13_2 1_555 1_555
O4_6 C14_6 1_555 1_555
O33_3 C21_6 1_555 1_555
O35_3 C21_6 1_555 1_555
O37_4 C22_6 1_555 1_555
O39_4 C22_6 1_555 1_555
O41_3 C29_6 1_555 1_555
O42_3 C29_6 1_555 1_555
O43_3 C30_6 1_555 1_555
O45_3 C30_6 1_555 1_555
O15_6 Cu13_2 1_555 1_555
O16_6 Cu19_2 1_555 1_555
C2_6 N2_6 1_555 1_555
C3_6 N1_6 1_555 1_555
C4_6 N4_6 1_555 1_555
C5_6 N1_6 1_555 1_555
C6_6 N6_6 1_555 1_555
C7_6 N8_6 1_555 1_555
C8_6 C7_6 1_555 1_555
H4_6 C8_6 1_555 1_555
C9_6 C8_6 1_555 1_555
C10_6 C9_6 1_555 1_555
H5_6 C10_6 1_555 1_555
C11_6 C10_6 1_555 1_555
C12_6 C7_6 1_555 1_555
H6_6 C12_6 1_555 1_555
C14_6 O3_6 1_555 1_555
C15_6 N9_6 1_555 1_555
C16_6 C15_6 1_555 1_555
H7_6 C16_6 1_555 1_555
C17_6 C16_6 1_555 1_555
C18_6 C17_6 1_555 1_555
H8_6 C18_6 1_555 1_555
C19_6 C18_6 1_555 1_555
C20_6 C15_6 1_555 1_555
H9_6 C20_6 1_555 1_555
C21_6 C17_6 1_555 1_555
C22_6 C19_6 1_555 1_555
C23_6 N10_6 1_555 1_555
C24_6 C23_6 1_555 1_555
H10_6 C24_6 1_555 1_555
C25_6 C24_6 1_555 1_555
C26_6 C25_6 1_555 1_555
H11_6 C26_6 1_555 1_555
C27_6 C26_6 1_555 1_555
C28_6 C23_6 1_555 1_555
H12_6 C28_6 1_555 1_555
C29_6 C25_6 1_555 1_555
C30_6 C27_6 1_555 1_555
O31_3 C43_6 1_555 1_555
O32_3 C43_6 1_555 1_555
N3_6 C3_6 1_555 1_555
N5_6 C5_6 1_555 1_555
N7_6 C6_6 1_555 1_555
N8_6 C2_6 1_555 1_555
N9_6 C4_6 1_555 1_555
N10_6 C6_6 1_555 1_555
C11_6 C12_6 1_555 1_555
C11_6 C14_6 1_555 1_555
C19_6 C20_6 1_555 1_555
C27_6 C28_6 1_555 1_555
O16_6 H29_6 1_555 1_555
O16_6 H30_6 1_555 1_555
O15_6 H31_6 1_555 1_555
O15_6 H32_6 1_555 1_555
O32_4 C13_6 1_555 1_555
C13_6 O31_4 1_555 1_555
Cu20_2 O20_6 1_555 1_555
N11_6 C31_6 1_555 1_555
N12_6 C31_6 1_555 1_555
N13_6 C32_6 1_555 1_555
N14_6 C33_6 1_555 1_555
N15_6 C34_6 1_555 1_555
N16_6 C35_6 1_555 1_555
N17_6 C31_6 1_555 1_555
N18_6 H13_6 1_555 1_555
N19_6 H14_6 1_555 1_555
N20_6 H15_6 1_555 1_555
O19_6 Cu14_2 1_555 1_555
O20_6 C44_6 1_555 1_555
O34_3 C51_6 1_555 1_555
O36_3 C51_6 1_555 1_555
O38_4 C52_6 1_555 1_555
O40_4 C52_6 1_555 1_555
O44_3 C60_6 1_555 1_555
O46_3 C60_6 1_555 1_555
O29_6 Cu14_2 1_555 1_555
O30_6 Cu20_2 1_555 1_555
C32_6 N12_6 1_555 1_555
C33_6 N11_6 1_555 1_555
C34_6 N14_6 1_555 1_555
C35_6 N11_6 1_555 1_555
C36_6 N16_6 1_555 1_555
C37_6 N18_6 1_555 1_555
C38_6 C37_6 1_555 1_555
H16_6 C38_6 1_555 1_555
C39_6 C38_6 1_555 1_555
C40_6 C39_6 1_555 1_555
H17_6 C40_6 1_555 1_555
C41_6 C40_6 1_555 1_555
C42_6 C37_6 1_555 1_555
H18_6 C42_6 1_555 1_555
C44_6 O19_6 1_555 1_555
C45_6 N19_6 1_555 1_555
C46_6 C45_6 1_555 1_555
H19_6 C46_6 1_555 1_555
C47_6 C46_6 1_555 1_555
C48_6 C47_6 1_555 1_555
H20_6 C48_6 1_555 1_555
C49_6 C48_6 1_555 1_555
C50_6 C45_6 1_555 1_555
H21_6 C50_6 1_555 1_555
C51_6 C47_6 1_555 1_555
C52_6 C49_6 1_555 1_555
C53_6 N20_6 1_555 1_555
C54_6 C53_6 1_555 1_555
H22_6 C54_6 1_555 1_555
C55_6 C54_6 1_555 1_555
C56_6 C55_6 1_555 1_555
H23_6 C56_6 1_555 1_555
C57_6 C56_6 1_555 1_555
C58_6 C53_6 1_555 1_555
H24_6 C58_6 1_555 1_555
C59_6 O41_4 1_555 1_555
C60_6 C57_6 1_555 1_555
N13_6 C33_6 1_555 1_555
N15_6 C35_6 1_555 1_555
N17_6 C36_6 1_555 1_555
N18_6 C32_6 1_555 1_555
N19_6 C34_6 1_555 1_555
N20_6 C36_6 1_555 1_555
O42_4 C59_6 1_555 1_555
C41_6 C42_6 1_555 1_555
C41_6 C44_6 1_555 1_555
C49_6 C50_6 1_555 1_555
C55_6 C59_6 1_555 1_555
C57_6 C58_6 1_555 1_555
O30_6 H25_6 1_555 1_555
O30_6 H26_6 1_555 1_555
O29_6 H27_6 1_555 1_555
O29_6 H28_6 1_555 1_555
O14_8 H33_7 1_555 1_555
O13_8 H35_7 1_555 1_555
O14_6 H33_8 1_555 1_555
O13_6 H35_8 1_555 1_555
N1_7 C1_7 1_555 1_555
N2_7 C1_7 1_555 1_555
N6_7 C5_7 1_555 1_555
N7_7 C1_7 1_555 1_555
N10_7 H3_7 1_555 1_555
O34_2 C21_7 1_555 1_555
O36_2 C21_7 1_555 1_555
O41_5 C29_7 1_555 1_555
O42_5 C29_7 1_555 1_555
O11_4 C30_7 1_555 1_555
O12_4 C30_7 1_555 1_555
C5_7 N1_7 1_555 1_555
C6_7 N6_7 1_555 1_555
C23_7 N10_7 1_555 1_555
C24_7 C23_7 1_555 1_555
H10_7 C24_7 1_555 1_555
C25_7 C24_7 1_555 1_555
C26_7 C25_7 1_555 1_555
H11_7 C26_7 1_555 1_555
C27_7 C26_7 1_555 1_555
C28_7 C23_7 1_555 1_555
H12_7 C28_7 1_555 1_555
C29_7 C25_7 1_555 1_555
C30_7 C27_7 1_555 1_555
Cu18 O20_7 1_555 1_555
N13_7 C32_7 1_555 1_555
N14_7 C33_7 1_555 1_555
N15_7 C34_7 1_555 1_555
N18_7 H13_7 1_555 1_555
N19_7 H14_7 1_555 1_555
O31_5 C43_7 1_555 1_555
O32_5 C43_7 1_555 1_555
O19_7 Cu12 1_555 1_555
O20_7 C44_7 1_555 1_555
O38 C52_7 1_555 1_555
O40 C52_7 1_555 1_555
O29_7 Cu12 1_555 1_555
O30_7 Cu18 1_555 1_555
C34_7 N14_7 1_555 1_555
C37_7 N18_7 1_555 1_555
C38_7 C37_7 1_555 1_555
H16_7 C38_7 1_555 1_555
C39_7 C38_7 1_555 1_555
C40_7 C39_7 1_555 1_555
H17_7 C40_7 1_555 1_555
C41_7 C40_7 1_555 1_555
C42_7 C37_7 1_555 1_555
H18_7 C42_7 1_555 1_555
C43_7 C39_7 1_555 1_555
C44_7 O19_7 1_555 1_555
C45_7 N19_7 1_555 1_555
C46_7 C45_7 1_555 1_555
C47_7 C46_7 1_555 1_555
C48_7 C47_7 1_555 1_555
H20_7 C48_7 1_555 1_555
C49_7 C48_7 1_555 1_555
C50_7 C45_7 1_555 1_555
H21_7 C50_7 1_555 1_555
C52_7 C49_7 1_555 1_555
Cu14 O11_4 1_555 1_555
Cu20 O12_4 1_555 1_555
O44_4 Cu12 1_555 1_555
O46_4 Cu18 1_555 1_555
N7_7 C6_7 1_555 1_555
N10_7 C6_7 1_555 1_555
C27_7 C28_7 1_555 1_555
N13_7 C33_7 1_555 1_555
N18_7 C32_7 1_555 1_555
N19_7 C34_7 1_555 1_555
C41_7 C42_7 1_555 1_555
C41_7 C44_7 1_555 1_555
C49_7 C50_7 1_555 1_555
O30_7 H25_7 1_555 1_555
O30_7 H26_7 1_555 1_555
O29_7 H27_7 1_555 1_555
O29_7 H28_7 1_555 1_555
Cu17 O4_7 1_555 1_555
N3_7 C2_7 1_555 1_555
N4_7 C3_7 1_555 1_555
N5_7 C4_7 1_555 1_555
N8_7 H1_7 1_555 1_555
N9_7 H2_7 1_555 1_555
O32_6 C13_7 1_555 1_555
O3_7 Cu11 1_555 1_555
O4_7 C14_7 1_555 1_555
O37 C22_7 1_555 1_555
O39 C22_7 1_555 1_555
O15_7 Cu11 1_555 1_555
O16_7 Cu17 1_555 1_555
C4_7 N4_7 1_555 1_555
C7_7 N8_7 1_555 1_555
C8_7 C7_7 1_555 1_555
H4_7 C8_7 1_555 1_555
C9_7 C8_7 1_555 1_555
C10_7 C9_7 1_555 1_555
H5_7 C10_7 1_555 1_555
C11_7 C10_7 1_555 1_555
C12_7 C7_7 1_555 1_555
H6_7 C12_7 1_555 1_555
C13_7 O31_6 1_555 1_555
C14_7 O3_7 1_555 1_555
C15_7 N9_7 1_555 1_555
C16_7 C15_7 1_555 1_555
C17_7 C16_7 1_555 1_555
C18_7 C17_7 1_555 1_555
H8_7 C18_7 1_555 1_555
C19_7 C18_7 1_555 1_555
C20_7 C15_7 1_555 1_555
H9_7 C20_7 1_555 1_555
C22_7 C19_7 1_555 1_555
N11_7 C31_7 1_555 1_555
N12_7 C31_7 1_555 1_555
N16_7 C35_7 1_555 1_555
N17_7 C31_7 1_555 1_555
N20_7 H15_7 1_555 1_555
O33_2 C51_7 1_555 1_555
O35_2 C51_7 1_555 1_555
O27_4 C60_7 1_555 1_555
O28_4 C60_7 1_555 1_555
C35_7 N11_7 1_555 1_555
C36_7 N16_7 1_555 1_555
C53_7 N20_7 1_555 1_555
C54_7 C53_7 1_555 1_555
H22_7 C54_7 1_555 1_555
C55_7 C54_7 1_555 1_555
C56_7 C55_7 1_555 1_555
H23_7 C56_7 1_555 1_555
C57_7 C56_7 1_555 1_555
C58_7 C53_7 1_555 1_555
H24_7 C58_7 1_555 1_555
C59_7 O41_6 1_555 1_555
C60_7 C57_7 1_555 1_555
Cu13 O27_4 1_555 1_555
Cu19 O28_4 1_555 1_555
O43_4 Cu11 1_555 1_555
O45_4 Cu17 1_555 1_555
N3_7 C3_7 1_555 1_555
N8_7 C2_7 1_555 1_555
N9_7 C4_7 1_555 1_555
C9_7 C13_7 1_555 1_555
C11_7 C12_7 1_555 1_555
C11_7 C14_7 1_555 1_555
C19_7 C20_7 1_555 1_555
N17_7 C36_7 1_555 1_555
N20_7 C36_7 1_555 1_555
O42_6 C59_7 1_555 1_555
C55_7 C59_7 1_555 1_555
C57_7 C58_7 1_555 1_555
O16_7 H29_7 1_555 1_555
O16_7 H30_7 1_555 1_555
O15_7 H31_7 1_555 1_555
O15_7 H32_7 1_555 1_555
N1_8 C1_8 1_555 1_555
N2_8 C1_8 1_555 1_555
N6_8 C5_8 1_555 1_555
N7_8 C1_8 1_555 1_555
N10_8 H3_8 1_555 1_555
O33 C21_8 1_555 1_555
O35 C21_8 1_555 1_555
O41_7 C29_8 1_555 1_555
O42_7 C29_8 1_555 1_555
O43_4 C30_8 1_555 1_555
O45_4 C30_8 1_555 1_555
C5_8 N1_8 1_555 1_555
C6_8 N6_8 1_555 1_555
C23_8 N10_8 1_555 1_555
C24_8 C23_8 1_555 1_555
H10_8 C24_8 1_555 1_555
C25_8 C24_8 1_555 1_555
C26_8 C25_8 1_555 1_555
H11_8 C26_8 1_555 1_555
C27_8 C26_8 1_555 1_555
C28_8 C23_8 1_555 1_555
H12_8 C28_8 1_555 1_555
C29_8 C25_8 1_555 1_555
C30_8 C27_8 1_555 1_555
Cu20 O20_8 1_555 1_555
N13_8 C32_8 1_555 1_555
N14_8 C33_8 1_555 1_555
N15_8 C34_8 1_555 1_555
N18_8 H13_8 1_555 1_555
N19_8 H14_8 1_555 1_555
O31_7 C43_8 1_555 1_555
O32_7 C43_8 1_555 1_555
O19_8 Cu14 1_555 1_555
O20_8 C44_8 1_555 1_555
O38_2 C52_8 1_555 1_555
O40_2 C52_8 1_555 1_555
O29_8 Cu14 1_555 1_555
O30_8 Cu20 1_555 1_555
C34_8 N14_8 1_555 1_555
C37_8 N18_8 1_555 1_555
C38_8 C37_8 1_555 1_555
H16_8 C38_8 1_555 1_555
C39_8 C38_8 1_555 1_555
C40_8 C39_8 1_555 1_555
H17_8 C40_8 1_555 1_555
C41_8 C40_8 1_555 1_555
C42_8 C37_8 1_555 1_555
H18_8 C42_8 1_555 1_555
C43_8 C39_8 1_555 1_555
C44_8 O19_8 1_555 1_555
C45_8 N19_8 1_555 1_555
C46_8 C45_8 1_555 1_555
C47_8 C46_8 1_555 1_555
C48_8 C47_8 1_555 1_555
H20_8 C48_8 1_555 1_555
C49_8 C48_8 1_555 1_555
C50_8 C45_8 1_555 1_555
H21_8 C50_8 1_555 1_555
C52_8 C49_8 1_555 1_555
N7_8 C6_8 1_555 1_555
N10_8 C6_8 1_555 1_555
C27_8 C28_8 1_555 1_555
N13_8 C33_8 1_555 1_555
N18_8 C32_8 1_555 1_555
N19_8 C34_8 1_555 1_555
C41_8 C42_8 1_555 1_555
C41_8 C44_8 1_555 1_555
C49_8 C50_8 1_555 1_555
O30_8 H25_8 1_555 1_555
O30_8 H26_8 1_555 1_555
O29_8 H27_8 1_555 1_555
O29_8 H28_8 1_555 1_555
Cu19 O4_8 1_555 1_555
N3_8 C2_8 1_555 1_555
N4_8 C3_8 1_555 1_555
N5_8 C4_8 1_555 1_555
N8_8 H1_8 1_555 1_555
N9_8 H2_8 1_555 1_555
O32_8 C13_8 1_555 1_555
O3_8 Cu13 1_555 1_555
O4_8 C14_8 1_555 1_555
O37_2 C22_8 1_555 1_555
O39_2 C22_8 1_555 1_555
O15_8 Cu13 1_555 1_555
O16_8 Cu19 1_555 1_555
C4_8 N4_8 1_555 1_555
C7_8 N8_8 1_555 1_555
C8_8 C7_8 1_555 1_555
H4_8 C8_8 1_555 1_555
C9_8 C8_8 1_555 1_555
C10_8 C9_8 1_555 1_555
H5_8 C10_8 1_555 1_555
C11_8 C10_8 1_555 1_555
C12_8 C7_8 1_555 1_555
H6_8 C12_8 1_555 1_555
C13_8 O31_8 1_555 1_555
C14_8 O3_8 1_555 1_555
C15_8 N9_8 1_555 1_555
C16_8 C15_8 1_555 1_555
C17_8 C16_8 1_555 1_555
C18_8 C17_8 1_555 1_555
H8_8 C18_8 1_555 1_555
C19_8 C18_8 1_555 1_555
C20_8 C15_8 1_555 1_555
H9_8 C20_8 1_555 1_555
C22_8 C19_8 1_555 1_555
N11_8 C31_8 1_555 1_555
N12_8 C31_8 1_555 1_555
N16_8 C35_8 1_555 1_555
N17_8 C31_8 1_555 1_555
N20_8 H15_8 1_555 1_555
O34 C51_8 1_555 1_555
O36 C51_8 1_555 1_555
O44_4 C60_8 1_555 1_555
O46_4 C60_8 1_555 1_555
C35_8 N11_8 1_555 1_555
C36_8 N16_8 1_555 1_555
C53_8 N20_8 1_555 1_555
C54_8 C53_8 1_555 1_555
H22_8 C54_8 1_555 1_555
C55_8 C54_8 1_555 1_555
C56_8 C55_8 1_555 1_555
H23_8 C56_8 1_555 1_555
C57_8 C56_8 1_555 1_555
C58_8 C53_8 1_555 1_555
H24_8 C58_8 1_555 1_555
C59_8 O41_8 1_555 1_555
C60_8 C57_8 1_555 1_555
N3_8 C3_8 1_555 1_555
N8_8 C2_8 1_555 1_555
N9_8 C4_8 1_555 1_555
C9_8 C13_8 1_555 1_555
C11_8 C12_8 1_555 1_555
C11_8 C14_8 1_555 1_555
C19_8 C20_8 1_555 1_555
N17_8 C36_8 1_555 1_555
N20_8 C36_8 1_555 1_555
O42_8 C59_8 1_555 1_555
C55_8 C59_8 1_555 1_555
C57_8 C58_8 1_555 1_555
O16_8 H29_8 1_555 1_555
O16_8 H30_8 1_555 1_555
O15_8 H31_8 1_555 1_555
O15_8 H32_8 1_555 1_555

#END
