
###############################################################################
#
# This file contains modified crystal structure data generated from the
# MOF subset of the Cambridge Structural Database (CSD) v543 
# hosted by the Cambridge Crystallographic Data Centre (CCDC).
#
# This work is licensed under the Creative Commons
# Attribution-NonCommercial-ShareAlike 4.0 International License.
# To view a copy of this license, visit
# http://creativecommons.org/licenses/by-nc-sa/4.0/
# or send a letter to
# Creative Commons, PO Box 1866, Mountain View, CA 94042, USA.
#
# CIF created using the CSD Python API on 29 September 2022
# The structure has been converted into the P1 space group
# The structure has a 3D framework
# The original CSD entry HIYRAJ is in the monoclinic crystal system
# The framework has been calculated to contain at least 10.0% void space
# The void calculation uses a probe of radius 1.32A, grid spacing 0.4
# H atom positions have been added when not included in the experimental data
#
###############################################################################

data_HIYRAJ
_chemical_formula_moiety         '(C288 H192 I48 N96 Zn24)n'
_symmetry_cell_setting           triclinic
_symmetry_space_group_name_H-M   'P 1'
_symmetry_Int_Tables_number      1
_space_group_name_Hall           'P 1'
loop_
_symmetry_equiv_pos_site_id
_symmetry_equiv_pos_as_xyz
1 x,y,z
_cell_length_a                   35.781(3)
_cell_length_b                   14.930(1)
_cell_length_c                   30.711(2)
_cell_angle_alpha                90
_cell_angle_beta                 103.163(4)
_cell_angle_gamma                90
_cell_volume                     15975.1
loop_
_atom_site_label
_atom_site_type_symbol
_atom_site_fract_x
_atom_site_fract_y
_atom_site_fract_z
_atom_site_U_iso_or_equiv
_atom_site_thermal_displace_type
Zn2 Zn 0.08095 0.62311 0.08524 0.0225 Uiso
I3 I 0.11939 0.73441 0.04244 0.0225 Uiso
I4 I 0.03221 0.64411 0.12927 0.0225 Uiso
N4 N 0.07251 0.52593 0.03426 0.0225 Uiso
C4 C 0.09652 0.50317 0.00725 0.0225 Uiso
C7 C 0.04172 0.37678 0.01999 0.0225 Uiso
C8 C 0.04935 0.45693 0.04442 0.0225 Uiso
N13 N 0.12325 0.52456 0.13121 0.0225 Uiso
H6 H 0.0364639 0.465948 0.0730081 . .
H9 H 0.120745 0.546124 0.00555202 . .
H11 H 0.024561 0.323726 0.0300393 . .
N14 N 0.19381 0.00360 0.30248 0.0225 Uiso
C10 C 0.96646 0.96993 0.39984 0.0225 Uiso
C11 C 0.98326 0.91587 0.43947 0.0225 Uiso
C12 C 0.96353 0.90699 0.47322 0.0225 Uiso
C13 C 0.93661 0.97262 0.47521 0.0225 Uiso
N7 N 0.71949 0.94334 0.27940 0.0225 Uiso
N8 N 0.72691 0.82773 0.32679 0.0225 Uiso
N9 N 0.69141 0.80576 0.25235 0.0225 Uiso
C19 C 0.69251 0.89174 0.25011 0.0225 Uiso
C20 C 0.73918 0.89674 0.31307 0.0225 Uiso
C21 C 0.70416 0.77613 0.29164 0.0225 Uiso
C22 C 0.62354 0.92812 0.13341 0.0225 Uiso
C23 C 0.64940 0.88350 0.16910 0.0225 Uiso
C24 C 0.66869 0.93692 0.20380 0.0225 Uiso
C29 C 0.76826 0.94601 0.34604 0.0225 Uiso
C30 C 0.76739 0.94962 0.39228 0.0225 Uiso
N12 N 0.69381 0.50360 0.30248 0.0225 Uiso
C32 C 0.72527 0.54112 0.32962 0.0225 Uiso
C33 C 0.72867 0.63092 0.33227 0.0225 Uiso
C34 C 0.69896 0.68555 0.29756 0.0225 Uiso
C35 C 0.67130 0.64212 0.26657 0.0225 Uiso
C36 C 0.67291 0.55423 0.26683 0.0225 Uiso
Zn5 Zn 0.67914 0.35977 0.28883 0.0225 Uiso
H1 H 0.976564 0.964872 0.369055 . .
H2 H 0.968904 0.851505 0.496841 . .
H3 H 0.926842 0.980365 0.506091 . .
H16 H 0.656995 0.518585 0.237486 . .
H17 H 0.653701 0.811299 0.169001 . .
H18 H 0.649165 0.678517 0.242985 . .
H19 H 0.749335 0.905153 0.406738 . .
H22 H 0.747675 0.498662 0.349177 . .
H23 H 0.604069 0.889341 0.107896 . .
H24 H 0.75099 0.663427 0.357334 . .
Zn1 Zn 0.37483 0.59259 0.44705 0.0225 Uiso
I1 I 0.39093 0.72896 0.40918 0.0225 Uiso
I2 I 0.36035 0.57453 0.51359 0.0225 Uiso
I5 I 0.63161 0.35306 0.18892 0.0225 Uiso
I6 I 0.73365 0.27956 0.29953 0.0225 Uiso
N1 N 0.56608 0.20987 0.42341 0.0225 Uiso
N2 N 0.52270 0.26682 0.46782 0.0225 Uiso
N3 N 0.53734 0.35979 0.40295 0.0225 Uiso
C1 C 0.54859 0.20311 0.45694 0.0225 Uiso
C2 C 0.51514 0.34386 0.43531 0.0225 Uiso
C3 C 0.56654 0.29365 0.40411 0.0225 Uiso
C5 C 0.58989 0.07644 0.48141 0.0225 Uiso
C6 C 0.55646 0.13154 0.48382 0.0225 Uiso
C7_2 C 0.54172 0.12322 0.51999 0.0225 Uiso
C8_2 C 0.54935 0.04307 0.54442 0.0225 Uiso
N5 N 0.42261 0.52493 0.44213 0.0225 Uiso
C9 C 0.43856 0.52476 0.40355 0.0225 Uiso
C10_2 C 0.46646 0.46993 0.39984 0.0225 Uiso
C11_2 C 0.48326 0.41587 0.43947 0.0225 Uiso
C12_2 C 0.46353 0.40699 0.47322 0.0225 Uiso
C13_2 C 0.43661 0.47262 0.47521 0.0225 Uiso
N6 N 0.64202 0.33538 0.32946 0.0225 Uiso
C14 C 0.64566 0.26255 0.35271 0.0225 Uiso
C15 C 0.61983 0.24027 0.37330 0.0225 Uiso
C16 C 0.59097 0.30687 0.37510 0.0225 Uiso
C17 C 0.58135 0.36473 0.34038 0.0225 Uiso
C18 C 0.60600 0.37329 0.31579 0.0225 Uiso
N7_2 N 0.21949 0.44334 0.27940 0.0225 Uiso
N8_2 N 0.22691 0.32773 0.32679 0.0225 Uiso
N9_2 N 0.19141 0.30576 0.25235 0.0225 Uiso
C19_2 C 0.19251 0.39174 0.25011 0.0225 Uiso
C20_2 C 0.23918 0.39674 0.31307 0.0225 Uiso
C21_2 C 0.20416 0.27613 0.29164 0.0225 Uiso
C22_2 C 0.12354 0.42812 0.13341 0.0225 Uiso
C23_2 C 0.14940 0.38350 0.16910 0.0225 Uiso
C24_2 C 0.16869 0.43692 0.20380 0.0225 Uiso
C25 C 0.17711 0.52602 0.19370 0.0225 Uiso
C26 C 0.15418 0.56348 0.15136 0.0225 Uiso
N11 N 0.32587 0.55063 0.40294 0.0225 Uiso
C27 C 0.32060 0.56587 0.35996 0.0225 Uiso
C28 C 0.29127 0.51659 0.32846 0.0225 Uiso
C29_2 C 0.26826 0.44601 0.34604 0.0225 Uiso
C30_2 C 0.26739 0.44962 0.39228 0.0225 Uiso
C31 C 0.29188 0.51573 0.41855 0.0225 Uiso
C32_2 C 0.22527 0.04112 0.32962 0.0225 Uiso
C33_2 C 0.22867 0.13092 0.33227 0.0225 Uiso
C34_2 C 0.19896 0.18555 0.29756 0.0225 Uiso
C35_2 C 0.17130 0.14212 0.26657 0.0225 Uiso
C36_2 C 0.17291 0.05423 0.26683 0.0225 Uiso
H1_2 H 0.476564 0.464872 0.369055 . .
H2_2 H 0.468904 0.351505 0.496841 . .
H3_2 H 0.426842 0.480365 0.506091 . .
H4 H 0.670757 0.220117 0.354764 . .
H5 H 0.619587 0.1746 0.388665 . .
H6_2 H 0.536464 0.0340519 0.573008 . .
H7 H 0.427324 0.57131 0.376428 . .
H8 H 0.598446 0.410205 0.284428 . .
H10 H 0.554438 0.401817 0.333604 . .
H11_2 H 0.524561 0.176274 0.530039 . .
H12 H 0.60915 0.096182 0.460293 . .
H13 H 0.163656 0.624155 0.137389 . .
H14 H 0.285982 0.530365 0.292756 . .
H15 H 0.28575 0.540251 0.449587 . .
H16_2 H 0.156995 0.0185845 0.237486 . .
H17_2 H 0.153701 0.311299 0.169001 . .
H18_2 H 0.149165 0.178517 0.242985 . .
H19_2 H 0.249335 0.405153 0.406738 . .
H20 H 0.338153 0.615366 0.347829 . .
H21 H 0.199279 0.564998 0.215885 . .
H23_2 H 0.104069 0.389341 0.107896 . .
H24_2 H 0.25099 0.163427 0.357334 . .
Zn3 Zn 0.17914 0.14023 0.78883 0.0225 Uiso
I5_2 I 0.13161 0.14694 0.68892 0.0225 Uiso
I6_2 I 0.23365 0.22044 0.79953 0.0225 Uiso
N1_2 N 0.06608 0.29013 0.92341 0.0225 Uiso
N2_2 N 0.02270 0.23318 0.96782 0.0225 Uiso
N3_2 N 0.03734 0.14021 0.90295 0.0225 Uiso
C1_2 C 0.04859 0.29689 0.95694 0.0225 Uiso
C2_2 C 0.01514 0.15614 0.93531 0.0225 Uiso
C3_2 C 0.06654 0.20635 0.90411 0.0225 Uiso
C5_2 C 0.08989 0.42356 0.98141 0.0225 Uiso
C6_2 C 0.05646 0.36846 0.98382 0.0225 Uiso
N6_2 N 0.14202 0.16462 0.82946 0.0225 Uiso
C14_2 C 0.14566 0.23745 0.85271 0.0225 Uiso
C15_2 C 0.11983 0.25973 0.87330 0.0225 Uiso
C16_2 C 0.09097 0.19313 0.87510 0.0225 Uiso
C17_2 C 0.08135 0.13527 0.84038 0.0225 Uiso
C18_2 C 0.10600 0.12671 0.81579 0.0225 Uiso
H4_2 H 0.170757 0.279883 0.854764 . .
H5_2 H 0.119587 0.3254 0.888665 . .
H8_2 H 0.0984458 0.0897954 0.784428 . .
H10_2 H 0.0544375 0.0981827 0.833604 . .
H12_2 H 0.10915 0.403818 0.960293 . .
H22_2 H 0.247675 0.00133785 0.849177 . .
N14_2 N 0.19381 0.99640 0.80248 0.0225 Uiso
C10_3 C 0.96646 0.03007 0.89984 0.0225 Uiso
C11_3 C 0.98326 0.08413 0.93947 0.0225 Uiso
C12_3 C 0.96353 0.09301 0.97322 0.0225 Uiso
C13_3 C 0.93661 0.02738 0.97521 0.0225 Uiso
N7_3 N 0.71949 0.05666 0.77940 0.0225 Uiso
N8_3 N 0.72691 0.17227 0.82679 0.0225 Uiso
N9_3 N 0.69141 0.19424 0.75235 0.0225 Uiso
C19_3 C 0.69251 0.10826 0.75011 0.0225 Uiso
C20_3 C 0.73918 0.10326 0.81307 0.0225 Uiso
C21_3 C 0.70416 0.22387 0.79164 0.0225 Uiso
C22_3 C 0.62354 0.07188 0.63341 0.0225 Uiso
C23_3 C 0.64940 0.11650 0.66910 0.0225 Uiso
C24_3 C 0.66869 0.06308 0.70380 0.0225 Uiso
C29_3 C 0.76826 0.05399 0.84604 0.0225 Uiso
C30_3 C 0.76739 0.05038 0.89228 0.0225 Uiso
N12_2 N 0.69381 0.49640 0.80248 0.0225 Uiso
C32_3 C 0.72527 0.45888 0.82962 0.0225 Uiso
C33_3 C 0.72867 0.36908 0.83227 0.0225 Uiso
C34_3 C 0.69896 0.31445 0.79756 0.0225 Uiso
C35_3 C 0.67130 0.35788 0.76657 0.0225 Uiso
C36_3 C 0.67291 0.44577 0.76683 0.0225 Uiso
Zn5_2 Zn 0.67914 0.64023 0.78883 0.0225 Uiso
H1_3 H 0.976564 0.0351278 0.869055 . .
H2_3 H 0.968904 0.148495 0.996841 . .
H16_3 H 0.656995 0.481415 0.737486 . .
H17_3 H 0.653701 0.188701 0.669001 . .
H18_3 H 0.649165 0.321483 0.742985 . .
H19_3 H 0.749335 0.0948471 0.906738 . .
H22_3 H 0.747675 0.501338 0.849177 . .
H23_3 H 0.604069 0.110659 0.607896 . .
H24_3 H 0.75099 0.336573 0.857334 . .
Zn1_2 Zn 0.87483 0.90741 0.94705 0.0225 Uiso
I1_2 I 0.89093 0.77104 0.90918 0.0225 Uiso
N5_2 N 0.92261 0.97507 0.94213 0.0225 Uiso
C9_2 C 0.93856 0.97524 0.90355 0.0225 Uiso
N10 N 0.62325 0.97544 0.63121 0.0225 Uiso
C25_2 C 0.67711 0.97398 0.69370 0.0225 Uiso
C26_2 C 0.65418 0.93652 0.65136 0.0225 Uiso
N11_2 N 0.82587 0.94937 0.90294 0.0225 Uiso
C27_2 C 0.82060 0.93413 0.85996 0.0225 Uiso
C28_2 C 0.79127 0.98341 0.82846 0.0225 Uiso
C31_2 C 0.79188 0.98427 0.91855 0.0225 Uiso
Zn4 Zn 0.58095 0.87689 0.58524 0.0225 Uiso
H7_2 H 0.927324 0.92869 0.876428 . .
H13_2 H 0.663656 0.875845 0.637389 . .
H14_2 H 0.785982 0.969635 0.792756 . .
H15_2 H 0.78575 0.959749 0.949587 . .
H20_2 H 0.838153 0.884634 0.847829 . .
H21_2 H 0.699279 0.935002 0.715885 . .
Zn1_3 Zn 0.37483 0.40741 0.94705 0.0225 Uiso
I1_3 I 0.39093 0.27104 0.90918 0.0225 Uiso
I5_3 I 0.63161 0.64694 0.68892 0.0225 Uiso
I6_3 I 0.73365 0.72044 0.79953 0.0225 Uiso
N1_3 N 0.56608 0.79013 0.92341 0.0225 Uiso
N2_3 N 0.52270 0.73318 0.96782 0.0225 Uiso
N3_3 N 0.53734 0.64021 0.90295 0.0225 Uiso
C1_3 C 0.54859 0.79689 0.95694 0.0225 Uiso
C2_3 C 0.51514 0.65614 0.93531 0.0225 Uiso
C3_3 C 0.56654 0.70635 0.90411 0.0225 Uiso
C5_3 C 0.58989 0.92356 0.98141 0.0225 Uiso
C6_3 C 0.55646 0.86846 0.98382 0.0225 Uiso
N5_3 N 0.42261 0.47507 0.94213 0.0225 Uiso
C9_3 C 0.43856 0.47524 0.90355 0.0225 Uiso
C10_4 C 0.46646 0.53007 0.89984 0.0225 Uiso
C11_4 C 0.48326 0.58413 0.93947 0.0225 Uiso
C12_4 C 0.46353 0.59301 0.97322 0.0225 Uiso
C13_4 C 0.43661 0.52738 0.97521 0.0225 Uiso
N6_3 N 0.64202 0.66462 0.82946 0.0225 Uiso
C14_3 C 0.64566 0.73745 0.85271 0.0225 Uiso
C15_3 C 0.61983 0.75973 0.87330 0.0225 Uiso
C16_3 C 0.59097 0.69313 0.87510 0.0225 Uiso
C17_3 C 0.58135 0.63527 0.84038 0.0225 Uiso
C18_3 C 0.60600 0.62671 0.81579 0.0225 Uiso
N7_4 N 0.21949 0.55666 0.77940 0.0225 Uiso
N8_4 N 0.22691 0.67227 0.82679 0.0225 Uiso
N9_4 N 0.19141 0.69424 0.75235 0.0225 Uiso
C19_4 C 0.19251 0.60826 0.75011 0.0225 Uiso
C20_4 C 0.23918 0.60326 0.81307 0.0225 Uiso
C21_4 C 0.20416 0.72387 0.79164 0.0225 Uiso
N10_2 N 0.12325 0.47544 0.63121 0.0225 Uiso
C22_4 C 0.12354 0.57188 0.63341 0.0225 Uiso
C23_4 C 0.14940 0.61650 0.66910 0.0225 Uiso
C24_4 C 0.16869 0.56308 0.70380 0.0225 Uiso
C25_3 C 0.17711 0.47398 0.69370 0.0225 Uiso
C26_3 C 0.15418 0.43652 0.65136 0.0225 Uiso
N11_3 N 0.32587 0.44937 0.90294 0.0225 Uiso
C27_3 C 0.32060 0.43413 0.85996 0.0225 Uiso
C28_3 C 0.29127 0.48341 0.82846 0.0225 Uiso
C29_4 C 0.26826 0.55399 0.84604 0.0225 Uiso
C30_4 C 0.26739 0.55038 0.89228 0.0225 Uiso
C31_3 C 0.29188 0.48427 0.91855 0.0225 Uiso
C32_4 C 0.22527 0.95888 0.82962 0.0225 Uiso
C33_4 C 0.22867 0.86908 0.83227 0.0225 Uiso
C34_4 C 0.19896 0.81445 0.79756 0.0225 Uiso
C35_4 C 0.17130 0.85788 0.76657 0.0225 Uiso
C36_4 C 0.17291 0.94577 0.76683 0.0225 Uiso
Zn4_2 Zn 0.08095 0.37689 0.58524 0.0225 Uiso
H1_4 H 0.476564 0.535128 0.869055 . .
H2_4 H 0.468904 0.648495 0.996841 . .
H4_3 H 0.670757 0.779883 0.854764 . .
H5_3 H 0.619587 0.8254 0.888665 . .
H7_3 H 0.427324 0.42869 0.876428 . .
H8_3 H 0.598446 0.589795 0.784428 . .
H10_3 H 0.554438 0.598183 0.833604 . .
H12_3 H 0.60915 0.903818 0.960293 . .
H13_3 H 0.163656 0.375845 0.637389 . .
H14_3 H 0.285982 0.469635 0.792756 . .
H15_3 H 0.28575 0.459749 0.949587 . .
H16_4 H 0.156995 0.981415 0.737486 . .
H17_4 H 0.153701 0.688701 0.669001 . .
H18_4 H 0.149165 0.821483 0.742985 . .
H19_4 H 0.249335 0.594847 0.906738 . .
H20_3 H 0.338153 0.384634 0.847829 . .
H21_3 H 0.199279 0.435002 0.715885 . .
H23_4 H 0.104069 0.610659 0.607896 . .
H24_4 H 0.25099 0.836573 0.857334 . .
Zn3_2 Zn 0.17914 0.85977 0.28883 0.0225 Uiso
I3_2 I 0.11939 0.26559 0.54244 0.0225 Uiso
I4_2 I 0.03221 0.35589 0.62927 0.0225 Uiso
I5_4 I 0.13161 0.85306 0.18892 0.0225 Uiso
I6_4 I 0.23365 0.77956 0.29953 0.0225 Uiso
N1_4 N 0.06608 0.70987 0.42341 0.0225 Uiso
N2_4 N 0.02270 0.76682 0.46782 0.0225 Uiso
N3_4 N 0.03734 0.85979 0.40295 0.0225 Uiso
C1_4 C 0.04859 0.70311 0.45694 0.0225 Uiso
C2_4 C 0.01514 0.84386 0.43531 0.0225 Uiso
C3_4 C 0.06654 0.79365 0.40411 0.0225 Uiso
N4_2 N 0.07251 0.47407 0.53426 0.0225 Uiso
C4_2 C 0.09652 0.49683 0.50725 0.0225 Uiso
C5_4 C 0.08989 0.57644 0.48141 0.0225 Uiso
C6_4 C 0.05646 0.63154 0.48382 0.0225 Uiso
C7_3 C 0.04172 0.62322 0.51999 0.0225 Uiso
C8_3 C 0.04935 0.54307 0.54442 0.0225 Uiso
N6_4 N 0.14202 0.83538 0.32946 0.0225 Uiso
C14_4 C 0.14566 0.76255 0.35271 0.0225 Uiso
C15_4 C 0.11983 0.74027 0.37330 0.0225 Uiso
C16_4 C 0.09097 0.80687 0.37510 0.0225 Uiso
C17_4 C 0.08135 0.86473 0.34038 0.0225 Uiso
C18_4 C 0.10600 0.87329 0.31579 0.0225 Uiso
H4_4 H 0.170757 0.720117 0.354764 . .
H5_4 H 0.119587 0.6746 0.388665 . .
H6_3 H 0.0364639 0.534052 0.573008 . .
H8_4 H 0.0984458 0.910205 0.284428 . .
H9_2 H 0.120745 0.453876 0.505552 . .
H10_4 H 0.0544375 0.901817 0.333604 . .
H11_3 H 0.024561 0.676274 0.530039 . .
H12_4 H 0.10915 0.596182 0.460293 . .
I3_3 I 0.61939 0.76559 0.54244 0.0225 Uiso
I4_3 I 0.53221 0.85589 0.62927 0.0225 Uiso
N4_3 N 0.57251 0.97407 0.53426 0.0225 Uiso
C4_3 C 0.59652 0.99683 0.50725 0.0225 Uiso
H9_3 H 0.620745 0.953876 0.505552 . .
H22_4 H 0.247675 0.998662 0.349177 . .
H3_3 H 0.926842 0.019635 0.00609055 . .
I2_2 I 0.86035 0.92547 0.01359 0.0225 Uiso
Zn2_2 Zn 0.58095 0.12311 0.08524 0.0225 Uiso
I3_4 I 0.61939 0.23441 0.04244 0.0225 Uiso
I4_4 I 0.53221 0.14411 0.12927 0.0225 Uiso
N4_4 N 0.57251 0.02593 0.03426 0.0225 Uiso
C4_4 C 0.59652 0.00317 0.00725 0.0225 Uiso
N13_2 N 0.62325 0.02456 0.13121 0.0225 Uiso
H9_4 H 0.620745 0.046124 0.00555202 . .
Zn1_4 Zn 0.87483 0.09259 0.44705 0.0225 Uiso
I1_4 I 0.89093 0.22896 0.40918 0.0225 Uiso
I2_3 I 0.86035 0.07453 0.51359 0.0225 Uiso
N5_4 N 0.92261 0.02493 0.44213 0.0225 Uiso
C9_4 C 0.93856 0.02476 0.40355 0.0225 Uiso
C25_4 C 0.67711 0.02602 0.19370 0.0225 Uiso
C26_4 C 0.65418 0.06348 0.15136 0.0225 Uiso
N11_4 N 0.82587 0.05063 0.40294 0.0225 Uiso
C27_4 C 0.82060 0.06587 0.35996 0.0225 Uiso
C28_4 C 0.79127 0.01659 0.32846 0.0225 Uiso
C31_4 C 0.79188 0.01573 0.41855 0.0225 Uiso
H7_4 H 0.927324 0.0713099 0.376428 . .
H13_4 H 0.663656 0.124155 0.137389 . .
H14_4 H 0.785982 0.0303647 0.292756 . .
H15_4 H 0.78575 0.0402512 0.449587 . .
H20_4 H 0.838153 0.115366 0.347829 . .
H21_4 H 0.699279 0.0649983 0.215885 . .
I2_4 I 0.36035 0.42547 0.01359 0.0225 Uiso
C7_4 C 0.54172 0.87678 0.01999 0.0225 Uiso
C8_4 C 0.54935 0.95693 0.04442 0.0225 Uiso
H3_4 H 0.426842 0.519635 0.00609055 . .
H6_4 H 0.536464 0.965948 0.0730081 . .
H11_4 H 0.524561 0.823726 0.0300393 . .
C10_5 C 0.03354 0.03007 0.60016 0.0225 Uiso
C11_5 C 0.01674 0.08413 0.56053 0.0225 Uiso
C12_5 C 0.03647 0.09301 0.52678 0.0225 Uiso
C13_5 C 0.06339 0.02738 0.52479 0.0225 Uiso
N7_5 N 0.28051 0.05666 0.72060 0.0225 Uiso
N8_5 N 0.27309 0.17227 0.67321 0.0225 Uiso
N9_5 N 0.30859 0.19424 0.74765 0.0225 Uiso
C19_5 C 0.30749 0.10826 0.74989 0.0225 Uiso
C20_5 C 0.26082 0.10326 0.68693 0.0225 Uiso
C21_5 C 0.29584 0.22387 0.70836 0.0225 Uiso
C22_5 C 0.37646 0.07188 0.86659 0.0225 Uiso
C23_5 C 0.35060 0.11650 0.83090 0.0225 Uiso
C24_5 C 0.33131 0.06308 0.79620 0.0225 Uiso
C29_5 C 0.23174 0.05399 0.65396 0.0225 Uiso
C30_5 C 0.23261 0.05038 0.60772 0.0225 Uiso
N12_3 N 0.30619 0.49640 0.69752 0.0225 Uiso
C32_5 C 0.27473 0.45888 0.67038 0.0225 Uiso
C33_5 C 0.27133 0.36908 0.66773 0.0225 Uiso
C34_5 C 0.30104 0.31445 0.70244 0.0225 Uiso
C35_5 C 0.32870 0.35788 0.73343 0.0225 Uiso
C36_5 C 0.32709 0.44577 0.73317 0.0225 Uiso
Zn5_3 Zn 0.32086 0.64023 0.71117 0.0225 Uiso
H1_5 H 0.0234358 0.0351278 0.630945 . .
H2_5 H 0.0310956 0.148495 0.503159 . .
H3_5 H 0.0731585 0.019635 0.493909 . .
H16_5 H 0.343005 0.481415 0.762514 . .
H17_5 H 0.346299 0.188701 0.830999 . .
H18_5 H 0.350835 0.321483 0.757015 . .
H19_5 H 0.250665 0.0948471 0.593262 . .
H22_5 H 0.252325 0.501338 0.650823 . .
H23_5 H 0.395931 0.110659 0.892104 . .
H24_5 H 0.24901 0.336573 0.642666 . .
N14_3 N 0.80619 0.99640 0.69752 0.0225 Uiso
Zn1_5 Zn 0.62517 0.40741 0.55295 0.0225 Uiso
I1_5 I 0.60907 0.27104 0.59082 0.0225 Uiso
I2_5 I 0.63965 0.42547 0.48641 0.0225 Uiso
I5_5 I 0.36839 0.64694 0.81108 0.0225 Uiso
I6_5 I 0.26635 0.72044 0.70047 0.0225 Uiso
N1_5 N 0.43392 0.79013 0.57659 0.0225 Uiso
N2_5 N 0.47730 0.73318 0.53218 0.0225 Uiso
N3_5 N 0.46266 0.64021 0.59705 0.0225 Uiso
C1_5 C 0.45141 0.79689 0.54306 0.0225 Uiso
C2_5 C 0.48486 0.65614 0.56469 0.0225 Uiso
C3_5 C 0.43346 0.70635 0.59589 0.0225 Uiso
C5_5 C 0.41011 0.92356 0.51859 0.0225 Uiso
C6_5 C 0.44354 0.86846 0.51618 0.0225 Uiso
C7_5 C 0.45828 0.87678 0.48001 0.0225 Uiso
C8_5 C 0.45065 0.95693 0.45558 0.0225 Uiso
N5_5 N 0.57739 0.47507 0.55787 0.0225 Uiso
C9_5 C 0.56144 0.47524 0.59645 0.0225 Uiso
C10_6 C 0.53354 0.53007 0.60016 0.0225 Uiso
C11_6 C 0.51674 0.58413 0.56053 0.0225 Uiso
C12_6 C 0.53647 0.59301 0.52678 0.0225 Uiso
C13_6 C 0.56339 0.52738 0.52479 0.0225 Uiso
N6_5 N 0.35798 0.66462 0.67054 0.0225 Uiso
C14_5 C 0.35434 0.73745 0.64729 0.0225 Uiso
C15_5 C 0.38017 0.75973 0.62670 0.0225 Uiso
C16_5 C 0.40903 0.69313 0.62490 0.0225 Uiso
C17_5 C 0.41865 0.63527 0.65962 0.0225 Uiso
C18_5 C 0.39400 0.62671 0.68421 0.0225 Uiso
N7_6 N 0.78051 0.55666 0.72060 0.0225 Uiso
N8_6 N 0.77309 0.67227 0.67321 0.0225 Uiso
N9_6 N 0.80859 0.69424 0.74765 0.0225 Uiso
C19_6 C 0.80749 0.60826 0.74989 0.0225 Uiso
C20_6 C 0.76082 0.60326 0.68693 0.0225 Uiso
C21_6 C 0.79584 0.72387 0.70836 0.0225 Uiso
N10_3 N 0.87675 0.47544 0.86879 0.0225 Uiso
C22_6 C 0.87646 0.57188 0.86659 0.0225 Uiso
C23_6 C 0.85060 0.61650 0.83090 0.0225 Uiso
C24_6 C 0.83131 0.56308 0.79620 0.0225 Uiso
C25_5 C 0.82289 0.47398 0.80630 0.0225 Uiso
C26_5 C 0.84582 0.43652 0.84864 0.0225 Uiso
N11_5 N 0.67413 0.44937 0.59706 0.0225 Uiso
C27_5 C 0.67940 0.43413 0.64004 0.0225 Uiso
C28_5 C 0.70873 0.48341 0.67154 0.0225 Uiso
C29_6 C 0.73174 0.55399 0.65396 0.0225 Uiso
C30_6 C 0.73261 0.55038 0.60772 0.0225 Uiso
C31_5 C 0.70812 0.48427 0.58145 0.0225 Uiso
C32_6 C 0.77473 0.95888 0.67038 0.0225 Uiso
C33_6 C 0.77133 0.86908 0.66773 0.0225 Uiso
C34_6 C 0.80104 0.81445 0.70244 0.0225 Uiso
C35_6 C 0.82870 0.85788 0.73343 0.0225 Uiso
C36_6 C 0.82709 0.94577 0.73317 0.0225 Uiso
Zn4_3 Zn 0.91905 0.37689 0.91476 0.0225 Uiso
H1_6 H 0.523436 0.535128 0.630945 . .
H2_6 H 0.531096 0.648495 0.503159 . .
H3_6 H 0.573158 0.519635 0.493909 . .
H4_5 H 0.329243 0.779883 0.645236 . .
H5_5 H 0.380413 0.8254 0.611335 . .
H6_5 H 0.463536 0.965948 0.426992 . .
H7_5 H 0.572676 0.42869 0.623572 . .
H8_5 H 0.401554 0.589795 0.715572 . .
H10_5 H 0.445562 0.598183 0.666396 . .
H11_5 H 0.475439 0.823726 0.469961 . .
H12_5 H 0.39085 0.903818 0.539707 . .
H13_5 H 0.836344 0.375845 0.862611 . .
H14_5 H 0.714018 0.469635 0.707244 . .
H15_5 H 0.71425 0.459749 0.550413 . .
H16_6 H 0.843005 0.981415 0.762514 . .
H17_6 H 0.846299 0.688701 0.830999 . .
H18_6 H 0.850835 0.821483 0.757015 . .
H19_6 H 0.750665 0.594847 0.593262 . .
H20_5 H 0.661847 0.384634 0.652171 . .
H21_5 H 0.800721 0.435002 0.784115 . .
H23_6 H 0.895931 0.610659 0.892104 . .
H24_6 H 0.74901 0.836573 0.642666 . .
I3_5 I 0.88061 0.26559 0.95756 0.0225 Uiso
I4_5 I 0.96779 0.35589 0.87073 0.0225 Uiso
N4_5 N 0.92749 0.47407 0.96574 0.0225 Uiso
C4_5 C 0.90348 0.49683 0.99275 0.0225 Uiso
C7_6 C 0.95828 0.62322 0.98001 0.0225 Uiso
C8_6 C 0.95065 0.54307 0.95558 0.0225 Uiso
H6_6 H 0.963536 0.534052 0.926992 . .
H9_5 H 0.879255 0.453876 0.994448 . .
H11_6 H 0.975439 0.676274 0.969961 . .
Zn1_6 Zn 0.12517 0.90741 0.55295 0.0225 Uiso
I1_6 I 0.10907 0.77104 0.59082 0.0225 Uiso
I2_6 I 0.13965 0.92547 0.48641 0.0225 Uiso
N5_6 N 0.07739 0.97507 0.55787 0.0225 Uiso
C9_6 C 0.06144 0.97524 0.59645 0.0225 Uiso
N10_4 N 0.37675 0.97544 0.86879 0.0225 Uiso
C25_6 C 0.32289 0.97398 0.80630 0.0225 Uiso
C26_6 C 0.34582 0.93652 0.84864 0.0225 Uiso
N11_6 N 0.17413 0.94937 0.59706 0.0225 Uiso
C27_6 C 0.17940 0.93413 0.64004 0.0225 Uiso
C28_6 C 0.20873 0.98341 0.67154 0.0225 Uiso
C31_6 C 0.20812 0.98427 0.58145 0.0225 Uiso
Zn4_4 Zn 0.41905 0.87689 0.91476 0.0225 Uiso
H7_6 H 0.0726757 0.92869 0.623572 . .
H13_6 H 0.336344 0.875845 0.862611 . .
H14_6 H 0.214018 0.969635 0.707244 . .
H15_6 H 0.21425 0.959749 0.550413 . .
H20_6 H 0.161847 0.884634 0.652171 . .
H21_6 H 0.300721 0.935002 0.784115 . .
I3_6 I 0.38061 0.76559 0.95756 0.0225 Uiso
I4_6 I 0.46779 0.85589 0.87073 0.0225 Uiso
N4_6 N 0.42749 0.97407 0.96574 0.0225 Uiso
C4_6 C 0.40348 0.99683 0.99275 0.0225 Uiso
H9_6 H 0.379255 0.953876 0.994448 . .
Zn2_3 Zn 0.91905 0.62311 0.41476 0.0225 Uiso
Zn3_3 Zn 0.82086 0.14023 0.71117 0.0225 Uiso
I3_7 I 0.88061 0.73441 0.45756 0.0225 Uiso
I4_7 I 0.96779 0.64411 0.37073 0.0225 Uiso
I5_6 I 0.86839 0.14694 0.81108 0.0225 Uiso
I6_6 I 0.76635 0.22044 0.70047 0.0225 Uiso
N1_6 N 0.93392 0.29013 0.57659 0.0225 Uiso
N2_6 N 0.97730 0.23318 0.53218 0.0225 Uiso
N3_6 N 0.96266 0.14021 0.59705 0.0225 Uiso
C1_6 C 0.95141 0.29689 0.54306 0.0225 Uiso
C2_6 C 0.98486 0.15614 0.56469 0.0225 Uiso
C3_6 C 0.93346 0.20635 0.59589 0.0225 Uiso
N4_7 N 0.92749 0.52593 0.46574 0.0225 Uiso
C4_7 C 0.90348 0.50317 0.49275 0.0225 Uiso
C5_6 C 0.91011 0.42356 0.51859 0.0225 Uiso
C6_6 C 0.94354 0.36846 0.51618 0.0225 Uiso
C7_7 C 0.95828 0.37678 0.48001 0.0225 Uiso
C8_7 C 0.95065 0.45693 0.45558 0.0225 Uiso
N6_6 N 0.85798 0.16462 0.67054 0.0225 Uiso
C14_6 C 0.85434 0.23745 0.64729 0.0225 Uiso
C15_6 C 0.88017 0.25973 0.62670 0.0225 Uiso
C16_6 C 0.90903 0.19313 0.62490 0.0225 Uiso
C17_6 C 0.91865 0.13527 0.65962 0.0225 Uiso
C18_6 C 0.89400 0.12671 0.68421 0.0225 Uiso
N13_3 N 0.87675 0.52456 0.36879 0.0225 Uiso
H4_6 H 0.829243 0.279883 0.645236 . .
H5_6 H 0.880413 0.3254 0.611335 . .
H6_7 H 0.963536 0.465948 0.426992 . .
H8_6 H 0.901554 0.0897954 0.715572 . .
H9_7 H 0.879255 0.546124 0.494448 . .
H10_6 H 0.945562 0.0981827 0.666396 . .
H11_7 H 0.975439 0.323726 0.469961 . .
H12_6 H 0.89085 0.403818 0.539707 . .
Zn2_4 Zn 0.41905 0.12311 0.41476 0.0225 Uiso
I3_8 I 0.38061 0.23441 0.45756 0.0225 Uiso
I4_8 I 0.46779 0.14411 0.37073 0.0225 Uiso
N4_8 N 0.42749 0.02593 0.46574 0.0225 Uiso
C4_8 C 0.40348 0.00317 0.49275 0.0225 Uiso
N13_4 N 0.37675 0.02456 0.36879 0.0225 Uiso
H9_8 H 0.379255 0.046124 0.494448 . .
H22_6 H 0.752325 0.00133785 0.650823 . .
Zn1_7 Zn 0.12517 0.09259 0.05295 0.0225 Uiso
I1_7 I 0.10907 0.22896 0.09082 0.0225 Uiso
N5_7 N 0.07739 0.02493 0.05787 0.0225 Uiso
C9_7 C 0.06144 0.02476 0.09645 0.0225 Uiso
C25_7 C 0.32289 0.02602 0.30630 0.0225 Uiso
C26_7 C 0.34582 0.06348 0.34864 0.0225 Uiso
N11_7 N 0.17413 0.05063 0.09706 0.0225 Uiso
C27_7 C 0.17940 0.06587 0.14004 0.0225 Uiso
C28_7 C 0.20873 0.01659 0.17154 0.0225 Uiso
C31_7 C 0.20812 0.01573 0.08145 0.0225 Uiso
H7_7 H 0.0726757 0.0713099 0.123572 . .
H13_7 H 0.336344 0.124155 0.362611 . .
H14_7 H 0.214018 0.0303647 0.207244 . .
H15_7 H 0.21425 0.0402512 0.0504127 . .
H20_7 H 0.161847 0.115366 0.152171 . .
H21_7 H 0.300721 0.0649983 0.284115 . .
C10_7 C 0.03354 0.96993 0.10016 0.0225 Uiso
C11_7 C 0.01674 0.91587 0.06053 0.0225 Uiso
C12_7 C 0.03647 0.90699 0.02678 0.0225 Uiso
C13_7 C 0.06339 0.97262 0.02479 0.0225 Uiso
N7_7 N 0.28051 0.94334 0.22060 0.0225 Uiso
N8_7 N 0.27309 0.82773 0.17321 0.0225 Uiso
N9_7 N 0.30859 0.80576 0.24765 0.0225 Uiso
C19_7 C 0.30749 0.89174 0.24989 0.0225 Uiso
C20_7 C 0.26082 0.89674 0.18693 0.0225 Uiso
C21_7 C 0.29584 0.77613 0.20836 0.0225 Uiso
C22_7 C 0.37646 0.92812 0.36659 0.0225 Uiso
C23_7 C 0.35060 0.88350 0.33090 0.0225 Uiso
C24_7 C 0.33131 0.93692 0.29620 0.0225 Uiso
C29_7 C 0.23174 0.94601 0.15396 0.0225 Uiso
C30_7 C 0.23261 0.94962 0.10772 0.0225 Uiso
N12_4 N 0.30619 0.50360 0.19752 0.0225 Uiso
C32_7 C 0.27473 0.54112 0.17038 0.0225 Uiso
C33_7 C 0.27133 0.63092 0.16773 0.0225 Uiso
C34_7 C 0.30104 0.68555 0.20244 0.0225 Uiso
C35_7 C 0.32870 0.64212 0.23343 0.0225 Uiso
C36_7 C 0.32709 0.55423 0.23317 0.0225 Uiso
Zn5_4 Zn 0.32086 0.35977 0.21117 0.0225 Uiso
H1_7 H 0.0234358 0.964872 0.130945 . .
H2_7 H 0.0310956 0.851505 0.0031589 . .
H16_7 H 0.343005 0.518585 0.262514 . .
H17_7 H 0.346299 0.811299 0.330999 . .
H18_7 H 0.350835 0.678517 0.257015 . .
H19_7 H 0.250665 0.905153 0.0932619 . .
H22_7 H 0.252325 0.498662 0.150823 . .
H23_7 H 0.395931 0.889341 0.392104 . .
H24_7 H 0.24901 0.663427 0.142666 . .
N14_4 N 0.80619 0.00360 0.19752 0.0225 Uiso
Zn1_8 Zn 0.62517 0.59259 0.05295 0.0225 Uiso
I1_8 I 0.60907 0.72896 0.09082 0.0225 Uiso
I5_7 I 0.36839 0.35306 0.31108 0.0225 Uiso
I6_7 I 0.26635 0.27956 0.20047 0.0225 Uiso
N1_7 N 0.43392 0.20987 0.07659 0.0225 Uiso
N2_7 N 0.47730 0.26682 0.03218 0.0225 Uiso
N3_7 N 0.46266 0.35979 0.09705 0.0225 Uiso
C1_7 C 0.45141 0.20311 0.04306 0.0225 Uiso
C2_7 C 0.48486 0.34386 0.06469 0.0225 Uiso
C3_7 C 0.43346 0.29365 0.09589 0.0225 Uiso
C5_7 C 0.41011 0.07644 0.01859 0.0225 Uiso
C6_7 C 0.44354 0.13154 0.01618 0.0225 Uiso
N5_8 N 0.57739 0.52493 0.05787 0.0225 Uiso
C9_8 C 0.56144 0.52476 0.09645 0.0225 Uiso
C10_8 C 0.53354 0.46993 0.10016 0.0225 Uiso
C11_8 C 0.51674 0.41587 0.06053 0.0225 Uiso
C12_8 C 0.53647 0.40699 0.02678 0.0225 Uiso
C13_8 C 0.56339 0.47262 0.02479 0.0225 Uiso
N6_7 N 0.35798 0.33538 0.17054 0.0225 Uiso
C14_7 C 0.35434 0.26255 0.14729 0.0225 Uiso
C15_7 C 0.38017 0.24027 0.12670 0.0225 Uiso
C16_7 C 0.40903 0.30687 0.12490 0.0225 Uiso
C17_7 C 0.41865 0.36473 0.15962 0.0225 Uiso
C18_7 C 0.39400 0.37329 0.18421 0.0225 Uiso
N7_8 N 0.78051 0.44334 0.22060 0.0225 Uiso
N8_8 N 0.77309 0.32773 0.17321 0.0225 Uiso
N9_8 N 0.80859 0.30576 0.24765 0.0225 Uiso
C19_8 C 0.80749 0.39174 0.24989 0.0225 Uiso
C20_8 C 0.76082 0.39674 0.18693 0.0225 Uiso
C21_8 C 0.79584 0.27613 0.20836 0.0225 Uiso
C22_8 C 0.87646 0.42812 0.36659 0.0225 Uiso
C23_8 C 0.85060 0.38350 0.33090 0.0225 Uiso
C24_8 C 0.83131 0.43692 0.29620 0.0225 Uiso
C25_8 C 0.82289 0.52602 0.30630 0.0225 Uiso
C26_8 C 0.84582 0.56348 0.34864 0.0225 Uiso
N11_8 N 0.67413 0.55063 0.09706 0.0225 Uiso
C27_8 C 0.67940 0.56587 0.14004 0.0225 Uiso
C28_8 C 0.70873 0.51659 0.17154 0.0225 Uiso
C29_8 C 0.73174 0.44601 0.15396 0.0225 Uiso
C30_8 C 0.73261 0.44962 0.10772 0.0225 Uiso
C31_8 C 0.70812 0.51573 0.08145 0.0225 Uiso
C32_8 C 0.77473 0.04112 0.17038 0.0225 Uiso
C33_8 C 0.77133 0.13092 0.16773 0.0225 Uiso
C34_8 C 0.80104 0.18555 0.20244 0.0225 Uiso
C35_8 C 0.82870 0.14212 0.23343 0.0225 Uiso
C36_8 C 0.82709 0.05423 0.23317 0.0225 Uiso
H1_8 H 0.523436 0.464872 0.130945 . .
H2_8 H 0.531096 0.351505 0.0031589 . .
H4_7 H 0.329243 0.220117 0.145236 . .
H5_7 H 0.380413 0.1746 0.111335 . .
H7_8 H 0.572676 0.57131 0.123572 . .
H8_7 H 0.401554 0.410205 0.215572 . .
H10_7 H 0.445562 0.401817 0.166396 . .
H12_7 H 0.39085 0.096182 0.0397072 . .
H13_8 H 0.836344 0.624155 0.362611 . .
H14_8 H 0.714018 0.530365 0.207244 . .
H15_8 H 0.71425 0.540251 0.0504127 . .
H16_8 H 0.843005 0.0185845 0.262514 . .
H17_8 H 0.846299 0.311299 0.330999 . .
H18_8 H 0.850835 0.178517 0.257015 . .
H19_8 H 0.750665 0.405153 0.0932619 . .
H20_8 H 0.661847 0.615366 0.152171 . .
H21_8 H 0.800721 0.564998 0.284115 . .
H23_8 H 0.895931 0.389341 0.392104 . .
H24_8 H 0.74901 0.163427 0.142666 . .
I2_7 I 0.13965 0.07453 0.98641 0.0225 Uiso
H3_7 H 0.0731585 0.980365 0.993909 . .
Zn3_4 Zn 0.82086 0.85977 0.21117 0.0225 Uiso
I5_8 I 0.86839 0.85306 0.31108 0.0225 Uiso
I6_8 I 0.76635 0.77956 0.20047 0.0225 Uiso
N1_8 N 0.93392 0.70987 0.07659 0.0225 Uiso
N2_8 N 0.97730 0.76682 0.03218 0.0225 Uiso
N3_8 N 0.96266 0.85979 0.09705 0.0225 Uiso
C1_8 C 0.95141 0.70311 0.04306 0.0225 Uiso
C2_8 C 0.98486 0.84386 0.06469 0.0225 Uiso
C3_8 C 0.93346 0.79365 0.09589 0.0225 Uiso
C5_8 C 0.91011 0.57644 0.01859 0.0225 Uiso
C6_8 C 0.94354 0.63154 0.01618 0.0225 Uiso
N6_8 N 0.85798 0.83538 0.17054 0.0225 Uiso
C14_8 C 0.85434 0.76255 0.14729 0.0225 Uiso
C15_8 C 0.88017 0.74027 0.12670 0.0225 Uiso
C16_8 C 0.90903 0.80687 0.12490 0.0225 Uiso
C17_8 C 0.91865 0.86473 0.15962 0.0225 Uiso
C18_8 C 0.89400 0.87329 0.18421 0.0225 Uiso
H4_8 H 0.829243 0.720117 0.145236 . .
H5_8 H 0.880413 0.6746 0.111335 . .
H8_8 H 0.901554 0.910205 0.215572 . .
H10_8 H 0.945562 0.901817 0.166396 . .
H12_8 H 0.89085 0.596182 0.0397072 . .
H22_8 H 0.752325 0.998662 0.150823 . .
I2_8 I 0.63965 0.57453 0.98641 0.0225 Uiso
C7_8 C 0.45828 0.12322 0.98001 0.0225 Uiso
C8_8 C 0.45065 0.04307 0.95558 0.0225 Uiso
H3_8 H 0.573158 0.480365 0.993909 . .
H6_8 H 0.463536 0.0340519 0.926992 . .
H11_8 H 0.475439 0.176274 0.969961 . .
loop_
_geom_bond_atom_site_label_1
_geom_bond_atom_site_label_2
_geom_bond_site_symmetry_1
_geom_bond_site_symmetry_2
Zn2 I3 1_555 1_555
I4 Zn2 1_555 1_555
N4 Zn2 1_555 1_555
C4 N4 1_555 1_555
C8 N4 1_555 1_555
N13 Zn2 1_555 1_555
C7 C8 1_555 1_555
C8 H6 1_555 1_555
C4 H9 1_555 1_555
C7 H11 1_555 1_555
C12 C11 1_555 1_555
N7 C19 1_555 1_555
N8 C20 1_555 1_555
N9 C19 1_555 1_555
C19 C24 1_555 1_555
C20 N7 1_555 1_555
C21 N8 1_555 1_555
C22 C23 1_555 1_555
C23 C24 1_555 1_555
C29 C20 1_555 1_555
C30 C29 1_555 1_555
N12 C32 1_555 1_555
C32 C33 1_555 1_555
C33 C34 1_555 1_555
C34 C21 1_555 1_555
C35 C34 1_555 1_555
C36 N12 1_555 1_555
Zn5 N12 1_555 1_555
C10 C11 1_555 1_555
C12 C13 1_555 1_555
N9 C21 1_555 1_555
C35 C36 1_555 1_555
C10 H1 1_555 1_555
C12 H2 1_555 1_555
C13 H3 1_555 1_555
C36 H16 1_555 1_555
C23 H17 1_555 1_555
C35 H18 1_555 1_555
C30 H19 1_555 1_555
C32 H22 1_555 1_555
C22 H23 1_555 1_555
C33 H24 1_555 1_555
Zn1 I1 1_555 1_555
Zn5 I5 1_555 1_555
I2 Zn1 1_555 1_555
I6 Zn5 1_555 1_555
N1 C1 1_555 1_555
N2 C1 1_555 1_555
N3 C2 1_555 1_555
C1 C6 1_555 1_555
C2 N2 1_555 1_555
C3 N1 1_555 1_555
C6 C5 1_555 1_555
C7_2 C6 1_555 1_555
N5 Zn1 1_555 1_555
C9 N5 1_555 1_555
C10_2 C9 1_555 1_555
C11_2 C2 1_555 1_555
C12_2 C11_2 1_555 1_555
C13_2 N5 1_555 1_555
N6 Zn5 1_555 1_555
C14 N6 1_555 1_555
C15 C14 1_555 1_555
C16 C3 1_555 1_555
C17 C16 1_555 1_555
C18 N6 1_555 1_555
N7_2 C19_2 1_555 1_555
N8_2 C20_2 1_555 1_555
N9_2 C19_2 1_555 1_555
C19_2 C24_2 1_555 1_555
C20_2 N7_2 1_555 1_555
C21_2 N8_2 1_555 1_555
N13 C22_2 1_555 1_555
C22_2 C23_2 1_555 1_555
C23_2 C24_2 1_555 1_555
C24_2 C25 1_555 1_555
C25 C26 1_555 1_555
C26 N13 1_555 1_555
N11 Zn1 1_555 1_555
C27 N11 1_555 1_555
C28 C27 1_555 1_555
C29_2 C20_2 1_555 1_555
C30_2 C29_2 1_555 1_555
C31 N11 1_555 1_555
N14 C32_2 1_555 1_555
C32_2 C33_2 1_555 1_555
C33_2 C34_2 1_555 1_555
C34_2 C21_2 1_555 1_555
C35_2 C34_2 1_555 1_555
C36_2 N14 1_555 1_555
N3 C3 1_555 1_555
C7_2 C8_2 1_555 1_555
C10_2 C11_2 1_555 1_555
C12_2 C13_2 1_555 1_555
C15 C16 1_555 1_555
C17 C18 1_555 1_555
N9_2 C21_2 1_555 1_555
C28 C29_2 1_555 1_555
C30_2 C31 1_555 1_555
C35_2 C36_2 1_555 1_555
C10_2 H1_2 1_555 1_555
C12_2 H2_2 1_555 1_555
C13_2 H3_2 1_555 1_555
C14 H4 1_555 1_555
C15 H5 1_555 1_555
C8_2 H6_2 1_555 1_555
C9 H7 1_555 1_555
C18 H8 1_555 1_555
C17 H10 1_555 1_555
C7_2 H11_2 1_555 1_555
C5 H12 1_555 1_555
C26 H13 1_555 1_555
C28 H14 1_555 1_555
C31 H15 1_555 1_555
C36_2 H16_2 1_555 1_555
C23_2 H17_2 1_555 1_555
C35_2 H18_2 1_555 1_555
C30_2 H19_2 1_555 1_555
C27 H20 1_555 1_555
C25 H21 1_555 1_555
C22_2 H23_2 1_555 1_555
C33_2 H24_2 1_555 1_555
Zn3 I5_2 1_555 1_555
I6_2 Zn3 1_555 1_555
N1_2 C1_2 1_555 1_555
N2_2 C1_2 1_555 1_555
N3_2 C2_2 1_555 1_555
C1_2 C6_2 1_555 1_555
C2_2 N2_2 1_555 1_555
C3_2 N1_2 1_555 1_555
C6_2 C5_2 1_555 1_555
N6_2 Zn3 1_555 1_555
C14_2 N6_2 1_555 1_555
C15_2 C14_2 1_555 1_555
C16_2 C3_2 1_555 1_555
C17_2 C16_2 1_555 1_555
C18_2 N6_2 1_555 1_555
N3_2 C3_2 1_555 1_555
C15_2 C16_2 1_555 1_555
C17_2 C18_2 1_555 1_555
C14_2 H4_2 1_555 1_555
C15_2 H5_2 1_555 1_555
C18_2 H8_2 1_555 1_555
C17_2 H10_2 1_555 1_555
C5_2 H12_2 1_555 1_555
C12_3 C11_3 1_555 1_555
N7_3 C19_3 1_555 1_555
N8_3 C20_3 1_555 1_555
N9_3 C19_3 1_555 1_555
C19_3 C24_3 1_555 1_555
C20_3 N7_3 1_555 1_555
C21_3 N8_3 1_555 1_555
C22_3 C23_3 1_555 1_555
C23_3 C24_3 1_555 1_555
C29_3 C20_3 1_555 1_555
C30_3 C29_3 1_555 1_555
N12_2 C32_3 1_555 1_555
C32_3 C33_3 1_555 1_555
C33_3 C34_3 1_555 1_555
C34_3 C21_3 1_555 1_555
C35_3 C34_3 1_555 1_555
C36_3 N12_2 1_555 1_555
Zn5_2 N12_2 1_555 1_555
C10_3 C11_3 1_555 1_555
C12_3 C13_3 1_555 1_555
N9_3 C21_3 1_555 1_555
C35_3 C36_3 1_555 1_555
C10_3 H1_3 1_555 1_555
C12_3 H2_3 1_555 1_555
C36_3 H16_3 1_555 1_555
C23_3 H17_3 1_555 1_555
C35_3 H18_3 1_555 1_555
C30_3 H19_3 1_555 1_555
C32_3 H22_3 1_555 1_555
C22_3 H23_3 1_555 1_555
C33_3 H24_3 1_555 1_555
Zn1_2 I1_2 1_555 1_555
N5_2 Zn1_2 1_555 1_555
C9_2 N5_2 1_555 1_555
C25_2 C26_2 1_555 1_555
C26_2 N10 1_555 1_555
N11_2 Zn1_2 1_555 1_555
C27_2 N11_2 1_555 1_555
C28_2 C27_2 1_555 1_555
C31_2 N11_2 1_555 1_555
Zn4 N10 1_555 1_555
C9_2 H7_2 1_555 1_555
C26_2 H13_2 1_555 1_555
C28_2 H14_2 1_555 1_555
C31_2 H15_2 1_555 1_555
C27_2 H20_2 1_555 1_555
C25_2 H21_2 1_555 1_555
Zn1_3 I1_3 1_555 1_555
Zn5_2 I5_3 1_555 1_555
I6_3 Zn5_2 1_555 1_555
N1_3 C1_3 1_555 1_555
N2_3 C1_3 1_555 1_555
N3_3 C2_3 1_555 1_555
C1_3 C6_3 1_555 1_555
C2_3 N2_3 1_555 1_555
C3_3 N1_3 1_555 1_555
C6_3 C5_3 1_555 1_555
N5_3 Zn1_3 1_555 1_555
C9_3 N5_3 1_555 1_555
C10_4 C9_3 1_555 1_555
C11_4 C2_3 1_555 1_555
C12_4 C11_4 1_555 1_555
C13_4 N5_3 1_555 1_555
N6_3 Zn5_2 1_555 1_555
C14_3 N6_3 1_555 1_555
C15_3 C14_3 1_555 1_555
C16_3 C3_3 1_555 1_555
C17_3 C16_3 1_555 1_555
C18_3 N6_3 1_555 1_555
N7_4 C19_4 1_555 1_555
N8_4 C20_4 1_555 1_555
N9_4 C19_4 1_555 1_555
C19_4 C24_4 1_555 1_555
C20_4 N7_4 1_555 1_555
C21_4 N8_4 1_555 1_555
N10_2 C22_4 1_555 1_555
C22_4 C23_4 1_555 1_555
C23_4 C24_4 1_555 1_555
C24_4 C25_3 1_555 1_555
C25_3 C26_3 1_555 1_555
C26_3 N10_2 1_555 1_555
N11_3 Zn1_3 1_555 1_555
C27_3 N11_3 1_555 1_555
C28_3 C27_3 1_555 1_555
C29_4 C20_4 1_555 1_555
C30_4 C29_4 1_555 1_555
C31_3 N11_3 1_555 1_555
N14_2 C32_4 1_555 1_555
C32_4 C33_4 1_555 1_555
C33_4 C34_4 1_555 1_555
C34_4 C21_4 1_555 1_555
C35_4 C34_4 1_555 1_555
C36_4 N14_2 1_555 1_555
Zn4_2 N10_2 1_555 1_555
N3_3 C3_3 1_555 1_555
C10_4 C11_4 1_555 1_555
C12_4 C13_4 1_555 1_555
C15_3 C16_3 1_555 1_555
C17_3 C18_3 1_555 1_555
N9_4 C21_4 1_555 1_555
C28_3 C29_4 1_555 1_555
C30_4 C31_3 1_555 1_555
C35_4 C36_4 1_555 1_555
C10_4 H1_4 1_555 1_555
C12_4 H2_4 1_555 1_555
C14_3 H4_3 1_555 1_555
C15_3 H5_3 1_555 1_555
C9_3 H7_3 1_555 1_555
C18_3 H8_3 1_555 1_555
C17_3 H10_3 1_555 1_555
C5_3 H12_3 1_555 1_555
C26_3 H13_3 1_555 1_555
C28_3 H14_3 1_555 1_555
C31_3 H15_3 1_555 1_555
C36_4 H16_4 1_555 1_555
C23_4 H17_4 1_555 1_555
C35_4 H18_4 1_555 1_555
C30_4 H19_4 1_555 1_555
C27_3 H20_3 1_555 1_555
C25_3 H21_3 1_555 1_555
C22_4 H23_4 1_555 1_555
C33_4 H24_4 1_555 1_555
Zn4_2 I3_2 1_555 1_555
Zn3_2 I5_4 1_555 1_555
I4_2 Zn4_2 1_555 1_555
I6_4 Zn3_2 1_555 1_555
N1_4 C1_4 1_555 1_555
N2_4 C1_4 1_555 1_555
N3_4 C2_4 1_555 1_555
C1_4 C6_4 1_555 1_555
C2_4 N2_4 1_555 1_555
C3_4 N1_4 1_555 1_555
N4_2 Zn4_2 1_555 1_555
C4_2 N4_2 1_555 1_555
C5_4 C4_2 1_555 1_555
C6_4 C5_4 1_555 1_555
C7_3 C6_4 1_555 1_555
C8_3 N4_2 1_555 1_555
N6_4 Zn3_2 1_555 1_555
C14_4 N6_4 1_555 1_555
C15_4 C14_4 1_555 1_555
C16_4 C3_4 1_555 1_555
C17_4 C16_4 1_555 1_555
C18_4 N6_4 1_555 1_555
N3_4 C3_4 1_555 1_555
C7_3 C8_3 1_555 1_555
C15_4 C16_4 1_555 1_555
C17_4 C18_4 1_555 1_555
C14_4 H4_4 1_555 1_555
C15_4 H5_4 1_555 1_555
C8_3 H6_3 1_555 1_555
C18_4 H8_4 1_555 1_555
C4_2 H9_2 1_555 1_555
C17_4 H10_4 1_555 1_555
C7_3 H11_3 1_555 1_555
C5_4 H12_4 1_555 1_555
Zn4 I3_3 1_555 1_555
I4_3 Zn4 1_555 1_555
N4_3 Zn4 1_555 1_555
C4_3 N4_3 1_555 1_555
C4_3 H9_3 1_555 1_555
Zn2_2 I3_4 1_555 1_555
I4_4 Zn2_2 1_555 1_555
N4_4 Zn2_2 1_555 1_555
C4_4 N4_4 1_555 1_555
N13_2 Zn2_2 1_555 1_555
C4_4 H9_4 1_555 1_555
Zn1_4 I1_4 1_555 1_555
I2_3 Zn1_4 1_555 1_555
N5_4 Zn1_4 1_555 1_555
C9_4 N5_4 1_555 1_555
C25_4 C26_4 1_555 1_555
C26_4 N13_2 1_555 1_555
N11_4 Zn1_4 1_555 1_555
C27_4 N11_4 1_555 1_555
C28_4 C27_4 1_555 1_555
C31_4 N11_4 1_555 1_555
C9_4 H7_4 1_555 1_555
C26_4 H13_4 1_555 1_555
C28_4 H14_4 1_555 1_555
C31_4 H15_4 1_555 1_555
C27_4 H20_4 1_555 1_555
C25_4 H21_4 1_555 1_555
C7_4 C8_4 1_555 1_555
C8_4 H6_4 1_555 1_555
C7_4 H11_4 1_555 1_555
C12_5 C11_5 1_555 1_555
N7_5 C19_5 1_555 1_555
N8_5 C20_5 1_555 1_555
N9_5 C19_5 1_555 1_555
C19_5 C24_5 1_555 1_555
C20_5 N7_5 1_555 1_555
C21_5 N8_5 1_555 1_555
C22_5 C23_5 1_555 1_555
C23_5 C24_5 1_555 1_555
C29_5 C20_5 1_555 1_555
C30_5 C29_5 1_555 1_555
N12_3 C32_5 1_555 1_555
C32_5 C33_5 1_555 1_555
C33_5 C34_5 1_555 1_555
C34_5 C21_5 1_555 1_555
C35_5 C34_5 1_555 1_555
C36_5 N12_3 1_555 1_555
Zn5_3 N12_3 1_555 1_555
C10_5 C11_5 1_555 1_555
C12_5 C13_5 1_555 1_555
N9_5 C21_5 1_555 1_555
C35_5 C36_5 1_555 1_555
C10_5 H1_5 1_555 1_555
C12_5 H2_5 1_555 1_555
C13_5 H3_5 1_555 1_555
C36_5 H16_5 1_555 1_555
C23_5 H17_5 1_555 1_555
C35_5 H18_5 1_555 1_555
C30_5 H19_5 1_555 1_555
C32_5 H22_5 1_555 1_555
C22_5 H23_5 1_555 1_555
C33_5 H24_5 1_555 1_555
Zn1_5 I1_5 1_555 1_555
Zn5_3 I5_5 1_555 1_555
I2_5 Zn1_5 1_555 1_555
I6_5 Zn5_3 1_555 1_555
N1_5 C1_5 1_555 1_555
N2_5 C1_5 1_555 1_555
N3_5 C2_5 1_555 1_555
C1_5 C6_5 1_555 1_555
C2_5 N2_5 1_555 1_555
C3_5 N1_5 1_555 1_555
C6_5 C5_5 1_555 1_555
C7_5 C6_5 1_555 1_555
N5_5 Zn1_5 1_555 1_555
C9_5 N5_5 1_555 1_555
C10_6 C9_5 1_555 1_555
C11_6 C2_5 1_555 1_555
C12_6 C11_6 1_555 1_555
C13_6 N5_5 1_555 1_555
N6_5 Zn5_3 1_555 1_555
C14_5 N6_5 1_555 1_555
C15_5 C14_5 1_555 1_555
C16_5 C3_5 1_555 1_555
C17_5 C16_5 1_555 1_555
C18_5 N6_5 1_555 1_555
N7_6 C19_6 1_555 1_555
N8_6 C20_6 1_555 1_555
N9_6 C19_6 1_555 1_555
C19_6 C24_6 1_555 1_555
C20_6 N7_6 1_555 1_555
C21_6 N8_6 1_555 1_555
N10_3 C22_6 1_555 1_555
C22_6 C23_6 1_555 1_555
C23_6 C24_6 1_555 1_555
C24_6 C25_5 1_555 1_555
C25_5 C26_5 1_555 1_555
C26_5 N10_3 1_555 1_555
N11_5 Zn1_5 1_555 1_555
C27_5 N11_5 1_555 1_555
C28_5 C27_5 1_555 1_555
C29_6 C20_6 1_555 1_555
C30_6 C29_6 1_555 1_555
C31_5 N11_5 1_555 1_555
N14_3 C32_6 1_555 1_555
C32_6 C33_6 1_555 1_555
C33_6 C34_6 1_555 1_555
C34_6 C21_6 1_555 1_555
C35_6 C34_6 1_555 1_555
C36_6 N14_3 1_555 1_555
Zn4_3 N10_3 1_555 1_555
N3_5 C3_5 1_555 1_555
C7_5 C8_5 1_555 1_555
C10_6 C11_6 1_555 1_555
C12_6 C13_6 1_555 1_555
C15_5 C16_5 1_555 1_555
C17_5 C18_5 1_555 1_555
N9_6 C21_6 1_555 1_555
C28_5 C29_6 1_555 1_555
C30_6 C31_5 1_555 1_555
C35_6 C36_6 1_555 1_555
C10_6 H1_6 1_555 1_555
C12_6 H2_6 1_555 1_555
C13_6 H3_6 1_555 1_555
C14_5 H4_5 1_555 1_555
C15_5 H5_5 1_555 1_555
C8_5 H6_5 1_555 1_555
C9_5 H7_5 1_555 1_555
C18_5 H8_5 1_555 1_555
C17_5 H10_5 1_555 1_555
C7_5 H11_5 1_555 1_555
C5_5 H12_5 1_555 1_555
C26_5 H13_5 1_555 1_555
C28_5 H14_5 1_555 1_555
C31_5 H15_5 1_555 1_555
C36_6 H16_6 1_555 1_555
C23_6 H17_6 1_555 1_555
C35_6 H18_6 1_555 1_555
C30_6 H19_6 1_555 1_555
C27_5 H20_5 1_555 1_555
C25_5 H21_5 1_555 1_555
C22_6 H23_6 1_555 1_555
C33_6 H24_6 1_555 1_555
Zn4_3 I3_5 1_555 1_555
I4_5 Zn4_3 1_555 1_555
N4_5 Zn4_3 1_555 1_555
C4_5 N4_5 1_555 1_555
C8_6 N4_5 1_555 1_555
C7_6 C8_6 1_555 1_555
C8_6 H6_6 1_555 1_555
C4_5 H9_5 1_555 1_555
C7_6 H11_6 1_555 1_555
Zn1_6 I1_6 1_555 1_555
I2_6 Zn1_6 1_555 1_555
N5_6 Zn1_6 1_555 1_555
C9_6 N5_6 1_555 1_555
C25_6 C26_6 1_555 1_555
C26_6 N10_4 1_555 1_555
N11_6 Zn1_6 1_555 1_555
C27_6 N11_6 1_555 1_555
C28_6 C27_6 1_555 1_555
C31_6 N11_6 1_555 1_555
Zn4_4 N10_4 1_555 1_555
C9_6 H7_6 1_555 1_555
C26_6 H13_6 1_555 1_555
C28_6 H14_6 1_555 1_555
C31_6 H15_6 1_555 1_555
C27_6 H20_6 1_555 1_555
C25_6 H21_6 1_555 1_555
Zn4_4 I3_6 1_555 1_555
I4_6 Zn4_4 1_555 1_555
N4_6 Zn4_4 1_555 1_555
C4_6 N4_6 1_555 1_555
C4_6 H9_6 1_555 1_555
Zn2_3 I3_7 1_555 1_555
Zn3_3 I5_6 1_555 1_555
I4_7 Zn2_3 1_555 1_555
I6_6 Zn3_3 1_555 1_555
N1_6 C1_6 1_555 1_555
N2_6 C1_6 1_555 1_555
N3_6 C2_6 1_555 1_555
C1_6 C6_6 1_555 1_555
C2_6 N2_6 1_555 1_555
C3_6 N1_6 1_555 1_555
N4_7 Zn2_3 1_555 1_555
C4_7 N4_7 1_555 1_555
C5_6 C4_7 1_555 1_555
C6_6 C5_6 1_555 1_555
C7_7 C6_6 1_555 1_555
C8_7 N4_7 1_555 1_555
N6_6 Zn3_3 1_555 1_555
C14_6 N6_6 1_555 1_555
C15_6 C14_6 1_555 1_555
C16_6 C3_6 1_555 1_555
C17_6 C16_6 1_555 1_555
C18_6 N6_6 1_555 1_555
N13_3 Zn2_3 1_555 1_555
N3_6 C3_6 1_555 1_555
C7_7 C8_7 1_555 1_555
C15_6 C16_6 1_555 1_555
C17_6 C18_6 1_555 1_555
C14_6 H4_6 1_555 1_555
C15_6 H5_6 1_555 1_555
C8_7 H6_7 1_555 1_555
C18_6 H8_6 1_555 1_555
C4_7 H9_7 1_555 1_555
C17_6 H10_6 1_555 1_555
C7_7 H11_7 1_555 1_555
C5_6 H12_6 1_555 1_555
Zn2_4 I3_8 1_555 1_555
I4_8 Zn2_4 1_555 1_555
N4_8 Zn2_4 1_555 1_555
C4_8 N4_8 1_555 1_555
N13_4 Zn2_4 1_555 1_555
C4_8 H9_8 1_555 1_555
Zn1_7 I1_7 1_555 1_555
N5_7 Zn1_7 1_555 1_555
C9_7 N5_7 1_555 1_555
C25_7 C26_7 1_555 1_555
C26_7 N13_4 1_555 1_555
N11_7 Zn1_7 1_555 1_555
C27_7 N11_7 1_555 1_555
C28_7 C27_7 1_555 1_555
C31_7 N11_7 1_555 1_555
C9_7 H7_7 1_555 1_555
C26_7 H13_7 1_555 1_555
C28_7 H14_7 1_555 1_555
C31_7 H15_7 1_555 1_555
C27_7 H20_7 1_555 1_555
C25_7 H21_7 1_555 1_555
C12_7 C11_7 1_555 1_555
N7_7 C19_7 1_555 1_555
N8_7 C20_7 1_555 1_555
N9_7 C19_7 1_555 1_555
C19_7 C24_7 1_555 1_555
C20_7 N7_7 1_555 1_555
C21_7 N8_7 1_555 1_555
C22_7 C23_7 1_555 1_555
C23_7 C24_7 1_555 1_555
C29_7 C20_7 1_555 1_555
C30_7 C29_7 1_555 1_555
N12_4 C32_7 1_555 1_555
C32_7 C33_7 1_555 1_555
C33_7 C34_7 1_555 1_555
C34_7 C21_7 1_555 1_555
C35_7 C34_7 1_555 1_555
C36_7 N12_4 1_555 1_555
Zn5_4 N12_4 1_555 1_555
C10_7 C11_7 1_555 1_555
C12_7 C13_7 1_555 1_555
N9_7 C21_7 1_555 1_555
C35_7 C36_7 1_555 1_555
C10_7 H1_7 1_555 1_555
C12_7 H2_7 1_555 1_555
C36_7 H16_7 1_555 1_555
C23_7 H17_7 1_555 1_555
C35_7 H18_7 1_555 1_555
C30_7 H19_7 1_555 1_555
C32_7 H22_7 1_555 1_555
C22_7 H23_7 1_555 1_555
C33_7 H24_7 1_555 1_555
Zn1_8 I1_8 1_555 1_555
Zn5_4 I5_7 1_555 1_555
I6_7 Zn5_4 1_555 1_555
N1_7 C1_7 1_555 1_555
N2_7 C1_7 1_555 1_555
N3_7 C2_7 1_555 1_555
C1_7 C6_7 1_555 1_555
C2_7 N2_7 1_555 1_555
C3_7 N1_7 1_555 1_555
C6_7 C5_7 1_555 1_555
N5_8 Zn1_8 1_555 1_555
C9_8 N5_8 1_555 1_555
C10_8 C9_8 1_555 1_555
C11_8 C2_7 1_555 1_555
C12_8 C11_8 1_555 1_555
C13_8 N5_8 1_555 1_555
N6_7 Zn5_4 1_555 1_555
C14_7 N6_7 1_555 1_555
C15_7 C14_7 1_555 1_555
C16_7 C3_7 1_555 1_555
C17_7 C16_7 1_555 1_555
C18_7 N6_7 1_555 1_555
N7_8 C19_8 1_555 1_555
N8_8 C20_8 1_555 1_555
N9_8 C19_8 1_555 1_555
C19_8 C24_8 1_555 1_555
C20_8 N7_8 1_555 1_555
C21_8 N8_8 1_555 1_555
N13_3 C22_8 1_555 1_555
C22_8 C23_8 1_555 1_555
C23_8 C24_8 1_555 1_555
C24_8 C25_8 1_555 1_555
C25_8 C26_8 1_555 1_555
C26_8 N13_3 1_555 1_555
N11_8 Zn1_8 1_555 1_555
C27_8 N11_8 1_555 1_555
C28_8 C27_8 1_555 1_555
C29_8 C20_8 1_555 1_555
C30_8 C29_8 1_555 1_555
C31_8 N11_8 1_555 1_555
N14_4 C32_8 1_555 1_555
C32_8 C33_8 1_555 1_555
C33_8 C34_8 1_555 1_555
C34_8 C21_8 1_555 1_555
C35_8 C34_8 1_555 1_555
C36_8 N14_4 1_555 1_555
N3_7 C3_7 1_555 1_555
C10_8 C11_8 1_555 1_555
C12_8 C13_8 1_555 1_555
C15_7 C16_7 1_555 1_555
C17_7 C18_7 1_555 1_555
N9_8 C21_8 1_555 1_555
C28_8 C29_8 1_555 1_555
C30_8 C31_8 1_555 1_555
C35_8 C36_8 1_555 1_555
C10_8 H1_8 1_555 1_555
C12_8 H2_8 1_555 1_555
C14_7 H4_7 1_555 1_555
C15_7 H5_7 1_555 1_555
C9_8 H7_8 1_555 1_555
C18_7 H8_7 1_555 1_555
C17_7 H10_7 1_555 1_555
C5_7 H12_7 1_555 1_555
C26_8 H13_8 1_555 1_555
C28_8 H14_8 1_555 1_555
C31_8 H15_8 1_555 1_555
C36_8 H16_8 1_555 1_555
C23_8 H17_8 1_555 1_555
C35_8 H18_8 1_555 1_555
C30_8 H19_8 1_555 1_555
C27_8 H20_8 1_555 1_555
C25_8 H21_8 1_555 1_555
C22_8 H23_8 1_555 1_555
C33_8 H24_8 1_555 1_555
Zn3_4 I5_8 1_555 1_555
I6_8 Zn3_4 1_555 1_555
N1_8 C1_8 1_555 1_555
N2_8 C1_8 1_555 1_555
N3_8 C2_8 1_555 1_555
C1_8 C6_8 1_555 1_555
C2_8 N2_8 1_555 1_555
C3_8 N1_8 1_555 1_555
C6_8 C5_8 1_555 1_555
N6_8 Zn3_4 1_555 1_555
C14_8 N6_8 1_555 1_555
C15_8 C14_8 1_555 1_555
C16_8 C3_8 1_555 1_555
C17_8 C16_8 1_555 1_555
C18_8 N6_8 1_555 1_555
N3_8 C3_8 1_555 1_555
C15_8 C16_8 1_555 1_555
C17_8 C18_8 1_555 1_555
C14_8 H4_8 1_555 1_555
C15_8 H5_8 1_555 1_555
C18_8 H8_8 1_555 1_555
C17_8 H10_8 1_555 1_555
C5_8 H12_8 1_555 1_555
C7_8 C8_8 1_555 1_555
C8_8 H6_8 1_555 1_555
C7_8 H11_8 1_555 1_555

#END
