
###############################################################################
#
# This file contains modified crystal structure data generated from the
# MOF subset of the Cambridge Structural Database (CSD) v543 
# hosted by the Cambridge Crystallographic Data Centre (CCDC).
#
# This work is licensed under the Creative Commons
# Attribution-NonCommercial-ShareAlike 4.0 International License.
# To view a copy of this license, visit
# http://creativecommons.org/licenses/by-nc-sa/4.0/
# or send a letter to
# Creative Commons, PO Box 1866, Mountain View, CA 94042, USA.
#
# CIF created using the CSD Python API on 29 September 2022
# The structure has been converted into the P1 space group
# The structure has a 3D framework
# The original CSD entry HOCMOE is in the hexagonal crystal system
# The framework has been calculated to contain at least 10.0% void space
# The void calculation uses a probe of radius 1.32A, grid spacing 0.4
# The framework is charged, counterions have been retained in the structure
# H atom positions have been added when not included in the experimental data
# Generated hydrogen atom positions removed from atoms on special positions
#
###############################################################################

data_HOCMOE
_chemical_formula_moiety         '(C164 H126 Co11 N22 O30 9+)n'
_symmetry_cell_setting           triclinic
_symmetry_space_group_name_H-M   'P 1'
_symmetry_Int_Tables_number      1
_space_group_name_Hall           'P 1'
loop_
_symmetry_equiv_pos_site_id
_symmetry_equiv_pos_as_xyz
1 x,y,z
_cell_length_a                   18.7938(11)
_cell_length_b                   18.7938(11)
_cell_length_c                   15.7286(13)
_cell_angle_alpha                90
_cell_angle_beta                 90
_cell_angle_gamma                120
_cell_volume                     4811.16
loop_
_atom_site_label
_atom_site_type_symbol
_atom_site_fract_x
_atom_site_fract_y
_atom_site_fract_z
N4 N 0.5000 0.5000 0.3642(9)
C27 C 0.5000 0.5000 0.1857(13)
C28 C 0.5606(8) 0.5652(9) 0.3187(8)
H19 H 0.6025 0.6102 0.3467
C29 C 0.5000 0.5000 0.0887(15)
C30 C 0.4443(11) 0.4305(10) 0.0431(10)
H20 H 0.4067 0.3835 0.0722
C31 C 0.5577(11) 0.5622(10) 0.2303(9)
H21 H 0.5988 0.6065 0.2006
C32 C 0.4394(8) 0.4348(9) 0.3187(8)
H22 H 0.3975 0.3898 0.3467
C33 C 0.5557(11) 0.5695(10) 0.0431(10)
H23 H 0.5933 0.6165 0.0722
C34 C 0.4423(11) 0.4378(10) 0.2303(9)
H24 H 0.4012 0.3935 0.2006
Co7 Co 0.5000 0.5000 0.5000
Co1 Co 0.48020(15) 0.19772(15) 0.5000
O1 O 0.4073(7) 0.2544(7) 0.5000
O2 O 0.4187(8) 0.3779(7) 0.5000
O3 O 0.5744(9) 0.3270(8) 0.5000
O4 O 0.3660(10) 0.0936(9) 0.5000
O5 O 0.5850(7) 0.4498(8) 0.5000
N1 N 0.4840(8) 0.2022(8) 0.3629(8)
N2 N 0.5000 0.5000 0.6358(9)
C1 C 0.4223(13) 0.2036(15) 0.0447(13)
H1 H 0.3775 0.2004 0.0734
C2 C 0.5474(11) 0.2029(14) 0.0414(10)
H2 H 0.5890 0.1993 0.0697
C3 C 0.5000 0.5000 0.8143(13)
C4 C 0.4182(11) 0.1840(11) 0.3188(11)
H3 H 0.3699 0.1680 0.3489
C5 C 0.4394(8) 0.4348(9) 0.6813(8)
H4 H 0.3975 0.3898 0.6533
C6 C 0.4878(9) 0.2073(9) 0.1846(10)
C7 C 0.5515(10) 0.2196(11) 0.3204(10)
H5 H 0.5985 0.2327 0.3515
C8 C 0.5440(9) 0.3740(9) 0.5000
C9 C 0.4139(11) 0.1865(12) 0.2300(10)
H6 H 0.3657 0.1753 0.2021
C10 C 0.4865(10) 0.2083(10) 0.0908(10)
C11 C 0.5000 0.5000 0.9113(15)
C12 C 0.5566(10) 0.2195(10) 0.2321(9)
H7 H 0.6040 0.2272 0.2052
C13 C 0.5557(11) 0.5695(10) 0.9569(10)
H8 H 0.5933 0.6165 0.9278
C14 C 0.4423(11) 0.4378(10) 0.7697(9)
H9 H 0.4012 0.3935 0.7994
C15 C 0.4508(11) 0.3333(11) 0.5000
C24 C 0.5606(8) 0.5652(9) 0.6813(8)
H16 H 0.6025 0.6102 0.6533
C25 C 0.4443(11) 0.4305(10) 0.9569(10)
H17 H 0.4067 0.3835 0.9278
C26 C 0.5577(11) 0.5622(10) 0.7697(9)
H18 H 0.5988 0.6065 0.7994
Co3 Co 0.80228(15) 0.28248(21) 0.5000
O6 O 0.7456(7) 0.1529(10) 0.5000
O7 O 0.6221(7) 0.0408(11) 0.5000
O8 O 0.6730(8) 0.2474(12) 0.5000
O9 O 0.9064(9) 0.2724(13) 0.5000
O10 O 0.5502(8) 0.1352(11) 0.5000
N5 N 0.7978(8) 0.2818(11) 0.3629(8)
C35 C 0.7964(15) 0.2187(20) 0.0447(13)
H25 H 0.7996 0.1771 0.0734
C36 C 0.7971(14) 0.3445(18) 0.0414(10)
H26 H 0.8007 0.3897 0.0697
C37 C 0.8160(11) 0.2342(16) 0.3188(11)
H27 H 0.8320 0.2019 0.3489
C38 C 0.7927(9) 0.2805(13) 0.1846(10)
C39 C 0.7804(11) 0.3319(15) 0.3204(10)
H28 H 0.7673 0.3658 0.3515
C40 C 0.6260(9) 0.1700(13) 0.5000
C41 C 0.8135(12) 0.2274(16) 0.2300(10)
H29 H 0.8247 0.1904 0.2021
C42 C 0.7917(10) 0.2782(14) 0.0908(10)
C43 C 0.7805(10) 0.3371(14) 0.2321(9)
H30 H 0.7728 0.3768 0.2052
C44 C 0.6667(11) 0.1175(16) 0.5000
Co6 Co 0.71752(21) 0.51980(15) 0.5000
Co8 Co 0.5000 -0.0000 0.5000
O11 O 0.5813(8) 0.6221(7) 0.5000
O12 O 0.4150(7) 0.5502(8) 0.5000
O13 O 0.8648(11) 0.4150(7) 0.5000
N7 N 0.4840(8) 0.2022(8) 0.6371(8)
N8 N 0.7978(8) 0.2818(11) 0.6371(8)
C16 C 0.4223(13) 0.2036(15) 0.9553(13)
H10 H 0.3775 0.2004 0.9266
C17 C 0.5474(11) 0.2029(14) 0.9586(10)
H11 H 0.5890 0.1993 0.9303
C18 C 0.4182(11) 0.1840(11) 0.6812(11)
H12 H 0.3699 0.1680 0.6511
C19 C 0.4878(9) 0.2073(9) 0.8154(10)
C20 C 0.5515(10) 0.2196(11) 0.6796(10)
H13 H 0.5985 0.2327 0.6485
C21 C 0.4139(11) 0.1865(12) 0.7700(10)
H14 H 0.3657 0.1753 0.7979
C22 C 0.4865(10) 0.2083(10) 0.9092(10)
C23 C 0.5566(10) 0.2195(10) 0.7679(9)
H15 H 0.6040 0.2272 0.7948
C45 C 0.7964(15) 0.2187(20) 0.9553(13)
H31 H 0.7996 0.1771 0.9266
C46 C 0.7971(14) 0.3445(18) 0.9586(10)
H32 H 0.8007 0.3897 0.9303
C47 C 0.8160(11) 0.2342(16) 0.6812(11)
H33 H 0.8320 0.2019 0.6511
C48 C 0.7927(9) 0.2805(13) 0.8154(10)
C49 C 0.7804(11) 0.3319(15) 0.6796(10)
H34 H 0.7673 0.3658 0.6485
C50 C 0.8135(12) 0.2274(16) 0.7700(10)
H35 H 0.8247 0.1904 0.7979
C51 C 0.7917(10) 0.2782(14) 0.9092(10)
C52 C 0.7805(10) 0.3371(14) 0.7679(9)
H36 H 0.7728 0.3768 0.7948
Co8_2 Co 0.5000 1.0000 0.5000
N4_2 N -0.0000 0.5000 0.3642(9)
C27_2 C -0.0000 0.5000 0.1857(13)
C29_2 C -0.0000 0.5000 0.0887(15)
C30_2 C 0.0138(15) 0.4443(11) 0.0431(10)
H20_2 H 0.0232 0.4067 0.0722
C32_2 C 0.0046(12) 0.4394(8) 0.3187(8)
H22_2 H 0.0077 0.3975 0.3467
C34_2 C 0.0045(15) 0.4423(11) 0.2303(9)
H24_2 H 0.0077 0.4012 0.2006
Co7_2 Co 0.0000 0.5000 0.5000
Co1_2 Co 0.28248(21) 0.48020(15) 0.5000
O1_2 O 0.1529(10) 0.4073(7) 0.5000
O2_2 O 0.0408(11) 0.4187(8) 0.5000
O3_2 O 0.2474(12) 0.5744(9) 0.5000
O4_2 O 0.2724(13) 0.3660(10) 0.5000
O5_2 O 0.1352(11) 0.5850(7) 0.5000
N1_2 N 0.2818(11) 0.4840(8) 0.3629(8)
N2_2 N 0.0000 0.5000 0.6358(9)
C1_2 C 0.2187(20) 0.4223(13) 0.0447(13)
H1_2 H 0.1771 0.3775 0.0734
C2_2 C 0.3445(18) 0.5474(11) 0.0414(10)
H2_2 H 0.3897 0.5890 0.0697
C3_2 C -0.0000 0.5000 0.8143(13)
C4_2 C 0.2342(16) 0.4182(11) 0.3188(11)
H3_2 H 0.2019 0.3699 0.3489
C5_2 C 0.0046(12) 0.4394(8) 0.6813(8)
H4_2 H 0.0077 0.3975 0.6533
C6_2 C 0.2805(13) 0.4878(9) 0.1846(10)
C7_2 C 0.3319(15) 0.5515(10) 0.3204(10)
H5_2 H 0.3658 0.5985 0.3515
C8_2 C 0.1700(13) 0.5440(9) 0.5000
C9_2 C 0.2274(16) 0.4139(11) 0.2300(10)
H6_2 H 0.1904 0.3657 0.2021
C10_2 C 0.2782(14) 0.4865(10) 0.0908(10)
C11_2 C -0.0000 0.5000 0.9113(15)
C12_2 C 0.3371(14) 0.5566(10) 0.2321(9)
H7_2 H 0.3768 0.6040 0.2052
C14_2 C 0.0045(15) 0.4423(11) 0.7697(9)
H9_2 H 0.0077 0.4012 0.7994
C15_2 C 0.1175(16) 0.4508(11) 0.5000
C25_2 C 0.0138(15) 0.4443(11) 0.9569(10)
H17_2 H 0.0232 0.4067 0.9278
Co3_2 Co 0.51980(26) 0.80228(15) 0.5000
O6_2 O 0.5927(12) 0.7456(7) 0.5000
O8_2 O 0.4256(14) 0.6730(8) 0.5000
O9_2 O 0.6340(16) 0.9064(9) 0.5000
N5_2 N 0.5160(14) 0.7978(8) 0.3629(8)
C35_2 C 0.5777(25) 0.7964(15) 0.0447(13)
H25_2 H 0.6225 0.7996 0.0734
C36_2 C 0.4526(23) 0.7971(14) 0.0414(10)
H26_2 H 0.4110 0.8007 0.0697
C37_2 C 0.5818(19) 0.8160(11) 0.3188(11)
H27_2 H 0.6301 0.8320 0.3489
C38_2 C 0.5122(16) 0.7927(9) 0.1846(10)
C39_2 C 0.4485(19) 0.7804(11) 0.3204(10)
H28_2 H 0.4015 0.7673 0.3515
C40_2 C 0.4560(16) 0.6260(9) 0.5000
C41_2 C 0.5861(20) 0.8135(12) 0.2300(10)
H29_2 H 0.6343 0.8247 0.2021
C42_2 C 0.5135(17) 0.7917(10) 0.0908(10)
C43_2 C 0.4434(17) 0.7805(10) 0.2321(9)
H30_2 H 0.3960 0.7728 0.2052
C44_2 C 0.5492(19) 0.6667(11) 0.5000
Co6_2 Co 0.19772(26) 0.71752(21) 0.5000
O13_2 O 0.4498(13) 0.8648(11) 0.5000
N7_2 N 0.2818(11) 0.4840(8) 0.6371(8)
N8_2 N 0.5160(14) 0.7978(8) 0.6371(8)
C16_2 C 0.2187(20) 0.4223(13) 0.9553(13)
H10_2 H 0.1771 0.3775 0.9266
C17_2 C 0.3445(18) 0.5474(11) 0.9586(10)
H11_2 H 0.3897 0.5890 0.9303
C18_2 C 0.2342(16) 0.4182(11) 0.6812(11)
H12_2 H 0.2019 0.3699 0.6511
C19_2 C 0.2805(13) 0.4878(9) 0.8154(10)
C20_2 C 0.3319(15) 0.5515(10) 0.6796(10)
H13_2 H 0.3658 0.5985 0.6485
C21_2 C 0.2274(16) 0.4139(11) 0.7700(10)
H14_2 H 0.1904 0.3657 0.7979
C22_2 C 0.2782(14) 0.4865(10) 0.9092(10)
C23_2 C 0.3371(14) 0.5566(10) 0.7679(9)
H15_2 H 0.3768 0.6040 0.7948
C45_2 C 0.5777(25) 0.7964(15) 0.9553(13)
H31_2 H 0.6225 0.7996 0.9266
C46_2 C 0.4526(23) 0.7971(14) 0.9586(10)
H32_2 H 0.4110 0.8007 0.9303
C47_2 C 0.5818(19) 0.8160(11) 0.6812(11)
H33_2 H 0.6301 0.8320 0.6511
C48_2 C 0.5122(16) 0.7927(9) 0.8154(10)
C49_2 C 0.4485(19) 0.7804(11) 0.6796(10)
H34_2 H 0.4015 0.7673 0.6485
C50_2 C 0.5861(20) 0.8135(12) 0.7700(10)
H35_2 H 0.6343 0.8247 0.7979
C51_2 C 0.5135(17) 0.7917(10) 0.9092(10)
C52_2 C 0.4434(17) 0.7805(10) 0.7679(9)
H36_2 H 0.3960 0.7728 0.7948
N4_3 N 1.0000 0.5000 0.3642(9)
C27_3 C 1.0000 0.5000 0.1857(13)
C28_2 C 0.9954(12) 0.5606(8) 0.3187(8)
H19_2 H 0.9923 0.6025 0.3467
C29_3 C 1.0000 0.5000 0.0887(15)
C31_2 C 0.9955(15) 0.5577(11) 0.2303(9)
H21_2 H 0.9923 0.5988 0.2006
C33_2 C 0.9862(15) 0.5557(11) 0.0431(10)
H23_2 H 0.9768 0.5933 0.0722
Co7_3 Co 1.0000 0.5000 0.5000
N2_3 N 1.0000 0.5000 0.6358(9)
C3_3 C 1.0000 0.5000 0.8143(13)
C11_3 C 1.0000 0.5000 0.9113(15)
C13_2 C 0.9862(15) 0.5557(11) 0.9569(10)
H8_2 H 0.9768 0.5933 0.9278
C24_2 C 0.9954(12) 0.5606(8) 0.6813(8)
H16_2 H 0.9923 0.6025 0.6533
C26_2 C 0.9955(15) 0.5577(11) 0.7697(9)
H18_2 H 0.9923 0.5988 0.7994
O11_2 O 0.9592(11) 0.5813(8) 0.5000
N4_4 N 0.5000 0.0000 0.3642(9)
C27_4 C 0.5000 0.0000 0.1857(13)
C29_4 C 0.5000 -0.0000 0.0887(15)
C30_3 C 0.5695(10) 0.0138(15) 0.0431(10)
H20_3 H 0.6165 0.0232 0.0722
C32_3 C 0.5652(9) 0.0046(12) 0.3187(8)
H22_3 H 0.6102 0.0077 0.3467
C34_3 C 0.5622(10) 0.0045(15) 0.2303(9)
H24_3 H 0.6065 0.0077 0.2006
N2_4 N 0.5000 0.0000 0.6358(9)
C3_4 C 0.5000 0.0000 0.8143(13)
C5_3 C 0.5652(9) 0.0046(12) 0.6813(8)
H4_3 H 0.6102 0.0077 0.6533
C11_4 C 0.5000 -0.0000 0.9113(15)
C14_3 C 0.5622(10) 0.0045(15) 0.7697(9)
H9_3 H 0.6065 0.0077 0.7994
C25_3 C 0.5695(10) 0.0138(15) 0.9569(10)
H17_3 H 0.6165 0.0232 0.9278
O6_3 O 0.8471(10) 0.5927(12) 0.5000
O8_3 O 0.7526(12) 0.4256(14) 0.5000
O9_3 O 0.7276(13) 0.6340(16) 0.5000
N5_3 N 0.7182(11) 0.5160(14) 0.3629(8)
C35_3 C 0.7813(20) 0.5777(25) 0.0447(13)
H25_3 H 0.8229 0.6225 0.0734
C36_3 C 0.6555(18) 0.4526(23) 0.0414(10)
H26_3 H 0.6103 0.4110 0.0697
C37_3 C 0.7658(16) 0.5818(19) 0.3188(11)
H27_3 H 0.7981 0.6301 0.3489
C38_3 C 0.7195(13) 0.5122(16) 0.1846(10)
C39_3 C 0.6681(15) 0.4485(19) 0.3204(10)
H28_3 H 0.6342 0.4015 0.3515
C40_3 C 0.8300(13) 0.4560(16) 0.5000
C41_3 C 0.7726(16) 0.5861(20) 0.2300(10)
H29_3 H 0.8096 0.6343 0.2021
C42_3 C 0.7218(14) 0.5135(17) 0.0908(10)
C43_3 C 0.6629(14) 0.4434(17) 0.2321(9)
H30_3 H 0.6232 0.3960 0.2052
C44_3 C 0.8825(16) 0.5492(19) 0.5000
N8_3 N 0.7182(11) 0.5160(14) 0.6371(8)
C45_3 C 0.7813(20) 0.5777(25) 0.9553(13)
H31_3 H 0.8229 0.6225 0.9266
C46_3 C 0.6555(18) 0.4526(23) 0.9586(10)
H32_3 H 0.6103 0.4110 0.9303
C47_3 C 0.7658(16) 0.5818(19) 0.6812(11)
H33_3 H 0.7981 0.6301 0.6511
C48_3 C 0.7195(13) 0.5122(16) 0.8154(10)
C49_3 C 0.6681(15) 0.4485(19) 0.6796(10)
H34_3 H 0.6342 0.4015 0.6485
C50_3 C 0.7726(16) 0.5861(20) 0.7700(10)
H35_3 H 0.8096 0.6343 0.7979
C51_3 C 0.7218(14) 0.5135(17) 0.9092(10)
C52_3 C 0.6629(14) 0.4434(17) 0.7679(9)
H36_3 H 0.6232 0.3960 0.7948
N4_5 N 0.5000 1.0000 0.3642(9)
C27_5 C 0.5000 1.0000 0.1857(13)
C28_3 C 0.4348(9) 0.9954(12) 0.3187(8)
H19_3 H 0.3898 0.9923 0.3467
C29_5 C 0.5000 1.0000 0.0887(15)
C31_3 C 0.4378(10) 0.9955(15) 0.2303(9)
H21_3 H 0.3935 0.9923 0.2006
C33_3 C 0.4305(10) 0.9862(15) 0.0431(10)
H23_3 H 0.3835 0.9768 0.0722
N2_5 N 0.5000 1.0000 0.6358(9)
C3_5 C 0.5000 1.0000 0.8143(13)
C11_5 C 0.5000 1.0000 0.9113(15)
C13_3 C 0.4305(10) 0.9862(15) 0.9569(10)
H8_3 H 0.3835 0.9768 0.9278
C24_3 C 0.4348(9) 0.9954(12) 0.6813(8)
H16_3 H 0.3898 0.9923 0.6533
C26_3 C 0.4378(10) 0.9955(15) 0.7697(9)
H18_3 H 0.3935 0.9923 0.7994
O11_3 O 0.3779(7) 0.9592(11) 0.5000
O6_4 O 0.2544(7) 0.8471(10) 0.5000
O8_4 O 0.3270(8) 0.7526(12) 0.5000
O9_4 O 0.0936(9) 0.7276(13) 0.5000
N5_4 N 0.2022(8) 0.7182(11) 0.3629(8)
C35_4 C 0.2036(15) 0.7813(20) 0.0447(13)
H25_4 H 0.2004 0.8229 0.0734
C36_4 C 0.2029(14) 0.6555(18) 0.0414(10)
H26_4 H 0.1993 0.6103 0.0697
C37_4 C 0.1840(11) 0.7658(16) 0.3188(11)
H27_4 H 0.1680 0.7981 0.3489
C38_4 C 0.2073(9) 0.7195(13) 0.1846(10)
C39_4 C 0.2196(11) 0.6681(15) 0.3204(10)
H28_4 H 0.2327 0.6342 0.3515
C40_4 C 0.3740(9) 0.8300(13) 0.5000
C41_4 C 0.1865(12) 0.7726(16) 0.2300(10)
H29_4 H 0.1753 0.8096 0.2021
C42_4 C 0.2083(10) 0.7218(14) 0.0908(10)
C43_4 C 0.2195(10) 0.6629(14) 0.2321(9)
H30_4 H 0.2272 0.6232 0.2052
C44_4 C 0.3333(11) 0.8825(16) 0.5000
N8_4 N 0.2022(8) 0.7182(11) 0.6371(8)
C45_4 C 0.2036(15) 0.7813(20) 0.9553(13)
H31_4 H 0.2004 0.8229 0.9266
C46_4 C 0.2029(14) 0.6555(18) 0.9586(10)
H32_4 H 0.1993 0.6103 0.9303
C47_4 C 0.1840(11) 0.7658(16) 0.6812(11)
H33_4 H 0.1680 0.7981 0.6511
C48_4 C 0.2073(9) 0.7195(13) 0.8154(10)
C49_4 C 0.2196(11) 0.6681(15) 0.6796(10)
H34_4 H 0.2327 0.6342 0.6485
C50_4 C 0.1865(12) 0.7726(16) 0.7700(10)
H35_4 H 0.1753 0.8096 0.7979
C51_4 C 0.2083(10) 0.7218(14) 0.9092(10)
C52_4 C 0.2195(10) 0.6629(14) 0.7679(9)
H36_4 H 0.2272 0.6232 0.7948
loop_
_geom_bond_atom_site_label_1
_geom_bond_atom_site_label_2
_geom_bond_site_symmetry_1
_geom_bond_site_symmetry_2
N4 C28 1_555 1_555
C27 C29 1_555 1_555
C28 H19 1_555 1_555
C29 C30 1_555 1_555
H20 C30 1_555 1_555
C31 C27 1_555 1_555
H21 C31 1_555 1_555
C32 N4 1_555 1_555
H22 C32 1_555 1_555
H23 C33 1_555 1_555
C34 C27 1_555 1_555
H24 C34 1_555 1_555
Co7 N4 1_555 1_555
C28 C31 1_555 1_555
C29 C33 1_555 1_555
C32 C34 1_555 1_555
Co1 O1 1_555 1_555
Co7 O2 1_555 1_555
O1 C15 1_555 1_555
O2 C15 1_555 1_555
O3 Co1 1_555 1_555
O4 Co1 1_555 1_555
O5 Co7 1_555 1_555
N1 Co1 1_555 1_555
N2 Co7 1_555 1_555
C1 H1 1_555 1_555
C2 H2 1_555 1_555
C3 C11 1_555 1_555
C4 N1 1_555 1_555
H3 C4 1_555 1_555
C5 N2 1_555 1_555
H4 C5 1_555 1_555
C6 C9 1_555 1_555
C7 N1 1_555 1_555
H5 C7 1_555 1_555
C8 O3 1_555 1_555
C9 C4 1_555 1_555
H6 C9 1_555 1_555
C10 C1 1_555 1_555
C11 C13 1_555 1_555
C12 C6 1_555 1_555
H7 C12 1_555 1_555
C13 H8 1_555 1_555
C14 C3 1_555 1_555
H9 C14 1_555 1_555
C15 C8 1_555 1_555
C24 N2 1_555 1_555
H16 C24 1_555 1_555
C25 C11 1_555 1_555
H17 C25 1_555 1_555
C26 C3 1_555 1_555
H18 C26 1_555 1_555
Co3 O6 1_555 1_555
O6 C44 1_555 1_555
O7 C44 1_555 1_555
O8 Co3 1_555 1_555
O9 Co3 1_555 1_555
O10 Co1 1_555 1_555
N5 Co3 1_555 1_555
C35 H25 1_555 1_555
C36 H26 1_555 1_555
C37 N5 1_555 1_555
H27 C37 1_555 1_555
C38 C41 1_555 1_555
C39 N5 1_555 1_555
H28 C39 1_555 1_555
C40 O8 1_555 1_555
C41 C37 1_555 1_555
H29 C41 1_555 1_555
C42 C35 1_555 1_555
C43 C38 1_555 1_555
H30 C43 1_555 1_555
C44 C40 1_555 1_555
Co6 O5 1_555 1_555
Co8 O7 1_555 1_555
O11 Co7 1_555 1_555
O12 Co7 1_555 1_555
O13 Co3 1_555 1_555
N7 Co1 1_555 1_555
N8 Co3 1_555 1_555
O5 C8 1_555 1_555
C2 C10 1_555 1_555
C5 C14 1_555 1_555
C6 C10 1_555 1_555
C7 C12 1_555 1_555
C24 C26 1_555 1_555
O10 C40 1_555 1_555
O10 Co8 1_555 1_555
C36 C42 1_555 1_555
C38 C42 1_555 1_555
C39 C43 1_555 1_555
N7 C18 1_555 1_555
H10 C16 1_555 1_555
H11 C17 1_555 1_555
C18 H12 1_555 1_555
C19 C21 1_555 1_555
C20 N7 1_555 1_555
H13 C20 1_555 1_555
C21 C18 1_555 1_555
H14 C21 1_555 1_555
C22 C16 1_555 1_555
C23 C19 1_555 1_555
H15 C23 1_555 1_555
N8 C47 1_555 1_555
H31 C45 1_555 1_555
H32 C46 1_555 1_555
C47 H33 1_555 1_555
C48 C50 1_555 1_555
C49 N8 1_555 1_555
H34 C49 1_555 1_555
C50 C47 1_555 1_555
H35 C50 1_555 1_555
C51 C45 1_555 1_555
C52 C48 1_555 1_555
H36 C52 1_555 1_555
C17 C22 1_555 1_555
C19 C22 1_555 1_555
C20 C23 1_555 1_555
C46 C51 1_555 1_555
C48 C51 1_555 1_555
C49 C52 1_555 1_555
C27_2 C29_2 1_555 1_555
C29_2 C30_2 1_555 1_555
H20_2 C30_2 1_555 1_555
C32_2 N4_2 1_555 1_555
H22_2 C32_2 1_555 1_555
C34_2 C27_2 1_555 1_555
H24_2 C34_2 1_555 1_555
Co7_2 N4_2 1_555 1_555
C32_2 C34_2 1_555 1_555
Co1_2 O1_2 1_555 1_555
Co7_2 O2_2 1_555 1_555
O1_2 C15_2 1_555 1_555
O2_2 C15_2 1_555 1_555
O3_2 Co1_2 1_555 1_555
O4_2 Co1_2 1_555 1_555
O5_2 Co7_2 1_555 1_555
N1_2 Co1_2 1_555 1_555
N2_2 Co7_2 1_555 1_555
C1_2 H1_2 1_555 1_555
C2_2 H2_2 1_555 1_555
C3_2 C11_2 1_555 1_555
C4_2 N1_2 1_555 1_555
H3_2 C4_2 1_555 1_555
C5_2 N2_2 1_555 1_555
H4_2 C5_2 1_555 1_555
C6_2 C9_2 1_555 1_555
C7_2 N1_2 1_555 1_555
H5_2 C7_2 1_555 1_555
C8_2 O3_2 1_555 1_555
C9_2 C4_2 1_555 1_555
H6_2 C9_2 1_555 1_555
C10_2 C1_2 1_555 1_555
C12_2 C6_2 1_555 1_555
H7_2 C12_2 1_555 1_555
C14_2 C3_2 1_555 1_555
H9_2 C14_2 1_555 1_555
C15_2 C8_2 1_555 1_555
C25_2 C11_2 1_555 1_555
H17_2 C25_2 1_555 1_555
Co3_2 O6_2 1_555 1_555
O6_2 C44_2 1_555 1_555
O11 C44_2 1_555 1_555
O8_2 Co3_2 1_555 1_555
O9_2 Co3_2 1_555 1_555
O12 Co1_2 1_555 1_555
N5_2 Co3_2 1_555 1_555
C35_2 H25_2 1_555 1_555
C36_2 H26_2 1_555 1_555
C37_2 N5_2 1_555 1_555
H27_2 C37_2 1_555 1_555
C38_2 C41_2 1_555 1_555
C39_2 N5_2 1_555 1_555
H28_2 C39_2 1_555 1_555
C40_2 O8_2 1_555 1_555
C41_2 C37_2 1_555 1_555
H29_2 C41_2 1_555 1_555
C42_2 C35_2 1_555 1_555
C43_2 C38_2 1_555 1_555
H30_2 C43_2 1_555 1_555
C44_2 C40_2 1_555 1_555
Co6_2 O5_2 1_555 1_555
O13_2 Co3_2 1_555 1_555
N7_2 Co1_2 1_555 1_555
N8_2 Co3_2 1_555 1_555
O5_2 C8_2 1_555 1_555
C2_2 C10_2 1_555 1_555
C5_2 C14_2 1_555 1_555
C6_2 C10_2 1_555 1_555
C7_2 C12_2 1_555 1_555
O12 C40_2 1_555 1_555
C36_2 C42_2 1_555 1_555
C38_2 C42_2 1_555 1_555
C39_2 C43_2 1_555 1_555
N7_2 C18_2 1_555 1_555
H10_2 C16_2 1_555 1_555
H11_2 C17_2 1_555 1_555
C18_2 H12_2 1_555 1_555
C19_2 C21_2 1_555 1_555
C20_2 N7_2 1_555 1_555
H13_2 C20_2 1_555 1_555
C21_2 C18_2 1_555 1_555
H14_2 C21_2 1_555 1_555
C22_2 C16_2 1_555 1_555
C23_2 C19_2 1_555 1_555
H15_2 C23_2 1_555 1_555
N8_2 C47_2 1_555 1_555
H31_2 C45_2 1_555 1_555
H32_2 C46_2 1_555 1_555
C47_2 H33_2 1_555 1_555
C48_2 C50_2 1_555 1_555
C49_2 N8_2 1_555 1_555
H34_2 C49_2 1_555 1_555
C50_2 C47_2 1_555 1_555
H35_2 C50_2 1_555 1_555
C51_2 C45_2 1_555 1_555
C52_2 C48_2 1_555 1_555
H36_2 C52_2 1_555 1_555
C17_2 C22_2 1_555 1_555
C19_2 C22_2 1_555 1_555
C20_2 C23_2 1_555 1_555
C46_2 C51_2 1_555 1_555
C48_2 C51_2 1_555 1_555
C49_2 C52_2 1_555 1_555
N4_3 C28_2 1_555 1_555
C27_3 C29_3 1_555 1_555
C28_2 H19_2 1_555 1_555
C31_2 C27_3 1_555 1_555
H21_2 C31_2 1_555 1_555
H23_2 C33_2 1_555 1_555
Co7_3 N4_3 1_555 1_555
C28_2 C31_2 1_555 1_555
C29_3 C33_2 1_555 1_555
N2_3 Co7_3 1_555 1_555
C3_3 C11_3 1_555 1_555
C11_3 C13_2 1_555 1_555
C13_2 H8_2 1_555 1_555
C24_2 N2_3 1_555 1_555
H16_2 C24_2 1_555 1_555
C26_2 C3_3 1_555 1_555
H18_2 C26_2 1_555 1_555
O11_2 Co7_3 1_555 1_555
O13 Co7_3 1_555 1_555
C24_2 C26_2 1_555 1_555
C27_4 C29_4 1_555 1_555
C29_4 C30_3 1_555 1_555
H20_3 C30_3 1_555 1_555
C32_3 N4_4 1_555 1_555
H22_3 C32_3 1_555 1_555
C34_3 C27_4 1_555 1_555
H24_3 C34_3 1_555 1_555
Co8 N4_4 1_555 1_555
C32_3 C34_3 1_555 1_555
N2_4 Co8 1_555 1_555
C3_4 C11_4 1_555 1_555
C5_3 N2_4 1_555 1_555
H4_3 C5_3 1_555 1_555
C14_3 C3_4 1_555 1_555
H9_3 C14_3 1_555 1_555
C25_3 C11_4 1_555 1_555
H17_3 C25_3 1_555 1_555
Co6 O6_3 1_555 1_555
O6_3 C44_3 1_555 1_555
O11_2 C44_3 1_555 1_555
O8_3 Co6 1_555 1_555
O9_3 Co6 1_555 1_555
N5_3 Co6 1_555 1_555
C35_3 H25_3 1_555 1_555
C36_3 H26_3 1_555 1_555
C37_3 N5_3 1_555 1_555
H27_3 C37_3 1_555 1_555
C38_3 C41_3 1_555 1_555
C39_3 N5_3 1_555 1_555
H28_3 C39_3 1_555 1_555
C40_3 O8_3 1_555 1_555
C41_3 C37_3 1_555 1_555
H29_3 C41_3 1_555 1_555
C42_3 C35_3 1_555 1_555
C43_3 C38_3 1_555 1_555
H30_3 C43_3 1_555 1_555
C44_3 C40_3 1_555 1_555
N8_3 Co6 1_555 1_555
C5_3 C14_3 1_555 1_555
O13 C40_3 1_555 1_555
C36_3 C42_3 1_555 1_555
C38_3 C42_3 1_555 1_555
C39_3 C43_3 1_555 1_555
N8_3 C47_3 1_555 1_555
H31_3 C45_3 1_555 1_555
H32_3 C46_3 1_555 1_555
C47_3 H33_3 1_555 1_555
C48_3 C50_3 1_555 1_555
C49_3 N8_3 1_555 1_555
H34_3 C49_3 1_555 1_555
C50_3 C47_3 1_555 1_555
H35_3 C50_3 1_555 1_555
C51_3 C45_3 1_555 1_555
C52_3 C48_3 1_555 1_555
H36_3 C52_3 1_555 1_555
C46_3 C51_3 1_555 1_555
C48_3 C51_3 1_555 1_555
C49_3 C52_3 1_555 1_555
N4_5 C28_3 1_555 1_555
C27_5 C29_5 1_555 1_555
C28_3 H19_3 1_555 1_555
C31_3 C27_5 1_555 1_555
H21_3 C31_3 1_555 1_555
H23_3 C33_3 1_555 1_555
Co8_2 N4_5 1_555 1_555
C28_3 C31_3 1_555 1_555
C29_5 C33_3 1_555 1_555
N2_5 Co8_2 1_555 1_555
C3_5 C11_5 1_555 1_555
C11_5 C13_3 1_555 1_555
C13_3 H8_3 1_555 1_555
C24_3 N2_5 1_555 1_555
H16_3 C24_3 1_555 1_555
C26_3 C3_5 1_555 1_555
H18_3 C26_3 1_555 1_555
O11_3 Co8_2 1_555 1_555
O13_2 Co8_2 1_555 1_555
C24_3 C26_3 1_555 1_555
Co6_2 O6_4 1_555 1_555
O6_4 C44_4 1_555 1_555
O11_3 C44_4 1_555 1_555
O8_4 Co6_2 1_555 1_555
O9_4 Co6_2 1_555 1_555
N5_4 Co6_2 1_555 1_555
C35_4 H25_4 1_555 1_555
C36_4 H26_4 1_555 1_555
C37_4 N5_4 1_555 1_555
H27_4 C37_4 1_555 1_555
C38_4 C41_4 1_555 1_555
C39_4 N5_4 1_555 1_555
H28_4 C39_4 1_555 1_555
C40_4 O8_4 1_555 1_555
C41_4 C37_4 1_555 1_555
H29_4 C41_4 1_555 1_555
C42_4 C35_4 1_555 1_555
C43_4 C38_4 1_555 1_555
H30_4 C43_4 1_555 1_555
C44_4 C40_4 1_555 1_555
N8_4 Co6_2 1_555 1_555
O13_2 C40_4 1_555 1_555
C36_4 C42_4 1_555 1_555
C38_4 C42_4 1_555 1_555
C39_4 C43_4 1_555 1_555
N8_4 C47_4 1_555 1_555
H31_4 C45_4 1_555 1_555
H32_4 C46_4 1_555 1_555
C47_4 H33_4 1_555 1_555
C48_4 C50_4 1_555 1_555
C49_4 N8_4 1_555 1_555
H34_4 C49_4 1_555 1_555
C50_4 C47_4 1_555 1_555
H35_4 C50_4 1_555 1_555
C51_4 C45_4 1_555 1_555
C52_4 C48_4 1_555 1_555
H36_4 C52_4 1_555 1_555
C46_4 C51_4 1_555 1_555
C48_4 C51_4 1_555 1_555
C49_4 C52_4 1_555 1_555

#END
