
###############################################################################
#
# This file contains modified crystal structure data generated from the
# MOF subset of the Cambridge Structural Database (CSD) v543 
# hosted by the Cambridge Crystallographic Data Centre (CCDC).
#
# This work is licensed under the Creative Commons
# Attribution-NonCommercial-ShareAlike 4.0 International License.
# To view a copy of this license, visit
# http://creativecommons.org/licenses/by-nc-sa/4.0/
# or send a letter to
# Creative Commons, PO Box 1866, Mountain View, CA 94042, USA.
#
# CIF created using the CSD Python API on 29 September 2022
# The structure has been converted into the P1 space group
# The structure has a 3D framework
# The original CSD entry HODWUS is in the monoclinic crystal system
# The framework has been calculated to contain at least 10.0% void space
# The void calculation uses a probe of radius 1.32A, grid spacing 0.4
#
###############################################################################

data_HODWUS
_chemical_formula_moiety         '(C34 H52 Cd13 N16)n'
_symmetry_cell_setting           triclinic
_symmetry_space_group_name_H-M   'P 1'
_symmetry_Int_Tables_number      1
_space_group_name_Hall           'P 1'
loop_
_symmetry_equiv_pos_site_id
_symmetry_equiv_pos_as_xyz
1 x,y,z
_cell_length_a                   9.0494(12)
_cell_length_b                   17.475(2)
_cell_length_c                   10.5357(10)
_cell_angle_alpha                90
_cell_angle_beta                 106.359(8)
_cell_angle_gamma                90
_cell_volume                     1598.65
loop_
_atom_site_label
_atom_site_type_symbol
_atom_site_fract_x
_atom_site_fract_y
_atom_site_fract_z
Cd7 Cd 0.00000 -0.0000 -0.00000
C3 C 0.0212(9) 0.2500 0.4829(7)
Cd5 Cd 0.16794(7) 0.2500 0.34898(5)
Cd7_2 Cd -0.00000 -0.0000 1.00000
Cd7_3 Cd 0.00000 1.0000 -0.00000
Cd7_4 Cd -0.00000 1.0000 1.00000
Cd7_5 Cd 1.00000 -0.0000 -0.00000
Cd3 Cd 0.77230(7) 0.2500 0.66831(5)
C1 C 0.1204(7) 0.1446(4) 0.2312(5)
N1 N 0.0886(7) 0.0929(3) 0.1643(5)
C2 C 0.4089(8) 0.2500 0.4689(7)
N2 N 0.5331(9) 0.2500 0.5320(7)
N3 N 0.9372(9) 0.2500 0.5416(8)
C4 C 0.8204(7) 0.1462(3) 0.7905(5)
H2 H 0.2996(8) 0.0149(5) 0.0001(6)
C11 C 0.1204(7) 0.3554(4) 0.2312(5)
N6 N 0.0886(7) 0.4071(3) 0.1643(5)
Cd4 Cd 0.00000 0.5000 0.00000
C20 C 0.8204(7) 0.3538(3) 0.7905(5)
N10 N 0.8559(7) 0.0951(3) 0.8568(5)
Cd7_6 Cd 1.00000 -0.0000 1.00000
N5 N 0.2180(8) 0.0304(5) 0.9343(6)
H1 H 0.2226(8) 0.0818(5) 0.9325(6)
C5 C 0.2441(12) 0.0041(7) 0.8141(9)
C6 C 0.1576(17) 0.0457(7) 0.6970(9)
H4 H 0.1887(17) 0.0990(7) 0.7061(9)
H5 H 0.0489(17) 0.0435(7) 0.6917(9)
C7 C 0.181(2) 0.0142(11) 0.5676(12)
H7 H 0.1345(23) 0.0487(11) 0.4952(12)
C8 C 0.350(2) 0.0060(12) 0.5817(18)
H8 H 0.4034(22) 0.0536(12) 0.6118(18)
H13 H 0.4720(16) 0.0150(11) 0.8440(13)
Cd4_2 Cd -0.00000 0.5000 1.00000
Cd7_7 Cd 1.00000 1.0000 -0.00000
N8 N 0.1441(7) 0.9049(3) 0.1432(5)
Cd7_8 Cd 1.00000 1.0000 1.00000
H3 H 0.1854(12) 0.9562(7) 0.8018(9)
H6 H 0.1306(23) 0.9648(11) 0.5478(12)
H9 H 0.3668(22) 0.9918(12) 0.4980(18)
C9 C 0.404(2) 0.9431(9) 0.6839(15)
H10 H 0.5089(22) 0.9283(9) 0.6884(15)
H11 H 0.3386(22) 0.8984(9) 0.6600(15)
C10 C 0.3968(16) 0.9744(11) 0.8169(13)
H12 H 0.4245(16) 0.9340(11) 0.8825(13)
Cd4_3 Cd 1.00000 0.5000 0.00000
H16 H 0.8146(12) 0.0438(7) 0.1982(9)
H19 H 0.8694(23) 0.0352(11) 0.4522(12)
H22 H 0.6332(22) 0.0082(12) 0.5020(18)
C17 C 0.596(2) 0.0569(9) 0.3161(15)
H23 H 0.4911(22) 0.0717(9) 0.3116(15)
H24 H 0.6614(22) 0.1016(9) 0.3400(15)
C18 C 0.6032(16) 0.0256(11) 0.1831(13)
H25 H 0.5755(16) 0.0660(11) 0.1175(13)
Cd4_4 Cd 1.00000 0.5000 1.00000
N9 N 0.7820(8) 0.9696(5) 0.0657(6)
H14 H 0.7774(8) 0.9182(5) 0.0675(6)
C13 C 0.7559(12) 0.9959(7) 0.1859(9)
C14 C 0.8424(17) 0.9543(7) 0.3030(9)
H17 H 0.8113(17) 0.9010(7) 0.2939(9)
H18 H 0.9511(17) 0.9565(7) 0.3083(9)
C15 C 0.819(2) 0.9858(11) 0.4324(12)
H20 H 0.8655(23) 0.9513(11) 0.5048(12)
C16 C 0.650(2) 0.9940(12) 0.4183(18)
H21 H 0.5966(22) 0.9464(12) 0.3882(18)
H26 H 0.5280(16) 0.9850(11) 0.1560(13)
N7 N 0.9114(7) 0.9071(3) 0.8357(5)
H15 H 0.7004(8) 0.9851(5) 0.9999(6)
N4 N 0.1441(7) 0.5951(3) 0.1432(5)
Cd6 Cd 0.22770(7) 0.7500 0.33169(5)
C12 C 0.1796(7) 0.6462(3) 0.2095(5)
H15_2 H 0.2996(8) 0.4851(5) 0.0001(6)
N9_2 N 0.2180(8) 0.4696(5) 0.9343(6)
H14_2 H 0.2226(8) 0.4182(5) 0.9325(6)
C13_2 C 0.2441(12) 0.4959(7) 0.8141(9)
H16_2 H 0.1854(12) 0.5438(7) 0.8018(9)
C14_2 C 0.1576(17) 0.4543(7) 0.6970(9)
H17_2 H 0.1887(17) 0.4010(7) 0.7061(9)
H18_2 H 0.0489(17) 0.4565(7) 0.6917(9)
C15_2 C 0.181(2) 0.4858(11) 0.5676(12)
H19_2 H 0.1306(23) 0.5352(11) 0.5478(12)
H20_2 H 0.1345(23) 0.4513(11) 0.4952(12)
C16_2 C 0.350(2) 0.4940(12) 0.5817(18)
H21_2 H 0.4034(22) 0.4464(12) 0.6118(18)
H22_2 H 0.3668(22) 0.5082(12) 0.4980(18)
C17_2 C 0.404(2) 0.5569(9) 0.6839(15)
H23_2 H 0.5089(22) 0.5717(9) 0.6884(15)
H24_2 H 0.3386(22) 0.6016(9) 0.6600(15)
C18_2 C 0.3968(16) 0.5256(11) 0.8169(13)
H25_2 H 0.4245(16) 0.5660(11) 0.8825(13)
H26_2 H 0.4720(16) 0.4850(11) 0.8440(13)
N5_2 N 0.7820(8) 0.5304(5) 0.0657(6)
H1_2 H 0.7774(8) 0.5818(5) 0.0675(6)
C5_2 C 0.7559(12) 0.5041(7) 0.1859(9)
H3_2 H 0.8146(12) 0.4562(7) 0.1982(9)
C6_2 C 0.8424(17) 0.5457(7) 0.3030(9)
H4_2 H 0.8113(17) 0.5990(7) 0.2939(9)
H5_2 H 0.9511(17) 0.5435(7) 0.3083(9)
C7_2 C 0.819(2) 0.5142(11) 0.4324(12)
H6_2 H 0.8694(23) 0.4648(11) 0.4522(12)
H7_2 H 0.8655(23) 0.5487(11) 0.5048(12)
C8_2 C 0.650(2) 0.5060(12) 0.4183(18)
H8_2 H 0.5966(22) 0.5536(12) 0.3882(18)
H9_2 H 0.6332(22) 0.4918(12) 0.5020(18)
C9_2 C 0.596(2) 0.4431(9) 0.3161(15)
H10_2 H 0.4911(22) 0.4283(9) 0.3116(15)
H11_2 H 0.6614(22) 0.3984(9) 0.3400(15)
C10_2 C 0.6032(16) 0.4744(11) 0.1831(13)
H12_2 H 0.5755(16) 0.4340(11) 0.1175(13)
H13_2 H 0.5280(16) 0.5150(11) 0.1560(13)
Cd2 Cd 0.83206(7) 0.7500 0.65102(5)
C1_2 C 0.8796(7) 0.6446(4) 0.7688(5)
N1_2 N 0.9114(7) 0.5929(3) 0.8357(5)
C2_2 C 0.5911(8) 0.7500 0.5311(7)
N2_2 N 0.4669(9) 0.7500 0.4680(7)
N3_2 N 0.0628(9) 0.7500 0.4584(8)
H2_2 H 0.7004(8) 0.5149(5) 0.9999(6)
C11_2 C 0.8796(7) 0.8554(4) 0.7688(5)
N8_2 N 0.8559(7) 0.4049(3) 0.8568(5)
C19 C 0.9788(9) 0.7500 0.5171(7)
C20_2 C 0.1796(7) 0.8538(3) 0.2095(5)
loop_
_geom_bond_atom_site_label_1
_geom_bond_atom_site_label_2
_geom_bond_site_symmetry_1
_geom_bond_site_symmetry_2
Cd5 C3 1_555 1_555
Cd7 N1 1_555 1_555
Cd5 C1 1_555 1_555
Cd3 N2 1_555 1_555
C1 N1 1_555 1_555
C2 Cd5 1_555 1_555
N2 C2 1_555 1_555
N3 Cd3 1_555 1_555
C4 Cd3 1_555 1_555
C11 Cd5 1_555 1_555
N6 C11 1_555 1_555
Cd4 N6 1_555 1_555
C20 Cd3 1_555 1_555
N10 C4 1_555 1_555
Cd7_6 N10 1_555 1_555
N5 Cd7_2 1_555 1_555
H1 N5 1_555 1_555
C5 N5 1_555 1_555
C6 C5 1_555 1_555
H4 C6 1_555 1_555
H5 C6 1_555 1_555
C7 C6 1_555 1_555
H7 C7 1_555 1_555
C8 C7 1_555 1_555
H8 C8 1_555 1_555
N8 Cd7_3 1_555 1_555
H10 C9 1_555 1_555
H11 C9 1_555 1_555
H12 C10 1_555 1_555
C9 C10 1_555 1_555
H23 C17 1_555 1_555
H24 C17 1_555 1_555
H25 C18 1_555 1_555
C17 C18 1_555 1_555
N9 Cd7_7 1_555 1_555
H14 N9 1_555 1_555
C13 N9 1_555 1_555
C14 C13 1_555 1_555
H17 C14 1_555 1_555
H18 C14 1_555 1_555
C15 C14 1_555 1_555
H20 C15 1_555 1_555
C16 C15 1_555 1_555
H21 C16 1_555 1_555
N7 Cd7_8 1_555 1_555
N4 Cd4 1_555 1_555
Cd6 C12 1_555 1_555
C12 N4 1_555 1_555
N9_2 Cd4_2 1_555 1_555
H14_2 N9_2 1_555 1_555
C13_2 N9_2 1_555 1_555
H16_2 C13_2 1_555 1_555
C14_2 C13_2 1_555 1_555
H17_2 C14_2 1_555 1_555
H18_2 C14_2 1_555 1_555
C15_2 C14_2 1_555 1_555
H19_2 C15_2 1_555 1_555
H20_2 C15_2 1_555 1_555
C16_2 C15_2 1_555 1_555
H21_2 C16_2 1_555 1_555
H22_2 C16_2 1_555 1_555
C17_2 C16_2 1_555 1_555
H23_2 C17_2 1_555 1_555
H24_2 C17_2 1_555 1_555
C18_2 C13_2 1_555 1_555
H25_2 C18_2 1_555 1_555
H26_2 C18_2 1_555 1_555
C17_2 C18_2 1_555 1_555
N5_2 Cd4_3 1_555 1_555
H1_2 N5_2 1_555 1_555
C5_2 N5_2 1_555 1_555
H3_2 C5_2 1_555 1_555
C6_2 C5_2 1_555 1_555
H4_2 C6_2 1_555 1_555
H5_2 C6_2 1_555 1_555
C7_2 C6_2 1_555 1_555
H6_2 C7_2 1_555 1_555
H7_2 C7_2 1_555 1_555
C8_2 C7_2 1_555 1_555
H8_2 C8_2 1_555 1_555
H9_2 C8_2 1_555 1_555
C9_2 C8_2 1_555 1_555
H10_2 C9_2 1_555 1_555
H11_2 C9_2 1_555 1_555
C10_2 C5_2 1_555 1_555
H12_2 C10_2 1_555 1_555
H13_2 C10_2 1_555 1_555
C9_2 C10_2 1_555 1_555
Cd4_4 N1_2 1_555 1_555
Cd2 C1_2 1_555 1_555
Cd6 N2_2 1_555 1_555
C1_2 N1_2 1_555 1_555
C2_2 Cd2 1_555 1_555
N2_2 C2_2 1_555 1_555
N3_2 Cd6 1_555 1_555
C11_2 Cd2 1_555 1_555
N7 C11_2 1_555 1_555
N8_2 Cd4_4 1_555 1_555
C19 Cd2 1_555 1_555
C20_2 Cd6 1_555 1_555
C20_2 N8 1_555 1_555
N8_2 C20 1_555 1_555

#END
