
###############################################################################
#
# This file contains modified crystal structure data generated from the
# MOF subset of the Cambridge Structural Database (CSD) v543 
# hosted by the Cambridge Crystallographic Data Centre (CCDC).
#
# This work is licensed under the Creative Commons
# Attribution-NonCommercial-ShareAlike 4.0 International License.
# To view a copy of this license, visit
# http://creativecommons.org/licenses/by-nc-sa/4.0/
# or send a letter to
# Creative Commons, PO Box 1866, Mountain View, CA 94042, USA.
#
# CIF created using the CSD Python API on 29 September 2022
# The structure has been converted into the P1 space group
# The structure has a 3D framework
# The original CSD entry HOFMAS is in the monoclinic crystal system
# The framework has been calculated to contain at least 10.0% void space
# The void calculation uses a probe of radius 1.32A, grid spacing 0.4
#
###############################################################################

data_HOFMAS
_chemical_formula_moiety         '(C136 H136 N40 O32 Zn8)n'
_symmetry_cell_setting           triclinic
_symmetry_space_group_name_H-M   'P 1'
_symmetry_Int_Tables_number      1
_space_group_name_Hall           'P 1'
loop_
_symmetry_equiv_pos_site_id
_symmetry_equiv_pos_as_xyz
1 x,y,z
_cell_length_a                   19.6850(18)
_cell_length_b                   14.3320(12)
_cell_length_c                   16.9300(15)
_cell_angle_alpha                90
_cell_angle_beta                 121.205(2)
_cell_angle_gamma                90
_cell_volume                     4085.33
loop_
_atom_site_label
_atom_site_type_symbol
_atom_site_fract_x
_atom_site_fract_y
_atom_site_fract_z
N9 N 0.6430(4) 0.4329(4) 0.0207(5)
H26 H 0.6011 0.3011 0.0067
Zn2 Zn 0.75678(5) 0.43239(5) 0.13193(6)
N10 N 0.7567(3) 0.4947(4) 0.2439(4)
O5 O 0.7606(3) 0.5795(3) 0.1074(4)
O6 O 0.7639(4) 0.7192(4) 0.1643(5)
O7 O 0.6435(4) 0.7644(4) 0.2142(4)
O8 O 0.7587(3) 0.7960(3) 0.3450(4)
C28 C 0.7580(5) 0.6352(6) 0.1636(6)
C29 C 0.7097(5) 0.7412(5) 0.2827(6)
C30 C 0.7492(4) 0.5849(4) 0.2371(5)
C31 C 0.7312(4) 0.6391(5) 0.2969(5)
C32 C 0.7331(5) 0.5903(6) 0.3684(5)
H32 H 0.7259 0.6219 0.4115
C33 C 0.7455(4) 0.4960(5) 0.3766(5)
H33 H 0.7464 0.4646 0.4253
C34 C 0.7564(5) 0.4470(5) 0.3151(5)
H34 H 0.7635 0.3827 0.3207
Zn3 Zn 0.74322(5) 0.93239(5) 0.36807(6)
N11 N 0.8556(4) 0.4184(4) 0.1239(5)
O9 O 0.7413(3) 0.2960(3) 0.1550(4)
N6 N 0.0353(5) 0.5444(6) 0.8728(5)
N7 N 0.1444(4) 0.5816(4) 0.8761(5)
C18 C 0.1005(5) 0.5123(7) 0.8775(6)
H18 H 0.1137 0.4495 0.8814
C19 C 0.1049(6) 0.6608(7) 0.8715(7)
H19 H 0.1216 0.7210 0.8692
C20 C 0.0380(6) 0.6395(8) 0.8707(7)
H20 H 0.0011 0.6811 0.8691
Zn5 Zn 0.24322(5) 0.56761(5) 0.86807(6)
N2 N 0.9647(5) 0.4556(6) 0.1272(5)
C8 C 0.8995(5) 0.4877(7) 0.1225(6)
H4 H 0.8863 0.5505 0.1186
C9 C 0.8951(6) 0.3392(7) 0.1285(7)
H5 H 0.8784 0.2790 0.1308
C10 C 0.9620(6) 0.3605(8) 0.1293(7)
H6 H 0.9989 0.3189 0.1309
O1 O 0.7394(3) 0.0795(3) 0.3926(4)
O2 O 0.7361(4) 0.2192(4) 0.3357(5)
O3 O 0.8565(4) 0.2644(4) 0.2858(4)
C1 C 0.7420(5) 0.1352(6) 0.3364(6)
C2 C 0.7903(5) 0.2412(5) 0.2173(6)
C3 C 0.7508(4) 0.0849(4) 0.2629(5)
C4 C 0.7688(4) 0.1391(5) 0.2031(5)
C5 C 0.7669(5) 0.0903(6) 0.1316(5)
H1 H 0.7741 0.1219 0.0885
H4_2 H 0.6137 0.0505 0.3814
C11 C 0.4739(6) 0.0138(8) 0.3730(7)
H7 H 0.4233 0.0011 0.3172
H8 H 0.4866 0.0789 0.3714
H9 H 0.4284 0.0445 0.4528
C13 C 0.8968(5) 0.0070(6) 0.5263(6)
H11 H 0.8753 0.0666 0.5171
N6_2 N 0.4647(5) 0.0444(6) 0.6272(5)
N7_2 N 0.3556(4) 0.0816(4) 0.6239(5)
C18_2 C 0.3995(5) 0.0123(7) 0.6225(6)
C19_2 C 0.3951(6) 0.1608(7) 0.6285(7)
H19_2 H 0.3784 0.2210 0.6308
C20_2 C 0.4620(6) 0.1395(8) 0.6293(7)
H20_2 H 0.4989 0.1811 0.6309
C22 C 0.5346(6) 0.0017(9) 0.5449(7)
H24 H 0.5591 0.0624 0.5520
C26 C 0.9697(6) 0.0508(8) 0.8427(7)
H28 H 0.9869 0.1143 0.8632
H29 H 0.9187 0.0418 0.8375
C27 C 0.9606(5) 0.0365(8) 0.7485(7)
H30 H 0.9272 0.0857 0.7072
Zn5_2 Zn 0.25678(5) 0.06761(5) 0.63193(6)
N1 N 0.7433(3) 0.9947(4) 0.2561(4)
N2_2 N 0.5353(5) 0.9556(6) 0.3728(5)
N3 N 0.6444(4) 0.9184(4) 0.3761(5)
N4 N 0.9724(4) 0.9856(6) 0.5891(5)
N5 N 0.8570(4) 0.9329(4) 0.4793(5)
C6 C 0.7545(4) 0.9960(5) 0.1234(5)
H2 H 0.7536 0.9646 0.0747
C7 C 0.7436(5) 0.9470(5) 0.1849(5)
H3 H 0.7365 0.8827 0.1793
C8_2 C 0.6005(5) 0.9877(7) 0.3775(6)
C9_2 C 0.6049(6) 0.8392(7) 0.3715(7)
H5_2 H 0.6216 0.7790 0.3692
C10_2 C 0.5380(6) 0.8605(8) 0.3707(7)
H6_2 H 0.5011 0.8189 0.3691
C12 C 0.4654(6) 0.9983(9) 0.4551(7)
H10 H 0.4409 0.9376 0.4480
C14 C 0.9097(6) 0.8623(7) 0.5145(6)
H12 H 0.8989 0.8011 0.4933
C15 C 0.9803(6) 0.8926(8) 0.5847(7)
H18_2 H 0.3863 0.9495 0.6186
C21 C 0.5261(6) 0.9862(8) 0.6270(7)
H21 H 0.5767 0.9989 0.6828
H22 H 0.5134 0.9211 0.6286
H23 H 0.5716 0.9555 0.5472
H27 H 0.9748 0.8568 0.8777
H31 H 0.9339 0.9775 0.7231
N9_2 N 0.3570(4) 0.5671(4) 0.9793(5)
H26_2 H 0.3989 0.6989 0.9933
N10_2 N 0.2433(3) 0.5053(4) 0.7561(4)
O5_2 O 0.2394(3) 0.4205(3) 0.8926(4)
O6_2 O 0.2361(4) 0.2808(4) 0.8357(5)
O7_2 O 0.3565(4) 0.2356(4) 0.7858(4)
O8_2 O 0.2413(3) 0.2040(3) 0.6550(4)
C28_2 C 0.2420(5) 0.3648(6) 0.8364(6)
C29_2 C 0.2903(5) 0.2588(5) 0.7173(6)
C30_2 C 0.2508(4) 0.4151(4) 0.7629(5)
C31_2 C 0.2688(4) 0.3609(5) 0.7031(5)
C32_2 C 0.2669(5) 0.4097(6) 0.6316(5)
H32_2 H 0.2741 0.3781 0.5885
C33_2 C 0.2545(4) 0.5040(5) 0.6234(5)
H33_2 H 0.2536 0.5354 0.5747
C34_2 C 0.2436(5) 0.5530(5) 0.6849(5)
H34_2 H 0.2365 0.6173 0.6793
O9_2 O 0.2587(3) 0.7040(3) 0.8450(4)
N1_2 N 0.2567(3) 0.0053(4) 0.7439(4)
N4_2 N 0.0276(4) 0.0144(6) 0.4109(5)
N5_2 N 0.1430(4) 0.0671(4) 0.5207(5)
C6_2 C 0.2455(4) 0.0040(5) 0.8766(5)
H2_2 H 0.2464 0.0354 0.9253
C7_2 C 0.2564(5) 0.0530(5) 0.8151(5)
H3_2 H 0.2635 0.1173 0.8207
C14_2 C 0.0903(6) 0.1377(7) 0.4855(6)
H12_2 H 0.1011 0.1989 0.5067
C15_2 C 0.0197(6) 0.1074(8) 0.4153(7)
H27_2 H 0.0252 0.1432 0.1223
H31_2 H 0.0661 0.0225 0.2769
O1_2 O 0.2606(3) 0.9205(3) 0.6074(4)
O2_2 O 0.2639(4) 0.7808(4) 0.6643(5)
O3_2 O 0.1435(4) 0.7356(4) 0.7142(4)
C1_2 C 0.2580(5) 0.8648(6) 0.6636(6)
C2_2 C 0.2097(5) 0.7588(5) 0.7827(6)
C3_2 C 0.2492(4) 0.9151(4) 0.7371(5)
C4_2 C 0.2312(4) 0.8609(5) 0.7969(5)
C5_2 C 0.2331(5) 0.9097(6) 0.8684(5)
H1_2 H 0.2259 0.8781 0.9115
C13_2 C 0.1032(5) 0.9930(6) 0.4737(6)
H11_2 H 0.1247 0.9334 0.4829
C26_2 C 0.0303(6) 0.9492(8) 0.1573(7)
H28_2 H 0.0131 0.8857 0.1368
H29_2 H 0.0813 0.9582 0.1625
C27_2 C 0.0394(5) 0.9635(8) 0.2515(7)
H30_2 H 0.0728 0.9143 0.2928
Zn1 Zn 0.24322(5) 0.43239(5) 0.36807(6)
N1_3 N 0.2433(3) 0.4947(4) 0.2561(4)
N2_3 N 0.0353(5) 0.4556(6) 0.3728(5)
N3_2 N 0.1444(4) 0.4184(4) 0.3761(5)
N4_3 N 0.4724(4) 0.4856(6) 0.5891(5)
N5_3 N 0.3570(4) 0.4329(4) 0.4793(5)
O1_3 O 0.2394(3) 0.5795(3) 0.3926(4)
O2_3 O 0.2361(4) 0.7192(4) 0.3357(5)
O3_3 O 0.3565(4) 0.7644(4) 0.2858(4)
O4 O 0.2413(3) 0.7960(3) 0.1550(4)
C1_3 C 0.2420(5) 0.6352(6) 0.3364(6)
C2_3 C 0.2903(5) 0.7412(5) 0.2173(6)
C3_3 C 0.2508(4) 0.5849(4) 0.2629(5)
C4_3 C 0.2688(4) 0.6391(5) 0.2031(5)
C5_3 C 0.2669(5) 0.5903(6) 0.1316(5)
H1_3 H 0.2741 0.6219 0.0885
C6_3 C 0.2545(4) 0.4960(5) 0.1234(5)
H2_3 H 0.2536 0.4646 0.0747
C7_3 C 0.2436(5) 0.4470(5) 0.1849(5)
H3_3 H 0.2365 0.3827 0.1793
C8_3 C 0.1005(5) 0.4877(7) 0.3775(6)
H4_3 H 0.1137 0.5505 0.3814
C9_3 C 0.1049(6) 0.3392(7) 0.3715(7)
H5_3 H 0.1216 0.2790 0.3692
C10_3 C 0.0380(6) 0.3605(8) 0.3707(7)
H6_3 H 0.0011 0.3189 0.3691
C13_3 C 0.3968(5) 0.5070(6) 0.5263(6)
H11_3 H 0.3753 0.5666 0.5171
C14_3 C 0.4097(6) 0.3623(7) 0.5145(6)
H12_3 H 0.3989 0.3011 0.4933
C15_3 C 0.4803(6) 0.3926(8) 0.5847(7)
H13 H 0.5252 0.3568 0.6223
C16 C 0.5303(6) 0.5508(8) 0.6573(7)
H14 H 0.5131 0.6143 0.6368
H15 H 0.5813 0.5418 0.6625
C17 C 0.5394(5) 0.5365(8) 0.7515(7)
H16 H 0.5728 0.5857 0.7928
H17 H 0.5661 0.4775 0.7769
C21_2 C 0.0261(6) 0.4862(8) 0.6270(7)
H21_2 H 0.0767 0.4989 0.6828
H22_2 H 0.0134 0.4211 0.6286
C22_2 C 0.0346(6) 0.5017(9) 0.5449(7)
H23_2 H 0.0716 0.4555 0.5472
H24_2 H 0.0591 0.5624 0.5520
N8 N 0.5276(4) 0.4856(6) 0.9109(5)
C23 C 0.6032(5) 0.5070(6) 0.9737(6)
H25 H 0.6247 0.5666 0.9829
C24 C 0.5903(6) 0.3623(7) 0.9855(6)
C25 C 0.5197(6) 0.3926(8) 0.9153(7)
H27_3 H 0.4748 0.3568 0.8777
C26_3 C 0.4697(6) 0.5508(8) 0.8427(7)
H28_3 H 0.4869 0.6143 0.8632
H29_3 H 0.4187 0.5418 0.8375
C27_3 C 0.4606(5) 0.5365(8) 0.7485(7)
H30_3 H 0.4272 0.5857 0.7072
H31_3 H 0.4339 0.4775 0.7231
Zn4 Zn 0.25678(5) 0.93239(5) 0.13193(6)
O10 O 0.2587(3) 0.2960(3) 0.3450(4)
C21_3 C 0.9739(6) 0.4862(8) 0.8730(7)
H21_3 H 0.9233 0.4989 0.8172
H22_3 H 0.9866 0.4211 0.8714
C22_3 C 0.9654(6) 0.5017(9) 0.9551(7)
H23_3 H 0.9284 0.4555 0.9528
H24_3 H 0.9409 0.5624 0.9480
O5_3 O 0.2606(3) 0.0795(3) 0.1074(4)
O6_3 O 0.2639(4) 0.2192(4) 0.1643(5)
O7_3 O 0.1435(4) 0.2644(4) 0.2142(4)
C28_3 C 0.2580(5) 0.1352(6) 0.1636(6)
C29_3 C 0.2097(5) 0.2412(5) 0.2827(6)
C30_3 C 0.2492(4) 0.0849(4) 0.2371(5)
C31_3 C 0.2312(4) 0.1391(5) 0.2969(5)
C32_3 C 0.2331(5) 0.0903(6) 0.3684(5)
H32_3 H 0.2259 0.1219 0.4115
N9_3 N 0.1430(4) 0.9329(4) 0.0207(5)
H26_3 H 0.1011 0.8011 0.0067
N10_3 N 0.2567(3) 0.9947(4) 0.2439(4)
C33_3 C 0.2455(4) 0.9960(5) 0.3766(5)
H33_3 H 0.2464 0.9646 0.4253
C34_3 C 0.2564(5) 0.9470(5) 0.3151(5)
H34_3 H 0.2635 0.8827 0.3207
N11_2 N 0.3556(4) 0.9184(4) 0.1239(5)
H4_4 H 0.3863 0.0505 0.1186
C11_2 C 0.5261(6) 0.0138(8) 0.1270(7)
H7_2 H 0.5767 0.0011 0.1828
H8_2 H 0.5134 0.0789 0.1286
H9_2 H 0.5716 0.0445 0.0472
N2_4 N 0.4647(5) 0.9556(6) 0.1272(5)
C8_4 C 0.3995(5) 0.9877(7) 0.1225(6)
C9_4 C 0.3951(6) 0.8392(7) 0.1285(7)
H5_4 H 0.3784 0.7790 0.1308
C10_4 C 0.4620(6) 0.8605(8) 0.1293(7)
H6_4 H 0.4989 0.8189 0.1309
C12_2 C 0.5346(6) 0.9983(9) 0.0449(7)
H10_2 H 0.5591 0.9376 0.0520
H13_2 H 0.9748 0.1432 0.3777
H17_2 H 0.9339 0.0225 0.2231
N8_2 N 0.9724(4) 0.0144(6) 0.0891(5)
C24_2 C 0.9097(6) 0.1377(7) 0.0145(6)
C25_2 C 0.9803(6) 0.1074(8) 0.0847(7)
C16_2 C 0.9697(6) 0.9492(8) 0.3427(7)
H14_2 H 0.9869 0.8857 0.3632
H15_2 H 0.9187 0.9582 0.3375
C17_2 C 0.9606(5) 0.9635(8) 0.2485(7)
H16_2 H 0.9272 0.9143 0.2072
C23_2 C 0.8968(5) 0.9930(6) 0.0263(6)
H25_2 H 0.8753 0.9334 0.0171
C11_3 C 0.9739(6) 0.5138(8) 0.3730(7)
H7_3 H 0.9233 0.5011 0.3172
H8_3 H 0.9866 0.5789 0.3714
C12_3 C 0.9654(6) 0.4983(9) 0.4551(7)
H9_3 H 0.9284 0.5445 0.4528
H10_3 H 0.9409 0.4376 0.4480
N6_3 N 0.9647(5) 0.5444(6) 0.6272(5)
N7_3 N 0.8556(4) 0.5816(4) 0.6239(5)
C18_3 C 0.8995(5) 0.5123(7) 0.6225(6)
H18_3 H 0.8863 0.4495 0.6186
C19_3 C 0.8951(6) 0.6608(7) 0.6285(7)
H19_3 H 0.8784 0.7210 0.6308
C20_3 C 0.9620(6) 0.6395(8) 0.6293(7)
H20_3 H 0.9989 0.6811 0.6309
Zn5_3 Zn 0.75678(5) 0.56761(5) 0.63193(6)
C11_4 C 0.0261(6) 0.5138(8) 0.1270(7)
H7_4 H 0.0767 0.5011 0.1828
H8_4 H 0.0134 0.5789 0.1286
C12_4 C 0.0346(6) 0.4983(9) 0.0449(7)
H9_4 H 0.0716 0.5445 0.0472
H10_4 H 0.0591 0.4376 0.0520
C16_3 C 0.0303(6) 0.0508(8) 0.6573(7)
H14_3 H 0.0131 0.1143 0.6368
H15_3 H 0.0813 0.0418 0.6625
C17_3 C 0.0394(5) 0.0365(8) 0.7515(7)
H16_3 H 0.0728 0.0857 0.7928
C23_3 C 0.1032(5) 0.0070(6) 0.9737(6)
H25_3 H 0.1247 0.0666 0.9829
H13_3 H 0.0252 0.8568 0.6223
H17_3 H 0.0661 0.9775 0.7769
N8_3 N 0.0276(4) 0.9856(6) 0.9109(5)
C24_3 C 0.0903(6) 0.8623(7) 0.9855(6)
C25_3 C 0.0197(6) 0.8926(8) 0.9153(7)
N6_4 N 0.5353(5) 0.0444(6) 0.8728(5)
N7_4 N 0.6444(4) 0.0816(4) 0.8761(5)
C18_4 C 0.6005(5) 0.0123(7) 0.8775(6)
C19_4 C 0.6049(6) 0.1608(7) 0.8715(7)
H19_4 H 0.6216 0.2210 0.8692
C20_4 C 0.5380(6) 0.1395(8) 0.8707(7)
H20_4 H 0.5011 0.1811 0.8691
C22_4 C 0.4654(6) 0.0017(9) 0.9551(7)
H24_4 H 0.4409 0.0624 0.9480
Zn5_4 Zn 0.74322(5) 0.06761(5) 0.86807(6)
H18_4 H 0.6137 0.9495 0.8814
C21_4 C 0.4739(6) 0.9862(8) 0.8730(7)
H21_4 H 0.4233 0.9989 0.8172
H22_4 H 0.4866 0.9211 0.8714
H23_4 H 0.4284 0.9555 0.9528
N1_4 N 0.7567(3) 0.5053(4) 0.7439(4)
N4_4 N 0.5276(4) 0.5144(6) 0.4109(5)
N5_4 N 0.6430(4) 0.5671(4) 0.5207(5)
O1_4 O 0.7606(3) 0.4205(3) 0.6074(4)
O2_4 O 0.7639(4) 0.2808(4) 0.6643(5)
O3_4 O 0.6435(4) 0.2356(4) 0.7142(4)
O4_2 O 0.7587(3) 0.2040(3) 0.8450(4)
C1_4 C 0.7580(5) 0.3648(6) 0.6636(6)
C2_4 C 0.7097(5) 0.2588(5) 0.7827(6)
C3_4 C 0.7492(4) 0.4151(4) 0.7371(5)
C4_4 C 0.7312(4) 0.3609(5) 0.7969(5)
C5_4 C 0.7331(5) 0.4097(6) 0.8684(5)
H1_4 H 0.7259 0.3781 0.9115
C6_4 C 0.7455(4) 0.5040(5) 0.8766(5)
H2_4 H 0.7464 0.5354 0.9253
C7_4 C 0.7564(5) 0.5530(5) 0.8151(5)
H3_4 H 0.7635 0.6173 0.8207
C13_4 C 0.6032(5) 0.4930(6) 0.4737(6)
H11_4 H 0.6247 0.4334 0.4829
C14_4 C 0.5903(6) 0.6377(7) 0.4855(6)
H12_4 H 0.6011 0.6989 0.5067
C15_4 C 0.5197(6) 0.6074(8) 0.4153(7)
H13_4 H 0.4748 0.6432 0.3777
C16_4 C 0.4697(6) 0.4492(8) 0.3427(7)
H14_4 H 0.4869 0.3857 0.3632
H15_4 H 0.4187 0.4582 0.3375
C17_4 C 0.4606(5) 0.4635(8) 0.2485(7)
H16_4 H 0.4272 0.4143 0.2072
H17_4 H 0.4339 0.5225 0.2231
N8_4 N 0.4724(4) 0.5144(6) 0.0891(5)
C23_4 C 0.3968(5) 0.4930(6) 0.0263(6)
H25_4 H 0.3753 0.4334 0.0171
C24_4 C 0.4097(6) 0.6377(7) 0.0145(6)
C25_4 C 0.4803(6) 0.6074(8) 0.0847(7)
H27_4 H 0.5252 0.6432 0.1223
C26_4 C 0.5303(6) 0.4492(8) 0.1573(7)
H28_4 H 0.5131 0.3857 0.1368
H29_4 H 0.5813 0.4582 0.1625
C27_4 C 0.5394(5) 0.4635(8) 0.2515(7)
H30_4 H 0.5728 0.4143 0.2928
H31_4 H 0.5661 0.5225 0.2769
O10_2 O 0.7413(3) 0.7040(3) 0.6550(4)
N9_4 N 0.8570(4) 0.0671(4) 0.9793(5)
H26_4 H 0.8989 0.1989 0.9933
N10_4 N 0.7433(3) 0.0053(4) 0.7561(4)
C33_4 C 0.7545(4) 0.0040(5) 0.6234(5)
H33_4 H 0.7536 0.0354 0.5747
C34_4 C 0.7436(5) 0.0530(5) 0.6849(5)
H34_4 H 0.7365 0.1173 0.6793
O5_4 O 0.7394(3) 0.9205(3) 0.8926(4)
O6_4 O 0.7361(4) 0.7808(4) 0.8357(5)
O7_4 O 0.8565(4) 0.7356(4) 0.7858(4)
C28_4 C 0.7420(5) 0.8648(6) 0.8364(6)
C29_4 C 0.7903(5) 0.7588(5) 0.7173(6)
C30_4 C 0.7508(4) 0.9151(4) 0.7629(5)
C31_4 C 0.7688(4) 0.8609(5) 0.7031(5)
C32_4 C 0.7669(5) 0.9097(6) 0.6316(5)
H32_4 H 0.7741 0.8781 0.5885
loop_
_geom_bond_atom_site_label_1
_geom_bond_atom_site_label_2
_geom_bond_site_symmetry_1
_geom_bond_site_symmetry_2
Zn2 N9 1_555 1_555
N10 Zn2 1_555 1_555
O5 Zn2 1_555 1_555
O6 C28 1_555 1_555
O7 C29 1_555 1_555
O8 C29 1_555 1_555
C28 O5 1_555 1_555
C29 C31 1_555 1_555
C30 N10 1_555 1_555
C31 C30 1_555 1_555
C32 C31 1_555 1_555
H32 C32 1_555 1_555
C33 C32 1_555 1_555
H33 C33 1_555 1_555
C34 N10 1_555 1_555
H34 C34 1_555 1_555
Zn3 O8 1_555 1_555
N11 Zn2 1_555 1_555
O9 Zn2 1_555 1_555
C28 C30 1_555 1_555
C33 C34 1_555 1_555
N6 C18 1_555 1_555
N7 C18 1_555 1_555
C18 H18 1_555 1_555
C19 N7 1_555 1_555
H19 C19 1_555 1_555
C20 N6 1_555 1_555
H20 C20 1_555 1_555
Zn5 N7 1_555 1_555
C19 C20 1_555 1_555
N2 C8 1_555 1_555
C8 N11 1_555 1_555
H4 C8 1_555 1_555
C9 N11 1_555 1_555
H5 C9 1_555 1_555
C10 N2 1_555 1_555
H6 C10 1_555 1_555
C9 C10 1_555 1_555
O2 C1 1_555 1_555
O3 C2 1_555 1_555
O9 C2 1_555 1_555
C1 O1 1_555 1_555
C2 C4 1_555 1_555
C3 C1 1_555 1_555
C4 C3 1_555 1_555
C5 C4 1_555 1_555
H1 C5 1_555 1_555
H7 C11 1_555 1_555
H8 C11 1_555 1_555
H11 C13 1_555 1_555
N6_2 C18_2 1_555 1_555
N7_2 C18_2 1_555 1_555
C19_2 N7_2 1_555 1_555
H19_2 C19_2 1_555 1_555
C20_2 N6_2 1_555 1_555
H20_2 C20_2 1_555 1_555
H24 C22 1_555 1_555
H28 C26 1_555 1_555
H29 C26 1_555 1_555
H30 C27 1_555 1_555
Zn5_2 N7_2 1_555 1_555
C19_2 C20_2 1_555 1_555
C26 C27 1_555 1_555
Zn3 N1 1_555 1_555
N2_2 C8_2 1_555 1_555
N3 Zn3 1_555 1_555
N5 Zn3 1_555 1_555
H2 C6 1_555 1_555
C7 N1 1_555 1_555
H3 C7 1_555 1_555
C8_2 N3 1_555 1_555
C9_2 N3 1_555 1_555
H5_2 C9_2 1_555 1_555
C10_2 N2_2 1_555 1_555
H6_2 C10_2 1_555 1_555
H10 C12 1_555 1_555
C14 N5 1_555 1_555
H12 C14 1_555 1_555
C15 N4 1_555 1_555
H21 C21 1_555 1_555
H22 C21 1_555 1_555
C6 C7 1_555 1_555
C9_2 C10_2 1_555 1_555
C14 C15 1_555 1_555
Zn5 N9_2 1_555 1_555
N10_2 Zn5 1_555 1_555
O5_2 Zn5 1_555 1_555
O6_2 C28_2 1_555 1_555
O7_2 C29_2 1_555 1_555
O8_2 C29_2 1_555 1_555
C28_2 O5_2 1_555 1_555
C29_2 C31_2 1_555 1_555
C30_2 N10_2 1_555 1_555
C31_2 C30_2 1_555 1_555
C32_2 C31_2 1_555 1_555
H32_2 C32_2 1_555 1_555
C33_2 C32_2 1_555 1_555
H33_2 C33_2 1_555 1_555
C34_2 N10_2 1_555 1_555
H34_2 C34_2 1_555 1_555
Zn5_2 O8_2 1_555 1_555
O9_2 Zn5 1_555 1_555
C28_2 C30_2 1_555 1_555
C33_2 C34_2 1_555 1_555
Zn5_2 N1_2 1_555 1_555
N5_2 Zn5_2 1_555 1_555
H2_2 C6_2 1_555 1_555
C7_2 N1_2 1_555 1_555
H3_2 C7_2 1_555 1_555
C14_2 N5_2 1_555 1_555
H12_2 C14_2 1_555 1_555
C15_2 N4_2 1_555 1_555
C6_2 C7_2 1_555 1_555
C14_2 C15_2 1_555 1_555
O2_2 C1_2 1_555 1_555
O3_2 C2_2 1_555 1_555
O9_2 C2_2 1_555 1_555
C1_2 O1_2 1_555 1_555
C2_2 C4_2 1_555 1_555
C3_2 C1_2 1_555 1_555
C4_2 C3_2 1_555 1_555
C5_2 C4_2 1_555 1_555
H1_2 C5_2 1_555 1_555
H11_2 C13_2 1_555 1_555
H28_2 C26_2 1_555 1_555
H29_2 C26_2 1_555 1_555
H30_2 C27_2 1_555 1_555
C26_2 C27_2 1_555 1_555
Zn1 N1_3 1_555 1_555
N1_3 C3_3 1_555 1_555
N2_3 C8_3 1_555 1_555
N3_2 Zn1 1_555 1_555
N4_3 C13_3 1_555 1_555
N5_3 Zn1 1_555 1_555
O1_3 Zn1 1_555 1_555
O2_3 C1_3 1_555 1_555
O3_3 C2_3 1_555 1_555
O4 C2_3 1_555 1_555
C1_3 O1_3 1_555 1_555
C2_3 C4_3 1_555 1_555
C3_3 C1_3 1_555 1_555
C4_3 C3_3 1_555 1_555
C5_3 C4_3 1_555 1_555
H1_3 C5_3 1_555 1_555
C6_3 C5_3 1_555 1_555
H2_3 C6_3 1_555 1_555
C7_3 N1_3 1_555 1_555
H3_3 C7_3 1_555 1_555
C8_3 N3_2 1_555 1_555
H4_3 C8_3 1_555 1_555
C9_3 N3_2 1_555 1_555
H5_3 C9_3 1_555 1_555
C10_3 N2_3 1_555 1_555
H6_3 C10_3 1_555 1_555
C13_3 N5_3 1_555 1_555
H11_3 C13_3 1_555 1_555
C14_3 N5_3 1_555 1_555
H12_3 C14_3 1_555 1_555
C15_3 N4_3 1_555 1_555
H13 C15_3 1_555 1_555
C16 N4_3 1_555 1_555
H14 C16 1_555 1_555
H15 C16 1_555 1_555
C17 C16 1_555 1_555
H16 C17 1_555 1_555
H17 C17 1_555 1_555
H21_2 C21_2 1_555 1_555
H22_2 C21_2 1_555 1_555
H23_2 C22_2 1_555 1_555
H24_2 C22_2 1_555 1_555
N8 C23 1_555 1_555
C23 H25 1_555 1_555
C25 N8 1_555 1_555
H27_3 C25 1_555 1_555
C26_3 N8 1_555 1_555
H28_3 C26_3 1_555 1_555
H29_3 C26_3 1_555 1_555
C27_3 C17 1_555 1_555
H30_3 C27_3 1_555 1_555
H31_3 C27_3 1_555 1_555
Zn4 O4 1_555 1_555
O10 Zn1 1_555 1_555
C6_3 C7_3 1_555 1_555
C9_3 C10_3 1_555 1_555
C14_3 C15_3 1_555 1_555
C21_2 C22_2 1_555 1_555
C24 C25 1_555 1_555
C26_3 C27_3 1_555 1_555
H21_3 C21_3 1_555 1_555
H22_3 C21_3 1_555 1_555
H23_3 C22_3 1_555 1_555
H24_3 C22_3 1_555 1_555
C21_3 C22_3 1_555 1_555
O6_3 C28_3 1_555 1_555
O7_3 C29_3 1_555 1_555
O10 C29_3 1_555 1_555
C28_3 O5_3 1_555 1_555
C29_3 C31_3 1_555 1_555
C31_3 C30_3 1_555 1_555
C32_3 C31_3 1_555 1_555
H32_3 C32_3 1_555 1_555
C28_3 C30_3 1_555 1_555
Zn4 N9_3 1_555 1_555
N10_3 Zn4 1_555 1_555
H33_3 C33_3 1_555 1_555
C34_3 N10_3 1_555 1_555
H34_3 C34_3 1_555 1_555
N11_2 Zn4 1_555 1_555
C33_3 C34_3 1_555 1_555
H7_2 C11_2 1_555 1_555
H8_2 C11_2 1_555 1_555
N2_4 C8_4 1_555 1_555
C8_4 N11_2 1_555 1_555
C9_4 N11_2 1_555 1_555
H5_4 C9_4 1_555 1_555
C10_4 N2_4 1_555 1_555
H6_4 C10_4 1_555 1_555
H10_2 C12_2 1_555 1_555
C9_4 C10_4 1_555 1_555
C25_2 N8_2 1_555 1_555
C24_2 C25_2 1_555 1_555
H14_2 C16_2 1_555 1_555
H15_2 C16_2 1_555 1_555
C17_2 C16_2 1_555 1_555
H16_2 C17_2 1_555 1_555
C23_2 H25_2 1_555 1_555
H7_3 C11_3 1_555 1_555
H8_3 C11_3 1_555 1_555
C12_3 C11_3 1_555 1_555
H9_3 C12_3 1_555 1_555
H10_3 C12_3 1_555 1_555
N6_3 C18_3 1_555 1_555
N7_3 C18_3 1_555 1_555
C18_3 H18_3 1_555 1_555
C19_3 N7_3 1_555 1_555
H19_3 C19_3 1_555 1_555
C20_3 N6_3 1_555 1_555
H20_3 C20_3 1_555 1_555
Zn5_3 N7_3 1_555 1_555
C19_3 C20_3 1_555 1_555
H7_4 C11_4 1_555 1_555
H8_4 C11_4 1_555 1_555
C12_4 C11_4 1_555 1_555
H9_4 C12_4 1_555 1_555
H10_4 C12_4 1_555 1_555
H14_3 C16_3 1_555 1_555
H15_3 C16_3 1_555 1_555
C17_3 C16_3 1_555 1_555
H16_3 C17_3 1_555 1_555
C23_3 H25_3 1_555 1_555
C25_3 N8_3 1_555 1_555
C24_3 C25_3 1_555 1_555
N6_4 C18_4 1_555 1_555
N7_4 C18_4 1_555 1_555
C19_4 N7_4 1_555 1_555
H19_4 C19_4 1_555 1_555
C20_4 N6_4 1_555 1_555
H20_4 C20_4 1_555 1_555
H24_4 C22_4 1_555 1_555
Zn5_4 N7_4 1_555 1_555
C19_4 C20_4 1_555 1_555
H21_4 C21_4 1_555 1_555
H22_4 C21_4 1_555 1_555
Zn5_3 N1_4 1_555 1_555
N1_4 C3_4 1_555 1_555
N4_4 C13_4 1_555 1_555
N5_4 Zn5_3 1_555 1_555
O1_4 Zn5_3 1_555 1_555
O2_4 C1_4 1_555 1_555
O3_4 C2_4 1_555 1_555
O4_2 C2_4 1_555 1_555
C1_4 O1_4 1_555 1_555
C2_4 C4_4 1_555 1_555
C3_4 C1_4 1_555 1_555
C4_4 C3_4 1_555 1_555
C5_4 C4_4 1_555 1_555
H1_4 C5_4 1_555 1_555
C6_4 C5_4 1_555 1_555
H2_4 C6_4 1_555 1_555
C7_4 N1_4 1_555 1_555
H3_4 C7_4 1_555 1_555
C13_4 N5_4 1_555 1_555
H11_4 C13_4 1_555 1_555
C14_4 N5_4 1_555 1_555
H12_4 C14_4 1_555 1_555
C15_4 N4_4 1_555 1_555
H13_4 C15_4 1_555 1_555
C16_4 N4_4 1_555 1_555
H14_4 C16_4 1_555 1_555
H15_4 C16_4 1_555 1_555
C17_4 C16_4 1_555 1_555
H16_4 C17_4 1_555 1_555
H17_4 C17_4 1_555 1_555
N8_4 C23_4 1_555 1_555
C23_4 H25_4 1_555 1_555
C25_4 N8_4 1_555 1_555
H27_4 C25_4 1_555 1_555
C26_4 N8_4 1_555 1_555
H28_4 C26_4 1_555 1_555
H29_4 C26_4 1_555 1_555
C27_4 C17_4 1_555 1_555
H30_4 C27_4 1_555 1_555
H31_4 C27_4 1_555 1_555
Zn5_4 O4_2 1_555 1_555
O10_2 Zn5_3 1_555 1_555
C6_4 C7_4 1_555 1_555
C14_4 C15_4 1_555 1_555
C24_4 C25_4 1_555 1_555
C26_4 C27_4 1_555 1_555
Zn5_4 N9_4 1_555 1_555
N10_4 Zn5_4 1_555 1_555
H33_4 C33_4 1_555 1_555
C34_4 N10_4 1_555 1_555
H34_4 C34_4 1_555 1_555
C33_4 C34_4 1_555 1_555
O6_4 C28_4 1_555 1_555
O7_4 C29_4 1_555 1_555
O10_2 C29_4 1_555 1_555
C28_4 O5_4 1_555 1_555
C29_4 C31_4 1_555 1_555
C31_4 C30_4 1_555 1_555
C32_4 C31_4 1_555 1_555
H32_4 C32_4 1_555 1_555
C28_4 C30_4 1_555 1_555

#END
