
###############################################################################
#
# This file contains modified crystal structure data generated from the
# MOF subset of the Cambridge Structural Database (CSD) v543 
# hosted by the Cambridge Crystallographic Data Centre (CCDC).
#
# This work is licensed under the Creative Commons
# Attribution-NonCommercial-ShareAlike 4.0 International License.
# To view a copy of this license, visit
# http://creativecommons.org/licenses/by-nc-sa/4.0/
# or send a letter to
# Creative Commons, PO Box 1866, Mountain View, CA 94042, USA.
#
# CIF created using the CSD Python API on 29 September 2022
# The structure has been converted into the P1 space group
# The structure has a 3D framework
# The original CSD entry HOFRIG is in the monoclinic crystal system
# The framework has been calculated to contain at least 10.0% void space
# The void calculation uses a probe of radius 1.32A, grid spacing 0.4
#
###############################################################################

data_HOFRIG
_chemical_formula_moiety         '(C128 H48 Ag34 O76 P8)n'
_symmetry_cell_setting           triclinic
_symmetry_space_group_name_H-M   'P 1'
_symmetry_Int_Tables_number      1
_space_group_name_Hall           'P 1'
loop_
_symmetry_equiv_pos_site_id
_symmetry_equiv_pos_as_xyz
1 x,y,z
_cell_length_a                   18.614(12)
_cell_length_b                   15.510(10)
_cell_length_c                   15.713(10)
_cell_angle_alpha                90
_cell_angle_beta                 120.814(6)
_cell_angle_gamma                90
_cell_volume                     3896.01
loop_
_atom_site_label
_atom_site_type_symbol
_atom_site_fract_x
_atom_site_fract_y
_atom_site_fract_z
Ag1 Ag 0.16979(7) 0.22089(4) 0.48925(5)
Ag4 Ag 0.30047(3) 0.32822(3) 0.04942(4)
Ag6 Ag -0.0000 0.21579(6) 0.2500
C1 C 0.1797(4) 0.0407(4) 0.3830(4)
C2 C 0.2450(3) 0.0894(3) 0.3723(4)
C3 C 0.3228(4) 0.1017(4) 0.4591(4)
H1 H 0.3311 0.0836 0.5199
C4 C 0.3875(4) 0.1410(4) 0.4538(4)
H2 H 0.4395 0.1481 0.5108
C5 C 0.3743(4) 0.1696(4) 0.3637(5)
H3 H 0.4179 0.1957 0.3606
C6 C 0.2973(3) 0.1600(3) 0.2780(4)
C7 C 0.2903(3) 0.1962(4) 0.1839(4)
C8 C 0.2303(3) 0.1197(3) 0.2812(4)
C9 C 0.1109(3) 0.2275(3) 0.1238(4)
C10 C 0.1445(3) 0.3006(4) 0.1864(4)
C11 C 0.1824(4) 0.2971(4) 0.2976(4)
C12 C 0.1458(4) 0.3803(4) 0.1451(5)
H4 H 0.1656 0.4288 0.1855
C13 C 0.1184(4) 0.3879(4) 0.0465(5)
H5 H 0.1226 0.4408 0.0214
C15 C 0.0770(3) 0.2391(3) 0.0220(4)
O1 O 0.1549(3) 0.0749(3) 0.4361(4)
O3 O 0.3159(3) 0.2715(3) 0.1882(3)
O4 O 0.2617(3) 0.1471(3) 0.1109(3)
O5 O 0.1212(3) 0.0501(3) 0.1020(3)
O6 O 0.0590(2) 0.1027(3) 0.2034(3)
O7 O 0.1408(3) 0.2631(3) 0.3311(3)
O8 O 0.2536(3) 0.3305(3) 0.3506(3)
P1 P 0.12329(8) 0.11730(9) 0.17292(10)
O20 O 0.0375(3) 0.1433(3) 0.5510(3)
Ag11 Ag 0.33021(7) 0.27911(4) 0.51075(5)
Ag14 Ag -0.0000 0.04751(5) 0.7500
Ag16 Ag 0.34508(3) 0.40297(3) 0.29911(4)
Ag18 Ag 0.15492(3) 0.09703(3) 0.70089(4)
Ag24 Ag 0.04629(3) 0.02040(3) 0.44788(3)
O24 O 0.3428(3) 0.4678(3) 0.1573(3)
O33 O 0.2464(3) 0.1695(3) 0.6494(3)
O37 O 0.4551(3) 0.3506(3) 0.1158(4)
C14 C 0.0842(4) 0.3177(4) 0.9832(5)
H6 H 0.0665 0.3229 0.9163
C16 C 0.0256(4) 0.1702(4) 0.9470(4)
O9 O 0.0449(3) 0.1494(3) 0.8842(4)
Ag21 Ag 0.19953(3) 0.17178(3) 0.95058(4)
O27 O 0.2383(3) 0.3529(3) 0.8891(3)
Ag2 Ag -0.0000 0.95249(5) 0.2500
Ag3 Ag 0.15492(3) 0.90297(3) 0.20089(4)
O2 O 0.1572(3) 0.9678(3) 0.3427(3)
Ag20 Ag 0.19953(3) 0.82822(3) 0.45058(4)
O26 O 0.1841(3) 0.7715(3) 0.3118(3)
O30 O 0.0590(2) 0.8973(3) 0.7034(3)
O32 O 0.2464(3) 0.8305(3) 0.1494(3)
O36 O 0.0449(3) 0.8506(3) 0.3842(4)
O39 O 0.0375(3) 0.8567(3) 0.0510(3)
Ag5 Ag 0.04629(3) 0.97960(3) 0.94788(3)
O22 O 0.1549(3) 0.9251(3) 0.9361(4)
Ag6_2 Ag 1.0000 0.21579(6) 0.2500
Ag7 Ag 0.83021(7) 0.22089(4) 0.01075(5)
Ag9 Ag 0.69953(3) 0.32822(3) 0.45058(4)
C17 C 0.8203(4) 0.0407(4) 0.1170(4)
C18 C 0.7550(3) 0.0894(3) 0.1277(4)
C19 C 0.6772(4) 0.1017(4) 0.0409(4)
C20 C 0.6125(4) 0.1410(4) 0.0462(4)
C21 C 0.6257(4) 0.1696(4) 0.1363(5)
H9 H 0.5821 0.1957 0.1394
C22 C 0.7027(3) 0.1600(3) 0.2220(4)
C23 C 0.7097(3) 0.1962(4) 0.3161(4)
C24 C 0.7697(3) 0.1197(3) 0.2188(4)
C25 C 0.8891(3) 0.2275(3) 0.3762(4)
C26 C 0.8555(3) 0.3006(4) 0.3136(4)
C27 C 0.8176(4) 0.2971(4) 0.2024(4)
C28 C 0.8542(4) 0.3803(4) 0.3549(5)
H10 H 0.8344 0.4288 0.3145
C29 C 0.8816(4) 0.3879(4) 0.4535(5)
H11 H 0.8774 0.4408 0.4786
C30 C 0.9158(4) 0.3177(4) 0.5168(5)
H12 H 0.9335 0.3229 0.5837
C31 C 0.9230(3) 0.2391(3) 0.4780(4)
C32 C 0.9744(4) 0.1702(4) 0.5530(4)
O11 O 0.8451(3) 0.0749(3) 0.0639(4)
O13 O 0.6841(3) 0.2715(3) 0.3118(3)
O14 O 0.7383(3) 0.1471(3) 0.3891(3)
O15 O 0.8788(3) 0.0501(3) 0.3980(3)
O16 O 0.9410(2) 0.1027(3) 0.2966(3)
O17 O 0.8592(3) 0.2631(3) 0.1689(3)
O18 O 0.7464(3) 0.3305(3) 0.1494(3)
O19 O 0.9551(3) 0.1494(3) 0.6158(4)
P2 P 0.87671(8) 0.11730(9) 0.32708(10)
Ag14_2 Ag 1.0000 0.04751(5) 0.7500
Ag15 Ag 0.65492(3) 0.40297(3) 0.20089(4)
Ag22 Ag 0.80047(3) 0.17178(3) 0.54942(4)
Ag23 Ag 0.95371(3) 0.02040(3) 0.05212(3)
O23 O 0.6572(3) 0.4678(3) 0.3427(3)
O28 O 0.7617(3) 0.3529(3) 0.6109(3)
O38 O 0.5449(3) 0.3506(3) 0.3842(4)
O10 O 0.9625(3) 0.1433(3) 0.9490(3)
H7 H 0.6689 0.0836 0.9801
H8 H 0.5605 0.1481 0.9892
Ag12 Ag 0.66979(7) 0.27911(4) 0.98925(5)
Ag17 Ag 0.84508(3) 0.09703(3) 0.79911(4)
O34 O 0.7536(3) 0.1695(3) 0.8506(3)
Ag2_2 Ag 1.0000 0.95249(5) 0.2500
Ag8 Ag 0.84508(3) 0.90297(3) 0.29911(4)
Ag10 Ag 0.95371(3) 0.97960(3) 0.55212(3)
O12 O 0.8428(3) 0.9678(3) 0.1573(3)
Ag19 Ag 0.80047(3) 0.82822(3) 0.04942(4)
O21 O 0.8451(3) 0.9251(3) 0.5639(4)
O25 O 0.8159(3) 0.7715(3) 0.1882(3)
O31 O 0.7536(3) 0.8305(3) 0.3506(3)
O35 O 0.9551(3) 0.8506(3) 0.1158(4)
O40 O 0.9625(3) 0.8567(3) 0.4490(3)
O29 O 0.9410(2) 0.8973(3) 0.7966(3)
Ag1_2 Ag 0.66979(7) 0.72089(4) 0.48925(5)
Ag2_3 Ag 0.5000 0.45249(5) 0.2500
Ag6_3 Ag 0.5000 0.71579(6) 0.2500
C1_2 C 0.6797(4) 0.5407(4) 0.3830(4)
C2_2 C 0.7450(3) 0.5894(3) 0.3723(4)
C3_2 C 0.8228(4) 0.6017(4) 0.4591(4)
H1_2 H 0.8311 0.5836 0.5199
C4_2 C 0.8875(4) 0.6410(4) 0.4538(4)
H2_2 H 0.9395 0.6481 0.5108
C5_2 C 0.8743(4) 0.6696(4) 0.3637(5)
H3_2 H 0.9179 0.6957 0.3606
C6_2 C 0.7973(3) 0.6600(3) 0.2780(4)
C7_2 C 0.7903(3) 0.6962(4) 0.1839(4)
C8_2 C 0.7303(3) 0.6197(3) 0.2812(4)
C9_2 C 0.6109(3) 0.7275(3) 0.1238(4)
C10_2 C 0.6445(3) 0.8006(4) 0.1864(4)
C11_2 C 0.6824(4) 0.7971(4) 0.2976(4)
C12_2 C 0.6458(4) 0.8803(4) 0.1451(5)
H4_2 H 0.6656 0.9288 0.1855
C13_2 C 0.6184(4) 0.8879(4) 0.0465(5)
H5_2 H 0.6226 0.9408 0.0214
C15_2 C 0.5770(3) 0.7391(3) 0.0220(4)
O1_2 O 0.6549(3) 0.5749(3) 0.4361(4)
O4_2 O 0.7617(3) 0.6471(3) 0.1109(3)
O5_2 O 0.6212(3) 0.5501(3) 0.1020(3)
O6_2 O 0.5590(2) 0.6027(3) 0.2034(3)
O7_2 O 0.6408(3) 0.7631(3) 0.3311(3)
P1_2 P 0.62329(8) 0.61730(9) 0.17292(10)
Ag7_2 Ag 0.33021(7) 0.72089(4) 0.01075(5)
Ag10_2 Ag 0.45371(3) 0.47960(3) 0.55212(3)
C17_2 C 0.3203(4) 0.5407(4) 0.1170(4)
C18_2 C 0.2550(3) 0.5894(3) 0.1277(4)
C19_2 C 0.1772(4) 0.6017(4) 0.0409(4)
C20_2 C 0.1125(4) 0.6410(4) 0.0462(4)
C21_2 C 0.1257(4) 0.6696(4) 0.1363(5)
H9_2 H 0.0821 0.6957 0.1394
C22_2 C 0.2027(3) 0.6600(3) 0.2220(4)
C23_2 C 0.2097(3) 0.6962(4) 0.3161(4)
C24_2 C 0.2697(3) 0.6197(3) 0.2188(4)
C25_2 C 0.3891(3) 0.7275(3) 0.3762(4)
C26_2 C 0.3555(3) 0.8006(4) 0.3136(4)
C27_2 C 0.3176(4) 0.7971(4) 0.2024(4)
C28_2 C 0.3542(4) 0.8803(4) 0.3549(5)
H10_2 H 0.3344 0.9288 0.3145
C29_2 C 0.3816(4) 0.8879(4) 0.4535(5)
H11_2 H 0.3774 0.9408 0.4786
C30_2 C 0.4158(4) 0.8177(4) 0.5168(5)
H12_2 H 0.4335 0.8229 0.5837
C31_2 C 0.4230(3) 0.7391(3) 0.4780(4)
C32_2 C 0.4744(4) 0.6702(4) 0.5530(4)
O11_2 O 0.3451(3) 0.5749(3) 0.0639(4)
O14_2 O 0.2383(3) 0.6471(3) 0.3891(3)
O15_2 O 0.3788(3) 0.5501(3) 0.3980(3)
O16_2 O 0.4410(2) 0.6027(3) 0.2966(3)
O17_2 O 0.3592(3) 0.7631(3) 0.1689(3)
O19_2 O 0.4551(3) 0.6494(3) 0.6158(4)
O20_2 O 0.5375(3) 0.6433(3) 0.5510(3)
P2_2 P 0.37671(8) 0.61730(9) 0.32708(10)
Ag11_2 Ag 0.83021(7) 0.77911(4) 0.51075(5)
Ag14_3 Ag 0.5000 0.54751(5) 0.7500
Ag18_2 Ag 0.65492(3) 0.59703(3) 0.70089(4)
Ag22_2 Ag 0.30047(3) 0.67178(3) 0.54942(4)
Ag23_2 Ag 0.45371(3) 0.52040(3) 0.05212(3)
Ag24_2 Ag 0.54629(3) 0.52040(3) 0.44788(3)
O21_2 O 0.3451(3) 0.4251(3) 0.5639(4)
O28_2 O 0.2617(3) 0.8529(3) 0.6109(3)
O30_2 O 0.5590(2) 0.3973(3) 0.7034(3)
O33_2 O 0.7464(3) 0.6695(3) 0.6494(3)
O39_2 O 0.5375(3) 0.3567(3) 0.0510(3)
O40_2 O 0.4625(3) 0.3567(3) 0.4490(3)
Ag5_2 Ag 0.54629(3) 0.47960(3) 0.94788(3)
C14_2 C 0.5842(4) 0.8177(4) 0.9832(5)
H6_2 H 0.5665 0.8229 0.9163
C16_2 C 0.5256(4) 0.6702(4) 0.9470(4)
O9_2 O 0.5449(3) 0.6494(3) 0.8842(4)
O10_2 O 0.4625(3) 0.6433(3) 0.9490(3)
H7_2 H 0.1689 0.5836 0.9801
H8_2 H 0.0605 0.6481 0.9892
Ag12_2 Ag 0.16979(7) 0.77911(4) 0.98925(5)
Ag17_2 Ag 0.34508(3) 0.59703(3) 0.79911(4)
Ag21_2 Ag 0.69953(3) 0.67178(3) 0.95058(4)
O22_2 O 0.6549(3) 0.4251(3) 0.9361(4)
O27_2 O 0.7383(3) 0.8529(3) 0.8891(3)
O29_2 O 0.4410(2) 0.3973(3) 0.7966(3)
O34_2 O 0.2536(3) 0.6695(3) 0.8506(3)
O12_2 O 0.1572(3) 0.0322(3) 0.8427(3)
O25_2 O 0.1841(3) 0.2285(3) 0.8118(3)
H7_3 H 0.3311 0.9164 0.0199
H8_3 H 0.4395 0.8519 0.0108
Ag6_4 Ag -0.0000 0.78421(6) 0.7500
C17_3 C 0.1797(4) 0.9593(4) 0.8830(4)
C18_3 C 0.2450(3) 0.9106(3) 0.8723(4)
C19_3 C 0.3228(4) 0.8983(4) 0.9591(4)
C20_3 C 0.3875(4) 0.8590(4) 0.9538(4)
C21_3 C 0.3743(4) 0.8304(4) 0.8637(5)
H9_3 H 0.4179 0.8043 0.8606
C22_3 C 0.2973(3) 0.8400(3) 0.7780(4)
C23_3 C 0.2903(3) 0.8038(4) 0.6839(4)
C24_3 C 0.2303(3) 0.8803(3) 0.7812(4)
C25_3 C 0.1109(3) 0.7725(3) 0.6238(4)
C26_3 C 0.1445(3) 0.6994(4) 0.6864(4)
C27_3 C 0.1824(4) 0.7029(4) 0.7976(4)
C28_3 C 0.1458(4) 0.6197(4) 0.6451(5)
H10_3 H 0.1656 0.5712 0.6855
C29_3 C 0.1184(4) 0.6121(4) 0.5465(5)
H11_3 H 0.1226 0.5592 0.5214
C30_3 C 0.0842(4) 0.6823(4) 0.4832(5)
H12_3 H 0.0665 0.6771 0.4163
C31_3 C 0.0770(3) 0.7609(3) 0.5220(4)
C32_3 C 0.0256(4) 0.8298(4) 0.4470(4)
O13_2 O 0.3159(3) 0.7285(3) 0.6882(3)
O15_3 O 0.1212(3) 0.9499(3) 0.6020(3)
O17_3 O 0.1408(3) 0.7369(3) 0.8311(3)
P2_3 P 0.12329(8) 0.88270(9) 0.67292(10)
O23_2 O 0.3428(3) 0.5322(3) 0.6573(3)
O2_2 O 0.8428(3) 0.0322(3) 0.6573(3)
O26_2 O 0.8159(3) 0.2285(3) 0.6882(3)
C14_3 C 0.9158(4) 0.6823(4) 0.0168(5)
H6_3 H 0.9335 0.6771 0.0837
C16_3 C 0.9744(4) 0.8298(4) 0.0530(4)
Ag6_5 Ag 1.0000 0.78421(6) 0.7500
C1_3 C 0.8203(4) 0.9593(4) 0.6170(4)
C2_3 C 0.7550(3) 0.9106(3) 0.6277(4)
C3_3 C 0.6772(4) 0.8983(4) 0.5409(4)
H1_3 H 0.6689 0.9164 0.4801
C4_3 C 0.6125(4) 0.8590(4) 0.5462(4)
H2_3 H 0.5605 0.8519 0.4892
C5_3 C 0.6257(4) 0.8304(4) 0.6363(5)
H3_3 H 0.5821 0.8043 0.6394
C6_3 C 0.7027(3) 0.8400(3) 0.7220(4)
C7_3 C 0.7097(3) 0.8038(4) 0.8161(4)
C8_3 C 0.7697(3) 0.8803(3) 0.7188(4)
C9_3 C 0.8891(3) 0.7725(3) 0.8762(4)
C10_3 C 0.8555(3) 0.6994(4) 0.8136(4)
C11_3 C 0.8176(4) 0.7029(4) 0.7024(4)
C12_3 C 0.8542(4) 0.6197(4) 0.8549(5)
H4_3 H 0.8344 0.5712 0.8145
C13_3 C 0.8816(4) 0.6121(4) 0.9535(5)
H5_3 H 0.8774 0.5592 0.9786
C15_3 C 0.9230(3) 0.7609(3) 0.9780(4)
O3_2 O 0.6841(3) 0.7285(3) 0.8118(3)
O5_3 O 0.8788(3) 0.9499(3) 0.8980(3)
O7_3 O 0.8592(3) 0.7369(3) 0.6689(3)
P1_3 P 0.87671(8) 0.88270(9) 0.82708(10)
O24_2 O 0.6572(3) 0.5322(3) 0.8427(3)
C14_4 C 0.4158(4) 0.1823(4) 0.0168(5)
H6_4 H 0.4335 0.1771 0.0837
C16_4 C 0.4744(4) 0.3298(4) 0.0530(4)
H7_4 H 0.8311 0.4164 0.0199
H8_4 H 0.9395 0.3519 0.0108
Ag6_6 Ag 0.5000 0.28421(6) 0.7500
C1_4 C 0.3203(4) 0.4593(4) 0.6170(4)
C2_4 C 0.2550(3) 0.4106(3) 0.6277(4)
C3_4 C 0.1772(4) 0.3983(4) 0.5409(4)
H1_4 H 0.1689 0.4164 0.4801
C4_4 C 0.1125(4) 0.3590(4) 0.5462(4)
H2_4 H 0.0605 0.3519 0.4892
C5_4 C 0.1257(4) 0.3304(4) 0.6363(5)
H3_4 H 0.0821 0.3043 0.6394
C6_4 C 0.2027(3) 0.3400(3) 0.7220(4)
C7_4 C 0.2097(3) 0.3038(4) 0.8161(4)
C8_4 C 0.2697(3) 0.3803(3) 0.7188(4)
C9_4 C 0.3891(3) 0.2725(3) 0.8762(4)
C10_4 C 0.3555(3) 0.1994(4) 0.8136(4)
C11_4 C 0.3176(4) 0.2029(4) 0.7024(4)
C12_4 C 0.3542(4) 0.1197(4) 0.8549(5)
H4_4 H 0.3344 0.0712 0.8145
C13_4 C 0.3816(4) 0.1121(4) 0.9535(5)
H5_4 H 0.3774 0.0592 0.9786
C15_4 C 0.4230(3) 0.2609(3) 0.9780(4)
O5_4 O 0.3788(3) 0.4499(3) 0.8980(3)
O7_4 O 0.3592(3) 0.2369(3) 0.6689(3)
P1_4 P 0.37671(8) 0.38270(9) 0.82708(10)
C17_4 C 0.6797(4) 0.4593(4) 0.8830(4)
C18_4 C 0.7450(3) 0.4106(3) 0.8723(4)
C19_4 C 0.8228(4) 0.3983(4) 0.9591(4)
C20_4 C 0.8875(4) 0.3590(4) 0.9538(4)
C21_4 C 0.8743(4) 0.3304(4) 0.8637(5)
H9_4 H 0.9179 0.3043 0.8606
C22_4 C 0.7973(3) 0.3400(3) 0.7780(4)
C23_4 C 0.7903(3) 0.3038(4) 0.6839(4)
C24_4 C 0.7303(3) 0.3803(3) 0.7812(4)
C25_4 C 0.6109(3) 0.2725(3) 0.6238(4)
C26_4 C 0.6445(3) 0.1994(4) 0.6864(4)
C27_4 C 0.6824(4) 0.2029(4) 0.7976(4)
C28_4 C 0.6458(4) 0.1197(4) 0.6451(5)
H10_4 H 0.6656 0.0712 0.6855
C29_4 C 0.6184(4) 0.1121(4) 0.5465(5)
H11_4 H 0.6226 0.0592 0.5214
C30_4 C 0.5842(4) 0.1823(4) 0.4832(5)
H12_4 H 0.5665 0.1771 0.4163
C31_4 C 0.5770(3) 0.2609(3) 0.5220(4)
C32_4 C 0.5256(4) 0.3298(4) 0.4470(4)
O15_4 O 0.6212(3) 0.4499(3) 0.6020(3)
O17_4 O 0.6408(3) 0.2369(3) 0.8311(3)
P2_4 P 0.62329(8) 0.38270(9) 0.67292(10)
loop_
_geom_bond_atom_site_label_1
_geom_bond_atom_site_label_2
_geom_bond_site_symmetry_1
_geom_bond_site_symmetry_2
Ag1 O1 1_555 1_555
Ag4 O3 1_555 1_555
Ag6 O6 1_555 1_555
C1 C2 1_555 1_555
C2 C3 1_555 1_555
C3 H1 1_555 1_555
C4 C3 1_555 1_555
H2 C4 1_555 1_555
C5 C4 1_555 1_555
H3 C5 1_555 1_555
C6 C5 1_555 1_555
C7 C6 1_555 1_555
C8 C2 1_555 1_555
C9 C10 1_555 1_555
C10 C11 1_555 1_555
C11 O7 1_555 1_555
C12 C10 1_555 1_555
H4 C12 1_555 1_555
C13 C12 1_555 1_555
H5 C13 1_555 1_555
C15 C9 1_555 1_555
O1 C1 1_555 1_555
O3 C7 1_555 1_555
O4 C7 1_555 1_555
O6 P1 1_555 1_555
O7 Ag1 1_555 1_555
O8 C11 1_555 1_555
P1 C8 1_555 1_555
Ag11 O8 1_555 1_555
Ag16 O3 1_555 1_555
Ag18 O20 1_555 1_555
Ag24 O1 1_555 1_555
O24 Ag4 1_555 1_555
O33 Ag1 1_555 1_555
O37 Ag4 1_555 1_555
Ag6 O7 1_555 1_555
C6 C8 1_555 1_555
C9 P1 1_555 1_555
O5 P1 1_555 1_555
O8 Ag16 1_555 1_555
O20 Ag24 1_555 1_555
Ag16 O24 1_555 1_555
Ag18 O33 1_555 1_555
H6 C14 1_555 1_555
O9 C16 1_555 1_555
Ag14 O9 1_555 1_555
O9 Ag21 1_555 1_555
Ag2 O2 1_555 1_555
Ag3 O2 1_555 1_555
Ag20 O2 1_555 1_555
O26 Ag3 1_555 1_555
O32 Ag3 1_555 1_555
O36 Ag2 1_555 1_555
O39 Ag3 1_555 1_555
Ag20 O26 1_555 1_555
Ag20 O36 1_555 1_555
O22 Ag5 1_555 1_555
Ag7 O11 1_555 1_555
Ag9 O13 1_555 1_555
C17 C18 1_555 1_555
C18 C19 1_555 1_555
C20 C19 1_555 1_555
C21 C20 1_555 1_555
H9 C21 1_555 1_555
C22 C21 1_555 1_555
C23 C22 1_555 1_555
C24 C18 1_555 1_555
C25 C26 1_555 1_555
C26 C27 1_555 1_555
C27 O17 1_555 1_555
C28 C26 1_555 1_555
H10 C28 1_555 1_555
C29 C28 1_555 1_555
H11 C29 1_555 1_555
C30 C29 1_555 1_555
H12 C30 1_555 1_555
C31 C25 1_555 1_555
C32 C31 1_555 1_555
O11 C17 1_555 1_555
O13 C23 1_555 1_555
O14 C23 1_555 1_555
O16 Ag6_2 1_555 1_555
O17 Ag6_2 1_555 1_555
O18 C27 1_555 1_555
O19 C32 1_555 1_555
P2 C24 1_555 1_555
Ag14_2 O19 1_555 1_555
Ag15 O13 1_555 1_555
Ag22 O14 1_555 1_555
O23 Ag9 1_555 1_555
O28 Ag9 1_555 1_555
O38 Ag9 1_555 1_555
Ag7 O17 1_555 1_555
C22 C24 1_555 1_555
C25 P2 1_555 1_555
C30 C31 1_555 1_555
O11 Ag23 1_555 1_555
O15 P2 1_555 1_555
O16 P2 1_555 1_555
O18 Ag15 1_555 1_555
O19 Ag22 1_555 1_555
Ag15 O23 1_555 1_555
Ag17 O10 1_555 1_555
Ag17 O34 1_555 1_555
Ag8 O12 1_555 1_555
O12 Ag2_2 1_555 1_555
Ag19 O12 1_555 1_555
O21 Ag10 1_555 1_555
O25 Ag8 1_555 1_555
O31 Ag8 1_555 1_555
O35 Ag2_2 1_555 1_555
O40 Ag8 1_555 1_555
Ag10 O40 1_555 1_555
Ag19 O25 1_555 1_555
Ag19 O35 1_555 1_555
Ag1_2 O1_2 1_555 1_555
Ag2_3 O23 1_555 1_555
Ag6_3 O6_2 1_555 1_555
C1_2 C2_2 1_555 1_555
C2_2 C3_2 1_555 1_555
C3_2 H1_2 1_555 1_555
C4_2 C3_2 1_555 1_555
H2_2 C4_2 1_555 1_555
C5_2 C4_2 1_555 1_555
H3_2 C5_2 1_555 1_555
C6_2 C5_2 1_555 1_555
C7_2 C6_2 1_555 1_555
C8_2 C2_2 1_555 1_555
C9_2 C10_2 1_555 1_555
C10_2 C11_2 1_555 1_555
C11_2 O7_2 1_555 1_555
C12_2 C10_2 1_555 1_555
H4_2 C12_2 1_555 1_555
C13_2 C12_2 1_555 1_555
H5_2 C13_2 1_555 1_555
C15_2 C9_2 1_555 1_555
O1_2 C1_2 1_555 1_555
O23 C1_2 1_555 1_555
O25 C7_2 1_555 1_555
O4_2 C7_2 1_555 1_555
O5_2 Ag15 1_555 1_555
O6_2 P1_2 1_555 1_555
O7_2 Ag1_2 1_555 1_555
O31 C11_2 1_555 1_555
P1_2 C8_2 1_555 1_555
Ag7_2 O11_2 1_555 1_555
Ag10_2 O15_2 1_555 1_555
C17_2 C18_2 1_555 1_555
C18_2 C19_2 1_555 1_555
C20_2 C19_2 1_555 1_555
C21_2 C20_2 1_555 1_555
H9_2 C21_2 1_555 1_555
C22_2 C21_2 1_555 1_555
C23_2 C22_2 1_555 1_555
C24_2 C18_2 1_555 1_555
C25_2 C26_2 1_555 1_555
C26_2 C27_2 1_555 1_555
C27_2 O17_2 1_555 1_555
C28_2 C26_2 1_555 1_555
H10_2 C28_2 1_555 1_555
C29_2 C28_2 1_555 1_555
H11_2 C29_2 1_555 1_555
C30_2 C29_2 1_555 1_555
H12_2 C30_2 1_555 1_555
C31_2 C25_2 1_555 1_555
C32_2 C31_2 1_555 1_555
O11_2 C17_2 1_555 1_555
O24 Ag2_3 1_555 1_555
O26 C23_2 1_555 1_555
O14_2 C23_2 1_555 1_555
O15_2 Ag16 1_555 1_555
O16_2 Ag6_3 1_555 1_555
O17_2 Ag6_3 1_555 1_555
O32 C27_2 1_555 1_555
O19_2 C32_2 1_555 1_555
O20_2 C32_2 1_555 1_555
P2_2 C24_2 1_555 1_555
Ag11_2 O31 1_555 1_555
Ag14_3 O19_2 1_555 1_555
Ag18_2 O20_2 1_555 1_555
Ag22_2 O14_2 1_555 1_555
Ag23_2 O6_2 1_555 1_555
Ag24_2 O1_2 1_555 1_555
O21_2 Ag10_2 1_555 1_555
O28_2 Ag20 1_555 1_555
O30_2 Ag10_2 1_555 1_555
O33_2 Ag1_2 1_555 1_555
O37 Ag2_3 1_555 1_555
O38 Ag2_3 1_555 1_555
O39_2 Ag15 1_555 1_555
O40_2 Ag16 1_555 1_555
Ag6_3 O7_2 1_555 1_555
C6_2 C8_2 1_555 1_555
C9_2 P1_2 1_555 1_555
O5_2 P1_2 1_555 1_555
Ag7_2 O17_2 1_555 1_555
Ag10_2 O40_2 1_555 1_555
C17_2 O24 1_555 1_555
C22_2 C24_2 1_555 1_555
C25_2 P2_2 1_555 1_555
C30_2 C31_2 1_555 1_555
O11_2 Ag23_2 1_555 1_555
O15_2 P2_2 1_555 1_555
O16_2 P2_2 1_555 1_555
O16_2 Ag24_2 1_555 1_555
O19_2 Ag22_2 1_555 1_555
O20_2 Ag24_2 1_555 1_555
Ag18_2 O33_2 1_555 1_555
H6_2 C14_2 1_555 1_555
O9_2 C16_2 1_555 1_555
O10_2 C16_2 1_555 1_555
Ag14_3 O9_2 1_555 1_555
Ag17_2 O10_2 1_555 1_555
O22_2 Ag5_2 1_555 1_555
O29_2 Ag5_2 1_555 1_555
O9_2 Ag21_2 1_555 1_555
Ag17_2 O34_2 1_555 1_555
Ag18 O12_2 1_555 1_555
O12_2 Ag14 1_555 1_555
Ag21 O12_2 1_555 1_555
O25_2 Ag18 1_555 1_555
Ag21 O25_2 1_555 1_555
Ag12_2 O22 1_555 1_555
Ag22_2 O13_2 1_555 1_555
C17_3 C18_3 1_555 1_555
C18_3 C19_3 1_555 1_555
C20_3 C19_3 1_555 1_555
C21_3 C20_3 1_555 1_555
H9_3 C21_3 1_555 1_555
C22_3 C21_3 1_555 1_555
C23_3 C22_3 1_555 1_555
C24_3 C18_3 1_555 1_555
C25_3 C26_3 1_555 1_555
C26_3 C27_3 1_555 1_555
C27_3 O17_3 1_555 1_555
C28_3 C26_3 1_555 1_555
H10_3 C28_3 1_555 1_555
C29_3 C28_3 1_555 1_555
H11_3 C29_3 1_555 1_555
C30_3 C29_3 1_555 1_555
H12_3 C30_3 1_555 1_555
C31_3 C25_3 1_555 1_555
C32_3 C31_3 1_555 1_555
O22 C17_3 1_555 1_555
O13_2 C23_3 1_555 1_555
O28_2 C23_3 1_555 1_555
O30 Ag6_4 1_555 1_555
O17_3 Ag6_4 1_555 1_555
O34_2 C27_3 1_555 1_555
O36 C32_3 1_555 1_555
P2_3 C24_3 1_555 1_555
Ag17_2 O13_2 1_555 1_555
O23_2 Ag22_2 1_555 1_555
Ag12_2 O17_3 1_555 1_555
C22_3 C24_3 1_555 1_555
C25_3 P2_3 1_555 1_555
C30_3 C31_3 1_555 1_555
O15_3 P2_3 1_555 1_555
O30 P2_3 1_555 1_555
Ag17_2 O23_2 1_555 1_555
Ag14_2 O2_2 1_555 1_555
Ag17 O2_2 1_555 1_555
Ag22 O2_2 1_555 1_555
O26_2 Ag17 1_555 1_555
Ag22 O26_2 1_555 1_555
H6_3 C14_3 1_555 1_555
O35 C16_3 1_555 1_555
Ag11_2 O21 1_555 1_555
Ag21_2 O3_2 1_555 1_555
Ag6_5 O29 1_555 1_555
C1_3 C2_3 1_555 1_555
C2_3 C3_3 1_555 1_555
C3_3 H1_3 1_555 1_555
C4_3 C3_3 1_555 1_555
H2_3 C4_3 1_555 1_555
C5_3 C4_3 1_555 1_555
H3_3 C5_3 1_555 1_555
C6_3 C5_3 1_555 1_555
C7_3 C6_3 1_555 1_555
C8_3 C2_3 1_555 1_555
C9_3 C10_3 1_555 1_555
C10_3 C11_3 1_555 1_555
C11_3 O7_3 1_555 1_555
C12_3 C10_3 1_555 1_555
H4_3 C12_3 1_555 1_555
C13_3 C12_3 1_555 1_555
H5_3 C13_3 1_555 1_555
C15_3 C9_3 1_555 1_555
O21 C1_3 1_555 1_555
O3_2 C7_3 1_555 1_555
O27_2 C7_3 1_555 1_555
O29 P1_3 1_555 1_555
O7_3 Ag11_2 1_555 1_555
O33_2 C11_3 1_555 1_555
P1_3 C8_3 1_555 1_555
Ag18_2 O3_2 1_555 1_555
O24_2 Ag21_2 1_555 1_555
Ag6_5 O7_3 1_555 1_555
C6_3 C8_3 1_555 1_555
C9_3 P1_3 1_555 1_555
O5_3 P1_3 1_555 1_555
Ag18_2 O24_2 1_555 1_555
H6_4 C14_4 1_555 1_555
O37 C16_4 1_555 1_555
O39_2 C16_4 1_555 1_555
Ag11 O21_2 1_555 1_555
Ag14_3 O23_2 1_555 1_555
Ag6_6 O29_2 1_555 1_555
C1_4 C2_4 1_555 1_555
C2_4 C3_4 1_555 1_555
C3_4 H1_4 1_555 1_555
C4_4 C3_4 1_555 1_555
H2_4 C4_4 1_555 1_555
C5_4 C4_4 1_555 1_555
H3_4 C5_4 1_555 1_555
C6_4 C5_4 1_555 1_555
C7_4 C6_4 1_555 1_555
C8_4 C2_4 1_555 1_555
C9_4 C10_4 1_555 1_555
C10_4 C11_4 1_555 1_555
C11_4 O7_4 1_555 1_555
C12_4 C10_4 1_555 1_555
H4_4 C12_4 1_555 1_555
C13_4 C12_4 1_555 1_555
H5_4 C13_4 1_555 1_555
C15_4 C9_4 1_555 1_555
O21_2 C1_4 1_555 1_555
O23_2 C1_4 1_555 1_555
O25_2 C7_4 1_555 1_555
O27 C7_4 1_555 1_555
O5_4 Ag17_2 1_555 1_555
O29_2 P1_4 1_555 1_555
O7_4 Ag11 1_555 1_555
O33 C11_4 1_555 1_555
P1_4 C8_4 1_555 1_555
Ag12 O22_2 1_555 1_555
Ag24_2 O15_4 1_555 1_555
C17_4 C18_4 1_555 1_555
C18_4 C19_4 1_555 1_555
C20_4 C19_4 1_555 1_555
C21_4 C20_4 1_555 1_555
H9_4 C21_4 1_555 1_555
C22_4 C21_4 1_555 1_555
C23_4 C22_4 1_555 1_555
C24_4 C18_4 1_555 1_555
C25_4 C26_4 1_555 1_555
C26_4 C27_4 1_555 1_555
C27_4 O17_4 1_555 1_555
C28_4 C26_4 1_555 1_555
H10_4 C28_4 1_555 1_555
C29_4 C28_4 1_555 1_555
H11_4 C29_4 1_555 1_555
C30_4 C29_4 1_555 1_555
H12_4 C30_4 1_555 1_555
C31_4 C25_4 1_555 1_555
C32_4 C31_4 1_555 1_555
O22_2 C17_4 1_555 1_555
O24_2 Ag14_3 1_555 1_555
O26_2 C23_4 1_555 1_555
O28 C23_4 1_555 1_555
O15_4 Ag18_2 1_555 1_555
O30_2 Ag6_6 1_555 1_555
O17_4 Ag6_6 1_555 1_555
O34 C27_4 1_555 1_555
O38 C32_4 1_555 1_555
O40_2 C32_4 1_555 1_555
P2_4 C24_4 1_555 1_555
Ag6_6 O7_4 1_555 1_555
C6_4 C8_4 1_555 1_555
C9_4 P1_4 1_555 1_555
O5_4 P1_4 1_555 1_555
Ag12 O17_4 1_555 1_555
C17_4 O24_2 1_555 1_555
C22_4 C24_4 1_555 1_555
C25_4 P2_4 1_555 1_555
C30_4 C31_4 1_555 1_555
O15_4 P2_4 1_555 1_555
O30_2 P2_4 1_555 1_555

#END
