
###############################################################################
#
# This file contains modified crystal structure data generated from the
# MOF subset of the Cambridge Structural Database (CSD) v543 
# hosted by the Cambridge Crystallographic Data Centre (CCDC).
#
# This work is licensed under the Creative Commons
# Attribution-NonCommercial-ShareAlike 4.0 International License.
# To view a copy of this license, visit
# http://creativecommons.org/licenses/by-nc-sa/4.0/
# or send a letter to
# Creative Commons, PO Box 1866, Mountain View, CA 94042, USA.
#
# CIF created using the CSD Python API on 29 September 2022
# The structure has been converted into the P1 space group
# The structure has a 3D framework
# The original CSD entry HOGJUK is in the monoclinic crystal system
# The framework has been calculated to contain at least 10.0% void space
# The void calculation uses a probe of radius 1.32A, grid spacing 0.4
# The framework is charged, counterions have been retained in the structure
# H atom positions have been added when not included in the experimental data
#
###############################################################################

data_HOGJUK
_chemical_formula_moiety         '(C72 H32 Cr14 Mn12 N6 O140 14-)n'
_symmetry_cell_setting           triclinic
_symmetry_space_group_name_H-M   'P 1'
_symmetry_Int_Tables_number      1
_space_group_name_Hall           'P 1'
loop_
_symmetry_equiv_pos_site_id
_symmetry_equiv_pos_as_xyz
1 x,y,z
_cell_length_a                   8.8345(11)
_cell_length_b                   35.591(4)
_cell_length_c                   16.246(2)
_cell_angle_alpha                90
_cell_angle_beta                 93.437(6)
_cell_angle_gamma                90
_cell_volume                     5099.02
loop_
_atom_site_label
_atom_site_type_symbol
_atom_site_fract_x
_atom_site_fract_y
_atom_site_fract_z
Cr2 Cr -0.0000 0.29117(4) 0.2500
Mn1 Mn -0.0000 0.44948(4) 0.2500
C10 C 0.0420(7) 0.36598(17) 0.2095(4)
O19 O 0.0649(6) 0.33273(12) 0.1797(3)
O20 O 0.0726(5) 0.39604(12) 0.1780(3)
O37 O 0.0859(6) 0.25227(14) 0.1788(3)
O38 O 0.2009(6) 0.28591(13) 0.3123(3)
O40 O 0.1768(6) 0.47180(12) 0.1665(3)
O41 O 0.2167(5) 0.43406(13) 0.3239(3)
C1 C 0.7858(8) 0.2391(2) 0.2930(4)
C2 C 0.3295(9) 0.1242(2) 0.3099(4)
C3 C 0.4104(8) 0.14231(19) 0.3867(4)
C4 C 0.5008(8) 0.02214(17) 0.3602(4)
C5 C 0.3458(8) 0.00271(17) 0.3652(4)
C6 C 0.2707(7) 0.06728(17) 0.5998(4)
C7 C 0.1171(8) 0.0800(2) 0.5582(5)
C8 C 0.9580(7) 0.36598(17) 0.2905(4)
C9 C 0.7202(9) 0.25833(19) 0.2126(4)
Cr1 Cr 0.31644(11) 0.07284(3) 0.43526(6)
Cr2_2 Cr 1.0000 0.29117(4) 0.2500
Mn1_2 Mn 1.0000 0.44948(4) 0.2500
Mn2 Mn 0.5000 0.19466(4) 0.2500
O1 O 0.9141(6) 0.25227(14) 0.3212(3)
O2 O 0.7128(6) 0.21379(13) 0.3231(3)
O3 O 0.7991(6) 0.28591(13) 0.1877(3)
O4 O 0.9351(6) 0.33273(12) 0.3203(3)
O5 O 0.4710(7) 0.17323(13) 0.3783(3)
O6 O 0.3285(7) 0.14141(15) 0.2436(3)
O7 O 0.4038(6) 0.12339(12) 0.4534(3)
O8 O 0.2630(5) 0.09273(13) 0.3239(3)
O9 O 0.5118(5) 0.05419(12) 0.3979(3)
O10 O 0.2461(5) 0.02196(12) 0.4028(3)
O11 O 0.1205(5) 0.08567(13) 0.4804(3)
O12 O 0.3728(5) 0.05957(12) 0.5501(3)
O14 O 0.5991(5) 0.00686(14) 0.3226(3)
O15 O 0.9274(5) 0.39604(12) 0.3220(3)
O16 O 0.2833(5) 0.06594(13) 0.6761(3)
O17 O 0.0053(6) 0.0849(2) 0.5982(3)
O18 O 0.6022(6) 0.24659(14) 0.1811(3)
C11 C 0.2142(8) 0.2391(2) 0.2070(4)
C12 C 0.6705(9) 0.1242(2) 0.1901(4)
C13 C 0.5896(8) 0.14231(19) 0.1133(4)
C14 C 0.4992(8) 0.02214(17) 0.1398(4)
C15 C 0.6542(8) 0.00271(17) 0.1348(4)
C18 C 0.2798(9) 0.25833(19) 0.2874(4)
Cr3 Cr 0.68356(11) 0.07284(3) 0.06474(6)
O22 O 0.2872(6) 0.21379(13) 0.1769(3)
O24 O 0.5290(7) 0.17323(13) 0.1217(3)
O25 O 0.6715(7) 0.14141(15) 0.2564(3)
O26 O 0.5962(6) 0.12339(12) 0.0466(3)
O27 O 0.7370(5) 0.09273(13) 0.1761(3)
O28 O 0.4882(5) 0.05419(12) 0.1021(3)
O29 O 0.7539(5) 0.02196(12) 0.0972(3)
O30 O 0.8795(5) 0.08567(13) 0.0196(3)
O33 O 0.4009(5) 0.00686(14) 0.1774(3)
O36 O 0.3978(6) 0.24659(14) 0.3189(3)
Mn5 Mn 0.5000 0.05052(4) 0.7500
O39 O 0.8232(6) 0.47180(12) 0.3335(3)
O42 O 0.7833(5) 0.43406(13) 0.1761(3)
C16 C 0.7293(7) 0.06728(17) 0.9002(4)
C17 C 0.8829(8) 0.0800(2) 0.9418(5)
O31 O 0.6272(5) 0.05957(12) 0.9499(3)
O34 O 0.7167(5) 0.06594(13) 0.8239(3)
O35 O 0.9947(6) 0.0849(2) 0.9018(3)
O13 O 0.3232(6) 0.97180(12) 0.3335(3)
O32 O 0.6768(6) 0.97180(12) 0.1665(3)
Mn3 Mn 0.5000 0.94948(4) 0.2500
C1_2 C 0.2858(8) 0.7391(2) 0.2930(4)
C4_2 C 0.0008(8) 0.52214(17) 0.3602(4)
C8_2 C 0.4580(7) 0.86598(17) 0.2905(4)
C9_2 C 0.2202(9) 0.75833(19) 0.2126(4)
Cr2_3 Cr 0.5000 0.79117(4) 0.2500
Mn2_2 Mn -0.0000 0.69466(4) 0.2500
O1_2 O 0.4141(6) 0.75227(14) 0.3212(3)
O2_2 O 0.2128(6) 0.71379(13) 0.3231(3)
O3_2 O 0.2991(6) 0.78591(13) 0.1877(3)
O4_2 O 0.4351(6) 0.83273(12) 0.3203(3)
O9_2 O 0.0118(5) 0.55419(12) 0.3979(3)
O14_2 O 0.0991(5) 0.50686(14) 0.3226(3)
O15_2 O 0.4274(5) 0.89604(12) 0.3220(3)
O18_2 O 0.1022(6) 0.74659(14) 0.1811(3)
C10_2 C 0.5420(7) 0.86598(17) 0.2095(4)
O19_2 O 0.5649(6) 0.83273(12) 0.1797(3)
O20_2 O 0.5726(5) 0.89604(12) 0.1780(3)
C12_2 C 0.1705(9) 0.6242(2) 0.1901(4)
C13_2 C 0.0896(8) 0.64231(19) 0.1133(4)
C15_2 C 0.1542(8) 0.50271(17) 0.1348(4)
Cr3_2 Cr 0.18356(11) 0.57284(3) 0.06474(6)
O24_2 O 0.0290(7) 0.67323(13) 0.1217(3)
O25_2 O 0.1715(7) 0.64141(15) 0.2564(3)
O26_2 O 0.0962(6) 0.62339(12) 0.0466(3)
O27_2 O 0.2370(5) 0.59273(13) 0.1761(3)
O29_2 O 0.2539(5) 0.52196(12) 0.0972(3)
O30_2 O 0.3795(5) 0.58567(13) 0.0196(3)
Mn5_2 Mn -0.0000 0.55052(4) 0.7500
O37_2 O 0.5859(6) 0.75227(14) 0.1788(3)
O38_2 O 0.7009(6) 0.78591(13) 0.3123(3)
O41_2 O 0.7167(5) 0.93406(13) 0.3239(3)
O42_2 O 0.2833(5) 0.93406(13) 0.1761(3)
C16_2 C 0.2293(7) 0.56728(17) 0.9002(4)
C17_2 C 0.3829(8) 0.5800(2) 0.9418(5)
O31_2 O 0.1272(5) 0.55957(12) 0.9499(3)
O34_2 O 0.2167(5) 0.56594(13) 0.8239(3)
O35_2 O 0.4947(6) 0.5849(2) 0.9018(3)
C2_2 C 0.8295(9) 0.6242(2) 0.3099(4)
C3_2 C 0.9104(8) 0.64231(19) 0.3867(4)
C5_2 C 0.8458(8) 0.50271(17) 0.3652(4)
C6_2 C 0.7707(7) 0.56728(17) 0.5998(4)
C7_2 C 0.6171(8) 0.5800(2) 0.5582(5)
Cr1_2 Cr 0.81644(11) 0.57284(3) 0.43526(6)
Mn2_3 Mn 1.0000 0.69466(4) 0.2500
O5_2 O 0.9710(7) 0.67323(13) 0.3783(3)
O6_2 O 0.8285(7) 0.64141(15) 0.2436(3)
O7_2 O 0.9038(6) 0.62339(12) 0.4534(3)
O8_2 O 0.7630(5) 0.59273(13) 0.3239(3)
O10_2 O 0.7461(5) 0.52196(12) 0.4028(3)
O11_2 O 0.6205(5) 0.58567(13) 0.4804(3)
O12_2 O 0.8728(5) 0.55957(12) 0.5501(3)
O16_2 O 0.7833(5) 0.56594(13) 0.6761(3)
O17_2 O 0.5053(6) 0.5849(2) 0.5982(3)
C11_2 C 0.7142(8) 0.7391(2) 0.2070(4)
C14_2 C 0.9992(8) 0.52214(17) 0.1398(4)
C18_2 C 0.7798(9) 0.75833(19) 0.2874(4)
O22_2 O 0.7872(6) 0.71379(13) 0.1769(3)
O28_2 O 0.9882(5) 0.55419(12) 0.1021(3)
O33_2 O 0.9009(5) 0.50686(14) 0.1774(3)
O36_2 O 0.8978(6) 0.74659(14) 0.3189(3)
Mn5_3 Mn 1.0000 0.55052(4) 0.7500
Cr4 Cr -0.0000 0.70883(4) 0.7500
O13_2 O 0.6768(6) 0.02820(12) 0.6665(3)
O32_2 O 0.3232(6) 0.02820(12) 0.8335(3)
C16_3 C 0.2707(7) 0.93272(17) 0.0998(4)
C17_3 C 0.1171(8) 0.9200(2) 0.0582(5)
O31_3 O 0.3728(5) 0.94043(12) 0.0501(3)
O35_3 O 0.0053(6) 0.9151(2) 0.0982(3)
C1_3 C 0.2142(8) 0.7609(2) 0.7070(4)
C2_3 C 0.6705(9) 0.8758(2) 0.6901(4)
C3_3 C 0.5896(8) 0.85769(19) 0.6133(4)
C4_3 C 0.4992(8) 0.97786(17) 0.6398(4)
C5_3 C 0.6542(8) 0.99729(17) 0.6348(4)
C6_3 C 0.7293(7) 0.93272(17) 0.4002(4)
C7_3 C 0.8829(8) 0.9200(2) 0.4418(5)
C8_3 C 0.0420(7) 0.63402(17) 0.7095(4)
C9_3 C 0.2798(9) 0.74167(19) 0.7874(4)
Cr1_3 Cr 0.68356(11) 0.92716(3) 0.56474(6)
Mn2_4 Mn 0.5000 0.80534(4) 0.7500
O1_3 O 0.0859(6) 0.74773(14) 0.6788(3)
O2_3 O 0.2872(6) 0.78621(13) 0.6769(3)
O3_3 O 0.2009(6) 0.71409(13) 0.8123(3)
O4_3 O 0.0649(6) 0.66727(12) 0.6797(3)
O5_3 O 0.5290(7) 0.82677(13) 0.6217(3)
O6_3 O 0.6715(7) 0.85859(15) 0.7564(3)
O7_3 O 0.5962(6) 0.87661(12) 0.5466(3)
O8_3 O 0.7370(5) 0.90727(13) 0.6761(3)
O9_3 O 0.4882(5) 0.94581(12) 0.6021(3)
O10_3 O 0.7539(5) 0.97804(12) 0.5972(3)
O11_3 O 0.8795(5) 0.91433(13) 0.5196(3)
O12_3 O 0.6272(5) 0.94043(12) 0.4499(3)
O14_3 O 0.4009(5) 0.99314(14) 0.6774(3)
O15_3 O 0.0726(5) 0.60396(12) 0.6780(3)
O17_3 O 0.9947(6) 0.9151(2) 0.4018(3)
O18_3 O 0.3978(6) 0.75341(14) 0.8189(3)
C11_3 C 0.7858(8) 0.7609(2) 0.7930(4)
C12_3 C 0.3295(9) 0.8758(2) 0.8099(4)
C13_3 C 0.4104(8) 0.85769(19) 0.8867(4)
C14_3 C 0.5008(8) 0.97786(17) 0.8602(4)
C15_3 C 0.3458(8) 0.99729(17) 0.8652(4)
C18_3 C 0.7202(9) 0.74167(19) 0.7126(4)
Cr3_3 Cr 0.31644(11) 0.92716(3) 0.93526(6)
O21 O 0.9141(6) 0.74773(14) 0.8212(3)
O22_3 O 0.7128(6) 0.78621(13) 0.8231(3)
O23 O 0.7991(6) 0.71409(13) 0.6877(3)
O24_3 O 0.4710(7) 0.82677(13) 0.8783(3)
O25_3 O 0.3285(7) 0.85859(15) 0.7436(3)
O26_3 O 0.4038(6) 0.87661(12) 0.9534(3)
O27_3 O 0.2630(5) 0.90727(13) 0.8239(3)
O28_3 O 0.5118(5) 0.94581(12) 0.8979(3)
O29_3 O 0.2461(5) 0.97804(12) 0.9028(3)
O30_3 O 0.1205(5) 0.91433(13) 0.9804(3)
O33_3 O 0.5991(5) 0.99314(14) 0.8226(3)
O36_3 O 0.6022(6) 0.75341(14) 0.6811(3)
Cr4_2 Cr 1.0000 0.70883(4) 0.7500
O39_2 O 0.1768(6) 0.52820(12) 0.6665(3)
C10_3 C 0.9580(7) 0.63402(17) 0.7905(4)
O19_3 O 0.9351(6) 0.66727(12) 0.8203(3)
O20_3 O 0.9274(5) 0.60396(12) 0.8220(3)
O40_2 O 0.8232(6) 0.52820(12) 0.8335(3)
C2_4 C 0.1705(9) 0.3758(2) 0.6901(4)
C3_4 C 0.0896(8) 0.35769(19) 0.6133(4)
C5_4 C 0.1542(8) 0.49729(17) 0.6348(4)
C6_4 C 0.2293(7) 0.43272(17) 0.4002(4)
C7_4 C 0.3829(8) 0.4200(2) 0.4418(5)
Cr1_4 Cr 0.18356(11) 0.42716(3) 0.56474(6)
Mn2_5 Mn 0.0000 0.30534(4) 0.7500
O5_4 O 0.0290(7) 0.32677(13) 0.6217(3)
O6_4 O 0.1715(7) 0.35859(15) 0.7564(3)
O7_4 O 0.0962(6) 0.37661(12) 0.5466(3)
O8_4 O 0.2370(5) 0.40727(13) 0.6761(3)
O10_4 O 0.2539(5) 0.47804(12) 0.5972(3)
O11_4 O 0.3795(5) 0.41433(13) 0.5196(3)
O12_4 O 0.1272(5) 0.44043(12) 0.4499(3)
O17_4 O 0.4947(6) 0.4151(2) 0.4018(3)
C11_4 C 0.2858(8) 0.2609(2) 0.7930(4)
C14_4 C 0.0008(8) 0.47786(17) 0.8602(4)
C18_4 C 0.2202(9) 0.24167(19) 0.7126(4)
O21_2 O 0.4141(6) 0.24773(14) 0.8212(3)
O22_4 O 0.2128(6) 0.28621(13) 0.8231(3)
O23_2 O 0.2991(6) 0.21409(13) 0.6877(3)
O28_4 O 0.0118(5) 0.44581(12) 0.8979(3)
O33_4 O 0.0991(5) 0.49314(14) 0.8226(3)
O36_4 O 0.1022(6) 0.25341(14) 0.6811(3)
Cr4_3 Cr 0.5000 0.20883(4) 0.7500
C16_4 C 0.7707(7) 0.43272(17) 0.0998(4)
C17_4 C 0.6171(8) 0.4200(2) 0.0582(5)
O31_4 O 0.8728(5) 0.44043(12) 0.0501(3)
O35_4 O 0.5053(6) 0.4151(2) 0.0982(3)
C1_4 C 0.7142(8) 0.2609(2) 0.7070(4)
C4_4 C 0.9992(8) 0.47786(17) 0.6398(4)
C8_4 C 0.5420(7) 0.13402(17) 0.7095(4)
C9_4 C 0.7798(9) 0.24167(19) 0.7874(4)
Mn2_6 Mn 1.0000 0.30534(4) 0.7500
O1_4 O 0.5859(6) 0.24773(14) 0.6788(3)
O2_4 O 0.7872(6) 0.28621(13) 0.6769(3)
O3_4 O 0.7009(6) 0.21409(13) 0.8123(3)
O4_4 O 0.5649(6) 0.16727(12) 0.6797(3)
O9_4 O 0.9882(5) 0.44581(12) 0.6021(3)
O14_4 O 0.9009(5) 0.49314(14) 0.6774(3)
O15_4 O 0.5726(5) 0.10396(12) 0.6780(3)
O18_4 O 0.8978(6) 0.25341(14) 0.8189(3)
C10_4 C 0.4580(7) 0.13402(17) 0.7905(4)
O19_4 O 0.4351(6) 0.16727(12) 0.8203(3)
O20_4 O 0.4274(5) 0.10396(12) 0.8220(3)
C12_4 C 0.8295(9) 0.3758(2) 0.8099(4)
C13_4 C 0.9104(8) 0.35769(19) 0.8867(4)
C15_4 C 0.8458(8) 0.49729(17) 0.8652(4)
Cr3_4 Cr 0.81644(11) 0.42716(3) 0.93526(6)
O24_4 O 0.9710(7) 0.32677(13) 0.8783(3)
O25_4 O 0.8285(7) 0.35859(15) 0.7436(3)
O26_4 O 0.9038(6) 0.37661(12) 0.9534(3)
O27_4 O 0.7630(5) 0.40727(13) 0.8239(3)
O29_4 O 0.7461(5) 0.47804(12) 0.9028(3)
O30_4 O 0.6205(5) 0.41433(13) 0.9804(3)
N1 N -0.0000 0.0401(5) 0.7500
H1 H 0.11489 0.0401 0.75
H2 H 0.0415496 0.0633852 0.779505
H3 H 0.0415496 0.0168148 0.779505
H4 H 0.0317912 0.0401 0.69099
N1_2 N 1.0000 0.0401(5) 0.7500
H2_2 H 0.95845 0.0633852 0.720495
H3_2 H 0.95845 0.0168148 0.720495
H4_2 H 0.968209 0.0401 0.80901
H1_2 H 0.88511 0.0401 0.75
N1_3 N 0.5000 0.5401(5) 0.7500
H1_3 H 0.61489 0.5401 0.75
H2_3 H 0.45845 0.563385 0.720495
H3_3 H 0.45845 0.516815 0.720495
H4_3 H 0.468209 0.5401 0.80901
H1_4 H 0.38511 0.5401 0.75
H2_4 H 0.54155 0.563385 0.779505
H3_4 H 0.54155 0.516815 0.779505
H4_4 H 0.531791 0.5401 0.69099
N1_4 N 0.0000 0.9599(5) 0.2500
H2_5 H 0.0415496 0.936615 0.279505
H3_5 H 0.0415496 0.983185 0.279505
H4_5 H 0.0317912 0.9599 0.19099
H1_5 H 0.11489 0.9599 0.25
N1_5 N 1.0000 0.9599(5) 0.2500
H1_6 H 0.88511 0.9599 0.25
H2_6 H 0.95845 0.936615 0.220495
H3_6 H 0.95845 0.983185 0.220495
H4_6 H 0.968209 0.9599 0.30901
N1_6 N 0.5000 0.4599(5) 0.2500
H1_7 H 0.38511 0.4599 0.25
H2_7 H 0.54155 0.436615 0.279505
H3_7 H 0.54155 0.483185 0.279505
H4_7 H 0.531791 0.4599 0.19099
H1_8 H 0.61489 0.4599 0.25
H2_8 H 0.45845 0.436615 0.220495
H3_8 H 0.45845 0.483185 0.220495
H4_8 H 0.468209 0.4599 0.30901
loop_
_geom_bond_atom_site_label_1
_geom_bond_atom_site_label_2
_geom_bond_site_symmetry_1
_geom_bond_site_symmetry_2
O19 Cr2 1_555 1_555
O20 Mn1 1_555 1_555
O37 Cr2 1_555 1_555
O38 Cr2 1_555 1_555
O40 Mn1 1_555 1_555
O41 Mn1 1_555 1_555
C10 O19 1_555 1_555
C10 O20 1_555 1_555
C1 C9 1_555 1_555
C2 C3 1_555 1_555
C3 O5 1_555 1_555
C4 C5 1_555 1_555
C5 O10 1_555 1_555
C6 C7 1_555 1_555
C7 O11 1_555 1_555
C8 O4 1_555 1_555
C9 O3 1_555 1_555
Cr1 O7 1_555 1_555
Cr2_2 O1 1_555 1_555
Mn1_2 O15 1_555 1_555
Mn2 O2 1_555 1_555
O1 C1 1_555 1_555
O2 C1 1_555 1_555
O3 Cr2_2 1_555 1_555
O4 Cr2_2 1_555 1_555
O5 Mn2 1_555 1_555
O6 C2 1_555 1_555
O7 C3 1_555 1_555
O8 C2 1_555 1_555
O9 C4 1_555 1_555
O10 Cr1 1_555 1_555
O11 Cr1 1_555 1_555
O12 C6 1_555 1_555
O14 C4 1_555 1_555
O15 C8 1_555 1_555
O16 C6 1_555 1_555
O17 C7 1_555 1_555
O18 C9 1_555 1_555
C11 C18 1_555 1_555
C12 C13 1_555 1_555
C13 O24 1_555 1_555
C14 C15 1_555 1_555
C15 O29 1_555 1_555
C18 O38 1_555 1_555
Cr3 O26 1_555 1_555
O37 C11 1_555 1_555
O22 Mn2 1_555 1_555
O24 Mn2 1_555 1_555
O25 Mn2 1_555 1_555
O26 C13 1_555 1_555
O27 C12 1_555 1_555
O28 C14 1_555 1_555
O29 Cr3 1_555 1_555
O30 Cr3 1_555 1_555
O33 C14 1_555 1_555
O36 Mn2 1_555 1_555
Mn5 O16 1_555 1_555
O39 Mn1_2 1_555 1_555
O42 Mn1_2 1_555 1_555
Cr1 O8 1_555 1_555
Cr1 O9 1_555 1_555
Cr1 O12 1_555 1_555
Mn2 O6 1_555 1_555
Mn2 O18 1_555 1_555
C11 O22 1_555 1_555
C12 O25 1_555 1_555
C18 O36 1_555 1_555
Cr3 O27 1_555 1_555
Cr3 O28 1_555 1_555
C16 C17 1_555 1_555
O31 C16 1_555 1_555
O34 C16 1_555 1_555
O35 C17 1_555 1_555
Mn5 O34 1_555 1_555
Mn3 O13 1_555 1_555
O32 Mn3 1_555 1_555
C1_2 C9_2 1_555 1_555
C8_2 O4_2 1_555 1_555
C9_2 O3_2 1_555 1_555
Cr2_3 O1_2 1_555 1_555
Mn3 O15_2 1_555 1_555
Mn2_2 O2_2 1_555 1_555
O1_2 C1_2 1_555 1_555
O2_2 C1_2 1_555 1_555
O3_2 Cr2_3 1_555 1_555
O4_2 Cr2_3 1_555 1_555
O9_2 C4_2 1_555 1_555
O14_2 C4_2 1_555 1_555
O15_2 C8_2 1_555 1_555
O18_2 C9_2 1_555 1_555
C10_2 C8_2 1_555 1_555
O19_2 Cr2_3 1_555 1_555
O20_2 Mn3 1_555 1_555
C12_2 C13_2 1_555 1_555
C13_2 O24_2 1_555 1_555
C15_2 O29_2 1_555 1_555
Cr3_2 O26_2 1_555 1_555
O24_2 Mn2_2 1_555 1_555
O25_2 Mn2_2 1_555 1_555
O26_2 C13_2 1_555 1_555
O27_2 C12_2 1_555 1_555
O29_2 Cr3_2 1_555 1_555
O30_2 Cr3_2 1_555 1_555
O40 C15_2 1_555 1_555
O37_2 Cr2_3 1_555 1_555
O38_2 Cr2_3 1_555 1_555
O41_2 Mn3 1_555 1_555
O42_2 Mn3 1_555 1_555
Mn2_2 O18_2 1_555 1_555
C10_2 O19_2 1_555 1_555
C10_2 O20_2 1_555 1_555
C12_2 O25_2 1_555 1_555
Cr3_2 O27_2 1_555 1_555
C16_2 C17_2 1_555 1_555
O31_2 C16_2 1_555 1_555
O34_2 C16_2 1_555 1_555
O35_2 C17_2 1_555 1_555
Mn5_2 O34_2 1_555 1_555
C2_2 C3_2 1_555 1_555
C3_2 O5_2 1_555 1_555
C5_2 O10_2 1_555 1_555
C6_2 C7_2 1_555 1_555
C7_2 O11_2 1_555 1_555
Cr1_2 O7_2 1_555 1_555
O5_2 Mn2_3 1_555 1_555
O6_2 C2_2 1_555 1_555
O7_2 C3_2 1_555 1_555
O8_2 C2_2 1_555 1_555
O10_2 Cr1_2 1_555 1_555
O11_2 Cr1_2 1_555 1_555
O12_2 C6_2 1_555 1_555
O39 C5_2 1_555 1_555
O16_2 C6_2 1_555 1_555
O17_2 C7_2 1_555 1_555
C11_2 C18_2 1_555 1_555
C18_2 O38_2 1_555 1_555
O37_2 C11_2 1_555 1_555
O22_2 Mn2_3 1_555 1_555
O28_2 C14_2 1_555 1_555
O33_2 C14_2 1_555 1_555
O36_2 Mn2_3 1_555 1_555
Mn5_3 O16_2 1_555 1_555
Cr1_2 O8_2 1_555 1_555
Cr1_2 O12_2 1_555 1_555
Mn2_3 O6_2 1_555 1_555
C11_2 O22_2 1_555 1_555
C18_2 O36_2 1_555 1_555
Mn5 O13_2 1_555 1_555
O32_2 Mn5 1_555 1_555
C16_3 C17_3 1_555 1_555
O31_3 C16_3 1_555 1_555
O42_2 C16_3 1_555 1_555
O35_3 C17_3 1_555 1_555
C1_3 C9_3 1_555 1_555
C2_3 C3_3 1_555 1_555
C3_3 O5_3 1_555 1_555
C4_3 C5_3 1_555 1_555
C5_3 O10_3 1_555 1_555
C6_3 C7_3 1_555 1_555
C7_3 O11_3 1_555 1_555
C8_3 O4_3 1_555 1_555
C9_3 O3_3 1_555 1_555
Cr1_3 O7_3 1_555 1_555
Cr4 O1_3 1_555 1_555
Mn5_2 O15_3 1_555 1_555
Mn2_4 O2_3 1_555 1_555
O1_3 C1_3 1_555 1_555
O2_3 C1_3 1_555 1_555
O3_3 Cr4 1_555 1_555
O4_3 Cr4 1_555 1_555
O5_3 Mn2_4 1_555 1_555
O6_3 C2_3 1_555 1_555
O7_3 C3_3 1_555 1_555
O8_3 C2_3 1_555 1_555
O9_3 C4_3 1_555 1_555
O10_3 Cr1_3 1_555 1_555
O11_3 Cr1_3 1_555 1_555
O12_3 C6_3 1_555 1_555
O14_3 C4_3 1_555 1_555
O15_3 C8_3 1_555 1_555
O41_2 C6_3 1_555 1_555
O17_3 C7_3 1_555 1_555
O18_3 C9_3 1_555 1_555
C11_3 C18_3 1_555 1_555
C12_3 C13_3 1_555 1_555
C13_3 O24_3 1_555 1_555
C14_3 C15_3 1_555 1_555
C15_3 O29_3 1_555 1_555
C18_3 O23 1_555 1_555
Cr3_3 O26_3 1_555 1_555
O21 C11_3 1_555 1_555
O22_3 Mn2_4 1_555 1_555
O23 Cr4_2 1_555 1_555
O24_3 Mn2_4 1_555 1_555
O25_3 Mn2_4 1_555 1_555
O26_3 C13_3 1_555 1_555
O27_3 C12_3 1_555 1_555
O28_3 C14_3 1_555 1_555
O29_3 Cr3_3 1_555 1_555
O30_3 Cr3_3 1_555 1_555
O33_3 C14_3 1_555 1_555
O36_3 Mn2_4 1_555 1_555
Cr4_2 O21 1_555 1_555
O39_2 Mn5_2 1_555 1_555
Cr1_3 O8_3 1_555 1_555
Cr1_3 O9_3 1_555 1_555
Cr1_3 O12_3 1_555 1_555
Mn2_4 O6_3 1_555 1_555
Mn2_4 O18_3 1_555 1_555
C11_3 O22_3 1_555 1_555
C12_3 O25_3 1_555 1_555
C18_3 O36_3 1_555 1_555
Cr3_3 O27_3 1_555 1_555
Cr3_3 O28_3 1_555 1_555
O19_3 Cr4_2 1_555 1_555
O20_3 Mn5_3 1_555 1_555
O40_2 Mn5_3 1_555 1_555
C10_3 O19_3 1_555 1_555
C10_3 O20_3 1_555 1_555
C2_4 C3_4 1_555 1_555
C3_4 O5_4 1_555 1_555
C5_4 O10_4 1_555 1_555
C6_4 C7_4 1_555 1_555
C7_4 O11_4 1_555 1_555
Cr1_4 O7_4 1_555 1_555
O5_4 Mn2_5 1_555 1_555
O6_4 C2_4 1_555 1_555
O7_4 C3_4 1_555 1_555
O8_4 C2_4 1_555 1_555
O10_4 Cr1_4 1_555 1_555
O11_4 Cr1_4 1_555 1_555
O12_4 C6_4 1_555 1_555
O39_2 C5_4 1_555 1_555
O41 C6_4 1_555 1_555
O17_4 C7_4 1_555 1_555
C11_4 C18_4 1_555 1_555
C18_4 O23_2 1_555 1_555
O21_2 C11_4 1_555 1_555
O22_4 Mn2_5 1_555 1_555
O23_2 Cr4_3 1_555 1_555
O28_4 C14_4 1_555 1_555
O33_4 C14_4 1_555 1_555
O36_4 Mn2_5 1_555 1_555
Cr4_3 O21_2 1_555 1_555
Cr1_4 O8_4 1_555 1_555
Cr1_4 O12_4 1_555 1_555
Mn2_5 O6_4 1_555 1_555
C11_4 O22_4 1_555 1_555
C18_4 O36_4 1_555 1_555
C16_4 C17_4 1_555 1_555
O31_4 C16_4 1_555 1_555
O42 C16_4 1_555 1_555
O35_4 C17_4 1_555 1_555
C1_4 C9_4 1_555 1_555
C8_4 O4_4 1_555 1_555
C9_4 O3_4 1_555 1_555
Cr4_3 O1_4 1_555 1_555
Mn5 O15_4 1_555 1_555
Mn2_6 O2_4 1_555 1_555
O1_4 C1_4 1_555 1_555
O2_4 C1_4 1_555 1_555
O3_4 Cr4_3 1_555 1_555
O4_4 Cr4_3 1_555 1_555
O9_4 C4_4 1_555 1_555
O14_4 C4_4 1_555 1_555
O15_4 C8_4 1_555 1_555
O18_4 C9_4 1_555 1_555
C10_4 C8_4 1_555 1_555
O19_4 Cr4_3 1_555 1_555
O20_4 Mn5 1_555 1_555
C12_4 C13_4 1_555 1_555
C13_4 O24_4 1_555 1_555
C15_4 O29_4 1_555 1_555
Cr3_4 O26_4 1_555 1_555
O24_4 Mn2_6 1_555 1_555
O25_4 Mn2_6 1_555 1_555
O26_4 C13_4 1_555 1_555
O27_4 C12_4 1_555 1_555
O29_4 Cr3_4 1_555 1_555
O30_4 Cr3_4 1_555 1_555
O40_2 C15_4 1_555 1_555
Mn2_6 O18_4 1_555 1_555
C10_4 O19_4 1_555 1_555
C10_4 O20_4 1_555 1_555
C12_4 O25_4 1_555 1_555
Cr3_4 O27_4 1_555 1_555
N1 H1 1_555 1_555
N1 H2 1_555 1_555
N1 H3 1_555 1_555
N1 H4 1_555 1_555
N1_2 H2_2 1_555 1_555
N1_2 H3_2 1_555 1_555
N1_2 H4_2 1_555 1_555
N1_2 H1_2 1_555 1_555
N1_3 H1_3 1_555 1_555
N1_3 H2_3 1_555 1_555
N1_3 H3_3 1_555 1_555
N1_3 H4_3 1_555 1_555
N1_3 H1_4 1_555 1_555
N1_3 H2_4 1_555 1_555
N1_3 H3_4 1_555 1_555
N1_3 H4_4 1_555 1_555
N1_4 H2_5 1_555 1_555
N1_4 H3_5 1_555 1_555
N1_4 H4_5 1_555 1_555
N1_4 H1_5 1_555 1_555
N1_5 H1_6 1_555 1_555
N1_5 H2_6 1_555 1_555
N1_5 H3_6 1_555 1_555
N1_5 H4_6 1_555 1_555
N1_6 H1_7 1_555 1_555
N1_6 H2_7 1_555 1_555
N1_6 H3_7 1_555 1_555
N1_6 H4_7 1_555 1_555
N1_6 H1_8 1_555 1_555
N1_6 H2_8 1_555 1_555
N1_6 H3_8 1_555 1_555
N1_6 H4_8 1_555 1_555

#END
