
###############################################################################
#
# This file contains modified crystal structure data generated from the
# MOF subset of the Cambridge Structural Database (CSD) v543 
# hosted by the Cambridge Crystallographic Data Centre (CCDC).
#
# This work is licensed under the Creative Commons
# Attribution-NonCommercial-ShareAlike 4.0 International License.
# To view a copy of this license, visit
# http://creativecommons.org/licenses/by-nc-sa/4.0/
# or send a letter to
# Creative Commons, PO Box 1866, Mountain View, CA 94042, USA.
#
# CIF created using the CSD Python API on 29 September 2022
# The structure has been converted into the P1 space group
# The structure has a 3D framework
# The original CSD entry HOGLEV01 is in the hexagonal crystal system
# The framework has been calculated to contain at least 10.0% void space
# The void calculation uses a probe of radius 1.32A, grid spacing 0.4
# H atom positions have been added when not included in the experimental data
# Generated hydrogen atom positions removed from atoms on special positions
#
###############################################################################

data_HOGLEV01
_chemical_formula_moiety         '(C102 H132 Cu12 O60)n'
_symmetry_cell_setting           triclinic
_symmetry_space_group_name_H-M   'P 1'
_symmetry_Int_Tables_number      1
_space_group_name_Hall           'P 1'
loop_
_symmetry_equiv_pos_site_id
_symmetry_equiv_pos_as_xyz
1 x,y,z
_cell_length_a                   18.07(2)
_cell_length_b                   18.07(2)
_cell_length_c                   19.34(2)
_cell_angle_alpha                90
_cell_angle_beta                 90
_cell_angle_gamma                120
_cell_volume                     5468.94
loop_
_atom_site_label
_atom_site_type_symbol
_atom_site_fract_x
_atom_site_fract_y
_atom_site_fract_z
O2 O 0.3692(4) 0.4782(4) 0.0027(4)
C1 C 0.2741(6) 0.4171(5) 0.0960(4)
C2 C 0.2498(5) 0.3666(5) 0.1544(4)
H1 H 0.2874 0.3515 0.1725
C3 C 0.1704(4) 0.3408(8) 0.1860(6)
C4 C 0.2209(4) 0.4418(8) 0.0685(6)
H2 H 0.2384 0.4768 0.0296
C5 C 0.1430(6) 0.2861(11) 0.2500
H3 H 0.0819 0.2514 0.2500
C6 C 0.3602(6) 0.4441(6) 0.0633(6)
O3 O 0.4160(4) 0.4332(4) 0.0945(3)
Cu3 Cu 0.52678(4) 0.47322(4) 0.05348(7)
Cu5 Cu 0.47322(4) 0.52678(4) 0.55348(7)
Cu6 Cu 0.52678(4) 0.47322(4) 0.44652(7)
Cu7 Cu 0.05356(6) 0.52678(4) 0.55348(7)
O5 O 0.1090(6) 0.4782(4) 0.0027(4)
O6 O 0.3692(4) 0.4782(4) 0.4973(4)
O7 O 0.1090(6) 0.4782(4) 0.4973(4)
O8 O 0.5218(4) 0.6308(4) 0.0027(4)
O9 O 0.1090(6) 0.6308(4) 0.0027(4)
C7 C 0.1430(8) 0.4171(5) 0.0960(4)
C8 C 0.1430(8) 0.4171(5) 0.4040(4)
C9 C 0.2741(6) 0.4171(5) 0.4040(4)
C10 C 0.1168(7) 0.3666(5) 0.1544(4)
C11 C 0.1168(7) 0.3666(5) 0.3456(4)
C12 C 0.2498(5) 0.3666(5) 0.3456(4)
H4 H 0.0641 0.3515 0.1725
H5 H 0.2874 0.3515 0.3275
H6 H 0.0641 0.3515 0.3275
C13 C 0.1704(9) 0.3408(8) 0.3140(6)
C14 C 0.2209(9) 0.4418(8) 0.4315(6)
H7 H 0.2384 0.4768 0.4704
H8 H 0.1695 0.2514 0.2500
C15 C 0.0839(8) 0.4441(6) 0.0633(6)
C16 C 0.3602(6) 0.4441(6) 0.4367(6)
C17 C 0.0839(8) 0.4441(6) 0.4367(6)
O10 O 0.0172(6) 0.4332(4) 0.0945(3)
O11 O 0.4160(4) 0.4332(4) 0.4055(3)
O12 O 0.0172(6) 0.4332(4) 0.4055(3)
Cu1 Cu 0.47322(4) 0.52678(4) 0.94652(7)
O1 O 0.4255(3) 0.5745(3) 0.8678(4)
Cu2 Cu 0.05356(6) 0.52678(4) 0.94652(7)
O4 O 0.1490(4) 0.5745(3) 0.8678(4)
O13 O 0.4332(4) 0.4160(4) 0.9055(3)
O14 O 0.5840(4) 0.5668(4) 0.9055(3)
Cu4 Cu 0.94644(6) 0.47322(4) 0.05348(7)
Cu8 Cu 0.94644(6) 0.47322(4) 0.44652(7)
O15 O 0.9828(6) 0.4160(4) 0.9055(3)
O16 O 0.9828(6) 0.5668(4) 0.9055(3)
O14_2 O 0.0172(6) 0.5840(4) 0.4055(3)
Cu7_2 Cu 0.52678(7) 0.05356(6) 0.05348(7)
O1_2 O 0.8510(4) 0.4255(3) 0.3678(4)
O2_2 O 0.8910(6) 0.3692(4) 0.5027(4)
C1_2 C 0.8570(8) 0.2741(6) 0.5960(4)
C2_2 C 0.8832(7) 0.2498(5) 0.6544(4)
H1_2 H 0.9359 0.2874 0.6725
C3_2 C 0.8296(9) 0.1704(4) 0.6860(6)
C4_2 C 0.7791(9) 0.2209(4) 0.5685(6)
H2_2 H 0.7616 0.2384 0.5296
C5_2 C 0.8569(13) 0.1430(6) 0.7500
H3_2 H 0.8305 0.0819 0.7500
C6_2 C 0.9161(8) 0.3602(6) 0.5633(6)
O3_2 O 0.9828(6) 0.4160(4) 0.5945(3)
Cu2_2 Cu 0.52678(7) 0.05356(6) 0.44652(7)
O4_2 O 0.5745(5) 0.1490(4) 0.3678(4)
O5_2 O 0.6308(7) 0.1090(6) 0.5027(4)
O6_2 O 0.8910(6) 0.3692(4) 0.9973(4)
O7_2 O 0.6308(7) 0.1090(6) 0.9973(4)
O8_2 O 0.8910(6) 0.5218(4) 0.5027(4)
O9_2 O 0.4782(7) 0.1090(6) 0.5027(4)
C7_2 C 0.7259(9) 0.1430(8) 0.5960(4)
C8_2 C 0.7259(9) 0.1430(8) 0.9040(4)
C9_2 C 0.8570(8) 0.2741(6) 0.9040(4)
C10_2 C 0.7502(9) 0.1168(7) 0.6544(4)
C11_2 C 0.7502(9) 0.1168(7) 0.8456(4)
C12_2 C 0.8832(7) 0.2498(5) 0.8456(4)
H4_2 H 0.7126 0.0641 0.6725
H5_2 H 0.9359 0.2874 0.8275
H6_2 H 0.7126 0.0641 0.8275
C13_2 C 0.8296(12) 0.1704(9) 0.8140(6)
C14_2 C 0.7791(12) 0.2209(9) 0.9315(6)
H7_2 H 0.7616 0.2384 0.9704
H8_2 H 0.9181 0.1695 0.7500
C15_2 C 0.6398(10) 0.0839(8) 0.5633(6)
C16_2 C 0.9161(8) 0.3602(6) 0.9367(6)
C17_2 C 0.6398(10) 0.0839(8) 0.9367(6)
O10_2 O 0.5840(7) 0.0172(6) 0.5945(3)
O12_2 O 0.5840(7) 0.0172(6) 0.9055(3)
Cu4_2 Cu 0.47322(7) 0.94644(6) 0.55348(7)
Cu8_2 Cu 0.47322(7) 0.94644(6) 0.94652(7)
O15_2 O 0.5668(7) 0.9828(6) 0.4055(3)
O16_2 O 0.4160(7) 0.9828(6) 0.4055(3)
O14_3 O 0.4332(4) 0.0172(6) 0.9055(3)
O2_3 O 0.5218(4) 0.8910(6) 0.0027(4)
C1_3 C 0.5829(5) 0.8570(8) 0.0960(4)
C2_3 C 0.6334(5) 0.8832(7) 0.1544(4)
H1_3 H 0.6485 0.9359 0.1725
C3_3 C 0.6592(8) 0.8296(9) 0.1860(6)
C4_3 C 0.5582(8) 0.7791(9) 0.0685(6)
H2_3 H 0.5232 0.7616 0.0296
C5_3 C 0.7139(11) 0.8569(13) 0.2500
H3_3 H 0.7486 0.8305 0.2500
C6_3 C 0.5559(6) 0.9161(8) 0.0633(6)
O3_3 O 0.5668(4) 0.9828(6) 0.0945(3)
O6_3 O 0.5218(4) 0.8910(6) 0.4973(4)
O7_3 O 0.5218(4) 0.6308(7) 0.4973(4)
O8_3 O 0.3692(4) 0.8910(6) 0.0027(4)
C7_3 C 0.5829(5) 0.7259(9) 0.0960(4)
C8_3 C 0.5829(5) 0.7259(9) 0.4040(4)
C9_3 C 0.5829(5) 0.8570(8) 0.4040(4)
C10_3 C 0.6334(5) 0.7502(9) 0.1544(4)
C11_3 C 0.6334(5) 0.7502(9) 0.3456(4)
C12_3 C 0.6334(5) 0.8832(7) 0.3456(4)
H4_3 H 0.6485 0.7126 0.1725
H5_3 H 0.6485 0.9359 0.3275
H6_3 H 0.6485 0.7126 0.3275
C13_3 C 0.6592(8) 0.8296(12) 0.3140(6)
C14_3 C 0.5582(8) 0.7791(12) 0.4315(6)
H7_3 H 0.5232 0.7616 0.4704
H8_3 H 0.7486 0.9181 0.2500
C15_3 C 0.5559(6) 0.6398(10) 0.0633(6)
C16_3 C 0.5559(6) 0.9161(8) 0.4367(6)
C17_3 C 0.5559(6) 0.6398(10) 0.4367(6)
O10_3 O 0.5668(4) 0.5840(7) 0.0945(3)
O12_3 O 0.5668(4) 0.5840(7) 0.4055(3)
O1_3 O 0.4255(3) 0.8510(4) 0.8678(4)
C1_4 C 0.1430(8) 0.7259(6) 0.0960(4)
C2_4 C 0.1168(7) 0.7502(5) 0.1544(4)
H1_4 H 0.0641 0.7126 0.1725
C3_4 C 0.1704(9) 0.8296(4) 0.1860(6)
C4_4 C 0.2209(9) 0.7791(4) 0.0685(6)
H2_4 H 0.2384 0.7616 0.0296
C5_4 C 0.1431(13) 0.8570(6) 0.2500
H3_4 H 0.1695 0.9181 0.2500
C6_4 C 0.0839(8) 0.6398(6) 0.0633(6)
O3_4 O 0.0172(6) 0.5840(4) 0.0945(3)
O6_4 O 0.1090(6) 0.6308(4) 0.4973(4)
O7_4 O 0.3692(7) 0.8910(6) 0.4973(4)
C7_4 C 0.2741(9) 0.8570(8) 0.0960(4)
C8_4 C 0.2741(9) 0.8570(8) 0.4040(4)
C9_4 C 0.1430(8) 0.7259(6) 0.4040(4)
C10_4 C 0.2498(9) 0.8832(7) 0.1544(4)
C11_4 C 0.2498(9) 0.8832(7) 0.3456(4)
C12_4 C 0.1168(7) 0.7502(5) 0.3456(4)
H4_4 H 0.2874 0.9359 0.1725
H5_4 H 0.0641 0.7126 0.3275
H6_4 H 0.2874 0.9359 0.3275
C13_4 C 0.1704(12) 0.8296(9) 0.3140(6)
C14_4 C 0.2209(12) 0.7791(9) 0.4315(6)
H7_4 H 0.2384 0.7616 0.4704
H8_4 H 0.0819 0.8305 0.2500
C15_4 C 0.3602(10) 0.9161(8) 0.0633(6)
C16_4 C 0.0839(8) 0.6398(6) 0.4367(6)
C17_4 C 0.3602(10) 0.9161(8) 0.4367(6)
O10_4 O 0.4160(7) 0.9828(6) 0.0945(3)
C1_5 C 0.4171(5) 0.1430(8) 0.5960(4)
C2_5 C 0.3666(5) 0.1168(7) 0.6544(4)
H1_5 H 0.3515 0.0641 0.6725
C3_5 C 0.3408(8) 0.1704(9) 0.6860(6)
C4_5 C 0.4418(8) 0.2209(9) 0.5685(6)
H2_5 H 0.4768 0.2384 0.5296
C5_5 C 0.2861(11) 0.1431(13) 0.7500
H3_5 H 0.2514 0.1695 0.7500
C6_5 C 0.4441(6) 0.0839(8) 0.5633(6)
O3_5 O 0.4332(4) 0.0172(6) 0.5945(3)
O4_3 O 0.5745(3) 0.4255(5) 0.3678(4)
O5_3 O 0.4782(4) 0.3692(7) 0.5027(4)
O6_5 O 0.4782(4) 0.1090(6) 0.9973(4)
O7_5 O 0.4782(4) 0.3692(7) 0.9973(4)
O9_3 O 0.6308(4) 0.5218(7) 0.5027(4)
C7_5 C 0.4171(5) 0.2741(9) 0.5960(4)
C8_5 C 0.4171(5) 0.2741(9) 0.9040(4)
C9_5 C 0.4171(5) 0.1430(8) 0.9040(4)
C10_5 C 0.3666(5) 0.2498(9) 0.6544(4)
C11_5 C 0.3666(5) 0.2498(9) 0.8456(4)
C12_5 C 0.3666(5) 0.1168(7) 0.8456(4)
H4_5 H 0.3515 0.2874 0.6725
H5_5 H 0.3515 0.0641 0.8275
H6_5 H 0.3515 0.2874 0.8275
C13_5 C 0.3408(8) 0.1704(12) 0.8140(6)
C14_5 C 0.4418(8) 0.2209(12) 0.9315(6)
H7_5 H 0.4768 0.2384 0.9704
H8_5 H 0.2514 0.0819 0.7500
C15_5 C 0.4441(6) 0.3602(10) 0.5633(6)
C16_5 C 0.4441(6) 0.0839(8) 0.9367(6)
C17_5 C 0.4441(6) 0.3602(10) 0.9367(6)
O10_5 O 0.4332(4) 0.4160(7) 0.5945(3)
O1_4 O 0.4255(3) 0.8510(4) 0.6322(4)
O4_4 O 0.1490(4) 0.5745(5) 0.6322(4)
O15_3 O 0.9828(6) 0.5668(7) 0.5945(3)
O1_5 O 0.5745(3) 0.4255(3) 0.1322(4)
O4_5 O 0.5745(3) 0.1490(4) 0.1322(4)
O8_4 O 0.6308(4) 0.5218(4) 0.9973(4)
O4_6 O 0.4255(5) 0.5745(3) 0.6322(4)
O16_3 O 0.5840(7) 0.5668(4) 0.5945(3)
C1_6 C 0.7259(6) 0.5829(5) 0.5960(4)
C2_6 C 0.7502(5) 0.6334(5) 0.6544(4)
H1_6 H 0.7126 0.6485 0.6725
C3_6 C 0.8296(4) 0.6592(8) 0.6860(6)
C4_6 C 0.7791(4) 0.5582(8) 0.5685(6)
H2_6 H 0.7616 0.5232 0.5296
C5_6 C 0.8570(6) 0.7139(11) 0.7500
H3_6 H 0.9181 0.7486 0.7500
C6_6 C 0.6398(6) 0.5559(6) 0.5633(6)
O7_6 O 0.8910(6) 0.5218(4) 0.9973(4)
C7_6 C 0.8570(8) 0.5829(5) 0.5960(4)
C8_6 C 0.8570(8) 0.5829(5) 0.9040(4)
C9_6 C 0.7259(6) 0.5829(5) 0.9040(4)
C10_6 C 0.8832(7) 0.6334(5) 0.6544(4)
C11_6 C 0.8832(7) 0.6334(5) 0.8456(4)
C12_6 C 0.7502(5) 0.6334(5) 0.8456(4)
H4_6 H 0.9359 0.6485 0.6725
H5_6 H 0.7126 0.6485 0.8275
H6_6 H 0.9359 0.6485 0.8275
C13_6 C 0.8296(9) 0.6592(8) 0.8140(6)
C14_6 C 0.7791(9) 0.5582(8) 0.9315(6)
H7_6 H 0.7616 0.5232 0.9704
H8_6 H 0.8305 0.7486 0.7500
C15_6 C 0.9161(8) 0.5559(6) 0.5633(6)
C16_6 C 0.6398(6) 0.5559(6) 0.9367(6)
C17_6 C 0.9161(8) 0.5559(6) 0.9367(6)
O1_6 O 0.8510(4) 0.4255(3) 0.1322(4)
loop_
_geom_bond_atom_site_label_1
_geom_bond_atom_site_label_2
_geom_bond_site_symmetry_1
_geom_bond_site_symmetry_2
C1 C2 1_555 1_555
C2 H1 1_555 1_555
C3 C2 1_555 1_555
C4 C1 1_555 1_555
H2 C4 1_555 1_555
C5 C3 1_555 1_555
H3 C5 1_555 1_555
C6 O2 1_555 1_555
O3 C6 1_555 1_555
Cu5 Cu6 1_555 1_555
Cu6 O11 1_555 1_555
O6 Cu5 1_555 1_555
O7 Cu7 1_555 1_555
C7 C4 1_555 1_555
C8 C11 1_555 1_555
C9 C12 1_555 1_555
C10 C3 1_555 1_555
C11 H6 1_555 1_555
C12 H5 1_555 1_555
H4 C10 1_555 1_555
C13 C5 1_555 1_555
C14 C8 1_555 1_555
H7 C14 1_555 1_555
H8 C5 1_555 1_555
C15 O5 1_555 1_555
C16 O6 1_555 1_555
C17 O7 1_555 1_555
O10 C15 1_555 1_555
O11 C16 1_555 1_555
O12 C17 1_555 1_555
C1 C6 1_555 1_555
O3 Cu3 1_555 1_555
C7 C10 1_555 1_555
C7 C15 1_555 1_555
C8 C17 1_555 1_555
C9 C14 1_555 1_555
C9 C16 1_555 1_555
C11 C13 1_555 1_555
C12 C13 1_555 1_555
Cu1 O1 1_555 1_555
O4 Cu2 1_555 1_555
O13 Cu1 1_555 1_555
O14 Cu1 1_555 1_555
Cu8 O1_2 1_555 1_555
O2_2 Cu8 1_555 1_555
C1_2 C2_2 1_555 1_555
C2_2 H1_2 1_555 1_555
C3_2 C2_2 1_555 1_555
C4_2 C1_2 1_555 1_555
H2_2 C4_2 1_555 1_555
C5_2 C3_2 1_555 1_555
H3_2 C5_2 1_555 1_555
C6_2 O2_2 1_555 1_555
O3_2 C6_2 1_555 1_555
O4_2 Cu2_2 1_555 1_555
O5_2 Cu2_2 1_555 1_555
O8_2 Cu8 1_555 1_555
O9_2 Cu2_2 1_555 1_555
C7_2 C4_2 1_555 1_555
C8_2 C11_2 1_555 1_555
C9_2 C12_2 1_555 1_555
C10_2 C3_2 1_555 1_555
C11_2 H6_2 1_555 1_555
C12_2 H5_2 1_555 1_555
H4_2 C10_2 1_555 1_555
C13_2 C5_2 1_555 1_555
C14_2 C8_2 1_555 1_555
H7_2 C14_2 1_555 1_555
H8_2 C5_2 1_555 1_555
C15_2 O5_2 1_555 1_555
C16_2 O6_2 1_555 1_555
C17_2 O7_2 1_555 1_555
O10_2 C15_2 1_555 1_555
O15 C16_2 1_555 1_555
O12_2 C17_2 1_555 1_555
C1_2 C6_2 1_555 1_555
C7_2 C10_2 1_555 1_555
C7_2 C15_2 1_555 1_555
C8_2 C17_2 1_555 1_555
C9_2 C14_2 1_555 1_555
C9_2 C16_2 1_555 1_555
C11_2 C13_2 1_555 1_555
C12_2 C13_2 1_555 1_555
C1_3 C2_3 1_555 1_555
C2_3 H1_3 1_555 1_555
C3_3 C2_3 1_555 1_555
C4_3 C1_3 1_555 1_555
H2_3 C4_3 1_555 1_555
C5_3 C3_3 1_555 1_555
H3_3 C5_3 1_555 1_555
C6_3 O2_3 1_555 1_555
O3_3 C6_3 1_555 1_555
Cu3 O10_3 1_555 1_555
Cu6 O12_3 1_555 1_555
O6_3 Cu4_2 1_555 1_555
O7_3 Cu5 1_555 1_555
C7_3 C4_3 1_555 1_555
C8_3 C11_3 1_555 1_555
C9_3 C12_3 1_555 1_555
C10_3 C3_3 1_555 1_555
C11_3 H6_3 1_555 1_555
C12_3 H5_3 1_555 1_555
H4_3 C10_3 1_555 1_555
C13_3 C5_3 1_555 1_555
C14_3 C8_3 1_555 1_555
H7_3 C14_3 1_555 1_555
H8_3 C5_3 1_555 1_555
C15_3 O8 1_555 1_555
C16_3 O6_3 1_555 1_555
C17_3 O7_3 1_555 1_555
O10_3 C15_3 1_555 1_555
O15_2 C16_3 1_555 1_555
O12_3 C17_3 1_555 1_555
C1_3 C6_3 1_555 1_555
C7_3 C10_3 1_555 1_555
C7_3 C15_3 1_555 1_555
C8_3 C17_3 1_555 1_555
C9_3 C14_3 1_555 1_555
C9_3 C16_3 1_555 1_555
C11_3 C13_3 1_555 1_555
C12_3 C13_3 1_555 1_555
Cu8_2 O1_3 1_555 1_555
C1_4 C2_4 1_555 1_555
C2_4 H1_4 1_555 1_555
C3_4 C2_4 1_555 1_555
C4_4 C1_4 1_555 1_555
H2_4 C4_4 1_555 1_555
C5_4 C3_4 1_555 1_555
H3_4 C5_4 1_555 1_555
C6_4 O9 1_555 1_555
O3_4 C6_4 1_555 1_555
O6_4 Cu7 1_555 1_555
O7_4 Cu4_2 1_555 1_555
C7_4 C4_4 1_555 1_555
C8_4 C11_4 1_555 1_555
C9_4 C12_4 1_555 1_555
C10_4 C3_4 1_555 1_555
C11_4 H6_4 1_555 1_555
C12_4 H5_4 1_555 1_555
H4_4 C10_4 1_555 1_555
C13_4 C5_4 1_555 1_555
C14_4 C8_4 1_555 1_555
H7_4 C14_4 1_555 1_555
H8_4 C5_4 1_555 1_555
C15_4 O8_3 1_555 1_555
C16_4 O6_4 1_555 1_555
C17_4 O7_4 1_555 1_555
O10_4 C15_4 1_555 1_555
O14_2 C16_4 1_555 1_555
O16_2 C17_4 1_555 1_555
C1_4 C6_4 1_555 1_555
C7_4 C10_4 1_555 1_555
C7_4 C15_4 1_555 1_555
C8_4 C17_4 1_555 1_555
C9_4 C14_4 1_555 1_555
C9_4 C16_4 1_555 1_555
C11_4 C13_4 1_555 1_555
C12_4 C13_4 1_555 1_555
C1_5 C2_5 1_555 1_555
C2_5 H1_5 1_555 1_555
C3_5 C2_5 1_555 1_555
C4_5 C1_5 1_555 1_555
H2_5 C4_5 1_555 1_555
C5_5 C3_5 1_555 1_555
H3_5 C5_5 1_555 1_555
C6_5 O9_2 1_555 1_555
O3_5 C6_5 1_555 1_555
Cu5 O10_5 1_555 1_555
O4_3 Cu6 1_555 1_555
O5_3 Cu6 1_555 1_555
O9_3 Cu6 1_555 1_555
C7_5 C4_5 1_555 1_555
C8_5 C11_5 1_555 1_555
C9_5 C12_5 1_555 1_555
C10_5 C3_5 1_555 1_555
C11_5 H6_5 1_555 1_555
C12_5 H5_5 1_555 1_555
H4_5 C10_5 1_555 1_555
C13_5 C5_5 1_555 1_555
C14_5 C8_5 1_555 1_555
H7_5 C14_5 1_555 1_555
H8_5 C5_5 1_555 1_555
C15_5 O5_3 1_555 1_555
C16_5 O6_5 1_555 1_555
C17_5 O7_5 1_555 1_555
O10_5 C15_5 1_555 1_555
O14_3 C16_5 1_555 1_555
O13 C17_5 1_555 1_555
C1_5 C6_5 1_555 1_555
C7_5 C10_5 1_555 1_555
C7_5 C15_5 1_555 1_555
C8_5 C17_5 1_555 1_555
C9_5 C14_5 1_555 1_555
C9_5 C16_5 1_555 1_555
C11_5 C13_5 1_555 1_555
C12_5 C13_5 1_555 1_555
Cu4_2 O1_4 1_555 1_555
O4_4 Cu7 1_555 1_555
Cu3 O1_5 1_555 1_555
O4_5 Cu7_2 1_555 1_555
O4_6 Cu5 1_555 1_555
O16_3 Cu5 1_555 1_555
C1_6 C2_6 1_555 1_555
C2_6 H1_6 1_555 1_555
C3_6 C2_6 1_555 1_555
C4_6 C1_6 1_555 1_555
H2_6 C4_6 1_555 1_555
C5_6 C3_6 1_555 1_555
H3_6 C5_6 1_555 1_555
C6_6 O9_3 1_555 1_555
O16_3 C6_6 1_555 1_555
C7_6 C4_6 1_555 1_555
C8_6 C11_6 1_555 1_555
C9_6 C12_6 1_555 1_555
C10_6 C3_6 1_555 1_555
C11_6 H6_6 1_555 1_555
C12_6 H5_6 1_555 1_555
H4_6 C10_6 1_555 1_555
C13_6 C5_6 1_555 1_555
C14_6 C8_6 1_555 1_555
H7_6 C14_6 1_555 1_555
H8_6 C5_6 1_555 1_555
C15_6 O8_2 1_555 1_555
C16_6 O8_4 1_555 1_555
C17_6 O7_6 1_555 1_555
O15_3 C15_6 1_555 1_555
O14 C16_6 1_555 1_555
O16 C17_6 1_555 1_555
C1_6 C6_6 1_555 1_555
C7_6 C10_6 1_555 1_555
C7_6 C15_6 1_555 1_555
C8_6 C17_6 1_555 1_555
C9_6 C14_6 1_555 1_555
C9_6 C16_6 1_555 1_555
C11_6 C13_6 1_555 1_555
C12_6 C13_6 1_555 1_555
Cu4 O1_6 1_555 1_555

#END
