
###############################################################################
#
# This file contains modified crystal structure data generated from the
# MOF subset of the Cambridge Structural Database (CSD) v543 
# hosted by the Cambridge Crystallographic Data Centre (CCDC).
#
# This work is licensed under the Creative Commons
# Attribution-NonCommercial-ShareAlike 4.0 International License.
# To view a copy of this license, visit
# http://creativecommons.org/licenses/by-nc-sa/4.0/
# or send a letter to
# Creative Commons, PO Box 1866, Mountain View, CA 94042, USA.
#
# CIF created using the CSD Python API on 29 September 2022
# The structure has been converted into the P1 space group
# The structure has a 3D framework
# The original CSD entry HOGSIG is in the monoclinic crystal system
# The framework has been calculated to contain at least 10.0% void space
# The void calculation uses a probe of radius 1.32A, grid spacing 0.4
#
###############################################################################

data_HOGSIG
_chemical_formula_moiety         '(C76 H64 N32 Ni11 O32)n'
_symmetry_cell_setting           triclinic
_symmetry_space_group_name_H-M   'P 1'
_symmetry_Int_Tables_number      1
_space_group_name_Hall           'P 1'
loop_
_symmetry_equiv_pos_site_id
_symmetry_equiv_pos_as_xyz
1 x,y,z
_cell_length_a                   18.708(5)
_cell_length_b                   21.503(6)
_cell_length_c                   7.602(2)
_cell_angle_alpha                90
_cell_angle_beta                 107.636(4)
_cell_angle_gamma                90
_cell_volume                     2914.39
loop_
_atom_site_label
_atom_site_type_symbol
_atom_site_fract_x
_atom_site_fract_y
_atom_site_fract_z
Ni6 Ni 0.0000 0.0000 0.5000
Ni6_2 Ni 0.0000 1.0000 0.5000
Ni4 Ni 0.5000 0.5000 0.0000
Ni1 Ni 0.5000 0.08943(4) 0.2500
Ni2 Ni 0.5000 0.5000 0.5000
O2 O 0.38659(19) 0.08459(19) 0.1751(5)
O4 O 0.47686(18) 0.41345(14) 0.3721(4)
N1 N 0.1185(2) 0.01299(18) 0.0579(5)
N2 N 0.5000 0.1845(3) 0.2500
N3 N 0.5000 0.4525(3) 0.7500
N4 N 0.5000 0.3969(3) 0.7500
N5 N 0.5000 0.3432(4) 0.7500
C3 C 0.2749(3) 0.0246(2) 0.1215(6)
C4 C 0.2304(3) 0.0768(2) 0.1185(7)
H5 H 0.2516 0.1163 0.1367
C5 C 0.1533(3) 0.0688(2) 0.0875(7)
H6 H 0.1243 0.1040 0.0874
C6 C 0.3600(3) 0.0300(3) 0.1583(7)
C7 C 0.4541(3) 0.2176(2) 0.3219(8)
H7 H 0.4216 0.1959 0.3712
C8 C 0.4528(3) 0.2826(2) 0.3263(8)
H8 H 0.4208 0.3032 0.3795
C9 C 0.5000 0.3162(3) 0.2500
C10 C 0.5000 0.3872(3) 0.2500
Ni3 Ni 0.0000 0.0000 0.0000
Ni4_2 Ni 0.5000 0.5000 1.0000
Ni6_3 Ni 1.0000 0.0000 0.5000
O5 O 0.50105(19) 0.07983(18) 0.5222(5)
H9 H 0.5383 0.0600 0.5796
H10 H 0.4702 0.0634 0.5514
O6 O 0.61341(19) 0.08459(19) 0.3249(5)
O8 O 0.52314(18) 0.41345(14) 0.1279(4)
O9 O 0.52314(18) 0.58655(14) 0.6279(4)
N6 N 0.8815(2) 0.01299(18) 0.4421(5)
N7 N 0.6185(2) 0.48701(18) 0.5579(5)
N8 N 0.3815(2) 0.51299(18) 0.4421(5)
N9 N 0.5000 0.5475(3) 0.2500
C13 C 0.7251(3) 0.0246(2) 0.3785(6)
C14 C 0.7696(3) 0.0768(2) 0.3815(7)
H13 H 0.7484 0.1163 0.3633
C15 C 0.8467(3) 0.0688(2) 0.4125(7)
H14 H 0.8757 0.1040 0.4126
C16 C 0.6400(3) 0.0300(3) 0.3417(7)
C17 C 0.5459(3) 0.2176(2) 0.1781(8)
H15 H 0.5784 0.1959 0.1288
C18 C 0.5472(3) 0.2826(2) 0.1737(8)
H16 H 0.5792 0.3032 0.1205
O1 O 0.49895(19) 0.07983(18) 0.9778(5)
H1 H 0.4617 0.0600 0.9204
H2 H 0.5298 0.0634 0.9486
Ni3_2 Ni 0.0000 0.0000 1.0000
O3 O 0.3979(2) 0.9799(2) 0.1707(6)
C1 C 0.1625(3) 0.9622(2) 0.0619(7)
H3 H 0.1401 0.9231 0.0428
C2 C 0.2398(3) 0.9662(2) 0.0934(7)
H4 H 0.2679 0.9304 0.0958
Ni3_3 Ni 0.0000 1.0000 0.0000
Ni6_4 Ni 1.0000 1.0000 0.5000
O7 O 0.6021(2) 0.9799(2) 0.3293(6)
C11 C 0.8375(3) 0.9622(2) 0.4381(7)
H11 H 0.8599 0.9231 0.4572
C12 C 0.7602(3) 0.9662(2) 0.4066(7)
H12 H 0.7321 0.9304 0.4042
Ni3_4 Ni 0.0000 1.0000 1.0000
Ni3_5 Ni 1.0000 0.0000 0.0000
Ni3_6 Ni 1.0000 0.0000 1.0000
Ni3_7 Ni 1.0000 1.0000 0.0000
Ni3_8 Ni 1.0000 1.0000 1.0000
O9_2 O 0.02314(18) 0.08655(14) 0.6279(4)
N9_2 N -0.0000 0.0475(3) 0.2500
Ni1_2 Ni 0.0000 0.58943(4) 0.2500
N2_2 N -0.0000 0.6845(3) 0.2500
N3_2 N -0.0000 0.9525(3) 0.7500
N4_2 N -0.0000 0.8969(3) 0.7500
N5_2 N -0.0000 0.8432(4) 0.7500
C9_2 C 0.0000 0.8162(3) 0.2500
C10_2 C 0.0000 0.8872(3) 0.2500
O5_2 O 0.00105(19) 0.57983(18) 0.5222(5)
H9_2 H 0.0383 0.5600 0.5796
O6_2 O 0.11341(19) 0.58459(19) 0.3249(5)
O7_2 O 0.1021(2) 0.4799(2) 0.3293(6)
O8_2 O 0.02314(18) 0.91345(14) 0.1279(4)
N7_2 N 0.1185(2) 0.98701(18) 0.5579(5)
C11_2 C 0.3375(3) 0.4622(2) 0.4381(7)
H11_2 H 0.3599 0.4231 0.4572
C12_2 C 0.2602(3) 0.4662(2) 0.4066(7)
H12_2 H 0.2321 0.4304 0.4042
C13_2 C 0.2251(3) 0.5246(2) 0.3785(6)
C14_2 C 0.2696(3) 0.5768(2) 0.3815(7)
H13_2 H 0.2484 0.6163 0.3633
C15_2 C 0.3467(3) 0.5688(2) 0.4125(7)
H14_2 H 0.3757 0.6040 0.4126
C16_2 C 0.1400(3) 0.5300(3) 0.3417(7)
C17_2 C 0.0459(3) 0.7176(2) 0.1781(8)
H15_2 H 0.0784 0.6959 0.1288
C18_2 C 0.0472(3) 0.7826(2) 0.1737(8)
H16_2 H 0.0792 0.8032 0.1205
H2_2 H 0.0298 0.5634 0.9486
N9_3 N 1.0000 0.0475(3) 0.2500
Ni1_3 Ni 1.0000 0.58943(4) 0.2500
O2_2 O 0.88659(19) 0.58459(19) 0.1751(5)
O3_2 O 0.8979(2) 0.4799(2) 0.1707(6)
O4_2 O 0.97686(18) 0.91345(14) 0.3721(4)
N1_2 N 0.6185(2) 0.51299(18) 0.0579(5)
N2_3 N 1.0000 0.6845(3) 0.2500
N3_3 N 1.0000 0.9525(3) 0.7500
N4_3 N 1.0000 0.8969(3) 0.7500
N5_3 N 1.0000 0.8432(4) 0.7500
C1_2 C 0.6625(3) 0.4622(2) 0.0619(7)
H3_2 H 0.6401 0.4231 0.0428
C2_2 C 0.7398(3) 0.4662(2) 0.0934(7)
H4_2 H 0.7679 0.4304 0.0958
C3_2 C 0.7749(3) 0.5246(2) 0.1215(6)
C4_2 C 0.7304(3) 0.5768(2) 0.1185(7)
H5_2 H 0.7516 0.6163 0.1367
C5_2 C 0.6533(3) 0.5688(2) 0.0875(7)
H6_2 H 0.6243 0.6040 0.0874
C6_2 C 0.8600(3) 0.5300(3) 0.1583(7)
C7_2 C 0.9541(3) 0.7176(2) 0.3219(8)
H7_2 H 0.9216 0.6959 0.3712
C8_2 C 0.9528(3) 0.7826(2) 0.3263(8)
H8_2 H 0.9208 0.8032 0.3795
C9_3 C 1.0000 0.8162(3) 0.2500
C10_3 C 1.0000 0.8872(3) 0.2500
H10_2 H 0.9702 0.5634 0.5514
O1_2 O 0.99895(19) 0.57983(18) 0.9778(5)
H1_2 H 0.9617 0.5600 0.9204
O9_3 O 0.47686(18) 0.58655(14) 0.8721(4)
N7_3 N 0.3815(2) 0.48701(18) 0.9421(5)
O9_4 O 0.97686(18) 0.08655(14) 0.8721(4)
N7_4 N 0.8815(2) 0.98701(18) 0.9421(5)
O3_3 O 0.6021(2) 0.0201(2) 0.8293(6)
C1_3 C 0.8375(3) 0.0378(2) 0.9381(7)
H3_3 H 0.8599 0.0769 0.9572
C2_3 C 0.7602(3) 0.0338(2) 0.9066(7)
H4_3 H 0.7321 0.0696 0.9042
O7_3 O 0.3979(2) 0.0201(2) 0.6707(6)
C11_3 C 0.1625(3) 0.0378(2) 0.5619(7)
H11_3 H 0.1401 0.0769 0.5428
C12_3 C 0.2398(3) 0.0338(2) 0.5934(7)
H12_3 H 0.2679 0.0696 0.5958
O1_3 O 0.50105(19) 0.92017(18) 0.0222(5)
H1_3 H 0.5383 0.9400 0.0796
H2_3 H 0.4702 0.9366 0.0514
Ni1_4 Ni 0.5000 0.91057(4) 0.7500
O2_3 O 0.61341(19) 0.91541(19) 0.8249(5)
N2_4 N 0.5000 0.8155(3) 0.7500
N4_4 N 0.5000 0.6031(3) 0.2500
N5_4 N 0.5000 0.6568(4) 0.2500
C3_3 C 0.7251(3) 0.9754(2) 0.8785(6)
C4_3 C 0.7696(3) 0.9232(2) 0.8815(7)
H5_3 H 0.7484 0.8837 0.8633
C5_3 C 0.8467(3) 0.9312(2) 0.9125(7)
H6_3 H 0.8757 0.8960 0.9126
C6_3 C 0.6400(3) 0.9700(3) 0.8417(7)
C7_3 C 0.5459(3) 0.7824(2) 0.6781(8)
H7_3 H 0.5784 0.8041 0.6288
C8_3 C 0.5472(3) 0.7174(2) 0.6737(8)
H8_3 H 0.5792 0.6968 0.6205
C9_4 C 0.5000 0.6838(3) 0.7500
C10_4 C 0.5000 0.6128(3) 0.7500
O5_3 O 0.49895(19) 0.92017(18) 0.4778(5)
H9_3 H 0.4617 0.9400 0.4204
H10_3 H 0.5298 0.9366 0.4486
O6_3 O 0.38659(19) 0.91541(19) 0.6751(5)
C13_3 C 0.2749(3) 0.9754(2) 0.6215(6)
C14_3 C 0.2304(3) 0.9232(2) 0.6185(7)
H13_3 H 0.2516 0.8837 0.6367
C15_3 C 0.1533(3) 0.9312(2) 0.5875(7)
H14_3 H 0.1243 0.8960 0.5874
C16_3 C 0.3600(3) 0.9700(3) 0.6583(7)
C17_3 C 0.4541(3) 0.7824(2) 0.8219(8)
H15_3 H 0.4216 0.8041 0.8712
C18_3 C 0.4528(3) 0.7174(2) 0.8263(8)
H16_3 H 0.4208 0.6968 0.8795
O1_4 O 0.00105(19) 0.42017(18) 0.0222(5)
H1_4 H 0.0383 0.4400 0.0796
Ni1_5 Ni -0.0000 0.41057(4) 0.7500
O2_4 O 0.11341(19) 0.41541(19) 0.8249(5)
O3_4 O 0.1021(2) 0.5201(2) 0.8293(6)
N2_5 N -0.0000 0.3155(3) 0.7500
N4_5 N 0.0000 0.1031(3) 0.2500
N5_5 N 0.0000 0.1568(4) 0.2500
C1_4 C 0.3375(3) 0.5378(2) 0.9381(7)
H3_4 H 0.3599 0.5769 0.9572
C2_4 C 0.2602(3) 0.5338(2) 0.9066(7)
H4_4 H 0.2321 0.5696 0.9042
C3_4 C 0.2251(3) 0.4754(2) 0.8785(6)
C4_4 C 0.2696(3) 0.4232(2) 0.8815(7)
H5_4 H 0.2484 0.3837 0.8633
C5_4 C 0.3467(3) 0.4312(2) 0.9125(7)
H6_4 H 0.3757 0.3960 0.9126
C6_4 C 0.1400(3) 0.4700(3) 0.8417(7)
C7_4 C 0.0459(3) 0.2824(2) 0.6781(8)
H7_4 H 0.0784 0.3041 0.6288
C8_4 C 0.0472(3) 0.2174(2) 0.6737(8)
H8_4 H 0.0792 0.1968 0.6205
C9_5 C -0.0000 0.1838(3) 0.7500
C10_5 C -0.0000 0.1128(3) 0.7500
H10_4 H 0.0298 0.4366 0.4486
H2_4 H 0.9702 0.4366 0.0514
Ni1_6 Ni 1.0000 0.41057(4) 0.7500
N2_6 N 1.0000 0.3155(3) 0.7500
N4_6 N 1.0000 0.1031(3) 0.2500
N5_6 N 1.0000 0.1568(4) 0.2500
C9_6 C 1.0000 0.1838(3) 0.7500
C10_6 C 1.0000 0.1128(3) 0.7500
O5_4 O 0.99895(19) 0.42017(18) 0.4778(5)
H9_4 H 0.9617 0.4400 0.4204
O6_4 O 0.88659(19) 0.41541(19) 0.6751(5)
O7_4 O 0.8979(2) 0.5201(2) 0.6707(6)
C11_4 C 0.6625(3) 0.5378(2) 0.5619(7)
H11_4 H 0.6401 0.5769 0.5428
C12_4 C 0.7398(3) 0.5338(2) 0.5934(7)
H12_4 H 0.7679 0.5696 0.5958
C13_4 C 0.7749(3) 0.4754(2) 0.6215(6)
C14_4 C 0.7304(3) 0.4232(2) 0.6185(7)
H13_4 H 0.7516 0.3837 0.6367
C15_4 C 0.6533(3) 0.4312(2) 0.5875(7)
H14_4 H 0.6243 0.3960 0.5874
C16_4 C 0.8600(3) 0.4700(3) 0.6583(7)
C17_4 C 0.9541(3) 0.2824(2) 0.8219(8)
H15_4 H 0.9216 0.3041 0.8712
C18_4 C 0.9528(3) 0.2174(2) 0.8263(8)
H16_4 H 0.9208 0.1968 0.8795
loop_
_geom_bond_atom_site_label_1
_geom_bond_atom_site_label_2
_geom_bond_site_symmetry_1
_geom_bond_site_symmetry_2
Ni2 O4 1_555 1_555
O2 Ni1 1_555 1_555
O4 C10 1_555 1_555
N2 Ni1 1_555 1_555
N3 Ni2 1_555 1_555
N4 N3 1_555 1_555
N5 N4 1_555 1_555
C4 C3 1_555 1_555
H5 C4 1_555 1_555
C5 N1 1_555 1_555
H6 C5 1_555 1_555
C6 O2 1_555 1_555
C7 N2 1_555 1_555
H7 C7 1_555 1_555
C8 C7 1_555 1_555
H8 C8 1_555 1_555
C9 C8 1_555 1_555
C10 C9 1_555 1_555
Ni3 N1 1_555 1_555
Ni4_2 N3 1_555 1_555
Ni4 O8 1_555 1_555
Ni6_3 N6 1_555 1_555
O5 Ni1 1_555 1_555
H9 O5 1_555 1_555
H10 O5 1_555 1_555
O6 Ni1 1_555 1_555
O8 C10 1_555 1_555
O9 Ni2 1_555 1_555
N7 Ni2 1_555 1_555
N8 Ni2 1_555 1_555
N9 Ni2 1_555 1_555
C14 C13 1_555 1_555
H13 C14 1_555 1_555
C15 N6 1_555 1_555
H14 C15 1_555 1_555
C16 O6 1_555 1_555
C17 N2 1_555 1_555
H15 C17 1_555 1_555
C18 C9 1_555 1_555
H16 C18 1_555 1_555
C3 C6 1_555 1_555
C4 C5 1_555 1_555
Ni4 N9 1_555 1_555
C13 C16 1_555 1_555
C14 C15 1_555 1_555
C17 C18 1_555 1_555
O1 H1 1_555 1_555
H2 O1 1_555 1_555
C1 H3 1_555 1_555
C2 C1 1_555 1_555
H4 C2 1_555 1_555
C11 H11 1_555 1_555
C12 C11 1_555 1_555
H12 C12 1_555 1_555
O9_2 Ni6 1_555 1_555
N9_2 Ni6 1_555 1_555
Ni3 N9_2 1_555 1_555
N2_2 Ni1_2 1_555 1_555
N3_2 Ni6_2 1_555 1_555
N4_2 N3_2 1_555 1_555
N5_2 N4_2 1_555 1_555
C10_2 C9_2 1_555 1_555
Ni3_4 N3_2 1_555 1_555
Ni3_3 O8_2 1_555 1_555
O5_2 Ni1_2 1_555 1_555
H9_2 O5_2 1_555 1_555
O6_2 Ni1_2 1_555 1_555
O7_2 C16_2 1_555 1_555
O8_2 C10_2 1_555 1_555
N8 C11_2 1_555 1_555
N7_2 Ni6_2 1_555 1_555
C11_2 H11_2 1_555 1_555
C12_2 C11_2 1_555 1_555
H12_2 C12_2 1_555 1_555
C13_2 C12_2 1_555 1_555
C14_2 C13_2 1_555 1_555
H13_2 C14_2 1_555 1_555
C15_2 N8 1_555 1_555
H14_2 C15_2 1_555 1_555
C16_2 O6_2 1_555 1_555
C17_2 N2_2 1_555 1_555
H15_2 C17_2 1_555 1_555
C18_2 C9_2 1_555 1_555
H16_2 C18_2 1_555 1_555
C13_2 C16_2 1_555 1_555
C14_2 C15_2 1_555 1_555
C17_2 C18_2 1_555 1_555
N9_3 Ni6_3 1_555 1_555
Ni3_5 N9_3 1_555 1_555
Ni6_4 O4_2 1_555 1_555
O2_2 Ni1_3 1_555 1_555
O3_2 C6_2 1_555 1_555
O4_2 C10_3 1_555 1_555
N1_2 C1_2 1_555 1_555
N2_3 Ni1_3 1_555 1_555
N3_3 Ni6_4 1_555 1_555
N4_3 N3_3 1_555 1_555
N5_3 N4_3 1_555 1_555
C1_2 H3_2 1_555 1_555
C2_2 C1_2 1_555 1_555
H4_2 C2_2 1_555 1_555
C3_2 C2_2 1_555 1_555
C4_2 C3_2 1_555 1_555
H5_2 C4_2 1_555 1_555
C5_2 N1_2 1_555 1_555
H6_2 C5_2 1_555 1_555
C6_2 O2_2 1_555 1_555
C7_2 N2_3 1_555 1_555
H7_2 C7_2 1_555 1_555
C8_2 C7_2 1_555 1_555
H8_2 C8_2 1_555 1_555
C9_3 C8_2 1_555 1_555
C10_3 C9_3 1_555 1_555
Ni4 N1_2 1_555 1_555
Ni3_8 N3_3 1_555 1_555
C3_2 C6_2 1_555 1_555
C4_2 C5_2 1_555 1_555
O1_2 H1_2 1_555 1_555
O9_3 Ni4_2 1_555 1_555
N7_3 Ni4_2 1_555 1_555
O9_4 Ni3_6 1_555 1_555
N7_4 Ni3_8 1_555 1_555
C1_3 H3_3 1_555 1_555
C2_3 C1_3 1_555 1_555
H4_3 C2_3 1_555 1_555
C11_3 H11_3 1_555 1_555
C12_3 C11_3 1_555 1_555
H12_3 C12_3 1_555 1_555
O1_3 H1_3 1_555 1_555
H2_3 O1_3 1_555 1_555
O2_3 Ni1_4 1_555 1_555
O9 C10_4 1_555 1_555
N2_4 Ni1_4 1_555 1_555
N4_4 N9 1_555 1_555
N5_4 N4_4 1_555 1_555
C4_3 C3_3 1_555 1_555
H5_3 C4_3 1_555 1_555
C5_3 N7_4 1_555 1_555
H6_3 C5_3 1_555 1_555
C6_3 O2_3 1_555 1_555
C7_3 N2_4 1_555 1_555
H7_3 C7_3 1_555 1_555
C8_3 C7_3 1_555 1_555
H8_3 C8_3 1_555 1_555
C9_4 C8_3 1_555 1_555
C10_4 C9_4 1_555 1_555
O5_3 Ni1_4 1_555 1_555
H9_3 O5_3 1_555 1_555
H10_3 O5_3 1_555 1_555
O6_3 Ni1_4 1_555 1_555
O9_3 C10_4 1_555 1_555
C14_3 C13_3 1_555 1_555
H13_3 C14_3 1_555 1_555
C15_3 N7_2 1_555 1_555
H14_3 C15_3 1_555 1_555
C16_3 O6_3 1_555 1_555
C17_3 N2_4 1_555 1_555
H15_3 C17_3 1_555 1_555
C18_3 C9_4 1_555 1_555
H16_3 C18_3 1_555 1_555
C3_3 C6_3 1_555 1_555
C4_3 C5_3 1_555 1_555
C13_3 C16_3 1_555 1_555
C14_3 C15_3 1_555 1_555
C17_3 C18_3 1_555 1_555
O1_4 H1_4 1_555 1_555
O2_4 Ni1_5 1_555 1_555
O3_4 C6_4 1_555 1_555
O9_2 C10_5 1_555 1_555
N7_3 C1_4 1_555 1_555
N2_5 Ni1_5 1_555 1_555
N4_5 N9_2 1_555 1_555
N5_5 N4_5 1_555 1_555
C1_4 H3_4 1_555 1_555
C2_4 C1_4 1_555 1_555
H4_4 C2_4 1_555 1_555
C3_4 C2_4 1_555 1_555
C4_4 C3_4 1_555 1_555
H5_4 C4_4 1_555 1_555
C5_4 N7_3 1_555 1_555
H6_4 C5_4 1_555 1_555
C6_4 O2_4 1_555 1_555
C7_4 N2_5 1_555 1_555
H7_4 C7_4 1_555 1_555
C8_4 C7_4 1_555 1_555
H8_4 C8_4 1_555 1_555
C9_5 C8_4 1_555 1_555
C10_5 C9_5 1_555 1_555
C3_4 C6_4 1_555 1_555
C4_4 C5_4 1_555 1_555
N2_6 Ni1_6 1_555 1_555
N4_6 N9_3 1_555 1_555
N5_6 N4_6 1_555 1_555
C10_6 C9_6 1_555 1_555
O5_4 Ni1_6 1_555 1_555
H9_4 O5_4 1_555 1_555
O6_4 Ni1_6 1_555 1_555
O7_4 C16_4 1_555 1_555
O9_4 C10_6 1_555 1_555
N7 C11_4 1_555 1_555
C11_4 H11_4 1_555 1_555
C12_4 C11_4 1_555 1_555
H12_4 C12_4 1_555 1_555
C13_4 C12_4 1_555 1_555
C14_4 C13_4 1_555 1_555
H13_4 C14_4 1_555 1_555
C15_4 N7 1_555 1_555
H14_4 C15_4 1_555 1_555
C16_4 O6_4 1_555 1_555
C17_4 N2_6 1_555 1_555
H15_4 C17_4 1_555 1_555
C18_4 C9_6 1_555 1_555
H16_4 C18_4 1_555 1_555
C13_4 C16_4 1_555 1_555
C14_4 C15_4 1_555 1_555
C17_4 C18_4 1_555 1_555

#END
