
###############################################################################
#
# This file contains modified crystal structure data generated from the
# MOF subset of the Cambridge Structural Database (CSD) v543 
# hosted by the Cambridge Crystallographic Data Centre (CCDC).
#
# This work is licensed under the Creative Commons
# Attribution-NonCommercial-ShareAlike 4.0 International License.
# To view a copy of this license, visit
# http://creativecommons.org/licenses/by-nc-sa/4.0/
# or send a letter to
# Creative Commons, PO Box 1866, Mountain View, CA 94042, USA.
#
# CIF created using the CSD Python API on 29 September 2022
# The structure has been converted into the P1 space group
# The structure has a 3D framework
# The original CSD entry HOGTOM is in the trigonal crystal system
# The framework has been calculated to contain at least 10.0% void space
# The void calculation uses a probe of radius 1.32A, grid spacing 0.4
# H atom positions have been added when not included in the experimental data
#
###############################################################################

data_HOGTOM
_chemical_formula_moiety         '(C48 H60 Cu9 N12 O48 Pr12)n'
_symmetry_cell_setting           triclinic
_symmetry_space_group_name_H-M   'P 1'
_symmetry_Int_Tables_number      1
_space_group_name_Hall           'P 1'
loop_
_symmetry_equiv_pos_site_id
_symmetry_equiv_pos_as_xyz
1 x,y,z
_cell_length_a                   13.424(4)
_cell_length_b                   13.424(4)
_cell_length_c                   14.752(6)
_cell_angle_alpha                90
_cell_angle_beta                 90
_cell_angle_gamma                120
_cell_volume                     2302.21
loop_
_atom_site_label
_atom_site_type_symbol
_atom_site_fract_x
_atom_site_fract_y
_atom_site_fract_z
Cu2 Cu 0.5000 0.0000 0.00000
N4 N 0.3876(7) 0.0396(10) 0.0570(7)
O12 O 0.5993(7) 0.0705(10) 0.1045(7)
Cu2_2 Cu 0.5000 0.0000 1.00000
O11 O 0.5490(7) 0.1876(10) 0.9407(7)
Cu5 Cu 0.5000 -0.0000 0.50000
H6 H 0.683351 0.0342244 0.923255
H25 H 0.350873 0.0342244 0.423255
Pr1 Pr 0.333 0.666 0.16880(7)
Cu1 Cu 0.5000 0.5000 0.00000
O1 O 0.1985(7) 0.4424(7) 0.1278(6)
O2 O 0.3614(7) 0.5490(7) 0.0593(7)
C1 C 0.2706(9) 0.4495(9) 0.0699(9)
C2 C 0.2568(9) 0.354(1) 0.008(1)
N2 N 0.6520(7) 0.6124(7) 0.0570(7)
O6 O 0.4712(7) 0.4007(7) 0.1045(7)
Cu2_3 Cu 0.5000 1.0000 0.00000
O7 O 0.5576(7) 0.7561(10) 0.1278(6)
O8 O 0.4510(7) 0.8124(10) 0.0593(7)
C5 C 0.5505(9) 0.8211(13) 0.0699(9)
C6 C 0.646(1) 0.9028(13) 0.008(1)
Cu3 Cu -0.0000 0.5000 0.00000
O13 O 0.2439(10) 0.8015(7) 0.1278(6)
O14 O 0.1876(10) 0.6386(7) 0.0593(7)
C9 C 0.1789(13) 0.7294(9) 0.0699(9)
C10 C 0.0972(13) 0.7432(9) 0.008(1)
O19 O 0.3856(7) 0.5637(7) 0.2740(7)
O20 O 0.4363(7) 0.8219(10) 0.2740(7)
O21 O 0.1781(10) 0.6144(7) 0.2740(7)
H4 H 0.714715 0.967863 0.0496694
H9 H 0.0321369 0.746852 0.0496694
H13 H 0.253148 0.285285 0.0496694
Cu1_2 Cu 0.5000 0.5000 1.00000
O3 O 0.4363(7) 0.6144(7) 0.7740(7)
O4 O 0.5288(7) 0.5993(7) 0.8955(7)
N1 N 0.3480(7) 0.3876(7) 0.9430(7)
C3 C 0.339(1) 0.448(1) 0.860(1)
C4 C 0.4362(9) 0.5591(9) 0.8420(8)
O5 O 0.6386(7) 0.4510(7) 0.9407(7)
Cu2_4 Cu 0.5000 1.0000 1.00000
O9 O 0.3856(7) 0.8219(10) 0.7740(7)
O10 O 0.4007(7) 0.9295(10) 0.8955(7)
N3 N 0.6124(7) 0.9604(10) 0.9430(7)
C7 C 0.552(1) 0.891(1) 0.860(1)
C8 C 0.4409(9) 0.8771(13) 0.8420(8)
Cu3_2 Cu -0.0000 0.5000 1.00000
O15 O 0.1781(10) 0.5637(7) 0.7740(7)
O16 O 0.0705(10) 0.4712(7) 0.8955(7)
N5 N 0.0396(10) 0.6520(7) 0.9430(7)
C11 C 0.109(1) 0.661(1) 0.860(1)
C12 C 0.1229(13) 0.5638(9) 0.8420(8)
Pr2 Pr 0.334 0.667 0.66880(7)
Cu4 Cu 0.5000 0.5000 0.50000
O22 O 0.4510(7) 0.6386(7) 0.5593(7)
C13 C 0.5505(9) 0.7294(9) 0.5699(9)
O23 O 0.5576(7) 0.8015(7) 0.6278(6)
C14 C 0.646(1) 0.7432(9) 0.508(1)
N7 N 0.6124(7) 0.6520(7) 0.4430(7)
O24 O 0.4007(7) 0.4712(7) 0.3955(7)
C15 C 0.4409(9) 0.5638(9) 0.3420(8)
C16 C 0.552(1) 0.661(1) 0.360(1)
Cu5_2 Cu 0.5000 1.0000 0.50000
O26 O 0.3614(7) 0.8124(10) 0.5593(7)
C17 C 0.2706(9) 0.8211(13) 0.5699(9)
O27 O 0.1985(7) 0.7561(10) 0.6278(6)
C18 C 0.2568(9) 0.9028(13) 0.508(1)
N8 N 0.3480(7) 0.9604(10) 0.4430(7)
O28 O 0.5288(7) 0.9295(10) 0.3955(7)
C19 C 0.4362(9) 0.8771(13) 0.3420(8)
C20 C 0.339(1) 0.891(1) 0.360(1)
Cu6 Cu -0.0000 0.5000 0.50000
O30 O 0.1876(10) 0.5490(7) 0.5593(7)
C21 C 0.1789(13) 0.4495(9) 0.5699(9)
O31 O 0.2439(10) 0.4424(7) 0.6278(6)
C22 C 0.0972(13) 0.354(1) 0.508(1)
N9 N 0.0396(10) 0.3876(7) 0.4430(7)
O32 O 0.0705(10) 0.5993(7) 0.3955(7)
C23 C 0.1229(13) 0.5591(9) 0.3420(8)
C24 C 0.109(1) 0.448(1) 0.360(1)
H1 H 0.714715 0.746852 0.549669
H2 H 0.67793 0.823779 0.471133
H3 H 0.683351 0.649127 0.423255
H5 H 0.67793 0.854151 0.971133
H7 H 0.350873 0.316649 0.923255
H10 H 0.145849 0.823779 0.971133
H11 H 0.264007 0.45829 0.868114
H12 H 0.32667 0.393393 0.801588
H14 H 0.176221 0.32207 0.971133
H15 H 0.54171 0.805717 0.868114
H16 H 0.606607 0.933276 0.801588
H17 H 0.194283 0.735993 0.868114
H18 H 0.0667237 0.67333 0.801588
H19 H 0.606607 0.67333 0.301588
H20 H 0.54171 0.735993 0.368114
H21 H 0.0667237 0.393393 0.301588
H22 H 0.194283 0.45829 0.368114
H23 H 0.0321369 0.285285 0.549669
H24 H 0.145849 0.32207 0.471133
H27 H 0.253148 0.967863 0.549669
H28 H 0.176221 0.854151 0.471133
H29 H 0.32667 0.933276 0.301588
H30 H 0.264007 0.805717 0.368114
Cu3_3 Cu 1.0000 0.5000 0.00000
N6 N 0.9604(10) 0.3480(7) 0.0570(7)
O18 O 0.9295(10) 0.5288(7) 0.1045(7)
Cu3_4 Cu 1.0000 0.5000 1.00000
O17 O 0.8124(10) 0.3614(7) 0.9407(7)
Cu6_2 Cu 1.0000 0.5000 0.50000
H8 H 0.965776 0.649127 0.923255
H26 H 0.965776 0.316649 0.423255
Pr1_2 Pr 0.334 0.667 0.16880(7)
Pr2_2 Pr 0.333 0.667 0.66880(7)
H25_2 H 0.0342244 0.350873 0.0767446
H6_2 H 0.0342244 0.683351 0.576745
C15_2 C 0.5638(9) 0.4409(9) 0.1580(8)
O25 O 0.5637(7) 0.3856(7) 0.2260(7)
C16_2 C 0.661(1) 0.552(1) 0.140(1)
C19_2 C 0.8771(13) 0.4362(9) 0.1580(8)
O29 O 0.8219(10) 0.4363(7) 0.2260(7)
C20_2 C 0.891(1) 0.339(1) 0.140(1)
C23_2 C 0.5591(9) 0.1229(13) 0.1580(8)
O33 O 0.6144(7) 0.1781(10) 0.2260(7)
C24_2 C 0.448(1) 0.109(1) 0.140(1)
Pr3 Pr 0.666 0.333 0.33120(7)
H2_2 H 0.823779 0.67793 0.0288667
H3_2 H 0.649127 0.683351 0.0767446
H19_2 H 0.67333 0.606607 0.198412
H20_2 H 0.735993 0.54171 0.131886
H21_2 H 0.393393 0.0667237 0.198412
H22_2 H 0.45829 0.194283 0.131886
H24_2 H 0.32207 0.145849 0.0288667
H28_2 H 0.854151 0.176221 0.0288667
H29_2 H 0.933276 0.32667 0.198412
H30_2 H 0.805717 0.264007 0.131886
O1_2 O 0.4424(7) 0.1985(7) 0.3722(6)
O2_2 O 0.5490(7) 0.3614(7) 0.4407(7)
O3_2 O 0.6144(7) 0.4363(7) 0.7260(7)
O4_2 O 0.5993(7) 0.5288(7) 0.6045(7)
N1_2 N 0.3876(7) 0.3480(7) 0.5570(7)
C1_2 C 0.4495(9) 0.2706(9) 0.4301(9)
C2_2 C 0.354(1) 0.2568(9) 0.492(1)
C3_2 C 0.448(1) 0.339(1) 0.640(1)
C4_2 C 0.5591(9) 0.4362(9) 0.6580(8)
O7_2 O 0.7561(10) 0.5576(7) 0.3722(6)
O8_2 O 0.8124(10) 0.4510(7) 0.4407(7)
O9_2 O 0.8219(10) 0.3856(7) 0.7260(7)
O10_2 O 0.9295(10) 0.4007(7) 0.6045(7)
N3_2 N 0.9604(10) 0.6124(7) 0.5570(7)
C5_2 C 0.8211(13) 0.5505(9) 0.4301(9)
C6_2 C 0.9028(13) 0.646(1) 0.492(1)
C7_2 C 0.891(1) 0.552(1) 0.640(1)
C8_2 C 0.8771(13) 0.4409(9) 0.6580(8)
O13_2 O 0.8015(7) 0.2439(10) 0.3722(6)
O14_2 O 0.6386(7) 0.1876(10) 0.4407(7)
O15_2 O 0.5637(7) 0.1781(10) 0.7260(7)
O16_2 O 0.4712(7) 0.0705(10) 0.6045(7)
N5_2 N 0.6520(7) 0.0396(10) 0.5570(7)
C9_2 C 0.7294(9) 0.1789(13) 0.4301(9)
C10_2 C 0.7432(9) 0.0972(13) 0.492(1)
C11_2 C 0.661(1) 0.109(1) 0.640(1)
C12_2 C 0.5638(9) 0.1229(13) 0.6580(8)
Pr2_3 Pr 0.667 0.334 0.83120(7)
C13_2 C 0.7294(9) 0.5505(9) 0.9301(9)
O23_2 O 0.8015(7) 0.5576(7) 0.8722(6)
C14_2 C 0.7432(9) 0.646(1) 0.992(1)
C17_2 C 0.8211(13) 0.2706(9) 0.9301(9)
O27_2 O 0.7561(10) 0.1985(7) 0.8722(6)
C18_2 C 0.9028(13) 0.2568(9) 0.992(1)
C21_2 C 0.4495(9) 0.1789(13) 0.9301(9)
O31_2 O 0.4424(7) 0.2439(10) 0.8722(6)
C22_2 C 0.354(1) 0.0972(13) 0.992(1)
H1_2 H 0.746852 0.714715 0.950331
H4_2 H 0.967863 0.714715 0.450331
H5_2 H 0.854151 0.67793 0.528867
H7_2 H 0.316649 0.350873 0.576745
H9_2 H 0.746852 0.0321369 0.450331
H10_2 H 0.823779 0.145849 0.528867
H11_2 H 0.45829 0.264007 0.631886
H12_2 H 0.393393 0.32667 0.698412
H13_2 H 0.285285 0.253148 0.450331
H14_2 H 0.32207 0.176221 0.528867
H15_2 H 0.805717 0.54171 0.631886
H16_2 H 0.933276 0.606607 0.698412
H17_2 H 0.735993 0.194283 0.631886
H18_2 H 0.67333 0.0667237 0.698412
H23_2 H 0.285285 0.0321369 0.950331
H27_2 H 0.967863 0.253148 0.950331
H26_2 H 0.316649 0.965776 0.0767446
H8_2 H 0.649127 0.965776 0.576745
Pr1_3 Pr 0.333 0.667 0.16880(7)
Pr2_4 Pr 0.333 0.666 0.66880(7)
Pr3_2 Pr 0.667 0.333 0.33120(7)
Pr2_5 Pr 0.666 0.333 0.83120(7)
Pr3_3 Pr 0.667 0.334 0.33120(7)
Pr2_6 Pr 0.667 0.333 0.83120(7)
loop_
_geom_bond_atom_site_label_1
_geom_bond_atom_site_label_2
_geom_bond_site_symmetry_1
_geom_bond_site_symmetry_2
N4 Cu2 1_555 1_555
O12 Cu2 1_555 1_555
O11 Cu2_2 1_555 1_555
Pr1 O1 1_555 1_555
Cu1 O2 1_555 1_555
O1 C1 1_555 1_555
O2 Pr1 1_555 1_555
C1 O2 1_555 1_555
N2 Cu1 1_555 1_555
O6 Cu1 1_555 1_555
Cu2_3 O8 1_555 1_555
O7 Pr1 1_555 1_555
O8 Pr1 1_555 1_555
C5 O7 1_555 1_555
Cu3 O14 1_555 1_555
O13 Pr1 1_555 1_555
O14 Pr1 1_555 1_555
C9 O13 1_555 1_555
O19 Pr1 1_555 1_555
O20 Pr1 1_555 1_555
O21 Pr1 1_555 1_555
C1 C2 1_555 1_555
O8 C5 1_555 1_555
C5 C6 1_555 1_555
O14 C9 1_555 1_555
C9 C10 1_555 1_555
C6 H4 1_555 1_555
C10 H9 1_555 1_555
C2 H13 1_555 1_555
O3 C4 1_555 1_555
O4 Cu1_2 1_555 1_555
N1 Cu1_2 1_555 1_555
C3 N1 1_555 1_555
C4 O4 1_555 1_555
O5 Cu1_2 1_555 1_555
O9 C8 1_555 1_555
O10 Cu2_4 1_555 1_555
N3 Cu2_4 1_555 1_555
C7 N3 1_555 1_555
C8 O10 1_555 1_555
O15 C12 1_555 1_555
O16 Cu3_2 1_555 1_555
N5 Cu3_2 1_555 1_555
C11 N5 1_555 1_555
C12 O16 1_555 1_555
Pr2 O3 1_555 1_555
Cu4 O22 1_555 1_555
O22 Pr2 1_555 1_555
C13 O22 1_555 1_555
O23 Pr2 1_555 1_555
C14 C13 1_555 1_555
N7 Cu4 1_555 1_555
O24 Cu4 1_555 1_555
C15 O24 1_555 1_555
O19 C15 1_555 1_555
C16 N7 1_555 1_555
Cu5_2 O26 1_555 1_555
O26 Pr2 1_555 1_555
C17 O26 1_555 1_555
O27 Pr2 1_555 1_555
C18 C17 1_555 1_555
N8 Cu5_2 1_555 1_555
O28 Cu5_2 1_555 1_555
C19 O28 1_555 1_555
O20 C19 1_555 1_555
C20 N8 1_555 1_555
Cu6 O30 1_555 1_555
O30 Pr2 1_555 1_555
C21 O30 1_555 1_555
O31 Pr2 1_555 1_555
C22 C21 1_555 1_555
N9 Cu6 1_555 1_555
O32 Cu6 1_555 1_555
C23 O32 1_555 1_555
O21 C23 1_555 1_555
C24 N9 1_555 1_555
C3 C4 1_555 1_555
O9 Pr2 1_555 1_555
C7 C8 1_555 1_555
O15 Pr2 1_555 1_555
C11 C12 1_555 1_555
C13 O23 1_555 1_555
C14 N7 1_555 1_555
C15 C16 1_555 1_555
C17 O27 1_555 1_555
C18 N8 1_555 1_555
C19 C20 1_555 1_555
C21 O31 1_555 1_555
C22 N9 1_555 1_555
C23 C24 1_555 1_555
C14 H1 1_555 1_555
C14 H2 1_555 1_555
N7 H3 1_555 1_555
N1 H7 1_555 1_555
C3 H11 1_555 1_555
C3 H12 1_555 1_555
C7 H15 1_555 1_555
C7 H16 1_555 1_555
C11 H17 1_555 1_555
C11 H18 1_555 1_555
C16 H19 1_555 1_555
C16 H20 1_555 1_555
C24 H21 1_555 1_555
C24 H22 1_555 1_555
C22 H23 1_555 1_555
C22 H24 1_555 1_555
C18 H27 1_555 1_555
C18 H28 1_555 1_555
C20 H29 1_555 1_555
C20 H30 1_555 1_555
N6 Cu3_3 1_555 1_555
O18 Cu3_3 1_555 1_555
O17 Cu3_4 1_555 1_555
Pr1_2 O7 1_555 1_555
O8 Pr1_2 1_555 1_555
O13 Pr1_2 1_555 1_555
O14 Pr1_2 1_555 1_555
O1 Pr1_2 1_555 1_555
O2 Pr1_2 1_555 1_555
O20 Pr1_2 1_555 1_555
O21 Pr1_2 1_555 1_555
O19 Pr1_2 1_555 1_555
Pr2_2 O9 1_555 1_555
O26 Pr2_2 1_555 1_555
O27 Pr2_2 1_555 1_555
O30 Pr2_2 1_555 1_555
O31 Pr2_2 1_555 1_555
O22 Pr2_2 1_555 1_555
O23 Pr2_2 1_555 1_555
O15 Pr2_2 1_555 1_555
O3 Pr2_2 1_555 1_555
C15_2 O6 1_555 1_555
O25 C15_2 1_555 1_555
C16_2 N2 1_555 1_555
C19_2 O18 1_555 1_555
O29 C19_2 1_555 1_555
C20_2 N6 1_555 1_555
C23_2 O12 1_555 1_555
O33 C23_2 1_555 1_555
C24_2 N4 1_555 1_555
Pr3 O25 1_555 1_555
C15_2 C16_2 1_555 1_555
C19_2 C20_2 1_555 1_555
O29 Pr3 1_555 1_555
C23_2 C24_2 1_555 1_555
O33 Pr3 1_555 1_555
N2 H3_2 1_555 1_555
C16_2 H19_2 1_555 1_555
C16_2 H20_2 1_555 1_555
C24_2 H21_2 1_555 1_555
C24_2 H22_2 1_555 1_555
C20_2 H29_2 1_555 1_555
C20_2 H30_2 1_555 1_555
Pr3 O1_2 1_555 1_555
Cu4 O2_2 1_555 1_555
O1_2 C1_2 1_555 1_555
O2_2 Pr3 1_555 1_555
O3_2 C4_2 1_555 1_555
O4_2 Cu4 1_555 1_555
N1_2 Cu4 1_555 1_555
C1_2 O2_2 1_555 1_555
C2_2 N1_2 1_555 1_555
C3_2 N1_2 1_555 1_555
C4_2 O4_2 1_555 1_555
Cu6_2 O8_2 1_555 1_555
O7_2 Pr3 1_555 1_555
O8_2 Pr3 1_555 1_555
O9_2 C8_2 1_555 1_555
O10_2 Cu6_2 1_555 1_555
N3_2 Cu6_2 1_555 1_555
C5_2 O7_2 1_555 1_555
C6_2 N3_2 1_555 1_555
C7_2 N3_2 1_555 1_555
C8_2 O10_2 1_555 1_555
Cu5 O14_2 1_555 1_555
O13_2 Pr3 1_555 1_555
O14_2 Pr3 1_555 1_555
O15_2 C12_2 1_555 1_555
O16_2 Cu5 1_555 1_555
N5_2 Cu5 1_555 1_555
C9_2 O13_2 1_555 1_555
C10_2 N5_2 1_555 1_555
C11_2 N5_2 1_555 1_555
C12_2 O16_2 1_555 1_555
Pr2_3 O3_2 1_555 1_555
O5 Pr2_3 1_555 1_555
C13_2 O5 1_555 1_555
O23_2 Pr2_3 1_555 1_555
C14_2 C13_2 1_555 1_555
O17 Pr2_3 1_555 1_555
C17_2 O17 1_555 1_555
O27_2 Pr2_3 1_555 1_555
C18_2 C17_2 1_555 1_555
O11 Pr2_3 1_555 1_555
C21_2 O11 1_555 1_555
O31_2 Pr2_3 1_555 1_555
C22_2 C21_2 1_555 1_555
C1_2 C2_2 1_555 1_555
C3_2 C4_2 1_555 1_555
O8_2 C5_2 1_555 1_555
O9_2 Pr2_3 1_555 1_555
C5_2 C6_2 1_555 1_555
C7_2 C8_2 1_555 1_555
O14_2 C9_2 1_555 1_555
O15_2 Pr2_3 1_555 1_555
C9_2 C10_2 1_555 1_555
C11_2 C12_2 1_555 1_555
C13_2 O23_2 1_555 1_555
C17_2 O27_2 1_555 1_555
C21_2 O31_2 1_555 1_555
C14_2 H1_2 1_555 1_555
C6_2 H4_2 1_555 1_555
C6_2 H5_2 1_555 1_555
N1_2 H7_2 1_555 1_555
C10_2 H9_2 1_555 1_555
C10_2 H10_2 1_555 1_555
C3_2 H11_2 1_555 1_555
C3_2 H12_2 1_555 1_555
C2_2 H13_2 1_555 1_555
C2_2 H14_2 1_555 1_555
C7_2 H15_2 1_555 1_555
C7_2 H16_2 1_555 1_555
C11_2 H17_2 1_555 1_555
C11_2 H18_2 1_555 1_555
C22_2 H23_2 1_555 1_555
C18_2 H27_2 1_555 1_555
Pr1_3 O13 1_555 1_555
O14 Pr1_3 1_555 1_555
O1 Pr1_3 1_555 1_555
O2 Pr1_3 1_555 1_555
O7 Pr1_3 1_555 1_555
O8 Pr1_3 1_555 1_555
O21 Pr1_3 1_555 1_555
O19 Pr1_3 1_555 1_555
O20 Pr1_3 1_555 1_555
Pr2_4 O15 1_555 1_555
O30 Pr2_4 1_555 1_555
O31 Pr2_4 1_555 1_555
O22 Pr2_4 1_555 1_555
O23 Pr2_4 1_555 1_555
O26 Pr2_4 1_555 1_555
O27 Pr2_4 1_555 1_555
O3 Pr2_4 1_555 1_555
O9 Pr2_4 1_555 1_555
Pr3_2 O33 1_555 1_555
O25 Pr3_2 1_555 1_555
O29 Pr3_2 1_555 1_555
Pr3_2 O13_2 1_555 1_555
O14_2 Pr3_2 1_555 1_555
O1_2 Pr3_2 1_555 1_555
O2_2 Pr3_2 1_555 1_555
O7_2 Pr3_2 1_555 1_555
O8_2 Pr3_2 1_555 1_555
Pr2_5 O15_2 1_555 1_555
O11 Pr2_5 1_555 1_555
O31_2 Pr2_5 1_555 1_555
O5 Pr2_5 1_555 1_555
O23_2 Pr2_5 1_555 1_555
O17 Pr2_5 1_555 1_555
O27_2 Pr2_5 1_555 1_555
O3_2 Pr2_5 1_555 1_555
O9_2 Pr2_5 1_555 1_555
Pr3_3 O29 1_555 1_555
O33 Pr3_3 1_555 1_555
O25 Pr3_3 1_555 1_555
Pr3_3 O7_2 1_555 1_555
O8_2 Pr3_3 1_555 1_555
O13_2 Pr3_3 1_555 1_555
O14_2 Pr3_3 1_555 1_555
O1_2 Pr3_3 1_555 1_555
O2_2 Pr3_3 1_555 1_555
Pr2_6 O9_2 1_555 1_555
O17 Pr2_6 1_555 1_555
O27_2 Pr2_6 1_555 1_555
O11 Pr2_6 1_555 1_555
O31_2 Pr2_6 1_555 1_555
O5 Pr2_6 1_555 1_555
O23_2 Pr2_6 1_555 1_555
O15_2 Pr2_6 1_555 1_555
O3_2 Pr2_6 1_555 1_555

#END
