
###############################################################################
#
# This file contains modified crystal structure data generated from the
# MOF subset of the Cambridge Structural Database (CSD) v543 
# hosted by the Cambridge Crystallographic Data Centre (CCDC).
#
# This work is licensed under the Creative Commons
# Attribution-NonCommercial-ShareAlike 4.0 International License.
# To view a copy of this license, visit
# http://creativecommons.org/licenses/by-nc-sa/4.0/
# or send a letter to
# Creative Commons, PO Box 1866, Mountain View, CA 94042, USA.
#
# CIF created using the CSD Python API on 29 September 2022
# The structure has been converted into the P1 space group
# The structure has a 3D framework
# The original CSD entry HOHJAR is in the triclinic crystal system
# The framework has been calculated to contain at least 10.0% void space
# The void calculation uses a probe of radius 1.32A, grid spacing 0.4
#
###############################################################################

data_HOHJAR
_chemical_formula_moiety         '(C48 H32 Fe4 N8 O18)n'
_symmetry_cell_setting           triclinic
_symmetry_space_group_name_H-M   'P 1'
_symmetry_Int_Tables_number      1
_space_group_name_Hall           'P 1'
loop_
_symmetry_equiv_pos_site_id
_symmetry_equiv_pos_as_xyz
1 x,y,z
_cell_length_a                   10.4839(18)
_cell_length_b                   11.840(3)
_cell_length_c                   14.034(2)
_cell_angle_alpha                105.645(11)
_cell_angle_beta                 101.222(9)
_cell_angle_gamma                112.358(5)
_cell_volume                     1462.45
loop_
_atom_site_label
_atom_site_type_symbol
_atom_site_fract_x
_atom_site_fract_y
_atom_site_fract_z
O1 O 0.44759(14) 0.25845(13) 0.16001(10)
O2 O 0.21583(15) 0.14511(14) 0.15080(10)
C6 C 0.3120(2) 0.18928(18) 0.11118(14)
Fe8 Fe 0.55220(3) 0.27483(2) 0.308615(18)
Fe5 Fe 0.18612(3) 0.99349(2) 0.214139(18)
Fe1 Fe 0.81388(3) 0.00651(2) 0.785861(18)
N3 N 0.83664(18) 0.16589(16) 0.72951(12)
C10 C 0.7600(2) 0.13734(19) 0.63036(14)
H7 H 0.7047 0.0491 0.5856
C11 C 0.9236(3) 0.3948(2) 0.75988(17)
H8 H 0.9814 0.4822 0.8057
C12 C 0.9173(2) 0.2936(2) 0.79299(15)
H9 H 0.9709 0.3148 0.8619
C13 C 0.7595(2) 0.23289(19) 0.59158(14)
C14 C 0.8435(3) 0.3649(2) 0.65822(16)
H10 H 0.8456 0.4317 0.6347
O7 O 0.66502(16) 0.28485(14) 0.45179(10)
O8 O 0.60069(19) 0.07212(15) 0.42347(12)
C20 C 0.6674(2) 0.19203(19) 0.47942(14)
O13 O 0.84115(15) 0.12795(14) 0.93565(10)
O5 O 0.15885(15) 0.87205(14) 0.06435(10)
O9 O 0.38789(16) 0.91699(18) 0.07018(11)
C16 C 0.2549(2) 0.87117(19) 0.02246(14)
Fe2 Fe 0.44780(3) 0.72517(2) 0.691385(18)
N2 N 0.27412(18) 0.74846(16) 0.75216(12)
C7 C 0.3055(2) 0.79991(19) 0.85627(14)
H5 H 0.4004 0.8292 0.8991
C8 C 0.2044(2) 0.81208(18) 0.90405(14)
C9 C 0.0639(2) 0.77301(19) 0.84083(14)
O3 O 0.57459(14) 0.94110(13) 0.74247(10)
O4 O 0.39677(15) 0.30250(13) 0.38165(11)
O6 O 0.21066(15) 0.11131(13) 0.36027(10)
N4 N 0.32698(18) 0.51021(16) 0.63441(12)
C15 C 0.3347(2) 0.43986(18) 0.54515(14)
H11 H 0.3858 0.4853 0.5091
C17 C 0.2950(2) 0.23382(18) 0.40689(13)
C18 C 0.1373(2) 0.7106(2) 0.69151(14)
H12 H 0.1132 0.6748 0.6190
C19 C 0.0307(2) 0.7227(2) 0.73231(15)
C21 C 0.2708(2) 0.30341(19) 0.50364(14)
C22 C 0.2515(3) 0.4438(2) 0.68472(17)
H14 H 0.2454 0.4911 0.7469
C23 C 0.1904(3) 0.2355(2) 0.55567(18)
H15 H 0.1433 0.1437 0.5291
C24 C 0.1819(3) 0.3071(2) 0.6477(2)
H16 H 0.1298 0.2640 0.6845
O10 O 0.55241(14) 0.74155(13) 0.83999(10)
O11 O 0.78417(15) 0.85489(14) 0.84920(10)
O12 O 0.60323(15) 0.69750(13) 0.61835(11)
O14 O 0.78934(15) 0.88869(13) 0.63973(10)
O15 O 0.33498(16) 0.71515(14) 0.54821(10)
N2_2 N 0.72588(18) 0.25154(16) 0.24784(12)
C7_2 C 0.6945(2) 0.20009(19) 0.14373(14)
H5_2 H 0.5996 0.1708 0.1009
C8_2 C 0.7956(2) 0.18792(18) 0.09595(14)
C9_2 C 0.9361(2) 0.22699(19) 0.15917(14)
O3_2 O 0.42541(14) 0.05890(13) 0.25753(10)
N4_2 N 0.67302(18) 0.48979(16) 0.36559(12)
C15_2 C 0.6653(2) 0.56014(18) 0.45485(14)
H11_2 H 0.6142 0.5147 0.4909
C17_2 C 0.7050(2) 0.76618(18) 0.59311(13)
C18_2 C 0.8627(2) 0.2894(2) 0.30849(14)
H12_2 H 0.8868 0.3252 0.3810
C19_2 C 0.9693(2) 0.2773(2) 0.26769(15)
C21_2 C 0.7292(2) 0.69659(19) 0.49636(14)
C22_2 C 0.7485(3) 0.5562(2) 0.31528(17)
H14_2 H 0.7546 0.5089 0.2531
C23_2 C 0.8096(3) 0.7645(2) 0.44433(18)
H15_2 H 0.8567 0.8563 0.4709
C24_2 C 0.8181(3) 0.6929(2) 0.3523(2)
H16_2 H 0.8702 0.7360 0.3155
O9_2 O 0.61211(16) 0.08301(18) 0.92982(11)
C16_2 C 0.7451(2) 0.12883(19) 0.97754(14)
N3_2 N 0.16336(18) 0.83411(16) 0.27049(12)
C10_2 C 0.2400(2) 0.86266(19) 0.36964(14)
H7_2 H 0.2953 0.9509 0.4144
C11_2 C 0.0764(3) 0.6052(2) 0.24012(17)
H8_2 H 0.0186 0.5178 0.1943
C12_2 C 0.0827(2) 0.7064(2) 0.20701(15)
H9_2 H 0.0291 0.6852 0.1381
C13_2 C 0.2405(2) 0.76711(19) 0.40842(14)
C14_2 C 0.1565(3) 0.6351(2) 0.34178(16)
H10_2 H 0.1544 0.5683 0.3653
O8_2 O 0.39931(19) 0.92788(15) 0.57653(12)
C20_2 C 0.3326(2) 0.80797(19) 0.52058(14)
C6_2 C 0.6880(2) 0.81072(18) 0.88882(14)
N1 N 0.04902(18) 0.06856(16) 0.84100(12)
C1 C 0.1111(2) 0.10811(18) 0.94487(14)
H1 H 0.0513 0.1043 0.9862
C2 C 0.2596(2) 0.15451(18) 0.99427(14)
C3 C 0.3493(2) 0.1590(2) 0.93286(15)
H2 H 0.4498 0.1923 0.9633
C4 C 0.1357(2) 0.0692(2) 0.78213(15)
H3 H 0.0939 0.0396 0.7097
C5 C 0.2843(2) 0.1119(2) 0.82397(16)
H4 H 0.3403 0.1093 0.7803
H6 H 0.9937 0.7802 0.8701
H13 H 0.9381 0.6975 0.6878
H6_2 H 0.0063 0.2198 0.1299
H13_2 H 0.0619 0.3025 0.3122
N1_2 N 0.95098(18) 0.93144(16) 0.15900(12)
C1_2 C 0.8889(2) 0.89189(18) 0.05513(14)
H1_2 H 0.9487 0.8957 0.0138
C2_2 C 0.7404(2) 0.84549(18) 0.00573(14)
C3_2 C 0.6507(2) 0.8410(2) 0.06714(15)
H2_2 H 0.5502 0.8077 0.0367
C4_2 C 0.8643(2) 0.9308(2) 0.21787(15)
H3_2 H 0.9061 0.9604 0.2903
C5_2 C 0.7157(2) 0.8881(2) 0.17603(16)
H4_2 H 0.6597 0.8907 0.2197
loop_
_geom_bond_atom_site_label_1
_geom_bond_atom_site_label_2
_geom_bond_site_symmetry_1
_geom_bond_site_symmetry_2
O1 C6 1_555 1_555
O2 C6 1_555 1_555
Fe8 O1 1_555 1_555
N3 Fe1 1_555 1_555
C10 N3 1_555 1_555
H7 C10 1_555 1_555
C11 H8 1_555 1_555
C12 N3 1_555 1_555
H9 C12 1_555 1_555
C13 C10 1_555 1_555
C14 C11 1_555 1_555
H10 C14 1_555 1_555
O7 C20 1_555 1_555
O8 C20 1_555 1_555
C20 C13 1_555 1_555
Fe8 O7 1_555 1_555
O13 Fe1 1_555 1_555
C11 C12 1_555 1_555
C13 C14 1_555 1_555
O5 C16 1_555 1_555
O9 C16 1_555 1_555
Fe5 O5 1_555 1_555
Fe2 N2 1_555 1_555
N2 C7 1_555 1_555
C7 H5 1_555 1_555
C8 C7 1_555 1_555
C9 C8 1_555 1_555
O4 C17 1_555 1_555
O6 C17 1_555 1_555
N4 Fe2 1_555 1_555
C15 N4 1_555 1_555
H11 C15 1_555 1_555
C17 C21 1_555 1_555
C18 N2 1_555 1_555
H12 C18 1_555 1_555
C19 C9 1_555 1_555
C21 C15 1_555 1_555
C22 N4 1_555 1_555
H14 C22 1_555 1_555
C23 C21 1_555 1_555
H15 C23 1_555 1_555
C24 C22 1_555 1_555
H16 C24 1_555 1_555
Fe8 O4 1_555 1_555
O10 Fe2 1_555 1_555
O12 Fe2 1_555 1_555
O15 Fe2 1_555 1_555
Fe2 O3 1_555 1_555
C18 C19 1_555 1_555
C23 C24 1_555 1_555
Fe8 N2_2 1_555 1_555
N2_2 C7_2 1_555 1_555
C7_2 H5_2 1_555 1_555
C8_2 C7_2 1_555 1_555
C9_2 C8_2 1_555 1_555
O12 C17_2 1_555 1_555
O14 C17_2 1_555 1_555
N4_2 Fe8 1_555 1_555
C15_2 N4_2 1_555 1_555
H11_2 C15_2 1_555 1_555
C17_2 C21_2 1_555 1_555
C18_2 N2_2 1_555 1_555
H12_2 C18_2 1_555 1_555
C19_2 C9_2 1_555 1_555
C21_2 C15_2 1_555 1_555
C22_2 N4_2 1_555 1_555
H14_2 C22_2 1_555 1_555
C23_2 C21_2 1_555 1_555
H15_2 C23_2 1_555 1_555
C24_2 C22_2 1_555 1_555
H16_2 C24_2 1_555 1_555
Fe8 O3_2 1_555 1_555
C18_2 C19_2 1_555 1_555
C23_2 C24_2 1_555 1_555
O13 C16_2 1_555 1_555
O9_2 C16_2 1_555 1_555
N3_2 Fe5 1_555 1_555
C10_2 N3_2 1_555 1_555
H7_2 C10_2 1_555 1_555
C11_2 H8_2 1_555 1_555
C12_2 N3_2 1_555 1_555
H9_2 C12_2 1_555 1_555
C13_2 C10_2 1_555 1_555
C14_2 C11_2 1_555 1_555
H10_2 C14_2 1_555 1_555
O15 C20_2 1_555 1_555
O8_2 C20_2 1_555 1_555
C20_2 C13_2 1_555 1_555
C11_2 C12_2 1_555 1_555
C13_2 C14_2 1_555 1_555
O10 C6_2 1_555 1_555
O11 C6_2 1_555 1_555
N1 C1 1_555 1_555
C1 H1 1_555 1_555
C2 C1 1_555 1_555
C3 C2 1_555 1_555
H2 C3 1_555 1_555
C4 N1 1_555 1_555
H3 C4 1_555 1_555
C5 C3 1_555 1_555
H4 C5 1_555 1_555
C4 C5 1_555 1_555
N1_2 C1_2 1_555 1_555
C1_2 H1_2 1_555 1_555
C2_2 C1_2 1_555 1_555
C3_2 C2_2 1_555 1_555
H2_2 C3_2 1_555 1_555
C4_2 N1_2 1_555 1_555
H3_2 C4_2 1_555 1_555
C5_2 C3_2 1_555 1_555
H4_2 C5_2 1_555 1_555
C4_2 C5_2 1_555 1_555

#END
