
###############################################################################
#
# This file contains modified crystal structure data generated from the
# MOF subset of the Cambridge Structural Database (CSD) v543 
# hosted by the Cambridge Crystallographic Data Centre (CCDC).
#
# This work is licensed under the Creative Commons
# Attribution-NonCommercial-ShareAlike 4.0 International License.
# To view a copy of this license, visit
# http://creativecommons.org/licenses/by-nc-sa/4.0/
# or send a letter to
# Creative Commons, PO Box 1866, Mountain View, CA 94042, USA.
#
# CIF created using the CSD Python API on 29 September 2022
# The structure has been converted into the P1 space group
# The structure has a 3D framework
# The original CSD entry HOHMIB is in the tetragonal crystal system
# The framework has been calculated to contain at least 10.0% void space
# The void calculation uses a probe of radius 1.32A, grid spacing 0.4
#
###############################################################################

data_HOHMIB
_chemical_formula_moiety         '(C300 H224 N24 O84 Zn13)n'
_symmetry_cell_setting           triclinic
_symmetry_space_group_name_H-M   'P 1'
_symmetry_Int_Tables_number      1
_space_group_name_Hall           'P 1'
loop_
_symmetry_equiv_pos_site_id
_symmetry_equiv_pos_as_xyz
1 x,y,z
_cell_length_a                   19.4226(7)
_cell_length_b                   19.4226(7)
_cell_length_c                   50.9656(11)
_cell_angle_alpha                90
_cell_angle_beta                 90
_cell_angle_gamma                90
_cell_volume                     19226.1
loop_
_atom_site_label
_atom_site_type_symbol
_atom_site_fract_x
_atom_site_fract_y
_atom_site_fract_z
Zn6 Zn 0.32720(4) 0.0000 0.872823(11)
Zn7 Zn 0.17280(4) 0.0000 0.877177(11)
C1 C -0.0000 0.5389(9) 0.1575(3)
H1 H 0.0404 0.5555 0.1667
N1 N 0.0000 0.5679(3) 0.12841(8)
Zn1 Zn 0.0000 0.67280(4) 0.127177(11)
C11 C 0.0000 0.4611(9) 0.1575(3)
H10 H 0.0404 0.4445 0.1667
C12 C 0.0697(8) 0.4611(8) 0.1159(3)
C13 C 0.0697(8) 0.5389(8) 0.1159(3)
H11 H 0.1087 0.5556 0.1259
H13 H 0.1087 0.4444 0.1259
H14 H 0.0742 0.5556 0.098
H16 H 0.0742 0.4444 0.098
O5 O 0.0724(2) 0.69000(19) 0.09869(6)
C16 C 0.0889(3) 0.7477(3) 0.08851(9)
C19 C 0.1395(3) 0.7422(3) 0.06575(10)
C22 C 0.1632(4) 0.6796(3) 0.05608(13)
H18 H 0.1479 0.6389 0.0637
C25 C 0.2091(4) 0.6765(4) 0.03536(12)
H21 H 0.2287 0.6346 0.0306
C28 C 0.2251(4) 0.7328(4) 0.02243(12)
C31 C 0.2012(4) 0.7928(4) 0.03130(12)
H24 H 0.2147 0.8326 0.0225
C34 C 0.1592(3) 0.7998(3) 0.05188(10)
H27 H 0.1434 0.8431 0.0568
C36 C 0.2724(5) 0.7276(5) 0.00000
N2 N -0.0000 0.4321(3) 0.12841(8)
O9 O 0.0717(2) 0.8047(2) 0.09521(6)
O12 O 0.0717(2) 0.6953(2) 0.15479(6)
O15 O 0.3187(4) 0.6813(4) 0.00000
Zn3 Zn -0.0000 0.82720(4) 0.122823(11)
Zn4 Zn -0.0000 0.32720(4) 0.127177(11)
O6 O 0.31000(19) 0.9276(2) 0.90131(6)
C17 C 0.2523(3) 0.9111(3) 0.91149(9)
C20 C 0.2578(3) 0.8605(3) 0.93425(10)
C23 C 0.3204(3) 0.8368(4) 0.94392(13)
H19 H 0.3611 0.8521 0.9363
C26 C 0.3235(4) 0.7909(4) 0.96464(12)
H22 H 0.3654 0.7713 0.9694
C29 C 0.2672(4) 0.7749(4) 0.97757(12)
C32 C 0.2072(4) 0.7988(4) 0.96870(12)
H25 H 0.1674 0.7853 0.9775
C35 C 0.2002(3) 0.8408(3) 0.94812(10)
H28 H 0.1569 0.8566 0.9432
C36_2 C 0.2724(5) 0.7276(5) 1.00000
O10 O 0.1953(2) 0.9283(2) 0.90479(6)
O15_2 O 0.3187(4) 0.6813(4) 1.00000
Zn6_2 Zn 0.32720(4) 1.0000 0.872823(11)
Zn7_2 Zn 0.17280(4) 1.0000 0.877177(11)
O7 O 0.69000(19) 0.0724(2) 0.90131(6)
N3 N 0.5679(3) 0.0000 0.87159(8)
O14 O 0.6953(2) 0.0717(2) 0.84521(6)
Zn2 Zn 0.67280(4) 0.0000 0.872823(11)
Zn5 Zn 0.82720(4) 0.0000 0.877177(11)
C1_2 C 1.0000 0.5389(9) 0.1575(3)
H2 H 0.9596 0.5555 0.1667
C2 C 0.9303(8) 0.5389(8) 0.1159(3)
H3 H 0.8913 0.5556 0.1259
H4 H 0.9258 0.5556 0.098
O1 O 0.9276(2) 0.69000(19) 0.09869(6)
C3 C 0.9111(3) 0.7477(3) 0.08851(9)
C4 C 0.8605(3) 0.7422(3) 0.06575(10)
C5 C 0.8368(4) 0.6796(3) 0.05608(13)
H5 H 0.8521 0.6389 0.0637
C6 C 0.7909(4) 0.6765(4) 0.03536(12)
H6 H 0.7713 0.6346 0.0306
C7 C 0.7749(4) 0.7328(4) 0.02243(12)
C8 C 0.7988(4) 0.7928(4) 0.03130(12)
H7 H 0.7853 0.8326 0.0225
C9 C 0.8408(3) 0.7998(3) 0.05188(10)
H8 H 0.8566 0.8431 0.0568
C10 C 0.7276(5) 0.7276(5) 0.00000
N1_2 N 1.0000 0.5679(3) 0.12841(8)
O2 O 0.9283(2) 0.8047(2) 0.09521(6)
O3 O 0.6813(4) 0.6813(4) 0.00000
Zn1_2 Zn 1.0000 0.67280(4) 0.127177(11)
C11_2 C 1.0000 0.4611(9) 0.1575(3)
H9 H 0.9596 0.4445 0.1667
C14 C 0.9303(8) 0.4611(8) 0.1159(3)
H12 H 0.8913 0.4444 0.1259
H15 H 0.9258 0.4444 0.098
N2_2 N 1.0000 0.4321(3) 0.12841(8)
O11 O 0.9283(2) 0.6953(2) 0.15479(6)
Zn3_2 Zn 1.0000 0.82720(4) 0.122823(11)
Zn4_2 Zn 1.0000 0.32720(4) 0.127177(11)
C10_2 C 0.7276(5) 0.7276(5) 1.00000
O3_2 O 0.6813(4) 0.6813(4) 1.00000
O4 O 0.69000(19) 0.9276(2) 0.90131(6)
C15 C 0.7477(3) 0.9111(3) 0.91149(9)
C18 C 0.7422(3) 0.8605(3) 0.93425(10)
C21 C 0.6796(3) 0.8368(4) 0.94392(13)
H17 H 0.6389 0.8521 0.9363
C24 C 0.6765(4) 0.7909(4) 0.96464(12)
H20 H 0.6346 0.7713 0.9694
C27 C 0.7328(4) 0.7749(4) 0.97757(12)
C30 C 0.7928(4) 0.7988(4) 0.96870(12)
H23 H 0.8326 0.7853 0.9775
C33 C 0.7998(3) 0.8408(3) 0.94812(10)
H26 H 0.8431 0.8566 0.9432
N3_2 N 0.5679(3) 1.0000 0.87159(8)
O8 O 0.8047(2) 0.9283(2) 0.90479(6)
O13 O 0.6953(2) 0.9283(2) 0.84521(6)
Zn2_2 Zn 0.67280(4) 1.0000 0.872823(11)
Zn5_2 Zn 0.82720(4) 1.0000 0.877177(11)
C11_3 C 0.0000 0.0389(9) 0.0925(3)
H10_2 H 0.0404 0.0555 0.0833
C12_2 C 0.0697(8) 0.0389(8) 0.1341(3)
H13_2 H 0.1087 0.0556 0.1241
H16_2 H 0.0742 0.0556 0.152
N2_3 N -0.0000 0.0679(3) 0.12159(8)
Zn4_3 Zn -0.0000 0.17280(4) 0.122823(11)
C1_3 C -0.0000 0.9611(9) 0.0925(3)
H1_2 H 0.0404 0.9445 0.0833
N1_3 N -0.0000 0.9321(3) 0.12159(8)
C13_2 C 0.0697(8) 0.9611(8) 0.1341(3)
H11_2 H 0.1087 0.9444 0.1241
H14_2 H 0.0742 0.9444 0.152
O5_2 O 0.0724(2) 0.81000(19) 0.15131(6)
O6_2 O 0.31000(19) 0.5724(2) 0.34869(6)
C16_2 C 0.0889(3) 0.7523(3) 0.16149(9)
C17_2 C 0.2523(3) 0.5889(3) 0.33851(9)
C19_2 C 0.1395(3) 0.7578(3) 0.18425(10)
C20_2 C 0.2578(3) 0.6395(3) 0.31575(10)
C22_2 C 0.1632(4) 0.8204(3) 0.19392(13)
C23_2 C 0.3204(3) 0.6632(4) 0.30608(13)
H18_2 H 0.1479 0.8611 0.1863
H19_2 H 0.3611 0.6479 0.3137
C25_2 C 0.2091(4) 0.8235(4) 0.21464(12)
C26_2 C 0.3235(4) 0.7091(4) 0.28536(12)
H21_2 H 0.2287 0.8654 0.2194
H22_2 H 0.3654 0.7287 0.2806
C28_2 C 0.2251(4) 0.7672(4) 0.22757(12)
C29_2 C 0.2672(4) 0.7251(4) 0.27243(12)
C31_2 C 0.2012(4) 0.7072(4) 0.21870(12)
C32_2 C 0.2072(4) 0.7012(4) 0.28130(12)
H24_2 H 0.2147 0.6674 0.2275
H25_2 H 0.1674 0.7147 0.2725
C34_2 C 0.1592(3) 0.7002(3) 0.19812(10)
C35_2 C 0.2002(3) 0.6592(3) 0.30188(10)
H27_2 H 0.1434 0.6569 0.1932
H28_2 H 0.1569 0.6434 0.3068
C36_3 C 0.2724(5) 0.7724(5) 0.25000
O10_2 O 0.1953(2) 0.5717(2) 0.34521(6)
O15_3 O 0.3187(4) 0.8187(4) 0.25000
Zn6_3 Zn 0.32720(4) 0.5000 0.377177(11)
Zn7_3 Zn 0.17280(4) 0.5000 0.372823(11)
C11_4 C 1.0000 0.0389(9) 0.0925(3)
H9_2 H 0.9596 0.0555 0.0833
C14_2 C 0.9303(8) 0.0389(8) 0.1341(3)
H12_2 H 0.8913 0.0556 0.1241
H15_2 H 0.9258 0.0556 0.152
N2_4 N 1.0000 0.0679(3) 0.12159(8)
Zn4_4 Zn 1.0000 0.17280(4) 0.122823(11)
C1_4 C 1.0000 0.9611(9) 0.0925(3)
H2_2 H 0.9596 0.9445 0.0833
C2_2 C 0.9303(8) 0.9611(8) 0.1341(3)
H3_2 H 0.8913 0.9444 0.1241
H4_2 H 0.9258 0.9444 0.152
O1_2 O 0.9276(2) 0.81000(19) 0.15131(6)
C3_2 C 0.9111(3) 0.7523(3) 0.16149(9)
C4_2 C 0.8605(3) 0.7578(3) 0.18425(10)
C5_2 C 0.8368(4) 0.8204(3) 0.19392(13)
H5_2 H 0.8521 0.8611 0.1863
C6_2 C 0.7909(4) 0.8235(4) 0.21464(12)
H6_2 H 0.7713 0.8654 0.2194
C7_2 C 0.7749(4) 0.7672(4) 0.22757(12)
C8_2 C 0.7988(4) 0.7072(4) 0.21870(12)
H7_2 H 0.7853 0.6674 0.2275
C9_2 C 0.8408(3) 0.7002(3) 0.19812(10)
H8_2 H 0.8566 0.6569 0.1932
C10_3 C 0.7276(5) 0.7724(5) 0.25000
N1_4 N 1.0000 0.9321(3) 0.12159(8)
O3_3 O 0.6813(4) 0.8187(4) 0.25000
O4_2 O 0.69000(19) 0.5724(2) 0.34869(6)
O7_2 O 0.69000(19) 0.4276(2) 0.34869(6)
C15_2 C 0.7477(3) 0.5889(3) 0.33851(9)
C18_2 C 0.7422(3) 0.6395(3) 0.31575(10)
C21_2 C 0.6796(3) 0.6632(4) 0.30608(13)
H17_2 H 0.6389 0.6479 0.3137
C24_2 C 0.6765(4) 0.7091(4) 0.28536(12)
H20_2 H 0.6346 0.7287 0.2806
C27_2 C 0.7328(4) 0.7251(4) 0.27243(12)
C30_2 C 0.7928(4) 0.7012(4) 0.28130(12)
H23_2 H 0.8326 0.7147 0.2725
C33_2 C 0.7998(3) 0.6592(3) 0.30188(10)
H26_2 H 0.8431 0.6434 0.3068
N3_3 N 0.5679(3) 0.5000 0.37841(8)
O8_2 O 0.8047(2) 0.5717(2) 0.34521(6)
O13_2 O 0.6953(2) 0.5717(2) 0.40479(6)
O14_2 O 0.6953(2) 0.4283(2) 0.40479(6)
Zn2_3 Zn 0.67280(4) 0.5000 0.377177(11)
Zn5_3 Zn 0.82720(4) 0.5000 0.372823(11)
O7_3 O 0.31000(19) 0.4276(2) 0.34869(6)
N3_4 N 0.4321(3) 0.5000 0.37841(8)
O13_3 O 0.3047(2) 0.5717(2) 0.40479(6)
O14_3 O 0.3047(2) 0.4283(2) 0.40479(6)
C11_5 C 0.5000 0.0389(9) 0.6575(3)
H9_3 H 0.5404 0.0555 0.6667
H10_3 H 0.4596 0.0555 0.6667
C12_3 C 0.4303(8) 0.0389(8) 0.6159(3)
C14_3 C 0.5697(8) 0.0389(8) 0.6159(3)
H12_3 H 0.6087 0.0556 0.6259
H13_3 H 0.3913 0.0556 0.6259
H15_3 H 0.5742 0.0556 0.598
H16_3 H 0.4258 0.0556 0.598
N2_5 N 0.5000 0.0679(3) 0.62841(8)
Zn4_5 Zn 0.5000 0.17280(4) 0.627177(11)
C1_5 C 0.5000 0.9611(9) 0.6575(3)
H1_3 H 0.4596 0.9445 0.6667
H2_3 H 0.5404 0.9445 0.6667
C2_3 C 0.5697(8) 0.9611(8) 0.6159(3)
H3_3 H 0.6087 0.9444 0.6259
H4_3 H 0.5742 0.9444 0.598
O1_3 O 0.5724(2) 0.81000(19) 0.59869(6)
C3_3 C 0.5889(3) 0.7523(3) 0.58851(9)
C4_3 C 0.6395(3) 0.7578(3) 0.56575(10)
C5_3 C 0.6632(4) 0.8204(3) 0.55608(13)
H5_3 H 0.6479 0.8611 0.5637
C6_3 C 0.7091(4) 0.8235(4) 0.53536(12)
H6_3 H 0.7287 0.8654 0.5306
C7_3 C 0.7251(4) 0.7672(4) 0.52243(12)
C8_3 C 0.7012(4) 0.7072(4) 0.53130(12)
H7_3 H 0.7147 0.6674 0.5225
C9_3 C 0.6592(3) 0.7002(3) 0.55188(10)
H8_3 H 0.6434 0.6569 0.5568
C10_4 C 0.7724(5) 0.7724(5) 0.50000
N1_5 N 0.5000 0.9321(3) 0.62841(8)
O2_2 O 0.5717(2) 0.6953(2) 0.59521(6)
O3_4 O 0.8187(4) 0.8187(4) 0.50000
Zn1_3 Zn 0.5000 0.82720(4) 0.627177(11)
C13_3 C 0.4303(8) 0.9611(8) 0.6159(3)
H11_3 H 0.3913 0.9444 0.6259
H14_3 H 0.4258 0.9444 0.598
O4_3 O 0.81000(19) 0.5724(2) 0.40131(6)
O5_3 O 0.4276(2) 0.81000(19) 0.59869(6)
O6_3 O 0.19000(19) 0.5724(2) 0.40131(6)
O7_4 O 0.81000(19) 0.4276(2) 0.40131(6)
C15_3 C 0.7523(3) 0.5889(3) 0.41149(9)
C16_3 C 0.4111(3) 0.7523(3) 0.58851(9)
C17_3 C 0.2477(3) 0.5889(3) 0.41149(9)
C18_3 C 0.7578(3) 0.6395(3) 0.43425(10)
C19_3 C 0.3605(3) 0.7578(3) 0.56575(10)
C20_3 C 0.2422(3) 0.6395(3) 0.43425(10)
C21_3 C 0.8204(3) 0.6632(4) 0.44392(13)
C22_3 C 0.3368(4) 0.8204(3) 0.55608(13)
C23_3 C 0.1796(3) 0.6632(4) 0.44392(13)
H17_3 H 0.8611 0.6479 0.4363
H18_3 H 0.3521 0.8611 0.5637
H19_3 H 0.1389 0.6479 0.4363
C24_3 C 0.8235(4) 0.7091(4) 0.46464(12)
C25_3 C 0.2909(4) 0.8235(4) 0.53536(12)
C26_3 C 0.1765(4) 0.7091(4) 0.46464(12)
H20_3 H 0.8654 0.7287 0.4694
H21_3 H 0.2713 0.8654 0.5306
H22_3 H 0.1346 0.7287 0.4694
C27_3 C 0.7672(4) 0.7251(4) 0.47757(12)
C28_3 C 0.2749(4) 0.7672(4) 0.52243(12)
C29_3 C 0.2328(4) 0.7251(4) 0.47757(12)
C30_3 C 0.7072(4) 0.7012(4) 0.46870(12)
C31_3 C 0.2988(4) 0.7072(4) 0.53130(12)
C32_3 C 0.2928(4) 0.7012(4) 0.46870(12)
H23_3 H 0.6674 0.7147 0.4775
H24_3 H 0.2853 0.6674 0.5225
H25_3 H 0.3326 0.7147 0.4775
C33_3 C 0.7002(3) 0.6592(3) 0.44812(10)
C34_3 C 0.3408(3) 0.7002(3) 0.55188(10)
C35_3 C 0.2998(3) 0.6592(3) 0.44812(10)
H26_3 H 0.6569 0.6434 0.4432
H27_3 H 0.3566 0.6569 0.5568
H28_3 H 0.3431 0.6434 0.4432
C36_4 C 0.2276(5) 0.7724(5) 0.50000
N3_5 N 0.9321(3) 0.5000 0.37159(8)
O9_2 O 0.4283(2) 0.6953(2) 0.59521(6)
O11_2 O 0.5717(2) 0.8047(2) 0.65479(6)
O12_2 O 0.4283(2) 0.8047(2) 0.65479(6)
O14_4 O 0.8047(2) 0.4283(2) 0.34521(6)
O15_4 O 0.1813(4) 0.8187(4) 0.50000
Zn3_3 Zn 0.5000 0.67280(4) 0.622823(11)
O7_5 O 0.81000(19) 0.0724(2) 0.84869(6)
N3_6 N 0.9321(3) 0.0000 0.87841(8)
O14_5 O 0.8047(2) 0.0717(2) 0.90479(6)
C1_6 C 0.5000 0.5389(9) 0.5925(3)
H1_4 H 0.4596 0.5555 0.5833
H2_4 H 0.5404 0.5555 0.5833
C2_4 C 0.5697(8) 0.5389(8) 0.6341(3)
H3_4 H 0.6087 0.5556 0.6241
H4_4 H 0.5742 0.5556 0.652
O1_4 O 0.5724(2) 0.69000(19) 0.65131(6)
C3_4 C 0.5889(3) 0.7477(3) 0.66149(9)
C4_4 C 0.6395(3) 0.7422(3) 0.68425(10)
C5_4 C 0.6632(4) 0.6796(3) 0.69392(13)
H5_4 H 0.6479 0.6389 0.6863
C6_4 C 0.7091(4) 0.6765(4) 0.71464(12)
H6_4 H 0.7287 0.6346 0.7194
C7_4 C 0.7251(4) 0.7328(4) 0.72757(12)
C8_4 C 0.7012(4) 0.7928(4) 0.71870(12)
H7_4 H 0.7147 0.8326 0.7275
C9_4 C 0.6592(3) 0.7998(3) 0.69812(10)
H8_4 H 0.6434 0.8431 0.6932
C10_5 C 0.7724(5) 0.7276(5) 0.75000
N1_6 N 0.5000 0.5679(3) 0.62159(8)
O3_5 O 0.8187(4) 0.6813(4) 0.75000
C11_6 C 0.5000 0.4611(9) 0.5925(3)
H9_4 H 0.5404 0.4445 0.5833
H10_4 H 0.4596 0.4445 0.5833
C12_4 C 0.4303(8) 0.4611(8) 0.6341(3)
C13_4 C 0.4303(8) 0.5389(8) 0.6341(3)
C14_4 C 0.5697(8) 0.4611(8) 0.6341(3)
H11_4 H 0.3913 0.5556 0.6241
H12_4 H 0.6087 0.4444 0.6241
H13_4 H 0.3913 0.4444 0.6241
H14_4 H 0.4258 0.5556 0.652
H15_4 H 0.5742 0.4444 0.652
H16_4 H 0.4258 0.4444 0.652
O4_4 O 0.81000(19) 0.9276(2) 0.84869(6)
O5_4 O 0.4276(2) 0.69000(19) 0.65131(6)
O6_4 O 0.19000(19) 0.9276(2) 0.84869(6)
C15_4 C 0.7523(3) 0.9111(3) 0.83851(9)
C16_4 C 0.4111(3) 0.7477(3) 0.66149(9)
C17_4 C 0.2477(3) 0.9111(3) 0.83851(9)
C18_4 C 0.7578(3) 0.8605(3) 0.81575(10)
C19_4 C 0.3605(3) 0.7422(3) 0.68425(10)
C20_4 C 0.2422(3) 0.8605(3) 0.81575(10)
C21_4 C 0.8204(3) 0.8368(4) 0.80608(13)
C22_4 C 0.3368(4) 0.6796(3) 0.69392(13)
C23_4 C 0.1796(3) 0.8368(4) 0.80608(13)
H17_4 H 0.8611 0.8521 0.8137
H18_4 H 0.3521 0.6389 0.6863
H19_4 H 0.1389 0.8521 0.8137
C24_4 C 0.8235(4) 0.7909(4) 0.78536(12)
C25_4 C 0.2909(4) 0.6765(4) 0.71464(12)
C26_4 C 0.1765(4) 0.7909(4) 0.78536(12)
H20_4 H 0.8654 0.7713 0.7806
H21_4 H 0.2713 0.6346 0.7194
H22_4 H 0.1346 0.7713 0.7806
C27_4 C 0.7672(4) 0.7749(4) 0.77243(12)
C28_4 C 0.2749(4) 0.7328(4) 0.72757(12)
C29_4 C 0.2328(4) 0.7749(4) 0.77243(12)
C30_4 C 0.7072(4) 0.7988(4) 0.78130(12)
C31_4 C 0.2988(4) 0.7928(4) 0.71870(12)
C32_4 C 0.2928(4) 0.7988(4) 0.78130(12)
H23_4 H 0.6674 0.7853 0.7725
H24_4 H 0.2853 0.8326 0.7275
H25_4 H 0.3326 0.7853 0.7725
C33_4 C 0.7002(3) 0.8408(3) 0.80188(10)
C34_4 C 0.3408(3) 0.7998(3) 0.69812(10)
C35_4 C 0.2998(3) 0.8408(3) 0.80188(10)
H26_4 H 0.6569 0.8566 0.8068
H27_4 H 0.3566 0.8431 0.6932
H28_4 H 0.3431 0.8566 0.8068
C36_5 C 0.2276(5) 0.7276(5) 0.75000
N2_6 N 0.5000 0.4321(3) 0.62159(8)
N3_7 N 0.9321(3) 1.0000 0.87841(8)
O10_3 O 0.3047(2) 0.9283(2) 0.84521(6)
O15_5 O 0.1813(4) 0.6813(4) 0.75000
Zn4_6 Zn 0.5000 0.32720(4) 0.622823(11)
O7_6 O 0.19000(19) 0.0724(2) 0.84869(6)
N3_8 N 0.0679(3) 0.0000 0.87841(8)
O14_6 O 0.1953(2) 0.0717(2) 0.90479(6)
N3_9 N 0.0679(3) 1.0000 0.87841(8)
O7_7 O 0.31000(19) 0.0724(2) 0.90131(6)
N3_10 N 0.4321(3) 0.0000 0.87159(8)
O14_7 O 0.3047(2) 0.0717(2) 0.84521(6)
N3_11 N 0.4321(3) 1.0000 0.87159(8)
O7_8 O 0.19000(19) 0.4276(2) 0.40131(6)
N3_12 N 0.0679(3) 0.5000 0.37159(8)
O14_8 O 0.1953(2) 0.4283(2) 0.34521(6)
C1_7 C 0.4611(9) 0.5000 0.4075(3)
H1_5 H 0.4445 0.5404 0.4167
H2_5 H 0.4445 0.4596 0.4167
C2_5 C 0.4611(8) 0.4303(8) 0.3659(3)
H3_5 H 0.4444 0.3913 0.3759
H4_5 H 0.4444 0.4258 0.348
C3_5 C 0.2523(3) 0.4111(3) 0.33851(9)
C4_5 C 0.2578(3) 0.3605(3) 0.31575(10)
C5_5 C 0.3204(3) 0.3368(4) 0.30608(13)
H5_5 H 0.3611 0.3521 0.3137
C6_5 C 0.3235(4) 0.2909(4) 0.28536(12)
H6_5 H 0.3654 0.2713 0.2806
C7_5 C 0.2672(4) 0.2749(4) 0.27243(12)
C8_5 C 0.2072(4) 0.2988(4) 0.28130(12)
H7_5 H 0.1674 0.2853 0.2725
C9_5 C 0.2002(3) 0.3408(3) 0.30188(10)
H8_5 H 0.1569 0.3566 0.3068
C10_6 C 0.2724(5) 0.2276(5) 0.25000
O3_6 O 0.3187(4) 0.1813(4) 0.25000
C11_7 C 0.5389(9) 0.5000 0.4075(3)
H9_5 H 0.5555 0.4596 0.4167
H10_5 H 0.5555 0.5404 0.4167
C12_5 C 0.5389(8) 0.5697(8) 0.3659(3)
C13_5 C 0.4611(8) 0.5697(8) 0.3659(3)
C14_5 C 0.5389(8) 0.4303(8) 0.3659(3)
H11_5 H 0.4444 0.6087 0.3759
H12_5 H 0.5556 0.3913 0.3759
H13_5 H 0.5556 0.6087 0.3759
H14_5 H 0.4444 0.5742 0.348
H15_5 H 0.5556 0.4258 0.348
H16_5 H 0.5556 0.5742 0.348
O4_5 O 0.0724(2) 0.19000(19) 0.15131(6)
C15_5 C 0.0889(3) 0.2477(3) 0.16149(9)
C18_5 C 0.1395(3) 0.2422(3) 0.18425(10)
C21_5 C 0.1632(4) 0.1796(3) 0.19392(13)
H17_5 H 0.1479 0.1389 0.1863
C24_5 C 0.2091(4) 0.1765(4) 0.21464(12)
H20_5 H 0.2287 0.1346 0.2194
C27_5 C 0.2251(4) 0.2328(4) 0.22757(12)
C30_5 C 0.2012(4) 0.2928(4) 0.21870(12)
H23_5 H 0.2147 0.3326 0.2275
C33_5 C 0.1592(3) 0.2998(3) 0.19812(10)
H26_5 H 0.1434 0.3431 0.1932
O8_3 O 0.0717(2) 0.3047(2) 0.15479(6)
O13_4 O 0.0717(2) 0.1953(2) 0.09521(6)
O7_9 O 0.9276(2) 0.19000(19) 0.15131(6)
O14_9 O 0.9283(2) 0.1953(2) 0.09521(6)
C1_8 C 0.0389(9) 0.5000 0.3425(3)
H1_6 H 0.0555 0.5404 0.3333
H2_6 H 0.0555 0.4596 0.3333
C2_6 C 0.0389(8) 0.4303(8) 0.3841(3)
H3_6 H 0.0556 0.3913 0.3741
H4_6 H 0.0556 0.4258 0.402
C3_6 C 0.2477(3) 0.4111(3) 0.41149(9)
C4_6 C 0.2422(3) 0.3605(3) 0.43425(10)
C5_6 C 0.1796(3) 0.3368(4) 0.44392(13)
H5_6 H 0.1389 0.3521 0.4363
C6_6 C 0.1765(4) 0.2909(4) 0.46464(12)
H6_6 H 0.1346 0.2713 0.4694
C7_6 C 0.2328(4) 0.2749(4) 0.47757(12)
C8_6 C 0.2928(4) 0.2988(4) 0.46870(12)
H7_6 H 0.3326 0.2853 0.4775
C9_6 C 0.2998(3) 0.3408(3) 0.44812(10)
H8_6 H 0.3431 0.3566 0.4432
C10_7 C 0.2276(5) 0.2276(5) 0.50000
O3_7 O 0.1813(4) 0.1813(4) 0.50000
C13_6 C 0.0389(8) 0.5697(8) 0.3841(3)
H11_6 H 0.0556 0.6087 0.3741
H14_6 H 0.0556 0.5742 0.402
O4_6 O 0.4276(2) 0.19000(19) 0.59869(6)
O7_10 O 0.5724(2) 0.19000(19) 0.59869(6)
C15_6 C 0.4111(3) 0.2477(3) 0.58851(9)
C18_6 C 0.3605(3) 0.2422(3) 0.56575(10)
C21_6 C 0.3368(4) 0.1796(3) 0.55608(13)
H17_6 H 0.3521 0.1389 0.5637
C24_6 C 0.2909(4) 0.1765(4) 0.53536(12)
H20_6 H 0.2713 0.1346 0.5306
C27_6 C 0.2749(4) 0.2328(4) 0.52243(12)
C30_6 C 0.2988(4) 0.2928(4) 0.53130(12)
H23_6 H 0.2853 0.3326 0.5225
C33_6 C 0.3408(3) 0.2998(3) 0.55188(10)
H26_6 H 0.3566 0.3431 0.5568
O8_4 O 0.4283(2) 0.3047(2) 0.59521(6)
O13_5 O 0.4283(2) 0.1953(2) 0.65479(6)
O14_10 O 0.5717(2) 0.1953(2) 0.65479(6)
C11_8 C 0.9611(9) 0.5000 0.3425(3)
H9_6 H 0.9445 0.4596 0.3333
H10_6 H 0.9445 0.5404 0.3333
C12_6 C 0.9611(8) 0.5697(8) 0.3841(3)
C14_6 C 0.9611(8) 0.4303(8) 0.3841(3)
H12_6 H 0.9444 0.3913 0.3741
H13_6 H 0.9444 0.6087 0.3741
H15_6 H 0.9444 0.4258 0.402
H16_6 H 0.9444 0.5742 0.402
C10_8 C 0.2724(5) 0.2724(5) 0.00000
O3_8 O 0.3187(4) 0.3187(4) 0.00000
O4_7 O 0.0724(2) 0.31000(19) 0.09869(6)
C15_7 C 0.0889(3) 0.2523(3) 0.08851(9)
C18_7 C 0.1395(3) 0.2578(3) 0.06575(10)
C21_7 C 0.1632(4) 0.3204(3) 0.05608(13)
H17_7 H 0.1479 0.3611 0.0637
C24_7 C 0.2091(4) 0.3235(4) 0.03536(12)
H20_7 H 0.2287 0.3654 0.0306
C27_7 C 0.2251(4) 0.2672(4) 0.02243(12)
C30_7 C 0.2012(4) 0.2072(4) 0.03130(12)
H23_7 H 0.2147 0.1674 0.0225
C33_7 C 0.1592(3) 0.2002(3) 0.05188(10)
H26_7 H 0.1434 0.1569 0.0568
C1_9 C 0.4611(9) 0.0000 0.8425(3)
H2_7 H 0.4445 0.0404 0.8333
C2_7 C 0.4611(8) 0.0697(8) 0.8841(3)
H3_7 H 0.4444 0.1087 0.8741
H4_7 H 0.4444 0.0742 0.902
C3_7 C 0.2523(3) 0.0889(3) 0.91149(9)
C4_7 C 0.2578(3) 0.1395(3) 0.93425(10)
C5_7 C 0.3204(3) 0.1632(4) 0.94392(13)
H5_7 H 0.3611 0.1479 0.9363
C6_7 C 0.3235(4) 0.2091(4) 0.96464(12)
H6_7 H 0.3654 0.2287 0.9694
C7_7 C 0.2672(4) 0.2251(4) 0.97757(12)
C8_7 C 0.2072(4) 0.2012(4) 0.96870(12)
H7_7 H 0.1674 0.2147 0.9775
C9_7 C 0.2002(3) 0.1592(3) 0.94812(10)
H8_7 H 0.1569 0.1434 0.9432
C10_9 C 0.2724(5) 0.2724(5) 1.00000
O3_9 O 0.3187(4) 0.3187(4) 1.00000
C11_9 C 0.5389(9) 0.0000 0.8425(3)
H9_7 H 0.5555 0.0404 0.8333
C14_7 C 0.5389(8) 0.0697(8) 0.8841(3)
H12_7 H 0.5556 0.1087 0.8741
H15_7 H 0.5556 0.0742 0.902
C1_10 C 0.4611(9) 1.0000 0.8425(3)
H1_7 H 0.4445 0.9596 0.8333
C11_10 C 0.5389(9) 1.0000 0.8425(3)
H10_7 H 0.5555 0.9596 0.8333
C12_7 C 0.5389(8) 0.9303(8) 0.8841(3)
C13_7 C 0.4611(8) 0.9303(8) 0.8841(3)
H11_7 H 0.4444 0.8913 0.8741
H13_7 H 0.5556 0.8913 0.8741
H14_7 H 0.4444 0.9258 0.902
H16_7 H 0.5556 0.9258 0.902
O7_11 O 0.9276(2) 0.31000(19) 0.09869(6)
O14_11 O 0.9283(2) 0.3047(2) 0.15479(6)
C1_11 C 0.0389(9) 0.0000 0.9075(3)
H1_8 H 0.0555 0.0404 0.9167
C13_8 C 0.0389(8) 0.0697(8) 0.8659(3)
H11_8 H 0.0556 0.1087 0.8759
H14_8 H 0.0556 0.0742 0.848
O6_5 O 0.4276(2) 0.31000(19) 0.65131(6)
C16_5 C 0.2477(3) 0.0889(3) 0.83851(9)
C17_5 C 0.4111(3) 0.2523(3) 0.66149(9)
C19_5 C 0.2422(3) 0.1395(3) 0.81575(10)
C20_5 C 0.3605(3) 0.2578(3) 0.68425(10)
C22_5 C 0.1796(3) 0.1632(4) 0.80608(13)
C23_5 C 0.3368(4) 0.3204(3) 0.69392(13)
H18_5 H 0.1389 0.1479 0.8137
H19_5 H 0.3521 0.3611 0.6863
C25_5 C 0.1765(4) 0.2091(4) 0.78536(12)
C26_5 C 0.2909(4) 0.3235(4) 0.71464(12)
H21_5 H 0.1346 0.2287 0.7806
H22_5 H 0.2713 0.3654 0.7194
C28_5 C 0.2328(4) 0.2251(4) 0.77243(12)
C29_5 C 0.2749(4) 0.2672(4) 0.72757(12)
C31_5 C 0.2928(4) 0.2012(4) 0.78130(12)
C32_5 C 0.2988(4) 0.2072(4) 0.71870(12)
H24_5 H 0.3326 0.2147 0.7725
H25_5 H 0.2853 0.1674 0.7275
C34_5 C 0.2998(3) 0.1592(3) 0.80188(10)
C35_5 C 0.3408(3) 0.2002(3) 0.69812(10)
H27_5 H 0.3431 0.1434 0.8068
H28_5 H 0.3566 0.1569 0.6932
C36_6 C 0.2276(5) 0.2724(5) 0.75000
O15_6 O 0.1813(4) 0.3187(4) 0.75000
C1_12 C 0.0389(9) 1.0000 0.9075(3)
H2_8 H 0.0555 0.9596 0.9167
C2_8 C 0.0389(8) 0.9303(8) 0.8659(3)
H3_8 H 0.0556 0.8913 0.8759
H4_8 H 0.0556 0.9258 0.848
C11_11 C 0.9611(9) 0.0000 0.9075(3)
H10_8 H 0.9445 0.0404 0.9167
C12_8 C 0.9611(8) 0.0697(8) 0.8659(3)
H13_8 H 0.9444 0.1087 0.8759
H16_8 H 0.9444 0.0742 0.848
C11_12 C 0.9611(9) 1.0000 0.9075(3)
H9_8 H 0.9445 0.9596 0.9167
C14_8 C 0.9611(8) 0.9303(8) 0.8659(3)
H12_8 H 0.9444 0.8913 0.8759
H15_8 H 0.9444 0.9258 0.848
O7_12 O 0.5724(2) 0.31000(19) 0.65131(6)
O14_12 O 0.5717(2) 0.3047(2) 0.59521(6)
C16_6 C 0.5889(3) 0.2477(3) 0.58851(9)
C17_6 C 0.7523(3) 0.4111(3) 0.41149(9)
C19_6 C 0.6395(3) 0.2422(3) 0.56575(10)
C20_6 C 0.7578(3) 0.3605(3) 0.43425(10)
C22_6 C 0.6632(4) 0.1796(3) 0.55608(13)
C23_6 C 0.8204(3) 0.3368(4) 0.44392(13)
H18_6 H 0.6479 0.1389 0.5637
H19_6 H 0.8611 0.3521 0.4363
C25_6 C 0.7091(4) 0.1765(4) 0.53536(12)
C26_6 C 0.8235(4) 0.2909(4) 0.46464(12)
H21_6 H 0.7287 0.1346 0.5306
H22_6 H 0.8654 0.2713 0.4694
C28_6 C 0.7251(4) 0.2328(4) 0.52243(12)
C29_6 C 0.7672(4) 0.2749(4) 0.47757(12)
C31_6 C 0.7012(4) 0.2928(4) 0.53130(12)
C32_6 C 0.7072(4) 0.2988(4) 0.46870(12)
H24_6 H 0.7147 0.3326 0.5225
H25_6 H 0.6674 0.2853 0.4775
C34_6 C 0.6592(3) 0.2998(3) 0.55188(10)
C35_6 C 0.7002(3) 0.3408(3) 0.44812(10)
H27_6 H 0.6434 0.3431 0.5568
H28_6 H 0.6569 0.3566 0.4432
C36_7 C 0.7724(5) 0.2276(5) 0.50000
O15_7 O 0.8187(4) 0.1813(4) 0.50000
C16_7 C 0.5889(3) 0.2523(3) 0.66149(9)
C17_7 C 0.7523(3) 0.0889(3) 0.83851(9)
C19_7 C 0.6395(3) 0.2578(3) 0.68425(10)
C20_7 C 0.7578(3) 0.1395(3) 0.81575(10)
C22_7 C 0.6632(4) 0.3204(3) 0.69392(13)
C23_7 C 0.8204(3) 0.1632(4) 0.80608(13)
H18_7 H 0.6479 0.3611 0.6863
H19_7 H 0.8611 0.1479 0.8137
C25_7 C 0.7091(4) 0.3235(4) 0.71464(12)
C26_7 C 0.8235(4) 0.2091(4) 0.78536(12)
H21_7 H 0.7287 0.3654 0.7194
H22_7 H 0.8654 0.2287 0.7806
C28_7 C 0.7251(4) 0.2672(4) 0.72757(12)
C29_7 C 0.7672(4) 0.2251(4) 0.77243(12)
C31_7 C 0.7012(4) 0.2072(4) 0.71870(12)
C32_7 C 0.7072(4) 0.2012(4) 0.78130(12)
H24_7 H 0.7147 0.1674 0.7275
H25_7 H 0.6674 0.2147 0.7725
C34_7 C 0.6592(3) 0.2002(3) 0.69812(10)
C35_7 C 0.7002(3) 0.1592(3) 0.80188(10)
H27_7 H 0.6434 0.1569 0.6932
H28_7 H 0.6569 0.1434 0.8068
C36_8 C 0.7724(5) 0.2724(5) 0.75000
O15_8 O 0.8187(4) 0.3187(4) 0.75000
C16_8 C 0.9111(3) 0.2523(3) 0.08851(9)
C19_8 C 0.8605(3) 0.2578(3) 0.06575(10)
C22_8 C 0.8368(4) 0.3204(3) 0.05608(13)
H18_8 H 0.8521 0.3611 0.0637
C25_8 C 0.7909(4) 0.3235(4) 0.03536(12)
H21_8 H 0.7713 0.3654 0.0306
C28_8 C 0.7749(4) 0.2672(4) 0.02243(12)
C31_8 C 0.7988(4) 0.2072(4) 0.03130(12)
H24_8 H 0.7853 0.1674 0.0225
C34_8 C 0.8408(3) 0.2002(3) 0.05188(10)
H27_8 H 0.8566 0.1569 0.0568
C36_9 C 0.7276(5) 0.2724(5) 0.00000
O15_9 O 0.6813(4) 0.3187(4) 0.00000
C17_8 C 0.7477(3) 0.0889(3) 0.91149(9)
C20_8 C 0.7422(3) 0.1395(3) 0.93425(10)
C23_8 C 0.6796(3) 0.1632(4) 0.94392(13)
H19_8 H 0.6389 0.1479 0.9363
C26_8 C 0.6765(4) 0.2091(4) 0.96464(12)
H22_8 H 0.6346 0.2287 0.9694
C29_8 C 0.7328(4) 0.2251(4) 0.97757(12)
C32_8 C 0.7928(4) 0.2012(4) 0.96870(12)
H25_8 H 0.8326 0.2147 0.9775
C35_8 C 0.7998(3) 0.1592(3) 0.94812(10)
H28_8 H 0.8431 0.1434 0.9432
C36_10 C 0.7276(5) 0.2724(5) 1.00000
O15_10 O 0.6813(4) 0.3187(4) 1.00000
C16_9 C 0.9111(3) 0.2477(3) 0.16149(9)
C17_9 C 0.7477(3) 0.4111(3) 0.33851(9)
C19_9 C 0.8605(3) 0.2422(3) 0.18425(10)
C20_9 C 0.7422(3) 0.3605(3) 0.31575(10)
C22_9 C 0.8368(4) 0.1796(3) 0.19392(13)
C23_9 C 0.6796(3) 0.3368(4) 0.30608(13)
H18_9 H 0.8521 0.1389 0.1863
H19_9 H 0.6389 0.3521 0.3137
C25_9 C 0.7909(4) 0.1765(4) 0.21464(12)
C26_9 C 0.6765(4) 0.2909(4) 0.28536(12)
H21_9 H 0.7713 0.1346 0.2194
H22_9 H 0.6346 0.2713 0.2806
C28_9 C 0.7749(4) 0.2328(4) 0.22757(12)
C29_9 C 0.7328(4) 0.2749(4) 0.27243(12)
C31_9 C 0.7988(4) 0.2928(4) 0.21870(12)
C32_9 C 0.7928(4) 0.2988(4) 0.28130(12)
H24_9 H 0.7853 0.3326 0.2275
H25_9 H 0.8326 0.2853 0.2725
C34_9 C 0.8408(3) 0.2998(3) 0.19812(10)
C35_9 C 0.7998(3) 0.3408(3) 0.30188(10)
H27_9 H 0.8566 0.3431 0.1932
H28_9 H 0.8431 0.3566 0.3068
C36_11 C 0.7276(5) 0.2276(5) 0.25000
O15_11 O 0.6813(4) 0.1813(4) 0.25000
loop_
_geom_bond_atom_site_label_1
_geom_bond_atom_site_label_2
_geom_bond_site_symmetry_1
_geom_bond_site_symmetry_2
C1 H1 1_555 1_555
N1 C1 1_555 1_555
C11 C1 1_555 1_555
H10 C11 1_555 1_555
C12 C13 1_555 1_555
C13 N1 1_555 1_555
H11 C13 1_555 1_555
H13 C12 1_555 1_555
H14 C13 1_555 1_555
H16 C12 1_555 1_555
O5 Zn1 1_555 1_555
C16 O5 1_555 1_555
C19 C16 1_555 1_555
C22 C19 1_555 1_555
H18 C22 1_555 1_555
C25 C22 1_555 1_555
H21 C25 1_555 1_555
C28 C25 1_555 1_555
C31 C28 1_555 1_555
H24 C31 1_555 1_555
C34 C19 1_555 1_555
H27 C34 1_555 1_555
C36 C28 1_555 1_555
N2 C11 1_555 1_555
O9 C16 1_555 1_555
O12 Zn1 1_555 1_555
O15 C36 1_555 1_555
Zn4 N2 1_555 1_555
N1 Zn1 1_555 1_555
C12 N2 1_555 1_555
C31 C34 1_555 1_555
O9 Zn3 1_555 1_555
O6 C17 1_555 1_555
C17 C20 1_555 1_555
C20 C23 1_555 1_555
C23 H19 1_555 1_555
C26 C23 1_555 1_555
H22 C26 1_555 1_555
C29 C26 1_555 1_555
C32 C29 1_555 1_555
H25 C32 1_555 1_555
C35 C20 1_555 1_555
H28 C35 1_555 1_555
O10 C17 1_555 1_555
O15_2 C36_2 1_555 1_555
Zn6_2 O6 1_555 1_555
Zn7_2 O10 1_555 1_555
C29 C36_2 1_555 1_555
C32 C35 1_555 1_555
O7 Zn2 1_555 1_555
N3 Zn2 1_555 1_555
O14 Zn2 1_555 1_555
H2 C1_2 1_555 1_555
C2 H3 1_555 1_555
H4 C2 1_555 1_555
O1 C3 1_555 1_555
C3 C4 1_555 1_555
C4 C5 1_555 1_555
C5 H5 1_555 1_555
C6 C5 1_555 1_555
H6 C6 1_555 1_555
C7 C6 1_555 1_555
C8 C7 1_555 1_555
H7 C8 1_555 1_555
C9 C4 1_555 1_555
H8 C9 1_555 1_555
C10 C7 1_555 1_555
N1_2 C1_2 1_555 1_555
O2 C3 1_555 1_555
O3 C10 1_555 1_555
Zn1_2 O1 1_555 1_555
C11_2 C1_2 1_555 1_555
H9 C11_2 1_555 1_555
C14 C2 1_555 1_555
H12 C14 1_555 1_555
H15 C14 1_555 1_555
N2_2 C11_2 1_555 1_555
O11 Zn1_2 1_555 1_555
Zn3_2 O2 1_555 1_555
Zn4_2 N2_2 1_555 1_555
C2 N1_2 1_555 1_555
C8 C9 1_555 1_555
N1_2 Zn1_2 1_555 1_555
C14 N2_2 1_555 1_555
O3_2 C10_2 1_555 1_555
O4 C15 1_555 1_555
C15 C18 1_555 1_555
C18 C21 1_555 1_555
C21 H17 1_555 1_555
C24 C21 1_555 1_555
H20 C24 1_555 1_555
C27 C10_2 1_555 1_555
C30 C27 1_555 1_555
H23 C30 1_555 1_555
C33 C18 1_555 1_555
H26 C33 1_555 1_555
N3_2 Zn2_2 1_555 1_555
O8 C15 1_555 1_555
O13 Zn2_2 1_555 1_555
Zn2_2 O4 1_555 1_555
Zn5_2 O8 1_555 1_555
C24 C27 1_555 1_555
C30 C33 1_555 1_555
H10_2 C11_3 1_555 1_555
H13_2 C12_2 1_555 1_555
H16_2 C12_2 1_555 1_555
N2_3 C11_3 1_555 1_555
Zn4_3 N2_3 1_555 1_555
C12_2 N2_3 1_555 1_555
C1_3 H1_2 1_555 1_555
N1_3 C1_3 1_555 1_555
C13_2 N1_3 1_555 1_555
H11_2 C13_2 1_555 1_555
H14_2 C13_2 1_555 1_555
O5_2 Zn3 1_555 1_555
O6_2 C17_2 1_555 1_555
C16_2 O5_2 1_555 1_555
C17_2 C20_2 1_555 1_555
C19_2 C16_2 1_555 1_555
C20_2 C23_2 1_555 1_555
C22_2 C19_2 1_555 1_555
C23_2 H19_2 1_555 1_555
H18_2 C22_2 1_555 1_555
C25_2 C22_2 1_555 1_555
C26_2 C23_2 1_555 1_555
H21_2 C25_2 1_555 1_555
H22_2 C26_2 1_555 1_555
C28_2 C25_2 1_555 1_555
C29_2 C26_2 1_555 1_555
C31_2 C28_2 1_555 1_555
C32_2 C29_2 1_555 1_555
H24_2 C31_2 1_555 1_555
H25_2 C32_2 1_555 1_555
C34_2 C19_2 1_555 1_555
C35_2 C20_2 1_555 1_555
H27_2 C34_2 1_555 1_555
H28_2 C35_2 1_555 1_555
C36_3 C28_2 1_555 1_555
O12 C16_2 1_555 1_555
O10_2 C17_2 1_555 1_555
O15_3 C36_3 1_555 1_555
Zn6_3 O6_2 1_555 1_555
Zn7_3 O10_2 1_555 1_555
N1_3 Zn3 1_555 1_555
C29_2 C36_3 1_555 1_555
C31_2 C34_2 1_555 1_555
C32_2 C35_2 1_555 1_555
H9_2 C11_4 1_555 1_555
H12_2 C14_2 1_555 1_555
H15_2 C14_2 1_555 1_555
N2_4 C11_4 1_555 1_555
Zn4_4 N2_4 1_555 1_555
C14_2 N2_4 1_555 1_555
H2_2 C1_4 1_555 1_555
C2_2 H3_2 1_555 1_555
H4_2 C2_2 1_555 1_555
O1_2 C3_2 1_555 1_555
C3_2 C4_2 1_555 1_555
C4_2 C5_2 1_555 1_555
C5_2 H5_2 1_555 1_555
C6_2 C5_2 1_555 1_555
H6_2 C6_2 1_555 1_555
C7_2 C6_2 1_555 1_555
C8_2 C7_2 1_555 1_555
H7_2 C8_2 1_555 1_555
C9_2 C4_2 1_555 1_555
H8_2 C9_2 1_555 1_555
C10_3 C7_2 1_555 1_555
N1_4 C1_4 1_555 1_555
O11 C3_2 1_555 1_555
O3_3 C10_3 1_555 1_555
Zn3_2 O1_2 1_555 1_555
O4_2 C15_2 1_555 1_555
O7_2 Zn2_3 1_555 1_555
C15_2 C18_2 1_555 1_555
C18_2 C21_2 1_555 1_555
C21_2 H17_2 1_555 1_555
C24_2 C21_2 1_555 1_555
H20_2 C24_2 1_555 1_555
C27_2 C10_3 1_555 1_555
C30_2 C27_2 1_555 1_555
H23_2 C30_2 1_555 1_555
C33_2 C18_2 1_555 1_555
H26_2 C33_2 1_555 1_555
N3_3 Zn2_3 1_555 1_555
O8_2 C15_2 1_555 1_555
O13_2 Zn2_3 1_555 1_555
O14_2 Zn2_3 1_555 1_555
Zn2_3 O4_2 1_555 1_555
Zn5_3 O8_2 1_555 1_555
C2_2 N1_4 1_555 1_555
C8_2 C9_2 1_555 1_555
N1_4 Zn3_2 1_555 1_555
C24_2 C27_2 1_555 1_555
C30_2 C33_2 1_555 1_555
O7_3 Zn6_3 1_555 1_555
N3_4 Zn6_3 1_555 1_555
O13_3 Zn6_3 1_555 1_555
O14_3 Zn6_3 1_555 1_555
H9_3 C11_5 1_555 1_555
H10_3 C11_5 1_555 1_555
H12_3 C14_3 1_555 1_555
H13_3 C12_3 1_555 1_555
H15_3 C14_3 1_555 1_555
H16_3 C12_3 1_555 1_555
N2_5 C11_5 1_555 1_555
Zn4_5 N2_5 1_555 1_555
C12_3 N2_5 1_555 1_555
C14_3 N2_5 1_555 1_555
C1_5 H1_3 1_555 1_555
H2_3 C1_5 1_555 1_555
C2_3 H3_3 1_555 1_555
H4_3 C2_3 1_555 1_555
O1_3 C3_3 1_555 1_555
C3_3 C4_3 1_555 1_555
C4_3 C5_3 1_555 1_555
C5_3 H5_3 1_555 1_555
C6_3 C5_3 1_555 1_555
H6_3 C6_3 1_555 1_555
C7_3 C6_3 1_555 1_555
C8_3 C7_3 1_555 1_555
H7_3 C8_3 1_555 1_555
C9_3 C4_3 1_555 1_555
H8_3 C9_3 1_555 1_555
C10_4 C7_3 1_555 1_555
N1_5 C1_5 1_555 1_555
O2_2 C3_3 1_555 1_555
O3_4 C10_4 1_555 1_555
Zn1_3 O1_3 1_555 1_555
C13_3 N1_5 1_555 1_555
H11_3 C13_3 1_555 1_555
H14_3 C13_3 1_555 1_555
O4_3 C15_3 1_555 1_555
O5_3 Zn1_3 1_555 1_555
O6_3 C17_3 1_555 1_555
O7_4 Zn5_3 1_555 1_555
C15_3 C18_3 1_555 1_555
C16_3 O5_3 1_555 1_555
C17_3 C20_3 1_555 1_555
C18_3 C21_3 1_555 1_555
C19_3 C16_3 1_555 1_555
C20_3 C23_3 1_555 1_555
C21_3 H17_3 1_555 1_555
C22_3 C19_3 1_555 1_555
C23_3 H19_3 1_555 1_555
H18_3 C22_3 1_555 1_555
C24_3 C21_3 1_555 1_555
C25_3 C22_3 1_555 1_555
C26_3 C23_3 1_555 1_555
H20_3 C24_3 1_555 1_555
H21_3 C25_3 1_555 1_555
H22_3 C26_3 1_555 1_555
C27_3 C10_4 1_555 1_555
C28_3 C25_3 1_555 1_555
C29_3 C26_3 1_555 1_555
C30_3 C27_3 1_555 1_555
C31_3 C28_3 1_555 1_555
C32_3 C29_3 1_555 1_555
H23_3 C30_3 1_555 1_555
H24_3 C31_3 1_555 1_555
H25_3 C32_3 1_555 1_555
C33_3 C18_3 1_555 1_555
C34_3 C19_3 1_555 1_555
C35_3 C20_3 1_555 1_555
H26_3 C33_3 1_555 1_555
H27_3 C34_3 1_555 1_555
H28_3 C35_3 1_555 1_555
C36_4 C28_3 1_555 1_555
N3_5 Zn5_3 1_555 1_555
O13_2 C15_3 1_555 1_555
O9_2 C16_3 1_555 1_555
O13_3 C17_3 1_555 1_555
O11_2 Zn1_3 1_555 1_555
O12_2 Zn1_3 1_555 1_555
O14_4 Zn5_3 1_555 1_555
O15_4 C36_4 1_555 1_555
Zn5_3 O4_3 1_555 1_555
Zn3_3 O2_2 1_555 1_555
Zn7_3 O6_3 1_555 1_555
C2_3 N1_5 1_555 1_555
C8_3 C9_3 1_555 1_555
N1_5 Zn1_3 1_555 1_555
C24_3 C27_3 1_555 1_555
C29_3 C36_4 1_555 1_555
C30_3 C33_3 1_555 1_555
C31_3 C34_3 1_555 1_555
C32_3 C35_3 1_555 1_555
O9_2 Zn3_3 1_555 1_555
O7_5 Zn5 1_555 1_555
N3_6 Zn5 1_555 1_555
O14_5 Zn5 1_555 1_555
C1_6 H1_4 1_555 1_555
H2_4 C1_6 1_555 1_555
C2_4 H3_4 1_555 1_555
H4_4 C2_4 1_555 1_555
O1_4 C3_4 1_555 1_555
C3_4 C4_4 1_555 1_555
C4_4 C5_4 1_555 1_555
C5_4 H5_4 1_555 1_555
C6_4 C5_4 1_555 1_555
H6_4 C6_4 1_555 1_555
C7_4 C6_4 1_555 1_555
C8_4 C7_4 1_555 1_555
H7_4 C8_4 1_555 1_555
C9_4 C4_4 1_555 1_555
H8_4 C9_4 1_555 1_555
C10_5 C7_4 1_555 1_555
N1_6 C1_6 1_555 1_555
O11_2 C3_4 1_555 1_555
O3_5 C10_5 1_555 1_555
Zn3_3 O1_4 1_555 1_555
C11_6 C1_6 1_555 1_555
H9_4 C11_6 1_555 1_555
H10_4 C11_6 1_555 1_555
C12_4 C13_4 1_555 1_555
C13_4 N1_6 1_555 1_555
C14_4 C2_4 1_555 1_555
H11_4 C13_4 1_555 1_555
H12_4 C14_4 1_555 1_555
H13_4 C12_4 1_555 1_555
H14_4 C13_4 1_555 1_555
H15_4 C14_4 1_555 1_555
H16_4 C12_4 1_555 1_555
O4_4 C15_4 1_555 1_555
O5_4 Zn3_3 1_555 1_555
O6_4 C17_4 1_555 1_555
C15_4 C18_4 1_555 1_555
C16_4 O5_4 1_555 1_555
C17_4 C20_4 1_555 1_555
C18_4 C21_4 1_555 1_555
C19_4 C16_4 1_555 1_555
C20_4 C23_4 1_555 1_555
C21_4 H17_4 1_555 1_555
C22_4 C19_4 1_555 1_555
C23_4 H19_4 1_555 1_555
H18_4 C22_4 1_555 1_555
C24_4 C21_4 1_555 1_555
C25_4 C22_4 1_555 1_555
C26_4 C23_4 1_555 1_555
H20_4 C24_4 1_555 1_555
H21_4 C25_4 1_555 1_555
H22_4 C26_4 1_555 1_555
C27_4 C10_5 1_555 1_555
C28_4 C25_4 1_555 1_555
C29_4 C26_4 1_555 1_555
C30_4 C27_4 1_555 1_555
C31_4 C28_4 1_555 1_555
C32_4 C29_4 1_555 1_555
H23_4 C30_4 1_555 1_555
H24_4 C31_4 1_555 1_555
H25_4 C32_4 1_555 1_555
C33_4 C18_4 1_555 1_555
C34_4 C19_4 1_555 1_555
C35_4 C20_4 1_555 1_555
H26_4 C33_4 1_555 1_555
H27_4 C34_4 1_555 1_555
H28_4 C35_4 1_555 1_555
C36_5 C28_4 1_555 1_555
N2_6 C11_6 1_555 1_555
N3_7 Zn5_2 1_555 1_555
O13 C15_4 1_555 1_555
O12_2 C16_4 1_555 1_555
O10_3 C17_4 1_555 1_555
O15_5 C36_5 1_555 1_555
Zn5_2 O4_4 1_555 1_555
Zn4_6 N2_6 1_555 1_555
Zn7_2 O6_4 1_555 1_555
Zn6_2 O10_3 1_555 1_555
C2_4 N1_6 1_555 1_555
C8_4 C9_4 1_555 1_555
N1_6 Zn3_3 1_555 1_555
C12_4 N2_6 1_555 1_555
C14_4 N2_6 1_555 1_555
C24_4 C27_4 1_555 1_555
C29_4 C36_5 1_555 1_555
C30_4 C33_4 1_555 1_555
C31_4 C34_4 1_555 1_555
C32_4 C35_4 1_555 1_555
O7_6 Zn7 1_555 1_555
N3_8 Zn7 1_555 1_555
O14_6 Zn7 1_555 1_555
N3_9 Zn7_2 1_555 1_555
O7_7 Zn6 1_555 1_555
N3_10 Zn6 1_555 1_555
O14_7 Zn6 1_555 1_555
N3_11 Zn6_2 1_555 1_555
O7_8 Zn7_3 1_555 1_555
N3_12 Zn7_3 1_555 1_555
O14_8 Zn7_3 1_555 1_555
C1_7 H1_5 1_555 1_555
H2_5 C1_7 1_555 1_555
C2_5 H3_5 1_555 1_555
H4_5 C2_5 1_555 1_555
O7_3 C3_5 1_555 1_555
C3_5 C4_5 1_555 1_555
C4_5 C5_5 1_555 1_555
C5_5 H5_5 1_555 1_555
C6_5 C5_5 1_555 1_555
H6_5 C6_5 1_555 1_555
C7_5 C6_5 1_555 1_555
C8_5 C7_5 1_555 1_555
H7_5 C8_5 1_555 1_555
C9_5 C4_5 1_555 1_555
H8_5 C9_5 1_555 1_555
C10_6 C7_5 1_555 1_555
N3_4 C1_7 1_555 1_555
O14_8 C3_5 1_555 1_555
O3_6 C10_6 1_555 1_555
C11_7 C1_7 1_555 1_555
H9_5 C11_7 1_555 1_555
H10_5 C11_7 1_555 1_555
C12_5 C13_5 1_555 1_555
C13_5 N3_4 1_555 1_555
C14_5 C2_5 1_555 1_555
H11_5 C13_5 1_555 1_555
H12_5 C14_5 1_555 1_555
H13_5 C12_5 1_555 1_555
H14_5 C13_5 1_555 1_555
H15_5 C14_5 1_555 1_555
H16_5 C12_5 1_555 1_555
O4_5 C15_5 1_555 1_555
C15_5 C18_5 1_555 1_555
C18_5 C21_5 1_555 1_555
C21_5 H17_5 1_555 1_555
C24_5 C21_5 1_555 1_555
H20_5 C24_5 1_555 1_555
C27_5 C10_6 1_555 1_555
C30_5 C27_5 1_555 1_555
H23_5 C30_5 1_555 1_555
C33_5 C18_5 1_555 1_555
H26_5 C33_5 1_555 1_555
N3_3 C11_7 1_555 1_555
O8_3 C15_5 1_555 1_555
O13_4 Zn4_3 1_555 1_555
Zn4_3 O4_5 1_555 1_555
Zn4 O8_3 1_555 1_555
C2_5 N3_4 1_555 1_555
C8_5 C9_5 1_555 1_555
C12_5 N3_3 1_555 1_555
C14_5 N3_3 1_555 1_555
C24_5 C27_5 1_555 1_555
C30_5 C33_5 1_555 1_555
O7_9 Zn4_4 1_555 1_555
O14_9 Zn4_4 1_555 1_555
C1_8 H1_6 1_555 1_555
H2_6 C1_8 1_555 1_555
C2_6 H3_6 1_555 1_555
H4_6 C2_6 1_555 1_555
O7_8 C3_6 1_555 1_555
C3_6 C4_6 1_555 1_555
C4_6 C5_6 1_555 1_555
C5_6 H5_6 1_555 1_555
C6_6 C5_6 1_555 1_555
H6_6 C6_6 1_555 1_555
C7_6 C6_6 1_555 1_555
C8_6 C7_6 1_555 1_555
H7_6 C8_6 1_555 1_555
C9_6 C4_6 1_555 1_555
H8_6 C9_6 1_555 1_555
C10_7 C7_6 1_555 1_555
N3_12 C1_8 1_555 1_555
O14_3 C3_6 1_555 1_555
O3_7 C10_7 1_555 1_555
C13_6 N3_12 1_555 1_555
H11_6 C13_6 1_555 1_555
H14_6 C13_6 1_555 1_555
O4_6 C15_6 1_555 1_555
O7_10 Zn4_5 1_555 1_555
C15_6 C18_6 1_555 1_555
C18_6 C21_6 1_555 1_555
C21_6 H17_6 1_555 1_555
C24_6 C21_6 1_555 1_555
H20_6 C24_6 1_555 1_555
C27_6 C10_7 1_555 1_555
C30_6 C27_6 1_555 1_555
H23_6 C30_6 1_555 1_555
C33_6 C18_6 1_555 1_555
H26_6 C33_6 1_555 1_555
O8_4 C15_6 1_555 1_555
O13_5 Zn4_5 1_555 1_555
O14_10 Zn4_5 1_555 1_555
Zn4_5 O4_6 1_555 1_555
Zn4_6 O8_4 1_555 1_555
C2_6 N3_12 1_555 1_555
C8_6 C9_6 1_555 1_555
C24_6 C27_6 1_555 1_555
C30_6 C33_6 1_555 1_555
H9_6 C11_8 1_555 1_555
H10_6 C11_8 1_555 1_555
H12_6 C14_6 1_555 1_555
H13_6 C12_6 1_555 1_555
H15_6 C14_6 1_555 1_555
H16_6 C12_6 1_555 1_555
N3_5 C11_8 1_555 1_555
C12_6 N3_5 1_555 1_555
C14_6 N3_5 1_555 1_555
O3_8 C10_8 1_555 1_555
O4_7 C15_7 1_555 1_555
C15_7 C18_7 1_555 1_555
C18_7 C21_7 1_555 1_555
C21_7 H17_7 1_555 1_555
C24_7 C21_7 1_555 1_555
H20_7 C24_7 1_555 1_555
C27_7 C10_8 1_555 1_555
C30_7 C27_7 1_555 1_555
H23_7 C30_7 1_555 1_555
C33_7 C18_7 1_555 1_555
H26_7 C33_7 1_555 1_555
O13_4 C15_7 1_555 1_555
Zn4 O4_7 1_555 1_555
C24_7 C27_7 1_555 1_555
C30_7 C33_7 1_555 1_555
H2_7 C1_9 1_555 1_555
C2_7 H3_7 1_555 1_555
H4_7 C2_7 1_555 1_555
O7_7 C3_7 1_555 1_555
C3_7 C4_7 1_555 1_555
C4_7 C5_7 1_555 1_555
C5_7 H5_7 1_555 1_555
C6_7 C5_7 1_555 1_555
H6_7 C6_7 1_555 1_555
C7_7 C6_7 1_555 1_555
C8_7 C7_7 1_555 1_555
H7_7 C8_7 1_555 1_555
C9_7 C4_7 1_555 1_555
H8_7 C9_7 1_555 1_555
C10_9 C7_7 1_555 1_555
N3_10 C1_9 1_555 1_555
O14_6 C3_7 1_555 1_555
O3_9 C10_9 1_555 1_555
C11_9 C1_9 1_555 1_555
H9_7 C11_9 1_555 1_555
C14_7 C2_7 1_555 1_555
H12_7 C14_7 1_555 1_555
H15_7 C14_7 1_555 1_555
N3 C11_9 1_555 1_555
C2_7 N3_10 1_555 1_555
C8_7 C9_7 1_555 1_555
C14_7 N3 1_555 1_555
C1_10 H1_7 1_555 1_555
N3_11 C1_10 1_555 1_555
C11_10 C1_10 1_555 1_555
H10_7 C11_10 1_555 1_555
C12_7 C13_7 1_555 1_555
C13_7 N3_11 1_555 1_555
H11_7 C13_7 1_555 1_555
H13_7 C12_7 1_555 1_555
H14_7 C13_7 1_555 1_555
H16_7 C12_7 1_555 1_555
N3_2 C11_10 1_555 1_555
C12_7 N3_2 1_555 1_555
O7_11 Zn4_2 1_555 1_555
O14_11 Zn4_2 1_555 1_555
C1_11 H1_8 1_555 1_555
N3_8 C1_11 1_555 1_555
C13_8 N3_8 1_555 1_555
H11_8 C13_8 1_555 1_555
H14_8 C13_8 1_555 1_555
O6_5 C17_5 1_555 1_555
C16_5 O7_6 1_555 1_555
C17_5 C20_5 1_555 1_555
C19_5 C16_5 1_555 1_555
C20_5 C23_5 1_555 1_555
C22_5 C19_5 1_555 1_555
C23_5 H19_5 1_555 1_555
H18_5 C22_5 1_555 1_555
C25_5 C22_5 1_555 1_555
C26_5 C23_5 1_555 1_555
H21_5 C25_5 1_555 1_555
H22_5 C26_5 1_555 1_555
C28_5 C25_5 1_555 1_555
C29_5 C26_5 1_555 1_555
C31_5 C28_5 1_555 1_555
C32_5 C29_5 1_555 1_555
H24_5 C31_5 1_555 1_555
H25_5 C32_5 1_555 1_555
C34_5 C19_5 1_555 1_555
C35_5 C20_5 1_555 1_555
H27_5 C34_5 1_555 1_555
H28_5 C35_5 1_555 1_555
C36_6 C28_5 1_555 1_555
O14_7 C16_5 1_555 1_555
O13_5 C17_5 1_555 1_555
O15_6 C36_6 1_555 1_555
Zn4_6 O6_5 1_555 1_555
C29_5 C36_6 1_555 1_555
C31_5 C34_5 1_555 1_555
C32_5 C35_5 1_555 1_555
H2_8 C1_12 1_555 1_555
C2_8 H3_8 1_555 1_555
H4_8 C2_8 1_555 1_555
N3_9 C1_12 1_555 1_555
C2_8 N3_9 1_555 1_555
H10_8 C11_11 1_555 1_555
H13_8 C12_8 1_555 1_555
H16_8 C12_8 1_555 1_555
N3_6 C11_11 1_555 1_555
C12_8 N3_6 1_555 1_555
H9_8 C11_12 1_555 1_555
H12_8 C14_8 1_555 1_555
H15_8 C14_8 1_555 1_555
N3_7 C11_12 1_555 1_555
C14_8 N3_7 1_555 1_555
O7_12 Zn4_6 1_555 1_555
O14_12 Zn4_6 1_555 1_555
O7_4 C17_6 1_555 1_555
C16_6 O7_10 1_555 1_555
C17_6 C20_6 1_555 1_555
C19_6 C16_6 1_555 1_555
C20_6 C23_6 1_555 1_555
C22_6 C19_6 1_555 1_555
C23_6 H19_6 1_555 1_555
H18_6 C22_6 1_555 1_555
C25_6 C22_6 1_555 1_555
C26_6 C23_6 1_555 1_555
H21_6 C25_6 1_555 1_555
H22_6 C26_6 1_555 1_555
C28_6 C25_6 1_555 1_555
C29_6 C26_6 1_555 1_555
C31_6 C28_6 1_555 1_555
C32_6 C29_6 1_555 1_555
H24_6 C31_6 1_555 1_555
H25_6 C32_6 1_555 1_555
C34_6 C19_6 1_555 1_555
C35_6 C20_6 1_555 1_555
H27_6 C34_6 1_555 1_555
H28_6 C35_6 1_555 1_555
C36_7 C28_6 1_555 1_555
O14_12 C16_6 1_555 1_555
O14_2 C17_6 1_555 1_555
O15_7 C36_7 1_555 1_555
C29_6 C36_7 1_555 1_555
C31_6 C34_6 1_555 1_555
C32_6 C35_6 1_555 1_555
O7_5 C17_7 1_555 1_555
C16_7 O7_12 1_555 1_555
C17_7 C20_7 1_555 1_555
C19_7 C16_7 1_555 1_555
C20_7 C23_7 1_555 1_555
C22_7 C19_7 1_555 1_555
C23_7 H19_7 1_555 1_555
H18_7 C22_7 1_555 1_555
C25_7 C22_7 1_555 1_555
C26_7 C23_7 1_555 1_555
H21_7 C25_7 1_555 1_555
H22_7 C26_7 1_555 1_555
C28_7 C25_7 1_555 1_555
C29_7 C26_7 1_555 1_555
C31_7 C28_7 1_555 1_555
C32_7 C29_7 1_555 1_555
H24_7 C31_7 1_555 1_555
H25_7 C32_7 1_555 1_555
C34_7 C19_7 1_555 1_555
C35_7 C20_7 1_555 1_555
H27_7 C34_7 1_555 1_555
H28_7 C35_7 1_555 1_555
C36_8 C28_7 1_555 1_555
O14_10 C16_7 1_555 1_555
O14 C17_7 1_555 1_555
O15_8 C36_8 1_555 1_555
C29_7 C36_8 1_555 1_555
C31_7 C34_7 1_555 1_555
C32_7 C35_7 1_555 1_555
C16_8 O7_11 1_555 1_555
C19_8 C16_8 1_555 1_555
C22_8 C19_8 1_555 1_555
H18_8 C22_8 1_555 1_555
C25_8 C22_8 1_555 1_555
H21_8 C25_8 1_555 1_555
C28_8 C25_8 1_555 1_555
C31_8 C28_8 1_555 1_555
H24_8 C31_8 1_555 1_555
C34_8 C19_8 1_555 1_555
H27_8 C34_8 1_555 1_555
C36_9 C28_8 1_555 1_555
O14_9 C16_8 1_555 1_555
O15_9 C36_9 1_555 1_555
C31_8 C34_8 1_555 1_555
O7 C17_8 1_555 1_555
C17_8 C20_8 1_555 1_555
C20_8 C23_8 1_555 1_555
C23_8 H19_8 1_555 1_555
C26_8 C23_8 1_555 1_555
H22_8 C26_8 1_555 1_555
C29_8 C26_8 1_555 1_555
C32_8 C29_8 1_555 1_555
H25_8 C32_8 1_555 1_555
C35_8 C20_8 1_555 1_555
H28_8 C35_8 1_555 1_555
O14_5 C17_8 1_555 1_555
O15_10 C36_10 1_555 1_555
C29_8 C36_10 1_555 1_555
C32_8 C35_8 1_555 1_555
O7_2 C17_9 1_555 1_555
C16_9 O7_9 1_555 1_555
C17_9 C20_9 1_555 1_555
C19_9 C16_9 1_555 1_555
C20_9 C23_9 1_555 1_555
C22_9 C19_9 1_555 1_555
C23_9 H19_9 1_555 1_555
H18_9 C22_9 1_555 1_555
C25_9 C22_9 1_555 1_555
C26_9 C23_9 1_555 1_555
H21_9 C25_9 1_555 1_555
H22_9 C26_9 1_555 1_555
C28_9 C25_9 1_555 1_555
C29_9 C26_9 1_555 1_555
C31_9 C28_9 1_555 1_555
C32_9 C29_9 1_555 1_555
H24_9 C31_9 1_555 1_555
H25_9 C32_9 1_555 1_555
C34_9 C19_9 1_555 1_555
C35_9 C20_9 1_555 1_555
H27_9 C34_9 1_555 1_555
H28_9 C35_9 1_555 1_555
C36_11 C28_9 1_555 1_555
O14_11 C16_9 1_555 1_555
O14_4 C17_9 1_555 1_555
O15_11 C36_11 1_555 1_555
C29_9 C36_11 1_555 1_555
C31_9 C34_9 1_555 1_555
C32_9 C35_9 1_555 1_555

#END
