
###############################################################################
#
# This file contains modified crystal structure data generated from the
# MOF subset of the Cambridge Structural Database (CSD) v543 
# hosted by the Cambridge Crystallographic Data Centre (CCDC).
#
# This work is licensed under the Creative Commons
# Attribution-NonCommercial-ShareAlike 4.0 International License.
# To view a copy of this license, visit
# http://creativecommons.org/licenses/by-nc-sa/4.0/
# or send a letter to
# Creative Commons, PO Box 1866, Mountain View, CA 94042, USA.
#
# CIF created using the CSD Python API on 29 September 2022
# The structure has been converted into the P1 space group
# The structure has a 3D framework
# The original CSD entry HOJJAU is in the orthorhombic crystal system
# The framework has been calculated to contain at least 10.0% void space
# The void calculation uses a probe of radius 1.32A, grid spacing 0.4
# H atom positions have been added when not included in the experimental data
#
###############################################################################

data_HOJJAU
_chemical_formula_moiety         '(C464 H320 Au16 Cl16 Co20 N16 O112 P16)n'
_symmetry_cell_setting           triclinic
_symmetry_space_group_name_H-M   'P 1'
_symmetry_Int_Tables_number      1
_space_group_name_Hall           'P 1'
loop_
_symmetry_equiv_pos_site_id
_symmetry_equiv_pos_as_xyz
1 x,y,z
_cell_length_a                   43.788(5)
_cell_length_b                   24.203(3)
_cell_length_c                   24.519(3)
_cell_angle_alpha                90
_cell_angle_beta                 90
_cell_angle_gamma                90
_cell_volume                     25985.3
loop_
_atom_site_label
_atom_site_type_symbol
_atom_site_fract_x
_atom_site_fract_y
_atom_site_fract_z
Au1 Au 0.37098(2) 0.06176(2) 0.59587(2)
Cl1 Cl 0.41541(12) 0.0206(2) 0.6219(2)
P1 P 0.32622(7) 0.09680(11) 0.57206(10)
Co1 Co 0.250000 0.12197(7) 0.250000
Co2 Co 0.32345(4) 0.07375(5) 0.21559(5)
O1 O 0.28119(19) 0.1230(3) 0.3120(3)
O2 O 0.3264(2) 0.0866(3) 0.2966(3)
O3 O 0.32084(18) 0.3478(3) 0.6912(3)
O4 O 0.27311(17) 0.3191(3) 0.7054(3)
C1 C 0.3217(3) 0.1060(4) 0.4990(4)
C2 C 0.2985(3) 0.1362(4) 0.4761(4)
H1 H 0.285671 0.157214 0.499427
C3 C 0.2932(3) 0.1374(4) 0.4210(4)
H2 H 0.276658 0.157918 0.406181
C4 C 0.3127(3) 0.1076(4) 0.3877(4)
C5 C 0.3359(3) 0.0784(4) 0.4092(4)
H3 H 0.349523 0.059522 0.385597
C6 C 0.3401(3) 0.0755(4) 0.4642(4)
H4 H 0.355745 0.052554 0.478747
C7 C 0.3060(3) 0.1072(4) 0.3272(4)
C8 C 0.3172(3) 0.1625(4) 0.6032(4)
C9 C 0.3420(3) 0.1971(5) 0.6180(5)
H5 H 0.362652 0.186976 0.611655
C10 C 0.3339(3) 0.2466(5) 0.6423(5)
H6 H 0.349763 0.272098 0.650515
C11 C 0.3053(3) 0.2609(4) 0.6549(4)
C12 C 0.2819(3) 0.2269(5) 0.6416(5)
H7 H 0.261439 0.236169 0.650596
C13 C 0.2887(3) 0.1773(5) 0.6141(5)
H8 H 0.272439 0.153883 0.603111
C14 C 0.2993(3) 0.3158(4) 0.6861(4)
C15 C 0.2949(3) 0.0527(4) 0.5937(4)
C16 C 0.2952(3) 0.0366(4) 0.6480(4)
H9 H 0.312112 0.046447 0.670289
C17 C 0.2720(3) 0.0073(4) 0.6698(4)
C19 C 0.2489(3) 0.0045(4) 0.5827(4)
C20 C 0.2707(3) 0.0377(4) 0.5623(4)
H12 H 0.269214 0.050735 0.525864
N1 N 0.3710(2) 0.0772(4) 0.2086(4)
C22 C 0.3848(3) 0.1058(7) 0.1695(6)
H13 H 0.372630 0.123849 0.142812
C23 C 0.4162(3) 0.1105(8) 0.1658(6)
H14 H 0.425486 0.128664 0.135719
C24 C 0.4335(4) 0.0886(9) 0.2063(7)
C25 C 0.4194(3) 0.0682(6) 0.2530(5)
H15 H 0.431128 0.059195 0.284315
C26 C 0.3884(3) 0.0612(6) 0.2534(5)
H16 H 0.378695 0.045402 0.284316
C27 C 0.4656(4) 0.0892(15) 0.2044(10)
C28 C 0.4827(6) 0.0834(12) 0.1567(10)
H17 H 0.472277 0.079254 0.122996
C29 C 0.4837(7) 0.0867(13) 0.2538(10)
H18 H 0.473332 0.084983 0.287781
N2 N 0.6290(2) 0.0772(4) 0.2086(4)
C30 C 0.6152(3) 0.1058(7) 0.1695(6)
H19 H 0.627370 0.123849 0.142812
C31 C 0.5838(3) 0.1105(8) 0.1658(6)
H20 H 0.574514 0.128664 0.135719
C32 C 0.5665(4) 0.0886(9) 0.2063(7)
C33 C 0.5806(3) 0.0682(6) 0.2530(5)
H21 H 0.568872 0.059195 0.284315
C34 C 0.6116(3) 0.0612(6) 0.2534(5)
H22 H 0.621305 0.045402 0.284316
C35 C 0.5344(4) 0.0892(15) 0.2044(10)
C36 C 0.5173(6) 0.0834(12) 0.1567(10)
H23 H 0.527723 0.079254 0.122996
C37 C 0.5163(7) 0.0867(13) 0.2538(10)
H24 H 0.526668 0.084983 0.287781
O12 O 0.22342(17) 0.0577(3) 0.2895(2)
O13 O 0.1974(2) 0.0418(3) 0.3620(3)
O14 O 0.3316(2) 0.0120(3) 0.7716(3)
H34 H 0.272221 0.001308 0.292363
C55 C 0.2481(3) 0.0100(4) 0.3620(4)
H35 H 0.233614 0.009529 0.441081
C58 C 0.2213(3) 0.0376(4) 0.3366(5)
Co6 Co 0.250000 0.37803(7) 0.750000
Co8 Co 0.17655(4) 0.07375(5) 0.28441(5)
Co10 Co 0.32345(4) 0.42625(5) 0.71559(5)
Co11 Co 0.67655(4) 0.07375(5) 0.21559(5)
O15 O 0.21881(19) 0.1230(3) 0.1880(3)
O17 O 0.32084(18) 0.1522(3) 0.1912(3)
O18 O 0.27311(17) 0.1809(3) 0.2054(3)
O19 O 0.22689(17) 0.1809(3) 0.2946(3)
O20 O 0.27658(17) 0.0577(3) 0.2105(2)
O22 O 0.3026(2) 0.0418(3) 0.1380(3)
H37 H 0.315326 0.0274564 0.747879
H38 H 0.331517 0.0315176 0.807223
O5 O 0.22342(17) 0.9423(3) 0.7105(2)
O6 O 0.1974(2) 0.9582(3) 0.6380(3)
O7 O 0.3316(2) 0.9880(3) 0.2284(3)
H10 H 0.272221 0.998692 0.707637
C18 C 0.2481(3) 0.9900(4) 0.6380(4)
H11 H 0.233614 0.990471 0.558919
C21 C 0.2213(3) 0.9624(4) 0.6634(5)
Au2 Au 0.37098(2) 0.93824(2) 0.40413(2)
Cl2 Cl 0.41541(12) 0.9794(2) 0.3781(2)
P2 P 0.32622(7) 0.90320(11) 0.42794(10)
Co3 Co 0.32345(4) 0.92625(5) 0.78441(5)
O8 O 0.28119(19) 0.8770(3) 0.6880(3)
O9 O 0.3264(2) 0.9134(3) 0.7034(3)
O10 O 0.32084(18) 0.6522(3) 0.3088(3)
O11 O 0.27311(17) 0.6809(3) 0.2946(3)
C38 C 0.3217(3) 0.8940(4) 0.5010(4)
C39 C 0.2985(3) 0.8638(4) 0.5239(4)
H25 H 0.285671 0.842786 0.500573
C40 C 0.2932(3) 0.8626(4) 0.5790(4)
H26 H 0.276658 0.842082 0.593819
C41 C 0.3127(3) 0.8924(4) 0.6123(4)
C42 C 0.3359(3) 0.9216(4) 0.5908(4)
H27 H 0.349523 0.940478 0.614403
C43 C 0.3401(3) 0.9245(4) 0.5358(4)
H28 H 0.355745 0.947446 0.521253
C44 C 0.3060(3) 0.8928(4) 0.6728(4)
C45 C 0.3172(3) 0.8375(4) 0.3968(4)
C46 C 0.3420(3) 0.8029(5) 0.3820(5)
H29 H 0.362652 0.813024 0.388345
C47 C 0.3339(3) 0.7534(5) 0.3577(5)
H30 H 0.349763 0.727902 0.349485
C48 C 0.3053(3) 0.7391(4) 0.3451(4)
C49 C 0.2819(3) 0.7731(5) 0.3584(5)
H31 H 0.261439 0.763831 0.349404
C50 C 0.2887(3) 0.8227(5) 0.3859(5)
H32 H 0.272439 0.846117 0.396889
C51 C 0.2993(3) 0.6842(4) 0.3139(4)
C52 C 0.2949(3) 0.9473(4) 0.4063(4)
C53 C 0.2952(3) 0.9634(4) 0.3520(4)
H33 H 0.312112 0.953553 0.329711
C54 C 0.2720(3) 0.9927(4) 0.3302(4)
C56 C 0.2489(3) 0.9955(4) 0.4173(4)
C57 C 0.2707(3) 0.9623(4) 0.4377(4)
H36 H 0.269214 0.949265 0.474136
Co4 Co 0.250000 0.87803(7) 0.750000
Co5 Co 0.250000 0.62197(7) 0.250000
Co7 Co 0.17655(4) 0.92625(5) 0.71559(5)
Co9 Co 0.32345(4) 0.57375(5) 0.28441(5)
O16 O 0.32084(18) 0.8478(3) 0.8088(3)
O21 O 0.27658(17) 0.9423(3) 0.7895(2)
O23 O 0.3026(2) 0.9582(3) 0.8620(3)
N3 N 0.3710(2) 0.9228(4) 0.7914(4)
H39 H 0.315326 0.972544 0.252121
H40 H 0.331517 0.968482 0.192777
Au1_2 Au 0.62902(2) 0.43824(2) 0.09587(2)
Cl1_2 Cl 0.58459(12) 0.4794(2) 0.1219(2)
P1_2 P 0.67378(7) 0.40320(11) 0.07206(10)
O3_2 O 0.67916(18) 0.1522(3) 0.1912(3)
O4_2 O 0.72689(17) 0.1809(3) 0.2054(3)
O5_2 O 0.77658(17) 0.5577(3) 0.2105(2)
O6_2 O 0.8026(2) 0.5418(3) 0.1380(3)
C8_2 C 0.6828(3) 0.3375(4) 0.1032(4)
C9_2 C 0.6580(3) 0.3029(5) 0.1180(5)
H5_2 H 0.637348 0.313024 0.111655
C10_2 C 0.6661(3) 0.2534(5) 0.1423(5)
H6_2 H 0.650237 0.227902 0.150515
C11_2 C 0.6947(3) 0.2391(4) 0.1549(4)
C12_2 C 0.7181(3) 0.2731(5) 0.1416(5)
H7_2 H 0.738561 0.263831 0.150596
C13_2 C 0.7113(3) 0.3227(5) 0.1141(5)
H8_2 H 0.727561 0.346117 0.103111
C14_2 C 0.7007(3) 0.1842(4) 0.1861(4)
C15_2 C 0.7051(3) 0.4473(4) 0.0937(4)
C16_2 C 0.7048(3) 0.4634(4) 0.1480(4)
H9_2 H 0.687888 0.453553 0.170289
C17_2 C 0.7280(3) 0.4927(4) 0.1698(4)
H10_2 H 0.727779 0.501308 0.207637
C18_2 C 0.7519(3) 0.5100(4) 0.1380(4)
C19_2 C 0.7511(3) 0.4955(4) 0.0827(4)
H11_2 H 0.766386 0.509529 0.058919
C20_2 C 0.7293(3) 0.4623(4) 0.0623(4)
H12_2 H 0.730786 0.449265 0.025864
C21_2 C 0.7787(3) 0.5376(4) 0.1634(5)
Co3_2 Co 0.67655(4) 0.57375(5) 0.28441(5)
O8_2 O 0.71881(19) 0.6230(3) 0.1880(3)
O9_2 O 0.6736(2) 0.5866(3) 0.2034(3)
O14_2 O 0.6684(2) 0.4880(3) 0.2716(3)
C38_2 C 0.6783(3) 0.6060(4) 0.0010(4)
C39_2 C 0.7015(3) 0.6362(4) 0.0239(4)
H25_2 H 0.714329 0.657214 0.000573
C40_2 C 0.7068(3) 0.6374(4) 0.0790(4)
H26_2 H 0.723342 0.657918 0.093819
C41_2 C 0.6873(3) 0.6076(4) 0.1123(4)
C42_2 C 0.6641(3) 0.5784(4) 0.0908(4)
H27_2 H 0.650477 0.559522 0.114403
C43_2 C 0.6599(3) 0.5755(4) 0.0358(4)
H28_2 H 0.644255 0.552554 0.021253
C44_2 C 0.6940(3) 0.6072(4) 0.1728(4)
Co4_2 Co 0.750000 0.62197(7) 0.250000
Co6_2 Co 0.750000 0.12197(7) 0.250000
Co7_2 Co 0.82345(4) 0.57375(5) 0.21559(5)
O16_2 O 0.67916(18) 0.6522(3) 0.3088(3)
O21_2 O 0.72342(17) 0.5577(3) 0.2895(2)
O23_2 O 0.6974(2) 0.5418(3) 0.3620(3)
N3_2 N 0.6290(2) 0.5772(4) 0.2914(4)
H37_2 H 0.684674 0.472544 0.247879
H38_2 H 0.668483 0.468482 0.307223
Co1_2 Co 0.750000 0.37803(7) 0.750000
Co2_2 Co 0.67655(4) 0.42625(5) 0.71559(5)
O1_2 O 0.71881(19) 0.3770(3) 0.8120(3)
O2_2 O 0.6736(2) 0.4134(3) 0.7966(3)
O7_2 O 0.6684(2) 0.5120(3) 0.7284(3)
C1_2 C 0.6783(3) 0.3940(4) 0.9990(4)
C2_2 C 0.7015(3) 0.3638(4) 0.9761(4)
H1_2 H 0.714329 0.342786 0.999427
C3_2 C 0.7068(3) 0.3626(4) 0.9210(4)
H2_2 H 0.723342 0.342082 0.906181
C4_2 C 0.6873(3) 0.3924(4) 0.8877(4)
C5_2 C 0.6641(3) 0.4216(4) 0.9092(4)
H3_2 H 0.650477 0.440478 0.885597
C6_2 C 0.6599(3) 0.4245(4) 0.9642(4)
H4_2 H 0.644255 0.447446 0.978747
C7_2 C 0.6940(3) 0.3928(4) 0.8272(4)
N1_2 N 0.6290(2) 0.4228(4) 0.7086(4)
C22_2 C 0.6152(3) 0.3942(7) 0.6695(6)
H13_2 H 0.627370 0.376151 0.642812
C23_2 C 0.5838(3) 0.3895(8) 0.6658(6)
H14_2 H 0.574514 0.371336 0.635719
C24_2 C 0.5665(4) 0.4114(9) 0.7063(7)
C25_2 C 0.5806(3) 0.4318(6) 0.7530(5)
H15_2 H 0.568872 0.440805 0.784315
C26_2 C 0.6116(3) 0.4388(6) 0.7534(5)
H16_2 H 0.621305 0.454598 0.784316
C27_2 C 0.5344(4) 0.4108(15) 0.7044(10)
C28_2 C 0.5173(6) 0.4166(12) 0.6567(10)
H17_2 H 0.527723 0.420746 0.622996
C29_2 C 0.5163(7) 0.4133(13) 0.7538(10)
H18_2 H 0.526668 0.415017 0.787781
N2_2 N 0.3710(2) 0.4228(4) 0.7086(4)
C30_2 C 0.3848(3) 0.3942(7) 0.6695(6)
H19_2 H 0.372630 0.376151 0.642812
C31_2 C 0.4162(3) 0.3895(8) 0.6658(6)
H20_2 H 0.425486 0.371336 0.635719
C32_2 C 0.4335(4) 0.4114(9) 0.7063(7)
C33_2 C 0.4194(3) 0.4318(6) 0.7530(5)
H21_2 H 0.431128 0.440805 0.784315
C34_2 C 0.3884(3) 0.4388(6) 0.7534(5)
H22_2 H 0.378695 0.454598 0.784316
C35_2 C 0.4656(4) 0.4108(15) 0.7044(10)
C36_2 C 0.4827(6) 0.4166(12) 0.6567(10)
H23_2 H 0.472277 0.420746 0.622996
C37_2 C 0.4837(7) 0.4133(13) 0.7538(10)
H24_2 H 0.473332 0.415017 0.787781
Au2_2 Au 0.62902(2) 0.56176(2) 0.90413(2)
Cl2_2 Cl 0.58459(12) 0.5206(2) 0.8781(2)
P2_2 P 0.67378(7) 0.59680(11) 0.92794(10)
O10_2 O 0.67916(18) 0.8478(3) 0.8088(3)
O11_2 O 0.72689(17) 0.8191(3) 0.7946(3)
O12_2 O 0.77658(17) 0.4423(3) 0.7895(2)
O13_2 O 0.8026(2) 0.4582(3) 0.8620(3)
C45_2 C 0.6828(3) 0.6625(4) 0.8968(4)
C46_2 C 0.6580(3) 0.6971(5) 0.8820(5)
H29_2 H 0.637348 0.686976 0.888345
C47_2 C 0.6661(3) 0.7466(5) 0.8577(5)
H30_2 H 0.650237 0.772098 0.849485
C48_2 C 0.6947(3) 0.7609(4) 0.8451(4)
C49_2 C 0.7181(3) 0.7269(5) 0.8584(5)
H31_2 H 0.738561 0.736169 0.849404
C50_2 C 0.7113(3) 0.6773(5) 0.8859(5)
H32_2 H 0.727561 0.653883 0.896889
C51_2 C 0.7007(3) 0.8158(4) 0.8139(4)
C52_2 C 0.7051(3) 0.5527(4) 0.9063(4)
C53_2 C 0.7048(3) 0.5366(4) 0.8520(4)
H33_2 H 0.687888 0.546447 0.829711
C54_2 C 0.7280(3) 0.5073(4) 0.8302(4)
H34_2 H 0.727779 0.498692 0.792363
C55_2 C 0.7519(3) 0.4900(4) 0.8620(4)
C56_2 C 0.7511(3) 0.5045(4) 0.9173(4)
H35_2 H 0.766386 0.490471 0.941081
C57_2 C 0.7293(3) 0.5377(4) 0.9377(4)
H36_2 H 0.730786 0.550735 0.974136
C58_2 C 0.7787(3) 0.4624(4) 0.8366(5)
Co5_2 Co 0.750000 0.87803(7) 0.750000
Co8_2 Co 0.82345(4) 0.42625(5) 0.78441(5)
Co9_2 Co 0.67655(4) 0.92625(5) 0.78441(5)
O15_2 O 0.78119(19) 0.3770(3) 0.6880(3)
O17_2 O 0.67916(18) 0.3478(3) 0.6912(3)
O18_2 O 0.72689(17) 0.3191(3) 0.7054(3)
O19_2 O 0.77311(17) 0.3191(3) 0.7946(3)
O20_2 O 0.72342(17) 0.4423(3) 0.7105(2)
O22_2 O 0.6974(2) 0.4582(3) 0.6380(3)
H39_2 H 0.684674 0.527456 0.752121
H40_2 H 0.668483 0.531518 0.692777
C22_3 C 0.6152(3) 0.6058(7) 0.3305(6)
H13_3 H 0.627370 0.623849 0.357188
C23_3 C 0.5838(3) 0.6105(8) 0.3342(6)
H14_3 H 0.574514 0.628664 0.364281
C24_3 C 0.5665(4) 0.5886(9) 0.2937(7)
C25_3 C 0.5806(3) 0.5682(6) 0.2470(5)
H15_3 H 0.568872 0.559195 0.215685
C26_3 C 0.6116(3) 0.5612(6) 0.2466(5)
H16_3 H 0.621305 0.545402 0.215684
C27_3 C 0.5344(4) 0.5892(15) 0.2956(10)
C28_3 C 0.5173(6) 0.5834(12) 0.3433(10)
H17_3 H 0.527723 0.579254 0.377004
C29_3 C 0.5163(7) 0.5867(13) 0.2462(10)
H18_3 H 0.526668 0.584983 0.212219
N2_3 N 0.3710(2) 0.5772(4) 0.2914(4)
C30_3 C 0.3848(3) 0.6058(7) 0.3305(6)
H19_3 H 0.372630 0.623849 0.357188
C31_3 C 0.4162(3) 0.6105(8) 0.3342(6)
H20_3 H 0.425486 0.628664 0.364281
C32_3 C 0.4335(4) 0.5886(9) 0.2937(7)
C33_3 C 0.4194(3) 0.5682(6) 0.2470(5)
H21_3 H 0.431128 0.559195 0.215685
C34_3 C 0.3884(3) 0.5612(6) 0.2466(5)
H22_3 H 0.378695 0.545402 0.215684
C35_3 C 0.4656(4) 0.5892(15) 0.2956(10)
C36_3 C 0.4827(6) 0.5834(12) 0.3433(10)
H23_3 H 0.472277 0.579254 0.377004
C37_3 C 0.4837(7) 0.5867(13) 0.2462(10)
H24_3 H 0.473332 0.584983 0.212219
O15_3 O 0.78119(19) 0.6230(3) 0.3120(3)
O18_3 O 0.72689(17) 0.6809(3) 0.2946(3)
O19_3 O 0.77311(17) 0.6809(3) 0.2054(3)
C22_4 C 0.3848(3) 0.8942(7) 0.8305(6)
H13_4 H 0.372630 0.876151 0.857188
C23_4 C 0.4162(3) 0.8895(8) 0.8342(6)
H14_4 H 0.425486 0.871336 0.864281
C24_4 C 0.4335(4) 0.9114(9) 0.7937(7)
C25_4 C 0.4194(3) 0.9318(6) 0.7470(5)
H15_4 H 0.431128 0.940805 0.715685
C26_4 C 0.3884(3) 0.9388(6) 0.7466(5)
H16_4 H 0.378695 0.954598 0.715684
C27_4 C 0.4656(4) 0.9108(15) 0.7956(10)
C28_4 C 0.4827(6) 0.9166(12) 0.8433(10)
H17_4 H 0.472277 0.920746 0.877004
C29_4 C 0.4837(7) 0.9133(13) 0.7462(10)
H18_4 H 0.473332 0.915017 0.712219
N2_4 N 0.6290(2) 0.9228(4) 0.7914(4)
C30_4 C 0.6152(3) 0.8942(7) 0.8305(6)
H19_4 H 0.627370 0.876151 0.857188
C31_4 C 0.5838(3) 0.8895(8) 0.8342(6)
H20_4 H 0.574514 0.871336 0.864281
C32_4 C 0.5665(4) 0.9114(9) 0.7937(7)
C33_4 C 0.5806(3) 0.9318(6) 0.7470(5)
H21_4 H 0.568872 0.940805 0.715685
C34_4 C 0.6116(3) 0.9388(6) 0.7466(5)
H22_4 H 0.621305 0.954598 0.715684
C35_4 C 0.5344(4) 0.9108(15) 0.7956(10)
C36_4 C 0.5173(6) 0.9166(12) 0.8433(10)
H23_4 H 0.527723 0.920746 0.877004
C37_4 C 0.5163(7) 0.9133(13) 0.7462(10)
H24_4 H 0.526668 0.915017 0.712219
O15_4 O 0.21881(19) 0.8770(3) 0.8120(3)
O18_4 O 0.27311(17) 0.8191(3) 0.7946(3)
O19_4 O 0.22689(17) 0.8191(3) 0.7054(3)
N2_5 N 0.1290(2) 0.5772(4) 0.2086(4)
C30_5 C 0.1152(3) 0.6058(7) 0.1695(6)
H19_5 H 0.127370 0.623849 0.142812
C31_5 C 0.0838(3) 0.6105(8) 0.1658(6)
H20_5 H 0.074514 0.628664 0.135719
C32_5 C 0.0665(4) 0.5886(9) 0.2063(7)
C33_5 C 0.0806(3) 0.5682(6) 0.2530(5)
H21_5 H 0.068872 0.559195 0.284315
C34_5 C 0.1116(3) 0.5612(6) 0.2534(5)
H22_5 H 0.121305 0.545402 0.284316
C35_5 C 0.0344(4) 0.5892(15) 0.2044(10)
C36_5 C 0.0173(6) 0.5834(12) 0.1567(10)
H23_5 H 0.027723 0.579254 0.122996
C37_5 C 0.0163(7) 0.5867(13) 0.2538(10)
H24_5 H 0.026668 0.584983 0.287781
Co11_2 Co 0.17655(4) 0.57375(5) 0.21559(5)
Au1_3 Au 0.87098(2) 0.56176(2) 0.59587(2)
Cl1_3 Cl 0.91541(12) 0.5206(2) 0.6219(2)
P1_3 P 0.82622(7) 0.59680(11) 0.57206(10)
O2_3 O 0.8264(2) 0.5866(3) 0.2966(3)
O3_3 O 0.82084(18) 0.8478(3) 0.6912(3)
O4_3 O 0.77311(17) 0.8191(3) 0.7054(3)
O7_3 O 0.8316(2) 0.4880(3) 0.2284(3)
C1_3 C 0.8217(3) 0.6060(4) 0.4990(4)
C2_3 C 0.7985(3) 0.6362(4) 0.4761(4)
H1_3 H 0.785671 0.657214 0.499427
C3_3 C 0.7932(3) 0.6374(4) 0.4210(4)
H2_3 H 0.776658 0.657918 0.406181
C4_3 C 0.8127(3) 0.6076(4) 0.3877(4)
C5_3 C 0.8359(3) 0.5784(4) 0.4092(4)
H3_3 H 0.849523 0.559522 0.385597
C6_3 C 0.8401(3) 0.5755(4) 0.4642(4)
H4_3 H 0.855745 0.552554 0.478747
C7_3 C 0.8060(3) 0.6072(4) 0.3272(4)
C8_3 C 0.8172(3) 0.6625(4) 0.6032(4)
C9_3 C 0.8420(3) 0.6971(5) 0.6180(5)
H5_3 H 0.862652 0.686976 0.611655
C10_3 C 0.8339(3) 0.7466(5) 0.6423(5)
H6_3 H 0.849763 0.772098 0.650515
C11_3 C 0.8053(3) 0.7609(4) 0.6549(4)
C12_3 C 0.7819(3) 0.7269(5) 0.6416(5)
H7_3 H 0.761439 0.736169 0.650596
C13_3 C 0.7887(3) 0.6773(5) 0.6141(5)
H8_3 H 0.772439 0.653883 0.603111
C14_3 C 0.7993(3) 0.8158(4) 0.6861(4)
C15_3 C 0.7949(3) 0.5527(4) 0.5937(4)
C16_3 C 0.7952(3) 0.5366(4) 0.6480(4)
H9_3 H 0.812112 0.546447 0.670289
C17_3 C 0.7720(3) 0.5073(4) 0.6698(4)
H10_3 H 0.772221 0.498692 0.707637
C18_3 C 0.7481(3) 0.4900(4) 0.6380(4)
C19_3 C 0.7489(3) 0.5045(4) 0.5827(4)
H11_3 H 0.733614 0.490471 0.558919
C20_3 C 0.7707(3) 0.5377(4) 0.5623(4)
H12_3 H 0.769214 0.550735 0.525864
C21_3 C 0.7213(3) 0.4624(4) 0.6634(5)
N1_3 N 0.8710(2) 0.5772(4) 0.2086(4)
C22_5 C 0.8848(3) 0.6058(7) 0.1695(6)
H13_5 H 0.872630 0.623849 0.142812
C23_5 C 0.9162(3) 0.6105(8) 0.1658(6)
H14_5 H 0.925486 0.628664 0.135719
C24_5 C 0.9335(4) 0.5886(9) 0.2063(7)
C25_5 C 0.9194(3) 0.5682(6) 0.2530(5)
H15_5 H 0.931128 0.559195 0.284315
C26_5 C 0.8884(3) 0.5612(6) 0.2534(5)
H16_5 H 0.878695 0.545402 0.284316
C27_5 C 0.9656(4) 0.5892(15) 0.2044(10)
C28_5 C 0.9827(6) 0.5834(12) 0.1567(10)
H17_5 H 0.972277 0.579254 0.122996
C29_5 C 0.9837(7) 0.5867(13) 0.2538(10)
H18_5 H 0.973332 0.584983 0.287781
Au2_3 Au 0.87098(2) 0.43824(2) 0.40413(2)
Cl2_3 Cl 0.91541(12) 0.4794(2) 0.3781(2)
P2_3 P 0.82622(7) 0.40320(11) 0.42794(10)
O9_3 O 0.8264(2) 0.4134(3) 0.7034(3)
O10_3 O 0.82084(18) 0.1522(3) 0.3088(3)
O11_3 O 0.77311(17) 0.1809(3) 0.2946(3)
O14_3 O 0.8316(2) 0.5120(3) 0.7716(3)
C38_3 C 0.8217(3) 0.3940(4) 0.5010(4)
C39_3 C 0.7985(3) 0.3638(4) 0.5239(4)
H25_3 H 0.785671 0.342786 0.500573
C40_3 C 0.7932(3) 0.3626(4) 0.5790(4)
H26_3 H 0.776658 0.342082 0.593819
C41_3 C 0.8127(3) 0.3924(4) 0.6123(4)
C42_3 C 0.8359(3) 0.4216(4) 0.5908(4)
H27_3 H 0.849523 0.440478 0.614403
C43_3 C 0.8401(3) 0.4245(4) 0.5358(4)
H28_3 H 0.855745 0.447446 0.521253
C44_3 C 0.8060(3) 0.3928(4) 0.6728(4)
C45_3 C 0.8172(3) 0.3375(4) 0.3968(4)
C46_3 C 0.8420(3) 0.3029(5) 0.3820(5)
H29_3 H 0.862652 0.313024 0.388345
C47_3 C 0.8339(3) 0.2534(5) 0.3577(5)
H30_3 H 0.849763 0.227902 0.349485
C48_3 C 0.8053(3) 0.2391(4) 0.3451(4)
C49_3 C 0.7819(3) 0.2731(5) 0.3584(5)
H31_3 H 0.761439 0.263831 0.349404
C50_3 C 0.7887(3) 0.3227(5) 0.3859(5)
H32_3 H 0.772439 0.346117 0.396889
C51_3 C 0.7993(3) 0.1842(4) 0.3139(4)
C52_3 C 0.7949(3) 0.4473(4) 0.4063(4)
C53_3 C 0.7952(3) 0.4634(4) 0.3520(4)
H33_3 H 0.812112 0.453553 0.329711
C54_3 C 0.7720(3) 0.4927(4) 0.3302(4)
H34_3 H 0.772221 0.501308 0.292363
C55_3 C 0.7481(3) 0.5100(4) 0.3620(4)
C56_3 C 0.7489(3) 0.4955(4) 0.4173(4)
H35_3 H 0.733614 0.509529 0.441081
C57_3 C 0.7707(3) 0.4623(4) 0.4377(4)
H36_3 H 0.769214 0.449265 0.474136
C58_3 C 0.7213(3) 0.5376(4) 0.3366(5)
Co9_3 Co 0.82345(4) 0.07375(5) 0.28441(5)
Co10_2 Co 0.82345(4) 0.92625(5) 0.71559(5)
O16_3 O 0.82084(18) 0.3478(3) 0.8088(3)
O17_3 O 0.82084(18) 0.6522(3) 0.1912(3)
N3_3 N 0.8710(2) 0.4228(4) 0.7914(4)
H37_3 H 0.815326 0.527456 0.747879
H38_3 H 0.831517 0.531518 0.807223
H39_3 H 0.815326 0.472544 0.252121
H40_3 H 0.831517 0.468482 0.192777
H10_4 H 0.227779 0.001308 0.207637
C18_4 C 0.2519(3) 0.0100(4) 0.1380(4)
H11_4 H 0.266386 0.009529 0.058919
C21_4 C 0.2787(3) 0.0376(4) 0.1634(5)
O9_4 O 0.1736(2) 0.0866(3) 0.2034(3)
C38_4 C 0.1783(3) 0.1060(4) 0.0010(4)
C39_4 C 0.2015(3) 0.1362(4) 0.0239(4)
H25_4 H 0.214329 0.157214 0.000573
C40_4 C 0.2068(3) 0.1374(4) 0.0790(4)
H26_4 H 0.223342 0.157918 0.093819
C41_4 C 0.1873(3) 0.1076(4) 0.1123(4)
C42_4 C 0.1641(3) 0.0784(4) 0.0908(4)
H27_4 H 0.150477 0.059522 0.114403
C43_4 C 0.1599(3) 0.0755(4) 0.0358(4)
H28_4 H 0.144255 0.052554 0.021253
C44_4 C 0.1940(3) 0.1072(4) 0.1728(4)
O16_4 O 0.17916(18) 0.1522(3) 0.3088(3)
N3_4 N 0.1290(2) 0.0772(4) 0.2914(4)
O7_4 O 0.1684(2) 0.0120(3) 0.7284(3)
Au2_4 Au 0.12902(2) 0.06176(2) 0.90413(2)
Cl2_4 Cl 0.08459(12) 0.0206(2) 0.8781(2)
P2_4 P 0.17378(7) 0.09680(11) 0.92794(10)
O10_4 O 0.17916(18) 0.3478(3) 0.8088(3)
O11_4 O 0.22689(17) 0.3191(3) 0.7946(3)
C45_4 C 0.1828(3) 0.1625(4) 0.8968(4)
C46_4 C 0.1580(3) 0.1971(5) 0.8820(5)
H29_4 H 0.137348 0.186976 0.888345
C47_4 C 0.1661(3) 0.2466(5) 0.8577(5)
H30_4 H 0.150237 0.272098 0.849485
C48_4 C 0.1947(3) 0.2609(4) 0.8451(4)
C49_4 C 0.2181(3) 0.2269(5) 0.8584(5)
H31_4 H 0.238561 0.236169 0.849404
C50_4 C 0.2113(3) 0.1773(5) 0.8859(5)
H32_4 H 0.227561 0.153883 0.896889
C51_4 C 0.2007(3) 0.3158(4) 0.8139(4)
C52_4 C 0.2051(3) 0.0527(4) 0.9063(4)
C53_4 C 0.2048(3) 0.0366(4) 0.8520(4)
H33_4 H 0.187888 0.046447 0.829711
C54_4 C 0.2280(3) 0.0073(4) 0.8302(4)
C56_4 C 0.2511(3) 0.0045(4) 0.9173(4)
C57_4 C 0.2293(3) 0.0377(4) 0.9377(4)
H36_4 H 0.230786 0.050735 0.974136
Co9_4 Co 0.17655(4) 0.42625(5) 0.78441(5)
H39_4 H 0.184674 0.0274564 0.752121
H40_4 H 0.168483 0.0315176 0.692777
Au1_4 Au 0.12902(2) 0.93824(2) 0.09587(2)
Cl1_4 Cl 0.08459(12) 0.9794(2) 0.1219(2)
P1_4 P 0.17378(7) 0.90320(11) 0.07206(10)
O3_4 O 0.17916(18) 0.6522(3) 0.1912(3)
O4_4 O 0.22689(17) 0.6809(3) 0.2054(3)
C8_4 C 0.1828(3) 0.8375(4) 0.1032(4)
C9_4 C 0.1580(3) 0.8029(5) 0.1180(5)
H5_4 H 0.137348 0.813024 0.111655
C10_4 C 0.1661(3) 0.7534(5) 0.1423(5)
H6_4 H 0.150237 0.727902 0.150515
C11_4 C 0.1947(3) 0.7391(4) 0.1549(4)
C12_4 C 0.2181(3) 0.7731(5) 0.1416(5)
H7_4 H 0.238561 0.763831 0.150596
C13_4 C 0.2113(3) 0.8227(5) 0.1141(5)
H8_4 H 0.227561 0.846117 0.103111
C14_4 C 0.2007(3) 0.6842(4) 0.1861(4)
C15_4 C 0.2051(3) 0.9473(4) 0.0937(4)
C16_4 C 0.2048(3) 0.9634(4) 0.1480(4)
H9_4 H 0.187888 0.953553 0.170289
C17_4 C 0.2280(3) 0.9927(4) 0.1698(4)
C19_4 C 0.2511(3) 0.9955(4) 0.0827(4)
C20_4 C 0.2293(3) 0.9623(4) 0.0623(4)
H12_4 H 0.230786 0.949265 0.025864
O14_4 O 0.1684(2) 0.9880(3) 0.2716(3)
H37_4 H 0.184674 0.972544 0.247879
H38_4 H 0.168483 0.968482 0.307223
O2_4 O 0.1736(2) 0.9134(3) 0.7966(3)
C1_4 C 0.1783(3) 0.8940(4) 0.9990(4)
C2_4 C 0.2015(3) 0.8638(4) 0.9761(4)
H1_4 H 0.214329 0.842786 0.999427
C3_4 C 0.2068(3) 0.8626(4) 0.9210(4)
H2_4 H 0.223342 0.842082 0.906181
C4_4 C 0.1873(3) 0.8924(4) 0.8877(4)
C5_4 C 0.1641(3) 0.9216(4) 0.9092(4)
H3_4 H 0.150477 0.940478 0.885597
C6_4 C 0.1599(3) 0.9245(4) 0.9642(4)
H4_4 H 0.144255 0.947446 0.978747
C7_4 C 0.1940(3) 0.8928(4) 0.8272(4)
N1_4 N 0.1290(2) 0.9228(4) 0.7086(4)
C22_6 C 0.1152(3) 0.8942(7) 0.6695(6)
H13_6 H 0.127370 0.876151 0.642812
C23_6 C 0.0838(3) 0.8895(8) 0.6658(6)
H14_6 H 0.074514 0.871336 0.635719
C24_6 C 0.0665(4) 0.9114(9) 0.7063(7)
C25_6 C 0.0806(3) 0.9318(6) 0.7530(5)
H15_6 H 0.068872 0.940805 0.784315
C26_6 C 0.1116(3) 0.9388(6) 0.7534(5)
H16_6 H 0.121305 0.954598 0.784316
C27_6 C 0.0344(4) 0.9108(15) 0.7044(10)
C28_6 C 0.0173(6) 0.9166(12) 0.6567(10)
H17_6 H 0.027723 0.920746 0.622996
C29_6 C 0.0163(7) 0.9133(13) 0.7538(10)
H18_6 H 0.026668 0.915017 0.787781
H34_4 H 0.227779 0.998692 0.792363
C55_4 C 0.2519(3) 0.9900(4) 0.8620(4)
H35_4 H 0.266386 0.990471 0.941081
C58_4 C 0.2787(3) 0.9624(4) 0.8366(5)
O17_4 O 0.17916(18) 0.8478(3) 0.6912(3)
N2_6 N 0.8710(2) 0.9228(4) 0.7086(4)
C30_6 C 0.8848(3) 0.8942(7) 0.6695(6)
H19_6 H 0.872630 0.876151 0.642812
C31_6 C 0.9162(3) 0.8895(8) 0.6658(6)
H20_6 H 0.925486 0.871336 0.635719
C32_6 C 0.9335(4) 0.9114(9) 0.7063(7)
C33_6 C 0.9194(3) 0.9318(6) 0.7530(5)
H21_6 H 0.931128 0.940805 0.784315
C34_6 C 0.8884(3) 0.9388(6) 0.7534(5)
H22_6 H 0.878695 0.954598 0.784316
C35_6 C 0.9656(4) 0.9108(15) 0.7044(10)
C36_6 C 0.9827(6) 0.9166(12) 0.6567(10)
H23_6 H 0.972277 0.920746 0.622996
C37_6 C 0.9837(7) 0.9133(13) 0.7538(10)
H24_6 H 0.973332 0.915017 0.787781
C22_7 C 0.1152(3) 0.1058(7) 0.3305(6)
H13_7 H 0.127370 0.123849 0.357188
C23_7 C 0.0838(3) 0.1105(8) 0.3342(6)
H14_7 H 0.074514 0.128664 0.364281
C24_7 C 0.0665(4) 0.0886(9) 0.2937(7)
C25_7 C 0.0806(3) 0.0682(6) 0.2470(5)
H15_7 H 0.068872 0.059195 0.215685
C26_7 C 0.1116(3) 0.0612(6) 0.2466(5)
H16_7 H 0.121305 0.045402 0.215684
C27_7 C 0.0344(4) 0.0892(15) 0.2956(10)
C28_7 C 0.0173(6) 0.0834(12) 0.3433(10)
H17_7 H 0.027723 0.079254 0.377004
C29_7 C 0.0163(7) 0.0867(13) 0.2462(10)
H18_7 H 0.026668 0.084983 0.212219
N2_7 N 0.8710(2) 0.0772(4) 0.2914(4)
C30_7 C 0.8848(3) 0.1058(7) 0.3305(6)
H19_7 H 0.872630 0.123849 0.357188
C31_7 C 0.9162(3) 0.1105(8) 0.3342(6)
H20_7 H 0.925486 0.128664 0.364281
C32_7 C 0.9335(4) 0.0886(9) 0.2937(7)
C33_7 C 0.9194(3) 0.0682(6) 0.2470(5)
H21_7 H 0.931128 0.059195 0.215685
C34_7 C 0.8884(3) 0.0612(6) 0.2466(5)
H22_7 H 0.878695 0.045402 0.215684
C35_7 C 0.9656(4) 0.0892(15) 0.2956(10)
C36_7 C 0.9827(6) 0.0834(12) 0.3433(10)
H23_7 H 0.972277 0.079254 0.377004
C37_7 C 0.9837(7) 0.0867(13) 0.2462(10)
H24_7 H 0.973332 0.084983 0.212219
N2_8 N 0.1290(2) 0.4228(4) 0.7914(4)
C30_8 C 0.1152(3) 0.3942(7) 0.8305(6)
H19_8 H 0.127370 0.376151 0.857188
C31_8 C 0.0838(3) 0.3895(8) 0.8342(6)
H20_8 H 0.074514 0.371336 0.864281
C32_8 C 0.0665(4) 0.4114(9) 0.7937(7)
C33_8 C 0.0806(3) 0.4318(6) 0.7470(5)
H21_8 H 0.068872 0.440805 0.715685
C34_8 C 0.1116(3) 0.4388(6) 0.7466(5)
H22_8 H 0.121305 0.454598 0.715684
C35_8 C 0.0344(4) 0.4108(15) 0.7956(10)
C36_8 C 0.0173(6) 0.4166(12) 0.8433(10)
H23_8 H 0.027723 0.420746 0.877004
C37_8 C 0.0163(7) 0.4133(13) 0.7462(10)
H24_8 H 0.026668 0.415017 0.712219
C22_8 C 0.8848(3) 0.3942(7) 0.8305(6)
H13_8 H 0.872630 0.376151 0.857188
C23_8 C 0.9162(3) 0.3895(8) 0.8342(6)
H14_8 H 0.925486 0.371336 0.864281
C24_8 C 0.9335(4) 0.4114(9) 0.7937(7)
C25_8 C 0.9194(3) 0.4318(6) 0.7470(5)
H15_8 H 0.931128 0.440805 0.715685
C26_8 C 0.8884(3) 0.4388(6) 0.7466(5)
H16_8 H 0.878695 0.454598 0.715684
C27_8 C 0.9656(4) 0.4108(15) 0.7956(10)
C28_8 C 0.9827(6) 0.4166(12) 0.8433(10)
H17_8 H 0.972277 0.420746 0.877004
C29_8 C 0.9837(7) 0.4133(13) 0.7462(10)
H18_8 H 0.973332 0.415017 0.712219
O5_3 O 0.77658(17) 0.0577(3) 0.2895(2)
O6_3 O 0.8026(2) 0.0418(3) 0.3620(3)
O7_5 O 0.6684(2) 0.0120(3) 0.7716(3)
H10_5 H 0.727779 0.001308 0.292363
C18_5 C 0.7519(3) 0.0100(4) 0.3620(4)
H11_5 H 0.766386 0.009529 0.441081
C21_5 C 0.7787(3) 0.0376(4) 0.3366(5)
Au2_5 Au 0.62902(2) 0.06176(2) 0.59587(2)
Cl2_5 Cl 0.58459(12) 0.0206(2) 0.6219(2)
P2_5 P 0.67378(7) 0.09680(11) 0.57206(10)
O8_3 O 0.71881(19) 0.1230(3) 0.3120(3)
O9_5 O 0.6736(2) 0.0866(3) 0.2966(3)
C38_5 C 0.6783(3) 0.1060(4) 0.4990(4)
C39_5 C 0.7015(3) 0.1362(4) 0.4761(4)
H25_5 H 0.714329 0.157214 0.499427
C40_5 C 0.7068(3) 0.1374(4) 0.4210(4)
H26_5 H 0.723342 0.157918 0.406181
C41_5 C 0.6873(3) 0.1076(4) 0.3877(4)
C42_5 C 0.6641(3) 0.0784(4) 0.4092(4)
H27_5 H 0.650477 0.059522 0.385597
C43_5 C 0.6599(3) 0.0755(4) 0.4642(4)
H28_5 H 0.644255 0.052554 0.478747
C44_5 C 0.6940(3) 0.1072(4) 0.3272(4)
C45_5 C 0.6828(3) 0.1625(4) 0.6032(4)
C46_5 C 0.6580(3) 0.1971(5) 0.6180(5)
H29_5 H 0.637348 0.186976 0.611655
C47_5 C 0.6661(3) 0.2466(5) 0.6423(5)
H30_5 H 0.650237 0.272098 0.650515
C48_5 C 0.6947(3) 0.2609(4) 0.6549(4)
C49_5 C 0.7181(3) 0.2269(5) 0.6416(5)
H31_5 H 0.738561 0.236169 0.650596
C50_5 C 0.7113(3) 0.1773(5) 0.6141(5)
H32_5 H 0.727561 0.153883 0.603111
C51_5 C 0.7007(3) 0.3158(4) 0.6861(4)
C52_5 C 0.7051(3) 0.0527(4) 0.5937(4)
C53_5 C 0.7048(3) 0.0366(4) 0.6480(4)
H33_5 H 0.687888 0.046447 0.670289
C54_5 C 0.7280(3) 0.0073(4) 0.6698(4)
C56_5 C 0.7511(3) 0.0045(4) 0.5827(4)
C57_5 C 0.7293(3) 0.0377(4) 0.5623(4)
H36_5 H 0.730786 0.050735 0.525864
O21_3 O 0.72342(17) 0.0577(3) 0.2105(2)
O23_3 O 0.6974(2) 0.0418(3) 0.1380(3)
H39_5 H 0.684674 0.0274564 0.747879
H40_5 H 0.668483 0.0315176 0.807223
Au1_5 Au 0.62902(2) 0.93824(2) 0.40413(2)
Cl1_5 Cl 0.58459(12) 0.9794(2) 0.3781(2)
P1_5 P 0.67378(7) 0.90320(11) 0.42794(10)
O1_3 O 0.71881(19) 0.8770(3) 0.6880(3)
O2_5 O 0.6736(2) 0.9134(3) 0.7034(3)
C1_5 C 0.6783(3) 0.8940(4) 0.5010(4)
C2_5 C 0.7015(3) 0.8638(4) 0.5239(4)
H1_5 H 0.714329 0.842786 0.500573
C3_5 C 0.7068(3) 0.8626(4) 0.5790(4)
H2_5 H 0.723342 0.842082 0.593819
C4_5 C 0.6873(3) 0.8924(4) 0.6123(4)
C5_5 C 0.6641(3) 0.9216(4) 0.5908(4)
H3_5 H 0.650477 0.940478 0.614403
C6_5 C 0.6599(3) 0.9245(4) 0.5358(4)
H4_5 H 0.644255 0.947446 0.521253
C7_5 C 0.6940(3) 0.8928(4) 0.6728(4)
C8_5 C 0.6828(3) 0.8375(4) 0.3968(4)
C9_5 C 0.6580(3) 0.8029(5) 0.3820(5)
H5_5 H 0.637348 0.813024 0.388345
C10_5 C 0.6661(3) 0.7534(5) 0.3577(5)
H6_5 H 0.650237 0.727902 0.349485
C11_5 C 0.6947(3) 0.7391(4) 0.3451(4)
C12_5 C 0.7181(3) 0.7731(5) 0.3584(5)
H7_5 H 0.738561 0.763831 0.349404
C13_5 C 0.7113(3) 0.8227(5) 0.3859(5)
H8_5 H 0.727561 0.846117 0.396889
C14_5 C 0.7007(3) 0.6842(4) 0.3139(4)
C15_5 C 0.7051(3) 0.9473(4) 0.4063(4)
C16_5 C 0.7048(3) 0.9634(4) 0.3520(4)
H9_5 H 0.687888 0.953553 0.329711
C17_5 C 0.7280(3) 0.9927(4) 0.3302(4)
C19_5 C 0.7511(3) 0.9955(4) 0.4173(4)
C20_5 C 0.7293(3) 0.9623(4) 0.4377(4)
H12_5 H 0.730786 0.949265 0.474136
O12_3 O 0.77658(17) 0.9423(3) 0.7105(2)
O13_3 O 0.8026(2) 0.9582(3) 0.6380(3)
O14_5 O 0.6684(2) 0.9880(3) 0.2284(3)
H34_5 H 0.727779 0.998692 0.707637
C55_5 C 0.7519(3) 0.9900(4) 0.6380(4)
H35_5 H 0.766386 0.990471 0.558919
C58_5 C 0.7787(3) 0.9624(4) 0.6634(5)
O15_5 O 0.78119(19) 0.8770(3) 0.8120(3)
O20_3 O 0.72342(17) 0.9423(3) 0.7895(2)
O22_3 O 0.6974(2) 0.9582(3) 0.8620(3)
H37_5 H 0.684674 0.972544 0.252121
H38_5 H 0.668483 0.968482 0.192777
O1_4 O 0.28119(19) 0.6230(3) 0.1880(3)
O2_6 O 0.3264(2) 0.5866(3) 0.2034(3)
O7_6 O 0.3316(2) 0.4880(3) 0.2716(3)
C1_6 C 0.3217(3) 0.6060(4) 0.0010(4)
C2_6 C 0.2985(3) 0.6362(4) 0.0239(4)
H1_6 H 0.285671 0.657214 0.000573
C3_6 C 0.2932(3) 0.6374(4) 0.0790(4)
H2_6 H 0.276658 0.657918 0.093819
C4_6 C 0.3127(3) 0.6076(4) 0.1123(4)
C5_6 C 0.3359(3) 0.5784(4) 0.0908(4)
H3_6 H 0.349523 0.559522 0.114403
C6_6 C 0.3401(3) 0.5755(4) 0.0358(4)
H4_6 H 0.355745 0.552554 0.021253
C7_6 C 0.3060(3) 0.6072(4) 0.1728(4)
Au2_6 Au 0.37098(2) 0.43824(2) 0.09587(2)
Cl2_6 Cl 0.41541(12) 0.4794(2) 0.1219(2)
P2_6 P 0.32622(7) 0.40320(11) 0.07206(10)
O12_4 O 0.22342(17) 0.5577(3) 0.2105(2)
O13_4 O 0.1974(2) 0.5418(3) 0.1380(3)
C45_6 C 0.3172(3) 0.3375(4) 0.1032(4)
C46_6 C 0.3420(3) 0.3029(5) 0.1180(5)
H29_6 H 0.362652 0.313024 0.111655
C47_6 C 0.3339(3) 0.2534(5) 0.1423(5)
H30_6 H 0.349763 0.227902 0.150515
C48_6 C 0.3053(3) 0.2391(4) 0.1549(4)
C49_6 C 0.2819(3) 0.2731(5) 0.1416(5)
H31_6 H 0.261439 0.263831 0.150596
C50_6 C 0.2887(3) 0.3227(5) 0.1141(5)
H32_6 H 0.272439 0.346117 0.103111
C51_6 C 0.2993(3) 0.1842(4) 0.1861(4)
C52_6 C 0.2949(3) 0.4473(4) 0.0937(4)
C53_6 C 0.2952(3) 0.4634(4) 0.1480(4)
H33_6 H 0.312112 0.453553 0.170289
C54_6 C 0.2720(3) 0.4927(4) 0.1698(4)
H34_6 H 0.272221 0.501308 0.207637
C55_6 C 0.2481(3) 0.5100(4) 0.1380(4)
C56_6 C 0.2489(3) 0.4955(4) 0.0827(4)
H35_6 H 0.233614 0.509529 0.058919
C57_6 C 0.2707(3) 0.4623(4) 0.0623(4)
H36_6 H 0.269214 0.449265 0.025864
C58_6 C 0.2213(3) 0.5376(4) 0.1634(5)
O15_6 O 0.21881(19) 0.6230(3) 0.3120(3)
O20_4 O 0.27658(17) 0.5577(3) 0.2895(2)
O22_4 O 0.3026(2) 0.5418(3) 0.3620(3)
H39_6 H 0.315326 0.472544 0.247879
H40_6 H 0.331517 0.468482 0.307223
Au1_6 Au 0.37098(2) 0.56176(2) 0.90413(2)
Cl1_6 Cl 0.41541(12) 0.5206(2) 0.8781(2)
P1_6 P 0.32622(7) 0.59680(11) 0.92794(10)
O5_4 O 0.22342(17) 0.4423(3) 0.7895(2)
O6_4 O 0.1974(2) 0.4582(3) 0.8620(3)
C8_6 C 0.3172(3) 0.6625(4) 0.8968(4)
C9_6 C 0.3420(3) 0.6971(5) 0.8820(5)
H5_6 H 0.362652 0.686976 0.888345
C10_6 C 0.3339(3) 0.7466(5) 0.8577(5)
H6_6 H 0.349763 0.772098 0.849485
C11_6 C 0.3053(3) 0.7609(4) 0.8451(4)
C12_6 C 0.2819(3) 0.7269(5) 0.8584(5)
H7_6 H 0.261439 0.736169 0.849404
C13_6 C 0.2887(3) 0.6773(5) 0.8859(5)
H8_6 H 0.272439 0.653883 0.896889
C14_6 C 0.2993(3) 0.8158(4) 0.8139(4)
C15_6 C 0.2949(3) 0.5527(4) 0.9063(4)
C16_6 C 0.2952(3) 0.5366(4) 0.8520(4)
H9_6 H 0.312112 0.546447 0.829711
C17_6 C 0.2720(3) 0.5073(4) 0.8302(4)
H10_6 H 0.272221 0.498692 0.792363
C18_6 C 0.2481(3) 0.4900(4) 0.8620(4)
C19_6 C 0.2489(3) 0.5045(4) 0.9173(4)
H11_6 H 0.233614 0.490471 0.941081
C20_6 C 0.2707(3) 0.5377(4) 0.9377(4)
H12_6 H 0.269214 0.550735 0.974136
C21_6 C 0.2213(3) 0.4624(4) 0.8366(5)
O8_4 O 0.28119(19) 0.3770(3) 0.8120(3)
O9_6 O 0.3264(2) 0.4134(3) 0.7966(3)
O14_6 O 0.3316(2) 0.5120(3) 0.7284(3)
C38_6 C 0.3217(3) 0.3940(4) 0.9990(4)
C39_6 C 0.2985(3) 0.3638(4) 0.9761(4)
H25_6 H 0.285671 0.342786 0.999427
C40_6 C 0.2932(3) 0.3626(4) 0.9210(4)
H26_6 H 0.276658 0.342082 0.906181
C41_6 C 0.3127(3) 0.3924(4) 0.8877(4)
C42_6 C 0.3359(3) 0.4216(4) 0.9092(4)
H27_6 H 0.349523 0.440478 0.885597
C43_6 C 0.3401(3) 0.4245(4) 0.9642(4)
H28_6 H 0.355745 0.447446 0.978747
C44_6 C 0.3060(3) 0.3928(4) 0.8272(4)
O21_4 O 0.27658(17) 0.4423(3) 0.7105(2)
O23_4 O 0.3026(2) 0.4582(3) 0.6380(3)
H37_6 H 0.315326 0.527456 0.752121
H38_6 H 0.331517 0.531518 0.692777
O15_7 O 0.21881(19) 0.3770(3) 0.6880(3)
O15_8 O 0.78119(19) 0.1230(3) 0.1880(3)
Au1_7 Au 0.12902(2) 0.43824(2) 0.40413(2)
Cl1_7 Cl 0.08459(12) 0.4794(2) 0.3781(2)
P1_7 P 0.17378(7) 0.40320(11) 0.42794(10)
O2_7 O 0.1736(2) 0.4134(3) 0.7034(3)
O7_7 O 0.1684(2) 0.5120(3) 0.7716(3)
C1_7 C 0.1783(3) 0.3940(4) 0.5010(4)
C2_7 C 0.2015(3) 0.3638(4) 0.5239(4)
H1_7 H 0.214329 0.342786 0.500573
C3_7 C 0.2068(3) 0.3626(4) 0.5790(4)
H2_7 H 0.223342 0.342082 0.593819
C4_7 C 0.1873(3) 0.3924(4) 0.6123(4)
C5_7 C 0.1641(3) 0.4216(4) 0.5908(4)
H3_7 H 0.150477 0.440478 0.614403
C6_7 C 0.1599(3) 0.4245(4) 0.5358(4)
H4_7 H 0.144255 0.447446 0.521253
C7_7 C 0.1940(3) 0.3928(4) 0.6728(4)
C8_7 C 0.1828(3) 0.3375(4) 0.3968(4)
C9_7 C 0.1580(3) 0.3029(5) 0.3820(5)
H5_7 H 0.137348 0.313024 0.388345
C10_7 C 0.1661(3) 0.2534(5) 0.3577(5)
H6_7 H 0.150237 0.227902 0.349485
C11_7 C 0.1947(3) 0.2391(4) 0.3451(4)
C12_7 C 0.2181(3) 0.2731(5) 0.3584(5)
H7_7 H 0.238561 0.263831 0.349404
C13_7 C 0.2113(3) 0.3227(5) 0.3859(5)
H8_7 H 0.227561 0.346117 0.396889
C14_7 C 0.2007(3) 0.1842(4) 0.3139(4)
C15_7 C 0.2051(3) 0.4473(4) 0.4063(4)
C16_7 C 0.2048(3) 0.4634(4) 0.3520(4)
H9_7 H 0.187888 0.453553 0.329711
C17_7 C 0.2280(3) 0.4927(4) 0.3302(4)
H10_7 H 0.227779 0.501308 0.292363
C18_7 C 0.2519(3) 0.5100(4) 0.3620(4)
C19_7 C 0.2511(3) 0.4955(4) 0.4173(4)
H11_7 H 0.266386 0.509529 0.441081
C20_7 C 0.2293(3) 0.4623(4) 0.4377(4)
H12_7 H 0.230786 0.449265 0.474136
C21_7 C 0.2787(3) 0.5376(4) 0.3366(5)
Au2_7 Au 0.12902(2) 0.56176(2) 0.59587(2)
Cl2_7 Cl 0.08459(12) 0.5206(2) 0.6219(2)
P2_7 P 0.17378(7) 0.59680(11) 0.57206(10)
O9_7 O 0.1736(2) 0.5866(3) 0.2966(3)
O14_7 O 0.1684(2) 0.4880(3) 0.2284(3)
C38_7 C 0.1783(3) 0.6060(4) 0.4990(4)
C39_7 C 0.2015(3) 0.6362(4) 0.4761(4)
H25_7 H 0.214329 0.657214 0.499427
C40_7 C 0.2068(3) 0.6374(4) 0.4210(4)
H26_7 H 0.223342 0.657918 0.406181
C41_7 C 0.1873(3) 0.6076(4) 0.3877(4)
C42_7 C 0.1641(3) 0.5784(4) 0.4092(4)
H27_7 H 0.150477 0.559522 0.385597
C43_7 C 0.1599(3) 0.5755(4) 0.4642(4)
H28_7 H 0.144255 0.552554 0.478747
C44_7 C 0.1940(3) 0.6072(4) 0.3272(4)
C45_7 C 0.1828(3) 0.6625(4) 0.6032(4)
C46_7 C 0.1580(3) 0.6971(5) 0.6180(5)
H29_7 H 0.137348 0.686976 0.611655
C47_7 C 0.1661(3) 0.7466(5) 0.6423(5)
H30_7 H 0.150237 0.772098 0.650515
C48_7 C 0.1947(3) 0.7609(4) 0.6549(4)
C49_7 C 0.2181(3) 0.7269(5) 0.6416(5)
H31_7 H 0.238561 0.736169 0.650596
C50_7 C 0.2113(3) 0.6773(5) 0.6141(5)
H32_7 H 0.227561 0.653883 0.603111
C51_7 C 0.2007(3) 0.8158(4) 0.6861(4)
C52_7 C 0.2051(3) 0.5527(4) 0.5937(4)
C53_7 C 0.2048(3) 0.5366(4) 0.6480(4)
H33_7 H 0.187888 0.546447 0.670289
C54_7 C 0.2280(3) 0.5073(4) 0.6698(4)
H34_7 H 0.227779 0.498692 0.707637
C55_7 C 0.2519(3) 0.4900(4) 0.6380(4)
C56_7 C 0.2511(3) 0.5045(4) 0.5827(4)
H35_7 H 0.266386 0.490471 0.558919
C57_7 C 0.2293(3) 0.5377(4) 0.5623(4)
H36_7 H 0.230786 0.550735 0.525864
C58_7 C 0.2787(3) 0.4624(4) 0.6634(5)
H37_7 H 0.184674 0.472544 0.252121
H38_7 H 0.168483 0.468482 0.192777
H39_7 H 0.184674 0.527456 0.747879
H40_7 H 0.168483 0.531518 0.807223
O2_8 O 0.8264(2) 0.0866(3) 0.2034(3)
C1_8 C 0.8217(3) 0.1060(4) 0.0010(4)
C2_8 C 0.7985(3) 0.1362(4) 0.0239(4)
H1_8 H 0.785671 0.157214 0.000573
C3_8 C 0.7932(3) 0.1374(4) 0.0790(4)
H2_8 H 0.776658 0.157918 0.093819
C4_8 C 0.8127(3) 0.1076(4) 0.1123(4)
C5_8 C 0.8359(3) 0.0784(4) 0.0908(4)
H3_8 H 0.849523 0.059522 0.114403
C6_8 C 0.8401(3) 0.0755(4) 0.0358(4)
H4_8 H 0.855745 0.052554 0.021253
C7_8 C 0.8060(3) 0.1072(4) 0.1728(4)
H34_8 H 0.772221 0.001308 0.207637
C55_8 C 0.7481(3) 0.0100(4) 0.1380(4)
H35_8 H 0.733614 0.009529 0.058919
C58_8 C 0.7213(3) 0.0376(4) 0.1634(5)
Au1_8 Au 0.87098(2) 0.06176(2) 0.90413(2)
Cl1_8 Cl 0.91541(12) 0.0206(2) 0.8781(2)
P1_8 P 0.82622(7) 0.09680(11) 0.92794(10)
C8_8 C 0.8172(3) 0.1625(4) 0.8968(4)
C9_8 C 0.8420(3) 0.1971(5) 0.8820(5)
H5_8 H 0.862652 0.186976 0.888345
C10_8 C 0.8339(3) 0.2466(5) 0.8577(5)
H6_8 H 0.849763 0.272098 0.849485
C11_8 C 0.8053(3) 0.2609(4) 0.8451(4)
C12_8 C 0.7819(3) 0.2269(5) 0.8584(5)
H7_8 H 0.761439 0.236169 0.849404
C13_8 C 0.7887(3) 0.1773(5) 0.8859(5)
H8_8 H 0.772439 0.153883 0.896889
C14_8 C 0.7993(3) 0.3158(4) 0.8139(4)
C15_8 C 0.7949(3) 0.0527(4) 0.9063(4)
C16_8 C 0.7952(3) 0.0366(4) 0.8520(4)
H9_8 H 0.812112 0.046447 0.829711
C17_8 C 0.7720(3) 0.0073(4) 0.8302(4)
C19_8 C 0.7489(3) 0.0045(4) 0.9173(4)
C20_8 C 0.7707(3) 0.0377(4) 0.9377(4)
H12_8 H 0.769214 0.050735 0.974136
O14_8 O 0.8316(2) 0.0120(3) 0.7284(3)
H37_8 H 0.815326 0.0274564 0.752121
H38_8 H 0.831517 0.0315176 0.692777
O7_8 O 0.8316(2) 0.9880(3) 0.2716(3)
Au2_8 Au 0.87098(2) 0.93824(2) 0.09587(2)
Cl2_8 Cl 0.91541(12) 0.9794(2) 0.1219(2)
P2_8 P 0.82622(7) 0.90320(11) 0.07206(10)
C45_8 C 0.8172(3) 0.8375(4) 0.1032(4)
C46_8 C 0.8420(3) 0.8029(5) 0.1180(5)
H29_8 H 0.862652 0.813024 0.111655
C47_8 C 0.8339(3) 0.7534(5) 0.1423(5)
H30_8 H 0.849763 0.727902 0.150515
C48_8 C 0.8053(3) 0.7391(4) 0.1549(4)
C49_8 C 0.7819(3) 0.7731(5) 0.1416(5)
H31_8 H 0.761439 0.763831 0.150596
C50_8 C 0.7887(3) 0.8227(5) 0.1141(5)
H32_8 H 0.772439 0.846117 0.103111
C51_8 C 0.7993(3) 0.6842(4) 0.1861(4)
C52_8 C 0.7949(3) 0.9473(4) 0.0937(4)
C53_8 C 0.7952(3) 0.9634(4) 0.1480(4)
H33_8 H 0.812112 0.953553 0.170289
C54_8 C 0.7720(3) 0.9927(4) 0.1698(4)
C56_8 C 0.7489(3) 0.9955(4) 0.0827(4)
C57_8 C 0.7707(3) 0.9623(4) 0.0623(4)
H36_8 H 0.769214 0.949265 0.025864
H39_8 H 0.815326 0.972544 0.247879
H40_8 H 0.831517 0.968482 0.307223
H10_8 H 0.772221 0.998692 0.792363
C18_8 C 0.7481(3) 0.9900(4) 0.8620(4)
H11_8 H 0.733614 0.990471 0.941081
C21_8 C 0.7213(3) 0.9624(4) 0.8366(5)
O9_8 O 0.8264(2) 0.9134(3) 0.7966(3)
C38_8 C 0.8217(3) 0.8940(4) 0.9990(4)
C39_8 C 0.7985(3) 0.8638(4) 0.9761(4)
H25_8 H 0.785671 0.842786 0.999427
C40_8 C 0.7932(3) 0.8626(4) 0.9210(4)
H26_8 H 0.776658 0.842082 0.906181
C41_8 C 0.8127(3) 0.8924(4) 0.8877(4)
C42_8 C 0.8359(3) 0.9216(4) 0.9092(4)
H27_8 H 0.849523 0.940478 0.885597
C43_8 C 0.8401(3) 0.9245(4) 0.9642(4)
H28_8 H 0.855745 0.947446 0.978747
C44_8 C 0.8060(3) 0.8928(4) 0.8272(4)
loop_
_geom_bond_atom_site_label_1
_geom_bond_atom_site_label_2
_geom_bond_site_symmetry_1
_geom_bond_site_symmetry_2
Au1 Cl1 1_555 1_555
P1 Au1 1_555 1_555
Co1 O1 1_555 1_555
Co2 O2 1_555 1_555
O1 C7 1_555 1_555
O2 C7 1_555 1_555
O3 C14 1_555 1_555
O4 C14 1_555 1_555
C1 P1 1_555 1_555
C2 C1 1_555 1_555
H1 C2 1_555 1_555
C3 C2 1_555 1_555
H2 C3 1_555 1_555
C4 C3 1_555 1_555
C5 C4 1_555 1_555
H3 C5 1_555 1_555
C6 C1 1_555 1_555
H4 C6 1_555 1_555
C7 C4 1_555 1_555
C8 P1 1_555 1_555
C9 C8 1_555 1_555
H5 C9 1_555 1_555
C10 C9 1_555 1_555
H6 C10 1_555 1_555
C11 C10 1_555 1_555
C12 C11 1_555 1_555
H7 C12 1_555 1_555
C13 C8 1_555 1_555
H8 C13 1_555 1_555
C14 C11 1_555 1_555
C15 P1 1_555 1_555
C16 C15 1_555 1_555
H9 C16 1_555 1_555
C17 C16 1_555 1_555
C20 C15 1_555 1_555
H12 C20 1_555 1_555
N1 Co2 1_555 1_555
C22 N1 1_555 1_555
H13 C22 1_555 1_555
C23 C22 1_555 1_555
H14 C23 1_555 1_555
C24 C23 1_555 1_555
C25 C24 1_555 1_555
H15 C25 1_555 1_555
C26 N1 1_555 1_555
H16 C26 1_555 1_555
C27 C24 1_555 1_555
C28 C27 1_555 1_555
H17 C28 1_555 1_555
C29 C27 1_555 1_555
H18 C29 1_555 1_555
N2 C30 1_555 1_555
C30 H19 1_555 1_555
C31 C30 1_555 1_555
H20 C31 1_555 1_555
C32 C31 1_555 1_555
C33 C32 1_555 1_555
H21 C33 1_555 1_555
C34 N2 1_555 1_555
H22 C34 1_555 1_555
C35 C32 1_555 1_555
C36 C28 1_555 1_555
H23 C36 1_555 1_555
C37 C29 1_555 1_555
H24 C37 1_555 1_555
O12 Co1 1_555 1_555
O13 C58 1_555 1_555
C58 O12 1_555 1_555
Co6 O4 1_555 1_555
Co8 O12 1_555 1_555
Co10 O3 1_555 1_555
Co11 N2 1_555 1_555
O15 Co1 1_555 1_555
O17 Co2 1_555 1_555
O18 Co1 1_555 1_555
O19 Co1 1_555 1_555
O20 Co1 1_555 1_555
O22 Co2 1_555 1_555
Co2 O20 1_555 1_555
C5 C6 1_555 1_555
C12 C13 1_555 1_555
C19 C20 1_555 1_555
C25 C26 1_555 1_555
C33 C34 1_555 1_555
C35 C36 1_555 1_555
C35 C37 1_555 1_555
O13 Co8 1_555 1_555
C55 C58 1_555 1_555
O14 H37 1_555 1_555
O14 H38 1_555 1_555
O5 C21 1_555 1_555
O6 C21 1_555 1_555
C21 C18 1_555 1_555
Au2 Cl2 1_555 1_555
P2 Au2 1_555 1_555
Co3 O9 1_555 1_555
O8 C44 1_555 1_555
O9 C44 1_555 1_555
O10 C51 1_555 1_555
O11 C51 1_555 1_555
C38 P2 1_555 1_555
C39 C38 1_555 1_555
H25 C39 1_555 1_555
C40 C39 1_555 1_555
H26 C40 1_555 1_555
C41 C40 1_555 1_555
C42 C41 1_555 1_555
H27 C42 1_555 1_555
C43 C38 1_555 1_555
H28 C43 1_555 1_555
C44 C41 1_555 1_555
C45 P2 1_555 1_555
C46 C45 1_555 1_555
H29 C46 1_555 1_555
C47 C46 1_555 1_555
H30 C47 1_555 1_555
C48 C47 1_555 1_555
C49 C48 1_555 1_555
H31 C49 1_555 1_555
C50 C45 1_555 1_555
H32 C50 1_555 1_555
C51 C48 1_555 1_555
C52 P2 1_555 1_555
C53 C52 1_555 1_555
H33 C53 1_555 1_555
C54 C53 1_555 1_555
C57 C52 1_555 1_555
H36 C57 1_555 1_555
Co4 O5 1_555 1_555
Co5 O11 1_555 1_555
Co7 O5 1_555 1_555
Co9 O10 1_555 1_555
O16 Co3 1_555 1_555
O21 Co3 1_555 1_555
O23 Co3 1_555 1_555
N3 Co3 1_555 1_555
O6 Co7 1_555 1_555
O8 Co4 1_555 1_555
C42 C43 1_555 1_555
C49 C50 1_555 1_555
C56 C57 1_555 1_555
Co4 O21 1_555 1_555
O7 H39 1_555 1_555
O7 H40 1_555 1_555
Au1_2 Cl1_2 1_555 1_555
P1_2 Au1_2 1_555 1_555
O3_2 C14_2 1_555 1_555
O4_2 C14_2 1_555 1_555
O5_2 C21_2 1_555 1_555
O6_2 C21_2 1_555 1_555
C8_2 P1_2 1_555 1_555
C9_2 C8_2 1_555 1_555
H5_2 C9_2 1_555 1_555
C10_2 C9_2 1_555 1_555
H6_2 C10_2 1_555 1_555
C11_2 C10_2 1_555 1_555
C12_2 C11_2 1_555 1_555
H7_2 C12_2 1_555 1_555
C13_2 C8_2 1_555 1_555
H8_2 C13_2 1_555 1_555
C14_2 C11_2 1_555 1_555
C15_2 P1_2 1_555 1_555
C16_2 C15_2 1_555 1_555
H9_2 C16_2 1_555 1_555
C17_2 C16_2 1_555 1_555
H10_2 C17_2 1_555 1_555
C18_2 C17_2 1_555 1_555
C19_2 C18_2 1_555 1_555
H11_2 C19_2 1_555 1_555
C20_2 C15_2 1_555 1_555
H12_2 C20_2 1_555 1_555
C21_2 C18_2 1_555 1_555
Co3_2 O9_2 1_555 1_555
O8_2 C44_2 1_555 1_555
O9_2 C44_2 1_555 1_555
O14_2 Co3_2 1_555 1_555
C39_2 C38_2 1_555 1_555
H25_2 C39_2 1_555 1_555
C40_2 C39_2 1_555 1_555
H26_2 C40_2 1_555 1_555
C41_2 C40_2 1_555 1_555
C42_2 C41_2 1_555 1_555
H27_2 C42_2 1_555 1_555
C43_2 C38_2 1_555 1_555
H28_2 C43_2 1_555 1_555
C44_2 C41_2 1_555 1_555
Co4_2 O5_2 1_555 1_555
Co6_2 O4_2 1_555 1_555
Co7_2 O5_2 1_555 1_555
Co11 O3_2 1_555 1_555
O16_2 Co3_2 1_555 1_555
O21_2 Co3_2 1_555 1_555
O23_2 Co3_2 1_555 1_555
N3_2 Co3_2 1_555 1_555
O6_2 Co7_2 1_555 1_555
C12_2 C13_2 1_555 1_555
C19_2 C20_2 1_555 1_555
O8_2 Co4_2 1_555 1_555
C42_2 C43_2 1_555 1_555
Co4_2 O21_2 1_555 1_555
O14_2 H37_2 1_555 1_555
O14_2 H38_2 1_555 1_555
Co1_2 O1_2 1_555 1_555
Co2_2 O2_2 1_555 1_555
O1_2 C7_2 1_555 1_555
O2_2 C7_2 1_555 1_555
O7_2 Co2_2 1_555 1_555
C2_2 C1_2 1_555 1_555
H1_2 C2_2 1_555 1_555
C3_2 C2_2 1_555 1_555
H2_2 C3_2 1_555 1_555
C4_2 C3_2 1_555 1_555
C5_2 C4_2 1_555 1_555
H3_2 C5_2 1_555 1_555
C6_2 C1_2 1_555 1_555
H4_2 C6_2 1_555 1_555
C7_2 C4_2 1_555 1_555
N1_2 Co2_2 1_555 1_555
C22_2 N1_2 1_555 1_555
H13_2 C22_2 1_555 1_555
C23_2 C22_2 1_555 1_555
H14_2 C23_2 1_555 1_555
C24_2 C23_2 1_555 1_555
C25_2 C24_2 1_555 1_555
H15_2 C25_2 1_555 1_555
C26_2 N1_2 1_555 1_555
H16_2 C26_2 1_555 1_555
C27_2 C24_2 1_555 1_555
C28_2 C27_2 1_555 1_555
H17_2 C28_2 1_555 1_555
C29_2 C27_2 1_555 1_555
H18_2 C29_2 1_555 1_555
N2_2 C30_2 1_555 1_555
C30_2 H19_2 1_555 1_555
C31_2 C30_2 1_555 1_555
H20_2 C31_2 1_555 1_555
C32_2 C31_2 1_555 1_555
C33_2 C32_2 1_555 1_555
H21_2 C33_2 1_555 1_555
C34_2 N2_2 1_555 1_555
H22_2 C34_2 1_555 1_555
C35_2 C32_2 1_555 1_555
C36_2 C28_2 1_555 1_555
H23_2 C36_2 1_555 1_555
C37_2 C29_2 1_555 1_555
H24_2 C37_2 1_555 1_555
Au2_2 Cl2_2 1_555 1_555
P2_2 Au2_2 1_555 1_555
O10_2 C51_2 1_555 1_555
O11_2 C51_2 1_555 1_555
O12_2 Co1_2 1_555 1_555
O13_2 C58_2 1_555 1_555
C45_2 P2_2 1_555 1_555
C46_2 C45_2 1_555 1_555
H29_2 C46_2 1_555 1_555
C47_2 C46_2 1_555 1_555
H30_2 C47_2 1_555 1_555
C48_2 C47_2 1_555 1_555
C49_2 C48_2 1_555 1_555
H31_2 C49_2 1_555 1_555
C50_2 C45_2 1_555 1_555
H32_2 C50_2 1_555 1_555
C51_2 C48_2 1_555 1_555
C52_2 P2_2 1_555 1_555
C53_2 C52_2 1_555 1_555
H33_2 C53_2 1_555 1_555
C54_2 C53_2 1_555 1_555
H34_2 C54_2 1_555 1_555
C55_2 C54_2 1_555 1_555
C56_2 C55_2 1_555 1_555
H35_2 C56_2 1_555 1_555
C57_2 C52_2 1_555 1_555
H36_2 C57_2 1_555 1_555
C58_2 O12_2 1_555 1_555
Co5_2 O11_2 1_555 1_555
Co8_2 O12_2 1_555 1_555
Co9_2 O10_2 1_555 1_555
Co10 N2_2 1_555 1_555
O15_2 Co1_2 1_555 1_555
O17_2 Co2_2 1_555 1_555
O18_2 Co1_2 1_555 1_555
O19_2 Co1_2 1_555 1_555
O20_2 Co1_2 1_555 1_555
O22_2 Co2_2 1_555 1_555
Co2_2 O20_2 1_555 1_555
C5_2 C6_2 1_555 1_555
C25_2 C26_2 1_555 1_555
C33_2 C34_2 1_555 1_555
C35_2 C36_2 1_555 1_555
C35_2 C37_2 1_555 1_555
O13_2 Co8_2 1_555 1_555
C49_2 C50_2 1_555 1_555
C55_2 C58_2 1_555 1_555
C56_2 C57_2 1_555 1_555
O7_2 H39_2 1_555 1_555
O7_2 H40_2 1_555 1_555
C22_3 N3_2 1_555 1_555
H13_3 C22_3 1_555 1_555
C23_3 C22_3 1_555 1_555
H14_3 C23_3 1_555 1_555
C24_3 C23_3 1_555 1_555
C25_3 C24_3 1_555 1_555
H15_3 C25_3 1_555 1_555
C26_3 N3_2 1_555 1_555
H16_3 C26_3 1_555 1_555
C27_3 C24_3 1_555 1_555
C28_3 C27_3 1_555 1_555
H17_3 C28_3 1_555 1_555
C29_3 C27_3 1_555 1_555
H18_3 C29_3 1_555 1_555
N2_3 C30_3 1_555 1_555
C30_3 H19_3 1_555 1_555
C31_3 C30_3 1_555 1_555
H20_3 C31_3 1_555 1_555
C32_3 C31_3 1_555 1_555
C33_3 C32_3 1_555 1_555
H21_3 C33_3 1_555 1_555
C34_3 N2_3 1_555 1_555
H22_3 C34_3 1_555 1_555
C35_3 C32_3 1_555 1_555
C36_3 C28_3 1_555 1_555
H23_3 C36_3 1_555 1_555
C37_3 C29_3 1_555 1_555
H24_3 C37_3 1_555 1_555
Co9 N2_3 1_555 1_555
O15_3 Co4_2 1_555 1_555
O18_3 Co4_2 1_555 1_555
O19_3 Co4_2 1_555 1_555
C25_3 C26_3 1_555 1_555
C33_3 C34_3 1_555 1_555
C35_3 C36_3 1_555 1_555
C35_3 C37_3 1_555 1_555
C22_4 N3 1_555 1_555
H13_4 C22_4 1_555 1_555
C23_4 C22_4 1_555 1_555
H14_4 C23_4 1_555 1_555
C24_4 C23_4 1_555 1_555
C25_4 C24_4 1_555 1_555
H15_4 C25_4 1_555 1_555
C26_4 N3 1_555 1_555
H16_4 C26_4 1_555 1_555
C27_4 C24_4 1_555 1_555
C28_4 C27_4 1_555 1_555
H17_4 C28_4 1_555 1_555
C29_4 C27_4 1_555 1_555
H18_4 C29_4 1_555 1_555
N2_4 C30_4 1_555 1_555
C30_4 H19_4 1_555 1_555
C31_4 C30_4 1_555 1_555
H20_4 C31_4 1_555 1_555
C32_4 C31_4 1_555 1_555
C33_4 C32_4 1_555 1_555
H21_4 C33_4 1_555 1_555
C34_4 N2_4 1_555 1_555
H22_4 C34_4 1_555 1_555
C35_4 C32_4 1_555 1_555
C36_4 C28_4 1_555 1_555
H23_4 C36_4 1_555 1_555
C37_4 C29_4 1_555 1_555
H24_4 C37_4 1_555 1_555
Co9_2 N2_4 1_555 1_555
O15_4 Co4 1_555 1_555
O18_4 Co4 1_555 1_555
O19_4 Co4 1_555 1_555
C25_4 C26_4 1_555 1_555
C33_4 C34_4 1_555 1_555
C35_4 C36_4 1_555 1_555
C35_4 C37_4 1_555 1_555
N2_5 C30_5 1_555 1_555
C30_5 H19_5 1_555 1_555
C31_5 C30_5 1_555 1_555
H20_5 C31_5 1_555 1_555
C32_5 C31_5 1_555 1_555
C33_5 C32_5 1_555 1_555
H21_5 C33_5 1_555 1_555
C34_5 N2_5 1_555 1_555
H22_5 C34_5 1_555 1_555
C35_5 C32_5 1_555 1_555
H23_5 C36_5 1_555 1_555
H24_5 C37_5 1_555 1_555
Co11_2 N2_5 1_555 1_555
C33_5 C34_5 1_555 1_555
C35_5 C36_5 1_555 1_555
C35_5 C37_5 1_555 1_555
Au1_3 Cl1_3 1_555 1_555
P1_3 Au1_3 1_555 1_555
Co7_2 O2_3 1_555 1_555
O15_3 C7_3 1_555 1_555
O2_3 C7_3 1_555 1_555
O3_3 C14_3 1_555 1_555
O4_3 C14_3 1_555 1_555
O20_2 C21_3 1_555 1_555
O22_2 C21_3 1_555 1_555
O7_3 Co7_2 1_555 1_555
C1_3 P1_3 1_555 1_555
C2_3 C1_3 1_555 1_555
H1_3 C2_3 1_555 1_555
C3_3 C2_3 1_555 1_555
H2_3 C3_3 1_555 1_555
C4_3 C3_3 1_555 1_555
C5_3 C4_3 1_555 1_555
H3_3 C5_3 1_555 1_555
C6_3 C1_3 1_555 1_555
H4_3 C6_3 1_555 1_555
C7_3 C4_3 1_555 1_555
C8_3 P1_3 1_555 1_555
C9_3 C8_3 1_555 1_555
H5_3 C9_3 1_555 1_555
C10_3 C9_3 1_555 1_555
H6_3 C10_3 1_555 1_555
C11_3 C10_3 1_555 1_555
C12_3 C11_3 1_555 1_555
H7_3 C12_3 1_555 1_555
C13_3 C8_3 1_555 1_555
H8_3 C13_3 1_555 1_555
C14_3 C11_3 1_555 1_555
C15_3 P1_3 1_555 1_555
C16_3 C15_3 1_555 1_555
H9_3 C16_3 1_555 1_555
C17_3 C16_3 1_555 1_555
H10_3 C17_3 1_555 1_555
C18_3 C17_3 1_555 1_555
C19_3 C18_3 1_555 1_555
H11_3 C19_3 1_555 1_555
C20_3 C15_3 1_555 1_555
H12_3 C20_3 1_555 1_555
C21_3 C18_3 1_555 1_555
N1_3 Co7_2 1_555 1_555
C22_5 N1_3 1_555 1_555
H13_5 C22_5 1_555 1_555
C23_5 C22_5 1_555 1_555
H14_5 C23_5 1_555 1_555
C24_5 C23_5 1_555 1_555
C25_5 C24_5 1_555 1_555
H15_5 C25_5 1_555 1_555
C26_5 N1_3 1_555 1_555
H16_5 C26_5 1_555 1_555
C27_5 C24_5 1_555 1_555
C28_5 C27_5 1_555 1_555
H17_5 C28_5 1_555 1_555
C29_5 C27_5 1_555 1_555
H18_5 C29_5 1_555 1_555
Au2_3 Cl2_3 1_555 1_555
P2_3 Au2_3 1_555 1_555
Co8_2 O9_3 1_555 1_555
O15_2 C44_3 1_555 1_555
O9_3 C44_3 1_555 1_555
O10_3 C51_3 1_555 1_555
O11_3 C51_3 1_555 1_555
O23_2 C58_3 1_555 1_555
O14_3 Co8_2 1_555 1_555
C38_3 P2_3 1_555 1_555
C39_3 C38_3 1_555 1_555
H25_3 C39_3 1_555 1_555
C40_3 C39_3 1_555 1_555
H26_3 C40_3 1_555 1_555
C41_3 C40_3 1_555 1_555
C42_3 C41_3 1_555 1_555
H27_3 C42_3 1_555 1_555
C43_3 C38_3 1_555 1_555
H28_3 C43_3 1_555 1_555
C44_3 C41_3 1_555 1_555
C45_3 P2_3 1_555 1_555
C46_3 C45_3 1_555 1_555
H29_3 C46_3 1_555 1_555
C47_3 C46_3 1_555 1_555
H30_3 C47_3 1_555 1_555
C48_3 C47_3 1_555 1_555
C49_3 C48_3 1_555 1_555
H31_3 C49_3 1_555 1_555
C50_3 C45_3 1_555 1_555
H32_3 C50_3 1_555 1_555
C51_3 C48_3 1_555 1_555
C52_3 P2_3 1_555 1_555
C53_3 C52_3 1_555 1_555
H33_3 C53_3 1_555 1_555
C54_3 C53_3 1_555 1_555
H34_3 C54_3 1_555 1_555
C55_3 C54_3 1_555 1_555
C56_3 C55_3 1_555 1_555
H35_3 C56_3 1_555 1_555
C57_3 C52_3 1_555 1_555
H36_3 C57_3 1_555 1_555
C58_3 O21_2 1_555 1_555
Co6_2 O11_3 1_555 1_555
Co5_2 O4_3 1_555 1_555
Co9_3 O10_3 1_555 1_555
Co10_2 O3_3 1_555 1_555
O16_3 Co8_2 1_555 1_555
O17_3 Co7_2 1_555 1_555
N3_3 Co8_2 1_555 1_555
C5_3 C6_3 1_555 1_555
C12_3 C13_3 1_555 1_555
C19_3 C20_3 1_555 1_555
C25_5 C26_5 1_555 1_555
C42_3 C43_3 1_555 1_555
C49_3 C50_3 1_555 1_555
C55_3 C58_3 1_555 1_555
C56_3 C57_3 1_555 1_555
O14_3 H37_3 1_555 1_555
O14_3 H38_3 1_555 1_555
O7_3 H39_3 1_555 1_555
O7_3 H40_3 1_555 1_555
O20 C21_4 1_555 1_555
O22 C21_4 1_555 1_555
C21_4 C18_4 1_555 1_555
Co8 O9_4 1_555 1_555
O15 C44_4 1_555 1_555
O9_4 C44_4 1_555 1_555
C39_4 C38_4 1_555 1_555
H25_4 C39_4 1_555 1_555
C40_4 C39_4 1_555 1_555
H26_4 C40_4 1_555 1_555
C41_4 C40_4 1_555 1_555
C42_4 C41_4 1_555 1_555
H27_4 C42_4 1_555 1_555
C43_4 C38_4 1_555 1_555
H28_4 C43_4 1_555 1_555
C44_4 C41_4 1_555 1_555
O16_4 Co8 1_555 1_555
N3_4 Co8 1_555 1_555
C42_4 C43_4 1_555 1_555
Au2_4 Cl2_4 1_555 1_555
P2_4 Au2_4 1_555 1_555
O10_4 C51_4 1_555 1_555
O11_4 C51_4 1_555 1_555
C45_4 P2_4 1_555 1_555
C46_4 C45_4 1_555 1_555
H29_4 C46_4 1_555 1_555
C47_4 C46_4 1_555 1_555
H30_4 C47_4 1_555 1_555
C48_4 C47_4 1_555 1_555
C49_4 C48_4 1_555 1_555
H31_4 C49_4 1_555 1_555
C50_4 C45_4 1_555 1_555
H32_4 C50_4 1_555 1_555
C51_4 C48_4 1_555 1_555
C52_4 P2_4 1_555 1_555
C53_4 C52_4 1_555 1_555
H33_4 C53_4 1_555 1_555
C54_4 C53_4 1_555 1_555
C57_4 C52_4 1_555 1_555
H36_4 C57_4 1_555 1_555
Co6 O11_4 1_555 1_555
Co9_4 O10_4 1_555 1_555
C49_4 C50_4 1_555 1_555
C56_4 C57_4 1_555 1_555
O7_4 H39_4 1_555 1_555
O7_4 H40_4 1_555 1_555
Au1_4 Cl1_4 1_555 1_555
P1_4 Au1_4 1_555 1_555
O3_4 C14_4 1_555 1_555
O4_4 C14_4 1_555 1_555
C8_4 P1_4 1_555 1_555
C9_4 C8_4 1_555 1_555
H5_4 C9_4 1_555 1_555
C10_4 C9_4 1_555 1_555
H6_4 C10_4 1_555 1_555
C11_4 C10_4 1_555 1_555
C12_4 C11_4 1_555 1_555
H7_4 C12_4 1_555 1_555
C13_4 C8_4 1_555 1_555
H8_4 C13_4 1_555 1_555
C14_4 C11_4 1_555 1_555
C15_4 P1_4 1_555 1_555
C16_4 C15_4 1_555 1_555
H9_4 C16_4 1_555 1_555
C17_4 C16_4 1_555 1_555
C20_4 C15_4 1_555 1_555
H12_4 C20_4 1_555 1_555
Co5 O4_4 1_555 1_555
Co11_2 O3_4 1_555 1_555
C12_4 C13_4 1_555 1_555
C19_4 C20_4 1_555 1_555
O14_4 H37_4 1_555 1_555
O14_4 H38_4 1_555 1_555
Co7 O2_4 1_555 1_555
O15_4 C7_4 1_555 1_555
O2_4 C7_4 1_555 1_555
C2_4 C1_4 1_555 1_555
H1_4 C2_4 1_555 1_555
C3_4 C2_4 1_555 1_555
H2_4 C3_4 1_555 1_555
C4_4 C3_4 1_555 1_555
C5_4 C4_4 1_555 1_555
H3_4 C5_4 1_555 1_555
C6_4 C1_4 1_555 1_555
H4_4 C6_4 1_555 1_555
C7_4 C4_4 1_555 1_555
N1_4 Co7 1_555 1_555
C22_6 N1_4 1_555 1_555
H13_6 C22_6 1_555 1_555
C23_6 C22_6 1_555 1_555
H14_6 C23_6 1_555 1_555
C24_6 C23_6 1_555 1_555
C25_6 C24_6 1_555 1_555
H15_6 C25_6 1_555 1_555
C26_6 N1_4 1_555 1_555
H16_6 C26_6 1_555 1_555
C27_6 C24_6 1_555 1_555
C28_6 C27_6 1_555 1_555
H17_6 C28_6 1_555 1_555
C29_6 C27_6 1_555 1_555
H18_6 C29_6 1_555 1_555
O23 C58_4 1_555 1_555
C58_4 O21 1_555 1_555
O17_4 Co7 1_555 1_555
C5_4 C6_4 1_555 1_555
C25_6 C26_6 1_555 1_555
C55_4 C58_4 1_555 1_555
N2_6 C30_6 1_555 1_555
C30_6 H19_6 1_555 1_555
C31_6 C30_6 1_555 1_555
H20_6 C31_6 1_555 1_555
C32_6 C31_6 1_555 1_555
C33_6 C32_6 1_555 1_555
H21_6 C33_6 1_555 1_555
C34_6 N2_6 1_555 1_555
H22_6 C34_6 1_555 1_555
C35_6 C32_6 1_555 1_555
H23_6 C36_6 1_555 1_555
H24_6 C37_6 1_555 1_555
Co10_2 N2_6 1_555 1_555
C33_6 C34_6 1_555 1_555
C35_6 C36_6 1_555 1_555
C35_6 C37_6 1_555 1_555
C22_7 N3_4 1_555 1_555
H13_7 C22_7 1_555 1_555
C23_7 C22_7 1_555 1_555
H14_7 C23_7 1_555 1_555
C24_7 C23_7 1_555 1_555
C25_7 C24_7 1_555 1_555
H15_7 C25_7 1_555 1_555
C26_7 N3_4 1_555 1_555
H16_7 C26_7 1_555 1_555
C27_7 C24_7 1_555 1_555
C28_7 C27_7 1_555 1_555
H17_7 C28_7 1_555 1_555
C29_7 C27_7 1_555 1_555
H18_7 C29_7 1_555 1_555
C25_7 C26_7 1_555 1_555
N2_7 C30_7 1_555 1_555
C30_7 H19_7 1_555 1_555
C31_7 C30_7 1_555 1_555
H20_7 C31_7 1_555 1_555
C32_7 C31_7 1_555 1_555
C33_7 C32_7 1_555 1_555
H21_7 C33_7 1_555 1_555
C34_7 N2_7 1_555 1_555
H22_7 C34_7 1_555 1_555
C35_7 C32_7 1_555 1_555
H23_7 C36_7 1_555 1_555
H24_7 C37_7 1_555 1_555
Co9_3 N2_7 1_555 1_555
C33_7 C34_7 1_555 1_555
C35_7 C36_7 1_555 1_555
C35_7 C37_7 1_555 1_555
N2_8 C30_8 1_555 1_555
C30_8 H19_8 1_555 1_555
C31_8 C30_8 1_555 1_555
H20_8 C31_8 1_555 1_555
C32_8 C31_8 1_555 1_555
C33_8 C32_8 1_555 1_555
H21_8 C33_8 1_555 1_555
C34_8 N2_8 1_555 1_555
H22_8 C34_8 1_555 1_555
C35_8 C32_8 1_555 1_555
H23_8 C36_8 1_555 1_555
H24_8 C37_8 1_555 1_555
Co9_4 N2_8 1_555 1_555
C33_8 C34_8 1_555 1_555
C35_8 C36_8 1_555 1_555
C35_8 C37_8 1_555 1_555
C22_8 N3_3 1_555 1_555
H13_8 C22_8 1_555 1_555
C23_8 C22_8 1_555 1_555
H14_8 C23_8 1_555 1_555
C24_8 C23_8 1_555 1_555
C25_8 C24_8 1_555 1_555
H15_8 C25_8 1_555 1_555
C26_8 N3_3 1_555 1_555
H16_8 C26_8 1_555 1_555
C27_8 C24_8 1_555 1_555
C28_8 C27_8 1_555 1_555
H17_8 C28_8 1_555 1_555
C29_8 C27_8 1_555 1_555
H18_8 C29_8 1_555 1_555
C25_8 C26_8 1_555 1_555
O5_3 C21_5 1_555 1_555
O6_3 C21_5 1_555 1_555
C21_5 C18_5 1_555 1_555
Au2_5 Cl2_5 1_555 1_555
P2_5 Au2_5 1_555 1_555
Co11 O9_5 1_555 1_555
O8_3 C44_5 1_555 1_555
O9_5 C44_5 1_555 1_555
O17_2 C51_5 1_555 1_555
O18_2 C51_5 1_555 1_555
C38_5 P2_5 1_555 1_555
C39_5 C38_5 1_555 1_555
H25_5 C39_5 1_555 1_555
C40_5 C39_5 1_555 1_555
H26_5 C40_5 1_555 1_555
C41_5 C40_5 1_555 1_555
C42_5 C41_5 1_555 1_555
H27_5 C42_5 1_555 1_555
C43_5 C38_5 1_555 1_555
H28_5 C43_5 1_555 1_555
C44_5 C41_5 1_555 1_555
C45_5 P2_5 1_555 1_555
C46_5 C45_5 1_555 1_555
H29_5 C46_5 1_555 1_555
C47_5 C46_5 1_555 1_555
H30_5 C47_5 1_555 1_555
C48_5 C47_5 1_555 1_555
C49_5 C48_5 1_555 1_555
H31_5 C49_5 1_555 1_555
C50_5 C45_5 1_555 1_555
H32_5 C50_5 1_555 1_555
C51_5 C48_5 1_555 1_555
C52_5 P2_5 1_555 1_555
C53_5 C52_5 1_555 1_555
H33_5 C53_5 1_555 1_555
C54_5 C53_5 1_555 1_555
C57_5 C52_5 1_555 1_555
H36_5 C57_5 1_555 1_555
Co6_2 O5_3 1_555 1_555
Co9_3 O5_3 1_555 1_555
O21_3 Co11 1_555 1_555
O23_3 Co11 1_555 1_555
O6_3 Co9_3 1_555 1_555
O8_3 Co6_2 1_555 1_555
C42_5 C43_5 1_555 1_555
C49_5 C50_5 1_555 1_555
C56_5 C57_5 1_555 1_555
Co6_2 O21_3 1_555 1_555
O7_5 H39_5 1_555 1_555
O7_5 H40_5 1_555 1_555
Au1_5 Cl1_5 1_555 1_555
P1_5 Au1_5 1_555 1_555
Co5_2 O1_3 1_555 1_555
Co9_2 O2_5 1_555 1_555
O1_3 C7_5 1_555 1_555
O2_5 C7_5 1_555 1_555
O16_2 C14_5 1_555 1_555
O18_3 C14_5 1_555 1_555
C1_5 P1_5 1_555 1_555
C2_5 C1_5 1_555 1_555
H1_5 C2_5 1_555 1_555
C3_5 C2_5 1_555 1_555
H2_5 C3_5 1_555 1_555
C4_5 C3_5 1_555 1_555
C5_5 C4_5 1_555 1_555
H3_5 C5_5 1_555 1_555
C6_5 C1_5 1_555 1_555
H4_5 C6_5 1_555 1_555
C7_5 C4_5 1_555 1_555
C8_5 P1_5 1_555 1_555
C9_5 C8_5 1_555 1_555
H5_5 C9_5 1_555 1_555
C10_5 C9_5 1_555 1_555
H6_5 C10_5 1_555 1_555
C11_5 C10_5 1_555 1_555
C12_5 C11_5 1_555 1_555
H7_5 C12_5 1_555 1_555
C13_5 C8_5 1_555 1_555
H8_5 C13_5 1_555 1_555
C14_5 C11_5 1_555 1_555
C15_5 P1_5 1_555 1_555
C16_5 C15_5 1_555 1_555
H9_5 C16_5 1_555 1_555
C17_5 C16_5 1_555 1_555
C20_5 C15_5 1_555 1_555
H12_5 C20_5 1_555 1_555
O12_3 Co5_2 1_555 1_555
O13_3 C58_5 1_555 1_555
C58_5 O12_3 1_555 1_555
Co10_2 O12_3 1_555 1_555
O15_5 Co5_2 1_555 1_555
O20_3 Co5_2 1_555 1_555
O22_3 Co9_2 1_555 1_555
Co9_2 O20_3 1_555 1_555
C5_5 C6_5 1_555 1_555
C12_5 C13_5 1_555 1_555
C19_5 C20_5 1_555 1_555
O13_3 Co10_2 1_555 1_555
C55_5 C58_5 1_555 1_555
O14_5 H37_5 1_555 1_555
O14_5 H38_5 1_555 1_555
Co5 O1_4 1_555 1_555
Co9 O2_6 1_555 1_555
O1_4 C7_6 1_555 1_555
O2_6 C7_6 1_555 1_555
O7_6 Co9 1_555 1_555
C2_6 C1_6 1_555 1_555
H1_6 C2_6 1_555 1_555
C3_6 C2_6 1_555 1_555
H2_6 C3_6 1_555 1_555
C4_6 C3_6 1_555 1_555
C5_6 C4_6 1_555 1_555
H3_6 C5_6 1_555 1_555
C6_6 C1_6 1_555 1_555
H4_6 C6_6 1_555 1_555
C7_6 C4_6 1_555 1_555
Au2_6 Cl2_6 1_555 1_555
P2_6 Au2_6 1_555 1_555
O17 C51_6 1_555 1_555
O18 C51_6 1_555 1_555
O12_4 Co5 1_555 1_555
O13_4 C58_6 1_555 1_555
C45_6 P2_6 1_555 1_555
C46_6 C45_6 1_555 1_555
H29_6 C46_6 1_555 1_555
C47_6 C46_6 1_555 1_555
H30_6 C47_6 1_555 1_555
C48_6 C47_6 1_555 1_555
C49_6 C48_6 1_555 1_555
H31_6 C49_6 1_555 1_555
C50_6 C45_6 1_555 1_555
H32_6 C50_6 1_555 1_555
C51_6 C48_6 1_555 1_555
C52_6 P2_6 1_555 1_555
C53_6 C52_6 1_555 1_555
H33_6 C53_6 1_555 1_555
C54_6 C53_6 1_555 1_555
H34_6 C54_6 1_555 1_555
C55_6 C54_6 1_555 1_555
C56_6 C55_6 1_555 1_555
H35_6 C56_6 1_555 1_555
C57_6 C52_6 1_555 1_555
H36_6 C57_6 1_555 1_555
C58_6 O12_4 1_555 1_555
Co11_2 O12_4 1_555 1_555
O15_6 Co5 1_555 1_555
O20_4 Co5 1_555 1_555
O22_4 Co9 1_555 1_555
Co9 O20_4 1_555 1_555
C5_6 C6_6 1_555 1_555
O13_4 Co11_2 1_555 1_555
C49_6 C50_6 1_555 1_555
C55_6 C58_6 1_555 1_555
C56_6 C57_6 1_555 1_555
O7_6 H39_6 1_555 1_555
O7_6 H40_6 1_555 1_555
Au1_6 Cl1_6 1_555 1_555
P1_6 Au1_6 1_555 1_555
O16 C14_6 1_555 1_555
O18_4 C14_6 1_555 1_555
O5_4 C21_6 1_555 1_555
O6_4 C21_6 1_555 1_555
C8_6 P1_6 1_555 1_555
C9_6 C8_6 1_555 1_555
H5_6 C9_6 1_555 1_555
C10_6 C9_6 1_555 1_555
H6_6 C10_6 1_555 1_555
C11_6 C10_6 1_555 1_555
C12_6 C11_6 1_555 1_555
H7_6 C12_6 1_555 1_555
C13_6 C8_6 1_555 1_555
H8_6 C13_6 1_555 1_555
C14_6 C11_6 1_555 1_555
C15_6 P1_6 1_555 1_555
C16_6 C15_6 1_555 1_555
H9_6 C16_6 1_555 1_555
C17_6 C16_6 1_555 1_555
H10_6 C17_6 1_555 1_555
C18_6 C17_6 1_555 1_555
C19_6 C18_6 1_555 1_555
H11_6 C19_6 1_555 1_555
C20_6 C15_6 1_555 1_555
H12_6 C20_6 1_555 1_555
C21_6 C18_6 1_555 1_555
Co10 O9_6 1_555 1_555
O8_4 C44_6 1_555 1_555
O9_6 C44_6 1_555 1_555
O14_6 Co10 1_555 1_555
C39_6 C38_6 1_555 1_555
H25_6 C39_6 1_555 1_555
C40_6 C39_6 1_555 1_555
H26_6 C40_6 1_555 1_555
C41_6 C40_6 1_555 1_555
C42_6 C41_6 1_555 1_555
H27_6 C42_6 1_555 1_555
C43_6 C38_6 1_555 1_555
H28_6 C43_6 1_555 1_555
C44_6 C41_6 1_555 1_555
Co6 O5_4 1_555 1_555
Co9_4 O5_4 1_555 1_555
O21_4 Co10 1_555 1_555
O23_4 Co10 1_555 1_555
O6_4 Co9_4 1_555 1_555
C12_6 C13_6 1_555 1_555
C19_6 C20_6 1_555 1_555
O8_4 Co6 1_555 1_555
C42_6 C43_6 1_555 1_555
Co6 O21_4 1_555 1_555
O14_6 H37_6 1_555 1_555
O14_6 H38_6 1_555 1_555
O15_7 Co6 1_555 1_555
O15_8 Co6_2 1_555 1_555
Au1_7 Cl1_7 1_555 1_555
P1_7 Au1_7 1_555 1_555
Co9_4 O2_7 1_555 1_555
O15_7 C7_7 1_555 1_555
O2_7 C7_7 1_555 1_555
O16_4 C14_7 1_555 1_555
O19 C14_7 1_555 1_555
O20_4 C21_7 1_555 1_555
O22_4 C21_7 1_555 1_555
O7_7 Co9_4 1_555 1_555
C1_7 P1_7 1_555 1_555
C2_7 C1_7 1_555 1_555
H1_7 C2_7 1_555 1_555
C3_7 C2_7 1_555 1_555
H2_7 C3_7 1_555 1_555
C4_7 C3_7 1_555 1_555
C5_7 C4_7 1_555 1_555
H3_7 C5_7 1_555 1_555
C6_7 C1_7 1_555 1_555
H4_7 C6_7 1_555 1_555
C7_7 C4_7 1_555 1_555
C8_7 P1_7 1_555 1_555
C9_7 C8_7 1_555 1_555
H5_7 C9_7 1_555 1_555
C10_7 C9_7 1_555 1_555
H6_7 C10_7 1_555 1_555
C11_7 C10_7 1_555 1_555
C12_7 C11_7 1_555 1_555
H7_7 C12_7 1_555 1_555
C13_7 C8_7 1_555 1_555
H8_7 C13_7 1_555 1_555
C14_7 C11_7 1_555 1_555
C15_7 P1_7 1_555 1_555
C16_7 C15_7 1_555 1_555
H9_7 C16_7 1_555 1_555
C17_7 C16_7 1_555 1_555
H10_7 C17_7 1_555 1_555
C18_7 C17_7 1_555 1_555
C19_7 C18_7 1_555 1_555
H11_7 C19_7 1_555 1_555
C20_7 C15_7 1_555 1_555
H12_7 C20_7 1_555 1_555
C21_7 C18_7 1_555 1_555
Au2_7 Cl2_7 1_555 1_555
P2_7 Au2_7 1_555 1_555
Co11_2 O9_7 1_555 1_555
O15_6 C44_7 1_555 1_555
O9_7 C44_7 1_555 1_555
O17_4 C51_7 1_555 1_555
O19_4 C51_7 1_555 1_555
O23_4 C58_7 1_555 1_555
O14_7 Co11_2 1_555 1_555
C38_7 P2_7 1_555 1_555
C39_7 C38_7 1_555 1_555
H25_7 C39_7 1_555 1_555
C40_7 C39_7 1_555 1_555
H26_7 C40_7 1_555 1_555
C41_7 C40_7 1_555 1_555
C42_7 C41_7 1_555 1_555
H27_7 C42_7 1_555 1_555
C43_7 C38_7 1_555 1_555
H28_7 C43_7 1_555 1_555
C44_7 C41_7 1_555 1_555
C45_7 P2_7 1_555 1_555
C46_7 C45_7 1_555 1_555
H29_7 C46_7 1_555 1_555
C47_7 C46_7 1_555 1_555
H30_7 C47_7 1_555 1_555
C48_7 C47_7 1_555 1_555
C49_7 C48_7 1_555 1_555
H31_7 C49_7 1_555 1_555
C50_7 C45_7 1_555 1_555
H32_7 C50_7 1_555 1_555
C51_7 C48_7 1_555 1_555
C52_7 P2_7 1_555 1_555
C53_7 C52_7 1_555 1_555
H33_7 C53_7 1_555 1_555
C54_7 C53_7 1_555 1_555
H34_7 C54_7 1_555 1_555
C55_7 C54_7 1_555 1_555
C56_7 C55_7 1_555 1_555
H35_7 C56_7 1_555 1_555
C57_7 C52_7 1_555 1_555
H36_7 C57_7 1_555 1_555
C58_7 O21_4 1_555 1_555
C5_7 C6_7 1_555 1_555
C12_7 C13_7 1_555 1_555
C19_7 C20_7 1_555 1_555
C42_7 C43_7 1_555 1_555
C49_7 C50_7 1_555 1_555
C55_7 C58_7 1_555 1_555
C56_7 C57_7 1_555 1_555
O14_7 H37_7 1_555 1_555
O14_7 H38_7 1_555 1_555
O7_7 H39_7 1_555 1_555
O7_7 H40_7 1_555 1_555
Co9_3 O2_8 1_555 1_555
O15_8 C7_8 1_555 1_555
O2_8 C7_8 1_555 1_555
C2_8 C1_8 1_555 1_555
H1_8 C2_8 1_555 1_555
C3_8 C2_8 1_555 1_555
H2_8 C3_8 1_555 1_555
C4_8 C3_8 1_555 1_555
C5_8 C4_8 1_555 1_555
H3_8 C5_8 1_555 1_555
C6_8 C1_8 1_555 1_555
H4_8 C6_8 1_555 1_555
C7_8 C4_8 1_555 1_555
O23_3 C58_8 1_555 1_555
C58_8 O21_3 1_555 1_555
C5_8 C6_8 1_555 1_555
C55_8 C58_8 1_555 1_555
Au1_8 Cl1_8 1_555 1_555
P1_8 Au1_8 1_555 1_555
O16_3 C14_8 1_555 1_555
O19_2 C14_8 1_555 1_555
C8_8 P1_8 1_555 1_555
C9_8 C8_8 1_555 1_555
H5_8 C9_8 1_555 1_555
C10_8 C9_8 1_555 1_555
H6_8 C10_8 1_555 1_555
C11_8 C10_8 1_555 1_555
C12_8 C11_8 1_555 1_555
H7_8 C12_8 1_555 1_555
C13_8 C8_8 1_555 1_555
H8_8 C13_8 1_555 1_555
C14_8 C11_8 1_555 1_555
C15_8 P1_8 1_555 1_555
C16_8 C15_8 1_555 1_555
H9_8 C16_8 1_555 1_555
C17_8 C16_8 1_555 1_555
C20_8 C15_8 1_555 1_555
H12_8 C20_8 1_555 1_555
C12_8 C13_8 1_555 1_555
C19_8 C20_8 1_555 1_555
O14_8 H37_8 1_555 1_555
O14_8 H38_8 1_555 1_555
Au2_8 Cl2_8 1_555 1_555
P2_8 Au2_8 1_555 1_555
O17_3 C51_8 1_555 1_555
O19_3 C51_8 1_555 1_555
C45_8 P2_8 1_555 1_555
C46_8 C45_8 1_555 1_555
H29_8 C46_8 1_555 1_555
C47_8 C46_8 1_555 1_555
H30_8 C47_8 1_555 1_555
C48_8 C47_8 1_555 1_555
C49_8 C48_8 1_555 1_555
H31_8 C49_8 1_555 1_555
C50_8 C45_8 1_555 1_555
H32_8 C50_8 1_555 1_555
C51_8 C48_8 1_555 1_555
C52_8 P2_8 1_555 1_555
C53_8 C52_8 1_555 1_555
H33_8 C53_8 1_555 1_555
C54_8 C53_8 1_555 1_555
C57_8 C52_8 1_555 1_555
H36_8 C57_8 1_555 1_555
C49_8 C50_8 1_555 1_555
C56_8 C57_8 1_555 1_555
O7_8 H39_8 1_555 1_555
O7_8 H40_8 1_555 1_555
O20_3 C21_8 1_555 1_555
O22_3 C21_8 1_555 1_555
C21_8 C18_8 1_555 1_555
Co10_2 O9_8 1_555 1_555
O15_5 C44_8 1_555 1_555
O9_8 C44_8 1_555 1_555
C39_8 C38_8 1_555 1_555
H25_8 C39_8 1_555 1_555
C40_8 C39_8 1_555 1_555
H26_8 C40_8 1_555 1_555
C41_8 C40_8 1_555 1_555
C42_8 C41_8 1_555 1_555
H27_8 C42_8 1_555 1_555
C43_8 C38_8 1_555 1_555
H28_8 C43_8 1_555 1_555
C44_8 C41_8 1_555 1_555
C42_8 C43_8 1_555 1_555

#END
