
###############################################################################
#
# This file contains modified crystal structure data generated from the
# MOF subset of the Cambridge Structural Database (CSD) v543 
# hosted by the Cambridge Crystallographic Data Centre (CCDC).
#
# This work is licensed under the Creative Commons
# Attribution-NonCommercial-ShareAlike 4.0 International License.
# To view a copy of this license, visit
# http://creativecommons.org/licenses/by-nc-sa/4.0/
# or send a letter to
# Creative Commons, PO Box 1866, Mountain View, CA 94042, USA.
#
# CIF created using the CSD Python API on 29 September 2022
# The structure has been converted into the P1 space group
# The structure has a 3D framework
# The original CSD entry HOJLID is in the monoclinic crystal system
# The original CSD entry HOJLID is in a Sohncke space group
# The framework has been calculated to contain at least 10.0% void space
# The void calculation uses a probe of radius 1.32A, grid spacing 0.4
#
###############################################################################

data_HOJLID
_chemical_formula_moiety         '(C440 H344 N24 O64 Zn16)n'
_symmetry_cell_setting           triclinic
_symmetry_space_group_name_H-M   'P 1'
_symmetry_Int_Tables_number      1
_space_group_name_Hall           'P 1'
loop_
_symmetry_equiv_pos_site_id
_symmetry_equiv_pos_as_xyz
1 x,y,z
_cell_length_a                   19.870(16)
_cell_length_b                   22.960(15)
_cell_length_c                   48.42(4)
_cell_angle_alpha                90
_cell_angle_beta                 96.63(3)
_cell_angle_gamma                90
_cell_volume                     21942.2
loop_
_atom_site_label
_atom_site_type_symbol
_atom_site_fract_x
_atom_site_fract_y
_atom_site_fract_z
Zn7 Zn 0.26441(3) 0.01625(3) 0.17677(1)
Zn9 Zn 0.24822(3) 0.01661(3) 0.116206(12)
O7 O 0.1848(3) 0.9619(2) 0.16628(11)
O8 O 0.1859(3) 0.9501(2) 0.12124(12)
C22 C 0.0243(2) 0.79612(17) 0.14621(9)
C23 C 0.0548(3) 0.8067(2) 0.12229(8)
H13 H 0.0448 0.7831 0.1067
C24 C 0.1004(3) 0.8524(2) 0.12160(8)
H14 H 0.1209 0.8595 0.1056
C25 C 0.1154(2) 0.88766(17) 0.14485(9)
C26 C 0.0849(2) 0.8771(2) 0.16878(8)
H15 H 0.0949 0.9006 0.1843
C27 C 0.0393(2) 0.8313(2) 0.16946(8)
H16 H 0.0189 0.8243 0.1855
C28 C 0.1647(3) 0.9354(3) 0.14372(16)
O15 O 0.2111(3) 0.8203(2) 0.67068(15)
O16 O 0.1907(3) 0.8269(3) 0.62593(12)
H26 H 0.0012 0.6048 0.6892
C50 C 0.0418(3) 0.6636(2) 0.64843(9)
C51 C 0.0669(3) 0.6903(2) 0.67325(8)
H29 H 0.0539 0.6770 0.6900
C52 C 0.1112(3) 0.7371(2) 0.67306(9)
H30 H 0.1280 0.7550 0.6897
C53 C 0.1306(3) 0.7571(2) 0.64805(10)
C54 C 0.1055(3) 0.7303(2) 0.62323(9)
H31 H 0.1185 0.7437 0.6065
C55 C 0.0612(3) 0.6835(2) 0.62342(8)
H32 H 0.0444 0.6656 0.6068
C56 C 0.1770(3) 0.8066(3) 0.64739(18)
Zn11 Zn 0.27723(4) 0.88526(3) 0.677332(16)
Zn13 Zn 0.26043(3) 0.88548(3) 0.616913(16)
Zn1 Zn 0.76441(3) 0.51625(3) 0.17677(1)
Zn2 Zn 0.74822(3) 0.51661(3) 0.116206(12)
O1 O 0.6967(2) 0.5820(2) 0.17002(11)
O2 O 0.6756(2) 0.5750(2) 0.12309(11)
O3 O 0.3268(2) 0.95174(19) 0.16873(10)
O4 O 0.3253(3) 0.9573(2) 0.12230(12)
O5 O 0.8394(2) 0.5737(2) 0.17229(10)
O6 O 0.8178(2) 0.5818(2) 0.12600(11)
C1 C 0.6689(4) 0.5993(3) 0.14812(17)
C2 C 0.6219(2) 0.64994(17) 0.14621(9)
C3 C 0.6139(3) 0.6788(2) 0.17087(8)
H1 H 0.6380 0.6666 0.1875
C4 C 0.5697(3) 0.7257(2) 0.17073(8)
H2 H 0.5644 0.7450 0.1872
C5 C 0.5336(2) 0.74393(17) 0.14593(9)
C6 C 0.5416(2) 0.7151(2) 0.12128(8)
H3 H 0.5174 0.7273 0.1047
C7 C 0.5857(2) 0.6681(2) 0.12141(8)
H4 H 0.5911 0.6488 0.1049
C8 C 0.4831(2) 0.79295(18) 0.14630(10)
C9 C 0.4570(3) 0.8088(2) 0.17065(8)
H5 H 0.4691 0.7879 0.1869
C10 C 0.4128(3) 0.8557(2) 0.17065(8)
H6 H 0.3953 0.8663 0.1869
C11 C 0.3947(2) 0.88681(17) 0.14630(9)
C12 C 0.4208(3) 0.8710(2) 0.12195(8)
H7 H 0.4087 0.8918 0.1057
C13 C 0.4650(3) 0.8241(2) 0.12195(8)
H8 H 0.4825 0.8135 0.1057
C14 C 0.3449(3) 0.9345(2) 0.14560(13)
C15 C 0.8442(3) 0.5954(2) 0.14904(15)
C16 C 0.89267(18) 0.64956(14) 0.14918(8)
C17 C 0.89793(19) 0.67679(16) 0.12388(7)
H9 H 0.8733 0.6628 0.1077
C18 C 0.9399(2) 0.72492(16) 0.12272(7)
H10 H 0.9434 0.7431 0.1058
C19 C 0.9767(2) 0.74583(16) 0.14685(8)
C20 C 0.9714(2) 0.71860(19) 0.17215(7)
H11 H 0.9960 0.7326 0.1883
C21 C 0.9294(2) 0.67046(18) 0.17332(6)
H12 H 0.9259 0.6522 0.1902
N1 N 0.74725(17) 0.51908(18) 0.07473(5)
C57 C 0.68692(15) 0.5098(2) 0.05772(7)
H33 H 0.6467 0.5051 0.0655
C58 C 0.68676(18) 0.5075(3) 0.02903(7)
H34 H 0.6464 0.5013 0.0177
C59 C 0.7469(2) 0.5145(3) 0.01734(5)
C60 C 0.80726(18) 0.5238(2) 0.03434(8)
H35 H 0.8475 0.5285 0.0265
C61 C 0.80742(15) 0.5261(2) 0.06303(7)
H36 H 0.8478 0.5323 0.0744
H43 H 0.7034 0.4055 0.0041
H44 H 0.7808 0.3986 0.0014
O17 O 0.8268(2) 0.45174(19) 0.16873(10)
O18 O 0.8253(3) 0.4573(2) 0.12230(12)
O19 O 0.6848(3) 0.4619(2) 0.16628(11)
O20 O 0.6859(3) 0.4501(2) 0.12124(12)
N7 N 0.7721(2) 0.50286(18) 0.21791(7)
Zn3 Zn 0.77723(4) 0.38526(3) 0.677332(16)
Zn4 Zn 0.76043(3) 0.38548(3) 0.616913(16)
O9 O 0.7035(3) 0.4444(3) 0.66591(15)
O10 O 0.6902(3) 0.4479(3) 0.62076(15)
O11 O 0.3487(3) 0.8243(3) 0.67288(14)
O12 O 0.3312(3) 0.8232(3) 0.62629(15)
O13 O 0.8471(3) 0.4465(2) 0.67099(14)
O14 O 0.8358(3) 0.4440(2) 0.62402(13)
C29 C 0.6790(4) 0.4629(3) 0.64287(19)
C30 C 0.6269(3) 0.5091(2) 0.64508(14)
C31 C 0.6091(4) 0.5297(3) 0.67025(11)
H17 H 0.6275 0.5126 0.6868
C32 C 0.5638(4) 0.5757(3) 0.67060(12)
H18 H 0.5519 0.5895 0.6874
C33 C 0.5364(3) 0.6013(3) 0.64580(14)
C34 C 0.5542(4) 0.5807(3) 0.62064(12)
H19 H 0.5358 0.5978 0.6040
C35 C 0.5994(4) 0.5346(3) 0.62028(11)
H20 H 0.6113 0.5208 0.6034
C36 C 0.4907(4) 0.6566(3) 0.64808(14)
C37 C 0.4790(4) 0.6820(3) 0.67315(11)
H21 H 0.4993 0.6666 0.6898
C38 C 0.4370(3) 0.7304(3) 0.67329(10)
H22 H 0.4292 0.7474 0.6901
C39 C 0.4066(3) 0.7534(2) 0.64835(12)
C40 C 0.4183(4) 0.7280(3) 0.62328(10)
H23 H 0.3980 0.7433 0.6066
C41 C 0.4603(4) 0.6796(3) 0.62315(11)
H24 H 0.4681 0.6626 0.6064
C42 C 0.3580(3) 0.8031(3) 0.64847(16)
C43 C 0.8578(3) 0.4668(3) 0.64716(16)
C44 C 0.9066(3) 0.5194(2) 0.64773(13)
C45 C 0.9370(3) 0.5423(3) 0.67267(10)
H25 H 0.9281 0.5260 0.6895
C46 C 0.9808(3) 0.5895(3) 0.67252(10)
C47 C 0.9942(3) 0.6138(2) 0.64743(12)
C48 C 0.9637(4) 0.5908(3) 0.62248(10)
H27 H 0.9727 0.6071 0.6057
C49 C 0.9200(4) 0.5437(3) 0.62263(11)
H28 H 0.8996 0.5283 0.6059
C62 C 0.7462(3) 0.5113(3) 0.98602(8)
C63 C 0.7589(4) 0.5593(2) 0.96992(12)
C64 C 0.7597(4) 0.5531(2) 0.94140(12)
H37 H 0.7682 0.5853 0.9306
C65 C 0.7479(4) 0.4989(3) 0.92898(8)
C66 C 0.7352(4) 0.4509(2) 0.94508(10)
H38 H 0.7273 0.4147 0.9368
C67 C 0.7344(4) 0.4571(2) 0.97360(10)
C68 C 0.7805(7) 0.6139(5) 0.9858(2)
H39 H 0.7884 0.6443 0.9730
H40 H 0.8214 0.6064 0.9978
H41 H 0.7455 0.6257 0.9967
C69 C 0.7366(12) 0.4026(6) 0.9913(3)
H42 H 0.7269 0.3693 0.9795
N2 N 0.7475(4) 0.4847(3) 0.90124(13)
H45 H 0.7341 0.4513 0.8947
C70 C 0.7717(5) 0.5313(4) 0.88371(17)
H46 H 0.8136 0.5483 0.8924
H47 H 0.7380 0.5617 0.8800
C71 C 0.7831(4) 0.4985(3) 0.85686(8)
C72 C 0.7438(3) 0.5269(2) 0.83533(12)
H48 H 0.7173 0.5586 0.8391
C73 C 0.7443(3) 0.5079(2) 0.80809(10)
C74 C 0.7840(3) 0.4605(2) 0.80238(8)
C75 C 0.8232(3) 0.4321(2) 0.82392(12)
C76 C 0.8227(3) 0.4511(3) 0.85115(10)
H49 H 0.8490 0.4321 0.8656
C77 C 0.6984(7) 0.5384(7) 0.7850(3)
H50 H 0.6740 0.5691 0.7928
H51 H 0.6670 0.5108 0.7759
H52 H 0.7256 0.5544 0.7717
C78 C 0.8616(5) 0.3779(4) 0.81945(19)
H53 H 0.8843 0.3647 0.8369
H54 H 0.8945 0.3857 0.8069
H55 H 0.8309 0.3484 0.8117
C79 C 0.7829(3) 0.4388(2) 0.77356(8)
C80 C 0.8322(3) 0.4594(3) 0.75787(11)
H56 H 0.8653 0.4850 0.7657
C81 C 0.8322(3) 0.4416(3) 0.73042(10)
H57 H 0.8652 0.4554 0.7199
N3 N 0.7828(3) 0.4033(2) 0.71866(8)
C82 C 0.7334(3) 0.3827(3) 0.73435(10)
H58 H 0.7004 0.3571 0.7265
C83 C 0.7335(3) 0.4005(3) 0.76180(10)
H59 H 0.7005 0.3867 0.7723
N4 N 0.7547(3) 0.3818(2) 0.57442(8)
C84 C 0.6925(2) 0.3736(3) 0.55864(11)
H60 H 0.6538 0.3675 0.5674
C85 C 0.6880(2) 0.3744(4) 0.52978(10)
H61 H 0.6464 0.3689 0.5192
C86 C 0.7458(3) 0.3834(3) 0.51670(8)
C87 C 0.8081(3) 0.3916(3) 0.53249(10)
H62 H 0.8468 0.3977 0.5237
C88 C 0.8126(2) 0.3908(3) 0.56134(10)
H63 H 0.8542 0.3963 0.5719
C89 C 0.7405(6) 0.3897(5) 0.48712(18)
C90 C 0.7567(6) 0.3424(4) 0.4712(2)
C91 C 0.7557(6) 0.3481(6) 0.4426(2)
H64 H 0.7665 0.3164 0.4320
C92 C 0.7386(8) 0.4012(8) 0.4299(2)
C93 C 0.7225(11) 0.4485(6) 0.4458(3)
H65 H 0.7111 0.4840 0.4372
C94 C 0.7234(10) 0.4428(5) 0.4744(3)
C95 C 0.746(2) 0.2815(9) 0.4822(6)
H66 H 0.7367 0.2838 0.5011
H67 H 0.7862 0.2588 0.4811
H68 H 0.7085 0.2635 0.4711
C96 C 0.7066(16) 0.4951(10) 0.4910(5)
H69 H 0.7016 0.5286 0.4790
H70 H 0.7424 0.5019 0.5057
H71 H 0.6650 0.4883 0.4987
N5 N 0.7428(9) 0.3857(8) 0.3986(3)
H72 H 0.7103 0.3653 0.3903
C97 C 0.7815(11) 0.3979(11) 0.3871(4)
H73 H 0.8191 0.3717 0.3923
H74 H 0.7961 0.4364 0.3935
C98 C 0.7718(5) 0.4002(4) 0.35491(12)
C99 C 0.7380(4) 0.3717(3) 0.33207(17)
H75 H 0.7139 0.3378 0.3346
C100 C 0.7401(4) 0.3940(3) 0.30549(14)
C101 C 0.7762(4) 0.4447(3) 0.30175(10)
C102 C 0.8100(4) 0.4732(3) 0.32459(13)
C103 C 0.8079(4) 0.4510(4) 0.35117(11)
H76 H 0.8305 0.4700 0.3665
C104 C 0.7097(8) 0.3545(6) 0.2827(3)
H77 H 0.6903 0.3211 0.2907
H78 H 0.7443 0.3421 0.2717
H79 H 0.6751 0.3751 0.2711
C105 C 0.8478(17) 0.5303(10) 0.3229(8)
H80 H 0.8459 0.5422 0.3038
H81 H 0.8943 0.5252 0.3304
H82 H 0.8273 0.5596 0.3333
C106 C 0.7760(3) 0.4663(3) 0.27281(7)
C107 C 0.8342(2) 0.4639(3) 0.25945(10)
H83 H 0.8744 0.4500 0.2689
C108 C 0.83225(18) 0.4821(2) 0.23200(9)
H84 H 0.8712 0.4805 0.2231
C109 C 0.71389(18) 0.5053(2) 0.23128(9)
H85 H 0.6736 0.5192 0.2219
C110 C 0.7158(2) 0.4871(3) 0.25873(9)
H86 H 0.6769 0.4887 0.2677
O21 O 0.8487(3) 0.3243(3) 0.67288(14)
O22 O 0.8312(3) 0.3232(3) 0.62629(15)
O23 O 0.7111(3) 0.3203(2) 0.67068(15)
O24 O 0.6907(3) 0.3269(3) 0.62593(12)
O1_2 O 0.1967(2) 0.0820(2) 0.17002(11)
O2_2 O 0.1756(2) 0.0750(2) 0.12309(11)
O5_2 O 0.3394(2) 0.0737(2) 0.17229(10)
O6_2 O 0.3178(2) 0.0818(2) 0.12600(11)
C1_2 C 0.1689(4) 0.0993(3) 0.14812(17)
C2_2 C 0.1219(2) 0.14994(17) 0.14621(9)
C3_2 C 0.1139(3) 0.1788(2) 0.17087(8)
H1_2 H 0.1380 0.1666 0.1875
C4_2 C 0.0697(3) 0.2257(2) 0.17073(8)
H2_2 H 0.0644 0.2450 0.1872
C5_2 C 0.0336(2) 0.24393(17) 0.14593(9)
C6_2 C 0.0416(2) 0.2151(2) 0.12128(8)
H3_2 H 0.0174 0.2273 0.1047
C7_2 C 0.0857(2) 0.1681(2) 0.12141(8)
H4_2 H 0.0911 0.1488 0.1049
C15_2 C 0.3442(3) 0.0954(2) 0.14904(15)
C16_2 C 0.39267(18) 0.14956(14) 0.14918(8)
C17_2 C 0.39793(19) 0.17679(16) 0.12388(7)
H9_2 H 0.3733 0.1628 0.1077
C18_2 C 0.4399(2) 0.22492(16) 0.12272(7)
H10_2 H 0.4434 0.2431 0.1058
C19_2 C 0.4767(2) 0.24583(16) 0.14685(8)
C20_2 C 0.4714(2) 0.21860(19) 0.17215(7)
H11_2 H 0.4960 0.2326 0.1883
C21_2 C 0.4294(2) 0.17046(18) 0.17332(6)
H12_2 H 0.4259 0.1522 0.1902
C22_2 C 0.5243(2) 0.29612(17) 0.14621(9)
C23_2 C 0.5548(3) 0.3067(2) 0.12229(8)
H13_2 H 0.5448 0.2831 0.1067
C24_2 C 0.6004(3) 0.3524(2) 0.12160(8)
H14_2 H 0.6209 0.3595 0.1056
C25_2 C 0.6154(2) 0.38766(17) 0.14485(9)
C26_2 C 0.5849(2) 0.3771(2) 0.16878(8)
H15_2 H 0.5949 0.4006 0.1843
C27_2 C 0.5393(2) 0.3313(2) 0.16946(8)
H16_2 H 0.5189 0.3243 0.1855
C28_2 C 0.6647(3) 0.4354(3) 0.14372(16)
N1_2 N 0.24725(17) 0.01908(18) 0.07473(5)
C57_2 C 0.18692(15) 0.0098(2) 0.05772(7)
H33_2 H 0.1467 0.0051 0.0655
C58_2 C 0.18676(18) 0.0075(3) 0.02903(7)
H34_2 H 0.1464 0.0013 0.0177
C59_2 C 0.2469(2) 0.0145(3) 0.01734(5)
C60_2 C 0.30726(18) 0.0238(2) 0.03434(8)
H35_2 H 0.3475 0.0285 0.0265
C61_2 C 0.30742(15) 0.0261(2) 0.06303(7)
H36_2 H 0.3478 0.0323 0.0744
N7_2 N 0.2721(2) 0.00286(18) 0.21791(7)
C30_2 C 0.1269(3) 0.0091(2) 0.64508(14)
C31_2 C 0.1091(4) 0.0297(3) 0.67025(11)
H17_2 H 0.1275 0.0126 0.6868
C32_2 C 0.0638(4) 0.0757(3) 0.67060(12)
H18_2 H 0.0519 0.0895 0.6874
C33_2 C 0.0364(3) 0.1013(3) 0.64580(14)
C34_2 C 0.0542(4) 0.0807(3) 0.62064(12)
H19_2 H 0.0358 0.0978 0.6040
C35_2 C 0.0994(4) 0.0346(3) 0.62028(11)
H20_2 H 0.1113 0.0208 0.6034
C44_2 C 0.4066(3) 0.0194(2) 0.64773(13)
C45_2 C 0.4370(3) 0.0423(3) 0.67267(10)
H25_2 H 0.4281 0.0260 0.6895
C46_2 C 0.4808(3) 0.0895(3) 0.67252(10)
H26_2 H 0.5012 0.1048 0.6892
C47_2 C 0.4942(3) 0.1138(2) 0.64743(12)
C48_2 C 0.4637(4) 0.0908(3) 0.62248(10)
H27_2 H 0.4727 0.1071 0.6057
C49_2 C 0.4200(4) 0.0437(3) 0.62263(11)
H28_2 H 0.3996 0.0283 0.6059
C50_2 C 0.5418(3) 0.1636(2) 0.64843(9)
C51_2 C 0.5669(3) 0.1903(2) 0.67325(8)
H29_2 H 0.5539 0.1770 0.6900
C52_2 C 0.6112(3) 0.2371(2) 0.67306(9)
H30_2 H 0.6280 0.2550 0.6897
C53_2 C 0.6306(3) 0.2571(2) 0.64805(10)
C54_2 C 0.6055(3) 0.2303(2) 0.62323(9)
H31_2 H 0.6185 0.2437 0.6065
C55_2 C 0.5612(3) 0.1835(2) 0.62342(8)
H32_2 H 0.5444 0.1656 0.6068
C56_2 C 0.6770(3) 0.3066(3) 0.64739(18)
C62_2 C 0.2462(3) 0.0113(3) 0.98602(8)
C63_2 C 0.2589(4) 0.0593(2) 0.96992(12)
C64_2 C 0.2597(4) 0.0531(2) 0.94140(12)
H37_2 H 0.2682 0.0853 0.9306
C68_2 C 0.2805(7) 0.1139(5) 0.9858(2)
H39_2 H 0.2884 0.1443 0.9730
H40_2 H 0.3214 0.1064 0.9978
H41_2 H 0.2455 0.1257 0.9967
C70_2 C 0.2717(5) 0.0313(4) 0.88371(17)
H46_2 H 0.3136 0.0483 0.8924
H47_2 H 0.2380 0.0617 0.8800
C72_2 C 0.2438(3) 0.0269(2) 0.83533(12)
H48_2 H 0.2173 0.0586 0.8391
C73_2 C 0.2443(3) 0.0079(2) 0.80809(10)
C77_2 C 0.1984(7) 0.0384(7) 0.7850(3)
H50_2 H 0.1740 0.0691 0.7928
H51_2 H 0.1670 0.0108 0.7759
H52_2 H 0.2256 0.0544 0.7717
H69_2 H 0.2016 0.0286 0.4790
H70_2 H 0.2424 0.0019 0.5057
C105_2 C 0.3478(17) 0.0303(10) 0.3229(8)
H80_2 H 0.3459 0.0422 0.3038
H81_2 H 0.3943 0.0252 0.3304
H82_2 H 0.3273 0.0596 0.3333
C109_2 C 0.21389(18) 0.0053(2) 0.23128(9)
H85_2 H 0.1736 0.0192 0.2219
H43_2 H 0.2034 0.9055 0.0041
H44_2 H 0.2808 0.8986 0.0014
O9_2 O 0.2035(3) 0.9444(3) 0.66591(15)
O10_2 O 0.1902(3) 0.9479(3) 0.62076(15)
O13_2 O 0.3471(3) 0.9465(2) 0.67099(14)
O14_2 O 0.3358(3) 0.9440(2) 0.62402(13)
C29_2 C 0.1790(4) 0.9629(3) 0.64287(19)
C43_2 C 0.3578(3) 0.9668(3) 0.64716(16)
C65_2 C 0.2479(4) 0.9989(3) 0.92898(8)
C66_2 C 0.2352(4) 0.9509(2) 0.94508(10)
H38_2 H 0.2273 0.9147 0.9368
C67_2 C 0.2344(4) 0.9571(2) 0.97360(10)
C69_2 C 0.2366(12) 0.9026(6) 0.9913(3)
H42_2 H 0.2269 0.8693 0.9795
N2_2 N 0.2475(4) 0.9847(3) 0.90124(13)
H45_2 H 0.2341 0.9513 0.8947
C71_2 C 0.2831(4) 0.9985(3) 0.85686(8)
C74_2 C 0.2840(3) 0.9605(2) 0.80238(8)
C75_2 C 0.3232(3) 0.9321(2) 0.82392(12)
C76_2 C 0.3227(3) 0.9511(3) 0.85115(10)
H49_2 H 0.3490 0.9321 0.8656
C78_2 C 0.3616(5) 0.8779(4) 0.81945(19)
H53_2 H 0.3843 0.8647 0.8369
H54_2 H 0.3945 0.8857 0.8069
H55_2 H 0.3309 0.8484 0.8117
C79_2 C 0.2829(3) 0.9388(2) 0.77356(8)
C80_2 C 0.3322(3) 0.9594(3) 0.75787(11)
H56_2 H 0.3653 0.9850 0.7657
C81_2 C 0.3322(3) 0.9416(3) 0.73042(10)
H57_2 H 0.3652 0.9554 0.7199
N3_2 N 0.2828(3) 0.9033(2) 0.71866(8)
C82_2 C 0.2334(3) 0.8827(3) 0.73435(10)
H58_2 H 0.2004 0.8571 0.7265
C83_2 C 0.2335(3) 0.9005(3) 0.76180(10)
H59_2 H 0.2005 0.8867 0.7723
N4_2 N 0.2547(3) 0.8818(2) 0.57442(8)
C84_2 C 0.1925(2) 0.8736(3) 0.55864(11)
H60_2 H 0.1538 0.8675 0.5674
C85_2 C 0.1880(2) 0.8744(4) 0.52978(10)
H61_2 H 0.1464 0.8689 0.5192
C86_2 C 0.2458(3) 0.8834(3) 0.51670(8)
C87_2 C 0.3081(3) 0.8916(3) 0.53249(10)
H62_2 H 0.3468 0.8977 0.5237
C88_2 C 0.3126(2) 0.8908(3) 0.56134(10)
H63_2 H 0.3542 0.8963 0.5719
C89_2 C 0.2405(6) 0.8897(5) 0.48712(18)
C90_2 C 0.2567(6) 0.8424(4) 0.4712(2)
C91_2 C 0.2557(6) 0.8481(6) 0.4426(2)
H64_2 H 0.2665 0.8164 0.4320
C92_2 C 0.2386(8) 0.9012(8) 0.4299(2)
C93_2 C 0.2225(11) 0.9485(6) 0.4458(3)
H65_2 H 0.2111 0.9840 0.4372
C94_2 C 0.2234(10) 0.9428(5) 0.4744(3)
C95_2 C 0.246(2) 0.7815(9) 0.4822(6)
H66_2 H 0.2367 0.7838 0.5011
H67_2 H 0.2862 0.7588 0.4811
H68_2 H 0.2085 0.7635 0.4711
C96_2 C 0.2066(16) 0.9951(10) 0.4910(5)
H71_2 H 0.1650 0.9883 0.4987
N5_2 N 0.2428(9) 0.8857(8) 0.3986(3)
H72_2 H 0.2103 0.8653 0.3903
C97_2 C 0.2815(11) 0.8979(11) 0.3871(4)
H73_2 H 0.3191 0.8717 0.3923
H74_2 H 0.2961 0.9364 0.3935
C98_2 C 0.2718(5) 0.9002(4) 0.35491(12)
C99_2 C 0.2380(4) 0.8717(3) 0.33207(17)
H75_2 H 0.2139 0.8378 0.3346
C100_2 C 0.2401(4) 0.8940(3) 0.30549(14)
C101_2 C 0.2762(4) 0.9447(3) 0.30175(10)
C102_2 C 0.3100(4) 0.9732(3) 0.32459(13)
C103_2 C 0.3079(4) 0.9510(4) 0.35117(11)
H76_2 H 0.3305 0.9700 0.3665
C104_2 C 0.2097(8) 0.8545(6) 0.2827(3)
H77_2 H 0.1903 0.8211 0.2907
H78_2 H 0.2443 0.8421 0.2717
H79_2 H 0.1751 0.8751 0.2711
C106_2 C 0.2760(3) 0.9663(3) 0.27281(7)
C107_2 C 0.3342(2) 0.9639(3) 0.25945(10)
H83_2 H 0.3744 0.9500 0.2689
C108_2 C 0.33225(18) 0.9821(2) 0.23200(9)
H84_2 H 0.3712 0.9805 0.2231
C110_2 C 0.2158(2) 0.9871(3) 0.25873(9)
H86_2 H 0.1769 0.9887 0.2677
C8_2 C 0.9831(2) 0.29295(18) 0.14630(10)
C9_2 C 0.9570(3) 0.3088(2) 0.17065(8)
H5_2 H 0.9691 0.2879 0.1869
C10_2 C 0.9128(3) 0.3557(2) 0.17065(8)
H6_2 H 0.8953 0.3663 0.1869
C11_2 C 0.8947(2) 0.38681(17) 0.14630(9)
C12_2 C 0.9208(3) 0.3710(2) 0.12195(8)
H7_2 H 0.9087 0.3918 0.1057
C13_2 C 0.9650(3) 0.3241(2) 0.12195(8)
H8_2 H 0.9825 0.3135 0.1057
C14_2 C 0.8449(3) 0.4345(2) 0.14560(13)
C36_2 C 0.9907(4) 0.1566(3) 0.64808(14)
C37_2 C 0.9790(4) 0.1820(3) 0.67315(11)
H21_2 H 0.9993 0.1666 0.6898
C38_2 C 0.9370(3) 0.2304(3) 0.67329(10)
H22_2 H 0.9292 0.2474 0.6901
C39_2 C 0.9066(3) 0.2534(2) 0.64835(12)
C40_2 C 0.9183(4) 0.2280(3) 0.62328(10)
H23_2 H 0.8980 0.2433 0.6066
C41_2 C 0.9603(4) 0.1796(3) 0.62315(11)
H24_2 H 0.9681 0.1626 0.6064
C42_2 C 0.8580(3) 0.3031(3) 0.64847(16)
Zn6 Zn 0.73559(3) 0.01625(3) 0.82323(1)
Zn8 Zn 0.75178(3) 0.01661(3) 0.883794(12)
Zn3_2 Zn 0.22277(4) 0.38526(3) 0.322668(16)
Zn4_2 Zn 0.23957(3) 0.38548(3) 0.383087(16)
O9_3 O 0.2965(3) 0.4444(3) 0.33409(15)
O10_3 O 0.3098(3) 0.4479(3) 0.37924(15)
O11_2 O 0.6513(3) 0.8243(3) 0.32712(14)
O12_2 O 0.6688(3) 0.8232(3) 0.37371(15)
O13_3 O 0.1529(3) 0.4465(2) 0.32901(14)
O14_3 O 0.1642(3) 0.4440(2) 0.37598(13)
C29_3 C 0.3210(4) 0.4629(3) 0.35713(19)
C30_3 C 0.3731(3) 0.5091(2) 0.35492(14)
C31_3 C 0.3909(4) 0.5297(3) 0.32975(11)
H17_3 H 0.3725 0.5126 0.3132
C32_3 C 0.4362(4) 0.5757(3) 0.32940(12)
H18_3 H 0.4481 0.5895 0.3126
C33_3 C 0.4636(3) 0.6013(3) 0.35420(14)
C34_3 C 0.4458(4) 0.5807(3) 0.37936(12)
H19_3 H 0.4642 0.5978 0.3960
C35_3 C 0.4006(4) 0.5346(3) 0.37972(11)
H20_3 H 0.3887 0.5208 0.3966
C36_3 C 0.5093(4) 0.6566(3) 0.35192(14)
C37_3 C 0.5210(4) 0.6820(3) 0.32685(11)
H21_3 H 0.5007 0.6666 0.3102
C38_3 C 0.5630(3) 0.7304(3) 0.32671(10)
H22_3 H 0.5708 0.7474 0.3099
C39_3 C 0.5934(3) 0.7534(2) 0.35165(12)
C40_3 C 0.5817(4) 0.7280(3) 0.37672(10)
H23_3 H 0.6020 0.7433 0.3934
C41_3 C 0.5397(4) 0.6796(3) 0.37685(11)
H24_3 H 0.5319 0.6626 0.3936
C42_3 C 0.6420(3) 0.8031(3) 0.35153(16)
C43_3 C 0.1422(3) 0.4668(3) 0.35284(16)
C44_3 C 0.0934(3) 0.5194(2) 0.35227(13)
C45_3 C 0.0630(3) 0.5423(3) 0.32733(10)
H25_3 H 0.0719 0.5260 0.3105
C46_3 C 0.0192(3) 0.5895(3) 0.32748(10)
C47_3 C 0.0058(3) 0.6138(2) 0.35257(12)
C48_3 C 0.0363(4) 0.5908(3) 0.37752(10)
H27_3 H 0.0273 0.6071 0.3943
C49_3 C 0.0800(4) 0.5437(3) 0.37737(11)
H28_3 H 0.1004 0.5283 0.3941
C62_3 C 0.2538(3) 0.5113(3) 0.01398(8)
C63_3 C 0.2411(4) 0.5593(2) 0.03008(12)
C64_3 C 0.2403(4) 0.5531(2) 0.05860(12)
H37_3 H 0.2318 0.5853 0.0694
C65_3 C 0.2521(4) 0.4989(3) 0.07102(8)
C66_3 C 0.2648(4) 0.4509(2) 0.05492(10)
H38_3 H 0.2727 0.4147 0.0632
C67_3 C 0.2656(4) 0.4571(2) 0.02640(10)
C68_3 C 0.2195(7) 0.6139(5) 0.0142(2)
H39_3 H 0.2116 0.6443 0.0270
H40_3 H 0.1786 0.6064 0.0022
H41_3 H 0.2545 0.6257 0.0033
C69_3 C 0.2634(12) 0.4026(6) 0.0087(3)
H42_3 H 0.2731 0.3693 0.0205
N2_3 N 0.2525(4) 0.4847(3) 0.09876(13)
H45_3 H 0.2659 0.4513 0.1053
C70_3 C 0.2283(5) 0.5313(4) 0.11629(17)
H46_3 H 0.1864 0.5483 0.1076
H47_3 H 0.2620 0.5617 0.1200
C71_3 C 0.2169(4) 0.4985(3) 0.14314(8)
C72_3 C 0.2562(3) 0.5269(2) 0.16467(12)
H48_3 H 0.2827 0.5586 0.1609
C73_3 C 0.2557(3) 0.5079(2) 0.19191(10)
C74_3 C 0.2160(3) 0.4605(2) 0.19762(8)
C75_3 C 0.1768(3) 0.4321(2) 0.17608(12)
C76_3 C 0.1773(3) 0.4511(3) 0.14885(10)
H49_3 H 0.1510 0.4321 0.1344
C77_3 C 0.3016(7) 0.5384(7) 0.2150(3)
H50_3 H 0.3260 0.5691 0.2072
H51_3 H 0.3330 0.5108 0.2241
H52_3 H 0.2744 0.5544 0.2283
C78_3 C 0.1384(5) 0.3779(4) 0.18055(19)
H53_3 H 0.1157 0.3647 0.1631
H54_3 H 0.1055 0.3857 0.1931
H55_3 H 0.1691 0.3484 0.1883
C79_3 C 0.2171(3) 0.4388(2) 0.22644(8)
C80_3 C 0.1678(3) 0.4594(3) 0.24213(11)
H56_3 H 0.1347 0.4850 0.2343
C81_3 C 0.1678(3) 0.4416(3) 0.26958(10)
H57_3 H 0.1348 0.4554 0.2801
N3_3 N 0.2172(3) 0.4033(2) 0.28134(8)
C82_3 C 0.2666(3) 0.3827(3) 0.26565(10)
H58_3 H 0.2996 0.3571 0.2735
C83_3 C 0.2665(3) 0.4005(3) 0.23820(10)
H59_3 H 0.2995 0.3867 0.2277
N4_3 N 0.2453(3) 0.3818(2) 0.42558(8)
C84_3 C 0.3075(2) 0.3736(3) 0.44136(11)
H60_3 H 0.3462 0.3675 0.4326
C85_3 C 0.3120(2) 0.3744(4) 0.47022(10)
H61_3 H 0.3536 0.3689 0.4808
C86_3 C 0.2542(3) 0.3834(3) 0.48330(8)
C87_3 C 0.1919(3) 0.3916(3) 0.46751(10)
H62_3 H 0.1532 0.3977 0.4763
C88_3 C 0.1874(2) 0.3908(3) 0.43866(10)
H63_3 H 0.1458 0.3963 0.4281
C89_3 C 0.2595(6) 0.3897(5) 0.51288(18)
C90_3 C 0.2433(6) 0.3424(4) 0.5288(2)
C91_3 C 0.2443(6) 0.3481(6) 0.5574(2)
H64_3 H 0.2335 0.3164 0.5680
C92_3 C 0.2614(8) 0.4012(8) 0.5701(2)
C93_3 C 0.2775(11) 0.4485(6) 0.5542(3)
H65_3 H 0.2889 0.4840 0.5628
C94_3 C 0.2766(10) 0.4428(5) 0.5256(3)
C95_3 C 0.254(2) 0.2815(9) 0.5178(6)
H66_3 H 0.2633 0.2838 0.4989
H67_3 H 0.2138 0.2588 0.5189
H68_3 H 0.2915 0.2635 0.5289
C96_3 C 0.2934(16) 0.4951(10) 0.5090(5)
H69_3 H 0.2984 0.5286 0.5210
H70_3 H 0.2576 0.5019 0.4943
H71_3 H 0.3350 0.4883 0.5013
N5_3 N 0.2572(9) 0.3857(8) 0.6014(3)
H72_3 H 0.2897 0.3653 0.6097
C97_3 C 0.2185(11) 0.3979(11) 0.6129(4)
H73_3 H 0.1809 0.3717 0.6077
H74_3 H 0.2039 0.4364 0.6065
C98_3 C 0.2282(5) 0.4002(4) 0.64509(12)
C99_3 C 0.2620(4) 0.3717(3) 0.66793(17)
H75_3 H 0.2861 0.3378 0.6654
C100_3 C 0.2599(4) 0.3940(3) 0.69451(14)
C101_3 C 0.2238(4) 0.4447(3) 0.69825(10)
C102_3 C 0.1900(4) 0.4732(3) 0.67541(13)
C103_3 C 0.1921(4) 0.4510(4) 0.64883(11)
H76_3 H 0.1695 0.4700 0.6335
C104_3 C 0.2903(8) 0.3545(6) 0.7173(3)
H77_3 H 0.3097 0.3211 0.7093
H78_3 H 0.2557 0.3421 0.7283
H79_3 H 0.3249 0.3751 0.7289
C105_3 C 0.1522(17) 0.5303(10) 0.6771(8)
H80_3 H 0.1541 0.5422 0.6962
H81_3 H 0.1057 0.5252 0.6696
H82_3 H 0.1727 0.5596 0.6667
C106_3 C 0.2240(3) 0.4663(3) 0.72719(7)
C107_3 C 0.1658(2) 0.4639(3) 0.74055(10)
H83_3 H 0.1256 0.4500 0.7311
C108_3 C 0.16775(18) 0.4821(2) 0.76800(9)
H84_3 H 0.1288 0.4805 0.7769
N6 N 0.2279(2) 0.50286(18) 0.78209(7)
C109_3 C 0.28611(18) 0.5053(2) 0.76872(9)
H85_3 H 0.3264 0.5192 0.7781
C110_3 C 0.2842(2) 0.4871(3) 0.74127(9)
H86_3 H 0.3231 0.4887 0.7323
Zn5 Zn 0.23559(3) 0.51625(3) 0.82323(1)
Zn10 Zn 0.72277(4) 0.88526(3) 0.322668(16)
Zn12 Zn 0.73957(3) 0.88548(3) 0.383087(16)
O21_2 O 0.1513(3) 0.3243(3) 0.32712(14)
O22_2 O 0.1688(3) 0.3232(3) 0.37371(15)
O23_2 O 0.2889(3) 0.3203(2) 0.32932(15)
O24_2 O 0.3093(3) 0.3269(3) 0.37407(12)
Zn2_2 Zn 0.25178(3) 0.51661(3) 0.883794(12)
O1_3 O 0.3033(2) 0.5820(2) 0.82998(11)
O2_3 O 0.3244(2) 0.5750(2) 0.87691(11)
O3_2 O 0.6732(2) 0.95174(19) 0.83127(10)
O4_2 O 0.6747(3) 0.9573(2) 0.87770(12)
O5_3 O 0.1606(2) 0.5737(2) 0.82771(10)
O6_3 O 0.1822(2) 0.5818(2) 0.87400(11)
C1_3 C 0.3311(4) 0.5993(3) 0.85188(17)
C2_3 C 0.3781(2) 0.64994(17) 0.85379(9)
C3_3 C 0.3861(3) 0.6788(2) 0.82913(8)
H1_3 H 0.3620 0.6666 0.8125
C4_3 C 0.4303(3) 0.7257(2) 0.82927(8)
H2_3 H 0.4356 0.7450 0.8128
C5_3 C 0.4664(2) 0.74393(17) 0.85407(9)
C6_3 C 0.4584(2) 0.7151(2) 0.87872(8)
H3_3 H 0.4826 0.7273 0.8953
C7_3 C 0.4143(2) 0.6681(2) 0.87859(8)
H4_3 H 0.4089 0.6488 0.8951
C8_3 C 0.5169(2) 0.79295(18) 0.85370(10)
C9_3 C 0.5430(3) 0.8088(2) 0.82935(8)
H5_3 H 0.5309 0.7879 0.8131
C10_3 C 0.5872(3) 0.8557(2) 0.82935(8)
H6_3 H 0.6047 0.8663 0.8131
C11_3 C 0.6053(2) 0.88681(17) 0.85370(9)
C12_3 C 0.5792(3) 0.8710(2) 0.87805(8)
H7_3 H 0.5913 0.8918 0.8943
C13_3 C 0.5350(3) 0.8241(2) 0.87805(8)
H8_3 H 0.5175 0.8135 0.8943
C14_3 C 0.6551(3) 0.9345(2) 0.85440(13)
C15_3 C 0.1558(3) 0.5954(2) 0.85096(15)
C16_3 C 0.10733(18) 0.64956(14) 0.85082(8)
C17_3 C 0.10207(19) 0.67679(16) 0.87612(7)
H9_3 H 0.1267 0.6628 0.8923
C18_3 C 0.0601(2) 0.72492(16) 0.87728(7)
H10_3 H 0.0566 0.7431 0.8942
C19_3 C 0.0233(2) 0.74583(16) 0.85315(8)
C20_3 C 0.0286(2) 0.71860(19) 0.82785(7)
H11_3 H 0.0040 0.7326 0.8117
C21_3 C 0.0706(2) 0.67046(18) 0.82668(6)
H12_3 H 0.0741 0.6522 0.8098
N1_3 N 0.25275(17) 0.51908(18) 0.92527(5)
C57_3 C 0.31308(15) 0.5098(2) 0.94228(7)
H33_3 H 0.3533 0.5051 0.9345
C58_3 C 0.31324(18) 0.5075(3) 0.97097(7)
H34_3 H 0.3536 0.5013 0.9823
C59_3 C 0.2531(2) 0.5145(3) 0.98266(5)
C60_3 C 0.19274(18) 0.5238(2) 0.96566(8)
H35_3 H 0.1525 0.5285 0.9735
C61_3 C 0.19258(15) 0.5261(2) 0.93697(7)
H36_3 H 0.1522 0.5323 0.9256
H43_3 H 0.2966 0.4055 0.9959
H44_3 H 0.2192 0.3986 0.9986
O17_2 O 0.1732(2) 0.45174(19) 0.83127(10)
O18_2 O 0.1747(3) 0.4573(2) 0.87770(12)
O19_2 O 0.3152(3) 0.4619(2) 0.83372(11)
O20_2 O 0.3141(3) 0.4501(2) 0.87876(12)
O15_2 O 0.7889(3) 0.8203(2) 0.32932(15)
O16_2 O 0.8093(3) 0.8269(3) 0.37407(12)
H26_3 H 0.9988 0.6048 0.3108
C50_3 C 0.9582(3) 0.6636(2) 0.35157(9)
C51_3 C 0.9331(3) 0.6903(2) 0.32675(8)
H29_3 H 0.9461 0.6770 0.3100
C52_3 C 0.8888(3) 0.7371(2) 0.32694(9)
H30_3 H 0.8720 0.7550 0.3103
C53_3 C 0.8694(3) 0.7571(2) 0.35195(10)
C54_3 C 0.8945(3) 0.7303(2) 0.37677(9)
H31_3 H 0.8815 0.7437 0.3935
C55_3 C 0.9388(3) 0.6835(2) 0.37658(8)
H32_3 H 0.9556 0.6656 0.3932
C56_3 C 0.8230(3) 0.8066(3) 0.35261(18)
O7_2 O 0.8152(3) 0.9619(2) 0.83372(11)
O8_2 O 0.8141(3) 0.9501(2) 0.87876(12)
C22_3 C 0.9757(2) 0.79612(17) 0.85379(9)
C23_3 C 0.9452(3) 0.8067(2) 0.87771(8)
H13_3 H 0.9552 0.7831 0.8933
C24_3 C 0.8996(3) 0.8524(2) 0.87840(8)
H14_3 H 0.8791 0.8595 0.8944
C25_3 C 0.8846(2) 0.88766(17) 0.85515(9)
C26_3 C 0.9151(2) 0.8771(2) 0.83122(8)
H15_3 H 0.9051 0.9006 0.8157
C27_3 C 0.9607(2) 0.8313(2) 0.83054(8)
H16_3 H 0.9811 0.8243 0.8145
C28_3 C 0.8353(3) 0.9354(3) 0.85628(16)
C36_4 C 0.0093(4) 0.1566(3) 0.35192(14)
C37_4 C 0.0210(4) 0.1820(3) 0.32685(11)
H21_4 H 0.0007 0.1666 0.3102
C38_4 C 0.0630(3) 0.2304(3) 0.32671(10)
H22_4 H 0.0708 0.2474 0.3099
C39_4 C 0.0934(3) 0.2534(2) 0.35165(12)
C40_4 C 0.0817(4) 0.2280(3) 0.37672(10)
H23_4 H 0.1020 0.2433 0.3934
C41_4 C 0.0397(4) 0.1796(3) 0.37685(11)
H24_4 H 0.0319 0.1626 0.3936
C42_4 C 0.1420(3) 0.3031(3) 0.35153(16)
C8_4 C 0.0169(2) 0.29295(18) 0.85370(10)
C9_4 C 0.0430(3) 0.3088(2) 0.82935(8)
H5_4 H 0.0309 0.2879 0.8131
C10_4 C 0.0872(3) 0.3557(2) 0.82935(8)
H6_4 H 0.1047 0.3663 0.8131
C11_4 C 0.1053(2) 0.38681(17) 0.85370(9)
C12_4 C 0.0792(3) 0.3710(2) 0.87805(8)
H7_4 H 0.0913 0.3918 0.8943
C13_4 C 0.0350(3) 0.3241(2) 0.87805(8)
H8_4 H 0.0175 0.3135 0.8943
C14_4 C 0.1551(3) 0.4345(2) 0.85440(13)
C30_4 C 0.8731(3) 0.0091(2) 0.35492(14)
C31_4 C 0.8909(4) 0.0297(3) 0.32975(11)
H17_4 H 0.8725 0.0126 0.3132
C32_4 C 0.9362(4) 0.0757(3) 0.32940(12)
H18_4 H 0.9481 0.0895 0.3126
C33_4 C 0.9636(3) 0.1013(3) 0.35420(14)
C34_4 C 0.9458(4) 0.0807(3) 0.37936(12)
H19_4 H 0.9642 0.0978 0.3960
C35_4 C 0.9006(4) 0.0346(3) 0.37972(11)
H20_4 H 0.8887 0.0208 0.3966
C44_4 C 0.5934(3) 0.0194(2) 0.35227(13)
C45_4 C 0.5630(3) 0.0423(3) 0.32733(10)
H25_4 H 0.5719 0.0260 0.3105
C46_4 C 0.5192(3) 0.0895(3) 0.32748(10)
H26_4 H 0.4988 0.1048 0.3108
C47_4 C 0.5058(3) 0.1138(2) 0.35257(12)
C48_4 C 0.5363(4) 0.0908(3) 0.37752(10)
H27_4 H 0.5273 0.1071 0.3943
C49_4 C 0.5800(4) 0.0437(3) 0.37737(11)
H28_4 H 0.6004 0.0283 0.3941
C50_4 C 0.4582(3) 0.1636(2) 0.35157(9)
C51_4 C 0.4331(3) 0.1903(2) 0.32675(8)
H29_4 H 0.4461 0.1770 0.3100
C52_4 C 0.3888(3) 0.2371(2) 0.32694(9)
H30_4 H 0.3720 0.2550 0.3103
C53_4 C 0.3694(3) 0.2571(2) 0.35195(10)
C54_4 C 0.3945(3) 0.2303(2) 0.37677(9)
H31_4 H 0.3815 0.2437 0.3935
C55_4 C 0.4388(3) 0.1835(2) 0.37658(8)
H32_4 H 0.4556 0.1656 0.3932
C56_4 C 0.3230(3) 0.3066(3) 0.35261(18)
C62_4 C 0.7538(3) 0.0113(3) 0.01398(8)
C63_4 C 0.7411(4) 0.0593(2) 0.03008(12)
C64_4 C 0.7403(4) 0.0531(2) 0.05860(12)
H37_4 H 0.7318 0.0853 0.0694
C68_4 C 0.7195(7) 0.1139(5) 0.0142(2)
H39_4 H 0.7116 0.1443 0.0270
H40_4 H 0.6786 0.1064 0.0022
H41_4 H 0.7545 0.1257 0.0033
C70_4 C 0.7283(5) 0.0313(4) 0.11629(17)
H46_4 H 0.6864 0.0483 0.1076
H47_4 H 0.7620 0.0617 0.1200
C72_4 C 0.7562(3) 0.0269(2) 0.16467(12)
H48_4 H 0.7827 0.0586 0.1609
C73_4 C 0.7557(3) 0.0079(2) 0.19191(10)
C77_4 C 0.8016(7) 0.0384(7) 0.2150(3)
H50_4 H 0.8260 0.0691 0.2072
H51_4 H 0.8330 0.0108 0.2241
H52_4 H 0.7744 0.0544 0.2283
H69_4 H 0.7984 0.0286 0.5210
H70_4 H 0.7576 0.0019 0.4943
C105_4 C 0.6522(17) 0.0303(10) 0.6771(8)
H80_4 H 0.6541 0.0422 0.6962
H81_4 H 0.6057 0.0252 0.6696
H82_4 H 0.6727 0.0596 0.6667
N6_2 N 0.7279(2) 0.00286(18) 0.78209(7)
C109_4 C 0.78611(18) 0.0053(2) 0.76872(9)
H85_4 H 0.8264 0.0192 0.7781
O1_4 O 0.8033(2) 0.0820(2) 0.82998(11)
O2_4 O 0.8244(2) 0.0750(2) 0.87691(11)
O5_4 O 0.6606(2) 0.0737(2) 0.82771(10)
O6_4 O 0.6822(2) 0.0818(2) 0.87400(11)
C1_4 C 0.8311(4) 0.0993(3) 0.85188(17)
C2_4 C 0.8781(2) 0.14994(17) 0.85379(9)
C3_4 C 0.8861(3) 0.1788(2) 0.82913(8)
H1_4 H 0.8620 0.1666 0.8125
C4_4 C 0.9303(3) 0.2257(2) 0.82927(8)
H2_4 H 0.9356 0.2450 0.8128
C5_4 C 0.9664(2) 0.24393(17) 0.85407(9)
C6_4 C 0.9584(2) 0.2151(2) 0.87872(8)
H3_4 H 0.9826 0.2273 0.8953
C7_4 C 0.9143(2) 0.1681(2) 0.87859(8)
H4_4 H 0.9089 0.1488 0.8951
C15_4 C 0.6558(3) 0.0954(2) 0.85096(15)
C16_4 C 0.60733(18) 0.14956(14) 0.85082(8)
C17_4 C 0.60207(19) 0.17679(16) 0.87612(7)
H9_4 H 0.6267 0.1628 0.8923
C18_4 C 0.5601(2) 0.22492(16) 0.87728(7)
H10_4 H 0.5566 0.2431 0.8942
C19_4 C 0.5233(2) 0.24583(16) 0.85315(8)
C20_4 C 0.5286(2) 0.21860(19) 0.82785(7)
H11_4 H 0.5040 0.2326 0.8117
C21_4 C 0.5706(2) 0.17046(18) 0.82668(6)
H12_4 H 0.5741 0.1522 0.8098
C22_4 C 0.4757(2) 0.29612(17) 0.85379(9)
C23_4 C 0.4452(3) 0.3067(2) 0.87771(8)
H13_4 H 0.4552 0.2831 0.8933
C24_4 C 0.3996(3) 0.3524(2) 0.87840(8)
H14_4 H 0.3791 0.3595 0.8944
C25_4 C 0.3846(2) 0.38766(17) 0.85515(9)
C26_4 C 0.4151(2) 0.3771(2) 0.83122(8)
H15_4 H 0.4051 0.4006 0.8157
C27_4 C 0.4607(2) 0.3313(2) 0.83054(8)
H16_4 H 0.4811 0.3243 0.8145
C28_4 C 0.3353(3) 0.4354(3) 0.85628(16)
N1_4 N 0.75275(17) 0.01908(18) 0.92527(5)
C57_4 C 0.81308(15) 0.0098(2) 0.94228(7)
H33_4 H 0.8533 0.0051 0.9345
C58_4 C 0.81324(18) 0.0075(3) 0.97097(7)
H34_4 H 0.8536 0.0013 0.9823
C59_4 C 0.7531(2) 0.0145(3) 0.98266(5)
C60_4 C 0.69274(18) 0.0238(2) 0.96566(8)
H35_4 H 0.6525 0.0285 0.9735
C61_4 C 0.69258(15) 0.0261(2) 0.93697(7)
H36_4 H 0.6522 0.0323 0.9256
O9_4 O 0.7965(3) 0.9444(3) 0.33409(15)
O10_4 O 0.8098(3) 0.9479(3) 0.37924(15)
O13_4 O 0.6529(3) 0.9465(2) 0.32901(14)
O14_4 O 0.6642(3) 0.9440(2) 0.37598(13)
C29_4 C 0.8210(4) 0.9629(3) 0.35713(19)
C43_4 C 0.6422(3) 0.9668(3) 0.35284(16)
C65_4 C 0.7521(4) 0.9989(3) 0.07102(8)
C66_4 C 0.7648(4) 0.9509(2) 0.05492(10)
H38_4 H 0.7727 0.9147 0.0632
C67_4 C 0.7656(4) 0.9571(2) 0.02640(10)
C69_4 C 0.7634(12) 0.9026(6) 0.0087(3)
H42_4 H 0.7731 0.8693 0.0205
N2_4 N 0.7525(4) 0.9847(3) 0.09876(13)
H45_4 H 0.7659 0.9513 0.1053
C71_4 C 0.7169(4) 0.9985(3) 0.14314(8)
C74_4 C 0.7160(3) 0.9605(2) 0.19762(8)
C75_4 C 0.6768(3) 0.9321(2) 0.17608(12)
C76_4 C 0.6773(3) 0.9511(3) 0.14885(10)
H49_4 H 0.6510 0.9321 0.1344
C78_4 C 0.6384(5) 0.8779(4) 0.18055(19)
H53_4 H 0.6157 0.8647 0.1631
H54_4 H 0.6055 0.8857 0.1931
H55_4 H 0.6691 0.8484 0.1883
C79_4 C 0.7171(3) 0.9388(2) 0.22644(8)
C80_4 C 0.6678(3) 0.9594(3) 0.24213(11)
H56_4 H 0.6347 0.9850 0.2343
C81_4 C 0.6678(3) 0.9416(3) 0.26958(10)
H57_4 H 0.6348 0.9554 0.2801
N3_4 N 0.7172(3) 0.9033(2) 0.28134(8)
C82_4 C 0.7666(3) 0.8827(3) 0.26565(10)
H58_4 H 0.7996 0.8571 0.2735
C83_4 C 0.7665(3) 0.9005(3) 0.23820(10)
H59_4 H 0.7995 0.8867 0.2277
N4_4 N 0.7453(3) 0.8818(2) 0.42558(8)
C84_4 C 0.8075(2) 0.8736(3) 0.44136(11)
H60_4 H 0.8462 0.8675 0.4326
C85_4 C 0.8120(2) 0.8744(4) 0.47022(10)
H61_4 H 0.8536 0.8689 0.4808
C86_4 C 0.7542(3) 0.8834(3) 0.48330(8)
C87_4 C 0.6919(3) 0.8916(3) 0.46751(10)
H62_4 H 0.6532 0.8977 0.4763
C88_4 C 0.6874(2) 0.8908(3) 0.43866(10)
H63_4 H 0.6458 0.8963 0.4281
C89_4 C 0.7595(6) 0.8897(5) 0.51288(18)
C90_4 C 0.7433(6) 0.8424(4) 0.5288(2)
C91_4 C 0.7443(6) 0.8481(6) 0.5574(2)
H64_4 H 0.7335 0.8164 0.5680
C92_4 C 0.7614(8) 0.9012(8) 0.5701(2)
C93_4 C 0.7775(11) 0.9485(6) 0.5542(3)
H65_4 H 0.7889 0.9840 0.5628
C94_4 C 0.7766(10) 0.9428(5) 0.5256(3)
C95_4 C 0.754(2) 0.7815(9) 0.5178(6)
H66_4 H 0.7633 0.7838 0.4989
H67_4 H 0.7138 0.7588 0.5189
H68_4 H 0.7915 0.7635 0.5289
C96_4 C 0.7934(16) 0.9951(10) 0.5090(5)
H71_4 H 0.8350 0.9883 0.5013
N5_4 N 0.7572(9) 0.8857(8) 0.6014(3)
H72_4 H 0.7897 0.8653 0.6097
C97_4 C 0.7185(11) 0.8979(11) 0.6129(4)
H73_4 H 0.6809 0.8717 0.6077
H74_4 H 0.7039 0.9364 0.6065
C98_4 C 0.7282(5) 0.9002(4) 0.64509(12)
C99_4 C 0.7620(4) 0.8717(3) 0.66793(17)
H75_4 H 0.7861 0.8378 0.6654
C100_4 C 0.7599(4) 0.8940(3) 0.69451(14)
C101_4 C 0.7238(4) 0.9447(3) 0.69825(10)
C102_4 C 0.6900(4) 0.9732(3) 0.67541(13)
C103_4 C 0.6921(4) 0.9510(4) 0.64883(11)
H76_4 H 0.6695 0.9700 0.6335
C104_4 C 0.7903(8) 0.8545(6) 0.7173(3)
H77_4 H 0.8097 0.8211 0.7093
H78_4 H 0.7557 0.8421 0.7283
H79_4 H 0.8249 0.8751 0.7289
C106_4 C 0.7240(3) 0.9663(3) 0.72719(7)
C107_4 C 0.6658(2) 0.9639(3) 0.74055(10)
H83_4 H 0.6256 0.9500 0.7311
C108_4 C 0.66775(18) 0.9821(2) 0.76800(9)
H84_4 H 0.6288 0.9805 0.7769
C110_4 C 0.7842(2) 0.9871(3) 0.74127(9)
H86_4 H 0.8231 0.9887 0.7323
H43_4 H 0.7966 0.9055 0.9959
H44_4 H 0.7192 0.8986 0.9986
loop_
_geom_bond_atom_site_label_1
_geom_bond_atom_site_label_2
_geom_bond_site_symmetry_1
_geom_bond_site_symmetry_2
O7 C28 1_555 1_555
O8 C28 1_555 1_555
C23 C22 1_555 1_555
H13 C23 1_555 1_555
C24 C23 1_555 1_555
H14 C24 1_555 1_555
C25 C24 1_555 1_555
C26 C25 1_555 1_555
H15 C26 1_555 1_555
C27 C22 1_555 1_555
H16 C27 1_555 1_555
C28 C25 1_555 1_555
C26 C27 1_555 1_555
O15 C56 1_555 1_555
O16 C56 1_555 1_555
C51 C50 1_555 1_555
H29 C51 1_555 1_555
C52 C51 1_555 1_555
H30 C52 1_555 1_555
C53 C52 1_555 1_555
C54 C53 1_555 1_555
H31 C54 1_555 1_555
C55 C50 1_555 1_555
H32 C55 1_555 1_555
C56 C53 1_555 1_555
Zn11 O15 1_555 1_555
Zn13 O16 1_555 1_555
C54 C55 1_555 1_555
Zn1 O1 1_555 1_555
Zn2 O2 1_555 1_555
O1 C1 1_555 1_555
O2 C1 1_555 1_555
O3 C14 1_555 1_555
O4 C14 1_555 1_555
O5 Zn1 1_555 1_555
O6 Zn2 1_555 1_555
C1 C2 1_555 1_555
C2 C3 1_555 1_555
C3 H1 1_555 1_555
C4 C3 1_555 1_555
H2 C4 1_555 1_555
C5 C4 1_555 1_555
C6 C5 1_555 1_555
H3 C6 1_555 1_555
C7 C2 1_555 1_555
H4 C7 1_555 1_555
C8 C5 1_555 1_555
C9 C8 1_555 1_555
H5 C9 1_555 1_555
C10 C9 1_555 1_555
H6 C10 1_555 1_555
C11 C10 1_555 1_555
C12 C11 1_555 1_555
H7 C12 1_555 1_555
C13 C8 1_555 1_555
H8 C13 1_555 1_555
C14 C11 1_555 1_555
C15 O5 1_555 1_555
C16 C15 1_555 1_555
C17 C16 1_555 1_555
H9 C17 1_555 1_555
C18 C17 1_555 1_555
H10 C18 1_555 1_555
C19 C18 1_555 1_555
C20 C19 1_555 1_555
H11 C20 1_555 1_555
C21 C16 1_555 1_555
H12 C21 1_555 1_555
N1 Zn2 1_555 1_555
C57 N1 1_555 1_555
H33 C57 1_555 1_555
C58 C57 1_555 1_555
H34 C58 1_555 1_555
C59 C58 1_555 1_555
C60 C59 1_555 1_555
H35 C60 1_555 1_555
C61 N1 1_555 1_555
H36 C61 1_555 1_555
O17 Zn1 1_555 1_555
O18 Zn2 1_555 1_555
O19 Zn1 1_555 1_555
O20 Zn2 1_555 1_555
N7 Zn1 1_555 1_555
O6 C15 1_555 1_555
C6 C7 1_555 1_555
C12 C13 1_555 1_555
C20 C21 1_555 1_555
C60 C61 1_555 1_555
Zn3 O9 1_555 1_555
Zn4 O10 1_555 1_555
O9 C29 1_555 1_555
O10 C29 1_555 1_555
O11 C42 1_555 1_555
O12 C42 1_555 1_555
O13 Zn3 1_555 1_555
O14 Zn4 1_555 1_555
C29 C30 1_555 1_555
C30 C31 1_555 1_555
C31 H17 1_555 1_555
C32 C31 1_555 1_555
H18 C32 1_555 1_555
C33 C32 1_555 1_555
C34 C33 1_555 1_555
H19 C34 1_555 1_555
C35 C30 1_555 1_555
H20 C35 1_555 1_555
C36 C33 1_555 1_555
C37 C36 1_555 1_555
H21 C37 1_555 1_555
C38 C37 1_555 1_555
H22 C38 1_555 1_555
C39 C38 1_555 1_555
C40 C39 1_555 1_555
H23 C40 1_555 1_555
C41 C36 1_555 1_555
H24 C41 1_555 1_555
C42 C39 1_555 1_555
C43 O13 1_555 1_555
C44 C43 1_555 1_555
C45 C44 1_555 1_555
H25 C45 1_555 1_555
C46 C45 1_555 1_555
C47 C46 1_555 1_555
C48 C47 1_555 1_555
H27 C48 1_555 1_555
C49 C44 1_555 1_555
H28 C49 1_555 1_555
C63 C62 1_555 1_555
C64 C63 1_555 1_555
H37 C64 1_555 1_555
C65 C64 1_555 1_555
C66 C65 1_555 1_555
H38 C66 1_555 1_555
C67 C62 1_555 1_555
C68 C63 1_555 1_555
H39 C68 1_555 1_555
H40 C68 1_555 1_555
H41 C68 1_555 1_555
C69 C67 1_555 1_555
H42 C69 1_555 1_555
N2 C65 1_555 1_555
H45 N2 1_555 1_555
C70 N2 1_555 1_555
H46 C70 1_555 1_555
H47 C70 1_555 1_555
C71 C70 1_555 1_555
C72 C71 1_555 1_555
H48 C72 1_555 1_555
C73 C72 1_555 1_555
C74 C73 1_555 1_555
C75 C74 1_555 1_555
C76 C71 1_555 1_555
H49 C76 1_555 1_555
C77 C73 1_555 1_555
H50 C77 1_555 1_555
H51 C77 1_555 1_555
H52 C77 1_555 1_555
C78 C75 1_555 1_555
H53 C78 1_555 1_555
H54 C78 1_555 1_555
H55 C78 1_555 1_555
C79 C74 1_555 1_555
C80 C79 1_555 1_555
H56 C80 1_555 1_555
C81 C80 1_555 1_555
H57 C81 1_555 1_555
N3 Zn3 1_555 1_555
C82 N3 1_555 1_555
H58 C82 1_555 1_555
C83 C79 1_555 1_555
H59 C83 1_555 1_555
N4 Zn4 1_555 1_555
C84 N4 1_555 1_555
H60 C84 1_555 1_555
C85 C84 1_555 1_555
H61 C85 1_555 1_555
C86 C85 1_555 1_555
C87 C86 1_555 1_555
H62 C87 1_555 1_555
C88 N4 1_555 1_555
H63 C88 1_555 1_555
C89 C86 1_555 1_555
C90 C89 1_555 1_555
C91 C90 1_555 1_555
H64 C91 1_555 1_555
C92 C91 1_555 1_555
C93 C92 1_555 1_555
H65 C93 1_555 1_555
C94 C89 1_555 1_555
C95 C90 1_555 1_555
H66 C95 1_555 1_555
H67 C95 1_555 1_555
H68 C95 1_555 1_555
C96 C94 1_555 1_555
H69 C96 1_555 1_555
H70 C96 1_555 1_555
H71 C96 1_555 1_555
N5 C92 1_555 1_555
H72 N5 1_555 1_555
C97 N5 1_555 1_555
H73 C97 1_555 1_555
H74 C97 1_555 1_555
C98 C97 1_555 1_555
C99 C98 1_555 1_555
H75 C99 1_555 1_555
C100 C99 1_555 1_555
C101 C100 1_555 1_555
C102 C101 1_555 1_555
C103 C98 1_555 1_555
H76 C103 1_555 1_555
C104 C100 1_555 1_555
H77 C104 1_555 1_555
H78 C104 1_555 1_555
H79 C104 1_555 1_555
C105 C102 1_555 1_555
H80 C105 1_555 1_555
H81 C105 1_555 1_555
H82 C105 1_555 1_555
C106 C101 1_555 1_555
C107 C106 1_555 1_555
H83 C107 1_555 1_555
C108 C107 1_555 1_555
H84 C108 1_555 1_555
N7 C108 1_555 1_555
C109 N7 1_555 1_555
H85 C109 1_555 1_555
C110 C106 1_555 1_555
H86 C110 1_555 1_555
Zn11 O11 1_555 1_555
Zn13 O12 1_555 1_555
O21 Zn3 1_555 1_555
O22 Zn4 1_555 1_555
O23 Zn3 1_555 1_555
O24 Zn4 1_555 1_555
O14 C43 1_555 1_555
C34 C35 1_555 1_555
C40 C41 1_555 1_555
C48 C49 1_555 1_555
C66 C67 1_555 1_555
C75 C76 1_555 1_555
C81 N3 1_555 1_555
C82 C83 1_555 1_555
C87 C88 1_555 1_555
C93 C94 1_555 1_555
C102 C103 1_555 1_555
C109 C110 1_555 1_555
Zn7 O1_2 1_555 1_555
Zn9 O2_2 1_555 1_555
O1_2 C1_2 1_555 1_555
O2_2 C1_2 1_555 1_555
O5_2 Zn7 1_555 1_555
O6_2 Zn9 1_555 1_555
O19 C28_2 1_555 1_555
O20 C28_2 1_555 1_555
C1_2 C2_2 1_555 1_555
C2_2 C3_2 1_555 1_555
C3_2 H1_2 1_555 1_555
C4_2 C3_2 1_555 1_555
H2_2 C4_2 1_555 1_555
C5_2 C4_2 1_555 1_555
C6_2 C5_2 1_555 1_555
H3_2 C6_2 1_555 1_555
C7_2 C2_2 1_555 1_555
H4_2 C7_2 1_555 1_555
C15_2 O5_2 1_555 1_555
C16_2 C15_2 1_555 1_555
C17_2 C16_2 1_555 1_555
H9_2 C17_2 1_555 1_555
C18_2 C17_2 1_555 1_555
H10_2 C18_2 1_555 1_555
C19_2 C18_2 1_555 1_555
C20_2 C19_2 1_555 1_555
H11_2 C20_2 1_555 1_555
C21_2 C16_2 1_555 1_555
H12_2 C21_2 1_555 1_555
C22_2 C19_2 1_555 1_555
C23_2 C22_2 1_555 1_555
H13_2 C23_2 1_555 1_555
C24_2 C23_2 1_555 1_555
H14_2 C24_2 1_555 1_555
C25_2 C24_2 1_555 1_555
C26_2 C25_2 1_555 1_555
H15_2 C26_2 1_555 1_555
C27_2 C22_2 1_555 1_555
H16_2 C27_2 1_555 1_555
C28_2 C25_2 1_555 1_555
N1_2 Zn9 1_555 1_555
C57_2 N1_2 1_555 1_555
H33_2 C57_2 1_555 1_555
C58_2 C57_2 1_555 1_555
H34_2 C58_2 1_555 1_555
C59_2 C58_2 1_555 1_555
C60_2 C59_2 1_555 1_555
H35_2 C60_2 1_555 1_555
C61_2 N1_2 1_555 1_555
H36_2 C61_2 1_555 1_555
N7_2 Zn7 1_555 1_555
O6_2 C15_2 1_555 1_555
C6_2 C7_2 1_555 1_555
C20_2 C21_2 1_555 1_555
C26_2 C27_2 1_555 1_555
C60_2 C61_2 1_555 1_555
O23 C56_2 1_555 1_555
O24 C56_2 1_555 1_555
C30_2 C31_2 1_555 1_555
C31_2 H17_2 1_555 1_555
C32_2 C31_2 1_555 1_555
H18_2 C32_2 1_555 1_555
C33_2 C32_2 1_555 1_555
C34_2 C33_2 1_555 1_555
H19_2 C34_2 1_555 1_555
C35_2 C30_2 1_555 1_555
H20_2 C35_2 1_555 1_555
C45_2 C44_2 1_555 1_555
H25_2 C45_2 1_555 1_555
C46_2 C45_2 1_555 1_555
H26_2 C46_2 1_555 1_555
C47_2 C46_2 1_555 1_555
C48_2 C47_2 1_555 1_555
H27_2 C48_2 1_555 1_555
C49_2 C44_2 1_555 1_555
H28_2 C49_2 1_555 1_555
C50_2 C47_2 1_555 1_555
C51_2 C50_2 1_555 1_555
H29_2 C51_2 1_555 1_555
C52_2 C51_2 1_555 1_555
H30_2 C52_2 1_555 1_555
C53_2 C52_2 1_555 1_555
C54_2 C53_2 1_555 1_555
H31_2 C54_2 1_555 1_555
C55_2 C50_2 1_555 1_555
H32_2 C55_2 1_555 1_555
C56_2 C53_2 1_555 1_555
C63_2 C62_2 1_555 1_555
C64_2 C63_2 1_555 1_555
H37_2 C64_2 1_555 1_555
C68_2 C63_2 1_555 1_555
H39_2 C68_2 1_555 1_555
H40_2 C68_2 1_555 1_555
H41_2 C68_2 1_555 1_555
H46_2 C70_2 1_555 1_555
H47_2 C70_2 1_555 1_555
H48_2 C72_2 1_555 1_555
C73_2 C72_2 1_555 1_555
C77_2 C73_2 1_555 1_555
H50_2 C77_2 1_555 1_555
H51_2 C77_2 1_555 1_555
H52_2 C77_2 1_555 1_555
H80_2 C105_2 1_555 1_555
H81_2 C105_2 1_555 1_555
H82_2 C105_2 1_555 1_555
C109_2 N7_2 1_555 1_555
H85_2 C109_2 1_555 1_555
C34_2 C35_2 1_555 1_555
C48_2 C49_2 1_555 1_555
C54_2 C55_2 1_555 1_555
Zn11 O9_2 1_555 1_555
Zn13 O10_2 1_555 1_555
O9_2 C29_2 1_555 1_555
O10_2 C29_2 1_555 1_555
O13_2 Zn11 1_555 1_555
O14_2 Zn13 1_555 1_555
C43_2 O13_2 1_555 1_555
C66_2 C65_2 1_555 1_555
H38_2 C66_2 1_555 1_555
C69_2 C67_2 1_555 1_555
H42_2 C69_2 1_555 1_555
N2_2 C65_2 1_555 1_555
H45_2 N2_2 1_555 1_555
C75_2 C74_2 1_555 1_555
C76_2 C71_2 1_555 1_555
H49_2 C76_2 1_555 1_555
C78_2 C75_2 1_555 1_555
H53_2 C78_2 1_555 1_555
H54_2 C78_2 1_555 1_555
H55_2 C78_2 1_555 1_555
C79_2 C74_2 1_555 1_555
C80_2 C79_2 1_555 1_555
H56_2 C80_2 1_555 1_555
C81_2 C80_2 1_555 1_555
H57_2 C81_2 1_555 1_555
N3_2 Zn11 1_555 1_555
C82_2 N3_2 1_555 1_555
H58_2 C82_2 1_555 1_555
C83_2 C79_2 1_555 1_555
H59_2 C83_2 1_555 1_555
N4_2 Zn13 1_555 1_555
C84_2 N4_2 1_555 1_555
H60_2 C84_2 1_555 1_555
C85_2 C84_2 1_555 1_555
H61_2 C85_2 1_555 1_555
C86_2 C85_2 1_555 1_555
C87_2 C86_2 1_555 1_555
H62_2 C87_2 1_555 1_555
C88_2 N4_2 1_555 1_555
H63_2 C88_2 1_555 1_555
C89_2 C86_2 1_555 1_555
C90_2 C89_2 1_555 1_555
C91_2 C90_2 1_555 1_555
H64_2 C91_2 1_555 1_555
C92_2 C91_2 1_555 1_555
C93_2 C92_2 1_555 1_555
H65_2 C93_2 1_555 1_555
C94_2 C89_2 1_555 1_555
C95_2 C90_2 1_555 1_555
H66_2 C95_2 1_555 1_555
H67_2 C95_2 1_555 1_555
H68_2 C95_2 1_555 1_555
C96_2 C94_2 1_555 1_555
H71_2 C96_2 1_555 1_555
N5_2 C92_2 1_555 1_555
H72_2 N5_2 1_555 1_555
C97_2 N5_2 1_555 1_555
H73_2 C97_2 1_555 1_555
H74_2 C97_2 1_555 1_555
C98_2 C97_2 1_555 1_555
C99_2 C98_2 1_555 1_555
H75_2 C99_2 1_555 1_555
C100_2 C99_2 1_555 1_555
C101_2 C100_2 1_555 1_555
C102_2 C101_2 1_555 1_555
C103_2 C98_2 1_555 1_555
H76_2 C103_2 1_555 1_555
C104_2 C100_2 1_555 1_555
H77_2 C104_2 1_555 1_555
H78_2 C104_2 1_555 1_555
H79_2 C104_2 1_555 1_555
C106_2 C101_2 1_555 1_555
C107_2 C106_2 1_555 1_555
H83_2 C107_2 1_555 1_555
C108_2 C107_2 1_555 1_555
H84_2 C108_2 1_555 1_555
C110_2 C106_2 1_555 1_555
H86_2 C110_2 1_555 1_555
O14_2 C43_2 1_555 1_555
C66_2 C67_2 1_555 1_555
C75_2 C76_2 1_555 1_555
C81_2 N3_2 1_555 1_555
C82_2 C83_2 1_555 1_555
C87_2 C88_2 1_555 1_555
C93_2 C94_2 1_555 1_555
C102_2 C103_2 1_555 1_555
O17 C14_2 1_555 1_555
O18 C14_2 1_555 1_555
C9_2 C8_2 1_555 1_555
H5_2 C9_2 1_555 1_555
C10_2 C9_2 1_555 1_555
H6_2 C10_2 1_555 1_555
C11_2 C10_2 1_555 1_555
C12_2 C11_2 1_555 1_555
H7_2 C12_2 1_555 1_555
C13_2 C8_2 1_555 1_555
H8_2 C13_2 1_555 1_555
C14_2 C11_2 1_555 1_555
C12_2 C13_2 1_555 1_555
O21 C42_2 1_555 1_555
O22 C42_2 1_555 1_555
C37_2 C36_2 1_555 1_555
H21_2 C37_2 1_555 1_555
C38_2 C37_2 1_555 1_555
H22_2 C38_2 1_555 1_555
C39_2 C38_2 1_555 1_555
C40_2 C39_2 1_555 1_555
H23_2 C40_2 1_555 1_555
C41_2 C36_2 1_555 1_555
H24_2 C41_2 1_555 1_555
C42_2 C39_2 1_555 1_555
C40_2 C41_2 1_555 1_555
Zn3_2 O9_3 1_555 1_555
Zn4_2 O10_3 1_555 1_555
O9_3 C29_3 1_555 1_555
O10_3 C29_3 1_555 1_555
O11_2 C42_3 1_555 1_555
O12_2 C42_3 1_555 1_555
O13_3 Zn3_2 1_555 1_555
O14_3 Zn4_2 1_555 1_555
C29_3 C30_3 1_555 1_555
C30_3 C31_3 1_555 1_555
C31_3 H17_3 1_555 1_555
C32_3 C31_3 1_555 1_555
H18_3 C32_3 1_555 1_555
C33_3 C32_3 1_555 1_555
C34_3 C33_3 1_555 1_555
H19_3 C34_3 1_555 1_555
C35_3 C30_3 1_555 1_555
H20_3 C35_3 1_555 1_555
C36_3 C33_3 1_555 1_555
C37_3 C36_3 1_555 1_555
H21_3 C37_3 1_555 1_555
C38_3 C37_3 1_555 1_555
H22_3 C38_3 1_555 1_555
C39_3 C38_3 1_555 1_555
C40_3 C39_3 1_555 1_555
H23_3 C40_3 1_555 1_555
C41_3 C36_3 1_555 1_555
H24_3 C41_3 1_555 1_555
C42_3 C39_3 1_555 1_555
C43_3 O13_3 1_555 1_555
C44_3 C43_3 1_555 1_555
C45_3 C44_3 1_555 1_555
H25_3 C45_3 1_555 1_555
C46_3 C45_3 1_555 1_555
C47_3 C46_3 1_555 1_555
C48_3 C47_3 1_555 1_555
H27_3 C48_3 1_555 1_555
C49_3 C44_3 1_555 1_555
H28_3 C49_3 1_555 1_555
C63_3 C62_3 1_555 1_555
C64_3 C63_3 1_555 1_555
H37_3 C64_3 1_555 1_555
C65_3 C64_3 1_555 1_555
C66_3 C65_3 1_555 1_555
H38_3 C66_3 1_555 1_555
C67_3 C62_3 1_555 1_555
C68_3 C63_3 1_555 1_555
H39_3 C68_3 1_555 1_555
H40_3 C68_3 1_555 1_555
H41_3 C68_3 1_555 1_555
C69_3 C67_3 1_555 1_555
H42_3 C69_3 1_555 1_555
N2_3 C65_3 1_555 1_555
H45_3 N2_3 1_555 1_555
C70_3 N2_3 1_555 1_555
H46_3 C70_3 1_555 1_555
H47_3 C70_3 1_555 1_555
C71_3 C70_3 1_555 1_555
C72_3 C71_3 1_555 1_555
H48_3 C72_3 1_555 1_555
C73_3 C72_3 1_555 1_555
C74_3 C73_3 1_555 1_555
C75_3 C74_3 1_555 1_555
C76_3 C71_3 1_555 1_555
H49_3 C76_3 1_555 1_555
C77_3 C73_3 1_555 1_555
H50_3 C77_3 1_555 1_555
H51_3 C77_3 1_555 1_555
H52_3 C77_3 1_555 1_555
C78_3 C75_3 1_555 1_555
H53_3 C78_3 1_555 1_555
H54_3 C78_3 1_555 1_555
H55_3 C78_3 1_555 1_555
C79_3 C74_3 1_555 1_555
C80_3 C79_3 1_555 1_555
H56_3 C80_3 1_555 1_555
C81_3 C80_3 1_555 1_555
H57_3 C81_3 1_555 1_555
N3_3 Zn3_2 1_555 1_555
C82_3 N3_3 1_555 1_555
H58_3 C82_3 1_555 1_555
C83_3 C79_3 1_555 1_555
H59_3 C83_3 1_555 1_555
N4_3 Zn4_2 1_555 1_555
C84_3 N4_3 1_555 1_555
H60_3 C84_3 1_555 1_555
C85_3 C84_3 1_555 1_555
H61_3 C85_3 1_555 1_555
C86_3 C85_3 1_555 1_555
C87_3 C86_3 1_555 1_555
H62_3 C87_3 1_555 1_555
C88_3 N4_3 1_555 1_555
H63_3 C88_3 1_555 1_555
C89_3 C86_3 1_555 1_555
C90_3 C89_3 1_555 1_555
C91_3 C90_3 1_555 1_555
H64_3 C91_3 1_555 1_555
C92_3 C91_3 1_555 1_555
C93_3 C92_3 1_555 1_555
H65_3 C93_3 1_555 1_555
C94_3 C89_3 1_555 1_555
C95_3 C90_3 1_555 1_555
H66_3 C95_3 1_555 1_555
H67_3 C95_3 1_555 1_555
H68_3 C95_3 1_555 1_555
C96_3 C94_3 1_555 1_555
H69_3 C96_3 1_555 1_555
H70_3 C96_3 1_555 1_555
H71_3 C96_3 1_555 1_555
N5_3 C92_3 1_555 1_555
H72_3 N5_3 1_555 1_555
C97_3 N5_3 1_555 1_555
H73_3 C97_3 1_555 1_555
H74_3 C97_3 1_555 1_555
C98_3 C97_3 1_555 1_555
C99_3 C98_3 1_555 1_555
H75_3 C99_3 1_555 1_555
C100_3 C99_3 1_555 1_555
C101_3 C100_3 1_555 1_555
C102_3 C101_3 1_555 1_555
C103_3 C98_3 1_555 1_555
H76_3 C103_3 1_555 1_555
C104_3 C100_3 1_555 1_555
H77_3 C104_3 1_555 1_555
H78_3 C104_3 1_555 1_555
H79_3 C104_3 1_555 1_555
C105_3 C102_3 1_555 1_555
H80_3 C105_3 1_555 1_555
H81_3 C105_3 1_555 1_555
H82_3 C105_3 1_555 1_555
C106_3 C101_3 1_555 1_555
C107_3 C106_3 1_555 1_555
H83_3 C107_3 1_555 1_555
C108_3 C107_3 1_555 1_555
H84_3 C108_3 1_555 1_555
N6 C108_3 1_555 1_555
C109_3 N6 1_555 1_555
H85_3 C109_3 1_555 1_555
C110_3 C106_3 1_555 1_555
H86_3 C110_3 1_555 1_555
Zn5 N6 1_555 1_555
Zn10 O11_2 1_555 1_555
Zn12 O12_2 1_555 1_555
O21_2 Zn3_2 1_555 1_555
O22_2 Zn4_2 1_555 1_555
O23_2 Zn3_2 1_555 1_555
O24_2 Zn4_2 1_555 1_555
O14_3 C43_3 1_555 1_555
C34_3 C35_3 1_555 1_555
C40_3 C41_3 1_555 1_555
C48_3 C49_3 1_555 1_555
C66_3 C67_3 1_555 1_555
C75_3 C76_3 1_555 1_555
C81_3 N3_3 1_555 1_555
C82_3 C83_3 1_555 1_555
C87_3 C88_3 1_555 1_555
C93_3 C94_3 1_555 1_555
C102_3 C103_3 1_555 1_555
C109_3 C110_3 1_555 1_555
Zn5 O1_3 1_555 1_555
Zn2_2 O2_3 1_555 1_555
O1_3 C1_3 1_555 1_555
O2_3 C1_3 1_555 1_555
O3_2 C14_3 1_555 1_555
O4_2 C14_3 1_555 1_555
O5_3 Zn5 1_555 1_555
O6_3 Zn2_2 1_555 1_555
C1_3 C2_3 1_555 1_555
C2_3 C3_3 1_555 1_555
C3_3 H1_3 1_555 1_555
C4_3 C3_3 1_555 1_555
H2_3 C4_3 1_555 1_555
C5_3 C4_3 1_555 1_555
C6_3 C5_3 1_555 1_555
H3_3 C6_3 1_555 1_555
C7_3 C2_3 1_555 1_555
H4_3 C7_3 1_555 1_555
C8_3 C5_3 1_555 1_555
C9_3 C8_3 1_555 1_555
H5_3 C9_3 1_555 1_555
C10_3 C9_3 1_555 1_555
H6_3 C10_3 1_555 1_555
C11_3 C10_3 1_555 1_555
C12_3 C11_3 1_555 1_555
H7_3 C12_3 1_555 1_555
C13_3 C8_3 1_555 1_555
H8_3 C13_3 1_555 1_555
C14_3 C11_3 1_555 1_555
C15_3 O5_3 1_555 1_555
C16_3 C15_3 1_555 1_555
C17_3 C16_3 1_555 1_555
H9_3 C17_3 1_555 1_555
C18_3 C17_3 1_555 1_555
H10_3 C18_3 1_555 1_555
C19_3 C18_3 1_555 1_555
C20_3 C19_3 1_555 1_555
H11_3 C20_3 1_555 1_555
C21_3 C16_3 1_555 1_555
H12_3 C21_3 1_555 1_555
N1_3 Zn2_2 1_555 1_555
C57_3 N1_3 1_555 1_555
H33_3 C57_3 1_555 1_555
C58_3 C57_3 1_555 1_555
H34_3 C58_3 1_555 1_555
C59_3 C58_3 1_555 1_555
C60_3 C59_3 1_555 1_555
H35_3 C60_3 1_555 1_555
C61_3 N1_3 1_555 1_555
H36_3 C61_3 1_555 1_555
O17_2 Zn5 1_555 1_555
O18_2 Zn2_2 1_555 1_555
O19_2 Zn5 1_555 1_555
O20_2 Zn2_2 1_555 1_555
O6_3 C15_3 1_555 1_555
C6_3 C7_3 1_555 1_555
C12_3 C13_3 1_555 1_555
C20_3 C21_3 1_555 1_555
C60_3 C61_3 1_555 1_555
O15_2 C56_3 1_555 1_555
O16_2 C56_3 1_555 1_555
C51_3 C50_3 1_555 1_555
H29_3 C51_3 1_555 1_555
C52_3 C51_3 1_555 1_555
H30_3 C52_3 1_555 1_555
C53_3 C52_3 1_555 1_555
C54_3 C53_3 1_555 1_555
H31_3 C54_3 1_555 1_555
C55_3 C50_3 1_555 1_555
H32_3 C55_3 1_555 1_555
C56_3 C53_3 1_555 1_555
Zn10 O15_2 1_555 1_555
Zn12 O16_2 1_555 1_555
C54_3 C55_3 1_555 1_555
O7_2 C28_3 1_555 1_555
O8_2 C28_3 1_555 1_555
C23_3 C22_3 1_555 1_555
H13_3 C23_3 1_555 1_555
C24_3 C23_3 1_555 1_555
H14_3 C24_3 1_555 1_555
C25_3 C24_3 1_555 1_555
C26_3 C25_3 1_555 1_555
H15_3 C26_3 1_555 1_555
C27_3 C22_3 1_555 1_555
H16_3 C27_3 1_555 1_555
C28_3 C25_3 1_555 1_555
C26_3 C27_3 1_555 1_555
O21_2 C42_4 1_555 1_555
O22_2 C42_4 1_555 1_555
C37_4 C36_4 1_555 1_555
H21_4 C37_4 1_555 1_555
C38_4 C37_4 1_555 1_555
H22_4 C38_4 1_555 1_555
C39_4 C38_4 1_555 1_555
C40_4 C39_4 1_555 1_555
H23_4 C40_4 1_555 1_555
C41_4 C36_4 1_555 1_555
H24_4 C41_4 1_555 1_555
C42_4 C39_4 1_555 1_555
C40_4 C41_4 1_555 1_555
O17_2 C14_4 1_555 1_555
O18_2 C14_4 1_555 1_555
C9_4 C8_4 1_555 1_555
H5_4 C9_4 1_555 1_555
C10_4 C9_4 1_555 1_555
H6_4 C10_4 1_555 1_555
C11_4 C10_4 1_555 1_555
C12_4 C11_4 1_555 1_555
H7_4 C12_4 1_555 1_555
C13_4 C8_4 1_555 1_555
H8_4 C13_4 1_555 1_555
C14_4 C11_4 1_555 1_555
C12_4 C13_4 1_555 1_555
O23_2 C56_4 1_555 1_555
O24_2 C56_4 1_555 1_555
C30_4 C31_4 1_555 1_555
C31_4 H17_4 1_555 1_555
C32_4 C31_4 1_555 1_555
H18_4 C32_4 1_555 1_555
C33_4 C32_4 1_555 1_555
C34_4 C33_4 1_555 1_555
H19_4 C34_4 1_555 1_555
C35_4 C30_4 1_555 1_555
H20_4 C35_4 1_555 1_555
C45_4 C44_4 1_555 1_555
H25_4 C45_4 1_555 1_555
C46_4 C45_4 1_555 1_555
H26_4 C46_4 1_555 1_555
C47_4 C46_4 1_555 1_555
C48_4 C47_4 1_555 1_555
H27_4 C48_4 1_555 1_555
C49_4 C44_4 1_555 1_555
H28_4 C49_4 1_555 1_555
C50_4 C47_4 1_555 1_555
C51_4 C50_4 1_555 1_555
H29_4 C51_4 1_555 1_555
C52_4 C51_4 1_555 1_555
H30_4 C52_4 1_555 1_555
C53_4 C52_4 1_555 1_555
C54_4 C53_4 1_555 1_555
H31_4 C54_4 1_555 1_555
C55_4 C50_4 1_555 1_555
H32_4 C55_4 1_555 1_555
C56_4 C53_4 1_555 1_555
C63_4 C62_4 1_555 1_555
C64_4 C63_4 1_555 1_555
H37_4 C64_4 1_555 1_555
C68_4 C63_4 1_555 1_555
H39_4 C68_4 1_555 1_555
H40_4 C68_4 1_555 1_555
H41_4 C68_4 1_555 1_555
H46_4 C70_4 1_555 1_555
H47_4 C70_4 1_555 1_555
H48_4 C72_4 1_555 1_555
C73_4 C72_4 1_555 1_555
C77_4 C73_4 1_555 1_555
H50_4 C77_4 1_555 1_555
H51_4 C77_4 1_555 1_555
H52_4 C77_4 1_555 1_555
H80_4 C105_4 1_555 1_555
H81_4 C105_4 1_555 1_555
H82_4 C105_4 1_555 1_555
C109_4 N6_2 1_555 1_555
H85_4 C109_4 1_555 1_555
Zn6 N6_2 1_555 1_555
C34_4 C35_4 1_555 1_555
C48_4 C49_4 1_555 1_555
C54_4 C55_4 1_555 1_555
Zn6 O1_4 1_555 1_555
Zn8 O2_4 1_555 1_555
O1_4 C1_4 1_555 1_555
O2_4 C1_4 1_555 1_555
O5_4 Zn6 1_555 1_555
O6_4 Zn8 1_555 1_555
O19_2 C28_4 1_555 1_555
O20_2 C28_4 1_555 1_555
C1_4 C2_4 1_555 1_555
C2_4 C3_4 1_555 1_555
C3_4 H1_4 1_555 1_555
C4_4 C3_4 1_555 1_555
H2_4 C4_4 1_555 1_555
C5_4 C4_4 1_555 1_555
C6_4 C5_4 1_555 1_555
H3_4 C6_4 1_555 1_555
C7_4 C2_4 1_555 1_555
H4_4 C7_4 1_555 1_555
C15_4 O5_4 1_555 1_555
C16_4 C15_4 1_555 1_555
C17_4 C16_4 1_555 1_555
H9_4 C17_4 1_555 1_555
C18_4 C17_4 1_555 1_555
H10_4 C18_4 1_555 1_555
C19_4 C18_4 1_555 1_555
C20_4 C19_4 1_555 1_555
H11_4 C20_4 1_555 1_555
C21_4 C16_4 1_555 1_555
H12_4 C21_4 1_555 1_555
C22_4 C19_4 1_555 1_555
C23_4 C22_4 1_555 1_555
H13_4 C23_4 1_555 1_555
C24_4 C23_4 1_555 1_555
H14_4 C24_4 1_555 1_555
C25_4 C24_4 1_555 1_555
C26_4 C25_4 1_555 1_555
H15_4 C26_4 1_555 1_555
C27_4 C22_4 1_555 1_555
H16_4 C27_4 1_555 1_555
C28_4 C25_4 1_555 1_555
N1_4 Zn8 1_555 1_555
C57_4 N1_4 1_555 1_555
H33_4 C57_4 1_555 1_555
C58_4 C57_4 1_555 1_555
H34_4 C58_4 1_555 1_555
C59_4 C58_4 1_555 1_555
C60_4 C59_4 1_555 1_555
H35_4 C60_4 1_555 1_555
C61_4 N1_4 1_555 1_555
H36_4 C61_4 1_555 1_555
O6_4 C15_4 1_555 1_555
C6_4 C7_4 1_555 1_555
C20_4 C21_4 1_555 1_555
C26_4 C27_4 1_555 1_555
C60_4 C61_4 1_555 1_555
Zn10 O9_4 1_555 1_555
Zn12 O10_4 1_555 1_555
O9_4 C29_4 1_555 1_555
O10_4 C29_4 1_555 1_555
O13_4 Zn10 1_555 1_555
O14_4 Zn12 1_555 1_555
C43_4 O13_4 1_555 1_555
C66_4 C65_4 1_555 1_555
H38_4 C66_4 1_555 1_555
C69_4 C67_4 1_555 1_555
H42_4 C69_4 1_555 1_555
N2_4 C65_4 1_555 1_555
H45_4 N2_4 1_555 1_555
C75_4 C74_4 1_555 1_555
C76_4 C71_4 1_555 1_555
H49_4 C76_4 1_555 1_555
C78_4 C75_4 1_555 1_555
H53_4 C78_4 1_555 1_555
H54_4 C78_4 1_555 1_555
H55_4 C78_4 1_555 1_555
C79_4 C74_4 1_555 1_555
C80_4 C79_4 1_555 1_555
H56_4 C80_4 1_555 1_555
C81_4 C80_4 1_555 1_555
H57_4 C81_4 1_555 1_555
N3_4 Zn10 1_555 1_555
C82_4 N3_4 1_555 1_555
H58_4 C82_4 1_555 1_555
C83_4 C79_4 1_555 1_555
H59_4 C83_4 1_555 1_555
N4_4 Zn12 1_555 1_555
C84_4 N4_4 1_555 1_555
H60_4 C84_4 1_555 1_555
C85_4 C84_4 1_555 1_555
H61_4 C85_4 1_555 1_555
C86_4 C85_4 1_555 1_555
C87_4 C86_4 1_555 1_555
H62_4 C87_4 1_555 1_555
C88_4 N4_4 1_555 1_555
H63_4 C88_4 1_555 1_555
C89_4 C86_4 1_555 1_555
C90_4 C89_4 1_555 1_555
C91_4 C90_4 1_555 1_555
H64_4 C91_4 1_555 1_555
C92_4 C91_4 1_555 1_555
C93_4 C92_4 1_555 1_555
H65_4 C93_4 1_555 1_555
C94_4 C89_4 1_555 1_555
C95_4 C90_4 1_555 1_555
H66_4 C95_4 1_555 1_555
H67_4 C95_4 1_555 1_555
H68_4 C95_4 1_555 1_555
C96_4 C94_4 1_555 1_555
H71_4 C96_4 1_555 1_555
N5_4 C92_4 1_555 1_555
H72_4 N5_4 1_555 1_555
C97_4 N5_4 1_555 1_555
H73_4 C97_4 1_555 1_555
H74_4 C97_4 1_555 1_555
C98_4 C97_4 1_555 1_555
C99_4 C98_4 1_555 1_555
H75_4 C99_4 1_555 1_555
C100_4 C99_4 1_555 1_555
C101_4 C100_4 1_555 1_555
C102_4 C101_4 1_555 1_555
C103_4 C98_4 1_555 1_555
H76_4 C103_4 1_555 1_555
C104_4 C100_4 1_555 1_555
H77_4 C104_4 1_555 1_555
H78_4 C104_4 1_555 1_555
H79_4 C104_4 1_555 1_555
C106_4 C101_4 1_555 1_555
C107_4 C106_4 1_555 1_555
H83_4 C107_4 1_555 1_555
C108_4 C107_4 1_555 1_555
H84_4 C108_4 1_555 1_555
C110_4 C106_4 1_555 1_555
H86_4 C110_4 1_555 1_555
O14_4 C43_4 1_555 1_555
C66_4 C67_4 1_555 1_555
C75_4 C76_4 1_555 1_555
C81_4 N3_4 1_555 1_555
C82_4 C83_4 1_555 1_555
C87_4 C88_4 1_555 1_555
C93_4 C94_4 1_555 1_555
C102_4 C103_4 1_555 1_555

#END
