
###############################################################################
#
# This file contains modified crystal structure data generated from the
# MOF subset of the Cambridge Structural Database (CSD) v543 
# hosted by the Cambridge Crystallographic Data Centre (CCDC).
#
# This work is licensed under the Creative Commons
# Attribution-NonCommercial-ShareAlike 4.0 International License.
# To view a copy of this license, visit
# http://creativecommons.org/licenses/by-nc-sa/4.0/
# or send a letter to
# Creative Commons, PO Box 1866, Mountain View, CA 94042, USA.
#
# CIF created using the CSD Python API on 29 September 2022
# The structure has been converted into the P1 space group
# The structure has a 3D framework
# The original CSD entry HOJLUP is in the monoclinic crystal system
# The framework has been calculated to contain at least 10.0% void space
# The void calculation uses a probe of radius 1.32A, grid spacing 0.4
#
###############################################################################

data_HOJLUP
_chemical_formula_moiety         '(C220 H172 N28 O32 Zn8)n'
_symmetry_cell_setting           triclinic
_symmetry_space_group_name_H-M   'P 1'
_symmetry_Int_Tables_number      1
_space_group_name_Hall           'P 1'
loop_
_symmetry_equiv_pos_site_id
_symmetry_equiv_pos_as_xyz
1 x,y,z
_cell_length_a                   21.336(3)
_cell_length_b                   23.766(4)
_cell_length_c                   15.808(3)
_cell_angle_alpha                90
_cell_angle_beta                 101.568(2)
_cell_angle_gamma                90
_cell_volume                     7852.96
loop_
_atom_site_label
_atom_site_type_symbol
_atom_site_fract_x
_atom_site_fract_y
_atom_site_fract_z
Zn2 Zn 0.02913(9) 0.00973(10) 0.13147(12)
O1 O 0.0085(6) 0.0399(6) 0.3474(8)
O2 O 0.0635(8) 0.0547(8) 0.2428(11)
O3 O 0.4088(9) 0.4413(7) 0.7041(11)
O4 O 0.4639(8) 0.4272(6) 0.5969(10)
N1 N 0.2293(9) 0.2106(9) 0.5265(13)
N2 N 0.2674(11) 0.2294(10) 0.5024(16)
C1 C 0.0520(10) 0.0603(8) 0.3178(14)
C2 C 0.0950(6) 0.1029(6) 0.3767(8)
C3 C 0.0924(6) 0.1096(5) 0.4633(8)
H1 H 0.0624 0.0888 0.4875
C4 C 0.1338(7) 0.1470(6) 0.5144(7)
H2 H 0.1320 0.1516 0.5735
C5 C 0.1777(7) 0.1775(6) 0.4789(9)
C6 C 0.1803(7) 0.1707(6) 0.3923(10)
H3 H 0.2103 0.1916 0.3681
C7 C 0.1389(8) 0.1334(7) 0.3412(7)
H4 H 0.1407 0.1288 0.2821
C8 C 0.3053(8) 0.2723(6) 0.5441(11)
C9 C 0.2848(6) 0.3113(6) 0.5982(10)
H5 H 0.2443 0.3069 0.6136
C10 C 0.3236(6) 0.3567(6) 0.6299(9)
H6 H 0.3096 0.3833 0.6669
C11 C 0.3829(6) 0.3631(5) 0.6074(9)
C12 C 0.4034(6) 0.3241(7) 0.5532(10)
H7 H 0.4439 0.3285 0.5378
C13 C 0.3646(8) 0.2788(6) 0.5216(11)
H8 H 0.3786 0.2521 0.4845
C14 C 0.4206(11) 0.4131(11) 0.6462(17)
Zn4 Zn 0.45006(8) 0.51033(9) 0.76580(11)
Zn7 Zn 0.52913(9) 0.49027(10) 0.63147(12)
N8 N 0.1082(5) 0.0232(6) 0.0829(9)
O5 O 0.0072(8) 0.9226(7) 0.2925(11)
O6 O 0.0660(7) 0.9360(6) 0.1920(10)
O7 O 0.4154(7) 0.5500(6) 0.6483(10)
O8 O 0.4699(8) 0.5373(8) 0.5423(11)
N3 N 0.2070(10) 0.7247(9) 0.3990(13)
N4 N 0.2644(8) 0.7187(8) 0.3662(12)
C15 C 0.0500(11) 0.9122(8) 0.2614(13)
C16 C 0.0935(7) 0.8611(6) 0.2847(10)
C17 C 0.0758(6) 0.8266(6) 0.3470(10)
H9 H 0.0374 0.8339 0.3668
C18 C 0.1144(7) 0.7815(5) 0.3804(9)
H10 H 0.1023 0.7579 0.4229
C19 C 0.1706(6) 0.7708(5) 0.3514(10)
C20 C 0.1882(6) 0.8052(7) 0.2891(10)
H11 H 0.2266 0.7979 0.2693
C21 C 0.1497(8) 0.8504(6) 0.2557(9)
H12 H 0.1618 0.8740 0.2132
C22 C 0.2933(8) 0.6730(7) 0.4249(10)
C23 C 0.2874(8) 0.6595(7) 0.5085(10)
H13 H 0.2547 0.6765 0.5328
C24 C 0.3293(9) 0.6213(7) 0.5567(8)
H14 H 0.3252 0.6121 0.6138
C25 C 0.3771(8) 0.5964(7) 0.5212(10)
C26 C 0.3830(7) 0.6098(7) 0.4376(10)
H15 H 0.4156 0.5929 0.4133
C27 C 0.3411(8) 0.6481(7) 0.3894(8)
H16 H 0.3451 0.6573 0.3323
C28 C 0.4250(13) 0.5604(12) 0.5737(16)
C46 C 0.2816(7) 0.0624(8) 0.0004(14)
C47 C 0.3112(8) 0.1145(7) 0.0163(14)
H33 H 0.3922 0.1585 0.0105
C50 C 0.2779(14) 0.1595(11) 0.054(3)
H37 H 0.2358 0.1460 0.0605
H38 H 0.3032 0.1700 0.1105
H39 H 0.2727 0.1923 0.0157
C51 C 0.2214(6) 0.0484(8) 0.0294(11)
C54 C 0.1665(7) 0.0186(8) 0.1406(7)
H42 H 0.1676 0.0068 0.1983
C55 C 0.2231(5) 0.0312(8) 0.1138(10)
H43 H 0.2628 0.0280 0.1532
N6 N 0.991(2) 0.4579(11) 0.453(3)
H29 H 0.9708 0.4883 0.4648
C42 C 0.9708(10) 0.4107(10) 0.4528(19)
H30 H 0.9962 0.3878 0.4998
H31 H 0.9704 0.3919 0.3967
C43 C 0.9034(6) 0.4209(8) 0.4672(13)
C44 C 0.8739(9) 0.4731(7) 0.4513(15)
H32 H 0.8953 0.5030 0.4292
C45 C 0.8130(9) 0.4814(7) 0.4679(15)
C46_2 C 0.7816(7) 0.4376(8) 0.5004(14)
C47_2 C 0.8112(8) 0.3855(7) 0.5163(14)
C48 C 0.8720(8) 0.3771(6) 0.4997(14)
H33_2 H 0.8922 0.3415 0.5105
C49 C 0.776(2) 0.5343(15) 0.436(3)
H34 H 0.8046 0.5602 0.4127
H35 H 0.7612 0.5524 0.4834
H36 H 0.7398 0.5246 0.3899
C50_2 C 0.7779(14) 0.3405(11) 0.554(3)
H37_2 H 0.7358 0.3540 0.5605
H38_2 H 0.8032 0.3300 0.6105
H39_2 H 0.7727 0.3077 0.5157
C51_2 C 0.7214(6) 0.4516(8) 0.5294(11)
C52 C 0.6632(7) 0.4469(7) 0.4717(8)
H40 H 0.6621 0.4352 0.4140
C53 C 0.6066(5) 0.4596(6) 0.4985(8)
H41 H 0.5668 0.4564 0.4591
N7 N 0.6082(5) 0.4768(6) 0.5829(9)
C54_2 C 0.6665(7) 0.4814(8) 0.6406(7)
H42_2 H 0.6676 0.4932 0.6983
C55_2 C 0.7231(5) 0.4688(8) 0.6138(10)
H43_2 H 0.7628 0.4720 0.6532
O1_2 O 0.5085(6) 0.4601(6) 0.8474(8)
O2_2 O 0.5635(8) 0.4453(8) 0.7428(11)
O5_2 O 0.5072(8) 0.5774(7) 0.7925(11)
O6_2 O 0.5660(7) 0.5640(6) 0.6920(10)
N3_2 N 0.7070(10) 0.7753(9) 0.8990(13)
N4_2 N 0.7644(8) 0.7813(8) 0.8662(12)
C1_2 C 0.5520(10) 0.4397(8) 0.8178(14)
C2_2 C 0.5950(6) 0.3971(6) 0.8767(8)
C3_2 C 0.5924(6) 0.3904(5) 0.9633(8)
H1_2 H 0.5624 0.4112 0.9875
C5_2 C 0.6777(7) 0.3225(6) 0.9789(9)
C6_2 C 0.6803(7) 0.3293(6) 0.8923(10)
H3_2 H 0.7103 0.3084 0.8681
C7_2 C 0.6389(8) 0.3666(7) 0.8412(7)
H4_2 H 0.6407 0.3712 0.7821
H8_2 H 0.8786 0.2479 0.9845
C15_2 C 0.5500(11) 0.5878(8) 0.7614(13)
C16_2 C 0.5935(7) 0.6389(6) 0.7847(10)
C17_2 C 0.5758(6) 0.6734(6) 0.8470(10)
H9_2 H 0.5374 0.6661 0.8668
C18_2 C 0.6144(7) 0.7185(5) 0.8804(9)
H10_2 H 0.6023 0.7421 0.9229
C19_2 C 0.6706(6) 0.7292(5) 0.8514(10)
C20_2 C 0.6882(6) 0.6948(7) 0.7891(10)
H11_2 H 0.7266 0.7021 0.7693
C21_2 C 0.6497(8) 0.6496(6) 0.7557(9)
H12_2 H 0.6618 0.6260 0.7132
C22_2 C 0.7933(8) 0.8270(7) 0.9249(10)
C26_2 C 0.8830(7) 0.8902(7) 0.9376(10)
H15_2 H 0.9156 0.9071 0.9133
C27_2 C 0.8411(8) 0.8519(7) 0.8894(8)
H16_2 H 0.8451 0.8427 0.8323
N5 N 0.3724(5) 0.5302(5) 0.8174(7)
C29 C 0.3155(6) 0.5317(6) 0.7567(6)
H17 H 0.3160 0.5275 0.6971
C30 C 0.2577(5) 0.5392(8) 0.7832(9)
H18 H 0.2188 0.5402 0.7417
C31 C 0.2570(6) 0.5453(8) 0.8704(11)
C32 C 0.3139(8) 0.5438(8) 0.9312(7)
H19 H 0.3134 0.5480 0.9908
C33 C 0.3717(6) 0.5363(7) 0.9046(7)
H20 H 0.4106 0.5354 0.9462
C34 C 0.1910(6) 0.5446(7) 0.8956(14)
C35 C 0.1551(7) 0.5938(6) 0.8870(12)
C36 C 0.0934(7) 0.5934(6) 0.9031(13)
H21 H 0.0688 0.6270 0.8973
C37 C 0.0676(7) 0.5438(7) 0.9278(16)
C38 C 0.1036(11) 0.4946(6) 0.936(2)
H22 H 0.0859 0.4606 0.9533
C39 C 0.1652(10) 0.4950(6) 0.9203(19)
C40 C 0.1839(14) 0.6484(10) 0.865(2)
H23 H 0.1525 0.6787 0.8635
H24 H 0.2219 0.6568 0.9097
H25 H 0.1961 0.6451 0.8090
C41 C 0.1969(14) 0.4383(9) 0.920(3)
H26 H 0.1691 0.4092 0.9363
H27 H 0.2042 0.4304 0.8617
H28 H 0.2379 0.4385 0.9610
C38_2 C 0.6036(11) 0.0054(6) 0.436(2)
H22_2 H 0.5859 0.0394 0.4533
C39_2 C 0.6652(10) 0.0050(6) 0.4203(19)
C41_2 C 0.6969(14) 0.0617(9) 0.420(3)
H26_2 H 0.6691 0.0908 0.4363
H27_2 H 0.7042 0.0696 0.3617
H28_2 H 0.7379 0.0615 0.4610
H32_2 H 0.3953 0.0030 0.4292
C49_2 C 0.276(2) 0.0343(15) 0.436(3)
H34_2 H 0.3046 0.0602 0.4127
H35_2 H 0.2612 0.0524 0.4834
H36_2 H 0.2398 0.0246 0.3899
O9 O 0.9088(9) 0.0587(7) 0.2041(11)
O10 O 0.9639(8) 0.0728(6) 0.0969(10)
Zn1 Zn 0.95006(8) 0.98967(9) 0.26580(11)
N5_2 N 0.8724(5) 0.9698(5) 0.3174(7)
C29_2 C 0.8155(6) 0.9683(6) 0.2567(6)
H17_2 H 0.8160 0.9725 0.1971
C30_2 C 0.7577(5) 0.9608(8) 0.2832(9)
H18_2 H 0.7188 0.9598 0.2417
C31_2 C 0.7570(6) 0.9547(8) 0.3704(11)
C32_2 C 0.8139(8) 0.9562(8) 0.4312(7)
H19_2 H 0.8134 0.9520 0.4908
C33_2 C 0.8717(6) 0.9637(7) 0.4046(7)
H20_2 H 0.9106 0.9646 0.4462
C34_2 C 0.6910(6) 0.9554(7) 0.3956(14)
C35_2 C 0.6551(7) 0.9062(6) 0.3870(12)
C36_2 C 0.5934(7) 0.9066(6) 0.4031(13)
H21_2 H 0.5688 0.8730 0.3973
C37_2 C 0.5676(7) 0.9562(7) 0.4278(16)
C40_2 C 0.6839(14) 0.8516(10) 0.365(2)
H23_2 H 0.6525 0.8213 0.3635
H24_2 H 0.7219 0.8432 0.4097
H25_2 H 0.6961 0.8549 0.3090
N6_2 N 0.491(2) 0.9579(11) 0.453(3)
H29_2 H 0.4708 0.9883 0.4648
C42_2 C 0.4708(10) 0.9107(10) 0.4528(19)
H30_2 H 0.4962 0.8878 0.4998
H31_2 H 0.4704 0.8919 0.3967
C43_2 C 0.4034(6) 0.9209(8) 0.4672(13)
C44_2 C 0.3739(9) 0.9731(7) 0.4513(15)
C45_2 C 0.3130(9) 0.9814(7) 0.4679(15)
C46_3 C 0.2816(7) 0.9376(8) 0.5004(14)
C47_3 C 0.3112(8) 0.8855(7) 0.5163(14)
C48_2 C 0.3720(8) 0.8771(6) 0.4997(14)
H33_3 H 0.3922 0.8415 0.5105
C50_3 C 0.2779(14) 0.8405(11) 0.554(3)
H37_3 H 0.2358 0.8540 0.5605
H38_3 H 0.3032 0.8300 0.6105
H39_3 H 0.2727 0.8077 0.5157
C51_3 C 0.2214(6) 0.9516(8) 0.5294(11)
C52_2 C 0.1632(7) 0.9469(7) 0.4717(8)
H40_2 H 0.1621 0.9352 0.4140
C53_2 C 0.1066(5) 0.9596(6) 0.4985(8)
H41_2 H 0.0668 0.9564 0.4591
N7_2 N 0.1082(5) 0.9768(6) 0.5829(9)
C54_3 C 0.1665(7) 0.9814(8) 0.6406(7)
H42_3 H 0.1676 0.9932 0.6983
C55_3 C 0.2231(5) 0.9688(8) 0.6138(10)
H43_3 H 0.2628 0.9720 0.6532
Zn5 Zn 0.02913(9) 0.99027(10) 0.63147(12)
O11 O 0.9154(7) 0.9500(6) 0.1483(10)
O12 O 0.9699(8) 0.9627(8) 0.0423(11)
O1_3 O 0.0085(6) 0.9601(6) 0.8474(8)
O2_3 O 0.0635(8) 0.9453(8) 0.7428(11)
C1_3 C 0.0520(10) 0.9397(8) 0.8178(14)
C2_3 C 0.0950(6) 0.8971(6) 0.8767(8)
C3_3 C 0.0924(6) 0.8904(5) 0.9633(8)
H1_3 H 0.0624 0.9112 0.9875
C5_3 C 0.1777(7) 0.8225(6) 0.9789(9)
C6_3 C 0.1803(7) 0.8293(6) 0.8923(10)
H3_3 H 0.2103 0.8084 0.8681
C7_3 C 0.1389(8) 0.8666(7) 0.8412(7)
H4_3 H 0.1407 0.8712 0.7821
H8_3 H 0.3786 0.7479 0.9845
N1_2 N 0.7293(9) 0.2894(9) 0.0265(13)
N2_2 N 0.7674(11) 0.2706(10) 0.0024(16)
C4_2 C 0.6338(7) 0.3530(6) 0.0144(7)
H2_2 H 0.6320 0.3484 0.0735
C8_2 C 0.8053(8) 0.2277(6) 0.0441(11)
C9_2 C 0.7848(6) 0.1887(6) 0.0982(10)
H5_2 H 0.7443 0.1931 0.1136
C10_2 C 0.8236(6) 0.1433(6) 0.1299(9)
H6_2 H 0.8096 0.1167 0.1669
C11_2 C 0.8829(6) 0.1369(5) 0.1074(9)
C12_2 C 0.9034(6) 0.1759(7) 0.0532(10)
H7_2 H 0.9439 0.1715 0.0378
C13_2 C 0.8646(8) 0.2212(6) 0.0216(11)
C14_2 C 0.9206(11) 0.0869(11) 0.1462(17)
C23_2 C 0.7874(8) 0.8405(7) 0.0085(10)
H13_2 H 0.7547 0.8235 0.0328
C24_2 C 0.8293(9) 0.8787(7) 0.0567(8)
H14_2 H 0.8252 0.8879 0.1138
C25_2 C 0.8771(8) 0.9036(7) 0.0212(10)
C28_2 C 0.9250(13) 0.9396(12) 0.0737(16)
O7_2 O 0.4154(7) 0.4500(6) 0.1483(10)
O8_2 O 0.4699(8) 0.4627(8) 0.0423(11)
C23_3 C 0.2874(8) 0.3405(7) 0.0085(10)
H13_3 H 0.2547 0.3235 0.0328
C24_3 C 0.3293(9) 0.3787(7) 0.0567(8)
H14_3 H 0.3252 0.3879 0.1138
C25_3 C 0.3771(8) 0.4036(7) 0.0212(10)
C28_3 C 0.4250(13) 0.4396(12) 0.0737(16)
Zn3 Zn 0.45006(8) 0.48967(9) 0.26580(11)
Zn6 Zn 0.52913(9) 0.50973(10) 0.13147(12)
O3_2 O 0.4088(9) 0.5587(7) 0.2041(11)
O4_2 O 0.4639(8) 0.5728(6) 0.0969(10)
N1_3 N 0.2293(9) 0.7894(9) 0.0265(13)
N2_3 N 0.2674(11) 0.7706(10) 0.0024(16)
C4_3 C 0.1338(7) 0.8530(6) 0.0144(7)
H2_3 H 0.1320 0.8484 0.0735
C8_3 C 0.3053(8) 0.7277(6) 0.0441(11)
C9_3 C 0.2848(6) 0.6887(6) 0.0982(10)
H5_3 H 0.2443 0.6931 0.1136
C10_3 C 0.3236(6) 0.6433(6) 0.1299(9)
H6_3 H 0.3096 0.6167 0.1669
C11_3 C 0.3829(6) 0.6369(5) 0.1074(9)
C12_3 C 0.4034(6) 0.6759(7) 0.0532(10)
H7_3 H 0.4439 0.6715 0.0378
C13_3 C 0.3646(8) 0.7212(6) 0.0216(11)
C14_3 C 0.4206(11) 0.5869(11) 0.1462(17)
Zn1_2 Zn 0.95006(8) 0.01033(9) 0.76580(11)
N5_3 N 0.8724(5) 0.0302(5) 0.8174(7)
C29_3 C 0.8155(6) 0.0317(6) 0.7567(6)
H17_3 H 0.8160 0.0275 0.6971
C30_3 C 0.7577(5) 0.0392(8) 0.7832(9)
H18_3 H 0.7188 0.0402 0.7417
C31_3 C 0.7570(6) 0.0453(8) 0.8704(11)
C32_3 C 0.8139(8) 0.0438(8) 0.9312(7)
H19_3 H 0.8134 0.0480 0.9908
C33_3 C 0.8717(6) 0.0363(7) 0.9046(7)
H20_3 H 0.9106 0.0354 0.9462
C34_3 C 0.6910(6) 0.0446(7) 0.8956(14)
C35_3 C 0.6551(7) 0.0938(6) 0.8870(12)
C36_3 C 0.5934(7) 0.0934(6) 0.9031(13)
H21_3 H 0.5688 0.1270 0.8973
C37_3 C 0.5676(7) 0.0438(7) 0.9278(16)
C40_3 C 0.6839(14) 0.1484(10) 0.865(2)
H23_3 H 0.6525 0.1787 0.8635
H24_3 H 0.7219 0.1568 0.9097
H25_3 H 0.6961 0.1451 0.8090
N6_3 N 0.491(2) 0.0421(11) 0.953(3)
H29_3 H 0.4708 0.0117 0.9648
C42_3 C 0.4708(10) 0.0893(10) 0.9528(19)
H30_3 H 0.4962 0.1122 0.9998
H31_3 H 0.4704 0.1081 0.8967
C43_3 C 0.4034(6) 0.0791(8) 0.9672(13)
C44_3 C 0.3739(9) 0.0269(7) 0.9513(15)
C45_3 C 0.3130(9) 0.0186(7) 0.9679(15)
C48_3 C 0.3720(8) 0.1229(6) 0.9997(14)
C52_3 C 0.1632(7) 0.0531(7) 0.9717(8)
H40_3 H 0.1621 0.0648 0.9140
C53_3 C 0.1066(5) 0.0404(6) 0.9985(8)
H41_3 H 0.0668 0.0436 0.9591
O11_2 O 0.9154(7) 0.0500(6) 0.6483(10)
O12_2 O 0.9699(8) 0.0373(8) 0.5423(11)
C38_3 C 0.6036(11) 0.9946(6) 0.936(2)
H22_3 H 0.5859 0.9606 0.9533
C39_3 C 0.6652(10) 0.9950(6) 0.9203(19)
C41_3 C 0.6969(14) 0.9383(9) 0.920(3)
H26_3 H 0.6691 0.9092 0.9363
H27_3 H 0.7042 0.9304 0.8617
H28_3 H 0.7379 0.9385 0.9610
H32_3 H 0.3953 0.9970 0.9292
C49_3 C 0.276(2) 0.9657(15) 0.936(3)
H34_3 H 0.3046 0.9398 0.9127
H35_3 H 0.2612 0.9476 0.9834
H36_3 H 0.2398 0.9754 0.8899
O9_2 O 0.9088(9) 0.9413(7) 0.7041(11)
O10_2 O 0.9639(8) 0.9272(6) 0.5969(10)
O1_4 O 0.5085(6) 0.5399(6) 0.3474(8)
O2_4 O 0.5635(8) 0.5547(8) 0.2428(11)
O5_3 O 0.5072(8) 0.4226(7) 0.2925(11)
O6_3 O 0.5660(7) 0.4360(6) 0.1920(10)
N1_4 N 0.7293(9) 0.7106(9) 0.5265(13)
N2_4 N 0.7674(11) 0.7294(10) 0.5024(16)
N3_3 N 0.7070(10) 0.2247(9) 0.3990(13)
N4_3 N 0.7644(8) 0.2187(8) 0.3662(12)
C1_4 C 0.5520(10) 0.5603(8) 0.3178(14)
C2_4 C 0.5950(6) 0.6029(6) 0.3767(8)
C3_4 C 0.5924(6) 0.6096(5) 0.4633(8)
H1_4 H 0.5624 0.5888 0.4875
C4_4 C 0.6338(7) 0.6470(6) 0.5144(7)
H2_4 H 0.6320 0.6516 0.5735
C5_4 C 0.6777(7) 0.6775(6) 0.4789(9)
C6_4 C 0.6803(7) 0.6707(6) 0.3923(10)
H3_4 H 0.7103 0.6916 0.3681
C7_4 C 0.6389(8) 0.6334(7) 0.3412(7)
H4_4 H 0.6407 0.6288 0.2821
C8_4 C 0.8053(8) 0.7723(6) 0.5441(11)
C9_4 C 0.7848(6) 0.8113(6) 0.5982(10)
H5_4 H 0.7443 0.8069 0.6136
C10_4 C 0.8236(6) 0.8567(6) 0.6299(9)
H6_4 H 0.8096 0.8833 0.6669
C11_4 C 0.8829(6) 0.8631(5) 0.6074(9)
C12_4 C 0.9034(6) 0.8241(7) 0.5532(10)
H7_4 H 0.9439 0.8285 0.5378
C13_4 C 0.8646(8) 0.7788(6) 0.5216(11)
H8_4 H 0.8786 0.7521 0.4845
C14_4 C 0.9206(11) 0.9131(11) 0.6462(17)
C15_3 C 0.5500(11) 0.4122(8) 0.2614(13)
C16_3 C 0.5935(7) 0.3611(6) 0.2847(10)
C17_3 C 0.5758(6) 0.3266(6) 0.3470(10)
H9_3 H 0.5374 0.3339 0.3668
C18_3 C 0.6144(7) 0.2815(5) 0.3804(9)
H10_3 H 0.6023 0.2579 0.4229
C19_3 C 0.6706(6) 0.2708(5) 0.3514(10)
C20_3 C 0.6882(6) 0.3052(7) 0.2891(10)
H11_3 H 0.7266 0.2979 0.2693
C21_3 C 0.6497(8) 0.3504(6) 0.2557(9)
H12_3 H 0.6618 0.3740 0.2132
C22_3 C 0.7933(8) 0.1730(7) 0.4249(10)
C23_4 C 0.7874(8) 0.1595(7) 0.5085(10)
H13_4 H 0.7547 0.1765 0.5328
C24_4 C 0.8293(9) 0.1213(7) 0.5567(8)
H14_4 H 0.8252 0.1121 0.6138
C25_4 C 0.8771(8) 0.0964(7) 0.5212(10)
C26_3 C 0.8830(7) 0.1098(7) 0.4376(10)
H15_3 H 0.9156 0.0929 0.4133
C27_3 C 0.8411(8) 0.1481(7) 0.3894(8)
H16_3 H 0.8451 0.1573 0.3323
C28_4 C 0.9250(13) 0.0604(12) 0.5737(16)
N5_4 N 0.3724(5) 0.4698(5) 0.3174(7)
C29_4 C 0.3155(6) 0.4683(6) 0.2567(6)
H17_4 H 0.3160 0.4725 0.1971
C30_4 C 0.2577(5) 0.4608(8) 0.2832(9)
H18_4 H 0.2188 0.4598 0.2417
C31_4 C 0.2570(6) 0.4547(8) 0.3704(11)
C32_4 C 0.3139(8) 0.4562(8) 0.4312(7)
H19_4 H 0.3134 0.4520 0.4908
C33_4 C 0.3717(6) 0.4637(7) 0.4046(7)
H20_4 H 0.4106 0.4646 0.4462
C34_4 C 0.1910(6) 0.4554(7) 0.3956(14)
C35_4 C 0.1551(7) 0.4062(6) 0.3870(12)
C36_4 C 0.0934(7) 0.4066(6) 0.4031(13)
H21_4 H 0.0688 0.3730 0.3973
C37_4 C 0.0676(7) 0.4562(7) 0.4278(16)
C38_4 C 0.1036(11) 0.5054(6) 0.436(2)
H22_4 H 0.0859 0.5394 0.4533
C39_4 C 0.1652(10) 0.5050(6) 0.4203(19)
C40_4 C 0.1839(14) 0.3516(10) 0.365(2)
H23_4 H 0.1525 0.3213 0.3635
H24_4 H 0.2219 0.3432 0.4097
H25_4 H 0.1961 0.3549 0.3090
C41_4 C 0.1969(14) 0.5617(9) 0.420(3)
H26_4 H 0.1691 0.5908 0.4363
H27_4 H 0.2042 0.5696 0.3617
H28_4 H 0.2379 0.5615 0.4610
N8_2 N 0.6082(5) 0.5232(6) 0.0829(9)
C46_4 C 0.7816(7) 0.5624(8) 0.0004(14)
C47_4 C 0.8112(8) 0.6145(7) 0.0163(14)
H33_4 H 0.8922 0.6585 0.0105
C50_4 C 0.7779(14) 0.6595(11) 0.054(3)
H37_4 H 0.7358 0.6460 0.0605
H38_4 H 0.8032 0.6700 0.1105
H39_4 H 0.7727 0.6923 0.0157
C51_4 C 0.7214(6) 0.5484(8) 0.0294(11)
C54_4 C 0.6665(7) 0.5186(8) 0.1406(7)
H42_4 H 0.6676 0.5068 0.1983
C55_4 C 0.7231(5) 0.5312(8) 0.1138(10)
H43_4 H 0.7628 0.5280 0.1532
O5_4 O 0.0072(8) 0.0774(7) 0.7925(11)
O6_4 O 0.0660(7) 0.0640(6) 0.6920(10)
N3_4 N 0.2070(10) 0.2753(9) 0.8990(13)
N4_4 N 0.2644(8) 0.2813(8) 0.8662(12)
C15_4 C 0.0500(11) 0.0878(8) 0.7614(13)
C16_4 C 0.0935(7) 0.1389(6) 0.7847(10)
C17_4 C 0.0758(6) 0.1734(6) 0.8470(10)
H9_4 H 0.0374 0.1661 0.8668
C18_4 C 0.1144(7) 0.2185(5) 0.8804(9)
H10_4 H 0.1023 0.2421 0.9229
C19_4 C 0.1706(6) 0.2292(5) 0.8514(10)
C20_4 C 0.1882(6) 0.1948(7) 0.7891(10)
H11_4 H 0.2266 0.2021 0.7693
C21_4 C 0.1497(8) 0.1496(6) 0.7557(9)
H12_4 H 0.1618 0.1260 0.7132
C22_4 C 0.2933(8) 0.3270(7) 0.9249(10)
C26_4 C 0.3830(7) 0.3902(7) 0.9376(10)
H15_4 H 0.4156 0.4071 0.9133
C27_4 C 0.3411(8) 0.3519(7) 0.8894(8)
H16_4 H 0.3451 0.3427 0.8323
N6_4 N 0.991(2) 0.5421(11) 0.953(3)
H29_4 H 0.9708 0.5117 0.9648
C42_4 C 0.9708(10) 0.5893(10) 0.9528(19)
H30_4 H 0.9962 0.6122 0.9998
H31_4 H 0.9704 0.6081 0.8967
C43_4 C 0.9034(6) 0.5791(8) 0.9672(13)
C44_4 C 0.8739(9) 0.5269(7) 0.9513(15)
H32_4 H 0.8953 0.4970 0.9292
C45_4 C 0.8130(9) 0.5186(7) 0.9679(15)
C48_4 C 0.8720(8) 0.6229(6) 0.9997(14)
C49_4 C 0.776(2) 0.4657(15) 0.936(3)
H34_4 H 0.8046 0.4398 0.9127
H35_4 H 0.7612 0.4476 0.9834
H36_4 H 0.7398 0.4754 0.8899
C52_4 C 0.6632(7) 0.5531(7) 0.9717(8)
H40_4 H 0.6621 0.5648 0.9140
C53_4 C 0.6066(5) 0.5404(6) 0.9985(8)
H41_4 H 0.5668 0.5436 0.9591
loop_
_geom_bond_atom_site_label_1
_geom_bond_atom_site_label_2
_geom_bond_site_symmetry_1
_geom_bond_site_symmetry_2
Zn2 O2 1_555 1_555
O1 C1 1_555 1_555
O2 C1 1_555 1_555
O3 C14 1_555 1_555
O4 C14 1_555 1_555
N1 N2 1_555 1_555
N2 C8 1_555 1_555
C1 C2 1_555 1_555
C2 C3 1_555 1_555
C3 H1 1_555 1_555
C4 C3 1_555 1_555
H2 C4 1_555 1_555
C5 N1 1_555 1_555
C6 C5 1_555 1_555
H3 C6 1_555 1_555
C7 C2 1_555 1_555
H4 C7 1_555 1_555
C8 C9 1_555 1_555
C9 H5 1_555 1_555
C10 C9 1_555 1_555
H6 C10 1_555 1_555
C11 C10 1_555 1_555
C12 C11 1_555 1_555
H7 C12 1_555 1_555
C13 C8 1_555 1_555
H8 C13 1_555 1_555
C14 C11 1_555 1_555
Zn4 O3 1_555 1_555
Zn7 O4 1_555 1_555
N8 Zn2 1_555 1_555
C4 C5 1_555 1_555
C6 C7 1_555 1_555
C12 C13 1_555 1_555
O7 C28 1_555 1_555
O8 C28 1_555 1_555
N3 N4 1_555 1_555
N4 C22 1_555 1_555
C15 O5 1_555 1_555
C16 C15 1_555 1_555
C17 C16 1_555 1_555
H9 C17 1_555 1_555
C18 C17 1_555 1_555
H10 C18 1_555 1_555
C19 N3 1_555 1_555
C20 C19 1_555 1_555
H11 C20 1_555 1_555
C21 C16 1_555 1_555
H12 C21 1_555 1_555
C22 C23 1_555 1_555
C23 H13 1_555 1_555
C24 C23 1_555 1_555
H14 C24 1_555 1_555
C25 C24 1_555 1_555
C26 C25 1_555 1_555
H15 C26 1_555 1_555
C27 C22 1_555 1_555
H16 C27 1_555 1_555
C28 C25 1_555 1_555
Zn4 O7 1_555 1_555
Zn7 O8 1_555 1_555
O6 C15 1_555 1_555
C18 C19 1_555 1_555
C20 C21 1_555 1_555
C26 C27 1_555 1_555
C47 C46 1_555 1_555
C50 C47 1_555 1_555
H37 C50 1_555 1_555
H38 C50 1_555 1_555
H39 C50 1_555 1_555
C51 C46 1_555 1_555
C54 N8 1_555 1_555
H42 C54 1_555 1_555
C55 C51 1_555 1_555
H43 C55 1_555 1_555
C54 C55 1_555 1_555
H29 N6 1_555 1_555
C42 N6 1_555 1_555
H30 C42 1_555 1_555
H31 C42 1_555 1_555
C43 C42 1_555 1_555
C44 C43 1_555 1_555
H32 C44 1_555 1_555
C45 C44 1_555 1_555
C46_2 C45 1_555 1_555
C47_2 C46_2 1_555 1_555
C48 C43 1_555 1_555
H33_2 C48 1_555 1_555
C49 C45 1_555 1_555
H34 C49 1_555 1_555
H35 C49 1_555 1_555
H36 C49 1_555 1_555
C50_2 C47_2 1_555 1_555
H37_2 C50_2 1_555 1_555
H38_2 C50_2 1_555 1_555
H39_2 C50_2 1_555 1_555
C51_2 C46_2 1_555 1_555
C52 C51_2 1_555 1_555
H40 C52 1_555 1_555
C53 C52 1_555 1_555
H41 C53 1_555 1_555
N7 C53 1_555 1_555
C54_2 N7 1_555 1_555
H42_2 C54_2 1_555 1_555
C55_2 C51_2 1_555 1_555
H43_2 C55_2 1_555 1_555
Zn7 N7 1_555 1_555
C47_2 C48 1_555 1_555
C54_2 C55_2 1_555 1_555
Zn4 O1_2 1_555 1_555
Zn7 O2_2 1_555 1_555
O1_2 C1_2 1_555 1_555
O2_2 C1_2 1_555 1_555
O5_2 Zn4 1_555 1_555
O6_2 Zn7 1_555 1_555
N3_2 N4_2 1_555 1_555
N4_2 C22_2 1_555 1_555
C1_2 C2_2 1_555 1_555
C2_2 C3_2 1_555 1_555
C3_2 H1_2 1_555 1_555
C6_2 C5_2 1_555 1_555
H3_2 C6_2 1_555 1_555
C7_2 C2_2 1_555 1_555
H4_2 C7_2 1_555 1_555
C15_2 O5_2 1_555 1_555
C16_2 C15_2 1_555 1_555
C17_2 C16_2 1_555 1_555
H9_2 C17_2 1_555 1_555
C18_2 C17_2 1_555 1_555
H10_2 C18_2 1_555 1_555
C19_2 N3_2 1_555 1_555
C20_2 C19_2 1_555 1_555
H11_2 C20_2 1_555 1_555
C21_2 C16_2 1_555 1_555
H12_2 C21_2 1_555 1_555
H15_2 C26_2 1_555 1_555
C27_2 C22_2 1_555 1_555
H16_2 C27_2 1_555 1_555
N5 Zn4 1_555 1_555
C29 N5 1_555 1_555
H17 C29 1_555 1_555
C30 C29 1_555 1_555
H18 C30 1_555 1_555
C31 C30 1_555 1_555
C32 C31 1_555 1_555
H19 C32 1_555 1_555
C33 N5 1_555 1_555
H20 C33 1_555 1_555
C34 C31 1_555 1_555
C35 C34 1_555 1_555
C36 C35 1_555 1_555
H21 C36 1_555 1_555
C37 C36 1_555 1_555
C38 C37 1_555 1_555
H22 C38 1_555 1_555
C39 C34 1_555 1_555
C40 C35 1_555 1_555
H23 C40 1_555 1_555
H24 C40 1_555 1_555
H25 C40 1_555 1_555
C41 C39 1_555 1_555
H26 C41 1_555 1_555
H27 C41 1_555 1_555
H28 C41 1_555 1_555
O6_2 C15_2 1_555 1_555
C6_2 C7_2 1_555 1_555
C18_2 C19_2 1_555 1_555
C20_2 C21_2 1_555 1_555
C26_2 C27_2 1_555 1_555
C32 C33 1_555 1_555
C38 C39 1_555 1_555
H22_2 C38_2 1_555 1_555
C41_2 C39_2 1_555 1_555
H26_2 C41_2 1_555 1_555
H27_2 C41_2 1_555 1_555
H28_2 C41_2 1_555 1_555
H34_2 C49_2 1_555 1_555
H35_2 C49_2 1_555 1_555
H36_2 C49_2 1_555 1_555
C38_2 C39_2 1_555 1_555
N5_2 Zn1 1_555 1_555
C29_2 N5_2 1_555 1_555
H17_2 C29_2 1_555 1_555
C30_2 C29_2 1_555 1_555
H18_2 C30_2 1_555 1_555
C31_2 C30_2 1_555 1_555
C32_2 C31_2 1_555 1_555
H19_2 C32_2 1_555 1_555
C33_2 N5_2 1_555 1_555
H20_2 C33_2 1_555 1_555
C34_2 C31_2 1_555 1_555
C35_2 C34_2 1_555 1_555
C36_2 C35_2 1_555 1_555
H21_2 C36_2 1_555 1_555
C37_2 C36_2 1_555 1_555
C40_2 C35_2 1_555 1_555
H23_2 C40_2 1_555 1_555
H24_2 C40_2 1_555 1_555
H25_2 C40_2 1_555 1_555
N6_2 C37_2 1_555 1_555
H29_2 N6_2 1_555 1_555
C42_2 N6_2 1_555 1_555
H30_2 C42_2 1_555 1_555
H31_2 C42_2 1_555 1_555
C43_2 C42_2 1_555 1_555
C44_2 C43_2 1_555 1_555
C45_2 C44_2 1_555 1_555
C46_3 C45_2 1_555 1_555
C47_3 C46_3 1_555 1_555
C48_2 C43_2 1_555 1_555
H33_3 C48_2 1_555 1_555
C50_3 C47_3 1_555 1_555
H37_3 C50_3 1_555 1_555
H38_3 C50_3 1_555 1_555
H39_3 C50_3 1_555 1_555
C51_3 C46_3 1_555 1_555
C52_2 C51_3 1_555 1_555
H40_2 C52_2 1_555 1_555
C53_2 C52_2 1_555 1_555
H41_2 C53_2 1_555 1_555
N7_2 C53_2 1_555 1_555
C54_3 N7_2 1_555 1_555
H42_3 C54_3 1_555 1_555
C55_3 C51_3 1_555 1_555
H43_3 C55_3 1_555 1_555
Zn5 N7_2 1_555 1_555
O11 Zn1 1_555 1_555
C32_2 C33_2 1_555 1_555
C47_3 C48_2 1_555 1_555
C54_3 C55_3 1_555 1_555
Zn5 O2_3 1_555 1_555
O1_3 C1_3 1_555 1_555
O2_3 C1_3 1_555 1_555
C1_3 C2_3 1_555 1_555
C2_3 C3_3 1_555 1_555
C3_3 H1_3 1_555 1_555
C6_3 C5_3 1_555 1_555
H3_3 C6_3 1_555 1_555
C7_3 C2_3 1_555 1_555
H4_3 C7_3 1_555 1_555
C6_3 C7_3 1_555 1_555
O9 C14_2 1_555 1_555
O10 C14_2 1_555 1_555
O11 C28_2 1_555 1_555
O12 C28_2 1_555 1_555
N1_2 N2_2 1_555 1_555
N2_2 C8_2 1_555 1_555
H2_2 C4_2 1_555 1_555
C8_2 C9_2 1_555 1_555
C9_2 H5_2 1_555 1_555
C10_2 C9_2 1_555 1_555
H6_2 C10_2 1_555 1_555
C11_2 C10_2 1_555 1_555
C12_2 C11_2 1_555 1_555
H7_2 C12_2 1_555 1_555
C13_2 C8_2 1_555 1_555
C14_2 C11_2 1_555 1_555
C23_2 H13_2 1_555 1_555
C24_2 C23_2 1_555 1_555
H14_2 C24_2 1_555 1_555
C25_2 C24_2 1_555 1_555
C28_2 C25_2 1_555 1_555
C12_2 C13_2 1_555 1_555
O7_2 C28_3 1_555 1_555
O8_2 C28_3 1_555 1_555
C23_3 H13_3 1_555 1_555
C24_3 C23_3 1_555 1_555
H14_3 C24_3 1_555 1_555
C25_3 C24_3 1_555 1_555
C28_3 C25_3 1_555 1_555
Zn3 O7_2 1_555 1_555
Zn6 O8_2 1_555 1_555
O3_2 C14_3 1_555 1_555
O4_2 C14_3 1_555 1_555
N1_3 N2_3 1_555 1_555
N2_3 C8_3 1_555 1_555
H2_3 C4_3 1_555 1_555
C8_3 C9_3 1_555 1_555
C9_3 H5_3 1_555 1_555
C10_3 C9_3 1_555 1_555
H6_3 C10_3 1_555 1_555
C11_3 C10_3 1_555 1_555
C12_3 C11_3 1_555 1_555
H7_3 C12_3 1_555 1_555
C13_3 C8_3 1_555 1_555
C14_3 C11_3 1_555 1_555
Zn3 O3_2 1_555 1_555
Zn6 O4_2 1_555 1_555
C12_3 C13_3 1_555 1_555
N5_3 Zn1_2 1_555 1_555
C29_3 N5_3 1_555 1_555
H17_3 C29_3 1_555 1_555
C30_3 C29_3 1_555 1_555
H18_3 C30_3 1_555 1_555
C31_3 C30_3 1_555 1_555
C32_3 C31_3 1_555 1_555
H19_3 C32_3 1_555 1_555
C33_3 N5_3 1_555 1_555
H20_3 C33_3 1_555 1_555
C34_3 C31_3 1_555 1_555
C35_3 C34_3 1_555 1_555
C36_3 C35_3 1_555 1_555
H21_3 C36_3 1_555 1_555
C37_3 C36_3 1_555 1_555
C40_3 C35_3 1_555 1_555
H23_3 C40_3 1_555 1_555
H24_3 C40_3 1_555 1_555
H25_3 C40_3 1_555 1_555
N6_3 C37_3 1_555 1_555
H29_3 N6_3 1_555 1_555
C42_3 N6_3 1_555 1_555
H30_3 C42_3 1_555 1_555
H31_3 C42_3 1_555 1_555
C43_3 C42_3 1_555 1_555
C44_3 C43_3 1_555 1_555
C45_3 C44_3 1_555 1_555
C48_3 C43_3 1_555 1_555
H40_3 C52_3 1_555 1_555
C53_3 C52_3 1_555 1_555
H41_3 C53_3 1_555 1_555
O11_2 Zn1_2 1_555 1_555
C32_3 C33_3 1_555 1_555
H22_3 C38_3 1_555 1_555
C41_3 C39_3 1_555 1_555
H26_3 C41_3 1_555 1_555
H27_3 C41_3 1_555 1_555
H28_3 C41_3 1_555 1_555
H34_3 C49_3 1_555 1_555
H35_3 C49_3 1_555 1_555
H36_3 C49_3 1_555 1_555
C38_3 C39_3 1_555 1_555
Zn3 O1_4 1_555 1_555
Zn6 O2_4 1_555 1_555
O1_4 C1_4 1_555 1_555
O2_4 C1_4 1_555 1_555
O9_2 C14_4 1_555 1_555
O10_2 C14_4 1_555 1_555
O5_3 Zn3 1_555 1_555
O6_3 Zn6 1_555 1_555
O11_2 C28_4 1_555 1_555
O12_2 C28_4 1_555 1_555
N1_4 N2_4 1_555 1_555
N2_4 C8_4 1_555 1_555
N3_3 N4_3 1_555 1_555
N4_3 C22_3 1_555 1_555
C1_4 C2_4 1_555 1_555
C2_4 C3_4 1_555 1_555
C3_4 H1_4 1_555 1_555
C4_4 C3_4 1_555 1_555
H2_4 C4_4 1_555 1_555
C5_4 N1_4 1_555 1_555
C6_4 C5_4 1_555 1_555
H3_4 C6_4 1_555 1_555
C7_4 C2_4 1_555 1_555
H4_4 C7_4 1_555 1_555
C8_4 C9_4 1_555 1_555
C9_4 H5_4 1_555 1_555
C10_4 C9_4 1_555 1_555
H6_4 C10_4 1_555 1_555
C11_4 C10_4 1_555 1_555
C12_4 C11_4 1_555 1_555
H7_4 C12_4 1_555 1_555
C13_4 C8_4 1_555 1_555
H8_4 C13_4 1_555 1_555
C14_4 C11_4 1_555 1_555
C15_3 O5_3 1_555 1_555
C16_3 C15_3 1_555 1_555
C17_3 C16_3 1_555 1_555
H9_3 C17_3 1_555 1_555
C18_3 C17_3 1_555 1_555
H10_3 C18_3 1_555 1_555
C19_3 N3_3 1_555 1_555
C20_3 C19_3 1_555 1_555
H11_3 C20_3 1_555 1_555
C21_3 C16_3 1_555 1_555
H12_3 C21_3 1_555 1_555
C22_3 C23_4 1_555 1_555
C23_4 H13_4 1_555 1_555
C24_4 C23_4 1_555 1_555
H14_4 C24_4 1_555 1_555
C25_4 C24_4 1_555 1_555
C26_3 C25_4 1_555 1_555
H15_3 C26_3 1_555 1_555
C27_3 C22_3 1_555 1_555
H16_3 C27_3 1_555 1_555
C28_4 C25_4 1_555 1_555
N5_4 Zn3 1_555 1_555
C29_4 N5_4 1_555 1_555
H17_4 C29_4 1_555 1_555
C30_4 C29_4 1_555 1_555
H18_4 C30_4 1_555 1_555
C31_4 C30_4 1_555 1_555
C32_4 C31_4 1_555 1_555
H19_4 C32_4 1_555 1_555
C33_4 N5_4 1_555 1_555
H20_4 C33_4 1_555 1_555
C34_4 C31_4 1_555 1_555
C35_4 C34_4 1_555 1_555
C36_4 C35_4 1_555 1_555
H21_4 C36_4 1_555 1_555
C37_4 C36_4 1_555 1_555
C38_4 C37_4 1_555 1_555
H22_4 C38_4 1_555 1_555
C39_4 C34_4 1_555 1_555
C40_4 C35_4 1_555 1_555
H23_4 C40_4 1_555 1_555
H24_4 C40_4 1_555 1_555
H25_4 C40_4 1_555 1_555
C41_4 C39_4 1_555 1_555
H26_4 C41_4 1_555 1_555
H27_4 C41_4 1_555 1_555
H28_4 C41_4 1_555 1_555
N8_2 Zn6 1_555 1_555
O6_3 C15_3 1_555 1_555
C4_4 C5_4 1_555 1_555
C6_4 C7_4 1_555 1_555
C12_4 C13_4 1_555 1_555
C18_3 C19_3 1_555 1_555
C20_3 C21_3 1_555 1_555
C26_3 C27_3 1_555 1_555
C32_4 C33_4 1_555 1_555
C38_4 C39_4 1_555 1_555
C47_4 C46_4 1_555 1_555
C50_4 C47_4 1_555 1_555
H37_4 C50_4 1_555 1_555
H38_4 C50_4 1_555 1_555
H39_4 C50_4 1_555 1_555
C51_4 C46_4 1_555 1_555
C54_4 N8_2 1_555 1_555
H42_4 C54_4 1_555 1_555
C55_4 C51_4 1_555 1_555
H43_4 C55_4 1_555 1_555
C54_4 C55_4 1_555 1_555
N3_4 N4_4 1_555 1_555
N4_4 C22_4 1_555 1_555
C15_4 O5_4 1_555 1_555
C16_4 C15_4 1_555 1_555
C17_4 C16_4 1_555 1_555
H9_4 C17_4 1_555 1_555
C18_4 C17_4 1_555 1_555
H10_4 C18_4 1_555 1_555
C19_4 N3_4 1_555 1_555
C20_4 C19_4 1_555 1_555
H11_4 C20_4 1_555 1_555
C21_4 C16_4 1_555 1_555
H12_4 C21_4 1_555 1_555
H15_4 C26_4 1_555 1_555
C27_4 C22_4 1_555 1_555
H16_4 C27_4 1_555 1_555
O6_4 C15_4 1_555 1_555
C18_4 C19_4 1_555 1_555
C20_4 C21_4 1_555 1_555
C26_4 C27_4 1_555 1_555
H29_4 N6_4 1_555 1_555
C42_4 N6_4 1_555 1_555
H30_4 C42_4 1_555 1_555
H31_4 C42_4 1_555 1_555
C43_4 C42_4 1_555 1_555
C44_4 C43_4 1_555 1_555
H32_4 C44_4 1_555 1_555
C45_4 C44_4 1_555 1_555
C48_4 C43_4 1_555 1_555
C49_4 C45_4 1_555 1_555
H34_4 C49_4 1_555 1_555
H35_4 C49_4 1_555 1_555
H36_4 C49_4 1_555 1_555
H40_4 C52_4 1_555 1_555
C53_4 C52_4 1_555 1_555
H41_4 C53_4 1_555 1_555

#END
