
###############################################################################
#
# This file contains modified crystal structure data generated from the
# MOF subset of the Cambridge Structural Database (CSD) v543 
# hosted by the Cambridge Crystallographic Data Centre (CCDC).
#
# This work is licensed under the Creative Commons
# Attribution-NonCommercial-ShareAlike 4.0 International License.
# To view a copy of this license, visit
# http://creativecommons.org/licenses/by-nc-sa/4.0/
# or send a letter to
# Creative Commons, PO Box 1866, Mountain View, CA 94042, USA.
#
# CIF created using the CSD Python API on 29 September 2022
# The structure has been converted into the P1 space group
# The structure has a 3D framework
# The original CSD entry HOJNUR01 is in the orthorhombic crystal system
# The framework has been calculated to contain at least 10.0% void space
# The void calculation uses a probe of radius 1.32A, grid spacing 0.4
#
###############################################################################

data_HOJNUR01
_chemical_formula_moiety         '(C192 H96 O96 Sc16)n'
_symmetry_cell_setting           triclinic
_symmetry_space_group_name_H-M   'P 1'
_symmetry_Int_Tables_number      1
_space_group_name_Hall           'P 1'
loop_
_symmetry_equiv_pos_site_id
_symmetry_equiv_pos_as_xyz
1 x,y,z
_cell_length_a                   8.7682(14)
_cell_length_b                   20.4694(19)
_cell_length_c                   33.851(5)
_cell_angle_alpha                90
_cell_angle_beta                 90
_cell_angle_gamma                90
_cell_volume                     6075.57
loop_
_atom_site_label
_atom_site_type_symbol
_atom_site_fract_x
_atom_site_fract_y
_atom_site_fract_z
H11 H 0.0057 0.5257 0.7564
Sc3 Sc 0.1250 0.6250 0.86505(9)
Sc1 Sc 0.3750 0.3750 0.63495(9)
O1 O 0.2456(11) 0.3317(5) 0.6790(3)
C1 C 0.1063(10) 0.3197(8) 0.6817(3)
O2 O 0.0094(12) 0.3369(6) 0.6570(3)
C2 C 0.0514(10) 0.2846(8) 0.7176(3)
C3 C 0.1520(10) 0.2649(7) 0.7462(3)
C4 C 0.1014(11) 0.2288(7) 0.7781(3)
O3 O 0.2473(9) 0.4569(4) 0.6334(3)
C5 C 0.1250 0.4855(4) 0.6250
C6 C 0.1250 0.5582(3) 0.6250
C7 C 0.2597(7) 0.5915(2) 0.6247(4)
H1 H 0.2557 0.2757 0.7436
H2 H 0.1725 0.2144 0.7970
H3 H 0.3526 0.5687 0.6260
O6 O 0.2473(9) 0.7931(4) 0.6166(3)
C12 C 0.1250 0.7645(4) 0.6250
C13 C 0.1250 0.6918(3) 0.6250
C14 C 0.2597(7) 0.6585(2) 0.6253(4)
H6 H 0.3526 0.6813 0.6240
O7 O 0.0027(9) 0.4569(4) 0.6166(3)
O8 O 0.0027(9) 0.7931(4) 0.6334(3)
O9 O 0.5044(11) 0.4183(5) 0.6790(3)
C17 C 0.6437(10) 0.4303(8) 0.6817(3)
O10 O 0.7406(12) 0.4131(6) 0.6570(3)
C18 C 0.6986(10) 0.4654(8) 0.7176(3)
C19 C 0.5980(10) 0.4851(7) 0.7462(3)
C20 C 0.6486(11) 0.5212(7) 0.7781(3)
H9 H 0.4943 0.4743 0.7436
H10 H 0.5775 0.5356 0.7970
O11 O 0.9956(11) 0.5817(5) 0.8210(3)
C21 C 0.8563(10) 0.5697(8) 0.8183(3)
O12 O 0.7594(12) 0.5869(6) 0.8430(3)
C22 C 0.8014(10) 0.5346(8) 0.7824(3)
C23 C 0.9020(10) 0.5149(7) 0.7538(3)
C24 C 0.8514(11) 0.4788(7) 0.7219(3)
H12 H 0.9225 0.4644 0.7030
Sc5 Sc 0.6250 0.6250 0.88495(9)
Sc6 Sc 0.3750 0.8750 0.61505(9)
Sc7 Sc 0.1250 0.1250 0.88495(9)
Sc9 Sc 0.8750 0.3750 0.61505(9)
O15 O 0.5094(12) 0.4131(6) 0.5930(3)
O16 O 0.2406(12) 0.3369(6) 0.5930(3)
O20 O 0.5027(9) 0.2931(4) 0.6334(3)
O4 O 0.7544(11) 0.1683(5) 0.8210(3)
C8 C 0.8937(10) 0.1803(8) 0.8183(3)
O5 O 0.9906(12) 0.1631(6) 0.8430(3)
C9 C 0.9486(10) 0.2154(8) 0.7824(3)
C10 C 0.8480(10) 0.2351(7) 0.7538(3)
C11 C 0.8986(11) 0.2712(7) 0.7219(3)
H4 H 0.7443 0.2243 0.7564
H5 H 0.8275 0.2856 0.7030
C15 C 0.9903(7) 0.5915(2) 0.6253(4)
H7 H 0.8974 0.5687 0.6240
C16 C 0.9903(7) 0.6585(2) 0.6247(4)
H8 H 0.8974 0.6813 0.6260
Sc2 Sc 0.6250 0.1250 0.86505(9)
Sc4 Sc 0.8750 0.8750 0.63495(9)
O13 O 0.4956(11) 0.0817(5) 0.8210(3)
O14 O 0.4906(12) 0.0869(6) 0.9070(3)
O17 O 0.7594(12) 0.1631(6) 0.9070(3)
O18 O 0.7527(9) 0.0431(4) 0.8666(3)
O19 O 0.4973(9) 0.2069(4) 0.8666(3)
H11_2 H 0.0057 0.0257 0.2564
Sc3_2 Sc 0.1250 0.1250 0.36505(9)
C6_2 C 0.1250 0.0582(3) 0.1250
C7_2 C 0.2597(7) 0.0915(2) 0.1247(4)
H3_2 H 0.3526 0.0687 0.1260
O6_2 O 0.2473(9) 0.2931(4) 0.1166(3)
C12_2 C 0.1250 0.2645(4) 0.1250
C13_2 C 0.1250 0.1918(3) 0.1250
C14_2 C 0.2597(7) 0.1585(2) 0.1253(4)
H6_2 H 0.3526 0.1813 0.1240
O8_2 O 0.0027(9) 0.2931(4) 0.1334(3)
C20_2 C 0.6486(11) 0.0212(7) 0.2781(3)
H10_2 H 0.5775 0.0356 0.2970
O11_2 O 0.9956(11) 0.0817(5) 0.3210(3)
C21_2 C 0.8563(10) 0.0697(8) 0.3183(3)
O12_2 O 0.7594(12) 0.0869(6) 0.3430(3)
C22_2 C 0.8014(10) 0.0346(8) 0.2824(3)
C23_2 C 0.9020(10) 0.0149(7) 0.2538(3)
Sc5_2 Sc 0.6250 0.1250 0.38495(9)
Sc6_2 Sc 0.3750 0.3750 0.11505(9)
Sc1_2 Sc 0.3750 0.8750 0.13495(9)
O1_2 O 0.2456(11) 0.8317(5) 0.1790(3)
C1_2 C 0.1063(10) 0.8197(8) 0.1817(3)
O2_2 O 0.0094(12) 0.8369(6) 0.1570(3)
C2_2 C 0.0514(10) 0.7846(8) 0.2176(3)
C3_2 C 0.1520(10) 0.7649(7) 0.2462(3)
C4_2 C 0.1014(11) 0.7288(7) 0.2781(3)
O3_2 O 0.2473(9) 0.9569(4) 0.1334(3)
C5_2 C 0.1250 0.9855(4) 0.1250
H1_2 H 0.2557 0.7757 0.2436
H2_2 H 0.1725 0.7144 0.2970
O7_2 O 0.0027(9) 0.9569(4) 0.1166(3)
O9_2 O 0.5044(11) 0.9183(5) 0.1790(3)
C17_2 C 0.6437(10) 0.9303(8) 0.1817(3)
O10_2 O 0.7406(12) 0.9131(6) 0.1570(3)
C18_2 C 0.6986(10) 0.9654(8) 0.2176(3)
C19_2 C 0.5980(10) 0.9851(7) 0.2462(3)
H9_2 H 0.4943 0.9743 0.2436
C24_2 C 0.8514(11) 0.9788(7) 0.2219(3)
H12_2 H 0.9225 0.9644 0.2030
Sc7_2 Sc 0.1250 0.6250 0.38495(9)
Sc9_2 Sc 0.8750 0.8750 0.11505(9)
O15_2 O 0.5094(12) 0.9131(6) 0.0930(3)
O16_2 O 0.2406(12) 0.8369(6) 0.0930(3)
O20_2 O 0.5027(9) 0.7931(4) 0.1334(3)
C15_2 C 0.9903(7) 0.0915(2) 0.1253(4)
H7_2 H 0.8974 0.0687 0.1240
C16_2 C 0.9903(7) 0.1585(2) 0.1247(4)
H8_2 H 0.8974 0.1813 0.1260
Sc4_2 Sc 0.8750 0.3750 0.13495(9)
O4_2 O 0.7544(11) 0.6683(5) 0.3210(3)
C8_2 C 0.8937(10) 0.6803(8) 0.3183(3)
O5_2 O 0.9906(12) 0.6631(6) 0.3430(3)
C9_2 C 0.9486(10) 0.7154(8) 0.2824(3)
C10_2 C 0.8480(10) 0.7351(7) 0.2538(3)
C11_2 C 0.8986(11) 0.7712(7) 0.2219(3)
H4_2 H 0.7443 0.7243 0.2564
H5_2 H 0.8275 0.7856 0.2030
Sc2_2 Sc 0.6250 0.6250 0.36505(9)
O13_2 O 0.4956(11) 0.5817(5) 0.3210(3)
O14_2 O 0.4906(12) 0.5869(6) 0.4070(3)
O17_2 O 0.7594(12) 0.6631(6) 0.4070(3)
O18_2 O 0.7527(9) 0.5431(4) 0.3666(3)
O19_2 O 0.4973(9) 0.7069(4) 0.3666(3)
O9_3 O 0.0044(11) 0.4183(5) 0.1790(3)
C17_3 C 0.1437(10) 0.4303(8) 0.1817(3)
O10_3 O 0.2406(12) 0.4131(6) 0.1570(3)
C18_3 C 0.1986(10) 0.4654(8) 0.2176(3)
C19_3 C 0.0980(10) 0.4851(7) 0.2462(3)
C20_3 C 0.1486(11) 0.5212(7) 0.2781(3)
H10_3 H 0.0775 0.5356 0.2970
C21_3 C 0.3563(10) 0.5697(8) 0.3183(3)
O12_3 O 0.2594(12) 0.5869(6) 0.3430(3)
C22_3 C 0.3014(10) 0.5346(8) 0.2824(3)
C23_3 C 0.4020(10) 0.5149(7) 0.2538(3)
C24_3 C 0.3514(11) 0.4788(7) 0.2219(3)
H11_3 H 0.5057 0.5257 0.2564
H12_3 H 0.4225 0.4644 0.2030
O15_3 O 0.0094(12) 0.4131(6) 0.0930(3)
O1_3 O 0.7456(11) 0.3317(5) 0.1790(3)
C1_3 C 0.6063(10) 0.3197(8) 0.1817(3)
O2_3 O 0.5094(12) 0.3369(6) 0.1570(3)
C2_3 C 0.5514(10) 0.2846(8) 0.2176(3)
C3_3 C 0.6520(10) 0.2649(7) 0.2462(3)
C4_3 C 0.6014(11) 0.2288(7) 0.2781(3)
O3_3 O 0.7473(9) 0.4569(4) 0.1334(3)
C5_3 C 0.6250 0.4855(4) 0.1250
C6_3 C 0.6250 0.5582(3) 0.1250
C7_3 C 0.7597(7) 0.5915(2) 0.1247(4)
H1_3 H 0.7557 0.2757 0.2436
H2_3 H 0.6725 0.2144 0.2970
H3_3 H 0.8526 0.5687 0.1260
O4_3 O 0.2544(11) 0.1683(5) 0.3210(3)
C8_3 C 0.3937(10) 0.1803(8) 0.3183(3)
O5_3 O 0.4906(12) 0.1631(6) 0.3430(3)
C9_3 C 0.4486(10) 0.2154(8) 0.2824(3)
C10_3 C 0.3480(10) 0.2351(7) 0.2538(3)
C11_3 C 0.3986(11) 0.2712(7) 0.2219(3)
H4_3 H 0.2443 0.2243 0.2564
H5_3 H 0.3275 0.2856 0.2030
O6_3 O 0.7473(9) 0.7931(4) 0.1166(3)
C12_3 C 0.6250 0.7645(4) 0.1250
C13_3 C 0.6250 0.6918(3) 0.1250
C14_3 C 0.7597(7) 0.6585(2) 0.1253(4)
H6_3 H 0.8526 0.6813 0.1240
O7_3 O 0.5027(9) 0.4569(4) 0.1166(3)
C15_3 C 0.4903(7) 0.5915(2) 0.1253(4)
H7_3 H 0.3974 0.5687 0.1240
C16_3 C 0.4903(7) 0.6585(2) 0.1247(4)
H8_3 H 0.3974 0.6813 0.1260
H9_3 H 0.9943 0.4743 0.2436
O16_3 O 0.7406(12) 0.3369(6) 0.0930(3)
O17_3 O 0.2594(12) 0.1631(6) 0.4070(3)
O18_3 O 0.2527(9) 0.0431(4) 0.3666(3)
O14_3 O 0.9906(12) 0.0869(6) 0.4070(3)
O19_3 O 0.9973(9) 0.2069(4) 0.3666(3)
C20_4 C 0.1486(11) 0.0212(7) 0.7781(3)
H10_4 H 0.0775 0.0356 0.7970
C21_4 C 0.3563(10) 0.0697(8) 0.8183(3)
O12_4 O 0.2594(12) 0.0869(6) 0.8430(3)
C22_4 C 0.3014(10) 0.0346(8) 0.7824(3)
C23_4 C 0.4020(10) 0.0149(7) 0.7538(3)
H11_4 H 0.5057 0.0257 0.7564
O9_4 O 0.0044(11) 0.9183(5) 0.6790(3)
C17_4 C 0.1437(10) 0.9303(8) 0.6817(3)
O10_4 O 0.2406(12) 0.9131(6) 0.6570(3)
C18_4 C 0.1986(10) 0.9654(8) 0.7176(3)
C19_4 C 0.0980(10) 0.9851(7) 0.7462(3)
C24_4 C 0.3514(11) 0.9788(7) 0.7219(3)
H12_4 H 0.4225 0.9644 0.7030
O15_4 O 0.0094(12) 0.9131(6) 0.5930(3)
C6_4 C 0.6250 0.0582(3) 0.6250
C7_4 C 0.7597(7) 0.0915(2) 0.6247(4)
H3_4 H 0.8526 0.0687 0.6260
O6_4 O 0.7473(9) 0.2931(4) 0.6166(3)
C12_4 C 0.6250 0.2645(4) 0.6250
C13_4 C 0.6250 0.1918(3) 0.6250
C14_4 C 0.7597(7) 0.1585(2) 0.6253(4)
H6_4 H 0.8526 0.1813 0.6240
C15_4 C 0.4903(7) 0.0915(2) 0.6253(4)
H7_4 H 0.3974 0.0687 0.6240
C16_4 C 0.4903(7) 0.1585(2) 0.6247(4)
H8_4 H 0.3974 0.1813 0.6260
O1_4 O 0.7456(11) 0.8317(5) 0.6790(3)
C1_4 C 0.6063(10) 0.8197(8) 0.6817(3)
O2_4 O 0.5094(12) 0.8369(6) 0.6570(3)
C2_4 C 0.5514(10) 0.7846(8) 0.7176(3)
C3_4 C 0.6520(10) 0.7649(7) 0.7462(3)
C4_4 C 0.6014(11) 0.7288(7) 0.7781(3)
O3_4 O 0.7473(9) 0.9569(4) 0.6334(3)
C5_4 C 0.6250 0.9855(4) 0.6250
H1_4 H 0.7557 0.7757 0.7436
H2_4 H 0.6725 0.7144 0.7970
O4_4 O 0.2544(11) 0.6683(5) 0.8210(3)
C8_4 C 0.3937(10) 0.6803(8) 0.8183(3)
O5_4 O 0.4906(12) 0.6631(6) 0.8430(3)
C9_4 C 0.4486(10) 0.7154(8) 0.7824(3)
C10_4 C 0.3480(10) 0.7351(7) 0.7538(3)
C11_4 C 0.3986(11) 0.7712(7) 0.7219(3)
H4_4 H 0.2443 0.7243 0.7564
H5_4 H 0.3275 0.7856 0.7030
O7_4 O 0.5027(9) 0.9569(4) 0.6166(3)
H9_4 H 0.9943 0.9743 0.7436
O16_4 O 0.7406(12) 0.8369(6) 0.5930(3)
O17_4 O 0.2594(12) 0.6631(6) 0.9070(3)
O18_4 O 0.2527(9) 0.5431(4) 0.8666(3)
O14_4 O 0.9906(12) 0.5869(6) 0.9070(3)
O19_4 O 0.9973(9) 0.7069(4) 0.8666(3)
H11_5 H 0.0057 0.7243 0.4936
C4_5 C 0.1014(11) 0.0212(7) 0.4719(3)
H2_5 H 0.1725 0.0356 0.4530
O1_5 O 0.2456(11) 0.9183(5) 0.5710(3)
C1_5 C 0.1063(10) 0.9303(8) 0.5683(3)
C2_5 C 0.0514(10) 0.9654(8) 0.5324(3)
C3_5 C 0.1520(10) 0.9851(7) 0.5038(3)
H1_5 H 0.2557 0.9743 0.5064
O9_5 O 0.5044(11) 0.8317(5) 0.5710(3)
C17_5 C 0.6437(10) 0.8197(8) 0.5683(3)
C18_5 C 0.6986(10) 0.7846(8) 0.5324(3)
C19_5 C 0.5980(10) 0.7649(7) 0.5038(3)
C20_5 C 0.6486(11) 0.7288(7) 0.4719(3)
H9_5 H 0.4943 0.7757 0.5064
H10_5 H 0.5775 0.7144 0.4530
O11_3 O 0.9956(11) 0.6683(5) 0.4290(3)
C21_5 C 0.8563(10) 0.6803(8) 0.4317(3)
C22_5 C 0.8014(10) 0.7154(8) 0.4676(3)
C23_5 C 0.9020(10) 0.7351(7) 0.4962(3)
C24_5 C 0.8514(11) 0.7712(7) 0.5281(3)
H12_5 H 0.9225 0.7856 0.5470
O4_5 O 0.7544(11) 0.0817(5) 0.4290(3)
C8_5 C 0.8937(10) 0.0697(8) 0.4317(3)
C9_5 C 0.9486(10) 0.0346(8) 0.4676(3)
C10_5 C 0.8480(10) 0.0149(7) 0.4962(3)
H4_5 H 0.7443 0.0257 0.4936
O13_3 O 0.4956(11) 0.1683(5) 0.4290(3)
O18_5 O 0.7527(9) 0.2069(4) 0.3834(3)
O19_5 O 0.4973(9) 0.0431(4) 0.3834(3)
C11_5 C 0.8986(11) 0.9788(7) 0.5281(3)
H5_5 H 0.8275 0.9644 0.5470
H11_6 H 0.0057 0.2243 0.9936
O1_6 O 0.2456(11) 0.4183(5) 0.0710(3)
C1_6 C 0.1063(10) 0.4303(8) 0.0683(3)
C2_6 C 0.0514(10) 0.4654(8) 0.0324(3)
C3_6 C 0.1520(10) 0.4851(7) 0.0038(3)
H1_6 H 0.2557 0.4743 0.0064
O9_6 O 0.5044(11) 0.3317(5) 0.0710(3)
C17_6 C 0.6437(10) 0.3197(8) 0.0683(3)
C18_6 C 0.6986(10) 0.2846(8) 0.0324(3)
C19_6 C 0.5980(10) 0.2649(7) 0.0038(3)
H9_6 H 0.4943 0.2757 0.0064
C24_6 C 0.8514(11) 0.2712(7) 0.0281(3)
H12_6 H 0.9225 0.2856 0.0470
C4_6 C 0.1014(11) 0.5212(7) 0.9719(3)
H2_6 H 0.1725 0.5356 0.9530
C20_6 C 0.6486(11) 0.2288(7) 0.9719(3)
H10_6 H 0.5775 0.2144 0.9530
O11_4 O 0.9956(11) 0.1683(5) 0.9290(3)
C21_6 C 0.8563(10) 0.1803(8) 0.9317(3)
C22_6 C 0.8014(10) 0.2154(8) 0.9676(3)
C23_6 C 0.9020(10) 0.2351(7) 0.9962(3)
C11_6 C 0.8986(11) 0.4788(7) 0.0281(3)
H5_6 H 0.8275 0.4644 0.0470
O4_6 O 0.7544(11) 0.5817(5) 0.9290(3)
C8_6 C 0.8937(10) 0.5697(8) 0.9317(3)
C9_6 C 0.9486(10) 0.5346(8) 0.9676(3)
C10_6 C 0.8480(10) 0.5149(7) 0.9962(3)
H4_6 H 0.7443 0.5257 0.9936
O13_4 O 0.4956(11) 0.6683(5) 0.9290(3)
O18_6 O 0.7527(9) 0.7069(4) 0.8834(3)
O19_6 O 0.4973(9) 0.5431(4) 0.8834(3)
O9_7 O 0.0044(11) 0.8317(5) 0.0710(3)
C17_7 C 0.1437(10) 0.8197(8) 0.0683(3)
C18_7 C 0.1986(10) 0.7846(8) 0.0324(3)
C19_7 C 0.0980(10) 0.7649(7) 0.0038(3)
C24_7 C 0.3514(11) 0.7712(7) 0.0281(3)
H12_7 H 0.4225 0.7856 0.0470
C20_7 C 0.1486(11) 0.7288(7) 0.9719(3)
H10_7 H 0.0775 0.7144 0.9530
C21_7 C 0.3563(10) 0.6803(8) 0.9317(3)
C22_7 C 0.3014(10) 0.7154(8) 0.9676(3)
C23_7 C 0.4020(10) 0.7351(7) 0.9962(3)
H11_7 H 0.5057 0.7243 0.9936
C4_7 C 0.6014(11) 0.0212(7) 0.9719(3)
H2_7 H 0.6725 0.0356 0.9530
O4_7 O 0.2544(11) 0.0817(5) 0.9290(3)
C8_7 C 0.3937(10) 0.0697(8) 0.9317(3)
C9_7 C 0.4486(10) 0.0346(8) 0.9676(3)
C10_7 C 0.3480(10) 0.0149(7) 0.9962(3)
H4_7 H 0.2443 0.0257 0.9936
O18_7 O 0.2527(9) 0.2069(4) 0.8834(3)
O1_7 O 0.7456(11) 0.9183(5) 0.0710(3)
C1_7 C 0.6063(10) 0.9303(8) 0.0683(3)
C2_7 C 0.5514(10) 0.9654(8) 0.0324(3)
C3_7 C 0.6520(10) 0.9851(7) 0.0038(3)
H1_7 H 0.7557 0.9743 0.0064
C11_7 C 0.3986(11) 0.9788(7) 0.0281(3)
H5_7 H 0.3275 0.9644 0.0470
H9_7 H 0.9943 0.7757 0.0064
O19_7 O 0.9973(9) 0.0431(4) 0.8834(3)
O9_8 O 0.0044(11) 0.3317(5) 0.5710(3)
C17_8 C 0.1437(10) 0.3197(8) 0.5683(3)
C18_8 C 0.1986(10) 0.2846(8) 0.5324(3)
C19_8 C 0.0980(10) 0.2649(7) 0.5038(3)
C20_8 C 0.1486(11) 0.2288(7) 0.4719(3)
H10_8 H 0.0775 0.2144 0.4530
C21_8 C 0.3563(10) 0.1803(8) 0.4317(3)
C22_8 C 0.3014(10) 0.2154(8) 0.4676(3)
C23_8 C 0.4020(10) 0.2351(7) 0.4962(3)
C24_8 C 0.3514(11) 0.2712(7) 0.5281(3)
H11_8 H 0.5057 0.2243 0.4936
H12_8 H 0.4225 0.2856 0.5470
O1_8 O 0.7456(11) 0.4183(5) 0.5710(3)
C1_8 C 0.6063(10) 0.4303(8) 0.5683(3)
C2_8 C 0.5514(10) 0.4654(8) 0.5324(3)
C3_8 C 0.6520(10) 0.4851(7) 0.5038(3)
C4_8 C 0.6014(11) 0.5212(7) 0.4719(3)
H1_8 H 0.7557 0.4743 0.5064
H2_8 H 0.6725 0.5356 0.4530
O4_8 O 0.2544(11) 0.5817(5) 0.4290(3)
C8_8 C 0.3937(10) 0.5697(8) 0.4317(3)
C9_8 C 0.4486(10) 0.5346(8) 0.4676(3)
C10_8 C 0.3480(10) 0.5149(7) 0.4962(3)
C11_8 C 0.3986(11) 0.4788(7) 0.5281(3)
H4_8 H 0.2443 0.5257 0.4936
H5_8 H 0.3275 0.4644 0.5470
H9_8 H 0.9943 0.2757 0.5064
O18_8 O 0.2527(9) 0.7069(4) 0.3834(3)
O19_8 O 0.9973(9) 0.5431(4) 0.3834(3)
C15_5 C 0.0097(7) 0.4085(2) 0.3747(4)
H7_5 H 0.1026 0.4313 0.3760
C16_5 C 0.0097(7) 0.3415(2) 0.3753(4)
H8_5 H 0.1026 0.3187 0.3740
C5_5 C 0.8750 0.5145(4) 0.3750
C6_5 C 0.8750 0.4418(3) 0.3750
C7_5 C 0.7403(7) 0.4085(2) 0.3753(4)
H3_5 H 0.6474 0.4313 0.3740
C12_5 C 0.8750 0.2355(4) 0.3750
C13_5 C 0.8750 0.3082(3) 0.3750
C14_5 C 0.7403(7) 0.3415(2) 0.3747(4)
H6_5 H 0.6474 0.3187 0.3760
C15_6 C 0.0097(7) 0.9085(2) 0.8747(4)
H7_6 H 0.1026 0.9313 0.8760
C16_6 C 0.0097(7) 0.8415(2) 0.8753(4)
H8_6 H 0.1026 0.8187 0.8740
C5_6 C 0.8750 0.0145(4) 0.8750
C6_6 C 0.8750 0.9418(3) 0.8750
C7_6 C 0.7403(7) 0.9085(2) 0.8753(4)
H3_6 H 0.6474 0.9313 0.8740
C12_6 C 0.8750 0.7355(4) 0.8750
C13_6 C 0.8750 0.8082(3) 0.8750
C14_6 C 0.7403(7) 0.8415(2) 0.8747(4)
H6_6 H 0.6474 0.8187 0.8760
C5_7 C 0.3750 0.5145(4) 0.8750
C6_7 C 0.3750 0.4418(3) 0.8750
C7_7 C 0.2403(7) 0.4085(2) 0.8753(4)
H3_7 H 0.1474 0.4313 0.8740
C12_7 C 0.3750 0.2355(4) 0.8750
C13_7 C 0.3750 0.3082(3) 0.8750
C14_7 C 0.2403(7) 0.3415(2) 0.8747(4)
H6_7 H 0.1474 0.3187 0.8760
C15_7 C 0.5097(7) 0.4085(2) 0.8747(4)
H7_7 H 0.6026 0.4313 0.8760
C16_7 C 0.5097(7) 0.3415(2) 0.8753(4)
H8_7 H 0.6026 0.3187 0.8740
C5_8 C 0.3750 0.0145(4) 0.3750
C6_8 C 0.3750 0.9418(3) 0.3750
C7_8 C 0.2403(7) 0.9085(2) 0.3753(4)
H3_8 H 0.1474 0.9313 0.3740
C12_8 C 0.3750 0.7355(4) 0.3750
C13_8 C 0.3750 0.8082(3) 0.3750
C14_8 C 0.2403(7) 0.8415(2) 0.3747(4)
H6_8 H 0.1474 0.8187 0.3760
C15_8 C 0.5097(7) 0.9085(2) 0.3747(4)
H7_8 H 0.6026 0.9313 0.3760
C16_8 C 0.5097(7) 0.8415(2) 0.3753(4)
H8_8 H 0.6026 0.8187 0.3740
loop_
_geom_bond_atom_site_label_1
_geom_bond_atom_site_label_2
_geom_bond_site_symmetry_1
_geom_bond_site_symmetry_2
Sc1 O1 1_555 1_555
O1 C1 1_555 1_555
C1 O2 1_555 1_555
C2 C1 1_555 1_555
C3 C2 1_555 1_555
C4 C3 1_555 1_555
O3 Sc1 1_555 1_555
C5 O3 1_555 1_555
C6 C5 1_555 1_555
C7 C6 1_555 1_555
H1 C3 1_555 1_555
H2 C4 1_555 1_555
H3 C7 1_555 1_555
O6 C12 1_555 1_555
C12 C13 1_555 1_555
C13 C14 1_555 1_555
C14 C7 1_555 1_555
H6 C14 1_555 1_555
O7 C5 1_555 1_555
O8 C12 1_555 1_555
O9 Sc1 1_555 1_555
C17 O9 1_555 1_555
O10 C17 1_555 1_555
C18 C17 1_555 1_555
C19 C18 1_555 1_555
C20 C19 1_555 1_555
H9 C19 1_555 1_555
H10 C20 1_555 1_555
O11 C21 1_555 1_555
C21 O12 1_555 1_555
O12 Sc5 1_555 1_555
C22 C20 1_555 1_555
C23 C22 1_555 1_555
C24 C18 1_555 1_555
H12 C24 1_555 1_555
Sc6 O6 1_555 1_555
Sc9 O10 1_555 1_555
O15 Sc1 1_555 1_555
O16 Sc1 1_555 1_555
O20 Sc1 1_555 1_555
C21 C22 1_555 1_555
C23 C24 1_555 1_555
O4 C8 1_555 1_555
C8 O5 1_555 1_555
C10 C9 1_555 1_555
H4 C10 1_555 1_555
H5 C11 1_555 1_555
H7 C15 1_555 1_555
H8 C16 1_555 1_555
Sc2 O4 1_555 1_555
O13 Sc2 1_555 1_555
O14 Sc2 1_555 1_555
O17 Sc2 1_555 1_555
O18 Sc2 1_555 1_555
O19 Sc2 1_555 1_555
C8 C9 1_555 1_555
C10 C11 1_555 1_555
C15 C16 1_555 1_555
C7_2 C6_2 1_555 1_555
H3_2 C7_2 1_555 1_555
O6_2 C12_2 1_555 1_555
C12_2 C13_2 1_555 1_555
C13_2 C14_2 1_555 1_555
C14_2 C7_2 1_555 1_555
H6_2 C14_2 1_555 1_555
O8_2 C12_2 1_555 1_555
H10_2 C20_2 1_555 1_555
O11_2 C21_2 1_555 1_555
C21_2 O12_2 1_555 1_555
O12_2 Sc5_2 1_555 1_555
C22_2 C20_2 1_555 1_555
C23_2 C22_2 1_555 1_555
Sc6_2 O6_2 1_555 1_555
C21_2 C22_2 1_555 1_555
Sc1_2 O1_2 1_555 1_555
O1_2 C1_2 1_555 1_555
C1_2 O2_2 1_555 1_555
C2_2 C1_2 1_555 1_555
C3_2 C2_2 1_555 1_555
C4_2 C3_2 1_555 1_555
O3_2 Sc1_2 1_555 1_555
C5_2 O3_2 1_555 1_555
H1_2 C3_2 1_555 1_555
H2_2 C4_2 1_555 1_555
O7_2 C5_2 1_555 1_555
O9_2 Sc1_2 1_555 1_555
C17_2 O9_2 1_555 1_555
O10_2 C17_2 1_555 1_555
C18_2 C17_2 1_555 1_555
C19_2 C18_2 1_555 1_555
H9_2 C19_2 1_555 1_555
C24_2 C18_2 1_555 1_555
H12_2 C24_2 1_555 1_555
Sc9_2 O10_2 1_555 1_555
O15_2 Sc1_2 1_555 1_555
O16_2 Sc1_2 1_555 1_555
O20_2 Sc1_2 1_555 1_555
H7_2 C15_2 1_555 1_555
H8_2 C16_2 1_555 1_555
C15_2 C16_2 1_555 1_555
O4_2 C8_2 1_555 1_555
C8_2 O5_2 1_555 1_555
C10_2 C9_2 1_555 1_555
H4_2 C10_2 1_555 1_555
H5_2 C11_2 1_555 1_555
Sc2_2 O4_2 1_555 1_555
O13_2 Sc2_2 1_555 1_555
O14_2 Sc2_2 1_555 1_555
O17_2 Sc2_2 1_555 1_555
O18_2 Sc2_2 1_555 1_555
O19_2 Sc2_2 1_555 1_555
C8_2 C9_2 1_555 1_555
C10_2 C11_2 1_555 1_555
C17_3 O9_3 1_555 1_555
O10_3 C17_3 1_555 1_555
C18_3 C17_3 1_555 1_555
C19_3 C18_3 1_555 1_555
C20_3 C19_3 1_555 1_555
H10_3 C20_3 1_555 1_555
O13_2 C21_3 1_555 1_555
C21_3 O12_3 1_555 1_555
O12_3 Sc7_2 1_555 1_555
C22_3 C20_3 1_555 1_555
C23_3 C22_3 1_555 1_555
C24_3 C18_3 1_555 1_555
H11_3 C23_3 1_555 1_555
H12_3 C24_3 1_555 1_555
Sc6_2 O10_3 1_555 1_555
C21_3 C22_3 1_555 1_555
C23_3 C24_3 1_555 1_555
Sc4_2 O1_3 1_555 1_555
O1_3 C1_3 1_555 1_555
C1_3 O2_3 1_555 1_555
O2_3 Sc6_2 1_555 1_555
C2_3 C1_3 1_555 1_555
C3_3 C2_3 1_555 1_555
C4_3 C3_3 1_555 1_555
O3_3 Sc4_2 1_555 1_555
C5_3 O3_3 1_555 1_555
C6_3 C5_3 1_555 1_555
C7_3 C6_3 1_555 1_555
H1_3 C3_3 1_555 1_555
H2_3 C4_3 1_555 1_555
H3_3 C7_3 1_555 1_555
O4_3 C8_3 1_555 1_555
C8_3 O5_3 1_555 1_555
O5_3 Sc5_2 1_555 1_555
C9_3 C4_3 1_555 1_555
C10_3 C9_3 1_555 1_555
C11_3 C2_3 1_555 1_555
H4_3 C10_3 1_555 1_555
H5_3 C11_3 1_555 1_555
O6_3 C12_3 1_555 1_555
C12_3 C13_3 1_555 1_555
C13_3 C14_3 1_555 1_555
C14_3 C7_3 1_555 1_555
H6_3 C14_3 1_555 1_555
O7_3 C5_3 1_555 1_555
C15_3 C6_3 1_555 1_555
H7_3 C15_3 1_555 1_555
O20_2 C12_3 1_555 1_555
C16_3 C13_3 1_555 1_555
H8_3 C16_3 1_555 1_555
Sc3_2 O4_3 1_555 1_555
Sc9_2 O6_3 1_555 1_555
Sc6_2 O7_3 1_555 1_555
O16_3 Sc4_2 1_555 1_555
O17_3 Sc3_2 1_555 1_555
O18_3 Sc3_2 1_555 1_555
C8_3 C9_3 1_555 1_555
C10_3 C11_3 1_555 1_555
C15_3 C16_3 1_555 1_555
H10_4 C20_4 1_555 1_555
O13 C21_4 1_555 1_555
C21_4 O12_4 1_555 1_555
O12_4 Sc7 1_555 1_555
C22_4 C20_4 1_555 1_555
C23_4 C22_4 1_555 1_555
H11_4 C23_4 1_555 1_555
C21_4 C22_4 1_555 1_555
C17_4 O9_4 1_555 1_555
O10_4 C17_4 1_555 1_555
C18_4 C17_4 1_555 1_555
C19_4 C18_4 1_555 1_555
C24_4 C18_4 1_555 1_555
H12_4 C24_4 1_555 1_555
Sc6 O10_4 1_555 1_555
C7_4 C6_4 1_555 1_555
H3_4 C7_4 1_555 1_555
O6_4 C12_4 1_555 1_555
C12_4 C13_4 1_555 1_555
C13_4 C14_4 1_555 1_555
C14_4 C7_4 1_555 1_555
H6_4 C14_4 1_555 1_555
C15_4 C6_4 1_555 1_555
H7_4 C15_4 1_555 1_555
O20 C12_4 1_555 1_555
C16_4 C13_4 1_555 1_555
H8_4 C16_4 1_555 1_555
Sc9 O6_4 1_555 1_555
C15_4 C16_4 1_555 1_555
Sc4 O1_4 1_555 1_555
O1_4 C1_4 1_555 1_555
C1_4 O2_4 1_555 1_555
O2_4 Sc6 1_555 1_555
C2_4 C1_4 1_555 1_555
C3_4 C2_4 1_555 1_555
C4_4 C3_4 1_555 1_555
O3_4 Sc4 1_555 1_555
C5_4 O3_4 1_555 1_555
H1_4 C3_4 1_555 1_555
H2_4 C4_4 1_555 1_555
O4_4 C8_4 1_555 1_555
C8_4 O5_4 1_555 1_555
O5_4 Sc5 1_555 1_555
C9_4 C4_4 1_555 1_555
C10_4 C9_4 1_555 1_555
C11_4 C2_4 1_555 1_555
H4_4 C10_4 1_555 1_555
H5_4 C11_4 1_555 1_555
O7_4 C5_4 1_555 1_555
Sc3 O4_4 1_555 1_555
Sc6 O7_4 1_555 1_555
O16_4 Sc4 1_555 1_555
O17_4 Sc3 1_555 1_555
O18_4 Sc3 1_555 1_555
C8_4 C9_4 1_555 1_555
C10_4 C11_4 1_555 1_555
H2_5 C4_5 1_555 1_555
Sc6 O1_5 1_555 1_555
O1_5 C1_5 1_555 1_555
C1_5 O15_4 1_555 1_555
C2_5 C1_5 1_555 1_555
C3_5 C2_5 1_555 1_555
H1_5 C3_5 1_555 1_555
O9_5 Sc6 1_555 1_555
C17_5 O9_5 1_555 1_555
O16_4 C17_5 1_555 1_555
C18_5 C17_5 1_555 1_555
C19_5 C18_5 1_555 1_555
C20_5 C19_5 1_555 1_555
H9_5 C19_5 1_555 1_555
H10_5 C20_5 1_555 1_555
O11_3 C21_5 1_555 1_555
C21_5 O17_2 1_555 1_555
C22_5 C20_5 1_555 1_555
C23_5 C22_5 1_555 1_555
C24_5 C18_5 1_555 1_555
H12_5 C24_5 1_555 1_555
C21_5 C22_5 1_555 1_555
C23_5 C24_5 1_555 1_555
O4_5 C8_5 1_555 1_555
C8_5 O14_3 1_555 1_555
C10_5 C9_5 1_555 1_555
H4_5 C10_5 1_555 1_555
Sc5_2 O4_5 1_555 1_555
O13_3 Sc5_2 1_555 1_555
O18_5 Sc5_2 1_555 1_555
O19_5 Sc5_2 1_555 1_555
C8_5 C9_5 1_555 1_555
H5_5 C11_5 1_555 1_555
Sc6_2 O1_6 1_555 1_555
O1_6 C1_6 1_555 1_555
C1_6 O15_3 1_555 1_555
C2_6 C1_6 1_555 1_555
C3_6 C2_6 1_555 1_555
H1_6 C3_6 1_555 1_555
O9_6 Sc6_2 1_555 1_555
C17_6 O9_6 1_555 1_555
O16_3 C17_6 1_555 1_555
C18_6 C17_6 1_555 1_555
C19_6 C18_6 1_555 1_555
H9_6 C19_6 1_555 1_555
C24_6 C18_6 1_555 1_555
H12_6 C24_6 1_555 1_555
H2_6 C4_6 1_555 1_555
H10_6 C20_6 1_555 1_555
O11_4 C21_6 1_555 1_555
C21_6 O17 1_555 1_555
C22_6 C20_6 1_555 1_555
C23_6 C22_6 1_555 1_555
C21_6 C22_6 1_555 1_555
H5_6 C11_6 1_555 1_555
O4_6 C8_6 1_555 1_555
C8_6 O14_4 1_555 1_555
C10_6 C9_6 1_555 1_555
H4_6 C10_6 1_555 1_555
Sc5 O4_6 1_555 1_555
O13_4 Sc5 1_555 1_555
O18_6 Sc5 1_555 1_555
O19_6 Sc5 1_555 1_555
C8_6 C9_6 1_555 1_555
C17_7 O9_7 1_555 1_555
O16_2 C17_7 1_555 1_555
C18_7 C17_7 1_555 1_555
C19_7 C18_7 1_555 1_555
C24_7 C18_7 1_555 1_555
H12_7 C24_7 1_555 1_555
H10_7 C20_7 1_555 1_555
O13_4 C21_7 1_555 1_555
C21_7 O17_4 1_555 1_555
C22_7 C20_7 1_555 1_555
C23_7 C22_7 1_555 1_555
H11_7 C23_7 1_555 1_555
C21_7 C22_7 1_555 1_555
H2_7 C4_7 1_555 1_555
O4_7 C8_7 1_555 1_555
C8_7 O14 1_555 1_555
C9_7 C4_7 1_555 1_555
C10_7 C9_7 1_555 1_555
H4_7 C10_7 1_555 1_555
Sc7 O4_7 1_555 1_555
O18_7 Sc7 1_555 1_555
C8_7 C9_7 1_555 1_555
Sc9_2 O1_7 1_555 1_555
O1_7 C1_7 1_555 1_555
C1_7 O15_2 1_555 1_555
C2_7 C1_7 1_555 1_555
C3_7 C2_7 1_555 1_555
H1_7 C3_7 1_555 1_555
C11_7 C2_7 1_555 1_555
H5_7 C11_7 1_555 1_555
C17_8 O9_8 1_555 1_555
O16 C17_8 1_555 1_555
C18_8 C17_8 1_555 1_555
C19_8 C18_8 1_555 1_555
C20_8 C19_8 1_555 1_555
H10_8 C20_8 1_555 1_555
O13_3 C21_8 1_555 1_555
C21_8 O17_3 1_555 1_555
C22_8 C20_8 1_555 1_555
C23_8 C22_8 1_555 1_555
C24_8 C18_8 1_555 1_555
H11_8 C23_8 1_555 1_555
H12_8 C24_8 1_555 1_555
C21_8 C22_8 1_555 1_555
C23_8 C24_8 1_555 1_555
Sc9 O1_8 1_555 1_555
O1_8 C1_8 1_555 1_555
C1_8 O15 1_555 1_555
C2_8 C1_8 1_555 1_555
C3_8 C2_8 1_555 1_555
C4_8 C3_8 1_555 1_555
H1_8 C3_8 1_555 1_555
H2_8 C4_8 1_555 1_555
O4_8 C8_8 1_555 1_555
C8_8 O14_2 1_555 1_555
C9_8 C4_8 1_555 1_555
C10_8 C9_8 1_555 1_555
C11_8 C2_8 1_555 1_555
H4_8 C10_8 1_555 1_555
H5_8 C11_8 1_555 1_555
Sc7_2 O4_8 1_555 1_555
O18_8 Sc7_2 1_555 1_555
C8_8 C9_8 1_555 1_555
C10_8 C11_8 1_555 1_555
H7_5 C15_5 1_555 1_555
H8_5 C16_5 1_555 1_555
C15_5 C16_5 1_555 1_555
C5_5 O18_2 1_555 1_555
C6_5 C5_5 1_555 1_555
C7_5 C6_5 1_555 1_555
H3_5 C7_5 1_555 1_555
O18_5 C12_5 1_555 1_555
C12_5 C13_5 1_555 1_555
C13_5 C14_5 1_555 1_555
C14_5 C7_5 1_555 1_555
H6_5 C14_5 1_555 1_555
O19_8 C5_5 1_555 1_555
O19_3 C12_5 1_555 1_555
H7_6 C15_6 1_555 1_555
H8_6 C16_6 1_555 1_555
C15_6 C16_6 1_555 1_555
C5_6 O18 1_555 1_555
O19_7 C5_6 1_555 1_555
C7_6 C6_6 1_555 1_555
H3_6 C7_6 1_555 1_555
O18_6 C12_6 1_555 1_555
C12_6 C13_6 1_555 1_555
C13_6 C14_6 1_555 1_555
C14_6 C7_6 1_555 1_555
H6_6 C14_6 1_555 1_555
O19_4 C12_6 1_555 1_555
C5_7 O18_4 1_555 1_555
C6_7 C5_7 1_555 1_555
C7_7 C6_7 1_555 1_555
H3_7 C7_7 1_555 1_555
O18_7 C12_7 1_555 1_555
C12_7 C13_7 1_555 1_555
C13_7 C14_7 1_555 1_555
C14_7 C7_7 1_555 1_555
H6_7 C14_7 1_555 1_555
O19_6 C5_7 1_555 1_555
C15_7 C6_7 1_555 1_555
H7_7 C15_7 1_555 1_555
O19 C12_7 1_555 1_555
C16_7 C13_7 1_555 1_555
H8_7 C16_7 1_555 1_555
C15_7 C16_7 1_555 1_555
C5_8 O18_3 1_555 1_555
O19_5 C5_8 1_555 1_555
C7_8 C6_8 1_555 1_555
H3_8 C7_8 1_555 1_555
O18_8 C12_8 1_555 1_555
C12_8 C13_8 1_555 1_555
C13_8 C14_8 1_555 1_555
C14_8 C7_8 1_555 1_555
H6_8 C14_8 1_555 1_555
C15_8 C6_8 1_555 1_555
H7_8 C15_8 1_555 1_555
O19_2 C12_8 1_555 1_555
C16_8 C13_8 1_555 1_555
H8_8 C16_8 1_555 1_555
C15_8 C16_8 1_555 1_555

#END
