
###############################################################################
#
# This file contains modified crystal structure data generated from the
# MOF subset of the Cambridge Structural Database (CSD) v543 
# hosted by the Cambridge Crystallographic Data Centre (CCDC).
#
# This work is licensed under the Creative Commons
# Attribution-NonCommercial-ShareAlike 4.0 International License.
# To view a copy of this license, visit
# http://creativecommons.org/licenses/by-nc-sa/4.0/
# or send a letter to
# Creative Commons, PO Box 1866, Mountain View, CA 94042, USA.
#
# CIF created using the CSD Python API on 29 September 2022
# The structure has been converted into the P1 space group
# The structure has a 3D framework
# The original CSD entry HOJNUR is in the orthorhombic crystal system
# The framework has been calculated to contain at least 10.0% void space
# The void calculation uses a probe of radius 1.32A, grid spacing 0.4
#
###############################################################################

data_HOJNUR
_chemical_formula_moiety         '(C192 H96 O96 Sc16)n'
_symmetry_cell_setting           triclinic
_symmetry_space_group_name_H-M   'P 1'
_symmetry_Int_Tables_number      1
_space_group_name_Hall           'P 1'
loop_
_symmetry_equiv_pos_site_id
_symmetry_equiv_pos_as_xyz
1 x,y,z
_cell_length_a                   8.8641(17)
_cell_length_b                   20.698(2)
_cell_length_c                   34.229(6)
_cell_angle_alpha                90
_cell_angle_beta                 90
_cell_angle_gamma                90
_cell_volume                     6279.97
loop_
_atom_site_label
_atom_site_type_symbol
_atom_site_fract_x
_atom_site_fract_y
_atom_site_fract_z
H11 H 0.0030 0.5258 0.7568
Sc3 Sc 0.1250 0.6250 0.86456(10)
Sc1 Sc 0.3750 0.3750 0.63544(10)
O1 O 0.2410(10) 0.3331(4) 0.6791(2)
C1 C 0.1025(10) 0.3204(6) 0.6822(3)
O2 O 0.0072(11) 0.3361(4) 0.6575(2)
C2 C 0.0497(10) 0.2830(6) 0.7172(3)
C3 C 0.1493(10) 0.2651(7) 0.7458(3)
C4 C 0.1007(11) 0.2312(7) 0.7782(3)
O3 O 0.2446(9) 0.4576(3) 0.6345(3)
C5 C 0.1250 0.4858(4) 0.6250
C6 C 0.1250 0.5580(3) 0.6250
C7 C 0.2585(7) 0.5915(2) 0.6256(5)
H1 H 0.2530 0.2758 0.7432
H2 H 0.1718 0.2168 0.7970
H3 H 0.3514 0.5688 0.6269
O6 O 0.2446(9) 0.7924(3) 0.6155(3)
C12 C 0.1250 0.7642(4) 0.6250
C13 C 0.1250 0.6920(3) 0.6250
C14 C 0.2585(7) 0.6585(2) 0.6244(5)
H6 H 0.3514 0.6812 0.6231
O7 O 0.0054(9) 0.4576(3) 0.6155(3)
O8 O 0.0054(9) 0.7924(3) 0.6345(3)
O9 O 0.5090(10) 0.4169(4) 0.6791(2)
C17 C 0.6475(10) 0.4296(6) 0.6822(3)
O10 O 0.7428(11) 0.4139(4) 0.6575(2)
C18 C 0.7003(10) 0.4670(6) 0.7172(3)
C19 C 0.6007(10) 0.4849(7) 0.7458(3)
C20 C 0.6493(11) 0.5188(7) 0.7782(3)
H9 H 0.4970 0.4742 0.7432
H10 H 0.5782 0.5332 0.7970
O11 O 0.9910(10) 0.5831(4) 0.8209(2)
C21 C 0.8525(10) 0.5704(6) 0.8178(3)
O12 O 0.7572(11) 0.5861(4) 0.8425(2)
C22 C 0.7997(10) 0.5330(6) 0.7828(3)
C23 C 0.8993(10) 0.5151(7) 0.7542(3)
C24 C 0.8507(11) 0.4812(7) 0.7218(3)
H12 H 0.9218 0.4668 0.7030
Sc5 Sc 0.6250 0.6250 0.88544(10)
Sc6 Sc 0.3750 0.8750 0.61456(10)
Sc7 Sc 0.1250 0.1250 0.88544(10)
Sc9 Sc 0.8750 0.3750 0.61456(10)
O15 O 0.5072(11) 0.4139(4) 0.5925(2)
O16 O 0.2428(11) 0.3361(4) 0.5925(2)
O20 O 0.5054(9) 0.2924(3) 0.6345(3)
O4 O 0.7590(10) 0.1669(4) 0.8209(2)
C8 C 0.8975(10) 0.1796(6) 0.8178(3)
O5 O 0.9928(11) 0.1639(4) 0.8425(2)
C9 C 0.9503(10) 0.2170(6) 0.7828(3)
C10 C 0.8507(10) 0.2349(7) 0.7542(3)
C11 C 0.8993(11) 0.2688(7) 0.7218(3)
H4 H 0.7470 0.2242 0.7568
H5 H 0.8282 0.2832 0.7030
C15 C 0.9915(7) 0.5915(2) 0.6244(5)
H7 H 0.8986 0.5688 0.6231
C16 C 0.9915(7) 0.6585(2) 0.6256(5)
H8 H 0.8986 0.6812 0.6269
Sc2 Sc 0.6250 0.1250 0.86456(10)
Sc4 Sc 0.8750 0.8750 0.63544(10)
O13 O 0.4910(10) 0.0831(4) 0.8209(2)
O14 O 0.4928(11) 0.0861(4) 0.9075(2)
O17 O 0.7572(11) 0.1639(4) 0.9075(2)
O18 O 0.7554(9) 0.0424(3) 0.8655(3)
O19 O 0.4946(9) 0.2076(3) 0.8655(3)
H11_2 H 0.0030 0.0258 0.2568
Sc3_2 Sc 0.1250 0.1250 0.36456(10)
C6_2 C 0.1250 0.0580(3) 0.1250
C7_2 C 0.2585(7) 0.0915(2) 0.1256(5)
H3_2 H 0.3514 0.0688 0.1269
O6_2 O 0.2446(9) 0.2924(3) 0.1155(3)
C12_2 C 0.1250 0.2642(4) 0.1250
C13_2 C 0.1250 0.1920(3) 0.1250
C14_2 C 0.2585(7) 0.1585(2) 0.1244(5)
H6_2 H 0.3514 0.1812 0.1231
O8_2 O 0.0054(9) 0.2924(3) 0.1345(3)
C20_2 C 0.6493(11) 0.0188(7) 0.2782(3)
H10_2 H 0.5782 0.0332 0.2970
O11_2 O 0.9910(10) 0.0831(4) 0.3209(2)
C21_2 C 0.8525(10) 0.0704(6) 0.3178(3)
O12_2 O 0.7572(11) 0.0861(4) 0.3425(2)
C22_2 C 0.7997(10) 0.0330(6) 0.2828(3)
C23_2 C 0.8993(10) 0.0151(7) 0.2542(3)
Sc5_2 Sc 0.6250 0.1250 0.38544(10)
Sc6_2 Sc 0.3750 0.3750 0.11456(10)
Sc1_2 Sc 0.3750 0.8750 0.13544(10)
O1_2 O 0.2410(10) 0.8331(4) 0.1791(2)
C1_2 C 0.1025(10) 0.8204(6) 0.1822(3)
O2_2 O 0.0072(11) 0.8361(4) 0.1575(2)
C2_2 C 0.0497(10) 0.7830(6) 0.2172(3)
C3_2 C 0.1493(10) 0.7651(7) 0.2458(3)
C4_2 C 0.1007(11) 0.7312(7) 0.2782(3)
O3_2 O 0.2446(9) 0.9576(3) 0.1345(3)
C5_2 C 0.1250 0.9858(4) 0.1250
H1_2 H 0.2530 0.7758 0.2432
H2_2 H 0.1718 0.7168 0.2970
O7_2 O 0.0054(9) 0.9576(3) 0.1155(3)
O9_2 O 0.5090(10) 0.9169(4) 0.1791(2)
C17_2 C 0.6475(10) 0.9296(6) 0.1822(3)
O10_2 O 0.7428(11) 0.9139(4) 0.1575(2)
C18_2 C 0.7003(10) 0.9670(6) 0.2172(3)
C19_2 C 0.6007(10) 0.9849(7) 0.2458(3)
H9_2 H 0.4970 0.9742 0.2432
C24_2 C 0.8507(11) 0.9812(7) 0.2218(3)
H12_2 H 0.9218 0.9668 0.2030
Sc7_2 Sc 0.1250 0.6250 0.38544(10)
Sc9_2 Sc 0.8750 0.8750 0.11456(10)
O15_2 O 0.5072(11) 0.9139(4) 0.0925(2)
O16_2 O 0.2428(11) 0.8361(4) 0.0925(2)
O20_2 O 0.5054(9) 0.7924(3) 0.1345(3)
C15_2 C 0.9915(7) 0.0915(2) 0.1244(5)
H7_2 H 0.8986 0.0688 0.1231
C16_2 C 0.9915(7) 0.1585(2) 0.1256(5)
H8_2 H 0.8986 0.1812 0.1269
Sc4_2 Sc 0.8750 0.3750 0.13544(10)
O4_2 O 0.7590(10) 0.6669(4) 0.3209(2)
C8_2 C 0.8975(10) 0.6796(6) 0.3178(3)
O5_2 O 0.9928(11) 0.6639(4) 0.3425(2)
C9_2 C 0.9503(10) 0.7170(6) 0.2828(3)
C10_2 C 0.8507(10) 0.7349(7) 0.2542(3)
C11_2 C 0.8993(11) 0.7688(7) 0.2218(3)
H4_2 H 0.7470 0.7242 0.2568
H5_2 H 0.8282 0.7832 0.2030
Sc2_2 Sc 0.6250 0.6250 0.36456(10)
O13_2 O 0.4910(10) 0.5831(4) 0.3209(2)
O14_2 O 0.4928(11) 0.5861(4) 0.4075(2)
O17_2 O 0.7572(11) 0.6639(4) 0.4075(2)
O18_2 O 0.7554(9) 0.5424(3) 0.3655(3)
O19_2 O 0.4946(9) 0.7076(3) 0.3655(3)
O9_3 O 0.0090(10) 0.4169(4) 0.1791(2)
C17_3 C 0.1475(10) 0.4296(6) 0.1822(3)
O10_3 O 0.2428(11) 0.4139(4) 0.1575(2)
C18_3 C 0.2003(10) 0.4670(6) 0.2172(3)
C19_3 C 0.1007(10) 0.4849(7) 0.2458(3)
C20_3 C 0.1493(11) 0.5188(7) 0.2782(3)
H10_3 H 0.0782 0.5332 0.2970
C21_3 C 0.3525(10) 0.5704(6) 0.3178(3)
O12_3 O 0.2572(11) 0.5861(4) 0.3425(2)
C22_3 C 0.2997(10) 0.5330(6) 0.2828(3)
C23_3 C 0.3993(10) 0.5151(7) 0.2542(3)
C24_3 C 0.3507(11) 0.4812(7) 0.2218(3)
H11_3 H 0.5030 0.5258 0.2568
H12_3 H 0.4218 0.4668 0.2030
O15_3 O 0.0072(11) 0.4139(4) 0.0925(2)
O1_3 O 0.7410(10) 0.3331(4) 0.1791(2)
C1_3 C 0.6025(10) 0.3204(6) 0.1822(3)
O2_3 O 0.5072(11) 0.3361(4) 0.1575(2)
C2_3 C 0.5497(10) 0.2830(6) 0.2172(3)
C3_3 C 0.6493(10) 0.2651(7) 0.2458(3)
C4_3 C 0.6007(11) 0.2312(7) 0.2782(3)
O3_3 O 0.7446(9) 0.4576(3) 0.1345(3)
C5_3 C 0.6250 0.4858(4) 0.1250
C6_3 C 0.6250 0.5580(3) 0.1250
C7_3 C 0.7585(7) 0.5915(2) 0.1256(5)
H1_3 H 0.7530 0.2758 0.2432
H2_3 H 0.6718 0.2168 0.2970
H3_3 H 0.8514 0.5688 0.1269
O4_3 O 0.2590(10) 0.1669(4) 0.3209(2)
C8_3 C 0.3975(10) 0.1796(6) 0.3178(3)
O5_3 O 0.4928(11) 0.1639(4) 0.3425(2)
C9_3 C 0.4503(10) 0.2170(6) 0.2828(3)
C10_3 C 0.3507(10) 0.2349(7) 0.2542(3)
C11_3 C 0.3993(11) 0.2688(7) 0.2218(3)
H4_3 H 0.2470 0.2242 0.2568
H5_3 H 0.3282 0.2832 0.2030
O6_3 O 0.7446(9) 0.7924(3) 0.1155(3)
C12_3 C 0.6250 0.7642(4) 0.1250
C13_3 C 0.6250 0.6920(3) 0.1250
C14_3 C 0.7585(7) 0.6585(2) 0.1244(5)
H6_3 H 0.8514 0.6812 0.1231
O7_3 O 0.5054(9) 0.4576(3) 0.1155(3)
C15_3 C 0.4915(7) 0.5915(2) 0.1244(5)
H7_3 H 0.3986 0.5688 0.1231
C16_3 C 0.4915(7) 0.6585(2) 0.1256(5)
H8_3 H 0.3986 0.6812 0.1269
H9_3 H 0.9970 0.4742 0.2432
O16_3 O 0.7428(11) 0.3361(4) 0.0925(2)
O17_3 O 0.2572(11) 0.1639(4) 0.4075(2)
O18_3 O 0.2554(9) 0.0424(3) 0.3655(3)
O14_3 O 0.9928(11) 0.0861(4) 0.4075(2)
O19_3 O 0.9946(9) 0.2076(3) 0.3655(3)
C20_4 C 0.1493(11) 0.0188(7) 0.7782(3)
H10_4 H 0.0782 0.0332 0.7970
C21_4 C 0.3525(10) 0.0704(6) 0.8178(3)
O12_4 O 0.2572(11) 0.0861(4) 0.8425(2)
C22_4 C 0.2997(10) 0.0330(6) 0.7828(3)
C23_4 C 0.3993(10) 0.0151(7) 0.7542(3)
H11_4 H 0.5030 0.0258 0.7568
O9_4 O 0.0090(10) 0.9169(4) 0.6791(2)
C17_4 C 0.1475(10) 0.9296(6) 0.6822(3)
O10_4 O 0.2428(11) 0.9139(4) 0.6575(2)
C18_4 C 0.2003(10) 0.9670(6) 0.7172(3)
C19_4 C 0.1007(10) 0.9849(7) 0.7458(3)
C24_4 C 0.3507(11) 0.9812(7) 0.7218(3)
H12_4 H 0.4218 0.9668 0.7030
O15_4 O 0.0072(11) 0.9139(4) 0.5925(2)
C6_4 C 0.6250 0.0580(3) 0.6250
C7_4 C 0.7585(7) 0.0915(2) 0.6256(5)
H3_4 H 0.8514 0.0688 0.6269
O6_4 O 0.7446(9) 0.2924(3) 0.6155(3)
C12_4 C 0.6250 0.2642(4) 0.6250
C13_4 C 0.6250 0.1920(3) 0.6250
C14_4 C 0.7585(7) 0.1585(2) 0.6244(5)
H6_4 H 0.8514 0.1812 0.6231
C15_4 C 0.4915(7) 0.0915(2) 0.6244(5)
H7_4 H 0.3986 0.0688 0.6231
C16_4 C 0.4915(7) 0.1585(2) 0.6256(5)
H8_4 H 0.3986 0.1812 0.6269
O1_4 O 0.7410(10) 0.8331(4) 0.6791(2)
C1_4 C 0.6025(10) 0.8204(6) 0.6822(3)
O2_4 O 0.5072(11) 0.8361(4) 0.6575(2)
C2_4 C 0.5497(10) 0.7830(6) 0.7172(3)
C3_4 C 0.6493(10) 0.7651(7) 0.7458(3)
C4_4 C 0.6007(11) 0.7312(7) 0.7782(3)
O3_4 O 0.7446(9) 0.9576(3) 0.6345(3)
C5_4 C 0.6250 0.9858(4) 0.6250
H1_4 H 0.7530 0.7758 0.7432
H2_4 H 0.6718 0.7168 0.7970
O4_4 O 0.2590(10) 0.6669(4) 0.8209(2)
C8_4 C 0.3975(10) 0.6796(6) 0.8178(3)
O5_4 O 0.4928(11) 0.6639(4) 0.8425(2)
C9_4 C 0.4503(10) 0.7170(6) 0.7828(3)
C10_4 C 0.3507(10) 0.7349(7) 0.7542(3)
C11_4 C 0.3993(11) 0.7688(7) 0.7218(3)
H4_4 H 0.2470 0.7242 0.7568
H5_4 H 0.3282 0.7832 0.7030
O7_4 O 0.5054(9) 0.9576(3) 0.6155(3)
H9_4 H 0.9970 0.9742 0.7432
O16_4 O 0.7428(11) 0.8361(4) 0.5925(2)
O17_4 O 0.2572(11) 0.6639(4) 0.9075(2)
O18_4 O 0.2554(9) 0.5424(3) 0.8655(3)
O14_4 O 0.9928(11) 0.5861(4) 0.9075(2)
O19_4 O 0.9946(9) 0.7076(3) 0.8655(3)
H11_5 H 0.0030 0.7242 0.4932
C4_5 C 0.1007(11) 0.0188(7) 0.4718(3)
H2_5 H 0.1718 0.0332 0.4530
O1_5 O 0.2410(10) 0.9169(4) 0.5709(2)
C1_5 C 0.1025(10) 0.9296(6) 0.5678(3)
C2_5 C 0.0497(10) 0.9670(6) 0.5328(3)
C3_5 C 0.1493(10) 0.9849(7) 0.5042(3)
H1_5 H 0.2530 0.9742 0.5068
O9_5 O 0.5090(10) 0.8331(4) 0.5709(2)
C17_5 C 0.6475(10) 0.8204(6) 0.5678(3)
C18_5 C 0.7003(10) 0.7830(6) 0.5328(3)
C19_5 C 0.6007(10) 0.7651(7) 0.5042(3)
C20_5 C 0.6493(11) 0.7312(7) 0.4718(3)
H9_5 H 0.4970 0.7758 0.5068
H10_5 H 0.5782 0.7168 0.4530
O11_3 O 0.9910(10) 0.6669(4) 0.4291(2)
C21_5 C 0.8525(10) 0.6796(6) 0.4322(3)
C22_5 C 0.7997(10) 0.7170(6) 0.4672(3)
C23_5 C 0.8993(10) 0.7349(7) 0.4958(3)
C24_5 C 0.8507(11) 0.7688(7) 0.5282(3)
H12_5 H 0.9218 0.7832 0.5470
O4_5 O 0.7590(10) 0.0831(4) 0.4291(2)
C8_5 C 0.8975(10) 0.0704(6) 0.4322(3)
C9_5 C 0.9503(10) 0.0330(6) 0.4672(3)
C10_5 C 0.8507(10) 0.0151(7) 0.4958(3)
H4_5 H 0.7470 0.0258 0.4932
O13_3 O 0.4910(10) 0.1669(4) 0.4291(2)
O18_5 O 0.7554(9) 0.2076(3) 0.3845(3)
O19_5 O 0.4946(9) 0.0424(3) 0.3845(3)
C11_5 C 0.8993(11) 0.9812(7) 0.5282(3)
H5_5 H 0.8282 0.9668 0.5470
H11_6 H 0.0030 0.2242 0.9932
O1_6 O 0.2410(10) 0.4169(4) 0.0709(2)
C1_6 C 0.1025(10) 0.4296(6) 0.0678(3)
C2_6 C 0.0497(10) 0.4670(6) 0.0328(3)
C3_6 C 0.1493(10) 0.4849(7) 0.0042(3)
H1_6 H 0.2530 0.4742 0.0068
O9_6 O 0.5090(10) 0.3331(4) 0.0709(2)
C17_6 C 0.6475(10) 0.3204(6) 0.0678(3)
C18_6 C 0.7003(10) 0.2830(6) 0.0328(3)
C19_6 C 0.6007(10) 0.2651(7) 0.0042(3)
H9_6 H 0.4970 0.2758 0.0068
C24_6 C 0.8507(11) 0.2688(7) 0.0282(3)
H12_6 H 0.9218 0.2832 0.0470
C4_6 C 0.1007(11) 0.5188(7) 0.9718(3)
H2_6 H 0.1718 0.5332 0.9530
C20_6 C 0.6493(11) 0.2312(7) 0.9718(3)
H10_6 H 0.5782 0.2168 0.9530
O11_4 O 0.9910(10) 0.1669(4) 0.9291(2)
C21_6 C 0.8525(10) 0.1796(6) 0.9322(3)
C22_6 C 0.7997(10) 0.2170(6) 0.9672(3)
C23_6 C 0.8993(10) 0.2349(7) 0.9958(3)
C11_6 C 0.8993(11) 0.4812(7) 0.0282(3)
H5_6 H 0.8282 0.4668 0.0470
O4_6 O 0.7590(10) 0.5831(4) 0.9291(2)
C8_6 C 0.8975(10) 0.5704(6) 0.9322(3)
C9_6 C 0.9503(10) 0.5330(6) 0.9672(3)
C10_6 C 0.8507(10) 0.5151(7) 0.9958(3)
H4_6 H 0.7470 0.5258 0.9932
O13_4 O 0.4910(10) 0.6669(4) 0.9291(2)
O18_6 O 0.7554(9) 0.7076(3) 0.8845(3)
O19_6 O 0.4946(9) 0.5424(3) 0.8845(3)
O9_7 O 0.0090(10) 0.8331(4) 0.0709(2)
C17_7 C 0.1475(10) 0.8204(6) 0.0678(3)
C18_7 C 0.2003(10) 0.7830(6) 0.0328(3)
C19_7 C 0.1007(10) 0.7651(7) 0.0042(3)
C24_7 C 0.3507(11) 0.7688(7) 0.0282(3)
H12_7 H 0.4218 0.7832 0.0470
C20_7 C 0.1493(11) 0.7312(7) 0.9718(3)
H10_7 H 0.0782 0.7168 0.9530
C21_7 C 0.3525(10) 0.6796(6) 0.9322(3)
C22_7 C 0.2997(10) 0.7170(6) 0.9672(3)
C23_7 C 0.3993(10) 0.7349(7) 0.9958(3)
H11_7 H 0.5030 0.7242 0.9932
C4_7 C 0.6007(11) 0.0188(7) 0.9718(3)
H2_7 H 0.6718 0.0332 0.9530
O4_7 O 0.2590(10) 0.0831(4) 0.9291(2)
C8_7 C 0.3975(10) 0.0704(6) 0.9322(3)
C9_7 C 0.4503(10) 0.0330(6) 0.9672(3)
C10_7 C 0.3507(10) 0.0151(7) 0.9958(3)
H4_7 H 0.2470 0.0258 0.9932
O18_7 O 0.2554(9) 0.2076(3) 0.8845(3)
O1_7 O 0.7410(10) 0.9169(4) 0.0709(2)
C1_7 C 0.6025(10) 0.9296(6) 0.0678(3)
C2_7 C 0.5497(10) 0.9670(6) 0.0328(3)
C3_7 C 0.6493(10) 0.9849(7) 0.0042(3)
H1_7 H 0.7530 0.9742 0.0068
C11_7 C 0.3993(11) 0.9812(7) 0.0282(3)
H5_7 H 0.3282 0.9668 0.0470
H9_7 H 0.9970 0.7758 0.0068
O19_7 O 0.9946(9) 0.0424(3) 0.8845(3)
O9_8 O 0.0090(10) 0.3331(4) 0.5709(2)
C17_8 C 0.1475(10) 0.3204(6) 0.5678(3)
C18_8 C 0.2003(10) 0.2830(6) 0.5328(3)
C19_8 C 0.1007(10) 0.2651(7) 0.5042(3)
C20_8 C 0.1493(11) 0.2312(7) 0.4718(3)
H10_8 H 0.0782 0.2168 0.4530
C21_8 C 0.3525(10) 0.1796(6) 0.4322(3)
C22_8 C 0.2997(10) 0.2170(6) 0.4672(3)
C23_8 C 0.3993(10) 0.2349(7) 0.4958(3)
C24_8 C 0.3507(11) 0.2688(7) 0.5282(3)
H11_8 H 0.5030 0.2242 0.4932
H12_8 H 0.4218 0.2832 0.5470
O1_8 O 0.7410(10) 0.4169(4) 0.5709(2)
C1_8 C 0.6025(10) 0.4296(6) 0.5678(3)
C2_8 C 0.5497(10) 0.4670(6) 0.5328(3)
C3_8 C 0.6493(10) 0.4849(7) 0.5042(3)
C4_8 C 0.6007(11) 0.5188(7) 0.4718(3)
H1_8 H 0.7530 0.4742 0.5068
H2_8 H 0.6718 0.5332 0.4530
O4_8 O 0.2590(10) 0.5831(4) 0.4291(2)
C8_8 C 0.3975(10) 0.5704(6) 0.4322(3)
C9_8 C 0.4503(10) 0.5330(6) 0.4672(3)
C10_8 C 0.3507(10) 0.5151(7) 0.4958(3)
C11_8 C 0.3993(11) 0.4812(7) 0.5282(3)
H4_8 H 0.2470 0.5258 0.4932
H5_8 H 0.3282 0.4668 0.5470
H9_8 H 0.9970 0.2758 0.5068
O18_8 O 0.2554(9) 0.7076(3) 0.3845(3)
O19_8 O 0.9946(9) 0.5424(3) 0.3845(3)
C15_5 C 0.0085(7) 0.4085(2) 0.3756(5)
H7_5 H 0.1014 0.4312 0.3769
C16_5 C 0.0085(7) 0.3415(2) 0.3744(5)
H8_5 H 0.1014 0.3188 0.3731
C5_5 C 0.8750 0.5142(4) 0.3750
C6_5 C 0.8750 0.4420(3) 0.3750
C7_5 C 0.7415(7) 0.4085(2) 0.3744(5)
H3_5 H 0.6486 0.4312 0.3731
C12_5 C 0.8750 0.2358(4) 0.3750
C13_5 C 0.8750 0.3080(3) 0.3750
C14_5 C 0.7415(7) 0.3415(2) 0.3756(5)
H6_5 H 0.6486 0.3188 0.3769
C15_6 C 0.0085(7) 0.9085(2) 0.8756(5)
H7_6 H 0.1014 0.9312 0.8769
C16_6 C 0.0085(7) 0.8415(2) 0.8744(5)
H8_6 H 0.1014 0.8188 0.8731
C5_6 C 0.8750 0.0142(4) 0.8750
C6_6 C 0.8750 0.9420(3) 0.8750
C7_6 C 0.7415(7) 0.9085(2) 0.8744(5)
H3_6 H 0.6486 0.9312 0.8731
C12_6 C 0.8750 0.7358(4) 0.8750
C13_6 C 0.8750 0.8080(3) 0.8750
C14_6 C 0.7415(7) 0.8415(2) 0.8756(5)
H6_6 H 0.6486 0.8188 0.8769
C5_7 C 0.3750 0.5142(4) 0.8750
C6_7 C 0.3750 0.4420(3) 0.8750
C7_7 C 0.2415(7) 0.4085(2) 0.8744(5)
H3_7 H 0.1486 0.4312 0.8731
C12_7 C 0.3750 0.2358(4) 0.8750
C13_7 C 0.3750 0.3080(3) 0.8750
C14_7 C 0.2415(7) 0.3415(2) 0.8756(5)
H6_7 H 0.1486 0.3188 0.8769
C15_7 C 0.5085(7) 0.4085(2) 0.8756(5)
H7_7 H 0.6014 0.4312 0.8769
C16_7 C 0.5085(7) 0.3415(2) 0.8744(5)
H8_7 H 0.6014 0.3188 0.8731
C5_8 C 0.3750 0.0142(4) 0.3750
C6_8 C 0.3750 0.9420(3) 0.3750
C7_8 C 0.2415(7) 0.9085(2) 0.3744(5)
H3_8 H 0.1486 0.9312 0.3731
C12_8 C 0.3750 0.7358(4) 0.3750
C13_8 C 0.3750 0.8080(3) 0.3750
C14_8 C 0.2415(7) 0.8415(2) 0.3756(5)
H6_8 H 0.1486 0.8188 0.3769
C15_8 C 0.5085(7) 0.9085(2) 0.3756(5)
H7_8 H 0.6014 0.9312 0.3769
C16_8 C 0.5085(7) 0.8415(2) 0.3744(5)
H8_8 H 0.6014 0.8188 0.3731
loop_
_geom_bond_atom_site_label_1
_geom_bond_atom_site_label_2
_geom_bond_site_symmetry_1
_geom_bond_site_symmetry_2
Sc1 O1 1_555 1_555
O1 C1 1_555 1_555
C1 O2 1_555 1_555
C2 C1 1_555 1_555
C3 C2 1_555 1_555
C4 C3 1_555 1_555
O3 Sc1 1_555 1_555
C5 O3 1_555 1_555
C6 C5 1_555 1_555
C7 C6 1_555 1_555
H1 C3 1_555 1_555
H2 C4 1_555 1_555
H3 C7 1_555 1_555
O6 C12 1_555 1_555
C12 C13 1_555 1_555
C13 C14 1_555 1_555
C14 C7 1_555 1_555
H6 C14 1_555 1_555
O7 C5 1_555 1_555
O8 C12 1_555 1_555
O9 Sc1 1_555 1_555
C17 O9 1_555 1_555
O10 C17 1_555 1_555
C18 C17 1_555 1_555
C19 C18 1_555 1_555
C20 C19 1_555 1_555
H9 C19 1_555 1_555
H10 C20 1_555 1_555
O11 C21 1_555 1_555
C21 O12 1_555 1_555
O12 Sc5 1_555 1_555
C22 C20 1_555 1_555
C23 C22 1_555 1_555
C24 C18 1_555 1_555
H12 C24 1_555 1_555
Sc6 O6 1_555 1_555
Sc9 O10 1_555 1_555
O15 Sc1 1_555 1_555
O16 Sc1 1_555 1_555
O20 Sc1 1_555 1_555
C21 C22 1_555 1_555
C23 C24 1_555 1_555
O4 C8 1_555 1_555
C8 O5 1_555 1_555
C10 C9 1_555 1_555
H4 C10 1_555 1_555
H5 C11 1_555 1_555
H7 C15 1_555 1_555
H8 C16 1_555 1_555
Sc2 O4 1_555 1_555
O13 Sc2 1_555 1_555
O14 Sc2 1_555 1_555
O17 Sc2 1_555 1_555
O18 Sc2 1_555 1_555
O19 Sc2 1_555 1_555
C8 C9 1_555 1_555
C10 C11 1_555 1_555
C15 C16 1_555 1_555
C7_2 C6_2 1_555 1_555
H3_2 C7_2 1_555 1_555
O6_2 C12_2 1_555 1_555
C12_2 C13_2 1_555 1_555
C13_2 C14_2 1_555 1_555
C14_2 C7_2 1_555 1_555
H6_2 C14_2 1_555 1_555
O8_2 C12_2 1_555 1_555
H10_2 C20_2 1_555 1_555
O11_2 C21_2 1_555 1_555
C21_2 O12_2 1_555 1_555
O12_2 Sc5_2 1_555 1_555
C22_2 C20_2 1_555 1_555
C23_2 C22_2 1_555 1_555
Sc6_2 O6_2 1_555 1_555
C21_2 C22_2 1_555 1_555
Sc1_2 O1_2 1_555 1_555
O1_2 C1_2 1_555 1_555
C1_2 O2_2 1_555 1_555
C2_2 C1_2 1_555 1_555
C3_2 C2_2 1_555 1_555
C4_2 C3_2 1_555 1_555
O3_2 Sc1_2 1_555 1_555
C5_2 O3_2 1_555 1_555
H1_2 C3_2 1_555 1_555
H2_2 C4_2 1_555 1_555
O7_2 C5_2 1_555 1_555
O9_2 Sc1_2 1_555 1_555
C17_2 O9_2 1_555 1_555
O10_2 C17_2 1_555 1_555
C18_2 C17_2 1_555 1_555
C19_2 C18_2 1_555 1_555
H9_2 C19_2 1_555 1_555
C24_2 C18_2 1_555 1_555
H12_2 C24_2 1_555 1_555
Sc9_2 O10_2 1_555 1_555
O15_2 Sc1_2 1_555 1_555
O16_2 Sc1_2 1_555 1_555
O20_2 Sc1_2 1_555 1_555
H7_2 C15_2 1_555 1_555
H8_2 C16_2 1_555 1_555
C15_2 C16_2 1_555 1_555
O4_2 C8_2 1_555 1_555
C8_2 O5_2 1_555 1_555
C10_2 C9_2 1_555 1_555
H4_2 C10_2 1_555 1_555
H5_2 C11_2 1_555 1_555
Sc2_2 O4_2 1_555 1_555
O13_2 Sc2_2 1_555 1_555
O14_2 Sc2_2 1_555 1_555
O17_2 Sc2_2 1_555 1_555
O18_2 Sc2_2 1_555 1_555
O19_2 Sc2_2 1_555 1_555
C8_2 C9_2 1_555 1_555
C10_2 C11_2 1_555 1_555
C17_3 O9_3 1_555 1_555
O10_3 C17_3 1_555 1_555
C18_3 C17_3 1_555 1_555
C19_3 C18_3 1_555 1_555
C20_3 C19_3 1_555 1_555
H10_3 C20_3 1_555 1_555
O13_2 C21_3 1_555 1_555
C21_3 O12_3 1_555 1_555
O12_3 Sc7_2 1_555 1_555
C22_3 C20_3 1_555 1_555
C23_3 C22_3 1_555 1_555
C24_3 C18_3 1_555 1_555
H11_3 C23_3 1_555 1_555
H12_3 C24_3 1_555 1_555
Sc6_2 O10_3 1_555 1_555
C21_3 C22_3 1_555 1_555
C23_3 C24_3 1_555 1_555
Sc4_2 O1_3 1_555 1_555
O1_3 C1_3 1_555 1_555
C1_3 O2_3 1_555 1_555
O2_3 Sc6_2 1_555 1_555
C2_3 C1_3 1_555 1_555
C3_3 C2_3 1_555 1_555
C4_3 C3_3 1_555 1_555
O3_3 Sc4_2 1_555 1_555
C5_3 O3_3 1_555 1_555
C6_3 C5_3 1_555 1_555
C7_3 C6_3 1_555 1_555
H1_3 C3_3 1_555 1_555
H2_3 C4_3 1_555 1_555
H3_3 C7_3 1_555 1_555
O4_3 C8_3 1_555 1_555
C8_3 O5_3 1_555 1_555
O5_3 Sc5_2 1_555 1_555
C9_3 C4_3 1_555 1_555
C10_3 C9_3 1_555 1_555
C11_3 C2_3 1_555 1_555
H4_3 C10_3 1_555 1_555
H5_3 C11_3 1_555 1_555
O6_3 C12_3 1_555 1_555
C12_3 C13_3 1_555 1_555
C13_3 C14_3 1_555 1_555
C14_3 C7_3 1_555 1_555
H6_3 C14_3 1_555 1_555
O7_3 C5_3 1_555 1_555
C15_3 C6_3 1_555 1_555
H7_3 C15_3 1_555 1_555
O20_2 C12_3 1_555 1_555
C16_3 C13_3 1_555 1_555
H8_3 C16_3 1_555 1_555
Sc3_2 O4_3 1_555 1_555
Sc9_2 O6_3 1_555 1_555
Sc6_2 O7_3 1_555 1_555
O16_3 Sc4_2 1_555 1_555
O17_3 Sc3_2 1_555 1_555
O18_3 Sc3_2 1_555 1_555
C8_3 C9_3 1_555 1_555
C10_3 C11_3 1_555 1_555
C15_3 C16_3 1_555 1_555
H10_4 C20_4 1_555 1_555
O13 C21_4 1_555 1_555
C21_4 O12_4 1_555 1_555
O12_4 Sc7 1_555 1_555
C22_4 C20_4 1_555 1_555
C23_4 C22_4 1_555 1_555
H11_4 C23_4 1_555 1_555
C21_4 C22_4 1_555 1_555
C17_4 O9_4 1_555 1_555
O10_4 C17_4 1_555 1_555
C18_4 C17_4 1_555 1_555
C19_4 C18_4 1_555 1_555
C24_4 C18_4 1_555 1_555
H12_4 C24_4 1_555 1_555
Sc6 O10_4 1_555 1_555
C7_4 C6_4 1_555 1_555
H3_4 C7_4 1_555 1_555
O6_4 C12_4 1_555 1_555
C12_4 C13_4 1_555 1_555
C13_4 C14_4 1_555 1_555
C14_4 C7_4 1_555 1_555
H6_4 C14_4 1_555 1_555
C15_4 C6_4 1_555 1_555
H7_4 C15_4 1_555 1_555
O20 C12_4 1_555 1_555
C16_4 C13_4 1_555 1_555
H8_4 C16_4 1_555 1_555
Sc9 O6_4 1_555 1_555
C15_4 C16_4 1_555 1_555
Sc4 O1_4 1_555 1_555
O1_4 C1_4 1_555 1_555
C1_4 O2_4 1_555 1_555
O2_4 Sc6 1_555 1_555
C2_4 C1_4 1_555 1_555
C3_4 C2_4 1_555 1_555
C4_4 C3_4 1_555 1_555
O3_4 Sc4 1_555 1_555
C5_4 O3_4 1_555 1_555
H1_4 C3_4 1_555 1_555
H2_4 C4_4 1_555 1_555
O4_4 C8_4 1_555 1_555
C8_4 O5_4 1_555 1_555
O5_4 Sc5 1_555 1_555
C9_4 C4_4 1_555 1_555
C10_4 C9_4 1_555 1_555
C11_4 C2_4 1_555 1_555
H4_4 C10_4 1_555 1_555
H5_4 C11_4 1_555 1_555
O7_4 C5_4 1_555 1_555
Sc3 O4_4 1_555 1_555
Sc6 O7_4 1_555 1_555
O16_4 Sc4 1_555 1_555
O17_4 Sc3 1_555 1_555
O18_4 Sc3 1_555 1_555
C8_4 C9_4 1_555 1_555
C10_4 C11_4 1_555 1_555
H2_5 C4_5 1_555 1_555
Sc6 O1_5 1_555 1_555
O1_5 C1_5 1_555 1_555
C1_5 O15_4 1_555 1_555
C2_5 C1_5 1_555 1_555
C3_5 C2_5 1_555 1_555
H1_5 C3_5 1_555 1_555
O9_5 Sc6 1_555 1_555
C17_5 O9_5 1_555 1_555
O16_4 C17_5 1_555 1_555
C18_5 C17_5 1_555 1_555
C19_5 C18_5 1_555 1_555
C20_5 C19_5 1_555 1_555
H9_5 C19_5 1_555 1_555
H10_5 C20_5 1_555 1_555
O11_3 C21_5 1_555 1_555
C21_5 O17_2 1_555 1_555
C22_5 C20_5 1_555 1_555
C23_5 C22_5 1_555 1_555
C24_5 C18_5 1_555 1_555
H12_5 C24_5 1_555 1_555
C21_5 C22_5 1_555 1_555
C23_5 C24_5 1_555 1_555
O4_5 C8_5 1_555 1_555
C8_5 O14_3 1_555 1_555
C10_5 C9_5 1_555 1_555
H4_5 C10_5 1_555 1_555
Sc5_2 O4_5 1_555 1_555
O13_3 Sc5_2 1_555 1_555
O18_5 Sc5_2 1_555 1_555
O19_5 Sc5_2 1_555 1_555
C8_5 C9_5 1_555 1_555
H5_5 C11_5 1_555 1_555
Sc6_2 O1_6 1_555 1_555
O1_6 C1_6 1_555 1_555
C1_6 O15_3 1_555 1_555
C2_6 C1_6 1_555 1_555
C3_6 C2_6 1_555 1_555
H1_6 C3_6 1_555 1_555
O9_6 Sc6_2 1_555 1_555
C17_6 O9_6 1_555 1_555
O16_3 C17_6 1_555 1_555
C18_6 C17_6 1_555 1_555
C19_6 C18_6 1_555 1_555
H9_6 C19_6 1_555 1_555
C24_6 C18_6 1_555 1_555
H12_6 C24_6 1_555 1_555
H2_6 C4_6 1_555 1_555
H10_6 C20_6 1_555 1_555
O11_4 C21_6 1_555 1_555
C21_6 O17 1_555 1_555
C22_6 C20_6 1_555 1_555
C23_6 C22_6 1_555 1_555
C21_6 C22_6 1_555 1_555
H5_6 C11_6 1_555 1_555
O4_6 C8_6 1_555 1_555
C8_6 O14_4 1_555 1_555
C10_6 C9_6 1_555 1_555
H4_6 C10_6 1_555 1_555
Sc5 O4_6 1_555 1_555
O13_4 Sc5 1_555 1_555
O18_6 Sc5 1_555 1_555
O19_6 Sc5 1_555 1_555
C8_6 C9_6 1_555 1_555
C17_7 O9_7 1_555 1_555
O16_2 C17_7 1_555 1_555
C18_7 C17_7 1_555 1_555
C19_7 C18_7 1_555 1_555
C24_7 C18_7 1_555 1_555
H12_7 C24_7 1_555 1_555
H10_7 C20_7 1_555 1_555
O13_4 C21_7 1_555 1_555
C21_7 O17_4 1_555 1_555
C22_7 C20_7 1_555 1_555
C23_7 C22_7 1_555 1_555
H11_7 C23_7 1_555 1_555
C21_7 C22_7 1_555 1_555
H2_7 C4_7 1_555 1_555
O4_7 C8_7 1_555 1_555
C8_7 O14 1_555 1_555
C9_7 C4_7 1_555 1_555
C10_7 C9_7 1_555 1_555
H4_7 C10_7 1_555 1_555
Sc7 O4_7 1_555 1_555
O18_7 Sc7 1_555 1_555
C8_7 C9_7 1_555 1_555
Sc9_2 O1_7 1_555 1_555
O1_7 C1_7 1_555 1_555
C1_7 O15_2 1_555 1_555
C2_7 C1_7 1_555 1_555
C3_7 C2_7 1_555 1_555
H1_7 C3_7 1_555 1_555
C11_7 C2_7 1_555 1_555
H5_7 C11_7 1_555 1_555
C17_8 O9_8 1_555 1_555
O16 C17_8 1_555 1_555
C18_8 C17_8 1_555 1_555
C19_8 C18_8 1_555 1_555
C20_8 C19_8 1_555 1_555
H10_8 C20_8 1_555 1_555
O13_3 C21_8 1_555 1_555
C21_8 O17_3 1_555 1_555
C22_8 C20_8 1_555 1_555
C23_8 C22_8 1_555 1_555
C24_8 C18_8 1_555 1_555
H11_8 C23_8 1_555 1_555
H12_8 C24_8 1_555 1_555
C21_8 C22_8 1_555 1_555
C23_8 C24_8 1_555 1_555
Sc9 O1_8 1_555 1_555
O1_8 C1_8 1_555 1_555
C1_8 O15 1_555 1_555
C2_8 C1_8 1_555 1_555
C3_8 C2_8 1_555 1_555
C4_8 C3_8 1_555 1_555
H1_8 C3_8 1_555 1_555
H2_8 C4_8 1_555 1_555
O4_8 C8_8 1_555 1_555
C8_8 O14_2 1_555 1_555
C9_8 C4_8 1_555 1_555
C10_8 C9_8 1_555 1_555
C11_8 C2_8 1_555 1_555
H4_8 C10_8 1_555 1_555
H5_8 C11_8 1_555 1_555
Sc7_2 O4_8 1_555 1_555
O18_8 Sc7_2 1_555 1_555
C8_8 C9_8 1_555 1_555
C10_8 C11_8 1_555 1_555
H7_5 C15_5 1_555 1_555
H8_5 C16_5 1_555 1_555
C15_5 C16_5 1_555 1_555
C5_5 O18_2 1_555 1_555
C6_5 C5_5 1_555 1_555
C7_5 C6_5 1_555 1_555
H3_5 C7_5 1_555 1_555
O18_5 C12_5 1_555 1_555
C12_5 C13_5 1_555 1_555
C13_5 C14_5 1_555 1_555
C14_5 C7_5 1_555 1_555
H6_5 C14_5 1_555 1_555
O19_8 C5_5 1_555 1_555
O19_3 C12_5 1_555 1_555
H7_6 C15_6 1_555 1_555
H8_6 C16_6 1_555 1_555
C15_6 C16_6 1_555 1_555
C5_6 O18 1_555 1_555
O19_7 C5_6 1_555 1_555
C7_6 C6_6 1_555 1_555
H3_6 C7_6 1_555 1_555
O18_6 C12_6 1_555 1_555
C12_6 C13_6 1_555 1_555
C13_6 C14_6 1_555 1_555
C14_6 C7_6 1_555 1_555
H6_6 C14_6 1_555 1_555
O19_4 C12_6 1_555 1_555
C5_7 O18_4 1_555 1_555
C6_7 C5_7 1_555 1_555
C7_7 C6_7 1_555 1_555
H3_7 C7_7 1_555 1_555
O18_7 C12_7 1_555 1_555
C12_7 C13_7 1_555 1_555
C13_7 C14_7 1_555 1_555
C14_7 C7_7 1_555 1_555
H6_7 C14_7 1_555 1_555
O19_6 C5_7 1_555 1_555
C15_7 C6_7 1_555 1_555
H7_7 C15_7 1_555 1_555
O19 C12_7 1_555 1_555
C16_7 C13_7 1_555 1_555
H8_7 C16_7 1_555 1_555
C15_7 C16_7 1_555 1_555
C5_8 O18_3 1_555 1_555
O19_5 C5_8 1_555 1_555
C7_8 C6_8 1_555 1_555
H3_8 C7_8 1_555 1_555
O18_8 C12_8 1_555 1_555
C12_8 C13_8 1_555 1_555
C13_8 C14_8 1_555 1_555
C14_8 C7_8 1_555 1_555
H6_8 C14_8 1_555 1_555
C15_8 C6_8 1_555 1_555
H7_8 C15_8 1_555 1_555
O19_2 C12_8 1_555 1_555
C16_8 C13_8 1_555 1_555
H8_8 C16_8 1_555 1_555
C15_8 C16_8 1_555 1_555

#END
