
###############################################################################
#
# This file contains modified crystal structure data generated from the
# MOF subset of the Cambridge Structural Database (CSD) v543 
# hosted by the Cambridge Crystallographic Data Centre (CCDC).
#
# This work is licensed under the Creative Commons
# Attribution-NonCommercial-ShareAlike 4.0 International License.
# To view a copy of this license, visit
# http://creativecommons.org/licenses/by-nc-sa/4.0/
# or send a letter to
# Creative Commons, PO Box 1866, Mountain View, CA 94042, USA.
#
# CIF created using the CSD Python API on 29 September 2022
# The structure has been converted into the P1 space group
# The structure has a 3D framework
# The original CSD entry HOJNOL is in the orthorhombic crystal system
# The framework has been calculated to contain at least 10.0% void space
# The void calculation uses a probe of radius 1.32A, grid spacing 0.4
#
###############################################################################

data_HOJNOL
_chemical_formula_moiety         '(C192 H96 O96 Sc16)n'
_symmetry_cell_setting           triclinic
_symmetry_space_group_name_H-M   'P 1'
_symmetry_Int_Tables_number      1
_space_group_name_Hall           'P 1'
loop_
_symmetry_equiv_pos_site_id
_symmetry_equiv_pos_as_xyz
1 x,y,z
_cell_length_a                   8.8567(16)
_cell_length_b                   20.693(2)
_cell_length_c                   34.249(6)
_cell_angle_alpha                90
_cell_angle_beta                 90
_cell_angle_gamma                90
_cell_volume                     6276.87
loop_
_atom_site_label
_atom_site_type_symbol
_atom_site_fract_x
_atom_site_fract_y
_atom_site_fract_z
H11 H 0.0041 0.5232 0.7577
Sc3 Sc 0.1250 0.6250 0.86462(8)
Sc1 Sc 0.3750 0.3750 0.63538(8)
O1 O 0.2404(9) 0.3334(4) 0.6794(2)
C1 C 0.1022(9) 0.3199(5) 0.6822(2)
O2 O 0.0061(10) 0.3352(4) 0.6573(2)
C2 C 0.0497(9) 0.2839(6) 0.7175(3)
C3 C 0.1504(9) 0.2624(6) 0.7449(3)
C4 C 0.1009(10) 0.2291(6) 0.7775(3)
O3 O 0.2445(8) 0.4576(3) 0.6354(2)
C5 C 0.1250 0.4861(4) 0.6250
C6 C 0.1250 0.5584(3) 0.6250
C7 C 0.2585(7) 0.59167(19) 0.6252(4)
H1 H 0.2541 0.2732 0.7423
H2 H 0.1720 0.2148 0.7964
H3 H 0.3514 0.5689 0.6265
O6 O 0.2445(8) 0.7924(3) 0.6146(2)
C12 C 0.1250 0.7639(4) 0.6250
C13 C 0.1250 0.6916(3) 0.6250
C14 C 0.2585(7) 0.65833(19) 0.6248(4)
H6 H 0.3514 0.6811 0.6235
O7 O 0.0055(8) 0.4576(3) 0.6146(2)
O8 O 0.0055(8) 0.7924(3) 0.6354(2)
O9 O 0.5096(9) 0.4166(4) 0.6794(2)
C17 C 0.6478(9) 0.4301(5) 0.6822(2)
O10 O 0.7439(10) 0.4148(4) 0.6573(2)
C18 C 0.7003(9) 0.4661(6) 0.7175(3)
C19 C 0.5996(9) 0.4876(6) 0.7449(3)
C20 C 0.6491(10) 0.5209(6) 0.7775(3)
H9 H 0.4959 0.4768 0.7423
H10 H 0.5780 0.5352 0.7964
O11 O 0.9904(9) 0.5834(4) 0.8206(2)
C21 C 0.8522(9) 0.5699(5) 0.8178(2)
O12 O 0.7561(10) 0.5852(4) 0.8427(2)
C22 C 0.7997(9) 0.5339(6) 0.7825(3)
C23 C 0.9004(9) 0.5124(6) 0.7551(3)
C24 C 0.8509(10) 0.4791(6) 0.7225(3)
H12 H 0.9220 0.4648 0.7036
Sc5 Sc 0.6250 0.6250 0.88538(8)
Sc6 Sc 0.3750 0.8750 0.61462(8)
Sc7 Sc 0.1250 0.1250 0.88538(8)
Sc9 Sc 0.8750 0.3750 0.61462(8)
O15 O 0.5061(10) 0.4148(4) 0.5927(2)
O16 O 0.2439(10) 0.3352(4) 0.5927(2)
O20 O 0.5055(8) 0.2924(3) 0.6354(2)
O4 O 0.7596(9) 0.1666(4) 0.8206(2)
C8 C 0.8978(9) 0.1801(5) 0.8178(2)
O5 O 0.9939(10) 0.1648(4) 0.8427(2)
C9 C 0.9503(9) 0.2161(6) 0.7825(3)
C10 C 0.8496(9) 0.2376(6) 0.7551(3)
C11 C 0.8991(10) 0.2709(6) 0.7225(3)
H4 H 0.7459 0.2268 0.7577
H5 H 0.8280 0.2852 0.7036
C15 C 0.9915(7) 0.59167(19) 0.6248(4)
H7 H 0.8986 0.5689 0.6235
C16 C 0.9915(7) 0.65833(19) 0.6252(4)
H8 H 0.8986 0.6811 0.6265
Sc2 Sc 0.6250 0.1250 0.86462(8)
Sc4 Sc 0.8750 0.8750 0.63538(8)
O13 O 0.4904(9) 0.0834(4) 0.8206(2)
O14 O 0.4939(10) 0.0852(4) 0.9073(2)
O17 O 0.7561(10) 0.1648(4) 0.9073(2)
O18 O 0.7555(8) 0.0424(3) 0.8646(2)
O19 O 0.4945(8) 0.2076(3) 0.8646(2)
H11_2 H 0.0041 0.0232 0.2577
Sc3_2 Sc 0.1250 0.1250 0.36462(8)
C6_2 C 0.1250 0.0584(3) 0.1250
C7_2 C 0.2585(7) 0.09167(19) 0.1252(4)
H3_2 H 0.3514 0.0689 0.1265
O6_2 O 0.2445(8) 0.2924(3) 0.1146(2)
C12_2 C 0.1250 0.2639(4) 0.1250
C13_2 C 0.1250 0.1916(3) 0.1250
C14_2 C 0.2585(7) 0.15833(19) 0.1248(4)
H6_2 H 0.3514 0.1811 0.1235
O8_2 O 0.0055(8) 0.2924(3) 0.1354(2)
C20_2 C 0.6491(10) 0.0209(6) 0.2775(3)
H10_2 H 0.5780 0.0352 0.2964
O11_2 O 0.9904(9) 0.0834(4) 0.3206(2)
C21_2 C 0.8522(9) 0.0699(5) 0.3178(2)
O12_2 O 0.7561(10) 0.0852(4) 0.3427(2)
C22_2 C 0.7997(9) 0.0339(6) 0.2825(3)
C23_2 C 0.9004(9) 0.0124(6) 0.2551(3)
Sc5_2 Sc 0.6250 0.1250 0.38538(8)
Sc6_2 Sc 0.3750 0.3750 0.11462(8)
Sc1_2 Sc 0.3750 0.8750 0.13538(8)
O1_2 O 0.2404(9) 0.8334(4) 0.1794(2)
C1_2 C 0.1022(9) 0.8199(5) 0.1822(2)
O2_2 O 0.0061(10) 0.8352(4) 0.1573(2)
C2_2 C 0.0497(9) 0.7839(6) 0.2175(3)
C3_2 C 0.1504(9) 0.7624(6) 0.2449(3)
C4_2 C 0.1009(10) 0.7291(6) 0.2775(3)
O3_2 O 0.2445(8) 0.9576(3) 0.1354(2)
C5_2 C 0.1250 0.9861(4) 0.1250
H1_2 H 0.2541 0.7732 0.2423
H2_2 H 0.1720 0.7148 0.2964
O7_2 O 0.0055(8) 0.9576(3) 0.1146(2)
O9_2 O 0.5096(9) 0.9166(4) 0.1794(2)
C17_2 C 0.6478(9) 0.9301(5) 0.1822(2)
O10_2 O 0.7439(10) 0.9148(4) 0.1573(2)
C18_2 C 0.7003(9) 0.9661(6) 0.2175(3)
C19_2 C 0.5996(9) 0.9876(6) 0.2449(3)
H9_2 H 0.4959 0.9768 0.2423
C24_2 C 0.8509(10) 0.9791(6) 0.2225(3)
H12_2 H 0.9220 0.9648 0.2036
Sc7_2 Sc 0.1250 0.6250 0.38538(8)
Sc9_2 Sc 0.8750 0.8750 0.11462(8)
O15_2 O 0.5061(10) 0.9148(4) 0.0927(2)
O16_2 O 0.2439(10) 0.8352(4) 0.0927(2)
O20_2 O 0.5055(8) 0.7924(3) 0.1354(2)
C15_2 C 0.9915(7) 0.09167(19) 0.1248(4)
H7_2 H 0.8986 0.0689 0.1235
C16_2 C 0.9915(7) 0.15833(19) 0.1252(4)
H8_2 H 0.8986 0.1811 0.1265
Sc4_2 Sc 0.8750 0.3750 0.13538(8)
O4_2 O 0.7596(9) 0.6666(4) 0.3206(2)
C8_2 C 0.8978(9) 0.6801(5) 0.3178(2)
O5_2 O 0.9939(10) 0.6648(4) 0.3427(2)
C9_2 C 0.9503(9) 0.7161(6) 0.2825(3)
C10_2 C 0.8496(9) 0.7376(6) 0.2551(3)
C11_2 C 0.8991(10) 0.7709(6) 0.2225(3)
H4_2 H 0.7459 0.7268 0.2577
H5_2 H 0.8280 0.7852 0.2036
Sc2_2 Sc 0.6250 0.6250 0.36462(8)
O13_2 O 0.4904(9) 0.5834(4) 0.3206(2)
O14_2 O 0.4939(10) 0.5852(4) 0.4073(2)
O17_2 O 0.7561(10) 0.6648(4) 0.4073(2)
O18_2 O 0.7555(8) 0.5424(3) 0.3646(2)
O19_2 O 0.4945(8) 0.7076(3) 0.3646(2)
O9_3 O 0.0096(9) 0.4166(4) 0.1794(2)
C17_3 C 0.1478(9) 0.4301(5) 0.1822(2)
O10_3 O 0.2439(10) 0.4148(4) 0.1573(2)
C18_3 C 0.2003(9) 0.4661(6) 0.2175(3)
C19_3 C 0.0996(9) 0.4876(6) 0.2449(3)
C20_3 C 0.1491(10) 0.5209(6) 0.2775(3)
H10_3 H 0.0780 0.5352 0.2964
C21_3 C 0.3522(9) 0.5699(5) 0.3178(2)
O12_3 O 0.2561(10) 0.5852(4) 0.3427(2)
C22_3 C 0.2997(9) 0.5339(6) 0.2825(3)
C23_3 C 0.4004(9) 0.5124(6) 0.2551(3)
C24_3 C 0.3509(10) 0.4791(6) 0.2225(3)
H11_3 H 0.5041 0.5232 0.2577
H12_3 H 0.4220 0.4648 0.2036
O15_3 O 0.0061(10) 0.4148(4) 0.0927(2)
O1_3 O 0.7404(9) 0.3334(4) 0.1794(2)
C1_3 C 0.6022(9) 0.3199(5) 0.1822(2)
O2_3 O 0.5061(10) 0.3352(4) 0.1573(2)
C2_3 C 0.5497(9) 0.2839(6) 0.2175(3)
C3_3 C 0.6504(9) 0.2624(6) 0.2449(3)
C4_3 C 0.6009(10) 0.2291(6) 0.2775(3)
O3_3 O 0.7445(8) 0.4576(3) 0.1354(2)
C5_3 C 0.6250 0.4861(4) 0.1250
C6_3 C 0.6250 0.5584(3) 0.1250
C7_3 C 0.7585(7) 0.59167(19) 0.1252(4)
H1_3 H 0.7541 0.2732 0.2423
H2_3 H 0.6720 0.2148 0.2964
H3_3 H 0.8514 0.5689 0.1265
O4_3 O 0.2596(9) 0.1666(4) 0.3206(2)
C8_3 C 0.3978(9) 0.1801(5) 0.3178(2)
O5_3 O 0.4939(10) 0.1648(4) 0.3427(2)
C9_3 C 0.4503(9) 0.2161(6) 0.2825(3)
C10_3 C 0.3496(9) 0.2376(6) 0.2551(3)
C11_3 C 0.3991(10) 0.2709(6) 0.2225(3)
H4_3 H 0.2459 0.2268 0.2577
H5_3 H 0.3280 0.2852 0.2036
O6_3 O 0.7445(8) 0.7924(3) 0.1146(2)
C12_3 C 0.6250 0.7639(4) 0.1250
C13_3 C 0.6250 0.6916(3) 0.1250
C14_3 C 0.7585(7) 0.65833(19) 0.1248(4)
H6_3 H 0.8514 0.6811 0.1235
O7_3 O 0.5055(8) 0.4576(3) 0.1146(2)
C15_3 C 0.4915(7) 0.59167(19) 0.1248(4)
H7_3 H 0.3986 0.5689 0.1235
C16_3 C 0.4915(7) 0.65833(19) 0.1252(4)
H8_3 H 0.3986 0.6811 0.1265
H9_3 H 0.9959 0.4768 0.2423
O16_3 O 0.7439(10) 0.3352(4) 0.0927(2)
O17_3 O 0.2561(10) 0.1648(4) 0.4073(2)
O18_3 O 0.2555(8) 0.0424(3) 0.3646(2)
O14_3 O 0.9939(10) 0.0852(4) 0.4073(2)
O19_3 O 0.9945(8) 0.2076(3) 0.3646(2)
C20_4 C 0.1491(10) 0.0209(6) 0.7775(3)
H10_4 H 0.0780 0.0352 0.7964
C21_4 C 0.3522(9) 0.0699(5) 0.8178(2)
O12_4 O 0.2561(10) 0.0852(4) 0.8427(2)
C22_4 C 0.2997(9) 0.0339(6) 0.7825(3)
C23_4 C 0.4004(9) 0.0124(6) 0.7551(3)
H11_4 H 0.5041 0.0232 0.7577
O9_4 O 0.0096(9) 0.9166(4) 0.6794(2)
C17_4 C 0.1478(9) 0.9301(5) 0.6822(2)
O10_4 O 0.2439(10) 0.9148(4) 0.6573(2)
C18_4 C 0.2003(9) 0.9661(6) 0.7175(3)
C19_4 C 0.0996(9) 0.9876(6) 0.7449(3)
C24_4 C 0.3509(10) 0.9791(6) 0.7225(3)
H12_4 H 0.4220 0.9648 0.7036
O15_4 O 0.0061(10) 0.9148(4) 0.5927(2)
C6_4 C 0.6250 0.0584(3) 0.6250
C7_4 C 0.7585(7) 0.09167(19) 0.6252(4)
H3_4 H 0.8514 0.0689 0.6265
O6_4 O 0.7445(8) 0.2924(3) 0.6146(2)
C12_4 C 0.6250 0.2639(4) 0.6250
C13_4 C 0.6250 0.1916(3) 0.6250
C14_4 C 0.7585(7) 0.15833(19) 0.6248(4)
H6_4 H 0.8514 0.1811 0.6235
C15_4 C 0.4915(7) 0.09167(19) 0.6248(4)
H7_4 H 0.3986 0.0689 0.6235
C16_4 C 0.4915(7) 0.15833(19) 0.6252(4)
H8_4 H 0.3986 0.1811 0.6265
O1_4 O 0.7404(9) 0.8334(4) 0.6794(2)
C1_4 C 0.6022(9) 0.8199(5) 0.6822(2)
O2_4 O 0.5061(10) 0.8352(4) 0.6573(2)
C2_4 C 0.5497(9) 0.7839(6) 0.7175(3)
C3_4 C 0.6504(9) 0.7624(6) 0.7449(3)
C4_4 C 0.6009(10) 0.7291(6) 0.7775(3)
O3_4 O 0.7445(8) 0.9576(3) 0.6354(2)
C5_4 C 0.6250 0.9861(4) 0.6250
H1_4 H 0.7541 0.7732 0.7423
H2_4 H 0.6720 0.7148 0.7964
O4_4 O 0.2596(9) 0.6666(4) 0.8206(2)
C8_4 C 0.3978(9) 0.6801(5) 0.8178(2)
O5_4 O 0.4939(10) 0.6648(4) 0.8427(2)
C9_4 C 0.4503(9) 0.7161(6) 0.7825(3)
C10_4 C 0.3496(9) 0.7376(6) 0.7551(3)
C11_4 C 0.3991(10) 0.7709(6) 0.7225(3)
H4_4 H 0.2459 0.7268 0.7577
H5_4 H 0.3280 0.7852 0.7036
O7_4 O 0.5055(8) 0.9576(3) 0.6146(2)
H9_4 H 0.9959 0.9768 0.7423
O16_4 O 0.7439(10) 0.8352(4) 0.5927(2)
O17_4 O 0.2561(10) 0.6648(4) 0.9073(2)
O18_4 O 0.2555(8) 0.5424(3) 0.8646(2)
O14_4 O 0.9939(10) 0.5852(4) 0.9073(2)
O19_4 O 0.9945(8) 0.7076(3) 0.8646(2)
H11_5 H 0.0041 0.7268 0.4923
C4_5 C 0.1009(10) 0.0209(6) 0.4725(3)
H2_5 H 0.1720 0.0352 0.4536
O1_5 O 0.2404(9) 0.9166(4) 0.5706(2)
C1_5 C 0.1022(9) 0.9301(5) 0.5678(2)
C2_5 C 0.0497(9) 0.9661(6) 0.5325(3)
C3_5 C 0.1504(9) 0.9876(6) 0.5051(3)
H1_5 H 0.2541 0.9768 0.5077
O9_5 O 0.5096(9) 0.8334(4) 0.5706(2)
C17_5 C 0.6478(9) 0.8199(5) 0.5678(2)
C18_5 C 0.7003(9) 0.7839(6) 0.5325(3)
C19_5 C 0.5996(9) 0.7624(6) 0.5051(3)
C20_5 C 0.6491(10) 0.7291(6) 0.4725(3)
H9_5 H 0.4959 0.7732 0.5077
H10_5 H 0.5780 0.7148 0.4536
O11_3 O 0.9904(9) 0.6666(4) 0.4294(2)
C21_5 C 0.8522(9) 0.6801(5) 0.4322(2)
C22_5 C 0.7997(9) 0.7161(6) 0.4675(3)
C23_5 C 0.9004(9) 0.7376(6) 0.4949(3)
C24_5 C 0.8509(10) 0.7709(6) 0.5275(3)
H12_5 H 0.9220 0.7852 0.5464
O4_5 O 0.7596(9) 0.0834(4) 0.4294(2)
C8_5 C 0.8978(9) 0.0699(5) 0.4322(2)
C9_5 C 0.9503(9) 0.0339(6) 0.4675(3)
C10_5 C 0.8496(9) 0.0124(6) 0.4949(3)
H4_5 H 0.7459 0.0232 0.4923
O13_3 O 0.4904(9) 0.1666(4) 0.4294(2)
O18_5 O 0.7555(8) 0.2076(3) 0.3854(2)
O19_5 O 0.4945(8) 0.0424(3) 0.3854(2)
C11_5 C 0.8991(10) 0.9791(6) 0.5275(3)
H5_5 H 0.8280 0.9648 0.5464
H11_6 H 0.0041 0.2268 0.9923
O1_6 O 0.2404(9) 0.4166(4) 0.0706(2)
C1_6 C 0.1022(9) 0.4301(5) 0.0678(2)
C2_6 C 0.0497(9) 0.4661(6) 0.0325(3)
C3_6 C 0.1504(9) 0.4876(6) 0.0051(3)
H1_6 H 0.2541 0.4768 0.0077
O9_6 O 0.5096(9) 0.3334(4) 0.0706(2)
C17_6 C 0.6478(9) 0.3199(5) 0.0678(2)
C18_6 C 0.7003(9) 0.2839(6) 0.0325(3)
C19_6 C 0.5996(9) 0.2624(6) 0.0051(3)
H9_6 H 0.4959 0.2732 0.0077
C24_6 C 0.8509(10) 0.2709(6) 0.0275(3)
H12_6 H 0.9220 0.2852 0.0464
C4_6 C 0.1009(10) 0.5209(6) 0.9725(3)
H2_6 H 0.1720 0.5352 0.9536
C20_6 C 0.6491(10) 0.2291(6) 0.9725(3)
H10_6 H 0.5780 0.2148 0.9536
O11_4 O 0.9904(9) 0.1666(4) 0.9294(2)
C21_6 C 0.8522(9) 0.1801(5) 0.9322(2)
C22_6 C 0.7997(9) 0.2161(6) 0.9675(3)
C23_6 C 0.9004(9) 0.2376(6) 0.9949(3)
C11_6 C 0.8991(10) 0.4791(6) 0.0275(3)
H5_6 H 0.8280 0.4648 0.0464
O4_6 O 0.7596(9) 0.5834(4) 0.9294(2)
C8_6 C 0.8978(9) 0.5699(5) 0.9322(2)
C9_6 C 0.9503(9) 0.5339(6) 0.9675(3)
C10_6 C 0.8496(9) 0.5124(6) 0.9949(3)
H4_6 H 0.7459 0.5232 0.9923
O13_4 O 0.4904(9) 0.6666(4) 0.9294(2)
O18_6 O 0.7555(8) 0.7076(3) 0.8854(2)
O19_6 O 0.4945(8) 0.5424(3) 0.8854(2)
O9_7 O 0.0096(9) 0.8334(4) 0.0706(2)
C17_7 C 0.1478(9) 0.8199(5) 0.0678(2)
C18_7 C 0.2003(9) 0.7839(6) 0.0325(3)
C19_7 C 0.0996(9) 0.7624(6) 0.0051(3)
C24_7 C 0.3509(10) 0.7709(6) 0.0275(3)
H12_7 H 0.4220 0.7852 0.0464
C20_7 C 0.1491(10) 0.7291(6) 0.9725(3)
H10_7 H 0.0780 0.7148 0.9536
C21_7 C 0.3522(9) 0.6801(5) 0.9322(2)
C22_7 C 0.2997(9) 0.7161(6) 0.9675(3)
C23_7 C 0.4004(9) 0.7376(6) 0.9949(3)
H11_7 H 0.5041 0.7268 0.9923
C4_7 C 0.6009(10) 0.0209(6) 0.9725(3)
H2_7 H 0.6720 0.0352 0.9536
O4_7 O 0.2596(9) 0.0834(4) 0.9294(2)
C8_7 C 0.3978(9) 0.0699(5) 0.9322(2)
C9_7 C 0.4503(9) 0.0339(6) 0.9675(3)
C10_7 C 0.3496(9) 0.0124(6) 0.9949(3)
H4_7 H 0.2459 0.0232 0.9923
O18_7 O 0.2555(8) 0.2076(3) 0.8854(2)
O1_7 O 0.7404(9) 0.9166(4) 0.0706(2)
C1_7 C 0.6022(9) 0.9301(5) 0.0678(2)
C2_7 C 0.5497(9) 0.9661(6) 0.0325(3)
C3_7 C 0.6504(9) 0.9876(6) 0.0051(3)
H1_7 H 0.7541 0.9768 0.0077
C11_7 C 0.3991(10) 0.9791(6) 0.0275(3)
H5_7 H 0.3280 0.9648 0.0464
H9_7 H 0.9959 0.7732 0.0077
O19_7 O 0.9945(8) 0.0424(3) 0.8854(2)
O9_8 O 0.0096(9) 0.3334(4) 0.5706(2)
C17_8 C 0.1478(9) 0.3199(5) 0.5678(2)
C18_8 C 0.2003(9) 0.2839(6) 0.5325(3)
C19_8 C 0.0996(9) 0.2624(6) 0.5051(3)
C20_8 C 0.1491(10) 0.2291(6) 0.4725(3)
H10_8 H 0.0780 0.2148 0.4536
C21_8 C 0.3522(9) 0.1801(5) 0.4322(2)
C22_8 C 0.2997(9) 0.2161(6) 0.4675(3)
C23_8 C 0.4004(9) 0.2376(6) 0.4949(3)
C24_8 C 0.3509(10) 0.2709(6) 0.5275(3)
H11_8 H 0.5041 0.2268 0.4923
H12_8 H 0.4220 0.2852 0.5464
O1_8 O 0.7404(9) 0.4166(4) 0.5706(2)
C1_8 C 0.6022(9) 0.4301(5) 0.5678(2)
C2_8 C 0.5497(9) 0.4661(6) 0.5325(3)
C3_8 C 0.6504(9) 0.4876(6) 0.5051(3)
C4_8 C 0.6009(10) 0.5209(6) 0.4725(3)
H1_8 H 0.7541 0.4768 0.5077
H2_8 H 0.6720 0.5352 0.4536
O4_8 O 0.2596(9) 0.5834(4) 0.4294(2)
C8_8 C 0.3978(9) 0.5699(5) 0.4322(2)
C9_8 C 0.4503(9) 0.5339(6) 0.4675(3)
C10_8 C 0.3496(9) 0.5124(6) 0.4949(3)
C11_8 C 0.3991(10) 0.4791(6) 0.5275(3)
H4_8 H 0.2459 0.5232 0.4923
H5_8 H 0.3280 0.4648 0.5464
H9_8 H 0.9959 0.2732 0.5077
O18_8 O 0.2555(8) 0.7076(3) 0.3854(2)
O19_8 O 0.9945(8) 0.5424(3) 0.3854(2)
C15_5 C 0.0085(7) 0.40833(19) 0.3752(4)
H7_5 H 0.1014 0.4311 0.3765
C16_5 C 0.0085(7) 0.34167(19) 0.3748(4)
H8_5 H 0.1014 0.3189 0.3735
C5_5 C 0.8750 0.5139(4) 0.3750
C6_5 C 0.8750 0.4416(3) 0.3750
C7_5 C 0.7415(7) 0.40833(19) 0.3748(4)
H3_5 H 0.6486 0.4311 0.3735
C12_5 C 0.8750 0.2361(4) 0.3750
C13_5 C 0.8750 0.3084(3) 0.3750
C14_5 C 0.7415(7) 0.34167(19) 0.3752(4)
H6_5 H 0.6486 0.3189 0.3765
C15_6 C 0.0085(7) 0.90833(19) 0.8752(4)
H7_6 H 0.1014 0.9311 0.8765
C16_6 C 0.0085(7) 0.84167(19) 0.8748(4)
H8_6 H 0.1014 0.8189 0.8735
C5_6 C 0.8750 0.0139(4) 0.8750
C6_6 C 0.8750 0.9416(3) 0.8750
C7_6 C 0.7415(7) 0.90833(19) 0.8748(4)
H3_6 H 0.6486 0.9311 0.8735
C12_6 C 0.8750 0.7361(4) 0.8750
C13_6 C 0.8750 0.8084(3) 0.8750
C14_6 C 0.7415(7) 0.84167(19) 0.8752(4)
H6_6 H 0.6486 0.8189 0.8765
C5_7 C 0.3750 0.5139(4) 0.8750
C6_7 C 0.3750 0.4416(3) 0.8750
C7_7 C 0.2415(7) 0.40833(19) 0.8748(4)
H3_7 H 0.1486 0.4311 0.8735
C12_7 C 0.3750 0.2361(4) 0.8750
C13_7 C 0.3750 0.3084(3) 0.8750
C14_7 C 0.2415(7) 0.34167(19) 0.8752(4)
H6_7 H 0.1486 0.3189 0.8765
C15_7 C 0.5085(7) 0.40833(19) 0.8752(4)
H7_7 H 0.6014 0.4311 0.8765
C16_7 C 0.5085(7) 0.34167(19) 0.8748(4)
H8_7 H 0.6014 0.3189 0.8735
C5_8 C 0.3750 0.0139(4) 0.3750
C6_8 C 0.3750 0.9416(3) 0.3750
C7_8 C 0.2415(7) 0.90833(19) 0.3748(4)
H3_8 H 0.1486 0.9311 0.3735
C12_8 C 0.3750 0.7361(4) 0.3750
C13_8 C 0.3750 0.8084(3) 0.3750
C14_8 C 0.2415(7) 0.84167(19) 0.3752(4)
H6_8 H 0.1486 0.8189 0.3765
C15_8 C 0.5085(7) 0.90833(19) 0.3752(4)
H7_8 H 0.6014 0.9311 0.3765
C16_8 C 0.5085(7) 0.84167(19) 0.3748(4)
H8_8 H 0.6014 0.8189 0.3735
loop_
_geom_bond_atom_site_label_1
_geom_bond_atom_site_label_2
_geom_bond_site_symmetry_1
_geom_bond_site_symmetry_2
Sc1 O1 1_555 1_555
O1 C1 1_555 1_555
C1 O2 1_555 1_555
C2 C1 1_555 1_555
C3 C2 1_555 1_555
C4 C3 1_555 1_555
O3 Sc1 1_555 1_555
C5 O3 1_555 1_555
C6 C5 1_555 1_555
C7 C6 1_555 1_555
H1 C3 1_555 1_555
H2 C4 1_555 1_555
H3 C7 1_555 1_555
O6 C12 1_555 1_555
C12 C13 1_555 1_555
C13 C14 1_555 1_555
C14 C7 1_555 1_555
H6 C14 1_555 1_555
O7 C5 1_555 1_555
O8 C12 1_555 1_555
O9 Sc1 1_555 1_555
C17 O9 1_555 1_555
O10 C17 1_555 1_555
C18 C17 1_555 1_555
C19 C18 1_555 1_555
C20 C19 1_555 1_555
H9 C19 1_555 1_555
H10 C20 1_555 1_555
O11 C21 1_555 1_555
C21 O12 1_555 1_555
O12 Sc5 1_555 1_555
C22 C20 1_555 1_555
C23 C22 1_555 1_555
C24 C18 1_555 1_555
H12 C24 1_555 1_555
Sc6 O6 1_555 1_555
Sc9 O10 1_555 1_555
O15 Sc1 1_555 1_555
O16 Sc1 1_555 1_555
O20 Sc1 1_555 1_555
C21 C22 1_555 1_555
C23 C24 1_555 1_555
O4 C8 1_555 1_555
C8 O5 1_555 1_555
C10 C9 1_555 1_555
H4 C10 1_555 1_555
H5 C11 1_555 1_555
H7 C15 1_555 1_555
H8 C16 1_555 1_555
Sc2 O4 1_555 1_555
O13 Sc2 1_555 1_555
O14 Sc2 1_555 1_555
O17 Sc2 1_555 1_555
O18 Sc2 1_555 1_555
O19 Sc2 1_555 1_555
C8 C9 1_555 1_555
C10 C11 1_555 1_555
C15 C16 1_555 1_555
C7_2 C6_2 1_555 1_555
H3_2 C7_2 1_555 1_555
O6_2 C12_2 1_555 1_555
C12_2 C13_2 1_555 1_555
C13_2 C14_2 1_555 1_555
C14_2 C7_2 1_555 1_555
H6_2 C14_2 1_555 1_555
O8_2 C12_2 1_555 1_555
H10_2 C20_2 1_555 1_555
O11_2 C21_2 1_555 1_555
C21_2 O12_2 1_555 1_555
O12_2 Sc5_2 1_555 1_555
C22_2 C20_2 1_555 1_555
C23_2 C22_2 1_555 1_555
Sc6_2 O6_2 1_555 1_555
C21_2 C22_2 1_555 1_555
Sc1_2 O1_2 1_555 1_555
O1_2 C1_2 1_555 1_555
C1_2 O2_2 1_555 1_555
C2_2 C1_2 1_555 1_555
C3_2 C2_2 1_555 1_555
C4_2 C3_2 1_555 1_555
O3_2 Sc1_2 1_555 1_555
C5_2 O3_2 1_555 1_555
H1_2 C3_2 1_555 1_555
H2_2 C4_2 1_555 1_555
O7_2 C5_2 1_555 1_555
O9_2 Sc1_2 1_555 1_555
C17_2 O9_2 1_555 1_555
O10_2 C17_2 1_555 1_555
C18_2 C17_2 1_555 1_555
C19_2 C18_2 1_555 1_555
H9_2 C19_2 1_555 1_555
C24_2 C18_2 1_555 1_555
H12_2 C24_2 1_555 1_555
Sc9_2 O10_2 1_555 1_555
O15_2 Sc1_2 1_555 1_555
O16_2 Sc1_2 1_555 1_555
O20_2 Sc1_2 1_555 1_555
H7_2 C15_2 1_555 1_555
H8_2 C16_2 1_555 1_555
C15_2 C16_2 1_555 1_555
O4_2 C8_2 1_555 1_555
C8_2 O5_2 1_555 1_555
C10_2 C9_2 1_555 1_555
H4_2 C10_2 1_555 1_555
H5_2 C11_2 1_555 1_555
Sc2_2 O4_2 1_555 1_555
O13_2 Sc2_2 1_555 1_555
O14_2 Sc2_2 1_555 1_555
O17_2 Sc2_2 1_555 1_555
O18_2 Sc2_2 1_555 1_555
O19_2 Sc2_2 1_555 1_555
C8_2 C9_2 1_555 1_555
C10_2 C11_2 1_555 1_555
C17_3 O9_3 1_555 1_555
O10_3 C17_3 1_555 1_555
C18_3 C17_3 1_555 1_555
C19_3 C18_3 1_555 1_555
C20_3 C19_3 1_555 1_555
H10_3 C20_3 1_555 1_555
O13_2 C21_3 1_555 1_555
C21_3 O12_3 1_555 1_555
O12_3 Sc7_2 1_555 1_555
C22_3 C20_3 1_555 1_555
C23_3 C22_3 1_555 1_555
C24_3 C18_3 1_555 1_555
H11_3 C23_3 1_555 1_555
H12_3 C24_3 1_555 1_555
Sc6_2 O10_3 1_555 1_555
C21_3 C22_3 1_555 1_555
C23_3 C24_3 1_555 1_555
Sc4_2 O1_3 1_555 1_555
O1_3 C1_3 1_555 1_555
C1_3 O2_3 1_555 1_555
O2_3 Sc6_2 1_555 1_555
C2_3 C1_3 1_555 1_555
C3_3 C2_3 1_555 1_555
C4_3 C3_3 1_555 1_555
O3_3 Sc4_2 1_555 1_555
C5_3 O3_3 1_555 1_555
C6_3 C5_3 1_555 1_555
C7_3 C6_3 1_555 1_555
H1_3 C3_3 1_555 1_555
H2_3 C4_3 1_555 1_555
H3_3 C7_3 1_555 1_555
O4_3 C8_3 1_555 1_555
C8_3 O5_3 1_555 1_555
O5_3 Sc5_2 1_555 1_555
C9_3 C4_3 1_555 1_555
C10_3 C9_3 1_555 1_555
C11_3 C2_3 1_555 1_555
H4_3 C10_3 1_555 1_555
H5_3 C11_3 1_555 1_555
O6_3 C12_3 1_555 1_555
C12_3 C13_3 1_555 1_555
C13_3 C14_3 1_555 1_555
C14_3 C7_3 1_555 1_555
H6_3 C14_3 1_555 1_555
O7_3 C5_3 1_555 1_555
C15_3 C6_3 1_555 1_555
H7_3 C15_3 1_555 1_555
O20_2 C12_3 1_555 1_555
C16_3 C13_3 1_555 1_555
H8_3 C16_3 1_555 1_555
Sc3_2 O4_3 1_555 1_555
Sc9_2 O6_3 1_555 1_555
Sc6_2 O7_3 1_555 1_555
O16_3 Sc4_2 1_555 1_555
O17_3 Sc3_2 1_555 1_555
O18_3 Sc3_2 1_555 1_555
C8_3 C9_3 1_555 1_555
C10_3 C11_3 1_555 1_555
C15_3 C16_3 1_555 1_555
H10_4 C20_4 1_555 1_555
O13 C21_4 1_555 1_555
C21_4 O12_4 1_555 1_555
O12_4 Sc7 1_555 1_555
C22_4 C20_4 1_555 1_555
C23_4 C22_4 1_555 1_555
H11_4 C23_4 1_555 1_555
C21_4 C22_4 1_555 1_555
C17_4 O9_4 1_555 1_555
O10_4 C17_4 1_555 1_555
C18_4 C17_4 1_555 1_555
C19_4 C18_4 1_555 1_555
C24_4 C18_4 1_555 1_555
H12_4 C24_4 1_555 1_555
Sc6 O10_4 1_555 1_555
C7_4 C6_4 1_555 1_555
H3_4 C7_4 1_555 1_555
O6_4 C12_4 1_555 1_555
C12_4 C13_4 1_555 1_555
C13_4 C14_4 1_555 1_555
C14_4 C7_4 1_555 1_555
H6_4 C14_4 1_555 1_555
C15_4 C6_4 1_555 1_555
H7_4 C15_4 1_555 1_555
O20 C12_4 1_555 1_555
C16_4 C13_4 1_555 1_555
H8_4 C16_4 1_555 1_555
Sc9 O6_4 1_555 1_555
C15_4 C16_4 1_555 1_555
Sc4 O1_4 1_555 1_555
O1_4 C1_4 1_555 1_555
C1_4 O2_4 1_555 1_555
O2_4 Sc6 1_555 1_555
C2_4 C1_4 1_555 1_555
C3_4 C2_4 1_555 1_555
C4_4 C3_4 1_555 1_555
O3_4 Sc4 1_555 1_555
C5_4 O3_4 1_555 1_555
H1_4 C3_4 1_555 1_555
H2_4 C4_4 1_555 1_555
O4_4 C8_4 1_555 1_555
C8_4 O5_4 1_555 1_555
O5_4 Sc5 1_555 1_555
C9_4 C4_4 1_555 1_555
C10_4 C9_4 1_555 1_555
C11_4 C2_4 1_555 1_555
H4_4 C10_4 1_555 1_555
H5_4 C11_4 1_555 1_555
O7_4 C5_4 1_555 1_555
Sc3 O4_4 1_555 1_555
Sc6 O7_4 1_555 1_555
O16_4 Sc4 1_555 1_555
O17_4 Sc3 1_555 1_555
O18_4 Sc3 1_555 1_555
C8_4 C9_4 1_555 1_555
C10_4 C11_4 1_555 1_555
H2_5 C4_5 1_555 1_555
Sc6 O1_5 1_555 1_555
O1_5 C1_5 1_555 1_555
C1_5 O15_4 1_555 1_555
C2_5 C1_5 1_555 1_555
C3_5 C2_5 1_555 1_555
H1_5 C3_5 1_555 1_555
O9_5 Sc6 1_555 1_555
C17_5 O9_5 1_555 1_555
O16_4 C17_5 1_555 1_555
C18_5 C17_5 1_555 1_555
C19_5 C18_5 1_555 1_555
C20_5 C19_5 1_555 1_555
H9_5 C19_5 1_555 1_555
H10_5 C20_5 1_555 1_555
O11_3 C21_5 1_555 1_555
C21_5 O17_2 1_555 1_555
C22_5 C20_5 1_555 1_555
C23_5 C22_5 1_555 1_555
C24_5 C18_5 1_555 1_555
H12_5 C24_5 1_555 1_555
C21_5 C22_5 1_555 1_555
C23_5 C24_5 1_555 1_555
O4_5 C8_5 1_555 1_555
C8_5 O14_3 1_555 1_555
C10_5 C9_5 1_555 1_555
H4_5 C10_5 1_555 1_555
Sc5_2 O4_5 1_555 1_555
O13_3 Sc5_2 1_555 1_555
O18_5 Sc5_2 1_555 1_555
O19_5 Sc5_2 1_555 1_555
C8_5 C9_5 1_555 1_555
H5_5 C11_5 1_555 1_555
Sc6_2 O1_6 1_555 1_555
O1_6 C1_6 1_555 1_555
C1_6 O15_3 1_555 1_555
C2_6 C1_6 1_555 1_555
C3_6 C2_6 1_555 1_555
H1_6 C3_6 1_555 1_555
O9_6 Sc6_2 1_555 1_555
C17_6 O9_6 1_555 1_555
O16_3 C17_6 1_555 1_555
C18_6 C17_6 1_555 1_555
C19_6 C18_6 1_555 1_555
H9_6 C19_6 1_555 1_555
C24_6 C18_6 1_555 1_555
H12_6 C24_6 1_555 1_555
H2_6 C4_6 1_555 1_555
H10_6 C20_6 1_555 1_555
O11_4 C21_6 1_555 1_555
C21_6 O17 1_555 1_555
C22_6 C20_6 1_555 1_555
C23_6 C22_6 1_555 1_555
C21_6 C22_6 1_555 1_555
H5_6 C11_6 1_555 1_555
O4_6 C8_6 1_555 1_555
C8_6 O14_4 1_555 1_555
C10_6 C9_6 1_555 1_555
H4_6 C10_6 1_555 1_555
Sc5 O4_6 1_555 1_555
O13_4 Sc5 1_555 1_555
O18_6 Sc5 1_555 1_555
O19_6 Sc5 1_555 1_555
C8_6 C9_6 1_555 1_555
C17_7 O9_7 1_555 1_555
O16_2 C17_7 1_555 1_555
C18_7 C17_7 1_555 1_555
C19_7 C18_7 1_555 1_555
C24_7 C18_7 1_555 1_555
H12_7 C24_7 1_555 1_555
H10_7 C20_7 1_555 1_555
O13_4 C21_7 1_555 1_555
C21_7 O17_4 1_555 1_555
C22_7 C20_7 1_555 1_555
C23_7 C22_7 1_555 1_555
H11_7 C23_7 1_555 1_555
C21_7 C22_7 1_555 1_555
H2_7 C4_7 1_555 1_555
O4_7 C8_7 1_555 1_555
C8_7 O14 1_555 1_555
C9_7 C4_7 1_555 1_555
C10_7 C9_7 1_555 1_555
H4_7 C10_7 1_555 1_555
Sc7 O4_7 1_555 1_555
O18_7 Sc7 1_555 1_555
C8_7 C9_7 1_555 1_555
Sc9_2 O1_7 1_555 1_555
O1_7 C1_7 1_555 1_555
C1_7 O15_2 1_555 1_555
C2_7 C1_7 1_555 1_555
C3_7 C2_7 1_555 1_555
H1_7 C3_7 1_555 1_555
C11_7 C2_7 1_555 1_555
H5_7 C11_7 1_555 1_555
C17_8 O9_8 1_555 1_555
O16 C17_8 1_555 1_555
C18_8 C17_8 1_555 1_555
C19_8 C18_8 1_555 1_555
C20_8 C19_8 1_555 1_555
H10_8 C20_8 1_555 1_555
O13_3 C21_8 1_555 1_555
C21_8 O17_3 1_555 1_555
C22_8 C20_8 1_555 1_555
C23_8 C22_8 1_555 1_555
C24_8 C18_8 1_555 1_555
H11_8 C23_8 1_555 1_555
H12_8 C24_8 1_555 1_555
C21_8 C22_8 1_555 1_555
C23_8 C24_8 1_555 1_555
Sc9 O1_8 1_555 1_555
O1_8 C1_8 1_555 1_555
C1_8 O15 1_555 1_555
C2_8 C1_8 1_555 1_555
C3_8 C2_8 1_555 1_555
C4_8 C3_8 1_555 1_555
H1_8 C3_8 1_555 1_555
H2_8 C4_8 1_555 1_555
O4_8 C8_8 1_555 1_555
C8_8 O14_2 1_555 1_555
C9_8 C4_8 1_555 1_555
C10_8 C9_8 1_555 1_555
C11_8 C2_8 1_555 1_555
H4_8 C10_8 1_555 1_555
H5_8 C11_8 1_555 1_555
Sc7_2 O4_8 1_555 1_555
O18_8 Sc7_2 1_555 1_555
C8_8 C9_8 1_555 1_555
C10_8 C11_8 1_555 1_555
H7_5 C15_5 1_555 1_555
H8_5 C16_5 1_555 1_555
C15_5 C16_5 1_555 1_555
C5_5 O18_2 1_555 1_555
C6_5 C5_5 1_555 1_555
C7_5 C6_5 1_555 1_555
H3_5 C7_5 1_555 1_555
O18_5 C12_5 1_555 1_555
C12_5 C13_5 1_555 1_555
C13_5 C14_5 1_555 1_555
C14_5 C7_5 1_555 1_555
H6_5 C14_5 1_555 1_555
O19_8 C5_5 1_555 1_555
O19_3 C12_5 1_555 1_555
H7_6 C15_6 1_555 1_555
H8_6 C16_6 1_555 1_555
C15_6 C16_6 1_555 1_555
C5_6 O18 1_555 1_555
O19_7 C5_6 1_555 1_555
C7_6 C6_6 1_555 1_555
H3_6 C7_6 1_555 1_555
O18_6 C12_6 1_555 1_555
C12_6 C13_6 1_555 1_555
C13_6 C14_6 1_555 1_555
C14_6 C7_6 1_555 1_555
H6_6 C14_6 1_555 1_555
O19_4 C12_6 1_555 1_555
C5_7 O18_4 1_555 1_555
C6_7 C5_7 1_555 1_555
C7_7 C6_7 1_555 1_555
H3_7 C7_7 1_555 1_555
O18_7 C12_7 1_555 1_555
C12_7 C13_7 1_555 1_555
C13_7 C14_7 1_555 1_555
C14_7 C7_7 1_555 1_555
H6_7 C14_7 1_555 1_555
O19_6 C5_7 1_555 1_555
C15_7 C6_7 1_555 1_555
H7_7 C15_7 1_555 1_555
O19 C12_7 1_555 1_555
C16_7 C13_7 1_555 1_555
H8_7 C16_7 1_555 1_555
C15_7 C16_7 1_555 1_555
C5_8 O18_3 1_555 1_555
O19_5 C5_8 1_555 1_555
C7_8 C6_8 1_555 1_555
H3_8 C7_8 1_555 1_555
O18_8 C12_8 1_555 1_555
C12_8 C13_8 1_555 1_555
C13_8 C14_8 1_555 1_555
C14_8 C7_8 1_555 1_555
H6_8 C14_8 1_555 1_555
C15_8 C6_8 1_555 1_555
H7_8 C15_8 1_555 1_555
O19_2 C12_8 1_555 1_555
C16_8 C13_8 1_555 1_555
H8_8 C16_8 1_555 1_555
C15_8 C16_8 1_555 1_555

#END
