
###############################################################################
#
# This file contains modified crystal structure data generated from the
# MOF subset of the Cambridge Structural Database (CSD) v543 
# hosted by the Cambridge Crystallographic Data Centre (CCDC).
#
# This work is licensed under the Creative Commons
# Attribution-NonCommercial-ShareAlike 4.0 International License.
# To view a copy of this license, visit
# http://creativecommons.org/licenses/by-nc-sa/4.0/
# or send a letter to
# Creative Commons, PO Box 1866, Mountain View, CA 94042, USA.
#
# CIF created using the CSD Python API on 29 September 2022
# The structure has been converted into the P1 space group
# The structure has a 3D framework
# The original CSD entry HOJPED is in the orthorhombic crystal system
# The framework has been calculated to contain at least 10.0% void space
# The void calculation uses a probe of radius 1.32A, grid spacing 0.4
#
###############################################################################

data_HOJPED
_chemical_formula_moiety         '(C192 H96 O96 Sc16)n'
_symmetry_cell_setting           triclinic
_symmetry_space_group_name_H-M   'P 1'
_symmetry_Int_Tables_number      1
_space_group_name_Hall           'P 1'
loop_
_symmetry_equiv_pos_site_id
_symmetry_equiv_pos_as_xyz
1 x,y,z
_cell_length_a                   8.8244(10)
_cell_length_b                   20.6223(14)
_cell_length_c                   34.123(3)
_cell_angle_alpha                90
_cell_angle_beta                 90
_cell_angle_gamma                90
_cell_volume                     6209.68
loop_
_atom_site_label
_atom_site_type_symbol
_atom_site_fract_x
_atom_site_fract_y
_atom_site_fract_z
H11 H 0.0035 0.5256 0.7568
Sc3 Sc 0.1250 0.6250 0.86482(8)
Sc1 Sc 0.3750 0.3750 0.63518(8)
O1 O 0.2420(9) 0.3326(4) 0.6792(2)
C1 C 0.1034(8) 0.3200(5) 0.6821(2)
O2 O 0.0081(9) 0.3355(4) 0.6570(2)
C2 C 0.0495(8) 0.2844(5) 0.7178(2)
C3 C 0.1498(9) 0.2648(6) 0.7458(3)
C4 C 0.1011(10) 0.2301(6) 0.7779(3)
O3 O 0.2449(8) 0.4575(3) 0.6343(3)
C5 C 0.1250 0.4860(4) 0.6250
C6 C 0.1250 0.5582(3) 0.6250
C7 C 0.2593(7) 0.59149(19) 0.6249(4)
H1 H 0.2535 0.2756 0.7432
H2 H 0.1722 0.2158 0.7968
H3 H 0.3522 0.5687 0.6262
O6 O 0.2449(8) 0.7925(3) 0.6157(3)
C12 C 0.1250 0.7640(4) 0.6250
C13 C 0.1250 0.6918(3) 0.6250
C14 C 0.2593(7) 0.65851(19) 0.6251(4)
H6 H 0.3522 0.6813 0.6238
O7 O 0.0051(8) 0.4575(3) 0.6157(3)
O8 O 0.0051(8) 0.7925(3) 0.6343(3)
O9 O 0.5080(9) 0.4174(4) 0.6792(2)
C17 C 0.6466(8) 0.4300(5) 0.6821(2)
O10 O 0.7419(9) 0.4145(4) 0.6570(2)
C18 C 0.7005(8) 0.4656(5) 0.7178(2)
C19 C 0.6002(9) 0.4852(6) 0.7458(3)
C20 C 0.6489(10) 0.5199(6) 0.7779(3)
H9 H 0.4965 0.4744 0.7432
H10 H 0.5778 0.5342 0.7968
O11 O 0.9920(9) 0.5826(4) 0.8208(2)
C21 C 0.8534(8) 0.5700(5) 0.8179(2)
O12 O 0.7581(9) 0.5855(4) 0.8430(2)
C22 C 0.7995(8) 0.5344(5) 0.7822(2)
C23 C 0.8998(9) 0.5148(6) 0.7542(3)
C24 C 0.8511(10) 0.4801(6) 0.7221(3)
H12 H 0.9222 0.4658 0.7032
Sc5 Sc 0.6250 0.6250 0.88518(8)
Sc6 Sc 0.3750 0.8750 0.61482(8)
Sc7 Sc 0.1250 0.1250 0.88518(8)
Sc9 Sc 0.8750 0.3750 0.61482(8)
O15 O 0.5081(9) 0.4145(4) 0.5930(2)
O16 O 0.2419(9) 0.3355(4) 0.5930(2)
O20 O 0.5051(8) 0.2925(3) 0.6343(3)
O4 O 0.7580(9) 0.1674(4) 0.8208(2)
C8 C 0.8966(8) 0.1800(5) 0.8179(2)
O5 O 0.9919(9) 0.1645(4) 0.8430(2)
C9 C 0.9505(8) 0.2156(5) 0.7822(2)
C10 C 0.8502(9) 0.2352(6) 0.7542(3)
C11 C 0.8989(10) 0.2699(6) 0.7221(3)
H4 H 0.7465 0.2244 0.7568
H5 H 0.8278 0.2842 0.7032
C15 C 0.9907(7) 0.59149(19) 0.6251(4)
H7 H 0.8978 0.5687 0.6238
C16 C 0.9907(7) 0.65851(19) 0.6249(4)
H8 H 0.8978 0.6813 0.6262
Sc2 Sc 0.6250 0.1250 0.86482(8)
Sc4 Sc 0.8750 0.8750 0.63518(8)
O13 O 0.4920(9) 0.0826(4) 0.8208(2)
O14 O 0.4919(9) 0.0855(4) 0.9070(2)
O17 O 0.7581(9) 0.1645(4) 0.9070(2)
O18 O 0.7551(8) 0.0425(3) 0.8657(3)
O19 O 0.4949(8) 0.2075(3) 0.8657(3)
H11_2 H 0.0035 0.0256 0.2568
Sc3_2 Sc 0.1250 0.1250 0.36482(8)
C6_2 C 0.1250 0.0582(3) 0.1250
C7_2 C 0.2593(7) 0.09149(19) 0.1249(4)
H3_2 H 0.3522 0.0687 0.1262
O6_2 O 0.2449(8) 0.2925(3) 0.1157(3)
C12_2 C 0.1250 0.2640(4) 0.1250
C13_2 C 0.1250 0.1918(3) 0.1250
C14_2 C 0.2593(7) 0.15851(19) 0.1251(4)
H6_2 H 0.3522 0.1813 0.1238
O8_2 O 0.0051(8) 0.2925(3) 0.1343(3)
C20_2 C 0.6489(10) 0.0199(6) 0.2779(3)
H10_2 H 0.5778 0.0342 0.2968
O11_2 O 0.9920(9) 0.0826(4) 0.3208(2)
C21_2 C 0.8534(8) 0.0700(5) 0.3179(2)
O12_2 O 0.7581(9) 0.0855(4) 0.3430(2)
C22_2 C 0.7995(8) 0.0344(5) 0.2822(2)
C23_2 C 0.8998(9) 0.0148(6) 0.2542(3)
Sc5_2 Sc 0.6250 0.1250 0.38518(8)
Sc6_2 Sc 0.3750 0.3750 0.11482(8)
Sc1_2 Sc 0.3750 0.8750 0.13518(8)
O1_2 O 0.2420(9) 0.8326(4) 0.1792(2)
C1_2 C 0.1034(8) 0.8200(5) 0.1821(2)
O2_2 O 0.0081(9) 0.8355(4) 0.1570(2)
C2_2 C 0.0495(8) 0.7844(5) 0.2178(2)
C3_2 C 0.1498(9) 0.7648(6) 0.2458(3)
C4_2 C 0.1011(10) 0.7301(6) 0.2779(3)
O3_2 O 0.2449(8) 0.9575(3) 0.1343(3)
C5_2 C 0.1250 0.9860(4) 0.1250
H1_2 H 0.2535 0.7756 0.2432
H2_2 H 0.1722 0.7158 0.2968
O7_2 O 0.0051(8) 0.9575(3) 0.1157(3)
O9_2 O 0.5080(9) 0.9174(4) 0.1792(2)
C17_2 C 0.6466(8) 0.9300(5) 0.1821(2)
O10_2 O 0.7419(9) 0.9145(4) 0.1570(2)
C18_2 C 0.7005(8) 0.9656(5) 0.2178(2)
C19_2 C 0.6002(9) 0.9852(6) 0.2458(3)
H9_2 H 0.4965 0.9744 0.2432
C24_2 C 0.8511(10) 0.9801(6) 0.2221(3)
H12_2 H 0.9222 0.9658 0.2032
Sc7_2 Sc 0.1250 0.6250 0.38518(8)
Sc9_2 Sc 0.8750 0.8750 0.11482(8)
O15_2 O 0.5081(9) 0.9145(4) 0.0930(2)
O16_2 O 0.2419(9) 0.8355(4) 0.0930(2)
O20_2 O 0.5051(8) 0.7925(3) 0.1343(3)
C15_2 C 0.9907(7) 0.09149(19) 0.1251(4)
H7_2 H 0.8978 0.0687 0.1238
C16_2 C 0.9907(7) 0.15851(19) 0.1249(4)
H8_2 H 0.8978 0.1813 0.1262
Sc4_2 Sc 0.8750 0.3750 0.13518(8)
O4_2 O 0.7580(9) 0.6674(4) 0.3208(2)
C8_2 C 0.8966(8) 0.6800(5) 0.3179(2)
O5_2 O 0.9919(9) 0.6645(4) 0.3430(2)
C9_2 C 0.9505(8) 0.7156(5) 0.2822(2)
C10_2 C 0.8502(9) 0.7352(6) 0.2542(3)
C11_2 C 0.8989(10) 0.7699(6) 0.2221(3)
H4_2 H 0.7465 0.7244 0.2568
H5_2 H 0.8278 0.7842 0.2032
Sc2_2 Sc 0.6250 0.6250 0.36482(8)
O13_2 O 0.4920(9) 0.5826(4) 0.3208(2)
O14_2 O 0.4919(9) 0.5855(4) 0.4070(2)
O17_2 O 0.7581(9) 0.6645(4) 0.4070(2)
O18_2 O 0.7551(8) 0.5425(3) 0.3657(3)
O19_2 O 0.4949(8) 0.7075(3) 0.3657(3)
O9_3 O 0.0080(9) 0.4174(4) 0.1792(2)
C17_3 C 0.1466(8) 0.4300(5) 0.1821(2)
O10_3 O 0.2419(9) 0.4145(4) 0.1570(2)
C18_3 C 0.2005(8) 0.4656(5) 0.2178(2)
C19_3 C 0.1002(9) 0.4852(6) 0.2458(3)
C20_3 C 0.1489(10) 0.5199(6) 0.2779(3)
H10_3 H 0.0778 0.5342 0.2968
C21_3 C 0.3534(8) 0.5700(5) 0.3179(2)
O12_3 O 0.2581(9) 0.5855(4) 0.3430(2)
C22_3 C 0.2995(8) 0.5344(5) 0.2822(2)
C23_3 C 0.3998(9) 0.5148(6) 0.2542(3)
C24_3 C 0.3511(10) 0.4801(6) 0.2221(3)
H11_3 H 0.5035 0.5256 0.2568
H12_3 H 0.4222 0.4658 0.2032
O15_3 O 0.0081(9) 0.4145(4) 0.0930(2)
O1_3 O 0.7420(9) 0.3326(4) 0.1792(2)
C1_3 C 0.6034(8) 0.3200(5) 0.1821(2)
O2_3 O 0.5081(9) 0.3355(4) 0.1570(2)
C2_3 C 0.5495(8) 0.2844(5) 0.2178(2)
C3_3 C 0.6498(9) 0.2648(6) 0.2458(3)
C4_3 C 0.6011(10) 0.2301(6) 0.2779(3)
O3_3 O 0.7449(8) 0.4575(3) 0.1343(3)
C5_3 C 0.6250 0.4860(4) 0.1250
C6_3 C 0.6250 0.5582(3) 0.1250
C7_3 C 0.7593(7) 0.59149(19) 0.1249(4)
H1_3 H 0.7535 0.2756 0.2432
H2_3 H 0.6722 0.2158 0.2968
H3_3 H 0.8522 0.5687 0.1262
O4_3 O 0.2580(9) 0.1674(4) 0.3208(2)
C8_3 C 0.3966(8) 0.1800(5) 0.3179(2)
O5_3 O 0.4919(9) 0.1645(4) 0.3430(2)
C9_3 C 0.4505(8) 0.2156(5) 0.2822(2)
C10_3 C 0.3502(9) 0.2352(6) 0.2542(3)
C11_3 C 0.3989(10) 0.2699(6) 0.2221(3)
H4_3 H 0.2465 0.2244 0.2568
H5_3 H 0.3278 0.2842 0.2032
O6_3 O 0.7449(8) 0.7925(3) 0.1157(3)
C12_3 C 0.6250 0.7640(4) 0.1250
C13_3 C 0.6250 0.6918(3) 0.1250
C14_3 C 0.7593(7) 0.65851(19) 0.1251(4)
H6_3 H 0.8522 0.6813 0.1238
O7_3 O 0.5051(8) 0.4575(3) 0.1157(3)
C15_3 C 0.4907(7) 0.59149(19) 0.1251(4)
H7_3 H 0.3978 0.5687 0.1238
C16_3 C 0.4907(7) 0.65851(19) 0.1249(4)
H8_3 H 0.3978 0.6813 0.1262
H9_3 H 0.9965 0.4744 0.2432
O16_3 O 0.7419(9) 0.3355(4) 0.0930(2)
O17_3 O 0.2581(9) 0.1645(4) 0.4070(2)
O18_3 O 0.2551(8) 0.0425(3) 0.3657(3)
O14_3 O 0.9919(9) 0.0855(4) 0.4070(2)
O19_3 O 0.9949(8) 0.2075(3) 0.3657(3)
C20_4 C 0.1489(10) 0.0199(6) 0.7779(3)
H10_4 H 0.0778 0.0342 0.7968
C21_4 C 0.3534(8) 0.0700(5) 0.8179(2)
O12_4 O 0.2581(9) 0.0855(4) 0.8430(2)
C22_4 C 0.2995(8) 0.0344(5) 0.7822(2)
C23_4 C 0.3998(9) 0.0148(6) 0.7542(3)
H11_4 H 0.5035 0.0256 0.7568
O9_4 O 0.0080(9) 0.9174(4) 0.6792(2)
C17_4 C 0.1466(8) 0.9300(5) 0.6821(2)
O10_4 O 0.2419(9) 0.9145(4) 0.6570(2)
C18_4 C 0.2005(8) 0.9656(5) 0.7178(2)
C19_4 C 0.1002(9) 0.9852(6) 0.7458(3)
C24_4 C 0.3511(10) 0.9801(6) 0.7221(3)
H12_4 H 0.4222 0.9658 0.7032
O15_4 O 0.0081(9) 0.9145(4) 0.5930(2)
C6_4 C 0.6250 0.0582(3) 0.6250
C7_4 C 0.7593(7) 0.09149(19) 0.6249(4)
H3_4 H 0.8522 0.0687 0.6262
O6_4 O 0.7449(8) 0.2925(3) 0.6157(3)
C12_4 C 0.6250 0.2640(4) 0.6250
C13_4 C 0.6250 0.1918(3) 0.6250
C14_4 C 0.7593(7) 0.15851(19) 0.6251(4)
H6_4 H 0.8522 0.1813 0.6238
C15_4 C 0.4907(7) 0.09149(19) 0.6251(4)
H7_4 H 0.3978 0.0687 0.6238
C16_4 C 0.4907(7) 0.15851(19) 0.6249(4)
H8_4 H 0.3978 0.1813 0.6262
O1_4 O 0.7420(9) 0.8326(4) 0.6792(2)
C1_4 C 0.6034(8) 0.8200(5) 0.6821(2)
O2_4 O 0.5081(9) 0.8355(4) 0.6570(2)
C2_4 C 0.5495(8) 0.7844(5) 0.7178(2)
C3_4 C 0.6498(9) 0.7648(6) 0.7458(3)
C4_4 C 0.6011(10) 0.7301(6) 0.7779(3)
O3_4 O 0.7449(8) 0.9575(3) 0.6343(3)
C5_4 C 0.6250 0.9860(4) 0.6250
H1_4 H 0.7535 0.7756 0.7432
H2_4 H 0.6722 0.7158 0.7968
O4_4 O 0.2580(9) 0.6674(4) 0.8208(2)
C8_4 C 0.3966(8) 0.6800(5) 0.8179(2)
O5_4 O 0.4919(9) 0.6645(4) 0.8430(2)
C9_4 C 0.4505(8) 0.7156(5) 0.7822(2)
C10_4 C 0.3502(9) 0.7352(6) 0.7542(3)
C11_4 C 0.3989(10) 0.7699(6) 0.7221(3)
H4_4 H 0.2465 0.7244 0.7568
H5_4 H 0.3278 0.7842 0.7032
O7_4 O 0.5051(8) 0.9575(3) 0.6157(3)
H9_4 H 0.9965 0.9744 0.7432
O16_4 O 0.7419(9) 0.8355(4) 0.5930(2)
O17_4 O 0.2581(9) 0.6645(4) 0.9070(2)
O18_4 O 0.2551(8) 0.5425(3) 0.8657(3)
O14_4 O 0.9919(9) 0.5855(4) 0.9070(2)
O19_4 O 0.9949(8) 0.7075(3) 0.8657(3)
H11_5 H 0.0035 0.7244 0.4932
C4_5 C 0.1011(10) 0.0199(6) 0.4721(3)
H2_5 H 0.1722 0.0342 0.4532
O1_5 O 0.2420(9) 0.9174(4) 0.5708(2)
C1_5 C 0.1034(8) 0.9300(5) 0.5679(2)
C2_5 C 0.0495(8) 0.9656(5) 0.5322(2)
C3_5 C 0.1498(9) 0.9852(6) 0.5042(3)
H1_5 H 0.2535 0.9744 0.5068
O9_5 O 0.5080(9) 0.8326(4) 0.5708(2)
C17_5 C 0.6466(8) 0.8200(5) 0.5679(2)
C18_5 C 0.7005(8) 0.7844(5) 0.5322(2)
C19_5 C 0.6002(9) 0.7648(6) 0.5042(3)
C20_5 C 0.6489(10) 0.7301(6) 0.4721(3)
H9_5 H 0.4965 0.7756 0.5068
H10_5 H 0.5778 0.7158 0.4532
O11_3 O 0.9920(9) 0.6674(4) 0.4292(2)
C21_5 C 0.8534(8) 0.6800(5) 0.4321(2)
C22_5 C 0.7995(8) 0.7156(5) 0.4678(2)
C23_5 C 0.8998(9) 0.7352(6) 0.4958(3)
C24_5 C 0.8511(10) 0.7699(6) 0.5279(3)
H12_5 H 0.9222 0.7842 0.5468
O4_5 O 0.7580(9) 0.0826(4) 0.4292(2)
C8_5 C 0.8966(8) 0.0700(5) 0.4321(2)
C9_5 C 0.9505(8) 0.0344(5) 0.4678(2)
C10_5 C 0.8502(9) 0.0148(6) 0.4958(3)
H4_5 H 0.7465 0.0256 0.4932
O13_3 O 0.4920(9) 0.1674(4) 0.4292(2)
O18_5 O 0.7551(8) 0.2075(3) 0.3843(3)
O19_5 O 0.4949(8) 0.0425(3) 0.3843(3)
C11_5 C 0.8989(10) 0.9801(6) 0.5279(3)
H5_5 H 0.8278 0.9658 0.5468
H11_6 H 0.0035 0.2244 0.9932
O1_6 O 0.2420(9) 0.4174(4) 0.0708(2)
C1_6 C 0.1034(8) 0.4300(5) 0.0679(2)
C2_6 C 0.0495(8) 0.4656(5) 0.0322(2)
C3_6 C 0.1498(9) 0.4852(6) 0.0042(3)
H1_6 H 0.2535 0.4744 0.0068
O9_6 O 0.5080(9) 0.3326(4) 0.0708(2)
C17_6 C 0.6466(8) 0.3200(5) 0.0679(2)
C18_6 C 0.7005(8) 0.2844(5) 0.0322(2)
C19_6 C 0.6002(9) 0.2648(6) 0.0042(3)
H9_6 H 0.4965 0.2756 0.0068
C24_6 C 0.8511(10) 0.2699(6) 0.0279(3)
H12_6 H 0.9222 0.2842 0.0468
C4_6 C 0.1011(10) 0.5199(6) 0.9721(3)
H2_6 H 0.1722 0.5342 0.9532
C20_6 C 0.6489(10) 0.2301(6) 0.9721(3)
H10_6 H 0.5778 0.2158 0.9532
O11_4 O 0.9920(9) 0.1674(4) 0.9292(2)
C21_6 C 0.8534(8) 0.1800(5) 0.9321(2)
C22_6 C 0.7995(8) 0.2156(5) 0.9678(2)
C23_6 C 0.8998(9) 0.2352(6) 0.9958(3)
C11_6 C 0.8989(10) 0.4801(6) 0.0279(3)
H5_6 H 0.8278 0.4658 0.0468
O4_6 O 0.7580(9) 0.5826(4) 0.9292(2)
C8_6 C 0.8966(8) 0.5700(5) 0.9321(2)
C9_6 C 0.9505(8) 0.5344(5) 0.9678(2)
C10_6 C 0.8502(9) 0.5148(6) 0.9958(3)
H4_6 H 0.7465 0.5256 0.9932
O13_4 O 0.4920(9) 0.6674(4) 0.9292(2)
O18_6 O 0.7551(8) 0.7075(3) 0.8843(3)
O19_6 O 0.4949(8) 0.5425(3) 0.8843(3)
O9_7 O 0.0080(9) 0.8326(4) 0.0708(2)
C17_7 C 0.1466(8) 0.8200(5) 0.0679(2)
C18_7 C 0.2005(8) 0.7844(5) 0.0322(2)
C19_7 C 0.1002(9) 0.7648(6) 0.0042(3)
C24_7 C 0.3511(10) 0.7699(6) 0.0279(3)
H12_7 H 0.4222 0.7842 0.0468
C20_7 C 0.1489(10) 0.7301(6) 0.9721(3)
H10_7 H 0.0778 0.7158 0.9532
C21_7 C 0.3534(8) 0.6800(5) 0.9321(2)
C22_7 C 0.2995(8) 0.7156(5) 0.9678(2)
C23_7 C 0.3998(9) 0.7352(6) 0.9958(3)
H11_7 H 0.5035 0.7244 0.9932
C4_7 C 0.6011(10) 0.0199(6) 0.9721(3)
H2_7 H 0.6722 0.0342 0.9532
O4_7 O 0.2580(9) 0.0826(4) 0.9292(2)
C8_7 C 0.3966(8) 0.0700(5) 0.9321(2)
C9_7 C 0.4505(8) 0.0344(5) 0.9678(2)
C10_7 C 0.3502(9) 0.0148(6) 0.9958(3)
H4_7 H 0.2465 0.0256 0.9932
O18_7 O 0.2551(8) 0.2075(3) 0.8843(3)
O1_7 O 0.7420(9) 0.9174(4) 0.0708(2)
C1_7 C 0.6034(8) 0.9300(5) 0.0679(2)
C2_7 C 0.5495(8) 0.9656(5) 0.0322(2)
C3_7 C 0.6498(9) 0.9852(6) 0.0042(3)
H1_7 H 0.7535 0.9744 0.0068
C11_7 C 0.3989(10) 0.9801(6) 0.0279(3)
H5_7 H 0.3278 0.9658 0.0468
H9_7 H 0.9965 0.7756 0.0068
O19_7 O 0.9949(8) 0.0425(3) 0.8843(3)
O9_8 O 0.0080(9) 0.3326(4) 0.5708(2)
C17_8 C 0.1466(8) 0.3200(5) 0.5679(2)
C18_8 C 0.2005(8) 0.2844(5) 0.5322(2)
C19_8 C 0.1002(9) 0.2648(6) 0.5042(3)
C20_8 C 0.1489(10) 0.2301(6) 0.4721(3)
H10_8 H 0.0778 0.2158 0.4532
C21_8 C 0.3534(8) 0.1800(5) 0.4321(2)
C22_8 C 0.2995(8) 0.2156(5) 0.4678(2)
C23_8 C 0.3998(9) 0.2352(6) 0.4958(3)
C24_8 C 0.3511(10) 0.2699(6) 0.5279(3)
H11_8 H 0.5035 0.2244 0.4932
H12_8 H 0.4222 0.2842 0.5468
O1_8 O 0.7420(9) 0.4174(4) 0.5708(2)
C1_8 C 0.6034(8) 0.4300(5) 0.5679(2)
C2_8 C 0.5495(8) 0.4656(5) 0.5322(2)
C3_8 C 0.6498(9) 0.4852(6) 0.5042(3)
C4_8 C 0.6011(10) 0.5199(6) 0.4721(3)
H1_8 H 0.7535 0.4744 0.5068
H2_8 H 0.6722 0.5342 0.4532
O4_8 O 0.2580(9) 0.5826(4) 0.4292(2)
C8_8 C 0.3966(8) 0.5700(5) 0.4321(2)
C9_8 C 0.4505(8) 0.5344(5) 0.4678(2)
C10_8 C 0.3502(9) 0.5148(6) 0.4958(3)
C11_8 C 0.3989(10) 0.4801(6) 0.5279(3)
H4_8 H 0.2465 0.5256 0.4932
H5_8 H 0.3278 0.4658 0.5468
H9_8 H 0.9965 0.2756 0.5068
O18_8 O 0.2551(8) 0.7075(3) 0.3843(3)
O19_8 O 0.9949(8) 0.5425(3) 0.3843(3)
C15_5 C 0.0093(7) 0.40851(19) 0.3749(4)
H7_5 H 0.1022 0.4313 0.3762
C16_5 C 0.0093(7) 0.34149(19) 0.3751(4)
H8_5 H 0.1022 0.3187 0.3738
C5_5 C 0.8750 0.5140(4) 0.3750
C6_5 C 0.8750 0.4418(3) 0.3750
C7_5 C 0.7407(7) 0.40851(19) 0.3751(4)
H3_5 H 0.6478 0.4313 0.3738
C12_5 C 0.8750 0.2360(4) 0.3750
C13_5 C 0.8750 0.3082(3) 0.3750
C14_5 C 0.7407(7) 0.34149(19) 0.3749(4)
H6_5 H 0.6478 0.3187 0.3762
C15_6 C 0.0093(7) 0.90851(19) 0.8749(4)
H7_6 H 0.1022 0.9313 0.8762
C16_6 C 0.0093(7) 0.84149(19) 0.8751(4)
H8_6 H 0.1022 0.8187 0.8738
C5_6 C 0.8750 0.0140(4) 0.8750
C6_6 C 0.8750 0.9418(3) 0.8750
C7_6 C 0.7407(7) 0.90851(19) 0.8751(4)
H3_6 H 0.6478 0.9313 0.8738
C12_6 C 0.8750 0.7360(4) 0.8750
C13_6 C 0.8750 0.8082(3) 0.8750
C14_6 C 0.7407(7) 0.84149(19) 0.8749(4)
H6_6 H 0.6478 0.8187 0.8762
C5_7 C 0.3750 0.5140(4) 0.8750
C6_7 C 0.3750 0.4418(3) 0.8750
C7_7 C 0.2407(7) 0.40851(19) 0.8751(4)
H3_7 H 0.1478 0.4313 0.8738
C12_7 C 0.3750 0.2360(4) 0.8750
C13_7 C 0.3750 0.3082(3) 0.8750
C14_7 C 0.2407(7) 0.34149(19) 0.8749(4)
H6_7 H 0.1478 0.3187 0.8762
C15_7 C 0.5093(7) 0.40851(19) 0.8749(4)
H7_7 H 0.6022 0.4313 0.8762
C16_7 C 0.5093(7) 0.34149(19) 0.8751(4)
H8_7 H 0.6022 0.3187 0.8738
C5_8 C 0.3750 0.0140(4) 0.3750
C6_8 C 0.3750 0.9418(3) 0.3750
C7_8 C 0.2407(7) 0.90851(19) 0.3751(4)
H3_8 H 0.1478 0.9313 0.3738
C12_8 C 0.3750 0.7360(4) 0.3750
C13_8 C 0.3750 0.8082(3) 0.3750
C14_8 C 0.2407(7) 0.84149(19) 0.3749(4)
H6_8 H 0.1478 0.8187 0.3762
C15_8 C 0.5093(7) 0.90851(19) 0.3749(4)
H7_8 H 0.6022 0.9313 0.3762
C16_8 C 0.5093(7) 0.84149(19) 0.3751(4)
H8_8 H 0.6022 0.8187 0.3738
loop_
_geom_bond_atom_site_label_1
_geom_bond_atom_site_label_2
_geom_bond_site_symmetry_1
_geom_bond_site_symmetry_2
Sc1 O1 1_555 1_555
O1 C1 1_555 1_555
C1 O2 1_555 1_555
C2 C1 1_555 1_555
C3 C2 1_555 1_555
C4 C3 1_555 1_555
O3 Sc1 1_555 1_555
C5 O3 1_555 1_555
C6 C5 1_555 1_555
C7 C6 1_555 1_555
H1 C3 1_555 1_555
H2 C4 1_555 1_555
H3 C7 1_555 1_555
O6 C12 1_555 1_555
C12 C13 1_555 1_555
C13 C14 1_555 1_555
C14 C7 1_555 1_555
H6 C14 1_555 1_555
O7 C5 1_555 1_555
O8 C12 1_555 1_555
O9 Sc1 1_555 1_555
C17 O9 1_555 1_555
O10 C17 1_555 1_555
C18 C17 1_555 1_555
C19 C18 1_555 1_555
C20 C19 1_555 1_555
H9 C19 1_555 1_555
H10 C20 1_555 1_555
O11 C21 1_555 1_555
C21 O12 1_555 1_555
O12 Sc5 1_555 1_555
C22 C20 1_555 1_555
C23 C22 1_555 1_555
C24 C18 1_555 1_555
H12 C24 1_555 1_555
Sc6 O6 1_555 1_555
Sc9 O10 1_555 1_555
O15 Sc1 1_555 1_555
O16 Sc1 1_555 1_555
O20 Sc1 1_555 1_555
C21 C22 1_555 1_555
C23 C24 1_555 1_555
O4 C8 1_555 1_555
C8 O5 1_555 1_555
C10 C9 1_555 1_555
H4 C10 1_555 1_555
H5 C11 1_555 1_555
H7 C15 1_555 1_555
H8 C16 1_555 1_555
Sc2 O4 1_555 1_555
O13 Sc2 1_555 1_555
O14 Sc2 1_555 1_555
O17 Sc2 1_555 1_555
O18 Sc2 1_555 1_555
O19 Sc2 1_555 1_555
C8 C9 1_555 1_555
C10 C11 1_555 1_555
C15 C16 1_555 1_555
C7_2 C6_2 1_555 1_555
H3_2 C7_2 1_555 1_555
O6_2 C12_2 1_555 1_555
C12_2 C13_2 1_555 1_555
C13_2 C14_2 1_555 1_555
C14_2 C7_2 1_555 1_555
H6_2 C14_2 1_555 1_555
O8_2 C12_2 1_555 1_555
H10_2 C20_2 1_555 1_555
O11_2 C21_2 1_555 1_555
C21_2 O12_2 1_555 1_555
O12_2 Sc5_2 1_555 1_555
C22_2 C20_2 1_555 1_555
C23_2 C22_2 1_555 1_555
Sc6_2 O6_2 1_555 1_555
C21_2 C22_2 1_555 1_555
Sc1_2 O1_2 1_555 1_555
O1_2 C1_2 1_555 1_555
C1_2 O2_2 1_555 1_555
C2_2 C1_2 1_555 1_555
C3_2 C2_2 1_555 1_555
C4_2 C3_2 1_555 1_555
O3_2 Sc1_2 1_555 1_555
C5_2 O3_2 1_555 1_555
H1_2 C3_2 1_555 1_555
H2_2 C4_2 1_555 1_555
O7_2 C5_2 1_555 1_555
O9_2 Sc1_2 1_555 1_555
C17_2 O9_2 1_555 1_555
O10_2 C17_2 1_555 1_555
C18_2 C17_2 1_555 1_555
C19_2 C18_2 1_555 1_555
H9_2 C19_2 1_555 1_555
C24_2 C18_2 1_555 1_555
H12_2 C24_2 1_555 1_555
Sc9_2 O10_2 1_555 1_555
O15_2 Sc1_2 1_555 1_555
O16_2 Sc1_2 1_555 1_555
O20_2 Sc1_2 1_555 1_555
H7_2 C15_2 1_555 1_555
H8_2 C16_2 1_555 1_555
C15_2 C16_2 1_555 1_555
O4_2 C8_2 1_555 1_555
C8_2 O5_2 1_555 1_555
C10_2 C9_2 1_555 1_555
H4_2 C10_2 1_555 1_555
H5_2 C11_2 1_555 1_555
Sc2_2 O4_2 1_555 1_555
O13_2 Sc2_2 1_555 1_555
O14_2 Sc2_2 1_555 1_555
O17_2 Sc2_2 1_555 1_555
O18_2 Sc2_2 1_555 1_555
O19_2 Sc2_2 1_555 1_555
C8_2 C9_2 1_555 1_555
C10_2 C11_2 1_555 1_555
C17_3 O9_3 1_555 1_555
O10_3 C17_3 1_555 1_555
C18_3 C17_3 1_555 1_555
C19_3 C18_3 1_555 1_555
C20_3 C19_3 1_555 1_555
H10_3 C20_3 1_555 1_555
O13_2 C21_3 1_555 1_555
C21_3 O12_3 1_555 1_555
O12_3 Sc7_2 1_555 1_555
C22_3 C20_3 1_555 1_555
C23_3 C22_3 1_555 1_555
C24_3 C18_3 1_555 1_555
H11_3 C23_3 1_555 1_555
H12_3 C24_3 1_555 1_555
Sc6_2 O10_3 1_555 1_555
C21_3 C22_3 1_555 1_555
C23_3 C24_3 1_555 1_555
Sc4_2 O1_3 1_555 1_555
O1_3 C1_3 1_555 1_555
C1_3 O2_3 1_555 1_555
O2_3 Sc6_2 1_555 1_555
C2_3 C1_3 1_555 1_555
C3_3 C2_3 1_555 1_555
C4_3 C3_3 1_555 1_555
O3_3 Sc4_2 1_555 1_555
C5_3 O3_3 1_555 1_555
C6_3 C5_3 1_555 1_555
C7_3 C6_3 1_555 1_555
H1_3 C3_3 1_555 1_555
H2_3 C4_3 1_555 1_555
H3_3 C7_3 1_555 1_555
O4_3 C8_3 1_555 1_555
C8_3 O5_3 1_555 1_555
O5_3 Sc5_2 1_555 1_555
C9_3 C4_3 1_555 1_555
C10_3 C9_3 1_555 1_555
C11_3 C2_3 1_555 1_555
H4_3 C10_3 1_555 1_555
H5_3 C11_3 1_555 1_555
O6_3 C12_3 1_555 1_555
C12_3 C13_3 1_555 1_555
C13_3 C14_3 1_555 1_555
C14_3 C7_3 1_555 1_555
H6_3 C14_3 1_555 1_555
O7_3 C5_3 1_555 1_555
C15_3 C6_3 1_555 1_555
H7_3 C15_3 1_555 1_555
O20_2 C12_3 1_555 1_555
C16_3 C13_3 1_555 1_555
H8_3 C16_3 1_555 1_555
Sc3_2 O4_3 1_555 1_555
Sc9_2 O6_3 1_555 1_555
Sc6_2 O7_3 1_555 1_555
O16_3 Sc4_2 1_555 1_555
O17_3 Sc3_2 1_555 1_555
O18_3 Sc3_2 1_555 1_555
C8_3 C9_3 1_555 1_555
C10_3 C11_3 1_555 1_555
C15_3 C16_3 1_555 1_555
H10_4 C20_4 1_555 1_555
O13 C21_4 1_555 1_555
C21_4 O12_4 1_555 1_555
O12_4 Sc7 1_555 1_555
C22_4 C20_4 1_555 1_555
C23_4 C22_4 1_555 1_555
H11_4 C23_4 1_555 1_555
C21_4 C22_4 1_555 1_555
C17_4 O9_4 1_555 1_555
O10_4 C17_4 1_555 1_555
C18_4 C17_4 1_555 1_555
C19_4 C18_4 1_555 1_555
C24_4 C18_4 1_555 1_555
H12_4 C24_4 1_555 1_555
Sc6 O10_4 1_555 1_555
C7_4 C6_4 1_555 1_555
H3_4 C7_4 1_555 1_555
O6_4 C12_4 1_555 1_555
C12_4 C13_4 1_555 1_555
C13_4 C14_4 1_555 1_555
C14_4 C7_4 1_555 1_555
H6_4 C14_4 1_555 1_555
C15_4 C6_4 1_555 1_555
H7_4 C15_4 1_555 1_555
O20 C12_4 1_555 1_555
C16_4 C13_4 1_555 1_555
H8_4 C16_4 1_555 1_555
Sc9 O6_4 1_555 1_555
C15_4 C16_4 1_555 1_555
Sc4 O1_4 1_555 1_555
O1_4 C1_4 1_555 1_555
C1_4 O2_4 1_555 1_555
O2_4 Sc6 1_555 1_555
C2_4 C1_4 1_555 1_555
C3_4 C2_4 1_555 1_555
C4_4 C3_4 1_555 1_555
O3_4 Sc4 1_555 1_555
C5_4 O3_4 1_555 1_555
H1_4 C3_4 1_555 1_555
H2_4 C4_4 1_555 1_555
O4_4 C8_4 1_555 1_555
C8_4 O5_4 1_555 1_555
O5_4 Sc5 1_555 1_555
C9_4 C4_4 1_555 1_555
C10_4 C9_4 1_555 1_555
C11_4 C2_4 1_555 1_555
H4_4 C10_4 1_555 1_555
H5_4 C11_4 1_555 1_555
O7_4 C5_4 1_555 1_555
Sc3 O4_4 1_555 1_555
Sc6 O7_4 1_555 1_555
O16_4 Sc4 1_555 1_555
O17_4 Sc3 1_555 1_555
O18_4 Sc3 1_555 1_555
C8_4 C9_4 1_555 1_555
C10_4 C11_4 1_555 1_555
H2_5 C4_5 1_555 1_555
Sc6 O1_5 1_555 1_555
O1_5 C1_5 1_555 1_555
C1_5 O15_4 1_555 1_555
C2_5 C1_5 1_555 1_555
C3_5 C2_5 1_555 1_555
H1_5 C3_5 1_555 1_555
O9_5 Sc6 1_555 1_555
C17_5 O9_5 1_555 1_555
O16_4 C17_5 1_555 1_555
C18_5 C17_5 1_555 1_555
C19_5 C18_5 1_555 1_555
C20_5 C19_5 1_555 1_555
H9_5 C19_5 1_555 1_555
H10_5 C20_5 1_555 1_555
O11_3 C21_5 1_555 1_555
C21_5 O17_2 1_555 1_555
C22_5 C20_5 1_555 1_555
C23_5 C22_5 1_555 1_555
C24_5 C18_5 1_555 1_555
H12_5 C24_5 1_555 1_555
C21_5 C22_5 1_555 1_555
C23_5 C24_5 1_555 1_555
O4_5 C8_5 1_555 1_555
C8_5 O14_3 1_555 1_555
C10_5 C9_5 1_555 1_555
H4_5 C10_5 1_555 1_555
Sc5_2 O4_5 1_555 1_555
O13_3 Sc5_2 1_555 1_555
O18_5 Sc5_2 1_555 1_555
O19_5 Sc5_2 1_555 1_555
C8_5 C9_5 1_555 1_555
H5_5 C11_5 1_555 1_555
Sc6_2 O1_6 1_555 1_555
O1_6 C1_6 1_555 1_555
C1_6 O15_3 1_555 1_555
C2_6 C1_6 1_555 1_555
C3_6 C2_6 1_555 1_555
H1_6 C3_6 1_555 1_555
O9_6 Sc6_2 1_555 1_555
C17_6 O9_6 1_555 1_555
O16_3 C17_6 1_555 1_555
C18_6 C17_6 1_555 1_555
C19_6 C18_6 1_555 1_555
H9_6 C19_6 1_555 1_555
C24_6 C18_6 1_555 1_555
H12_6 C24_6 1_555 1_555
H2_6 C4_6 1_555 1_555
H10_6 C20_6 1_555 1_555
O11_4 C21_6 1_555 1_555
C21_6 O17 1_555 1_555
C22_6 C20_6 1_555 1_555
C23_6 C22_6 1_555 1_555
C21_6 C22_6 1_555 1_555
H5_6 C11_6 1_555 1_555
O4_6 C8_6 1_555 1_555
C8_6 O14_4 1_555 1_555
C10_6 C9_6 1_555 1_555
H4_6 C10_6 1_555 1_555
Sc5 O4_6 1_555 1_555
O13_4 Sc5 1_555 1_555
O18_6 Sc5 1_555 1_555
O19_6 Sc5 1_555 1_555
C8_6 C9_6 1_555 1_555
C17_7 O9_7 1_555 1_555
O16_2 C17_7 1_555 1_555
C18_7 C17_7 1_555 1_555
C19_7 C18_7 1_555 1_555
C24_7 C18_7 1_555 1_555
H12_7 C24_7 1_555 1_555
H10_7 C20_7 1_555 1_555
O13_4 C21_7 1_555 1_555
C21_7 O17_4 1_555 1_555
C22_7 C20_7 1_555 1_555
C23_7 C22_7 1_555 1_555
H11_7 C23_7 1_555 1_555
C21_7 C22_7 1_555 1_555
H2_7 C4_7 1_555 1_555
O4_7 C8_7 1_555 1_555
C8_7 O14 1_555 1_555
C9_7 C4_7 1_555 1_555
C10_7 C9_7 1_555 1_555
H4_7 C10_7 1_555 1_555
Sc7 O4_7 1_555 1_555
O18_7 Sc7 1_555 1_555
C8_7 C9_7 1_555 1_555
Sc9_2 O1_7 1_555 1_555
O1_7 C1_7 1_555 1_555
C1_7 O15_2 1_555 1_555
C2_7 C1_7 1_555 1_555
C3_7 C2_7 1_555 1_555
H1_7 C3_7 1_555 1_555
C11_7 C2_7 1_555 1_555
H5_7 C11_7 1_555 1_555
C17_8 O9_8 1_555 1_555
O16 C17_8 1_555 1_555
C18_8 C17_8 1_555 1_555
C19_8 C18_8 1_555 1_555
C20_8 C19_8 1_555 1_555
H10_8 C20_8 1_555 1_555
O13_3 C21_8 1_555 1_555
C21_8 O17_3 1_555 1_555
C22_8 C20_8 1_555 1_555
C23_8 C22_8 1_555 1_555
C24_8 C18_8 1_555 1_555
H11_8 C23_8 1_555 1_555
H12_8 C24_8 1_555 1_555
C21_8 C22_8 1_555 1_555
C23_8 C24_8 1_555 1_555
Sc9 O1_8 1_555 1_555
O1_8 C1_8 1_555 1_555
C1_8 O15 1_555 1_555
C2_8 C1_8 1_555 1_555
C3_8 C2_8 1_555 1_555
C4_8 C3_8 1_555 1_555
H1_8 C3_8 1_555 1_555
H2_8 C4_8 1_555 1_555
O4_8 C8_8 1_555 1_555
C8_8 O14_2 1_555 1_555
C9_8 C4_8 1_555 1_555
C10_8 C9_8 1_555 1_555
C11_8 C2_8 1_555 1_555
H4_8 C10_8 1_555 1_555
H5_8 C11_8 1_555 1_555
Sc7_2 O4_8 1_555 1_555
O18_8 Sc7_2 1_555 1_555
C8_8 C9_8 1_555 1_555
C10_8 C11_8 1_555 1_555
H7_5 C15_5 1_555 1_555
H8_5 C16_5 1_555 1_555
C15_5 C16_5 1_555 1_555
C5_5 O18_2 1_555 1_555
C6_5 C5_5 1_555 1_555
C7_5 C6_5 1_555 1_555
H3_5 C7_5 1_555 1_555
O18_5 C12_5 1_555 1_555
C12_5 C13_5 1_555 1_555
C13_5 C14_5 1_555 1_555
C14_5 C7_5 1_555 1_555
H6_5 C14_5 1_555 1_555
O19_8 C5_5 1_555 1_555
O19_3 C12_5 1_555 1_555
H7_6 C15_6 1_555 1_555
H8_6 C16_6 1_555 1_555
C15_6 C16_6 1_555 1_555
C5_6 O18 1_555 1_555
O19_7 C5_6 1_555 1_555
C7_6 C6_6 1_555 1_555
H3_6 C7_6 1_555 1_555
O18_6 C12_6 1_555 1_555
C12_6 C13_6 1_555 1_555
C13_6 C14_6 1_555 1_555
C14_6 C7_6 1_555 1_555
H6_6 C14_6 1_555 1_555
O19_4 C12_6 1_555 1_555
C5_7 O18_4 1_555 1_555
C6_7 C5_7 1_555 1_555
C7_7 C6_7 1_555 1_555
H3_7 C7_7 1_555 1_555
O18_7 C12_7 1_555 1_555
C12_7 C13_7 1_555 1_555
C13_7 C14_7 1_555 1_555
C14_7 C7_7 1_555 1_555
H6_7 C14_7 1_555 1_555
O19_6 C5_7 1_555 1_555
C15_7 C6_7 1_555 1_555
H7_7 C15_7 1_555 1_555
O19 C12_7 1_555 1_555
C16_7 C13_7 1_555 1_555
H8_7 C16_7 1_555 1_555
C15_7 C16_7 1_555 1_555
C5_8 O18_3 1_555 1_555
O19_5 C5_8 1_555 1_555
C7_8 C6_8 1_555 1_555
H3_8 C7_8 1_555 1_555
O18_8 C12_8 1_555 1_555
C12_8 C13_8 1_555 1_555
C13_8 C14_8 1_555 1_555
C14_8 C7_8 1_555 1_555
H6_8 C14_8 1_555 1_555
C15_8 C6_8 1_555 1_555
H7_8 C15_8 1_555 1_555
O19_2 C12_8 1_555 1_555
C16_8 C13_8 1_555 1_555
H8_8 C16_8 1_555 1_555
C15_8 C16_8 1_555 1_555

#END
