
###############################################################################
#
# This file contains modified crystal structure data generated from the
# MOF subset of the Cambridge Structural Database (CSD) v543 
# hosted by the Cambridge Crystallographic Data Centre (CCDC).
#
# This work is licensed under the Creative Commons
# Attribution-NonCommercial-ShareAlike 4.0 International License.
# To view a copy of this license, visit
# http://creativecommons.org/licenses/by-nc-sa/4.0/
# or send a letter to
# Creative Commons, PO Box 1866, Mountain View, CA 94042, USA.
#
# CIF created using the CSD Python API on 29 September 2022
# The structure has been converted into the P1 space group
# The structure has a 3D framework
# The original CSD entry HOJPAZ is in the orthorhombic crystal system
# The framework has been calculated to contain at least 10.0% void space
# The void calculation uses a probe of radius 1.32A, grid spacing 0.4
#
###############################################################################

data_HOJPAZ
_chemical_formula_moiety         '(C192 H96 O96 Sc16)n'
_symmetry_cell_setting           triclinic
_symmetry_space_group_name_H-M   'P 1'
_symmetry_Int_Tables_number      1
_space_group_name_Hall           'P 1'
loop_
_symmetry_equiv_pos_site_id
_symmetry_equiv_pos_as_xyz
1 x,y,z
_cell_length_a                   8.851(2)
_cell_length_b                   20.676(3)
_cell_length_c                   34.203(7)
_cell_angle_alpha                90
_cell_angle_beta                 90
_cell_angle_gamma                90
_cell_volume                     6259.26
loop_
_atom_site_label
_atom_site_type_symbol
_atom_site_fract_x
_atom_site_fract_y
_atom_site_fract_z
H11 H 0.0031 0.5253 0.7569
Sc3 Sc 0.1250 0.6250 0.86470(9)
Sc1 Sc 0.3750 0.3750 0.63530(9)
O1 O 0.2413(9) 0.3331(4) 0.6792(2)
C1 C 0.1024(9) 0.3204(6) 0.6819(3)
O2 O 0.0060(10) 0.3359(4) 0.6570(2)
C2 C 0.0496(9) 0.2839(6) 0.7172(3)
C3 C 0.1494(9) 0.2646(7) 0.7457(3)
C4 C 0.1002(10) 0.2306(6) 0.7785(3)
O3 O 0.2458(8) 0.4575(3) 0.6347(3)
C5 C 0.1250 0.4857(4) 0.6250
C6 C 0.1250 0.5578(3) 0.6250
C7 C 0.2590(7) 0.5915(2) 0.6250(5)
H1 H 0.2531 0.2753 0.7431
H2 H 0.1713 0.2163 0.7973
H3 H 0.3519 0.5687 0.6263
O6 O 0.2458(8) 0.7925(3) 0.6153(3)
C12 C 0.1250 0.7643(4) 0.6250
C13 C 0.1250 0.6922(3) 0.6250
C14 C 0.2590(7) 0.6585(2) 0.6250(5)
H6 H 0.3519 0.6813 0.6237
O7 O 0.0042(8) 0.4575(3) 0.6153(3)
O8 O 0.0042(8) 0.7925(3) 0.6347(3)
O9 O 0.5087(9) 0.4169(4) 0.6792(2)
C17 C 0.6476(9) 0.4296(6) 0.6819(3)
O10 O 0.7440(10) 0.4141(4) 0.6570(2)
C18 C 0.7004(9) 0.4661(6) 0.7172(3)
C19 C 0.6006(9) 0.4854(7) 0.7457(3)
C20 C 0.6498(10) 0.5194(6) 0.7785(3)
H9 H 0.4969 0.4747 0.7431
H10 H 0.5787 0.5337 0.7973
O11 O 0.9913(9) 0.5831(4) 0.8208(2)
C21 C 0.8524(9) 0.5704(6) 0.8181(3)
O12 O 0.7560(10) 0.5859(4) 0.8430(2)
C22 C 0.7996(9) 0.5339(6) 0.7828(3)
C23 C 0.8994(9) 0.5146(7) 0.7543(3)
C24 C 0.8502(10) 0.4806(6) 0.7215(3)
H12 H 0.9213 0.4663 0.7027
Sc5 Sc 0.6250 0.6250 0.88530(9)
Sc6 Sc 0.3750 0.8750 0.61470(9)
Sc7 Sc 0.1250 0.1250 0.88530(9)
Sc9 Sc 0.8750 0.3750 0.61470(9)
O15 O 0.5060(10) 0.4141(4) 0.5930(2)
O16 O 0.2440(10) 0.3359(4) 0.5930(2)
O20 O 0.5042(8) 0.2925(3) 0.6347(3)
O4 O 0.7587(9) 0.1669(4) 0.8208(2)
C8 C 0.8976(9) 0.1796(6) 0.8181(3)
O5 O 0.9940(10) 0.1641(4) 0.8430(2)
C9 C 0.9504(9) 0.2161(6) 0.7828(3)
C10 C 0.8506(9) 0.2354(7) 0.7543(3)
C11 C 0.8998(10) 0.2694(6) 0.7215(3)
H4 H 0.7469 0.2247 0.7569
H5 H 0.8287 0.2837 0.7027
C15 C 0.9910(7) 0.5915(2) 0.6250(5)
H7 H 0.8981 0.5687 0.6237
C16 C 0.9910(7) 0.6585(2) 0.6250(5)
H8 H 0.8981 0.6813 0.6263
Sc2 Sc 0.6250 0.1250 0.86470(9)
Sc4 Sc 0.8750 0.8750 0.63530(9)
O13 O 0.4913(9) 0.0831(4) 0.8208(2)
O14 O 0.4940(10) 0.0859(4) 0.9070(2)
O17 O 0.7560(10) 0.1641(4) 0.9070(2)
O18 O 0.7542(8) 0.0425(3) 0.8653(3)
O19 O 0.4958(8) 0.2075(3) 0.8653(3)
H11_2 H 0.0031 0.0253 0.2569
Sc3_2 Sc 0.1250 0.1250 0.36470(9)
C6_2 C 0.1250 0.0578(3) 0.1250
C7_2 C 0.2590(7) 0.0915(2) 0.1250(5)
H3_2 H 0.3519 0.0687 0.1263
O6_2 O 0.2458(8) 0.2925(3) 0.1153(3)
C12_2 C 0.1250 0.2643(4) 0.1250
C13_2 C 0.1250 0.1922(3) 0.1250
C14_2 C 0.2590(7) 0.1585(2) 0.1250(5)
H6_2 H 0.3519 0.1813 0.1237
O8_2 O 0.0042(8) 0.2925(3) 0.1347(3)
C20_2 C 0.6498(10) 0.0194(6) 0.2785(3)
H10_2 H 0.5787 0.0337 0.2973
O11_2 O 0.9913(9) 0.0831(4) 0.3208(2)
C21_2 C 0.8524(9) 0.0704(6) 0.3181(3)
O12_2 O 0.7560(10) 0.0859(4) 0.3430(2)
C22_2 C 0.7996(9) 0.0339(6) 0.2828(3)
C23_2 C 0.8994(9) 0.0146(7) 0.2543(3)
Sc5_2 Sc 0.6250 0.1250 0.38530(9)
Sc6_2 Sc 0.3750 0.3750 0.11470(9)
Sc1_2 Sc 0.3750 0.8750 0.13530(9)
O1_2 O 0.2413(9) 0.8331(4) 0.1792(2)
C1_2 C 0.1024(9) 0.8204(6) 0.1819(3)
O2_2 O 0.0060(10) 0.8359(4) 0.1570(2)
C2_2 C 0.0496(9) 0.7839(6) 0.2172(3)
C3_2 C 0.1494(9) 0.7646(7) 0.2457(3)
C4_2 C 0.1002(10) 0.7306(6) 0.2785(3)
O3_2 O 0.2458(8) 0.9575(3) 0.1347(3)
C5_2 C 0.1250 0.9857(4) 0.1250
H1_2 H 0.2531 0.7753 0.2431
H2_2 H 0.1713 0.7163 0.2973
O7_2 O 0.0042(8) 0.9575(3) 0.1153(3)
O9_2 O 0.5087(9) 0.9169(4) 0.1792(2)
C17_2 C 0.6476(9) 0.9296(6) 0.1819(3)
O10_2 O 0.7440(10) 0.9141(4) 0.1570(2)
C18_2 C 0.7004(9) 0.9661(6) 0.2172(3)
C19_2 C 0.6006(9) 0.9854(7) 0.2457(3)
H9_2 H 0.4969 0.9747 0.2431
C24_2 C 0.8502(10) 0.9806(6) 0.2215(3)
H12_2 H 0.9213 0.9663 0.2027
Sc7_2 Sc 0.1250 0.6250 0.38530(9)
Sc9_2 Sc 0.8750 0.8750 0.11470(9)
O15_2 O 0.5060(10) 0.9141(4) 0.0930(2)
O16_2 O 0.2440(10) 0.8359(4) 0.0930(2)
O20_2 O 0.5042(8) 0.7925(3) 0.1347(3)
C15_2 C 0.9910(7) 0.0915(2) 0.1250(5)
H7_2 H 0.8981 0.0687 0.1237
C16_2 C 0.9910(7) 0.1585(2) 0.1250(5)
H8_2 H 0.8981 0.1813 0.1263
Sc4_2 Sc 0.8750 0.3750 0.13530(9)
O4_2 O 0.7587(9) 0.6669(4) 0.3208(2)
C8_2 C 0.8976(9) 0.6796(6) 0.3181(3)
O5_2 O 0.9940(10) 0.6641(4) 0.3430(2)
C9_2 C 0.9504(9) 0.7161(6) 0.2828(3)
C10_2 C 0.8506(9) 0.7354(7) 0.2543(3)
C11_2 C 0.8998(10) 0.7694(6) 0.2215(3)
H4_2 H 0.7469 0.7247 0.2569
H5_2 H 0.8287 0.7837 0.2027
Sc2_2 Sc 0.6250 0.6250 0.36470(9)
O13_2 O 0.4913(9) 0.5831(4) 0.3208(2)
O14_2 O 0.4940(10) 0.5859(4) 0.4070(2)
O17_2 O 0.7560(10) 0.6641(4) 0.4070(2)
O18_2 O 0.7542(8) 0.5425(3) 0.3653(3)
O19_2 O 0.4958(8) 0.7075(3) 0.3653(3)
O9_3 O 0.0087(9) 0.4169(4) 0.1792(2)
C17_3 C 0.1476(9) 0.4296(6) 0.1819(3)
O10_3 O 0.2440(10) 0.4141(4) 0.1570(2)
C18_3 C 0.2004(9) 0.4661(6) 0.2172(3)
C19_3 C 0.1006(9) 0.4854(7) 0.2457(3)
C20_3 C 0.1498(10) 0.5194(6) 0.2785(3)
H10_3 H 0.0787 0.5337 0.2973
C21_3 C 0.3524(9) 0.5704(6) 0.3181(3)
O12_3 O 0.2560(10) 0.5859(4) 0.3430(2)
C22_3 C 0.2996(9) 0.5339(6) 0.2828(3)
C23_3 C 0.3994(9) 0.5146(7) 0.2543(3)
C24_3 C 0.3502(10) 0.4806(6) 0.2215(3)
H11_3 H 0.5031 0.5253 0.2569
H12_3 H 0.4213 0.4663 0.2027
O15_3 O 0.0060(10) 0.4141(4) 0.0930(2)
O1_3 O 0.7413(9) 0.3331(4) 0.1792(2)
C1_3 C 0.6024(9) 0.3204(6) 0.1819(3)
O2_3 O 0.5060(10) 0.3359(4) 0.1570(2)
C2_3 C 0.5496(9) 0.2839(6) 0.2172(3)
C3_3 C 0.6494(9) 0.2646(7) 0.2457(3)
C4_3 C 0.6002(10) 0.2306(6) 0.2785(3)
O3_3 O 0.7458(8) 0.4575(3) 0.1347(3)
C5_3 C 0.6250 0.4857(4) 0.1250
C6_3 C 0.6250 0.5578(3) 0.1250
C7_3 C 0.7590(7) 0.5915(2) 0.1250(5)
H1_3 H 0.7531 0.2753 0.2431
H2_3 H 0.6713 0.2163 0.2973
H3_3 H 0.8519 0.5687 0.1263
O4_3 O 0.2587(9) 0.1669(4) 0.3208(2)
C8_3 C 0.3976(9) 0.1796(6) 0.3181(3)
O5_3 O 0.4940(10) 0.1641(4) 0.3430(2)
C9_3 C 0.4504(9) 0.2161(6) 0.2828(3)
C10_3 C 0.3506(9) 0.2354(7) 0.2543(3)
C11_3 C 0.3998(10) 0.2694(6) 0.2215(3)
H4_3 H 0.2469 0.2247 0.2569
H5_3 H 0.3287 0.2837 0.2027
O6_3 O 0.7458(8) 0.7925(3) 0.1153(3)
C12_3 C 0.6250 0.7643(4) 0.1250
C13_3 C 0.6250 0.6922(3) 0.1250
C14_3 C 0.7590(7) 0.6585(2) 0.1250(5)
H6_3 H 0.8519 0.6813 0.1237
O7_3 O 0.5042(8) 0.4575(3) 0.1153(3)
C15_3 C 0.4910(7) 0.5915(2) 0.1250(5)
H7_3 H 0.3981 0.5687 0.1237
C16_3 C 0.4910(7) 0.6585(2) 0.1250(5)
H8_3 H 0.3981 0.6813 0.1263
H9_3 H 0.9969 0.4747 0.2431
O16_3 O 0.7440(10) 0.3359(4) 0.0930(2)
O17_3 O 0.2560(10) 0.1641(4) 0.4070(2)
O18_3 O 0.2542(8) 0.0425(3) 0.3653(3)
O14_3 O 0.9940(10) 0.0859(4) 0.4070(2)
O19_3 O 0.9958(8) 0.2075(3) 0.3653(3)
C20_4 C 0.1498(10) 0.0194(6) 0.7785(3)
H10_4 H 0.0787 0.0337 0.7973
C21_4 C 0.3524(9) 0.0704(6) 0.8181(3)
O12_4 O 0.2560(10) 0.0859(4) 0.8430(2)
C22_4 C 0.2996(9) 0.0339(6) 0.7828(3)
C23_4 C 0.3994(9) 0.0146(7) 0.7543(3)
H11_4 H 0.5031 0.0253 0.7569
O9_4 O 0.0087(9) 0.9169(4) 0.6792(2)
C17_4 C 0.1476(9) 0.9296(6) 0.6819(3)
O10_4 O 0.2440(10) 0.9141(4) 0.6570(2)
C18_4 C 0.2004(9) 0.9661(6) 0.7172(3)
C19_4 C 0.1006(9) 0.9854(7) 0.7457(3)
C24_4 C 0.3502(10) 0.9806(6) 0.7215(3)
H12_4 H 0.4213 0.9663 0.7027
O15_4 O 0.0060(10) 0.9141(4) 0.5930(2)
C6_4 C 0.6250 0.0578(3) 0.6250
C7_4 C 0.7590(7) 0.0915(2) 0.6250(5)
H3_4 H 0.8519 0.0687 0.6263
O6_4 O 0.7458(8) 0.2925(3) 0.6153(3)
C12_4 C 0.6250 0.2643(4) 0.6250
C13_4 C 0.6250 0.1922(3) 0.6250
C14_4 C 0.7590(7) 0.1585(2) 0.6250(5)
H6_4 H 0.8519 0.1813 0.6237
C15_4 C 0.4910(7) 0.0915(2) 0.6250(5)
H7_4 H 0.3981 0.0687 0.6237
C16_4 C 0.4910(7) 0.1585(2) 0.6250(5)
H8_4 H 0.3981 0.1813 0.6263
O1_4 O 0.7413(9) 0.8331(4) 0.6792(2)
C1_4 C 0.6024(9) 0.8204(6) 0.6819(3)
O2_4 O 0.5060(10) 0.8359(4) 0.6570(2)
C2_4 C 0.5496(9) 0.7839(6) 0.7172(3)
C3_4 C 0.6494(9) 0.7646(7) 0.7457(3)
C4_4 C 0.6002(10) 0.7306(6) 0.7785(3)
O3_4 O 0.7458(8) 0.9575(3) 0.6347(3)
C5_4 C 0.6250 0.9857(4) 0.6250
H1_4 H 0.7531 0.7753 0.7431
H2_4 H 0.6713 0.7163 0.7973
O4_4 O 0.2587(9) 0.6669(4) 0.8208(2)
C8_4 C 0.3976(9) 0.6796(6) 0.8181(3)
O5_4 O 0.4940(10) 0.6641(4) 0.8430(2)
C9_4 C 0.4504(9) 0.7161(6) 0.7828(3)
C10_4 C 0.3506(9) 0.7354(7) 0.7543(3)
C11_4 C 0.3998(10) 0.7694(6) 0.7215(3)
H4_4 H 0.2469 0.7247 0.7569
H5_4 H 0.3287 0.7837 0.7027
O7_4 O 0.5042(8) 0.9575(3) 0.6153(3)
H9_4 H 0.9969 0.9747 0.7431
O16_4 O 0.7440(10) 0.8359(4) 0.5930(2)
O17_4 O 0.2560(10) 0.6641(4) 0.9070(2)
O18_4 O 0.2542(8) 0.5425(3) 0.8653(3)
O14_4 O 0.9940(10) 0.5859(4) 0.9070(2)
O19_4 O 0.9958(8) 0.7075(3) 0.8653(3)
H11_5 H 0.0031 0.7247 0.4931
C4_5 C 0.1002(10) 0.0194(6) 0.4715(3)
H2_5 H 0.1713 0.0337 0.4527
O1_5 O 0.2413(9) 0.9169(4) 0.5708(2)
C1_5 C 0.1024(9) 0.9296(6) 0.5681(3)
C2_5 C 0.0496(9) 0.9661(6) 0.5328(3)
C3_5 C 0.1494(9) 0.9854(7) 0.5043(3)
H1_5 H 0.2531 0.9747 0.5069
O9_5 O 0.5087(9) 0.8331(4) 0.5708(2)
C17_5 C 0.6476(9) 0.8204(6) 0.5681(3)
C18_5 C 0.7004(9) 0.7839(6) 0.5328(3)
C19_5 C 0.6006(9) 0.7646(7) 0.5043(3)
C20_5 C 0.6498(10) 0.7306(6) 0.4715(3)
H9_5 H 0.4969 0.7753 0.5069
H10_5 H 0.5787 0.7163 0.4527
O11_3 O 0.9913(9) 0.6669(4) 0.4292(2)
C21_5 C 0.8524(9) 0.6796(6) 0.4319(3)
C22_5 C 0.7996(9) 0.7161(6) 0.4672(3)
C23_5 C 0.8994(9) 0.7354(7) 0.4957(3)
C24_5 C 0.8502(10) 0.7694(6) 0.5285(3)
H12_5 H 0.9213 0.7837 0.5473
O4_5 O 0.7587(9) 0.0831(4) 0.4292(2)
C8_5 C 0.8976(9) 0.0704(6) 0.4319(3)
C9_5 C 0.9504(9) 0.0339(6) 0.4672(3)
C10_5 C 0.8506(9) 0.0146(7) 0.4957(3)
H4_5 H 0.7469 0.0253 0.4931
O13_3 O 0.4913(9) 0.1669(4) 0.4292(2)
O18_5 O 0.7542(8) 0.2075(3) 0.3847(3)
O19_5 O 0.4958(8) 0.0425(3) 0.3847(3)
C11_5 C 0.8998(10) 0.9806(6) 0.5285(3)
H5_5 H 0.8287 0.9663 0.5473
H11_6 H 0.0031 0.2247 0.9931
O1_6 O 0.2413(9) 0.4169(4) 0.0708(2)
C1_6 C 0.1024(9) 0.4296(6) 0.0681(3)
C2_6 C 0.0496(9) 0.4661(6) 0.0328(3)
C3_6 C 0.1494(9) 0.4854(7) 0.0043(3)
H1_6 H 0.2531 0.4747 0.0069
O9_6 O 0.5087(9) 0.3331(4) 0.0708(2)
C17_6 C 0.6476(9) 0.3204(6) 0.0681(3)
C18_6 C 0.7004(9) 0.2839(6) 0.0328(3)
C19_6 C 0.6006(9) 0.2646(7) 0.0043(3)
H9_6 H 0.4969 0.2753 0.0069
C24_6 C 0.8502(10) 0.2694(6) 0.0285(3)
H12_6 H 0.9213 0.2837 0.0473
C4_6 C 0.1002(10) 0.5194(6) 0.9715(3)
H2_6 H 0.1713 0.5337 0.9527
C20_6 C 0.6498(10) 0.2306(6) 0.9715(3)
H10_6 H 0.5787 0.2163 0.9527
O11_4 O 0.9913(9) 0.1669(4) 0.9292(2)
C21_6 C 0.8524(9) 0.1796(6) 0.9319(3)
C22_6 C 0.7996(9) 0.2161(6) 0.9672(3)
C23_6 C 0.8994(9) 0.2354(7) 0.9957(3)
C11_6 C 0.8998(10) 0.4806(6) 0.0285(3)
H5_6 H 0.8287 0.4663 0.0473
O4_6 O 0.7587(9) 0.5831(4) 0.9292(2)
C8_6 C 0.8976(9) 0.5704(6) 0.9319(3)
C9_6 C 0.9504(9) 0.5339(6) 0.9672(3)
C10_6 C 0.8506(9) 0.5146(7) 0.9957(3)
H4_6 H 0.7469 0.5253 0.9931
O13_4 O 0.4913(9) 0.6669(4) 0.9292(2)
O18_6 O 0.7542(8) 0.7075(3) 0.8847(3)
O19_6 O 0.4958(8) 0.5425(3) 0.8847(3)
O9_7 O 0.0087(9) 0.8331(4) 0.0708(2)
C17_7 C 0.1476(9) 0.8204(6) 0.0681(3)
C18_7 C 0.2004(9) 0.7839(6) 0.0328(3)
C19_7 C 0.1006(9) 0.7646(7) 0.0043(3)
C24_7 C 0.3502(10) 0.7694(6) 0.0285(3)
H12_7 H 0.4213 0.7837 0.0473
C20_7 C 0.1498(10) 0.7306(6) 0.9715(3)
H10_7 H 0.0787 0.7163 0.9527
C21_7 C 0.3524(9) 0.6796(6) 0.9319(3)
C22_7 C 0.2996(9) 0.7161(6) 0.9672(3)
C23_7 C 0.3994(9) 0.7354(7) 0.9957(3)
H11_7 H 0.5031 0.7247 0.9931
C4_7 C 0.6002(10) 0.0194(6) 0.9715(3)
H2_7 H 0.6713 0.0337 0.9527
O4_7 O 0.2587(9) 0.0831(4) 0.9292(2)
C8_7 C 0.3976(9) 0.0704(6) 0.9319(3)
C9_7 C 0.4504(9) 0.0339(6) 0.9672(3)
C10_7 C 0.3506(9) 0.0146(7) 0.9957(3)
H4_7 H 0.2469 0.0253 0.9931
O18_7 O 0.2542(8) 0.2075(3) 0.8847(3)
O1_7 O 0.7413(9) 0.9169(4) 0.0708(2)
C1_7 C 0.6024(9) 0.9296(6) 0.0681(3)
C2_7 C 0.5496(9) 0.9661(6) 0.0328(3)
C3_7 C 0.6494(9) 0.9854(7) 0.0043(3)
H1_7 H 0.7531 0.9747 0.0069
C11_7 C 0.3998(10) 0.9806(6) 0.0285(3)
H5_7 H 0.3287 0.9663 0.0473
H9_7 H 0.9969 0.7753 0.0069
O19_7 O 0.9958(8) 0.0425(3) 0.8847(3)
O9_8 O 0.0087(9) 0.3331(4) 0.5708(2)
C17_8 C 0.1476(9) 0.3204(6) 0.5681(3)
C18_8 C 0.2004(9) 0.2839(6) 0.5328(3)
C19_8 C 0.1006(9) 0.2646(7) 0.5043(3)
C20_8 C 0.1498(10) 0.2306(6) 0.4715(3)
H10_8 H 0.0787 0.2163 0.4527
C21_8 C 0.3524(9) 0.1796(6) 0.4319(3)
C22_8 C 0.2996(9) 0.2161(6) 0.4672(3)
C23_8 C 0.3994(9) 0.2354(7) 0.4957(3)
C24_8 C 0.3502(10) 0.2694(6) 0.5285(3)
H11_8 H 0.5031 0.2247 0.4931
H12_8 H 0.4213 0.2837 0.5473
O1_8 O 0.7413(9) 0.4169(4) 0.5708(2)
C1_8 C 0.6024(9) 0.4296(6) 0.5681(3)
C2_8 C 0.5496(9) 0.4661(6) 0.5328(3)
C3_8 C 0.6494(9) 0.4854(7) 0.5043(3)
C4_8 C 0.6002(10) 0.5194(6) 0.4715(3)
H1_8 H 0.7531 0.4747 0.5069
H2_8 H 0.6713 0.5337 0.4527
O4_8 O 0.2587(9) 0.5831(4) 0.4292(2)
C8_8 C 0.3976(9) 0.5704(6) 0.4319(3)
C9_8 C 0.4504(9) 0.5339(6) 0.4672(3)
C10_8 C 0.3506(9) 0.5146(7) 0.4957(3)
C11_8 C 0.3998(10) 0.4806(6) 0.5285(3)
H4_8 H 0.2469 0.5253 0.4931
H5_8 H 0.3287 0.4663 0.5473
H9_8 H 0.9969 0.2753 0.5069
O18_8 O 0.2542(8) 0.7075(3) 0.3847(3)
O19_8 O 0.9958(8) 0.5425(3) 0.3847(3)
C15_5 C 0.0090(7) 0.4085(2) 0.3750(5)
H7_5 H 0.1019 0.4313 0.3763
C16_5 C 0.0090(7) 0.3415(2) 0.3750(5)
H8_5 H 0.1019 0.3187 0.3737
C5_5 C 0.8750 0.5143(4) 0.3750
C6_5 C 0.8750 0.4422(3) 0.3750
C7_5 C 0.7410(7) 0.4085(2) 0.3750(5)
H3_5 H 0.6481 0.4313 0.3737
C12_5 C 0.8750 0.2357(4) 0.3750
C13_5 C 0.8750 0.3078(3) 0.3750
C14_5 C 0.7410(7) 0.3415(2) 0.3750(5)
H6_5 H 0.6481 0.3187 0.3763
C15_6 C 0.0090(7) 0.9085(2) 0.8750(5)
H7_6 H 0.1019 0.9313 0.8763
C16_6 C 0.0090(7) 0.8415(2) 0.8750(5)
H8_6 H 0.1019 0.8187 0.8737
C5_6 C 0.8750 0.0143(4) 0.8750
C6_6 C 0.8750 0.9422(3) 0.8750
C7_6 C 0.7410(7) 0.9085(2) 0.8750(5)
H3_6 H 0.6481 0.9313 0.8737
C12_6 C 0.8750 0.7357(4) 0.8750
C13_6 C 0.8750 0.8078(3) 0.8750
C14_6 C 0.7410(7) 0.8415(2) 0.8750(5)
H6_6 H 0.6481 0.8187 0.8763
C5_7 C 0.3750 0.5143(4) 0.8750
C6_7 C 0.3750 0.4422(3) 0.8750
C7_7 C 0.2410(7) 0.4085(2) 0.8750(5)
H3_7 H 0.1481 0.4313 0.8737
C12_7 C 0.3750 0.2357(4) 0.8750
C13_7 C 0.3750 0.3078(3) 0.8750
C14_7 C 0.2410(7) 0.3415(2) 0.8750(5)
H6_7 H 0.1481 0.3187 0.8763
C15_7 C 0.5090(7) 0.4085(2) 0.8750(5)
H7_7 H 0.6019 0.4313 0.8763
C16_7 C 0.5090(7) 0.3415(2) 0.8750(5)
H8_7 H 0.6019 0.3187 0.8737
C5_8 C 0.3750 0.0143(4) 0.3750
C6_8 C 0.3750 0.9422(3) 0.3750
C7_8 C 0.2410(7) 0.9085(2) 0.3750(5)
H3_8 H 0.1481 0.9313 0.3737
C12_8 C 0.3750 0.7357(4) 0.3750
C13_8 C 0.3750 0.8078(3) 0.3750
C14_8 C 0.2410(7) 0.8415(2) 0.3750(5)
H6_8 H 0.1481 0.8187 0.3763
C15_8 C 0.5090(7) 0.9085(2) 0.3750(5)
H7_8 H 0.6019 0.9313 0.3763
C16_8 C 0.5090(7) 0.8415(2) 0.3750(5)
H8_8 H 0.6019 0.8187 0.3737
loop_
_geom_bond_atom_site_label_1
_geom_bond_atom_site_label_2
_geom_bond_site_symmetry_1
_geom_bond_site_symmetry_2
Sc1 O1 1_555 1_555
O1 C1 1_555 1_555
C1 O2 1_555 1_555
C2 C1 1_555 1_555
C3 C2 1_555 1_555
C4 C3 1_555 1_555
O3 Sc1 1_555 1_555
C5 O3 1_555 1_555
C6 C5 1_555 1_555
C7 C6 1_555 1_555
H1 C3 1_555 1_555
H2 C4 1_555 1_555
H3 C7 1_555 1_555
O6 C12 1_555 1_555
C12 C13 1_555 1_555
C13 C14 1_555 1_555
C14 C7 1_555 1_555
H6 C14 1_555 1_555
O7 C5 1_555 1_555
O8 C12 1_555 1_555
O9 Sc1 1_555 1_555
C17 O9 1_555 1_555
O10 C17 1_555 1_555
C18 C17 1_555 1_555
C19 C18 1_555 1_555
C20 C19 1_555 1_555
H9 C19 1_555 1_555
H10 C20 1_555 1_555
O11 C21 1_555 1_555
C21 O12 1_555 1_555
O12 Sc5 1_555 1_555
C22 C20 1_555 1_555
C23 C22 1_555 1_555
C24 C18 1_555 1_555
H12 C24 1_555 1_555
Sc6 O6 1_555 1_555
Sc9 O10 1_555 1_555
O15 Sc1 1_555 1_555
O16 Sc1 1_555 1_555
O20 Sc1 1_555 1_555
C21 C22 1_555 1_555
C23 C24 1_555 1_555
O4 C8 1_555 1_555
C8 O5 1_555 1_555
C10 C9 1_555 1_555
H4 C10 1_555 1_555
H5 C11 1_555 1_555
H7 C15 1_555 1_555
H8 C16 1_555 1_555
Sc2 O4 1_555 1_555
O13 Sc2 1_555 1_555
O14 Sc2 1_555 1_555
O17 Sc2 1_555 1_555
O18 Sc2 1_555 1_555
O19 Sc2 1_555 1_555
C8 C9 1_555 1_555
C10 C11 1_555 1_555
C15 C16 1_555 1_555
C7_2 C6_2 1_555 1_555
H3_2 C7_2 1_555 1_555
O6_2 C12_2 1_555 1_555
C12_2 C13_2 1_555 1_555
C13_2 C14_2 1_555 1_555
C14_2 C7_2 1_555 1_555
H6_2 C14_2 1_555 1_555
O8_2 C12_2 1_555 1_555
H10_2 C20_2 1_555 1_555
O11_2 C21_2 1_555 1_555
C21_2 O12_2 1_555 1_555
O12_2 Sc5_2 1_555 1_555
C22_2 C20_2 1_555 1_555
C23_2 C22_2 1_555 1_555
Sc6_2 O6_2 1_555 1_555
C21_2 C22_2 1_555 1_555
Sc1_2 O1_2 1_555 1_555
O1_2 C1_2 1_555 1_555
C1_2 O2_2 1_555 1_555
C2_2 C1_2 1_555 1_555
C3_2 C2_2 1_555 1_555
C4_2 C3_2 1_555 1_555
O3_2 Sc1_2 1_555 1_555
C5_2 O3_2 1_555 1_555
H1_2 C3_2 1_555 1_555
H2_2 C4_2 1_555 1_555
O7_2 C5_2 1_555 1_555
O9_2 Sc1_2 1_555 1_555
C17_2 O9_2 1_555 1_555
O10_2 C17_2 1_555 1_555
C18_2 C17_2 1_555 1_555
C19_2 C18_2 1_555 1_555
H9_2 C19_2 1_555 1_555
C24_2 C18_2 1_555 1_555
H12_2 C24_2 1_555 1_555
Sc9_2 O10_2 1_555 1_555
O15_2 Sc1_2 1_555 1_555
O16_2 Sc1_2 1_555 1_555
O20_2 Sc1_2 1_555 1_555
H7_2 C15_2 1_555 1_555
H8_2 C16_2 1_555 1_555
C15_2 C16_2 1_555 1_555
O4_2 C8_2 1_555 1_555
C8_2 O5_2 1_555 1_555
C10_2 C9_2 1_555 1_555
H4_2 C10_2 1_555 1_555
H5_2 C11_2 1_555 1_555
Sc2_2 O4_2 1_555 1_555
O13_2 Sc2_2 1_555 1_555
O14_2 Sc2_2 1_555 1_555
O17_2 Sc2_2 1_555 1_555
O18_2 Sc2_2 1_555 1_555
O19_2 Sc2_2 1_555 1_555
C8_2 C9_2 1_555 1_555
C10_2 C11_2 1_555 1_555
C17_3 O9_3 1_555 1_555
O10_3 C17_3 1_555 1_555
C18_3 C17_3 1_555 1_555
C19_3 C18_3 1_555 1_555
C20_3 C19_3 1_555 1_555
H10_3 C20_3 1_555 1_555
O13_2 C21_3 1_555 1_555
C21_3 O12_3 1_555 1_555
O12_3 Sc7_2 1_555 1_555
C22_3 C20_3 1_555 1_555
C23_3 C22_3 1_555 1_555
C24_3 C18_3 1_555 1_555
H11_3 C23_3 1_555 1_555
H12_3 C24_3 1_555 1_555
Sc6_2 O10_3 1_555 1_555
C21_3 C22_3 1_555 1_555
C23_3 C24_3 1_555 1_555
Sc4_2 O1_3 1_555 1_555
O1_3 C1_3 1_555 1_555
C1_3 O2_3 1_555 1_555
O2_3 Sc6_2 1_555 1_555
C2_3 C1_3 1_555 1_555
C3_3 C2_3 1_555 1_555
C4_3 C3_3 1_555 1_555
O3_3 Sc4_2 1_555 1_555
C5_3 O3_3 1_555 1_555
C6_3 C5_3 1_555 1_555
C7_3 C6_3 1_555 1_555
H1_3 C3_3 1_555 1_555
H2_3 C4_3 1_555 1_555
H3_3 C7_3 1_555 1_555
O4_3 C8_3 1_555 1_555
C8_3 O5_3 1_555 1_555
O5_3 Sc5_2 1_555 1_555
C9_3 C4_3 1_555 1_555
C10_3 C9_3 1_555 1_555
C11_3 C2_3 1_555 1_555
H4_3 C10_3 1_555 1_555
H5_3 C11_3 1_555 1_555
O6_3 C12_3 1_555 1_555
C12_3 C13_3 1_555 1_555
C13_3 C14_3 1_555 1_555
C14_3 C7_3 1_555 1_555
H6_3 C14_3 1_555 1_555
O7_3 C5_3 1_555 1_555
C15_3 C6_3 1_555 1_555
H7_3 C15_3 1_555 1_555
O20_2 C12_3 1_555 1_555
C16_3 C13_3 1_555 1_555
H8_3 C16_3 1_555 1_555
Sc3_2 O4_3 1_555 1_555
Sc9_2 O6_3 1_555 1_555
Sc6_2 O7_3 1_555 1_555
O16_3 Sc4_2 1_555 1_555
O17_3 Sc3_2 1_555 1_555
O18_3 Sc3_2 1_555 1_555
C8_3 C9_3 1_555 1_555
C10_3 C11_3 1_555 1_555
C15_3 C16_3 1_555 1_555
H10_4 C20_4 1_555 1_555
O13 C21_4 1_555 1_555
C21_4 O12_4 1_555 1_555
O12_4 Sc7 1_555 1_555
C22_4 C20_4 1_555 1_555
C23_4 C22_4 1_555 1_555
H11_4 C23_4 1_555 1_555
C21_4 C22_4 1_555 1_555
C17_4 O9_4 1_555 1_555
O10_4 C17_4 1_555 1_555
C18_4 C17_4 1_555 1_555
C19_4 C18_4 1_555 1_555
C24_4 C18_4 1_555 1_555
H12_4 C24_4 1_555 1_555
Sc6 O10_4 1_555 1_555
C7_4 C6_4 1_555 1_555
H3_4 C7_4 1_555 1_555
O6_4 C12_4 1_555 1_555
C12_4 C13_4 1_555 1_555
C13_4 C14_4 1_555 1_555
C14_4 C7_4 1_555 1_555
H6_4 C14_4 1_555 1_555
C15_4 C6_4 1_555 1_555
H7_4 C15_4 1_555 1_555
O20 C12_4 1_555 1_555
C16_4 C13_4 1_555 1_555
H8_4 C16_4 1_555 1_555
Sc9 O6_4 1_555 1_555
C15_4 C16_4 1_555 1_555
Sc4 O1_4 1_555 1_555
O1_4 C1_4 1_555 1_555
C1_4 O2_4 1_555 1_555
O2_4 Sc6 1_555 1_555
C2_4 C1_4 1_555 1_555
C3_4 C2_4 1_555 1_555
C4_4 C3_4 1_555 1_555
O3_4 Sc4 1_555 1_555
C5_4 O3_4 1_555 1_555
H1_4 C3_4 1_555 1_555
H2_4 C4_4 1_555 1_555
O4_4 C8_4 1_555 1_555
C8_4 O5_4 1_555 1_555
O5_4 Sc5 1_555 1_555
C9_4 C4_4 1_555 1_555
C10_4 C9_4 1_555 1_555
C11_4 C2_4 1_555 1_555
H4_4 C10_4 1_555 1_555
H5_4 C11_4 1_555 1_555
O7_4 C5_4 1_555 1_555
Sc3 O4_4 1_555 1_555
Sc6 O7_4 1_555 1_555
O16_4 Sc4 1_555 1_555
O17_4 Sc3 1_555 1_555
O18_4 Sc3 1_555 1_555
C8_4 C9_4 1_555 1_555
C10_4 C11_4 1_555 1_555
H2_5 C4_5 1_555 1_555
Sc6 O1_5 1_555 1_555
O1_5 C1_5 1_555 1_555
C1_5 O15_4 1_555 1_555
C2_5 C1_5 1_555 1_555
C3_5 C2_5 1_555 1_555
H1_5 C3_5 1_555 1_555
O9_5 Sc6 1_555 1_555
C17_5 O9_5 1_555 1_555
O16_4 C17_5 1_555 1_555
C18_5 C17_5 1_555 1_555
C19_5 C18_5 1_555 1_555
C20_5 C19_5 1_555 1_555
H9_5 C19_5 1_555 1_555
H10_5 C20_5 1_555 1_555
O11_3 C21_5 1_555 1_555
C21_5 O17_2 1_555 1_555
C22_5 C20_5 1_555 1_555
C23_5 C22_5 1_555 1_555
C24_5 C18_5 1_555 1_555
H12_5 C24_5 1_555 1_555
C21_5 C22_5 1_555 1_555
C23_5 C24_5 1_555 1_555
O4_5 C8_5 1_555 1_555
C8_5 O14_3 1_555 1_555
C10_5 C9_5 1_555 1_555
H4_5 C10_5 1_555 1_555
Sc5_2 O4_5 1_555 1_555
O13_3 Sc5_2 1_555 1_555
O18_5 Sc5_2 1_555 1_555
O19_5 Sc5_2 1_555 1_555
C8_5 C9_5 1_555 1_555
H5_5 C11_5 1_555 1_555
Sc6_2 O1_6 1_555 1_555
O1_6 C1_6 1_555 1_555
C1_6 O15_3 1_555 1_555
C2_6 C1_6 1_555 1_555
C3_6 C2_6 1_555 1_555
H1_6 C3_6 1_555 1_555
O9_6 Sc6_2 1_555 1_555
C17_6 O9_6 1_555 1_555
O16_3 C17_6 1_555 1_555
C18_6 C17_6 1_555 1_555
C19_6 C18_6 1_555 1_555
H9_6 C19_6 1_555 1_555
C24_6 C18_6 1_555 1_555
H12_6 C24_6 1_555 1_555
H2_6 C4_6 1_555 1_555
H10_6 C20_6 1_555 1_555
O11_4 C21_6 1_555 1_555
C21_6 O17 1_555 1_555
C22_6 C20_6 1_555 1_555
C23_6 C22_6 1_555 1_555
C21_6 C22_6 1_555 1_555
H5_6 C11_6 1_555 1_555
O4_6 C8_6 1_555 1_555
C8_6 O14_4 1_555 1_555
C10_6 C9_6 1_555 1_555
H4_6 C10_6 1_555 1_555
Sc5 O4_6 1_555 1_555
O13_4 Sc5 1_555 1_555
O18_6 Sc5 1_555 1_555
O19_6 Sc5 1_555 1_555
C8_6 C9_6 1_555 1_555
C17_7 O9_7 1_555 1_555
O16_2 C17_7 1_555 1_555
C18_7 C17_7 1_555 1_555
C19_7 C18_7 1_555 1_555
C24_7 C18_7 1_555 1_555
H12_7 C24_7 1_555 1_555
H10_7 C20_7 1_555 1_555
O13_4 C21_7 1_555 1_555
C21_7 O17_4 1_555 1_555
C22_7 C20_7 1_555 1_555
C23_7 C22_7 1_555 1_555
H11_7 C23_7 1_555 1_555
C21_7 C22_7 1_555 1_555
H2_7 C4_7 1_555 1_555
O4_7 C8_7 1_555 1_555
C8_7 O14 1_555 1_555
C9_7 C4_7 1_555 1_555
C10_7 C9_7 1_555 1_555
H4_7 C10_7 1_555 1_555
Sc7 O4_7 1_555 1_555
O18_7 Sc7 1_555 1_555
C8_7 C9_7 1_555 1_555
Sc9_2 O1_7 1_555 1_555
O1_7 C1_7 1_555 1_555
C1_7 O15_2 1_555 1_555
C2_7 C1_7 1_555 1_555
C3_7 C2_7 1_555 1_555
H1_7 C3_7 1_555 1_555
C11_7 C2_7 1_555 1_555
H5_7 C11_7 1_555 1_555
C17_8 O9_8 1_555 1_555
O16 C17_8 1_555 1_555
C18_8 C17_8 1_555 1_555
C19_8 C18_8 1_555 1_555
C20_8 C19_8 1_555 1_555
H10_8 C20_8 1_555 1_555
O13_3 C21_8 1_555 1_555
C21_8 O17_3 1_555 1_555
C22_8 C20_8 1_555 1_555
C23_8 C22_8 1_555 1_555
C24_8 C18_8 1_555 1_555
H11_8 C23_8 1_555 1_555
H12_8 C24_8 1_555 1_555
C21_8 C22_8 1_555 1_555
C23_8 C24_8 1_555 1_555
Sc9 O1_8 1_555 1_555
O1_8 C1_8 1_555 1_555
C1_8 O15 1_555 1_555
C2_8 C1_8 1_555 1_555
C3_8 C2_8 1_555 1_555
C4_8 C3_8 1_555 1_555
H1_8 C3_8 1_555 1_555
H2_8 C4_8 1_555 1_555
O4_8 C8_8 1_555 1_555
C8_8 O14_2 1_555 1_555
C9_8 C4_8 1_555 1_555
C10_8 C9_8 1_555 1_555
C11_8 C2_8 1_555 1_555
H4_8 C10_8 1_555 1_555
H5_8 C11_8 1_555 1_555
Sc7_2 O4_8 1_555 1_555
O18_8 Sc7_2 1_555 1_555
C8_8 C9_8 1_555 1_555
C10_8 C11_8 1_555 1_555
H7_5 C15_5 1_555 1_555
H8_5 C16_5 1_555 1_555
C15_5 C16_5 1_555 1_555
C5_5 O18_2 1_555 1_555
C6_5 C5_5 1_555 1_555
C7_5 C6_5 1_555 1_555
H3_5 C7_5 1_555 1_555
O18_5 C12_5 1_555 1_555
C12_5 C13_5 1_555 1_555
C13_5 C14_5 1_555 1_555
C14_5 C7_5 1_555 1_555
H6_5 C14_5 1_555 1_555
O19_8 C5_5 1_555 1_555
O19_3 C12_5 1_555 1_555
H7_6 C15_6 1_555 1_555
H8_6 C16_6 1_555 1_555
C15_6 C16_6 1_555 1_555
C5_6 O18 1_555 1_555
O19_7 C5_6 1_555 1_555
C7_6 C6_6 1_555 1_555
H3_6 C7_6 1_555 1_555
O18_6 C12_6 1_555 1_555
C12_6 C13_6 1_555 1_555
C13_6 C14_6 1_555 1_555
C14_6 C7_6 1_555 1_555
H6_6 C14_6 1_555 1_555
O19_4 C12_6 1_555 1_555
C5_7 O18_4 1_555 1_555
C6_7 C5_7 1_555 1_555
C7_7 C6_7 1_555 1_555
H3_7 C7_7 1_555 1_555
O18_7 C12_7 1_555 1_555
C12_7 C13_7 1_555 1_555
C13_7 C14_7 1_555 1_555
C14_7 C7_7 1_555 1_555
H6_7 C14_7 1_555 1_555
O19_6 C5_7 1_555 1_555
C15_7 C6_7 1_555 1_555
H7_7 C15_7 1_555 1_555
O19 C12_7 1_555 1_555
C16_7 C13_7 1_555 1_555
H8_7 C16_7 1_555 1_555
C15_7 C16_7 1_555 1_555
C5_8 O18_3 1_555 1_555
O19_5 C5_8 1_555 1_555
C7_8 C6_8 1_555 1_555
H3_8 C7_8 1_555 1_555
O18_8 C12_8 1_555 1_555
C12_8 C13_8 1_555 1_555
C13_8 C14_8 1_555 1_555
C14_8 C7_8 1_555 1_555
H6_8 C14_8 1_555 1_555
C15_8 C6_8 1_555 1_555
H7_8 C15_8 1_555 1_555
O19_2 C12_8 1_555 1_555
C16_8 C13_8 1_555 1_555
H8_8 C16_8 1_555 1_555
C15_8 C16_8 1_555 1_555

#END
