
###############################################################################
#
# This file contains modified crystal structure data generated from the
# MOF subset of the Cambridge Structural Database (CSD) v543 
# hosted by the Cambridge Crystallographic Data Centre (CCDC).
#
# This work is licensed under the Creative Commons
# Attribution-NonCommercial-ShareAlike 4.0 International License.
# To view a copy of this license, visit
# http://creativecommons.org/licenses/by-nc-sa/4.0/
# or send a letter to
# Creative Commons, PO Box 1866, Mountain View, CA 94042, USA.
#
# CIF created using the CSD Python API on 29 September 2022
# The structure has been converted into the P1 space group
# The structure has a 3D framework
# The original CSD entry HOJPIH is in the orthorhombic crystal system
# The framework has been calculated to contain at least 10.0% void space
# The void calculation uses a probe of radius 1.32A, grid spacing 0.4
#
###############################################################################

data_HOJPIH
_chemical_formula_moiety         '(C192 H96 O96 Sc16)n'
_symmetry_cell_setting           triclinic
_symmetry_space_group_name_H-M   'P 1'
_symmetry_Int_Tables_number      1
_space_group_name_Hall           'P 1'
loop_
_symmetry_equiv_pos_site_id
_symmetry_equiv_pos_as_xyz
1 x,y,z
_cell_length_a                   8.8041(15)
_cell_length_b                   20.625(2)
_cell_length_c                   34.062(5)
_cell_angle_alpha                90
_cell_angle_beta                 90
_cell_angle_gamma                90
_cell_volume                     6185.13
loop_
_atom_site_label
_atom_site_type_symbol
_atom_site_fract_x
_atom_site_fract_y
_atom_site_fract_z
H11 H 0.0041 0.5269 0.7564
Sc3 Sc 0.1250 0.6250 0.86491(10)
Sc1 Sc 0.3750 0.3750 0.63509(10)
O1 O 0.2445(10) 0.3319(5) 0.6788(2)
C1 C 0.1046(9) 0.3199(7) 0.6819(3)
O2 O 0.0077(10) 0.3364(6) 0.6571(3)
C2 C 0.0502(9) 0.2839(7) 0.7176(3)
C3 C 0.1504(10) 0.2661(8) 0.7462(3)
C4 C 0.1016(10) 0.2297(8) 0.7778(3)
O3 O 0.2455(9) 0.4581(4) 0.6345(3)
C5 C 0.1250 0.4864(4) 0.6250
C6 C 0.1250 0.5583(3) 0.6250
C7 C 0.2598(7) 0.5916(2) 0.6244(5)
H1 H 0.2541 0.2769 0.7436
H2 H 0.1727 0.2153 0.7967
H3 H 0.3527 0.5688 0.6257
O6 O 0.2455(9) 0.7919(4) 0.6155(3)
C12 C 0.1250 0.7636(4) 0.6250
C13 C 0.1250 0.6917(3) 0.6250
C14 C 0.2598(7) 0.6584(2) 0.6256(5)
H6 H 0.3527 0.6812 0.6243
O7 O 0.0045(9) 0.4581(4) 0.6155(3)
O8 O 0.0045(9) 0.7919(4) 0.6345(3)
O9 O 0.5055(10) 0.4181(5) 0.6788(2)
C17 C 0.6454(9) 0.4301(7) 0.6819(3)
O10 O 0.7423(10) 0.4136(6) 0.6571(3)
C18 C 0.6998(9) 0.4661(7) 0.7176(3)
C19 C 0.5996(10) 0.4839(8) 0.7462(3)
C20 C 0.6484(10) 0.5203(8) 0.7778(3)
H9 H 0.4959 0.4731 0.7436
H10 H 0.5773 0.5347 0.7967
O11 O 0.9945(10) 0.5819(5) 0.8212(2)
C21 C 0.8546(9) 0.5699(7) 0.8181(3)
O12 O 0.7577(10) 0.5864(6) 0.8429(3)
C22 C 0.8002(9) 0.5339(7) 0.7824(3)
C23 C 0.9004(10) 0.5161(8) 0.7538(3)
C24 C 0.8516(10) 0.4797(8) 0.7222(3)
H12 H 0.9227 0.4653 0.7033
Sc5 Sc 0.6250 0.6250 0.88509(10)
Sc6 Sc 0.3750 0.8750 0.61491(10)
Sc7 Sc 0.1250 0.1250 0.88509(10)
Sc9 Sc 0.8750 0.3750 0.61491(10)
O15 O 0.5077(10) 0.4136(6) 0.5929(3)
O16 O 0.2423(10) 0.3364(6) 0.5929(3)
O20 O 0.5045(9) 0.2919(4) 0.6345(3)
O4 O 0.7555(10) 0.1681(5) 0.8212(2)
C8 C 0.8954(9) 0.1801(7) 0.8181(3)
O5 O 0.9923(10) 0.1636(6) 0.8429(3)
C9 C 0.9498(9) 0.2161(7) 0.7824(3)
C10 C 0.8496(10) 0.2339(8) 0.7538(3)
C11 C 0.8984(10) 0.2703(8) 0.7222(3)
H4 H 0.7459 0.2231 0.7564
H5 H 0.8273 0.2847 0.7033
C15 C 0.9902(7) 0.5916(2) 0.6256(5)
H7 H 0.8973 0.5688 0.6243
C16 C 0.9902(7) 0.6584(2) 0.6244(5)
H8 H 0.8973 0.6812 0.6257
Sc2 Sc 0.6250 0.1250 0.86491(10)
Sc4 Sc 0.8750 0.8750 0.63509(10)
O13 O 0.4945(10) 0.0819(5) 0.8212(2)
O14 O 0.4923(10) 0.0864(6) 0.9071(3)
O17 O 0.7577(10) 0.1636(6) 0.9071(3)
O18 O 0.7545(9) 0.0419(4) 0.8655(3)
O19 O 0.4955(9) 0.2081(4) 0.8655(3)
H11_2 H 0.0041 0.0269 0.2564
Sc3_2 Sc 0.1250 0.1250 0.36491(10)
C6_2 C 0.1250 0.0583(3) 0.1250
C7_2 C 0.2598(7) 0.0916(2) 0.1244(5)
H3_2 H 0.3527 0.0688 0.1257
O6_2 O 0.2455(9) 0.2919(4) 0.1155(3)
C12_2 C 0.1250 0.2636(4) 0.1250
C13_2 C 0.1250 0.1917(3) 0.1250
C14_2 C 0.2598(7) 0.1584(2) 0.1256(5)
H6_2 H 0.3527 0.1812 0.1243
O8_2 O 0.0045(9) 0.2919(4) 0.1345(3)
C20_2 C 0.6484(10) 0.0203(8) 0.2778(3)
H10_2 H 0.5773 0.0347 0.2967
O11_2 O 0.9945(10) 0.0819(5) 0.3212(2)
C21_2 C 0.8546(9) 0.0699(7) 0.3181(3)
O12_2 O 0.7577(10) 0.0864(6) 0.3429(3)
C22_2 C 0.8002(9) 0.0339(7) 0.2824(3)
C23_2 C 0.9004(10) 0.0161(8) 0.2538(3)
Sc5_2 Sc 0.6250 0.1250 0.38509(10)
Sc6_2 Sc 0.3750 0.3750 0.11491(10)
Sc1_2 Sc 0.3750 0.8750 0.13509(10)
O1_2 O 0.2445(10) 0.8319(5) 0.1788(2)
C1_2 C 0.1046(9) 0.8199(7) 0.1819(3)
O2_2 O 0.0077(10) 0.8364(6) 0.1571(3)
C2_2 C 0.0502(9) 0.7839(7) 0.2176(3)
C3_2 C 0.1504(10) 0.7661(8) 0.2462(3)
C4_2 C 0.1016(10) 0.7297(8) 0.2778(3)
O3_2 O 0.2455(9) 0.9581(4) 0.1345(3)
C5_2 C 0.1250 0.9864(4) 0.1250
H1_2 H 0.2541 0.7769 0.2436
H2_2 H 0.1727 0.7153 0.2967
O7_2 O 0.0045(9) 0.9581(4) 0.1155(3)
O9_2 O 0.5055(10) 0.9181(5) 0.1788(2)
C17_2 C 0.6454(9) 0.9301(7) 0.1819(3)
O10_2 O 0.7423(10) 0.9136(6) 0.1571(3)
C18_2 C 0.6998(9) 0.9661(7) 0.2176(3)
C19_2 C 0.5996(10) 0.9839(8) 0.2462(3)
H9_2 H 0.4959 0.9731 0.2436
C24_2 C 0.8516(10) 0.9797(8) 0.2222(3)
H12_2 H 0.9227 0.9653 0.2033
Sc7_2 Sc 0.1250 0.6250 0.38509(10)
Sc9_2 Sc 0.8750 0.8750 0.11491(10)
O15_2 O 0.5077(10) 0.9136(6) 0.0929(3)
O16_2 O 0.2423(10) 0.8364(6) 0.0929(3)
O20_2 O 0.5045(9) 0.7919(4) 0.1345(3)
C15_2 C 0.9902(7) 0.0916(2) 0.1256(5)
H7_2 H 0.8973 0.0688 0.1243
C16_2 C 0.9902(7) 0.1584(2) 0.1244(5)
H8_2 H 0.8973 0.1812 0.1257
Sc4_2 Sc 0.8750 0.3750 0.13509(10)
O4_2 O 0.7555(10) 0.6681(5) 0.3212(2)
C8_2 C 0.8954(9) 0.6801(7) 0.3181(3)
O5_2 O 0.9923(10) 0.6636(6) 0.3429(3)
C9_2 C 0.9498(9) 0.7161(7) 0.2824(3)
C10_2 C 0.8496(10) 0.7339(8) 0.2538(3)
C11_2 C 0.8984(10) 0.7703(8) 0.2222(3)
H4_2 H 0.7459 0.7231 0.2564
H5_2 H 0.8273 0.7847 0.2033
Sc2_2 Sc 0.6250 0.6250 0.36491(10)
O13_2 O 0.4945(10) 0.5819(5) 0.3212(2)
O14_2 O 0.4923(10) 0.5864(6) 0.4071(3)
O17_2 O 0.7577(10) 0.6636(6) 0.4071(3)
O18_2 O 0.7545(9) 0.5419(4) 0.3655(3)
O19_2 O 0.4955(9) 0.7081(4) 0.3655(3)
O9_3 O 0.0055(10) 0.4181(5) 0.1788(2)
C17_3 C 0.1454(9) 0.4301(7) 0.1819(3)
O10_3 O 0.2423(10) 0.4136(6) 0.1571(3)
C18_3 C 0.1998(9) 0.4661(7) 0.2176(3)
C19_3 C 0.0996(10) 0.4839(8) 0.2462(3)
C20_3 C 0.1484(10) 0.5203(8) 0.2778(3)
H10_3 H 0.0773 0.5347 0.2967
C21_3 C 0.3546(9) 0.5699(7) 0.3181(3)
O12_3 O 0.2577(10) 0.5864(6) 0.3429(3)
C22_3 C 0.3002(9) 0.5339(7) 0.2824(3)
C23_3 C 0.4004(10) 0.5161(8) 0.2538(3)
C24_3 C 0.3516(10) 0.4797(8) 0.2222(3)
H11_3 H 0.5041 0.5269 0.2564
H12_3 H 0.4227 0.4653 0.2033
O15_3 O 0.0077(10) 0.4136(6) 0.0929(3)
O1_3 O 0.7445(10) 0.3319(5) 0.1788(2)
C1_3 C 0.6046(9) 0.3199(7) 0.1819(3)
O2_3 O 0.5077(10) 0.3364(6) 0.1571(3)
C2_3 C 0.5502(9) 0.2839(7) 0.2176(3)
C3_3 C 0.6504(10) 0.2661(8) 0.2462(3)
C4_3 C 0.6016(10) 0.2297(8) 0.2778(3)
O3_3 O 0.7455(9) 0.4581(4) 0.1345(3)
C5_3 C 0.6250 0.4864(4) 0.1250
C6_3 C 0.6250 0.5583(3) 0.1250
C7_3 C 0.7598(7) 0.5916(2) 0.1244(5)
H1_3 H 0.7541 0.2769 0.2436
H2_3 H 0.6727 0.2153 0.2967
H3_3 H 0.8527 0.5688 0.1257
O4_3 O 0.2555(10) 0.1681(5) 0.3212(2)
C8_3 C 0.3954(9) 0.1801(7) 0.3181(3)
O5_3 O 0.4923(10) 0.1636(6) 0.3429(3)
C9_3 C 0.4498(9) 0.2161(7) 0.2824(3)
C10_3 C 0.3496(10) 0.2339(8) 0.2538(3)
C11_3 C 0.3984(10) 0.2703(8) 0.2222(3)
H4_3 H 0.2459 0.2231 0.2564
H5_3 H 0.3273 0.2847 0.2033
O6_3 O 0.7455(9) 0.7919(4) 0.1155(3)
C12_3 C 0.6250 0.7636(4) 0.1250
C13_3 C 0.6250 0.6917(3) 0.1250
C14_3 C 0.7598(7) 0.6584(2) 0.1256(5)
H6_3 H 0.8527 0.6812 0.1243
O7_3 O 0.5045(9) 0.4581(4) 0.1155(3)
C15_3 C 0.4902(7) 0.5916(2) 0.1256(5)
H7_3 H 0.3973 0.5688 0.1243
C16_3 C 0.4902(7) 0.6584(2) 0.1244(5)
H8_3 H 0.3973 0.6812 0.1257
H9_3 H 0.9959 0.4731 0.2436
O16_3 O 0.7423(10) 0.3364(6) 0.0929(3)
O17_3 O 0.2577(10) 0.1636(6) 0.4071(3)
O18_3 O 0.2545(9) 0.0419(4) 0.3655(3)
O14_3 O 0.9923(10) 0.0864(6) 0.4071(3)
O19_3 O 0.9955(9) 0.2081(4) 0.3655(3)
C20_4 C 0.1484(10) 0.0203(8) 0.7778(3)
H10_4 H 0.0773 0.0347 0.7967
C21_4 C 0.3546(9) 0.0699(7) 0.8181(3)
O12_4 O 0.2577(10) 0.0864(6) 0.8429(3)
C22_4 C 0.3002(9) 0.0339(7) 0.7824(3)
C23_4 C 0.4004(10) 0.0161(8) 0.7538(3)
H11_4 H 0.5041 0.0269 0.7564
O9_4 O 0.0055(10) 0.9181(5) 0.6788(2)
C17_4 C 0.1454(9) 0.9301(7) 0.6819(3)
O10_4 O 0.2423(10) 0.9136(6) 0.6571(3)
C18_4 C 0.1998(9) 0.9661(7) 0.7176(3)
C19_4 C 0.0996(10) 0.9839(8) 0.7462(3)
C24_4 C 0.3516(10) 0.9797(8) 0.7222(3)
H12_4 H 0.4227 0.9653 0.7033
O15_4 O 0.0077(10) 0.9136(6) 0.5929(3)
C6_4 C 0.6250 0.0583(3) 0.6250
C7_4 C 0.7598(7) 0.0916(2) 0.6244(5)
H3_4 H 0.8527 0.0688 0.6257
O6_4 O 0.7455(9) 0.2919(4) 0.6155(3)
C12_4 C 0.6250 0.2636(4) 0.6250
C13_4 C 0.6250 0.1917(3) 0.6250
C14_4 C 0.7598(7) 0.1584(2) 0.6256(5)
H6_4 H 0.8527 0.1812 0.6243
C15_4 C 0.4902(7) 0.0916(2) 0.6256(5)
H7_4 H 0.3973 0.0688 0.6243
C16_4 C 0.4902(7) 0.1584(2) 0.6244(5)
H8_4 H 0.3973 0.1812 0.6257
O1_4 O 0.7445(10) 0.8319(5) 0.6788(2)
C1_4 C 0.6046(9) 0.8199(7) 0.6819(3)
O2_4 O 0.5077(10) 0.8364(6) 0.6571(3)
C2_4 C 0.5502(9) 0.7839(7) 0.7176(3)
C3_4 C 0.6504(10) 0.7661(8) 0.7462(3)
C4_4 C 0.6016(10) 0.7297(8) 0.7778(3)
O3_4 O 0.7455(9) 0.9581(4) 0.6345(3)
C5_4 C 0.6250 0.9864(4) 0.6250
H1_4 H 0.7541 0.7769 0.7436
H2_4 H 0.6727 0.7153 0.7967
O4_4 O 0.2555(10) 0.6681(5) 0.8212(2)
C8_4 C 0.3954(9) 0.6801(7) 0.8181(3)
O5_4 O 0.4923(10) 0.6636(6) 0.8429(3)
C9_4 C 0.4498(9) 0.7161(7) 0.7824(3)
C10_4 C 0.3496(10) 0.7339(8) 0.7538(3)
C11_4 C 0.3984(10) 0.7703(8) 0.7222(3)
H4_4 H 0.2459 0.7231 0.7564
H5_4 H 0.3273 0.7847 0.7033
O7_4 O 0.5045(9) 0.9581(4) 0.6155(3)
H9_4 H 0.9959 0.9731 0.7436
O16_4 O 0.7423(10) 0.8364(6) 0.5929(3)
O17_4 O 0.2577(10) 0.6636(6) 0.9071(3)
O18_4 O 0.2545(9) 0.5419(4) 0.8655(3)
O14_4 O 0.9923(10) 0.5864(6) 0.9071(3)
O19_4 O 0.9955(9) 0.7081(4) 0.8655(3)
H11_5 H 0.0041 0.7231 0.4936
C4_5 C 0.1016(10) 0.0203(8) 0.4722(3)
H2_5 H 0.1727 0.0347 0.4533
O1_5 O 0.2445(10) 0.9181(5) 0.5712(2)
C1_5 C 0.1046(9) 0.9301(7) 0.5681(3)
C2_5 C 0.0502(9) 0.9661(7) 0.5324(3)
C3_5 C 0.1504(10) 0.9839(8) 0.5038(3)
H1_5 H 0.2541 0.9731 0.5064
O9_5 O 0.5055(10) 0.8319(5) 0.5712(2)
C17_5 C 0.6454(9) 0.8199(7) 0.5681(3)
C18_5 C 0.6998(9) 0.7839(7) 0.5324(3)
C19_5 C 0.5996(10) 0.7661(8) 0.5038(3)
C20_5 C 0.6484(10) 0.7297(8) 0.4722(3)
H9_5 H 0.4959 0.7769 0.5064
H10_5 H 0.5773 0.7153 0.4533
O11_3 O 0.9945(10) 0.6681(5) 0.4288(2)
C21_5 C 0.8546(9) 0.6801(7) 0.4319(3)
C22_5 C 0.8002(9) 0.7161(7) 0.4676(3)
C23_5 C 0.9004(10) 0.7339(8) 0.4962(3)
C24_5 C 0.8516(10) 0.7703(8) 0.5278(3)
H12_5 H 0.9227 0.7847 0.5467
O4_5 O 0.7555(10) 0.0819(5) 0.4288(2)
C8_5 C 0.8954(9) 0.0699(7) 0.4319(3)
C9_5 C 0.9498(9) 0.0339(7) 0.4676(3)
C10_5 C 0.8496(10) 0.0161(8) 0.4962(3)
H4_5 H 0.7459 0.0269 0.4936
O13_3 O 0.4945(10) 0.1681(5) 0.4288(2)
O18_5 O 0.7545(9) 0.2081(4) 0.3845(3)
O19_5 O 0.4955(9) 0.0419(4) 0.3845(3)
C11_5 C 0.8984(10) 0.9797(8) 0.5278(3)
H5_5 H 0.8273 0.9653 0.5467
H11_6 H 0.0041 0.2231 0.9936
O1_6 O 0.2445(10) 0.4181(5) 0.0712(2)
C1_6 C 0.1046(9) 0.4301(7) 0.0681(3)
C2_6 C 0.0502(9) 0.4661(7) 0.0324(3)
C3_6 C 0.1504(10) 0.4839(8) 0.0038(3)
H1_6 H 0.2541 0.4731 0.0064
O9_6 O 0.5055(10) 0.3319(5) 0.0712(2)
C17_6 C 0.6454(9) 0.3199(7) 0.0681(3)
C18_6 C 0.6998(9) 0.2839(7) 0.0324(3)
C19_6 C 0.5996(10) 0.2661(8) 0.0038(3)
H9_6 H 0.4959 0.2769 0.0064
C24_6 C 0.8516(10) 0.2703(8) 0.0278(3)
H12_6 H 0.9227 0.2847 0.0467
C4_6 C 0.1016(10) 0.5203(8) 0.9722(3)
H2_6 H 0.1727 0.5347 0.9533
C20_6 C 0.6484(10) 0.2297(8) 0.9722(3)
H10_6 H 0.5773 0.2153 0.9533
O11_4 O 0.9945(10) 0.1681(5) 0.9288(2)
C21_6 C 0.8546(9) 0.1801(7) 0.9319(3)
C22_6 C 0.8002(9) 0.2161(7) 0.9676(3)
C23_6 C 0.9004(10) 0.2339(8) 0.9962(3)
C11_6 C 0.8984(10) 0.4797(8) 0.0278(3)
H5_6 H 0.8273 0.4653 0.0467
O4_6 O 0.7555(10) 0.5819(5) 0.9288(2)
C8_6 C 0.8954(9) 0.5699(7) 0.9319(3)
C9_6 C 0.9498(9) 0.5339(7) 0.9676(3)
C10_6 C 0.8496(10) 0.5161(8) 0.9962(3)
H4_6 H 0.7459 0.5269 0.9936
O13_4 O 0.4945(10) 0.6681(5) 0.9288(2)
O18_6 O 0.7545(9) 0.7081(4) 0.8845(3)
O19_6 O 0.4955(9) 0.5419(4) 0.8845(3)
O9_7 O 0.0055(10) 0.8319(5) 0.0712(2)
C17_7 C 0.1454(9) 0.8199(7) 0.0681(3)
C18_7 C 0.1998(9) 0.7839(7) 0.0324(3)
C19_7 C 0.0996(10) 0.7661(8) 0.0038(3)
C24_7 C 0.3516(10) 0.7703(8) 0.0278(3)
H12_7 H 0.4227 0.7847 0.0467
C20_7 C 0.1484(10) 0.7297(8) 0.9722(3)
H10_7 H 0.0773 0.7153 0.9533
C21_7 C 0.3546(9) 0.6801(7) 0.9319(3)
C22_7 C 0.3002(9) 0.7161(7) 0.9676(3)
C23_7 C 0.4004(10) 0.7339(8) 0.9962(3)
H11_7 H 0.5041 0.7231 0.9936
C4_7 C 0.6016(10) 0.0203(8) 0.9722(3)
H2_7 H 0.6727 0.0347 0.9533
O4_7 O 0.2555(10) 0.0819(5) 0.9288(2)
C8_7 C 0.3954(9) 0.0699(7) 0.9319(3)
C9_7 C 0.4498(9) 0.0339(7) 0.9676(3)
C10_7 C 0.3496(10) 0.0161(8) 0.9962(3)
H4_7 H 0.2459 0.0269 0.9936
O18_7 O 0.2545(9) 0.2081(4) 0.8845(3)
O1_7 O 0.7445(10) 0.9181(5) 0.0712(2)
C1_7 C 0.6046(9) 0.9301(7) 0.0681(3)
C2_7 C 0.5502(9) 0.9661(7) 0.0324(3)
C3_7 C 0.6504(10) 0.9839(8) 0.0038(3)
H1_7 H 0.7541 0.9731 0.0064
C11_7 C 0.3984(10) 0.9797(8) 0.0278(3)
H5_7 H 0.3273 0.9653 0.0467
H9_7 H 0.9959 0.7769 0.0064
O19_7 O 0.9955(9) 0.0419(4) 0.8845(3)
O9_8 O 0.0055(10) 0.3319(5) 0.5712(2)
C17_8 C 0.1454(9) 0.3199(7) 0.5681(3)
C18_8 C 0.1998(9) 0.2839(7) 0.5324(3)
C19_8 C 0.0996(10) 0.2661(8) 0.5038(3)
C20_8 C 0.1484(10) 0.2297(8) 0.4722(3)
H10_8 H 0.0773 0.2153 0.4533
C21_8 C 0.3546(9) 0.1801(7) 0.4319(3)
C22_8 C 0.3002(9) 0.2161(7) 0.4676(3)
C23_8 C 0.4004(10) 0.2339(8) 0.4962(3)
C24_8 C 0.3516(10) 0.2703(8) 0.5278(3)
H11_8 H 0.5041 0.2231 0.4936
H12_8 H 0.4227 0.2847 0.5467
O1_8 O 0.7445(10) 0.4181(5) 0.5712(2)
C1_8 C 0.6046(9) 0.4301(7) 0.5681(3)
C2_8 C 0.5502(9) 0.4661(7) 0.5324(3)
C3_8 C 0.6504(10) 0.4839(8) 0.5038(3)
C4_8 C 0.6016(10) 0.5203(8) 0.4722(3)
H1_8 H 0.7541 0.4731 0.5064
H2_8 H 0.6727 0.5347 0.4533
O4_8 O 0.2555(10) 0.5819(5) 0.4288(2)
C8_8 C 0.3954(9) 0.5699(7) 0.4319(3)
C9_8 C 0.4498(9) 0.5339(7) 0.4676(3)
C10_8 C 0.3496(10) 0.5161(8) 0.4962(3)
C11_8 C 0.3984(10) 0.4797(8) 0.5278(3)
H4_8 H 0.2459 0.5269 0.4936
H5_8 H 0.3273 0.4653 0.5467
H9_8 H 0.9959 0.2769 0.5064
O18_8 O 0.2545(9) 0.7081(4) 0.3845(3)
O19_8 O 0.9955(9) 0.5419(4) 0.3845(3)
C15_5 C 0.0098(7) 0.4084(2) 0.3744(5)
H7_5 H 0.1027 0.4312 0.3757
C16_5 C 0.0098(7) 0.3416(2) 0.3756(5)
H8_5 H 0.1027 0.3188 0.3743
C5_5 C 0.8750 0.5136(4) 0.3750
C6_5 C 0.8750 0.4417(3) 0.3750
C7_5 C 0.7402(7) 0.4084(2) 0.3756(5)
H3_5 H 0.6473 0.4312 0.3743
C12_5 C 0.8750 0.2364(4) 0.3750
C13_5 C 0.8750 0.3083(3) 0.3750
C14_5 C 0.7402(7) 0.3416(2) 0.3744(5)
H6_5 H 0.6473 0.3188 0.3757
C15_6 C 0.0098(7) 0.9084(2) 0.8744(5)
H7_6 H 0.1027 0.9312 0.8757
C16_6 C 0.0098(7) 0.8416(2) 0.8756(5)
H8_6 H 0.1027 0.8188 0.8743
C5_6 C 0.8750 0.0136(4) 0.8750
C6_6 C 0.8750 0.9417(3) 0.8750
C7_6 C 0.7402(7) 0.9084(2) 0.8756(5)
H3_6 H 0.6473 0.9312 0.8743
C12_6 C 0.8750 0.7364(4) 0.8750
C13_6 C 0.8750 0.8083(3) 0.8750
C14_6 C 0.7402(7) 0.8416(2) 0.8744(5)
H6_6 H 0.6473 0.8188 0.8757
C5_7 C 0.3750 0.5136(4) 0.8750
C6_7 C 0.3750 0.4417(3) 0.8750
C7_7 C 0.2402(7) 0.4084(2) 0.8756(5)
H3_7 H 0.1473 0.4312 0.8743
C12_7 C 0.3750 0.2364(4) 0.8750
C13_7 C 0.3750 0.3083(3) 0.8750
C14_7 C 0.2402(7) 0.3416(2) 0.8744(5)
H6_7 H 0.1473 0.3188 0.8757
C15_7 C 0.5098(7) 0.4084(2) 0.8744(5)
H7_7 H 0.6027 0.4312 0.8757
C16_7 C 0.5098(7) 0.3416(2) 0.8756(5)
H8_7 H 0.6027 0.3188 0.8743
C5_8 C 0.3750 0.0136(4) 0.3750
C6_8 C 0.3750 0.9417(3) 0.3750
C7_8 C 0.2402(7) 0.9084(2) 0.3756(5)
H3_8 H 0.1473 0.9312 0.3743
C12_8 C 0.3750 0.7364(4) 0.3750
C13_8 C 0.3750 0.8083(3) 0.3750
C14_8 C 0.2402(7) 0.8416(2) 0.3744(5)
H6_8 H 0.1473 0.8188 0.3757
C15_8 C 0.5098(7) 0.9084(2) 0.3744(5)
H7_8 H 0.6027 0.9312 0.3757
C16_8 C 0.5098(7) 0.8416(2) 0.3756(5)
H8_8 H 0.6027 0.8188 0.3743
loop_
_geom_bond_atom_site_label_1
_geom_bond_atom_site_label_2
_geom_bond_site_symmetry_1
_geom_bond_site_symmetry_2
Sc1 O1 1_555 1_555
O1 C1 1_555 1_555
C1 O2 1_555 1_555
C2 C1 1_555 1_555
C3 C2 1_555 1_555
C4 C3 1_555 1_555
O3 Sc1 1_555 1_555
C5 O3 1_555 1_555
C6 C5 1_555 1_555
C7 C6 1_555 1_555
H1 C3 1_555 1_555
H2 C4 1_555 1_555
H3 C7 1_555 1_555
O6 C12 1_555 1_555
C12 C13 1_555 1_555
C13 C14 1_555 1_555
C14 C7 1_555 1_555
H6 C14 1_555 1_555
O7 C5 1_555 1_555
O8 C12 1_555 1_555
O9 Sc1 1_555 1_555
C17 O9 1_555 1_555
O10 C17 1_555 1_555
C18 C17 1_555 1_555
C19 C18 1_555 1_555
C20 C19 1_555 1_555
H9 C19 1_555 1_555
H10 C20 1_555 1_555
O11 C21 1_555 1_555
C21 O12 1_555 1_555
O12 Sc5 1_555 1_555
C22 C20 1_555 1_555
C23 C22 1_555 1_555
C24 C18 1_555 1_555
H12 C24 1_555 1_555
Sc6 O6 1_555 1_555
Sc9 O10 1_555 1_555
O15 Sc1 1_555 1_555
O16 Sc1 1_555 1_555
O20 Sc1 1_555 1_555
C21 C22 1_555 1_555
C23 C24 1_555 1_555
O4 C8 1_555 1_555
C8 O5 1_555 1_555
C10 C9 1_555 1_555
H4 C10 1_555 1_555
H5 C11 1_555 1_555
H7 C15 1_555 1_555
H8 C16 1_555 1_555
Sc2 O4 1_555 1_555
O13 Sc2 1_555 1_555
O14 Sc2 1_555 1_555
O17 Sc2 1_555 1_555
O18 Sc2 1_555 1_555
O19 Sc2 1_555 1_555
C8 C9 1_555 1_555
C10 C11 1_555 1_555
C15 C16 1_555 1_555
C7_2 C6_2 1_555 1_555
H3_2 C7_2 1_555 1_555
O6_2 C12_2 1_555 1_555
C12_2 C13_2 1_555 1_555
C13_2 C14_2 1_555 1_555
C14_2 C7_2 1_555 1_555
H6_2 C14_2 1_555 1_555
O8_2 C12_2 1_555 1_555
H10_2 C20_2 1_555 1_555
O11_2 C21_2 1_555 1_555
C21_2 O12_2 1_555 1_555
O12_2 Sc5_2 1_555 1_555
C22_2 C20_2 1_555 1_555
C23_2 C22_2 1_555 1_555
Sc6_2 O6_2 1_555 1_555
C21_2 C22_2 1_555 1_555
Sc1_2 O1_2 1_555 1_555
O1_2 C1_2 1_555 1_555
C1_2 O2_2 1_555 1_555
C2_2 C1_2 1_555 1_555
C3_2 C2_2 1_555 1_555
C4_2 C3_2 1_555 1_555
O3_2 Sc1_2 1_555 1_555
C5_2 O3_2 1_555 1_555
H1_2 C3_2 1_555 1_555
H2_2 C4_2 1_555 1_555
O7_2 C5_2 1_555 1_555
O9_2 Sc1_2 1_555 1_555
C17_2 O9_2 1_555 1_555
O10_2 C17_2 1_555 1_555
C18_2 C17_2 1_555 1_555
C19_2 C18_2 1_555 1_555
H9_2 C19_2 1_555 1_555
C24_2 C18_2 1_555 1_555
H12_2 C24_2 1_555 1_555
Sc9_2 O10_2 1_555 1_555
O15_2 Sc1_2 1_555 1_555
O16_2 Sc1_2 1_555 1_555
O20_2 Sc1_2 1_555 1_555
H7_2 C15_2 1_555 1_555
H8_2 C16_2 1_555 1_555
C15_2 C16_2 1_555 1_555
O4_2 C8_2 1_555 1_555
C8_2 O5_2 1_555 1_555
C10_2 C9_2 1_555 1_555
H4_2 C10_2 1_555 1_555
H5_2 C11_2 1_555 1_555
Sc2_2 O4_2 1_555 1_555
O13_2 Sc2_2 1_555 1_555
O14_2 Sc2_2 1_555 1_555
O17_2 Sc2_2 1_555 1_555
O18_2 Sc2_2 1_555 1_555
O19_2 Sc2_2 1_555 1_555
C8_2 C9_2 1_555 1_555
C10_2 C11_2 1_555 1_555
C17_3 O9_3 1_555 1_555
O10_3 C17_3 1_555 1_555
C18_3 C17_3 1_555 1_555
C19_3 C18_3 1_555 1_555
C20_3 C19_3 1_555 1_555
H10_3 C20_3 1_555 1_555
O13_2 C21_3 1_555 1_555
C21_3 O12_3 1_555 1_555
O12_3 Sc7_2 1_555 1_555
C22_3 C20_3 1_555 1_555
C23_3 C22_3 1_555 1_555
C24_3 C18_3 1_555 1_555
H11_3 C23_3 1_555 1_555
H12_3 C24_3 1_555 1_555
Sc6_2 O10_3 1_555 1_555
C21_3 C22_3 1_555 1_555
C23_3 C24_3 1_555 1_555
Sc4_2 O1_3 1_555 1_555
O1_3 C1_3 1_555 1_555
C1_3 O2_3 1_555 1_555
O2_3 Sc6_2 1_555 1_555
C2_3 C1_3 1_555 1_555
C3_3 C2_3 1_555 1_555
C4_3 C3_3 1_555 1_555
O3_3 Sc4_2 1_555 1_555
C5_3 O3_3 1_555 1_555
C6_3 C5_3 1_555 1_555
C7_3 C6_3 1_555 1_555
H1_3 C3_3 1_555 1_555
H2_3 C4_3 1_555 1_555
H3_3 C7_3 1_555 1_555
O4_3 C8_3 1_555 1_555
C8_3 O5_3 1_555 1_555
O5_3 Sc5_2 1_555 1_555
C9_3 C4_3 1_555 1_555
C10_3 C9_3 1_555 1_555
C11_3 C2_3 1_555 1_555
H4_3 C10_3 1_555 1_555
H5_3 C11_3 1_555 1_555
O6_3 C12_3 1_555 1_555
C12_3 C13_3 1_555 1_555
C13_3 C14_3 1_555 1_555
C14_3 C7_3 1_555 1_555
H6_3 C14_3 1_555 1_555
O7_3 C5_3 1_555 1_555
C15_3 C6_3 1_555 1_555
H7_3 C15_3 1_555 1_555
O20_2 C12_3 1_555 1_555
C16_3 C13_3 1_555 1_555
H8_3 C16_3 1_555 1_555
Sc3_2 O4_3 1_555 1_555
Sc9_2 O6_3 1_555 1_555
Sc6_2 O7_3 1_555 1_555
O16_3 Sc4_2 1_555 1_555
O17_3 Sc3_2 1_555 1_555
O18_3 Sc3_2 1_555 1_555
C8_3 C9_3 1_555 1_555
C10_3 C11_3 1_555 1_555
C15_3 C16_3 1_555 1_555
H10_4 C20_4 1_555 1_555
O13 C21_4 1_555 1_555
C21_4 O12_4 1_555 1_555
O12_4 Sc7 1_555 1_555
C22_4 C20_4 1_555 1_555
C23_4 C22_4 1_555 1_555
H11_4 C23_4 1_555 1_555
C21_4 C22_4 1_555 1_555
C17_4 O9_4 1_555 1_555
O10_4 C17_4 1_555 1_555
C18_4 C17_4 1_555 1_555
C19_4 C18_4 1_555 1_555
C24_4 C18_4 1_555 1_555
H12_4 C24_4 1_555 1_555
Sc6 O10_4 1_555 1_555
C7_4 C6_4 1_555 1_555
H3_4 C7_4 1_555 1_555
O6_4 C12_4 1_555 1_555
C12_4 C13_4 1_555 1_555
C13_4 C14_4 1_555 1_555
C14_4 C7_4 1_555 1_555
H6_4 C14_4 1_555 1_555
C15_4 C6_4 1_555 1_555
H7_4 C15_4 1_555 1_555
O20 C12_4 1_555 1_555
C16_4 C13_4 1_555 1_555
H8_4 C16_4 1_555 1_555
Sc9 O6_4 1_555 1_555
C15_4 C16_4 1_555 1_555
Sc4 O1_4 1_555 1_555
O1_4 C1_4 1_555 1_555
C1_4 O2_4 1_555 1_555
O2_4 Sc6 1_555 1_555
C2_4 C1_4 1_555 1_555
C3_4 C2_4 1_555 1_555
C4_4 C3_4 1_555 1_555
O3_4 Sc4 1_555 1_555
C5_4 O3_4 1_555 1_555
H1_4 C3_4 1_555 1_555
H2_4 C4_4 1_555 1_555
O4_4 C8_4 1_555 1_555
C8_4 O5_4 1_555 1_555
O5_4 Sc5 1_555 1_555
C9_4 C4_4 1_555 1_555
C10_4 C9_4 1_555 1_555
C11_4 C2_4 1_555 1_555
H4_4 C10_4 1_555 1_555
H5_4 C11_4 1_555 1_555
O7_4 C5_4 1_555 1_555
Sc3 O4_4 1_555 1_555
Sc6 O7_4 1_555 1_555
O16_4 Sc4 1_555 1_555
O17_4 Sc3 1_555 1_555
O18_4 Sc3 1_555 1_555
C8_4 C9_4 1_555 1_555
C10_4 C11_4 1_555 1_555
H2_5 C4_5 1_555 1_555
Sc6 O1_5 1_555 1_555
O1_5 C1_5 1_555 1_555
C1_5 O15_4 1_555 1_555
C2_5 C1_5 1_555 1_555
C3_5 C2_5 1_555 1_555
H1_5 C3_5 1_555 1_555
O9_5 Sc6 1_555 1_555
C17_5 O9_5 1_555 1_555
O16_4 C17_5 1_555 1_555
C18_5 C17_5 1_555 1_555
C19_5 C18_5 1_555 1_555
C20_5 C19_5 1_555 1_555
H9_5 C19_5 1_555 1_555
H10_5 C20_5 1_555 1_555
O11_3 C21_5 1_555 1_555
C21_5 O17_2 1_555 1_555
C22_5 C20_5 1_555 1_555
C23_5 C22_5 1_555 1_555
C24_5 C18_5 1_555 1_555
H12_5 C24_5 1_555 1_555
C21_5 C22_5 1_555 1_555
C23_5 C24_5 1_555 1_555
O4_5 C8_5 1_555 1_555
C8_5 O14_3 1_555 1_555
C10_5 C9_5 1_555 1_555
H4_5 C10_5 1_555 1_555
Sc5_2 O4_5 1_555 1_555
O13_3 Sc5_2 1_555 1_555
O18_5 Sc5_2 1_555 1_555
O19_5 Sc5_2 1_555 1_555
C8_5 C9_5 1_555 1_555
H5_5 C11_5 1_555 1_555
Sc6_2 O1_6 1_555 1_555
O1_6 C1_6 1_555 1_555
C1_6 O15_3 1_555 1_555
C2_6 C1_6 1_555 1_555
C3_6 C2_6 1_555 1_555
H1_6 C3_6 1_555 1_555
O9_6 Sc6_2 1_555 1_555
C17_6 O9_6 1_555 1_555
O16_3 C17_6 1_555 1_555
C18_6 C17_6 1_555 1_555
C19_6 C18_6 1_555 1_555
H9_6 C19_6 1_555 1_555
C24_6 C18_6 1_555 1_555
H12_6 C24_6 1_555 1_555
H2_6 C4_6 1_555 1_555
H10_6 C20_6 1_555 1_555
O11_4 C21_6 1_555 1_555
C21_6 O17 1_555 1_555
C22_6 C20_6 1_555 1_555
C23_6 C22_6 1_555 1_555
C21_6 C22_6 1_555 1_555
H5_6 C11_6 1_555 1_555
O4_6 C8_6 1_555 1_555
C8_6 O14_4 1_555 1_555
C10_6 C9_6 1_555 1_555
H4_6 C10_6 1_555 1_555
Sc5 O4_6 1_555 1_555
O13_4 Sc5 1_555 1_555
O18_6 Sc5 1_555 1_555
O19_6 Sc5 1_555 1_555
C8_6 C9_6 1_555 1_555
C17_7 O9_7 1_555 1_555
O16_2 C17_7 1_555 1_555
C18_7 C17_7 1_555 1_555
C19_7 C18_7 1_555 1_555
C24_7 C18_7 1_555 1_555
H12_7 C24_7 1_555 1_555
H10_7 C20_7 1_555 1_555
O13_4 C21_7 1_555 1_555
C21_7 O17_4 1_555 1_555
C22_7 C20_7 1_555 1_555
C23_7 C22_7 1_555 1_555
H11_7 C23_7 1_555 1_555
C21_7 C22_7 1_555 1_555
H2_7 C4_7 1_555 1_555
O4_7 C8_7 1_555 1_555
C8_7 O14 1_555 1_555
C9_7 C4_7 1_555 1_555
C10_7 C9_7 1_555 1_555
H4_7 C10_7 1_555 1_555
Sc7 O4_7 1_555 1_555
O18_7 Sc7 1_555 1_555
C8_7 C9_7 1_555 1_555
Sc9_2 O1_7 1_555 1_555
O1_7 C1_7 1_555 1_555
C1_7 O15_2 1_555 1_555
C2_7 C1_7 1_555 1_555
C3_7 C2_7 1_555 1_555
H1_7 C3_7 1_555 1_555
C11_7 C2_7 1_555 1_555
H5_7 C11_7 1_555 1_555
C17_8 O9_8 1_555 1_555
O16 C17_8 1_555 1_555
C18_8 C17_8 1_555 1_555
C19_8 C18_8 1_555 1_555
C20_8 C19_8 1_555 1_555
H10_8 C20_8 1_555 1_555
O13_3 C21_8 1_555 1_555
C21_8 O17_3 1_555 1_555
C22_8 C20_8 1_555 1_555
C23_8 C22_8 1_555 1_555
C24_8 C18_8 1_555 1_555
H11_8 C23_8 1_555 1_555
H12_8 C24_8 1_555 1_555
C21_8 C22_8 1_555 1_555
C23_8 C24_8 1_555 1_555
Sc9 O1_8 1_555 1_555
O1_8 C1_8 1_555 1_555
C1_8 O15 1_555 1_555
C2_8 C1_8 1_555 1_555
C3_8 C2_8 1_555 1_555
C4_8 C3_8 1_555 1_555
H1_8 C3_8 1_555 1_555
H2_8 C4_8 1_555 1_555
O4_8 C8_8 1_555 1_555
C8_8 O14_2 1_555 1_555
C9_8 C4_8 1_555 1_555
C10_8 C9_8 1_555 1_555
C11_8 C2_8 1_555 1_555
H4_8 C10_8 1_555 1_555
H5_8 C11_8 1_555 1_555
Sc7_2 O4_8 1_555 1_555
O18_8 Sc7_2 1_555 1_555
C8_8 C9_8 1_555 1_555
C10_8 C11_8 1_555 1_555
H7_5 C15_5 1_555 1_555
H8_5 C16_5 1_555 1_555
C15_5 C16_5 1_555 1_555
C5_5 O18_2 1_555 1_555
C6_5 C5_5 1_555 1_555
C7_5 C6_5 1_555 1_555
H3_5 C7_5 1_555 1_555
O18_5 C12_5 1_555 1_555
C12_5 C13_5 1_555 1_555
C13_5 C14_5 1_555 1_555
C14_5 C7_5 1_555 1_555
H6_5 C14_5 1_555 1_555
O19_8 C5_5 1_555 1_555
O19_3 C12_5 1_555 1_555
H7_6 C15_6 1_555 1_555
H8_6 C16_6 1_555 1_555
C15_6 C16_6 1_555 1_555
C5_6 O18 1_555 1_555
O19_7 C5_6 1_555 1_555
C7_6 C6_6 1_555 1_555
H3_6 C7_6 1_555 1_555
O18_6 C12_6 1_555 1_555
C12_6 C13_6 1_555 1_555
C13_6 C14_6 1_555 1_555
C14_6 C7_6 1_555 1_555
H6_6 C14_6 1_555 1_555
O19_4 C12_6 1_555 1_555
C5_7 O18_4 1_555 1_555
C6_7 C5_7 1_555 1_555
C7_7 C6_7 1_555 1_555
H3_7 C7_7 1_555 1_555
O18_7 C12_7 1_555 1_555
C12_7 C13_7 1_555 1_555
C13_7 C14_7 1_555 1_555
C14_7 C7_7 1_555 1_555
H6_7 C14_7 1_555 1_555
O19_6 C5_7 1_555 1_555
C15_7 C6_7 1_555 1_555
H7_7 C15_7 1_555 1_555
O19 C12_7 1_555 1_555
C16_7 C13_7 1_555 1_555
H8_7 C16_7 1_555 1_555
C15_7 C16_7 1_555 1_555
C5_8 O18_3 1_555 1_555
O19_5 C5_8 1_555 1_555
C7_8 C6_8 1_555 1_555
H3_8 C7_8 1_555 1_555
O18_8 C12_8 1_555 1_555
C12_8 C13_8 1_555 1_555
C13_8 C14_8 1_555 1_555
C14_8 C7_8 1_555 1_555
H6_8 C14_8 1_555 1_555
C15_8 C6_8 1_555 1_555
H7_8 C15_8 1_555 1_555
O19_2 C12_8 1_555 1_555
C16_8 C13_8 1_555 1_555
H8_8 C16_8 1_555 1_555
C15_8 C16_8 1_555 1_555

#END
