
###############################################################################
#
# This file contains modified crystal structure data generated from the
# MOF subset of the Cambridge Structural Database (CSD) v543 
# hosted by the Cambridge Crystallographic Data Centre (CCDC).
#
# This work is licensed under the Creative Commons
# Attribution-NonCommercial-ShareAlike 4.0 International License.
# To view a copy of this license, visit
# http://creativecommons.org/licenses/by-nc-sa/4.0/
# or send a letter to
# Creative Commons, PO Box 1866, Mountain View, CA 94042, USA.
#
# CIF created using the CSD Python API on 29 September 2022
# The structure has been converted into the P1 space group
# The structure has a 3D framework
# The original CSD entry HOKGUJ is in the tetragonal crystal system
# The framework has been calculated to contain at least 10.0% void space
# The void calculation uses a probe of radius 1.32A, grid spacing 0.4
# The framework is charged, counterions have been retained in the structure
#
###############################################################################

data_HOKGUJ
_chemical_formula_moiety         '(C76 H92 Co16 N44 O92)n'
_symmetry_cell_setting           triclinic
_symmetry_space_group_name_H-M   'P 1'
_symmetry_Int_Tables_number      1
_space_group_name_Hall           'P 1'
loop_
_symmetry_equiv_pos_site_id
_symmetry_equiv_pos_as_xyz
1 x,y,z
_cell_length_a                   16.444(3)
_cell_length_b                   16.444(3)
_cell_length_c                   14.178(5)
_cell_angle_alpha                90
_cell_angle_beta                 90
_cell_angle_gamma                90
_cell_volume                     3833.8
loop_
_atom_site_label
_atom_site_type_symbol
_atom_site_fract_x
_atom_site_fract_y
_atom_site_fract_z
Co1 Co 0.6695(1) 0.3463(1) 0.6073(1)
O1 O 0.7466(9) 0.3166(8) 0.5000
O2 O 0.5785(7) 0.3746(6) 0.2955(6)
O3 O 0.6773(8) 0.5843(7) 0.5000
C1 C 0.677(1) 0.505(1) 0.5000
O4 O 0.6765(7) 0.4684(5) 0.4212(6)
N1 N 0.6737(6) 0.2227(6) 0.3332(7)
C2 C 0.6290(8) 0.1577(9) 0.359(1)
C3 C 0.636(1) 0.087(1) 0.308(1)
C4 C 0.6940(9) 0.081(1) 0.242(1)
N2 N 0.7397(6) 0.1450(6) 0.2173(6)
C5 C 0.7734(7) 0.2859(8) 0.2353(8)
H1 H 0.5351(7) 0.3375(6) 0.3178(6)
H2 H 0.897(1) 0.458(1) 0.175(1)
H3 H 0.7619(9) 0.2675(8) 0.5000
H4 H 0.7980(9) 0.470(1) 0.291(1)
H5 H 0.5730(7) 0.3632(6) 0.2252(6)
H6 H 0.9103(8) 0.3369(9) 0.091(1)
Co2 Co 0.6537(1) 0.6695(1) 0.3927(1)
O5 O 0.5843(7) 0.3227(8) 0.5000
Co3 Co 0.6537(1) 0.6695(1) 0.6073(1)
Co4 Co 0.6695(1) 0.3463(1) 0.3927(1)
O6 O 0.6765(7) 0.4684(5) 0.5788(6)
O7 O 0.5785(7) 0.3746(6) 0.7045(6)
H7 H 0.5351(7) 0.3375(6) 0.6822(6)
H8 H 0.5730(7) 0.3632(6) 0.7748(6)
N3 N 0.6737(6) 0.2227(6) 0.6668(7)
N4 N 0.7603(6) 0.3550(6) 0.7173(6)
Co5 Co 0.8305(1) 0.1537(1) 0.1073(1)
N5 N 0.8263(6) 0.2773(6) 0.1668(7)
C6 C 0.8710(8) 0.3423(9) 0.141(1)
C7 C 0.864(1) 0.413(1) 0.192(1)
C8 C 0.8060(9) 0.419(1) 0.258(1)
N6 N 0.7603(6) 0.3550(6) 0.2827(6)
C9 C 0.7266(7) 0.2141(8) 0.2647(8)
H9 H 0.7020(9) 0.030(1) 0.209(1)
H10 H 0.603(1) 0.042(1) 0.325(1)
H11 H 0.5897(8) 0.1631(9) 0.409(1)
O1_2 O 0.6834(8) 0.7466(9) 0.5000
O2_2 O 0.6254(6) 0.5785(7) 0.2955(6)
O3_2 O 0.4157(7) 0.6773(8) 0.5000
C1_2 C 0.495(1) 0.677(1) 0.5000
O4_2 O 0.5316(5) 0.6765(7) 0.4212(6)
N1_2 N 0.7773(6) 0.6737(6) 0.3332(7)
C2_2 C 0.8423(9) 0.6290(8) 0.359(1)
C3_2 C 0.913(1) 0.636(1) 0.308(1)
C4_2 C 0.919(1) 0.6940(9) 0.242(1)
N2_2 N 0.8550(6) 0.7397(6) 0.2173(6)
C5_2 C 0.7141(8) 0.7734(7) 0.2353(8)
H1_2 H 0.6625(6) 0.5351(7) 0.3178(6)
H2_2 H 0.542(1) 0.897(1) 0.175(1)
H3_2 H 0.7325(8) 0.7619(9) 0.5000
H4_2 H 0.530(1) 0.7980(9) 0.291(1)
H5_2 H 0.6368(6) 0.5730(7) 0.2252(6)
H6_2 H 0.6631(9) 0.9103(8) 0.091(1)
Co2_2 Co 0.3305(1) 0.6537(1) 0.3927(1)
Co3_2 Co 0.3305(1) 0.6537(1) 0.6073(1)
O6_2 O 0.5316(5) 0.6765(7) 0.5788(6)
O7_2 O 0.6254(6) 0.5785(7) 0.7045(6)
H7_2 H 0.6625(6) 0.5351(7) 0.6822(6)
H8_2 H 0.6368(6) 0.5730(7) 0.7748(6)
N3_2 N 0.7773(6) 0.6737(6) 0.6668(7)
N4_2 N 0.6450(6) 0.7603(6) 0.7173(6)
Co5_2 Co 0.8463(1) 0.8305(1) 0.1073(1)
N5_2 N 0.7227(6) 0.8263(6) 0.1668(7)
C6_2 C 0.6577(9) 0.8710(8) 0.141(1)
C7_2 C 0.587(1) 0.864(1) 0.192(1)
C8_2 C 0.581(1) 0.8060(9) 0.258(1)
N6_2 N 0.6450(6) 0.7603(6) 0.2827(6)
C9_2 C 0.7859(8) 0.7266(7) 0.2647(8)
H9_2 H 0.970(1) 0.7020(9) 0.209(1)
H10_2 H 0.958(1) 0.603(1) 0.325(1)
H11_2 H 0.8369(9) 0.5897(8) 0.409(1)
Co1_2 Co 0.3463(1) 0.3305(1) 0.6073(1)
O1_3 O 0.3166(8) 0.2534(9) 0.5000
O2_3 O 0.3746(6) 0.4215(7) 0.2955(6)
C1_3 C 0.505(1) 0.323(1) 0.5000
O4_3 O 0.4684(5) 0.3235(7) 0.4212(6)
N1_3 N 0.2227(6) 0.3263(6) 0.3332(7)
C2_3 C 0.1577(9) 0.3710(8) 0.359(1)
C3_3 C 0.087(1) 0.364(1) 0.308(1)
C4_3 C 0.081(1) 0.3060(9) 0.242(1)
N2_3 N 0.1450(6) 0.2603(6) 0.2173(6)
C5_3 C 0.2859(8) 0.2266(7) 0.2353(8)
H1_3 H 0.3375(6) 0.4649(7) 0.3178(6)
H2_3 H 0.458(1) 0.103(1) 0.175(1)
H3_3 H 0.2675(8) 0.2381(9) 0.5000
H4_3 H 0.470(1) 0.2020(9) 0.291(1)
H5_3 H 0.3632(6) 0.4270(7) 0.2252(6)
H6_3 H 0.3369(9) 0.0897(8) 0.091(1)
O5_2 O 0.3227(8) 0.4157(7) 0.5000
Co4_2 Co 0.3463(1) 0.3305(1) 0.3927(1)
O6_3 O 0.4684(5) 0.3235(7) 0.5788(6)
O7_3 O 0.3746(6) 0.4215(7) 0.7045(6)
H7_3 H 0.3375(6) 0.4649(7) 0.6822(6)
H8_3 H 0.3632(6) 0.4270(7) 0.7748(6)
N3_3 N 0.2227(6) 0.3263(6) 0.6668(7)
N4_3 N 0.3550(6) 0.2397(6) 0.7173(6)
Co5_3 Co 0.1537(1) 0.1695(1) 0.1073(1)
N5_3 N 0.2773(6) 0.1737(6) 0.1668(7)
C6_3 C 0.3423(9) 0.1290(8) 0.141(1)
C7_3 C 0.413(1) 0.136(1) 0.192(1)
C8_3 C 0.419(1) 0.1940(9) 0.258(1)
N6_3 N 0.3550(6) 0.2397(6) 0.2827(6)
C9_3 C 0.2141(8) 0.2734(7) 0.2647(8)
H9_3 H 0.030(1) 0.2980(9) 0.209(1)
H10_3 H 0.042(1) 0.397(1) 0.325(1)
H11_3 H 0.1631(9) 0.4103(8) 0.409(1)
C2_4 C 0.6290(8) 0.1577(9) 0.641(1)
C3_4 C 0.636(1) 0.087(1) 0.692(1)
C4_4 C 0.6940(9) 0.081(1) 0.758(1)
N2_4 N 0.7397(6) 0.1450(6) 0.7827(6)
C5_4 C 0.7734(7) 0.2859(8) 0.7647(8)
H2_4 H 0.897(1) 0.458(1) 0.825(1)
H4_4 H 0.7980(9) 0.470(1) 0.709(1)
H6_4 H 0.9103(8) 0.3369(9) 0.909(1)
Co5_4 Co 0.8305(1) 0.1537(1) 0.8927(1)
N5_4 N 0.8263(6) 0.2773(6) 0.8332(7)
C6_4 C 0.8710(8) 0.3423(9) 0.859(1)
C7_4 C 0.864(1) 0.413(1) 0.808(1)
C8_4 C 0.8060(9) 0.419(1) 0.742(1)
C9_4 C 0.7266(7) 0.2141(8) 0.7353(8)
H9_4 H 0.7020(9) 0.030(1) 0.791(1)
H10_4 H 0.603(1) 0.042(1) 0.675(1)
H11_4 H 0.5897(8) 0.1631(9) 0.591(1)
O3_3 O 0.1773(8) 0.0843(7) 0.0000
C1_4 C 0.177(1) 0.005(1) 0.0000
O3_4 O 0.1773(8) 0.0843(7) 1.0000
C1_5 C 0.177(1) 0.005(1) 1.0000
Co2_3 Co 0.1537(1) 0.1695(1) 0.8927(1)
Co1_3 Co 0.1695(1) 0.8463(1) 0.1073(1)
O1_4 O 0.2466(9) 0.8166(8) 0.0000
H3_4 H 0.2619(9) 0.7675(8) 0.0000
O5_3 O 0.0843(7) 0.8227(8) 0.0000
O6_4 O 0.1765(7) 0.9684(5) 0.0788(6)
O7_4 O 0.0785(7) 0.8746(6) 0.2045(6)
H7_4 H 0.0351(7) 0.8375(6) 0.1822(6)
H8_4 H 0.0730(7) 0.8632(6) 0.2748(6)
N3_4 N 0.1737(6) 0.7227(6) 0.1668(7)
N4_4 N 0.2603(6) 0.8550(6) 0.2173(6)
O1_5 O 0.2466(9) 0.8166(8) 1.0000
O2_4 O 0.0785(7) 0.8746(6) 0.7955(6)
O4_4 O 0.1765(7) 0.9684(5) 0.9212(6)
N1_4 N 0.1737(6) 0.7227(6) 0.8332(7)
C2_5 C 0.1290(8) 0.6577(9) 0.859(1)
C3_5 C 0.136(1) 0.587(1) 0.808(1)
C4_5 C 0.1940(9) 0.581(1) 0.742(1)
N2_5 N 0.2397(6) 0.6450(6) 0.7173(6)
C5_5 C 0.2734(7) 0.7859(8) 0.7353(8)
H1_4 H 0.0351(7) 0.8375(6) 0.8178(6)
H2_5 H 0.397(1) 0.958(1) 0.675(1)
H3_5 H 0.2619(9) 0.7675(8) 1.0000
H4_5 H 0.2980(9) 0.970(1) 0.791(1)
H5_4 H 0.0730(7) 0.8632(6) 0.7252(6)
H6_5 H 0.4103(8) 0.8369(9) 0.591(1)
O5_4 O 0.0843(7) 0.8227(8) 1.0000
Co4_3 Co 0.1695(1) 0.8463(1) 0.8927(1)
N5_5 N 0.3263(6) 0.7773(6) 0.6668(7)
C6_5 C 0.3710(8) 0.8423(9) 0.641(1)
C7_5 C 0.364(1) 0.913(1) 0.692(1)
C8_5 C 0.3060(9) 0.919(1) 0.758(1)
N6_4 N 0.2603(6) 0.8550(6) 0.7827(6)
C9_5 C 0.2266(7) 0.7141(8) 0.7647(8)
H9_5 H 0.2020(9) 0.530(1) 0.709(1)
H10_5 H 0.103(1) 0.542(1) 0.825(1)
H11_5 H 0.0897(8) 0.6631(9) 0.909(1)
O1_6 O 0.1834(8) 0.2466(9) 0.0000
H3_6 H 0.2325(8) 0.2619(9) 0.0000
O6_5 O 0.0316(5) 0.1765(7) 0.0788(6)
O7_5 O 0.1254(6) 0.0785(7) 0.2045(6)
H7_5 H 0.1625(6) 0.0351(7) 0.1822(6)
H8_5 H 0.1368(6) 0.0730(7) 0.2748(6)
O1_7 O 0.1834(8) 0.2466(9) 1.0000
O2_5 O 0.1254(6) 0.0785(7) 0.7955(6)
O4_5 O 0.0316(5) 0.1765(7) 0.9212(6)
N1_5 N 0.2773(6) 0.1737(6) 0.8332(7)
C2_6 C 0.3423(9) 0.1290(8) 0.859(1)
C3_6 C 0.413(1) 0.136(1) 0.808(1)
C4_6 C 0.419(1) 0.1940(9) 0.742(1)
C5_6 C 0.2141(8) 0.2734(7) 0.7353(8)
H1_5 H 0.1625(6) 0.0351(7) 0.8178(6)
H2_6 H 0.042(1) 0.397(1) 0.675(1)
H3_7 H 0.2325(8) 0.2619(9) 1.0000
H4_6 H 0.030(1) 0.2980(9) 0.791(1)
H5_5 H 0.1368(6) 0.0730(7) 0.7252(6)
H6_6 H 0.1631(9) 0.4103(8) 0.591(1)
C6_6 C 0.1577(9) 0.3710(8) 0.641(1)
C7_6 C 0.087(1) 0.364(1) 0.692(1)
C8_6 C 0.081(1) 0.3060(9) 0.758(1)
N6_5 N 0.1450(6) 0.2603(6) 0.7827(6)
C9_6 C 0.2859(8) 0.2266(7) 0.7647(8)
H9_6 H 0.470(1) 0.2020(9) 0.709(1)
H10_6 H 0.458(1) 0.103(1) 0.825(1)
H11_6 H 0.3369(9) 0.0897(8) 0.909(1)
O3_5 O 0.9157(7) 0.1773(8) 0.0000
C1_6 C 0.995(1) 0.177(1) 0.0000
O3_6 O 0.9157(7) 0.1773(8) 1.0000
C1_7 C 0.995(1) 0.177(1) 1.0000
C1_8 C 0.005(1) 0.823(1) 0.0000
C1_9 C 0.005(1) 0.823(1) 1.0000
O1_8 O 0.8166(8) 0.7534(9) 0.0000
H3_8 H 0.7675(8) 0.7381(9) 0.0000
O5_5 O 0.8227(8) 0.9157(7) 0.0000
O6_6 O 0.9684(5) 0.8235(7) 0.0788(6)
O7_6 O 0.8746(6) 0.9215(7) 0.2045(6)
H7_6 H 0.8375(6) 0.9649(7) 0.1822(6)
H8_6 H 0.8632(6) 0.9270(7) 0.2748(6)
O1_9 O 0.8166(8) 0.7534(9) 1.0000
O2_6 O 0.8746(6) 0.9215(7) 0.7955(6)
O4_6 O 0.9684(5) 0.8235(7) 0.9212(6)
N1_6 N 0.7227(6) 0.8263(6) 0.8332(7)
C2_7 C 0.6577(9) 0.8710(8) 0.859(1)
C3_7 C 0.587(1) 0.864(1) 0.808(1)
C4_7 C 0.581(1) 0.8060(9) 0.742(1)
C5_7 C 0.7859(8) 0.7266(7) 0.7353(8)
H1_6 H 0.8375(6) 0.9649(7) 0.8178(6)
H2_7 H 0.958(1) 0.603(1) 0.675(1)
H3_9 H 0.7675(8) 0.7381(9) 1.0000
H4_7 H 0.970(1) 0.7020(9) 0.791(1)
H5_6 H 0.8632(6) 0.9270(7) 0.7252(6)
H6_7 H 0.8369(9) 0.5897(8) 0.591(1)
O5_6 O 0.8227(8) 0.9157(7) 1.0000
Co4_4 Co 0.8463(1) 0.8305(1) 0.8927(1)
C6_7 C 0.8423(9) 0.6290(8) 0.641(1)
C7_7 C 0.913(1) 0.636(1) 0.692(1)
C8_7 C 0.919(1) 0.6940(9) 0.758(1)
N6_6 N 0.8550(6) 0.7397(6) 0.7827(6)
C9_7 C 0.7141(8) 0.7734(7) 0.7647(8)
H9_7 H 0.530(1) 0.7980(9) 0.709(1)
H10_7 H 0.542(1) 0.897(1) 0.825(1)
H11_7 H 0.6631(9) 0.9103(8) 0.909(1)
C2_8 C 0.1290(8) 0.6577(9) 0.141(1)
C3_8 C 0.136(1) 0.587(1) 0.192(1)
C4_8 C 0.1940(9) 0.581(1) 0.258(1)
N2_6 N 0.2397(6) 0.6450(6) 0.2827(6)
C5_8 C 0.2734(7) 0.7859(8) 0.2647(8)
H2_8 H 0.397(1) 0.958(1) 0.325(1)
H4_8 H 0.2980(9) 0.970(1) 0.209(1)
H6_8 H 0.4103(8) 0.8369(9) 0.409(1)
N5_6 N 0.3263(6) 0.7773(6) 0.3332(7)
C6_8 C 0.3710(8) 0.8423(9) 0.359(1)
C7_8 C 0.364(1) 0.913(1) 0.308(1)
C8_8 C 0.3060(9) 0.919(1) 0.242(1)
C9_8 C 0.2266(7) 0.7141(8) 0.2353(8)
H9_8 H 0.2020(9) 0.530(1) 0.291(1)
H10_8 H 0.103(1) 0.542(1) 0.175(1)
H11_8 H 0.0897(8) 0.6631(9) 0.091(1)
O1_10 O 0.2534(9) 0.6834(8) 0.5000
O2_7 O 0.4215(7) 0.6254(6) 0.7045(6)
C1_10 C 0.323(1) 0.495(1) 0.5000
O4_7 O 0.3235(7) 0.5316(5) 0.5788(6)
H1_7 H 0.4649(7) 0.6625(6) 0.6822(6)
H3_10 H 0.2381(9) 0.7325(8) 0.5000
H5_7 H 0.4270(7) 0.6368(6) 0.7748(6)
O6_7 O 0.3235(7) 0.5316(5) 0.4212(6)
O7_7 O 0.4215(7) 0.6254(6) 0.2955(6)
H7_7 H 0.4649(7) 0.6625(6) 0.3178(6)
H8_7 H 0.4270(7) 0.6368(6) 0.2252(6)
O1_11 O 0.7534(9) 0.1834(8) 0.0000
O2_8 O 0.9215(7) 0.1254(6) 0.2045(6)
O4_8 O 0.8235(7) 0.0316(5) 0.0788(6)
H1_8 H 0.9649(7) 0.1625(6) 0.1822(6)
H3_11 H 0.7381(9) 0.2325(8) 0.0000
H5_8 H 0.9270(7) 0.1368(6) 0.2748(6)
O1_12 O 0.7534(9) 0.1834(8) 1.0000
H3_12 H 0.7381(9) 0.2325(8) 1.0000
O6_8 O 0.8235(7) 0.0316(5) 0.9212(6)
O7_8 O 0.9215(7) 0.1254(6) 0.7955(6)
H7_8 H 0.9649(7) 0.1625(6) 0.8178(6)
H8_8 H 0.9270(7) 0.1368(6) 0.7252(6)
C1_11 C 0.823(1) 0.995(1) 0.0000
C1_12 C 0.823(1) 0.995(1) 1.0000
N7 N 0.547(3) 0.899(3) 0.5000
O8 O 0.520(2) 0.828(2) 0.5000
O9 O 0.497(2) 0.959(2) 0.5000
O10 O 0.628(2) 0.920(2) 0.5000
N7_2 N 0.101(3) 0.547(3) 0.5000
O8_2 O 0.172(2) 0.520(2) 0.5000
O9_2 O 0.041(2) 0.497(2) 0.5000
O10_2 O 0.080(2) 0.628(2) 0.5000
N7_3 N 0.899(3) 0.453(3) 0.5000
O8_3 O 0.828(2) 0.480(2) 0.5000
O9_3 O 0.959(2) 0.503(2) 0.5000
O10_3 O 0.920(2) 0.372(2) 0.5000
N7_4 N 0.047(3) 0.399(3) 0.0000
O8_4 O 0.020(2) 0.328(2) 0.0000
O10_4 O 0.128(2) 0.420(2) 0.0000
N7_5 N 0.047(3) 0.399(3) 1.0000
O8_5 O 0.020(2) 0.328(2) 1.0000
O10_5 O 0.128(2) 0.420(2) 1.0000
O9_4 O 0.997(2) 0.459(2) 0.0000
O9_5 O 0.997(2) 0.459(2) 1.0000
N7_6 N 0.601(3) 0.047(3) 0.0000
O8_6 O 0.672(2) 0.020(2) 0.0000
O10_6 O 0.580(2) 0.128(2) 0.0000
N7_7 N 0.601(3) 0.047(3) 1.0000
O8_7 O 0.672(2) 0.020(2) 1.0000
O10_7 O 0.580(2) 0.128(2) 1.0000
O9_6 O 0.541(2) 0.997(2) 0.0000
O9_7 O 0.541(2) 0.997(2) 1.0000
O9_8 O 0.459(2) 0.003(2) 0.0000
O9_9 O 0.459(2) 0.003(2) 1.0000
N7_8 N 0.399(3) 0.953(3) 0.0000
O8_8 O 0.328(2) 0.980(2) 0.0000
O10_8 O 0.420(2) 0.872(2) 0.0000
N7_9 N 0.399(3) 0.953(3) 1.0000
O8_9 O 0.328(2) 0.980(2) 1.0000
O10_9 O 0.420(2) 0.872(2) 1.0000
N7_10 N 0.453(3) 0.101(3) 0.5000
O8_10 O 0.480(2) 0.172(2) 0.5000
O9_10 O 0.503(2) 0.041(2) 0.5000
O10_10 O 0.372(2) 0.080(2) 0.5000
O9_11 O 0.003(2) 0.541(2) 0.0000
O9_12 O 0.003(2) 0.541(2) 1.0000
N7_11 N 0.953(3) 0.601(3) 0.0000
O8_11 O 0.980(2) 0.672(2) 0.0000
O10_11 O 0.872(2) 0.580(2) 0.0000
N7_12 N 0.953(3) 0.601(3) 1.0000
O8_12 O 0.980(2) 0.672(2) 1.0000
O10_12 O 0.872(2) 0.580(2) 1.0000
loop_
_geom_bond_atom_site_label_1
_geom_bond_atom_site_label_2
_geom_bond_site_symmetry_1
_geom_bond_site_symmetry_2
Co1 O1 1_555 1_555
O1 H3 1_555 1_555
O2 H1 1_555 1_555
O3 C1 1_555 1_555
C1 O4 1_555 1_555
O4 Co4 1_555 1_555
N1 C2 1_555 1_555
C2 C3 1_555 1_555
C3 C4 1_555 1_555
C4 N2 1_555 1_555
N2 Co5 1_555 1_555
C5 N5 1_555 1_555
H2 C7 1_555 1_555
H4 C8 1_555 1_555
H5 O2 1_555 1_555
H6 C6 1_555 1_555
Co2 O3 1_555 1_555
O5 Co1 1_555 1_555
Co3 O3 1_555 1_555
Co4 O1 1_555 1_555
O6 Co1 1_555 1_555
O7 Co1 1_555 1_555
H7 O7 1_555 1_555
H8 O7 1_555 1_555
N3 Co1 1_555 1_555
N4 Co1 1_555 1_555
Co5 N5 1_555 1_555
N5 C6 1_555 1_555
C6 C7 1_555 1_555
C7 C8 1_555 1_555
C8 N6 1_555 1_555
N6 C5 1_555 1_555
C9 N1 1_555 1_555
H9 C4 1_555 1_555
H10 C3 1_555 1_555
H11 C2 1_555 1_555
O2 Co4 1_555 1_555
C1 O6 1_555 1_555
N1 Co4 1_555 1_555
N2 C9 1_555 1_555
C5 C9 1_555 1_555
O5 Co4 1_555 1_555
Co4 N6 1_555 1_555
Co3 O1_2 1_555 1_555
O1_2 H3_2 1_555 1_555
O2_2 H1_2 1_555 1_555
O3_2 C1_2 1_555 1_555
C1_2 O4_2 1_555 1_555
O4_2 Co2 1_555 1_555
N1_2 C2_2 1_555 1_555
C2_2 C3_2 1_555 1_555
C3_2 C4_2 1_555 1_555
C4_2 N2_2 1_555 1_555
N2_2 Co5_2 1_555 1_555
C5_2 N5_2 1_555 1_555
H2_2 C7_2 1_555 1_555
H4_2 C8_2 1_555 1_555
H5_2 O2_2 1_555 1_555
H6_2 C6_2 1_555 1_555
Co2_2 O3_2 1_555 1_555
Co3_2 O3_2 1_555 1_555
Co2 O1_2 1_555 1_555
O6_2 Co3 1_555 1_555
O7_2 Co3 1_555 1_555
H7_2 O7_2 1_555 1_555
H8_2 O7_2 1_555 1_555
N3_2 Co3 1_555 1_555
N4_2 Co3 1_555 1_555
Co5_2 N5_2 1_555 1_555
N5_2 C6_2 1_555 1_555
C6_2 C7_2 1_555 1_555
C7_2 C8_2 1_555 1_555
C8_2 N6_2 1_555 1_555
N6_2 C5_2 1_555 1_555
C9_2 N1_2 1_555 1_555
H9_2 C4_2 1_555 1_555
H10_2 C3_2 1_555 1_555
H11_2 C2_2 1_555 1_555
O2_2 Co2 1_555 1_555
C1_2 O6_2 1_555 1_555
N1_2 Co2 1_555 1_555
N2_2 C9_2 1_555 1_555
C5_2 C9_2 1_555 1_555
Co2 N6_2 1_555 1_555
Co1_2 O1_3 1_555 1_555
O1_3 H3_3 1_555 1_555
O2_3 H1_3 1_555 1_555
O5 C1_3 1_555 1_555
C1_3 O4_3 1_555 1_555
O4_3 Co4_2 1_555 1_555
N1_3 C2_3 1_555 1_555
C2_3 C3_3 1_555 1_555
C3_3 C4_3 1_555 1_555
C4_3 N2_3 1_555 1_555
N2_3 Co5_3 1_555 1_555
C5_3 N5_3 1_555 1_555
H2_3 C7_3 1_555 1_555
H4_3 C8_3 1_555 1_555
H5_3 O2_3 1_555 1_555
H6_3 C6_3 1_555 1_555
O5_2 Co1_2 1_555 1_555
Co4_2 O1_3 1_555 1_555
O6_3 Co1_2 1_555 1_555
O7_3 Co1_2 1_555 1_555
H7_3 O7_3 1_555 1_555
H8_3 O7_3 1_555 1_555
N3_3 Co1_2 1_555 1_555
N4_3 Co1_2 1_555 1_555
Co5_3 N5_3 1_555 1_555
N5_3 C6_3 1_555 1_555
C6_3 C7_3 1_555 1_555
C7_3 C8_3 1_555 1_555
C8_3 N6_3 1_555 1_555
N6_3 C5_3 1_555 1_555
C9_3 N1_3 1_555 1_555
H9_3 C4_3 1_555 1_555
H10_3 C3_3 1_555 1_555
H11_3 C2_3 1_555 1_555
O2_3 Co4_2 1_555 1_555
C1_3 O6_3 1_555 1_555
N1_3 Co4_2 1_555 1_555
N2_3 C9_3 1_555 1_555
C5_3 C9_3 1_555 1_555
O5_2 Co4_2 1_555 1_555
Co4_2 N6_3 1_555 1_555
N3 C2_4 1_555 1_555
C2_4 C3_4 1_555 1_555
C3_4 C4_4 1_555 1_555
C4_4 N2_4 1_555 1_555
N2_4 Co5_4 1_555 1_555
C5_4 N5_4 1_555 1_555
H2_4 C7_4 1_555 1_555
H4_4 C8_4 1_555 1_555
H6_4 C6_4 1_555 1_555
Co5_4 N5_4 1_555 1_555
N5_4 C6_4 1_555 1_555
C6_4 C7_4 1_555 1_555
C7_4 C8_4 1_555 1_555
C8_4 N4 1_555 1_555
N4 C5_4 1_555 1_555
C9_4 N3 1_555 1_555
H9_4 C4_4 1_555 1_555
H10_4 C3_4 1_555 1_555
H11_4 C2_4 1_555 1_555
N2_4 C9_4 1_555 1_555
C5_4 C9_4 1_555 1_555
O3_3 C1_4 1_555 1_555
Co5_3 O3_3 1_555 1_555
O3_4 C1_5 1_555 1_555
Co2_3 O3_4 1_555 1_555
Co1_3 O1_4 1_555 1_555
O1_4 H3_4 1_555 1_555
O5_3 Co1_3 1_555 1_555
O6_4 Co1_3 1_555 1_555
O7_4 Co1_3 1_555 1_555
H7_4 O7_4 1_555 1_555
H8_4 O7_4 1_555 1_555
N3_4 Co1_3 1_555 1_555
N4_4 Co1_3 1_555 1_555
O1_5 H3_5 1_555 1_555
O2_4 H1_4 1_555 1_555
O4_4 Co4_3 1_555 1_555
N1_4 C2_5 1_555 1_555
C2_5 C3_5 1_555 1_555
C3_5 C4_5 1_555 1_555
C4_5 N2_5 1_555 1_555
N2_5 Co3_2 1_555 1_555
C5_5 N5_5 1_555 1_555
H2_5 C7_5 1_555 1_555
H4_5 C8_5 1_555 1_555
H5_4 O2_4 1_555 1_555
H6_5 C6_5 1_555 1_555
Co4_3 O1_5 1_555 1_555
Co3_2 N5_5 1_555 1_555
N5_5 C6_5 1_555 1_555
C6_5 C7_5 1_555 1_555
C7_5 C8_5 1_555 1_555
C8_5 N6_4 1_555 1_555
N6_4 C5_5 1_555 1_555
C9_5 N1_4 1_555 1_555
H9_5 C4_5 1_555 1_555
H10_5 C3_5 1_555 1_555
H11_5 C2_5 1_555 1_555
O2_4 Co4_3 1_555 1_555
N1_4 Co4_3 1_555 1_555
N2_5 C9_5 1_555 1_555
C5_5 C9_5 1_555 1_555
O5_4 Co4_3 1_555 1_555
Co4_3 N6_4 1_555 1_555
Co5_3 O1_6 1_555 1_555
O1_6 H3_6 1_555 1_555
O6_5 Co5_3 1_555 1_555
O7_5 Co5_3 1_555 1_555
H7_5 O7_5 1_555 1_555
H8_5 O7_5 1_555 1_555
O1_7 H3_7 1_555 1_555
O2_5 H1_5 1_555 1_555
O4_5 Co2_3 1_555 1_555
N1_5 C2_6 1_555 1_555
C2_6 C3_6 1_555 1_555
C3_6 C4_6 1_555 1_555
C4_6 N4_3 1_555 1_555
C5_6 N3_3 1_555 1_555
H2_6 C7_6 1_555 1_555
H4_6 C8_6 1_555 1_555
H5_5 O2_5 1_555 1_555
H6_6 C6_6 1_555 1_555
Co2_3 O1_7 1_555 1_555
N3_3 C6_6 1_555 1_555
C6_6 C7_6 1_555 1_555
C7_6 C8_6 1_555 1_555
C8_6 N6_5 1_555 1_555
N6_5 C5_6 1_555 1_555
C9_6 N1_5 1_555 1_555
H9_6 C4_6 1_555 1_555
H10_6 C3_6 1_555 1_555
H11_6 C2_6 1_555 1_555
O2_5 Co2_3 1_555 1_555
N1_5 Co2_3 1_555 1_555
N4_3 C9_6 1_555 1_555
C5_6 C9_6 1_555 1_555
Co2_3 N6_5 1_555 1_555
O3_5 C1_6 1_555 1_555
Co5 O3_5 1_555 1_555
O3_6 C1_7 1_555 1_555
Co5_4 O3_6 1_555 1_555
O5_3 C1_8 1_555 1_555
O5_4 C1_9 1_555 1_555
Co5_2 O1_8 1_555 1_555
O1_8 H3_8 1_555 1_555
O5_5 Co5_2 1_555 1_555
O6_6 Co5_2 1_555 1_555
O7_6 Co5_2 1_555 1_555
H7_6 O7_6 1_555 1_555
H8_6 O7_6 1_555 1_555
O1_9 H3_9 1_555 1_555
O2_6 H1_6 1_555 1_555
O4_6 Co4_4 1_555 1_555
N1_6 C2_7 1_555 1_555
C2_7 C3_7 1_555 1_555
C3_7 C4_7 1_555 1_555
C4_7 N4_2 1_555 1_555
C5_7 N3_2 1_555 1_555
H2_7 C7_7 1_555 1_555
H4_7 C8_7 1_555 1_555
H5_6 O2_6 1_555 1_555
H6_7 C6_7 1_555 1_555
Co4_4 O1_9 1_555 1_555
N3_2 C6_7 1_555 1_555
C6_7 C7_7 1_555 1_555
C7_7 C8_7 1_555 1_555
C8_7 N6_6 1_555 1_555
N6_6 C5_7 1_555 1_555
C9_7 N1_6 1_555 1_555
H9_7 C4_7 1_555 1_555
H10_7 C3_7 1_555 1_555
H11_7 C2_7 1_555 1_555
O2_6 Co4_4 1_555 1_555
N1_6 Co4_4 1_555 1_555
N4_2 C9_7 1_555 1_555
C5_7 C9_7 1_555 1_555
O5_6 Co4_4 1_555 1_555
Co4_4 N6_6 1_555 1_555
N3_4 C2_8 1_555 1_555
C2_8 C3_8 1_555 1_555
C3_8 C4_8 1_555 1_555
C4_8 N2_6 1_555 1_555
N2_6 Co2_2 1_555 1_555
C5_8 N5_6 1_555 1_555
H2_8 C7_8 1_555 1_555
H4_8 C8_8 1_555 1_555
H6_8 C6_8 1_555 1_555
Co2_2 N5_6 1_555 1_555
N5_6 C6_8 1_555 1_555
C6_8 C7_8 1_555 1_555
C7_8 C8_8 1_555 1_555
C8_8 N4_4 1_555 1_555
N4_4 C5_8 1_555 1_555
C9_8 N3_4 1_555 1_555
H9_8 C4_8 1_555 1_555
H10_8 C3_8 1_555 1_555
H11_8 C2_8 1_555 1_555
N2_6 C9_8 1_555 1_555
C5_8 C9_8 1_555 1_555
Co2_2 O1_10 1_555 1_555
O1_10 H3_10 1_555 1_555
O2_7 H1_7 1_555 1_555
O5_2 C1_10 1_555 1_555
C1_10 O4_7 1_555 1_555
O4_7 Co3_2 1_555 1_555
H5_7 O2_7 1_555 1_555
Co3_2 O1_10 1_555 1_555
O6_7 Co2_2 1_555 1_555
O7_7 Co2_2 1_555 1_555
H7_7 O7_7 1_555 1_555
H8_7 O7_7 1_555 1_555
O2_7 Co3_2 1_555 1_555
C1_10 O6_7 1_555 1_555
O1_11 H3_11 1_555 1_555
O2_8 H1_8 1_555 1_555
O4_8 Co5 1_555 1_555
H5_8 O2_8 1_555 1_555
Co5 O1_11 1_555 1_555
O2_8 Co5 1_555 1_555
Co5_4 O1_12 1_555 1_555
O1_12 H3_12 1_555 1_555
O6_8 Co5_4 1_555 1_555
O7_8 Co5_4 1_555 1_555
H7_8 O7_8 1_555 1_555
H8_8 O7_8 1_555 1_555
O5_5 C1_11 1_555 1_555
O5_6 C1_12 1_555 1_555
N7 O8 1_555 1_555
O9 N7 1_555 1_555
O10 N7 1_555 1_555
N7_2 O8_2 1_555 1_555
O9_2 N7_2 1_555 1_555
O10_2 N7_2 1_555 1_555
N7_3 O8_3 1_555 1_555
O9_3 N7_3 1_555 1_555
O10_3 N7_3 1_555 1_555
N7_4 O8_4 1_555 1_555
O10_4 N7_4 1_555 1_555
N7_5 O8_5 1_555 1_555
O10_5 N7_5 1_555 1_555
N7_6 O8_6 1_555 1_555
O10_6 N7_6 1_555 1_555
N7_7 O8_7 1_555 1_555
O10_7 N7_7 1_555 1_555
N7_8 O8_8 1_555 1_555
O10_8 N7_8 1_555 1_555
N7_9 O8_9 1_555 1_555
O10_9 N7_9 1_555 1_555
N7_10 O8_10 1_555 1_555
O9_10 N7_10 1_555 1_555
O10_10 N7_10 1_555 1_555
N7_11 O8_11 1_555 1_555
O10_11 N7_11 1_555 1_555
N7_12 O8_12 1_555 1_555
O10_12 N7_12 1_555 1_555

#END
