
###############################################################################
#
# This file contains modified crystal structure data generated from the
# MOF subset of the Cambridge Structural Database (CSD) v543 
# hosted by the Cambridge Crystallographic Data Centre (CCDC).
#
# This work is licensed under the Creative Commons
# Attribution-NonCommercial-ShareAlike 4.0 International License.
# To view a copy of this license, visit
# http://creativecommons.org/licenses/by-nc-sa/4.0/
# or send a letter to
# Creative Commons, PO Box 1866, Mountain View, CA 94042, USA.
#
# CIF created using the CSD Python API on 29 September 2022
# The structure has been converted into the P1 space group
# The structure has a 3D framework
# The original CSD entry HOKLOK is in the monoclinic crystal system
# The framework has been calculated to contain at least 10.0% void space
# The void calculation uses a probe of radius 1.32A, grid spacing 0.4
#
###############################################################################

data_HOKLOK
_chemical_formula_moiety         '(C350 H174 N16 O118 Zn24)n'
_symmetry_cell_setting           triclinic
_symmetry_space_group_name_H-M   'P 1'
_symmetry_Int_Tables_number      1
_space_group_name_Hall           'P 1'
loop_
_symmetry_equiv_pos_site_id
_symmetry_equiv_pos_as_xyz
1 x,y,z
_cell_length_a                   20.2644(6)
_cell_length_b                   19.1216(7)
_cell_length_c                   26.8248(8)
_cell_angle_alpha                90
_cell_angle_beta                 101.184(3)
_cell_angle_gamma                90
_cell_volume                     10196.9
loop_
_atom_site_label
_atom_site_type_symbol
_atom_site_fract_x
_atom_site_fract_y
_atom_site_fract_z
Zn7 Zn 0.01340(3) 0.01584(3) 0.05511(2)
H31 H 0.3776 0.0030 0.6718
C65 C 0.2662(5) 0.0332(5) 0.7101(3)
O21 O 0.2172(4) 0.0267(3) 0.7288(2)
O22 O 0.3097(3) 0.0798(4) 0.7224(3)
Zn16 Zn 0.13647(4) 0.09273(4) 0.74286(3)
Zn22 Zn 0.28725(3) 0.15760(4) 0.76382(3)
H9 H 0.6224 0.0030 0.8282
C21 C 0.7338(5) 0.0332(5) 0.7899(3)
O5 O 0.7828(4) 0.0267(3) 0.7712(2)
O6 O 0.6903(3) 0.0798(4) 0.7776(3)
Zn15 Zn 0.86353(4) 0.09273(4) 0.75714(3)
Zn20 Zn 0.71275(3) 0.15760(4) 0.73618(3)
Zn1 Zn 0.51340(3) 0.51584(3) 0.05511(2)
Zn2 Zn 0.63647(4) 0.40727(4) 0.24286(3)
Zn3 Zn 0.78725(3) 0.34240(4) 0.26382(3)
C5 C 0.6249(3) 0.7218(3) 0.0165(2)
H3 H 0.6243 0.7078 0.0496
C6 C 0.6609(3) 0.7815(3) 0.0072(2)
C7 C 0.7052(3) 0.8285(3) 0.0394(2)
C8 C 0.7299(3) 0.8338(3) 0.0915(2)
H4 H 0.7161 0.8021 0.1137
C9 C 0.7753(3) 0.8864(3) 0.1102(2)
C10 C 0.7953(4) 0.9349(4) 0.0768(3)
H5 H 0.8252 0.9704 0.0897
C11 C 0.7716(4) 0.9307(4) 0.0252(3)
H6 H 0.7844 0.9633 0.0032
C12 C 0.7282(3) 0.8770(4) 0.0072(2)
C20 C 0.8023(3) 0.8921(4) 0.1653(3)
C22 C 0.6377(3) 0.2213(4) 0.0275(2)
C23 C 0.5899(3) 0.2573(4) 0.0483(3)
H11 H 0.5467 0.2649 0.0298
C24 C 0.6087(3) 0.2810(4) 0.0970(3)
H12 H 0.5783 0.3067 0.1114
C25 C 0.6737(3) 0.2672(3) 0.1261(2)
C26 C 0.7195(3) 0.2286(3) 0.1061(2)
H13 H 0.7616 0.2186 0.1255
C27 C 0.7017(3) 0.2046(3) 0.0558(2)
C28 C 0.7360(3) 0.1643(3) 0.0230(2)
C33 C 0.7999(3) 0.1335(3) 0.0294(2)
H16 H 0.8291 0.1362 0.0608
C40 C 0.6920(3) 0.3000(3) 0.1777(2)
C43 C 0.5000 0.3738(7) 0.2500
H21 H 0.5000 0.4224 0.2500
C44 C 0.5600(3) 0.4812(4) 0.1578(3)
H22 H 0.5645 0.4383 0.1424
O1 O 0.5565(2) 0.6015(2) 0.03089(18)
O3 O 0.7860(2) 0.8468(2) 0.19613(16)
O4 O 0.8442(2) 0.9390(2) 0.18227(17)
O7 O 0.6521(2) 0.3437(3) 0.18852(18)
O8 O 0.7470(2) 0.2822(2) 0.20611(16)
O9 O 0.9221(2) 0.0641(2) 0.03852(17)
O13 O 0.5551(3) 0.3475(3) 0.2506(3)
O14 O 0.5779(3) 0.4848(2) 0.20542(17)
O15 O 0.5368(2) 0.5305(2) 0.13003(16)
O16 O 0.4449(3) 0.3475(3) 0.2494(3)
Zn4 Zn 0.48660(3) 0.51584(3) 0.44489(2)
Zn5 Zn 0.36353(4) 0.40727(4) 0.25714(3)
Zn6 Zn 0.21275(3) 0.34240(4) 0.23618(3)
C45 C 0.3419(3) 0.8031(3) 0.5431(2)
C46 C 0.3780(3) 0.7662(4) 0.5844(3)
H23 H 0.3795 0.7815 0.6175
C47 C 0.4115(3) 0.7063(3) 0.5747(2)
H24 H 0.4353 0.6803 0.6016
C48 C 0.4096(3) 0.6841(3) 0.5240(3)
C49 C 0.3751(3) 0.7218(3) 0.4835(2)
H25 H 0.3757 0.7078 0.4504
C50 C 0.3391(3) 0.7815(3) 0.4928(2)
C51 C 0.2948(3) 0.8285(3) 0.4606(2)
C52 C 0.2701(3) 0.8338(3) 0.4085(2)
H26 H 0.2839 0.8021 0.3863
C53 C 0.2247(3) 0.8864(3) 0.3898(2)
C54 C 0.2047(4) 0.9349(4) 0.4232(3)
H27 H 0.1748 0.9704 0.4103
C55 C 0.2284(4) 0.9307(4) 0.4748(3)
H28 H 0.2156 0.9633 0.4968
C56 C 0.2718(3) 0.8770(4) 0.4928(2)
C57 C 0.2948(3) 0.9023(3) 0.5865(2)
C58 C 0.2334(4) 0.9063(4) 0.6002(3)
H29 H 0.1968 0.8816 0.5823
C59 C 0.2266(4) 0.9475(4) 0.6410(3)
H30 H 0.1848 0.9507 0.6502
C60 C 0.2793(4) 0.9835(4) 0.6681(2)
C61 C 0.3411(4) 0.9782(4) 0.6539(3)
C62 C 0.3493(4) 0.9369(4) 0.6140(3)
H32 H 0.3915 0.9322 0.6055
C63 C 0.4435(3) 0.6165(3) 0.5148(3)
C64 C 0.1977(3) 0.8921(4) 0.3347(3)
C66 C 0.3623(3) 0.2213(4) 0.4725(2)
C67 C 0.4101(3) 0.2573(4) 0.4517(3)
H33 H 0.4533 0.2649 0.4702
C68 C 0.3913(3) 0.2810(4) 0.4030(3)
H34 H 0.4217 0.3067 0.3886
C69 C 0.3263(3) 0.2672(3) 0.3739(2)
C70 C 0.2805(3) 0.2286(3) 0.3939(2)
H35 H 0.2384 0.2186 0.3745
C71 C 0.2983(3) 0.2046(3) 0.4442(2)
C72 C 0.2640(3) 0.1643(3) 0.4770(2)
C73 C 0.3072(3) 0.1591(3) 0.5242(2)
C74 C 0.2891(3) 0.1257(4) 0.5656(3)
H36 H 0.3189 0.1223 0.5966
C75 C 0.2248(3) 0.0975(3) 0.5588(3)
H37 H 0.2105 0.0770 0.5863
C76 C 0.1801(3) 0.0993(3) 0.5106(2)
C77 C 0.2001(3) 0.1335(3) 0.4706(2)
H38 H 0.1709 0.1362 0.4392
C78 C 0.4274(3) 0.1962(4) 0.5595(3)
C79 C 0.4592(4) 0.2581(5) 0.5744(3)
H39 H 0.4412 0.2996 0.5596
C80 C 0.5174(4) 0.2604(6) 0.6109(3)
H40 H 0.5367 0.3037 0.6200
C81 C 0.5479(6) 0.2024(6) 0.6341(4)
C82 C 0.5153(5) 0.1377(7) 0.6171(4)
H41 H 0.5354 0.0964 0.6308
C83 C 0.4545(4) 0.1323(5) 0.5808(3)
H42 H 0.4338 0.0895 0.5716
C84 C 0.3080(3) 0.3000(3) 0.3223(2)
C85 C 0.1140(3) 0.0651(3) 0.5054(3)
C86 C 0.6131(5) 0.2019(6) 0.6756(4)
C87 C 0.4400(3) 0.4812(4) 0.3422(3)
H43 H 0.4355 0.4383 0.3576
N3 N 0.3017(3) 0.8613(3) 0.5434(2)
N4 N 0.3678(3) 0.1929(3) 0.5208(2)
O17 O 0.4435(2) 0.6015(2) 0.46911(18)
O18 O 0.4686(2) 0.5803(2) 0.55293(17)
O19 O 0.2140(2) 0.8468(2) 0.30387(16)
O20 O 0.1558(2) 0.9390(2) 0.31773(17)
O23 O 0.3479(2) 0.3437(3) 0.31148(18)
O24 O 0.2530(2) 0.2822(2) 0.29389(16)
O25 O 0.0779(2) 0.0641(2) 0.46148(17)
O26 O 0.0994(2) 0.0376(2) 0.54410(18)
O27 O 0.6308(5) 0.1432(5) 0.6843(4)
O28 O 0.6364(6) 0.2589(5) 0.6858(5)
O29 O 0.4221(3) 0.4848(2) 0.29458(17)
O30 O 0.4632(2) 0.5305(2) 0.36997(16)
Zn10 Zn 0.51340(3) 0.48416(3) 0.55511(2)
Zn13 Zn 0.13647(4) 0.90727(4) 0.24286(3)
Zn14 Zn 0.86353(4) 0.90727(4) 0.25714(3)
Zn17 Zn 0.28725(3) 0.84240(4) 0.26382(3)
Zn18 Zn 0.71275(3) 0.84240(4) 0.23618(3)
O31 O 0.4686(2) 0.4197(2) 0.05293(17)
O32 O 0.5314(2) 0.4197(2) 0.44707(17)
O33 O 0.2860(2) 0.3468(2) 0.19613(16)
O34 O 0.7140(2) 0.3468(2) 0.30387(16)
O35 O 0.3442(2) 0.4390(2) 0.18227(17)
O36 O 0.6558(2) 0.4390(2) 0.31773(17)
O37 O 0.7172(4) 0.4733(3) 0.2288(2)
O38 O 0.2828(4) 0.4733(3) 0.2712(2)
O39 O 0.8097(3) 0.4202(4) 0.2224(3)
O40 O 0.1903(3) 0.4202(4) 0.2776(3)
O41 O 0.4221(2) 0.5641(2) 0.03852(17)
O42 O 0.5779(2) 0.5641(2) 0.46148(17)
O43 O 0.5994(2) 0.4624(2) 0.04410(18)
O44 O 0.4006(2) 0.4624(2) 0.45590(18)
O45 O 0.1308(5) 0.3568(5) 0.1843(4)
O46 O 0.8692(5) 0.3568(5) 0.3157(4)
C1 C 0.6581(3) 0.8031(3) 0.9569(2)
C2 C 0.6220(3) 0.7662(4) 0.9156(3)
H1 H 0.6205 0.7815 0.8825
C3 C 0.5885(3) 0.7063(3) 0.9253(2)
H2 H 0.5647 0.6803 0.8984
C4 C 0.5904(3) 0.6841(3) 0.9760(3)
C13 C 0.7052(3) 0.9023(3) 0.9135(2)
C14 C 0.7666(4) 0.9063(4) 0.8998(3)
H7 H 0.8032 0.8816 0.9177
C15 C 0.7734(4) 0.9475(4) 0.8590(3)
H8 H 0.8152 0.9507 0.8498
C16 C 0.7207(4) 0.9835(4) 0.8319(2)
C17 C 0.6589(4) 0.9782(4) 0.8461(3)
C18 C 0.6507(4) 0.9369(4) 0.8860(3)
H10 H 0.6085 0.9322 0.8945
C19 C 0.5565(3) 0.6165(3) 0.9852(3)
C29 C 0.6928(3) 0.1591(3) 0.9758(2)
C30 C 0.7109(3) 0.1257(4) 0.9344(3)
H14 H 0.6811 0.1223 0.9034
C31 C 0.7752(3) 0.0975(3) 0.9412(3)
H15 H 0.7895 0.0770 0.9137
C32 C 0.8199(3) 0.0993(3) 0.9894(2)
C34 C 0.5726(3) 0.1962(4) 0.9405(3)
C35 C 0.5408(4) 0.2581(5) 0.9256(3)
H17 H 0.5588 0.2996 0.9404
C36 C 0.4826(4) 0.2604(6) 0.8891(3)
H18 H 0.4633 0.3037 0.8800
C37 C 0.4521(6) 0.2024(6) 0.8659(4)
C38 C 0.4847(5) 0.1377(7) 0.8829(4)
H19 H 0.4646 0.0964 0.8692
C39 C 0.5455(4) 0.1323(5) 0.9192(3)
H20 H 0.5662 0.0895 0.9284
C41 C 0.8860(3) 0.0651(3) 0.9946(3)
C42 C 0.3869(5) 0.2019(6) 0.8244(4)
N1 N 0.6983(3) 0.8613(3) 0.9566(2)
N2 N 0.6322(3) 0.1929(3) 0.9792(2)
O2 O 0.5314(2) 0.5803(2) 0.94707(17)
O10 O 0.9006(2) 0.0376(2) 0.95590(18)
O11 O 0.3692(5) 0.1432(5) 0.8157(4)
O12 O 0.3636(6) 0.2589(5) 0.8142(5)
Zn9 Zn 0.48660(3) 0.48416(3) 0.94489(2)
Zn12 Zn 0.01340(3) 0.98416(3) 0.55511(2)
Zn11 Zn 0.98660(3) 0.98416(3) 0.94489(2)
Zn8 Zn 0.98660(3) 0.01584(3) 0.44489(2)
C5_2 C 0.1249(3) 0.2218(3) 0.0165(2)
H3_2 H 0.1243 0.2078 0.0496
C6_2 C 0.1609(3) 0.2815(3) 0.0072(2)
C7_2 C 0.2052(3) 0.3285(3) 0.0394(2)
C8_2 C 0.2299(3) 0.3338(3) 0.0915(2)
H4_2 H 0.2161 0.3021 0.1137
C9_2 C 0.2753(3) 0.3864(3) 0.1102(2)
C10_2 C 0.2953(4) 0.4349(4) 0.0768(3)
H5_2 H 0.3252 0.4704 0.0897
C11_2 C 0.2716(4) 0.4307(4) 0.0252(3)
H6_2 H 0.2844 0.4633 0.0032
C12_2 C 0.2282(3) 0.3770(4) 0.0072(2)
C20_2 C 0.3023(3) 0.3921(4) 0.1653(3)
O1_2 O 0.0565(2) 0.1015(2) 0.03089(18)
O15_2 O 0.0368(2) 0.0305(2) 0.13003(16)
C1_2 C 0.1581(3) 0.3031(3) 0.9569(2)
C2_2 C 0.1220(3) 0.2662(4) 0.9156(3)
H1_2 H 0.1205 0.2815 0.8825
C3_2 C 0.0885(3) 0.2063(3) 0.9253(2)
H2_2 H 0.0647 0.1803 0.8984
C4_2 C 0.0904(3) 0.1841(3) 0.9760(3)
C13_2 C 0.2052(3) 0.4023(3) 0.9135(2)
C14_2 C 0.2666(4) 0.4063(4) 0.8998(3)
H7_2 H 0.3032 0.3816 0.9177
C15_2 C 0.2734(4) 0.4475(4) 0.8590(3)
H8_2 H 0.3152 0.4507 0.8498
C16_2 C 0.2207(4) 0.4835(4) 0.8319(2)
C17_2 C 0.1589(4) 0.4782(4) 0.8461(3)
H9_2 H 0.1224 0.5030 0.8282
C18_2 C 0.1507(4) 0.4369(4) 0.8860(3)
H10_2 H 0.1085 0.4322 0.8945
C19_2 C 0.0565(3) 0.1165(3) 0.9852(3)
C21_2 C 0.2338(5) 0.5332(5) 0.7899(3)
N1_2 N 0.1983(3) 0.3613(3) 0.9566(2)
O2_2 O 0.0314(2) 0.0803(2) 0.94707(17)
O5_2 O 0.2828(4) 0.5267(3) 0.7712(2)
O6_2 O 0.1903(3) 0.5798(4) 0.7776(3)
Zn15_2 Zn 0.36353(4) 0.59273(4) 0.75714(3)
Zn20_2 Zn 0.21275(3) 0.65760(4) 0.73618(3)
C22_2 C 0.1377(3) 0.7213(4) 0.0275(2)
C23_2 C 0.0899(3) 0.7573(4) 0.0483(3)
H11_2 H 0.0467 0.7649 0.0298
C24_2 C 0.1087(3) 0.7810(4) 0.0970(3)
H12_2 H 0.0783 0.8067 0.1114
C25_2 C 0.1737(3) 0.7672(3) 0.1261(2)
C26_2 C 0.2195(3) 0.7286(3) 0.1061(2)
H13_2 H 0.2616 0.7186 0.1255
C27_2 C 0.2017(3) 0.7046(3) 0.0558(2)
C28_2 C 0.2360(3) 0.6643(3) 0.0230(2)
C33_2 C 0.2999(3) 0.6335(3) 0.0294(2)
H16_2 H 0.3291 0.6362 0.0608
C40_2 C 0.1920(3) 0.8000(3) 0.1777(2)
C43_2 C 0.0000 0.8738(7) 0.2500
H21_2 H 0.0000 0.9224 0.2500
C44_2 C 0.0600(3) 0.9812(4) 0.1578(3)
H22_2 H 0.0645 0.9383 0.1424
O7_2 O 0.1521(2) 0.8437(3) 0.18852(18)
O8_2 O 0.2470(2) 0.7822(2) 0.20611(16)
O13_2 O 0.0551(3) 0.8475(3) 0.2506(3)
O14_2 O 0.0779(3) 0.9848(2) 0.20542(17)
C80_2 C 0.0174(4) 0.7604(6) 0.6109(3)
H40_2 H 0.0367 0.8037 0.6200
C81_2 C 0.0479(6) 0.7024(6) 0.6341(4)
C82_2 C 0.0153(5) 0.6377(7) 0.6171(4)
H41_2 H 0.0354 0.5964 0.6308
C86_2 C 0.1131(5) 0.7019(6) 0.6756(4)
O27_2 O 0.1308(5) 0.6432(5) 0.6843(4)
O28_2 O 0.1364(6) 0.7589(5) 0.6858(5)
O32_2 O 0.0314(2) 0.9197(2) 0.44707(17)
O37_2 O 0.2172(4) 0.9733(3) 0.2288(2)
O39_2 O 0.3097(3) 0.9202(4) 0.2224(3)
O43_2 O 0.0994(2) 0.9624(2) 0.04410(18)
O46_2 O 0.3692(5) 0.8568(5) 0.3157(4)
C29_2 C 0.1928(3) 0.6591(3) 0.9758(2)
C30_2 C 0.2109(3) 0.6257(4) 0.9344(3)
H14_2 H 0.1811 0.6223 0.9034
C31_2 C 0.2752(3) 0.5975(3) 0.9412(3)
H15_2 H 0.2895 0.5770 0.9137
C32_2 C 0.3199(3) 0.5993(3) 0.9894(2)
C34_2 C 0.0726(3) 0.6962(4) 0.9405(3)
C35_2 C 0.0408(4) 0.7581(5) 0.9256(3)
H17_2 H 0.0588 0.7996 0.9404
C39_2 C 0.0455(4) 0.6323(5) 0.9192(3)
H20_2 H 0.0662 0.5895 0.9284
C41_2 C 0.3860(3) 0.5651(3) 0.9946(3)
N2_2 N 0.1322(3) 0.6929(3) 0.9792(2)
O10_2 O 0.4006(2) 0.5376(2) 0.95590(18)
C45_2 C 0.8419(3) 0.3031(3) 0.5431(2)
C46_2 C 0.8780(3) 0.2662(4) 0.5844(3)
H23_2 H 0.8795 0.2815 0.6175
C47_2 C 0.9115(3) 0.2063(3) 0.5747(2)
H24_2 H 0.9353 0.1803 0.6016
C48_2 C 0.9096(3) 0.1841(3) 0.5240(3)
C49_2 C 0.8751(3) 0.2218(3) 0.4835(2)
H25_2 H 0.8757 0.2078 0.4504
C50_2 C 0.8391(3) 0.2815(3) 0.4928(2)
C51_2 C 0.7948(3) 0.3285(3) 0.4606(2)
C52_2 C 0.7701(3) 0.3338(3) 0.4085(2)
H26_2 H 0.7839 0.3021 0.3863
C53_2 C 0.7247(3) 0.3864(3) 0.3898(2)
C54_2 C 0.7047(4) 0.4349(4) 0.4232(3)
H27_2 H 0.6748 0.4704 0.4103
C55_2 C 0.7284(4) 0.4307(4) 0.4748(3)
H28_2 H 0.7156 0.4633 0.4968
C56_2 C 0.7718(3) 0.3770(4) 0.4928(2)
C57_2 C 0.7948(3) 0.4023(3) 0.5865(2)
C58_2 C 0.7334(4) 0.4063(4) 0.6002(3)
H29_2 H 0.6968 0.3816 0.5823
C59_2 C 0.7266(4) 0.4475(4) 0.6410(3)
H30_2 H 0.6848 0.4507 0.6502
C60_2 C 0.7793(4) 0.4835(4) 0.6681(2)
C61_2 C 0.8411(4) 0.4782(4) 0.6539(3)
H31_2 H 0.8776 0.5030 0.6718
C62_2 C 0.8493(4) 0.4369(4) 0.6140(3)
H32_2 H 0.8915 0.4322 0.6055
C63_2 C 0.9435(3) 0.1165(3) 0.5148(3)
C64_2 C 0.6977(3) 0.3921(4) 0.3347(3)
C65_2 C 0.7662(5) 0.5332(5) 0.7101(3)
N3_2 N 0.8017(3) 0.3613(3) 0.5434(2)
O17_2 O 0.9435(2) 0.1015(2) 0.46911(18)
O18_2 O 0.9686(2) 0.0803(2) 0.55293(17)
O21_2 O 0.7172(4) 0.5267(3) 0.7288(2)
O22_2 O 0.8097(3) 0.5798(4) 0.7224(3)
O30_2 O 0.9632(2) 0.0305(2) 0.36997(16)
Zn16_2 Zn 0.63647(4) 0.59273(4) 0.74286(3)
Zn22_2 Zn 0.78725(3) 0.65760(4) 0.76382(3)
C43_3 C 1.0000 0.8738(7) 0.2500
H21_3 H 1.0000 0.9224 0.2500
O16_2 O 0.9449(3) 0.8475(3) 0.2494(3)
C66_2 C 0.8623(3) 0.7213(4) 0.4725(2)
C67_2 C 0.9101(3) 0.7573(4) 0.4517(3)
H33_2 H 0.9533 0.7649 0.4702
C68_2 C 0.8913(3) 0.7810(4) 0.4030(3)
H34_2 H 0.9217 0.8067 0.3886
C69_2 C 0.8263(3) 0.7672(3) 0.3739(2)
C70_2 C 0.7805(3) 0.7286(3) 0.3939(2)
H35_2 H 0.7384 0.7186 0.3745
C71_2 C 0.7983(3) 0.7046(3) 0.4442(2)
C72_2 C 0.7640(3) 0.6643(3) 0.4770(2)
C73_2 C 0.8072(3) 0.6591(3) 0.5242(2)
C74_2 C 0.7891(3) 0.6257(4) 0.5656(3)
H36_2 H 0.8189 0.6223 0.5966
C75_2 C 0.7248(3) 0.5975(3) 0.5588(3)
H37_2 H 0.7105 0.5770 0.5863
C76_2 C 0.6801(3) 0.5993(3) 0.5106(2)
C77_2 C 0.7001(3) 0.6335(3) 0.4706(2)
H38_2 H 0.6709 0.6362 0.4392
C78_2 C 0.9274(3) 0.6962(4) 0.5595(3)
C79_2 C 0.9592(4) 0.7581(5) 0.5744(3)
H39_2 H 0.9412 0.7996 0.5596
C83_2 C 0.9545(4) 0.6323(5) 0.5808(3)
H42_2 H 0.9338 0.5895 0.5716
C84_2 C 0.8080(3) 0.8000(3) 0.3223(2)
C85_2 C 0.6140(3) 0.5651(3) 0.5054(3)
C87_2 C 0.9400(3) 0.9812(4) 0.3422(3)
H43_2 H 0.9355 0.9383 0.3576
N4_2 N 0.8678(3) 0.6929(3) 0.5208(2)
O23_2 O 0.8479(2) 0.8437(3) 0.31148(18)
O24_2 O 0.7530(2) 0.7822(2) 0.29389(16)
O26_2 O 0.5994(2) 0.5376(2) 0.54410(18)
O29_2 O 0.9221(3) 0.9848(2) 0.29458(17)
O31_2 O 0.9686(2) 0.9197(2) 0.05293(17)
O38_2 O 0.7828(4) 0.9733(3) 0.2712(2)
O40_2 O 0.6903(3) 0.9202(4) 0.2776(3)
O44_2 O 0.9006(2) 0.9624(2) 0.45590(18)
O45_2 O 0.6308(5) 0.8568(5) 0.1843(4)
C36_2 C 0.9826(4) 0.7604(6) 0.8891(3)
H18_2 H 0.9633 0.8037 0.8800
C37_2 C 0.9521(6) 0.7024(6) 0.8659(4)
C38_2 C 0.9847(5) 0.6377(7) 0.8829(4)
H19_2 H 0.9646 0.5964 0.8692
C42_2 C 0.8869(5) 0.7019(6) 0.8244(4)
O11_2 O 0.8692(5) 0.6432(5) 0.8157(4)
O12_2 O 0.8636(6) 0.7589(5) 0.8142(5)
C1_3 C 0.3419(3) 0.1969(3) 0.0431(2)
C2_3 C 0.3780(3) 0.2338(4) 0.0844(3)
H1_3 H 0.3795 0.2185 0.1175
C3_3 C 0.4115(3) 0.2937(3) 0.0747(2)
H2_3 H 0.4353 0.3197 0.1016
C4_3 C 0.4096(3) 0.3159(3) 0.0240(3)
C13_3 C 0.2948(3) 0.0977(3) 0.0865(2)
C14_3 C 0.2334(4) 0.0937(4) 0.1002(3)
H7_3 H 0.1968 0.1184 0.0823
C15_3 C 0.2266(4) 0.0525(4) 0.1410(3)
H8_3 H 0.1848 0.0493 0.1502
C16_3 C 0.2793(4) 0.0165(4) 0.1681(2)
C17_3 C 0.3411(4) 0.0218(4) 0.1539(3)
C18_3 C 0.3493(4) 0.0631(4) 0.1140(3)
H10_3 H 0.3915 0.0678 0.1055
C19_3 C 0.4435(3) 0.3835(3) 0.0148(3)
C29_3 C 0.3072(3) 0.8409(3) 0.0242(2)
C30_3 C 0.2891(3) 0.8743(4) 0.0656(3)
H14_3 H 0.3189 0.8777 0.0966
C31_3 C 0.2248(3) 0.9025(3) 0.0588(3)
H15_3 H 0.2105 0.9230 0.0863
C32_3 C 0.1801(3) 0.9007(3) 0.0106(2)
C34_3 C 0.4274(3) 0.8038(4) 0.0595(3)
C35_3 C 0.4592(4) 0.7419(5) 0.0744(3)
H17_3 H 0.4412 0.7004 0.0596
C36_3 C 0.5174(4) 0.7396(6) 0.1109(3)
H18_3 H 0.5367 0.6963 0.1200
C37_3 C 0.5479(6) 0.7976(6) 0.1341(4)
C38_3 C 0.5153(5) 0.8623(7) 0.1171(4)
H19_3 H 0.5354 0.9036 0.1308
C39_3 C 0.4545(4) 0.8677(5) 0.0808(3)
H20_3 H 0.4338 0.9105 0.0716
C41_3 C 0.1140(3) 0.9349(3) 0.0054(3)
C42_3 C 0.6131(5) 0.7981(6) 0.1756(4)
N1_3 N 0.3017(3) 0.1387(3) 0.0434(2)
N2_3 N 0.3678(3) 0.8071(3) 0.0208(2)
O12_3 O 0.6364(6) 0.7411(5) 0.1858(5)
C5_3 C 0.3751(3) 0.2782(3) 0.9835(2)
H3_3 H 0.3757 0.2922 0.9504
C6_3 C 0.3391(3) 0.2185(3) 0.9928(2)
C7_3 C 0.2948(3) 0.1715(3) 0.9606(2)
C8_3 C 0.2701(3) 0.1662(3) 0.9085(2)
H4_3 H 0.2839 0.1979 0.8863
C9_3 C 0.2247(3) 0.1136(3) 0.8898(2)
C10_3 C 0.2047(4) 0.0651(4) 0.9232(3)
H5_3 H 0.1748 0.0296 0.9103
C11_3 C 0.2284(4) 0.0693(4) 0.9748(3)
H6_3 H 0.2156 0.0367 0.9968
C12_3 C 0.2718(3) 0.1230(4) 0.9928(2)
C20_3 C 0.1977(3) 0.1079(4) 0.8347(3)
C22_3 C 0.3623(3) 0.7787(4) 0.9725(2)
C23_3 C 0.4101(3) 0.7427(4) 0.9517(3)
H11_3 H 0.4533 0.7351 0.9702
C24_3 C 0.3913(3) 0.7190(4) 0.9030(3)
H12_3 H 0.4217 0.6933 0.8886
C25_3 C 0.3263(3) 0.7328(3) 0.8739(2)
C26_3 C 0.2805(3) 0.7714(3) 0.8939(2)
H13_3 H 0.2384 0.7814 0.8745
C27_3 C 0.2983(3) 0.7954(3) 0.9442(2)
C28_3 C 0.2640(3) 0.8357(3) 0.9770(2)
C33_3 C 0.2001(3) 0.8665(3) 0.9706(2)
H16_3 H 0.1709 0.8638 0.9392
C40_3 C 0.3080(3) 0.7000(3) 0.8223(2)
C43_4 C 0.5000 0.6262(7) 0.7500
H21_4 H 0.5000 0.5776 0.7500
C44_3 C 0.4400(3) 0.5188(4) 0.8422(3)
H22_3 H 0.4355 0.5617 0.8576
O1_3 O 0.4435(2) 0.3985(2) 0.96911(18)
O3_2 O 0.2140(2) 0.1532(2) 0.80387(16)
O4_2 O 0.1558(2) 0.0610(2) 0.81773(17)
O7_3 O 0.3479(2) 0.6563(3) 0.81148(18)
O8_3 O 0.2530(2) 0.7178(2) 0.79389(16)
O9_2 O 0.0779(2) 0.9359(2) 0.96148(17)
O13_3 O 0.4449(3) 0.6525(3) 0.7494(3)
O14_3 O 0.4221(3) 0.5152(2) 0.79458(17)
O15_3 O 0.4632(2) 0.4695(2) 0.86997(16)
O16_3 O 0.5551(3) 0.6525(3) 0.7506(3)
C45_3 C 0.6581(3) 0.1969(3) 0.4569(2)
C46_3 C 0.6220(3) 0.2338(4) 0.4156(3)
H23_3 H 0.6205 0.2185 0.3825
C47_3 C 0.5885(3) 0.2937(3) 0.4253(2)
H24_3 H 0.5647 0.3197 0.3984
C48_3 C 0.5904(3) 0.3159(3) 0.4760(3)
C49_3 C 0.6249(3) 0.2782(3) 0.5165(2)
H25_3 H 0.6243 0.2922 0.5496
C50_3 C 0.6609(3) 0.2185(3) 0.5072(2)
C51_3 C 0.7052(3) 0.1715(3) 0.5394(2)
C52_3 C 0.7299(3) 0.1662(3) 0.5915(2)
H26_3 H 0.7161 0.1979 0.6137
C53_3 C 0.7753(3) 0.1136(3) 0.6102(2)
C54_3 C 0.7953(4) 0.0651(4) 0.5768(3)
H27_3 H 0.8252 0.0296 0.5897
C55_3 C 0.7716(4) 0.0693(4) 0.5252(3)
H28_3 H 0.7844 0.0367 0.5032
C56_3 C 0.7282(3) 0.1230(4) 0.5072(2)
C57_3 C 0.7052(3) 0.0977(3) 0.4135(2)
C58_3 C 0.7666(4) 0.0937(4) 0.3998(3)
H29_3 H 0.8032 0.1184 0.4177
C59_3 C 0.7734(4) 0.0525(4) 0.3590(3)
H30_3 H 0.8152 0.0493 0.3498
C60_3 C 0.7207(4) 0.0165(4) 0.3319(2)
C61_3 C 0.6589(4) 0.0218(4) 0.3461(3)
C62_3 C 0.6507(4) 0.0631(4) 0.3860(3)
H32_3 H 0.6085 0.0678 0.3945
C63_3 C 0.5565(3) 0.3835(3) 0.4852(3)
C64_3 C 0.8023(3) 0.1079(4) 0.6653(3)
C66_3 C 0.6377(3) 0.7787(4) 0.5275(2)
C67_3 C 0.5899(3) 0.7427(4) 0.5483(3)
H33_3 H 0.5467 0.7351 0.5298
C68_3 C 0.6087(3) 0.7190(4) 0.5970(3)
H34_3 H 0.5783 0.6933 0.6114
C69_3 C 0.6737(3) 0.7328(3) 0.6261(2)
C70_3 C 0.7195(3) 0.7714(3) 0.6061(2)
H35_3 H 0.7616 0.7814 0.6255
C71_3 C 0.7017(3) 0.7954(3) 0.5558(2)
C72_3 C 0.7360(3) 0.8357(3) 0.5230(2)
C73_3 C 0.6928(3) 0.8409(3) 0.4758(2)
C74_3 C 0.7109(3) 0.8743(4) 0.4344(3)
H36_3 H 0.6811 0.8777 0.4034
C75_3 C 0.7752(3) 0.9025(3) 0.4412(3)
H37_3 H 0.7895 0.9230 0.4137
C76_3 C 0.8199(3) 0.9007(3) 0.4894(2)
C77_3 C 0.7999(3) 0.8665(3) 0.5294(2)
H38_3 H 0.8291 0.8638 0.5608
C78_3 C 0.5726(3) 0.8038(4) 0.4405(3)
C79_3 C 0.5408(4) 0.7419(5) 0.4256(3)
H39_3 H 0.5588 0.7004 0.4404
C80_3 C 0.4826(4) 0.7396(6) 0.3891(3)
H40_3 H 0.4633 0.6963 0.3800
C81_3 C 0.4521(6) 0.7976(6) 0.3659(4)
C82_3 C 0.4847(5) 0.8623(7) 0.3829(4)
H41_3 H 0.4646 0.9036 0.3692
C83_3 C 0.5455(4) 0.8677(5) 0.4192(3)
H42_3 H 0.5662 0.9105 0.4284
C84_3 C 0.6920(3) 0.7000(3) 0.6777(2)
C85_3 C 0.8860(3) 0.9349(3) 0.4946(3)
C86_3 C 0.3869(5) 0.7981(6) 0.3244(4)
C87_3 C 0.5600(3) 0.5188(4) 0.6578(3)
H43_3 H 0.5645 0.5617 0.6424
N3_3 N 0.6983(3) 0.1387(3) 0.4566(2)
N4_3 N 0.6322(3) 0.8071(3) 0.4792(2)
O17_3 O 0.5565(2) 0.3985(2) 0.53089(18)
O19_2 O 0.7860(2) 0.1532(2) 0.69613(16)
O20_2 O 0.8442(2) 0.0610(2) 0.68227(17)
O23_3 O 0.6521(2) 0.6563(3) 0.68852(18)
O24_3 O 0.7470(2) 0.7178(2) 0.70611(16)
O25_2 O 0.9221(2) 0.9359(2) 0.53852(17)
O28_3 O 0.3636(6) 0.7411(5) 0.3142(5)
O29_3 O 0.5779(3) 0.5152(2) 0.70542(17)
O30_3 O 0.5368(2) 0.4695(2) 0.63003(16)
O33_2 O 0.7140(2) 0.6532(2) 0.80387(16)
O34_2 O 0.2860(2) 0.6532(2) 0.69613(16)
O35_2 O 0.6558(2) 0.5610(2) 0.81773(17)
O36_2 O 0.3442(2) 0.5610(2) 0.68227(17)
O41_2 O 0.5779(2) 0.4359(2) 0.96148(17)
O42_2 O 0.4221(2) 0.4359(2) 0.53852(17)
H9_3 H 0.3776 0.9970 0.1718
C21_3 C 0.2662(5) 0.9668(5) 0.2101(3)
H31_3 H 0.6224 0.9970 0.3282
C65_3 C 0.7338(5) 0.9668(5) 0.2899(3)
C36_4 C 0.0174(4) 0.2396(6) 0.1109(3)
H18_4 H 0.0367 0.1963 0.1200
C37_4 C 0.0479(6) 0.2976(6) 0.1341(4)
C38_4 C 0.0153(5) 0.3623(7) 0.1171(4)
H19_4 H 0.0354 0.4036 0.1308
C42_4 C 0.1131(5) 0.2981(6) 0.1756(4)
O12_4 O 0.1364(6) 0.2411(5) 0.1858(5)
C43_5 C 0.0000 0.1262(7) 0.7500
H21_5 H 0.0000 0.0776 0.7500
O16_4 O 0.0551(3) 0.1525(3) 0.7506(3)
C66_4 C 0.1377(3) 0.2787(4) 0.5275(2)
C67_4 C 0.0899(3) 0.2427(4) 0.5483(3)
H33_4 H 0.0467 0.2351 0.5298
C68_4 C 0.1087(3) 0.2190(4) 0.5970(3)
H34_4 H 0.0783 0.1933 0.6114
C69_4 C 0.1737(3) 0.2328(3) 0.6261(2)
C70_4 C 0.2195(3) 0.2714(3) 0.6061(2)
H35_4 H 0.2616 0.2814 0.6255
C71_4 C 0.2017(3) 0.2954(3) 0.5558(2)
C72_4 C 0.2360(3) 0.3357(3) 0.5230(2)
C73_4 C 0.1928(3) 0.3409(3) 0.4758(2)
C74_4 C 0.2109(3) 0.3743(4) 0.4344(3)
H36_4 H 0.1811 0.3777 0.4034
C75_4 C 0.2752(3) 0.4025(3) 0.4412(3)
H37_4 H 0.2895 0.4230 0.4137
C76_4 C 0.3199(3) 0.4007(3) 0.4894(2)
C77_4 C 0.2999(3) 0.3665(3) 0.5294(2)
H38_4 H 0.3291 0.3638 0.5608
C78_4 C 0.0726(3) 0.3038(4) 0.4405(3)
C79_4 C 0.0408(4) 0.2419(5) 0.4256(3)
H39_4 H 0.0588 0.2004 0.4404
C83_4 C 0.0455(4) 0.3677(5) 0.4192(3)
H42_4 H 0.0662 0.4105 0.4284
C84_4 C 0.1920(3) 0.2000(3) 0.6777(2)
C85_4 C 0.3860(3) 0.4349(3) 0.4946(3)
C87_4 C 0.0600(3) 0.0188(4) 0.6578(3)
H43_4 H 0.0645 0.0617 0.6424
N4_4 N 0.1322(3) 0.3071(3) 0.4792(2)
O23_4 O 0.1521(2) 0.1563(3) 0.68852(18)
O24_4 O 0.2470(2) 0.2178(2) 0.70611(16)
O29_4 O 0.0779(3) 0.0152(2) 0.70542(17)
C45_4 C 0.1581(3) 0.6969(3) 0.4569(2)
C46_4 C 0.1220(3) 0.7338(4) 0.4156(3)
H23_4 H 0.1205 0.7185 0.3825
C47_4 C 0.0885(3) 0.7937(3) 0.4253(2)
H24_4 H 0.0647 0.8197 0.3984
C48_4 C 0.0904(3) 0.8159(3) 0.4760(3)
C49_4 C 0.1249(3) 0.7782(3) 0.5165(2)
H25_4 H 0.1243 0.7922 0.5496
C50_4 C 0.1609(3) 0.7185(3) 0.5072(2)
C51_4 C 0.2052(3) 0.6715(3) 0.5394(2)
C52_4 C 0.2299(3) 0.6662(3) 0.5915(2)
H26_4 H 0.2161 0.6979 0.6137
C53_4 C 0.2753(3) 0.6136(3) 0.6102(2)
C54_4 C 0.2953(4) 0.5651(4) 0.5768(3)
H27_4 H 0.3252 0.5296 0.5897
C55_4 C 0.2716(4) 0.5693(4) 0.5252(3)
H28_4 H 0.2844 0.5367 0.5032
C56_4 C 0.2282(3) 0.6230(4) 0.5072(2)
C57_4 C 0.2052(3) 0.5977(3) 0.4135(2)
C58_4 C 0.2666(4) 0.5937(4) 0.3998(3)
H29_4 H 0.3032 0.6184 0.4177
C59_4 C 0.2734(4) 0.5525(4) 0.3590(3)
H30_4 H 0.3152 0.5493 0.3498
C60_4 C 0.2207(4) 0.5165(4) 0.3319(2)
C61_4 C 0.1589(4) 0.5218(4) 0.3461(3)
H31_4 H 0.1224 0.4970 0.3282
C62_4 C 0.1507(4) 0.5631(4) 0.3860(3)
H32_4 H 0.1085 0.5678 0.3945
C63_4 C 0.0565(3) 0.8835(3) 0.4852(3)
C64_4 C 0.3023(3) 0.6079(4) 0.6653(3)
C65_4 C 0.2338(5) 0.4668(5) 0.2899(3)
N3_4 N 0.1983(3) 0.6387(3) 0.4566(2)
O17_4 O 0.0565(2) 0.8985(2) 0.53089(18)
O30_4 O 0.0368(2) 0.9695(2) 0.63003(16)
C29_4 C 0.8072(3) 0.3409(3) 0.0242(2)
C30_4 C 0.7891(3) 0.3743(4) 0.0656(3)
H14_4 H 0.8189 0.3777 0.0966
C31_4 C 0.7248(3) 0.4025(3) 0.0588(3)
H15_4 H 0.7105 0.4230 0.0863
C32_4 C 0.6801(3) 0.4007(3) 0.0106(2)
C34_4 C 0.9274(3) 0.3038(4) 0.0595(3)
C35_4 C 0.9592(4) 0.2419(5) 0.0744(3)
H17_4 H 0.9412 0.2004 0.0596
C39_4 C 0.9545(4) 0.3677(5) 0.0808(3)
H20_4 H 0.9338 0.4105 0.0716
C41_4 C 0.6140(3) 0.4349(3) 0.0054(3)
N2_4 N 0.8678(3) 0.3071(3) 0.0208(2)
C22_4 C 0.8623(3) 0.2787(4) 0.9725(2)
C23_4 C 0.9101(3) 0.2427(4) 0.9517(3)
H11_4 H 0.9533 0.2351 0.9702
C24_4 C 0.8913(3) 0.2190(4) 0.9030(3)
H12_4 H 0.9217 0.1933 0.8886
C25_4 C 0.8263(3) 0.2328(3) 0.8739(2)
C26_4 C 0.7805(3) 0.2714(3) 0.8939(2)
H13_4 H 0.7384 0.2814 0.8745
C27_4 C 0.7983(3) 0.2954(3) 0.9442(2)
C28_4 C 0.7640(3) 0.3357(3) 0.9770(2)
C33_4 C 0.7001(3) 0.3665(3) 0.9706(2)
H16_4 H 0.6709 0.3638 0.9392
C40_4 C 0.8080(3) 0.2000(3) 0.8223(2)
C43_6 C 1.0000 0.1262(7) 0.7500
H21_6 H 1.0000 0.0776 0.7500
C44_4 C 0.9400(3) 0.0188(4) 0.8422(3)
H22_4 H 0.9355 0.0617 0.8576
O7_4 O 0.8479(2) 0.1563(3) 0.81148(18)
O8_4 O 0.7530(2) 0.2178(2) 0.79389(16)
O13_4 O 0.9449(3) 0.1525(3) 0.7494(3)
O14_4 O 0.9221(3) 0.0152(2) 0.79458(17)
C80_4 C 0.9826(4) 0.2396(6) 0.3891(3)
H40_4 H 0.9633 0.1963 0.3800
C81_4 C 0.9521(6) 0.2976(6) 0.3659(4)
C82_4 C 0.9847(5) 0.3623(7) 0.3829(4)
H41_4 H 0.9646 0.4036 0.3692
C86_4 C 0.8869(5) 0.2981(6) 0.3244(4)
O28_4 O 0.8636(6) 0.2411(5) 0.3142(5)
C1_4 C 0.8419(3) 0.6969(3) 0.0431(2)
C2_4 C 0.8780(3) 0.7338(4) 0.0844(3)
H1_4 H 0.8795 0.7185 0.1175
C3_4 C 0.9115(3) 0.7937(3) 0.0747(2)
H2_4 H 0.9353 0.8197 0.1016
C4_4 C 0.9096(3) 0.8159(3) 0.0240(3)
C13_4 C 0.7948(3) 0.5977(3) 0.0865(2)
C14_4 C 0.7334(4) 0.5937(4) 0.1002(3)
H7_4 H 0.6968 0.6184 0.0823
C15_4 C 0.7266(4) 0.5525(4) 0.1410(3)
H8_4 H 0.6848 0.5493 0.1502
C16_4 C 0.7793(4) 0.5165(4) 0.1681(2)
C17_4 C 0.8411(4) 0.5218(4) 0.1539(3)
H9_4 H 0.8776 0.4970 0.1718
C18_4 C 0.8493(4) 0.5631(4) 0.1140(3)
H10_4 H 0.8915 0.5678 0.1055
C19_4 C 0.9435(3) 0.8835(3) 0.0148(3)
C21_4 C 0.7662(5) 0.4668(5) 0.2101(3)
N1_4 N 0.8017(3) 0.6387(3) 0.0434(2)
C5_4 C 0.8751(3) 0.7782(3) 0.9835(2)
H3_4 H 0.8757 0.7922 0.9504
C6_4 C 0.8391(3) 0.7185(3) 0.9928(2)
C7_4 C 0.7948(3) 0.6715(3) 0.9606(2)
C8_4 C 0.7701(3) 0.6662(3) 0.9085(2)
H4_4 H 0.7839 0.6979 0.8863
C9_4 C 0.7247(3) 0.6136(3) 0.8898(2)
C10_4 C 0.7047(4) 0.5651(4) 0.9232(3)
H5_4 H 0.6748 0.5296 0.9103
C11_4 C 0.7284(4) 0.5693(4) 0.9748(3)
H6_4 H 0.7156 0.5367 0.9968
C12_4 C 0.7718(3) 0.6230(4) 0.9928(2)
C20_4 C 0.6977(3) 0.6079(4) 0.8347(3)
O1_4 O 0.9435(2) 0.8985(2) 0.96911(18)
O15_4 O 0.9632(2) 0.9695(2) 0.86997(16)
loop_
_geom_bond_atom_site_label_1
_geom_bond_atom_site_label_2
_geom_bond_site_symmetry_1
_geom_bond_site_symmetry_2
O21 C65 1_555 1_555
O22 C65 1_555 1_555
Zn16 O21 1_555 1_555
Zn22 O22 1_555 1_555
O5 C21 1_555 1_555
O6 C21 1_555 1_555
Zn15 O5 1_555 1_555
Zn20 O6 1_555 1_555
Zn1 O1 1_555 1_555
Zn2 O7 1_555 1_555
Zn3 O8 1_555 1_555
H3 C5 1_555 1_555
C7 C6 1_555 1_555
C8 C7 1_555 1_555
H4 C8 1_555 1_555
C9 C8 1_555 1_555
C10 C9 1_555 1_555
H5 C10 1_555 1_555
C11 C10 1_555 1_555
H6 C11 1_555 1_555
C12 C7 1_555 1_555
C20 C9 1_555 1_555
C22 C23 1_555 1_555
C23 H11 1_555 1_555
C24 C23 1_555 1_555
H12 C24 1_555 1_555
C25 C24 1_555 1_555
C26 C25 1_555 1_555
H13 C26 1_555 1_555
C27 C22 1_555 1_555
C28 C27 1_555 1_555
C33 C28 1_555 1_555
H16 C33 1_555 1_555
C40 C25 1_555 1_555
C43 H21 1_555 1_555
C44 H22 1_555 1_555
O3 C20 1_555 1_555
O4 C20 1_555 1_555
O7 C40 1_555 1_555
O8 C40 1_555 1_555
O13 Zn2 1_555 1_555
O14 Zn2 1_555 1_555
O15 Zn1 1_555 1_555
O16 C43 1_555 1_555
Zn4 O17 1_555 1_555
Zn5 O16 1_555 1_555
Zn6 O24 1_555 1_555
C45 C46 1_555 1_555
C46 H23 1_555 1_555
C47 C46 1_555 1_555
H24 C47 1_555 1_555
C48 C47 1_555 1_555
C49 C48 1_555 1_555
H25 C49 1_555 1_555
C50 C45 1_555 1_555
C51 C50 1_555 1_555
C52 C51 1_555 1_555
H26 C52 1_555 1_555
C53 C52 1_555 1_555
C54 C53 1_555 1_555
H27 C54 1_555 1_555
C55 C54 1_555 1_555
H28 C55 1_555 1_555
C56 C51 1_555 1_555
C57 C58 1_555 1_555
C58 H29 1_555 1_555
C59 C58 1_555 1_555
H30 C59 1_555 1_555
C60 C59 1_555 1_555
C61 C60 1_555 1_555
C62 C57 1_555 1_555
H32 C62 1_555 1_555
C63 C48 1_555 1_555
C64 C53 1_555 1_555
C66 C67 1_555 1_555
C67 H33 1_555 1_555
C68 C67 1_555 1_555
H34 C68 1_555 1_555
C69 C68 1_555 1_555
C70 C69 1_555 1_555
H35 C70 1_555 1_555
C71 C66 1_555 1_555
C72 C71 1_555 1_555
C73 C72 1_555 1_555
C74 C73 1_555 1_555
H36 C74 1_555 1_555
C75 C74 1_555 1_555
H37 C75 1_555 1_555
C76 C75 1_555 1_555
C77 C72 1_555 1_555
H38 C77 1_555 1_555
C78 C79 1_555 1_555
C79 H39 1_555 1_555
C80 C79 1_555 1_555
H40 C80 1_555 1_555
C81 C80 1_555 1_555
C82 C81 1_555 1_555
H41 C82 1_555 1_555
C83 C78 1_555 1_555
H42 C83 1_555 1_555
C84 C69 1_555 1_555
C85 C76 1_555 1_555
C86 C81 1_555 1_555
C87 H43 1_555 1_555
N3 C45 1_555 1_555
N4 C66 1_555 1_555
O17 C63 1_555 1_555
O18 C63 1_555 1_555
O19 C64 1_555 1_555
O20 C64 1_555 1_555
O23 Zn5 1_555 1_555
O24 C84 1_555 1_555
O25 C85 1_555 1_555
O26 C85 1_555 1_555
O27 C86 1_555 1_555
O28 C86 1_555 1_555
O29 Zn5 1_555 1_555
O30 Zn4 1_555 1_555
Zn10 O18 1_555 1_555
Zn13 O19 1_555 1_555
Zn14 O3 1_555 1_555
Zn17 O19 1_555 1_555
Zn18 O3 1_555 1_555
Zn20 O27 1_555 1_555
O31 Zn1 1_555 1_555
O32 Zn4 1_555 1_555
O33 Zn5 1_555 1_555
O34 Zn2 1_555 1_555
O35 Zn5 1_555 1_555
O36 Zn2 1_555 1_555
O37 Zn2 1_555 1_555
O38 Zn5 1_555 1_555
O39 Zn3 1_555 1_555
O40 Zn6 1_555 1_555
O41 Zn1 1_555 1_555
O42 Zn4 1_555 1_555
O43 Zn1 1_555 1_555
O44 Zn4 1_555 1_555
O45 Zn6 1_555 1_555
O46 Zn3 1_555 1_555
Zn3 O34 1_555 1_555
C5 C6 1_555 1_555
C11 C12 1_555 1_555
C26 C27 1_555 1_555
C43 O13 1_555 1_555
C44 O14 1_555 1_555
C44 O15 1_555 1_555
O4 Zn14 1_555 1_555
Zn6 O33 1_555 1_555
C49 C50 1_555 1_555
C55 C56 1_555 1_555
C56 N3 1_555 1_555
C57 N3 1_555 1_555
C61 C62 1_555 1_555
C70 C71 1_555 1_555
C73 N4 1_555 1_555
C76 C77 1_555 1_555
C78 N4 1_555 1_555
C82 C83 1_555 1_555
C84 O23 1_555 1_555
C87 O29 1_555 1_555
C87 O30 1_555 1_555
O20 Zn13 1_555 1_555
C1 C2 1_555 1_555
C2 H1 1_555 1_555
C3 C2 1_555 1_555
H2 C3 1_555 1_555
C4 C3 1_555 1_555
C13 C14 1_555 1_555
C14 H7 1_555 1_555
C15 C14 1_555 1_555
H8 C15 1_555 1_555
C16 C15 1_555 1_555
C17 C16 1_555 1_555
C18 C13 1_555 1_555
H10 C18 1_555 1_555
C19 C4 1_555 1_555
C30 C29 1_555 1_555
H14 C30 1_555 1_555
C31 C30 1_555 1_555
H15 C31 1_555 1_555
C32 C31 1_555 1_555
C34 C35 1_555 1_555
C35 H17 1_555 1_555
C36 C35 1_555 1_555
H18 C36 1_555 1_555
C37 C36 1_555 1_555
C38 C37 1_555 1_555
H19 C38 1_555 1_555
C39 C34 1_555 1_555
H20 C39 1_555 1_555
C41 C32 1_555 1_555
C42 C37 1_555 1_555
N1 C1 1_555 1_555
O2 C19 1_555 1_555
O10 C41 1_555 1_555
O11 C42 1_555 1_555
O12 C42 1_555 1_555
Zn9 O2 1_555 1_555
Zn22 O11 1_555 1_555
C13 N1 1_555 1_555
C17 C18 1_555 1_555
C29 N2 1_555 1_555
C34 N2 1_555 1_555
C38 C39 1_555 1_555
Zn7 O1_2 1_555 1_555
H3_2 C5_2 1_555 1_555
C7_2 C6_2 1_555 1_555
C8_2 C7_2 1_555 1_555
H4_2 C8_2 1_555 1_555
C9_2 C8_2 1_555 1_555
C10_2 C9_2 1_555 1_555
H5_2 C10_2 1_555 1_555
C11_2 C10_2 1_555 1_555
H6_2 C11_2 1_555 1_555
C12_2 C7_2 1_555 1_555
C20_2 C9_2 1_555 1_555
O33 C20_2 1_555 1_555
O35 C20_2 1_555 1_555
O15_2 Zn7 1_555 1_555
C5_2 C6_2 1_555 1_555
C11_2 C12_2 1_555 1_555
C1_2 C2_2 1_555 1_555
C2_2 H1_2 1_555 1_555
C3_2 C2_2 1_555 1_555
H2_2 C3_2 1_555 1_555
C4_2 C3_2 1_555 1_555
C13_2 C14_2 1_555 1_555
C14_2 H7_2 1_555 1_555
C15_2 C14_2 1_555 1_555
H8_2 C15_2 1_555 1_555
C16_2 C15_2 1_555 1_555
C17_2 C16_2 1_555 1_555
H9_2 C17_2 1_555 1_555
C18_2 C13_2 1_555 1_555
H10_2 C18_2 1_555 1_555
C19_2 C4_2 1_555 1_555
C21_2 C16_2 1_555 1_555
N1_2 C1_2 1_555 1_555
O2_2 C19_2 1_555 1_555
O5_2 C21_2 1_555 1_555
O6_2 C21_2 1_555 1_555
Zn15_2 O5_2 1_555 1_555
Zn20_2 O6_2 1_555 1_555
C13_2 N1_2 1_555 1_555
C17_2 C18_2 1_555 1_555
Zn13 O7_2 1_555 1_555
Zn17 O8_2 1_555 1_555
C22_2 C23_2 1_555 1_555
C23_2 H11_2 1_555 1_555
C24_2 C23_2 1_555 1_555
H12_2 C24_2 1_555 1_555
C25_2 C24_2 1_555 1_555
C26_2 C25_2 1_555 1_555
H13_2 C26_2 1_555 1_555
C27_2 C22_2 1_555 1_555
C28_2 C27_2 1_555 1_555
C33_2 C28_2 1_555 1_555
H16_2 C33_2 1_555 1_555
C40_2 C25_2 1_555 1_555
C43_2 H21_2 1_555 1_555
C44_2 H22_2 1_555 1_555
O7_2 C40_2 1_555 1_555
O8_2 C40_2 1_555 1_555
O13_2 Zn13 1_555 1_555
O14_2 Zn13 1_555 1_555
H40_2 C80_2 1_555 1_555
C81_2 C80_2 1_555 1_555
C82_2 C81_2 1_555 1_555
H41_2 C82_2 1_555 1_555
C86_2 C81_2 1_555 1_555
O27_2 C86_2 1_555 1_555
O28_2 C86_2 1_555 1_555
Zn20_2 O27_2 1_555 1_555
O37_2 Zn13 1_555 1_555
O39_2 Zn17 1_555 1_555
O46_2 Zn17 1_555 1_555
C26_2 C27_2 1_555 1_555
C43_2 O13_2 1_555 1_555
C44_2 O14_2 1_555 1_555
C30_2 C29_2 1_555 1_555
H14_2 C30_2 1_555 1_555
C31_2 C30_2 1_555 1_555
H15_2 C31_2 1_555 1_555
C32_2 C31_2 1_555 1_555
C34_2 C35_2 1_555 1_555
C35_2 H17_2 1_555 1_555
C39_2 C34_2 1_555 1_555
H20_2 C39_2 1_555 1_555
C41_2 C32_2 1_555 1_555
O10_2 C41_2 1_555 1_555
Zn9 O10_2 1_555 1_555
C29_2 N2_2 1_555 1_555
C34_2 N2_2 1_555 1_555
Zn8 O17_2 1_555 1_555
C45_2 C46_2 1_555 1_555
C46_2 H23_2 1_555 1_555
C47_2 C46_2 1_555 1_555
H24_2 C47_2 1_555 1_555
C48_2 C47_2 1_555 1_555
C49_2 C48_2 1_555 1_555
H25_2 C49_2 1_555 1_555
C50_2 C45_2 1_555 1_555
C51_2 C50_2 1_555 1_555
C52_2 C51_2 1_555 1_555
H26_2 C52_2 1_555 1_555
C53_2 C52_2 1_555 1_555
C54_2 C53_2 1_555 1_555
H27_2 C54_2 1_555 1_555
C55_2 C54_2 1_555 1_555
H28_2 C55_2 1_555 1_555
C56_2 C51_2 1_555 1_555
C57_2 C58_2 1_555 1_555
C58_2 H29_2 1_555 1_555
C59_2 C58_2 1_555 1_555
H30_2 C59_2 1_555 1_555
C60_2 C59_2 1_555 1_555
C61_2 C60_2 1_555 1_555
H31_2 C61_2 1_555 1_555
C62_2 C57_2 1_555 1_555
H32_2 C62_2 1_555 1_555
C63_2 C48_2 1_555 1_555
C64_2 C53_2 1_555 1_555
C65_2 C60_2 1_555 1_555
N3_2 C45_2 1_555 1_555
O17_2 C63_2 1_555 1_555
O18_2 C63_2 1_555 1_555
O34 C64_2 1_555 1_555
O36 C64_2 1_555 1_555
O21_2 C65_2 1_555 1_555
O22_2 C65_2 1_555 1_555
O30_2 Zn8 1_555 1_555
Zn16_2 O21_2 1_555 1_555
Zn22_2 O22_2 1_555 1_555
C49_2 C50_2 1_555 1_555
C55_2 C56_2 1_555 1_555
C56_2 N3_2 1_555 1_555
C57_2 N3_2 1_555 1_555
C61_2 C62_2 1_555 1_555
C43_3 H21_3 1_555 1_555
O16_2 C43_3 1_555 1_555
Zn14 O16_2 1_555 1_555
Zn18 O24_2 1_555 1_555
C66_2 C67_2 1_555 1_555
C67_2 H33_2 1_555 1_555
C68_2 C67_2 1_555 1_555
H34_2 C68_2 1_555 1_555
C69_2 C68_2 1_555 1_555
C70_2 C69_2 1_555 1_555
H35_2 C70_2 1_555 1_555
C71_2 C66_2 1_555 1_555
C72_2 C71_2 1_555 1_555
C73_2 C72_2 1_555 1_555
C74_2 C73_2 1_555 1_555
H36_2 C74_2 1_555 1_555
C75_2 C74_2 1_555 1_555
H37_2 C75_2 1_555 1_555
C76_2 C75_2 1_555 1_555
C77_2 C72_2 1_555 1_555
H38_2 C77_2 1_555 1_555
C78_2 C79_2 1_555 1_555
C79_2 H39_2 1_555 1_555
C83_2 C78_2 1_555 1_555
H42_2 C83_2 1_555 1_555
C84_2 C69_2 1_555 1_555
C85_2 C76_2 1_555 1_555
C87_2 H43_2 1_555 1_555
N4_2 C66_2 1_555 1_555
O23_2 Zn14 1_555 1_555
O24_2 C84_2 1_555 1_555
O42 C85_2 1_555 1_555
O26_2 C85_2 1_555 1_555
O29_2 Zn14 1_555 1_555
Zn10 O26_2 1_555 1_555
O38_2 Zn14 1_555 1_555
O40_2 Zn18 1_555 1_555
O45_2 Zn18 1_555 1_555
C70_2 C71_2 1_555 1_555
C73_2 N4_2 1_555 1_555
C76_2 C77_2 1_555 1_555
C78_2 N4_2 1_555 1_555
C84_2 O23_2 1_555 1_555
C87_2 O29_2 1_555 1_555
H18_2 C36_2 1_555 1_555
C37_2 C36_2 1_555 1_555
C38_2 C37_2 1_555 1_555
H19_2 C38_2 1_555 1_555
C42_2 C37_2 1_555 1_555
O11_2 C42_2 1_555 1_555
O12_2 C42_2 1_555 1_555
Zn22_2 O11_2 1_555 1_555
C1_3 C2_3 1_555 1_555
C2_3 H1_3 1_555 1_555
C3_3 C2_3 1_555 1_555
H2_3 C3_3 1_555 1_555
C4_3 C3_3 1_555 1_555
C13_3 C14_3 1_555 1_555
C14_3 H7_3 1_555 1_555
C15_3 C14_3 1_555 1_555
H8_3 C15_3 1_555 1_555
C16_3 C15_3 1_555 1_555
C17_3 C16_3 1_555 1_555
C18_3 C13_3 1_555 1_555
H10_3 C18_3 1_555 1_555
C19_3 C4_3 1_555 1_555
C30_3 C29_3 1_555 1_555
H14_3 C30_3 1_555 1_555
C31_3 C30_3 1_555 1_555
H15_3 C31_3 1_555 1_555
C32_3 C31_3 1_555 1_555
C34_3 C35_3 1_555 1_555
C35_3 H17_3 1_555 1_555
C36_3 C35_3 1_555 1_555
H18_3 C36_3 1_555 1_555
C37_3 C36_3 1_555 1_555
C38_3 C37_3 1_555 1_555
H19_3 C38_3 1_555 1_555
C39_3 C34_3 1_555 1_555
H20_3 C39_3 1_555 1_555
C41_3 C32_3 1_555 1_555
C42_3 C37_3 1_555 1_555
N1_3 C1_3 1_555 1_555
O31 C19_3 1_555 1_555
O43_2 C41_3 1_555 1_555
O45_2 C42_3 1_555 1_555
O12_3 C42_3 1_555 1_555
C13_3 N1_3 1_555 1_555
C17_3 C18_3 1_555 1_555
C29_3 N2_3 1_555 1_555
C34_3 N2_3 1_555 1_555
C38_3 C39_3 1_555 1_555
Zn9 O1_3 1_555 1_555
Zn15_2 O7_3 1_555 1_555
Zn20_2 O8_3 1_555 1_555
H3_3 C5_3 1_555 1_555
C7_3 C6_3 1_555 1_555
C8_3 C7_3 1_555 1_555
H4_3 C8_3 1_555 1_555
C9_3 C8_3 1_555 1_555
C10_3 C9_3 1_555 1_555
H5_3 C10_3 1_555 1_555
C11_3 C10_3 1_555 1_555
H6_3 C11_3 1_555 1_555
C12_3 C7_3 1_555 1_555
C20_3 C9_3 1_555 1_555
C22_3 C23_3 1_555 1_555
C23_3 H11_3 1_555 1_555
C24_3 C23_3 1_555 1_555
H12_3 C24_3 1_555 1_555
C25_3 C24_3 1_555 1_555
C26_3 C25_3 1_555 1_555
H13_3 C26_3 1_555 1_555
C27_3 C22_3 1_555 1_555
C28_3 C27_3 1_555 1_555
C33_3 C28_3 1_555 1_555
H16_3 C33_3 1_555 1_555
C40_3 C25_3 1_555 1_555
C43_4 H21_4 1_555 1_555
C44_3 H22_3 1_555 1_555
O3_2 C20_3 1_555 1_555
O4_2 C20_3 1_555 1_555
O7_3 C40_3 1_555 1_555
O8_3 C40_3 1_555 1_555
O13_3 Zn15_2 1_555 1_555
O14_3 Zn15_2 1_555 1_555
O15_3 Zn9 1_555 1_555
O16_3 C43_4 1_555 1_555
Zn10 O17_3 1_555 1_555
Zn16_2 O16_3 1_555 1_555
Zn22_2 O24_3 1_555 1_555
C45_3 C46_3 1_555 1_555
C46_3 H23_3 1_555 1_555
C47_3 C46_3 1_555 1_555
H24_3 C47_3 1_555 1_555
C48_3 C47_3 1_555 1_555
C49_3 C48_3 1_555 1_555
H25_3 C49_3 1_555 1_555
C50_3 C45_3 1_555 1_555
C51_3 C50_3 1_555 1_555
C52_3 C51_3 1_555 1_555
H26_3 C52_3 1_555 1_555
C53_3 C52_3 1_555 1_555
C54_3 C53_3 1_555 1_555
H27_3 C54_3 1_555 1_555
C55_3 C54_3 1_555 1_555
H28_3 C55_3 1_555 1_555
C56_3 C51_3 1_555 1_555
C57_3 C58_3 1_555 1_555
C58_3 H29_3 1_555 1_555
C59_3 C58_3 1_555 1_555
H30_3 C59_3 1_555 1_555
C60_3 C59_3 1_555 1_555
C61_3 C60_3 1_555 1_555
C62_3 C57_3 1_555 1_555
H32_3 C62_3 1_555 1_555
C63_3 C48_3 1_555 1_555
C64_3 C53_3 1_555 1_555
C66_3 C67_3 1_555 1_555
C67_3 H33_3 1_555 1_555
C68_3 C67_3 1_555 1_555
H34_3 C68_3 1_555 1_555
C69_3 C68_3 1_555 1_555
C70_3 C69_3 1_555 1_555
H35_3 C70_3 1_555 1_555
C71_3 C66_3 1_555 1_555
C72_3 C71_3 1_555 1_555
C73_3 C72_3 1_555 1_555
C74_3 C73_3 1_555 1_555
H36_3 C74_3 1_555 1_555
C75_3 C74_3 1_555 1_555
H37_3 C75_3 1_555 1_555
C76_3 C75_3 1_555 1_555
C77_3 C72_3 1_555 1_555
H38_3 C77_3 1_555 1_555
C78_3 C79_3 1_555 1_555
C79_3 H39_3 1_555 1_555
C80_3 C79_3 1_555 1_555
H40_3 C80_3 1_555 1_555
C81_3 C80_3 1_555 1_555
C82_3 C81_3 1_555 1_555
H41_3 C82_3 1_555 1_555
C83_3 C78_3 1_555 1_555
H42_3 C83_3 1_555 1_555
C84_3 C69_3 1_555 1_555
C85_3 C76_3 1_555 1_555
C86_3 C81_3 1_555 1_555
C87_3 H43_3 1_555 1_555
N3_3 C45_3 1_555 1_555
N4_3 C66_3 1_555 1_555
O17_3 C63_3 1_555 1_555
O32 C63_3 1_555 1_555
O19_2 C64_3 1_555 1_555
O20_2 C64_3 1_555 1_555
O23_3 Zn16_2 1_555 1_555
O24_3 C84_3 1_555 1_555
O25_2 C85_3 1_555 1_555
O44_2 C85_3 1_555 1_555
O46_2 C86_3 1_555 1_555
O28_3 C86_3 1_555 1_555
O29_3 Zn16_2 1_555 1_555
O30_3 Zn10 1_555 1_555
Zn15 O19_2 1_555 1_555
Zn16 O3_2 1_555 1_555
Zn20 O19_2 1_555 1_555
Zn22 O3_2 1_555 1_555
O33_2 Zn16_2 1_555 1_555
O34_2 Zn15_2 1_555 1_555
O35_2 Zn16_2 1_555 1_555
O36_2 Zn15_2 1_555 1_555
O41_2 Zn9 1_555 1_555
O42_2 Zn10 1_555 1_555
Zn20_2 O34_2 1_555 1_555
C5_3 C6_3 1_555 1_555
C11_3 C12_3 1_555 1_555
C26_3 C27_3 1_555 1_555
C43_4 O13_3 1_555 1_555
C44_3 O14_3 1_555 1_555
C44_3 O15_3 1_555 1_555
O4_2 Zn16 1_555 1_555
Zn22_2 O33_2 1_555 1_555
C49_3 C50_3 1_555 1_555
C55_3 C56_3 1_555 1_555
C56_3 N3_3 1_555 1_555
C57_3 N3_3 1_555 1_555
C61_3 C62_3 1_555 1_555
C70_3 C71_3 1_555 1_555
C73_3 N4_3 1_555 1_555
C76_3 C77_3 1_555 1_555
C78_3 N4_3 1_555 1_555
C82_3 C83_3 1_555 1_555
C84_3 O23_3 1_555 1_555
C87_3 O29_3 1_555 1_555
C87_3 O30_3 1_555 1_555
O20_2 Zn15 1_555 1_555
O37_2 C21_3 1_555 1_555
O39_2 C21_3 1_555 1_555
O38_2 C65_3 1_555 1_555
O40_2 C65_3 1_555 1_555
H18_4 C36_4 1_555 1_555
C37_4 C36_4 1_555 1_555
C38_4 C37_4 1_555 1_555
H19_4 C38_4 1_555 1_555
C42_4 C37_4 1_555 1_555
O45 C42_4 1_555 1_555
O12_4 C42_4 1_555 1_555
C43_5 H21_5 1_555 1_555
O16_4 C43_5 1_555 1_555
Zn16 O16_4 1_555 1_555
Zn22 O24_4 1_555 1_555
C66_4 C67_4 1_555 1_555
C67_4 H33_4 1_555 1_555
C68_4 C67_4 1_555 1_555
H34_4 C68_4 1_555 1_555
C69_4 C68_4 1_555 1_555
C70_4 C69_4 1_555 1_555
H35_4 C70_4 1_555 1_555
C71_4 C66_4 1_555 1_555
C72_4 C71_4 1_555 1_555
C73_4 C72_4 1_555 1_555
C74_4 C73_4 1_555 1_555
H36_4 C74_4 1_555 1_555
C75_4 C74_4 1_555 1_555
H37_4 C75_4 1_555 1_555
C76_4 C75_4 1_555 1_555
C77_4 C72_4 1_555 1_555
H38_4 C77_4 1_555 1_555
C78_4 C79_4 1_555 1_555
C79_4 H39_4 1_555 1_555
C83_4 C78_4 1_555 1_555
H42_4 C83_4 1_555 1_555
C84_4 C69_4 1_555 1_555
C85_4 C76_4 1_555 1_555
C87_4 H43_4 1_555 1_555
N4_4 C66_4 1_555 1_555
O23_4 Zn16 1_555 1_555
O24_4 C84_4 1_555 1_555
O42_2 C85_4 1_555 1_555
O44 C85_4 1_555 1_555
O29_4 Zn16 1_555 1_555
C70_4 C71_4 1_555 1_555
C73_4 N4_4 1_555 1_555
C76_4 C77_4 1_555 1_555
C78_4 N4_4 1_555 1_555
C84_4 O23_4 1_555 1_555
C87_4 O29_4 1_555 1_555
Zn12 O17_4 1_555 1_555
C45_4 C46_4 1_555 1_555
C46_4 H23_4 1_555 1_555
C47_4 C46_4 1_555 1_555
H24_4 C47_4 1_555 1_555
C48_4 C47_4 1_555 1_555
C49_4 C48_4 1_555 1_555
H25_4 C49_4 1_555 1_555
C50_4 C45_4 1_555 1_555
C51_4 C50_4 1_555 1_555
C52_4 C51_4 1_555 1_555
H26_4 C52_4 1_555 1_555
C53_4 C52_4 1_555 1_555
C54_4 C53_4 1_555 1_555
H27_4 C54_4 1_555 1_555
C55_4 C54_4 1_555 1_555
H28_4 C55_4 1_555 1_555
C56_4 C51_4 1_555 1_555
C57_4 C58_4 1_555 1_555
C58_4 H29_4 1_555 1_555
C59_4 C58_4 1_555 1_555
H30_4 C59_4 1_555 1_555
C60_4 C59_4 1_555 1_555
C61_4 C60_4 1_555 1_555
H31_4 C61_4 1_555 1_555
C62_4 C57_4 1_555 1_555
H32_4 C62_4 1_555 1_555
C63_4 C48_4 1_555 1_555
C64_4 C53_4 1_555 1_555
C65_4 C60_4 1_555 1_555
N3_4 C45_4 1_555 1_555
O17_4 C63_4 1_555 1_555
O32_2 C63_4 1_555 1_555
O34_2 C64_4 1_555 1_555
O36_2 C64_4 1_555 1_555
O38 C65_4 1_555 1_555
O40 C65_4 1_555 1_555
O30_4 Zn12 1_555 1_555
C49_4 C50_4 1_555 1_555
C55_4 C56_4 1_555 1_555
C56_4 N3_4 1_555 1_555
C57_4 N3_4 1_555 1_555
C61_4 C62_4 1_555 1_555
C30_4 C29_4 1_555 1_555
H14_4 C30_4 1_555 1_555
C31_4 C30_4 1_555 1_555
H15_4 C31_4 1_555 1_555
C32_4 C31_4 1_555 1_555
C34_4 C35_4 1_555 1_555
C35_4 H17_4 1_555 1_555
C39_4 C34_4 1_555 1_555
H20_4 C39_4 1_555 1_555
C41_4 C32_4 1_555 1_555
O43 C41_4 1_555 1_555
C29_4 N2_4 1_555 1_555
C34_4 N2_4 1_555 1_555
Zn15 O7_4 1_555 1_555
Zn20 O8_4 1_555 1_555
C22_4 C23_4 1_555 1_555
C23_4 H11_4 1_555 1_555
C24_4 C23_4 1_555 1_555
H12_4 C24_4 1_555 1_555
C25_4 C24_4 1_555 1_555
C26_4 C25_4 1_555 1_555
H13_4 C26_4 1_555 1_555
C27_4 C22_4 1_555 1_555
C28_4 C27_4 1_555 1_555
C33_4 C28_4 1_555 1_555
H16_4 C33_4 1_555 1_555
C40_4 C25_4 1_555 1_555
C43_6 H21_6 1_555 1_555
C44_4 H22_4 1_555 1_555
O7_4 C40_4 1_555 1_555
O8_4 C40_4 1_555 1_555
O13_4 Zn15 1_555 1_555
O14_4 Zn15 1_555 1_555
H40_4 C80_4 1_555 1_555
C81_4 C80_4 1_555 1_555
C82_4 C81_4 1_555 1_555
H41_4 C82_4 1_555 1_555
C86_4 C81_4 1_555 1_555
O46 C86_4 1_555 1_555
O28_4 C86_4 1_555 1_555
C26_4 C27_4 1_555 1_555
C43_6 O13_4 1_555 1_555
C44_4 O14_4 1_555 1_555
C1_4 C2_4 1_555 1_555
C2_4 H1_4 1_555 1_555
C3_4 C2_4 1_555 1_555
H2_4 C3_4 1_555 1_555
C4_4 C3_4 1_555 1_555
C13_4 C14_4 1_555 1_555
C14_4 H7_4 1_555 1_555
C15_4 C14_4 1_555 1_555
H8_4 C15_4 1_555 1_555
C16_4 C15_4 1_555 1_555
C17_4 C16_4 1_555 1_555
H9_4 C17_4 1_555 1_555
C18_4 C13_4 1_555 1_555
H10_4 C18_4 1_555 1_555
C19_4 C4_4 1_555 1_555
C21_4 C16_4 1_555 1_555
N1_4 C1_4 1_555 1_555
O31_2 C19_4 1_555 1_555
O37 C21_4 1_555 1_555
O39 C21_4 1_555 1_555
C13_4 N1_4 1_555 1_555
C17_4 C18_4 1_555 1_555
Zn11 O1_4 1_555 1_555
H3_4 C5_4 1_555 1_555
C7_4 C6_4 1_555 1_555
C8_4 C7_4 1_555 1_555
H4_4 C8_4 1_555 1_555
C9_4 C8_4 1_555 1_555
C10_4 C9_4 1_555 1_555
H5_4 C10_4 1_555 1_555
C11_4 C10_4 1_555 1_555
H6_4 C11_4 1_555 1_555
C12_4 C7_4 1_555 1_555
C20_4 C9_4 1_555 1_555
O33_2 C20_4 1_555 1_555
O35_2 C20_4 1_555 1_555
O15_4 Zn11 1_555 1_555
C5_4 C6_4 1_555 1_555
C11_4 C12_4 1_555 1_555

#END
