
###############################################################################
#
# This file contains modified crystal structure data generated from the
# MOF subset of the Cambridge Structural Database (CSD) v543 
# hosted by the Cambridge Crystallographic Data Centre (CCDC).
#
# This work is licensed under the Creative Commons
# Attribution-NonCommercial-ShareAlike 4.0 International License.
# To view a copy of this license, visit
# http://creativecommons.org/licenses/by-nc-sa/4.0/
# or send a letter to
# Creative Commons, PO Box 1866, Mountain View, CA 94042, USA.
#
# CIF created using the CSD Python API on 29 September 2022
# The structure has been converted into the P1 space group
# The structure has a 3D framework
# The original CSD entry HOKMUR is in the monoclinic crystal system
# The framework has been calculated to contain at least 10.0% void space
# The void calculation uses a probe of radius 1.32A, grid spacing 0.4
#
###############################################################################

data_HOKMUR
_chemical_formula_moiety         '(C32 H48 N64 Zn8)n'
_symmetry_cell_setting           triclinic
_symmetry_space_group_name_H-M   'P 1'
_symmetry_Int_Tables_number      1
_space_group_name_Hall           'P 1'
loop_
_symmetry_equiv_pos_site_id
_symmetry_equiv_pos_as_xyz
1 x,y,z
_cell_length_a                   19.2148(14)
_cell_length_b                   13.3436(8)
_cell_length_c                   10.6713(5)
_cell_angle_alpha                90
_cell_angle_beta                 95.038(6)
_cell_angle_gamma                90
_cell_volume                     2725.49
loop_
_atom_site_label
_atom_site_type_symbol
_atom_site_fract_x
_atom_site_fract_y
_atom_site_fract_z
Zn6 Zn 0.02544(7) 0.10827(7) 0.10305(14)
Zn2 Zn 0.02544(7) 0.89173(7) 0.60305(14)
N13 N 0.2160(5) 0.7946(6) 0.5083(8)
N14 N 0.1187(4) 0.8239(6) 0.5939(6)
N15 N 0.1635(5) 0.8590(6) 0.5126(7)
N16 N 0.2070(4) 0.7230(5) 0.5860(6)
C5 C 0.1114(7) 0.6824(10) 0.7364(11)
H7 H 0.1381 0.6233 0.7591
H8 H 0.0654 0.6634 0.7023
H9 H 0.1080 0.7232 0.8096
C6 C 0.1472(5) 0.7413(7) 0.6383(7)
N28 N 0.0199(4) 0.9427(6) 0.7728(7)
N29 N 0.0145(6) 0.8740(6) 0.8598(7)
N31 N 0.0154(5) 0.9126(6) 0.9726(7)
Zn8 Zn 0.27506(8) 0.60882(7) 0.5976(2)
N35 N 0.0210(4) 0.9869(6) 0.4610(6)
Zn7 Zn 0.52337(6) 0.10891(8) 0.06569(15)
N27 N 0.5236(4) 0.0172(5) 0.9204(6)
C10 C 0.5052(8) 0.1275(8) 0.7371(9)
H13 H 0.5046 0.1182 0.6478
H14 H 0.5410 0.1748 0.7645
H15 H 0.4606 0.1524 0.7572
C11 C 0.5195(5) 0.0309(7) 0.8012(7)
H24 H 0.9950 0.1742 0.7943
Zn5 Zn 0.77454(8) 0.39144(7) 0.0763(2)
Zn9 Zn 0.27506(8) 0.39118(7) 0.0976(2)
Zn1 Zn 0.77454(8) 0.60856(7) 0.5763(2)
Zn3 Zn 0.52337(6) 0.89109(8) 0.56569(15)
N1 N 0.4536(5) 0.7179(8) 0.4674(8)
N2 N 0.4028(5) 0.6577(8) 0.4712(8)
N3 N 0.4490(4) 0.7844(5) 0.5540(7)
N4 N 0.3651(4) 0.6813(5) 0.5756(6)
N5 N 0.7102(5) 0.7926(7) 0.4747(7)
N6 N 0.6621(5) 0.8524(7) 0.4734(7)
N7 N 0.7000(4) 0.7087(5) 0.5479(6)
N8 N 0.6123(5) 0.8095(6) 0.5483(6)
N9 N 0.9703(5) 0.6956(7) 0.5173(8)
N10 N 0.9161(5) 0.6359(6) 0.5126(9)
N11 N 0.8662(4) 0.6807(6) 0.5665(7)
N12 N 0.9539(4) 0.7839(6) 0.5768(6)
N17 N 0.7675(6) 0.5866(7) 0.9479(7)
N18 N 0.7669(6) 0.6306(6) 0.8373(6)
N19 N 0.7727(4) 0.5552(5) 0.7498(6)
N20 N 0.7734(4) 0.4867(5) 0.9327(6)
N22 N 0.2711(4) 0.4856(6) 0.9521(6)
N23 N 0.2770(5) 0.5559(6) 0.7707(6)
N24 N 0.5460(6) 0.9258(9) 0.9343(8)
N25 N 0.5493(6) 0.8758(7) 0.8286(7)
N26 N 0.5331(4) 0.9481(6) 0.7405(6)
C1 C 0.3961(5) 0.7596(7) 0.6189(7)
C2 C 0.3719(7) 0.8058(12) 0.7272(11)
H1 H 0.3999 0.8638 0.7494
H2 H 0.3754 0.7592 0.7959
H3 H 0.3240 0.8257 0.7092
C3 C 0.6419(6) 0.7226(8) 0.5933(8)
C4 C 0.6053(7) 0.6576(10) 0.6728(12)
H4 H 0.5629 0.6896 0.6930
H5 H 0.6342 0.6442 0.7489
H6 H 0.5942 0.5958 0.6296
C7 C 0.7749(5) 0.4712(7) 0.8114(7)
C8 C 0.8891(6) 0.7726(8) 0.6073(8)
C9 C 0.8535(6) 0.8457(9) 0.6735(12)
H10 H 0.8075 0.8218 0.6861
H11 H 0.8500 0.9067 0.6256
H12 H 0.8788 0.8581 0.7536
C12 C 0.2503(8) 0.3737(8) 0.7658(11)
H16 H 0.2488 0.3835 0.6765
H17 H 0.2062 0.3482 0.7872
H18 H 0.2866 0.3266 0.7917
C13 C 0.7840(9) 0.3671(9) 0.7611(11)
H19 H 0.7838 0.3196 0.8286
H20 H 0.8277 0.3630 0.7240
H21 H 0.7464 0.3524 0.6986
C14 C 0.2647(5) 0.4692(6) 0.8299(7)
N30 N 0.2869(6) 0.5813(6) 0.9698(7)
N32 N 0.2956(6) 0.6213(6) 0.8622(8)
N34 N 0.7734(4) 0.5133(5) 0.4327(6)
N36 N 0.2711(4) 0.5144(6) 0.4521(6)
N37 N 0.5236(4) 0.9828(5) 0.4204(6)
N13_2 N 0.2160(5) 0.2054(6) 0.0083(8)
N14_2 N 0.1187(4) 0.1761(6) 0.0939(6)
N15_2 N 0.1635(5) 0.1410(6) 0.0126(7)
N16_2 N 0.2070(4) 0.2770(5) 0.0860(6)
C5_2 C 0.1114(7) 0.3176(10) 0.2364(11)
H7_2 H 0.1381 0.3767 0.2591
H8_2 H 0.0654 0.3366 0.2023
H9_2 H 0.1080 0.2768 0.3096
C6_2 C 0.1472(5) 0.2587(7) 0.1383(7)
N28_2 N 0.0199(4) 0.0573(6) 0.2728(7)
N29_2 N 0.0145(6) 0.1260(6) 0.3598(7)
N31_2 N 0.0154(5) 0.0874(6) 0.4726(7)
C15 C 0.0222(5) 0.9687(7) 0.3367(8)
C16 C 0.0320(7) 0.8704(8) 0.2758(9)
H22 H 0.0311 0.8794 0.1864
H23 H 0.0761 0.8423 0.3073
N3_2 N 0.4490(4) 0.2156(5) 0.0540(7)
N4_2 N 0.3651(4) 0.3187(5) 0.0756(6)
N7_2 N 0.7000(4) 0.2913(5) 0.0479(6)
N8_2 N 0.6123(5) 0.1905(6) 0.0483(6)
N9_2 N 0.9703(5) 0.3044(7) 0.0173(8)
N10_2 N 0.9161(5) 0.3641(6) 0.0126(9)
N11_2 N 0.8662(4) 0.3193(6) 0.0665(7)
N12_2 N 0.9539(4) 0.2161(6) 0.0768(6)
N17_2 N 0.7675(6) 0.4134(7) 0.4479(7)
N18_2 N 0.7669(6) 0.3694(6) 0.3373(6)
N19_2 N 0.7727(4) 0.4448(5) 0.2498(6)
N23_2 N 0.2770(5) 0.4441(6) 0.2707(6)
N24_2 N 0.5460(6) 0.0742(9) 0.4343(8)
N25_2 N 0.5493(6) 0.1242(7) 0.3286(7)
N26_2 N 0.5331(4) 0.0519(6) 0.2405(6)
C1_2 C 0.3961(5) 0.2404(7) 0.1189(7)
C2_2 C 0.3719(7) 0.1942(12) 0.2272(11)
H1_2 H 0.3999 0.1362 0.2494
H2_2 H 0.3754 0.2408 0.2959
H3_2 H 0.3240 0.1743 0.2092
C3_2 C 0.6419(6) 0.2774(8) 0.0933(8)
C4_2 C 0.6053(7) 0.3424(10) 0.1728(12)
H4_2 H 0.5629 0.3104 0.1930
H5_2 H 0.6342 0.3558 0.2489
H6_2 H 0.5942 0.4042 0.1296
C7_2 C 0.7749(5) 0.5288(7) 0.3114(7)
C8_2 C 0.8891(6) 0.2274(8) 0.1073(8)
C9_2 C 0.8535(6) 0.1543(9) 0.1735(12)
H10_2 H 0.8075 0.1782 0.1861
H11_2 H 0.8500 0.0933 0.1256
H12_2 H 0.8788 0.1419 0.2536
C12_2 C 0.2503(8) 0.6263(8) 0.2658(11)
H16_2 H 0.2488 0.6165 0.1765
H17_2 H 0.2062 0.6518 0.2872
H18_2 H 0.2866 0.6734 0.2917
C13_2 C 0.7840(9) 0.6329(9) 0.2611(11)
H19_2 H 0.7838 0.6804 0.3286
H20_2 H 0.8277 0.6370 0.2240
H21_2 H 0.7464 0.6476 0.1986
C14_2 C 0.2647(5) 0.5308(6) 0.3299(7)
N30_2 N 0.2869(6) 0.4187(6) 0.4698(7)
N32_2 N 0.2956(6) 0.3787(6) 0.3622(8)
N1_2 N 0.4536(5) 0.2821(8) 0.9674(8)
N2_2 N 0.4028(5) 0.3423(8) 0.9712(8)
N5_2 N 0.7102(5) 0.2074(7) 0.9747(7)
N6_2 N 0.6621(5) 0.1476(7) 0.9734(7)
C10_2 C 0.5052(8) 0.8725(8) 0.2371(9)
H13_2 H 0.5046 0.8818 0.1478
H14_2 H 0.5410 0.8252 0.2645
H15_2 H 0.4606 0.8476 0.2572
C11_2 C 0.5195(5) 0.9691(7) 0.3012(7)
H24_2 H 0.9950 0.8258 0.2943
N21 N 0.0210(4) 0.0131(6) 0.9610(6)
C15_2 C 0.0222(5) 0.0313(7) 0.8367(8)
C16_2 C 0.0320(7) 0.1296(8) 0.7758(9)
H22_2 H 0.0311 0.1206 0.6864
H23_2 H 0.0761 0.1577 0.8073
loop_
_geom_bond_atom_site_label_1
_geom_bond_atom_site_label_2
_geom_bond_site_symmetry_1
_geom_bond_site_symmetry_2
N13 N15 1_555 1_555
N14 Zn2 1_555 1_555
N15 N14 1_555 1_555
N16 N13 1_555 1_555
C5 H7 1_555 1_555
H8 C5 1_555 1_555
H9 C5 1_555 1_555
C6 N14 1_555 1_555
N28 Zn2 1_555 1_555
N29 N28 1_555 1_555
Zn8 N16 1_555 1_555
N35 Zn2 1_555 1_555
N16 C6 1_555 1_555
C5 C6 1_555 1_555
N29 N31 1_555 1_555
C10 H13 1_555 1_555
H14 C10 1_555 1_555
H15 C10 1_555 1_555
N27 C11 1_555 1_555
C10 C11 1_555 1_555
Zn1 N7 1_555 1_555
Zn3 N3 1_555 1_555
Zn8 N4 1_555 1_555
N1 N2 1_555 1_555
N2 N4 1_555 1_555
N3 N1 1_555 1_555
N4 C1 1_555 1_555
N5 N6 1_555 1_555
N6 N8 1_555 1_555
N7 N5 1_555 1_555
N8 Zn3 1_555 1_555
N9 N10 1_555 1_555
N10 N11 1_555 1_555
N11 Zn1 1_555 1_555
N12 N9 1_555 1_555
N17 N18 1_555 1_555
N18 N19 1_555 1_555
N19 Zn1 1_555 1_555
N20 N17 1_555 1_555
N22 C14 1_555 1_555
N23 Zn8 1_555 1_555
N24 N25 1_555 1_555
N25 N26 1_555 1_555
N26 Zn3 1_555 1_555
C1 N3 1_555 1_555
C2 C1 1_555 1_555
H1 C2 1_555 1_555
H2 C2 1_555 1_555
H3 C2 1_555 1_555
C3 N7 1_555 1_555
C4 C3 1_555 1_555
H4 C4 1_555 1_555
H5 C4 1_555 1_555
H6 C4 1_555 1_555
C7 N19 1_555 1_555
C8 N11 1_555 1_555
C9 C8 1_555 1_555
H10 C9 1_555 1_555
H11 C9 1_555 1_555
H12 C9 1_555 1_555
C12 H16 1_555 1_555
H17 C12 1_555 1_555
H18 C12 1_555 1_555
C13 C7 1_555 1_555
H19 C13 1_555 1_555
H20 C13 1_555 1_555
H21 C13 1_555 1_555
C14 N23 1_555 1_555
N30 N22 1_555 1_555
N32 N23 1_555 1_555
N34 Zn1 1_555 1_555
N36 Zn8 1_555 1_555
N37 Zn3 1_555 1_555
N8 C3 1_555 1_555
N12 C8 1_555 1_555
N20 C7 1_555 1_555
C12 C14 1_555 1_555
N30 N32 1_555 1_555
N13_2 N15_2 1_555 1_555
N14_2 Zn6 1_555 1_555
N15_2 N14_2 1_555 1_555
N16_2 N13_2 1_555 1_555
C5_2 H7_2 1_555 1_555
H8_2 C5_2 1_555 1_555
H9_2 C5_2 1_555 1_555
C6_2 N14_2 1_555 1_555
N28_2 Zn6 1_555 1_555
N29_2 N28_2 1_555 1_555
Zn9 N16_2 1_555 1_555
N16_2 C6_2 1_555 1_555
C5_2 C6_2 1_555 1_555
N29_2 N31_2 1_555 1_555
N35 C15 1_555 1_555
C16 C15 1_555 1_555
H22 C16 1_555 1_555
H23 C16 1_555 1_555
Zn5 N7_2 1_555 1_555
Zn7 N3_2 1_555 1_555
Zn9 N4_2 1_555 1_555
N4_2 C1_2 1_555 1_555
N8_2 Zn7 1_555 1_555
N9_2 N10_2 1_555 1_555
N10_2 N11_2 1_555 1_555
N11_2 Zn5 1_555 1_555
N12_2 N9_2 1_555 1_555
N17_2 N18_2 1_555 1_555
N18_2 N19_2 1_555 1_555
N19_2 Zn5 1_555 1_555
N34 N17_2 1_555 1_555
N36 C14_2 1_555 1_555
N23_2 Zn9 1_555 1_555
N24_2 N25_2 1_555 1_555
N25_2 N26_2 1_555 1_555
N26_2 Zn7 1_555 1_555
C1_2 N3_2 1_555 1_555
C2_2 C1_2 1_555 1_555
H1_2 C2_2 1_555 1_555
H2_2 C2_2 1_555 1_555
H3_2 C2_2 1_555 1_555
C3_2 N7_2 1_555 1_555
C4_2 C3_2 1_555 1_555
H4_2 C4_2 1_555 1_555
H5_2 C4_2 1_555 1_555
H6_2 C4_2 1_555 1_555
C7_2 N19_2 1_555 1_555
C8_2 N11_2 1_555 1_555
C9_2 C8_2 1_555 1_555
H10_2 C9_2 1_555 1_555
H11_2 C9_2 1_555 1_555
H12_2 C9_2 1_555 1_555
C12_2 H16_2 1_555 1_555
H17_2 C12_2 1_555 1_555
H18_2 C12_2 1_555 1_555
C13_2 C7_2 1_555 1_555
H19_2 C13_2 1_555 1_555
H20_2 C13_2 1_555 1_555
H21_2 C13_2 1_555 1_555
C14_2 N23_2 1_555 1_555
N30_2 N36 1_555 1_555
N32_2 N23_2 1_555 1_555
N8_2 C3_2 1_555 1_555
N12_2 C8_2 1_555 1_555
N34 C7_2 1_555 1_555
C12_2 C14_2 1_555 1_555
N30_2 N32_2 1_555 1_555
N1_2 N2_2 1_555 1_555
N5_2 N6_2 1_555 1_555
C10_2 H13_2 1_555 1_555
H14_2 C10_2 1_555 1_555
H15_2 C10_2 1_555 1_555
N37 C11_2 1_555 1_555
C10_2 C11_2 1_555 1_555
N21 C15_2 1_555 1_555
C16_2 C15_2 1_555 1_555
H22_2 C16_2 1_555 1_555
H23_2 C16_2 1_555 1_555

#END
