
###############################################################################
#
# This file contains modified crystal structure data generated from the
# MOF subset of the Cambridge Structural Database (CSD) v543 
# hosted by the Cambridge Crystallographic Data Centre (CCDC).
#
# This work is licensed under the Creative Commons
# Attribution-NonCommercial-ShareAlike 4.0 International License.
# To view a copy of this license, visit
# http://creativecommons.org/licenses/by-nc-sa/4.0/
# or send a letter to
# Creative Commons, PO Box 1866, Mountain View, CA 94042, USA.
#
# CIF created using the CSD Python API on 29 September 2022
# The structure has been converted into the P1 space group
# The structure has a 3D framework
# The original CSD entry HOLDUK01 is in the triclinic crystal system
# The framework has been calculated to contain at least 10.0% void space
# The void calculation uses a probe of radius 1.32A, grid spacing 0.4
#
###############################################################################

data_HOLDUK01
_chemical_formula_moiety         '(C136 H96 Cd4 N8 O20)n'
_symmetry_cell_setting           triclinic
_symmetry_space_group_name_H-M   'P 1'
_symmetry_Int_Tables_number      1
_space_group_name_Hall           'P 1'
loop_
_symmetry_equiv_pos_site_id
_symmetry_equiv_pos_as_xyz
1 x,y,z
_cell_length_a                   20.0731(12)
_cell_length_b                   15.4449(9)
_cell_length_c                   15.1647(8)
_cell_angle_alpha                114.710(2)
_cell_angle_beta                 107.275(2)
_cell_angle_gamma                95.625(2)
_cell_volume                     3942.31
loop_
_atom_site_label
_atom_site_type_symbol
_atom_site_fract_x
_atom_site_fract_y
_atom_site_fract_z
_atom_site_U_iso_or_equiv
_atom_site_thermal_displace_type
O22 O 0.03553(19) 0.1140(3) 0.0981(3) 0.0548 Uani
C3 C 0.0243(3) 0.0758(4) 0.6859(5) 0.0621 Uani
C4 C 0.0304(4) 0.1655(5) 0.7666(5) 0.0801 Uani
H3 H 0.047009 0.223255 0.765390 0.0960 Uiso
C5 C 0.0121(3) 0.1708(4) 0.8493(5) 0.0735 Uani
H4 H 0.015462 0.232585 0.901381 0.0890 Uiso
C6 C 0.0257(4) 0.0661(5) 0.5829(5) 0.0719 Uani
H5 H 0.049410 0.129533 0.592156 0.0860 Uiso
C8 C 0.1173(3) 0.0087(5) 0.4892(5) 0.0636 Uani
C11 C 0.2099(3) 0.0368(5) 0.3923(4) 0.0594 Uani
C12 C 0.1968(3) 0.1175(5) 0.4645(5) 0.0704 Uani
H9 H 0.218554 0.181087 0.481012 0.0840 Uiso
C13 C 0.1501(3) 0.1020(5) 0.5127(5) 0.0733 Uani
H10 H 0.141224 0.156044 0.561354 0.0880 Uiso
C14 C 0.2509(3) 0.0432(4) 0.3290(4) 0.0632 Uani
C15 C 0.2838(3) 0.1203(4) 0.3267(4) 0.0593 Uani
H12 H 0.285635 0.182938 0.375774 0.0710 Uiso
C16 C 0.3173(3) 0.1126(4) 0.2512(4) 0.0494 Uani
C17 C 0.3056(3) 0.0243(4) 0.1644(4) 0.0579 Uani
C18 C 0.3362(3) 0.0198(4) 0.0930(4) 0.0603 Uani
N2 N 0.3770(2) 0.0980(3) 0.1003(3) 0.0487 Uani
C19 C 0.3880(3) 0.1827(4) 0.1828(5) 0.0600 Uani
H15 H 0.416055 0.238726 0.190147 0.0720 Uiso
C20 C 0.3604(3) 0.1935(4) 0.2592(5) 0.0621 Uani
H16 H 0.370831 0.255231 0.316237 0.0750 Uiso
H49 H 0.024649 0.051298 0.210144 0.0750 Uiso
O11 O 0.13300(19) 0.0573(2) 0.1008(3) 0.0540 Uani
C109 C 0.0998(3) 0.1229(4) 0.1037(4) 0.0447 Uani
C110 C 0.1389(3) 0.2156(3) 0.1140(4) 0.0443 Uani
C111 C 0.2028(3) 0.2229(4) 0.0978(5) 0.0593 Uani
H81 H 0.223873 0.170175 0.085239 0.0710 Uiso
C112 C 0.2361(3) 0.3061(4) 0.0997(5) 0.0725 Uani
H82 H 0.278288 0.308522 0.086089 0.0870 Uiso
C113 C 0.2067(3) 0.3855(4) 0.1217(5) 0.0678 Uani
C114 C 0.1454(3) 0.3818(4) 0.1425(6) 0.0805 Uani
H83 H 0.126391 0.436516 0.159552 0.0970 Uiso
C115 C 0.1110(3) 0.2975(4) 0.1384(5) 0.0612 Uani
H84 H 0.068872 0.295612 0.152090 0.0740 Uiso
O13 O 0.2454(2) 0.4670(3) 0.1259(4) 0.0949 Uani
C116 C 0.2114(3) 0.5330(4) 0.1028(6) 0.0710 Uani
C117 C 0.2537(3) 0.6271(4) 0.1515(5) 0.0606 Uani
H85 H 0.301114 0.642988 0.196829 0.0730 Uiso
C118 C 0.2252(3) 0.6986(4) 0.1326(5) 0.0560 Uani
H86 H 0.253553 0.763014 0.167173 0.0670 Uiso
C119 C 0.1561(3) 0.6761(4) 0.0641(4) 0.0508 Uani
C120 C 0.1147(4) 0.5792(4) 0.0133(6) 0.0868 Uani
C121 C 0.1430(4) 0.5075(4) 0.0319(6) 0.0967 Uani
C122 C 0.1240(3) 0.7544(4) 0.0458(5) 0.0504 Uani
O14 O 0.1611(2) 0.8419(3) 0.1003(3) 0.0580 Uani
Cd10 Cd 0.06818(2) 0.90074(3) 0.02485(3) 0.0442 Uani
O28 O 0.5343(2) 0.1366(3) 0.0972(3) 0.0608 Uani
O31 O 0.4201(2) 0.2507(3) 0.0141(3) 0.0651 Uani
Cd2 Cd 0.42214(2) 0.08302(3) 0.97063(3) 0.0464 Uani
N3 N 0.4777(2) 0.0681(3) 0.8515(3) 0.0533 Uani
C23 C 0.5453(3) 0.0574(5) 0.7116(5) 0.0625 Uani
C24 C 0.5448(3) 0.1463(5) 0.7879(5) 0.0726 Uani
H19 H 0.567729 0.204969 0.793880 0.0870 Uiso
C25 C 0.5109(3) 0.1489(4) 0.8547(5) 0.0674 Uani
H20 H 0.511058 0.210035 0.904664 0.0810 Uiso
C26 C 0.5797(3) 0.0469(5) 0.6349(5) 0.0714 Uani
C27 C 0.6111(3) 0.1186(5) 0.6257(5) 0.0680 Uani
H22 H 0.611216 0.182103 0.670553 0.0820 Uiso
C28 C 0.6466(3) 0.1090(5) 0.5511(5) 0.0624 Uani
C29 C 0.6397(3) 0.0189(5) 0.4686(5) 0.0661 Uani
C30 C 0.6736(3) 0.0122(5) 0.3988(5) 0.0662 Uani
C31 C 0.7162(3) 0.0972(5) 0.4118(5) 0.0609 Uani
C32 C 0.7223(4) 0.1872(5) 0.4952(5) 0.0779 Uani
H25 H 0.750572 0.244790 0.505824 0.0930 Uiso
C33 C 0.6872(4) 0.1922(5) 0.5615(5) 0.0835 Uani
H26 H 0.691044 0.253410 0.614870 0.1000 Uiso
C34 C 0.7514(3) 0.0873(5) 0.3378(5) 0.0641 Uani
H27 H 0.734713 0.027753 0.276288 0.0770 Uiso
C35 C 0.8043(3) 0.1533(5) 0.3484(5) 0.0731 Uani
H28 H 0.823640 0.212035 0.410828 0.0880 Uiso
C36 C 0.8347(3) 0.1400(4) 0.2679(5) 0.0570 Uani
C37 C 0.8120(3) 0.0559(4) 0.1741(5) 0.0653 Uani
H29 H 0.777544 0.002155 0.160197 0.0790 Uiso
C38 C 0.8402(3) 0.0513(4) 0.1010(4) 0.0632 Uani
N4 N 0.8893(2) 0.1230(3) 0.1129(4) 0.0501 Uani
C39 C 0.9124(4) 0.2032(5) 0.2033(5) 0.0778 Uani
H31 H 0.947270 0.255312 0.214889 0.0930 Uiso
C40 C 0.8876(4) 0.2140(5) 0.2817(5) 0.0861 Uani
H32 H 0.906751 0.271971 0.344939 0.1030 Uiso
H87 H 0.067574 0.562511 0.966493 0.1050 Uiso
H88 H 0.115601 0.442462 0.996263 0.1160 Uiso
O15 O 0.0620(2) 0.7288(3) 0.9774(3) 0.0625 Uani
O29 O 0.3287(2) 0.1334(3) 0.8790(3) 0.0660 Uani
Cd7 Cd 0.93182(2) 0.09926(3) 0.97515(3) 0.0442 Uani
C2 C 0.0063(3) 0.9937(4) 0.6988(4) 0.0607 Uani
H2 H 0.006020 0.931673 0.650507 0.0730 Uiso
C7 C 0.0540(3) 0.9820(5) 0.5166(5) 0.0707 Uani
H6 H 0.063197 0.937700 0.547391 0.0850 Uiso
C9 C 0.1359(3) 0.9309(5) 0.4247(5) 0.0677 Uani
H7 H 0.118316 0.868127 0.414626 0.0810 Uiso
C10 C 0.1798(3) 0.9431(5) 0.3745(5) 0.0654 Uani
H8 H 0.189446 0.888349 0.328064 0.0790 Uiso
H11 H 0.254430 0.982818 0.282445 0.0760 Uiso
H13 H 0.276802 0.967296 0.154010 0.0690 Uiso
H14 H 0.328047 0.958575 0.036404 0.0730 Uiso
H47 H 0.396820 0.416012 0.051270 0.0800 Uiso
H48 H 0.350138 0.536149 0.019631 0.0940 Uiso
N5 N 0.0101(2) 0.9087(3) 0.1422(3) 0.0548 Uani
C69 C 0.0113(3) 0.9951(4) 0.2160(5) 0.0620 Uani
Cd14 Cd 0.57786(2) 0.91698(3) 0.02937(3) 0.0464 Uani
C21 C 0.4781(3) 0.9820(4) 0.7784(4) 0.0601 Uani
H17 H 0.455175 0.924608 0.774810 0.0720 Uiso
C22 C 0.5104(3) 0.9731(4) 0.7081(5) 0.0667 Uani
H18 H 0.508958 0.911082 0.658465 0.0800 Uiso
H21 H 0.578754 0.983309 0.589267 0.0860 Uiso
H23 H 0.611891 0.961878 0.459576 0.0800 Uiso
H24 H 0.667956 0.951129 0.343609 0.0800 Uiso
H30 H 0.823594 0.993190 0.037983 0.0760 Uiso
O6 O 0.3679(2) 0.9213(2) 0.8941(3) 0.0554 Uani
C55 C 0.4009(3) 0.8555(4) 0.8936(4) 0.0459 Uani
O7 O 0.4657(2) 0.8634(3) 0.9028(3) 0.0608 Uani
C56 C 0.3594(3) 0.7621(4) 0.8814(4) 0.0483 Uani
C57 C 0.2898(3) 0.7533(4) 0.8812(4) 0.0582 Uani
H41 H 0.267825 0.804346 0.884828 0.0700 Uiso
C58 C 0.2528(3) 0.6699(4) 0.8756(5) 0.0690 Uani
H42 H 0.206483 0.665203 0.876490 0.0820 Uiso
C59 C 0.2849(3) 0.5935(4) 0.8687(5) 0.0681 Uani
C60 C 0.3533(3) 0.6006(4) 0.8670(5) 0.0737 Uani
H43 H 0.374464 0.548468 0.860754 0.0880 Uiso
C61 C 0.3905(3) 0.6850(4) 0.8746(5) 0.0619 Uani
H44 H 0.437178 0.689963 0.875068 0.0740 Uiso
O8 O 0.2423(2) 0.5105(3) 0.8566(4) 0.0992 Uani
C62 C 0.2744(4) 0.4425(4) 0.8795(6) 0.0731 Uani
C63 C 0.2423(4) 0.3455(5) 0.8095(6) 0.0816 Uani
H45 H 0.202443 0.327665 0.749151 0.0980 Uiso
C64 C 0.2702(4) 0.2734(4) 0.8294(5) 0.0716 Uani
H46 H 0.248733 0.207173 0.781861 0.0860 Uiso
C65 C 0.3283(3) 0.2990(4) 0.9176(5) 0.0567 Uani
C66 C 0.3580(3) 0.3978(4) 0.9896(5) 0.0668 Uani
C67 C 0.3305(4) 0.4699(4) 0.9707(6) 0.0784 Uani
C68 C 0.3616(3) 0.2222(4) 0.9388(5) 0.0518 Uani
N10 N 0.1107(2) 0.8770(3) 0.8871(4) 0.0501 Uani
C89 C 0.5219(3) 0.0180(4) 0.2216(4) 0.0601 Uani
H65 H 0.544825 0.075392 0.225190 0.0720 Uiso
C90 C 0.4896(3) 0.0269(4) 0.2919(5) 0.0667 Uani
H66 H 0.491042 0.088918 0.341535 0.0800 Uiso
H69 H 0.421246 0.016691 0.410733 0.0860 Uiso
H71 H 0.388109 0.038122 0.540424 0.0800 Uiso
H72 H 0.332044 0.048871 0.656391 0.0800 Uiso
H78 H 0.176406 0.006810 0.962017 0.0760 Uiso
O16 O 0.6321(2) 0.0787(2) 0.1059(3) 0.0554 Uani
C123 C 0.5991(3) 0.1445(4) 0.1064(4) 0.0459 Uani
C124 C 0.6406(3) 0.2379(4) 0.1186(4) 0.0483 Uani
C125 C 0.7102(3) 0.2467(4) 0.1188(4) 0.0582 Uani
H89 H 0.732175 0.195654 0.115172 0.0700 Uiso
C126 C 0.7472(3) 0.3301(4) 0.1244(5) 0.0690 Uani
H90 H 0.793517 0.334797 0.123510 0.0820 Uiso
C127 C 0.7151(3) 0.4065(4) 0.1313(5) 0.0681 Uani
C128 C 0.6467(3) 0.3994(4) 0.1330(5) 0.0737 Uani
H91 H 0.625536 0.451532 0.139246 0.0880 Uiso
C129 C 0.6095(3) 0.3150(4) 0.1254(5) 0.0619 Uani
H92 H 0.562822 0.310037 0.124932 0.0740 Uiso
O18 O 0.7577(2) 0.4895(3) 0.1434(4) 0.0992 Uani
C130 C 0.7256(4) 0.5575(4) 0.1205(6) 0.0731 Uani
C131 C 0.7577(4) 0.6545(5) 0.1905(6) 0.0816 Uani
H93 H 0.797557 0.672335 0.250849 0.0980 Uiso
C132 C 0.7298(4) 0.7266(4) 0.1706(5) 0.0716 Uani
H94 H 0.751267 0.792827 0.218139 0.0860 Uiso
C133 C 0.6717(3) 0.7010(4) 0.0824(5) 0.0567 Uani
C134 C 0.6420(3) 0.6022(4) 0.0104(5) 0.0668 Uani
C135 C 0.6695(4) 0.5301(4) 0.0293(6) 0.0784 Uani
C136 C 0.6384(3) 0.7778(4) 0.0612(5) 0.0518 Uani
O19 O 0.6713(2) 0.8666(3) 0.1210(3) 0.0660 Uani
O25 O 0.9380(2) 0.2712(3) 0.0226(3) 0.0625 Uani
N1 N 0.9899(2) 0.0913(3) 0.8578(3) 0.0548 Uani
C1 C 0.9887(3) 0.0049(4) 0.7840(5) 0.0620 Uani
C70 C 0.9937(3) 0.0063(4) 0.3012(4) 0.0607 Uani
H50 H 0.993980 0.068327 0.349493 0.0730 Uiso
C75 C 0.9460(3) 0.0180(5) 0.4834(5) 0.0707 Uani
H54 H 0.936803 0.062300 0.452609 0.0850 Uiso
C77 C 0.8641(3) 0.0691(5) 0.5753(5) 0.0677 Uani
H55 H 0.881684 0.131873 0.585374 0.0810 Uiso
C78 C 0.8202(3) 0.0569(5) 0.6255(5) 0.0654 Uani
H56 H 0.810554 0.111651 0.671936 0.0790 Uiso
H59 H 0.745570 0.017182 0.717555 0.0760 Uiso
H61 H 0.723198 0.032704 0.845990 0.0690 Uiso
H62 H 0.671953 0.041425 0.963596 0.0730 Uiso
H95 H 0.603180 0.583988 0.948730 0.0800 Uiso
H96 H 0.649862 0.463851 0.980369 0.0940 Uiso
O20 O 0.5799(2) 0.7493(3) 0.9859(3) 0.0651 Uani
O23 O 0.8389(2) 0.1581(3) 0.8997(3) 0.0580 Uani
H39 H 0.932426 0.437489 0.033507 0.1050 Uiso
H40 H 0.884399 0.557538 0.003737 0.1160 Uiso
N7 N 0.5223(2) 0.9319(3) 0.1485(3) 0.0533 Uani
C91 C 0.4547(3) 0.9426(5) 0.2884(5) 0.0625 Uani
C92 C 0.4552(3) 0.8537(5) 0.2121(5) 0.0726 Uani
H67 H 0.432271 0.795031 0.206120 0.0870 Uiso
C93 C 0.4891(3) 0.8511(4) 0.1453(5) 0.0674 Uani
H68 H 0.488942 0.789965 0.095336 0.0810 Uiso
C94 C 0.4203(3) 0.9531(5) 0.3651(5) 0.0714 Uani
C95 C 0.3889(3) 0.8814(5) 0.3743(5) 0.0680 Uani
H70 H 0.388784 0.817897 0.329447 0.0820 Uiso
C96 C 0.3534(3) 0.8910(5) 0.4489(5) 0.0624 Uani
C97 C 0.3603(3) 0.9811(5) 0.5314(5) 0.0661 Uani
C98 C 0.3264(3) 0.9878(5) 0.6012(5) 0.0662 Uani
C99 C 0.2838(3) 0.9028(5) 0.5882(5) 0.0609 Uani
C100 C 0.2777(4) 0.8128(5) 0.5048(5) 0.0779 Uani
H73 H 0.249428 0.755210 0.494176 0.0930 Uiso
C101 C 0.3128(4) 0.8078(5) 0.4385(5) 0.0835 Uani
H74 H 0.308956 0.746590 0.385130 0.1000 Uiso
C102 C 0.2486(3) 0.9127(5) 0.6622(5) 0.0641 Uani
H75 H 0.265287 0.972247 0.723712 0.0770 Uiso
C103 C 0.1957(3) 0.8467(5) 0.6516(5) 0.0731 Uani
H76 H 0.176360 0.787965 0.589172 0.0880 Uiso
C104 C 0.1653(3) 0.8600(4) 0.7321(5) 0.0570 Uani
C105 C 0.1880(3) 0.9441(4) 0.8259(5) 0.0653 Uani
H77 H 0.222456 0.997845 0.839803 0.0790 Uiso
C106 C 0.1598(3) 0.9487(4) 0.8990(4) 0.0632 Uani
C107 C 0.0876(4) 0.7968(5) 0.7967(5) 0.0778 Uani
H79 H 0.052730 0.744688 0.785111 0.0930 Uiso
C108 C 0.1124(4) 0.7860(5) 0.7183(5) 0.0861 Uani
H80 H 0.093249 0.728029 0.655061 0.1030 Uiso
H1 H 0.975351 0.948702 0.789856 0.0750 Uiso
O1 O 0.86700(19) 0.9427(2) 0.8992(3) 0.0540 Uani
C41 C 0.9002(3) 0.8771(4) 0.8963(4) 0.0447 Uani
O2 O 0.96447(19) 0.8860(3) 0.9019(3) 0.0548 Uani
C42 C 0.8611(3) 0.7844(3) 0.8860(4) 0.0443 Uani
C43 C 0.7972(3) 0.7771(4) 0.9022(5) 0.0593 Uani
H33 H 0.776127 0.829825 0.914761 0.0710 Uiso
C44 C 0.7639(3) 0.6939(4) 0.9003(5) 0.0725 Uani
H34 H 0.721712 0.691478 0.913911 0.0870 Uiso
C45 C 0.7933(3) 0.6145(4) 0.8783(5) 0.0678 Uani
C46 C 0.8546(3) 0.6182(4) 0.8575(6) 0.0805 Uani
H35 H 0.873609 0.563484 0.840448 0.0970 Uiso
C47 C 0.8890(3) 0.7025(4) 0.8616(5) 0.0612 Uani
H36 H 0.931128 0.704388 0.847910 0.0740 Uiso
O3 O 0.7546(2) 0.5330(3) 0.8741(4) 0.0949 Uani
C48 C 0.7886(3) 0.4670(4) 0.8972(6) 0.0710 Uani
C49 C 0.7463(3) 0.3729(4) 0.8485(5) 0.0606 Uani
H37 H 0.698886 0.357012 0.803171 0.0730 Uiso
C50 C 0.7748(3) 0.3014(4) 0.8674(5) 0.0560 Uani
H38 H 0.746447 0.236986 0.832827 0.0670 Uiso
C51 C 0.8439(3) 0.3239(4) 0.9359(4) 0.0508 Uani
C52 C 0.8853(4) 0.4208(4) 0.9867(6) 0.0868 Uani
C53 C 0.8570(4) 0.4925(4) 0.9681(6) 0.0967 Uani
C54 C 0.8760(3) 0.2456(4) 0.9542(5) 0.0504 Uani
C71 C 0.9757(3) 0.9242(4) 0.3141(5) 0.0621 Uani
C72 C 0.9696(4) 0.8345(5) 0.2334(5) 0.0801 Uani
H51 H 0.952991 0.776745 0.234610 0.0960 Uiso
C73 C 0.9879(3) 0.8292(4) 0.1507(5) 0.0735 Uani
H52 H 0.984538 0.767415 0.098619 0.0890 Uiso
C74 C 0.9743(4) 0.9339(5) 0.4171(5) 0.0719 Uani
H53 H 0.950590 0.870467 0.407844 0.0860 Uiso
C76 C 0.8827(3) 0.9913(5) 0.5108(5) 0.0636 Uani
C79 C 0.7901(3) 0.9632(5) 0.6077(4) 0.0594 Uani
C80 C 0.8032(3) 0.8825(5) 0.5355(5) 0.0704 Uani
H57 H 0.781446 0.818913 0.518988 0.0840 Uiso
C81 C 0.8499(3) 0.8980(5) 0.4873(5) 0.0733 Uani
H58 H 0.858776 0.843956 0.438646 0.0880 Uiso
C82 C 0.7491(3) 0.9568(4) 0.6710(4) 0.0632 Uani
C83 C 0.7162(3) 0.8797(4) 0.6733(4) 0.0593 Uani
H60 H 0.714365 0.817062 0.624226 0.0710 Uiso
C84 C 0.6827(3) 0.8874(4) 0.7488(4) 0.0494 Uani
C85 C 0.6944(3) 0.9757(4) 0.8356(4) 0.0579 Uani
C86 C 0.6638(3) 0.9802(4) 0.9070(4) 0.0603 Uani
N6 N 0.6230(2) 0.9020(3) 0.8997(3) 0.0487 Uani
C87 C 0.6120(3) 0.8173(4) 0.8172(5) 0.0600 Uani
H63 H 0.583945 0.761274 0.809853 0.0720 Uiso
C88 C 0.6396(3) 0.8065(4) 0.7408(5) 0.0621 Uani
H64 H 0.629169 0.744769 0.683763 0.0750 Uiso
loop_
_atom_site_aniso_label
_atom_site_aniso_U_11
_atom_site_aniso_U_22
_atom_site_aniso_U_33
_atom_site_aniso_U_23
_atom_site_aniso_U_13
_atom_site_aniso_U_12
O22 0.05 0.073 0.068 0.05 0.031 0.0193
C3 0.077 0.068 0.07 0.039 0.054 0.023
C4 0.107 0.066 0.093 0.043 0.067 0.009
C5 0.097 0.059 0.074 0.029 0.053 0.003
C6 0.094 0.077 0.082 0.048 0.064 0.029
C8 0.061 0.09 0.074 0.059 0.037 0.028
C11 0.05 0.086 0.053 0.035 0.03 0.017
C12 0.071 0.08 0.063 0.028 0.039 0.013
C13 0.07 0.094 0.071 0.038 0.046 0.025
C14 0.061 0.074 0.065 0.031 0.041 0.013
C15 0.06 0.068 0.062 0.027 0.042 0.023
C16 0.048 0.052 0.057 0.026 0.031 0.012
C17 0.059 0.053 0.067 0.026 0.038 0.001
C18 0.075 0.048 0.064 0.02 0.047 0.004
N2 0.049 0.052 0.057 0.028 0.032 0.013
C19 0.067 0.054 0.07 0.033 0.037 0.007
C20 0.076 0.051 0.065 0.023 0.041 0.014
O11 0.061 0.047 0.078 0.039 0.04 0.0235
C109 0.053 0.05 0.045 0.03 0.025 0.014
C110 0.045 0.042 0.058 0.031 0.023 0.014
C111 0.063 0.049 0.098 0.047 0.05 0.026
C112 0.068 0.061 0.125 0.06 0.057 0.026
C113 0.052 0.058 0.112 0.058 0.028 0.015
C114 0.067 0.049 0.143 0.053 0.046 0.029
C115 0.056 0.05 0.1 0.043 0.043 0.026
O13 0.059 0.069 0.193 0.096 0.042 0.022
C116 0.059 0.055 0.118 0.058 0.031 0.019
C117 0.052 0.049 0.089 0.042 0.022 0.016
C118 0.051 0.04 0.083 0.035 0.024 0.011
C119 0.058 0.041 0.067 0.034 0.027 0.017
C120 0.066 0.051 0.124 0.051 0 0.001
C121 0.081 0.043 0.143 0.054 0.001 0.002
C122 0.066 0.043 0.06 0.033 0.032 0.02
O14 0.059 0.039 0.082 0.036 0.022 0.0165
Cd10 0.0526 0.0468 0.0554 0.0342 0.0318 0.01989
O28 0.053 0.071 0.078 0.047 0.033 0.014
O31 0.07 0.05 0.089 0.043 0.031 0.02
Cd2 0.0567 0.0429 0.0652 0.035 0.0401 0.01962
N3 0.066 0.056 0.06 0.034 0.041 0.02
C23 0.071 0.078 0.074 0.05 0.048 0.033
C24 0.087 0.069 0.087 0.048 0.051 0.013
C25 0.087 0.059 0.073 0.033 0.051 0.012
C26 0.078 0.088 0.086 0.057 0.052 0.035
C27 0.07 0.087 0.076 0.053 0.041 0.028
C28 0.064 0.082 0.057 0.039 0.033 0.022
C29 0.06 0.086 0.07 0.049 0.032 0.01
C30 0.066 0.081 0.066 0.038 0.039 0.017
C31 0.064 0.084 0.067 0.05 0.043 0.027
C32 0.102 0.082 0.082 0.047 0.064 0.024
C33 0.113 0.084 0.092 0.05 0.074 0.031
C34 0.074 0.081 0.063 0.042 0.046 0.024
C35 0.082 0.075 0.075 0.036 0.048 0.01
C36 0.065 0.066 0.064 0.038 0.043 0.022
C37 0.069 0.062 0.078 0.03 0.052 0.007
C38 0.07 0.057 0.059 0.015 0.041 0.005
N4 0.054 0.054 0.062 0.033 0.038 0.017
C39 0.103 0.062 0.075 0.025 0.059 0.001
C40 0.103 0.064 0.079 0.012 0.06 -0.011
O15 0.065 0.056 0.073 0.04 0.019 0.019
O29 0.072 0.048 0.093 0.043 0.034 0.022
Cd7 0.0526 0.0468 0.0554 0.0342 0.0318 0.01989
C2 0.082 0.07 0.065 0.044 0.05 0.035
C7 0.084 0.095 0.086 0.063 0.064 0.044
C9 0.071 0.093 0.082 0.06 0.051 0.04
C10 0.064 0.08 0.078 0.047 0.045 0.021
N5 0.061 0.068 0.057 0.04 0.034 0.019
C69 0.084 0.073 0.076 0.055 0.055 0.042
Cd14 0.0567 0.0429 0.0652 0.035 0.0401 0.01962
C21 0.082 0.06 0.075 0.045 0.055 0.027
C22 0.09 0.069 0.076 0.047 0.053 0.035
O6 0.07 0.042 0.076 0.0339 0.045 0.0201
C55 0.054 0.048 0.048 0.026 0.029 0.016
O7 0.053 0.071 0.078 0.047 0.033 0.014
C56 0.052 0.042 0.066 0.032 0.031 0.016
C57 0.064 0.045 0.083 0.039 0.035 0.02
C58 0.049 0.057 0.122 0.058 0.035 0.017
C59 0.056 0.048 0.115 0.051 0.032 0.015
C60 0.071 0.051 0.129 0.058 0.048 0.033
C61 0.055 0.056 0.096 0.045 0.039 0.025
O8 0.055 0.067 0.206 0.096 0.041 0.017
C62 0.063 0.047 0.141 0.066 0.045 0.022
C63 0.065 0.075 0.116 0.067 0.017 0.014
C64 0.08 0.049 0.095 0.045 0.029 0.014
C65 0.067 0.048 0.084 0.044 0.044 0.024
C66 0.071 0.046 0.097 0.042 0.036 0.018
C67 0.082 0.049 0.119 0.048 0.042 0.024
C68 0.061 0.042 0.079 0.041 0.041 0.018
N10 0.054 0.054 0.062 0.033 0.038 0.017
C89 0.082 0.06 0.075 0.045 0.055 0.027
C90 0.09 0.069 0.076 0.047 0.053 0.035
O16 0.07 0.042 0.076 0.0339 0.045 0.0201
C123 0.054 0.048 0.048 0.026 0.029 0.016
C124 0.052 0.042 0.066 0.032 0.031 0.016
C125 0.064 0.045 0.083 0.039 0.035 0.02
C126 0.049 0.057 0.122 0.058 0.035 0.017
C127 0.056 0.048 0.115 0.051 0.032 0.015
C128 0.071 0.051 0.129 0.058 0.048 0.033
C129 0.055 0.056 0.096 0.045 0.039 0.025
O18 0.055 0.067 0.206 0.096 0.041 0.017
C130 0.063 0.047 0.141 0.066 0.045 0.022
C131 0.065 0.075 0.116 0.067 0.017 0.014
C132 0.08 0.049 0.095 0.045 0.029 0.014
C133 0.067 0.048 0.084 0.044 0.044 0.024
C134 0.071 0.046 0.097 0.042 0.036 0.018
C135 0.082 0.049 0.119 0.048 0.042 0.024
C136 0.061 0.042 0.079 0.041 0.041 0.018
O19 0.072 0.048 0.093 0.043 0.034 0.022
O25 0.065 0.056 0.073 0.04 0.019 0.019
N1 0.061 0.068 0.057 0.04 0.034 0.019
C1 0.084 0.073 0.076 0.055 0.055 0.042
C70 0.082 0.07 0.065 0.044 0.05 0.035
C75 0.084 0.095 0.086 0.063 0.064 0.044
C77 0.071 0.093 0.082 0.06 0.051 0.04
C78 0.064 0.08 0.078 0.047 0.045 0.021
O20 0.07 0.05 0.089 0.043 0.031 0.02
O23 0.059 0.039 0.082 0.036 0.022 0.0165
N7 0.066 0.056 0.06 0.034 0.041 0.02
C91 0.071 0.078 0.074 0.05 0.048 0.033
C92 0.087 0.069 0.087 0.048 0.051 0.013
C93 0.087 0.059 0.073 0.033 0.051 0.012
C94 0.078 0.088 0.086 0.057 0.052 0.035
C95 0.07 0.087 0.076 0.053 0.041 0.028
C96 0.064 0.082 0.057 0.039 0.033 0.022
C97 0.06 0.086 0.07 0.049 0.032 0.01
C98 0.066 0.081 0.066 0.038 0.039 0.017
C99 0.064 0.084 0.067 0.05 0.043 0.027
C100 0.102 0.082 0.082 0.047 0.064 0.024
C101 0.113 0.084 0.092 0.05 0.074 0.031
C102 0.074 0.081 0.063 0.042 0.046 0.024
C103 0.082 0.075 0.075 0.036 0.048 0.01
C104 0.065 0.066 0.064 0.038 0.043 0.022
C105 0.069 0.062 0.078 0.03 0.052 0.007
C106 0.07 0.057 0.059 0.015 0.041 0.005
C107 0.103 0.062 0.075 0.025 0.059 0.001
C108 0.103 0.064 0.079 0.012 0.06 -0.011
O1 0.061 0.047 0.078 0.039 0.04 0.0235
C41 0.053 0.05 0.045 0.03 0.025 0.014
O2 0.05 0.073 0.068 0.05 0.031 0.0193
C42 0.045 0.042 0.058 0.031 0.023 0.014
C43 0.063 0.049 0.098 0.047 0.05 0.026
C44 0.068 0.061 0.125 0.06 0.057 0.026
C45 0.052 0.058 0.112 0.058 0.028 0.015
C46 0.067 0.049 0.143 0.053 0.046 0.029
C47 0.056 0.05 0.1 0.043 0.043 0.026
O3 0.059 0.069 0.193 0.096 0.042 0.022
C48 0.059 0.055 0.118 0.058 0.031 0.019
C49 0.052 0.049 0.089 0.042 0.022 0.016
C50 0.051 0.04 0.083 0.035 0.024 0.011
C51 0.058 0.041 0.067 0.034 0.027 0.017
C52 0.066 0.051 0.124 0.051 0 0.001
C53 0.081 0.043 0.143 0.054 0.001 0.002
C54 0.066 0.043 0.06 0.033 0.032 0.02
C71 0.077 0.068 0.07 0.039 0.054 0.023
C72 0.107 0.066 0.093 0.043 0.067 0.009
C73 0.097 0.059 0.074 0.029 0.053 0.003
C74 0.094 0.077 0.082 0.048 0.064 0.029
C76 0.061 0.09 0.074 0.059 0.037 0.028
C79 0.05 0.086 0.053 0.035 0.03 0.017
C80 0.071 0.08 0.063 0.028 0.039 0.013
C81 0.07 0.094 0.071 0.038 0.046 0.025
C82 0.061 0.074 0.065 0.031 0.041 0.013
C83 0.06 0.068 0.062 0.027 0.042 0.023
C84 0.048 0.052 0.057 0.026 0.031 0.012
C85 0.059 0.053 0.067 0.026 0.038 0.001
C86 0.075 0.048 0.064 0.02 0.047 0.004
N6 0.049 0.052 0.057 0.028 0.032 0.013
C87 0.067 0.054 0.07 0.033 0.037 0.007
C88 0.076 0.051 0.065 0.023 0.041 0.014
loop_
_geom_bond_atom_site_label_1
_geom_bond_atom_site_label_2
_geom_bond_site_symmetry_1
_geom_bond_site_symmetry_2
C4 C3 1_555 1_555
H3 C4 1_555 1_555
H4 C5 1_555 1_555
C6 C3 1_555 1_555
H5 C6 1_555 1_555
C12 C11 1_555 1_555
H9 C12 1_555 1_555
C13 C8 1_555 1_555
H10 C13 1_555 1_555
C14 C11 1_555 1_555
C15 C14 1_555 1_555
H12 C15 1_555 1_555
C16 C15 1_555 1_555
C17 C16 1_555 1_555
C18 C17 1_555 1_555
N2 C18 1_555 1_555
C19 N2 1_555 1_555
H15 C19 1_555 1_555
C20 C16 1_555 1_555
H16 C20 1_555 1_555
C109 O11 1_555 1_555
O22 C109 1_555 1_555
C110 C109 1_555 1_555
C111 C110 1_555 1_555
H81 C111 1_555 1_555
C112 C111 1_555 1_555
H82 C112 1_555 1_555
C113 C112 1_555 1_555
C114 C113 1_555 1_555
H83 C114 1_555 1_555
C115 C110 1_555 1_555
H84 C115 1_555 1_555
O13 C113 1_555 1_555
C116 O13 1_555 1_555
C117 C116 1_555 1_555
H85 C117 1_555 1_555
C118 C117 1_555 1_555
H86 C118 1_555 1_555
C119 C118 1_555 1_555
C120 C119 1_555 1_555
C121 C116 1_555 1_555
C122 C119 1_555 1_555
O14 C122 1_555 1_555
Cd10 O14 1_555 1_555
C4 C5 1_555 1_555
C12 C13 1_555 1_555
C19 C20 1_555 1_555
C114 C115 1_555 1_555
C120 C121 1_555 1_555
N3 Cd2 1_555 1_555
C24 C23 1_555 1_555
H19 C24 1_555 1_555
C25 N3 1_555 1_555
H20 C25 1_555 1_555
C26 C23 1_555 1_555
C27 C26 1_555 1_555
H22 C27 1_555 1_555
C28 C27 1_555 1_555
C29 C28 1_555 1_555
C30 C29 1_555 1_555
C31 C30 1_555 1_555
C32 C31 1_555 1_555
H25 C32 1_555 1_555
C33 C28 1_555 1_555
H26 C33 1_555 1_555
C34 C31 1_555 1_555
H27 C34 1_555 1_555
C35 C34 1_555 1_555
H28 C35 1_555 1_555
C36 C35 1_555 1_555
C37 C36 1_555 1_555
H29 C37 1_555 1_555
C38 C37 1_555 1_555
N4 C38 1_555 1_555
C39 N4 1_555 1_555
H31 C39 1_555 1_555
C40 C36 1_555 1_555
H32 C40 1_555 1_555
O29 Cd2 1_555 1_555
C24 C25 1_555 1_555
C32 C33 1_555 1_555
C39 C40 1_555 1_555
H2 C2 1_555 1_555
H6 C7 1_555 1_555
H7 C9 1_555 1_555
C10 C9 1_555 1_555
H8 C10 1_555 1_555
N5 C69 1_555 1_555
Cd10 N5 1_555 1_555
H17 C21 1_555 1_555
C22 C21 1_555 1_555
H18 C22 1_555 1_555
C55 O6 1_555 1_555
O7 C55 1_555 1_555
C56 C55 1_555 1_555
C57 C56 1_555 1_555
H41 C57 1_555 1_555
C58 C57 1_555 1_555
H42 C58 1_555 1_555
C59 C58 1_555 1_555
C60 C59 1_555 1_555
H43 C60 1_555 1_555
C61 C56 1_555 1_555
H44 C61 1_555 1_555
O8 C59 1_555 1_555
C62 O8 1_555 1_555
C63 C62 1_555 1_555
H45 C63 1_555 1_555
C64 C63 1_555 1_555
H46 C64 1_555 1_555
C65 C64 1_555 1_555
C66 C65 1_555 1_555
C67 C62 1_555 1_555
C68 C65 1_555 1_555
O29 C68 1_555 1_555
C60 C61 1_555 1_555
C66 C67 1_555 1_555
H65 C89 1_555 1_555
C90 C89 1_555 1_555
H66 C90 1_555 1_555
C123 O16 1_555 1_555
O28 C123 1_555 1_555
C124 C123 1_555 1_555
C125 C124 1_555 1_555
H89 C125 1_555 1_555
C126 C125 1_555 1_555
H90 C126 1_555 1_555
C127 C126 1_555 1_555
C128 C127 1_555 1_555
H91 C128 1_555 1_555
C129 C124 1_555 1_555
H92 C129 1_555 1_555
O18 C127 1_555 1_555
C130 O18 1_555 1_555
C131 C130 1_555 1_555
H93 C131 1_555 1_555
C132 C131 1_555 1_555
H94 C132 1_555 1_555
C133 C132 1_555 1_555
C134 C133 1_555 1_555
C135 C130 1_555 1_555
C136 C133 1_555 1_555
O19 C136 1_555 1_555
Cd14 O19 1_555 1_555
C128 C129 1_555 1_555
C134 C135 1_555 1_555
Cd7 N1 1_555 1_555
N1 C1 1_555 1_555
H50 C70 1_555 1_555
H54 C75 1_555 1_555
H55 C77 1_555 1_555
C78 C77 1_555 1_555
H56 C78 1_555 1_555
O23 Cd7 1_555 1_555
N7 Cd14 1_555 1_555
C92 C91 1_555 1_555
H67 C92 1_555 1_555
C93 N7 1_555 1_555
H68 C93 1_555 1_555
C94 C91 1_555 1_555
C95 C94 1_555 1_555
H70 C95 1_555 1_555
C96 C95 1_555 1_555
C97 C96 1_555 1_555
C98 C97 1_555 1_555
C99 C98 1_555 1_555
C100 C99 1_555 1_555
H73 C100 1_555 1_555
C101 C96 1_555 1_555
H74 C101 1_555 1_555
C102 C99 1_555 1_555
H75 C102 1_555 1_555
C103 C102 1_555 1_555
H76 C103 1_555 1_555
C104 C103 1_555 1_555
C105 C104 1_555 1_555
H77 C105 1_555 1_555
C106 C105 1_555 1_555
N10 C106 1_555 1_555
C107 N10 1_555 1_555
H79 C107 1_555 1_555
C108 C104 1_555 1_555
H80 C108 1_555 1_555
C92 C93 1_555 1_555
C100 C101 1_555 1_555
C107 C108 1_555 1_555
C41 O1 1_555 1_555
O2 C41 1_555 1_555
C42 C41 1_555 1_555
C43 C42 1_555 1_555
H33 C43 1_555 1_555
C44 C43 1_555 1_555
H34 C44 1_555 1_555
C45 C44 1_555 1_555
C46 C45 1_555 1_555
H35 C46 1_555 1_555
C47 C42 1_555 1_555
H36 C47 1_555 1_555
O3 C45 1_555 1_555
C48 O3 1_555 1_555
C49 C48 1_555 1_555
H37 C49 1_555 1_555
C50 C49 1_555 1_555
H38 C50 1_555 1_555
C51 C50 1_555 1_555
C52 C51 1_555 1_555
C53 C48 1_555 1_555
C54 C51 1_555 1_555
O23 C54 1_555 1_555
C72 C71 1_555 1_555
H51 C72 1_555 1_555
H52 C73 1_555 1_555
H53 C74 1_555 1_555
C80 C79 1_555 1_555
H57 C80 1_555 1_555
C81 C76 1_555 1_555
H58 C81 1_555 1_555
C82 C79 1_555 1_555
C83 C82 1_555 1_555
H60 C83 1_555 1_555
C84 C83 1_555 1_555
C85 C84 1_555 1_555
C86 C85 1_555 1_555
N6 C86 1_555 1_555
C87 N6 1_555 1_555
H63 C87 1_555 1_555
C88 C84 1_555 1_555
H64 C88 1_555 1_555
C46 C47 1_555 1_555
C52 C53 1_555 1_555
C71 C74 1_555 1_555
C72 C73 1_555 1_555
C80 C81 1_555 1_555
C87 C88 1_555 1_555

#END
