
###############################################################################
#
# This file contains modified crystal structure data generated from the
# MOF subset of the Cambridge Structural Database (CSD) v543 
# hosted by the Cambridge Crystallographic Data Centre (CCDC).
#
# This work is licensed under the Creative Commons
# Attribution-NonCommercial-ShareAlike 4.0 International License.
# To view a copy of this license, visit
# http://creativecommons.org/licenses/by-nc-sa/4.0/
# or send a letter to
# Creative Commons, PO Box 1866, Mountain View, CA 94042, USA.
#
# CIF created using the CSD Python API on 29 September 2022
# The structure has been converted into the P1 space group
# The structure has a 3D framework
# The original CSD entry HOLDUK is in the triclinic crystal system
# The framework has been calculated to contain at least 10.0% void space
# The void calculation uses a probe of radius 1.32A, grid spacing 0.4
#
###############################################################################

data_HOLDUK
_chemical_formula_moiety         '(C136 H96 Cd4 N8 O20)n'
_symmetry_cell_setting           triclinic
_symmetry_space_group_name_H-M   'P 1'
_symmetry_Int_Tables_number      1
_space_group_name_Hall           'P 1'
loop_
_symmetry_equiv_pos_site_id
_symmetry_equiv_pos_as_xyz
1 x,y,z
_cell_length_a                   19.811(2)
_cell_length_b                   15.4443(16)
_cell_length_c                   15.0786(14)
_cell_angle_alpha                115.954(3)
_cell_angle_beta                 108.416(3)
_cell_angle_gamma                94.546(3)
_cell_volume                     3805.73
loop_
_atom_site_label
_atom_site_type_symbol
_atom_site_fract_x
_atom_site_fract_y
_atom_site_fract_z
_atom_site_U_iso_or_equiv
_atom_site_thermal_displace_type
O22 O 0.03573(14) 0.11372(19) 0.1023(2) 0.0239 Uani
C3 C 0.0239(2) 0.0787(3) 0.6881(4) 0.0339 Uani
C4 C 0.0289(3) 0.1704(3) 0.7709(4) 0.0430 Uani
H3 H 0.044927 0.229475 0.769895 0.0510 Uiso
C5 C 0.0109(2) 0.1772(3) 0.8547(4) 0.0354 Uani
H4 H 0.013623 0.240913 0.909121 0.0430 Uiso
C6 C 0.0250(3) 0.0668(3) 0.5830(4) 0.0376 Uani
H5 H 0.049219 0.131748 0.593362 0.0450 Uiso
C8 C 0.1188(2) 0.0089(3) 0.4916(4) 0.0339 Uani
C11 C 0.2119(2) 0.0354(3) 0.3935(3) 0.0287 Uani
C12 C 0.1970(2) 0.1177(3) 0.4672(3) 0.0300 Uani
H9 H 0.218564 0.183052 0.484315 0.0360 Uiso
C13 C 0.1508(2) 0.1037(3) 0.5151(3) 0.0347 Uani
H10 H 0.140921 0.159914 0.564706 0.0420 Uiso
C14 C 0.2529(2) 0.0408(3) 0.3308(3) 0.0305 Uani
C15 C 0.2853(2) 0.1203(3) 0.3309(3) 0.0277 Uani
H12 H 0.286901 0.184778 0.382771 0.0340 Uiso
C16 C 0.3183(2) 0.1117(3) 0.2539(3) 0.0235 Uani
C17 C 0.3043(2) 0.0214(3) 0.1616(3) 0.0239 Uani
C18 C 0.3337(2) 0.0173(3) 0.0897(3) 0.0245 Uani
N2 N 0.37596(17) 0.0977(2) 0.1012(2) 0.0218 Uani
C19 C 0.3894(2) 0.1838(3) 0.1891(3) 0.0247 Uani
H15 H 0.419390 0.241207 0.199385 0.0300 Uiso
C20 C 0.3622(2) 0.1945(3) 0.2661(3) 0.0242 Uani
H16 H 0.373453 0.257924 0.327048 0.0290 Uiso
H49 H 0.023596 0.049526 0.208662 0.0330 Uiso
O11 O 0.13499(14) 0.05530(19) 0.1041(2) 0.0248 Uani
C109 C 0.1004(2) 0.1215(3) 0.1072(3) 0.0204 Uani
C110 C 0.1405(2) 0.2146(3) 0.1184(3) 0.0219 Uani
C111 C 0.2065(2) 0.2208(3) 0.1053(3) 0.0233 Uani
H81 H 0.228859 0.166870 0.094165 0.0280 Uiso
C112 C 0.2400(2) 0.3038(3) 0.1081(3) 0.0280 Uani
H82 H 0.284320 0.306364 0.096368 0.0340 Uiso
C113 C 0.2087(2) 0.3835(3) 0.1281(4) 0.0336 Uani
C114 C 0.1453(2) 0.3814(3) 0.1470(4) 0.0424 Uani
H83 H 0.125350 0.437765 0.163853 0.0510 Uiso
C115 C 0.1108(2) 0.2966(3) 0.1412(4) 0.0337 Uani
H84 H 0.066410 0.294263 0.152853 0.0400 Uiso
O13 O 0.24820(16) 0.4656(2) 0.1339(3) 0.0462 Uani
C116 C 0.2133(2) 0.5297(3) 0.1064(4) 0.0333 Uani
C117 C 0.2572(2) 0.6248(3) 0.1549(3) 0.0258 Uani
H85 H 0.306731 0.641789 0.203167 0.0310 Uiso
C118 C 0.2286(2) 0.6953(3) 0.1327(3) 0.0236 Uani
H86 H 0.258531 0.761038 0.166767 0.0280 Uiso
C119 C 0.1568(2) 0.6711(3) 0.0614(3) 0.0245 Uani
C120 C 0.1143(2) 0.5737(3) 0.0101(4) 0.0408 Uani
C121 C 0.1419(3) 0.5029(3) 0.0318(4) 0.0490 Uani
C122 C 0.1256(2) 0.7489(3) 0.0414(3) 0.0227 Uani
O14 O 0.16292(14) 0.83804(18) 0.0984(2) 0.0251 Uani
Cd10 Cd 0.06917(2) 0.89687(2) 0.02196(2) 0.0214 Uani
O28 O 0.53491(14) 0.14296(19) 0.1021(2) 0.0256 Uani
O31 O 0.41730(15) 0.25257(19) 0.0196(2) 0.0280 Uani
Cd2 Cd 0.41978(2) 0.08344(2) 0.97083(2) 0.0208 Uani
N3 N 0.47424(18) 0.0674(2) 0.8508(3) 0.0240 Uani
C23 C 0.5430(2) 0.0564(3) 0.7113(3) 0.0267 Uani
C24 C 0.5393(2) 0.1468(3) 0.7862(3) 0.0324 Uani
H19 H 0.560640 0.207096 0.791586 0.0380 Uiso
C25 C 0.5048(2) 0.1488(3) 0.8527(3) 0.0295 Uani
H20 H 0.502445 0.211653 0.902904 0.0350 Uiso
C26 C 0.5777(2) 0.0459(3) 0.6355(3) 0.0312 Uani
C27 C 0.6074(2) 0.1195(3) 0.6252(3) 0.0282 Uani
H22 H 0.605884 0.184775 0.671046 0.0340 Uiso
C28 C 0.6422(2) 0.1096(3) 0.5499(3) 0.0294 Uani
C29 C 0.6387(2) 0.0179(3) 0.4672(3) 0.0304 Uani
C30 C 0.6733(2) 0.0129(3) 0.3993(3) 0.0292 Uani
C31 C 0.7151(2) 0.0994(3) 0.4135(3) 0.0273 Uani
C32 C 0.7180(2) 0.1909(3) 0.4967(3) 0.0305 Uani
H25 H 0.745706 0.250768 0.508453 0.0370 Uiso
C33 C 0.6815(2) 0.1951(3) 0.5613(3) 0.0341 Uani
H26 H 0.683106 0.258332 0.615590 0.0410 Uiso
C34 C 0.7523(2) 0.0899(3) 0.3420(3) 0.0293 Uani
H27 H 0.737510 0.027195 0.278779 0.0360 Uiso
C35 C 0.8048(2) 0.1593(3) 0.3552(3) 0.0336 Uani
H28 H 0.823196 0.221102 0.420025 0.0400 Uiso
C36 C 0.8358(2) 0.1453(3) 0.2749(3) 0.0279 Uani
C37 C 0.8160(2) 0.0571(3) 0.1798(3) 0.0280 Uani
H29 H 0.783499 0.000213 0.166507 0.0340 Uiso
C38 C 0.8428(2) 0.0512(3) 0.1050(3) 0.0280 Uani
N4 N 0.88931(17) 0.1272(2) 0.1171(3) 0.0246 Uani
C39 C 0.9103(3) 0.2117(3) 0.2092(4) 0.0405 Uani
H31 H 0.943669 0.266793 0.220672 0.0490 Uiso
C40 C 0.8860(3) 0.2234(3) 0.2893(4) 0.0446 Uani
H32 H 0.903686 0.284886 0.354422 0.0540 Uiso
H87 H 0.065494 0.555799 0.959260 0.0490 Uiso
H88 H 0.112576 0.436600 0.996206 0.0590 Uiso
O15 O 0.06244(15) 0.7229(2) 0.9686(2) 0.0289 Uani
O29 O 0.32389(15) 0.13306(19) 0.8775(2) 0.0279 Uani
Cd7 Cd 0.93083(2) 0.10313(2) 0.97804(2) 0.0214 Uani
C2 C 0.0073(2) 0.9968(3) 0.7011(3) 0.0317 Uani
H2 H 0.008230 0.932878 0.651140 0.0380 Uiso
C7 C 0.0548(3) 0.9818(3) 0.5176(4) 0.0372 Uani
H6 H 0.065087 0.937558 0.550044 0.0440 Uiso
C9 C 0.1371(2) 0.9294(3) 0.4250(3) 0.0310 Uani
H7 H 0.118890 0.864834 0.413097 0.0370 Uiso
C10 C 0.1815(2) 0.9412(3) 0.3750(3) 0.0306 Uani
H8 H 0.191739 0.884253 0.326999 0.0360 Uiso
H11 H 0.257547 0.978688 0.282539 0.0360 Uiso
H13 H 0.274274 0.962732 0.148967 0.0290 Uiso
H14 H 0.323840 0.954719 0.028332 0.0300 Uiso
H47 H 0.395600 0.420143 0.060321 0.0360 Uiso
H48 H 0.347726 0.542385 0.029241 0.0400 Uiso
N5 N 0.01043(18) 0.9043(2) 0.1385(3) 0.0270 Uani
C69 C 0.0105(2) 0.9919(3) 0.2138(3) 0.0275 Uani
Cd14 Cd 0.58022(2) 0.91656(2) 0.02917(2) 0.0208 Uani
C21 C 0.4779(2) 0.9794(3) 0.7790(3) 0.0266 Uani
H17 H 0.456579 0.920489 0.776287 0.0320 Uiso
C22 C 0.5112(2) 0.9711(3) 0.7091(3) 0.0274 Uani
H18 H 0.512603 0.907301 0.659465 0.0330 Uiso
H21 H 0.578997 0.980534 0.589586 0.0370 Uiso
H23 H 0.612252 0.958303 0.457611 0.0370 Uiso
H24 H 0.668691 0.949929 0.341914 0.0350 Uiso
H30 H 0.827570 0.989540 0.040521 0.0340 Uiso
O6 O 0.36682(15) 0.91958(18) 0.8907(2) 0.0242 Uani
C55 C 0.3995(2) 0.8530(3) 0.8909(3) 0.0222 Uani
O7 O 0.46509(14) 0.85704(19) 0.8979(2) 0.0256 Uani
C56 C 0.3573(2) 0.7623(3) 0.8816(3) 0.0234 Uani
C57 C 0.2856(2) 0.7542(3) 0.8775(3) 0.0262 Uani
H41 H 0.262463 0.805672 0.877187 0.0320 Uiso
C58 C 0.2476(2) 0.6731(3) 0.8739(3) 0.0300 Uani
H42 H 0.199261 0.669408 0.872881 0.0360 Uiso
C59 C 0.2812(2) 0.5971(3) 0.8719(4) 0.0312 Uani
C60 C 0.3516(2) 0.6026(3) 0.8742(4) 0.0330 Uani
H43 H 0.373900 0.549764 0.871803 0.0400 Uiso
C61 C 0.3894(2) 0.6847(3) 0.8801(3) 0.0271 Uani
H44 H 0.438276 0.688733 0.883099 0.0330 Uiso
O8 O 0.23710(16) 0.5154(2) 0.8611(3) 0.0433 Uani
C62 C 0.2689(2) 0.4460(3) 0.8827(4) 0.0321 Uani
C63 C 0.2360(2) 0.3476(3) 0.8083(4) 0.0347 Uani
H45 H 0.195097 0.329276 0.744112 0.0420 Uiso
C64 C 0.2640(2) 0.2746(3) 0.8288(3) 0.0309 Uani
H46 H 0.241291 0.206137 0.778517 0.0370 Uiso
C65 C 0.3238(2) 0.3013(3) 0.9208(3) 0.0258 Uani
C66 C 0.3549(2) 0.4013(3) 0.9957(4) 0.0290 Uani
C67 C 0.3270(2) 0.4740(3) 0.9772(4) 0.0331 Uani
C68 C 0.3569(2) 0.2235(3) 0.9413(3) 0.0255 Uani
N10 N 0.11069(17) 0.8728(2) 0.8829(3) 0.0246 Uani
C89 C 0.5221(2) 0.0206(3) 0.2210(3) 0.0266 Uani
H65 H 0.543421 0.079511 0.223713 0.0320 Uiso
C90 C 0.4888(2) 0.0289(3) 0.2909(3) 0.0274 Uani
H66 H 0.487397 0.092699 0.340535 0.0330 Uiso
H69 H 0.421003 0.019466 0.410414 0.0370 Uiso
H71 H 0.387748 0.041697 0.542389 0.0370 Uiso
H72 H 0.331309 0.050071 0.658086 0.0350 Uiso
H78 H 0.172430 0.010460 0.959479 0.0340 Uiso
O16 O 0.63318(15) 0.08042(18) 0.1093(2) 0.0242 Uani
C123 C 0.6005(2) 0.1470(3) 0.1091(3) 0.0222 Uani
C124 C 0.6427(2) 0.2377(3) 0.1184(3) 0.0234 Uani
C125 C 0.7144(2) 0.2458(3) 0.1225(3) 0.0262 Uani
H89 H 0.737537 0.194328 0.122813 0.0320 Uiso
C126 C 0.7524(2) 0.3269(3) 0.1261(3) 0.0300 Uani
H90 H 0.800739 0.330592 0.127119 0.0360 Uiso
C127 C 0.7188(2) 0.4029(3) 0.1281(4) 0.0312 Uani
C128 C 0.6484(2) 0.3974(3) 0.1258(4) 0.0330 Uani
H91 H 0.626100 0.450236 0.128197 0.0400 Uiso
C129 C 0.6106(2) 0.3153(3) 0.1199(3) 0.0271 Uani
H92 H 0.561724 0.311267 0.116901 0.0330 Uiso
O18 O 0.76290(16) 0.4846(2) 0.1389(3) 0.0433 Uani
C130 C 0.7311(2) 0.5540(3) 0.1173(4) 0.0321 Uani
C131 C 0.7640(2) 0.6524(3) 0.1917(4) 0.0347 Uani
H93 H 0.804903 0.670724 0.255888 0.0420 Uiso
C132 C 0.7360(2) 0.7254(3) 0.1712(3) 0.0309 Uani
H94 H 0.758709 0.793863 0.221483 0.0370 Uiso
C133 C 0.6762(2) 0.6987(3) 0.0792(3) 0.0258 Uani
C134 C 0.6451(2) 0.5987(3) 0.0043(4) 0.0290 Uani
C135 C 0.6730(2) 0.5260(3) 0.0228(4) 0.0331 Uani
C136 C 0.6431(2) 0.7765(3) 0.0587(3) 0.0255 Uani
O19 O 0.67611(15) 0.86694(19) 0.1225(2) 0.0279 Uani
O25 O 0.93756(15) 0.2771(2) 0.0314(2) 0.0289 Uani
N1 N 0.98957(18) 0.0957(2) 0.8615(3) 0.0270 Uani
C1 C 0.9895(2) 0.0081(3) 0.7862(3) 0.0275 Uani
C70 C 0.9927(2) 0.0032(3) 0.2989(3) 0.0317 Uani
H50 H 0.991770 0.067122 0.348860 0.0380 Uiso
C75 C 0.9452(3) 0.0182(3) 0.4824(4) 0.0372 Uani
H54 H 0.934913 0.062442 0.449956 0.0440 Uiso
C77 C 0.8629(2) 0.0706(3) 0.5750(3) 0.0310 Uani
H55 H 0.881110 0.135166 0.586903 0.0370 Uiso
C78 C 0.8185(2) 0.0588(3) 0.6250(3) 0.0306 Uani
H56 H 0.808261 0.115747 0.673001 0.0360 Uiso
H59 H 0.742453 0.021312 0.717461 0.0360 Uiso
H61 H 0.725726 0.037268 0.851033 0.0290 Uiso
H62 H 0.676160 0.045281 0.971668 0.0300 Uiso
H95 H 0.604400 0.579857 0.939679 0.0360 Uiso
H96 H 0.652274 0.457615 0.970759 0.0400 Uiso
O20 O 0.58270(15) 0.74743(19) 0.9804(2) 0.0280 Uani
O23 O 0.83708(14) 0.16196(18) 0.9016(2) 0.0251 Uani
H39 H 0.934506 0.444201 0.040740 0.0490 Uiso
H40 H 0.887424 0.563400 0.003794 0.0590 Uiso
N7 N 0.52576(18) 0.9326(2) 0.1492(3) 0.0240 Uani
C91 C 0.4570(2) 0.9436(3) 0.2887(3) 0.0267 Uani
C92 C 0.4607(2) 0.8532(3) 0.2138(3) 0.0324 Uani
H67 H 0.439360 0.792904 0.208414 0.0380 Uiso
C93 C 0.4952(2) 0.8512(3) 0.1473(3) 0.0295 Uani
H68 H 0.497555 0.788347 0.097096 0.0350 Uiso
C94 C 0.4223(2) 0.9541(3) 0.3645(3) 0.0312 Uani
C95 C 0.3926(2) 0.8805(3) 0.3748(3) 0.0282 Uani
H70 H 0.394116 0.815225 0.328954 0.0340 Uiso
C96 C 0.3578(2) 0.8904(3) 0.4501(3) 0.0294 Uani
C97 C 0.3613(2) 0.9821(3) 0.5328(3) 0.0304 Uani
C98 C 0.3267(2) 0.9871(3) 0.6007(3) 0.0292 Uani
C99 C 0.2849(2) 0.9006(3) 0.5865(3) 0.0273 Uani
C100 C 0.2820(2) 0.8091(3) 0.5033(3) 0.0305 Uani
H73 H 0.254294 0.749232 0.491547 0.0370 Uiso
C101 C 0.3185(2) 0.8049(3) 0.4387(3) 0.0341 Uani
H74 H 0.316894 0.741668 0.384410 0.0410 Uiso
C102 C 0.2477(2) 0.9101(3) 0.6580(3) 0.0293 Uani
H75 H 0.262490 0.972805 0.721221 0.0360 Uiso
C103 C 0.1952(2) 0.8407(3) 0.6448(3) 0.0336 Uani
H76 H 0.176804 0.778898 0.579975 0.0400 Uiso
C104 C 0.1642(2) 0.8547(3) 0.7251(3) 0.0279 Uani
C105 C 0.1840(2) 0.9429(3) 0.8202(3) 0.0280 Uani
H77 H 0.216501 0.999787 0.833493 0.0340 Uiso
C106 C 0.1572(2) 0.9488(3) 0.8950(3) 0.0280 Uani
C107 C 0.0897(3) 0.7883(3) 0.7908(4) 0.0405 Uani
H79 H 0.056331 0.733207 0.779328 0.0490 Uiso
C108 C 0.1140(3) 0.7766(3) 0.7107(4) 0.0446 Uani
H80 H 0.096314 0.715114 0.645578 0.0540 Uiso
H1 H 0.976404 0.950474 0.791338 0.0330 Uiso
O1 O 0.86501(14) 0.94470(19) 0.8959(2) 0.0248 Uani
C41 C 0.8996(2) 0.8785(3) 0.8928(3) 0.0204 Uani
O2 O 0.96427(14) 0.88628(19) 0.8977(2) 0.0239 Uani
C42 C 0.8595(2) 0.7854(3) 0.8816(3) 0.0219 Uani
C43 C 0.7935(2) 0.7792(3) 0.8947(3) 0.0233 Uani
H33 H 0.771141 0.833130 0.905835 0.0280 Uiso
C44 C 0.7600(2) 0.6962(3) 0.8919(3) 0.0280 Uani
H34 H 0.715680 0.693636 0.903632 0.0340 Uiso
C45 C 0.7913(2) 0.6165(3) 0.8719(4) 0.0336 Uani
C46 C 0.8547(2) 0.6186(3) 0.8530(4) 0.0424 Uani
H35 H 0.874650 0.562235 0.836147 0.0510 Uiso
C47 C 0.8892(2) 0.7034(3) 0.8588(4) 0.0337 Uani
H36 H 0.933590 0.705737 0.847147 0.0400 Uiso
O3 O 0.75180(16) 0.5344(2) 0.8661(3) 0.0462 Uani
C48 C 0.7867(2) 0.4703(3) 0.8936(4) 0.0333 Uani
C49 C 0.7428(2) 0.3752(3) 0.8451(3) 0.0258 Uani
H37 H 0.693269 0.358211 0.796833 0.0310 Uiso
C50 C 0.7714(2) 0.3047(3) 0.8673(3) 0.0236 Uani
H38 H 0.741469 0.238962 0.833233 0.0280 Uiso
C51 C 0.8432(2) 0.3289(3) 0.9386(3) 0.0245 Uani
C52 C 0.8857(2) 0.4263(3) 0.9899(4) 0.0408 Uani
C53 C 0.8581(3) 0.4971(3) 0.9682(4) 0.0490 Uani
C54 C 0.8744(2) 0.2511(3) 0.9586(3) 0.0227 Uani
C71 C 0.9761(2) 0.9213(3) 0.3119(4) 0.0339 Uani
C72 C 0.9711(3) 0.8296(3) 0.2291(4) 0.0430 Uani
H51 H 0.955073 0.770525 0.230105 0.0510 Uiso
C73 C 0.9891(2) 0.8228(3) 0.1453(4) 0.0354 Uani
H52 H 0.986377 0.759087 0.090879 0.0430 Uiso
C74 C 0.9750(3) 0.9332(3) 0.4170(4) 0.0376 Uani
H53 H 0.950781 0.868252 0.406638 0.0450 Uiso
C76 C 0.8812(2) 0.9911(3) 0.5084(4) 0.0339 Uani
C79 C 0.7881(2) 0.9646(3) 0.6065(3) 0.0287 Uani
C80 C 0.8030(2) 0.8823(3) 0.5328(3) 0.0300 Uani
H57 H 0.781436 0.816948 0.515685 0.0360 Uiso
C81 C 0.8492(2) 0.8963(3) 0.4849(3) 0.0347 Uani
H58 H 0.859079 0.840086 0.435294 0.0420 Uiso
C82 C 0.7471(2) 0.9592(3) 0.6692(3) 0.0305 Uani
C83 C 0.7147(2) 0.8797(3) 0.6691(3) 0.0277 Uani
H60 H 0.713099 0.815222 0.617229 0.0340 Uiso
C84 C 0.6817(2) 0.8883(3) 0.7461(3) 0.0235 Uani
C85 C 0.6957(2) 0.9786(3) 0.8384(3) 0.0239 Uani
C86 C 0.6663(2) 0.9827(3) 0.9103(3) 0.0245 Uani
N6 N 0.62404(17) 0.9023(2) 0.8988(2) 0.0218 Uani
C87 C 0.6106(2) 0.8162(3) 0.8109(3) 0.0247 Uani
H63 H 0.580610 0.758793 0.800615 0.0300 Uiso
C88 C 0.6378(2) 0.8055(3) 0.7339(3) 0.0242 Uani
H64 H 0.626547 0.742076 0.672952 0.0290 Uiso
loop_
_atom_site_aniso_label
_atom_site_aniso_U_11
_atom_site_aniso_U_22
_atom_site_aniso_U_33
_atom_site_aniso_U_23
_atom_site_aniso_U_13
_atom_site_aniso_U_12
O22 0.0206 0.0333 0.0297 0.0217 0.0144 0.0084
C3 0.037 0.042 0.046 0.029 0.032 0.016
C4 0.047 0.042 0.059 0.032 0.034 0.007
C5 0.038 0.031 0.039 0.017 0.019 0.002
C6 0.044 0.041 0.042 0.024 0.028 0.013
C8 0.029 0.052 0.043 0.038 0.018 0.015
C11 0.023 0.038 0.027 0.017 0.0116 0.0035
C12 0.023 0.036 0.028 0.013 0.0112 0.004
C13 0.031 0.051 0.032 0.022 0.02 0.017
C14 0.032 0.033 0.032 0.016 0.019 0.0083
C15 0.032 0.028 0.027 0.0113 0.019 0.0087
C16 0.021 0.024 0.03 0.0149 0.0127 0.0066
C17 0.02 0.025 0.029 0.0137 0.0123 0.0023
C18 0.023 0.024 0.029 0.0115 0.0158 0.0046
N2 0.0186 0.0249 0.0284 0.0154 0.0135 0.0056
C19 0.025 0.024 0.032 0.0161 0.0156 0.0069
C20 0.025 0.019 0.026 0.0083 0.0111 0.0043
O11 0.0252 0.026 0.0331 0.0189 0.0157 0.0105
C109 0.023 0.026 0.02 0.0147 0.0122 0.0081
C110 0.022 0.022 0.026 0.0151 0.0092 0.007
C111 0.022 0.028 0.031 0.0203 0.0138 0.0115
C112 0.019 0.034 0.043 0.027 0.014 0.0087
C113 0.024 0.03 0.058 0.031 0.015 0.009
C114 0.029 0.03 0.086 0.038 0.027 0.019
C115 0.025 0.031 0.059 0.028 0.023 0.0135
O13 0.0217 0.0402 0.097 0.053 0.0182 0.0117
C116 0.027 0.029 0.056 0.031 0.015 0.01
C117 0.02 0.024 0.036 0.0164 0.0119 0.0043
C118 0.024 0.022 0.031 0.0162 0.0137 0.0055
C119 0.026 0.024 0.031 0.0178 0.0132 0.0089
C120 0.025 0.031 0.058 0.027 0 0.001
C121 0.029 0.03 0.08 0.034 0.003 0
C122 0.022 0.028 0.029 0.0193 0.0147 0.009
O14 0.0237 0.0199 0.0348 0.0163 0.0112 0.005
Cd10 0.02243 0.02458 0.0295 0.01927 0.01507 0.01001
O28 0.0246 0.0305 0.0311 0.0191 0.0162 0.0069
O31 0.0237 0.0245 0.0417 0.02 0.0141 0.0075
Cd2 0.02371 0.02031 0.0301 0.01664 0.01749 0.00901
N3 0.0258 0.0248 0.0282 0.0152 0.015 0.0077
C23 0.027 0.035 0.029 0.022 0.014 0.0112
C24 0.034 0.031 0.035 0.018 0.016 0.0002
C25 0.034 0.028 0.029 0.0148 0.015 0.0039
C26 0.035 0.036 0.034 0.023 0.018 0.012
C27 0.026 0.036 0.029 0.019 0.0134 0.0094
C28 0.025 0.04 0.029 0.02 0.0131 0.008
C29 0.024 0.042 0.036 0.03 0.01 0.0029
C30 0.025 0.037 0.028 0.017 0.0121 0.0056
C31 0.027 0.039 0.031 0.025 0.0171 0.0128
C32 0.032 0.034 0.035 0.02 0.02 0.0088
C33 0.039 0.038 0.035 0.022 0.02 0.01
C34 0.028 0.039 0.033 0.022 0.019 0.013
C35 0.034 0.036 0.033 0.015 0.019 0.007
C36 0.029 0.037 0.029 0.021 0.0177 0.0092
C37 0.028 0.028 0.04 0.02 0.022 0.0103
C38 0.03 0.027 0.035 0.016 0.021 0.0084
N4 0.0229 0.0284 0.033 0.0191 0.0169 0.0098
C39 0.046 0.034 0.048 0.019 0.03 0.001
C40 0.055 0.034 0.035 0.005 0.028 -0.009
O15 0.0253 0.028 0.0352 0.0198 0.0079 0.0063
O29 0.0292 0.0218 0.0418 0.0203 0.0168 0.0105
Cd7 0.02243 0.02458 0.0295 0.01927 0.01507 0.01001
C2 0.033 0.039 0.041 0.027 0.023 0.018
C7 0.045 0.045 0.041 0.028 0.028 0.02
C9 0.024 0.046 0.038 0.03 0.015 0.015
C10 0.03 0.038 0.03 0.018 0.017 0.009
N5 0.0256 0.037 0.0272 0.0224 0.0113 0.0072
C69 0.03 0.036 0.035 0.027 0.019 0.0163
Cd14 0.02371 0.02031 0.0301 0.01664 0.01749 0.00901
C21 0.03 0.032 0.032 0.023 0.018 0.0103
C22 0.029 0.031 0.031 0.0192 0.0155 0.0117
O6 0.0329 0.0166 0.0319 0.0137 0.0201 0.009
C55 0.025 0.025 0.02 0.0119 0.0119 0.0045
O7 0.0246 0.0305 0.0311 0.0191 0.0162 0.0069
C56 0.027 0.02 0.032 0.015 0.0182 0.0088
C57 0.026 0.022 0.042 0.02 0.019 0.0132
C58 0.018 0.03 0.053 0.026 0.018 0.0099
C59 0.023 0.029 0.057 0.031 0.019 0.0091
C60 0.026 0.028 0.059 0.029 0.02 0.0163
C61 0.024 0.024 0.042 0.0186 0.019 0.0093
O8 0.0275 0.0323 0.095 0.047 0.0292 0.0139
C62 0.029 0.027 0.064 0.034 0.028 0.014
C63 0.029 0.036 0.052 0.03 0.018 0.012
C64 0.037 0.025 0.043 0.022 0.022 0.0109
C65 0.028 0.024 0.041 0.022 0.023 0.0085
C66 0.027 0.03 0.044 0.024 0.021 0.0117
C67 0.03 0.022 0.055 0.02 0.024 0.0075
C68 0.026 0.025 0.041 0.021 0.024 0.009
N10 0.0229 0.0284 0.033 0.0191 0.0169 0.0098
C89 0.03 0.032 0.032 0.023 0.018 0.0103
C90 0.029 0.031 0.031 0.0192 0.0155 0.0117
O16 0.0329 0.0166 0.0319 0.0137 0.0201 0.009
C123 0.025 0.025 0.02 0.0119 0.0119 0.0045
C124 0.027 0.02 0.032 0.015 0.0182 0.0088
C125 0.026 0.022 0.042 0.02 0.019 0.0132
C126 0.018 0.03 0.053 0.026 0.018 0.0099
C127 0.023 0.029 0.057 0.031 0.019 0.0091
C128 0.026 0.028 0.059 0.029 0.02 0.0163
C129 0.024 0.024 0.042 0.0186 0.019 0.0093
O18 0.0275 0.0323 0.095 0.047 0.0292 0.0139
C130 0.029 0.027 0.064 0.034 0.028 0.014
C131 0.029 0.036 0.052 0.03 0.018 0.012
C132 0.037 0.025 0.043 0.022 0.022 0.0109
C133 0.028 0.024 0.041 0.022 0.023 0.0085
C134 0.027 0.03 0.044 0.024 0.021 0.0117
C135 0.03 0.022 0.055 0.02 0.024 0.0075
C136 0.026 0.025 0.041 0.021 0.024 0.009
O19 0.0292 0.0218 0.0418 0.0203 0.0168 0.0105
O25 0.0253 0.028 0.0352 0.0198 0.0079 0.0063
N1 0.0256 0.037 0.0272 0.0224 0.0113 0.0072
C1 0.03 0.036 0.035 0.027 0.019 0.0163
C70 0.033 0.039 0.041 0.027 0.023 0.018
C75 0.045 0.045 0.041 0.028 0.028 0.02
C77 0.024 0.046 0.038 0.03 0.015 0.015
C78 0.03 0.038 0.03 0.018 0.017 0.009
O20 0.0237 0.0245 0.0417 0.02 0.0141 0.0075
O23 0.0237 0.0199 0.0348 0.0163 0.0112 0.005
N7 0.0258 0.0248 0.0282 0.0152 0.015 0.0077
C91 0.027 0.035 0.029 0.022 0.014 0.0112
C92 0.034 0.031 0.035 0.018 0.016 0.0002
C93 0.034 0.028 0.029 0.0148 0.015 0.0039
C94 0.035 0.036 0.034 0.023 0.018 0.012
C95 0.026 0.036 0.029 0.019 0.0134 0.0094
C96 0.025 0.04 0.029 0.02 0.0131 0.008
C97 0.024 0.042 0.036 0.03 0.01 0.0029
C98 0.025 0.037 0.028 0.017 0.0121 0.0056
C99 0.027 0.039 0.031 0.025 0.0171 0.0128
C100 0.032 0.034 0.035 0.02 0.02 0.0088
C101 0.039 0.038 0.035 0.022 0.02 0.01
C102 0.028 0.039 0.033 0.022 0.019 0.013
C103 0.034 0.036 0.033 0.015 0.019 0.007
C104 0.029 0.037 0.029 0.021 0.0177 0.0092
C105 0.028 0.028 0.04 0.02 0.022 0.0103
C106 0.03 0.027 0.035 0.016 0.021 0.0084
C107 0.046 0.034 0.048 0.019 0.03 0.001
C108 0.055 0.034 0.035 0.005 0.028 -0.009
O1 0.0252 0.026 0.0331 0.0189 0.0157 0.0105
C41 0.023 0.026 0.02 0.0147 0.0122 0.0081
O2 0.0206 0.0333 0.0297 0.0217 0.0144 0.0084
C42 0.022 0.022 0.026 0.0151 0.0092 0.007
C43 0.022 0.028 0.031 0.0203 0.0138 0.0115
C44 0.019 0.034 0.043 0.027 0.014 0.0087
C45 0.024 0.03 0.058 0.031 0.015 0.009
C46 0.029 0.03 0.086 0.038 0.027 0.019
C47 0.025 0.031 0.059 0.028 0.023 0.0135
O3 0.0217 0.0402 0.097 0.053 0.0182 0.0117
C48 0.027 0.029 0.056 0.031 0.015 0.01
C49 0.02 0.024 0.036 0.0164 0.0119 0.0043
C50 0.024 0.022 0.031 0.0162 0.0137 0.0055
C51 0.026 0.024 0.031 0.0178 0.0132 0.0089
C52 0.025 0.031 0.058 0.027 0 0.001
C53 0.029 0.03 0.08 0.034 0.003 0
C54 0.022 0.028 0.029 0.0193 0.0147 0.009
C71 0.037 0.042 0.046 0.029 0.032 0.016
C72 0.047 0.042 0.059 0.032 0.034 0.007
C73 0.038 0.031 0.039 0.017 0.019 0.002
C74 0.044 0.041 0.042 0.024 0.028 0.013
C76 0.029 0.052 0.043 0.038 0.018 0.015
C79 0.023 0.038 0.027 0.017 0.0116 0.0035
C80 0.023 0.036 0.028 0.013 0.0112 0.004
C81 0.031 0.051 0.032 0.022 0.02 0.017
C82 0.032 0.033 0.032 0.016 0.019 0.0083
C83 0.032 0.028 0.027 0.0113 0.019 0.0087
C84 0.021 0.024 0.03 0.0149 0.0127 0.0066
C85 0.02 0.025 0.029 0.0137 0.0123 0.0023
C86 0.023 0.024 0.029 0.0115 0.0158 0.0046
N6 0.0186 0.0249 0.0284 0.0154 0.0135 0.0056
C87 0.025 0.024 0.032 0.0161 0.0156 0.0069
C88 0.025 0.019 0.026 0.0083 0.0111 0.0043
loop_
_geom_bond_atom_site_label_1
_geom_bond_atom_site_label_2
_geom_bond_site_symmetry_1
_geom_bond_site_symmetry_2
C4 C3 1_555 1_555
H3 C4 1_555 1_555
H4 C5 1_555 1_555
C6 C3 1_555 1_555
H5 C6 1_555 1_555
C12 C11 1_555 1_555
H9 C12 1_555 1_555
C13 C8 1_555 1_555
H10 C13 1_555 1_555
C14 C11 1_555 1_555
C15 C14 1_555 1_555
H12 C15 1_555 1_555
C16 C15 1_555 1_555
C17 C16 1_555 1_555
C18 C17 1_555 1_555
N2 C18 1_555 1_555
C19 N2 1_555 1_555
H15 C19 1_555 1_555
C20 C16 1_555 1_555
H16 C20 1_555 1_555
C109 O11 1_555 1_555
O22 C109 1_555 1_555
C110 C109 1_555 1_555
C111 C110 1_555 1_555
H81 C111 1_555 1_555
C112 C111 1_555 1_555
H82 C112 1_555 1_555
C113 C112 1_555 1_555
C114 C113 1_555 1_555
H83 C114 1_555 1_555
C115 C110 1_555 1_555
H84 C115 1_555 1_555
O13 C113 1_555 1_555
C116 O13 1_555 1_555
C117 C116 1_555 1_555
H85 C117 1_555 1_555
C118 C117 1_555 1_555
H86 C118 1_555 1_555
C119 C118 1_555 1_555
C120 C119 1_555 1_555
C121 C116 1_555 1_555
C122 C119 1_555 1_555
O14 C122 1_555 1_555
Cd10 O14 1_555 1_555
C4 C5 1_555 1_555
C12 C13 1_555 1_555
C19 C20 1_555 1_555
C114 C115 1_555 1_555
C120 C121 1_555 1_555
N3 Cd2 1_555 1_555
C24 C23 1_555 1_555
H19 C24 1_555 1_555
C25 N3 1_555 1_555
H20 C25 1_555 1_555
C26 C23 1_555 1_555
C27 C26 1_555 1_555
H22 C27 1_555 1_555
C28 C27 1_555 1_555
C29 C28 1_555 1_555
C30 C29 1_555 1_555
C31 C30 1_555 1_555
C32 C31 1_555 1_555
H25 C32 1_555 1_555
C33 C28 1_555 1_555
H26 C33 1_555 1_555
C34 C31 1_555 1_555
H27 C34 1_555 1_555
C35 C34 1_555 1_555
H28 C35 1_555 1_555
C36 C35 1_555 1_555
C37 C36 1_555 1_555
H29 C37 1_555 1_555
C38 C37 1_555 1_555
N4 C38 1_555 1_555
C39 N4 1_555 1_555
H31 C39 1_555 1_555
C40 C36 1_555 1_555
H32 C40 1_555 1_555
O29 Cd2 1_555 1_555
C24 C25 1_555 1_555
C32 C33 1_555 1_555
C39 C40 1_555 1_555
H2 C2 1_555 1_555
H6 C7 1_555 1_555
H7 C9 1_555 1_555
C10 C9 1_555 1_555
H8 C10 1_555 1_555
N5 C69 1_555 1_555
Cd10 N5 1_555 1_555
H17 C21 1_555 1_555
C22 C21 1_555 1_555
H18 C22 1_555 1_555
C55 O6 1_555 1_555
O7 C55 1_555 1_555
C56 C55 1_555 1_555
C57 C56 1_555 1_555
H41 C57 1_555 1_555
C58 C57 1_555 1_555
H42 C58 1_555 1_555
C59 C58 1_555 1_555
C60 C59 1_555 1_555
H43 C60 1_555 1_555
C61 C56 1_555 1_555
H44 C61 1_555 1_555
O8 C59 1_555 1_555
C62 O8 1_555 1_555
C63 C62 1_555 1_555
H45 C63 1_555 1_555
C64 C63 1_555 1_555
H46 C64 1_555 1_555
C65 C64 1_555 1_555
C66 C65 1_555 1_555
C67 C62 1_555 1_555
C68 C65 1_555 1_555
O29 C68 1_555 1_555
C60 C61 1_555 1_555
C66 C67 1_555 1_555
H65 C89 1_555 1_555
C90 C89 1_555 1_555
H66 C90 1_555 1_555
C123 O16 1_555 1_555
O28 C123 1_555 1_555
C124 C123 1_555 1_555
C125 C124 1_555 1_555
H89 C125 1_555 1_555
C126 C125 1_555 1_555
H90 C126 1_555 1_555
C127 C126 1_555 1_555
C128 C127 1_555 1_555
H91 C128 1_555 1_555
C129 C124 1_555 1_555
H92 C129 1_555 1_555
O18 C127 1_555 1_555
C130 O18 1_555 1_555
C131 C130 1_555 1_555
H93 C131 1_555 1_555
C132 C131 1_555 1_555
H94 C132 1_555 1_555
C133 C132 1_555 1_555
C134 C133 1_555 1_555
C135 C130 1_555 1_555
C136 C133 1_555 1_555
O19 C136 1_555 1_555
Cd14 O19 1_555 1_555
C128 C129 1_555 1_555
C134 C135 1_555 1_555
Cd7 N1 1_555 1_555
N1 C1 1_555 1_555
H50 C70 1_555 1_555
H54 C75 1_555 1_555
H55 C77 1_555 1_555
C78 C77 1_555 1_555
H56 C78 1_555 1_555
O23 Cd7 1_555 1_555
N7 Cd14 1_555 1_555
C92 C91 1_555 1_555
H67 C92 1_555 1_555
C93 N7 1_555 1_555
H68 C93 1_555 1_555
C94 C91 1_555 1_555
C95 C94 1_555 1_555
H70 C95 1_555 1_555
C96 C95 1_555 1_555
C97 C96 1_555 1_555
C98 C97 1_555 1_555
C99 C98 1_555 1_555
C100 C99 1_555 1_555
H73 C100 1_555 1_555
C101 C96 1_555 1_555
H74 C101 1_555 1_555
C102 C99 1_555 1_555
H75 C102 1_555 1_555
C103 C102 1_555 1_555
H76 C103 1_555 1_555
C104 C103 1_555 1_555
C105 C104 1_555 1_555
H77 C105 1_555 1_555
C106 C105 1_555 1_555
N10 C106 1_555 1_555
C107 N10 1_555 1_555
H79 C107 1_555 1_555
C108 C104 1_555 1_555
H80 C108 1_555 1_555
C92 C93 1_555 1_555
C100 C101 1_555 1_555
C107 C108 1_555 1_555
C41 O1 1_555 1_555
O2 C41 1_555 1_555
C42 C41 1_555 1_555
C43 C42 1_555 1_555
H33 C43 1_555 1_555
C44 C43 1_555 1_555
H34 C44 1_555 1_555
C45 C44 1_555 1_555
C46 C45 1_555 1_555
H35 C46 1_555 1_555
C47 C42 1_555 1_555
H36 C47 1_555 1_555
O3 C45 1_555 1_555
C48 O3 1_555 1_555
C49 C48 1_555 1_555
H37 C49 1_555 1_555
C50 C49 1_555 1_555
H38 C50 1_555 1_555
C51 C50 1_555 1_555
C52 C51 1_555 1_555
C53 C48 1_555 1_555
C54 C51 1_555 1_555
O23 C54 1_555 1_555
C72 C71 1_555 1_555
H51 C72 1_555 1_555
H52 C73 1_555 1_555
H53 C74 1_555 1_555
C80 C79 1_555 1_555
H57 C80 1_555 1_555
C81 C76 1_555 1_555
H58 C81 1_555 1_555
C82 C79 1_555 1_555
C83 C82 1_555 1_555
H60 C83 1_555 1_555
C84 C83 1_555 1_555
C85 C84 1_555 1_555
C86 C85 1_555 1_555
N6 C86 1_555 1_555
C87 N6 1_555 1_555
H63 C87 1_555 1_555
C88 C84 1_555 1_555
H64 C88 1_555 1_555
C46 C47 1_555 1_555
C52 C53 1_555 1_555
C71 C74 1_555 1_555
C72 C73 1_555 1_555
C80 C81 1_555 1_555
C87 C88 1_555 1_555

#END
