
###############################################################################
#
# This file contains modified crystal structure data generated from the
# MOF subset of the Cambridge Structural Database (CSD) v543 
# hosted by the Cambridge Crystallographic Data Centre (CCDC).
#
# This work is licensed under the Creative Commons
# Attribution-NonCommercial-ShareAlike 4.0 International License.
# To view a copy of this license, visit
# http://creativecommons.org/licenses/by-nc-sa/4.0/
# or send a letter to
# Creative Commons, PO Box 1866, Mountain View, CA 94042, USA.
#
# CIF created using the CSD Python API on 29 September 2022
# The structure has been converted into the P1 space group
# The structure has a 3D framework
# The original CSD entry HOLQIK is in the cubic crystal system
# The framework has been calculated to contain at least 10.0% void space
# The void calculation uses a probe of radius 1.32A, grid spacing 0.4
#
###############################################################################

data_HOLQIK
_chemical_formula_moiety         '(C360 H192 Cl24 N24 O128 Zn32)n'
_symmetry_cell_setting           triclinic
_symmetry_space_group_name_H-M   'P 1'
_symmetry_Int_Tables_number      1
_space_group_name_Hall           'P 1'
loop_
_symmetry_equiv_pos_site_id
_symmetry_equiv_pos_as_xyz
1 x,y,z
_cell_length_a                   25.3840(10)
_cell_length_b                   25.3840(10)
_cell_length_c                   25.3840(10)
_cell_angle_alpha                90
_cell_angle_beta                 90
_cell_angle_gamma                90
_cell_volume                     16356.1
loop_
_atom_site_label
_atom_site_type_symbol
_atom_site_fract_x
_atom_site_fract_y
_atom_site_fract_z
O1 O 0.2180(2) 0.2180(2) 0.2180(2)
O2 O 0.1831(4) 0.1889(4) 0.0980(4)
O5 O 0.2662(5) 0.2451(4) 0.1032(5)
H1 H 0.1618 0.1710 0.0049
C2 C 0.2510(10) 0.2722(11) 0.0032(10)
H2 H 0.2708 0.2940 0.0250
C4 C 0.2204(7) 0.2287(7) 0.0212(8)
C5 C 0.2219(8) 0.2227(8) 0.0806(7)
Zn1 Zn 0.17336(5) 0.17336(5) 0.17336(5)
Zn2 Zn 0.25066(5) 0.17647(5) 0.27217(5)
O7 O 0.0980(4) 0.1831(4) 0.1889(4)
O10 O 0.1032(5) 0.2662(5) 0.2451(4)
H9 H 0.0049 0.1618 0.1710
C17 C 0.0032(10) 0.2510(10) 0.2722(11)
H10 H 0.0250 0.2708 0.2940
C19 C 0.0212(8) 0.2204(7) 0.2287(7)
C20 C 0.0806(7) 0.2219(8) 0.2227(8)
Zn3 Zn 0.27217(5) 0.25066(5) 0.17647(5)
O12 O 0.1889(4) 0.0980(4) 0.1831(4)
O15 O 0.2451(4) 0.1032(5) 0.2662(5)
H17 H 0.1710 0.0049 0.1618
C32 C 0.2722(11) 0.0032(10) 0.2510(10)
H18 H 0.2940 0.0250 0.2708
C34 C 0.2287(7) 0.0212(8) 0.2204(7)
C35 C 0.2227(8) 0.0806(7) 0.2219(8)
Zn4 Zn 0.17647(5) 0.27217(5) 0.25066(5)
O17 O 0.3277(4) 0.1878(3) 0.2702(4)
O18 O 0.2702(4) 0.3277(4) 0.1878(3)
O19 O 0.1878(3) 0.2702(4) 0.3277(4)
O20 O 0.3440(4) 0.2368(4) 0.1979(5)
O21 O 0.1979(5) 0.3440(4) 0.2368(4)
O22 O 0.2368(4) 0.1979(5) 0.3440(4)
O3 O 0.1878(3) 0.2298(4) 0.8277(4)
O4 O 0.2368(4) 0.3021(5) 0.8440(4)
C1 C 0.1836(6) 0.1964(6) 0.9900(6)
C3 C 0.2118(5) 0.2609(5) 0.8560(5)
C6 C 0.2130(6) 0.2464(5) 0.9155(6)
C7 C 0.2473(7) 0.2780(8) 0.9454(7)
H3 H 0.2681 0.3031 0.9285
C8 C 0.1846(6) 0.2073(6) 0.9366(6)
N1 N 0.1583(8) 0.1679(8) 0.9065(8)
H4 H 0.1439 0.1832 0.8799
O6 O 0.1676(15) 0.088(2) 0.9437(16)
C9 C 0.0975(8) 0.1172(12) 0.8234(12)
H5 H 0.1036 0.1533 0.8221
C10 C 0.1181(8) 0.0922(14) 0.8647(11)
C11 C 0.121(2) 0.0406(18) 0.881(3)
H6 H 0.1382 0.0258 0.9102
Cl1 Cl 0.0450(13) 0.0091(11) 0.7348(11)
C12 C 0.0683(11) 0.0968(18) 0.7823(14)
H7 H 0.0519 0.1116 0.7531
C13 C 0.0922(19) 0.018(4) 0.843(2)
C14 C 0.0725(15) 0.047(2) 0.801(2)
C15 C 0.1471(10) 0.1160(12) 0.9033(14)
Zn6 Zn 0.17647(5) 0.22783(5) 0.75066(5)
Zn9 Zn 0.25066(5) 0.32353(5) 0.77217(5)
O13 O 0.2298(4) 0.8277(4) 0.1878(3)
O14 O 0.3021(5) 0.8440(4) 0.2368(4)
C31 C 0.1964(6) 0.9900(6) 0.1836(6)
C33 C 0.2609(5) 0.8560(5) 0.2118(5)
C36 C 0.2464(5) 0.9155(6) 0.2130(6)
C37 C 0.2780(8) 0.9454(7) 0.2473(7)
H19 H 0.3031 0.9285 0.2681
C38 C 0.2073(6) 0.9366(6) 0.1846(6)
N3 N 0.1679(8) 0.9065(8) 0.1583(8)
H20 H 0.1832 0.8799 0.1439
O16 O 0.088(2) 0.9437(16) 0.1676(15)
C39 C 0.1172(12) 0.8234(12) 0.0975(8)
H21 H 0.1533 0.8221 0.1036
C40 C 0.0922(14) 0.8647(11) 0.1181(8)
C41 C 0.0406(18) 0.881(3) 0.121(2)
H22 H 0.0258 0.9102 0.1382
Cl3 Cl 0.0091(11) 0.7348(11) 0.0450(13)
C42 C 0.0968(18) 0.7823(14) 0.0683(11)
H23 H 0.1116 0.7531 0.0519
C43 C 0.018(4) 0.843(2) 0.0922(19)
C44 C 0.047(2) 0.801(2) 0.0725(15)
C45 C 0.1160(12) 0.9033(14) 0.1471(10)
Zn5 Zn 0.22783(5) 0.75066(5) 0.17647(5)
Zn8 Zn 0.32353(5) 0.77217(5) 0.25066(5)
O8 O 0.8277(4) 0.1878(3) 0.2298(4)
O9 O 0.8440(4) 0.2368(4) 0.3021(5)
C16 C 0.9900(6) 0.1836(6) 0.1964(6)
C18 C 0.8560(5) 0.2118(5) 0.2609(5)
C21 C 0.9155(6) 0.2130(6) 0.2464(5)
C22 C 0.9454(7) 0.2473(7) 0.2780(8)
H11 H 0.9285 0.2681 0.3031
C23 C 0.9366(6) 0.1846(6) 0.2073(6)
N2 N 0.9065(8) 0.1583(8) 0.1679(8)
H12 H 0.8799 0.1439 0.1832
O11 O 0.9437(16) 0.1676(15) 0.088(2)
C24 C 0.8234(12) 0.0975(8) 0.1172(12)
H13 H 0.8221 0.1036 0.1533
C25 C 0.8647(11) 0.1181(8) 0.0922(14)
C26 C 0.881(3) 0.121(2) 0.0406(18)
H14 H 0.9102 0.1382 0.0258
Cl2 Cl 0.7348(11) 0.0450(13) 0.0091(11)
C27 C 0.7823(14) 0.0683(11) 0.0968(18)
H15 H 0.7531 0.0519 0.1116
C28 C 0.843(2) 0.0922(19) 0.018(4)
C29 C 0.801(2) 0.0725(15) 0.047(2)
C30 C 0.9033(14) 0.1471(10) 0.1160(12)
Zn7 Zn 0.77217(5) 0.25066(5) 0.32353(5)
Zn10 Zn 0.75066(5) 0.17647(5) 0.22783(5)
O3_2 O 0.2702(4) 0.1723(4) 0.6878(3)
O4_2 O 0.1979(5) 0.1560(4) 0.7368(4)
C1_2 C 0.3036(6) 0.0100(6) 0.6836(6)
C3_2 C 0.2391(5) 0.1440(5) 0.7118(5)
C6_2 C 0.2536(5) 0.0845(6) 0.7130(6)
C7_2 C 0.2220(8) 0.0546(7) 0.7473(7)
H3_2 H 0.1969 0.0715 0.7681
C8_2 C 0.2927(6) 0.0634(6) 0.6846(6)
N1_2 N 0.3321(8) 0.0935(8) 0.6583(8)
H4_2 H 0.3168 0.1201 0.6439
O6_2 O 0.412(2) 0.0563(16) 0.6676(15)
C9_2 C 0.3828(12) 0.1766(12) 0.5975(8)
H5_2 H 0.3467 0.1779 0.6036
C10_2 C 0.4078(14) 0.1353(11) 0.6181(8)
C11_2 C 0.4594(18) 0.119(3) 0.621(2)
H6_2 H 0.4742 0.0898 0.6382
Cl1_2 Cl 0.4909(11) 0.2652(11) 0.5450(13)
C12_2 C 0.4032(18) 0.2177(14) 0.5683(11)
H7_2 H 0.3884 0.2469 0.5519
C13_2 C 0.482(4) 0.157(2) 0.5922(19)
H8 H 0.5175 0.1554 0.5852
C14_2 C 0.453(2) 0.199(2) 0.5725(15)
C15_2 C 0.3840(12) 0.0967(14) 0.6471(10)
H16 H 0.4148 0.0175 0.3446
Zn6_2 Zn 0.27217(5) 0.24934(5) 0.67647(5)
O1_2 O 0.2820(2) 0.7820(2) 0.7180(2)
O2_2 O 0.3111(4) 0.9020(4) 0.6831(4)
O5_2 O 0.2549(4) 0.8968(5) 0.7662(5)
H1_2 H 0.3290 0.9951 0.6618
C2_2 C 0.2278(11) 0.9968(10) 0.7510(10)
H2_2 H 0.2060 0.9750 0.7708
C4_2 C 0.2713(7) 0.9788(8) 0.7204(7)
C5_2 C 0.2773(8) 0.9194(7) 0.7219(8)
Zn1_2 Zn 0.32664(5) 0.82664(5) 0.67336(5)
Zn2_2 Zn 0.32353(5) 0.72783(5) 0.75066(5)
O7_2 O 0.3169(4) 0.8111(4) 0.5980(4)
O8_2 O 0.3122(3) 0.7702(4) 0.3277(4)
O9_2 O 0.2632(4) 0.6979(5) 0.3440(4)
O10_2 O 0.2338(5) 0.7549(4) 0.6032(5)
C16_2 C 0.3164(6) 0.8036(6) 0.4900(6)
H9_2 H 0.3382 0.8290 0.5049
C17_2 C 0.2490(10) 0.7278(11) 0.5032(10)
H10_2 H 0.2292 0.7060 0.5250
C18_2 C 0.2882(5) 0.7391(5) 0.3560(5)
C19_2 C 0.2796(7) 0.7713(7) 0.5212(8)
C20_2 C 0.2781(8) 0.7773(8) 0.5806(7)
C21_2 C 0.2870(6) 0.7536(5) 0.4155(6)
C22_2 C 0.2527(7) 0.7220(8) 0.4454(7)
H11_2 H 0.2319 0.6969 0.4285
C23_2 C 0.3154(6) 0.7927(6) 0.4366(6)
N2_2 N 0.3417(8) 0.8321(8) 0.4065(8)
H12_2 H 0.3561 0.8168 0.3799
O11_2 O 0.3324(15) 0.912(2) 0.4437(16)
C24_2 C 0.4025(8) 0.8828(12) 0.3234(12)
H13_2 H 0.3964 0.8467 0.3221
C25_2 C 0.3819(8) 0.9078(14) 0.3647(11)
C26_2 C 0.379(2) 0.9594(18) 0.381(3)
H14_2 H 0.3618 0.9742 0.4102
Cl2_2 Cl 0.4550(13) 0.9909(11) 0.2348(11)
C27_2 C 0.4317(11) 0.9032(18) 0.2823(14)
H15_2 H 0.4481 0.8884 0.2531
C28_2 C 0.4078(19) 0.982(4) 0.343(2)
C29_2 C 0.4275(15) 0.953(2) 0.301(2)
C30_2 C 0.3529(10) 0.8840(12) 0.4033(14)
Zn3_2 Zn 0.24934(5) 0.82353(5) 0.77217(5)
O12_2 O 0.4020(4) 0.8169(4) 0.6889(4)
O13_2 O 0.6723(4) 0.8122(3) 0.7298(4)
O14_2 O 0.6560(4) 0.7632(4) 0.8021(5)
O15_2 O 0.3968(5) 0.7338(5) 0.7451(4)
C31_2 C 0.5100(6) 0.8164(6) 0.6964(6)
H17_2 H 0.4951 0.8382 0.6710
C32_2 C 0.4968(10) 0.7490(10) 0.7722(11)
H18_2 H 0.4750 0.7292 0.7940
C33_2 C 0.6440(5) 0.7882(5) 0.7609(5)
C34_2 C 0.4788(8) 0.7796(7) 0.7287(7)
C35_2 C 0.4194(7) 0.7781(8) 0.7227(8)
C36_2 C 0.5845(6) 0.7870(6) 0.7464(5)
C37_2 C 0.5546(7) 0.7527(7) 0.7780(8)
H19_2 H 0.5715 0.7319 0.8031
C38_2 C 0.5634(6) 0.8154(6) 0.7073(6)
N3_2 N 0.5935(8) 0.8417(8) 0.6679(8)
H20_2 H 0.6201 0.8561 0.6832
O16_2 O 0.5563(16) 0.8324(15) 0.588(2)
C39_2 C 0.6766(12) 0.9025(8) 0.6172(12)
H21_2 H 0.6779 0.8964 0.6533
C40_2 C 0.6353(11) 0.8819(8) 0.5922(14)
C41_2 C 0.619(3) 0.879(2) 0.5406(18)
H22_2 H 0.5898 0.8618 0.5258
Cl3_2 Cl 0.7652(11) 0.9550(13) 0.5091(11)
C42_2 C 0.7177(14) 0.9317(11) 0.5968(18)
H23_2 H 0.7469 0.9481 0.6116
C43_2 C 0.657(2) 0.9078(19) 0.518(4)
H24 H 0.6554 0.9148 0.4825
C44_2 C 0.699(2) 0.9275(15) 0.547(2)
C45_2 C 0.5967(14) 0.8529(10) 0.6160(12)
Zn4_2 Zn 0.22783(5) 0.74934(5) 0.67647(5)
O17_2 O 0.3122(3) 0.7298(4) 0.8277(4)
O18_2 O 0.1723(4) 0.8122(3) 0.7702(4)
O19_2 O 0.2298(4) 0.6723(4) 0.6878(3)
O20_2 O 0.2632(4) 0.8021(5) 0.8440(4)
O21_2 O 0.1560(4) 0.7632(4) 0.6979(5)
O22_2 O 0.3021(5) 0.6560(4) 0.7368(4)
Zn5_2 Zn 0.74934(5) 0.82353(5) 0.72783(5)
Zn7_2 Zn 0.24934(5) 0.67647(5) 0.27217(5)
Zn8_2 Zn 0.72783(5) 0.74934(5) 0.82353(5)
H8_2 H 0.3446 0.4148 0.0175
O13_3 O 0.6878(3) 0.2702(4) 0.1723(4)
O14_3 O 0.7368(4) 0.1979(5) 0.1560(4)
C31_3 C 0.6836(6) 0.3036(6) 0.0100(6)
C33_3 C 0.7118(5) 0.2391(5) 0.1440(5)
C36_3 C 0.7130(6) 0.2536(5) 0.0845(6)
C37_3 C 0.7473(7) 0.2220(8) 0.0546(7)
H19_3 H 0.7681 0.1969 0.0715
C38_3 C 0.6846(6) 0.2927(6) 0.0634(6)
N3_3 N 0.6583(8) 0.3321(8) 0.0935(8)
H20_3 H 0.6439 0.3168 0.1201
O16_3 O 0.6676(15) 0.412(2) 0.0563(16)
C39_3 C 0.5975(8) 0.3828(12) 0.1766(12)
H21_3 H 0.6036 0.3467 0.1779
C40_3 C 0.6181(8) 0.4078(14) 0.1353(11)
C41_3 C 0.621(2) 0.4594(18) 0.119(3)
H22_3 H 0.6382 0.4742 0.0898
Cl3_3 Cl 0.5450(13) 0.4909(11) 0.2652(11)
C42_3 C 0.5683(11) 0.4032(18) 0.2177(14)
H23_3 H 0.5519 0.3884 0.2469
C43_3 C 0.5922(19) 0.482(4) 0.157(2)
H24_2 H 0.5852 0.5175 0.1554
C44_3 C 0.5725(15) 0.453(2) 0.199(2)
C45_3 C 0.6471(10) 0.3840(12) 0.0967(14)
Zn5_3 Zn 0.67647(5) 0.27217(5) 0.24934(5)
O1_3 O 0.7180(2) 0.2820(2) 0.7820(2)
O2_3 O 0.5980(4) 0.3169(4) 0.8111(4)
O3_3 O 0.3277(4) 0.3122(3) 0.7702(4)
O4_3 O 0.3440(4) 0.2632(4) 0.6979(5)
O5_3 O 0.6032(5) 0.2338(5) 0.7549(4)
C1_3 C 0.4900(6) 0.3164(6) 0.8036(6)
H1_3 H 0.5049 0.3382 0.8290
C2_3 C 0.5032(10) 0.2490(10) 0.7278(11)
H2_3 H 0.5250 0.2292 0.7060
C3_3 C 0.3560(5) 0.2882(5) 0.7391(5)
C4_3 C 0.5212(8) 0.2796(7) 0.7713(7)
C5_3 C 0.5806(7) 0.2781(8) 0.7773(8)
C6_3 C 0.4155(6) 0.2870(6) 0.7536(5)
C7_3 C 0.4454(7) 0.2527(7) 0.7220(8)
H3_3 H 0.4285 0.2319 0.6969
C8_3 C 0.4366(6) 0.3154(6) 0.7927(6)
N1_3 N 0.4065(8) 0.3417(8) 0.8321(8)
H4_3 H 0.3799 0.3561 0.8168
O6_3 O 0.4437(16) 0.3324(15) 0.912(2)
C9_3 C 0.3234(12) 0.4025(8) 0.8828(12)
H5_3 H 0.3221 0.3964 0.8467
C10_3 C 0.3647(11) 0.3819(8) 0.9078(14)
C11_3 C 0.381(3) 0.379(2) 0.9594(18)
H6_3 H 0.4102 0.3618 0.9742
Cl1_3 Cl 0.2348(11) 0.4550(13) 0.9909(11)
C12_3 C 0.2823(14) 0.4317(11) 0.9032(18)
H7_3 H 0.2531 0.4481 0.8884
C13_3 C 0.343(2) 0.4078(19) 0.982(4)
C14_3 C 0.301(2) 0.4275(15) 0.953(2)
C15_3 C 0.4033(14) 0.3529(10) 0.8840(12)
Zn1_3 Zn 0.67336(5) 0.32664(5) 0.82664(5)
Zn2_3 Zn 0.77217(5) 0.24934(5) 0.82353(5)
O7_3 O 0.6889(4) 0.4020(4) 0.8169(4)
O8_3 O 0.7298(4) 0.6723(4) 0.8122(3)
O9_3 O 0.8021(5) 0.6560(4) 0.7632(4)
O10_3 O 0.7451(4) 0.3968(5) 0.7338(5)
C16_3 C 0.6964(6) 0.5100(6) 0.8164(6)
H9_3 H 0.6710 0.4951 0.8382
C17_3 C 0.7722(11) 0.4968(10) 0.7490(10)
H10_3 H 0.7940 0.4750 0.7292
C18_3 C 0.7609(5) 0.6440(5) 0.7882(5)
C19_3 C 0.7287(7) 0.4788(8) 0.7796(7)
C20_3 C 0.7227(8) 0.4194(7) 0.7781(8)
C21_3 C 0.7464(5) 0.5845(6) 0.7870(6)
C22_3 C 0.7780(8) 0.5546(7) 0.7527(7)
H11_3 H 0.8031 0.5715 0.7319
C23_3 C 0.7073(6) 0.5634(6) 0.8154(6)
N2_3 N 0.6679(8) 0.5935(8) 0.8417(8)
H12_3 H 0.6832 0.6201 0.8561
O11_3 O 0.588(2) 0.5563(16) 0.8324(15)
C24_3 C 0.6172(12) 0.6766(12) 0.9025(8)
H13_3 H 0.6533 0.6779 0.8964
C25_3 C 0.5922(14) 0.6353(11) 0.8819(8)
C26_3 C 0.5406(18) 0.619(3) 0.879(2)
H14_3 H 0.5258 0.5898 0.8618
Cl2_3 Cl 0.5091(11) 0.7652(11) 0.9550(13)
C27_3 C 0.5968(18) 0.7177(14) 0.9317(11)
H15_3 H 0.6116 0.7469 0.9481
C28_3 C 0.518(4) 0.657(2) 0.9078(19)
H16_2 H 0.4825 0.6554 0.9148
C29_3 C 0.547(2) 0.699(2) 0.9275(15)
C30_3 C 0.6160(12) 0.5967(14) 0.8529(10)
Zn3_3 Zn 0.67647(5) 0.22783(5) 0.74934(5)
O12_3 O 0.6831(4) 0.3111(4) 0.9020(4)
O15_3 O 0.7662(5) 0.2549(4) 0.8968(5)
H17_3 H 0.6618 0.3290 0.9951
C32_3 C 0.7510(10) 0.2278(11) 0.9968(10)
H18_3 H 0.7708 0.2060 0.9750
C34_3 C 0.7204(7) 0.2713(7) 0.9788(8)
C35_3 C 0.7219(8) 0.2773(8) 0.9194(7)
Zn4_3 Zn 0.75066(5) 0.32353(5) 0.72783(5)
O17_3 O 0.7702(4) 0.1723(4) 0.8122(3)
O18_3 O 0.6878(3) 0.2298(4) 0.6723(4)
O19_3 O 0.8277(4) 0.3122(3) 0.7298(4)
O20_3 O 0.6979(5) 0.1560(4) 0.7632(4)
O21_3 O 0.7368(4) 0.3021(5) 0.6560(4)
O22_3 O 0.8440(4) 0.2632(4) 0.8021(5)
Zn7_3 Zn 0.82353(5) 0.72783(5) 0.74934(5)
H8_3 H 0.0175 0.3446 0.4148
O13_4 O 0.1723(4) 0.6878(3) 0.2702(4)
O14_4 O 0.1560(4) 0.7368(4) 0.1979(5)
C31_4 C 0.0100(6) 0.6836(6) 0.3036(6)
C33_4 C 0.1440(5) 0.7118(5) 0.2391(5)
C36_4 C 0.0845(6) 0.7130(6) 0.2536(5)
C37_4 C 0.0546(7) 0.7473(7) 0.2220(8)
H19_4 H 0.0715 0.7681 0.1969
C38_4 C 0.0634(6) 0.6846(6) 0.2927(6)
N3_4 N 0.0935(8) 0.6583(8) 0.3321(8)
H20_4 H 0.1201 0.6439 0.3168
O16_4 O 0.0563(16) 0.6676(15) 0.412(2)
C39_4 C 0.1766(12) 0.5975(8) 0.3828(12)
H21_4 H 0.1779 0.6036 0.3467
C40_4 C 0.1353(11) 0.6181(8) 0.4078(14)
C41_4 C 0.119(3) 0.621(2) 0.4594(18)
H22_4 H 0.0898 0.6382 0.4742
Cl3_4 Cl 0.2652(11) 0.5450(13) 0.4909(11)
C42_4 C 0.2177(14) 0.5683(11) 0.4032(18)
H23_4 H 0.2469 0.5519 0.3884
C43_4 C 0.157(2) 0.5922(19) 0.482(4)
H24_3 H 0.1554 0.5852 0.5175
C44_4 C 0.199(2) 0.5725(15) 0.453(2)
C45_4 C 0.0967(14) 0.6471(10) 0.3840(12)
O1_4 O 0.7820(2) 0.7180(2) 0.2820(2)
O2_4 O 0.8111(4) 0.5980(4) 0.3169(4)
O3_4 O 0.7702(4) 0.3277(4) 0.3122(3)
O4_4 O 0.6979(5) 0.3440(4) 0.2632(4)
O5_4 O 0.7549(4) 0.6032(5) 0.2338(5)
C1_4 C 0.8036(6) 0.4900(6) 0.3164(6)
H1_4 H 0.8290 0.5049 0.3382
C2_4 C 0.7278(11) 0.5032(10) 0.2490(10)
H2_4 H 0.7060 0.5250 0.2292
C3_4 C 0.7391(5) 0.3560(5) 0.2882(5)
C4_4 C 0.7713(7) 0.5212(8) 0.2796(7)
C5_4 C 0.7773(8) 0.5806(7) 0.2781(8)
C6_4 C 0.7536(5) 0.4155(6) 0.2870(6)
C7_4 C 0.7220(8) 0.4454(7) 0.2527(7)
H3_4 H 0.6969 0.4285 0.2319
C8_4 C 0.7927(6) 0.4366(6) 0.3154(6)
N1_4 N 0.8321(8) 0.4065(8) 0.3417(8)
H4_4 H 0.8168 0.3799 0.3561
O6_4 O 0.912(2) 0.4437(16) 0.3324(15)
C9_4 C 0.8828(12) 0.3234(12) 0.4025(8)
H5_4 H 0.8467 0.3221 0.3964
C10_4 C 0.9078(14) 0.3647(11) 0.3819(8)
C11_4 C 0.9594(18) 0.381(3) 0.379(2)
H6_4 H 0.9742 0.4102 0.3618
Cl1_4 Cl 0.9909(11) 0.2348(11) 0.4550(13)
C12_4 C 0.9032(18) 0.2823(14) 0.4317(11)
H7_4 H 0.8884 0.2531 0.4481
C13_4 C 0.982(4) 0.343(2) 0.4078(19)
C14_4 C 0.953(2) 0.301(2) 0.4275(15)
C15_4 C 0.8840(12) 0.4033(14) 0.3529(10)
Zn1_4 Zn 0.82664(5) 0.67336(5) 0.32664(5)
Zn2_4 Zn 0.82353(5) 0.77217(5) 0.24934(5)
O7_4 O 0.8169(4) 0.6889(4) 0.4020(4)
O8_4 O 0.8122(3) 0.7298(4) 0.6723(4)
O9_4 O 0.7632(4) 0.8021(5) 0.6560(4)
O10_4 O 0.7338(5) 0.7451(4) 0.3968(5)
C16_4 C 0.8164(6) 0.6964(6) 0.5100(6)
H9_4 H 0.8382 0.6710 0.4951
C17_4 C 0.7490(10) 0.7722(11) 0.4968(10)
H10_4 H 0.7292 0.7940 0.4750
C18_4 C 0.7882(5) 0.7609(5) 0.6440(5)
C19_4 C 0.7796(7) 0.7287(7) 0.4788(8)
C20_4 C 0.7781(8) 0.7227(8) 0.4194(7)
C21_4 C 0.7870(6) 0.7464(5) 0.5845(6)
C22_4 C 0.7527(7) 0.7780(8) 0.5546(7)
H11_4 H 0.7319 0.8031 0.5715
C23_4 C 0.8154(6) 0.7073(6) 0.5634(6)
N2_4 N 0.8417(8) 0.6679(8) 0.5935(8)
H12_4 H 0.8561 0.6832 0.6201
O11_4 O 0.8324(15) 0.588(2) 0.5563(16)
C24_4 C 0.9025(8) 0.6172(12) 0.6766(12)
H13_4 H 0.8964 0.6533 0.6779
C25_4 C 0.8819(8) 0.5922(14) 0.6353(11)
C26_4 C 0.879(2) 0.5406(18) 0.619(3)
H14_4 H 0.8618 0.5258 0.5898
Cl2_4 Cl 0.9550(13) 0.5091(11) 0.7652(11)
C27_4 C 0.9317(11) 0.5968(18) 0.7177(14)
H15_4 H 0.9481 0.6116 0.7469
C28_4 C 0.9078(19) 0.518(4) 0.657(2)
H16_3 H 0.9148 0.4825 0.6554
C29_4 C 0.9275(15) 0.547(2) 0.699(2)
C30_4 C 0.8529(10) 0.6160(12) 0.5967(14)
Zn3_4 Zn 0.74934(5) 0.67647(5) 0.22783(5)
O12_4 O 0.9020(4) 0.6831(4) 0.3111(4)
O15_4 O 0.8968(5) 0.7662(5) 0.2549(4)
H17_4 H 0.9951 0.6618 0.3290
C32_4 C 0.9968(10) 0.7510(10) 0.2278(11)
H18_4 H 0.9750 0.7708 0.2060
C34_4 C 0.9788(8) 0.7204(7) 0.2713(7)
C35_4 C 0.9194(7) 0.7219(8) 0.2773(8)
Zn4_4 Zn 0.72783(5) 0.75066(5) 0.32353(5)
O17_4 O 0.8122(3) 0.7702(4) 0.1723(4)
O18_4 O 0.6723(4) 0.6878(3) 0.2298(4)
O19_4 O 0.7298(4) 0.8277(4) 0.3122(3)
O20_4 O 0.7632(4) 0.6979(5) 0.1560(4)
O21_4 O 0.6560(4) 0.7368(4) 0.3021(5)
O22_4 O 0.8021(5) 0.8440(4) 0.2632(4)
C16_5 C 0.0100(6) 0.8164(6) 0.8036(6)
C18_5 C 0.1440(5) 0.7882(5) 0.7391(5)
C21_5 C 0.0845(6) 0.7870(6) 0.7536(5)
C22_5 C 0.0546(7) 0.7527(7) 0.7220(8)
H11_5 H 0.0715 0.7319 0.6969
C23_5 C 0.0634(6) 0.8154(6) 0.7927(6)
N2_5 N 0.0935(8) 0.8417(8) 0.8321(8)
H12_5 H 0.1201 0.8561 0.8168
O11_5 O 0.0563(16) 0.8324(15) 0.912(2)
C24_5 C 0.1766(12) 0.9025(8) 0.8828(12)
H13_5 H 0.1779 0.8964 0.8467
C25_5 C 0.1353(11) 0.8819(8) 0.9078(14)
C26_5 C 0.119(3) 0.879(2) 0.9594(18)
H14_5 H 0.0898 0.8618 0.9742
Cl2_5 Cl 0.2652(11) 0.9550(13) 0.9909(11)
C27_5 C 0.2177(14) 0.9317(11) 0.9032(18)
H15_5 H 0.2469 0.9481 0.8884
C28_5 C 0.157(2) 0.9078(19) 0.982(4)
C29_5 C 0.199(2) 0.9275(15) 0.953(2)
C30_5 C 0.0967(14) 0.8529(10) 0.8840(12)
C31_5 C 0.8036(6) 0.0100(6) 0.8164(6)
C33_5 C 0.7391(5) 0.1440(5) 0.7882(5)
C36_5 C 0.7536(5) 0.0845(6) 0.7870(6)
C37_5 C 0.7220(8) 0.0546(7) 0.7527(7)
H19_5 H 0.6969 0.0715 0.7319
C38_5 C 0.7927(6) 0.0634(6) 0.8154(6)
N3_5 N 0.8321(8) 0.0935(8) 0.8417(8)
H20_5 H 0.8168 0.1201 0.8561
O16_5 O 0.912(2) 0.0563(16) 0.8324(15)
C39_5 C 0.8828(12) 0.1766(12) 0.9025(8)
H21_5 H 0.8467 0.1779 0.8964
C40_5 C 0.9078(14) 0.1353(11) 0.8819(8)
C41_5 C 0.9594(18) 0.119(3) 0.879(2)
H22_5 H 0.9742 0.0898 0.8618
Cl3_5 Cl 0.9909(11) 0.2652(11) 0.9550(13)
C42_5 C 0.9032(18) 0.2177(14) 0.9317(11)
H23_5 H 0.8884 0.2469 0.9481
C43_5 C 0.982(4) 0.157(2) 0.9078(19)
C44_5 C 0.953(2) 0.199(2) 0.9275(15)
C45_5 C 0.8840(12) 0.0967(14) 0.8529(10)
C1_5 C 0.8164(6) 0.8036(6) 0.0100(6)
C3_5 C 0.7882(5) 0.7391(5) 0.1440(5)
C6_5 C 0.7870(6) 0.7536(5) 0.0845(6)
C7_5 C 0.7527(7) 0.7220(8) 0.0546(7)
H3_5 H 0.7319 0.6969 0.0715
C8_5 C 0.8154(6) 0.7927(6) 0.0634(6)
N1_5 N 0.8417(8) 0.8321(8) 0.0935(8)
H4_5 H 0.8561 0.8168 0.1201
O6_5 O 0.8324(15) 0.912(2) 0.0563(16)
C9_5 C 0.9025(8) 0.8828(12) 0.1766(12)
H5_5 H 0.8964 0.8467 0.1779
C10_5 C 0.8819(8) 0.9078(14) 0.1353(11)
C11_5 C 0.879(2) 0.9594(18) 0.119(3)
H6_5 H 0.8618 0.9742 0.0898
Cl1_5 Cl 0.9550(13) 0.9909(11) 0.2652(11)
C12_5 C 0.9317(11) 0.9032(18) 0.2177(14)
H7_5 H 0.9481 0.8884 0.2469
C13_5 C 0.9078(19) 0.982(4) 0.157(2)
C14_5 C 0.9275(15) 0.953(2) 0.199(2)
C15_5 C 0.8529(10) 0.8840(12) 0.0967(14)
O1_5 O 0.7820(2) 0.7820(2) 0.7820(2)
O2_5 O 0.8169(4) 0.8111(4) 0.9020(4)
O5_5 O 0.7338(5) 0.7549(4) 0.8968(5)
H1_5 H 0.8382 0.8290 0.9951
C2_5 C 0.7490(10) 0.7278(11) 0.9968(10)
H2_5 H 0.7292 0.7060 0.9750
C4_5 C 0.7796(7) 0.7713(7) 0.9788(8)
C5_5 C 0.7781(8) 0.7773(8) 0.9194(7)
Zn1_5 Zn 0.82664(5) 0.82664(5) 0.82664(5)
O7_5 O 0.9020(4) 0.8169(4) 0.8111(4)
O10_5 O 0.8968(5) 0.7338(5) 0.7549(4)
H9_5 H 0.9951 0.8382 0.8290
C17_5 C 0.9968(10) 0.7490(10) 0.7278(11)
H10_5 H 0.9750 0.7292 0.7060
C19_5 C 0.9788(8) 0.7796(7) 0.7713(7)
C20_5 C 0.9194(7) 0.7781(8) 0.7773(8)
O12_5 O 0.8111(4) 0.9020(4) 0.8169(4)
O15_5 O 0.7549(4) 0.8968(5) 0.7338(5)
H17_5 H 0.8290 0.9951 0.8382
C32_5 C 0.7278(11) 0.9968(10) 0.7490(10)
H18_5 H 0.7060 0.9750 0.7292
C34_5 C 0.7713(7) 0.9788(8) 0.7796(7)
C35_5 C 0.7773(8) 0.9194(7) 0.7781(8)
O1_6 O 0.7180(2) 0.2180(2) 0.2820(2)
O2_6 O 0.6889(4) 0.0980(4) 0.3169(4)
O5_6 O 0.7451(4) 0.1032(5) 0.2338(5)
H1_6 H 0.6710 0.0049 0.3382
C2_6 C 0.7722(11) 0.0032(10) 0.2490(10)
H2_6 H 0.7940 0.0250 0.2292
C4_6 C 0.7287(7) 0.0212(8) 0.2796(7)
C5_6 C 0.7227(8) 0.0806(7) 0.2781(8)
Zn1_6 Zn 0.67336(5) 0.17336(5) 0.32664(5)
O7_6 O 0.6831(4) 0.1889(4) 0.4020(4)
O10_6 O 0.7662(5) 0.2451(4) 0.3968(5)
C16_6 C 0.6836(6) 0.1964(6) 0.5100(6)
H9_6 H 0.6618 0.1710 0.4951
C17_6 C 0.7510(10) 0.2722(11) 0.4968(10)
H10_6 H 0.7708 0.2940 0.4750
C18_6 C 0.7118(5) 0.2609(5) 0.6440(5)
C19_6 C 0.7204(7) 0.2287(7) 0.4788(8)
C20_6 C 0.7219(8) 0.2227(8) 0.4194(7)
C21_6 C 0.7130(6) 0.2464(5) 0.5845(6)
C22_6 C 0.7473(7) 0.2780(8) 0.5546(7)
H11_6 H 0.7681 0.3031 0.5715
C23_6 C 0.6846(6) 0.2073(6) 0.5634(6)
N2_6 N 0.6583(8) 0.1679(8) 0.5935(8)
H12_6 H 0.6439 0.1832 0.6201
O11_6 O 0.6676(15) 0.088(2) 0.5563(16)
C24_6 C 0.5975(8) 0.1172(12) 0.6766(12)
H13_6 H 0.6036 0.1533 0.6779
C25_6 C 0.6181(8) 0.0922(14) 0.6353(11)
C26_6 C 0.621(2) 0.0406(18) 0.619(3)
H14_6 H 0.6382 0.0258 0.5898
Cl2_6 Cl 0.5450(13) 0.0091(11) 0.7652(11)
C27_6 C 0.5683(11) 0.0968(18) 0.7177(14)
H15_6 H 0.5519 0.1116 0.7469
C28_6 C 0.5922(19) 0.018(4) 0.657(2)
C29_6 C 0.5725(15) 0.047(2) 0.699(2)
C30_6 C 0.6471(10) 0.1160(12) 0.5967(14)
O12_6 O 0.5980(4) 0.1831(4) 0.3111(4)
O15_6 O 0.6032(5) 0.2662(5) 0.2549(4)
C31_6 C 0.4900(6) 0.1836(6) 0.3036(6)
H17_6 H 0.5049 0.1618 0.3290
C32_6 C 0.5032(10) 0.2510(10) 0.2278(11)
H18_6 H 0.5250 0.2708 0.2060
C33_6 C 0.3560(5) 0.2118(5) 0.2391(5)
C34_6 C 0.5212(8) 0.2204(7) 0.2713(7)
C35_6 C 0.5806(7) 0.2219(8) 0.2773(8)
C36_6 C 0.4155(6) 0.2130(6) 0.2536(5)
C37_6 C 0.4454(7) 0.2473(7) 0.2220(8)
H19_6 H 0.4285 0.2681 0.1969
C38_6 C 0.4366(6) 0.1846(6) 0.2927(6)
N3_6 N 0.4065(8) 0.1583(8) 0.3321(8)
H20_6 H 0.3799 0.1439 0.3168
O16_6 O 0.4437(16) 0.1676(15) 0.412(2)
C39_6 C 0.3234(12) 0.0975(8) 0.3828(12)
H21_6 H 0.3221 0.1036 0.3467
C40_6 C 0.3647(11) 0.1181(8) 0.4078(14)
C41_6 C 0.381(3) 0.121(2) 0.4594(18)
H22_6 H 0.4102 0.1382 0.4742
Cl3_6 Cl 0.2348(11) 0.0450(13) 0.4909(11)
C42_6 C 0.2823(14) 0.0683(11) 0.4032(18)
H23_6 H 0.2531 0.0519 0.3884
C43_6 C 0.343(2) 0.0922(19) 0.482(4)
H24_4 H 0.3446 0.0852 0.5175
C44_6 C 0.301(2) 0.0725(15) 0.453(2)
C45_6 C 0.4033(14) 0.1471(10) 0.3840(12)
C1_6 C 0.6964(6) 0.9900(6) 0.3164(6)
C3_6 C 0.7609(5) 0.8560(5) 0.2882(5)
C6_6 C 0.7464(5) 0.9155(6) 0.2870(6)
C7_6 C 0.7780(8) 0.9454(7) 0.2527(7)
H3_6 H 0.8031 0.9285 0.2319
C8_6 C 0.7073(6) 0.9366(6) 0.3154(6)
N1_6 N 0.6679(8) 0.9065(8) 0.3417(8)
H4_6 H 0.6832 0.8799 0.3561
O6_6 O 0.588(2) 0.9437(16) 0.3324(15)
C9_6 C 0.6172(12) 0.8234(12) 0.4025(8)
H5_6 H 0.6533 0.8221 0.3964
C10_6 C 0.5922(14) 0.8647(11) 0.3819(8)
C11_6 C 0.5406(18) 0.881(3) 0.379(2)
H6_6 H 0.5258 0.9102 0.3618
Cl1_6 Cl 0.5091(11) 0.7348(11) 0.4550(13)
C12_6 C 0.5968(18) 0.7823(14) 0.4317(11)
H7_6 H 0.6116 0.7531 0.4481
C13_6 C 0.518(4) 0.843(2) 0.4078(19)
H8_4 H 0.4825 0.8446 0.4148
C14_6 C 0.547(2) 0.801(2) 0.4275(15)
C15_6 C 0.6160(12) 0.9033(14) 0.3529(10)
H16_4 H 0.5852 0.9825 0.6554
O1_7 O 0.2820(2) 0.7180(2) 0.2180(2)
O2_7 O 0.4020(4) 0.6831(4) 0.1889(4)
O5_7 O 0.3968(5) 0.7662(5) 0.2451(4)
C1_7 C 0.5100(6) 0.6836(6) 0.1964(6)
H1_7 H 0.4951 0.6618 0.1710
C2_7 C 0.4968(10) 0.7510(10) 0.2722(11)
H2_7 H 0.4750 0.7708 0.2940
C3_7 C 0.6440(5) 0.7118(5) 0.2609(5)
C4_7 C 0.4788(8) 0.7204(7) 0.2287(7)
C5_7 C 0.4194(7) 0.7219(8) 0.2227(8)
C6_7 C 0.5845(6) 0.7130(6) 0.2464(5)
C7_7 C 0.5546(7) 0.7473(7) 0.2780(8)
H3_7 H 0.5715 0.7681 0.3031
C8_7 C 0.5634(6) 0.6846(6) 0.2073(6)
N1_7 N 0.5935(8) 0.6583(8) 0.1679(8)
H4_7 H 0.6201 0.6439 0.1832
O6_7 O 0.5563(16) 0.6676(15) 0.088(2)
C9_7 C 0.6766(12) 0.5975(8) 0.1172(12)
H5_7 H 0.6779 0.6036 0.1533
C10_7 C 0.6353(11) 0.6181(8) 0.0922(14)
C11_7 C 0.619(3) 0.621(2) 0.0406(18)
H6_7 H 0.5898 0.6382 0.0258
Cl1_7 Cl 0.7652(11) 0.5450(13) 0.0091(11)
C12_7 C 0.7177(14) 0.5683(11) 0.0968(18)
H7_7 H 0.7469 0.5519 0.1116
C13_7 C 0.657(2) 0.5922(19) 0.018(4)
C14_7 C 0.699(2) 0.5725(15) 0.047(2)
C15_7 C 0.5967(14) 0.6471(10) 0.1160(12)
Zn1_7 Zn 0.32664(5) 0.67336(5) 0.17336(5)
O7_7 O 0.3111(4) 0.5980(4) 0.1831(4)
O10_7 O 0.2549(4) 0.6032(5) 0.2662(5)
C16_7 C 0.3036(6) 0.4900(6) 0.1836(6)
H9_7 H 0.3290 0.5049 0.1618
C17_7 C 0.2278(11) 0.5032(10) 0.2510(10)
H10_7 H 0.2060 0.5250 0.2708
C18_7 C 0.2391(5) 0.3560(5) 0.2118(5)
C19_7 C 0.2713(7) 0.5212(8) 0.2204(7)
C20_7 C 0.2773(8) 0.5806(7) 0.2219(8)
C21_7 C 0.2536(5) 0.4155(6) 0.2130(6)
C22_7 C 0.2220(8) 0.4454(7) 0.2473(7)
H11_7 H 0.1969 0.4285 0.2681
C23_7 C 0.2927(6) 0.4366(6) 0.1846(6)
N2_7 N 0.3321(8) 0.4065(8) 0.1583(8)
H12_7 H 0.3168 0.3799 0.1439
O11_7 O 0.412(2) 0.4437(16) 0.1676(15)
C24_7 C 0.3828(12) 0.3234(12) 0.0975(8)
H13_7 H 0.3467 0.3221 0.1036
C25_7 C 0.4078(14) 0.3647(11) 0.1181(8)
C26_7 C 0.4594(18) 0.381(3) 0.121(2)
H14_7 H 0.4742 0.4102 0.1382
Cl2_7 Cl 0.4909(11) 0.2348(11) 0.0450(13)
C27_7 C 0.4032(18) 0.2823(14) 0.0683(11)
H15_7 H 0.3884 0.2531 0.0519
C28_7 C 0.482(4) 0.343(2) 0.0922(19)
H16_5 H 0.5175 0.3446 0.0852
C29_7 C 0.453(2) 0.301(2) 0.0725(15)
C30_7 C 0.3840(12) 0.4033(14) 0.1471(10)
O12_7 O 0.3169(4) 0.6889(4) 0.0980(4)
O15_7 O 0.2338(5) 0.7451(4) 0.1032(5)
H17_7 H 0.3382 0.6710 0.0049
C32_7 C 0.2490(10) 0.7722(11) 0.0032(10)
H18_7 H 0.2292 0.7940 0.0250
C34_7 C 0.2796(7) 0.7287(7) 0.0212(8)
C35_7 C 0.2781(8) 0.7227(8) 0.0806(7)
H8_5 H 0.6554 0.5852 0.9825
C31_7 C 0.3164(6) 0.6964(6) 0.9900(6)
C33_7 C 0.2882(5) 0.7609(5) 0.8560(5)
C36_7 C 0.2870(6) 0.7464(5) 0.9155(6)
C37_7 C 0.2527(7) 0.7780(8) 0.9454(7)
H19_7 H 0.2319 0.8031 0.9285
C38_7 C 0.3154(6) 0.7073(6) 0.9366(6)
N3_7 N 0.3417(8) 0.6679(8) 0.9065(8)
H20_7 H 0.3561 0.6832 0.8799
O16_7 O 0.3324(15) 0.588(2) 0.9437(16)
C39_7 C 0.4025(8) 0.6172(12) 0.8234(12)
H21_7 H 0.3964 0.6533 0.8221
C40_7 C 0.3819(8) 0.5922(14) 0.8647(11)
C41_7 C 0.379(2) 0.5406(18) 0.881(3)
H22_7 H 0.3618 0.5258 0.9102
Cl3_7 Cl 0.4550(13) 0.5091(11) 0.7348(11)
C42_7 C 0.4317(11) 0.5968(18) 0.7823(14)
H23_7 H 0.4481 0.6116 0.7531
C43_7 C 0.4078(19) 0.518(4) 0.843(2)
H24_5 H 0.4148 0.4825 0.8446
C44_7 C 0.4275(15) 0.547(2) 0.801(2)
C45_7 C 0.3529(10) 0.6160(12) 0.9033(14)
O1_8 O 0.2180(2) 0.2820(2) 0.7180(2)
O2_8 O 0.1889(4) 0.4020(4) 0.6831(4)
O5_8 O 0.2451(4) 0.3968(5) 0.7662(5)
C1_8 C 0.1964(6) 0.5100(6) 0.6836(6)
H1_8 H 0.1710 0.4951 0.6618
C2_8 C 0.2722(11) 0.4968(10) 0.7510(10)
H2_8 H 0.2940 0.4750 0.7708
C3_8 C 0.2609(5) 0.6440(5) 0.7118(5)
C4_8 C 0.2287(7) 0.4788(8) 0.7204(7)
C5_8 C 0.2227(8) 0.4194(7) 0.7219(8)
C6_8 C 0.2464(5) 0.5845(6) 0.7130(6)
C7_8 C 0.2780(8) 0.5546(7) 0.7473(7)
H3_8 H 0.3031 0.5715 0.7681
C8_8 C 0.2073(6) 0.5634(6) 0.6846(6)
N1_8 N 0.1679(8) 0.5935(8) 0.6583(8)
H4_8 H 0.1832 0.6201 0.6439
O6_8 O 0.088(2) 0.5563(16) 0.6676(15)
C9_8 C 0.1172(12) 0.6766(12) 0.5975(8)
H5_8 H 0.1533 0.6779 0.6036
C10_8 C 0.0922(14) 0.6353(11) 0.6181(8)
C11_8 C 0.0406(18) 0.619(3) 0.621(2)
H6_8 H 0.0258 0.5898 0.6382
Cl1_8 Cl 0.0091(11) 0.7652(11) 0.5450(13)
C12_8 C 0.0968(18) 0.7177(14) 0.5683(11)
H7_8 H 0.1116 0.7469 0.5519
C13_8 C 0.018(4) 0.657(2) 0.5922(19)
C14_8 C 0.047(2) 0.699(2) 0.5725(15)
C15_8 C 0.1160(12) 0.5967(14) 0.6471(10)
Zn1_8 Zn 0.17336(5) 0.32664(5) 0.67336(5)
O7_8 O 0.1831(4) 0.3111(4) 0.5980(4)
O10_8 O 0.2662(5) 0.2549(4) 0.6032(5)
C16_8 C 0.1836(6) 0.3036(6) 0.4900(6)
H9_8 H 0.1618 0.3290 0.5049
C17_8 C 0.2510(10) 0.2278(11) 0.5032(10)
H10_8 H 0.2708 0.2060 0.5250
C18_8 C 0.2118(5) 0.2391(5) 0.3560(5)
C19_8 C 0.2204(7) 0.2713(7) 0.5212(8)
C20_8 C 0.2219(8) 0.2773(8) 0.5806(7)
C21_8 C 0.2130(6) 0.2536(5) 0.4155(6)
C22_8 C 0.2473(7) 0.2220(8) 0.4454(7)
H11_8 H 0.2681 0.1969 0.4285
C23_8 C 0.1846(6) 0.2927(6) 0.4366(6)
N2_8 N 0.1583(8) 0.3321(8) 0.4065(8)
H12_8 H 0.1439 0.3168 0.3799
O11_8 O 0.1676(15) 0.412(2) 0.4437(16)
C24_8 C 0.0975(8) 0.3828(12) 0.3234(12)
H13_8 H 0.1036 0.3467 0.3221
C25_8 C 0.1181(8) 0.4078(14) 0.3647(11)
C26_8 C 0.121(2) 0.4594(18) 0.381(3)
H14_8 H 0.1382 0.4742 0.4102
Cl2_8 Cl 0.0450(13) 0.4909(11) 0.2348(11)
C27_8 C 0.0683(11) 0.4032(18) 0.2823(14)
H15_8 H 0.0519 0.3884 0.2531
C28_8 C 0.0922(19) 0.482(4) 0.343(2)
H16_6 H 0.0852 0.5175 0.3446
C29_8 C 0.0725(15) 0.453(2) 0.301(2)
C30_8 C 0.1471(10) 0.3840(12) 0.4033(14)
O12_8 O 0.0980(4) 0.3169(4) 0.6889(4)
O15_8 O 0.1032(5) 0.2338(5) 0.7451(4)
H17_8 H 0.0049 0.3382 0.6710
C32_8 C 0.0032(10) 0.2490(10) 0.7722(11)
H18_8 H 0.0250 0.2292 0.7940
C34_8 C 0.0212(8) 0.2796(7) 0.7287(7)
C35_8 C 0.0806(7) 0.2781(8) 0.7227(8)
H8_6 H 0.9825 0.6554 0.5852
C31_8 C 0.9900(6) 0.3164(6) 0.6964(6)
C33_8 C 0.8560(5) 0.2882(5) 0.7609(5)
C36_8 C 0.9155(6) 0.2870(6) 0.7464(5)
C37_8 C 0.9454(7) 0.2527(7) 0.7780(8)
H19_8 H 0.9285 0.2319 0.8031
C38_8 C 0.9366(6) 0.3154(6) 0.7073(6)
N3_8 N 0.9065(8) 0.3417(8) 0.6679(8)
H20_8 H 0.8799 0.3561 0.6832
O16_8 O 0.9437(16) 0.3324(15) 0.588(2)
C39_8 C 0.8234(12) 0.4025(8) 0.6172(12)
H21_8 H 0.8221 0.3964 0.6533
C40_8 C 0.8647(11) 0.3819(8) 0.5922(14)
C41_8 C 0.881(3) 0.379(2) 0.5406(18)
H22_8 H 0.9102 0.3618 0.5258
Cl3_8 Cl 0.7348(11) 0.4550(13) 0.5091(11)
C42_8 C 0.7823(14) 0.4317(11) 0.5968(18)
H23_8 H 0.7531 0.4481 0.6116
C43_8 C 0.843(2) 0.4078(19) 0.518(4)
H24_6 H 0.8446 0.4148 0.4825
C44_8 C 0.801(2) 0.4275(15) 0.547(2)
C45_8 C 0.9033(14) 0.3529(10) 0.6160(12)
H8_7 H 0.0852 0.9825 0.8446
H16_7 H 0.8446 0.0852 0.9825
H24_7 H 0.9825 0.8446 0.0852
H24_8 H 0.0175 0.1554 0.9148
H16_8 H 0.1554 0.9148 0.0175
H8_8 H 0.9148 0.0175 0.1554
loop_
_geom_bond_atom_site_label_1
_geom_bond_atom_site_label_2
_geom_bond_site_symmetry_1
_geom_bond_site_symmetry_2
O1 Zn1 1_555 1_555
O2 C5 1_555 1_555
O5 C5 1_555 1_555
C2 H2 1_555 1_555
C5 C4 1_555 1_555
Zn1 O2 1_555 1_555
Zn2 O1 1_555 1_555
O7 Zn1 1_555 1_555
O10 C20 1_555 1_555
C17 H10 1_555 1_555
C20 O7 1_555 1_555
Zn3 O1 1_555 1_555
O12 Zn1 1_555 1_555
O15 Zn2 1_555 1_555
C32 H18 1_555 1_555
C35 O12 1_555 1_555
Zn4 O1 1_555 1_555
O17 Zn2 1_555 1_555
O18 Zn3 1_555 1_555
O19 Zn4 1_555 1_555
O20 Zn3 1_555 1_555
O21 Zn4 1_555 1_555
O22 Zn2 1_555 1_555
O5 Zn3 1_555 1_555
C2 C4 1_555 1_555
O10 Zn4 1_555 1_555
C17 C19 1_555 1_555
C19 C20 1_555 1_555
O15 C35 1_555 1_555
C32 C34 1_555 1_555
C34 C35 1_555 1_555
O3 C3 1_555 1_555
O4 C3 1_555 1_555
C3 C6 1_555 1_555
C6 C7 1_555 1_555
H3 C7 1_555 1_555
C8 C1 1_555 1_555
N1 C8 1_555 1_555
H4 N1 1_555 1_555
O6 C15 1_555 1_555
C9 H5 1_555 1_555
C10 C9 1_555 1_555
C11 C10 1_555 1_555
H6 C11 1_555 1_555
Cl1 C14 1_555 1_555
C12 C9 1_555 1_555
H7 C12 1_555 1_555
C13 C11 1_555 1_555
C14 C12 1_555 1_555
C15 N1 1_555 1_555
Zn6 O3 1_555 1_555
Zn9 O4 1_555 1_555
C6 C8 1_555 1_555
C10 C15 1_555 1_555
C13 C14 1_555 1_555
O13 C33 1_555 1_555
O14 C33 1_555 1_555
C33 C36 1_555 1_555
C36 C37 1_555 1_555
H19 C37 1_555 1_555
C38 C31 1_555 1_555
N3 C38 1_555 1_555
H20 N3 1_555 1_555
O16 C45 1_555 1_555
C39 H21 1_555 1_555
C40 C39 1_555 1_555
C41 C40 1_555 1_555
H22 C41 1_555 1_555
Cl3 C44 1_555 1_555
C42 C39 1_555 1_555
H23 C42 1_555 1_555
C43 C41 1_555 1_555
C44 C42 1_555 1_555
C45 N3 1_555 1_555
Zn5 O13 1_555 1_555
Zn8 O14 1_555 1_555
C36 C38 1_555 1_555
C40 C45 1_555 1_555
C43 C44 1_555 1_555
O8 C18 1_555 1_555
O9 C18 1_555 1_555
C18 C21 1_555 1_555
C21 C22 1_555 1_555
H11 C22 1_555 1_555
C23 C16 1_555 1_555
N2 C23 1_555 1_555
H12 N2 1_555 1_555
O11 C30 1_555 1_555
C24 H13 1_555 1_555
C25 C24 1_555 1_555
C26 C25 1_555 1_555
H14 C26 1_555 1_555
Cl2 C29 1_555 1_555
C27 C24 1_555 1_555
H15 C27 1_555 1_555
C28 C26 1_555 1_555
C29 C27 1_555 1_555
C30 N2 1_555 1_555
Zn7 O9 1_555 1_555
Zn10 O8 1_555 1_555
C21 C23 1_555 1_555
C25 C30 1_555 1_555
C28 C29 1_555 1_555
O3_2 C3_2 1_555 1_555
O4_2 C3_2 1_555 1_555
C3_2 C6_2 1_555 1_555
C6_2 C7_2 1_555 1_555
H3_2 C7_2 1_555 1_555
C8_2 C1_2 1_555 1_555
N1_2 C8_2 1_555 1_555
H4_2 N1_2 1_555 1_555
O6_2 C15_2 1_555 1_555
C9_2 H5_2 1_555 1_555
C10_2 C9_2 1_555 1_555
C11_2 C10_2 1_555 1_555
H6_2 C11_2 1_555 1_555
Cl1_2 C14_2 1_555 1_555
C12_2 C9_2 1_555 1_555
H7_2 C12_2 1_555 1_555
C13_2 C11_2 1_555 1_555
H8 C13_2 1_555 1_555
C14_2 C12_2 1_555 1_555
C15_2 N1_2 1_555 1_555
Zn6_2 O3_2 1_555 1_555
Zn6 O4_2 1_555 1_555
C6_2 C8_2 1_555 1_555
C10_2 C15_2 1_555 1_555
C13_2 C14_2 1_555 1_555
O1_2 Zn1_2 1_555 1_555
O2_2 C5_2 1_555 1_555
O5_2 C5_2 1_555 1_555
C2_2 H2_2 1_555 1_555
C5_2 C4_2 1_555 1_555
Zn1_2 O2_2 1_555 1_555
Zn2_2 O1_2 1_555 1_555
O7_2 Zn1_2 1_555 1_555
O8_2 C18_2 1_555 1_555
O9_2 C18_2 1_555 1_555
O10_2 C20_2 1_555 1_555
C16_2 H9_2 1_555 1_555
C17_2 H10_2 1_555 1_555
C18_2 C21_2 1_555 1_555
C19_2 C16_2 1_555 1_555
C20_2 O7_2 1_555 1_555
C21_2 C22_2 1_555 1_555
C22_2 C17_2 1_555 1_555
H11_2 C22_2 1_555 1_555
C23_2 C16_2 1_555 1_555
N2_2 C23_2 1_555 1_555
H12_2 N2_2 1_555 1_555
O11_2 C30_2 1_555 1_555
C24_2 H13_2 1_555 1_555
C25_2 C24_2 1_555 1_555
C26_2 C25_2 1_555 1_555
H14_2 C26_2 1_555 1_555
Cl2_2 C29_2 1_555 1_555
C27_2 C24_2 1_555 1_555
H15_2 C27_2 1_555 1_555
C28_2 C26_2 1_555 1_555
C29_2 C27_2 1_555 1_555
C30_2 N2_2 1_555 1_555
Zn3_2 O1_2 1_555 1_555
O12_2 Zn1_2 1_555 1_555
O13_2 C33_2 1_555 1_555
O14_2 C33_2 1_555 1_555
O15_2 Zn2_2 1_555 1_555
C31_2 H17_2 1_555 1_555
C32_2 H18_2 1_555 1_555
C33_2 C36_2 1_555 1_555
C34_2 C31_2 1_555 1_555
C35_2 O12_2 1_555 1_555
C36_2 C37_2 1_555 1_555
C37_2 C32_2 1_555 1_555
H19_2 C37_2 1_555 1_555
C38_2 C31_2 1_555 1_555
N3_2 C38_2 1_555 1_555
H20_2 N3_2 1_555 1_555
O16_2 C45_2 1_555 1_555
C39_2 H21_2 1_555 1_555
C40_2 C39_2 1_555 1_555
C41_2 C40_2 1_555 1_555
H22_2 C41_2 1_555 1_555
Cl3_2 C44_2 1_555 1_555
C42_2 C39_2 1_555 1_555
H23_2 C42_2 1_555 1_555
C43_2 C41_2 1_555 1_555
H24 C43_2 1_555 1_555
C44_2 C42_2 1_555 1_555
C45_2 N3_2 1_555 1_555
Zn4_2 O1_2 1_555 1_555
O17_2 Zn2_2 1_555 1_555
O18_2 Zn3_2 1_555 1_555
O19_2 Zn4_2 1_555 1_555
O20_2 Zn3_2 1_555 1_555
O21_2 Zn4_2 1_555 1_555
O22_2 Zn2_2 1_555 1_555
Zn5_2 O13_2 1_555 1_555
Zn7_2 O9_2 1_555 1_555
Zn8_2 O14_2 1_555 1_555
Zn8 O8_2 1_555 1_555
O5_2 Zn3_2 1_555 1_555
C2_2 C4_2 1_555 1_555
O10_2 Zn4_2 1_555 1_555
C17_2 C19_2 1_555 1_555
C19_2 C20_2 1_555 1_555
C21_2 C23_2 1_555 1_555
C25_2 C30_2 1_555 1_555
C28_2 C29_2 1_555 1_555
O15_2 C35_2 1_555 1_555
C32_2 C34_2 1_555 1_555
C34_2 C35_2 1_555 1_555
C36_2 C38_2 1_555 1_555
C40_2 C45_2 1_555 1_555
C43_2 C44_2 1_555 1_555
O13_3 C33_3 1_555 1_555
O14_3 C33_3 1_555 1_555
C33_3 C36_3 1_555 1_555
C36_3 C37_3 1_555 1_555
H19_3 C37_3 1_555 1_555
C38_3 C31_3 1_555 1_555
N3_3 C38_3 1_555 1_555
H20_3 N3_3 1_555 1_555
O16_3 C45_3 1_555 1_555
C39_3 H21_3 1_555 1_555
C40_3 C39_3 1_555 1_555
C41_3 C40_3 1_555 1_555
H22_3 C41_3 1_555 1_555
Cl3_3 C44_3 1_555 1_555
C42_3 C39_3 1_555 1_555
H23_3 C42_3 1_555 1_555
C43_3 C41_3 1_555 1_555
H24_2 C43_3 1_555 1_555
C44_3 C42_3 1_555 1_555
C45_3 N3_3 1_555 1_555
Zn5_3 O13_3 1_555 1_555
Zn10 O14_3 1_555 1_555
C36_3 C38_3 1_555 1_555
C40_3 C45_3 1_555 1_555
C43_3 C44_3 1_555 1_555
O1_3 Zn1_3 1_555 1_555
O2_3 C5_3 1_555 1_555
O3_3 C3_3 1_555 1_555
O4_3 C3_3 1_555 1_555
O5_3 C5_3 1_555 1_555
C1_3 H1_3 1_555 1_555
C2_3 H2_3 1_555 1_555
C3_3 C6_3 1_555 1_555
C4_3 C1_3 1_555 1_555
C5_3 C4_3 1_555 1_555
C6_3 C7_3 1_555 1_555
C7_3 C2_3 1_555 1_555
H3_3 C7_3 1_555 1_555
C8_3 C1_3 1_555 1_555
N1_3 C8_3 1_555 1_555
H4_3 N1_3 1_555 1_555
O6_3 C15_3 1_555 1_555
C9_3 H5_3 1_555 1_555
C10_3 C9_3 1_555 1_555
C11_3 C10_3 1_555 1_555
H6_3 C11_3 1_555 1_555
Cl1_3 C14_3 1_555 1_555
C12_3 C9_3 1_555 1_555
H7_3 C12_3 1_555 1_555
C13_3 C11_3 1_555 1_555
C14_3 C12_3 1_555 1_555
C15_3 N1_3 1_555 1_555
Zn1_3 O2_3 1_555 1_555
Zn2_3 O1_3 1_555 1_555
O7_3 Zn1_3 1_555 1_555
O8_3 C18_3 1_555 1_555
O9_3 C18_3 1_555 1_555
O10_3 C20_3 1_555 1_555
C16_3 H9_3 1_555 1_555
C17_3 H10_3 1_555 1_555
C18_3 C21_3 1_555 1_555
C19_3 C16_3 1_555 1_555
C20_3 O7_3 1_555 1_555
C21_3 C22_3 1_555 1_555
C22_3 C17_3 1_555 1_555
H11_3 C22_3 1_555 1_555
C23_3 C16_3 1_555 1_555
N2_3 C23_3 1_555 1_555
H12_3 N2_3 1_555 1_555
O11_3 C30_3 1_555 1_555
C24_3 H13_3 1_555 1_555
C25_3 C24_3 1_555 1_555
C26_3 C25_3 1_555 1_555
H14_3 C26_3 1_555 1_555
Cl2_3 C29_3 1_555 1_555
C27_3 C24_3 1_555 1_555
H15_3 C27_3 1_555 1_555
C28_3 C26_3 1_555 1_555
H16_2 C28_3 1_555 1_555
C29_3 C27_3 1_555 1_555
C30_3 N2_3 1_555 1_555
Zn3_3 O1_3 1_555 1_555
O12_3 Zn1_3 1_555 1_555
O15_3 Zn2_3 1_555 1_555
C32_3 H18_3 1_555 1_555
C35_3 O12_3 1_555 1_555
Zn4_3 O1_3 1_555 1_555
O17_3 Zn2_3 1_555 1_555
O18_3 Zn3_3 1_555 1_555
O19_3 Zn4_3 1_555 1_555
O20_3 Zn3_3 1_555 1_555
O21_3 Zn4_3 1_555 1_555
O22_3 Zn2_3 1_555 1_555
Zn9 O3_3 1_555 1_555
Zn7_3 O9_3 1_555 1_555
Zn6_2 O4_3 1_555 1_555
Zn8_2 O8_3 1_555 1_555
O5_3 Zn3_3 1_555 1_555
C2_3 C4_3 1_555 1_555
C6_3 C8_3 1_555 1_555
C10_3 C15_3 1_555 1_555
C13_3 C14_3 1_555 1_555
O10_3 Zn4_3 1_555 1_555
C17_3 C19_3 1_555 1_555
C19_3 C20_3 1_555 1_555
C21_3 C23_3 1_555 1_555
C25_3 C30_3 1_555 1_555
C28_3 C29_3 1_555 1_555
O15_3 C35_3 1_555 1_555
C32_3 C34_3 1_555 1_555
C34_3 C35_3 1_555 1_555
O13_4 C33_4 1_555 1_555
O14_4 C33_4 1_555 1_555
C33_4 C36_4 1_555 1_555
C36_4 C37_4 1_555 1_555
H19_4 C37_4 1_555 1_555
C38_4 C31_4 1_555 1_555
N3_4 C38_4 1_555 1_555
H20_4 N3_4 1_555 1_555
O16_4 C45_4 1_555 1_555
C39_4 H21_4 1_555 1_555
C40_4 C39_4 1_555 1_555
C41_4 C40_4 1_555 1_555
H22_4 C41_4 1_555 1_555
Cl3_4 C44_4 1_555 1_555
C42_4 C39_4 1_555 1_555
H23_4 C42_4 1_555 1_555
C43_4 C41_4 1_555 1_555
H24_3 C43_4 1_555 1_555
C44_4 C42_4 1_555 1_555
C45_4 N3_4 1_555 1_555
Zn7_2 O13_4 1_555 1_555
Zn5 O14_4 1_555 1_555
C36_4 C38_4 1_555 1_555
C40_4 C45_4 1_555 1_555
C43_4 C44_4 1_555 1_555
O1_4 Zn1_4 1_555 1_555
O2_4 C5_4 1_555 1_555
O3_4 C3_4 1_555 1_555
O4_4 C3_4 1_555 1_555
O5_4 C5_4 1_555 1_555
C1_4 H1_4 1_555 1_555
C2_4 H2_4 1_555 1_555
C3_4 C6_4 1_555 1_555
C4_4 C1_4 1_555 1_555
C5_4 C4_4 1_555 1_555
C6_4 C7_4 1_555 1_555
C7_4 C2_4 1_555 1_555
H3_4 C7_4 1_555 1_555
C8_4 C1_4 1_555 1_555
N1_4 C8_4 1_555 1_555
H4_4 N1_4 1_555 1_555
O6_4 C15_4 1_555 1_555
C9_4 H5_4 1_555 1_555
C10_4 C9_4 1_555 1_555
C11_4 C10_4 1_555 1_555
H6_4 C11_4 1_555 1_555
Cl1_4 C14_4 1_555 1_555
C12_4 C9_4 1_555 1_555
H7_4 C12_4 1_555 1_555
C13_4 C11_4 1_555 1_555
C14_4 C12_4 1_555 1_555
C15_4 N1_4 1_555 1_555
Zn1_4 O2_4 1_555 1_555
Zn2_4 O1_4 1_555 1_555
O7_4 Zn1_4 1_555 1_555
O8_4 C18_4 1_555 1_555
O9_4 C18_4 1_555 1_555
O10_4 C20_4 1_555 1_555
C16_4 H9_4 1_555 1_555
C17_4 H10_4 1_555 1_555
C18_4 C21_4 1_555 1_555
C19_4 C16_4 1_555 1_555
C20_4 O7_4 1_555 1_555
C21_4 C22_4 1_555 1_555
C22_4 C17_4 1_555 1_555
H11_4 C22_4 1_555 1_555
C23_4 C16_4 1_555 1_555
N2_4 C23_4 1_555 1_555
H12_4 N2_4 1_555 1_555
O11_4 C30_4 1_555 1_555
C24_4 H13_4 1_555 1_555
C25_4 C24_4 1_555 1_555
C26_4 C25_4 1_555 1_555
H14_4 C26_4 1_555 1_555
Cl2_4 C29_4 1_555 1_555
C27_4 C24_4 1_555 1_555
H15_4 C27_4 1_555 1_555
C28_4 C26_4 1_555 1_555
H16_3 C28_4 1_555 1_555
C29_4 C27_4 1_555 1_555
C30_4 N2_4 1_555 1_555
Zn3_4 O1_4 1_555 1_555
O12_4 Zn1_4 1_555 1_555
O15_4 Zn2_4 1_555 1_555
C32_4 H18_4 1_555 1_555
C35_4 O12_4 1_555 1_555
Zn4_4 O1_4 1_555 1_555
O17_4 Zn2_4 1_555 1_555
O18_4 Zn3_4 1_555 1_555
O19_4 Zn4_4 1_555 1_555
O20_4 Zn3_4 1_555 1_555
O21_4 Zn4_4 1_555 1_555
O22_4 Zn2_4 1_555 1_555
Zn7 O3_4 1_555 1_555
Zn5_2 O9_4 1_555 1_555
Zn5_3 O4_4 1_555 1_555
Zn7_3 O8_4 1_555 1_555
O5_4 Zn3_4 1_555 1_555
C2_4 C4_4 1_555 1_555
C6_4 C8_4 1_555 1_555
C10_4 C15_4 1_555 1_555
C13_4 C14_4 1_555 1_555
O10_4 Zn4_4 1_555 1_555
C17_4 C19_4 1_555 1_555
C19_4 C20_4 1_555 1_555
C21_4 C23_4 1_555 1_555
C25_4 C30_4 1_555 1_555
C28_4 C29_4 1_555 1_555
O15_4 C35_4 1_555 1_555
C32_4 C34_4 1_555 1_555
C34_4 C35_4 1_555 1_555
O18_2 C18_5 1_555 1_555
O21_2 C18_5 1_555 1_555
C18_5 C21_5 1_555 1_555
C21_5 C22_5 1_555 1_555
H11_5 C22_5 1_555 1_555
C23_5 C16_5 1_555 1_555
N2_5 C23_5 1_555 1_555
H12_5 N2_5 1_555 1_555
O11_5 C30_5 1_555 1_555
C24_5 H13_5 1_555 1_555
C25_5 C24_5 1_555 1_555
C26_5 C25_5 1_555 1_555
H14_5 C26_5 1_555 1_555
Cl2_5 C29_5 1_555 1_555
C27_5 C24_5 1_555 1_555
H15_5 C27_5 1_555 1_555
C28_5 C26_5 1_555 1_555
C29_5 C27_5 1_555 1_555
C30_5 N2_5 1_555 1_555
C21_5 C23_5 1_555 1_555
C25_5 C30_5 1_555 1_555
C28_5 C29_5 1_555 1_555
O17_3 C33_5 1_555 1_555
O20_3 C33_5 1_555 1_555
C33_5 C36_5 1_555 1_555
C36_5 C37_5 1_555 1_555
H19_5 C37_5 1_555 1_555
C38_5 C31_5 1_555 1_555
N3_5 C38_5 1_555 1_555
H20_5 N3_5 1_555 1_555
O16_5 C45_5 1_555 1_555
C39_5 H21_5 1_555 1_555
C40_5 C39_5 1_555 1_555
C41_5 C40_5 1_555 1_555
H22_5 C41_5 1_555 1_555
Cl3_5 C44_5 1_555 1_555
C42_5 C39_5 1_555 1_555
H23_5 C42_5 1_555 1_555
C43_5 C41_5 1_555 1_555
C44_5 C42_5 1_555 1_555
C45_5 N3_5 1_555 1_555
C36_5 C38_5 1_555 1_555
C40_5 C45_5 1_555 1_555
C43_5 C44_5 1_555 1_555
O17_4 C3_5 1_555 1_555
O20_4 C3_5 1_555 1_555
C3_5 C6_5 1_555 1_555
C6_5 C7_5 1_555 1_555
H3_5 C7_5 1_555 1_555
C8_5 C1_5 1_555 1_555
N1_5 C8_5 1_555 1_555
H4_5 N1_5 1_555 1_555
O6_5 C15_5 1_555 1_555
C9_5 H5_5 1_555 1_555
C10_5 C9_5 1_555 1_555
C11_5 C10_5 1_555 1_555
H6_5 C11_5 1_555 1_555
Cl1_5 C14_5 1_555 1_555
C12_5 C9_5 1_555 1_555
H7_5 C12_5 1_555 1_555
C13_5 C11_5 1_555 1_555
C14_5 C12_5 1_555 1_555
C15_5 N1_5 1_555 1_555
C6_5 C8_5 1_555 1_555
C10_5 C15_5 1_555 1_555
C13_5 C14_5 1_555 1_555
O1_5 Zn1_5 1_555 1_555
O2_5 C5_5 1_555 1_555
O5_5 C5_5 1_555 1_555
C2_5 H2_5 1_555 1_555
C5_5 C4_5 1_555 1_555
Zn1_5 O2_5 1_555 1_555
Zn5_2 O1_5 1_555 1_555
O7_5 Zn1_5 1_555 1_555
O10_5 C20_5 1_555 1_555
C17_5 H10_5 1_555 1_555
C20_5 O7_5 1_555 1_555
Zn8_2 O1_5 1_555 1_555
O12_5 Zn1_5 1_555 1_555
O15_5 Zn5_2 1_555 1_555
C32_5 H18_5 1_555 1_555
C35_5 O12_5 1_555 1_555
Zn7_3 O1_5 1_555 1_555
O5_5 Zn8_2 1_555 1_555
C2_5 C4_5 1_555 1_555
O10_5 Zn7_3 1_555 1_555
C17_5 C19_5 1_555 1_555
C19_5 C20_5 1_555 1_555
O15_5 C35_5 1_555 1_555
C32_5 C34_5 1_555 1_555
C34_5 C35_5 1_555 1_555
O1_6 Zn1_6 1_555 1_555
O2_6 C5_6 1_555 1_555
O5_6 C5_6 1_555 1_555
C2_6 H2_6 1_555 1_555
C5_6 C4_6 1_555 1_555
Zn1_6 O2_6 1_555 1_555
Zn5_3 O1_6 1_555 1_555
O7_6 Zn1_6 1_555 1_555
O18_3 C18_6 1_555 1_555
O21_3 C18_6 1_555 1_555
O10_6 C20_6 1_555 1_555
C16_6 H9_6 1_555 1_555
C17_6 H10_6 1_555 1_555
C18_6 C21_6 1_555 1_555
C19_6 C16_6 1_555 1_555
C20_6 O7_6 1_555 1_555
C21_6 C22_6 1_555 1_555
C22_6 C17_6 1_555 1_555
H11_6 C22_6 1_555 1_555
C23_6 C16_6 1_555 1_555
N2_6 C23_6 1_555 1_555
H12_6 N2_6 1_555 1_555
O11_6 C30_6 1_555 1_555
C24_6 H13_6 1_555 1_555
C25_6 C24_6 1_555 1_555
C26_6 C25_6 1_555 1_555
H14_6 C26_6 1_555 1_555
Cl2_6 C29_6 1_555 1_555
C27_6 C24_6 1_555 1_555
H15_6 C27_6 1_555 1_555
C28_6 C26_6 1_555 1_555
C29_6 C27_6 1_555 1_555
C30_6 N2_6 1_555 1_555
Zn10 O1_6 1_555 1_555
O12_6 Zn1_6 1_555 1_555
O17 C33_6 1_555 1_555
O20 C33_6 1_555 1_555
O15_6 Zn5_3 1_555 1_555
C31_6 H17_6 1_555 1_555
C32_6 H18_6 1_555 1_555
C33_6 C36_6 1_555 1_555
C34_6 C31_6 1_555 1_555
C35_6 O12_6 1_555 1_555
C36_6 C37_6 1_555 1_555
C37_6 C32_6 1_555 1_555
H19_6 C37_6 1_555 1_555
C38_6 C31_6 1_555 1_555
N3_6 C38_6 1_555 1_555
H20_6 N3_6 1_555 1_555
O16_6 C45_6 1_555 1_555
C39_6 H21_6 1_555 1_555
C40_6 C39_6 1_555 1_555
C41_6 C40_6 1_555 1_555
H22_6 C41_6 1_555 1_555
Cl3_6 C44_6 1_555 1_555
C42_6 C39_6 1_555 1_555
H23_6 C42_6 1_555 1_555
C43_6 C41_6 1_555 1_555
H24_4 C43_6 1_555 1_555
C44_6 C42_6 1_555 1_555
C45_6 N3_6 1_555 1_555
Zn7 O1_6 1_555 1_555
O5_6 Zn10 1_555 1_555
C2_6 C4_6 1_555 1_555
O10_6 Zn7 1_555 1_555
C17_6 C19_6 1_555 1_555
C19_6 C20_6 1_555 1_555
C21_6 C23_6 1_555 1_555
C25_6 C30_6 1_555 1_555
C28_6 C29_6 1_555 1_555
O15_6 C35_6 1_555 1_555
C32_6 C34_6 1_555 1_555
C34_6 C35_6 1_555 1_555
C36_6 C38_6 1_555 1_555
C40_6 C45_6 1_555 1_555
C43_6 C44_6 1_555 1_555
O19_4 C3_6 1_555 1_555
O22_4 C3_6 1_555 1_555
C3_6 C6_6 1_555 1_555
C6_6 C7_6 1_555 1_555
H3_6 C7_6 1_555 1_555
C8_6 C1_6 1_555 1_555
N1_6 C8_6 1_555 1_555
H4_6 N1_6 1_555 1_555
O6_6 C15_6 1_555 1_555
C9_6 H5_6 1_555 1_555
C10_6 C9_6 1_555 1_555
C11_6 C10_6 1_555 1_555
H6_6 C11_6 1_555 1_555
Cl1_6 C14_6 1_555 1_555
C12_6 C9_6 1_555 1_555
H7_6 C12_6 1_555 1_555
C13_6 C11_6 1_555 1_555
H8_4 C13_6 1_555 1_555
C14_6 C12_6 1_555 1_555
C15_6 N1_6 1_555 1_555
C6_6 C8_6 1_555 1_555
C10_6 C15_6 1_555 1_555
C13_6 C14_6 1_555 1_555
O1_7 Zn1_7 1_555 1_555
O2_7 C5_7 1_555 1_555
O18_4 C3_7 1_555 1_555
O21_4 C3_7 1_555 1_555
O5_7 C5_7 1_555 1_555
C1_7 H1_7 1_555 1_555
C2_7 H2_7 1_555 1_555
C3_7 C6_7 1_555 1_555
C4_7 C1_7 1_555 1_555
C5_7 C4_7 1_555 1_555
C6_7 C7_7 1_555 1_555
C7_7 C2_7 1_555 1_555
H3_7 C7_7 1_555 1_555
C8_7 C1_7 1_555 1_555
N1_7 C8_7 1_555 1_555
H4_7 N1_7 1_555 1_555
O6_7 C15_7 1_555 1_555
C9_7 H5_7 1_555 1_555
C10_7 C9_7 1_555 1_555
C11_7 C10_7 1_555 1_555
H6_7 C11_7 1_555 1_555
Cl1_7 C14_7 1_555 1_555
C12_7 C9_7 1_555 1_555
H7_7 C12_7 1_555 1_555
C13_7 C11_7 1_555 1_555
C14_7 C12_7 1_555 1_555
C15_7 N1_7 1_555 1_555
Zn1_7 O2_7 1_555 1_555
Zn5 O1_7 1_555 1_555
O7_7 Zn1_7 1_555 1_555
O18 C18_7 1_555 1_555
O21 C18_7 1_555 1_555
O10_7 C20_7 1_555 1_555
C16_7 H9_7 1_555 1_555
C17_7 H10_7 1_555 1_555
C18_7 C21_7 1_555 1_555
C19_7 C16_7 1_555 1_555
C20_7 O7_7 1_555 1_555
C21_7 C22_7 1_555 1_555
C22_7 C17_7 1_555 1_555
H11_7 C22_7 1_555 1_555
C23_7 C16_7 1_555 1_555
N2_7 C23_7 1_555 1_555
H12_7 N2_7 1_555 1_555
O11_7 C30_7 1_555 1_555
C24_7 H13_7 1_555 1_555
C25_7 C24_7 1_555 1_555
C26_7 C25_7 1_555 1_555
H14_7 C26_7 1_555 1_555
Cl2_7 C29_7 1_555 1_555
C27_7 C24_7 1_555 1_555
H15_7 C27_7 1_555 1_555
C28_7 C26_7 1_555 1_555
H16_5 C28_7 1_555 1_555
C29_7 C27_7 1_555 1_555
C30_7 N2_7 1_555 1_555
Zn8 O1_7 1_555 1_555
O12_7 Zn1_7 1_555 1_555
O15_7 Zn5 1_555 1_555
C32_7 H18_7 1_555 1_555
C35_7 O12_7 1_555 1_555
Zn7_2 O1_7 1_555 1_555
O5_7 Zn8 1_555 1_555
C2_7 C4_7 1_555 1_555
C6_7 C8_7 1_555 1_555
C10_7 C15_7 1_555 1_555
C13_7 C14_7 1_555 1_555
O10_7 Zn7_2 1_555 1_555
C17_7 C19_7 1_555 1_555
C19_7 C20_7 1_555 1_555
C21_7 C23_7 1_555 1_555
C25_7 C30_7 1_555 1_555
C28_7 C29_7 1_555 1_555
O15_7 C35_7 1_555 1_555
C32_7 C34_7 1_555 1_555
C34_7 C35_7 1_555 1_555
O17_2 C33_7 1_555 1_555
O20_2 C33_7 1_555 1_555
C33_7 C36_7 1_555 1_555
C36_7 C37_7 1_555 1_555
H19_7 C37_7 1_555 1_555
C38_7 C31_7 1_555 1_555
N3_7 C38_7 1_555 1_555
H20_7 N3_7 1_555 1_555
O16_7 C45_7 1_555 1_555
C39_7 H21_7 1_555 1_555
C40_7 C39_7 1_555 1_555
C41_7 C40_7 1_555 1_555
H22_7 C41_7 1_555 1_555
Cl3_7 C44_7 1_555 1_555
C42_7 C39_7 1_555 1_555
H23_7 C42_7 1_555 1_555
C43_7 C41_7 1_555 1_555
H24_5 C43_7 1_555 1_555
C44_7 C42_7 1_555 1_555
C45_7 N3_7 1_555 1_555
C36_7 C38_7 1_555 1_555
C40_7 C45_7 1_555 1_555
C43_7 C44_7 1_555 1_555
O1_8 Zn1_8 1_555 1_555
O2_8 C5_8 1_555 1_555
O19_2 C3_8 1_555 1_555
O22_2 C3_8 1_555 1_555
O5_8 C5_8 1_555 1_555
C1_8 H1_8 1_555 1_555
C2_8 H2_8 1_555 1_555
C3_8 C6_8 1_555 1_555
C4_8 C1_8 1_555 1_555
C5_8 C4_8 1_555 1_555
C6_8 C7_8 1_555 1_555
C7_8 C2_8 1_555 1_555
H3_8 C7_8 1_555 1_555
C8_8 C1_8 1_555 1_555
N1_8 C8_8 1_555 1_555
H4_8 N1_8 1_555 1_555
O6_8 C15_8 1_555 1_555
C9_8 H5_8 1_555 1_555
C10_8 C9_8 1_555 1_555
C11_8 C10_8 1_555 1_555
H6_8 C11_8 1_555 1_555
Cl1_8 C14_8 1_555 1_555
C12_8 C9_8 1_555 1_555
H7_8 C12_8 1_555 1_555
C13_8 C11_8 1_555 1_555
C14_8 C12_8 1_555 1_555
C15_8 N1_8 1_555 1_555
Zn1_8 O2_8 1_555 1_555
Zn6 O1_8 1_555 1_555
O7_8 Zn1_8 1_555 1_555
O19 C18_8 1_555 1_555
O22 C18_8 1_555 1_555
O10_8 C20_8 1_555 1_555
C16_8 H9_8 1_555 1_555
C17_8 H10_8 1_555 1_555
C18_8 C21_8 1_555 1_555
C19_8 C16_8 1_555 1_555
C20_8 O7_8 1_555 1_555
C21_8 C22_8 1_555 1_555
C22_8 C17_8 1_555 1_555
H11_8 C22_8 1_555 1_555
C23_8 C16_8 1_555 1_555
N2_8 C23_8 1_555 1_555
H12_8 N2_8 1_555 1_555
O11_8 C30_8 1_555 1_555
C24_8 H13_8 1_555 1_555
C25_8 C24_8 1_555 1_555
C26_8 C25_8 1_555 1_555
H14_8 C26_8 1_555 1_555
Cl2_8 C29_8 1_555 1_555
C27_8 C24_8 1_555 1_555
H15_8 C27_8 1_555 1_555
C28_8 C26_8 1_555 1_555
H16_6 C28_8 1_555 1_555
C29_8 C27_8 1_555 1_555
C30_8 N2_8 1_555 1_555
Zn9 O1_8 1_555 1_555
O12_8 Zn1_8 1_555 1_555
O15_8 Zn6 1_555 1_555
C32_8 H18_8 1_555 1_555
C35_8 O12_8 1_555 1_555
Zn6_2 O1_8 1_555 1_555
O5_8 Zn9 1_555 1_555
C2_8 C4_8 1_555 1_555
C6_8 C8_8 1_555 1_555
C10_8 C15_8 1_555 1_555
C13_8 C14_8 1_555 1_555
O10_8 Zn6_2 1_555 1_555
C17_8 C19_8 1_555 1_555
C19_8 C20_8 1_555 1_555
C21_8 C23_8 1_555 1_555
C25_8 C30_8 1_555 1_555
C28_8 C29_8 1_555 1_555
O15_8 C35_8 1_555 1_555
C32_8 C34_8 1_555 1_555
C34_8 C35_8 1_555 1_555
O19_3 C33_8 1_555 1_555
O22_3 C33_8 1_555 1_555
C33_8 C36_8 1_555 1_555
C36_8 C37_8 1_555 1_555
H19_8 C37_8 1_555 1_555
C38_8 C31_8 1_555 1_555
N3_8 C38_8 1_555 1_555
H20_8 N3_8 1_555 1_555
O16_8 C45_8 1_555 1_555
C39_8 H21_8 1_555 1_555
C40_8 C39_8 1_555 1_555
C41_8 C40_8 1_555 1_555
H22_8 C41_8 1_555 1_555
Cl3_8 C44_8 1_555 1_555
C42_8 C39_8 1_555 1_555
H23_8 C42_8 1_555 1_555
C43_8 C41_8 1_555 1_555
H24_6 C43_8 1_555 1_555
C44_8 C42_8 1_555 1_555
C45_8 N3_8 1_555 1_555
C36_8 C38_8 1_555 1_555
C40_8 C45_8 1_555 1_555
C43_8 C44_8 1_555 1_555

#END
