
###############################################################################
#
# This file contains modified crystal structure data generated from the
# MOF subset of the Cambridge Structural Database (CSD) v543 
# hosted by the Cambridge Crystallographic Data Centre (CCDC).
#
# This work is licensed under the Creative Commons
# Attribution-NonCommercial-ShareAlike 4.0 International License.
# To view a copy of this license, visit
# http://creativecommons.org/licenses/by-nc-sa/4.0/
# or send a letter to
# Creative Commons, PO Box 1866, Mountain View, CA 94042, USA.
#
# CIF created using the CSD Python API on 29 September 2022
# The structure has been converted into the P1 space group
# The structure has a 3D framework
# The original CSD entry HOLQAC is in the cubic crystal system
# The framework has been calculated to contain at least 10.0% void space
# The void calculation uses a probe of radius 1.32A, grid spacing 0.4
#
###############################################################################

data_HOLQAC
_chemical_formula_moiety         '(C360 H216 N24 O128 Zn32)n'
_symmetry_cell_setting           triclinic
_symmetry_space_group_name_H-M   'P 1'
_symmetry_Int_Tables_number      1
_space_group_name_Hall           'P 1'
loop_
_symmetry_equiv_pos_site_id
_symmetry_equiv_pos_as_xyz
1 x,y,z
_cell_length_a                   25.5775(18)
_cell_length_b                   25.5775(18)
_cell_length_c                   25.5775(18)
_cell_angle_alpha                90
_cell_angle_beta                 90
_cell_angle_gamma                90
_cell_volume                     16733
loop_
_atom_site_label
_atom_site_type_symbol
_atom_site_fract_x
_atom_site_fract_y
_atom_site_fract_z
O1 O 0.2775(3) 0.3395(2) 0.1997(3)
O2 O 0.2052(2) 0.3499(2) 0.2495(3)
O3 O 0.2425(3) 0.6131(2) 0.2700(3)
O4 O 0.3014(3) 0.6120(3) 0.1992(3)
C1 C 0.2973(5) 0.5043(5) 0.1993(5)
H1 H 0.3221 0.5219 0.1793
C2 C 0.2453(4) 0.3674(4) 0.2249(4)
C3 C 0.2933(6) 0.4490(6) 0.1959(5)
C4 C 0.2649(4) 0.5320(4) 0.2319(4)
C5 C 0.2526(4) 0.4247(4) 0.2261(4)
C6 C 0.2701(4) 0.5896(4) 0.2314(4)
C7 C 0.2254(5) 0.5080(4) 0.2615(5)
H2 H 0.2032 0.5277 0.2825
C8 C 0.2205(4) 0.4541(4) 0.2584(4)
H3 H 0.1951 0.4373 0.2784
N1 N 0.3257(6) 0.4205(5) 0.1676(7)
H4 H 0.3188 0.3878 0.1716
C9 C 0.3787(6) 0.3434(7) 0.1034(6)
H5 H 0.3450 0.3366 0.1154
C10 C 0.4047(8) 0.3072(8) 0.0732(7)
H6 H 0.3838 0.2822 0.0571
C11 C 0.4834(14) 0.3472(13) 0.0791(12)
H7 H 0.5185 0.3516 0.0709
C12 C 0.4029(11) 0.3896(10) 0.1156(16)
C13 C 0.3678(12) 0.4267(11) 0.1331(14)
C14 C 0.4573(12) 0.3858(14) 0.1072(13)
H8 H 0.4779 0.4118 0.1220
C15 C 0.4579(10) 0.3032(13) 0.0637(11)
H9 H 0.4740 0.2742 0.0487
O5 O 0.3875(11) 0.4756(8) 0.1363(14)
Zn1 Zn 0.18427(4) 0.18427(4) 0.18427(4)
Zn2 Zn 0.27914(4) 0.26524(4) 0.18651(3)
O6 O 0.22879(17) 0.22879(17) 0.22879(17)
O7 O 0.1997(3) 0.2775(3) 0.3395(2)
O8 O 0.2495(3) 0.2052(2) 0.3499(2)
O9 O 0.2700(3) 0.2425(3) 0.6131(2)
O10 O 0.1992(3) 0.3014(3) 0.6120(3)
C16 C 0.1993(5) 0.2973(5) 0.5043(5)
H10 H 0.1793 0.3221 0.5219
C17 C 0.2249(4) 0.2453(4) 0.3674(4)
C18 C 0.1959(5) 0.2933(6) 0.4490(6)
C19 C 0.2319(4) 0.2649(4) 0.5320(4)
C20 C 0.2261(4) 0.2526(4) 0.4247(4)
C21 C 0.2314(4) 0.2701(4) 0.5896(4)
C22 C 0.2615(5) 0.2254(5) 0.5080(4)
H11 H 0.2825 0.2032 0.5277
C23 C 0.2584(4) 0.2205(4) 0.4541(4)
H12 H 0.2784 0.1951 0.4373
N2 N 0.1676(7) 0.3257(6) 0.4205(5)
H13 H 0.1716 0.3188 0.3878
C24 C 0.1034(6) 0.3787(6) 0.3434(7)
H14 H 0.1154 0.3450 0.3366
C25 C 0.0732(7) 0.4047(8) 0.3072(8)
H15 H 0.0571 0.3838 0.2822
C26 C 0.0791(12) 0.4834(14) 0.3472(13)
H16 H 0.0709 0.5185 0.3516
C27 C 0.1156(16) 0.4029(11) 0.3896(10)
C28 C 0.1331(14) 0.3678(12) 0.4267(11)
C29 C 0.1072(13) 0.4573(12) 0.3858(14)
H17 H 0.1220 0.4779 0.4118
C30 C 0.0637(11) 0.4579(10) 0.3032(13)
H18 H 0.0487 0.4740 0.2742
O11 O 0.1363(14) 0.3875(11) 0.4756(8)
Zn3 Zn 0.18651(3) 0.27914(4) 0.26524(4)
O12 O 0.3395(2) 0.1997(3) 0.2775(3)
O13 O 0.3499(2) 0.2495(3) 0.2052(2)
O14 O 0.6131(2) 0.2700(3) 0.2425(3)
O15 O 0.6120(3) 0.1992(3) 0.3014(3)
C31 C 0.5043(5) 0.1993(5) 0.2973(5)
H19 H 0.5219 0.1793 0.3221
C32 C 0.3674(4) 0.2249(4) 0.2453(4)
C33 C 0.4490(6) 0.1959(5) 0.2933(6)
C34 C 0.5320(4) 0.2319(4) 0.2649(4)
C35 C 0.4247(4) 0.2261(4) 0.2526(4)
C36 C 0.5896(4) 0.2314(4) 0.2701(4)
C37 C 0.5080(4) 0.2615(5) 0.2254(5)
H20 H 0.5277 0.2825 0.2032
C38 C 0.4541(4) 0.2584(4) 0.2205(4)
H21 H 0.4373 0.2784 0.1951
N3 N 0.4205(5) 0.1676(7) 0.3257(6)
H22 H 0.3878 0.1716 0.3188
C39 C 0.3434(7) 0.1034(6) 0.3787(6)
H23 H 0.3366 0.1154 0.3450
C40 C 0.3072(8) 0.0732(7) 0.4047(8)
H24 H 0.2822 0.0571 0.3838
C41 C 0.3472(13) 0.0791(12) 0.4834(14)
H25 H 0.3516 0.0709 0.5185
C42 C 0.3896(10) 0.1156(16) 0.4029(11)
C43 C 0.4267(11) 0.1331(14) 0.3678(12)
C44 C 0.3858(14) 0.1072(13) 0.4573(12)
H26 H 0.4118 0.1220 0.4779
C45 C 0.3032(13) 0.0637(11) 0.4579(10)
H27 H 0.2742 0.0487 0.4740
O16 O 0.4756(8) 0.1363(14) 0.3875(11)
Zn4 Zn 0.26524(4) 0.18651(3) 0.27914(4)
O17 O 0.1131(2) 0.2700(3) 0.2575(3)
O18 O 0.2700(3) 0.2575(3) 0.1131(2)
O19 O 0.2575(3) 0.1131(2) 0.2700(3)
O20 O 0.1120(3) 0.1992(3) 0.1986(3)
O21 O 0.1992(3) 0.1986(3) 0.1120(3)
O22 O 0.1986(3) 0.1120(3) 0.1992(3)
Zn5 Zn 0.68427(4) 0.18427(4) 0.31573(4)
Zn6 Zn 0.31573(4) 0.68427(4) 0.18427(4)
Zn7 Zn 0.18427(4) 0.31573(4) 0.68427(4)
Zn8 Zn 0.68651(3) 0.27914(4) 0.23476(4)
Zn9 Zn 0.23476(4) 0.68651(3) 0.27914(4)
Zn10 Zn 0.27914(4) 0.23476(4) 0.68651(3)
H7_2 H 0.1484 0.9291 0.0185
O14_2 O 0.2300(3) 0.7575(3) 0.1131(2)
O15_2 O 0.3008(3) 0.6986(3) 0.1120(3)
C31_2 C 0.3007(5) 0.7027(5) 0.0043(5)
H19_2 H 0.3207 0.6779 0.0219
C34_2 C 0.2681(4) 0.7351(4) 0.0320(4)
C36_2 C 0.2686(4) 0.7299(4) 0.0896(4)
C37_2 C 0.2385(5) 0.7746(5) 0.0080(4)
H20_2 H 0.2175 0.7968 0.0277
Zn8_2 Zn 0.22086(4) 0.76524(4) 0.18651(3)
O1_2 O 0.1605(2) 0.8003(3) 0.7775(3)
O2_2 O 0.1501(2) 0.7505(3) 0.7052(2)
C2_2 C 0.1326(4) 0.7751(4) 0.7453(4)
C3_2 C 0.0510(6) 0.8041(5) 0.7933(6)
C5_2 C 0.0753(4) 0.7739(4) 0.7526(4)
C8_2 C 0.0459(4) 0.7416(4) 0.7205(4)
H3_2 H 0.0627 0.7216 0.6951
N1_2 N 0.0795(5) 0.8324(7) 0.8257(6)
H4_2 H 0.1122 0.8284 0.8188
C9_2 C 0.1566(7) 0.8966(6) 0.8787(6)
H5_2 H 0.1634 0.8846 0.8450
C10_2 C 0.1928(8) 0.9268(7) 0.9047(8)
H6_2 H 0.2178 0.9429 0.8838
C11_2 C 0.1528(13) 0.9209(12) 0.9834(14)
C12_2 C 0.1104(10) 0.8844(16) 0.9029(11)
C13_2 C 0.0733(11) 0.8669(14) 0.8678(12)
C14_2 C 0.1142(14) 0.8928(13) 0.9573(12)
H8_2 H 0.0882 0.8780 0.9779
C15_2 C 0.1968(13) 0.9363(11) 0.9579(10)
H9_2 H 0.2258 0.9513 0.9740
O5_2 O 0.0244(8) 0.8637(14) 0.8875(11)
Zn1_2 Zn 0.31573(4) 0.81573(4) 0.68427(4)
Zn2_2 Zn 0.23476(4) 0.81349(3) 0.77914(4)
O6_2 O 0.27121(17) 0.77121(17) 0.72879(17)
O7_2 O 0.2225(3) 0.6605(2) 0.6997(3)
O8_2 O 0.2948(2) 0.6501(2) 0.7495(3)
O9_2 O 0.2575(3) 0.3869(2) 0.7700(3)
O10_2 O 0.1986(3) 0.3880(3) 0.6992(3)
C16_2 C 0.2027(5) 0.4957(5) 0.6993(5)
H10_2 H 0.1779 0.4781 0.6793
C17_2 C 0.2547(4) 0.6326(4) 0.7249(4)
C18_2 C 0.2067(6) 0.5510(6) 0.6959(5)
C19_2 C 0.2351(4) 0.4680(4) 0.7319(4)
C20_2 C 0.2474(4) 0.5753(4) 0.7261(4)
C21_2 C 0.2299(4) 0.4104(4) 0.7314(4)
C22_2 C 0.2746(5) 0.4920(4) 0.7615(5)
H11_2 H 0.2968 0.4723 0.7825
C23_2 C 0.2795(4) 0.5459(4) 0.7584(4)
H12_2 H 0.3049 0.5627 0.7784
N2_2 N 0.1743(6) 0.5795(5) 0.6676(7)
H13_2 H 0.1812 0.6122 0.6716
C24_2 C 0.1213(6) 0.6566(7) 0.6034(6)
H14_2 H 0.1550 0.6634 0.6154
C25_2 C 0.0953(8) 0.6928(8) 0.5732(7)
H15_2 H 0.1162 0.7178 0.5571
C26_2 C 0.0166(14) 0.6528(13) 0.5791(12)
C27_2 C 0.0971(11) 0.6104(10) 0.6156(16)
C28_2 C 0.1322(12) 0.5733(11) 0.6331(14)
C29_2 C 0.0427(12) 0.6142(14) 0.6072(13)
H17_2 H 0.0221 0.5882 0.6220
C30_2 C 0.0421(10) 0.6968(13) 0.5637(11)
H18_2 H 0.0260 0.7258 0.5487
O11_2 O 0.1125(11) 0.5244(8) 0.6363(14)
Zn3_2 Zn 0.22086(4) 0.73476(4) 0.68651(3)
O12_2 O 0.3003(3) 0.7225(3) 0.8395(2)
O13_2 O 0.2505(3) 0.7948(2) 0.8499(2)
C32_2 C 0.2751(4) 0.7547(4) 0.8674(4)
C33_2 C 0.3041(5) 0.7067(6) 0.9490(6)
C35_2 C 0.2739(4) 0.7474(4) 0.9247(4)
C38_2 C 0.2416(4) 0.7795(4) 0.9541(4)
H21_2 H 0.2216 0.8049 0.9373
N3_2 N 0.3324(7) 0.6743(6) 0.9205(5)
H22_2 H 0.3284 0.6812 0.8878
C39_2 C 0.3966(6) 0.6213(6) 0.8434(7)
H23_2 H 0.3846 0.6550 0.8366
C40_2 C 0.4268(7) 0.5953(8) 0.8072(8)
H24_2 H 0.4429 0.6162 0.7822
C41_2 C 0.4209(12) 0.5166(14) 0.8472(13)
H25_2 H 0.4291 0.4815 0.8516
C42_2 C 0.3844(16) 0.5971(11) 0.8896(10)
C43_2 C 0.3669(14) 0.6322(12) 0.9267(11)
C44_2 C 0.3928(13) 0.5427(12) 0.8858(14)
H26_2 H 0.3780 0.5221 0.9118
C45_2 C 0.4363(11) 0.5421(10) 0.8032(13)
H27_2 H 0.4513 0.5260 0.7742
O16_2 O 0.3637(14) 0.6125(11) 0.9756(8)
Zn4_2 Zn 0.31349(3) 0.72086(4) 0.76524(4)
O17_2 O 0.2300(3) 0.7425(3) 0.6131(2)
O18_2 O 0.2425(3) 0.8869(2) 0.7700(3)
O19_2 O 0.3869(2) 0.7300(3) 0.7575(3)
O20_2 O 0.3008(3) 0.8014(3) 0.6120(3)
O21_2 O 0.3014(3) 0.8880(3) 0.6992(3)
O22_2 O 0.3880(3) 0.8008(3) 0.6986(3)
Zn10_2 Zn 0.26524(4) 0.31349(3) 0.77914(4)
O3_2 O 0.8869(2) 0.7300(3) 0.7425(3)
O4_2 O 0.8880(3) 0.8008(3) 0.8014(3)
C1_2 C 0.9957(5) 0.8007(5) 0.7973(5)
H1_2 H 0.9781 0.8207 0.8221
C4_2 C 0.9680(4) 0.7681(4) 0.7649(4)
C6_2 C 0.9104(4) 0.7686(4) 0.7701(4)
C7_2 C 0.9920(4) 0.7385(5) 0.7254(5)
H2_2 H 0.9723 0.7175 0.7032
H16_2 H 0.9815 0.6484 0.5709
Zn6_2 Zn 0.81573(4) 0.81573(4) 0.81573(4)
Zn9_2 Zn 0.81349(3) 0.72086(4) 0.73476(4)
O9_3 O 0.1131(2) 0.2300(3) 0.7575(3)
O10_3 O 0.1120(3) 0.3008(3) 0.6986(3)
C16_3 C 0.0043(5) 0.3007(5) 0.7027(5)
H10_3 H 0.0219 0.3207 0.6779
C19_3 C 0.0320(4) 0.2681(4) 0.7351(4)
C21_3 C 0.0896(4) 0.2686(4) 0.7299(4)
C22_3 C 0.0080(4) 0.2385(5) 0.7746(5)
H11_3 H 0.0277 0.2175 0.7968
H25_3 H 0.0185 0.1484 0.9291
Zn10_3 Zn 0.18651(3) 0.22086(4) 0.76524(4)
O1_3 O 0.6997(3) 0.2225(3) 0.6605(2)
O2_3 O 0.7495(3) 0.2948(2) 0.6501(2)
O3_3 O 0.7700(3) 0.2575(3) 0.3869(2)
O4_3 O 0.6992(3) 0.1986(3) 0.3880(3)
C1_3 C 0.6993(5) 0.2027(5) 0.4957(5)
H1_3 H 0.6793 0.1779 0.4781
C2_3 C 0.7249(4) 0.2547(4) 0.6326(4)
C3_3 C 0.6959(5) 0.2067(6) 0.5510(6)
C4_3 C 0.7319(4) 0.2351(4) 0.4680(4)
C5_3 C 0.7261(4) 0.2474(4) 0.5753(4)
C6_3 C 0.7314(4) 0.2299(4) 0.4104(4)
C7_3 C 0.7615(5) 0.2746(5) 0.4920(4)
H2_3 H 0.7825 0.2968 0.4723
C8_3 C 0.7584(4) 0.2795(4) 0.5459(4)
H3_3 H 0.7784 0.3049 0.5627
N1_3 N 0.6676(7) 0.1743(6) 0.5795(5)
H4_3 H 0.6716 0.1812 0.6122
C9_3 C 0.6034(6) 0.1213(6) 0.6566(7)
H5_3 H 0.6154 0.1550 0.6634
C10_3 C 0.5732(7) 0.0953(8) 0.6928(8)
H6_3 H 0.5571 0.1162 0.7178
C11_3 C 0.5791(12) 0.0166(14) 0.6528(13)
C12_3 C 0.6156(16) 0.0971(11) 0.6104(10)
C13_3 C 0.6331(14) 0.1322(12) 0.5733(11)
C14_3 C 0.6072(13) 0.0427(12) 0.6142(14)
H8_3 H 0.6220 0.0221 0.5882
C15_3 C 0.5637(11) 0.0421(10) 0.6968(13)
H9_3 H 0.5487 0.0260 0.7258
O5_3 O 0.6363(14) 0.1125(11) 0.5244(8)
Zn1_3 Zn 0.68427(4) 0.31573(4) 0.81573(4)
Zn2_3 Zn 0.68651(3) 0.22086(4) 0.73476(4)
O6_3 O 0.72879(17) 0.27121(17) 0.77121(17)
O7_3 O 0.8395(2) 0.3003(3) 0.7225(3)
O8_3 O 0.8499(2) 0.2505(3) 0.7948(2)
C17_3 C 0.8674(4) 0.2751(4) 0.7547(4)
C18_3 C 0.9490(6) 0.3041(5) 0.7067(6)
C20_3 C 0.9247(4) 0.2739(4) 0.7474(4)
C23_3 C 0.9541(4) 0.2416(4) 0.7795(4)
H12_3 H 0.9373 0.2216 0.8049
N2_3 N 0.9205(5) 0.3324(7) 0.6743(6)
H13_3 H 0.8878 0.3284 0.6812
C24_3 C 0.8434(7) 0.3966(6) 0.6213(6)
H14_3 H 0.8366 0.3846 0.6550
C25_3 C 0.8072(8) 0.4268(7) 0.5953(8)
H15_3 H 0.7822 0.4429 0.6162
C26_3 C 0.8472(13) 0.4209(12) 0.5166(14)
H16_3 H 0.8516 0.4291 0.4815
C27_3 C 0.8896(10) 0.3844(16) 0.5971(11)
C28_3 C 0.9267(11) 0.3669(14) 0.6322(12)
C29_3 C 0.8858(14) 0.3928(13) 0.5427(12)
H17_3 H 0.9118 0.3780 0.5221
C30_3 C 0.8032(13) 0.4363(11) 0.5421(10)
H18_3 H 0.7742 0.4513 0.5260
O11_3 O 0.9756(8) 0.3637(14) 0.6125(11)
Zn3_3 Zn 0.76524(4) 0.31349(3) 0.72086(4)
O12_3 O 0.7775(3) 0.1605(2) 0.8003(3)
O13_3 O 0.7052(2) 0.1501(2) 0.7505(3)
C32_3 C 0.7453(4) 0.1326(4) 0.7751(4)
C33_3 C 0.7933(6) 0.0510(6) 0.8041(5)
C35_3 C 0.7526(4) 0.0753(4) 0.7739(4)
C38_3 C 0.7205(4) 0.0459(4) 0.7416(4)
H21_3 H 0.6951 0.0627 0.7216
N3_3 N 0.8257(6) 0.0795(5) 0.8324(7)
H22_3 H 0.8188 0.1122 0.8284
C39_3 C 0.8787(6) 0.1566(7) 0.8966(6)
H23_3 H 0.8450 0.1634 0.8846
C40_3 C 0.9047(8) 0.1928(8) 0.9268(7)
H24_3 H 0.8838 0.2178 0.9429
C41_3 C 0.9834(14) 0.1528(13) 0.9209(12)
C42_3 C 0.9029(11) 0.1104(10) 0.8844(16)
C43_3 C 0.8678(12) 0.0733(11) 0.8669(14)
C44_3 C 0.9573(12) 0.1142(14) 0.8928(13)
H26_3 H 0.9779 0.0882 0.8780
C45_3 C 0.9579(10) 0.1968(13) 0.9363(11)
H27_3 H 0.9740 0.2258 0.9513
O16_3 O 0.8875(11) 0.0244(8) 0.8637(14)
Zn4_3 Zn 0.77914(4) 0.23476(4) 0.81349(3)
O17_3 O 0.7575(3) 0.3869(2) 0.7300(3)
O18_3 O 0.6131(2) 0.2300(3) 0.7425(3)
O19_3 O 0.7700(3) 0.2425(3) 0.8869(2)
O20_3 O 0.6986(3) 0.3880(3) 0.8008(3)
O21_3 O 0.6120(3) 0.3008(3) 0.8014(3)
O22_3 O 0.6992(3) 0.3014(3) 0.8880(3)
Zn9_3 Zn 0.77914(4) 0.26524(4) 0.31349(3)
H7_3 H 0.5709 0.9815 0.6484
O14_3 O 0.7425(3) 0.8869(2) 0.7300(3)
O15_3 O 0.8014(3) 0.8880(3) 0.8008(3)
C31_3 C 0.7973(5) 0.9957(5) 0.8007(5)
H19_3 H 0.8221 0.9781 0.8207
C34_3 C 0.7649(4) 0.9680(4) 0.7681(4)
C36_3 C 0.7701(4) 0.9104(4) 0.7686(4)
C37_3 C 0.7254(5) 0.9920(4) 0.7385(5)
H20_3 H 0.7032 0.9723 0.7175
Zn8_3 Zn 0.73476(4) 0.81349(3) 0.72086(4)
O9_4 O 0.7575(3) 0.1131(2) 0.2300(3)
O10_4 O 0.6986(3) 0.1120(3) 0.3008(3)
C16_4 C 0.7027(5) 0.0043(5) 0.3007(5)
H10_4 H 0.6779 0.0219 0.3207
C19_4 C 0.7351(4) 0.0320(4) 0.2681(4)
C21_4 C 0.7299(4) 0.0896(4) 0.2686(4)
C22_4 C 0.7746(5) 0.0080(4) 0.2385(5)
H11_4 H 0.7968 0.0277 0.2175
H25_4 H 0.9291 0.0185 0.1484
Zn10_4 Zn 0.76524(4) 0.18651(3) 0.22086(4)
O1_4 O 0.6605(2) 0.6997(3) 0.2225(3)
O2_4 O 0.6501(2) 0.7495(3) 0.2948(2)
O3_4 O 0.3869(2) 0.7700(3) 0.2575(3)
O4_4 O 0.3880(3) 0.6992(3) 0.1986(3)
C1_4 C 0.4957(5) 0.6993(5) 0.2027(5)
H1_4 H 0.4781 0.6793 0.1779
C2_4 C 0.6326(4) 0.7249(4) 0.2547(4)
C3_4 C 0.5510(6) 0.6959(5) 0.2067(6)
C4_4 C 0.4680(4) 0.7319(4) 0.2351(4)
C5_4 C 0.5753(4) 0.7261(4) 0.2474(4)
C6_4 C 0.4104(4) 0.7314(4) 0.2299(4)
C7_4 C 0.4920(4) 0.7615(5) 0.2746(5)
H2_4 H 0.4723 0.7825 0.2968
C8_4 C 0.5459(4) 0.7584(4) 0.2795(4)
H3_4 H 0.5627 0.7784 0.3049
N1_4 N 0.5795(5) 0.6676(7) 0.1743(6)
H4_4 H 0.6122 0.6716 0.1812
C9_4 C 0.6566(7) 0.6034(6) 0.1213(6)
H5_4 H 0.6634 0.6154 0.1550
C10_4 C 0.6928(8) 0.5732(7) 0.0953(8)
H6_4 H 0.7178 0.5571 0.1162
C11_4 C 0.6528(13) 0.5791(12) 0.0166(14)
C12_4 C 0.6104(10) 0.6156(16) 0.0971(11)
C13_4 C 0.5733(11) 0.6331(14) 0.1322(12)
C14_4 C 0.6142(14) 0.6072(13) 0.0427(12)
H8_4 H 0.5882 0.6220 0.0221
C15_4 C 0.6968(13) 0.5637(11) 0.0421(10)
H9_4 H 0.7258 0.5487 0.0260
O5_4 O 0.5244(8) 0.6363(14) 0.1125(11)
Zn1_4 Zn 0.81573(4) 0.68427(4) 0.31573(4)
Zn2_4 Zn 0.73476(4) 0.68651(3) 0.22086(4)
O6_4 O 0.77121(17) 0.72879(17) 0.27121(17)
O7_4 O 0.7225(3) 0.8395(2) 0.3003(3)
O8_4 O 0.7948(2) 0.8499(2) 0.2505(3)
C17_4 C 0.7547(4) 0.8674(4) 0.2751(4)
C18_4 C 0.7067(6) 0.9490(6) 0.3041(5)
C20_4 C 0.7474(4) 0.9247(4) 0.2739(4)
C23_4 C 0.7795(4) 0.9541(4) 0.2416(4)
H12_4 H 0.8049 0.9373 0.2216
N2_4 N 0.6743(6) 0.9205(5) 0.3324(7)
H13_4 H 0.6812 0.8878 0.3284
C24_4 C 0.6213(6) 0.8434(7) 0.3966(6)
H14_4 H 0.6550 0.8366 0.3846
C25_4 C 0.5953(8) 0.8072(8) 0.4268(7)
H15_4 H 0.6162 0.7822 0.4429
C26_4 C 0.5166(14) 0.8472(13) 0.4209(12)
H16_4 H 0.4815 0.8516 0.4291
C27_4 C 0.5971(11) 0.8896(10) 0.3844(16)
C28_4 C 0.6322(12) 0.9267(11) 0.3669(14)
C29_4 C 0.5427(12) 0.8858(14) 0.3928(13)
H17_4 H 0.5221 0.9118 0.3780
C30_4 C 0.5421(10) 0.8032(13) 0.4363(11)
H18_4 H 0.5260 0.7742 0.4513
O11_4 O 0.6125(11) 0.9756(8) 0.3637(14)
Zn3_4 Zn 0.72086(4) 0.76524(4) 0.31349(3)
O12_4 O 0.8003(3) 0.7775(3) 0.1605(2)
O13_4 O 0.7505(3) 0.7052(2) 0.1501(2)
C32_4 C 0.7751(4) 0.7453(4) 0.1326(4)
C33_4 C 0.8041(5) 0.7933(6) 0.0510(6)
C35_4 C 0.7739(4) 0.7526(4) 0.0753(4)
C38_4 C 0.7416(4) 0.7205(4) 0.0459(4)
H21_4 H 0.7216 0.6951 0.0627
N3_4 N 0.8324(7) 0.8257(6) 0.0795(5)
H22_4 H 0.8284 0.8188 0.1122
C39_4 C 0.8966(6) 0.8787(6) 0.1566(7)
H23_4 H 0.8846 0.8450 0.1634
C40_4 C 0.9268(7) 0.9047(8) 0.1928(8)
H24_4 H 0.9429 0.8838 0.2178
C41_4 C 0.9209(12) 0.9834(14) 0.1528(13)
C42_4 C 0.8844(16) 0.9029(11) 0.1104(10)
C43_4 C 0.8669(14) 0.8678(12) 0.0733(11)
C44_4 C 0.8928(13) 0.9573(12) 0.1142(14)
H26_4 H 0.8780 0.9779 0.0882
C45_4 C 0.9363(11) 0.9579(10) 0.1968(13)
H27_4 H 0.9513 0.9740 0.2258
O16_4 O 0.8637(14) 0.8875(11) 0.0244(8)
Zn4_4 Zn 0.81349(3) 0.77914(4) 0.23476(4)
O17_4 O 0.7300(3) 0.7575(3) 0.3869(2)
O18_4 O 0.7425(3) 0.6131(2) 0.2300(3)
O19_4 O 0.8869(2) 0.7700(3) 0.2425(3)
O20_4 O 0.8008(3) 0.6986(3) 0.3880(3)
O21_4 O 0.8014(3) 0.6120(3) 0.3008(3)
O22_4 O 0.8880(3) 0.6992(3) 0.3014(3)
Zn9_4 Zn 0.31349(3) 0.77914(4) 0.26524(4)
H7_4 H 0.6484 0.5709 0.9815
O14_4 O 0.7300(3) 0.7425(3) 0.8869(2)
O15_4 O 0.8008(3) 0.8014(3) 0.8880(3)
C31_4 C 0.8007(5) 0.7973(5) 0.9957(5)
H19_4 H 0.8207 0.8221 0.9781
C34_4 C 0.7681(4) 0.7649(4) 0.9680(4)
C36_4 C 0.7686(4) 0.7701(4) 0.9104(4)
C37_4 C 0.7385(5) 0.7254(5) 0.9920(4)
H20_4 H 0.7175 0.7032 0.9723
Zn8_4 Zn 0.72086(4) 0.73476(4) 0.81349(3)
O1_5 O 0.7225(3) 0.6605(2) 0.8003(3)
O2_5 O 0.7948(2) 0.6501(2) 0.7505(3)
C1_5 C 0.7027(5) 0.4957(5) 0.8007(5)
H1_5 H 0.6779 0.4781 0.8207
C2_5 C 0.7547(4) 0.6326(4) 0.7751(4)
C3_5 C 0.7067(6) 0.5510(6) 0.8041(5)
C4_5 C 0.7351(4) 0.4680(4) 0.7681(4)
C5_5 C 0.7474(4) 0.5753(4) 0.7739(4)
C6_5 C 0.7299(4) 0.4104(4) 0.7686(4)
C7_5 C 0.7746(5) 0.4920(4) 0.7385(5)
H2_5 H 0.7968 0.4723 0.7175
C8_5 C 0.7795(4) 0.5459(4) 0.7416(4)
H3_5 H 0.8049 0.5627 0.7216
N1_5 N 0.6743(6) 0.5795(5) 0.8324(7)
H4_5 H 0.6812 0.6122 0.8284
C9_5 C 0.6213(6) 0.6566(7) 0.8966(6)
H5_5 H 0.6550 0.6634 0.8846
C10_5 C 0.5953(8) 0.6928(8) 0.9268(7)
H6_5 H 0.6162 0.7178 0.9429
C11_5 C 0.5166(14) 0.6528(13) 0.9209(12)
H7_5 H 0.4815 0.6484 0.9291
C12_5 C 0.5971(11) 0.6104(10) 0.8844(16)
C13_5 C 0.6322(12) 0.5733(11) 0.8669(14)
C14_5 C 0.5427(12) 0.6142(14) 0.8928(13)
H8_5 H 0.5221 0.5882 0.8780
C15_5 C 0.5421(10) 0.6968(13) 0.9363(11)
H9_5 H 0.5260 0.7258 0.9513
O5_5 O 0.6125(11) 0.5244(8) 0.8637(14)
O6_5 O 0.77121(17) 0.77121(17) 0.77121(17)
O7_5 O 0.8003(3) 0.7225(3) 0.6605(2)
O8_5 O 0.7505(3) 0.7948(2) 0.6501(2)
C16_5 C 0.8007(5) 0.7027(5) 0.4957(5)
H10_5 H 0.8207 0.6779 0.4781
C17_5 C 0.7751(4) 0.7547(4) 0.6326(4)
C18_5 C 0.8041(5) 0.7067(6) 0.5510(6)
C19_5 C 0.7681(4) 0.7351(4) 0.4680(4)
C20_5 C 0.7739(4) 0.7474(4) 0.5753(4)
C21_5 C 0.7686(4) 0.7299(4) 0.4104(4)
C22_5 C 0.7385(5) 0.7746(5) 0.4920(4)
H11_5 H 0.7175 0.7968 0.4723
C23_5 C 0.7416(4) 0.7795(4) 0.5459(4)
H12_5 H 0.7216 0.8049 0.5627
N2_5 N 0.8324(7) 0.6743(6) 0.5795(5)
H13_5 H 0.8284 0.6812 0.6122
C24_5 C 0.8966(6) 0.6213(6) 0.6566(7)
H14_5 H 0.8846 0.6550 0.6634
C25_5 C 0.9268(7) 0.5953(8) 0.6928(8)
H15_5 H 0.9429 0.6162 0.7178
C26_5 C 0.9209(12) 0.5166(14) 0.6528(13)
H16_5 H 0.9291 0.4815 0.6484
C27_5 C 0.8844(16) 0.5971(11) 0.6104(10)
C28_5 C 0.8669(14) 0.6322(12) 0.5733(11)
C29_5 C 0.8928(13) 0.5427(12) 0.6142(14)
H17_5 H 0.8780 0.5221 0.5882
C30_5 C 0.9363(11) 0.5421(10) 0.6968(13)
H18_5 H 0.9513 0.5260 0.7258
O11_5 O 0.8637(14) 0.6125(11) 0.5244(8)
O12_5 O 0.6605(2) 0.8003(3) 0.7225(3)
O13_5 O 0.6501(2) 0.7505(3) 0.7948(2)
C31_5 C 0.4957(5) 0.8007(5) 0.7027(5)
H19_5 H 0.4781 0.8207 0.6779
C32_5 C 0.6326(4) 0.7751(4) 0.7547(4)
C33_5 C 0.5510(6) 0.8041(5) 0.7067(6)
C34_5 C 0.4680(4) 0.7681(4) 0.7351(4)
C35_5 C 0.5753(4) 0.7739(4) 0.7474(4)
C36_5 C 0.4104(4) 0.7686(4) 0.7299(4)
C37_5 C 0.4920(4) 0.7385(5) 0.7746(5)
H20_5 H 0.4723 0.7175 0.7968
C38_5 C 0.5459(4) 0.7416(4) 0.7795(4)
H21_5 H 0.5627 0.7216 0.8049
N3_5 N 0.5795(5) 0.8324(7) 0.6743(6)
H22_5 H 0.6122 0.8284 0.6812
C39_5 C 0.6566(7) 0.8966(6) 0.6213(6)
H23_5 H 0.6634 0.8846 0.6550
C40_5 C 0.6928(8) 0.9268(7) 0.5953(8)
H24_5 H 0.7178 0.9429 0.6162
C41_5 C 0.6528(13) 0.9209(12) 0.5166(14)
H25_5 H 0.6484 0.9291 0.4815
C42_5 C 0.6104(10) 0.8844(16) 0.5971(11)
C43_5 C 0.5733(11) 0.8669(14) 0.6322(12)
C44_5 C 0.6142(14) 0.8928(13) 0.5427(12)
H26_5 H 0.5882 0.8780 0.5221
C45_5 C 0.6968(13) 0.9363(11) 0.5421(10)
H27_5 H 0.7258 0.9513 0.5260
O16_5 O 0.5244(8) 0.8637(14) 0.6125(11)
C1_6 C 0.0043(5) 0.1993(5) 0.2027(5)
H1_6 H 0.0219 0.1793 0.1779
C4_6 C 0.0320(4) 0.2319(4) 0.2351(4)
C6_6 C 0.0896(4) 0.2314(4) 0.2299(4)
C7_6 C 0.0080(4) 0.2615(5) 0.2746(5)
H2_6 H 0.0277 0.2825 0.2968
H16_6 H 0.0185 0.3516 0.4291
O1_6 O 0.8395(2) 0.1997(3) 0.2225(3)
O2_6 O 0.8499(2) 0.2495(3) 0.2948(2)
C2_6 C 0.8674(4) 0.2249(4) 0.2547(4)
C3_6 C 0.9490(6) 0.1959(5) 0.2067(6)
C5_6 C 0.9247(4) 0.2261(4) 0.2474(4)
C8_6 C 0.9541(4) 0.2584(4) 0.2795(4)
H3_6 H 0.9373 0.2784 0.3049
N1_6 N 0.9205(5) 0.1676(7) 0.1743(6)
H4_6 H 0.8878 0.1716 0.1812
C9_6 C 0.8434(7) 0.1034(6) 0.1213(6)
H5_6 H 0.8366 0.1154 0.1550
C10_6 C 0.8072(8) 0.0732(7) 0.0953(8)
H6_6 H 0.7822 0.0571 0.1162
C11_6 C 0.8472(13) 0.0791(12) 0.0166(14)
C12_6 C 0.8896(10) 0.1156(16) 0.0971(11)
C13_6 C 0.9267(11) 0.1331(14) 0.1322(12)
C14_6 C 0.8858(14) 0.1072(13) 0.0427(12)
H8_6 H 0.9118 0.1220 0.0221
C15_6 C 0.8032(13) 0.0637(11) 0.0421(10)
H9_6 H 0.7742 0.0487 0.0260
O5_6 O 0.9756(8) 0.1363(14) 0.1125(11)
O6_6 O 0.72879(17) 0.22879(17) 0.27121(17)
O7_6 O 0.7775(3) 0.3395(2) 0.3003(3)
O8_6 O 0.7052(2) 0.3499(2) 0.2505(3)
C16_6 C 0.7973(5) 0.5043(5) 0.3007(5)
H10_6 H 0.8221 0.5219 0.3207
C17_6 C 0.7453(4) 0.3674(4) 0.2751(4)
C18_6 C 0.7933(6) 0.4490(6) 0.3041(5)
C19_6 C 0.7649(4) 0.5320(4) 0.2681(4)
C20_6 C 0.7526(4) 0.4247(4) 0.2739(4)
C21_6 C 0.7701(4) 0.5896(4) 0.2686(4)
C22_6 C 0.7254(5) 0.5080(4) 0.2385(5)
H11_6 H 0.7032 0.5277 0.2175
C23_6 C 0.7205(4) 0.4541(4) 0.2416(4)
H12_6 H 0.6951 0.4373 0.2216
N2_6 N 0.8257(6) 0.4205(5) 0.3324(7)
H13_6 H 0.8188 0.3878 0.3284
C24_6 C 0.8787(6) 0.3434(7) 0.3966(6)
H14_6 H 0.8450 0.3366 0.3846
C25_6 C 0.9047(8) 0.3072(8) 0.4268(7)
H15_6 H 0.8838 0.2822 0.4429
C26_6 C 0.9834(14) 0.3472(13) 0.4209(12)
C27_6 C 0.9029(11) 0.3896(10) 0.3844(16)
C28_6 C 0.8678(12) 0.4267(11) 0.3669(14)
C29_6 C 0.9573(12) 0.3858(14) 0.3928(13)
H17_6 H 0.9779 0.4118 0.3780
C30_6 C 0.9579(10) 0.3032(13) 0.4363(11)
H18_6 H 0.9740 0.2742 0.4513
O11_6 O 0.8875(11) 0.4756(8) 0.3637(14)
O12_6 O 0.6997(3) 0.2775(3) 0.1605(2)
O13_6 O 0.7495(3) 0.2052(2) 0.1501(2)
C32_6 C 0.7249(4) 0.2453(4) 0.1326(4)
C33_6 C 0.6959(5) 0.2933(6) 0.0510(6)
C35_6 C 0.7261(4) 0.2526(4) 0.0753(4)
C38_6 C 0.7584(4) 0.2205(4) 0.0459(4)
H21_6 H 0.7784 0.1951 0.0627
N3_6 N 0.6676(7) 0.3257(6) 0.0795(5)
H22_6 H 0.6716 0.3188 0.1122
C39_6 C 0.6034(6) 0.3787(6) 0.1566(7)
H23_6 H 0.6154 0.3450 0.1634
C40_6 C 0.5732(7) 0.4047(8) 0.1928(8)
H24_6 H 0.5571 0.3838 0.2178
C41_6 C 0.5791(12) 0.4834(14) 0.1528(13)
H25_6 H 0.5709 0.5185 0.1484
C42_6 C 0.6156(16) 0.4029(11) 0.1104(10)
C43_6 C 0.6331(14) 0.3678(12) 0.0733(11)
C44_6 C 0.6072(13) 0.4573(12) 0.1142(14)
H26_6 H 0.6220 0.4779 0.0882
C45_6 C 0.5637(11) 0.4579(10) 0.1968(13)
H27_6 H 0.5487 0.4740 0.2258
O16_6 O 0.6363(14) 0.3875(11) 0.0244(8)
H7_6 H 0.8516 0.0709 0.9815
C31_6 C 0.6993(5) 0.2973(5) 0.9957(5)
H19_6 H 0.6793 0.3221 0.9781
C34_6 C 0.7319(4) 0.2649(4) 0.9680(4)
C36_6 C 0.7314(4) 0.2701(4) 0.9104(4)
C37_6 C 0.7615(5) 0.2254(5) 0.9920(4)
H20_6 H 0.7825 0.2032 0.9723
H7_7 H 0.4291 0.0185 0.3516
C31_7 C 0.2027(5) 0.0043(5) 0.1993(5)
H19_7 H 0.1779 0.0219 0.1793
C34_7 C 0.2351(4) 0.0320(4) 0.2319(4)
C36_7 C 0.2299(4) 0.0896(4) 0.2314(4)
C37_7 C 0.2746(5) 0.0080(4) 0.2615(5)
H20_7 H 0.2968 0.0277 0.2825
O1_7 O 0.3003(3) 0.7775(3) 0.3395(2)
O2_7 O 0.2505(3) 0.7052(2) 0.3499(2)
C1_7 C 0.3007(5) 0.7973(5) 0.5043(5)
H1_7 H 0.3207 0.8221 0.5219
C2_7 C 0.2751(4) 0.7453(4) 0.3674(4)
C3_7 C 0.3041(5) 0.7933(6) 0.4490(6)
C4_7 C 0.2681(4) 0.7649(4) 0.5320(4)
C5_7 C 0.2739(4) 0.7526(4) 0.4247(4)
C6_7 C 0.2686(4) 0.7701(4) 0.5896(4)
C7_7 C 0.2385(5) 0.7254(5) 0.5080(4)
H2_7 H 0.2175 0.7032 0.5277
C8_7 C 0.2416(4) 0.7205(4) 0.4541(4)
H3_7 H 0.2216 0.6951 0.4373
N1_7 N 0.3324(7) 0.8257(6) 0.4205(5)
H4_7 H 0.3284 0.8188 0.3878
C9_7 C 0.3966(6) 0.8787(6) 0.3434(7)
H5_7 H 0.3846 0.8450 0.3366
C10_7 C 0.4268(7) 0.9047(8) 0.3072(8)
H6_7 H 0.4429 0.8838 0.2822
C11_7 C 0.4209(12) 0.9834(14) 0.3472(13)
C12_7 C 0.3844(16) 0.9029(11) 0.3896(10)
C13_7 C 0.3669(14) 0.8678(12) 0.4267(11)
C14_7 C 0.3928(13) 0.9573(12) 0.3858(14)
H8_7 H 0.3780 0.9779 0.4118
C15_7 C 0.4363(11) 0.9579(10) 0.3032(13)
H9_7 H 0.4513 0.9740 0.2742
O5_7 O 0.3637(14) 0.8875(11) 0.4756(8)
O6_7 O 0.27121(17) 0.72879(17) 0.22879(17)
O7_7 O 0.1605(2) 0.6997(3) 0.2775(3)
O8_7 O 0.1501(2) 0.7495(3) 0.2052(2)
C17_7 C 0.1326(4) 0.7249(4) 0.2453(4)
C18_7 C 0.0510(6) 0.6959(5) 0.2933(6)
C20_7 C 0.0753(4) 0.7261(4) 0.2526(4)
C23_7 C 0.0459(4) 0.7584(4) 0.2205(4)
H12_7 H 0.0627 0.7784 0.1951
N2_7 N 0.0795(5) 0.6676(7) 0.3257(6)
H13_7 H 0.1122 0.6716 0.3188
C24_7 C 0.1566(7) 0.6034(6) 0.3787(6)
H14_7 H 0.1634 0.6154 0.3450
C25_7 C 0.1928(8) 0.5732(7) 0.4047(8)
H15_7 H 0.2178 0.5571 0.3838
C26_7 C 0.1528(13) 0.5791(12) 0.4834(14)
H16_7 H 0.1484 0.5709 0.5185
C27_7 C 0.1104(10) 0.6156(16) 0.4029(11)
C28_7 C 0.0733(11) 0.6331(14) 0.3678(12)
C29_7 C 0.1142(14) 0.6072(13) 0.4573(12)
H17_7 H 0.0882 0.6220 0.4779
C30_7 C 0.1968(13) 0.5637(11) 0.4579(10)
H18_7 H 0.2258 0.5487 0.4740
O11_7 O 0.0244(8) 0.6363(14) 0.3875(11)
O12_7 O 0.2225(3) 0.8395(2) 0.1997(3)
O13_7 O 0.2948(2) 0.8499(2) 0.2495(3)
C32_7 C 0.2547(4) 0.8674(4) 0.2249(4)
C33_7 C 0.2067(6) 0.9490(6) 0.1959(5)
C35_7 C 0.2474(4) 0.9247(4) 0.2261(4)
C38_7 C 0.2795(4) 0.9541(4) 0.2584(4)
H21_7 H 0.3049 0.9373 0.2784
N3_7 N 0.1743(6) 0.9205(5) 0.1676(7)
H22_7 H 0.1812 0.8878 0.1716
C39_7 C 0.1213(6) 0.8434(7) 0.1034(6)
H23_7 H 0.1550 0.8366 0.1154
C40_7 C 0.0953(8) 0.8072(8) 0.0732(7)
H24_7 H 0.1162 0.7822 0.0571
C41_7 C 0.0166(14) 0.8472(13) 0.0791(12)
C42_7 C 0.0971(11) 0.8896(10) 0.1156(16)
C43_7 C 0.1322(12) 0.9267(11) 0.1331(14)
C44_7 C 0.0427(12) 0.8858(14) 0.1072(13)
H26_7 H 0.0221 0.9118 0.1220
C45_7 C 0.0421(10) 0.8032(13) 0.0637(11)
H27_7 H 0.0260 0.7742 0.0487
O16_7 O 0.1125(11) 0.9756(8) 0.1363(14)
C16_7 C 0.9957(5) 0.6993(5) 0.2973(5)
H10_7 H 0.9781 0.6793 0.3221
C19_7 C 0.9680(4) 0.7319(4) 0.2649(4)
C21_7 C 0.9104(4) 0.7314(4) 0.2701(4)
C22_7 C 0.9920(4) 0.7615(5) 0.2254(5)
H11_7 H 0.9723 0.7825 0.2032
H25_7 H 0.9815 0.8516 0.0709
H7_8 H 0.3516 0.4291 0.0185
C31_8 C 0.1993(5) 0.2027(5) 0.0043(5)
H19_8 H 0.1793 0.1779 0.0219
C34_8 C 0.2319(4) 0.2351(4) 0.0320(4)
C36_8 C 0.2314(4) 0.2299(4) 0.0896(4)
C37_8 C 0.2615(5) 0.2746(5) 0.0080(4)
H20_8 H 0.2825 0.2968 0.0277
O1_8 O 0.3395(2) 0.3003(3) 0.7775(3)
O2_8 O 0.3499(2) 0.2505(3) 0.7052(2)
C1_8 C 0.5043(5) 0.3007(5) 0.7973(5)
H1_8 H 0.5219 0.3207 0.8221
C2_8 C 0.3674(4) 0.2751(4) 0.7453(4)
C3_8 C 0.4490(6) 0.3041(5) 0.7933(6)
C4_8 C 0.5320(4) 0.2681(4) 0.7649(4)
C5_8 C 0.4247(4) 0.2739(4) 0.7526(4)
C6_8 C 0.5896(4) 0.2686(4) 0.7701(4)
C7_8 C 0.5080(4) 0.2385(5) 0.7254(5)
H2_8 H 0.5277 0.2175 0.7032
C8_8 C 0.4541(4) 0.2416(4) 0.7205(4)
H3_8 H 0.4373 0.2216 0.6951
N1_8 N 0.4205(5) 0.3324(7) 0.8257(6)
H4_8 H 0.3878 0.3284 0.8188
C9_8 C 0.3434(7) 0.3966(6) 0.8787(6)
H5_8 H 0.3366 0.3846 0.8450
C10_8 C 0.3072(8) 0.4268(7) 0.9047(8)
H6_8 H 0.2822 0.4429 0.8838
C11_8 C 0.3472(13) 0.4209(12) 0.9834(14)
C12_8 C 0.3896(10) 0.3844(16) 0.9029(11)
C13_8 C 0.4267(11) 0.3669(14) 0.8678(12)
C14_8 C 0.3858(14) 0.3928(13) 0.9573(12)
H8_8 H 0.4118 0.3780 0.9779
C15_8 C 0.3032(13) 0.4363(11) 0.9579(10)
H9_8 H 0.2742 0.4513 0.9740
O5_8 O 0.4756(8) 0.3637(14) 0.8875(11)
O6_8 O 0.22879(17) 0.27121(17) 0.72879(17)
O7_8 O 0.2775(3) 0.1605(2) 0.6997(3)
O8_8 O 0.2052(2) 0.1501(2) 0.7495(3)
C17_8 C 0.2453(4) 0.1326(4) 0.7249(4)
C18_8 C 0.2933(6) 0.0510(6) 0.6959(5)
C20_8 C 0.2526(4) 0.0753(4) 0.7261(4)
C23_8 C 0.2205(4) 0.0459(4) 0.7584(4)
H12_8 H 0.1951 0.0627 0.7784
N2_8 N 0.3257(6) 0.0795(5) 0.6676(7)
H13_8 H 0.3188 0.1122 0.6716
C24_8 C 0.3787(6) 0.1566(7) 0.6034(6)
H14_8 H 0.3450 0.1634 0.6154
C25_8 C 0.4047(8) 0.1928(8) 0.5732(7)
H15_8 H 0.3838 0.2178 0.5571
C26_8 C 0.4834(14) 0.1528(13) 0.5791(12)
H16_8 H 0.5185 0.1484 0.5709
C27_8 C 0.4029(11) 0.1104(10) 0.6156(16)
C28_8 C 0.3678(12) 0.0733(11) 0.6331(14)
C29_8 C 0.4573(12) 0.1142(14) 0.6072(13)
H17_8 H 0.4779 0.0882 0.6220
C30_8 C 0.4579(10) 0.1968(13) 0.5637(11)
H18_8 H 0.4740 0.2258 0.5487
O11_8 O 0.3875(11) 0.0244(8) 0.6363(14)
O12_8 O 0.1997(3) 0.2225(3) 0.8395(2)
O13_8 O 0.2495(3) 0.2948(2) 0.8499(2)
C32_8 C 0.2249(4) 0.2547(4) 0.8674(4)
C33_8 C 0.1959(5) 0.2067(6) 0.9490(6)
C35_8 C 0.2261(4) 0.2474(4) 0.9247(4)
C38_8 C 0.2584(4) 0.2795(4) 0.9541(4)
H21_8 H 0.2784 0.3049 0.9373
N3_8 N 0.1676(7) 0.1743(6) 0.9205(5)
H22_8 H 0.1716 0.1812 0.8878
C39_8 C 0.1034(6) 0.1213(6) 0.8434(7)
H23_8 H 0.1154 0.1550 0.8366
C40_8 C 0.0732(7) 0.0953(8) 0.8072(8)
H24_8 H 0.0571 0.1162 0.7822
C41_8 C 0.0791(12) 0.0166(14) 0.8472(13)
C42_8 C 0.1156(16) 0.0971(11) 0.8896(10)
C43_8 C 0.1331(14) 0.1322(12) 0.9267(11)
C44_8 C 0.1072(13) 0.0427(12) 0.8858(14)
H26_8 H 0.1220 0.0221 0.9118
C45_8 C 0.0637(11) 0.0421(10) 0.8032(13)
H27_8 H 0.0487 0.0260 0.7742
O16_8 O 0.1363(14) 0.1125(11) 0.9756(8)
C16_8 C 0.2973(5) 0.9957(5) 0.6993(5)
H10_8 H 0.3221 0.9781 0.6793
C19_8 C 0.2649(4) 0.9680(4) 0.7319(4)
C21_8 C 0.2701(4) 0.9104(4) 0.7314(4)
C22_8 C 0.2254(5) 0.9920(4) 0.7615(5)
H11_8 H 0.2032 0.9723 0.7825
H25_8 H 0.0709 0.9815 0.8516
loop_
_geom_bond_atom_site_label_1
_geom_bond_atom_site_label_2
_geom_bond_site_symmetry_1
_geom_bond_site_symmetry_2
O1 C2 1_555 1_555
O2 C2 1_555 1_555
O3 C6 1_555 1_555
O4 C6 1_555 1_555
C1 H1 1_555 1_555
C2 C5 1_555 1_555
C3 C1 1_555 1_555
C4 C1 1_555 1_555
C5 C3 1_555 1_555
C6 C4 1_555 1_555
C7 C4 1_555 1_555
H2 C7 1_555 1_555
C8 C5 1_555 1_555
H3 C8 1_555 1_555
N1 C3 1_555 1_555
H4 N1 1_555 1_555
C9 H5 1_555 1_555
C10 C9 1_555 1_555
H6 C10 1_555 1_555
C11 H7 1_555 1_555
C12 C9 1_555 1_555
C13 N1 1_555 1_555
C14 C11 1_555 1_555
H8 C14 1_555 1_555
C15 C10 1_555 1_555
H9 C15 1_555 1_555
O5 C13 1_555 1_555
Zn1 O6 1_555 1_555
Zn2 O1 1_555 1_555
O6 Zn2 1_555 1_555
O7 C17 1_555 1_555
O8 C17 1_555 1_555
O9 C21 1_555 1_555
O10 C21 1_555 1_555
C16 H10 1_555 1_555
C17 C20 1_555 1_555
C18 C16 1_555 1_555
C19 C16 1_555 1_555
C20 C18 1_555 1_555
C21 C19 1_555 1_555
C22 C19 1_555 1_555
H11 C22 1_555 1_555
C23 C20 1_555 1_555
H12 C23 1_555 1_555
N2 C18 1_555 1_555
H13 N2 1_555 1_555
C24 H14 1_555 1_555
C25 C24 1_555 1_555
H15 C25 1_555 1_555
C26 H16 1_555 1_555
C27 C24 1_555 1_555
C28 N2 1_555 1_555
C29 C26 1_555 1_555
H17 C29 1_555 1_555
C30 C25 1_555 1_555
H18 C30 1_555 1_555
O11 C28 1_555 1_555
Zn3 O2 1_555 1_555
O12 C32 1_555 1_555
O13 Zn2 1_555 1_555
O14 C36 1_555 1_555
O15 C36 1_555 1_555
C31 H19 1_555 1_555
C32 O13 1_555 1_555
C33 C31 1_555 1_555
C34 C31 1_555 1_555
C35 C32 1_555 1_555
C36 C34 1_555 1_555
C37 C34 1_555 1_555
H20 C37 1_555 1_555
C38 C35 1_555 1_555
H21 C38 1_555 1_555
N3 C33 1_555 1_555
H22 N3 1_555 1_555
C39 H23 1_555 1_555
C40 C39 1_555 1_555
H24 C40 1_555 1_555
C41 H25 1_555 1_555
C42 C39 1_555 1_555
C43 N3 1_555 1_555
C44 C41 1_555 1_555
H26 C44 1_555 1_555
C45 C40 1_555 1_555
H27 C45 1_555 1_555
O16 C43 1_555 1_555
Zn4 O6 1_555 1_555
O17 Zn3 1_555 1_555
O18 Zn2 1_555 1_555
O19 Zn4 1_555 1_555
O20 Zn1 1_555 1_555
O21 Zn1 1_555 1_555
O22 Zn1 1_555 1_555
Zn5 O15 1_555 1_555
Zn6 O4 1_555 1_555
Zn7 O10 1_555 1_555
Zn8 O14 1_555 1_555
Zn9 O3 1_555 1_555
Zn10 O9 1_555 1_555
C7 C8 1_555 1_555
C11 C15 1_555 1_555
C12 C13 1_555 1_555
C12 C14 1_555 1_555
O6 Zn3 1_555 1_555
O7 Zn3 1_555 1_555
O8 Zn4 1_555 1_555
C22 C23 1_555 1_555
C26 C30 1_555 1_555
C27 C28 1_555 1_555
C27 C29 1_555 1_555
O12 Zn4 1_555 1_555
C33 C35 1_555 1_555
C37 C38 1_555 1_555
C41 C45 1_555 1_555
C42 C43 1_555 1_555
C42 C44 1_555 1_555
O14_2 C36_2 1_555 1_555
O15_2 C36_2 1_555 1_555
C31_2 H19_2 1_555 1_555
C34_2 C31_2 1_555 1_555
C36_2 C34_2 1_555 1_555
C37_2 C34_2 1_555 1_555
H20_2 C37_2 1_555 1_555
Zn6 O15_2 1_555 1_555
Zn8_2 O14_2 1_555 1_555
O1_2 C2_2 1_555 1_555
O2_2 C2_2 1_555 1_555
C2_2 C5_2 1_555 1_555
C5_2 C3_2 1_555 1_555
C8_2 C5_2 1_555 1_555
H3_2 C8_2 1_555 1_555
N1_2 C3_2 1_555 1_555
H4_2 N1_2 1_555 1_555
C9_2 H5_2 1_555 1_555
C10_2 C9_2 1_555 1_555
H6_2 C10_2 1_555 1_555
C12_2 C9_2 1_555 1_555
C13_2 N1_2 1_555 1_555
C14_2 C11_2 1_555 1_555
H8_2 C14_2 1_555 1_555
C15_2 C10_2 1_555 1_555
H9_2 C15_2 1_555 1_555
O5_2 C13_2 1_555 1_555
Zn1_2 O6_2 1_555 1_555
Zn2_2 O1_2 1_555 1_555
O6_2 Zn2_2 1_555 1_555
O7_2 C17_2 1_555 1_555
O8_2 C17_2 1_555 1_555
O9_2 C21_2 1_555 1_555
O10_2 C21_2 1_555 1_555
C16_2 H10_2 1_555 1_555
C17_2 C20_2 1_555 1_555
C18_2 C16_2 1_555 1_555
C19_2 C16_2 1_555 1_555
C20_2 C18_2 1_555 1_555
C21_2 C19_2 1_555 1_555
C22_2 C19_2 1_555 1_555
H11_2 C22_2 1_555 1_555
C23_2 C20_2 1_555 1_555
H12_2 C23_2 1_555 1_555
N2_2 C18_2 1_555 1_555
H13_2 N2_2 1_555 1_555
C24_2 H14_2 1_555 1_555
C25_2 C24_2 1_555 1_555
H15_2 C25_2 1_555 1_555
C27_2 C24_2 1_555 1_555
C28_2 N2_2 1_555 1_555
C29_2 C26_2 1_555 1_555
H17_2 C29_2 1_555 1_555
C30_2 C25_2 1_555 1_555
H18_2 C30_2 1_555 1_555
O11_2 C28_2 1_555 1_555
Zn3_2 O2_2 1_555 1_555
O12_2 C32_2 1_555 1_555
O13_2 Zn2_2 1_555 1_555
C32_2 O13_2 1_555 1_555
C35_2 C32_2 1_555 1_555
C38_2 C35_2 1_555 1_555
H21_2 C38_2 1_555 1_555
N3_2 C33_2 1_555 1_555
H22_2 N3_2 1_555 1_555
C39_2 H23_2 1_555 1_555
C40_2 C39_2 1_555 1_555
H24_2 C40_2 1_555 1_555
C41_2 H25_2 1_555 1_555
C42_2 C39_2 1_555 1_555
C43_2 N3_2 1_555 1_555
C44_2 C41_2 1_555 1_555
H26_2 C44_2 1_555 1_555
C45_2 C40_2 1_555 1_555
H27_2 C45_2 1_555 1_555
O16_2 C43_2 1_555 1_555
Zn4_2 O6_2 1_555 1_555
O17_2 Zn3_2 1_555 1_555
O18_2 Zn2_2 1_555 1_555
O19_2 Zn4_2 1_555 1_555
O20_2 Zn1_2 1_555 1_555
O21_2 Zn1_2 1_555 1_555
O22_2 Zn1_2 1_555 1_555
Zn7 O10_2 1_555 1_555
Zn10_2 O9_2 1_555 1_555
C11_2 C15_2 1_555 1_555
C12_2 C13_2 1_555 1_555
C12_2 C14_2 1_555 1_555
O6_2 Zn3_2 1_555 1_555
O7_2 Zn3_2 1_555 1_555
O8_2 Zn4_2 1_555 1_555
C22_2 C23_2 1_555 1_555
C26_2 C30_2 1_555 1_555
C27_2 C28_2 1_555 1_555
C27_2 C29_2 1_555 1_555
O12_2 Zn4_2 1_555 1_555
C33_2 C35_2 1_555 1_555
C41_2 C45_2 1_555 1_555
C42_2 C43_2 1_555 1_555
C42_2 C44_2 1_555 1_555
O3_2 C6_2 1_555 1_555
O4_2 C6_2 1_555 1_555
C1_2 H1_2 1_555 1_555
C4_2 C1_2 1_555 1_555
C6_2 C4_2 1_555 1_555
C7_2 C4_2 1_555 1_555
H2_2 C7_2 1_555 1_555
Zn6_2 O4_2 1_555 1_555
Zn9_2 O3_2 1_555 1_555
O9_3 C21_3 1_555 1_555
O10_3 C21_3 1_555 1_555
C16_3 H10_3 1_555 1_555
C19_3 C16_3 1_555 1_555
C21_3 C19_3 1_555 1_555
C22_3 C19_3 1_555 1_555
H11_3 C22_3 1_555 1_555
Zn7 O10_3 1_555 1_555
Zn10_3 O9_3 1_555 1_555
O1_3 C2_3 1_555 1_555
O2_3 C2_3 1_555 1_555
O3_3 C6_3 1_555 1_555
O4_3 C6_3 1_555 1_555
C1_3 H1_3 1_555 1_555
C2_3 C5_3 1_555 1_555
C3_3 C1_3 1_555 1_555
C4_3 C1_3 1_555 1_555
C5_3 C3_3 1_555 1_555
C6_3 C4_3 1_555 1_555
C7_3 C4_3 1_555 1_555
H2_3 C7_3 1_555 1_555
C8_3 C5_3 1_555 1_555
H3_3 C8_3 1_555 1_555
N1_3 C3_3 1_555 1_555
H4_3 N1_3 1_555 1_555
C9_3 H5_3 1_555 1_555
C10_3 C9_3 1_555 1_555
H6_3 C10_3 1_555 1_555
C12_3 C9_3 1_555 1_555
C13_3 N1_3 1_555 1_555
C14_3 C11_3 1_555 1_555
H8_3 C14_3 1_555 1_555
C15_3 C10_3 1_555 1_555
H9_3 C15_3 1_555 1_555
O5_3 C13_3 1_555 1_555
Zn1_3 O6_3 1_555 1_555
Zn2_3 O1_3 1_555 1_555
O6_3 Zn2_3 1_555 1_555
O7_3 C17_3 1_555 1_555
O8_3 C17_3 1_555 1_555
C17_3 C20_3 1_555 1_555
C20_3 C18_3 1_555 1_555
C23_3 C20_3 1_555 1_555
H12_3 C23_3 1_555 1_555
N2_3 C18_3 1_555 1_555
H13_3 N2_3 1_555 1_555
C24_3 H14_3 1_555 1_555
C25_3 C24_3 1_555 1_555
H15_3 C25_3 1_555 1_555
C26_3 H16_3 1_555 1_555
C27_3 C24_3 1_555 1_555
C28_3 N2_3 1_555 1_555
C29_3 C26_3 1_555 1_555
H17_3 C29_3 1_555 1_555
C30_3 C25_3 1_555 1_555
H18_3 C30_3 1_555 1_555
O11_3 C28_3 1_555 1_555
Zn3_3 O2_3 1_555 1_555
O12_3 C32_3 1_555 1_555
O13_3 Zn2_3 1_555 1_555
C32_3 O13_3 1_555 1_555
C35_3 C32_3 1_555 1_555
C38_3 C35_3 1_555 1_555
H21_3 C38_3 1_555 1_555
N3_3 C33_3 1_555 1_555
H22_3 N3_3 1_555 1_555
C39_3 H23_3 1_555 1_555
C40_3 C39_3 1_555 1_555
H24_3 C40_3 1_555 1_555
C42_3 C39_3 1_555 1_555
C43_3 N3_3 1_555 1_555
C44_3 C41_3 1_555 1_555
H26_3 C44_3 1_555 1_555
C45_3 C40_3 1_555 1_555
H27_3 C45_3 1_555 1_555
O16_3 C43_3 1_555 1_555
Zn4_3 O6_3 1_555 1_555
O17_3 Zn3_3 1_555 1_555
O18_3 Zn2_3 1_555 1_555
O19_3 Zn4_3 1_555 1_555
O20_3 Zn1_3 1_555 1_555
O21_3 Zn1_3 1_555 1_555
O22_3 Zn1_3 1_555 1_555
Zn5 O4_3 1_555 1_555
Zn9_3 O3_3 1_555 1_555
C7_3 C8_3 1_555 1_555
C11_3 C15_3 1_555 1_555
C12_3 C13_3 1_555 1_555
C12_3 C14_3 1_555 1_555
O6_3 Zn3_3 1_555 1_555
O7_3 Zn3_3 1_555 1_555
O8_3 Zn4_3 1_555 1_555
C26_3 C30_3 1_555 1_555
C27_3 C28_3 1_555 1_555
C27_3 C29_3 1_555 1_555
O12_3 Zn4_3 1_555 1_555
C33_3 C35_3 1_555 1_555
C41_3 C45_3 1_555 1_555
C42_3 C43_3 1_555 1_555
C42_3 C44_3 1_555 1_555
O14_3 C36_3 1_555 1_555
O15_3 C36_3 1_555 1_555
C31_3 H19_3 1_555 1_555
C34_3 C31_3 1_555 1_555
C36_3 C34_3 1_555 1_555
C37_3 C34_3 1_555 1_555
H20_3 C37_3 1_555 1_555
Zn6_2 O15_3 1_555 1_555
Zn8_3 O14_3 1_555 1_555
O9_4 C21_4 1_555 1_555
O10_4 C21_4 1_555 1_555
C16_4 H10_4 1_555 1_555
C19_4 C16_4 1_555 1_555
C21_4 C19_4 1_555 1_555
C22_4 C19_4 1_555 1_555
H11_4 C22_4 1_555 1_555
Zn5 O10_4 1_555 1_555
Zn10_4 O9_4 1_555 1_555
O1_4 C2_4 1_555 1_555
O2_4 C2_4 1_555 1_555
O3_4 C6_4 1_555 1_555
O4_4 C6_4 1_555 1_555
C1_4 H1_4 1_555 1_555
C2_4 C5_4 1_555 1_555
C3_4 C1_4 1_555 1_555
C4_4 C1_4 1_555 1_555
C5_4 C3_4 1_555 1_555
C6_4 C4_4 1_555 1_555
C7_4 C4_4 1_555 1_555
H2_4 C7_4 1_555 1_555
C8_4 C5_4 1_555 1_555
H3_4 C8_4 1_555 1_555
N1_4 C3_4 1_555 1_555
H4_4 N1_4 1_555 1_555
C9_4 H5_4 1_555 1_555
C10_4 C9_4 1_555 1_555
H6_4 C10_4 1_555 1_555
C12_4 C9_4 1_555 1_555
C13_4 N1_4 1_555 1_555
C14_4 C11_4 1_555 1_555
H8_4 C14_4 1_555 1_555
C15_4 C10_4 1_555 1_555
H9_4 C15_4 1_555 1_555
O5_4 C13_4 1_555 1_555
Zn1_4 O6_4 1_555 1_555
Zn2_4 O1_4 1_555 1_555
O6_4 Zn2_4 1_555 1_555
O7_4 C17_4 1_555 1_555
O8_4 C17_4 1_555 1_555
C17_4 C20_4 1_555 1_555
C20_4 C18_4 1_555 1_555
C23_4 C20_4 1_555 1_555
H12_4 C23_4 1_555 1_555
N2_4 C18_4 1_555 1_555
H13_4 N2_4 1_555 1_555
C24_4 H14_4 1_555 1_555
C25_4 C24_4 1_555 1_555
H15_4 C25_4 1_555 1_555
C26_4 H16_4 1_555 1_555
C27_4 C24_4 1_555 1_555
C28_4 N2_4 1_555 1_555
C29_4 C26_4 1_555 1_555
H17_4 C29_4 1_555 1_555
C30_4 C25_4 1_555 1_555
H18_4 C30_4 1_555 1_555
O11_4 C28_4 1_555 1_555
Zn3_4 O2_4 1_555 1_555
O12_4 C32_4 1_555 1_555
O13_4 Zn2_4 1_555 1_555
C32_4 O13_4 1_555 1_555
C35_4 C32_4 1_555 1_555
C38_4 C35_4 1_555 1_555
H21_4 C38_4 1_555 1_555
N3_4 C33_4 1_555 1_555
H22_4 N3_4 1_555 1_555
C39_4 H23_4 1_555 1_555
C40_4 C39_4 1_555 1_555
H24_4 C40_4 1_555 1_555
C42_4 C39_4 1_555 1_555
C43_4 N3_4 1_555 1_555
C44_4 C41_4 1_555 1_555
H26_4 C44_4 1_555 1_555
C45_4 C40_4 1_555 1_555
H27_4 C45_4 1_555 1_555
O16_4 C43_4 1_555 1_555
Zn4_4 O6_4 1_555 1_555
O17_4 Zn3_4 1_555 1_555
O18_4 Zn2_4 1_555 1_555
O19_4 Zn4_4 1_555 1_555
O20_4 Zn1_4 1_555 1_555
O21_4 Zn1_4 1_555 1_555
O22_4 Zn1_4 1_555 1_555
Zn6 O4_4 1_555 1_555
Zn9_4 O3_4 1_555 1_555
C7_4 C8_4 1_555 1_555
C11_4 C15_4 1_555 1_555
C12_4 C13_4 1_555 1_555
C12_4 C14_4 1_555 1_555
O6_4 Zn3_4 1_555 1_555
O7_4 Zn3_4 1_555 1_555
O8_4 Zn4_4 1_555 1_555
C26_4 C30_4 1_555 1_555
C27_4 C28_4 1_555 1_555
C27_4 C29_4 1_555 1_555
O12_4 Zn4_4 1_555 1_555
C33_4 C35_4 1_555 1_555
C41_4 C45_4 1_555 1_555
C42_4 C43_4 1_555 1_555
C42_4 C44_4 1_555 1_555
O14_4 C36_4 1_555 1_555
O15_4 C36_4 1_555 1_555
C31_4 H19_4 1_555 1_555
C34_4 C31_4 1_555 1_555
C36_4 C34_4 1_555 1_555
C37_4 C34_4 1_555 1_555
H20_4 C37_4 1_555 1_555
Zn6_2 O15_4 1_555 1_555
Zn8_4 O14_4 1_555 1_555
O1_5 C2_5 1_555 1_555
O2_5 C2_5 1_555 1_555
O17_3 C6_5 1_555 1_555
O20_3 C6_5 1_555 1_555
C1_5 H1_5 1_555 1_555
C2_5 C5_5 1_555 1_555
C3_5 C1_5 1_555 1_555
C4_5 C1_5 1_555 1_555
C5_5 C3_5 1_555 1_555
C6_5 C4_5 1_555 1_555
C7_5 C4_5 1_555 1_555
H2_5 C7_5 1_555 1_555
C8_5 C5_5 1_555 1_555
H3_5 C8_5 1_555 1_555
N1_5 C3_5 1_555 1_555
H4_5 N1_5 1_555 1_555
C9_5 H5_5 1_555 1_555
C10_5 C9_5 1_555 1_555
H6_5 C10_5 1_555 1_555
C11_5 H7_5 1_555 1_555
C12_5 C9_5 1_555 1_555
C13_5 N1_5 1_555 1_555
C14_5 C11_5 1_555 1_555
H8_5 C14_5 1_555 1_555
C15_5 C10_5 1_555 1_555
H9_5 C15_5 1_555 1_555
O5_5 C13_5 1_555 1_555
Zn6_2 O6_5 1_555 1_555
Zn8_4 O1_5 1_555 1_555
O6_5 Zn8_4 1_555 1_555
O7_5 C17_5 1_555 1_555
O8_5 C17_5 1_555 1_555
O17_4 C21_5 1_555 1_555
O20_4 C21_5 1_555 1_555
C16_5 H10_5 1_555 1_555
C17_5 C20_5 1_555 1_555
C18_5 C16_5 1_555 1_555
C19_5 C16_5 1_555 1_555
C20_5 C18_5 1_555 1_555
C21_5 C19_5 1_555 1_555
C22_5 C19_5 1_555 1_555
H11_5 C22_5 1_555 1_555
C23_5 C20_5 1_555 1_555
H12_5 C23_5 1_555 1_555
N2_5 C18_5 1_555 1_555
H13_5 N2_5 1_555 1_555
C24_5 H14_5 1_555 1_555
C25_5 C24_5 1_555 1_555
H15_5 C25_5 1_555 1_555
C26_5 H16_5 1_555 1_555
C27_5 C24_5 1_555 1_555
C28_5 N2_5 1_555 1_555
C29_5 C26_5 1_555 1_555
H17_5 C29_5 1_555 1_555
C30_5 C25_5 1_555 1_555
H18_5 C30_5 1_555 1_555
O11_5 C28_5 1_555 1_555
Zn9_2 O2_5 1_555 1_555
O12_5 C32_5 1_555 1_555
O13_5 Zn8_4 1_555 1_555
O19_2 C36_5 1_555 1_555
O22_2 C36_5 1_555 1_555
C31_5 H19_5 1_555 1_555
C32_5 O13_5 1_555 1_555
C33_5 C31_5 1_555 1_555
C34_5 C31_5 1_555 1_555
C35_5 C32_5 1_555 1_555
C36_5 C34_5 1_555 1_555
C37_5 C34_5 1_555 1_555
H20_5 C37_5 1_555 1_555
C38_5 C35_5 1_555 1_555
H21_5 C38_5 1_555 1_555
N3_5 C33_5 1_555 1_555
H22_5 N3_5 1_555 1_555
C39_5 H23_5 1_555 1_555
C40_5 C39_5 1_555 1_555
H24_5 C40_5 1_555 1_555
C41_5 H25_5 1_555 1_555
C42_5 C39_5 1_555 1_555
C43_5 N3_5 1_555 1_555
C44_5 C41_5 1_555 1_555
H26_5 C44_5 1_555 1_555
C45_5 C40_5 1_555 1_555
H27_5 C45_5 1_555 1_555
O16_5 C43_5 1_555 1_555
Zn8_3 O6_5 1_555 1_555
C7_5 C8_5 1_555 1_555
C11_5 C15_5 1_555 1_555
C12_5 C13_5 1_555 1_555
C12_5 C14_5 1_555 1_555
O6_5 Zn9_2 1_555 1_555
O7_5 Zn9_2 1_555 1_555
O8_5 Zn8_3 1_555 1_555
C22_5 C23_5 1_555 1_555
C26_5 C30_5 1_555 1_555
C27_5 C28_5 1_555 1_555
C27_5 C29_5 1_555 1_555
O12_5 Zn8_3 1_555 1_555
C33_5 C35_5 1_555 1_555
C37_5 C38_5 1_555 1_555
C41_5 C45_5 1_555 1_555
C42_5 C43_5 1_555 1_555
C42_5 C44_5 1_555 1_555
O17 C6_6 1_555 1_555
O20 C6_6 1_555 1_555
C1_6 H1_6 1_555 1_555
C4_6 C1_6 1_555 1_555
C6_6 C4_6 1_555 1_555
C7_6 C4_6 1_555 1_555
H2_6 C7_6 1_555 1_555
O1_6 C2_6 1_555 1_555
O2_6 C2_6 1_555 1_555
C2_6 C5_6 1_555 1_555
C5_6 C3_6 1_555 1_555
C8_6 C5_6 1_555 1_555
H3_6 C8_6 1_555 1_555
N1_6 C3_6 1_555 1_555
H4_6 N1_6 1_555 1_555
C9_6 H5_6 1_555 1_555
C10_6 C9_6 1_555 1_555
H6_6 C10_6 1_555 1_555
C12_6 C9_6 1_555 1_555
C13_6 N1_6 1_555 1_555
C14_6 C11_6 1_555 1_555
H8_6 C14_6 1_555 1_555
C15_6 C10_6 1_555 1_555
H9_6 C15_6 1_555 1_555
O5_6 C13_6 1_555 1_555
Zn5 O6_6 1_555 1_555
Zn10_4 O1_6 1_555 1_555
O6_6 Zn10_4 1_555 1_555
O7_6 C17_6 1_555 1_555
O8_6 C17_6 1_555 1_555
O18_4 C21_6 1_555 1_555
O21_4 C21_6 1_555 1_555
C16_6 H10_6 1_555 1_555
C17_6 C20_6 1_555 1_555
C18_6 C16_6 1_555 1_555
C19_6 C16_6 1_555 1_555
C20_6 C18_6 1_555 1_555
C21_6 C19_6 1_555 1_555
C22_6 C19_6 1_555 1_555
H11_6 C22_6 1_555 1_555
C23_6 C20_6 1_555 1_555
H12_6 C23_6 1_555 1_555
N2_6 C18_6 1_555 1_555
H13_6 N2_6 1_555 1_555
C24_6 H14_6 1_555 1_555
C25_6 C24_6 1_555 1_555
H15_6 C25_6 1_555 1_555
C27_6 C24_6 1_555 1_555
C28_6 N2_6 1_555 1_555
C29_6 C26_6 1_555 1_555
H17_6 C29_6 1_555 1_555
C30_6 C25_6 1_555 1_555
H18_6 C30_6 1_555 1_555
O11_6 C28_6 1_555 1_555
Zn9_3 O2_6 1_555 1_555
O12_6 C32_6 1_555 1_555
O13_6 Zn10_4 1_555 1_555
C32_6 O13_6 1_555 1_555
C35_6 C32_6 1_555 1_555
C38_6 C35_6 1_555 1_555
H21_6 C38_6 1_555 1_555
N3_6 C33_6 1_555 1_555
H22_6 N3_6 1_555 1_555
C39_6 H23_6 1_555 1_555
C40_6 C39_6 1_555 1_555
H24_6 C40_6 1_555 1_555
C41_6 H25_6 1_555 1_555
C42_6 C39_6 1_555 1_555
C43_6 N3_6 1_555 1_555
C44_6 C41_6 1_555 1_555
H26_6 C44_6 1_555 1_555
C45_6 C40_6 1_555 1_555
H27_6 C45_6 1_555 1_555
O16_6 C43_6 1_555 1_555
Zn8 O6_6 1_555 1_555
C11_6 C15_6 1_555 1_555
C12_6 C13_6 1_555 1_555
C12_6 C14_6 1_555 1_555
O6_6 Zn9_3 1_555 1_555
O7_6 Zn9_3 1_555 1_555
O8_6 Zn8 1_555 1_555
C22_6 C23_6 1_555 1_555
C26_6 C30_6 1_555 1_555
C27_6 C28_6 1_555 1_555
C27_6 C29_6 1_555 1_555
O12_6 Zn8 1_555 1_555
C33_6 C35_6 1_555 1_555
C41_6 C45_6 1_555 1_555
C42_6 C43_6 1_555 1_555
C42_6 C44_6 1_555 1_555
O19_3 C36_6 1_555 1_555
O22_3 C36_6 1_555 1_555
C31_6 H19_6 1_555 1_555
C34_6 C31_6 1_555 1_555
C36_6 C34_6 1_555 1_555
C37_6 C34_6 1_555 1_555
H20_6 C37_6 1_555 1_555
O19 C36_7 1_555 1_555
O22 C36_7 1_555 1_555
C31_7 H19_7 1_555 1_555
C34_7 C31_7 1_555 1_555
C36_7 C34_7 1_555 1_555
C37_7 C34_7 1_555 1_555
H20_7 C37_7 1_555 1_555
O1_7 C2_7 1_555 1_555
O2_7 C2_7 1_555 1_555
O17_2 C6_7 1_555 1_555
O20_2 C6_7 1_555 1_555
C1_7 H1_7 1_555 1_555
C2_7 C5_7 1_555 1_555
C3_7 C1_7 1_555 1_555
C4_7 C1_7 1_555 1_555
C5_7 C3_7 1_555 1_555
C6_7 C4_7 1_555 1_555
C7_7 C4_7 1_555 1_555
H2_7 C7_7 1_555 1_555
C8_7 C5_7 1_555 1_555
H3_7 C8_7 1_555 1_555
N1_7 C3_7 1_555 1_555
H4_7 N1_7 1_555 1_555
C9_7 H5_7 1_555 1_555
C10_7 C9_7 1_555 1_555
H6_7 C10_7 1_555 1_555
C12_7 C9_7 1_555 1_555
C13_7 N1_7 1_555 1_555
C14_7 C11_7 1_555 1_555
H8_7 C14_7 1_555 1_555
C15_7 C10_7 1_555 1_555
H9_7 C15_7 1_555 1_555
O5_7 C13_7 1_555 1_555
Zn6 O6_7 1_555 1_555
Zn9_4 O1_7 1_555 1_555
O6_7 Zn9_4 1_555 1_555
O7_7 C17_7 1_555 1_555
O8_7 C17_7 1_555 1_555
C17_7 C20_7 1_555 1_555
C20_7 C18_7 1_555 1_555
C23_7 C20_7 1_555 1_555
H12_7 C23_7 1_555 1_555
N2_7 C18_7 1_555 1_555
H13_7 N2_7 1_555 1_555
C24_7 H14_7 1_555 1_555
C25_7 C24_7 1_555 1_555
H15_7 C25_7 1_555 1_555
C26_7 H16_7 1_555 1_555
C27_7 C24_7 1_555 1_555
C28_7 N2_7 1_555 1_555
C29_7 C26_7 1_555 1_555
H17_7 C29_7 1_555 1_555
C30_7 C25_7 1_555 1_555
H18_7 C30_7 1_555 1_555
O11_7 C28_7 1_555 1_555
Zn9 O2_7 1_555 1_555
O12_7 C32_7 1_555 1_555
O13_7 Zn9_4 1_555 1_555
C32_7 O13_7 1_555 1_555
C35_7 C32_7 1_555 1_555
C38_7 C35_7 1_555 1_555
H21_7 C38_7 1_555 1_555
N3_7 C33_7 1_555 1_555
H22_7 N3_7 1_555 1_555
C39_7 H23_7 1_555 1_555
C40_7 C39_7 1_555 1_555
H24_7 C40_7 1_555 1_555
C42_7 C39_7 1_555 1_555
C43_7 N3_7 1_555 1_555
C44_7 C41_7 1_555 1_555
H26_7 C44_7 1_555 1_555
C45_7 C40_7 1_555 1_555
H27_7 C45_7 1_555 1_555
O16_7 C43_7 1_555 1_555
Zn8_2 O6_7 1_555 1_555
C7_7 C8_7 1_555 1_555
C11_7 C15_7 1_555 1_555
C12_7 C13_7 1_555 1_555
C12_7 C14_7 1_555 1_555
O6_7 Zn9 1_555 1_555
O7_7 Zn9 1_555 1_555
O8_7 Zn8_2 1_555 1_555
C26_7 C30_7 1_555 1_555
C27_7 C28_7 1_555 1_555
C27_7 C29_7 1_555 1_555
O12_7 Zn8_2 1_555 1_555
C33_7 C35_7 1_555 1_555
C41_7 C45_7 1_555 1_555
C42_7 C43_7 1_555 1_555
C42_7 C44_7 1_555 1_555
O19_4 C21_7 1_555 1_555
O22_4 C21_7 1_555 1_555
C16_7 H10_7 1_555 1_555
C19_7 C16_7 1_555 1_555
C21_7 C19_7 1_555 1_555
C22_7 C19_7 1_555 1_555
H11_7 C22_7 1_555 1_555
O18 C36_8 1_555 1_555
O21 C36_8 1_555 1_555
C31_8 H19_8 1_555 1_555
C34_8 C31_8 1_555 1_555
C36_8 C34_8 1_555 1_555
C37_8 C34_8 1_555 1_555
H20_8 C37_8 1_555 1_555
O1_8 C2_8 1_555 1_555
O2_8 C2_8 1_555 1_555
O18_3 C6_8 1_555 1_555
O21_3 C6_8 1_555 1_555
C1_8 H1_8 1_555 1_555
C2_8 C5_8 1_555 1_555
C3_8 C1_8 1_555 1_555
C4_8 C1_8 1_555 1_555
C5_8 C3_8 1_555 1_555
C6_8 C4_8 1_555 1_555
C7_8 C4_8 1_555 1_555
H2_8 C7_8 1_555 1_555
C8_8 C5_8 1_555 1_555
H3_8 C8_8 1_555 1_555
N1_8 C3_8 1_555 1_555
H4_8 N1_8 1_555 1_555
C9_8 H5_8 1_555 1_555
C10_8 C9_8 1_555 1_555
H6_8 C10_8 1_555 1_555
C12_8 C9_8 1_555 1_555
C13_8 N1_8 1_555 1_555
C14_8 C11_8 1_555 1_555
H8_8 C14_8 1_555 1_555
C15_8 C10_8 1_555 1_555
H9_8 C15_8 1_555 1_555
O5_8 C13_8 1_555 1_555
Zn7 O6_8 1_555 1_555
Zn10_2 O1_8 1_555 1_555
O6_8 Zn10_2 1_555 1_555
O7_8 C17_8 1_555 1_555
O8_8 C17_8 1_555 1_555
C17_8 C20_8 1_555 1_555
C20_8 C18_8 1_555 1_555
C23_8 C20_8 1_555 1_555
H12_8 C23_8 1_555 1_555
N2_8 C18_8 1_555 1_555
H13_8 N2_8 1_555 1_555
C24_8 H14_8 1_555 1_555
C25_8 C24_8 1_555 1_555
H15_8 C25_8 1_555 1_555
C26_8 H16_8 1_555 1_555
C27_8 C24_8 1_555 1_555
C28_8 N2_8 1_555 1_555
C29_8 C26_8 1_555 1_555
H17_8 C29_8 1_555 1_555
C30_8 C25_8 1_555 1_555
H18_8 C30_8 1_555 1_555
O11_8 C28_8 1_555 1_555
Zn10 O2_8 1_555 1_555
O12_8 C32_8 1_555 1_555
O13_8 Zn10_2 1_555 1_555
C32_8 O13_8 1_555 1_555
C35_8 C32_8 1_555 1_555
C38_8 C35_8 1_555 1_555
H21_8 C38_8 1_555 1_555
N3_8 C33_8 1_555 1_555
H22_8 N3_8 1_555 1_555
C39_8 H23_8 1_555 1_555
C40_8 C39_8 1_555 1_555
H24_8 C40_8 1_555 1_555
C42_8 C39_8 1_555 1_555
C43_8 N3_8 1_555 1_555
C44_8 C41_8 1_555 1_555
H26_8 C44_8 1_555 1_555
C45_8 C40_8 1_555 1_555
H27_8 C45_8 1_555 1_555
O16_8 C43_8 1_555 1_555
Zn10_3 O6_8 1_555 1_555
C7_8 C8_8 1_555 1_555
C11_8 C15_8 1_555 1_555
C12_8 C13_8 1_555 1_555
C12_8 C14_8 1_555 1_555
O6_8 Zn10 1_555 1_555
O7_8 Zn10 1_555 1_555
O8_8 Zn10_3 1_555 1_555
C26_8 C30_8 1_555 1_555
C27_8 C28_8 1_555 1_555
C27_8 C29_8 1_555 1_555
O12_8 Zn10_3 1_555 1_555
C33_8 C35_8 1_555 1_555
C41_8 C45_8 1_555 1_555
C42_8 C43_8 1_555 1_555
C42_8 C44_8 1_555 1_555
O18_2 C21_8 1_555 1_555
O21_2 C21_8 1_555 1_555
C16_8 H10_8 1_555 1_555
C19_8 C16_8 1_555 1_555
C21_8 C19_8 1_555 1_555
C22_8 C19_8 1_555 1_555
H11_8 C22_8 1_555 1_555

#END
