
###############################################################################
#
# This file contains modified crystal structure data generated from the
# MOF subset of the Cambridge Structural Database (CSD) v543 
# hosted by the Cambridge Crystallographic Data Centre (CCDC).
#
# This work is licensed under the Creative Commons
# Attribution-NonCommercial-ShareAlike 4.0 International License.
# To view a copy of this license, visit
# http://creativecommons.org/licenses/by-nc-sa/4.0/
# or send a letter to
# Creative Commons, PO Box 1866, Mountain View, CA 94042, USA.
#
# CIF created using the CSD Python API on 29 September 2022
# The structure has been converted into the P1 space group
# The structure has a 3D framework
# The original CSD entry HOLYEP is in the cubic crystal system
# The framework has been calculated to contain at least 10.0% void space
# The void calculation uses a probe of radius 1.32A, grid spacing 0.4
#
###############################################################################

data_HOLYEP
_chemical_formula_moiety         '(C336 H192 N96 Ni16 O21)n'
_symmetry_cell_setting           triclinic
_symmetry_space_group_name_H-M   'P 1'
_symmetry_Int_Tables_number      1
_space_group_name_Hall           'P 1'
loop_
_symmetry_equiv_pos_site_id
_symmetry_equiv_pos_as_xyz
1 x,y,z
_cell_length_a                   25.3403(3)
_cell_length_b                   25.3403(3)
_cell_length_c                   25.3403(3)
_cell_angle_alpha                90
_cell_angle_beta                 90
_cell_angle_gamma                90
_cell_volume                     16271.8
loop_
_atom_site_label
_atom_site_type_symbol
_atom_site_fract_x
_atom_site_fract_y
_atom_site_fract_z
Ni1 Ni 0.55871(2) 0.55871(2) 0.44129(2)
O1 O 0.500000 0.500000 0.42064(10)
N1 N 0.61001(4) 0.61001(4) 0.47304(6)
C1 C 0.64537(5) 0.64537(5) 0.45670(9)
H1 H 0.652825 0.652825 0.421551
C2 C 0.66974(8) 0.66974(8) 0.500000
C3 C 0.71057(8) 0.71057(8) 0.500000
C4 C 0.73076(7) 0.73076(7) 0.54605(11)
H2 H 0.718135 0.718135 0.578113
N2 N 0.61001(4) 0.61001(4) 0.52696(6)
C5 C 0.64537(5) 0.64537(5) 0.54330(9)
H3 H 0.652825 0.652825 0.578449
C6 C 0.73076(7) 0.73076(7) 0.45395(11)
H4 H 0.718135 0.718135 0.421887
N3 N 0.88999(4) 0.88999(4) 0.47304(6)
C7 C 0.85463(5) 0.85463(5) 0.45670(9)
H5 H 0.847175 0.847175 0.421551
C8 C 0.83026(8) 0.83026(8) 0.500000
C9 C 0.78943(8) 0.78943(8) 0.500000
C10 C 0.76924(7) 0.76924(7) 0.54605(11)
H6 H 0.781865 0.781865 0.578113
N4 N 0.88999(4) 0.88999(4) 0.52696(6)
C11 C 0.85463(5) 0.85463(5) 0.54330(9)
H7 H 0.847175 0.847175 0.578449
C12 C 0.76924(7) 0.76924(7) 0.45395(11)
H8 H 0.781865 0.781865 0.421887
Ni2 Ni 0.44129(2) 0.44129(2) 0.44129(2)
N5 N 0.38999(4) 0.38999(4) 0.47304(6)
C13 C 0.35463(5) 0.35463(5) 0.45670(9)
H9 H 0.347175 0.347175 0.421551
C14 C 0.33026(8) 0.33026(8) 0.500000
C15 C 0.28943(8) 0.28943(8) 0.500000
C16 C 0.26924(7) 0.26924(7) 0.54605(11)
H10 H 0.281865 0.281865 0.578113
N6 N 0.38999(4) 0.38999(4) 0.52696(6)
C17 C 0.35463(5) 0.35463(5) 0.54330(9)
H11 H 0.347175 0.347175 0.578449
C18 C 0.26924(7) 0.26924(7) 0.45395(11)
H12 H 0.281865 0.281865 0.421887
N7 N 0.11001(4) 0.11001(4) 0.47304(6)
C19 C 0.14537(5) 0.14537(5) 0.45670(9)
H13 H 0.152825 0.152825 0.421551
C20 C 0.16974(8) 0.16974(8) 0.500000
C21 C 0.21057(8) 0.21057(8) 0.500000
C22 C 0.23076(7) 0.23076(7) 0.54605(11)
H14 H 0.218135 0.218135 0.578113
N8 N 0.11001(4) 0.11001(4) 0.52696(6)
C23 C 0.14537(5) 0.14537(5) 0.54330(9)
H15 H 0.152825 0.152825 0.578449
C24 C 0.23076(7) 0.23076(7) 0.45395(11)
H16 H 0.218135 0.218135 0.421887
Ni3 Ni 0.44129(2) 0.55871(2) 0.55871(2)
O2 O 0.42064(10) 0.500000 0.500000
N9 N 0.47304(6) 0.61001(4) 0.61001(4)
C25 C 0.45670(9) 0.64537(5) 0.64537(5)
H17 H 0.421551 0.652825 0.652825
C26 C 0.500000 0.66974(8) 0.66974(8)
C27 C 0.500000 0.71057(8) 0.71057(8)
C28 C 0.54605(11) 0.73076(7) 0.73076(7)
H18 H 0.578113 0.718135 0.718135
N10 N 0.52696(6) 0.61001(4) 0.61001(4)
C29 C 0.54330(9) 0.64537(5) 0.64537(5)
H19 H 0.578449 0.652825 0.652825
C30 C 0.45395(11) 0.73076(7) 0.73076(7)
H20 H 0.421887 0.718135 0.718135
N11 N 0.47304(6) 0.88999(4) 0.88999(4)
C31 C 0.45670(9) 0.85463(5) 0.85463(5)
H21 H 0.421551 0.847175 0.847175
C32 C 0.500000 0.83026(8) 0.83026(8)
C33 C 0.500000 0.78943(8) 0.78943(8)
C34 C 0.54605(11) 0.76924(7) 0.76924(7)
H22 H 0.578113 0.781865 0.781865
N12 N 0.52696(6) 0.88999(4) 0.88999(4)
C35 C 0.54330(9) 0.85463(5) 0.85463(5)
H23 H 0.578449 0.847175 0.847175
C36 C 0.45395(11) 0.76924(7) 0.76924(7)
H24 H 0.421887 0.781865 0.781865
Ni4 Ni 0.55871(2) 0.44129(2) 0.55871(2)
O3 O 0.57936(10) 0.500000 0.500000
Ni5 Ni 0.55871(2) 0.55871(2) 0.55871(2)
Ni6 Ni 0.44129(2) 0.44129(2) 0.55871(2)
Ni7 Ni 0.55871(2) 0.44129(2) 0.44129(2)
Ni8 Ni 0.44129(2) 0.55871(2) 0.44129(2)
Ni9 Ni 0.44129(2) 0.94129(2) 0.94129(2)
Ni10 Ni 0.55871(2) 0.94129(2) 0.94129(2)
Ni11 Ni 0.05871(2) 0.05871(2) 0.44129(2)
Ni12 Ni 0.94129(2) 0.94129(2) 0.44129(2)
Ni13 Ni 0.05871(2) 0.05871(2) 0.55871(2)
Ni14 Ni 0.94129(2) 0.94129(2) 0.55871(2)
O4 O 0.500000 0.500000 0.57936(10)
O5 O 0.500000 0.42064(10) 0.500000
O6 O 0.500000 0.57936(10) 0.500000
N13 N 0.38999(4) 0.61001(4) 0.52696(6)
N14 N 0.61001(4) 0.38999(4) 0.52696(6)
N15 N 0.47304(6) 0.38999(4) 0.38999(4)
N16 N 0.52696(6) 0.38999(4) 0.61001(4)
N17 N 0.52696(6) 0.61001(4) 0.38999(4)
N18 N 0.61001(4) 0.47304(6) 0.61001(4)
N19 N 0.38999(4) 0.47304(6) 0.38999(4)
N20 N 0.61001(4) 0.52696(6) 0.38999(4)
N21 N 0.38999(4) 0.52696(6) 0.61001(4)
C25_2 C 0.54330(9) 0.35463(5) 0.64537(5)
H17_2 H 0.578449 0.347175 0.652825
C26_2 C 0.500000 0.33026(8) 0.66974(8)
C27_2 C 0.500000 0.28943(8) 0.71057(8)
C28_2 C 0.45395(11) 0.26924(7) 0.73076(7)
H18_2 H 0.421887 0.281865 0.718135
N10_2 N 0.47304(6) 0.38999(4) 0.61001(4)
C29_2 C 0.45670(9) 0.35463(5) 0.64537(5)
H19_2 H 0.421551 0.347175 0.652825
C30_2 C 0.54605(11) 0.26924(7) 0.73076(7)
H20_2 H 0.578113 0.281865 0.718135
N11_2 N 0.52696(6) 0.11001(4) 0.88999(4)
C31_2 C 0.54330(9) 0.14537(5) 0.85463(5)
H21_2 H 0.578449 0.152825 0.847175
C32_2 C 0.500000 0.16974(8) 0.83026(8)
C33_2 C 0.500000 0.21057(8) 0.78943(8)
C34_2 C 0.45395(11) 0.23076(7) 0.76924(7)
H22_2 H 0.421887 0.218135 0.781865
N12_2 N 0.47304(6) 0.11001(4) 0.88999(4)
C35_2 C 0.45670(9) 0.14537(5) 0.85463(5)
H23_2 H 0.421551 0.152825 0.847175
C36_2 C 0.54605(11) 0.23076(7) 0.76924(7)
H24_2 H 0.578113 0.218135 0.781865
Ni9_2 Ni 0.55871(2) 0.05871(2) 0.94129(2)
Ni10_2 Ni 0.44129(2) 0.05871(2) 0.94129(2)
C1_2 C 0.35463(5) 0.64537(5) 0.54330(9)
H1_2 H 0.347175 0.652825 0.578449
C2_2 C 0.33026(8) 0.66974(8) 0.500000
C3_2 C 0.28943(8) 0.71057(8) 0.500000
C4_2 C 0.26924(7) 0.73076(7) 0.45395(11)
H2_2 H 0.281865 0.718135 0.421887
N2_2 N 0.38999(4) 0.61001(4) 0.47304(6)
C5_2 C 0.35463(5) 0.64537(5) 0.45670(9)
H3_2 H 0.347175 0.652825 0.421551
C6_2 C 0.26924(7) 0.73076(7) 0.54605(11)
H4_2 H 0.281865 0.718135 0.578113
N3_2 N 0.11001(4) 0.88999(4) 0.52696(6)
C7_2 C 0.14537(5) 0.85463(5) 0.54330(9)
H5_2 H 0.152825 0.847175 0.578449
C8_2 C 0.16974(8) 0.83026(8) 0.500000
C9_2 C 0.21057(8) 0.78943(8) 0.500000
C10_2 C 0.23076(7) 0.76924(7) 0.45395(11)
H6_2 H 0.218135 0.781865 0.421887
N4_2 N 0.11001(4) 0.88999(4) 0.47304(6)
C11_2 C 0.14537(5) 0.85463(5) 0.45670(9)
H7_2 H 0.152825 0.847175 0.421551
C12_2 C 0.23076(7) 0.76924(7) 0.54605(11)
H8_2 H 0.218135 0.781865 0.578113
C13_2 C 0.64537(5) 0.35463(5) 0.54330(9)
H9_2 H 0.652825 0.347175 0.578449
C14_2 C 0.66974(8) 0.33026(8) 0.500000
C15_2 C 0.71057(8) 0.28943(8) 0.500000
C16_2 C 0.73076(7) 0.26924(7) 0.45395(11)
H10_2 H 0.718135 0.281865 0.421887
N6_2 N 0.61001(4) 0.38999(4) 0.47304(6)
C17_2 C 0.64537(5) 0.35463(5) 0.45670(9)
H11_2 H 0.652825 0.347175 0.421551
C18_2 C 0.73076(7) 0.26924(7) 0.54605(11)
H12_2 H 0.718135 0.281865 0.578113
N7_2 N 0.88999(4) 0.11001(4) 0.52696(6)
C19_2 C 0.85463(5) 0.14537(5) 0.54330(9)
H13_2 H 0.847175 0.152825 0.578449
C20_2 C 0.83026(8) 0.16974(8) 0.500000
C21_2 C 0.78943(8) 0.21057(8) 0.500000
C22_2 C 0.76924(7) 0.23076(7) 0.45395(11)
H14_2 H 0.781865 0.218135 0.421887
N8_2 N 0.88999(4) 0.11001(4) 0.47304(6)
C23_2 C 0.85463(5) 0.14537(5) 0.45670(9)
H15_2 H 0.847175 0.152825 0.421551
C24_2 C 0.76924(7) 0.23076(7) 0.54605(11)
H16_2 H 0.781865 0.218135 0.578113
C25_3 C 0.54330(9) 0.64537(5) 0.35463(5)
H17_3 H 0.578449 0.652825 0.347175
C26_3 C 0.500000 0.66974(8) 0.33026(8)
C27_3 C 0.500000 0.71057(8) 0.28943(8)
C28_3 C 0.45395(11) 0.73076(7) 0.26924(7)
H18_3 H 0.421887 0.718135 0.281865
N10_3 N 0.47304(6) 0.61001(4) 0.38999(4)
C29_3 C 0.45670(9) 0.64537(5) 0.35463(5)
H19_3 H 0.421551 0.652825 0.347175
C30_3 C 0.54605(11) 0.73076(7) 0.26924(7)
H20_3 H 0.578113 0.718135 0.281865
N11_3 N 0.52696(6) 0.88999(4) 0.11001(4)
C31_3 C 0.54330(9) 0.85463(5) 0.14537(5)
H21_3 H 0.578449 0.847175 0.152825
C32_3 C 0.500000 0.83026(8) 0.16974(8)
C33_3 C 0.500000 0.78943(8) 0.21057(8)
C34_3 C 0.45395(11) 0.76924(7) 0.23076(7)
H22_3 H 0.421887 0.781865 0.218135
N12_3 N 0.47304(6) 0.88999(4) 0.11001(4)
C35_3 C 0.45670(9) 0.85463(5) 0.14537(5)
H23_3 H 0.421551 0.847175 0.152825
C36_3 C 0.54605(11) 0.76924(7) 0.23076(7)
H24_3 H 0.578113 0.781865 0.218135
Ni9_3 Ni 0.55871(2) 0.94129(2) 0.05871(2)
Ni10_3 Ni 0.44129(2) 0.94129(2) 0.05871(2)
Ni11_2 Ni 0.94129(2) 0.05871(2) 0.55871(2)
Ni12_2 Ni 0.05871(2) 0.94129(2) 0.55871(2)
Ni13_2 Ni 0.94129(2) 0.05871(2) 0.44129(2)
Ni14_2 Ni 0.05871(2) 0.94129(2) 0.44129(2)
C25_4 C 0.45670(9) 0.35463(5) 0.35463(5)
H17_4 H 0.421551 0.347175 0.347175
C26_4 C 0.500000 0.33026(8) 0.33026(8)
C27_4 C 0.500000 0.28943(8) 0.28943(8)
C28_4 C 0.54605(11) 0.26924(7) 0.26924(7)
H18_4 H 0.578113 0.281865 0.281865
N10_4 N 0.52696(6) 0.38999(4) 0.38999(4)
C29_4 C 0.54330(9) 0.35463(5) 0.35463(5)
H19_4 H 0.578449 0.347175 0.347175
C30_4 C 0.45395(11) 0.26924(7) 0.26924(7)
H20_4 H 0.421887 0.281865 0.281865
N11_4 N 0.47304(6) 0.11001(4) 0.11001(4)
C31_4 C 0.45670(9) 0.14537(5) 0.14537(5)
H21_4 H 0.421551 0.152825 0.152825
C32_4 C 0.500000 0.16974(8) 0.16974(8)
C33_4 C 0.500000 0.21057(8) 0.21057(8)
C34_4 C 0.54605(11) 0.23076(7) 0.23076(7)
H22_4 H 0.578113 0.218135 0.218135
N12_4 N 0.52696(6) 0.11001(4) 0.11001(4)
C35_4 C 0.54330(9) 0.14537(5) 0.14537(5)
H23_4 H 0.578449 0.152825 0.152825
C36_4 C 0.45395(11) 0.23076(7) 0.23076(7)
H24_4 H 0.421887 0.218135 0.218135
Ni9_4 Ni 0.44129(2) 0.05871(2) 0.05871(2)
Ni10_4 Ni 0.55871(2) 0.05871(2) 0.05871(2)
C25_5 C 0.64537(5) 0.45670(9) 0.64537(5)
H17_5 H 0.652825 0.421551 0.652825
C26_5 C 0.66974(8) 0.500000 0.66974(8)
C27_5 C 0.71057(8) 0.500000 0.71057(8)
C28_5 C 0.73076(7) 0.54605(11) 0.73076(7)
H18_5 H 0.718135 0.578113 0.718135
N10_5 N 0.61001(4) 0.52696(6) 0.61001(4)
C29_5 C 0.64537(5) 0.54330(9) 0.64537(5)
H19_5 H 0.652825 0.578449 0.652825
C30_5 C 0.73076(7) 0.45395(11) 0.73076(7)
H20_5 H 0.718135 0.421887 0.718135
N11_5 N 0.88999(4) 0.47304(6) 0.88999(4)
C31_5 C 0.85463(5) 0.45670(9) 0.85463(5)
H21_5 H 0.847175 0.421551 0.847175
C32_5 C 0.83026(8) 0.500000 0.83026(8)
C33_5 C 0.78943(8) 0.500000 0.78943(8)
C34_5 C 0.76924(7) 0.54605(11) 0.76924(7)
H22_5 H 0.781865 0.578113 0.781865
N12_5 N 0.88999(4) 0.52696(6) 0.88999(4)
C35_5 C 0.85463(5) 0.54330(9) 0.85463(5)
H23_5 H 0.847175 0.578449 0.847175
C36_5 C 0.76924(7) 0.45395(11) 0.76924(7)
H24_5 H 0.781865 0.421887 0.781865
Ni9_5 Ni 0.94129(2) 0.44129(2) 0.94129(2)
Ni10_5 Ni 0.94129(2) 0.55871(2) 0.94129(2)
C25_6 C 0.64537(5) 0.54330(9) 0.35463(5)
H17_6 H 0.652825 0.578449 0.347175
C26_6 C 0.66974(8) 0.500000 0.33026(8)
C27_6 C 0.71057(8) 0.500000 0.28943(8)
C28_6 C 0.73076(7) 0.45395(11) 0.26924(7)
H18_6 H 0.718135 0.421887 0.281865
N10_6 N 0.61001(4) 0.47304(6) 0.38999(4)
C29_6 C 0.64537(5) 0.45670(9) 0.35463(5)
H19_6 H 0.652825 0.421551 0.347175
C30_6 C 0.73076(7) 0.54605(11) 0.26924(7)
H20_6 H 0.718135 0.578113 0.281865
N11_6 N 0.88999(4) 0.52696(6) 0.11001(4)
C31_6 C 0.85463(5) 0.54330(9) 0.14537(5)
H21_6 H 0.847175 0.578449 0.152825
C32_6 C 0.83026(8) 0.500000 0.16974(8)
C33_6 C 0.78943(8) 0.500000 0.21057(8)
C34_6 C 0.76924(7) 0.45395(11) 0.23076(7)
H22_6 H 0.781865 0.421887 0.218135
N12_6 N 0.88999(4) 0.47304(6) 0.11001(4)
C35_6 C 0.85463(5) 0.45670(9) 0.14537(5)
H23_6 H 0.847175 0.421551 0.152825
C36_6 C 0.76924(7) 0.54605(11) 0.23076(7)
H24_6 H 0.781865 0.578113 0.218135
Ni9_6 Ni 0.94129(2) 0.55871(2) 0.05871(2)
Ni10_6 Ni 0.94129(2) 0.44129(2) 0.05871(2)
C25_7 C 0.35463(5) 0.54330(9) 0.64537(5)
H17_7 H 0.347175 0.578449 0.652825
C26_7 C 0.33026(8) 0.500000 0.66974(8)
C27_7 C 0.28943(8) 0.500000 0.71057(8)
C28_7 C 0.26924(7) 0.45395(11) 0.73076(7)
H18_7 H 0.281865 0.421887 0.718135
N10_7 N 0.38999(4) 0.47304(6) 0.61001(4)
C29_7 C 0.35463(5) 0.45670(9) 0.64537(5)
H19_7 H 0.347175 0.421551 0.652825
C30_7 C 0.26924(7) 0.54605(11) 0.73076(7)
H20_7 H 0.281865 0.578113 0.718135
N11_7 N 0.11001(4) 0.52696(6) 0.88999(4)
C31_7 C 0.14537(5) 0.54330(9) 0.85463(5)
H21_7 H 0.152825 0.578449 0.847175
C32_7 C 0.16974(8) 0.500000 0.83026(8)
C33_7 C 0.21057(8) 0.500000 0.78943(8)
C34_7 C 0.23076(7) 0.45395(11) 0.76924(7)
H22_7 H 0.218135 0.421887 0.781865
N12_7 N 0.11001(4) 0.47304(6) 0.88999(4)
C35_7 C 0.14537(5) 0.45670(9) 0.85463(5)
H23_7 H 0.152825 0.421551 0.847175
C36_7 C 0.23076(7) 0.54605(11) 0.76924(7)
H24_7 H 0.218135 0.578113 0.781865
Ni9_7 Ni 0.05871(2) 0.55871(2) 0.94129(2)
Ni10_7 Ni 0.05871(2) 0.44129(2) 0.94129(2)
C25_8 C 0.35463(5) 0.45670(9) 0.35463(5)
H17_8 H 0.347175 0.421551 0.347175
C26_8 C 0.33026(8) 0.500000 0.33026(8)
C27_8 C 0.28943(8) 0.500000 0.28943(8)
C28_8 C 0.26924(7) 0.54605(11) 0.26924(7)
H18_8 H 0.281865 0.578113 0.281865
N10_8 N 0.38999(4) 0.52696(6) 0.38999(4)
C29_8 C 0.35463(5) 0.54330(9) 0.35463(5)
H19_8 H 0.347175 0.578449 0.347175
C30_8 C 0.26924(7) 0.45395(11) 0.26924(7)
H20_8 H 0.281865 0.421887 0.281865
N11_8 N 0.11001(4) 0.47304(6) 0.11001(4)
C31_8 C 0.14537(5) 0.45670(9) 0.14537(5)
H21_8 H 0.152825 0.421551 0.152825
C32_8 C 0.16974(8) 0.500000 0.16974(8)
C33_8 C 0.21057(8) 0.500000 0.21057(8)
C34_8 C 0.23076(7) 0.54605(11) 0.23076(7)
H22_8 H 0.218135 0.578113 0.218135
N12_8 N 0.11001(4) 0.52696(6) 0.11001(4)
C35_8 C 0.14537(5) 0.54330(9) 0.14537(5)
H23_8 H 0.152825 0.578449 0.152825
C36_8 C 0.23076(7) 0.45395(11) 0.23076(7)
H24_8 H 0.218135 0.421887 0.218135
Ni9_8 Ni 0.05871(2) 0.44129(2) 0.05871(2)
Ni10_8 Ni 0.05871(2) 0.55871(2) 0.05871(2)
C2_3 C 0.66974(8) 0.16974(8) 0.000000
C3_3 C 0.71057(8) 0.21057(8) 0.000000
C4_3 C 0.73076(7) 0.23076(7) 0.04605(11)
H2_3 H 0.718135 0.218135 0.078113
N2_3 N 0.61001(4) 0.11001(4) 0.02696(6)
C5_3 C 0.64537(5) 0.14537(5) 0.04330(9)
H3_3 H 0.652825 0.152825 0.078449
C8_3 C 0.83026(8) 0.33026(8) 0.000000
C9_3 C 0.78943(8) 0.28943(8) 0.000000
C10_3 C 0.76924(7) 0.26924(7) 0.04605(11)
H6_3 H 0.781865 0.281865 0.078113
N4_3 N 0.88999(4) 0.38999(4) 0.02696(6)
C11_3 C 0.85463(5) 0.35463(5) 0.04330(9)
H7_3 H 0.847175 0.347175 0.078449
O2_2 O 0.42064(10) -0.000000 0.000000
O3_2 O 0.57936(10) -0.000000 0.000000
O4_2 O 0.500000 0.000000 0.07936(10)
O6_2 O 0.500000 0.07936(10) 0.000000
N13_2 N 0.38999(4) 0.11001(4) 0.02696(6)
N21_2 N 0.38999(4) 0.02696(6) 0.11001(4)
O1_2 O 0.500000 0.000000 0.92064(10)
N1_2 N 0.61001(4) 0.11001(4) 0.97304(6)
C1_3 C 0.64537(5) 0.14537(5) 0.95670(9)
H1_3 H 0.652825 0.152825 0.921551
C2_4 C 0.66974(8) 0.16974(8) 1.000000
C3_4 C 0.71057(8) 0.21057(8) 1.000000
C6_3 C 0.73076(7) 0.23076(7) 0.95395(11)
H4_3 H 0.718135 0.218135 0.921887
N3_3 N 0.88999(4) 0.38999(4) 0.97304(6)
C7_3 C 0.85463(5) 0.35463(5) 0.95670(9)
H5_3 H 0.847175 0.347175 0.921551
C8_4 C 0.83026(8) 0.33026(8) 1.000000
C9_4 C 0.78943(8) 0.28943(8) 1.000000
C12_3 C 0.76924(7) 0.26924(7) 0.95395(11)
H8_3 H 0.781865 0.281865 0.921887
O2_3 O 0.42064(10) -0.000000 1.000000
O3_3 O 0.57936(10) -0.000000 1.000000
O6_3 O 0.500000 0.07936(10) 1.000000
N20_2 N 0.61001(4) 0.02696(6) 0.88999(4)
C14_3 C 0.33026(8) 0.83026(8) 0.000000
C15_3 C 0.28943(8) 0.78943(8) 0.000000
C16_3 C 0.26924(7) 0.76924(7) 0.04605(11)
H10_3 H 0.281865 0.781865 0.078113
N6_3 N 0.38999(4) 0.88999(4) 0.02696(6)
C17_3 C 0.35463(5) 0.85463(5) 0.04330(9)
H11_3 H 0.347175 0.847175 0.078449
C20_3 C 0.16974(8) 0.66974(8) 0.000000
C21_3 C 0.21057(8) 0.71057(8) 0.000000
C22_3 C 0.23076(7) 0.73076(7) 0.04605(11)
H14_3 H 0.218135 0.718135 0.078113
N8_3 N 0.11001(4) 0.61001(4) 0.02696(6)
C23_3 C 0.14537(5) 0.64537(5) 0.04330(9)
H15_3 H 0.152825 0.652825 0.078449
O2_4 O 0.42064(10) 1.000000 0.000000
O3_4 O 0.57936(10) 1.000000 0.000000
O4_3 O 0.500000 1.000000 0.07936(10)
O5_2 O 0.500000 0.92064(10) 0.000000
N14_2 N 0.61001(4) 0.88999(4) 0.02696(6)
N18_2 N 0.61001(4) 0.97304(6) 0.11001(4)
O1_3 O 0.500000 1.000000 0.92064(10)
N5_2 N 0.38999(4) 0.88999(4) 0.97304(6)
C13_3 C 0.35463(5) 0.85463(5) 0.95670(9)
H9_3 H 0.347175 0.847175 0.921551
C14_4 C 0.33026(8) 0.83026(8) 1.000000
C15_4 C 0.28943(8) 0.78943(8) 1.000000
C18_3 C 0.26924(7) 0.76924(7) 0.95395(11)
H12_3 H 0.281865 0.781865 0.921887
N7_3 N 0.11001(4) 0.61001(4) 0.97304(6)
C19_3 C 0.14537(5) 0.64537(5) 0.95670(9)
H13_3 H 0.152825 0.652825 0.921551
C20_4 C 0.16974(8) 0.66974(8) 1.000000
C21_4 C 0.21057(8) 0.71057(8) 1.000000
C24_3 C 0.23076(7) 0.73076(7) 0.95395(11)
H16_3 H 0.218135 0.718135 0.921887
O2_5 O 0.42064(10) 1.000000 1.000000
O3_5 O 0.57936(10) 1.000000 1.000000
O5_3 O 0.500000 0.92064(10) 1.000000
N19_2 N 0.38999(4) 0.97304(6) 0.88999(4)
C1_4 C 0.35463(5) 0.14537(5) 0.04330(9)
H1_4 H 0.347175 0.152825 0.078449
C2_5 C 0.33026(8) 0.16974(8) 0.000000
C3_5 C 0.28943(8) 0.21057(8) 0.000000
C6_4 C 0.26924(7) 0.23076(7) 0.04605(11)
H4_4 H 0.281865 0.218135 0.078113
N3_4 N 0.11001(4) 0.38999(4) 0.02696(6)
C7_4 C 0.14537(5) 0.35463(5) 0.04330(9)
H5_4 H 0.152825 0.347175 0.078449
C8_5 C 0.16974(8) 0.33026(8) 0.000000
C9_5 C 0.21057(8) 0.28943(8) 0.000000
C12_4 C 0.23076(7) 0.26924(7) 0.04605(11)
H8_4 H 0.218135 0.281865 0.078113
C2_6 C 0.33026(8) 0.16974(8) 1.000000
C3_6 C 0.28943(8) 0.21057(8) 1.000000
C4_4 C 0.26924(7) 0.23076(7) 0.95395(11)
H2_4 H 0.281865 0.218135 0.921887
N2_4 N 0.38999(4) 0.11001(4) 0.97304(6)
C5_4 C 0.35463(5) 0.14537(5) 0.95670(9)
H3_4 H 0.347175 0.152825 0.921551
C8_6 C 0.16974(8) 0.33026(8) 1.000000
C9_6 C 0.21057(8) 0.28943(8) 1.000000
C10_4 C 0.23076(7) 0.26924(7) 0.95395(11)
H6_4 H 0.218135 0.281865 0.921887
N4_4 N 0.11001(4) 0.38999(4) 0.97304(6)
C11_4 C 0.14537(5) 0.35463(5) 0.95670(9)
H7_4 H 0.152825 0.347175 0.921551
C13_4 C 0.64537(5) 0.85463(5) 0.04330(9)
H9_4 H 0.652825 0.847175 0.078449
C14_5 C 0.66974(8) 0.83026(8) 0.000000
C15_5 C 0.71057(8) 0.78943(8) 0.000000
C18_4 C 0.73076(7) 0.76924(7) 0.04605(11)
H12_4 H 0.718135 0.781865 0.078113
N7_4 N 0.88999(4) 0.61001(4) 0.02696(6)
C19_4 C 0.85463(5) 0.64537(5) 0.04330(9)
H13_4 H 0.847175 0.652825 0.078449
C20_5 C 0.83026(8) 0.66974(8) 0.000000
C21_5 C 0.78943(8) 0.71057(8) 0.000000
C24_4 C 0.76924(7) 0.73076(7) 0.04605(11)
H16_4 H 0.781865 0.718135 0.078113
C14_6 C 0.66974(8) 0.83026(8) 1.000000
C15_6 C 0.71057(8) 0.78943(8) 1.000000
C16_4 C 0.73076(7) 0.76924(7) 0.95395(11)
H10_4 H 0.718135 0.781865 0.921887
N6_4 N 0.61001(4) 0.88999(4) 0.97304(6)
C17_4 C 0.64537(5) 0.85463(5) 0.95670(9)
H11_4 H 0.652825 0.847175 0.921551
C20_6 C 0.83026(8) 0.66974(8) 1.000000
C21_6 C 0.78943(8) 0.71057(8) 1.000000
C22_4 C 0.76924(7) 0.73076(7) 0.95395(11)
H14_4 H 0.781865 0.718135 0.921887
N8_4 N 0.88999(4) 0.61001(4) 0.97304(6)
C23_4 C 0.85463(5) 0.64537(5) 0.95670(9)
H15_4 H 0.847175 0.652825 0.921551
C26_9 C 0.66974(8) 0.000000 0.16974(8)
C27_9 C 0.71057(8) 0.000000 0.21057(8)
C28_9 C 0.73076(7) 0.04605(11) 0.23076(7)
H18_9 H 0.718135 0.078113 0.218135
N10_9 N 0.61001(4) 0.02696(6) 0.11001(4)
C29_9 C 0.64537(5) 0.04330(9) 0.14537(5)
H19_9 H 0.652825 0.078449 0.152825
C32_9 C 0.83026(8) 0.000000 0.33026(8)
C33_9 C 0.78943(8) 0.000000 0.28943(8)
C34_9 C 0.76924(7) 0.04605(11) 0.26924(7)
H22_9 H 0.781865 0.078113 0.281865
N12_9 N 0.88999(4) 0.02696(6) 0.38999(4)
C35_9 C 0.85463(5) 0.04330(9) 0.35463(5)
H23_9 H 0.847175 0.078449 0.347175
C25_9 C 0.64537(5) 0.95670(9) 0.14537(5)
H17_9 H 0.652825 0.921551 0.152825
C26_10 C 0.66974(8) 1.000000 0.16974(8)
C27_10 C 0.71057(8) 1.000000 0.21057(8)
C30_9 C 0.73076(7) 0.95395(11) 0.23076(7)
H20_9 H 0.718135 0.921887 0.218135
N11_9 N 0.88999(4) 0.97304(6) 0.38999(4)
C31_9 C 0.85463(5) 0.95670(9) 0.35463(5)
H21_9 H 0.847175 0.921551 0.347175
C32_10 C 0.83026(8) 1.000000 0.33026(8)
C33_10 C 0.78943(8) 1.000000 0.28943(8)
C36_9 C 0.76924(7) 0.95395(11) 0.26924(7)
H24_9 H 0.781865 0.921887 0.281865
C25_10 C 0.64537(5) 0.04330(9) 0.85463(5)
H17_10 H 0.652825 0.078449 0.847175
C26_11 C 0.66974(8) -0.000000 0.83026(8)
C27_11 C 0.71057(8) -0.000000 0.78943(8)
C30_10 C 0.73076(7) 0.04605(11) 0.76924(7)
H20_10 H 0.718135 0.078113 0.781865
N11_10 N 0.88999(4) 0.02696(6) 0.61001(4)
C31_10 C 0.85463(5) 0.04330(9) 0.64537(5)
H21_10 H 0.847175 0.078449 0.652825
C32_11 C 0.83026(8) -0.000000 0.66974(8)
C33_11 C 0.78943(8) -0.000000 0.71057(8)
C36_10 C 0.76924(7) 0.04605(11) 0.73076(7)
H24_10 H 0.781865 0.078113 0.718135
C26_12 C 0.66974(8) 1.000000 0.83026(8)
C27_12 C 0.71057(8) 1.000000 0.78943(8)
C28_10 C 0.73076(7) 0.95395(11) 0.76924(7)
H18_10 H 0.718135 0.921887 0.781865
N10_10 N 0.61001(4) 0.97304(6) 0.88999(4)
C29_10 C 0.64537(5) 0.95670(9) 0.85463(5)
H19_10 H 0.652825 0.921551 0.847175
C32_12 C 0.83026(8) 1.000000 0.66974(8)
C33_12 C 0.78943(8) 1.000000 0.71057(8)
C34_10 C 0.76924(7) 0.95395(11) 0.73076(7)
H22_10 H 0.781865 0.921887 0.718135
N12_10 N 0.88999(4) 0.97304(6) 0.61001(4)
C35_10 C 0.85463(5) 0.95670(9) 0.64537(5)
H23_10 H 0.847175 0.921551 0.652825
C25_11 C 0.35463(5) 0.04330(9) 0.14537(5)
H17_11 H 0.347175 0.078449 0.152825
C26_13 C 0.33026(8) -0.000000 0.16974(8)
C27_13 C 0.28943(8) -0.000000 0.21057(8)
C30_11 C 0.26924(7) 0.04605(11) 0.23076(7)
H20_11 H 0.281865 0.078113 0.218135
N11_11 N 0.11001(4) 0.02696(6) 0.38999(4)
C31_11 C 0.14537(5) 0.04330(9) 0.35463(5)
H21_11 H 0.152825 0.078449 0.347175
C32_13 C 0.16974(8) -0.000000 0.33026(8)
C33_13 C 0.21057(8) -0.000000 0.28943(8)
C36_11 C 0.23076(7) 0.04605(11) 0.26924(7)
H24_11 H 0.218135 0.078113 0.281865
C26_14 C 0.33026(8) 1.000000 0.16974(8)
C27_14 C 0.28943(8) 1.000000 0.21057(8)
C28_11 C 0.26924(7) 0.95395(11) 0.23076(7)
H18_11 H 0.281865 0.921887 0.218135
N10_11 N 0.38999(4) 0.97304(6) 0.11001(4)
C29_11 C 0.35463(5) 0.95670(9) 0.14537(5)
H19_11 H 0.347175 0.921551 0.152825
C32_14 C 0.16974(8) 1.000000 0.33026(8)
C33_14 C 0.21057(8) 1.000000 0.28943(8)
C34_11 C 0.23076(7) 0.95395(11) 0.26924(7)
H22_11 H 0.218135 0.921887 0.281865
N12_11 N 0.11001(4) 0.97304(6) 0.38999(4)
C35_11 C 0.14537(5) 0.95670(9) 0.35463(5)
H23_11 H 0.152825 0.921551 0.347175
C26_15 C 0.33026(8) 0.000000 0.83026(8)
C27_15 C 0.28943(8) 0.000000 0.78943(8)
C28_12 C 0.26924(7) 0.04605(11) 0.76924(7)
H18_12 H 0.281865 0.078113 0.781865
N10_12 N 0.38999(4) 0.02696(6) 0.88999(4)
C29_12 C 0.35463(5) 0.04330(9) 0.85463(5)
H19_12 H 0.347175 0.078449 0.847175
C32_15 C 0.16974(8) 0.000000 0.66974(8)
C33_15 C 0.21057(8) 0.000000 0.71057(8)
C34_12 C 0.23076(7) 0.04605(11) 0.73076(7)
H22_12 H 0.218135 0.078113 0.718135
N12_12 N 0.11001(4) 0.02696(6) 0.61001(4)
C35_12 C 0.14537(5) 0.04330(9) 0.64537(5)
H23_12 H 0.152825 0.078449 0.652825
C25_12 C 0.35463(5) 0.95670(9) 0.85463(5)
H17_12 H 0.347175 0.921551 0.847175
C26_16 C 0.33026(8) 1.000000 0.83026(8)
C27_16 C 0.28943(8) 1.000000 0.78943(8)
C30_12 C 0.26924(7) 0.95395(11) 0.76924(7)
H20_12 H 0.281865 0.921887 0.781865
N11_12 N 0.11001(4) 0.97304(6) 0.61001(4)
C31_12 C 0.14537(5) 0.95670(9) 0.64537(5)
H21_12 H 0.152825 0.921551 0.652825
C32_16 C 0.16974(8) 1.000000 0.66974(8)
C33_16 C 0.21057(8) 1.000000 0.71057(8)
C36_12 C 0.23076(7) 0.95395(11) 0.73076(7)
H24_12 H 0.218135 0.921887 0.718135
C26_17 C 0.000000 0.66974(8) 0.16974(8)
C27_17 C 0.000000 0.71057(8) 0.21057(8)
C28_13 C 0.04605(11) 0.73076(7) 0.23076(7)
H18_13 H 0.078113 0.718135 0.218135
N10_13 N 0.02696(6) 0.61001(4) 0.11001(4)
C29_13 C 0.04330(9) 0.64537(5) 0.14537(5)
H19_13 H 0.078449 0.652825 0.152825
C32_17 C 0.000000 0.83026(8) 0.33026(8)
C33_17 C 0.000000 0.78943(8) 0.28943(8)
C34_13 C 0.04605(11) 0.76924(7) 0.26924(7)
H22_13 H 0.078113 0.781865 0.281865
N12_13 N 0.02696(6) 0.88999(4) 0.38999(4)
C35_13 C 0.04330(9) 0.85463(5) 0.35463(5)
H23_13 H 0.078449 0.847175 0.347175
O3_6 O 0.07936(10) 0.500000 0.000000
O4_4 O 0.000000 0.500000 0.07936(10)
O5_4 O -0.000000 0.42064(10) 0.000000
O6_4 O 0.000000 0.57936(10) 0.000000
N16_2 N 0.02696(6) 0.38999(4) 0.11001(4)
O1_4 O -0.000000 0.500000 0.92064(10)
O3_7 O 0.07936(10) 0.500000 1.000000
O5_5 O -0.000000 0.42064(10) 1.000000
O6_5 O 0.000000 0.57936(10) 1.000000
N17_2 N 0.02696(6) 0.61001(4) 0.88999(4)
O2_6 O 0.92064(10) 0.500000 0.000000
N9_2 N 0.97304(6) 0.61001(4) 0.11001(4)
C25_13 C 0.95670(9) 0.64537(5) 0.14537(5)
H17_13 H 0.921551 0.652825 0.152825
C26_18 C 1.000000 0.66974(8) 0.16974(8)
C27_18 C 1.000000 0.71057(8) 0.21057(8)
C30_13 C 0.95395(11) 0.73076(7) 0.23076(7)
H20_13 H 0.921887 0.718135 0.218135
N11_13 N 0.97304(6) 0.88999(4) 0.38999(4)
C31_13 C 0.95670(9) 0.85463(5) 0.35463(5)
H21_13 H 0.921551 0.847175 0.347175
C32_18 C 1.000000 0.83026(8) 0.33026(8)
C33_18 C 1.000000 0.78943(8) 0.28943(8)
C36_13 C 0.95395(11) 0.76924(7) 0.26924(7)
H24_13 H 0.921887 0.781865 0.281865
O4_5 O 1.000000 0.500000 0.07936(10)
O5_6 O 1.000000 0.42064(10) 0.000000
O6_6 O 1.000000 0.57936(10) 0.000000
O1_5 O 1.000000 0.500000 0.92064(10)
O2_7 O 0.92064(10) 0.500000 1.000000
O5_7 O 1.000000 0.42064(10) 1.000000
O6_7 O 1.000000 0.57936(10) 1.000000
N15_2 N 0.97304(6) 0.38999(4) 0.88999(4)
C25_14 C 0.04330(9) 0.35463(5) 0.14537(5)
H17_14 H 0.078449 0.347175 0.152825
C26_19 C -0.000000 0.33026(8) 0.16974(8)
C27_19 C -0.000000 0.28943(8) 0.21057(8)
C30_14 C 0.04605(11) 0.26924(7) 0.23076(7)
H20_14 H 0.078113 0.281865 0.218135
N11_14 N 0.02696(6) 0.11001(4) 0.38999(4)
C31_14 C 0.04330(9) 0.14537(5) 0.35463(5)
H21_14 H 0.078449 0.152825 0.347175
C32_19 C -0.000000 0.16974(8) 0.33026(8)
C33_19 C -0.000000 0.21057(8) 0.28943(8)
C36_14 C 0.04605(11) 0.23076(7) 0.26924(7)
H24_14 H 0.078113 0.218135 0.281865
C26_20 C 1.000000 0.33026(8) 0.16974(8)
C27_20 C 1.000000 0.28943(8) 0.21057(8)
C28_14 C 0.95395(11) 0.26924(7) 0.23076(7)
H18_14 H 0.921887 0.281865 0.218135
N10_14 N 0.97304(6) 0.38999(4) 0.11001(4)
C29_14 C 0.95670(9) 0.35463(5) 0.14537(5)
H19_14 H 0.921551 0.347175 0.152825
C32_20 C 1.000000 0.16974(8) 0.33026(8)
C33_20 C 1.000000 0.21057(8) 0.28943(8)
C34_14 C 0.95395(11) 0.23076(7) 0.26924(7)
H22_14 H 0.921887 0.218135 0.281865
N12_14 N 0.97304(6) 0.11001(4) 0.38999(4)
C35_14 C 0.95670(9) 0.14537(5) 0.35463(5)
H23_14 H 0.921551 0.152825 0.347175
C25_15 C 0.04330(9) 0.64537(5) 0.85463(5)
H17_15 H 0.078449 0.652825 0.847175
C26_21 C -0.000000 0.66974(8) 0.83026(8)
C27_21 C -0.000000 0.71057(8) 0.78943(8)
C30_15 C 0.04605(11) 0.73076(7) 0.76924(7)
H20_15 H 0.078113 0.718135 0.781865
N11_15 N 0.02696(6) 0.88999(4) 0.61001(4)
C31_15 C 0.04330(9) 0.85463(5) 0.64537(5)
H21_15 H 0.078449 0.847175 0.652825
C32_21 C -0.000000 0.83026(8) 0.66974(8)
C33_21 C -0.000000 0.78943(8) 0.71057(8)
C36_15 C 0.04605(11) 0.76924(7) 0.73076(7)
H24_15 H 0.078113 0.781865 0.718135
C26_22 C 1.000000 0.66974(8) 0.83026(8)
C27_22 C 1.000000 0.71057(8) 0.78943(8)
C28_15 C 0.95395(11) 0.73076(7) 0.76924(7)
H18_15 H 0.921887 0.718135 0.781865
N10_15 N 0.97304(6) 0.61001(4) 0.88999(4)
C29_15 C 0.95670(9) 0.64537(5) 0.85463(5)
H19_15 H 0.921551 0.652825 0.847175
C32_22 C 1.000000 0.83026(8) 0.66974(8)
C33_22 C 1.000000 0.78943(8) 0.71057(8)
C34_15 C 0.95395(11) 0.76924(7) 0.73076(7)
H22_15 H 0.921887 0.781865 0.718135
N12_15 N 0.97304(6) 0.88999(4) 0.61001(4)
C35_15 C 0.95670(9) 0.85463(5) 0.64537(5)
H23_15 H 0.921551 0.847175 0.652825
C26_23 C 0.000000 0.33026(8) 0.83026(8)
C27_23 C 0.000000 0.28943(8) 0.78943(8)
C28_16 C 0.04605(11) 0.26924(7) 0.76924(7)
H18_16 H 0.078113 0.281865 0.781865
N10_16 N 0.02696(6) 0.38999(4) 0.88999(4)
C29_16 C 0.04330(9) 0.35463(5) 0.85463(5)
H19_16 H 0.078449 0.347175 0.847175
C32_23 C 0.000000 0.16974(8) 0.66974(8)
C33_23 C 0.000000 0.21057(8) 0.71057(8)
C34_16 C 0.04605(11) 0.23076(7) 0.73076(7)
H22_16 H 0.078113 0.218135 0.718135
N12_16 N 0.02696(6) 0.11001(4) 0.61001(4)
C35_16 C 0.04330(9) 0.14537(5) 0.64537(5)
H23_16 H 0.078449 0.152825 0.652825
C25_16 C 0.95670(9) 0.35463(5) 0.85463(5)
H17_16 H 0.921551 0.347175 0.847175
C26_24 C 1.000000 0.33026(8) 0.83026(8)
C27_24 C 1.000000 0.28943(8) 0.78943(8)
C30_16 C 0.95395(11) 0.26924(7) 0.76924(7)
H20_16 H 0.921887 0.281865 0.781865
N11_16 N 0.97304(6) 0.11001(4) 0.61001(4)
C31_16 C 0.95670(9) 0.14537(5) 0.64537(5)
H21_16 H 0.921551 0.152825 0.652825
C32_24 C 1.000000 0.16974(8) 0.66974(8)
C33_24 C 1.000000 0.21057(8) 0.71057(8)
C36_16 C 0.95395(11) 0.23076(7) 0.73076(7)
H24_16 H 0.921887 0.218135 0.718135
O1_6 O -0.000000 -0.000000 0.42064(10)
O3_8 O 0.07936(10) -0.000000 0.500000
O4_6 O 0.000000 0.000000 0.57936(10)
O6_8 O 0.000000 0.07936(10) 0.500000
O1_7 O -0.000000 1.000000 0.42064(10)
O3_9 O 0.07936(10) 1.000000 0.500000
O4_7 O 0.000000 1.000000 0.57936(10)
O5_8 O -0.000000 0.92064(10) 0.500000
O1_8 O 1.000000 -0.000000 0.42064(10)
O2_8 O 0.92064(10) -0.000000 0.500000
O4_8 O 1.000000 0.000000 0.57936(10)
O6_9 O 1.000000 0.07936(10) 0.500000
O1_9 O 1.000000 1.000000 0.42064(10)
O2_9 O 0.92064(10) 1.000000 0.500000
O4_9 O 1.000000 1.000000 0.57936(10)
O5_9 O 1.000000 0.92064(10) 0.500000
loop_
_geom_bond_atom_site_label_1
_geom_bond_atom_site_label_2
_geom_bond_site_symmetry_1
_geom_bond_site_symmetry_2
Ni1 O1 1_555 1_555
O1 Ni2 1_555 1_555
N1 Ni1 1_555 1_555
C1 N1 1_555 1_555
H1 C1 1_555 1_555
C2 C1 1_555 1_555
C3 C2 1_555 1_555
C4 C3 1_555 1_555
H2 C4 1_555 1_555
N2 N1 1_555 1_555
C5 C2 1_555 1_555
H3 C5 1_555 1_555
C6 C3 1_555 1_555
H4 C6 1_555 1_555
N3 C7 1_555 1_555
C7 H5 1_555 1_555
C8 C7 1_555 1_555
C9 C8 1_555 1_555
C10 C4 1_555 1_555
H6 C10 1_555 1_555
N4 N3 1_555 1_555
C11 C8 1_555 1_555
H7 C11 1_555 1_555
C12 C6 1_555 1_555
H8 C12 1_555 1_555
Ni2 N5 1_555 1_555
N5 C13 1_555 1_555
C13 H9 1_555 1_555
C14 C13 1_555 1_555
C15 C14 1_555 1_555
C16 C15 1_555 1_555
H10 C16 1_555 1_555
N6 N5 1_555 1_555
C17 C14 1_555 1_555
H11 C17 1_555 1_555
C18 C15 1_555 1_555
H12 C18 1_555 1_555
N7 C19 1_555 1_555
C19 H13 1_555 1_555
C20 C19 1_555 1_555
C21 C20 1_555 1_555
C22 C16 1_555 1_555
H14 C22 1_555 1_555
N8 N7 1_555 1_555
C23 C20 1_555 1_555
H15 C23 1_555 1_555
C24 C18 1_555 1_555
H16 C24 1_555 1_555
Ni3 O2 1_555 1_555
O2 Ni2 1_555 1_555
N9 Ni3 1_555 1_555
C25 N9 1_555 1_555
H17 C25 1_555 1_555
C26 C25 1_555 1_555
C27 C26 1_555 1_555
C28 C27 1_555 1_555
H18 C28 1_555 1_555
N10 N9 1_555 1_555
C29 C26 1_555 1_555
H19 C29 1_555 1_555
C30 C27 1_555 1_555
H20 C30 1_555 1_555
N11 C31 1_555 1_555
C31 H21 1_555 1_555
C32 C31 1_555 1_555
C33 C32 1_555 1_555
C34 C28 1_555 1_555
H22 C34 1_555 1_555
N12 N11 1_555 1_555
C35 C32 1_555 1_555
H23 C35 1_555 1_555
C36 C30 1_555 1_555
H24 C36 1_555 1_555
Ni4 O3 1_555 1_555
O3 Ni1 1_555 1_555
Ni5 N2 1_555 1_555
Ni6 N6 1_555 1_555
Ni7 O1 1_555 1_555
Ni8 O1 1_555 1_555
Ni9 N11 1_555 1_555
Ni10 N12 1_555 1_555
Ni11 N7 1_555 1_555
Ni12 N3 1_555 1_555
Ni13 N8 1_555 1_555
Ni14 N4 1_555 1_555
O4 Ni3 1_555 1_555
O5 Ni2 1_555 1_555
O6 Ni1 1_555 1_555
N13 Ni3 1_555 1_555
N14 Ni4 1_555 1_555
N15 Ni2 1_555 1_555
N16 Ni4 1_555 1_555
N17 Ni1 1_555 1_555
N18 Ni4 1_555 1_555
N19 Ni2 1_555 1_555
N20 Ni1 1_555 1_555
N21 Ni3 1_555 1_555
N2 C5 1_555 1_555
C9 C10 1_555 1_555
C9 C12 1_555 1_555
N4 C11 1_555 1_555
N6 C17 1_555 1_555
C21 C22 1_555 1_555
C21 C24 1_555 1_555
N8 C23 1_555 1_555
Ni3 O6 1_555 1_555
O2 Ni6 1_555 1_555
O2 Ni8 1_555 1_555
N10 C29 1_555 1_555
N10 Ni5 1_555 1_555
C33 C34 1_555 1_555
C33 C36 1_555 1_555
N12 C35 1_555 1_555
Ni4 O4 1_555 1_555
Ni4 O5 1_555 1_555
O3 Ni5 1_555 1_555
O3 Ni7 1_555 1_555
Ni5 O4 1_555 1_555
Ni5 O6 1_555 1_555
Ni6 O4 1_555 1_555
Ni6 O5 1_555 1_555
Ni7 O5 1_555 1_555
Ni8 O6 1_555 1_555
C25_2 N16 1_555 1_555
H17_2 C25_2 1_555 1_555
C26_2 C25_2 1_555 1_555
C27_2 C26_2 1_555 1_555
C28_2 C27_2 1_555 1_555
H18_2 C28_2 1_555 1_555
N10_2 N16 1_555 1_555
C29_2 C26_2 1_555 1_555
H19_2 C29_2 1_555 1_555
C30_2 C27_2 1_555 1_555
H20_2 C30_2 1_555 1_555
N11_2 C31_2 1_555 1_555
C31_2 H21_2 1_555 1_555
C32_2 C31_2 1_555 1_555
C33_2 C32_2 1_555 1_555
C34_2 C28_2 1_555 1_555
H22_2 C34_2 1_555 1_555
N12_2 N11_2 1_555 1_555
C35_2 C32_2 1_555 1_555
H23_2 C35_2 1_555 1_555
C36_2 C30_2 1_555 1_555
H24_2 C36_2 1_555 1_555
Ni9_2 N11_2 1_555 1_555
Ni10_2 N12_2 1_555 1_555
N10_2 C29_2 1_555 1_555
N10_2 Ni6 1_555 1_555
C33_2 C34_2 1_555 1_555
C33_2 C36_2 1_555 1_555
N12_2 C35_2 1_555 1_555
C1_2 N13 1_555 1_555
H1_2 C1_2 1_555 1_555
C2_2 C1_2 1_555 1_555
C3_2 C2_2 1_555 1_555
C4_2 C3_2 1_555 1_555
H2_2 C4_2 1_555 1_555
N2_2 N13 1_555 1_555
C5_2 C2_2 1_555 1_555
H3_2 C5_2 1_555 1_555
C6_2 C3_2 1_555 1_555
H4_2 C6_2 1_555 1_555
N3_2 C7_2 1_555 1_555
C7_2 H5_2 1_555 1_555
C8_2 C7_2 1_555 1_555
C9_2 C8_2 1_555 1_555
C10_2 C4_2 1_555 1_555
H6_2 C10_2 1_555 1_555
N4_2 N3_2 1_555 1_555
C11_2 C8_2 1_555 1_555
H7_2 C11_2 1_555 1_555
C12_2 C6_2 1_555 1_555
H8_2 C12_2 1_555 1_555
N14 C13_2 1_555 1_555
C13_2 H9_2 1_555 1_555
C14_2 C13_2 1_555 1_555
C15_2 C14_2 1_555 1_555
C16_2 C15_2 1_555 1_555
H10_2 C16_2 1_555 1_555
N6_2 N14 1_555 1_555
C17_2 C14_2 1_555 1_555
H11_2 C17_2 1_555 1_555
C18_2 C15_2 1_555 1_555
H12_2 C18_2 1_555 1_555
N7_2 C19_2 1_555 1_555
C19_2 H13_2 1_555 1_555
C20_2 C19_2 1_555 1_555
C21_2 C20_2 1_555 1_555
C22_2 C16_2 1_555 1_555
H14_2 C22_2 1_555 1_555
N8_2 N7_2 1_555 1_555
C23_2 C20_2 1_555 1_555
H15_2 C23_2 1_555 1_555
C24_2 C18_2 1_555 1_555
H16_2 C24_2 1_555 1_555
C25_3 N17 1_555 1_555
H17_3 C25_3 1_555 1_555
C26_3 C25_3 1_555 1_555
C27_3 C26_3 1_555 1_555
C28_3 C27_3 1_555 1_555
H18_3 C28_3 1_555 1_555
N10_3 N17 1_555 1_555
C29_3 C26_3 1_555 1_555
H19_3 C29_3 1_555 1_555
C30_3 C27_3 1_555 1_555
H20_3 C30_3 1_555 1_555
N11_3 C31_3 1_555 1_555
C31_3 H21_3 1_555 1_555
C32_3 C31_3 1_555 1_555
C33_3 C32_3 1_555 1_555
C34_3 C28_3 1_555 1_555
H22_3 C34_3 1_555 1_555
N12_3 N11_3 1_555 1_555
C35_3 C32_3 1_555 1_555
H23_3 C35_3 1_555 1_555
C36_3 C30_3 1_555 1_555
H24_3 C36_3 1_555 1_555
Ni8 N2_2 1_555 1_555
Ni7 N6_2 1_555 1_555
Ni9_3 N11_3 1_555 1_555
Ni10_3 N12_3 1_555 1_555
Ni11_2 N7_2 1_555 1_555
Ni12_2 N3_2 1_555 1_555
Ni13_2 N8_2 1_555 1_555
Ni14_2 N4_2 1_555 1_555
N2_2 C5_2 1_555 1_555
C9_2 C10_2 1_555 1_555
C9_2 C12_2 1_555 1_555
N4_2 C11_2 1_555 1_555
N6_2 C17_2 1_555 1_555
C21_2 C22_2 1_555 1_555
C21_2 C24_2 1_555 1_555
N8_2 C23_2 1_555 1_555
N10_3 C29_3 1_555 1_555
N10_3 Ni8 1_555 1_555
C33_3 C34_3 1_555 1_555
C33_3 C36_3 1_555 1_555
N12_3 C35_3 1_555 1_555
C25_4 N15 1_555 1_555
H17_4 C25_4 1_555 1_555
C26_4 C25_4 1_555 1_555
C27_4 C26_4 1_555 1_555
C28_4 C27_4 1_555 1_555
H18_4 C28_4 1_555 1_555
N10_4 N15 1_555 1_555
C29_4 C26_4 1_555 1_555
H19_4 C29_4 1_555 1_555
C30_4 C27_4 1_555 1_555
H20_4 C30_4 1_555 1_555
N11_4 C31_4 1_555 1_555
C31_4 H21_4 1_555 1_555
C32_4 C31_4 1_555 1_555
C33_4 C32_4 1_555 1_555
C34_4 C28_4 1_555 1_555
H22_4 C34_4 1_555 1_555
N12_4 N11_4 1_555 1_555
C35_4 C32_4 1_555 1_555
H23_4 C35_4 1_555 1_555
C36_4 C30_4 1_555 1_555
H24_4 C36_4 1_555 1_555
Ni9_4 N11_4 1_555 1_555
Ni10_4 N12_4 1_555 1_555
N10_4 C29_4 1_555 1_555
N10_4 Ni7 1_555 1_555
C33_4 C34_4 1_555 1_555
C33_4 C36_4 1_555 1_555
N12_4 C35_4 1_555 1_555
C25_5 N18 1_555 1_555
H17_5 C25_5 1_555 1_555
C26_5 C25_5 1_555 1_555
C27_5 C26_5 1_555 1_555
C28_5 C27_5 1_555 1_555
H18_5 C28_5 1_555 1_555
N10_5 N18 1_555 1_555
C29_5 C26_5 1_555 1_555
H19_5 C29_5 1_555 1_555
C30_5 C27_5 1_555 1_555
H20_5 C30_5 1_555 1_555
N11_5 C31_5 1_555 1_555
C31_5 H21_5 1_555 1_555
C32_5 C31_5 1_555 1_555
C33_5 C32_5 1_555 1_555
C34_5 C28_5 1_555 1_555
H22_5 C34_5 1_555 1_555
N12_5 N11_5 1_555 1_555
C35_5 C32_5 1_555 1_555
H23_5 C35_5 1_555 1_555
C36_5 C30_5 1_555 1_555
H24_5 C36_5 1_555 1_555
Ni9_5 N11_5 1_555 1_555
Ni10_5 N12_5 1_555 1_555
N10_5 C29_5 1_555 1_555
N10_5 Ni5 1_555 1_555
C33_5 C34_5 1_555 1_555
C33_5 C36_5 1_555 1_555
N12_5 C35_5 1_555 1_555
C25_6 N20 1_555 1_555
H17_6 C25_6 1_555 1_555
C26_6 C25_6 1_555 1_555
C27_6 C26_6 1_555 1_555
C28_6 C27_6 1_555 1_555
H18_6 C28_6 1_555 1_555
N10_6 N20 1_555 1_555
C29_6 C26_6 1_555 1_555
H19_6 C29_6 1_555 1_555
C30_6 C27_6 1_555 1_555
H20_6 C30_6 1_555 1_555
N11_6 C31_6 1_555 1_555
C31_6 H21_6 1_555 1_555
C32_6 C31_6 1_555 1_555
C33_6 C32_6 1_555 1_555
C34_6 C28_6 1_555 1_555
H22_6 C34_6 1_555 1_555
N12_6 N11_6 1_555 1_555
C35_6 C32_6 1_555 1_555
H23_6 C35_6 1_555 1_555
C36_6 C30_6 1_555 1_555
H24_6 C36_6 1_555 1_555
Ni9_6 N11_6 1_555 1_555
Ni10_6 N12_6 1_555 1_555
N10_6 C29_6 1_555 1_555
N10_6 Ni7 1_555 1_555
C33_6 C34_6 1_555 1_555
C33_6 C36_6 1_555 1_555
N12_6 C35_6 1_555 1_555
C25_7 N21 1_555 1_555
H17_7 C25_7 1_555 1_555
C26_7 C25_7 1_555 1_555
C27_7 C26_7 1_555 1_555
C28_7 C27_7 1_555 1_555
H18_7 C28_7 1_555 1_555
N10_7 N21 1_555 1_555
C29_7 C26_7 1_555 1_555
H19_7 C29_7 1_555 1_555
C30_7 C27_7 1_555 1_555
H20_7 C30_7 1_555 1_555
N11_7 C31_7 1_555 1_555
C31_7 H21_7 1_555 1_555
C32_7 C31_7 1_555 1_555
C33_7 C32_7 1_555 1_555
C34_7 C28_7 1_555 1_555
H22_7 C34_7 1_555 1_555
N12_7 N11_7 1_555 1_555
C35_7 C32_7 1_555 1_555
H23_7 C35_7 1_555 1_555
C36_7 C30_7 1_555 1_555
H24_7 C36_7 1_555 1_555
Ni9_7 N11_7 1_555 1_555
Ni10_7 N12_7 1_555 1_555
N10_7 C29_7 1_555 1_555
N10_7 Ni6 1_555 1_555
C33_7 C34_7 1_555 1_555
C33_7 C36_7 1_555 1_555
N12_7 C35_7 1_555 1_555
C25_8 N19 1_555 1_555
H17_8 C25_8 1_555 1_555
C26_8 C25_8 1_555 1_555
C27_8 C26_8 1_555 1_555
C28_8 C27_8 1_555 1_555
H18_8 C28_8 1_555 1_555
N10_8 N19 1_555 1_555
C29_8 C26_8 1_555 1_555
H19_8 C29_8 1_555 1_555
C30_8 C27_8 1_555 1_555
H20_8 C30_8 1_555 1_555
N11_8 C31_8 1_555 1_555
C31_8 H21_8 1_555 1_555
C32_8 C31_8 1_555 1_555
C33_8 C32_8 1_555 1_555
C34_8 C28_8 1_555 1_555
H22_8 C34_8 1_555 1_555
N12_8 N11_8 1_555 1_555
C35_8 C32_8 1_555 1_555
H23_8 C35_8 1_555 1_555
C36_8 C30_8 1_555 1_555
H24_8 C36_8 1_555 1_555
Ni9_8 N11_8 1_555 1_555
Ni10_8 N12_8 1_555 1_555
N10_8 C29_8 1_555 1_555
N10_8 Ni8 1_555 1_555
C33_8 C34_8 1_555 1_555
C33_8 C36_8 1_555 1_555
N12_8 C35_8 1_555 1_555
C3_3 C2_3 1_555 1_555
C4_3 C3_3 1_555 1_555
H2_3 C4_3 1_555 1_555
C5_3 C2_3 1_555 1_555
H3_3 C5_3 1_555 1_555
C9_3 C8_3 1_555 1_555
C10_3 C4_3 1_555 1_555
H6_3 C10_3 1_555 1_555
C11_3 C8_3 1_555 1_555
H7_3 C11_3 1_555 1_555
Ni9_4 O2_2 1_555 1_555
Ni10_4 N2_3 1_555 1_555
Ni10_6 N4_3 1_555 1_555
O4_2 Ni9_4 1_555 1_555
N13_2 Ni9_4 1_555 1_555
N21_2 Ni9_4 1_555 1_555
N2_3 C5_3 1_555 1_555
C9_3 C10_3 1_555 1_555
N4_3 C11_3 1_555 1_555
Ni9_4 O6_2 1_555 1_555
O3_2 Ni10_4 1_555 1_555
Ni10_4 O4_2 1_555 1_555
Ni10_4 O6_2 1_555 1_555
Ni9_2 O1_2 1_555 1_555
N1_2 Ni9_2 1_555 1_555
C1_3 N1_2 1_555 1_555
H1_3 C1_3 1_555 1_555
C2_4 C1_3 1_555 1_555
C3_4 C2_4 1_555 1_555
C6_3 C3_4 1_555 1_555
H4_3 C6_3 1_555 1_555
N3_3 C7_3 1_555 1_555
C7_3 H5_3 1_555 1_555
C8_4 C7_3 1_555 1_555
C9_4 C8_4 1_555 1_555
C12_3 C6_3 1_555 1_555
H8_3 C12_3 1_555 1_555
O3_3 Ni9_2 1_555 1_555
Ni10_2 O1_2 1_555 1_555
Ni9_5 N3_3 1_555 1_555
O6_3 Ni9_2 1_555 1_555
N20_2 Ni9_2 1_555 1_555
C9_4 C12_3 1_555 1_555
O2_3 Ni10_2 1_555 1_555
Ni10_2 O6_3 1_555 1_555
C15_3 C14_3 1_555 1_555
C16_3 C15_3 1_555 1_555
H10_3 C16_3 1_555 1_555
C17_3 C14_3 1_555 1_555
H11_3 C17_3 1_555 1_555
C21_3 C20_3 1_555 1_555
C22_3 C16_3 1_555 1_555
H14_3 C22_3 1_555 1_555
C23_3 C20_3 1_555 1_555
H15_3 C23_3 1_555 1_555
Ni9_3 O3_4 1_555 1_555
Ni10_3 N6_3 1_555 1_555
Ni10_8 N8_3 1_555 1_555
N14_2 Ni9_3 1_555 1_555
N18_2 Ni9_3 1_555 1_555
N6_3 C17_3 1_555 1_555
C21_3 C22_3 1_555 1_555
N8_3 C23_3 1_555 1_555
O2_4 Ni10_3 1_555 1_555
Ni9_3 O4_3 1_555 1_555
Ni9_3 O5_2 1_555 1_555
Ni10_3 O4_3 1_555 1_555
Ni10_3 O5_2 1_555 1_555
O1_3 Ni9 1_555 1_555
Ni9 N5_2 1_555 1_555
N5_2 C13_3 1_555 1_555
C13_3 H9_3 1_555 1_555
C14_4 C13_3 1_555 1_555
C15_4 C14_4 1_555 1_555
C18_3 C15_4 1_555 1_555
H12_3 C18_3 1_555 1_555
N7_3 C19_3 1_555 1_555
C19_3 H13_3 1_555 1_555
C20_4 C19_3 1_555 1_555
C21_4 C20_4 1_555 1_555
C24_3 C18_3 1_555 1_555
H16_3 C24_3 1_555 1_555
O2_5 Ni9 1_555 1_555
Ni10 O1_3 1_555 1_555
Ni9_7 N7_3 1_555 1_555
O5_3 Ni9 1_555 1_555
N19_2 Ni9 1_555 1_555
C21_4 C24_3 1_555 1_555
O3_5 Ni10 1_555 1_555
Ni10 O5_3 1_555 1_555
C1_4 N13_2 1_555 1_555
H1_4 C1_4 1_555 1_555
C2_5 C1_4 1_555 1_555
C3_5 C2_5 1_555 1_555
C6_4 C3_5 1_555 1_555
H4_4 C6_4 1_555 1_555
N3_4 C7_4 1_555 1_555
C7_4 H5_4 1_555 1_555
C8_5 C7_4 1_555 1_555
C9_5 C8_5 1_555 1_555
C12_4 C6_4 1_555 1_555
H8_4 C12_4 1_555 1_555
Ni9_8 N3_4 1_555 1_555
C9_5 C12_4 1_555 1_555
C3_6 C2_6 1_555 1_555
C4_4 C3_6 1_555 1_555
H2_4 C4_4 1_555 1_555
C5_4 C2_6 1_555 1_555
H3_4 C5_4 1_555 1_555
C9_6 C8_6 1_555 1_555
C10_4 C4_4 1_555 1_555
H6_4 C10_4 1_555 1_555
C11_4 C8_6 1_555 1_555
H7_4 C11_4 1_555 1_555
Ni10_2 N2_4 1_555 1_555
Ni10_7 N4_4 1_555 1_555
N2_4 C5_4 1_555 1_555
C9_6 C10_4 1_555 1_555
N4_4 C11_4 1_555 1_555
N14_2 C13_4 1_555 1_555
C13_4 H9_4 1_555 1_555
C14_5 C13_4 1_555 1_555
C15_5 C14_5 1_555 1_555
C18_4 C15_5 1_555 1_555
H12_4 C18_4 1_555 1_555
N7_4 C19_4 1_555 1_555
C19_4 H13_4 1_555 1_555
C20_5 C19_4 1_555 1_555
C21_5 C20_5 1_555 1_555
C24_4 C18_4 1_555 1_555
H16_4 C24_4 1_555 1_555
Ni9_6 N7_4 1_555 1_555
C21_5 C24_4 1_555 1_555
C15_6 C14_6 1_555 1_555
C16_4 C15_6 1_555 1_555
H10_4 C16_4 1_555 1_555
C17_4 C14_6 1_555 1_555
H11_4 C17_4 1_555 1_555
C21_6 C20_6 1_555 1_555
C22_4 C16_4 1_555 1_555
H14_4 C22_4 1_555 1_555
C23_4 C20_6 1_555 1_555
H15_4 C23_4 1_555 1_555
Ni10 N6_4 1_555 1_555
Ni10_5 N8_4 1_555 1_555
N6_4 C17_4 1_555 1_555
C21_6 C22_4 1_555 1_555
N8_4 C23_4 1_555 1_555
C27_9 C26_9 1_555 1_555
C28_9 C27_9 1_555 1_555
H18_9 C28_9 1_555 1_555
C29_9 C26_9 1_555 1_555
H19_9 C29_9 1_555 1_555
C33_9 C32_9 1_555 1_555
C34_9 C28_9 1_555 1_555
H22_9 C34_9 1_555 1_555
C35_9 C32_9 1_555 1_555
H23_9 C35_9 1_555 1_555
Ni13_2 N12_9 1_555 1_555
N10_9 C29_9 1_555 1_555
N10_9 Ni10_4 1_555 1_555
C33_9 C34_9 1_555 1_555
N12_9 C35_9 1_555 1_555
C25_9 N18_2 1_555 1_555
H17_9 C25_9 1_555 1_555
C26_10 C25_9 1_555 1_555
C27_10 C26_10 1_555 1_555
C30_9 C27_10 1_555 1_555
H20_9 C30_9 1_555 1_555
N11_9 C31_9 1_555 1_555
C31_9 H21_9 1_555 1_555
C32_10 C31_9 1_555 1_555
C33_10 C32_10 1_555 1_555
C36_9 C30_9 1_555 1_555
H24_9 C36_9 1_555 1_555
Ni12 N11_9 1_555 1_555
C33_10 C36_9 1_555 1_555
C25_10 N20_2 1_555 1_555
H17_10 C25_10 1_555 1_555
C26_11 C25_10 1_555 1_555
C27_11 C26_11 1_555 1_555
C30_10 C27_11 1_555 1_555
H20_10 C30_10 1_555 1_555
N11_10 C31_10 1_555 1_555
C31_10 H21_10 1_555 1_555
C32_11 C31_10 1_555 1_555
C33_11 C32_11 1_555 1_555
C36_10 C30_10 1_555 1_555
H24_10 C36_10 1_555 1_555
Ni11_2 N11_10 1_555 1_555
C33_11 C36_10 1_555 1_555
C27_12 C26_12 1_555 1_555
C28_10 C27_12 1_555 1_555
H18_10 C28_10 1_555 1_555
C29_10 C26_12 1_555 1_555
H19_10 C29_10 1_555 1_555
C33_12 C32_12 1_555 1_555
C34_10 C28_10 1_555 1_555
H22_10 C34_10 1_555 1_555
C35_10 C32_12 1_555 1_555
H23_10 C35_10 1_555 1_555
Ni14 N12_10 1_555 1_555
N10_10 C29_10 1_555 1_555
N10_10 Ni10 1_555 1_555
C33_12 C34_10 1_555 1_555
N12_10 C35_10 1_555 1_555
C25_11 N21_2 1_555 1_555
H17_11 C25_11 1_555 1_555
C26_13 C25_11 1_555 1_555
C27_13 C26_13 1_555 1_555
C30_11 C27_13 1_555 1_555
H20_11 C30_11 1_555 1_555
N11_11 C31_11 1_555 1_555
C31_11 H21_11 1_555 1_555
C32_13 C31_11 1_555 1_555
C33_13 C32_13 1_555 1_555
C36_11 C30_11 1_555 1_555
H24_11 C36_11 1_555 1_555
Ni11 N11_11 1_555 1_555
C33_13 C36_11 1_555 1_555
C27_14 C26_14 1_555 1_555
C28_11 C27_14 1_555 1_555
H18_11 C28_11 1_555 1_555
C29_11 C26_14 1_555 1_555
H19_11 C29_11 1_555 1_555
C33_14 C32_14 1_555 1_555
C34_11 C28_11 1_555 1_555
H22_11 C34_11 1_555 1_555
C35_11 C32_14 1_555 1_555
H23_11 C35_11 1_555 1_555
Ni14_2 N12_11 1_555 1_555
N10_11 C29_11 1_555 1_555
N10_11 Ni10_3 1_555 1_555
C33_14 C34_11 1_555 1_555
N12_11 C35_11 1_555 1_555
C27_15 C26_15 1_555 1_555
C28_12 C27_15 1_555 1_555
H18_12 C28_12 1_555 1_555
C29_12 C26_15 1_555 1_555
H19_12 C29_12 1_555 1_555
C33_15 C32_15 1_555 1_555
C34_12 C28_12 1_555 1_555
H22_12 C34_12 1_555 1_555
C35_12 C32_15 1_555 1_555
H23_12 C35_12 1_555 1_555
Ni13 N12_12 1_555 1_555
N10_12 C29_12 1_555 1_555
N10_12 Ni10_2 1_555 1_555
C33_15 C34_12 1_555 1_555
N12_12 C35_12 1_555 1_555
C25_12 N19_2 1_555 1_555
H17_12 C25_12 1_555 1_555
C26_16 C25_12 1_555 1_555
C27_16 C26_16 1_555 1_555
C30_12 C27_16 1_555 1_555
H20_12 C30_12 1_555 1_555
N11_12 C31_12 1_555 1_555
C31_12 H21_12 1_555 1_555
C32_16 C31_12 1_555 1_555
C33_16 C32_16 1_555 1_555
C36_12 C30_12 1_555 1_555
H24_12 C36_12 1_555 1_555
Ni12_2 N11_12 1_555 1_555
C33_16 C36_12 1_555 1_555
C27_17 C26_17 1_555 1_555
C28_13 C27_17 1_555 1_555
H18_13 C28_13 1_555 1_555
C29_13 C26_17 1_555 1_555
H19_13 C29_13 1_555 1_555
C33_17 C32_17 1_555 1_555
C34_13 C28_13 1_555 1_555
H22_13 C34_13 1_555 1_555
C35_13 C32_17 1_555 1_555
H23_13 C35_13 1_555 1_555
Ni9_8 O3_6 1_555 1_555
Ni14_2 N12_13 1_555 1_555
N16_2 Ni9_8 1_555 1_555
N10_13 C29_13 1_555 1_555
N10_13 Ni10_8 1_555 1_555
C33_17 C34_13 1_555 1_555
N12_13 C35_13 1_555 1_555
Ni9_8 O4_4 1_555 1_555
Ni9_8 O5_4 1_555 1_555
O3_6 Ni10_8 1_555 1_555
Ni10_8 O4_4 1_555 1_555
Ni10_8 O6_4 1_555 1_555
Ni9_7 O1_4 1_555 1_555
O3_7 Ni9_7 1_555 1_555
Ni10_7 O1_4 1_555 1_555
O6_5 Ni9_7 1_555 1_555
N17_2 Ni9_7 1_555 1_555
O3_7 Ni10_7 1_555 1_555
Ni10_7 O5_5 1_555 1_555
Ni9_6 O2_6 1_555 1_555
N9_2 Ni9_6 1_555 1_555
C25_13 N9_2 1_555 1_555
H17_13 C25_13 1_555 1_555
C26_18 C25_13 1_555 1_555
C27_18 C26_18 1_555 1_555
C30_13 C27_18 1_555 1_555
H20_13 C30_13 1_555 1_555
N11_13 C31_13 1_555 1_555
C31_13 H21_13 1_555 1_555
C32_18 C31_13 1_555 1_555
C33_18 C32_18 1_555 1_555
C36_13 C30_13 1_555 1_555
H24_13 C36_13 1_555 1_555
Ni12 N11_13 1_555 1_555
O4_5 Ni9_6 1_555 1_555
Ni9_6 O6_6 1_555 1_555
O2_6 Ni10_6 1_555 1_555
C33_18 C36_13 1_555 1_555
Ni10_6 O4_5 1_555 1_555
Ni10_6 O5_6 1_555 1_555
O1_5 Ni9_5 1_555 1_555
O2_7 Ni9_5 1_555 1_555
Ni10_5 O1_5 1_555 1_555
O5_7 Ni9_5 1_555 1_555
N15_2 Ni9_5 1_555 1_555
O2_7 Ni10_5 1_555 1_555
Ni10_5 O6_7 1_555 1_555
C25_14 N16_2 1_555 1_555
H17_14 C25_14 1_555 1_555
C26_19 C25_14 1_555 1_555
C27_19 C26_19 1_555 1_555
C30_14 C27_19 1_555 1_555
H20_14 C30_14 1_555 1_555
N11_14 C31_14 1_555 1_555
C31_14 H21_14 1_555 1_555
C32_19 C31_14 1_555 1_555
C33_19 C32_19 1_555 1_555
C36_14 C30_14 1_555 1_555
H24_14 C36_14 1_555 1_555
Ni11 N11_14 1_555 1_555
C33_19 C36_14 1_555 1_555
C27_20 C26_20 1_555 1_555
C28_14 C27_20 1_555 1_555
H18_14 C28_14 1_555 1_555
C29_14 C26_20 1_555 1_555
H19_14 C29_14 1_555 1_555
C33_20 C32_20 1_555 1_555
C34_14 C28_14 1_555 1_555
H22_14 C34_14 1_555 1_555
C35_14 C32_20 1_555 1_555
H23_14 C35_14 1_555 1_555
Ni13_2 N12_14 1_555 1_555
N10_14 C29_14 1_555 1_555
N10_14 Ni10_6 1_555 1_555
C33_20 C34_14 1_555 1_555
N12_14 C35_14 1_555 1_555
C25_15 N17_2 1_555 1_555
H17_15 C25_15 1_555 1_555
C26_21 C25_15 1_555 1_555
C27_21 C26_21 1_555 1_555
C30_15 C27_21 1_555 1_555
H20_15 C30_15 1_555 1_555
N11_15 C31_15 1_555 1_555
C31_15 H21_15 1_555 1_555
C32_21 C31_15 1_555 1_555
C33_21 C32_21 1_555 1_555
C36_15 C30_15 1_555 1_555
H24_15 C36_15 1_555 1_555
Ni12_2 N11_15 1_555 1_555
C33_21 C36_15 1_555 1_555
C27_22 C26_22 1_555 1_555
C28_15 C27_22 1_555 1_555
H18_15 C28_15 1_555 1_555
C29_15 C26_22 1_555 1_555
H19_15 C29_15 1_555 1_555
C33_22 C32_22 1_555 1_555
C34_15 C28_15 1_555 1_555
H22_15 C34_15 1_555 1_555
C35_15 C32_22 1_555 1_555
H23_15 C35_15 1_555 1_555
Ni14 N12_15 1_555 1_555
N10_15 C29_15 1_555 1_555
N10_15 Ni10_5 1_555 1_555
C33_22 C34_15 1_555 1_555
N12_15 C35_15 1_555 1_555
C27_23 C26_23 1_555 1_555
C28_16 C27_23 1_555 1_555
H18_16 C28_16 1_555 1_555
C29_16 C26_23 1_555 1_555
H19_16 C29_16 1_555 1_555
C33_23 C32_23 1_555 1_555
C34_16 C28_16 1_555 1_555
H22_16 C34_16 1_555 1_555
C35_16 C32_23 1_555 1_555
H23_16 C35_16 1_555 1_555
Ni13 N12_16 1_555 1_555
N10_16 C29_16 1_555 1_555
N10_16 Ni10_7 1_555 1_555
C33_23 C34_16 1_555 1_555
N12_16 C35_16 1_555 1_555
C25_16 N15_2 1_555 1_555
H17_16 C25_16 1_555 1_555
C26_24 C25_16 1_555 1_555
C27_24 C26_24 1_555 1_555
C30_16 C27_24 1_555 1_555
H20_16 C30_16 1_555 1_555
N11_16 C31_16 1_555 1_555
C31_16 H21_16 1_555 1_555
C32_24 C31_16 1_555 1_555
C33_24 C32_24 1_555 1_555
C36_16 C30_16 1_555 1_555
H24_16 C36_16 1_555 1_555
Ni11_2 N11_16 1_555 1_555
C33_24 C36_16 1_555 1_555
Ni11 O1_6 1_555 1_555
O3_8 Ni11 1_555 1_555
O6_8 Ni11 1_555 1_555
O3_8 Ni13 1_555 1_555
Ni13 O4_6 1_555 1_555
Ni13 O6_8 1_555 1_555
Ni12_2 O3_9 1_555 1_555
Ni14_2 O1_7 1_555 1_555
Ni12_2 O4_7 1_555 1_555
Ni12_2 O5_8 1_555 1_555
O3_9 Ni14_2 1_555 1_555
Ni14_2 O5_8 1_555 1_555
Ni11_2 O2_8 1_555 1_555
Ni13_2 O1_8 1_555 1_555
O4_8 Ni11_2 1_555 1_555
Ni11_2 O6_9 1_555 1_555
O2_8 Ni13_2 1_555 1_555
Ni13_2 O6_9 1_555 1_555
O1_9 Ni12 1_555 1_555
O2_9 Ni12 1_555 1_555
O5_9 Ni12 1_555 1_555
O2_9 Ni14 1_555 1_555
Ni14 O4_9 1_555 1_555
Ni14 O5_9 1_555 1_555

#END
