
###############################################################################
#
# This file contains modified crystal structure data generated from the
# MOF subset of the Cambridge Structural Database (CSD) v543 
# hosted by the Cambridge Crystallographic Data Centre (CCDC).
#
# This work is licensed under the Creative Commons
# Attribution-NonCommercial-ShareAlike 4.0 International License.
# To view a copy of this license, visit
# http://creativecommons.org/licenses/by-nc-sa/4.0/
# or send a letter to
# Creative Commons, PO Box 1866, Mountain View, CA 94042, USA.
#
# CIF created using the CSD Python API on 29 September 2022
# The structure has been converted into the P1 space group
# The structure has a 3D framework
# The original CSD entry HOLYIT is in the rhombohedral crystal system
# The framework has been calculated to contain at least 10.0% void space
# The void calculation uses a probe of radius 1.32A, grid spacing 0.4
#
###############################################################################

data_HOLYIT
_chemical_formula_moiety         '(C234 H126 N84 Ni22 O8)n'
_symmetry_cell_setting           triclinic
_symmetry_space_group_name_H-M   'P 1'
_symmetry_Int_Tables_number      1
_space_group_name_Hall           'P 1'
loop_
_symmetry_equiv_pos_site_id
_symmetry_equiv_pos_as_xyz
1 x,y,z
_cell_length_a                   23.4404(13)
_cell_length_b                   23.4404(13)
_cell_length_c                   21.526(2)
_cell_angle_alpha                90
_cell_angle_beta                 90
_cell_angle_gamma                120
_cell_volume                     10242.9
loop_
_atom_site_label
_atom_site_type_symbol
_atom_site_fract_x
_atom_site_fract_y
_atom_site_fract_z
Ni1 Ni 0.666667 0.333333 0.71330(7)
Ni2 Ni 0.11472(4) 0.02865(4) 0.54070(4)
O1 O 0.05875(17) 0.07707(17) 0.55445(16)
N1 N 0.5879(2) 0.3218(2) 0.6644(2)
N2 N 0.5333(2) 0.3007(2) 0.7000(2)
N3 N 0.1827(2) 0.1531(2) 0.4794(2)
N4 N 0.1948(2) 0.1148(2) 0.5178(2)
C1 C 0.4837(3) 0.2921(3) 0.6616(3)
H1 H 0.440676 0.278265 0.674024
C2 C 0.5725(3) 0.3257(3) 0.6053(3)
H2 H 0.601340 0.338845 0.571743
C3 C 0.2600(3) 0.1455(3) 0.5285(3)
H3 H 0.281252 0.130010 0.554014
C4 C 0.5061(3) 0.3067(3) 0.6023(3)
C5 C 0.2904(3) 0.2040(3) 0.4953(3)
C6 C 0.2396(3) 0.2069(3) 0.4647(3)
H4 H 0.244428 0.240531 0.438404
C7 C 0.4011(3) 0.2587(3) 0.5451(3)
H5 H 0.381699 0.231276 0.579184
C8 C 0.4683(3) 0.3030(3) 0.5476(3)
C9 C 0.3610(3) 0.2526(3) 0.4954(3)
C10 C 0.3883(4) 0.2968(5) 0.4471(4)
H6 H 0.362352 0.295534 0.413873
C11 C 0.4959(4) 0.3483(5) 0.4986(4)
H7 H 0.540080 0.380780 0.499348
C12 C 0.4557(4) 0.3435(6) 0.4485(4)
C13 C 0.4816(6) 0.3951(7) 0.4021(6)
N5 N 0.5048(6) 0.4360(6) 0.3608(5)
Ni7 Ni -0.000000 0.000000 0.62003(7)
Ni10 Ni 0.08607(6) 0.11472(4) 0.45930(4)
Ni11 Ni 0.55195(4) 0.30468(4) 0.79263(4)
O5 O 0.07707(17) 0.01832(24) 0.44555(16)
O7 O 0.60792(17) 0.25626(17) 0.77888(16)
O8 O 0.74374(17) 0.35165(24) 0.77888(16)
O9 O 0.64835(24) 0.39208(17) 0.77888(16)
N16 N 0.6782(2) 0.2661(3) 0.6644(2)
N17 N 0.7339(3) 0.4121(2) 0.6644(2)
N18 N 0.1334(2) 0.0326(2) 0.6333(2)
N23 N 0.0296(3) 0.1827(2) 0.5206(2)
O3 O 0.01832(24) 0.94125(17) 0.55445(16)
Ni7_2 Ni -0.000000 1.000000 0.62003(7)
Ni9 Ni 0.02865(4) 0.91393(6) 0.45930(4)
N22 N 0.1531(2) 0.9704(3) 0.5206(2)
Ni3 Ni 0.97135(4) 0.08607(6) 0.54070(4)
N7 N 0.6993(2) 0.2326(3) 0.7000(2)
N8 N 0.8469(2) 0.0296(3) 0.4794(2)
N9 N 0.8852(2) 0.0800(3) 0.5178(2)
C14 C 0.7079(3) 0.1916(4) 0.6616(3)
H8 H 0.721735 0.162411 0.674024
C15 C 0.6743(3) 0.2468(4) 0.6053(3)
H9 H 0.661155 0.262495 0.571743
C16 C 0.8545(3) 0.1145(4) 0.5285(3)
H10 H 0.869990 0.151242 0.554014
C17 C 0.6933(3) 0.1994(4) 0.6023(3)
C18 C 0.7960(3) 0.0864(4) 0.4953(3)
C19 C 0.7931(3) 0.0327(4) 0.4647(3)
H11 H 0.759469 0.003897 0.438404
C20 C 0.7413(3) 0.1424(4) 0.5451(3)
H12 H 0.768724 0.150423 0.579184
C21 C 0.6970(3) 0.1653(4) 0.5476(3)
C22 C 0.7474(3) 0.1084(4) 0.4954(3)
C23 C 0.7032(5) 0.0915(6) 0.4471(4)
H13 H 0.704466 0.066818 0.413873
C24 C 0.6517(5) 0.1476(6) 0.4986(4)
H14 H 0.619220 0.159300 0.499348
C25 C 0.6565(6) 0.1122(7) 0.4485(4)
C26 C 0.6049(7) 0.0865(9) 0.4021(6)
N10 N 0.5640(6) 0.0688(8) 0.3608(5)
Ni7_3 Ni 1.000000 0.000000 0.62003(7)
Ni12 Ni 0.69532(4) 0.24726(6) 0.79263(4)
O6 O 0.98168(24) 0.05875(17) 0.44555(16)
N19 N 0.9674(2) 0.1007(3) 0.6333(2)
O2 O 0.92293(17) 0.98168(24) 0.55445(16)
Ni4 Ni 0.91393(6) 0.88528(4) 0.54070(4)
N12 N 0.7674(3) 0.4667(2) 0.7000(2)
N13 N 0.9704(3) 0.8173(2) 0.4794(2)
N14 N 0.9200(3) 0.8052(2) 0.5178(2)
C27 C 0.8084(4) 0.5163(3) 0.6616(3)
H15 H 0.837589 0.559324 0.674024
C28 C 0.7532(4) 0.4275(3) 0.6053(3)
H16 H 0.737505 0.398660 0.571743
C29 C 0.8855(4) 0.7400(3) 0.5285(3)
H17 H 0.848758 0.718748 0.554014
C30 C 0.8006(4) 0.4939(3) 0.6023(3)
C31 C 0.9136(4) 0.7096(3) 0.4953(3)
C32 C 0.9673(4) 0.7604(3) 0.4647(3)
H18 H 0.996103 0.755572 0.438404
C33 C 0.8576(4) 0.5989(3) 0.5451(3)
H19 H 0.849577 0.618301 0.579184
C34 C 0.8347(4) 0.5317(3) 0.5476(3)
C35 C 0.8916(4) 0.6390(3) 0.4954(3)
C36 C 0.9085(6) 0.6117(4) 0.4471(4)
H20 H 0.933182 0.637648 0.413873
C37 C 0.8524(6) 0.5041(4) 0.4986(4)
H21 H 0.840700 0.459920 0.499348
C38 C 0.8878(7) 0.5443(4) 0.4485(4)
C39 C 0.9135(9) 0.5184(6) 0.4021(6)
N15 N 0.9312(8) 0.4952(6) 0.3608(5)
Ni7_4 Ni 1.000000 1.000000 0.62003(7)
Ni8 Ni 0.88528(4) 0.97135(4) 0.45930(4)
Ni13 Ni 0.75274(6) 0.44805(4) 0.79263(4)
O4 O 0.94125(17) 0.92293(17) 0.44555(16)
N20 N 0.8993(3) 0.8666(2) 0.6333(2)
N21 N 0.8173(2) 0.8469(2) 0.5206(2)
Ni1_2 Ni 0.333334 0.666666 0.04663(7)
N2_2 N 0.2000(2) 0.6340(2) 0.0333(2)
H1_2 H 0.107343 0.611598 0.007357
Ni11_2 Ni 0.21861(4) 0.63802(4) 0.12597(4)
O7_2 O 0.27458(17) 0.58960(17) 0.11222(16)
O8_2 O 0.41040(17) 0.68499(24) 0.11222(16)
O9_2 O 0.31501(24) 0.72542(17) 0.11222(16)
N1_2 N 0.2546(2) 0.6551(2) 0.9977(2)
C1_2 C 0.1504(3) 0.6254(3) 0.9949(3)
C2_2 C 0.2392(3) 0.6590(3) 0.9386(3)
H2_2 H 0.268007 0.672178 0.905076
C4_2 C 0.1728(3) 0.6400(3) 0.9356(3)
C7_2 C 0.0678(3) 0.5920(3) 0.8784(3)
H5_2 H 0.048366 0.564609 0.912517
C8_2 C 0.1350(3) 0.6363(3) 0.8809(3)
C9_2 C 0.0277(3) 0.5859(3) 0.8287(3)
C10_2 C 0.0550(4) 0.6301(5) 0.7804(4)
H6_2 H 0.029019 0.628867 0.747206
C11_2 C 0.1626(4) 0.6816(5) 0.8319(4)
H7_2 H 0.206747 0.714113 0.832681
C12_2 C 0.1224(4) 0.6768(6) 0.7818(4)
C13_2 C 0.1483(6) 0.7284(7) 0.7354(6)
N5_2 N 0.1715(6) 0.7693(6) 0.6941(5)
N16_2 N 0.3449(2) 0.5994(3) 0.9977(2)
N17_2 N 0.4006(3) 0.7454(2) 0.9977(2)
N7_2 N 0.3660(2) 0.5659(3) 0.0333(2)
H8_2 H 0.388402 0.495744 0.007357
Ni12_2 Ni 0.36198(4) 0.58060(6) 0.12597(4)
Ni2_2 Ni 0.78139(4) 0.36198(4) 0.87403(4)
O1_2 O 0.72542(17) 0.41040(17) 0.88778(16)
N3_2 N 0.8494(2) 0.4864(2) 0.8127(2)
N4_2 N 0.8615(2) 0.4481(2) 0.8511(2)
C3_2 C 0.9267(3) 0.4788(3) 0.8618(3)
H3_2 H 0.947919 0.463343 0.887347
C5_2 C 0.9571(3) 0.5373(3) 0.8286(3)
C6_2 C 0.9063(3) 0.5402(3) 0.7980(3)
H4_2 H 0.911095 0.573864 0.771737
Ni3_2 Ni 0.63802(4) 0.41940(6) 0.87403(4)
O2_2 O 0.58960(17) 0.31501(24) 0.88778(16)
N8_2 N 0.5136(2) 0.3629(3) 0.8127(2)
N9_2 N 0.5519(2) 0.4133(3) 0.8511(2)
C14_2 C 0.3746(3) 0.5249(4) 0.9949(3)
C15_2 C 0.3410(3) 0.5801(4) 0.9386(3)
H9_2 H 0.327822 0.595828 0.905076
C16_2 C 0.5212(3) 0.4478(4) 0.8618(3)
H10_2 H 0.536657 0.484575 0.887347
C17_2 C 0.3600(3) 0.5327(4) 0.9356(3)
C18_2 C 0.4627(3) 0.4197(4) 0.8286(3)
C19_2 C 0.4598(3) 0.3660(4) 0.7980(3)
H11_2 H 0.426136 0.337230 0.771737
C20_2 C 0.4080(3) 0.4757(4) 0.8784(3)
H12_2 H 0.435391 0.483756 0.912517
C21_2 C 0.3637(3) 0.4986(4) 0.8809(3)
C22_2 C 0.4141(3) 0.4417(4) 0.8287(3)
C23_2 C 0.3699(5) 0.4248(6) 0.7804(4)
H13_2 H 0.371133 0.400151 0.747206
C24_2 C 0.3184(5) 0.4809(6) 0.8319(4)
H14_2 H 0.285887 0.492633 0.832681
C25_2 C 0.3232(6) 0.4455(7) 0.7818(4)
C26_2 C 0.2716(7) 0.4198(9) 0.7354(6)
N10_2 N 0.2307(6) 0.4021(8) 0.6941(5)
Ni4_2 Ni 0.58060(6) 0.21861(4) 0.87403(4)
O3_2 O 0.68499(24) 0.27458(17) 0.88778(16)
N13_2 N 0.6371(3) 0.1506(2) 0.8127(2)
N14_2 N 0.5867(3) 0.1385(2) 0.8511(2)
C29_2 C 0.5522(4) 0.0733(3) 0.8618(3)
H17_2 H 0.515425 0.052081 0.887347
C31_2 C 0.5803(4) 0.0429(3) 0.8286(3)
C32_2 C 0.6340(4) 0.0937(3) 0.7980(3)
H18_2 H 0.662770 0.088905 0.771737
Ni7_5 Ni 0.666666 0.333334 0.95337(7)
N18_2 N 0.8000(2) 0.3660(2) 0.9667(2)
N19_2 N 0.6340(2) 0.4341(3) 0.9667(2)
N20_2 N 0.5659(3) 0.2000(2) 0.9667(2)
N21_2 N 0.4840(2) 0.1802(2) 0.8539(2)
N22_2 N 0.8198(2) 0.3037(3) 0.8539(2)
N23_2 N 0.6963(3) 0.5160(2) 0.8539(2)
N12_2 N 0.4341(3) 0.8000(2) 0.0333(2)
H15_2 H 0.504256 0.892657 0.007357
Ni13_2 Ni 0.41940(6) 0.78139(4) 0.12597(4)
C27_2 C 0.4751(4) 0.8496(3) 0.9949(3)
C28_2 C 0.4199(4) 0.7608(3) 0.9386(3)
H16_2 H 0.404172 0.731993 0.905076
C30_2 C 0.4673(4) 0.8272(3) 0.9356(3)
C33_2 C 0.5243(4) 0.9322(3) 0.8784(3)
H19_2 H 0.516244 0.951634 0.912517
C34_2 C 0.5014(4) 0.8650(3) 0.8809(3)
C35_2 C 0.5583(4) 0.9723(3) 0.8287(3)
C36_2 C 0.5752(6) 0.9450(4) 0.7804(4)
H20_2 H 0.599849 0.970981 0.747206
C37_2 C 0.5191(6) 0.8374(4) 0.8319(4)
H21_2 H 0.507367 0.793253 0.832681
C38_2 C 0.5545(7) 0.8776(4) 0.7818(4)
C39_2 C 0.5802(9) 0.8517(6) 0.7354(6)
N15_2 N 0.5979(8) 0.8285(6) 0.6941(5)
Ni1_3 Ni 0.000000 -0.000000 0.37997(7)
N17_3 N 0.0672(3) 0.0788(2) 0.3311(2)
Ni1_4 Ni 0.000000 1.000000 0.37997(7)
N16_3 N 0.0115(2) 0.9328(3) 0.3311(2)
Ni1_5 Ni 1.000000 -0.000000 0.37997(7)
H2_3 H 0.934673 0.005512 0.238410
C11_3 C 0.8292(4) 0.0150(5) 0.1653(4)
H7_3 H 0.873413 0.047447 0.166015
C12_3 C 0.7890(4) 0.0102(6) 0.1152(4)
C13_3 C 0.8149(6) 0.0618(7) 0.0688(6)
N5_3 N 0.8381(6) 0.1027(6) 0.0275(5)
Ni1_6 Ni 1.000000 1.000000 0.37997(7)
Ni2_3 Ni 0.44805(4) 0.69532(4) 0.20737(4)
O1_3 O 0.39208(17) 0.74374(17) 0.22112(16)
N1_3 N 0.9212(2) 0.9885(2) 0.3311(2)
N2_3 N 0.8666(2) 0.9674(2) 0.3667(2)
N3_3 N 0.5160(2) 0.8198(2) 0.1461(2)
N4_3 N 0.5281(2) 0.7815(2) 0.1845(2)
C1_3 C 0.8170(3) 0.9588(3) 0.3283(3)
H1_3 H 0.774009 0.944932 0.340691
C2_3 C 0.9058(3) 0.9924(3) 0.2720(3)
C3_3 C 0.5933(3) 0.8122(3) 0.1952(3)
H3_3 H 0.614585 0.796677 0.220681
C4_3 C 0.8394(3) 0.9734(3) 0.2690(3)
C5_3 C 0.6237(3) 0.8707(3) 0.1620(3)
C6_3 C 0.5729(3) 0.8736(3) 0.1314(3)
H4_3 H 0.577761 0.907198 0.105071
C7_3 C 0.7344(3) 0.9254(3) 0.2118(3)
H5_3 H 0.715032 0.897943 0.245851
C8_3 C 0.8016(3) 0.9697(3) 0.2143(3)
C9_3 C 0.6943(3) 0.9193(3) 0.1621(3)
C10_3 C 0.7216(4) 0.9635(5) 0.1138(4)
H6_3 H 0.695685 0.962201 0.080540
Ni3_3 Ni 0.30468(4) 0.75274(6) 0.20737(4)
O2_3 O 0.25626(17) 0.64835(24) 0.22112(16)
N7_3 N 0.0326(2) 0.8993(3) 0.3667(2)
N8_3 N 0.1802(2) 0.6963(3) 0.1461(2)
N9_3 N 0.2185(2) 0.7467(3) 0.1845(2)
C14_3 C 0.0412(3) 0.8583(4) 0.3283(3)
H8_3 H 0.055068 0.829078 0.340691
C15_3 C 0.0076(3) 0.9135(4) 0.2720(3)
C16_3 C 0.1878(3) 0.7812(4) 0.1952(3)
H10_3 H 0.203323 0.817909 0.220681
C17_3 C 0.0266(3) 0.8661(4) 0.2690(3)
C18_3 C 0.1293(3) 0.7531(4) 0.1620(3)
C19_3 C 0.1264(3) 0.6994(4) 0.1314(3)
H11_3 H 0.092802 0.670564 0.105071
C20_3 C 0.0746(3) 0.8091(4) 0.2118(3)
H12_3 H 0.102057 0.817090 0.245851
C21_3 C 0.0303(3) 0.8320(4) 0.2143(3)
C22_3 C 0.0807(3) 0.7751(4) 0.1621(3)
C23_3 C 0.0365(5) 0.7582(6) 0.1138(4)
H13_3 H 0.037799 0.733485 0.080540
Ni4_3 Ni 0.24726(6) 0.55195(4) 0.20737(4)
O3_3 O 0.35165(24) 0.60792(17) 0.22112(16)
N12_3 N 0.1007(3) 0.1334(2) 0.3667(2)
N13_3 N 0.3037(3) 0.4840(2) 0.1461(2)
N14_3 N 0.2533(3) 0.4719(2) 0.1845(2)
C27_3 C 0.1417(4) 0.1830(3) 0.3283(3)
H15_3 H 0.170922 0.225991 0.340691
C28_3 C 0.0865(4) 0.0942(3) 0.2720(3)
H16_3 H 0.070838 0.065327 0.238410
C29_3 C 0.2188(4) 0.4067(3) 0.1952(3)
H17_3 H 0.182091 0.385415 0.220681
C30_3 C 0.1339(4) 0.1606(3) 0.2690(3)
C31_3 C 0.2469(4) 0.3763(3) 0.1620(3)
C32_3 C 0.3006(4) 0.4271(3) 0.1314(3)
H18_3 H 0.329436 0.422239 0.105071
C33_3 C 0.1909(4) 0.2656(3) 0.2118(3)
H19_3 H 0.182910 0.284968 0.245851
C34_3 C 0.1680(4) 0.1984(3) 0.2143(3)
C35_3 C 0.2249(4) 0.3057(3) 0.1621(3)
C36_3 C 0.2418(6) 0.2784(4) 0.1138(4)
H20_3 H 0.266515 0.304315 0.080540
C37_3 C 0.1857(6) 0.1708(4) 0.1653(4)
H21_3 H 0.174033 0.126587 0.166015
C38_3 C 0.2211(7) 0.2110(4) 0.1152(4)
C39_3 C 0.2468(9) 0.1851(6) 0.0688(6)
N15_3 N 0.2645(8) 0.1619(6) 0.0275(5)
Ni7_6 Ni 0.333333 0.666667 0.28670(7)
N18_3 N 0.4667(2) 0.6993(2) 0.3000(2)
N19_3 N 0.3007(2) 0.7674(3) 0.3000(2)
N20_3 N 0.2326(3) 0.5333(2) 0.3000(2)
N21_3 N 0.1506(2) 0.5136(2) 0.1873(2)
N22_3 N 0.4864(2) 0.6371(3) 0.1873(2)
N23_3 N 0.3629(3) 0.8494(2) 0.1873(2)
H9_3 H 0.994488 0.929162 0.238410
C24_3 C 0.9850(5) 0.8143(6) 0.1653(4)
H14_3 H 0.952553 0.825967 0.166015
C25_3 C 0.9898(6) 0.7789(7) 0.1152(4)
C26_3 C 0.9382(7) 0.7532(9) 0.0688(6)
N10_3 N 0.8973(6) 0.7355(8) 0.0275(5)
N11 N 0.2661(3) 0.5879(2) 0.3356(2)
N14_4 N 0.0800(3) 0.1948(2) 0.4822(2)
C27_4 C 0.1916(4) 0.4837(3) 0.3384(3)
H15_4 H 0.162411 0.440676 0.325976
C28_4 C 0.2468(4) 0.5725(3) 0.3947(3)
H16_4 H 0.262495 0.601340 0.428257
C29_4 C 0.1145(4) 0.2600(3) 0.4715(3)
H17_4 H 0.151242 0.281252 0.445986
C30_4 C 0.1994(4) 0.5061(3) 0.3977(3)
C31_4 C 0.0864(4) 0.2904(3) 0.5047(3)
C32_4 C 0.0327(4) 0.2396(3) 0.5353(3)
H18_4 H 0.003897 0.244428 0.561596
C33_4 C 0.1424(4) 0.4011(3) 0.4549(3)
H19_4 H 0.150423 0.381699 0.420816
C34_4 C 0.1653(4) 0.4683(3) 0.4524(3)
C35_4 C 0.1084(4) 0.3610(3) 0.5046(3)
C36_4 C 0.0915(6) 0.3883(4) 0.5529(4)
H20_4 H 0.066818 0.362352 0.586127
C37_4 C 0.1476(6) 0.4959(4) 0.5014(4)
H21_4 H 0.159300 0.540080 0.500652
C38_4 C 0.1122(7) 0.4557(4) 0.5515(4)
C39_4 C 0.0865(9) 0.4816(6) 0.5979(6)
N15_4 N 0.0688(8) 0.5048(6) 0.6392(5)
N6 N 0.3218(2) 0.7339(3) 0.3356(2)
N9_4 N 0.1148(2) 0.9200(3) 0.4822(2)
C14_4 C 0.2921(3) 0.8084(4) 0.3384(3)
H8_4 H 0.278265 0.837589 0.325976
C15_4 C 0.3257(3) 0.7532(4) 0.3947(3)
H9_4 H 0.338845 0.737505 0.428257
C16_4 C 0.1455(3) 0.8855(4) 0.4715(3)
H10_4 H 0.130010 0.848758 0.445986
C17_4 C 0.3067(3) 0.8006(4) 0.3977(3)
C18_4 C 0.2040(3) 0.9136(4) 0.5047(3)
C19_4 C 0.2069(3) 0.9673(4) 0.5353(3)
H11_4 H 0.240531 0.996103 0.561596
C20_4 C 0.2587(3) 0.8576(4) 0.4549(3)
H12_4 H 0.231276 0.849577 0.420816
C21_4 C 0.3030(3) 0.8347(4) 0.4524(3)
C22_4 C 0.2526(3) 0.8916(4) 0.5046(3)
C23_4 C 0.2968(5) 0.9085(6) 0.5529(4)
H13_4 H 0.295534 0.933182 0.586127
C24_4 C 0.3483(5) 0.8524(6) 0.5014(4)
H14_4 H 0.380780 0.840700 0.500652
C25_4 C 0.3435(6) 0.8878(7) 0.5515(4)
C26_4 C 0.3951(7) 0.9135(9) 0.5979(6)
N10_4 N 0.4360(6) 0.9312(8) 0.6392(5)
N1_4 N 0.4121(2) 0.6782(2) 0.3356(2)
N4_4 N 0.8052(2) 0.8852(2) 0.4822(2)
C1_4 C 0.5163(3) 0.7079(3) 0.3384(3)
H1_4 H 0.559324 0.721735 0.325976
C2_4 C 0.4275(3) 0.6743(3) 0.3947(3)
H2_4 H 0.398660 0.661155 0.428257
C3_4 C 0.7400(3) 0.8545(3) 0.4715(3)
H3_4 H 0.718748 0.869990 0.445986
C4_4 C 0.4939(3) 0.6933(3) 0.3977(3)
C5_4 C 0.7096(3) 0.7960(3) 0.5047(3)
C6_4 C 0.7604(3) 0.7931(3) 0.5353(3)
H4_4 H 0.755572 0.759469 0.561596
C7_4 C 0.5989(3) 0.7413(3) 0.4549(3)
H5_4 H 0.618301 0.768724 0.420816
C8_4 C 0.5317(3) 0.6970(3) 0.4524(3)
C9_4 C 0.6390(3) 0.7474(3) 0.5046(3)
C10_4 C 0.6117(4) 0.7032(5) 0.5529(4)
H6_4 H 0.637648 0.704466 0.586127
C11_4 C 0.5041(4) 0.6517(5) 0.5014(4)
H7_4 H 0.459920 0.619220 0.500652
C12_4 C 0.5443(4) 0.6565(6) 0.5515(4)
C13_4 C 0.5184(6) 0.6049(7) 0.5979(6)
N5_4 N 0.4952(6) 0.5640(6) 0.6392(5)
N11_2 N 0.5994(3) 0.2546(2) 0.0023(2)
C27_5 C 0.5249(4) 0.1504(3) 0.0051(3)
C28_5 C 0.5801(4) 0.2392(3) 0.0614(3)
H16_5 H 0.595828 0.268007 0.094924
C30_5 C 0.5327(4) 0.1728(3) 0.0644(3)
C33_5 C 0.4757(4) 0.0678(3) 0.1216(3)
H19_5 H 0.483756 0.048366 0.087483
C34_5 C 0.4986(4) 0.1350(3) 0.1191(3)
C35_5 C 0.4417(4) 0.0277(3) 0.1713(3)
C36_5 C 0.4248(6) 0.0550(4) 0.2196(4)
H20_5 H 0.400151 0.029019 0.252794
C37_5 C 0.4809(6) 0.1626(4) 0.1681(4)
H21_5 H 0.492633 0.206747 0.167319
C38_5 C 0.4455(7) 0.1224(4) 0.2182(4)
C39_5 C 0.4198(9) 0.1483(6) 0.2646(6)
N15_5 N 0.4021(8) 0.1715(6) 0.3059(5)
H15_5 H 0.495744 0.107343 0.992643
N4_5 N 0.1385(2) 0.5519(2) 0.1489(2)
C3_5 C 0.0733(3) 0.5212(3) 0.1382(3)
H3_5 H 0.052081 0.536657 0.112653
C5_5 C 0.0429(3) 0.4627(3) 0.1714(3)
C6_5 C 0.0937(3) 0.4598(3) 0.2020(3)
H4_5 H 0.088905 0.426136 0.228263
N6_2 N 0.6551(2) 0.4006(3) 0.0023(2)
N9_5 N 0.4481(2) 0.5867(3) 0.1489(2)
C14_5 C 0.6254(3) 0.4751(4) 0.0051(3)
C15_5 C 0.6590(3) 0.4199(4) 0.0614(3)
H9_5 H 0.672178 0.404172 0.094924
C16_5 C 0.4788(3) 0.5522(4) 0.1382(3)
H10_5 H 0.463343 0.515425 0.112653
C17_5 C 0.6400(3) 0.4673(4) 0.0644(3)
C18_5 C 0.5373(3) 0.5803(4) 0.1714(3)
C19_5 C 0.5402(3) 0.6340(4) 0.2020(3)
H11_5 H 0.573864 0.662770 0.228263
C20_5 C 0.5920(3) 0.5243(4) 0.1216(3)
H12_5 H 0.564609 0.516244 0.087483
C21_5 C 0.6363(3) 0.5014(4) 0.1191(3)
C22_5 C 0.5859(3) 0.5583(4) 0.1713(3)
C23_5 C 0.6301(5) 0.5752(6) 0.2196(4)
H13_5 H 0.628867 0.599849 0.252794
C24_5 C 0.6816(5) 0.5191(6) 0.1681(4)
H14_5 H 0.714113 0.507367 0.167319
C25_5 C 0.6768(6) 0.5545(7) 0.2182(4)
C26_5 C 0.7284(7) 0.5802(9) 0.2646(6)
N10_5 N 0.7693(6) 0.5979(8) 0.3059(5)
N14_5 N 0.4133(3) 0.8615(2) 0.1489(2)
C29_5 C 0.4478(4) 0.9267(3) 0.1382(3)
H17_5 H 0.484575 0.947919 0.112653
C31_5 C 0.4197(4) 0.9571(3) 0.1714(3)
C32_5 C 0.3660(4) 0.9063(3) 0.2020(3)
H18_5 H 0.337230 0.911095 0.228263
H8_5 H 0.611598 0.504256 0.992643
N1_5 N 0.7454(2) 0.3449(2) 0.0023(2)
C1_5 C 0.8496(3) 0.3746(3) 0.0051(3)
C2_5 C 0.7608(3) 0.3410(3) 0.0614(3)
H2_5 H 0.731993 0.327822 0.094924
C4_5 C 0.8272(3) 0.3600(3) 0.0644(3)
C7_5 C 0.9322(3) 0.4080(3) 0.1216(3)
H5_5 H 0.951634 0.435391 0.087483
C8_5 C 0.8650(3) 0.3637(3) 0.1191(3)
C9_5 C 0.9723(3) 0.4141(3) 0.1713(3)
C10_5 C 0.9450(4) 0.3699(5) 0.2196(4)
H6_5 H 0.970981 0.371133 0.252794
C11_5 C 0.8374(4) 0.3184(5) 0.1681(4)
H7_5 H 0.793253 0.285887 0.167319
C12_5 C 0.8776(4) 0.3232(6) 0.2182(4)
C13_5 C 0.8517(6) 0.2716(7) 0.2646(6)
N5_5 N 0.8285(6) 0.2307(6) 0.3059(5)
H1_5 H 0.892657 0.388402 0.992643
H9_6 H 0.005512 0.070838 0.761590
C24_6 C 0.0150(5) 0.1857(6) 0.8347(4)
H14_6 H 0.047447 0.174033 0.833985
C25_6 C 0.0102(6) 0.2211(7) 0.8848(4)
C26_6 C 0.0618(7) 0.2468(9) 0.9312(6)
N10_6 N 0.1027(6) 0.2645(8) 0.9725(5)
N1_6 N 0.0788(2) 0.0115(2) 0.6689(2)
N4_6 N 0.4719(2) 0.2185(2) 0.8155(2)
C1_6 C 0.1830(3) 0.0412(3) 0.6717(3)
H1_6 H 0.225991 0.055068 0.659309
C2_6 C 0.0942(3) 0.0076(3) 0.7280(3)
C3_6 C 0.4067(3) 0.1878(3) 0.8048(3)
H3_6 H 0.385415 0.203323 0.779319
C4_6 C 0.1606(3) 0.0266(3) 0.7310(3)
C5_6 C 0.3763(3) 0.1293(3) 0.8380(3)
C6_6 C 0.4271(3) 0.1264(3) 0.8686(3)
H4_6 H 0.422239 0.092802 0.894929
C7_6 C 0.2656(3) 0.0746(3) 0.7882(3)
H5_6 H 0.284968 0.102057 0.754149
C8_6 C 0.1984(3) 0.0303(3) 0.7857(3)
C9_6 C 0.3057(3) 0.0807(3) 0.8379(3)
C10_6 C 0.2784(4) 0.0365(5) 0.8862(4)
H6_6 H 0.304315 0.037799 0.919460
N6_3 N 0.9885(2) 0.0672(3) 0.6689(2)
N9_6 N 0.7815(2) 0.2533(3) 0.8155(2)
C14_6 C 0.9588(3) 0.1417(4) 0.6717(3)
H8_6 H 0.944932 0.170922 0.659309
C15_6 C 0.9924(3) 0.0865(4) 0.7280(3)
C16_6 C 0.8122(3) 0.2188(4) 0.8048(3)
H10_6 H 0.796677 0.182091 0.779319
C17_6 C 0.9734(3) 0.1339(4) 0.7310(3)
C18_6 C 0.8707(3) 0.2469(4) 0.8380(3)
C19_6 C 0.8736(3) 0.3006(4) 0.8686(3)
H11_6 H 0.907198 0.329436 0.894929
C20_6 C 0.9254(3) 0.1909(4) 0.7882(3)
H12_6 H 0.897943 0.182910 0.754149
C21_6 C 0.9697(3) 0.1680(4) 0.7857(3)
C22_6 C 0.9193(3) 0.2249(4) 0.8379(3)
C23_6 C 0.9635(5) 0.2418(6) 0.8862(4)
H13_6 H 0.962201 0.266515 0.919460
N11_3 N 0.9328(3) 0.9212(2) 0.6689(2)
N14_6 N 0.7467(3) 0.5281(2) 0.8155(2)
C27_6 C 0.8583(4) 0.8170(3) 0.6717(3)
H15_6 H 0.829078 0.774009 0.659309
C28_6 C 0.9135(4) 0.9058(3) 0.7280(3)
H16_6 H 0.929162 0.934673 0.761590
C29_6 C 0.7812(4) 0.5933(3) 0.8048(3)
H17_6 H 0.817909 0.614585 0.779319
C30_6 C 0.8661(4) 0.8394(3) 0.7310(3)
C31_6 C 0.7531(4) 0.6237(3) 0.8380(3)
C32_6 C 0.6994(4) 0.5729(3) 0.8686(3)
H18_6 H 0.670564 0.577761 0.894929
C33_6 C 0.8091(4) 0.7344(3) 0.7882(3)
H19_6 H 0.817090 0.715032 0.754149
C34_6 C 0.8320(4) 0.8016(3) 0.7857(3)
C35_6 C 0.7751(4) 0.6943(3) 0.8379(3)
C36_6 C 0.7582(6) 0.7216(4) 0.8862(4)
H20_6 H 0.733485 0.695685 0.919460
C37_6 C 0.8143(6) 0.8292(4) 0.8347(4)
H21_6 H 0.825967 0.873413 0.833985
C38_6 C 0.7789(7) 0.7890(4) 0.8848(4)
C39_6 C 0.7532(9) 0.8149(6) 0.9312(6)
N15_6 N 0.7355(8) 0.8381(6) 0.9725(5)
H2_6 H 0.065327 0.994488 0.761590
C11_6 C 0.1708(4) 0.9850(5) 0.8347(4)
H7_6 H 0.126587 0.952553 0.833985
C12_6 C 0.2110(4) 0.9898(6) 0.8848(4)
C13_6 C 0.1851(6) 0.9382(7) 0.9312(6)
N5_6 N 0.1619(6) 0.8973(6) 0.9725(5)
loop_
_geom_bond_atom_site_label_1
_geom_bond_atom_site_label_2
_geom_bond_site_symmetry_1
_geom_bond_site_symmetry_2
Ni1 N1 1_555 1_555
Ni2 O1 1_555 1_555
N1 N2 1_555 1_555
N2 C1 1_555 1_555
N3 N4 1_555 1_555
N4 Ni2 1_555 1_555
C1 H1 1_555 1_555
C2 N1 1_555 1_555
H2 C2 1_555 1_555
C3 N4 1_555 1_555
H3 C3 1_555 1_555
C4 C1 1_555 1_555
C5 C3 1_555 1_555
C6 N3 1_555 1_555
H4 C6 1_555 1_555
C7 H5 1_555 1_555
C8 C4 1_555 1_555
C9 C5 1_555 1_555
C10 C9 1_555 1_555
H6 C10 1_555 1_555
C11 C8 1_555 1_555
H7 C11 1_555 1_555
C12 C10 1_555 1_555
C13 C12 1_555 1_555
N5 C13 1_555 1_555
Ni7 O1 1_555 1_555
Ni10 O1 1_555 1_555
Ni11 N2 1_555 1_555
O5 Ni2 1_555 1_555
O7 Ni1 1_555 1_555
O8 Ni1 1_555 1_555
O9 Ni1 1_555 1_555
N16 Ni1 1_555 1_555
N17 Ni1 1_555 1_555
N18 Ni2 1_555 1_555
N3 Ni10 1_555 1_555
C2 C4 1_555 1_555
C5 C6 1_555 1_555
C7 C8 1_555 1_555
C7 C9 1_555 1_555
C11 C12 1_555 1_555
Ni10 O5 1_555 1_555
Ni11 O7 1_555 1_555
Ni11 O9 1_555 1_555
Ni9 O3 1_555 1_555
O3 Ni7_2 1_555 1_555
N16 N7 1_555 1_555
N7 C14 1_555 1_555
N8 N9 1_555 1_555
N9 Ni3 1_555 1_555
C14 H8 1_555 1_555
C15 N16 1_555 1_555
H9 C15 1_555 1_555
C16 N9 1_555 1_555
H10 C16 1_555 1_555
C17 C14 1_555 1_555
C18 C16 1_555 1_555
C19 N8 1_555 1_555
H11 C19 1_555 1_555
C20 H12 1_555 1_555
C21 C17 1_555 1_555
C22 C18 1_555 1_555
C23 C22 1_555 1_555
H13 C23 1_555 1_555
C24 C21 1_555 1_555
H14 C24 1_555 1_555
C25 C23 1_555 1_555
C26 C25 1_555 1_555
N10 C26 1_555 1_555
Ni12 N7 1_555 1_555
O6 Ni3 1_555 1_555
N19 Ni3 1_555 1_555
C15 C17 1_555 1_555
C18 C19 1_555 1_555
C20 C21 1_555 1_555
C20 C22 1_555 1_555
C24 C25 1_555 1_555
O2 Ni4 1_555 1_555
N17 N12 1_555 1_555
N12 C27 1_555 1_555
N13 N14 1_555 1_555
N14 Ni4 1_555 1_555
C27 H15 1_555 1_555
C28 N17 1_555 1_555
H16 C28 1_555 1_555
C29 N14 1_555 1_555
H17 C29 1_555 1_555
C30 C27 1_555 1_555
C31 C29 1_555 1_555
C32 N13 1_555 1_555
H18 C32 1_555 1_555
C33 H19 1_555 1_555
C34 C30 1_555 1_555
C35 C31 1_555 1_555
C36 C35 1_555 1_555
H20 C36 1_555 1_555
C37 C34 1_555 1_555
H21 C37 1_555 1_555
C38 C36 1_555 1_555
C39 C38 1_555 1_555
N15 C39 1_555 1_555
Ni8 O2 1_555 1_555
Ni13 N12 1_555 1_555
O4 Ni4 1_555 1_555
N20 Ni4 1_555 1_555
N21 Ni4 1_555 1_555
O2 Ni7_4 1_555 1_555
C28 C30 1_555 1_555
C31 C32 1_555 1_555
C33 C34 1_555 1_555
C33 C35 1_555 1_555
C37 C38 1_555 1_555
Ni8 O4 1_555 1_555
Ni12 O8 1_555 1_555
Ni12 O7 1_555 1_555
Ni13 O9 1_555 1_555
Ni13 O8 1_555 1_555
Ni11_2 N2_2 1_555 1_555
O7_2 Ni1_2 1_555 1_555
O8_2 Ni1_2 1_555 1_555
O9_2 Ni1_2 1_555 1_555
Ni11_2 O7_2 1_555 1_555
Ni11_2 O9_2 1_555 1_555
C2_2 N1_2 1_555 1_555
H2_2 C2_2 1_555 1_555
C4_2 C1_2 1_555 1_555
C7_2 H5_2 1_555 1_555
C8_2 C4_2 1_555 1_555
C10_2 C9_2 1_555 1_555
H6_2 C10_2 1_555 1_555
C11_2 C8_2 1_555 1_555
H7_2 C11_2 1_555 1_555
C12_2 C10_2 1_555 1_555
C13_2 C12_2 1_555 1_555
N5_2 C13_2 1_555 1_555
C2_2 C4_2 1_555 1_555
C7_2 C8_2 1_555 1_555
C7_2 C9_2 1_555 1_555
C11_2 C12_2 1_555 1_555
Ni12_2 N7_2 1_555 1_555
Ni2_2 O1_2 1_555 1_555
O1_2 Ni3_2 1_555 1_555
N3_2 N4_2 1_555 1_555
N4_2 Ni2_2 1_555 1_555
C3_2 N4_2 1_555 1_555
H3_2 C3_2 1_555 1_555
C5_2 C3_2 1_555 1_555
C6_2 N3_2 1_555 1_555
H4_2 C6_2 1_555 1_555
Ni3_2 O2_2 1_555 1_555
O2_2 Ni4_2 1_555 1_555
N8_2 N9_2 1_555 1_555
N9_2 Ni3_2 1_555 1_555
C15_2 N16_2 1_555 1_555
H9_2 C15_2 1_555 1_555
C16_2 N9_2 1_555 1_555
H10_2 C16_2 1_555 1_555
C17_2 C14_2 1_555 1_555
C18_2 C16_2 1_555 1_555
C19_2 N8_2 1_555 1_555
H11_2 C19_2 1_555 1_555
C20_2 H12_2 1_555 1_555
C21_2 C17_2 1_555 1_555
C22_2 C18_2 1_555 1_555
C23_2 C22_2 1_555 1_555
H13_2 C23_2 1_555 1_555
C24_2 C21_2 1_555 1_555
H14_2 C24_2 1_555 1_555
C25_2 C23_2 1_555 1_555
C26_2 C25_2 1_555 1_555
N10_2 C26_2 1_555 1_555
Ni4_2 O3_2 1_555 1_555
O3_2 Ni2_2 1_555 1_555
N13_2 N14_2 1_555 1_555
N14_2 Ni4_2 1_555 1_555
C29_2 N14_2 1_555 1_555
H17_2 C29_2 1_555 1_555
C31_2 C29_2 1_555 1_555
C32_2 N13_2 1_555 1_555
H18_2 C32_2 1_555 1_555
Ni7_5 O1_2 1_555 1_555
Ni11 O2_2 1_555 1_555
Ni12 O3_2 1_555 1_555
Ni13 O1_2 1_555 1_555
O7 Ni4_2 1_555 1_555
O8 Ni2_2 1_555 1_555
O9 Ni3_2 1_555 1_555
N18_2 Ni2_2 1_555 1_555
N19_2 Ni3_2 1_555 1_555
N20_2 Ni4_2 1_555 1_555
N21_2 Ni4_2 1_555 1_555
N22_2 Ni2_2 1_555 1_555
N23_2 Ni3_2 1_555 1_555
N3_2 Ni13 1_555 1_555
C5_2 C6_2 1_555 1_555
O2_2 Ni7_5 1_555 1_555
N8_2 Ni11 1_555 1_555
C15_2 C17_2 1_555 1_555
C18_2 C19_2 1_555 1_555
C20_2 C21_2 1_555 1_555
C20_2 C22_2 1_555 1_555
C24_2 C25_2 1_555 1_555
O3_2 Ni7_5 1_555 1_555
N13_2 Ni12 1_555 1_555
C31_2 C32_2 1_555 1_555
Ni13_2 N12_2 1_555 1_555
C28_2 N17_2 1_555 1_555
H16_2 C28_2 1_555 1_555
C30_2 C27_2 1_555 1_555
C33_2 H19_2 1_555 1_555
C34_2 C30_2 1_555 1_555
C36_2 C35_2 1_555 1_555
H20_2 C36_2 1_555 1_555
C37_2 C34_2 1_555 1_555
H21_2 C37_2 1_555 1_555
C38_2 C36_2 1_555 1_555
C39_2 C38_2 1_555 1_555
N15_2 C39_2 1_555 1_555
C28_2 C30_2 1_555 1_555
C33_2 C34_2 1_555 1_555
C33_2 C35_2 1_555 1_555
C37_2 C38_2 1_555 1_555
Ni12_2 O8_2 1_555 1_555
Ni12_2 O7_2 1_555 1_555
Ni13_2 O9_2 1_555 1_555
Ni13_2 O8_2 1_555 1_555
O5 Ni1_3 1_555 1_555
N17_3 Ni1_3 1_555 1_555
N16_3 Ni1_4 1_555 1_555
H7_3 C11_3 1_555 1_555
C13_3 C12_3 1_555 1_555
N5_3 C13_3 1_555 1_555
O6 Ni1_5 1_555 1_555
C11_3 C12_3 1_555 1_555
Ni1_6 N1_3 1_555 1_555
Ni2_3 O1_3 1_555 1_555
O1_3 Ni3_3 1_555 1_555
N1_3 N2_3 1_555 1_555
N2_3 C1_3 1_555 1_555
N3_3 N4_3 1_555 1_555
N4_3 Ni2_3 1_555 1_555
C1_3 H1_3 1_555 1_555
C2_3 N1_3 1_555 1_555
C3_3 N4_3 1_555 1_555
H3_3 C3_3 1_555 1_555
C4_3 C1_3 1_555 1_555
C5_3 C3_3 1_555 1_555
C6_3 N3_3 1_555 1_555
H4_3 C6_3 1_555 1_555
C7_3 H5_3 1_555 1_555
C8_3 C4_3 1_555 1_555
C9_3 C5_3 1_555 1_555
C10_3 C9_3 1_555 1_555
H6_3 C10_3 1_555 1_555
Ni3_3 O2_3 1_555 1_555
O2_3 Ni4_3 1_555 1_555
N16_3 N7_3 1_555 1_555
N7_3 C14_3 1_555 1_555
N8_3 N9_3 1_555 1_555
N9_3 Ni3_3 1_555 1_555
C14_3 H8_3 1_555 1_555
C15_3 N16_3 1_555 1_555
C16_3 N9_3 1_555 1_555
H10_3 C16_3 1_555 1_555
C17_3 C14_3 1_555 1_555
C18_3 C16_3 1_555 1_555
C19_3 N8_3 1_555 1_555
H11_3 C19_3 1_555 1_555
C20_3 H12_3 1_555 1_555
C21_3 C17_3 1_555 1_555
C22_3 C18_3 1_555 1_555
C23_3 C22_3 1_555 1_555
H13_3 C23_3 1_555 1_555
Ni4_3 O3_3 1_555 1_555
O3_3 Ni2_3 1_555 1_555
N17_3 N12_3 1_555 1_555
N12_3 C27_3 1_555 1_555
N13_3 N14_3 1_555 1_555
N14_3 Ni4_3 1_555 1_555
C27_3 H15_3 1_555 1_555
C28_3 N17_3 1_555 1_555
H16_3 C28_3 1_555 1_555
C29_3 N14_3 1_555 1_555
H17_3 C29_3 1_555 1_555
C30_3 C27_3 1_555 1_555
C31_3 C29_3 1_555 1_555
C32_3 N13_3 1_555 1_555
H18_3 C32_3 1_555 1_555
C33_3 H19_3 1_555 1_555
C34_3 C30_3 1_555 1_555
C35_3 C31_3 1_555 1_555
C36_3 C35_3 1_555 1_555
H20_3 C36_3 1_555 1_555
C37_3 C34_3 1_555 1_555
H21_3 C37_3 1_555 1_555
C38_3 C36_3 1_555 1_555
C39_3 C38_3 1_555 1_555
N15_3 C39_3 1_555 1_555
Ni7_6 O1_3 1_555 1_555
Ni11_2 O2_3 1_555 1_555
Ni12_2 O3_3 1_555 1_555
Ni13_2 O1_3 1_555 1_555
Ni8 N2_3 1_555 1_555
Ni9 N7_3 1_555 1_555
Ni10 N12_3 1_555 1_555
O7_2 Ni4_3 1_555 1_555
O8_2 Ni2_3 1_555 1_555
O9_2 Ni3_3 1_555 1_555
O4 Ni1_6 1_555 1_555
N18_3 Ni2_3 1_555 1_555
N19_3 Ni3_3 1_555 1_555
N20_3 Ni4_3 1_555 1_555
N21_3 Ni4_3 1_555 1_555
N22_3 Ni2_3 1_555 1_555
N23_3 Ni3_3 1_555 1_555
N3_3 Ni13_2 1_555 1_555
C2_3 C4_3 1_555 1_555
C5_3 C6_3 1_555 1_555
C7_3 C8_3 1_555 1_555
C7_3 C9_3 1_555 1_555
O2_3 Ni7_6 1_555 1_555
N8_3 Ni11_2 1_555 1_555
C15_3 C17_3 1_555 1_555
C18_3 C19_3 1_555 1_555
C20_3 C21_3 1_555 1_555
C20_3 C22_3 1_555 1_555
O3_3 Ni7_6 1_555 1_555
N13_3 Ni12_2 1_555 1_555
C28_3 C30_3 1_555 1_555
C31_3 C32_3 1_555 1_555
C33_3 C34_3 1_555 1_555
C33_3 C35_3 1_555 1_555
C37_3 C38_3 1_555 1_555
H14_3 C24_3 1_555 1_555
C26_3 C25_3 1_555 1_555
N10_3 C26_3 1_555 1_555
C24_3 C25_3 1_555 1_555
N11 N20_3 1_555 1_555
N20_3 C27_4 1_555 1_555
N23 N14_4 1_555 1_555
N14_4 Ni10 1_555 1_555
C27_4 H15_4 1_555 1_555
C28_4 N11 1_555 1_555
H16_4 C28_4 1_555 1_555
C29_4 N14_4 1_555 1_555
H17_4 C29_4 1_555 1_555
C30_4 C27_4 1_555 1_555
C31_4 C29_4 1_555 1_555
C32_4 N23 1_555 1_555
H18_4 C32_4 1_555 1_555
C33_4 H19_4 1_555 1_555
C34_4 C30_4 1_555 1_555
C35_4 C31_4 1_555 1_555
C36_4 C35_4 1_555 1_555
H20_4 C36_4 1_555 1_555
C37_4 C34_4 1_555 1_555
H21_4 C37_4 1_555 1_555
C38_4 C36_4 1_555 1_555
C39_4 C38_4 1_555 1_555
N15_4 C39_4 1_555 1_555
Ni7_6 N11 1_555 1_555
C28_4 C30_4 1_555 1_555
C31_4 C32_4 1_555 1_555
C33_4 C34_4 1_555 1_555
C33_4 C35_4 1_555 1_555
C37_4 C38_4 1_555 1_555
N6 N19_3 1_555 1_555
N19_3 C14_4 1_555 1_555
N22 N9_4 1_555 1_555
N9_4 Ni9 1_555 1_555
C14_4 H8_4 1_555 1_555
C15_4 N6 1_555 1_555
H9_4 C15_4 1_555 1_555
C16_4 N9_4 1_555 1_555
H10_4 C16_4 1_555 1_555
C17_4 C14_4 1_555 1_555
C18_4 C16_4 1_555 1_555
C19_4 N22 1_555 1_555
H11_4 C19_4 1_555 1_555
C20_4 H12_4 1_555 1_555
C21_4 C17_4 1_555 1_555
C22_4 C18_4 1_555 1_555
C23_4 C22_4 1_555 1_555
H13_4 C23_4 1_555 1_555
C24_4 C21_4 1_555 1_555
H14_4 C24_4 1_555 1_555
C25_4 C23_4 1_555 1_555
C26_4 C25_4 1_555 1_555
N10_4 C26_4 1_555 1_555
Ni7_6 N6 1_555 1_555
C15_4 C17_4 1_555 1_555
C18_4 C19_4 1_555 1_555
C20_4 C21_4 1_555 1_555
C20_4 C22_4 1_555 1_555
C24_4 C25_4 1_555 1_555
Ni7_6 N1_4 1_555 1_555
N1_4 N18_3 1_555 1_555
N18_3 C1_4 1_555 1_555
N21 N4_4 1_555 1_555
N4_4 Ni8 1_555 1_555
C1_4 H1_4 1_555 1_555
C2_4 N1_4 1_555 1_555
H2_4 C2_4 1_555 1_555
C3_4 N4_4 1_555 1_555
H3_4 C3_4 1_555 1_555
C4_4 C1_4 1_555 1_555
C5_4 C3_4 1_555 1_555
C6_4 N21 1_555 1_555
H4_4 C6_4 1_555 1_555
C7_4 H5_4 1_555 1_555
C8_4 C4_4 1_555 1_555
C9_4 C5_4 1_555 1_555
C10_4 C9_4 1_555 1_555
H6_4 C10_4 1_555 1_555
C11_4 C8_4 1_555 1_555
H7_4 C11_4 1_555 1_555
C12_4 C10_4 1_555 1_555
C13_4 C12_4 1_555 1_555
N5_4 C13_4 1_555 1_555
C2_4 C4_4 1_555 1_555
C5_4 C6_4 1_555 1_555
C7_4 C8_4 1_555 1_555
C7_4 C9_4 1_555 1_555
C11_4 C12_4 1_555 1_555
C28_5 N11_2 1_555 1_555
H16_5 C28_5 1_555 1_555
C30_5 C27_5 1_555 1_555
C33_5 H19_5 1_555 1_555
C34_5 C30_5 1_555 1_555
C36_5 C35_5 1_555 1_555
H20_5 C36_5 1_555 1_555
C37_5 C34_5 1_555 1_555
H21_5 C37_5 1_555 1_555
C38_5 C36_5 1_555 1_555
C39_5 C38_5 1_555 1_555
N15_5 C39_5 1_555 1_555
C28_5 C30_5 1_555 1_555
C33_5 C34_5 1_555 1_555
C33_5 C35_5 1_555 1_555
C37_5 C38_5 1_555 1_555
N21_3 N4_5 1_555 1_555
N4_5 Ni11_2 1_555 1_555
C3_5 N4_5 1_555 1_555
H3_5 C3_5 1_555 1_555
C5_5 C3_5 1_555 1_555
C6_5 N21_3 1_555 1_555
H4_5 C6_5 1_555 1_555
N22_3 N9_5 1_555 1_555
N9_5 Ni12_2 1_555 1_555
C15_5 N6_2 1_555 1_555
H9_5 C15_5 1_555 1_555
C16_5 N9_5 1_555 1_555
H10_5 C16_5 1_555 1_555
C17_5 C14_5 1_555 1_555
C18_5 C16_5 1_555 1_555
C19_5 N22_3 1_555 1_555
H11_5 C19_5 1_555 1_555
C20_5 H12_5 1_555 1_555
C21_5 C17_5 1_555 1_555
C22_5 C18_5 1_555 1_555
C23_5 C22_5 1_555 1_555
H13_5 C23_5 1_555 1_555
C24_5 C21_5 1_555 1_555
H14_5 C24_5 1_555 1_555
C25_5 C23_5 1_555 1_555
C26_5 C25_5 1_555 1_555
N10_5 C26_5 1_555 1_555
N23_3 N14_5 1_555 1_555
N14_5 Ni13_2 1_555 1_555
C29_5 N14_5 1_555 1_555
H17_5 C29_5 1_555 1_555
C31_5 C29_5 1_555 1_555
C32_5 N23_3 1_555 1_555
H18_5 C32_5 1_555 1_555
C5_5 C6_5 1_555 1_555
C15_5 C17_5 1_555 1_555
C18_5 C19_5 1_555 1_555
C20_5 C21_5 1_555 1_555
C20_5 C22_5 1_555 1_555
C24_5 C25_5 1_555 1_555
C31_5 C32_5 1_555 1_555
C2_5 N1_5 1_555 1_555
H2_5 C2_5 1_555 1_555
C4_5 C1_5 1_555 1_555
C7_5 H5_5 1_555 1_555
C8_5 C4_5 1_555 1_555
C10_5 C9_5 1_555 1_555
H6_5 C10_5 1_555 1_555
C11_5 C8_5 1_555 1_555
H7_5 C11_5 1_555 1_555
C12_5 C10_5 1_555 1_555
C13_5 C12_5 1_555 1_555
N5_5 C13_5 1_555 1_555
C2_5 C4_5 1_555 1_555
C7_5 C8_5 1_555 1_555
C7_5 C9_5 1_555 1_555
C11_5 C12_5 1_555 1_555
H14_6 C24_6 1_555 1_555
C26_6 C25_6 1_555 1_555
N10_6 C26_6 1_555 1_555
C24_6 C25_6 1_555 1_555
Ni7 N1_6 1_555 1_555
N1_6 N18 1_555 1_555
N18 C1_6 1_555 1_555
N21_2 N4_6 1_555 1_555
N4_6 Ni11 1_555 1_555
C1_6 H1_6 1_555 1_555
C2_6 N1_6 1_555 1_555
C3_6 N4_6 1_555 1_555
H3_6 C3_6 1_555 1_555
C4_6 C1_6 1_555 1_555
C5_6 C3_6 1_555 1_555
C6_6 N21_2 1_555 1_555
H4_6 C6_6 1_555 1_555
C7_6 H5_6 1_555 1_555
C8_6 C4_6 1_555 1_555
C9_6 C5_6 1_555 1_555
C10_6 C9_6 1_555 1_555
H6_6 C10_6 1_555 1_555
N6_3 N19 1_555 1_555
N19 C14_6 1_555 1_555
N22_2 N9_6 1_555 1_555
N9_6 Ni12 1_555 1_555
C14_6 H8_6 1_555 1_555
C15_6 N6_3 1_555 1_555
C16_6 N9_6 1_555 1_555
H10_6 C16_6 1_555 1_555
C17_6 C14_6 1_555 1_555
C18_6 C16_6 1_555 1_555
C19_6 N22_2 1_555 1_555
H11_6 C19_6 1_555 1_555
C20_6 H12_6 1_555 1_555
C21_6 C17_6 1_555 1_555
C22_6 C18_6 1_555 1_555
C23_6 C22_6 1_555 1_555
H13_6 C23_6 1_555 1_555
N11_3 N20 1_555 1_555
N20 C27_6 1_555 1_555
N23_2 N14_6 1_555 1_555
N14_6 Ni13 1_555 1_555
C27_6 H15_6 1_555 1_555
C28_6 N11_3 1_555 1_555
H16_6 C28_6 1_555 1_555
C29_6 N14_6 1_555 1_555
H17_6 C29_6 1_555 1_555
C30_6 C27_6 1_555 1_555
C31_6 C29_6 1_555 1_555
C32_6 N23_2 1_555 1_555
H18_6 C32_6 1_555 1_555
C33_6 H19_6 1_555 1_555
C34_6 C30_6 1_555 1_555
C35_6 C31_6 1_555 1_555
C36_6 C35_6 1_555 1_555
H20_6 C36_6 1_555 1_555
C37_6 C34_6 1_555 1_555
H21_6 C37_6 1_555 1_555
C38_6 C36_6 1_555 1_555
C39_6 C38_6 1_555 1_555
N15_6 C39_6 1_555 1_555
Ni7_4 N11_3 1_555 1_555
Ni7_3 N6_3 1_555 1_555
C2_6 C4_6 1_555 1_555
C5_6 C6_6 1_555 1_555
C7_6 C8_6 1_555 1_555
C7_6 C9_6 1_555 1_555
C15_6 C17_6 1_555 1_555
C18_6 C19_6 1_555 1_555
C20_6 C21_6 1_555 1_555
C20_6 C22_6 1_555 1_555
C28_6 C30_6 1_555 1_555
C31_6 C32_6 1_555 1_555
C33_6 C34_6 1_555 1_555
C33_6 C35_6 1_555 1_555
C37_6 C38_6 1_555 1_555
H7_6 C11_6 1_555 1_555
C13_6 C12_6 1_555 1_555
N5_6 C13_6 1_555 1_555
C11_6 C12_6 1_555 1_555

#END
