
###############################################################################
#
# This file contains modified crystal structure data generated from the
# MOF subset of the Cambridge Structural Database (CSD) v543 
# hosted by the Cambridge Crystallographic Data Centre (CCDC).
#
# This work is licensed under the Creative Commons
# Attribution-NonCommercial-ShareAlike 4.0 International License.
# To view a copy of this license, visit
# http://creativecommons.org/licenses/by-nc-sa/4.0/
# or send a letter to
# Creative Commons, PO Box 1866, Mountain View, CA 94042, USA.
#
# CIF created using the CSD Python API on 29 September 2022
# The structure has been converted into the P1 space group
# The structure has a 3D framework
# The original CSD entry HOLYOZ is in the rhombohedral crystal system
# The framework has been calculated to contain at least 10.0% void space
# The void calculation uses a probe of radius 1.32A, grid spacing 0.4
#
###############################################################################

data_HOLYOZ
_chemical_formula_moiety         '(C234 H126 F54 N72 Ni30 O18)n'
_symmetry_cell_setting           triclinic
_symmetry_space_group_name_H-M   'P 1'
_symmetry_Int_Tables_number      1
_space_group_name_Hall           'P 1'
loop_
_symmetry_equiv_pos_site_id
_symmetry_equiv_pos_as_xyz
1 x,y,z
_cell_length_a                   23.4630(3)
_cell_length_b                   23.4630(3)
_cell_length_c                   22.0544(4)
_cell_angle_alpha                90
_cell_angle_beta                 90
_cell_angle_gamma                120
_cell_volume                     10514.6
loop_
_atom_site_label
_atom_site_type_symbol
_atom_site_fract_x
_atom_site_fract_y
_atom_site_fract_z
N6 N 0.58601(13) 0.13835(18) 0.35255(13)
N7 N 0.63616(12) 0.15008(17) 0.31370(12)
C15 C 0.55288(17) 0.07403(24) 0.36455(17)
H9 H 0.516713 0.053405 0.390246
C17 C 0.58033(18) 0.04242(25) 0.33305(17)
C19 C 0.63260(18) 0.09276(25) 0.30181(17)
H11 H 0.661023 0.087260 0.276261
Ni3 Ni 0.57994(2) 0.21878(3) 0.37350(2)
Ni11 Ni 0.69449(2) 0.24661(2) 0.29317(2)
O6 O 0.60786(13) 0.25608(9) 0.28057(10)
O8 O 0.58941(9) 0.31488(9) 0.38610(10)
O10 O 0.68512(9) 0.27453(13) 0.38610(10)
N15 N 0.48341(17) 0.18059(12) 0.35297(12)
N17 N 0.56454(12) 0.19969(17) 0.46388(13)
Ni1 Ni 0.333333 0.666667 0.54902(4)
Ni2 Ni 0.63884(2) 0.42006(2) 0.37350(2)
O1 O 0.41059(9) 0.68512(9) 0.61390(10)
N1 N 0.34499(12) 0.59944(12) 0.50168(12)
N2 N 0.55234(12) 0.41399(13) 0.35255(13)
N3 N 0.51392(12) 0.36384(12) 0.31370(12)
N4 N 0.36485(12) 0.56454(12) 0.53612(13)
C1 C 0.34122(16) 0.58011(17) 0.44427(17)
H1 H 0.328090 0.596070 0.411748
C2 C 0.52115(17) 0.44712(17) 0.36455(17)
H2 H 0.536692 0.483287 0.390246
C3 C 0.35997(16) 0.53215(17) 0.44022(17)
C4 C 0.46209(17) 0.41967(18) 0.33305(17)
C5 C 0.37392(15) 0.52498(16) 0.49973(16)
H3 H 0.387838 0.496134 0.512475
C6 C 0.46016(17) 0.36740(18) 0.30181(17)
H4 H 0.426237 0.338977 0.276261
C7 C 0.40808(17) 0.47549(18) 0.38393(18)
H5 H 0.435163 0.482467 0.417198
C8 C 0.36412(19) 0.4985(2) 0.3860(2)
C9 C 0.4133(2) 0.4417(2) 0.33298(19)
C10 C 0.3737(3) 0.4319(3) 0.2848(2)
H6 H 0.375927 0.409270 0.251117
F1 F 0.2466(4) 0.4625(5) 0.2349(3)
C11 C 0.3244(3) 0.4883(4) 0.3354(3)
H7 H 0.294629 0.503504 0.335313
F2 F 0.2540(5) 0.3853(5) 0.2146(4)
C12 C 0.3294(4) 0.4554(4) 0.2850(3)
C13 C 0.2853(7) 0.4445(7) 0.2329(5)
F3 F 0.3258(5) 0.4726(6) 0.1794(4)
N5 N 0.40056(12) 0.74555(17) 0.50168(12)
N8 N 0.43546(12) 0.80031(17) 0.53612(13)
C14 C 0.41989(17) 0.76111(23) 0.44427(17)
H8 H 0.403930 0.732020 0.411748
C16 C 0.46785(17) 0.82782(23) 0.44022(17)
C18 C 0.47502(16) 0.84894(22) 0.49973(16)
H10 H 0.503866 0.891704 0.512475
C20 C 0.52451(18) 0.93259(25) 0.38393(18)
H12 H 0.517533 0.952696 0.417198
C21 C 0.5015(2) 0.86562(28) 0.3860(2)
C22 C 0.5583(2) 0.9716(3) 0.33298(19)
C23 C 0.5681(3) 0.9418(4) 0.2848(2)
H13 H 0.590730 0.966657 0.251117
F4 F 0.5375(5) 0.7841(6) 0.2349(3)
C24 C 0.5117(4) 0.8361(5) 0.3354(3)
H14 H 0.496496 0.791125 0.335313
F5 F 0.6147(5) 0.8687(7) 0.2146(4)
C25 C 0.5446(4) 0.8740(6) 0.2850(3)
C26 C 0.5555(7) 0.8408(10) 0.2329(5)
F6 F 0.5274(6) 0.8532(8) 0.1794(4)
O2 O 0.31488(9) 0.72547(13) 0.61390(10)
N9 N 0.25445(17) 0.65501(12) 0.50168(12)
N12 N 0.19969(17) 0.63515(12) 0.53612(13)
C27 C 0.23889(23) 0.65878(16) 0.44427(17)
H15 H 0.267980 0.671910 0.411748
C29 C 0.17218(23) 0.64003(16) 0.44022(17)
C31 C 0.15106(22) 0.62608(15) 0.49973(16)
H17 H 0.108296 0.612162 0.512475
C33 C 0.06741(25) 0.59192(17) 0.38393(18)
H19 H 0.047304 0.564837 0.417198
C34 C 0.13438(28) 0.63588(19) 0.3860(2)
C35 C 0.0284(3) 0.5867(2) 0.33298(19)
C36 C 0.0582(4) 0.6263(3) 0.2848(2)
H20 H 0.033343 0.624073 0.251117
F7 F 0.2159(6) 0.7534(4) 0.2349(3)
C37 C 0.1639(5) 0.6756(3) 0.3354(3)
H21 H 0.208875 0.705371 0.335313
F8 F 0.1313(7) 0.7460(5) 0.2146(4)
C38 C 0.1260(6) 0.6706(4) 0.2850(3)
C39 C 0.1592(10) 0.7147(7) 0.2329(5)
F9 F 0.1468(8) 0.6742(5) 0.1794(4)
O3 O 0.27453(13) 0.58941(9) 0.61390(10)
Ni5 Ni 0.30551(2) 0.75339(2) 0.70683(2)
Ni6 Ni 0.24661(2) 0.55211(3) 0.70683(2)
Ni7 Ni 0.44789(3) 0.69449(2) 0.70683(2)
Ni8 Ni 0.36116(2) 0.57994(2) 0.62650(2)
Ni9 Ni 0.42006(2) 0.78122(3) 0.62650(2)
Ni10 Ni 0.21878(3) 0.63884(2) 0.62650(2)
Ni13 Ni 0.55211(3) 0.30551(2) 0.29317(2)
O5 O 0.64821(9) 0.39214(13) 0.28057(10)
O12 O 0.72547(13) 0.41059(9) 0.38610(10)
N14 N 0.69717(12) 0.51659(17) 0.35297(12)
N16 N 0.63515(12) 0.43546(12) 0.46388(13)
N10 N 0.86165(18) 0.44766(12) 0.35255(13)
N11 N 0.84992(17) 0.48608(12) 0.31370(12)
C28 C 0.92597(24) 0.47885(17) 0.36455(17)
H16 H 0.946595 0.463308 0.390246
C30 C 0.95758(25) 0.53791(17) 0.33305(17)
C32 C 0.90724(25) 0.53984(17) 0.30181(17)
H18 H 0.912740 0.573763 0.276261
Ni4 Ni 0.78122(3) 0.36116(2) 0.37350(2)
Ni12 Ni 0.75339(2) 0.44789(3) 0.29317(2)
O4 O 0.74392(9) 0.35179(9) 0.28057(10)
N13 N 0.81941(12) 0.30283(12) 0.35297(12)
N18 N 0.80031(17) 0.36485(12) 0.46388(13)
Ni7_2 Ni 0.11455(3) 0.02783(2) 0.04017(2)
Ni1_2 Ni -0.000000 0.000000 0.88235(4)
O1_2 O 0.07726(9) 0.01845(9) 0.94723(10)
N5_2 N 0.06723(12) 0.07888(17) 0.83501(12)
N6_2 N 0.25268(13) 0.47168(18) 0.68588(13)
N7_2 N 0.30283(12) 0.48341(17) 0.64703(12)
N8_2 N 0.10213(12) 0.13364(17) 0.86945(13)
C14_2 C 0.08656(17) 0.09444(23) 0.77760(17)
H8_2 H 0.070597 0.065353 0.745081
C15_2 C 0.21955(17) 0.40736(24) 0.69788(17)
H9_2 H 0.183380 0.386738 0.723579
C16_2 C 0.13452(17) 0.16115(23) 0.77355(17)
C17_2 C 0.24700(18) 0.37575(25) 0.66638(17)
C18_2 C 0.14169(16) 0.18227(22) 0.83306(16)
H10_2 H 0.170533 0.225037 0.845808
C19_2 C 0.29927(18) 0.42609(25) 0.63514(17)
H11_2 H 0.327690 0.420593 0.609594
C20_2 C 0.19118(18) 0.26592(25) 0.71726(18)
H12_2 H 0.184200 0.286029 0.750531
C21_2 C 0.1682(2) 0.19895(28) 0.7193(2)
C22_2 C 0.2250(2) 0.3049(3) 0.66631(19)
C23_2 C 0.2348(3) 0.2751(4) 0.6181(2)
H13_2 H 0.257397 0.299990 0.584450
F4_2 F 0.2042(5) 0.1174(6) 0.5682(3)
C24_2 C 0.1784(4) 0.1694(5) 0.6687(3)
H14_2 H 0.163163 0.124458 0.668646
F5_2 F 0.2814(5) 0.2020(7) 0.5479(4)
C25_2 C 0.2113(4) 0.2073(6) 0.6183(3)
C26_2 C 0.2222(7) 0.1741(10) 0.5662(5)
F6_2 F 0.1941(6) 0.1865(8) 0.5127(4)
Ni9_2 Ni 0.08673(2) 0.11455(3) 0.95983(2)
O8_2 O 0.25608(9) 0.64821(9) 0.71943(10)
O10_2 O 0.35179(9) 0.60786(13) 0.71943(10)
N15_2 N 0.15008(17) 0.51392(12) 0.68630(12)
N17_2 N 0.23121(12) 0.53302(17) 0.79721(13)
Ni1_3 Ni -0.000000 1.000000 0.88235(4)
N1_2 N 0.01166(12) 0.93277(12) 0.83501(12)
N2_2 N 0.21901(12) 0.74732(13) 0.68588(13)
N3_2 N 0.18059(12) 0.69717(12) 0.64703(12)
N4_2 N 0.03152(12) 0.89787(12) 0.86945(13)
C1_2 C 0.00789(16) 0.91344(17) 0.77760(17)
C2_2 C 0.18782(17) 0.78045(17) 0.69788(17)
H2_2 H 0.203359 0.816620 0.723579
C3_2 C 0.02664(16) 0.86548(17) 0.77355(17)
C4_2 C 0.12876(17) 0.75300(18) 0.66638(17)
C5_2 C 0.04059(15) 0.85831(16) 0.83306(16)
H3_2 H 0.054505 0.829467 0.845808
C6_2 C 0.12683(17) 0.70073(18) 0.63514(17)
H4_2 H 0.092904 0.672310 0.609594
C7_2 C 0.07475(17) 0.80882(18) 0.71726(18)
H5_2 H 0.101830 0.815800 0.750531
C8_2 C 0.03079(19) 0.8318(2) 0.7193(2)
C9_2 C 0.0800(2) 0.7750(2) 0.66631(19)
C10_2 C 0.0404(3) 0.7652(3) 0.6181(2)
H6_2 H 0.042594 0.742603 0.584450
Ni8_2 Ni 0.02783(2) 0.91327(2) 0.95983(2)
O12_2 O 0.39214(13) 0.74392(9) 0.71943(10)
N14_2 N 0.36384(12) 0.84992(17) 0.68630(12)
N16_2 N 0.30182(12) 0.76879(12) 0.79721(13)
Ni5_2 Ni 0.97217(2) 0.08673(2) 0.04017(2)
Ni1_4 Ni 1.000000 0.000000 0.88235(4)
O2_2 O 0.98155(9) 0.05880(13) 0.94723(10)
H15_2 H 0.934647 0.005243 0.745081
F7_2 F 0.8826(6) 0.0867(4) 0.5682(3)
C37_2 C 0.8306(5) 0.0089(3) 0.6687(3)
H21_2 H 0.875542 0.038704 0.668646
F8_2 F 0.7980(7) 0.0793(5) 0.5479(4)
C38_2 C 0.7927(6) 0.0039(4) 0.6183(3)
C39_2 C 0.8259(10) 0.0480(7) 0.5662(5)
F9_2 F 0.8135(8) 0.0075(5) 0.5127(4)
Ni6_2 Ni 0.91327(2) 0.88545(3) 0.04017(2)
Ni1_5 Ni 1.000000 1.000000 0.88235(4)
H1_2 H 0.994757 0.929403 0.745081
F1_2 F 0.9133(4) 0.7958(5) 0.5682(3)
C11_2 C 0.9911(3) 0.8216(4) 0.6687(3)
H7_2 H 0.961296 0.836837 0.668646
F2_2 F 0.9207(5) 0.7186(5) 0.5479(4)
C12_2 C 0.9961(4) 0.7887(4) 0.6183(3)
C13_2 C 0.9520(7) 0.7778(7) 0.5662(5)
F3_2 F 0.9925(5) 0.8059(6) 0.5127(4)
N9_2 N 0.92112(17) 0.98834(12) 0.83501(12)
N10_2 N 0.52832(18) 0.78099(12) 0.68588(13)
N11_2 N 0.51659(17) 0.81941(12) 0.64703(12)
N12_2 N 0.86636(17) 0.96848(12) 0.86945(13)
C27_2 C 0.90556(23) 0.99211(16) 0.77760(17)
C28_2 C 0.59264(24) 0.81218(17) 0.69788(17)
H16_2 H 0.613262 0.796641 0.723579
C29_2 C 0.83885(23) 0.97336(16) 0.77355(17)
C30_2 C 0.62425(25) 0.87124(17) 0.66638(17)
C31_2 C 0.81773(22) 0.95941(15) 0.83306(16)
H17_2 H 0.774963 0.945495 0.845808
C32_2 C 0.57391(25) 0.87317(17) 0.63514(17)
H18_2 H 0.579407 0.907096 0.609594
C33_2 C 0.73408(25) 0.92525(17) 0.71726(18)
H19_2 H 0.713971 0.898170 0.750531
C34_2 C 0.80105(28) 0.96921(19) 0.7193(2)
C35_2 C 0.6951(3) 0.9200(2) 0.66631(19)
C36_2 C 0.7249(4) 0.9596(3) 0.6181(2)
H20_2 H 0.700010 0.957406 0.584450
O3_2 O 0.94120(13) 0.92274(9) 0.94723(10)
Ni10_2 Ni 0.88545(3) 0.97217(2) 0.95983(2)
N13_2 N 0.48608(12) 0.63616(12) 0.68630(12)
N18_2 N 0.46698(17) 0.69818(12) 0.79721(13)
O10_3 O 0.01845(9) 0.94120(13) 0.05277(10)
O12_3 O 0.05880(13) 0.07726(9) 0.05277(10)
N14_3 N 0.03051(12) 0.18325(17) 0.01963(12)
Ni1_6 Ni 0.666666 0.333334 0.21569(4)
N1_3 N 0.67832(12) 0.26611(12) 0.16835(12)
N2_3 N 0.88567(12) 0.08066(13) 0.01922(13)
N4_3 N 0.69818(12) 0.23121(12) 0.20279(13)
C1_3 C 0.67455(16) 0.24678(17) 0.11094(17)
H1_3 H 0.661423 0.262737 0.078415
C2_3 C 0.85448(17) 0.11379(17) 0.03122(17)
H2_3 H 0.870025 0.149954 0.056913
C3_3 C 0.69330(16) 0.19882(17) 0.10689(17)
C5_3 C 0.70725(15) 0.19165(16) 0.16640(16)
H3_3 H 0.721171 0.162801 0.179142
C7_3 C 0.74141(17) 0.14216(18) 0.05060(18)
H5_3 H 0.768496 0.149134 0.083865
C8_3 C 0.69745(19) 0.1652(2) 0.0527(2)
C11_3 C 0.6577(3) 0.1550(4) 0.0021(3)
H7_3 H 0.627962 0.170171 0.001980
N5_3 N 0.73389(12) 0.41222(17) 0.16835(12)
N6_3 N 0.91934(13) 0.80502(18) 0.01922(13)
N8_3 N 0.76879(12) 0.46698(17) 0.20279(13)
C14_3 C 0.75322(17) 0.42778(23) 0.11094(17)
H8_3 H 0.737263 0.398687 0.078415
C15_3 C 0.88621(17) 0.74070(24) 0.03122(17)
H9_3 H 0.850046 0.720072 0.056913
C16_3 C 0.80118(17) 0.49449(23) 0.10689(17)
C18_3 C 0.80835(16) 0.51561(22) 0.16640(16)
H10_3 H 0.837199 0.558371 0.179142
C20_3 C 0.85784(18) 0.59926(25) 0.05060(18)
H12_3 H 0.850866 0.619363 0.083865
C21_3 C 0.8348(2) 0.53229(28) 0.0527(2)
C24_3 C 0.8450(4) 0.5028(5) 0.0021(3)
H14_3 H 0.829829 0.457792 0.001980
N9_3 N 0.58778(17) 0.32168(12) 0.16835(12)
N10_3 N 0.19498(18) 0.11433(12) 0.01922(13)
N12_3 N 0.53302(17) 0.30182(12) 0.20279(13)
C27_3 C 0.57222(23) 0.32545(16) 0.11094(17)
H15_3 H 0.601313 0.338577 0.078415
C28_3 C 0.25930(24) 0.14552(17) 0.03122(17)
H16_3 H 0.279928 0.129975 0.056913
C29_3 C 0.50551(23) 0.30670(16) 0.10689(17)
C31_3 C 0.48439(22) 0.29275(15) 0.16640(16)
H17_3 H 0.441629 0.278829 0.179142
C33_3 C 0.40074(25) 0.25859(17) 0.05060(18)
H19_3 H 0.380637 0.231504 0.083865
C34_3 C 0.46771(28) 0.30255(19) 0.0527(2)
C37_3 C 0.4972(5) 0.3423(3) 0.0021(3)
H21_3 H 0.542208 0.372038 0.001980
O8_3 O 0.92274(9) 0.98155(9) 0.05277(10)
N15_3 N 0.81675(17) 0.84725(12) 0.01963(12)
N16_3 N 0.96848(12) 0.10213(12) 0.13055(13)
N17_3 N 0.89787(12) 0.86636(17) 0.13055(13)
N18_3 N 0.13364(17) 0.03152(12) 0.13055(13)
N3_3 N 0.84725(12) 0.03051(12) 0.98037(12)
C4_3 C 0.79542(17) 0.08634(18) 0.99972(17)
C6_3 C 0.79349(17) 0.03407(18) 0.96848(17)
H4_3 H 0.759570 0.005644 0.942928
C9_3 C 0.7466(2) 0.1084(2) 0.99965(19)
C10_3 C 0.7070(3) 0.0986(3) 0.9515(2)
H6_3 H 0.709260 0.075937 0.917784
F1_3 F 0.5799(4) 0.1292(5) 0.9016(3)
F2_3 F 0.5873(5) 0.0520(5) 0.8813(4)
C12_3 C 0.6627(4) 0.1221(4) 0.9517(3)
C13_3 C 0.6186(7) 0.1112(7) 0.8996(5)
F3_3 F 0.6591(5) 0.1393(6) 0.8461(4)
N7_3 N 0.96949(12) 0.81675(17) 0.98037(12)
C17_3 C 0.91366(18) 0.70909(25) 0.99972(17)
C19_3 C 0.96593(18) 0.75943(25) 0.96848(17)
H11_3 H 0.994356 0.753927 0.942928
C22_3 C 0.8916(2) 0.6383(3) 0.99965(19)
C23_3 C 0.9014(3) 0.6085(4) 0.9515(2)
H13_3 H 0.924063 0.633324 0.917784
F4_3 F 0.8708(5) 0.4508(6) 0.9016(3)
F5_3 F 0.9480(5) 0.5354(7) 0.8813(4)
C25_3 C 0.8779(4) 0.5407(6) 0.9517(3)
C26_3 C 0.8888(7) 0.5075(10) 0.8996(5)
F6_3 F 0.8607(6) 0.5199(8) 0.8461(4)
N11_3 N 0.18325(17) 0.15275(12) 0.98037(12)
C30_3 C 0.29091(25) 0.20458(17) 0.99972(17)
C32_3 C 0.24057(25) 0.20651(17) 0.96848(17)
H18_3 H 0.246073 0.240430 0.942928
C35_3 C 0.3617(3) 0.2534(2) 0.99965(19)
C36_3 C 0.3915(4) 0.2930(3) 0.9515(2)
H20_3 H 0.366676 0.290740 0.917784
F7_3 F 0.5492(6) 0.4201(4) 0.9016(3)
F8_3 F 0.4646(7) 0.4127(5) 0.8813(4)
C38_3 C 0.4593(6) 0.3373(4) 0.9517(3)
C39_3 C 0.4925(10) 0.3814(7) 0.8996(5)
F9_3 F 0.4801(8) 0.3409(5) 0.8461(4)
N13_3 N 0.15275(12) 0.96949(12) 0.01963(12)
N10_4 N 0.13835(18) 0.55234(12) 0.64745(13)
C28_4 C 0.07403(24) 0.52115(17) 0.63545(17)
H16_4 H 0.053405 0.536692 0.609754
C30_4 C 0.04242(25) 0.46209(17) 0.66695(17)
C32_4 C 0.09276(25) 0.46016(17) 0.69819(17)
H18_4 H 0.087260 0.426237 0.723739
Ni1_7 Ni 0.666667 0.333333 0.45098(4)
N1_4 N 0.65501(12) 0.40056(12) 0.49832(12)
N2_4 N 0.44766(12) 0.58601(13) 0.64745(13)
C1_4 C 0.65878(16) 0.41989(17) 0.55573(17)
H1_4 H 0.671910 0.403930 0.588252
C2_4 C 0.47885(17) 0.55288(17) 0.63545(17)
H2_4 H 0.463308 0.516713 0.609754
C3_4 C 0.64003(16) 0.46785(17) 0.55978(17)
C4_4 C 0.53791(17) 0.58033(18) 0.66695(17)
C5_4 C 0.62608(15) 0.47502(16) 0.50027(16)
H3_4 H 0.612162 0.503866 0.487525
C6_4 C 0.53984(17) 0.63260(18) 0.69819(17)
H4_4 H 0.573763 0.661023 0.723739
C7_4 C 0.59192(17) 0.52451(18) 0.61607(18)
H5_4 H 0.564837 0.517533 0.582802
C8_4 C 0.63588(19) 0.5015(2) 0.6140(2)
C9_4 C 0.5867(2) 0.5583(2) 0.66702(19)
C10_4 C 0.6263(3) 0.5681(3) 0.7152(2)
H6_4 H 0.624073 0.590730 0.748883
F1_4 F 0.7534(4) 0.5375(5) 0.7651(3)
C11_4 C 0.6756(3) 0.5117(4) 0.6646(3)
H7_4 H 0.705371 0.496496 0.664687
F2_4 F 0.7460(5) 0.6147(5) 0.7854(4)
C12_4 C 0.6706(4) 0.5446(4) 0.7150(3)
C13_4 C 0.7147(7) 0.5555(7) 0.7671(5)
F3_4 F 0.6742(5) 0.5274(6) 0.8206(4)
N5_4 N 0.59944(12) 0.25445(17) 0.49832(12)
C14_4 C 0.58011(17) 0.23889(23) 0.55573(17)
H8_4 H 0.596070 0.267980 0.588252
C16_4 C 0.53215(17) 0.17218(23) 0.55978(17)
C18_4 C 0.52498(16) 0.15106(22) 0.50027(16)
H10_4 H 0.496134 0.108296 0.487525
C20_4 C 0.47549(18) 0.06741(25) 0.61607(18)
H12_4 H 0.482467 0.047304 0.582802
C21_4 C 0.4985(2) 0.13438(28) 0.6140(2)
C22_4 C 0.4417(2) 0.0284(3) 0.66702(19)
C23_4 C 0.4319(3) 0.0582(4) 0.7152(2)
H13_4 H 0.409270 0.033343 0.748883
F4_4 F 0.4625(5) 0.2159(6) 0.7651(3)
C24_4 C 0.4883(4) 0.1639(5) 0.6646(3)
H14_4 H 0.503504 0.208875 0.664687
F5_4 F 0.3853(5) 0.1313(7) 0.7854(4)
C25_4 C 0.4554(4) 0.1260(6) 0.7150(3)
C26_4 C 0.4445(7) 0.1592(10) 0.7671(5)
F6_4 F 0.4726(6) 0.1468(8) 0.8206(4)
N9_4 N 0.74555(17) 0.34499(12) 0.49832(12)
C27_4 C 0.76111(23) 0.34122(16) 0.55573(17)
H15_4 H 0.732020 0.328090 0.588252
C29_4 C 0.82782(23) 0.35997(16) 0.55978(17)
C31_4 C 0.84894(22) 0.37392(15) 0.50027(16)
H17_4 H 0.891704 0.387838 0.487525
C33_4 C 0.93259(25) 0.40808(17) 0.61607(18)
H19_4 H 0.952696 0.435163 0.582802
C34_4 C 0.86562(28) 0.36412(19) 0.6140(2)
C35_4 C 0.9716(3) 0.4133(2) 0.66702(19)
C36_4 C 0.9418(4) 0.3737(3) 0.7152(2)
H20_4 H 0.966657 0.375927 0.748883
F7_4 F 0.7841(6) 0.2466(4) 0.7651(3)
C37_4 C 0.8361(5) 0.3244(3) 0.6646(3)
H21_4 H 0.791125 0.294629 0.664687
F8_4 F 0.8687(7) 0.2540(5) 0.7854(4)
C38_4 C 0.8740(6) 0.3294(4) 0.7150(3)
C39_4 C 0.8408(10) 0.2853(7) 0.7671(5)
F9_4 F 0.8532(8) 0.3258(5) 0.8206(4)
N6_4 N 0.41399(13) 0.86165(18) 0.64745(13)
C15_4 C 0.44712(17) 0.92597(24) 0.63545(17)
H9_4 H 0.483287 0.946595 0.609754
C17_4 C 0.41967(18) 0.95758(25) 0.66695(17)
C19_4 C 0.36740(18) 0.90724(25) 0.69819(17)
H11_4 H 0.338977 0.912740 0.723739
Ni1_8 Ni 0.000000 -0.000000 0.11765(4)
H1_5 H 0.005243 0.070597 0.254919
F1_5 F 0.0867(4) 0.2042(5) 0.4318(3)
C11_5 C 0.0089(3) 0.1784(4) 0.3313(3)
H7_5 H 0.038704 0.163163 0.331354
F2_5 F 0.0793(5) 0.2814(5) 0.4521(4)
C12_5 C 0.0039(4) 0.2113(4) 0.3817(3)
C13_5 C 0.0480(7) 0.2222(7) 0.4338(5)
F3_5 F 0.0075(5) 0.1941(6) 0.4873(4)
N9_5 N 0.07888(17) 0.01166(12) 0.16499(12)
N10_5 N 0.47168(18) 0.21901(12) 0.31412(13)
C27_5 C 0.09444(23) 0.00789(16) 0.22240(17)
C28_5 C 0.40736(24) 0.18782(17) 0.30212(17)
H16_5 H 0.386738 0.203359 0.276421
C29_5 C 0.16115(23) 0.02664(16) 0.22645(17)
C30_5 C 0.37575(25) 0.12876(17) 0.33362(17)
C31_5 C 0.18227(22) 0.04059(15) 0.16694(16)
H17_5 H 0.225037 0.054505 0.154192
C32_5 C 0.42609(25) 0.12683(17) 0.36486(17)
H18_5 H 0.420593 0.092904 0.390406
C33_5 C 0.26592(25) 0.07475(17) 0.28274(18)
H19_5 H 0.286029 0.101830 0.249469
C34_5 C 0.19895(28) 0.03079(19) 0.2807(2)
C35_5 C 0.3049(3) 0.0800(2) 0.33369(19)
C36_5 C 0.2751(4) 0.0404(3) 0.3819(2)
H20_5 H 0.299990 0.042594 0.415550
Ni1_9 Ni 0.000000 1.000000 0.11765(4)
H15_5 H 0.065353 0.994757 0.254919
F7_5 F 0.1174(6) 0.9133(4) 0.4318(3)
C37_5 C 0.1694(5) 0.9911(3) 0.3313(3)
H21_5 H 0.124458 0.961296 0.331354
F8_5 F 0.2020(7) 0.9207(5) 0.4521(4)
C38_5 C 0.2073(6) 0.9961(4) 0.3817(3)
C39_5 C 0.1741(10) 0.9520(7) 0.4338(5)
F9_5 F 0.1865(8) 0.9925(5) 0.4873(4)
Ni1_10 Ni 1.000000 -0.000000 0.11765(4)
N1_5 N 0.98834(12) 0.06723(12) 0.16499(12)
N2_5 N 0.78099(12) 0.25268(13) 0.31412(13)
C1_5 C 0.99211(16) 0.08656(17) 0.22240(17)
C2_5 C 0.81218(17) 0.21955(17) 0.30212(17)
H2_5 H 0.796641 0.183380 0.276421
C3_5 C 0.97336(16) 0.13452(17) 0.22645(17)
C4_5 C 0.87124(17) 0.24700(18) 0.33362(17)
C5_5 C 0.95941(15) 0.14169(16) 0.16694(16)
H3_5 H 0.945495 0.170533 0.154192
C6_5 C 0.87317(17) 0.29927(18) 0.36486(17)
H4_5 H 0.907096 0.327690 0.390406
C7_5 C 0.92525(17) 0.19118(18) 0.28274(18)
H5_5 H 0.898170 0.184200 0.249469
C8_5 C 0.96921(19) 0.1682(2) 0.2807(2)
C9_5 C 0.9200(2) 0.2250(2) 0.33369(19)
C10_5 C 0.9596(3) 0.2348(3) 0.3819(2)
H6_5 H 0.957406 0.257397 0.415550
Ni1_11 Ni 1.000000 1.000000 0.11765(4)
N5_5 N 0.93277(12) 0.92112(17) 0.16499(12)
N6_5 N 0.74732(13) 0.52832(18) 0.31412(13)
C14_5 C 0.91344(17) 0.90556(23) 0.22240(17)
H8_5 H 0.929403 0.934647 0.254919
C15_5 C 0.78045(17) 0.59264(24) 0.30212(17)
H9_5 H 0.816620 0.613262 0.276421
C16_5 C 0.86548(17) 0.83885(23) 0.22645(17)
C17_5 C 0.75300(18) 0.62425(25) 0.33362(17)
C18_5 C 0.85831(16) 0.81773(22) 0.16694(16)
H10_5 H 0.829467 0.774963 0.154192
C19_5 C 0.70073(18) 0.57391(25) 0.36486(17)
H11_5 H 0.672310 0.579407 0.390406
C20_5 C 0.80882(18) 0.73408(25) 0.28274(18)
H12_5 H 0.815800 0.713971 0.249469
C21_5 C 0.8318(2) 0.80105(28) 0.2807(2)
C22_5 C 0.7750(2) 0.6951(3) 0.33369(19)
C23_5 C 0.7652(3) 0.7249(4) 0.3819(2)
H13_5 H 0.742603 0.700010 0.415550
F4_5 F 0.7958(5) 0.8826(6) 0.4318(3)
C24_5 C 0.8216(4) 0.8306(5) 0.3313(3)
H14_5 H 0.836837 0.875542 0.331354
F5_5 F 0.7186(5) 0.7980(7) 0.4521(4)
C25_5 C 0.7887(4) 0.7927(6) 0.3817(3)
C26_5 C 0.7778(7) 0.8259(10) 0.4338(5)
F6_5 F 0.8059(6) 0.8135(8) 0.4873(4)
C4_6 C 0.20458(17) 0.91366(18) 0.00028(17)
C6_6 C 0.20651(17) 0.96593(18) 0.03152(17)
H4_6 H 0.240430 0.994356 0.057072
C9_6 C 0.2534(2) 0.8916(2) 0.00035(19)
C10_6 C 0.2930(3) 0.9014(3) 0.0485(2)
H6_6 H 0.290740 0.924063 0.082216
F1_6 F 0.4201(4) 0.8708(5) 0.0984(3)
F2_6 F 0.4127(5) 0.9480(5) 0.1187(4)
C12_6 C 0.3373(4) 0.8779(4) 0.0483(3)
C13_6 C 0.3814(7) 0.8888(7) 0.1004(5)
F3_6 F 0.3409(5) 0.8607(6) 0.1539(4)
C17_6 C 0.08634(18) 0.29091(25) 0.00028(17)
C19_6 C 0.03407(18) 0.24057(25) 0.03152(17)
H11_6 H 0.005644 0.246073 0.057072
C22_6 C 0.1084(2) 0.3617(3) 0.00035(19)
C23_6 C 0.0986(3) 0.3915(4) 0.0485(2)
H13_6 H 0.075937 0.366676 0.082216
F4_6 F 0.1292(5) 0.5492(6) 0.0984(3)
F5_6 F 0.0520(5) 0.4646(7) 0.1187(4)
C25_6 C 0.1221(4) 0.4593(6) 0.0483(3)
C26_6 C 0.1112(7) 0.4925(10) 0.1004(5)
F6_6 F 0.1393(6) 0.4801(8) 0.1539(4)
C30_6 C 0.70909(25) 0.79542(17) 0.00028(17)
C32_6 C 0.75943(25) 0.79349(17) 0.03152(17)
H18_6 H 0.753927 0.759570 0.057072
C35_6 C 0.6383(3) 0.7466(2) 0.00035(19)
C36_6 C 0.6085(4) 0.7070(3) 0.0485(2)
H20_6 H 0.633324 0.709260 0.082216
F7_6 F 0.4508(6) 0.5799(4) 0.0984(3)
F8_6 F 0.5354(7) 0.5873(5) 0.1187(4)
C38_6 C 0.5407(6) 0.6627(4) 0.0483(3)
C39_6 C 0.5075(10) 0.6186(7) 0.1004(5)
F9_6 F 0.5199(8) 0.6591(5) 0.1539(4)
Ni1_12 Ni 0.333334 0.666666 0.78431(4)
N1_6 N 0.32168(12) 0.73389(12) 0.83165(12)
N2_6 N 0.11433(12) 0.91934(13) 0.98078(13)
C1_6 C 0.32545(16) 0.75322(17) 0.88906(17)
H1_6 H 0.338577 0.737263 0.921585
C2_6 C 0.14552(17) 0.88621(17) 0.96878(17)
H2_6 H 0.129975 0.850046 0.943087
C3_6 C 0.30670(16) 0.80118(17) 0.89311(17)
C5_6 C 0.29275(15) 0.80835(16) 0.83360(16)
H3_6 H 0.278829 0.837199 0.820858
C7_6 C 0.25859(17) 0.85784(18) 0.94940(18)
H5_6 H 0.231504 0.850866 0.916135
C8_6 C 0.30255(19) 0.8348(2) 0.9473(2)
C11_6 C 0.3423(3) 0.8450(4) 0.9979(3)
H7_6 H 0.372038 0.829829 0.998020
N5_6 N 0.26611(12) 0.58778(17) 0.83165(12)
N6_6 N 0.08066(13) 0.19498(18) 0.98078(13)
C14_6 C 0.24678(17) 0.57222(23) 0.88906(17)
H8_6 H 0.262737 0.601313 0.921585
C15_6 C 0.11379(17) 0.25930(24) 0.96878(17)
H9_6 H 0.149954 0.279928 0.943087
C16_6 C 0.19882(17) 0.50551(23) 0.89311(17)
C18_6 C 0.19165(16) 0.48439(22) 0.83360(16)
H10_6 H 0.162801 0.441629 0.820858
C20_6 C 0.14216(18) 0.40074(25) 0.94940(18)
H12_6 H 0.149134 0.380637 0.916135
C21_6 C 0.1652(2) 0.46771(28) 0.9473(2)
C24_6 C 0.1550(4) 0.4972(5) 0.9979(3)
H14_6 H 0.170171 0.542208 0.998020
N9_6 N 0.41222(17) 0.67832(12) 0.83165(12)
N10_6 N 0.80502(18) 0.88567(12) 0.98078(13)
C27_6 C 0.42778(23) 0.67455(16) 0.88906(17)
H15_6 H 0.398687 0.661423 0.921585
C28_6 C 0.74070(24) 0.85448(17) 0.96878(17)
H16_6 H 0.720072 0.870025 0.943087
C29_6 C 0.49449(23) 0.69330(16) 0.89311(17)
C31_6 C 0.51561(22) 0.70725(15) 0.83360(16)
H17_6 H 0.558371 0.721171 0.820858
C33_6 C 0.59926(25) 0.74141(17) 0.94940(18)
H19_6 H 0.619363 0.768496 0.916135
C34_6 C 0.53229(28) 0.69745(19) 0.9473(2)
C37_6 C 0.5028(5) 0.6577(3) 0.9979(3)
H21_6 H 0.457792 0.627962 0.998020
loop_
_geom_bond_atom_site_label_1
_geom_bond_atom_site_label_2
_geom_bond_site_symmetry_1
_geom_bond_site_symmetry_2
N6 N7 1_555 1_555
N7 C19 1_555 1_555
C15 N6 1_555 1_555
H9 C15 1_555 1_555
C17 C15 1_555 1_555
C19 C17 1_555 1_555
H11 C19 1_555 1_555
Ni3 N6 1_555 1_555
Ni11 N7 1_555 1_555
O6 Ni3 1_555 1_555
O8 Ni3 1_555 1_555
O10 Ni3 1_555 1_555
N15 Ni3 1_555 1_555
N17 Ni3 1_555 1_555
Ni11 O6 1_555 1_555
Ni11 O10 1_555 1_555
Ni1 O1 1_555 1_555
Ni2 N2 1_555 1_555
O1 Ni7 1_555 1_555
N1 Ni1 1_555 1_555
N2 N3 1_555 1_555
N3 C6 1_555 1_555
N4 N1 1_555 1_555
C1 N1 1_555 1_555
H1 C1 1_555 1_555
C2 N2 1_555 1_555
H2 C2 1_555 1_555
C3 C1 1_555 1_555
C4 C2 1_555 1_555
C5 N4 1_555 1_555
H3 C5 1_555 1_555
C6 C4 1_555 1_555
H4 C6 1_555 1_555
C7 H5 1_555 1_555
C8 C3 1_555 1_555
C9 C4 1_555 1_555
C10 C9 1_555 1_555
H6 C10 1_555 1_555
F1 C13 1_555 1_555
C11 C8 1_555 1_555
H7 C11 1_555 1_555
F2 C13 1_555 1_555
C12 C10 1_555 1_555
C13 C12 1_555 1_555
F3 C13 1_555 1_555
N5 Ni1 1_555 1_555
N8 N5 1_555 1_555
C14 N5 1_555 1_555
H8 C14 1_555 1_555
C16 C14 1_555 1_555
C18 N8 1_555 1_555
H10 C18 1_555 1_555
C20 H12 1_555 1_555
C21 C16 1_555 1_555
C23 C22 1_555 1_555
H13 C23 1_555 1_555
F4 C26 1_555 1_555
C24 C21 1_555 1_555
H14 C24 1_555 1_555
F5 C26 1_555 1_555
C25 C23 1_555 1_555
C26 C25 1_555 1_555
F6 C26 1_555 1_555
O2 Ni1 1_555 1_555
N9 Ni1 1_555 1_555
N12 N9 1_555 1_555
C27 N9 1_555 1_555
H15 C27 1_555 1_555
C29 C27 1_555 1_555
C31 N12 1_555 1_555
H17 C31 1_555 1_555
C33 H19 1_555 1_555
C34 C29 1_555 1_555
C36 C35 1_555 1_555
H20 C36 1_555 1_555
F7 C39 1_555 1_555
C37 C34 1_555 1_555
H21 C37 1_555 1_555
F8 C39 1_555 1_555
C38 C36 1_555 1_555
C39 C38 1_555 1_555
F9 C39 1_555 1_555
O3 Ni1 1_555 1_555
Ni5 O2 1_555 1_555
Ni6 O3 1_555 1_555
Ni8 O1 1_555 1_555
Ni9 O1 1_555 1_555
Ni10 O2 1_555 1_555
Ni13 N3 1_555 1_555
O5 Ni2 1_555 1_555
O8 Ni2 1_555 1_555
O12 Ni2 1_555 1_555
N14 Ni2 1_555 1_555
N16 Ni2 1_555 1_555
N4 Ni8 1_555 1_555
C3 C5 1_555 1_555
C7 C8 1_555 1_555
C7 C9 1_555 1_555
C11 C12 1_555 1_555
N8 Ni9 1_555 1_555
C16 C18 1_555 1_555
C20 C21 1_555 1_555
C20 C22 1_555 1_555
C24 C25 1_555 1_555
O2 Ni9 1_555 1_555
N12 Ni10 1_555 1_555
C29 C31 1_555 1_555
C33 C34 1_555 1_555
C33 C35 1_555 1_555
C37 C38 1_555 1_555
O3 Ni8 1_555 1_555
O3 Ni10 1_555 1_555
Ni13 O5 1_555 1_555
Ni13 O8 1_555 1_555
N10 N11 1_555 1_555
N11 C32 1_555 1_555
C28 N10 1_555 1_555
H16 C28 1_555 1_555
C30 C28 1_555 1_555
C32 C30 1_555 1_555
H18 C32 1_555 1_555
Ni4 N10 1_555 1_555
Ni12 N11 1_555 1_555
O4 Ni4 1_555 1_555
O10 Ni4 1_555 1_555
O12 Ni4 1_555 1_555
N13 Ni4 1_555 1_555
N18 Ni4 1_555 1_555
Ni12 O4 1_555 1_555
Ni12 O12 1_555 1_555
Ni1_2 O1_2 1_555 1_555
N5_2 Ni1_2 1_555 1_555
N6_2 N7_2 1_555 1_555
N7_2 C19_2 1_555 1_555
N8_2 N5_2 1_555 1_555
C14_2 N5_2 1_555 1_555
H8_2 C14_2 1_555 1_555
C15_2 N6_2 1_555 1_555
H9_2 C15_2 1_555 1_555
C16_2 C14_2 1_555 1_555
C17_2 C15_2 1_555 1_555
C18_2 N8_2 1_555 1_555
H10_2 C18_2 1_555 1_555
C19_2 C17_2 1_555 1_555
H11_2 C19_2 1_555 1_555
C20_2 H12_2 1_555 1_555
C21_2 C16_2 1_555 1_555
C22_2 C17_2 1_555 1_555
C23_2 C22_2 1_555 1_555
H13_2 C23_2 1_555 1_555
F4_2 C26_2 1_555 1_555
C24_2 C21_2 1_555 1_555
H14_2 C24_2 1_555 1_555
F5_2 C26_2 1_555 1_555
C25_2 C23_2 1_555 1_555
C26_2 C25_2 1_555 1_555
F6_2 C26_2 1_555 1_555
Ni6 N6_2 1_555 1_555
Ni9_2 O1_2 1_555 1_555
Ni8 N7_2 1_555 1_555
O8_2 Ni6 1_555 1_555
O10_2 Ni6 1_555 1_555
N15_2 Ni6 1_555 1_555
N17_2 Ni6 1_555 1_555
N8_2 Ni9_2 1_555 1_555
C16_2 C18_2 1_555 1_555
C20_2 C21_2 1_555 1_555
C20_2 C22_2 1_555 1_555
C24_2 C25_2 1_555 1_555
Ni8 O10_2 1_555 1_555
Ni5 N2_2 1_555 1_555
N1_2 Ni1_3 1_555 1_555
N2_2 N3_2 1_555 1_555
N3_2 C6_2 1_555 1_555
N4_2 N1_2 1_555 1_555
C1_2 N1_2 1_555 1_555
C2_2 N2_2 1_555 1_555
H2_2 C2_2 1_555 1_555
C3_2 C1_2 1_555 1_555
C4_2 C2_2 1_555 1_555
C5_2 N4_2 1_555 1_555
H3_2 C5_2 1_555 1_555
C6_2 C4_2 1_555 1_555
H4_2 C6_2 1_555 1_555
C7_2 H5_2 1_555 1_555
C8_2 C3_2 1_555 1_555
C9_2 C4_2 1_555 1_555
C10_2 C9_2 1_555 1_555
H6_2 C10_2 1_555 1_555
Ni10 N3_2 1_555 1_555
O8_2 Ni5 1_555 1_555
O12_2 Ni5 1_555 1_555
N14_2 Ni5 1_555 1_555
N16_2 Ni5 1_555 1_555
N4_2 Ni8_2 1_555 1_555
C3_2 C5_2 1_555 1_555
C7_2 C8_2 1_555 1_555
C7_2 C9_2 1_555 1_555
Ni10 O8_2 1_555 1_555
O2_2 Ni1_4 1_555 1_555
F7_2 C39_2 1_555 1_555
H21_2 C37_2 1_555 1_555
F8_2 C39_2 1_555 1_555
C39_2 C38_2 1_555 1_555
F9_2 C39_2 1_555 1_555
C37_2 C38_2 1_555 1_555
F1_2 C13_2 1_555 1_555
H7_2 C11_2 1_555 1_555
F2_2 C13_2 1_555 1_555
C13_2 C12_2 1_555 1_555
F3_2 C13_2 1_555 1_555
N9_2 Ni1_5 1_555 1_555
N10_2 N11_2 1_555 1_555
N11_2 C32_2 1_555 1_555
N12_2 N9_2 1_555 1_555
C27_2 N9_2 1_555 1_555
C28_2 N10_2 1_555 1_555
H16_2 C28_2 1_555 1_555
C29_2 C27_2 1_555 1_555
C30_2 C28_2 1_555 1_555
C31_2 N12_2 1_555 1_555
H17_2 C31_2 1_555 1_555
C32_2 C30_2 1_555 1_555
H18_2 C32_2 1_555 1_555
C33_2 H19_2 1_555 1_555
C34_2 C29_2 1_555 1_555
C35_2 C30_2 1_555 1_555
C36_2 C35_2 1_555 1_555
H20_2 C36_2 1_555 1_555
O3_2 Ni1_5 1_555 1_555
Ni7 N10_2 1_555 1_555
Ni9 N11_2 1_555 1_555
O10_2 Ni7 1_555 1_555
O12_2 Ni7 1_555 1_555
N13_2 Ni7 1_555 1_555
N18_2 Ni7 1_555 1_555
C11_2 C12_2 1_555 1_555
N12_2 Ni10_2 1_555 1_555
C29_2 C31_2 1_555 1_555
C33_2 C34_2 1_555 1_555
C33_2 C35_2 1_555 1_555
O3_2 Ni10_2 1_555 1_555
Ni9 O12_2 1_555 1_555
Ni1_6 O4 1_555 1_555
Ni5_2 N2_3 1_555 1_555
N1_3 Ni1_6 1_555 1_555
N4_3 N1_3 1_555 1_555
C1_3 N1_3 1_555 1_555
H1_3 C1_3 1_555 1_555
C2_3 N2_3 1_555 1_555
H2_3 C2_3 1_555 1_555
C3_3 C1_3 1_555 1_555
C5_3 N4_3 1_555 1_555
H3_3 C5_3 1_555 1_555
C7_3 H5_3 1_555 1_555
C8_3 C3_3 1_555 1_555
C11_3 C8_3 1_555 1_555
H7_3 C11_3 1_555 1_555
N5_3 Ni1_6 1_555 1_555
N8_3 N5_3 1_555 1_555
C14_3 N5_3 1_555 1_555
H8_3 C14_3 1_555 1_555
C15_3 N6_3 1_555 1_555
H9_3 C15_3 1_555 1_555
C16_3 C14_3 1_555 1_555
C18_3 N8_3 1_555 1_555
H10_3 C18_3 1_555 1_555
C20_3 H12_3 1_555 1_555
C21_3 C16_3 1_555 1_555
C24_3 C21_3 1_555 1_555
H14_3 C24_3 1_555 1_555
O5 Ni1_6 1_555 1_555
N9_3 Ni1_6 1_555 1_555
N12_3 N9_3 1_555 1_555
C27_3 N9_3 1_555 1_555
H15_3 C27_3 1_555 1_555
C28_3 N10_3 1_555 1_555
H16_3 C28_3 1_555 1_555
C29_3 C27_3 1_555 1_555
C31_3 N12_3 1_555 1_555
H17_3 C31_3 1_555 1_555
C33_3 H19_3 1_555 1_555
C34_3 C29_3 1_555 1_555
C37_3 C34_3 1_555 1_555
H21_3 C37_3 1_555 1_555
O6 Ni1_6 1_555 1_555
Ni6_2 N6_3 1_555 1_555
Ni7_2 N10_3 1_555 1_555
Ni11 O4 1_555 1_555
O8_3 Ni6_2 1_555 1_555
O12_3 Ni7_2 1_555 1_555
N15_3 Ni6_2 1_555 1_555
N16_3 Ni5_2 1_555 1_555
N17_3 Ni6_2 1_555 1_555
N18_3 Ni7_2 1_555 1_555
N4_3 Ni11 1_555 1_555
C3_3 C5_3 1_555 1_555
C7_3 C8_3 1_555 1_555
N8_3 Ni12 1_555 1_555
C16_3 C18_3 1_555 1_555
C20_3 C21_3 1_555 1_555
O5 Ni12 1_555 1_555
N12_3 Ni13 1_555 1_555
C29_3 C31_3 1_555 1_555
C33_3 C34_3 1_555 1_555
O6 Ni13 1_555 1_555
N3_3 C6_3 1_555 1_555
C6_3 C4_3 1_555 1_555
H4_3 C6_3 1_555 1_555
C9_3 C4_3 1_555 1_555
C10_3 C9_3 1_555 1_555
H6_3 C10_3 1_555 1_555
F1_3 C13_3 1_555 1_555
F2_3 C13_3 1_555 1_555
C12_3 C10_3 1_555 1_555
C13_3 C12_3 1_555 1_555
F3_3 C13_3 1_555 1_555
N7_3 C19_3 1_555 1_555
C19_3 C17_3 1_555 1_555
H11_3 C19_3 1_555 1_555
C22_3 C17_3 1_555 1_555
C23_3 C22_3 1_555 1_555
H13_3 C23_3 1_555 1_555
F4_3 C26_3 1_555 1_555
F5_3 C26_3 1_555 1_555
C25_3 C23_3 1_555 1_555
C26_3 C25_3 1_555 1_555
F6_3 C26_3 1_555 1_555
N11_3 C32_3 1_555 1_555
C32_3 C30_3 1_555 1_555
H18_3 C32_3 1_555 1_555
C35_3 C30_3 1_555 1_555
C36_3 C35_3 1_555 1_555
H20_3 C36_3 1_555 1_555
F7_3 C39_3 1_555 1_555
F8_3 C39_3 1_555 1_555
C38_3 C36_3 1_555 1_555
C39_3 C38_3 1_555 1_555
F9_3 C39_3 1_555 1_555
Ni9_2 N11_3 1_555 1_555
N10_4 N15_2 1_555 1_555
N15_2 C32_4 1_555 1_555
C28_4 N10_4 1_555 1_555
H16_4 C28_4 1_555 1_555
C30_4 C28_4 1_555 1_555
C32_4 C30_4 1_555 1_555
H18_4 C32_4 1_555 1_555
Ni10 N10_4 1_555 1_555
Ni1_7 O8 1_555 1_555
Ni8 N2_4 1_555 1_555
N1_4 Ni1_7 1_555 1_555
N2_4 N13_2 1_555 1_555
N13_2 C6_4 1_555 1_555
N16 N1_4 1_555 1_555
C1_4 N1_4 1_555 1_555
H1_4 C1_4 1_555 1_555
C2_4 N2_4 1_555 1_555
H2_4 C2_4 1_555 1_555
C3_4 C1_4 1_555 1_555
C4_4 C2_4 1_555 1_555
C5_4 N16 1_555 1_555
H3_4 C5_4 1_555 1_555
C6_4 C4_4 1_555 1_555
H4_4 C6_4 1_555 1_555
C7_4 H5_4 1_555 1_555
C8_4 C3_4 1_555 1_555
C9_4 C4_4 1_555 1_555
C10_4 C9_4 1_555 1_555
H6_4 C10_4 1_555 1_555
F1_4 C13_4 1_555 1_555
C11_4 C8_4 1_555 1_555
H7_4 C11_4 1_555 1_555
F2_4 C13_4 1_555 1_555
C12_4 C10_4 1_555 1_555
C13_4 C12_4 1_555 1_555
F3_4 C13_4 1_555 1_555
N5_4 Ni1_7 1_555 1_555
N17 N5_4 1_555 1_555
C14_4 N5_4 1_555 1_555
H8_4 C14_4 1_555 1_555
C16_4 C14_4 1_555 1_555
C18_4 N17 1_555 1_555
H10_4 C18_4 1_555 1_555
C20_4 H12_4 1_555 1_555
C21_4 C16_4 1_555 1_555
C23_4 C22_4 1_555 1_555
H13_4 C23_4 1_555 1_555
F4_4 C26_4 1_555 1_555
C24_4 C21_4 1_555 1_555
H14_4 C24_4 1_555 1_555
F5_4 C26_4 1_555 1_555
C25_4 C23_4 1_555 1_555
C26_4 C25_4 1_555 1_555
F6_4 C26_4 1_555 1_555
O10 Ni1_7 1_555 1_555
N9_4 Ni1_7 1_555 1_555
N18 N9_4 1_555 1_555
C27_4 N9_4 1_555 1_555
H15_4 C27_4 1_555 1_555
C29_4 C27_4 1_555 1_555
C31_4 N18 1_555 1_555
H17_4 C31_4 1_555 1_555
C33_4 H19_4 1_555 1_555
C34_4 C29_4 1_555 1_555
C36_4 C35_4 1_555 1_555
H20_4 C36_4 1_555 1_555
F7_4 C39_4 1_555 1_555
C37_4 C34_4 1_555 1_555
H21_4 C37_4 1_555 1_555
F8_4 C39_4 1_555 1_555
C38_4 C36_4 1_555 1_555
C39_4 C38_4 1_555 1_555
F9_4 C39_4 1_555 1_555
O12 Ni1_7 1_555 1_555
C3_4 C5_4 1_555 1_555
C7_4 C8_4 1_555 1_555
C7_4 C9_4 1_555 1_555
C11_4 C12_4 1_555 1_555
C16_4 C18_4 1_555 1_555
C20_4 C21_4 1_555 1_555
C20_4 C22_4 1_555 1_555
C24_4 C25_4 1_555 1_555
C29_4 C31_4 1_555 1_555
C33_4 C34_4 1_555 1_555
C33_4 C35_4 1_555 1_555
C37_4 C38_4 1_555 1_555
N6_4 N14_2 1_555 1_555
N14_2 C19_4 1_555 1_555
C15_4 N6_4 1_555 1_555
H9_4 C15_4 1_555 1_555
C17_4 C15_4 1_555 1_555
C19_4 C17_4 1_555 1_555
H11_4 C19_4 1_555 1_555
Ni9 N6_4 1_555 1_555
F1_5 C13_5 1_555 1_555
H7_5 C11_5 1_555 1_555
F2_5 C13_5 1_555 1_555
C13_5 C12_5 1_555 1_555
F3_5 C13_5 1_555 1_555
N9_5 Ni1_8 1_555 1_555
N10_5 N15 1_555 1_555
N15 C32_5 1_555 1_555
N18_3 N9_5 1_555 1_555
C27_5 N9_5 1_555 1_555
C28_5 N10_5 1_555 1_555
H16_5 C28_5 1_555 1_555
C29_5 C27_5 1_555 1_555
C30_5 C28_5 1_555 1_555
C31_5 N18_3 1_555 1_555
H17_5 C31_5 1_555 1_555
C32_5 C30_5 1_555 1_555
H18_5 C32_5 1_555 1_555
C33_5 H19_5 1_555 1_555
C34_5 C29_5 1_555 1_555
C35_5 C30_5 1_555 1_555
C36_5 C35_5 1_555 1_555
H20_5 C36_5 1_555 1_555
O12_3 Ni1_8 1_555 1_555
Ni13 N10_5 1_555 1_555
C11_5 C12_5 1_555 1_555
C29_5 C31_5 1_555 1_555
C33_5 C34_5 1_555 1_555
C33_5 C35_5 1_555 1_555
O10_3 Ni1_9 1_555 1_555
F7_5 C39_5 1_555 1_555
H21_5 C37_5 1_555 1_555
F8_5 C39_5 1_555 1_555
C39_5 C38_5 1_555 1_555
F9_5 C39_5 1_555 1_555
C37_5 C38_5 1_555 1_555
Ni11 N2_5 1_555 1_555
N1_5 Ni1_10 1_555 1_555
N2_5 N13 1_555 1_555
N13 C6_5 1_555 1_555
N16_3 N1_5 1_555 1_555
C1_5 N1_5 1_555 1_555
C2_5 N2_5 1_555 1_555
H2_5 C2_5 1_555 1_555
C3_5 C1_5 1_555 1_555
C4_5 C2_5 1_555 1_555
C5_5 N16_3 1_555 1_555
H3_5 C5_5 1_555 1_555
C6_5 C4_5 1_555 1_555
H4_5 C6_5 1_555 1_555
C7_5 H5_5 1_555 1_555
C8_5 C3_5 1_555 1_555
C9_5 C4_5 1_555 1_555
C10_5 C9_5 1_555 1_555
H6_5 C10_5 1_555 1_555
C3_5 C5_5 1_555 1_555
C7_5 C8_5 1_555 1_555
C7_5 C9_5 1_555 1_555
Ni1_11 O8_3 1_555 1_555
N5_5 Ni1_11 1_555 1_555
N6_5 N14 1_555 1_555
N14 C19_5 1_555 1_555
N17_3 N5_5 1_555 1_555
C14_5 N5_5 1_555 1_555
H8_5 C14_5 1_555 1_555
C15_5 N6_5 1_555 1_555
H9_5 C15_5 1_555 1_555
C16_5 C14_5 1_555 1_555
C17_5 C15_5 1_555 1_555
C18_5 N17_3 1_555 1_555
H10_5 C18_5 1_555 1_555
C19_5 C17_5 1_555 1_555
H11_5 C19_5 1_555 1_555
C20_5 H12_5 1_555 1_555
C21_5 C16_5 1_555 1_555
C22_5 C17_5 1_555 1_555
C23_5 C22_5 1_555 1_555
H13_5 C23_5 1_555 1_555
F4_5 C26_5 1_555 1_555
C24_5 C21_5 1_555 1_555
H14_5 C24_5 1_555 1_555
F5_5 C26_5 1_555 1_555
C25_5 C23_5 1_555 1_555
C26_5 C25_5 1_555 1_555
F6_5 C26_5 1_555 1_555
Ni12 N6_5 1_555 1_555
C16_5 C18_5 1_555 1_555
C20_5 C21_5 1_555 1_555
C20_5 C22_5 1_555 1_555
C24_5 C25_5 1_555 1_555
N13_3 C6_6 1_555 1_555
C6_6 C4_6 1_555 1_555
H4_6 C6_6 1_555 1_555
C9_6 C4_6 1_555 1_555
C10_6 C9_6 1_555 1_555
H6_6 C10_6 1_555 1_555
F1_6 C13_6 1_555 1_555
F2_6 C13_6 1_555 1_555
C12_6 C10_6 1_555 1_555
C13_6 C12_6 1_555 1_555
F3_6 C13_6 1_555 1_555
N14_3 C19_6 1_555 1_555
C19_6 C17_6 1_555 1_555
H11_6 C19_6 1_555 1_555
C22_6 C17_6 1_555 1_555
C23_6 C22_6 1_555 1_555
H13_6 C23_6 1_555 1_555
F4_6 C26_6 1_555 1_555
F5_6 C26_6 1_555 1_555
C25_6 C23_6 1_555 1_555
C26_6 C25_6 1_555 1_555
F6_6 C26_6 1_555 1_555
N15_3 C32_6 1_555 1_555
C32_6 C30_6 1_555 1_555
H18_6 C32_6 1_555 1_555
C35_6 C30_6 1_555 1_555
C36_6 C35_6 1_555 1_555
H20_6 C36_6 1_555 1_555
F7_6 C39_6 1_555 1_555
F8_6 C39_6 1_555 1_555
C38_6 C36_6 1_555 1_555
C39_6 C38_6 1_555 1_555
F9_6 C39_6 1_555 1_555
Ni1_12 O8_2 1_555 1_555
Ni8_2 N2_6 1_555 1_555
N1_6 Ni1_12 1_555 1_555
N16_2 N1_6 1_555 1_555
C1_6 N1_6 1_555 1_555
H1_6 C1_6 1_555 1_555
C2_6 N2_6 1_555 1_555
H2_6 C2_6 1_555 1_555
C3_6 C1_6 1_555 1_555
C5_6 N16_2 1_555 1_555
H3_6 C5_6 1_555 1_555
C7_6 H5_6 1_555 1_555
C8_6 C3_6 1_555 1_555
C11_6 C8_6 1_555 1_555
H7_6 C11_6 1_555 1_555
N5_6 Ni1_12 1_555 1_555
N17_2 N5_6 1_555 1_555
C14_6 N5_6 1_555 1_555
H8_6 C14_6 1_555 1_555
C15_6 N6_6 1_555 1_555
H9_6 C15_6 1_555 1_555
C16_6 C14_6 1_555 1_555
C18_6 N17_2 1_555 1_555
H10_6 C18_6 1_555 1_555
C20_6 H12_6 1_555 1_555
C21_6 C16_6 1_555 1_555
C24_6 C21_6 1_555 1_555
H14_6 C24_6 1_555 1_555
O10_2 Ni1_12 1_555 1_555
N9_6 Ni1_12 1_555 1_555
N18_2 N9_6 1_555 1_555
C27_6 N9_6 1_555 1_555
H15_6 C27_6 1_555 1_555
C28_6 N10_6 1_555 1_555
H16_6 C28_6 1_555 1_555
C29_6 C27_6 1_555 1_555
C31_6 N18_2 1_555 1_555
H17_6 C31_6 1_555 1_555
C33_6 H19_6 1_555 1_555
C34_6 C29_6 1_555 1_555
C37_6 C34_6 1_555 1_555
H21_6 C37_6 1_555 1_555
O12_2 Ni1_12 1_555 1_555
Ni9_2 N6_6 1_555 1_555
Ni10_2 N10_6 1_555 1_555
C3_6 C5_6 1_555 1_555
C7_6 C8_6 1_555 1_555
C16_6 C18_6 1_555 1_555
C20_6 C21_6 1_555 1_555
C29_6 C31_6 1_555 1_555
C33_6 C34_6 1_555 1_555

#END
