
###############################################################################
#
# This file contains modified crystal structure data generated from the
# MOF subset of the Cambridge Structural Database (CSD) v543 
# hosted by the Cambridge Crystallographic Data Centre (CCDC).
#
# This work is licensed under the Creative Commons
# Attribution-NonCommercial-ShareAlike 4.0 International License.
# To view a copy of this license, visit
# http://creativecommons.org/licenses/by-nc-sa/4.0/
# or send a letter to
# Creative Commons, PO Box 1866, Mountain View, CA 94042, USA.
#
# CIF created using the CSD Python API on 29 September 2022
# The structure has been converted into the P1 space group
# The structure has a 3D framework
# The original CSD entry HOMZEP is in the hexagonal crystal system
# The framework has been calculated to contain at least 10.0% void space
# The void calculation uses a probe of radius 1.32A, grid spacing 0.4
# H atom positions have been added when not included in the experimental data
# Generated hydrogen atom positions removed from atoms on special positions
#
###############################################################################

data_HOMZEP
_chemical_formula_moiety         '(C108 H196 Ga33 O114)n'
_symmetry_cell_setting           triclinic
_symmetry_space_group_name_H-M   'P 1'
_symmetry_Int_Tables_number      1
_space_group_name_Hall           'P 1'
loop_
_symmetry_equiv_pos_site_id
_symmetry_equiv_pos_as_xyz
1 x,y,z
_cell_length_a                   14.5665(2)
_cell_length_b                   14.5665(2)
_cell_length_c                   31.6835(2)
_cell_angle_alpha                90
_cell_angle_beta                 90
_cell_angle_gamma                120
_cell_volume                     5822.03
loop_
_atom_site_label
_atom_site_type_symbol
_atom_site_fract_x
_atom_site_fract_y
_atom_site_fract_z
Ga1 Ga 0.07432(6) 0.14864(13) 0.7500
O1 O 0.1543(4) 0.3085(8) 0.7500
O2 O 0.0000 0.0000 0.7500
O3 O 0.1753(5) 0.1648(4) 0.70488(18)
C1 C 0.2005(8) 0.1002(4) 0.6905(3)
C2 C 0.2656(9) 0.1328(5) 0.6507(4)
C3 C 0.2956(7) 0.2307(6) 0.6322(3)
H1 H 0.2766 0.2766 0.6448
C4 C 0.3540(7) 0.2597(6) 0.5949(3)
C5 C 0.3895(6) 0.3647(6) 0.5750(3)
C6 C 0.3844(10) 0.1922(5) 0.5767(4)
O4 O 0.3767(4) 0.4317(5) 0.59545(18)
O5 O 0.4292(6) 0.3781(5) 0.5389(2)
H2 H 0.4251 0.2125 0.5523
Ga2 Ga 0.41674(4) 0.58325(9) 0.58491(4)
Ga3 Ga 0.5000 0.5000 0.5000
O6 O 0.4640(3) 0.7320(3) 0.5814(3)
O7 O 0.4314(3) 0.5686(6) 0.5255(2)
O8 O 0.4121(4) 0.5878(8) 0.6484(3)
O9 O 0.1753(5) 0.0105(6) 0.70488(18)
C7 C 0.2956(7) 0.0649(9) 0.6322(3)
H3 H 0.2766 0.0000 0.6448
C8 C 0.3540(7) 0.0943(9) 0.5949(3)
C9 C 0.3895(6) 0.0248(8) 0.5750(3)
O11 O 0.4292(6) 0.0511(8) 0.5389(2)
H6 H -0.0000 0.2766 0.6448
O17 O 0.0550(6) 0.4317(5) 0.59545(18)
O26 O 0.1648(4) 0.1753(5) 0.29512(18)
C28 C 0.1002(4) 0.2005(8) 0.3095(3)
C29 C 0.1328(5) 0.2656(9) 0.3493(4)
C30 C 0.2307(6) 0.2956(7) 0.3678(3)
H10 H 0.2766 0.2766 0.3552
C31 C 0.2597(6) 0.3540(7) 0.4051(3)
C32 C 0.3647(6) 0.3895(6) 0.4250(3)
C33 C 0.1922(5) 0.3844(10) 0.4233(4)
O27 O 0.4317(5) 0.3767(4) 0.40455(18)
O28 O 0.3781(5) 0.4292(6) 0.4611(2)
H11 H 0.2125 0.4251 0.4477
Ga8 Ga 0.58325(9) 0.41674(4) 0.41509(4)
O29 O 0.7320(3) 0.4640(3) 0.4186(3)
O30 O 0.5686(6) 0.4314(3) 0.4745(2)
O31 O 0.5878(8) 0.4121(4) 0.3516(3)
O32 O 0.0105(6) 0.1753(5) 0.29512(18)
C34 C 0.0649(9) 0.2956(7) 0.3678(3)
H12 H 0.0000 0.2766 0.3552
C35 C 0.0943(9) 0.3540(7) 0.4051(3)
C36 C 0.0248(8) 0.3895(6) 0.4250(3)
O34 O 0.0511(8) 0.4292(6) 0.4611(2)
H15 H 0.2766 0.0000 0.3552
O42 O 0.4317(5) 0.0550(6) 0.40455(18)
Ga10 Ga 0.16651(10) 0.58326(4) 0.58491(4)
O44 O 0.2680(3) 0.7320(4) 0.5814(3)
O45 O 0.1372(7) 0.5686(3) 0.5255(2)
O46 O 0.1757(9) 0.5879(4) 0.6484(3)
O58 O 0.2680(4) 0.5360(3) 0.5814(3)
Ga14 Ga 0.14864(13) 0.07432(14) 0.2500
O61 O 0.1753(5) 0.0105(6) 0.79512(18)
O62 O 0.1753(5) 0.1648(4) 0.79512(18)
O66 O 0.0550(6) 0.6233(4) 0.59545(18)
O67 O 0.6233(4) 0.5683(5) 0.40455(18)
O70 O 0.5683(5) 0.6233(4) 0.59545(18)
O71 O 0.5708(6) 0.6219(5) 0.4611(2)
O74 O 0.6219(5) 0.5708(6) 0.5389(2)
Ga18 Ga 0.41675(9) 0.83349(10) 0.58491(4)
Ga23 Ga 0.83349(10) 0.41675(9) 0.41509(4)
Ga25 Ga 0.58326(4) 0.16651(10) 0.41509(4)
Ga27 Ga 0.5000 -0.0000 0.5000
Ga28 Ga 0.0000 0.5000 0.5000
O81 O 0.5360(3) 0.2680(4) 0.4186(3)
O2_2 O -0.0000 1.0000 0.7500
H3_2 H 0.2766 1.0000 0.6448
O10 O 0.3767(4) 0.9450(6) 0.59545(18)
Ga6 Ga 0.07432(14) 0.92568(6) 0.7500
O19 O 0.1542(9) 0.8457(4) 0.7500
H7 H -0.0000 0.7234 0.6448
O35 O 0.0105(6) 0.8352(4) 0.29512(18)
C37 C 0.1003(9) 0.8998(4) 0.3095(3)
C38 C 0.1328(10) 0.8672(5) 0.3493(4)
C39 C 0.0649(9) 0.7693(6) 0.3678(3)
H13 H 0.0000 0.7234 0.3552
C40 C 0.0943(9) 0.7403(6) 0.4051(3)
C41 C 0.0248(8) 0.6353(6) 0.4250(3)
C42 C 0.1922(11) 0.8078(5) 0.4233(4)
O37 O 0.0511(8) 0.6219(5) 0.4611(2)
H14 H 0.2126 0.7875 0.4477
O41 O 0.1648(4) 0.9895(6) 0.29512(18)
C43 C 0.2307(6) 0.9351(9) 0.3678(3)
H15_2 H 0.2766 1.0000 0.3552
C44 C 0.2597(6) 0.9057(9) 0.4051(3)
C45 C 0.3647(6) 0.9752(8) 0.4250(3)
O43 O 0.3781(5) 0.9489(8) 0.4611(2)
O47 O 0.4314(6) 0.8628(7) 0.5255(2)
O48 O 0.4122(8) 0.8243(9) 0.6484(3)
O65 O 0.5683(5) 0.9450(6) 0.59545(18)
Ga27_2 Ga 0.5000 1.0000 0.5000
O2_3 O 1.0000 0.0000 0.7500
O13 O 0.8352(4) 0.0105(6) 0.70488(18)
C10 C 0.8998(4) 0.1003(9) 0.6905(3)
C11 C 0.8672(5) 0.1328(10) 0.6507(4)
C12 C 0.7693(6) 0.0649(9) 0.6322(3)
H4 H 0.7234 0.0000 0.6448
C13 C 0.7403(6) 0.0943(9) 0.5949(3)
C14 C 0.6353(6) 0.0248(8) 0.5750(3)
C15 C 0.8078(5) 0.1922(11) 0.5767(4)
O15 O 0.6219(5) 0.0511(8) 0.5389(2)
H5 H 0.7875 0.2126 0.5523
O16 O 0.9895(6) 0.1648(4) 0.70488(18)
C16 C 0.9351(9) 0.2307(6) 0.6322(3)
H6_2 H 1.0000 0.2766 0.6448
C17 C 0.9057(9) 0.2597(6) 0.5949(3)
C18 C 0.9752(8) 0.3647(6) 0.5750(3)
O18 O 0.9489(8) 0.3781(5) 0.5389(2)
H12_2 H 1.0000 0.2766 0.3552
O33 O 0.9450(6) 0.3767(4) 0.40455(18)
H16 H 0.7234 0.0000 0.3552
O50 O 0.6233(4) 0.0550(6) 0.40455(18)
O53 O 0.5686(3) 0.1372(7) 0.4745(2)
O54 O 0.5879(4) 0.1757(9) 0.3516(3)
Ga15 Ga 0.92568(14) 0.07432(6) 0.2500
O60 O 0.9895(6) 0.1648(4) 0.79512(18)
O63 O 0.8352(4) 0.0105(6) 0.79512(18)
Ga28_2 Ga 1.0000 0.5000 0.5000
O80 O 0.7320(4) 0.2680(3) 0.4186(3)
O2_4 O 1.0000 1.0000 0.7500
Ga4 Ga 0.85136(13) 0.92568(14) 0.7500
O12 O 0.6915(8) 0.8458(9) 0.7500
H4_2 H 0.7234 1.0000 0.6448
O20 O 0.9895(6) 0.8247(5) 0.70488(18)
C19 C 0.8997(9) 0.7995(8) 0.6905(3)
C20 C 0.8672(10) 0.7344(9) 0.6507(4)
C21 C 0.9351(9) 0.7044(7) 0.6322(3)
H7_2 H 1.0000 0.7234 0.6448
C22 C 0.9057(9) 0.6460(7) 0.5949(3)
C23 C 0.9752(8) 0.6105(6) 0.5750(3)
C24 C 0.8078(11) 0.6156(10) 0.5767(4)
O22 O 0.9489(8) 0.5708(6) 0.5389(2)
H8 H 0.7874 0.5749 0.5523
O23 O 0.8352(4) 0.8247(5) 0.70488(18)
C25 C 0.7693(6) 0.7044(7) 0.6322(3)
H9 H 0.7234 0.7234 0.6448
C26 C 0.7403(6) 0.6460(7) 0.5949(3)
C27 C 0.6353(6) 0.6105(6) 0.5750(3)
H13_2 H 1.0000 0.7234 0.3552
O36 O 0.9450(6) 0.5683(5) 0.40455(18)
O39 O 0.8628(7) 0.4314(6) 0.4745(2)
O40 O 0.8243(9) 0.4122(8) 0.3516(3)
O49 O 0.8247(5) 0.9895(6) 0.29512(18)
C46 C 0.7995(8) 0.8997(9) 0.3095(3)
C47 C 0.7344(9) 0.8672(10) 0.3493(4)
C48 C 0.7044(7) 0.9351(9) 0.3678(3)
H16_2 H 0.7234 1.0000 0.3552
C49 C 0.6460(7) 0.9057(9) 0.4051(3)
C50 C 0.6105(6) 0.9752(8) 0.4250(3)
C51 C 0.6156(10) 0.8078(11) 0.4233(4)
O51 O 0.5708(6) 0.9489(8) 0.4611(2)
H17 H 0.5749 0.7874 0.4477
O55 O 0.8247(5) 0.8352(4) 0.29512(18)
C52 C 0.7044(7) 0.7693(6) 0.3678(3)
H18 H 0.7234 0.7234 0.3552
C53 C 0.6460(7) 0.7403(6) 0.4051(3)
C54 C 0.6105(6) 0.6353(6) 0.4250(3)
Ga13 Ga 0.92568(6) 0.85136(13) 0.2500
O59 O 0.8352(4) 0.8247(5) 0.79512(18)
O64 O 0.9895(6) 0.8247(5) 0.79512(18)
O2_5 O 0.0000 -0.0000 0.2500
O12_2 O 0.3085(8) 0.1542(9) 0.2500
H4_3 H 0.2766 -0.0000 0.1448
O14 O 0.4317(5) 0.0550(6) 0.09545(18)
Ga5 Ga 0.5000 0.0000 0.0000
O20_2 O 0.0105(6) 0.1753(5) 0.20488(18)
C19_2 C 0.1003(9) 0.2005(8) 0.1905(3)
C20_2 C 0.1328(10) 0.2656(9) 0.1507(4)
C21_2 C 0.0649(9) 0.2956(7) 0.1322(3)
H7_3 H -0.0000 0.2766 0.1448
C22_2 C 0.0943(9) 0.3540(7) 0.0949(3)
C23_2 C 0.0248(8) 0.3895(6) 0.0750(3)
C24_2 C 0.1922(11) 0.3844(10) 0.0767(4)
O22_2 O 0.0511(8) 0.4292(6) 0.0389(2)
H8_2 H 0.2126 0.4251 0.0523
Ga7 Ga -0.0000 0.5000 0.0000
O23_2 O 0.1648(4) 0.1753(5) 0.20488(18)
C25_2 C 0.2307(6) 0.2956(7) 0.1322(3)
H9_2 H 0.2766 0.2766 0.1448
C26_2 C 0.2597(6) 0.3540(7) 0.0949(3)
C27_2 C 0.3647(6) 0.3895(6) 0.0750(3)
O24 O 0.4317(5) 0.3767(4) 0.09545(18)
O25 O 0.3781(5) 0.4292(6) 0.0389(2)
O75 O 0.0511(8) 0.6219(5) 0.0389(2)
Ga16 Ga 0.58326(4) 0.41675(9) 0.08491(4)
Ga17 Ga 0.58325(9) 0.16651(10) 0.08491(4)
Ga26 Ga 0.5000 0.5000 0.0000
O82 O 0.5686(6) 0.1372(7) 0.0255(2)
Ga5_2 Ga 0.5000 0.0000 1.0000
Ga7_2 Ga -0.0000 0.5000 1.0000
H13_3 H -0.0000 0.2766 0.8552
O36_2 O 0.0550(6) 0.4317(5) 0.90455(18)
Ga9 Ga 0.16651(10) 0.58325(9) 0.91509(4)
O38 O 0.2680(4) 0.7320(3) 0.9186(3)
O39_2 O 0.1372(7) 0.5686(6) 0.9745(2)
O40_2 O 0.1757(9) 0.5878(8) 0.8516(3)
C46_2 C 0.2005(8) 0.1003(9) 0.8095(3)
C47_2 C 0.2656(9) 0.1328(10) 0.8493(4)
C48_2 C 0.2956(7) 0.0649(9) 0.8678(3)
H16_3 H 0.2766 -0.0000 0.8552
C49_2 C 0.3540(7) 0.0943(9) 0.9051(3)
C50_2 C 0.3895(6) 0.0248(8) 0.9250(3)
C51_2 C 0.3844(10) 0.1922(11) 0.9233(4)
O51_2 O 0.4292(6) 0.0511(8) 0.9611(2)
H17_2 H 0.4251 0.2126 0.9477
C52_2 C 0.2956(7) 0.2307(6) 0.8678(3)
H18_2 H 0.2766 0.2766 0.8552
C53_2 C 0.3540(7) 0.2597(6) 0.9051(3)
C54_2 C 0.3895(6) 0.3647(6) 0.9250(3)
O56 O 0.3767(4) 0.4317(5) 0.90455(18)
O57 O 0.4292(6) 0.3781(5) 0.9611(2)
O69 O 0.0550(6) 0.6233(4) 0.90455(18)
O72 O 0.6219(5) 0.0511(8) 0.9611(2)
Ga20 Ga 0.41675(9) 0.58326(4) 0.91509(4)
Ga24 Ga 0.41674(4) 0.83349(10) 0.91509(4)
Ga26_2 Ga 0.5000 0.5000 1.0000
O79 O 0.2680(3) 0.5360(3) 0.9186(3)
O2_6 O -0.0000 1.0000 0.2500
O13_2 O 0.1648(4) 0.9895(6) 0.20488(18)
C10_2 C 0.1002(4) 0.8997(9) 0.1905(3)
C11_2 C 0.1328(5) 0.8672(10) 0.1507(4)
C12_2 C 0.2307(6) 0.9351(9) 0.1322(3)
H4_4 H 0.2766 1.0000 0.1448
C13_2 C 0.2597(6) 0.9057(9) 0.0949(3)
C14_2 C 0.3647(6) 0.9752(8) 0.0750(3)
C15_2 C 0.1922(5) 0.8078(11) 0.0767(4)
O15_2 O 0.3781(5) 0.9489(8) 0.0389(2)
H5_2 H 0.2125 0.7874 0.0523
Ga5_3 Ga 0.5000 1.0000 0.0000
O16_2 O 0.0105(6) 0.8352(4) 0.20488(18)
C16_2 C 0.0649(9) 0.7693(6) 0.1322(3)
H6_3 H -0.0000 0.7234 0.1448
C17_2 C 0.0943(9) 0.7403(6) 0.0949(3)
C18_2 C 0.0248(8) 0.6353(6) 0.0750(3)
O76 O 0.5708(6) 0.9489(8) 0.0389(2)
Ga5_4 Ga 0.5000 1.0000 1.0000
H12_3 H -0.0000 0.7234 0.8552
H16_4 H 0.2766 1.0000 0.8552
O50_2 O 0.3767(4) 0.9450(6) 0.90455(18)
O52 O 0.4640(3) 0.7320(4) 0.9186(3)
O53_2 O 0.4314(3) 0.8628(7) 0.9745(2)
O54_2 O 0.4121(4) 0.8243(9) 0.8516(3)
O68 O 0.5683(5) 0.9450(6) 0.90455(18)
O2_7 O 1.0000 -0.0000 0.2500
H3_3 H 0.7234 -0.0000 0.1448
O10_2 O 0.6233(4) 0.0550(6) 0.09545(18)
O19_2 O 0.8458(9) 0.1543(4) 0.2500
H7_4 H 1.0000 0.2766 0.1448
O21 O 0.9450(6) 0.3767(4) 0.09545(18)
Ga7_3 Ga 1.0000 0.5000 0.0000
O48_2 O 0.5878(8) 0.1757(9) 0.1484(3)
Ga19 Ga 0.83349(10) 0.41674(4) 0.08491(4)
O77 O 0.5360(3) 0.2680(3) 0.0814(3)
O78 O 0.7320(3) 0.2680(4) 0.0814(3)
O83 O 0.8628(7) 0.4314(3) 0.0255(2)
Ga7_4 Ga 1.0000 0.5000 1.0000
C37_2 C 0.8997(9) 0.1002(4) 0.8095(3)
C38_2 C 0.8672(10) 0.1328(5) 0.8493(4)
C39_2 C 0.9351(9) 0.2307(6) 0.8678(3)
H13_4 H 1.0000 0.2766 0.8552
C40_2 C 0.9057(9) 0.2597(6) 0.9051(3)
C41_2 C 0.9752(8) 0.3647(6) 0.9250(3)
C42_2 C 0.8078(11) 0.1922(5) 0.9233(4)
O37_2 O 0.9489(8) 0.3781(5) 0.9611(2)
H14_2 H 0.7874 0.2125 0.9477
C43_2 C 0.7693(6) 0.0649(9) 0.8678(3)
H15_3 H 0.7234 -0.0000 0.8552
C44_2 C 0.7403(6) 0.0943(9) 0.9051(3)
C45_2 C 0.6353(6) 0.0248(8) 0.9250(3)
O73 O 0.9489(8) 0.5708(6) 0.9611(2)
O1_2 O 0.8457(4) 0.6915(8) 0.2500
O2_8 O 1.0000 1.0000 0.2500
O3_2 O 0.8247(5) 0.8352(4) 0.20488(18)
C1_2 C 0.7995(8) 0.8998(4) 0.1905(3)
C2_2 C 0.7344(9) 0.8672(5) 0.1507(4)
C3_2 C 0.7044(7) 0.7693(6) 0.1322(3)
H1_2 H 0.7234 0.7234 0.1448
C4_2 C 0.6460(7) 0.7403(6) 0.0949(3)
C5_2 C 0.6105(6) 0.6353(6) 0.0750(3)
C6_2 C 0.6156(10) 0.8078(5) 0.0767(4)
O4_2 O 0.6233(4) 0.5683(5) 0.09545(18)
O5_2 O 0.5708(6) 0.6219(5) 0.0389(2)
H2_2 H 0.5749 0.7875 0.0523
O7_2 O 0.5686(3) 0.4314(6) 0.0255(2)
O8_2 O 0.5879(4) 0.4122(8) 0.1484(3)
O9_2 O 0.8247(5) 0.9895(6) 0.20488(18)
C7_2 C 0.7044(7) 0.9351(9) 0.1322(3)
H3_4 H 0.7234 1.0000 0.1448
C8_2 C 0.6460(7) 0.9057(9) 0.0949(3)
C9_2 C 0.6105(6) 0.9752(8) 0.0750(3)
H6_4 H 1.0000 0.7234 0.1448
O17_2 O 0.9450(6) 0.5683(5) 0.09545(18)
O46_2 O 0.8243(9) 0.4121(4) 0.1484(3)
O58_2 O 0.7320(4) 0.4640(3) 0.0814(3)
C28_2 C 0.8998(4) 0.7995(8) 0.8095(3)
C29_2 C 0.8672(5) 0.7344(9) 0.8493(4)
C30_2 C 0.7693(6) 0.7044(7) 0.8678(3)
H10_2 H 0.7234 0.7234 0.8552
C31_2 C 0.7403(6) 0.6460(7) 0.9051(3)
C32_2 C 0.6353(6) 0.6105(6) 0.9250(3)
C33_2 C 0.8078(5) 0.6156(10) 0.9233(4)
O27_2 O 0.5683(5) 0.6233(4) 0.90455(18)
O28_2 O 0.6219(5) 0.5708(6) 0.9611(2)
H11_2 H 0.7875 0.5749 0.9477
O30_2 O 0.4314(6) 0.5686(3) 0.9745(2)
O31_2 O 0.4122(8) 0.5879(4) 0.8516(3)
C34_2 C 0.9351(9) 0.7044(7) 0.8678(3)
H12_4 H 1.0000 0.7234 0.8552
C35_2 C 0.9057(9) 0.6460(7) 0.9051(3)
C36_2 C 0.9752(8) 0.6105(6) 0.9250(3)
H15_4 H 0.7234 1.0000 0.8552
loop_
_geom_bond_atom_site_label_1
_geom_bond_atom_site_label_2
_geom_bond_site_symmetry_1
_geom_bond_site_symmetry_2
Ga1 O1 1_555 1_555
O2 Ga1 1_555 1_555
O3 Ga1 1_555 1_555
C1 O3 1_555 1_555
C2 C1 1_555 1_555
C3 C2 1_555 1_555
H1 C3 1_555 1_555
C4 C3 1_555 1_555
C5 C4 1_555 1_555
C6 C4 1_555 1_555
O4 C5 1_555 1_555
O5 C5 1_555 1_555
H2 C6 1_555 1_555
Ga2 O4 1_555 1_555
Ga3 O5 1_555 1_555
O6 Ga2 1_555 1_555
O7 Ga2 1_555 1_555
O8 Ga2 1_555 1_555
O9 C1 1_555 1_555
C7 C2 1_555 1_555
H3 C7 1_555 1_555
C8 C6 1_555 1_555
C9 C8 1_555 1_555
O11 C9 1_555 1_555
O26 C28 1_555 1_555
C28 C29 1_555 1_555
C29 C30 1_555 1_555
C30 H10 1_555 1_555
C31 C30 1_555 1_555
C32 C31 1_555 1_555
C33 C31 1_555 1_555
O27 C32 1_555 1_555
O28 Ga3 1_555 1_555
H11 C33 1_555 1_555
Ga8 O27 1_555 1_555
O29 Ga8 1_555 1_555
O30 Ga3 1_555 1_555
O31 Ga8 1_555 1_555
O32 C28 1_555 1_555
C34 C29 1_555 1_555
H12 C34 1_555 1_555
C35 C33 1_555 1_555
C36 C35 1_555 1_555
O34 C36 1_555 1_555
Ga10 O17 1_555 1_555
O44 Ga10 1_555 1_555
O45 Ga10 1_555 1_555
O46 Ga10 1_555 1_555
O58 Ga2 1_555 1_555
Ga14 O26 1_555 1_555
O62 Ga1 1_555 1_555
O66 Ga10 1_555 1_555
O67 Ga8 1_555 1_555
O70 Ga2 1_555 1_555
O71 Ga3 1_555 1_555
O74 Ga3 1_555 1_555
Ga18 O6 1_555 1_555
Ga23 O29 1_555 1_555
Ga25 O42 1_555 1_555
Ga27 O11 1_555 1_555
O81 Ga8 1_555 1_555
Ga3 O7 1_555 1_555
C7 C8 1_555 1_555
C32 O28 1_555 1_555
Ga8 O30 1_555 1_555
C34 C35 1_555 1_555
O34 Ga28 1_555 1_555
Ga10 O58 1_555 1_555
O44 Ga18 1_555 1_555
O45 Ga28 1_555 1_555
Ga25 O81 1_555 1_555
Ga6 O2_2 1_555 1_555
O19 Ga6 1_555 1_555
O35 C37 1_555 1_555
C37 C38 1_555 1_555
C38 C39 1_555 1_555
C39 H13 1_555 1_555
C40 C39 1_555 1_555
C41 C40 1_555 1_555
C42 C40 1_555 1_555
O37 Ga28 1_555 1_555
H14 C42 1_555 1_555
O41 C37 1_555 1_555
C43 C38 1_555 1_555
H15_2 C43 1_555 1_555
C44 C42 1_555 1_555
C45 C44 1_555 1_555
O43 C45 1_555 1_555
Ga18 O10 1_555 1_555
O47 Ga18 1_555 1_555
O48 Ga18 1_555 1_555
O65 Ga18 1_555 1_555
C41 O37 1_555 1_555
C43 C44 1_555 1_555
O43 Ga27_2 1_555 1_555
O47 Ga27_2 1_555 1_555
C10 O13 1_555 1_555
C11 C10 1_555 1_555
C12 C11 1_555 1_555
H4 C12 1_555 1_555
C13 C12 1_555 1_555
C14 C13 1_555 1_555
C15 C13 1_555 1_555
O15 C14 1_555 1_555
H5 C15 1_555 1_555
Ga27 O15 1_555 1_555
C16 C11 1_555 1_555
H6_2 C16 1_555 1_555
C17 C15 1_555 1_555
C18 C17 1_555 1_555
O18 C18 1_555 1_555
Ga25 O50 1_555 1_555
O53 Ga27 1_555 1_555
O54 Ga25 1_555 1_555
Ga23 O33 1_555 1_555
Ga28_2 O18 1_555 1_555
O80 Ga25 1_555 1_555
C10 O16 1_555 1_555
C16 C17 1_555 1_555
Ga25 O53 1_555 1_555
Ga23 O80 1_555 1_555
Ga4 O2_4 1_555 1_555
O12 Ga4 1_555 1_555
C19 O20 1_555 1_555
C20 C19 1_555 1_555
C21 C20 1_555 1_555
H7_2 C21 1_555 1_555
C22 C21 1_555 1_555
C23 C22 1_555 1_555
C24 C22 1_555 1_555
O22 C23 1_555 1_555
H8 C24 1_555 1_555
Ga28_2 O22 1_555 1_555
O23 Ga4 1_555 1_555
C25 C20 1_555 1_555
H9 C25 1_555 1_555
C26 C24 1_555 1_555
C27 C26 1_555 1_555
O70 C27 1_555 1_555
O74 C27 1_555 1_555
Ga23 O36 1_555 1_555
O39 Ga28_2 1_555 1_555
O40 Ga23 1_555 1_555
O49 C46 1_555 1_555
C46 C47 1_555 1_555
C47 C48 1_555 1_555
C48 H16_2 1_555 1_555
C49 C48 1_555 1_555
C50 C49 1_555 1_555
C51 C49 1_555 1_555
O51 Ga27_2 1_555 1_555
H17 C51 1_555 1_555
O55 C46 1_555 1_555
C52 C47 1_555 1_555
H18 C52 1_555 1_555
C53 C51 1_555 1_555
C54 C53 1_555 1_555
O67 C54 1_555 1_555
O71 C54 1_555 1_555
O59 Ga4 1_555 1_555
C19 O23 1_555 1_555
C25 C26 1_555 1_555
Ga23 O39 1_555 1_555
C50 O51 1_555 1_555
O55 Ga13 1_555 1_555
C52 C53 1_555 1_555
Ga14 O2_5 1_555 1_555
O12_2 Ga14 1_555 1_555
C19_2 O20_2 1_555 1_555
C20_2 C19_2 1_555 1_555
C21_2 C20_2 1_555 1_555
H7_3 C21_2 1_555 1_555
C22_2 C21_2 1_555 1_555
C23_2 C22_2 1_555 1_555
C24_2 C22_2 1_555 1_555
O22_2 C23_2 1_555 1_555
H8_2 C24_2 1_555 1_555
Ga7 O22_2 1_555 1_555
O23_2 Ga14 1_555 1_555
C25_2 C20_2 1_555 1_555
H9_2 C25_2 1_555 1_555
C26_2 C24_2 1_555 1_555
C27_2 C26_2 1_555 1_555
O24 C27_2 1_555 1_555
O25 C27_2 1_555 1_555
O75 Ga7 1_555 1_555
Ga16 O24 1_555 1_555
Ga17 O14 1_555 1_555
Ga26 O25 1_555 1_555
O82 Ga5 1_555 1_555
C19_2 O23_2 1_555 1_555
C25_2 C26_2 1_555 1_555
Ga17 O82 1_555 1_555
Ga9 O36_2 1_555 1_555
O38 Ga9 1_555 1_555
O39_2 Ga7_2 1_555 1_555
O40_2 Ga9 1_555 1_555
O61 C46_2 1_555 1_555
C46_2 C47_2 1_555 1_555
C47_2 C48_2 1_555 1_555
C48_2 H16_3 1_555 1_555
C49_2 C48_2 1_555 1_555
C50_2 C49_2 1_555 1_555
C51_2 C49_2 1_555 1_555
O51_2 Ga5_2 1_555 1_555
H17_2 C51_2 1_555 1_555
O62 C46_2 1_555 1_555
C52_2 C47_2 1_555 1_555
H18_2 C52_2 1_555 1_555
C53_2 C51_2 1_555 1_555
C54_2 C53_2 1_555 1_555
O56 C54_2 1_555 1_555
O57 C54_2 1_555 1_555
O69 Ga9 1_555 1_555
O72 Ga5_2 1_555 1_555
Ga20 O56 1_555 1_555
Ga24 O38 1_555 1_555
O79 Ga9 1_555 1_555
Ga9 O39_2 1_555 1_555
C50_2 O51_2 1_555 1_555
C52_2 C53_2 1_555 1_555
O57 Ga26_2 1_555 1_555
Ga20 O79 1_555 1_555
C10_2 O13_2 1_555 1_555
C11_2 C10_2 1_555 1_555
C12_2 C11_2 1_555 1_555
H4_4 C12_2 1_555 1_555
C13_2 C12_2 1_555 1_555
C14_2 C13_2 1_555 1_555
C15_2 C13_2 1_555 1_555
O15_2 C14_2 1_555 1_555
H5_2 C15_2 1_555 1_555
Ga5_3 O15_2 1_555 1_555
C16_2 C11_2 1_555 1_555
H6_3 C16_2 1_555 1_555
C17_2 C15_2 1_555 1_555
C18_2 C17_2 1_555 1_555
O75 C18_2 1_555 1_555
O76 Ga5_3 1_555 1_555
C10_2 O16_2 1_555 1_555
C16_2 C17_2 1_555 1_555
Ga24 O50_2 1_555 1_555
O52 Ga24 1_555 1_555
O53_2 Ga5_4 1_555 1_555
O54_2 Ga24 1_555 1_555
O68 Ga24 1_555 1_555
Ga20 O52 1_555 1_555
Ga24 O53_2 1_555 1_555
Ga15 O2_7 1_555 1_555
O19_2 Ga15 1_555 1_555
Ga17 O10_2 1_555 1_555
O48_2 Ga17 1_555 1_555
Ga19 O21 1_555 1_555
O77 Ga17 1_555 1_555
O78 Ga17 1_555 1_555
O83 Ga7_3 1_555 1_555
Ga19 O78 1_555 1_555
Ga19 O83 1_555 1_555
O60 C37_2 1_555 1_555
C37_2 C38_2 1_555 1_555
C38_2 C39_2 1_555 1_555
C39_2 H13_4 1_555 1_555
C40_2 C39_2 1_555 1_555
C41_2 C40_2 1_555 1_555
C42_2 C40_2 1_555 1_555
O37_2 Ga7_4 1_555 1_555
H14_2 C42_2 1_555 1_555
O63 C37_2 1_555 1_555
C43_2 C38_2 1_555 1_555
H15_3 C43_2 1_555 1_555
C44_2 C42_2 1_555 1_555
C45_2 C44_2 1_555 1_555
O72 C45_2 1_555 1_555
O73 Ga7_4 1_555 1_555
C41_2 O37_2 1_555 1_555
C43_2 C44_2 1_555 1_555
Ga13 O1_2 1_555 1_555
O2_8 Ga13 1_555 1_555
O3_2 Ga13 1_555 1_555
C1_2 O3_2 1_555 1_555
C2_2 C1_2 1_555 1_555
C3_2 C2_2 1_555 1_555
H1_2 C3_2 1_555 1_555
C4_2 C3_2 1_555 1_555
C5_2 C4_2 1_555 1_555
C6_2 C4_2 1_555 1_555
O4_2 C5_2 1_555 1_555
O5_2 C5_2 1_555 1_555
H2_2 C6_2 1_555 1_555
Ga16 O4_2 1_555 1_555
Ga26 O5_2 1_555 1_555
O77 Ga16 1_555 1_555
O7_2 Ga16 1_555 1_555
O8_2 Ga16 1_555 1_555
O9_2 C1_2 1_555 1_555
C7_2 C2_2 1_555 1_555
H3_4 C7_2 1_555 1_555
C8_2 C6_2 1_555 1_555
C9_2 C8_2 1_555 1_555
O76 C9_2 1_555 1_555
Ga19 O17_2 1_555 1_555
O46_2 Ga19 1_555 1_555
O58_2 Ga16 1_555 1_555
Ga26 O7_2 1_555 1_555
C7_2 C8_2 1_555 1_555
Ga19 O58_2 1_555 1_555
O59 C28_2 1_555 1_555
C28_2 C29_2 1_555 1_555
C29_2 C30_2 1_555 1_555
C30_2 H10_2 1_555 1_555
C31_2 C30_2 1_555 1_555
C32_2 C31_2 1_555 1_555
C33_2 C31_2 1_555 1_555
O27_2 C32_2 1_555 1_555
O28_2 Ga26_2 1_555 1_555
H11_2 C33_2 1_555 1_555
Ga20 O27_2 1_555 1_555
O30_2 Ga26_2 1_555 1_555
O31_2 Ga20 1_555 1_555
O64 C28_2 1_555 1_555
C34_2 C29_2 1_555 1_555
H12_4 C34_2 1_555 1_555
C35_2 C33_2 1_555 1_555
C36_2 C35_2 1_555 1_555
O73 C36_2 1_555 1_555
C32_2 O28_2 1_555 1_555
Ga20 O30_2 1_555 1_555
C34_2 C35_2 1_555 1_555

#END
