
###############################################################################
#
# This file contains modified crystal structure data generated from the
# MOF subset of the Cambridge Structural Database (CSD) v543 
# hosted by the Cambridge Crystallographic Data Centre (CCDC).
#
# This work is licensed under the Creative Commons
# Attribution-NonCommercial-ShareAlike 4.0 International License.
# To view a copy of this license, visit
# http://creativecommons.org/licenses/by-nc-sa/4.0/
# or send a letter to
# Creative Commons, PO Box 1866, Mountain View, CA 94042, USA.
#
# CIF created using the CSD Python API on 29 September 2022
# The structure has been converted into the P1 space group
# The structure has a 3D framework
# The original CSD entry HONBES is in the tetragonal crystal system
# The framework has been calculated to contain at least 10.0% void space
# The void calculation uses a probe of radius 1.32A, grid spacing 0.4
#
###############################################################################

data_HONBES
_chemical_formula_moiety         '(C416 H448 Cl32 Mn24 N64)n'
_symmetry_cell_setting           triclinic
_symmetry_space_group_name_H-M   'P 1'
_symmetry_Int_Tables_number      1
_space_group_name_Hall           'P 1'
loop_
_symmetry_equiv_pos_site_id
_symmetry_equiv_pos_as_xyz
1 x,y,z
_cell_length_a                   17.4501(9)
_cell_length_b                   17.4501(9)
_cell_length_c                   42.568(2)
_cell_angle_alpha                90
_cell_angle_beta                 90
_cell_angle_gamma                90
_cell_volume                     12962.2
loop_
_atom_site_label
_atom_site_type_symbol
_atom_site_fract_x
_atom_site_fract_y
_atom_site_fract_z
Mn1 Mn -0.0000 0.2500 0.03102(3)
N1 N 0.0686(4) 0.3152(4) 0.06810(15)
N2 N 0.4306(4) 0.3155(4) 0.24354(15)
C1 C 0.0360(4) 0.3546(5) 0.09047(19)
C2 C 0.0750(5) 0.3988(5) 0.11247(19)
H2 H 0.0484 0.4265 0.1276
C3 C 0.1542(5) 0.4008(5) 0.11132(19)
C4 C 0.1892(4) 0.3587(5) 0.08751(19)
H3 H 0.2423 0.3587 0.0854
C5 C 0.1445(5) 0.3176(5) 0.06732(19)
H4 H 0.1691 0.2891 0.0519
C6 C 0.2006(6) 0.4472(5) 0.1345(2)
H5 H 0.1659 0.4777 0.1472
H6 H 0.2334 0.4822 0.1230
C7 C 0.2501(5) 0.3981(5) 0.15621(17)
H7 H 0.2173 0.3651 0.1687
H8 H 0.2832 0.3657 0.1436
C8 C 0.2984(6) 0.4460(5) 0.1777(2)
H9 H 0.3324 0.4776 0.1652
H10 H 0.2652 0.4800 0.1896
C9 C 0.3454(5) 0.3997(5) 0.2003(2)
C10 C 0.4253(5) 0.3957(6) 0.19843(19)
H11 H 0.4514 0.4215 0.1826
C11 C 0.4646(5) 0.3536(6) 0.22007(19)
H12 H 0.5177 0.3513 0.2185
C12 C 0.3550(4) 0.3198(5) 0.24483(19)
H13 H 0.3299 0.2936 0.2608
C13 C 0.3121(4) 0.3600(5) 0.22432(19)
H14 H 0.2590 0.3608 0.2266
Mn2 Mn 0.5000 0.2500 0.28102(3)
Cl2 Cl 0.10141(12) 0.14817(11) 0.03038(5)
N6 N 0.0655(4) 0.3194(4) 0.99354(15)
Mn3 Mn -0.0000 0.7500 0.78102(3)
Mn1_2 Mn 1.0000 0.2500 0.03102(3)
Cl1 Cl 0.89859(12) 0.35183(11) 0.03038(5)
H1 H 0.9828 0.3531 0.0918
N4 N 0.9314(4) 0.1848(4) 0.06810(15)
H27 H 0.9564 0.0799 0.0108
N5 N 0.9345(4) 0.1806(4) 0.99354(15)
C20 C 0.8519(5) 0.0001(5) 0.90621(17)
H22 H 0.8843 0.0332 0.8936
C21 C 0.8040(5) 0.0484(6) 0.9277(2)
H23 H 0.7724 0.0824 0.9152
H24 H 0.7700 0.0152 0.9396
C22 C 0.8503(5) 0.0954(5) 0.9503(2)
C23 C 0.8543(6) 0.1753(5) 0.94843(19)
H25 H 0.8285 0.2014 0.9326
C24 C 0.8964(6) 0.2146(5) 0.97007(19)
H26 H 0.8987 0.2677 0.9685
C25 C 0.9302(5) 0.1050(4) 0.99483(19)
C26 C 0.8900(5) 0.0621(4) 0.97432(19)
H28 H 0.8892 0.0090 0.9766
Mn3_2 Mn 1.0000 0.7500 0.78102(3)
N3 N 0.9348(4) 0.8186(4) 0.81810(15)
C14 C 0.8954(5) 0.7860(4) 0.84047(19)
H15 H 0.8969 0.7328 0.8418
C15 C 0.8512(5) 0.8250(5) 0.86247(19)
H16 H 0.8235 0.7984 0.8776
C16 C 0.8492(5) 0.9042(5) 0.86132(19)
C17 C 0.8913(5) 0.9392(4) 0.83751(19)
H17 H 0.8913 0.9923 0.8354
C18 C 0.9324(5) 0.8945(5) 0.81732(19)
H18 H 0.9609 0.9191 0.8019
C19 C 0.8028(5) 0.9506(6) 0.8845(2)
H19 H 0.7723 0.9159 0.8972
H20 H 0.7678 0.9834 0.8730
H21 H 0.8849 0.9673 0.9187
N3_2 N 0.5652(4) 0.1814(4) 0.31810(15)
C14_2 C 0.6046(5) 0.2140(4) 0.34047(19)
H15_2 H 0.6031 0.2672 0.3418
C15_2 C 0.6488(5) 0.1750(5) 0.36247(19)
H16_2 H 0.6765 0.2016 0.3776
C16_2 C 0.6508(5) 0.0958(5) 0.36132(19)
C17_2 C 0.6087(5) 0.0608(4) 0.33751(19)
H17_2 H 0.6087 0.0077 0.3354
C18_2 C 0.5676(5) 0.1055(5) 0.31732(19)
H18_2 H 0.5391 0.0809 0.3019
C19_2 C 0.6972(5) 0.0494(6) 0.3845(2)
H19_2 H 0.7277 0.0841 0.3972
H20_2 H 0.7322 0.0166 0.3730
H21_2 H 0.6151 0.0327 0.4187
Mn1_3 Mn 0.5000 0.7500 0.53102(3)
Cl1_2 Cl 0.60141(12) 0.64817(11) 0.53038(5)
N1_2 N 0.4314(4) 0.6848(4) 0.56810(15)
N2_2 N 0.0694(4) 0.6845(4) 0.74354(15)
C1_2 C 0.4640(4) 0.6454(5) 0.59047(19)
H1_2 H 0.5172 0.6469 0.5918
C2_2 C 0.4250(5) 0.6012(5) 0.61247(19)
H2_2 H 0.4516 0.5735 0.6276
C3_2 C 0.3458(5) 0.5992(5) 0.61132(19)
C4_2 C 0.3108(4) 0.6413(5) 0.58751(19)
H3_2 H 0.2577 0.6413 0.5854
C5_2 C 0.3555(5) 0.6824(5) 0.56732(19)
H4_2 H 0.3309 0.7109 0.5519
C6_2 C 0.2994(6) 0.5528(5) 0.6345(2)
H5_2 H 0.3341 0.5223 0.6472
H6_2 H 0.2666 0.5178 0.6230
C7_2 C 0.2499(5) 0.6019(5) 0.65621(17)
H7_2 H 0.2827 0.6349 0.6687
H8_2 H 0.2168 0.6343 0.6436
C8_2 C 0.2016(6) 0.5540(5) 0.6777(2)
H9_2 H 0.1676 0.5224 0.6652
H10_2 H 0.2348 0.5200 0.6896
C9_2 C 0.1546(5) 0.6003(5) 0.7003(2)
C10_2 C 0.0747(5) 0.6043(6) 0.69843(19)
H11_2 H 0.0486 0.5785 0.6826
C11_2 C 0.0354(5) 0.6464(6) 0.72007(19)
C12_2 C 0.1450(4) 0.6802(5) 0.74483(19)
H13_2 H 0.1701 0.7064 0.7608
C13_2 C 0.1879(4) 0.6400(5) 0.72432(19)
H14_2 H 0.2410 0.6392 0.7266
Cl2_2 Cl 0.39859(12) 0.85183(11) 0.53038(5)
N4_2 N 0.5686(4) 0.8152(4) 0.56810(15)
N5_2 N 0.5655(4) 0.8194(4) 0.49354(15)
N6_2 N 0.4345(4) 0.6806(4) 0.49354(15)
C20_2 C 0.6481(5) 0.9999(5) 0.40621(17)
H22_2 H 0.6157 0.9668 0.3936
C21_2 C 0.6960(5) 0.9516(6) 0.4277(2)
H23_2 H 0.7276 0.9176 0.4152
H24_2 H 0.7300 0.9848 0.4396
C22_2 C 0.6497(5) 0.9046(5) 0.4503(2)
C23_2 C 0.6457(6) 0.8247(5) 0.44843(19)
H25_2 H 0.6715 0.7986 0.4326
C24_2 C 0.6036(6) 0.7854(5) 0.47007(19)
H26_2 H 0.6013 0.7323 0.4685
C25_2 C 0.5698(5) 0.8950(4) 0.49483(19)
H27_2 H 0.5436 0.9201 0.5108
C26_2 C 0.6100(5) 0.9379(4) 0.47432(19)
H28_2 H 0.6108 0.9910 0.4766
H12_2 H 0.9823 0.6487 0.7185
H15_3 H 0.0172 0.1469 0.0918
Cl1_3 Cl 0.39817(11) 0.14859(12) 0.28038(5)
N1_3 N 0.4348(4) 0.3186(4) 0.31810(15)
C1_3 C 0.3954(5) 0.2860(4) 0.34047(19)
H1_3 H 0.3969 0.2328 0.3418
C2_3 C 0.3512(5) 0.3250(5) 0.36247(19)
H2_3 H 0.3235 0.2984 0.3776
C3_3 C 0.3492(5) 0.4042(5) 0.36132(19)
C4_3 C 0.3913(5) 0.4392(4) 0.33751(19)
H3_3 H 0.3913 0.4923 0.3354
C5_3 C 0.4324(5) 0.3945(5) 0.31732(19)
H4_3 H 0.4609 0.4191 0.3019
C6_3 C 0.3028(5) 0.4506(6) 0.3845(2)
H5_3 H 0.2723 0.4159 0.3972
H6_3 H 0.2678 0.4834 0.3730
C7_3 C 0.3519(5) 0.5001(5) 0.40621(17)
H7_3 H 0.3849 0.4673 0.4187
H8_3 H 0.3843 0.5332 0.3936
C8_3 C 0.3040(5) 0.5484(6) 0.4277(2)
H9_3 H 0.2724 0.5824 0.4152
H10_3 H 0.2700 0.5152 0.4396
C9_3 C 0.3503(5) 0.5954(5) 0.4503(2)
C10_3 C 0.3543(6) 0.6753(5) 0.44843(19)
H11_3 H 0.3285 0.7014 0.4326
C11_3 C 0.3964(6) 0.7146(5) 0.47007(19)
H12_3 H 0.3987 0.7677 0.4685
C12_3 C 0.4302(5) 0.6050(4) 0.49483(19)
H13_3 H 0.4564 0.5799 0.5108
C13_3 C 0.3900(5) 0.5621(4) 0.47432(19)
H14_3 H 0.3892 0.5090 0.4766
Cl2_3 Cl 0.60183(11) 0.35141(12) 0.28038(5)
N5_3 N 0.5694(4) 0.1845(4) 0.24354(15)
C14_3 C 0.9640(4) 0.1454(5) 0.09047(19)
C15_3 C 0.9250(5) 0.1012(5) 0.11247(19)
H16_3 H 0.9516 0.0735 0.1276
C16_3 C 0.8458(5) 0.0992(5) 0.11132(19)
C17_3 C 0.8108(4) 0.1413(5) 0.08751(19)
H17_3 H 0.7577 0.1413 0.0854
C18_3 C 0.8555(5) 0.1824(5) 0.06732(19)
H18_3 H 0.8309 0.2109 0.0519
C19_3 C 0.7994(6) 0.0528(5) 0.1345(2)
H19_3 H 0.8341 0.0223 0.1472
H20_3 H 0.7666 0.0178 0.1230
C20_3 C 0.7499(5) 0.1019(5) 0.15621(17)
H21_3 H 0.7827 0.1349 0.1687
H22_3 H 0.7168 0.1343 0.1436
C21_3 C 0.7016(6) 0.0540(5) 0.1777(2)
H23_3 H 0.6676 0.0224 0.1652
H24_3 H 0.7348 0.0200 0.1896
C22_3 C 0.6546(5) 0.1003(5) 0.2003(2)
C23_3 C 0.5747(5) 0.1043(6) 0.19843(19)
H25_3 H 0.5486 0.0785 0.1826
C24_3 C 0.5354(5) 0.1464(6) 0.22007(19)
H26_3 H 0.4823 0.1487 0.2185
C25_3 C 0.6450(4) 0.1802(5) 0.24483(19)
H27_3 H 0.6701 0.2064 0.2608
C26_3 C 0.6879(4) 0.1400(5) 0.22432(19)
H28_3 H 0.7410 0.1392 0.2266
H13_4 H 0.0436 0.4201 0.0108
Cl1_4 Cl 0.10183(11) 0.85141(12) 0.78038(5)
N1_4 N 0.0652(4) 0.6814(4) 0.81810(15)
C1_4 C 0.1046(5) 0.7140(4) 0.84047(19)
H1_4 H 0.1031 0.7672 0.8418
C2_4 C 0.1488(5) 0.6750(5) 0.86247(19)
H2_4 H 0.1765 0.7016 0.8776
C3_4 C 0.1508(5) 0.5958(5) 0.86132(19)
C4_4 C 0.1087(5) 0.5608(4) 0.83751(19)
H3_4 H 0.1087 0.5077 0.8354
C5_4 C 0.0676(5) 0.6055(5) 0.81732(19)
H4_4 H 0.0391 0.5809 0.8019
C6_4 C 0.1972(5) 0.5494(6) 0.8845(2)
H5_4 H 0.2277 0.5841 0.8972
H6_4 H 0.2322 0.5166 0.8730
C7_4 C 0.1481(5) 0.4999(5) 0.90621(17)
H7_4 H 0.1151 0.5327 0.9187
H8_4 H 0.1157 0.4668 0.8936
C8_4 C 0.1960(5) 0.4516(6) 0.9277(2)
H9_4 H 0.2276 0.4176 0.9152
H10_4 H 0.2300 0.4848 0.9396
C9_4 C 0.1497(5) 0.4046(5) 0.9503(2)
C10_4 C 0.1457(6) 0.3247(5) 0.94843(19)
H11_4 H 0.1715 0.2986 0.9326
C11_4 C 0.1036(6) 0.2854(5) 0.97007(19)
H12_4 H 0.1013 0.2323 0.9685
C12_4 C 0.0698(5) 0.3950(4) 0.99483(19)
C13_4 C 0.1100(5) 0.4379(4) 0.97432(19)
H14_4 H 0.1108 0.4910 0.9766
H26_4 H 0.0177 0.8513 0.7185
Cl2_4 Cl 0.89817(11) 0.64859(12) 0.78038(5)
N5_4 N 0.9306(4) 0.8155(4) 0.74354(15)
C14_4 C 0.5360(4) 0.8546(5) 0.59047(19)
H15_4 H 0.4828 0.8531 0.5918
C15_4 C 0.5750(5) 0.8988(5) 0.61247(19)
H16_4 H 0.5484 0.9265 0.6276
C16_4 C 0.6542(5) 0.9008(5) 0.61132(19)
C17_4 C 0.6892(4) 0.8587(5) 0.58751(19)
H17_4 H 0.7423 0.8587 0.5854
C18_4 C 0.6445(5) 0.8176(5) 0.56732(19)
H18_4 H 0.6691 0.7891 0.5519
C19_4 C 0.7006(6) 0.9472(5) 0.6345(2)
H19_4 H 0.6659 0.9777 0.6472
H20_4 H 0.7334 0.9822 0.6230
C20_4 C 0.7501(5) 0.8981(5) 0.65621(17)
H21_4 H 0.7173 0.8651 0.6687
H22_4 H 0.7832 0.8657 0.6436
C21_4 C 0.7984(6) 0.9460(5) 0.6777(2)
H23_4 H 0.8324 0.9776 0.6652
H24_4 H 0.7652 0.9800 0.6896
C22_4 C 0.8454(5) 0.8997(5) 0.7003(2)
C23_4 C 0.9253(5) 0.8957(6) 0.69843(19)
H25_4 H 0.9514 0.9215 0.6826
C24_4 C 0.9646(5) 0.8536(6) 0.72007(19)
C25_4 C 0.8550(4) 0.8198(5) 0.74483(19)
H27_4 H 0.8299 0.7936 0.7608
C26_4 C 0.8121(4) 0.8600(5) 0.72432(19)
H28_4 H 0.7590 0.8608 0.7266
Mn3_3 Mn 0.0000 0.2500 0.21898(3)
N3_3 N 0.0652(4) 0.1814(4) 0.18190(15)
C14_5 C 0.1046(5) 0.2140(4) 0.15953(19)
H15_5 H 0.1031 0.2672 0.1582
C15_5 C 0.1488(5) 0.1750(5) 0.13753(19)
H16_5 H 0.1765 0.2016 0.1224
C16_5 C 0.1508(5) 0.0958(5) 0.13868(19)
C17_5 C 0.1087(5) 0.0608(4) 0.16249(19)
H17_5 H 0.1087 0.0077 0.1646
C18_5 C 0.0676(5) 0.1055(5) 0.18268(19)
H18_5 H 0.0391 0.0809 0.1981
C19_5 C 0.1972(5) 0.0494(6) 0.1155(2)
H19_5 H 0.2277 0.0841 0.1028
H20_5 H 0.2322 0.0166 0.1270
H21_5 H 0.1151 0.0327 0.0813
N5_5 N 0.0655(4) 0.8194(4) 0.00646(15)
C20_5 C 0.1481(5) 0.9999(5) 0.09379(17)
H22_5 H 0.1157 0.9668 0.1064
C21_5 C 0.1960(5) 0.9516(6) 0.0723(2)
H23_5 H 0.2276 0.9176 0.0848
H24_5 H 0.2300 0.9848 0.0604
C22_5 C 0.1497(5) 0.9046(5) 0.0497(2)
C23_5 C 0.1457(6) 0.8247(5) 0.05157(19)
H25_5 H 0.1715 0.7986 0.0674
C24_5 C 0.1036(6) 0.7854(5) 0.02993(19)
H26_5 H 0.1013 0.7323 0.0315
C25_5 C 0.0698(5) 0.8950(4) 0.00517(19)
C26_5 C 0.1100(5) 0.9379(4) 0.02568(19)
H28_5 H 0.1108 0.9910 0.0234
Mn1_4 Mn -0.0000 0.7500 0.96898(3)
Cl1_5 Cl 0.10141(12) 0.64817(11) 0.96962(5)
H1_5 H 0.0172 0.6469 0.9082
N4_3 N 0.0686(4) 0.8152(4) 0.93190(15)
H27_5 H 0.0436 0.9201 0.9892
Mn3_4 Mn 1.0000 0.2500 0.21898(3)
N6_3 N 0.9345(4) 0.6806(4) 0.00646(15)
Mn1_5 Mn 1.0000 0.7500 0.96898(3)
N1_5 N 0.9314(4) 0.6848(4) 0.93190(15)
N2_3 N 0.5694(4) 0.6845(4) 0.75646(15)
C1_5 C 0.9640(4) 0.6454(5) 0.90953(19)
C2_5 C 0.9250(5) 0.6012(5) 0.88753(19)
H2_5 H 0.9516 0.5735 0.8724
C3_5 C 0.8458(5) 0.5992(5) 0.88868(19)
C4_5 C 0.8108(4) 0.6413(5) 0.91249(19)
H3_5 H 0.7577 0.6413 0.9146
C5_5 C 0.8555(5) 0.6824(5) 0.93268(19)
H4_5 H 0.8309 0.7109 0.9481
C6_5 C 0.7994(6) 0.5528(5) 0.8655(2)
H5_5 H 0.8341 0.5223 0.8528
H6_5 H 0.7666 0.5178 0.8770
C7_5 C 0.7499(5) 0.6019(5) 0.84379(17)
H7_5 H 0.7827 0.6349 0.8313
H8_5 H 0.7168 0.6343 0.8564
C8_5 C 0.7016(6) 0.5540(5) 0.8223(2)
H9_5 H 0.6676 0.5224 0.8348
H10_5 H 0.7348 0.5200 0.8104
C9_5 C 0.6546(5) 0.6003(5) 0.7997(2)
C10_5 C 0.5747(5) 0.6043(6) 0.80157(19)
H11_5 H 0.5486 0.5785 0.8174
C11_5 C 0.5354(5) 0.6464(6) 0.77993(19)
H12_5 H 0.4823 0.6487 0.7815
C12_5 C 0.6450(4) 0.6802(5) 0.75517(19)
H13_5 H 0.6701 0.7064 0.7392
C13_5 C 0.6879(4) 0.6400(5) 0.77568(19)
H14_5 H 0.7410 0.6392 0.7734
Mn2_2 Mn 0.5000 0.7500 0.71898(3)
Cl2_5 Cl 0.89859(12) 0.85183(11) 0.96962(5)
H12_6 H 0.0177 0.3513 0.2815
Mn1_6 Mn 0.5000 0.2500 0.46898(3)
Cl1_6 Cl 0.39859(12) 0.35183(11) 0.46962(5)
N1_6 N 0.5686(4) 0.3152(4) 0.43190(15)
N2_4 N 0.9306(4) 0.3155(4) 0.25646(15)
C1_6 C 0.5360(4) 0.3546(5) 0.40953(19)
H1_6 H 0.4828 0.3531 0.4082
C2_6 C 0.5750(5) 0.3988(5) 0.38753(19)
H2_6 H 0.5484 0.4265 0.3724
C3_6 C 0.6542(5) 0.4008(5) 0.38868(19)
C4_6 C 0.6892(4) 0.3587(5) 0.41249(19)
H3_6 H 0.7423 0.3587 0.4146
C5_6 C 0.6445(5) 0.3176(5) 0.43268(19)
H4_6 H 0.6691 0.2891 0.4481
C6_6 C 0.7006(6) 0.4472(5) 0.3655(2)
H5_6 H 0.6659 0.4777 0.3528
H6_6 H 0.7334 0.4822 0.3770
C7_6 C 0.7501(5) 0.3981(5) 0.34379(17)
H7_6 H 0.7173 0.3651 0.3313
H8_6 H 0.7832 0.3657 0.3564
C8_6 C 0.7984(6) 0.4460(5) 0.3223(2)
H9_6 H 0.8324 0.4776 0.3348
H10_6 H 0.7652 0.4800 0.3104
C9_6 C 0.8454(5) 0.3997(5) 0.2997(2)
C10_6 C 0.9253(5) 0.3957(6) 0.30157(19)
H11_6 H 0.9514 0.4215 0.3174
C11_6 C 0.9646(5) 0.3536(6) 0.27993(19)
C12_6 C 0.8550(4) 0.3198(5) 0.25517(19)
H13_6 H 0.8299 0.2936 0.2392
C13_6 C 0.8121(4) 0.3600(5) 0.27568(19)
H14_6 H 0.7590 0.3608 0.2734
Cl2_6 Cl 0.60141(12) 0.14817(11) 0.46962(5)
N4_4 N 0.4314(4) 0.1848(4) 0.43190(15)
N5_6 N 0.4345(4) 0.1806(4) 0.50646(15)
N6_4 N 0.5655(4) 0.3194(4) 0.50646(15)
C20_6 C 0.3519(5) 0.0001(5) 0.59379(17)
H22_6 H 0.3843 0.0332 0.6064
C21_6 C 0.3040(5) 0.0484(6) 0.5723(2)
H23_6 H 0.2724 0.0824 0.5848
H24_6 H 0.2700 0.0152 0.5604
C22_6 C 0.3503(5) 0.0954(5) 0.5497(2)
C23_6 C 0.3543(6) 0.1753(5) 0.55157(19)
H25_6 H 0.3285 0.2014 0.5674
C24_6 C 0.3964(6) 0.2146(5) 0.52993(19)
H26_6 H 0.3987 0.2677 0.5315
C25_6 C 0.4302(5) 0.1050(4) 0.50517(19)
H27_6 H 0.4564 0.0799 0.4892
C26_6 C 0.3900(5) 0.0621(4) 0.52568(19)
H28_6 H 0.3892 0.0090 0.5234
N3_4 N 0.4348(4) 0.8186(4) 0.68190(15)
C14_6 C 0.3954(5) 0.7860(4) 0.65953(19)
H15_6 H 0.3969 0.7328 0.6582
C15_6 C 0.3512(5) 0.8250(5) 0.63753(19)
H16_6 H 0.3235 0.7984 0.6224
C16_6 C 0.3492(5) 0.9042(5) 0.63868(19)
C17_6 C 0.3913(5) 0.9392(4) 0.66249(19)
H17_6 H 0.3913 0.9923 0.6646
C18_6 C 0.4324(5) 0.8945(5) 0.68268(19)
H18_6 H 0.4609 0.9191 0.6981
C19_6 C 0.3028(5) 0.9506(6) 0.6155(2)
H19_6 H 0.2723 0.9159 0.6028
H20_6 H 0.2678 0.9834 0.6270
H21_6 H 0.3849 0.9673 0.5813
Cl1_7 Cl 0.60183(11) 0.85141(12) 0.71962(5)
N1_7 N 0.5652(4) 0.6814(4) 0.68190(15)
C1_7 C 0.6046(5) 0.7140(4) 0.65953(19)
H1_7 H 0.6031 0.7672 0.6582
C2_7 C 0.6488(5) 0.6750(5) 0.63753(19)
H2_7 H 0.6765 0.7016 0.6224
C3_7 C 0.6508(5) 0.5958(5) 0.63868(19)
C4_7 C 0.6087(5) 0.5608(4) 0.66249(19)
H3_7 H 0.6087 0.5077 0.6646
C5_7 C 0.5676(5) 0.6055(5) 0.68268(19)
H4_7 H 0.5391 0.5809 0.6981
C6_7 C 0.6972(5) 0.5494(6) 0.6155(2)
H5_7 H 0.7277 0.5841 0.6028
H6_7 H 0.7322 0.5166 0.6270
C7_7 C 0.6481(5) 0.4999(5) 0.59379(17)
H7_7 H 0.6151 0.5327 0.5813
H8_7 H 0.6157 0.4668 0.6064
C8_7 C 0.6960(5) 0.4516(6) 0.5723(2)
H9_7 H 0.7276 0.4176 0.5848
H10_7 H 0.7300 0.4848 0.5604
C9_7 C 0.6497(5) 0.4046(5) 0.5497(2)
C10_7 C 0.6457(6) 0.3247(5) 0.55157(19)
H11_7 H 0.6715 0.2986 0.5674
C11_7 C 0.6036(6) 0.2854(5) 0.52993(19)
H12_7 H 0.6013 0.2323 0.5315
C12_7 C 0.5698(5) 0.3950(4) 0.50517(19)
H13_7 H 0.5436 0.4201 0.4892
C13_7 C 0.6100(5) 0.4379(4) 0.52568(19)
H14_7 H 0.6108 0.4910 0.5234
Cl2_7 Cl 0.39817(11) 0.64859(12) 0.71962(5)
N5_7 N 0.4306(4) 0.8155(4) 0.75646(15)
C14_7 C 0.0360(4) 0.8546(5) 0.90953(19)
C15_7 C 0.0750(5) 0.8988(5) 0.88753(19)
H16_7 H 0.0484 0.9265 0.8724
C16_7 C 0.1542(5) 0.9008(5) 0.88868(19)
C17_7 C 0.1892(4) 0.8587(5) 0.91249(19)
H17_7 H 0.2423 0.8587 0.9146
C18_7 C 0.1445(5) 0.8176(5) 0.93268(19)
H18_7 H 0.1691 0.7891 0.9481
C19_7 C 0.2006(6) 0.9472(5) 0.8655(2)
H19_7 H 0.1659 0.9777 0.8528
H20_7 H 0.2334 0.9822 0.8770
C20_7 C 0.2501(5) 0.8981(5) 0.84379(17)
H21_7 H 0.2173 0.8651 0.8313
H22_7 H 0.2832 0.8657 0.8564
C21_7 C 0.2984(6) 0.9460(5) 0.8223(2)
H23_7 H 0.3324 0.9776 0.8348
H24_7 H 0.2652 0.9800 0.8104
C22_7 C 0.3454(5) 0.8997(5) 0.7997(2)
C23_7 C 0.4253(5) 0.8957(6) 0.80157(19)
H25_7 H 0.4514 0.9215 0.8174
C24_7 C 0.4646(5) 0.8536(6) 0.77993(19)
H26_7 H 0.5177 0.8513 0.7815
C25_7 C 0.3550(4) 0.8198(5) 0.75517(19)
H27_7 H 0.3299 0.7936 0.7392
C26_7 C 0.3121(4) 0.8600(5) 0.77568(19)
H28_7 H 0.2590 0.8608 0.7734
H15_7 H 0.9828 0.8531 0.9082
Cl2_8 Cl 0.10183(11) 0.35141(12) 0.21962(5)
N5_8 N 0.0694(4) 0.1845(4) 0.25646(15)
C14_8 C 0.4640(4) 0.1454(5) 0.40953(19)
H15_8 H 0.5172 0.1469 0.4082
C15_8 C 0.4250(5) 0.1012(5) 0.38753(19)
H16_8 H 0.4516 0.0735 0.3724
C16_8 C 0.3458(5) 0.0992(5) 0.38868(19)
C17_8 C 0.3108(4) 0.1413(5) 0.41249(19)
H17_8 H 0.2577 0.1413 0.4146
C18_8 C 0.3555(5) 0.1824(5) 0.43268(19)
H18_8 H 0.3309 0.2109 0.4481
C19_8 C 0.2994(6) 0.0528(5) 0.3655(2)
H19_8 H 0.3341 0.0223 0.3528
H20_8 H 0.2666 0.0178 0.3770
C20_8 C 0.2499(5) 0.1019(5) 0.34379(17)
H21_8 H 0.2827 0.1349 0.3313
H22_8 H 0.2168 0.1343 0.3564
C21_8 C 0.2016(6) 0.0540(5) 0.3223(2)
H23_8 H 0.1676 0.0224 0.3348
H24_8 H 0.2348 0.0200 0.3104
C22_8 C 0.1546(5) 0.1003(5) 0.2997(2)
C23_8 C 0.0747(5) 0.1043(6) 0.30157(19)
H25_8 H 0.0486 0.0785 0.3174
C24_8 C 0.0354(5) 0.1464(6) 0.27993(19)
C25_8 C 0.1450(4) 0.1802(5) 0.25517(19)
H27_8 H 0.1701 0.2064 0.2392
C26_8 C 0.1879(4) 0.1400(5) 0.27568(19)
H28_8 H 0.2410 0.1392 0.2734
Cl1_8 Cl 0.89817(11) 0.14859(12) 0.21962(5)
N1_8 N 0.9348(4) 0.3186(4) 0.18190(15)
C1_8 C 0.8954(5) 0.2860(4) 0.15953(19)
H1_8 H 0.8969 0.2328 0.1582
C2_8 C 0.8512(5) 0.3250(5) 0.13753(19)
H2_8 H 0.8235 0.2984 0.1224
C3_8 C 0.8492(5) 0.4042(5) 0.13868(19)
C4_8 C 0.8913(5) 0.4392(4) 0.16249(19)
H3_8 H 0.8913 0.4923 0.1646
C5_8 C 0.9324(5) 0.3945(5) 0.18268(19)
H4_8 H 0.9609 0.4191 0.1981
C6_8 C 0.8028(5) 0.4506(6) 0.1155(2)
H5_8 H 0.7723 0.4159 0.1028
H6_8 H 0.7678 0.4834 0.1270
C7_8 C 0.8519(5) 0.5001(5) 0.09379(17)
H7_8 H 0.8849 0.4673 0.0813
H8_8 H 0.8843 0.5332 0.1064
C8_8 C 0.8040(5) 0.5484(6) 0.0723(2)
H9_8 H 0.7724 0.5824 0.0848
H10_8 H 0.7700 0.5152 0.0604
C9_8 C 0.8503(5) 0.5954(5) 0.0497(2)
C10_8 C 0.8543(6) 0.6753(5) 0.05157(19)
H11_8 H 0.8285 0.7014 0.0674
C11_8 C 0.8964(6) 0.7146(5) 0.02993(19)
H12_8 H 0.8987 0.7677 0.0315
C12_8 C 0.9302(5) 0.6050(4) 0.00517(19)
C13_8 C 0.8900(5) 0.5621(4) 0.02568(19)
H14_8 H 0.8892 0.5090 0.0234
H26_8 H 0.9823 0.1487 0.2815
H13_8 H 0.9564 0.5799 0.9892
Mn6 Mn -0.0000 0.2500 0.84073(5)
H43 H 0.0193 0.3551 0.9024
Mn4 Mn 0.5000 0.2500 0.09073(5)
Cl3 Cl 0.40009(15) 0.35365(19) 0.09067(8)
N7 N 0.5668(5) 0.3181(5) 0.12819(18)
N8 N 0.5646(6) 0.6799(5) 0.30355(19)
C27 C 0.6061(6) 0.2839(6) 0.1512(2)
H29 H 0.6051 0.2307 0.1524
C28 C 0.6477(6) 0.3237(7) 0.1729(2)
H30 H 0.6738 0.2969 0.1885
C29 C 0.6517(5) 0.4014(6) 0.1723(2)
C30 C 0.6110(6) 0.4375(6) 0.1485(2)
H31 H 0.6114 0.4907 0.1469
C31 C 0.5706(6) 0.3949(6) 0.1273(2)
H32 H 0.5442 0.4205 0.1115
C32 C 0.6983(7) 0.4470(8) 0.1960(3)
H33 H 0.7267 0.4116 0.2092
H34 H 0.7351 0.4784 0.1848
C33 C 0.6500(7) 0.4983(6) 0.2168(2)
H35 H 0.6212 0.5338 0.2039
H36 H 0.6138 0.4673 0.2286
C34 C 0.7002(7) 0.5425(7) 0.2394(3)
H37 H 0.7350 0.5749 0.2276
H38 H 0.7307 0.5068 0.2516
C35 C 0.6528(7) 0.5922(6) 0.2616(2)
C36 C 0.6086(8) 0.5593(6) 0.2842(3)
H39 H 0.6078 0.5062 0.2863
C37 C 0.5641(8) 0.6049(6) 0.3044(3)
H40 H 0.5329 0.5807 0.3191
C38 C 0.6083(10) 0.7117(7) 0.2809(3)
H41 H 0.6093 0.7649 0.2796
C39 C 0.6514(9) 0.6707(7) 0.2597(3)
H42 H 0.6793 0.6959 0.2442
Mn5 Mn 0.5000 0.7500 0.34073(5)
Cl4 Cl 0.59991(15) 0.14635(19) 0.09067(8)
N10 N 0.4332(5) 0.1819(5) 0.12819(18)
N11 N 0.5701(5) 0.3146(6) 0.05355(19)
N12 N 0.4299(5) 0.1854(6) 0.05355(19)
H52 H 0.7432 0.4807 0.0016
C48 C 0.6578(6) 0.4028(7) 0.0116(2)
C49 C 0.6907(6) 0.3586(8) 0.0342(3)
H53 H 0.7438 0.3578 0.0363
C50 C 0.6451(6) 0.3141(8) 0.0544(3)
H54 H 0.6693 0.2829 0.0691
C51 C 0.5383(7) 0.3583(10) 0.0309(3)
H55 H 0.4851 0.3593 0.0296
C52 C 0.5793(7) 0.4014(9) 0.0097(3)
Mn6_2 Mn 1.0000 0.2500 0.84073(5)
N9 N 0.9319(5) 0.3168(5) 0.87819(18)
C40 C 0.9661(6) 0.3561(6) 0.9012(2)
C41 C 0.9263(7) 0.3977(6) 0.9229(2)
H44 H 0.9531 0.4238 0.9385
C42 C 0.8486(6) 0.4017(5) 0.9223(2)
C43 C 0.8125(6) 0.3610(6) 0.8985(2)
H45 H 0.7593 0.3614 0.8969
C44 C 0.8551(6) 0.3206(6) 0.8773(2)
H46 H 0.8295 0.2942 0.8615
C45 C 0.8030(8) 0.4483(7) 0.9460(3)
H47 H 0.8384 0.4767 0.9592
H48 H 0.7716 0.4851 0.9348
C46 C 0.7517(6) 0.4000(7) 0.9668(2)
H49 H 0.7162 0.3712 0.9539
H50 H 0.7827 0.3638 0.9786
C47 C 0.7075(7) 0.4502(7) 0.9894(3)
H51 H 0.6751 0.4850 0.9776
H56 H 0.5541 0.4293 0.9942
Mn4_2 Mn 0.0000 0.7500 0.59073(5)
Cl3_2 Cl 0.09991(15) 0.64635(19) 0.59067(8)
N10_2 N 0.0668(5) 0.8181(5) 0.62819(18)
N12_2 N 0.0701(5) 0.8146(6) 0.55355(19)
H55_2 H 0.0149 0.6407 0.5296
Mn4_3 Mn 1.0000 0.7500 0.59073(5)
N7_2 N 0.9332(5) 0.6819(5) 0.62819(18)
N8_2 N 0.9354(6) 0.3201(5) 0.80355(19)
C27_2 C 0.8939(6) 0.7161(6) 0.6512(2)
H29_2 H 0.8949 0.7693 0.6524
C28_2 C 0.8523(6) 0.6763(7) 0.6729(2)
H30_2 H 0.8262 0.7031 0.6885
C29_2 C 0.8483(5) 0.5986(6) 0.6723(2)
C30_2 C 0.8890(6) 0.5625(6) 0.6485(2)
H31_2 H 0.8886 0.5093 0.6469
C31_2 C 0.9294(6) 0.6051(6) 0.6273(2)
H32_2 H 0.9558 0.5795 0.6115
C32_2 C 0.8017(7) 0.5530(8) 0.6960(3)
H33_2 H 0.7733 0.5884 0.7092
H34_2 H 0.7649 0.5216 0.6848
C33_2 C 0.8500(7) 0.5017(6) 0.7168(2)
H35_2 H 0.8788 0.4662 0.7039
H36_2 H 0.8862 0.5327 0.7286
C34_2 C 0.7998(7) 0.4575(7) 0.7394(3)
H37_2 H 0.7650 0.4251 0.7276
H38_2 H 0.7693 0.4932 0.7516
C35_2 C 0.8472(7) 0.4078(6) 0.7616(2)
C36_2 C 0.8914(8) 0.4407(6) 0.7842(3)
H39_2 H 0.8922 0.4938 0.7863
C37_2 C 0.9359(8) 0.3951(6) 0.8044(3)
H40_2 H 0.9671 0.4193 0.8191
C38_2 C 0.8917(10) 0.2883(7) 0.7809(3)
H41_2 H 0.8907 0.2351 0.7796
C39_2 C 0.8486(9) 0.3293(7) 0.7597(3)
H42_2 H 0.8207 0.3041 0.7442
Cl4_2 Cl 0.90009(15) 0.85365(19) 0.59067(8)
N9_2 N 0.5681(5) 0.6832(5) 0.37819(18)
N11_2 N 0.9299(5) 0.6854(6) 0.55355(19)
C40_2 C 0.5339(6) 0.6439(6) 0.4012(2)
H43_2 H 0.4807 0.6449 0.4024
C41_2 C 0.5737(7) 0.6023(6) 0.4229(2)
H44_2 H 0.5469 0.5762 0.4385
C42_2 C 0.6514(6) 0.5983(5) 0.4223(2)
C43_2 C 0.6875(6) 0.6390(6) 0.3985(2)
H45_2 H 0.7407 0.6386 0.3969
C44_2 C 0.6449(6) 0.6794(6) 0.3773(2)
H46_2 H 0.6705 0.7058 0.3615
C45_2 C 0.6970(8) 0.5517(7) 0.4460(3)
H47_2 H 0.6616 0.5233 0.4592
H48_2 H 0.7284 0.5149 0.4348
C46_2 C 0.7483(6) 0.6000(7) 0.4668(2)
H49_2 H 0.7838 0.6288 0.4539
H50_2 H 0.7173 0.6362 0.4786
C47_2 C 0.7925(7) 0.5498(7) 0.4894(3)
H51_2 H 0.8249 0.5150 0.4776
H52_2 H 0.7568 0.5193 0.5016
C48_2 C 0.8422(6) 0.5972(7) 0.5116(2)
C49_2 C 0.8093(6) 0.6414(8) 0.5342(3)
H53_2 H 0.7562 0.6422 0.5363
C50_2 C 0.8549(6) 0.6859(8) 0.5544(3)
H54_2 H 0.8307 0.7171 0.5691
C51_2 C 0.9617(7) 0.6417(10) 0.5309(3)
C52_2 C 0.9207(7) 0.5986(9) 0.5097(3)
H56_2 H 0.9459 0.5707 0.4942
C40_3 C 0.3939(6) 0.2161(6) 0.1512(2)
H43_3 H 0.3949 0.2693 0.1524
C41_3 C 0.3523(6) 0.1763(7) 0.1729(2)
H44_3 H 0.3262 0.2031 0.1885
C42_3 C 0.3483(5) 0.0986(6) 0.1723(2)
C43_3 C 0.3890(6) 0.0625(6) 0.1485(2)
H45_3 H 0.3886 0.0093 0.1469
C44_3 C 0.4294(6) 0.1051(6) 0.1273(2)
H46_3 H 0.4558 0.0795 0.1115
C45_3 C 0.3017(7) 0.0530(8) 0.1960(3)
H47_3 H 0.2733 0.0884 0.2092
H48_3 H 0.2649 0.0216 0.1848
C46_3 C 0.3500(7) 0.0017(6) 0.2168(2)
H50_3 H 0.3862 0.0327 0.2286
Cl3_3 Cl 0.39635(19) 0.65009(15) 0.34067(8)
N7_3 N 0.4319(5) 0.8168(5) 0.37819(18)
C27_3 C 0.4661(6) 0.8561(6) 0.4012(2)
H29_3 H 0.5193 0.8551 0.4024
C28_3 C 0.4263(7) 0.8977(6) 0.4229(2)
H30_3 H 0.4531 0.9238 0.4385
C29_3 C 0.3486(6) 0.9017(5) 0.4223(2)
C30_3 C 0.3125(6) 0.8610(6) 0.3985(2)
H31_3 H 0.2593 0.8614 0.3969
C31_3 C 0.3551(6) 0.8206(6) 0.3773(2)
H32_3 H 0.3295 0.7942 0.3615
C32_3 C 0.3030(8) 0.9483(7) 0.4460(3)
H33_3 H 0.3384 0.9767 0.4592
H34_3 H 0.2716 0.9851 0.4348
C33_3 C 0.2517(6) 0.9000(7) 0.4668(2)
H35_3 H 0.2162 0.8712 0.4539
H36_3 H 0.2827 0.8638 0.4786
C34_3 C 0.2075(7) 0.9502(7) 0.4894(3)
H37_3 H 0.1751 0.9850 0.4776
H38_3 H 0.2432 0.9807 0.5016
C35_3 C 0.1578(6) 0.9028(7) 0.5116(2)
C36_3 C 0.1907(6) 0.8586(8) 0.5342(3)
H39_3 H 0.2438 0.8578 0.5363
C37_3 C 0.1451(6) 0.8141(8) 0.5544(3)
H40_3 H 0.1693 0.7829 0.5691
C38_3 C 0.0383(7) 0.8583(10) 0.5309(3)
C39_3 C 0.0793(7) 0.9014(9) 0.5097(3)
H42_3 H 0.0541 0.9293 0.4942
Cl4_3 Cl 0.60365(19) 0.84991(15) 0.34067(8)
N11_3 N 0.4354(6) 0.8201(5) 0.30355(19)
H49_3 H 0.3788 0.9662 0.2039
C47_3 C 0.2998(7) 0.9575(7) 0.2394(3)
H51_3 H 0.2650 0.9251 0.2276
H52_3 H 0.2693 0.9932 0.2516
C48_3 C 0.3472(7) 0.9078(6) 0.2616(2)
C49_3 C 0.3914(8) 0.9407(6) 0.2842(3)
H53_3 H 0.3922 0.9938 0.2863
C50_3 C 0.4359(8) 0.8951(6) 0.3044(3)
H54_3 H 0.4671 0.9193 0.3191
C51_3 C 0.3917(10) 0.7883(7) 0.2809(3)
H55_3 H 0.3907 0.7351 0.2796
C52_3 C 0.3486(9) 0.8293(7) 0.2597(3)
H56_3 H 0.3207 0.8041 0.2442
H41_3 H 0.9851 0.8593 0.5296
H38_4 H 0.2568 0.0193 0.0016
C35_4 C 0.3422(6) 0.0972(7) 0.0116(2)
C36_4 C 0.3093(6) 0.1414(8) 0.0342(3)
H39_4 H 0.2562 0.1422 0.0363
C37_4 C 0.3549(6) 0.1859(8) 0.0544(3)
H40_4 H 0.3307 0.2171 0.0691
C38_4 C 0.4617(7) 0.1417(10) 0.0309(3)
H41_4 H 0.5149 0.1407 0.0296
C39_4 C 0.4207(7) 0.0986(9) 0.0097(3)
Cl3_4 Cl 0.10365(19) 0.34991(15) 0.84067(8)
N7_4 N 0.0681(5) 0.1832(5) 0.87819(18)
C27_4 C 0.0339(6) 0.1439(6) 0.9012(2)
C28_4 C 0.0737(7) 0.1023(6) 0.9229(2)
H30_4 H 0.0469 0.0762 0.9385
C29_4 C 0.1514(6) 0.0983(5) 0.9223(2)
C30_4 C 0.1875(6) 0.1390(6) 0.8985(2)
H31_4 H 0.2407 0.1386 0.8969
C31_4 C 0.1449(6) 0.1794(6) 0.8773(2)
H32_4 H 0.1705 0.2058 0.8615
C32_4 C 0.1970(8) 0.0517(7) 0.9460(3)
H33_4 H 0.1616 0.0233 0.9592
H34_4 H 0.2284 0.0149 0.9348
C33_4 C 0.2483(6) 0.1000(7) 0.9668(2)
H35_4 H 0.2838 0.1288 0.9539
H36_4 H 0.2173 0.1362 0.9786
C34_4 C 0.2925(7) 0.0498(7) 0.9894(3)
H37_4 H 0.3249 0.0150 0.9776
H42_4 H 0.4459 0.0707 0.9942
N11_4 N 0.0646(6) 0.1799(5) 0.80355(19)
H49_4 H 0.1212 0.0338 0.7039
C47_4 C 0.2002(7) 0.0425(7) 0.7394(3)
H51_4 H 0.2350 0.0749 0.7276
H52_4 H 0.2307 0.0068 0.7516
C48_4 C 0.1528(7) 0.0922(6) 0.7616(2)
C49_4 C 0.1086(8) 0.0593(6) 0.7842(3)
H53_4 H 0.1078 0.0062 0.7863
C50_4 C 0.0641(8) 0.1049(6) 0.8044(3)
H54_4 H 0.0329 0.0807 0.8191
C51_4 C 0.1083(10) 0.2117(7) 0.7809(3)
H55_4 H 0.1093 0.2649 0.7796
C52_4 C 0.1514(9) 0.1707(7) 0.7597(3)
H56_4 H 0.1793 0.1959 0.7442
C40_4 C 0.1061(6) 0.7839(6) 0.6512(2)
H43_4 H 0.1051 0.7307 0.6524
C41_4 C 0.1477(6) 0.8237(7) 0.6729(2)
H44_4 H 0.1738 0.7969 0.6885
C42_4 C 0.1517(5) 0.9014(6) 0.6723(2)
C43_4 C 0.1110(6) 0.9375(6) 0.6485(2)
H45_4 H 0.1114 0.9907 0.6469
C44_4 C 0.0706(6) 0.8949(6) 0.6273(2)
H46_4 H 0.0442 0.9205 0.6115
C45_4 C 0.1983(7) 0.9470(8) 0.6960(3)
H47_4 H 0.2267 0.9116 0.7092
H48_4 H 0.2351 0.9784 0.6848
C46_4 C 0.1500(7) 0.9983(6) 0.7168(2)
H50_4 H 0.1138 0.9673 0.7286
H29_4 H 0.9807 0.1449 0.9024
Cl4_4 Cl 0.89635(19) 0.15009(15) 0.84067(8)
Mn6_3 Mn 0.0000 0.7500 0.15927(5)
N9_3 N 0.0681(5) 0.6832(5) 0.12181(18)
C40_5 C 0.0339(6) 0.6439(6) 0.0988(2)
C41_5 C 0.0737(7) 0.6023(6) 0.0771(2)
H44_5 H 0.0469 0.5762 0.0615
C42_5 C 0.1514(6) 0.5983(5) 0.0777(2)
C43_5 C 0.1875(6) 0.6390(6) 0.1015(2)
H45_5 H 0.2407 0.6386 0.1031
C44_5 C 0.1449(6) 0.6794(6) 0.1227(2)
H46_5 H 0.1705 0.7058 0.1385
C45_5 C 0.1970(8) 0.5517(7) 0.0540(3)
H47_5 H 0.1616 0.5233 0.0408
H48_5 H 0.2284 0.5149 0.0652
C46_5 C 0.2483(6) 0.6000(7) 0.0332(2)
H49_5 H 0.2838 0.6288 0.0461
H50_5 H 0.2173 0.6362 0.0214
C47_5 C 0.2925(7) 0.5498(7) 0.0106(3)
H51_5 H 0.3249 0.5150 0.0224
H56_5 H 0.4459 0.5707 0.0058
Mn4_4 Mn 0.5000 0.7500 0.90927(5)
Cl3_5 Cl 0.59991(15) 0.64635(19) 0.90933(8)
N7_5 N 0.4332(5) 0.6819(5) 0.87181(18)
N8_3 N 0.4354(6) 0.3201(5) 0.69645(19)
C27_5 C 0.3939(6) 0.7161(6) 0.8488(2)
H29_5 H 0.3949 0.7693 0.8476
C28_5 C 0.3523(6) 0.6763(7) 0.8271(2)
H30_5 H 0.3262 0.7031 0.8115
C29_5 C 0.3483(5) 0.5986(6) 0.8277(2)
C30_5 C 0.3890(6) 0.5625(6) 0.8515(2)
H31_5 H 0.3886 0.5093 0.8531
C31_5 C 0.4294(6) 0.6051(6) 0.8727(2)
H32_5 H 0.4558 0.5795 0.8885
C32_5 C 0.3017(7) 0.5530(8) 0.8040(3)
H33_5 H 0.2733 0.5884 0.7908
H34_5 H 0.2649 0.5216 0.8152
C33_5 C 0.3500(7) 0.5017(6) 0.7832(2)
H35_5 H 0.3788 0.4662 0.7961
H36_5 H 0.3862 0.5327 0.7714
C34_5 C 0.2998(7) 0.4575(7) 0.7606(3)
H37_5 H 0.2650 0.4251 0.7724
H38_5 H 0.2693 0.4932 0.7484
C35_5 C 0.3472(7) 0.4078(6) 0.7384(2)
C36_5 C 0.3914(8) 0.4407(6) 0.7158(3)
H39_5 H 0.3922 0.4938 0.7137
C37_5 C 0.4359(8) 0.3951(6) 0.6956(3)
H40_5 H 0.4671 0.4193 0.6809
C38_5 C 0.3917(10) 0.2883(7) 0.7191(3)
H41_5 H 0.3907 0.2351 0.7204
C39_5 C 0.3486(9) 0.3293(7) 0.7403(3)
H42_5 H 0.3207 0.3041 0.7558
Mn5_2 Mn 0.5000 0.2500 0.65927(5)
Cl4_5 Cl 0.40009(15) 0.85365(19) 0.90933(8)
N10_3 N 0.5668(5) 0.8181(5) 0.87181(18)
N11_5 N 0.4299(5) 0.6854(6) 0.94645(19)
N12_3 N 0.5701(5) 0.8146(6) 0.94645(19)
H52_5 H 0.2568 0.5193 0.9984
C48_5 C 0.3422(6) 0.5972(7) 0.9884(2)
C49_5 C 0.3093(6) 0.6414(8) 0.9658(3)
H53_5 H 0.2562 0.6422 0.9637
C50_5 C 0.3549(6) 0.6859(8) 0.9456(3)
H54_5 H 0.3307 0.7171 0.9309
C51_5 C 0.4617(7) 0.6417(10) 0.9691(3)
H55_5 H 0.5149 0.6407 0.9704
C52_5 C 0.4207(7) 0.5986(9) 0.9903(3)
Mn6_4 Mn 1.0000 0.7500 0.15927(5)
H43_5 H 0.9807 0.6449 0.0976
Mn4_5 Mn -0.0000 0.2500 0.40927(5)
N7_6 N 0.0668(5) 0.3181(5) 0.37181(18)
N8_4 N 0.0646(6) 0.6799(5) 0.19645(19)
C27_6 C 0.1061(6) 0.2839(6) 0.3488(2)
H29_6 H 0.1051 0.2307 0.3476
C28_6 C 0.1477(6) 0.3237(7) 0.3271(2)
H30_6 H 0.1738 0.2969 0.3115
C29_6 C 0.1517(5) 0.4014(6) 0.3277(2)
C30_6 C 0.1110(6) 0.4375(6) 0.3515(2)
H31_6 H 0.1114 0.4907 0.3531
C31_6 C 0.0706(6) 0.3949(6) 0.3727(2)
H32_6 H 0.0442 0.4205 0.3885
C32_6 C 0.1983(7) 0.4470(8) 0.3040(3)
H33_6 H 0.2267 0.4116 0.2908
H34_6 H 0.2351 0.4784 0.3152
C33_6 C 0.1500(7) 0.4983(6) 0.2832(2)
H35_6 H 0.1212 0.5338 0.2961
H36_6 H 0.1138 0.4673 0.2714
C34_6 C 0.2002(7) 0.5425(7) 0.2606(3)
H37_6 H 0.2350 0.5749 0.2724
H38_6 H 0.2307 0.5068 0.2484
C35_6 C 0.1528(7) 0.5922(6) 0.2384(2)
C36_6 C 0.1086(8) 0.5593(6) 0.2158(3)
H39_6 H 0.1078 0.5062 0.2137
C37_6 C 0.0641(8) 0.6049(6) 0.1956(3)
H40_6 H 0.0329 0.5807 0.1809
C38_6 C 0.1083(10) 0.7117(7) 0.2191(3)
H41_6 H 0.1093 0.7649 0.2204
C39_6 C 0.1514(9) 0.6707(7) 0.2403(3)
H42_6 H 0.1793 0.6959 0.2558
Cl4_6 Cl 0.09991(15) 0.14635(19) 0.40933(8)
N9_4 N 0.4319(5) 0.3168(5) 0.62181(18)
N11_6 N 0.0701(5) 0.3146(6) 0.44645(19)
C40_6 C 0.4661(6) 0.3561(6) 0.5988(2)
H43_6 H 0.5193 0.3551 0.5976
C41_6 C 0.4263(7) 0.3977(6) 0.5771(2)
H44_6 H 0.4531 0.4238 0.5615
C42_6 C 0.3486(6) 0.4017(5) 0.5777(2)
C43_6 C 0.3125(6) 0.3610(6) 0.6015(2)
H45_6 H 0.2593 0.3614 0.6031
C44_6 C 0.3551(6) 0.3206(6) 0.6227(2)
H46_6 H 0.3295 0.2942 0.6385
C45_6 C 0.3030(8) 0.4483(7) 0.5540(3)
H47_6 H 0.3384 0.4767 0.5408
H48_6 H 0.2716 0.4851 0.5652
C46_6 C 0.2517(6) 0.4000(7) 0.5332(2)
H49_6 H 0.2162 0.3712 0.5461
H50_6 H 0.2827 0.3638 0.5214
C47_6 C 0.2075(7) 0.4502(7) 0.5106(3)
H51_6 H 0.1751 0.4850 0.5224
H52_6 H 0.2432 0.4807 0.4984
C48_6 C 0.1578(6) 0.4028(7) 0.4884(2)
C49_6 C 0.1907(6) 0.3586(8) 0.4658(3)
H53_6 H 0.2438 0.3578 0.4637
C50_6 C 0.1451(6) 0.3141(8) 0.4456(3)
H54_6 H 0.1693 0.2829 0.4309
C51_6 C 0.0383(7) 0.3583(10) 0.4691(3)
C52_6 C 0.0793(7) 0.4014(9) 0.4903(3)
H56_6 H 0.0541 0.4293 0.5058
Mn4_6 Mn 1.0000 0.2500 0.40927(5)
Cl3_6 Cl 0.90009(15) 0.35365(19) 0.40933(8)
N10_4 N 0.9332(5) 0.1819(5) 0.37181(18)
N12_4 N 0.9299(5) 0.1854(6) 0.44645(19)
H55_6 H 0.9851 0.3593 0.4704
H41_7 H 0.0149 0.1407 0.4704
Cl3_7 Cl 0.60365(19) 0.34991(15) 0.65933(8)
N7_7 N 0.5681(5) 0.1832(5) 0.62181(18)
C27_7 C 0.5339(6) 0.1439(6) 0.5988(2)
H29_7 H 0.4807 0.1449 0.5976
C28_7 C 0.5737(7) 0.1023(6) 0.5771(2)
H30_7 H 0.5469 0.0762 0.5615
C29_7 C 0.6514(6) 0.0983(5) 0.5777(2)
C30_7 C 0.6875(6) 0.1390(6) 0.6015(2)
H31_7 H 0.7407 0.1386 0.6031
C31_7 C 0.6449(6) 0.1794(6) 0.6227(2)
H32_7 H 0.6705 0.2058 0.6385
C32_7 C 0.6970(8) 0.0517(7) 0.5540(3)
H33_7 H 0.6616 0.0233 0.5408
H34_7 H 0.7284 0.0149 0.5652
C33_7 C 0.7483(6) 0.1000(7) 0.5332(2)
H35_7 H 0.7838 0.1288 0.5461
H36_7 H 0.7173 0.1362 0.5214
C34_7 C 0.7925(7) 0.0498(7) 0.5106(3)
H37_7 H 0.8249 0.0150 0.5224
H38_7 H 0.7568 0.0193 0.4984
C35_7 C 0.8422(6) 0.0972(7) 0.4884(2)
C36_7 C 0.8093(6) 0.1414(8) 0.4658(3)
H39_7 H 0.7562 0.1422 0.4637
C37_7 C 0.8549(6) 0.1859(8) 0.4456(3)
H40_7 H 0.8307 0.2171 0.4309
C38_7 C 0.9617(7) 0.1417(10) 0.4691(3)
C39_7 C 0.9207(7) 0.0986(9) 0.4903(3)
H42_7 H 0.9459 0.0707 0.5058
Cl4_7 Cl 0.39635(19) 0.15009(15) 0.65933(8)
N11_7 N 0.5646(6) 0.1799(5) 0.69645(19)
H49_7 H 0.6212 0.0338 0.7961
C47_7 C 0.7002(7) 0.0425(7) 0.7606(3)
H51_7 H 0.7350 0.0749 0.7724
H52_7 H 0.7307 0.0068 0.7484
C48_7 C 0.6528(7) 0.0922(6) 0.7384(2)
C49_7 C 0.6086(8) 0.0593(6) 0.7158(3)
H53_7 H 0.6078 0.0062 0.7137
C50_7 C 0.5641(8) 0.1049(6) 0.6956(3)
H54_7 H 0.5329 0.0807 0.6809
C51_7 C 0.6083(10) 0.2117(7) 0.7191(3)
H55_7 H 0.6093 0.2649 0.7204
C52_7 C 0.6514(9) 0.1707(7) 0.7403(3)
H56_7 H 0.6793 0.1959 0.7558
C40_7 C 0.6061(6) 0.7839(6) 0.8488(2)
H43_7 H 0.6051 0.7307 0.8476
C41_7 C 0.6477(6) 0.8237(7) 0.8271(2)
H44_7 H 0.6738 0.7969 0.8115
C42_7 C 0.6517(5) 0.9014(6) 0.8277(2)
C43_7 C 0.6110(6) 0.9375(6) 0.8515(2)
H45_7 H 0.6114 0.9907 0.8531
C44_7 C 0.5706(6) 0.8949(6) 0.8727(2)
H46_7 H 0.5442 0.9205 0.8885
C45_7 C 0.6983(7) 0.9470(8) 0.8040(3)
H47_7 H 0.7267 0.9116 0.7908
H48_7 H 0.7351 0.9784 0.8152
C46_7 C 0.6500(7) 0.9983(6) 0.7832(2)
H50_7 H 0.6138 0.9673 0.7714
H29_8 H 0.0193 0.8551 0.0976
Cl4_8 Cl 0.10365(19) 0.84991(15) 0.15933(8)
C40_8 C 0.8939(6) 0.2161(6) 0.3488(2)
H43_8 H 0.8949 0.2693 0.3476
C41_8 C 0.8523(6) 0.1763(7) 0.3271(2)
H44_8 H 0.8262 0.2031 0.3115
C42_8 C 0.8483(5) 0.0986(6) 0.3277(2)
C43_8 C 0.8890(6) 0.0625(6) 0.3515(2)
H45_8 H 0.8886 0.0093 0.3531
C44_8 C 0.9294(6) 0.1051(6) 0.3727(2)
H46_8 H 0.9558 0.0795 0.3885
C45_8 C 0.8017(7) 0.0530(8) 0.3040(3)
H47_8 H 0.7733 0.0884 0.2908
H48_8 H 0.7649 0.0216 0.3152
C46_8 C 0.8500(7) 0.0017(6) 0.2832(2)
H50_8 H 0.8862 0.0327 0.2714
Cl3_8 Cl 0.89635(19) 0.65009(15) 0.15933(8)
N7_8 N 0.9319(5) 0.8168(5) 0.12181(18)
C27_8 C 0.9661(6) 0.8561(6) 0.0988(2)
C28_8 C 0.9263(7) 0.8977(6) 0.0771(2)
H30_8 H 0.9531 0.9238 0.0615
C29_8 C 0.8486(6) 0.9017(5) 0.0777(2)
C30_8 C 0.8125(6) 0.8610(6) 0.1015(2)
H31_8 H 0.7593 0.8614 0.1031
C31_8 C 0.8551(6) 0.8206(6) 0.1227(2)
H32_8 H 0.8295 0.7942 0.1385
C32_8 C 0.8030(8) 0.9483(7) 0.0540(3)
H33_8 H 0.8384 0.9767 0.0408
H34_8 H 0.7716 0.9851 0.0652
C33_8 C 0.7517(6) 0.9000(7) 0.0332(2)
H35_8 H 0.7162 0.8712 0.0461
H36_8 H 0.7827 0.8638 0.0214
C34_8 C 0.7075(7) 0.9502(7) 0.0106(3)
H37_8 H 0.6751 0.9850 0.0224
H42_8 H 0.5541 0.9293 0.0058
N11_8 N 0.9354(6) 0.8201(5) 0.19645(19)
H49_8 H 0.8788 0.9662 0.2961
C47_8 C 0.7998(7) 0.9575(7) 0.2606(3)
H51_8 H 0.7650 0.9251 0.2724
H52_8 H 0.7693 0.9932 0.2484
C48_8 C 0.8472(7) 0.9078(6) 0.2384(2)
C49_8 C 0.8914(8) 0.9407(6) 0.2158(3)
H53_8 H 0.8922 0.9938 0.2137
C50_8 C 0.9359(8) 0.8951(6) 0.1956(3)
H54_8 H 0.9671 0.9193 0.1809
C51_8 C 0.8917(10) 0.7883(7) 0.2191(3)
H55_8 H 0.8907 0.7351 0.2204
C52_8 C 0.8486(9) 0.8293(7) 0.2403(3)
H56_8 H 0.8207 0.8041 0.2558
H38_8 H 0.7432 0.9807 0.9984
C35_8 C 0.6578(6) 0.9028(7) 0.9884(2)
C36_8 C 0.6907(6) 0.8586(8) 0.9658(3)
H39_8 H 0.7438 0.8578 0.9637
C37_8 C 0.6451(6) 0.8141(8) 0.9456(3)
H40_8 H 0.6693 0.7829 0.9309
C38_8 C 0.5383(7) 0.8583(10) 0.9691(3)
H41_8 H 0.4851 0.8593 0.9704
C39_8 C 0.5793(7) 0.9014(9) 0.9903(3)
loop_
_geom_bond_atom_site_label_1
_geom_bond_atom_site_label_2
_geom_bond_site_symmetry_1
_geom_bond_site_symmetry_2
N1 Mn1 1_555 1_555
N2 C11 1_555 1_555
C1 N1 1_555 1_555
C2 C1 1_555 1_555
H2 C2 1_555 1_555
C3 C2 1_555 1_555
C4 C3 1_555 1_555
H3 C4 1_555 1_555
C5 N1 1_555 1_555
H4 C5 1_555 1_555
C6 C3 1_555 1_555
H5 C6 1_555 1_555
H6 C6 1_555 1_555
C7 C6 1_555 1_555
H7 C7 1_555 1_555
H8 C7 1_555 1_555
C8 C7 1_555 1_555
H9 C8 1_555 1_555
H10 C8 1_555 1_555
C9 C8 1_555 1_555
C10 C9 1_555 1_555
H11 C10 1_555 1_555
C11 C10 1_555 1_555
H12 C11 1_555 1_555
C12 N2 1_555 1_555
H13 C12 1_555 1_555
C13 C9 1_555 1_555
H14 C13 1_555 1_555
Mn2 N2 1_555 1_555
Cl2 Mn1 1_555 1_555
C4 C5 1_555 1_555
C12 C13 1_555 1_555
Mn1_2 Cl1 1_555 1_555
N4 Mn1_2 1_555 1_555
H22 C20 1_555 1_555
C21 C20 1_555 1_555
H23 C21 1_555 1_555
H24 C21 1_555 1_555
C22 C21 1_555 1_555
C23 C22 1_555 1_555
H25 C23 1_555 1_555
C24 N5 1_555 1_555
H26 C24 1_555 1_555
C25 N5 1_555 1_555
C26 C22 1_555 1_555
H28 C26 1_555 1_555
C23 C24 1_555 1_555
C25 C26 1_555 1_555
Mn3_2 N3 1_555 1_555
N3 C14 1_555 1_555
C14 H15 1_555 1_555
C15 C14 1_555 1_555
H16 C15 1_555 1_555
C16 C15 1_555 1_555
C17 C16 1_555 1_555
H17 C17 1_555 1_555
C18 N3 1_555 1_555
H18 C18 1_555 1_555
C19 C16 1_555 1_555
H19 C19 1_555 1_555
H20 C19 1_555 1_555
C17 C18 1_555 1_555
Mn2 N3_2 1_555 1_555
N3_2 C14_2 1_555 1_555
C14_2 H15_2 1_555 1_555
C15_2 C14_2 1_555 1_555
H16_2 C15_2 1_555 1_555
C16_2 C15_2 1_555 1_555
C17_2 C16_2 1_555 1_555
H17_2 C17_2 1_555 1_555
C18_2 N3_2 1_555 1_555
H18_2 C18_2 1_555 1_555
C19_2 C16_2 1_555 1_555
H19_2 C19_2 1_555 1_555
H20_2 C19_2 1_555 1_555
C17_2 C18_2 1_555 1_555
Mn1_3 Cl1_2 1_555 1_555
N1_2 Mn1_3 1_555 1_555
N2_2 C11_2 1_555 1_555
C1_2 N1_2 1_555 1_555
H1_2 C1_2 1_555 1_555
C2_2 C1_2 1_555 1_555
H2_2 C2_2 1_555 1_555
C3_2 C2_2 1_555 1_555
C4_2 C3_2 1_555 1_555
H3_2 C4_2 1_555 1_555
C5_2 N1_2 1_555 1_555
H4_2 C5_2 1_555 1_555
C6_2 C3_2 1_555 1_555
H5_2 C6_2 1_555 1_555
H6_2 C6_2 1_555 1_555
C7_2 C6_2 1_555 1_555
H7_2 C7_2 1_555 1_555
H8_2 C7_2 1_555 1_555
C8_2 C7_2 1_555 1_555
H9_2 C8_2 1_555 1_555
H10_2 C8_2 1_555 1_555
C9_2 C8_2 1_555 1_555
C10_2 C9_2 1_555 1_555
H11_2 C10_2 1_555 1_555
C11_2 C10_2 1_555 1_555
C12_2 N2_2 1_555 1_555
H13_2 C12_2 1_555 1_555
C13_2 C9_2 1_555 1_555
H14_2 C13_2 1_555 1_555
Mn3 N2_2 1_555 1_555
Cl2_2 Mn1_3 1_555 1_555
N4_2 Mn1_3 1_555 1_555
N5_2 Mn1_3 1_555 1_555
N6_2 Mn1_3 1_555 1_555
H22_2 C20_2 1_555 1_555
C21_2 C20_2 1_555 1_555
H23_2 C21_2 1_555 1_555
H24_2 C21_2 1_555 1_555
C22_2 C21_2 1_555 1_555
C23_2 C22_2 1_555 1_555
H25_2 C23_2 1_555 1_555
C24_2 N5_2 1_555 1_555
H26_2 C24_2 1_555 1_555
C25_2 N5_2 1_555 1_555
H27_2 C25_2 1_555 1_555
C26_2 C22_2 1_555 1_555
H28_2 C26_2 1_555 1_555
C4_2 C5_2 1_555 1_555
C12_2 C13_2 1_555 1_555
C23_2 C24_2 1_555 1_555
C25_2 C26_2 1_555 1_555
Mn2 Cl1_3 1_555 1_555
N1_3 Mn2 1_555 1_555
N6_2 C11_3 1_555 1_555
C1_3 N1_3 1_555 1_555
H1_3 C1_3 1_555 1_555
C2_3 C1_3 1_555 1_555
H2_3 C2_3 1_555 1_555
C3_3 C2_3 1_555 1_555
C4_3 C3_3 1_555 1_555
H3_3 C4_3 1_555 1_555
C5_3 N1_3 1_555 1_555
H4_3 C5_3 1_555 1_555
C6_3 C3_3 1_555 1_555
H5_3 C6_3 1_555 1_555
H6_3 C6_3 1_555 1_555
C7_3 C6_3 1_555 1_555
H7_3 C7_3 1_555 1_555
H8_3 C7_3 1_555 1_555
C8_3 C7_3 1_555 1_555
H9_3 C8_3 1_555 1_555
H10_3 C8_3 1_555 1_555
C9_3 C8_3 1_555 1_555
C10_3 C9_3 1_555 1_555
H11_3 C10_3 1_555 1_555
C11_3 C10_3 1_555 1_555
H12_3 C11_3 1_555 1_555
C12_3 N6_2 1_555 1_555
H13_3 C12_3 1_555 1_555
C13_3 C9_3 1_555 1_555
H14_3 C13_3 1_555 1_555
Cl2_3 Mn2 1_555 1_555
N4 C14_3 1_555 1_555
N5_3 Mn2 1_555 1_555
C15_3 C14_3 1_555 1_555
H16_3 C15_3 1_555 1_555
C16_3 C15_3 1_555 1_555
C17_3 C16_3 1_555 1_555
H17_3 C17_3 1_555 1_555
C18_3 N4 1_555 1_555
H18_3 C18_3 1_555 1_555
C19_3 C16_3 1_555 1_555
H19_3 C19_3 1_555 1_555
H20_3 C19_3 1_555 1_555
C20_3 C19_3 1_555 1_555
H21_3 C20_3 1_555 1_555
H22_3 C20_3 1_555 1_555
C21_3 C20_3 1_555 1_555
H23_3 C21_3 1_555 1_555
H24_3 C21_3 1_555 1_555
C22_3 C21_3 1_555 1_555
C23_3 C22_3 1_555 1_555
H25_3 C23_3 1_555 1_555
C24_3 N5_3 1_555 1_555
H26_3 C24_3 1_555 1_555
C25_3 N5_3 1_555 1_555
H27_3 C25_3 1_555 1_555
C26_3 C22_3 1_555 1_555
H28_3 C26_3 1_555 1_555
C4_3 C5_3 1_555 1_555
C12_3 C13_3 1_555 1_555
C17_3 C18_3 1_555 1_555
C23_3 C24_3 1_555 1_555
C25_3 C26_3 1_555 1_555
Mn3 Cl1_4 1_555 1_555
N1_4 Mn3 1_555 1_555
N6 C11_4 1_555 1_555
C1_4 N1_4 1_555 1_555
H1_4 C1_4 1_555 1_555
C2_4 C1_4 1_555 1_555
H2_4 C2_4 1_555 1_555
C3_4 C2_4 1_555 1_555
C4_4 C3_4 1_555 1_555
H3_4 C4_4 1_555 1_555
C5_4 N1_4 1_555 1_555
H4_4 C5_4 1_555 1_555
C6_4 C3_4 1_555 1_555
H5_4 C6_4 1_555 1_555
H6_4 C6_4 1_555 1_555
C7_4 C6_4 1_555 1_555
H7_4 C7_4 1_555 1_555
H8_4 C7_4 1_555 1_555
C8_4 C7_4 1_555 1_555
H9_4 C8_4 1_555 1_555
H10_4 C8_4 1_555 1_555
C9_4 C8_4 1_555 1_555
C10_4 C9_4 1_555 1_555
H11_4 C10_4 1_555 1_555
C11_4 C10_4 1_555 1_555
H12_4 C11_4 1_555 1_555
C12_4 N6 1_555 1_555
C13_4 C9_4 1_555 1_555
H14_4 C13_4 1_555 1_555
C4_4 C5_4 1_555 1_555
C12_4 C13_4 1_555 1_555
Cl2_4 Mn3_2 1_555 1_555
N4_2 C14_4 1_555 1_555
N5_4 Mn3_2 1_555 1_555
C14_4 H15_4 1_555 1_555
C15_4 C14_4 1_555 1_555
H16_4 C15_4 1_555 1_555
C16_4 C15_4 1_555 1_555
C17_4 C16_4 1_555 1_555
H17_4 C17_4 1_555 1_555
C18_4 N4_2 1_555 1_555
H18_4 C18_4 1_555 1_555
C19_4 C16_4 1_555 1_555
H19_4 C19_4 1_555 1_555
H20_4 C19_4 1_555 1_555
C20_4 C19_4 1_555 1_555
H21_4 C20_4 1_555 1_555
H22_4 C20_4 1_555 1_555
C21_4 C20_4 1_555 1_555
H23_4 C21_4 1_555 1_555
H24_4 C21_4 1_555 1_555
C22_4 C21_4 1_555 1_555
C23_4 C22_4 1_555 1_555
H25_4 C23_4 1_555 1_555
C24_4 N5_4 1_555 1_555
C25_4 N5_4 1_555 1_555
H27_4 C25_4 1_555 1_555
C26_4 C22_4 1_555 1_555
H28_4 C26_4 1_555 1_555
C17_4 C18_4 1_555 1_555
C23_4 C24_4 1_555 1_555
C25_4 C26_4 1_555 1_555
Mn3_3 N3_3 1_555 1_555
N3_3 C14_5 1_555 1_555
C14_5 H15_5 1_555 1_555
C15_5 C14_5 1_555 1_555
H16_5 C15_5 1_555 1_555
C16_5 C15_5 1_555 1_555
C17_5 C16_5 1_555 1_555
H17_5 C17_5 1_555 1_555
C18_5 N3_3 1_555 1_555
H18_5 C18_5 1_555 1_555
C19_5 C16_5 1_555 1_555
H19_5 C19_5 1_555 1_555
H20_5 C19_5 1_555 1_555
C17_5 C18_5 1_555 1_555
H22_5 C20_5 1_555 1_555
C21_5 C20_5 1_555 1_555
H23_5 C21_5 1_555 1_555
H24_5 C21_5 1_555 1_555
C22_5 C21_5 1_555 1_555
C23_5 C22_5 1_555 1_555
H25_5 C23_5 1_555 1_555
C24_5 N5_5 1_555 1_555
H26_5 C24_5 1_555 1_555
C25_5 N5_5 1_555 1_555
C26_5 C22_5 1_555 1_555
H28_5 C26_5 1_555 1_555
C23_5 C24_5 1_555 1_555
C25_5 C26_5 1_555 1_555
Mn1_4 Cl1_5 1_555 1_555
N4_3 Mn1_4 1_555 1_555
N1_5 Mn1_5 1_555 1_555
N2_3 C11_5 1_555 1_555
C1_5 N1_5 1_555 1_555
C2_5 C1_5 1_555 1_555
H2_5 C2_5 1_555 1_555
C3_5 C2_5 1_555 1_555
C4_5 C3_5 1_555 1_555
H3_5 C4_5 1_555 1_555
C5_5 N1_5 1_555 1_555
H4_5 C5_5 1_555 1_555
C6_5 C3_5 1_555 1_555
H5_5 C6_5 1_555 1_555
H6_5 C6_5 1_555 1_555
C7_5 C6_5 1_555 1_555
H7_5 C7_5 1_555 1_555
H8_5 C7_5 1_555 1_555
C8_5 C7_5 1_555 1_555
H9_5 C8_5 1_555 1_555
H10_5 C8_5 1_555 1_555
C9_5 C8_5 1_555 1_555
C10_5 C9_5 1_555 1_555
H11_5 C10_5 1_555 1_555
C11_5 C10_5 1_555 1_555
H12_5 C11_5 1_555 1_555
C12_5 N2_3 1_555 1_555
H13_5 C12_5 1_555 1_555
C13_5 C9_5 1_555 1_555
H14_5 C13_5 1_555 1_555
Mn2_2 N2_3 1_555 1_555
Cl2_5 Mn1_5 1_555 1_555
C4_5 C5_5 1_555 1_555
C12_5 C13_5 1_555 1_555
Mn1_6 Cl1_6 1_555 1_555
N1_6 Mn1_6 1_555 1_555
N2_4 C11_6 1_555 1_555
C1_6 N1_6 1_555 1_555
H1_6 C1_6 1_555 1_555
C2_6 C1_6 1_555 1_555
H2_6 C2_6 1_555 1_555
C3_6 C2_6 1_555 1_555
C4_6 C3_6 1_555 1_555
H3_6 C4_6 1_555 1_555
C5_6 N1_6 1_555 1_555
H4_6 C5_6 1_555 1_555
C6_6 C3_6 1_555 1_555
H5_6 C6_6 1_555 1_555
H6_6 C6_6 1_555 1_555
C7_6 C6_6 1_555 1_555
H7_6 C7_6 1_555 1_555
H8_6 C7_6 1_555 1_555
C8_6 C7_6 1_555 1_555
H9_6 C8_6 1_555 1_555
H10_6 C8_6 1_555 1_555
C9_6 C8_6 1_555 1_555
C10_6 C9_6 1_555 1_555
H11_6 C10_6 1_555 1_555
C11_6 C10_6 1_555 1_555
C12_6 N2_4 1_555 1_555
H13_6 C12_6 1_555 1_555
C13_6 C9_6 1_555 1_555
H14_6 C13_6 1_555 1_555
Mn3_4 N2_4 1_555 1_555
Cl2_6 Mn1_6 1_555 1_555
N4_4 Mn1_6 1_555 1_555
N5_6 Mn1_6 1_555 1_555
N6_4 Mn1_6 1_555 1_555
H22_6 C20_6 1_555 1_555
C21_6 C20_6 1_555 1_555
H23_6 C21_6 1_555 1_555
H24_6 C21_6 1_555 1_555
C22_6 C21_6 1_555 1_555
C23_6 C22_6 1_555 1_555
H25_6 C23_6 1_555 1_555
C24_6 N5_6 1_555 1_555
H26_6 C24_6 1_555 1_555
C25_6 N5_6 1_555 1_555
H27_6 C25_6 1_555 1_555
C26_6 C22_6 1_555 1_555
H28_6 C26_6 1_555 1_555
C4_6 C5_6 1_555 1_555
C12_6 C13_6 1_555 1_555
C23_6 C24_6 1_555 1_555
C25_6 C26_6 1_555 1_555
Mn2_2 N3_4 1_555 1_555
N3_4 C14_6 1_555 1_555
C14_6 H15_6 1_555 1_555
C15_6 C14_6 1_555 1_555
H16_6 C15_6 1_555 1_555
C16_6 C15_6 1_555 1_555
C17_6 C16_6 1_555 1_555
H17_6 C17_6 1_555 1_555
C18_6 N3_4 1_555 1_555
H18_6 C18_6 1_555 1_555
C19_6 C16_6 1_555 1_555
H19_6 C19_6 1_555 1_555
H20_6 C19_6 1_555 1_555
C17_6 C18_6 1_555 1_555
Mn2_2 Cl1_7 1_555 1_555
N1_7 Mn2_2 1_555 1_555
N6_4 C11_7 1_555 1_555
C1_7 N1_7 1_555 1_555
H1_7 C1_7 1_555 1_555
C2_7 C1_7 1_555 1_555
H2_7 C2_7 1_555 1_555
C3_7 C2_7 1_555 1_555
C4_7 C3_7 1_555 1_555
H3_7 C4_7 1_555 1_555
C5_7 N1_7 1_555 1_555
H4_7 C5_7 1_555 1_555
C6_7 C3_7 1_555 1_555
H5_7 C6_7 1_555 1_555
H6_7 C6_7 1_555 1_555
C7_7 C6_7 1_555 1_555
H7_7 C7_7 1_555 1_555
H8_7 C7_7 1_555 1_555
C8_7 C7_7 1_555 1_555
H9_7 C8_7 1_555 1_555
H10_7 C8_7 1_555 1_555
C9_7 C8_7 1_555 1_555
C10_7 C9_7 1_555 1_555
H11_7 C10_7 1_555 1_555
C11_7 C10_7 1_555 1_555
H12_7 C11_7 1_555 1_555
C12_7 N6_4 1_555 1_555
H13_7 C12_7 1_555 1_555
C13_7 C9_7 1_555 1_555
H14_7 C13_7 1_555 1_555
Cl2_7 Mn2_2 1_555 1_555
N4_3 C14_7 1_555 1_555
N5_7 Mn2_2 1_555 1_555
C15_7 C14_7 1_555 1_555
H16_7 C15_7 1_555 1_555
C16_7 C15_7 1_555 1_555
C17_7 C16_7 1_555 1_555
H17_7 C17_7 1_555 1_555
C18_7 N4_3 1_555 1_555
H18_7 C18_7 1_555 1_555
C19_7 C16_7 1_555 1_555
H19_7 C19_7 1_555 1_555
H20_7 C19_7 1_555 1_555
C20_7 C19_7 1_555 1_555
H21_7 C20_7 1_555 1_555
H22_7 C20_7 1_555 1_555
C21_7 C20_7 1_555 1_555
H23_7 C21_7 1_555 1_555
H24_7 C21_7 1_555 1_555
C22_7 C21_7 1_555 1_555
C23_7 C22_7 1_555 1_555
H25_7 C23_7 1_555 1_555
C24_7 N5_7 1_555 1_555
H26_7 C24_7 1_555 1_555
C25_7 N5_7 1_555 1_555
H27_7 C25_7 1_555 1_555
C26_7 C22_7 1_555 1_555
H28_7 C26_7 1_555 1_555
C4_7 C5_7 1_555 1_555
C12_7 C13_7 1_555 1_555
C17_7 C18_7 1_555 1_555
C23_7 C24_7 1_555 1_555
C25_7 C26_7 1_555 1_555
Cl2_8 Mn3_3 1_555 1_555
N4_4 C14_8 1_555 1_555
N5_8 Mn3_3 1_555 1_555
C14_8 H15_8 1_555 1_555
C15_8 C14_8 1_555 1_555
H16_8 C15_8 1_555 1_555
C16_8 C15_8 1_555 1_555
C17_8 C16_8 1_555 1_555
H17_8 C17_8 1_555 1_555
C18_8 N4_4 1_555 1_555
H18_8 C18_8 1_555 1_555
C19_8 C16_8 1_555 1_555
H19_8 C19_8 1_555 1_555
H20_8 C19_8 1_555 1_555
C20_8 C19_8 1_555 1_555
H21_8 C20_8 1_555 1_555
H22_8 C20_8 1_555 1_555
C21_8 C20_8 1_555 1_555
H23_8 C21_8 1_555 1_555
H24_8 C21_8 1_555 1_555
C22_8 C21_8 1_555 1_555
C23_8 C22_8 1_555 1_555
H25_8 C23_8 1_555 1_555
C24_8 N5_8 1_555 1_555
C25_8 N5_8 1_555 1_555
H27_8 C25_8 1_555 1_555
C26_8 C22_8 1_555 1_555
H28_8 C26_8 1_555 1_555
C17_8 C18_8 1_555 1_555
C23_8 C24_8 1_555 1_555
C25_8 C26_8 1_555 1_555
Mn3_4 Cl1_8 1_555 1_555
N1_8 Mn3_4 1_555 1_555
N6_3 C11_8 1_555 1_555
C1_8 N1_8 1_555 1_555
H1_8 C1_8 1_555 1_555
C2_8 C1_8 1_555 1_555
H2_8 C2_8 1_555 1_555
C3_8 C2_8 1_555 1_555
C4_8 C3_8 1_555 1_555
H3_8 C4_8 1_555 1_555
C5_8 N1_8 1_555 1_555
H4_8 C5_8 1_555 1_555
C6_8 C3_8 1_555 1_555
H5_8 C6_8 1_555 1_555
H6_8 C6_8 1_555 1_555
C7_8 C6_8 1_555 1_555
H7_8 C7_8 1_555 1_555
H8_8 C7_8 1_555 1_555
C8_8 C7_8 1_555 1_555
H9_8 C8_8 1_555 1_555
H10_8 C8_8 1_555 1_555
C9_8 C8_8 1_555 1_555
C10_8 C9_8 1_555 1_555
H11_8 C10_8 1_555 1_555
C11_8 C10_8 1_555 1_555
H12_8 C11_8 1_555 1_555
C12_8 N6_3 1_555 1_555
C13_8 C9_8 1_555 1_555
H14_8 C13_8 1_555 1_555
C4_8 C5_8 1_555 1_555
C12_8 C13_8 1_555 1_555
Mn4 Cl3 1_555 1_555
N7 Mn4 1_555 1_555
N8 C37 1_555 1_555
C27 N7 1_555 1_555
H29 C27 1_555 1_555
C28 C27 1_555 1_555
H30 C28 1_555 1_555
C29 C28 1_555 1_555
C30 C29 1_555 1_555
H31 C30 1_555 1_555
C31 N7 1_555 1_555
H32 C31 1_555 1_555
C32 C29 1_555 1_555
H33 C32 1_555 1_555
H34 C32 1_555 1_555
C33 C32 1_555 1_555
H35 C33 1_555 1_555
H36 C33 1_555 1_555
C34 C33 1_555 1_555
H37 C34 1_555 1_555
H38 C34 1_555 1_555
C35 C34 1_555 1_555
C36 C35 1_555 1_555
H39 C36 1_555 1_555
C37 C36 1_555 1_555
H40 C37 1_555 1_555
C38 N8 1_555 1_555
H41 C38 1_555 1_555
C39 C35 1_555 1_555
H42 C39 1_555 1_555
Mn5 N8 1_555 1_555
Cl4 Mn4 1_555 1_555
N10 Mn4 1_555 1_555
N11 Mn4 1_555 1_555
N12 Mn4 1_555 1_555
C49 C48 1_555 1_555
H53 C49 1_555 1_555
C50 N11 1_555 1_555
H54 C50 1_555 1_555
C51 N11 1_555 1_555
H55 C51 1_555 1_555
C52 C48 1_555 1_555
C30 C31 1_555 1_555
C38 C39 1_555 1_555
C49 C50 1_555 1_555
C51 C52 1_555 1_555
Mn6_2 N9 1_555 1_555
N9 C40 1_555 1_555
C41 C40 1_555 1_555
H44 C41 1_555 1_555
C42 C41 1_555 1_555
C43 C42 1_555 1_555
H45 C43 1_555 1_555
C44 N9 1_555 1_555
H46 C44 1_555 1_555
C45 C42 1_555 1_555
H47 C45 1_555 1_555
H48 C45 1_555 1_555
C46 C45 1_555 1_555
H49 C46 1_555 1_555
H50 C46 1_555 1_555
C47 C46 1_555 1_555
H51 C47 1_555 1_555
C43 C44 1_555 1_555
Mn4_2 Cl3_2 1_555 1_555
N10_2 Mn4_2 1_555 1_555
N12_2 Mn4_2 1_555 1_555
N7_2 Mn4_3 1_555 1_555
N8_2 C37_2 1_555 1_555
C27_2 N7_2 1_555 1_555
H29_2 C27_2 1_555 1_555
C28_2 C27_2 1_555 1_555
H30_2 C28_2 1_555 1_555
C29_2 C28_2 1_555 1_555
C30_2 C29_2 1_555 1_555
H31_2 C30_2 1_555 1_555
C31_2 N7_2 1_555 1_555
H32_2 C31_2 1_555 1_555
C32_2 C29_2 1_555 1_555
H33_2 C32_2 1_555 1_555
H34_2 C32_2 1_555 1_555
C33_2 C32_2 1_555 1_555
H35_2 C33_2 1_555 1_555
H36_2 C33_2 1_555 1_555
C34_2 C33_2 1_555 1_555
H37_2 C34_2 1_555 1_555
H38_2 C34_2 1_555 1_555
C35_2 C34_2 1_555 1_555
C36_2 C35_2 1_555 1_555
H39_2 C36_2 1_555 1_555
C37_2 C36_2 1_555 1_555
H40_2 C37_2 1_555 1_555
C38_2 N8_2 1_555 1_555
H41_2 C38_2 1_555 1_555
C39_2 C35_2 1_555 1_555
H42_2 C39_2 1_555 1_555
Mn6_2 N8_2 1_555 1_555
Mn5 N9_2 1_555 1_555
Cl4_2 Mn4_3 1_555 1_555
N9_2 C40_2 1_555 1_555
N11_2 Mn4_3 1_555 1_555
C40_2 H43_2 1_555 1_555
C41_2 C40_2 1_555 1_555
H44_2 C41_2 1_555 1_555
C42_2 C41_2 1_555 1_555
C43_2 C42_2 1_555 1_555
H45_2 C43_2 1_555 1_555
C44_2 N9_2 1_555 1_555
H46_2 C44_2 1_555 1_555
C45_2 C42_2 1_555 1_555
H47_2 C45_2 1_555 1_555
H48_2 C45_2 1_555 1_555
C46_2 C45_2 1_555 1_555
H49_2 C46_2 1_555 1_555
H50_2 C46_2 1_555 1_555
C47_2 C46_2 1_555 1_555
H51_2 C47_2 1_555 1_555
H52_2 C47_2 1_555 1_555
C48_2 C47_2 1_555 1_555
C49_2 C48_2 1_555 1_555
H53_2 C49_2 1_555 1_555
C50_2 N11_2 1_555 1_555
H54_2 C50_2 1_555 1_555
C51_2 N11_2 1_555 1_555
C52_2 C48_2 1_555 1_555
H56_2 C52_2 1_555 1_555
C30_2 C31_2 1_555 1_555
C38_2 C39_2 1_555 1_555
C43_2 C44_2 1_555 1_555
C49_2 C50_2 1_555 1_555
C51_2 C52_2 1_555 1_555
N10 C40_3 1_555 1_555
C40_3 H43_3 1_555 1_555
C41_3 C40_3 1_555 1_555
H44_3 C41_3 1_555 1_555
C42_3 C41_3 1_555 1_555
C43_3 C42_3 1_555 1_555
H45_3 C43_3 1_555 1_555
C44_3 N10 1_555 1_555
H46_3 C44_3 1_555 1_555
C45_3 C42_3 1_555 1_555
H47_3 C45_3 1_555 1_555
H48_3 C45_3 1_555 1_555
C46_3 C45_3 1_555 1_555
H50_3 C46_3 1_555 1_555
C43_3 C44_3 1_555 1_555
Mn5 Cl3_3 1_555 1_555
N7_3 Mn5 1_555 1_555
N12_2 C37_3 1_555 1_555
C27_3 N7_3 1_555 1_555
H29_3 C27_3 1_555 1_555
C28_3 C27_3 1_555 1_555
H30_3 C28_3 1_555 1_555
C29_3 C28_3 1_555 1_555
C30_3 C29_3 1_555 1_555
H31_3 C30_3 1_555 1_555
C31_3 N7_3 1_555 1_555
H32_3 C31_3 1_555 1_555
C32_3 C29_3 1_555 1_555
H33_3 C32_3 1_555 1_555
H34_3 C32_3 1_555 1_555
C33_3 C32_3 1_555 1_555
H35_3 C33_3 1_555 1_555
H36_3 C33_3 1_555 1_555
C34_3 C33_3 1_555 1_555
H37_3 C34_3 1_555 1_555
H38_3 C34_3 1_555 1_555
C35_3 C34_3 1_555 1_555
C36_3 C35_3 1_555 1_555
H39_3 C36_3 1_555 1_555
C37_3 C36_3 1_555 1_555
H40_3 C37_3 1_555 1_555
C38_3 N12_2 1_555 1_555
C39_3 C35_3 1_555 1_555
H42_3 C39_3 1_555 1_555
Cl4_3 Mn5 1_555 1_555
N11_3 Mn5 1_555 1_555
H51_3 C47_3 1_555 1_555
H52_3 C47_3 1_555 1_555
C48_3 C47_3 1_555 1_555
C49_3 C48_3 1_555 1_555
H53_3 C49_3 1_555 1_555
C50_3 N11_3 1_555 1_555
H54_3 C50_3 1_555 1_555
C51_3 N11_3 1_555 1_555
H55_3 C51_3 1_555 1_555
C52_3 C48_3 1_555 1_555
H56_3 C52_3 1_555 1_555
C30_3 C31_3 1_555 1_555
C38_3 C39_3 1_555 1_555
C49_3 C50_3 1_555 1_555
C51_3 C52_3 1_555 1_555
N12 C37_4 1_555 1_555
C36_4 C35_4 1_555 1_555
H39_4 C36_4 1_555 1_555
C37_4 C36_4 1_555 1_555
H40_4 C37_4 1_555 1_555
C38_4 N12 1_555 1_555
H41_4 C38_4 1_555 1_555
C39_4 C35_4 1_555 1_555
C38_4 C39_4 1_555 1_555
Mn6 Cl3_4 1_555 1_555
N7_4 Mn6 1_555 1_555
C27_4 N7_4 1_555 1_555
C28_4 C27_4 1_555 1_555
H30_4 C28_4 1_555 1_555
C29_4 C28_4 1_555 1_555
C30_4 C29_4 1_555 1_555
H31_4 C30_4 1_555 1_555
C31_4 N7_4 1_555 1_555
H32_4 C31_4 1_555 1_555
C32_4 C29_4 1_555 1_555
H33_4 C32_4 1_555 1_555
H34_4 C32_4 1_555 1_555
C33_4 C32_4 1_555 1_555
H35_4 C33_4 1_555 1_555
H36_4 C33_4 1_555 1_555
C34_4 C33_4 1_555 1_555
H37_4 C34_4 1_555 1_555
N11_4 Mn6 1_555 1_555
H51_4 C47_4 1_555 1_555
H52_4 C47_4 1_555 1_555
C48_4 C47_4 1_555 1_555
C49_4 C48_4 1_555 1_555
H53_4 C49_4 1_555 1_555
C50_4 N11_4 1_555 1_555
H54_4 C50_4 1_555 1_555
C51_4 N11_4 1_555 1_555
H55_4 C51_4 1_555 1_555
C52_4 C48_4 1_555 1_555
H56_4 C52_4 1_555 1_555
C30_4 C31_4 1_555 1_555
C49_4 C50_4 1_555 1_555
C51_4 C52_4 1_555 1_555
N10_2 C40_4 1_555 1_555
C40_4 H43_4 1_555 1_555
C41_4 C40_4 1_555 1_555
H44_4 C41_4 1_555 1_555
C42_4 C41_4 1_555 1_555
C43_4 C42_4 1_555 1_555
H45_4 C43_4 1_555 1_555
C44_4 N10_2 1_555 1_555
H46_4 C44_4 1_555 1_555
C45_4 C42_4 1_555 1_555
H47_4 C45_4 1_555 1_555
H48_4 C45_4 1_555 1_555
C46_4 C45_4 1_555 1_555
H50_4 C46_4 1_555 1_555
C43_4 C44_4 1_555 1_555
Cl4_4 Mn6_2 1_555 1_555
Mn6_3 N9_3 1_555 1_555
N9_3 C40_5 1_555 1_555
C41_5 C40_5 1_555 1_555
H44_5 C41_5 1_555 1_555
C42_5 C41_5 1_555 1_555
C43_5 C42_5 1_555 1_555
H45_5 C43_5 1_555 1_555
C44_5 N9_3 1_555 1_555
H46_5 C44_5 1_555 1_555
C45_5 C42_5 1_555 1_555
H47_5 C45_5 1_555 1_555
H48_5 C45_5 1_555 1_555
C46_5 C45_5 1_555 1_555
H49_5 C46_5 1_555 1_555
H50_5 C46_5 1_555 1_555
C47_5 C46_5 1_555 1_555
H51_5 C47_5 1_555 1_555
C43_5 C44_5 1_555 1_555
Mn4_4 Cl3_5 1_555 1_555
N7_5 Mn4_4 1_555 1_555
N8_3 C37_5 1_555 1_555
C27_5 N7_5 1_555 1_555
H29_5 C27_5 1_555 1_555
C28_5 C27_5 1_555 1_555
H30_5 C28_5 1_555 1_555
C29_5 C28_5 1_555 1_555
C30_5 C29_5 1_555 1_555
H31_5 C30_5 1_555 1_555
C31_5 N7_5 1_555 1_555
H32_5 C31_5 1_555 1_555
C32_5 C29_5 1_555 1_555
H33_5 C32_5 1_555 1_555
H34_5 C32_5 1_555 1_555
C33_5 C32_5 1_555 1_555
H35_5 C33_5 1_555 1_555
H36_5 C33_5 1_555 1_555
C34_5 C33_5 1_555 1_555
H37_5 C34_5 1_555 1_555
H38_5 C34_5 1_555 1_555
C35_5 C34_5 1_555 1_555
C36_5 C35_5 1_555 1_555
H39_5 C36_5 1_555 1_555
C37_5 C36_5 1_555 1_555
H40_5 C37_5 1_555 1_555
C38_5 N8_3 1_555 1_555
H41_5 C38_5 1_555 1_555
C39_5 C35_5 1_555 1_555
H42_5 C39_5 1_555 1_555
Mn5_2 N8_3 1_555 1_555
Cl4_5 Mn4_4 1_555 1_555
N10_3 Mn4_4 1_555 1_555
N11_5 Mn4_4 1_555 1_555
N12_3 Mn4_4 1_555 1_555
C49_5 C48_5 1_555 1_555
H53_5 C49_5 1_555 1_555
C50_5 N11_5 1_555 1_555
H54_5 C50_5 1_555 1_555
C51_5 N11_5 1_555 1_555
H55_5 C51_5 1_555 1_555
C52_5 C48_5 1_555 1_555
C30_5 C31_5 1_555 1_555
C38_5 C39_5 1_555 1_555
C49_5 C50_5 1_555 1_555
C51_5 C52_5 1_555 1_555
N7_6 Mn4_5 1_555 1_555
N8_4 C37_6 1_555 1_555
C27_6 N7_6 1_555 1_555
H29_6 C27_6 1_555 1_555
C28_6 C27_6 1_555 1_555
H30_6 C28_6 1_555 1_555
C29_6 C28_6 1_555 1_555
C30_6 C29_6 1_555 1_555
H31_6 C30_6 1_555 1_555
C31_6 N7_6 1_555 1_555
H32_6 C31_6 1_555 1_555
C32_6 C29_6 1_555 1_555
H33_6 C32_6 1_555 1_555
H34_6 C32_6 1_555 1_555
C33_6 C32_6 1_555 1_555
H35_6 C33_6 1_555 1_555
H36_6 C33_6 1_555 1_555
C34_6 C33_6 1_555 1_555
H37_6 C34_6 1_555 1_555
H38_6 C34_6 1_555 1_555
C35_6 C34_6 1_555 1_555
C36_6 C35_6 1_555 1_555
H39_6 C36_6 1_555 1_555
C37_6 C36_6 1_555 1_555
H40_6 C37_6 1_555 1_555
C38_6 N8_4 1_555 1_555
H41_6 C38_6 1_555 1_555
C39_6 C35_6 1_555 1_555
H42_6 C39_6 1_555 1_555
Mn6_3 N8_4 1_555 1_555
Mn5_2 N9_4 1_555 1_555
Cl4_6 Mn4_5 1_555 1_555
N9_4 C40_6 1_555 1_555
N11_6 Mn4_5 1_555 1_555
C40_6 H43_6 1_555 1_555
C41_6 C40_6 1_555 1_555
H44_6 C41_6 1_555 1_555
C42_6 C41_6 1_555 1_555
C43_6 C42_6 1_555 1_555
H45_6 C43_6 1_555 1_555
C44_6 N9_4 1_555 1_555
H46_6 C44_6 1_555 1_555
C45_6 C42_6 1_555 1_555
H47_6 C45_6 1_555 1_555
H48_6 C45_6 1_555 1_555
C46_6 C45_6 1_555 1_555
H49_6 C46_6 1_555 1_555
H50_6 C46_6 1_555 1_555
C47_6 C46_6 1_555 1_555
H51_6 C47_6 1_555 1_555
H52_6 C47_6 1_555 1_555
C48_6 C47_6 1_555 1_555
C49_6 C48_6 1_555 1_555
H53_6 C49_6 1_555 1_555
C50_6 N11_6 1_555 1_555
H54_6 C50_6 1_555 1_555
C51_6 N11_6 1_555 1_555
C52_6 C48_6 1_555 1_555
H56_6 C52_6 1_555 1_555
C30_6 C31_6 1_555 1_555
C38_6 C39_6 1_555 1_555
C43_6 C44_6 1_555 1_555
C49_6 C50_6 1_555 1_555
C51_6 C52_6 1_555 1_555
Mn4_6 Cl3_6 1_555 1_555
N10_4 Mn4_6 1_555 1_555
N12_4 Mn4_6 1_555 1_555
Mn5_2 Cl3_7 1_555 1_555
N7_7 Mn5_2 1_555 1_555
N12_4 C37_7 1_555 1_555
C27_7 N7_7 1_555 1_555
H29_7 C27_7 1_555 1_555
C28_7 C27_7 1_555 1_555
H30_7 C28_7 1_555 1_555
C29_7 C28_7 1_555 1_555
C30_7 C29_7 1_555 1_555
H31_7 C30_7 1_555 1_555
C31_7 N7_7 1_555 1_555
H32_7 C31_7 1_555 1_555
C32_7 C29_7 1_555 1_555
H33_7 C32_7 1_555 1_555
H34_7 C32_7 1_555 1_555
C33_7 C32_7 1_555 1_555
H35_7 C33_7 1_555 1_555
H36_7 C33_7 1_555 1_555
C34_7 C33_7 1_555 1_555
H37_7 C34_7 1_555 1_555
H38_7 C34_7 1_555 1_555
C35_7 C34_7 1_555 1_555
C36_7 C35_7 1_555 1_555
H39_7 C36_7 1_555 1_555
C37_7 C36_7 1_555 1_555
H40_7 C37_7 1_555 1_555
C38_7 N12_4 1_555 1_555
C39_7 C35_7 1_555 1_555
H42_7 C39_7 1_555 1_555
Cl4_7 Mn5_2 1_555 1_555
N11_7 Mn5_2 1_555 1_555
H51_7 C47_7 1_555 1_555
H52_7 C47_7 1_555 1_555
C48_7 C47_7 1_555 1_555
C49_7 C48_7 1_555 1_555
H53_7 C49_7 1_555 1_555
C50_7 N11_7 1_555 1_555
H54_7 C50_7 1_555 1_555
C51_7 N11_7 1_555 1_555
H55_7 C51_7 1_555 1_555
C52_7 C48_7 1_555 1_555
H56_7 C52_7 1_555 1_555
C30_7 C31_7 1_555 1_555
C38_7 C39_7 1_555 1_555
C49_7 C50_7 1_555 1_555
C51_7 C52_7 1_555 1_555
N10_3 C40_7 1_555 1_555
C40_7 H43_7 1_555 1_555
C41_7 C40_7 1_555 1_555
H44_7 C41_7 1_555 1_555
C42_7 C41_7 1_555 1_555
C43_7 C42_7 1_555 1_555
H45_7 C43_7 1_555 1_555
C44_7 N10_3 1_555 1_555
H46_7 C44_7 1_555 1_555
C45_7 C42_7 1_555 1_555
H47_7 C45_7 1_555 1_555
H48_7 C45_7 1_555 1_555
C46_7 C45_7 1_555 1_555
H50_7 C46_7 1_555 1_555
C43_7 C44_7 1_555 1_555
Cl4_8 Mn6_3 1_555 1_555
N10_4 C40_8 1_555 1_555
C40_8 H43_8 1_555 1_555
C41_8 C40_8 1_555 1_555
H44_8 C41_8 1_555 1_555
C42_8 C41_8 1_555 1_555
C43_8 C42_8 1_555 1_555
H45_8 C43_8 1_555 1_555
C44_8 N10_4 1_555 1_555
H46_8 C44_8 1_555 1_555
C45_8 C42_8 1_555 1_555
H47_8 C45_8 1_555 1_555
H48_8 C45_8 1_555 1_555
C46_8 C45_8 1_555 1_555
H50_8 C46_8 1_555 1_555
C43_8 C44_8 1_555 1_555
Mn6_4 Cl3_8 1_555 1_555
N7_8 Mn6_4 1_555 1_555
C27_8 N7_8 1_555 1_555
C28_8 C27_8 1_555 1_555
H30_8 C28_8 1_555 1_555
C29_8 C28_8 1_555 1_555
C30_8 C29_8 1_555 1_555
H31_8 C30_8 1_555 1_555
C31_8 N7_8 1_555 1_555
H32_8 C31_8 1_555 1_555
C32_8 C29_8 1_555 1_555
H33_8 C32_8 1_555 1_555
H34_8 C32_8 1_555 1_555
C33_8 C32_8 1_555 1_555
H35_8 C33_8 1_555 1_555
H36_8 C33_8 1_555 1_555
C34_8 C33_8 1_555 1_555
H37_8 C34_8 1_555 1_555
N11_8 Mn6_4 1_555 1_555
H51_8 C47_8 1_555 1_555
H52_8 C47_8 1_555 1_555
C48_8 C47_8 1_555 1_555
C49_8 C48_8 1_555 1_555
H53_8 C49_8 1_555 1_555
C50_8 N11_8 1_555 1_555
H54_8 C50_8 1_555 1_555
C51_8 N11_8 1_555 1_555
H55_8 C51_8 1_555 1_555
C52_8 C48_8 1_555 1_555
H56_8 C52_8 1_555 1_555
C30_8 C31_8 1_555 1_555
C49_8 C50_8 1_555 1_555
C51_8 C52_8 1_555 1_555
N12_3 C37_8 1_555 1_555
C36_8 C35_8 1_555 1_555
H39_8 C36_8 1_555 1_555
C37_8 C36_8 1_555 1_555
H40_8 C37_8 1_555 1_555
C38_8 N12_3 1_555 1_555
H41_8 C38_8 1_555 1_555
C39_8 C35_8 1_555 1_555
C38_8 C39_8 1_555 1_555

#END
