
###############################################################################
#
# This file contains modified crystal structure data generated from the
# MOF subset of the Cambridge Structural Database (CSD) v543 
# hosted by the Cambridge Crystallographic Data Centre (CCDC).
#
# This work is licensed under the Creative Commons
# Attribution-NonCommercial-ShareAlike 4.0 International License.
# To view a copy of this license, visit
# http://creativecommons.org/licenses/by-nc-sa/4.0/
# or send a letter to
# Creative Commons, PO Box 1866, Mountain View, CA 94042, USA.
#
# CIF created using the CSD Python API on 29 September 2022
# The structure has been converted into the P1 space group
# The structure has a 3D framework
# The original CSD entry HOPTAK is in the monoclinic crystal system
# The framework has been calculated to contain at least 10.0% void space
# The void calculation uses a probe of radius 1.32A, grid spacing 0.4
#
###############################################################################

data_HOPTAK
_chemical_formula_moiety         '(C268 H192 Dy12 N20 O82)n'
_symmetry_cell_setting           triclinic
_symmetry_space_group_name_H-M   'P 1'
_symmetry_Int_Tables_number      1
_space_group_name_Hall           'P 1'
loop_
_symmetry_equiv_pos_site_id
_symmetry_equiv_pos_as_xyz
1 x,y,z
_cell_length_a                   14.5879(6)
_cell_length_b                   23.6102(7)
_cell_length_c                   24.9168(10)
_cell_angle_alpha                90
_cell_angle_beta                 105.468(4)
_cell_angle_gamma                90
_cell_volume                     8271.08
loop_
_atom_site_label
_atom_site_type_symbol
_atom_site_fract_x
_atom_site_fract_y
_atom_site_fract_z
O5 O 0.1245(4) 0.7665(2) 0.5066(2)
O9 O 0.1776(3) 0.8247(2) 0.4521(2)
C20 C 0.0172(5) 0.8338(3) 0.4549(3)
C27 C 0.1139(5) 0.8064(3) 0.4727(3)
C28 C 0.0044(5) 0.8830(3) 0.4237(3)
H10 H 0.056101 0.899541 0.414592
Dy10 Dy 0.26952(2) 0.73184(2) 0.56036(2)
Dy13 Dy 0.23797(2) 0.79078(2) 0.38287(2)
Dy2 Dy 0.73048(2) 0.26816(2) 0.43964(2)
O8 O 0.7201(4) 0.16878(19) 0.3161(2)
O14 O 0.7471(4) 0.1801(2) 0.4065(2)
C5 C 0.7335(5) 0.1499(3) 0.3633(3)
C10 C 0.7345(5) 0.0868(3) 0.3729(3)
C25 C 0.6928(5) 0.0502(3) 0.3306(3)
H9 H 0.662244 0.064407 0.295612
C54 C 0.7828(6) 0.0065(3) 0.4344(3)
C58 C 0.7785(6) 0.0645(3) 0.4252(3)
H33 H 0.805341 0.088866 0.454477
O20 O 0.5784(7) 0.2184(4) 0.4258(5)
N5 N 0.4602(12) 0.1538(7) 0.4203(8)
H44 H 0.448311 0.118165 0.420662
C66 C 0.5576(14) 0.1663(9) 0.4290(9)
H45 H 0.603966 0.138222 0.436625
C67 C 0.3727(13) 0.1907(8) 0.4103(10)
H46 H 0.345986 0.195732 0.371001
H47 H 0.389725 0.226937 0.427581
H48 H 0.326625 0.172900 0.426039
Dy6 Dy 0.75361(2) 0.25903(2) 0.28571(2)
O22 O 0.8351(3) 0.28821(19) 0.38290(19)
O24 O 0.6393(3) 0.27867(17) 0.34378(17)
O26 O 0.8755(4) 0.2335(2) 0.4934(2)
O31 O 0.8079(3) 0.3516(2) 0.4913(2)
O32 O 0.6728(4) 0.36245(19) 0.4276(2)
O34 O 0.6724(4) 0.2724(3) 0.5183(3)
Dy1 Dy 0.24639(2) 0.75903(2) 0.21429(2)
O1 O 0.1649(3) 0.78821(19) 0.11710(19)
O2 O 0.4027(3) 0.74913(19) 0.27505(18)
O3 O 0.3262(3) 0.80749(19) 0.31639(19)
O6 O 0.0863(3) 0.7299(2) 0.1569(2)
O7 O 0.6753(3) 0.34783(18) 0.29387(19)
O12 O 0.2035(4) 0.70362(19) 0.2790(2)
C1 C 0.4941(4) 0.8186(3) 0.3351(3)
C2 C 0.4045(4) 0.7892(3) 0.3090(3)
C3 C 0.5792(5) 0.7999(3) 0.3272(3)
H1 H 0.579754 0.767344 0.306207
C4 C 0.5303(4) 0.3564(3) 0.3187(3)
N1 N 0.7475(4) 0.9105(2) 0.4010(3)
O17 O 0.2932(5) 0.7016(2) 0.3663(2)
C6 C 0.2511(5) 0.6782(3) 0.3215(3)
C7 C 0.6195(4) 0.3273(2) 0.3189(2)
C8 C 0.0862(5) 0.7679(3) 0.1218(3)
C9 C 0.4327(5) 0.4398(3) 0.3017(3)
H4 H 0.425236 0.477855 0.291985
C12 C 0.8382(4) 0.8849(3) 0.4187(3)
C13 C 0.4568(5) 0.3274(3) 0.3329(3)
H5 H 0.465436 0.289798 0.344303
C14 C 0.6639(4) 0.8778(3) 0.3797(3)
C15 C 0.7423(4) 0.9704(3) 0.3917(3)
C16 C 0.5167(5) 0.4124(3) 0.3028(3)
H6 H 0.564821 0.432016 0.292640
C17 C 0.4949(5) 0.8678(3) 0.3654(3)
H7 H 0.438041 0.881634 0.370418
C21 C 0.6637(5) 0.8283(3) 0.3496(3)
H8 H 0.720340 0.814194 0.344581
C22 C 0.0071(4) 0.3566(3) 0.2573(3)
C23 C 0.2560(5) 0.6147(3) 0.3196(3)
C24 C 0.3589(4) 0.4104(3) 0.3153(3)
N3 N 0.2721(4) 0.4373(2) 0.3138(3)
C29 C 0.1839(4) 0.4083(3) 0.2952(3)
C30 C 0.5779(5) 0.8965(3) 0.3882(3)
H11 H 0.577063 0.928646 0.409638
C31 C 0.2667(5) 0.4972(3) 0.3164(3)
C33 C 0.6959(5) 0.9922(3) 0.3397(3)
H13 H 0.666749 0.967764 0.310931
H14 H 0.052451 0.841629 0.038238
C36 C 0.9156(5) 0.9078(3) 0.4061(3)
H15 H 0.908566 0.940936 0.385109
C39 C 0.9387(5) 0.8109(3) 0.4689(3)
H17 H 0.946020 0.778352 0.490649
C42 C 0.3719(5) 0.3537(3) 0.3303(3)
H18 H 0.322662 0.333496 0.338580
C49 C 0.2018(5) 0.5850(3) 0.2761(3)
H25 H 0.161033 0.604420 0.246856
C50 C 0.2055(5) 0.5273(3) 0.2742(3)
H26 H 0.166316 0.508002 0.244212
C51 C 0.0281(5) 0.3892(3) 0.3039(3)
C53 C 0.0758(5) 0.3497(4) 0.2292(3)
H29 H 0.062348 0.327995 0.196911
H30 H 0.813057 0.992205 0.469455
C56 C 0.8501(5) 0.8359(3) 0.4510(3)
H31 H 0.798303 0.819957 0.460564
C59 C 0.1152(5) 0.4162(3) 0.3224(3)
H34 H 0.126904 0.439685 0.353443
C61 C 0.3152(6) 0.5856(3) 0.3636(3)
H36 H 0.351468 0.605210 0.394402
C62 C 0.1643(5) 0.3743(3) 0.2483(3)
H37 H 0.210732 0.368152 0.229582
C63 C 0.3201(6) 0.5263(3) 0.3614(3)
H38 H 0.360064 0.506656 0.390855
H40 H 0.001402 0.145246 0.087288
C65 C 0.0867(14) 0.1994(8) 0.1388(9)
H41 H 0.137853 0.184310 0.125699
H42 H 0.104112 0.198884 0.178785
H43 H 0.073985 0.237662 0.125922
Dy9 Dy 0.26952(2) 0.76816(2) 0.06036(2)
O25 O 0.3607(3) 0.77867(17) 0.15622(17)
O27 O 0.3247(3) 0.84783(18) 0.20613(19)
O28 O 0.2799(4) 0.66878(19) 0.1839(2)
O33 O 0.1388(3) 0.8240(2) 0.2298(2)
O11 O 0.8079(3) 0.1484(2) 0.9913(2)
O13 O 0.6728(4) 0.13755(19) 0.9276(2)
C18 C 0.7408(5) 0.1168(3) 0.9652(3)
C26 C 0.7398(5) 0.0555(3) 0.9780(3)
C45 C 0.6671(5) 0.0211(3) 0.9494(3)
H21 H 0.615921 0.036849 0.923083
Dy11 Dy 0.73048(2) 0.23184(2) 0.93964(2)
Dy3 Dy 0.76203(2) 0.29078(2) 0.11713(2)
O15 O 0.8612(3) 0.3240(2) 0.2702(2)
O18 O 0.7399(5) 0.3899(2) 0.1175(3)
H2 H 0.737394 0.411090 0.145207
H3 H 0.732369 0.412944 0.089864
N2 N 0.7447(4) 0.8796(2) 0.0078(3)
C19 C 0.9960(4) 0.7932(3) 0.0885(3)
C32 C 0.9131(5) 0.8606(3) 0.0197(3)
C34 C 0.8289(5) 0.8494(3) 0.0338(3)
C35 C 0.9961(5) 0.8333(3) 0.0472(3)
O19 O 0.8867(4) 0.3158(3) 0.1868(2)
C40 C 0.9114(5) 0.3306(3) 0.2370(3)
C43 C 0.8280(5) 0.8082(3) 0.0729(3)
H19 H 0.771323 0.799338 0.081325
C46 C 0.8157(5) 0.9737(3) 0.0286(3)
H22 H 0.865725 0.958274 0.056019
C47 C 0.9105(5) 0.7801(3) 0.0998(3)
H23 H 0.908546 0.752161 0.125728
C48 C 0.5846(5) 0.8677(3) 0.0205(3)
H24 H 0.592382 0.900463 0.041910
H27 H 0.982944 0.393564 0.323861
C52 C 0.5004(5) 0.8374(3) 0.0104(3)
H28 H 0.450870 0.850672 0.023960
O21 O 0.8833(7) 0.2277(4) 0.1133(4)
C64 C 0.9049(13) 0.1888(8) 0.1075(7)
H39 H 0.855088 0.163775 0.093391
N4 N 0.9974(11) 0.1633(6) 0.1165(7)
O23 O 0.6738(3) 0.30749(19) 0.18361(19)
O29 O 0.8224(3) 0.3247(2) 0.0479(2)
O30 O 0.6082(3) 0.2896(2) 0.0603(2)
O35 O 0.6724(4) 0.2276(3) 0.0183(3)
O36 O 0.7068(5) 0.2016(2) 0.1337(2)
O10 O 0.3918(3) 0.7104(2) 0.9397(2)
O16 O 0.3276(4) 0.7724(3) 0.9817(3)
C11 C 0.6569(5) 0.8494(3) 0.9987(3)
H12 H 0.913610 0.886494 0.991717
C38 C 0.7432(5) 0.9385(3) 0.9985(3)
C41 C 0.4896(5) 0.7873(3) 0.9802(3)
C44 C 0.5624(5) 0.7691(3) 0.9585(3)
H20 H 0.555809 0.735692 0.937977
C55 C 0.4004(5) 0.7532(3) 0.9686(3)
C57 C 0.6445(5) 0.8003(3) 0.9672(3)
H32 H 0.692477 0.788290 0.951653
C60 C 0.6688(5) 0.9634(3) 0.9590(3)
H35 H 0.619376 0.940879 0.938582
Dy14 Dy 0.23797(2) 0.70922(2) 0.88287(2)
O10_2 O 0.6082(3) 0.2104(2) 0.5603(2)
O11_2 O 0.1921(3) 0.6484(2) 0.5087(2)
O13_2 O 0.3272(4) 0.63755(19) 0.5724(2)
C11_2 C 0.3431(5) 0.3494(3) 0.5013(3)
N2_2 N 0.2553(4) 0.3796(2) 0.4922(3)
C18_2 C 0.2592(5) 0.6168(3) 0.5348(3)
C19_2 C 0.0040(4) 0.2932(3) 0.4115(3)
C26_2 C 0.2602(5) 0.5555(3) 0.5220(3)
C32_2 C 0.0869(5) 0.3606(3) 0.4803(3)
H12_2 H 0.086390 0.386494 0.508283
C34_2 C 0.1711(5) 0.3494(3) 0.4662(3)
C35_2 C 0.0039(5) 0.3333(3) 0.4528(3)
C37 C 0.1862(5) 0.5314(3) 0.4819(3)
H16 H 0.137037 0.554239 0.461698
C38_2 C 0.2568(5) 0.4385(3) 0.5015(3)
C41_2 C 0.5104(5) 0.2873(3) 0.5198(3)
C43_2 C 0.1720(5) 0.3082(3) 0.4271(3)
H19_2 H 0.228677 0.299338 0.418675
C44_2 C 0.4376(5) 0.2691(3) 0.5415(3)
H20_2 H 0.444191 0.235692 0.562023
C45_2 C 0.3329(5) 0.5211(3) 0.5506(3)
H21_2 H 0.384079 0.536849 0.576917
C46_2 C 0.1843(5) 0.4737(3) 0.4714(3)
H22_2 H 0.134275 0.458274 0.443981
C47_2 C 0.0895(5) 0.2801(3) 0.4002(3)
H23_2 H 0.091454 0.252161 0.374272
C48_2 C 0.4154(5) 0.3677(3) 0.4795(3)
H24_2 H 0.407618 0.400463 0.458090
C52_2 C 0.4996(5) 0.3374(3) 0.4896(3)
H28_2 H 0.549130 0.350672 0.476040
C55_2 C 0.5996(5) 0.2532(3) 0.5314(3)
C57_2 C 0.3555(5) 0.3003(3) 0.5328(3)
H32_2 H 0.307523 0.288290 0.548347
C60_2 C 0.3312(5) 0.4634(3) 0.5410(3)
H35_2 H 0.380624 0.440879 0.561418
Dy14_2 Dy 0.76203(2) 0.20922(2) 0.61713(2)
O18_2 O 0.2601(5) 0.8899(2) 0.3825(3)
H2_2 H 0.262606 0.911090 0.354793
H3_2 H 0.267631 0.912944 0.410136
O19_2 O 0.1133(4) 0.8158(3) 0.3132(2)
C40_2 C 0.0886(5) 0.8306(3) 0.2630(3)
H27_2 H 0.017056 0.893564 0.176139
O21_2 O 0.1167(7) 0.7277(4) 0.3867(4)
C64_2 C 0.0951(13) 0.6888(8) 0.3925(7)
H39_2 H 0.144912 0.663775 0.406609
N4_2 N 0.0026(11) 0.6633(6) 0.3835(7)
O30_2 O 0.3918(3) 0.7896(2) 0.4397(2)
O35_2 O 0.3276(4) 0.7276(3) 0.4817(3)
O2_2 O 0.5973(3) 0.24913(19) 0.22495(18)
O6_2 O 0.9137(3) 0.2299(2) 0.3431(2)
O12_2 O 0.7965(4) 0.20362(19) 0.2210(2)
O14_2 O 0.2529(4) 0.6801(2) 0.0935(2)
C1_2 C 0.5059(4) 0.3186(3) 0.1649(3)
C2_2 C 0.5955(4) 0.2892(3) 0.1910(3)
C3_2 C 0.4208(5) 0.2999(3) 0.1728(3)
H1_2 H 0.420246 0.267344 0.193793
N1_2 N 0.2525(4) 0.4105(2) 0.0990(3)
C5_2 C 0.2665(5) 0.6499(3) 0.1367(3)
C6_2 C 0.7489(5) 0.1782(3) 0.1785(3)
C8_2 C 0.9138(5) 0.2679(3) 0.3782(3)
C10_2 C 0.2655(5) 0.5868(3) 0.1271(3)
C12_2 C 0.1618(4) 0.3849(3) 0.0813(3)
C14_2 C 0.3361(4) 0.3778(3) 0.1203(3)
C15_2 C 0.2577(4) 0.4704(3) 0.1083(3)
C17_2 C 0.5051(5) 0.3678(3) 0.1346(3)
H7_2 H 0.561959 0.381634 0.129582
C21_2 C 0.3363(5) 0.3283(3) 0.1504(3)
H8_2 H 0.279660 0.314194 0.155419
C23_2 C 0.7440(5) 0.1147(3) 0.1804(3)
C25_2 C 0.3072(5) 0.5502(3) 0.1694(3)
H9_2 H 0.337756 0.564407 0.204388
C30_2 C 0.4221(5) 0.3965(3) 0.1118(3)
H11_2 H 0.422937 0.428646 0.090362
C33_2 C 0.3041(5) 0.4922(3) 0.1603(3)
H13_2 H 0.333251 0.467764 0.189069
H14_2 H 0.947549 0.341629 0.461762
C36_2 C 0.0844(5) 0.4078(3) 0.0939(3)
H15_2 H 0.091434 0.440936 0.114891
C39_2 C 0.0613(5) 0.3109(3) 0.0311(3)
H17_2 H 0.053980 0.278352 0.009351
C49_2 C 0.7982(5) 0.0850(3) 0.2239(3)
H25_2 H 0.838967 0.104420 0.253144
C50_2 C 0.7945(5) 0.0273(3) 0.2258(3)
H26_2 H 0.833684 0.008002 0.255788
C54_2 C 0.2172(6) 0.5065(3) 0.0656(3)
H30_2 H 0.186943 0.492205 0.030545
C56_2 C 0.1499(5) 0.3359(3) 0.0490(3)
H31_2 H 0.201697 0.319957 0.039436
C58_2 C 0.2215(6) 0.5645(3) 0.0748(3)
H33_2 H 0.194659 0.588866 0.045523
O20_2 O 0.4216(7) 0.7184(4) 0.0742(5)
C61_2 C 0.6848(6) 0.0856(3) 0.1364(3)
H36_2 H 0.648532 0.105210 0.105598
C63_2 C 0.6799(6) 0.0263(3) 0.1386(3)
H38_2 H 0.639936 0.006656 0.109145
N5_2 N 0.5398(12) 0.6538(7) 0.0797(8)
H44_2 H 0.551689 0.618165 0.079338
C66_2 C 0.4424(14) 0.6663(9) 0.0710(9)
H45_2 H 0.396034 0.638222 0.063375
C67_2 C 0.6273(13) 0.6907(8) 0.0897(10)
H46_2 H 0.654014 0.695732 0.128999
H47_2 H 0.610275 0.726937 0.072419
H48_2 H 0.673375 0.672900 0.073961
O26_2 O 0.1245(4) 0.7335(2) 0.0066(2)
O31_2 O 0.1921(3) 0.8516(2) 0.0087(2)
O32_2 O 0.3272(4) 0.86245(19) 0.0724(2)
C4_2 C 0.4697(4) 0.8564(3) 0.1813(3)
C7_2 C 0.3805(4) 0.8273(2) 0.1811(2)
C9_2 C 0.5673(5) 0.9398(3) 0.1983(3)
H4_2 H 0.574764 0.977855 0.208015
C13_2 C 0.5432(5) 0.8274(3) 0.1671(3)
H5_2 H 0.534564 0.789798 0.155697
C16_2 C 0.4833(5) 0.9124(3) 0.1972(3)
H6_2 H 0.435179 0.932016 0.207360
C22_2 C 0.9929(4) 0.8566(3) 0.2427(3)
C24_2 C 0.6411(4) 0.9104(3) 0.1847(3)
N3_2 N 0.7279(4) 0.9373(2) 0.1862(3)
C29_2 C 0.8161(4) 0.9083(3) 0.2048(3)
C31_2 C 0.7333(5) 0.9972(3) 0.1836(3)
C42_2 C 0.6281(5) 0.8537(3) 0.1697(3)
H18_2 H 0.677338 0.833496 0.161420
C51_2 C 0.9719(5) 0.8892(3) 0.1961(3)
C53_2 C 0.9242(5) 0.8497(4) 0.2708(3)
H29_2 H 0.937652 0.827995 0.303089
C59_2 C 0.8848(5) 0.9162(3) 0.1776(3)
H34_2 H 0.873096 0.939685 0.146557
C62_2 C 0.8357(5) 0.8743(3) 0.2517(3)
H37_2 H 0.789268 0.868152 0.270418
H40_2 H 0.998598 0.645246 0.412712
C65_2 C 0.9133(14) 0.6994(8) 0.3612(9)
H41_2 H 0.862147 0.684310 0.374301
H42_2 H 0.895888 0.698884 0.321215
H43_2 H 0.926015 0.737662 0.374078
C20_2 C 0.9828(5) 0.3338(3) 0.0451(3)
C27_2 C 0.8861(5) 0.3064(3) 0.0273(3)
C28_2 C 0.9956(5) 0.3830(3) 0.0763(3)
H10_2 H 0.943899 0.399541 0.085408
O5_2 O 0.8755(4) 0.2665(2) 0.9934(2)
C11_3 C 0.3431(5) 0.1506(3) 0.0013(3)
H12_3 H 0.086390 0.113506 0.008283
C38_3 C 0.2568(5) 0.0615(3) 0.0015(3)
C41_3 C 0.5104(5) 0.2127(3) 0.0198(3)
C44_3 C 0.4376(5) 0.2309(3) 0.0415(3)
H20_3 H 0.444191 0.264308 0.062023
C55_3 C 0.5996(5) 0.2468(3) 0.0314(3)
C57_3 C 0.3555(5) 0.1997(3) 0.0328(3)
H32_3 H 0.307523 0.211710 0.048347
C60_3 C 0.3312(5) 0.0366(3) 0.0410(3)
H35_3 H 0.380624 0.059121 0.061418
O15_2 O 0.1388(3) 0.6760(2) 0.7298(2)
O18_3 O 0.2601(5) 0.6101(2) 0.8825(3)
H2_3 H 0.262606 0.588910 0.854793
H3_3 H 0.267631 0.587056 0.910136
N2_3 N 0.2553(4) 0.1204(2) 0.9922(3)
C19_3 C 0.0040(4) 0.2068(3) 0.9115(3)
C32_3 C 0.0869(5) 0.1394(3) 0.9803(3)
C34_3 C 0.1711(5) 0.1506(3) 0.9662(3)
C35_3 C 0.0039(5) 0.1667(3) 0.9528(3)
O19_3 O 0.1133(4) 0.6842(3) 0.8132(2)
C40_3 C 0.0886(5) 0.6694(3) 0.7630(3)
C43_3 C 0.1720(5) 0.1918(3) 0.9271(3)
H19_3 H 0.228677 0.200662 0.918675
C46_3 C 0.1843(5) 0.0263(3) 0.9714(3)
H22_3 H 0.134275 0.041726 0.943981
C47_3 C 0.0895(5) 0.2199(3) 0.9002(3)
H23_3 H 0.091454 0.247839 0.874272
C48_3 C 0.4154(5) 0.1323(3) 0.9795(3)
H24_3 H 0.407618 0.099537 0.958090
H27_3 H 0.017056 0.606436 0.676139
C52_3 C 0.4996(5) 0.1626(3) 0.9896(3)
H28_3 H 0.549130 0.149328 0.976040
O21_3 O 0.1167(7) 0.7723(4) 0.8867(4)
C64_3 C 0.0951(13) 0.8112(8) 0.8925(7)
H39_3 H 0.144912 0.836225 0.906609
N4_3 N 0.0026(11) 0.8367(6) 0.8835(7)
Dy4 Dy 0.24639(2) 0.74097(2) 0.71429(2)
O23_2 O 0.3262(3) 0.69251(19) 0.81639(19)
O29_2 O 0.1776(3) 0.6753(2) 0.9521(2)
O36_2 O 0.2932(5) 0.7984(2) 0.8663(2)
C18_3 C 0.2592(5) 0.8832(3) 0.0348(3)
C26_3 C 0.2602(5) 0.9445(3) 0.0220(3)
C45_3 C 0.3329(5) 0.9789(3) 0.0506(3)
H21_3 H 0.384079 0.963151 0.076917
Dy1_2 Dy 0.75361(2) 0.24097(2) 0.78571(2)
O1_2 O 0.8351(3) 0.21179(19) 0.88290(19)
O2_3 O 0.5973(3) 0.25087(19) 0.72495(18)
O3_2 O 0.6738(3) 0.19251(19) 0.68361(19)
O4 O 0.3607(3) 0.72133(17) 0.65622(17)
O6_3 O 0.9137(3) 0.2701(2) 0.8431(2)
O7_2 O 0.3247(3) 0.65217(18) 0.70613(19)
O12_3 O 0.7965(4) 0.29638(19) 0.7210(2)
C1_3 C 0.5059(4) 0.1814(3) 0.6649(3)
C2_3 C 0.5955(4) 0.2108(3) 0.6910(3)
C3_3 C 0.4208(5) 0.2001(3) 0.6728(3)
H1_3 H 0.420246 0.232656 0.693793
C4_3 C 0.4697(4) 0.6436(3) 0.6813(3)
N1_3 N 0.2525(4) 0.0895(2) 0.5990(3)
O17_2 O 0.7068(5) 0.2984(2) 0.6337(2)
C6_3 C 0.7489(5) 0.3218(3) 0.6785(3)
C7_3 C 0.3805(4) 0.6727(2) 0.6811(2)
C8_3 C 0.9138(5) 0.2321(3) 0.8782(3)
C9_3 C 0.5673(5) 0.5602(3) 0.6983(3)
H4_3 H 0.574764 0.522145 0.708015
C12_3 C 0.1618(4) 0.1151(3) 0.5813(3)
C13_3 C 0.5432(5) 0.6726(3) 0.6671(3)
H5_3 H 0.534564 0.710202 0.655697
C14_3 C 0.3361(4) 0.1222(3) 0.6203(3)
C15_3 C 0.2577(4) 0.0296(3) 0.6083(3)
C16_3 C 0.4833(5) 0.5876(3) 0.6972(3)
H6_3 H 0.435179 0.567984 0.707360
C17_3 C 0.5051(5) 0.1322(3) 0.6346(3)
H7_3 H 0.561959 0.118366 0.629582
C21_3 C 0.3363(5) 0.1717(3) 0.6504(3)
H8_3 H 0.279660 0.185806 0.655419
C22_3 C 0.9929(4) 0.6434(3) 0.7427(3)
C23_3 C 0.7440(5) 0.3853(3) 0.6804(3)
C24_3 C 0.6411(4) 0.5896(3) 0.6847(3)
N3_3 N 0.7279(4) 0.5627(2) 0.6862(3)
C29_3 C 0.8161(4) 0.5917(3) 0.7048(3)
C30_3 C 0.4221(5) 0.1035(3) 0.6118(3)
H11_3 H 0.422937 0.071354 0.590362
C31_3 C 0.7333(5) 0.5028(3) 0.6836(3)
C33_3 C 0.3041(5) 0.0078(3) 0.6603(3)
H13_3 H 0.333251 0.032236 0.689069
H14_3 H 0.947549 0.158371 0.961762
C36_3 C 0.0844(5) 0.0922(3) 0.5939(3)
H15_3 H 0.091434 0.059064 0.614891
C39_3 C 0.0613(5) 0.1891(3) 0.5311(3)
H17_3 H 0.053980 0.221648 0.509351
C42_3 C 0.6281(5) 0.6463(3) 0.6697(3)
H18_3 H 0.677338 0.666504 0.661420
C49_3 C 0.7982(5) 0.4150(3) 0.7239(3)
H25_3 H 0.838967 0.395580 0.753144
C50_3 C 0.7945(5) 0.4727(3) 0.7258(3)
H26_3 H 0.833684 0.491998 0.755788
C51_3 C 0.9719(5) 0.6108(3) 0.6961(3)
C53_3 C 0.9242(5) 0.6503(4) 0.7708(3)
H29_3 H 0.937652 0.672005 0.803089
H30_3 H 0.186943 0.007795 0.530545
C56_3 C 0.1499(5) 0.1641(3) 0.5490(3)
H31_3 H 0.201697 0.180043 0.539436
C59_3 C 0.8848(5) 0.5838(3) 0.6776(3)
H34_3 H 0.873096 0.560315 0.646557
C61_3 C 0.6848(6) 0.4144(3) 0.6364(3)
H36_3 H 0.648532 0.394790 0.605598
C62_3 C 0.8357(5) 0.6257(3) 0.7517(3)
H37_3 H 0.789268 0.631848 0.770418
C63_3 C 0.6799(6) 0.4737(3) 0.6386(3)
H38_3 H 0.639936 0.493344 0.609145
H40_3 H 0.998598 0.854754 0.912712
C65_3 C 0.9133(14) 0.8006(8) 0.8612(9)
H41_3 H 0.862147 0.815690 0.874301
H42_3 H 0.895888 0.801116 0.821215
H43_3 H 0.926015 0.762338 0.874078
O25_2 O 0.6393(3) 0.22133(17) 0.84378(17)
O27_2 O 0.6753(3) 0.15217(18) 0.79387(19)
O28_2 O 0.7201(4) 0.33122(19) 0.8161(2)
O33_2 O 0.8612(3) 0.1760(2) 0.7702(2)
O8_2 O 0.2799(4) 0.83122(19) 0.6839(2)
O14_3 O 0.2529(4) 0.8199(2) 0.5935(2)
C5_3 C 0.2665(5) 0.8501(3) 0.6367(3)
C10_3 C 0.2655(5) 0.9132(3) 0.6271(3)
C25_3 C 0.3072(5) 0.9498(3) 0.6694(3)
H9_3 H 0.337756 0.935593 0.704388
C54_3 C 0.2172(6) 0.9935(3) 0.5656(3)
C58_3 C 0.2215(6) 0.9355(3) 0.5748(3)
H33_3 H 0.194659 0.911134 0.545523
O20_3 O 0.4216(7) 0.7816(4) 0.5742(5)
N5_3 N 0.5398(12) 0.8462(7) 0.5797(8)
H44_3 H 0.551689 0.881835 0.579338
C66_3 C 0.4424(14) 0.8337(9) 0.5710(9)
H45_3 H 0.396034 0.861778 0.563375
C67_3 C 0.6273(13) 0.8093(8) 0.5897(10)
H46_3 H 0.654014 0.804268 0.628999
H47_3 H 0.610275 0.773063 0.572419
H48_3 H 0.673375 0.827100 0.573961
O22_2 O 0.1649(3) 0.71179(19) 0.61710(19)
O9_2 O 0.8224(3) 0.1753(2) 0.5479(2)
C20_3 C 0.9828(5) 0.1662(3) 0.5451(3)
C27_3 C 0.8861(5) 0.1936(3) 0.5273(3)
C28_3 C 0.9956(5) 0.1170(3) 0.5763(3)
H10_3 H 0.943899 0.100459 0.585408
C20_4 C 0.0172(5) 0.6662(3) 0.9549(3)
C27_4 C 0.1139(5) 0.6936(3) 0.9727(3)
C28_4 C 0.0044(5) 0.6170(3) 0.9237(3)
H10_4 H 0.056101 0.600459 0.914592
C4_4 C 0.5303(4) 0.1436(3) 0.8187(3)
C7_4 C 0.6195(4) 0.1727(2) 0.8189(2)
C9_4 C 0.4327(5) 0.0602(3) 0.8017(3)
H4_4 H 0.425236 0.022145 0.791985
C13_4 C 0.4568(5) 0.1726(3) 0.8329(3)
H5_4 H 0.465436 0.210202 0.844303
C16_4 C 0.5167(5) 0.0876(3) 0.8028(3)
H6_4 H 0.564821 0.067984 0.792640
C22_4 C 0.0071(4) 0.1434(3) 0.7573(3)
C24_4 C 0.3589(4) 0.0896(3) 0.8153(3)
N3_4 N 0.2721(4) 0.0627(2) 0.8138(3)
C29_4 C 0.1839(4) 0.0917(3) 0.7952(3)
C31_4 C 0.2667(5) 0.0028(3) 0.8164(3)
C42_4 C 0.3719(5) 0.1463(3) 0.8303(3)
H18_4 H 0.322662 0.166504 0.838580
C51_4 C 0.0281(5) 0.1108(3) 0.8039(3)
C53_4 C 0.0758(5) 0.1503(4) 0.7292(3)
H29_4 H 0.062348 0.172005 0.696911
C59_4 C 0.1152(5) 0.0838(3) 0.8224(3)
H34_4 H 0.126904 0.060315 0.853443
C62_4 C 0.1643(5) 0.1257(3) 0.7483(3)
H37_4 H 0.210732 0.131848 0.729582
H40_4 H 0.001402 0.354754 0.587288
C65_4 C 0.0867(14) 0.3006(8) 0.6388(9)
H41_4 H 0.137853 0.315690 0.625699
H42_4 H 0.104112 0.301116 0.678785
H43_4 H 0.073985 0.262338 0.625922
O2_4 O 0.4027(3) 0.75087(19) 0.77505(18)
O6_4 O 0.0863(3) 0.7701(2) 0.6569(2)
O12_4 O 0.2035(4) 0.79638(19) 0.7790(2)
O14_4 O 0.7471(4) 0.3199(2) 0.9065(2)
C1_4 C 0.4941(4) 0.6814(3) 0.8351(3)
C2_4 C 0.4045(4) 0.7108(3) 0.8090(3)
C3_4 C 0.5792(5) 0.7001(3) 0.8272(3)
H1_4 H 0.579754 0.732656 0.806207
N1_4 N 0.7475(4) 0.5895(2) 0.9010(3)
C5_4 C 0.7335(5) 0.3501(3) 0.8633(3)
C6_4 C 0.2511(5) 0.8218(3) 0.8215(3)
C8_4 C 0.0862(5) 0.7321(3) 0.6218(3)
C10_4 C 0.7345(5) 0.4132(3) 0.8729(3)
C12_4 C 0.8382(4) 0.6151(3) 0.9187(3)
C14_4 C 0.6639(4) 0.6222(3) 0.8797(3)
C15_4 C 0.7423(4) 0.5296(3) 0.8917(3)
C17_4 C 0.4949(5) 0.6322(3) 0.8654(3)
H7_4 H 0.438041 0.618366 0.870418
C21_4 C 0.6637(5) 0.6717(3) 0.8496(3)
H8_4 H 0.720340 0.685806 0.844581
C23_4 C 0.2560(5) 0.8853(3) 0.8196(3)
C25_4 C 0.6928(5) 0.4498(3) 0.8306(3)
H9_4 H 0.662244 0.435593 0.795612
C30_4 C 0.5779(5) 0.6035(3) 0.8882(3)
H11_4 H 0.577063 0.571354 0.909638
C33_4 C 0.6959(5) 0.5078(3) 0.8397(3)
H13_4 H 0.666749 0.532236 0.810931
H14_4 H 0.052451 0.658371 0.538238
C36_4 C 0.9156(5) 0.5922(3) 0.9061(3)
H15_4 H 0.908566 0.559064 0.885109
C39_4 C 0.9387(5) 0.6891(3) 0.9689(3)
H17_4 H 0.946020 0.721648 0.990649
C49_4 C 0.2018(5) 0.9150(3) 0.7761(3)
H25_4 H 0.161033 0.895580 0.746856
C50_4 C 0.2055(5) 0.9727(3) 0.7742(3)
H26_4 H 0.166316 0.991998 0.744212
C54_4 C 0.7828(6) 0.4935(3) 0.9344(3)
H30_4 H 0.813057 0.507795 0.969455
C56_4 C 0.8501(5) 0.6641(3) 0.9510(3)
H31_4 H 0.798303 0.680043 0.960564
C58_4 C 0.7785(6) 0.4355(3) 0.9252(3)
H33_4 H 0.805341 0.411134 0.954477
O20_4 O 0.5784(7) 0.2816(4) 0.9258(5)
C61_4 C 0.3152(6) 0.9144(3) 0.8636(3)
H36_4 H 0.351468 0.894790 0.894402
C63_4 C 0.3201(6) 0.9737(3) 0.8614(3)
H38_4 H 0.360064 0.993344 0.890855
N5_4 N 0.4602(12) 0.3462(7) 0.9203(8)
H44_4 H 0.448311 0.381835 0.920662
C66_4 C 0.5576(14) 0.3337(9) 0.9290(9)
H45_4 H 0.603966 0.361778 0.936625
C67_4 C 0.3727(13) 0.3093(8) 0.9103(10)
H46_4 H 0.345986 0.304268 0.871001
H47_4 H 0.389725 0.273063 0.927581
H48_4 H 0.326625 0.327100 0.926039
O18_4 O 0.7399(5) 0.1101(2) 0.6175(3)
H2_4 H 0.737394 0.088910 0.645207
H3_4 H 0.732369 0.087056 0.589864
O19_4 O 0.8867(4) 0.1842(3) 0.6868(2)
C40_4 C 0.9114(5) 0.1694(3) 0.7370(3)
H27_4 H 0.982944 0.106436 0.823861
O21_4 O 0.8833(7) 0.2723(4) 0.6133(4)
C64_4 C 0.9049(13) 0.3112(8) 0.6075(7)
H39_4 H 0.855088 0.336225 0.593391
N4_4 N 0.9974(11) 0.3367(6) 0.6165(7)
C11_4 C 0.6569(5) 0.6506(3) 0.4987(3)
N2_4 N 0.7447(4) 0.6204(2) 0.5078(3)
C18_4 C 0.7408(5) 0.3832(3) 0.4652(3)
C19_4 C 0.9960(4) 0.7068(3) 0.5885(3)
C26_4 C 0.7398(5) 0.4445(3) 0.4780(3)
C32_4 C 0.9131(5) 0.6394(3) 0.5197(3)
H12_4 H 0.913610 0.613506 0.491717
C34_4 C 0.8289(5) 0.6506(3) 0.5338(3)
C35_4 C 0.9961(5) 0.6667(3) 0.5472(3)
C37_2 C 0.8138(5) 0.4686(3) 0.5181(3)
H16_2 H 0.862963 0.445761 0.538302
C38_4 C 0.7432(5) 0.5615(3) 0.4985(3)
C41_4 C 0.4896(5) 0.7127(3) 0.4802(3)
C43_4 C 0.8280(5) 0.6918(3) 0.5729(3)
H19_4 H 0.771323 0.700662 0.581325
C44_4 C 0.5624(5) 0.7309(3) 0.4585(3)
H20_4 H 0.555809 0.764308 0.437977
C45_4 C 0.6671(5) 0.4789(3) 0.4494(3)
H21_4 H 0.615921 0.463151 0.423083
C46_4 C 0.8157(5) 0.5263(3) 0.5286(3)
H22_4 H 0.865725 0.541726 0.556019
C47_4 C 0.9105(5) 0.7199(3) 0.5998(3)
H23_4 H 0.908546 0.747839 0.625728
C48_4 C 0.5846(5) 0.6323(3) 0.5205(3)
H24_4 H 0.592382 0.599537 0.541910
C52_4 C 0.5004(5) 0.6626(3) 0.5104(3)
H28_4 H 0.450870 0.649328 0.523960
C55_4 C 0.4004(5) 0.7468(3) 0.4686(3)
C57_4 C 0.6445(5) 0.6997(3) 0.4672(3)
H32_4 H 0.692477 0.711710 0.451653
C60_4 C 0.6688(5) 0.5366(3) 0.4590(3)
H35_4 H 0.619376 0.559121 0.438582
C37_3 C 0.8138(5) 0.0314(3) 0.0181(3)
H16_3 H 0.862963 0.054239 0.038302
C37_4 C 0.1862(5) 0.9686(3) 0.9819(3)
H16_4 H 0.137037 0.945761 0.961698
loop_
_geom_bond_atom_site_label_1
_geom_bond_atom_site_label_2
_geom_bond_site_symmetry_1
_geom_bond_site_symmetry_2
O5 C27 1_555 1_555
O9 C27 1_555 1_555
C20 C27 1_555 1_555
C28 C20 1_555 1_555
H10 C28 1_555 1_555
Dy10 O5 1_555 1_555
Dy13 O9 1_555 1_555
Dy2 O14 1_555 1_555
O8 C5 1_555 1_555
O14 C5 1_555 1_555
C5 C10 1_555 1_555
C10 C25 1_555 1_555
C25 H9 1_555 1_555
C58 C10 1_555 1_555
H33 C58 1_555 1_555
O20 Dy2 1_555 1_555
N5 H44 1_555 1_555
C66 O20 1_555 1_555
H45 C66 1_555 1_555
C67 N5 1_555 1_555
H46 C67 1_555 1_555
H47 C67 1_555 1_555
H48 C67 1_555 1_555
Dy6 O8 1_555 1_555
O22 Dy2 1_555 1_555
O24 Dy2 1_555 1_555
O26 Dy2 1_555 1_555
O31 Dy2 1_555 1_555
O32 Dy2 1_555 1_555
O34 Dy2 1_555 1_555
C54 C58 1_555 1_555
N5 C66 1_555 1_555
Dy6 O22 1_555 1_555
Dy6 O24 1_555 1_555
Dy1 O1 1_555 1_555
O1 C8 1_555 1_555
O2 Dy1 1_555 1_555
O3 Dy1 1_555 1_555
O24 C7 1_555 1_555
O6 Dy1 1_555 1_555
O7 C7 1_555 1_555
O12 Dy1 1_555 1_555
C1 C2 1_555 1_555
C2 O2 1_555 1_555
C3 C1 1_555 1_555
H1 C3 1_555 1_555
C4 C7 1_555 1_555
N1 C12 1_555 1_555
O17 C6 1_555 1_555
C6 O12 1_555 1_555
C8 O6 1_555 1_555
C9 H4 1_555 1_555
C12 C36 1_555 1_555
C13 C4 1_555 1_555
H5 C13 1_555 1_555
C14 N1 1_555 1_555
C15 N1 1_555 1_555
C16 C4 1_555 1_555
H6 C16 1_555 1_555
C17 C1 1_555 1_555
H7 C17 1_555 1_555
C21 C3 1_555 1_555
H8 C21 1_555 1_555
C23 C6 1_555 1_555
C24 C9 1_555 1_555
N3 C24 1_555 1_555
C29 N3 1_555 1_555
C30 C14 1_555 1_555
H11 C30 1_555 1_555
C31 N3 1_555 1_555
C33 C15 1_555 1_555
H13 C33 1_555 1_555
H15 C36 1_555 1_555
H17 C39 1_555 1_555
C42 C13 1_555 1_555
H18 C42 1_555 1_555
C49 C23 1_555 1_555
H25 C49 1_555 1_555
C50 C31 1_555 1_555
H26 C50 1_555 1_555
C51 C22 1_555 1_555
C53 C22 1_555 1_555
H29 C53 1_555 1_555
C56 C12 1_555 1_555
H31 C56 1_555 1_555
C59 C29 1_555 1_555
H34 C59 1_555 1_555
C61 C23 1_555 1_555
H36 C61 1_555 1_555
C62 C29 1_555 1_555
H37 C62 1_555 1_555
C63 C31 1_555 1_555
H38 C63 1_555 1_555
H41 C65 1_555 1_555
H42 C65 1_555 1_555
H43 C65 1_555 1_555
Dy9 O1 1_555 1_555
Dy13 O3 1_555 1_555
O25 Dy1 1_555 1_555
O27 Dy1 1_555 1_555
O28 Dy1 1_555 1_555
O33 Dy1 1_555 1_555
O3 C2 1_555 1_555
O7 Dy6 1_555 1_555
O17 Dy13 1_555 1_555
C9 C16 1_555 1_555
C14 C21 1_555 1_555
C17 C30 1_555 1_555
C24 C42 1_555 1_555
C39 C56 1_555 1_555
C49 C50 1_555 1_555
C51 C59 1_555 1_555
C53 C62 1_555 1_555
C61 C63 1_555 1_555
Dy9 O25 1_555 1_555
O11 C18 1_555 1_555
O13 C18 1_555 1_555
C18 C26 1_555 1_555
C45 C26 1_555 1_555
H21 C45 1_555 1_555
Dy11 O11 1_555 1_555
O13 Dy11 1_555 1_555
Dy3 O18 1_555 1_555
O15 C40 1_555 1_555
O18 H2 1_555 1_555
H3 O18 1_555 1_555
N2 C34 1_555 1_555
C34 C32 1_555 1_555
C35 C19 1_555 1_555
O19 Dy3 1_555 1_555
C40 O19 1_555 1_555
C43 C34 1_555 1_555
H19 C43 1_555 1_555
H22 C46 1_555 1_555
C47 C19 1_555 1_555
H23 C47 1_555 1_555
H24 C48 1_555 1_555
H28 C52 1_555 1_555
O21 Dy3 1_555 1_555
C64 O21 1_555 1_555
H39 C64 1_555 1_555
N4 C64 1_555 1_555
Dy6 O15 1_555 1_555
O23 Dy3 1_555 1_555
O29 Dy3 1_555 1_555
O30 Dy3 1_555 1_555
O35 Dy3 1_555 1_555
O36 Dy3 1_555 1_555
C32 C35 1_555 1_555
C43 C47 1_555 1_555
C48 C52 1_555 1_555
Dy6 O23 1_555 1_555
O10 C55 1_555 1_555
O16 C55 1_555 1_555
C41 C44 1_555 1_555
C44 H20 1_555 1_555
C55 C41 1_555 1_555
C57 C11 1_555 1_555
H32 C57 1_555 1_555
C60 C38 1_555 1_555
H35 C60 1_555 1_555
Dy14 O10 1_555 1_555
O16 Dy14 1_555 1_555
C44 C57 1_555 1_555
O10_2 C55_2 1_555 1_555
O11_2 C18_2 1_555 1_555
O13_2 C18_2 1_555 1_555
O34 C55_2 1_555 1_555
C11_2 N2_2 1_555 1_555
N2_2 C34_2 1_555 1_555
C18_2 C26_2 1_555 1_555
C26_2 C37 1_555 1_555
C32_2 H12_2 1_555 1_555
C34_2 C32_2 1_555 1_555
C35_2 C19_2 1_555 1_555
C37 H16 1_555 1_555
C38_2 N2_2 1_555 1_555
C41_2 C44_2 1_555 1_555
C43_2 C34_2 1_555 1_555
H19_2 C43_2 1_555 1_555
C44_2 H20_2 1_555 1_555
C45_2 C26_2 1_555 1_555
H21_2 C45_2 1_555 1_555
C46_2 C37 1_555 1_555
H22_2 C46_2 1_555 1_555
C47_2 C19_2 1_555 1_555
H23_2 C47_2 1_555 1_555
C48_2 C11_2 1_555 1_555
H24_2 C48_2 1_555 1_555
C52_2 C41_2 1_555 1_555
H28_2 C52_2 1_555 1_555
C55_2 C41_2 1_555 1_555
C57_2 C11_2 1_555 1_555
H32_2 C57_2 1_555 1_555
C60_2 C38_2 1_555 1_555
H35_2 C60_2 1_555 1_555
Dy10 O11_2 1_555 1_555
Dy14_2 O10_2 1_555 1_555
O13_2 Dy10 1_555 1_555
O34 Dy14_2 1_555 1_555
C32_2 C35_2 1_555 1_555
C38_2 C46_2 1_555 1_555
C43_2 C47_2 1_555 1_555
C44_2 C57_2 1_555 1_555
C45_2 C60_2 1_555 1_555
C48_2 C52_2 1_555 1_555
Dy13 O18_2 1_555 1_555
O33 C40_2 1_555 1_555
O18_2 H2_2 1_555 1_555
H3_2 O18_2 1_555 1_555
O19_2 Dy13 1_555 1_555
C40_2 O19_2 1_555 1_555
O21_2 Dy13 1_555 1_555
C64_2 O21_2 1_555 1_555
H39_2 C64_2 1_555 1_555
N4_2 C64_2 1_555 1_555
O30_2 Dy13 1_555 1_555
O35_2 Dy13 1_555 1_555
Dy9 O14_2 1_555 1_555
O22 C8_2 1_555 1_555
O2_2 Dy6 1_555 1_555
O6_2 Dy6 1_555 1_555
O28 C5_2 1_555 1_555
O12_2 Dy6 1_555 1_555
O14_2 C5_2 1_555 1_555
C1_2 C2_2 1_555 1_555
C2_2 O2_2 1_555 1_555
C3_2 C1_2 1_555 1_555
H1_2 C3_2 1_555 1_555
N1_2 C12_2 1_555 1_555
O36 C6_2 1_555 1_555
C5_2 C10_2 1_555 1_555
C6_2 O12_2 1_555 1_555
C8_2 O6_2 1_555 1_555
C10_2 C25_2 1_555 1_555
C12_2 C36_2 1_555 1_555
C14_2 N1_2 1_555 1_555
C15_2 N1_2 1_555 1_555
C17_2 C1_2 1_555 1_555
H7_2 C17_2 1_555 1_555
C21_2 C3_2 1_555 1_555
H8_2 C21_2 1_555 1_555
C23_2 C6_2 1_555 1_555
C25_2 H9_2 1_555 1_555
C30_2 C14_2 1_555 1_555
H11_2 C30_2 1_555 1_555
C33_2 C15_2 1_555 1_555
H13_2 C33_2 1_555 1_555
H15_2 C36_2 1_555 1_555
H17_2 C39_2 1_555 1_555
C49_2 C23_2 1_555 1_555
H25_2 C49_2 1_555 1_555
H26_2 C50_2 1_555 1_555
C54_2 C15_2 1_555 1_555
H30_2 C54_2 1_555 1_555
C56_2 C12_2 1_555 1_555
H31_2 C56_2 1_555 1_555
C58_2 C10_2 1_555 1_555
H33_2 C58_2 1_555 1_555
O20_2 Dy9 1_555 1_555
C61_2 C23_2 1_555 1_555
H36_2 C61_2 1_555 1_555
H38_2 C63_2 1_555 1_555
N5_2 H44_2 1_555 1_555
C66_2 O20_2 1_555 1_555
H45_2 C66_2 1_555 1_555
C67_2 N5_2 1_555 1_555
H46_2 C67_2 1_555 1_555
H47_2 C67_2 1_555 1_555
H48_2 C67_2 1_555 1_555
O26_2 Dy9 1_555 1_555
O31_2 Dy9 1_555 1_555
O32_2 Dy9 1_555 1_555
O23 C2_2 1_555 1_555
C14_2 C21_2 1_555 1_555
C17_2 C30_2 1_555 1_555
C25_2 C33_2 1_555 1_555
C39_2 C56_2 1_555 1_555
C49_2 C50_2 1_555 1_555
C54_2 C58_2 1_555 1_555
C61_2 C63_2 1_555 1_555
N5_2 C66_2 1_555 1_555
O25 C7_2 1_555 1_555
O27 C7_2 1_555 1_555
C4_2 C7_2 1_555 1_555
C9_2 H4_2 1_555 1_555
C13_2 C4_2 1_555 1_555
H5_2 C13_2 1_555 1_555
C16_2 C4_2 1_555 1_555
H6_2 C16_2 1_555 1_555
C24_2 C9_2 1_555 1_555
N3_2 C24_2 1_555 1_555
C29_2 N3_2 1_555 1_555
C31_2 N3_2 1_555 1_555
C42_2 C13_2 1_555 1_555
H18_2 C42_2 1_555 1_555
C51_2 C22_2 1_555 1_555
C53_2 C22_2 1_555 1_555
H29_2 C53_2 1_555 1_555
C59_2 C29_2 1_555 1_555
H34_2 C59_2 1_555 1_555
C62_2 C29_2 1_555 1_555
H37_2 C62_2 1_555 1_555
H41_2 C65_2 1_555 1_555
H42_2 C65_2 1_555 1_555
H43_2 C65_2 1_555 1_555
C9_2 C16_2 1_555 1_555
C24_2 C42_2 1_555 1_555
C51_2 C59_2 1_555 1_555
C53_2 C62_2 1_555 1_555
O29 C27_2 1_555 1_555
C20_2 C27_2 1_555 1_555
C28_2 C20_2 1_555 1_555
H10_2 C28_2 1_555 1_555
Dy11 O5_2 1_555 1_555
O30 C55_3 1_555 1_555
O35 C55_3 1_555 1_555
C41_3 C44_3 1_555 1_555
C44_3 H20_3 1_555 1_555
C55_3 C41_3 1_555 1_555
C57_3 C11_3 1_555 1_555
H32_3 C57_3 1_555 1_555
C60_3 C38_3 1_555 1_555
H35_3 C60_3 1_555 1_555
C44_3 C57_3 1_555 1_555
Dy14 O18_3 1_555 1_555
O15_2 C40_3 1_555 1_555
O18_3 H2_3 1_555 1_555
H3_3 O18_3 1_555 1_555
N2_3 C34_3 1_555 1_555
C34_3 C32_3 1_555 1_555
C35_3 C19_3 1_555 1_555
O19_3 Dy14 1_555 1_555
C40_3 O19_3 1_555 1_555
C43_3 C34_3 1_555 1_555
H19_3 C43_3 1_555 1_555
H22_3 C46_3 1_555 1_555
C47_3 C19_3 1_555 1_555
H23_3 C47_3 1_555 1_555
H24_3 C48_3 1_555 1_555
H28_3 C52_3 1_555 1_555
O21_3 Dy14 1_555 1_555
C64_3 O21_3 1_555 1_555
H39_3 C64_3 1_555 1_555
N4_3 C64_3 1_555 1_555
Dy4 O15_2 1_555 1_555
O23_2 Dy14 1_555 1_555
O29_2 Dy14 1_555 1_555
O36_2 Dy14 1_555 1_555
C32_3 C35_3 1_555 1_555
C43_3 C47_3 1_555 1_555
C48_3 C52_3 1_555 1_555
Dy4 O23_2 1_555 1_555
O31_2 C18_3 1_555 1_555
O32_2 C18_3 1_555 1_555
C18_3 C26_3 1_555 1_555
C45_3 C26_3 1_555 1_555
H21_3 C45_3 1_555 1_555
Dy1_2 O1_2 1_555 1_555
O1_2 C8_3 1_555 1_555
O2_3 Dy1_2 1_555 1_555
O3_2 Dy1_2 1_555 1_555
O4 C7_3 1_555 1_555
O6_3 Dy1_2 1_555 1_555
O7_2 C7_3 1_555 1_555
O12_3 Dy1_2 1_555 1_555
C1_3 C2_3 1_555 1_555
C2_3 O2_3 1_555 1_555
C3_3 C1_3 1_555 1_555
H1_3 C3_3 1_555 1_555
C4_3 C7_3 1_555 1_555
N1_3 C12_3 1_555 1_555
O17_2 C6_3 1_555 1_555
C6_3 O12_3 1_555 1_555
C8_3 O6_3 1_555 1_555
C9_3 H4_3 1_555 1_555
C12_3 C36_3 1_555 1_555
C13_3 C4_3 1_555 1_555
H5_3 C13_3 1_555 1_555
C14_3 N1_3 1_555 1_555
C15_3 N1_3 1_555 1_555
C16_3 C4_3 1_555 1_555
H6_3 C16_3 1_555 1_555
C17_3 C1_3 1_555 1_555
H7_3 C17_3 1_555 1_555
C21_3 C3_3 1_555 1_555
H8_3 C21_3 1_555 1_555
C23_3 C6_3 1_555 1_555
C24_3 C9_3 1_555 1_555
N3_3 C24_3 1_555 1_555
C29_3 N3_3 1_555 1_555
C30_3 C14_3 1_555 1_555
H11_3 C30_3 1_555 1_555
C31_3 N3_3 1_555 1_555
C33_3 C15_3 1_555 1_555
H13_3 C33_3 1_555 1_555
H15_3 C36_3 1_555 1_555
H17_3 C39_3 1_555 1_555
C42_3 C13_3 1_555 1_555
H18_3 C42_3 1_555 1_555
C49_3 C23_3 1_555 1_555
H25_3 C49_3 1_555 1_555
C50_3 C31_3 1_555 1_555
H26_3 C50_3 1_555 1_555
C51_3 C22_3 1_555 1_555
C53_3 C22_3 1_555 1_555
H29_3 C53_3 1_555 1_555
C56_3 C12_3 1_555 1_555
H31_3 C56_3 1_555 1_555
C59_3 C29_3 1_555 1_555
H34_3 C59_3 1_555 1_555
C61_3 C23_3 1_555 1_555
H36_3 C61_3 1_555 1_555
C62_3 C29_3 1_555 1_555
H37_3 C62_3 1_555 1_555
C63_3 C31_3 1_555 1_555
H38_3 C63_3 1_555 1_555
H41_3 C65_3 1_555 1_555
H42_3 C65_3 1_555 1_555
H43_3 C65_3 1_555 1_555
Dy4 O4 1_555 1_555
Dy10 O4 1_555 1_555
Dy11 O1_2 1_555 1_555
Dy14_2 O3_2 1_555 1_555
O25_2 Dy1_2 1_555 1_555
O27_2 Dy1_2 1_555 1_555
O28_2 Dy1_2 1_555 1_555
O33_2 Dy1_2 1_555 1_555
O3_2 C2_3 1_555 1_555
O7_2 Dy4 1_555 1_555
O17_2 Dy14_2 1_555 1_555
C9_3 C16_3 1_555 1_555
C14_3 C21_3 1_555 1_555
C17_3 C30_3 1_555 1_555
C24_3 C42_3 1_555 1_555
C39_3 C56_3 1_555 1_555
C49_3 C50_3 1_555 1_555
C51_3 C59_3 1_555 1_555
C53_3 C62_3 1_555 1_555
C61_3 C63_3 1_555 1_555
Dy11 O25_2 1_555 1_555
Dy10 O14_3 1_555 1_555
O8_2 C5_3 1_555 1_555
O14_3 C5_3 1_555 1_555
C5_3 C10_3 1_555 1_555
C10_3 C25_3 1_555 1_555
C25_3 H9_3 1_555 1_555
C58_3 C10_3 1_555 1_555
H33_3 C58_3 1_555 1_555
O20_3 Dy10 1_555 1_555
N5_3 H44_3 1_555 1_555
C66_3 O20_3 1_555 1_555
H45_3 C66_3 1_555 1_555
C67_3 N5_3 1_555 1_555
H46_3 C67_3 1_555 1_555
H47_3 C67_3 1_555 1_555
H48_3 C67_3 1_555 1_555
Dy4 O8_2 1_555 1_555
O22_2 Dy10 1_555 1_555
O35_2 Dy10 1_555 1_555
C54_3 C58_3 1_555 1_555
N5_3 C66_3 1_555 1_555
Dy4 O22_2 1_555 1_555
O26 C27_3 1_555 1_555
O9_2 C27_3 1_555 1_555
C20_3 C27_3 1_555 1_555
C28_3 C20_3 1_555 1_555
H10_3 C28_3 1_555 1_555
Dy14_2 O9_2 1_555 1_555
O29_2 C27_4 1_555 1_555
C20_4 C27_4 1_555 1_555
C28_4 C20_4 1_555 1_555
H10_4 C28_4 1_555 1_555
O25_2 C7_4 1_555 1_555
O27_2 C7_4 1_555 1_555
C4_4 C7_4 1_555 1_555
C9_4 H4_4 1_555 1_555
C13_4 C4_4 1_555 1_555
H5_4 C13_4 1_555 1_555
C16_4 C4_4 1_555 1_555
H6_4 C16_4 1_555 1_555
C24_4 C9_4 1_555 1_555
N3_4 C24_4 1_555 1_555
C29_4 N3_4 1_555 1_555
C31_4 N3_4 1_555 1_555
C42_4 C13_4 1_555 1_555
H18_4 C42_4 1_555 1_555
C51_4 C22_4 1_555 1_555
C53_4 C22_4 1_555 1_555
H29_4 C53_4 1_555 1_555
C59_4 C29_4 1_555 1_555
H34_4 C59_4 1_555 1_555
C62_4 C29_4 1_555 1_555
H37_4 C62_4 1_555 1_555
H41_4 C65_4 1_555 1_555
H42_4 C65_4 1_555 1_555
H43_4 C65_4 1_555 1_555
C9_4 C16_4 1_555 1_555
C24_4 C42_4 1_555 1_555
C51_4 C59_4 1_555 1_555
C53_4 C62_4 1_555 1_555
Dy11 O14_4 1_555 1_555
O22_2 C8_4 1_555 1_555
O2_4 Dy4 1_555 1_555
O6_4 Dy4 1_555 1_555
O28_2 C5_4 1_555 1_555
O12_4 Dy4 1_555 1_555
O14_4 C5_4 1_555 1_555
C1_4 C2_4 1_555 1_555
C2_4 O2_4 1_555 1_555
C3_4 C1_4 1_555 1_555
H1_4 C3_4 1_555 1_555
N1_4 C12_4 1_555 1_555
O36_2 C6_4 1_555 1_555
C5_4 C10_4 1_555 1_555
C6_4 O12_4 1_555 1_555
C8_4 O6_4 1_555 1_555
C10_4 C25_4 1_555 1_555
C12_4 C36_4 1_555 1_555
C14_4 N1_4 1_555 1_555
C15_4 N1_4 1_555 1_555
C17_4 C1_4 1_555 1_555
H7_4 C17_4 1_555 1_555
C21_4 C3_4 1_555 1_555
H8_4 C21_4 1_555 1_555
C23_4 C6_4 1_555 1_555
C25_4 H9_4 1_555 1_555
C30_4 C14_4 1_555 1_555
H11_4 C30_4 1_555 1_555
C33_4 C15_4 1_555 1_555
H13_4 C33_4 1_555 1_555
H15_4 C36_4 1_555 1_555
H17_4 C39_4 1_555 1_555
C49_4 C23_4 1_555 1_555
H25_4 C49_4 1_555 1_555
H26_4 C50_4 1_555 1_555
C54_4 C15_4 1_555 1_555
H30_4 C54_4 1_555 1_555
C56_4 C12_4 1_555 1_555
H31_4 C56_4 1_555 1_555
C58_4 C10_4 1_555 1_555
H33_4 C58_4 1_555 1_555
O20_4 Dy11 1_555 1_555
C61_4 C23_4 1_555 1_555
H36_4 C61_4 1_555 1_555
H38_4 C63_4 1_555 1_555
N5_4 H44_4 1_555 1_555
C66_4 O20_4 1_555 1_555
H45_4 C66_4 1_555 1_555
C67_4 N5_4 1_555 1_555
H46_4 C67_4 1_555 1_555
H47_4 C67_4 1_555 1_555
H48_4 C67_4 1_555 1_555
O23_2 C2_4 1_555 1_555
C14_4 C21_4 1_555 1_555
C17_4 C30_4 1_555 1_555
C25_4 C33_4 1_555 1_555
C39_4 C56_4 1_555 1_555
C49_4 C50_4 1_555 1_555
C54_4 C58_4 1_555 1_555
C61_4 C63_4 1_555 1_555
N5_4 C66_4 1_555 1_555
Dy14_2 O18_4 1_555 1_555
O33_2 C40_4 1_555 1_555
O18_4 H2_4 1_555 1_555
H3_4 O18_4 1_555 1_555
O19_4 Dy14_2 1_555 1_555
C40_4 O19_4 1_555 1_555
O21_4 Dy14_2 1_555 1_555
C64_4 O21_4 1_555 1_555
H39_4 C64_4 1_555 1_555
N4_4 C64_4 1_555 1_555
O30_2 C55_4 1_555 1_555
O31 C18_4 1_555 1_555
O32 C18_4 1_555 1_555
O35_2 C55_4 1_555 1_555
C11_4 N2_4 1_555 1_555
N2_4 C34_4 1_555 1_555
C18_4 C26_4 1_555 1_555
C26_4 C37_2 1_555 1_555
C32_4 H12_4 1_555 1_555
C34_4 C32_4 1_555 1_555
C35_4 C19_4 1_555 1_555
C37_2 H16_2 1_555 1_555
C38_4 N2_4 1_555 1_555
C41_4 C44_4 1_555 1_555
C43_4 C34_4 1_555 1_555
H19_4 C43_4 1_555 1_555
C44_4 H20_4 1_555 1_555
C45_4 C26_4 1_555 1_555
H21_4 C45_4 1_555 1_555
C46_4 C37_2 1_555 1_555
H22_4 C46_4 1_555 1_555
C47_4 C19_4 1_555 1_555
H23_4 C47_4 1_555 1_555
C48_4 C11_4 1_555 1_555
H24_4 C48_4 1_555 1_555
C52_4 C41_4 1_555 1_555
H28_4 C52_4 1_555 1_555
C55_4 C41_4 1_555 1_555
C57_4 C11_4 1_555 1_555
H32_4 C57_4 1_555 1_555
C60_4 C38_4 1_555 1_555
H35_4 C60_4 1_555 1_555
C32_4 C35_4 1_555 1_555
C38_4 C46_4 1_555 1_555
C43_4 C47_4 1_555 1_555
C44_4 C57_4 1_555 1_555
C45_4 C60_4 1_555 1_555
C48_4 C52_4 1_555 1_555
C37_3 H16_3 1_555 1_555
C37_4 H16_4 1_555 1_555

#END
