
###############################################################################
#
# This file contains modified crystal structure data generated from the
# MOF subset of the Cambridge Structural Database (CSD) v543 
# hosted by the Cambridge Crystallographic Data Centre (CCDC).
#
# This work is licensed under the Creative Commons
# Attribution-NonCommercial-ShareAlike 4.0 International License.
# To view a copy of this license, visit
# http://creativecommons.org/licenses/by-nc-sa/4.0/
# or send a letter to
# Creative Commons, PO Box 1866, Mountain View, CA 94042, USA.
#
# CIF created using the CSD Python API on 29 September 2022
# The structure has been converted into the P1 space group
# The structure has a 3D framework
# The original CSD entry HOQMIL04 is in the monoclinic crystal system
# The framework has been calculated to contain at least 10.0% void space
# The void calculation uses a probe of radius 1.32A, grid spacing 0.4
# The framework is charged, counterions have been retained in the structure
#
###############################################################################

data_HOQMIL04
_chemical_formula_moiety         '(C104 H64 Mg8 N8 O36)n'
_symmetry_cell_setting           triclinic
_symmetry_space_group_name_H-M   'P 1'
_symmetry_Int_Tables_number      1
_space_group_name_Hall           'P 1'
loop_
_symmetry_equiv_pos_site_id
_symmetry_equiv_pos_as_xyz
1 x,y,z
_cell_length_a                   18.2716(9)
_cell_length_b                   17.2585(9)
_cell_length_c                   13.5539(7)
_cell_angle_alpha                90
_cell_angle_beta                 129.6663(13)
_cell_angle_gamma                90
_cell_volume                     3290.09
loop_
_atom_site_label
_atom_site_type_symbol
_atom_site_fract_x
_atom_site_fract_y
_atom_site_fract_z
Mg1 Mg -0.0000 0.19468(5) 0.2500
Mg2 Mg 0.2500 0.2500 0.5000
O1 O 0.08838(10) 0.11234(8) 0.38025(13)
O2 O 0.23028(10) 0.14904(8) 0.56215(13)
O5 O 0.09990(9) 0.27957(8) 0.38916(13)
N1 N 0.07426(11) 0.34015(9) 0.42264(16)
C1 C 0.16385(14) 0.02988(11) 0.55918(19)
C6 C 0.24005(16) 0.01378(14) 0.6864(3)
C7 C 0.16081(13) 0.10307(10) 0.49498(18)
C9 C 0.08656(15) 0.41225(12) 0.3980(2)
C10 C 0.05691(16) 0.47584(12) 0.4258(2)
C11 C 0.01583(13) 0.46624(11) 0.48382(19)
C12 C 0.00752(17) 0.39056(13) 0.5120(3)
C13 C 0.03755(17) 0.32831(12) 0.4813(3)
H4 H 0.2933 0.0476 0.7337
H5 H 0.1160 0.4195 0.3609
H6 H 0.0644 0.5264 0.4056
H8 H 0.0322 0.2771 0.5018
H11 H 0.0190 0.6184 0.4473
Mg5 Mg 0.0000 0.80532(5) 0.7500
O11 O 0.26972(10) 0.35096(8) 0.43785(13)
O12 O 0.22931(10) 0.18594(8) 0.35542(13)
O13 O 0.27069(10) 0.31406(8) 0.64458(13)
O15 O 0.07484(10) 0.19956(8) 0.18586(13)
O17 O 0.40010(9) 0.22043(8) 0.61084(13)
Mg9 Mg 0.2500 0.7500 -0.0000
O3 O 0.22931(10) 0.81406(8) 0.85542(13)
O4 O 0.07484(10) 0.80044(8) 0.68586(13)
C2 C 0.08676(15) 0.97941(13) 0.4908(2)
C3 C 0.08496(15) 0.91457(13) 0.5503(2)
C4 C 0.16068(14) 0.89879(11) 0.67796(19)
C5 C 0.23864(16) 0.94807(14) 0.7451(2)
C8 C 0.15528(13) 0.83211(10) 0.74556(18)
H1 H 0.0350 0.9893 0.4030
H2 H 0.0315 0.8809 0.5032
H3 H 0.2916 0.9369 0.8318
Mg9_2 Mg 0.2500 0.7500 1.0000
Mg1_2 Mg 1.0000 0.19468(5) 0.2500
H7 H 0.9810 0.3816 0.5527
O6 O 0.90010(9) 0.72043(8) 0.61084(13)
N2 N 0.92574(11) 0.65985(9) 0.57736(16)
C14 C 0.91344(15) 0.58775(12) 0.6020(2)
C15 C 0.94309(16) 0.52416(12) 0.5742(2)
C16 C 0.98417(13) 0.53376(11) 0.51618(19)
C17 C 0.99248(17) 0.60944(13) 0.4880(3)
C18 C 0.96245(17) 0.67169(12) 0.5187(3)
H9 H 0.8840 0.5805 0.6391
H10 H 0.9356 0.4736 0.5944
H12 H 0.9678 0.7229 0.4982
O7 O 0.91162(10) 0.11234(8) 0.11975(13)
C25 C 0.83919(13) 0.10307(10) 0.00502(18)
Mg5_2 Mg 1.0000 0.80532(5) 0.7500
Mg6 Mg 0.7500 0.2500 0.0000
Mg8 Mg 0.7500 0.7500 0.5000
O14 O 0.92516(10) 0.19956(8) 0.31414(13)
O16 O 0.90010(9) 0.27957(8) 0.11084(13)
O8 O 0.76972(10) 0.14904(8) 0.93785(13)
C19 C 0.83615(14) 0.02988(11) 0.94082(19)
C24 C 0.75995(16) 0.01378(14) 0.8136(3)
H16 H 0.7067 0.0476 0.7663
Mg6_2 Mg 0.7500 0.2500 1.0000
C20 C 0.91324(15) 0.97941(13) 0.0092(2)
H13 H 0.9650 0.9893 0.0970
O9 O 0.77069(10) 0.81406(8) 0.64458(13)
O10 O 0.92516(10) 0.80044(8) 0.81414(13)
C21 C 0.91504(15) 0.91457(13) 0.9497(2)
C22 C 0.83932(14) 0.89879(11) 0.82204(19)
C23 C 0.76136(16) 0.94807(14) 0.7549(2)
C26 C 0.84472(13) 0.83211(10) 0.75444(18)
H14 H 0.9685 0.8809 0.9968
H15 H 0.7084 0.9369 0.6682
C17_2 C 0.00752(17) 0.60944(13) 0.0120(3)
H12_2 H 0.0322 0.7229 0.0018
H7_2 H 0.0190 0.3816 0.9473
O6_2 O 0.09990(9) 0.72043(8) 0.88916(13)
N2_2 N 0.07426(11) 0.65985(9) 0.92264(16)
C14_2 C 0.08656(15) 0.58775(12) 0.8980(2)
C15_2 C 0.05691(16) 0.52416(12) 0.9258(2)
C16_2 C 0.01583(13) 0.53376(11) 0.98382(19)
C18_2 C 0.03755(17) 0.67169(12) 0.9813(3)
H9_2 H 0.1160 0.5805 0.8609
H10_2 H 0.0644 0.4736 0.9056
N1_2 N 0.92574(11) 0.34015(9) 0.07736(16)
C9_2 C 0.91344(15) 0.41225(12) 0.1020(2)
C10_2 C 0.94309(16) 0.47584(12) 0.0742(2)
C11_2 C 0.98417(13) 0.46624(11) 0.01618(19)
C13_2 C 0.96245(17) 0.32831(12) 0.0187(3)
H5_2 H 0.8840 0.4195 0.1391
H6_2 H 0.9356 0.5264 0.0944
H11_2 H 0.9810 0.6184 0.0527
O11_2 O 0.73028(10) 0.35096(8) 0.06215(13)
O12_2 O 0.77069(10) 0.18594(8) 0.14458(13)
C12_2 C 0.99248(17) 0.39056(13) 0.9880(3)
H8_2 H 0.9678 0.2771 0.9982
O13_2 O 0.72931(10) 0.31406(8) 0.85542(13)
O17_2 O 0.59990(9) 0.22043(8) 0.88916(13)
H6_3 H 0.5644 0.0264 0.4056
N2_3 N 0.42574(11) 0.15985(9) 0.57736(16)
C14_3 C 0.41344(15) 0.08775(12) 0.6020(2)
C15_3 C 0.44309(16) 0.02416(12) 0.5742(2)
C16_3 C 0.48417(13) 0.03376(11) 0.51618(19)
C17_3 C 0.49248(17) 0.10944(13) 0.4880(3)
C18_3 C 0.46245(17) 0.17169(12) 0.5187(3)
H9_3 H 0.3840 0.0805 0.6391
H11_3 H 0.5190 0.1184 0.4473
H12_3 H 0.4678 0.2229 0.4982
Mg5_3 Mg 0.5000 0.30532(5) 0.7500
Mg1_3 Mg 0.5000 0.69468(5) 0.2500
O1_2 O 0.58838(10) 0.61234(8) 0.38025(13)
O2_2 O 0.73028(10) 0.64904(8) 0.56215(13)
O4_2 O 0.57484(10) 0.30044(8) 0.68586(13)
O5_2 O 0.59990(9) 0.77957(8) 0.38916(13)
N1_3 N 0.57426(11) 0.84015(9) 0.42264(16)
C1_2 C 0.66385(14) 0.52988(11) 0.55918(19)
C2_2 C 0.58676(15) 0.47941(13) 0.4908(2)
C3_2 C 0.58496(15) 0.41457(13) 0.5503(2)
C4_2 C 0.66068(14) 0.39879(11) 0.67796(19)
C5_2 C 0.73864(16) 0.44807(14) 0.7451(2)
C6_2 C 0.74005(16) 0.51378(14) 0.6864(3)
C7_2 C 0.66081(13) 0.60307(10) 0.49498(18)
C8_2 C 0.65528(13) 0.33211(10) 0.74556(18)
C9_3 C 0.58656(15) 0.91225(12) 0.3980(2)
C10_3 C 0.55691(16) 0.97584(12) 0.4258(2)
C11_3 C 0.51583(13) 0.96624(11) 0.48382(19)
C12_3 C 0.50752(17) 0.89056(13) 0.5120(3)
C13_3 C 0.53755(17) 0.82831(12) 0.4813(3)
H1_2 H 0.5350 0.4893 0.4030
H2_2 H 0.5315 0.3809 0.5032
H3_2 H 0.7916 0.4369 0.8318
H4_2 H 0.7933 0.5476 0.7337
H5_3 H 0.6160 0.9195 0.3609
H7_3 H 0.4810 0.8816 0.5527
H8_3 H 0.5322 0.7771 0.5018
H10_3 H 0.4356 0.9736 0.5944
O7_2 O 0.41162(10) 0.61234(8) 0.11975(13)
C20_2 C 0.41324(15) 0.47941(13) 0.0092(2)
C25_2 C 0.33919(13) 0.60307(10) 0.00502(18)
H13_2 H 0.4650 0.4893 0.0970
O11_3 O 0.76972(10) 0.85096(8) 0.43785(13)
O12_3 O 0.72931(10) 0.68594(8) 0.35542(13)
O14_2 O 0.42516(10) 0.69956(8) 0.31414(13)
O15_2 O 0.57484(10) 0.69956(8) 0.18586(13)
O16_2 O 0.40010(9) 0.77957(8) 0.11084(13)
O8_2 O 0.26972(10) 0.64904(8) 0.93785(13)
O10_2 O 0.42516(10) 0.30044(8) 0.81414(13)
C19_2 C 0.33615(14) 0.52988(11) 0.94082(19)
C21_2 C 0.41504(15) 0.41457(13) 0.9497(2)
C22_2 C 0.33932(14) 0.39879(11) 0.82204(19)
C23_2 C 0.26136(16) 0.44807(14) 0.7549(2)
C24_2 C 0.25995(16) 0.51378(14) 0.8136(3)
C26_2 C 0.34472(13) 0.33211(10) 0.75444(18)
H14_2 H 0.4685 0.3809 0.9968
H15_2 H 0.2084 0.4369 0.6682
H16_2 H 0.2067 0.5476 0.7663
H6_4 H 0.4356 0.0264 0.0944
C17_4 C 0.50752(17) 0.10944(13) 0.0120(3)
H11_4 H 0.4810 0.1184 0.0527
H12_4 H 0.5322 0.2229 0.0018
N2_4 N 0.57426(11) 0.15985(9) 0.92264(16)
C14_4 C 0.58656(15) 0.08775(12) 0.8980(2)
C15_4 C 0.55691(16) 0.02416(12) 0.9258(2)
C16_4 C 0.51583(13) 0.03376(11) 0.98382(19)
C18_4 C 0.53755(17) 0.17169(12) 0.9813(3)
H9_4 H 0.6160 0.0805 0.8609
N1_4 N 0.42574(11) 0.84015(9) 0.07736(16)
C9_4 C 0.41344(15) 0.91225(12) 0.1020(2)
C10_4 C 0.44309(16) 0.97584(12) 0.0742(2)
C11_4 C 0.48417(13) 0.96624(11) 0.01618(19)
C13_4 C 0.46245(17) 0.82831(12) 0.0187(3)
H5_4 H 0.3840 0.9195 0.1391
O11_4 O 0.23028(10) 0.85096(8) 0.06215(13)
O12_4 O 0.27069(10) 0.68594(8) 0.14458(13)
C12_4 C 0.49248(17) 0.89056(13) 0.9880(3)
H7_4 H 0.5190 0.8816 0.9473
H8_4 H 0.4678 0.7771 0.9982
H10_4 H 0.5644 0.9736 0.9056
C21_3 C 0.08496(15) 0.08543(13) 0.0503(2)
C22_3 C 0.16068(14) 0.10121(11) 0.17796(19)
C23_3 C 0.23864(16) 0.05193(14) 0.2451(2)
C26_3 C 0.15528(13) 0.16789(10) 0.24556(18)
H14_3 H 0.0315 0.1191 0.0032
H15_3 H 0.2916 0.0631 0.3318
C20_3 C 0.08676(15) 0.02059(13) 0.9908(2)
H13_3 H 0.0350 0.0107 0.9030
C19_3 C 0.16385(14) 0.97012(11) 0.05918(19)
C24_3 C 0.24005(16) 0.98622(14) 0.1864(3)
H16_3 H 0.2933 0.9524 0.2337
O7_3 O 0.08838(10) 0.88766(8) 0.88025(13)
C25_3 C 0.16081(13) 0.89693(10) 0.99498(18)
C2_3 C 0.91324(15) 0.02059(13) 0.5092(2)
C3_3 C 0.91504(15) 0.08543(13) 0.4497(2)
C4_3 C 0.83932(14) 0.10121(11) 0.32204(19)
C5_3 C 0.76136(16) 0.05193(14) 0.2549(2)
C8_3 C 0.84472(13) 0.16789(10) 0.25444(18)
H1_3 H 0.9650 0.0107 0.5970
H2_3 H 0.9685 0.1191 0.4968
H3_3 H 0.7084 0.0631 0.1682
O1_3 O 0.91162(10) 0.88766(8) 0.61975(13)
C1_3 C 0.83615(14) 0.97012(11) 0.44082(19)
C6_3 C 0.75995(16) 0.98622(14) 0.3136(3)
C7_3 C 0.83919(13) 0.89693(10) 0.50502(18)
H4_3 H 0.7067 0.9524 0.2663
C19_4 C 0.66385(14) 0.47012(11) 0.05918(19)
C21_4 C 0.58496(15) 0.58543(13) 0.0503(2)
C22_4 C 0.66068(14) 0.60121(11) 0.17796(19)
C23_4 C 0.73864(16) 0.55193(14) 0.2451(2)
C24_4 C 0.74005(16) 0.48622(14) 0.1864(3)
C26_4 C 0.65528(13) 0.66789(10) 0.24556(18)
H14_4 H 0.5315 0.6191 0.0032
H15_4 H 0.7916 0.5631 0.3318
H16_4 H 0.7933 0.4524 0.2337
O1_4 O 0.41162(10) 0.38766(8) 0.61975(13)
C1_4 C 0.33615(14) 0.47012(11) 0.44082(19)
C2_4 C 0.41324(15) 0.52059(13) 0.5092(2)
C3_4 C 0.41504(15) 0.58543(13) 0.4497(2)
C4_4 C 0.33932(14) 0.60121(11) 0.32204(19)
C5_4 C 0.26136(16) 0.55193(14) 0.2549(2)
C6_4 C 0.25995(16) 0.48622(14) 0.3136(3)
C7_4 C 0.33919(13) 0.39693(10) 0.50502(18)
C8_4 C 0.34472(13) 0.66789(10) 0.25444(18)
H1_4 H 0.4650 0.5107 0.5970
H2_4 H 0.4685 0.6191 0.4968
H3_4 H 0.2084 0.5631 0.1682
H4_4 H 0.2067 0.4524 0.2663
O7_4 O 0.58838(10) 0.38766(8) 0.88025(13)
C20_4 C 0.58676(15) 0.52059(13) 0.9908(2)
C25_4 C 0.66081(13) 0.39693(10) 0.99498(18)
H13_4 H 0.5350 0.5107 0.9030
loop_
_geom_bond_atom_site_label_1
_geom_bond_atom_site_label_2
_geom_bond_site_symmetry_1
_geom_bond_site_symmetry_2
Mg1 O1 1_555 1_555
Mg2 O2 1_555 1_555
O1 C7 1_555 1_555
O2 C7 1_555 1_555
O5 Mg1 1_555 1_555
N1 O5 1_555 1_555
C6 C1 1_555 1_555
C7 C1 1_555 1_555
C9 N1 1_555 1_555
C10 C9 1_555 1_555
C11 C10 1_555 1_555
C12 C11 1_555 1_555
C13 N1 1_555 1_555
H4 C6 1_555 1_555
H5 C9 1_555 1_555
H6 C10 1_555 1_555
H8 C13 1_555 1_555
O11 Mg2 1_555 1_555
O12 Mg2 1_555 1_555
O13 Mg2 1_555 1_555
O15 Mg1 1_555 1_555
O17 Mg2 1_555 1_555
Mg2 O5 1_555 1_555
C12 C13 1_555 1_555
O3 C8 1_555 1_555
O4 C8 1_555 1_555
C2 C3 1_555 1_555
C3 C4 1_555 1_555
C4 C5 1_555 1_555
C8 C4 1_555 1_555
H1 C2 1_555 1_555
H2 C3 1_555 1_555
H3 C5 1_555 1_555
Mg5 O4 1_555 1_555
Mg9_2 O3 1_555 1_555
O6 N2 1_555 1_555
N2 C14 1_555 1_555
C14 C15 1_555 1_555
C15 C16 1_555 1_555
C17 C16 1_555 1_555
C18 N2 1_555 1_555
H9 C14 1_555 1_555
H10 C15 1_555 1_555
H12 C18 1_555 1_555
O7 Mg1_2 1_555 1_555
C25 O7 1_555 1_555
Mg5_2 O6 1_555 1_555
Mg8 O6 1_555 1_555
O14 Mg1_2 1_555 1_555
O16 Mg1_2 1_555 1_555
C17 C18 1_555 1_555
Mg6 O16 1_555 1_555
C24 C19 1_555 1_555
H16 C24 1_555 1_555
Mg6_2 O8 1_555 1_555
H13 C20 1_555 1_555
O9 C26 1_555 1_555
O10 C26 1_555 1_555
C21 C22 1_555 1_555
C22 C23 1_555 1_555
C26 C22 1_555 1_555
H14 C21 1_555 1_555
H15 C23 1_555 1_555
Mg5_2 O10 1_555 1_555
Mg8 O9 1_555 1_555
O6_2 N2_2 1_555 1_555
N2_2 C14_2 1_555 1_555
C14_2 C15_2 1_555 1_555
C15_2 C16_2 1_555 1_555
C18_2 N2_2 1_555 1_555
H9_2 C14_2 1_555 1_555
H10_2 C15_2 1_555 1_555
Mg5 O6_2 1_555 1_555
Mg9_2 O6_2 1_555 1_555
N1_2 O16 1_555 1_555
C9_2 N1_2 1_555 1_555
C10_2 C9_2 1_555 1_555
C11_2 C10_2 1_555 1_555
C13_2 N1_2 1_555 1_555
H5_2 C9_2 1_555 1_555
H6_2 C10_2 1_555 1_555
O11_2 Mg6 1_555 1_555
O12_2 Mg6 1_555 1_555
O13_2 Mg6_2 1_555 1_555
O17_2 Mg6_2 1_555 1_555
O17 N2_3 1_555 1_555
N2_3 C14_3 1_555 1_555
C14_3 C15_3 1_555 1_555
C15_3 C16_3 1_555 1_555
C17_3 C16_3 1_555 1_555
C18_3 N2_3 1_555 1_555
H9_3 C14_3 1_555 1_555
H11_3 C17_3 1_555 1_555
H12_3 C18_3 1_555 1_555
Mg5_3 O17 1_555 1_555
C17_3 C18_3 1_555 1_555
Mg1_3 O1_2 1_555 1_555
Mg8 O2_2 1_555 1_555
O1_2 C7_2 1_555 1_555
O2_2 C7_2 1_555 1_555
O13_2 C8_2 1_555 1_555
O4_2 C8_2 1_555 1_555
O5_2 Mg1_3 1_555 1_555
N1_3 O5_2 1_555 1_555
C1_2 C2_2 1_555 1_555
C2_2 C3_2 1_555 1_555
C3_2 C4_2 1_555 1_555
C4_2 C5_2 1_555 1_555
C5_2 C6_2 1_555 1_555
C6_2 C1_2 1_555 1_555
C7_2 C1_2 1_555 1_555
C8_2 C4_2 1_555 1_555
C9_3 N1_3 1_555 1_555
C10_3 C9_3 1_555 1_555
C11_3 C10_3 1_555 1_555
C12_3 C11_3 1_555 1_555
C13_3 N1_3 1_555 1_555
H1_2 C2_2 1_555 1_555
H2_2 C3_2 1_555 1_555
H3_2 C5_2 1_555 1_555
H4_2 C6_2 1_555 1_555
H5_3 C9_3 1_555 1_555
H7_3 C12_3 1_555 1_555
H8_3 C13_3 1_555 1_555
O7_2 Mg1_3 1_555 1_555
C25_2 O7_2 1_555 1_555
H13_2 C20_2 1_555 1_555
Mg5_3 O4_2 1_555 1_555
O11_3 Mg8 1_555 1_555
O12_3 Mg8 1_555 1_555
O14_2 Mg1_3 1_555 1_555
O15_2 Mg1_3 1_555 1_555
O16_2 Mg1_3 1_555 1_555
Mg8 O5_2 1_555 1_555
C12_3 C13_3 1_555 1_555
Mg9 O16_2 1_555 1_555
O13 C26_2 1_555 1_555
O10_2 C26_2 1_555 1_555
C21_2 C22_2 1_555 1_555
C22_2 C23_2 1_555 1_555
C23_2 C24_2 1_555 1_555
C24_2 C19_2 1_555 1_555
C26_2 C22_2 1_555 1_555
H14_2 C21_2 1_555 1_555
H15_2 C23_2 1_555 1_555
H16_2 C24_2 1_555 1_555
Mg5_3 O10_2 1_555 1_555
Mg9_2 O8_2 1_555 1_555
H11_4 C17_4 1_555 1_555
O17_2 N2_4 1_555 1_555
N2_4 C14_4 1_555 1_555
C14_4 C15_4 1_555 1_555
C15_4 C16_4 1_555 1_555
C18_4 N2_4 1_555 1_555
H9_4 C14_4 1_555 1_555
Mg5_3 O17_2 1_555 1_555
N1_4 O16_2 1_555 1_555
C9_4 N1_4 1_555 1_555
C10_4 C9_4 1_555 1_555
C11_4 C10_4 1_555 1_555
C13_4 N1_4 1_555 1_555
H5_4 C9_4 1_555 1_555
O11_4 Mg9 1_555 1_555
O12_4 Mg9 1_555 1_555
H7_4 C12_4 1_555 1_555
O12 C26_3 1_555 1_555
O15 C26_3 1_555 1_555
C21_3 C22_3 1_555 1_555
C22_3 C23_3 1_555 1_555
C26_3 C22_3 1_555 1_555
H14_3 C21_3 1_555 1_555
H15_3 C23_3 1_555 1_555
H13_3 C20_3 1_555 1_555
C24_3 C19_3 1_555 1_555
H16_3 C24_3 1_555 1_555
O7_3 Mg5 1_555 1_555
C25_3 O7_3 1_555 1_555
O12_2 C8_3 1_555 1_555
O14 C8_3 1_555 1_555
C2_3 C3_3 1_555 1_555
C3_3 C4_3 1_555 1_555
C4_3 C5_3 1_555 1_555
C8_3 C4_3 1_555 1_555
H1_3 C2_3 1_555 1_555
H2_3 C3_3 1_555 1_555
H3_3 C5_3 1_555 1_555
Mg5_2 O1_3 1_555 1_555
O1_3 C7_3 1_555 1_555
O11_3 C7_3 1_555 1_555
C6_3 C1_3 1_555 1_555
C7_3 C1_3 1_555 1_555
H4_3 C6_3 1_555 1_555
O12_3 C26_4 1_555 1_555
O15_2 C26_4 1_555 1_555
C21_4 C22_4 1_555 1_555
C22_4 C23_4 1_555 1_555
C23_4 C24_4 1_555 1_555
C24_4 C19_4 1_555 1_555
C26_4 C22_4 1_555 1_555
H14_4 C21_4 1_555 1_555
H15_4 C23_4 1_555 1_555
H16_4 C24_4 1_555 1_555
Mg5_3 O1_4 1_555 1_555
O1_4 C7_4 1_555 1_555
O11 C7_4 1_555 1_555
O12_4 C8_4 1_555 1_555
O14_2 C8_4 1_555 1_555
C1_4 C2_4 1_555 1_555
C2_4 C3_4 1_555 1_555
C3_4 C4_4 1_555 1_555
C4_4 C5_4 1_555 1_555
C5_4 C6_4 1_555 1_555
C6_4 C1_4 1_555 1_555
C7_4 C1_4 1_555 1_555
C8_4 C4_4 1_555 1_555
H1_4 C2_4 1_555 1_555
H2_4 C3_4 1_555 1_555
H3_4 C5_4 1_555 1_555
H4_4 C6_4 1_555 1_555
O7_4 Mg5_3 1_555 1_555
C25_4 O7_4 1_555 1_555
H13_4 C20_4 1_555 1_555

#END
