
###############################################################################
#
# This file contains modified crystal structure data generated from the
# MOF subset of the Cambridge Structural Database (CSD) v543 
# hosted by the Cambridge Crystallographic Data Centre (CCDC).
#
# This work is licensed under the Creative Commons
# Attribution-NonCommercial-ShareAlike 4.0 International License.
# To view a copy of this license, visit
# http://creativecommons.org/licenses/by-nc-sa/4.0/
# or send a letter to
# Creative Commons, PO Box 1866, Mountain View, CA 94042, USA.
#
# CIF created using the CSD Python API on 29 September 2022
# The structure has been converted into the P1 space group
# The structure has a 3D framework
# The original CSD entry HOQMIL03 is in the monoclinic crystal system
# The framework has been calculated to contain at least 10.0% void space
# The void calculation uses a probe of radius 1.32A, grid spacing 0.4
#
###############################################################################

data_HOQMIL03
_chemical_formula_moiety         '(C104 H64 Mg8 N8 O36)n'
_symmetry_cell_setting           triclinic
_symmetry_space_group_name_H-M   'P 1'
_symmetry_Int_Tables_number      1
_space_group_name_Hall           'P 1'
loop_
_symmetry_equiv_pos_site_id
_symmetry_equiv_pos_as_xyz
1 x,y,z
_cell_length_a                   18.1190(16)
_cell_length_b                   17.2294(15)
_cell_length_c                   13.4780(12)
_cell_angle_alpha                90
_cell_angle_beta                 129.3800(10)
_cell_angle_gamma                90
_cell_volume                     3252.25
loop_
_atom_site_label
_atom_site_type_symbol
_atom_site_fract_x
_atom_site_fract_y
_atom_site_fract_z
Mg1 Mg 0.2500 0.2500 0.5000
Mg2 Mg -0.0000 0.19470(8) 0.2500
O1 O 0.23013(15) 0.18662(13) 0.3550(2)
O2 O 0.07555(15) 0.20013(13) 0.1862(2)
O5 O 0.09988(15) 0.27906(13) 0.3897(2)
N1 N 0.07407(18) 0.33972(15) 0.4228(3)
C1 C 0.1617(2) 0.10198(19) 0.1772(3)
C2 C 0.2396(3) 0.0523(2) 0.2440(4)
H1 H 0.294(4) 0.065(3) 0.335(6)
C6 C 0.0861(3) 0.0858(2) 0.0505(4)
H4 H 0.041(3) 0.123(2) 0.013(4)
C7 C 0.1564(2) 0.16822(18) 0.2451(3)
C9 C 0.0862(2) 0.4113(2) 0.3977(3)
H5 H 0.111(3) 0.417(2) 0.365(4)
C10 C 0.0569(3) 0.4749(2) 0.4254(4)
H6 H 0.066(3) 0.521(3) 0.404(4)
C11 C 0.0154(2) 0.4658(2) 0.4833(3)
C12 C 0.0073(3) 0.3909(2) 0.5121(4)
C13 C 0.0368(3) 0.3286(2) 0.4815(4)
H8 H 0.029(3) 0.280(3) 0.489(4)
H11 H 0.025(3) 0.622(3) 0.455(5)
Mg9 Mg -0.0000 0.80530(8) 0.7500
O11 O 0.26987(15) 0.31338(13) 0.6450(2)
O12 O 0.26948(15) 0.35104(13) 0.4381(2)
O13 O 0.23052(15) 0.14896(13) 0.5619(2)
O15 O 0.08837(16) 0.11192(13) 0.3800(2)
O17 O 0.40012(15) 0.22094(13) 0.6103(2)
C5 C 0.0878(3) 0.0213(2) 0.9915(4)
H3 H 0.038(3) 0.008(2) 0.915(5)
O3 O 0.23052(15) 0.85104(13) 0.0619(2)
C3 C 0.2407(3) 0.9871(2) 0.1856(4)
H2 H 0.291(4) 0.953(3) 0.227(5)
C4 C 0.1646(2) 0.97055(19) 0.0586(3)
Mg6 Mg 0.2500 0.7500 0.0000
O4 O 0.08837(16) 0.88808(13) 0.8800(2)
C8 C 0.1610(2) 0.89730(18) 0.9947(3)
Mg6_2 Mg 0.2500 0.7500 1.0000
Mg2_2 Mg 1.0000 0.19470(8) 0.2500
H7 H 0.975(3) 0.378(3) 0.545(5)
O6 O 0.90012(15) 0.72094(13) 0.6103(2)
N2 N 0.92593(18) 0.66028(15) 0.5772(3)
C14 C 0.9138(2) 0.5887(2) 0.6023(3)
H9 H 0.889(3) 0.583(2) 0.635(4)
C15 C 0.9431(3) 0.5251(2) 0.5746(4)
H10 H 0.934(3) 0.479(3) 0.596(4)
C16 C 0.9846(2) 0.5342(2) 0.5167(3)
C17 C 0.9927(3) 0.6091(2) 0.4879(4)
C18 C 0.9632(3) 0.6714(2) 0.5185(4)
H12 H 0.971(3) 0.720(3) 0.511(4)
O7 O 0.76987(15) 0.18662(13) 0.1450(2)
O8 O 0.92445(15) 0.20013(13) 0.3138(2)
C19 C 0.8383(2) 0.10198(19) 0.3228(3)
C20 C 0.7604(3) 0.0523(2) 0.2560(4)
H13 H 0.706(4) 0.065(3) 0.165(6)
C23 C 0.9122(3) 0.0213(2) 0.5085(4)
H15 H 0.962(3) 0.008(2) 0.585(5)
C24 C 0.9139(3) 0.0858(2) 0.4495(4)
H16 H 0.959(3) 0.123(2) 0.487(4)
C25 C 0.8436(2) 0.16822(18) 0.2549(3)
Mg3 Mg 0.7500 0.2500 0.0000
Mg5 Mg 0.7500 0.7500 0.5000
Mg9_2 Mg 1.0000 0.80530(8) 0.7500
O14 O 0.91163(16) 0.11192(13) 0.1200(2)
O16 O 0.90012(15) 0.27906(13) 0.1103(2)
Mg3_2 Mg 0.7500 0.2500 1.0000
O9 O 0.76948(15) 0.85104(13) 0.4381(2)
O10 O 0.91163(16) 0.88808(13) 0.6200(2)
C21 C 0.7593(3) 0.9871(2) 0.3144(4)
H14 H 0.709(4) 0.953(3) 0.273(5)
C22 C 0.8354(2) 0.97055(19) 0.4414(3)
C26 C 0.8390(2) 0.89730(18) 0.5053(3)
C17_2 C 0.0073(3) 0.6091(2) 0.0121(4)
H7_2 H 0.025(3) 0.378(3) 0.955(5)
O6_2 O 0.09988(15) 0.72094(13) 0.8897(2)
N2_2 N 0.07407(18) 0.66028(15) 0.9228(3)
C14_2 C 0.0862(2) 0.5887(2) 0.8977(3)
H9_2 H 0.111(3) 0.583(2) 0.865(4)
C15_2 C 0.0569(3) 0.5251(2) 0.9254(4)
H10_2 H 0.066(3) 0.479(3) 0.904(4)
C16_2 C 0.0154(2) 0.5342(2) 0.9833(3)
C18_2 C 0.0368(3) 0.6714(2) 0.9815(4)
H12_2 H 0.029(3) 0.720(3) 0.989(4)
N1_2 N 0.92593(18) 0.33972(15) 0.0772(3)
C9_2 C 0.9138(2) 0.4113(2) 0.1023(3)
H5_2 H 0.889(3) 0.417(2) 0.135(4)
C10_2 C 0.9431(3) 0.4749(2) 0.0746(4)
H6_2 H 0.934(3) 0.521(3) 0.096(4)
C11_2 C 0.9846(2) 0.4658(2) 0.0167(3)
C13_2 C 0.9632(3) 0.3286(2) 0.0185(4)
H8_2 H 0.971(3) 0.280(3) 0.011(4)
H11_2 H 0.975(3) 0.622(3) 0.045(5)
O12_2 O 0.73052(15) 0.35104(13) 0.0619(2)
C12_2 C 0.9927(3) 0.3909(2) 0.9879(4)
O11_2 O 0.73013(15) 0.31338(13) 0.8550(2)
O13_2 O 0.76948(15) 0.14896(13) 0.9381(2)
O17_2 O 0.59988(15) 0.22094(13) 0.8897(2)
H6_3 H 0.566(3) 0.021(3) 0.404(4)
N2_3 N 0.42593(18) 0.16028(15) 0.5772(3)
C14_3 C 0.4138(2) 0.0887(2) 0.6023(3)
H9_3 H 0.389(3) 0.083(2) 0.635(4)
C15_3 C 0.4431(3) 0.0251(2) 0.5746(4)
C16_3 C 0.4846(2) 0.0342(2) 0.5167(3)
C17_3 C 0.4927(3) 0.1091(2) 0.4879(4)
H11_3 H 0.525(3) 0.122(3) 0.455(5)
C18_3 C 0.4632(3) 0.1714(2) 0.5185(4)
H12_3 H 0.471(3) 0.220(3) 0.511(4)
Mg9_3 Mg 0.5000 0.30530(8) 0.7500
Mg2_3 Mg 0.5000 0.69470(8) 0.2500
O1_2 O 0.73013(15) 0.68662(13) 0.3550(2)
O2_2 O 0.57555(15) 0.70013(13) 0.1862(2)
O5_2 O 0.59988(15) 0.77906(13) 0.3897(2)
N1_3 N 0.57407(18) 0.83972(15) 0.4228(3)
C1_2 C 0.6617(2) 0.60198(19) 0.1772(3)
C2_2 C 0.7396(3) 0.5523(2) 0.2440(4)
H1_2 H 0.794(4) 0.565(3) 0.335(6)
C3_2 C 0.7407(3) 0.4871(2) 0.1856(4)
H2_2 H 0.791(4) 0.453(3) 0.227(5)
C4_2 C 0.6646(2) 0.47055(19) 0.0586(3)
C6_2 C 0.5861(3) 0.5858(2) 0.0505(4)
H4_2 H 0.541(3) 0.623(2) 0.013(4)
C7_2 C 0.6564(2) 0.66822(18) 0.2451(3)
C9_3 C 0.5862(2) 0.9113(2) 0.3977(3)
H5_3 H 0.611(3) 0.917(2) 0.365(4)
C10_3 C 0.5569(3) 0.9749(2) 0.4254(4)
C11_3 C 0.5154(2) 0.9658(2) 0.4833(3)
C12_3 C 0.5073(3) 0.8909(2) 0.5121(4)
H7_3 H 0.475(3) 0.878(3) 0.545(5)
C13_3 C 0.5368(3) 0.8286(2) 0.4815(4)
H8_3 H 0.529(3) 0.780(3) 0.489(4)
H10_3 H 0.434(3) 0.979(3) 0.596(4)
O7_2 O 0.26987(15) 0.68662(13) 0.1450(2)
O8_2 O 0.42445(15) 0.70013(13) 0.3138(2)
O10_2 O 0.41163(16) 0.38808(13) 0.6200(2)
C19_2 C 0.3383(2) 0.60198(19) 0.3228(3)
C20_2 C 0.2604(3) 0.5523(2) 0.2560(4)
H13_2 H 0.206(4) 0.565(3) 0.165(6)
C21_2 C 0.2593(3) 0.4871(2) 0.3144(4)
H14_2 H 0.209(4) 0.453(3) 0.273(5)
C22_2 C 0.3354(2) 0.47055(19) 0.4414(3)
C23_2 C 0.4122(3) 0.5213(2) 0.5085(4)
H15_2 H 0.462(3) 0.508(2) 0.585(5)
C24_2 C 0.4139(3) 0.5858(2) 0.4495(4)
H16_2 H 0.459(3) 0.623(2) 0.487(4)
C25_2 C 0.3436(2) 0.66822(18) 0.2549(3)
C26_2 C 0.3390(2) 0.39730(18) 0.5053(3)
O11_3 O 0.76987(15) 0.81338(13) 0.6450(2)
O13_3 O 0.73052(15) 0.64896(13) 0.5619(2)
O14_2 O 0.41163(16) 0.61192(13) 0.1200(2)
O15_2 O 0.58837(16) 0.61192(13) 0.3800(2)
O16_2 O 0.40012(15) 0.77906(13) 0.1103(2)
O4_2 O 0.58837(16) 0.38808(13) 0.8800(2)
C5_2 C 0.5878(3) 0.5213(2) 0.9915(4)
H3_2 H 0.538(3) 0.508(2) 0.915(5)
C8_2 C 0.6610(2) 0.39730(18) 0.9947(3)
H6_4 H 0.434(3) 0.021(3) 0.096(4)
C17_4 C 0.5073(3) 0.1091(2) 0.0121(4)
H11_4 H 0.475(3) 0.122(3) 0.045(5)
N2_4 N 0.57407(18) 0.16028(15) 0.9228(3)
C14_4 C 0.5862(2) 0.0887(2) 0.8977(3)
H9_4 H 0.611(3) 0.083(2) 0.865(4)
C15_4 C 0.5569(3) 0.0251(2) 0.9254(4)
C16_4 C 0.5154(2) 0.0342(2) 0.9833(3)
C18_4 C 0.5368(3) 0.1714(2) 0.9815(4)
H12_4 H 0.529(3) 0.220(3) 0.989(4)
N1_4 N 0.42593(18) 0.83972(15) 0.0772(3)
C9_4 C 0.4138(2) 0.9113(2) 0.1023(3)
H5_4 H 0.389(3) 0.917(2) 0.135(4)
C10_4 C 0.4431(3) 0.9749(2) 0.0746(4)
C11_4 C 0.4846(2) 0.9658(2) 0.0167(3)
C13_4 C 0.4632(3) 0.8286(2) 0.0185(4)
H8_4 H 0.471(3) 0.780(3) 0.011(4)
C12_4 C 0.4927(3) 0.8909(2) 0.9879(4)
H7_4 H 0.525(3) 0.878(3) 0.955(5)
H10_4 H 0.566(3) 0.979(3) 0.904(4)
O11_4 O 0.23013(15) 0.81338(13) 0.8550(2)
O13_4 O 0.26948(15) 0.64896(13) 0.9381(2)
C21_3 C 0.2407(3) 0.0129(2) 0.6856(4)
H14_3 H 0.291(4) 0.047(3) 0.727(5)
C22_3 C 0.1646(2) 0.02945(19) 0.5586(3)
C26_3 C 0.1610(2) 0.10270(18) 0.4947(3)
O8_3 O 0.07555(15) 0.79987(13) 0.6862(2)
C19_3 C 0.1617(2) 0.89802(19) 0.6772(3)
C20_3 C 0.2396(3) 0.9477(2) 0.7440(4)
H13_3 H 0.294(4) 0.935(3) 0.835(6)
C23_3 C 0.0878(3) 0.9787(2) 0.4915(4)
H15_3 H 0.038(3) 0.992(2) 0.415(5)
C24_3 C 0.0861(3) 0.9142(2) 0.5505(4)
H16_3 H 0.041(3) 0.877(2) 0.513(4)
C25_3 C 0.1564(2) 0.83178(18) 0.7451(3)
C8_3 C 0.8390(2) 0.10270(18) 0.0053(3)
C3_3 C 0.7593(3) 0.0129(2) 0.8144(4)
H2_3 H 0.709(4) 0.047(3) 0.773(5)
C4_3 C 0.8354(2) 0.02945(19) 0.9414(3)
C5_3 C 0.9122(3) 0.9787(2) 0.0085(4)
H3_3 H 0.962(3) 0.992(2) 0.085(5)
O2_3 O 0.92445(15) 0.79987(13) 0.8138(2)
C1_3 C 0.8383(2) 0.89802(19) 0.8228(3)
C2_3 C 0.7604(3) 0.9477(2) 0.7560(4)
H1_3 H 0.706(4) 0.935(3) 0.665(6)
C6_3 C 0.9139(3) 0.9142(2) 0.9495(4)
H4_3 H 0.959(3) 0.877(2) 0.987(4)
C7_3 C 0.8436(2) 0.83178(18) 0.7549(3)
C5_4 C 0.4122(3) 0.4787(2) 0.0085(4)
H3_4 H 0.462(3) 0.492(2) 0.085(5)
C8_4 C 0.3390(2) 0.60270(18) 0.0053(3)
O2_4 O 0.42445(15) 0.29987(13) 0.8138(2)
C1_4 C 0.3383(2) 0.39802(19) 0.8228(3)
C2_4 C 0.2604(3) 0.4477(2) 0.7560(4)
H1_4 H 0.206(4) 0.435(3) 0.665(6)
C3_4 C 0.2593(3) 0.5129(2) 0.8144(4)
H2_4 H 0.209(4) 0.547(3) 0.773(5)
C4_4 C 0.3354(2) 0.52945(19) 0.9414(3)
C6_4 C 0.4139(3) 0.4142(2) 0.9495(4)
H4_4 H 0.459(3) 0.377(2) 0.987(4)
C7_4 C 0.3436(2) 0.33178(18) 0.7549(3)
O8_4 O 0.57555(15) 0.29987(13) 0.6862(2)
C19_4 C 0.6617(2) 0.39802(19) 0.6772(3)
C20_4 C 0.7396(3) 0.4477(2) 0.7440(4)
H13_4 H 0.794(4) 0.435(3) 0.835(6)
C21_4 C 0.7407(3) 0.5129(2) 0.6856(4)
H14_4 H 0.791(4) 0.547(3) 0.727(5)
C22_4 C 0.6646(2) 0.52945(19) 0.5586(3)
C23_4 C 0.5878(3) 0.4787(2) 0.4915(4)
H15_4 H 0.538(3) 0.492(2) 0.415(5)
C24_4 C 0.5861(3) 0.4142(2) 0.5505(4)
H16_4 H 0.541(3) 0.377(2) 0.513(4)
C25_4 C 0.6564(2) 0.33178(18) 0.7451(3)
C26_4 C 0.6610(2) 0.60270(18) 0.4947(3)
loop_
_geom_bond_atom_site_label_1
_geom_bond_atom_site_label_2
_geom_bond_site_symmetry_1
_geom_bond_site_symmetry_2
Mg1 O1 1_555 1_555
Mg2 O2 1_555 1_555
O1 C7 1_555 1_555
O2 C7 1_555 1_555
O5 Mg1 1_555 1_555
N1 O5 1_555 1_555
C1 C2 1_555 1_555
C2 H1 1_555 1_555
C6 C1 1_555 1_555
H4 C6 1_555 1_555
C7 C1 1_555 1_555
C9 N1 1_555 1_555
H5 C9 1_555 1_555
C10 C9 1_555 1_555
H6 C10 1_555 1_555
C11 C10 1_555 1_555
C12 C11 1_555 1_555
C13 N1 1_555 1_555
H8 C13 1_555 1_555
O11 Mg1 1_555 1_555
O12 Mg1 1_555 1_555
O13 Mg1 1_555 1_555
O15 Mg2 1_555 1_555
O17 Mg1 1_555 1_555
Mg2 O5 1_555 1_555
C12 C13 1_555 1_555
H3 C5 1_555 1_555
H2 C3 1_555 1_555
C4 C3 1_555 1_555
Mg6 O3 1_555 1_555
O4 C8 1_555 1_555
Mg9 O4 1_555 1_555
O6 N2 1_555 1_555
N2 C14 1_555 1_555
C14 H9 1_555 1_555
C15 C14 1_555 1_555
H10 C15 1_555 1_555
C17 C16 1_555 1_555
C18 N2 1_555 1_555
H12 C18 1_555 1_555
O7 C25 1_555 1_555
O8 Mg2_2 1_555 1_555
C19 C20 1_555 1_555
C20 H13 1_555 1_555
H15 C23 1_555 1_555
C24 C19 1_555 1_555
H16 C24 1_555 1_555
C25 O8 1_555 1_555
Mg3 O7 1_555 1_555
Mg5 O6 1_555 1_555
Mg9_2 O6 1_555 1_555
O14 Mg2_2 1_555 1_555
O16 Mg2_2 1_555 1_555
C15 C16 1_555 1_555
C17 C18 1_555 1_555
C19 C25 1_555 1_555
C23 C24 1_555 1_555
Mg3 O16 1_555 1_555
O9 C26 1_555 1_555
O10 C26 1_555 1_555
H14 C21 1_555 1_555
C22 C21 1_555 1_555
C26 C22 1_555 1_555
Mg5 O9 1_555 1_555
Mg9_2 O10 1_555 1_555
O6_2 N2_2 1_555 1_555
N2_2 C14_2 1_555 1_555
C14_2 H9_2 1_555 1_555
C15_2 C14_2 1_555 1_555
H10_2 C15_2 1_555 1_555
C18_2 N2_2 1_555 1_555
H12_2 C18_2 1_555 1_555
Mg6_2 O6_2 1_555 1_555
Mg9 O6_2 1_555 1_555
C15_2 C16_2 1_555 1_555
N1_2 O16 1_555 1_555
C9_2 N1_2 1_555 1_555
H5_2 C9_2 1_555 1_555
C10_2 C9_2 1_555 1_555
H6_2 C10_2 1_555 1_555
C11_2 C10_2 1_555 1_555
C13_2 N1_2 1_555 1_555
H8_2 C13_2 1_555 1_555
O12_2 Mg3 1_555 1_555
O11_2 Mg3_2 1_555 1_555
O13_2 Mg3_2 1_555 1_555
O17_2 Mg3_2 1_555 1_555
O17 N2_3 1_555 1_555
N2_3 C14_3 1_555 1_555
C14_3 H9_3 1_555 1_555
C15_3 C14_3 1_555 1_555
C17_3 C16_3 1_555 1_555
H11_3 C17_3 1_555 1_555
C18_3 N2_3 1_555 1_555
H12_3 C18_3 1_555 1_555
Mg9_3 O17 1_555 1_555
C15_3 C16_3 1_555 1_555
C17_3 C18_3 1_555 1_555
Mg5 O1_2 1_555 1_555
Mg2_3 O2_2 1_555 1_555
O1_2 C7_2 1_555 1_555
O2_2 C7_2 1_555 1_555
O5_2 Mg5 1_555 1_555
N1_3 O5_2 1_555 1_555
C1_2 C2_2 1_555 1_555
C2_2 H1_2 1_555 1_555
C3_2 C2_2 1_555 1_555
H2_2 C3_2 1_555 1_555
C4_2 C3_2 1_555 1_555
C6_2 C1_2 1_555 1_555
H4_2 C6_2 1_555 1_555
C7_2 C1_2 1_555 1_555
C9_3 N1_3 1_555 1_555
H5_3 C9_3 1_555 1_555
C10_3 C9_3 1_555 1_555
C11_3 C10_3 1_555 1_555
C12_3 C11_3 1_555 1_555
H7_3 C12_3 1_555 1_555
C13_3 N1_3 1_555 1_555
H8_3 C13_3 1_555 1_555
O7_2 C25_2 1_555 1_555
O8_2 Mg2_3 1_555 1_555
O12 C26_2 1_555 1_555
O10_2 C26_2 1_555 1_555
C19_2 C20_2 1_555 1_555
C20_2 H13_2 1_555 1_555
C21_2 C20_2 1_555 1_555
H14_2 C21_2 1_555 1_555
C22_2 C21_2 1_555 1_555
C23_2 C22_2 1_555 1_555
H15_2 C23_2 1_555 1_555
C24_2 C19_2 1_555 1_555
H16_2 C24_2 1_555 1_555
C25_2 O8_2 1_555 1_555
C26_2 C22_2 1_555 1_555
Mg6 O7_2 1_555 1_555
Mg9_3 O10_2 1_555 1_555
O11_3 Mg5 1_555 1_555
O13_3 Mg5 1_555 1_555
O14_2 Mg2_3 1_555 1_555
O15_2 Mg2_3 1_555 1_555
O16_2 Mg2_3 1_555 1_555
Mg2_3 O5_2 1_555 1_555
C12_3 C13_3 1_555 1_555
C19_2 C25_2 1_555 1_555
C23_2 C24_2 1_555 1_555
Mg6 O16_2 1_555 1_555
O4_2 C8_2 1_555 1_555
H3_2 C5_2 1_555 1_555
Mg9_3 O4_2 1_555 1_555
H11_4 C17_4 1_555 1_555
O17_2 N2_4 1_555 1_555
N2_4 C14_4 1_555 1_555
C14_4 H9_4 1_555 1_555
C15_4 C14_4 1_555 1_555
C18_4 N2_4 1_555 1_555
H12_4 C18_4 1_555 1_555
Mg9_3 O17_2 1_555 1_555
C15_4 C16_4 1_555 1_555
N1_4 O16_2 1_555 1_555
C9_4 N1_4 1_555 1_555
H5_4 C9_4 1_555 1_555
C10_4 C9_4 1_555 1_555
C11_4 C10_4 1_555 1_555
C13_4 N1_4 1_555 1_555
H8_4 C13_4 1_555 1_555
H7_4 C12_4 1_555 1_555
O11_4 Mg6_2 1_555 1_555
O13_4 Mg6_2 1_555 1_555
O13 C26_3 1_555 1_555
O15 C26_3 1_555 1_555
H14_3 C21_3 1_555 1_555
C22_3 C21_3 1_555 1_555
C26_3 C22_3 1_555 1_555
O11_4 C25_3 1_555 1_555
O8_3 Mg9 1_555 1_555
C19_3 C20_3 1_555 1_555
C20_3 H13_3 1_555 1_555
H15_3 C23_3 1_555 1_555
C24_3 C19_3 1_555 1_555
H16_3 C24_3 1_555 1_555
C25_3 O8_3 1_555 1_555
C19_3 C25_3 1_555 1_555
C23_3 C24_3 1_555 1_555
O14 C8_3 1_555 1_555
H2_3 C3_3 1_555 1_555
C4_3 C3_3 1_555 1_555
H3_3 C5_3 1_555 1_555
Mg9_2 O2_3 1_555 1_555
O11_3 C7_3 1_555 1_555
O2_3 C7_3 1_555 1_555
C1_3 C2_3 1_555 1_555
C2_3 H1_3 1_555 1_555
C6_3 C1_3 1_555 1_555
H4_3 C6_3 1_555 1_555
C7_3 C1_3 1_555 1_555
O14_2 C8_4 1_555 1_555
H3_4 C5_4 1_555 1_555
Mg9_3 O2_4 1_555 1_555
O11 C7_4 1_555 1_555
O2_4 C7_4 1_555 1_555
C1_4 C2_4 1_555 1_555
C2_4 H1_4 1_555 1_555
C3_4 C2_4 1_555 1_555
H2_4 C3_4 1_555 1_555
C4_4 C3_4 1_555 1_555
C6_4 C1_4 1_555 1_555
H4_4 C6_4 1_555 1_555
C7_4 C1_4 1_555 1_555
O11_2 C25_4 1_555 1_555
O8_4 Mg9_3 1_555 1_555
O13_3 C26_4 1_555 1_555
O15_2 C26_4 1_555 1_555
C19_4 C20_4 1_555 1_555
C20_4 H13_4 1_555 1_555
C21_4 C20_4 1_555 1_555
H14_4 C21_4 1_555 1_555
C22_4 C21_4 1_555 1_555
C23_4 C22_4 1_555 1_555
H15_4 C23_4 1_555 1_555
C24_4 C19_4 1_555 1_555
H16_4 C24_4 1_555 1_555
C25_4 O8_4 1_555 1_555
C26_4 C22_4 1_555 1_555
C19_4 C25_4 1_555 1_555
C23_4 C24_4 1_555 1_555

#END
