
###############################################################################
#
# This file contains modified crystal structure data generated from the
# MOF subset of the Cambridge Structural Database (CSD) v543 
# hosted by the Cambridge Crystallographic Data Centre (CCDC).
#
# This work is licensed under the Creative Commons
# Attribution-NonCommercial-ShareAlike 4.0 International License.
# To view a copy of this license, visit
# http://creativecommons.org/licenses/by-nc-sa/4.0/
# or send a letter to
# Creative Commons, PO Box 1866, Mountain View, CA 94042, USA.
#
# CIF created using the CSD Python API on 29 September 2022
# The structure has been converted into the P1 space group
# The structure has a 3D framework
# The original CSD entry HOQMIL is in the monoclinic crystal system
# The framework has been calculated to contain at least 10.0% void space
# The void calculation uses a probe of radius 1.32A, grid spacing 0.4
#
###############################################################################

data_HOQMIL
_chemical_formula_moiety         '(C104 H64 Mg8 N8 O36)n'
_symmetry_cell_setting           triclinic
_symmetry_space_group_name_H-M   'P 1'
_symmetry_Int_Tables_number      1
_space_group_name_Hall           'P 1'
loop_
_symmetry_equiv_pos_site_id
_symmetry_equiv_pos_as_xyz
1 x,y,z
_cell_length_a                   18.510(5)
_cell_length_b                   16.894(4)
_cell_length_c                   13.924(6)
_cell_angle_alpha                90
_cell_angle_beta                 130.542(3)
_cell_angle_gamma                90
_cell_volume                     3308.84
loop_
_atom_site_label
_atom_site_type_symbol
_atom_site_fract_x
_atom_site_fract_y
_atom_site_fract_z
Mg9 Mg 0.7500 0.7500 0.0000
Mg1 Mg 0.5000 0.30790(6) 0.2500
Mg2 Mg 0.7500 0.2500 0.5000
O1 O 0.58840(12) 0.39131(10) 0.38060(17)
O2 O 0.73061(13) 0.35318(10) 0.55848(17)
O3 O 0.57600(13) 0.69797(10) 0.69239(17)
O4 O 0.73030(12) 0.68590(10) 0.85797(16)
O5 O 0.40079(12) 0.21990(10) 0.11233(17)
N1 N 0.42669(14) 0.15949(12) 0.0791(2)
C1 C 0.66494(17) 0.47305(14) 0.5586(2)
C2 C 0.5883(2) 0.52371(18) 0.4945(3)
H1 H 0.5370 0.5149 0.4094
C3 C 0.5867(2) 0.58751(17) 0.5553(3)
H2 H 0.5340 0.6207 0.5109
C4 C 0.66245(17) 0.60262(15) 0.6809(2)
C5 C 0.7398(2) 0.5533(2) 0.7436(3)
H3 H 0.7923 0.5635 0.8277
C6 C 0.7410(2) 0.48842(19) 0.6837(3)
H4 H 0.7936 0.4551 0.7283
C7 C 0.66110(17) 0.40000(14) 0.4938(2)
C8 C 0.65645(17) 0.66775(14) 0.7493(2)
C9 C 0.4630(2) 0.17348(17) 0.0232(3)
H5 H 0.4684 0.2252 0.0056
C11 C 0.48461(18) 0.03385(15) 0.0170(3)
C12 C 0.4440(2) 0.02244(17) 0.0717(3)
C13 C 0.4149(2) 0.08566(16) 0.1012(3)
H8 H 0.3869 0.0771 0.1366
O7 O 0.41160(12) 0.39131(10) 0.11940(17)
C20 C 0.4117(2) 0.52371(18) 0.0055(3)
H13 H 0.4630 0.5149 0.0906
C25 C 0.33890(17) 0.40000(14) 0.0062(2)
Mg5 Mg 0.5000 0.69210(6) 0.7500
Mg6 Mg 0.2500 0.2500 0.0000
Mg9_2 Mg 0.7500 0.7500 1.0000
O11 O 0.76939(13) 0.14682(10) 0.44152(17)
O12 O 0.42400(13) 0.30203(10) 0.30761(17)
O13 O 0.57600(13) 0.30203(10) 0.19239(17)
O14 O 0.76970(12) 0.18590(10) 0.64203(16)
O15 O 0.73030(12) 0.31410(10) 0.35797(16)
O16 O 0.59921(12) 0.21990(10) 0.38767(17)
O17 O 0.90079(12) 0.28010(10) 0.61233(17)
C10 C 0.4922(2) 0.11144(18) 0.9919(3)
H6 H 0.5174 0.1217 0.9533
H11 H 0.5636 0.0287 0.9114
O8 O 0.26939(13) 0.35318(10) 0.94152(17)
O9 O 0.42400(13) 0.69797(10) 0.80761(17)
O10 O 0.26970(12) 0.68590(10) 0.64203(16)
C19 C 0.33506(17) 0.47305(14) 0.9414(2)
C21 C 0.4133(2) 0.58751(17) 0.9447(3)
H14 H 0.4660 0.6207 0.9891
C22 C 0.33755(17) 0.60262(15) 0.8191(2)
C23 C 0.2602(2) 0.5533(2) 0.7564(3)
H15 H 0.2077 0.5635 0.6723
C24 C 0.2590(2) 0.48842(19) 0.8163(3)
H16 H 0.2064 0.4551 0.7717
C26 C 0.34355(17) 0.66775(14) 0.7507(2)
Mg6_2 Mg 0.2500 0.2500 1.0000
Mg7 Mg 0.2500 0.7500 0.5000
H7 H 0.4364 0.9713 0.0886
C15 C 0.5078(2) 0.88856(18) 0.0081(3)
H10 H 0.4826 0.8783 0.0467
O6 O 0.59921(12) 0.78010(10) 0.88767(17)
N2 N 0.57331(14) 0.84051(12) 0.9209(2)
C14 C 0.5370(2) 0.82652(17) 0.9768(3)
H9 H 0.5316 0.7748 0.9944
C16 C 0.51539(18) 0.96615(15) 0.9830(3)
C17 C 0.5560(2) 0.97756(17) 0.9283(3)
C18 C 0.5851(2) 0.91434(16) 0.8988(3)
H12 H 0.6131 0.9229 0.8634
N1_2 N 0.57331(14) 0.15949(12) 0.4209(2)
C9_2 C 0.5370(2) 0.17348(17) 0.4768(3)
H5_2 H 0.5316 0.2252 0.4944
C10_2 C 0.5078(2) 0.11144(18) 0.5081(3)
H6_2 H 0.4826 0.1217 0.5467
C11_2 C 0.51539(18) 0.03385(15) 0.4830(3)
C12_2 C 0.5560(2) 0.02244(17) 0.4283(3)
C13_2 C 0.5851(2) 0.08566(16) 0.3988(3)
H8_2 H 0.6131 0.0771 0.3634
H11_2 H 0.4364 0.0287 0.5886
O11_2 O 0.23061(13) 0.14682(10) 0.05848(17)
O15_2 O 0.26970(12) 0.31410(10) 0.14203(16)
O14_2 O 0.23030(12) 0.18590(10) 0.85797(16)
O17_2 O 0.09921(12) 0.28010(10) 0.88767(17)
H7_2 H 0.5636 0.9713 0.4114
O6_2 O 0.40079(12) 0.78010(10) 0.61233(17)
N2_2 N 0.42669(14) 0.84051(12) 0.5791(2)
C14_2 C 0.4630(2) 0.82652(17) 0.5232(3)
H9_2 H 0.4684 0.7748 0.5056
C15_2 C 0.4922(2) 0.88856(18) 0.4919(3)
H10_2 H 0.5174 0.8783 0.4533
C16_2 C 0.48461(18) 0.96615(15) 0.5170(3)
C17_2 C 0.4440(2) 0.97756(17) 0.5717(3)
C18_2 C 0.4149(2) 0.91434(16) 0.6012(3)
H12_2 H 0.3869 0.9229 0.6366
O3_2 O 0.07600(13) 0.19797(10) 0.69239(17)
C2_2 C 0.0883(2) 0.02371(18) 0.4945(3)
H1_2 H 0.0370 0.0149 0.4094
C3_2 C 0.0867(2) 0.08751(17) 0.5553(3)
H2_2 H 0.0340 0.1207 0.5109
C4_2 C 0.16245(17) 0.10262(15) 0.6809(2)
C5_2 C 0.2398(2) 0.0533(2) 0.7436(3)
H3_2 H 0.2923 0.0635 0.8277
C8_2 C 0.15645(17) 0.16775(14) 0.7493(2)
Mg5_2 Mg 0.0000 0.19210(6) 0.7500
Mg1_2 Mg 0.0000 0.80790(6) 0.2500
O1_2 O 0.08840(12) 0.89131(10) 0.38060(17)
O2_2 O 0.23061(13) 0.85318(10) 0.55848(17)
C1_2 C 0.16494(17) 0.97305(14) 0.5586(2)
C6_2 C 0.2410(2) 0.98842(19) 0.6837(3)
H4_2 H 0.2936 0.9551 0.7283
C7_2 C 0.16110(17) 0.90000(14) 0.4938(2)
C15_3 C 0.0078(2) 0.38856(18) 0.0081(3)
O11_3 O 0.26939(13) 0.64682(10) 0.44152(17)
O13_2 O 0.07600(13) 0.80203(10) 0.19239(17)
O15_3 O 0.23030(12) 0.81410(10) 0.35797(16)
O16_2 O 0.09921(12) 0.71990(10) 0.38767(17)
H6_3 H 0.0174 0.6217 0.9533
N2_3 N 0.07331(14) 0.34051(12) 0.9209(2)
C14_3 C 0.0370(2) 0.32652(17) 0.9768(3)
H9_3 H 0.0316 0.2748 0.9944
C16_3 C 0.01539(18) 0.46615(15) 0.9830(3)
C17_3 C 0.0560(2) 0.47756(17) 0.9283(3)
H11_3 H 0.0636 0.5287 0.9114
C18_3 C 0.0851(2) 0.41434(16) 0.8988(3)
H12_3 H 0.1131 0.4229 0.8634
C20_2 C 0.9117(2) 0.02371(18) 0.0055(3)
H13_2 H 0.9630 0.0149 0.0906
Mg5_3 Mg 1.0000 0.19210(6) 0.7500
O9_2 O 0.92400(13) 0.19797(10) 0.80761(17)
C21_2 C 0.9133(2) 0.08751(17) 0.9447(3)
H14_2 H 0.9660 0.1207 0.9891
C22_2 C 0.83755(17) 0.10262(15) 0.8191(2)
C23_2 C 0.7602(2) 0.0533(2) 0.7564(3)
H15_2 H 0.7077 0.0635 0.6723
C26_2 C 0.84355(17) 0.16775(14) 0.7507(2)
Mg1_3 Mg 1.0000 0.80790(6) 0.2500
O5_2 O 0.90079(12) 0.71990(10) 0.11233(17)
N1_3 N 0.92669(14) 0.65949(12) 0.0791(2)
C9_3 C 0.9630(2) 0.67348(17) 0.0232(3)
H5_3 H 0.9684 0.7252 0.0056
C11_3 C 0.98461(18) 0.53385(15) 0.0170(3)
C12_3 C 0.9440(2) 0.52244(17) 0.0717(3)
H7_3 H 0.9364 0.4713 0.0886
C13_3 C 0.9149(2) 0.58566(16) 0.1012(3)
H8_3 H 0.8869 0.5771 0.1366
H10_3 H 0.9826 0.3783 0.0467
O7_2 O 0.91160(12) 0.89131(10) 0.11940(17)
C25_2 C 0.83890(17) 0.90000(14) 0.0062(2)
O12_2 O 0.92400(13) 0.80203(10) 0.30761(17)
C10_3 C 0.9922(2) 0.61144(18) 0.9919(3)
O8_2 O 0.76939(13) 0.85318(10) 0.94152(17)
C19_2 C 0.83506(17) 0.97305(14) 0.9414(2)
C24_2 C 0.7590(2) 0.98842(19) 0.8163(3)
H16_2 H 0.7064 0.9551 0.7717
N1_4 N 0.07331(14) 0.65949(12) 0.4209(2)
C9_4 C 0.0370(2) 0.67348(17) 0.4768(3)
H5_4 H 0.0316 0.7252 0.4944
C10_4 C 0.0078(2) 0.61144(18) 0.5081(3)
C11_4 C 0.01539(18) 0.53385(15) 0.4830(3)
C12_4 C 0.0560(2) 0.52244(17) 0.4283(3)
H7_4 H 0.0636 0.4713 0.4114
C13_4 C 0.0851(2) 0.58566(16) 0.3988(3)
H8_4 H 0.1131 0.5771 0.3634
H10_4 H 0.0174 0.3783 0.4533
H6_4 H 0.9826 0.6217 0.5467
N2_4 N 0.92669(14) 0.34051(12) 0.5791(2)
C14_4 C 0.9630(2) 0.32652(17) 0.5232(3)
H9_4 H 0.9684 0.2748 0.5056
C15_4 C 0.9922(2) 0.38856(18) 0.4919(3)
C16_4 C 0.98461(18) 0.46615(15) 0.5170(3)
C17_4 C 0.9440(2) 0.47756(17) 0.5717(3)
H11_4 H 0.9364 0.5287 0.5886
C18_4 C 0.9149(2) 0.41434(16) 0.6012(3)
H12_4 H 0.8869 0.4229 0.6366
O11_4 O 0.73061(13) 0.64682(10) 0.05848(17)
O15_4 O 0.76970(12) 0.81410(10) 0.14203(16)
C19_3 C 0.66494(17) 0.52695(14) 0.0586(2)
C21_3 C 0.5867(2) 0.41249(17) 0.0553(3)
H14_3 H 0.5340 0.3793 0.0109
C22_3 C 0.66245(17) 0.39738(15) 0.1809(2)
C23_3 C 0.7398(2) 0.4467(2) 0.2436(3)
H15_3 H 0.7923 0.4365 0.3277
C24_3 C 0.7410(2) 0.51158(19) 0.1837(3)
H16_3 H 0.7936 0.5449 0.2283
C26_3 C 0.65645(17) 0.33225(14) 0.2493(2)
O1_3 O 0.41160(12) 0.60869(10) 0.61940(17)
C1_3 C 0.33506(17) 0.52695(14) 0.4414(2)
C2_3 C 0.4117(2) 0.47629(18) 0.5055(3)
H1_3 H 0.4630 0.4851 0.5906
C3_3 C 0.4133(2) 0.41249(17) 0.4447(3)
H2_3 H 0.4660 0.3793 0.4891
C4_3 C 0.33755(17) 0.39738(15) 0.3191(2)
C5_3 C 0.2602(2) 0.4467(2) 0.2564(3)
H3_3 H 0.2077 0.4365 0.1723
C6_3 C 0.2590(2) 0.51158(19) 0.3163(3)
H4_3 H 0.2064 0.5449 0.2717
C7_3 C 0.33890(17) 0.60000(14) 0.5062(2)
C8_3 C 0.34355(17) 0.33225(14) 0.2507(2)
O7_3 O 0.58840(12) 0.60869(10) 0.88060(17)
C20_3 C 0.5883(2) 0.47629(18) 0.9945(3)
H13_3 H 0.5370 0.4851 0.9094
C25_3 C 0.66110(17) 0.60000(14) 0.9938(2)
C19_4 C 0.16494(17) 0.02695(14) 0.0586(2)
C24_4 C 0.2410(2) 0.01158(19) 0.1837(3)
H16_4 H 0.2936 0.0449 0.2283
O7_4 O 0.08840(12) 0.10869(10) 0.88060(17)
C25_4 C 0.16110(17) 0.10000(14) 0.9938(2)
C21_4 C 0.0867(2) 0.91249(17) 0.0553(3)
H14_4 H 0.0340 0.8793 0.0109
C22_4 C 0.16245(17) 0.89738(15) 0.1809(2)
C23_4 C 0.2398(2) 0.9467(2) 0.2436(3)
H15_4 H 0.2923 0.9365 0.3277
C26_4 C 0.15645(17) 0.83225(14) 0.2493(2)
C20_4 C 0.0883(2) 0.97629(18) 0.9945(3)
H13_4 H 0.0370 0.9851 0.9094
O1_4 O 0.91160(12) 0.10869(10) 0.61940(17)
C1_4 C 0.83506(17) 0.02695(14) 0.4414(2)
C6_4 C 0.7590(2) 0.01158(19) 0.3163(3)
H4_4 H 0.7064 0.0449 0.2717
C7_4 C 0.83890(17) 0.10000(14) 0.5062(2)
C2_4 C 0.9117(2) 0.97629(18) 0.5055(3)
H1_4 H 0.9630 0.9851 0.5906
C3_4 C 0.9133(2) 0.91249(17) 0.4447(3)
H2_4 H 0.9660 0.8793 0.4891
C4_4 C 0.83755(17) 0.89738(15) 0.3191(2)
C5_4 C 0.7602(2) 0.9467(2) 0.2564(3)
H3_4 H 0.7077 0.9365 0.1723
C8_4 C 0.84355(17) 0.83225(14) 0.2507(2)
loop_
_geom_bond_atom_site_label_1
_geom_bond_atom_site_label_2
_geom_bond_site_symmetry_1
_geom_bond_site_symmetry_2
Mg1 O1 1_555 1_555
Mg2 O2 1_555 1_555
O1 C7 1_555 1_555
O2 C7 1_555 1_555
O3 C8 1_555 1_555
O4 C8 1_555 1_555
O5 Mg1 1_555 1_555
N1 O5 1_555 1_555
C1 C2 1_555 1_555
C2 H1 1_555 1_555
C3 C2 1_555 1_555
H2 C3 1_555 1_555
C4 C3 1_555 1_555
C5 C4 1_555 1_555
H3 C5 1_555 1_555
C6 C1 1_555 1_555
H4 C6 1_555 1_555
C7 C1 1_555 1_555
C8 C4 1_555 1_555
C9 N1 1_555 1_555
H5 C9 1_555 1_555
C12 C11 1_555 1_555
C13 N1 1_555 1_555
H8 C13 1_555 1_555
O7 Mg1 1_555 1_555
C20 H13 1_555 1_555
C25 O7 1_555 1_555
Mg5 O3 1_555 1_555
Mg6 O5 1_555 1_555
Mg9_2 O4 1_555 1_555
O11 Mg2 1_555 1_555
O12 Mg1 1_555 1_555
O13 Mg1 1_555 1_555
O14 Mg2 1_555 1_555
O15 Mg2 1_555 1_555
O16 Mg1 1_555 1_555
O17 Mg2 1_555 1_555
Mg2 O16 1_555 1_555
C5 C6 1_555 1_555
C12 C13 1_555 1_555
H6 C10 1_555 1_555
O9 C26 1_555 1_555
O10 C26 1_555 1_555
H14 C21 1_555 1_555
C22 C21 1_555 1_555
C23 C22 1_555 1_555
H15 C23 1_555 1_555
C24 C19 1_555 1_555
H16 C24 1_555 1_555
C26 C22 1_555 1_555
Mg5 O9 1_555 1_555
Mg7 O10 1_555 1_555
O8 Mg6_2 1_555 1_555
C23 C24 1_555 1_555
H10 C15 1_555 1_555
O6 N2 1_555 1_555
N2 C14 1_555 1_555
C14 H9 1_555 1_555
C17 C16 1_555 1_555
C18 N2 1_555 1_555
H12 C18 1_555 1_555
Mg5 O6 1_555 1_555
Mg9_2 O6 1_555 1_555
C17 C18 1_555 1_555
N1_2 O16 1_555 1_555
C9_2 N1_2 1_555 1_555
H5_2 C9_2 1_555 1_555
C10_2 C9_2 1_555 1_555
H6_2 C10_2 1_555 1_555
C11_2 C10_2 1_555 1_555
C12_2 C11_2 1_555 1_555
C13_2 N1_2 1_555 1_555
H8_2 C13_2 1_555 1_555
O11_2 Mg6 1_555 1_555
O15_2 Mg6 1_555 1_555
C12_2 C13_2 1_555 1_555
O14_2 Mg6_2 1_555 1_555
O17_2 Mg6_2 1_555 1_555
O6_2 N2_2 1_555 1_555
N2_2 C14_2 1_555 1_555
C14_2 H9_2 1_555 1_555
C15_2 C14_2 1_555 1_555
H10_2 C15_2 1_555 1_555
C17_2 C16_2 1_555 1_555
C18_2 N2_2 1_555 1_555
H12_2 C18_2 1_555 1_555
Mg5 O6_2 1_555 1_555
Mg7 O6_2 1_555 1_555
C15_2 C16_2 1_555 1_555
C17_2 C18_2 1_555 1_555
O3_2 C8_2 1_555 1_555
O14_2 C8_2 1_555 1_555
C2_2 H1_2 1_555 1_555
C3_2 C2_2 1_555 1_555
H2_2 C3_2 1_555 1_555
C4_2 C3_2 1_555 1_555
C5_2 C4_2 1_555 1_555
H3_2 C5_2 1_555 1_555
C8_2 C4_2 1_555 1_555
Mg5_2 O3_2 1_555 1_555
Mg1_2 O1_2 1_555 1_555
Mg7 O2_2 1_555 1_555
O1_2 C7_2 1_555 1_555
O2_2 C7_2 1_555 1_555
C6_2 C1_2 1_555 1_555
H4_2 C6_2 1_555 1_555
C7_2 C1_2 1_555 1_555
O11_3 Mg7 1_555 1_555
O13_2 Mg1_2 1_555 1_555
O15_3 Mg7 1_555 1_555
O16_2 Mg1_2 1_555 1_555
Mg7 O16_2 1_555 1_555
O17_2 N2_3 1_555 1_555
N2_3 C14_3 1_555 1_555
C14_3 H9_3 1_555 1_555
C17_3 C16_3 1_555 1_555
H11_3 C17_3 1_555 1_555
C18_3 N2_3 1_555 1_555
H12_3 C18_3 1_555 1_555
Mg5_2 O17_2 1_555 1_555
C17_3 C18_3 1_555 1_555
C20_2 H13_2 1_555 1_555
O9_2 C26_2 1_555 1_555
O14 C26_2 1_555 1_555
H14_2 C21_2 1_555 1_555
C22_2 C21_2 1_555 1_555
C23_2 C22_2 1_555 1_555
H15_2 C23_2 1_555 1_555
C26_2 C22_2 1_555 1_555
Mg5_3 O9_2 1_555 1_555
O5_2 Mg1_3 1_555 1_555
N1_3 O5_2 1_555 1_555
C9_3 N1_3 1_555 1_555
H5_3 C9_3 1_555 1_555
C12_3 C11_3 1_555 1_555
H7_3 C12_3 1_555 1_555
C13_3 N1_3 1_555 1_555
H8_3 C13_3 1_555 1_555
O7_2 Mg1_3 1_555 1_555
C25_2 O7_2 1_555 1_555
Mg9 O5_2 1_555 1_555
O12_2 Mg1_3 1_555 1_555
C12_3 C13_3 1_555 1_555
C24_2 C19_2 1_555 1_555
H16_2 C24_2 1_555 1_555
O8_2 Mg9_2 1_555 1_555
N1_4 O16_2 1_555 1_555
C9_4 N1_4 1_555 1_555
H5_4 C9_4 1_555 1_555
C10_4 C9_4 1_555 1_555
C11_4 C10_4 1_555 1_555
C12_4 C11_4 1_555 1_555
H7_4 C12_4 1_555 1_555
C13_4 N1_4 1_555 1_555
H8_4 C13_4 1_555 1_555
C12_4 C13_4 1_555 1_555
O17 N2_4 1_555 1_555
N2_4 C14_4 1_555 1_555
C14_4 H9_4 1_555 1_555
C15_4 C14_4 1_555 1_555
C17_4 C16_4 1_555 1_555
H11_4 C17_4 1_555 1_555
C18_4 N2_4 1_555 1_555
H12_4 C18_4 1_555 1_555
Mg5_3 O17 1_555 1_555
O11_4 Mg9 1_555 1_555
O15_4 Mg9 1_555 1_555
C15_4 C16_4 1_555 1_555
C17_4 C18_4 1_555 1_555
O13 C26_3 1_555 1_555
O15 C26_3 1_555 1_555
H14_3 C21_3 1_555 1_555
C22_3 C21_3 1_555 1_555
C23_3 C22_3 1_555 1_555
H15_3 C23_3 1_555 1_555
C24_3 C19_3 1_555 1_555
H16_3 C24_3 1_555 1_555
C26_3 C22_3 1_555 1_555
C23_3 C24_3 1_555 1_555
Mg5 O1_3 1_555 1_555
O1_3 C7_3 1_555 1_555
O11_3 C7_3 1_555 1_555
O12 C8_3 1_555 1_555
O15_2 C8_3 1_555 1_555
C1_3 C2_3 1_555 1_555
C2_3 H1_3 1_555 1_555
C3_3 C2_3 1_555 1_555
H2_3 C3_3 1_555 1_555
C4_3 C3_3 1_555 1_555
C5_3 C4_3 1_555 1_555
H3_3 C5_3 1_555 1_555
C6_3 C1_3 1_555 1_555
H4_3 C6_3 1_555 1_555
C7_3 C1_3 1_555 1_555
C8_3 C4_3 1_555 1_555
O7_3 Mg5 1_555 1_555
C20_3 H13_3 1_555 1_555
C25_3 O7_3 1_555 1_555
C5_3 C6_3 1_555 1_555
C24_4 C19_4 1_555 1_555
H16_4 C24_4 1_555 1_555
O7_4 Mg5_2 1_555 1_555
C25_4 O7_4 1_555 1_555
O13_2 C26_4 1_555 1_555
O15_3 C26_4 1_555 1_555
H14_4 C21_4 1_555 1_555
C22_4 C21_4 1_555 1_555
C23_4 C22_4 1_555 1_555
H15_4 C23_4 1_555 1_555
C26_4 C22_4 1_555 1_555
C20_4 H13_4 1_555 1_555
Mg5_3 O1_4 1_555 1_555
O1_4 C7_4 1_555 1_555
O11 C7_4 1_555 1_555
C6_4 C1_4 1_555 1_555
H4_4 C6_4 1_555 1_555
C7_4 C1_4 1_555 1_555
O12_2 C8_4 1_555 1_555
O15_4 C8_4 1_555 1_555
C2_4 H1_4 1_555 1_555
C3_4 C2_4 1_555 1_555
H2_4 C3_4 1_555 1_555
C4_4 C3_4 1_555 1_555
C5_4 C4_4 1_555 1_555
H3_4 C5_4 1_555 1_555
C8_4 C4_4 1_555 1_555

#END
