
###############################################################################
#
# This file contains modified crystal structure data generated from the
# MOF subset of the Cambridge Structural Database (CSD) v543 
# hosted by the Cambridge Crystallographic Data Centre (CCDC).
#
# This work is licensed under the Creative Commons
# Attribution-NonCommercial-ShareAlike 4.0 International License.
# To view a copy of this license, visit
# http://creativecommons.org/licenses/by-nc-sa/4.0/
# or send a letter to
# Creative Commons, PO Box 1866, Mountain View, CA 94042, USA.
#
# CIF created using the CSD Python API on 29 September 2022
# The structure has been converted into the P1 space group
# The structure has a 3D framework
# The original CSD entry HOQMIL01 is in the monoclinic crystal system
# The framework has been calculated to contain at least 10.0% void space
# The void calculation uses a probe of radius 1.32A, grid spacing 0.4
#
###############################################################################

data_HOQMIL01
_chemical_formula_moiety         '(C104 H64 Mg8 N8 O36)n'
_symmetry_cell_setting           triclinic
_symmetry_space_group_name_H-M   'P 1'
_symmetry_Int_Tables_number      1
_space_group_name_Hall           'P 1'
loop_
_symmetry_equiv_pos_site_id
_symmetry_equiv_pos_as_xyz
1 x,y,z
_cell_length_a                   18.0541(16)
_cell_length_b                   17.2527(14)
_cell_length_c                   13.4128(11)
_cell_angle_alpha                90
_cell_angle_beta                 129.2740(10)
_cell_angle_gamma                90
_cell_volume                     3234.19
loop_
_atom_site_label
_atom_site_type_symbol
_atom_site_fract_x
_atom_site_fract_y
_atom_site_fract_z
Mg1 Mg 0.0000 0.30499(7) 0.2500
Mg2 Mg 0.2500 0.2500 0.5000
O1 O 0.07549(15) 0.29957(11) 0.18533(19)
O2 O 0.22992(15) 0.31351(12) 0.35459(19)
O4 O 0.23029(14) 0.64939(11) 0.06227(19)
O5 O 0.09995(14) 0.22088(12) 0.38967(19)
N1 N 0.07411(17) 0.16020(14) 0.4228(2)
C1 C 0.1615(2) 0.39827(17) 0.1772(3)
C2 C 0.0862(3) 0.4143(2) 0.0497(3)
H1 H 0.037(3) 0.382(2) 0.010(4)
C4 C 0.1643(2) 0.52976(17) 0.0584(3)
C5 C 0.2401(2) 0.5136(2) 0.1857(3)
H3 H 0.291(3) 0.552(2) 0.230(4)
C6 C 0.2390(2) 0.4479(2) 0.2439(3)
H4 H 0.286(4) 0.443(3) 0.333(5)
C7 C 0.1560(2) 0.33147(17) 0.2448(3)
C9 C 0.0367(2) 0.1714(2) 0.4815(4)
H5 H 0.035(3) 0.224(3) 0.496(4)
C10 C 0.0071(3) 0.1088(2) 0.5121(4)
C11 C 0.0155(2) 0.03399(18) 0.4835(3)
C12 C 0.0572(2) 0.02505(19) 0.4253(3)
C13 C 0.0867(2) 0.08861(18) 0.3971(3)
H8 H 0.119(3) 0.086(2) 0.364(4)
Mg5 Mg 0.0000 0.69501(7) 0.7500
Mg9 Mg 0.2500 0.7500 0.0000
O11 O 0.27008(15) 0.18649(12) 0.64541(19)
O13 O 0.08841(15) 0.38743(12) 0.3799(2)
O14 O 0.26971(14) 0.14939(11) 0.43773(19)
O15 O 0.23029(14) 0.35061(11) 0.56227(19)
O17 O 0.40005(14) 0.27912(12) 0.61033(19)
O3 O 0.08841(15) 0.61257(12) 0.8799(2)
C3 C 0.0875(3) 0.4792(2) 0.9905(3)
H2 H 0.037(3) 0.493(2) 0.903(4)
C8 C 0.1607(2) 0.60342(17) 0.9948(3)
Mg9_2 Mg 0.2500 0.7500 1.0000
H7 H 0.069(3) 0.978(2) 0.404(4)
H10 H 0.021(3) 0.880(3) 0.447(4)
Mg1_2 Mg 1.0000 0.30499(7) 0.2500
H6 H 0.979(3) 0.120(3) 0.553(4)
H11 H 0.931(3) 0.022(2) 0.596(4)
O7 O 0.92451(15) 0.29957(11) 0.31467(19)
O8 O 0.77008(15) 0.31351(12) 0.14541(19)
O9 O 0.91159(15) 0.61257(12) 0.6201(2)
O10 O 0.76971(14) 0.64939(11) 0.43773(19)
C19 C 0.8385(2) 0.39827(17) 0.3228(3)
C20 C 0.9138(3) 0.4143(2) 0.4503(3)
H13 H 0.963(3) 0.382(2) 0.490(4)
C21 C 0.9125(3) 0.4792(2) 0.5095(3)
H14 H 0.963(3) 0.493(2) 0.597(4)
C22 C 0.8357(2) 0.52976(17) 0.4416(3)
C23 C 0.7599(2) 0.5136(2) 0.3143(3)
H15 H 0.709(3) 0.552(2) 0.270(4)
C24 C 0.7610(2) 0.4479(2) 0.2561(3)
H16 H 0.714(4) 0.443(3) 0.167(5)
C25 C 0.8440(2) 0.33147(17) 0.2552(3)
C26 C 0.8393(2) 0.60342(17) 0.5052(3)
Mg5_2 Mg 1.0000 0.69501(7) 0.7500
Mg6 Mg 0.7500 0.2500 0.0000
Mg8 Mg 0.7500 0.7500 0.5000
O12 O 0.91159(15) 0.38743(12) 0.1201(2)
O16 O 0.90005(14) 0.22088(12) 0.11033(19)
Mg6_2 Mg 0.7500 0.2500 1.0000
O6 O 0.90005(14) 0.77912(12) 0.61033(19)
N2 N 0.92589(17) 0.83980(14) 0.5772(2)
C14 C 0.9633(2) 0.8286(2) 0.5185(4)
H9 H 0.965(3) 0.776(3) 0.504(4)
C15 C 0.9929(3) 0.8912(2) 0.4879(4)
C16 C 0.9845(2) 0.96601(18) 0.5165(3)
C17 C 0.9428(2) 0.97495(19) 0.5747(3)
C18 C 0.9133(2) 0.91139(18) 0.6029(3)
H12 H 0.881(3) 0.914(2) 0.636(4)
H6_2 H 0.021(3) 0.120(3) 0.947(4)
H11_2 H 0.069(3) 0.022(2) 0.904(4)
C15_2 C 0.0071(3) 0.8912(2) 0.0121(4)
O6_2 O 0.09995(14) 0.77912(12) 0.88967(19)
N2_2 N 0.07411(17) 0.83980(14) 0.9228(2)
C14_2 C 0.0367(2) 0.8286(2) 0.9815(4)
H9_2 H 0.035(3) 0.776(3) 0.996(4)
C16_2 C 0.0155(2) 0.96601(18) 0.9835(3)
C17_2 C 0.0572(2) 0.97495(19) 0.9253(3)
C18_2 C 0.0867(2) 0.91139(18) 0.8971(3)
H12_2 H 0.119(3) 0.914(2) 0.864(4)
N1_2 N 0.92589(17) 0.16020(14) 0.0772(2)
C9_2 C 0.9633(2) 0.1714(2) 0.0185(4)
H5_2 H 0.965(3) 0.224(3) 0.004(4)
C11_2 C 0.9845(2) 0.03399(18) 0.0165(3)
C12_2 C 0.9428(2) 0.02505(19) 0.0747(3)
C13_2 C 0.9133(2) 0.08861(18) 0.1029(3)
H8_2 H 0.881(3) 0.086(2) 0.136(4)
O14_2 O 0.73029(14) 0.14939(11) 0.06227(19)
C10_2 C 0.9929(3) 0.1088(2) 0.9879(4)
O11_2 O 0.72992(15) 0.18649(12) 0.85459(19)
O15_2 O 0.76971(14) 0.35061(11) 0.93773(19)
O17_2 O 0.59995(14) 0.27912(12) 0.88967(19)
H7_2 H 0.931(3) 0.978(2) 0.096(4)
H10_2 H 0.979(3) 0.880(3) 0.053(4)
C4_2 C 0.6643(2) 0.02976(17) 0.0584(3)
C5_2 C 0.7401(2) 0.0136(2) 0.1857(3)
H3_2 H 0.791(3) 0.052(2) 0.230(4)
O9_2 O 0.41159(15) 0.11257(12) 0.6201(2)
C22_2 C 0.3357(2) 0.02976(17) 0.4416(3)
C23_2 C 0.2599(2) 0.0136(2) 0.3143(3)
H15_2 H 0.209(3) 0.052(2) 0.270(4)
C26_2 C 0.3393(2) 0.10342(17) 0.5052(3)
Mg5_3 Mg 0.5000 0.19501(7) 0.7500
O3_2 O 0.58841(15) 0.11257(12) 0.8799(2)
C8_2 C 0.6607(2) 0.10342(17) 0.9948(3)
Mg1_3 Mg 0.5000 0.80499(7) 0.2500
O1_2 O 0.57549(15) 0.79957(11) 0.18533(19)
O2_2 O 0.72992(15) 0.81351(12) 0.35459(19)
O5_2 O 0.59995(14) 0.72088(12) 0.38967(19)
N1_3 N 0.57411(17) 0.66020(14) 0.4228(2)
C1_2 C 0.6615(2) 0.89827(17) 0.1772(3)
C2_2 C 0.5862(3) 0.9143(2) 0.0497(3)
H1_2 H 0.537(3) 0.882(2) 0.010(4)
C6_2 C 0.7390(2) 0.9479(2) 0.2439(3)
H4_2 H 0.786(4) 0.943(3) 0.333(5)
C7_2 C 0.6560(2) 0.83147(17) 0.2448(3)
C9_3 C 0.5367(2) 0.6714(2) 0.4815(4)
H5_3 H 0.535(3) 0.724(3) 0.496(4)
C10_3 C 0.5071(3) 0.6088(2) 0.5121(4)
H6_3 H 0.479(3) 0.620(3) 0.553(4)
C11_3 C 0.5155(2) 0.53399(18) 0.4835(3)
C12_3 C 0.5572(2) 0.52505(19) 0.4253(3)
H7_3 H 0.569(3) 0.478(2) 0.404(4)
C13_3 C 0.5867(2) 0.58861(18) 0.3971(3)
H8_3 H 0.619(3) 0.586(2) 0.364(4)
N2_3 N 0.42589(17) 0.33980(14) 0.5772(2)
C14_3 C 0.4633(2) 0.3286(2) 0.5185(4)
H9_3 H 0.465(3) 0.276(3) 0.504(4)
C15_3 C 0.4929(3) 0.3912(2) 0.4879(4)
H10_3 H 0.521(3) 0.380(3) 0.447(4)
C16_3 C 0.4845(2) 0.46601(18) 0.5165(3)
C17_3 C 0.4428(2) 0.47495(19) 0.5747(3)
H11_3 H 0.431(3) 0.522(2) 0.596(4)
C18_3 C 0.4133(2) 0.41139(18) 0.6029(3)
H12_3 H 0.381(3) 0.414(2) 0.636(4)
O7_2 O 0.42451(15) 0.79957(11) 0.31467(19)
O8_2 O 0.27008(15) 0.81351(12) 0.14541(19)
C19_2 C 0.3385(2) 0.89827(17) 0.3228(3)
C20_2 C 0.4138(3) 0.9143(2) 0.4503(3)
H13_2 H 0.463(3) 0.882(2) 0.490(4)
C21_2 C 0.4125(3) 0.9792(2) 0.5095(3)
H14_2 H 0.463(3) 0.993(2) 0.597(4)
C24_2 C 0.2610(2) 0.9479(2) 0.2561(3)
H16_2 H 0.214(4) 0.943(3) 0.167(5)
C25_2 C 0.3440(2) 0.83147(17) 0.2552(3)
O11_3 O 0.77008(15) 0.68649(12) 0.64541(19)
O12_2 O 0.41159(15) 0.88743(12) 0.1201(2)
O13_2 O 0.58841(15) 0.88743(12) 0.3799(2)
O15_3 O 0.73029(14) 0.85061(11) 0.56227(19)
O16_2 O 0.40005(14) 0.72088(12) 0.11033(19)
C3_2 C 0.5875(3) 0.9792(2) 0.9905(3)
H2_2 H 0.537(3) 0.993(2) 0.903(4)
N1_4 N 0.42589(17) 0.66020(14) 0.0772(2)
C9_4 C 0.4633(2) 0.6714(2) 0.0185(4)
H5_4 H 0.465(3) 0.724(3) 0.004(4)
C11_4 C 0.4845(2) 0.53399(18) 0.0165(3)
C12_4 C 0.4428(2) 0.52505(19) 0.0747(3)
H7_4 H 0.431(3) 0.478(2) 0.096(4)
C13_4 C 0.4133(2) 0.58861(18) 0.1029(3)
H8_4 H 0.381(3) 0.586(2) 0.136(4)
C15_4 C 0.5071(3) 0.3912(2) 0.0121(4)
H10_4 H 0.479(3) 0.380(3) 0.053(4)
C10_4 C 0.4929(3) 0.6088(2) 0.9879(4)
H6_4 H 0.521(3) 0.620(3) 0.947(4)
N2_4 N 0.57411(17) 0.33980(14) 0.9228(2)
C14_4 C 0.5367(2) 0.3286(2) 0.9815(4)
H9_4 H 0.535(3) 0.276(3) 0.996(4)
C16_4 C 0.5155(2) 0.46601(18) 0.9835(3)
C17_4 C 0.5572(2) 0.47495(19) 0.9253(3)
H11_4 H 0.569(3) 0.522(2) 0.904(4)
C18_4 C 0.5867(2) 0.41139(18) 0.8971(3)
H12_4 H 0.619(3) 0.414(2) 0.864(4)
O11_4 O 0.22992(15) 0.68649(12) 0.85459(19)
O15_4 O 0.26971(14) 0.85061(11) 0.93773(19)
O7_3 O 0.07549(15) 0.70043(11) 0.68533(19)
C19_3 C 0.1615(2) 0.60173(17) 0.6772(3)
C20_3 C 0.0862(3) 0.5857(2) 0.5497(3)
H13_3 H 0.037(3) 0.618(2) 0.510(4)
C21_3 C 0.0875(3) 0.5208(2) 0.4905(3)
H14_3 H 0.037(3) 0.507(2) 0.403(4)
C22_3 C 0.1643(2) 0.47024(17) 0.5584(3)
C23_3 C 0.2401(2) 0.4864(2) 0.6857(3)
H15_3 H 0.291(3) 0.448(2) 0.730(4)
C24_3 C 0.2390(2) 0.5521(2) 0.7439(3)
H16_3 H 0.286(4) 0.557(3) 0.833(5)
C25_3 C 0.1560(2) 0.66853(17) 0.7448(3)
C26_3 C 0.1607(2) 0.39658(17) 0.4948(3)
C3_3 C 0.9125(3) 0.5208(2) 0.0095(3)
H2_3 H 0.963(3) 0.507(2) 0.097(4)
C8_3 C 0.8393(2) 0.39658(17) 0.0052(3)
O1_3 O 0.92451(15) 0.70043(11) 0.81467(19)
C1_3 C 0.8385(2) 0.60173(17) 0.8228(3)
C2_3 C 0.9138(3) 0.5857(2) 0.9503(3)
H1_3 H 0.963(3) 0.618(2) 0.990(4)
C4_3 C 0.8357(2) 0.47024(17) 0.9416(3)
C5_3 C 0.7599(2) 0.4864(2) 0.8143(3)
H3_3 H 0.709(3) 0.448(2) 0.770(4)
C6_3 C 0.7610(2) 0.5521(2) 0.7561(3)
H4_3 H 0.714(4) 0.557(3) 0.667(5)
C7_3 C 0.8440(2) 0.66853(17) 0.7552(3)
C3_4 C 0.4125(3) 0.0208(2) 0.0095(3)
H2_4 H 0.463(3) 0.007(2) 0.097(4)
O1_4 O 0.42451(15) 0.20043(11) 0.81467(19)
C1_4 C 0.3385(2) 0.10173(17) 0.8228(3)
C2_4 C 0.4138(3) 0.0857(2) 0.9503(3)
H1_4 H 0.463(3) 0.118(2) 0.990(4)
C6_4 C 0.2610(2) 0.0521(2) 0.7561(3)
H4_4 H 0.214(4) 0.057(3) 0.667(5)
C7_4 C 0.3440(2) 0.16853(17) 0.7552(3)
O7_4 O 0.57549(15) 0.20043(11) 0.68533(19)
C19_4 C 0.6615(2) 0.10173(17) 0.6772(3)
C20_4 C 0.5862(3) 0.0857(2) 0.5497(3)
H13_4 H 0.537(3) 0.118(2) 0.510(4)
C21_4 C 0.5875(3) 0.0208(2) 0.4905(3)
H14_4 H 0.537(3) 0.007(2) 0.403(4)
C24_4 C 0.7390(2) 0.0521(2) 0.7439(3)
H16_4 H 0.786(4) 0.057(3) 0.833(5)
C25_4 C 0.6560(2) 0.16853(17) 0.7448(3)
C8_4 C 0.3393(2) 0.89658(17) 0.0052(3)
C4_4 C 0.3357(2) 0.97024(17) 0.9416(3)
C5_4 C 0.2599(2) 0.9864(2) 0.8143(3)
H3_4 H 0.209(3) 0.948(2) 0.770(4)
C22_4 C 0.6643(2) 0.97024(17) 0.5584(3)
C23_4 C 0.7401(2) 0.9864(2) 0.6857(3)
H15_4 H 0.791(3) 0.948(2) 0.730(4)
C26_4 C 0.6607(2) 0.89658(17) 0.4948(3)
loop_
_geom_bond_atom_site_label_1
_geom_bond_atom_site_label_2
_geom_bond_site_symmetry_1
_geom_bond_site_symmetry_2
Mg1 O1 1_555 1_555
Mg2 O2 1_555 1_555
O1 C7 1_555 1_555
O2 C7 1_555 1_555
O5 Mg1 1_555 1_555
N1 O5 1_555 1_555
C1 C2 1_555 1_555
C2 H1 1_555 1_555
C5 C4 1_555 1_555
H3 C5 1_555 1_555
C6 C1 1_555 1_555
H4 C6 1_555 1_555
C7 C1 1_555 1_555
C9 N1 1_555 1_555
H5 C9 1_555 1_555
C10 C9 1_555 1_555
C11 C10 1_555 1_555
C12 C11 1_555 1_555
C13 N1 1_555 1_555
H8 C13 1_555 1_555
Mg9 O4 1_555 1_555
O11 Mg2 1_555 1_555
O13 Mg1 1_555 1_555
O14 Mg2 1_555 1_555
O15 Mg2 1_555 1_555
O17 Mg2 1_555 1_555
Mg2 O5 1_555 1_555
C5 C6 1_555 1_555
C12 C13 1_555 1_555
O3 C8 1_555 1_555
H2 C3 1_555 1_555
Mg5 O3 1_555 1_555
O7 Mg1_2 1_555 1_555
O8 C25 1_555 1_555
O9 C26 1_555 1_555
O10 C26 1_555 1_555
C19 C20 1_555 1_555
C20 H13 1_555 1_555
C21 C20 1_555 1_555
H14 C21 1_555 1_555
C22 C21 1_555 1_555
C23 C22 1_555 1_555
H15 C23 1_555 1_555
C24 C19 1_555 1_555
H16 C24 1_555 1_555
C25 O7 1_555 1_555
C26 C22 1_555 1_555
Mg5_2 O9 1_555 1_555
Mg6 O8 1_555 1_555
Mg8 O10 1_555 1_555
O12 Mg1_2 1_555 1_555
O16 Mg1_2 1_555 1_555
C19 C25 1_555 1_555
C23 C24 1_555 1_555
Mg6 O16 1_555 1_555
O6 N2 1_555 1_555
N2 C14 1_555 1_555
C14 H9 1_555 1_555
C15 C14 1_555 1_555
C17 C16 1_555 1_555
C18 N2 1_555 1_555
H12 C18 1_555 1_555
Mg5_2 O6 1_555 1_555
Mg8 O6 1_555 1_555
C15 C16 1_555 1_555
C17 C18 1_555 1_555
O6_2 N2_2 1_555 1_555
N2_2 C14_2 1_555 1_555
C14_2 H9_2 1_555 1_555
C17_2 C16_2 1_555 1_555
C18_2 N2_2 1_555 1_555
H12_2 C18_2 1_555 1_555
Mg5 O6_2 1_555 1_555
Mg9_2 O6_2 1_555 1_555
C17_2 C18_2 1_555 1_555
N1_2 O16 1_555 1_555
C9_2 N1_2 1_555 1_555
H5_2 C9_2 1_555 1_555
C12_2 C11_2 1_555 1_555
C13_2 N1_2 1_555 1_555
H8_2 C13_2 1_555 1_555
O14_2 Mg6 1_555 1_555
C12_2 C13_2 1_555 1_555
O11_2 Mg6_2 1_555 1_555
O15_2 Mg6_2 1_555 1_555
O17_2 Mg6_2 1_555 1_555
C5_2 C4_2 1_555 1_555
H3_2 C5_2 1_555 1_555
O9_2 C26_2 1_555 1_555
O14 C26_2 1_555 1_555
C23_2 C22_2 1_555 1_555
H15_2 C23_2 1_555 1_555
C26_2 C22_2 1_555 1_555
Mg5_3 O9_2 1_555 1_555
O3_2 C8_2 1_555 1_555
Mg5_3 O3_2 1_555 1_555
Mg1_3 O1_2 1_555 1_555
Mg8 O2_2 1_555 1_555
O1_2 C7_2 1_555 1_555
O2_2 C7_2 1_555 1_555
O5_2 Mg1_3 1_555 1_555
N1_3 O5_2 1_555 1_555
C1_2 C2_2 1_555 1_555
C2_2 H1_2 1_555 1_555
C6_2 C1_2 1_555 1_555
H4_2 C6_2 1_555 1_555
C7_2 C1_2 1_555 1_555
C9_3 N1_3 1_555 1_555
H5_3 C9_3 1_555 1_555
C10_3 C9_3 1_555 1_555
H6_3 C10_3 1_555 1_555
C11_3 C10_3 1_555 1_555
C12_3 C11_3 1_555 1_555
H7_3 C12_3 1_555 1_555
C13_3 N1_3 1_555 1_555
H8_3 C13_3 1_555 1_555
O17 N2_3 1_555 1_555
N2_3 C14_3 1_555 1_555
C14_3 H9_3 1_555 1_555
C15_3 C14_3 1_555 1_555
H10_3 C15_3 1_555 1_555
C16_3 C11_3 1_555 1_555
C17_3 C16_3 1_555 1_555
H11_3 C17_3 1_555 1_555
C18_3 N2_3 1_555 1_555
H12_3 C18_3 1_555 1_555
O7_2 Mg1_3 1_555 1_555
O8_2 C25_2 1_555 1_555
C19_2 C20_2 1_555 1_555
C20_2 H13_2 1_555 1_555
C21_2 C20_2 1_555 1_555
H14_2 C21_2 1_555 1_555
C24_2 C19_2 1_555 1_555
H16_2 C24_2 1_555 1_555
C25_2 O7_2 1_555 1_555
Mg5_3 O17 1_555 1_555
Mg9 O8_2 1_555 1_555
O11_3 Mg8 1_555 1_555
O12_2 Mg1_3 1_555 1_555
O13_2 Mg1_3 1_555 1_555
O15_3 Mg8 1_555 1_555
O16_2 Mg1_3 1_555 1_555
Mg8 O5_2 1_555 1_555
C12_3 C13_3 1_555 1_555
C15_3 C16_3 1_555 1_555
C17_3 C18_3 1_555 1_555
C19_2 C25_2 1_555 1_555
Mg9 O16_2 1_555 1_555
H2_2 C3_2 1_555 1_555
N1_4 O16_2 1_555 1_555
C9_4 N1_4 1_555 1_555
H5_4 C9_4 1_555 1_555
C12_4 C11_4 1_555 1_555
H7_4 C12_4 1_555 1_555
C13_4 N1_4 1_555 1_555
H8_4 C13_4 1_555 1_555
H10_4 C15_4 1_555 1_555
C12_4 C13_4 1_555 1_555
H6_4 C10_4 1_555 1_555
O17_2 N2_4 1_555 1_555
N2_4 C14_4 1_555 1_555
C14_4 H9_4 1_555 1_555
C17_4 C16_4 1_555 1_555
H11_4 C17_4 1_555 1_555
C18_4 N2_4 1_555 1_555
H12_4 C18_4 1_555 1_555
Mg5_3 O17_2 1_555 1_555
O11_4 Mg9_2 1_555 1_555
O15_4 Mg9_2 1_555 1_555
C17_4 C18_4 1_555 1_555
O7_3 Mg5 1_555 1_555
O11_4 C25_3 1_555 1_555
O13 C26_3 1_555 1_555
O15 C26_3 1_555 1_555
C19_3 C20_3 1_555 1_555
C20_3 H13_3 1_555 1_555
C21_3 C20_3 1_555 1_555
H14_3 C21_3 1_555 1_555
C22_3 C21_3 1_555 1_555
C23_3 C22_3 1_555 1_555
H15_3 C23_3 1_555 1_555
C24_3 C19_3 1_555 1_555
H16_3 C24_3 1_555 1_555
C25_3 O7_3 1_555 1_555
C26_3 C22_3 1_555 1_555
C19_3 C25_3 1_555 1_555
C23_3 C24_3 1_555 1_555
O12 C8_3 1_555 1_555
H2_3 C3_3 1_555 1_555
Mg5_2 O1_3 1_555 1_555
O1_3 C7_3 1_555 1_555
O11_3 C7_3 1_555 1_555
C1_3 C2_3 1_555 1_555
C2_3 H1_3 1_555 1_555
C5_3 C4_3 1_555 1_555
H3_3 C5_3 1_555 1_555
C6_3 C1_3 1_555 1_555
H4_3 C6_3 1_555 1_555
C7_3 C1_3 1_555 1_555
C5_3 C6_3 1_555 1_555
H2_4 C3_4 1_555 1_555
Mg5_3 O1_4 1_555 1_555
O1_4 C7_4 1_555 1_555
O11 C7_4 1_555 1_555
C1_4 C2_4 1_555 1_555
C2_4 H1_4 1_555 1_555
C6_4 C1_4 1_555 1_555
H4_4 C6_4 1_555 1_555
C7_4 C1_4 1_555 1_555
O7_4 Mg5_3 1_555 1_555
O11_2 C25_4 1_555 1_555
C19_4 C20_4 1_555 1_555
C20_4 H13_4 1_555 1_555
C21_4 C20_4 1_555 1_555
H14_4 C21_4 1_555 1_555
C24_4 C19_4 1_555 1_555
H16_4 C24_4 1_555 1_555
C25_4 O7_4 1_555 1_555
C19_4 C25_4 1_555 1_555
O12_2 C8_4 1_555 1_555
C5_4 C4_4 1_555 1_555
H3_4 C5_4 1_555 1_555
O13_2 C26_4 1_555 1_555
O15_3 C26_4 1_555 1_555
C23_4 C22_4 1_555 1_555
H15_4 C23_4 1_555 1_555
C26_4 C22_4 1_555 1_555

#END
