
###############################################################################
#
# This file contains modified crystal structure data generated from the
# MOF subset of the Cambridge Structural Database (CSD) v543 
# hosted by the Cambridge Crystallographic Data Centre (CCDC).
#
# This work is licensed under the Creative Commons
# Attribution-NonCommercial-ShareAlike 4.0 International License.
# To view a copy of this license, visit
# http://creativecommons.org/licenses/by-nc-sa/4.0/
# or send a letter to
# Creative Commons, PO Box 1866, Mountain View, CA 94042, USA.
#
# CIF created using the CSD Python API on 29 September 2022
# The structure has been converted into the P1 space group
# The structure has a 3D framework
# The original CSD entry HOQMIL02 is in the monoclinic crystal system
# The framework has been calculated to contain at least 10.0% void space
# The void calculation uses a probe of radius 1.32A, grid spacing 0.4
#
###############################################################################

data_HOQMIL02
_chemical_formula_moiety         '(C104 H64 Mg8 N8 O36)n'
_symmetry_cell_setting           triclinic
_symmetry_space_group_name_H-M   'P 1'
_symmetry_Int_Tables_number      1
_space_group_name_Hall           'P 1'
loop_
_symmetry_equiv_pos_site_id
_symmetry_equiv_pos_as_xyz
1 x,y,z
_cell_length_a                   18.1876(15)
_cell_length_b                   17.2441(14)
_cell_length_c                   13.5313(11)
_cell_angle_alpha                90
_cell_angle_beta                 129.5050(10)
_cell_angle_gamma                90
_cell_volume                     3274.39
loop_
_atom_site_label
_atom_site_type_symbol
_atom_site_fract_x
_atom_site_fract_y
_atom_site_fract_z
Mg2 Mg 0.2500 0.2500 -0.0000
C12 C 0.0068(3) 0.3907(2) 0.0111(4)
Mg5 Mg 0.0000 0.80554(8) 0.2500
O11 O 0.26969(16) 0.31339(13) 0.1449(2)
O15 O 0.23045(16) 0.14887(13) 0.0614(2)
O17 O 0.40025(16) 0.22093(13) 0.1107(2)
Mg1 Mg 0.0000 0.19446(8) 0.7500
Mg2_2 Mg 0.2500 0.2500 1.0000
O1 O 0.07536(16) 0.19999(13) 0.6864(2)
O2 O 0.23031(16) 0.18661(13) 0.8551(2)
O5 O 0.09975(16) 0.27907(13) 0.8893(2)
N1 N 0.07407(19) 0.33990(16) 0.9228(3)
C1 C 0.1619(2) 0.10229(19) 0.6775(3)
C2 C 0.2399(3) 0.0532(2) 0.7437(4)
H1 H 0.295(5) 0.071(4) 0.841(7)
C5 C 0.0875(3) 0.0215(2) 0.4913(4)
H3 H 0.035(3) 0.009(2) 0.407(5)
C6 C 0.0864(3) 0.0860(2) 0.5508(4)
H4 H 0.040(3) 0.120(2) 0.513(4)
C7 C 0.1563(2) 0.16831(19) 0.7451(3)
C9 C 0.0862(3) 0.4118(2) 0.8976(3)
H5 H 0.111(3) 0.416(3) 0.863(4)
C10 C 0.0567(3) 0.4751(2) 0.9256(4)
H6 H 0.072(3) 0.519(3) 0.912(5)
C11 C 0.0153(2) 0.4661(2) 0.9830(3)
C13 C 0.0364(3) 0.3283(2) 0.9803(4)
H8 H 0.030(3) 0.277(3) 0.991(4)
H11 H 0.023(4) 0.622(3) 0.953(5)
O13 O 0.08853(16) 0.11185(13) 0.8799(2)
O14 O 0.26955(16) 0.35113(13) 0.9386(2)
O3 O 0.08853(16) 0.88815(13) 0.3799(2)
O4 O 0.23045(16) 0.85113(13) 0.5614(2)
C3 C 0.2405(3) 0.9872(2) 0.6844(4)
H2 H 0.290(3) 0.953(3) 0.725(4)
C4 C 0.1647(2) 0.97093(19) 0.5586(3)
C8 C 0.1609(2) 0.89743(19) 0.4944(3)
Mg9 Mg 0.2500 0.7500 0.5000
H7 H 0.977(4) 0.378(3) 0.047(5)
O6 O 0.90025(16) 0.72093(13) 0.1107(2)
N2 N 0.92593(19) 0.66010(16) 0.0772(3)
C14 C 0.9138(3) 0.5882(2) 0.1024(3)
H9 H 0.889(3) 0.584(3) 0.137(4)
C15 C 0.9433(3) 0.5249(2) 0.0744(4)
H10 H 0.928(3) 0.481(3) 0.088(5)
C16 C 0.9847(2) 0.5339(2) 0.0170(3)
C18 C 0.9636(3) 0.6717(2) 0.0197(4)
H12 H 0.970(3) 0.723(3) 0.009(4)
C23 C 0.9125(3) 0.0215(2) 0.0087(4)
H15 H 0.965(3) 0.009(2) 0.093(5)
Mg5_2 Mg 1.0000 0.80554(8) 0.2500
Mg8 Mg 0.7500 0.7500 -0.0000
Mg1_2 Mg 1.0000 0.19446(8) 0.7500
C17 C 0.9932(3) 0.6093(2) 0.9889(4)
O7 O 0.92464(16) 0.19999(13) 0.8136(2)
O8 O 0.76969(16) 0.18661(13) 0.6449(2)
C19 C 0.8381(2) 0.10229(19) 0.8225(3)
C20 C 0.7601(3) 0.0532(2) 0.7563(4)
H13 H 0.705(5) 0.071(4) 0.659(7)
C24 C 0.9136(3) 0.0860(2) 0.9492(4)
H16 H 0.960(3) 0.120(2) 0.987(4)
C25 C 0.8437(2) 0.16831(19) 0.7549(3)
Mg6 Mg 0.7500 0.2500 0.5000
Mg8_2 Mg 0.7500 0.7500 1.0000
O12 O 0.91147(16) 0.11185(13) 0.6201(2)
O16 O 0.90025(16) 0.27907(13) 0.6107(2)
O9 O 0.91147(16) 0.88815(13) 0.1201(2)
C26 C 0.8391(2) 0.89743(19) 0.0056(3)
O10 O 0.76955(16) 0.85113(13) 0.9386(2)
C21 C 0.7595(3) 0.9872(2) 0.8156(4)
H14 H 0.710(3) 0.953(3) 0.775(4)
C22 C 0.8353(2) 0.97093(19) 0.9414(3)
H7_2 H 0.023(4) 0.378(3) 0.453(5)
O6_2 O 0.09975(16) 0.72093(13) 0.3893(2)
N2_2 N 0.07407(19) 0.66010(16) 0.4228(3)
C14_2 C 0.0862(3) 0.5882(2) 0.3976(3)
H9_2 H 0.111(3) 0.584(3) 0.363(4)
C15_2 C 0.0567(3) 0.5249(2) 0.4256(4)
H10_2 H 0.072(3) 0.481(3) 0.412(5)
C16_2 C 0.0153(2) 0.5339(2) 0.4830(3)
C17_2 C 0.0068(3) 0.6093(2) 0.5111(4)
C18_2 C 0.0364(3) 0.6717(2) 0.4803(4)
H12_2 H 0.030(3) 0.723(3) 0.491(4)
N1_2 N 0.92593(19) 0.33990(16) 0.5772(3)
C9_2 C 0.9138(3) 0.4118(2) 0.6024(3)
H5_2 H 0.889(3) 0.416(3) 0.637(4)
C10_2 C 0.9433(3) 0.4751(2) 0.5744(4)
H6_2 H 0.928(3) 0.519(3) 0.588(5)
C11_2 C 0.9847(2) 0.4661(2) 0.5170(3)
C12_2 C 0.9932(3) 0.3907(2) 0.4889(4)
C13_2 C 0.9636(3) 0.3283(2) 0.5197(4)
H8_2 H 0.970(3) 0.277(3) 0.509(4)
H11_2 H 0.977(4) 0.622(3) 0.547(5)
O11_2 O 0.73031(16) 0.31339(13) 0.3551(2)
O14_2 O 0.73045(16) 0.35113(13) 0.5614(2)
O15_2 O 0.76955(16) 0.14887(13) 0.4386(2)
O17_2 O 0.59975(16) 0.22093(13) 0.3893(2)
N2_3 N 0.42593(19) 0.16010(16) 0.0772(3)
C14_3 C 0.4138(3) 0.0882(2) 0.1024(3)
H9_3 H 0.389(3) 0.084(3) 0.137(4)
C15_3 C 0.4433(3) 0.0249(2) 0.0744(4)
C16_3 C 0.4847(2) 0.0339(2) 0.0170(3)
C18_3 C 0.4636(3) 0.1717(2) 0.0197(4)
H12_3 H 0.470(3) 0.223(3) 0.009(4)
Mg5_3 Mg 0.5000 0.30554(8) 0.2500
H6_3 H 0.572(3) 0.019(3) 0.912(5)
C17_3 C 0.4932(3) 0.1093(2) 0.9889(4)
H11_3 H 0.523(4) 0.122(3) 0.953(5)
C12_3 C 0.5068(3) 0.8907(2) 0.0111(4)
H7_3 H 0.477(4) 0.878(3) 0.047(5)
H10_3 H 0.428(3) 0.981(3) 0.088(5)
O9_2 O 0.41147(16) 0.38815(13) 0.1201(2)
C23_2 C 0.4125(3) 0.5215(2) 0.0087(4)
H15_2 H 0.465(3) 0.509(2) 0.093(5)
C26_2 C 0.3391(2) 0.39743(19) 0.0056(3)
O11_3 O 0.76969(16) 0.81339(13) 0.1449(2)
O15_3 O 0.73045(16) 0.64887(13) 0.0614(2)
Mg1_3 Mg 0.5000 0.69446(8) 0.7500
O1_2 O 0.57536(16) 0.69999(13) 0.6864(2)
O2_2 O 0.73031(16) 0.68661(13) 0.8551(2)
O3_2 O 0.58853(16) 0.38815(13) 0.3799(2)
O5_2 O 0.59975(16) 0.77907(13) 0.8893(2)
N1_3 N 0.57407(19) 0.83990(16) 0.9228(3)
C1_2 C 0.6619(2) 0.60229(19) 0.6775(3)
C2_2 C 0.7399(3) 0.5532(2) 0.7437(4)
H1_2 H 0.795(5) 0.571(4) 0.841(7)
C3_2 C 0.7405(3) 0.4872(2) 0.6844(4)
H2_2 H 0.790(3) 0.453(3) 0.725(4)
C4_2 C 0.6647(2) 0.47093(19) 0.5586(3)
C5_2 C 0.5875(3) 0.5215(2) 0.4913(4)
H3_2 H 0.535(3) 0.509(2) 0.407(5)
C6_2 C 0.5864(3) 0.5860(2) 0.5508(4)
H4_2 H 0.540(3) 0.620(2) 0.513(4)
C7_2 C 0.6563(2) 0.66831(19) 0.7451(3)
C8_2 C 0.6609(2) 0.39743(19) 0.4944(3)
C9_3 C 0.5862(3) 0.9118(2) 0.8976(3)
H5_3 H 0.611(3) 0.916(3) 0.863(4)
C10_3 C 0.5567(3) 0.9751(2) 0.9256(4)
C11_3 C 0.5153(2) 0.9661(2) 0.9830(3)
C13_3 C 0.5364(3) 0.8283(2) 0.9803(4)
H8_3 H 0.530(3) 0.777(3) 0.991(4)
O7_2 O 0.42464(16) 0.69999(13) 0.8136(2)
O8_2 O 0.26969(16) 0.68661(13) 0.6449(2)
C19_2 C 0.3381(2) 0.60229(19) 0.8225(3)
C20_2 C 0.2601(3) 0.5532(2) 0.7563(4)
H13_2 H 0.205(5) 0.571(4) 0.659(7)
C21_2 C 0.2595(3) 0.4872(2) 0.8156(4)
H14_2 H 0.210(3) 0.453(3) 0.775(4)
C22_2 C 0.3353(2) 0.47093(19) 0.9414(3)
C24_2 C 0.4136(3) 0.5860(2) 0.9492(4)
H16_2 H 0.460(3) 0.620(2) 0.987(4)
C25_2 C 0.3437(2) 0.66831(19) 0.7549(3)
O12_2 O 0.41147(16) 0.61185(13) 0.6201(2)
O13_2 O 0.58853(16) 0.61185(13) 0.8799(2)
O16_2 O 0.40025(16) 0.77907(13) 0.6107(2)
H6_4 H 0.428(3) 0.019(3) 0.588(5)
N2_4 N 0.57407(19) 0.16010(16) 0.4228(3)
C14_4 C 0.5862(3) 0.0882(2) 0.3976(3)
H9_4 H 0.611(3) 0.084(3) 0.363(4)
C15_4 C 0.5567(3) 0.0249(2) 0.4256(4)
C16_4 C 0.5153(2) 0.0339(2) 0.4830(3)
C17_4 C 0.5068(3) 0.1093(2) 0.5111(4)
H11_4 H 0.477(4) 0.122(3) 0.547(5)
C18_4 C 0.5364(3) 0.1717(2) 0.4803(4)
H12_4 H 0.530(3) 0.223(3) 0.491(4)
N1_4 N 0.42593(19) 0.83990(16) 0.5772(3)
C9_4 C 0.4138(3) 0.9118(2) 0.6024(3)
H5_4 H 0.389(3) 0.916(3) 0.637(4)
C10_4 C 0.4433(3) 0.9751(2) 0.5744(4)
C11_4 C 0.4847(2) 0.9661(2) 0.5170(3)
C12_4 C 0.4932(3) 0.8907(2) 0.4889(4)
H7_4 H 0.523(4) 0.878(3) 0.453(5)
C13_4 C 0.4636(3) 0.8283(2) 0.5197(4)
H8_4 H 0.470(3) 0.777(3) 0.509(4)
H10_4 H 0.572(3) 0.981(3) 0.412(5)
O11_4 O 0.23031(16) 0.81339(13) 0.3551(2)
O15_4 O 0.26955(16) 0.64887(13) 0.4386(2)
C21_3 C 0.2405(3) 0.0128(2) 0.1844(4)
H14_3 H 0.290(3) 0.047(3) 0.225(4)
C22_3 C 0.1647(2) 0.02907(19) 0.0586(3)
C26_3 C 0.1609(2) 0.10257(19) 0.9944(3)
O7_3 O 0.07536(16) 0.80001(13) 0.1864(2)
C19_3 C 0.1619(2) 0.89771(19) 0.1775(3)
C20_3 C 0.2399(3) 0.9468(2) 0.2437(4)
H13_3 H 0.295(5) 0.929(4) 0.341(7)
C24_3 C 0.0864(3) 0.9140(2) 0.0508(4)
H16_3 H 0.040(3) 0.880(2) 0.013(4)
C25_3 C 0.1563(2) 0.83169(19) 0.2451(3)
C23_3 C 0.0875(3) 0.9785(2) 0.9913(4)
H15_3 H 0.035(3) 0.991(2) 0.907(5)
C3_3 C 0.7595(3) 0.0128(2) 0.3156(4)
H2_3 H 0.710(3) 0.047(3) 0.275(4)
C4_3 C 0.8353(2) 0.02907(19) 0.4414(3)
C8_3 C 0.8391(2) 0.10257(19) 0.5056(3)
O1_3 O 0.92464(16) 0.80001(13) 0.3136(2)
C1_3 C 0.8381(2) 0.89771(19) 0.3225(3)
C2_3 C 0.7601(3) 0.9468(2) 0.2563(4)
H1_3 H 0.705(5) 0.929(4) 0.159(7)
C5_3 C 0.9125(3) 0.9785(2) 0.5087(4)
H3_3 H 0.965(3) 0.991(2) 0.593(5)
C6_3 C 0.9136(3) 0.9140(2) 0.4492(4)
H4_3 H 0.960(3) 0.880(2) 0.487(4)
C7_3 C 0.8437(2) 0.83169(19) 0.2549(3)
O1_4 O 0.42464(16) 0.30001(13) 0.3136(2)
C1_4 C 0.3381(2) 0.39771(19) 0.3225(3)
C2_4 C 0.2601(3) 0.4468(2) 0.2563(4)
H1_4 H 0.205(5) 0.429(4) 0.159(7)
C3_4 C 0.2595(3) 0.5128(2) 0.3156(4)
H2_4 H 0.210(3) 0.547(3) 0.275(4)
C4_4 C 0.3353(2) 0.52907(19) 0.4414(3)
C5_4 C 0.4125(3) 0.4785(2) 0.5087(4)
H3_4 H 0.465(3) 0.491(2) 0.593(5)
C6_4 C 0.4136(3) 0.4140(2) 0.4492(4)
H4_4 H 0.460(3) 0.380(2) 0.487(4)
C7_4 C 0.3437(2) 0.33169(19) 0.2549(3)
C8_4 C 0.3391(2) 0.60257(19) 0.5056(3)
O7_4 O 0.57536(16) 0.30001(13) 0.1864(2)
C19_4 C 0.6619(2) 0.39771(19) 0.1775(3)
C20_4 C 0.7399(3) 0.4468(2) 0.2437(4)
H13_4 H 0.795(5) 0.429(4) 0.341(7)
C21_4 C 0.7405(3) 0.5128(2) 0.1844(4)
H14_4 H 0.790(3) 0.547(3) 0.225(4)
C22_4 C 0.6647(2) 0.52907(19) 0.0586(3)
C24_4 C 0.5864(3) 0.4140(2) 0.0508(4)
H16_4 H 0.540(3) 0.380(2) 0.013(4)
C25_4 C 0.6563(2) 0.33169(19) 0.2451(3)
C23_4 C 0.5875(3) 0.4785(2) 0.9913(4)
H15_4 H 0.535(3) 0.491(2) 0.907(5)
C26_4 C 0.6609(2) 0.60257(19) 0.9944(3)
loop_
_geom_bond_atom_site_label_1
_geom_bond_atom_site_label_2
_geom_bond_site_symmetry_1
_geom_bond_site_symmetry_2
O11 Mg2 1_555 1_555
O15 Mg2 1_555 1_555
O17 Mg2 1_555 1_555
Mg1 O1 1_555 1_555
Mg2_2 O2 1_555 1_555
O1 C7 1_555 1_555
O2 C7 1_555 1_555
O5 Mg1 1_555 1_555
N1 O5 1_555 1_555
C1 C2 1_555 1_555
C2 H1 1_555 1_555
H3 C5 1_555 1_555
C6 C1 1_555 1_555
H4 C6 1_555 1_555
C7 C1 1_555 1_555
C9 N1 1_555 1_555
H5 C9 1_555 1_555
C10 C9 1_555 1_555
H6 C10 1_555 1_555
C11 C10 1_555 1_555
C13 N1 1_555 1_555
H8 C13 1_555 1_555
O13 Mg1 1_555 1_555
O14 Mg2_2 1_555 1_555
Mg2_2 O5 1_555 1_555
C5 C6 1_555 1_555
O3 C8 1_555 1_555
O4 C8 1_555 1_555
H2 C3 1_555 1_555
C4 C3 1_555 1_555
C8 C4 1_555 1_555
Mg5 O3 1_555 1_555
Mg9 O4 1_555 1_555
O6 N2 1_555 1_555
N2 C14 1_555 1_555
C14 H9 1_555 1_555
C15 C14 1_555 1_555
H10 C15 1_555 1_555
C18 N2 1_555 1_555
H12 C18 1_555 1_555
H15 C23 1_555 1_555
Mg5_2 O6 1_555 1_555
Mg8 O6 1_555 1_555
C15 C16 1_555 1_555
O7 Mg1_2 1_555 1_555
O8 C25 1_555 1_555
C19 C20 1_555 1_555
C20 H13 1_555 1_555
C24 C19 1_555 1_555
H16 C24 1_555 1_555
C25 O7 1_555 1_555
Mg6 O8 1_555 1_555
O12 Mg1_2 1_555 1_555
O16 Mg1_2 1_555 1_555
C19 C25 1_555 1_555
Mg6 O16 1_555 1_555
O9 C26 1_555 1_555
Mg5_2 O9 1_555 1_555
H14 C21 1_555 1_555
C22 C21 1_555 1_555
Mg8_2 O10 1_555 1_555
O6_2 N2_2 1_555 1_555
N2_2 C14_2 1_555 1_555
C14_2 H9_2 1_555 1_555
C15_2 C14_2 1_555 1_555
H10_2 C15_2 1_555 1_555
C17_2 C16_2 1_555 1_555
C18_2 N2_2 1_555 1_555
H12_2 C18_2 1_555 1_555
Mg5 O6_2 1_555 1_555
Mg9 O6_2 1_555 1_555
C15_2 C16_2 1_555 1_555
C17_2 C18_2 1_555 1_555
N1_2 O16 1_555 1_555
C9_2 N1_2 1_555 1_555
H5_2 C9_2 1_555 1_555
C10_2 C9_2 1_555 1_555
H6_2 C10_2 1_555 1_555
C11_2 C10_2 1_555 1_555
C12_2 C11_2 1_555 1_555
C13_2 N1_2 1_555 1_555
H8_2 C13_2 1_555 1_555
O11_2 Mg6 1_555 1_555
O14_2 Mg6 1_555 1_555
O15_2 Mg6 1_555 1_555
O17_2 Mg6 1_555 1_555
C12_2 C13_2 1_555 1_555
O17 N2_3 1_555 1_555
N2_3 C14_3 1_555 1_555
C14_3 H9_3 1_555 1_555
C15_3 C14_3 1_555 1_555
C18_3 N2_3 1_555 1_555
H12_3 C18_3 1_555 1_555
Mg5_3 O17 1_555 1_555
C15_3 C16_3 1_555 1_555
H11_3 C17_3 1_555 1_555
H7_3 C12_3 1_555 1_555
O9_2 C26_2 1_555 1_555
H15_2 C23_2 1_555 1_555
Mg5_3 O9_2 1_555 1_555
O11_3 Mg8 1_555 1_555
O15_3 Mg8 1_555 1_555
Mg1_3 O1_2 1_555 1_555
Mg8_2 O2_2 1_555 1_555
O1_2 C7_2 1_555 1_555
O2_2 C7_2 1_555 1_555
O3_2 C8_2 1_555 1_555
O14_2 C8_2 1_555 1_555
O5_2 Mg1_3 1_555 1_555
N1_3 O5_2 1_555 1_555
C1_2 C2_2 1_555 1_555
C2_2 H1_2 1_555 1_555
C3_2 C2_2 1_555 1_555
H2_2 C3_2 1_555 1_555
C4_2 C3_2 1_555 1_555
C5_2 C4_2 1_555 1_555
H3_2 C5_2 1_555 1_555
C6_2 C1_2 1_555 1_555
H4_2 C6_2 1_555 1_555
C7_2 C1_2 1_555 1_555
C8_2 C4_2 1_555 1_555
C9_3 N1_3 1_555 1_555
H5_3 C9_3 1_555 1_555
C10_3 C9_3 1_555 1_555
C11_3 C10_3 1_555 1_555
C13_3 N1_3 1_555 1_555
H8_3 C13_3 1_555 1_555
O7_2 Mg1_3 1_555 1_555
O8_2 C25_2 1_555 1_555
C19_2 C20_2 1_555 1_555
C20_2 H13_2 1_555 1_555
C21_2 C20_2 1_555 1_555
H14_2 C21_2 1_555 1_555
C22_2 C21_2 1_555 1_555
C24_2 C19_2 1_555 1_555
H16_2 C24_2 1_555 1_555
C25_2 O7_2 1_555 1_555
Mg5_3 O3_2 1_555 1_555
Mg9 O8_2 1_555 1_555
O12_2 Mg1_3 1_555 1_555
O13_2 Mg1_3 1_555 1_555
O16_2 Mg1_3 1_555 1_555
Mg8_2 O5_2 1_555 1_555
C5_2 C6_2 1_555 1_555
C19_2 C25_2 1_555 1_555
Mg9 O16_2 1_555 1_555
O17_2 N2_4 1_555 1_555
N2_4 C14_4 1_555 1_555
C14_4 H9_4 1_555 1_555
C15_4 C14_4 1_555 1_555
C17_4 C16_4 1_555 1_555
H11_4 C17_4 1_555 1_555
C18_4 N2_4 1_555 1_555
H12_4 C18_4 1_555 1_555
Mg5_3 O17_2 1_555 1_555
C15_4 C16_4 1_555 1_555
C17_4 C18_4 1_555 1_555
N1_4 O16_2 1_555 1_555
C9_4 N1_4 1_555 1_555
H5_4 C9_4 1_555 1_555
C10_4 C9_4 1_555 1_555
C11_4 C10_4 1_555 1_555
C12_4 C11_4 1_555 1_555
H7_4 C12_4 1_555 1_555
C13_4 N1_4 1_555 1_555
H8_4 C13_4 1_555 1_555
O11_4 Mg9 1_555 1_555
O15_4 Mg9 1_555 1_555
C12_4 C13_4 1_555 1_555
H14_3 C21_3 1_555 1_555
C22_3 C21_3 1_555 1_555
O13 C26_3 1_555 1_555
O7_3 Mg5 1_555 1_555
O11_4 C25_3 1_555 1_555
C19_3 C20_3 1_555 1_555
C20_3 H13_3 1_555 1_555
C24_3 C19_3 1_555 1_555
H16_3 C24_3 1_555 1_555
C25_3 O7_3 1_555 1_555
C19_3 C25_3 1_555 1_555
H15_3 C23_3 1_555 1_555
O12 C8_3 1_555 1_555
O15_2 C8_3 1_555 1_555
H2_3 C3_3 1_555 1_555
C4_3 C3_3 1_555 1_555
C8_3 C4_3 1_555 1_555
Mg5_2 O1_3 1_555 1_555
O1_3 C7_3 1_555 1_555
O11_3 C7_3 1_555 1_555
C1_3 C2_3 1_555 1_555
C2_3 H1_3 1_555 1_555
H3_3 C5_3 1_555 1_555
C6_3 C1_3 1_555 1_555
H4_3 C6_3 1_555 1_555
C7_3 C1_3 1_555 1_555
C5_3 C6_3 1_555 1_555
Mg5_3 O1_4 1_555 1_555
O1_4 C7_4 1_555 1_555
O11 C7_4 1_555 1_555
O12_2 C8_4 1_555 1_555
O15_4 C8_4 1_555 1_555
C1_4 C2_4 1_555 1_555
C2_4 H1_4 1_555 1_555
C3_4 C2_4 1_555 1_555
H2_4 C3_4 1_555 1_555
C4_4 C3_4 1_555 1_555
C5_4 C4_4 1_555 1_555
H3_4 C5_4 1_555 1_555
C6_4 C1_4 1_555 1_555
H4_4 C6_4 1_555 1_555
C7_4 C1_4 1_555 1_555
C8_4 C4_4 1_555 1_555
O7_4 Mg5_3 1_555 1_555
O11_2 C25_4 1_555 1_555
C19_4 C20_4 1_555 1_555
C20_4 H13_4 1_555 1_555
C21_4 C20_4 1_555 1_555
H14_4 C21_4 1_555 1_555
C22_4 C21_4 1_555 1_555
C24_4 C19_4 1_555 1_555
H16_4 C24_4 1_555 1_555
C25_4 O7_4 1_555 1_555
C5_4 C6_4 1_555 1_555
C19_4 C25_4 1_555 1_555
O13_2 C26_4 1_555 1_555
H15_4 C23_4 1_555 1_555

#END
