
###############################################################################
#
# This file contains modified crystal structure data generated from the
# MOF subset of the Cambridge Structural Database (CSD) v543 
# hosted by the Cambridge Crystallographic Data Centre (CCDC).
#
# This work is licensed under the Creative Commons
# Attribution-NonCommercial-ShareAlike 4.0 International License.
# To view a copy of this license, visit
# http://creativecommons.org/licenses/by-nc-sa/4.0/
# or send a letter to
# Creative Commons, PO Box 1866, Mountain View, CA 94042, USA.
#
# CIF created using the CSD Python API on 29 September 2022
# The structure has been converted into the P1 space group
# The structure has a 3D framework
# The original CSD entry HOQNEI is in the monoclinic crystal system
# The framework has been calculated to contain at least 10.0% void space
# The void calculation uses a probe of radius 1.32A, grid spacing 0.4
#
###############################################################################

data_HOQNEI
_chemical_formula_moiety         '(C104 H64 Mg8 N8 O36)n'
_symmetry_cell_setting           triclinic
_symmetry_space_group_name_H-M   'P 1'
_symmetry_Int_Tables_number      1
_space_group_name_Hall           'P 1'
loop_
_symmetry_equiv_pos_site_id
_symmetry_equiv_pos_as_xyz
1 x,y,z
_cell_length_a                   17.3288(19)
_cell_length_b                   17.7491(19)
_cell_length_c                   12.8570(14)
_cell_angle_alpha                90
_cell_angle_beta                 126.530(2)
_cell_angle_gamma                90
_cell_volume                     3177.57
loop_
_atom_site_label
_atom_site_type_symbol
_atom_site_fract_x
_atom_site_fract_y
_atom_site_fract_z
O7 O 0.72546(17) 0.15291(13) 0.0629(2)
C19 C 0.6650(3) 0.03140(19) 0.0573(3)
C24 C 0.7397(3) 0.0165(2) 0.1848(4)
H16 H 0.7893 0.0512 0.2320
Mg3 Mg 0.7500 0.2500 0.0000
Mg1 Mg 0.2500 0.2500 0.5000
Mg2 Mg 0.5000 0.19483(8) 0.7500
O1 O 0.27454(17) 0.15291(13) 0.4371(2)
O2 O 0.41385(18) 0.11508(13) 0.6193(2)
O5 O 0.40262(17) 0.27875(12) 0.6132(2)
N1 N 0.4301(2) 0.33944(16) 0.5826(3)
C1 C 0.3350(3) 0.03140(19) 0.4427(3)
C6 C 0.2603(3) 0.0165(2) 0.3152(4)
H4 H 0.2107 0.0512 0.2680
C7 C 0.3417(3) 0.10570(19) 0.5049(3)
C9 C 0.4785(3) 0.3320(2) 0.5320(4)
H5 H 0.4933 0.2842 0.5190
C10 C 0.5063(3) 0.3940(2) 0.4993(5)
H6 H 0.5392 0.3879 0.4633
C11 C 0.4862(3) 0.4660(2) 0.5188(3)
C12 C 0.4368(3) 0.4713(2) 0.5726(4)
H7 H 0.4223 0.5186 0.5882
C13 C 0.4089(3) 0.4074(2) 0.6033(4)
H8 H 0.3752 0.4117 0.6385
O6 O 0.59738(17) 0.72125(12) 0.3868(2)
N2 N 0.5699(2) 0.66056(16) 0.4174(3)
C14 C 0.5215(3) 0.6680(2) 0.4680(4)
H9 H 0.5067 0.7158 0.4810
C15 C 0.4937(3) 0.6060(2) 0.5007(5)
H10 H 0.4608 0.6121 0.5367
C16 C 0.5138(3) 0.5340(2) 0.4812(3)
C17 C 0.5632(3) 0.5287(2) 0.4274(4)
H11 H 0.5777 0.4814 0.4118
C18 C 0.5911(3) 0.5926(2) 0.3967(4)
H12 H 0.6248 0.5883 0.3615
O8 O 0.58615(18) 0.11508(13) 0.8807(2)
C25 C 0.6583(3) 0.10570(19) 0.9951(3)
Mg3_2 Mg 0.7500 0.2500 1.0000
Mg5 Mg 0.7500 0.7500 0.5000
Mg9 Mg 0.5000 0.80517(8) 0.2500
O11 O 0.22546(17) 0.34709(13) 0.5629(2)
O12 O 0.23605(17) 0.31384(13) 0.3533(2)
O13 O 0.26395(17) 0.18616(13) 0.6467(2)
O14 O 0.58207(18) 0.20070(13) 0.6859(2)
O15 O 0.41793(18) 0.20070(13) 0.8141(2)
O16 O 0.59738(17) 0.27875(12) 0.8868(2)
O17 O 0.09738(17) 0.22125(12) 0.3868(2)
O9 O 0.73605(17) 0.81384(13) 0.3533(2)
O10 O 0.58207(18) 0.79930(13) 0.1859(2)
C21 C 0.5934(3) 0.9135(2) 0.0480(4)
H14 H 0.5436 0.8790 0.0009
C22 C 0.6670(3) 0.89898(19) 0.1756(3)
C23 C 0.7413(3) 0.9500(2) 0.2429(4)
H15 H 0.7929 0.9397 0.3280
C26 C 0.6625(3) 0.83194(19) 0.2438(3)
O3 O 0.26395(17) 0.81384(13) 0.1467(2)
O4 O 0.41793(18) 0.79930(13) 0.3141(2)
C2 C 0.4071(3) 0.9787(2) 0.5110(4)
H1 H 0.4567 0.9872 0.5978
C3 C 0.4066(3) 0.9135(2) 0.4520(4)
H2 H 0.4564 0.8790 0.4991
C4 C 0.3330(3) 0.89898(19) 0.3244(3)
C5 C 0.2587(3) 0.9500(2) 0.2571(4)
H3 H 0.2071 0.9397 0.1720
C8 C 0.3375(3) 0.83194(19) 0.2562(3)
C20 C 0.5929(3) 0.9787(2) 0.9890(4)
H13 H 0.5433 0.9872 0.9022
Mg6 Mg 0.2500 0.7500 0.0000
Mg6_2 Mg 0.2500 0.7500 1.0000
C10_2 C 0.4937(3) 0.3940(2) 0.0007(5)
H6_2 H 0.4608 0.3879 0.0367
O6_2 O 0.40262(17) 0.72125(12) 0.1132(2)
N2_2 N 0.4301(2) 0.66056(16) 0.0826(3)
C14_2 C 0.4785(3) 0.6680(2) 0.0320(4)
H9_2 H 0.4933 0.7158 0.0190
C16_2 C 0.4862(3) 0.5340(2) 0.0188(3)
C17_2 C 0.4368(3) 0.5287(2) 0.0726(4)
H11_2 H 0.4223 0.4814 0.0882
C18_2 C 0.4089(3) 0.5926(2) 0.1033(4)
H12_2 H 0.3752 0.5883 0.1385
O12_2 O 0.76395(17) 0.31384(13) 0.1467(2)
O17_2 O 0.90262(17) 0.22125(12) 0.1132(2)
N1_2 N 0.5699(2) 0.33944(16) 0.9174(3)
C9_2 C 0.5215(3) 0.3320(2) 0.9680(4)
H5_2 H 0.5067 0.2842 0.9810
C11_2 C 0.5138(3) 0.4660(2) 0.9812(3)
C12_2 C 0.5632(3) 0.4713(2) 0.9274(4)
H7_2 H 0.5777 0.5186 0.9118
C13_2 C 0.5911(3) 0.4074(2) 0.8967(4)
H8_2 H 0.6248 0.4117 0.8615
C15_2 C 0.5063(3) 0.6060(2) 0.9993(5)
H10_2 H 0.5392 0.6121 0.9633
O11_2 O 0.77454(17) 0.34709(13) 0.9371(2)
O13_2 O 0.73605(17) 0.18616(13) 0.8533(2)
N2_3 N 0.0699(2) 0.16056(16) 0.4174(3)
C14_3 C 0.0215(3) 0.1680(2) 0.4680(4)
H9_3 H 0.0067 0.2158 0.4810
C16_3 C 0.0138(3) 0.0340(2) 0.4812(3)
C17_3 C 0.0632(3) 0.0287(2) 0.4274(4)
C18_3 C 0.0911(3) 0.0926(2) 0.3967(4)
H12_3 H 0.1248 0.0883 0.3615
Mg9_2 Mg 0.0000 0.30517(8) 0.2500
O7_2 O 0.22546(17) 0.65291(13) 0.0629(2)
O10_2 O 0.08207(18) 0.29930(13) 0.1859(2)
C19_2 C 0.1650(3) 0.53140(19) 0.0573(3)
C21_2 C 0.0934(3) 0.4135(2) 0.0480(4)
H14_2 H 0.0436 0.3790 0.0009
C22_2 C 0.1670(3) 0.39898(19) 0.1756(3)
C23_2 C 0.2413(3) 0.4500(2) 0.2429(4)
H15_2 H 0.2929 0.4397 0.3280
C24_2 C 0.2397(3) 0.5165(2) 0.1848(4)
H16_2 H 0.2893 0.5512 0.2320
C26_2 C 0.1625(3) 0.33194(19) 0.2438(3)
Mg2_2 Mg 0.0000 0.69483(8) 0.7500
C10_3 C 0.0063(3) 0.8940(2) 0.4993(5)
H6_3 H 0.0392 0.8879 0.4633
H11_3 H 0.0777 0.9814 0.4118
O8_2 O 0.08615(18) 0.61508(13) 0.8807(2)
C20_2 C 0.0929(3) 0.4787(2) 0.9890(4)
H13_2 H 0.0433 0.4872 0.9022
C25_2 C 0.1583(3) 0.60570(19) 0.9951(3)
O14_2 O 0.08207(18) 0.70070(13) 0.6859(2)
O16_2 O 0.09738(17) 0.77875(12) 0.8868(2)
H7_3 H 0.9223 0.0186 0.5882
C15_3 C 0.9937(3) 0.1060(2) 0.5007(5)
H10_3 H 0.9608 0.1121 0.5367
Mg9_3 Mg 1.0000 0.30517(8) 0.2500
Mg2_3 Mg 1.0000 0.69483(8) 0.7500
O1_2 O 0.77454(17) 0.65291(13) 0.4371(2)
O2_2 O 0.91385(18) 0.61508(13) 0.6193(2)
O4_2 O 0.91793(18) 0.29930(13) 0.3141(2)
O5_2 O 0.90262(17) 0.77875(12) 0.6132(2)
N1_3 N 0.9301(2) 0.83944(16) 0.5826(3)
C1_2 C 0.8350(3) 0.53140(19) 0.4427(3)
C2_2 C 0.9071(3) 0.4787(2) 0.5110(4)
H1_2 H 0.9567 0.4872 0.5978
C3_2 C 0.9066(3) 0.4135(2) 0.4520(4)
H2_2 H 0.9564 0.3790 0.4991
C4_2 C 0.8330(3) 0.39898(19) 0.3244(3)
C5_2 C 0.7587(3) 0.4500(2) 0.2571(4)
H3_2 H 0.7071 0.4397 0.1720
C6_2 C 0.7603(3) 0.5165(2) 0.3152(4)
H4_2 H 0.7107 0.5512 0.2680
C7_2 C 0.8417(3) 0.60570(19) 0.5049(3)
C8_2 C 0.8375(3) 0.33194(19) 0.2562(3)
C9_3 C 0.9785(3) 0.8320(2) 0.5320(4)
H5_3 H 0.9933 0.7842 0.5190
C11_3 C 0.9862(3) 0.9660(2) 0.5188(3)
C12_3 C 0.9368(3) 0.9713(2) 0.5726(4)
C13_3 C 0.9089(3) 0.9074(2) 0.6033(4)
H8_3 H 0.8752 0.9117 0.6385
O11_3 O 0.72546(17) 0.84709(13) 0.5629(2)
O13_3 O 0.76395(17) 0.68616(13) 0.6467(2)
O15_2 O 0.91793(18) 0.70070(13) 0.8141(2)
H7_4 H 0.0777 0.0186 0.9118
C15_4 C 0.0063(3) 0.1060(2) 0.9993(5)
H10_4 H 0.0392 0.1121 0.9633
N1_4 N 0.0699(2) 0.83944(16) 0.9174(3)
C9_4 C 0.0215(3) 0.8320(2) 0.9680(4)
H5_4 H 0.0067 0.7842 0.9810
C11_4 C 0.0138(3) 0.9660(2) 0.9812(3)
C12_4 C 0.0632(3) 0.9713(2) 0.9274(4)
C13_4 C 0.0911(3) 0.9074(2) 0.8967(4)
H8_4 H 0.1248 0.9117 0.8615
O11_4 O 0.27454(17) 0.84709(13) 0.9371(2)
O13_4 O 0.23605(17) 0.68616(13) 0.8533(2)
N2_4 N 0.9301(2) 0.16056(16) 0.0826(3)
C14_4 C 0.9785(3) 0.1680(2) 0.0320(4)
H9_4 H 0.9933 0.2158 0.0190
C16_4 C 0.9862(3) 0.0340(2) 0.0188(3)
C17_4 C 0.9368(3) 0.0287(2) 0.0726(4)
C18_4 C 0.9089(3) 0.0926(2) 0.1033(4)
H12_4 H 0.8752 0.0883 0.1385
C10_4 C 0.9937(3) 0.8940(2) 0.0007(5)
H6_4 H 0.9608 0.8879 0.0367
H11_4 H 0.9223 0.9814 0.0882
C2_3 C 0.5929(3) 0.0213(2) 0.4890(4)
H1_3 H 0.5433 0.0128 0.4022
C3_3 C 0.5934(3) 0.0865(2) 0.5480(4)
H2_3 H 0.5436 0.1210 0.5009
C4_3 C 0.6670(3) 0.10102(19) 0.6756(3)
C5_3 C 0.7413(3) 0.0500(2) 0.7429(4)
H3_3 H 0.7929 0.0603 0.8280
C8_3 C 0.6625(3) 0.16806(19) 0.7438(3)
C20_3 C 0.4071(3) 0.0213(2) 0.0110(4)
H13_3 H 0.4567 0.0128 0.0978
C21_3 C 0.4066(3) 0.0865(2) 0.9520(4)
H14_3 H 0.4564 0.1210 0.9991
C22_3 C 0.3330(3) 0.10102(19) 0.8244(3)
C23_3 C 0.2587(3) 0.0500(2) 0.7571(4)
H15_3 H 0.2071 0.0603 0.6720
C26_3 C 0.3375(3) 0.16806(19) 0.7562(3)
O2_3 O 0.58615(18) 0.88492(13) 0.3807(2)
C1_3 C 0.6650(3) 0.96860(19) 0.5573(3)
C6_3 C 0.7397(3) 0.9835(2) 0.6848(4)
H4_3 H 0.7893 0.9488 0.7320
C7_3 C 0.6583(3) 0.89430(19) 0.4951(3)
O8_3 O 0.41385(18) 0.88492(13) 0.1193(2)
C25_3 C 0.3417(3) 0.89430(19) 0.0049(3)
C19_3 C 0.3350(3) 0.96860(19) 0.9427(3)
C24_3 C 0.2603(3) 0.9835(2) 0.8152(4)
H16_3 H 0.2107 0.9488 0.7680
O2_4 O 0.08615(18) 0.38492(13) 0.3807(2)
C1_4 C 0.1650(3) 0.46860(19) 0.5573(3)
C2_4 C 0.0929(3) 0.5213(2) 0.4890(4)
H1_4 H 0.0433 0.5128 0.4022
C3_4 C 0.0934(3) 0.5865(2) 0.5480(4)
H2_4 H 0.0436 0.6210 0.5009
C4_4 C 0.1670(3) 0.60102(19) 0.6756(3)
C5_4 C 0.2413(3) 0.5500(2) 0.7429(4)
H3_4 H 0.2929 0.5603 0.8280
C6_4 C 0.2397(3) 0.4835(2) 0.6848(4)
H4_4 H 0.2893 0.4488 0.7320
C7_4 C 0.1583(3) 0.39430(19) 0.4951(3)
C8_4 C 0.1625(3) 0.66806(19) 0.7438(3)
O8_4 O 0.91385(18) 0.38492(13) 0.1193(2)
C20_4 C 0.9071(3) 0.5213(2) 0.0110(4)
H13_4 H 0.9567 0.5128 0.0978
C25_4 C 0.8417(3) 0.39430(19) 0.0049(3)
C19_4 C 0.8350(3) 0.46860(19) 0.9427(3)
C21_4 C 0.9066(3) 0.5865(2) 0.9520(4)
H14_4 H 0.9564 0.6210 0.9991
C22_4 C 0.8330(3) 0.60102(19) 0.8244(3)
C23_4 C 0.7587(3) 0.5500(2) 0.7571(4)
H15_4 H 0.7071 0.5603 0.6720
C24_4 C 0.7603(3) 0.4835(2) 0.8152(4)
H16_4 H 0.7107 0.4488 0.7680
C26_4 C 0.8375(3) 0.66806(19) 0.7562(3)
loop_
_geom_bond_atom_site_label_1
_geom_bond_atom_site_label_2
_geom_bond_site_symmetry_1
_geom_bond_site_symmetry_2
C24 C19 1_555 1_555
H16 C24 1_555 1_555
Mg3 O7 1_555 1_555
Mg1 O1 1_555 1_555
Mg2 O2 1_555 1_555
O1 C7 1_555 1_555
O2 C7 1_555 1_555
O5 Mg1 1_555 1_555
N1 O5 1_555 1_555
C6 C1 1_555 1_555
H4 C6 1_555 1_555
C7 C1 1_555 1_555
C9 N1 1_555 1_555
H5 C9 1_555 1_555
C10 C9 1_555 1_555
H6 C10 1_555 1_555
C11 C10 1_555 1_555
C12 C11 1_555 1_555
H7 C12 1_555 1_555
C13 N1 1_555 1_555
H8 C13 1_555 1_555
O6 N2 1_555 1_555
N2 C14 1_555 1_555
C14 H9 1_555 1_555
C15 C14 1_555 1_555
H10 C15 1_555 1_555
C16 C11 1_555 1_555
C17 C16 1_555 1_555
H11 C17 1_555 1_555
C18 N2 1_555 1_555
H12 C18 1_555 1_555
O8 Mg2 1_555 1_555
C25 O8 1_555 1_555
Mg5 O6 1_555 1_555
Mg9 O6 1_555 1_555
O11 Mg1 1_555 1_555
O12 Mg1 1_555 1_555
O13 Mg1 1_555 1_555
O14 Mg2 1_555 1_555
O15 Mg2 1_555 1_555
O16 Mg2 1_555 1_555
O17 Mg1 1_555 1_555
Mg2 O5 1_555 1_555
C12 C13 1_555 1_555
C15 C16 1_555 1_555
C17 C18 1_555 1_555
Mg3_2 O16 1_555 1_555
O9 C26 1_555 1_555
O10 C26 1_555 1_555
H14 C21 1_555 1_555
C22 C21 1_555 1_555
C23 C22 1_555 1_555
H15 C23 1_555 1_555
C26 C22 1_555 1_555
Mg5 O9 1_555 1_555
Mg9 O10 1_555 1_555
O3 C8 1_555 1_555
O4 C8 1_555 1_555
C2 H1 1_555 1_555
C3 C2 1_555 1_555
H2 C3 1_555 1_555
C4 C3 1_555 1_555
C5 C4 1_555 1_555
H3 C5 1_555 1_555
C8 C4 1_555 1_555
C20 H13 1_555 1_555
Mg6 O3 1_555 1_555
Mg9 O4 1_555 1_555
H6_2 C10_2 1_555 1_555
O6_2 N2_2 1_555 1_555
N2_2 C14_2 1_555 1_555
C14_2 H9_2 1_555 1_555
C17_2 C16_2 1_555 1_555
H11_2 C17_2 1_555 1_555
C18_2 N2_2 1_555 1_555
H12_2 C18_2 1_555 1_555
Mg6 O6_2 1_555 1_555
Mg9 O6_2 1_555 1_555
O12_2 Mg3 1_555 1_555
O17_2 Mg3 1_555 1_555
C17_2 C18_2 1_555 1_555
N1_2 O16 1_555 1_555
C9_2 N1_2 1_555 1_555
H5_2 C9_2 1_555 1_555
C12_2 C11_2 1_555 1_555
H7_2 C12_2 1_555 1_555
C13_2 N1_2 1_555 1_555
H8_2 C13_2 1_555 1_555
H10_2 C15_2 1_555 1_555
O11_2 Mg3_2 1_555 1_555
O13_2 Mg3_2 1_555 1_555
C12_2 C13_2 1_555 1_555
O17 N2_3 1_555 1_555
N2_3 C14_3 1_555 1_555
C14_3 H9_3 1_555 1_555
C17_3 C16_3 1_555 1_555
C18_3 N2_3 1_555 1_555
H12_3 C18_3 1_555 1_555
Mg9_2 O17 1_555 1_555
C17_3 C18_3 1_555 1_555
O12 C26_2 1_555 1_555
O10_2 C26_2 1_555 1_555
H14_2 C21_2 1_555 1_555
C22_2 C21_2 1_555 1_555
C23_2 C22_2 1_555 1_555
H15_2 C23_2 1_555 1_555
C24_2 C19_2 1_555 1_555
H16_2 C24_2 1_555 1_555
C26_2 C22_2 1_555 1_555
Mg6 O7_2 1_555 1_555
Mg9_2 O10_2 1_555 1_555
C23_2 C24_2 1_555 1_555
H6_3 C10_3 1_555 1_555
O8_2 Mg2_2 1_555 1_555
C20_2 H13_2 1_555 1_555
C25_2 O8_2 1_555 1_555
O14_2 Mg2_2 1_555 1_555
O16_2 Mg2_2 1_555 1_555
Mg6_2 O16_2 1_555 1_555
H10_3 C15_3 1_555 1_555
Mg5 O1_2 1_555 1_555
Mg2_3 O2_2 1_555 1_555
O1_2 C7_2 1_555 1_555
O2_2 C7_2 1_555 1_555
O12_2 C8_2 1_555 1_555
O4_2 C8_2 1_555 1_555
O5_2 Mg5 1_555 1_555
N1_3 O5_2 1_555 1_555
C1_2 C2_2 1_555 1_555
C2_2 H1_2 1_555 1_555
C3_2 C2_2 1_555 1_555
H2_2 C3_2 1_555 1_555
C4_2 C3_2 1_555 1_555
C5_2 C4_2 1_555 1_555
H3_2 C5_2 1_555 1_555
C6_2 C1_2 1_555 1_555
H4_2 C6_2 1_555 1_555
C7_2 C1_2 1_555 1_555
C8_2 C4_2 1_555 1_555
C9_3 N1_3 1_555 1_555
H5_3 C9_3 1_555 1_555
C12_3 C11_3 1_555 1_555
C13_3 N1_3 1_555 1_555
H8_3 C13_3 1_555 1_555
Mg9_3 O4_2 1_555 1_555
O11_3 Mg5 1_555 1_555
O13_3 Mg5 1_555 1_555
O15_2 Mg2_3 1_555 1_555
Mg2_3 O5_2 1_555 1_555
C5_2 C6_2 1_555 1_555
C12_3 C13_3 1_555 1_555
H10_4 C15_4 1_555 1_555
N1_4 O16_2 1_555 1_555
C9_4 N1_4 1_555 1_555
H5_4 C9_4 1_555 1_555
C12_4 C11_4 1_555 1_555
C13_4 N1_4 1_555 1_555
H8_4 C13_4 1_555 1_555
O11_4 Mg6_2 1_555 1_555
O13_4 Mg6_2 1_555 1_555
C12_4 C13_4 1_555 1_555
O17_2 N2_4 1_555 1_555
N2_4 C14_4 1_555 1_555
C14_4 H9_4 1_555 1_555
C17_4 C16_4 1_555 1_555
C18_4 N2_4 1_555 1_555
H12_4 C18_4 1_555 1_555
Mg9_3 O17_2 1_555 1_555
C17_4 C18_4 1_555 1_555
H6_4 C10_4 1_555 1_555
O13_2 C8_3 1_555 1_555
O14 C8_3 1_555 1_555
C2_3 H1_3 1_555 1_555
C3_3 C2_3 1_555 1_555
H2_3 C3_3 1_555 1_555
C4_3 C3_3 1_555 1_555
C5_3 C4_3 1_555 1_555
H3_3 C5_3 1_555 1_555
C8_3 C4_3 1_555 1_555
C20_3 H13_3 1_555 1_555
O13 C26_3 1_555 1_555
O15 C26_3 1_555 1_555
H14_3 C21_3 1_555 1_555
C22_3 C21_3 1_555 1_555
C23_3 C22_3 1_555 1_555
H15_3 C23_3 1_555 1_555
C26_3 C22_3 1_555 1_555
Mg9 O2_3 1_555 1_555
O11_3 C7_3 1_555 1_555
O2_3 C7_3 1_555 1_555
C6_3 C1_3 1_555 1_555
H4_3 C6_3 1_555 1_555
C7_3 C1_3 1_555 1_555
O8_3 Mg9 1_555 1_555
C25_3 O8_3 1_555 1_555
C24_3 C19_3 1_555 1_555
H16_3 C24_3 1_555 1_555
Mg9_2 O2_4 1_555 1_555
O11 C7_4 1_555 1_555
O2_4 C7_4 1_555 1_555
O13_4 C8_4 1_555 1_555
O14_2 C8_4 1_555 1_555
C1_4 C2_4 1_555 1_555
C2_4 H1_4 1_555 1_555
C3_4 C2_4 1_555 1_555
H2_4 C3_4 1_555 1_555
C4_4 C3_4 1_555 1_555
C5_4 C4_4 1_555 1_555
H3_4 C5_4 1_555 1_555
C6_4 C1_4 1_555 1_555
H4_4 C6_4 1_555 1_555
C7_4 C1_4 1_555 1_555
C8_4 C4_4 1_555 1_555
C5_4 C6_4 1_555 1_555
O8_4 Mg9_3 1_555 1_555
C20_4 H13_4 1_555 1_555
C25_4 O8_4 1_555 1_555
O13_3 C26_4 1_555 1_555
O15_2 C26_4 1_555 1_555
H14_4 C21_4 1_555 1_555
C22_4 C21_4 1_555 1_555
C23_4 C22_4 1_555 1_555
H15_4 C23_4 1_555 1_555
C24_4 C19_4 1_555 1_555
H16_4 C24_4 1_555 1_555
C26_4 C22_4 1_555 1_555
C23_4 C24_4 1_555 1_555

#END
