
###############################################################################
#
# This file contains modified crystal structure data generated from the
# MOF subset of the Cambridge Structural Database (CSD) v543 
# hosted by the Cambridge Crystallographic Data Centre (CCDC).
#
# This work is licensed under the Creative Commons
# Attribution-NonCommercial-ShareAlike 4.0 International License.
# To view a copy of this license, visit
# http://creativecommons.org/licenses/by-nc-sa/4.0/
# or send a letter to
# Creative Commons, PO Box 1866, Mountain View, CA 94042, USA.
#
# CIF created using the CSD Python API on 29 September 2022
# The structure has been converted into the P1 space group
# The structure has a 3D framework
# The original CSD entry HORBUO is in the tetragonal crystal system
# The framework has been calculated to contain at least 10.0% void space
# The void calculation uses a probe of radius 1.32A, grid spacing 0.4
#
###############################################################################

data_HORBUO
_chemical_formula_moiety         '(C160 H176 N112 Zn16)n'
_symmetry_cell_setting           triclinic
_symmetry_space_group_name_H-M   'P 1'
_symmetry_Int_Tables_number      1
_space_group_name_Hall           'P 1'
loop_
_symmetry_equiv_pos_site_id
_symmetry_equiv_pos_as_xyz
1 x,y,z
_cell_length_a                   16.3827(3)
_cell_length_b                   16.3827(3)
_cell_length_c                   21.7529(7)
_cell_angle_alpha                90
_cell_angle_beta                 90
_cell_angle_gamma                90
_cell_volume                     5838.32
loop_
_atom_site_label
_atom_site_type_symbol
_atom_site_fract_x
_atom_site_fract_y
_atom_site_fract_z
Zn1 Zn 0.30210(3) 0.57770(3) 0.11128(2)
N1 N 0.2621(2) 0.5487(2) 0.02791(14)
N3 N 0.5542(3) 0.5408(6) 0.1206(2)
C5 C 0.1146(3) 0.5937(3) 0.0182(2)
H3 H 0.1091 0.6150 0.0586
N4 N 0.4206(3) 0.5500(7) 0.1095(2)
C8 C 0.4849(3) 0.5484(6) 0.1350(3)
N5 N 0.5389(5) 0.6103(9) 0.0700(5)
N6 N 0.4605(6) 0.6098(10) 0.0612(5)
N7 N 0.4764(11) 0.4825(11) 0.1893(7)
H10 H 0.5188 0.4529 0.2001
H11 H 0.4294 0.4761 0.2081
Zn3 Zn 0.67230(3) 0.55210(3) 0.13872(2)
N8 N 0.2498(3) 0.5241(2) 0.18202(15)
N9 N 0.2908(6) 0.6958(3) 0.1294(2)
C1 C 0.3101(3) 0.5133(3) 0.98621(16)
H1 H 0.3651 0.4987 0.9944
N2 N 0.2741(2) 0.5002(3) 0.93202(15)
C2 C 0.1878(3) 0.5598(3) 0.99862(19)
C3 C 0.1959(3) 0.5288(3) 0.93934(19)
C4 C 0.1298(3) 0.5316(4) 0.8989(2)
H2 H 0.1352 0.5109 0.8583
C6 C 0.0492(3) 0.5955(3) 0.9771(3)
C7 C 0.0573(3) 0.5641(4) 0.9180(3)
H5 H 0.0027 0.5991 0.8362
Zn2 Zn 0.32770(3) 0.44790(3) 0.86128(2)
Zn1_2 Zn 0.17230(3) 0.55210(3) 0.36128(2)
N1_2 N 0.2013(2) 0.5121(2) 0.27791(14)
C1_2 C 0.2367(3) 0.5601(3) 0.23621(16)
H1_2 H 0.2513 0.6151 0.2444
C2_2 C 0.1902(3) 0.4378(3) 0.24862(19)
C3_2 C 0.2212(3) 0.4459(3) 0.18934(19)
C4_2 C 0.2184(4) 0.3798(3) 0.1489(2)
H2_2 H 0.2391 0.3852 0.1083
N3_2 N 0.2092(6) 0.8042(3) 0.3706(2)
C5_2 C 0.1563(3) 0.3646(3) 0.2682(2)
H3_2 H 0.1350 0.3591 0.3086
N4_2 N 0.2000(7) 0.6706(3) 0.3595(2)
C6_2 C 0.1545(3) 0.2992(3) 0.2271(3)
C7_2 C 0.1859(4) 0.3073(3) 0.1680(3)
C8_2 C 0.2016(6) 0.7349(3) 0.3850(3)
C9 C 0.1835(6) 0.2368(4) 0.1220(4)
H4 H 0.1589 0.1888 0.1415
H5_2 H 0.1509 0.2527 0.0862
H6 H 0.2392 0.2237 0.1089
C10 C 0.1168(4) 0.2191(4) 0.2479(4)
H7 H 0.0980 0.2243 0.2905
H8 H 0.0704 0.2056 0.2213
H9 H 0.1577 0.1756 0.2453
N5_2 N 0.1397(9) 0.7889(5) 0.3200(5)
N6_2 N 0.1402(10) 0.7105(6) 0.3112(5)
N7_2 N 0.2675(11) 0.7264(11) 0.4393(7)
H10_2 H 0.2971 0.7688 0.4501
H11_2 H 0.2739 0.6794 0.4581
Zn3_2 Zn 0.19790(3) 0.92230(3) 0.38872(2)
N8_2 N 0.2259(2) 0.4998(3) 0.43202(15)
N9_2 N 0.0542(3) 0.5408(6) 0.3794(2)
H1_3 H 0.6349 0.0013 0.9944
Zn2_2 Zn 0.67230(3) 0.05210(3) 0.86128(2)
Zn1_3 Zn 0.69790(3) 0.92230(3) 0.11128(2)
N1_3 N 0.7379(2) 0.9513(2) 0.02791(14)
N3_3 N 0.4458(3) 0.9592(6) 0.1206(2)
C5_3 C 0.8854(3) 0.9063(3) 0.0182(2)
H3_3 H 0.8909 0.8850 0.0586
N4_3 N 0.5794(3) 0.9500(7) 0.1095(2)
C8_3 C 0.5151(3) 0.9516(6) 0.1350(3)
N5_3 N 0.4611(5) 0.8897(9) 0.0700(5)
N6_3 N 0.5395(6) 0.8902(10) 0.0612(5)
Zn3_3 Zn 0.32770(3) 0.94790(3) 0.13872(2)
N8_3 N 0.7502(3) 0.9759(2) 0.18202(15)
N9_3 N 0.7092(6) 0.8042(3) 0.1294(2)
C2_3 C 0.8098(3) 0.0622(3) 0.24862(19)
C3_3 C 0.7788(3) 0.0541(3) 0.18934(19)
C4_3 C 0.7816(4) 0.1202(3) 0.1489(2)
H2_3 H 0.7609 0.1148 0.1083
C5_4 C 0.8437(3) 0.1354(3) 0.2682(2)
H3_4 H 0.8650 0.1409 0.3086
C6_3 C 0.8455(3) 0.2008(3) 0.2271(3)
C7_3 C 0.8141(4) 0.1927(3) 0.1680(3)
C9_2 C 0.8165(6) 0.2632(4) 0.1220(4)
H4_2 H 0.8411 0.3112 0.1415
H5_3 H 0.8491 0.2473 0.0862
H6_2 H 0.7608 0.2763 0.1089
C10_2 C 0.8832(4) 0.2809(4) 0.2479(4)
H7_2 H 0.9020 0.2757 0.2905
H8_2 H 0.9296 0.2944 0.2213
H9_2 H 0.8423 0.3244 0.2453
N8_4 N 0.7741(2) 0.0002(3) 0.43202(15)
Zn1_4 Zn 0.82770(3) 0.94790(3) 0.36128(2)
N1_4 N 0.7987(2) 0.9879(2) 0.27791(14)
C1_3 C 0.7633(3) 0.9399(3) 0.23621(16)
H1_4 H 0.7487 0.8849 0.2444
N3_4 N 0.7908(6) 0.6958(3) 0.3706(2)
N4_4 N 0.8000(7) 0.8294(3) 0.3595(2)
C8_4 C 0.7984(6) 0.7651(3) 0.3850(3)
N5_4 N 0.8603(9) 0.7111(5) 0.3200(5)
N6_4 N 0.8598(10) 0.7895(6) 0.3112(5)
N7_3 N 0.7325(11) 0.7736(11) 0.4393(7)
H10_3 H 0.7029 0.7312 0.4501
H11_3 H 0.7261 0.8206 0.4581
Zn3_4 Zn 0.80210(3) 0.57770(3) 0.38872(2)
N9_4 N 0.9458(3) 0.9592(6) 0.3794(2)
N3_5 N 0.0542(3) 0.0408(6) 0.6206(2)
N5_5 N 0.0389(5) 0.1103(9) 0.5700(5)
Zn3_5 Zn 0.17230(3) 0.05210(3) 0.63872(2)
Zn1_5 Zn 0.80210(3) 0.07770(3) 0.61128(2)
N1_5 N 0.7621(2) 0.0487(2) 0.52791(14)
C1_4 C 0.8101(3) 0.0133(3) 0.48621(16)
C2_4 C 0.6878(3) 0.0598(3) 0.49862(19)
C3_4 C 0.6959(3) 0.0288(3) 0.43934(19)
C4_4 C 0.6298(3) 0.0316(4) 0.3989(2)
H2_4 H 0.6352 0.0109 0.3583
C5_5 C 0.6146(3) 0.0937(3) 0.5182(2)
H3_5 H 0.6091 0.1150 0.5586
N4_5 N 0.9206(3) 0.0500(7) 0.6095(2)
C6_4 C 0.5492(3) 0.0955(3) 0.4771(3)
C7_4 C 0.5573(3) 0.0641(4) 0.4180(3)
C8_5 C 0.9849(3) 0.0484(6) 0.6350(3)
C9_3 C 0.4868(4) 0.0665(6) 0.3720(4)
H4_3 H 0.4388 0.0911 0.3915
H5_4 H 0.5027 0.0991 0.3362
H6_3 H 0.4737 0.0108 0.3589
C10_3 C 0.4691(4) 0.1332(4) 0.4979(4)
H7_3 H 0.4743 0.1520 0.5405
H8_3 H 0.4556 0.1796 0.4713
H9_3 H 0.4256 0.0923 0.4953
N6_5 N 0.9605(6) 0.1098(10) 0.5612(5)
N8_5 N 0.7498(3) 0.0241(2) 0.68202(15)
N9_5 N 0.7908(6) 0.1958(3) 0.6294(2)
H1_5 H 0.8651 0.9987 0.4944
N7_4 N 0.9764(11) 0.9825(11) 0.6893(7)
H11_4 H 0.9294 0.9761 0.7081
N1_6 N 0.7013(2) 0.0121(2) 0.77791(14)
C1_5 C 0.7367(3) 0.0601(3) 0.73621(16)
H1_6 H 0.7513 0.1151 0.7444
N3_6 N 0.7092(6) 0.3042(3) 0.8706(2)
N4_6 N 0.7000(7) 0.1706(3) 0.8595(2)
C8_6 C 0.7016(6) 0.2349(3) 0.8850(3)
N5_6 N 0.6397(9) 0.2889(5) 0.8200(5)
N6_6 N 0.6402(10) 0.2105(6) 0.8112(5)
N7_5 N 0.7675(11) 0.2264(11) 0.9393(7)
H10_4 H 0.7971 0.2688 0.9501
H11_5 H 0.7739 0.1794 0.9581
Zn3_6 Zn 0.69790(3) 0.42230(3) 0.88872(2)
N9_6 N 0.5542(3) 0.0408(6) 0.8794(2)
Zn1_6 Zn 0.19790(3) 0.42230(3) 0.61128(2)
N1_7 N 0.2379(2) 0.4513(2) 0.52791(14)
C1_6 C 0.1899(3) 0.4867(3) 0.48621(16)
H1_7 H 0.1349 0.5013 0.4944
C2_5 C 0.3122(3) 0.4402(3) 0.49862(19)
C3_5 C 0.3041(3) 0.4712(3) 0.43934(19)
C4_5 C 0.3702(3) 0.4684(4) 0.3989(2)
H2_5 H 0.3648 0.4891 0.3583
C5_6 C 0.3854(3) 0.4063(3) 0.5182(2)
H3_6 H 0.3909 0.3850 0.5586
N4_7 N 0.0794(3) 0.4500(7) 0.6095(2)
C6_5 C 0.4508(3) 0.4045(3) 0.4771(3)
C7_5 C 0.4427(3) 0.4359(4) 0.4180(3)
C8_7 C 0.0151(3) 0.4516(6) 0.6350(3)
C9_4 C 0.5132(4) 0.4335(6) 0.3720(4)
H4_4 H 0.5612 0.4089 0.3915
H5_5 H 0.4973 0.4009 0.3362
H6_4 H 0.5263 0.4892 0.3589
C10_4 C 0.5309(4) 0.3668(4) 0.4979(4)
H7_4 H 0.5257 0.3480 0.5405
H8_4 H 0.5444 0.3204 0.4713
H9_4 H 0.5744 0.4077 0.4953
N6_7 N 0.0395(6) 0.3902(10) 0.5612(5)
N7_6 N 0.0236(11) 0.5175(11) 0.6893(7)
H11_6 H 0.0706 0.5239 0.7081
N8_6 N 0.2502(3) 0.4759(2) 0.68202(15)
N9_7 N 0.2092(6) 0.3042(3) 0.6294(2)
N3_7 N 0.9458(3) 0.4592(6) 0.6206(2)
N5_7 N 0.9611(5) 0.3897(9) 0.5700(5)
H10_5 H 0.9812 0.5471 0.7001
Zn3_7 Zn 0.82770(3) 0.44790(3) 0.63872(2)
N1_8 N 0.2987(2) 0.4879(2) 0.77791(14)
C1_7 C 0.2633(3) 0.4399(3) 0.73621(16)
H1_8 H 0.2487 0.3849 0.7444
C2_6 C 0.3098(3) 0.5622(3) 0.74862(19)
C3_6 C 0.2788(3) 0.5541(3) 0.68934(19)
C4_6 C 0.2816(4) 0.6202(3) 0.6489(2)
H2_6 H 0.2609 0.6148 0.6083
N3_8 N 0.2908(6) 0.1958(3) 0.8706(2)
C5_7 C 0.3437(3) 0.6354(3) 0.7682(2)
H3_7 H 0.3650 0.6409 0.8086
N4_8 N 0.3000(7) 0.3294(3) 0.8595(2)
C6_6 C 0.3455(3) 0.7008(3) 0.7271(3)
C7_6 C 0.3141(4) 0.6927(3) 0.6680(3)
C8_8 C 0.2984(6) 0.2651(3) 0.8850(3)
C9_5 C 0.3165(6) 0.7632(4) 0.6220(4)
H4_5 H 0.3411 0.8112 0.6415
H5_6 H 0.3491 0.7473 0.5862
H6_5 H 0.2608 0.7763 0.6089
C10_5 C 0.3832(4) 0.7809(4) 0.7479(4)
H7_5 H 0.4020 0.7757 0.7905
H8_5 H 0.4296 0.7944 0.7213
H9_5 H 0.3423 0.8244 0.7453
N5_8 N 0.3603(9) 0.2111(5) 0.8200(5)
N6_8 N 0.3598(10) 0.2895(6) 0.8112(5)
N7_7 N 0.2325(11) 0.2736(11) 0.9393(7)
H10_6 H 0.2029 0.2312 0.9501
H11_7 H 0.2261 0.3206 0.9581
Zn3_8 Zn 0.30210(3) 0.07770(3) 0.88872(2)
N9_8 N 0.4458(3) 0.4592(6) 0.8794(2)
C1_8 C 0.6899(3) 0.4867(3) 0.01379(16)
H1_9 H 0.6349 0.5013 0.0056
N2_2 N 0.7259(2) 0.4998(3) 0.06798(15)
C2_7 C 0.8122(3) 0.4402(3) 0.00138(19)
C3_7 C 0.8041(3) 0.4712(3) 0.06066(19)
C4_7 C 0.8702(3) 0.4684(4) 0.1011(2)
H2_7 H 0.8648 0.4891 0.1417
C6_7 C 0.9508(3) 0.4045(3) 0.0229(3)
C7_7 C 0.9427(3) 0.4359(4) 0.0820(3)
H5_7 H 0.9973 0.4009 0.1638
N1_9 N 0.7379(2) 0.4513(2) 0.97209(14)
C5_8 C 0.8854(3) 0.4063(3) 0.9818(2)
H3_8 H 0.8909 0.3850 0.9414
N4_9 N 0.5794(3) 0.4500(7) 0.8905(2)
C8_9 C 0.5151(3) 0.4516(6) 0.8650(3)
N5_9 N 0.4611(5) 0.3897(9) 0.9300(5)
N6_9 N 0.5395(6) 0.3902(10) 0.9388(5)
N7_8 N 0.5236(11) 0.5175(11) 0.8107(7)
H10_7 H 0.4812 0.5471 0.7999
H11_8 H 0.5706 0.5239 0.7919
N8_7 N 0.7502(3) 0.4759(2) 0.81798(15)
N1_10 N 0.7987(2) 0.4879(2) 0.72209(14)
C1_9 C 0.7633(3) 0.4399(3) 0.76379(16)
H1_10 H 0.7487 0.3849 0.7556
C2_8 C 0.8098(3) 0.5622(3) 0.75138(19)
C3_8 C 0.7788(3) 0.5541(3) 0.81066(19)
C4_8 C 0.7816(4) 0.6202(3) 0.8511(2)
H2_8 H 0.7609 0.6148 0.8917
C5_9 C 0.8437(3) 0.6354(3) 0.7318(2)
H3_9 H 0.8650 0.6409 0.6914
N4_10 N 0.8000(7) 0.3294(3) 0.6405(2)
C6_8 C 0.8455(3) 0.7008(3) 0.7729(3)
C7_8 C 0.8141(4) 0.6927(3) 0.8320(3)
C8_10 C 0.7984(6) 0.2651(3) 0.6150(3)
C9_6 C 0.8165(6) 0.7632(4) 0.8780(4)
H4_6 H 0.8411 0.8112 0.8585
H5_8 H 0.8491 0.7473 0.9138
H6_6 H 0.7608 0.7763 0.8911
C10_6 C 0.8832(4) 0.7809(4) 0.7521(4)
H7_6 H 0.9020 0.7757 0.7095
H8_6 H 0.9296 0.7944 0.7787
H9_6 H 0.8423 0.8244 0.7547
N5_10 N 0.8603(9) 0.2111(5) 0.6800(5)
N6_10 N 0.8598(10) 0.2895(6) 0.6888(5)
N7_9 N 0.7325(11) 0.2736(11) 0.5607(7)
H10_8 H 0.7029 0.2312 0.5499
H11_9 H 0.7261 0.3206 0.5419
N8_8 N 0.7741(2) 0.5002(3) 0.56798(15)
N1_11 N 0.2621(2) 0.0487(2) 0.97209(14)
C5_10 C 0.1146(3) 0.0937(3) 0.9818(2)
H3_10 H 0.1091 0.1150 0.9414
N4_11 N 0.4206(3) 0.0500(7) 0.8905(2)
C8_11 C 0.4849(3) 0.0484(6) 0.8650(3)
N5_11 N 0.5389(5) 0.1103(9) 0.9300(5)
N6_11 N 0.4605(6) 0.1098(10) 0.9388(5)
N8_9 N 0.2498(3) 0.0241(2) 0.81798(15)
H1_11 H 0.3651 0.9987 0.0056
N1_12 N 0.2013(2) 0.0121(2) 0.72209(14)
C1_10 C 0.2367(3) 0.0601(3) 0.76379(16)
H1_12 H 0.2513 0.1151 0.7556
N4_12 N 0.2000(7) 0.1706(3) 0.6405(2)
C8_12 C 0.2016(6) 0.2349(3) 0.6150(3)
N5_12 N 0.1397(9) 0.2889(5) 0.6800(5)
N6_12 N 0.1402(10) 0.2105(6) 0.6888(5)
N7_10 N 0.2675(11) 0.2264(11) 0.5607(7)
H10_9 H 0.2971 0.2688 0.5499
H11_10 H 0.2739 0.1794 0.5419
C2_9 C 0.1902(3) 0.9378(3) 0.75138(19)
C3_9 C 0.2212(3) 0.9459(3) 0.81066(19)
C4_9 C 0.2184(4) 0.8798(3) 0.8511(2)
H2_9 H 0.2391 0.8852 0.8917
C5_11 C 0.1563(3) 0.8646(3) 0.7318(2)
H3_11 H 0.1350 0.8591 0.6914
C6_9 C 0.1545(3) 0.7992(3) 0.7729(3)
C7_9 C 0.1859(4) 0.8073(3) 0.8320(3)
C9_7 C 0.1835(6) 0.7368(4) 0.8780(4)
H4_7 H 0.1589 0.6888 0.8585
H5_9 H 0.1509 0.7527 0.9138
H6_7 H 0.2392 0.7237 0.8911
C10_7 C 0.1168(4) 0.7191(4) 0.7521(4)
H7_7 H 0.0980 0.7243 0.7095
H8_7 H 0.0704 0.7056 0.7787
H9_7 H 0.1577 0.6756 0.7547
N8_10 N 0.2259(2) 0.9998(3) 0.56798(15)
H1_13 H 0.1349 0.0013 0.5056
N7_11 N 0.0236(11) 0.0175(11) 0.3107(7)
H11_11 H 0.0706 0.0239 0.2919
N1_13 N 0.2379(2) 0.9513(2) 0.47209(14)
C1_11 C 0.1899(3) 0.9867(3) 0.51379(16)
C2_10 C 0.3122(3) 0.9402(3) 0.50138(19)
C3_10 C 0.3041(3) 0.9712(3) 0.56066(19)
C4_10 C 0.3702(3) 0.9684(4) 0.6011(2)
H2_10 H 0.3648 0.9891 0.6417
C5_12 C 0.3854(3) 0.9063(3) 0.4818(2)
H3_12 H 0.3909 0.8850 0.4414
N4_13 N 0.0794(3) 0.9500(7) 0.3905(2)
C6_10 C 0.4508(3) 0.9045(3) 0.5229(3)
C7_10 C 0.4427(3) 0.9359(4) 0.5820(3)
C8_13 C 0.0151(3) 0.9516(6) 0.3650(3)
C9_8 C 0.5132(4) 0.9335(6) 0.6280(4)
H4_8 H 0.5612 0.9089 0.6085
H5_10 H 0.4973 0.9009 0.6638
H6_8 H 0.5263 0.9892 0.6411
C10_8 C 0.5309(4) 0.8668(4) 0.5021(4)
H7_8 H 0.5257 0.8480 0.4595
H8_8 H 0.5444 0.8204 0.5287
H9_8 H 0.5744 0.9077 0.5047
N6_13 N 0.0395(6) 0.8902(10) 0.4388(5)
N8_11 N 0.2502(3) 0.9759(2) 0.31798(15)
N5_13 N 0.9611(5) 0.8897(9) 0.4300(5)
N1_14 N 0.2987(2) 0.9879(2) 0.22209(14)
C1_12 C 0.2633(3) 0.9399(3) 0.26379(16)
H1_14 H 0.2487 0.8849 0.2556
N4_14 N 0.3000(7) 0.8294(3) 0.1405(2)
C8_14 C 0.2984(6) 0.7651(3) 0.1150(3)
N5_14 N 0.3603(9) 0.7111(5) 0.1800(5)
N6_14 N 0.3598(10) 0.7895(6) 0.1888(5)
N7_12 N 0.2325(11) 0.7736(11) 0.0607(7)
H10_10 H 0.2029 0.7312 0.0499
H11_12 H 0.2261 0.8206 0.0419
N5_15 N 0.0389(5) 0.6103(9) 0.4300(5)
H10_11 H 0.0188 0.4529 0.2999
N1_15 N 0.7621(2) 0.5487(2) 0.47209(14)
C1_13 C 0.8101(3) 0.5133(3) 0.51379(16)
H1_15 H 0.8651 0.4987 0.5056
C2_11 C 0.6878(3) 0.5598(3) 0.50138(19)
C3_11 C 0.6959(3) 0.5288(3) 0.56066(19)
C4_11 C 0.6298(3) 0.5316(4) 0.6011(2)
H2_11 H 0.6352 0.5109 0.6417
C5_13 C 0.6146(3) 0.5937(3) 0.4818(2)
H3_13 H 0.6091 0.6150 0.4414
N4_15 N 0.9206(3) 0.5500(7) 0.3905(2)
C6_11 C 0.5492(3) 0.5955(3) 0.5229(3)
C7_11 C 0.5573(3) 0.5641(4) 0.5820(3)
C8_15 C 0.9849(3) 0.5484(6) 0.3650(3)
C9_9 C 0.4868(4) 0.5665(6) 0.6280(4)
H4_9 H 0.4388 0.5911 0.6085
H5_11 H 0.5027 0.5991 0.6638
H6_9 H 0.4737 0.5108 0.6411
C10_9 C 0.4691(4) 0.6332(4) 0.5021(4)
H7_9 H 0.4743 0.6520 0.4595
H8_9 H 0.4556 0.6796 0.5287
H9_9 H 0.4256 0.5923 0.5047
N6_15 N 0.9605(6) 0.6098(10) 0.4388(5)
N7_13 N 0.9764(11) 0.4825(11) 0.3107(7)
H11_13 H 0.9294 0.4761 0.2919
N8_12 N 0.7498(3) 0.5241(2) 0.31798(15)
N1_16 N 0.7013(2) 0.5121(2) 0.22209(14)
C1_14 C 0.7367(3) 0.5601(3) 0.26379(16)
H1_16 H 0.7513 0.6151 0.2556
C2_12 C 0.6902(3) 0.4378(3) 0.25138(19)
C3_12 C 0.7212(3) 0.4459(3) 0.31066(19)
C4_12 C 0.7184(4) 0.3798(3) 0.3511(2)
H2_12 H 0.7391 0.3852 0.3917
C5_14 C 0.6563(3) 0.3646(3) 0.2318(2)
H3_14 H 0.6350 0.3591 0.1914
N4_16 N 0.7000(7) 0.6706(3) 0.1405(2)
C6_12 C 0.6545(3) 0.2992(3) 0.2729(3)
C7_12 C 0.6859(4) 0.3073(3) 0.3320(3)
C8_16 C 0.7016(6) 0.7349(3) 0.1150(3)
C9_10 C 0.6835(6) 0.2368(4) 0.3780(4)
H4_10 H 0.6589 0.1888 0.3585
H5_12 H 0.6509 0.2527 0.4138
H6_10 H 0.7392 0.2237 0.3911
C10_10 C 0.6168(4) 0.2191(4) 0.2521(4)
H7_10 H 0.5980 0.2243 0.2095
H8_10 H 0.5704 0.2056 0.2787
H9_10 H 0.6577 0.1756 0.2547
N5_16 N 0.6397(9) 0.7889(5) 0.1800(5)
N6_16 N 0.6402(10) 0.7105(6) 0.1888(5)
N7_14 N 0.7675(11) 0.7264(11) 0.0607(7)
H10_12 H 0.7971 0.7688 0.0499
H11_14 H 0.7739 0.6794 0.0419
H7_11 H 0.9743 0.6520 0.0405
C9_11 C 0.9868(4) 0.5665(6) 0.8720(4)
H4_11 H 0.9388 0.5911 0.8915
H6_11 H 0.9737 0.5108 0.8589
C10_11 C 0.9691(4) 0.6332(4) 0.9979(4)
H8_11 H 0.9556 0.6796 0.9713
H9_11 H 0.9256 0.5923 0.9953
H7_12 H 0.0257 0.8480 0.0405
C9_12 C 0.0132(4) 0.9335(6) 0.8720(4)
H4_12 H 0.0612 0.9089 0.8915
H6_12 H 0.0263 0.9892 0.8589
C10_12 C 0.0309(4) 0.8668(4) 0.9979(4)
H8_12 H 0.0444 0.8204 0.9713
H9_12 H 0.0744 0.9077 0.9953
N7_15 N 0.5236(11) 0.0175(11) 0.1893(7)
H10_13 H 0.4812 0.0471 0.2001
H11_15 H 0.5706 0.0239 0.2081
C1_15 C 0.6899(3) 0.9867(3) 0.98621(16)
N2_3 N 0.7259(2) 0.9998(3) 0.93202(15)
C2_13 C 0.8122(3) 0.9402(3) 0.99862(19)
C3_13 C 0.8041(3) 0.9712(3) 0.93934(19)
C4_13 C 0.8702(3) 0.9684(4) 0.8989(2)
H2_13 H 0.8648 0.9891 0.8583
C6_13 C 0.9508(3) 0.9045(3) 0.9771(3)
C7_13 C 0.9427(3) 0.9359(4) 0.9180(3)
H5_13 H 0.9973 0.9009 0.8362
C2_14 C 0.6902(3) 0.9378(3) 0.74862(19)
C3_14 C 0.7212(3) 0.9459(3) 0.68934(19)
C4_14 C 0.7184(4) 0.8798(3) 0.6489(2)
H2_14 H 0.7391 0.8852 0.6083
C5_15 C 0.6563(3) 0.8646(3) 0.7682(2)
H3_15 H 0.6350 0.8591 0.8086
C6_14 C 0.6545(3) 0.7992(3) 0.7271(3)
C7_14 C 0.6859(4) 0.8073(3) 0.6680(3)
C9_13 C 0.6835(6) 0.7368(4) 0.6220(4)
H4_13 H 0.6589 0.6888 0.6415
H5_14 H 0.6509 0.7527 0.5862
H6_13 H 0.7392 0.7237 0.6089
C10_13 C 0.6168(4) 0.7191(4) 0.7479(4)
H7_13 H 0.5980 0.7243 0.7905
H8_13 H 0.5704 0.7056 0.7213
H9_13 H 0.6577 0.6756 0.7453
H10_14 H 0.0188 0.9529 0.7001
C9_14 C 0.0132(4) 0.4335(6) 0.1280(4)
H4_14 H 0.0612 0.4089 0.1085
H6_14 H 0.0263 0.4892 0.1411
C10_14 C 0.0309(4) 0.3668(4) 0.0021(4)
H8_14 H 0.0444 0.3204 0.0287
H9_14 H 0.0744 0.4077 0.0047
H7_14 H 0.0257 0.3480 0.9595
C1_16 C 0.3101(3) 0.0133(3) 0.01379(16)
N2_4 N 0.2741(2) 0.0002(3) 0.06798(15)
C2_15 C 0.1878(3) 0.0598(3) 0.00138(19)
C3_15 C 0.1959(3) 0.0288(3) 0.06066(19)
C4_15 C 0.1298(3) 0.0316(4) 0.1011(2)
H2_15 H 0.1352 0.0109 0.1417
C6_15 C 0.0492(3) 0.0955(3) 0.0229(3)
C7_15 C 0.0573(3) 0.0641(4) 0.0820(3)
H5_15 H 0.0027 0.0991 0.1638
C2_16 C 0.3098(3) 0.0622(3) 0.25138(19)
C3_16 C 0.2788(3) 0.0541(3) 0.31066(19)
C4_16 C 0.2816(4) 0.1202(3) 0.3511(2)
H2_16 H 0.2609 0.1148 0.3917
C5_16 C 0.3437(3) 0.1354(3) 0.2318(2)
H3_16 H 0.3650 0.1409 0.1914
C6_16 C 0.3455(3) 0.2008(3) 0.2729(3)
C7_16 C 0.3141(4) 0.1927(3) 0.3320(3)
C9_15 C 0.3165(6) 0.2632(4) 0.3780(4)
H4_15 H 0.3411 0.3112 0.3585
H5_16 H 0.3491 0.2473 0.4138
H6_15 H 0.2608 0.2763 0.3911
C10_15 C 0.3832(4) 0.2809(4) 0.2521(4)
H7_15 H 0.4020 0.2757 0.2095
H8_15 H 0.4296 0.2944 0.2787
H9_15 H 0.3423 0.3244 0.2547
N7_16 N 0.4764(11) 0.9825(11) 0.8107(7)
H10_15 H 0.5188 0.9529 0.7999
H11_16 H 0.4294 0.9761 0.7919
C9_16 C 0.9868(4) 0.0665(6) 0.1280(4)
H4_16 H 0.9388 0.0911 0.1085
H6_16 H 0.9737 0.0108 0.1411
C10_16 C 0.9691(4) 0.1332(4) 0.0021(4)
H8_16 H 0.9556 0.1796 0.0287
H9_16 H 0.9256 0.0923 0.0047
H7_16 H 0.9743 0.1520 0.9595
H10_16 H 0.9812 0.0471 0.2999
loop_
_geom_bond_atom_site_label_1
_geom_bond_atom_site_label_2
_geom_bond_site_symmetry_1
_geom_bond_site_symmetry_2
Zn1 N1 1_555 1_555
N3 C8 1_555 1_555
H3 C5 1_555 1_555
N4 Zn1 1_555 1_555
C8 N4 1_555 1_555
N5 N3 1_555 1_555
N6 N4 1_555 1_555
N7 C8 1_555 1_555
H10 N7 1_555 1_555
H11 N7 1_555 1_555
Zn3 N3 1_555 1_555
N8 Zn1 1_555 1_555
N9 Zn1 1_555 1_555
N5 N6 1_555 1_555
C1 H1 1_555 1_555
N2 C1 1_555 1_555
C3 N2 1_555 1_555
C4 C3 1_555 1_555
H2 C4 1_555 1_555
C7 C4 1_555 1_555
Zn2 N2 1_555 1_555
C2 C3 1_555 1_555
C6 C7 1_555 1_555
Zn1_2 N1_2 1_555 1_555
N1_2 C1_2 1_555 1_555
C1_2 H1_2 1_555 1_555
N8 C1_2 1_555 1_555
C2_2 N1_2 1_555 1_555
C3_2 N8 1_555 1_555
C4_2 C3_2 1_555 1_555
H2_2 C4_2 1_555 1_555
N3_2 C8_2 1_555 1_555
C5_2 C2_2 1_555 1_555
H3_2 C5_2 1_555 1_555
N4_2 Zn1_2 1_555 1_555
C6_2 C5_2 1_555 1_555
C7_2 C4_2 1_555 1_555
C8_2 N4_2 1_555 1_555
C9 C7_2 1_555 1_555
H4 C9 1_555 1_555
H5_2 C9 1_555 1_555
H6 C9 1_555 1_555
C10 C6_2 1_555 1_555
H7 C10 1_555 1_555
H8 C10 1_555 1_555
H9 C10 1_555 1_555
N5_2 N3_2 1_555 1_555
N6_2 N4_2 1_555 1_555
N7_2 C8_2 1_555 1_555
H10_2 N7_2 1_555 1_555
H11_2 N7_2 1_555 1_555
Zn3_2 N3_2 1_555 1_555
N8_2 Zn1_2 1_555 1_555
N9_2 Zn1_2 1_555 1_555
C2_2 C3_2 1_555 1_555
C6_2 C7_2 1_555 1_555
N5_2 N6_2 1_555 1_555
Zn1_3 N1_3 1_555 1_555
N3_3 C8_3 1_555 1_555
H3_3 C5_3 1_555 1_555
N4_3 Zn1_3 1_555 1_555
C8_3 N4_3 1_555 1_555
N5_3 N3_3 1_555 1_555
N6_3 N4_3 1_555 1_555
Zn3_3 N3_3 1_555 1_555
N8_3 Zn1_3 1_555 1_555
N9_3 Zn1_3 1_555 1_555
N5_3 N6_3 1_555 1_555
C4_3 C3_3 1_555 1_555
H2_3 C4_3 1_555 1_555
C5_4 C2_3 1_555 1_555
H3_4 C5_4 1_555 1_555
C6_3 C5_4 1_555 1_555
C7_3 C4_3 1_555 1_555
C9_2 C7_3 1_555 1_555
H4_2 C9_2 1_555 1_555
H5_3 C9_2 1_555 1_555
H6_2 C9_2 1_555 1_555
C10_2 C6_3 1_555 1_555
H7_2 C10_2 1_555 1_555
H8_2 C10_2 1_555 1_555
H9_2 C10_2 1_555 1_555
C2_3 C3_3 1_555 1_555
C6_3 C7_3 1_555 1_555
Zn1_4 N1_4 1_555 1_555
N1_4 C1_3 1_555 1_555
C1_3 H1_4 1_555 1_555
N8_3 C1_3 1_555 1_555
N3_4 C8_4 1_555 1_555
N4_4 Zn1_4 1_555 1_555
C8_4 N4_4 1_555 1_555
N5_4 N3_4 1_555 1_555
N6_4 N4_4 1_555 1_555
N7_3 C8_4 1_555 1_555
H10_3 N7_3 1_555 1_555
H11_3 N7_3 1_555 1_555
Zn3_4 N3_4 1_555 1_555
N9_4 Zn1_4 1_555 1_555
N5_4 N6_4 1_555 1_555
N5_5 N3_5 1_555 1_555
Zn3_5 N3_5 1_555 1_555
Zn1_5 N1_5 1_555 1_555
N1_5 C1_4 1_555 1_555
N8_4 C1_4 1_555 1_555
C2_4 N1_5 1_555 1_555
C3_4 N8_4 1_555 1_555
C4_4 C3_4 1_555 1_555
H2_4 C4_4 1_555 1_555
C5_5 C2_4 1_555 1_555
H3_5 C5_5 1_555 1_555
N4_5 Zn1_5 1_555 1_555
C6_4 C5_5 1_555 1_555
C7_4 C4_4 1_555 1_555
C8_5 N4_5 1_555 1_555
C9_3 C7_4 1_555 1_555
H4_3 C9_3 1_555 1_555
H5_4 C9_3 1_555 1_555
H6_3 C9_3 1_555 1_555
C10_3 C6_4 1_555 1_555
H7_3 C10_3 1_555 1_555
H8_3 C10_3 1_555 1_555
H9_3 C10_3 1_555 1_555
N6_5 N4_5 1_555 1_555
N8_5 Zn1_5 1_555 1_555
N9_5 Zn1_5 1_555 1_555
C2_4 C3_4 1_555 1_555
C6_4 C7_4 1_555 1_555
H11_4 N7_4 1_555 1_555
Zn2_2 N1_6 1_555 1_555
N1_6 C1_5 1_555 1_555
C1_5 H1_6 1_555 1_555
N8_5 C1_5 1_555 1_555
N3_6 C8_6 1_555 1_555
N4_6 Zn2_2 1_555 1_555
C8_6 N4_6 1_555 1_555
N5_6 N3_6 1_555 1_555
N6_6 N4_6 1_555 1_555
N7_5 C8_6 1_555 1_555
H10_4 N7_5 1_555 1_555
H11_5 N7_5 1_555 1_555
Zn3_6 N3_6 1_555 1_555
N9_6 Zn2_2 1_555 1_555
N5_6 N6_6 1_555 1_555
Zn1_6 N1_7 1_555 1_555
N1_7 C1_6 1_555 1_555
C1_6 H1_7 1_555 1_555
N8_2 C1_6 1_555 1_555
C2_5 N1_7 1_555 1_555
C3_5 N8_2 1_555 1_555
C4_5 C3_5 1_555 1_555
H2_5 C4_5 1_555 1_555
C5_6 C2_5 1_555 1_555
H3_6 C5_6 1_555 1_555
N4_7 Zn1_6 1_555 1_555
C6_5 C5_6 1_555 1_555
C7_5 C4_5 1_555 1_555
C8_7 N4_7 1_555 1_555
C9_4 C7_5 1_555 1_555
H4_4 C9_4 1_555 1_555
H5_5 C9_4 1_555 1_555
H6_4 C9_4 1_555 1_555
C10_4 C6_5 1_555 1_555
H7_4 C10_4 1_555 1_555
H8_4 C10_4 1_555 1_555
H9_4 C10_4 1_555 1_555
N6_7 N4_7 1_555 1_555
N7_6 C8_7 1_555 1_555
H11_6 N7_6 1_555 1_555
N8_6 Zn1_6 1_555 1_555
N9_7 Zn1_6 1_555 1_555
C2_5 C3_5 1_555 1_555
C6_5 C7_5 1_555 1_555
N5_7 N3_7 1_555 1_555
Zn3_7 N3_7 1_555 1_555
Zn2 N1_8 1_555 1_555
N1_8 C1_7 1_555 1_555
C1_7 H1_8 1_555 1_555
N8_6 C1_7 1_555 1_555
C2_6 N1_8 1_555 1_555
C3_6 N8_6 1_555 1_555
C4_6 C3_6 1_555 1_555
H2_6 C4_6 1_555 1_555
N3_8 C8_8 1_555 1_555
C5_7 C2_6 1_555 1_555
H3_7 C5_7 1_555 1_555
N4_8 Zn2 1_555 1_555
C6_6 C5_7 1_555 1_555
C7_6 C4_6 1_555 1_555
C8_8 N4_8 1_555 1_555
C9_5 C7_6 1_555 1_555
H4_5 C9_5 1_555 1_555
H5_6 C9_5 1_555 1_555
H6_5 C9_5 1_555 1_555
C10_5 C6_6 1_555 1_555
H7_5 C10_5 1_555 1_555
H8_5 C10_5 1_555 1_555
H9_5 C10_5 1_555 1_555
N5_8 N3_8 1_555 1_555
N6_8 N4_8 1_555 1_555
N7_7 C8_8 1_555 1_555
H10_6 N7_7 1_555 1_555
H11_7 N7_7 1_555 1_555
Zn3_8 N3_8 1_555 1_555
N9_8 Zn2 1_555 1_555
C2_6 C3_6 1_555 1_555
C6_6 C7_6 1_555 1_555
N5_8 N6_8 1_555 1_555
C1_8 H1_9 1_555 1_555
N2_2 C1_8 1_555 1_555
C3_7 N2_2 1_555 1_555
C4_7 C3_7 1_555 1_555
H2_7 C4_7 1_555 1_555
C7_7 C4_7 1_555 1_555
Zn3 N2_2 1_555 1_555
C2_7 C3_7 1_555 1_555
C6_7 C7_7 1_555 1_555
Zn3_6 N1_9 1_555 1_555
N9_8 C8_9 1_555 1_555
H3_8 C5_8 1_555 1_555
N4_9 Zn3_6 1_555 1_555
C8_9 N4_9 1_555 1_555
N5_9 N9_8 1_555 1_555
N6_9 N4_9 1_555 1_555
N7_8 C8_9 1_555 1_555
H10_7 N7_8 1_555 1_555
H11_8 N7_8 1_555 1_555
N8_7 Zn3_6 1_555 1_555
N5_9 N6_9 1_555 1_555
Zn3_7 N1_10 1_555 1_555
N1_10 C1_9 1_555 1_555
C1_9 H1_10 1_555 1_555
N8_7 C1_9 1_555 1_555
C2_8 N1_10 1_555 1_555
C3_8 N8_7 1_555 1_555
C4_8 C3_8 1_555 1_555
H2_8 C4_8 1_555 1_555
N9_5 C8_10 1_555 1_555
C5_9 C2_8 1_555 1_555
H3_9 C5_9 1_555 1_555
N4_10 Zn3_7 1_555 1_555
C6_8 C5_9 1_555 1_555
C7_8 C4_8 1_555 1_555
C8_10 N4_10 1_555 1_555
C9_6 C7_8 1_555 1_555
H4_6 C9_6 1_555 1_555
H5_8 C9_6 1_555 1_555
H6_6 C9_6 1_555 1_555
C10_6 C6_8 1_555 1_555
H7_6 C10_6 1_555 1_555
H8_6 C10_6 1_555 1_555
H9_6 C10_6 1_555 1_555
N5_10 N9_5 1_555 1_555
N6_10 N4_10 1_555 1_555
N7_9 C8_10 1_555 1_555
H10_8 N7_9 1_555 1_555
H11_9 N7_9 1_555 1_555
N8_8 Zn3_7 1_555 1_555
C2_8 C3_8 1_555 1_555
C6_8 C7_8 1_555 1_555
N5_10 N6_10 1_555 1_555
Zn3_8 N1_11 1_555 1_555
N9_6 C8_11 1_555 1_555
H3_10 C5_10 1_555 1_555
N4_11 Zn3_8 1_555 1_555
C8_11 N4_11 1_555 1_555
N5_11 N9_6 1_555 1_555
N6_11 N4_11 1_555 1_555
N8_9 Zn3_8 1_555 1_555
N5_11 N6_11 1_555 1_555
Zn3_5 N1_12 1_555 1_555
N1_12 C1_10 1_555 1_555
C1_10 H1_12 1_555 1_555
N8_9 C1_10 1_555 1_555
N9_7 C8_12 1_555 1_555
N4_12 Zn3_5 1_555 1_555
C8_12 N4_12 1_555 1_555
N5_12 N9_7 1_555 1_555
N6_12 N4_12 1_555 1_555
N7_10 C8_12 1_555 1_555
H10_9 N7_10 1_555 1_555
H11_10 N7_10 1_555 1_555
N5_12 N6_12 1_555 1_555
C4_9 C3_9 1_555 1_555
H2_9 C4_9 1_555 1_555
C5_11 C2_9 1_555 1_555
H3_11 C5_11 1_555 1_555
C6_9 C5_11 1_555 1_555
C7_9 C4_9 1_555 1_555
C9_7 C7_9 1_555 1_555
H4_7 C9_7 1_555 1_555
H5_9 C9_7 1_555 1_555
H6_7 C9_7 1_555 1_555
C10_7 C6_9 1_555 1_555
H7_7 C10_7 1_555 1_555
H8_7 C10_7 1_555 1_555
H9_7 C10_7 1_555 1_555
C2_9 C3_9 1_555 1_555
C6_9 C7_9 1_555 1_555
H11_11 N7_11 1_555 1_555
Zn3_2 N1_13 1_555 1_555
N1_13 C1_11 1_555 1_555
N8_10 C1_11 1_555 1_555
C2_10 N1_13 1_555 1_555
C3_10 N8_10 1_555 1_555
C4_10 C3_10 1_555 1_555
H2_10 C4_10 1_555 1_555
C5_12 C2_10 1_555 1_555
H3_12 C5_12 1_555 1_555
N4_13 Zn3_2 1_555 1_555
C6_10 C5_12 1_555 1_555
C7_10 C4_10 1_555 1_555
C8_13 N4_13 1_555 1_555
C9_8 C7_10 1_555 1_555
H4_8 C9_8 1_555 1_555
H5_10 C9_8 1_555 1_555
H6_8 C9_8 1_555 1_555
C10_8 C6_10 1_555 1_555
H7_8 C10_8 1_555 1_555
H8_8 C10_8 1_555 1_555
H9_8 C10_8 1_555 1_555
N6_13 N4_13 1_555 1_555
N8_11 Zn3_2 1_555 1_555
C2_10 C3_10 1_555 1_555
C6_10 C7_10 1_555 1_555
N5_13 N9_4 1_555 1_555
Zn3_3 N1_14 1_555 1_555
N1_14 C1_12 1_555 1_555
C1_12 H1_14 1_555 1_555
N8_11 C1_12 1_555 1_555
N9 C8_14 1_555 1_555
N4_14 Zn3_3 1_555 1_555
C8_14 N4_14 1_555 1_555
N5_14 N9 1_555 1_555
N6_14 N4_14 1_555 1_555
N7_12 C8_14 1_555 1_555
H10_10 N7_12 1_555 1_555
H11_12 N7_12 1_555 1_555
N5_14 N6_14 1_555 1_555
N5_15 N9_2 1_555 1_555
Zn3_4 N1_15 1_555 1_555
N1_15 C1_13 1_555 1_555
C1_13 H1_15 1_555 1_555
N8_8 C1_13 1_555 1_555
C2_11 N1_15 1_555 1_555
C3_11 N8_8 1_555 1_555
C4_11 C3_11 1_555 1_555
H2_11 C4_11 1_555 1_555
C5_13 C2_11 1_555 1_555
H3_13 C5_13 1_555 1_555
N4_15 Zn3_4 1_555 1_555
C6_11 C5_13 1_555 1_555
C7_11 C4_11 1_555 1_555
C8_15 N4_15 1_555 1_555
C9_9 C7_11 1_555 1_555
H4_9 C9_9 1_555 1_555
H5_11 C9_9 1_555 1_555
H6_9 C9_9 1_555 1_555
C10_9 C6_11 1_555 1_555
H7_9 C10_9 1_555 1_555
H8_9 C10_9 1_555 1_555
H9_9 C10_9 1_555 1_555
N6_15 N4_15 1_555 1_555
N7_13 C8_15 1_555 1_555
H11_13 N7_13 1_555 1_555
N8_12 Zn3_4 1_555 1_555
C2_11 C3_11 1_555 1_555
C6_11 C7_11 1_555 1_555
Zn3 N1_16 1_555 1_555
N1_16 C1_14 1_555 1_555
C1_14 H1_16 1_555 1_555
N8_12 C1_14 1_555 1_555
C2_12 N1_16 1_555 1_555
C3_12 N8_12 1_555 1_555
C4_12 C3_12 1_555 1_555
H2_12 C4_12 1_555 1_555
N9_3 C8_16 1_555 1_555
C5_14 C2_12 1_555 1_555
H3_14 C5_14 1_555 1_555
N4_16 Zn3 1_555 1_555
C6_12 C5_14 1_555 1_555
C7_12 C4_12 1_555 1_555
C8_16 N4_16 1_555 1_555
C9_10 C7_12 1_555 1_555
H4_10 C9_10 1_555 1_555
H5_12 C9_10 1_555 1_555
H6_10 C9_10 1_555 1_555
C10_10 C6_12 1_555 1_555
H7_10 C10_10 1_555 1_555
H8_10 C10_10 1_555 1_555
H9_10 C10_10 1_555 1_555
N5_16 N9_3 1_555 1_555
N6_16 N4_16 1_555 1_555
N7_14 C8_16 1_555 1_555
H10_12 N7_14 1_555 1_555
H11_14 N7_14 1_555 1_555
C2_12 C3_12 1_555 1_555
C6_12 C7_12 1_555 1_555
N5_16 N6_16 1_555 1_555
H4_11 C9_11 1_555 1_555
H6_11 C9_11 1_555 1_555
H8_11 C10_11 1_555 1_555
H9_11 C10_11 1_555 1_555
H4_12 C9_12 1_555 1_555
H6_12 C9_12 1_555 1_555
H8_12 C10_12 1_555 1_555
H9_12 C10_12 1_555 1_555
H10_13 N7_15 1_555 1_555
H11_15 N7_15 1_555 1_555
N2_3 C1_15 1_555 1_555
C3_13 N2_3 1_555 1_555
C4_13 C3_13 1_555 1_555
H2_13 C4_13 1_555 1_555
C7_13 C4_13 1_555 1_555
C2_13 C3_13 1_555 1_555
C6_13 C7_13 1_555 1_555
C4_14 C3_14 1_555 1_555
H2_14 C4_14 1_555 1_555
C5_15 C2_14 1_555 1_555
H3_15 C5_15 1_555 1_555
C6_14 C5_15 1_555 1_555
C7_14 C4_14 1_555 1_555
C9_13 C7_14 1_555 1_555
H4_13 C9_13 1_555 1_555
H5_14 C9_13 1_555 1_555
H6_13 C9_13 1_555 1_555
C10_13 C6_14 1_555 1_555
H7_13 C10_13 1_555 1_555
H8_13 C10_13 1_555 1_555
H9_13 C10_13 1_555 1_555
C2_14 C3_14 1_555 1_555
C6_14 C7_14 1_555 1_555
H4_14 C9_14 1_555 1_555
H6_14 C9_14 1_555 1_555
H8_14 C10_14 1_555 1_555
H9_14 C10_14 1_555 1_555
N2_4 C1_16 1_555 1_555
C3_15 N2_4 1_555 1_555
C4_15 C3_15 1_555 1_555
H2_15 C4_15 1_555 1_555
C7_15 C4_15 1_555 1_555
C2_15 C3_15 1_555 1_555
C6_15 C7_15 1_555 1_555
C4_16 C3_16 1_555 1_555
H2_16 C4_16 1_555 1_555
C5_16 C2_16 1_555 1_555
H3_16 C5_16 1_555 1_555
C6_16 C5_16 1_555 1_555
C7_16 C4_16 1_555 1_555
C9_15 C7_16 1_555 1_555
H4_15 C9_15 1_555 1_555
H5_16 C9_15 1_555 1_555
H6_15 C9_15 1_555 1_555
C10_15 C6_16 1_555 1_555
H7_15 C10_15 1_555 1_555
H8_15 C10_15 1_555 1_555
H9_15 C10_15 1_555 1_555
C2_16 C3_16 1_555 1_555
C6_16 C7_16 1_555 1_555
H10_15 N7_16 1_555 1_555
H11_16 N7_16 1_555 1_555
H4_16 C9_16 1_555 1_555
H6_16 C9_16 1_555 1_555
H8_16 C10_16 1_555 1_555
H9_16 C10_16 1_555 1_555

#END
