
###############################################################################
#
# This file contains modified crystal structure data generated from the
# MOF subset of the Cambridge Structural Database (CSD) v543 
# hosted by the Cambridge Crystallographic Data Centre (CCDC).
#
# This work is licensed under the Creative Commons
# Attribution-NonCommercial-ShareAlike 4.0 International License.
# To view a copy of this license, visit
# http://creativecommons.org/licenses/by-nc-sa/4.0/
# or send a letter to
# Creative Commons, PO Box 1866, Mountain View, CA 94042, USA.
#
# CIF created using the CSD Python API on 29 September 2022
# The structure has been converted into the P1 space group
# The structure has a 3D framework
# The original CSD entry HORBOI is in the tetragonal crystal system
# The framework has been calculated to contain at least 10.0% void space
# The void calculation uses a probe of radius 1.32A, grid spacing 0.4
#
###############################################################################

data_HORBOI
_chemical_formula_moiety         '(C160 H160 N94 Zn16)n'
_symmetry_cell_setting           triclinic
_symmetry_space_group_name_H-M   'P 1'
_symmetry_Int_Tables_number      1
_space_group_name_Hall           'P 1'
loop_
_symmetry_equiv_pos_site_id
_symmetry_equiv_pos_as_xyz
1 x,y,z
_cell_length_a                   16.4875(8)
_cell_length_b                   16.4875(8)
_cell_length_c                   21.5651(15)
_cell_angle_alpha                90
_cell_angle_beta                 90
_cell_angle_gamma                90
_cell_volume                     5862.21
loop_
_atom_site_label
_atom_site_type_symbol
_atom_site_fract_x
_atom_site_fract_y
_atom_site_fract_z
N3 N 0.0437(4) 0.4631(5) 0.1291(3)
N6 N 0.0120(6) 0.5336(7) 0.1111(8)
Zn3 Zn 0.16298(4) 0.45276(4) 0.14654(3)
Zn1 Zn 0.79724(4) 0.41298(4) 0.10346(3)
N1 N 0.7658(4) 0.4399(4) 0.0183(3)
C6 C 0.6153(5) 0.4063(5) 0.0057(4)
H3 H 0.6077 0.3831 0.0456
N4 N 0.9146(4) 0.4472(5) 0.1120(3)
C8 C 0.9807(5) 0.4144(6) 0.1271(5)
H4 H 0.9848 0.3582 0.1365
N5 N 0.9370(6) 0.5240(7) 0.0994(8)
H10 H 0.4499 0.4060 0.0208
N7 N 0.7401(4) 0.4675(4) 0.1718(3)
N8 N 0.7869(5) 0.2937(4) 0.1209(3)
N2 N 0.7825(4) 0.4901(4) 0.9218(3)
C1 C 0.6909(4) 0.4367(4) 0.9876(3)
C2 C 0.8161(4) 0.4724(5) 0.9763(3)
H1 H 0.8718 0.4821 0.9848
C3 C 0.7020(4) 0.4680(4) 0.9283(3)
C4 C 0.5622(5) 0.4438(6) 0.9046(4)
C5 C 0.6377(5) 0.4734(5) 0.8860(4)
H2 H 0.6452 0.4964 0.8461
C7 C 0.5526(5) 0.4110(5) 0.9643(4)
C9 C 0.4922(7) 0.4495(8) 0.8596(6)
H5 H 0.4434 0.4266 0.8788
H6 H 0.4825 0.5065 0.8491
H7 H 0.5053 0.4192 0.8219
C10 C 0.4691(5) 0.3770(7) 0.9840(6)
H8 H 0.4302 0.3843 0.9501
H9 H 0.4743 0.3191 0.9935
Zn2 Zn 0.83702(4) 0.54724(4) 0.85346(3)
Zn1_2 Zn 0.33702(4) 0.04724(4) 0.35346(3)
N1_2 N 0.3101(4) 0.0158(4) 0.2683(3)
N2_2 N 0.2599(4) 0.0325(4) 0.1718(3)
N3_2 N 0.2869(5) 0.2937(4) 0.3791(3)
C2_2 C 0.2776(5) 0.0661(4) 0.2263(3)
H1_2 H 0.2679 0.1218 0.2348
N4_2 N 0.3028(5) 0.1646(4) 0.3620(3)
C8_2 C 0.3356(6) 0.2307(5) 0.3771(5)
H4_2 H 0.3918 0.2348 0.3865
N5_2 N 0.2260(7) 0.1870(6) 0.3494(8)
N6_2 N 0.2164(7) 0.2620(6) 0.3611(8)
Zn2_2 Zn 0.20276(4) 0.08702(4) 0.10346(3)
Zn3_2 Zn 0.29724(4) 0.41298(4) 0.39654(3)
N8_2 N 0.4563(4) 0.0369(5) 0.3709(3)
C1_2 C 0.3133(4) 0.9409(4) 0.2376(3)
C3_2 C 0.2820(4) 0.9520(4) 0.1783(3)
C4_2 C 0.3062(6) 0.8122(5) 0.1546(4)
C5_2 C 0.2766(5) 0.8877(5) 0.1360(4)
H2_2 H 0.2536 0.8952 0.0961
C6_2 C 0.3437(5) 0.8653(5) 0.2557(4)
H3_2 H 0.3669 0.8577 0.2956
C7_2 C 0.3390(5) 0.8026(5) 0.2143(4)
C9_2 C 0.3005(8) 0.7422(7) 0.1096(6)
H5_2 H 0.3234 0.6934 0.1288
H6_2 H 0.2435 0.7325 0.0991
H7_2 H 0.3308 0.7553 0.0719
C10_2 C 0.3730(7) 0.7191(5) 0.2340(6)
H8_2 H 0.3657 0.6802 0.2001
H9_2 H 0.4309 0.7243 0.2435
H10_2 H 0.3440 0.6999 0.2708
N7_2 N 0.2825(4) 0.9901(4) 0.4218(3)
N1_3 N 0.2342(4) 0.0601(4) 0.0183(3)
C6_3 C 0.3847(5) 0.0937(5) 0.0057(4)
H3_3 H 0.3923 0.1169 0.0456
N4_3 N 0.0854(4) 0.0528(5) 0.1120(3)
C8_3 C 0.0193(5) 0.0856(6) 0.1271(5)
H4_3 H 0.0152 0.1418 0.1365
H10_3 H 0.5501 0.0940 0.0208
N8_3 N 0.2131(5) 0.2063(4) 0.1209(3)
H6_3 H 0.5175 0.9935 0.8491
Zn2_3 Zn 0.16298(4) 0.95276(4) 0.85346(3)
N3_3 N 0.9563(4) 0.0369(5) 0.1291(3)
Zn3_3 Zn 0.83702(4) 0.04724(4) 0.14654(3)
Zn1_3 Zn 0.66298(4) 0.45276(4) 0.35346(3)
N1_4 N 0.6899(4) 0.4842(4) 0.2683(3)
C1_3 C 0.6867(4) 0.5591(4) 0.2376(3)
N3_4 N 0.7131(5) 0.2063(4) 0.3791(3)
C2_3 C 0.7224(5) 0.4339(4) 0.2263(3)
H1_3 H 0.7321 0.3782 0.2348
C3_3 C 0.7180(4) 0.5480(4) 0.1783(3)
C4_3 C 0.6938(6) 0.6878(5) 0.1546(4)
C5_3 C 0.7234(5) 0.6123(5) 0.1360(4)
H2_3 H 0.7464 0.6048 0.0961
C6_4 C 0.6563(5) 0.6347(5) 0.2557(4)
H3_4 H 0.6331 0.6423 0.2956
N4_4 N 0.6972(5) 0.3354(4) 0.3620(3)
C7_3 C 0.6610(5) 0.6974(5) 0.2143(4)
C8_4 C 0.6644(6) 0.2693(5) 0.3771(5)
H4_4 H 0.6082 0.2652 0.3865
N5_3 N 0.7740(7) 0.3130(6) 0.3494(8)
N6_3 N 0.7836(7) 0.2380(6) 0.3611(8)
C9_3 C 0.6995(8) 0.7578(7) 0.1096(6)
H5_3 H 0.6766 0.8066 0.1288
H6_4 H 0.7565 0.7675 0.0991
H7_3 H 0.6692 0.7447 0.0719
C10_3 C 0.6270(7) 0.7809(5) 0.2340(6)
H8_3 H 0.6343 0.8198 0.2001
H9_3 H 0.5691 0.7757 0.2435
H10_4 H 0.6560 0.8001 0.2708
Zn3_4 Zn 0.70276(4) 0.08702(4) 0.39654(3)
N7_3 N 0.7175(4) 0.5099(4) 0.4218(3)
N8_4 N 0.5437(4) 0.4631(5) 0.3709(3)
N5_4 N 0.4370(6) 0.0240(7) 0.5994(8)
N6_4 N 0.5120(6) 0.0336(7) 0.6111(8)
Zn1_4 Zn 0.29724(4) 0.91298(4) 0.60346(3)
N1_5 N 0.2658(4) 0.9399(4) 0.5183(3)
C1_4 C 0.1909(4) 0.9367(4) 0.4876(3)
N3_5 N 0.5437(4) 0.9631(5) 0.6291(3)
C2_4 C 0.3161(4) 0.9724(5) 0.4763(3)
H1_4 H 0.3718 0.9821 0.4848
C3_4 C 0.2020(4) 0.9680(4) 0.4283(3)
C4_4 C 0.0622(5) 0.9438(6) 0.4046(4)
C5_4 C 0.1377(5) 0.9734(5) 0.3860(4)
H2_4 H 0.1452 0.9964 0.3461
C6_5 C 0.1153(5) 0.9063(5) 0.5057(4)
H3_5 H 0.1077 0.8831 0.5456
N4_5 N 0.4146(4) 0.9472(5) 0.6120(3)
C7_4 C 0.0526(5) 0.9110(5) 0.4643(4)
C8_5 C 0.4807(5) 0.9144(6) 0.6271(5)
H4_5 H 0.4848 0.8582 0.6365
H7_4 H 0.0053 0.9192 0.3219
Zn3_5 Zn 0.66298(4) 0.95276(4) 0.64654(3)
N7_4 N 0.2401(4) 0.9675(4) 0.6718(3)
N8_5 N 0.2869(5) 0.7937(4) 0.6209(3)
N1_6 N 0.8101(4) 0.5158(4) 0.7683(3)
N2_3 N 0.7599(4) 0.5325(4) 0.6718(3)
C1_5 C 0.8133(4) 0.4409(4) 0.7376(3)
N3_6 N 0.7869(5) 0.7937(4) 0.8791(3)
C2_5 C 0.7776(5) 0.5661(4) 0.7263(3)
H1_5 H 0.7679 0.6218 0.7348
C3_5 C 0.7820(4) 0.4520(4) 0.6783(3)
C4_5 C 0.8062(6) 0.3122(5) 0.6546(4)
C5_5 C 0.7766(5) 0.3877(5) 0.6360(4)
H2_5 H 0.7536 0.3952 0.5961
C6_6 C 0.8437(5) 0.3653(5) 0.7557(4)
H3_6 H 0.8669 0.3577 0.7956
N4_6 N 0.8028(5) 0.6646(4) 0.8620(3)
C7_5 C 0.8390(5) 0.3026(5) 0.7143(4)
C8_6 C 0.8356(6) 0.7307(5) 0.8771(5)
H4_6 H 0.8918 0.7348 0.8865
N5_5 N 0.7260(7) 0.6870(6) 0.8494(8)
N6_5 N 0.7164(7) 0.7620(6) 0.8611(8)
C9_4 C 0.8005(8) 0.2422(7) 0.6096(6)
H5_4 H 0.8234 0.1934 0.6288
H6_5 H 0.7435 0.2325 0.5991
H7_5 H 0.8308 0.2553 0.5719
C10_4 C 0.8730(7) 0.2191(5) 0.7340(6)
H8_4 H 0.8657 0.1802 0.7001
H9_4 H 0.9309 0.2243 0.7435
H10_5 H 0.8440 0.1999 0.7708
Zn2_4 Zn 0.70276(4) 0.58702(4) 0.60346(3)
Zn3_6 Zn 0.79724(4) 0.91298(4) 0.89654(3)
N8_6 N 0.9563(4) 0.5369(5) 0.8709(3)
N1_7 N 0.7342(4) 0.5601(4) 0.5183(3)
C1_6 C 0.8091(4) 0.5633(4) 0.4876(3)
N3_7 N 0.4563(4) 0.5369(5) 0.6291(3)
C2_6 C 0.6839(4) 0.5276(5) 0.4763(3)
H1_6 H 0.6282 0.5179 0.4848
C3_6 C 0.7980(4) 0.5320(4) 0.4283(3)
C4_6 C 0.9378(5) 0.5562(6) 0.4046(4)
C5_6 C 0.8623(5) 0.5266(5) 0.3860(4)
H2_6 H 0.8548 0.5036 0.3461
C6_7 C 0.8847(5) 0.5937(5) 0.5057(4)
H3_7 H 0.8923 0.6169 0.5456
N4_7 N 0.5854(4) 0.5528(5) 0.6120(3)
C7_6 C 0.9474(5) 0.5890(5) 0.4643(4)
C8_7 C 0.5193(5) 0.5856(6) 0.6271(5)
H4_7 H 0.5152 0.6418 0.6365
N5_6 N 0.5630(6) 0.4760(7) 0.5994(8)
N6_6 N 0.4880(6) 0.4664(7) 0.6111(8)
H7_6 H 0.9947 0.5808 0.3219
Zn3_7 Zn 0.33702(4) 0.54724(4) 0.64654(3)
N8_7 N 0.7131(5) 0.7063(4) 0.6209(3)
N1_8 N 0.1899(4) 0.9842(4) 0.7683(3)
N3_8 N 0.2131(5) 0.7063(4) 0.8791(3)
C2_7 C 0.2224(5) 0.9339(4) 0.7263(3)
H1_7 H 0.2321 0.8782 0.7348
N4_8 N 0.1972(5) 0.8354(4) 0.8620(3)
C8_8 C 0.1644(6) 0.7693(5) 0.8771(5)
H4_8 H 0.1082 0.7652 0.8865
N5_7 N 0.2740(7) 0.8130(6) 0.8494(8)
N6_7 N 0.2836(7) 0.7380(6) 0.8611(8)
Zn3_8 Zn 0.20276(4) 0.58702(4) 0.89654(3)
N8_8 N 0.0437(4) 0.9631(5) 0.8709(3)
N2_4 N 0.2175(4) 0.5099(4) 0.0782(3)
C1_7 C 0.3091(4) 0.5633(4) 0.0124(3)
C2_8 C 0.1839(4) 0.5276(5) 0.0237(3)
H1_8 H 0.1282 0.5179 0.0152
C3_7 C 0.2980(4) 0.5320(4) 0.0717(3)
C4_7 C 0.4378(5) 0.5562(6) 0.0954(4)
C5_7 C 0.3623(5) 0.5266(5) 0.1140(4)
H2_7 H 0.3548 0.5036 0.1539
C7_7 C 0.4474(5) 0.5890(5) 0.0357(4)
C9_5 C 0.5078(7) 0.5505(8) 0.1404(6)
H5_5 H 0.5566 0.5734 0.1212
H6_6 H 0.5175 0.4935 0.1509
H7_7 H 0.4947 0.5808 0.1781
C10_5 C 0.5309(5) 0.6230(7) 0.0160(6)
H8_5 H 0.5698 0.6157 0.0499
H9_5 H 0.5257 0.6809 0.0065
N1_9 N 0.2342(4) 0.5601(4) 0.9817(3)
C6_8 C 0.3847(5) 0.5937(5) 0.9943(4)
H3_8 H 0.3923 0.6169 0.9544
N4_9 N 0.0854(4) 0.5528(5) 0.8880(3)
C8_9 C 0.0193(5) 0.5856(6) 0.8729(5)
H4_9 H 0.0152 0.6418 0.8635
N5_8 N 0.0630(6) 0.4760(7) 0.9006(8)
H10_6 H 0.5501 0.5940 0.9792
N7_5 N 0.2599(4) 0.5325(4) 0.8282(3)
N6_8 N 0.9880(6) 0.4664(7) 0.8889(8)
C1_8 C 0.6867(4) 0.0591(4) 0.7624(3)
C3_8 C 0.7180(4) 0.0480(4) 0.8217(3)
C4_8 C 0.6938(6) 0.1878(5) 0.8454(4)
C5_8 C 0.7234(5) 0.1123(5) 0.8640(4)
H2_8 H 0.7464 0.1048 0.9039
C6_9 C 0.6563(5) 0.1347(5) 0.7443(4)
H3_9 H 0.6331 0.1423 0.7044
C7_8 C 0.6610(5) 0.1974(5) 0.7857(4)
C9_6 C 0.6995(8) 0.2578(7) 0.8904(6)
H5_6 H 0.6766 0.3066 0.8712
H6_7 H 0.7565 0.2675 0.9009
H7_8 H 0.6692 0.2447 0.9281
C10_6 C 0.6270(7) 0.2809(5) 0.7660(6)
H8_6 H 0.6343 0.3198 0.7999
H9_6 H 0.5691 0.2757 0.7565
H10_7 H 0.6560 0.3001 0.7292
N7_6 N 0.7175(4) 0.0099(4) 0.5782(3)
N1_10 N 0.6899(4) 0.9842(4) 0.7317(3)
N2_5 N 0.7401(4) 0.9675(4) 0.8282(3)
C2_9 C 0.7224(5) 0.9339(4) 0.7737(3)
H1_9 H 0.7321 0.8782 0.7652
N4_10 N 0.6972(5) 0.8354(4) 0.6380(3)
C8_10 C 0.6644(6) 0.7693(5) 0.6229(5)
H4_10 H 0.6082 0.7652 0.6135
N5_9 N 0.7740(7) 0.8130(6) 0.6506(8)
N6_9 N 0.7836(7) 0.7380(6) 0.6389(8)
H6_8 H 0.4825 0.0065 0.1509
N1_11 N 0.7658(4) 0.9399(4) 0.9817(3)
C6_10 C 0.6153(5) 0.9063(5) 0.9943(4)
H3_10 H 0.6077 0.8831 0.9544
N4_11 N 0.9146(4) 0.9472(5) 0.8880(3)
C8_11 C 0.9807(5) 0.9144(6) 0.8729(5)
H4_11 H 0.9848 0.8582 0.8635
H10_8 H 0.4499 0.9060 0.9792
N1_12 N 0.3101(4) 0.5158(4) 0.7317(3)
C1_9 C 0.3133(4) 0.4409(4) 0.7624(3)
C2_10 C 0.2776(5) 0.5661(4) 0.7737(3)
H1_10 H 0.2679 0.6218 0.7652
C3_9 C 0.2820(4) 0.4520(4) 0.8217(3)
C4_9 C 0.3062(6) 0.3122(5) 0.8454(4)
C5_9 C 0.2766(5) 0.3877(5) 0.8640(4)
H2_9 H 0.2536 0.3952 0.9039
C6_11 C 0.3437(5) 0.3653(5) 0.7443(4)
H3_11 H 0.3669 0.3577 0.7044
N4_12 N 0.3028(5) 0.6646(4) 0.6380(3)
C7_9 C 0.3390(5) 0.3026(5) 0.7857(4)
C8_12 C 0.3356(6) 0.7307(5) 0.6229(5)
H4_12 H 0.3918 0.7348 0.6135
N5_10 N 0.2260(7) 0.6870(6) 0.6506(8)
N6_10 N 0.2164(7) 0.7620(6) 0.6389(8)
C9_7 C 0.3005(8) 0.2422(7) 0.8904(6)
H5_7 H 0.3234 0.1934 0.8712
H6_9 H 0.2435 0.2325 0.9009
H7_9 H 0.3308 0.2553 0.9281
C10_7 C 0.3730(7) 0.2191(5) 0.7660(6)
H8_7 H 0.3657 0.1802 0.7999
H9_7 H 0.4309 0.2243 0.7565
H10_9 H 0.3440 0.1999 0.7292
N7_7 N 0.2825(4) 0.4901(4) 0.5782(3)
N1_13 N 0.7342(4) 0.0601(4) 0.4817(3)
C1_10 C 0.8091(4) 0.0633(4) 0.5124(3)
C2_11 C 0.6839(4) 0.0276(5) 0.5237(3)
H1_11 H 0.6282 0.0179 0.5152
C3_10 C 0.7980(4) 0.0320(4) 0.5717(3)
C4_10 C 0.9378(5) 0.0562(6) 0.5954(4)
C5_10 C 0.8623(5) 0.0266(5) 0.6140(4)
H2_10 H 0.8548 0.0036 0.6539
C6_12 C 0.8847(5) 0.0937(5) 0.4943(4)
H3_12 H 0.8923 0.1169 0.4544
N4_13 N 0.5854(4) 0.0528(5) 0.3880(3)
C7_10 C 0.9474(5) 0.0890(5) 0.5357(4)
C8_13 C 0.5193(5) 0.0856(6) 0.3729(5)
H4_13 H 0.5152 0.1418 0.3635
H7_10 H 0.9947 0.0808 0.6781
N7_8 N 0.7599(4) 0.0325(4) 0.3282(3)
N5_11 N 0.5630(6) 0.9760(7) 0.4006(8)
N6_11 N 0.4880(6) 0.9664(7) 0.3889(8)
N1_14 N 0.1899(4) 0.4842(4) 0.2317(3)
N2_6 N 0.2401(4) 0.4675(4) 0.3282(3)
C1_11 C 0.1867(4) 0.5591(4) 0.2624(3)
C2_12 C 0.2224(5) 0.4339(4) 0.2737(3)
H1_12 H 0.2321 0.3782 0.2652
C3_11 C 0.2180(4) 0.5480(4) 0.3217(3)
C4_11 C 0.1938(6) 0.6878(5) 0.3454(4)
C5_11 C 0.2234(5) 0.6123(5) 0.3640(4)
H2_11 H 0.2464 0.6048 0.4039
C6_13 C 0.1563(5) 0.6347(5) 0.2443(4)
H3_13 H 0.1331 0.6423 0.2044
N4_14 N 0.1972(5) 0.3354(4) 0.1380(3)
C7_11 C 0.1610(5) 0.6974(5) 0.2857(4)
C8_14 C 0.1644(6) 0.2693(5) 0.1229(5)
H4_14 H 0.1082 0.2652 0.1135
N5_12 N 0.2740(7) 0.3130(6) 0.1506(8)
N6_12 N 0.2836(7) 0.2380(6) 0.1389(8)
C9_8 C 0.1995(8) 0.7578(7) 0.3904(6)
H5_8 H 0.1766 0.8066 0.3712
H6_10 H 0.2565 0.7675 0.4009
H7_11 H 0.1692 0.7447 0.4281
C10_8 C 0.1270(7) 0.7809(5) 0.2660(6)
H8_8 H 0.1343 0.8198 0.2999
H9_8 H 0.0691 0.7757 0.2565
H10_10 H 0.1560 0.8001 0.2292
N1_15 N 0.2658(4) 0.4399(4) 0.4817(3)
C1_12 C 0.1909(4) 0.4367(4) 0.5124(3)
C2_13 C 0.3161(4) 0.4724(5) 0.5237(3)
H1_13 H 0.3718 0.4821 0.5152
C3_12 C 0.2020(4) 0.4680(4) 0.5717(3)
C4_12 C 0.0622(5) 0.4438(6) 0.5954(4)
C5_12 C 0.1377(5) 0.4734(5) 0.6140(4)
H2_12 H 0.1452 0.4964 0.6539
C6_14 C 0.1153(5) 0.4063(5) 0.4943(4)
H3_14 H 0.1077 0.3831 0.4544
N4_15 N 0.4146(4) 0.4472(5) 0.3880(3)
C7_12 C 0.0526(5) 0.4110(5) 0.5357(4)
C8_15 C 0.4807(5) 0.4144(6) 0.3729(5)
H4_15 H 0.4848 0.3582 0.3635
N5_13 N 0.4370(6) 0.5240(7) 0.4006(8)
N6_13 N 0.5120(6) 0.5336(7) 0.3889(8)
H7_12 H 0.0053 0.4192 0.6781
N1_16 N 0.8101(4) 0.0158(4) 0.2317(3)
C2_14 C 0.7776(5) 0.0661(4) 0.2737(3)
H1_14 H 0.7679 0.1218 0.2652
N4_16 N 0.8028(5) 0.1646(4) 0.1380(3)
C8_16 C 0.8356(6) 0.2307(5) 0.1229(5)
H4_16 H 0.8918 0.2348 0.1135
N5_14 N 0.7260(7) 0.1870(6) 0.1506(8)
N6_14 N 0.7164(7) 0.2620(6) 0.1389(8)
N2_7 N 0.2175(4) 0.0099(4) 0.9218(3)
C1_13 C 0.3091(4) 0.0633(4) 0.9876(3)
C2_15 C 0.1839(4) 0.0276(5) 0.9763(3)
H1_15 H 0.1282 0.0179 0.9848
C3_13 C 0.2980(4) 0.0320(4) 0.9283(3)
C4_13 C 0.4378(5) 0.0562(6) 0.9046(4)
C5_13 C 0.3623(5) 0.0266(5) 0.8860(4)
H2_13 H 0.3548 0.0036 0.8461
C7_13 C 0.4474(5) 0.0890(5) 0.9643(4)
C9_9 C 0.5078(7) 0.0505(8) 0.8596(6)
H5_9 H 0.5566 0.0734 0.8788
H7_13 H 0.4947 0.0808 0.8219
C10_9 C 0.5309(5) 0.1230(7) 0.9840(6)
H8_9 H 0.5698 0.1157 0.9501
H9_9 H 0.5257 0.1809 0.9935
C1_14 C 0.1867(4) 0.0591(4) 0.7376(3)
C3_14 C 0.2180(4) 0.0480(4) 0.6783(3)
C4_14 C 0.1938(6) 0.1878(5) 0.6546(4)
C5_14 C 0.2234(5) 0.1123(5) 0.6360(4)
H2_14 H 0.2464 0.1048 0.5961
C6_15 C 0.1563(5) 0.1347(5) 0.7557(4)
H3_15 H 0.1331 0.1423 0.7956
C7_14 C 0.1610(5) 0.1974(5) 0.7143(4)
C9_10 C 0.1995(8) 0.2578(7) 0.6096(6)
H5_10 H 0.1766 0.3066 0.6288
H6_11 H 0.2565 0.2675 0.5991
H7_14 H 0.1692 0.2447 0.5719
C10_10 C 0.1270(7) 0.2809(5) 0.7340(6)
H8_10 H 0.1343 0.3198 0.7001
H9_10 H 0.0691 0.2757 0.7435
H10_11 H 0.1560 0.3001 0.7708
N5_15 N 0.0630(6) 0.9760(7) 0.0994(8)
N6_15 N 0.9880(6) 0.9664(7) 0.1111(8)
H6_12 H 0.9825 0.0065 0.3491
C9_11 C 0.9922(7) 0.9495(8) 0.3596(6)
H5_11 H 0.9434 0.9266 0.3788
C10_11 C 0.9691(5) 0.8770(7) 0.4840(6)
H8_11 H 0.9302 0.8843 0.4501
H9_11 H 0.9743 0.8191 0.4935
H10_12 H 0.9499 0.9060 0.5208
C9_12 C 0.0078(7) 0.5505(8) 0.3596(6)
H5_12 H 0.0566 0.5734 0.3788
H6_13 H 0.0175 0.4935 0.3491
C10_12 C 0.0309(5) 0.6230(7) 0.4840(6)
H8_12 H 0.0698 0.6157 0.4501
H9_12 H 0.0257 0.6809 0.4935
H10_13 H 0.0501 0.5940 0.5208
N6_16 N 0.0120(6) 0.0336(7) 0.8889(8)
N5_16 N 0.9370(6) 0.0240(7) 0.9006(8)
N2_8 N 0.7825(4) 0.9901(4) 0.0782(3)
C1_15 C 0.6909(4) 0.9367(4) 0.0124(3)
C2_16 C 0.8161(4) 0.9724(5) 0.0237(3)
H1_16 H 0.8718 0.9821 0.0152
C3_15 C 0.7020(4) 0.9680(4) 0.0717(3)
C4_15 C 0.5622(5) 0.9438(6) 0.0954(4)
C5_15 C 0.6377(5) 0.9734(5) 0.1140(4)
H2_15 H 0.6452 0.9964 0.1539
C7_15 C 0.5526(5) 0.9110(5) 0.0357(4)
C9_13 C 0.4922(7) 0.9495(8) 0.1404(6)
H5_13 H 0.4434 0.9266 0.1212
H7_15 H 0.5053 0.9192 0.1781
C10_13 C 0.4691(5) 0.8770(7) 0.0160(6)
H8_13 H 0.4302 0.8843 0.0499
H9_13 H 0.4743 0.8191 0.0065
C1_16 C 0.8133(4) 0.9409(4) 0.2624(3)
C3_16 C 0.7820(4) 0.9520(4) 0.3217(3)
C4_16 C 0.8062(6) 0.8122(5) 0.3454(4)
C5_16 C 0.7766(5) 0.8877(5) 0.3640(4)
H2_16 H 0.7536 0.8952 0.4039
C6_16 C 0.8437(5) 0.8653(5) 0.2443(4)
H3_16 H 0.8669 0.8577 0.2044
C7_16 C 0.8390(5) 0.8026(5) 0.2857(4)
C9_14 C 0.8005(8) 0.7422(7) 0.3904(6)
H5_14 H 0.8234 0.6934 0.3712
H6_14 H 0.7435 0.7325 0.4009
H7_16 H 0.8308 0.7553 0.4281
C10_14 C 0.8730(7) 0.7191(5) 0.2660(6)
H8_14 H 0.8657 0.6802 0.2999
H9_14 H 0.9309 0.7243 0.2565
H10_14 H 0.8440 0.6999 0.2292
C9_15 C 0.0078(7) 0.0505(8) 0.6404(6)
H5_15 H 0.0566 0.0734 0.6212
C10_15 C 0.0309(5) 0.1230(7) 0.5160(6)
H8_15 H 0.0698 0.1157 0.5499
H9_15 H 0.0257 0.1809 0.5065
H10_15 H 0.0501 0.0940 0.4792
H6_15 H 0.0175 0.9935 0.6509
C9_16 C 0.9922(7) 0.4495(8) 0.6404(6)
H5_16 H 0.9434 0.4266 0.6212
H6_16 H 0.9825 0.5065 0.6509
C10_16 C 0.9691(5) 0.3770(7) 0.5160(6)
H8_16 H 0.9302 0.3843 0.5499
H9_16 H 0.9743 0.3191 0.5065
H10_16 H 0.9499 0.4060 0.4792
loop_
_geom_bond_atom_site_label_1
_geom_bond_atom_site_label_2
_geom_bond_site_symmetry_1
_geom_bond_site_symmetry_2
N6 N3 1_555 1_555
Zn3 N3 1_555 1_555
Zn1 N1 1_555 1_555
H3 C6 1_555 1_555
N4 Zn1 1_555 1_555
C8 N4 1_555 1_555
H4 C8 1_555 1_555
N5 N4 1_555 1_555
N7 Zn1 1_555 1_555
N8 Zn1 1_555 1_555
N2 C2 1_555 1_555
C1 C3 1_555 1_555
H1 C2 1_555 1_555
C3 N2 1_555 1_555
C4 C5 1_555 1_555
C5 C3 1_555 1_555
H2 C5 1_555 1_555
C7 C4 1_555 1_555
C9 C4 1_555 1_555
H5 C9 1_555 1_555
H6 C9 1_555 1_555
H7 C9 1_555 1_555
C10 C7 1_555 1_555
H8 C10 1_555 1_555
H9 C10 1_555 1_555
Zn2 N2 1_555 1_555
Zn1_2 N1_2 1_555 1_555
N2_2 C2_2 1_555 1_555
N3_2 C8_2 1_555 1_555
C2_2 N1_2 1_555 1_555
H1_2 C2_2 1_555 1_555
N4_2 Zn1_2 1_555 1_555
C8_2 N4_2 1_555 1_555
H4_2 C8_2 1_555 1_555
N5_2 N4_2 1_555 1_555
N6_2 N3_2 1_555 1_555
Zn2_2 N2_2 1_555 1_555
Zn3_2 N3_2 1_555 1_555
N8_2 Zn1_2 1_555 1_555
N5_2 N6_2 1_555 1_555
C1_2 C3_2 1_555 1_555
C4_2 C5_2 1_555 1_555
C5_2 C3_2 1_555 1_555
H2_2 C5_2 1_555 1_555
C6_2 C1_2 1_555 1_555
H3_2 C6_2 1_555 1_555
C7_2 C4_2 1_555 1_555
C9_2 C4_2 1_555 1_555
H5_2 C9_2 1_555 1_555
H6_2 C9_2 1_555 1_555
H7_2 C9_2 1_555 1_555
C10_2 C7_2 1_555 1_555
H8_2 C10_2 1_555 1_555
H9_2 C10_2 1_555 1_555
H10_2 C10_2 1_555 1_555
C6_2 C7_2 1_555 1_555
Zn2_2 N1_3 1_555 1_555
H3_3 C6_3 1_555 1_555
N4_3 Zn2_2 1_555 1_555
C8_3 N4_3 1_555 1_555
H4_3 C8_3 1_555 1_555
N8_3 Zn2_2 1_555 1_555
Zn3_3 N3_3 1_555 1_555
Zn1_3 N1_4 1_555 1_555
N1_4 C1_3 1_555 1_555
N7 C2_3 1_555 1_555
C1_3 C3_3 1_555 1_555
N3_4 C8_4 1_555 1_555
C2_3 N1_4 1_555 1_555
H1_3 C2_3 1_555 1_555
C3_3 N7 1_555 1_555
C4_3 C5_3 1_555 1_555
C5_3 C3_3 1_555 1_555
H2_3 C5_3 1_555 1_555
C6_4 C1_3 1_555 1_555
H3_4 C6_4 1_555 1_555
N4_4 Zn1_3 1_555 1_555
C7_3 C4_3 1_555 1_555
C8_4 N4_4 1_555 1_555
H4_4 C8_4 1_555 1_555
N5_3 N4_4 1_555 1_555
N6_3 N3_4 1_555 1_555
C9_3 C4_3 1_555 1_555
H5_3 C9_3 1_555 1_555
H6_4 C9_3 1_555 1_555
H7_3 C9_3 1_555 1_555
C10_3 C7_3 1_555 1_555
H8_3 C10_3 1_555 1_555
H9_3 C10_3 1_555 1_555
H10_4 C10_3 1_555 1_555
Zn3_4 N3_4 1_555 1_555
N7_3 Zn1_3 1_555 1_555
N8_4 Zn1_3 1_555 1_555
C6_4 C7_3 1_555 1_555
N5_3 N6_3 1_555 1_555
N5_4 N6_4 1_555 1_555
Zn1_4 N1_5 1_555 1_555
N1_5 C1_4 1_555 1_555
N7_2 C2_4 1_555 1_555
C1_4 C3_4 1_555 1_555
N3_5 C8_5 1_555 1_555
C2_4 N1_5 1_555 1_555
H1_4 C2_4 1_555 1_555
C3_4 N7_2 1_555 1_555
C4_4 C5_4 1_555 1_555
C5_4 C3_4 1_555 1_555
H2_4 C5_4 1_555 1_555
C6_5 C1_4 1_555 1_555
H3_5 C6_5 1_555 1_555
N4_5 Zn1_4 1_555 1_555
C7_4 C4_4 1_555 1_555
C8_5 N4_5 1_555 1_555
H4_5 C8_5 1_555 1_555
Zn3_5 N3_5 1_555 1_555
N7_4 Zn1_4 1_555 1_555
N8_5 Zn1_4 1_555 1_555
C6_5 C7_4 1_555 1_555
Zn2 N1_6 1_555 1_555
N1_6 C1_5 1_555 1_555
N2_3 C2_5 1_555 1_555
C1_5 C3_5 1_555 1_555
N3_6 C8_6 1_555 1_555
C2_5 N1_6 1_555 1_555
H1_5 C2_5 1_555 1_555
C3_5 N2_3 1_555 1_555
C4_5 C5_5 1_555 1_555
C5_5 C3_5 1_555 1_555
H2_5 C5_5 1_555 1_555
C6_6 C1_5 1_555 1_555
H3_6 C6_6 1_555 1_555
N4_6 Zn2 1_555 1_555
C7_5 C4_5 1_555 1_555
C8_6 N4_6 1_555 1_555
H4_6 C8_6 1_555 1_555
N5_5 N4_6 1_555 1_555
N6_5 N3_6 1_555 1_555
C9_4 C4_5 1_555 1_555
H5_4 C9_4 1_555 1_555
H6_5 C9_4 1_555 1_555
H7_5 C9_4 1_555 1_555
C10_4 C7_5 1_555 1_555
H8_4 C10_4 1_555 1_555
H9_4 C10_4 1_555 1_555
H10_5 C10_4 1_555 1_555
Zn2_4 N2_3 1_555 1_555
Zn3_6 N3_6 1_555 1_555
N8_6 Zn2 1_555 1_555
C6_6 C7_5 1_555 1_555
N5_5 N6_5 1_555 1_555
Zn2_4 N1_7 1_555 1_555
N1_7 C1_6 1_555 1_555
N7_3 C2_6 1_555 1_555
C1_6 C3_6 1_555 1_555
N3_7 C8_7 1_555 1_555
C2_6 N1_7 1_555 1_555
H1_6 C2_6 1_555 1_555
C3_6 N7_3 1_555 1_555
C4_6 C5_6 1_555 1_555
C5_6 C3_6 1_555 1_555
H2_6 C5_6 1_555 1_555
C6_7 C1_6 1_555 1_555
H3_7 C6_7 1_555 1_555
N4_7 Zn2_4 1_555 1_555
C7_6 C4_6 1_555 1_555
C8_7 N4_7 1_555 1_555
H4_7 C8_7 1_555 1_555
N5_6 N4_7 1_555 1_555
N6_6 N3_7 1_555 1_555
Zn3_7 N3_7 1_555 1_555
N8_7 Zn2_4 1_555 1_555
C6_7 C7_6 1_555 1_555
N5_6 N6_6 1_555 1_555
Zn2_3 N1_8 1_555 1_555
N7_4 C2_7 1_555 1_555
N3_8 C8_8 1_555 1_555
C2_7 N1_8 1_555 1_555
H1_7 C2_7 1_555 1_555
N4_8 Zn2_3 1_555 1_555
C8_8 N4_8 1_555 1_555
H4_8 C8_8 1_555 1_555
N5_7 N4_8 1_555 1_555
N6_7 N3_8 1_555 1_555
Zn3_8 N3_8 1_555 1_555
N8_8 Zn2_3 1_555 1_555
N5_7 N6_7 1_555 1_555
N2_4 C2_8 1_555 1_555
C1_7 C3_7 1_555 1_555
H1_8 C2_8 1_555 1_555
C3_7 N2_4 1_555 1_555
C4_7 C5_7 1_555 1_555
C5_7 C3_7 1_555 1_555
H2_7 C5_7 1_555 1_555
C7_7 C4_7 1_555 1_555
C9_5 C4_7 1_555 1_555
H5_5 C9_5 1_555 1_555
H6_6 C9_5 1_555 1_555
H7_7 C9_5 1_555 1_555
C10_5 C7_7 1_555 1_555
H8_5 C10_5 1_555 1_555
H9_5 C10_5 1_555 1_555
Zn3 N2_4 1_555 1_555
Zn3_8 N1_9 1_555 1_555
H3_8 C6_8 1_555 1_555
N4_9 Zn3_8 1_555 1_555
C8_9 N4_9 1_555 1_555
H4_9 C8_9 1_555 1_555
N5_8 N4_9 1_555 1_555
N7_5 Zn3_8 1_555 1_555
N6_8 N8_6 1_555 1_555
C1_8 C3_8 1_555 1_555
C4_8 C5_8 1_555 1_555
C5_8 C3_8 1_555 1_555
H2_8 C5_8 1_555 1_555
C6_9 C1_8 1_555 1_555
H3_9 C6_9 1_555 1_555
C7_8 C4_8 1_555 1_555
C9_6 C4_8 1_555 1_555
H5_6 C9_6 1_555 1_555
H6_7 C9_6 1_555 1_555
H7_8 C9_6 1_555 1_555
C10_6 C7_8 1_555 1_555
H8_6 C10_6 1_555 1_555
H9_6 C10_6 1_555 1_555
H10_7 C10_6 1_555 1_555
C6_9 C7_8 1_555 1_555
Zn3_5 N1_10 1_555 1_555
N2_5 C2_9 1_555 1_555
N8_7 C8_10 1_555 1_555
C2_9 N1_10 1_555 1_555
H1_9 C2_9 1_555 1_555
N4_10 Zn3_5 1_555 1_555
C8_10 N4_10 1_555 1_555
H4_10 C8_10 1_555 1_555
N5_9 N4_10 1_555 1_555
N6_9 N8_7 1_555 1_555
Zn3_6 N2_5 1_555 1_555
N5_9 N6_9 1_555 1_555
Zn3_6 N1_11 1_555 1_555
H3_10 C6_10 1_555 1_555
N4_11 Zn3_6 1_555 1_555
C8_11 N4_11 1_555 1_555
H4_11 C8_11 1_555 1_555
Zn3_7 N1_12 1_555 1_555
N1_12 C1_9 1_555 1_555
N7_5 C2_10 1_555 1_555
C1_9 C3_9 1_555 1_555
N8_5 C8_12 1_555 1_555
C2_10 N1_12 1_555 1_555
H1_10 C2_10 1_555 1_555
C3_9 N7_5 1_555 1_555
C4_9 C5_9 1_555 1_555
C5_9 C3_9 1_555 1_555
H2_9 C5_9 1_555 1_555
C6_11 C1_9 1_555 1_555
H3_11 C6_11 1_555 1_555
N4_12 Zn3_7 1_555 1_555
C7_9 C4_9 1_555 1_555
C8_12 N4_12 1_555 1_555
H4_12 C8_12 1_555 1_555
N5_10 N4_12 1_555 1_555
N6_10 N8_5 1_555 1_555
C9_7 C4_9 1_555 1_555
H5_7 C9_7 1_555 1_555
H6_9 C9_7 1_555 1_555
H7_9 C9_7 1_555 1_555
C10_7 C7_9 1_555 1_555
H8_7 C10_7 1_555 1_555
H9_7 C10_7 1_555 1_555
H10_9 C10_7 1_555 1_555
N7_7 Zn3_7 1_555 1_555
C6_11 C7_9 1_555 1_555
N5_10 N6_10 1_555 1_555
Zn3_4 N1_13 1_555 1_555
N1_13 C1_10 1_555 1_555
N7_6 C2_11 1_555 1_555
C1_10 C3_10 1_555 1_555
N8_2 C8_13 1_555 1_555
C2_11 N1_13 1_555 1_555
H1_11 C2_11 1_555 1_555
C3_10 N7_6 1_555 1_555
C4_10 C5_10 1_555 1_555
C5_10 C3_10 1_555 1_555
H2_10 C5_10 1_555 1_555
C6_12 C1_10 1_555 1_555
H3_12 C6_12 1_555 1_555
N4_13 Zn3_4 1_555 1_555
C7_10 C4_10 1_555 1_555
C8_13 N4_13 1_555 1_555
H4_13 C8_13 1_555 1_555
N7_8 Zn3_4 1_555 1_555
C6_12 C7_10 1_555 1_555
N5_11 N6_11 1_555 1_555
Zn3 N1_14 1_555 1_555
N1_14 C1_11 1_555 1_555
N2_6 C2_12 1_555 1_555
C1_11 C3_11 1_555 1_555
N8_3 C8_14 1_555 1_555
C2_12 N1_14 1_555 1_555
H1_12 C2_12 1_555 1_555
C3_11 N2_6 1_555 1_555
C4_11 C5_11 1_555 1_555
C5_11 C3_11 1_555 1_555
H2_11 C5_11 1_555 1_555
C6_13 C1_11 1_555 1_555
H3_13 C6_13 1_555 1_555
N4_14 Zn3 1_555 1_555
C7_11 C4_11 1_555 1_555
C8_14 N4_14 1_555 1_555
H4_14 C8_14 1_555 1_555
N5_12 N4_14 1_555 1_555
N6_12 N8_3 1_555 1_555
C9_8 C4_11 1_555 1_555
H5_8 C9_8 1_555 1_555
H6_10 C9_8 1_555 1_555
H7_11 C9_8 1_555 1_555
C10_8 C7_11 1_555 1_555
H8_8 C10_8 1_555 1_555
H9_8 C10_8 1_555 1_555
H10_10 C10_8 1_555 1_555
Zn3_2 N2_6 1_555 1_555
C6_13 C7_11 1_555 1_555
N5_12 N6_12 1_555 1_555
Zn3_2 N1_15 1_555 1_555
N1_15 C1_12 1_555 1_555
N7_7 C2_13 1_555 1_555
C1_12 C3_12 1_555 1_555
N8_4 C8_15 1_555 1_555
C2_13 N1_15 1_555 1_555
H1_13 C2_13 1_555 1_555
C3_12 N7_7 1_555 1_555
C4_12 C5_12 1_555 1_555
C5_12 C3_12 1_555 1_555
H2_12 C5_12 1_555 1_555
C6_14 C1_12 1_555 1_555
H3_14 C6_14 1_555 1_555
N4_15 Zn3_2 1_555 1_555
C7_12 C4_12 1_555 1_555
C8_15 N4_15 1_555 1_555
H4_15 C8_15 1_555 1_555
N5_13 N4_15 1_555 1_555
N6_13 N8_4 1_555 1_555
C6_14 C7_12 1_555 1_555
N5_13 N6_13 1_555 1_555
Zn3_3 N1_16 1_555 1_555
N7_8 C2_14 1_555 1_555
N8 C8_16 1_555 1_555
C2_14 N1_16 1_555 1_555
H1_14 C2_14 1_555 1_555
N4_16 Zn3_3 1_555 1_555
C8_16 N4_16 1_555 1_555
H4_16 C8_16 1_555 1_555
N5_14 N4_16 1_555 1_555
N6_14 N8 1_555 1_555
N5_14 N6_14 1_555 1_555
N2_7 C2_15 1_555 1_555
C1_13 C3_13 1_555 1_555
H1_15 C2_15 1_555 1_555
C3_13 N2_7 1_555 1_555
C4_13 C5_13 1_555 1_555
C5_13 C3_13 1_555 1_555
H2_13 C5_13 1_555 1_555
C7_13 C4_13 1_555 1_555
C9_9 C4_13 1_555 1_555
H5_9 C9_9 1_555 1_555
H7_13 C9_9 1_555 1_555
C10_9 C7_13 1_555 1_555
H8_9 C10_9 1_555 1_555
H9_9 C10_9 1_555 1_555
C1_14 C3_14 1_555 1_555
C4_14 C5_14 1_555 1_555
C5_14 C3_14 1_555 1_555
H2_14 C5_14 1_555 1_555
C6_15 C1_14 1_555 1_555
H3_15 C6_15 1_555 1_555
C7_14 C4_14 1_555 1_555
C9_10 C4_14 1_555 1_555
H5_10 C9_10 1_555 1_555
H6_11 C9_10 1_555 1_555
H7_14 C9_10 1_555 1_555
C10_10 C7_14 1_555 1_555
H8_10 C10_10 1_555 1_555
H9_10 C10_10 1_555 1_555
H10_11 C10_10 1_555 1_555
C6_15 C7_14 1_555 1_555
H5_11 C9_11 1_555 1_555
H8_11 C10_11 1_555 1_555
H9_11 C10_11 1_555 1_555
H10_12 C10_11 1_555 1_555
H5_12 C9_12 1_555 1_555
H6_13 C9_12 1_555 1_555
H8_12 C10_12 1_555 1_555
H9_12 C10_12 1_555 1_555
H10_13 C10_12 1_555 1_555
N2_8 C2_16 1_555 1_555
C1_15 C3_15 1_555 1_555
H1_16 C2_16 1_555 1_555
C3_15 N2_8 1_555 1_555
C4_15 C5_15 1_555 1_555
C5_15 C3_15 1_555 1_555
H2_15 C5_15 1_555 1_555
C7_15 C4_15 1_555 1_555
C9_13 C4_15 1_555 1_555
H5_13 C9_13 1_555 1_555
H7_15 C9_13 1_555 1_555
C10_13 C7_15 1_555 1_555
H8_13 C10_13 1_555 1_555
H9_13 C10_13 1_555 1_555
C1_16 C3_16 1_555 1_555
C4_16 C5_16 1_555 1_555
C5_16 C3_16 1_555 1_555
H2_16 C5_16 1_555 1_555
C6_16 C1_16 1_555 1_555
H3_16 C6_16 1_555 1_555
C7_16 C4_16 1_555 1_555
C9_14 C4_16 1_555 1_555
H5_14 C9_14 1_555 1_555
H6_14 C9_14 1_555 1_555
H7_16 C9_14 1_555 1_555
C10_14 C7_16 1_555 1_555
H8_14 C10_14 1_555 1_555
H9_14 C10_14 1_555 1_555
H10_14 C10_14 1_555 1_555
C6_16 C7_16 1_555 1_555
H5_15 C9_15 1_555 1_555
H8_15 C10_15 1_555 1_555
H9_15 C10_15 1_555 1_555
H10_15 C10_15 1_555 1_555
H5_16 C9_16 1_555 1_555
H6_16 C9_16 1_555 1_555
H8_16 C10_16 1_555 1_555
H9_16 C10_16 1_555 1_555
H10_16 C10_16 1_555 1_555

#END
