
###############################################################################
#
# This file contains modified crystal structure data generated from the
# MOF subset of the Cambridge Structural Database (CSD) v543 
# hosted by the Cambridge Crystallographic Data Centre (CCDC).
#
# This work is licensed under the Creative Commons
# Attribution-NonCommercial-ShareAlike 4.0 International License.
# To view a copy of this license, visit
# http://creativecommons.org/licenses/by-nc-sa/4.0/
# or send a letter to
# Creative Commons, PO Box 1866, Mountain View, CA 94042, USA.
#
# CIF created using the CSD Python API on 29 September 2022
# The structure has been converted into the P1 space group
# The structure has a 3D framework
# The original CSD entry HORBAU is in the rhombohedral crystal system
# The framework has been calculated to contain at least 10.0% void space
# The void calculation uses a probe of radius 1.32A, grid spacing 0.4
# The framework is charged, counterions have been retained in the structure
#
###############################################################################

data_HORBAU
_chemical_formula_moiety         '(C58 H58 Fe32 O96 1-)n'
_symmetry_cell_setting           triclinic
_symmetry_space_group_name_H-M   'P 1'
_symmetry_Int_Tables_number      1
_space_group_name_Hall           'P 1'
loop_
_symmetry_equiv_pos_site_id
_symmetry_equiv_pos_as_xyz
1 x,y,z
_cell_length_a                   8.278(3)
_cell_length_b                   8.278(3)
_cell_length_c                   63.41(3)
_cell_angle_alpha                90
_cell_angle_beta                 90
_cell_angle_gamma                120
_cell_volume                     3763.04
loop_
_atom_site_label
_atom_site_type_symbol
_atom_site_fract_x
_atom_site_fract_y
_atom_site_fract_z
Fe8 Fe -0.0000 0.0000 0.88893(2)
Fe1 Fe 0.0000 -0.0000 -0.0000
O9 O 0.3471(2) 0.4677(3) 0.03708(3)
O10 O 0.2190(3) 0.2045(4) 0.01880(3)
C5 C 0.2124(4) 0.3335(6) 0.02797(4)
H5 H 0.0985 0.3304 0.0281
Fe10 Fe 0.3333 0.6667 0.05560(2)
Fe1_2 Fe -0.0000 -0.0000 1.0000
O3 O 0.0145(3) 0.2190(3) 0.98120(3)
O16 O 0.0027(2) 0.7944(2) 0.90687(3)
O17 O 0.4677(3) 0.1206(2) 0.96292(3)
C9 C 0.3335(6) 0.1211(4) 0.97203(4)
H9 H 0.3304 0.2319 0.9719
Fe5 Fe 0.6667 0.3333 0.94440(2)
Fe8_2 Fe -0.0000 1.0000 0.88893(2)
Fe1_3 Fe -0.0000 1.0000 -0.0000
O7 O 0.1206(2) 0.6529(2) 0.03708(3)
C4 C 0.1211(4) 0.7876(4) 0.02797(4)
H4 H 0.2319 0.9015 0.0281
O19 O 0.5389(2) 0.6640(2) 0.07354(3)
O20 O 0.3360(2) 0.8749(3) 0.07354(3)
O21 O 0.1251(3) 0.4611(2) 0.07354(3)
O25 O 0.5323(3) 0.8794(2) 0.03708(3)
Fe1_4 Fe -0.0000 1.0000 1.0000
O18 O 0.2045(4) 0.9855(3) 0.98120(3)
Fe8_3 Fe 1.0000 0.0000 0.88893(2)
Fe1_5 Fe 1.0000 -0.0000 -0.0000
O12 O 0.7955(4) 0.0145(3) 0.01880(3)
Fe1_6 Fe 1.0000 -0.0000 1.0000
O1 O 0.4611(2) 0.3360(2) 0.92646(3)
O2 O 0.8794(2) 0.3471(2) 0.96292(3)
C1 C 0.8789(4) 0.2124(4) 0.97203(4)
H1 H 0.7681 0.0985 0.9719
C2 C 0.3333 0.2015(4) 0.9167
H2 H 0.3333 0.0892 0.9167
O4 O 0.2056(2) 0.2082(3) 0.90687(3)
O13 O 0.6640(2) 0.1251(3) 0.92646(3)
C7 C 0.7985(4) 0.1318(4) 0.9167
H7 H 0.9108 0.2441 0.9167
O15 O 0.8749(3) 0.5389(2) 0.92646(3)
C8 C 0.8682(4) 0.6667 0.9167
H8 H 0.7559 0.6667 0.9167
Fe8_4 Fe 1.0000 1.0000 0.88893(2)
O22 O 0.6529(2) 0.5323(3) 0.96292(3)
Fe1_7 Fe 1.0000 1.0000 -0.0000
O8 O 0.9855(3) 0.7810(3) 0.01880(3)
C6 C 0.6665(6) 0.8789(4) 0.02797(4)
H6 H 0.6696 0.7681 0.0281
Fe1_8 Fe 1.0000 1.0000 1.0000
O6 O 0.7810(3) 0.7955(4) 0.98120(3)
C3 C 0.7876(4) 0.6665(6) 0.97203(4)
H3 H 0.9015 0.6696 0.9719
O14 O 0.7918(3) 0.9973(2) 0.90687(3)
Fe8_5 Fe 0.0000 -0.0000 0.61107(2)
Fe8_6 Fe 0.0000 1.0000 0.61107(2)
Fe1_9 Fe -0.0000 -0.0000 0.5000
O3_2 O 0.2190(3) 0.0145(3) 0.51880(3)
O9_2 O 0.4677(3) 0.3471(2) 0.46292(3)
O10_2 O 0.2045(4) 0.2190(3) 0.48120(3)
C5_2 C 0.3335(6) 0.2124(4) 0.47203(4)
H5_2 H 0.3304 0.0985 0.4719
O16_2 O 0.7944(2) 0.0027(2) 0.59313(3)
O17_2 O 0.1206(2) 0.4677(3) 0.53708(3)
C9_2 C 0.1211(4) 0.3335(6) 0.52797(4)
H9_2 H 0.2319 0.3304 0.5281
Fe5_2 Fe 0.3333 0.6667 0.55560(2)
Fe8_7 Fe 1.0000 -0.0000 0.61107(2)
Fe10_2 Fe 0.6667 0.3333 0.44440(2)
Fe1_10 Fe -0.0000 1.0000 0.5000
O1_2 O 0.3360(2) 0.4611(2) 0.57354(3)
O2_2 O 0.3471(2) 0.8794(2) 0.53708(3)
C1_2 C 0.2124(4) 0.8789(4) 0.52797(4)
H1_2 H 0.0985 0.7681 0.5281
C2_2 C 0.2015(4) 0.3333 0.5833
H2_2 H 0.0892 0.3333 0.5833
O4_2 O 0.2082(3) 0.2056(2) 0.59313(3)
O12_2 O 0.0145(3) 0.7955(4) 0.48120(3)
O13_2 O 0.1251(3) 0.6640(2) 0.57354(3)
C7_2 C 0.1318(4) 0.7985(4) 0.5833
H7_2 H 0.2441 0.9108 0.5833
O15_2 O 0.5389(2) 0.8749(3) 0.57354(3)
C8_2 C 0.6667 0.8682(4) 0.5833
H8_2 H 0.6667 0.7559 0.5833
Fe8_8 Fe 1.0000 1.0000 0.61107(2)
O22_2 O 0.5323(3) 0.6529(2) 0.53708(3)
Fe1_11 Fe 1.0000 -0.0000 0.5000
O7_2 O 0.6529(2) 0.1206(2) 0.46292(3)
C4_2 C 0.7876(4) 0.1211(4) 0.47203(4)
H4_2 H 0.9015 0.2319 0.4719
O18_2 O 0.9855(3) 0.2045(4) 0.51880(3)
O19_2 O 0.6640(2) 0.5389(2) 0.42646(3)
O20_2 O 0.8749(3) 0.3360(2) 0.42646(3)
O21_2 O 0.4611(2) 0.1251(3) 0.42646(3)
O25_2 O 0.8794(2) 0.5323(3) 0.46292(3)
Fe1_12 Fe 1.0000 1.0000 0.5000
O6_2 O 0.7955(4) 0.7810(3) 0.51880(3)
C3_2 C 0.6665(6) 0.7876(4) 0.52797(4)
H3_2 H 0.6696 0.9015 0.5281
O8_2 O 0.7810(3) 0.9855(3) 0.48120(3)
C6_2 C 0.8789(4) 0.6665(6) 0.47203(4)
H6_2 H 0.7681 0.6696 0.4719
O14_2 O 0.9973(2) 0.7918(3) 0.59313(3)
Fe10_3 Fe -0.0000 0.0000 0.38893(2)
O9_3 O 0.0138(2) 0.8010(3) 0.37041(3)
O17_3 O 0.1344(3) 0.4539(2) 0.29625(3)
C9_3 C 0.0002(6) 0.4544(4) 0.30536(4)
Fe5_3 Fe 0.3334 0.6666 0.27773(2)
Fe10_4 Fe -0.0000 1.0000 0.38893(2)
O20_3 O 0.0027(2) 0.2082(3) 0.40687(3)
O25_3 O 0.1990(3) 0.2127(2) 0.37041(3)
O19_3 O 0.2056(2) 0.9973(2) 0.40687(3)
C8_3 C 0.5349(4) 0.0000 0.2500
H8_3 H 0.4226 0.0000 0.2500
O16_3 O 0.6693(2) 0.1278(2) 0.24021(3)
Fe8_9 Fe 0.6666 0.3334 0.22227(2)
Fe10_5 Fe 1.0000 0.0000 0.38893(2)
Fe1_13 Fe 0.6667 0.3333 0.3333
O1_3 O 0.1278(2) 0.6693(2) 0.25979(3)
O2_3 O 0.5461(2) 0.6804(2) 0.29625(3)
O3_3 O 0.6812(3) 0.5523(3) 0.31453(3)
C1_3 C 0.5456(4) 0.5457(4) 0.30536(4)
H1_3 H 0.4348 0.4318 0.3052
C2_3 C -0.0000 0.5348(4) 0.2500
H2_3 H -0.0000 0.4225 0.2500
O6_3 O 0.4477(3) 0.1288(4) 0.31453(3)
H3_3 H 0.5682 0.0029 0.3052
O8_3 O 0.6522(3) 0.1143(3) 0.35213(3)
C4_3 C 0.7878(4) 0.1209(4) 0.36130(4)
H4_3 H 0.8986 0.2348 0.3614
O10_3 O 0.8857(3) 0.5378(4) 0.35213(3)
C5_3 C 0.8791(4) 0.6668(6) 0.36130(4)
H5_3 H 0.7652 0.6637 0.3614
O12_3 O 0.4622(4) 0.3478(3) 0.35213(3)
C6_3 C 0.3332(6) 0.2122(4) 0.36130(4)
H6_3 H 0.3363 0.1014 0.3614
O13_3 O 0.3307(2) 0.4584(3) 0.25979(3)
C7_3 C 0.4652(4) 0.4651(4) 0.2500
H7_3 H 0.5775 0.5774 0.2500
O14_3 O 0.4584(3) 0.3307(2) 0.24021(3)
O15_3 O 0.5416(3) 0.8722(2) 0.25979(3)
C8_4 C 0.5349(4) 1.0000 0.2500
H8_4 H 0.4226 1.0000 0.2500
O18_3 O 0.8712(4) 0.3188(3) 0.31453(3)
H9_3 H 0.9971 0.5652 0.3052
Fe10_6 Fe 1.0000 1.0000 0.38893(2)
O22_3 O 0.3196(2) 0.8656(3) 0.29625(3)
C3_3 C 0.4543(4) 0.9998(6) 0.30536(4)
O7_3 O 0.7873(2) 0.9862(2) 0.37041(3)
O21_3 O 0.7918(3) 0.7944(2) 0.40687(3)
C2_4 C 1.0000 0.5348(4) 0.2500
H2_4 H 1.0000 0.4225 0.2500
O4_3 O 0.8722(2) 0.5416(3) 0.24021(3)
O2_4 O 0.0138(2) 0.2127(2) 0.87041(3)
O9_4 O 0.1344(3) 0.6804(2) 0.79625(3)
C5_4 C 0.0002(6) 0.5457(4) 0.80536(4)
Fe10_7 Fe 0.3334 0.6666 0.77773(2)
O22_4 O 0.1990(3) 0.9862(2) 0.87041(3)
Fe1_14 Fe 0.6667 0.3333 0.8333
O3_4 O 0.8857(3) 0.3478(3) 0.85213(3)
C1_4 C 0.8791(4) 0.2122(4) 0.86130(4)
H1_4 H 0.7652 0.1014 0.8614
O6_4 O 0.4622(4) 0.1143(3) 0.85213(3)
C3_4 C 0.3332(6) 0.1209(4) 0.86130(4)
H3_4 H 0.3363 0.2348 0.8614
O7_4 O 0.3196(2) 0.4539(2) 0.79625(3)
O8_4 O 0.4477(3) 0.3188(3) 0.81453(3)
C4_4 C 0.4543(4) 0.4544(4) 0.80536(4)
H4_4 H 0.5682 0.5652 0.8052
O10_4 O 0.8712(4) 0.5523(3) 0.81453(3)
H5_4 H 0.9971 0.4318 0.8052
O12_4 O 0.6812(3) 0.1288(4) 0.81453(3)
H6_4 H 0.4348 0.0029 0.8052
O17_4 O 0.7873(2) 0.8010(3) 0.87041(3)
O18_4 O 0.6522(3) 0.5378(4) 0.85213(3)
C9_4 C 0.7878(4) 0.6668(6) 0.86130(4)
H9_4 H 0.8986 0.6637 0.8614
O19_4 O 0.3307(2) 0.8722(2) 0.75979(3)
O20_4 O 0.5416(3) 0.6693(2) 0.75979(3)
O21_4 O 0.1278(2) 0.4584(3) 0.75979(3)
O25_4 O 0.5461(2) 0.8656(3) 0.79625(3)
C6_4 C 0.5456(4) 0.9998(6) 0.80536(4)
O2_5 O 0.2127(2) 0.0138(2) 0.62959(3)
O9_5 O 0.6804(2) 0.1344(3) 0.70375(3)
C5_5 C 0.5457(4) 0.0002(6) 0.69464(4)
Fe10_8 Fe 0.6666 0.3334 0.72227(2)
Fe1_15 Fe 0.3333 0.6667 0.6667
O3_5 O 0.3478(3) 0.8857(3) 0.64787(3)
C1_5 C 0.2122(4) 0.8791(4) 0.63870(4)
H1_5 H 0.1014 0.7652 0.6386
O6_5 O 0.1143(3) 0.4622(4) 0.64787(3)
C3_5 C 0.1209(4) 0.3332(6) 0.63870(4)
H3_5 H 0.2348 0.3363 0.6386
O7_5 O 0.4539(2) 0.3196(2) 0.70375(3)
O8_5 O 0.3188(3) 0.4477(3) 0.68547(3)
C4_5 C 0.4544(4) 0.4543(4) 0.69464(4)
H4_5 H 0.5652 0.5682 0.6948
O10_5 O 0.5523(3) 0.8712(4) 0.68547(3)
H5_5 H 0.4318 0.9971 0.6948
O12_5 O 0.1288(4) 0.6812(3) 0.68547(3)
H6_5 H 0.0029 0.4348 0.6948
O17_5 O 0.8010(3) 0.7873(2) 0.62959(3)
O18_5 O 0.5378(4) 0.6522(3) 0.64787(3)
C9_5 C 0.6668(6) 0.7878(4) 0.63870(4)
H9_5 H 0.6637 0.8986 0.6386
O19_5 O 0.8722(2) 0.3307(2) 0.74021(3)
O20_5 O 0.6693(2) 0.5416(3) 0.74021(3)
O21_5 O 0.4584(3) 0.1278(2) 0.74021(3)
O25_5 O 0.8656(3) 0.5461(2) 0.70375(3)
O22_5 O 0.9862(2) 0.1990(3) 0.62959(3)
C6_5 C 0.9998(6) 0.5456(4) 0.69464(4)
Fe10_9 Fe 0.0000 -0.0000 0.11107(2)
Fe10_10 Fe 0.0000 1.0000 0.11107(2)
O9_6 O 0.8010(3) 0.0138(2) 0.12959(3)
O17_6 O 0.4539(2) 0.1344(3) 0.20375(3)
C9_6 C 0.4544(4) 0.0002(6) 0.19464(4)
Fe10_11 Fe 1.0000 -0.0000 0.11107(2)
O20_6 O 0.2082(3) 0.0027(2) 0.09313(3)
O25_6 O 0.2127(2) 0.1990(3) 0.12959(3)
Fe1_16 Fe 0.3333 0.6667 0.1667
O2_6 O 0.6804(2) 0.5461(2) 0.20375(3)
O3_6 O 0.5523(3) 0.6812(3) 0.18547(3)
C1_6 C 0.5457(4) 0.5456(4) 0.19464(4)
H1_6 H 0.4318 0.4348 0.1948
O6_6 O 0.1288(4) 0.4477(3) 0.18547(3)
H3_6 H 0.0029 0.5682 0.1948
O8_6 O 0.1143(3) 0.6522(3) 0.14787(3)
C4_6 C 0.1209(4) 0.7878(4) 0.13870(4)
H4_6 H 0.2348 0.8986 0.1386
O10_6 O 0.5378(4) 0.8857(3) 0.14787(3)
C5_6 C 0.6668(6) 0.8791(4) 0.13870(4)
H5_6 H 0.6637 0.7652 0.1386
O12_6 O 0.3478(3) 0.4622(4) 0.14787(3)
C6_6 C 0.2122(4) 0.3332(6) 0.13870(4)
H6_6 H 0.1014 0.3363 0.1386
O18_6 O 0.3188(3) 0.8712(4) 0.18547(3)
H9_6 H 0.5652 0.9971 0.1948
Fe10_12 Fe 1.0000 1.0000 0.11107(2)
O22_6 O 0.8656(3) 0.3196(2) 0.20375(3)
O19_6 O 0.9973(2) 0.2056(2) 0.09313(3)
C3_6 C 0.9998(6) 0.4543(4) 0.19464(4)
O7_6 O 0.9862(2) 0.7873(2) 0.12959(3)
O21_6 O 0.7944(2) 0.7918(3) 0.09313(3)
C2_5 C 0.6667 0.7985(4) 0.0833
H2_5 H 0.6667 0.9108 0.0833
C7_4 C 0.2015(4) 0.8682(4) 0.0833
H7_4 H 0.0892 0.7559 0.0833
C8_5 C 0.1318(4) 0.3333 0.0833
H8_5 H 0.2441 0.3333 0.0833
C2_6 C 0.7985(4) 0.6667 0.4167
H2_6 H 0.9108 0.6667 0.4167
C7_5 C 0.8682(4) 0.2015(4) 0.4167
H7_5 H 0.7559 0.0892 0.4167
C8_6 C 0.3333 0.1318(4) 0.4167
H8_6 H 0.3333 0.2441 0.4167
C2_7 C 0.0000 0.4652(4) 0.7500
H2_7 H 0.0000 0.5775 0.7500
C2_8 C 1.0000 0.4652(4) 0.7500
H2_8 H 1.0000 0.5775 0.7500
C7_6 C 0.5348(4) 0.5349(4) 0.7500
H7_6 H 0.4225 0.4226 0.7500
C8_7 C 0.4651(4) -0.0000 0.7500
H8_7 H 0.5774 -0.0000 0.7500
C8_8 C 0.4651(4) 1.0000 0.7500
H8_8 H 0.5774 1.0000 0.7500
loop_
_geom_bond_atom_site_label_1
_geom_bond_atom_site_label_2
_geom_bond_site_symmetry_1
_geom_bond_site_symmetry_2
O9 C5 1_555 1_555
O10 Fe1 1_555 1_555
C5 O10 1_555 1_555
H5 C5 1_555 1_555
Fe10 O9 1_555 1_555
Fe1_2 O3 1_555 1_555
O17 C9 1_555 1_555
H9 C9 1_555 1_555
Fe5 O17 1_555 1_555
Fe8_2 O16 1_555 1_555
Fe10 O7 1_555 1_555
O7 C4 1_555 1_555
H4 C4 1_555 1_555
O19 Fe10 1_555 1_555
O20 Fe10 1_555 1_555
O21 Fe10 1_555 1_555
O25 Fe10 1_555 1_555
O18 Fe1_4 1_555 1_555
O12 Fe1_5 1_555 1_555
Fe5 O1 1_555 1_555
O1 C2 1_555 1_555
O2 Fe5 1_555 1_555
C1 O2 1_555 1_555
H1 C1 1_555 1_555
C2 H2 1_555 1_555
O4 C2 1_555 1_555
O13 Fe5 1_555 1_555
C7 O13 1_555 1_555
H7 C7 1_555 1_555
O15 Fe5 1_555 1_555
C8 O15 1_555 1_555
H8 C8 1_555 1_555
Fe8 O4 1_555 1_555
O22 Fe5 1_555 1_555
O8 Fe1_7 1_555 1_555
O25 C6 1_555 1_555
H6 C6 1_555 1_555
O22 C3 1_555 1_555
O6 Fe1_8 1_555 1_555
C3 O6 1_555 1_555
H3 C3 1_555 1_555
Fe8_4 O14 1_555 1_555
Fe1_9 O3_2 1_555 1_555
O9_2 C5_2 1_555 1_555
O10_2 Fe1_9 1_555 1_555
C5_2 O10_2 1_555 1_555
H5_2 C5_2 1_555 1_555
O17_2 C9_2 1_555 1_555
H9_2 C9_2 1_555 1_555
Fe5_2 O17_2 1_555 1_555
Fe8_7 O16_2 1_555 1_555
Fe10_2 O9_2 1_555 1_555
Fe5_2 O1_2 1_555 1_555
O1_2 C2_2 1_555 1_555
O2_2 Fe5_2 1_555 1_555
C1_2 O2_2 1_555 1_555
H1_2 C1_2 1_555 1_555
C2_2 H2_2 1_555 1_555
O4_2 C2_2 1_555 1_555
O12_2 Fe1_10 1_555 1_555
O13_2 Fe5_2 1_555 1_555
C7_2 O13_2 1_555 1_555
H7_2 C7_2 1_555 1_555
O15_2 Fe5_2 1_555 1_555
C8_2 O15_2 1_555 1_555
H8_2 C8_2 1_555 1_555
Fe8_5 O4_2 1_555 1_555
O22_2 Fe5_2 1_555 1_555
Fe10_2 O7_2 1_555 1_555
O7_2 C4_2 1_555 1_555
H4_2 C4_2 1_555 1_555
O18_2 Fe1_11 1_555 1_555
O19_2 Fe10_2 1_555 1_555
O20_2 Fe10_2 1_555 1_555
O21_2 Fe10_2 1_555 1_555
O25_2 Fe10_2 1_555 1_555
O22_2 C3_2 1_555 1_555
O6_2 Fe1_12 1_555 1_555
C3_2 O6_2 1_555 1_555
H3_2 C3_2 1_555 1_555
O8_2 Fe1_12 1_555 1_555
O25_2 C6_2 1_555 1_555
H6_2 C6_2 1_555 1_555
Fe8_8 O14_2 1_555 1_555
O17_3 C9_3 1_555 1_555
Fe5_3 O17_3 1_555 1_555
Fe10_4 O9_3 1_555 1_555
O20_3 Fe10_3 1_555 1_555
O25_3 Fe10_3 1_555 1_555
O19_3 Fe10_4 1_555 1_555
H8_3 C8_3 1_555 1_555
O16_3 C8_3 1_555 1_555
Fe8_9 O16_3 1_555 1_555
Fe1_13 O3_3 1_555 1_555
Fe5_3 O1_3 1_555 1_555
O1_3 C2_3 1_555 1_555
O2_3 Fe5_3 1_555 1_555
O3_3 C1_3 1_555 1_555
C1_3 O2_3 1_555 1_555
H1_3 C1_3 1_555 1_555
C2_3 H2_3 1_555 1_555
O6_3 Fe1_13 1_555 1_555
O8_3 Fe1_13 1_555 1_555
C4_3 O8_3 1_555 1_555
H4_3 C4_3 1_555 1_555
O10_3 Fe1_13 1_555 1_555
C5_3 O10_3 1_555 1_555
H5_3 C5_3 1_555 1_555
O25_3 C6_3 1_555 1_555
O12_3 Fe1_13 1_555 1_555
C6_3 O12_3 1_555 1_555
H6_3 C6_3 1_555 1_555
O13_3 Fe5_3 1_555 1_555
C7_3 O13_3 1_555 1_555
H7_3 C7_3 1_555 1_555
O14_3 C7_3 1_555 1_555
O15_3 Fe5_3 1_555 1_555
C8_4 O15_3 1_555 1_555
H8_4 C8_4 1_555 1_555
O18_3 Fe1_13 1_555 1_555
Fe8_9 O14_3 1_555 1_555
O22_3 Fe5_3 1_555 1_555
O22_3 C3_3 1_555 1_555
Fe10_6 O7_3 1_555 1_555
O21_3 Fe10_6 1_555 1_555
C2_4 H2_4 1_555 1_555
O4_3 C2_4 1_555 1_555
Fe8_9 O4_3 1_555 1_555
O2_4 Fe8 1_555 1_555
O9_4 C5_4 1_555 1_555
Fe10_7 O9_4 1_555 1_555
O22_4 Fe8_2 1_555 1_555
Fe1_14 O3_4 1_555 1_555
O3_4 C1_4 1_555 1_555
H1_4 C1_4 1_555 1_555
O6_4 Fe1_14 1_555 1_555
C3_4 O6_4 1_555 1_555
H3_4 C3_4 1_555 1_555
Fe10_7 O7_4 1_555 1_555
O7_4 C4_4 1_555 1_555
O8_4 Fe1_14 1_555 1_555
C4_4 O8_4 1_555 1_555
H4_4 C4_4 1_555 1_555
O10_4 Fe1_14 1_555 1_555
O12_4 Fe1_14 1_555 1_555
O17_4 C9_4 1_555 1_555
O18_4 Fe1_14 1_555 1_555
C9_4 O18_4 1_555 1_555
H9_4 C9_4 1_555 1_555
Fe8_4 O17_4 1_555 1_555
O19_4 Fe10_7 1_555 1_555
O20_4 Fe10_7 1_555 1_555
O21_4 Fe10_7 1_555 1_555
O25_4 Fe10_7 1_555 1_555
O25_4 C6_4 1_555 1_555
O2_5 Fe8_5 1_555 1_555
O9_5 C5_5 1_555 1_555
Fe10_8 O9_5 1_555 1_555
Fe1_15 O3_5 1_555 1_555
O3_5 C1_5 1_555 1_555
H1_5 C1_5 1_555 1_555
O6_5 Fe1_15 1_555 1_555
C3_5 O6_5 1_555 1_555
H3_5 C3_5 1_555 1_555
Fe10_8 O7_5 1_555 1_555
O7_5 C4_5 1_555 1_555
O8_5 Fe1_15 1_555 1_555
C4_5 O8_5 1_555 1_555
H4_5 C4_5 1_555 1_555
O10_5 Fe1_15 1_555 1_555
O12_5 Fe1_15 1_555 1_555
O17_5 C9_5 1_555 1_555
O18_5 Fe1_15 1_555 1_555
C9_5 O18_5 1_555 1_555
H9_5 C9_5 1_555 1_555
Fe8_8 O17_5 1_555 1_555
O19_5 Fe10_8 1_555 1_555
O20_5 Fe10_8 1_555 1_555
O21_5 Fe10_8 1_555 1_555
O25_5 Fe10_8 1_555 1_555
O22_5 Fe8_7 1_555 1_555
O25_5 C6_5 1_555 1_555
O17_6 C9_6 1_555 1_555
Fe8_9 O17_6 1_555 1_555
Fe10_11 O9_6 1_555 1_555
O20_6 Fe10_9 1_555 1_555
O25_6 Fe10_9 1_555 1_555
Fe1_16 O3_6 1_555 1_555
O2_6 Fe8_9 1_555 1_555
O3_6 C1_6 1_555 1_555
C1_6 O2_6 1_555 1_555
H1_6 C1_6 1_555 1_555
O6_6 Fe1_16 1_555 1_555
O8_6 Fe1_16 1_555 1_555
C4_6 O8_6 1_555 1_555
H4_6 C4_6 1_555 1_555
O10_6 Fe1_16 1_555 1_555
C5_6 O10_6 1_555 1_555
H5_6 C5_6 1_555 1_555
O25_6 C6_6 1_555 1_555
O12_6 Fe1_16 1_555 1_555
C6_6 O12_6 1_555 1_555
H6_6 C6_6 1_555 1_555
O18_6 Fe1_16 1_555 1_555
O22_6 Fe8_9 1_555 1_555
O19_6 Fe10_11 1_555 1_555
O22_6 C3_6 1_555 1_555
Fe10_12 O7_6 1_555 1_555
O21_6 Fe10_12 1_555 1_555
O19 C2_5 1_555 1_555
C2_5 H2_5 1_555 1_555
O21_6 C2_5 1_555 1_555
C7_4 O20 1_555 1_555
H7_4 C7_4 1_555 1_555
C8_5 O21 1_555 1_555
H8_5 C8_5 1_555 1_555
O19_2 C2_6 1_555 1_555
C2_6 H2_6 1_555 1_555
O21_3 C2_6 1_555 1_555
C7_5 O20_2 1_555 1_555
H7_5 C7_5 1_555 1_555
C8_6 O21_2 1_555 1_555
H8_6 C8_6 1_555 1_555
C2_7 H2_7 1_555 1_555
O21_4 C2_7 1_555 1_555
O19_5 C2_8 1_555 1_555
C2_8 H2_8 1_555 1_555
C7_6 O20_5 1_555 1_555
H7_6 C7_6 1_555 1_555
O20_4 C7_6 1_555 1_555
C8_7 O21_5 1_555 1_555
H8_7 C8_7 1_555 1_555
H8_8 C8_8 1_555 1_555
O19_4 C8_8 1_555 1_555

#END
