
###############################################################################
#
# This file contains modified crystal structure data generated from the
# MOF subset of the Cambridge Structural Database (CSD) v543 
# hosted by the Cambridge Crystallographic Data Centre (CCDC).
#
# This work is licensed under the Creative Commons
# Attribution-NonCommercial-ShareAlike 4.0 International License.
# To view a copy of this license, visit
# http://creativecommons.org/licenses/by-nc-sa/4.0/
# or send a letter to
# Creative Commons, PO Box 1866, Mountain View, CA 94042, USA.
#
# CIF created using the CSD Python API on 29 September 2022
# The structure has been converted into the P1 space group
# The structure has a 3D framework
# The original CSD entry HORCAV is in the tetragonal crystal system
# The framework has been calculated to contain at least 10.0% void space
# The void calculation uses a probe of radius 1.32A, grid spacing 0.4
#
###############################################################################

data_HORCAV
_chemical_formula_moiety         '(C176 H192 N96 Zn16)n'
_symmetry_cell_setting           triclinic
_symmetry_space_group_name_H-M   'P 1'
_symmetry_Int_Tables_number      1
_space_group_name_Hall           'P 1'
loop_
_symmetry_equiv_pos_site_id
_symmetry_equiv_pos_as_xyz
1 x,y,z
_cell_length_a                   16.5011(11)
_cell_length_b                   16.5011(11)
_cell_length_c                   21.8027(19)
_cell_angle_alpha                90
_cell_angle_beta                 90
_cell_angle_gamma                90
_cell_volume                     5936.58
loop_
_atom_site_label
_atom_site_type_symbol
_atom_site_fract_x
_atom_site_fract_y
_atom_site_fract_z
Zn1 Zn 0.30034(4) 0.58015(4) 0.10909(2)
N2 N 0.2637(3) 0.5499(3) 0.02526(18)
N3 N 0.5511(3) 0.5479(5) 0.1234(3)
C5 C 0.1168(4) 0.5932(4) 0.0157(3)
H3 H 0.1114 0.6144 0.0560
N4 N 0.4201(4) 0.5564(5) 0.1096(3)
C8 C 0.4811(5) 0.5425(6) 0.1397(4)
N5 N 0.4611(5) 0.6069(7) 0.0602(4)
N6 N 0.5382(5) 0.5994(7) 0.0680(4)
C11 C 0.4664(10) 0.4840(9) 0.1911(7)
H10 H 0.4086 0.4835 0.2013
H11 H 0.4833 0.4296 0.1785
H12 H 0.4977 0.5008 0.2272
Zn3 Zn 0.66985(4) 0.55034(4) 0.14091(2)
N7 N 0.2466(3) 0.5281(3) 0.17929(18)
N8 N 0.2979(5) 0.6989(3) 0.1266(3)
N1 N 0.2781(3) 0.5034(3) 0.92929(18)
C1 C 0.3121(3) 0.5163(4) 0.9838(2)
H1 H 0.3668 0.5026 0.9924
C2 C 0.1899(3) 0.5600(3) 0.9960(2)
C3 C 0.1985(3) 0.5301(3) 0.9367(2)
C4 C 0.1338(4) 0.5316(4) 0.8956(3)
H2 H 0.1399 0.5111 0.8551
C6 C 0.0605(4) 0.5635(5) 0.9148(4)
C7 C 0.0520(4) 0.5945(4) 0.9754(3)
H5 H 0.0034 0.5983 0.8345
Zn2 Zn 0.33015(4) 0.44966(4) 0.85909(2)
Zn1_2 Zn 0.16985(4) 0.55034(4) 0.35909(2)
N2_2 N 0.2001(3) 0.5137(3) 0.27526(18)
C1_2 C 0.2337(4) 0.5621(3) 0.2338(2)
H1_2 H 0.2474 0.6168 0.2424
C2_2 C 0.1900(3) 0.4399(3) 0.2460(2)
C3_2 C 0.2199(3) 0.4485(3) 0.1867(2)
N3_2 N 0.2021(5) 0.8011(3) 0.3734(3)
C4_2 C 0.2184(4) 0.3838(4) 0.1456(3)
H2_2 H 0.2389 0.3899 0.1051
C5_2 C 0.1568(4) 0.3668(4) 0.2657(3)
H3_2 H 0.1356 0.3614 0.3060
C6_2 C 0.1865(5) 0.3105(4) 0.1648(4)
N4_2 N 0.1936(5) 0.6701(4) 0.3596(3)
C7_2 C 0.1555(4) 0.3020(4) 0.2254(3)
C8_2 C 0.2075(6) 0.7311(5) 0.3897(4)
N5_2 N 0.1431(7) 0.7111(5) 0.3102(4)
C9 C 0.1843(7) 0.2390(5) 0.1205(4)
H4 H 0.1601 0.1920 0.1410
H5_2 H 0.1517 0.2534 0.0845
H6 H 0.2396 0.2257 0.1076
C10 C 0.1190(5) 0.2215(4) 0.2448(4)
H7 H 0.1231 0.1828 0.2108
H8 H 0.1484 0.2005 0.2804
H9 H 0.0618 0.2294 0.2555
N6_2 N 0.1506(7) 0.7882(5) 0.3180(4)
C11_2 C 0.2660(9) 0.7164(10) 0.4411(7)
H10_2 H 0.2665 0.6586 0.4513
H11_2 H 0.3204 0.7333 0.4285
H12_2 H 0.2492 0.7477 0.4772
Zn3_2 Zn 0.19966(4) 0.91985(4) 0.39091(2)
N7_2 N 0.2219(3) 0.4966(3) 0.42929(18)
N8_2 N 0.0511(3) 0.5479(5) 0.3766(3)
Zn2_2 Zn 0.66985(4) 0.05034(4) 0.85909(2)
Zn1_3 Zn 0.69966(4) 0.91985(4) 0.10909(2)
N2_3 N 0.7363(3) 0.9501(3) 0.02526(18)
N3_3 N 0.4489(3) 0.9521(5) 0.1234(3)
C5_3 C 0.8832(4) 0.9068(4) 0.0157(3)
H3_3 H 0.8886 0.8856 0.0560
N4_3 N 0.5799(4) 0.9436(5) 0.1096(3)
C8_3 C 0.5189(5) 0.9575(6) 0.1397(4)
N5_3 N 0.5389(5) 0.8931(7) 0.0602(4)
N6_3 N 0.4618(5) 0.9006(7) 0.0680(4)
H12_3 H 0.5023 0.9992 0.2272
Zn3_3 Zn 0.33015(4) 0.94966(4) 0.14091(2)
N7_3 N 0.7534(3) 0.9719(3) 0.17929(18)
N8_3 N 0.7021(5) 0.8011(3) 0.1266(3)
C2_3 C 0.8100(3) 0.0601(3) 0.2460(2)
C3_3 C 0.7801(3) 0.0515(3) 0.1867(2)
C4_3 C 0.7816(4) 0.1162(4) 0.1456(3)
H2_3 H 0.7611 0.1101 0.1051
C5_4 C 0.8432(4) 0.1332(4) 0.2657(3)
H3_4 H 0.8644 0.1386 0.3060
C6_3 C 0.8135(5) 0.1895(4) 0.1648(4)
C7_3 C 0.8445(4) 0.1980(4) 0.2254(3)
C9_2 C 0.8157(7) 0.2610(5) 0.1205(4)
H4_2 H 0.8399 0.3080 0.1410
H5_3 H 0.8483 0.2466 0.0845
H6_2 H 0.7604 0.2743 0.1076
C10_2 C 0.8810(5) 0.2785(4) 0.2448(4)
H7_2 H 0.8769 0.3172 0.2108
H8_2 H 0.8516 0.2995 0.2804
H9_2 H 0.9382 0.2706 0.2555
N7_4 N 0.7781(3) 0.0034(3) 0.42929(18)
Zn1_4 Zn 0.83015(4) 0.94966(4) 0.35909(2)
N2_4 N 0.7999(3) 0.9863(3) 0.27526(18)
C1_3 C 0.7663(4) 0.9379(3) 0.2338(2)
H1_3 H 0.7526 0.8832 0.2424
N3_4 N 0.7979(5) 0.6989(3) 0.3734(3)
N4_4 N 0.8064(5) 0.8299(4) 0.3596(3)
C8_4 C 0.7925(6) 0.7689(5) 0.3897(4)
N5_4 N 0.8569(7) 0.7889(5) 0.3102(4)
N6_4 N 0.8494(7) 0.7118(5) 0.3180(4)
C11_3 C 0.7340(9) 0.7836(10) 0.4411(7)
H10_3 H 0.7335 0.8414 0.4513
H11_3 H 0.6796 0.7667 0.4285
H12_4 H 0.7508 0.7523 0.4772
Zn3_4 Zn 0.80034(4) 0.58015(4) 0.39091(2)
N8_4 N 0.9489(3) 0.9521(5) 0.3766(3)
N3_5 N 0.0511(3) 0.0479(5) 0.6234(3)
N6_5 N 0.0382(5) 0.0994(7) 0.5680(4)
Zn3_5 Zn 0.16985(4) 0.05034(4) 0.64091(2)
Zn1_5 Zn 0.80034(4) 0.08015(4) 0.60909(2)
N2_5 N 0.7637(3) 0.0499(3) 0.52526(18)
C1_4 C 0.8121(3) 0.0163(4) 0.4838(2)
H1_4 H 0.8668 0.0026 0.4924
C2_4 C 0.6899(3) 0.0600(3) 0.4960(2)
C3_4 C 0.6985(3) 0.0301(3) 0.4367(2)
C4_4 C 0.6338(4) 0.0316(4) 0.3956(3)
H2_4 H 0.6399 0.0111 0.3551
C5_5 C 0.6168(4) 0.0932(4) 0.5157(3)
H3_5 H 0.6114 0.1144 0.5560
C6_4 C 0.5605(4) 0.0635(5) 0.4148(4)
N4_5 N 0.9201(4) 0.0564(5) 0.6096(3)
C7_4 C 0.5520(4) 0.0945(4) 0.4754(3)
C8_5 C 0.9811(5) 0.0425(6) 0.6397(4)
N5_5 N 0.9611(5) 0.1069(7) 0.5602(4)
C9_3 C 0.4890(5) 0.0657(7) 0.3705(4)
H4_3 H 0.4420 0.0899 0.3910
H5_4 H 0.5034 0.0983 0.3345
H6_3 H 0.4757 0.0104 0.3576
C10_3 C 0.4715(4) 0.1310(5) 0.4948(4)
H7_3 H 0.4328 0.1269 0.4608
H8_3 H 0.4505 0.1016 0.5304
H9_3 H 0.4794 0.1882 0.5055
H12_5 H 0.9977 0.0008 0.7272
N7_5 N 0.7466(3) 0.0281(3) 0.67929(18)
N8_5 N 0.7979(5) 0.1989(3) 0.6266(3)
C11_4 C 0.9664(10) 0.9840(9) 0.6911(7)
H10_4 H 0.9086 0.9835 0.7013
H11_4 H 0.9833 0.9296 0.6785
N2_6 N 0.7001(3) 0.0137(3) 0.77526(18)
C1_5 C 0.7337(4) 0.0621(3) 0.7338(2)
H1_5 H 0.7474 0.1168 0.7424
N3_6 N 0.7021(5) 0.3011(3) 0.8734(3)
N4_6 N 0.6936(5) 0.1701(4) 0.8596(3)
C8_6 C 0.7075(6) 0.2311(5) 0.8897(4)
N5_6 N 0.6431(7) 0.2111(5) 0.8102(4)
N6_6 N 0.6506(7) 0.2882(5) 0.8180(4)
C11_5 C 0.7660(9) 0.2164(10) 0.9411(7)
H10_5 H 0.7665 0.1586 0.9513
H11_5 H 0.8204 0.2333 0.9285
H12_6 H 0.7492 0.2477 0.9772
Zn3_6 Zn 0.69966(4) 0.41985(4) 0.89091(2)
N8_6 N 0.5511(3) 0.0479(5) 0.8766(3)
Zn1_6 Zn 0.19966(4) 0.41985(4) 0.60909(2)
N2_7 N 0.2363(3) 0.4501(3) 0.52526(18)
C1_6 C 0.1879(3) 0.4837(4) 0.4838(2)
H1_6 H 0.1332 0.4974 0.4924
C2_5 C 0.3101(3) 0.4400(3) 0.4960(2)
C3_5 C 0.3015(3) 0.4699(3) 0.4367(2)
C4_5 C 0.3662(4) 0.4684(4) 0.3956(3)
H2_5 H 0.3601 0.4889 0.3551
C5_6 C 0.3832(4) 0.4068(4) 0.5157(3)
H3_6 H 0.3886 0.3856 0.5560
C6_5 C 0.4395(4) 0.4365(5) 0.4148(4)
N4_7 N 0.0799(4) 0.4436(5) 0.6096(3)
C7_5 C 0.4480(4) 0.4055(4) 0.4754(3)
C8_7 C 0.0189(5) 0.4575(6) 0.6397(4)
N5_7 N 0.0389(5) 0.3931(7) 0.5602(4)
C9_4 C 0.5110(5) 0.4343(7) 0.3705(4)
H4_4 H 0.5580 0.4101 0.3910
H5_5 H 0.4966 0.4017 0.3345
H6_4 H 0.5243 0.4896 0.3576
C10_4 C 0.5285(4) 0.3690(5) 0.4948(4)
H7_4 H 0.5672 0.3731 0.4608
H8_4 H 0.5495 0.3984 0.5304
H9_4 H 0.5206 0.3118 0.5055
C11_6 C 0.0336(10) 0.5160(9) 0.6911(7)
H10_6 H 0.0914 0.5165 0.7013
H11_6 H 0.0167 0.5704 0.6785
H12_7 H 0.0023 0.4992 0.7272
N7_6 N 0.2534(3) 0.4719(3) 0.67929(18)
N8_7 N 0.2021(5) 0.3011(3) 0.6266(3)
N3_7 N 0.9489(3) 0.4521(5) 0.6234(3)
N6_7 N 0.9618(5) 0.4006(7) 0.5680(4)
Zn3_7 Zn 0.83015(4) 0.44966(4) 0.64091(2)
N2_8 N 0.2999(3) 0.4863(3) 0.77526(18)
C1_7 C 0.2663(4) 0.4379(3) 0.7338(2)
H1_7 H 0.2526 0.3832 0.7424
C2_6 C 0.3100(3) 0.5601(3) 0.7460(2)
C3_6 C 0.2801(3) 0.5515(3) 0.6867(2)
N3_8 N 0.2979(5) 0.1989(3) 0.8734(3)
C4_6 C 0.2816(4) 0.6162(4) 0.6456(3)
H2_6 H 0.2611 0.6101 0.6051
C5_7 C 0.3432(4) 0.6332(4) 0.7657(3)
H3_7 H 0.3644 0.6386 0.8060
C6_6 C 0.3135(5) 0.6895(4) 0.6648(4)
N4_8 N 0.3064(5) 0.3299(4) 0.8596(3)
C7_6 C 0.3445(4) 0.6980(4) 0.7254(3)
C8_8 C 0.2925(6) 0.2689(5) 0.8897(4)
N5_8 N 0.3569(7) 0.2889(5) 0.8102(4)
C9_5 C 0.3157(7) 0.7610(5) 0.6205(4)
H4_5 H 0.3399 0.8080 0.6410
H5_6 H 0.3483 0.7466 0.5845
H6_5 H 0.2604 0.7743 0.6076
C10_5 C 0.3810(5) 0.7785(4) 0.7448(4)
H7_5 H 0.3769 0.8172 0.7108
H8_5 H 0.3516 0.7995 0.7804
H9_5 H 0.4382 0.7706 0.7555
N6_8 N 0.3494(7) 0.2118(5) 0.8180(4)
C11_7 C 0.2340(9) 0.2836(10) 0.9411(7)
H10_7 H 0.2335 0.3414 0.9513
H11_7 H 0.1796 0.2667 0.9285
H12_8 H 0.2508 0.2523 0.9772
Zn3_8 Zn 0.30034(4) 0.08015(4) 0.89091(2)
N8_8 N 0.4489(3) 0.4521(5) 0.8766(3)
N1_2 N 0.7219(3) 0.4966(3) 0.07071(18)
C1_8 C 0.6879(3) 0.4837(4) 0.0162(2)
H1_8 H 0.6332 0.4974 0.0076
C2_7 C 0.8101(3) 0.4400(3) 0.0040(2)
C3_7 C 0.8015(3) 0.4699(3) 0.0633(2)
C4_7 C 0.8662(4) 0.4684(4) 0.1044(3)
H2_7 H 0.8601 0.4889 0.1449
C6_7 C 0.9395(4) 0.4365(5) 0.0852(4)
C7_7 C 0.9480(4) 0.4055(4) 0.0246(3)
H5_7 H 0.9966 0.4017 0.1655
N2_9 N 0.7363(3) 0.4501(3) 0.97474(18)
C5_8 C 0.8832(4) 0.4068(4) 0.9843(3)
H3_8 H 0.8886 0.3856 0.9440
N4_9 N 0.5799(4) 0.4436(5) 0.8904(3)
C8_9 C 0.5189(5) 0.4575(6) 0.8603(4)
N5_9 N 0.5389(5) 0.3931(7) 0.9398(4)
N6_9 N 0.4618(5) 0.4006(7) 0.9320(4)
C11_8 C 0.5336(10) 0.5160(9) 0.8089(7)
H10_8 H 0.5914 0.5165 0.7987
H11_8 H 0.5167 0.5704 0.8215
H12_9 H 0.5023 0.4992 0.7728
N7_7 N 0.7534(3) 0.4719(3) 0.82071(18)
N2_10 N 0.7999(3) 0.4863(3) 0.72474(18)
C1_9 C 0.7663(4) 0.4379(3) 0.7662(2)
H1_9 H 0.7526 0.3832 0.7576
C2_8 C 0.8100(3) 0.5601(3) 0.7540(2)
C3_8 C 0.7801(3) 0.5515(3) 0.8133(2)
C4_8 C 0.7816(4) 0.6162(4) 0.8544(3)
H2_8 H 0.7611 0.6101 0.8949
C5_9 C 0.8432(4) 0.6332(4) 0.7343(3)
H3_9 H 0.8644 0.6386 0.6940
C6_8 C 0.8135(5) 0.6895(4) 0.8352(4)
N4_10 N 0.8064(5) 0.3299(4) 0.6404(3)
C7_8 C 0.8445(4) 0.6980(4) 0.7746(3)
C8_10 C 0.7925(6) 0.2689(5) 0.6103(4)
N5_10 N 0.8569(7) 0.2889(5) 0.6898(4)
C9_6 C 0.8157(7) 0.7610(5) 0.8795(4)
H4_6 H 0.8399 0.8080 0.8590
H5_8 H 0.8483 0.7466 0.9155
H6_6 H 0.7604 0.7743 0.8924
C10_6 C 0.8810(5) 0.7785(4) 0.7552(4)
H7_6 H 0.8769 0.8172 0.7892
H8_6 H 0.8516 0.7995 0.7196
H9_6 H 0.9382 0.7706 0.7445
N6_10 N 0.8494(7) 0.2118(5) 0.6820(4)
C11_9 C 0.7340(9) 0.2836(10) 0.5589(7)
H10_9 H 0.7335 0.3414 0.5487
H11_9 H 0.6796 0.2667 0.5715
H12_10 H 0.7508 0.2523 0.5228
N7_8 N 0.7781(3) 0.5034(3) 0.57071(18)
N2_11 N 0.2637(3) 0.0499(3) 0.97474(18)
C5_10 C 0.1168(4) 0.0932(4) 0.9843(3)
H3_10 H 0.1114 0.1144 0.9440
N4_11 N 0.4201(4) 0.0564(5) 0.8904(3)
C8_11 C 0.4811(5) 0.0425(6) 0.8603(4)
N5_11 N 0.4611(5) 0.1069(7) 0.9398(4)
N6_11 N 0.5382(5) 0.0994(7) 0.9320(4)
H12_11 H 0.4977 0.0008 0.7728
N7_9 N 0.2466(3) 0.0281(3) 0.82071(18)
N2_12 N 0.2001(3) 0.0137(3) 0.72474(18)
C1_10 C 0.2337(4) 0.0621(3) 0.7662(2)
H1_10 H 0.2474 0.1168 0.7576
N4_12 N 0.1936(5) 0.1701(4) 0.6404(3)
C8_12 C 0.2075(6) 0.2311(5) 0.6103(4)
N5_12 N 0.1431(7) 0.2111(5) 0.6898(4)
N6_12 N 0.1506(7) 0.2882(5) 0.6820(4)
C11_10 C 0.2660(9) 0.2164(10) 0.5589(7)
H10_10 H 0.2665 0.1586 0.5487
H11_10 H 0.3204 0.2333 0.5715
H12_12 H 0.2492 0.2477 0.5228
C2_9 C 0.1900(3) 0.9399(3) 0.7540(2)
C3_9 C 0.2199(3) 0.9485(3) 0.8133(2)
C4_9 C 0.2184(4) 0.8838(4) 0.8544(3)
H2_9 H 0.2389 0.8899 0.8949
C5_11 C 0.1568(4) 0.8668(4) 0.7343(3)
H3_11 H 0.1356 0.8614 0.6940
C6_9 C 0.1865(5) 0.8105(4) 0.8352(4)
C7_9 C 0.1555(4) 0.8020(4) 0.7746(3)
C9_7 C 0.1843(7) 0.7390(5) 0.8795(4)
H4_7 H 0.1601 0.6920 0.8590
H5_9 H 0.1517 0.7534 0.9155
H6_7 H 0.2396 0.7257 0.8924
C10_7 C 0.1190(5) 0.7215(4) 0.7552(4)
H7_7 H 0.1231 0.6828 0.7892
H8_7 H 0.1484 0.7005 0.7196
H9_7 H 0.0618 0.7294 0.7445
N7_10 N 0.2219(3) 0.9966(3) 0.57071(18)
C11_11 C 0.0336(10) 0.0160(9) 0.3089(7)
H10_11 H 0.0914 0.0165 0.2987
H11_11 H 0.0167 0.0704 0.3215
N2_13 N 0.2363(3) 0.9501(3) 0.47474(18)
C1_11 C 0.1879(3) 0.9837(4) 0.5162(2)
H1_11 H 0.1332 0.9974 0.5076
C2_10 C 0.3101(3) 0.9400(3) 0.5040(2)
C3_10 C 0.3015(3) 0.9699(3) 0.5633(2)
C4_10 C 0.3662(4) 0.9684(4) 0.6044(3)
H2_10 H 0.3601 0.9889 0.6449
C5_12 C 0.3832(4) 0.9068(4) 0.4843(3)
H3_12 H 0.3886 0.8856 0.4440
C6_10 C 0.4395(4) 0.9365(5) 0.5852(4)
N4_13 N 0.0799(4) 0.9436(5) 0.3904(3)
C7_10 C 0.4480(4) 0.9055(4) 0.5246(3)
C8_13 C 0.0189(5) 0.9575(6) 0.3603(4)
N5_13 N 0.0389(5) 0.8931(7) 0.4398(4)
C9_8 C 0.5110(5) 0.9343(7) 0.6295(4)
H4_8 H 0.5580 0.9101 0.6090
H5_10 H 0.4966 0.9017 0.6655
H6_8 H 0.5243 0.9896 0.6424
C10_8 C 0.5285(4) 0.8690(5) 0.5052(4)
H7_8 H 0.5672 0.8731 0.5392
H8_8 H 0.5495 0.8984 0.4696
H9_8 H 0.5206 0.8118 0.4945
H12_13 H 0.0023 0.9992 0.2728
N7_11 N 0.2534(3) 0.9719(3) 0.32071(18)
N6_13 N 0.9618(5) 0.9006(7) 0.4320(4)
N2_14 N 0.2999(3) 0.9863(3) 0.22474(18)
C1_12 C 0.2663(4) 0.9379(3) 0.2662(2)
H1_12 H 0.2526 0.8832 0.2576
N4_14 N 0.3064(5) 0.8299(4) 0.1404(3)
C8_14 C 0.2925(6) 0.7689(5) 0.1103(4)
N5_14 N 0.3569(7) 0.7889(5) 0.1898(4)
N6_14 N 0.3494(7) 0.7118(5) 0.1820(4)
C11_12 C 0.2340(9) 0.7836(10) 0.0589(7)
H10_12 H 0.2335 0.8414 0.0487
H11_12 H 0.1796 0.7667 0.0715
H12_14 H 0.2508 0.7523 0.0228
N6_15 N 0.0382(5) 0.5994(7) 0.4320(4)
N2_15 N 0.7637(3) 0.5499(3) 0.47474(18)
C1_13 C 0.8121(3) 0.5163(4) 0.5162(2)
H1_13 H 0.8668 0.5026 0.5076
C2_11 C 0.6899(3) 0.5600(3) 0.5040(2)
C3_11 C 0.6985(3) 0.5301(3) 0.5633(2)
C4_11 C 0.6338(4) 0.5316(4) 0.6044(3)
H2_11 H 0.6399 0.5111 0.6449
C5_13 C 0.6168(4) 0.5932(4) 0.4843(3)
H3_13 H 0.6114 0.6144 0.4440
C6_11 C 0.5605(4) 0.5635(5) 0.5852(4)
N4_15 N 0.9201(4) 0.5564(5) 0.3904(3)
C7_11 C 0.5520(4) 0.5945(4) 0.5246(3)
C8_15 C 0.9811(5) 0.5425(6) 0.3603(4)
N5_15 N 0.9611(5) 0.6069(7) 0.4398(4)
C9_9 C 0.4890(5) 0.5657(7) 0.6295(4)
H4_9 H 0.4420 0.5899 0.6090
H5_11 H 0.5034 0.5983 0.6655
H6_9 H 0.4757 0.5104 0.6424
C10_9 C 0.4715(4) 0.6310(5) 0.5052(4)
H7_9 H 0.4328 0.6269 0.5392
H8_9 H 0.4505 0.6016 0.4696
H9_9 H 0.4794 0.6882 0.4945
C11_13 C 0.9664(10) 0.4840(9) 0.3089(7)
H10_13 H 0.9086 0.4835 0.2987
H11_13 H 0.9833 0.4296 0.3215
H12_15 H 0.9977 0.5008 0.2728
N7_12 N 0.7466(3) 0.5281(3) 0.32071(18)
N2_16 N 0.7001(3) 0.5137(3) 0.22474(18)
C1_14 C 0.7337(4) 0.5621(3) 0.2662(2)
H1_14 H 0.7474 0.6168 0.2576
C2_12 C 0.6900(3) 0.4399(3) 0.2540(2)
C3_12 C 0.7199(3) 0.4485(3) 0.3133(2)
C4_12 C 0.7184(4) 0.3838(4) 0.3544(3)
H2_12 H 0.7389 0.3899 0.3949
C5_14 C 0.6568(4) 0.3668(4) 0.2343(3)
H3_14 H 0.6356 0.3614 0.1940
C6_12 C 0.6865(5) 0.3105(4) 0.3352(4)
N4_16 N 0.6936(5) 0.6701(4) 0.1404(3)
C7_12 C 0.6555(4) 0.3020(4) 0.2746(3)
C8_16 C 0.7075(6) 0.7311(5) 0.1103(4)
N5_16 N 0.6431(7) 0.7111(5) 0.1898(4)
C9_10 C 0.6843(7) 0.2390(5) 0.3795(4)
H4_10 H 0.6601 0.1920 0.3590
H5_12 H 0.6517 0.2534 0.4155
H6_10 H 0.7396 0.2257 0.3924
C10_10 C 0.6190(5) 0.2215(4) 0.2552(4)
H7_10 H 0.6231 0.1828 0.2892
H8_10 H 0.6484 0.2005 0.2196
H9_10 H 0.5618 0.2294 0.2445
N6_16 N 0.6506(7) 0.7882(5) 0.1820(4)
C11_14 C 0.7660(9) 0.7164(10) 0.0589(7)
H10_14 H 0.7665 0.6586 0.0487
H11_14 H 0.8204 0.7333 0.0715
H12_16 H 0.7492 0.7477 0.0228
H8_11 H 0.9505 0.6016 0.0304
H9_11 H 0.9794 0.6882 0.0055
C9_11 C 0.9890(5) 0.5657(7) 0.8705(4)
H4_11 H 0.9420 0.5899 0.8910
H6_11 H 0.9757 0.5104 0.8576
C10_11 C 0.9715(4) 0.6310(5) 0.9948(4)
H7_11 H 0.9328 0.6269 0.9608
H8_12 H 0.0495 0.8984 0.0304
H9_12 H 0.0206 0.8118 0.0055
C9_12 C 0.0110(5) 0.9343(7) 0.8705(4)
H4_12 H 0.0580 0.9101 0.8910
H6_12 H 0.0243 0.9896 0.8576
C10_12 C 0.0285(4) 0.8690(5) 0.9948(4)
H7_12 H 0.0672 0.8731 0.9608
C11_15 C 0.5336(10) 0.0160(9) 0.1911(7)
H10_15 H 0.5914 0.0165 0.2013
H11_15 H 0.5167 0.0704 0.1785
N1_3 N 0.7219(3) 0.9966(3) 0.92929(18)
C1_15 C 0.6879(3) 0.9837(4) 0.9838(2)
H1_15 H 0.6332 0.9974 0.9924
C2_13 C 0.8101(3) 0.9400(3) 0.9960(2)
C3_13 C 0.8015(3) 0.9699(3) 0.9367(2)
C4_13 C 0.8662(4) 0.9684(4) 0.8956(3)
H2_13 H 0.8601 0.9889 0.8551
C6_13 C 0.9395(4) 0.9365(5) 0.9148(4)
C7_13 C 0.9480(4) 0.9055(4) 0.9754(3)
H5_13 H 0.9966 0.9017 0.8345
C2_14 C 0.6900(3) 0.9399(3) 0.7460(2)
C3_14 C 0.7199(3) 0.9485(3) 0.6867(2)
C4_14 C 0.7184(4) 0.8838(4) 0.6456(3)
H2_14 H 0.7389 0.8899 0.6051
C5_15 C 0.6568(4) 0.8668(4) 0.7657(3)
H3_15 H 0.6356 0.8614 0.8060
C6_14 C 0.6865(5) 0.8105(4) 0.6648(4)
C7_14 C 0.6555(4) 0.8020(4) 0.7254(3)
C9_13 C 0.6843(7) 0.7390(5) 0.6205(4)
H4_13 H 0.6601 0.6920 0.6410
H5_14 H 0.6517 0.7534 0.5845
H6_13 H 0.7396 0.7257 0.6076
C10_13 C 0.6190(5) 0.7215(4) 0.7448(4)
H7_13 H 0.6231 0.6828 0.7108
H8_13 H 0.6484 0.7005 0.7804
H9_13 H 0.5618 0.7294 0.7555
C9_14 C 0.0110(5) 0.4343(7) 0.1295(4)
H4_14 H 0.0580 0.4101 0.1090
H6_14 H 0.0243 0.4896 0.1424
C10_14 C 0.0285(4) 0.3690(5) 0.0052(4)
H7_14 H 0.0672 0.3731 0.0392
H8_14 H 0.0495 0.3984 0.9696
H9_14 H 0.0206 0.3118 0.9945
N1_4 N 0.2781(3) 0.0034(3) 0.07071(18)
C1_16 C 0.3121(3) 0.0163(4) 0.0162(2)
H1_16 H 0.3668 0.0026 0.0076
C2_15 C 0.1899(3) 0.0600(3) 0.0040(2)
C3_15 C 0.1985(3) 0.0301(3) 0.0633(2)
C4_15 C 0.1338(4) 0.0316(4) 0.1044(3)
H2_15 H 0.1399 0.0111 0.1449
C6_15 C 0.0605(4) 0.0635(5) 0.0852(4)
C7_15 C 0.0520(4) 0.0945(4) 0.0246(3)
H5_15 H 0.0034 0.0983 0.1655
C2_16 C 0.3100(3) 0.0601(3) 0.2540(2)
C3_16 C 0.2801(3) 0.0515(3) 0.3133(2)
C4_16 C 0.2816(4) 0.1162(4) 0.3544(3)
H2_16 H 0.2611 0.1101 0.3949
C5_16 C 0.3432(4) 0.1332(4) 0.2343(3)
H3_16 H 0.3644 0.1386 0.1940
C6_16 C 0.3135(5) 0.1895(4) 0.3352(4)
C7_16 C 0.3445(4) 0.1980(4) 0.2746(3)
C9_15 C 0.3157(7) 0.2610(5) 0.3795(4)
H4_15 H 0.3399 0.3080 0.3590
H5_16 H 0.3483 0.2466 0.4155
H6_15 H 0.2604 0.2743 0.3924
C10_15 C 0.3810(5) 0.2785(4) 0.2552(4)
H7_15 H 0.3769 0.3172 0.2892
H8_15 H 0.3516 0.2995 0.2196
H9_15 H 0.4382 0.2706 0.2445
C11_16 C 0.4664(10) 0.9840(9) 0.8089(7)
H10_16 H 0.4086 0.9835 0.7987
H11_16 H 0.4833 0.9296 0.8215
C9_16 C 0.9890(5) 0.0657(7) 0.1295(4)
H4_16 H 0.9420 0.0899 0.1090
H6_16 H 0.9757 0.0104 0.1424
C10_16 C 0.9715(4) 0.1310(5) 0.0052(4)
H7_16 H 0.9328 0.1269 0.0392
H8_16 H 0.9505 0.1016 0.9696
H9_16 H 0.9794 0.1882 0.9945
loop_
_geom_bond_atom_site_label_1
_geom_bond_atom_site_label_2
_geom_bond_site_symmetry_1
_geom_bond_site_symmetry_2
Zn1 N2 1_555 1_555
N3 C8 1_555 1_555
H3 C5 1_555 1_555
N4 Zn1 1_555 1_555
C8 N4 1_555 1_555
N5 N4 1_555 1_555
N6 N3 1_555 1_555
C11 C8 1_555 1_555
H10 C11 1_555 1_555
H11 C11 1_555 1_555
H12 C11 1_555 1_555
Zn3 N3 1_555 1_555
N7 Zn1 1_555 1_555
N8 Zn1 1_555 1_555
N5 N6 1_555 1_555
N1 C1 1_555 1_555
C1 H1 1_555 1_555
C3 N1 1_555 1_555
C4 C3 1_555 1_555
H2 C4 1_555 1_555
C6 C4 1_555 1_555
Zn2 N1 1_555 1_555
C2 C3 1_555 1_555
C6 C7 1_555 1_555
Zn1_2 N2_2 1_555 1_555
N7 C1_2 1_555 1_555
N2_2 C1_2 1_555 1_555
C1_2 H1_2 1_555 1_555
C2_2 N2_2 1_555 1_555
C3_2 N7 1_555 1_555
N3_2 C8_2 1_555 1_555
C4_2 C3_2 1_555 1_555
H2_2 C4_2 1_555 1_555
C5_2 C2_2 1_555 1_555
H3_2 C5_2 1_555 1_555
C6_2 C4_2 1_555 1_555
N4_2 Zn1_2 1_555 1_555
C7_2 C5_2 1_555 1_555
C8_2 N4_2 1_555 1_555
N5_2 N4_2 1_555 1_555
C9 C6_2 1_555 1_555
H4 C9 1_555 1_555
H5_2 C9 1_555 1_555
H6 C9 1_555 1_555
C10 C7_2 1_555 1_555
H7 C10 1_555 1_555
H8 C10 1_555 1_555
H9 C10 1_555 1_555
N6_2 N3_2 1_555 1_555
C11_2 C8_2 1_555 1_555
H10_2 C11_2 1_555 1_555
H11_2 C11_2 1_555 1_555
H12_2 C11_2 1_555 1_555
Zn3_2 N3_2 1_555 1_555
N7_2 Zn1_2 1_555 1_555
N8_2 Zn1_2 1_555 1_555
C2_2 C3_2 1_555 1_555
C6_2 C7_2 1_555 1_555
N5_2 N6_2 1_555 1_555
Zn1_3 N2_3 1_555 1_555
N3_3 C8_3 1_555 1_555
H3_3 C5_3 1_555 1_555
N4_3 Zn1_3 1_555 1_555
C8_3 N4_3 1_555 1_555
N5_3 N4_3 1_555 1_555
N6_3 N3_3 1_555 1_555
Zn3_3 N3_3 1_555 1_555
N7_3 Zn1_3 1_555 1_555
N8_3 Zn1_3 1_555 1_555
N5_3 N6_3 1_555 1_555
C4_3 C3_3 1_555 1_555
H2_3 C4_3 1_555 1_555
C5_4 C2_3 1_555 1_555
H3_4 C5_4 1_555 1_555
C6_3 C4_3 1_555 1_555
C7_3 C5_4 1_555 1_555
C9_2 C6_3 1_555 1_555
H4_2 C9_2 1_555 1_555
H5_3 C9_2 1_555 1_555
H6_2 C9_2 1_555 1_555
C10_2 C7_3 1_555 1_555
H7_2 C10_2 1_555 1_555
H8_2 C10_2 1_555 1_555
H9_2 C10_2 1_555 1_555
C2_3 C3_3 1_555 1_555
C6_3 C7_3 1_555 1_555
Zn1_4 N2_4 1_555 1_555
N7_3 C1_3 1_555 1_555
N2_4 C1_3 1_555 1_555
C1_3 H1_3 1_555 1_555
N3_4 C8_4 1_555 1_555
N4_4 Zn1_4 1_555 1_555
C8_4 N4_4 1_555 1_555
N5_4 N4_4 1_555 1_555
N6_4 N3_4 1_555 1_555
C11_3 C8_4 1_555 1_555
H10_3 C11_3 1_555 1_555
H11_3 C11_3 1_555 1_555
H12_4 C11_3 1_555 1_555
Zn3_4 N3_4 1_555 1_555
N8_4 Zn1_4 1_555 1_555
N5_4 N6_4 1_555 1_555
N6_5 N3_5 1_555 1_555
Zn3_5 N3_5 1_555 1_555
Zn1_5 N2_5 1_555 1_555
N7_4 C1_4 1_555 1_555
N2_5 C1_4 1_555 1_555
C1_4 H1_4 1_555 1_555
C2_4 N2_5 1_555 1_555
C3_4 N7_4 1_555 1_555
C4_4 C3_4 1_555 1_555
H2_4 C4_4 1_555 1_555
C5_5 C2_4 1_555 1_555
H3_5 C5_5 1_555 1_555
C6_4 C4_4 1_555 1_555
N4_5 Zn1_5 1_555 1_555
C7_4 C5_5 1_555 1_555
C8_5 N4_5 1_555 1_555
N5_5 N4_5 1_555 1_555
C9_3 C6_4 1_555 1_555
H4_3 C9_3 1_555 1_555
H5_4 C9_3 1_555 1_555
H6_3 C9_3 1_555 1_555
C10_3 C7_4 1_555 1_555
H7_3 C10_3 1_555 1_555
H8_3 C10_3 1_555 1_555
H9_3 C10_3 1_555 1_555
N7_5 Zn1_5 1_555 1_555
N8_5 Zn1_5 1_555 1_555
C2_4 C3_4 1_555 1_555
C6_4 C7_4 1_555 1_555
H10_4 C11_4 1_555 1_555
H11_4 C11_4 1_555 1_555
Zn2_2 N2_6 1_555 1_555
N7_5 C1_5 1_555 1_555
N2_6 C1_5 1_555 1_555
C1_5 H1_5 1_555 1_555
N3_6 C8_6 1_555 1_555
N4_6 Zn2_2 1_555 1_555
C8_6 N4_6 1_555 1_555
N5_6 N4_6 1_555 1_555
N6_6 N3_6 1_555 1_555
C11_5 C8_6 1_555 1_555
H10_5 C11_5 1_555 1_555
H11_5 C11_5 1_555 1_555
H12_6 C11_5 1_555 1_555
Zn3_6 N3_6 1_555 1_555
N8_6 Zn2_2 1_555 1_555
N5_6 N6_6 1_555 1_555
Zn1_6 N2_7 1_555 1_555
N7_2 C1_6 1_555 1_555
N2_7 C1_6 1_555 1_555
C1_6 H1_6 1_555 1_555
C2_5 N2_7 1_555 1_555
C3_5 N7_2 1_555 1_555
C4_5 C3_5 1_555 1_555
H2_5 C4_5 1_555 1_555
C5_6 C2_5 1_555 1_555
H3_6 C5_6 1_555 1_555
C6_5 C4_5 1_555 1_555
N4_7 Zn1_6 1_555 1_555
C7_5 C5_6 1_555 1_555
C8_7 N4_7 1_555 1_555
N5_7 N4_7 1_555 1_555
C9_4 C6_5 1_555 1_555
H4_4 C9_4 1_555 1_555
H5_5 C9_4 1_555 1_555
H6_4 C9_4 1_555 1_555
C10_4 C7_5 1_555 1_555
H7_4 C10_4 1_555 1_555
H8_4 C10_4 1_555 1_555
H9_4 C10_4 1_555 1_555
C11_6 C8_7 1_555 1_555
H10_6 C11_6 1_555 1_555
H11_6 C11_6 1_555 1_555
H12_7 C11_6 1_555 1_555
N7_6 Zn1_6 1_555 1_555
N8_7 Zn1_6 1_555 1_555
C2_5 C3_5 1_555 1_555
C6_5 C7_5 1_555 1_555
N6_7 N3_7 1_555 1_555
Zn3_7 N3_7 1_555 1_555
Zn2 N2_8 1_555 1_555
N7_6 C1_7 1_555 1_555
N2_8 C1_7 1_555 1_555
C1_7 H1_7 1_555 1_555
C2_6 N2_8 1_555 1_555
C3_6 N7_6 1_555 1_555
N3_8 C8_8 1_555 1_555
C4_6 C3_6 1_555 1_555
H2_6 C4_6 1_555 1_555
C5_7 C2_6 1_555 1_555
H3_7 C5_7 1_555 1_555
C6_6 C4_6 1_555 1_555
N4_8 Zn2 1_555 1_555
C7_6 C5_7 1_555 1_555
C8_8 N4_8 1_555 1_555
N5_8 N4_8 1_555 1_555
C9_5 C6_6 1_555 1_555
H4_5 C9_5 1_555 1_555
H5_6 C9_5 1_555 1_555
H6_5 C9_5 1_555 1_555
C10_5 C7_6 1_555 1_555
H7_5 C10_5 1_555 1_555
H8_5 C10_5 1_555 1_555
H9_5 C10_5 1_555 1_555
N6_8 N3_8 1_555 1_555
C11_7 C8_8 1_555 1_555
H10_7 C11_7 1_555 1_555
H11_7 C11_7 1_555 1_555
H12_8 C11_7 1_555 1_555
Zn3_8 N3_8 1_555 1_555
N8_8 Zn2 1_555 1_555
C2_6 C3_6 1_555 1_555
C6_6 C7_6 1_555 1_555
N5_8 N6_8 1_555 1_555
N1_2 C1_8 1_555 1_555
C1_8 H1_8 1_555 1_555
C3_7 N1_2 1_555 1_555
C4_7 C3_7 1_555 1_555
H2_7 C4_7 1_555 1_555
C6_7 C4_7 1_555 1_555
Zn3 N1_2 1_555 1_555
C2_7 C3_7 1_555 1_555
C6_7 C7_7 1_555 1_555
Zn3_6 N2_9 1_555 1_555
N8_8 C8_9 1_555 1_555
H3_8 C5_8 1_555 1_555
N4_9 Zn3_6 1_555 1_555
C8_9 N4_9 1_555 1_555
N5_9 N4_9 1_555 1_555
N6_9 N8_8 1_555 1_555
C11_8 C8_9 1_555 1_555
H10_8 C11_8 1_555 1_555
H11_8 C11_8 1_555 1_555
H12_9 C11_8 1_555 1_555
N7_7 Zn3_6 1_555 1_555
N5_9 N6_9 1_555 1_555
Zn3_7 N2_10 1_555 1_555
N7_7 C1_9 1_555 1_555
N2_10 C1_9 1_555 1_555
C1_9 H1_9 1_555 1_555
C2_8 N2_10 1_555 1_555
C3_8 N7_7 1_555 1_555
N8_5 C8_10 1_555 1_555
C4_8 C3_8 1_555 1_555
H2_8 C4_8 1_555 1_555
C5_9 C2_8 1_555 1_555
H3_9 C5_9 1_555 1_555
C6_8 C4_8 1_555 1_555
N4_10 Zn3_7 1_555 1_555
C7_8 C5_9 1_555 1_555
C8_10 N4_10 1_555 1_555
N5_10 N4_10 1_555 1_555
C9_6 C6_8 1_555 1_555
H4_6 C9_6 1_555 1_555
H5_8 C9_6 1_555 1_555
H6_6 C9_6 1_555 1_555
C10_6 C7_8 1_555 1_555
H7_6 C10_6 1_555 1_555
H8_6 C10_6 1_555 1_555
H9_6 C10_6 1_555 1_555
N6_10 N8_5 1_555 1_555
C11_9 C8_10 1_555 1_555
H10_9 C11_9 1_555 1_555
H11_9 C11_9 1_555 1_555
H12_10 C11_9 1_555 1_555
N7_8 Zn3_7 1_555 1_555
C2_8 C3_8 1_555 1_555
C6_8 C7_8 1_555 1_555
N5_10 N6_10 1_555 1_555
Zn3_8 N2_11 1_555 1_555
N8_6 C8_11 1_555 1_555
H3_10 C5_10 1_555 1_555
N4_11 Zn3_8 1_555 1_555
C8_11 N4_11 1_555 1_555
N5_11 N4_11 1_555 1_555
N6_11 N8_6 1_555 1_555
N7_9 Zn3_8 1_555 1_555
N5_11 N6_11 1_555 1_555
Zn3_5 N2_12 1_555 1_555
N7_9 C1_10 1_555 1_555
N2_12 C1_10 1_555 1_555
C1_10 H1_10 1_555 1_555
N8_7 C8_12 1_555 1_555
N4_12 Zn3_5 1_555 1_555
C8_12 N4_12 1_555 1_555
N5_12 N4_12 1_555 1_555
N6_12 N8_7 1_555 1_555
C11_10 C8_12 1_555 1_555
H10_10 C11_10 1_555 1_555
H11_10 C11_10 1_555 1_555
H12_12 C11_10 1_555 1_555
N5_12 N6_12 1_555 1_555
C4_9 C3_9 1_555 1_555
H2_9 C4_9 1_555 1_555
C5_11 C2_9 1_555 1_555
H3_11 C5_11 1_555 1_555
C6_9 C4_9 1_555 1_555
C7_9 C5_11 1_555 1_555
C9_7 C6_9 1_555 1_555
H4_7 C9_7 1_555 1_555
H5_9 C9_7 1_555 1_555
H6_7 C9_7 1_555 1_555
C10_7 C7_9 1_555 1_555
H7_7 C10_7 1_555 1_555
H8_7 C10_7 1_555 1_555
H9_7 C10_7 1_555 1_555
C2_9 C3_9 1_555 1_555
C6_9 C7_9 1_555 1_555
H10_11 C11_11 1_555 1_555
H11_11 C11_11 1_555 1_555
Zn3_2 N2_13 1_555 1_555
N7_10 C1_11 1_555 1_555
N2_13 C1_11 1_555 1_555
C1_11 H1_11 1_555 1_555
C2_10 N2_13 1_555 1_555
C3_10 N7_10 1_555 1_555
C4_10 C3_10 1_555 1_555
H2_10 C4_10 1_555 1_555
C5_12 C2_10 1_555 1_555
H3_12 C5_12 1_555 1_555
C6_10 C4_10 1_555 1_555
N4_13 Zn3_2 1_555 1_555
C7_10 C5_12 1_555 1_555
C8_13 N4_13 1_555 1_555
N5_13 N4_13 1_555 1_555
C9_8 C6_10 1_555 1_555
H4_8 C9_8 1_555 1_555
H5_10 C9_8 1_555 1_555
H6_8 C9_8 1_555 1_555
C10_8 C7_10 1_555 1_555
H7_8 C10_8 1_555 1_555
H8_8 C10_8 1_555 1_555
H9_8 C10_8 1_555 1_555
N7_11 Zn3_2 1_555 1_555
C2_10 C3_10 1_555 1_555
C6_10 C7_10 1_555 1_555
N6_13 N8_4 1_555 1_555
Zn3_3 N2_14 1_555 1_555
N7_11 C1_12 1_555 1_555
N2_14 C1_12 1_555 1_555
C1_12 H1_12 1_555 1_555
N8 C8_14 1_555 1_555
N4_14 Zn3_3 1_555 1_555
C8_14 N4_14 1_555 1_555
N5_14 N4_14 1_555 1_555
N6_14 N8 1_555 1_555
C11_12 C8_14 1_555 1_555
H10_12 C11_12 1_555 1_555
H11_12 C11_12 1_555 1_555
H12_14 C11_12 1_555 1_555
N5_14 N6_14 1_555 1_555
N6_15 N8_2 1_555 1_555
Zn3_4 N2_15 1_555 1_555
N7_8 C1_13 1_555 1_555
N2_15 C1_13 1_555 1_555
C1_13 H1_13 1_555 1_555
C2_11 N2_15 1_555 1_555
C3_11 N7_8 1_555 1_555
C4_11 C3_11 1_555 1_555
H2_11 C4_11 1_555 1_555
C5_13 C2_11 1_555 1_555
H3_13 C5_13 1_555 1_555
C6_11 C4_11 1_555 1_555
N4_15 Zn3_4 1_555 1_555
C7_11 C5_13 1_555 1_555
C8_15 N4_15 1_555 1_555
N5_15 N4_15 1_555 1_555
C9_9 C6_11 1_555 1_555
H4_9 C9_9 1_555 1_555
H5_11 C9_9 1_555 1_555
H6_9 C9_9 1_555 1_555
C10_9 C7_11 1_555 1_555
H7_9 C10_9 1_555 1_555
H8_9 C10_9 1_555 1_555
H9_9 C10_9 1_555 1_555
C11_13 C8_15 1_555 1_555
H10_13 C11_13 1_555 1_555
H11_13 C11_13 1_555 1_555
H12_15 C11_13 1_555 1_555
N7_12 Zn3_4 1_555 1_555
C2_11 C3_11 1_555 1_555
C6_11 C7_11 1_555 1_555
Zn3 N2_16 1_555 1_555
N7_12 C1_14 1_555 1_555
N2_16 C1_14 1_555 1_555
C1_14 H1_14 1_555 1_555
C2_12 N2_16 1_555 1_555
C3_12 N7_12 1_555 1_555
N8_3 C8_16 1_555 1_555
C4_12 C3_12 1_555 1_555
H2_12 C4_12 1_555 1_555
C5_14 C2_12 1_555 1_555
H3_14 C5_14 1_555 1_555
C6_12 C4_12 1_555 1_555
N4_16 Zn3 1_555 1_555
C7_12 C5_14 1_555 1_555
C8_16 N4_16 1_555 1_555
N5_16 N4_16 1_555 1_555
C9_10 C6_12 1_555 1_555
H4_10 C9_10 1_555 1_555
H5_12 C9_10 1_555 1_555
H6_10 C9_10 1_555 1_555
C10_10 C7_12 1_555 1_555
H7_10 C10_10 1_555 1_555
H8_10 C10_10 1_555 1_555
H9_10 C10_10 1_555 1_555
N6_16 N8_3 1_555 1_555
C11_14 C8_16 1_555 1_555
H10_14 C11_14 1_555 1_555
H11_14 C11_14 1_555 1_555
H12_16 C11_14 1_555 1_555
C2_12 C3_12 1_555 1_555
C6_12 C7_12 1_555 1_555
N5_16 N6_16 1_555 1_555
H4_11 C9_11 1_555 1_555
H6_11 C9_11 1_555 1_555
H7_11 C10_11 1_555 1_555
H4_12 C9_12 1_555 1_555
H6_12 C9_12 1_555 1_555
H7_12 C10_12 1_555 1_555
H10_15 C11_15 1_555 1_555
H11_15 C11_15 1_555 1_555
N1_3 C1_15 1_555 1_555
C1_15 H1_15 1_555 1_555
C3_13 N1_3 1_555 1_555
C4_13 C3_13 1_555 1_555
H2_13 C4_13 1_555 1_555
C6_13 C4_13 1_555 1_555
C2_13 C3_13 1_555 1_555
C6_13 C7_13 1_555 1_555
C4_14 C3_14 1_555 1_555
H2_14 C4_14 1_555 1_555
C5_15 C2_14 1_555 1_555
H3_15 C5_15 1_555 1_555
C6_14 C4_14 1_555 1_555
C7_14 C5_15 1_555 1_555
C9_13 C6_14 1_555 1_555
H4_13 C9_13 1_555 1_555
H5_14 C9_13 1_555 1_555
H6_13 C9_13 1_555 1_555
C10_13 C7_14 1_555 1_555
H7_13 C10_13 1_555 1_555
H8_13 C10_13 1_555 1_555
H9_13 C10_13 1_555 1_555
C2_14 C3_14 1_555 1_555
C6_14 C7_14 1_555 1_555
H4_14 C9_14 1_555 1_555
H6_14 C9_14 1_555 1_555
H7_14 C10_14 1_555 1_555
N1_4 C1_16 1_555 1_555
C1_16 H1_16 1_555 1_555
C3_15 N1_4 1_555 1_555
C4_15 C3_15 1_555 1_555
H2_15 C4_15 1_555 1_555
C6_15 C4_15 1_555 1_555
C2_15 C3_15 1_555 1_555
C6_15 C7_15 1_555 1_555
C4_16 C3_16 1_555 1_555
H2_16 C4_16 1_555 1_555
C5_16 C2_16 1_555 1_555
H3_16 C5_16 1_555 1_555
C6_16 C4_16 1_555 1_555
C7_16 C5_16 1_555 1_555
C9_15 C6_16 1_555 1_555
H4_15 C9_15 1_555 1_555
H5_16 C9_15 1_555 1_555
H6_15 C9_15 1_555 1_555
C10_15 C7_16 1_555 1_555
H7_15 C10_15 1_555 1_555
H8_15 C10_15 1_555 1_555
H9_15 C10_15 1_555 1_555
C2_16 C3_16 1_555 1_555
C6_16 C7_16 1_555 1_555
H10_16 C11_16 1_555 1_555
H11_16 C11_16 1_555 1_555
H4_16 C9_16 1_555 1_555
H6_16 C9_16 1_555 1_555
H7_16 C10_16 1_555 1_555

#END
