
###############################################################################
#
# This file contains modified crystal structure data generated from the
# MOF subset of the Cambridge Structural Database (CSD) v543 
# hosted by the Cambridge Crystallographic Data Centre (CCDC).
#
# This work is licensed under the Creative Commons
# Attribution-NonCommercial-ShareAlike 4.0 International License.
# To view a copy of this license, visit
# http://creativecommons.org/licenses/by-nc-sa/4.0/
# or send a letter to
# Creative Commons, PO Box 1866, Mountain View, CA 94042, USA.
#
# CIF created using the CSD Python API on 29 September 2022
# The structure has been converted into the P1 space group
# The structure has a 3D framework
# The original CSD entry HORQOX is in the monoclinic crystal system
# The framework has been calculated to contain at least 10.0% void space
# The void calculation uses a probe of radius 1.32A, grid spacing 0.4
#
###############################################################################

data_HORQOX
_chemical_formula_moiety         '(C256 H160 Cd8 N32 O30)n'
_symmetry_cell_setting           triclinic
_symmetry_space_group_name_H-M   'P 1'
_symmetry_Int_Tables_number      1
_space_group_name_Hall           'P 1'
loop_
_symmetry_equiv_pos_site_id
_symmetry_equiv_pos_as_xyz
1 x,y,z
_cell_length_a                   15.4187(17)
_cell_length_b                   15.7341(17)
_cell_length_c                   25.250(3)
_cell_angle_alpha                90
_cell_angle_beta                 97.727(3)
_cell_angle_gamma                90
_cell_volume                     6070.01
loop_
_atom_site_label
_atom_site_type_symbol
_atom_site_fract_x
_atom_site_fract_y
_atom_site_fract_z
O3 O 0.62144(14) 0.01246(14) 0.22095(9)
Cd3 Cd 0.75791(2) 0.08296(2) 0.33770(2)
Cd6 Cd 0.72715(2) 0.09391(2) 0.19484(2)
C1 C 0.55355(19) 0.89297(18) 0.25091(11)
C2 C 0.4657(2) 0.90498(19) 0.25156(14)
H1 H 0.4453 0.9577 0.2610
C3 C 0.4064(2) 0.8389(2) 0.23819(14)
H2 H 0.3475 0.8476 0.2407
C4 C 0.58460(19) 0.81205(18) 0.23725(11)
C5 C 0.6750(2) 0.7956(2) 0.23771(14)
H3 H 0.7155 0.8385 0.2477
N1 N 0.10202(19) 0.67763(18) 0.59956(11)
C6 C 0.0289(2) 0.7133(2) 0.61777(12)
Cd1 Cd 0.24209(2) 0.58296(2) 0.16230(2)
Cd2 Cd 0.27285(2) 0.59391(2) 0.30516(2)
C9 C 0.3647(2) 0.69817(19) 0.20020(13)
O4 O 0.14014(15) 0.49896(15) 0.18374(9)
N2 N 0.25779(17) 0.52661(16) 0.08055(10)
C10 C 0.13994(19) 0.46136(19) 0.22809(13)
N3 N 0.31247(19) 0.50503(17) 0.00434(10)
N5 N 0.14263(17) 0.80723(17) 0.62877(11)
C11 C 0.52375(19) 0.74591(19) 0.22126(12)
O5 O 0.30391(14) 0.68055(14) 0.22713(9)
N6 N 0.25142(19) 0.52830(18) 0.38508(11)
O6 O 0.18963(15) 0.47331(15) 0.26968(10)
C13 C 0.2255(2) 0.45026(19) 0.05852(13)
C14 C 0.0882(2) 0.3143(2) 0.20739(16)
H6 H 0.1432 0.3020 0.1981
C15 C 0.61580(19) 0.96734(18) 0.26121(12)
C16 C 0.3087(2) 0.5564(2) 0.04738(13)
H7 H 0.3392 0.6074 0.0527
C17 C 0.4330(2) 0.76188(19) 0.22155(12)
O7 O 0.65391(16) 0.97780(15) 0.30685(9)
C20 C 0.2031(3) 0.5546(2) 0.42032(14)
H10 H 0.1700 0.6042 0.4165
C21 C 0.0713(2) 0.3928(2) 0.22597(12)
C22 C 0.1582(3) 0.5106(2) 0.50816(14)
O8 O 0.36725(16) 0.66823(16) 0.15467(10)
N8 N 0.2060(2) 0.50194(18) 0.46350(12)
C23 C 0.1537(2) 0.5892(2) 0.53176(14)
H11 H 0.1810 0.6362 0.5189
C24 C 0.1076(3) 0.5966(2) 0.57508(14)
C26 C 0.2894(2) 0.4534(2) 0.40573(13)
C28 C 0.1661(2) 0.7370(2) 0.60752(14)
H14 H 0.2220 0.7284 0.5986
C31 C 0.2582(2) 0.4360(2) 0.01029(13)
C32 C 0.5565(2) 0.6664(2) 0.20700(14)
H16 H 0.5177 0.6224 0.1967
C33 C 0.0546(2) 0.7947(2) 0.63526(12)
H17 H 0.0089 0.5360 0.2619
C39 C 0.2628(3) 0.4362(2) 0.45526(14)
C40 C 0.1672(2) 0.3932(2) 0.07690(15)
H20 H 0.1460 0.4014 0.1093
C42 C 0.3471(3) 0.3987(2) 0.38454(16)
H22 H 0.3647 0.4089 0.3513
C43 C 0.0709(3) 0.4497(3) 0.56899(18)
H23 H 0.0427 0.4029 0.5812
C44 C 0.3526(3) 0.3154(3) 0.46510(18)
H24 H 0.3761 0.2691 0.4850
C46 C 0.1162(3) 0.4412(2) 0.52582(17)
H26 H 0.1184 0.3889 0.5088
C47 C 0.0225(3) 0.2515(2) 0.20223(18)
H27 H 0.0350 0.1978 0.1898
C49 C 0.1426(3) 0.3243(2) 0.04497(17)
H28 H 0.1045 0.2844 0.0563
C50 C 0.2954(3) 0.3675(2) 0.48619(16)
H29 H 0.2790 0.3575 0.5198
C53 C 0.3769(3) 0.3295(3) 0.41440(18)
H31 H 0.4141 0.2911 0.4007
H32 H 0.0133 0.9037 0.6660
C57 C 0.0670(3) 0.5270(2) 0.59428(16)
H35 H 0.0375 0.5322 0.6239
C59 C 0.7033(2) 0.7183(2) 0.22371(16)
H37 H 0.7630 0.7085 0.2245
C63 C 0.6439(2) 0.6531(2) 0.20806(16)
H39 H 0.6641 0.6005 0.1983
O9 O 0.1877(2) 0.7101(2) 0.32946(16)
O10 O 0.1353(2) 0.6450(2) 0.26106(15)
Cd4 Cd 0.24209(2) 0.91704(2) 0.66230(2)
O11 O 0.37856(14) 0.51246(14) 0.27905(9)
N9 N 0.38821(18) 0.68204(17) 0.35028(11)
N10 N 0.14263(17) 0.69277(17) 0.12877(11)
O12 O 0.34609(16) 0.47780(15) 0.19315(9)
N4 N 0.38821(18) 0.81796(17) 0.85028(11)
C18 C 0.3751(2) 0.5974(2) 0.94308(13)
H8 H 0.3412 0.6419 0.9533
N7 N 0.43780(19) 0.69355(18) 0.88411(11)
C19 C 0.4752(2) 0.4653(2) 0.91251(14)
H9 H 0.5087 0.4206 0.9021
C25 C 0.4186(2) 0.4507(2) 0.94932(14)
H12 H 0.4141 0.3969 0.9639
C27 C 0.3676(2) 0.7438(2) 0.86780(14)
H13 H 0.3102 0.7268 0.8690
C29 C 0.3685(2) 0.5171(2) 0.96437(13)
C30 C 0.4834(2) 0.5448(2) 0.89074(14)
H15 H 0.5222 0.5540 0.8661
C34 C 0.4797(2) 0.8181(2) 0.85508(12)
C36 C 0.2315(3) 0.3674(2) 0.97785(15)
H18 H 0.2520 0.3590 0.9453
C37 C 0.4329(2) 0.6107(2) 0.90627(13)
C38 C 0.6008(2) 0.7225(3) 0.88521(15)
H19 H 0.6219 0.6708 0.8994
C41 C 0.6249(3) 0.8626(3) 0.85185(16)
H21 H 0.6647 0.9036 0.8440
C45 C 0.5367(2) 0.8805(2) 0.84279(15)
H25 H 0.5163 0.9326 0.8289
C51 C 0.5116(2) 0.7399(2) 0.87598(13)
C52 C 0.1732(3) 0.3126(2) 0.99624(17)
H30 H 0.1535 0.2660 0.9754
C64 C 0.6559(3) 0.7849(3) 0.87236(16)
H40 H 0.7159 0.7750 0.8775
Cd7 Cd 0.27285(2) 0.90609(2) 0.80516(2)
O1 O 0.8123(2) 0.2101(2) 0.17054(16)
O2 O 0.8647(2) 0.1450(2) 0.23894(15)
C7 C 0.9443(2) 0.6835(3) 0.61998(14)
H4 H 0.9273 0.6291 0.6086
C8 C 0.8876(3) 0.7379(3) 0.63966(16)
H5 H 0.8308 0.7199 0.6420
C12 C 0.9874(2) 0.4120(2) 0.24041(13)
C35 C 0.9664(2) 0.4936(2) 0.25810(15)
C48 C 0.9218(2) 0.3481(2) 0.23507(15)
C54 C 0.9965(2) 0.8492(2) 0.65458(14)
C55 C 0.8848(3) 0.5110(3) 0.2696(2)
H33 H 0.8714 0.5655 0.2803
C56 C 0.8207(3) 0.4476(3) 0.2657(2)
H34 H 0.7654 0.4600 0.2745
C58 C 0.8385(3) 0.3687(3) 0.2494(2)
H36 H 0.7954 0.3270 0.2474
C60 C 0.9413(2) 0.2676(2) 0.21509(16)
C61 C 0.8693(3) 0.2023(2) 0.2054(2)
C62 C 0.9127(2) 0.8202(3) 0.65640(16)
H38 H 0.8719 0.8559 0.6690
C12_2 C 0.0126(2) 0.9120(2) 0.25959(13)
C35_2 C 0.0336(2) 0.9936(2) 0.24190(15)
C48_2 C 0.0782(2) 0.8481(2) 0.26493(15)
C56_2 C 0.1793(3) 0.9476(3) 0.2343(2)
H34_2 H 0.2346 0.9600 0.2255
C58_2 C 0.1615(3) 0.8687(3) 0.2506(2)
H36_2 H 0.2046 0.8270 0.2526
C60_2 C 0.0587(2) 0.7676(2) 0.28491(16)
C61_2 C 0.1307(3) 0.7023(2) 0.2946(2)
C1_2 C 0.44645(19) 0.39297(18) 0.24909(11)
C2_2 C 0.5343(2) 0.40498(19) 0.24844(14)
H1_2 H 0.5547 0.4577 0.2390
C3_2 C 0.5936(2) 0.3389(2) 0.26181(14)
H2_2 H 0.6525 0.3476 0.2593
C4_2 C 0.41540(19) 0.31205(18) 0.26275(11)
C5_2 C 0.3250(2) 0.2956(2) 0.26229(14)
H3_2 H 0.2845 0.3385 0.2523
C9_2 C 0.6353(2) 0.19817(19) 0.29980(13)
N2_2 N 0.74221(17) 0.02661(16) 0.41945(10)
N3_2 N 0.68753(19) 0.00503(17) 0.49566(10)
N4_2 N 0.61179(18) 0.31796(17) 0.64972(11)
C11_2 C 0.47625(19) 0.24591(19) 0.27874(12)
O5_2 O 0.69609(14) 0.18055(14) 0.27287(9)
N6_2 N 0.74858(19) 0.02830(18) 0.11492(11)
C15_2 C 0.38420(19) 0.46734(18) 0.23879(12)
C16_2 C 0.6913(2) 0.0564(2) 0.45262(13)
H7_2 H 0.6608 0.1074 0.4473
C17_2 C 0.5670(2) 0.26188(19) 0.27845(12)
C18_2 C 0.6249(2) 0.0974(2) 0.55692(13)
H8_2 H 0.6588 0.1419 0.5467
N7_2 N 0.56220(19) 0.19355(18) 0.61589(11)
C20_2 C 0.7969(3) 0.0546(2) 0.07968(14)
H10_2 H 0.8300 0.1042 0.0835
O8_2 O 0.63275(16) 0.16823(16) 0.34533(10)
N8_2 N 0.7940(2) 0.00194(18) 0.03650(12)
C27_2 C 0.6324(2) 0.2438(2) 0.63220(14)
H13_2 H 0.6898 0.2268 0.6310
C29_2 C 0.6315(2) 0.0171(2) 0.53563(13)
C30_2 C 0.5166(2) 0.0448(2) 0.60926(14)
H15_2 H 0.4778 0.0540 0.6339
C32_2 C 0.4435(2) 0.1664(2) 0.29300(14)
H16_2 H 0.4823 0.1224 0.3033
C34_2 C 0.5203(2) 0.3181(2) 0.64492(12)
H17_2 H 0.9911 0.0360 0.2381
C37_2 C 0.5671(2) 0.1107(2) 0.59373(13)
C38_2 C 0.3992(2) 0.2225(3) 0.61479(15)
H19_2 H 0.3781 0.1708 0.6006
C41_2 C 0.3751(3) 0.3626(3) 0.64815(16)
H21_2 H 0.3353 0.4036 0.6560
C45_2 C 0.4633(2) 0.3805(2) 0.65721(15)
H25_2 H 0.4837 0.4326 0.6711
C51_2 C 0.4884(2) 0.2399(2) 0.62402(13)
C59_2 C 0.2967(2) 0.2183(2) 0.27629(16)
H37_2 H 0.2370 0.2085 0.2755
C63_2 C 0.3561(2) 0.1531(2) 0.29194(16)
H39_2 H 0.3359 0.1005 0.3017
C64_2 C 0.3441(3) 0.2849(3) 0.62764(16)
H40_2 H 0.2841 0.2750 0.6225
Cd7_2 Cd 0.72715(2) 0.40609(2) 0.69484(2)
N9_2 N 0.61179(18) 0.18204(17) 0.14972(11)
N10_2 N 0.85737(17) 0.19277(17) 0.37123(11)
N1_2 N 0.89798(19) 0.17763(18) 0.90044(11)
C6_2 C 0.9711(2) 0.2133(2) 0.88223(12)
N5_2 N 0.85737(17) 0.30723(17) 0.87123(11)
C22_2 C 0.8418(3) 0.0106(2) 0.99184(14)
C23_2 C 0.8463(2) 0.0892(2) 0.96824(14)
H11_2 H 0.8190 0.1362 0.9811
C24_2 C 0.8924(3) 0.0966(2) 0.92492(14)
C28_2 C 0.8339(2) 0.2370(2) 0.89248(14)
H14_2 H 0.7780 0.2284 0.9014
C33_2 C 0.9454(2) 0.2947(2) 0.86474(12)
H32_2 H 0.9867 0.4037 0.8340
C57_2 C 0.9330(3) 0.0270(2) 0.90572(16)
H35_2 H 0.9625 0.0322 0.8761
Cd4_2 Cd 0.75791(2) 0.41704(2) 0.83770(2)
O4_2 O 0.85986(15) 0.99896(15) 0.31626(9)
C10_2 C 0.86006(19) 0.96136(19) 0.27191(13)
O6_2 O 0.81037(15) 0.97331(15) 0.23032(10)
C13_2 C 0.7745(2) 0.95026(19) 0.44148(13)
C14_2 C 0.9118(2) 0.8143(2) 0.29261(16)
H6_2 H 0.8568 0.8020 0.3019
C19_2 C 0.5248(2) 0.9653(2) 0.58749(14)
H9_2 H 0.4913 0.9206 0.5979
C21_2 C 0.9287(2) 0.8928(2) 0.27403(12)
C25_2 C 0.5814(2) 0.9507(2) 0.55068(14)
H12_2 H 0.5859 0.8969 0.5361
C26_2 C 0.7106(2) 0.9534(2) 0.09427(13)
C31_2 C 0.7418(2) 0.9360(2) 0.48971(13)
C36_2 C 0.7685(3) 0.8674(2) 0.52215(15)
H18_2 H 0.7480 0.8590 0.5547
C39_2 C 0.7372(3) 0.9362(2) 0.04474(14)
C40_2 C 0.8328(2) 0.8932(2) 0.42310(15)
H20_2 H 0.8540 0.9014 0.3907
C42_2 C 0.6529(3) 0.8987(2) 0.11546(16)
H22_2 H 0.6353 0.9089 0.1487
C44_2 C 0.6474(3) 0.8154(3) 0.03490(18)
H24_2 H 0.6239 0.7691 0.0150
C47_2 C 0.9775(3) 0.7515(2) 0.29777(18)
H27_2 H 0.9650 0.6978 0.3102
C49_2 C 0.8574(3) 0.8243(2) 0.45503(17)
H28_2 H 0.8955 0.7844 0.4437
C50_2 C 0.7046(3) 0.8675(2) 0.01381(16)
C52_2 C 0.8268(3) 0.8126(2) 0.50376(17)
H30_2 H 0.8465 0.7660 0.5246
C53_2 C 0.6231(3) 0.8295(3) 0.08560(18)
H31_2 H 0.5859 0.7911 0.0993
O1_2 O 0.1877(2) 0.7899(2) 0.82946(16)
O2_2 O 0.1353(2) 0.8550(2) 0.76106(15)
C7_2 C 0.0557(2) 0.3165(3) 0.38002(14)
H4_2 H 0.0727 0.3709 0.3914
C8_2 C 0.1124(3) 0.2621(3) 0.36034(16)
H5_2 H 0.1692 0.2801 0.3580
C12_3 C 0.0126(2) 0.5880(2) 0.75959(13)
C35_3 C 0.0336(2) 0.5064(2) 0.74190(15)
C48_3 C 0.0782(2) 0.6519(2) 0.76493(15)
C54_2 C 0.0035(2) 0.1508(2) 0.34542(14)
C55_2 C 0.1152(3) 0.4890(3) 0.7304(2)
H33_2 H 0.1286 0.4345 0.7197
C56_3 C 0.1793(3) 0.5524(3) 0.7343(2)
H34_3 H 0.2346 0.5400 0.7255
C58_3 C 0.1615(3) 0.6313(3) 0.7506(2)
H36_3 H 0.2046 0.6730 0.7526
C60_3 C 0.0587(2) 0.7324(2) 0.78491(16)
C61_3 C 0.1307(3) 0.7977(2) 0.7946(2)
C62_2 C 0.0873(2) 0.1798(3) 0.34360(16)
H38_2 H 0.1281 0.1441 0.3310
C18_3 C 0.6249(2) 0.4026(2) 0.05692(13)
H8_3 H 0.6588 0.3581 0.0467
N7_3 N 0.56220(19) 0.30645(18) 0.11589(11)
C19_3 C 0.5248(2) 0.5347(2) 0.08749(14)
H9_3 H 0.4913 0.5794 0.0979
C25_3 C 0.5814(2) 0.5493(2) 0.05068(14)
H12_3 H 0.5859 0.6031 0.0361
C27_3 C 0.6324(2) 0.2562(2) 0.13220(14)
H13_3 H 0.6898 0.2732 0.1310
C29_3 C 0.6315(2) 0.4829(2) 0.03563(13)
C30_3 C 0.5166(2) 0.4552(2) 0.10926(14)
H15_3 H 0.4778 0.4460 0.1339
C34_3 C 0.5203(2) 0.1819(2) 0.14492(12)
C36_3 C 0.7685(3) 0.6326(2) 0.02215(15)
H18_3 H 0.7480 0.6410 0.0547
C37_3 C 0.5671(2) 0.3893(2) 0.09373(13)
C38_3 C 0.3992(2) 0.2775(3) 0.11479(15)
H19_3 H 0.3781 0.3292 0.1006
C41_3 C 0.3751(3) 0.1374(3) 0.14815(16)
H21_3 H 0.3353 0.0964 0.1560
C45_3 C 0.4633(2) 0.1195(2) 0.15721(15)
H25_3 H 0.4837 0.0674 0.1711
C51_3 C 0.4884(2) 0.2601(2) 0.12402(13)
C52_3 C 0.8268(3) 0.6874(2) 0.00376(17)
H30_3 H 0.8465 0.7340 0.0246
C64_3 C 0.3441(3) 0.2151(3) 0.12764(16)
H40_3 H 0.2841 0.2250 0.1225
C1_3 C 0.44645(19) 0.10703(18) 0.74909(11)
C2_3 C 0.5343(2) 0.09502(19) 0.74844(14)
H1_3 H 0.5547 0.0423 0.7390
C3_3 C 0.5936(2) 0.1611(2) 0.76181(14)
H2_3 H 0.6525 0.1524 0.7593
C4_3 C 0.41540(19) 0.18795(18) 0.76275(11)
C5_3 C 0.3250(2) 0.2044(2) 0.76229(14)
H3_3 H 0.2845 0.1615 0.7523
N1_3 N 0.89798(19) 0.32237(18) 0.40044(11)
C6_3 C 0.9711(2) 0.2867(2) 0.38223(12)
C9_3 C 0.6353(2) 0.30183(19) 0.79980(13)
O4_3 O 0.85986(15) 0.50104(15) 0.81626(9)
N2_3 N 0.74221(17) 0.47339(16) 0.91945(10)
C10_3 C 0.86006(19) 0.53864(19) 0.77191(13)
N3_3 N 0.68753(19) 0.49497(17) 0.99566(10)
C11_3 C 0.47625(19) 0.25409(19) 0.77874(12)
O5_3 O 0.69609(14) 0.31945(14) 0.77287(9)
N6_3 N 0.74858(19) 0.47170(18) 0.61492(11)
O6_3 O 0.81037(15) 0.52669(15) 0.73032(10)
C13_3 C 0.7745(2) 0.54974(19) 0.94148(13)
C14_3 C 0.9118(2) 0.6857(2) 0.79261(16)
H6_3 H 0.8568 0.6980 0.8019
C15_3 C 0.38420(19) 0.03266(18) 0.73879(12)
C16_3 C 0.6913(2) 0.4436(2) 0.95262(13)
H7_3 H 0.6608 0.3926 0.9473
C17_3 C 0.5670(2) 0.23812(19) 0.77845(12)
O7_2 O 0.34609(16) 0.02220(15) 0.69315(9)
C20_3 C 0.7969(3) 0.4454(2) 0.57968(14)
H10_3 H 0.8300 0.3958 0.5835
C21_3 C 0.9287(2) 0.6072(2) 0.77403(12)
C22_3 C 0.8418(3) 0.4894(2) 0.49184(14)
O8_3 O 0.63275(16) 0.33177(16) 0.84533(10)
N8_3 N 0.7940(2) 0.49806(18) 0.53650(12)
C23_3 C 0.8463(2) 0.4108(2) 0.46824(14)
H11_3 H 0.8190 0.3638 0.4811
C24_3 C 0.8924(3) 0.4034(2) 0.42492(14)
C26_3 C 0.7106(2) 0.5466(2) 0.59427(13)
C28_3 C 0.8339(2) 0.2630(2) 0.39248(14)
H14_3 H 0.7780 0.2716 0.4014
C31_3 C 0.7418(2) 0.5640(2) 0.98971(13)
C32_3 C 0.4435(2) 0.3336(2) 0.79300(14)
H16_3 H 0.4823 0.3776 0.8033
C33_3 C 0.9454(2) 0.2053(2) 0.36474(12)
H17_3 H 0.9911 0.4640 0.7381
C39_3 C 0.7372(3) 0.5638(2) 0.54474(14)
C40_3 C 0.8328(2) 0.6068(2) 0.92310(15)
H20_3 H 0.8540 0.5986 0.8907
C42_3 C 0.6529(3) 0.6013(2) 0.61546(16)
H22_3 H 0.6353 0.5911 0.6487
C43_2 C 0.9291(3) 0.5503(3) 0.43101(18)
H23_2 H 0.9573 0.5971 0.4188
C44_3 C 0.6474(3) 0.6846(3) 0.53490(18)
H24_3 H 0.6239 0.7309 0.5150
C46_2 C 0.8838(3) 0.5588(2) 0.47418(17)
H26_2 H 0.8816 0.6111 0.4912
C47_3 C 0.9775(3) 0.7485(2) 0.79777(18)
H27_3 H 0.9650 0.8022 0.8102
C49_3 C 0.8574(3) 0.6757(2) 0.95503(17)
H28_3 H 0.8955 0.7156 0.9437
C50_3 C 0.7046(3) 0.6325(2) 0.51381(16)
H29_2 H 0.7210 0.6425 0.4802
C53_3 C 0.6231(3) 0.6705(3) 0.58560(18)
H31_3 H 0.5859 0.7089 0.5993
H32_3 H 0.9867 0.0963 0.3340
C57_3 C 0.9330(3) 0.4730(2) 0.40572(16)
H35_3 H 0.9625 0.4678 0.3761
C59_3 C 0.2967(2) 0.2817(2) 0.77629(16)
H37_3 H 0.2370 0.2915 0.7755
C63_3 C 0.3561(2) 0.3469(2) 0.79194(16)
H39_3 H 0.3359 0.3995 0.8017
O9_2 O 0.8123(2) 0.2899(2) 0.67054(16)
O10_2 O 0.8647(2) 0.3550(2) 0.73894(15)
O11_2 O 0.62144(14) 0.48754(14) 0.72095(9)
O12_2 O 0.65391(16) 0.52220(15) 0.80685(9)
O3_2 O 0.37856(14) 0.98754(14) 0.77905(9)
O4_4 O 0.14014(15) 0.00104(15) 0.68374(9)
C10_4 C 0.13994(19) 0.03864(19) 0.72809(13)
O6_4 O 0.18963(15) 0.02669(15) 0.76968(10)
C13_4 C 0.2255(2) 0.04974(19) 0.55852(13)
C14_4 C 0.0882(2) 0.1857(2) 0.70739(16)
H6_4 H 0.1432 0.1980 0.6981
C19_4 C 0.4752(2) 0.0347(2) 0.41251(14)
H9_4 H 0.5087 0.0794 0.4021
C21_4 C 0.0713(2) 0.1072(2) 0.72597(12)
C25_4 C 0.4186(2) 0.0493(2) 0.44932(14)
H12_4 H 0.4141 0.1031 0.4639
C26_4 C 0.2894(2) 0.0466(2) 0.90573(13)
C31_4 C 0.2582(2) 0.0640(2) 0.51029(13)
C36_4 C 0.2315(3) 0.1326(2) 0.47785(15)
H18_4 H 0.2520 0.1410 0.4453
C39_4 C 0.2628(3) 0.0638(2) 0.95526(14)
C40_4 C 0.1672(2) 0.1068(2) 0.57690(15)
H20_4 H 0.1460 0.0986 0.6093
C42_4 C 0.3471(3) 0.1013(2) 0.88454(16)
H22_4 H 0.3647 0.0911 0.8513
C44_4 C 0.3526(3) 0.1846(3) 0.96510(18)
H24_4 H 0.3761 0.2309 0.9850
C47_4 C 0.0225(3) 0.2485(2) 0.70223(18)
H27_4 H 0.0350 0.3022 0.6898
C49_4 C 0.1426(3) 0.1757(2) 0.54497(17)
H28_4 H 0.1045 0.2156 0.5563
C50_4 C 0.2954(3) 0.1325(2) 0.98619(16)
C52_4 C 0.1732(3) 0.1874(2) 0.49624(17)
H30_4 H 0.1535 0.2340 0.4754
C53_4 C 0.3769(3) 0.1705(3) 0.91440(18)
H31_4 H 0.4141 0.2089 0.9007
N1_4 N 0.10202(19) 0.82237(18) 0.09956(11)
C6_4 C 0.0289(2) 0.7867(2) 0.11777(12)
C22_4 C 0.1582(3) 0.9894(2) 0.00816(14)
C23_4 C 0.1537(2) 0.9108(2) 0.03176(14)
H11_4 H 0.1810 0.8638 0.0189
C24_4 C 0.1076(3) 0.9034(2) 0.07508(14)
C28_4 C 0.1661(2) 0.7630(2) 0.10752(14)
H14_4 H 0.2220 0.7716 0.0986
C33_4 C 0.0546(2) 0.7053(2) 0.13526(12)
H32_4 H 0.0133 0.5963 0.1660
C57_4 C 0.0670(3) 0.9730(2) 0.09428(16)
H35_4 H 0.0375 0.9678 0.1239
C1_4 C 0.55355(19) 0.60703(18) 0.75091(11)
C2_4 C 0.4657(2) 0.59502(19) 0.75156(14)
H1_4 H 0.4453 0.5423 0.7610
C3_4 C 0.4064(2) 0.6611(2) 0.73819(14)
H2_4 H 0.3475 0.6524 0.7407
C4_4 C 0.58460(19) 0.68795(18) 0.73725(11)
C5_4 C 0.6750(2) 0.7044(2) 0.73771(14)
H3_4 H 0.7155 0.6615 0.7477
C9_4 C 0.3647(2) 0.80183(19) 0.70020(13)
N2_4 N 0.25779(17) 0.97339(16) 0.58055(10)
N3_4 N 0.31247(19) 0.99497(17) 0.50434(10)
C11_4 C 0.52375(19) 0.75409(19) 0.72126(12)
O5_4 O 0.30391(14) 0.81945(14) 0.72713(9)
N6_4 N 0.25142(19) 0.97170(18) 0.88508(11)
C15_4 C 0.61580(19) 0.53266(18) 0.76121(12)
C16_4 C 0.3087(2) 0.9436(2) 0.54738(13)
H7_4 H 0.3392 0.8926 0.5527
C17_4 C 0.4330(2) 0.73812(19) 0.72155(12)
C18_4 C 0.3751(2) 0.9026(2) 0.44308(13)
H8_4 H 0.3412 0.8581 0.4533
N7_4 N 0.43780(19) 0.80645(18) 0.38411(11)
C20_4 C 0.2031(3) 0.9454(2) 0.92032(14)
H10_4 H 0.1700 0.8958 0.9165
O8_4 O 0.36725(16) 0.83177(16) 0.65467(10)
N8_4 N 0.2060(2) 0.99806(18) 0.96350(12)
C27_4 C 0.3676(2) 0.7562(2) 0.36780(14)
H13_4 H 0.3102 0.7732 0.3690
C29_4 C 0.3685(2) 0.9829(2) 0.46437(13)
C30_4 C 0.4834(2) 0.9552(2) 0.39074(14)
H15_4 H 0.5222 0.9460 0.3661
C32_4 C 0.5565(2) 0.8336(2) 0.70700(14)
H16_4 H 0.5177 0.8776 0.6967
C34_4 C 0.4797(2) 0.6819(2) 0.35508(12)
H17_4 H 0.0089 0.9640 0.7619
C37_4 C 0.4329(2) 0.8893(2) 0.40627(13)
C38_4 C 0.6008(2) 0.7775(3) 0.38521(15)
H19_4 H 0.6219 0.8292 0.3994
C41_4 C 0.6249(3) 0.6374(3) 0.35185(16)
H21_4 H 0.6647 0.5964 0.3440
C45_4 C 0.5367(2) 0.6195(2) 0.34279(15)
H25_4 H 0.5163 0.5674 0.3289
C51_4 C 0.5116(2) 0.7601(2) 0.37598(13)
C59_4 C 0.7033(2) 0.7817(2) 0.72371(16)
H37_4 H 0.7630 0.7915 0.7245
C63_4 C 0.6439(2) 0.8469(2) 0.70806(16)
H39_4 H 0.6641 0.8995 0.6983
C64_4 C 0.6559(3) 0.7151(3) 0.37236(16)
H40_4 H 0.7159 0.7250 0.3775
C12_4 C 0.9874(2) 0.0880(2) 0.74041(13)
C35_4 C 0.9664(2) 0.0064(2) 0.75810(15)
C48_4 C 0.9218(2) 0.1519(2) 0.73507(15)
C56_4 C 0.8207(3) 0.0524(3) 0.7657(2)
H34_4 H 0.7654 0.0400 0.7745
C58_4 C 0.8385(3) 0.1313(3) 0.7494(2)
H36_4 H 0.7954 0.1730 0.7474
C60_4 C 0.9413(2) 0.2324(2) 0.71509(16)
C61_4 C 0.8693(3) 0.2977(2) 0.7054(2)
C55_3 C 0.1152(3) 0.0110(3) 0.2304(2)
H33_3 H 0.1286 0.0655 0.2197
C7_3 C 0.0557(2) 0.1835(3) 0.88002(14)
H4_3 H 0.0727 0.1291 0.8914
C8_3 C 0.1124(3) 0.2379(3) 0.86034(16)
H5_3 H 0.1692 0.2199 0.8580
C54_3 C 0.0035(2) 0.3492(2) 0.84542(14)
C62_3 C 0.0873(2) 0.3202(3) 0.84360(16)
H38_3 H 0.1281 0.3559 0.8310
C43_3 C 0.9291(3) 0.9497(3) 0.93101(18)
H23_3 H 0.9573 0.9029 0.9188
C46_3 C 0.8838(3) 0.9412(2) 0.97418(17)
H26_3 H 0.8816 0.8889 0.9912
H29_3 H 0.7210 0.8575 0.9802
C43_4 C 0.0709(3) 0.0503(3) 0.06899(18)
H23_4 H 0.0427 0.0971 0.0812
C46_4 C 0.1162(3) 0.0588(2) 0.02582(17)
H26_4 H 0.1184 0.1111 0.0088
H29_4 H 0.2790 0.1425 0.0198
C7_4 C 0.9443(2) 0.8165(3) 0.11998(14)
H4_4 H 0.9273 0.8709 0.1086
C8_4 C 0.8876(3) 0.7621(3) 0.13966(16)
H5_4 H 0.8308 0.7801 0.1420
C54_4 C 0.9965(2) 0.6508(2) 0.15458(14)
C62_4 C 0.9127(2) 0.6798(3) 0.15640(16)
H38_4 H 0.8719 0.6441 0.1690
C55_4 C 0.8848(3) 0.9890(3) 0.7696(2)
H33_4 H 0.8714 0.9345 0.7803
loop_
_geom_bond_atom_site_label_1
_geom_bond_atom_site_label_2
_geom_bond_site_symmetry_1
_geom_bond_site_symmetry_2
Cd6 O3 1_555 1_555
C1 C2 1_555 1_555
C2 H1 1_555 1_555
C3 C2 1_555 1_555
H2 C3 1_555 1_555
C4 C1 1_555 1_555
C5 C4 1_555 1_555
H3 C5 1_555 1_555
N1 C6 1_555 1_555
Cd1 O4 1_555 1_555
Cd2 O5 1_555 1_555
C9 O5 1_555 1_555
O4 C10 1_555 1_555
N2 Cd1 1_555 1_555
C10 O6 1_555 1_555
N3 C16 1_555 1_555
N5 C28 1_555 1_555
C11 C4 1_555 1_555
O5 Cd1 1_555 1_555
N6 Cd2 1_555 1_555
O6 Cd2 1_555 1_555
C13 N2 1_555 1_555
C14 H6 1_555 1_555
C15 C1 1_555 1_555
C16 N2 1_555 1_555
H7 C16 1_555 1_555
C17 C3 1_555 1_555
O7 C15 1_555 1_555
C20 N6 1_555 1_555
H10 C20 1_555 1_555
C21 C10 1_555 1_555
C22 N8 1_555 1_555
O8 Cd1 1_555 1_555
N8 C20 1_555 1_555
C23 C22 1_555 1_555
H11 C23 1_555 1_555
C24 N1 1_555 1_555
C26 N6 1_555 1_555
C28 N1 1_555 1_555
H14 C28 1_555 1_555
C31 N3 1_555 1_555
C32 C11 1_555 1_555
H16 C32 1_555 1_555
C33 C6 1_555 1_555
C39 N8 1_555 1_555
C40 C13 1_555 1_555
H20 C40 1_555 1_555
C42 C26 1_555 1_555
H22 C42 1_555 1_555
C43 H23 1_555 1_555
C44 H24 1_555 1_555
C46 C22 1_555 1_555
H26 C46 1_555 1_555
C47 C14 1_555 1_555
H27 C47 1_555 1_555
C49 C40 1_555 1_555
H28 C49 1_555 1_555
C50 C39 1_555 1_555
H29 C50 1_555 1_555
C53 C42 1_555 1_555
H31 C53 1_555 1_555
C57 C24 1_555 1_555
H35 C57 1_555 1_555
C59 C5 1_555 1_555
H37 C59 1_555 1_555
C63 C32 1_555 1_555
H39 C63 1_555 1_555
O9 Cd2 1_555 1_555
O10 Cd2 1_555 1_555
Cd4 N5 1_555 1_555
O11 Cd2 1_555 1_555
N9 Cd2 1_555 1_555
N10 Cd1 1_555 1_555
O12 Cd1 1_555 1_555
C9 C17 1_555 1_555
C9 O8 1_555 1_555
N5 C33 1_555 1_555
C11 C17 1_555 1_555
C13 C31 1_555 1_555
C14 C21 1_555 1_555
C23 C24 1_555 1_555
C26 C39 1_555 1_555
C43 C46 1_555 1_555
C43 C57 1_555 1_555
C44 C50 1_555 1_555
C44 C53 1_555 1_555
C59 C63 1_555 1_555
N4 C27 1_555 1_555
C18 H8 1_555 1_555
N7 C27 1_555 1_555
C19 H9 1_555 1_555
C25 C19 1_555 1_555
H12 C25 1_555 1_555
C27 H13 1_555 1_555
C30 C19 1_555 1_555
H15 C30 1_555 1_555
C34 N4 1_555 1_555
H18 C36 1_555 1_555
C37 C18 1_555 1_555
C38 H19 1_555 1_555
C41 H21 1_555 1_555
C45 C34 1_555 1_555
H25 C45 1_555 1_555
C51 N7 1_555 1_555
C52 C36 1_555 1_555
H30 C52 1_555 1_555
C64 C38 1_555 1_555
H40 C64 1_555 1_555
Cd7 N4 1_555 1_555
C18 C29 1_555 1_555
N7 C37 1_555 1_555
C25 C29 1_555 1_555
C30 C37 1_555 1_555
C34 C51 1_555 1_555
C38 C51 1_555 1_555
C41 C45 1_555 1_555
C41 C64 1_555 1_555
O1 C61 1_555 1_555
O2 C61 1_555 1_555
C7 H4 1_555 1_555
C8 C7 1_555 1_555
H5 C8 1_555 1_555
C35 C12 1_555 1_555
C48 C12 1_555 1_555
C55 C35 1_555 1_555
H33 C55 1_555 1_555
C56 C55 1_555 1_555
H34 C56 1_555 1_555
C58 C48 1_555 1_555
H36 C58 1_555 1_555
C61 C60 1_555 1_555
C62 C8 1_555 1_555
H38 C62 1_555 1_555
Cd6 O1 1_555 1_555
O2 Cd6 1_555 1_555
C48 C60 1_555 1_555
C54 C62 1_555 1_555
C56 C58 1_555 1_555
O9 C61_2 1_555 1_555
O10 C61_2 1_555 1_555
C35_2 C12_2 1_555 1_555
C48_2 C12_2 1_555 1_555
H34_2 C56_2 1_555 1_555
C58_2 C48_2 1_555 1_555
H36_2 C58_2 1_555 1_555
C61_2 C60_2 1_555 1_555
C48_2 C60_2 1_555 1_555
C56_2 C58_2 1_555 1_555
C1_2 C2_2 1_555 1_555
C2_2 H1_2 1_555 1_555
C3_2 C2_2 1_555 1_555
H2_2 C3_2 1_555 1_555
C4_2 C1_2 1_555 1_555
C5_2 C4_2 1_555 1_555
H3_2 C5_2 1_555 1_555
Cd6 O5_2 1_555 1_555
C9_2 O5_2 1_555 1_555
O11 C15_2 1_555 1_555
N2_2 Cd3 1_555 1_555
N3_2 C16_2 1_555 1_555
N4_2 C27_2 1_555 1_555
C11_2 C4_2 1_555 1_555
O5_2 Cd3 1_555 1_555
N6_2 Cd6 1_555 1_555
C15_2 C1_2 1_555 1_555
C16_2 N2_2 1_555 1_555
H7_2 C16_2 1_555 1_555
C17_2 C3_2 1_555 1_555
C18_2 H8_2 1_555 1_555
N7_2 C27_2 1_555 1_555
O12 C15_2 1_555 1_555
C20_2 N6_2 1_555 1_555
H10_2 C20_2 1_555 1_555
O8_2 Cd3 1_555 1_555
N8_2 C20_2 1_555 1_555
C27_2 H13_2 1_555 1_555
C29_2 N3_2 1_555 1_555
H15_2 C30_2 1_555 1_555
C32_2 C11_2 1_555 1_555
H16_2 C32_2 1_555 1_555
C34_2 N4_2 1_555 1_555
C37_2 C18_2 1_555 1_555
C38_2 H19_2 1_555 1_555
C41_2 H21_2 1_555 1_555
C45_2 C34_2 1_555 1_555
H25_2 C45_2 1_555 1_555
C51_2 N7_2 1_555 1_555
C59_2 C5_2 1_555 1_555
H37_2 C59_2 1_555 1_555
C63_2 C32_2 1_555 1_555
H39_2 C63_2 1_555 1_555
C64_2 C38_2 1_555 1_555
H40_2 C64_2 1_555 1_555
Cd7_2 N4_2 1_555 1_555
N9_2 Cd6 1_555 1_555
N10_2 Cd3 1_555 1_555
C9_2 C17_2 1_555 1_555
C9_2 O8_2 1_555 1_555
C11_2 C17_2 1_555 1_555
C18_2 C29_2 1_555 1_555
N7_2 C37_2 1_555 1_555
C30_2 C37_2 1_555 1_555
C34_2 C51_2 1_555 1_555
C38_2 C51_2 1_555 1_555
C41_2 C45_2 1_555 1_555
C41_2 C64_2 1_555 1_555
C59_2 C63_2 1_555 1_555
N1_2 C6_2 1_555 1_555
N5_2 C28_2 1_555 1_555
C23_2 C22_2 1_555 1_555
H11_2 C23_2 1_555 1_555
C24_2 N1_2 1_555 1_555
C28_2 N1_2 1_555 1_555
H14_2 C28_2 1_555 1_555
C33_2 C6_2 1_555 1_555
C57_2 C24_2 1_555 1_555
H35_2 C57_2 1_555 1_555
Cd4_2 N5_2 1_555 1_555
N5_2 C33_2 1_555 1_555
C23_2 C24_2 1_555 1_555
O4_2 C10_2 1_555 1_555
C10_2 O6_2 1_555 1_555
C14_2 H6_2 1_555 1_555
C19_2 H9_2 1_555 1_555
C21_2 C10_2 1_555 1_555
C25_2 C19_2 1_555 1_555
H12_2 C25_2 1_555 1_555
C36_2 C31_2 1_555 1_555
H18_2 C36_2 1_555 1_555
C40_2 C13_2 1_555 1_555
H20_2 C40_2 1_555 1_555
C42_2 C26_2 1_555 1_555
H22_2 C42_2 1_555 1_555
C44_2 H24_2 1_555 1_555
C47_2 C14_2 1_555 1_555
H27_2 C47_2 1_555 1_555
C49_2 C40_2 1_555 1_555
H28_2 C49_2 1_555 1_555
C50_2 C39_2 1_555 1_555
C52_2 C36_2 1_555 1_555
H30_2 C52_2 1_555 1_555
C53_2 C42_2 1_555 1_555
H31_2 C53_2 1_555 1_555
C13_2 C31_2 1_555 1_555
C14_2 C21_2 1_555 1_555
C26_2 C39_2 1_555 1_555
C44_2 C50_2 1_555 1_555
C44_2 C53_2 1_555 1_555
C49_2 C52_2 1_555 1_555
O1_2 C61_3 1_555 1_555
O2_2 C61_3 1_555 1_555
C7_2 H4_2 1_555 1_555
C8_2 C7_2 1_555 1_555
H5_2 C8_2 1_555 1_555
C35_3 C12_3 1_555 1_555
C48_3 C12_3 1_555 1_555
C55_2 C35_3 1_555 1_555
H33_2 C55_2 1_555 1_555
C56_3 C55_2 1_555 1_555
H34_3 C56_3 1_555 1_555
C58_3 C48_3 1_555 1_555
H36_3 C58_3 1_555 1_555
C61_3 C60_3 1_555 1_555
C62_2 C8_2 1_555 1_555
H38_2 C62_2 1_555 1_555
Cd7 O1_2 1_555 1_555
O2_2 Cd7 1_555 1_555
C48_3 C60_3 1_555 1_555
C54_2 C62_2 1_555 1_555
C56_3 C58_3 1_555 1_555
N9_2 C27_3 1_555 1_555
C18_3 H8_3 1_555 1_555
N7_3 C27_3 1_555 1_555
C19_3 H9_3 1_555 1_555
C25_3 C19_3 1_555 1_555
H12_3 C25_3 1_555 1_555
C27_3 H13_3 1_555 1_555
C30_3 C19_3 1_555 1_555
H15_3 C30_3 1_555 1_555
C34_3 N9_2 1_555 1_555
H18_3 C36_3 1_555 1_555
C37_3 C18_3 1_555 1_555
C38_3 H19_3 1_555 1_555
C41_3 H21_3 1_555 1_555
C45_3 C34_3 1_555 1_555
H25_3 C45_3 1_555 1_555
C51_3 N7_3 1_555 1_555
C52_3 C36_3 1_555 1_555
H30_3 C52_3 1_555 1_555
C64_3 C38_3 1_555 1_555
H40_3 C64_3 1_555 1_555
C18_3 C29_3 1_555 1_555
N7_3 C37_3 1_555 1_555
C25_3 C29_3 1_555 1_555
C30_3 C37_3 1_555 1_555
C34_3 C51_3 1_555 1_555
C38_3 C51_3 1_555 1_555
C41_3 C45_3 1_555 1_555
C41_3 C64_3 1_555 1_555
C1_3 C2_3 1_555 1_555
C2_3 H1_3 1_555 1_555
C3_3 C2_3 1_555 1_555
H2_3 C3_3 1_555 1_555
C4_3 C1_3 1_555 1_555
C5_3 C4_3 1_555 1_555
H3_3 C5_3 1_555 1_555
N1_3 C6_3 1_555 1_555
Cd4_2 O4_3 1_555 1_555
Cd7_2 O5_3 1_555 1_555
C9_3 O5_3 1_555 1_555
O4_3 C10_3 1_555 1_555
N2_3 Cd4_2 1_555 1_555
C10_3 O6_3 1_555 1_555
N3_3 C16_3 1_555 1_555
N10_2 C28_3 1_555 1_555
C11_3 C4_3 1_555 1_555
O5_3 Cd4_2 1_555 1_555
N6_3 Cd7_2 1_555 1_555
O6_3 Cd7_2 1_555 1_555
C13_3 N2_3 1_555 1_555
C14_3 H6_3 1_555 1_555
C15_3 C1_3 1_555 1_555
C16_3 N2_3 1_555 1_555
H7_3 C16_3 1_555 1_555
C17_3 C3_3 1_555 1_555
O7_2 C15_3 1_555 1_555
C20_3 N6_3 1_555 1_555
H10_3 C20_3 1_555 1_555
C21_3 C10_3 1_555 1_555
C22_3 N8_3 1_555 1_555
O8_3 Cd4_2 1_555 1_555
N8_3 C20_3 1_555 1_555
C23_3 C22_3 1_555 1_555
H11_3 C23_3 1_555 1_555
C24_3 N1_3 1_555 1_555
C26_3 N6_3 1_555 1_555
C28_3 N1_3 1_555 1_555
H14_3 C28_3 1_555 1_555
C31_3 N3_3 1_555 1_555
C32_3 C11_3 1_555 1_555
H16_3 C32_3 1_555 1_555
C33_3 C6_3 1_555 1_555
C39_3 N8_3 1_555 1_555
C40_3 C13_3 1_555 1_555
H20_3 C40_3 1_555 1_555
C42_3 C26_3 1_555 1_555
H22_3 C42_3 1_555 1_555
C43_2 H23_2 1_555 1_555
C44_3 H24_3 1_555 1_555
C46_2 C22_3 1_555 1_555
H26_2 C46_2 1_555 1_555
C47_3 C14_3 1_555 1_555
H27_3 C47_3 1_555 1_555
C49_3 C40_3 1_555 1_555
H28_3 C49_3 1_555 1_555
C50_3 C39_3 1_555 1_555
H29_2 C50_3 1_555 1_555
C53_3 C42_3 1_555 1_555
H31_3 C53_3 1_555 1_555
C57_3 C24_3 1_555 1_555
H35_3 C57_3 1_555 1_555
C59_3 C5_3 1_555 1_555
H37_3 C59_3 1_555 1_555
C63_3 C32_3 1_555 1_555
H39_3 C63_3 1_555 1_555
O9_2 Cd7_2 1_555 1_555
O10_2 Cd7_2 1_555 1_555
O11_2 Cd7_2 1_555 1_555
O12_2 Cd4_2 1_555 1_555
C9_3 C17_3 1_555 1_555
C9_3 O8_3 1_555 1_555
N10_2 C33_3 1_555 1_555
C11_3 C17_3 1_555 1_555
C13_3 C31_3 1_555 1_555
C14_3 C21_3 1_555 1_555
C23_3 C24_3 1_555 1_555
C26_3 C39_3 1_555 1_555
C43_2 C46_2 1_555 1_555
C43_2 C57_3 1_555 1_555
C44_3 C50_3 1_555 1_555
C44_3 C53_3 1_555 1_555
C59_3 C63_3 1_555 1_555
Cd7 O3_2 1_555 1_555
O4_4 C10_4 1_555 1_555
C10_4 O6_4 1_555 1_555
C14_4 H6_4 1_555 1_555
C19_4 H9_4 1_555 1_555
C21_4 C10_4 1_555 1_555
C25_4 C19_4 1_555 1_555
H12_4 C25_4 1_555 1_555
C36_4 C31_4 1_555 1_555
H18_4 C36_4 1_555 1_555
C40_4 C13_4 1_555 1_555
H20_4 C40_4 1_555 1_555
C42_4 C26_4 1_555 1_555
H22_4 C42_4 1_555 1_555
C44_4 H24_4 1_555 1_555
C47_4 C14_4 1_555 1_555
H27_4 C47_4 1_555 1_555
C49_4 C40_4 1_555 1_555
H28_4 C49_4 1_555 1_555
C50_4 C39_4 1_555 1_555
C52_4 C36_4 1_555 1_555
H30_4 C52_4 1_555 1_555
C53_4 C42_4 1_555 1_555
H31_4 C53_4 1_555 1_555
C13_4 C31_4 1_555 1_555
C14_4 C21_4 1_555 1_555
C26_4 C39_4 1_555 1_555
C44_4 C50_4 1_555 1_555
C44_4 C53_4 1_555 1_555
C49_4 C52_4 1_555 1_555
N1_4 C6_4 1_555 1_555
N10 C28_4 1_555 1_555
C23_4 C22_4 1_555 1_555
H11_4 C23_4 1_555 1_555
C24_4 N1_4 1_555 1_555
C28_4 N1_4 1_555 1_555
H14_4 C28_4 1_555 1_555
C33_4 C6_4 1_555 1_555
C57_4 C24_4 1_555 1_555
H35_4 C57_4 1_555 1_555
N10 C33_4 1_555 1_555
C23_4 C24_4 1_555 1_555
C1_4 C2_4 1_555 1_555
C2_4 H1_4 1_555 1_555
C3_4 C2_4 1_555 1_555
H2_4 C3_4 1_555 1_555
C4_4 C1_4 1_555 1_555
C5_4 C4_4 1_555 1_555
H3_4 C5_4 1_555 1_555
Cd7 O5_4 1_555 1_555
C9_4 O5_4 1_555 1_555
O11_2 C15_4 1_555 1_555
N2_4 Cd4 1_555 1_555
N3_4 C16_4 1_555 1_555
N9 C27_4 1_555 1_555
C11_4 C4_4 1_555 1_555
O5_4 Cd4 1_555 1_555
N6_4 Cd7 1_555 1_555
C15_4 C1_4 1_555 1_555
C16_4 N2_4 1_555 1_555
H7_4 C16_4 1_555 1_555
C17_4 C3_4 1_555 1_555
C18_4 H8_4 1_555 1_555
N7_4 C27_4 1_555 1_555
O12_2 C15_4 1_555 1_555
C20_4 N6_4 1_555 1_555
H10_4 C20_4 1_555 1_555
O8_4 Cd4 1_555 1_555
N8_4 C20_4 1_555 1_555
C27_4 H13_4 1_555 1_555
C29_4 N3_4 1_555 1_555
H15_4 C30_4 1_555 1_555
C32_4 C11_4 1_555 1_555
H16_4 C32_4 1_555 1_555
C34_4 N9 1_555 1_555
C37_4 C18_4 1_555 1_555
C38_4 H19_4 1_555 1_555
C41_4 H21_4 1_555 1_555
C45_4 C34_4 1_555 1_555
H25_4 C45_4 1_555 1_555
C51_4 N7_4 1_555 1_555
C59_4 C5_4 1_555 1_555
H37_4 C59_4 1_555 1_555
C63_4 C32_4 1_555 1_555
H39_4 C63_4 1_555 1_555
C64_4 C38_4 1_555 1_555
H40_4 C64_4 1_555 1_555
C9_4 C17_4 1_555 1_555
C9_4 O8_4 1_555 1_555
C11_4 C17_4 1_555 1_555
C18_4 C29_4 1_555 1_555
N7_4 C37_4 1_555 1_555
C30_4 C37_4 1_555 1_555
C34_4 C51_4 1_555 1_555
C38_4 C51_4 1_555 1_555
C41_4 C45_4 1_555 1_555
C41_4 C64_4 1_555 1_555
C59_4 C63_4 1_555 1_555
O9_2 C61_4 1_555 1_555
O10_2 C61_4 1_555 1_555
C35_4 C12_4 1_555 1_555
C48_4 C12_4 1_555 1_555
H34_4 C56_4 1_555 1_555
C58_4 C48_4 1_555 1_555
H36_4 C58_4 1_555 1_555
C61_4 C60_4 1_555 1_555
C48_4 C60_4 1_555 1_555
C56_4 C58_4 1_555 1_555
H33_3 C55_3 1_555 1_555
C7_3 H4_3 1_555 1_555
C8_3 C7_3 1_555 1_555
H5_3 C8_3 1_555 1_555
C62_3 C8_3 1_555 1_555
H38_3 C62_3 1_555 1_555
C54_3 C62_3 1_555 1_555
C43_3 H23_3 1_555 1_555
H26_3 C46_3 1_555 1_555
C43_3 C46_3 1_555 1_555
C43_4 H23_4 1_555 1_555
H26_4 C46_4 1_555 1_555
C43_4 C46_4 1_555 1_555
C7_4 H4_4 1_555 1_555
C8_4 C7_4 1_555 1_555
H5_4 C8_4 1_555 1_555
C62_4 C8_4 1_555 1_555
H38_4 C62_4 1_555 1_555
C54_4 C62_4 1_555 1_555
H33_4 C55_4 1_555 1_555

#END
