
###############################################################################
#
# This file contains modified crystal structure data generated from the
# MOF subset of the Cambridge Structural Database (CSD) v543 
# hosted by the Cambridge Crystallographic Data Centre (CCDC).
#
# This work is licensed under the Creative Commons
# Attribution-NonCommercial-ShareAlike 4.0 International License.
# To view a copy of this license, visit
# http://creativecommons.org/licenses/by-nc-sa/4.0/
# or send a letter to
# Creative Commons, PO Box 1866, Mountain View, CA 94042, USA.
#
# CIF created using the CSD Python API on 29 September 2022
# The structure has been converted into the P1 space group
# The structure has a 3D framework
# The original CSD entry HORZAS is in the monoclinic crystal system
# The framework has been calculated to contain at least 10.0% void space
# The void calculation uses a probe of radius 1.32A, grid spacing 0.4
#
###############################################################################

data_HORZAS
_chemical_formula_moiety         '(C248 H160 Cd8 N16 O32)n'
_symmetry_cell_setting           triclinic
_symmetry_space_group_name_H-M   'P 1'
_symmetry_Int_Tables_number      1
_space_group_name_Hall           'P 1'
loop_
_symmetry_equiv_pos_site_id
_symmetry_equiv_pos_as_xyz
1 x,y,z
_cell_length_a                   10.12520(10)
_cell_length_b                   27.6090(4)
_cell_length_c                   34.6528(3)
_cell_angle_alpha                90
_cell_angle_beta                 93.1140(10)
_cell_angle_gamma                90
_cell_volume                     9672.77
loop_
_atom_site_label
_atom_site_type_symbol
_atom_site_fract_x
_atom_site_fract_y
_atom_site_fract_z
N4 N 0.0100(3) 0.71779(10) 0.70571(8)
C35 C 0.0576(3) 0.67613(14) 0.64831(10)
H19 H 0.121178 0.664735 0.632163
C36 C 0.0970(3) 0.70278(13) 0.68084(11)
H20 H 0.186046 0.710329 0.685389
H21 H 0.035939 0.592713 0.603967
Cd3 Cd 0.07591(2) 0.72378(2) 0.25164(2)
Cd5 Cd 0.07591(2) 0.77622(2) 0.75164(2)
Cd2 Cd 0.42503(2) 0.81296(2) 0.27214(2)
O2 O 0.3545(2) 0.75212(10) 0.23389(8)
O3 O 0.1385(2) 0.78501(9) 0.29468(7)
N1 N 0.8832(3) 0.32626(10) 0.69559(8)
O4 O 0.8440(2) 0.71561(10) 0.26204(7)
O5 O 0.2591(2) 0.85080(10) 0.29879(8)
O6 O 0.9346(2) 0.66637(11) 0.21965(9)
O7 O 0.2347(2) 0.68448(11) 0.22086(8)
C1 C 0.7490(2) 0.56297(10) 0.50151(7)
C2 C 0.7036(3) 0.48789(10) 0.56655(8)
H1 H 0.640623 0.512328 0.567351
N2 N 0.6103(3) 0.35716(12) 0.28499(9)
N3 N 0.4904(3) 0.75693(10) 0.31898(8)
C3 C 0.3457(3) 0.70752(14) 0.22435(10)
C4 C 0.7217(3) 0.62706(10) 0.55084(8)
H2 H 0.644838 0.636821 0.537115
C5 C 0.7269(3) 0.45823(11) 0.59847(9)
H3 H 0.680113 0.463211 0.620486
C6 C 0.7647(3) 0.47478(11) 0.39409(9)
H4 H 0.811375 0.483096 0.372677
C7 C 0.6052(3) 0.42552(11) 0.42383(9)
H5 H 0.541892 0.401104 0.422367
C8 C 0.7215(3) 0.48766(10) 0.46164(7)
C9 C 0.7030(3) 0.59478(10) 0.46884(7)
C10 C 0.7628(3) 0.65106(11) 0.58444(9)
H6 H 0.710079 0.675460 0.593897
C11 C 0.7483(3) 0.51267(10) 0.49892(7)
C12 C 0.5837(3) 0.58863(10) 0.44931(8)
H7 H 0.530816 0.562485 0.455457
C13 C 0.7948(3) 0.58833(9) 0.53741(7)
C14 C 0.6715(3) 0.43704(11) 0.39133(9)
C15 C 0.7817(3) 0.63548(11) 0.45936(8)
H8 H 0.862228 0.640865 0.472854
C16 C 0.7729(3) 0.48168(10) 0.53340(8)
C17 C 0.8424(3) 0.38845(11) 0.63108(9)
C18 C 0.9122(3) 0.57565(11) 0.55779(8)
H9 H 0.961810 0.549816 0.549237
C19 C 0.6186(3) 0.66021(11) 0.41041(9)
C20 C 0.4411(3) 0.70566(13) 0.37272(11)
H10 H 0.377967 0.693492 0.388670
C21 C 0.8885(3) 0.41491(11) 0.56503(9)
H11 H 0.952059 0.390635 0.564352
C22 C 0.7874(3) 0.49964(11) 0.42851(9)
H12 H 0.847960 0.524982 0.429627
C23 C 0.9266(3) 0.66624(12) 0.63950(9)
C24 C 0.0319(3) 0.85893(15) 0.30747(13)
C25 C 0.7393(3) 0.66687(12) 0.43040(9)
H13 H 0.792538 0.692879 0.424180
C26 C 0.8802(3) 0.63942(11) 0.60407(9)
C27 C 0.8649(3) 0.44454(11) 0.53252(8)
H14 H 0.910870 0.439281 0.510382
C28 C 0.8201(3) 0.42090(11) 0.59789(8)
C29 C 0.6957(4) 0.42689(14) 0.32002(10)
H15 H 0.741694 0.456028 0.319560
C30 C 0.8826(3) 0.70950(13) 0.69749(9)
H16 H 0.821578 0.721520 0.714184
C31 C 0.6487(3) 0.40981(12) 0.35438(10)
C32 C 0.8365(3) 0.68281(14) 0.23541(12)
C33 C 0.6312(3) 0.44997(11) 0.45943(8)
H17 H 0.587795 0.440708 0.481220
C34 C 0.5911(3) 0.69481(13) 0.22900(12)
H18 H 0.600177 0.723095 0.243472
C37 C 0.9566(3) 0.60109(12) 0.59087(9)
C39 C 0.5820(3) 0.36582(13) 0.35235(10)
H22 H 0.547920 0.352664 0.374424
C40 C 0.8360(3) 0.68388(13) 0.66533(10)
H23 H 0.745829 0.678388 0.660860
C42 C 0.4047(3) 0.73667(13) 0.34204(11)
H25 H 0.315339 0.743588 0.337441
C43 C 0.5735(3) 0.69348(12) 0.37881(9)
C44 C 0.9094(3) 0.34379(12) 0.62822(11)
H26 H 0.941809 0.334295 0.604787
C45 C 0.1514(3) 0.82835(15) 0.29905(10)
C46 C 0.5391(3) 0.62056(13) 0.42040(9)
H27 H 0.456958 0.615792 0.407641
C47 C 0.9266(4) 0.31417(15) 0.66040(11)
H28 H 0.969853 0.284713 0.657817
C48 C 0.5665(4) 0.34172(13) 0.31760(11)
H29 H 0.521526 0.312332 0.317305
C49 C 0.7943(4) 0.39919(14) 0.66759(10)
H30 H 0.748352 0.427784 0.671498
C50 C 0.6630(3) 0.71286(13) 0.35411(10)
H31 H 0.752523 0.705437 0.357480
C51 C 0.4638(3) 0.67918(14) 0.21448(13)
C52 C 0.7021(4) 0.66718(15) 0.22126(14)
C53 C 0.6731(4) 0.39970(15) 0.28582(11)
H32 H 0.703333 0.411918 0.262893
C54 C 0.6184(3) 0.74342(14) 0.32428(11)
H33 H 0.679005 0.755028 0.307302
C56 C 0.4523(5) 0.63633(18) 0.1953(2)
H34 H 0.368407 0.623224 0.190418
C57 C 0.8167(4) 0.36651(14) 0.69744(10)
H35 H 0.781042 0.373892 0.720909
C58 C 0.6853(4) 0.62700(18) 0.1968(2)
H36 H 0.759805 0.610222 0.189619
C59 C 0.0493(4) 0.90422(18) 0.32698(18)
H37 H 0.133323 0.915564 0.334459
C61 C 0.5613(6) 0.6113(2) 0.1827(2)
H39 H 0.551667 0.585355 0.165712
Cd4 Cd 0.92409(2) 0.27622(2) 0.74836(2)
Cd7 Cd 0.57497(2) 0.31296(2) 0.22786(2)
O9 O 0.6532(2) 0.82149(9) 0.26327(7)
N5 N 0.1168(3) 0.67374(10) 0.30441(8)
O12 O 0.5639(2) 0.87207(10) 0.30316(10)
N6 N 0.3897(3) 0.85716(12) 0.21501(9)
N7 N 0.0100(3) 0.78221(10) 0.20571(8)
C38 C 0.6630(4) 0.85407(14) 0.28958(12)
C41 C 0.9073(3) 0.84295(14) 0.29651(11)
H24 H 0.895484 0.813072 0.284414
C55 C 0.7975(3) 0.87215(14) 0.30373(12)
C60 C 0.8129(4) 0.91503(18) 0.32299(19)
H38 H 0.739720 0.933695 0.328428
C62 C 0.9395(5) 0.9303(2) 0.33431(18)
H40 H 0.949858 0.959552 0.347437
O1 O 0.3468(2) 0.32149(9) 0.23673(7)
O8 O 0.4361(2) 0.37207(10) 0.19684(10)
C38_2 C 0.3370(4) 0.35407(14) 0.21042(12)
C41_2 C 0.0927(3) 0.34295(14) 0.20349(11)
H24_2 H 0.104516 0.313072 0.215586
C55_2 C 0.2025(3) 0.37215(14) 0.19627(12)
C60_2 C 0.1871(4) 0.41503(18) 0.17701(19)
H38_2 H 0.260280 0.433695 0.171572
C62_2 C 0.0605(5) 0.4303(2) 0.16569(18)
H40_2 H 0.050142 0.459552 0.152563
O10 O 0.1560(2) 0.21561(10) 0.23796(7)
O11 O 0.0654(2) 0.16637(11) 0.28035(9)
Cd1 Cd 0.92409(2) 0.22378(2) 0.24836(2)
O2_2 O 0.6455(2) 0.25212(10) 0.26611(8)
O3_2 O 0.8615(2) 0.28501(9) 0.20532(7)
O5_2 O 0.7409(2) 0.35080(10) 0.20121(8)
O7_2 O 0.7653(2) 0.18448(11) 0.27914(8)
N3_2 N 0.5096(3) 0.25693(10) 0.18102(8)
C3_2 C 0.6543(3) 0.20752(14) 0.27565(10)
C9_2 C 0.2970(3) 0.09478(10) 0.03116(7)
C11_2 C 0.2517(3) 0.01267(10) 0.00108(7)
C12_2 C 0.4163(3) 0.08863(10) 0.05069(8)
H7_2 H 0.469184 0.062485 0.044543
C15_2 C 0.2183(3) 0.13548(11) 0.04064(8)
H8_2 H 0.137772 0.140865 0.027146
C19_2 C 0.3814(3) 0.16021(11) 0.08959(9)
C20_2 C 0.5589(3) 0.20566(13) 0.12728(11)
H10_2 H 0.622033 0.193492 0.111330
H12_2 H 0.152040 0.024982 0.070373
C24_2 C 0.9681(3) 0.35893(15) 0.19253(13)
C25_2 C 0.2607(3) 0.16687(12) 0.06960(9)
H13_2 H 0.207462 0.192879 0.075820
C32_2 C 0.1635(3) 0.18281(14) 0.26459(12)
C34_2 C 0.4089(3) 0.19481(13) 0.27100(12)
H18_2 H 0.399823 0.223095 0.256528
C42_2 C 0.5953(3) 0.23667(13) 0.15796(11)
H25_2 H 0.684661 0.243588 0.162559
C43_2 C 0.4265(3) 0.19348(12) 0.12119(9)
C45_2 C 0.8486(3) 0.32835(15) 0.20095(10)
C46_2 C 0.4609(3) 0.12056(13) 0.07960(9)
H27_2 H 0.543042 0.115792 0.092359
C50_2 C 0.3370(3) 0.21286(13) 0.14589(10)
H31_2 H 0.247477 0.205437 0.142520
C51_2 C 0.5362(3) 0.17918(14) 0.28552(13)
C52_2 C 0.2979(4) 0.16718(15) 0.27874(14)
C54_2 C 0.3816(3) 0.24342(14) 0.17572(11)
H33_2 H 0.320995 0.255028 0.192698
C56_2 C 0.5477(5) 0.13633(18) 0.3047(2)
H34_2 H 0.631593 0.123224 0.309582
C58_2 C 0.3147(4) 0.12700(18) 0.3032(2)
H36_2 H 0.240195 0.110222 0.310381
C59_2 C 0.9507(4) 0.40422(18) 0.17302(18)
H37_2 H 0.866677 0.415564 0.165541
C61_2 C 0.4387(6) 0.1113(2) 0.3173(2)
H39_2 H 0.448333 0.085355 0.334288
N5_2 N 0.8832(3) 0.17374(10) 0.19559(8)
N7_2 N 0.9900(3) 0.28221(10) 0.29429(8)
C6_2 C 0.2353(3) 0.97478(11) 0.10591(9)
H4_2 H 0.188625 0.983096 0.127323
C7_2 C 0.3948(3) 0.92552(11) 0.07617(9)
H5_2 H 0.458108 0.901104 0.077633
C8_2 C 0.2785(3) 0.98766(10) 0.03836(7)
C14_2 C 0.3285(3) 0.93704(11) 0.10867(9)
C22_2 C 0.2126(3) 0.99964(11) 0.07149(9)
C29_2 C 0.3043(4) 0.92689(14) 0.17998(10)
H15_2 H 0.258306 0.956028 0.180440
C31_2 C 0.3513(3) 0.90981(12) 0.14562(10)
C33_2 C 0.3688(3) 0.94997(11) 0.04057(8)
H17_2 H 0.412205 0.940708 0.018780
C39_2 C 0.4180(3) 0.86582(13) 0.14765(10)
H22_2 H 0.452080 0.852664 0.125576
C48_2 C 0.4335(4) 0.84172(13) 0.18240(11)
H29_2 H 0.478474 0.812332 0.182695
C53_2 C 0.3269(4) 0.89970(15) 0.21418(11)
H32_2 H 0.296667 0.911918 0.237107
N1_2 N 0.1168(3) 0.82626(10) 0.80441(8)
C2_2 C 0.2964(3) 0.98789(10) 0.93345(8)
C5_2 C 0.2731(3) 0.95823(11) 0.90153(9)
H3_2 H 0.319887 0.963211 0.879514
C16_2 C 0.2271(3) 0.98168(10) 0.96660(8)
C17_2 C 0.1576(3) 0.88845(11) 0.86892(9)
C21_2 C 0.1115(3) 0.91491(11) 0.93497(9)
H11_2 H 0.047941 0.890635 0.935648
C27_2 C 0.1351(3) 0.94454(11) 0.96748(8)
H14_2 H 0.089130 0.939281 0.989618
C28_2 C 0.1799(3) 0.92090(11) 0.90211(8)
C44_2 C 0.0906(3) 0.84379(12) 0.87178(11)
H26_2 H 0.058191 0.834295 0.895213
C47_2 C 0.0734(4) 0.81417(15) 0.83960(11)
H28_2 H 0.030147 0.784713 0.842183
C49_2 C 0.2057(4) 0.89919(14) 0.83241(10)
H30_2 H 0.251648 0.927784 0.828502
C57_2 C 0.1833(4) 0.86651(14) 0.80256(10)
H35_2 H 0.218958 0.873892 0.779091
N4_2 N 0.9900(3) 0.21779(10) 0.79429(8)
C35_2 C 0.9424(3) 0.17613(14) 0.85169(10)
H19_2 H 0.878822 0.164735 0.867837
C36_2 C 0.9030(3) 0.20278(13) 0.81916(11)
H20_2 H 0.813954 0.210329 0.814611
H21_2 H 0.964061 0.092713 0.896033
O1_2 O 0.3468(2) 0.17851(9) 0.73673(7)
O8_2 O 0.4361(2) 0.12793(10) 0.69684(10)
C38_3 C 0.3370(4) 0.14593(14) 0.71042(12)
C41_3 C 0.0927(3) 0.15705(14) 0.70349(11)
H24_3 H 0.104516 0.186928 0.715586
C55_3 C 0.2025(3) 0.12785(14) 0.69627(12)
C60_3 C 0.1871(4) 0.08497(18) 0.67701(19)
H38_3 H 0.260280 0.066305 0.671572
C62_3 C 0.0605(5) 0.0697(2) 0.66569(18)
H40_3 H 0.050142 0.040448 0.652563
Cd6 Cd 0.57497(2) 0.18704(2) 0.72786(2)
O10_2 O 0.1560(2) 0.28439(10) 0.73796(7)
O11_2 O 0.0654(2) 0.33363(11) 0.78035(9)
O2_3 O 0.6455(2) 0.24788(10) 0.76611(8)
O3_3 O 0.8615(2) 0.21499(9) 0.70532(7)
O5_3 O 0.7409(2) 0.14920(10) 0.70121(8)
O7_3 O 0.7653(2) 0.31552(11) 0.77914(8)
C1_2 C 0.2510(2) 0.43703(10) 0.49849(7)
C2_3 C 0.2964(3) 0.51211(10) 0.43345(8)
H1_2 H 0.359377 0.487672 0.432649
N2_2 N 0.3897(3) 0.64284(12) 0.71501(9)
N3_3 N 0.5096(3) 0.24307(10) 0.68102(8)
C3_3 C 0.6543(3) 0.29248(14) 0.77565(10)
C4_2 C 0.2783(3) 0.37294(10) 0.44916(8)
H2_2 H 0.355162 0.363179 0.462885
C5_3 C 0.2731(3) 0.54177(11) 0.40153(9)
H3_3 H 0.319887 0.536789 0.379514
C6_3 C 0.2353(3) 0.52522(11) 0.60591(9)
H4_3 H 0.188625 0.516904 0.627323
C7_3 C 0.3948(3) 0.57448(11) 0.57617(9)
H5_3 H 0.458108 0.598896 0.577633
C8_3 C 0.2785(3) 0.51234(10) 0.53836(7)
C9_3 C 0.2970(3) 0.40522(10) 0.53116(7)
C10_2 C 0.2372(3) 0.34894(11) 0.41556(9)
H6_2 H 0.289921 0.324540 0.406103
C11_3 C 0.2517(3) 0.48733(10) 0.50108(7)
C12_3 C 0.4163(3) 0.41137(10) 0.55069(8)
H7_3 H 0.469184 0.437515 0.544543
C13_2 C 0.2052(3) 0.41167(9) 0.46259(7)
C14_3 C 0.3285(3) 0.56296(11) 0.60867(9)
C15_3 C 0.2183(3) 0.36452(11) 0.54064(8)
H8_3 H 0.137772 0.359135 0.527146
C16_3 C 0.2271(3) 0.51832(10) 0.46660(8)
C17_3 C 0.1576(3) 0.61155(11) 0.36892(9)
C18_2 C 0.0878(3) 0.42435(11) 0.44221(8)
H9_2 H 0.038190 0.450184 0.450763
C19_3 C 0.3814(3) 0.33979(11) 0.58959(9)
C20_3 C 0.5589(3) 0.29434(13) 0.62728(11)
H10_3 H 0.622033 0.306508 0.611330
C21_3 C 0.1115(3) 0.58509(11) 0.43497(9)
H11_3 H 0.047941 0.609365 0.435648
C22_3 C 0.2126(3) 0.50036(11) 0.57149(9)
H12_3 H 0.152040 0.475018 0.570373
C23_2 C 0.0734(3) 0.33376(12) 0.36050(9)
C24_3 C 0.9681(3) 0.14107(15) 0.69253(13)
C25_3 C 0.2607(3) 0.33313(12) 0.56960(9)
H13_3 H 0.207462 0.307121 0.575820
C26_2 C 0.1198(3) 0.36058(11) 0.39593(9)
C27_3 C 0.1351(3) 0.55546(11) 0.46748(8)
H14_3 H 0.089130 0.560719 0.489618
C28_3 C 0.1799(3) 0.57910(11) 0.40211(8)
C29_3 C 0.3043(4) 0.57311(14) 0.67998(10)
H15_3 H 0.258306 0.543972 0.680440
C30_2 C 0.1174(3) 0.29050(13) 0.30251(9)
H16_2 H 0.178422 0.278480 0.285816
C31_3 C 0.3513(3) 0.59019(12) 0.64562(10)
C32_3 C 0.1635(3) 0.31719(14) 0.76459(12)
C33_3 C 0.3688(3) 0.55003(11) 0.54057(8)
H17_3 H 0.412205 0.559292 0.518780
C34_3 C 0.4089(3) 0.30519(13) 0.77100(12)
H18_3 H 0.399823 0.276905 0.756528
C37_2 C 0.0434(3) 0.39891(12) 0.40913(9)
C39_3 C 0.4180(3) 0.63418(13) 0.64765(10)
H22_3 H 0.452080 0.647336 0.625576
C40_2 C 0.1640(3) 0.31612(13) 0.33467(10)
H23_2 H 0.254171 0.321612 0.339140
C42_3 C 0.5953(3) 0.26333(13) 0.65796(11)
H25_3 H 0.684661 0.256412 0.662559
C43_3 C 0.4265(3) 0.30652(12) 0.62119(9)
C44_3 C 0.0906(3) 0.65621(12) 0.37178(11)
H26_3 H 0.058191 0.665705 0.395213
C45_3 C 0.8486(3) 0.17165(15) 0.70095(10)
C46_3 C 0.4609(3) 0.37944(13) 0.57960(9)
H27_3 H 0.543042 0.384208 0.592359
C47_3 C 0.0734(4) 0.68583(15) 0.33960(11)
H28_3 H 0.030147 0.715287 0.342183
C48_3 C 0.4335(4) 0.65828(13) 0.68240(11)
H29_3 H 0.478474 0.687668 0.682695
C49_3 C 0.2057(4) 0.60081(14) 0.33241(10)
H30_3 H 0.251648 0.572216 0.328502
C50_3 C 0.3370(3) 0.28714(13) 0.64589(10)
H31_3 H 0.247477 0.294563 0.642520
C51_3 C 0.5362(3) 0.32082(14) 0.78552(13)
C52_3 C 0.2979(4) 0.33282(15) 0.77874(14)
C53_3 C 0.3269(4) 0.60030(15) 0.71418(11)
H32_3 H 0.296667 0.588082 0.737107
C54_3 C 0.3816(3) 0.25658(14) 0.67572(11)
H33_3 H 0.320995 0.244972 0.692698
C56_3 C 0.5477(5) 0.36367(18) 0.8047(2)
H34_3 H 0.631593 0.376776 0.809582
C57_3 C 0.1833(4) 0.63349(14) 0.30256(10)
H35_3 H 0.218958 0.626108 0.279091
C58_3 C 0.3147(4) 0.37300(18) 0.8032(2)
H36_3 H 0.240195 0.389778 0.810381
C59_3 C 0.9507(4) 0.09578(18) 0.67302(18)
H37_3 H 0.866677 0.084436 0.665541
C61_3 C 0.4387(6) 0.3887(2) 0.8173(2)
H39_3 H 0.448333 0.414645 0.834288
Cd7_2 Cd 0.42503(2) 0.68704(2) 0.77214(2)
N6_2 N 0.6103(3) 0.14284(12) 0.78499(9)
C35_3 C 0.9424(3) 0.32387(14) 0.35169(10)
H19_3 H 0.878822 0.335265 0.367837
C36_3 C 0.9030(3) 0.29722(13) 0.31916(11)
H20_3 H 0.813954 0.289671 0.314611
H21_3 H 0.964061 0.407287 0.396033
C35_4 C 0.0576(3) 0.82387(14) 0.14831(10)
H19_4 H 0.121178 0.835265 0.132163
C36_4 C 0.0970(3) 0.79722(13) 0.18084(11)
H20_4 H 0.186046 0.789671 0.185389
H21_4 H 0.035939 0.907287 0.103967
C2_4 C 0.7036(3) 0.01211(10) 0.06655(8)
C5_4 C 0.7269(3) 0.04177(11) 0.09847(9)
H3_4 H 0.680113 0.036789 0.120486
C16_4 C 0.7729(3) 0.01832(10) 0.03340(8)
C17_4 C 0.8424(3) 0.11155(11) 0.13108(9)
C21_4 C 0.8885(3) 0.08509(11) 0.06503(9)
H11_4 H 0.952059 0.109365 0.064352
C27_4 C 0.8649(3) 0.05546(11) 0.03252(8)
H14_4 H 0.910870 0.060719 0.010382
C28_4 C 0.8201(3) 0.07910(11) 0.09789(8)
C44_4 C 0.9094(3) 0.15621(12) 0.12822(11)
H26_4 H 0.941809 0.165705 0.104787
C47_4 C 0.9266(4) 0.18583(15) 0.16040(11)
H28_4 H 0.969853 0.215287 0.157817
C49_4 C 0.7943(4) 0.10081(14) 0.16759(10)
H30_4 H 0.748352 0.072216 0.171498
C57_4 C 0.8167(4) 0.13349(14) 0.19744(10)
H35_4 H 0.781042 0.126108 0.220909
C6_4 C 0.7647(3) 0.02522(11) 0.89409(9)
H4_4 H 0.811375 0.016904 0.872677
C7_4 C 0.6052(3) 0.07448(11) 0.92383(9)
H5_4 H 0.541892 0.098896 0.922367
C8_4 C 0.7215(3) 0.01234(10) 0.96164(7)
C14_4 C 0.6715(3) 0.06296(11) 0.89133(9)
C22_4 C 0.7874(3) 0.00036(11) 0.92851(9)
C29_4 C 0.6957(4) 0.07311(14) 0.82002(10)
H15_4 H 0.741694 0.043972 0.819560
C31_4 C 0.6487(3) 0.09019(12) 0.85438(10)
C33_4 C 0.6312(3) 0.05003(11) 0.95943(8)
H17_4 H 0.587795 0.059292 0.981220
C39_4 C 0.5820(3) 0.13418(13) 0.85235(10)
H22_4 H 0.547920 0.147336 0.874424
C48_4 C 0.5665(4) 0.15828(13) 0.81760(11)
H29_4 H 0.521526 0.187668 0.817305
C53_4 C 0.6731(4) 0.10030(15) 0.78582(11)
H32_4 H 0.703333 0.088082 0.762893
O2_4 O 0.3545(2) 0.74788(10) 0.73389(8)
O3_4 O 0.1385(2) 0.71499(9) 0.79468(7)
O4_2 O 0.8440(2) 0.78439(10) 0.76204(7)
O5_4 O 0.2591(2) 0.64920(10) 0.79879(8)
O6_2 O 0.9346(2) 0.83363(11) 0.71965(9)
O7_4 O 0.2347(2) 0.81552(11) 0.72086(8)
N3_4 N 0.4904(3) 0.74307(10) 0.81898(8)
C3_4 C 0.3457(3) 0.79248(14) 0.72435(10)
C9_4 C 0.7030(3) 0.90522(10) 0.96884(7)
C11_4 C 0.7483(3) 0.98733(10) 0.99892(7)
C12_4 C 0.5837(3) 0.91137(10) 0.94931(8)
H7_4 H 0.530816 0.937515 0.955457
C15_4 C 0.7817(3) 0.86452(11) 0.95936(8)
H8_4 H 0.862228 0.859135 0.972854
C19_4 C 0.6186(3) 0.83979(11) 0.91041(9)
C20_4 C 0.4411(3) 0.79434(13) 0.87272(11)
H10_4 H 0.377967 0.806508 0.888670
H12_4 H 0.847960 0.975018 0.929627
C24_4 C 0.0319(3) 0.64107(15) 0.80747(13)
C25_4 C 0.7393(3) 0.83313(12) 0.93040(9)
H13_4 H 0.792538 0.807121 0.924180
C32_4 C 0.8365(3) 0.81719(14) 0.73541(12)
C34_4 C 0.5911(3) 0.80519(13) 0.72900(12)
H18_4 H 0.600177 0.776905 0.743472
C42_4 C 0.4047(3) 0.76333(13) 0.84204(11)
H25_4 H 0.315339 0.756412 0.837441
C43_4 C 0.5735(3) 0.80652(12) 0.87881(9)
C45_4 C 0.1514(3) 0.67165(15) 0.79905(10)
C46_4 C 0.5391(3) 0.87944(13) 0.92040(9)
H27_4 H 0.456958 0.884208 0.907641
C50_4 C 0.6630(3) 0.78714(13) 0.85411(10)
H31_4 H 0.752523 0.794563 0.857480
C51_4 C 0.4638(3) 0.82082(14) 0.71448(13)
C52_4 C 0.7021(4) 0.83282(15) 0.72126(14)
C54_4 C 0.6184(3) 0.75658(14) 0.82428(11)
H33_4 H 0.679005 0.744972 0.807302
C56_4 C 0.4523(5) 0.86367(18) 0.6953(2)
H34_4 H 0.368407 0.876776 0.690418
C58_4 C 0.6853(4) 0.87300(18) 0.6968(2)
H36_4 H 0.759805 0.889778 0.689619
C59_4 C 0.0493(4) 0.59578(18) 0.82698(18)
H37_4 H 0.133323 0.584436 0.834459
C61_4 C 0.5613(6) 0.8887(2) 0.6827(2)
H39_4 H 0.551667 0.914645 0.665712
O9_2 O 0.6532(2) 0.67851(9) 0.76327(7)
O12_2 O 0.5639(2) 0.62793(10) 0.80316(10)
C38_4 C 0.6630(4) 0.64593(14) 0.78958(12)
C41_4 C 0.9073(3) 0.65705(14) 0.79651(11)
H24_4 H 0.895484 0.686928 0.784414
C55_4 C 0.7975(3) 0.62785(14) 0.80373(12)
C60_4 C 0.8129(4) 0.58497(18) 0.82299(19)
H38_4 H 0.739720 0.566305 0.828428
C62_4 C 0.9395(5) 0.5697(2) 0.83431(18)
H40_4 H 0.949858 0.540448 0.847437
C1_3 C 0.2510(2) 0.06297(10) 0.99849(7)
H1_3 H 0.359377 0.012328 0.932649
C4_3 C 0.2783(3) 0.12706(10) 0.94916(8)
H2_3 H 0.355162 0.136821 0.962885
C10_3 C 0.2372(3) 0.15106(11) 0.91556(9)
H6_3 H 0.289921 0.175460 0.906103
C13_3 C 0.2052(3) 0.08833(9) 0.96259(7)
C18_3 C 0.0878(3) 0.07565(11) 0.94221(8)
H9_3 H 0.038190 0.049816 0.950763
C23_3 C 0.0734(3) 0.16624(12) 0.86050(9)
C26_3 C 0.1198(3) 0.13942(11) 0.89593(9)
C30_3 C 0.1174(3) 0.20950(13) 0.80251(9)
H16_3 H 0.178422 0.221520 0.785816
C37_3 C 0.0434(3) 0.10109(12) 0.90913(9)
C40_3 C 0.1640(3) 0.18388(13) 0.83467(10)
H23_3 H 0.254171 0.178388 0.839140
C1_4 C 0.7490(2) 0.93703(10) 0.00151(7)
H1_4 H 0.640623 0.987672 0.067351
C4_4 C 0.7217(3) 0.87294(10) 0.05084(8)
H2_4 H 0.644838 0.863179 0.037115
C10_4 C 0.7628(3) 0.84894(11) 0.08444(9)
H6_4 H 0.710079 0.824540 0.093897
C13_4 C 0.7948(3) 0.91167(9) 0.03741(7)
C18_4 C 0.9122(3) 0.92435(11) 0.05779(8)
H9_4 H 0.961810 0.950184 0.049237
C23_4 C 0.9266(3) 0.83376(12) 0.13950(9)
C26_4 C 0.8802(3) 0.86058(11) 0.10407(9)
C30_4 C 0.8826(3) 0.79050(13) 0.19749(9)
H16_4 H 0.821578 0.778480 0.214184
C37_4 C 0.9566(3) 0.89891(12) 0.09087(9)
C40_4 C 0.8360(3) 0.81612(13) 0.16533(10)
H23_4 H 0.745829 0.821612 0.160860
loop_
_geom_bond_atom_site_label_1
_geom_bond_atom_site_label_2
_geom_bond_site_symmetry_1
_geom_bond_site_symmetry_2
H19 C35 1_555 1_555
C36 N4 1_555 1_555
H20 C36 1_555 1_555
Cd5 N4 1_555 1_555
C35 C36 1_555 1_555
Cd3 O3 1_555 1_555
Cd2 O2 1_555 1_555
O2 C3 1_555 1_555
O3 C45 1_555 1_555
N1 C47 1_555 1_555
O4 C32 1_555 1_555
O5 Cd2 1_555 1_555
O6 C32 1_555 1_555
O7 Cd3 1_555 1_555
C1 C9 1_555 1_555
C2 H1 1_555 1_555
N2 C48 1_555 1_555
N3 Cd2 1_555 1_555
C3 O7 1_555 1_555
C4 H2 1_555 1_555
C5 C2 1_555 1_555
H3 C5 1_555 1_555
C6 H4 1_555 1_555
C7 H5 1_555 1_555
C8 C11 1_555 1_555
C9 C12 1_555 1_555
C10 C4 1_555 1_555
H6 C10 1_555 1_555
C11 C1 1_555 1_555
C12 H7 1_555 1_555
C13 C1 1_555 1_555
C14 C6 1_555 1_555
C15 C9 1_555 1_555
H8 C15 1_555 1_555
C16 C2 1_555 1_555
C17 C28 1_555 1_555
C18 C13 1_555 1_555
H9 C18 1_555 1_555
C19 C25 1_555 1_555
C20 H10 1_555 1_555
C21 H11 1_555 1_555
C22 C6 1_555 1_555
H12 C22 1_555 1_555
C23 C26 1_555 1_555
C25 C15 1_555 1_555
H13 C25 1_555 1_555
C26 C10 1_555 1_555
C27 C16 1_555 1_555
H14 C27 1_555 1_555
C28 C5 1_555 1_555
C29 H15 1_555 1_555
C30 H16 1_555 1_555
C31 C14 1_555 1_555
C32 C52 1_555 1_555
C33 C7 1_555 1_555
H17 C33 1_555 1_555
C34 H18 1_555 1_555
C37 C18 1_555 1_555
C39 C31 1_555 1_555
H22 C39 1_555 1_555
C40 C23 1_555 1_555
H23 C40 1_555 1_555
C42 N3 1_555 1_555
H25 C42 1_555 1_555
C43 C19 1_555 1_555
C44 C17 1_555 1_555
H26 C44 1_555 1_555
C45 O5 1_555 1_555
C46 C12 1_555 1_555
H27 C46 1_555 1_555
C47 C44 1_555 1_555
H28 C47 1_555 1_555
C48 C39 1_555 1_555
H29 C48 1_555 1_555
C49 C17 1_555 1_555
H30 C49 1_555 1_555
C50 C43 1_555 1_555
H31 C50 1_555 1_555
C51 C3 1_555 1_555
C52 C34 1_555 1_555
C53 N2 1_555 1_555
H32 C53 1_555 1_555
C54 N3 1_555 1_555
H33 C54 1_555 1_555
C56 C51 1_555 1_555
H34 C56 1_555 1_555
C57 N1 1_555 1_555
H35 C57 1_555 1_555
C58 C52 1_555 1_555
H36 C58 1_555 1_555
C59 C24 1_555 1_555
H37 C59 1_555 1_555
C61 C56 1_555 1_555
H39 C61 1_555 1_555
Cd4 N1 1_555 1_555
Cd7 N2 1_555 1_555
O9 Cd2 1_555 1_555
N5 Cd3 1_555 1_555
O12 Cd2 1_555 1_555
N6 Cd2 1_555 1_555
N7 Cd3 1_555 1_555
C4 C13 1_555 1_555
C7 C14 1_555 1_555
C8 C22 1_555 1_555
C8 C33 1_555 1_555
C11 C16 1_555 1_555
C19 C46 1_555 1_555
C20 C42 1_555 1_555
C20 C43 1_555 1_555
C21 C27 1_555 1_555
C21 C28 1_555 1_555
C24 C45 1_555 1_555
C26 C37 1_555 1_555
C29 C31 1_555 1_555
C29 C53 1_555 1_555
C30 C40 1_555 1_555
C34 C51 1_555 1_555
C49 C57 1_555 1_555
C50 C54 1_555 1_555
C58 C61 1_555 1_555
O9 C38 1_555 1_555
O12 C38 1_555 1_555
C38 C55 1_555 1_555
C41 H24 1_555 1_555
C55 C41 1_555 1_555
C60 C55 1_555 1_555
H38 C60 1_555 1_555
H40 C62 1_555 1_555
C60 C62 1_555 1_555
O1 C38_2 1_555 1_555
O8 C38_2 1_555 1_555
C38_2 C55_2 1_555 1_555
C41_2 H24_2 1_555 1_555
C55_2 C41_2 1_555 1_555
C60_2 C55_2 1_555 1_555
H38_2 C60_2 1_555 1_555
H40_2 C62_2 1_555 1_555
Cd7 O1 1_555 1_555
O8 Cd7 1_555 1_555
C60_2 C62_2 1_555 1_555
Cd1 O3_2 1_555 1_555
Cd7 O2_2 1_555 1_555
O2_2 C3_2 1_555 1_555
O3_2 C45_2 1_555 1_555
O10 C32_2 1_555 1_555
O5_2 Cd7 1_555 1_555
O11 C32_2 1_555 1_555
O7_2 Cd1 1_555 1_555
N3_2 Cd7 1_555 1_555
C3_2 O7_2 1_555 1_555
C9_2 C12_2 1_555 1_555
C12_2 H7_2 1_555 1_555
C15_2 C9_2 1_555 1_555
H8_2 C15_2 1_555 1_555
C19_2 C25_2 1_555 1_555
C20_2 H10_2 1_555 1_555
C25_2 C15_2 1_555 1_555
H13_2 C25_2 1_555 1_555
C32_2 C52_2 1_555 1_555
C34_2 H18_2 1_555 1_555
C42_2 N3_2 1_555 1_555
H25_2 C42_2 1_555 1_555
C43_2 C19_2 1_555 1_555
C45_2 O5_2 1_555 1_555
C46_2 C12_2 1_555 1_555
H27_2 C46_2 1_555 1_555
C50_2 C43_2 1_555 1_555
H31_2 C50_2 1_555 1_555
C51_2 C3_2 1_555 1_555
C52_2 C34_2 1_555 1_555
C54_2 N3_2 1_555 1_555
H33_2 C54_2 1_555 1_555
C56_2 C51_2 1_555 1_555
H34_2 C56_2 1_555 1_555
C58_2 C52_2 1_555 1_555
H36_2 C58_2 1_555 1_555
C59_2 C24_2 1_555 1_555
H37_2 C59_2 1_555 1_555
C61_2 C56_2 1_555 1_555
H39_2 C61_2 1_555 1_555
N5_2 Cd1 1_555 1_555
N7_2 Cd1 1_555 1_555
C19_2 C46_2 1_555 1_555
C20_2 C42_2 1_555 1_555
C20_2 C43_2 1_555 1_555
C24_2 C45_2 1_555 1_555
C34_2 C51_2 1_555 1_555
C50_2 C54_2 1_555 1_555
C58_2 C61_2 1_555 1_555
N6 C48_2 1_555 1_555
C6_2 H4_2 1_555 1_555
C7_2 H5_2 1_555 1_555
C14_2 C6_2 1_555 1_555
C22_2 C6_2 1_555 1_555
C29_2 H15_2 1_555 1_555
C31_2 C14_2 1_555 1_555
C33_2 C7_2 1_555 1_555
H17_2 C33_2 1_555 1_555
C39_2 C31_2 1_555 1_555
H22_2 C39_2 1_555 1_555
C48_2 C39_2 1_555 1_555
H29_2 C48_2 1_555 1_555
C53_2 N6 1_555 1_555
H32_2 C53_2 1_555 1_555
C7_2 C14_2 1_555 1_555
C8_2 C22_2 1_555 1_555
C8_2 C33_2 1_555 1_555
C29_2 C31_2 1_555 1_555
C29_2 C53_2 1_555 1_555
N1_2 C47_2 1_555 1_555
C5_2 C2_2 1_555 1_555
H3_2 C5_2 1_555 1_555
C16_2 C2_2 1_555 1_555
C17_2 C28_2 1_555 1_555
C21_2 H11_2 1_555 1_555
C27_2 C16_2 1_555 1_555
H14_2 C27_2 1_555 1_555
C28_2 C5_2 1_555 1_555
C44_2 C17_2 1_555 1_555
H26_2 C44_2 1_555 1_555
C47_2 C44_2 1_555 1_555
H28_2 C47_2 1_555 1_555
C49_2 C17_2 1_555 1_555
H30_2 C49_2 1_555 1_555
C57_2 N1_2 1_555 1_555
H35_2 C57_2 1_555 1_555
Cd5 N1_2 1_555 1_555
C21_2 C27_2 1_555 1_555
C21_2 C28_2 1_555 1_555
C49_2 C57_2 1_555 1_555
H19_2 C35_2 1_555 1_555
C36_2 N4_2 1_555 1_555
H20_2 C36_2 1_555 1_555
Cd4 N4_2 1_555 1_555
C35_2 C36_2 1_555 1_555
O1_2 C38_3 1_555 1_555
O8_2 C38_3 1_555 1_555
C38_3 C55_3 1_555 1_555
C41_3 H24_3 1_555 1_555
C55_3 C41_3 1_555 1_555
C60_3 C55_3 1_555 1_555
H38_3 C60_3 1_555 1_555
H40_3 C62_3 1_555 1_555
Cd6 O1_2 1_555 1_555
O8_2 Cd6 1_555 1_555
C60_3 C62_3 1_555 1_555
Cd4 O3_3 1_555 1_555
Cd6 O2_3 1_555 1_555
O2_3 C3_3 1_555 1_555
O3_3 C45_3 1_555 1_555
N5 C47_3 1_555 1_555
O10_2 C32_3 1_555 1_555
O5_3 Cd6 1_555 1_555
O11_2 C32_3 1_555 1_555
O7_3 Cd4 1_555 1_555
C1_2 C9_3 1_555 1_555
C2_3 H1_2 1_555 1_555
N2_2 C48_3 1_555 1_555
N3_3 Cd6 1_555 1_555
C3_3 O7_3 1_555 1_555
C4_2 H2_2 1_555 1_555
C5_3 C2_3 1_555 1_555
H3_3 C5_3 1_555 1_555
C6_3 H4_3 1_555 1_555
C7_3 H5_3 1_555 1_555
C8_3 C11_3 1_555 1_555
C9_3 C12_3 1_555 1_555
C10_2 C4_2 1_555 1_555
H6_2 C10_2 1_555 1_555
C11_3 C1_2 1_555 1_555
C12_3 H7_3 1_555 1_555
C13_2 C1_2 1_555 1_555
C14_3 C6_3 1_555 1_555
C15_3 C9_3 1_555 1_555
H8_3 C15_3 1_555 1_555
C16_3 C2_3 1_555 1_555
C17_3 C28_3 1_555 1_555
C18_2 C13_2 1_555 1_555
H9_2 C18_2 1_555 1_555
C19_3 C25_3 1_555 1_555
C20_3 H10_3 1_555 1_555
C21_3 H11_3 1_555 1_555
C22_3 C6_3 1_555 1_555
H12_3 C22_3 1_555 1_555
C23_2 C26_2 1_555 1_555
C25_3 C15_3 1_555 1_555
H13_3 C25_3 1_555 1_555
C26_2 C10_2 1_555 1_555
C27_3 C16_3 1_555 1_555
H14_3 C27_3 1_555 1_555
C28_3 C5_3 1_555 1_555
C29_3 H15_3 1_555 1_555
C30_2 H16_2 1_555 1_555
C31_3 C14_3 1_555 1_555
C32_3 C52_3 1_555 1_555
C33_3 C7_3 1_555 1_555
H17_3 C33_3 1_555 1_555
C34_3 H18_3 1_555 1_555
C37_2 C18_2 1_555 1_555
C39_3 C31_3 1_555 1_555
H22_3 C39_3 1_555 1_555
C40_2 C23_2 1_555 1_555
H23_2 C40_2 1_555 1_555
C42_3 N3_3 1_555 1_555
H25_3 C42_3 1_555 1_555
C43_3 C19_3 1_555 1_555
C44_3 C17_3 1_555 1_555
H26_3 C44_3 1_555 1_555
C45_3 O5_3 1_555 1_555
C46_3 C12_3 1_555 1_555
H27_3 C46_3 1_555 1_555
C47_3 C44_3 1_555 1_555
H28_3 C47_3 1_555 1_555
C48_3 C39_3 1_555 1_555
H29_3 C48_3 1_555 1_555
C49_3 C17_3 1_555 1_555
H30_3 C49_3 1_555 1_555
C50_3 C43_3 1_555 1_555
H31_3 C50_3 1_555 1_555
C51_3 C3_3 1_555 1_555
C52_3 C34_3 1_555 1_555
C53_3 N2_2 1_555 1_555
H32_3 C53_3 1_555 1_555
C54_3 N3_3 1_555 1_555
H33_3 C54_3 1_555 1_555
C56_3 C51_3 1_555 1_555
H34_3 C56_3 1_555 1_555
C57_3 N5 1_555 1_555
H35_3 C57_3 1_555 1_555
C58_3 C52_3 1_555 1_555
H36_3 C58_3 1_555 1_555
C59_3 C24_3 1_555 1_555
H37_3 C59_3 1_555 1_555
C61_3 C56_3 1_555 1_555
H39_3 C61_3 1_555 1_555
Cd7_2 N2_2 1_555 1_555
N6_2 Cd6 1_555 1_555
C4_2 C13_2 1_555 1_555
C7_3 C14_3 1_555 1_555
C8_3 C22_3 1_555 1_555
C8_3 C33_3 1_555 1_555
C11_3 C16_3 1_555 1_555
C19_3 C46_3 1_555 1_555
C20_3 C42_3 1_555 1_555
C20_3 C43_3 1_555 1_555
C21_3 C27_3 1_555 1_555
C21_3 C28_3 1_555 1_555
C24_3 C45_3 1_555 1_555
C26_2 C37_2 1_555 1_555
C29_3 C31_3 1_555 1_555
C29_3 C53_3 1_555 1_555
C30_2 C40_2 1_555 1_555
C34_3 C51_3 1_555 1_555
C49_3 C57_3 1_555 1_555
C50_3 C54_3 1_555 1_555
C58_3 C61_3 1_555 1_555
H19_3 C35_3 1_555 1_555
C36_3 N7_2 1_555 1_555
H20_3 C36_3 1_555 1_555
C35_3 C36_3 1_555 1_555
H19_4 C35_4 1_555 1_555
C36_4 N7 1_555 1_555
H20_4 C36_4 1_555 1_555
C35_4 C36_4 1_555 1_555
N5_2 C47_4 1_555 1_555
C5_4 C2_4 1_555 1_555
H3_4 C5_4 1_555 1_555
C16_4 C2_4 1_555 1_555
C17_4 C28_4 1_555 1_555
C21_4 H11_4 1_555 1_555
C27_4 C16_4 1_555 1_555
H14_4 C27_4 1_555 1_555
C28_4 C5_4 1_555 1_555
C44_4 C17_4 1_555 1_555
H26_4 C44_4 1_555 1_555
C47_4 C44_4 1_555 1_555
H28_4 C47_4 1_555 1_555
C49_4 C17_4 1_555 1_555
H30_4 C49_4 1_555 1_555
C57_4 N5_2 1_555 1_555
H35_4 C57_4 1_555 1_555
C21_4 C27_4 1_555 1_555
C21_4 C28_4 1_555 1_555
C49_4 C57_4 1_555 1_555
N6_2 C48_4 1_555 1_555
C6_4 H4_4 1_555 1_555
C7_4 H5_4 1_555 1_555
C14_4 C6_4 1_555 1_555
C22_4 C6_4 1_555 1_555
C29_4 H15_4 1_555 1_555
C31_4 C14_4 1_555 1_555
C33_4 C7_4 1_555 1_555
H17_4 C33_4 1_555 1_555
C39_4 C31_4 1_555 1_555
H22_4 C39_4 1_555 1_555
C48_4 C39_4 1_555 1_555
H29_4 C48_4 1_555 1_555
C53_4 N6_2 1_555 1_555
H32_4 C53_4 1_555 1_555
C7_4 C14_4 1_555 1_555
C8_4 C22_4 1_555 1_555
C8_4 C33_4 1_555 1_555
C29_4 C31_4 1_555 1_555
C29_4 C53_4 1_555 1_555
Cd5 O3_4 1_555 1_555
Cd7_2 O2_4 1_555 1_555
O2_4 C3_4 1_555 1_555
O3_4 C45_4 1_555 1_555
O4_2 C32_4 1_555 1_555
O5_4 Cd7_2 1_555 1_555
O6_2 C32_4 1_555 1_555
O7_4 Cd5 1_555 1_555
N3_4 Cd7_2 1_555 1_555
C3_4 O7_4 1_555 1_555
C9_4 C12_4 1_555 1_555
C12_4 H7_4 1_555 1_555
C15_4 C9_4 1_555 1_555
H8_4 C15_4 1_555 1_555
C19_4 C25_4 1_555 1_555
C20_4 H10_4 1_555 1_555
C25_4 C15_4 1_555 1_555
H13_4 C25_4 1_555 1_555
C32_4 C52_4 1_555 1_555
C34_4 H18_4 1_555 1_555
C42_4 N3_4 1_555 1_555
H25_4 C42_4 1_555 1_555
C43_4 C19_4 1_555 1_555
C45_4 O5_4 1_555 1_555
C46_4 C12_4 1_555 1_555
H27_4 C46_4 1_555 1_555
C50_4 C43_4 1_555 1_555
H31_4 C50_4 1_555 1_555
C51_4 C3_4 1_555 1_555
C52_4 C34_4 1_555 1_555
C54_4 N3_4 1_555 1_555
H33_4 C54_4 1_555 1_555
C56_4 C51_4 1_555 1_555
H34_4 C56_4 1_555 1_555
C58_4 C52_4 1_555 1_555
H36_4 C58_4 1_555 1_555
C59_4 C24_4 1_555 1_555
H37_4 C59_4 1_555 1_555
C61_4 C56_4 1_555 1_555
H39_4 C61_4 1_555 1_555
O9_2 Cd7_2 1_555 1_555
O12_2 Cd7_2 1_555 1_555
C19_4 C46_4 1_555 1_555
C20_4 C42_4 1_555 1_555
C20_4 C43_4 1_555 1_555
C24_4 C45_4 1_555 1_555
C34_4 C51_4 1_555 1_555
C50_4 C54_4 1_555 1_555
C58_4 C61_4 1_555 1_555
O9_2 C38_4 1_555 1_555
O12_2 C38_4 1_555 1_555
C38_4 C55_4 1_555 1_555
C41_4 H24_4 1_555 1_555
C55_4 C41_4 1_555 1_555
C60_4 C55_4 1_555 1_555
H38_4 C60_4 1_555 1_555
H40_4 C62_4 1_555 1_555
C60_4 C62_4 1_555 1_555
C4_3 H2_3 1_555 1_555
C10_3 C4_3 1_555 1_555
H6_3 C10_3 1_555 1_555
C13_3 C1_3 1_555 1_555
C18_3 C13_3 1_555 1_555
H9_3 C18_3 1_555 1_555
C23_3 C26_3 1_555 1_555
C26_3 C10_3 1_555 1_555
C30_3 H16_3 1_555 1_555
C37_3 C18_3 1_555 1_555
C40_3 C23_3 1_555 1_555
H23_3 C40_3 1_555 1_555
C4_3 C13_3 1_555 1_555
C26_3 C37_3 1_555 1_555
C30_3 C40_3 1_555 1_555
C4_4 H2_4 1_555 1_555
C10_4 C4_4 1_555 1_555
H6_4 C10_4 1_555 1_555
C13_4 C1_4 1_555 1_555
C18_4 C13_4 1_555 1_555
H9_4 C18_4 1_555 1_555
C23_4 C26_4 1_555 1_555
C26_4 C10_4 1_555 1_555
C30_4 H16_4 1_555 1_555
C37_4 C18_4 1_555 1_555
C40_4 C23_4 1_555 1_555
H23_4 C40_4 1_555 1_555
C4_4 C13_4 1_555 1_555
C26_4 C37_4 1_555 1_555
C30_4 C40_4 1_555 1_555

#END
