
###############################################################################
#
# This file contains modified crystal structure data generated from the
# MOF subset of the Cambridge Structural Database (CSD) v543 
# hosted by the Cambridge Crystallographic Data Centre (CCDC).
#
# This work is licensed under the Creative Commons
# Attribution-NonCommercial-ShareAlike 4.0 International License.
# To view a copy of this license, visit
# http://creativecommons.org/licenses/by-nc-sa/4.0/
# or send a letter to
# Creative Commons, PO Box 1866, Mountain View, CA 94042, USA.
#
# CIF created using the CSD Python API on 29 September 2022
# The structure has been converted into the P1 space group
# The structure has a 3D framework
# The original CSD entry HOSMEK is in the triclinic crystal system
# The framework has been calculated to contain at least 10.0% void space
# The void calculation uses a probe of radius 1.32A, grid spacing 0.4
#
###############################################################################

data_HOSMEK
_chemical_formula_moiety         '(C46 H26 N4 O8)n'
_symmetry_cell_setting           triclinic
_symmetry_space_group_name_H-M   'P 1'
_symmetry_Int_Tables_number      1
_space_group_name_Hall           'P 1'
loop_
_symmetry_equiv_pos_site_id
_symmetry_equiv_pos_as_xyz
1 x,y,z
_cell_length_a                   10.1188(7)
_cell_length_b                   10.9420(11)
_cell_length_c                   11.7024(10)
_cell_angle_alpha                63.853(9)
_cell_angle_beta                 82.358(6)
_cell_angle_gamma                72.588(7)
_cell_volume                     1109.8
loop_
_atom_site_label
_atom_site_type_symbol
_atom_site_fract_x
_atom_site_fract_y
_atom_site_fract_z
N1 N 0.3780(5) 0.3761(5) 0.0652(5)
C3 C 0.1575(6) 0.5296(7) 0.0786(6)
C6 C 0.5983(6) 0.2121(7) 0.0778(6)
C9 C 0.0389(6) 0.6400(7) 0.0275(6)
C14 C 0.7213(6) 0.1585(7) 0.0292(6)
C17 C 0.8123(6) 0.0345(7) 0.1093(7)
H9 H 0.8964 0.0014 0.0754
C19 C 0.1714(7) 0.4698(7) 0.2114(6)
H10 H 0.2444 0.3907 0.2510
C21 C 0.0795(7) 0.5260(7) 0.2831(7)
H11 H 0.0931 0.4863 0.3705
C22 C 0.5765(8) 0.1414(8) 0.2065(7)
H12 H 0.4987 0.1785 0.2452
C23 C 0.6706(9) 0.0151(9) 0.2784(8)
O1 O 0.7380(4) 0.6856(5) 0.4582(4)
O2 O 0.1348(5) 0.8160(6) 0.2638(5)
O3 O 0.0294(4) 0.7100(5) 0.4445(4)
C1 C 0.1349(6) 0.7465(7) 0.3806(6)
C2 C 0.6383(6) 0.7028(7) 0.3931(6)
C4 C 0.4938(6) 0.4021(7) 0.8685(6)
H1 H 0.5737 0.3746 0.8265
C5 C 0.2699(6) 0.4813(7) 0.9999(6)
C7 C 0.4859(6) 0.3369(6) 0.9987(6)
C8 C 0.5043(6) 0.6087(7) 0.5932(6)
H2 H 0.5852 0.5785 0.6390
H3 H 0.0210 0.6802 0.9407
C10 C 0.2629(6) 0.6274(7) 0.5887(6)
H4 H 0.1814 0.6095 0.6309
C11 C 0.2671(6) 0.5502(7) 0.8688(6)
H5 H 0.1901 0.6226 0.8270
C13 C 0.3814(6) 0.5098(7) 0.7998(6)
H7 H 0.7434 0.2045 0.9439
C15 C 0.3819(6) 0.5834(6) 0.6575(6)
C16 C 0.3877(6) 0.7229(7) 0.3934(6)
H8 H 0.3895 0.7693 0.3051
C18 C 0.2641(6) 0.6987(7) 0.4562(6)
C20 C 0.5058(6) 0.6784(7) 0.4618(6)
O4 O 0.6458(5) 0.7394(6) 0.2758(5)
Zn4 Zn 0.87979(7) 0.75164(8) 0.33166(7)
N2 N 0.7876(6) 0.9609(6) 0.2293(6)
H13 H 0.6514 0.9664 0.3640
N3 N 0.9691(5) 0.6378(6) 0.2308(5)
C12 C 0.9480(6) 0.6893(7) 0.1068(7)
H6 H 0.8685 0.7618 0.0716
Zn1 Zn 0.12021(7) 0.24836(8) 0.66834(7)
O5 O 0.2620(4) 0.3144(5) 0.5418(4)
N4 N 0.2124(6) 0.0391(6) 0.7707(6)
N5 N 0.0309(5) 0.3622(6) 0.7692(5)
C12_2 C 0.0520(6) 0.3107(7) 0.8932(7)
H6_2 H 0.1315 0.2382 0.9284
H13_2 H 0.3486 0.0336 0.6360
O2_2 O 0.8652(5) 0.1840(6) 0.7362(5)
O3_2 O 0.9706(4) 0.2900(5) 0.5555(4)
C1_2 C 0.8651(6) 0.2535(7) 0.6194(6)
C2_2 C 0.3617(6) 0.2972(7) 0.6069(6)
C4_2 C 0.5062(6) 0.5979(7) 0.1315(6)
H1_2 H 0.4263 0.6254 0.1735
C5_2 C 0.7301(6) 0.5187(7) 0.0001(6)
C7_2 C 0.5141(6) 0.6631(6) 0.0013(6)
C8_2 C 0.4957(6) 0.3913(7) 0.4068(6)
H2_2 H 0.4148 0.4215 0.3610
H3_2 H 0.9790 0.3198 0.0593
C10_2 C 0.7371(6) 0.3726(7) 0.4113(6)
H4_2 H 0.8186 0.3905 0.3691
C11_2 C 0.7329(6) 0.4498(7) 0.1312(6)
H5_2 H 0.8099 0.3774 0.1730
C13_2 C 0.6186(6) 0.4902(7) 0.2002(6)
H7_2 H 0.2566 0.7955 0.0561
C15_2 C 0.6181(6) 0.4166(6) 0.3425(6)
C16_2 C 0.6123(6) 0.2771(7) 0.6066(6)
H8_2 H 0.6105 0.2307 0.6949
C18_2 C 0.7359(6) 0.3013(7) 0.5438(6)
C20_2 C 0.4942(6) 0.3216(7) 0.5382(6)
O4_2 O 0.3542(5) 0.2606(6) 0.7242(5)
N1_2 N 0.6220(5) 0.6239(5) 0.9348(5)
C3_2 C 0.8425(6) 0.4704(7) 0.9214(6)
C6_2 C 0.4017(6) 0.7879(7) 0.9222(6)
C9_2 C 0.9611(6) 0.3600(7) 0.9725(6)
C14_2 C 0.2787(6) 0.8415(7) 0.9708(6)
C17_2 C 0.1877(6) 0.9655(7) 0.8907(7)
H9_2 H 0.1036 0.9986 0.9246
C19_2 C 0.8286(7) 0.5302(7) 0.7886(6)
H10_2 H 0.7556 0.6093 0.7490
C21_2 C 0.9205(7) 0.4740(7) 0.7169(7)
H11_2 H 0.9069 0.5137 0.6295
C22_2 C 0.4235(8) 0.8586(8) 0.7935(7)
H12_2 H 0.5013 0.8215 0.7548
C23_2 C 0.3294(9) 0.9849(9) 0.7216(8)
loop_
_geom_bond_atom_site_label_1
_geom_bond_atom_site_label_2
_geom_bond_site_symmetry_1
_geom_bond_site_symmetry_2
C9 C3 1_555 1_555
C14 C6 1_555 1_555
C17 C14 1_555 1_555
H9 C17 1_555 1_555
C19 C3 1_555 1_555
H10 C19 1_555 1_555
H11 C21 1_555 1_555
C22 C6 1_555 1_555
H12 C22 1_555 1_555
C19 C21 1_555 1_555
C22 C23 1_555 1_555
O1 C2 1_555 1_555
O2 C1 1_555 1_555
O3 C1 1_555 1_555
C1 C18 1_555 1_555
C2 C20 1_555 1_555
C4 H1 1_555 1_555
C5 C11 1_555 1_555
C8 H2 1_555 1_555
C10 H4 1_555 1_555
C11 H5 1_555 1_555
C13 C4 1_555 1_555
C15 C8 1_555 1_555
C16 H8 1_555 1_555
C18 C10 1_555 1_555
C20 C8 1_555 1_555
O4 C2 1_555 1_555
Zn4 O1 1_555 1_555
C4 C7 1_555 1_555
C10 C15 1_555 1_555
C11 C13 1_555 1_555
C13 C15 1_555 1_555
C16 C18 1_555 1_555
C16 C20 1_555 1_555
Zn4 N2 1_555 1_555
N3 C12 1_555 1_555
H6 C12 1_555 1_555
Zn4 N3 1_555 1_555
O5 Zn1 1_555 1_555
N4 Zn1 1_555 1_555
N5 Zn1 1_555 1_555
N5 C12_2 1_555 1_555
H6_2 C12_2 1_555 1_555
O5 C2_2 1_555 1_555
O2_2 C1_2 1_555 1_555
O3_2 C1_2 1_555 1_555
C1_2 C18_2 1_555 1_555
C2_2 C20_2 1_555 1_555
C4_2 H1_2 1_555 1_555
C5_2 C11_2 1_555 1_555
C8_2 H2_2 1_555 1_555
C10_2 H4_2 1_555 1_555
C11_2 H5_2 1_555 1_555
C13_2 C4_2 1_555 1_555
C15_2 C8_2 1_555 1_555
C16_2 H8_2 1_555 1_555
C18_2 C10_2 1_555 1_555
C20_2 C8_2 1_555 1_555
O4_2 C2_2 1_555 1_555
C4_2 C7_2 1_555 1_555
C10_2 C15_2 1_555 1_555
C11_2 C13_2 1_555 1_555
C13_2 C15_2 1_555 1_555
C16_2 C18_2 1_555 1_555
C16_2 C20_2 1_555 1_555
C9_2 C3_2 1_555 1_555
C14_2 C6_2 1_555 1_555
C17_2 C14_2 1_555 1_555
H9_2 C17_2 1_555 1_555
C19_2 C3_2 1_555 1_555
H10_2 C19_2 1_555 1_555
H11_2 C21_2 1_555 1_555
C22_2 C6_2 1_555 1_555
H12_2 C22_2 1_555 1_555
C19_2 C21_2 1_555 1_555
C22_2 C23_2 1_555 1_555

#END
