
###############################################################################
#
# This file contains modified crystal structure data generated from the
# MOF subset of the Cambridge Structural Database (CSD) v543 
# hosted by the Cambridge Crystallographic Data Centre (CCDC).
#
# This work is licensed under the Creative Commons
# Attribution-NonCommercial-ShareAlike 4.0 International License.
# To view a copy of this license, visit
# http://creativecommons.org/licenses/by-nc-sa/4.0/
# or send a letter to
# Creative Commons, PO Box 1866, Mountain View, CA 94042, USA.
#
# CIF created using the CSD Python API on 29 September 2022
# The structure has been converted into the P1 space group
# The structure has a 3D framework
# The original CSD entry HOVGIK is in the monoclinic crystal system
# The framework has been calculated to contain at least 10.0% void space
# The void calculation uses a probe of radius 1.32A, grid spacing 0.4
#
###############################################################################

data_HOVGIK
_chemical_formula_moiety         '(C132 H84 Cd4 N36 O16)n'
_symmetry_cell_setting           triclinic
_symmetry_space_group_name_H-M   'P 1'
_symmetry_Int_Tables_number      1
_space_group_name_Hall           'P 1'
loop_
_symmetry_equiv_pos_site_id
_symmetry_equiv_pos_as_xyz
1 x,y,z
_cell_length_a                   11.1597(5)
_cell_length_b                   22.0750(9)
_cell_length_c                   17.4340(7)
_cell_angle_alpha                90
_cell_angle_beta                 99.424(4)
_cell_angle_gamma                90
_cell_volume                     4236.91
loop_
_atom_site_label
_atom_site_type_symbol
_atom_site_fract_x
_atom_site_fract_y
_atom_site_fract_z
N9 N 0.0327(5) 0.3858(2) 0.0450(3)
N2 N 0.0561(4) 0.4418(2) 0.8154(2)
H1 H 0.1159 0.4185 0.8335
N6 N 0.2562(4) 0.4535(2) 0.5721(2)
C4 C 0.1114(5) 0.4649(3) 0.6868(3)
C5 C 0.2090(5) 0.4250(3) 0.6961(3)
H4 H 0.2272 0.4017 0.7409
C6 C 0.0356(5) 0.4698(3) 0.7478(3)
C9 C 0.0882(5) 0.4984(3) 0.6185(3)
H6 H 0.0229 0.5251 0.6099
C13 C 0.1632(5) 0.4917(3) 0.5638(3)
H9 H 0.1479 0.5150 0.5188
C15 C 0.0357(5) 0.4037(3) 0.9718(3)
H10 H 0.1013 0.3916 0.9488
C19 C 0.2785(5) 0.4206(3) 0.6374(3)
H12 H 0.3435 0.3937 0.6437
Cd2 Cd 0.36763(3) 0.442613(19) 0.47128(2)
O1 O 0.3460(4) 0.5435(2) 0.4602(2)
O3 O 0.4970(4) 0.6039(2) 0.4446(3)
N3 N 0.4636(4) 0.4469(2) 0.3633(3)
N4 N 0.7251(4) 0.4356(2) 0.1466(3)
H2 H 0.7631 0.4068 0.1736
N5 N 0.5898(4) 0.5100(2) 0.1085(3)
N8 N 0.6666(4) 0.5033(2) 0.0560(3)
C1 C 0.5711(5) 0.4600(3) 0.2313(3)
C2 C 0.4125(5) 0.4813(3) 0.3031(3)
H3 H 0.3398 0.5009 0.3065
C3 C 0.6281(5) 0.4682(3) 0.1617(3)
C7 C 0.4627(5) 0.4889(3) 0.2371(3)
H5 H 0.4245 0.5131 0.1967
C11 C 0.5676(5) 0.4190(3) 0.3578(3)
H7 H 0.6042 0.3952 0.3991
C12 C 0.6234(5) 0.4241(3) 0.2926(3)
H8 H 0.6954 0.4036 0.2902
C14 C 0.8440(5) 0.4394(3) 0.0385(3)
C18 C 0.7464(5) 0.4589(3) 0.0806(3)
C20 C 0.3879(5) 0.5862(3) 0.4327(3)
C21 C 0.9375(5) 0.4040(3) 0.0767(3)
H13 H 0.9340 0.3922 0.1275
C22 C 0.1488(6) 0.7040(3) 0.2792(4)
C24 C 0.0888(6) 0.8085(3) 0.2370(4)
H14 H 0.1597 0.8228 0.2671
C25 C 0.0643(6) 0.7465(3) 0.2332(3)
C26 C 0.3503(6) 0.6743(3) 0.3367(4)
H15 H 0.4338 0.6806 0.3428
C27 C 0.0062(6) 0.8489(3) 0.1956(4)
H16 H 0.0240 0.8901 0.1974
C29 C 0.2732(6) 0.7122(3) 0.2884(4)
H18 H 0.3052 0.7434 0.2620
C30 C 0.3051(6) 0.6270(3) 0.3764(3)
C31 C 0.1036(6) 0.6556(3) 0.3163(4)
H19 H 0.0204 0.6484 0.3085
C32 C 0.1818(6) 0.6174(3) 0.3652(4)
H20 H 0.1503 0.5853 0.3903
Cd4 Cd 0.63237(3) 0.557387(19) 0.52872(2)
O5 O 0.1770(3) 0.42834(17) 0.3799(2)
O6 O 0.5030(4) 0.3961(2) 0.5554(3)
O7 O 0.2786(4) 0.34997(18) 0.4363(2)
C17 C 0.0997(5) 0.3295(3) 0.3475(3)
C23 C 0.1891(5) 0.3715(3) 0.3902(3)
C28 C 0.0429(6) 0.2258(3) 0.3122(4)
H17 H 0.0599 0.1845 0.3156
C33 C 0.1235(6) 0.2668(3) 0.3520(4)
H21 H 0.1946 0.2529 0.3822
O1_2 O 0.6540(4) 0.4565(2) 0.5398(2)
N3_2 N 0.5364(4) 0.5531(2) 0.6367(3)
N4_2 N 0.2749(4) 0.5644(2) 0.8534(3)
H2_2 H 0.2369 0.5932 0.8264
N5_2 N 0.4102(4) 0.4900(2) 0.8915(3)
N8_2 N 0.3334(4) 0.4967(2) 0.9440(3)
C1_2 C 0.4289(5) 0.5400(3) 0.7687(3)
C2_2 C 0.5875(5) 0.5187(3) 0.6969(3)
H3_2 H 0.6602 0.4991 0.6935
C3_2 C 0.3719(5) 0.5318(3) 0.8383(3)
C7_2 C 0.5373(5) 0.5111(3) 0.7629(3)
H5_2 H 0.5755 0.4869 0.8033
C11_2 C 0.4324(5) 0.5810(3) 0.6422(3)
H7_2 H 0.3958 0.6048 0.6009
C12_2 C 0.3766(5) 0.5759(3) 0.7074(3)
H8_2 H 0.3046 0.5964 0.7098
C14_2 C 0.1560(5) 0.5606(3) 0.9615(3)
C18_2 C 0.2536(5) 0.5411(3) 0.9194(3)
C20_2 C 0.6121(5) 0.4138(3) 0.5673(3)
C21_2 C 0.0625(5) 0.5960(3) 0.9233(3)
H13_2 H 0.0660 0.6078 0.8725
C22_2 C 0.8512(6) 0.2960(3) 0.7208(4)
C24_2 C 0.9112(6) 0.1915(3) 0.7630(4)
H14_2 H 0.8403 0.1772 0.7329
C25_2 C 0.9357(6) 0.2535(3) 0.7668(3)
C26_2 C 0.6497(6) 0.3257(3) 0.6633(4)
H15_2 H 0.5662 0.3194 0.6572
C27_2 C 0.9938(6) 0.1511(3) 0.8044(4)
H16_2 H 0.9760 0.1099 0.8026
C29_2 C 0.7268(6) 0.2878(3) 0.7116(4)
H18_2 H 0.6948 0.2566 0.7380
C30_2 C 0.6949(6) 0.3730(3) 0.6236(3)
C31_2 C 0.8964(6) 0.3444(3) 0.6837(4)
H19_2 H 0.9796 0.3516 0.6915
C32_2 C 0.8182(6) 0.3826(3) 0.6348(4)
H20_2 H 0.8497 0.4147 0.6097
O5_2 O 0.8230(3) 0.57166(17) 0.6201(2)
O7_2 O 0.7214(4) 0.65003(18) 0.5637(2)
N10 N 0.7438(4) 0.5465(2) 0.4279(2)
N2_2 N 0.9439(4) 0.5582(2) 0.1846(2)
H1_2 H 0.8841 0.5815 0.1665
C4_2 C 0.8886(5) 0.5351(3) 0.3132(3)
C5_2 C 0.7910(5) 0.5750(3) 0.3039(3)
H4_2 H 0.7728 0.5983 0.2591
C6_2 C 0.9644(5) 0.5302(3) 0.2522(3)
C9_2 C 0.9118(5) 0.5016(3) 0.3815(3)
H6_2 H 0.9771 0.4749 0.3901
C13_2 C 0.8368(5) 0.5083(3) 0.4362(3)
H9_2 H 0.8521 0.4850 0.4812
C15_2 C 0.9643(5) 0.5963(3) 0.0282(3)
H10_2 H 0.8987 0.6084 0.0512
C19_2 C 0.7215(5) 0.5794(3) 0.3626(3)
H12_2 H 0.6565 0.6063 0.3563
C17_2 C 0.9003(5) 0.6705(3) 0.6525(3)
C23_2 C 0.8109(5) 0.6285(3) 0.6098(3)
C28_2 C 0.9571(6) 0.7742(3) 0.6878(4)
H17_2 H 0.9401 0.8155 0.6844
C33_2 C 0.8765(6) 0.7332(3) 0.6480(4)
H21_2 H 0.8054 0.7471 0.6178
N1 N 0.9322(4) 0.5025(2) 0.7411(3)
N7 N 0.8823(4) 0.4954(2) 0.8067(3)
C8 C 0.9471(5) 0.4392(3) 0.9283(3)
C10 C 0.9605(5) 0.4583(2) 0.8495(3)
C16 C 0.8488(5) 0.4573(2) 0.9630(3)
H11 H 0.7873 0.4811 0.9358
O2 O 0.8230(3) 0.92834(17) 0.1201(2)
O4 O 0.7214(4) 0.84997(18) 0.0637(2)
C17_3 C 0.9003(5) 0.8295(3) 0.1525(3)
C23_3 C 0.8109(5) 0.8715(3) 0.1098(3)
C28_3 C 0.9571(6) 0.7258(3) 0.1878(4)
H17_3 H 0.9401 0.6845 0.1844
C33_3 C 0.8765(6) 0.7668(3) 0.1480(4)
H21_3 H 0.8054 0.7529 0.1178
Cd3 Cd 0.63237(3) 0.942613(19) 0.02872(2)
N3_3 N 0.5364(4) 0.9469(2) 0.1367(3)
N4_3 N 0.2749(4) 0.9356(2) 0.3534(3)
H2_3 H 0.2369 0.9068 0.3264
N7_2 N 0.1177(4) 0.9954(2) 0.6933(3)
C1_3 C 0.4289(5) 0.9600(3) 0.2687(3)
C2_3 C 0.5875(5) 0.9813(3) 0.1969(3)
C3_3 C 0.3719(5) 0.9682(3) 0.3383(3)
C7_3 C 0.5373(5) 0.9889(3) 0.2629(3)
C8_2 C 0.0529(5) 0.9392(3) 0.5717(3)
C10_2 C 0.0395(5) 0.9583(2) 0.6505(3)
C11_3 C 0.4324(5) 0.9190(3) 0.1422(3)
H7_3 H 0.3958 0.8952 0.1009
C12_3 C 0.3766(5) 0.9241(3) 0.2074(3)
H8_3 H 0.3046 0.9036 0.2098
C14_3 C 0.1560(5) 0.9394(3) 0.4615(3)
C16_2 C 0.1512(5) 0.9573(2) 0.5370(3)
H11_2 H 0.2127 0.9811 0.5642
C18_3 C 0.2536(5) 0.9589(3) 0.4194(3)
C21_3 C 0.0625(5) 0.9040(3) 0.4233(3)
H13_3 H 0.0660 0.8922 0.3725
O1_3 O 0.6540(4) 0.0435(2) 0.0398(2)
O3_2 O 0.5030(4) 0.1039(2) 0.0554(3)
N1_2 N 0.0678(4) 0.0025(2) 0.7589(3)
N5_3 N 0.4102(4) 0.0100(2) 0.3915(3)
N8_3 N 0.3334(4) 0.0033(2) 0.4440(3)
H3_3 H 0.6602 0.0009 0.1935
H5_3 H 0.5755 0.0131 0.3033
C20_3 C 0.6121(5) 0.0862(3) 0.0673(3)
C22_3 C 0.8512(6) 0.2040(3) 0.2208(4)
C24_3 C 0.9112(6) 0.3085(3) 0.2630(4)
H14_3 H 0.8403 0.3228 0.2329
C25_3 C 0.9357(6) 0.2465(3) 0.2668(3)
C26_3 C 0.6497(6) 0.1743(3) 0.1633(4)
H15_3 H 0.5662 0.1806 0.1572
C27_3 C 0.9938(6) 0.3489(3) 0.3044(4)
H16_3 H 0.9760 0.3901 0.3026
C29_3 C 0.7268(6) 0.2122(3) 0.2116(4)
H18_3 H 0.6948 0.2434 0.2380
C30_3 C 0.6949(6) 0.1270(3) 0.1236(3)
C31_3 C 0.8964(6) 0.1556(3) 0.1837(4)
H19_3 H 0.9796 0.1484 0.1915
C32_3 C 0.8182(6) 0.1174(3) 0.1348(4)
H20_3 H 0.8497 0.0853 0.1097
N2_3 N 0.0561(4) 0.0582(2) 0.3154(2)
H1_3 H 0.1159 0.0815 0.3335
N6_2 N 0.2562(4) 0.0465(2) 0.0721(2)
N9_2 N 0.0327(5) 0.1142(2) 0.5450(3)
C4_3 C 0.1114(5) 0.0351(3) 0.1868(3)
C5_3 C 0.2090(5) 0.0750(3) 0.1961(3)
H4_3 H 0.2272 0.0983 0.2409
C6_3 C 0.0356(5) 0.0302(3) 0.2478(3)
C9_3 C 0.0882(5) 0.0016(3) 0.1185(3)
C13_3 C 0.1632(5) 0.0083(3) 0.0638(3)
C15_3 C 0.0357(5) 0.0963(3) 0.4718(3)
H10_3 H 0.1013 0.1084 0.4488
C19_3 C 0.2785(5) 0.0794(3) 0.1374(3)
H12_3 H 0.3435 0.1063 0.1437
Cd4_2 Cd 0.36763(3) 0.057387(19) 0.97128(2)
O2_2 O 0.1770(3) 0.07166(17) 0.8799(2)
O4_2 O 0.2786(4) 0.15003(18) 0.9363(2)
C17_4 C 0.0997(5) 0.1705(3) 0.8475(3)
C23_4 C 0.1891(5) 0.1285(3) 0.8902(3)
C28_4 C 0.0429(6) 0.2742(3) 0.8122(4)
H17_4 H 0.0599 0.3155 0.8156
C33_4 C 0.1235(6) 0.2332(3) 0.8520(4)
H21_4 H 0.1946 0.2471 0.8822
N3_4 N 0.4636(4) 0.0531(2) 0.8633(3)
N4_4 N 0.7251(4) 0.0644(2) 0.6466(3)
H2_4 H 0.7631 0.0932 0.6736
N7_3 N 0.8823(4) 0.0046(2) 0.3067(3)
C1_4 C 0.5711(5) 0.0400(3) 0.7313(3)
C2_4 C 0.4125(5) 0.0187(3) 0.8031(3)
C3_4 C 0.6281(5) 0.0318(3) 0.6617(3)
C7_4 C 0.4627(5) 0.0111(3) 0.7371(3)
C8_3 C 0.9471(5) 0.0608(3) 0.4283(3)
C10_3 C 0.9605(5) 0.0417(2) 0.3495(3)
C11_4 C 0.5676(5) 0.0810(3) 0.8578(3)
H7_4 H 0.6042 0.1048 0.8991
C12_4 C 0.6234(5) 0.0759(3) 0.7926(3)
H8_4 H 0.6954 0.0964 0.7902
C14_4 C 0.8440(5) 0.0606(3) 0.5385(3)
C16_3 C 0.8488(5) 0.0427(2) 0.4630(3)
H11_3 H 0.7873 0.0189 0.4358
C18_4 C 0.7464(5) 0.0411(3) 0.5806(3)
C21_4 C 0.9375(5) 0.0960(3) 0.5767(3)
H13_4 H 0.9340 0.1078 0.6275
O6_2 O 0.4970(4) 0.8961(2) 0.9446(3)
N10_2 N 0.7438(4) 0.9535(2) 0.9279(2)
N2_4 N 0.9439(4) 0.9418(2) 0.6846(2)
H1_4 H 0.8841 0.9185 0.6665
N9_3 N 0.9673(5) 0.8858(2) 0.4550(3)
C4_4 C 0.8886(5) 0.9649(3) 0.8132(3)
C5_4 C 0.7910(5) 0.9250(3) 0.8039(3)
H4_4 H 0.7728 0.9017 0.7591
C6_4 C 0.9644(5) 0.9698(3) 0.7522(3)
C9_4 C 0.9118(5) 0.9984(3) 0.8815(3)
C13_4 C 0.8368(5) 0.9917(3) 0.9362(3)
C15_4 C 0.9643(5) 0.9037(3) 0.5282(3)
H10_4 H 0.8987 0.8916 0.5512
C19_4 C 0.7215(5) 0.9206(3) 0.8626(3)
H12_4 H 0.6565 0.8937 0.8563
O1_4 O 0.3460(4) 0.9565(2) 0.9602(2)
N1_3 N 0.9322(4) 0.9975(2) 0.2411(3)
N5_4 N 0.5898(4) 0.9900(2) 0.6085(3)
N8_4 N 0.6666(4) 0.9967(2) 0.5560(3)
H3_4 H 0.3398 0.9991 0.8065
H5_4 H 0.4245 0.9869 0.6967
C20_4 C 0.3879(5) 0.9138(3) 0.9327(3)
C22_4 C 0.1488(6) 0.7960(3) 0.7792(4)
C24_4 C 0.0888(6) 0.6915(3) 0.7370(4)
H14_4 H 0.1597 0.6772 0.7671
C25_4 C 0.0643(6) 0.7535(3) 0.7332(3)
C26_4 C 0.3503(6) 0.8257(3) 0.8367(4)
H15_4 H 0.4338 0.8194 0.8428
C27_4 C 0.0062(6) 0.6511(3) 0.6956(4)
H16_4 H 0.0240 0.6099 0.6974
C29_4 C 0.2732(6) 0.7878(3) 0.7884(4)
H18_4 H 0.3052 0.7566 0.7620
C30_4 C 0.3051(6) 0.8730(3) 0.8764(3)
C31_4 C 0.1036(6) 0.8444(3) 0.8163(4)
H19_4 H 0.0204 0.8516 0.8085
C32_4 C 0.1818(6) 0.8826(3) 0.8652(4)
H20_4 H 0.1503 0.9147 0.8903
H6_3 H 0.9771 0.0251 0.8901
H9_3 H 0.8521 0.0150 0.9812
N1_4 N 0.0678(4) 0.4975(2) 0.2589(3)
N7_4 N 0.1177(4) 0.5046(2) 0.1933(3)
C8_4 C 0.0529(5) 0.5608(3) 0.0717(3)
C10_4 C 0.0395(5) 0.5417(2) 0.1505(3)
C16_4 C 0.1512(5) 0.5427(2) 0.0370(3)
H11_4 H 0.2127 0.5189 0.0642
N9_4 N 0.9673(5) 0.6142(2) 0.9550(3)
H6_4 H 0.0229 0.9749 0.1099
H9_4 H 0.1479 0.9850 0.0188
loop_
_geom_bond_atom_site_label_1
_geom_bond_atom_site_label_2
_geom_bond_site_symmetry_1
_geom_bond_site_symmetry_2
N2 H1 1_555 1_555
N6 C13 1_555 1_555
C4 C5 1_555 1_555
C5 H4 1_555 1_555
C9 C4 1_555 1_555
H6 C9 1_555 1_555
C13 C9 1_555 1_555
H9 C13 1_555 1_555
H10 C15 1_555 1_555
C19 N6 1_555 1_555
H12 C19 1_555 1_555
Cd2 N6 1_555 1_555
N2 C6 1_555 1_555
C4 C6 1_555 1_555
C5 C19 1_555 1_555
Cd2 O1 1_555 1_555
O1 C20 1_555 1_555
O3 C20 1_555 1_555
N3 Cd2 1_555 1_555
N4 H2 1_555 1_555
N5 N8 1_555 1_555
N8 C18 1_555 1_555
C1 C3 1_555 1_555
C2 N3 1_555 1_555
H3 C2 1_555 1_555
C3 N4 1_555 1_555
C7 C1 1_555 1_555
H5 C7 1_555 1_555
C11 N3 1_555 1_555
H7 C11 1_555 1_555
C12 C1 1_555 1_555
H8 C12 1_555 1_555
C18 N4 1_555 1_555
C20 C30 1_555 1_555
H13 C21 1_555 1_555
C22 C25 1_555 1_555
C24 H14 1_555 1_555
C25 C24 1_555 1_555
C26 H15 1_555 1_555
H16 C27 1_555 1_555
C29 C22 1_555 1_555
H18 C29 1_555 1_555
C30 C26 1_555 1_555
C31 C22 1_555 1_555
H19 C31 1_555 1_555
C32 C30 1_555 1_555
H20 C32 1_555 1_555
Cd4 O3 1_555 1_555
O5 Cd2 1_555 1_555
O6 Cd2 1_555 1_555
O7 Cd2 1_555 1_555
N5 C3 1_555 1_555
C2 C7 1_555 1_555
C11 C12 1_555 1_555
C14 C18 1_555 1_555
C14 C21 1_555 1_555
C24 C27 1_555 1_555
C26 C29 1_555 1_555
C31 C32 1_555 1_555
O5 C23 1_555 1_555
O7 C23 1_555 1_555
C17 C23 1_555 1_555
H17 C28 1_555 1_555
C33 C17 1_555 1_555
H21 C33 1_555 1_555
C28 C33 1_555 1_555
Cd4 O1_2 1_555 1_555
O1_2 C20_2 1_555 1_555
O6 C20_2 1_555 1_555
N3_2 Cd4 1_555 1_555
N4_2 H2_2 1_555 1_555
N5_2 N8_2 1_555 1_555
N8_2 C18_2 1_555 1_555
C1_2 C3_2 1_555 1_555
C2_2 N3_2 1_555 1_555
H3_2 C2_2 1_555 1_555
C3_2 N4_2 1_555 1_555
C7_2 C1_2 1_555 1_555
H5_2 C7_2 1_555 1_555
C11_2 N3_2 1_555 1_555
H7_2 C11_2 1_555 1_555
C12_2 C1_2 1_555 1_555
H8_2 C12_2 1_555 1_555
C18_2 N4_2 1_555 1_555
C20_2 C30_2 1_555 1_555
H13_2 C21_2 1_555 1_555
C22_2 C25_2 1_555 1_555
C24_2 H14_2 1_555 1_555
C25_2 C24_2 1_555 1_555
C26_2 H15_2 1_555 1_555
H16_2 C27_2 1_555 1_555
C29_2 C22_2 1_555 1_555
H18_2 C29_2 1_555 1_555
C30_2 C26_2 1_555 1_555
C31_2 C22_2 1_555 1_555
H19_2 C31_2 1_555 1_555
C32_2 C30_2 1_555 1_555
H20_2 C32_2 1_555 1_555
O5_2 Cd4 1_555 1_555
O7_2 Cd4 1_555 1_555
N10 Cd4 1_555 1_555
N5_2 C3_2 1_555 1_555
C2_2 C7_2 1_555 1_555
C11_2 C12_2 1_555 1_555
C14_2 C18_2 1_555 1_555
C14_2 C21_2 1_555 1_555
C24_2 C27_2 1_555 1_555
C26_2 C29_2 1_555 1_555
C31_2 C32_2 1_555 1_555
N2_2 H1_2 1_555 1_555
N10 C13_2 1_555 1_555
C4_2 C5_2 1_555 1_555
C5_2 H4_2 1_555 1_555
C9_2 C4_2 1_555 1_555
H6_2 C9_2 1_555 1_555
C13_2 C9_2 1_555 1_555
H9_2 C13_2 1_555 1_555
H10_2 C15_2 1_555 1_555
C19_2 N10 1_555 1_555
H12_2 C19_2 1_555 1_555
N2_2 C6_2 1_555 1_555
C4_2 C6_2 1_555 1_555
C5_2 C19_2 1_555 1_555
O5_2 C23_2 1_555 1_555
O7_2 C23_2 1_555 1_555
C17_2 C23_2 1_555 1_555
H17_2 C28_2 1_555 1_555
C33_2 C17_2 1_555 1_555
H21_2 C33_2 1_555 1_555
C28_2 C33_2 1_555 1_555
N1 N7 1_555 1_555
N7 C10 1_555 1_555
C8 C10 1_555 1_555
C16 C8 1_555 1_555
H11 C16 1_555 1_555
O2 C23_3 1_555 1_555
O4 C23_3 1_555 1_555
C17_3 C23_3 1_555 1_555
H17_3 C28_3 1_555 1_555
C33_3 C17_3 1_555 1_555
H21_3 C33_3 1_555 1_555
Cd3 O2 1_555 1_555
O4 Cd3 1_555 1_555
C28_3 C33_3 1_555 1_555
N3_3 Cd3 1_555 1_555
N4_3 H2_3 1_555 1_555
N7_2 C10_2 1_555 1_555
C1_3 C3_3 1_555 1_555
C2_3 N3_3 1_555 1_555
C3_3 N4_3 1_555 1_555
C7_3 C1_3 1_555 1_555
C8_2 C10_2 1_555 1_555
C11_3 N3_3 1_555 1_555
H7_3 C11_3 1_555 1_555
C12_3 C1_3 1_555 1_555
H8_3 C12_3 1_555 1_555
C14_3 C16_2 1_555 1_555
C16_2 C8_2 1_555 1_555
H11_2 C16_2 1_555 1_555
C18_3 N4_3 1_555 1_555
H13_3 C21_3 1_555 1_555
C2_3 C7_3 1_555 1_555
C11_3 C12_3 1_555 1_555
C14_3 C18_3 1_555 1_555
C14_3 C21_3 1_555 1_555
O1_3 C20_3 1_555 1_555
O3_2 C20_3 1_555 1_555
N5_3 N8_3 1_555 1_555
C20_3 C30_3 1_555 1_555
C22_3 C25_3 1_555 1_555
C24_3 H14_3 1_555 1_555
C25_3 C24_3 1_555 1_555
C26_3 H15_3 1_555 1_555
H16_3 C27_3 1_555 1_555
C29_3 C22_3 1_555 1_555
H18_3 C29_3 1_555 1_555
C30_3 C26_3 1_555 1_555
C31_3 C22_3 1_555 1_555
H19_3 C31_3 1_555 1_555
C32_3 C30_3 1_555 1_555
H20_3 C32_3 1_555 1_555
C24_3 C27_3 1_555 1_555
C26_3 C29_3 1_555 1_555
C31_3 C32_3 1_555 1_555
N2_3 H1_3 1_555 1_555
N6_2 C13_3 1_555 1_555
N9_2 C15_3 1_555 1_555
C4_3 C5_3 1_555 1_555
C5_3 H4_3 1_555 1_555
C9_3 C4_3 1_555 1_555
C13_3 C9_3 1_555 1_555
H10_3 C15_3 1_555 1_555
C19_3 N6_2 1_555 1_555
H12_3 C19_3 1_555 1_555
N2_3 C6_3 1_555 1_555
C4_3 C6_3 1_555 1_555
C5_3 C19_3 1_555 1_555
O2_2 C23_4 1_555 1_555
O4_2 C23_4 1_555 1_555
C17_4 C23_4 1_555 1_555
H17_4 C28_4 1_555 1_555
C33_4 C17_4 1_555 1_555
H21_4 C33_4 1_555 1_555
Cd4_2 O2_2 1_555 1_555
O4_2 Cd4_2 1_555 1_555
C28_4 C33_4 1_555 1_555
N3_4 Cd4_2 1_555 1_555
N4_4 H2_4 1_555 1_555
N7_3 C10_3 1_555 1_555
C1_4 C3_4 1_555 1_555
C2_4 N3_4 1_555 1_555
C3_4 N4_4 1_555 1_555
C7_4 C1_4 1_555 1_555
C8_3 C10_3 1_555 1_555
C11_4 N3_4 1_555 1_555
H7_4 C11_4 1_555 1_555
C12_4 C1_4 1_555 1_555
H8_4 C12_4 1_555 1_555
C14_4 C16_3 1_555 1_555
C16_3 C8_3 1_555 1_555
H11_3 C16_3 1_555 1_555
C18_4 N4_4 1_555 1_555
H13_4 C21_4 1_555 1_555
C2_4 C7_4 1_555 1_555
C11_4 C12_4 1_555 1_555
C14_4 C18_4 1_555 1_555
C14_4 C21_4 1_555 1_555
N2_4 H1_4 1_555 1_555
N10_2 C13_4 1_555 1_555
N9_3 C15_4 1_555 1_555
C4_4 C5_4 1_555 1_555
C5_4 H4_4 1_555 1_555
C9_4 C4_4 1_555 1_555
C13_4 C9_4 1_555 1_555
H10_4 C15_4 1_555 1_555
C19_4 N10_2 1_555 1_555
H12_4 C19_4 1_555 1_555
N2_4 C6_4 1_555 1_555
C4_4 C6_4 1_555 1_555
C5_4 C19_4 1_555 1_555
O1_4 C20_4 1_555 1_555
O6_2 C20_4 1_555 1_555
N5_4 N8_4 1_555 1_555
C20_4 C30_4 1_555 1_555
C22_4 C25_4 1_555 1_555
C24_4 H14_4 1_555 1_555
C25_4 C24_4 1_555 1_555
C26_4 H15_4 1_555 1_555
H16_4 C27_4 1_555 1_555
C29_4 C22_4 1_555 1_555
H18_4 C29_4 1_555 1_555
C30_4 C26_4 1_555 1_555
C31_4 C22_4 1_555 1_555
H19_4 C31_4 1_555 1_555
C32_4 C30_4 1_555 1_555
H20_4 C32_4 1_555 1_555
C24_4 C27_4 1_555 1_555
C26_4 C29_4 1_555 1_555
C31_4 C32_4 1_555 1_555
N1_4 N7_4 1_555 1_555
N7_4 C10_4 1_555 1_555
C8_4 C10_4 1_555 1_555
C16_4 C8_4 1_555 1_555
H11_4 C16_4 1_555 1_555

#END
