
###############################################################################
#
# This file contains modified crystal structure data generated from the
# MOF subset of the Cambridge Structural Database (CSD) v543 
# hosted by the Cambridge Crystallographic Data Centre (CCDC).
#
# This work is licensed under the Creative Commons
# Attribution-NonCommercial-ShareAlike 4.0 International License.
# To view a copy of this license, visit
# http://creativecommons.org/licenses/by-nc-sa/4.0/
# or send a letter to
# Creative Commons, PO Box 1866, Mountain View, CA 94042, USA.
#
# CIF created using the CSD Python API on 29 September 2022
# The structure has been converted into the P1 space group
# The structure has a 3D framework
# The original CSD entry HOWPOA is in the tetragonal crystal system
# The framework has been calculated to contain at least 10.0% void space
# The void calculation uses a probe of radius 1.32A, grid spacing 0.4
# The framework is charged, counterions have been retained in the structure
#
###############################################################################

data_HOWPOA
_chemical_formula_moiety         '(C96 H96 Ag20 N144 20+)n'
_symmetry_cell_setting           triclinic
_symmetry_space_group_name_H-M   'P 1'
_symmetry_Int_Tables_number      1
_space_group_name_Hall           'P 1'
loop_
_symmetry_equiv_pos_site_id
_symmetry_equiv_pos_as_xyz
1 x,y,z
_cell_length_a                   13.1338(4)
_cell_length_b                   13.1338(4)
_cell_length_c                   44.093(3)
_cell_angle_alpha                90
_cell_angle_beta                 90
_cell_angle_gamma                90
_cell_volume                     7605.9
loop_
_atom_site_label
_atom_site_type_symbol
_atom_site_fract_x
_atom_site_fract_y
_atom_site_fract_z
N20 N 0.0482(6) 0.8682(7) 0.20768(18)
Ag1 Ag 0.21859(7) 0.2500 0.1250
Ag2 Ag 0.11829(5) 0.08075(5) 0.180061(15)
N1 N 0.3328(5) 0.3625(4) 0.25236(15)
N2 N 0.3682(7) 0.4518(6) 0.29232(18)
N3 N 0.4393(6) 0.3796(6) 0.28934(17)
N4 N 0.2831(4) 0.3251(5) 0.22738(14)
N5 N 0.1908(5) 0.2256(5) 0.19934(15)
N6 N 0.2287(7) 0.3014(6) 0.18118(16)
N7 N 0.4511(5) 0.0197(4) 0.14782(13)
N8 N 0.2886(5) 0.0400(5) 0.15706(15)
N9 N 0.3223(6) 0.1142(6) 0.13675(17)
C1 C 0.3029(6) 0.4464(7) 0.2689(2)
H1 H 0.2490 0.4901 0.2647
C2 C 0.4161(6) 0.3258(6) 0.2658(2)
H2 H 0.4525 0.2693 0.2591
C3 C 0.2875(7) 0.3587(7) 0.19816(19)
H3 H 0.3261 0.4134 0.1913
C4 C 0.2228(6) 0.2408(7) 0.22623(16)
H4 H 0.2071 0.1999 0.2428
C6 C 0.4192(6) 0.0982(6) 0.13137(16)
H6 H 0.4594 0.1360 0.1181
C7 C 0.6305(7) 0.0174(6) 0.16253(16)
H7 H 0.6303 0.0751 0.1748
Ag6 Ag 0.58075(5) 0.38171(5) 0.319939(15)
Ag8 Ag 0.41925(5) 0.61829(5) 0.319939(15)
N21 N 0.8796(6) 0.0607(6) 0.21066(17)
N23 N 0.2287(7) 0.1986(6) 0.06882(16)
N24 N 0.3223(6) 0.3858(6) 0.11325(17)
C5 C 0.3695(7) 0.9826(6) 0.16253(16)
H5 H 0.3697 0.9249 0.1748
N10 N 0.5489(5) 0.9803(4) 0.14782(13)
N11 N 0.7114(5) 0.9600(5) 0.15706(15)
N12 N 0.6777(6) 0.8858(6) 0.13675(17)
C8 C 0.5808(6) 0.9018(6) 0.13137(16)
H8 H 0.5406 0.8640 0.1181
Ag3 Ag 0.88171(5) 0.91925(5) 0.180061(15)
N13 N 0.6672(5) 0.6375(4) 0.25236(15)
N14 N 0.6318(7) 0.5482(6) 0.29232(18)
N15 N 0.5607(6) 0.6204(6) 0.28934(17)
N16 N 0.7169(4) 0.6749(5) 0.22738(14)
N17 N 0.8092(5) 0.7744(5) 0.19934(15)
N18 N 0.7713(7) 0.6986(6) 0.18118(16)
C9 C 0.6971(6) 0.5536(7) 0.2689(2)
H9 H 0.7510 0.5099 0.2647
C10 C 0.5839(6) 0.6742(6) 0.2658(2)
H10 H 0.5475 0.7307 0.2591
C11 C 0.7125(7) 0.6413(7) 0.19816(19)
H11 H 0.6739 0.5866 0.1913
C12 C 0.7772(6) 0.7592(7) 0.22623(16)
H12 H 0.7929 0.8001 0.2428
Ag4 Ag 0.78141(7) 0.7500 0.1250
N22 N 0.1204(6) 0.9393(6) 0.21066(17)
N19 N 0.9518(6) 0.1318(7) 0.20768(18)
N23_2 N 0.7713(7) 0.8014(6) 0.06882(16)
N24_2 N 0.6777(6) 0.6142(6) 0.11325(17)
N19_2 N 0.1318(7) 0.0482(6) 0.79232(18)
Ag1_2 Ag 0.2500 0.78141(7) 0.8750
Ag2_2 Ag 0.08075(5) 0.88171(5) 0.819939(15)
N1_2 N 0.3625(4) 0.6672(5) 0.74764(15)
N2_2 N 0.4518(6) 0.6318(7) 0.70768(18)
N3_2 N 0.3796(6) 0.5607(6) 0.71066(17)
N4_2 N 0.3251(5) 0.7169(4) 0.77262(14)
N5_2 N 0.2256(5) 0.8092(5) 0.80066(15)
N6_2 N 0.3014(6) 0.7713(7) 0.81882(16)
N7_2 N 0.0197(4) 0.5489(5) 0.85218(13)
N8_2 N 0.0400(5) 0.7114(5) 0.84294(15)
N9_2 N 0.1142(6) 0.6777(6) 0.86325(17)
C1_2 C 0.4464(7) 0.6971(6) 0.7311(2)
H1_2 H 0.4901 0.7510 0.7353
C2_2 C 0.3258(6) 0.5839(6) 0.7342(2)
H2_2 H 0.2693 0.5475 0.7409
C3_2 C 0.3587(7) 0.7125(7) 0.80184(19)
H3_2 H 0.4134 0.6739 0.8087
C4_2 C 0.2408(7) 0.7772(6) 0.77377(16)
H4_2 H 0.1999 0.7929 0.7572
C6_2 C 0.0982(6) 0.5808(6) 0.86863(16)
H6_2 H 0.1360 0.5406 0.8819
C7_2 C 0.0174(6) 0.3695(7) 0.83747(16)
H7_2 H 0.0751 0.3697 0.8252
Ag6_2 Ag 0.38171(5) 0.41925(5) 0.680061(15)
Ag8_2 Ag 0.61829(5) 0.58075(5) 0.680061(15)
N21_2 N 0.0607(6) 0.1204(6) 0.78934(17)
N23_3 N 0.1986(6) 0.7713(7) 0.93118(16)
N24_3 N 0.3858(6) 0.6777(6) 0.88675(17)
C5_2 C 0.9826(6) 0.6305(7) 0.83747(16)
H5_2 H 0.9249 0.6303 0.8252
N10_2 N 0.9803(4) 0.4511(5) 0.85218(13)
N11_2 N 0.9600(5) 0.2886(5) 0.84294(15)
N12_2 N 0.8858(6) 0.3223(6) 0.86325(17)
C8_2 C 0.9018(6) 0.4192(6) 0.86863(16)
H8_2 H 0.8640 0.4594 0.8819
Ag3_2 Ag 0.91925(5) 0.11829(5) 0.819939(15)
N13_2 N 0.6375(4) 0.3328(5) 0.74764(15)
N14_2 N 0.5482(6) 0.3682(7) 0.70768(18)
N15_2 N 0.6204(6) 0.4393(6) 0.71066(17)
N16_2 N 0.6749(5) 0.2831(4) 0.77262(14)
N17_2 N 0.7744(5) 0.1908(5) 0.80066(15)
N18_2 N 0.6986(6) 0.2287(7) 0.81882(16)
C9_2 C 0.5536(7) 0.3029(6) 0.7311(2)
H9_2 H 0.5099 0.2490 0.7353
C10_2 C 0.6742(6) 0.4161(6) 0.7342(2)
H10_2 H 0.7307 0.4525 0.7409
C11_2 C 0.6413(7) 0.2875(7) 0.80184(19)
H11_2 H 0.5866 0.3261 0.8087
C12_2 C 0.7592(7) 0.2228(6) 0.77377(16)
H12_2 H 0.8001 0.2071 0.7572
Ag4_2 Ag 0.7500 0.21859(7) 0.8750
N22_2 N 0.9393(6) 0.8796(6) 0.78934(17)
N20_2 N 0.8682(7) 0.9518(6) 0.79232(18)
N23_4 N 0.8014(6) 0.2287(7) 0.93118(16)
N24_4 N 0.6142(6) 0.3223(6) 0.88675(17)
Ag1_3 Ag 0.28141(7) 0.2500 0.6250
Ag2_3 Ag 0.38171(5) 0.08075(5) 0.569939(15)
N1_3 N 0.1672(5) 0.3625(4) 0.49764(15)
N2_3 N 0.1318(7) 0.4518(6) 0.45768(18)
N3_3 N 0.0607(6) 0.3796(6) 0.46066(17)
N4_3 N 0.2169(4) 0.3251(5) 0.52262(14)
N5_3 N 0.3092(5) 0.2256(5) 0.55066(15)
N6_3 N 0.2713(7) 0.3014(6) 0.56882(16)
N7_3 N 0.0489(5) 0.0197(4) 0.60218(13)
N8_3 N 0.2114(5) 0.0400(5) 0.59294(15)
N9_3 N 0.1777(6) 0.1142(6) 0.61325(17)
C1_3 C 0.1971(6) 0.4464(7) 0.4811(2)
H1_3 H 0.2510 0.4901 0.4853
C2_3 C 0.0839(6) 0.3258(6) 0.4842(2)
H2_3 H 0.0475 0.2693 0.4909
C3_3 C 0.2125(7) 0.3587(7) 0.55184(19)
H3_3 H 0.1739 0.4134 0.5587
C4_3 C 0.2772(6) 0.2408(7) 0.52377(16)
H4_3 H 0.2929 0.1999 0.5072
C6_3 C 0.0808(6) 0.0982(6) 0.61863(16)
H6_3 H 0.0406 0.1360 0.6319
Ag8_3 Ag 0.08075(5) 0.61829(5) 0.430061(15)
N19_3 N 0.5482(6) 0.1318(7) 0.54232(18)
N23_5 N 0.2713(7) 0.1986(6) 0.68118(16)
N24_5 N 0.1777(6) 0.3858(6) 0.63675(17)
C5_3 C 0.1305(7) 0.9826(6) 0.58747(16)
H5_3 H 0.1303 0.9249 0.5752
N22_3 N 0.3796(6) 0.9393(6) 0.53934(17)
C7_3 C 0.8695(7) 0.0174(6) 0.58747(16)
H7_3 H 0.8697 0.0751 0.5752
Ag6_3 Ag 0.91925(5) 0.38171(5) 0.430061(15)
N21_3 N 0.6204(6) 0.0607(6) 0.53934(17)
N10_3 N 0.9511(5) 0.9803(4) 0.60218(13)
N11_3 N 0.7886(5) 0.9600(5) 0.59294(15)
N12_3 N 0.8223(6) 0.8858(6) 0.61325(17)
C8_3 C 0.9192(6) 0.9018(6) 0.61863(16)
H8_3 H 0.9594 0.8640 0.6319
Ag3_3 Ag 0.61829(5) 0.91925(5) 0.569939(15)
N13_3 N 0.8328(5) 0.6375(4) 0.49764(15)
N14_3 N 0.8682(7) 0.5482(6) 0.45768(18)
N15_3 N 0.9393(6) 0.6204(6) 0.46066(17)
N16_3 N 0.7831(4) 0.6749(5) 0.52262(14)
N17_3 N 0.6908(5) 0.7744(5) 0.55066(15)
N18_3 N 0.7287(7) 0.6986(6) 0.56882(16)
C9_3 C 0.8029(6) 0.5536(7) 0.4811(2)
H9_3 H 0.7490 0.5099 0.4853
C10_3 C 0.9161(6) 0.6742(6) 0.4842(2)
H10_3 H 0.9525 0.7307 0.4909
C11_3 C 0.7875(7) 0.6413(7) 0.55184(19)
H11_3 H 0.8261 0.5866 0.5587
C12_3 C 0.7228(6) 0.7592(7) 0.52377(16)
H12_3 H 0.7071 0.8001 0.5072
Ag4_3 Ag 0.71859(7) 0.7500 0.6250
N20_3 N 0.4518(6) 0.8682(7) 0.54232(18)
N23_6 N 0.7287(7) 0.8014(6) 0.68118(16)
N24_6 N 0.8223(6) 0.6142(6) 0.63675(17)
Ag5 Ag 0.11829(5) 0.41925(5) 0.069939(15)
N19_4 N 0.3682(7) 0.0482(6) 0.95768(18)
N1_4 N 0.1375(4) 0.6672(5) 0.00236(15)
N2_4 N 0.0482(6) 0.6318(7) 0.04232(18)
N3_4 N 0.1204(6) 0.5607(6) 0.03934(17)
C1_4 C 0.0536(7) 0.6971(6) 0.0189(2)
H1_4 H 0.0099 0.7510 0.0147
C2_4 C 0.1742(6) 0.5839(6) 0.0158(2)
H2_4 H 0.2307 0.5475 0.0091
N13_4 N 0.8625(4) 0.3328(5) 0.00236(15)
N14_4 N 0.9518(6) 0.3682(7) 0.04232(18)
N15_4 N 0.8796(6) 0.4393(6) 0.03934(17)
C9_4 C 0.9464(7) 0.3029(6) 0.0189(2)
H9_4 H 0.9901 0.2490 0.0147
C10_4 C 0.8258(6) 0.4161(6) 0.0158(2)
H10_4 H 0.7693 0.4525 0.0091
Ag7 Ag 0.88171(5) 0.58075(5) 0.069939(15)
Ag2_4 Ag 0.41925(5) 0.88171(5) 0.930061(15)
N4_4 N 0.1749(5) 0.7169(4) 0.97738(14)
N5_4 N 0.2744(5) 0.8092(5) 0.94934(15)
N7_4 N 0.4803(4) 0.5489(5) 0.89782(13)
N8_4 N 0.4600(5) 0.7114(5) 0.90706(15)
C3_4 C 0.1413(7) 0.7125(7) 0.94816(19)
H3_4 H 0.0866 0.6739 0.9413
C4_4 C 0.2592(7) 0.7772(6) 0.97623(16)
H4_4 H 0.3001 0.7929 0.9928
C5_4 C 0.5174(6) 0.6305(7) 0.91253(16)
H5_4 H 0.5751 0.6303 0.9248
C6_4 C 0.4018(6) 0.5808(6) 0.88137(16)
H6_4 H 0.3640 0.5406 0.8681
N10_4 N 0.5197(4) 0.4511(5) 0.89782(13)
N11_4 N 0.5400(5) 0.2886(5) 0.90706(15)
C7_4 C 0.4826(6) 0.3695(7) 0.91253(16)
H7_4 H 0.4249 0.3697 0.9248
C8_4 C 0.5982(6) 0.4192(6) 0.88137(16)
H8_4 H 0.6360 0.4594 0.8681
Ag3_4 Ag 0.58075(5) 0.11829(5) 0.930061(15)
N16_4 N 0.8251(5) 0.2831(4) 0.97738(14)
N17_4 N 0.7256(5) 0.1908(5) 0.94934(15)
C11_4 C 0.8587(7) 0.2875(7) 0.94816(19)
H11_4 H 0.9134 0.3261 0.9413
C12_4 C 0.7408(7) 0.2228(6) 0.97623(16)
H12_4 H 0.6999 0.2071 0.9928
N21_4 N 0.4393(6) 0.1204(6) 0.96066(17)
N22_4 N 0.5607(6) 0.8796(6) 0.96066(17)
N20_4 N 0.6318(7) 0.9518(6) 0.95768(18)
N10_5 N 0.0489(5) 0.4803(4) 0.64782(13)
N11_5 N 0.2114(5) 0.4600(5) 0.65706(15)
C7_5 C 0.1305(7) 0.5174(6) 0.66253(16)
H7_5 H 0.1303 0.5751 0.6748
C8_5 C 0.0808(6) 0.4018(6) 0.63137(16)
H8_5 H 0.0406 0.3640 0.6181
N13_5 N 0.1672(5) 0.1375(4) 0.75236(15)
N16_5 N 0.2169(4) 0.1749(5) 0.72738(14)
N17_5 N 0.3092(5) 0.2744(5) 0.69934(15)
C9_5 C 0.1971(6) 0.0536(7) 0.7689(2)
H9_5 H 0.2510 0.0099 0.7647
C10_5 C 0.0839(6) 0.1742(6) 0.7658(2)
H10_5 H 0.0475 0.2307 0.7591
C11_5 C 0.2125(7) 0.1413(7) 0.69816(19)
H11_5 H 0.1739 0.0866 0.6913
C12_5 C 0.2772(6) 0.2592(7) 0.72623(16)
H12_5 H 0.2929 0.3001 0.7428
N1_5 N 0.8328(5) 0.8625(4) 0.75236(15)
N4_5 N 0.7831(4) 0.8251(5) 0.72738(14)
N5_5 N 0.6908(5) 0.7256(5) 0.69934(15)
N7_5 N 0.9511(5) 0.5197(4) 0.64782(13)
N8_5 N 0.7886(5) 0.5400(5) 0.65706(15)
C1_5 C 0.8029(6) 0.9464(7) 0.7689(2)
H1_5 H 0.7490 0.9901 0.7647
C2_5 C 0.9161(6) 0.8258(6) 0.7658(2)
H2_5 H 0.9525 0.7693 0.7591
C3_5 C 0.7875(7) 0.8587(7) 0.69816(19)
H3_5 H 0.8261 0.9134 0.6913
C4_5 C 0.7228(6) 0.7408(7) 0.72623(16)
H4_5 H 0.7071 0.6999 0.7428
C5_5 C 0.8695(7) 0.4826(6) 0.66253(16)
H5_5 H 0.8697 0.4249 0.6748
C6_5 C 0.9192(6) 0.5982(6) 0.63137(16)
H6_5 H 0.9594 0.6360 0.6181
Ag1_4 Ag 0.7500 0.28141(7) 0.3750
N1_6 N 0.8625(4) 0.1672(5) 0.24764(15)
N4_6 N 0.8251(5) 0.2169(4) 0.27262(14)
N5_6 N 0.7256(5) 0.3092(5) 0.30066(15)
N6_4 N 0.8014(6) 0.2713(7) 0.31882(16)
N7_6 N 0.5197(4) 0.0489(5) 0.35218(13)
N8_6 N 0.5400(5) 0.2114(5) 0.34294(15)
N9_4 N 0.6142(6) 0.1777(6) 0.36325(17)
C1_6 C 0.9464(7) 0.1971(6) 0.2311(2)
H1_6 H 0.9901 0.2510 0.2353
C2_6 C 0.8258(6) 0.0839(6) 0.2342(2)
H2_6 H 0.7693 0.0475 0.2409
C3_6 C 0.8587(7) 0.2125(7) 0.30184(19)
H3_6 H 0.9134 0.1739 0.3087
C4_6 C 0.7408(7) 0.2772(6) 0.27377(16)
H4_6 H 0.6999 0.2929 0.2572
C5_6 C 0.4826(6) 0.1305(7) 0.33747(16)
H5_6 H 0.4249 0.1303 0.3252
C6_6 C 0.5982(6) 0.0808(6) 0.36863(16)
H6_6 H 0.6360 0.0406 0.3819
N23_7 N 0.6986(6) 0.2713(7) 0.43118(16)
N24_7 N 0.8858(6) 0.1777(6) 0.38675(17)
N10_6 N 0.4803(4) 0.9511(5) 0.35218(13)
N11_6 N 0.4600(5) 0.7886(5) 0.34294(15)
N12_4 N 0.3858(6) 0.8223(6) 0.36325(17)
C7_6 C 0.5174(6) 0.8695(7) 0.33747(16)
H7_6 H 0.5751 0.8697 0.3252
C8_6 C 0.4018(6) 0.9192(6) 0.36863(16)
H8_6 H 0.3640 0.9594 0.3819
N13_6 N 0.1375(4) 0.8328(5) 0.24764(15)
N16_6 N 0.1749(5) 0.7831(4) 0.27262(14)
N17_6 N 0.2744(5) 0.6908(5) 0.30066(15)
N18_4 N 0.1986(6) 0.7287(7) 0.31882(16)
C9_6 C 0.0536(7) 0.8029(6) 0.2311(2)
H9_6 H 0.0099 0.7490 0.2353
C10_6 C 0.1742(6) 0.9161(6) 0.2342(2)
H10_6 H 0.2307 0.9525 0.2409
C11_6 C 0.1413(7) 0.7875(7) 0.30184(19)
H11_6 H 0.0866 0.8261 0.3087
C12_6 C 0.2592(7) 0.7228(6) 0.27377(16)
H12_6 H 0.3001 0.7071 0.2572
Ag4_4 Ag 0.2500 0.71859(7) 0.3750
N23_8 N 0.3014(6) 0.7287(7) 0.43118(16)
N24_8 N 0.1142(6) 0.8223(6) 0.38675(17)
N4_7 N 0.7169(4) 0.8251(5) 0.02262(14)
N5_7 N 0.8092(5) 0.7256(5) 0.05066(15)
N7_7 N 0.5489(5) 0.5197(4) 0.10218(13)
N8_7 N 0.7114(5) 0.5400(5) 0.09294(15)
C3_7 C 0.7125(7) 0.8587(7) 0.05184(19)
H3_7 H 0.6739 0.9134 0.0587
C4_7 C 0.7772(6) 0.7408(7) 0.02377(16)
H4_7 H 0.7929 0.6999 0.0072
C5_7 C 0.6305(7) 0.4826(6) 0.08747(16)
H5_7 H 0.6303 0.4249 0.0752
C6_7 C 0.5808(6) 0.5982(6) 0.11863(16)
H6_7 H 0.5406 0.6360 0.1319
N10_7 N 0.4511(5) 0.4803(4) 0.10218(13)
N11_7 N 0.2886(5) 0.4600(5) 0.09294(15)
C7_7 C 0.3695(7) 0.5174(6) 0.08747(16)
H7_7 H 0.3697 0.5751 0.0752
C8_7 C 0.4192(6) 0.4018(6) 0.11863(16)
H8_7 H 0.4594 0.3640 0.1319
N16_7 N 0.2831(4) 0.1749(5) 0.02262(14)
N17_7 N 0.1908(5) 0.2744(5) 0.05066(15)
C11_7 C 0.2875(7) 0.1413(7) 0.05184(19)
H11_7 H 0.3261 0.0866 0.0587
C12_7 C 0.2228(6) 0.2592(7) 0.02377(16)
H12_7 H 0.2071 0.3001 0.0072
N1_7 N 0.6672(5) 0.8625(4) 0.99764(15)
C1_7 C 0.6971(6) 0.9464(7) 0.9811(2)
H1_7 H 0.7510 0.9901 0.9853
C2_7 C 0.5839(6) 0.8258(6) 0.9842(2)
H2_7 H 0.5475 0.7693 0.9909
N13_7 N 0.3328(5) 0.1375(4) 0.99764(15)
C9_7 C 0.3029(6) 0.0536(7) 0.9811(2)
H9_7 H 0.2490 0.0099 0.9853
C10_7 C 0.4161(6) 0.1742(6) 0.9842(2)
H10_7 H 0.4525 0.2307 0.9909
C5_8 C 0.0174(6) 0.1305(7) 0.41253(16)
H5_8 H 0.0751 0.1303 0.4248
N10_8 N 0.0197(4) 0.9511(5) 0.39782(13)
N11_8 N 0.0400(5) 0.7886(5) 0.40706(15)
C8_8 C 0.0982(6) 0.9192(6) 0.38137(16)
H8_8 H 0.1360 0.9594 0.3681
N13_8 N 0.3625(4) 0.8328(5) 0.50236(15)
N16_8 N 0.3251(5) 0.7831(4) 0.47738(14)
N17_8 N 0.2256(5) 0.6908(5) 0.44934(15)
C9_8 C 0.4464(7) 0.8029(6) 0.5189(2)
H9_8 H 0.4901 0.7490 0.5147
C10_8 C 0.3258(6) 0.9161(6) 0.5158(2)
H10_8 H 0.2693 0.9525 0.5091
C11_8 C 0.3587(7) 0.7875(7) 0.44816(19)
H11_8 H 0.4134 0.8261 0.4413
C12_8 C 0.2408(7) 0.7228(6) 0.47623(16)
H12_8 H 0.1999 0.7071 0.4928
N1_8 N 0.6375(4) 0.1672(5) 0.50236(15)
N4_8 N 0.6749(5) 0.2169(4) 0.47738(14)
N5_8 N 0.7744(5) 0.3092(5) 0.44934(15)
N7_8 N 0.9803(4) 0.0489(5) 0.39782(13)
N8_8 N 0.9600(5) 0.2114(5) 0.40706(15)
C1_8 C 0.5536(7) 0.1971(6) 0.5189(2)
H1_8 H 0.5099 0.2510 0.5147
C2_8 C 0.6742(6) 0.0839(6) 0.5158(2)
H2_8 H 0.7307 0.0475 0.5091
C3_8 C 0.6413(7) 0.2125(7) 0.44816(19)
H3_8 H 0.5866 0.1739 0.4413
C4_8 C 0.7592(7) 0.2772(6) 0.47623(16)
H4_8 H 0.8001 0.2929 0.4928
C6_8 C 0.9018(6) 0.0808(6) 0.38137(16)
H6_8 H 0.8640 0.0406 0.3681
C7_8 C 0.9826(6) 0.8695(7) 0.41253(16)
H7_8 H 0.9249 0.8697 0.4248
loop_
_geom_bond_atom_site_label_1
_geom_bond_atom_site_label_2
_geom_bond_site_symmetry_1
_geom_bond_site_symmetry_2
Ag1 N6 1_555 1_555
Ag2 N5 1_555 1_555
N1 N4 1_555 1_555
N2 N3 1_555 1_555
N3 C2 1_555 1_555
N4 C3 1_555 1_555
N5 N6 1_555 1_555
N6 C3 1_555 1_555
N8 Ag2 1_555 1_555
N9 Ag1 1_555 1_555
C1 N1 1_555 1_555
H1 C1 1_555 1_555
C2 N1 1_555 1_555
H2 C2 1_555 1_555
C3 H3 1_555 1_555
C4 N4 1_555 1_555
H4 C4 1_555 1_555
C6 N7 1_555 1_555
H6 C6 1_555 1_555
H7 C7 1_555 1_555
Ag6 N3 1_555 1_555
Ag8 N2 1_555 1_555
N23 Ag1 1_555 1_555
N24 Ag1 1_555 1_555
N2 C1 1_555 1_555
N5 C4 1_555 1_555
N8 N9 1_555 1_555
N9 C6 1_555 1_555
H5 C5 1_555 1_555
N11 N12 1_555 1_555
N12 C8 1_555 1_555
C8 N10 1_555 1_555
H8 C8 1_555 1_555
Ag3 N11 1_555 1_555
N13 N16 1_555 1_555
N14 N15 1_555 1_555
N15 C10 1_555 1_555
N16 C11 1_555 1_555
N17 Ag3 1_555 1_555
N18 N17 1_555 1_555
C9 N13 1_555 1_555
H9 C9 1_555 1_555
C10 N13 1_555 1_555
H10 C10 1_555 1_555
C11 N18 1_555 1_555
H11 C11 1_555 1_555
C12 N16 1_555 1_555
H12 C12 1_555 1_555
Ag4 N12 1_555 1_555
Ag6 N14 1_555 1_555
Ag8 N15 1_555 1_555
N14 C9 1_555 1_555
N17 C12 1_555 1_555
N18 Ag4 1_555 1_555
N23_2 Ag4 1_555 1_555
N24_2 Ag4 1_555 1_555
Ag1_2 N6_2 1_555 1_555
Ag2_2 N5_2 1_555 1_555
N1_2 N4_2 1_555 1_555
N2_2 N3_2 1_555 1_555
N3_2 C2_2 1_555 1_555
N4_2 C3_2 1_555 1_555
N5_2 N6_2 1_555 1_555
N6_2 C3_2 1_555 1_555
N8_2 Ag2_2 1_555 1_555
N9_2 Ag1_2 1_555 1_555
C1_2 N1_2 1_555 1_555
H1_2 C1_2 1_555 1_555
C2_2 N1_2 1_555 1_555
H2_2 C2_2 1_555 1_555
C3_2 H3_2 1_555 1_555
C4_2 N4_2 1_555 1_555
H4_2 C4_2 1_555 1_555
C6_2 N7_2 1_555 1_555
H6_2 C6_2 1_555 1_555
H7_2 C7_2 1_555 1_555
Ag6_2 N3_2 1_555 1_555
Ag8_2 N2_2 1_555 1_555
N23_3 Ag1_2 1_555 1_555
N24_3 Ag1_2 1_555 1_555
N2_2 C1_2 1_555 1_555
N5_2 C4_2 1_555 1_555
N8_2 N9_2 1_555 1_555
N9_2 C6_2 1_555 1_555
H5_2 C5_2 1_555 1_555
N11_2 N12_2 1_555 1_555
N12_2 C8_2 1_555 1_555
C8_2 N10_2 1_555 1_555
H8_2 C8_2 1_555 1_555
Ag3_2 N11_2 1_555 1_555
N13_2 N16_2 1_555 1_555
N14_2 N15_2 1_555 1_555
N15_2 C10_2 1_555 1_555
N16_2 C11_2 1_555 1_555
N17_2 Ag3_2 1_555 1_555
N18_2 N17_2 1_555 1_555
C9_2 N13_2 1_555 1_555
H9_2 C9_2 1_555 1_555
C10_2 N13_2 1_555 1_555
H10_2 C10_2 1_555 1_555
C11_2 N18_2 1_555 1_555
H11_2 C11_2 1_555 1_555
C12_2 N16_2 1_555 1_555
H12_2 C12_2 1_555 1_555
Ag4_2 N12_2 1_555 1_555
Ag6_2 N14_2 1_555 1_555
Ag8_2 N15_2 1_555 1_555
N14_2 C9_2 1_555 1_555
N17_2 C12_2 1_555 1_555
N18_2 Ag4_2 1_555 1_555
N23_4 Ag4_2 1_555 1_555
N24_4 Ag4_2 1_555 1_555
Ag1_3 N6_3 1_555 1_555
Ag2_3 N5_3 1_555 1_555
N1_3 N4_3 1_555 1_555
N2_3 N3_3 1_555 1_555
N3_3 C2_3 1_555 1_555
N4_3 C3_3 1_555 1_555
N5_3 N6_3 1_555 1_555
N6_3 C3_3 1_555 1_555
N8_3 Ag2_3 1_555 1_555
N9_3 Ag1_3 1_555 1_555
C1_3 N1_3 1_555 1_555
H1_3 C1_3 1_555 1_555
C2_3 N1_3 1_555 1_555
H2_3 C2_3 1_555 1_555
C3_3 H3_3 1_555 1_555
C4_3 N4_3 1_555 1_555
H4_3 C4_3 1_555 1_555
C6_3 N7_3 1_555 1_555
H6_3 C6_3 1_555 1_555
Ag8_3 N2_3 1_555 1_555
N19_3 Ag2_3 1_555 1_555
N23_5 Ag1_3 1_555 1_555
N24_5 Ag1_3 1_555 1_555
N2_3 C1_3 1_555 1_555
N5_3 C4_3 1_555 1_555
N8_3 N9_3 1_555 1_555
N9_3 C6_3 1_555 1_555
H5_3 C5_3 1_555 1_555
H7_3 C7_3 1_555 1_555
N11_3 N12_3 1_555 1_555
N12_3 C8_3 1_555 1_555
C8_3 N10_3 1_555 1_555
H8_3 C8_3 1_555 1_555
Ag3_3 N11_3 1_555 1_555
N13_3 N16_3 1_555 1_555
N14_3 N15_3 1_555 1_555
N15_3 C10_3 1_555 1_555
N16_3 C11_3 1_555 1_555
N17_3 Ag3_3 1_555 1_555
N18_3 N17_3 1_555 1_555
C9_3 N13_3 1_555 1_555
H9_3 C9_3 1_555 1_555
C10_3 N13_3 1_555 1_555
H10_3 C10_3 1_555 1_555
C11_3 N18_3 1_555 1_555
H11_3 C11_3 1_555 1_555
C12_3 N16_3 1_555 1_555
H12_3 C12_3 1_555 1_555
Ag4_3 N12_3 1_555 1_555
Ag6_3 N14_3 1_555 1_555
N20_3 Ag3_3 1_555 1_555
N14_3 C9_3 1_555 1_555
N17_3 C12_3 1_555 1_555
N18_3 Ag4_3 1_555 1_555
N23_6 Ag4_3 1_555 1_555
N24_6 Ag4_3 1_555 1_555
N2_4 N3_4 1_555 1_555
N3_4 C2_4 1_555 1_555
C1_4 N1_4 1_555 1_555
H1_4 C1_4 1_555 1_555
C2_4 N1_4 1_555 1_555
H2_4 C2_4 1_555 1_555
N14_4 N15_4 1_555 1_555
N15_4 C10_4 1_555 1_555
C9_4 N13_4 1_555 1_555
H9_4 C9_4 1_555 1_555
C10_4 N13_4 1_555 1_555
H10_4 C10_4 1_555 1_555
Ag5 N3_4 1_555 1_555
Ag7 N15_4 1_555 1_555
N2_4 C1_4 1_555 1_555
N14_4 C9_4 1_555 1_555
Ag2_4 N5_4 1_555 1_555
N4_4 C3_4 1_555 1_555
N5_4 N23_3 1_555 1_555
N23_3 C3_4 1_555 1_555
N7_4 C5_4 1_555 1_555
N8_4 Ag2_4 1_555 1_555
C3_4 H3_4 1_555 1_555
C4_4 N4_4 1_555 1_555
H4_4 C4_4 1_555 1_555
C5_4 N8_4 1_555 1_555
H5_4 C5_4 1_555 1_555
C6_4 N7_4 1_555 1_555
H6_4 C6_4 1_555 1_555
N10_4 N7_4 1_555 1_555
N11_4 N24_4 1_555 1_555
N24_4 C8_4 1_555 1_555
C7_4 N10_4 1_555 1_555
H7_4 C7_4 1_555 1_555
C8_4 N10_4 1_555 1_555
H8_4 C8_4 1_555 1_555
Ag3_4 N11_4 1_555 1_555
N16_4 C11_4 1_555 1_555
N17_4 Ag3_4 1_555 1_555
N23_4 N17_4 1_555 1_555
C11_4 N23_4 1_555 1_555
H11_4 C11_4 1_555 1_555
C12_4 N16_4 1_555 1_555
H12_4 C12_4 1_555 1_555
N21_4 Ag3_4 1_555 1_555
N22_4 Ag2_4 1_555 1_555
N5_4 C4_4 1_555 1_555
N8_4 N24_3 1_555 1_555
N24_3 C6_4 1_555 1_555
N11_4 C7_4 1_555 1_555
N17_4 C12_4 1_555 1_555
N11_5 N24_5 1_555 1_555
N24_5 C8_5 1_555 1_555
C7_5 N10_5 1_555 1_555
H7_5 C7_5 1_555 1_555
C8_5 N10_5 1_555 1_555
H8_5 C8_5 1_555 1_555
Ag6_2 N11_5 1_555 1_555
N13_5 N16_5 1_555 1_555
N19_2 N21_2 1_555 1_555
N21_2 C10_5 1_555 1_555
N16_5 C11_5 1_555 1_555
N17_5 Ag6_2 1_555 1_555
N23_5 N17_5 1_555 1_555
C9_5 N13_5 1_555 1_555
H9_5 C9_5 1_555 1_555
C10_5 N13_5 1_555 1_555
H10_5 C10_5 1_555 1_555
C11_5 N23_5 1_555 1_555
H11_5 C11_5 1_555 1_555
C12_5 N16_5 1_555 1_555
H12_5 C12_5 1_555 1_555
N11_5 C7_5 1_555 1_555
N19_2 C9_5 1_555 1_555
N17_5 C12_5 1_555 1_555
Ag8_2 N5_5 1_555 1_555
N1_5 N4_5 1_555 1_555
N20_2 N22_2 1_555 1_555
N22_2 C2_5 1_555 1_555
N4_5 C3_5 1_555 1_555
N5_5 N23_6 1_555 1_555
N23_6 C3_5 1_555 1_555
N7_5 C5_5 1_555 1_555
N8_5 Ag8_2 1_555 1_555
C1_5 N1_5 1_555 1_555
H1_5 C1_5 1_555 1_555
C2_5 N1_5 1_555 1_555
H2_5 C2_5 1_555 1_555
C3_5 H3_5 1_555 1_555
C4_5 N4_5 1_555 1_555
H4_5 C4_5 1_555 1_555
C5_5 N8_5 1_555 1_555
H5_5 C5_5 1_555 1_555
C6_5 N7_5 1_555 1_555
H6_5 C6_5 1_555 1_555
N20_2 C1_5 1_555 1_555
N5_5 C4_5 1_555 1_555
N8_5 N24_6 1_555 1_555
N24_6 C6_5 1_555 1_555
Ag1_4 N6_4 1_555 1_555
Ag6 N5_6 1_555 1_555
N1_6 N4_6 1_555 1_555
N19 N21 1_555 1_555
N21 C2_6 1_555 1_555
N4_6 C3_6 1_555 1_555
N5_6 N6_4 1_555 1_555
N6_4 C3_6 1_555 1_555
N7_6 C5_6 1_555 1_555
N8_6 Ag6 1_555 1_555
N9_4 Ag1_4 1_555 1_555
C1_6 N1_6 1_555 1_555
H1_6 C1_6 1_555 1_555
C2_6 N1_6 1_555 1_555
H2_6 C2_6 1_555 1_555
C3_6 H3_6 1_555 1_555
C4_6 N4_6 1_555 1_555
H4_6 C4_6 1_555 1_555
C5_6 N8_6 1_555 1_555
H5_6 C5_6 1_555 1_555
C6_6 N7_6 1_555 1_555
H6_6 C6_6 1_555 1_555
N23_7 Ag1_4 1_555 1_555
N24_7 Ag1_4 1_555 1_555
N19 C1_6 1_555 1_555
N5_6 C4_6 1_555 1_555
N8_6 N9_4 1_555 1_555
N9_4 C6_6 1_555 1_555
N11_6 N12_4 1_555 1_555
N12_4 C8_6 1_555 1_555
C7_6 N10_6 1_555 1_555
H7_6 C7_6 1_555 1_555
C8_6 N10_6 1_555 1_555
H8_6 C8_6 1_555 1_555
Ag8 N11_6 1_555 1_555
N13_6 N16_6 1_555 1_555
N20 N22 1_555 1_555
N22 C10_6 1_555 1_555
N16_6 C11_6 1_555 1_555
N17_6 Ag8 1_555 1_555
N18_4 N17_6 1_555 1_555
C9_6 N13_6 1_555 1_555
H9_6 C9_6 1_555 1_555
C10_6 N13_6 1_555 1_555
H10_6 C10_6 1_555 1_555
C11_6 N18_4 1_555 1_555
H11_6 C11_6 1_555 1_555
C12_6 N16_6 1_555 1_555
H12_6 C12_6 1_555 1_555
Ag4_4 N12_4 1_555 1_555
N11_6 C7_6 1_555 1_555
N20 C9_6 1_555 1_555
N17_6 C12_6 1_555 1_555
N18_4 Ag4_4 1_555 1_555
N23_8 Ag4_4 1_555 1_555
N24_8 Ag4_4 1_555 1_555
Ag7 N5_7 1_555 1_555
N4_7 C3_7 1_555 1_555
N5_7 N23_2 1_555 1_555
N23_2 C3_7 1_555 1_555
N7_7 C5_7 1_555 1_555
N8_7 Ag7 1_555 1_555
C3_7 H3_7 1_555 1_555
C4_7 N4_7 1_555 1_555
H4_7 C4_7 1_555 1_555
C5_7 N8_7 1_555 1_555
H5_7 C5_7 1_555 1_555
C6_7 N7_7 1_555 1_555
H6_7 C6_7 1_555 1_555
N10_7 N7_7 1_555 1_555
N11_7 N24 1_555 1_555
N24 C8_7 1_555 1_555
C7_7 N10_7 1_555 1_555
H7_7 C7_7 1_555 1_555
C8_7 N10_7 1_555 1_555
H8_7 C8_7 1_555 1_555
Ag5 N11_7 1_555 1_555
N16_7 C11_7 1_555 1_555
N17_7 Ag5 1_555 1_555
N23 N17_7 1_555 1_555
C11_7 N23 1_555 1_555
H11_7 C11_7 1_555 1_555
C12_7 N16_7 1_555 1_555
H12_7 C12_7 1_555 1_555
N5_7 C4_7 1_555 1_555
N8_7 N24_2 1_555 1_555
N24_2 C6_7 1_555 1_555
N11_7 C7_7 1_555 1_555
N17_7 C12_7 1_555 1_555
N20_4 N22_4 1_555 1_555
N22_4 C2_7 1_555 1_555
C1_7 N1_7 1_555 1_555
H1_7 C1_7 1_555 1_555
C2_7 N1_7 1_555 1_555
H2_7 C2_7 1_555 1_555
N19_4 N21_4 1_555 1_555
N21_4 C10_7 1_555 1_555
C9_7 N13_7 1_555 1_555
H9_7 C9_7 1_555 1_555
C10_7 N13_7 1_555 1_555
H10_7 C10_7 1_555 1_555
N20_4 C1_7 1_555 1_555
N19_4 C9_7 1_555 1_555
H5_8 C5_8 1_555 1_555
N11_8 N24_8 1_555 1_555
N24_8 C8_8 1_555 1_555
C8_8 N10_8 1_555 1_555
H8_8 C8_8 1_555 1_555
Ag8_3 N11_8 1_555 1_555
N13_8 N16_8 1_555 1_555
N20_3 N22_3 1_555 1_555
N22_3 C10_8 1_555 1_555
N16_8 C11_8 1_555 1_555
N17_8 Ag8_3 1_555 1_555
N23_8 N17_8 1_555 1_555
C9_8 N13_8 1_555 1_555
H9_8 C9_8 1_555 1_555
C10_8 N13_8 1_555 1_555
H10_8 C10_8 1_555 1_555
C11_8 N23_8 1_555 1_555
H11_8 C11_8 1_555 1_555
C12_8 N16_8 1_555 1_555
H12_8 C12_8 1_555 1_555
N20_3 C9_8 1_555 1_555
N17_8 C12_8 1_555 1_555
Ag6_3 N5_8 1_555 1_555
N1_8 N4_8 1_555 1_555
N19_3 N21_3 1_555 1_555
N21_3 C2_8 1_555 1_555
N4_8 C3_8 1_555 1_555
N5_8 N23_7 1_555 1_555
N23_7 C3_8 1_555 1_555
N8_8 Ag6_3 1_555 1_555
C1_8 N1_8 1_555 1_555
H1_8 C1_8 1_555 1_555
C2_8 N1_8 1_555 1_555
H2_8 C2_8 1_555 1_555
C3_8 H3_8 1_555 1_555
C4_8 N4_8 1_555 1_555
H4_8 C4_8 1_555 1_555
C6_8 N7_8 1_555 1_555
H6_8 C6_8 1_555 1_555
N19_3 C1_8 1_555 1_555
N5_8 C4_8 1_555 1_555
N8_8 N24_7 1_555 1_555
N24_7 C6_8 1_555 1_555
H7_8 C7_8 1_555 1_555

#END
