
###############################################################################
#
# This file contains modified crystal structure data generated from the
# MOF subset of the Cambridge Structural Database (CSD) v543 
# hosted by the Cambridge Crystallographic Data Centre (CCDC).
#
# This work is licensed under the Creative Commons
# Attribution-NonCommercial-ShareAlike 4.0 International License.
# To view a copy of this license, visit
# http://creativecommons.org/licenses/by-nc-sa/4.0/
# or send a letter to
# Creative Commons, PO Box 1866, Mountain View, CA 94042, USA.
#
# CIF created using the CSD Python API on 29 September 2022
# The structure has been converted into the P1 space group
# The structure has a 3D framework
# The original CSD entry HOWPOZ is in the orthorhombic crystal system
# The framework has been calculated to contain at least 10.0% void space
# The void calculation uses a probe of radius 1.32A, grid spacing 0.4
# H atom positions have been added when not included in the experimental data
# Generated hydrogen atom positions removed from atoms on special positions
#
###############################################################################

data_HOWPOZ
_chemical_formula_moiety         '(C84 H104 Cd8 N24 O40)n'
_symmetry_cell_setting           triclinic
_symmetry_space_group_name_H-M   'P 1'
_symmetry_Int_Tables_number      1
_space_group_name_Hall           'P 1'
loop_
_symmetry_equiv_pos_site_id
_symmetry_equiv_pos_as_xyz
1 x,y,z
_cell_length_a                   20.033(5)
_cell_length_b                   13.645(3)
_cell_length_c                   13.199(3)
_cell_angle_alpha                90
_cell_angle_beta                 90
_cell_angle_gamma                90
_cell_volume                     3607.95
loop_
_atom_site_label
_atom_site_type_symbol
_atom_site_fract_x
_atom_site_fract_y
_atom_site_fract_z
C2 C 0.2161(5) 0.2034(6) 0.0053(7)
C3 C 0.2117(5) 0.2283(7) 0.1102(7)
C5 C 0.2369(5) 0.3181(8) 0.1394(8)
C6 C 0.2677(5) 0.3776(7) 0.0694(7)
Cd6 Cd 0.14890(3) 0.06158(5) 0.36629(5)
O8 O 0.1479(4) 0.0614(5) 0.0144(5)
O9 O 0.3521(4) 0.5614(5) 0.0144(5)
O11 O 0.1307(4) 0.1861(6) 0.2318(6)
O14 O 0.2197(4) 0.0913(5) 0.2199(6)
C15 C 0.1859(6) 0.1610(7) 0.1912(7)
H10 H 0.2331 0.3383 0.2065
H11 H 0.2843 0.4378 0.0909
Cd1 Cd 0.35110(3) 0.43842(5) 0.86629(5)
N1 N 0.2747(4) 0.3533(6) 0.9730(6)
N2 N 0.0531(4) 0.0234(6) 0.7941(5)
O1 O 0.2040(4) 0.0869(5) 0.8741(5)
C1 C 0.1870(5) 0.1121(7) 0.9629(7)
C8 C 0.0243(7) 0.0862(11) 0.8706(10)
H7 H 0.0996 0.0461 0.6593
H8 H 0.1159 0.1277 0.7396
C11 C 0.0000 0.2032(14) 0.7500
H9 H 0.0342 0.2452 0.7785
N5 N 0.4469(4) 0.5234(6) 0.7941(5)
N7 N 0.0287(6) 0.1476(9) 0.6706(10)
O7 O 0.2960(4) 0.5869(5) 0.8741(5)
O12 O 0.3693(4) 0.3139(6) 0.7318(6)
O15 O 0.2803(4) 0.4087(5) 0.7199(6)
O16 O 0.4279(4) 0.3394(6) 0.9478(6)
C18 C 0.2490(5) 0.2668(7) 0.9427(6)
H12 H 0.2539 0.2493 0.8751
H13 H 0.0064 0.0462 0.9249
H14 H 0.0590 0.1277 0.8990
C20 C 0.0806(6) 0.0867(10) 0.7124(11)
O3 O 0.3693(4) 0.6861(6) 0.2318(6)
O4 O 0.2803(4) 0.5913(5) 0.2199(6)
C4 C 0.3141(6) 0.6610(7) 0.1912(7)
H1 H 0.2669 0.8383 0.2065
H2 H 0.2157 0.9378 0.0909
Cd4 Cd 0.35110(3) 0.56158(5) 0.36629(5)
C13 C 0.2839(5) 0.7034(6) 0.0053(7)
C14 C 0.2883(5) 0.7283(7) 0.1102(7)
C16 C 0.2631(5) 0.8181(8) 0.1394(8)
C17 C 0.2323(5) 0.8776(7) 0.0694(7)
O5 O 0.0721(4) 0.8394(6) 0.9478(6)
C7 C 0.2510(5) 0.7668(7) 0.9427(6)
H3 H 0.2461 0.7493 0.8751
C9 C -0.0000 0.9634(9) 0.7500
H6 H 0.0188 0.9216 0.6979
Cd2 Cd 0.14890(3) 0.93842(5) 0.86629(5)
N4 N 0.2253(4) 0.8533(6) 0.9730(6)
O10 O 0.1307(4) 0.8139(6) 0.7318(6)
O13 O 0.2197(4) 0.9087(5) 0.7199(6)
C12 C 0.3130(5) 0.6121(7) 0.9629(7)
N3 N 0.9713(6) 0.1476(9) 0.8294(10)
H4 H 0.9936 0.0462 0.5751
H5 H 0.9410 0.1277 0.6010
C10 C 0.9194(6) 0.0867(10) 0.7876(11)
C11_2 C 1.0000 0.2032(14) 0.7500
N6 N 0.9469(4) 0.0234(6) 0.7059(5)
C19 C 0.9757(7) 0.0862(11) 0.6294(10)
H16 H 0.9004 0.0461 0.8407
H17 H 0.8841 0.1277 0.7604
H18 H 0.9658 0.2452 0.7215
C9_2 C 1.0000 0.9634(9) 0.7500
Cd5 Cd 0.85110(3) 0.93842(5) 0.63371(5)
H15 H 0.9812 0.9216 0.8021
N1_2 N 0.2253(4) 0.1467(6) 0.4730(6)
N2_2 N 0.4469(4) 0.4766(6) 0.2941(5)
N3_2 N 0.5287(6) 0.3524(9) 0.3294(10)
O1_2 O 0.2960(4) 0.4131(5) 0.3741(5)
O2 O 0.1479(4) 0.9386(5) 0.5144(5)
O5_2 O 0.4279(4) 0.6606(6) 0.4478(6)
C1_2 C 0.3130(5) 0.3879(7) 0.4629(7)
C2_2 C 0.2839(5) 0.2966(6) 0.5053(7)
C3_2 C 0.2883(5) 0.2717(7) 0.6102(7)
C4_2 C 0.1859(6) 0.8390(7) 0.6912(7)
C5_2 C 0.2631(5) 0.1819(8) 0.6394(8)
H1_2 H 0.2331 0.6617 0.7065
C6_2 C 0.2323(5) 0.1224(7) 0.5694(7)
H2_2 H 0.2843 0.5622 0.5909
C7_2 C 0.2490(5) 0.7332(7) 0.4427(6)
H3_2 H 0.2539 0.7507 0.3751
C8_2 C 0.4757(7) 0.4138(11) 0.3706(10)
H4_2 H 0.5064 0.4538 0.0751
H5_2 H 0.5590 0.3723 0.1010
C9_3 C 0.5000 0.5366(9) 0.2500
H6_2 H 0.4812 0.5784 0.1979
C10_2 C 0.5806(6) 0.4133(10) 0.2876(11)
H7_2 H 0.4004 0.4539 0.1593
H8_2 H 0.3841 0.3723 0.2396
C11_3 C 0.5000 0.2968(14) 0.2500
H9_2 H 0.4658 0.2548 0.2785
Cd5_2 Cd 0.64890(3) 0.56158(5) 0.13371(5)
N4_2 N 0.2747(4) 0.6467(6) 0.4730(6)
N6_2 N 0.5531(4) 0.4766(6) 0.2059(5)
N7_2 N 0.4713(6) 0.3524(9) 0.1706(10)
O6 O 0.2040(4) 0.9131(5) 0.3741(5)
O8_2 O 0.3521(4) 0.4386(5) 0.5144(5)
O16_2 O 0.0721(4) 0.1606(6) 0.4478(6)
C12_2 C 0.1870(5) 0.8879(7) 0.4629(7)
C13_2 C 0.2161(5) 0.7966(6) 0.5053(7)
C14_2 C 0.2117(5) 0.7717(7) 0.6102(7)
C15_2 C 0.3141(6) 0.3390(7) 0.6912(7)
C16_2 C 0.2369(5) 0.6819(8) 0.6394(8)
H10_2 H 0.2669 0.1617 0.7065
C17_2 C 0.2677(5) 0.6224(7) 0.5694(7)
H11_2 H 0.2157 0.0622 0.5909
C18_2 C 0.2510(5) 0.2332(7) 0.4427(6)
H12_2 H 0.2461 0.2507 0.3751
C19_2 C 0.5243(7) 0.4138(11) 0.1294(10)
H13_2 H 0.4936 0.4538 0.4249
H14_2 H 0.4410 0.3723 0.3990
H15_2 H 0.5188 0.5784 0.3021
C20_2 C 0.4194(6) 0.4133(10) 0.2124(11)
H16_2 H 0.5996 0.4539 0.3407
H17_2 H 0.6159 0.3723 0.2604
H18_2 H 0.5342 0.2548 0.2215
N5_2 N 0.0531(4) 0.9766(6) 0.2941(5)
Cd1_2 Cd 0.64890(3) 0.43842(5) 0.63371(5)
N1_3 N 0.7253(4) 0.3533(6) 0.5270(6)
O1_3 O 0.7960(4) 0.0869(5) 0.6259(5)
C1_3 C 0.8130(5) 0.1121(7) 0.5371(7)
C2_3 C 0.7839(5) 0.2034(6) 0.4947(7)
C3_3 C 0.7883(5) 0.2283(7) 0.3898(7)
C5_3 C 0.7631(5) 0.3181(8) 0.3606(8)
C6_3 C 0.7323(5) 0.3776(7) 0.4306(7)
Cd6_2 Cd 0.85110(3) 0.06158(5) 0.13371(5)
N5_3 N 0.5531(4) 0.5234(6) 0.7059(5)
O7_2 O 0.7040(4) 0.5869(5) 0.6259(5)
O8_3 O 0.8521(4) 0.0614(5) 0.4856(5)
O9_2 O 0.6479(4) 0.5614(5) 0.4856(5)
O11_2 O 0.8693(4) 0.1861(6) 0.2682(6)
O12_2 O 0.6307(4) 0.3139(6) 0.7682(6)
O14_2 O 0.7803(4) 0.0913(5) 0.2801(6)
O15_2 O 0.7197(4) 0.4087(5) 0.7801(6)
O16_3 O 0.5721(4) 0.3394(6) 0.5522(6)
C15_3 C 0.8141(6) 0.1610(7) 0.3088(7)
H10_3 H 0.7669 0.3383 0.2935
H11_3 H 0.7157 0.4378 0.4091
C18_3 C 0.7510(5) 0.2668(7) 0.5573(6)
H12_3 H 0.7461 0.2493 0.6249
O3_2 O 0.6307(4) 0.6861(6) 0.2682(6)
O4_2 O 0.7197(4) 0.5913(5) 0.2801(6)
O5_3 O 0.9279(4) 0.8394(6) 0.5522(6)
C4_3 C 0.6859(6) 0.6610(7) 0.3088(7)
H1_3 H 0.7331 0.8383 0.2935
H2_3 H 0.7843 0.9378 0.4091
C7_3 C 0.7490(5) 0.7668(7) 0.5573(6)
H3_3 H 0.7539 0.7493 0.6249
N4_3 N 0.7747(4) 0.8533(6) 0.5270(6)
O10_2 O 0.8693(4) 0.8139(6) 0.7682(6)
O13_2 O 0.7803(4) 0.9087(5) 0.7801(6)
C12_3 C 0.6870(5) 0.6121(7) 0.5371(7)
C13_3 C 0.7161(5) 0.7034(6) 0.4947(7)
C14_3 C 0.7117(5) 0.7283(7) 0.3898(7)
C16_3 C 0.7369(5) 0.8181(8) 0.3606(8)
C17_3 C 0.7677(5) 0.8776(7) 0.4306(7)
N1_4 N 0.7747(4) 0.1467(6) 0.0270(6)
O1_4 O 0.7040(4) 0.4131(5) 0.1259(5)
O5_4 O 0.5721(4) 0.6606(6) 0.0522(6)
C1_4 C 0.6870(5) 0.3879(7) 0.0371(7)
C7_4 C 0.7510(5) 0.7332(7) 0.0573(6)
H3_4 H 0.7461 0.7507 0.1249
N4_4 N 0.7253(4) 0.6467(6) 0.0270(6)
O6_2 O 0.7960(4) 0.9131(5) 0.1259(5)
O16_4 O 0.9279(4) 0.1606(6) 0.0522(6)
C12_4 C 0.8130(5) 0.8879(7) 0.0371(7)
C18_4 C 0.7490(5) 0.2332(7) 0.0573(6)
H12_4 H 0.7539 0.2507 0.1249
O2_2 O 0.8521(4) 0.9386(5) 0.9856(5)
C2_4 C 0.7161(5) 0.2966(6) 0.9947(7)
C3_4 C 0.7117(5) 0.2717(7) 0.8898(7)
C4_4 C 0.8141(6) 0.8390(7) 0.8088(7)
C5_4 C 0.7369(5) 0.1819(8) 0.8606(8)
H1_4 H 0.7669 0.6617 0.7935
C6_4 C 0.7677(5) 0.1224(7) 0.9306(7)
H2_4 H 0.7157 0.5622 0.9091
O8_4 O 0.6479(4) 0.4386(5) 0.9856(5)
C13_4 C 0.7839(5) 0.7966(6) 0.9947(7)
C14_4 C 0.7883(5) 0.7717(7) 0.8898(7)
C15_4 C 0.6859(6) 0.3390(7) 0.8088(7)
C16_4 C 0.7631(5) 0.6819(8) 0.8606(8)
H10_4 H 0.7331 0.1617 0.7935
C17_4 C 0.7323(5) 0.6224(7) 0.9306(7)
H11_4 H 0.7843 0.0622 0.9091
N5_4 N 0.9469(4) 0.9766(6) 0.2059(5)
C9_4 C 0.0000 0.0366(9) 0.2500
H15_3 H 0.0188 0.0784 0.1979
N3_3 N 0.0287(6) 0.8524(9) 0.1706(10)
H4_3 H 0.0064 0.9538 0.4249
H5_3 H 0.0590 0.8723 0.3990
C10_3 C 0.0806(6) 0.9133(10) 0.2124(11)
C11_4 C -0.0000 0.7968(14) 0.2500
C19_3 C 0.0243(7) 0.9138(11) 0.3706(10)
H16_3 H 0.0996 0.9539 0.1593
H17_3 H 0.1159 0.8723 0.2396
H18_3 H 0.0342 0.7548 0.2785
C9_5 C 1.0000 0.0366(9) 0.2500
H6_3 H 0.9812 0.0784 0.3021
C8_3 C 0.9757(7) 0.9138(11) 0.1294(10)
H7_3 H 0.9004 0.9539 0.3407
H8_3 H 0.8841 0.8723 0.2604
C11_5 C 1.0000 0.7968(14) 0.2500
H9_3 H 0.9658 0.7548 0.2215
N7_3 N 0.9713(6) 0.8524(9) 0.3294(10)
H13_3 H 0.9936 0.9538 0.0751
H14_3 H 0.9410 0.8723 0.1010
C20_3 C 0.9194(6) 0.9133(10) 0.2876(11)
N3_4 N 0.4713(6) 0.6476(9) 0.6706(10)
C8_4 C 0.5243(7) 0.5862(11) 0.6294(10)
H4_4 H 0.4936 0.5462 0.9249
H5_4 H 0.4410 0.6277 0.8990
C9_6 C 0.5000 0.4634(9) 0.7500
H6_4 H 0.5188 0.4216 0.8021
C10_4 C 0.4194(6) 0.5867(10) 0.7124(11)
H7_4 H 0.5996 0.5461 0.8407
H8_4 H 0.6159 0.6277 0.7604
C11_6 C 0.5000 0.7032(14) 0.7500
H9_4 H 0.5342 0.7452 0.7215
N7_4 N 0.5287(6) 0.6476(9) 0.8294(10)
C19_4 C 0.4757(7) 0.5862(11) 0.8706(10)
H13_4 H 0.5064 0.5462 0.5751
H14_4 H 0.5590 0.6277 0.6010
H15_4 H 0.4812 0.4216 0.6979
C20_4 C 0.5806(6) 0.5867(10) 0.7876(11)
H16_4 H 0.4004 0.5461 0.6593
H17_4 H 0.3841 0.6277 0.7396
H18_4 H 0.4658 0.7452 0.7785
loop_
_geom_bond_atom_site_label_1
_geom_bond_atom_site_label_2
_geom_bond_site_symmetry_1
_geom_bond_site_symmetry_2
C2 C3 1_555 1_555
C3 C5 1_555 1_555
C5 C6 1_555 1_555
C6 H11 1_555 1_555
Cd6 O11 1_555 1_555
O11 C15 1_555 1_555
O14 Cd6 1_555 1_555
C15 C3 1_555 1_555
H10 C5 1_555 1_555
O14 C15 1_555 1_555
Cd1 N1 1_555 1_555
N2 C8 1_555 1_555
O1 C1 1_555 1_555
C8 H13 1_555 1_555
H7 C20 1_555 1_555
H8 C20 1_555 1_555
H9 C11 1_555 1_555
N5 Cd1 1_555 1_555
N7 C11 1_555 1_555
O7 Cd1 1_555 1_555
O12 Cd1 1_555 1_555
O15 Cd1 1_555 1_555
O16 Cd1 1_555 1_555
C18 N1 1_555 1_555
H12 C18 1_555 1_555
H14 C8 1_555 1_555
C20 N2 1_555 1_555
N7 C20 1_555 1_555
O3 C4 1_555 1_555
O4 C4 1_555 1_555
C4 C14 1_555 1_555
H1 C16 1_555 1_555
H2 C17 1_555 1_555
Cd4 O3 1_555 1_555
C14 C13 1_555 1_555
C16 C14 1_555 1_555
O4 Cd4 1_555 1_555
C16 C17 1_555 1_555
O5 Cd2 1_555 1_555
C7 H3 1_555 1_555
H6 C9 1_555 1_555
N4 C7 1_555 1_555
O7 C12 1_555 1_555
O10 Cd2 1_555 1_555
O13 Cd2 1_555 1_555
Cd2 N4 1_555 1_555
H4 C19 1_555 1_555
H5 C19 1_555 1_555
C10 N3 1_555 1_555
C11_2 N3 1_555 1_555
C19 N6 1_555 1_555
H16 C10 1_555 1_555
H17 C10 1_555 1_555
H18 C11_2 1_555 1_555
C10 N6 1_555 1_555
H15 C9_2 1_555 1_555
Cd6 N1_2 1_555 1_555
N1_2 C6_2 1_555 1_555
N2_2 C8_2 1_555 1_555
N3_2 C8_2 1_555 1_555
O1_2 C1_2 1_555 1_555
O10 C4_2 1_555 1_555
O13 C4_2 1_555 1_555
O5_2 Cd4 1_555 1_555
C1_2 C2_2 1_555 1_555
C2_2 C3_2 1_555 1_555
C3_2 C5_2 1_555 1_555
C4_2 C14_2 1_555 1_555
C5_2 C6_2 1_555 1_555
H1_2 C16_2 1_555 1_555
C6_2 H11_2 1_555 1_555
H2_2 C17_2 1_555 1_555
C7_2 H3_2 1_555 1_555
C8_2 H13_2 1_555 1_555
H4_2 C19_2 1_555 1_555
H5_2 C19_2 1_555 1_555
C9_3 N2_2 1_555 1_555
H6_2 C9_3 1_555 1_555
C10_2 N3_2 1_555 1_555
H7_2 C20_2 1_555 1_555
H8_2 C20_2 1_555 1_555
C11_3 N3_2 1_555 1_555
H9_2 C11_3 1_555 1_555
Cd4 N2_2 1_555 1_555
Cd5_2 N6_2 1_555 1_555
N4_2 C7_2 1_555 1_555
N6_2 C9_3 1_555 1_555
N7_2 C11_3 1_555 1_555
O6 C12_2 1_555 1_555
O8_2 C1_2 1_555 1_555
O12 C15_2 1_555 1_555
O16_2 Cd6 1_555 1_555
C12_2 O2 1_555 1_555
C13_2 C7_2 1_555 1_555
C14_2 C13_2 1_555 1_555
C15_2 C3_2 1_555 1_555
C16_2 C14_2 1_555 1_555
H10_2 C5_2 1_555 1_555
C17_2 N4_2 1_555 1_555
C18_2 N1_2 1_555 1_555
H12_2 C18_2 1_555 1_555
C19_2 N6_2 1_555 1_555
H14_2 C8_2 1_555 1_555
H15_2 C9_3 1_555 1_555
C20_2 N2_2 1_555 1_555
H16_2 C10_2 1_555 1_555
H17_2 C10_2 1_555 1_555
H18_2 C11_3 1_555 1_555
O1_2 Cd4 1_555 1_555
C2_2 C18_2 1_555 1_555
C10_2 N6_2 1_555 1_555
Cd4 N4_2 1_555 1_555
Cd4 O8_2 1_555 1_555
N7_2 C19_2 1_555 1_555
N7_2 C20_2 1_555 1_555
O15 C15_2 1_555 1_555
C12_2 C13_2 1_555 1_555
C16_2 C17_2 1_555 1_555
Cd1_2 N1_3 1_555 1_555
N1_3 C6_3 1_555 1_555
O1_3 C1_3 1_555 1_555
C1_3 C2_3 1_555 1_555
C2_3 C3_3 1_555 1_555
C3_3 C5_3 1_555 1_555
C5_3 C6_3 1_555 1_555
C6_3 H11_3 1_555 1_555
Cd6_2 O11_2 1_555 1_555
N5_3 Cd1_2 1_555 1_555
O7_2 Cd1_2 1_555 1_555
O8_3 C1_3 1_555 1_555
O9_2 Cd1_2 1_555 1_555
O11_2 C15_3 1_555 1_555
O12_2 Cd1_2 1_555 1_555
O14_2 Cd6_2 1_555 1_555
O15_2 Cd1_2 1_555 1_555
O16_3 Cd1_2 1_555 1_555
C15_3 C3_3 1_555 1_555
H10_3 C5_3 1_555 1_555
C18_3 N1_3 1_555 1_555
H12_3 C18_3 1_555 1_555
C2_3 C18_3 1_555 1_555
O14_2 C15_3 1_555 1_555
O3_2 C4_3 1_555 1_555
O4_2 C4_3 1_555 1_555
O5_3 Cd5 1_555 1_555
C4_3 C14_3 1_555 1_555
H1_3 C16_3 1_555 1_555
H2_3 C17_3 1_555 1_555
C7_3 H3_3 1_555 1_555
Cd5_2 O3_2 1_555 1_555
N4_3 C7_3 1_555 1_555
O7_2 C12_3 1_555 1_555
O10_2 Cd5 1_555 1_555
O13_2 Cd5 1_555 1_555
C12_3 O9_2 1_555 1_555
C13_3 C7_3 1_555 1_555
C14_3 C13_3 1_555 1_555
C16_3 C14_3 1_555 1_555
C17_3 N4_3 1_555 1_555
O4_2 Cd5_2 1_555 1_555
Cd5 N4_3 1_555 1_555
C12_3 C13_3 1_555 1_555
C16_3 C17_3 1_555 1_555
Cd6_2 N1_4 1_555 1_555
O1_4 C1_4 1_555 1_555
O5_4 Cd5_2 1_555 1_555
C7_4 H3_4 1_555 1_555
N4_4 C7_4 1_555 1_555
O6_2 C12_4 1_555 1_555
O16_4 Cd6_2 1_555 1_555
C18_4 N1_4 1_555 1_555
H12_4 C18_4 1_555 1_555
O1_4 Cd5_2 1_555 1_555
Cd5_2 N4_4 1_555 1_555
O10_2 C4_4 1_555 1_555
O13_2 C4_4 1_555 1_555
C2_4 C3_4 1_555 1_555
C3_4 C5_4 1_555 1_555
C4_4 C14_4 1_555 1_555
C5_4 C6_4 1_555 1_555
H1_4 C16_4 1_555 1_555
C6_4 H11_4 1_555 1_555
H2_4 C17_4 1_555 1_555
O12_2 C15_4 1_555 1_555
C14_4 C13_4 1_555 1_555
C15_4 C3_4 1_555 1_555
C16_4 C14_4 1_555 1_555
H10_4 C5_4 1_555 1_555
O15_2 C15_4 1_555 1_555
C16_4 C17_4 1_555 1_555
H15_3 C9_4 1_555 1_555
H4_3 C19_3 1_555 1_555
H5_3 C19_3 1_555 1_555
C10_3 N3_3 1_555 1_555
C11_4 N3_3 1_555 1_555
C19_3 N5_2 1_555 1_555
H16_3 C10_3 1_555 1_555
H17_3 C10_3 1_555 1_555
H18_3 C11_4 1_555 1_555
C10_3 N5_2 1_555 1_555
H6_3 C9_5 1_555 1_555
N5_4 C8_3 1_555 1_555
C8_3 H13_3 1_555 1_555
H7_3 C20_3 1_555 1_555
H8_3 C20_3 1_555 1_555
H9_3 C11_5 1_555 1_555
N7_3 C11_5 1_555 1_555
H14_3 C8_3 1_555 1_555
C20_3 N5_4 1_555 1_555
N7_3 C20_3 1_555 1_555
N5_3 C8_4 1_555 1_555
N3_4 C8_4 1_555 1_555
C8_4 H13_4 1_555 1_555
H4_4 C19_4 1_555 1_555
H5_4 C19_4 1_555 1_555
C9_6 N5_3 1_555 1_555
H6_4 C9_6 1_555 1_555
C10_4 N3_4 1_555 1_555
H7_4 C20_4 1_555 1_555
H8_4 C20_4 1_555 1_555
C11_6 N3_4 1_555 1_555
H9_4 C11_6 1_555 1_555
N5 C9_6 1_555 1_555
N7_4 C11_6 1_555 1_555
C19_4 N5 1_555 1_555
H14_4 C8_4 1_555 1_555
H15_4 C9_6 1_555 1_555
C20_4 N5_3 1_555 1_555
H16_4 C10_4 1_555 1_555
H17_4 C10_4 1_555 1_555
H18_4 C11_6 1_555 1_555
C10_4 N5 1_555 1_555
N7_4 C19_4 1_555 1_555
N7_4 C20_4 1_555 1_555

#END
