
###############################################################################
#
# This file contains modified crystal structure data generated from the
# MOF subset of the Cambridge Structural Database (CSD) v543 
# hosted by the Cambridge Crystallographic Data Centre (CCDC).
#
# This work is licensed under the Creative Commons
# Attribution-NonCommercial-ShareAlike 4.0 International License.
# To view a copy of this license, visit
# http://creativecommons.org/licenses/by-nc-sa/4.0/
# or send a letter to
# Creative Commons, PO Box 1866, Mountain View, CA 94042, USA.
#
# CIF created using the CSD Python API on 29 September 2022
# The structure has been converted into the P1 space group
# The structure has a 3D framework
# The original CSD entry HOWQER01 is in the orthorhombic crystal system
# The framework has been calculated to contain at least 10.0% void space
# The void calculation uses a probe of radius 1.32A, grid spacing 0.4
# The framework is charged, counterions have been retained in the structure
#
###############################################################################

data_HOWQER01
_chemical_formula_moiety         '(C100 H60 Ag2 Co6 N52 O20 8+)n'
_symmetry_cell_setting           triclinic
_symmetry_space_group_name_H-M   'P 1'
_symmetry_Int_Tables_number      1
_space_group_name_Hall           'P 1'
loop_
_symmetry_equiv_pos_site_id
_symmetry_equiv_pos_as_xyz
1 x,y,z
_cell_length_a                   13.7068(5)
_cell_length_b                   14.0495(5)
_cell_length_c                   13.9218(5)
_cell_angle_alpha                90
_cell_angle_beta                 90
_cell_angle_gamma                90
_cell_volume                     2680.97
loop_
_atom_site_label
_atom_site_type_symbol
_atom_site_fract_x
_atom_site_fract_y
_atom_site_fract_z
Ag5 Ag 0.0000 0.12671(3) 0.2500
Ag1 Ag 0.5000 0.62671(3) 0.2500
N1 N 0.6643(3) 0.6497(2) 0.2500
N2 N 0.5000 0.7216(3) 0.4179(2)
O1 O 0.5000 0.47665(17) 0.1484(2)
C1 C 0.5000 0.3919(2) 0.1628(2)
N3 N 0.5000 0.3462(2) 0.2500
C2 C 0.5000 0.3197(2) 0.0835(2)
Co1 Co 0.5000 0.21091(3) 0.2500
N4 N 0.5000 0.22748(16) 0.11102(18)
N5 N 0.3603(2) 0.19550(17) 0.2500
N6 N 0.5000 0.0751(2) 0.2500
C4 C 0.5000 0.1611(3) 0.0422(3)
C5 C 0.3310(2) 0.1042(2) 0.2500
C6 C 0.2916(3) 0.2636(2) 0.2500
C7 C 0.4114(3) 0.0306(2) 0.2500
H2 H 0.5000 0.0968 0.0584
C9 C 0.2322(3) 0.0818(2) 0.2500
C10 C 0.1941(3) 0.2399(3) 0.2500
H3 H 0.3099 0.3273 0.2500
H5 H 0.2131 0.0183 0.2500
H6 H 0.1478 0.2882 0.2500
N7 N 0.3357(3) 0.6497(2) 0.2500
N8 N 0.5000 0.7216(3) 0.0821(2)
O3 O 0.5000 0.47665(17) 0.3516(2)
C11 C 0.5000 0.3919(2) 0.3372(2)
C12 C 0.5000 0.3197(2) 0.4165(2)
C13 C 0.5000 0.3439(3) 0.5126(3)
N9 N 0.5000 0.22748(16) 0.38898(18)
N10 N 0.6397(2) 0.19550(17) 0.2500
N12 N 0.5000 0.2784(3) 0.5821(2)
H7 H 0.5000 0.4080 0.5295
C14 C 0.5000 0.1611(3) 0.4578(3)
Ag2 Ag 0.5000 0.37329(3) 0.7500
C15 C 0.5886(3) 0.0306(2) 0.2500
C16 C 0.6690(2) 0.1042(2) 0.2500
C17 C 0.7084(3) 0.2636(2) 0.2500
C18 C 0.5000 0.1887(3) 0.5537(3)
H8 H 0.5000 0.0968 0.4416
C19 C 0.7678(3) 0.0818(2) 0.2500
C20 C 0.8059(3) 0.2399(3) 0.2500
H9 H 0.6901 0.3273 0.2500
H10 H 0.5000 0.1414 0.6005
N13 N 0.1643(3) 0.1497(2) 0.2500
H11 H 0.7869 0.0183 0.2500
N14 N 0.8357(3) 0.1497(2) 0.2500
H12 H 0.8522 0.2882 0.2500
Ag5_2 Ag 1.0000 0.12671(3) 0.2500
C3 C 0.5000 0.3439(3) 0.9874(3)
H1 H 0.5000 0.4080 0.9705
C8 C 0.5000 0.1887(3) 0.9463(3)
H4 H 0.5000 0.1414 0.8995
N11 N 0.5000 0.2784(3) 0.9179(2)
Ag4 Ag 0.0000 0.87329(3) 0.7500
C13_2 C 0.5000 0.6561(3) 0.0126(3)
H7_2 H 0.5000 0.5920 0.0295
C18_2 C 0.5000 0.8113(3) 0.0537(3)
H10_2 H 0.5000 0.8586 0.1005
N1_2 N 0.3357(3) 0.3503(2) 0.7500
O1_2 O 0.5000 0.52335(17) 0.6484(2)
C1_2 C 0.5000 0.6081(2) 0.6628(2)
N3_2 N 0.5000 0.6538(2) 0.7500
C2_2 C 0.5000 0.6803(2) 0.5835(2)
Co1_2 Co 0.5000 0.78909(3) 0.7500
C3_2 C 0.5000 0.6561(3) 0.4874(3)
N4_2 N 0.5000 0.77252(16) 0.61102(18)
N5_2 N 0.6397(2) 0.80450(17) 0.7500
N6_2 N 0.5000 0.9249(2) 0.7500
H1_2 H 0.5000 0.5920 0.4705
C4_2 C 0.5000 0.8389(3) 0.5422(3)
C5_2 C 0.6690(2) 0.8958(2) 0.7500
C6_2 C 0.7084(3) 0.7364(2) 0.7500
C7_2 C 0.5886(3) 0.9694(2) 0.7500
C8_2 C 0.5000 0.8113(3) 0.4463(3)
H2_2 H 0.5000 0.9032 0.5584
C9_2 C 0.7678(3) 0.9182(2) 0.7500
C10_2 C 0.8059(3) 0.7601(3) 0.7500
H3_2 H 0.6901 0.6727 0.7500
H4_2 H 0.5000 0.8586 0.3995
H5_2 H 0.7869 0.9817 0.7500
H6_2 H 0.8522 0.7118 0.7500
N7_2 N 0.6643(3) 0.3503(2) 0.7500
O3_2 O 0.5000 0.52335(17) 0.8516(2)
C11_2 C 0.5000 0.6081(2) 0.8372(2)
C12_2 C 0.5000 0.6803(2) 0.9165(2)
N9_2 N 0.5000 0.77252(16) 0.88898(18)
N10_2 N 0.3603(2) 0.80450(17) 0.7500
C14_2 C 0.5000 0.8389(3) 0.9578(3)
C15_2 C 0.4114(3) 0.9694(2) 0.7500
C16_2 C 0.3310(2) 0.8958(2) 0.7500
C17_2 C 0.2916(3) 0.7364(2) 0.7500
H8_2 H 0.5000 0.9032 0.9416
C19_2 C 0.2322(3) 0.9182(2) 0.7500
C20_2 C 0.1941(3) 0.7601(3) 0.7500
H9_2 H 0.3099 0.6727 0.7500
N13_2 N 0.8357(3) 0.8503(2) 0.7500
H11_2 H 0.2131 0.9817 0.7500
N14_2 N 0.1643(3) 0.8503(2) 0.7500
H12_2 H 0.1478 0.7118 0.7500
Ag4_2 Ag 1.0000 0.87329(3) 0.7500
N2_2 N 0.0000 0.2216(3) 0.4179(2)
N8_2 N 0.0000 0.2216(3) 0.0821(2)
O1_3 O -0.0000 0.97665(17) 0.1484(2)
C1_3 C -0.0000 0.8919(2) 0.1628(2)
N3_3 N -0.0000 0.8462(2) 0.2500
C2_3 C 0.0000 0.8197(2) 0.0835(2)
Co1_3 Co -0.0000 0.71091(3) 0.2500
N4_3 N -0.0000 0.72748(16) 0.11102(18)
N6_3 N -0.0000 0.5751(2) 0.2500
C4_3 C 0.0000 0.6611(3) 0.0422(3)
H2_3 H -0.0000 0.5968 0.0584
O3_3 O -0.0000 0.97665(17) 0.3516(2)
C11_3 C 0.0000 0.8919(2) 0.3372(2)
C12_3 C -0.0000 0.8197(2) 0.4165(2)
C13_3 C -0.0000 0.8439(3) 0.5126(3)
N9_3 N -0.0000 0.72748(16) 0.38898(18)
N10_3 N 0.1397(2) 0.69550(17) 0.2500
N12_2 N 0.0000 0.7784(3) 0.5821(2)
H7_3 H 0.0000 0.9080 0.5295
C14_3 C -0.0000 0.6611(3) 0.4578(3)
C15_3 C 0.0886(3) 0.5306(2) 0.2500
C16_3 C 0.1690(2) 0.6042(2) 0.2500
C17_3 C 0.2084(3) 0.7636(2) 0.2500
C18_3 C 0.0000 0.6887(3) 0.5537(3)
H8_3 H -0.0000 0.5968 0.4416
O4 O 0.1041(3) 0.4458(2) 0.2500
C19_3 C 0.2678(3) 0.5818(2) 0.2500
C20_3 C 0.3059(3) 0.7399(3) 0.2500
H9_3 H 0.1901 0.8273 0.2500
H10_3 H 0.0000 0.6414 0.6005
H11_3 H 0.2869 0.5183 0.2500
H12_3 H 0.3522 0.7882 0.2500
C3_3 C -0.0000 0.8439(3) 0.9874(3)
H1_3 H 0.0000 0.9080 0.9705
C8_3 C 0.0000 0.6887(3) 0.9463(3)
H4_3 H 0.0000 0.6414 0.8995
N11_2 N 0.0000 0.7784(3) 0.9179(2)
N2_3 N 1.0000 0.2216(3) 0.4179(2)
N8_3 N 1.0000 0.2216(3) 0.0821(2)
O1_4 O 1.0000 0.97665(17) 0.1484(2)
C1_4 C 1.0000 0.8919(2) 0.1628(2)
N3_4 N 1.0000 0.8462(2) 0.2500
C2_4 C 1.0000 0.8197(2) 0.0835(2)
Co1_4 Co 1.0000 0.71091(3) 0.2500
N4_4 N 1.0000 0.72748(16) 0.11102(18)
N5_3 N 0.8603(2) 0.69550(17) 0.2500
N6_4 N 1.0000 0.5751(2) 0.2500
C4_4 C 1.0000 0.6611(3) 0.0422(3)
C5_3 C 0.8310(2) 0.6042(2) 0.2500
C6_3 C 0.7916(3) 0.7636(2) 0.2500
C7_3 C 0.9114(3) 0.5306(2) 0.2500
H2_4 H 1.0000 0.5968 0.0584
C9_3 C 0.7322(3) 0.5818(2) 0.2500
C10_3 C 0.6941(3) 0.7399(3) 0.2500
H3_3 H 0.8099 0.8273 0.2500
O2 O 0.8959(3) 0.4458(2) 0.2500
H5_3 H 0.7131 0.5183 0.2500
H6_3 H 0.6478 0.7882 0.2500
O3_4 O 1.0000 0.97665(17) 0.3516(2)
C11_4 C 1.0000 0.8919(2) 0.3372(2)
C12_4 C 1.0000 0.8197(2) 0.4165(2)
C13_4 C 1.0000 0.8439(3) 0.5126(3)
N9_4 N 1.0000 0.72748(16) 0.38898(18)
N12_3 N 1.0000 0.7784(3) 0.5821(2)
H7_4 H 1.0000 0.9080 0.5295
C14_4 C 1.0000 0.6611(3) 0.4578(3)
C18_4 C 1.0000 0.6887(3) 0.5537(3)
H8_4 H 1.0000 0.5968 0.4416
H10_4 H 1.0000 0.6414 0.6005
C3_4 C 1.0000 0.8439(3) 0.9874(3)
H1_4 H 1.0000 0.9080 0.9705
C8_4 C 1.0000 0.6887(3) 0.9463(3)
H4_4 H 1.0000 0.6414 0.8995
N11_3 N 1.0000 0.7784(3) 0.9179(2)
C13_5 C 0.0000 0.1561(3) 0.0126(3)
H7_5 H -0.0000 0.0920 0.0295
C18_5 C -0.0000 0.3113(3) 0.0537(3)
H10_5 H -0.0000 0.3586 0.1005
O1_5 O 0.0000 0.02335(17) 0.6484(2)
C1_5 C -0.0000 0.1081(2) 0.6628(2)
N3_5 N 0.0000 0.1538(2) 0.7500
C2_5 C -0.0000 0.1803(2) 0.5835(2)
Co1_5 Co -0.0000 0.28909(3) 0.7500
C3_5 C 0.0000 0.1561(3) 0.4874(3)
N4_5 N 0.0000 0.27252(16) 0.61102(18)
N5_4 N 0.1397(2) 0.30450(17) 0.7500
N6_5 N 0.0000 0.4249(2) 0.7500
H1_5 H 0.0000 0.0920 0.4705
C4_5 C -0.0000 0.3389(3) 0.5422(3)
C5_4 C 0.1690(2) 0.3958(2) 0.7500
C6_4 C 0.2084(3) 0.2364(2) 0.7500
C7_4 C 0.0886(3) 0.4694(2) 0.7500
C8_5 C 0.0000 0.3113(3) 0.4463(3)
H2_5 H 0.0000 0.4032 0.5584
C9_4 C 0.2678(3) 0.4182(2) 0.7500
C10_4 C 0.3059(3) 0.2601(3) 0.7500
H3_4 H 0.1901 0.1727 0.7500
O2_2 O 0.1041(3) 0.5542(2) 0.7500
H4_5 H 0.0000 0.3586 0.3995
H5_4 H 0.2869 0.4817 0.7500
H6_4 H 0.3522 0.2118 0.7500
O3_5 O 0.0000 0.02335(17) 0.8516(2)
C11_5 C -0.0000 0.1081(2) 0.8372(2)
C12_5 C 0.0000 0.1803(2) 0.9165(2)
N9_5 N -0.0000 0.27252(16) 0.88898(18)
C14_5 C 0.0000 0.3389(3) 0.9578(3)
H8_5 H 0.0000 0.4032 0.9416
C13_6 C 1.0000 0.1561(3) 0.0126(3)
H7_6 H 1.0000 0.0920 0.0295
C18_6 C 1.0000 0.3113(3) 0.0537(3)
H10_6 H 1.0000 0.3586 0.1005
O1_6 O 1.0000 0.02335(17) 0.6484(2)
C1_6 C 1.0000 0.1081(2) 0.6628(2)
N3_6 N 1.0000 0.1538(2) 0.7500
C2_6 C 1.0000 0.1803(2) 0.5835(2)
Co1_6 Co 1.0000 0.28909(3) 0.7500
C3_6 C 1.0000 0.1561(3) 0.4874(3)
N4_6 N 1.0000 0.27252(16) 0.61102(18)
N6_6 N 1.0000 0.4249(2) 0.7500
H1_6 H 1.0000 0.0920 0.4705
C4_6 C 1.0000 0.3389(3) 0.5422(3)
C8_6 C 1.0000 0.3113(3) 0.4463(3)
H2_6 H 1.0000 0.4032 0.5584
H4_6 H 1.0000 0.3586 0.3995
O3_6 O 1.0000 0.02335(17) 0.8516(2)
C11_6 C 1.0000 0.1081(2) 0.8372(2)
C12_6 C 1.0000 0.1803(2) 0.9165(2)
N9_6 N 1.0000 0.27252(16) 0.88898(18)
N10_4 N 0.8603(2) 0.30450(17) 0.7500
C14_6 C 1.0000 0.3389(3) 0.9578(3)
C15_4 C 0.9114(3) 0.4694(2) 0.7500
C16_4 C 0.8310(2) 0.3958(2) 0.7500
C17_4 C 0.7916(3) 0.2364(2) 0.7500
H8_6 H 1.0000 0.4032 0.9416
O4_2 O 0.8959(3) 0.5542(2) 0.7500
C19_4 C 0.7322(3) 0.4182(2) 0.7500
C20_4 C 0.6941(3) 0.2601(3) 0.7500
H9_4 H 0.8099 0.1727 0.7500
H11_4 H 0.7131 0.4817 0.7500
H12_4 H 0.6478 0.2118 0.7500
O2_3 O 0.3959(3) 0.9458(2) 0.2500
O4_3 O 0.6041(3) 0.9458(2) 0.2500
O2_4 O 0.6041(3) 0.0542(2) 0.7500
O4_4 O 0.3959(3) 0.0542(2) 0.7500
loop_
_geom_bond_atom_site_label_1
_geom_bond_atom_site_label_2
_geom_bond_site_symmetry_1
_geom_bond_site_symmetry_2
Ag1 N1 1_555 1_555
N2 Ag1 1_555 1_555
O1 Ag1 1_555 1_555
C1 O1 1_555 1_555
N3 C1 1_555 1_555
C2 C1 1_555 1_555
Co1 N3 1_555 1_555
N4 C2 1_555 1_555
N5 Co1 1_555 1_555
N6 Co1 1_555 1_555
C4 N4 1_555 1_555
C5 N5 1_555 1_555
C6 N5 1_555 1_555
C7 N6 1_555 1_555
H2 C4 1_555 1_555
C9 C5 1_555 1_555
C10 C6 1_555 1_555
H3 C6 1_555 1_555
H5 C9 1_555 1_555
H6 C10 1_555 1_555
N7 Ag1 1_555 1_555
N8 Ag1 1_555 1_555
O3 Ag1 1_555 1_555
C11 N3 1_555 1_555
C12 C11 1_555 1_555
C13 C12 1_555 1_555
N9 Co1 1_555 1_555
N10 Co1 1_555 1_555
N12 C13 1_555 1_555
H7 C13 1_555 1_555
C14 N9 1_555 1_555
Ag2 N12 1_555 1_555
C15 N6 1_555 1_555
C16 N10 1_555 1_555
C17 N10 1_555 1_555
C18 N12 1_555 1_555
H8 C14 1_555 1_555
C19 C16 1_555 1_555
C20 C17 1_555 1_555
H9 C17 1_555 1_555
H10 C18 1_555 1_555
N13 C9 1_555 1_555
H11 C19 1_555 1_555
N14 C19 1_555 1_555
H12 C20 1_555 1_555
Ag5 N13 1_555 1_555
Ag5_2 N14 1_555 1_555
Co1 N4 1_555 1_555
C5 C7 1_555 1_555
C10 N13 1_555 1_555
O3 C11 1_555 1_555
C12 N9 1_555 1_555
C14 C18 1_555 1_555
C15 C16 1_555 1_555
C20 N14 1_555 1_555
H1 C3 1_555 1_555
H4 C8 1_555 1_555
N11 C3 1_555 1_555
Ag2 N11 1_555 1_555
C8 N11 1_555 1_555
N8 C13_2 1_555 1_555
H7_2 C13_2 1_555 1_555
C18_2 N8 1_555 1_555
H10_2 C18_2 1_555 1_555
Ag2 N1_2 1_555 1_555
O1_2 Ag2 1_555 1_555
C1_2 O1_2 1_555 1_555
N3_2 C1_2 1_555 1_555
C2_2 C1_2 1_555 1_555
Co1_2 N3_2 1_555 1_555
C3_2 C2_2 1_555 1_555
N4_2 C2_2 1_555 1_555
N5_2 Co1_2 1_555 1_555
N6_2 Co1_2 1_555 1_555
H1_2 C3_2 1_555 1_555
C4_2 N4_2 1_555 1_555
C5_2 N5_2 1_555 1_555
C6_2 N5_2 1_555 1_555
C7_2 N6_2 1_555 1_555
C8_2 C4_2 1_555 1_555
H2_2 C4_2 1_555 1_555
C9_2 C5_2 1_555 1_555
C10_2 C6_2 1_555 1_555
H3_2 C6_2 1_555 1_555
H4_2 C8_2 1_555 1_555
H5_2 C9_2 1_555 1_555
H6_2 C10_2 1_555 1_555
N7_2 Ag2 1_555 1_555
O3_2 Ag2 1_555 1_555
C11_2 N3_2 1_555 1_555
C12_2 C11_2 1_555 1_555
N9_2 Co1_2 1_555 1_555
N10_2 Co1_2 1_555 1_555
N2 C3_2 1_555 1_555
C14_2 N9_2 1_555 1_555
C15_2 N6_2 1_555 1_555
C16_2 N10_2 1_555 1_555
C17_2 N10_2 1_555 1_555
H8_2 C14_2 1_555 1_555
C19_2 C16_2 1_555 1_555
C20_2 C17_2 1_555 1_555
H9_2 C17_2 1_555 1_555
N13_2 C9_2 1_555 1_555
H11_2 C19_2 1_555 1_555
N14_2 C19_2 1_555 1_555
H12_2 C20_2 1_555 1_555
Ag4_2 N13_2 1_555 1_555
Ag4 N14_2 1_555 1_555
Co1_2 N4_2 1_555 1_555
C5_2 C7_2 1_555 1_555
C8_2 N2 1_555 1_555
C10_2 N13_2 1_555 1_555
O3_2 C11_2 1_555 1_555
C12_2 N9_2 1_555 1_555
C15_2 C16_2 1_555 1_555
C20_2 N14_2 1_555 1_555
N2_2 Ag5 1_555 1_555
N8_2 Ag5 1_555 1_555
C1_3 O1_3 1_555 1_555
N3_3 C1_3 1_555 1_555
C2_3 C1_3 1_555 1_555
Co1_3 N3_3 1_555 1_555
N4_3 C2_3 1_555 1_555
N6_3 Co1_3 1_555 1_555
C4_3 N4_3 1_555 1_555
H2_3 C4_3 1_555 1_555
C11_3 N3_3 1_555 1_555
C12_3 C11_3 1_555 1_555
C13_3 C12_3 1_555 1_555
N9_3 Co1_3 1_555 1_555
N10_3 Co1_3 1_555 1_555
N12_2 C13_3 1_555 1_555
H7_3 C13_3 1_555 1_555
C14_3 N9_3 1_555 1_555
Ag4 N12_2 1_555 1_555
C15_3 N6_3 1_555 1_555
C16_3 N10_3 1_555 1_555
C17_3 N10_3 1_555 1_555
C18_3 N12_2 1_555 1_555
H8_3 C14_3 1_555 1_555
O4 C15_3 1_555 1_555
C19_3 C16_3 1_555 1_555
C20_3 C17_3 1_555 1_555
H9_3 C17_3 1_555 1_555
H10_3 C18_3 1_555 1_555
H11_3 C19_3 1_555 1_555
N7 C19_3 1_555 1_555
H12_3 C20_3 1_555 1_555
Co1_3 N4_3 1_555 1_555
O3_3 C11_3 1_555 1_555
C12_3 N9_3 1_555 1_555
C14_3 C18_3 1_555 1_555
C15_3 C16_3 1_555 1_555
C20_3 N7 1_555 1_555
H1_3 C3_3 1_555 1_555
H4_3 C8_3 1_555 1_555
N11_2 C3_3 1_555 1_555
Ag4 N11_2 1_555 1_555
C8_3 N11_2 1_555 1_555
N2_3 Ag5_2 1_555 1_555
N8_3 Ag5_2 1_555 1_555
C1_4 O1_4 1_555 1_555
N3_4 C1_4 1_555 1_555
C2_4 C1_4 1_555 1_555
Co1_4 N3_4 1_555 1_555
N4_4 C2_4 1_555 1_555
N5_3 Co1_4 1_555 1_555
N6_4 Co1_4 1_555 1_555
C4_4 N4_4 1_555 1_555
C5_3 N5_3 1_555 1_555
C6_3 N5_3 1_555 1_555
C7_3 N6_4 1_555 1_555
H2_4 C4_4 1_555 1_555
C9_3 C5_3 1_555 1_555
C10_3 C6_3 1_555 1_555
H3_3 C6_3 1_555 1_555
O2 C7_3 1_555 1_555
H5_3 C9_3 1_555 1_555
H6_3 C10_3 1_555 1_555
C11_4 N3_4 1_555 1_555
C12_4 C11_4 1_555 1_555
C13_4 C12_4 1_555 1_555
N9_4 Co1_4 1_555 1_555
N12_3 C13_4 1_555 1_555
H7_4 C13_4 1_555 1_555
C14_4 N9_4 1_555 1_555
Ag4_2 N12_3 1_555 1_555
C18_4 N12_3 1_555 1_555
H8_4 C14_4 1_555 1_555
H10_4 C18_4 1_555 1_555
N1 C9_3 1_555 1_555
Co1_4 N4_4 1_555 1_555
C5_3 C7_3 1_555 1_555
C10_3 N1 1_555 1_555
O3_4 C11_4 1_555 1_555
C12_4 N9_4 1_555 1_555
C14_4 C18_4 1_555 1_555
H1_4 C3_4 1_555 1_555
H4_4 C8_4 1_555 1_555
N11_3 C3_4 1_555 1_555
Ag4_2 N11_3 1_555 1_555
C8_4 N11_3 1_555 1_555
N8_2 C13_5 1_555 1_555
H7_5 C13_5 1_555 1_555
C18_5 N8_2 1_555 1_555
H10_5 C18_5 1_555 1_555
C1_5 O1_5 1_555 1_555
N3_5 C1_5 1_555 1_555
C2_5 C1_5 1_555 1_555
Co1_5 N3_5 1_555 1_555
C3_5 C2_5 1_555 1_555
N4_5 C2_5 1_555 1_555
N5_4 Co1_5 1_555 1_555
N6_5 Co1_5 1_555 1_555
H1_5 C3_5 1_555 1_555
C4_5 N4_5 1_555 1_555
C5_4 N5_4 1_555 1_555
C6_4 N5_4 1_555 1_555
C7_4 N6_5 1_555 1_555
C8_5 C4_5 1_555 1_555
H2_5 C4_5 1_555 1_555
C9_4 C5_4 1_555 1_555
C10_4 C6_4 1_555 1_555
H3_4 C6_4 1_555 1_555
O2_2 C7_4 1_555 1_555
H4_5 C8_5 1_555 1_555
H5_4 C9_4 1_555 1_555
H6_4 C10_4 1_555 1_555
C11_5 N3_5 1_555 1_555
C12_5 C11_5 1_555 1_555
N9_5 Co1_5 1_555 1_555
N2_2 C3_5 1_555 1_555
C14_5 N9_5 1_555 1_555
H8_5 C14_5 1_555 1_555
N1_2 C9_4 1_555 1_555
Co1_5 N4_5 1_555 1_555
C5_4 C7_4 1_555 1_555
C8_5 N2_2 1_555 1_555
C10_4 N1_2 1_555 1_555
O3_5 C11_5 1_555 1_555
C12_5 N9_5 1_555 1_555
N8_3 C13_6 1_555 1_555
H7_6 C13_6 1_555 1_555
C18_6 N8_3 1_555 1_555
H10_6 C18_6 1_555 1_555
C1_6 O1_6 1_555 1_555
N3_6 C1_6 1_555 1_555
C2_6 C1_6 1_555 1_555
Co1_6 N3_6 1_555 1_555
C3_6 C2_6 1_555 1_555
N4_6 C2_6 1_555 1_555
N6_6 Co1_6 1_555 1_555
H1_6 C3_6 1_555 1_555
C4_6 N4_6 1_555 1_555
C8_6 C4_6 1_555 1_555
H2_6 C4_6 1_555 1_555
H4_6 C8_6 1_555 1_555
C11_6 N3_6 1_555 1_555
C12_6 C11_6 1_555 1_555
N9_6 Co1_6 1_555 1_555
N10_4 Co1_6 1_555 1_555
N2_3 C3_6 1_555 1_555
C14_6 N9_6 1_555 1_555
C15_4 N6_6 1_555 1_555
C16_4 N10_4 1_555 1_555
C17_4 N10_4 1_555 1_555
H8_6 C14_6 1_555 1_555
O4_2 C15_4 1_555 1_555
C19_4 C16_4 1_555 1_555
C20_4 C17_4 1_555 1_555
H9_4 C17_4 1_555 1_555
H11_4 C19_4 1_555 1_555
N7_2 C19_4 1_555 1_555
H12_4 C20_4 1_555 1_555
Co1_6 N4_6 1_555 1_555
C8_6 N2_3 1_555 1_555
O3_6 C11_6 1_555 1_555
C12_6 N9_6 1_555 1_555
C15_4 C16_4 1_555 1_555
C20_4 N7_2 1_555 1_555

#END
