
###############################################################################
#
# This file contains modified crystal structure data generated from the
# MOF subset of the Cambridge Structural Database (CSD) v543 
# hosted by the Cambridge Crystallographic Data Centre (CCDC).
#
# This work is licensed under the Creative Commons
# Attribution-NonCommercial-ShareAlike 4.0 International License.
# To view a copy of this license, visit
# http://creativecommons.org/licenses/by-nc-sa/4.0/
# or send a letter to
# Creative Commons, PO Box 1866, Mountain View, CA 94042, USA.
#
# CIF created using the CSD Python API on 29 September 2022
# The structure has been converted into the P1 space group
# The structure has a 3D framework
# The original CSD entry HOWQAM is in the orthorhombic crystal system
# The framework has been calculated to contain at least 10.0% void space
# The void calculation uses a probe of radius 1.32A, grid spacing 0.4
# H atom positions have been added when not included in the experimental data
#
###############################################################################

data_HOWQAM
_chemical_formula_moiety         '(C96 H72 Cd8 N16 O40)n'
_symmetry_cell_setting           triclinic
_symmetry_space_group_name_H-M   'P 1'
_symmetry_Int_Tables_number      1
_space_group_name_Hall           'P 1'
loop_
_symmetry_equiv_pos_site_id
_symmetry_equiv_pos_as_xyz
1 x,y,z
_cell_length_a                   13.2087(15)
_cell_length_b                   13.0913(15)
_cell_length_c                   26.916(3)
_cell_angle_alpha                90
_cell_angle_beta                 90
_cell_angle_gamma                90
_cell_volume                     4654.29
loop_
_atom_site_label
_atom_site_type_symbol
_atom_site_fract_x
_atom_site_fract_y
_atom_site_fract_z
Cd1 Cd 0.19647(3) 0.19481(3) 0.170875(16)
N1 N 0.1051(4) 0.0789(4) 0.22118(19)
N2 N 0.1189(4) 0.1160(4) 0.1035(2)
O1 O 0.0425(5) 0.3156(5) 0.1635(3)
O2 O 0.1563(4) 0.3338(4) 0.2208(2)
O3 O 0.1691(4) 0.5436(4) 0.16479(17)
O4 O 0.1622(4) 0.6728(4) 0.2166(2)
O5 O 0.2839(8) 0.2897(8) 0.1123(4)
C1 C 0.0770(5) 0.3600(5) 0.2000(3)
C2 C 0.0130(4) 0.4411(4) 0.2235(2)
C3 C 0.0390(4) 0.5447(4) 0.2259(2)
C4 C 0.1298(4) 0.5891(4) 0.2001(2)
C5 C 0.0216(4) 0.1087(4) 0.2460(2)
H1 H 0.0033 0.1772 0.2440
C8 C 0.0294(9) 0.1453(10) 0.0887(4)
C10 C 0.0240(6) 0.0238(5) 0.0217(3)
C12 C 0.1546(8) 0.0365(8) 0.0815(4)
H7 H 0.2137 0.0082 0.0942
Cd2 Cd 0.30353(3) 0.69481(3) 0.170875(16)
O11 O 0.3378(4) 0.1728(4) 0.2166(2)
H15 H 0.239587 0.302289 0.0831336
H16 H 0.304548 0.356011 0.127071
C6 C 0.1300(5) 0.9806(5) 0.2241(3)
H2 H 0.1879 0.9582 0.2078
C11 C 0.1126(8) 0.9906(8) 0.0410(4)
H6 H 0.1454 0.9354 0.0264
C19 C 0.0726(5) 0.9099(5) 0.2508(3)
H10 H 0.0917 0.8415 0.2513
H11 H 0.0027 0.8016 0.8947
C21 C 0.0199(9) 0.9010(10) 0.9518(4)
H12 H 0.0846 0.8792 0.9604
C7 C 0.9274(5) 0.4099(5) 0.2492(3)
H3 H 0.9083 0.3415 0.2487
H4 H 0.9973 0.1984 0.1053
C9 C 0.9801(9) 0.0990(10) 0.0482(4)
H5 H 0.9154 0.1208 0.0396
Cd3 Cd 0.80353(3) 0.69481(3) 0.329125(16)
Cd4 Cd 0.69647(3) 0.19481(3) 0.329125(16)
N3 N 0.8949(4) 0.5789(4) 0.27882(19)
N5 N 0.8811(4) 0.6160(4) 0.3965(2)
O7 O 0.9575(5) 0.8156(5) 0.3365(3)
O9 O 0.8437(4) 0.8338(4) 0.2792(2)
O10 O 0.8309(4) 0.0436(4) 0.33521(17)
O12 O 0.8378(4) 0.1728(4) 0.2834(2)
O13 O 0.6622(4) 0.6728(4) 0.2834(2)
O14 O 0.7161(8) 0.7897(8) 0.3877(4)
C15 C 0.9610(4) 0.0447(4) 0.2741(2)
C16 C 0.8702(4) 0.0891(4) 0.2999(2)
C17 C 0.9784(4) 0.6087(4) 0.2540(2)
H8 H 0.9967 0.6772 0.2560
C18 C 0.8700(5) 0.4806(5) 0.2759(3)
H9 H 0.8121 0.4582 0.2922
H17 H 0.760413 0.802289 0.416866
H18 H 0.695452 0.856011 0.372929
C23 C 0.8874(8) 0.0094(8) 0.9590(4)
H13 H 0.8546 0.0646 0.9736
C13 C 0.9230(5) 0.8600(5) 0.3000(3)
C14 C 0.9870(4) 0.9411(4) 0.2765(2)
Cd6 Cd 0.80353(3) 0.80519(3) 0.829125(16)
N4 N 0.8811(4) 0.8840(4) 0.8965(2)
C20 C 0.9706(9) 0.8547(10) 0.9113(4)
C22 C 0.9760(6) 0.9762(5) 0.9783(3)
C24 C 0.8454(8) 0.9635(8) 0.9185(4)
H14 H 0.7863 0.9918 0.9058
C6_2 C 0.3700(5) 0.0194(5) 0.7241(3)
H2_2 H 0.3121 0.0418 0.7078
C11_2 C 0.3874(8) 0.0094(8) 0.5410(4)
H6_2 H 0.3546 0.0646 0.5264
Cd5 Cd 0.69647(3) 0.30519(3) 0.829125(16)
N4_2 N 0.6189(4) 0.1160(4) 0.3965(2)
O6 O 0.5425(5) 0.1844(5) 0.8365(3)
O8 O 0.6563(4) 0.1662(4) 0.7792(2)
C13_2 C 0.5770(5) 0.1400(5) 0.8000(3)
C14_2 C 0.5130(4) 0.0589(4) 0.7765(2)
C19_2 C 0.4274(5) 0.0901(5) 0.7508(3)
H10_2 H 0.4083 0.1585 0.7513
C20_2 C 0.5294(9) 0.1453(10) 0.4113(4)
H11_2 H 0.4973 0.1984 0.3947
C21_2 C 0.4801(9) 0.0990(10) 0.4518(4)
H12_2 H 0.4154 0.1208 0.4604
C22_2 C 0.5240(6) 0.0238(5) 0.4783(3)
C24_2 C 0.6546(8) 0.0365(8) 0.4185(4)
H14_2 H 0.7137 0.0082 0.4058
Cd1_2 Cd 0.30353(3) 0.80519(3) 0.670875(16)
N1_2 N 0.3949(4) 0.9211(4) 0.72118(19)
N2_2 N 0.3811(4) 0.8840(4) 0.6035(2)
O1_2 O 0.4575(5) 0.6844(5) 0.6635(3)
O2_2 O 0.3437(4) 0.6662(4) 0.7208(2)
O3_2 O 0.3309(4) 0.4564(4) 0.66479(17)
O4_2 O 0.3378(4) 0.3272(4) 0.7166(2)
O5_2 O 0.2161(8) 0.7103(8) 0.6123(4)
C1_2 C 0.4230(5) 0.6400(5) 0.7000(3)
C2_2 C 0.4870(4) 0.5589(4) 0.7235(2)
C3_2 C 0.4610(4) 0.4553(4) 0.7259(2)
C4_2 C 0.3702(4) 0.4109(4) 0.7001(2)
C5_2 C 0.4784(4) 0.8913(4) 0.7460(2)
H1_2 H 0.4967 0.8228 0.7440
C7_2 C 0.5726(5) 0.5901(5) 0.7492(3)
H3_2 H 0.5917 0.6585 0.7487
C8_2 C 0.4706(9) 0.8547(10) 0.5887(4)
H4_2 H 0.5027 0.8016 0.6053
C9_2 C 0.5199(9) 0.9010(10) 0.5482(4)
H5_2 H 0.5846 0.8792 0.5396
C10_2 C 0.4760(6) 0.9762(5) 0.5217(3)
C12_2 C 0.3454(8) 0.9635(8) 0.5815(4)
H7_2 H 0.2863 0.9918 0.5942
Cd2_2 Cd 0.19647(3) 0.30519(3) 0.670875(16)
N3_2 N 0.6051(4) 0.4211(4) 0.77882(19)
N5_2 N 0.6189(4) 0.3840(4) 0.8965(2)
O10_2 O 0.6691(4) 0.9564(4) 0.83521(17)
O11_2 O 0.1622(4) 0.8272(4) 0.7166(2)
O12_2 O 0.6622(4) 0.8272(4) 0.7834(2)
O13_2 O 0.8378(4) 0.3272(4) 0.7834(2)
O14_2 O 0.7839(8) 0.2103(8) 0.8877(4)
C15_2 C 0.5390(4) 0.9553(4) 0.7741(2)
C16_2 C 0.6298(4) 0.9109(4) 0.7999(2)
C17_2 C 0.5216(4) 0.3913(4) 0.7540(2)
H8_2 H 0.5033 0.3228 0.7560
C18_2 C 0.6300(5) 0.5194(5) 0.7759(3)
H9_2 H 0.6879 0.5418 0.7922
C23_2 C 0.6126(8) 0.9906(8) 0.4590(4)
H13_2 H 0.6454 0.9354 0.4736
H15_2 H 0.260413 0.697711 0.583134
H16_2 H 0.195452 0.643989 0.627071
H17_2 H 0.739587 0.197711 0.916866
H18_2 H 0.804548 0.143989 0.872929
H4_3 H 0.0027 0.6984 0.3947
C9_3 C 0.0199(9) 0.5990(10) 0.4518(4)
H5_3 H 0.0846 0.6208 0.4604
N4_3 N 0.1189(4) 0.3840(4) 0.6035(2)
C20_3 C 0.0294(9) 0.3547(10) 0.5887(4)
C22_3 C 0.0240(6) 0.4762(5) 0.5217(3)
C23_3 C 0.1126(8) 0.5094(8) 0.5410(4)
H13_3 H 0.1454 0.5646 0.5264
C24_3 C 0.1546(8) 0.4635(8) 0.5815(4)
H14_3 H 0.2137 0.4918 0.5942
C8_3 C 0.9706(9) 0.6453(10) 0.4113(4)
C10_3 C 0.9760(6) 0.5238(5) 0.4783(3)
C11_3 C 0.8874(8) 0.4906(8) 0.4590(4)
H6_3 H 0.8546 0.4354 0.4736
C12_3 C 0.8454(8) 0.5365(8) 0.4185(4)
H7_3 H 0.7863 0.5082 0.4058
H11_3 H 0.9973 0.3016 0.6053
C21_3 C 0.9801(9) 0.4010(10) 0.5482(4)
H12_3 H 0.9154 0.3792 0.5396
N4_4 N 0.3811(4) 0.6160(4) 0.1035(2)
C20_4 C 0.4706(9) 0.6453(10) 0.0887(4)
H11_4 H 0.5027 0.6984 0.1053
C21_4 C 0.5199(9) 0.5990(10) 0.0482(4)
H12_4 H 0.5846 0.6208 0.0396
C22_4 C 0.4760(6) 0.5238(5) 0.0217(3)
C23_4 C 0.3874(8) 0.4906(8) 0.0410(4)
H13_4 H 0.3546 0.4354 0.0264
C24_4 C 0.3454(8) 0.5365(8) 0.0815(4)
H14_4 H 0.2863 0.5082 0.0942
C8_4 C 0.5294(9) 0.3547(10) 0.9113(4)
H4_4 H 0.4973 0.3016 0.8947
C9_4 C 0.4801(9) 0.4010(10) 0.9518(4)
H5_4 H 0.4154 0.3792 0.9604
C10_4 C 0.5240(6) 0.4762(5) 0.9783(3)
C11_4 C 0.6126(8) 0.5094(8) 0.9590(4)
H6_4 H 0.6454 0.5646 0.9736
C12_4 C 0.6546(8) 0.4635(8) 0.9185(4)
H7_4 H 0.7137 0.4918 0.9058
O6_2 O 0.0425(5) 0.1844(5) 0.6635(3)
O8_2 O 0.1563(4) 0.1662(4) 0.7208(2)
C13_3 C 0.0770(5) 0.1400(5) 0.7000(3)
C14_3 C 0.0130(4) 0.0589(4) 0.7235(2)
C7_3 C 0.0726(5) 0.5901(5) 0.7508(3)
H3_3 H 0.0917 0.6585 0.7513
N3_3 N 0.1051(4) 0.4211(4) 0.72118(19)
O10_3 O 0.1691(4) 0.9564(4) 0.66479(17)
O14_3 O 0.2839(8) 0.2103(8) 0.6123(4)
C15_3 C 0.0390(4) 0.9553(4) 0.7259(2)
C16_3 C 0.1298(4) 0.9109(4) 0.7001(2)
C17_3 C 0.0216(4) 0.3913(4) 0.7460(2)
H8_3 H 0.0033 0.3228 0.7440
C18_3 C 0.1300(5) 0.5194(5) 0.7241(3)
H9_3 H 0.1879 0.5418 0.7078
H17_3 H 0.239587 0.197711 0.583134
H18_3 H 0.304548 0.143989 0.627071
C6_3 C 0.8700(5) 0.0194(5) 0.7759(3)
H2_3 H 0.8121 0.0418 0.7922
C19_3 C 0.9274(5) 0.0901(5) 0.7492(3)
H10_3 H 0.9083 0.1585 0.7487
N1_3 N 0.8949(4) 0.9211(4) 0.77882(19)
O1_3 O 0.9575(5) 0.6844(5) 0.8365(3)
O2_3 O 0.8437(4) 0.6662(4) 0.7792(2)
O3_3 O 0.8309(4) 0.4564(4) 0.83521(17)
O5_3 O 0.7161(8) 0.7103(8) 0.8877(4)
C1_3 C 0.9230(5) 0.6400(5) 0.8000(3)
C2_3 C 0.9870(4) 0.5589(4) 0.7765(2)
C3_3 C 0.9610(4) 0.4553(4) 0.7741(2)
C4_3 C 0.8702(4) 0.4109(4) 0.7999(2)
C5_3 C 0.9784(4) 0.8913(4) 0.7540(2)
H1_3 H 0.9967 0.8228 0.7560
H15_3 H 0.760413 0.697711 0.916866
H16_3 H 0.695452 0.643989 0.872929
N1_4 N 0.6051(4) 0.0789(4) 0.27882(19)
O1_4 O 0.5425(5) 0.3156(5) 0.3365(3)
O2_4 O 0.6563(4) 0.3338(4) 0.2792(2)
O3_4 O 0.6691(4) 0.5436(4) 0.33521(17)
O5_4 O 0.7839(8) 0.2897(8) 0.3877(4)
C1_4 C 0.5770(5) 0.3600(5) 0.3000(3)
C2_4 C 0.5130(4) 0.4411(4) 0.2765(2)
C3_4 C 0.5390(4) 0.5447(4) 0.2741(2)
C4_4 C 0.6298(4) 0.5891(4) 0.2999(2)
C5_4 C 0.5216(4) 0.1087(4) 0.2540(2)
H1_4 H 0.5033 0.1772 0.2560
C7_4 C 0.4274(5) 0.4099(5) 0.2508(3)
H3_4 H 0.4083 0.3415 0.2513
N3_4 N 0.3949(4) 0.5789(4) 0.22118(19)
O7_2 O 0.4575(5) 0.8156(5) 0.1635(3)
O9_2 O 0.3437(4) 0.8338(4) 0.2208(2)
O10_4 O 0.3309(4) 0.0436(4) 0.16479(17)
O14_4 O 0.2161(8) 0.7897(8) 0.1123(4)
C15_4 C 0.4610(4) 0.0447(4) 0.2259(2)
C16_4 C 0.3702(4) 0.0891(4) 0.2001(2)
C17_4 C 0.4784(4) 0.6087(4) 0.2460(2)
H8_4 H 0.4967 0.6772 0.2440
C18_4 C 0.3700(5) 0.4806(5) 0.2241(3)
H9_4 H 0.3121 0.4582 0.2078
H15_4 H 0.739587 0.302289 0.416866
H16_4 H 0.804548 0.356011 0.372929
H17_4 H 0.260413 0.802289 0.0831336
H18_4 H 0.195452 0.856011 0.127071
C6_4 C 0.6300(5) 0.9806(5) 0.2759(3)
H2_4 H 0.6879 0.9582 0.2922
C13_4 C 0.4230(5) 0.8600(5) 0.2000(3)
C14_4 C 0.4870(4) 0.9411(4) 0.2235(2)
C19_4 C 0.5726(5) 0.9099(5) 0.2492(3)
H10_4 H 0.5917 0.8415 0.2487
loop_
_geom_bond_atom_site_label_1
_geom_bond_atom_site_label_2
_geom_bond_site_symmetry_1
_geom_bond_site_symmetry_2
Cd1 N1 1_555 1_555
N1 C5 1_555 1_555
N2 Cd1 1_555 1_555
O1 Cd1 1_555 1_555
O2 Cd1 1_555 1_555
O3 C4 1_555 1_555
O4 C4 1_555 1_555
O5 Cd1 1_555 1_555
C1 O1 1_555 1_555
C2 C1 1_555 1_555
C3 C2 1_555 1_555
C4 C3 1_555 1_555
C5 H1 1_555 1_555
C8 N2 1_555 1_555
C12 N2 1_555 1_555
H7 C12 1_555 1_555
Cd2 O4 1_555 1_555
O11 Cd1 1_555 1_555
O2 C1 1_555 1_555
O5 H15 1_555 1_555
O5 H16 1_555 1_555
H2 C6 1_555 1_555
H6 C11 1_555 1_555
C19 C6 1_555 1_555
H10 C19 1_555 1_555
H12 C21 1_555 1_555
H3 C7 1_555 1_555
H5 C9 1_555 1_555
Cd3 N3 1_555 1_555
Cd4 O12 1_555 1_555
N3 C17 1_555 1_555
N5 Cd3 1_555 1_555
O7 Cd3 1_555 1_555
O9 Cd3 1_555 1_555
O10 C16 1_555 1_555
O12 C16 1_555 1_555
O13 Cd3 1_555 1_555
O14 Cd3 1_555 1_555
C16 C15 1_555 1_555
H8 C17 1_555 1_555
C18 C7 1_555 1_555
H9 C18 1_555 1_555
N3 C18 1_555 1_555
O14 H17 1_555 1_555
O14 H18 1_555 1_555
H13 C23 1_555 1_555
O7 C13 1_555 1_555
C13 O9 1_555 1_555
C14 C13 1_555 1_555
Cd6 N4 1_555 1_555
N4 C20 1_555 1_555
C24 N4 1_555 1_555
H14 C24 1_555 1_555
H2_2 C6_2 1_555 1_555
H6_2 C11_2 1_555 1_555
Cd5 O6 1_555 1_555
Cd4 N4_2 1_555 1_555
N4_2 C20_2 1_555 1_555
O6 C13_2 1_555 1_555
O8 Cd5 1_555 1_555
C13_2 O8 1_555 1_555
C14_2 C13_2 1_555 1_555
C19_2 C6_2 1_555 1_555
H10_2 C19_2 1_555 1_555
C20_2 H11_2 1_555 1_555
C21_2 C20_2 1_555 1_555
H12_2 C21_2 1_555 1_555
C24_2 N4_2 1_555 1_555
H14_2 C24_2 1_555 1_555
C14_2 C19_2 1_555 1_555
C21_2 C22_2 1_555 1_555
Cd1_2 N1_2 1_555 1_555
N1_2 C5_2 1_555 1_555
N2_2 Cd1_2 1_555 1_555
O1_2 Cd1_2 1_555 1_555
O2_2 Cd1_2 1_555 1_555
O3_2 C4_2 1_555 1_555
O4_2 C4_2 1_555 1_555
O5_2 Cd1_2 1_555 1_555
C1_2 O1_2 1_555 1_555
C2_2 C1_2 1_555 1_555
C3_2 C2_2 1_555 1_555
C4_2 C3_2 1_555 1_555
C5_2 H1_2 1_555 1_555
C7_2 C2_2 1_555 1_555
H3_2 C7_2 1_555 1_555
C8_2 N2_2 1_555 1_555
H4_2 C8_2 1_555 1_555
C9_2 C8_2 1_555 1_555
H5_2 C9_2 1_555 1_555
C10_2 C9_2 1_555 1_555
C12_2 N2_2 1_555 1_555
H7_2 C12_2 1_555 1_555
Cd2_2 O4_2 1_555 1_555
Cd5 N3_2 1_555 1_555
Cd6 O12_2 1_555 1_555
N3_2 C17_2 1_555 1_555
N5_2 Cd5 1_555 1_555
O10_2 C16_2 1_555 1_555
O11_2 Cd1_2 1_555 1_555
O12_2 C16_2 1_555 1_555
O13_2 Cd5 1_555 1_555
O14_2 Cd5 1_555 1_555
C15_2 C5_2 1_555 1_555
C16_2 C15_2 1_555 1_555
C17_2 C3_2 1_555 1_555
H8_2 C17_2 1_555 1_555
C18_2 C7_2 1_555 1_555
H9_2 C18_2 1_555 1_555
H13_2 C23_2 1_555 1_555
O2_2 C1_2 1_555 1_555
N3_2 C18_2 1_555 1_555
O5_2 H15_2 1_555 1_555
O5_2 H16_2 1_555 1_555
O14_2 H17_2 1_555 1_555
O14_2 H18_2 1_555 1_555
H5_3 C9_3 1_555 1_555
Cd2_2 N4_3 1_555 1_555
N4_3 C20_3 1_555 1_555
C23_3 C22_3 1_555 1_555
H13_3 C23_3 1_555 1_555
C24_3 N4_3 1_555 1_555
H14_3 C24_3 1_555 1_555
C23_3 C24_3 1_555 1_555
C8_3 N5 1_555 1_555
C11_3 C10_3 1_555 1_555
H6_3 C11_3 1_555 1_555
C12_3 N5 1_555 1_555
H7_3 C12_3 1_555 1_555
H12_3 C21_3 1_555 1_555
C11_3 C12_3 1_555 1_555
Cd2 N4_4 1_555 1_555
N4_4 C20_4 1_555 1_555
C20_4 H11_4 1_555 1_555
C21_4 C20_4 1_555 1_555
H12_4 C21_4 1_555 1_555
C23_4 C22_4 1_555 1_555
H13_4 C23_4 1_555 1_555
C24_4 N4_4 1_555 1_555
H14_4 C24_4 1_555 1_555
C21_4 C22_4 1_555 1_555
C23_4 C24_4 1_555 1_555
C8_4 N5_2 1_555 1_555
H4_4 C8_4 1_555 1_555
C9_4 C8_4 1_555 1_555
H5_4 C9_4 1_555 1_555
C10_4 C9_4 1_555 1_555
C11_4 C10_4 1_555 1_555
H6_4 C11_4 1_555 1_555
C12_4 N5_2 1_555 1_555
H7_4 C12_4 1_555 1_555
C11_4 C12_4 1_555 1_555
Cd2_2 O6_2 1_555 1_555
O6_2 C13_3 1_555 1_555
O8_2 Cd2_2 1_555 1_555
C13_3 O8_2 1_555 1_555
C14_3 C13_3 1_555 1_555
H3_3 C7_3 1_555 1_555
Cd2_2 N3_3 1_555 1_555
N3_3 C17_3 1_555 1_555
O10_3 C16_3 1_555 1_555
O11_2 C16_3 1_555 1_555
O14_3 Cd2_2 1_555 1_555
C16_3 C15_3 1_555 1_555
H8_3 C17_3 1_555 1_555
C18_3 C7_3 1_555 1_555
H9_3 C18_3 1_555 1_555
N3_3 C18_3 1_555 1_555
O14_3 H17_3 1_555 1_555
O14_3 H18_3 1_555 1_555
H2_3 C6_3 1_555 1_555
C19_3 C6_3 1_555 1_555
H10_3 C19_3 1_555 1_555
Cd6 N1_3 1_555 1_555
N1_3 C5_3 1_555 1_555
O1_3 Cd6 1_555 1_555
O2_3 Cd6 1_555 1_555
O3_3 C4_3 1_555 1_555
O13_2 C4_3 1_555 1_555
O5_3 Cd6 1_555 1_555
C1_3 O1_3 1_555 1_555
C2_3 C1_3 1_555 1_555
C3_3 C2_3 1_555 1_555
C4_3 C3_3 1_555 1_555
C5_3 H1_3 1_555 1_555
O2_3 C1_3 1_555 1_555
O5_3 H15_3 1_555 1_555
O5_3 H16_3 1_555 1_555
Cd4 N1_4 1_555 1_555
N1_4 C5_4 1_555 1_555
O1_4 Cd4 1_555 1_555
O2_4 Cd4 1_555 1_555
O3_4 C4_4 1_555 1_555
O13 C4_4 1_555 1_555
O5_4 Cd4 1_555 1_555
C1_4 O1_4 1_555 1_555
C2_4 C1_4 1_555 1_555
C3_4 C2_4 1_555 1_555
C4_4 C3_4 1_555 1_555
C5_4 H1_4 1_555 1_555
C7_4 C2_4 1_555 1_555
H3_4 C7_4 1_555 1_555
Cd2 N3_4 1_555 1_555
N3_4 C17_4 1_555 1_555
O7_2 Cd2 1_555 1_555
O9_2 Cd2 1_555 1_555
O10_4 C16_4 1_555 1_555
O11 C16_4 1_555 1_555
O14_4 Cd2 1_555 1_555
C15_4 C5_4 1_555 1_555
C16_4 C15_4 1_555 1_555
C17_4 C3_4 1_555 1_555
H8_4 C17_4 1_555 1_555
C18_4 C7_4 1_555 1_555
H9_4 C18_4 1_555 1_555
O2_4 C1_4 1_555 1_555
N3_4 C18_4 1_555 1_555
O5_4 H15_4 1_555 1_555
O5_4 H16_4 1_555 1_555
O14_4 H17_4 1_555 1_555
O14_4 H18_4 1_555 1_555
H2_4 C6_4 1_555 1_555
O7_2 C13_4 1_555 1_555
C13_4 O9_2 1_555 1_555
C14_4 C13_4 1_555 1_555
C19_4 C6_4 1_555 1_555
H10_4 C19_4 1_555 1_555
C14_4 C19_4 1_555 1_555

#END
