
###############################################################################
#
# This file contains modified crystal structure data generated from the
# MOF subset of the Cambridge Structural Database (CSD) v543 
# hosted by the Cambridge Crystallographic Data Centre (CCDC).
#
# This work is licensed under the Creative Commons
# Attribution-NonCommercial-ShareAlike 4.0 International License.
# To view a copy of this license, visit
# http://creativecommons.org/licenses/by-nc-sa/4.0/
# or send a letter to
# Creative Commons, PO Box 1866, Mountain View, CA 94042, USA.
#
# CIF created using the CSD Python API on 29 September 2022
# The structure has been converted into the P1 space group
# The structure has a 3D framework
# The original CSD entry HOWQER is in the orthorhombic crystal system
# The framework has been calculated to contain at least 10.0% void space
# The void calculation uses a probe of radius 1.32A, grid spacing 0.4
# The framework is charged, counterions have been retained in the structure
#
###############################################################################

data_HOWQER
_chemical_formula_moiety         '(C100 H60 Ag4 Co6 N52 O20 10+)n'
_symmetry_cell_setting           triclinic
_symmetry_space_group_name_H-M   'P 1'
_symmetry_Int_Tables_number      1
_space_group_name_Hall           'P 1'
loop_
_symmetry_equiv_pos_site_id
_symmetry_equiv_pos_as_xyz
1 x,y,z
_cell_length_a                   13.6516(2)
_cell_length_b                   13.98500(10)
_cell_length_c                   13.75720(10)
_cell_angle_alpha                90
_cell_angle_beta                 90
_cell_angle_gamma                90
_cell_volume                     2626.49
loop_
_atom_site_label
_atom_site_type_symbol
_atom_site_fract_x
_atom_site_fract_y
_atom_site_fract_z
Ag5 Ag -0.0000 0.37499(3) 0.7500
C17 C 0.5000 0.3140(3) 0.0567(3)
H11 H 0.5000 0.3627 0.1049
N10 N 0.5000 0.2234(3) 0.0849(2)
C18 C 0.5000 0.1574(3) 0.0147(3)
H12 H 0.5000 0.0916 0.0321
Ag3 Ag 0.5000 0.12501(3) 0.2500
Co1 Co 0.5000 0.29076(4) 0.7500
N1 N 0.3601(3) 0.30607(18) 0.7500
C1 C 0.2918(3) 0.2379(2) 0.7500
H1 H 0.3106 0.1725 0.7500
C2 C 0.1939(4) 0.2622(3) 0.7500
H2 H 0.1463 0.2126 0.7500
N2 N 0.1637(3) 0.3525(2) 0.7500
C3 C 0.2321(3) 0.4206(2) 0.7500
H3 H 0.2128 0.4858 0.7500
C4 C 0.3310(3) 0.3977(2) 0.7500
C5 C 0.4111(3) 0.4714(2) 0.7500
O1 O 0.3952(3) 0.5563(2) 0.7500
N3 N 0.5000 0.4264(3) 0.7500
N4 N 0.5000 0.27432(18) 0.61018(19)
C6 C 0.5000 0.3405(2) 0.5409(3)
H4 H 0.5000 0.4063 0.5581
C7 C 0.5000 0.3140(3) 0.4433(3)
H5 H 0.5000 0.3627 0.3951
N5 N 0.5000 0.2234(3) 0.4151(2)
C8 C 0.5000 0.1574(3) 0.4853(3)
H6 H 0.5000 0.0916 0.4679
C9 C 0.5000 0.1820(2) 0.5823(2)
C10 C 0.5000 0.1100(2) 0.6619(3)
O2 O 0.5000 0.02503(19) 0.6469(2)
N6 N 0.5000 0.1557(2) 0.7500
N7 N 0.6399(3) 0.30607(18) 0.7500
C11 C 0.7082(3) 0.2379(2) 0.7500
H7 H 0.6894 0.1725 0.7500
C12 C 0.8061(4) 0.2622(3) 0.7500
H8 H 0.8537 0.2126 0.7500
N8 N 0.8363(3) 0.3525(2) 0.7500
C13 C 0.7679(3) 0.4206(2) 0.7500
H9 H 0.7872 0.4858 0.7500
C14 C 0.6690(3) 0.3977(2) 0.7500
C15 C 0.5889(3) 0.4714(2) 0.7500
O3 O 0.6048(3) 0.5563(2) 0.7500
N9 N 0.5000 0.27432(18) 0.88982(19)
C16 C 0.5000 0.3405(2) 0.9591(3)
H10 H 0.5000 0.4063 0.9419
C19 C 0.5000 0.1820(2) 0.9177(2)
C20 C 0.5000 0.1100(2) 0.8381(3)
O4 O 0.5000 0.02503(19) 0.8531(2)
Ag5_2 Ag 1.0000 0.37499(3) 0.7500
Ag1 Ag 0.5000 0.87499(3) 0.7500
N11 N 0.6637(3) 0.8525(2) 0.7500
N12 N 0.3363(3) 0.8525(2) 0.7500
N13 N 0.5000 0.7766(3) 0.9151(2)
N14 N 0.5000 0.7766(3) 0.5849(2)
Ag4 Ag 0.0000 0.62501(3) 0.2500
N11_2 N 0.3363(3) 0.1475(2) 0.2500
N12_2 N 0.6637(3) 0.1475(2) 0.2500
Co1_2 Co 0.5000 0.70924(4) 0.2500
N1_2 N 0.6399(3) 0.69393(18) 0.2500
C1_2 C 0.7082(3) 0.7621(2) 0.2500
H1_2 H 0.6894 0.8275 0.2500
C2_2 C 0.8061(4) 0.7378(3) 0.2500
H2_2 H 0.8537 0.7874 0.2500
N2_2 N 0.8363(3) 0.6475(2) 0.2500
C3_2 C 0.7679(3) 0.5794(2) 0.2500
H3_2 H 0.7872 0.5142 0.2500
C4_2 C 0.6690(3) 0.6023(2) 0.2500
C5_2 C 0.5889(3) 0.5286(2) 0.2500
O1_2 O 0.6048(3) 0.4437(2) 0.2500
N3_2 N 0.5000 0.5736(3) 0.2500
N4_2 N 0.5000 0.72568(18) 0.11018(19)
C6_2 C 0.5000 0.6595(2) 0.0409(3)
H4_2 H 0.5000 0.5937 0.0581
C9_2 C 0.5000 0.8180(2) 0.0823(2)
C10_2 C 0.5000 0.8900(2) 0.1619(3)
O2_2 O 0.5000 0.97497(19) 0.1469(2)
N6_2 N 0.5000 0.8443(2) 0.2500
N7_2 N 0.3601(3) 0.69393(18) 0.2500
C11_2 C 0.2918(3) 0.7621(2) 0.2500
H7_2 H 0.3106 0.8275 0.2500
C12_2 C 0.1939(4) 0.7378(3) 0.2500
H8_2 H 0.1463 0.7874 0.2500
N8_2 N 0.1637(3) 0.6475(2) 0.2500
C13_2 C 0.2321(3) 0.5794(2) 0.2500
H9_2 H 0.2128 0.5142 0.2500
C14_2 C 0.3310(3) 0.6023(2) 0.2500
C15_2 C 0.4111(3) 0.5286(2) 0.2500
O3_2 O 0.3952(3) 0.4437(2) 0.2500
N9_2 N 0.5000 0.72568(18) 0.38982(19)
C16_2 C 0.5000 0.6595(2) 0.4591(3)
H10_2 H 0.5000 0.5937 0.4419
C17_2 C 0.5000 0.6860(3) 0.5567(3)
H11_2 H 0.5000 0.6373 0.6049
C18_2 C 0.5000 0.8426(3) 0.5147(3)
H12_2 H 0.5000 0.9084 0.5321
C19_2 C 0.5000 0.8180(2) 0.4177(2)
C20_2 C 0.5000 0.8900(2) 0.3381(3)
O4_2 O 0.5000 0.97497(19) 0.3531(2)
Ag4_2 Ag 1.0000 0.62501(3) 0.2500
C7_2 C 0.5000 0.6860(3) 0.9433(3)
H5_2 H 0.5000 0.6373 0.8951
C8_2 C 0.5000 0.8426(3) 0.9853(3)
H6_2 H 0.5000 0.9084 0.9679
C17_3 C -0.0000 0.8140(3) 0.0567(3)
H11_3 H -0.0000 0.8627 0.1049
N10_2 N -0.0000 0.7234(3) 0.0849(2)
C18_3 C -0.0000 0.6574(3) 0.0147(3)
H12_3 H -0.0000 0.5916 0.0321
Co1_3 Co -0.0000 0.79076(4) 0.7500
N3_3 N -0.0000 0.9264(3) 0.7500
N4_3 N -0.0000 0.77432(18) 0.61018(19)
C6_3 C -0.0000 0.8405(2) 0.5409(3)
H4_3 H -0.0000 0.9063 0.5581
C7_3 C 0.0000 0.8140(3) 0.4433(3)
H5_3 H 0.0000 0.8627 0.3951
N5_2 N 0.0000 0.7234(3) 0.4151(2)
C8_3 C -0.0000 0.6574(3) 0.4853(3)
H6_3 H -0.0000 0.5916 0.4679
C9_3 C -0.0000 0.6820(2) 0.5823(2)
C10_3 C -0.0000 0.6100(2) 0.6619(3)
O2_3 O -0.0000 0.52503(19) 0.6469(2)
N6_3 N -0.0000 0.6557(2) 0.7500
N7_3 N 0.1399(3) 0.80607(18) 0.7500
C11_3 C 0.2082(3) 0.7379(2) 0.7500
H7_3 H 0.1894 0.6725 0.7500
C12_3 C 0.3061(4) 0.7622(3) 0.7500
H8_3 H 0.3537 0.7126 0.7500
C13_3 C 0.2679(3) 0.9206(2) 0.7500
H9_3 H 0.2872 0.9858 0.7500
C14_3 C 0.1690(3) 0.8977(2) 0.7500
C15_3 C 0.0889(3) 0.9714(2) 0.7500
N9_3 N -0.0000 0.77432(18) 0.88982(19)
C16_3 C -0.0000 0.8405(2) 0.9591(3)
H10_3 H -0.0000 0.9063 0.9419
C19_3 C -0.0000 0.6820(2) 0.9177(2)
C20_3 C -0.0000 0.6100(2) 0.8381(3)
O4_3 O -0.0000 0.52503(19) 0.8531(2)
N13_2 N -0.0000 0.2766(3) 0.9151(2)
N14_2 N -0.0000 0.2766(3) 0.5849(2)
C17_4 C 1.0000 0.8140(3) 0.0567(3)
H11_4 H 1.0000 0.8627 0.1049
N10_3 N 1.0000 0.7234(3) 0.0849(2)
C18_4 C 1.0000 0.6574(3) 0.0147(3)
H12_4 H 1.0000 0.5916 0.0321
Co1_4 Co 1.0000 0.79076(4) 0.7500
N1_3 N 0.8601(3) 0.80607(18) 0.7500
C1_3 C 0.7918(3) 0.7379(2) 0.7500
H1_3 H 0.8106 0.6725 0.7500
C2_3 C 0.6939(4) 0.7622(3) 0.7500
H2_3 H 0.6463 0.7126 0.7500
C3_3 C 0.7321(3) 0.9206(2) 0.7500
H3_3 H 0.7128 0.9858 0.7500
C4_3 C 0.8310(3) 0.8977(2) 0.7500
C5_3 C 0.9111(3) 0.9714(2) 0.7500
N3_4 N 1.0000 0.9264(3) 0.7500
N4_4 N 1.0000 0.77432(18) 0.61018(19)
C6_4 C 1.0000 0.8405(2) 0.5409(3)
H4_4 H 1.0000 0.9063 0.5581
C7_4 C 1.0000 0.8140(3) 0.4433(3)
H5_4 H 1.0000 0.8627 0.3951
N5_3 N 1.0000 0.7234(3) 0.4151(2)
C8_4 C 1.0000 0.6574(3) 0.4853(3)
H6_4 H 1.0000 0.5916 0.4679
C9_4 C 1.0000 0.6820(2) 0.5823(2)
C10_4 C 1.0000 0.6100(2) 0.6619(3)
O2_4 O 1.0000 0.52503(19) 0.6469(2)
N6_4 N 1.0000 0.6557(2) 0.7500
N9_4 N 1.0000 0.77432(18) 0.88982(19)
C16_4 C 1.0000 0.8405(2) 0.9591(3)
H10_4 H 1.0000 0.9063 0.9419
C19_4 C 1.0000 0.6820(2) 0.9177(2)
C20_4 C 1.0000 0.6100(2) 0.8381(3)
O4_4 O 1.0000 0.52503(19) 0.8531(2)
N13_3 N 1.0000 0.2766(3) 0.9151(2)
N14_3 N 1.0000 0.2766(3) 0.5849(2)
Co1_5 Co 0.0000 0.20924(4) 0.2500
N1_4 N 0.1399(3) 0.19393(18) 0.2500
C1_4 C 0.2082(3) 0.2621(2) 0.2500
H1_4 H 0.1894 0.3275 0.2500
C2_4 C 0.3061(4) 0.2378(3) 0.2500
H2_4 H 0.3537 0.2874 0.2500
C3_4 C 0.2679(3) 0.0794(2) 0.2500
H3_4 H 0.2872 0.0142 0.2500
C4_4 C 0.1690(3) 0.1023(2) 0.2500
C5_4 C 0.0889(3) 0.0286(2) 0.2500
N3_5 N 0.0000 0.0736(3) 0.2500
N4_5 N 0.0000 0.22568(18) 0.11018(19)
C6_5 C 0.0000 0.1595(2) 0.0409(3)
H4_5 H 0.0000 0.0937 0.0581
C9_5 C 0.0000 0.3180(2) 0.0823(2)
C10_5 C 0.0000 0.3900(2) 0.1619(3)
O2_5 O 0.0000 0.47497(19) 0.1469(2)
N6_5 N 0.0000 0.3443(2) 0.2500
N9_5 N 0.0000 0.22568(18) 0.38982(19)
C16_5 C 0.0000 0.1595(2) 0.4591(3)
H10_5 H 0.0000 0.0937 0.4419
C17_5 C 0.0000 0.1860(3) 0.5567(3)
H11_5 H 0.0000 0.1373 0.6049
C18_5 C 0.0000 0.3426(3) 0.5147(3)
H12_5 H 0.0000 0.4084 0.5321
C19_5 C 0.0000 0.3180(2) 0.4177(2)
C20_5 C 0.0000 0.3900(2) 0.3381(3)
O4_5 O 0.0000 0.47497(19) 0.3531(2)
C7_5 C -0.0000 0.1860(3) 0.9433(3)
H5_5 H 0.0000 0.1373 0.8951
C8_5 C 0.0000 0.3426(3) 0.9853(3)
H6_5 H 0.0000 0.4084 0.9679
Co1_6 Co 1.0000 0.20924(4) 0.2500
N3_6 N 1.0000 0.0736(3) 0.2500
N4_6 N 1.0000 0.22568(18) 0.11018(19)
C6_6 C 1.0000 0.1595(2) 0.0409(3)
H4_6 H 1.0000 0.0937 0.0581
C9_6 C 1.0000 0.3180(2) 0.0823(2)
C10_6 C 1.0000 0.3900(2) 0.1619(3)
O2_6 O 1.0000 0.47497(19) 0.1469(2)
N6_6 N 1.0000 0.3443(2) 0.2500
N7_4 N 0.8601(3) 0.19393(18) 0.2500
C11_4 C 0.7918(3) 0.2621(2) 0.2500
H7_4 H 0.8106 0.3275 0.2500
C12_4 C 0.6939(4) 0.2378(3) 0.2500
H8_4 H 0.6463 0.2874 0.2500
C13_4 C 0.7321(3) 0.0794(2) 0.2500
H9_4 H 0.7128 0.0142 0.2500
C14_4 C 0.8310(3) 0.1023(2) 0.2500
C15_4 C 0.9111(3) 0.0286(2) 0.2500
N9_6 N 1.0000 0.22568(18) 0.38982(19)
C16_6 C 1.0000 0.1595(2) 0.4591(3)
H10_6 H 1.0000 0.0937 0.4419
C17_6 C 1.0000 0.1860(3) 0.5567(3)
H11_6 H 1.0000 0.1373 0.6049
C18_6 C 1.0000 0.3426(3) 0.5147(3)
H12_6 H 1.0000 0.4084 0.5321
C19_6 C 1.0000 0.3180(2) 0.4177(2)
C20_6 C 1.0000 0.3900(2) 0.3381(3)
O4_6 O 1.0000 0.47497(19) 0.3531(2)
C7_6 C 1.0000 0.1860(3) 0.9433(3)
H5_6 H 1.0000 0.1373 0.8951
C8_6 C 1.0000 0.3426(3) 0.9853(3)
H6_6 H 1.0000 0.4084 0.9679
O3_3 O 0.1048(3) 0.0563(2) 0.7500
O1_3 O 0.8952(3) 0.0563(2) 0.7500
O1_4 O 0.1048(3) 0.9437(2) 0.2500
O3_4 O 0.8952(3) 0.9437(2) 0.2500
loop_
_geom_bond_atom_site_label_1
_geom_bond_atom_site_label_2
_geom_bond_site_symmetry_1
_geom_bond_site_symmetry_2
H11 C17 1_555 1_555
N10 C17 1_555 1_555
C18 N10 1_555 1_555
H12 C18 1_555 1_555
Ag3 N10 1_555 1_555
Co1 N1 1_555 1_555
N1 C1 1_555 1_555
C1 H1 1_555 1_555
C2 C1 1_555 1_555
H2 C2 1_555 1_555
N2 C2 1_555 1_555
C3 N2 1_555 1_555
H3 C3 1_555 1_555
C4 N1 1_555 1_555
C5 C4 1_555 1_555
O1 C5 1_555 1_555
N3 Co1 1_555 1_555
N4 Co1 1_555 1_555
C6 N4 1_555 1_555
H4 C6 1_555 1_555
C7 C6 1_555 1_555
H5 C7 1_555 1_555
N5 C7 1_555 1_555
C8 N5 1_555 1_555
H6 C8 1_555 1_555
C9 N4 1_555 1_555
C10 C9 1_555 1_555
O2 C10 1_555 1_555
N6 Co1 1_555 1_555
N7 Co1 1_555 1_555
C11 N7 1_555 1_555
H7 C11 1_555 1_555
C12 C11 1_555 1_555
H8 C12 1_555 1_555
N8 C12 1_555 1_555
C13 N8 1_555 1_555
H9 C13 1_555 1_555
C14 N7 1_555 1_555
C15 N3 1_555 1_555
O3 C15 1_555 1_555
N9 Co1 1_555 1_555
C16 N9 1_555 1_555
H10 C16 1_555 1_555
C19 N9 1_555 1_555
C20 N6 1_555 1_555
Ag3 N5 1_555 1_555
Ag5 N2 1_555 1_555
Ag5_2 N8 1_555 1_555
C3 C4 1_555 1_555
C5 N3 1_555 1_555
C8 C9 1_555 1_555
C10 N6 1_555 1_555
C13 C14 1_555 1_555
C14 C15 1_555 1_555
C19 C20 1_555 1_555
C20 O4 1_555 1_555
N11 Ag1 1_555 1_555
N12 Ag1 1_555 1_555
N13 Ag1 1_555 1_555
N14 Ag1 1_555 1_555
N11_2 Ag3 1_555 1_555
N12_2 Ag3 1_555 1_555
Co1_2 N1_2 1_555 1_555
N1_2 C1_2 1_555 1_555
C1_2 H1_2 1_555 1_555
C2_2 C1_2 1_555 1_555
H2_2 C2_2 1_555 1_555
N2_2 C2_2 1_555 1_555
C3_2 N2_2 1_555 1_555
H3_2 C3_2 1_555 1_555
C4_2 N1_2 1_555 1_555
C5_2 C4_2 1_555 1_555
O1_2 C5_2 1_555 1_555
N3_2 Co1_2 1_555 1_555
N4_2 Co1_2 1_555 1_555
C6_2 N4_2 1_555 1_555
H4_2 C6_2 1_555 1_555
C9_2 N4_2 1_555 1_555
C10_2 C9_2 1_555 1_555
O2_2 C10_2 1_555 1_555
N6_2 Co1_2 1_555 1_555
N7_2 Co1_2 1_555 1_555
C11_2 N7_2 1_555 1_555
H7_2 C11_2 1_555 1_555
C12_2 C11_2 1_555 1_555
H8_2 C12_2 1_555 1_555
N8_2 C12_2 1_555 1_555
C13_2 N8_2 1_555 1_555
H9_2 C13_2 1_555 1_555
C14_2 N7_2 1_555 1_555
C15_2 N3_2 1_555 1_555
O3_2 C15_2 1_555 1_555
N9_2 Co1_2 1_555 1_555
C16_2 N9_2 1_555 1_555
H10_2 C16_2 1_555 1_555
C17_2 C16_2 1_555 1_555
H11_2 C17_2 1_555 1_555
N14 C17_2 1_555 1_555
C18_2 N14 1_555 1_555
H12_2 C18_2 1_555 1_555
C19_2 N9_2 1_555 1_555
C20_2 N6_2 1_555 1_555
Ag4_2 N2_2 1_555 1_555
Ag4 N8_2 1_555 1_555
C3_2 C4_2 1_555 1_555
C5_2 N3_2 1_555 1_555
C10_2 N6_2 1_555 1_555
C13_2 C14_2 1_555 1_555
C14_2 C15_2 1_555 1_555
C18_2 C19_2 1_555 1_555
C19_2 C20_2 1_555 1_555
C20_2 O4_2 1_555 1_555
H5_2 C7_2 1_555 1_555
N13 C7_2 1_555 1_555
C8_2 N13 1_555 1_555
H6_2 C8_2 1_555 1_555
H11_3 C17_3 1_555 1_555
N10_2 C17_3 1_555 1_555
C18_3 N10_2 1_555 1_555
H12_3 C18_3 1_555 1_555
Ag4 N10_2 1_555 1_555
Ag5 O2_3 1_555 1_555
N3_3 Co1_3 1_555 1_555
N4_3 Co1_3 1_555 1_555
C6_3 N4_3 1_555 1_555
H4_3 C6_3 1_555 1_555
C7_3 C6_3 1_555 1_555
H5_3 C7_3 1_555 1_555
N5_2 C7_3 1_555 1_555
C8_3 N5_2 1_555 1_555
H6_3 C8_3 1_555 1_555
C9_3 N4_3 1_555 1_555
C10_3 C9_3 1_555 1_555
O2_3 C10_3 1_555 1_555
N6_3 Co1_3 1_555 1_555
N7_3 Co1_3 1_555 1_555
C11_3 N7_3 1_555 1_555
H7_3 C11_3 1_555 1_555
C12_3 C11_3 1_555 1_555
H8_3 C12_3 1_555 1_555
N12 C12_3 1_555 1_555
C13_3 N12 1_555 1_555
H9_3 C13_3 1_555 1_555
C14_3 N7_3 1_555 1_555
C15_3 N3_3 1_555 1_555
N9_3 Co1_3 1_555 1_555
C16_3 N9_3 1_555 1_555
H10_3 C16_3 1_555 1_555
C19_3 N9_3 1_555 1_555
C20_3 N6_3 1_555 1_555
O4_3 Ag5 1_555 1_555
Ag4 N5_2 1_555 1_555
N13_2 Ag5 1_555 1_555
N14_2 Ag5 1_555 1_555
C8_3 C9_3 1_555 1_555
C10_3 N6_3 1_555 1_555
C13_3 C14_3 1_555 1_555
C14_3 C15_3 1_555 1_555
C19_3 C20_3 1_555 1_555
C20_3 O4_3 1_555 1_555
H11_4 C17_4 1_555 1_555
N10_3 C17_4 1_555 1_555
C18_4 N10_3 1_555 1_555
H12_4 C18_4 1_555 1_555
Ag4_2 N10_3 1_555 1_555
Co1_4 N1_3 1_555 1_555
Ag5_2 O2_4 1_555 1_555
N1_3 C1_3 1_555 1_555
C1_3 H1_3 1_555 1_555
C2_3 C1_3 1_555 1_555
H2_3 C2_3 1_555 1_555
N11 C2_3 1_555 1_555
C3_3 N11 1_555 1_555
H3_3 C3_3 1_555 1_555
C4_3 N1_3 1_555 1_555
C5_3 C4_3 1_555 1_555
N3_4 Co1_4 1_555 1_555
N4_4 Co1_4 1_555 1_555
C6_4 N4_4 1_555 1_555
H4_4 C6_4 1_555 1_555
C7_4 C6_4 1_555 1_555
H5_4 C7_4 1_555 1_555
N5_3 C7_4 1_555 1_555
C8_4 N5_3 1_555 1_555
H6_4 C8_4 1_555 1_555
C9_4 N4_4 1_555 1_555
C10_4 C9_4 1_555 1_555
O2_4 C10_4 1_555 1_555
N6_4 Co1_4 1_555 1_555
N9_4 Co1_4 1_555 1_555
C16_4 N9_4 1_555 1_555
H10_4 C16_4 1_555 1_555
C19_4 N9_4 1_555 1_555
C20_4 N6_4 1_555 1_555
O4_4 Ag5_2 1_555 1_555
Ag4_2 N5_3 1_555 1_555
N13_3 Ag5_2 1_555 1_555
N14_3 Ag5_2 1_555 1_555
C3_3 C4_3 1_555 1_555
C5_3 N3_4 1_555 1_555
C8_4 C9_4 1_555 1_555
C10_4 N6_4 1_555 1_555
C19_4 C20_4 1_555 1_555
C20_4 O4_4 1_555 1_555
Co1_5 N1_4 1_555 1_555
Ag4 O2_5 1_555 1_555
N1_4 C1_4 1_555 1_555
C1_4 H1_4 1_555 1_555
C2_4 C1_4 1_555 1_555
H2_4 C2_4 1_555 1_555
N11_2 C2_4 1_555 1_555
C3_4 N11_2 1_555 1_555
H3_4 C3_4 1_555 1_555
C4_4 N1_4 1_555 1_555
C5_4 C4_4 1_555 1_555
N3_5 Co1_5 1_555 1_555
N4_5 Co1_5 1_555 1_555
C6_5 N4_5 1_555 1_555
H4_5 C6_5 1_555 1_555
C9_5 N4_5 1_555 1_555
C10_5 C9_5 1_555 1_555
O2_5 C10_5 1_555 1_555
N6_5 Co1_5 1_555 1_555
N9_5 Co1_5 1_555 1_555
C16_5 N9_5 1_555 1_555
H10_5 C16_5 1_555 1_555
C17_5 C16_5 1_555 1_555
H11_5 C17_5 1_555 1_555
N14_2 C17_5 1_555 1_555
C18_5 N14_2 1_555 1_555
H12_5 C18_5 1_555 1_555
C19_5 N9_5 1_555 1_555
C20_5 N6_5 1_555 1_555
O4_5 Ag4 1_555 1_555
C3_4 C4_4 1_555 1_555
C5_4 N3_5 1_555 1_555
C10_5 N6_5 1_555 1_555
C18_5 C19_5 1_555 1_555
C19_5 C20_5 1_555 1_555
C20_5 O4_5 1_555 1_555
H5_5 C7_5 1_555 1_555
N13_2 C7_5 1_555 1_555
C8_5 N13_2 1_555 1_555
H6_5 C8_5 1_555 1_555
Ag4_2 O2_6 1_555 1_555
N3_6 Co1_6 1_555 1_555
N4_6 Co1_6 1_555 1_555
C6_6 N4_6 1_555 1_555
H4_6 C6_6 1_555 1_555
C9_6 N4_6 1_555 1_555
C10_6 C9_6 1_555 1_555
O2_6 C10_6 1_555 1_555
N6_6 Co1_6 1_555 1_555
N7_4 Co1_6 1_555 1_555
C11_4 N7_4 1_555 1_555
H7_4 C11_4 1_555 1_555
C12_4 C11_4 1_555 1_555
H8_4 C12_4 1_555 1_555
N12_2 C12_4 1_555 1_555
C13_4 N12_2 1_555 1_555
H9_4 C13_4 1_555 1_555
C14_4 N7_4 1_555 1_555
C15_4 N3_6 1_555 1_555
N9_6 Co1_6 1_555 1_555
C16_6 N9_6 1_555 1_555
H10_6 C16_6 1_555 1_555
C17_6 C16_6 1_555 1_555
H11_6 C17_6 1_555 1_555
N14_3 C17_6 1_555 1_555
C18_6 N14_3 1_555 1_555
H12_6 C18_6 1_555 1_555
C19_6 N9_6 1_555 1_555
C20_6 N6_6 1_555 1_555
O4_6 Ag4_2 1_555 1_555
C10_6 N6_6 1_555 1_555
C13_4 C14_4 1_555 1_555
C14_4 C15_4 1_555 1_555
C18_6 C19_6 1_555 1_555
C19_6 C20_6 1_555 1_555
C20_6 O4_6 1_555 1_555
H5_6 C7_6 1_555 1_555
N13_3 C7_6 1_555 1_555
C8_6 N13_3 1_555 1_555
H6_6 C8_6 1_555 1_555

#END
