
###############################################################################
#
# This file contains modified crystal structure data generated from the
# MOF subset of the Cambridge Structural Database (CSD) v543 
# hosted by the Cambridge Crystallographic Data Centre (CCDC).
#
# This work is licensed under the Creative Commons
# Attribution-NonCommercial-ShareAlike 4.0 International License.
# To view a copy of this license, visit
# http://creativecommons.org/licenses/by-nc-sa/4.0/
# or send a letter to
# Creative Commons, PO Box 1866, Mountain View, CA 94042, USA.
#
# CIF created using the CSD Python API on 29 September 2022
# The structure has been converted into the P1 space group
# The structure has a 3D framework
# The original CSD entry HOWQOA is in the monoclinic crystal system
# The framework has been calculated to contain at least 10.0% void space
# The void calculation uses a probe of radius 1.32A, grid spacing 0.4
# H atom positions have been added when not included in the experimental data
# Generated hydrogen atom positions removed from atoms on special positions
#
###############################################################################

data_HOWQOA
_chemical_formula_moiety         '(C188 H164 N30 O74 Zn16)n'
_symmetry_cell_setting           triclinic
_symmetry_space_group_name_H-M   'P 1'
_symmetry_Int_Tables_number      1
_space_group_name_Hall           'P 1'
loop_
_symmetry_equiv_pos_site_id
_symmetry_equiv_pos_as_xyz
1 x,y,z
_cell_length_a                   21.632(4)
_cell_length_b                   14.084(3)
_cell_length_c                   25.794(5)
_cell_angle_alpha                90
_cell_angle_beta                 106.27(3)
_cell_angle_gamma                90
_cell_volume                     7543.81
loop_
_atom_site_label
_atom_site_type_symbol
_atom_site_fract_x
_atom_site_fract_y
_atom_site_fract_z
O10 O 0.05061(19) 0.0579(3) 0.17013(16)
Zn8 Zn 0.38990(3) 0.12846(4) 0.28844(2)
Zn17 Zn 0.08379(3) 0.14230(4) 0.12371(3)
N10 N 0.3295(2) 0.0029(3) 0.28688(18)
C61 C 0.2672(3) 0.0004(4) 0.2600(2)
H39 H 0.2482 0.0548 0.2420
Zn2 Zn 0.11861(3) 0.62281(4) 0.22630(2)
Zn3 Zn 0.42450(3) 0.62833(4) 0.39930(3)
N1 N 0.4551(2) 0.2521(3) 0.29124(18)
N3 N 0.0603(2) 0.7430(3) 0.22454(19)
N4 N 0.1793(2) 0.5033(3) 0.24492(18)
N5 N 0.4318(2) 0.1022(3) 0.37107(17)
N6 N 0.1499(2) 0.4030(3) 0.5854(2)
N7 N 0.3661(2) 0.5919(3) 0.4489(2)
N8 N 0.6029(3) 0.7101(4) 0.5017(2)
O1 O 0.4344(2) 0.4937(3) 0.37683(18)
O2 O 0.4741(2) 0.5828(3) 0.3256(2)
O3 O 0.6091(2) 0.5245(3) 0.32027(18)
O4 O 0.54859(17) 0.5459(3) 0.23594(16)
O9 O 0.0463(3) 0.9520(3) 0.1065(2)
O13 O 0.11119(18) 0.2673(3) 0.15598(15)
O14 O 0.17843(18) 0.1717(2) 0.21224(16)
O15 O 0.2993(3) 0.2161(4) 0.3306(2)
O16 O 0.31856(19) 0.2168(3) 0.2507(2)
O17 O 0.5075(2) 0.6511(3) 0.45731(17)
O18 O 0.10778(18) 0.6122(3) 0.14465(15)
O19 O 0.0044(2) 0.1773(3) 0.06583(17)
C1 C 0.4471(3) 0.3317(4) 0.3166(2)
H1 H 0.4181 0.3305 0.3373
C2 C 0.4792(2) 0.4159(4) 0.3142(2)
C3 C 0.4621(3) 0.5046(4) 0.3404(2)
C4 C 0.5240(2) 0.4189(4) 0.2845(2)
C5 C 0.5642(3) 0.5046(4) 0.2809(2)
C6 C 0.5322(3) 0.3357(4) 0.2585(2)
H2 H 0.5615 0.3344 0.2381
C7 C 0.4977(3) 0.2549(4) 0.2622(2)
H3 H 0.5043 0.2005 0.2440
C15 C 0.0623(3) 0.8142(4) 0.1907(2)
H7 H 0.0867 0.8055 0.1666
C16 C 0.0305(3) 0.8997(4) 0.1890(2)
C17 C 0.0428(3) 0.9752(4) 0.1517(3)
C21 C 0.0256(3) 0.7570(4) 0.2590(2)
H9 H 0.0238 0.7087 0.2832
C22 C 0.1585(2) 0.4225(4) 0.2184(2)
H10 H 0.1199 0.4245 0.1910
C23 C 0.1901(2) 0.3367(4) 0.2288(2)
C24 C 0.1589(2) 0.2515(4) 0.1975(2)
C25 C 0.2487(3) 0.3335(4) 0.2690(2)
C26 C 0.2909(3) 0.2470(4) 0.2845(3)
C27 C 0.2707(3) 0.4178(4) 0.2963(2)
H11 H 0.3096 0.4187 0.3233
C28 C 0.2352(3) 0.4995(4) 0.2833(2)
H12 H 0.2508 0.5548 0.3022
C29 C 0.4943(3) 0.0832(5) 0.3888(3)
H13 H 0.5201 0.0970 0.3664
C30 C 0.5228(3) 0.0440(6) 0.4386(3)
H14 H 0.5669 0.0320 0.4492
C31 C 0.4856(3) 0.0224(4) 0.4730(2)
C32 C 0.4207(3) 0.0421(5) 0.4546(2)
H15 H 0.3937 0.0288 0.4761
C33 C 0.3962(3) 0.0816(4) 0.4042(2)
H16 H 0.3523 0.0946 0.3927
C34 C 0.2137(3) 0.3985(4) 0.6079(3)
H17 H 0.2292 0.3707 0.6418
C35 C 0.2570(3) 0.4333(5) 0.5827(3)
H18 H 0.3009 0.4287 0.5999
C36 C 0.2370(3) 0.4749(4) 0.5326(2)
C37 C 0.2823(3) 0.5148(4) 0.5043(2)
C38 C 0.3490(3) 0.5167(5) 0.5269(3)
H19 H 0.3669 0.4925 0.5614
C39 C 0.3882(3) 0.5542(5) 0.4983(3)
H20 H 0.4325 0.5534 0.5141
C40 C 0.3023(3) 0.5925(5) 0.4281(3)
H21 H 0.2854 0.6198 0.3942
C41 C 0.2601(3) 0.5551(5) 0.4537(3)
H22 H 0.2161 0.5570 0.4367
C42 C 0.1708(3) 0.4798(5) 0.5096(3)
H23 H 0.1543 0.5073 0.4757
C43 C 0.1296(3) 0.4440(5) 0.5367(3)
H24 H 0.0855 0.4485 0.5205
C44 C 0.5656(4) 0.7358(6) 0.4047(3)
H25 H 0.5878 0.6902 0.3889
H26 H 0.5901 0.7935 0.4120
H27 H 0.5241 0.7487 0.3802
C45 C 0.5574(3) 0.6968(4) 0.4567(3)
C46 C 0.6647(3) 0.7566(6) 0.5050(4)
H28 H 0.6908 0.7152 0.4903
H29 H 0.6866 0.7703 0.5420
H30 H 0.6571 0.8147 0.4847
C47 C 0.5943(4) 0.6743(6) 0.5521(3)
H31 H 0.5514 0.6879 0.5536
H32 H 0.6248 0.7044 0.5820
H33 H 0.6012 0.6069 0.5541
Zn6 Zn 0.61010(3) 0.62846(4) 0.21156(2)
Zn12 Zn 0.88139(3) 0.12281(4) 0.27370(2)
Zn13 Zn 0.57550(3) 0.12833(4) 0.10070(3)
Zn16 Zn 0.08379(3) 0.35770(4) 0.62371(3)
N14 N 0.8207(2) 0.0033(3) 0.25508(18)
N18 N 0.1499(2) 0.0970(3) 0.0854(2)
N20 N 0.6339(2) 0.0919(3) 0.0511(2)
O21 O 0.5259(2) 0.0828(3) 0.1744(2)
O22 O 0.3909(2) 0.0245(3) 0.17973(18)
O23 O 0.45141(17) 0.0459(3) 0.26406(16)
O25 O 0.4081(2) 0.7671(3) 0.37676(18)
O26 O 0.5919(2) 0.2671(3) 0.12324(18)
O27 O 0.3348(2) 0.6733(3) 0.32742(17)
O28 O 0.1973(2) 0.7285(3) 0.3209(2)
O29 O 0.19517(18) 0.7133(3) 0.23498(18)
O33 O 0.05061(19) 0.4421(3) 0.67013(16)
O34 O 0.0839(2) 0.5241(3) 0.3193(2)
O35 O 0.04383(19) 0.5373(3) 0.23088(18)
O38 O 0.11119(18) 0.2327(3) 0.65598(15)
O42 O 0.4925(2) 0.1511(3) 0.04269(17)
O44 O 0.0044(2) 0.3227(3) 0.56583(17)
C50 C 0.5379(3) 0.0046(4) 0.1596(2)
C52 C 0.4358(3) 0.0046(4) 0.2191(2)
C55 C 0.3550(3) 0.9235(4) 0.3119(2)
H37 H 0.3984 0.9246 0.3311
C56 C 0.3218(3) 0.8391(4) 0.3113(2)
C57 C 0.3568(3) 0.7541(4) 0.3398(2)
C58 C 0.2565(2) 0.8373(4) 0.2833(2)
C59 C 0.2136(3) 0.7518(4) 0.2806(3)
C60 C 0.2295(3) 0.9200(4) 0.2577(3)
H38 H 0.186(3) 0.917(4) 0.238(2)
C65 C 0.0063(3) 0.4128(4) 0.2752(2)
C66 C 0.0476(3) 0.5002(4) 0.2755(3)
C67 C 0.0078(3) 0.3394(4) 0.2395(3)
H41 H 0.031(3) 0.345(4) 0.213(2)
H45 H 0.7492 0.0548 0.1978
C81 C 0.2137(3) 0.1015(4) 0.1079(3)
H50 H 0.2292 0.1293 0.1418
C82 C 0.2570(3) 0.0667(5) 0.0827(3)
H51 H 0.3009 0.0713 0.0999
C83 C 0.2370(3) 0.0251(4) 0.0326(2)
H52 H 0.3669 0.0075 0.0614
C89 C 0.1708(3) 0.0202(5) 0.0096(3)
C90 C 0.1296(3) 0.0560(5) 0.0367(3)
H57 H 0.0855 0.0515 0.0205
C91 C 0.4344(4) 0.2358(6) 0.0953(3)
H58 H 0.4122 0.1902 0.1111
H59 H 0.4099 0.2935 0.0880
H60 H 0.4759 0.2487 0.1198
C92 C 0.4426(3) 0.1968(4) 0.0433(3)
H61 H 0.3092 0.2152 0.0097
H63 H 0.3429 0.3147 0.0153
H69 H 0.0156554 0.222802 0.0404985
H73 H 0.0146166 0.271329 0.543178
N21 N 0.3971(3) 0.2101(4) 0.9983(2)
C93 C 0.3353(3) 0.2566(6) 0.9950(4)
H62 H 0.3134 0.2703 0.9580
C94 C 0.4057(4) 0.1743(6) 0.9479(3)
H64 H 0.4486 0.1879 0.9464
H65 H 0.3752 0.2044 0.9180
H66 H 0.3988 0.1069 0.9459
Zn7 Zn 0.61010(3) 0.87154(4) 0.71156(2)
Zn19 Zn 0.91621(3) 0.64230(4) 0.37629(3)
N9 N 0.5449(2) 0.7521(3) 0.20876(18)
N11 N 0.6705(2) 0.5029(3) 0.21312(18)
N16 N 0.5682(2) 0.8978(3) 0.62893(17)
N17 N 0.5682(2) 0.6022(3) 0.12893(17)
O20 O 0.5656(2) 0.9937(3) 0.12317(18)
O37 O 0.88881(18) 0.7673(3) 0.34402(15)
O39 O 0.82157(18) 0.6717(2) 0.28776(16)
O40 O 0.7007(3) 0.7161(4) 0.1694(2)
O41 O 0.68144(19) 0.7168(3) 0.2493(2)
C48 C 0.5529(3) 0.8317(4) 0.1834(2)
H34 H 0.5819 0.8305 0.1627
C49 C 0.5208(2) 0.9159(4) 0.1858(2)
C51 C 0.4760(2) 0.9189(4) 0.2155(2)
C53 C 0.4678(3) 0.8357(4) 0.2415(2)
H35 H 0.4385 0.8344 0.2619
C54 C 0.5023(3) 0.7549(4) 0.2378(2)
H36 H 0.4957 0.7005 0.2560
C69 C 0.8415(2) 0.9225(4) 0.2816(2)
H43 H 0.8801 0.9245 0.3090
C70 C 0.8099(2) 0.8367(4) 0.2712(2)
C71 C 0.8411(2) 0.7515(4) 0.3025(2)
C72 C 0.7513(3) 0.8335(4) 0.2310(2)
C73 C 0.7091(3) 0.7470(4) 0.2155(3)
C74 C 0.7293(3) 0.9178(4) 0.2037(2)
H44 H 0.6904 0.9187 0.1767
C75 C 0.7648(3) 0.9995(4) 0.2167(2)
C76 C 0.5057(3) 0.9168(5) 0.6112(3)
H46 H 0.4799 0.9030 0.6336
C77 C 0.4772(3) 0.9560(6) 0.5614(3)
H47 H 0.4331 0.9680 0.5508
C78 C 0.5144(3) 0.9776(4) 0.5270(2)
C79 C 0.5793(3) 0.9579(5) 0.5454(2)
H48 H 0.6063 0.9712 0.5239
C80 C 0.6038(3) 0.9184(4) 0.5958(2)
H49 H 0.6477 0.9054 0.6073
C84 C 0.2823(3) 0.9852(4) 0.0043(2)
C85 C 0.3490(3) 0.9833(5) 0.0269(3)
H53 H 0.4325 0.9466 0.0141
Zn15 Zn 0.42450(3) 0.87167(4) 0.89930(3)
N19 N 0.3661(2) 0.9081(3) 0.9489(2)
C86 C 0.3882(3) 0.9458(5) 0.9983(3)
C87 C 0.3023(3) 0.9075(5) 0.9281(3)
H54 H 0.2854 0.8802 0.8942
C88 C 0.2601(3) 0.9449(5) 0.9537(3)
H55 H 0.2161 0.9430 0.9367
H56 H 0.1543 0.9927 0.9757
O11 O 0.9161(2) 0.0241(3) 0.1807(2)
O12 O 0.95617(19) 0.0373(3) 0.26912(18)
C19 C 0.9524(3) 0.0002(4) 0.2245(3)
C18 C 0.9937(3) 0.9128(4) 0.2248(2)
C20 C 0.9922(3) 0.8394(4) 0.2605(3)
H8 H 0.969(3) 0.845(4) 0.287(2)
N12 N 0.9397(2) 0.2430(3) 0.27546(19)
O30 O 0.9537(3) 0.4520(3) 0.3935(2)
O31 O 0.94939(19) 0.5579(3) 0.32987(16)
C62 C 0.9377(3) 0.3142(4) 0.3093(2)
H40 H 0.9133 0.3055 0.3334
C63 C 0.9695(3) 0.3997(4) 0.3110(2)
C64 C 0.9572(3) 0.4752(4) 0.3483(3)
C68 C 0.9744(3) 0.2570(4) 0.2410(2)
H42 H 0.9762 0.2087 0.2168
H70 H 0.985141 0.119323 0.0458282
H74 H 0.970906 0.300251 0.582551
H70_2 H 0.0148588 0.619323 0.454172
O18_2 O 0.89222(18) 0.1122(3) 0.35535(15)
C39_2 C 0.6118(3) 0.0542(5) 0.0017(3)
C40_2 C 0.6977(3) 0.0925(5) 0.0719(3)
H21_2 H 0.7146 0.1198 0.1058
C41_2 C 0.7399(3) 0.0551(5) 0.0463(3)
H22_2 H 0.7839 0.0570 0.0633
H23_2 H 0.8457 0.0073 0.0243
O27_2 O 0.6652(2) 0.1733(3) 0.17258(17)
O28_2 O 0.8027(2) 0.2285(3) 0.1791(2)
O29_2 O 0.80483(18) 0.2133(3) 0.26502(18)
C55_2 C 0.6450(3) 0.4235(4) 0.1881(2)
H37_2 H 0.6016 0.4246 0.1689
C56_2 C 0.6782(3) 0.3391(4) 0.1887(2)
C57_2 C 0.6432(3) 0.2541(4) 0.1602(2)
C58_2 C 0.7435(2) 0.3373(4) 0.2167(2)
C59_2 C 0.7864(3) 0.2518(4) 0.2194(3)
C60_2 C 0.7705(3) 0.4200(4) 0.2423(3)
H38_2 H 0.814(3) 0.417(4) 0.262(2)
C61_2 C 0.7328(3) 0.5004(4) 0.2400(2)
H39_2 H 0.7518 0.5548 0.2580
C37_2 C 0.7177(3) 0.0148(4) 0.9957(2)
C38_2 C 0.6510(3) 0.0167(5) 0.9731(3)
H20_2 H 0.5675 0.0534 0.9859
O19_2 O 0.9956(2) 0.6773(3) 0.43417(17)
C29_2 C 0.5057(3) 0.5832(5) 0.1112(3)
H13_2 H 0.4799 0.5970 0.1336
C30_2 C 0.4772(3) 0.5440(6) 0.0614(3)
H14_2 H 0.4331 0.5320 0.0508
C31_2 C 0.5144(3) 0.5224(4) 0.0270(2)
C32_2 C 0.5793(3) 0.5421(5) 0.0454(2)
H15_2 H 0.6063 0.5288 0.0239
C33_2 C 0.6038(3) 0.5816(4) 0.0958(2)
H16_2 H 0.6477 0.5946 0.1073
Zn15_2 Zn 0.57550(3) 0.37167(4) 0.60070(3)
N18_2 N 0.8501(2) 0.5970(3) 0.4146(2)
N19_2 N 0.6339(2) 0.4081(3) 0.5511(2)
C81_2 C 0.7863(3) 0.6015(4) 0.3921(3)
H50_2 H 0.7708 0.6293 0.3582
C82_2 C 0.7430(3) 0.5667(5) 0.4173(3)
H51_2 H 0.6991 0.5713 0.4001
C83_2 C 0.7630(3) 0.5251(4) 0.4674(2)
C84_2 C 0.7177(3) 0.4852(4) 0.4957(2)
C85_2 C 0.6510(3) 0.4833(5) 0.4731(3)
H52_2 H 0.6331 0.5075 0.4386
C86_2 C 0.6118(3) 0.4458(5) 0.5017(3)
H53_2 H 0.5675 0.4466 0.4859
C87_2 C 0.6977(3) 0.4075(5) 0.5719(3)
H54_2 H 0.7146 0.3802 0.6058
C88_2 C 0.7399(3) 0.4449(5) 0.5463(3)
H55_2 H 0.7839 0.4430 0.5633
C89_2 C 0.8292(3) 0.5202(5) 0.4904(3)
H56_2 H 0.8457 0.4927 0.5243
C90_2 C 0.8704(3) 0.5560(5) 0.4633(3)
H57_2 H 0.9145 0.5515 0.4795
H69_2 H 0.984345 0.722802 0.459502
N6_2 N 0.8501(2) 0.9030(3) 0.9146(2)
C34_2 C 0.7863(3) 0.8985(4) 0.8921(3)
H17_2 H 0.7708 0.8707 0.8582
C35_2 C 0.7430(3) 0.9333(5) 0.9173(3)
H18_2 H 0.6991 0.9287 0.9001
C36_2 C 0.7630(3) 0.9749(4) 0.9674(2)
H19_2 H 0.6331 0.9925 0.9386
C42_2 C 0.8292(3) 0.9798(5) 0.9904(3)
C43_2 C 0.8704(3) 0.9440(5) 0.9633(3)
H24_2 H 0.9145 0.9485 0.9795
Zn7_2 Zn 0.38990(3) 0.37154(4) 0.78844(2)
Zn16_2 Zn 0.91621(3) 0.85770(4) 0.87629(3)
N16_2 N 0.4318(2) 0.3978(3) 0.87107(17)
O33_2 O 0.94939(19) 0.9421(3) 0.82987(16)
O38_2 O 0.88881(18) 0.7327(3) 0.84402(15)
O44_2 O 0.9956(2) 0.8227(3) 0.93417(17)
C76_2 C 0.4943(3) 0.4168(5) 0.8888(3)
H46_2 H 0.5201 0.4030 0.8664
C77_2 C 0.5228(3) 0.4560(6) 0.9386(3)
H47_2 H 0.5669 0.4680 0.9492
C78_2 C 0.4856(3) 0.4776(4) 0.9730(2)
C79_2 C 0.4207(3) 0.4579(5) 0.9546(2)
H48_2 H 0.3937 0.4712 0.9761
C80_2 C 0.3962(3) 0.4184(4) 0.9042(2)
H49_2 H 0.3523 0.4054 0.8927
H73_2 H 0.985383 0.771329 0.956822
C18_2 C 0.0063(3) 0.0872(4) 0.7752(2)
C20_2 C 0.0078(3) 0.1606(4) 0.7395(3)
H8_2 H 0.031(3) 0.155(4) 0.713(2)
Zn11 Zn 0.11861(3) 0.87719(4) 0.72630(2)
N12_2 N 0.0603(2) 0.7570(3) 0.72454(19)
O30_2 O 0.0463(3) 0.5480(3) 0.6065(2)
C62_2 C 0.0623(3) 0.6858(4) 0.6907(2)
H40_2 H 0.0867 0.6945 0.6666
C63_2 C 0.0305(3) 0.6003(4) 0.6890(2)
C64_2 C 0.0428(3) 0.5248(4) 0.6517(3)
C68_2 C 0.0256(3) 0.7430(4) 0.7590(2)
H42_2 H 0.0238 0.7913 0.7832
H70_3 H 0.0148588 0.880677 0.954172
H74_2 H 0.0290944 0.699749 0.417449
O11_2 O 0.0839(2) 0.9759(3) 0.8193(2)
O12_2 O 0.04383(19) 0.9627(3) 0.73088(18)
C19_2 C 0.0476(3) 0.9998(4) 0.7755(3)
O5 O 0.5919(2) 0.2329(3) 0.62324(18)
O6 O 0.6652(2) 0.3267(3) 0.67258(17)
O7 O 0.8027(2) 0.2715(3) 0.6791(2)
O8 O 0.80483(18) 0.2867(3) 0.76502(18)
C8 C 0.6450(3) 0.0765(4) 0.6881(2)
H4 H 0.6016 0.0754 0.6689
C9 C 0.6782(3) 0.1609(4) 0.6887(2)
C10 C 0.6432(3) 0.2459(4) 0.6602(2)
C11 C 0.7435(2) 0.1627(4) 0.7167(2)
C12 C 0.7864(3) 0.2482(4) 0.7194(3)
C13 C 0.7705(3) 0.0800(4) 0.7423(3)
H5 H 0.814(3) 0.083(4) 0.762(2)
Zn9 Zn 0.88139(3) 0.37719(4) 0.77370(2)
N9_2 N 0.4551(2) 0.2479(3) 0.79124(18)
N11_2 N 0.3295(2) 0.4971(3) 0.78688(18)
N13 N 0.9397(2) 0.2570(3) 0.77546(19)
N15 N 0.8207(2) 0.4967(3) 0.75508(18)
O20_2 O 0.4344(2) 0.0063(3) 0.87683(18)
O24 O 0.45141(17) 0.4541(3) 0.76406(16)
O36 O 0.95617(19) 0.4627(3) 0.76912(18)
O39_2 O 0.17843(18) 0.3283(2) 0.71224(16)
O40_2 O 0.2993(3) 0.2839(4) 0.8306(2)
O41_2 O 0.31856(19) 0.2832(3) 0.7507(2)
O43 O 0.89222(18) 0.3878(3) 0.85535(15)
C48_2 C 0.4471(3) 0.1683(4) 0.8166(2)
H34_2 H 0.4181 0.1695 0.8373
C49_2 C 0.4792(2) 0.0841(4) 0.8142(2)
C51_2 C 0.5240(2) 0.0811(4) 0.7845(2)
C53_2 C 0.5322(3) 0.1643(4) 0.7585(2)
H35_2 H 0.5615 0.1656 0.7381
C54_2 C 0.4977(3) 0.2451(4) 0.7622(2)
H36_2 H 0.5043 0.2995 0.7440
C69_2 C 0.1585(2) 0.0775(4) 0.7184(2)
H43_2 H 0.1199 0.0755 0.6910
C70_2 C 0.1901(2) 0.1633(4) 0.7288(2)
C71_2 C 0.1589(2) 0.2485(4) 0.6975(2)
C72_2 C 0.2487(3) 0.1665(4) 0.7690(2)
C73_2 C 0.2909(3) 0.2530(4) 0.7845(3)
C74_2 C 0.2707(3) 0.0822(4) 0.7963(2)
H44_2 H 0.3096 0.0813 0.8233
C75_2 C 0.2352(3) 0.0005(4) 0.7833(2)
N21_2 N 0.6029(3) 0.7899(4) 0.0017(2)
C93_2 C 0.6647(3) 0.7434(6) 0.0050(4)
H62_2 H 0.6866 0.7297 0.0420
C94_2 C 0.5943(4) 0.8257(6) 0.0521(3)
H64_2 H 0.5514 0.8121 0.0536
H65_2 H 0.6248 0.7956 0.0820
H66_2 H 0.6012 0.8931 0.0541
N1_2 N 0.5449(2) 0.7479(3) 0.70876(18)
N2 N 0.6705(2) 0.9971(3) 0.71312(18)
N8_2 N 0.3971(3) 0.2899(4) 0.4983(2)
O1_2 O 0.5656(2) 0.5063(3) 0.62317(18)
O2_2 O 0.5259(2) 0.4172(3) 0.6744(2)
O3_2 O 0.3909(2) 0.4755(3) 0.67973(18)
O9_2 O 0.9537(3) 0.0480(3) 0.8935(2)
O14_2 O 0.82157(18) 0.8283(2) 0.78776(16)
O15_2 O 0.7007(3) 0.7839(4) 0.6694(2)
O16_2 O 0.68144(19) 0.7832(3) 0.7493(2)
O17_2 O 0.4925(2) 0.3489(3) 0.54269(17)
C1_2 C 0.5529(3) 0.6683(4) 0.6834(2)
H1_2 H 0.5819 0.6695 0.6627
C2_2 C 0.5208(2) 0.5841(4) 0.6858(2)
C3_2 C 0.5379(3) 0.4954(4) 0.6596(2)
C4_2 C 0.4760(2) 0.5811(4) 0.7155(2)
C5_2 C 0.4358(3) 0.4954(4) 0.7191(2)
C6_2 C 0.4678(3) 0.6643(4) 0.7415(2)
H2_2 H 0.4385 0.6656 0.7619
C7_2 C 0.5023(3) 0.7451(4) 0.7378(2)
H3_2 H 0.4957 0.7995 0.7560
C14 C 0.7328(3) 0.9996(4) 0.7400(2)
H6 H 0.7518 0.9452 0.7580
C15_2 C 0.9377(3) 0.1858(4) 0.8093(2)
H7_2 H 0.9133 0.1945 0.8334
C16_2 C 0.9695(3) 0.1003(4) 0.8110(2)
C17_2 C 0.9572(3) 0.0248(4) 0.8483(3)
C21_2 C 0.9744(3) 0.2430(4) 0.7410(2)
H9_2 H 0.9762 0.2913 0.7168
C22_2 C 0.8415(2) 0.5775(4) 0.7816(2)
H10_2 H 0.8801 0.5755 0.8090
C23_2 C 0.8099(2) 0.6633(4) 0.7712(2)
C24_2 C 0.8411(2) 0.7485(4) 0.8025(2)
C25_2 C 0.7513(3) 0.6665(4) 0.7310(2)
C26_2 C 0.7091(3) 0.7530(4) 0.7155(3)
C27_2 C 0.7293(3) 0.5822(4) 0.7037(2)
H11_2 H 0.6904 0.5813 0.6767
C28_2 C 0.7648(3) 0.5005(4) 0.7167(2)
H12_2 H 0.7492 0.4452 0.6978
C44_2 C 0.4344(4) 0.2642(6) 0.5953(3)
H25_2 H 0.4122 0.3098 0.6111
H26_2 H 0.4099 0.2065 0.5880
H27_2 H 0.4759 0.2513 0.6198
C45_2 C 0.4426(3) 0.3032(4) 0.5433(3)
C46_2 C 0.3353(3) 0.2434(6) 0.4950(4)
H28_2 H 0.3092 0.2848 0.5097
H29_2 H 0.3134 0.2297 0.4580
H30_2 H 0.3429 0.1853 0.5153
C47_2 C 0.4057(4) 0.3257(6) 0.4479(3)
H31_2 H 0.4486 0.3121 0.4464
H32_2 H 0.3752 0.2956 0.4180
H33_2 H 0.3988 0.3931 0.4459
N14_2 N 0.1793(2) 0.9967(3) 0.74492(18)
O21_2 O 0.4741(2) 0.9172(3) 0.8256(2)
O22_2 O 0.6091(2) 0.9755(3) 0.82027(18)
O23_2 O 0.54859(17) 0.9541(3) 0.73594(16)
O26_2 O 0.4081(2) 0.7329(3) 0.87676(18)
O34_2 O 0.9161(2) 0.4759(3) 0.6807(2)
O42_2 O 0.5075(2) 0.8489(3) 0.95731(17)
C50_2 C 0.4621(3) 0.9954(4) 0.8404(2)
C52_2 C 0.5642(3) 0.9954(4) 0.7809(2)
C65_2 C 0.9937(3) 0.5872(4) 0.7248(2)
C66_2 C 0.9524(3) 0.4998(4) 0.7245(3)
C67_2 C 0.9922(3) 0.6606(4) 0.7605(3)
H41_2 H 0.969(3) 0.655(4) 0.787(2)
H45_2 H 0.2508 0.9452 0.8022
C91_2 C 0.5656(4) 0.7642(6) 0.9047(3)
H58_2 H 0.5878 0.8098 0.8889
H59_2 H 0.5901 0.7065 0.9120
H60_2 H 0.5241 0.7513 0.8802
C92_2 C 0.5574(3) 0.8032(4) 0.9567(3)
H61_2 H 0.6908 0.7848 0.9903
H63_2 H 0.6571 0.6853 0.9847
H69_3 H 0.984345 0.777198 0.959502
H73_3 H 0.985383 0.728671 0.456822
H73_4 H 0.0146166 0.228671 0.0431782
O6_2 O 0.3348(2) 0.8267(3) 0.82742(17)
O7_2 O 0.1973(2) 0.7715(3) 0.8209(2)
O8_2 O 0.19517(18) 0.7867(3) 0.73498(18)
C8_2 C 0.3550(3) 0.5765(4) 0.8119(2)
H4_2 H 0.3984 0.5754 0.8311
C9_2 C 0.3218(3) 0.6609(4) 0.8113(2)
C10_2 C 0.3568(3) 0.7459(4) 0.8398(2)
C11_2 C 0.2565(2) 0.6627(4) 0.7833(2)
C12_2 C 0.2136(3) 0.7482(4) 0.7806(3)
C13_2 C 0.2295(3) 0.5800(4) 0.7577(3)
H5_2 H 0.186(3) 0.583(4) 0.738(2)
C14_2 C 0.2672(3) 0.4996(4) 0.7600(2)
H6_2 H 0.2482 0.4452 0.7420
O43_2 O 0.10778(18) 0.8878(3) 0.64465(15)
H69_4 H 0.0156554 0.277198 0.540498
H70_4 H 0.985141 0.380677 0.545828
H74_3 H 0.0290944 0.800251 0.917449
H74_4 H 0.970906 0.199749 0.0825506
loop_
_geom_bond_atom_site_label_1
_geom_bond_atom_site_label_2
_geom_bond_site_symmetry_1
_geom_bond_site_symmetry_2
Zn8 N10 1_555 1_555
Zn17 O10 1_555 1_555
C61 N10 1_555 1_555
H39 C61 1_555 1_555
Zn8 N1 1_555 1_555
Zn2 N3 1_555 1_555
Zn3 N7 1_555 1_555
Zn17 O13 1_555 1_555
N1 C1 1_555 1_555
N3 C15 1_555 1_555
N4 Zn2 1_555 1_555
N5 Zn8 1_555 1_555
N6 C34 1_555 1_555
N7 C39 1_555 1_555
N8 C45 1_555 1_555
O1 Zn3 1_555 1_555
O2 C3 1_555 1_555
O3 C5 1_555 1_555
O4 C5 1_555 1_555
O9 C17 1_555 1_555
O13 C24 1_555 1_555
O14 C24 1_555 1_555
O15 C26 1_555 1_555
O16 Zn8 1_555 1_555
O17 Zn3 1_555 1_555
O18 Zn2 1_555 1_555
O19 Zn17 1_555 1_555
C1 H1 1_555 1_555
C2 C1 1_555 1_555
C3 O1 1_555 1_555
C4 C2 1_555 1_555
C5 C4 1_555 1_555
C6 C4 1_555 1_555
H2 C6 1_555 1_555
C7 N1 1_555 1_555
H3 C7 1_555 1_555
C15 H7 1_555 1_555
C16 C15 1_555 1_555
C17 C16 1_555 1_555
C21 N3 1_555 1_555
H9 C21 1_555 1_555
C22 N4 1_555 1_555
H10 C22 1_555 1_555
C23 C22 1_555 1_555
C24 C23 1_555 1_555
C25 C23 1_555 1_555
C26 O16 1_555 1_555
C27 C25 1_555 1_555
H11 C27 1_555 1_555
C28 N4 1_555 1_555
H12 C28 1_555 1_555
C29 N5 1_555 1_555
H13 C29 1_555 1_555
C30 C29 1_555 1_555
H14 C30 1_555 1_555
C31 C30 1_555 1_555
C32 C31 1_555 1_555
H15 C32 1_555 1_555
C33 N5 1_555 1_555
H16 C33 1_555 1_555
C34 H17 1_555 1_555
C35 C34 1_555 1_555
H18 C35 1_555 1_555
C36 C35 1_555 1_555
C37 C36 1_555 1_555
C38 C37 1_555 1_555
H19 C38 1_555 1_555
C39 C38 1_555 1_555
H20 C39 1_555 1_555
C40 N7 1_555 1_555
H21 C40 1_555 1_555
C41 C37 1_555 1_555
H22 C41 1_555 1_555
C42 C36 1_555 1_555
H23 C42 1_555 1_555
C43 N6 1_555 1_555
H24 C43 1_555 1_555
C44 H25 1_555 1_555
H26 C44 1_555 1_555
H27 C44 1_555 1_555
C45 O17 1_555 1_555
C46 N8 1_555 1_555
H28 C46 1_555 1_555
H29 C46 1_555 1_555
H30 C46 1_555 1_555
C47 N8 1_555 1_555
H31 C47 1_555 1_555
H32 C47 1_555 1_555
H33 C47 1_555 1_555
Zn6 O4 1_555 1_555
Zn12 N14 1_555 1_555
Zn13 N20 1_555 1_555
Zn16 N6 1_555 1_555
N18 Zn17 1_555 1_555
O21 C50 1_555 1_555
O22 C52 1_555 1_555
O23 Zn8 1_555 1_555
O25 Zn3 1_555 1_555
O26 Zn13 1_555 1_555
O27 C57 1_555 1_555
O28 C59 1_555 1_555
O29 Zn2 1_555 1_555
O33 Zn16 1_555 1_555
O34 C66 1_555 1_555
O35 Zn2 1_555 1_555
O38 Zn16 1_555 1_555
O42 Zn13 1_555 1_555
O44 Zn16 1_555 1_555
C52 O23 1_555 1_555
C55 H37 1_555 1_555
C56 C55 1_555 1_555
C57 O25 1_555 1_555
C58 C56 1_555 1_555
C59 O29 1_555 1_555
C60 C58 1_555 1_555
H38 C60 1_555 1_555
C66 O35 1_555 1_555
C67 C65 1_555 1_555
H41 C67 1_555 1_555
C81 N18 1_555 1_555
H50 C81 1_555 1_555
C82 C81 1_555 1_555
H51 C82 1_555 1_555
C83 C82 1_555 1_555
C89 C83 1_555 1_555
C90 N18 1_555 1_555
H57 C90 1_555 1_555
C91 H58 1_555 1_555
H59 C91 1_555 1_555
H60 C91 1_555 1_555
C92 O42 1_555 1_555
C2 C3 1_555 1_555
C6 C7 1_555 1_555
C25 C26 1_555 1_555
C27 C28 1_555 1_555
C32 C33 1_555 1_555
C40 C41 1_555 1_555
C42 C43 1_555 1_555
C44 C45 1_555 1_555
C56 C57 1_555 1_555
C58 C59 1_555 1_555
C65 C66 1_555 1_555
C89 C90 1_555 1_555
C91 C92 1_555 1_555
O19 H69 1_555 1_555
O44 H73 1_555 1_555
C93 N21 1_555 1_555
H62 C93 1_555 1_555
C94 N21 1_555 1_555
H64 C94 1_555 1_555
H65 C94 1_555 1_555
H66 C94 1_555 1_555
Zn6 N9 1_555 1_555
Zn7 N16 1_555 1_555
Zn19 O37 1_555 1_555
N9 C48 1_555 1_555
N11 Zn6 1_555 1_555
N16 C76 1_555 1_555
N17 Zn6 1_555 1_555
O37 C71 1_555 1_555
O39 C71 1_555 1_555
O40 C73 1_555 1_555
O41 Zn6 1_555 1_555
C48 H34 1_555 1_555
C49 C48 1_555 1_555
C51 C49 1_555 1_555
C53 C51 1_555 1_555
H35 C53 1_555 1_555
C54 N9 1_555 1_555
H36 C54 1_555 1_555
C69 H43 1_555 1_555
C70 C69 1_555 1_555
C71 C70 1_555 1_555
C72 C70 1_555 1_555
C73 O41 1_555 1_555
C74 C72 1_555 1_555
H44 C74 1_555 1_555
C76 H46 1_555 1_555
C77 C76 1_555 1_555
H47 C77 1_555 1_555
C79 C78 1_555 1_555
H48 C79 1_555 1_555
C80 N16 1_555 1_555
H49 C80 1_555 1_555
C85 C84 1_555 1_555
C53 C54 1_555 1_555
C72 C73 1_555 1_555
C74 C75 1_555 1_555
C77 C78 1_555 1_555
C79 C80 1_555 1_555
Zn15 N19 1_555 1_555
N19 C86 1_555 1_555
C87 N19 1_555 1_555
H54 C87 1_555 1_555
H55 C88 1_555 1_555
C87 C88 1_555 1_555
O11 C19 1_555 1_555
O12 C19 1_555 1_555
Zn12 O12 1_555 1_555
C20 C18 1_555 1_555
H8 C20 1_555 1_555
Zn12 N12 1_555 1_555
Zn19 O31 1_555 1_555
N12 C62 1_555 1_555
O30 C64 1_555 1_555
O31 C64 1_555 1_555
C62 H40 1_555 1_555
C63 C62 1_555 1_555
C64 C63 1_555 1_555
C68 N12 1_555 1_555
H42 C68 1_555 1_555
N20 C39_2 1_555 1_555
O18_2 Zn12 1_555 1_555
C40_2 N20 1_555 1_555
H21_2 C40_2 1_555 1_555
H22_2 C41_2 1_555 1_555
N11 C55_2 1_555 1_555
O27_2 C57_2 1_555 1_555
O28_2 C59_2 1_555 1_555
O29_2 Zn12 1_555 1_555
C55_2 H37_2 1_555 1_555
C56_2 C55_2 1_555 1_555
C57_2 O26 1_555 1_555
C58_2 C56_2 1_555 1_555
C59_2 O29_2 1_555 1_555
C60_2 C58_2 1_555 1_555
H38_2 C60_2 1_555 1_555
C61_2 N11 1_555 1_555
H39_2 C61_2 1_555 1_555
C40_2 C41_2 1_555 1_555
C56_2 C57_2 1_555 1_555
C58_2 C59_2 1_555 1_555
C60_2 C61_2 1_555 1_555
C38_2 C37_2 1_555 1_555
O19_2 Zn19 1_555 1_555
C29_2 N17 1_555 1_555
H13_2 C29_2 1_555 1_555
C30_2 C29_2 1_555 1_555
H14_2 C30_2 1_555 1_555
C31_2 C30_2 1_555 1_555
C32_2 C31_2 1_555 1_555
H15_2 C32_2 1_555 1_555
C33_2 N17 1_555 1_555
H16_2 C33_2 1_555 1_555
Zn15_2 N19_2 1_555 1_555
N18_2 Zn19 1_555 1_555
N19_2 C86_2 1_555 1_555
C81_2 N18_2 1_555 1_555
H50_2 C81_2 1_555 1_555
C82_2 C81_2 1_555 1_555
H51_2 C82_2 1_555 1_555
C83_2 C82_2 1_555 1_555
C84_2 C83_2 1_555 1_555
C85_2 C84_2 1_555 1_555
H52_2 C85_2 1_555 1_555
C86_2 C85_2 1_555 1_555
H53_2 C86_2 1_555 1_555
C87_2 N19_2 1_555 1_555
H54_2 C87_2 1_555 1_555
C88_2 C84_2 1_555 1_555
H55_2 C88_2 1_555 1_555
C89_2 C83_2 1_555 1_555
H56_2 C89_2 1_555 1_555
C90_2 N18_2 1_555 1_555
H57_2 C90_2 1_555 1_555
C32_2 C33_2 1_555 1_555
C87_2 C88_2 1_555 1_555
C89_2 C90_2 1_555 1_555
O19_2 H69_2 1_555 1_555
N6_2 C34_2 1_555 1_555
C34_2 H17_2 1_555 1_555
C35_2 C34_2 1_555 1_555
H18_2 C35_2 1_555 1_555
C36_2 C35_2 1_555 1_555
C42_2 C36_2 1_555 1_555
C43_2 N6_2 1_555 1_555
H24_2 C43_2 1_555 1_555
Zn7_2 N16_2 1_555 1_555
Zn16_2 N6_2 1_555 1_555
N16_2 C76_2 1_555 1_555
O33_2 Zn16_2 1_555 1_555
O38_2 Zn16_2 1_555 1_555
O44_2 Zn16_2 1_555 1_555
C76_2 H46_2 1_555 1_555
C77_2 C76_2 1_555 1_555
H47_2 C77_2 1_555 1_555
C79_2 C78_2 1_555 1_555
H48_2 C79_2 1_555 1_555
C80_2 N16_2 1_555 1_555
H49_2 C80_2 1_555 1_555
C42_2 C43_2 1_555 1_555
C77_2 C78_2 1_555 1_555
C79_2 C80_2 1_555 1_555
O44_2 H73_2 1_555 1_555
C20_2 C18_2 1_555 1_555
H8_2 C20_2 1_555 1_555
Zn11 N12_2 1_555 1_555
N12_2 C62_2 1_555 1_555
O30_2 C64_2 1_555 1_555
O33 C64_2 1_555 1_555
C62_2 H40_2 1_555 1_555
C63_2 C62_2 1_555 1_555
C64_2 C63_2 1_555 1_555
C68_2 N12_2 1_555 1_555
H42_2 C68_2 1_555 1_555
O11_2 C19_2 1_555 1_555
O12_2 C19_2 1_555 1_555
Zn11 O12_2 1_555 1_555
O5 C10 1_555 1_555
O6 C10 1_555 1_555
O7 C12 1_555 1_555
O8 C12 1_555 1_555
H4 C8 1_555 1_555
C9 C8 1_555 1_555
C10 C9 1_555 1_555
C11 C9 1_555 1_555
C12 C11 1_555 1_555
C13 C11 1_555 1_555
H5 C13 1_555 1_555
Zn7_2 N9_2 1_555 1_555
Zn9 O8 1_555 1_555
Zn15_2 O5 1_555 1_555
N9_2 C48_2 1_555 1_555
N11_2 Zn7_2 1_555 1_555
N13 Zn9 1_555 1_555
N15 Zn9 1_555 1_555
O24 Zn7_2 1_555 1_555
O36 Zn9 1_555 1_555
O38 C71_2 1_555 1_555
O39_2 C71_2 1_555 1_555
O40_2 C73_2 1_555 1_555
O41_2 Zn7_2 1_555 1_555
O43 Zn9 1_555 1_555
C48_2 H34_2 1_555 1_555
C49_2 C48_2 1_555 1_555
C51_2 C49_2 1_555 1_555
C53_2 C51_2 1_555 1_555
H35_2 C53_2 1_555 1_555
C54_2 N9_2 1_555 1_555
H36_2 C54_2 1_555 1_555
C69_2 H43_2 1_555 1_555
C70_2 C69_2 1_555 1_555
C71_2 C70_2 1_555 1_555
C72_2 C70_2 1_555 1_555
C73_2 O41_2 1_555 1_555
C74_2 C72_2 1_555 1_555
H44_2 C74_2 1_555 1_555
C53_2 C54_2 1_555 1_555
C72_2 C73_2 1_555 1_555
C74_2 C75_2 1_555 1_555
C93_2 N21_2 1_555 1_555
H62_2 C93_2 1_555 1_555
C94_2 N21_2 1_555 1_555
H64_2 C94_2 1_555 1_555
H65_2 C94_2 1_555 1_555
H66_2 C94_2 1_555 1_555
Zn7 N1_2 1_555 1_555
N1_2 C1_2 1_555 1_555
N2 Zn7 1_555 1_555
N13 C15_2 1_555 1_555
N8_2 C45_2 1_555 1_555
O1_2 Zn15_2 1_555 1_555
O2_2 C3_2 1_555 1_555
O3_2 C5_2 1_555 1_555
O24 C5_2 1_555 1_555
O9_2 C17_2 1_555 1_555
O38_2 C24_2 1_555 1_555
O14_2 C24_2 1_555 1_555
O15_2 C26_2 1_555 1_555
O16_2 Zn7 1_555 1_555
O17_2 Zn15_2 1_555 1_555
C1_2 H1_2 1_555 1_555
C2_2 C1_2 1_555 1_555
C3_2 O1_2 1_555 1_555
C4_2 C2_2 1_555 1_555
C5_2 C4_2 1_555 1_555
C6_2 C4_2 1_555 1_555
H2_2 C6_2 1_555 1_555
C7_2 N1_2 1_555 1_555
H3_2 C7_2 1_555 1_555
C14 N2 1_555 1_555
H6 C14 1_555 1_555
C15_2 H7_2 1_555 1_555
C16_2 C15_2 1_555 1_555
C17_2 C16_2 1_555 1_555
C21_2 N13 1_555 1_555
H9_2 C21_2 1_555 1_555
C22_2 N15 1_555 1_555
H10_2 C22_2 1_555 1_555
C23_2 C22_2 1_555 1_555
C24_2 C23_2 1_555 1_555
C25_2 C23_2 1_555 1_555
C26_2 O16_2 1_555 1_555
C27_2 C25_2 1_555 1_555
H11_2 C27_2 1_555 1_555
C28_2 N15 1_555 1_555
H12_2 C28_2 1_555 1_555
C44_2 H25_2 1_555 1_555
H26_2 C44_2 1_555 1_555
H27_2 C44_2 1_555 1_555
C45_2 O17_2 1_555 1_555
C46_2 N8_2 1_555 1_555
H28_2 C46_2 1_555 1_555
H29_2 C46_2 1_555 1_555
H30_2 C46_2 1_555 1_555
C47_2 N8_2 1_555 1_555
H31_2 C47_2 1_555 1_555
H32_2 C47_2 1_555 1_555
H33_2 C47_2 1_555 1_555
Zn11 N14_2 1_555 1_555
O21_2 C50_2 1_555 1_555
O22_2 C52_2 1_555 1_555
O23_2 Zn7 1_555 1_555
O26_2 Zn15 1_555 1_555
O34_2 C66_2 1_555 1_555
O42_2 Zn15 1_555 1_555
C52_2 O23_2 1_555 1_555
C66_2 O36 1_555 1_555
C67_2 C65_2 1_555 1_555
H41_2 C67_2 1_555 1_555
C91_2 H58_2 1_555 1_555
H59_2 C91_2 1_555 1_555
H60_2 C91_2 1_555 1_555
C92_2 O42_2 1_555 1_555
C2_2 C3_2 1_555 1_555
C6_2 C7_2 1_555 1_555
C25_2 C26_2 1_555 1_555
C27_2 C28_2 1_555 1_555
C44_2 C45_2 1_555 1_555
C65_2 C66_2 1_555 1_555
C91_2 C92_2 1_555 1_555
O44_2 H69_3 1_555 1_555
O19_2 H73_3 1_555 1_555
O19 H73_4 1_555 1_555
O26_2 C10_2 1_555 1_555
O6_2 C10_2 1_555 1_555
O7_2 C12_2 1_555 1_555
O8_2 C12_2 1_555 1_555
C8_2 N11_2 1_555 1_555
H4_2 C8_2 1_555 1_555
C9_2 C8_2 1_555 1_555
C10_2 C9_2 1_555 1_555
C11_2 C9_2 1_555 1_555
C12_2 C11_2 1_555 1_555
C13_2 C11_2 1_555 1_555
H5_2 C13_2 1_555 1_555
C14_2 N11_2 1_555 1_555
H6_2 C14_2 1_555 1_555
Zn11 O8_2 1_555 1_555
O43_2 Zn11 1_555 1_555
C13_2 C14_2 1_555 1_555
O44 H69_4 1_555 1_555

#END
