
###############################################################################
#
# This file contains modified crystal structure data generated from the
# MOF subset of the Cambridge Structural Database (CSD) v543 
# hosted by the Cambridge Crystallographic Data Centre (CCDC).
#
# This work is licensed under the Creative Commons
# Attribution-NonCommercial-ShareAlike 4.0 International License.
# To view a copy of this license, visit
# http://creativecommons.org/licenses/by-nc-sa/4.0/
# or send a letter to
# Creative Commons, PO Box 1866, Mountain View, CA 94042, USA.
#
# CIF created using the CSD Python API on 29 September 2022
# The structure has been converted into the P1 space group
# The structure has a 3D framework
# The original CSD entry HOWRUI is in the monoclinic crystal system
# The original CSD entry HOWRUI is in a Sohncke space group
# The framework has been calculated to contain at least 10.0% void space
# The void calculation uses a probe of radius 1.32A, grid spacing 0.4
# H atom positions have been added when not included in the experimental data
#
###############################################################################

data_HOWRUI
_chemical_formula_moiety         '(C128 H128 Cu12 N8 O72)n'
_symmetry_cell_setting           triclinic
_symmetry_space_group_name_H-M   'P 1'
_symmetry_Int_Tables_number      1
_space_group_name_Hall           'P 1'
loop_
_symmetry_equiv_pos_site_id
_symmetry_equiv_pos_as_xyz
1 x,y,z
_cell_length_a                   21.7630(6)
_cell_length_b                   11.0749(4)
_cell_length_c                   19.5074(5)
_cell_angle_alpha                90
_cell_angle_beta                 92.760(3)
_cell_angle_gamma                90
_cell_volume                     4696.28
loop_
_atom_site_label
_atom_site_type_symbol
_atom_site_fract_x
_atom_site_fract_y
_atom_site_fract_z
Cu3 Cu 0.12186(3) 0.06512(5) 0.85030(3)
O2 O 0.07968(15) 0.4116(4) 0.47841(16)
O3 O 0.04032(15) 0.3976(4) 0.58190(17)
C1 C 0.1713(2) 0.0838(5) 0.7122(2)
O5 O 0.45145(17) 0.1428(4) 0.42163(19)
O9 O 0.42631(16) 0.1572(4) 0.53136(19)
O10 O 0.13910(17) 0.1310(4) 0.75717(17)
C3 C 0.4203(2) 0.1829(5) 0.4684(3)
C5 C 0.0794(2) 0.3732(5) 0.5387(3)
C10 C 0.2303(2) 0.2036(6) 0.5445(3)
N2 N 0.3206(2) 0.2817(4) 0.4925(2)
C12 C 0.1281(2) 0.2298(5) 0.6252(2)
H2 H 0.0947 0.2404 0.6525
C14 C 0.1755(2) 0.1524(5) 0.6457(2)
C15 C 0.1831(2) 0.2806(5) 0.5235(3)
H3 H 0.1858 0.3247 0.4832
C18 C 0.2835(2) 0.1869(6) 0.5001(3)
C19 C 0.2256(2) 0.1372(5) 0.6053(3)
H6 H 0.2564 0.0826 0.6185
C20 C 0.1312(2) 0.2923(5) 0.5628(3)
O16 O 0.29186(19) 0.0918(5) 0.4696(3)
O17 O 0.0716(2) 0.2228(4) 0.8750(3)
C22 C 0.3718(3) 0.2759(6) 0.4460(3)
H8 H 0.3561 0.2586 0.3991
C24 C 0.3221(3) 0.3912(7) 0.5346(4)
H11 H 0.3201 0.3717 0.5829
H12 H 0.2884 0.4447 0.5213
C25 C 0.3990(3) 0.4034(7) 0.4499(4)
H13 H 0.4431 0.4014 0.4452
H14 H 0.3805 0.4545 0.4141
C28 C 0.3836(3) 0.4479(7) 0.5197(4)
H19 H 0.3806 0.5353 0.5200
H20 H 0.4150 0.4235 0.5538
H22 H 0.0194 0.4620 0.7151
Cu4 Cu 0.01913(2) 0.52672(6) 0.43765(3)
Cu5 Cu 0.48087(2) 0.02672(6) 0.56235(3)
Cu6 Cu 0.51913(2) 0.02672(6) 0.43765(3)
O19 O 0.26241(15) 0.0100(4) 0.84284(18)
O21 O 0.04855(17) 0.6428(4) 0.57837(19)
O24 O 0.19780(16) 0.1370(4) 0.89060(19)
H29 H 0.0538091 0.25995 0.832172
H30 H 0.0379491 0.200625 0.905233
Cu9 Cu 0.87814(3) 0.06512(5) 0.14970(3)
Cu1 Cu 0.98087(2) 0.52672(6) 0.56235(3)
O13 O 0.94486(17) 0.5216(5) 0.66618(17)
H15 H 0.9494 0.0170 0.7305
C29 C 0.9754(4) 0.4623(10) 0.7214(4)
H21 H 0.9682 0.5048 0.7638
C30 C 0.8813(4) 0.5091(13) 0.6720(4)
H23 H 0.8700 0.5586 0.7104
H24 H 0.8615 0.5443 0.6311
O18 O 0.8864(5) 0.3329(11) 0.7315(5)
C31 C 0.8562(5) 0.4001(19) 0.6804(7)
H25 H 0.8568 0.3560 0.6375
H26 H 0.8135 0.4101 0.6916
C32 C 0.9520(8) 0.3321(12) 0.7262(6)
H27 H 0.9627 0.2873 0.6857
H28 H 0.9714 0.2927 0.7661
O20 O 0.92032(15) 0.4116(4) 0.52159(16)
O23 O 0.92631(16) 0.6572(4) 0.53136(19)
O1 O 0.76241(15) 0.5100(4) 0.84284(18)
O11 O 0.69780(16) 0.6370(4) 0.89060(19)
C4 C 0.8581(2) 0.6760(6) 0.8720(2)
H1 H 0.8610 0.6319 0.8317
C6 C 0.8511(2) 0.8013(5) 0.9944(2)
C7 C 0.9076(2) 0.7453(5) 0.8963(3)
C8 C 0.7502(2) 0.6007(5) 0.8783(2)
C9 C 0.9649(2) 0.7498(6) 0.8565(3)
N1 N 0.95972(19) 0.7965(5) 0.7928(2)
C11 C 0.8032(2) 0.6719(5) 0.9079(2)
C16 C 0.8004(2) 0.7353(5) 0.9688(2)
H4 H 0.7645 0.7340 0.9928
C21 C 0.9045(2) 0.8070(5) 0.9576(2)
H7 H 0.9380 0.8522 0.9744
C23 C 0.9863(3) 0.8656(7) 0.6850(3)
H10 H 0.9713 0.8088 0.6502
C26 C 0.9340(3) 0.9422(8) 0.7104(3)
H16 H 0.9043 0.9610 0.6732
C27 C 0.9057(3) 0.8640(7) 0.7633(3)
H17 H 0.8868 0.9123 0.7980
H18 H 0.8752 0.8097 0.7425
Cu8 Cu 0.69792(2) 0.39889(5) 0.80516(3)
Cu10 Cu 0.62186(3) 0.56512(5) 0.85030(3)
O13_2 O 0.05514(17) 0.5216(5) 0.33382(17)
H15_2 H 0.0506 0.0170 0.2695
C29_2 C 0.0246(4) 0.4623(10) 0.2786(4)
H21_2 H 0.0318 0.5048 0.2362
C30_2 C 0.1187(4) 0.5091(13) 0.3280(4)
H23_2 H 0.1300 0.5586 0.2896
H24_2 H 0.1385 0.5443 0.3689
O18_2 O 0.1136(5) 0.3329(11) 0.2685(5)
C31_2 C 0.1438(5) 0.4001(19) 0.3196(7)
H25_2 H 0.1432 0.3560 0.3625
H26_2 H 0.1865 0.4101 0.3084
C32_2 C 0.0480(8) 0.3321(12) 0.2738(6)
H27_2 H 0.0373 0.2873 0.3143
H28_2 H 0.0286 0.2927 0.2339
O23_2 O 0.07369(16) 0.6572(4) 0.46864(19)
O1_2 O 0.23759(15) 0.5100(4) 0.15716(18)
O11_2 O 0.30220(16) 0.6370(4) 0.10940(19)
C4_2 C 0.1419(2) 0.6760(6) 0.1280(2)
H1_2 H 0.1390 0.6319 0.1683
C6_2 C 0.1489(2) 0.8013(5) 0.0056(2)
C7_2 C 0.0924(2) 0.7453(5) 0.1037(3)
C8_2 C 0.2498(2) 0.6007(5) 0.1217(2)
C9_2 C 0.0351(2) 0.7498(6) 0.1435(3)
N1_2 N 0.04028(19) 0.7965(5) 0.2072(2)
C11_2 C 0.1968(2) 0.6719(5) 0.0921(2)
C16_2 C 0.1996(2) 0.7353(5) 0.0312(2)
H4_2 H 0.2355 0.7340 0.0072
C21_2 C 0.0955(2) 0.8070(5) 0.0424(2)
H7_2 H 0.0620 0.8522 0.0256
C23_2 C 0.0137(3) 0.8656(7) 0.3150(3)
H10_2 H 0.0287 0.8088 0.3498
C26_2 C 0.0660(3) 0.9422(8) 0.2896(3)
H16_2 H 0.0957 0.9610 0.3268
C27_2 C 0.0943(3) 0.8640(7) 0.2367(3)
H17_2 H 0.1132 0.9123 0.2020
H18_2 H 0.1248 0.8097 0.2575
Cu8_2 Cu 0.30208(2) 0.39889(5) 0.19484(3)
Cu10_2 Cu 0.37814(3) 0.56512(5) 0.14970(3)
O3_2 O 0.95968(15) 0.3976(4) 0.41810(17)
C1_2 C 0.8287(2) 0.0838(5) 0.2878(2)
O5_2 O 0.54855(17) 0.1428(4) 0.57837(19)
O9_2 O 0.57369(16) 0.1572(4) 0.46864(19)
O10_2 O 0.86090(17) 0.1310(4) 0.24283(17)
C3_2 C 0.5797(2) 0.1829(5) 0.5316(3)
C5_2 C 0.9206(2) 0.3732(5) 0.4613(3)
C10_2 C 0.7697(2) 0.2036(6) 0.4555(3)
N2_2 N 0.6794(2) 0.2817(4) 0.5075(2)
C12_2 C 0.8719(2) 0.2298(5) 0.3748(2)
H2_2 H 0.9053 0.2404 0.3475
C14_2 C 0.8245(2) 0.1524(5) 0.3543(2)
C15_2 C 0.8169(2) 0.2806(5) 0.4765(3)
H3_2 H 0.8142 0.3247 0.5168
C18_2 C 0.7165(2) 0.1869(6) 0.4999(3)
C19_2 C 0.7744(2) 0.1372(5) 0.3947(3)
H6_2 H 0.7436 0.0826 0.3815
C20_2 C 0.8688(2) 0.2923(5) 0.4372(3)
O16_2 O 0.70814(19) 0.0918(5) 0.5304(3)
O17_2 O 0.9284(2) 0.2228(4) 0.1250(3)
C22_2 C 0.6282(3) 0.2759(6) 0.5540(3)
H8_2 H 0.6439 0.2586 0.6009
C24_2 C 0.6779(3) 0.3912(7) 0.4654(4)
H11_2 H 0.6799 0.3717 0.4171
H12_2 H 0.7116 0.4447 0.4787
C25_2 C 0.6010(3) 0.4034(7) 0.5501(4)
H13_2 H 0.5569 0.4014 0.5548
H14_2 H 0.6195 0.4545 0.5859
C28_2 C 0.6164(3) 0.4479(7) 0.4803(4)
H19_2 H 0.6194 0.5353 0.4800
H20_2 H 0.5850 0.4235 0.4462
H22_2 H 0.9806 0.4620 0.2849
O19_2 O 0.73759(15) 0.0100(4) 0.15716(18)
O21_2 O 0.95145(17) 0.6428(4) 0.42163(19)
O24_2 O 0.80220(16) 0.1370(4) 0.10940(19)
H29_2 H 0.946191 0.25995 0.167828
H30_2 H 0.962051 0.200625 0.0947674
O13_3 O 0.44486(17) 0.0216(5) 0.66618(17)
H19_3 H 0.8806 0.0353 0.5200
H21_3 H 0.4682 0.0048 0.7638
C30_3 C 0.3813(4) 0.0091(13) 0.6720(4)
H23_3 H 0.3700 0.0586 0.7104
H24_3 H 0.3615 0.0443 0.6311
O8 O 0.38160(16) 0.4614(3) 0.06787(16)
C2 C 0.3471(2) 0.3700(5) 0.0609(2)
O12 O 0.31102(16) 0.3319(4) 0.10300(17)
O2_2 O 0.57968(15) 0.9116(4) 0.47841(16)
O3_3 O 0.54032(15) 0.8976(4) 0.58190(17)
O4 O 0.61908(15) 0.3256(4) 0.77267(18)
C1_3 C 0.6713(2) 0.5838(5) 0.7122(2)
O6 O 0.70085(16) 0.4863(3) 0.71815(17)
O7 O 0.55479(16) 0.4687(4) 0.80935(19)
O10_3 O 0.63910(17) 0.6310(4) 0.75717(17)
C3_3 C 0.9203(2) 0.6829(5) 0.4684(3)
C4_3 C 0.3581(2) 0.1760(6) 0.8720(2)
H1_3 H 0.3610 0.1319 0.8317
C5_3 C 0.5794(2) 0.8732(5) 0.5387(3)
C6_3 C 0.3511(2) 0.3013(5) 0.9944(2)
C7_3 C 0.4076(2) 0.2453(5) 0.8963(3)
C8_3 C 0.2502(2) 0.1007(5) 0.8783(2)
C9_3 C 0.4649(2) 0.2498(6) 0.8565(3)
C10_3 C 0.7303(2) 0.7036(6) 0.5445(3)
N1_3 N 0.45972(19) 0.2965(5) 0.7928(2)
N2_3 N 0.8206(2) 0.7817(4) 0.4925(2)
C11_3 C 0.3032(2) 0.1719(5) 0.9079(2)
C12_3 C 0.6281(2) 0.7298(5) 0.6252(2)
H2_3 H 0.5947 0.7404 0.6525
C13 C 0.5670(2) 0.3703(5) 0.7812(2)
C14_3 C 0.6755(2) 0.6524(5) 0.6457(2)
C15_3 C 0.6831(2) 0.7806(5) 0.5235(3)
H3_3 H 0.6858 0.8247 0.4832
C16_3 C 0.3004(2) 0.2353(5) 0.9688(2)
H4_3 H 0.2645 0.2340 0.9928
C17 C 0.5118(2) 0.2993(6) 0.7491(3)
H5 H 0.5242 0.2171 0.7374
C18_3 C 0.7835(2) 0.6869(6) 0.5001(3)
O14 O 0.76126(19) 0.2537(4) 0.7799(2)
C19_3 C 0.7256(2) 0.6372(5) 0.6053(3)
H6_3 H 0.7564 0.5826 0.6185
C20_3 C 0.6312(2) 0.7923(5) 0.5628(3)
C21_3 C 0.4045(2) 0.3070(5) 0.9576(2)
H7_3 H 0.4380 0.3522 0.9744
O15 O 0.51393(18) 0.2132(5) 0.8808(2)
O16_3 O 0.79186(19) 0.5918(5) 0.4696(3)
O17_3 O 0.5716(2) 0.7228(4) 0.8750(3)
C22_3 C 0.8718(3) 0.7759(6) 0.4460(3)
H8_3 H 0.8561 0.7586 0.3991
C23_3 C 0.4863(3) 0.3656(7) 0.6850(3)
H9 H 0.5177 0.4160 0.6659
H10_3 H 0.4713 0.3088 0.6502
C24_3 C 0.8221(3) 0.8912(7) 0.5346(4)
H11_3 H 0.8201 0.8717 0.5829
H12_3 H 0.7884 0.9447 0.5213
C25_3 C 0.8990(3) 0.9034(7) 0.4499(4)
H13_3 H 0.9431 0.9014 0.4452
H14_3 H 0.8805 0.9545 0.4141
C26_3 C 0.4340(3) 0.4422(8) 0.7104(3)
H15_3 H 0.4494 0.5170 0.7305
H16_3 H 0.4043 0.4610 0.6732
C27_3 C 0.4057(3) 0.3640(7) 0.7633(3)
H17_3 H 0.3868 0.4123 0.7980
H18_3 H 0.3752 0.3097 0.7425
C28_3 C 0.8836(3) 0.9479(7) 0.5197(4)
H20_3 H 0.9150 0.9235 0.5538
C29_3 C 0.4754(4) 0.9623(10) 0.7214(4)
H22_3 H 0.5194 0.9620 0.7151
O18_3 O 0.3864(5) 0.8329(11) 0.7315(5)
C31_3 C 0.3562(5) 0.9001(19) 0.6804(7)
H25_3 H 0.3568 0.8560 0.6375
H26_3 H 0.3135 0.9101 0.6916
C32_3 C 0.4520(8) 0.8321(12) 0.7262(6)
H27_3 H 0.4627 0.7873 0.6857
H28_3 H 0.4714 0.7927 0.7661
O20_2 O 0.42032(15) 0.9116(4) 0.52159(16)
O22 O 0.61840(16) 0.4614(3) 0.93213(16)
O25 O 0.68898(16) 0.3319(4) 0.89700(17)
H29_3 H 0.553809 0.75995 0.832172
H30_3 H 0.537949 0.700625 0.905233
H31 H 0.742188 0.17442 0.789536
H32 H 0.770142 0.258469 0.730518
O13_4 O 0.55514(17) 0.0216(5) 0.33382(17)
H19_4 H 0.1194 0.0353 0.4800
H21_4 H 0.5318 0.0048 0.2362
C30_4 C 0.6187(4) 0.0091(13) 0.3280(4)
H23_4 H 0.6300 0.0586 0.2896
H24_4 H 0.6385 0.0443 0.3689
O3_4 O 0.45968(15) 0.8976(4) 0.41810(17)
O4_2 O 0.38092(15) 0.3256(4) 0.22733(18)
C1_4 C 0.3287(2) 0.5838(5) 0.2878(2)
O6_2 O 0.29915(16) 0.4863(3) 0.28185(17)
O7_2 O 0.44521(16) 0.4687(4) 0.19065(19)
O10_4 O 0.36090(17) 0.6310(4) 0.24283(17)
C3_4 C 0.0797(2) 0.6829(5) 0.5316(3)
C4_4 C 0.6419(2) 0.1760(6) 0.1280(2)
H1_4 H 0.6390 0.1319 0.1683
C5_4 C 0.4206(2) 0.8732(5) 0.4613(3)
C6_4 C 0.6489(2) 0.3013(5) 0.0056(2)
C7_4 C 0.5924(2) 0.2453(5) 0.1037(3)
C8_4 C 0.7498(2) 0.1007(5) 0.1217(2)
C9_4 C 0.5351(2) 0.2498(6) 0.1435(3)
C10_4 C 0.2697(2) 0.7036(6) 0.4555(3)
N1_4 N 0.54028(19) 0.2965(5) 0.2072(2)
N2_4 N 0.1794(2) 0.7817(4) 0.5075(2)
C11_4 C 0.6968(2) 0.1719(5) 0.0921(2)
C12_4 C 0.3719(2) 0.7298(5) 0.3748(2)
H2_4 H 0.4053 0.7404 0.3475
C13_2 C 0.4330(2) 0.3703(5) 0.2188(2)
C14_4 C 0.3245(2) 0.6524(5) 0.3543(2)
C15_4 C 0.3169(2) 0.7806(5) 0.4765(3)
H3_4 H 0.3142 0.8247 0.5168
C16_4 C 0.6996(2) 0.2353(5) 0.0312(2)
H4_4 H 0.7355 0.2340 0.0072
C17_2 C 0.4882(2) 0.2993(6) 0.2509(3)
H5_2 H 0.4758 0.2171 0.2626
C18_4 C 0.2165(2) 0.6869(6) 0.4999(3)
O14_2 O 0.23874(19) 0.2537(4) 0.2201(2)
C19_4 C 0.2744(2) 0.6372(5) 0.3947(3)
H6_4 H 0.2436 0.5826 0.3815
C20_4 C 0.3688(2) 0.7923(5) 0.4372(3)
C21_4 C 0.5955(2) 0.3070(5) 0.0424(2)
H7_4 H 0.5620 0.3522 0.0256
O15_2 O 0.48607(18) 0.2132(5) 0.1192(2)
O16_4 O 0.20814(19) 0.5918(5) 0.5304(3)
O17_4 O 0.4284(2) 0.7228(4) 0.1250(3)
C22_4 C 0.1282(3) 0.7759(6) 0.5540(3)
H8_4 H 0.1439 0.7586 0.6009
C23_4 C 0.5137(3) 0.3656(7) 0.3150(3)
H9_2 H 0.4823 0.4160 0.3341
H10_4 H 0.5287 0.3088 0.3498
C24_4 C 0.1779(3) 0.8912(7) 0.4654(4)
H11_4 H 0.1799 0.8717 0.4171
H12_4 H 0.2116 0.9447 0.4787
C25_4 C 0.1010(3) 0.9034(7) 0.5501(4)
H13_4 H 0.0569 0.9014 0.5548
H14_4 H 0.1195 0.9545 0.5859
C26_4 C 0.5660(3) 0.4422(8) 0.2896(3)
H15_4 H 0.5506 0.5170 0.2695
H16_4 H 0.5957 0.4610 0.3268
C27_4 C 0.5943(3) 0.3640(7) 0.2367(3)
H17_4 H 0.6132 0.4123 0.2020
H18_4 H 0.6248 0.3097 0.2575
C28_4 C 0.1164(3) 0.9479(7) 0.4803(4)
H20_4 H 0.0850 0.9235 0.4462
C29_4 C 0.5246(4) 0.9623(10) 0.2786(4)
H22_4 H 0.4806 0.9620 0.2849
O18_4 O 0.6136(5) 0.8329(11) 0.2685(5)
C31_4 C 0.6438(5) 0.9001(19) 0.3196(7)
H25_4 H 0.6432 0.8560 0.3625
H26_4 H 0.6865 0.9101 0.3084
C32_4 C 0.5480(8) 0.8321(12) 0.2738(6)
H27_4 H 0.5373 0.7873 0.3143
H28_4 H 0.5286 0.7927 0.2339
H29_4 H 0.446191 0.75995 0.167828
H30_4 H 0.462051 0.700625 0.0947674
H31_2 H 0.257812 0.17442 0.210464
H32_2 H 0.229858 0.258469 0.269482
C2_2 C 0.6529(2) 0.3700(5) 0.9391(2)
Cu2 Cu 0.19792(2) 0.89889(5) 0.80516(3)
O4_3 O 0.11908(15) 0.8256(4) 0.77267(18)
O6_3 O 0.20085(16) 0.9863(3) 0.71815(17)
O7_3 O 0.05479(16) 0.9687(4) 0.80935(19)
C13_3 C 0.0670(2) 0.8703(5) 0.7812(2)
C17_3 C 0.0118(2) 0.7993(6) 0.7491(3)
H5_3 H 0.0242 0.7171 0.7374
O14_3 O 0.26126(19) 0.7537(4) 0.7799(2)
O15_3 O 0.01393(18) 0.7132(5) 0.8808(2)
H9_3 H 0.0177 0.9160 0.6659
O22_2 O 0.11840(16) 0.9614(3) 0.93213(16)
O25_2 O 0.18898(16) 0.8319(4) 0.89700(17)
H31_3 H 0.242188 0.67442 0.789536
H32_3 H 0.270142 0.758469 0.730518
C2_3 C 0.1529(2) 0.8700(5) 0.9391(2)
O8_2 O 0.88160(16) 0.9614(3) 0.06787(16)
C2_4 C 0.8471(2) 0.8700(5) 0.0609(2)
O12_2 O 0.81102(16) 0.8319(4) 0.10300(17)
Cu7 Cu 0.80208(2) 0.89889(5) 0.19484(3)
O4_4 O 0.88092(15) 0.8256(4) 0.22733(18)
O6_4 O 0.79915(16) 0.9863(3) 0.28185(17)
O7_4 O 0.94521(16) 0.9687(4) 0.19065(19)
C13_4 C 0.9330(2) 0.8703(5) 0.2188(2)
C17_4 C 0.9882(2) 0.7993(6) 0.2509(3)
H5_4 H 0.9758 0.7171 0.2626
O14_4 O 0.73874(19) 0.7537(4) 0.2201(2)
O15_4 O 0.98607(18) 0.7132(5) 0.1192(2)
H9_4 H 0.9823 0.9160 0.3341
H31_4 H 0.757812 0.67442 0.210464
H32_4 H 0.729858 0.758469 0.269482
loop_
_geom_bond_atom_site_label_1
_geom_bond_atom_site_label_2
_geom_bond_site_symmetry_1
_geom_bond_site_symmetry_2
O2 C5 1_555 1_555
O3 C5 1_555 1_555
O5 C3 1_555 1_555
O9 C3 1_555 1_555
O10 Cu3 1_555 1_555
C3 C22 1_555 1_555
C5 C20 1_555 1_555
C10 C15 1_555 1_555
N2 C18 1_555 1_555
C12 H2 1_555 1_555
C14 C1 1_555 1_555
C15 H3 1_555 1_555
C18 C10 1_555 1_555
C19 C10 1_555 1_555
H6 C19 1_555 1_555
C20 C12 1_555 1_555
O16 C18 1_555 1_555
O17 Cu3 1_555 1_555
C22 N2 1_555 1_555
H8 C22 1_555 1_555
C24 N2 1_555 1_555
H11 C24 1_555 1_555
H12 C24 1_555 1_555
C25 C22 1_555 1_555
H13 C25 1_555 1_555
H14 C25 1_555 1_555
C28 C24 1_555 1_555
H19 C28 1_555 1_555
H20 C28 1_555 1_555
Cu5 O9 1_555 1_555
Cu6 O5 1_555 1_555
O24 Cu3 1_555 1_555
O2 Cu4 1_555 1_555
C1 O10 1_555 1_555
C12 C14 1_555 1_555
C14 C19 1_555 1_555
C15 C20 1_555 1_555
C25 C28 1_555 1_555
Cu5 Cu6 1_555 1_555
O17 H29 1_555 1_555
O17 H30 1_555 1_555
O13 Cu1 1_555 1_555
C29 O13 1_555 1_555
H21 C29 1_555 1_555
C30 O13 1_555 1_555
H23 C30 1_555 1_555
H24 C30 1_555 1_555
O18 C31 1_555 1_555
C31 C30 1_555 1_555
H25 C31 1_555 1_555
H26 C31 1_555 1_555
C32 C29 1_555 1_555
H27 C32 1_555 1_555
H28 C32 1_555 1_555
O20 Cu1 1_555 1_555
O23 Cu1 1_555 1_555
O18 C32 1_555 1_555
O1 C8 1_555 1_555
O11 C8 1_555 1_555
C4 H1 1_555 1_555
C7 C4 1_555 1_555
C8 C11 1_555 1_555
C9 C7 1_555 1_555
N1 C9 1_555 1_555
C11 C4 1_555 1_555
C16 C6 1_555 1_555
H4 C16 1_555 1_555
C21 C6 1_555 1_555
H7 C21 1_555 1_555
H10 C23 1_555 1_555
C26 C23 1_555 1_555
H16 C26 1_555 1_555
C27 N1 1_555 1_555
H17 C27 1_555 1_555
H18 C27 1_555 1_555
Cu8 O1 1_555 1_555
Cu10 O11 1_555 1_555
C7 C21 1_555 1_555
C11 C16 1_555 1_555
C26 C27 1_555 1_555
Cu8 Cu10 1_555 1_555
O13_2 Cu4 1_555 1_555
C29_2 O13_2 1_555 1_555
H21_2 C29_2 1_555 1_555
C30_2 O13_2 1_555 1_555
H23_2 C30_2 1_555 1_555
H24_2 C30_2 1_555 1_555
O18_2 C31_2 1_555 1_555
C31_2 C30_2 1_555 1_555
H25_2 C31_2 1_555 1_555
H26_2 C31_2 1_555 1_555
C32_2 C29_2 1_555 1_555
H27_2 C32_2 1_555 1_555
H28_2 C32_2 1_555 1_555
O23_2 Cu4 1_555 1_555
O18_2 C32_2 1_555 1_555
O1_2 C8_2 1_555 1_555
O11_2 C8_2 1_555 1_555
C4_2 H1_2 1_555 1_555
C7_2 C4_2 1_555 1_555
C8_2 C11_2 1_555 1_555
C9_2 C7_2 1_555 1_555
N1_2 C9_2 1_555 1_555
C11_2 C4_2 1_555 1_555
C16_2 C6_2 1_555 1_555
H4_2 C16_2 1_555 1_555
C21_2 C6_2 1_555 1_555
H7_2 C21_2 1_555 1_555
H10_2 C23_2 1_555 1_555
C26_2 C23_2 1_555 1_555
H16_2 C26_2 1_555 1_555
C27_2 N1_2 1_555 1_555
H17_2 C27_2 1_555 1_555
H18_2 C27_2 1_555 1_555
Cu8_2 O1_2 1_555 1_555
Cu10_2 O11_2 1_555 1_555
C7_2 C21_2 1_555 1_555
C11_2 C16_2 1_555 1_555
C26_2 C27_2 1_555 1_555
Cu8_2 Cu10_2 1_555 1_555
O20 C5_2 1_555 1_555
O3_2 C5_2 1_555 1_555
O5_2 C3_2 1_555 1_555
O9_2 C3_2 1_555 1_555
O10_2 Cu9 1_555 1_555
C3_2 C22_2 1_555 1_555
C5_2 C20_2 1_555 1_555
C10_2 C15_2 1_555 1_555
N2_2 C18_2 1_555 1_555
C12_2 H2_2 1_555 1_555
C14_2 C1_2 1_555 1_555
C15_2 H3_2 1_555 1_555
C18_2 C10_2 1_555 1_555
C19_2 C10_2 1_555 1_555
H6_2 C19_2 1_555 1_555
C20_2 C12_2 1_555 1_555
O16_2 C18_2 1_555 1_555
O17_2 Cu9 1_555 1_555
C22_2 N2_2 1_555 1_555
H8_2 C22_2 1_555 1_555
C24_2 N2_2 1_555 1_555
H11_2 C24_2 1_555 1_555
H12_2 C24_2 1_555 1_555
C25_2 C22_2 1_555 1_555
H13_2 C25_2 1_555 1_555
H14_2 C25_2 1_555 1_555
C28_2 C24_2 1_555 1_555
H19_2 C28_2 1_555 1_555
H20_2 C28_2 1_555 1_555
Cu6 O9_2 1_555 1_555
Cu5 O5_2 1_555 1_555
O24_2 Cu9 1_555 1_555
C1_2 O10_2 1_555 1_555
C12_2 C14_2 1_555 1_555
C14_2 C19_2 1_555 1_555
C15_2 C20_2 1_555 1_555
C25_2 C28_2 1_555 1_555
O17_2 H29_2 1_555 1_555
O17_2 H30_2 1_555 1_555
O13_3 Cu5 1_555 1_555
C30_3 O13_3 1_555 1_555
H23_3 C30_3 1_555 1_555
H24_3 C30_3 1_555 1_555
O8 C2 1_555 1_555
C2 O12 1_555 1_555
O12 Cu8_2 1_555 1_555
Cu10_2 O8 1_555 1_555
Cu10 O7 1_555 1_555
O19 C8_3 1_555 1_555
O2_2 C5_3 1_555 1_555
O3_3 C5_3 1_555 1_555
O4 Cu8 1_555 1_555
C1_3 O6 1_555 1_555
O21_2 C3_3 1_555 1_555
O6 Cu8 1_555 1_555
O7 C13 1_555 1_555
O23 C3_3 1_555 1_555
O10_3 Cu10 1_555 1_555
O24 C8_3 1_555 1_555
C3_3 C22_3 1_555 1_555
C4_3 H1_3 1_555 1_555
C5_3 C20_3 1_555 1_555
C7_3 C4_3 1_555 1_555
C8_3 C11_3 1_555 1_555
C9_3 C7_3 1_555 1_555
C10_3 C15_3 1_555 1_555
N1_3 C9_3 1_555 1_555
N2_3 C18_3 1_555 1_555
C11_3 C4_3 1_555 1_555
C12_3 H2_3 1_555 1_555
C13 O4 1_555 1_555
C14_3 C1_3 1_555 1_555
C15_3 H3_3 1_555 1_555
C16_3 C6_3 1_555 1_555
H4_3 C16_3 1_555 1_555
C17 N1_3 1_555 1_555
H5 C17 1_555 1_555
C18_3 C10_3 1_555 1_555
O14 Cu8 1_555 1_555
C19_3 C10_3 1_555 1_555
H6_3 C19_3 1_555 1_555
C20_3 C12_3 1_555 1_555
C21_3 C6_3 1_555 1_555
H7_3 C21_3 1_555 1_555
O15 C9_3 1_555 1_555
O16_3 C18_3 1_555 1_555
O17_3 Cu10 1_555 1_555
C22_3 N2_3 1_555 1_555
H8_3 C22_3 1_555 1_555
C23_3 C17 1_555 1_555
H9 C23_3 1_555 1_555
H10_3 C23_3 1_555 1_555
C24_3 N2_3 1_555 1_555
H11_3 C24_3 1_555 1_555
H12_3 C24_3 1_555 1_555
C25_3 C22_3 1_555 1_555
H13_3 C25_3 1_555 1_555
H14_3 C25_3 1_555 1_555
C26_3 C23_3 1_555 1_555
H15_3 C26_3 1_555 1_555
H16_3 C26_3 1_555 1_555
C27_3 N1_3 1_555 1_555
H17_3 C27_3 1_555 1_555
H18_3 C27_3 1_555 1_555
C28_3 C24_3 1_555 1_555
H20_3 C28_3 1_555 1_555
H22_3 C29_3 1_555 1_555
O18_3 C31_3 1_555 1_555
H25_3 C31_3 1_555 1_555
H26_3 C31_3 1_555 1_555
C32_3 C29_3 1_555 1_555
H27_3 C32_3 1_555 1_555
H28_3 C32_3 1_555 1_555
O22 Cu10 1_555 1_555
O25 Cu8 1_555 1_555
C1_3 O10_3 1_555 1_555
C7_3 C21_3 1_555 1_555
C11_3 C16_3 1_555 1_555
C12_3 C14_3 1_555 1_555
C13 C17 1_555 1_555
C14_3 C19_3 1_555 1_555
C15_3 C20_3 1_555 1_555
C25_3 C28_3 1_555 1_555
C26_3 C27_3 1_555 1_555
O18_3 C32_3 1_555 1_555
O17_3 H29_3 1_555 1_555
O17_3 H30_3 1_555 1_555
O14 H31 1_555 1_555
O14 H32 1_555 1_555
O13_4 Cu6 1_555 1_555
C30_4 O13_4 1_555 1_555
H23_4 C30_4 1_555 1_555
H24_4 C30_4 1_555 1_555
Cu10_2 O7_2 1_555 1_555
O19_2 C8_4 1_555 1_555
O20_2 C5_4 1_555 1_555
O3_4 C5_4 1_555 1_555
O4_2 Cu8_2 1_555 1_555
C1_4 O6_2 1_555 1_555
O21 C3_4 1_555 1_555
O6_2 Cu8_2 1_555 1_555
O7_2 C13_2 1_555 1_555
O23_2 C3_4 1_555 1_555
O10_4 Cu10_2 1_555 1_555
O24_2 C8_4 1_555 1_555
C3_4 C22_4 1_555 1_555
C4_4 H1_4 1_555 1_555
C5_4 C20_4 1_555 1_555
C7_4 C4_4 1_555 1_555
C8_4 C11_4 1_555 1_555
C9_4 C7_4 1_555 1_555
C10_4 C15_4 1_555 1_555
N1_4 C9_4 1_555 1_555
N2_4 C18_4 1_555 1_555
C11_4 C4_4 1_555 1_555
C12_4 H2_4 1_555 1_555
C13_2 O4_2 1_555 1_555
C14_4 C1_4 1_555 1_555
C15_4 H3_4 1_555 1_555
C16_4 C6_4 1_555 1_555
H4_4 C16_4 1_555 1_555
C17_2 N1_4 1_555 1_555
H5_2 C17_2 1_555 1_555
C18_4 C10_4 1_555 1_555
O14_2 Cu8_2 1_555 1_555
C19_4 C10_4 1_555 1_555
H6_4 C19_4 1_555 1_555
C20_4 C12_4 1_555 1_555
C21_4 C6_4 1_555 1_555
H7_4 C21_4 1_555 1_555
O15_2 C9_4 1_555 1_555
O16_4 C18_4 1_555 1_555
O17_4 Cu10_2 1_555 1_555
C22_4 N2_4 1_555 1_555
H8_4 C22_4 1_555 1_555
C23_4 C17_2 1_555 1_555
H9_2 C23_4 1_555 1_555
H10_4 C23_4 1_555 1_555
C24_4 N2_4 1_555 1_555
H11_4 C24_4 1_555 1_555
H12_4 C24_4 1_555 1_555
C25_4 C22_4 1_555 1_555
H13_4 C25_4 1_555 1_555
H14_4 C25_4 1_555 1_555
C26_4 C23_4 1_555 1_555
H15_4 C26_4 1_555 1_555
H16_4 C26_4 1_555 1_555
C27_4 N1_4 1_555 1_555
H17_4 C27_4 1_555 1_555
H18_4 C27_4 1_555 1_555
C28_4 C24_4 1_555 1_555
H20_4 C28_4 1_555 1_555
H22_4 C29_4 1_555 1_555
O18_4 C31_4 1_555 1_555
H25_4 C31_4 1_555 1_555
H26_4 C31_4 1_555 1_555
C32_4 C29_4 1_555 1_555
H27_4 C32_4 1_555 1_555
H28_4 C32_4 1_555 1_555
C1_4 O10_4 1_555 1_555
C7_4 C21_4 1_555 1_555
C11_4 C16_4 1_555 1_555
C12_4 C14_4 1_555 1_555
C13_2 C17_2 1_555 1_555
C14_4 C19_4 1_555 1_555
C15_4 C20_4 1_555 1_555
C25_4 C28_4 1_555 1_555
C26_4 C27_4 1_555 1_555
O18_4 C32_4 1_555 1_555
O17_4 H29_4 1_555 1_555
O17_4 H30_4 1_555 1_555
O14_2 H31_2 1_555 1_555
O14_2 H32_2 1_555 1_555
O22 C2_2 1_555 1_555
C2_2 O25 1_555 1_555
O4_3 Cu2 1_555 1_555
O6_3 Cu2 1_555 1_555
O7_3 C13_3 1_555 1_555
C13_3 O4_3 1_555 1_555
H5_3 C17_3 1_555 1_555
O14_3 Cu2 1_555 1_555
O25_2 Cu2 1_555 1_555
C13_3 C17_3 1_555 1_555
O14_3 H31_3 1_555 1_555
O14_3 H32_3 1_555 1_555
O22_2 C2_3 1_555 1_555
C2_3 O25_2 1_555 1_555
O8_2 C2_4 1_555 1_555
C2_4 O12_2 1_555 1_555
O12_2 Cu7 1_555 1_555
O4_4 Cu7 1_555 1_555
O6_4 Cu7 1_555 1_555
O7_4 C13_4 1_555 1_555
C13_4 O4_4 1_555 1_555
H5_4 C17_4 1_555 1_555
O14_4 Cu7 1_555 1_555
C13_4 C17_4 1_555 1_555
O14_4 H31_4 1_555 1_555
O14_4 H32_4 1_555 1_555

#END
