
###############################################################################
#
# This file contains modified crystal structure data generated from the
# MOF subset of the Cambridge Structural Database (CSD) v543 
# hosted by the Cambridge Crystallographic Data Centre (CCDC).
#
# This work is licensed under the Creative Commons
# Attribution-NonCommercial-ShareAlike 4.0 International License.
# To view a copy of this license, visit
# http://creativecommons.org/licenses/by-nc-sa/4.0/
# or send a letter to
# Creative Commons, PO Box 1866, Mountain View, CA 94042, USA.
#
# CIF created using the CSD Python API on 29 September 2022
# The structure has been converted into the P1 space group
# The structure has a 3D framework
# The original CSD entry HOWSAP is in the monoclinic crystal system
# The original CSD entry HOWSAP is in a Sohncke space group
# The framework has been calculated to contain at least 10.0% void space
# The void calculation uses a probe of radius 1.32A, grid spacing 0.4
# H atom positions have been added when not included in the experimental data
#
###############################################################################

data_HOWSAP
_chemical_formula_moiety         '(C128 H128 Cu12 N8 O70)n'
_symmetry_cell_setting           triclinic
_symmetry_space_group_name_H-M   'P 1'
_symmetry_Int_Tables_number      1
_space_group_name_Hall           'P 1'
loop_
_symmetry_equiv_pos_site_id
_symmetry_equiv_pos_as_xyz
1 x,y,z
_cell_length_a                   21.7800(3)
_cell_length_b                   10.85510(10)
_cell_length_c                   19.4405(3)
_cell_angle_alpha                90
_cell_angle_beta                 92.0880(10)
_cell_angle_gamma                90
_cell_volume                     4593.15
loop_
_atom_site_label
_atom_site_type_symbol
_atom_site_fract_x
_atom_site_fract_y
_atom_site_fract_z
Cu1 Cu 0.301761(18) 0.14524(4) 0.19603(2)
Cu2 Cu 0.019413(18) 0.00857(4) 0.43772(2)
O1 O 0.73650(10) 0.5342(2) 0.15941(12)
O3 O 0.37994(10) 0.2213(2) 0.22799(12)
O6 O 0.44412(10) 0.0720(2) 0.19231(12)
O9 O 0.29845(10) 0.0566(2) 0.28360(12)
O12 O 0.80152(10) 0.4045(2) 0.10890(12)
C2 C 0.64114(14) 0.3671(3) 0.13019(16)
H1 H 0.6385 0.4101 0.1714
C4 C 0.69509(13) 0.3719(3) 0.09314(16)
C5 C 0.53390(14) 0.2927(3) 0.14520(17)
O13 O 0.05615(11) 0.0136(3) 0.33430(12)
N1 N 0.53966(11) 0.2489(3) 0.20966(14)
C8 C 0.59119(13) 0.2973(3) 0.10487(17)
C9 C 0.74880(14) 0.4419(3) 0.12267(15)
O15 O 0.23740(11) 0.2922(2) 0.21855(14)
O16 O 0.48400(11) 0.3295(2) 0.12033(13)
C14 C 0.64751(13) 0.2410(3) 0.00560(15)
C15 C 0.43271(14) 0.1732(3) 0.22035(16)
C16 C 0.48674(14) 0.2438(3) 0.25377(16)
H4 H 0.4741 0.3270 0.2668
C18 C 0.69869(13) 0.3075(3) 0.03130(16)
H5 H 0.7348 0.3087 0.0072
C19 C 0.59438(13) 0.2365(3) 0.04282(17)
H6 H 0.5606 0.1921 0.0258
C22 C 0.51178(15) 0.1722(4) 0.31712(17)
H9 H 0.5273 0.2282 0.3526
H10 H 0.4800 0.1210 0.3360
C23 C 0.59321(14) 0.1799(4) 0.23882(19)
H11 H 0.6225 0.2346 0.2620
H12 H 0.6138 0.1345 0.2034
C26 C 0.0388(4) 0.2070(6) 0.2742(3)
H15 H 0.0165 0.2451 0.2357
H16 H 0.0275 0.2480 0.3162
C29 C 0.56376(16) 0.0931(4) 0.28963(18)
H21 H 0.5928 0.0692 0.3263
H22 H 0.5478 0.0197 0.2668
C30 C 0.0235(2) 0.0724(4) 0.2777(2)
H24 H 0.0340 0.0328 0.2350
C31 C 0.12054(19) 0.0318(6) 0.3292(2)
O18 O 0.1047(3) 0.2177(5) 0.2654(2)
C32 C 0.1366(3) 0.1637(9) 0.3226(3)
H27 H 0.1263 0.2069 0.3643
H28 H 0.1805 0.1717 0.3170
Cu5 Cu 0.801761(18) 0.64524(4) 0.19603(2)
Cu10 Cu 0.877515(19) 0.47540(4) 0.15022(2)
O19 O 0.23650(10) 0.0342(2) 0.15941(12)
O22 O 0.38381(10) 0.0804(2) 0.06898(12)
O23 O 0.08092(10) 0.1235(2) 0.47748(12)
O24 O 0.31090(10) 0.2122(2) 0.10366(12)
H29 H 0.197146 0.275068 0.194853
H30 H 0.232029 0.296579 0.268995
O5 O 0.61619(10) 0.0804(2) 0.93102(12)
O10 O 0.68910(10) 0.2122(2) 0.89634(12)
C3 C 0.65095(13) 0.1727(3) 0.93900(16)
Cu4 Cu 0.698239(18) 0.14524(4) 0.80397(2)
Cu3 Cu 0.377515(19) 0.97540(4) 0.15022(2)
O2 O 0.46077(10) 0.6413(2) 0.41848(12)
O4 O 0.04839(10) 0.8923(2) 0.58008(12)
O7 O 0.41908(10) 0.6235(2) 0.52252(12)
O8 O 0.07277(10) 0.8737(2) 0.46863(13)
C1 C 0.32707(13) 0.9557(3) 0.28820(15)
O11 O 0.35898(10) 0.9072(2) 0.24281(12)
C6 C 0.41965(14) 0.6631(3) 0.46162(16)
C7 C 0.07898(14) 0.8485(3) 0.53154(18)
O14 O 0.42614(11) 0.8156(2) 0.12114(14)
C10 C 0.37077(13) 0.8071(3) 0.37525(16)
H2 H 0.4044 0.7967 0.3477
C11 C 0.32294(14) 0.8858(3) 0.35451(17)
C12 C 0.27264(15) 0.9011(3) 0.39622(18)
H3 H 0.2419 0.9571 0.3837
C13 C 0.26827(15) 0.8324(3) 0.45671(18)
N2 N 0.17774(12) 0.7477(3) 0.50773(15)
C17 C 0.21383(14) 0.8458(4) 0.50184(18)
O17 O 0.20399(12) 0.9429(3) 0.53253(16)
C20 C 0.12607(15) 0.7509(3) 0.55368(18)
H7 H 0.1406 0.7646 0.6014
C21 C 0.31536(15) 0.7537(3) 0.47709(17)
H8 H 0.3123 0.7071 0.5169
C24 C 0.36787(14) 0.7443(3) 0.43749(17)
C25 C 0.17775(17) 0.6364(4) 0.4636(2)
H13 H 0.2096 0.5790 0.4788
H14 H 0.1837 0.6578 0.4158
C27 C 0.11373(17) 0.5823(4) 0.4730(2)
H17 H 0.0844 0.6155 0.4392
H18 H 0.1143 0.4933 0.4689
C28 C 0.09771(17) 0.6212(4) 0.5453(2)
H19 H 0.1153 0.5648 0.5793
H20 H 0.0535 0.6239 0.5499
H25 H 0.1347 0.9874 0.2894
H26 H 0.1416 0.9981 0.3698
Cu7 Cu 0.519413(18) 0.50857(4) 0.43772(2)
Cu8 Cu 0.480587(18) 0.50857(4) 0.56228(2)
O25 O 0.30152(10) 0.9045(2) 0.10890(12)
H31 H 0.399719 0.765128 0.0894055
H32 H 0.463933 0.840217 0.0975873
Cu9 Cu 0.622485(19) 0.97540(4) 0.84978(2)
H23 H 0.9796 0.0628 0.2831
Cu6 Cu 0.980587(18) 0.00857(4) 0.56228(2)
O20 O 0.96077(10) 0.1413(2) 0.41848(12)
O21 O 0.95161(10) 0.8923(2) 0.41992(12)
H23_2 H 0.0204 0.0628 0.7169
O20_2 O 0.03923(10) 0.1413(2) 0.58152(12)
C3_2 C 0.34905(13) 0.1727(3) 0.06100(16)
O1_2 O 0.26350(10) 0.5342(2) 0.84059(12)
O3_2 O 0.62006(10) 0.2213(2) 0.77201(12)
O6_2 O 0.55588(10) 0.0720(2) 0.80769(12)
O9_2 O 0.70155(10) 0.0566(2) 0.71640(12)
O12_2 O 0.19848(10) 0.4045(2) 0.89110(12)
C2_2 C 0.35886(14) 0.3671(3) 0.86981(16)
H1_2 H 0.3615 0.4101 0.8286
C4_2 C 0.30491(13) 0.3719(3) 0.90686(16)
C5_2 C 0.46610(14) 0.2927(3) 0.85480(17)
O13_2 O 0.94385(11) 0.0136(3) 0.66570(12)
N1_2 N 0.46034(11) 0.2489(3) 0.79034(14)
C8_2 C 0.40881(13) 0.2973(3) 0.89513(17)
C9_2 C 0.25120(14) 0.4419(3) 0.87733(15)
O15_2 O 0.76260(11) 0.2922(2) 0.78145(14)
O16_2 O 0.51600(11) 0.3295(2) 0.87967(13)
C14_2 C 0.35249(13) 0.2410(3) 0.99440(15)
C15_2 C 0.56729(14) 0.1732(3) 0.77965(16)
C16_2 C 0.51326(14) 0.2438(3) 0.74623(16)
H4_2 H 0.5259 0.3270 0.7332
C18_2 C 0.30131(13) 0.3075(3) 0.96870(16)
H5_2 H 0.2652 0.3087 0.9928
C19_2 C 0.40562(13) 0.2365(3) 0.95718(17)
H6_2 H 0.4394 0.1921 0.9742
C22_2 C 0.48822(15) 0.1722(4) 0.68288(17)
H9_2 H 0.4727 0.2282 0.6474
H10_2 H 0.5200 0.1210 0.6640
C23_2 C 0.40679(14) 0.1799(4) 0.76118(19)
H11_2 H 0.3775 0.2346 0.7380
H12_2 H 0.3862 0.1345 0.7966
C26_2 C 0.9612(4) 0.2070(6) 0.7258(3)
H15_2 H 0.9835 0.2451 0.7643
H16_2 H 0.9725 0.2480 0.6838
C29_2 C 0.43624(16) 0.0931(4) 0.71037(18)
H21_2 H 0.4072 0.0692 0.6737
H22_2 H 0.4522 0.0197 0.7332
C30_2 C 0.9765(2) 0.0724(4) 0.7223(2)
H24_2 H 0.9660 0.0328 0.7650
C31_2 C 0.87946(19) 0.0318(6) 0.6708(2)
O18_2 O 0.8953(3) 0.2177(5) 0.7346(2)
C32_2 C 0.8634(3) 0.1637(9) 0.6774(3)
H27_2 H 0.8737 0.2069 0.6357
H28_2 H 0.8195 0.1717 0.6830
Cu5_2 Cu 0.198239(18) 0.64524(4) 0.80397(2)
Cu10_2 Cu 0.122485(19) 0.47540(4) 0.84978(2)
O19_2 O 0.76350(10) 0.0342(2) 0.84059(12)
O23_2 O 0.91908(10) 0.1235(2) 0.52252(12)
H29_2 H 0.802854 0.275068 0.805147
H30_2 H 0.767971 0.296579 0.731005
O2_2 O 0.53923(10) 0.6413(2) 0.58152(12)
O7_2 O 0.58092(10) 0.6235(2) 0.47748(12)
O8_2 O 0.92723(10) 0.8737(2) 0.53137(13)
C1_2 C 0.67293(13) 0.9557(3) 0.71180(15)
O11_2 O 0.64102(10) 0.9072(2) 0.75719(12)
C6_2 C 0.58035(14) 0.6631(3) 0.53838(16)
C7_2 C 0.92102(14) 0.8485(3) 0.46846(18)
O14_2 O 0.57386(11) 0.8156(2) 0.87886(14)
C10_2 C 0.62923(13) 0.8071(3) 0.62475(16)
H2_2 H 0.5956 0.7967 0.6523
C11_2 C 0.67706(14) 0.8858(3) 0.64549(17)
C12_2 C 0.72736(15) 0.9011(3) 0.60378(18)
H3_2 H 0.7581 0.9571 0.6163
C13_2 C 0.73173(15) 0.8324(3) 0.54329(18)
N2_2 N 0.82226(12) 0.7477(3) 0.49227(15)
C17_2 C 0.78617(14) 0.8458(4) 0.49816(18)
O17_2 O 0.79601(12) 0.9429(3) 0.46747(16)
C20_2 C 0.87393(15) 0.7509(3) 0.44632(18)
H7_2 H 0.8594 0.7646 0.3986
C21_2 C 0.68464(15) 0.7537(3) 0.52291(17)
H8_2 H 0.6877 0.7071 0.4831
C24_2 C 0.63213(14) 0.7443(3) 0.56251(17)
C25_2 C 0.82225(17) 0.6364(4) 0.5364(2)
H13_2 H 0.7904 0.5790 0.5212
H14_2 H 0.8163 0.6578 0.5842
C27_2 C 0.88627(17) 0.5823(4) 0.5270(2)
H17_2 H 0.9156 0.6155 0.5608
H18_2 H 0.8857 0.4933 0.5311
C28_2 C 0.90229(17) 0.6212(4) 0.4547(2)
H19_2 H 0.8847 0.5648 0.4207
H20_2 H 0.9465 0.6239 0.4501
H25_2 H 0.8653 0.9874 0.7106
H26_2 H 0.8584 0.9981 0.6302
O25_2 O 0.69848(10) 0.9045(2) 0.89110(12)
H31_2 H 0.600281 0.765128 0.910594
H32_2 H 0.536067 0.840217 0.902413
C2_3 C 0.14114(14) 0.8671(3) 0.13019(16)
H1_3 H 0.1385 0.9101 0.1714
C4_3 C 0.19509(13) 0.8719(3) 0.09314(16)
C5_3 C 0.03390(14) 0.7927(3) 0.14520(17)
N1_3 N 0.03966(11) 0.7489(3) 0.20966(14)
C8_3 C 0.09119(13) 0.7973(3) 0.10487(17)
C9_3 C 0.24880(14) 0.9419(3) 0.12267(15)
C14_3 C 0.14751(13) 0.7410(3) 0.00560(15)
C18_3 C 0.19869(13) 0.8075(3) 0.03130(16)
H5_3 H 0.2348 0.8087 0.0072
C19_3 C 0.09438(13) 0.7365(3) 0.04282(17)
H6_3 H 0.0606 0.6921 0.0258
C22_3 C 0.01178(15) 0.6722(4) 0.31712(17)
H9_3 H 0.0273 0.7282 0.3526
C23_3 C 0.09321(14) 0.6799(4) 0.23882(19)
H11_3 H 0.1225 0.7346 0.2620
H12_3 H 0.1138 0.6345 0.2034
C29_3 C 0.06376(16) 0.5931(4) 0.28963(18)
H21_3 H 0.0928 0.5692 0.3263
H22_3 H 0.0478 0.5197 0.2668
O5_2 O 0.11619(10) 0.5804(2) 0.93102(12)
O10_2 O 0.18910(10) 0.7122(2) 0.89634(12)
C3_3 C 0.15095(13) 0.6727(3) 0.93900(16)
O3_3 O 0.87994(10) 0.7213(2) 0.22799(12)
O4_2 O 0.54839(10) 0.3923(2) 0.58008(12)
O6_3 O 0.94412(10) 0.5720(2) 0.19231(12)
O8_3 O 0.57277(10) 0.3737(2) 0.46863(13)
O9_3 O 0.79845(10) 0.5566(2) 0.28360(12)
C1_3 C 0.82707(13) 0.4557(3) 0.28820(15)
O11_3 O 0.85898(10) 0.4072(2) 0.24281(12)
C6_3 C 0.91965(14) 0.1631(3) 0.46162(16)
O13_3 O 0.55615(11) 0.5136(3) 0.33430(12)
C7_3 C 0.57898(14) 0.3485(3) 0.53154(18)
O14_3 O 0.92614(11) 0.3156(2) 0.12114(14)
C10_3 C 0.87077(13) 0.3071(3) 0.37525(16)
H2_3 H 0.9044 0.2967 0.3477
C11_3 C 0.82294(14) 0.3858(3) 0.35451(17)
O15_3 O 0.73740(11) 0.7922(2) 0.21855(14)
O16_3 O 0.98400(11) 0.8295(2) 0.12033(13)
C12_3 C 0.77264(15) 0.4011(3) 0.39622(18)
H3_3 H 0.7419 0.4571 0.3837
C13_3 C 0.76827(15) 0.3324(3) 0.45671(18)
N2_3 N 0.67774(12) 0.2477(3) 0.50773(15)
C15_3 C 0.93271(14) 0.6732(3) 0.22035(16)
C16_3 C 0.98674(14) 0.7438(3) 0.25377(16)
H4_3 H 0.9741 0.8270 0.2668
C17_3 C 0.71383(14) 0.3458(4) 0.50184(18)
O17_3 O 0.70399(12) 0.4429(3) 0.53253(16)
C20_3 C 0.62607(15) 0.2509(3) 0.55368(18)
H7_3 H 0.6406 0.2646 0.6014
C21_3 C 0.81536(15) 0.2537(3) 0.47709(17)
H8_3 H 0.8123 0.2071 0.5169
H10_3 H 0.9800 0.6210 0.3360
C24_3 C 0.86787(14) 0.2443(3) 0.43749(17)
C25_3 C 0.67775(17) 0.1364(4) 0.4636(2)
H13_3 H 0.7096 0.0790 0.4788
H14_3 H 0.6837 0.1578 0.4158
C26_3 C 0.5388(4) 0.7070(6) 0.2742(3)
H15_3 H 0.5165 0.7451 0.2357
H16_3 H 0.5275 0.7480 0.3162
C27_3 C 0.61373(17) 0.0823(4) 0.4730(2)
H17_3 H 0.5844 0.1155 0.4392
C28_3 C 0.59771(17) 0.1212(4) 0.5453(2)
H19_3 H 0.6153 0.0648 0.5793
H20_3 H 0.5535 0.1239 0.5499
C30_3 C 0.5235(2) 0.5724(4) 0.2777(2)
H23_3 H 0.4796 0.5628 0.2831
H24_3 H 0.5340 0.5328 0.2350
C31_3 C 0.62054(19) 0.5318(6) 0.3292(2)
H25_3 H 0.6347 0.4874 0.2894
H26_3 H 0.6416 0.4981 0.3698
O18_3 O 0.6047(3) 0.7177(5) 0.2654(2)
C32_3 C 0.6366(3) 0.6637(9) 0.3226(3)
H27_3 H 0.6263 0.7069 0.3643
H28_3 H 0.6805 0.6717 0.3170
O21_2 O 0.45161(10) 0.3923(2) 0.41992(12)
O22_2 O 0.88381(10) 0.5804(2) 0.06898(12)
O24_2 O 0.81090(10) 0.7122(2) 0.10366(12)
H29_3 H 0.697146 0.775068 0.194853
H30_3 H 0.732029 0.796579 0.268995
H31_3 H 0.899719 0.265128 0.0894055
H32_3 H 0.963933 0.340217 0.0975873
O3_4 O 0.12006(10) 0.7213(2) 0.77201(12)
O6_4 O 0.05588(10) 0.5720(2) 0.80769(12)
O8_4 O 0.42723(10) 0.3737(2) 0.53137(13)
O9_4 O 0.20155(10) 0.5566(2) 0.71640(12)
C1_4 C 0.17293(13) 0.4557(3) 0.71180(15)
O11_4 O 0.14102(10) 0.4072(2) 0.75719(12)
C6_4 C 0.08035(14) 0.1631(3) 0.53838(16)
O13_4 O 0.44385(11) 0.5136(3) 0.66570(12)
C7_4 C 0.42102(14) 0.3485(3) 0.46846(18)
O14_4 O 0.07386(11) 0.3156(2) 0.87886(14)
C10_4 C 0.12923(13) 0.3071(3) 0.62475(16)
H2_4 H 0.0956 0.2967 0.6523
C11_4 C 0.17706(14) 0.3858(3) 0.64549(17)
O15_4 O 0.26260(11) 0.7922(2) 0.78145(14)
O16_4 O 0.01600(11) 0.8295(2) 0.87967(13)
C12_4 C 0.22736(15) 0.4011(3) 0.60378(18)
H3_4 H 0.2581 0.4571 0.6163
C13_4 C 0.23173(15) 0.3324(3) 0.54329(18)
N2_4 N 0.32226(12) 0.2477(3) 0.49227(15)
C15_4 C 0.06729(14) 0.6732(3) 0.77965(16)
C16_4 C 0.01326(14) 0.7438(3) 0.74623(16)
H4_4 H 0.0259 0.8270 0.7332
C17_4 C 0.28617(14) 0.3458(4) 0.49816(18)
O17_4 O 0.29601(12) 0.4429(3) 0.46747(16)
C20_4 C 0.37393(15) 0.2509(3) 0.44632(18)
H7_4 H 0.3594 0.2646 0.3986
C21_4 C 0.18464(15) 0.2537(3) 0.52291(17)
H8_4 H 0.1877 0.2071 0.4831
H10_4 H 0.0200 0.6210 0.6640
C24_4 C 0.13213(14) 0.2443(3) 0.56251(17)
C25_4 C 0.32225(17) 0.1364(4) 0.5364(2)
H13_4 H 0.2904 0.0790 0.5212
H14_4 H 0.3163 0.1578 0.5842
C26_4 C 0.4612(4) 0.7070(6) 0.7258(3)
H15_4 H 0.4835 0.7451 0.7643
H16_4 H 0.4725 0.7480 0.6838
C27_4 C 0.38627(17) 0.0823(4) 0.5270(2)
H17_4 H 0.4156 0.1155 0.5608
C28_4 C 0.40229(17) 0.1212(4) 0.4547(2)
H19_4 H 0.3847 0.0648 0.4207
H20_4 H 0.4465 0.1239 0.4501
C30_4 C 0.4765(2) 0.5724(4) 0.7223(2)
H23_4 H 0.5204 0.5628 0.7169
H24_4 H 0.4660 0.5328 0.7650
C31_4 C 0.37946(19) 0.5318(6) 0.6708(2)
H25_4 H 0.3653 0.4874 0.7106
H26_4 H 0.3584 0.4981 0.6302
O18_4 O 0.3953(3) 0.7177(5) 0.7346(2)
C32_4 C 0.3634(3) 0.6637(9) 0.6774(3)
H27_4 H 0.3737 0.7069 0.6357
H28_4 H 0.3195 0.6717 0.6830
H29_4 H 0.302854 0.775068 0.805147
H30_4 H 0.267971 0.796579 0.731005
H31_4 H 0.100281 0.265128 0.910594
H32_4 H 0.0360675 0.340217 0.902413
C3_4 C 0.84905(13) 0.6727(3) 0.06100(16)
C2_4 C 0.85886(14) 0.8671(3) 0.86981(16)
H1_4 H 0.8615 0.9101 0.8286
C4_4 C 0.80491(13) 0.8719(3) 0.90686(16)
C5_4 C 0.96610(14) 0.7927(3) 0.85480(17)
N1_4 N 0.96034(11) 0.7489(3) 0.79034(14)
C8_4 C 0.90881(13) 0.7973(3) 0.89513(17)
C9_4 C 0.75120(14) 0.9419(3) 0.87733(15)
C14_4 C 0.85249(13) 0.7410(3) 0.99440(15)
C18_4 C 0.80131(13) 0.8075(3) 0.96870(16)
H5_4 H 0.7652 0.8087 0.9928
C19_4 C 0.90562(13) 0.7365(3) 0.95718(17)
H6_4 H 0.9394 0.6921 0.9742
C22_4 C 0.98822(15) 0.6722(4) 0.68288(17)
H9_4 H 0.9727 0.7282 0.6474
C23_4 C 0.90679(14) 0.6799(4) 0.76118(19)
H11_4 H 0.8775 0.7346 0.7380
H12_4 H 0.8862 0.6345 0.7966
C29_4 C 0.93624(16) 0.5931(4) 0.71037(18)
H21_4 H 0.9072 0.5692 0.6737
H22_4 H 0.9522 0.5197 0.7332
H18_3 H 0.6143 0.9933 0.4689
H18_4 H 0.3857 0.9933 0.5311
loop_
_geom_bond_atom_site_label_1
_geom_bond_atom_site_label_2
_geom_bond_site_symmetry_1
_geom_bond_site_symmetry_2
O1 C9 1_555 1_555
O3 Cu1 1_555 1_555
O6 C15 1_555 1_555
O9 Cu1 1_555 1_555
O12 C9 1_555 1_555
C2 H1 1_555 1_555
C4 C2 1_555 1_555
C5 N1 1_555 1_555
O13 Cu2 1_555 1_555
N1 C16 1_555 1_555
C8 C2 1_555 1_555
C9 C4 1_555 1_555
O15 Cu1 1_555 1_555
O16 C5 1_555 1_555
C14 C18 1_555 1_555
C15 O3 1_555 1_555
C16 C15 1_555 1_555
H4 C16 1_555 1_555
C18 C4 1_555 1_555
H5 C18 1_555 1_555
C19 C8 1_555 1_555
H6 C19 1_555 1_555
C22 C16 1_555 1_555
H9 C22 1_555 1_555
H10 C22 1_555 1_555
C23 N1 1_555 1_555
H11 C23 1_555 1_555
H12 C23 1_555 1_555
C26 H15 1_555 1_555
H16 C26 1_555 1_555
C29 C22 1_555 1_555
H21 C29 1_555 1_555
H22 C29 1_555 1_555
C30 O13 1_555 1_555
H24 C30 1_555 1_555
C31 O13 1_555 1_555
O18 C26 1_555 1_555
C32 C31 1_555 1_555
H27 C32 1_555 1_555
H28 C32 1_555 1_555
Cu5 O1 1_555 1_555
Cu10 O12 1_555 1_555
O19 Cu1 1_555 1_555
O23 Cu2 1_555 1_555
O24 Cu1 1_555 1_555
C5 C8 1_555 1_555
C14 C19 1_555 1_555
C23 C29 1_555 1_555
C26 C30 1_555 1_555
O18 C32 1_555 1_555
Cu5 Cu10 1_555 1_555
O15 H29 1_555 1_555
O15 H30 1_555 1_555
O5 C3 1_555 1_555
O10 C3 1_555 1_555
Cu4 O10 1_555 1_555
O2 C6 1_555 1_555
O4 C7 1_555 1_555
O7 C6 1_555 1_555
O8 C7 1_555 1_555
O11 Cu3 1_555 1_555
C6 C24 1_555 1_555
C7 C20 1_555 1_555
O14 Cu3 1_555 1_555
C10 H2 1_555 1_555
C11 C1 1_555 1_555
C12 C11 1_555 1_555
H3 C12 1_555 1_555
C13 C12 1_555 1_555
N2 C17 1_555 1_555
C17 C13 1_555 1_555
O17 C17 1_555 1_555
C20 N2 1_555 1_555
H7 C20 1_555 1_555
C21 C13 1_555 1_555
H8 C21 1_555 1_555
C24 C10 1_555 1_555
C25 N2 1_555 1_555
H13 C25 1_555 1_555
H14 C25 1_555 1_555
C27 C25 1_555 1_555
H17 C27 1_555 1_555
H18 C27 1_555 1_555
C28 C20 1_555 1_555
H19 C28 1_555 1_555
H20 C28 1_555 1_555
Cu7 O2 1_555 1_555
Cu8 O7 1_555 1_555
O25 Cu3 1_555 1_555
C1 O11 1_555 1_555
C10 C11 1_555 1_555
C21 C24 1_555 1_555
C27 C28 1_555 1_555
Cu7 Cu8 1_555 1_555
O14 H31 1_555 1_555
O14 H32 1_555 1_555
O22 C3_2 1_555 1_555
O24 C3_2 1_555 1_555
O1_2 C9_2 1_555 1_555
O3_2 Cu4 1_555 1_555
O6_2 C15_2 1_555 1_555
O9_2 Cu4 1_555 1_555
O12_2 C9_2 1_555 1_555
C2_2 H1_2 1_555 1_555
C4_2 C2_2 1_555 1_555
C5_2 N1_2 1_555 1_555
O13_2 Cu6 1_555 1_555
N1_2 C16_2 1_555 1_555
C8_2 C2_2 1_555 1_555
C9_2 C4_2 1_555 1_555
O15_2 Cu4 1_555 1_555
O16_2 C5_2 1_555 1_555
C14_2 C18_2 1_555 1_555
C15_2 O3_2 1_555 1_555
C16_2 C15_2 1_555 1_555
H4_2 C16_2 1_555 1_555
C18_2 C4_2 1_555 1_555
H5_2 C18_2 1_555 1_555
C19_2 C8_2 1_555 1_555
H6_2 C19_2 1_555 1_555
C22_2 C16_2 1_555 1_555
H9_2 C22_2 1_555 1_555
H10_2 C22_2 1_555 1_555
C23_2 N1_2 1_555 1_555
H11_2 C23_2 1_555 1_555
H12_2 C23_2 1_555 1_555
C26_2 H15_2 1_555 1_555
H16_2 C26_2 1_555 1_555
C29_2 C22_2 1_555 1_555
H21_2 C29_2 1_555 1_555
H22_2 C29_2 1_555 1_555
C30_2 O13_2 1_555 1_555
H24_2 C30_2 1_555 1_555
C31_2 O13_2 1_555 1_555
O18_2 C26_2 1_555 1_555
C32_2 C31_2 1_555 1_555
H27_2 C32_2 1_555 1_555
H28_2 C32_2 1_555 1_555
Cu5_2 O1_2 1_555 1_555
Cu10_2 O12_2 1_555 1_555
O19_2 Cu4 1_555 1_555
O23_2 Cu6 1_555 1_555
C5_2 C8_2 1_555 1_555
C14_2 C19_2 1_555 1_555
C23_2 C29_2 1_555 1_555
C26_2 C30_2 1_555 1_555
O18_2 C32_2 1_555 1_555
Cu5_2 Cu10_2 1_555 1_555
O15_2 H29_2 1_555 1_555
O15_2 H30_2 1_555 1_555
O2_2 C6_2 1_555 1_555
O21 C7_2 1_555 1_555
O7_2 C6_2 1_555 1_555
O8_2 C7_2 1_555 1_555
O11_2 Cu9 1_555 1_555
C6_2 C24_2 1_555 1_555
C7_2 C20_2 1_555 1_555
O14_2 Cu9 1_555 1_555
C10_2 H2_2 1_555 1_555
C11_2 C1_2 1_555 1_555
C12_2 C11_2 1_555 1_555
H3_2 C12_2 1_555 1_555
C13_2 C12_2 1_555 1_555
N2_2 C17_2 1_555 1_555
C17_2 C13_2 1_555 1_555
O17_2 C17_2 1_555 1_555
C20_2 N2_2 1_555 1_555
H7_2 C20_2 1_555 1_555
C21_2 C13_2 1_555 1_555
H8_2 C21_2 1_555 1_555
C24_2 C10_2 1_555 1_555
C25_2 N2_2 1_555 1_555
H13_2 C25_2 1_555 1_555
H14_2 C25_2 1_555 1_555
C27_2 C25_2 1_555 1_555
H17_2 C27_2 1_555 1_555
H18_2 C27_2 1_555 1_555
C28_2 C20_2 1_555 1_555
H19_2 C28_2 1_555 1_555
H20_2 C28_2 1_555 1_555
Cu8 O2_2 1_555 1_555
Cu7 O7_2 1_555 1_555
O25_2 Cu9 1_555 1_555
C1_2 O11_2 1_555 1_555
C10_2 C11_2 1_555 1_555
C21_2 C24_2 1_555 1_555
C27_2 C28_2 1_555 1_555
O14_2 H31_2 1_555 1_555
O14_2 H32_2 1_555 1_555
O25 C9_3 1_555 1_555
C2_3 H1_3 1_555 1_555
C4_3 C2_3 1_555 1_555
C5_3 N1_3 1_555 1_555
C8_3 C2_3 1_555 1_555
C9_3 C4_3 1_555 1_555
C14_3 C18_3 1_555 1_555
C18_3 C4_3 1_555 1_555
H5_3 C18_3 1_555 1_555
C19_3 C8_3 1_555 1_555
H6_3 C19_3 1_555 1_555
H9_3 C22_3 1_555 1_555
C23_3 N1_3 1_555 1_555
H11_3 C23_3 1_555 1_555
H12_3 C23_3 1_555 1_555
C29_3 C22_3 1_555 1_555
H21_3 C29_3 1_555 1_555
H22_3 C29_3 1_555 1_555
C5_3 C8_3 1_555 1_555
C14_3 C19_3 1_555 1_555
C23_3 C29_3 1_555 1_555
O5_2 C3_3 1_555 1_555
O10_2 C3_3 1_555 1_555
Cu5_2 O10_2 1_555 1_555
Cu10_2 O5_2 1_555 1_555
Cu7 O8_3 1_555 1_555
Cu10 O6_3 1_555 1_555
O20 C6_3 1_555 1_555
O3_3 Cu5 1_555 1_555
O4_2 C7_3 1_555 1_555
O6_3 C15_3 1_555 1_555
O23_2 C6_3 1_555 1_555
O8_3 C7_3 1_555 1_555
O9_3 Cu5 1_555 1_555
C1_3 O9_3 1_555 1_555
O11_3 Cu10 1_555 1_555
C6_3 C24_3 1_555 1_555
O13_3 Cu7 1_555 1_555
C7_3 C20_3 1_555 1_555
O14_3 Cu10 1_555 1_555
C10_3 H2_3 1_555 1_555
C11_3 C1_3 1_555 1_555
O15_3 Cu5 1_555 1_555
C12_3 C11_3 1_555 1_555
H3_3 C12_3 1_555 1_555
C13_3 C12_3 1_555 1_555
N2_3 C17_3 1_555 1_555
C15_3 O3_3 1_555 1_555
C16_3 C15_3 1_555 1_555
H4_3 C16_3 1_555 1_555
C17_3 C13_3 1_555 1_555
O17_3 C17_3 1_555 1_555
C20_3 N2_3 1_555 1_555
H7_3 C20_3 1_555 1_555
C21_3 C13_3 1_555 1_555
H8_3 C21_3 1_555 1_555
C24_3 C10_3 1_555 1_555
C25_3 N2_3 1_555 1_555
H13_3 C25_3 1_555 1_555
H14_3 C25_3 1_555 1_555
C26_3 H15_3 1_555 1_555
H16_3 C26_3 1_555 1_555
C27_3 C25_3 1_555 1_555
H17_3 C27_3 1_555 1_555
C28_3 C20_3 1_555 1_555
H19_3 C28_3 1_555 1_555
H20_3 C28_3 1_555 1_555
C30_3 O13_3 1_555 1_555
H23_3 C30_3 1_555 1_555
H24_3 C30_3 1_555 1_555
C31_3 O13_3 1_555 1_555
H25_3 C31_3 1_555 1_555
H26_3 C31_3 1_555 1_555
O18_3 C26_3 1_555 1_555
C32_3 C31_3 1_555 1_555
H27_3 C32_3 1_555 1_555
H28_3 C32_3 1_555 1_555
O21_2 Cu7 1_555 1_555
O22_2 Cu10 1_555 1_555
O24_2 Cu5 1_555 1_555
O4_2 Cu8 1_555 1_555
C1_3 O11_3 1_555 1_555
C10_3 C11_3 1_555 1_555
C21_3 C24_3 1_555 1_555
C26_3 C30_3 1_555 1_555
C27_3 C28_3 1_555 1_555
O18_3 C32_3 1_555 1_555
O15_3 H29_3 1_555 1_555
O15_3 H30_3 1_555 1_555
O14_3 H31_3 1_555 1_555
O14_3 H32_3 1_555 1_555
Cu8 O8_4 1_555 1_555
Cu10_2 O6_4 1_555 1_555
O20_2 C6_4 1_555 1_555
O3_4 Cu5_2 1_555 1_555
O21_2 C7_4 1_555 1_555
O6_4 C15_4 1_555 1_555
O23 C6_4 1_555 1_555
O8_4 C7_4 1_555 1_555
O9_4 Cu5_2 1_555 1_555
C1_4 O9_4 1_555 1_555
O11_4 Cu10_2 1_555 1_555
C6_4 C24_4 1_555 1_555
O13_4 Cu8 1_555 1_555
C7_4 C20_4 1_555 1_555
O14_4 Cu10_2 1_555 1_555
C10_4 H2_4 1_555 1_555
C11_4 C1_4 1_555 1_555
O15_4 Cu5_2 1_555 1_555
C12_4 C11_4 1_555 1_555
H3_4 C12_4 1_555 1_555
C13_4 C12_4 1_555 1_555
N2_4 C17_4 1_555 1_555
C15_4 O3_4 1_555 1_555
C16_4 C15_4 1_555 1_555
H4_4 C16_4 1_555 1_555
C17_4 C13_4 1_555 1_555
O17_4 C17_4 1_555 1_555
C20_4 N2_4 1_555 1_555
H7_4 C20_4 1_555 1_555
C21_4 C13_4 1_555 1_555
H8_4 C21_4 1_555 1_555
C24_4 C10_4 1_555 1_555
C25_4 N2_4 1_555 1_555
H13_4 C25_4 1_555 1_555
H14_4 C25_4 1_555 1_555
C26_4 H15_4 1_555 1_555
H16_4 C26_4 1_555 1_555
C27_4 C25_4 1_555 1_555
H17_4 C27_4 1_555 1_555
C28_4 C20_4 1_555 1_555
H19_4 C28_4 1_555 1_555
H20_4 C28_4 1_555 1_555
C30_4 O13_4 1_555 1_555
H23_4 C30_4 1_555 1_555
H24_4 C30_4 1_555 1_555
C31_4 O13_4 1_555 1_555
H25_4 C31_4 1_555 1_555
H26_4 C31_4 1_555 1_555
O18_4 C26_4 1_555 1_555
C32_4 C31_4 1_555 1_555
H27_4 C32_4 1_555 1_555
H28_4 C32_4 1_555 1_555
C1_4 O11_4 1_555 1_555
C10_4 C11_4 1_555 1_555
C21_4 C24_4 1_555 1_555
C26_4 C30_4 1_555 1_555
C27_4 C28_4 1_555 1_555
O18_4 C32_4 1_555 1_555
O15_4 H29_4 1_555 1_555
O15_4 H30_4 1_555 1_555
O14_4 H31_4 1_555 1_555
O14_4 H32_4 1_555 1_555
O22_2 C3_4 1_555 1_555
O24_2 C3_4 1_555 1_555
O25_2 C9_4 1_555 1_555
C2_4 H1_4 1_555 1_555
C4_4 C2_4 1_555 1_555
C5_4 N1_4 1_555 1_555
C8_4 C2_4 1_555 1_555
C9_4 C4_4 1_555 1_555
C14_4 C18_4 1_555 1_555
C18_4 C4_4 1_555 1_555
H5_4 C18_4 1_555 1_555
C19_4 C8_4 1_555 1_555
H6_4 C19_4 1_555 1_555
H9_4 C22_4 1_555 1_555
C23_4 N1_4 1_555 1_555
H11_4 C23_4 1_555 1_555
H12_4 C23_4 1_555 1_555
C29_4 C22_4 1_555 1_555
H21_4 C29_4 1_555 1_555
H22_4 C29_4 1_555 1_555
C5_4 C8_4 1_555 1_555
C14_4 C19_4 1_555 1_555
C23_4 C29_4 1_555 1_555

#END
