
###############################################################################
#
# This file contains modified crystal structure data generated from the
# MOF subset of the Cambridge Structural Database (CSD) v543 
# hosted by the Cambridge Crystallographic Data Centre (CCDC).
#
# This work is licensed under the Creative Commons
# Attribution-NonCommercial-ShareAlike 4.0 International License.
# To view a copy of this license, visit
# http://creativecommons.org/licenses/by-nc-sa/4.0/
# or send a letter to
# Creative Commons, PO Box 1866, Mountain View, CA 94042, USA.
#
# CIF created using the CSD Python API on 29 September 2022
# The structure has been converted into the P1 space group
# The structure has a 3D framework
# The original CSD entry HOXGEH is in the rhombohedral crystal system
# The framework has been calculated to contain at least 10.0% void space
# The void calculation uses a probe of radius 1.32A, grid spacing 0.4
#
###############################################################################

data_HOXGEH
_chemical_formula_moiety         '(C234 H324 O73 Sn36)n'
_symmetry_cell_setting           triclinic
_symmetry_space_group_name_H-M   'P 1'
_symmetry_Int_Tables_number      1
_space_group_name_Hall           'P 1'
loop_
_symmetry_equiv_pos_site_id
_symmetry_equiv_pos_as_xyz
1 x,y,z
_cell_length_a                   32.1550(14)
_cell_length_b                   32.1550(14)
_cell_length_c                   9.3233(6)
_cell_angle_alpha                90
_cell_angle_beta                 90
_cell_angle_gamma                120
_cell_volume                     8348.29
loop_
_atom_site_label
_atom_site_type_symbol
_atom_site_fract_x
_atom_site_fract_y
_atom_site_fract_z
C4 C 0.21275(13) 0.00239(12) 0.0165(4)
H3 H 0.1998 0.0201 0.0604
H4 H 0.2596 0.0132 0.1773
Sn2 Sn 0.222610(8) 0.110260(8) 0.54121(2)
O1 O 0.21745(8) 0.05621(8) 0.6909(3)
O2 O 0.14352(9) 0.02289(9) 0.6077(3)
C1 C 0.17285(12) 0.02351(12) 0.6948(4)
C10 C 0.22264(13) 0.07558(14) 0.3504(4)
H7 H 0.2504 0.0974 0.2920
H8 H 0.1931 0.0664 0.2969
H9 H 0.2245 0.0468 0.3733
C11 C 0.18307(13) 0.13159(12) 0.6703(4)
H10 H 0.1704 0.1103 0.7536
H11 H 0.1564 0.1298 0.6146
H12 H 0.2040 0.1647 0.7029
O6 O 0.23509(11) 0.17503(8) 0.4046(3)
O8 O 0.29222(14) 0.14465(11) 0.6037(2)
Sn1 Sn 0.206389(11) 0.856012(8) 0.46496(2)
O3 O 0.17503(8) 0.93994(8) 0.5954(3)
O4 O 0.20344(9) 0.89256(9) 0.6655(3)
O5 O 0.14465(11) 0.85243(8) 0.3963(2)
C2 C 0.15650(13) 0.98763(12) 0.8157(4)
H1 H 0.1314 0.9561 0.7789
H2 H 0.1416 0.9977 0.8908
C3 C 0.19554(12) 0.98149(11) 0.8835(4)
C7 C 0.24951(12) 0.94988(12) 0.8953(4)
H6 H 0.2619 0.9313 0.8541
C8 C 0.21413(11) 0.95413(11) 0.8229(4)
C9 C 0.19626(12) 0.92744(12) 0.6840(4)
C12 C 0.26419(12) 0.92085(12) 0.3893(4)
H13 H 0.2782 0.9145 0.3047
H14 H 0.2527 0.9429 0.3633
H15 H 0.2886 0.9354 0.4645
C13 C 0.19578(13) 0.80005(12) 0.6041(4)
H16 H 0.1862 0.8056 0.6989
H17 H 0.1705 0.7694 0.5658
H18 H 0.2257 0.7991 0.6126
Sn3 Sn 0.126944(11) 0.810655(8) 0.20171(2)
Sn4 Sn 0.110260(8) 0.887650(11) 0.45879(2)
O7 O 0.18868(11) 0.81424(8) 0.2704(2)
Sn1_2 Sn 0.143988(8) 0.350377(14) 0.46496(2)
O3_2 O 0.06006(8) 0.23509(11) 0.5954(3)
O4_2 O 0.10744(9) 0.31088(13) 0.6655(3)
O5_2 O 0.14757(8) 0.29222(14) 0.3963(2)
C2_2 C 0.01237(12) 0.16887(18) 0.8157(4)
H1_2 H 0.0439 0.1753 0.7789
H2_2 H 0.0023 0.1439 0.8908
C3_2 C 0.01851(11) 0.21405(16) 0.8835(4)
C7_2 C 0.05012(12) 0.29963(17) 0.8953(4)
H6_2 H 0.0687 0.3306 0.8541
C8_2 C 0.04587(11) 0.26000(16) 0.8229(4)
C9_2 C 0.07256(12) 0.26882(17) 0.6840(4)
C12_2 C 0.07915(12) 0.34334(17) 0.3893(4)
H13_2 H 0.0855 0.3637 0.3047
H14_2 H 0.0571 0.3098 0.3633
H15_2 H 0.0646 0.3532 0.4645
C13_2 C 0.19995(12) 0.39573(18) 0.6041(4)
H16_2 H 0.1944 0.3806 0.6989
H17_2 H 0.2306 0.4011 0.5658
H18_2 H 0.2009 0.4266 0.6126
Sn3_2 Sn 0.189345(8) 0.316290(14) 0.20171(2)
Sn4_2 Sn 0.112350(11) 0.222610(14) 0.45879(2)
O7_2 O 0.18576(8) 0.37445(14) 0.2704(2)
Sn2_2 Sn 0.889740(8) 0.112350(11) 0.54121(2)
O1_2 O 0.94379(8) 0.16124(11) 0.6909(3)
O2_2 O 0.97711(9) 0.12063(13) 0.6077(3)
C1_2 C 0.97649(12) 0.14934(17) 0.6948(4)
C10_2 C 0.92442(14) 0.14706(19) 0.3504(4)
H7_2 H 0.9026 0.1530 0.2920
H8_2 H 0.9336 0.1267 0.2969
H9_2 H 0.9532 0.1777 0.3733
C11_2 C 0.86841(12) 0.05148(18) 0.6703(4)
H10_2 H 0.8897 0.0601 0.7536
H11_2 H 0.8702 0.0266 0.6146
H12_2 H 0.8353 0.0393 0.7029
O6_2 O 0.82497(8) 0.06006(14) 0.4046(3)
O8_2 O 0.85535(11) 0.14757(18) 0.6037(2)
Sn1_3 Sn 0.649623(14) 0.793611(11) 0.46496(2)
Sn2_3 Sn 0.887650(11) 0.777390(8) 0.54121(2)
O1_3 O 0.83876(11) 0.78255(8) 0.6909(3)
O2_3 O 0.87937(13) 0.85648(9) 0.6077(3)
O3_3 O 0.76491(11) 0.82497(8) 0.5954(3)
O4_3 O 0.68912(13) 0.79656(9) 0.6655(3)
O5_3 O 0.70778(14) 0.85535(11) 0.3963(2)
C1_3 C 0.85066(17) 0.82715(12) 0.6948(4)
C2_3 C 0.83113(18) 0.84350(13) 0.8157(4)
H1_3 H 0.8247 0.8686 0.7789
H2_3 H 0.8561 0.8584 0.8908
C3_3 C 0.78595(16) 0.80446(12) 0.8835(4)
C7_3 C 0.70037(17) 0.75049(12) 0.8953(4)
H6_3 H 0.6694 0.7381 0.8541
C8_3 C 0.74000(16) 0.78587(11) 0.8229(4)
C9_3 C 0.73118(17) 0.80374(12) 0.6840(4)
C10_3 C 0.85294(19) 0.77736(13) 0.3504(4)
H7_3 H 0.8470 0.7496 0.2920
H8_3 H 0.8733 0.8069 0.2969
H9_3 H 0.8223 0.7755 0.3733
C11_3 C 0.94852(18) 0.81693(13) 0.6703(4)
H10_3 H 0.9399 0.8296 0.7536
H11_3 H 0.9734 0.8436 0.6146
H12_3 H 0.9607 0.7960 0.7029
C12_3 C 0.65666(17) 0.73581(12) 0.3893(4)
H13_3 H 0.6363 0.7218 0.3047
H14_3 H 0.6902 0.7473 0.3633
H15_3 H 0.6468 0.7114 0.4645
C13_3 C 0.60427(18) 0.80422(13) 0.6041(4)
H16_3 H 0.6194 0.8138 0.6989
H17_3 H 0.5989 0.8295 0.5658
H18_3 H 0.5734 0.7743 0.6126
Sn3_3 Sn 0.683710(14) 0.873056(11) 0.20171(2)
Sn4_3 Sn 0.777390(14) 0.889740(8) 0.45879(2)
O6_3 O 0.93994(14) 0.76491(11) 0.4046(3)
O7_3 O 0.62555(14) 0.81132(11) 0.2704(2)
O8_3 O 0.85243(18) 0.70778(14) 0.6037(2)
Sn1_4 Sn 0.873056(11) 0.189345(8) 0.79829(2)
Sn2_4 Sn 0.889277(8) 0.443593(8) 0.87454(2)
O2_4 O 0.81019(9) 0.35622(9) 0.9410(3)
O3_4 O 0.84170(8) 0.27327(8) 0.9287(3)
O4_4 O 0.87011(9) 0.22589(9) 0.9988(3)
O5_4 O 0.81132(11) 0.18576(8) 0.7296(2)
C10_4 C 0.88931(13) 0.40891(14) 0.6837(4)
H7_4 H 0.9171 0.4307 0.6253
H8_4 H 0.8598 0.3997 0.6302
H9_4 H 0.8912 0.3801 0.7066
H11_4 H 0.8231 0.4631 0.9479
C12_4 C 0.93086(12) 0.25418(12) 0.7226(4)
H13_4 H 0.9449 0.2478 0.6380
H14_4 H 0.9194 0.2762 0.6966
H15_4 H 0.9553 0.2687 0.7978
C13_4 C 0.86245(13) 0.13338(12) 0.9374(4)
H17_4 H 0.8372 0.1027 0.8991
H18_4 H 0.8924 0.1324 0.9459
Sn3_4 Sn 0.793611(11) 0.143988(8) 0.53504(2)
Sn4_4 Sn 0.776927(8) 0.220983(11) 0.79212(2)
O6_4 O 0.90176(11) 0.50836(8) 0.7379(3)
O8_4 O 0.95889(14) 0.47798(11) 0.9370(2)
Sn1_5 Sn 0.810655(8) 0.683710(14) 0.79829(2)
Sn2_5 Sn 0.556407(8) 0.445683(11) 0.87454(2)
O2_5 O 0.64378(9) 0.45396(13) 0.9410(3)
O3_5 O 0.72673(8) 0.56842(11) 0.9287(3)
O4_5 O 0.77411(9) 0.64421(13) 0.9988(3)
O5_5 O 0.81424(8) 0.62555(14) 0.7296(2)
C10_5 C 0.59109(14) 0.48039(19) 0.6837(4)
H7_5 H 0.5693 0.4863 0.6253
H8_5 H 0.6003 0.4600 0.6302
H9_5 H 0.6199 0.5110 0.7066
H11_5 H 0.5369 0.3599 0.9479
C12_5 C 0.74582(12) 0.67667(17) 0.7226(4)
H13_5 H 0.7522 0.6970 0.6380
H14_5 H 0.7238 0.6431 0.6966
H15_5 H 0.7313 0.6865 0.7978
C13_5 C 0.86662(12) 0.72906(18) 0.9374(4)
H17_5 H 0.8973 0.7344 0.8991
H18_5 H 0.8676 0.7599 0.9459
Sn3_5 Sn 0.856012(8) 0.649623(14) 0.53504(2)
Sn4_5 Sn 0.779017(11) 0.555943(14) 0.79212(2)
O6_5 O 0.49164(8) 0.39339(14) 0.7379(3)
O8_5 O 0.52202(11) 0.48090(18) 0.9370(2)
Sn1_6 Sn 0.316290(14) 0.126944(11) 0.79829(2)
Sn2_6 Sn 0.554317(11) 0.110723(8) 0.87454(2)
O2_6 O 0.54604(13) 0.18981(9) 0.9410(3)
O3_6 O 0.43158(11) 0.15830(8) 0.9287(3)
O4_6 O 0.35579(13) 0.12989(9) 0.9988(3)
O5_6 O 0.37445(14) 0.18868(11) 0.7296(2)
C10_6 C 0.51961(19) 0.11069(13) 0.6837(4)
H7_6 H 0.5137 0.0829 0.6253
H8_6 H 0.5400 0.1402 0.6302
H9_6 H 0.4890 0.1088 0.7066
H11_6 H 0.6401 0.1769 0.9479
C12_6 C 0.32333(17) 0.06914(12) 0.7226(4)
H13_6 H 0.3030 0.0551 0.6380
H14_6 H 0.3569 0.0806 0.6966
H15_6 H 0.3135 0.0447 0.7978
C13_6 C 0.27094(18) 0.13755(13) 0.9374(4)
H17_6 H 0.2656 0.1628 0.8991
H18_6 H 0.2401 0.1076 0.9459
Sn3_6 Sn 0.350377(14) 0.206389(11) 0.53504(2)
Sn4_6 Sn 0.444057(14) 0.223073(8) 0.79212(2)
O6_6 O 0.60661(14) 0.09824(11) 0.7379(3)
O8_6 O 0.51910(18) 0.04111(14) 0.9370(2)
Sn1_7 Sn 0.539722(11) 0.522679(8) 0.13163(2)
Sn2_7 Sn 0.555943(8) 0.776927(8) 0.20788(2)
O1_4 O 0.55078(8) 0.72288(8) 0.3576(3)
O2_7 O 0.47685(9) 0.68956(9) 0.2744(3)
O3_7 O 0.50836(8) 0.60661(8) 0.2621(3)
O4_7 O 0.53677(9) 0.55923(9) 0.3322(3)
O5_7 O 0.47798(11) 0.51910(8) 0.0630(2)
C1_4 C 0.50618(12) 0.69018(12) 0.3615(4)
C2_4 C 0.48983(13) 0.65430(12) 0.4824(4)
H1_4 H 0.4647 0.6228 0.4456
H2_4 H 0.4749 0.6644 0.5575
C3_4 C 0.52887(12) 0.64816(11) 0.5502(4)
C4_2 C 0.54608(13) 0.66906(12) 0.6832(4)
H3_2 H 0.5331 0.6868 0.7271
C5 C 0.58153(13) 0.66479(12) 0.7535(4)
H4_2 H 0.5929 0.6799 0.8440
C6 C 0.60052(13) 0.63868(13) 0.6925(4)
H5 H 0.6253 0.6361 0.7396
C7_4 C 0.58284(12) 0.61655(12) 0.5620(4)
H6_4 H 0.5952 0.5980 0.5208
C8_4 C 0.54746(11) 0.62080(11) 0.4896(4)
C9_4 C 0.52959(12) 0.59411(12) 0.3507(4)
C10_7 C 0.55597(13) 0.74225(14) 0.0171(4)
H9_7 H 0.5578 0.7135 0.0400
C11_4 C 0.51640(13) 0.79826(12) 0.3370(4)
H10_4 H 0.5037 0.7770 0.4203
H11_7 H 0.4897 0.7965 0.2813
H12_4 H 0.5373 0.8314 0.3696
C12_7 C 0.59752(12) 0.58752(12) 0.0560(4)
H14_7 H 0.5860 0.6096 0.0300
H15_7 H 0.6219 0.6021 0.1312
C13_7 C 0.52911(13) 0.46672(12) 0.2708(4)
H16_4 H 0.5195 0.4723 0.3656
H17_7 H 0.5038 0.4361 0.2325
H18_7 H 0.5590 0.4658 0.2793
Sn4_7 Sn 0.443593(8) 0.554317(11) 0.12546(2)
O6_7 O 0.56842(11) 0.84170(8) 0.0713(3)
H7_7 H 0.5837 0.7641 0.9587
H8_7 H 0.5264 0.7331 0.9636
H13_7 H 0.6115 0.5812 0.9714
Sn3_7 Sn 0.460278(11) 0.477321(8) 0.86837(2)
H13_8 H 0.4188 0.0304 0.9714
Sn2_8 Sn 0.223073(8) 0.779017(11) 0.20788(2)
O1_5 O 0.27712(8) 0.82791(11) 0.3576(3)
O2_8 O 0.31044(9) 0.78730(13) 0.2744(3)
O3_8 O 0.39339(8) 0.90176(11) 0.2621(3)
O4_8 O 0.44077(9) 0.97755(13) 0.3322(3)
O5_8 O 0.48090(8) 0.95889(14) 0.0630(2)
C1_5 C 0.30982(12) 0.81601(17) 0.3615(4)
C2_5 C 0.34570(12) 0.83554(18) 0.4824(4)
H1_5 H 0.3772 0.8420 0.4456
H2_5 H 0.3356 0.8106 0.5575
C3_5 C 0.35184(11) 0.88072(16) 0.5502(4)
C4_3 C 0.33094(12) 0.87703(18) 0.6832(4)
H3_3 H 0.3132 0.8464 0.7271
C5_2 C 0.33521(12) 0.91675(18) 0.7535(4)
H4_3 H 0.3201 0.9131 0.8440
C6_2 C 0.36132(13) 0.96185(18) 0.6925(4)
H5_2 H 0.3639 0.9893 0.7396
C7_5 C 0.38345(12) 0.96630(17) 0.5620(4)
H6_5 H 0.4020 0.9973 0.5208
C8_5 C 0.37920(11) 0.92667(16) 0.4896(4)
C9_5 C 0.40589(12) 0.93549(17) 0.3507(4)
C10_8 C 0.25775(14) 0.81373(19) 0.0171(4)
H9_8 H 0.2865 0.8444 0.0400
C11_5 C 0.20174(12) 0.71815(18) 0.3370(4)
H10_5 H 0.2230 0.7268 0.4203
H11_8 H 0.2035 0.6933 0.2813
H12_5 H 0.1686 0.7060 0.3696
H14_8 H 0.3904 0.9765 0.0300
Sn4_8 Sn 0.445683(11) 0.889277(14) 0.12546(2)
O6_8 O 0.15830(8) 0.72673(14) 0.0713(3)
Sn2_9 Sn 0.220983(11) 0.444057(8) 0.20788(2)
O1_6 O 0.17209(11) 0.44922(8) 0.3576(3)
O2_9 O 0.21270(13) 0.52315(9) 0.2744(3)
O3_9 O 0.09824(11) 0.49164(8) 0.2621(3)
O4_9 O 0.02245(13) 0.46323(9) 0.3322(3)
O5_9 O 0.04111(14) 0.52202(11) 0.0630(2)
C1_6 C 0.18399(17) 0.49382(12) 0.3615(4)
C2_6 C 0.16446(18) 0.51017(13) 0.4824(4)
H1_6 H 0.1580 0.5353 0.4456
H2_6 H 0.1894 0.5251 0.5575
C3_6 C 0.11928(16) 0.47113(12) 0.5502(4)
C4_4 C 0.12297(18) 0.45392(13) 0.6832(4)
H3_4 H 0.1536 0.4669 0.7271
C5_3 C 0.08325(18) 0.41847(13) 0.7535(4)
H4_4 H 0.0869 0.4071 0.8440
C6_3 C 0.03815(18) 0.39948(13) 0.6925(4)
H5_3 H 0.0107 0.3747 0.7396
C7_6 C 0.03370(17) 0.41716(12) 0.5620(4)
H6_6 H 0.0027 0.4048 0.5208
C8_6 C 0.07333(16) 0.45254(11) 0.4896(4)
C9_6 C 0.06451(17) 0.47041(12) 0.3507(4)
C10_9 C 0.18627(19) 0.44403(13) 0.0171(4)
H9_9 H 0.1556 0.4422 0.0400
C11_6 C 0.28185(18) 0.48360(13) 0.3370(4)
H10_6 H 0.2732 0.4963 0.4203
H11_9 H 0.3067 0.5103 0.2813
H12_6 H 0.2940 0.4627 0.3696
H14_9 H 0.0235 0.4140 0.0300
Sn4_9 Sn 0.110723(14) 0.556407(8) 0.12546(2)
O6_9 O 0.27327(14) 0.43158(11) 0.0713(3)
H13_9 H 0.9696 0.3885 0.9714
O4_10 O 0.79656(9) 0.10744(9) 0.3345(3)
C2_7 C 0.84350(13) 0.01237(12) 0.1843(4)
H1_7 H 0.8686 0.0439 0.2211
H2_7 H 0.8584 0.0023 0.1092
C3_7 C 0.80446(12) 0.01851(11) 0.1165(4)
C7_7 C 0.75049(12) 0.05012(12) 0.1047(4)
H6_7 H 0.7381 0.0687 0.1459
C8_7 C 0.78587(11) 0.04587(11) 0.1771(4)
C9_7 C 0.80374(12) 0.07256(12) 0.3160(4)
C12_8 C 0.73581(12) 0.07915(12) 0.6107(4)
H13_10 H 0.7218 0.0855 0.6953
H14_10 H 0.7473 0.0571 0.6367
H15_8 H 0.7114 0.0646 0.5355
C13_8 C 0.80422(13) 0.19995(12) 0.3959(4)
H16_5 H 0.8138 0.1944 0.3011
H17_8 H 0.8295 0.2306 0.4342
H18_8 H 0.7743 0.2009 0.3874
O1_7 O 0.78255(8) 0.94379(8) 0.3091(3)
O2_10 O 0.85648(9) 0.97711(9) 0.3923(3)
C1_7 C 0.82715(12) 0.97649(12) 0.3052(4)
C10_10 C 0.77736(13) 0.92442(14) 0.6496(4)
H7_8 H 0.7496 0.9026 0.7080
H8_8 H 0.8069 0.9336 0.7031
H9_10 H 0.7755 0.9532 0.6267
C11_7 C 0.81693(13) 0.86841(12) 0.3297(4)
H10_7 H 0.8296 0.8897 0.2464
H11_10 H 0.8436 0.8702 0.3854
H12_7 H 0.7960 0.8353 0.2971
O1_8 O 0.05621(8) 0.83876(11) 0.3091(3)
O2_11 O 0.02289(9) 0.87937(13) 0.3923(3)
C1_8 C 0.02351(12) 0.85066(17) 0.3052(4)
C10_11 C 0.07558(14) 0.85294(19) 0.6496(4)
H7_9 H 0.0974 0.8470 0.7080
H8_9 H 0.0664 0.8733 0.7031
H9_11 H 0.0468 0.8223 0.6267
C11_8 C 0.13159(12) 0.94852(18) 0.3297(4)
H10_8 H 0.1103 0.9399 0.2464
H11_11 H 0.1298 0.9734 0.3854
H12_8 H 0.1647 0.9607 0.2971
O4_11 O 0.89256(9) 0.68912(13) 0.3345(3)
C2_8 C 0.98763(12) 0.83113(18) 0.1843(4)
H1_8 H 0.9561 0.8247 0.2211
H2_8 H 0.9977 0.8561 0.1092
C3_8 C 0.98149(11) 0.78595(16) 0.1165(4)
C7_8 C 0.94988(12) 0.70037(17) 0.1047(4)
H6_8 H 0.9313 0.6694 0.1459
C8_8 C 0.95413(11) 0.74000(16) 0.1771(4)
C9_8 C 0.92744(12) 0.73118(17) 0.3160(4)
C12_9 C 0.92085(12) 0.65666(17) 0.6107(4)
H13_11 H 0.9145 0.6363 0.6953
H14_11 H 0.9429 0.6902 0.6367
H15_9 H 0.9354 0.6468 0.5355
C13_9 C 0.80005(12) 0.60427(18) 0.3959(4)
H16_6 H 0.8056 0.6194 0.3011
H17_9 H 0.7694 0.5989 0.4342
H18_9 H 0.7991 0.5734 0.3874
O1_9 O 0.16124(11) 0.21745(8) 0.3091(3)
O2_12 O 0.12063(13) 0.14352(9) 0.3923(3)
O4_12 O 0.31088(13) 0.20344(9) 0.3345(3)
C1_9 C 0.14934(17) 0.17285(12) 0.3052(4)
C2_9 C 0.16887(18) 0.15650(13) 0.1843(4)
H1_9 H 0.1753 0.1314 0.2211
H2_9 H 0.1439 0.1416 0.1092
C3_9 C 0.21405(16) 0.19554(12) 0.1165(4)
C7_9 C 0.29963(17) 0.24951(12) 0.1047(4)
H6_9 H 0.3306 0.2619 0.1459
C8_9 C 0.26000(16) 0.21413(11) 0.1771(4)
C9_9 C 0.26882(17) 0.19626(12) 0.3160(4)
C10_12 C 0.14706(19) 0.22264(13) 0.6496(4)
H7_10 H 0.1530 0.2504 0.7080
H8_10 H 0.1267 0.1931 0.7031
H9_12 H 0.1777 0.2245 0.6267
C11_9 C 0.05148(18) 0.18307(13) 0.3297(4)
H10_9 H 0.0601 0.1704 0.2464
H11_12 H 0.0266 0.1564 0.3854
H12_9 H 0.0393 0.2040 0.2971
C12_10 C 0.34334(17) 0.26419(12) 0.6107(4)
H13_12 H 0.3637 0.2782 0.6953
H14_12 H 0.3098 0.2527 0.6367
H15_10 H 0.3532 0.2886 0.5355
C13_10 C 0.39573(18) 0.19578(13) 0.3959(4)
H16_7 H 0.3806 0.1862 0.3011
H17_10 H 0.4011 0.1705 0.4342
H18_10 H 0.4266 0.2257 0.3874
O2_13 O 0.18981(9) 0.64378(9) 0.0590(3)
O4_13 O 0.12989(9) 0.77411(9) 0.0012(3)
C10_13 C 0.11069(13) 0.59109(14) 0.3163(4)
H7_11 H 0.0829 0.5693 0.3747
H8_11 H 0.1402 0.6003 0.3698
H9_13 H 0.1088 0.6199 0.2934
H11_13 H 0.1769 0.5369 0.0521
C12_11 C 0.06914(12) 0.74582(12) 0.2774(4)
H13_13 H 0.0551 0.7522 0.3620
H14_13 H 0.0806 0.7238 0.3034
H15_11 H 0.0447 0.7313 0.2022
C13_11 C 0.13755(13) 0.86662(12) 0.0626(4)
H17_11 H 0.1628 0.8973 0.1009
H18_11 H 0.1076 0.8676 0.0541
O2_14 O 0.35622(9) 0.54604(13) 0.0590(3)
O4_14 O 0.22589(9) 0.35579(13) 0.0012(3)
C10_14 C 0.40891(14) 0.51961(19) 0.3163(4)
H7_12 H 0.4307 0.5137 0.3747
H8_12 H 0.3997 0.5400 0.3698
H9_14 H 0.3801 0.4890 0.2934
H11_14 H 0.4631 0.6401 0.0521
C12_12 C 0.25418(12) 0.32333(17) 0.2774(4)
H13_14 H 0.2478 0.3030 0.3620
H14_14 H 0.2762 0.3569 0.3034
H15_12 H 0.2687 0.3135 0.2022
C13_12 C 0.13338(12) 0.27094(18) 0.0626(4)
H17_12 H 0.1027 0.2656 0.1009
H18_12 H 0.1324 0.2401 0.0541
O2_15 O 0.45396(13) 0.81019(9) 0.0590(3)
O4_15 O 0.64421(13) 0.87011(9) 0.0012(3)
C10_15 C 0.48039(19) 0.88931(13) 0.3163(4)
H7_13 H 0.4863 0.9171 0.3747
H8_13 H 0.4600 0.8598 0.3698
H9_15 H 0.5110 0.8912 0.2934
H11_15 H 0.3599 0.8231 0.0521
C12_13 C 0.67667(17) 0.93086(12) 0.2774(4)
H13_15 H 0.6970 0.9449 0.3620
H14_15 H 0.6431 0.9194 0.3034
H15_13 H 0.6865 0.9553 0.2022
C13_13 C 0.72906(18) 0.86245(13) 0.0626(4)
H17_13 H 0.7344 0.8372 0.1009
H18_13 H 0.7599 0.8924 0.0541
H7_14 H 0.4163 0.2359 0.0413
H8_14 H 0.4736 0.2669 0.0364
H13_16 H 0.3885 0.4188 0.0286
O1_10 O 0.44922(8) 0.27712(8) 0.6424(3)
O2_16 O 0.52315(9) 0.31044(9) 0.7256(3)
O4_16 O 0.46323(9) 0.44077(9) 0.6678(3)
C1_10 C 0.49382(12) 0.30982(12) 0.6385(4)
C2_10 C 0.51017(13) 0.34570(12) 0.5176(4)
H1_10 H 0.5353 0.3772 0.5544
H2_10 H 0.5251 0.3356 0.4425
C3_10 C 0.47113(12) 0.35184(11) 0.4498(4)
C4_5 C 0.45392(13) 0.33094(12) 0.3168(4)
H3_5 H 0.4669 0.3132 0.2729
C5_4 C 0.41847(13) 0.33521(12) 0.2465(4)
H4_5 H 0.4071 0.3201 0.1560
C6_4 C 0.39948(13) 0.36132(13) 0.3075(4)
H5_4 H 0.3747 0.3639 0.2604
C7_10 C 0.41716(12) 0.38345(12) 0.4380(4)
H6_10 H 0.4048 0.4020 0.4792
C8_10 C 0.45254(11) 0.37920(11) 0.5104(4)
C9_10 C 0.47041(12) 0.40589(12) 0.6493(4)
C10_16 C 0.44403(13) 0.25775(14) 0.9829(4)
H9_16 H 0.4422 0.2865 0.9600
C11_10 C 0.48360(13) 0.20174(12) 0.6630(4)
H10_10 H 0.4963 0.2230 0.5797
H11_16 H 0.5103 0.2035 0.7187
H12_10 H 0.4627 0.1686 0.6304
C12_14 C 0.40248(12) 0.41248(12) 0.9440(4)
H14_16 H 0.4140 0.3904 0.9700
H15_14 H 0.3781 0.3979 0.8688
C13_14 C 0.47089(13) 0.53328(12) 0.7292(4)
H16_8 H 0.4805 0.5277 0.6344
H17_14 H 0.4962 0.5639 0.7675
H18_14 H 0.4410 0.5342 0.7207
O1_11 O 0.72288(8) 0.17209(11) 0.6424(3)
O2_17 O 0.68956(9) 0.21270(13) 0.7256(3)
O4_17 O 0.55923(9) 0.02245(13) 0.6678(3)
C1_11 C 0.69018(12) 0.18399(17) 0.6385(4)
C2_11 C 0.65430(12) 0.16446(18) 0.5176(4)
H1_11 H 0.6228 0.1580 0.5544
H2_11 H 0.6644 0.1894 0.4425
C3_11 C 0.64816(11) 0.11928(16) 0.4498(4)
C4_6 C 0.66906(12) 0.12297(18) 0.3168(4)
H3_6 H 0.6868 0.1536 0.2729
C5_5 C 0.66479(12) 0.08325(18) 0.2465(4)
H4_6 H 0.6799 0.0869 0.1560
C6_5 C 0.63868(13) 0.03815(18) 0.3075(4)
H5_5 H 0.6361 0.0107 0.2604
C7_11 C 0.61655(12) 0.03370(17) 0.4380(4)
H6_11 H 0.5980 0.0027 0.4792
C8_11 C 0.62080(11) 0.07333(16) 0.5104(4)
C9_11 C 0.59411(12) 0.06451(17) 0.6493(4)
C10_17 C 0.74225(14) 0.18627(19) 0.9829(4)
H9_17 H 0.7135 0.1556 0.9600
C11_11 C 0.79826(12) 0.28185(18) 0.6630(4)
H10_11 H 0.7770 0.2732 0.5797
H11_17 H 0.7965 0.3067 0.7187
H12_11 H 0.8314 0.2940 0.6304
H14_17 H 0.6096 0.0235 0.9700
H13_17 H 0.5812 0.9696 0.0286
H13_18 H 0.0304 0.6115 0.0286
O1_12 O 0.82791(11) 0.55078(8) 0.6424(3)
O2_18 O 0.78730(13) 0.47685(9) 0.7256(3)
O4_18 O 0.97755(13) 0.53677(9) 0.6678(3)
C1_12 C 0.81601(17) 0.50618(12) 0.6385(4)
C2_12 C 0.83554(18) 0.48983(13) 0.5176(4)
H1_12 H 0.8420 0.4647 0.5544
H2_12 H 0.8106 0.4749 0.4425
C3_12 C 0.88072(16) 0.52887(12) 0.4498(4)
C4_7 C 0.87703(18) 0.54608(13) 0.3168(4)
H3_7 H 0.8464 0.5331 0.2729
C5_6 C 0.91675(18) 0.58153(13) 0.2465(4)
H4_7 H 0.9131 0.5929 0.1560
C6_6 C 0.96185(18) 0.60052(13) 0.3075(4)
H5_6 H 0.9893 0.6253 0.2604
C7_12 C 0.96630(17) 0.58284(12) 0.4380(4)
H6_12 H 0.9973 0.5952 0.4792
C8_12 C 0.92667(16) 0.54746(11) 0.5104(4)
C9_12 C 0.93549(17) 0.52959(12) 0.6493(4)
C10_18 C 0.81373(19) 0.55597(13) 0.9829(4)
H9_18 H 0.8444 0.5578 0.9600
C11_12 C 0.71815(18) 0.51640(13) 0.6630(4)
H10_12 H 0.7268 0.5037 0.5797
H11_18 H 0.6933 0.4897 0.7187
H12_12 H 0.7060 0.5373 0.6304
H14_18 H 0.9765 0.5860 0.9700
C5_7 C 0.24820(13) 0.99812(12) 0.0868(4)
C6_7 C 0.26719(13) 0.97201(13) 0.0258(4)
H5_7 H 0.2920 0.9694 0.0729
C5_8 C 0.00188(12) 0.25008(18) 0.0868(4)
C6_8 C 0.02799(13) 0.29518(18) 0.0258(4)
H5_8 H 0.0306 0.3226 0.0729
C4_8 C 0.99761(12) 0.21036(18) 0.0165(4)
H3_8 H 0.9799 0.1797 0.0604
H4_8 H 0.9868 0.2464 0.1773
C4_9 C 0.78964(18) 0.78725(13) 0.0165(4)
H3_9 H 0.8203 0.8002 0.0604
C5_9 C 0.74992(18) 0.75180(13) 0.0868(4)
H4_9 H 0.7536 0.7404 0.1773
C6_9 C 0.70482(18) 0.73281(13) 0.0258(4)
H5_9 H 0.6774 0.7080 0.0729
O1_13 O 0.88412(8) 0.38954(8) 0.0242(3)
C1_13 C 0.83952(12) 0.35684(12) 0.0281(4)
C2_13 C 0.82317(13) 0.32096(12) 0.1490(4)
H1_13 H 0.7981 0.2894 0.1122
H2_13 H 0.8083 0.3310 0.2241
C3_13 C 0.86221(12) 0.31482(11) 0.2168(4)
C4_10 C 0.87942(13) 0.33572(12) 0.3498(4)
H3_10 H 0.8665 0.3534 0.3937
C5_10 C 0.91487(13) 0.33145(12) 0.4201(4)
H4_10 H 0.9263 0.3465 0.5106
C6_10 C 0.93386(13) 0.30534(13) 0.3591(4)
H5_10 H 0.9587 0.3027 0.4062
C7_13 C 0.91618(12) 0.28321(12) 0.2286(4)
H6_13 H 0.9286 0.2646 0.1874
C8_13 C 0.88080(11) 0.28746(11) 0.1562(4)
C9_13 C 0.86293(12) 0.26077(12) 0.0173(4)
C11_13 C 0.84974(13) 0.46492(12) 0.0036(4)
H10_13 H 0.8371 0.4436 0.0869
H12_13 H 0.8707 0.4980 0.0362
H16_9 H 0.8529 0.1389 0.0322
O1_14 O 0.61046(8) 0.49457(11) 0.0242(3)
C1_14 C 0.64316(12) 0.48267(17) 0.0281(4)
C2_14 C 0.67904(12) 0.50220(18) 0.1490(4)
H1_14 H 0.7106 0.5086 0.1122
H2_14 H 0.6690 0.4772 0.2241
C3_14 C 0.68518(11) 0.54738(16) 0.2168(4)
C4_11 C 0.66428(12) 0.54369(18) 0.3498(4)
H3_11 H 0.6466 0.5130 0.3937
C5_11 C 0.66855(12) 0.58341(18) 0.4201(4)
H4_11 H 0.6535 0.5797 0.5106
C6_11 C 0.69466(13) 0.62851(18) 0.3591(4)
H5_11 H 0.6973 0.6559 0.4062
C7_14 C 0.71679(12) 0.63296(17) 0.2286(4)
H6_14 H 0.7354 0.6639 0.1874
C8_14 C 0.71254(11) 0.59333(16) 0.1562(4)
C9_14 C 0.73923(12) 0.60215(17) 0.0173(4)
C11_14 C 0.53508(12) 0.38481(18) 0.0036(4)
H10_14 H 0.5564 0.3934 0.0869
H12_14 H 0.5020 0.3726 0.0362
H16_10 H 0.8611 0.7139 0.0322
O1_15 O 0.50543(11) 0.11588(8) 0.0242(3)
C1_15 C 0.51733(17) 0.16048(12) 0.0281(4)
C2_15 C 0.49780(18) 0.17683(13) 0.1490(4)
H1_15 H 0.4914 0.2019 0.1122
H2_15 H 0.5228 0.1917 0.2241
C3_15 C 0.45262(16) 0.13779(12) 0.2168(4)
C4_12 C 0.45631(18) 0.12058(13) 0.3498(4)
H3_12 H 0.4870 0.1335 0.3937
C5_12 C 0.41659(18) 0.08513(13) 0.4201(4)
H4_12 H 0.4203 0.0737 0.5106
C6_12 C 0.37149(18) 0.06614(13) 0.3591(4)
H5_12 H 0.3441 0.0413 0.4062
C7_15 C 0.36704(17) 0.08382(12) 0.2286(4)
H6_15 H 0.3361 0.0714 0.1874
C8_15 C 0.40667(16) 0.11920(11) 0.1562(4)
C9_15 C 0.39785(17) 0.13707(12) 0.0173(4)
C11_15 C 0.61519(18) 0.15026(13) 0.0036(4)
H10_15 H 0.6066 0.1629 0.0869
H12_15 H 0.6274 0.1293 0.0362
H16_11 H 0.2861 0.1471 0.0322
Sn1_8 Sn 0.477321(8) 0.017044(14) 0.13163(2)
C12_15 C 0.41248(12) 0.01001(17) 0.0560(4)
H15_15 H 0.3979 0.0199 0.1312
C13_15 C 0.53328(12) 0.06240(18) 0.2708(4)
H16_12 H 0.5277 0.0473 0.3656
H17_15 H 0.5639 0.0678 0.2325
H18_15 H 0.5342 0.0933 0.2793
H7_15 H 0.7641 0.1803 0.0413
H8_15 H 0.7331 0.2066 0.0364
H7_16 H 0.2359 0.8197 0.9587
H8_16 H 0.2669 0.7934 0.9636
Sn3_8 Sn 0.522679(8) 0.982956(14) 0.86837(2)
C12_16 C 0.58752(12) 0.98999(17) 0.9440(4)
H15_16 H 0.6021 0.9801 0.8688
C13_16 C 0.46672(12) 0.93760(18) 0.7292(4)
H16_13 H 0.4723 0.9527 0.6344
H17_16 H 0.4361 0.9322 0.7675
H18_16 H 0.4658 0.9067 0.7207
H7_17 H 0.1803 0.4163 0.9587
H8_17 H 0.2066 0.4736 0.9636
Sn3_9 Sn 0.017044(14) 0.539722(11) 0.86837(2)
C12_17 C 0.01001(17) 0.59752(12) 0.9440(4)
H15_17 H 0.0199 0.6219 0.8688
C13_17 C 0.06240(18) 0.52911(13) 0.7292(4)
H16_14 H 0.0473 0.5195 0.6344
H17_17 H 0.0678 0.5038 0.7675
H18_17 H 0.0933 0.5590 0.7207
Sn1_9 Sn 0.982956(14) 0.460278(11) 0.13163(2)
C12_18 C 0.98999(17) 0.40248(12) 0.0560(4)
H15_18 H 0.9801 0.3781 0.1312
C13_18 C 0.93760(18) 0.47089(13) 0.2708(4)
H16_15 H 0.9527 0.4805 0.3656
H17_18 H 0.9322 0.4962 0.2325
H18_18 H 0.9067 0.4410 0.2793
H7_18 H 0.8197 0.5837 0.0413
H8_18 H 0.7934 0.5264 0.0364
C5_13 C 0.75180(13) 0.00188(12) 0.9132(4)
C6_13 C 0.73281(13) 0.02799(13) 0.9742(4)
H5_13 H 0.7080 0.0306 0.9271
C4_13 C 0.78725(13) 0.99761(12) 0.9835(4)
H3_13 H 0.8002 0.9799 0.9396
H4_13 H 0.7404 0.9868 0.8227
C4_14 C 0.00239(12) 0.78964(18) 0.9835(4)
H3_14 H 0.0201 0.8203 0.9396
H4_14 H 0.0132 0.7536 0.8227
C5_14 C 0.99812(12) 0.74992(18) 0.9132(4)
C6_14 C 0.97201(13) 0.70482(18) 0.9742(4)
H5_14 H 0.9694 0.6774 0.9271
C4_15 C 0.21036(18) 0.21275(13) 0.9835(4)
H3_15 H 0.1797 0.1998 0.9396
C5_15 C 0.25008(18) 0.24820(13) 0.9132(4)
H4_15 H 0.2464 0.2596 0.8227
C6_15 C 0.29518(18) 0.26719(13) 0.9742(4)
H5_15 H 0.3226 0.2920 0.9271
O1_16 O 0.11588(8) 0.61046(8) 0.9758(3)
C1_16 C 0.16048(12) 0.64316(12) 0.9719(4)
C2_16 C 0.17683(13) 0.67904(12) 0.8510(4)
H1_16 H 0.2019 0.7106 0.8878
H2_16 H 0.1917 0.6690 0.7759
C3_16 C 0.13779(12) 0.68518(11) 0.7832(4)
C4_16 C 0.12058(13) 0.66428(12) 0.6502(4)
H3_16 H 0.1335 0.6466 0.6063
C5_16 C 0.08513(13) 0.66855(12) 0.5799(4)
H4_16 H 0.0737 0.6535 0.4894
C6_16 C 0.06614(13) 0.69466(13) 0.6409(4)
H5_16 H 0.0413 0.6973 0.5938
C7_16 C 0.08382(12) 0.71679(12) 0.7714(4)
H6_16 H 0.0714 0.7354 0.8126
C8_16 C 0.11920(11) 0.71254(11) 0.8438(4)
C9_16 C 0.13707(12) 0.73923(12) 0.9827(4)
C11_16 C 0.15026(13) 0.53508(12) 0.9964(4)
H10_16 H 0.1629 0.5564 0.9131
H12_16 H 0.1293 0.5020 0.9638
H16_16 H 0.1471 0.8611 0.9678
O1_17 O 0.38954(8) 0.50543(11) 0.9758(3)
C1_17 C 0.35684(12) 0.51733(17) 0.9719(4)
C2_17 C 0.32096(12) 0.49780(18) 0.8510(4)
H1_17 H 0.2894 0.4914 0.8878
H2_17 H 0.3310 0.5228 0.7759
C3_17 C 0.31482(11) 0.45262(16) 0.7832(4)
C4_17 C 0.33572(12) 0.45631(18) 0.6502(4)
H3_17 H 0.3534 0.4870 0.6063
C5_17 C 0.33145(12) 0.41659(18) 0.5799(4)
H4_17 H 0.3465 0.4203 0.4894
C6_17 C 0.30534(13) 0.37149(18) 0.6409(4)
H5_17 H 0.3027 0.3441 0.5938
C7_17 C 0.28321(12) 0.36704(17) 0.7714(4)
H6_17 H 0.2646 0.3361 0.8126
C8_17 C 0.28746(11) 0.40667(16) 0.8438(4)
C9_17 C 0.26077(12) 0.39785(17) 0.9827(4)
C11_17 C 0.46492(12) 0.61519(18) 0.9964(4)
H10_17 H 0.4436 0.6066 0.9131
H12_17 H 0.4980 0.6274 0.9638
H16_17 H 0.1389 0.2861 0.9678
O1_18 O 0.49457(11) 0.88412(8) 0.9758(3)
C1_18 C 0.48267(17) 0.83952(12) 0.9719(4)
C2_18 C 0.50220(18) 0.82317(13) 0.8510(4)
H1_18 H 0.5086 0.7981 0.8878
H2_18 H 0.4772 0.8083 0.7759
C3_18 C 0.54738(16) 0.86221(12) 0.7832(4)
C4_18 C 0.54369(18) 0.87942(13) 0.6502(4)
H3_18 H 0.5130 0.8665 0.6063
C5_18 C 0.58341(18) 0.91487(13) 0.5799(4)
H4_18 H 0.5797 0.9263 0.4894
C6_18 C 0.62851(18) 0.93386(13) 0.6409(4)
H5_18 H 0.6559 0.9587 0.5938
C7_18 C 0.63296(17) 0.91618(12) 0.7714(4)
H6_18 H 0.6639 0.9286 0.8126
C8_18 C 0.59333(16) 0.88080(11) 0.8438(4)
C9_18 C 0.60215(17) 0.86293(12) 0.9827(4)
C11_18 C 0.38481(18) 0.84974(13) 0.9964(4)
H10_18 H 0.3934 0.8371 0.9131
H12_18 H 0.3726 0.8707 0.9638
H16_18 H 0.7139 0.8529 0.9678
loop_
_geom_bond_atom_site_label_1
_geom_bond_atom_site_label_2
_geom_bond_site_symmetry_1
_geom_bond_site_symmetry_2
H3 C4 1_555 1_555
Sn2 O1 1_555 1_555
O1 C1 1_555 1_555
O2 C1 1_555 1_555
C10 Sn2 1_555 1_555
H7 C10 1_555 1_555
H8 C10 1_555 1_555
H9 C10 1_555 1_555
C11 Sn2 1_555 1_555
H10 C11 1_555 1_555
H11 C11 1_555 1_555
H12 C11 1_555 1_555
O6 Sn2 1_555 1_555
O8 Sn2 1_555 1_555
Sn1 O4 1_555 1_555
O3 C9 1_555 1_555
O4 C9 1_555 1_555
O5 Sn1 1_555 1_555
C2 H1 1_555 1_555
H2 C2 1_555 1_555
C3 C2 1_555 1_555
H6 C7 1_555 1_555
C8 C3 1_555 1_555
C9 C8 1_555 1_555
C12 Sn1 1_555 1_555
H13 C12 1_555 1_555
H14 C12 1_555 1_555
H15 C12 1_555 1_555
C13 Sn1 1_555 1_555
H16 C13 1_555 1_555
H17 C13 1_555 1_555
H18 C13 1_555 1_555
Sn3 O5 1_555 1_555
Sn4 O3 1_555 1_555
O7 Sn1 1_555 1_555
O5 Sn4 1_555 1_555
C7 C8 1_555 1_555
Sn3 O7 1_555 1_555
Sn1_2 O4_2 1_555 1_555
O3_2 C9_2 1_555 1_555
O4_2 C9_2 1_555 1_555
O5_2 Sn1_2 1_555 1_555
C2_2 H1_2 1_555 1_555
H2_2 C2_2 1_555 1_555
C3_2 C2_2 1_555 1_555
H6_2 C7_2 1_555 1_555
C8_2 C3_2 1_555 1_555
C9_2 C8_2 1_555 1_555
C12_2 Sn1_2 1_555 1_555
H13_2 C12_2 1_555 1_555
H14_2 C12_2 1_555 1_555
H15_2 C12_2 1_555 1_555
C13_2 Sn1_2 1_555 1_555
H16_2 C13_2 1_555 1_555
H17_2 C13_2 1_555 1_555
H18_2 C13_2 1_555 1_555
Sn3_2 O5_2 1_555 1_555
Sn4_2 O3_2 1_555 1_555
O7_2 Sn1_2 1_555 1_555
O5_2 Sn4_2 1_555 1_555
C7_2 C8_2 1_555 1_555
Sn3_2 O7_2 1_555 1_555
Sn2_2 O1_2 1_555 1_555
O1_2 C1_2 1_555 1_555
O2_2 C1_2 1_555 1_555
C10_2 Sn2_2 1_555 1_555
H7_2 C10_2 1_555 1_555
H8_2 C10_2 1_555 1_555
H9_2 C10_2 1_555 1_555
C11_2 Sn2_2 1_555 1_555
H10_2 C11_2 1_555 1_555
H11_2 C11_2 1_555 1_555
H12_2 C11_2 1_555 1_555
O6_2 Sn2_2 1_555 1_555
O8_2 Sn2_2 1_555 1_555
Sn1_3 O4_3 1_555 1_555
Sn2_3 O1_3 1_555 1_555
O1_3 C1_3 1_555 1_555
O2_3 C1_3 1_555 1_555
O3_3 C9_3 1_555 1_555
O4_3 C9_3 1_555 1_555
O5_3 Sn1_3 1_555 1_555
C1_3 C2_3 1_555 1_555
C2_3 H1_3 1_555 1_555
H2_3 C2_3 1_555 1_555
C3_3 C2_3 1_555 1_555
H6_3 C7_3 1_555 1_555
C8_3 C3_3 1_555 1_555
C9_3 C8_3 1_555 1_555
C10_3 Sn2_3 1_555 1_555
H7_3 C10_3 1_555 1_555
H8_3 C10_3 1_555 1_555
H9_3 C10_3 1_555 1_555
C11_3 Sn2_3 1_555 1_555
H10_3 C11_3 1_555 1_555
H11_3 C11_3 1_555 1_555
H12_3 C11_3 1_555 1_555
C12_3 Sn1_3 1_555 1_555
H13_3 C12_3 1_555 1_555
H14_3 C12_3 1_555 1_555
H15_3 C12_3 1_555 1_555
C13_3 Sn1_3 1_555 1_555
H16_3 C13_3 1_555 1_555
H17_3 C13_3 1_555 1_555
H18_3 C13_3 1_555 1_555
Sn3_3 O5_3 1_555 1_555
Sn4_3 O3_3 1_555 1_555
O6_3 Sn2_3 1_555 1_555
O7_3 Sn1_3 1_555 1_555
O8_3 Sn2_3 1_555 1_555
O5_3 Sn4_3 1_555 1_555
C7_3 C8_3 1_555 1_555
Sn3_3 O7_3 1_555 1_555
Sn1_4 O4_4 1_555 1_555
O5_4 Sn1_4 1_555 1_555
C10_4 Sn2_4 1_555 1_555
H7_4 C10_4 1_555 1_555
H8_4 C10_4 1_555 1_555
H9_4 C10_4 1_555 1_555
C12_4 Sn1_4 1_555 1_555
H13_4 C12_4 1_555 1_555
H14_4 C12_4 1_555 1_555
H15_4 C12_4 1_555 1_555
C13_4 Sn1_4 1_555 1_555
H17_4 C13_4 1_555 1_555
H18_4 C13_4 1_555 1_555
Sn3_4 O5_4 1_555 1_555
Sn4_4 O3_4 1_555 1_555
O6_4 Sn2_4 1_555 1_555
O8_2 Sn1_4 1_555 1_555
O8_4 Sn2_4 1_555 1_555
O5_4 Sn4_4 1_555 1_555
Sn3_4 O8_2 1_555 1_555
Sn1_5 O4_5 1_555 1_555
O5_5 Sn1_5 1_555 1_555
C10_5 Sn2_5 1_555 1_555
H7_5 C10_5 1_555 1_555
H8_5 C10_5 1_555 1_555
H9_5 C10_5 1_555 1_555
C12_5 Sn1_5 1_555 1_555
H13_5 C12_5 1_555 1_555
H14_5 C12_5 1_555 1_555
H15_5 C12_5 1_555 1_555
C13_5 Sn1_5 1_555 1_555
H17_5 C13_5 1_555 1_555
H18_5 C13_5 1_555 1_555
Sn3_5 O5_5 1_555 1_555
Sn4_5 O3_5 1_555 1_555
O6_5 Sn2_5 1_555 1_555
O8_3 Sn1_5 1_555 1_555
O8_5 Sn2_5 1_555 1_555
O5_5 Sn4_5 1_555 1_555
Sn3_5 O8_3 1_555 1_555
Sn1_6 O4_6 1_555 1_555
O5_6 Sn1_6 1_555 1_555
C10_6 Sn2_6 1_555 1_555
H7_6 C10_6 1_555 1_555
H8_6 C10_6 1_555 1_555
H9_6 C10_6 1_555 1_555
C12_6 Sn1_6 1_555 1_555
H13_6 C12_6 1_555 1_555
H14_6 C12_6 1_555 1_555
H15_6 C12_6 1_555 1_555
C13_6 Sn1_6 1_555 1_555
H17_6 C13_6 1_555 1_555
H18_6 C13_6 1_555 1_555
Sn3_6 O5_6 1_555 1_555
Sn4_6 O3_6 1_555 1_555
O6_6 Sn2_6 1_555 1_555
O8 Sn1_6 1_555 1_555
O8_6 Sn2_6 1_555 1_555
O5_6 Sn4_6 1_555 1_555
Sn3_6 O8 1_555 1_555
Sn1_7 O4_7 1_555 1_555
Sn2_7 O1_4 1_555 1_555
O1_4 C1_4 1_555 1_555
O2_7 C1_4 1_555 1_555
O3_7 C9_4 1_555 1_555
O4_7 C9_4 1_555 1_555
O5_7 Sn1_7 1_555 1_555
C1_4 C2_4 1_555 1_555
C2_4 H1_4 1_555 1_555
H2_4 C2_4 1_555 1_555
C3_4 C2_4 1_555 1_555
C4_2 C3_4 1_555 1_555
H3_2 C4_2 1_555 1_555
C5 C4_2 1_555 1_555
H4_2 C5 1_555 1_555
C6 C5 1_555 1_555
H5 C6 1_555 1_555
C7_4 C6 1_555 1_555
H6_4 C7_4 1_555 1_555
C8_4 C3_4 1_555 1_555
C9_4 C8_4 1_555 1_555
C10_7 Sn2_7 1_555 1_555
H9_7 C10_7 1_555 1_555
C11_4 Sn2_7 1_555 1_555
H10_4 C11_4 1_555 1_555
H11_7 C11_4 1_555 1_555
H12_4 C11_4 1_555 1_555
C12_7 Sn1_7 1_555 1_555
H14_7 C12_7 1_555 1_555
H15_7 C12_7 1_555 1_555
C13_7 Sn1_7 1_555 1_555
H16_4 C13_7 1_555 1_555
H17_7 C13_7 1_555 1_555
H18_7 C13_7 1_555 1_555
Sn4_7 O3_7 1_555 1_555
O6_7 Sn2_7 1_555 1_555
O7_3 Sn2_7 1_555 1_555
O5_7 Sn4_7 1_555 1_555
C7_4 C8_4 1_555 1_555
Sn3_7 O8_5 1_555 1_555
Sn2_8 O1_5 1_555 1_555
O1_5 C1_5 1_555 1_555
O2_8 C1_5 1_555 1_555
O3_8 C9_5 1_555 1_555
O4_8 C9_5 1_555 1_555
C1_5 C2_5 1_555 1_555
C2_5 H1_5 1_555 1_555
H2_5 C2_5 1_555 1_555
C3_5 C2_5 1_555 1_555
C4_3 C3_5 1_555 1_555
H3_3 C4_3 1_555 1_555
C5_2 C4_3 1_555 1_555
H4_3 C5_2 1_555 1_555
C6_2 C5_2 1_555 1_555
H5_2 C6_2 1_555 1_555
C7_5 C6_2 1_555 1_555
H6_5 C7_5 1_555 1_555
C8_5 C3_5 1_555 1_555
C9_5 C8_5 1_555 1_555
C10_8 Sn2_8 1_555 1_555
H9_8 C10_8 1_555 1_555
C11_5 Sn2_8 1_555 1_555
H10_5 C11_5 1_555 1_555
H11_8 C11_5 1_555 1_555
H12_5 C11_5 1_555 1_555
Sn4_8 O3_8 1_555 1_555
O6_8 Sn2_8 1_555 1_555
O7 Sn2_8 1_555 1_555
O5_8 Sn4_8 1_555 1_555
C7_5 C8_5 1_555 1_555
Sn2_9 O1_6 1_555 1_555
O1_6 C1_6 1_555 1_555
O2_9 C1_6 1_555 1_555
O3_9 C9_6 1_555 1_555
O4_9 C9_6 1_555 1_555
C1_6 C2_6 1_555 1_555
C2_6 H1_6 1_555 1_555
H2_6 C2_6 1_555 1_555
C3_6 C2_6 1_555 1_555
C4_4 C3_6 1_555 1_555
H3_4 C4_4 1_555 1_555
C5_3 C4_4 1_555 1_555
H4_4 C5_3 1_555 1_555
C6_3 C5_3 1_555 1_555
H5_3 C6_3 1_555 1_555
C7_6 C6_3 1_555 1_555
H6_6 C7_6 1_555 1_555
C8_6 C3_6 1_555 1_555
C9_6 C8_6 1_555 1_555
C10_9 Sn2_9 1_555 1_555
H9_9 C10_9 1_555 1_555
C11_6 Sn2_9 1_555 1_555
H10_6 C11_6 1_555 1_555
H11_9 C11_6 1_555 1_555
H12_6 C11_6 1_555 1_555
Sn4_9 O3_9 1_555 1_555
O6_9 Sn2_9 1_555 1_555
O7_2 Sn2_9 1_555 1_555
O5_9 Sn4_9 1_555 1_555
C7_6 C8_6 1_555 1_555
Sn3_4 O4_10 1_555 1_555
O6_2 C9_7 1_555 1_555
O4_10 C9_7 1_555 1_555
C2_7 H1_7 1_555 1_555
H2_7 C2_7 1_555 1_555
C3_7 C2_7 1_555 1_555
H6_7 C7_7 1_555 1_555
C8_7 C3_7 1_555 1_555
C9_7 C8_7 1_555 1_555
C12_8 Sn3_4 1_555 1_555
H13_10 C12_8 1_555 1_555
H14_10 C12_8 1_555 1_555
H15_8 C12_8 1_555 1_555
C13_8 Sn3_4 1_555 1_555
H16_5 C13_8 1_555 1_555
H17_8 C13_8 1_555 1_555
H18_8 C13_8 1_555 1_555
C7_7 C8_7 1_555 1_555
Sn4_3 O1_7 1_555 1_555
O1_7 C1_7 1_555 1_555
O2_10 C1_7 1_555 1_555
C10_10 Sn4_3 1_555 1_555
H7_8 C10_10 1_555 1_555
H8_8 C10_10 1_555 1_555
H9_10 C10_10 1_555 1_555
C11_7 Sn4_3 1_555 1_555
H10_7 C11_7 1_555 1_555
H11_10 C11_7 1_555 1_555
H12_7 C11_7 1_555 1_555
Sn4 O1_8 1_555 1_555
O1_8 C1_8 1_555 1_555
O2_11 C1_8 1_555 1_555
C10_11 Sn4 1_555 1_555
H7_9 C10_11 1_555 1_555
H8_9 C10_11 1_555 1_555
H9_11 C10_11 1_555 1_555
C11_8 Sn4 1_555 1_555
H10_8 C11_8 1_555 1_555
H11_11 C11_8 1_555 1_555
H12_8 C11_8 1_555 1_555
Sn3_5 O4_11 1_555 1_555
O6_3 C9_8 1_555 1_555
O4_11 C9_8 1_555 1_555
C2_8 H1_8 1_555 1_555
H2_8 C2_8 1_555 1_555
C3_8 C2_8 1_555 1_555
H6_8 C7_8 1_555 1_555
C8_8 C3_8 1_555 1_555
C9_8 C8_8 1_555 1_555
C12_9 Sn3_5 1_555 1_555
H13_11 C12_9 1_555 1_555
H14_11 C12_9 1_555 1_555
H15_9 C12_9 1_555 1_555
C13_9 Sn3_5 1_555 1_555
H16_6 C13_9 1_555 1_555
H17_9 C13_9 1_555 1_555
H18_9 C13_9 1_555 1_555
C7_8 C8_8 1_555 1_555
Sn3_6 O4_12 1_555 1_555
Sn4_2 O1_9 1_555 1_555
O1_9 C1_9 1_555 1_555
O2_12 C1_9 1_555 1_555
O6 C9_9 1_555 1_555
O4_12 C9_9 1_555 1_555
C1_9 C2_9 1_555 1_555
C2_9 H1_9 1_555 1_555
H2_9 C2_9 1_555 1_555
C3_9 C2_9 1_555 1_555
H6_9 C7_9 1_555 1_555
C8_9 C3_9 1_555 1_555
C9_9 C8_9 1_555 1_555
C10_12 Sn4_2 1_555 1_555
H7_10 C10_12 1_555 1_555
H8_10 C10_12 1_555 1_555
H9_12 C10_12 1_555 1_555
C11_9 Sn4_2 1_555 1_555
H10_9 C11_9 1_555 1_555
H11_12 C11_9 1_555 1_555
H12_9 C11_9 1_555 1_555
C12_10 Sn3_6 1_555 1_555
H13_12 C12_10 1_555 1_555
H14_12 C12_10 1_555 1_555
H15_10 C12_10 1_555 1_555
C13_10 Sn3_6 1_555 1_555
H16_7 C13_10 1_555 1_555
H17_10 C13_10 1_555 1_555
H18_10 C13_10 1_555 1_555
C7_9 C8_9 1_555 1_555
Sn3 O4_13 1_555 1_555
C10_13 Sn4_9 1_555 1_555
H7_11 C10_13 1_555 1_555
H8_11 C10_13 1_555 1_555
H9_13 C10_13 1_555 1_555
C12_11 Sn3 1_555 1_555
H13_13 C12_11 1_555 1_555
H14_13 C12_11 1_555 1_555
H15_11 C12_11 1_555 1_555
C13_11 Sn3 1_555 1_555
H17_11 C13_11 1_555 1_555
H18_11 C13_11 1_555 1_555
Sn3_2 O4_14 1_555 1_555
C10_14 Sn4_7 1_555 1_555
H7_12 C10_14 1_555 1_555
H8_12 C10_14 1_555 1_555
H9_14 C10_14 1_555 1_555
C12_12 Sn3_2 1_555 1_555
H13_14 C12_12 1_555 1_555
H14_14 C12_12 1_555 1_555
H15_12 C12_12 1_555 1_555
C13_12 Sn3_2 1_555 1_555
H17_12 C13_12 1_555 1_555
H18_12 C13_12 1_555 1_555
Sn3_3 O4_15 1_555 1_555
C10_15 Sn4_8 1_555 1_555
H7_13 C10_15 1_555 1_555
H8_13 C10_15 1_555 1_555
H9_15 C10_15 1_555 1_555
C12_13 Sn3_3 1_555 1_555
H13_15 C12_13 1_555 1_555
H14_15 C12_13 1_555 1_555
H15_13 C12_13 1_555 1_555
C13_13 Sn3_3 1_555 1_555
H17_13 C13_13 1_555 1_555
H18_13 C13_13 1_555 1_555
Sn3_7 O4_16 1_555 1_555
Sn4_6 O1_10 1_555 1_555
O1_10 C1_10 1_555 1_555
O2_16 C1_10 1_555 1_555
O6_5 C9_10 1_555 1_555
O4_16 C9_10 1_555 1_555
C1_10 C2_10 1_555 1_555
C2_10 H1_10 1_555 1_555
H2_10 C2_10 1_555 1_555
C3_10 C2_10 1_555 1_555
C4_5 C3_10 1_555 1_555
H3_5 C4_5 1_555 1_555
C5_4 C4_5 1_555 1_555
H4_5 C5_4 1_555 1_555
C6_4 C5_4 1_555 1_555
H5_4 C6_4 1_555 1_555
C7_10 C6_4 1_555 1_555
H6_10 C7_10 1_555 1_555
C8_10 C3_10 1_555 1_555
C9_10 C8_10 1_555 1_555
C10_16 Sn4_6 1_555 1_555
H9_16 C10_16 1_555 1_555
C11_10 Sn4_6 1_555 1_555
H10_10 C11_10 1_555 1_555
H11_16 C11_10 1_555 1_555
H12_10 C11_10 1_555 1_555
C12_14 Sn3_7 1_555 1_555
H14_16 C12_14 1_555 1_555
H15_14 C12_14 1_555 1_555
C13_14 Sn3_7 1_555 1_555
H16_8 C13_14 1_555 1_555
H17_14 C13_14 1_555 1_555
H18_14 C13_14 1_555 1_555
C7_10 C8_10 1_555 1_555
Sn4_4 O1_11 1_555 1_555
O1_11 C1_11 1_555 1_555
O2_17 C1_11 1_555 1_555
O6_6 C9_11 1_555 1_555
O4_17 C9_11 1_555 1_555
C1_11 C2_11 1_555 1_555
C2_11 H1_11 1_555 1_555
H2_11 C2_11 1_555 1_555
C3_11 C2_11 1_555 1_555
C4_6 C3_11 1_555 1_555
H3_6 C4_6 1_555 1_555
C5_5 C4_6 1_555 1_555
H4_6 C5_5 1_555 1_555
C6_5 C5_5 1_555 1_555
H5_5 C6_5 1_555 1_555
C7_11 C6_5 1_555 1_555
H6_11 C7_11 1_555 1_555
C8_11 C3_11 1_555 1_555
C9_11 C8_11 1_555 1_555
C10_17 Sn4_4 1_555 1_555
H9_17 C10_17 1_555 1_555
C11_11 Sn4_4 1_555 1_555
H10_11 C11_11 1_555 1_555
H11_17 C11_11 1_555 1_555
H12_11 C11_11 1_555 1_555
C7_11 C8_11 1_555 1_555
Sn4_5 O1_12 1_555 1_555
O1_12 C1_12 1_555 1_555
O2_18 C1_12 1_555 1_555
O6_4 C9_12 1_555 1_555
O4_18 C9_12 1_555 1_555
C1_12 C2_12 1_555 1_555
C2_12 H1_12 1_555 1_555
H2_12 C2_12 1_555 1_555
C3_12 C2_12 1_555 1_555
C4_7 C3_12 1_555 1_555
H3_7 C4_7 1_555 1_555
C5_6 C4_7 1_555 1_555
H4_7 C5_6 1_555 1_555
C6_6 C5_6 1_555 1_555
H5_6 C6_6 1_555 1_555
C7_12 C6_6 1_555 1_555
H6_12 C7_12 1_555 1_555
C8_12 C3_12 1_555 1_555
C9_12 C8_12 1_555 1_555
C10_18 Sn4_5 1_555 1_555
H9_18 C10_18 1_555 1_555
C11_12 Sn4_5 1_555 1_555
H10_12 C11_12 1_555 1_555
H11_18 C11_12 1_555 1_555
H12_12 C11_12 1_555 1_555
C7_12 C8_12 1_555 1_555
C6_7 C5_7 1_555 1_555
H5_7 C6_7 1_555 1_555
C6_8 C5_8 1_555 1_555
H5_8 C6_8 1_555 1_555
H3_8 C4_8 1_555 1_555
H3_9 C4_9 1_555 1_555
C5_9 C4_9 1_555 1_555
H4_9 C5_9 1_555 1_555
C6_9 C5_9 1_555 1_555
H5_9 C6_9 1_555 1_555
O1_13 C1_13 1_555 1_555
C1_13 C2_13 1_555 1_555
C2_13 H1_13 1_555 1_555
H2_13 C2_13 1_555 1_555
C3_13 C2_13 1_555 1_555
C4_10 C3_13 1_555 1_555
H3_10 C4_10 1_555 1_555
C5_10 C4_10 1_555 1_555
H4_10 C5_10 1_555 1_555
C6_10 C5_10 1_555 1_555
H5_10 C6_10 1_555 1_555
C7_13 C6_10 1_555 1_555
H6_13 C7_13 1_555 1_555
C8_13 C3_13 1_555 1_555
C9_13 C8_13 1_555 1_555
H10_13 C11_13 1_555 1_555
H12_13 C11_13 1_555 1_555
C7_13 C8_13 1_555 1_555
O1_14 C1_14 1_555 1_555
C1_14 C2_14 1_555 1_555
C2_14 H1_14 1_555 1_555
H2_14 C2_14 1_555 1_555
C3_14 C2_14 1_555 1_555
C4_11 C3_14 1_555 1_555
H3_11 C4_11 1_555 1_555
C5_11 C4_11 1_555 1_555
H4_11 C5_11 1_555 1_555
C6_11 C5_11 1_555 1_555
H5_11 C6_11 1_555 1_555
C7_14 C6_11 1_555 1_555
H6_14 C7_14 1_555 1_555
C8_14 C3_14 1_555 1_555
C9_14 C8_14 1_555 1_555
H10_14 C11_14 1_555 1_555
H12_14 C11_14 1_555 1_555
C7_14 C8_14 1_555 1_555
O1_15 C1_15 1_555 1_555
C1_15 C2_15 1_555 1_555
C2_15 H1_15 1_555 1_555
H2_15 C2_15 1_555 1_555
C3_15 C2_15 1_555 1_555
C4_12 C3_15 1_555 1_555
H3_12 C4_12 1_555 1_555
C5_12 C4_12 1_555 1_555
H4_12 C5_12 1_555 1_555
C6_12 C5_12 1_555 1_555
H5_12 C6_12 1_555 1_555
C7_15 C6_12 1_555 1_555
H6_15 C7_15 1_555 1_555
C8_15 C3_15 1_555 1_555
C9_15 C8_15 1_555 1_555
H10_15 C11_15 1_555 1_555
H12_15 C11_15 1_555 1_555
C7_15 C8_15 1_555 1_555
C12_15 Sn1_8 1_555 1_555
H15_15 C12_15 1_555 1_555
C13_15 Sn1_8 1_555 1_555
H16_12 C13_15 1_555 1_555
H17_15 C13_15 1_555 1_555
H18_15 C13_15 1_555 1_555
C12_16 Sn3_8 1_555 1_555
H15_16 C12_16 1_555 1_555
C13_16 Sn3_8 1_555 1_555
H16_13 C13_16 1_555 1_555
H17_16 C13_16 1_555 1_555
H18_16 C13_16 1_555 1_555
C12_17 Sn3_9 1_555 1_555
H15_17 C12_17 1_555 1_555
C13_17 Sn3_9 1_555 1_555
H16_14 C13_17 1_555 1_555
H17_17 C13_17 1_555 1_555
H18_17 C13_17 1_555 1_555
C12_18 Sn1_9 1_555 1_555
H15_18 C12_18 1_555 1_555
C13_18 Sn1_9 1_555 1_555
H16_15 C13_18 1_555 1_555
H17_18 C13_18 1_555 1_555
H18_18 C13_18 1_555 1_555
C6_13 C5_13 1_555 1_555
H5_13 C6_13 1_555 1_555
H3_13 C4_13 1_555 1_555
H3_14 C4_14 1_555 1_555
C6_14 C5_14 1_555 1_555
H5_14 C6_14 1_555 1_555
H3_15 C4_15 1_555 1_555
C5_15 C4_15 1_555 1_555
H4_15 C5_15 1_555 1_555
C6_15 C5_15 1_555 1_555
H5_15 C6_15 1_555 1_555
O1_16 C1_16 1_555 1_555
C1_16 C2_16 1_555 1_555
C2_16 H1_16 1_555 1_555
H2_16 C2_16 1_555 1_555
C3_16 C2_16 1_555 1_555
C4_16 C3_16 1_555 1_555
H3_16 C4_16 1_555 1_555
C5_16 C4_16 1_555 1_555
H4_16 C5_16 1_555 1_555
C6_16 C5_16 1_555 1_555
H5_16 C6_16 1_555 1_555
C7_16 C6_16 1_555 1_555
H6_16 C7_16 1_555 1_555
C8_16 C3_16 1_555 1_555
C9_16 C8_16 1_555 1_555
H10_16 C11_16 1_555 1_555
H12_16 C11_16 1_555 1_555
C7_16 C8_16 1_555 1_555
O1_17 C1_17 1_555 1_555
C1_17 C2_17 1_555 1_555
C2_17 H1_17 1_555 1_555
H2_17 C2_17 1_555 1_555
C3_17 C2_17 1_555 1_555
C4_17 C3_17 1_555 1_555
H3_17 C4_17 1_555 1_555
C5_17 C4_17 1_555 1_555
H4_17 C5_17 1_555 1_555
C6_17 C5_17 1_555 1_555
H5_17 C6_17 1_555 1_555
C7_17 C6_17 1_555 1_555
H6_17 C7_17 1_555 1_555
C8_17 C3_17 1_555 1_555
C9_17 C8_17 1_555 1_555
H10_17 C11_17 1_555 1_555
H12_17 C11_17 1_555 1_555
C7_17 C8_17 1_555 1_555
O1_18 C1_18 1_555 1_555
C1_18 C2_18 1_555 1_555
C2_18 H1_18 1_555 1_555
H2_18 C2_18 1_555 1_555
C3_18 C2_18 1_555 1_555
C4_18 C3_18 1_555 1_555
H3_18 C4_18 1_555 1_555
C5_18 C4_18 1_555 1_555
H4_18 C5_18 1_555 1_555
C6_18 C5_18 1_555 1_555
H5_18 C6_18 1_555 1_555
C7_18 C6_18 1_555 1_555
H6_18 C7_18 1_555 1_555
C8_18 C3_18 1_555 1_555
C9_18 C8_18 1_555 1_555
H10_18 C11_18 1_555 1_555
H12_18 C11_18 1_555 1_555
C7_18 C8_18 1_555 1_555

#END
