
###############################################################################
#
# This file contains modified crystal structure data generated from the
# MOF subset of the Cambridge Structural Database (CSD) v543 
# hosted by the Cambridge Crystallographic Data Centre (CCDC).
#
# This work is licensed under the Creative Commons
# Attribution-NonCommercial-ShareAlike 4.0 International License.
# To view a copy of this license, visit
# http://creativecommons.org/licenses/by-nc-sa/4.0/
# or send a letter to
# Creative Commons, PO Box 1866, Mountain View, CA 94042, USA.
#
# CIF created using the CSD Python API on 29 September 2022
# The structure has been converted into the P1 space group
# The structure has a 3D framework
# The original CSD entry HOXKIP is in the monoclinic crystal system
# The framework has been calculated to contain at least 10.0% void space
# The void calculation uses a probe of radius 1.32A, grid spacing 0.4
# H atom positions have been added when not included in the experimental data
#
###############################################################################

data_HOXKIP
_chemical_formula_moiety         '(C84 H60 Eu8 O56 S12)n'
_symmetry_cell_setting           triclinic
_symmetry_space_group_name_H-M   'P 1'
_symmetry_Int_Tables_number      1
_space_group_name_Hall           'P 1'
loop_
_symmetry_equiv_pos_site_id
_symmetry_equiv_pos_as_xyz
1 x,y,z
_cell_length_a                   17.219(5)
_cell_length_b                   10.692(3)
_cell_length_c                   17.855(6)
_cell_angle_alpha                90
_cell_angle_beta                 104.852(5)
_cell_angle_gamma                90
_cell_volume                     3177.38
loop_
_atom_site_label
_atom_site_type_symbol
_atom_site_fract_x
_atom_site_fract_y
_atom_site_fract_z
Eu1 Eu 0.07571(3) 0.13013(5) 0.48426(3)
S3 S 0.09384(15) 0.2226(3) 0.24909(17)
O10 O 0.0813(4) 0.4214(8) 0.0655(4)
O11 O 0.2831(4) 0.1204(8) 0.4100(4)
O12 O 0.1540(4) 0.0958(6) 0.3990(4)
C13 C 0.0604(7) 0.3443(11) 0.1125(7)
C14 C 0.1225(6) 0.3021(11) 0.1781(6)
C15 C 0.2031(7) 0.3094(12) 0.1917(7)
H5 H 0.2292 0.3506 0.1592
C16 C 0.2440(6) 0.2474(12) 0.2610(8)
H6 H 0.2995 0.2406 0.2782
C17 C 0.1901(5) 0.1976(11) 0.3002(6)
C18 C 0.2097(6) 0.1358(12) 0.3751(6)
O14 O 0.0762(4) 0.3405(7) 0.4307(4)
C20 C 0.0118(8) 0.4237(17) 0.3993(13)
Eu8 Eu 0.38939(3) 0.07293(5) 0.51434(3)
O17 O 0.1950(4) 0.2267(7) 0.5523(4)
O21 O 0.0344(4) 0.2492(7) 0.5826(4)
H11 H 0.0354418 0.509762 0.381096
Eu7 Eu 0.11061(3) 0.57293(5) 0.98566(3)
O5 O 0.0467(4) 0.6899(7) 0.0692(4)
O7 O 0.0199(3) 0.9335(7) 0.4270(4)
C7 C 0.0041(6) 0.6632(10) 0.1152(6)
C8 C 0.0147(6) 0.7385(10) 0.1874(6)
C9 C 0.0516(6) 0.8539(12) 0.2049(6)
H3 H 0.0736 0.8985 0.1706
C10 C 0.0527(6) 0.8962(10) 0.2779(6)
H4 H 0.0766 0.9709 0.2986
C11 C 0.0150(6) 0.8170(11) 0.3161(6)
C12 C 0.0019(6) 0.8332(11) 0.3908(6)
O16 O 0.1445(4) 0.9763(7) 0.5754(4)
Eu2 Eu 0.88939(3) 0.42707(5) 0.01434(3)
S1 S 0.85861(17) 0.2379(3) 0.24857(18)
O1 O 0.9478(4) 0.1620(7) 0.4043(5)
O2 O 0.8555(4) 0.0237(7) 0.4246(4)
O3 O 0.8170(4) 0.3582(9) 0.0958(5)
O4 O 0.6950(4) 0.2733(7) 0.0523(4)
O9 O 0.9894(4) 0.3138(7) 0.1057(4)
C1 C 0.8820(7) 0.1082(11) 0.3862(7)
C2 C 0.8269(6) 0.1364(12) 0.3080(7)
C3 C 0.7504(7) 0.0959(12) 0.2788(6)
H1 H 0.7217 0.0448 0.3042
C4 C 0.7218(7) 0.1445(12) 0.2030(7)
H2 H 0.6706 0.1257 0.1728
C5 C 0.7723(6) 0.2197(11) 0.1763(6)
C6 C 0.7596(7) 0.2913(11) 0.1034(7)
O13 O 0.7851(4) 0.5881(6) 0.0198(5)
C19 C 0.7905(15) 0.7191(11) 0.0345(16)
O15 O 0.8643(7) 0.1633(11) 0.0017(8)
C21 C 0.9075(11) 0.0608(16) 0.0420(12)
O19 O 0.9540(4) 0.5765(7) 0.1071(4)
O20 O 0.9801(3) 0.0665(7) 0.5730(4)
H8 H 0.730917 0.756163 0.0317122
H9 H 0.829815 0.736117 0.0918949
H10 H 0.979962 0.445024 0.443161
H12 H 0.97061 0.380117 0.349563
H13 H 0.910045 0.0685853 0.103396
H15 H 0.968264 0.060842 0.0344012
Eu4 Eu 0.57571(3) 0.36987(5) 0.98426(3)
O18 O 0.9533(4) 0.3101(7) 0.9308(4)
O22 O 0.9187(4) 0.5786(8) 0.9345(4)
O23 O 0.7831(4) 0.3796(8) 0.9100(4)
H7 H 0.814899 0.765225 0.991137
S2 S 0.97979(17) 0.6872(3) 0.26044(18)
O8 O 0.9656(4) 0.7508(7) 0.4174(4)
Eu3 Eu 0.92429(3) 0.86987(5) 0.51574(3)
H14 H 0.877475 0.973999 0.019253
O13_2 O 0.7149(4) 0.0881(6) 0.4802(5)
C19_2 C 0.7095(15) 0.2191(11) 0.4655(16)
O19_2 O 0.5460(4) 0.0765(7) 0.3929(4)
O22_2 O 0.5813(4) 0.0786(8) 0.5655(4)
H7_2 H 0.685101 0.265225 0.508863
H8_2 H 0.769083 0.256163 0.468288
H9_2 H 0.670185 0.236117 0.408105
H11_2 H 0.464558 0.00976245 0.118904
Eu1_2 Eu 0.42429(3) 0.63013(5) 0.01574(3)
Eu2_2 Eu 0.61061(3) 0.92707(5) 0.48566(3)
S1_2 S 0.64139(17) 0.7379(3) 0.25143(18)
S2_2 S 0.52021(17) 0.1872(3) 0.23956(18)
S3_2 S 0.40616(15) 0.7226(3) 0.25091(17)
O1_2 O 0.5522(4) 0.6620(7) 0.0957(5)
O2_2 O 0.6445(4) 0.5237(7) 0.0754(4)
O3_2 O 0.6830(4) 0.8582(9) 0.4042(5)
O4_2 O 0.8050(4) 0.7733(7) 0.4477(4)
O5_2 O 0.4533(4) 0.1899(7) 0.4308(4)
O7_2 O 0.4801(3) 0.4335(7) 0.0730(4)
O8_2 O 0.5344(4) 0.2508(7) 0.0826(4)
O9_2 O 0.5106(4) 0.8138(7) 0.3943(4)
O10_2 O 0.4187(4) 0.9214(8) 0.4345(4)
O11_2 O 0.2169(4) 0.6204(8) 0.0900(4)
O12_2 O 0.3460(4) 0.5958(6) 0.1010(4)
C1_2 C 0.6180(7) 0.6082(11) 0.1138(7)
C2_2 C 0.6731(6) 0.6364(12) 0.1920(7)
C3_2 C 0.7496(7) 0.5959(12) 0.2212(6)
H1_2 H 0.7783 0.5448 0.1958
C4_2 C 0.7782(7) 0.6445(12) 0.2970(7)
H2_2 H 0.8294 0.6257 0.3272
C5_2 C 0.7277(6) 0.7197(11) 0.3237(6)
C6_2 C 0.7404(7) 0.7913(11) 0.3966(7)
C7_2 C 0.4959(6) 0.1632(10) 0.3848(6)
C8_2 C 0.4853(6) 0.2385(10) 0.3126(6)
C9_2 C 0.4484(6) 0.3539(12) 0.2951(6)
H3_2 H 0.4264 0.3985 0.3294
C10_2 C 0.4473(6) 0.3962(10) 0.2221(6)
H4_2 H 0.4234 0.4709 0.2014
C11_2 C 0.4850(6) 0.3170(11) 0.1839(6)
C12_2 C 0.4981(6) 0.3332(11) 0.1092(6)
C13_2 C 0.4396(7) 0.8443(11) 0.3875(7)
C14_2 C 0.3775(6) 0.8021(11) 0.3219(6)
C15_2 C 0.2969(7) 0.8094(12) 0.3083(7)
H5_2 H 0.2708 0.8506 0.3408
C16_2 C 0.2560(6) 0.7474(12) 0.2390(8)
H6_2 H 0.2005 0.7406 0.2218
C17_2 C 0.3099(5) 0.6976(11) 0.1998(6)
C18_2 C 0.2903(6) 0.6358(12) 0.1249(6)
O14_2 O 0.4238(4) 0.8405(7) 0.0693(4)
C20_2 C 0.4882(8) 0.9237(17) 0.1007(13)
O15_2 O 0.6357(7) 0.6633(11) 0.4983(8)
C21_2 C 0.5925(11) 0.5608(16) 0.4580(12)
O18_2 O 0.5467(4) 0.8101(7) 0.5692(4)
O23_2 O 0.7169(4) 0.8796(8) 0.5900(4)
H10_2 H 0.520038 0.945024 0.0568391
H12_2 H 0.52939 0.880117 0.150437
H13_2 H 0.589955 0.568585 0.396604
H14_2 H 0.622525 0.473999 0.480747
H15_2 H 0.531736 0.560842 0.465599
O16_2 O 0.3555(4) 0.4763(7) 0.9246(4)
O17_2 O 0.3050(4) 0.7267(7) 0.9477(4)
O20_2 O 0.5199(3) 0.5665(7) 0.9270(4)
O21_2 O 0.4656(4) 0.7492(7) 0.9174(4)
S2_3 S 0.02021(17) 0.3128(3) 0.73956(18)
O6 O 0.0460(4) 0.4235(7) 0.8929(4)
H14_3 H 0.122525 0.0260006 0.980747
H7_3 H 0.185101 0.234775 0.00886275
S1_3 S 0.14139(17) 0.7621(3) 0.75143(18)
O1_3 O 0.0522(4) 0.8380(7) 0.5957(5)
O3_3 O 0.1830(4) 0.6418(9) 0.9042(5)
O9_3 O 0.0106(4) 0.6862(7) 0.8943(4)
C1_3 C 0.1180(7) 0.8918(11) 0.6138(7)
C2_3 C 0.1731(6) 0.8636(12) 0.6920(7)
C3_3 C 0.2496(7) 0.9041(12) 0.7212(6)
H1_3 H 0.2783 0.9552 0.6958
C4_3 C 0.2782(7) 0.8555(12) 0.7970(7)
H2_3 H 0.3294 0.8743 0.8272
C5_3 C 0.2277(6) 0.7803(11) 0.8237(6)
C6_3 C 0.2404(7) 0.7087(11) 0.8966(7)
O13_3 O 0.2149(4) 0.4119(6) 0.9802(5)
C19_3 C 0.2095(15) 0.2809(11) 0.9655(16)
O15_3 O 0.1357(7) 0.8367(11) 0.9983(8)
C21_3 C 0.0925(11) 0.9392(16) 0.9580(12)
H8_3 H 0.269083 0.243837 0.968288
H9_3 H 0.170185 0.263883 0.908105
H10_3 H 0.020038 0.554976 0.556839
H12_3 H 0.0293895 0.619883 0.650437
H13_3 H 0.0899545 0.931415 0.896604
H15_3 H 0.0317359 0.939158 0.965599
C7_3 C 0.9959(6) 0.3368(10) 0.8848(6)
C8_3 C 0.9853(6) 0.2615(10) 0.8126(6)
C9_3 C 0.9484(6) 0.1461(12) 0.7951(6)
H3_3 H 0.9264 0.1015 0.8294
C10_3 C 0.9473(6) 0.1038(10) 0.7221(6)
H4_3 H 0.9234 0.0291 0.7014
C11_3 C 0.9850(6) 0.1830(11) 0.6839(6)
C12_3 C 0.9981(6) 0.1668(11) 0.6092(6)
S3_3 S 0.90616(15) 0.7774(3) 0.75091(17)
O12_3 O 0.8460(4) 0.9042(6) 0.6010(4)
C13_3 C 0.9396(7) 0.6557(11) 0.8875(7)
C14_3 C 0.8775(6) 0.6979(11) 0.8219(6)
C15_3 C 0.7969(7) 0.6906(12) 0.8083(7)
H5_3 H 0.7708 0.6494 0.8408
C16_3 C 0.7560(6) 0.7526(12) 0.7390(8)
H6_3 H 0.7005 0.7594 0.7218
C17_3 C 0.8099(5) 0.8024(11) 0.6998(6)
C18_3 C 0.7903(6) 0.8642(12) 0.6249(6)
O14_3 O 0.9238(4) 0.6595(7) 0.5693(4)
C20_3 C 0.9882(8) 0.5763(17) 0.6007(13)
H11_3 H 0.964558 0.490238 0.618904
S1_4 S 0.35861(17) 0.2621(3) 0.74857(18)
S2_4 S 0.47979(17) 0.8128(3) 0.76044(18)
S3_4 S 0.59384(15) 0.2774(3) 0.74909(17)
O1_4 O 0.4478(4) 0.3380(7) 0.9043(5)
O3_4 O 0.3170(4) 0.1418(9) 0.5958(5)
O6_2 O 0.4540(4) 0.9235(7) 0.6071(4)
O9_4 O 0.4894(4) 0.1862(7) 0.6057(4)
O12_4 O 0.6540(4) 0.4042(6) 0.8990(4)
C1_4 C 0.3820(7) 0.3918(11) 0.8862(7)
C2_4 C 0.3269(6) 0.3636(12) 0.8080(7)
C3_4 C 0.2504(7) 0.4041(12) 0.7788(6)
H1_4 H 0.2217 0.4552 0.8042
C4_4 C 0.2218(7) 0.3555(12) 0.7030(7)
H2_4 H 0.1706 0.3743 0.6728
C5_4 C 0.2723(6) 0.2803(11) 0.6763(6)
C6_4 C 0.2596(7) 0.2087(11) 0.6034(7)
C7_4 C 0.5041(6) 0.8368(10) 0.6152(6)
C8_4 C 0.5147(6) 0.7615(10) 0.6874(6)
C9_4 C 0.5516(6) 0.6461(12) 0.7049(6)
H3_4 H 0.5736 0.6015 0.6706
C10_4 C 0.5527(6) 0.6038(10) 0.7779(6)
H4_4 H 0.5766 0.5291 0.7986
C11_4 C 0.5150(6) 0.6830(11) 0.8161(6)
C12_4 C 0.5019(6) 0.6668(11) 0.8908(6)
C13_4 C 0.5604(7) 0.1557(11) 0.6125(7)
C14_4 C 0.6225(6) 0.1979(11) 0.6781(6)
C15_4 C 0.7031(7) 0.1906(12) 0.6917(7)
H5_4 H 0.7292 0.1494 0.6592
C16_4 C 0.7440(6) 0.2526(12) 0.7610(8)
H6_4 H 0.7995 0.2594 0.7782
C17_4 C 0.6901(5) 0.3024(11) 0.8002(6)
C18_4 C 0.7097(6) 0.3642(12) 0.8751(6)
O14_4 O 0.5762(4) 0.1595(7) 0.9307(4)
C20_4 C 0.5118(8) 0.0763(17) 0.8993(13)
O15_4 O 0.3643(7) 0.3367(11) 0.5017(8)
C21_4 C 0.4075(11) 0.4392(16) 0.5420(12)
H10_4 H 0.479962 0.0549764 0.943161
H12_4 H 0.47061 0.119883 0.849563
H13_4 H 0.410045 0.431415 0.603396
H14_4 H 0.377475 0.526001 0.519253
H15_4 H 0.468264 0.439158 0.534401
O13_4 O 0.2851(4) 0.9119(6) 0.5198(5)
C19_4 C 0.2905(15) 0.7809(11) 0.5345(16)
H7_4 H 0.314899 0.734775 0.491137
H8_4 H 0.230917 0.743837 0.531712
H9_4 H 0.329815 0.763883 0.591895
H11_4 H 0.535442 0.990238 0.881096
loop_
_geom_bond_atom_site_label_1
_geom_bond_atom_site_label_2
_geom_bond_site_symmetry_1
_geom_bond_site_symmetry_2
S3 C14 1_555 1_555
O10 C13 1_555 1_555
O11 C18 1_555 1_555
O12 Eu1 1_555 1_555
C14 C13 1_555 1_555
C15 C14 1_555 1_555
H5 C15 1_555 1_555
C16 C15 1_555 1_555
H6 C16 1_555 1_555
C17 S3 1_555 1_555
C18 O12 1_555 1_555
O14 Eu1 1_555 1_555
C20 O14 1_555 1_555
Eu8 O11 1_555 1_555
O17 Eu1 1_555 1_555
O21 Eu1 1_555 1_555
C16 C17 1_555 1_555
C17 C18 1_555 1_555
C20 H11 1_555 1_555
O5 C7 1_555 1_555
C7 C8 1_555 1_555
C8 C9 1_555 1_555
C9 H3 1_555 1_555
C10 C9 1_555 1_555
H4 C10 1_555 1_555
C12 O7 1_555 1_555
C10 C11 1_555 1_555
C11 C12 1_555 1_555
Eu2 O3 1_555 1_555
S1 C2 1_555 1_555
O1 C1 1_555 1_555
O2 C1 1_555 1_555
O3 C6 1_555 1_555
O4 C6 1_555 1_555
O9 Eu2 1_555 1_555
C1 C2 1_555 1_555
C2 C3 1_555 1_555
C3 H1 1_555 1_555
C4 C3 1_555 1_555
H2 C4 1_555 1_555
C5 S1 1_555 1_555
C6 C5 1_555 1_555
O13 Eu2 1_555 1_555
C19 O13 1_555 1_555
O15 Eu2 1_555 1_555
C21 O15 1_555 1_555
O19 Eu2 1_555 1_555
C4 C5 1_555 1_555
C19 H8 1_555 1_555
C19 H9 1_555 1_555
C21 H13 1_555 1_555
C21 H15 1_555 1_555
O8 Eu3 1_555 1_555
C19_2 O13_2 1_555 1_555
C19_2 H7_2 1_555 1_555
C19_2 H8_2 1_555 1_555
C19_2 H9_2 1_555 1_555
Eu1_2 O1_2 1_555 1_555
Eu2_2 O3_2 1_555 1_555
S1_2 C2_2 1_555 1_555
S2_2 C8_2 1_555 1_555
S3_2 C14_2 1_555 1_555
O1_2 C1_2 1_555 1_555
O2_2 C1_2 1_555 1_555
O3_2 C6_2 1_555 1_555
O4_2 C6_2 1_555 1_555
O5_2 C7_2 1_555 1_555
O19_2 C7_2 1_555 1_555
O7_2 Eu1_2 1_555 1_555
O8_2 C12_2 1_555 1_555
O9_2 Eu2_2 1_555 1_555
O10_2 C13_2 1_555 1_555
O11_2 C18_2 1_555 1_555
O12_2 Eu1_2 1_555 1_555
C1_2 C2_2 1_555 1_555
C2_2 C3_2 1_555 1_555
C3_2 H1_2 1_555 1_555
C4_2 C3_2 1_555 1_555
H2_2 C4_2 1_555 1_555
C5_2 S1_2 1_555 1_555
C6_2 C5_2 1_555 1_555
C7_2 C8_2 1_555 1_555
C8_2 C9_2 1_555 1_555
C9_2 H3_2 1_555 1_555
C10_2 C9_2 1_555 1_555
H4_2 C10_2 1_555 1_555
C11_2 S2_2 1_555 1_555
C12_2 O7_2 1_555 1_555
C13_2 O9_2 1_555 1_555
C14_2 C13_2 1_555 1_555
C15_2 C14_2 1_555 1_555
H5_2 C15_2 1_555 1_555
C16_2 C15_2 1_555 1_555
H6_2 C16_2 1_555 1_555
C17_2 S3_2 1_555 1_555
C18_2 O12_2 1_555 1_555
O14_2 Eu1_2 1_555 1_555
C20_2 O14_2 1_555 1_555
O15_2 Eu2_2 1_555 1_555
C21_2 O15_2 1_555 1_555
Eu3 O4_2 1_555 1_555
Eu8 O5_2 1_555 1_555
O18_2 Eu2_2 1_555 1_555
O23_2 Eu2_2 1_555 1_555
C4_2 C5_2 1_555 1_555
C10_2 C11_2 1_555 1_555
C11_2 C12_2 1_555 1_555
C16_2 C17_2 1_555 1_555
C17_2 C18_2 1_555 1_555
C20_2 H10_2 1_555 1_555
C20_2 H12_2 1_555 1_555
C21_2 H13_2 1_555 1_555
C21_2 H14_2 1_555 1_555
C21_2 H15_2 1_555 1_555
Eu4 O20_2 1_555 1_555
Eu7 O6 1_555 1_555
Eu7 O3_3 1_555 1_555
S1_3 C2_3 1_555 1_555
O1_3 C1_3 1_555 1_555
O16 C1_3 1_555 1_555
O3_3 C6_3 1_555 1_555
O17_2 C6_3 1_555 1_555
O9_3 Eu7 1_555 1_555
C1_3 C2_3 1_555 1_555
C2_3 C3_3 1_555 1_555
C3_3 H1_3 1_555 1_555
C4_3 C3_3 1_555 1_555
H2_3 C4_3 1_555 1_555
C5_3 S1_3 1_555 1_555
C6_3 C5_3 1_555 1_555
O13_3 Eu7 1_555 1_555
C19_3 O13_3 1_555 1_555
O15_3 Eu7 1_555 1_555
C21_3 O15_3 1_555 1_555
C4_3 C5_3 1_555 1_555
C19_3 H8_3 1_555 1_555
C19_3 H9_3 1_555 1_555
C21_3 H13_3 1_555 1_555
C21_3 H15_3 1_555 1_555
O18 C7_3 1_555 1_555
C7_3 C8_3 1_555 1_555
C8_3 C9_3 1_555 1_555
C9_3 H3_3 1_555 1_555
C10_3 C9_3 1_555 1_555
H4_3 C10_3 1_555 1_555
C12_3 O20 1_555 1_555
C10_3 C11_3 1_555 1_555
C11_3 C12_3 1_555 1_555
S3_3 C14_3 1_555 1_555
O22 C13_3 1_555 1_555
O23_2 C18_3 1_555 1_555
O12_3 Eu3 1_555 1_555
C14_3 C13_3 1_555 1_555
C15_3 C14_3 1_555 1_555
H5_3 C15_3 1_555 1_555
C16_3 C15_3 1_555 1_555
H6_3 C16_3 1_555 1_555
C17_3 S3_3 1_555 1_555
C18_3 O12_3 1_555 1_555
O14_3 Eu3 1_555 1_555
C20_3 O14_3 1_555 1_555
C16_3 C17_3 1_555 1_555
C17_3 C18_3 1_555 1_555
C20_3 H11_3 1_555 1_555
Eu4 O1_4 1_555 1_555
Eu8 O3_4 1_555 1_555
S1_4 C2_4 1_555 1_555
S2_4 C8_4 1_555 1_555
S3_4 C14_4 1_555 1_555
O1_4 C1_4 1_555 1_555
O16_2 C1_4 1_555 1_555
O3_4 C6_4 1_555 1_555
O17 C6_4 1_555 1_555
O18_2 C7_4 1_555 1_555
O6_2 C7_4 1_555 1_555
O21_2 C12_4 1_555 1_555
O9_4 Eu8 1_555 1_555
O22_2 C13_4 1_555 1_555
O23 C18_4 1_555 1_555
O12_4 Eu4 1_555 1_555
C1_4 C2_4 1_555 1_555
C2_4 C3_4 1_555 1_555
C3_4 H1_4 1_555 1_555
C4_4 C3_4 1_555 1_555
H2_4 C4_4 1_555 1_555
C5_4 S1_4 1_555 1_555
C6_4 C5_4 1_555 1_555
C7_4 C8_4 1_555 1_555
C8_4 C9_4 1_555 1_555
C9_4 H3_4 1_555 1_555
C10_4 C9_4 1_555 1_555
H4_4 C10_4 1_555 1_555
C11_4 S2_4 1_555 1_555
C12_4 O20_2 1_555 1_555
C13_4 O9_4 1_555 1_555
C14_4 C13_4 1_555 1_555
C15_4 C14_4 1_555 1_555
H5_4 C15_4 1_555 1_555
C16_4 C15_4 1_555 1_555
H6_4 C16_4 1_555 1_555
C17_4 S3_4 1_555 1_555
C18_4 O12_4 1_555 1_555
O14_4 Eu4 1_555 1_555
C20_4 O14_4 1_555 1_555
O15_4 Eu8 1_555 1_555
C21_4 O15_4 1_555 1_555
C4_4 C5_4 1_555 1_555
C10_4 C11_4 1_555 1_555
C11_4 C12_4 1_555 1_555
C16_4 C17_4 1_555 1_555
C17_4 C18_4 1_555 1_555
C20_4 H10_4 1_555 1_555
C20_4 H12_4 1_555 1_555
C21_4 H13_4 1_555 1_555
C21_4 H14_4 1_555 1_555
C21_4 H15_4 1_555 1_555
C19_4 O13_4 1_555 1_555
C19_4 H7_4 1_555 1_555
C19_4 H8_4 1_555 1_555
C19_4 H9_4 1_555 1_555

#END
