
###############################################################################
#
# This file contains modified crystal structure data generated from the
# MOF subset of the Cambridge Structural Database (CSD) v543 
# hosted by the Cambridge Crystallographic Data Centre (CCDC).
#
# This work is licensed under the Creative Commons
# Attribution-NonCommercial-ShareAlike 4.0 International License.
# To view a copy of this license, visit
# http://creativecommons.org/licenses/by-nc-sa/4.0/
# or send a letter to
# Creative Commons, PO Box 1866, Mountain View, CA 94042, USA.
#
# CIF created using the CSD Python API on 29 September 2022
# The structure has been converted into the P1 space group
# The structure has a 3D framework
# The original CSD entry HOXSIY is in the monoclinic crystal system
# The original CSD entry HOXSIY is in a Sohncke space group
# The framework has been calculated to contain at least 10.0% void space
# The void calculation uses a probe of radius 1.32A, grid spacing 0.4
#
###############################################################################

data_HOXSIY
_chemical_formula_moiety         '(C60 H44 O28 Zn6)n'
_symmetry_cell_setting           triclinic
_symmetry_space_group_name_H-M   'P 1'
_symmetry_Int_Tables_number      1
_space_group_name_Hall           'P 1'
loop_
_symmetry_equiv_pos_site_id
_symmetry_equiv_pos_as_xyz
1 x,y,z
_cell_length_a                   7.794(2)
_cell_length_b                   17.524(2)
_cell_length_c                   13.763(2)
_cell_angle_alpha                90
_cell_angle_beta                 101.393(18)
_cell_angle_gamma                90
_cell_volume                     1842.74
loop_
_atom_site_label
_atom_site_type_symbol
_atom_site_fract_x
_atom_site_fract_y
_atom_site_fract_z
O2 O 0.2314(6) 0.0181(3) 0.8463(4)
H15 H 0.2904 0.0053 0.8031
H16 H 0.2469 0.0661 0.8506
O13 O 0.0155(7) 0.6054(3) 0.0742(3)
Zn5 Zn 0.28870(9) 0.46279(4) 0.00256(6)
Zn9 Zn 0.04030(10) 0.52325(4) 0.17407(5)
C19 C 0.0178(8) 0.6287(3) 0.8146(4)
H9 H 0.0348 0.5781 0.7983
C20 C 0.0142(8) 0.6852(3) 0.7427(4)
C23 C 0.0206(8) 0.5853(4) 0.9870(4)
C24 C 0.0350(8) 0.6658(3) 0.6409(4)
C25 C 0.1225(8) 0.6011(3) 0.6198(4)
H11 H 0.1783 0.5702 0.6714
C26 C 0.1284(8) 0.5815(4) 0.5231(5)
H12 H 0.1828 0.5363 0.5109
C27 C 0.0555(8) 0.6276(4) 0.4446(5)
C30 C 0.0602(10) 0.6082(5) 0.3385(5)
O14 O 0.0452(6) 0.5174(2) 0.9640(3)
O15 O 0.0918(6) 0.5412(3) 0.3176(3)
O16 O 0.0374(13) 0.6603(4) 0.2750(5)
C1 C 0.5235(7) 0.1507(3) 0.1466(4)
C2 C 0.5520(8) 0.2046(4) 0.0787(4)
H1 H 0.5742 0.1893 0.0177
C3 C 0.5477(8) 0.2822(3) 0.1012(4)
C4 C 0.5173(8) 0.3056(3) 0.1927(4)
H2 H 0.5148 0.3574 0.2072
C5 C 0.4903(8) 0.2511(3) 0.2640(4)
C6 C 0.4866(8) 0.1734(4) 0.2383(4)
H3 H 0.4596 0.1370 0.2820
C7 C 0.5301(8) 0.0671(3) 0.1216(5)
C8 C 0.5624(8) 0.3402(4) 0.0242(4)
C9 C 0.4608(8) 0.2786(3) 0.3629(4)
C10 C 0.3641(8) 0.3476(3) 0.3697(4)
H4 H 0.3155 0.3747 0.3129
C11 C 0.3446(8) 0.3726(3) 0.4604(5)
H5 H 0.2788 0.4164 0.4639
C12 C 0.4180(8) 0.3359(4) 0.5475(4)
C13 C 0.5162(9) 0.2699(4) 0.5399(5)
H6 H 0.5706 0.2447 0.5972
C14 C 0.5333(9) 0.2419(4) 0.4495(5)
H7 H 0.5955 0.1969 0.4466
C15 C 0.4014(9) 0.3693(4) 0.6465(5)
O1 O 0.4665(6) 0.0183(3) 0.1707(3)
O3 O 0.6052(6) 0.0526(2) 0.0491(3)
O7 O 0.5365(5) 0.4109(3) 0.0408(3)
O9 O 0.2725(7) 0.4088(4) 0.6536(3)
O10 O 0.5264(6) 0.3536(3) 0.7189(3)
Zn7 Zn 0.57067(10) 0.40831(4) 0.84609(5)
O21 O 0.9548(6) 0.0174(2) 0.0360(3)
Zn3 Zn 0.95970(10) 0.02325(4) 0.82593(5)
O5 O 0.5976(7) 0.3197(3) 0.9427(3)
O6 O 0.6697(6) 0.0232(3) 0.8480(3)
H19 H 0.6274 0.0707 0.8510
O20 O 0.9845(7) 0.1054(3) 0.9258(3)
O22 O 0.9082(6) 0.0412(3) 0.6824(3)
Zn2 Zn 0.42933(10) 0.90831(4) 0.15391(5)
O4 O 0.7362(6) 0.9008(3) 0.1467(3)
H17 H 0.7630 0.8937 0.2090
H18 H 0.8107 0.8688 0.1341
O8 O 0.1696(7) 0.9192(4) 0.1525(5)
H21 H 0.1088 0.8975 0.1893
H22 H 0.0808 0.9393 0.1155
O17 O 0.4024(7) 0.8197(3) 0.0573(3)
O19 O 0.4736(6) 0.8536(3) 0.2811(3)
Zn1 Zn 0.71130(9) 0.96279(4) 0.99744(6)
C16 C 0.9533(8) 0.7780(3) 0.8639(4)
C17 C 0.9586(8) 0.7211(3) 0.9340(4)
H8 H 0.9371 0.7325 0.9965
C18 C 0.9965(8) 0.6466(3) 0.9101(4)
C21 C 0.9875(8) 0.7614(3) 0.7724(4)
H10 H 0.9934 0.8010 0.7283
C22 C 0.9063(8) 0.8601(3) 0.8870(4)
C28 C 0.9710(9) 0.6958(4) 0.4663(5)
H13 H 0.9227 0.7285 0.4149
C29 C 0.9598(9) 0.7140(4) 0.5605(5)
H14 H 0.9023 0.7584 0.5727
H20 H 0.5989 0.9965 0.8004
O11 O 0.8300(6) 0.8695(2) 0.9574(3)
O12 O 0.9455(6) 0.9096(3) 0.8311(3)
O18 O 0.4635(5) 0.9109(3) 0.9592(3)
C16_2 C 0.0467(8) 0.2780(3) 0.1361(4)
C17_2 C 0.0414(8) 0.2211(3) 0.0660(4)
H8_2 H 0.0629 0.2325 0.0035
C18_2 C 0.0035(8) 0.1466(3) 0.0899(4)
C21_2 C 0.0125(8) 0.2614(3) 0.2276(4)
H10_2 H 0.0066 0.3010 0.2717
C22_2 C 0.0937(8) 0.3601(3) 0.1130(4)
C28_2 C 0.0290(9) 0.1958(4) 0.5337(5)
H13_2 H 0.0773 0.2285 0.5851
C29_2 C 0.0402(9) 0.2140(4) 0.4395(5)
H14_2 H 0.0977 0.2584 0.4273
O6_2 O 0.3303(6) 0.5232(3) 0.1520(3)
H19_2 H 0.3726 0.5707 0.1490
H20_2 H 0.4011 0.4965 0.1996
O11_2 O 0.1700(6) 0.3695(2) 0.0426(3)
O12_2 O 0.0545(6) 0.4096(3) 0.1689(3)
C1_2 C 0.4765(7) 0.6507(3) 0.8534(4)
C2_2 C 0.4480(8) 0.7046(4) 0.9213(4)
H1_2 H 0.4258 0.6893 0.9823
C3_2 C 0.4523(8) 0.7822(3) 0.8988(4)
C4_2 C 0.4827(8) 0.8056(3) 0.8073(4)
H2_2 H 0.4852 0.8574 0.7928
C5_2 C 0.5097(8) 0.7511(3) 0.7360(4)
C6_2 C 0.5134(8) 0.6734(4) 0.7617(4)
H3_2 H 0.5404 0.6370 0.7180
C7_2 C 0.4699(8) 0.5671(3) 0.8784(5)
C8_2 C 0.4376(8) 0.8402(4) 0.9758(4)
C9_2 C 0.5392(8) 0.7786(3) 0.6371(4)
C10_2 C 0.6359(8) 0.8476(3) 0.6303(4)
H4_2 H 0.6845 0.8747 0.6871
C11_2 C 0.6554(8) 0.8726(3) 0.5396(5)
H5_2 H 0.7212 0.9164 0.5361
C12_2 C 0.5820(8) 0.8359(4) 0.4525(4)
C13_2 C 0.4838(9) 0.7699(4) 0.4601(5)
H6_2 H 0.4294 0.7447 0.4028
C14_2 C 0.4667(9) 0.7419(4) 0.5505(5)
H7_2 H 0.4045 0.6969 0.5534
C15_2 C 0.5986(9) 0.8693(4) 0.3535(5)
O1_2 O 0.5335(6) 0.5183(3) 0.8293(3)
O3_2 O 0.3948(6) 0.5526(2) 0.9509(3)
O4_2 O 0.2638(6) 0.4008(3) 0.8533(3)
H17_2 H 0.2370 0.3937 0.7910
H18_2 H 0.1893 0.3688 0.8659
O8_2 O 0.8304(7) 0.4192(4) 0.8475(5)
H21_2 H 0.8912 0.3975 0.8107
H22_2 H 0.9192 0.4393 0.8845
O9_2 O 0.7275(7) 0.9088(4) 0.3464(3)
C19_2 C 0.9822(8) 0.1287(3) 0.1854(4)
H9_2 H 0.9652 0.0781 0.2017
C20_2 C 0.9858(8) 0.1852(3) 0.2573(4)
C23_2 C 0.9794(8) 0.0853(4) 0.0130(4)
C24_2 C 0.9650(8) 0.1658(3) 0.3591(4)
C25_2 C 0.8775(8) 0.1011(3) 0.3802(4)
H11_2 H 0.8217 0.0702 0.3286
C26_2 C 0.8716(8) 0.0815(4) 0.4769(5)
H12_2 H 0.8172 0.0363 0.4891
C27_2 C 0.9445(8) 0.1276(4) 0.5554(5)
C30_2 C 0.9398(10) 0.1082(5) 0.6615(5)
O2_2 O 0.7686(6) 0.5181(3) 0.1537(4)
H15_2 H 0.7096 0.5053 0.1969
H16_2 H 0.7531 0.5661 0.1494
O16_2 O 0.9626(13) 0.1603(4) 0.7250(5)
loop_
_geom_bond_atom_site_label_1
_geom_bond_atom_site_label_2
_geom_bond_site_symmetry_1
_geom_bond_site_symmetry_2
O2 H15 1_555 1_555
H16 O2 1_555 1_555
Zn9 O13 1_555 1_555
H9 C19 1_555 1_555
C20 C19 1_555 1_555
C24 C20 1_555 1_555
C25 C24 1_555 1_555
H11 C25 1_555 1_555
C26 C25 1_555 1_555
H12 C26 1_555 1_555
C27 C26 1_555 1_555
C30 C27 1_555 1_555
O14 C23 1_555 1_555
O15 C30 1_555 1_555
O16 C30 1_555 1_555
Zn9 O15 1_555 1_555
C1 C2 1_555 1_555
C2 H1 1_555 1_555
C3 C2 1_555 1_555
C4 C3 1_555 1_555
H2 C4 1_555 1_555
C5 C4 1_555 1_555
C6 C1 1_555 1_555
H3 C6 1_555 1_555
C7 C1 1_555 1_555
C8 C3 1_555 1_555
C9 C5 1_555 1_555
C10 C9 1_555 1_555
H4 C10 1_555 1_555
C11 C10 1_555 1_555
H5 C11 1_555 1_555
C12 C11 1_555 1_555
C13 C12 1_555 1_555
H6 C13 1_555 1_555
C14 C9 1_555 1_555
H7 C14 1_555 1_555
C15 C12 1_555 1_555
O1 C7 1_555 1_555
O3 C7 1_555 1_555
O7 C8 1_555 1_555
O9 C15 1_555 1_555
O10 C15 1_555 1_555
Zn5 O7 1_555 1_555
Zn7 O10 1_555 1_555
C5 C6 1_555 1_555
C13 C14 1_555 1_555
H19 O6 1_555 1_555
Zn7 O5 1_555 1_555
O20 Zn3 1_555 1_555
O22 Zn3 1_555 1_555
Zn3 O6 1_555 1_555
H17 O4 1_555 1_555
H18 O4 1_555 1_555
O8 Zn2 1_555 1_555
H21 O8 1_555 1_555
H22 O8 1_555 1_555
O17 Zn2 1_555 1_555
O19 Zn2 1_555 1_555
Zn2 O4 1_555 1_555
C16 C17 1_555 1_555
C17 H8 1_555 1_555
C18 C17 1_555 1_555
C21 C16 1_555 1_555
H10 C21 1_555 1_555
C22 C16 1_555 1_555
H13 C28 1_555 1_555
H14 C29 1_555 1_555
O11 Zn1 1_555 1_555
O18 Zn1 1_555 1_555
C22 O11 1_555 1_555
C22 O12 1_555 1_555
C28 C29 1_555 1_555
C16_2 C17_2 1_555 1_555
C17_2 H8_2 1_555 1_555
C18_2 C17_2 1_555 1_555
C21_2 C16_2 1_555 1_555
H10_2 C21_2 1_555 1_555
C22_2 C16_2 1_555 1_555
H13_2 C28_2 1_555 1_555
H14_2 C29_2 1_555 1_555
O6_2 Zn5 1_555 1_555
H19_2 O6_2 1_555 1_555
H20_2 O6_2 1_555 1_555
O11_2 Zn5 1_555 1_555
O12_2 Zn9 1_555 1_555
Zn9 O6_2 1_555 1_555
C22_2 O11_2 1_555 1_555
C22_2 O12_2 1_555 1_555
C28_2 C29_2 1_555 1_555
Zn7 O1_2 1_555 1_555
C1_2 C2_2 1_555 1_555
C2_2 H1_2 1_555 1_555
C3_2 C2_2 1_555 1_555
C4_2 C3_2 1_555 1_555
H2_2 C4_2 1_555 1_555
C5_2 C4_2 1_555 1_555
C6_2 C1_2 1_555 1_555
H3_2 C6_2 1_555 1_555
C7_2 C1_2 1_555 1_555
C8_2 C3_2 1_555 1_555
C9_2 C5_2 1_555 1_555
C10_2 C9_2 1_555 1_555
H4_2 C10_2 1_555 1_555
C11_2 C10_2 1_555 1_555
H5_2 C11_2 1_555 1_555
C12_2 C11_2 1_555 1_555
C13_2 C12_2 1_555 1_555
H6_2 C13_2 1_555 1_555
C14_2 C9_2 1_555 1_555
H7_2 C14_2 1_555 1_555
C15_2 C12_2 1_555 1_555
O1_2 C7_2 1_555 1_555
O3_2 C7_2 1_555 1_555
H17_2 O4_2 1_555 1_555
H18_2 O4_2 1_555 1_555
O18 C8_2 1_555 1_555
O8_2 Zn7 1_555 1_555
H21_2 O8_2 1_555 1_555
H22_2 O8_2 1_555 1_555
O9_2 C15_2 1_555 1_555
O19 C15_2 1_555 1_555
Zn7 O4_2 1_555 1_555
C5_2 C6_2 1_555 1_555
C13_2 C14_2 1_555 1_555
H9_2 C19_2 1_555 1_555
C20_2 C19_2 1_555 1_555
C24_2 C20_2 1_555 1_555
C25_2 C24_2 1_555 1_555
H11_2 C25_2 1_555 1_555
C26_2 C25_2 1_555 1_555
H12_2 C26_2 1_555 1_555
C27_2 C26_2 1_555 1_555
C30_2 C27_2 1_555 1_555
O2_2 H15_2 1_555 1_555
H16_2 O2_2 1_555 1_555
O21 C23_2 1_555 1_555
O22 C30_2 1_555 1_555
O16_2 C30_2 1_555 1_555

#END
