
###############################################################################
#
# This file contains modified crystal structure data generated from the
# MOF subset of the Cambridge Structural Database (CSD) v543 
# hosted by the Cambridge Crystallographic Data Centre (CCDC).
#
# This work is licensed under the Creative Commons
# Attribution-NonCommercial-ShareAlike 4.0 International License.
# To view a copy of this license, visit
# http://creativecommons.org/licenses/by-nc-sa/4.0/
# or send a letter to
# Creative Commons, PO Box 1866, Mountain View, CA 94042, USA.
#
# CIF created using the CSD Python API on 29 September 2022
# The structure has been converted into the P1 space group
# The structure has a 3D framework
# The original CSD entry HOYQIX is in the rhombohedral crystal system
# The framework has been calculated to contain at least 10.0% void space
# The void calculation uses a probe of radius 1.32A, grid spacing 0.4
#
###############################################################################

data_HOYQIX
_chemical_formula_moiety         '(C270 H126 Cu18 O104)n'
_symmetry_cell_setting           triclinic
_symmetry_space_group_name_H-M   'P 1'
_symmetry_Int_Tables_number      1
_space_group_name_Hall           'P 1'
loop_
_symmetry_equiv_pos_site_id
_symmetry_equiv_pos_as_xyz
1 x,y,z
_cell_length_a                   30.0000(16)
_cell_length_b                   30.0000(16)
_cell_length_c                   16.0000(2)
_cell_angle_alpha                90
_cell_angle_beta                 90
_cell_angle_gamma                120
_cell_volume                     12470.8
loop_
_atom_site_label
_atom_site_type_symbol
_atom_site_fract_x
_atom_site_fract_y
_atom_site_fract_z
O6 O 0.06314(9) 0.49094(9) 0.42013(15)
C2 C 0.08126(12) 0.28508(12) 0.05094(19)
C3 C 0.04917(13) 0.23173(13) 0.0650(2)
H1 H 0.0508 0.2082 0.0292
C4 C 0.01468(13) 0.21402(12) 0.1331(2)
C5 C 0.01394(13) 0.25043(12) 0.19028(19)
C6 C 0.04658(12) 0.30372(12) 0.17857(19)
C7 C 0.08034(12) 0.32075(12) 0.10853(19)
H3 H 0.1022 0.3558 0.1003
C9 C 0.04289(13) 0.34088(13) 0.2384(2)
C12 C 0.03264(13) 0.40913(13) 0.35149(19)
C13 C 0.08080(15) 0.42217(14) 0.3171(2)
H6 H 0.1096 0.4533 0.3315
C14 C 0.08599(14) 0.38831(15) 0.2607(2)
H7 H 0.1181 0.3976 0.2384
C15 C 0.02546(14) 0.44531(13) 0.41021(19)
Cu4 Cu 0.048790(14) 0.539176(19) 0.48607(2)
Cu1 Cu 0.176280(13) 0.382123(14) 0.84726(2)
O1 O 0.13525(9) 0.35140(9) 0.95340(13)
O2 O 0.11687(10) 0.26917(9) 0.92689(14)
C1 C 0.11403(12) 0.30333(13) 0.97085(18)
Cu5 Cu 0.157053(13) 0.284544(14) 0.81941(2)
O7 O 0.21646(10) 0.39750(9) 0.73978(14)
O8 O 0.19083(9) 0.46126(13) 0.86042(15)
O9 O 0.11201(13) 0.35177(10) 0.77792(15)
O10 O 0.23887(13) 0.39647(9) 0.91320(15)
O3 O 0.98563(16) 0.12479(12) 0.1081(3)
O4 O 0.93709(9) 0.14250(9) 0.19375(15)
O5 O 0.98156(10) 0.42690(9) 0.44459(15)
H2 H 0.9916 0.2387 0.2357
C8 C 0.97636(15) 0.15629(14) 0.1462(3)
C10 C 0.99447(14) 0.32831(14) 0.2724(2)
H4 H 0.9655 0.2973 0.2581
C11 C 0.98951(15) 0.36252(14) 0.3283(2)
H5 H 0.9573 0.3538 0.3496
Cu2 Cu 0.872510(19) 0.157053(13) 0.18059(2)
Cu3 Cu 0.951210(14) 0.460824(19) 0.51393(2)
O3_2 O 0.87521(12) 0.86084(20) 0.1081(3)
O4_2 O 0.85750(9) 0.79459(13) 0.19375(15)
O5_2 O 0.57310(9) 0.55466(13) 0.44459(15)
O6_2 O 0.50906(9) 0.57220(13) 0.42013(15)
C2_2 C 0.71492(12) 0.79618(17) 0.05094(19)
C3_2 C 0.76827(13) 0.81744(18) 0.0650(2)
H1_2 H 0.7918 0.8426 0.0292
C4_2 C 0.78598(12) 0.80066(18) 0.1331(2)
C5_2 C 0.74957(12) 0.76351(18) 0.19028(19)
H2_2 H 0.7613 0.7529 0.2357
C6_2 C 0.69628(12) 0.74286(17) 0.17857(19)
C7_2 C 0.67925(12) 0.75959(17) 0.10853(19)
H3_2 H 0.6442 0.7464 0.1003
C8_2 C 0.84371(14) 0.82007(21) 0.1462(3)
C9_2 C 0.65912(13) 0.70201(18) 0.2384(2)
C10_2 C 0.67169(14) 0.66616(20) 0.2724(2)
H4_2 H 0.7027 0.6682 0.2581
C11_2 C 0.63748(14) 0.62699(21) 0.3283(2)
H5_2 H 0.6462 0.6035 0.3496
C12_2 C 0.59087(13) 0.62351(18) 0.35149(19)
C13_2 C 0.57783(14) 0.65863(21) 0.3171(2)
H6_2 H 0.5467 0.6563 0.3315
C14_2 C 0.61169(15) 0.69768(21) 0.2607(2)
H7_2 H 0.6024 0.7205 0.2384
C15_2 C 0.55469(13) 0.58015(19) 0.41021(19)
Cu2_2 Cu 0.842947(13) 0.715456(23) 0.18059(2)
Cu3_2 Cu 0.539176(19) 0.490387(24) 0.51393(2)
Cu4_2 Cu 0.460824(19) 0.509613(24) 0.48607(2)
Cu1_2 Cu 0.617877(14) 0.794157(19) 0.84726(2)
O1_2 O 0.64860(9) 0.78385(13) 0.95340(13)
O2_2 O 0.73083(9) 0.84770(13) 0.92689(14)
C1_2 C 0.69667(13) 0.81070(18) 0.97085(18)
Cu5_2 Cu 0.715456(14) 0.872510(19) 0.81941(2)
O7_2 O 0.60250(9) 0.81897(13) 0.73978(14)
O8_2 O 0.53874(13) 0.72958(16) 0.86042(15)
O9_2 O 0.64823(10) 0.76023(16) 0.77792(15)
O10_2 O 0.60353(9) 0.84239(16) 0.91320(15)
O3_3 O 0.13916(20) 0.01437(16) 0.1081(3)
O4_3 O 0.20541(13) 0.06291(9) 0.19375(15)
O5_3 O 0.44534(13) 0.01844(10) 0.44459(15)
H2_3 H 0.2471 0.0084 0.2357
C8_3 C 0.17993(21) 0.02364(15) 0.1462(3)
C10_3 C 0.33384(20) 0.00553(14) 0.2724(2)
H4_3 H 0.3318 0.0345 0.2581
C11_3 C 0.37301(21) 0.01049(15) 0.3283(2)
H5_3 H 0.3965 0.0427 0.3496
Cu2_3 Cu 0.284544(23) 0.127490(19) 0.18059(2)
Cu3_3 Cu 0.509613(24) 0.048790(14) 0.51393(2)
O6_3 O 0.42780(13) 0.93686(9) 0.42013(15)
C2_3 C 0.20382(17) 0.91874(12) 0.05094(19)
C3_3 C 0.18256(18) 0.95083(13) 0.0650(2)
H1_3 H 0.1574 0.9492 0.0292
C4_3 C 0.19934(18) 0.98532(13) 0.1331(2)
C5_3 C 0.23649(18) 0.98606(13) 0.19028(19)
C6_3 C 0.25714(17) 0.95342(12) 0.17857(19)
C7_3 C 0.24041(17) 0.91966(12) 0.10853(19)
H3_3 H 0.2536 0.8978 0.1003
C9_3 C 0.29799(18) 0.95711(13) 0.2384(2)
C12_3 C 0.37649(18) 0.96736(13) 0.35149(19)
C13_3 C 0.34137(21) 0.91920(15) 0.3171(2)
H6_3 H 0.3437 0.8904 0.3315
C14_3 C 0.30232(21) 0.91401(14) 0.2607(2)
H7_3 H 0.2795 0.8819 0.2384
C15_3 C 0.41985(19) 0.97454(14) 0.41021(19)
Cu4_3 Cu 0.490387(24) 0.951210(14) 0.48607(2)
Cu1_3 Cu 0.205843(19) 0.823720(13) 0.84726(2)
O1_3 O 0.21615(13) 0.86475(9) 0.95340(13)
O2_3 O 0.15230(13) 0.88313(10) 0.92689(14)
C1_3 C 0.18930(18) 0.88597(12) 0.97085(18)
Cu5_3 Cu 0.127490(19) 0.842947(13) 0.81941(2)
O7_3 O 0.18103(13) 0.78354(10) 0.73978(14)
O8_3 O 0.27042(16) 0.80917(9) 0.86042(15)
O9_3 O 0.23977(16) 0.88799(13) 0.77792(15)
O10_3 O 0.15761(16) 0.76113(13) 0.91320(15)
O1_4 O 0.80192(9) 0.68473(9) 0.28673(13)
O2_4 O 0.78354(10) 0.60250(9) 0.26022(14)
O3_4 O 0.65230(16) 0.45812(12) 0.4414(3)
O4_4 O 0.60376(9) 0.47583(9) 0.52708(15)
O6_4 O 0.72981(9) 0.82427(9) 0.75346(15)
C1_4 C 0.78070(12) 0.63666(13) 0.30418(18)
C2_4 C 0.74793(12) 0.61841(12) 0.38427(19)
C3_4 C 0.71584(13) 0.56506(13) 0.3983(2)
H1_4 H 0.7175 0.5415 0.3625
C4_4 C 0.68135(13) 0.54735(12) 0.4664(2)
C5_4 C 0.68061(13) 0.58376(12) 0.52361(19)
H2_4 H 0.6583 0.5720 0.5690
C6_4 C 0.71325(12) 0.63705(12) 0.51190(19)
C7_4 C 0.74701(12) 0.65408(12) 0.44186(19)
H3_4 H 0.7689 0.6891 0.4336
C8_4 C 0.64303(15) 0.48962(14) 0.4795(3)
C9_4 C 0.70956(13) 0.67421(13) 0.5717(2)
C10_4 C 0.66114(14) 0.66164(14) 0.6057(2)
H4_4 H 0.6322 0.6306 0.5914
C11_4 C 0.65618(15) 0.69585(14) 0.6616(2)
H5_4 H 0.6240 0.6871 0.6829
C12_4 C 0.69931(13) 0.74246(13) 0.68482(19)
C13_4 C 0.74747(15) 0.75550(14) 0.6504(2)
H6_4 H 0.7763 0.7866 0.6648
C14_4 C 0.75266(14) 0.72164(15) 0.5940(2)
H7_4 H 0.7848 0.7309 0.5717
C15_4 C 0.69213(14) 0.77864(13) 0.74354(19)
Cu5_4 Cu 0.823720(13) 0.617877(14) 0.15274(2)
O7_4 O 0.88313(10) 0.73083(9) 0.07311(14)
O9_4 O 0.77867(13) 0.68511(10) 0.11126(15)
O10_4 O 0.90553(13) 0.72981(9) 0.24654(15)
O1_5 O 0.31527(9) 0.11718(13) 0.28673(13)
O2_5 O 0.39750(9) 0.18103(13) 0.26022(14)
O3_5 O 0.54188(12) 0.19417(20) 0.4414(3)
O4_5 O 0.52417(9) 0.12792(13) 0.52708(15)
C1_5 C 0.36334(13) 0.14403(18) 0.30418(18)
C2_5 C 0.38159(12) 0.12951(17) 0.38427(19)
C3_5 C 0.43494(13) 0.15077(18) 0.3983(2)
H1_5 H 0.4585 0.1759 0.3625
C4_5 C 0.45265(12) 0.13399(18) 0.4664(2)
C5_5 C 0.41624(12) 0.09684(18) 0.52361(19)
H2_5 H 0.4280 0.0862 0.5690
C6_5 C 0.36295(12) 0.07619(17) 0.51190(19)
C7_5 C 0.34592(12) 0.09292(17) 0.44186(19)
H3_5 H 0.3109 0.0797 0.4336
C8_5 C 0.51038(14) 0.15340(21) 0.4795(3)
C9_5 C 0.32579(13) 0.03534(18) 0.5717(2)
H4_5 H 0.3694 0.0015 0.5914
C14_5 C 0.27836(15) 0.03101(21) 0.5940(2)
H7_5 H 0.2691 0.0538 0.5717
Cu5_5 Cu 0.382123(14) 0.205843(19) 0.15274(2)
O7_5 O 0.26917(9) 0.15230(13) 0.07311(14)
O9_5 O 0.31489(10) 0.09357(16) 0.11126(15)
O10_5 O 0.27019(9) 0.17573(16) 0.24654(15)
O6_5 O 0.17573(9) 0.90553(13) 0.75346(15)
C10_5 C 0.33836(14) 0.99949(20) 0.6057(2)
C11_5 C 0.30415(14) 0.96032(21) 0.6616(2)
H5_5 H 0.3129 0.9368 0.6829
C12_5 C 0.25754(13) 0.95684(18) 0.68482(19)
C13_5 C 0.24450(14) 0.99196(21) 0.6504(2)
H6_5 H 0.2134 0.9896 0.6648
C15_5 C 0.22136(13) 0.91348(19) 0.74354(19)
O6_6 O 0.09447(13) 0.27019(9) 0.75346(15)
C10_6 C 0.00051(20) 0.33886(14) 0.6057(2)
C11_6 C 0.03968(21) 0.34382(15) 0.6616(2)
H5_6 H 0.0632 0.3760 0.6829
C12_6 C 0.04316(18) 0.30069(13) 0.68482(19)
C13_6 C 0.00804(21) 0.25253(15) 0.6504(2)
H6_6 H 0.0104 0.2237 0.6648
C15_6 C 0.08652(19) 0.30787(14) 0.74354(19)
O1_6 O 0.88282(13) 0.19808(9) 0.28673(13)
O2_6 O 0.81897(13) 0.21646(10) 0.26022(14)
O3_6 O 0.80583(20) 0.34770(16) 0.4414(3)
O4_6 O 0.87208(13) 0.39624(9) 0.52708(15)
C1_6 C 0.85597(18) 0.21930(12) 0.30418(18)
C2_6 C 0.87049(17) 0.25207(12) 0.38427(19)
C3_6 C 0.84923(18) 0.28416(13) 0.3983(2)
H1_6 H 0.8241 0.2825 0.3625
C4_6 C 0.86601(18) 0.31865(13) 0.4664(2)
C5_6 C 0.90316(18) 0.31939(13) 0.52361(19)
H2_6 H 0.9138 0.3417 0.5690
C6_6 C 0.92381(17) 0.28675(12) 0.51190(19)
C7_6 C 0.90708(17) 0.25299(12) 0.44186(19)
H3_6 H 0.9203 0.2311 0.4336
C8_6 C 0.84660(21) 0.35697(15) 0.4795(3)
C9_6 C 0.96466(18) 0.29044(13) 0.5717(2)
H4_6 H 0.9985 0.3678 0.5914
C14_6 C 0.96899(21) 0.24734(14) 0.5940(2)
H7_6 H 0.9462 0.2152 0.5717
Cu5_6 Cu 0.794157(19) 0.176280(13) 0.15274(2)
O7_6 O 0.84770(13) 0.11687(10) 0.07311(14)
O9_6 O 0.90643(16) 0.22133(13) 0.11126(15)
O10_6 O 0.82427(16) 0.09447(13) 0.24654(15)
O6_7 O 0.39647(9) 0.15761(9) 0.08680(15)
H5_7 H 0.2906 0.0205 0.0163
C12_7 C 0.36597(13) 0.07580(13) 0.01816(19)
C15_7 C 0.35879(14) 0.11198(13) 0.07688(19)
O1_7 O 0.46858(9) 0.01807(9) 0.62007(13)
H3_7 H 0.4355 0.0225 0.7670
C9_7 C 0.37622(13) 0.00755(13) 0.9051(2)
C11_7 C 0.32284(15) 0.02919(14) 0.9950(2)
C13_7 C 0.41413(15) 0.08884(14) 0.9838(2)
H6_7 H 0.4429 0.1200 0.9982
C14_7 C 0.41932(14) 0.05498(15) 0.9274(2)
H7_7 H 0.4514 0.0643 0.9051
O7_7 O 0.54980(10) 0.06416(9) 0.40644(14)
O10_7 O 0.57220(13) 0.06314(9) 0.57987(15)
O2_7 O 0.45020(10) 0.93584(9) 0.59356(14)
O3_7 O 0.31896(16) 0.79146(12) 0.7748(3)
C1_7 C 0.44736(12) 0.97000(13) 0.63752(18)
C2_7 C 0.41459(12) 0.95175(12) 0.71761(19)
C3_7 C 0.38250(13) 0.89840(13) 0.7317(2)
H1_7 H 0.3841 0.8749 0.6959
C4_7 C 0.34801(13) 0.88069(12) 0.7998(2)
C5_7 C 0.34727(13) 0.91710(12) 0.85695(19)
H2_7 H 0.3249 0.9054 0.9024
C6_7 C 0.37991(12) 0.97039(12) 0.84524(19)
C7_7 C 0.41367(12) 0.98742(12) 0.77520(19)
C8_7 C 0.30969(15) 0.82296(14) 0.8129(3)
C10_7 C 0.32780(14) 0.99498(14) 0.9391(2)
H4_7 H 0.2988 0.9640 0.9248
O2_8 O 0.06416(9) 0.51437(13) 0.59356(14)
O3_8 O 0.20854(12) 0.52751(20) 0.7748(3)
C1_8 C 0.03000(13) 0.47737(18) 0.63752(18)
C2_8 C 0.04825(12) 0.46285(17) 0.71761(19)
C3_8 C 0.10160(13) 0.48411(18) 0.7317(2)
H1_8 H 0.1251 0.5093 0.6959
C4_8 C 0.11931(12) 0.46733(18) 0.7998(2)
C5_8 C 0.08290(12) 0.43018(18) 0.85695(19)
H2_8 H 0.0946 0.4196 0.9024
C6_8 C 0.02961(12) 0.40953(17) 0.84524(19)
C7_8 C 0.01258(12) 0.42626(17) 0.77520(19)
C8_8 C 0.17704(14) 0.48674(21) 0.8129(3)
C10_8 C 0.00502(14) 0.33283(20) 0.9391(2)
H4_8 H 0.0360 0.3349 0.9248
O6_8 O 0.84239(9) 0.23887(13) 0.08680(15)
H5_8 H 0.9795 0.2702 0.0163
C12_8 C 0.92420(13) 0.29018(18) 0.01816(19)
C15_8 C 0.88802(13) 0.24682(19) 0.07688(19)
O1_8 O 0.98193(9) 0.45052(13) 0.62007(13)
H3_8 H 0.9775 0.4131 0.7670
C9_8 C 0.99245(13) 0.36868(18) 0.9051(2)
C11_8 C 0.97081(14) 0.29366(21) 0.9950(2)
C13_8 C 0.91116(14) 0.32530(21) 0.9838(2)
H6_8 H 0.8800 0.3230 0.9982
C14_8 C 0.94502(15) 0.36435(21) 0.9274(2)
H7_8 H 0.9357 0.3872 0.9051
O7_8 O 0.93584(9) 0.48563(13) 0.40644(14)
O10_8 O 0.93686(9) 0.50906(16) 0.57987(15)
O6_9 O 0.76113(13) 0.60353(9) 0.08680(15)
H5_9 H 0.7298 0.7094 0.0163
C12_9 C 0.70982(18) 0.63403(13) 0.01816(19)
C15_9 C 0.75318(19) 0.64121(14) 0.07688(19)
O1_9 O 0.54948(13) 0.53142(9) 0.62007(13)
O2_9 O 0.48563(13) 0.54980(10) 0.59356(14)
O3_9 O 0.47249(20) 0.68104(16) 0.7748(3)
C1_9 C 0.52263(18) 0.55264(12) 0.63752(18)
C2_9 C 0.53715(17) 0.58541(12) 0.71761(19)
C3_9 C 0.51589(18) 0.61750(13) 0.7317(2)
H1_9 H 0.4907 0.6159 0.6959
C4_9 C 0.53267(18) 0.65199(13) 0.7998(2)
C5_9 C 0.56982(18) 0.65273(13) 0.85695(19)
H2_9 H 0.5804 0.6751 0.9024
C6_9 C 0.59047(17) 0.62009(12) 0.84524(19)
C7_9 C 0.57374(17) 0.58633(12) 0.77520(19)
H3_9 H 0.5869 0.5645 0.7670
C8_9 C 0.51326(21) 0.69031(15) 0.8129(3)
C9_9 C 0.63132(18) 0.62378(13) 0.9051(2)
C10_9 C 0.66717(20) 0.67220(14) 0.9391(2)
H4_9 H 0.6651 0.7012 0.9248
C11_9 C 0.70634(21) 0.67716(15) 0.9950(2)
C13_9 C 0.67470(21) 0.58587(15) 0.9838(2)
H6_9 H 0.6770 0.5571 0.9982
C14_9 C 0.63565(21) 0.58068(14) 0.9274(2)
H7_9 H 0.6128 0.5486 0.9051
O7_9 O 0.51437(13) 0.45020(10) 0.40644(14)
O10_9 O 0.49094(16) 0.42780(13) 0.57987(15)
O3_10 O 0.01437(16) 0.87521(12) 0.8919(3)
O4_7 O 0.06291(9) 0.85750(9) 0.80625(15)
O5_4 O 0.01844(10) 0.57310(9) 0.55541(15)
H2_10 H 0.0084 0.7613 0.7643
C8_10 C 0.02364(15) 0.84371(14) 0.8538(3)
C10_10 C 0.00553(14) 0.67169(14) 0.7276(2)
H4_10 H 0.0345 0.7027 0.7419
C11_10 C 0.01049(15) 0.63748(14) 0.6717(2)
H5_10 H 0.0427 0.6462 0.6504
O1_10 O 0.86475(9) 0.64860(9) 0.04660(13)
C1_10 C 0.88597(12) 0.69667(13) 0.02915(18)
O8_4 O 0.80917(9) 0.53874(13) 0.13958(15)
O9_7 O 0.88799(13) 0.64823(10) 0.22208(15)
C2_10 C 0.91874(12) 0.71492(12) 0.94906(19)
C3_10 C 0.95083(13) 0.76827(13) 0.9350(2)
H1_10 H 0.9492 0.7918 0.9708
C4_10 C 0.98532(13) 0.78598(12) 0.8669(2)
C5_10 C 0.98606(13) 0.74957(12) 0.80972(19)
C6_10 C 0.95342(12) 0.69628(12) 0.82143(19)
C7_10 C 0.91966(12) 0.67925(12) 0.89147(19)
H3_10 H 0.8978 0.6442 0.8997
C9_10 C 0.95711(13) 0.65912(13) 0.7616(2)
C12_10 C 0.96736(13) 0.59087(13) 0.64851(19)
C13_10 C 0.91920(15) 0.57783(14) 0.6829(2)
H6_10 H 0.8904 0.5467 0.6685
C14_10 C 0.91401(14) 0.61169(15) 0.7393(2)
H7_10 H 0.8819 0.6024 0.7616
C15_10 C 0.97454(14) 0.55469(13) 0.58979(19)
O1_11 O 0.35140(9) 0.21615(13) 0.04660(13)
C1_11 C 0.30333(13) 0.18930(18) 0.02915(18)
O8_5 O 0.46126(13) 0.27042(16) 0.13958(15)
O9_8 O 0.35177(10) 0.23977(16) 0.22208(15)
O3_11 O 0.12479(12) 0.13916(20) 0.8919(3)
O4_8 O 0.14250(9) 0.20541(13) 0.80625(15)
O5_5 O 0.42690(9) 0.44534(13) 0.55541(15)
C2_11 C 0.28508(12) 0.20382(17) 0.94906(19)
C3_11 C 0.23173(13) 0.18256(18) 0.9350(2)
H1_11 H 0.2082 0.1574 0.9708
C4_11 C 0.21402(12) 0.19934(18) 0.8669(2)
C5_11 C 0.25043(12) 0.23649(18) 0.80972(19)
H2_11 H 0.2387 0.2471 0.7643
C6_11 C 0.30372(12) 0.25714(17) 0.82143(19)
C7_11 C 0.32075(12) 0.24041(17) 0.89147(19)
H3_11 H 0.3558 0.2536 0.8997
C8_11 C 0.15629(14) 0.17993(21) 0.8538(3)
C9_11 C 0.34088(13) 0.29799(18) 0.7616(2)
C10_11 C 0.32831(14) 0.33384(20) 0.7276(2)
H4_11 H 0.2973 0.3318 0.7419
C11_11 C 0.36252(14) 0.37301(21) 0.6717(2)
H5_11 H 0.3538 0.3965 0.6504
C12_11 C 0.40913(13) 0.37649(18) 0.64851(19)
C13_11 C 0.42217(14) 0.34137(21) 0.6829(2)
H6_11 H 0.4533 0.3437 0.6685
C14_11 C 0.38831(15) 0.30232(21) 0.7393(2)
H7_11 H 0.3976 0.2795 0.7616
C15_11 C 0.44531(13) 0.41985(19) 0.58979(19)
O1_12 O 0.78385(13) 0.13525(9) 0.04660(13)
C1_12 C 0.81070(18) 0.11403(12) 0.02915(18)
O8_6 O 0.72958(16) 0.19083(9) 0.13958(15)
O9_9 O 0.76023(16) 0.11201(13) 0.22208(15)
C2_12 C 0.79618(17) 0.08126(12) 0.94906(19)
C3_12 C 0.81744(18) 0.04917(13) 0.9350(2)
H1_12 H 0.8426 0.0508 0.9708
C4_12 C 0.80066(18) 0.01468(13) 0.8669(2)
C5_12 C 0.76351(18) 0.01394(13) 0.80972(19)
C6_12 C 0.74286(17) 0.04658(12) 0.82143(19)
C7_12 C 0.75959(17) 0.08034(12) 0.89147(19)
H3_12 H 0.7464 0.1022 0.8997
C9_12 C 0.70201(18) 0.04289(13) 0.7616(2)
C12_12 C 0.62351(18) 0.03264(13) 0.64851(19)
C13_12 C 0.65863(21) 0.08080(15) 0.6829(2)
H6_12 H 0.6563 0.1096 0.6685
C14_12 C 0.69768(21) 0.08599(14) 0.7393(2)
H7_12 H 0.7205 0.1181 0.7616
C15_12 C 0.58015(19) 0.02546(14) 0.58979(19)
O3_12 O 0.86084(20) 0.98563(16) 0.8919(3)
O4_9 O 0.79459(13) 0.93709(9) 0.80625(15)
O5_6 O 0.55466(13) 0.98156(10) 0.55541(15)
H2_12 H 0.7529 0.9916 0.7643
C8_12 C 0.82007(21) 0.97636(15) 0.8538(3)
C10_12 C 0.66616(20) 0.99447(14) 0.7276(2)
H4_12 H 0.6682 0.9655 0.7419
C11_12 C 0.62699(21) 0.98951(15) 0.6717(2)
H5_12 H 0.6035 0.9573 0.6504
O1_13 O 0.19808(9) 0.31527(9) 0.71327(13)
O3_13 O 0.34770(16) 0.54188(12) 0.5586(3)
O4_10 O 0.39624(9) 0.52417(9) 0.47292(15)
C1_13 C 0.21930(12) 0.36334(13) 0.69582(18)
C2_13 C 0.25207(12) 0.38159(12) 0.61573(19)
C3_13 C 0.28416(13) 0.43494(13) 0.6017(2)
H1_13 H 0.2825 0.4585 0.6375
C4_13 C 0.31865(13) 0.45265(12) 0.5336(2)
C5_13 C 0.31939(13) 0.41624(12) 0.47639(19)
H2_13 H 0.3417 0.4280 0.4310
C6_13 C 0.28675(12) 0.36295(12) 0.48810(19)
C7_13 C 0.25299(12) 0.34592(12) 0.55814(19)
H3_13 H 0.2311 0.3109 0.5664
C8_13 C 0.35697(15) 0.51038(14) 0.5205(3)
C9_13 C 0.29044(13) 0.32579(13) 0.4283(2)
C10_13 C 0.33886(14) 0.33836(14) 0.3943(2)
H4_13 H 0.3678 0.3694 0.4086
C11_13 C 0.34382(15) 0.30415(14) 0.3384(2)
H5_13 H 0.3760 0.3129 0.3171
C12_13 C 0.30069(13) 0.25754(13) 0.31518(19)
C13_13 C 0.25253(15) 0.24450(14) 0.3496(2)
H6_13 H 0.2237 0.2134 0.3352
C14_13 C 0.24734(14) 0.27836(15) 0.4060(2)
H7_13 H 0.2152 0.2691 0.4283
C15_13 C 0.30787(14) 0.22136(13) 0.25646(19)
O9_10 O 0.22133(13) 0.31489(10) 0.88874(15)
C10_14 C 0.66164(14) 0.00051(20) 0.3943(2)
C11_14 C 0.69585(14) 0.03968(21) 0.3384(2)
H5_14 H 0.6871 0.0632 0.3171
C12_14 C 0.74246(13) 0.04316(18) 0.31518(19)
C13_14 C 0.75550(14) 0.00804(21) 0.3496(2)
H6_14 H 0.7866 0.0104 0.3352
C15_14 C 0.77864(13) 0.08652(19) 0.25646(19)
O1_14 O 0.68473(9) 0.88282(13) 0.71327(13)
O3_14 O 0.45812(12) 0.80583(20) 0.5586(3)
O4_11 O 0.47583(9) 0.87208(13) 0.47292(15)
C1_14 C 0.63666(13) 0.85597(18) 0.69582(18)
C2_14 C 0.61841(12) 0.87049(17) 0.61573(19)
C3_14 C 0.56506(13) 0.84923(18) 0.6017(2)
H1_14 H 0.5415 0.8241 0.6375
C4_14 C 0.54735(12) 0.86601(18) 0.5336(2)
C5_14 C 0.58376(12) 0.90316(18) 0.47639(19)
H2_14 H 0.5720 0.9138 0.4310
C6_14 C 0.63705(12) 0.92381(17) 0.48810(19)
C7_14 C 0.65408(12) 0.90708(17) 0.55814(19)
H3_14 H 0.6891 0.9203 0.5664
C8_14 C 0.48962(14) 0.84660(21) 0.5205(3)
C9_14 C 0.67421(13) 0.96466(18) 0.4283(2)
H4_14 H 0.6306 0.9985 0.4086
C14_14 C 0.72164(15) 0.96899(21) 0.4060(2)
H7_14 H 0.7309 0.9462 0.4283
O9_11 O 0.68511(10) 0.90643(16) 0.88874(15)
O1_15 O 0.11718(13) 0.80192(9) 0.71327(13)
O3_15 O 0.19417(20) 0.65230(16) 0.5586(3)
O4_12 O 0.12792(13) 0.60376(9) 0.47292(15)
C1_15 C 0.14403(18) 0.78070(12) 0.69582(18)
C2_15 C 0.12951(17) 0.74793(12) 0.61573(19)
C3_15 C 0.15077(18) 0.71584(13) 0.6017(2)
H1_15 H 0.1759 0.7175 0.6375
C4_15 C 0.13399(18) 0.68135(13) 0.5336(2)
C5_15 C 0.09684(18) 0.68061(13) 0.47639(19)
H2_15 H 0.0862 0.6583 0.4310
C6_15 C 0.07619(17) 0.71325(12) 0.48810(19)
C7_15 C 0.09292(17) 0.74701(12) 0.55814(19)
H3_15 H 0.0797 0.7689 0.5664
C8_15 C 0.15340(21) 0.64303(15) 0.5205(3)
C9_15 C 0.03534(18) 0.70956(13) 0.4283(2)
H4_15 H 0.0015 0.6322 0.4086
C14_15 C 0.03101(21) 0.75266(14) 0.4060(2)
H7_15 H 0.0538 0.7848 0.4283
O9_12 O 0.09357(16) 0.77867(13) 0.88874(15)
C10_15 C 0.99949(20) 0.66114(14) 0.3943(2)
C11_15 C 0.96032(21) 0.65618(15) 0.3384(2)
H5_15 H 0.9368 0.6240 0.3171
C12_15 C 0.95684(18) 0.69931(13) 0.31518(19)
C13_15 C 0.99196(21) 0.74747(15) 0.3496(2)
H6_15 H 0.9896 0.7763 0.3352
C15_15 C 0.91348(19) 0.69213(14) 0.25646(19)
O3_16 O 0.68104(16) 0.20854(12) 0.2252(3)
C1_16 C 0.55264(12) 0.03000(13) 0.36248(18)
C2_16 C 0.58541(12) 0.04825(12) 0.28239(19)
C3_16 C 0.61750(13) 0.10160(13) 0.2683(2)
H1_16 H 0.6159 0.1251 0.3041
C4_16 C 0.65199(13) 0.11931(12) 0.2002(2)
C5_16 C 0.65273(13) 0.08290(12) 0.14305(19)
H2_16 H 0.6751 0.0946 0.0976
C6_16 C 0.62009(12) 0.02961(12) 0.15476(19)
C7_16 C 0.58633(12) 0.01258(12) 0.22480(19)
C8_16 C 0.69031(15) 0.17704(14) 0.1871(3)
C10_16 C 0.67220(14) 0.00502(14) 0.0609(2)
H4_16 H 0.7012 0.0360 0.0752
O1_16 O 0.53142(9) 0.98193(9) 0.37993(13)
H3_16 H 0.5645 0.9775 0.2330
C9_16 C 0.62378(13) 0.99245(13) 0.0949(2)
C11_16 C 0.67716(15) 0.97081(14) 0.0050(2)
C13_16 C 0.58587(15) 0.91116(14) 0.0162(2)
H6_16 H 0.5571 0.8800 0.0018
C14_16 C 0.58068(14) 0.94502(15) 0.0726(2)
H7_16 H 0.5486 0.9357 0.0949
H5_16 H 0.7094 0.9795 0.9837
C12_16 C 0.63403(13) 0.92420(13) 0.98184(19)
C15_16 C 0.64121(14) 0.88802(13) 0.92312(19)
O1_17 O 0.01807(9) 0.54948(13) 0.37993(13)
H3_17 H 0.0225 0.5869 0.2330
C9_17 C 0.00755(13) 0.63132(18) 0.0949(2)
C11_17 C 0.02919(14) 0.70634(21) 0.0050(2)
C13_17 C 0.08884(14) 0.67470(21) 0.0162(2)
H6_17 H 0.1200 0.6770 0.0018
C14_17 C 0.05498(15) 0.63565(21) 0.0726(2)
H7_17 H 0.0643 0.6128 0.0949
H5_17 H 0.0205 0.7298 0.9837
C12_17 C 0.07580(13) 0.70982(18) 0.98184(19)
C15_17 C 0.11198(13) 0.75318(19) 0.92312(19)
O3_17 O 0.79146(12) 0.47249(20) 0.2252(3)
C1_17 C 0.97000(13) 0.52263(18) 0.36248(18)
C2_17 C 0.95175(12) 0.53715(17) 0.28239(19)
C3_17 C 0.89840(13) 0.51589(18) 0.2683(2)
H1_17 H 0.8749 0.4907 0.3041
C4_17 C 0.88069(12) 0.53267(18) 0.2002(2)
C5_17 C 0.91710(12) 0.56982(18) 0.14305(19)
H2_17 H 0.9054 0.5804 0.0976
C6_17 C 0.97039(12) 0.59047(17) 0.15476(19)
C7_17 C 0.98742(12) 0.57374(17) 0.22480(19)
C8_17 C 0.82296(14) 0.51326(21) 0.1871(3)
C10_17 C 0.99498(14) 0.66717(20) 0.0609(2)
H4_17 H 0.9640 0.6651 0.0752
O1_18 O 0.45052(13) 0.46858(9) 0.37993(13)
O3_18 O 0.52751(20) 0.31896(16) 0.2252(3)
C1_18 C 0.47737(18) 0.44736(12) 0.36248(18)
C2_18 C 0.46285(17) 0.41459(12) 0.28239(19)
C3_18 C 0.48411(18) 0.38250(13) 0.2683(2)
H1_18 H 0.5093 0.3841 0.3041
C4_18 C 0.46733(18) 0.34801(13) 0.2002(2)
C5_18 C 0.43018(18) 0.34727(13) 0.14305(19)
H2_18 H 0.4196 0.3249 0.0976
C6_18 C 0.40953(17) 0.37991(12) 0.15476(19)
C7_18 C 0.42626(17) 0.41367(12) 0.22480(19)
H3_18 H 0.4131 0.4355 0.2330
C8_18 C 0.48674(21) 0.30969(15) 0.1871(3)
C9_18 C 0.36868(18) 0.37622(13) 0.0949(2)
C10_18 C 0.33283(20) 0.32780(14) 0.0609(2)
H4_18 H 0.3349 0.2988 0.0752
C11_18 C 0.29366(21) 0.32284(15) 0.0050(2)
C13_18 C 0.32530(21) 0.41413(15) 0.0162(2)
H6_18 H 0.3230 0.4429 0.0018
C14_18 C 0.36435(21) 0.41932(14) 0.0726(2)
H7_18 H 0.3872 0.4514 0.0949
H5_18 H 0.2702 0.2906 0.9837
C12_18 C 0.29018(18) 0.36597(13) 0.98184(19)
C15_18 C 0.24682(19) 0.35879(14) 0.92312(19)
loop_
_geom_bond_atom_site_label_1
_geom_bond_atom_site_label_2
_geom_bond_site_symmetry_1
_geom_bond_site_symmetry_2
O6 C15 1_555 1_555
C2 C3 1_555 1_555
C3 H1 1_555 1_555
C4 C3 1_555 1_555
C5 C4 1_555 1_555
C6 C5 1_555 1_555
C7 C2 1_555 1_555
H3 C7 1_555 1_555
C9 C6 1_555 1_555
C13 C12 1_555 1_555
H6 C13 1_555 1_555
C14 C9 1_555 1_555
H7 C14 1_555 1_555
C15 C12 1_555 1_555
Cu4 O6 1_555 1_555
C6 C7 1_555 1_555
C13 C14 1_555 1_555
Cu1 O1 1_555 1_555
O1 C1 1_555 1_555
O2 C1 1_555 1_555
Cu5 Cu1 1_555 1_555
O7 Cu1 1_555 1_555
O8 Cu1 1_555 1_555
O9 Cu1 1_555 1_555
O10 Cu1 1_555 1_555
O2 Cu5 1_555 1_555
O3 C8 1_555 1_555
O4 C8 1_555 1_555
H4 C10 1_555 1_555
C11 C10 1_555 1_555
H5 C11 1_555 1_555
Cu2 O4 1_555 1_555
Cu3 O5 1_555 1_555
O3_2 C8_2 1_555 1_555
O4_2 C8_2 1_555 1_555
O5_2 C15_2 1_555 1_555
O6_2 C15_2 1_555 1_555
C2_2 C3_2 1_555 1_555
C3_2 H1_2 1_555 1_555
C4_2 C3_2 1_555 1_555
C5_2 C4_2 1_555 1_555
H2_2 C5_2 1_555 1_555
C6_2 C5_2 1_555 1_555
C7_2 C2_2 1_555 1_555
H3_2 C7_2 1_555 1_555
C8_2 C4_2 1_555 1_555
C9_2 C6_2 1_555 1_555
C10_2 C9_2 1_555 1_555
H4_2 C10_2 1_555 1_555
C11_2 C10_2 1_555 1_555
H5_2 C11_2 1_555 1_555
C12_2 C11_2 1_555 1_555
C13_2 C12_2 1_555 1_555
H6_2 C13_2 1_555 1_555
C14_2 C9_2 1_555 1_555
H7_2 C14_2 1_555 1_555
C15_2 C12_2 1_555 1_555
Cu2_2 O4_2 1_555 1_555
Cu3_2 O5_2 1_555 1_555
Cu4_2 O6_2 1_555 1_555
C6_2 C7_2 1_555 1_555
C13_2 C14_2 1_555 1_555
Cu3_2 Cu4_2 1_555 1_555
Cu1_2 O1_2 1_555 1_555
O1_2 C1_2 1_555 1_555
O2_2 C1_2 1_555 1_555
Cu5_2 Cu1_2 1_555 1_555
O7_2 Cu1_2 1_555 1_555
O8_2 Cu1_2 1_555 1_555
O9_2 Cu1_2 1_555 1_555
O10_2 Cu1_2 1_555 1_555
O2_2 Cu5_2 1_555 1_555
O3_3 C8_3 1_555 1_555
O4_3 C8_3 1_555 1_555
H4_3 C10_3 1_555 1_555
C11_3 C10_3 1_555 1_555
H5_3 C11_3 1_555 1_555
Cu2_3 O4_3 1_555 1_555
Cu3_3 O5_3 1_555 1_555
O6_3 C15_3 1_555 1_555
C2_3 C3_3 1_555 1_555
C3_3 H1_3 1_555 1_555
C4_3 C3_3 1_555 1_555
C5_3 C4_3 1_555 1_555
C6_3 C5_3 1_555 1_555
C7_3 C2_3 1_555 1_555
H3_3 C7_3 1_555 1_555
C9_3 C6_3 1_555 1_555
C13_3 C12_3 1_555 1_555
H6_3 C13_3 1_555 1_555
C14_3 C9_3 1_555 1_555
H7_3 C14_3 1_555 1_555
C15_3 C12_3 1_555 1_555
Cu4_3 O6_3 1_555 1_555
C6_3 C7_3 1_555 1_555
C13_3 C14_3 1_555 1_555
Cu1_3 O1_3 1_555 1_555
O1_3 C1_3 1_555 1_555
O2_3 C1_3 1_555 1_555
Cu5_3 Cu1_3 1_555 1_555
O7_3 Cu1_3 1_555 1_555
O8_3 Cu1_3 1_555 1_555
O9_3 Cu1_3 1_555 1_555
O10_3 Cu1_3 1_555 1_555
O2_3 Cu5_3 1_555 1_555
Cu2_2 O1_4 1_555 1_555
O1_4 C1_4 1_555 1_555
O2_4 C1_4 1_555 1_555
O3_4 C8_4 1_555 1_555
O4_4 C8_4 1_555 1_555
O9_2 C15_4 1_555 1_555
O6_4 C15_4 1_555 1_555
C1_4 C2_4 1_555 1_555
C2_4 C3_4 1_555 1_555
C3_4 H1_4 1_555 1_555
C4_4 C3_4 1_555 1_555
C5_4 C4_4 1_555 1_555
H2_4 C5_4 1_555 1_555
C6_4 C5_4 1_555 1_555
C7_4 C2_4 1_555 1_555
H3_4 C7_4 1_555 1_555
C8_4 C4_4 1_555 1_555
C9_4 C6_4 1_555 1_555
C10_4 C9_4 1_555 1_555
H4_4 C10_4 1_555 1_555
C11_4 C10_4 1_555 1_555
H5_4 C11_4 1_555 1_555
C12_4 C11_4 1_555 1_555
C13_4 C12_4 1_555 1_555
H6_4 C13_4 1_555 1_555
C14_4 C9_4 1_555 1_555
H7_4 C14_4 1_555 1_555
C15_4 C12_4 1_555 1_555
Cu3_2 O4_4 1_555 1_555
Cu5_2 O6_4 1_555 1_555
Cu5_4 Cu2_2 1_555 1_555
O7_4 Cu2_2 1_555 1_555
O9_4 Cu2_2 1_555 1_555
O10_4 Cu2_2 1_555 1_555
O2_4 Cu5_4 1_555 1_555
C6_4 C7_4 1_555 1_555
C13_4 C14_4 1_555 1_555
Cu2_3 O1_5 1_555 1_555
O1_5 C1_5 1_555 1_555
O2_5 C1_5 1_555 1_555
O3_5 C8_5 1_555 1_555
O4_5 C8_5 1_555 1_555
C1_5 C2_5 1_555 1_555
C2_5 C3_5 1_555 1_555
C3_5 H1_5 1_555 1_555
C4_5 C3_5 1_555 1_555
C5_5 C4_5 1_555 1_555
H2_5 C5_5 1_555 1_555
C6_5 C5_5 1_555 1_555
C7_5 C2_5 1_555 1_555
H3_5 C7_5 1_555 1_555
C8_5 C4_5 1_555 1_555
C9_5 C6_5 1_555 1_555
C14_5 C9_5 1_555 1_555
H7_5 C14_5 1_555 1_555
Cu3_3 O4_5 1_555 1_555
Cu5_5 Cu2_3 1_555 1_555
O7_5 Cu2_3 1_555 1_555
O9_5 Cu2_3 1_555 1_555
O10_5 Cu2_3 1_555 1_555
O2_5 Cu5_5 1_555 1_555
C6_5 C7_5 1_555 1_555
O9_3 C15_5 1_555 1_555
O6_5 C15_5 1_555 1_555
C11_5 C10_5 1_555 1_555
H5_5 C11_5 1_555 1_555
C12_5 C11_5 1_555 1_555
C13_5 C12_5 1_555 1_555
H6_5 C13_5 1_555 1_555
C15_5 C12_5 1_555 1_555
Cu5_3 O6_5 1_555 1_555
O9 C15_6 1_555 1_555
O6_6 C15_6 1_555 1_555
C11_6 C10_6 1_555 1_555
H5_6 C11_6 1_555 1_555
C12_6 C11_6 1_555 1_555
C13_6 C12_6 1_555 1_555
H6_6 C13_6 1_555 1_555
C15_6 C12_6 1_555 1_555
Cu5 O6_6 1_555 1_555
Cu2 O1_6 1_555 1_555
O1_6 C1_6 1_555 1_555
O2_6 C1_6 1_555 1_555
O3_6 C8_6 1_555 1_555
O4_6 C8_6 1_555 1_555
C1_6 C2_6 1_555 1_555
C2_6 C3_6 1_555 1_555
C3_6 H1_6 1_555 1_555
C4_6 C3_6 1_555 1_555
C5_6 C4_6 1_555 1_555
H2_6 C5_6 1_555 1_555
C6_6 C5_6 1_555 1_555
C7_6 C2_6 1_555 1_555
H3_6 C7_6 1_555 1_555
C8_6 C4_6 1_555 1_555
C9_6 C6_6 1_555 1_555
C14_6 C9_6 1_555 1_555
H7_6 C14_6 1_555 1_555
Cu3 O4_6 1_555 1_555
Cu5_6 Cu2 1_555 1_555
O7_6 Cu2 1_555 1_555
O9_6 Cu2 1_555 1_555
O10_6 Cu2 1_555 1_555
O2_6 Cu5_6 1_555 1_555
C6_6 C7_6 1_555 1_555
O9_5 C15_7 1_555 1_555
O6_7 C15_7 1_555 1_555
C15_7 C12_7 1_555 1_555
Cu5_5 O6_7 1_555 1_555
Cu3_3 O1_7 1_555 1_555
H6_7 C13_7 1_555 1_555
C14_7 C9_7 1_555 1_555
H7_7 C14_7 1_555 1_555
O7_7 Cu3_3 1_555 1_555
O10_7 Cu3_3 1_555 1_555
C13_7 C14_7 1_555 1_555
O2_7 C1_7 1_555 1_555
O3_7 C8_7 1_555 1_555
O8_3 C8_7 1_555 1_555
C1_7 C2_7 1_555 1_555
C2_7 C3_7 1_555 1_555
C3_7 H1_7 1_555 1_555
C4_7 C3_7 1_555 1_555
C5_7 C4_7 1_555 1_555
H2_7 C5_7 1_555 1_555
C6_7 C5_7 1_555 1_555
C7_7 C2_7 1_555 1_555
C8_7 C4_7 1_555 1_555
H4_7 C10_7 1_555 1_555
O2_7 Cu4_3 1_555 1_555
C6_7 C7_7 1_555 1_555
O2_8 C1_8 1_555 1_555
O3_8 C8_8 1_555 1_555
O8 C8_8 1_555 1_555
C1_8 C2_8 1_555 1_555
C2_8 C3_8 1_555 1_555
C3_8 H1_8 1_555 1_555
C4_8 C3_8 1_555 1_555
C5_8 C4_8 1_555 1_555
H2_8 C5_8 1_555 1_555
C6_8 C5_8 1_555 1_555
C7_8 C2_8 1_555 1_555
C8_8 C4_8 1_555 1_555
H4_8 C10_8 1_555 1_555
O2_8 Cu4 1_555 1_555
C6_8 C7_8 1_555 1_555
O9_6 C15_8 1_555 1_555
O6_8 C15_8 1_555 1_555
C15_8 C12_8 1_555 1_555
Cu5_6 O6_8 1_555 1_555
Cu3 O1_8 1_555 1_555
H6_8 C13_8 1_555 1_555
C14_8 C9_8 1_555 1_555
H7_8 C14_8 1_555 1_555
O7_8 Cu3 1_555 1_555
O10_8 Cu3 1_555 1_555
C13_8 C14_8 1_555 1_555
O9_4 C15_9 1_555 1_555
O6_9 C15_9 1_555 1_555
C15_9 C12_9 1_555 1_555
Cu5_4 O6_9 1_555 1_555
Cu3_2 O1_9 1_555 1_555
O1_9 C1_9 1_555 1_555
O2_9 C1_9 1_555 1_555
O3_9 C8_9 1_555 1_555
O8_2 C8_9 1_555 1_555
C1_9 C2_9 1_555 1_555
C2_9 C3_9 1_555 1_555
C3_9 H1_9 1_555 1_555
C4_9 C3_9 1_555 1_555
C5_9 C4_9 1_555 1_555
H2_9 C5_9 1_555 1_555
C6_9 C5_9 1_555 1_555
C7_9 C2_9 1_555 1_555
H3_9 C7_9 1_555 1_555
C8_9 C4_9 1_555 1_555
C9_9 C6_9 1_555 1_555
C10_9 C9_9 1_555 1_555
H4_9 C10_9 1_555 1_555
C11_9 C10_9 1_555 1_555
H6_9 C13_9 1_555 1_555
C14_9 C9_9 1_555 1_555
H7_9 C14_9 1_555 1_555
O7_9 Cu3_2 1_555 1_555
O10_9 Cu3_2 1_555 1_555
O2_9 Cu4_2 1_555 1_555
C6_9 C7_9 1_555 1_555
C13_9 C14_9 1_555 1_555
O3_10 C8_10 1_555 1_555
O4_7 C8_10 1_555 1_555
H4_10 C10_10 1_555 1_555
C11_10 C10_10 1_555 1_555
H5_10 C11_10 1_555 1_555
Cu5_3 O4_7 1_555 1_555
Cu4 O5_4 1_555 1_555
Cu5_4 O1_10 1_555 1_555
O1_10 C1_10 1_555 1_555
O7_4 C1_10 1_555 1_555
O8_4 Cu5_4 1_555 1_555
O9_7 Cu5_4 1_555 1_555
O10_8 C15_10 1_555 1_555
C2_10 C3_10 1_555 1_555
C3_10 H1_10 1_555 1_555
C4_10 C3_10 1_555 1_555
C5_10 C4_10 1_555 1_555
C6_10 C5_10 1_555 1_555
C7_10 C2_10 1_555 1_555
H3_10 C7_10 1_555 1_555
C9_10 C6_10 1_555 1_555
C13_10 C12_10 1_555 1_555
H6_10 C13_10 1_555 1_555
C14_10 C9_10 1_555 1_555
H7_10 C14_10 1_555 1_555
C15_10 C12_10 1_555 1_555
C6_10 C7_10 1_555 1_555
C13_10 C14_10 1_555 1_555
Cu5_5 O1_11 1_555 1_555
O1_11 C1_11 1_555 1_555
O7_5 C1_11 1_555 1_555
O8_5 Cu5_5 1_555 1_555
O9_8 Cu5_5 1_555 1_555
O3_11 C8_11 1_555 1_555
O4_8 C8_11 1_555 1_555
O5_5 C15_11 1_555 1_555
O10_9 C15_11 1_555 1_555
C2_11 C3_11 1_555 1_555
C3_11 H1_11 1_555 1_555
C4_11 C3_11 1_555 1_555
C5_11 C4_11 1_555 1_555
H2_11 C5_11 1_555 1_555
C6_11 C5_11 1_555 1_555
C7_11 C2_11 1_555 1_555
H3_11 C7_11 1_555 1_555
C8_11 C4_11 1_555 1_555
C9_11 C6_11 1_555 1_555
C10_11 C9_11 1_555 1_555
H4_11 C10_11 1_555 1_555
C11_11 C10_11 1_555 1_555
H5_11 C11_11 1_555 1_555
C12_11 C11_11 1_555 1_555
C13_11 C12_11 1_555 1_555
H6_11 C13_11 1_555 1_555
C14_11 C9_11 1_555 1_555
H7_11 C14_11 1_555 1_555
C15_11 C12_11 1_555 1_555
Cu5 O4_8 1_555 1_555
Cu4_2 O5_5 1_555 1_555
C6_11 C7_11 1_555 1_555
C13_11 C14_11 1_555 1_555
Cu5_6 O1_12 1_555 1_555
O1_12 C1_12 1_555 1_555
O7_6 C1_12 1_555 1_555
O8_6 Cu5_6 1_555 1_555
O9_9 Cu5_6 1_555 1_555
O10_7 C15_12 1_555 1_555
C2_12 C3_12 1_555 1_555
C3_12 H1_12 1_555 1_555
C4_12 C3_12 1_555 1_555
C5_12 C4_12 1_555 1_555
C6_12 C5_12 1_555 1_555
C7_12 C2_12 1_555 1_555
H3_12 C7_12 1_555 1_555
C9_12 C6_12 1_555 1_555
C13_12 C12_12 1_555 1_555
H6_12 C13_12 1_555 1_555
C14_12 C9_12 1_555 1_555
H7_12 C14_12 1_555 1_555
C15_12 C12_12 1_555 1_555
C6_12 C7_12 1_555 1_555
C13_12 C14_12 1_555 1_555
O3_12 C8_12 1_555 1_555
O4_9 C8_12 1_555 1_555
H4_12 C10_12 1_555 1_555
C11_12 C10_12 1_555 1_555
H5_12 C11_12 1_555 1_555
Cu5_2 O4_9 1_555 1_555
Cu4_3 O5_6 1_555 1_555
Cu5 O1_13 1_555 1_555
O1_13 C1_13 1_555 1_555
O7 C1_13 1_555 1_555
O3_13 C8_13 1_555 1_555
O4_10 C8_13 1_555 1_555
O9_8 C15_13 1_555 1_555
O10_5 C15_13 1_555 1_555
C1_13 C2_13 1_555 1_555
C2_13 C3_13 1_555 1_555
C3_13 H1_13 1_555 1_555
C4_13 C3_13 1_555 1_555
C5_13 C4_13 1_555 1_555
H2_13 C5_13 1_555 1_555
C6_13 C5_13 1_555 1_555
C7_13 C2_13 1_555 1_555
H3_13 C7_13 1_555 1_555
C8_13 C4_13 1_555 1_555
C9_13 C6_13 1_555 1_555
C10_13 C9_13 1_555 1_555
H4_13 C10_13 1_555 1_555
C11_13 C10_13 1_555 1_555
H5_13 C11_13 1_555 1_555
C12_13 C11_13 1_555 1_555
C13_13 C12_13 1_555 1_555
H6_13 C13_13 1_555 1_555
C14_13 C9_13 1_555 1_555
H7_13 C14_13 1_555 1_555
C15_13 C12_13 1_555 1_555
Cu4_2 O4_10 1_555 1_555
O9_10 Cu5 1_555 1_555
C6_13 C7_13 1_555 1_555
C13_13 C14_13 1_555 1_555
O9_9 C15_14 1_555 1_555
O10_6 C15_14 1_555 1_555
C11_14 C10_14 1_555 1_555
H5_14 C11_14 1_555 1_555
C12_14 C11_14 1_555 1_555
C13_14 C12_14 1_555 1_555
H6_14 C13_14 1_555 1_555
C15_14 C12_14 1_555 1_555
Cu5_2 O1_14 1_555 1_555
O1_14 C1_14 1_555 1_555
O7_2 C1_14 1_555 1_555
O3_14 C8_14 1_555 1_555
O4_11 C8_14 1_555 1_555
C1_14 C2_14 1_555 1_555
C2_14 C3_14 1_555 1_555
C3_14 H1_14 1_555 1_555
C4_14 C3_14 1_555 1_555
C5_14 C4_14 1_555 1_555
H2_14 C5_14 1_555 1_555
C6_14 C5_14 1_555 1_555
C7_14 C2_14 1_555 1_555
H3_14 C7_14 1_555 1_555
C8_14 C4_14 1_555 1_555
C9_14 C6_14 1_555 1_555
C14_14 C9_14 1_555 1_555
H7_14 C14_14 1_555 1_555
Cu4_3 O4_11 1_555 1_555
O9_11 Cu5_2 1_555 1_555
C6_14 C7_14 1_555 1_555
Cu5_3 O1_15 1_555 1_555
O1_15 C1_15 1_555 1_555
O7_3 C1_15 1_555 1_555
O3_15 C8_15 1_555 1_555
O4_12 C8_15 1_555 1_555
C1_15 C2_15 1_555 1_555
C2_15 C3_15 1_555 1_555
C3_15 H1_15 1_555 1_555
C4_15 C3_15 1_555 1_555
C5_15 C4_15 1_555 1_555
H2_15 C5_15 1_555 1_555
C6_15 C5_15 1_555 1_555
C7_15 C2_15 1_555 1_555
H3_15 C7_15 1_555 1_555
C8_15 C4_15 1_555 1_555
C9_15 C6_15 1_555 1_555
C14_15 C9_15 1_555 1_555
H7_15 C14_15 1_555 1_555
Cu4 O4_12 1_555 1_555
O9_12 Cu5_3 1_555 1_555
C6_15 C7_15 1_555 1_555
O9_7 C15_15 1_555 1_555
O10_4 C15_15 1_555 1_555
C11_15 C10_15 1_555 1_555
H5_15 C11_15 1_555 1_555
C12_15 C11_15 1_555 1_555
C13_15 C12_15 1_555 1_555
H6_15 C13_15 1_555 1_555
C15_15 C12_15 1_555 1_555
O7_7 C1_16 1_555 1_555
O3_16 C8_16 1_555 1_555
O8_6 C8_16 1_555 1_555
C1_16 C2_16 1_555 1_555
C2_16 C3_16 1_555 1_555
C3_16 H1_16 1_555 1_555
C4_16 C3_16 1_555 1_555
C5_16 C4_16 1_555 1_555
H2_16 C5_16 1_555 1_555
C6_16 C5_16 1_555 1_555
C7_16 C2_16 1_555 1_555
C8_16 C4_16 1_555 1_555
H4_16 C10_16 1_555 1_555
C6_16 C7_16 1_555 1_555
Cu4_3 O1_16 1_555 1_555
H6_16 C13_16 1_555 1_555
C14_16 C9_16 1_555 1_555
H7_16 C14_16 1_555 1_555
C13_16 C14_16 1_555 1_555
O9_11 C15_16 1_555 1_555
O10_2 C15_16 1_555 1_555
C15_16 C12_16 1_555 1_555
Cu4 O1_17 1_555 1_555
H6_17 C13_17 1_555 1_555
C14_17 C9_17 1_555 1_555
H7_17 C14_17 1_555 1_555
C13_17 C14_17 1_555 1_555
O9_12 C15_17 1_555 1_555
O10_3 C15_17 1_555 1_555
C15_17 C12_17 1_555 1_555
O7_8 C1_17 1_555 1_555
O3_17 C8_17 1_555 1_555
O8_4 C8_17 1_555 1_555
C1_17 C2_17 1_555 1_555
C2_17 C3_17 1_555 1_555
C3_17 H1_17 1_555 1_555
C4_17 C3_17 1_555 1_555
C5_17 C4_17 1_555 1_555
H2_17 C5_17 1_555 1_555
C6_17 C5_17 1_555 1_555
C7_17 C2_17 1_555 1_555
C8_17 C4_17 1_555 1_555
H4_17 C10_17 1_555 1_555
C6_17 C7_17 1_555 1_555
Cu4_2 O1_18 1_555 1_555
O1_18 C1_18 1_555 1_555
O7_9 C1_18 1_555 1_555
O3_18 C8_18 1_555 1_555
O8_5 C8_18 1_555 1_555
C1_18 C2_18 1_555 1_555
C2_18 C3_18 1_555 1_555
C3_18 H1_18 1_555 1_555
C4_18 C3_18 1_555 1_555
C5_18 C4_18 1_555 1_555
H2_18 C5_18 1_555 1_555
C6_18 C5_18 1_555 1_555
C7_18 C2_18 1_555 1_555
H3_18 C7_18 1_555 1_555
C8_18 C4_18 1_555 1_555
C9_18 C6_18 1_555 1_555
C10_18 C9_18 1_555 1_555
H4_18 C10_18 1_555 1_555
C11_18 C10_18 1_555 1_555
H6_18 C13_18 1_555 1_555
C14_18 C9_18 1_555 1_555
H7_18 C14_18 1_555 1_555
C6_18 C7_18 1_555 1_555
C13_18 C14_18 1_555 1_555
O9_10 C15_18 1_555 1_555
O10 C15_18 1_555 1_555
C15_18 C12_18 1_555 1_555

#END
