
###############################################################################
#
# This file contains modified crystal structure data generated from the
# MOF subset of the Cambridge Structural Database (CSD) v543 
# hosted by the Cambridge Crystallographic Data Centre (CCDC).
#
# This work is licensed under the Creative Commons
# Attribution-NonCommercial-ShareAlike 4.0 International License.
# To view a copy of this license, visit
# http://creativecommons.org/licenses/by-nc-sa/4.0/
# or send a letter to
# Creative Commons, PO Box 1866, Mountain View, CA 94042, USA.
#
# CIF created using the CSD Python API on 29 September 2022
# The structure has been converted into the P1 space group
# The structure has a 3D framework
# The original CSD entry HOYROE is in the orthorhombic crystal system
# The original CSD entry HOYROE is in a Sohncke space group
# The framework has been calculated to contain at least 10.0% void space
# The void calculation uses a probe of radius 1.32A, grid spacing 0.4
#
###############################################################################

data_HOYROE
_chemical_formula_moiety         '(C72 H52 Ba9 Li8 N28 O46)n'
_symmetry_cell_setting           triclinic
_symmetry_space_group_name_H-M   'P 1'
_symmetry_Int_Tables_number      1
_space_group_name_Hall           'P 1'
loop_
_symmetry_equiv_pos_site_id
_symmetry_equiv_pos_as_xyz
1 x,y,z
_cell_length_a                   10.8783(3)
_cell_length_b                   28.3945(7)
_cell_length_c                   9.2141(2)
_cell_angle_alpha                90
_cell_angle_beta                 90
_cell_angle_gamma                90
_cell_volume                     2846.09
loop_
_atom_site_label
_atom_site_type_symbol
_atom_site_fract_x
_atom_site_fract_y
_atom_site_fract_z
Ba6 Ba 0.14080(2) 0.445194(7) 0.02788(2)
Li8 Li 0.0900(7) 0.6613(2) 0.1575(9)
Li12 Li 0.0818(6) 0.8853(2) 0.0591(8)
O12 O 0.0088(3) 0.43460(10) 0.2820(3)
O48 O 0.0766(3) 0.54477(15) 0.8853(3)
Li3 Li 0.7223(6) 0.4396(2) 0.0884(7)
O1 O 0.0747(3) 0.34533(10) 0.0785(3)
O2 O 0.2658(2) 0.35896(9) 0.0025(3)
O3 O 0.0823(3) 0.13693(9) 0.0434(4)
C1 C 0.1793(3) 0.33220(14) 0.0344(5)
C2 C 0.2011(3) 0.28053(13) 0.0120(4)
C3 C 0.1374(4) 0.24067(13) 0.0516(4)
H4 H 0.0641 0.2389 0.1075
Li6 Li 0.2777(6) 0.5604(2) 0.0884(7)
O14 O 0.9253(3) 0.65467(10) 0.0785(3)
O15 O 0.7342(2) 0.64104(9) 0.0025(3)
O16 O 0.9177(3) 0.86307(9) 0.0434(4)
C19 C 0.8207(3) 0.66780(14) 0.0344(5)
C20 C 0.7989(3) 0.71947(13) 0.0120(4)
C21 C 0.8626(4) 0.75933(13) 0.0516(4)
H17 H 0.9359 0.7611 0.1075
Ba9 Ba 0.85920(2) 0.554806(7) 0.02788(2)
O35 O 0.7626(3) 0.37347(9) 0.0714(3)
O36 O 0.2374(3) 0.62653(9) 0.0714(3)
O37 O 0.4213(2) 0.44529(10) 0.0614(3)
O38 O 0.5787(2) 0.55471(10) 0.0614(3)
O39 O 0.5821(2) 0.45078(9) 0.2116(3)
O40 O 0.4179(2) 0.54922(9) 0.2116(3)
O49 O 0.8470(3) 0.47275(9) 0.1924(3)
O50 O 0.1530(3) 0.52725(9) 0.1924(3)
Ba2 Ba 0.5000 0.5000 0.82337(3)
Li1 Li 0.4100(7) 0.1613(2) 0.8425(9)
Li2 Li 0.4182(6) 0.3853(2) 0.9409(8)
O4 O 0.2626(3) 0.12653(9) 0.9286(3)
O7 O 0.1720(2) 0.41855(10) 0.7266(3)
O8 O 0.3748(3) 0.42055(9) 0.7681(3)
O9 O 0.7267(2) 0.47477(9) 0.9049(3)
O10 O 0.9234(3) 0.45523(15) 0.8853(3)
O13 O 0.4166(3) 0.16893(12) 0.6340(3)
N1 N 0.2997(3) 0.26627(11) 0.9348(4)
H1 H 0.3550 0.2855 0.8981
N2 N 0.3035(3) 0.21928(11) 0.9207(4)
N3 N 0.2685(3) 0.42856(11) 0.2918(3)
N4 N 0.2217(3) 0.42172(11) 0.4242(3)
H2 H 0.1430 0.4172 0.4412
N5 N 0.7010(3) 0.46605(11) 0.6050(4)
N6 N 0.7302(3) 0.46405(10) 0.4634(4)
H3 H 0.6766 0.4682 0.3930
N7 N 0.5171(4) 0.18297(14) 0.4220(4)
C4 C 0.2042(3) 0.20350(13) 0.9917(4)
C5 C 0.1807(3) 0.15140(13) 0.9892(4)
C6 C 0.4703(3) 0.44411(13) 0.1855(4)
C7 C 0.3896(3) 0.43380(12) 0.3115(4)
C8 C 0.4190(3) 0.43006(12) 0.4598(4)
H5 H 0.4982 0.4322 0.5027
C9 C 0.3087(3) 0.42258(12) 0.5297(5)
C10 C 0.2805(4) 0.41952(12) 0.6868(4)
C11 C 0.8208(3) 0.46200(14) 0.8324(5)
C12 C 0.8089(3) 0.45850(12) 0.6725(5)
C13 C 0.9041(3) 0.45118(14) 0.5749(4)
H6 H 0.9879 0.4449 0.5966
C14 C 0.8515(3) 0.45499(12) 0.4407(4)
C15 C 0.9064(3) 0.45372(13) 0.2935(4)
C16 C 0.5059(5) 0.18167(17) 0.5655(5)
H7 H 0.5751 0.1918 0.6202
C17 C 0.6293(5) 0.1989(2) 0.3525(6)
H8 H 0.6897 0.2076 0.4268
H9 H 0.6113 0.2264 0.2917
H10 H 0.6627 0.1736 0.2919
C18 C 0.4205(6) 0.1677(2) 0.3263(6)
H11 H 0.3543 0.1534 0.3833
H12 H 0.4531 0.1446 0.2575
H13 H 0.3883 0.1949 0.2728
Li4 Li 0.5900(7) 0.8387(2) 0.8425(9)
Li5 Li 0.5818(6) 0.6147(2) 0.9409(8)
O17 O 0.7374(3) 0.87347(9) 0.9286(3)
O20 O 0.8280(2) 0.58145(10) 0.7266(3)
O21 O 0.6252(3) 0.57945(9) 0.7681(3)
O22 O 0.2733(2) 0.52523(9) 0.9049(3)
O26 O 0.5834(3) 0.83107(12) 0.6340(3)
N8 N 0.7003(3) 0.73373(11) 0.9348(4)
H14 H 0.6450 0.7145 0.8981
N9 N 0.6965(3) 0.78072(11) 0.9207(4)
N10 N 0.7315(3) 0.57144(11) 0.2918(3)
N11 N 0.7783(3) 0.57828(11) 0.4242(3)
H15 H 0.8570 0.5828 0.4412
N12 N 0.2990(3) 0.53395(11) 0.6050(4)
N13 N 0.2698(3) 0.53595(10) 0.4634(4)
H16 H 0.3234 0.5318 0.3930
N14 N 0.4829(4) 0.81703(14) 0.4220(4)
C22 C 0.7958(3) 0.79650(13) 0.9917(4)
C23 C 0.8193(3) 0.84860(13) 0.9892(4)
C24 C 0.5297(3) 0.55589(13) 0.1855(4)
C25 C 0.6104(3) 0.56620(12) 0.3115(4)
C26 C 0.5810(3) 0.56994(12) 0.4598(4)
H18 H 0.5018 0.5678 0.5027
C27 C 0.6913(3) 0.57742(12) 0.5297(5)
C28 C 0.7195(4) 0.58048(12) 0.6868(4)
C29 C 0.1792(3) 0.53800(14) 0.8324(5)
C30 C 0.1911(3) 0.54150(12) 0.6725(5)
C31 C 0.0959(3) 0.54882(14) 0.5749(4)
H19 H 0.0121 0.5551 0.5966
C32 C 0.1485(3) 0.54501(12) 0.4407(4)
C33 C 0.0936(3) 0.54628(13) 0.2935(4)
C34 C 0.4941(5) 0.81833(17) 0.5655(5)
H20 H 0.4249 0.8082 0.6202
C35 C 0.3707(5) 0.8011(2) 0.3525(6)
H21 H 0.3103 0.7924 0.4268
H22 H 0.3887 0.7736 0.2917
H23 H 0.3373 0.8264 0.2919
C36 C 0.5795(6) 0.8323(2) 0.3263(6)
H24 H 0.6457 0.8466 0.3833
H25 H 0.5469 0.8554 0.2575
H26 H 0.6117 0.8051 0.2728
Li15 Li 0.2223(6) 0.0604(2) 0.9116(7)
Li16 Li 0.7777(6) 0.9396(2) 0.9116(7)
O29 O 0.5747(3) 0.15467(10) 0.9215(3)
O30 O 0.4253(3) 0.84533(10) 0.9215(3)
O33 O 0.5823(3) 0.36307(9) 0.9566(4)
O34 O 0.4177(3) 0.63693(9) 0.9566(4)
O52 O 0.9912(3) 0.56540(10) 0.2820(3)
Li7 Li 0.9100(7) 0.3387(2) 0.1575(9)
Li11 Li 0.9182(6) 0.1147(2) 0.0591(8)
Ba10 Ba -0.0000 0.0000 0.17663(3)
O43 O 0.2267(2) 0.02523(9) 0.0951(3)
O46 O 0.4234(3) 0.04477(15) 0.1147(3)
O6 O 0.0821(2) 0.04922(9) 0.7884(3)
O11 O 0.3470(3) 0.02725(9) 0.8076(3)
O12_2 O 0.5088(3) 0.06540(10) 0.7180(3)
N5_2 N 0.2010(3) 0.03395(11) 0.3950(4)
N6_2 N 0.2302(3) 0.03595(10) 0.5366(4)
H3_2 H 0.1766 0.0318 0.6070
N7_2 N 0.0171(4) 0.31703(14) 0.5780(4)
C11_2 C 0.3208(3) 0.03800(14) 0.1676(5)
C12_2 C 0.3089(3) 0.04150(12) 0.3275(5)
C13_2 C 0.4041(3) 0.04882(14) 0.4251(4)
H6_2 H 0.4879 0.0551 0.4034
C14_2 C 0.3515(3) 0.04501(12) 0.5593(4)
C15_2 C 0.4064(3) 0.04628(13) 0.7065(4)
C16_2 C 0.0059(5) 0.31833(17) 0.4345(5)
H7_2 H 0.0751 0.3082 0.3798
C17_2 C 0.1293(5) 0.3011(2) 0.6475(6)
H8_2 H 0.1897 0.2924 0.5732
H9_2 H 0.1113 0.2736 0.7083
H10_2 H 0.1627 0.3264 0.7081
Ba5 Ba 0.64080(2) 0.054806(7) 0.97212(2)
Ba10_2 Ba -0.0000 1.0000 0.17663(3)
O42 O 0.3280(2) 0.91855(10) 0.2734(3)
O48_2 O 0.5766(3) 0.95523(15) 0.1147(3)
Ba3 Ba 0.35920(2) 0.945194(7) 0.97212(2)
O18 O 0.0787(2) 0.94529(10) 0.9386(3)
O21_2 O 0.1252(3) 0.92055(9) 0.2319(3)
O26_2 O 0.0834(3) 0.66893(12) 0.3660(3)
N8_2 N 0.2003(3) 0.76627(11) 0.0652(4)
H14_2 H 0.1450 0.7855 0.1019
N9_2 N 0.1965(3) 0.71928(11) 0.0793(4)
N10_2 N 0.2315(3) 0.92856(11) 0.7082(3)
N11_2 N 0.2783(3) 0.92172(11) 0.5758(3)
H15_2 H 0.3570 0.9172 0.5588
C22_2 C 0.2958(3) 0.70350(13) 0.0083(4)
C23_2 C 0.3193(3) 0.65140(13) 0.0108(4)
C24_2 C 0.0297(3) 0.94411(13) 0.8145(4)
C25_2 C 0.1104(3) 0.93380(12) 0.6885(4)
C26_2 C 0.0810(3) 0.93006(12) 0.5402(4)
H18_2 H 0.0018 0.9322 0.4973
C27_2 C 0.1913(3) 0.92258(12) 0.4703(5)
C28_2 C 0.2195(4) 0.91952(12) 0.3132(4)
C36_2 C 0.0795(6) 0.6677(2) 0.6737(6)
H24_2 H 0.1457 0.6534 0.6167
H25_2 H 0.0469 0.6446 0.7425
H26_2 H 0.1117 0.6949 0.7272
O32 O 0.2342(2) 0.85896(9) 0.9975(3)
O52_2 O 0.4912(3) 0.93460(10) 0.7180(3)
C19_2 C 0.3207(3) 0.83220(14) 0.9656(5)
C20_2 C 0.2989(3) 0.78053(13) 0.9880(4)
C21_2 C 0.3626(4) 0.74067(13) 0.9484(4)
H17_2 H 0.4359 0.7389 0.8925
Ba10_3 Ba 1.0000 0.0000 0.17663(3)
O41 O 0.6720(2) 0.08145(10) 0.2734(3)
O5 O 0.9213(2) 0.05471(10) 0.9386(3)
O8_2 O 0.8748(3) 0.07945(9) 0.2319(3)
O13_2 O 0.9166(3) 0.33107(12) 0.3660(3)
N1_2 N 0.7997(3) 0.23373(11) 0.0652(4)
H1_2 H 0.8550 0.2145 0.1019
N2_2 N 0.8035(3) 0.28072(11) 0.0793(4)
N3_2 N 0.7685(3) 0.07144(11) 0.7082(3)
N4_2 N 0.7217(3) 0.07828(11) 0.5758(3)
H2_2 H 0.6430 0.0828 0.5588
C4_2 C 0.7042(3) 0.29650(13) 0.0083(4)
C5_2 C 0.6807(3) 0.34860(13) 0.0108(4)
C6_2 C 0.9703(3) 0.05589(13) 0.8145(4)
C7_2 C 0.8896(3) 0.06620(12) 0.6885(4)
C8_2 C 0.9190(3) 0.06994(12) 0.5402(4)
H5_2 H 0.9982 0.0678 0.4973
C9_2 C 0.8087(3) 0.07742(12) 0.4703(5)
C10_2 C 0.7805(4) 0.08048(12) 0.3132(4)
C18_2 C 0.9205(6) 0.3323(2) 0.6737(6)
H11_2 H 0.8543 0.3466 0.6167
H12_2 H 0.9531 0.3554 0.7425
H13_2 H 0.8883 0.3051 0.7272
O31 O 0.7658(2) 0.14104(9) 0.9975(3)
C1_2 C 0.6793(3) 0.16780(14) 0.9656(5)
C2_2 C 0.7011(3) 0.21947(13) 0.9880(4)
C3_2 C 0.6374(4) 0.25933(13) 0.9484(4)
H4_2 H 0.5641 0.2611 0.8925
Ba10_4 Ba 1.0000 1.0000 0.17663(3)
O44 O 0.7733(2) 0.97477(9) 0.0951(3)
O19 O 0.9179(2) 0.95078(9) 0.7884(3)
O24 O 0.6530(3) 0.97275(9) 0.8076(3)
N12_2 N 0.7990(3) 0.96605(11) 0.3950(4)
N13_2 N 0.7698(3) 0.96405(10) 0.5366(4)
H16_2 H 0.8234 0.9682 0.6070
N14_2 N 0.9829(4) 0.68297(14) 0.5780(4)
C29_2 C 0.6792(3) 0.96200(14) 0.1676(5)
C30_2 C 0.6911(3) 0.95850(12) 0.3275(5)
C31_2 C 0.5959(3) 0.95118(14) 0.4251(4)
H19_2 H 0.5121 0.9449 0.4034
C32_2 C 0.6485(3) 0.95499(12) 0.5593(4)
C33_2 C 0.5936(3) 0.95372(13) 0.7065(4)
C34_2 C 0.9941(5) 0.68167(17) 0.4345(5)
H20_2 H 0.9249 0.6918 0.3798
C35_2 C 0.8707(5) 0.6989(2) 0.6475(6)
H21_2 H 0.8103 0.7076 0.5732
H22_2 H 0.8887 0.7264 0.7083
H23_2 H 0.8373 0.6736 0.7081
loop_
_geom_bond_atom_site_label_1
_geom_bond_atom_site_label_2
_geom_bond_site_symmetry_1
_geom_bond_site_symmetry_2
Ba6 O12 1_555 1_555
O1 C1 1_555 1_555
O2 C1 1_555 1_555
C1 C2 1_555 1_555
C3 C2 1_555 1_555
H4 C3 1_555 1_555
O14 C19 1_555 1_555
O15 C19 1_555 1_555
C19 C20 1_555 1_555
C21 C20 1_555 1_555
H17 C21 1_555 1_555
Ba6 O1 1_555 1_555
O35 Li3 1_555 1_555
O36 Li6 1_555 1_555
O39 Li3 1_555 1_555
O40 Li6 1_555 1_555
O49 Li3 1_555 1_555
O50 Li6 1_555 1_555
O2 Ba6 1_555 1_555
O14 Ba9 1_555 1_555
O15 Ba9 1_555 1_555
Ba6 O37 1_555 1_555
Ba6 O50 1_555 1_555
Ba9 O38 1_555 1_555
Ba9 O49 1_555 1_555
Ba2 O8 1_555 1_555
Li1 O4 1_555 1_555
O4 C5 1_555 1_555
O37 C6 1_555 1_555
O39 C6 1_555 1_555
O7 C10 1_555 1_555
O8 Li2 1_555 1_555
O9 Ba2 1_555 1_555
O10 C11 1_555 1_555
O49 C15 1_555 1_555
O13 Li1 1_555 1_555
N1 H1 1_555 1_555
N2 Li1 1_555 1_555
N3 Ba6 1_555 1_555
N4 N3 1_555 1_555
H2 N4 1_555 1_555
N5 Ba2 1_555 1_555
N6 N5 1_555 1_555
H3 N6 1_555 1_555
N7 C16 1_555 1_555
C4 N2 1_555 1_555
C5 C4 1_555 1_555
C6 C7 1_555 1_555
C7 N3 1_555 1_555
C8 C7 1_555 1_555
H5 C8 1_555 1_555
C9 N4 1_555 1_555
C10 O8 1_555 1_555
C11 O9 1_555 1_555
C12 N5 1_555 1_555
C13 C12 1_555 1_555
H6 C13 1_555 1_555
C14 N6 1_555 1_555
C15 C14 1_555 1_555
C16 O13 1_555 1_555
H7 C16 1_555 1_555
C17 N7 1_555 1_555
H8 C17 1_555 1_555
H9 C17 1_555 1_555
H10 C17 1_555 1_555
C18 N7 1_555 1_555
H11 C18 1_555 1_555
H12 C18 1_555 1_555
H13 C18 1_555 1_555
Li4 O17 1_555 1_555
O17 C23 1_555 1_555
O40 C24 1_555 1_555
O20 C28 1_555 1_555
O21 Ba2 1_555 1_555
O22 Ba2 1_555 1_555
O48 C29 1_555 1_555
O26 Li4 1_555 1_555
N8 H14 1_555 1_555
N9 Li4 1_555 1_555
N10 Ba9 1_555 1_555
N11 N10 1_555 1_555
H15 N11 1_555 1_555
N12 Ba2 1_555 1_555
N13 N12 1_555 1_555
H16 N13 1_555 1_555
N14 C34 1_555 1_555
C22 N9 1_555 1_555
C23 C22 1_555 1_555
C24 O38 1_555 1_555
C25 N10 1_555 1_555
C26 C25 1_555 1_555
H18 C26 1_555 1_555
C27 N11 1_555 1_555
C28 O21 1_555 1_555
C29 O22 1_555 1_555
C30 N12 1_555 1_555
C31 C30 1_555 1_555
H19 C31 1_555 1_555
C32 N13 1_555 1_555
C33 O50 1_555 1_555
C34 O26 1_555 1_555
H20 C34 1_555 1_555
C35 N14 1_555 1_555
H21 C35 1_555 1_555
H22 C35 1_555 1_555
H23 C35 1_555 1_555
C36 N14 1_555 1_555
H24 C36 1_555 1_555
H25 C36 1_555 1_555
H26 C36 1_555 1_555
Li15 O4 1_555 1_555
Li16 O17 1_555 1_555
O29 Li1 1_555 1_555
O30 Li4 1_555 1_555
O33 Li2 1_555 1_555
O34 Li5 1_555 1_555
O52 Ba9 1_555 1_555
N1 N2 1_555 1_555
C8 C9 1_555 1_555
C9 C10 1_555 1_555
C11 C12 1_555 1_555
C13 C14 1_555 1_555
Li5 O21 1_555 1_555
N8 N9 1_555 1_555
C24 C25 1_555 1_555
C26 C27 1_555 1_555
C27 C28 1_555 1_555
C29 C30 1_555 1_555
C31 C32 1_555 1_555
C32 C33 1_555 1_555
Ba10 O43 1_555 1_555
O46 C11_2 1_555 1_555
O11 C15_2 1_555 1_555
O12_2 C15_2 1_555 1_555
N5_2 Ba10 1_555 1_555
N6_2 N5_2 1_555 1_555
H3_2 N6_2 1_555 1_555
N7_2 C16_2 1_555 1_555
C11_2 O43 1_555 1_555
C12_2 N5_2 1_555 1_555
C13_2 C12_2 1_555 1_555
H6_2 C13_2 1_555 1_555
C14_2 N6_2 1_555 1_555
C15_2 C14_2 1_555 1_555
H7_2 C16_2 1_555 1_555
C17_2 N7_2 1_555 1_555
H8_2 C17_2 1_555 1_555
H9_2 C17_2 1_555 1_555
H10_2 C17_2 1_555 1_555
Ba5 O12_2 1_555 1_555
Li15 O6 1_555 1_555
O11 Li15 1_555 1_555
C11_2 C12_2 1_555 1_555
C13_2 C14_2 1_555 1_555
Li8 O36 1_555 1_555
O36 C23_2 1_555 1_555
O18 Ba3 1_555 1_555
O42 C28_2 1_555 1_555
O21_2 Ba10_2 1_555 1_555
O26_2 Li8 1_555 1_555
N8_2 H14_2 1_555 1_555
N9_2 Li8 1_555 1_555
N10_2 Ba3 1_555 1_555
N11_2 N10_2 1_555 1_555
H15_2 N11_2 1_555 1_555
C22_2 N9_2 1_555 1_555
C23_2 C22_2 1_555 1_555
C24_2 O18 1_555 1_555
C25_2 N10_2 1_555 1_555
C26_2 C25_2 1_555 1_555
H18_2 C26_2 1_555 1_555
C27_2 N11_2 1_555 1_555
C28_2 O21_2 1_555 1_555
H24_2 C36_2 1_555 1_555
H25_2 C36_2 1_555 1_555
H26_2 C36_2 1_555 1_555
O30 Ba3 1_555 1_555
O32 Ba3 1_555 1_555
O52_2 Ba3 1_555 1_555
Li12 O21_2 1_555 1_555
N8_2 N9_2 1_555 1_555
C24_2 C25_2 1_555 1_555
C26_2 C27_2 1_555 1_555
C27_2 C28_2 1_555 1_555
O30 C19_2 1_555 1_555
O32 C19_2 1_555 1_555
C19_2 C20_2 1_555 1_555
C21_2 C20_2 1_555 1_555
H17_2 C21_2 1_555 1_555
Ba5 O5 1_555 1_555
Ba10_3 O8_2 1_555 1_555
Li7 O35 1_555 1_555
O35 C5_2 1_555 1_555
O5 C6_2 1_555 1_555
O41 C10_2 1_555 1_555
O8_2 Li11 1_555 1_555
O13_2 Li7 1_555 1_555
N1_2 H1_2 1_555 1_555
N2_2 Li7 1_555 1_555
N3_2 Ba5 1_555 1_555
N4_2 N3_2 1_555 1_555
H2_2 N4_2 1_555 1_555
C4_2 N2_2 1_555 1_555
C5_2 C4_2 1_555 1_555
C6_2 C7_2 1_555 1_555
C7_2 N3_2 1_555 1_555
C8_2 C7_2 1_555 1_555
H5_2 C8_2 1_555 1_555
C9_2 N4_2 1_555 1_555
C10_2 O8_2 1_555 1_555
H11_2 C18_2 1_555 1_555
H12_2 C18_2 1_555 1_555
H13_2 C18_2 1_555 1_555
O29 Ba5 1_555 1_555
O31 Ba5 1_555 1_555
N1_2 N2_2 1_555 1_555
C8_2 C9_2 1_555 1_555
C9_2 C10_2 1_555 1_555
O29 C1_2 1_555 1_555
O31 C1_2 1_555 1_555
C1_2 C2_2 1_555 1_555
C3_2 C2_2 1_555 1_555
H4_2 C3_2 1_555 1_555
Ba10_4 O44 1_555 1_555
O48_2 C29_2 1_555 1_555
O52_2 C33_2 1_555 1_555
N12_2 Ba10_4 1_555 1_555
N13_2 N12_2 1_555 1_555
H16_2 N13_2 1_555 1_555
N14_2 C34_2 1_555 1_555
C29_2 O44 1_555 1_555
C30_2 N12_2 1_555 1_555
C31_2 C30_2 1_555 1_555
H19_2 C31_2 1_555 1_555
C32_2 N13_2 1_555 1_555
C33_2 O24 1_555 1_555
H20_2 C34_2 1_555 1_555
C35_2 N14_2 1_555 1_555
H21_2 C35_2 1_555 1_555
H22_2 C35_2 1_555 1_555
H23_2 C35_2 1_555 1_555
Li16 O19 1_555 1_555
O24 Li16 1_555 1_555
C29_2 C30_2 1_555 1_555
C31_2 C32_2 1_555 1_555
C32_2 C33_2 1_555 1_555

#END
