
###############################################################################
#
# This file contains modified crystal structure data generated from the
# MOF subset of the Cambridge Structural Database (CSD) v543 
# hosted by the Cambridge Crystallographic Data Centre (CCDC).
#
# This work is licensed under the Creative Commons
# Attribution-NonCommercial-ShareAlike 4.0 International License.
# To view a copy of this license, visit
# http://creativecommons.org/licenses/by-nc-sa/4.0/
# or send a letter to
# Creative Commons, PO Box 1866, Mountain View, CA 94042, USA.
#
# CIF created using the CSD Python API on 29 September 2022
# The structure has been converted into the P1 space group
# The structure has a 3D framework
# The original CSD entry HOYSEW is in the rhombohedral crystal system
# The framework has been calculated to contain at least 10.0% void space
# The void calculation uses a probe of radius 1.32A, grid spacing 0.4
#
###############################################################################

data_HOYSEW
_chemical_formula_moiety         '(C288 H288 Cd18 N108 O54)n'
_symmetry_cell_setting           triclinic
_symmetry_space_group_name_H-M   'P 1'
_symmetry_Int_Tables_number      1
_space_group_name_Hall           'P 1'
loop_
_symmetry_equiv_pos_site_id
_symmetry_equiv_pos_as_xyz
1 x,y,z
_cell_length_a                   35.013(2)
_cell_length_b                   35.013(2)
_cell_length_c                   14.6617(7)
_cell_angle_alpha                90
_cell_angle_beta                 90
_cell_angle_gamma                120
_cell_volume                     15565.9
loop_
_atom_site_label
_atom_site_type_symbol
_atom_site_fract_x
_atom_site_fract_y
_atom_site_fract_z
C5 C 0.79738(17) 0.00673(13) 0.4924(3)
H4 H 0.804135 0.035189 0.507918
Cd3 Cd 0.82093(2) 0.05261(3) 0.29171(2)
H9 H 0.730523 0.857743 0.020990
H10 H 0.707487 0.806266 0.013435
C15 C 0.71408(14) 0.65595(14) 0.0198(3)
H13 H 0.695339 0.643296 0.069430
H14 H 0.706502 0.709389 0.013557
Cd2 Cd 0.71928(3) 0.56501(2) 0.04162(2)
C1 C 0.78897(19) 0.95697(15) 0.3853(3)
H1 H 0.789656 0.949963 0.324378
C2 C 0.77768(19) 0.92455(13) 0.4493(3)
H2 H 0.770717 0.896295 0.431536
C3 C 0.77669(12) 0.93410(11) 0.5404(2)
C4 C 0.78625(16) 0.97625(13) 0.5611(3)
H3 H 0.785200 0.984112 0.621266
C6 C 0.76715(12) 0.89967(11) 0.6109(2)
C7 C 0.73317(14) 0.87266(12) 0.8311(3)
C8 C 0.7226(2) 0.90704(17) 0.8659(4)
H5 H 0.742586 0.935104 0.839119
H6 H 0.725707 0.909114 0.931083
H7 H 0.692895 0.898718 0.849707
C9 C 0.7105(2) 0.83247(19) 0.9857(3)
H8 H 0.682221 0.830633 0.983521
C10 C 0.72803(15) 0.83680(13) 0.8911(3)
C11 C 0.75361(11) 0.75542(11) 0.8670(2)
C12 C 0.74705(12) 0.71416(12) 0.9118(2)
C13 C 0.76859(14) 0.69343(13) 0.8769(3)
H11 H 0.787844 0.705701 0.827885
C14 C 0.76132(13) 0.65437(12) 0.9152(3)
H12 H 0.776352 0.640952 0.891546
C16 C 0.72031(15) 0.69554(14) 0.9861(3)
N1 N 0.79897(12) 0.99777(9) 0.4057(2)
N2 N 0.75359(12) 0.90618(10) 0.6901(2)
N3 N 0.74718(11) 0.87291(9) 0.7503(2)
N4 N 0.73934(10) 0.81041(9) 0.8583(2)
N5 N 0.73391(11) 0.77460(10) 0.9086(2)
N6 N 0.73374(10) 0.63508(10) 0.9845(2)
O1 O 0.84142(14) 0.87362(16) 0.7545(4)
H15 H 0.851380 0.896231 0.787981
H16 H 0.841804 0.853665 0.785666
O2 O 0.77217(12) 0.86824(9) 0.58741(19)
O3 O 0.77563(10) 0.76714(10) 0.79471(19)
Cd1 Cd 0.76832(2) 0.82093(2) 0.70829(2)
N7 N 0.80120(15) 0.79897(12) 0.5943(2)
N8 N 0.69825(10) 0.76533(14) 0.6512(2)
C12_2 C 0.28584(12) 0.03289(17) 0.9118(2)
C13_2 C 0.30657(13) 0.07516(19) 0.8769(3)
H11_2 H 0.294299 0.082143 0.827885
C14_2 C 0.34563(12) 0.10695(18) 0.9152(3)
H12_2 H 0.359048 0.135400 0.891546
C16_2 C 0.30446(14) 0.02477(21) 0.9861(3)
N6_2 N 0.36492(10) 0.09866(14) 0.9845(2)
O3_2 O 0.23286(10) 0.00849(14) 0.79471(19)
N7_2 N 0.20103(12) 0.00223(19) 0.5943(2)
C1_2 C 0.04303(15) 0.83200(24) 0.3853(3)
H1_2 H 0.050037 0.839693 0.324378
C2_2 C 0.07545(13) 0.85313(23) 0.4493(3)
H2_2 H 0.103705 0.874422 0.431536
C3_2 C 0.06590(11) 0.84259(16) 0.5404(2)
C4_2 C 0.02375(13) 0.81000(21) 0.5611(3)
H3_2 H 0.015888 0.801088 0.621266
C6_2 C 0.10033(11) 0.86748(16) 0.6109(2)
C7_2 C 0.12734(12) 0.86051(18) 0.8311(3)
C8_2 C 0.09296(17) 0.81556(26) 0.8659(4)
H5_2 H 0.064896 0.807482 0.839119
H6_2 H 0.090886 0.816593 0.931083
H7_2 H 0.101282 0.794177 0.849707
C9_2 C 0.16753(19) 0.87803(28) 0.9857(3)
H8_2 H 0.169367 0.851588 0.983521
C10_2 C 0.16320(13) 0.89123(20) 0.8911(3)
C11_2 C 0.24458(11) 0.99819(16) 0.8670(2)
N1_2 N 0.00223(9) 0.80120(15) 0.4057(2)
N2_2 N 0.09382(10) 0.84741(16) 0.6901(2)
N3_2 N 0.12709(9) 0.87427(14) 0.7503(2)
N4_2 N 0.18959(9) 0.92893(13) 0.8583(2)
N5_2 N 0.22540(10) 0.95931(15) 0.9086(2)
O1_2 O 0.12638(16) 0.96780(21) 0.7545(4)
H15_2 H 0.103769 0.955149 0.787981
H16_2 H 0.146335 0.988139 0.785666
O2_2 O 0.13176(9) 0.90393(15) 0.58741(19)
Cd1_2 Cd 0.17907(2) 0.94739(3) 0.70829(2)
N8_2 N 0.23467(14) 0.93293(17) 0.6512(2)
C5_2 C 0.99327(13) 0.79065(21) 0.4924(3)
H4_2 H 0.964811 0.768946 0.507918
Cd3_2 Cd 0.94739(3) 0.76832(4) 0.29171(2)
C1_3 C 0.16800(24) 0.21103(19) 0.3853(3)
H1_3 H 0.160307 0.210344 0.324378
C2_3 C 0.14687(23) 0.22232(19) 0.4493(3)
H2_3 H 0.125578 0.229283 0.431536
C3_3 C 0.15741(16) 0.22331(12) 0.5404(2)
C4_3 C 0.19000(21) 0.21375(16) 0.5611(3)
H3_3 H 0.198912 0.214800 0.621266
C5_3 C 0.20935(21) 0.20262(17) 0.4924(3)
H4_3 H 0.231054 0.195865 0.507918
C6_3 C 0.13252(16) 0.23285(12) 0.6109(2)
C7_3 C 0.13949(18) 0.26683(14) 0.8311(3)
C8_3 C 0.18444(26) 0.2774(2) 0.8659(4)
H5_3 H 0.192518 0.257414 0.839119
H6_3 H 0.183407 0.274293 0.931083
H7_3 H 0.205823 0.307105 0.849707
C9_3 C 0.12197(28) 0.2895(2) 0.9857(3)
H8_3 H 0.148412 0.317779 0.983521
C10_3 C 0.10877(20) 0.27197(15) 0.8911(3)
C11_3 C 0.00181(16) 0.24639(11) 0.8670(2)
N1_3 N 0.19880(15) 0.20103(12) 0.4057(2)
N2_3 N 0.15259(16) 0.24641(12) 0.6901(2)
N3_3 N 0.12573(14) 0.25282(11) 0.7503(2)
N4_3 N 0.07107(13) 0.26066(10) 0.8583(2)
N5_3 N 0.04069(15) 0.26609(11) 0.9086(2)
O1_3 O 0.03220(21) 0.15858(14) 0.7545(4)
H15_3 H 0.044851 0.148620 0.787981
H16_3 H 0.011861 0.158196 0.785666
O2_3 O 0.09607(15) 0.22783(12) 0.58741(19)
Cd1_3 Cd 0.05261(3) 0.23168(2) 0.70829(2)
N8_3 N 0.06707(17) 0.30175(10) 0.6512(2)
Cd3_3 Cd 0.23168(4) 0.17907(2) 0.29171(2)
C12_3 C 0.96711(17) 0.25295(12) 0.9118(2)
C13_3 C 0.92484(19) 0.23141(14) 0.8769(3)
H11_3 H 0.917857 0.212156 0.827885
C14_3 C 0.89305(18) 0.23868(13) 0.9152(3)
H12_3 H 0.864600 0.223648 0.891546
C16_3 C 0.97523(21) 0.27969(15) 0.9861(3)
N6_3 N 0.90134(14) 0.26626(10) 0.9845(2)
O3_3 O 0.99151(14) 0.22437(10) 0.79471(19)
N7_3 N 0.99777(19) 0.19880(15) 0.5943(2)
C1_4 C 0.45564(19) 0.29030(15) 0.7186(3)
H1_4 H 0.456323 0.283296 0.657711
C2_4 C 0.44435(19) 0.25788(13) 0.7826(3)
H2_4 H 0.437384 0.229628 0.764869
C3_4 C 0.44336(12) 0.26743(11) 0.8737(2)
C4_4 C 0.45292(16) 0.30958(13) 0.8944(3)
H3_4 H 0.451867 0.317445 0.954599
C5_4 C 0.46405(17) 0.34006(13) 0.8257(3)
H4_4 H 0.470802 0.368522 0.841251
C6_4 C 0.43382(12) 0.23300(11) 0.9442(2)
N1_4 N 0.46564(12) 0.33110(9) 0.7390(2)
O2_4 O 0.43884(12) 0.20157(9) 0.92074(19)
N7_4 N 0.46787(15) 0.13230(12) 0.9276(2)
Cd3_4 Cd 0.48760(2) 0.38594(3) 0.62504(2)
C14_4 C 0.42799(13) 0.98770(12) 0.2485(3)
H12_4 H 0.443019 0.974285 0.224879
C15_2 C 0.38075(14) 0.98928(14) 0.3531(3)
H13_2 H 0.362006 0.976629 0.402763
N6_4 N 0.40041(10) 0.96841(10) 0.3178(2)
Cd2_2 Cd 0.38594(3) 0.89835(2) 0.37496(2)
C14_5 C 0.01230(12) 0.44028(18) 0.2485(3)
H12_5 H 0.025715 0.468733 0.224879
C15_3 C 0.01072(14) 0.39146(20) 0.3531(3)
H13_3 H 0.023371 0.385376 0.402763
N6_5 N 0.03159(10) 0.43199(14) 0.3178(2)
Cd2_3 Cd 0.10165(2) 0.48760(4) 0.37496(2)
C1_5 C 0.70970(15) 0.16533(24) 0.7186(3)
H1_5 H 0.716704 0.173026 0.657711
C2_5 C 0.74212(13) 0.18646(23) 0.7826(3)
H2_5 H 0.770372 0.207755 0.764869
C3_5 C 0.73257(11) 0.17592(16) 0.8737(2)
C4_5 C 0.69042(13) 0.14333(21) 0.8944(3)
H3_5 H 0.682555 0.134421 0.954599
C5_5 C 0.65994(13) 0.12398(21) 0.8257(3)
H4_5 H 0.631478 0.102279 0.841251
C6_5 C 0.76700(11) 0.20081(16) 0.9442(2)
N1_5 N 0.66890(9) 0.13453(15) 0.7390(2)
O2_5 O 0.79843(9) 0.23726(15) 0.92074(19)
N7_5 N 0.86770(12) 0.33556(19) 0.9276(2)
Cd3_5 Cd 0.61406(3) 0.10165(4) 0.62504(2)
C7_4 C 0.80616(18) 0.60016(14) 0.1644(3)
C8_4 C 0.85111(26) 0.6107(2) 0.1992(4)
H5_4 H 0.859185 0.590747 0.172452
H6_4 H 0.850074 0.607626 0.264416
H7_4 H 0.872490 0.640438 0.183040
C9_4 C 0.78864(28) 0.6228(2) 0.3190(3)
H8_4 H 0.815079 0.651112 0.316854
H9_2 H 0.793887 0.602810 0.354323
H10_2 H 0.765446 0.625846 0.346768
C10_4 C 0.77544(20) 0.60530(15) 0.2244(3)
C11_4 C 0.66848(16) 0.57972(11) 0.2003(2)
C12_4 C 0.63378(17) 0.58628(12) 0.2451(2)
C13_4 C 0.59151(19) 0.56474(14) 0.2102(3)
H11_4 H 0.584524 0.545489 0.161218
C14_6 C 0.55972(18) 0.57201(13) 0.2485(3)
H12_6 H 0.531267 0.556981 0.224879
C15_4 C 0.60854(20) 0.61925(14) 0.3531(3)
H13_4 H 0.614624 0.637994 0.402763
C16_4 C 0.64190(21) 0.61302(15) 0.3194(3)
H14_2 H 0.669554 0.626831 0.346890
N2_4 N 0.81926(16) 0.57974(12) 0.0234(2)
N3_4 N 0.79240(14) 0.58615(11) 0.0836(2)
N4_4 N 0.73774(13) 0.59399(10) 0.1916(2)
N5_4 N 0.70736(15) 0.59942(11) 0.2419(2)
N6_6 N 0.56801(14) 0.59959(10) 0.3178(2)
O1_4 O 0.69887(21) 0.49191(14) 0.0878(4)
H15_4 H 0.711518 0.481953 0.121314
H16_4 H 0.678528 0.491529 0.118999
O3_4 O 0.65818(14) 0.55770(10) 0.12804(19)
Cd2_4 Cd 0.51240(4) 0.61406(3) 0.37496(2)
C1_6 C 0.83467(24) 0.54436(19) 0.7186(3)
H1_6 H 0.826974 0.543677 0.657711
C2_6 C 0.81354(23) 0.55565(19) 0.7826(3)
H2_6 H 0.792245 0.562616 0.764869
C3_6 C 0.82408(16) 0.55664(12) 0.8737(2)
C4_6 C 0.85667(21) 0.54708(16) 0.8944(3)
H3_6 H 0.865579 0.548133 0.954599
C5_6 C 0.87602(21) 0.53595(17) 0.8257(3)
H4_6 H 0.897721 0.529198 0.841251
C6_6 C 0.79919(16) 0.56618(12) 0.9442(2)
N1_6 N 0.86547(15) 0.53436(12) 0.7390(2)
O2_6 O 0.76274(15) 0.56116(12) 0.92074(19)
N7_6 N 0.66444(19) 0.53213(15) 0.9276(2)
Cd3_6 Cd 0.89835(4) 0.51240(2) 0.62504(2)
C1_7 C 0.12230(19) 0.62364(15) 0.0520(3)
C2_7 C 0.11101(19) 0.59122(13) 0.1160(3)
H2_7 H 0.104050 0.562962 0.098203
C3_7 C 0.11002(12) 0.60077(11) 0.2071(2)
C4_7 C 0.11958(16) 0.64292(13) 0.2278(3)
H3_7 H 0.118533 0.650779 0.287933
C5_7 C 0.13071(17) 0.67340(13) 0.1591(3)
H4_7 H 0.137468 0.701856 0.174585
C6_7 C 0.10048(12) 0.56634(11) 0.2776(2)
C7_5 C 0.06650(14) 0.53933(12) 0.4978(3)
C8_5 C 0.0559(2) 0.57371(17) 0.5326(4)
H5_5 H 0.075919 0.601771 0.505786
H6_5 H 0.059040 0.575781 0.597750
H7_5 H 0.026228 0.565385 0.516374
C9_5 C 0.0438(2) 0.49914(19) 0.6524(3)
H8_5 H 0.015554 0.497300 0.650188
H9_3 H 0.063856 0.524410 0.687657
H10_3 H 0.040820 0.472933 0.680102
C10_5 C 0.06136(15) 0.50347(13) 0.5578(3)
C11_5 C 0.08694(11) 0.42209(11) 0.5337(2)
C12_5 C 0.08038(12) 0.38083(12) 0.5785(2)
C13_5 C 0.10192(14) 0.36010(13) 0.5436(3)
H11_5 H 0.121177 0.372368 0.494552
C14_7 C 0.09465(13) 0.32104(12) 0.5819(3)
H12_7 H 0.109685 0.307619 0.558213
C15_5 C 0.04741(14) 0.32262(14) 0.6865(3)
H13_5 H 0.028672 0.309963 0.736097
C16_5 C 0.05364(15) 0.36221(14) 0.6528(3)
H14_3 H 0.039835 0.376056 0.680224
N1_7 N 0.13230(12) 0.66444(9) 0.0724(2)
N2_5 N 0.08692(12) 0.57285(10) 0.3568(2)
N3_5 N 0.08051(11) 0.53958(9) 0.4170(2)
N4_5 N 0.07267(10) 0.47708(9) 0.5250(2)
N5_5 N 0.06724(11) 0.44127(10) 0.5753(2)
O1_5 O 0.17475(14) 0.54029(16) 0.4212(4)
H15_5 H 0.184713 0.562898 0.454648
H16_5 H 0.175137 0.520332 0.452333
O2_7 O 0.10550(12) 0.53491(9) 0.25408(19)
O3_5 O 0.10896(10) 0.43381(10) 0.46138(19)
N7_7 N 0.13453(15) 0.46564(12) 0.2610(2)
C1_8 C 0.37636(15) 0.49867(24) 0.0520(3)
C2_8 C 0.40878(13) 0.51980(23) 0.1160(3)
H2_8 H 0.437038 0.541089 0.098203
C3_8 C 0.39923(11) 0.50926(16) 0.2071(2)
C4_8 C 0.35708(13) 0.47667(21) 0.2278(3)
H3_8 H 0.349221 0.467755 0.287933
C5_8 C 0.32660(13) 0.45732(21) 0.1591(3)
H4_8 H 0.298144 0.435613 0.174585
C6_8 C 0.43366(11) 0.53415(16) 0.2776(2)
C7_6 C 0.46067(12) 0.52718(18) 0.4978(3)
C8_6 C 0.42629(17) 0.48223(26) 0.5326(4)
H5_6 H 0.398229 0.474149 0.505786
H6_6 H 0.424219 0.483260 0.597750
H7_6 H 0.434615 0.460844 0.516374
C9_6 C 0.50086(19) 0.54470(28) 0.6524(3)
H8_6 H 0.502700 0.518255 0.650188
H9_4 H 0.475590 0.539447 0.687657
H10_4 H 0.527067 0.567888 0.680102
C10_6 C 0.49653(13) 0.55790(20) 0.5578(3)
C11_6 C 0.57791(11) 0.66486(16) 0.5337(2)
C12_6 C 0.61917(12) 0.69956(17) 0.5785(2)
C13_6 C 0.63990(13) 0.74183(19) 0.5436(3)
H11_6 H 0.627632 0.748810 0.494552
C14_8 C 0.67896(12) 0.77362(18) 0.5819(3)
H12_8 H 0.692381 0.802067 0.558213
C15_6 C 0.67738(14) 0.72480(20) 0.6865(3)
H13_6 H 0.690037 0.718710 0.736097
C16_6 C 0.63779(14) 0.69144(21) 0.6528(3)
H14_4 H 0.623944 0.663780 0.680224
N1_8 N 0.33556(9) 0.46787(15) 0.0724(2)
N2_6 N 0.42715(10) 0.51408(16) 0.3568(2)
N3_6 N 0.46042(9) 0.54094(14) 0.4170(2)
N4_6 N 0.52292(9) 0.59560(13) 0.5250(2)
N5_6 N 0.55873(10) 0.62598(15) 0.5753(2)
O1_6 O 0.45971(16) 0.63447(21) 0.4212(4)
H15_6 H 0.437102 0.621816 0.454648
H16_6 H 0.479668 0.654806 0.452333
O2_8 O 0.46509(9) 0.57060(15) 0.25408(19)
O3_6 O 0.56619(10) 0.67516(14) 0.46138(19)
N7_8 N 0.53436(12) 0.66890(19) 0.2610(2)
H1_7 H 0.383370 0.506360 0.991045
Cd3_7 Cd 0.28072(3) 0.43499(4) 0.95838(2)
C1_9 C 0.50133(24) 0.87770(19) 0.0520(3)
C2_9 C 0.48020(23) 0.88899(19) 0.1160(3)
H2_9 H 0.458911 0.895950 0.098203
C3_9 C 0.49074(16) 0.88998(12) 0.2071(2)
C4_9 C 0.52333(21) 0.88042(16) 0.2278(3)
H3_9 H 0.532245 0.881467 0.287933
C5_9 C 0.54268(21) 0.86929(17) 0.1591(3)
H4_9 H 0.564387 0.862532 0.174585
C6_9 C 0.46585(16) 0.89952(12) 0.2776(2)
C7_7 C 0.47282(18) 0.93350(14) 0.4978(3)
C8_7 C 0.51777(26) 0.9441(2) 0.5326(4)
H5_7 H 0.525851 0.924081 0.505786
H6_7 H 0.516740 0.940960 0.597750
H7_7 H 0.539156 0.973772 0.516374
C9_7 C 0.45530(28) 0.9562(2) 0.6524(3)
H8_7 H 0.481745 0.984446 0.650188
H9_5 H 0.460553 0.936144 0.687657
H10_5 H 0.432112 0.959180 0.680102
C10_7 C 0.44210(20) 0.93864(15) 0.5578(3)
C11_7 C 0.33514(16) 0.91306(11) 0.5337(2)
C12_7 C 0.30044(17) 0.91962(12) 0.5785(2)
C13_7 C 0.25817(19) 0.89808(14) 0.5436(3)
H11_7 H 0.251190 0.878823 0.494552
C14_9 C 0.22638(18) 0.90535(13) 0.5819(3)
H12_9 H 0.197933 0.890315 0.558213
C15_7 C 0.27520(20) 0.95259(14) 0.6865(3)
H13_7 H 0.281290 0.971328 0.736097
C16_7 C 0.30856(21) 0.94636(15) 0.6528(3)
H14_5 H 0.336220 0.960165 0.680224
N1_9 N 0.53213(15) 0.86770(12) 0.0724(2)
N2_7 N 0.48592(16) 0.91308(12) 0.3568(2)
N3_7 N 0.45906(14) 0.91949(11) 0.4170(2)
N4_7 N 0.40440(13) 0.92733(10) 0.5250(2)
N5_7 N 0.37402(15) 0.93276(11) 0.5753(2)
O1_7 O 0.36553(21) 0.82525(14) 0.4212(4)
H15_7 H 0.378184 0.815287 0.454648
H16_7 H 0.345194 0.824863 0.452333
O2_9 O 0.42940(15) 0.89450(12) 0.25408(19)
O3_7 O 0.32484(14) 0.89104(10) 0.46138(19)
N7_9 N 0.33110(19) 0.86547(15) 0.2610(2)
C1_10 C 0.21103(19) 0.04303(15) 0.6147(3)
H1_8 H 0.210344 0.050037 0.675622
C2_10 C 0.22232(19) 0.07545(13) 0.5507(3)
H2_10 H 0.229283 0.103705 0.568464
C3_10 C 0.22331(12) 0.06590(11) 0.4596(2)
C4_10 C 0.21375(16) 0.02375(13) 0.4389(3)
H3_10 H 0.214800 0.015888 0.378734
C6_10 C 0.23285(12) 0.10033(11) 0.3891(2)
C7_8 C 0.26683(14) 0.12734(12) 0.1689(3)
C8_8 C 0.2774(2) 0.09296(17) 0.1341(4)
H5_8 H 0.257414 0.064896 0.160881
H6_8 H 0.274293 0.090886 0.068917
H7_8 H 0.307105 0.101282 0.150293
C9_8 C 0.2895(2) 0.16753(19) 0.0143(3)
H8_8 H 0.317779 0.169367 0.016479
C10_8 C 0.27197(15) 0.16320(13) 0.1089(3)
C11_8 C 0.24639(11) 0.24458(11) 0.1330(2)
C12_8 C 0.25295(12) 0.28584(12) 0.0882(2)
C13_8 C 0.23141(14) 0.30657(13) 0.1231(3)
H11_8 H 0.212156 0.294299 0.172115
C14_10 C 0.23868(13) 0.34563(12) 0.0848(3)
H12_10 H 0.223648 0.359048 0.108454
C16_8 C 0.27969(15) 0.30446(14) 0.0139(3)
N2_8 N 0.24641(12) 0.09382(10) 0.3099(2)
N3_8 N 0.25282(11) 0.12709(9) 0.2497(2)
N4_8 N 0.26066(10) 0.18959(9) 0.1417(2)
N5_8 N 0.26609(11) 0.22540(10) 0.0914(2)
N6_7 N 0.26626(10) 0.36492(10) 0.0155(2)
O1_8 O 0.15858(14) 0.12638(16) 0.2455(4)
H15_8 H 0.148620 0.103769 0.212019
H16_8 H 0.158196 0.146335 0.214334
O2_10 O 0.22783(12) 0.13176(9) 0.41259(19)
O3_8 O 0.22437(10) 0.23286(10) 0.20529(19)
N8_4 N 0.30175(10) 0.23467(14) 0.3488(2)
H9_6 H 0.269477 0.142257 0.979010
H10_6 H 0.292513 0.193734 0.986565
C15_8 C 0.28592(14) 0.34405(14) 0.9802(3)
H13_8 H 0.304661 0.356704 0.930570
H14_6 H 0.293498 0.290611 0.986443
C5_10 C 0.20262(17) 0.99327(13) 0.5076(3)
H4_10 H 0.195865 0.964811 0.492082
C5_11 C 0.00673(13) 0.20935(21) 0.5076(3)
H4_11 H 0.035189 0.231054 0.492082
C1_11 C 0.95697(15) 0.16800(24) 0.6147(3)
H1_9 H 0.949963 0.160307 0.675622
C2_11 C 0.92455(13) 0.14687(23) 0.5507(3)
H2_11 H 0.896295 0.125578 0.568464
C3_11 C 0.93410(11) 0.15741(16) 0.4596(2)
C4_11 C 0.97625(13) 0.19000(21) 0.4389(3)
H3_11 H 0.984112 0.198912 0.378734
C6_11 C 0.89967(11) 0.13252(16) 0.3891(2)
C7_9 C 0.87266(12) 0.13949(18) 0.1689(3)
C8_9 C 0.90704(17) 0.18444(26) 0.1341(4)
H5_9 H 0.935104 0.192518 0.160881
H6_9 H 0.909114 0.183407 0.068917
H7_9 H 0.898718 0.205823 0.150293
C9_9 C 0.83247(19) 0.12197(28) 0.0143(3)
H8_9 H 0.830633 0.148412 0.016479
C10_9 C 0.83680(13) 0.10877(20) 0.1089(3)
C11_9 C 0.75542(11) 0.00181(16) 0.1330(2)
N2_9 N 0.90618(10) 0.15259(16) 0.3099(2)
N3_9 N 0.87291(9) 0.12573(14) 0.2497(2)
N4_9 N 0.81041(9) 0.07107(13) 0.1417(2)
N5_9 N 0.77460(10) 0.04069(15) 0.0914(2)
O1_9 O 0.87362(16) 0.03220(21) 0.2455(4)
H15_9 H 0.896231 0.044851 0.212019
H16_9 H 0.853665 0.011861 0.214334
O2_11 O 0.86824(9) 0.09607(15) 0.41259(19)
N8_5 N 0.76533(14) 0.06707(17) 0.3488(2)
C12_9 C 0.71416(12) 0.96711(17) 0.0882(2)
C13_9 C 0.69343(13) 0.92484(19) 0.1231(3)
H11_9 H 0.705701 0.917857 0.172115
C14_11 C 0.65437(12) 0.89305(18) 0.0848(3)
H12_11 H 0.640952 0.864600 0.108454
C16_9 C 0.69554(14) 0.97523(21) 0.0139(3)
N6_8 N 0.63508(10) 0.90134(14) 0.0155(2)
O3_9 O 0.76714(10) 0.99151(14) 0.20529(19)
C12_10 C 0.03289(17) 0.74705(12) 0.0882(2)
C13_10 C 0.07516(19) 0.76859(14) 0.1231(3)
H11_10 H 0.082143 0.787844 0.172115
C14_12 C 0.10695(18) 0.76132(13) 0.0848(3)
H12_12 H 0.135400 0.776352 0.108454
C16_10 C 0.02477(21) 0.72031(15) 0.0139(3)
N6_9 N 0.09866(14) 0.73374(10) 0.0155(2)
O3_10 O 0.00849(14) 0.77563(10) 0.20529(19)
C1_12 C 0.83200(24) 0.78897(19) 0.6147(3)
H1_10 H 0.839693 0.789656 0.675622
C2_12 C 0.85313(23) 0.77768(19) 0.5507(3)
H2_12 H 0.874422 0.770717 0.568464
C3_12 C 0.84259(16) 0.77669(12) 0.4596(2)
C4_12 C 0.81000(21) 0.78625(16) 0.4389(3)
H3_12 H 0.801088 0.785200 0.378734
C5_12 C 0.79065(21) 0.79738(17) 0.5076(3)
H4_12 H 0.768946 0.804135 0.492082
C6_12 C 0.86748(16) 0.76715(12) 0.3891(2)
C7_10 C 0.86051(18) 0.73317(14) 0.1689(3)
C8_10 C 0.81556(26) 0.7226(2) 0.1341(4)
H5_10 H 0.807482 0.742586 0.160881
H6_10 H 0.816593 0.725707 0.068917
H7_10 H 0.794177 0.692895 0.150293
C9_10 C 0.87803(28) 0.7105(2) 0.0143(3)
H8_10 H 0.851588 0.682221 0.016479
C10_10 C 0.89123(20) 0.72803(15) 0.1089(3)
C11_10 C 0.99819(16) 0.75361(11) 0.1330(2)
N2_10 N 0.84741(16) 0.75359(12) 0.3099(2)
N3_10 N 0.87427(14) 0.74718(11) 0.2497(2)
N4_10 N 0.92893(13) 0.73934(10) 0.1417(2)
N5_10 N 0.95931(15) 0.73391(11) 0.0914(2)
O1_10 O 0.96780(21) 0.84142(14) 0.2455(4)
H15_10 H 0.955149 0.851380 0.212019
H16_10 H 0.988139 0.841804 0.214334
O2_12 O 0.90393(15) 0.77217(12) 0.41259(19)
N8_6 N 0.93293(17) 0.69825(10) 0.3488(2)
C14_13 C 0.57201(13) 0.01230(12) 0.7515(3)
H12_13 H 0.556981 0.025715 0.775121
C15_9 C 0.61925(14) 0.01072(14) 0.6469(3)
H13_9 H 0.637994 0.023371 0.597237
N6_10 N 0.59959(10) 0.03159(10) 0.6822(2)
C1_13 C 0.54436(19) 0.70970(15) 0.2814(3)
H1_11 H 0.543677 0.716704 0.342289
C2_13 C 0.55565(19) 0.74212(13) 0.2174(3)
H2_13 H 0.562616 0.770372 0.235131
C3_13 C 0.55664(12) 0.73257(11) 0.1263(2)
C4_13 C 0.54708(16) 0.69042(13) 0.1056(3)
H3_13 H 0.548133 0.682555 0.045401
C5_13 C 0.53595(17) 0.65994(13) 0.1743(3)
H4_13 H 0.529198 0.631478 0.158749
C6_13 C 0.56618(12) 0.76700(11) 0.0558(2)
O2_13 O 0.56116(12) 0.79843(9) 0.07926(19)
C1_14 C 0.29030(15) 0.83467(24) 0.2814(3)
H1_12 H 0.283296 0.826974 0.342289
C2_14 C 0.25788(13) 0.81354(23) 0.2174(3)
H2_14 H 0.229628 0.792245 0.235131
C3_14 C 0.26743(11) 0.82408(16) 0.1263(2)
C4_14 C 0.30958(13) 0.85667(21) 0.1056(3)
H3_14 H 0.317445 0.865579 0.045401
C5_14 C 0.34006(13) 0.87602(21) 0.1743(3)
H4_14 H 0.368522 0.897721 0.158749
C6_14 C 0.23300(11) 0.79919(16) 0.0558(2)
O2_14 O 0.20157(9) 0.76274(15) 0.07926(19)
C14_14 C 0.98770(12) 0.55972(18) 0.7515(3)
H12_14 H 0.974285 0.531267 0.775121
C15_10 C 0.98928(14) 0.60854(20) 0.6469(3)
H13_10 H 0.976629 0.614624 0.597237
N6_11 N 0.96841(10) 0.56801(14) 0.6822(2)
C1_15 C 0.16533(24) 0.45564(19) 0.2814(3)
H1_13 H 0.173026 0.456323 0.342289
C2_15 C 0.18646(23) 0.44435(19) 0.2174(3)
H2_15 H 0.207755 0.437384 0.235131
C3_15 C 0.17592(16) 0.44336(12) 0.1263(2)
C4_15 C 0.14333(21) 0.45292(16) 0.1056(3)
H3_15 H 0.134421 0.451867 0.045401
C5_15 C 0.12398(21) 0.46405(17) 0.1743(3)
H4_15 H 0.102279 0.470802 0.158749
C6_15 C 0.20081(16) 0.43382(12) 0.0558(2)
O2_15 O 0.23726(15) 0.43884(12) 0.07926(19)
C7_11 C 0.19384(18) 0.39984(14) 0.8356(3)
C8_11 C 0.14889(26) 0.3893(2) 0.8008(4)
H5_11 H 0.140815 0.409253 0.827548
H6_11 H 0.149926 0.392374 0.735584
H7_11 H 0.127510 0.359562 0.816960
C9_11 C 0.21136(28) 0.3772(2) 0.6810(3)
H8_11 H 0.184921 0.348888 0.683146
H9_7 H 0.206113 0.397190 0.645677
H10_7 H 0.234554 0.374154 0.653232
C10_11 C 0.22456(20) 0.39470(15) 0.7756(3)
C11_11 C 0.33152(16) 0.42028(11) 0.7997(2)
C12_11 C 0.36622(17) 0.41372(12) 0.7549(2)
C13_11 C 0.40849(19) 0.43526(14) 0.7898(3)
H11_11 H 0.415476 0.454511 0.838782
C14_15 C 0.44028(18) 0.42799(13) 0.7515(3)
H12_15 H 0.468733 0.443019 0.775121
C15_11 C 0.39146(20) 0.38075(14) 0.6469(3)
H13_11 H 0.385376 0.362006 0.597237
C16_11 C 0.35810(21) 0.38698(15) 0.6806(3)
H14_7 H 0.330446 0.373169 0.653110
N2_11 N 0.18074(16) 0.42026(12) 0.9766(2)
N3_11 N 0.20760(14) 0.41385(11) 0.9164(2)
N4_11 N 0.26226(13) 0.40601(10) 0.8084(2)
N5_11 N 0.29264(15) 0.40058(11) 0.7581(2)
N6_12 N 0.43199(14) 0.40041(10) 0.6822(2)
O1_11 O 0.30113(21) 0.50809(14) 0.9122(4)
H15_11 H 0.288482 0.518047 0.878686
H16_11 H 0.321472 0.508471 0.881001
O3_11 O 0.34182(14) 0.44230(10) 0.87196(19)
C1_16 C 0.87770(19) 0.37636(15) 0.9480(3)
C2_16 C 0.88899(19) 0.40878(13) 0.8840(3)
H2_16 H 0.895950 0.437038 0.901797
C3_16 C 0.88998(12) 0.39923(11) 0.7929(2)
C4_16 C 0.88042(16) 0.35708(13) 0.7722(3)
H3_16 H 0.881467 0.349221 0.712067
C5_16 C 0.86929(17) 0.32660(13) 0.8409(3)
H4_16 H 0.862532 0.298144 0.825415
C6_16 C 0.89952(12) 0.43366(11) 0.7224(2)
C7_12 C 0.93350(14) 0.46067(12) 0.5022(3)
C8_12 C 0.9441(2) 0.42629(17) 0.4674(4)
H5_12 H 0.924081 0.398229 0.494214
H6_12 H 0.940960 0.424219 0.402250
H7_12 H 0.973772 0.434615 0.483626
C9_12 C 0.9562(2) 0.50086(19) 0.3476(3)
H8_12 H 0.984446 0.502700 0.349812
H9_8 H 0.936144 0.475590 0.312343
H10_8 H 0.959180 0.527067 0.319898
C10_12 C 0.93864(15) 0.49653(13) 0.4422(3)
C11_12 C 0.91306(11) 0.57791(11) 0.4663(2)
C12_12 C 0.91962(12) 0.61917(12) 0.4215(2)
C13_12 C 0.89808(14) 0.63990(13) 0.4564(3)
H11_12 H 0.878823 0.627632 0.505448
C14_16 C 0.90535(13) 0.67896(12) 0.4181(3)
H12_16 H 0.890315 0.692381 0.441787
C15_12 C 0.95259(14) 0.67738(14) 0.3135(3)
H13_12 H 0.971328 0.690037 0.263903
C16_12 C 0.94636(15) 0.63779(14) 0.3472(3)
H14_8 H 0.960165 0.623944 0.319776
N2_12 N 0.91308(12) 0.42715(10) 0.6432(2)
N3_12 N 0.91949(11) 0.46042(9) 0.5830(2)
N4_12 N 0.92733(10) 0.52292(9) 0.4750(2)
N5_12 N 0.93276(11) 0.55873(10) 0.4247(2)
O1_12 O 0.82525(14) 0.45971(16) 0.5788(4)
H15_12 H 0.815287 0.437102 0.545352
H16_12 H 0.824863 0.479668 0.547667
O2_16 O 0.89450(12) 0.46509(9) 0.74592(19)
O3_12 O 0.89104(10) 0.56619(10) 0.53862(19)
H1_14 H 0.616630 0.493640 0.008955
C1_17 C 0.62364(15) 0.50133(24) 0.9480(3)
C2_17 C 0.59122(13) 0.48020(23) 0.8840(3)
H2_17 H 0.562962 0.458911 0.901797
C3_17 C 0.60077(11) 0.49074(16) 0.7929(2)
C4_17 C 0.64292(13) 0.52333(21) 0.7722(3)
H3_17 H 0.650779 0.532245 0.712067
C5_17 C 0.67340(13) 0.54268(21) 0.8409(3)
H4_17 H 0.701856 0.564387 0.825415
C6_17 C 0.56634(11) 0.46585(16) 0.7224(2)
C7_13 C 0.53933(12) 0.47282(18) 0.5022(3)
C8_13 C 0.57371(17) 0.51777(26) 0.4674(4)
H5_13 H 0.601771 0.525851 0.494214
H6_13 H 0.575781 0.516740 0.402250
H7_13 H 0.565385 0.539156 0.483626
C9_13 C 0.49914(19) 0.45530(28) 0.3476(3)
H8_13 H 0.497300 0.481745 0.349812
H9_9 H 0.524410 0.460553 0.312343
H10_9 H 0.472933 0.432112 0.319898
C10_13 C 0.50347(13) 0.44210(20) 0.4422(3)
C11_13 C 0.42209(11) 0.33514(16) 0.4663(2)
C12_13 C 0.38083(12) 0.30044(17) 0.4215(2)
C13_13 C 0.36010(13) 0.25817(19) 0.4564(3)
H11_13 H 0.372368 0.251190 0.505448
C14_17 C 0.32104(12) 0.22638(18) 0.4181(3)
H12_17 H 0.307619 0.197933 0.441787
C15_13 C 0.32262(14) 0.27520(20) 0.3135(3)
H13_13 H 0.309963 0.281290 0.263903
C16_13 C 0.36221(14) 0.30856(21) 0.3472(3)
H14_9 H 0.376056 0.336220 0.319776
N2_13 N 0.57285(10) 0.48592(16) 0.6432(2)
N3_13 N 0.53958(9) 0.45906(14) 0.5830(2)
N4_13 N 0.47708(9) 0.40440(13) 0.4750(2)
N5_13 N 0.44127(10) 0.37402(15) 0.4247(2)
O1_13 O 0.54029(16) 0.36553(21) 0.5788(4)
H15_13 H 0.562898 0.378184 0.545352
H16_13 H 0.520332 0.345194 0.547667
O2_17 O 0.53491(9) 0.42940(15) 0.74592(19)
O3_13 O 0.43381(10) 0.32484(14) 0.53862(19)
C1_18 C 0.49867(24) 0.12230(19) 0.9480(3)
C2_18 C 0.51980(23) 0.11101(19) 0.8840(3)
H2_18 H 0.541089 0.104050 0.901797
C3_18 C 0.50926(16) 0.11002(12) 0.7929(2)
C4_18 C 0.47667(21) 0.11958(16) 0.7722(3)
H3_18 H 0.467755 0.118533 0.712067
C5_18 C 0.45732(21) 0.13071(17) 0.8409(3)
H4_18 H 0.435613 0.137468 0.825415
C6_18 C 0.53415(16) 0.10048(12) 0.7224(2)
C7_14 C 0.52718(18) 0.06650(14) 0.5022(3)
C8_14 C 0.48223(26) 0.0559(2) 0.4674(4)
H5_14 H 0.474149 0.075919 0.494214
H6_14 H 0.483260 0.059040 0.402250
H7_14 H 0.460844 0.026228 0.483626
C9_14 C 0.54470(28) 0.0438(2) 0.3476(3)
H8_14 H 0.518255 0.015554 0.349812
H9_10 H 0.539447 0.063856 0.312343
H10_10 H 0.567888 0.040820 0.319898
C10_14 C 0.55790(20) 0.06136(15) 0.4422(3)
C11_14 C 0.66486(16) 0.08694(11) 0.4663(2)
C12_14 C 0.69956(17) 0.08038(12) 0.4215(2)
C13_14 C 0.74183(19) 0.10192(14) 0.4564(3)
H11_14 H 0.748810 0.121177 0.505448
C14_18 C 0.77362(18) 0.09465(13) 0.4181(3)
H12_18 H 0.802067 0.109685 0.441787
C15_14 C 0.72480(20) 0.04741(14) 0.3135(3)
H13_14 H 0.718710 0.028672 0.263903
C16_14 C 0.69144(21) 0.05364(15) 0.3472(3)
H14_10 H 0.663780 0.039835 0.319776
N2_14 N 0.51408(16) 0.08692(12) 0.6432(2)
N3_14 N 0.54094(14) 0.08051(11) 0.5830(2)
N4_14 N 0.59560(13) 0.07267(10) 0.4750(2)
N5_14 N 0.62598(15) 0.06724(11) 0.4247(2)
O1_14 O 0.63447(21) 0.17475(14) 0.5788(4)
H15_14 H 0.621816 0.184713 0.545352
H16_14 H 0.654806 0.175137 0.547667
O2_18 O 0.57060(15) 0.10550(12) 0.74592(19)
O3_14 O 0.67516(14) 0.10896(10) 0.53862(19)
C15_15 C 0.34405(14) 0.05813(20) 0.0198(3)
H13_15 H 0.356704 0.052043 0.069430
Cd2_5 Cd 0.43499(2) 0.15426(4) 0.04162(2)
C7_15 C 0.39984(14) 0.20599(12) 0.1644(3)
C8_15 C 0.3893(2) 0.24037(17) 0.1992(4)
H5_15 H 0.409253 0.268437 0.172452
H6_15 H 0.392374 0.242447 0.264416
H7_15 H 0.359562 0.232051 0.183040
C9_15 C 0.3772(2) 0.16580(19) 0.3190(3)
H8_15 H 0.348888 0.163966 0.316854
H9_11 H 0.397190 0.191076 0.354323
H10_11 H 0.374154 0.139599 0.346768
C10_15 C 0.39470(15) 0.17013(13) 0.2244(3)
C11_15 C 0.42028(11) 0.08875(11) 0.2003(2)
C12_15 C 0.41372(12) 0.04749(12) 0.2451(2)
C13_15 C 0.43526(14) 0.02676(13) 0.2102(3)
H11_15 H 0.454511 0.039034 0.161218
C16_15 C 0.38698(15) 0.02887(14) 0.3194(3)
H14_11 H 0.373169 0.042722 0.346890
N2_15 N 0.42026(12) 0.23951(10) 0.0234(2)
N3_15 N 0.41385(11) 0.20624(9) 0.0836(2)
N4_15 N 0.40601(10) 0.14374(9) 0.1916(2)
N5_15 N 0.40058(11) 0.10793(10) 0.2419(2)
O1_15 O 0.50809(14) 0.20695(16) 0.0878(4)
H15_15 H 0.518047 0.229564 0.121314
H16_15 H 0.508471 0.186998 0.118999
O3_15 O 0.44230(10) 0.10047(10) 0.12804(19)
H1_15 H 0.506360 0.122989 0.008955
H9_12 H 0.142257 0.872780 0.020990
H10_12 H 0.193734 0.901221 0.013435
H14_12 H 0.290611 0.997113 0.013557
H9_13 H 0.127220 0.269477 0.020990
H10_13 H 0.098779 0.292513 0.013435
H14_13 H 0.002887 0.293498 0.013557
C15_16 C 0.94187(20) 0.28592(14) 0.0198(3)
H13_16 H 0.947957 0.304661 0.069430
Cd2_6 Cd 0.84574(4) 0.28072(3) 0.04162(2)
C7_16 C 0.79401(12) 0.19384(18) 0.1644(3)
C8_16 C 0.75963(17) 0.14889(26) 0.1992(4)
H5_16 H 0.731563 0.140815 0.172452
H6_16 H 0.757553 0.149926 0.264416
H7_16 H 0.767949 0.127510 0.183040
C9_16 C 0.83420(19) 0.21136(28) 0.3190(3)
H8_16 H 0.836034 0.184921 0.316854
H9_14 H 0.808924 0.206113 0.354323
H10_14 H 0.860401 0.234554 0.346768
C10_16 C 0.82987(13) 0.22456(20) 0.2244(3)
C11_16 C 0.91125(11) 0.33152(16) 0.2003(2)
C12_16 C 0.95251(12) 0.36622(17) 0.2451(2)
C13_16 C 0.97324(13) 0.40849(19) 0.2102(3)
H11_16 H 0.960966 0.415476 0.161218
C16_16 C 0.97113(14) 0.35810(21) 0.3194(3)
H14_14 H 0.957278 0.330446 0.346890
N2_16 N 0.76049(10) 0.18074(16) 0.0234(2)
N3_16 N 0.79376(9) 0.20760(14) 0.0836(2)
N4_16 N 0.85626(9) 0.26226(13) 0.1916(2)
N5_16 N 0.89207(10) 0.29264(15) 0.2419(2)
O1_16 O 0.79305(16) 0.30113(21) 0.0878(4)
H15_16 H 0.770436 0.288482 0.121314
H16_16 H 0.813002 0.321472 0.118999
O3_16 O 0.89953(10) 0.34182(14) 0.12804(19)
H1_16 H 0.877011 0.383370 0.008955
H1_17 H 0.122989 0.616630 0.991045
Cd3_8 Cd 0.15426(2) 0.71928(3) 0.95838(2)
C15_17 C 0.05813(20) 0.71408(14) 0.9802(3)
H13_17 H 0.052043 0.695339 0.930570
C7_17 C 0.20599(12) 0.80616(18) 0.8356(3)
C8_17 C 0.24037(17) 0.85111(26) 0.8008(4)
H5_17 H 0.268437 0.859185 0.827548
H6_17 H 0.242447 0.850074 0.735584
H7_17 H 0.232051 0.872490 0.816960
C9_17 C 0.16580(19) 0.78864(28) 0.6810(3)
H8_17 H 0.163966 0.815079 0.683146
H9_15 H 0.191076 0.793887 0.645677
H10_15 H 0.139599 0.765446 0.653232
C10_17 C 0.17013(13) 0.77544(20) 0.7756(3)
C11_17 C 0.08875(11) 0.66848(16) 0.7997(2)
C12_17 C 0.04749(12) 0.63378(17) 0.7549(2)
C13_17 C 0.02676(13) 0.59151(19) 0.7898(3)
H11_17 H 0.039034 0.584524 0.838782
C16_17 C 0.02887(14) 0.64190(21) 0.6806(3)
H14_15 H 0.042722 0.669554 0.653110
N2_17 N 0.23951(10) 0.81926(16) 0.9766(2)
N3_17 N 0.20624(9) 0.79240(14) 0.9164(2)
N4_17 N 0.14374(9) 0.73774(13) 0.8084(2)
N5_17 N 0.10793(10) 0.70736(15) 0.7581(2)
O1_17 O 0.20695(16) 0.69887(21) 0.9122(4)
H15_17 H 0.229564 0.711518 0.878686
H16_17 H 0.186998 0.678528 0.881001
O3_17 O 0.10047(10) 0.65818(14) 0.87196(19)
H1_18 H 0.493640 0.877011 0.991045
Cd3_9 Cd 0.56501(4) 0.84574(2) 0.95838(2)
C15_18 C 0.65595(14) 0.94187(20) 0.9802(3)
H13_18 H 0.643296 0.947957 0.930570
C7_18 C 0.60016(14) 0.79401(12) 0.8356(3)
C8_18 C 0.6107(2) 0.75963(17) 0.8008(4)
H5_18 H 0.590747 0.731563 0.827548
H6_18 H 0.607626 0.757553 0.735584
H7_18 H 0.640438 0.767949 0.816960
C9_18 C 0.6228(2) 0.83420(19) 0.6810(3)
H8_18 H 0.651112 0.836034 0.683146
H9_16 H 0.602810 0.808924 0.645677
H10_16 H 0.625846 0.860401 0.653232
C10_18 C 0.60530(15) 0.82987(13) 0.7756(3)
C11_18 C 0.57972(11) 0.91125(11) 0.7997(2)
C12_18 C 0.58628(12) 0.95251(12) 0.7549(2)
C13_18 C 0.56474(14) 0.97324(13) 0.7898(3)
H11_18 H 0.545489 0.960966 0.838782
C16_18 C 0.61302(15) 0.97113(14) 0.6806(3)
H14_16 H 0.626831 0.957278 0.653110
N2_18 N 0.57974(12) 0.76049(10) 0.9766(2)
N3_18 N 0.58615(11) 0.79376(9) 0.9164(2)
N4_18 N 0.59399(10) 0.85626(9) 0.8084(2)
N5_18 N 0.59942(11) 0.89207(10) 0.7581(2)
O1_18 O 0.49191(14) 0.79305(16) 0.9122(4)
H15_18 H 0.481953 0.770436 0.878686
H16_18 H 0.491529 0.813002 0.881001
O3_18 O 0.55770(10) 0.89953(10) 0.87196(19)
H9_17 H 0.857743 0.127220 0.979010
H10_17 H 0.806266 0.098779 0.986565
H14_17 H 0.709389 0.002887 0.986443
H9_18 H 0.872780 0.730523 0.979010
H10_18 H 0.901221 0.707487 0.986565
H14_18 H 0.997113 0.706502 0.986443
loop_
_geom_bond_atom_site_label_1
_geom_bond_atom_site_label_2
_geom_bond_site_symmetry_1
_geom_bond_site_symmetry_2
H4 C5 1_555 1_555
C15 H13 1_555 1_555
C1 H1 1_555 1_555
C2 C1 1_555 1_555
H2 C2 1_555 1_555
C3 C2 1_555 1_555
C4 C3 1_555 1_555
H3 C4 1_555 1_555
C6 C3 1_555 1_555
C7 C8 1_555 1_555
C8 H5 1_555 1_555
H6 C8 1_555 1_555
H7 C8 1_555 1_555
C9 H8 1_555 1_555
C10 C7 1_555 1_555
C11 C12 1_555 1_555
C12 C13 1_555 1_555
C13 H11 1_555 1_555
C14 C13 1_555 1_555
H12 C14 1_555 1_555
C16 C12 1_555 1_555
N1 C1 1_555 1_555
N2 C6 1_555 1_555
N3 C7 1_555 1_555
N4 C10 1_555 1_555
N5 C11 1_555 1_555
N6 C14 1_555 1_555
O1 H15 1_555 1_555
H16 O1 1_555 1_555
O2 C6 1_555 1_555
O3 C11 1_555 1_555
Cd1 N3 1_555 1_555
N7 Cd1 1_555 1_555
N8 Cd1 1_555 1_555
C9 C10 1_555 1_555
N2 N3 1_555 1_555
N4 N5 1_555 1_555
N4 Cd1 1_555 1_555
O1 Cd1 1_555 1_555
O2 Cd1 1_555 1_555
O3 Cd1 1_555 1_555
C12_2 C13_2 1_555 1_555
C13_2 H11_2 1_555 1_555
C14_2 C13_2 1_555 1_555
H12_2 C14_2 1_555 1_555
C16_2 C12_2 1_555 1_555
N6_2 C14_2 1_555 1_555
C1_2 H1_2 1_555 1_555
C2_2 C1_2 1_555 1_555
H2_2 C2_2 1_555 1_555
C3_2 C2_2 1_555 1_555
C4_2 C3_2 1_555 1_555
H3_2 C4_2 1_555 1_555
C6_2 C3_2 1_555 1_555
C7_2 C8_2 1_555 1_555
C8_2 H5_2 1_555 1_555
H6_2 C8_2 1_555 1_555
H7_2 C8_2 1_555 1_555
C9_2 H8_2 1_555 1_555
C10_2 C7_2 1_555 1_555
N1_2 C1_2 1_555 1_555
N2_2 C6_2 1_555 1_555
N3_2 C7_2 1_555 1_555
N4_2 C10_2 1_555 1_555
N5_2 C11_2 1_555 1_555
O1_2 H15_2 1_555 1_555
H16_2 O1_2 1_555 1_555
O2_2 C6_2 1_555 1_555
Cd1_2 N3_2 1_555 1_555
N8_2 Cd1_2 1_555 1_555
C9_2 C10_2 1_555 1_555
N2_2 N3_2 1_555 1_555
N4_2 N5_2 1_555 1_555
N4_2 Cd1_2 1_555 1_555
O1_2 Cd1_2 1_555 1_555
O2_2 Cd1_2 1_555 1_555
H4_2 C5_2 1_555 1_555
C1_3 H1_3 1_555 1_555
C2_3 C1_3 1_555 1_555
H2_3 C2_3 1_555 1_555
C3_3 C2_3 1_555 1_555
C4_3 C3_3 1_555 1_555
H3_3 C4_3 1_555 1_555
C5_3 C4_3 1_555 1_555
H4_3 C5_3 1_555 1_555
C6_3 C3_3 1_555 1_555
C7_3 C8_3 1_555 1_555
C8_3 H5_3 1_555 1_555
H6_3 C8_3 1_555 1_555
H7_3 C8_3 1_555 1_555
C9_3 H8_3 1_555 1_555
C10_3 C7_3 1_555 1_555
N1_3 C1_3 1_555 1_555
N2_3 C6_3 1_555 1_555
N3_3 C7_3 1_555 1_555
N4_3 C10_3 1_555 1_555
N5_3 C11_3 1_555 1_555
O1_3 H15_3 1_555 1_555
H16_3 O1_3 1_555 1_555
O2_3 C6_3 1_555 1_555
Cd1_3 N3_3 1_555 1_555
N8_3 Cd1_3 1_555 1_555
Cd3_3 N1_3 1_555 1_555
C5_3 N1_3 1_555 1_555
C9_3 C10_3 1_555 1_555
N2_3 N3_3 1_555 1_555
N4_3 N5_3 1_555 1_555
N4_3 Cd1_3 1_555 1_555
O1_3 Cd1_3 1_555 1_555
O2_3 Cd1_3 1_555 1_555
C12_3 C13_3 1_555 1_555
C13_3 H11_3 1_555 1_555
C14_3 C13_3 1_555 1_555
H12_3 C14_3 1_555 1_555
C16_3 C12_3 1_555 1_555
N6_3 C14_3 1_555 1_555
C1_4 H1_4 1_555 1_555
C2_4 C1_4 1_555 1_555
H2_4 C2_4 1_555 1_555
C3_4 C2_4 1_555 1_555
C4_4 C3_4 1_555 1_555
H3_4 C4_4 1_555 1_555
C5_4 C4_4 1_555 1_555
H4_4 C5_4 1_555 1_555
C6_4 C3_4 1_555 1_555
N1_4 C1_4 1_555 1_555
O2_4 C6_4 1_555 1_555
Cd3_4 N1_4 1_555 1_555
C5_4 N1_4 1_555 1_555
H12_4 C14_4 1_555 1_555
C15_2 H13_2 1_555 1_555
N6_4 C14_4 1_555 1_555
Cd2_2 N6_4 1_555 1_555
C15_2 N6_4 1_555 1_555
H12_5 C14_5 1_555 1_555
C15_3 H13_3 1_555 1_555
N6_5 C14_5 1_555 1_555
Cd2_3 N6_5 1_555 1_555
C15_3 N6_5 1_555 1_555
C1_5 H1_5 1_555 1_555
C2_5 C1_5 1_555 1_555
H2_5 C2_5 1_555 1_555
C3_5 C2_5 1_555 1_555
C4_5 C3_5 1_555 1_555
H3_5 C4_5 1_555 1_555
C5_5 C4_5 1_555 1_555
H4_5 C5_5 1_555 1_555
C6_5 C3_5 1_555 1_555
N1_5 C1_5 1_555 1_555
O2_5 C6_5 1_555 1_555
Cd3_5 N1_5 1_555 1_555
C5_5 N1_5 1_555 1_555
C7_4 C8_4 1_555 1_555
C8_4 H5_4 1_555 1_555
H6_4 C8_4 1_555 1_555
H7_4 C8_4 1_555 1_555
C9_4 H8_4 1_555 1_555
H9_2 C9_4 1_555 1_555
H10_2 C9_4 1_555 1_555
C10_4 C7_4 1_555 1_555
C11_4 C12_4 1_555 1_555
C12_4 C13_4 1_555 1_555
C13_4 H11_4 1_555 1_555
C14_6 C13_4 1_555 1_555
H12_6 C14_6 1_555 1_555
C15_4 H13_4 1_555 1_555
C16_4 C12_4 1_555 1_555
H14_2 C16_4 1_555 1_555
N3_4 C7_4 1_555 1_555
N4_4 C10_4 1_555 1_555
N5_4 C11_4 1_555 1_555
N6_6 C14_6 1_555 1_555
O1_4 H15_4 1_555 1_555
H16_4 O1_4 1_555 1_555
O3_4 C11_4 1_555 1_555
Cd2 N3_4 1_555 1_555
Cd2_4 N6_6 1_555 1_555
C9_4 C10_4 1_555 1_555
C15_4 C16_4 1_555 1_555
C15_4 N6_6 1_555 1_555
N2_4 N3_4 1_555 1_555
N4_4 N5_4 1_555 1_555
N4_4 Cd2 1_555 1_555
O1_4 Cd2 1_555 1_555
O3_4 Cd2 1_555 1_555
C1_6 H1_6 1_555 1_555
C2_6 C1_6 1_555 1_555
H2_6 C2_6 1_555 1_555
C3_6 C2_6 1_555 1_555
C4_6 C3_6 1_555 1_555
H3_6 C4_6 1_555 1_555
C5_6 C4_6 1_555 1_555
H4_6 C5_6 1_555 1_555
C6_6 C3_6 1_555 1_555
N1_6 C1_6 1_555 1_555
O2_6 C6_6 1_555 1_555
Cd3_6 N1_6 1_555 1_555
C5_6 N1_6 1_555 1_555
C2_7 C1_7 1_555 1_555
H2_7 C2_7 1_555 1_555
C3_7 C2_7 1_555 1_555
C4_7 C3_7 1_555 1_555
H3_7 C4_7 1_555 1_555
C5_7 C4_7 1_555 1_555
H4_7 C5_7 1_555 1_555
C6_7 C3_7 1_555 1_555
C7_5 C8_5 1_555 1_555
C8_5 H5_5 1_555 1_555
H6_5 C8_5 1_555 1_555
H7_5 C8_5 1_555 1_555
C9_5 H8_5 1_555 1_555
H9_3 C9_5 1_555 1_555
H10_3 C9_5 1_555 1_555
C10_5 C7_5 1_555 1_555
C11_5 C12_5 1_555 1_555
C12_5 C13_5 1_555 1_555
C13_5 H11_5 1_555 1_555
C14_7 C13_5 1_555 1_555
H12_7 C14_7 1_555 1_555
C15_5 H13_5 1_555 1_555
C16_5 C12_5 1_555 1_555
H14_3 C16_5 1_555 1_555
N1_7 C1_7 1_555 1_555
N2_5 C6_7 1_555 1_555
N3_5 C7_5 1_555 1_555
N4_5 C10_5 1_555 1_555
N5_5 C11_5 1_555 1_555
N8_3 C14_7 1_555 1_555
O1_5 H15_5 1_555 1_555
H16_5 O1_5 1_555 1_555
O2_7 C6_7 1_555 1_555
O3_5 C11_5 1_555 1_555
Cd2_3 N3_5 1_555 1_555
N7_7 Cd2_3 1_555 1_555
C5_7 N1_7 1_555 1_555
C9_5 C10_5 1_555 1_555
C15_5 C16_5 1_555 1_555
C15_5 N8_3 1_555 1_555
N2_5 N3_5 1_555 1_555
N4_5 N5_5 1_555 1_555
N4_5 Cd2_3 1_555 1_555
O1_5 Cd2_3 1_555 1_555
O2_7 Cd2_3 1_555 1_555
O3_5 Cd2_3 1_555 1_555
C2_8 C1_8 1_555 1_555
H2_8 C2_8 1_555 1_555
C3_8 C2_8 1_555 1_555
C4_8 C3_8 1_555 1_555
H3_8 C4_8 1_555 1_555
C5_8 C4_8 1_555 1_555
H4_8 C5_8 1_555 1_555
C6_8 C3_8 1_555 1_555
C7_6 C8_6 1_555 1_555
C8_6 H5_6 1_555 1_555
H6_6 C8_6 1_555 1_555
H7_6 C8_6 1_555 1_555
C9_6 H8_6 1_555 1_555
H9_4 C9_6 1_555 1_555
H10_4 C9_6 1_555 1_555
C10_6 C7_6 1_555 1_555
C11_6 C12_6 1_555 1_555
C12_6 C13_6 1_555 1_555
C13_6 H11_6 1_555 1_555
C14_8 C13_6 1_555 1_555
H12_8 C14_8 1_555 1_555
C15_6 H13_6 1_555 1_555
C16_6 C12_6 1_555 1_555
H14_4 C16_6 1_555 1_555
N1_8 C1_8 1_555 1_555
N2_6 C6_8 1_555 1_555
N3_6 C7_6 1_555 1_555
N4_6 C10_6 1_555 1_555
N5_6 C11_6 1_555 1_555
N8 C14_8 1_555 1_555
O1_6 H15_6 1_555 1_555
H16_6 O1_6 1_555 1_555
O2_8 C6_8 1_555 1_555
O3_6 C11_6 1_555 1_555
Cd2_4 N3_6 1_555 1_555
N7_8 Cd2_4 1_555 1_555
C5_8 N1_8 1_555 1_555
C9_6 C10_6 1_555 1_555
C15_6 C16_6 1_555 1_555
C15_6 N8 1_555 1_555
N2_6 N3_6 1_555 1_555
N4_6 N5_6 1_555 1_555
N4_6 Cd2_4 1_555 1_555
O1_6 Cd2_4 1_555 1_555
O2_8 Cd2_4 1_555 1_555
O3_6 Cd2_4 1_555 1_555
C2_9 C1_9 1_555 1_555
H2_9 C2_9 1_555 1_555
C3_9 C2_9 1_555 1_555
C4_9 C3_9 1_555 1_555
H3_9 C4_9 1_555 1_555
C5_9 C4_9 1_555 1_555
H4_9 C5_9 1_555 1_555
C6_9 C3_9 1_555 1_555
C7_7 C8_7 1_555 1_555
C8_7 H5_7 1_555 1_555
H6_7 C8_7 1_555 1_555
H7_7 C8_7 1_555 1_555
C9_7 H8_7 1_555 1_555
H9_5 C9_7 1_555 1_555
H10_5 C9_7 1_555 1_555
C10_7 C7_7 1_555 1_555
C11_7 C12_7 1_555 1_555
C12_7 C13_7 1_555 1_555
C13_7 H11_7 1_555 1_555
C14_9 C13_7 1_555 1_555
H12_9 C14_9 1_555 1_555
C15_7 H13_7 1_555 1_555
C16_7 C12_7 1_555 1_555
H14_5 C16_7 1_555 1_555
N1_9 C1_9 1_555 1_555
N2_7 C6_9 1_555 1_555
N3_7 C7_7 1_555 1_555
N4_7 C10_7 1_555 1_555
N5_7 C11_7 1_555 1_555
N8_2 C14_9 1_555 1_555
O1_7 H15_7 1_555 1_555
H16_7 O1_7 1_555 1_555
O2_9 C6_9 1_555 1_555
O3_7 C11_7 1_555 1_555
Cd2_2 N3_7 1_555 1_555
N7_9 Cd2_2 1_555 1_555
C5_9 N1_9 1_555 1_555
C9_7 C10_7 1_555 1_555
C15_7 C16_7 1_555 1_555
C15_7 N8_2 1_555 1_555
N2_7 N3_7 1_555 1_555
N4_7 N5_7 1_555 1_555
N4_7 Cd2_2 1_555 1_555
O1_7 Cd2_2 1_555 1_555
O2_9 Cd2_2 1_555 1_555
O3_7 Cd2_2 1_555 1_555
C1_10 H1_8 1_555 1_555
C2_10 C1_10 1_555 1_555
H2_10 C2_10 1_555 1_555
C3_10 C2_10 1_555 1_555
C4_10 C3_10 1_555 1_555
H3_10 C4_10 1_555 1_555
C6_10 C3_10 1_555 1_555
C7_8 C8_8 1_555 1_555
C8_8 H5_8 1_555 1_555
H6_8 C8_8 1_555 1_555
H7_8 C8_8 1_555 1_555
C9_8 H8_8 1_555 1_555
C10_8 C7_8 1_555 1_555
C11_8 C12_8 1_555 1_555
C12_8 C13_8 1_555 1_555
C13_8 H11_8 1_555 1_555
C14_10 C13_8 1_555 1_555
H12_10 C14_10 1_555 1_555
C16_8 C12_8 1_555 1_555
N7_2 C1_10 1_555 1_555
N2_8 C6_10 1_555 1_555
N3_8 C7_8 1_555 1_555
N4_8 C10_8 1_555 1_555
N5_8 C11_8 1_555 1_555
N6_7 C14_10 1_555 1_555
O1_8 H15_8 1_555 1_555
H16_8 O1_8 1_555 1_555
O2_10 C6_10 1_555 1_555
O3_8 C11_8 1_555 1_555
Cd3_3 N3_8 1_555 1_555
N8_4 Cd3_3 1_555 1_555
C9_8 C10_8 1_555 1_555
N2_8 N3_8 1_555 1_555
N4_8 N5_8 1_555 1_555
N4_8 Cd3_3 1_555 1_555
O1_8 Cd3_3 1_555 1_555
O2_10 Cd3_3 1_555 1_555
O3_8 Cd3_3 1_555 1_555
C15_8 H13_8 1_555 1_555
H4_10 C5_10 1_555 1_555
H4_11 C5_11 1_555 1_555
C1_11 H1_9 1_555 1_555
C2_11 C1_11 1_555 1_555
H2_11 C2_11 1_555 1_555
C3_11 C2_11 1_555 1_555
C4_11 C3_11 1_555 1_555
H3_11 C4_11 1_555 1_555
C6_11 C3_11 1_555 1_555
C7_9 C8_9 1_555 1_555
C8_9 H5_9 1_555 1_555
H6_9 C8_9 1_555 1_555
H7_9 C8_9 1_555 1_555
C9_9 H8_9 1_555 1_555
C10_9 C7_9 1_555 1_555
N7_3 C1_11 1_555 1_555
N2_9 C6_11 1_555 1_555
N3_9 C7_9 1_555 1_555
N4_9 C10_9 1_555 1_555
N5_9 C11_9 1_555 1_555
O1_9 H15_9 1_555 1_555
H16_9 O1_9 1_555 1_555
O2_11 C6_11 1_555 1_555
Cd3 N3_9 1_555 1_555
N8_5 Cd3 1_555 1_555
C9_9 C10_9 1_555 1_555
N2_9 N3_9 1_555 1_555
N4_9 N5_9 1_555 1_555
N4_9 Cd3 1_555 1_555
O1_9 Cd3 1_555 1_555
O2_11 Cd3 1_555 1_555
C12_9 C13_9 1_555 1_555
C13_9 H11_9 1_555 1_555
C14_11 C13_9 1_555 1_555
H12_11 C14_11 1_555 1_555
C16_9 C12_9 1_555 1_555
N6_8 C14_11 1_555 1_555
C12_10 C13_10 1_555 1_555
C13_10 H11_10 1_555 1_555
C14_12 C13_10 1_555 1_555
H12_12 C14_12 1_555 1_555
C16_10 C12_10 1_555 1_555
N6_9 C14_12 1_555 1_555
C1_12 H1_10 1_555 1_555
C2_12 C1_12 1_555 1_555
H2_12 C2_12 1_555 1_555
C3_12 C2_12 1_555 1_555
C4_12 C3_12 1_555 1_555
H3_12 C4_12 1_555 1_555
C5_12 C4_12 1_555 1_555
H4_12 C5_12 1_555 1_555
C6_12 C3_12 1_555 1_555
C7_10 C8_10 1_555 1_555
C8_10 H5_10 1_555 1_555
H6_10 C8_10 1_555 1_555
H7_10 C8_10 1_555 1_555
C9_10 H8_10 1_555 1_555
C10_10 C7_10 1_555 1_555
N7 C1_12 1_555 1_555
N2_10 C6_12 1_555 1_555
N3_10 C7_10 1_555 1_555
N4_10 C10_10 1_555 1_555
N5_10 C11_10 1_555 1_555
O1_10 H15_10 1_555 1_555
H16_10 O1_10 1_555 1_555
O2_12 C6_12 1_555 1_555
Cd3_2 N3_10 1_555 1_555
N8_6 Cd3_2 1_555 1_555
C5_12 N7 1_555 1_555
C9_10 C10_10 1_555 1_555
N2_10 N3_10 1_555 1_555
N4_10 N5_10 1_555 1_555
N4_10 Cd3_2 1_555 1_555
O1_10 Cd3_2 1_555 1_555
O2_12 Cd3_2 1_555 1_555
H12_13 C14_13 1_555 1_555
C15_9 H13_9 1_555 1_555
N6_10 C14_13 1_555 1_555
Cd3_5 N6_10 1_555 1_555
C15_9 N6_10 1_555 1_555
C1_13 H1_11 1_555 1_555
C2_13 C1_13 1_555 1_555
H2_13 C2_13 1_555 1_555
C3_13 C2_13 1_555 1_555
C4_13 C3_13 1_555 1_555
H3_13 C4_13 1_555 1_555
C5_13 C4_13 1_555 1_555
H4_13 C5_13 1_555 1_555
C6_13 C3_13 1_555 1_555
N7_8 C1_13 1_555 1_555
O2_13 C6_13 1_555 1_555
C5_13 N7_8 1_555 1_555
C1_14 H1_12 1_555 1_555
C2_14 C1_14 1_555 1_555
H2_14 C2_14 1_555 1_555
C3_14 C2_14 1_555 1_555
C4_14 C3_14 1_555 1_555
H3_14 C4_14 1_555 1_555
C5_14 C4_14 1_555 1_555
H4_14 C5_14 1_555 1_555
C6_14 C3_14 1_555 1_555
N7_9 C1_14 1_555 1_555
O2_14 C6_14 1_555 1_555
C5_14 N7_9 1_555 1_555
H12_14 C14_14 1_555 1_555
C15_10 H13_10 1_555 1_555
N6_11 C14_14 1_555 1_555
Cd3_6 N6_11 1_555 1_555
C15_10 N6_11 1_555 1_555
C1_15 H1_13 1_555 1_555
C2_15 C1_15 1_555 1_555
H2_15 C2_15 1_555 1_555
C3_15 C2_15 1_555 1_555
C4_15 C3_15 1_555 1_555
H3_15 C4_15 1_555 1_555
C5_15 C4_15 1_555 1_555
H4_15 C5_15 1_555 1_555
C6_15 C3_15 1_555 1_555
N7_7 C1_15 1_555 1_555
O2_15 C6_15 1_555 1_555
C5_15 N7_7 1_555 1_555
C7_11 C8_11 1_555 1_555
C8_11 H5_11 1_555 1_555
H6_11 C8_11 1_555 1_555
H7_11 C8_11 1_555 1_555
C9_11 H8_11 1_555 1_555
H9_7 C9_11 1_555 1_555
H10_7 C9_11 1_555 1_555
C10_11 C7_11 1_555 1_555
C11_11 C12_11 1_555 1_555
C12_11 C13_11 1_555 1_555
C13_11 H11_11 1_555 1_555
C14_15 C13_11 1_555 1_555
H12_15 C14_15 1_555 1_555
C15_11 H13_11 1_555 1_555
C16_11 C12_11 1_555 1_555
H14_7 C16_11 1_555 1_555
N3_11 C7_11 1_555 1_555
N4_11 C10_11 1_555 1_555
N5_11 C11_11 1_555 1_555
N6_12 C14_15 1_555 1_555
O1_11 H15_11 1_555 1_555
H16_11 O1_11 1_555 1_555
O3_11 C11_11 1_555 1_555
Cd3_7 N3_11 1_555 1_555
Cd3_4 N6_12 1_555 1_555
C9_11 C10_11 1_555 1_555
C15_11 C16_11 1_555 1_555
C15_11 N6_12 1_555 1_555
N2_11 N3_11 1_555 1_555
N4_11 N5_11 1_555 1_555
N4_11 Cd3_7 1_555 1_555
O1_11 Cd3_7 1_555 1_555
O3_11 Cd3_7 1_555 1_555
C2_16 C1_16 1_555 1_555
H2_16 C2_16 1_555 1_555
C3_16 C2_16 1_555 1_555
C4_16 C3_16 1_555 1_555
H3_16 C4_16 1_555 1_555
C5_16 C4_16 1_555 1_555
H4_16 C5_16 1_555 1_555
C6_16 C3_16 1_555 1_555
C7_12 C8_12 1_555 1_555
C8_12 H5_12 1_555 1_555
H6_12 C8_12 1_555 1_555
H7_12 C8_12 1_555 1_555
C9_12 H8_12 1_555 1_555
H9_8 C9_12 1_555 1_555
H10_8 C9_12 1_555 1_555
C10_12 C7_12 1_555 1_555
C11_12 C12_12 1_555 1_555
C12_12 C13_12 1_555 1_555
C13_12 H11_12 1_555 1_555
C14_16 C13_12 1_555 1_555
H12_16 C14_16 1_555 1_555
C15_12 H13_12 1_555 1_555
C16_12 C12_12 1_555 1_555
H14_8 C16_12 1_555 1_555
N7_5 C1_16 1_555 1_555
N2_12 C6_16 1_555 1_555
N3_12 C7_12 1_555 1_555
N4_12 C10_12 1_555 1_555
N5_12 C11_12 1_555 1_555
N8_6 C14_16 1_555 1_555
O1_12 H15_12 1_555 1_555
H16_12 O1_12 1_555 1_555
O2_16 C6_16 1_555 1_555
O3_12 C11_12 1_555 1_555
Cd3_6 N3_12 1_555 1_555
C5_16 N7_5 1_555 1_555
C9_12 C10_12 1_555 1_555
C15_12 C16_12 1_555 1_555
C15_12 N8_6 1_555 1_555
N2_12 N3_12 1_555 1_555
N4_12 N5_12 1_555 1_555
N4_12 Cd3_6 1_555 1_555
O1_12 Cd3_6 1_555 1_555
O2_16 Cd3_6 1_555 1_555
O3_12 Cd3_6 1_555 1_555
C2_17 C1_17 1_555 1_555
H2_17 C2_17 1_555 1_555
C3_17 C2_17 1_555 1_555
C4_17 C3_17 1_555 1_555
H3_17 C4_17 1_555 1_555
C5_17 C4_17 1_555 1_555
H4_17 C5_17 1_555 1_555
C6_17 C3_17 1_555 1_555
C7_13 C8_13 1_555 1_555
C8_13 H5_13 1_555 1_555
H6_13 C8_13 1_555 1_555
H7_13 C8_13 1_555 1_555
C9_13 H8_13 1_555 1_555
H9_9 C9_13 1_555 1_555
H10_9 C9_13 1_555 1_555
C10_13 C7_13 1_555 1_555
C11_13 C12_13 1_555 1_555
C12_13 C13_13 1_555 1_555
C13_13 H11_13 1_555 1_555
C14_17 C13_13 1_555 1_555
H12_17 C14_17 1_555 1_555
C15_13 H13_13 1_555 1_555
C16_13 C12_13 1_555 1_555
H14_9 C16_13 1_555 1_555
N7_6 C1_17 1_555 1_555
N2_13 C6_17 1_555 1_555
N3_13 C7_13 1_555 1_555
N4_13 C10_13 1_555 1_555
N5_13 C11_13 1_555 1_555
N8_4 C14_17 1_555 1_555
O1_13 H15_13 1_555 1_555
H16_13 O1_13 1_555 1_555
O2_17 C6_17 1_555 1_555
O3_13 C11_13 1_555 1_555
Cd3_4 N3_13 1_555 1_555
C5_17 N7_6 1_555 1_555
C9_13 C10_13 1_555 1_555
C15_13 C16_13 1_555 1_555
C15_13 N8_4 1_555 1_555
N2_13 N3_13 1_555 1_555
N4_13 N5_13 1_555 1_555
N4_13 Cd3_4 1_555 1_555
O1_13 Cd3_4 1_555 1_555
O2_17 Cd3_4 1_555 1_555
O3_13 Cd3_4 1_555 1_555
C2_18 C1_18 1_555 1_555
H2_18 C2_18 1_555 1_555
C3_18 C2_18 1_555 1_555
C4_18 C3_18 1_555 1_555
H3_18 C4_18 1_555 1_555
C5_18 C4_18 1_555 1_555
H4_18 C5_18 1_555 1_555
C6_18 C3_18 1_555 1_555
C7_14 C8_14 1_555 1_555
C8_14 H5_14 1_555 1_555
H6_14 C8_14 1_555 1_555
H7_14 C8_14 1_555 1_555
C9_14 H8_14 1_555 1_555
H9_10 C9_14 1_555 1_555
H10_10 C9_14 1_555 1_555
C10_14 C7_14 1_555 1_555
C11_14 C12_14 1_555 1_555
C12_14 C13_14 1_555 1_555
C13_14 H11_14 1_555 1_555
C14_18 C13_14 1_555 1_555
H12_18 C14_18 1_555 1_555
C15_14 H13_14 1_555 1_555
C16_14 C12_14 1_555 1_555
H14_10 C16_14 1_555 1_555
N7_4 C1_18 1_555 1_555
N2_14 C6_18 1_555 1_555
N3_14 C7_14 1_555 1_555
N4_14 C10_14 1_555 1_555
N5_14 C11_14 1_555 1_555
N8_5 C14_18 1_555 1_555
O1_14 H15_14 1_555 1_555
H16_14 O1_14 1_555 1_555
O2_18 C6_18 1_555 1_555
O3_14 C11_14 1_555 1_555
Cd3_5 N3_14 1_555 1_555
C5_18 N7_4 1_555 1_555
C9_14 C10_14 1_555 1_555
C15_14 C16_14 1_555 1_555
C15_14 N8_5 1_555 1_555
N2_14 N3_14 1_555 1_555
N4_14 N5_14 1_555 1_555
N4_14 Cd3_5 1_555 1_555
O1_14 Cd3_5 1_555 1_555
O2_18 Cd3_5 1_555 1_555
O3_14 Cd3_5 1_555 1_555
C15_15 H13_15 1_555 1_555
C7_15 C8_15 1_555 1_555
C8_15 H5_15 1_555 1_555
H6_15 C8_15 1_555 1_555
H7_15 C8_15 1_555 1_555
C9_15 H8_15 1_555 1_555
H9_11 C9_15 1_555 1_555
H10_11 C9_15 1_555 1_555
C10_15 C7_15 1_555 1_555
C11_15 C12_15 1_555 1_555
C12_15 C13_15 1_555 1_555
C13_15 H11_15 1_555 1_555
C16_15 C12_15 1_555 1_555
H14_11 C16_15 1_555 1_555
N3_15 C7_15 1_555 1_555
N4_15 C10_15 1_555 1_555
N5_15 C11_15 1_555 1_555
O1_15 H15_15 1_555 1_555
H16_15 O1_15 1_555 1_555
O3_15 C11_15 1_555 1_555
Cd2_5 N3_15 1_555 1_555
C9_15 C10_15 1_555 1_555
N2_15 N3_15 1_555 1_555
N4_15 N5_15 1_555 1_555
N4_15 Cd2_5 1_555 1_555
O1_15 Cd2_5 1_555 1_555
O3_15 Cd2_5 1_555 1_555
C15_16 H13_16 1_555 1_555
C7_16 C8_16 1_555 1_555
C8_16 H5_16 1_555 1_555
H6_16 C8_16 1_555 1_555
H7_16 C8_16 1_555 1_555
C9_16 H8_16 1_555 1_555
H9_14 C9_16 1_555 1_555
H10_14 C9_16 1_555 1_555
C10_16 C7_16 1_555 1_555
C11_16 C12_16 1_555 1_555
C12_16 C13_16 1_555 1_555
C13_16 H11_16 1_555 1_555
C16_16 C12_16 1_555 1_555
H14_14 C16_16 1_555 1_555
N3_16 C7_16 1_555 1_555
N4_16 C10_16 1_555 1_555
N5_16 C11_16 1_555 1_555
O1_16 H15_16 1_555 1_555
H16_16 O1_16 1_555 1_555
O3_16 C11_16 1_555 1_555
Cd2_6 N3_16 1_555 1_555
C9_16 C10_16 1_555 1_555
N2_16 N3_16 1_555 1_555
N4_16 N5_16 1_555 1_555
N4_16 Cd2_6 1_555 1_555
O1_16 Cd2_6 1_555 1_555
O3_16 Cd2_6 1_555 1_555
C15_17 H13_17 1_555 1_555
C7_17 C8_17 1_555 1_555
C8_17 H5_17 1_555 1_555
H6_17 C8_17 1_555 1_555
H7_17 C8_17 1_555 1_555
C9_17 H8_17 1_555 1_555
H9_15 C9_17 1_555 1_555
H10_15 C9_17 1_555 1_555
C10_17 C7_17 1_555 1_555
C11_17 C12_17 1_555 1_555
C12_17 C13_17 1_555 1_555
C13_17 H11_17 1_555 1_555
C16_17 C12_17 1_555 1_555
H14_15 C16_17 1_555 1_555
N3_17 C7_17 1_555 1_555
N4_17 C10_17 1_555 1_555
N5_17 C11_17 1_555 1_555
O1_17 H15_17 1_555 1_555
H16_17 O1_17 1_555 1_555
O3_17 C11_17 1_555 1_555
Cd3_8 N3_17 1_555 1_555
C9_17 C10_17 1_555 1_555
N2_17 N3_17 1_555 1_555
N4_17 N5_17 1_555 1_555
N4_17 Cd3_8 1_555 1_555
O1_17 Cd3_8 1_555 1_555
O3_17 Cd3_8 1_555 1_555
C15_18 H13_18 1_555 1_555
C7_18 C8_18 1_555 1_555
C8_18 H5_18 1_555 1_555
H6_18 C8_18 1_555 1_555
H7_18 C8_18 1_555 1_555
C9_18 H8_18 1_555 1_555
H9_16 C9_18 1_555 1_555
H10_16 C9_18 1_555 1_555
C10_18 C7_18 1_555 1_555
C11_18 C12_18 1_555 1_555
C12_18 C13_18 1_555 1_555
C13_18 H11_18 1_555 1_555
C16_18 C12_18 1_555 1_555
H14_16 C16_18 1_555 1_555
N3_18 C7_18 1_555 1_555
N4_18 C10_18 1_555 1_555
N5_18 C11_18 1_555 1_555
O1_18 H15_18 1_555 1_555
H16_18 O1_18 1_555 1_555
O3_18 C11_18 1_555 1_555
Cd3_9 N3_18 1_555 1_555
C9_18 C10_18 1_555 1_555
N2_18 N3_18 1_555 1_555
N4_18 N5_18 1_555 1_555
N4_18 Cd3_9 1_555 1_555
O1_18 Cd3_9 1_555 1_555
O3_18 Cd3_9 1_555 1_555

#END
