
###############################################################################
#
# This file contains modified crystal structure data generated from the
# MOF subset of the Cambridge Structural Database (CSD) v543 
# hosted by the Cambridge Crystallographic Data Centre (CCDC).
#
# This work is licensed under the Creative Commons
# Attribution-NonCommercial-ShareAlike 4.0 International License.
# To view a copy of this license, visit
# http://creativecommons.org/licenses/by-nc-sa/4.0/
# or send a letter to
# Creative Commons, PO Box 1866, Mountain View, CA 94042, USA.
#
# CIF created using the CSD Python API on 29 September 2022
# The structure has been converted into the P1 space group
# The structure has a 3D framework
# The original CSD entry HOZBUV is in the monoclinic crystal system
# The framework has been calculated to contain at least 10.0% void space
# The void calculation uses a probe of radius 1.32A, grid spacing 0.4
# H atom positions have been added when not included in the experimental data
# Generated hydrogen atom positions removed from atoms on special positions
#
###############################################################################

data_HOZBUV
_chemical_formula_moiety         '(C32 H48 Cd6 N20 O14)n'
_symmetry_cell_setting           triclinic
_symmetry_space_group_name_H-M   'P 1'
_symmetry_Int_Tables_number      1
_space_group_name_Hall           'P 1'
loop_
_symmetry_equiv_pos_site_id
_symmetry_equiv_pos_as_xyz
1 x,y,z
_cell_length_a                   12.8331(19)
_cell_length_b                   15.626(2)
_cell_length_c                   7.5450(11)
_cell_angle_alpha                90
_cell_angle_beta                 93.225(3)
_cell_angle_gamma                90
_cell_volume                     1510.6
loop_
_atom_site_label
_atom_site_type_symbol
_atom_site_fract_x
_atom_site_fract_y
_atom_site_fract_z
Cd2 Cd 0.5000 0.0000 0.0000
Cd6 Cd 0.5000 0.0000 0.5000
N11 N 0.5278(6) 0.1506(4) 0.0184(10)
Cd2_2 Cd 0.5000 -0.0000 1.0000
O11 O 0.5899(12) 0.0089(8) 0.7752(18)
O12 O 0.4101(12) 0.0089(8) 0.7248(18)
Cd2_3 Cd 0.5000 1.0000 0.0000
N2 N 0.4975(4) 0.6225(4) 0.0009(7)
H1 H 0.2630 0.6213 0.0439
N3 N 0.6249(5) 0.5357(4) 0.1257(9)
H3 H 0.6842 0.5276 0.1818
H4 H 0.5867 0.4927 0.0930
C3 C 0.5278(6) 0.7749(5) 0.0281(10)
N4 N 0.6554(5) 0.6803(4) 0.1440(7)
C6 C 0.5922(5) 0.6146(5) 0.0895(8)
C8 C 0.6233(6) 0.7590(5) 0.1174(9)
H8 H 0.6647 0.8045 0.1586
O4 O 0.4101(12) 0.9911(8) 0.2248(18)
O8 O 0.5899(12) 0.9911(8) 0.2752(18)
Cd4 Cd 0.0000 0.54111(4) 0.2500
Cd6_2 Cd 0.5000 1.0000 0.5000
Cd1 Cd 0.0000 0.45889(4) 0.7500
Cd2_4 Cd 0.5000 1.0000 1.0000
O1 O 0.1688(4) 0.5410(3) 0.7339(7)
O2 O 0.0619(4) 0.5711(3) 0.9420(6)
N1 N 0.3802(5) 0.7330(4) 0.8910(7)
C1 C 0.2218(5) 0.6477(4) 0.9470(8)
H2 H 0.1835 0.6950 0.9954
C2 C 0.1448(5) 0.5827(4) 0.8674(8)
N5 N 0.4722(6) 0.8494(4) 0.9816(10)
C4 C 0.4704(5) 0.7033(5) 0.9770(8)
C5 C 0.2952(6) 0.6822(5) 0.8098(9)
H5 H 0.3241 0.6345 0.7466
H6 H 0.2554 0.7172 0.7240
C7 C 0.3868(7) 0.8194(5) 0.9006(12)
H7 H 0.3344 0.8550 0.8531
O7 O 0.1142(6) 0.3612(4) 0.8857(8)
O10 O 0.0619(4) 0.4289(3) 0.4420(6)
Cd4_2 Cd 1.0000 0.54111(4) 0.2500
O9 O 0.9381(4) 0.4289(3) 0.0580(6)
Cd1_2 Cd 1.0000 0.45889(4) 0.7500
O3 O 0.8858(6) 0.3612(4) 0.6143(8)
O5 O 0.8312(4) 0.5410(3) 0.7661(7)
O6 O 0.9381(4) 0.5711(3) 0.5580(6)
N6 N 0.6198(5) 0.7330(4) 0.6090(7)
N7 N 0.5025(4) 0.6225(4) 0.4991(7)
C9 C 0.7782(5) 0.6477(4) 0.5530(8)
H9 H 0.7370 0.6213 0.4561
H10 H 0.8165 0.6950 0.5046
C10 C 0.8552(5) 0.5827(4) 0.6326(8)
N8 N 0.3751(5) 0.5357(4) 0.3743(9)
H11 H 0.3158 0.5276 0.3182
H12 H 0.4133 0.4927 0.4070
C11 C 0.4722(6) 0.7749(5) 0.4719(10)
N9 N 0.3446(5) 0.6803(4) 0.3560(7)
N10 N 0.5278(6) 0.8494(4) 0.5184(10)
C12 C 0.5296(5) 0.7033(5) 0.5230(8)
C13 C 0.7048(6) 0.6822(5) 0.6902(9)
H13 H 0.6759 0.6345 0.7534
H14 H 0.7446 0.7172 0.7760
C14 C 0.4078(5) 0.6146(5) 0.4105(8)
C15 C 0.6132(7) 0.8194(5) 0.5994(12)
H15 H 0.6656 0.8550 0.6469
C16 C 0.3767(6) 0.7590(5) 0.3826(9)
H16 H 0.3353 0.8045 0.3414
N11_2 N 0.4722(6) 0.1506(4) 0.4816(10)
O3_2 O 0.1142(6) 0.6388(4) 0.3857(8)
O5_2 O 0.1688(4) 0.4590(3) 0.2339(7)
N6_2 N 0.3802(5) 0.2670(4) 0.3910(7)
N7_2 N 0.4975(4) 0.3775(4) 0.5009(7)
C9_2 C 0.2218(5) 0.3523(4) 0.4470(8)
H9_2 H 0.2630 0.3787 0.5439
H10_2 H 0.1835 0.3050 0.4954
C10_2 C 0.1448(5) 0.4173(4) 0.3674(8)
N8_2 N 0.6249(5) 0.4643(4) 0.6257(9)
H11_2 H 0.6842 0.4724 0.6818
H12_2 H 0.5867 0.5073 0.5930
C11_2 C 0.5278(6) 0.2251(5) 0.5281(10)
N9_2 N 0.6554(5) 0.3197(4) 0.6440(7)
C12_2 C 0.4704(5) 0.2967(5) 0.4770(8)
C13_2 C 0.2952(6) 0.3178(5) 0.3098(9)
H13_2 H 0.3241 0.3655 0.2466
H14_2 H 0.2554 0.2828 0.2240
C14_2 C 0.5922(5) 0.3854(5) 0.5895(8)
C15_2 C 0.3868(7) 0.1806(5) 0.4006(12)
H15_2 H 0.3344 0.1450 0.3531
C16_2 C 0.6233(6) 0.2410(5) 0.6174(9)
H16_2 H 0.6647 0.1955 0.6586
O1_2 O 0.8312(4) 0.4590(3) 0.2661(7)
N1_2 N 0.6198(5) 0.2670(4) 0.1090(7)
C1_2 C 0.7782(5) 0.3523(4) 0.0530(8)
H2_2 H 0.8165 0.3050 0.0046
C2_2 C 0.8552(5) 0.4173(4) 0.1326(8)
C4_2 C 0.5296(5) 0.2967(5) 0.0230(8)
C5_2 C 0.7048(6) 0.3178(5) 0.1902(9)
H5_2 H 0.6759 0.3655 0.2534
H6_2 H 0.7446 0.2828 0.2760
C7_2 C 0.6132(7) 0.1806(5) 0.0994(12)
H7_2 H 0.6656 0.1450 0.1469
O7_2 O 0.8858(6) 0.6388(4) 0.1143(8)
N2_2 N 0.5025(4) 0.3775(4) 0.9991(7)
H1_2 H 0.7370 0.3787 0.9561
N3_2 N 0.3751(5) 0.4643(4) 0.8743(9)
H3_2 H 0.3158 0.4724 0.8182
H4_2 H 0.4133 0.5073 0.9070
C3_2 C 0.4722(6) 0.2251(5) 0.9719(10)
N4_2 N 0.3446(5) 0.3197(4) 0.8560(7)
C6_2 C 0.4078(5) 0.3854(5) 0.9105(8)
C8_2 C 0.3767(6) 0.2410(5) 0.8826(9)
H8_2 H 0.3353 0.1955 0.8414
loop_
_geom_bond_atom_site_label_1
_geom_bond_atom_site_label_2
_geom_bond_site_symmetry_1
_geom_bond_site_symmetry_2
N11 Cd2 1_555 1_555
O11 Cd2_2 1_555 1_555
O12 Cd2_2 1_555 1_555
N3 H3 1_555 1_555
H4 N3 1_555 1_555
N4 C6 1_555 1_555
C6 N2 1_555 1_555
C8 C3 1_555 1_555
H8 C8 1_555 1_555
O4 Cd2_3 1_555 1_555
O8 Cd2_3 1_555 1_555
Cd6_2 O4 1_555 1_555
N3 C6 1_555 1_555
N4 C8 1_555 1_555
O8 Cd6_2 1_555 1_555
Cd1 O1 1_555 1_555
Cd2_4 N5 1_555 1_555
O1 C2 1_555 1_555
O2 Cd1 1_555 1_555
N1 C4 1_555 1_555
H2 C1 1_555 1_555
C2 O2 1_555 1_555
N5 C7 1_555 1_555
C5 N1 1_555 1_555
H5 C5 1_555 1_555
H6 C5 1_555 1_555
C7 N1 1_555 1_555
H7 C7 1_555 1_555
O7 Cd1 1_555 1_555
O10 Cd1 1_555 1_555
C1 C2 1_555 1_555
C1 C5 1_555 1_555
Cd4 O10 1_555 1_555
Cd4_2 O9 1_555 1_555
O3 Cd1_2 1_555 1_555
O5 Cd1_2 1_555 1_555
O6 Cd1_2 1_555 1_555
N6 C12 1_555 1_555
N7 C12 1_555 1_555
C9 H9 1_555 1_555
H10 C9 1_555 1_555
C10 O5 1_555 1_555
N8 H11 1_555 1_555
H12 N8 1_555 1_555
C11 N10 1_555 1_555
N9 C14 1_555 1_555
N10 C15 1_555 1_555
C12 C11 1_555 1_555
C13 N6 1_555 1_555
H13 C13 1_555 1_555
H14 C13 1_555 1_555
C14 N7 1_555 1_555
C15 N6 1_555 1_555
H15 C15 1_555 1_555
C16 C11 1_555 1_555
H16 C16 1_555 1_555
Cd4_2 O6 1_555 1_555
Cd6_2 N10 1_555 1_555
O6 C10 1_555 1_555
C9 C10 1_555 1_555
C9 C13 1_555 1_555
N8 C14 1_555 1_555
N9 C16 1_555 1_555
N11_2 Cd6 1_555 1_555
O12 Cd6 1_555 1_555
O11 Cd6 1_555 1_555
O3_2 Cd4 1_555 1_555
O5_2 Cd4 1_555 1_555
N6_2 C12_2 1_555 1_555
N7_2 C12_2 1_555 1_555
C9_2 H9_2 1_555 1_555
H10_2 C9_2 1_555 1_555
C10_2 O5_2 1_555 1_555
N8_2 H11_2 1_555 1_555
H12_2 N8_2 1_555 1_555
C11_2 N11_2 1_555 1_555
N9_2 C14_2 1_555 1_555
N11_2 C15_2 1_555 1_555
C12_2 C11_2 1_555 1_555
C13_2 N6_2 1_555 1_555
H13_2 C13_2 1_555 1_555
H14_2 C13_2 1_555 1_555
C14_2 N7_2 1_555 1_555
C15_2 N6_2 1_555 1_555
H15_2 C15_2 1_555 1_555
C16_2 C11_2 1_555 1_555
H16_2 C16_2 1_555 1_555
O10 C10_2 1_555 1_555
C9_2 C10_2 1_555 1_555
C9_2 C13_2 1_555 1_555
N8_2 C14_2 1_555 1_555
N9_2 C16_2 1_555 1_555
Cd4_2 O1_2 1_555 1_555
O1_2 C2_2 1_555 1_555
N1_2 C4_2 1_555 1_555
H2_2 C1_2 1_555 1_555
C2_2 O9 1_555 1_555
N11 C7_2 1_555 1_555
C5_2 N1_2 1_555 1_555
H5_2 C5_2 1_555 1_555
H6_2 C5_2 1_555 1_555
C7_2 N1_2 1_555 1_555
H7_2 C7_2 1_555 1_555
O7_2 Cd4_2 1_555 1_555
C1_2 C2_2 1_555 1_555
C1_2 C5_2 1_555 1_555
N3_2 H3_2 1_555 1_555
H4_2 N3_2 1_555 1_555
N4_2 C6_2 1_555 1_555
C6_2 N2_2 1_555 1_555
C8_2 C3_2 1_555 1_555
H8_2 C8_2 1_555 1_555
N3_2 C6_2 1_555 1_555
N4_2 C8_2 1_555 1_555

#END
