
###############################################################################
#
# This file contains modified crystal structure data generated from the
# MOF subset of the Cambridge Structural Database (CSD) v543 
# hosted by the Cambridge Crystallographic Data Centre (CCDC).
#
# This work is licensed under the Creative Commons
# Attribution-NonCommercial-ShareAlike 4.0 International License.
# To view a copy of this license, visit
# http://creativecommons.org/licenses/by-nc-sa/4.0/
# or send a letter to
# Creative Commons, PO Box 1866, Mountain View, CA 94042, USA.
#
# CIF created using the CSD Python API on 29 September 2022
# The structure has been converted into the P1 space group
# The structure has a 3D framework
# The original CSD entry HOZDOR is in the triclinic crystal system
# The framework has been calculated to contain at least 10.0% void space
# The void calculation uses a probe of radius 1.32A, grid spacing 0.4
#
###############################################################################

data_HOZDOR
_chemical_formula_moiety         '(C18 H12 Al4 O18 P6)n'
_symmetry_cell_setting           triclinic
_symmetry_space_group_name_H-M   'P 1'
_symmetry_Int_Tables_number      1
_space_group_name_Hall           'P 1'
loop_
_symmetry_equiv_pos_site_id
_symmetry_equiv_pos_as_xyz
1 x,y,z
_cell_length_a                   8.5943(3)
_cell_length_b                   4.97060(14)
_cell_length_c                   19.5499(6)
_cell_angle_alpha                98.870(4)
_cell_angle_beta                 105.9332(19)
_cell_angle_gamma                89.598(3)
_cell_volume                     792.912
loop_
_atom_site_label
_atom_site_type_symbol
_atom_site_fract_x
_atom_site_fract_y
_atom_site_fract_z
_atom_site_U_iso_or_equiv
_atom_site_thermal_displace_type
Al1 Al 0.3590(9) 0.1188(17) 0.2505(5) 0.0101 Uiso
P1 P 0.3881(9) 0.3394(15) 0.6980(3) 0.0101 Uiso
O1 O 0.4776(14) 0.076(2) 0.7161(8) 0.0140 Uiso
O2 O 0.5055(15) 0.587(2) 0.7347(8) 0.0140 Uiso
P2 P 0.1455(4) 0.2294(13) 0.35548(17) 0.0101 Uiso
O3 O 0.2422(12) 0.383(3) 0.7300(6) 0.0140 Uiso
O4 O 0.2805(7) 0.119(2) 0.3212(3) 0.0140 Uiso
C1 C 0.1461(6) 0.1047(16) 0.4855(3) 0.0140 Uiso
C2 C 0.2217(6) 0.2739(11) 0.4526(3) 0.0140 Uiso
C3 C 0.3444(10) 0.4572(13) 0.4941(4) 0.0140 Uiso
C4 C 0.3928(8) 0.4724(18) 0.5692(4) 0.0140 Uiso
C5 C 0.3167(7) 0.3021(16) 0.6023(3) 0.0140 Uiso
C6 C 0.1931(10) 0.1176(15) 0.5604(4) 0.0140 Uiso
O9 O 0.1068(12) 0.5242(14) 0.3394(6) 0.0140 Uiso
H1 H 0.396267 0.573792 0.471482 0.0168 Uiso
H2 H 0.140801 0.000526 0.582777 0.0168 Uiso
H6 H 0.478062 0.599174 0.597952 0.0168 Uiso
Al10 Al 0.6410(9) 0.8812(17) 0.7495(5) 0.0101 Uiso
O22 O 0.4945(15) 0.413(2) 0.2653(8) 0.0140 Uiso
Al14 Al 0.0432(9) 0.2985(16) 0.7148(4) 0.0101 Uiso
O25 O 0.1939(19) 0.296(2) 0.1826(8) 0.0140 Uiso
P3 P 0.1444(8) 0.5912(17) 0.1722(4) 0.0101 Uiso
C7 C 0.0620(4) 0.5380(10) 0.07448(3) 0.0140 Uiso
C8 C 0.1473(7) 0.392(2) 0.03110(17) 0.0140 Uiso
O8 O 0.2703(15) 0.831(3) 0.1884(7) 0.0140 Uiso
H3 H 0.248477 0.315199 0.052591 0.0168 Uiso
H5 H 0.061023 0.978102 0.456427 0.0168 Uiso
O20 O 0.5224(14) 0.924(2) 0.2839(8) 0.0140 Uiso
O10 O 0.0118(10) 0.365(3) 0.8032(6) 0.0140 Uiso
C12 C 0.0862(7) 0.356(2) 0.95658(15) 0.0140 Uiso
H8 H 0.146269 0.258583 0.926576 0.0168 Uiso
O17 O 0.0094(8) 0.9580(17) 0.6770(6) 0.0140 Uiso
O5 O 0.9906(8) 0.0420(17) 0.3230(6) 0.0140 Uiso
Al12 Al 0.9568(9) 0.7015(16) 0.2852(4) 0.0101 Uiso
O6 O 0.9882(10) 0.635(3) 0.1968(6) 0.0140 Uiso
C9 C 0.9138(7) 0.644(2) 0.04342(15) 0.0140 Uiso
H4 H 0.853731 0.741417 0.073424 0.0168 Uiso
O24 O 0.7578(12) 0.617(3) 0.2700(6) 0.0140 Uiso
P4 P 0.8556(8) 0.4088(17) 0.8278(4) 0.0101 Uiso
O11 O 0.8061(19) 0.704(2) 0.8174(8) 0.0140 Uiso
C10 C 0.9380(4) 0.4620(10) 0.92552(3) 0.0140 Uiso
C11 C 0.8527(7) 0.608(2) 0.96890(17) 0.0140 Uiso
O12 O 0.7297(15) 0.169(3) 0.8116(7) 0.0140 Uiso
H7 H 0.751523 0.684801 0.947409 0.0168 Uiso
H11 H 0.938977 0.021898 0.543573 0.0168 Uiso
O28 O 0.8932(12) 0.4758(14) 0.6606(6) 0.0140 Uiso
P5 P 0.6119(9) 0.6606(15) 0.3020(3) 0.0101 Uiso
P6 P 0.8545(4) 0.7706(13) 0.64452(17) 0.0101 Uiso
O16 O 0.7195(7) 0.881(2) 0.6788(3) 0.0140 Uiso
C13 C 0.8539(6) 0.8953(16) 0.5145(3) 0.0140 Uiso
C14 C 0.7783(6) 0.7261(11) 0.5474(3) 0.0140 Uiso
C15 C 0.6556(10) 0.5428(13) 0.5059(4) 0.0140 Uiso
C16 C 0.6072(8) 0.5276(18) 0.4308(4) 0.0140 Uiso
C17 C 0.6833(7) 0.6979(16) 0.3977(3) 0.0140 Uiso
C18 C 0.8069(10) 0.8824(15) 0.4396(4) 0.0140 Uiso
H9 H 0.603733 0.426208 0.528518 0.0168 Uiso
H10 H 0.859199 0.999474 0.417223 0.0168 Uiso
H12 H 0.521938 0.400826 0.402048 0.0168 Uiso
loop_
_geom_bond_atom_site_label_1
_geom_bond_atom_site_label_2
_geom_bond_site_symmetry_1
_geom_bond_site_symmetry_2
Al1 O4 1_555 1_555
P1 O1 1_555 1_555
O2 P1 1_555 1_555
P2 O4 1_555 1_555
O3 P1 1_555 1_555
C1 C2 1_555 1_555
C2 P2 1_555 1_555
C3 C2 1_555 1_555
C4 C3 1_555 1_555
C5 P1 1_555 1_555
C6 C1 1_555 1_555
O9 P2 1_555 1_555
H1 C3 1_555 1_555
H2 C6 1_555 1_555
H6 C4 1_555 1_555
Al10 O2 1_555 1_555
O22 Al1 1_555 1_555
Al14 O3 1_555 1_555
O25 Al1 1_555 1_555
C4 C5 1_555 1_555
C5 C6 1_555 1_555
O25 P3 1_555 1_555
C7 P3 1_555 1_555
C8 C7 1_555 1_555
H3 C8 1_555 1_555
P3 O8 1_555 1_555
O10 Al14 1_555 1_555
H8 C12 1_555 1_555
O6 Al12 1_555 1_555
H4 C9 1_555 1_555
O24 Al12 1_555 1_555
O11 P4 1_555 1_555
C10 P4 1_555 1_555
O12 P4 1_555 1_555
H7 C11 1_555 1_555
Al10 O11 1_555 1_555
C10 C11 1_555 1_555
P5 O20 1_555 1_555
O22 P5 1_555 1_555
P6 O16 1_555 1_555
O24 P5 1_555 1_555
O16 Al10 1_555 1_555
C13 C14 1_555 1_555
C14 P6 1_555 1_555
C15 C14 1_555 1_555
C16 C15 1_555 1_555
C17 P5 1_555 1_555
C18 C13 1_555 1_555
O28 P6 1_555 1_555
H9 C15 1_555 1_555
H10 C18 1_555 1_555
H12 C16 1_555 1_555
C16 C17 1_555 1_555
C17 C18 1_555 1_555

#END
