
###############################################################################
#
# This file contains modified crystal structure data generated from the
# MOF subset of the Cambridge Structural Database (CSD) v543 
# hosted by the Cambridge Crystallographic Data Centre (CCDC).
#
# This work is licensed under the Creative Commons
# Attribution-NonCommercial-ShareAlike 4.0 International License.
# To view a copy of this license, visit
# http://creativecommons.org/licenses/by-nc-sa/4.0/
# or send a letter to
# Creative Commons, PO Box 1866, Mountain View, CA 94042, USA.
#
# CIF created using the CSD Python API on 29 September 2022
# The structure has been converted into the P1 space group
# The structure has a 3D framework
# The original CSD entry HOZFIN is in the trigonal crystal system
# The framework has been calculated to contain at least 10.0% void space
# The void calculation uses a probe of radius 1.32A, grid spacing 0.4
# The framework is charged, counterions have been retained in the structure
# H atom positions have been added when not included in the experimental data
# Generated hydrogen atom positions removed from atoms on special positions
#
###############################################################################

data_HOZFIN
_chemical_formula_moiety         '(C108 H72 Li22 O80 2-)n'
_symmetry_cell_setting           triclinic
_symmetry_space_group_name_H-M   'P 1'
_symmetry_Int_Tables_number      1
_space_group_name_Hall           'P 1'
loop_
_symmetry_equiv_pos_site_id
_symmetry_equiv_pos_as_xyz
1 x,y,z
_cell_length_a                   18.6108(7)
_cell_length_b                   18.6108(7)
_cell_length_c                   19.3734(7)
_cell_angle_alpha                90
_cell_angle_beta                 90
_cell_angle_gamma                120
_cell_volume                     5811.21
loop_
_atom_site_label
_atom_site_type_symbol
_atom_site_fract_x
_atom_site_fract_y
_atom_site_fract_z
O16 O 0.45095(13) 0.10203(9) 0.56221(7)
C19 C 0.41957(18) 0.02972(13) 0.54400(10)
C20 C 0.40735(18) 0.00712(13) 0.46915(9)
C21 C 0.42768(22) 0.06899(14) 0.42070(11)
H10 H 0.4476 0.1246 0.4351
C22 C 0.41878(23) 0.04939(14) 0.35100(11)
H11 H 0.4337 0.0922 0.3179
O18 O 0.41859(20) 0.01308(11) 0.21347(8)
C29 C 0.59977(13) 0.00712(13) 0.03085(9)
C30 C 0.64131(17) 0.06899(14) 0.07930(11)
H14 H 0.6770 0.1246 0.0649
C31 C 0.63061(18) 0.04939(14) 0.14900(11)
H15 H 0.6585 0.0922 0.1821
O25 O 0.59449(17) 0.01308(11) 0.28653(8)
Li15 Li 0.5067(2) 0.1676(2) 0.64122(16)
O23 O 0.65108(10) 0.10203(9) 0.93779(7)
C28 C 0.61015(13) 0.02972(13) 0.95600(10)
Li14 Li 0.6609(3) 0.1676(2) 0.85878(16)
Li1 Li 0.1676(2) 0.5067(2) 0.14122(16)
Li2 Li 0.21786(18) 0.4357(4) 0.2500
Li3 Li 0.3333 0.6667 0.3464(6)
O2 O 0.03250(10) 0.42767(13) 0.58573(8)
H1 H 0.0281(13) 0.4320(18) 0.6362(9)
C5 C 0.03220(13) 0.42042(14) 0.32865(10)
C6 C 0.09463(12) 0.46098(12) 0.37775(9)
C7 C 0.07450(12) 0.45119(12) 0.44784(9)
H4 H 0.1168 0.4795 0.4812
C8 C 0.04913(13) 0.43189(15) 0.25189(10)
O4 O 0.12232(9) 0.46648(11) 0.23151(7)
C9 C 0.18580(11) 0.51524(12) 0.36142(8)
O5 O 0.21701(9) 0.59195(9) 0.36965(8)
O6 O 0.22604(9) 0.47975(9) 0.34665(7)
O7 O 0.15830(11) 0.3166(2) 0.2500
O8 O 0.3333 0.6667 0.2500
Li4 Li 0.4933(2) 0.6609(3) 0.14122(16)
Li5 Li 0.5643(4) 0.78216(44) 0.2500
O9 O 0.65108(10) 0.54905(13) 0.56221(7)
O10 O 0.57233(13) 0.60483(16) 0.58573(8)
H5 H 0.5680(18) 0.5961(22) 0.6362(9)
C10 C 0.61015(13) 0.58043(18) 0.54400(10)
C11 C 0.59977(13) 0.59265(18) 0.46915(9)
C12 C 0.64131(17) 0.57232(22) 0.42070(11)
H6 H 0.6770 0.5524 0.4351
C13 C 0.63061(18) 0.58122(23) 0.35100(11)
H7 H 0.6585 0.5663 0.3179
C14 C 0.57958(14) 0.61178(19) 0.32865(10)
C15 C 0.53902(12) 0.63365(17) 0.37775(9)
C16 C 0.54881(12) 0.62331(17) 0.44784(9)
H8 H 0.5205 0.6373 0.4812
C17 C 0.56811(15) 0.61724(20) 0.25189(10)
O11 O 0.59449(17) 0.58141(20) 0.21347(8)
O12 O 0.53352(11) 0.65584(14) 0.23151(7)
C18 C 0.48476(12) 0.67056(16) 0.36142(8)
O13 O 0.40805(9) 0.62506(13) 0.36965(8)
O14 O 0.52025(9) 0.74629(13) 0.34665(7)
O15 O 0.6834(2) 0.84170(23) 0.2500
Li6 Li 0.3391(3) 0.8324(2) 0.14122(16)
Li7 Li 0.21784(44) 0.78214(18) 0.2500
O17 O 0.39517(16) 0.96750(10) 0.58573(8)
H9 H 0.4039(22) 0.9719(13) 0.6362(9)
C23 C 0.38822(19) 0.96780(13) 0.32865(10)
C24 C 0.36635(17) 0.90537(12) 0.37775(9)
C25 C 0.37669(17) 0.92550(12) 0.44784(9)
H12 H 0.3627 0.8832 0.4812
C26 C 0.38276(20) 0.95087(13) 0.25189(10)
O19 O 0.34416(14) 0.87768(9) 0.23151(7)
C27 C 0.32944(16) 0.81420(11) 0.36142(8)
O20 O 0.37494(13) 0.78299(9) 0.36965(8)
O21 O 0.25371(13) 0.77396(9) 0.34665(7)
O22 O 0.15830(23) 0.84170(11) 0.2500
Li8 Li 0.4933(2) 0.8324(2) 0.35878(16)
Li9 Li 0.3333 0.6667 0.1536(6)
C32 C 0.57958(14) 0.96780(13) 0.17135(10)
C33 C 0.53902(12) 0.90537(12) 0.12225(9)
C34 C 0.54881(12) 0.92550(12) 0.05216(9)
H16 H 0.5205 0.8832 0.0188
C35 C 0.56811(15) 0.95087(13) 0.24811(10)
O26 O 0.53352(11) 0.87768(9) 0.26849(7)
C36 C 0.48476(12) 0.81420(11) 0.13858(8)
O27 O 0.40805(9) 0.78299(9) 0.13035(8)
O28 O 0.52025(9) 0.77396(9) 0.15335(7)
Li10 Li 0.3391(3) 0.5067(2) 0.35878(16)
C38 C 0.40735(18) 0.40023(13) 0.03085(9)
C39 C 0.42768(22) 0.35869(17) 0.07930(11)
H18 H 0.4476 0.3230 0.0649
C40 C 0.41878(23) 0.36939(18) 0.14900(11)
H19 H 0.4337 0.3415 0.1821
C41 C 0.38822(19) 0.42042(14) 0.17135(10)
C42 C 0.36635(17) 0.46098(12) 0.12225(9)
C43 C 0.37669(17) 0.45119(12) 0.05216(9)
H20 H 0.3627 0.4795 0.0188
C44 C 0.38276(20) 0.43189(15) 0.24811(10)
O31 O 0.41859(20) 0.40551(17) 0.28653(8)
O32 O 0.34416(14) 0.46648(11) 0.26849(7)
C45 C 0.32944(16) 0.51524(12) 0.13858(8)
O33 O 0.37494(13) 0.59195(9) 0.13035(8)
O34 O 0.25371(13) 0.47975(9) 0.15335(7)
Li11 Li 0.1676(2) 0.6609(3) 0.35878(16)
C50 C 0.03220(13) 0.61178(19) 0.17135(10)
C51 C 0.09463(12) 0.63365(17) 0.12225(9)
C52 C 0.07450(12) 0.62331(17) 0.05216(9)
H24 H 0.1168 0.6373 0.0188
C53 C 0.04913(13) 0.61724(20) 0.24811(10)
O38 O 0.12232(9) 0.65584(14) 0.26849(7)
C54 C 0.18580(11) 0.67056(16) 0.13858(8)
O39 O 0.21701(9) 0.62506(13) 0.13035(8)
O40 O 0.22604(9) 0.74629(13) 0.15335(7)
Li16 Li 0.6609(3) 0.4933(2) 0.64122(16)
O41 O 0.10203(9) 0.65108(10) 0.43779(7)
O42 O 0.34892(10) 0.45095(13) 0.43779(7)
O43 O 0.54905(13) 0.89797(9) 0.43779(7)
O44 O 0.34892(10) 0.89797(9) 0.06221(7)
O45 O 0.54905(13) 0.65108(10) 0.06221(7)
O46 O 0.10203(9) 0.45095(13) 0.06221(7)
O24 O 0.57233(13) 0.96750(10) 0.91427(8)
H13 H 0.5680(18) 0.9719(13) 0.8638(9)
O29 O 0.45095(13) 0.34892(10) 0.93779(7)
O30 O 0.39517(16) 0.42767(13) 0.91427(8)
H17 H 0.4039(22) 0.4320(18) 0.8638(9)
C37 C 0.41957(18) 0.38985(13) 0.95600(10)
O36 O 0.03250(10) 0.60483(16) 0.91427(8)
H21 H 0.0281(13) 0.5961(22) 0.8638(9)
Li13 Li 0.5067(2) 0.3391(3) 0.85878(16)
O1 O 0.89797(9) 0.34892(10) 0.56221(7)
C1 C 0.97028(13) 0.38985(13) 0.54400(10)
C2 C 0.99288(13) 0.40023(13) 0.46915(9)
C3 C 0.93101(14) 0.35869(17) 0.42070(11)
H2 H 0.8754 0.3230 0.4351
C4 C 0.95061(14) 0.36939(18) 0.35100(11)
H3 H 0.9078 0.3415 0.3179
O3 O 0.98692(11) 0.40551(17) 0.21347(8)
C47 C 0.99288(13) 0.59265(18) 0.03085(9)
C48 C 0.93101(14) 0.57232(22) 0.07930(11)
H22 H 0.8754 0.5524 0.0649
C49 C 0.95061(14) 0.58122(23) 0.14900(11)
H23 H 0.9078 0.5663 0.1821
O37 O 0.98692(11) 0.58141(20) 0.28653(8)
Li17 Li 0.8324(2) 0.3391(3) 0.64122(16)
O35 O 0.89797(9) 0.54905(13) 0.93779(7)
C46 C 0.97028(13) 0.58043(18) 0.95600(10)
Li12 Li 0.8324(2) 0.4933(2) 0.85878(16)
C46_2 C 0.02972(13) 0.41957(18) 0.04400(10)
C1_2 C 0.02972(13) 0.61015(13) 0.45600(10)
C2_2 C 0.00712(13) 0.59977(13) 0.53085(9)
C3_2 C 0.06899(14) 0.64131(17) 0.57930(11)
H2_2 H 0.1246 0.6770 0.5649
C4_2 C 0.04939(14) 0.63061(18) 0.64900(11)
H3_2 H 0.0922 0.6585 0.6821
O3_2 O 0.01308(11) 0.59449(17) 0.78653(8)
C47_2 C 0.00712(13) 0.40735(18) 0.96915(9)
C48_2 C 0.06899(14) 0.42768(22) 0.92070(11)
H22_2 H 0.1246 0.4476 0.9351
C49_2 C 0.04939(14) 0.41878(23) 0.85100(11)
H23_2 H 0.0922 0.4337 0.8179
O37_2 O 0.01308(11) 0.41859(20) 0.71347(8)
O24_2 O 0.42767(13) 0.03250(10) 0.08573(8)
H13_2 H 0.4320(18) 0.0281(13) 0.1362(9)
O30_2 O 0.60483(16) 0.57233(13) 0.08573(8)
H17_2 H 0.5961(22) 0.5680(18) 0.1362(9)
C37_2 C 0.58043(18) 0.61015(13) 0.04400(10)
O36_2 O 0.96750(10) 0.39517(16) 0.08573(8)
H21_2 H 0.9719(13) 0.4039(22) 0.1362(9)
Li2_2 Li 0.78214(18) 0.5643(4) 0.7500
Li3_2 Li 0.6667 0.3333 0.6536(6)
O2_2 O 0.96750(10) 0.57233(13) 0.41427(8)
H1_2 H 0.9719(13) 0.5680(18) 0.3638(9)
C5_2 C 0.96780(13) 0.57958(14) 0.67135(10)
C6_2 C 0.90537(12) 0.53902(12) 0.62225(9)
C7_2 C 0.92550(12) 0.54881(12) 0.55216(9)
H4_2 H 0.8832 0.5205 0.5188
C8_2 C 0.95087(13) 0.56811(15) 0.74811(10)
O4_2 O 0.87768(9) 0.53352(11) 0.76849(7)
C9_2 C 0.81420(11) 0.48476(12) 0.63858(8)
O5_2 O 0.78299(9) 0.40805(9) 0.63035(8)
O6_2 O 0.77396(9) 0.52025(9) 0.65335(7)
O7_2 O 0.84170(11) 0.6834(2) 0.7500
O8_2 O 0.6667 0.3333 0.7500
Li5_2 Li 0.4357(4) 0.21784(44) 0.7500
O10_2 O 0.42767(13) 0.39517(16) 0.41427(8)
H5_2 H 0.4320(18) 0.4039(22) 0.3638(9)
C10_2 C 0.38985(13) 0.41957(18) 0.45600(10)
C11_2 C 0.40023(13) 0.40735(18) 0.53085(9)
C12_2 C 0.35869(17) 0.42768(22) 0.57930(11)
H6_2 H 0.3230 0.4476 0.5649
C13_2 C 0.36939(18) 0.41878(23) 0.64900(11)
H7_2 H 0.3415 0.4337 0.6821
C14_2 C 0.42042(14) 0.38822(19) 0.67135(10)
C15_2 C 0.46098(12) 0.36635(17) 0.62225(9)
C16_2 C 0.45119(12) 0.37669(17) 0.55216(9)
H8_2 H 0.4795 0.3627 0.5188
C17_2 C 0.43189(15) 0.38276(20) 0.74811(10)
O11_2 O 0.40551(17) 0.41859(20) 0.78653(8)
O12_2 O 0.46648(11) 0.34416(14) 0.76849(7)
C18_2 C 0.51524(12) 0.32944(16) 0.63858(8)
O13_2 O 0.59195(9) 0.37494(13) 0.63035(8)
O14_2 O 0.47975(9) 0.25371(13) 0.65335(7)
O15_2 O 0.3166(2) 0.15830(23) 0.7500
Li7_2 Li 0.78216(44) 0.21786(18) 0.7500
O17_2 O 0.60483(16) 0.03250(10) 0.41427(8)
H9_2 H 0.5961(22) 0.0281(13) 0.3638(9)
C23_2 C 0.61178(19) 0.03220(13) 0.67135(10)
C24_2 C 0.63365(17) 0.09463(12) 0.62225(9)
C25_2 C 0.62331(17) 0.07450(12) 0.55216(9)
H12_2 H 0.6373 0.1168 0.5188
C26_2 C 0.61724(20) 0.04913(13) 0.74811(10)
O19_2 O 0.65584(14) 0.12232(9) 0.76849(7)
C27_2 C 0.67056(16) 0.18580(11) 0.63858(8)
O20_2 O 0.62506(13) 0.21701(9) 0.63035(8)
O21_2 O 0.74629(13) 0.22604(9) 0.65335(7)
O22_2 O 0.84170(23) 0.15830(11) 0.7500
Li9_2 Li 0.6667 0.3333 0.8464(6)
C32_2 C 0.42042(14) 0.03220(13) 0.82865(10)
C33_2 C 0.46098(12) 0.09463(12) 0.87775(9)
C34_2 C 0.45119(12) 0.07450(12) 0.94784(9)
H16_2 H 0.4795 0.1168 0.9812
C35_2 C 0.43189(15) 0.04913(13) 0.75189(10)
O26_2 O 0.46648(11) 0.12232(9) 0.73151(7)
C36_2 C 0.51524(12) 0.18580(11) 0.86142(8)
O27_2 O 0.59195(9) 0.21701(9) 0.86965(8)
O28_2 O 0.47975(9) 0.22604(9) 0.84665(7)
C38_2 C 0.59265(18) 0.59977(13) 0.96915(9)
C39_2 C 0.57232(22) 0.64131(17) 0.92070(11)
H18_2 H 0.5524 0.6770 0.9351
C40_2 C 0.58122(23) 0.63061(18) 0.85100(11)
H19_2 H 0.5663 0.6585 0.8179
C41_2 C 0.61178(19) 0.57958(14) 0.82865(10)
C42_2 C 0.63365(17) 0.53902(12) 0.87775(9)
C43_2 C 0.62331(17) 0.54881(12) 0.94784(9)
H20_2 H 0.6373 0.5205 0.9812
C44_2 C 0.61724(20) 0.56811(15) 0.75189(10)
O31_2 O 0.58141(20) 0.59449(17) 0.71347(8)
O32_2 O 0.65584(14) 0.53352(11) 0.73151(7)
C45_2 C 0.67056(16) 0.48476(12) 0.86142(8)
O33_2 O 0.62506(13) 0.40805(9) 0.86965(8)
O34_2 O 0.74629(13) 0.52025(9) 0.84665(7)
C50_2 C 0.96780(13) 0.38822(19) 0.82865(10)
C51_2 C 0.90537(12) 0.36635(17) 0.87775(9)
C52_2 C 0.92550(12) 0.37669(17) 0.94784(9)
H24_2 H 0.8832 0.3627 0.9812
C53_2 C 0.95087(13) 0.38276(20) 0.75189(10)
O38_2 O 0.87768(9) 0.34416(14) 0.73151(7)
C54_2 C 0.81420(11) 0.32944(16) 0.86142(8)
O39_2 O 0.78299(9) 0.37494(13) 0.86965(8)
O40_2 O 0.77396(9) 0.25371(13) 0.84665(7)
C28_2 C 0.38985(13) 0.97028(13) 0.04400(10)
C19_2 C 0.58043(18) 0.97028(13) 0.45600(10)
C20_2 C 0.59265(18) 0.99288(13) 0.53085(9)
C21_2 C 0.57232(22) 0.93101(14) 0.57930(11)
H10_2 H 0.5524 0.8754 0.5649
C22_2 C 0.58122(23) 0.95061(14) 0.64900(11)
H11_2 H 0.5663 0.9078 0.6821
O18_2 O 0.58141(20) 0.98692(11) 0.78653(8)
C29_2 C 0.40023(13) 0.99288(13) 0.96915(9)
C30_2 C 0.35869(17) 0.93101(14) 0.92070(11)
H14_2 H 0.3230 0.8754 0.9351
C31_2 C 0.36939(18) 0.95061(14) 0.85100(11)
H15_2 H 0.3415 0.9078 0.8179
O25_2 O 0.40551(17) 0.98692(11) 0.71347(8)
loop_
_geom_bond_atom_site_label_1
_geom_bond_atom_site_label_2
_geom_bond_site_symmetry_1
_geom_bond_site_symmetry_2
O16 C19 1_555 1_555
C20 C19 1_555 1_555
C21 C20 1_555 1_555
H10 C21 1_555 1_555
C22 C21 1_555 1_555
H11 C22 1_555 1_555
C30 C29 1_555 1_555
H14 C30 1_555 1_555
C31 C30 1_555 1_555
H15 C31 1_555 1_555
Li15 O16 1_555 1_555
O23 C28 1_555 1_555
Li14 O23 1_555 1_555
Li1 O4 1_555 1_555
Li2 O4 1_555 1_555
Li3 O5 1_555 1_555
O2 H1 1_555 1_555
C6 C5 1_555 1_555
H4 C7 1_555 1_555
C8 C5 1_555 1_555
O4 C8 1_555 1_555
C9 C6 1_555 1_555
O5 C9 1_555 1_555
O6 Li2 1_555 1_555
O7 Li2 1_555 1_555
O8 Li3 1_555 1_555
Li4 O12 1_555 1_555
Li5 O12 1_555 1_555
O9 C10 1_555 1_555
O10 H5 1_555 1_555
C10 O10 1_555 1_555
C11 C10 1_555 1_555
C12 C11 1_555 1_555
H6 C12 1_555 1_555
C13 C12 1_555 1_555
H7 C13 1_555 1_555
C14 C13 1_555 1_555
C15 C14 1_555 1_555
C16 C11 1_555 1_555
H8 C16 1_555 1_555
C17 C14 1_555 1_555
O11 C17 1_555 1_555
O12 C17 1_555 1_555
C18 C15 1_555 1_555
O13 Li3 1_555 1_555
O14 Li5 1_555 1_555
O15 Li5 1_555 1_555
Li6 O19 1_555 1_555
Li7 O19 1_555 1_555
O17 H9 1_555 1_555
C24 C23 1_555 1_555
H12 C25 1_555 1_555
C26 C23 1_555 1_555
O19 C26 1_555 1_555
C27 C24 1_555 1_555
O20 Li3 1_555 1_555
O21 Li7 1_555 1_555
O22 Li7 1_555 1_555
Li8 O14 1_555 1_555
Li9 O8 1_555 1_555
C33 C32 1_555 1_555
H16 C34 1_555 1_555
C35 C32 1_555 1_555
O26 Li5 1_555 1_555
C36 C33 1_555 1_555
O27 Li6 1_555 1_555
O28 Li4 1_555 1_555
Li10 O6 1_555 1_555
C39 C38 1_555 1_555
H18 C39 1_555 1_555
C40 C39 1_555 1_555
H19 C40 1_555 1_555
C41 C40 1_555 1_555
C42 C41 1_555 1_555
C43 C38 1_555 1_555
H20 C43 1_555 1_555
C44 C41 1_555 1_555
O31 C44 1_555 1_555
O32 Li2 1_555 1_555
C45 C42 1_555 1_555
O33 Li4 1_555 1_555
O34 Li1 1_555 1_555
Li11 O5 1_555 1_555
C51 C50 1_555 1_555
H24 C52 1_555 1_555
C53 C50 1_555 1_555
O38 Li7 1_555 1_555
C54 C51 1_555 1_555
O39 Li1 1_555 1_555
O40 Li6 1_555 1_555
Li16 O9 1_555 1_555
O41 Li11 1_555 1_555
O42 Li10 1_555 1_555
O43 Li8 1_555 1_555
O44 Li6 1_555 1_555
O45 Li4 1_555 1_555
O46 Li1 1_555 1_555
Li2 O34 1_555 1_555
C6 C7 1_555 1_555
C9 O6 1_555 1_555
Li5 O28 1_555 1_555
C15 C16 1_555 1_555
C18 O13 1_555 1_555
C18 O14 1_555 1_555
O13 Li10 1_555 1_555
Li7 O40 1_555 1_555
C24 C25 1_555 1_555
C27 O20 1_555 1_555
C27 O21 1_555 1_555
O20 Li8 1_555 1_555
O21 Li11 1_555 1_555
Li8 O26 1_555 1_555
Li9 O27 1_555 1_555
Li9 O33 1_555 1_555
Li9 O39 1_555 1_555
C33 C34 1_555 1_555
C35 O26 1_555 1_555
C36 O27 1_555 1_555
C36 O28 1_555 1_555
Li10 O32 1_555 1_555
C42 C43 1_555 1_555
C44 O32 1_555 1_555
C45 O33 1_555 1_555
C45 O34 1_555 1_555
Li11 O38 1_555 1_555
C51 C52 1_555 1_555
C53 O38 1_555 1_555
C54 O39 1_555 1_555
C54 O40 1_555 1_555
O24 H13 1_555 1_555
O29 C37 1_555 1_555
O30 H17 1_555 1_555
C37 O30 1_555 1_555
O36 H21 1_555 1_555
Li13 O29 1_555 1_555
O1 C1 1_555 1_555
C2 C1 1_555 1_555
C3 C2 1_555 1_555
H2 C3 1_555 1_555
C4 C3 1_555 1_555
H3 C4 1_555 1_555
C48 C47 1_555 1_555
H22 C48 1_555 1_555
C49 C48 1_555 1_555
H23 C49 1_555 1_555
Li17 O1 1_555 1_555
O35 C46 1_555 1_555
Li12 O35 1_555 1_555
O46 C46_2 1_555 1_555
O41 C1_2 1_555 1_555
C2_2 C1_2 1_555 1_555
C3_2 C2_2 1_555 1_555
H2_2 C3_2 1_555 1_555
C4_2 C3_2 1_555 1_555
H3_2 C4_2 1_555 1_555
C48_2 C47_2 1_555 1_555
H22_2 C48_2 1_555 1_555
C49_2 C48_2 1_555 1_555
H23_2 C49_2 1_555 1_555
O24_2 H13_2 1_555 1_555
O45 C37_2 1_555 1_555
O30_2 H17_2 1_555 1_555
C37_2 O30_2 1_555 1_555
O36_2 H21_2 1_555 1_555
Li12 O4_2 1_555 1_555
Li2_2 O4_2 1_555 1_555
Li3_2 O5_2 1_555 1_555
O2_2 H1_2 1_555 1_555
C6_2 C5_2 1_555 1_555
H4_2 C7_2 1_555 1_555
C8_2 C5_2 1_555 1_555
O4_2 C8_2 1_555 1_555
C9_2 C6_2 1_555 1_555
O5_2 C9_2 1_555 1_555
O6_2 Li2_2 1_555 1_555
O7_2 Li2_2 1_555 1_555
O8_2 Li3_2 1_555 1_555
Li13 O12_2 1_555 1_555
Li5_2 O12_2 1_555 1_555
O42 C10_2 1_555 1_555
O10_2 H5_2 1_555 1_555
C10_2 O10_2 1_555 1_555
C11_2 C10_2 1_555 1_555
C12_2 C11_2 1_555 1_555
H6_2 C12_2 1_555 1_555
C13_2 C12_2 1_555 1_555
H7_2 C13_2 1_555 1_555
C14_2 C13_2 1_555 1_555
C15_2 C14_2 1_555 1_555
C16_2 C11_2 1_555 1_555
H8_2 C16_2 1_555 1_555
C17_2 C14_2 1_555 1_555
O11_2 C17_2 1_555 1_555
O12_2 C17_2 1_555 1_555
C18_2 C15_2 1_555 1_555
O13_2 Li3_2 1_555 1_555
O14_2 Li5_2 1_555 1_555
O15_2 Li5_2 1_555 1_555
Li14 O19_2 1_555 1_555
Li7_2 O19_2 1_555 1_555
O17_2 H9_2 1_555 1_555
C24_2 C23_2 1_555 1_555
H12_2 C25_2 1_555 1_555
C26_2 C23_2 1_555 1_555
O19_2 C26_2 1_555 1_555
C27_2 C24_2 1_555 1_555
O20_2 Li3_2 1_555 1_555
O21_2 Li7_2 1_555 1_555
O22_2 Li7_2 1_555 1_555
Li15 O14_2 1_555 1_555
Li9_2 O8_2 1_555 1_555
C33_2 C32_2 1_555 1_555
H16_2 C34_2 1_555 1_555
C35_2 C32_2 1_555 1_555
O26_2 Li5_2 1_555 1_555
C36_2 C33_2 1_555 1_555
O27_2 Li14 1_555 1_555
O28_2 Li13 1_555 1_555
Li16 O6_2 1_555 1_555
C39_2 C38_2 1_555 1_555
H18_2 C39_2 1_555 1_555
C40_2 C39_2 1_555 1_555
H19_2 C40_2 1_555 1_555
C41_2 C40_2 1_555 1_555
C42_2 C41_2 1_555 1_555
C43_2 C38_2 1_555 1_555
H20_2 C43_2 1_555 1_555
C44_2 C41_2 1_555 1_555
O31_2 C44_2 1_555 1_555
O32_2 Li2_2 1_555 1_555
C45_2 C42_2 1_555 1_555
O33_2 Li13 1_555 1_555
O34_2 Li12 1_555 1_555
Li17 O5_2 1_555 1_555
C51_2 C50_2 1_555 1_555
H24_2 C52_2 1_555 1_555
C53_2 C50_2 1_555 1_555
O38_2 Li7_2 1_555 1_555
C54_2 C51_2 1_555 1_555
O39_2 Li12 1_555 1_555
O40_2 Li14 1_555 1_555
Li2_2 O34_2 1_555 1_555
C6_2 C7_2 1_555 1_555
C9_2 O6_2 1_555 1_555
Li5_2 O28_2 1_555 1_555
C15_2 C16_2 1_555 1_555
C18_2 O13_2 1_555 1_555
C18_2 O14_2 1_555 1_555
O13_2 Li16 1_555 1_555
Li7_2 O40_2 1_555 1_555
C24_2 C25_2 1_555 1_555
C27_2 O20_2 1_555 1_555
C27_2 O21_2 1_555 1_555
O20_2 Li15 1_555 1_555
O21_2 Li17 1_555 1_555
Li15 O26_2 1_555 1_555
Li9_2 O27_2 1_555 1_555
Li9_2 O33_2 1_555 1_555
Li9_2 O39_2 1_555 1_555
C33_2 C34_2 1_555 1_555
C35_2 O26_2 1_555 1_555
C36_2 O27_2 1_555 1_555
C36_2 O28_2 1_555 1_555
Li16 O32_2 1_555 1_555
C42_2 C43_2 1_555 1_555
C44_2 O32_2 1_555 1_555
C45_2 O33_2 1_555 1_555
C45_2 O34_2 1_555 1_555
Li17 O38_2 1_555 1_555
C51_2 C52_2 1_555 1_555
C53_2 O38_2 1_555 1_555
C54_2 O39_2 1_555 1_555
C54_2 O40_2 1_555 1_555
O44 C28_2 1_555 1_555
O43 C19_2 1_555 1_555
C20_2 C19_2 1_555 1_555
C21_2 C20_2 1_555 1_555
H10_2 C21_2 1_555 1_555
C22_2 C21_2 1_555 1_555
H11_2 C22_2 1_555 1_555
C30_2 C29_2 1_555 1_555
H14_2 C30_2 1_555 1_555
C31_2 C30_2 1_555 1_555
H15_2 C31_2 1_555 1_555

#END
