
###############################################################################
#
# This file contains modified crystal structure data generated from the
# MOF subset of the Cambridge Structural Database (CSD) v543 
# hosted by the Cambridge Crystallographic Data Centre (CCDC).
#
# This work is licensed under the Creative Commons
# Attribution-NonCommercial-ShareAlike 4.0 International License.
# To view a copy of this license, visit
# http://creativecommons.org/licenses/by-nc-sa/4.0/
# or send a letter to
# Creative Commons, PO Box 1866, Mountain View, CA 94042, USA.
#
# CIF created using the CSD Python API on 29 September 2022
# The structure has been converted into the P1 space group
# The structure has a 3D framework
# The original CSD entry HOZFEJ is in the monoclinic crystal system
# The framework has been calculated to contain at least 10.0% void space
# The void calculation uses a probe of radius 1.32A, grid spacing 0.4
#
###############################################################################

data_HOZFEJ
_chemical_formula_moiety         '(C96 H68 N24 O24)n'
_symmetry_cell_setting           triclinic
_symmetry_space_group_name_H-M   'P 1'
_symmetry_Int_Tables_number      1
_space_group_name_Hall           'P 1'
loop_
_symmetry_equiv_pos_site_id
_symmetry_equiv_pos_as_xyz
1 x,y,z
_cell_length_a                   4.9748(2)
_cell_length_b                   37.2189(12)
_cell_length_c                   16.0246(5)
_cell_angle_alpha                90
_cell_angle_beta                 92.582(1)
_cell_angle_gamma                90
_cell_volume                     2964.05
loop_
_atom_site_label
_atom_site_type_symbol
_atom_site_fract_x
_atom_site_fract_y
_atom_site_fract_z
O3 O 0.7041(4) 0.25683(5) 0.17621(11)
H7 H 0.8259 0.2460 0.2041
O4 O 0.6024(4) 0.20102(5) 0.13329(12)
C11 C 0.5587(5) 0.23341(7) 0.13177(15)
C12 C 0.3367(5) 0.24979(7) 0.07956(14)
C13 C 0.1544(5) 0.22785(7) 0.03473(15)
H8 H 0.1687 0.2025 0.0402
C16 C 0.1115(5) 0.30185(7) 0.02055(16)
H10 H 0.0959 0.3272 0.0161
C17 C 0.3108(5) 0.28695(7) 0.07234(17)
H11 H 0.4315 0.3022 0.1034
Li4 Li 0.7988(9) 0.02331(12) 0.0144(3)
C1 C 0.2108(5) 0.30274(6) 0.77723(14)
N1 N 0.4162(4) 0.31275(6) 0.82727(13)
C2 C 0.5420(5) 0.28546(6) 0.86873(14)
N2 N 0.4861(4) 0.25034(6) 0.86144(12)
C3 C 0.2693(5) 0.24384(7) 0.81104(15)
N3 N 0.1193(4) 0.26849(5) 0.76920(12)
N4 N 0.0715(4) 0.32681(5) 0.72844(13)
O1 O 0.1746(4) 0.47757(5) 0.54413(12)
O2 O 0.5729(4) 0.47672(5) 0.61208(12)
C4 C 0.3439(5) 0.46274(6) 0.59323(15)
C5 C 0.2796(5) 0.42714(6) 0.62998(16)
C6 C 0.4311(6) 0.41348(7) 0.69733(18)
H2 H 0.5797 0.4269 0.7199
C7 C 0.3694(6) 0.38042(7) 0.73262(18)
H3 H 0.4745 0.3715 0.7791
C8 C 0.1534(5) 0.36056(6) 0.69947(15)
C9 C 0.0031(5) 0.37404(7) 0.63079(17)
C10 C 0.0669(6) 0.40681(7) 0.59630(18)
N5 N 0.7456(4) 0.29738(6) 0.92128(13)
H6 H 0.7635 0.3209 0.9219
C14 C 0.9532(5) 0.24227(7) 0.98250(15)
H9 H 0.8308 0.2269 0.9525
C15 C 0.9313(5) 0.27955(7) 0.97424(14)
N6 N 0.1788(5) 0.20972(6) 0.79629(14)
H12 H 0.0314 0.2089 0.7639
O5 O 0.6552(4) 0.06148(5) 0.94496(13)
O6 O 0.3498(5) 0.04327(6) 0.84834(16)
H13 H 0.3923 0.0229 0.8674
C18 C 0.4853(6) 0.06819(7) 0.89053(17)
C19 C 0.4099(6) 0.10537(7) 0.86575(17)
C20 C 0.2160(11) 0.11215(12) 0.8049(3)
H14 H 0.1269 0.0927 0.7770
C21 C 0.1478(11) 0.14703(12) 0.7834(3)
H15 H 0.0121 0.1511 0.7408
C22 C 0.2716(6) 0.17584(7) 0.82194(17)
C23 C 0.4585(8) 0.16925(8) 0.8847(3)
H16 H 0.5419 0.1887 0.9141
C24 C 0.5277(8) 0.13424(8) 0.9059(3)
H17 H 0.6602 0.1302 0.9495
Li2 Li 0.7988(9) 0.47669(12) 0.5144(3)
Li3 Li 0.2012(9) 0.52331(12) 0.4856(3)
H1 H 0.9066 0.3204 0.7128
H4 H 0.8557 0.3606 0.6076
H5 H 0.9644 0.4155 0.5491
O7 O 0.8254(4) 0.52243(5) 0.45587(12)
O9 O 0.6552(4) 0.43852(5) 0.44496(13)
O7_2 O 0.1746(4) 0.02243(5) 0.04413(12)
O9_2 O 0.3448(4) 0.93852(5) 0.05504(13)
Li1 Li 0.2012(9) 0.97669(12) 0.9856(3)
H1_2 H 0.0934 0.8204 0.7872
H4_2 H 0.1443 0.8606 0.8924
H5_2 H 0.0356 0.9155 0.9509
O8 O 0.4271(4) 0.97672(5) 0.88792(12)
C1_2 C 0.7892(5) 0.80274(6) 0.72277(14)
N1_2 N 0.5838(4) 0.81275(6) 0.67273(13)
C2_2 C 0.4580(5) 0.78546(6) 0.63127(14)
N2_2 N 0.5139(4) 0.75034(6) 0.63856(12)
C3_2 C 0.7307(5) 0.74384(7) 0.68896(15)
N3_2 N 0.8807(4) 0.76849(5) 0.73080(12)
N4_2 N 0.9285(4) 0.82681(5) 0.77156(13)
O1_2 O 0.8254(4) 0.97757(5) 0.95587(12)
C4_2 C 0.6561(5) 0.96274(6) 0.90677(15)
C5_2 C 0.7204(5) 0.92714(6) 0.87002(16)
C6_2 C 0.5689(6) 0.91348(7) 0.80267(18)
H2_2 H 0.4203 0.9269 0.7801
C7_2 C 0.6306(6) 0.88042(7) 0.76738(18)
H3_2 H 0.5255 0.8715 0.7209
C8_2 C 0.8466(5) 0.86056(6) 0.80053(15)
C9_2 C 0.9969(5) 0.87404(7) 0.86921(17)
C10_2 C 0.9331(6) 0.90681(7) 0.90370(18)
N5_2 N 0.2544(4) 0.79738(6) 0.57872(13)
H6_2 H 0.2365 0.8209 0.5781
C14_2 C 0.0468(5) 0.74227(7) 0.51750(15)
H9_2 H 0.1692 0.7269 0.5475
C15_2 C 0.0687(5) 0.77955(7) 0.52576(14)
N6_2 N 0.8212(5) 0.70972(6) 0.70371(14)
H12_2 H 0.9686 0.7089 0.7361
O5_2 O 0.3448(4) 0.56148(5) 0.55504(13)
O6_2 O 0.6502(5) 0.54327(6) 0.65166(16)
H13_2 H 0.6077 0.5229 0.6326
C18_2 C 0.5147(6) 0.56819(7) 0.60947(17)
C19_2 C 0.5901(6) 0.60537(7) 0.63425(17)
C20_2 C 0.7840(11) 0.61215(12) 0.6951(3)
H14_2 H 0.8731 0.5927 0.7230
C21_2 C 0.8522(11) 0.64703(12) 0.7166(3)
H15_2 H 0.9879 0.6511 0.7592
C22_2 C 0.7284(6) 0.67584(7) 0.67806(17)
C23_2 C 0.5415(8) 0.66925(8) 0.6153(3)
H16_2 H 0.4581 0.6887 0.5859
C24_2 C 0.4723(8) 0.63424(8) 0.5941(3)
H17_2 H 0.3398 0.6302 0.5505
H1_3 H 0.0934 0.6796 0.2872
H4_3 H 0.1443 0.6394 0.3924
H5_3 H 0.0356 0.5845 0.4509
O8_2 O 0.4271(4) 0.52328(5) 0.38792(12)
C1_3 C 0.7892(5) 0.69726(6) 0.22277(14)
N1_3 N 0.5838(4) 0.68725(6) 0.17273(13)
C2_3 C 0.4580(5) 0.71454(6) 0.13127(14)
N2_3 N 0.5139(4) 0.74966(6) 0.13856(12)
C3_3 C 0.7307(5) 0.75616(7) 0.18896(15)
N3_3 N 0.8807(4) 0.73151(5) 0.23080(12)
N4_3 N 0.9285(4) 0.67319(5) 0.27156(13)
C4_3 C 0.6561(5) 0.53726(6) 0.40677(15)
C5_3 C 0.7204(5) 0.57286(6) 0.37002(16)
C6_3 C 0.5689(6) 0.58652(7) 0.30267(18)
H2_3 H 0.4203 0.5731 0.2801
C7_3 C 0.6306(6) 0.61958(7) 0.26738(18)
H3_3 H 0.5255 0.6285 0.2209
C8_3 C 0.8466(5) 0.63944(6) 0.30053(15)
C9_3 C 0.9969(5) 0.62596(7) 0.36921(17)
C10_3 C 0.9331(6) 0.59319(7) 0.40370(18)
N5_3 N 0.2544(4) 0.70262(6) 0.07872(13)
H6_3 H 0.2365 0.6791 0.0781
C14_3 C 0.0468(5) 0.75773(7) 0.01750(15)
H9_3 H 0.1692 0.7731 0.0475
C15_3 C 0.0687(5) 0.72045(7) 0.02576(14)
N6_3 N 0.8212(5) 0.79028(6) 0.20371(14)
H12_3 H 0.9686 0.7911 0.2361
O6_3 O 0.6502(5) 0.95673(6) 0.15166(16)
H13_3 H 0.6077 0.9771 0.1326
C18_3 C 0.5147(6) 0.93181(7) 0.10947(17)
C19_3 C 0.5901(6) 0.89463(7) 0.13425(17)
C20_3 C 0.7840(11) 0.88785(12) 0.1951(3)
H14_3 H 0.8731 0.9073 0.2230
C21_3 C 0.8522(11) 0.85297(12) 0.2166(3)
H15_3 H 0.9879 0.8489 0.2592
C22_3 C 0.7284(6) 0.82416(7) 0.17806(17)
C23_3 C 0.5415(8) 0.83075(8) 0.1153(3)
H16_3 H 0.4581 0.8113 0.0859
C24_3 C 0.4723(8) 0.86576(8) 0.0941(3)
H17_3 H 0.3398 0.8698 0.0505
C1_4 C 0.2108(5) 0.19726(6) 0.27723(14)
N1_4 N 0.4162(4) 0.18725(6) 0.32727(13)
C2_4 C 0.5420(5) 0.21454(6) 0.36873(14)
N2_4 N 0.4861(4) 0.24966(6) 0.36144(12)
C3_4 C 0.2693(5) 0.25616(7) 0.31104(15)
N3_4 N 0.1193(4) 0.23151(5) 0.26920(12)
N4_4 N 0.0715(4) 0.17319(5) 0.22844(13)
O2_2 O 0.5729(4) 0.02328(5) 0.11208(12)
C4_4 C 0.3439(5) 0.03726(6) 0.09323(15)
C5_4 C 0.2796(5) 0.07286(6) 0.12998(16)
C6_4 C 0.4311(6) 0.08652(7) 0.19733(18)
H2_4 H 0.5797 0.0731 0.2199
C7_4 C 0.3694(6) 0.11958(7) 0.23262(18)
H3_4 H 0.4745 0.1285 0.2791
C8_4 C 0.1534(5) 0.13944(6) 0.19947(15)
C9_4 C 0.0031(5) 0.12596(7) 0.13079(17)
C10_4 C 0.0669(6) 0.09319(7) 0.09630(18)
N5_4 N 0.7456(4) 0.20262(6) 0.42128(13)
H6_4 H 0.7635 0.1791 0.4219
C14_4 C 0.9532(5) 0.25773(7) 0.48250(15)
H9_4 H 0.8308 0.2731 0.4525
C15_4 C 0.9313(5) 0.22045(7) 0.47424(14)
N6_4 N 0.1788(5) 0.29028(6) 0.29629(14)
H12_4 H 0.0314 0.2911 0.2639
O6_4 O 0.3498(5) 0.45673(6) 0.34834(16)
H13_4 H 0.3923 0.4771 0.3674
C18_4 C 0.4853(6) 0.43181(7) 0.39053(17)
C19_4 C 0.4099(6) 0.39463(7) 0.36575(17)
C20_4 C 0.2160(11) 0.38785(12) 0.3049(3)
H14_4 H 0.1269 0.4073 0.2770
C21_4 C 0.1478(11) 0.35297(12) 0.2834(3)
H15_4 H 0.0121 0.3489 0.2408
C22_4 C 0.2716(6) 0.32416(7) 0.32194(17)
C23_4 C 0.4585(8) 0.33075(8) 0.3847(3)
H16_4 H 0.5419 0.3113 0.4141
C24_4 C 0.5277(8) 0.36576(8) 0.4059(3)
H17_4 H 0.6602 0.3698 0.4495
H1_4 H 0.9066 0.1796 0.2128
H4_4 H 0.8557 0.1394 0.1076
H5_4 H 0.9644 0.0845 0.0491
O3_2 O 0.2959(4) 0.75683(5) 0.32379(11)
H7_2 H 0.1741 0.7460 0.2959
O4_2 O 0.3976(4) 0.70102(5) 0.36671(12)
C11_2 C 0.4413(5) 0.73341(7) 0.36823(15)
C12_2 C 0.6633(5) 0.74979(7) 0.42044(14)
C13_2 C 0.8456(5) 0.72785(7) 0.46527(15)
H8_2 H 0.8313 0.7025 0.4598
C16_2 C 0.8885(5) 0.80185(7) 0.47945(16)
H10_2 H 0.9041 0.8272 0.4839
C17_2 C 0.6892(5) 0.78695(7) 0.42766(17)
H11_2 H 0.5685 0.8022 0.3966
O3_3 O 0.2959(4) 0.74317(5) 0.82379(11)
H7_3 H 0.1741 0.7540 0.7959
O4_3 O 0.3976(4) 0.79898(5) 0.86671(12)
C11_3 C 0.4413(5) 0.76659(7) 0.86823(15)
C12_3 C 0.6633(5) 0.75021(7) 0.92044(14)
C13_3 C 0.8456(5) 0.77215(7) 0.96527(15)
H8_3 H 0.8313 0.7975 0.9598
C16_3 C 0.8885(5) 0.69815(7) 0.97945(16)
H10_3 H 0.9041 0.6728 0.9839
C17_3 C 0.6892(5) 0.71305(7) 0.92766(17)
H11_3 H 0.5685 0.6978 0.8966
O3_4 O 0.7041(4) 0.24317(5) 0.67621(11)
H7_4 H 0.8259 0.2540 0.7041
O4_4 O 0.6024(4) 0.29898(5) 0.63329(12)
C11_4 C 0.5587(5) 0.26659(7) 0.63177(15)
C12_4 C 0.3367(5) 0.25021(7) 0.57956(14)
C13_4 C 0.1544(5) 0.27215(7) 0.53473(15)
H8_4 H 0.1687 0.2975 0.5402
C16_4 C 0.1115(5) 0.19815(7) 0.52055(16)
H10_4 H 0.0959 0.1728 0.5161
C17_4 C 0.3108(5) 0.21305(7) 0.57234(17)
H11_4 H 0.4315 0.1978 0.6034
loop_
_geom_bond_atom_site_label_1
_geom_bond_atom_site_label_2
_geom_bond_site_symmetry_1
_geom_bond_site_symmetry_2
O3 H7 1_555 1_555
O4 C11 1_555 1_555
C11 O3 1_555 1_555
C12 C11 1_555 1_555
C13 C12 1_555 1_555
H8 C13 1_555 1_555
H10 C16 1_555 1_555
C17 C12 1_555 1_555
H11 C17 1_555 1_555
C16 C17 1_555 1_555
C1 N1 1_555 1_555
N1 C2 1_555 1_555
C2 N2 1_555 1_555
N2 C3 1_555 1_555
C3 N3 1_555 1_555
N3 C1 1_555 1_555
N4 C1 1_555 1_555
O1 C4 1_555 1_555
O2 C4 1_555 1_555
C4 C5 1_555 1_555
C5 C6 1_555 1_555
C6 H2 1_555 1_555
C7 C6 1_555 1_555
H3 C7 1_555 1_555
C8 N4 1_555 1_555
C9 C8 1_555 1_555
C10 C5 1_555 1_555
N5 C2 1_555 1_555
H6 N5 1_555 1_555
H9 C14 1_555 1_555
C15 N5 1_555 1_555
N6 C3 1_555 1_555
H12 N6 1_555 1_555
O5 C18 1_555 1_555
O6 H13 1_555 1_555
C18 O6 1_555 1_555
C19 C18 1_555 1_555
C20 C19 1_555 1_555
H14 C20 1_555 1_555
C21 C20 1_555 1_555
H15 C21 1_555 1_555
C22 N6 1_555 1_555
C23 C22 1_555 1_555
H16 C23 1_555 1_555
C24 C19 1_555 1_555
H17 C24 1_555 1_555
Li2 O2 1_555 1_555
Li3 O1 1_555 1_555
C7 C8 1_555 1_555
C9 C10 1_555 1_555
C14 C15 1_555 1_555
C21 C22 1_555 1_555
C23 C24 1_555 1_555
O7 Li2 1_555 1_555
O9 Li2 1_555 1_555
O8 Li1 1_555 1_555
C1_2 N1_2 1_555 1_555
N1_2 C2_2 1_555 1_555
C2_2 N2_2 1_555 1_555
N2_2 C3_2 1_555 1_555
C3_2 N3_2 1_555 1_555
N3_2 C1_2 1_555 1_555
N4_2 C1_2 1_555 1_555
O1_2 C4_2 1_555 1_555
O8 C4_2 1_555 1_555
C4_2 C5_2 1_555 1_555
C5_2 C6_2 1_555 1_555
C6_2 H2_2 1_555 1_555
C7_2 C6_2 1_555 1_555
H3_2 C7_2 1_555 1_555
C8_2 N4_2 1_555 1_555
C9_2 C8_2 1_555 1_555
C10_2 C5_2 1_555 1_555
N5_2 C2_2 1_555 1_555
H6_2 N5_2 1_555 1_555
H9_2 C14_2 1_555 1_555
C15_2 N5_2 1_555 1_555
N6_2 C3_2 1_555 1_555
H12_2 N6_2 1_555 1_555
O5_2 C18_2 1_555 1_555
O6_2 H13_2 1_555 1_555
C18_2 O6_2 1_555 1_555
C19_2 C18_2 1_555 1_555
C20_2 C19_2 1_555 1_555
H14_2 C20_2 1_555 1_555
C21_2 C20_2 1_555 1_555
H15_2 C21_2 1_555 1_555
C22_2 N6_2 1_555 1_555
C23_2 C22_2 1_555 1_555
H16_2 C23_2 1_555 1_555
C24_2 C19_2 1_555 1_555
H17_2 C24_2 1_555 1_555
Li3 O5_2 1_555 1_555
C7_2 C8_2 1_555 1_555
C9_2 C10_2 1_555 1_555
C14_2 C15_2 1_555 1_555
C21_2 C22_2 1_555 1_555
C23_2 C24_2 1_555 1_555
O8_2 Li3 1_555 1_555
C1_3 N1_3 1_555 1_555
N1_3 C2_3 1_555 1_555
C2_3 N2_3 1_555 1_555
N2_3 C3_3 1_555 1_555
C3_3 N3_3 1_555 1_555
N3_3 C1_3 1_555 1_555
N4_3 C1_3 1_555 1_555
O7 C4_3 1_555 1_555
O8_2 C4_3 1_555 1_555
C4_3 C5_3 1_555 1_555
C5_3 C6_3 1_555 1_555
C6_3 H2_3 1_555 1_555
C7_3 C6_3 1_555 1_555
H3_3 C7_3 1_555 1_555
C8_3 N4_3 1_555 1_555
C9_3 C8_3 1_555 1_555
C10_3 C5_3 1_555 1_555
N5_3 C2_3 1_555 1_555
H6_3 N5_3 1_555 1_555
H9_3 C14_3 1_555 1_555
C15_3 N5_3 1_555 1_555
N6_3 C3_3 1_555 1_555
H12_3 N6_3 1_555 1_555
O9_2 C18_3 1_555 1_555
O6_3 H13_3 1_555 1_555
C18_3 O6_3 1_555 1_555
C19_3 C18_3 1_555 1_555
C20_3 C19_3 1_555 1_555
H14_3 C20_3 1_555 1_555
C21_3 C20_3 1_555 1_555
H15_3 C21_3 1_555 1_555
C22_3 N6_3 1_555 1_555
C23_3 C22_3 1_555 1_555
H16_3 C23_3 1_555 1_555
C24_3 C19_3 1_555 1_555
H17_3 C24_3 1_555 1_555
C7_3 C8_3 1_555 1_555
C9_3 C10_3 1_555 1_555
C14_3 C15_3 1_555 1_555
C21_3 C22_3 1_555 1_555
C23_3 C24_3 1_555 1_555
C1_4 N1_4 1_555 1_555
N1_4 C2_4 1_555 1_555
C2_4 N2_4 1_555 1_555
N2_4 C3_4 1_555 1_555
C3_4 N3_4 1_555 1_555
N3_4 C1_4 1_555 1_555
N4_4 C1_4 1_555 1_555
O7_2 C4_4 1_555 1_555
O2_2 C4_4 1_555 1_555
C4_4 C5_4 1_555 1_555
C5_4 C6_4 1_555 1_555
C6_4 H2_4 1_555 1_555
C7_4 C6_4 1_555 1_555
H3_4 C7_4 1_555 1_555
C8_4 N4_4 1_555 1_555
C9_4 C8_4 1_555 1_555
C10_4 C5_4 1_555 1_555
N5_4 C2_4 1_555 1_555
H6_4 N5_4 1_555 1_555
H9_4 C14_4 1_555 1_555
C15_4 N5_4 1_555 1_555
N6_4 C3_4 1_555 1_555
H12_4 N6_4 1_555 1_555
O9 C18_4 1_555 1_555
O6_4 H13_4 1_555 1_555
C18_4 O6_4 1_555 1_555
C19_4 C18_4 1_555 1_555
C20_4 C19_4 1_555 1_555
H14_4 C20_4 1_555 1_555
C21_4 C20_4 1_555 1_555
H15_4 C21_4 1_555 1_555
C22_4 N6_4 1_555 1_555
C23_4 C22_4 1_555 1_555
H16_4 C23_4 1_555 1_555
C24_4 C19_4 1_555 1_555
H17_4 C24_4 1_555 1_555
Li4 O2_2 1_555 1_555
C7_4 C8_4 1_555 1_555
C9_4 C10_4 1_555 1_555
C14_4 C15_4 1_555 1_555
C21_4 C22_4 1_555 1_555
C23_4 C24_4 1_555 1_555
O3_2 H7_2 1_555 1_555
O4_2 C11_2 1_555 1_555
C11_2 O3_2 1_555 1_555
C12_2 C11_2 1_555 1_555
C13_2 C12_2 1_555 1_555
H8_2 C13_2 1_555 1_555
H10_2 C16_2 1_555 1_555
C17_2 C12_2 1_555 1_555
H11_2 C17_2 1_555 1_555
C16_2 C17_2 1_555 1_555
O3_3 H7_3 1_555 1_555
O4_3 C11_3 1_555 1_555
C11_3 O3_3 1_555 1_555
C12_3 C11_3 1_555 1_555
C13_3 C12_3 1_555 1_555
H8_3 C13_3 1_555 1_555
H10_3 C16_3 1_555 1_555
C17_3 C12_3 1_555 1_555
H11_3 C17_3 1_555 1_555
C16_3 C17_3 1_555 1_555
O3_4 H7_4 1_555 1_555
O4_4 C11_4 1_555 1_555
C11_4 O3_4 1_555 1_555
C12_4 C11_4 1_555 1_555
C13_4 C12_4 1_555 1_555
H8_4 C13_4 1_555 1_555
H10_4 C16_4 1_555 1_555
C17_4 C12_4 1_555 1_555
H11_4 C17_4 1_555 1_555
C16_4 C17_4 1_555 1_555

#END
