
###############################################################################
#
# This file contains modified crystal structure data generated from the
# MOF subset of the Cambridge Structural Database (CSD) v543 
# hosted by the Cambridge Crystallographic Data Centre (CCDC).
#
# This work is licensed under the Creative Commons
# Attribution-NonCommercial-ShareAlike 4.0 International License.
# To view a copy of this license, visit
# http://creativecommons.org/licenses/by-nc-sa/4.0/
# or send a letter to
# Creative Commons, PO Box 1866, Mountain View, CA 94042, USA.
#
# CIF created using the CSD Python API on 29 September 2022
# The structure has been converted into the P1 space group
# The structure has a 3D framework
# The original CSD entry HOZHOW is in the rhombohedral crystal system
# The framework has been calculated to contain at least 10.0% void space
# The void calculation uses a probe of radius 1.32A, grid spacing 0.4
# The framework is charged, counterions have been retained in the structure
#
###############################################################################

data_HOZHOW
_chemical_formula_moiety         '(C252 H342 Cu70 O310 S36)n'
_symmetry_cell_setting           triclinic
_symmetry_space_group_name_H-M   'P 1'
_symmetry_Int_Tables_number      1
_space_group_name_Hall           'P 1'
loop_
_symmetry_equiv_pos_site_id
_symmetry_equiv_pos_as_xyz
1 x,y,z
_cell_length_a                   31.674(4)
_cell_length_b                   31.674(4)
_cell_length_c                   16.052(4)
_cell_angle_alpha                90
_cell_angle_beta                 90
_cell_angle_gamma                120
_cell_volume                     13946.5
loop_
_atom_site_label
_atom_site_type_symbol
_atom_site_fract_x
_atom_site_fract_y
_atom_site_fract_z
Cu4 Cu 0.500000 0.500000 0.000000
Cu5 Cu 0.42548(2) 0.48702(2) 0.14692(3)
Cu6 Cu 0.46177(2) 0.41381(2) 0.11688(3)
Cu7 Cu 0.47050(2) 0.58241(2) 0.02673(3)
S3 S 0.47785(6) 0.64692(5) 0.36207(10)
S4 S 0.35307(5) 0.27288(5) 0.48375(8)
O19 O 0.41584(13) 0.45399(13) 0.25311(19)
O20 O 0.41872(14) 0.59764(14) 0.0562(3)
H20 H 0.392686 0.587765 0.026883
H21 H 0.426156 0.620785 0.020913
O21 O 0.44283(14) 0.40112(12) 0.2334(2)
O22 O 0.37208(13) 0.49908(15) 0.1778(2)
H22 H 0.354811 0.487592 0.222190
H23 H 0.357891 0.501542 0.133880
O23 O 0.32058(12) 0.43245(12) 0.4390(2)
O24 O 0.48607(13) 0.57947(13) 0.1753(2)
H24 H 0.478634 0.595140 0.210521
H25 H 0.516224 0.589250 0.185221
O25 O 0.31911(11) 0.47343(12) 0.3257(2)
O26 O 0.37949(13) 0.40785(13) 0.0796(2)
H26 H 0.379682 0.410974 0.026360
H27 H 0.348582 0.394924 0.086790
O27 O 0.47088(16) 0.64843(15) 0.2726(3)
O28 O 0.54652(14) 0.43414(14) 0.1269(2)
H28 H 0.571394 0.459800 0.146434
H29 H 0.559904 0.417500 0.141994
O29 O 0.52839(19) 0.67548(17) 0.3851(4)
O30 O 0.4456(2) 0.65841(17) 0.4069(4)
O31 O 0.38323(19) 0.25510(17) 0.4533(4)
O32 O 0.30679(17) 0.25161(15) 0.4419(3)
O33 O 0.3474(2) 0.26909(16) 0.5734(3)
O34 O 0.52466(11) 0.57047(11) 0.00253(18)
H30 H 0.545595 0.582761 0.027381
O35 O 0.43102(11) 0.51305(11) 0.03743(18)
H31 H 0.408857 0.502870 0.020371
O36 O 0.48562(11) 0.48467(11) 0.12148(18)
H32 H 0.506281 0.495981 0.145790
C15 C 0.47682(19) 0.5220(2) 0.4148(4)
H33 H 0.498(2) 0.5108(19) 0.419(3)
C16 C 0.4923(2) 0.5707(2) 0.4001(4)
H34 H 0.521(2) 0.592(2) 0.409(4)
C17 C 0.45861(19) 0.58515(18) 0.3847(3)
C18 C 0.4096(2) 0.55077(19) 0.3808(3)
H35 H 0.389(2) 0.5603(19) 0.373(3)
C19 C 0.39369(17) 0.50211(17) 0.3958(3)
C20 C 0.42777(17) 0.48716(17) 0.4141(3)
C21 C 0.41189(16) 0.43451(17) 0.4284(3)
C22 C 0.41045(17) 0.40302(17) 0.3652(3)
C23 C 0.39550(18) 0.35490(18) 0.3833(3)
H36 H 0.3914(17) 0.3292(18) 0.338(3)
C24 C 0.38049(17) 0.33638(17) 0.4622(3)
C25 C 0.38240(18) 0.36719(18) 0.5265(3)
H37 H 0.3755(18) 0.3577(18) 0.589(3)
C26 C 0.39844(19) 0.4155(2) 0.5086(3)
C27 C 0.34060(16) 0.46632(17) 0.3875(3)
C28 C 0.42448(18) 0.42109(17) 0.2770(3)
H38 H 0.4000(18) 0.4327(19) 0.546(3)
Cu9 Cu 0.25286(2) 0.38129(3) 0.45021(3)
Cu10 Cu 0.24908(2) 0.44524(3) 0.30660(3)
O38 O 0.44520(17) 0.34609(12) 0.1057(2)
O39 O 0.51235(16) 0.65244(11) 0.0076(2)
Cu1 Cu 0.57452(2) 0.51298(2) 0.85308(3)
Cu2 Cu 0.53823(2) 0.58619(2) 0.88312(3)
Cu3 Cu 0.52950(2) 0.41759(2) 0.97327(3)
Cu4_2 Cu 0.500000 0.500000 1.000000
S1 S 0.52215(6) 0.35308(5) 0.63793(10)
S2 S 0.64693(5) 0.72712(5) 0.51625(8)
O1 O 0.58416(13) 0.54601(13) 0.74689(19)
O2 O 0.58128(14) 0.40236(14) 0.9438(3)
H1 H 0.607314 0.412235 0.973117
H2 H 0.573844 0.379215 0.979087
O3 O 0.55717(14) 0.59888(12) 0.7666(2)
O4 O 0.62792(13) 0.50092(15) 0.8222(2)
H3 H 0.645189 0.512408 0.777810
H4 H 0.642109 0.498458 0.866120
O5 O 0.67942(12) 0.56755(12) 0.5610(2)
O6 O 0.51393(13) 0.42053(13) 0.8247(2)
H5 H 0.521366 0.404860 0.789479
H6 H 0.483776 0.410750 0.814779
O7 O 0.68089(11) 0.52657(12) 0.6743(2)
O8 O 0.62051(13) 0.59215(13) 0.9204(2)
H7 H 0.620318 0.589026 0.973640
H8 H 0.651418 0.605076 0.913210
O9 O 0.52912(16) 0.35157(15) 0.7274(3)
O10 O 0.45348(14) 0.56586(14) 0.8731(2)
H9 H 0.428606 0.540200 0.853566
H10 H 0.440096 0.582500 0.858006
O11 O 0.47161(19) 0.32452(17) 0.6149(4)
O12 O 0.5544(2) 0.34159(17) 0.5931(4)
O13 O 0.61677(19) 0.74490(17) 0.5467(4)
O14 O 0.69321(17) 0.74839(15) 0.5581(3)
O15 O 0.6526(2) 0.73091(16) 0.4266(3)
O16 O 0.47534(11) 0.42953(11) 0.99747(18)
H11 H 0.454405 0.417239 0.972619
O17 O 0.56898(11) 0.48695(11) 0.96257(18)
H12 H 0.591143 0.497130 0.979629
O18 O 0.51438(11) 0.51533(11) 0.87852(18)
H13 H 0.493719 0.504019 0.854210
C1 C 0.52318(19) 0.4780(2) 0.5852(4)
H14 H 0.502(2) 0.4892(19) 0.581(3)
C2 C 0.5077(2) 0.4293(2) 0.5999(4)
H15 H 0.479(2) 0.408(2) 0.591(4)
C3 C 0.54139(19) 0.41485(18) 0.6153(3)
C4 C 0.5904(2) 0.44923(19) 0.6192(3)
H16 H 0.611(2) 0.4397(19) 0.627(3)
C5 C 0.60631(17) 0.49789(17) 0.6042(3)
C6 C 0.57223(17) 0.51284(17) 0.5859(3)
C7 C 0.58811(16) 0.56549(17) 0.5716(3)
C8 C 0.58955(17) 0.59698(17) 0.6348(3)
C9 C 0.60450(18) 0.64510(18) 0.6167(3)
H17 H 0.6086(17) 0.6708(18) 0.662(3)
C10 C 0.61951(17) 0.66362(17) 0.5378(3)
C11 C 0.61760(18) 0.63281(18) 0.4735(3)
H18 H 0.6245(18) 0.6423(18) 0.411(3)
C12 C 0.60156(19) 0.5845(2) 0.4914(3)
C13 C 0.65940(16) 0.53368(17) 0.6125(3)
C14 C 0.57552(18) 0.57891(17) 0.7230(3)
H19 H 0.6000(18) 0.5673(19) 0.454(3)
Cu8 Cu 0.74714(2) 0.61871(3) 0.54979(3)
Cu11 Cu 0.75092(2) 0.55476(3) 0.69340(3)
O37 O 0.55480(17) 0.65391(12) 0.8943(2)
O40 O 0.48765(16) 0.34756(11) 0.9924(2)
Cu1_2 Cu 0.48702(2) 0.06154(3) 0.85308(3)
Cu3_2 Cu 0.58241(2) 0.11191(3) 0.97327(3)
Cu4_3 Cu 0.500000 0.000000 1.000000
S1_2 S 0.64692(5) 0.16907(8) 0.63793(10)
O1_2 O 0.45399(13) 0.03815(18) 0.74689(19)
O2_2 O 0.59764(14) 0.17892(20) 0.9438(3)
H1_2 H 0.587765 0.195079 0.973117
H2_2 H 0.620785 0.194629 0.979087
O4_2 O 0.49908(15) 0.12700(20) 0.8222(2)
H3_2 H 0.487592 0.132781 0.777810
H4_2 H 0.501542 0.143651 0.866120
O5_2 O 0.43245(12) 0.11187(17) 0.5610(2)
O6_2 O 0.57947(13) 0.09340(18) 0.8247(2)
H5_2 H 0.595140 0.116506 0.789479
H6_2 H 0.589250 0.073026 0.814779
O7_2 O 0.47343(12) 0.15432(16) 0.6743(2)
O8_2 O 0.40785(13) 0.02836(18) 0.9204(2)
H7_2 H 0.410974 0.031292 0.973640
H8_2 H 0.394924 0.046342 0.913210
O9_2 O 0.64843(15) 0.17755(22) 0.7274(3)
O11_2 O 0.67548(17) 0.14709(25) 0.6149(4)
O12_2 O 0.65841(17) 0.21281(26) 0.5931(4)
O16_2 O 0.57047(11) 0.04581(16) 0.99747(18)
H11_2 H 0.582761 0.037166 0.972619
O17_2 O 0.51305(11) 0.08203(16) 0.96257(18)
H12_2 H 0.502870 0.094013 0.979629
C1_2 C 0.5220(2) 0.04518(28) 0.5852(4)
H14_2 H 0.5108(19) 0.0128(28) 0.581(3)
C2_2 C 0.5707(2) 0.0784(3) 0.5999(4)
H15_2 H 0.592(2) 0.071(3) 0.591(4)
C3_2 C 0.58515(18) 0.12654(26) 0.6153(3)
C4_2 C 0.55077(19) 0.14117(28) 0.6192(3)
H16_2 H 0.5603(19) 0.1713(28) 0.627(3)
C5_2 C 0.50211(17) 0.10842(24) 0.6042(3)
C6_2 C 0.48716(17) 0.05939(24) 0.5859(3)
C7_2 C 0.43451(17) 0.02262(23) 0.5716(3)
C12_2 C 0.4155(2) 0.01706(28) 0.4914(3)
C13_2 C 0.46632(17) 0.12572(23) 0.6125(3)
H19_2 H 0.4327(19) 0.0327(26) 0.454(3)
Cu8_2 Cu 0.38129(3) 0.12844(4) 0.54979(3)
Cu11_2 Cu 0.44524(3) 0.19617(4) 0.69340(3)
O40_2 O 0.65244(11) 0.14010(19) 0.9924(2)
Cu4_4 Cu 0.500000 1.000000 0.000000
Cu5_2 Cu 0.51298(2) 0.93846(3) 0.14692(3)
Cu7_2 Cu 0.41759(2) 0.88809(3) 0.02673(3)
S3_2 S 0.35308(5) 0.83093(8) 0.36207(10)
O19_2 O 0.54601(13) 0.96185(18) 0.25311(19)
O20_2 O 0.40236(14) 0.82108(20) 0.0562(3)
H20_2 H 0.412235 0.804921 0.026883
H21_2 H 0.379215 0.805371 0.020913
O22_2 O 0.50092(15) 0.87300(20) 0.1778(2)
H22_2 H 0.512408 0.867219 0.222190
H23_2 H 0.498458 0.856349 0.133880
O23_2 O 0.56755(12) 0.88813(17) 0.4390(2)
O24_2 O 0.42053(13) 0.90660(18) 0.1753(2)
H24_2 H 0.404860 0.883494 0.210521
H25_2 H 0.410750 0.926974 0.185221
O25_2 O 0.52657(12) 0.84568(16) 0.3257(2)
O26_2 O 0.59215(13) 0.97164(18) 0.0796(2)
H26_2 H 0.589026 0.968708 0.026360
H27_2 H 0.605076 0.953658 0.086790
O27_2 O 0.35157(15) 0.82245(22) 0.2726(3)
O29_2 O 0.32452(17) 0.85291(25) 0.3851(4)
O30_2 O 0.34159(17) 0.78719(26) 0.4069(4)
O34_2 O 0.42953(11) 0.95419(16) 0.00253(18)
H30_2 H 0.417239 0.962834 0.027381
O35_2 O 0.48695(11) 0.91797(16) 0.03743(18)
H31_2 H 0.497130 0.905987 0.020371
C15_2 C 0.4780(2) 0.95482(28) 0.4148(4)
H33_2 H 0.4892(19) 0.9872(28) 0.419(3)
C16_2 C 0.4293(2) 0.9216(3) 0.4001(4)
H34_2 H 0.408(2) 0.929(3) 0.409(4)
C17_2 C 0.41485(18) 0.87346(26) 0.3847(3)
C18_2 C 0.44923(19) 0.85883(28) 0.3808(3)
H35_2 H 0.4397(19) 0.8287(28) 0.373(3)
C19_2 C 0.49789(17) 0.89158(24) 0.3958(3)
C20_2 C 0.51284(17) 0.94061(24) 0.4141(3)
C21_2 C 0.56549(17) 0.97738(23) 0.4284(3)
C26_2 C 0.5845(2) 0.98294(28) 0.5086(3)
C27_2 C 0.53368(17) 0.87428(23) 0.3875(3)
H38_2 H 0.5673(19) 0.9673(26) 0.546(3)
Cu9_2 Cu 0.61871(3) 0.87156(4) 0.45021(3)
Cu10_2 Cu 0.55476(3) 0.80383(4) 0.30660(3)
O39_2 O 0.34756(11) 0.85990(19) 0.0076(2)
Cu4_5 Cu -0.000000 0.500000 0.000000
Cu5_3 Cu 0.06154(3) 0.57452(2) 0.14692(3)
Cu7_3 Cu 0.11191(3) 0.52950(2) 0.02673(3)
S3_3 S 0.16907(8) 0.52215(6) 0.36207(10)
O19_3 O 0.03815(18) 0.58416(13) 0.25311(19)
O20_3 O 0.17892(20) 0.58128(14) 0.0562(3)
H20_3 H 0.195079 0.607314 0.026883
H21_3 H 0.194629 0.573844 0.020913
O22_3 O 0.12700(20) 0.62792(13) 0.1778(2)
H22_3 H 0.132781 0.645189 0.222190
H23_3 H 0.143651 0.642109 0.133880
O23_3 O 0.11187(17) 0.67942(12) 0.4390(2)
O24_3 O 0.09340(18) 0.51393(13) 0.1753(2)
H24_3 H 0.116506 0.521366 0.210521
H25_3 H 0.073026 0.483776 0.185221
O25_3 O 0.15432(16) 0.68089(11) 0.3257(2)
O26_3 O 0.02836(18) 0.62051(13) 0.0796(2)
H26_3 H 0.031292 0.620318 0.026360
H27_3 H 0.046342 0.651418 0.086790
O27_3 O 0.17755(22) 0.52912(16) 0.2726(3)
O29_3 O 0.14709(25) 0.47161(19) 0.3851(4)
O30_3 O 0.21281(26) 0.5544(2) 0.4069(4)
O34_3 O 0.04581(16) 0.47534(11) 0.00253(18)
H30_3 H 0.037166 0.454405 0.027381
O35_3 O 0.08203(16) 0.56898(11) 0.03743(18)
H31_3 H 0.094013 0.591143 0.020371
C15_3 C 0.04518(28) 0.52318(19) 0.4148(4)
H33_3 H 0.0128(28) 0.502(2) 0.419(3)
C16_3 C 0.0784(3) 0.5077(2) 0.4001(4)
H34_3 H 0.071(3) 0.479(2) 0.409(4)
C17_3 C 0.12654(26) 0.54139(19) 0.3847(3)
C18_3 C 0.14117(28) 0.5904(2) 0.3808(3)
H35_3 H 0.1713(28) 0.611(2) 0.373(3)
C19_3 C 0.10842(24) 0.60631(17) 0.3958(3)
C20_3 C 0.05939(24) 0.57223(17) 0.4141(3)
C21_3 C 0.02262(23) 0.58811(16) 0.4284(3)
C26_3 C 0.01706(28) 0.60156(19) 0.5086(3)
C27_3 C 0.12572(23) 0.65940(16) 0.3875(3)
H38_3 H 0.0327(26) 0.6000(18) 0.546(3)
Cu9_3 Cu 0.12844(4) 0.74714(2) 0.45021(3)
Cu10_3 Cu 0.19617(4) 0.75092(2) 0.30660(3)
O39_3 O 0.14010(19) 0.48765(16) 0.0076(2)
Cu1_3 Cu 0.93846(3) 0.42548(2) 0.85308(3)
Cu3_3 Cu 0.88809(3) 0.47050(2) 0.97327(3)
Cu4_6 Cu 1.000000 0.500000 1.000000
S1_3 S 0.83093(8) 0.47785(6) 0.63793(10)
O1_3 O 0.96185(18) 0.41584(13) 0.74689(19)
O2_3 O 0.82108(20) 0.41872(14) 0.9438(3)
H1_3 H 0.804921 0.392686 0.973117
H2_3 H 0.805371 0.426156 0.979087
O4_3 O 0.87300(20) 0.37208(13) 0.8222(2)
H3_3 H 0.867219 0.354811 0.777810
H4_3 H 0.856349 0.357891 0.866120
O5_3 O 0.88813(17) 0.32058(12) 0.5610(2)
O6_3 O 0.90660(18) 0.48607(13) 0.8247(2)
H5_3 H 0.883494 0.478634 0.789479
H6_3 H 0.926974 0.516224 0.814779
O7_3 O 0.84568(16) 0.31911(11) 0.6743(2)
O8_3 O 0.97164(18) 0.37949(13) 0.9204(2)
H7_3 H 0.968708 0.379682 0.973640
H8_3 H 0.953658 0.348582 0.913210
O9_3 O 0.82245(22) 0.47088(16) 0.7274(3)
O11_3 O 0.85291(25) 0.52839(19) 0.6149(4)
O12_3 O 0.78719(26) 0.4456(2) 0.5931(4)
O16_3 O 0.95419(16) 0.52466(11) 0.99747(18)
H11_3 H 0.962834 0.545595 0.972619
O17_3 O 0.91797(16) 0.43102(11) 0.96257(18)
H12_3 H 0.905987 0.408857 0.979629
C1_3 C 0.95482(28) 0.47682(19) 0.5852(4)
H14_3 H 0.9872(28) 0.498(2) 0.581(3)
C2_3 C 0.9216(3) 0.4923(2) 0.5999(4)
H15_3 H 0.929(3) 0.521(2) 0.591(4)
C3_3 C 0.87346(26) 0.45861(19) 0.6153(3)
C4_3 C 0.85883(28) 0.4096(2) 0.6192(3)
H16_3 H 0.8287(28) 0.389(2) 0.627(3)
C5_3 C 0.89158(24) 0.39369(17) 0.6042(3)
C6_3 C 0.94061(24) 0.42777(17) 0.5859(3)
C7_3 C 0.97738(23) 0.41189(16) 0.5716(3)
C12_3 C 0.98294(28) 0.39844(19) 0.4914(3)
C13_3 C 0.87428(23) 0.34060(16) 0.6125(3)
H19_3 H 0.9673(26) 0.4000(18) 0.454(3)
Cu8_3 Cu 0.87156(4) 0.25286(2) 0.54979(3)
Cu11_3 Cu 0.80383(4) 0.24908(2) 0.69340(3)
O40_3 O 0.85990(19) 0.51235(16) 0.9924(2)
Cu1_4 Cu 0.24119(2) 0.84631(2) 0.18641(3)
Cu2_2 Cu 0.20490(2) 0.91952(2) 0.21645(3)
Cu4_7 Cu 0.166667 0.833333 0.333333
O1_4 O 0.25083(13) 0.87934(13) 0.08022(19)
O2_4 O 0.24795(14) 0.73569(14) 0.2771(3)
H1_4 H 0.273981 0.745568 0.306450
H2_4 H 0.240511 0.712548 0.312420
O3_2 O 0.22384(14) 0.93221(12) 0.0999(2)
O4_4 O 0.29459(13) 0.83425(15) 0.1555(2)
H3_4 H 0.311856 0.845741 0.111143
H4_4 H 0.308776 0.831791 0.199453
O6_4 O 0.18060(13) 0.75386(13) 0.1580(2)
H5_4 H 0.188033 0.738193 0.122812
H6_4 H 0.150443 0.744083 0.148112
O8_4 O 0.28718(13) 0.92548(13) 0.2537(2)
H7_4 H 0.286985 0.922359 0.306973
H8_4 H 0.318085 0.938409 0.246543
O9_4 O 0.19579(16) 0.68490(15) 0.0607(3)
O10_2 O 0.12015(14) 0.89919(14) 0.2064(2)
H9_2 H 0.095273 0.873533 0.186899
H10_2 H 0.106763 0.915833 0.191339
O16_4 O 0.14201(11) 0.76286(11) 0.33080(18)
H11_4 H 0.121072 0.750572 0.305952
O17_4 O 0.23565(11) 0.82028(11) 0.29590(18)
H12_4 H 0.257810 0.830463 0.312962
O18_2 O 0.18105(11) 0.84866(11) 0.21185(18)
H13_2 H 0.160386 0.837352 0.187543
C14_2 C 0.24219(18) 0.91224(17) 0.0563(3)
Cu5_4 Cu 0.09215(2) 0.82035(2) 0.48025(3)
Cu7_4 Cu 0.13717(2) 0.91574(2) 0.36006(3)
S3_4 S 0.14452(6) 0.98025(5) 0.69540(10)
S4_2 S 0.01974(5) 0.60621(5) 0.81708(8)
O19_4 O 0.08251(13) 0.78732(13) 0.58644(19)
O20_4 O 0.08539(14) 0.93097(14) 0.3895(3)
H20_4 H 0.059353 0.921098 0.360216
H21_4 H 0.092823 0.954118 0.354246
O21_2 O 0.10950(14) 0.73445(12) 0.5667(2)
O22_4 O 0.03875(13) 0.83241(15) 0.5111(2)
H22_4 H 0.021478 0.820925 0.555523
H23_4 H 0.024558 0.834875 0.467213
O24_4 O 0.15274(13) 0.91280(13) 0.5086(2)
H24_4 H 0.145301 0.928473 0.543854
H25_4 H 0.182891 0.922583 0.518554
O26_4 O 0.04616(13) 0.74118(13) 0.4129(2)
H26_4 H 0.046349 0.744307 0.359693
H27_4 H 0.015249 0.728257 0.420123
O27_4 O 0.13755(16) 0.98176(15) 0.6059(3)
O28_2 O 0.21319(14) 0.76747(14) 0.4602(2)
H28_2 H 0.238061 0.793133 0.479767
H29_2 H 0.226571 0.750833 0.475327
O30_4 O 0.1123(2) 0.99174(17) 0.7402(4)
O31_2 O 0.04990(19) 0.58843(17) 0.7866(4)
O33_2 O 0.0141(2) 0.60242(16) 0.9067(3)
O34_4 O 0.19133(11) 0.90380(11) 0.33586(18)
H30_4 H 0.212262 0.916094 0.360714
O35_4 O 0.09769(11) 0.84638(11) 0.37076(18)
H31_4 H 0.075524 0.836203 0.353704
O36_2 O 0.15229(11) 0.81800(11) 0.45481(18)
H32_2 H 0.172948 0.829314 0.479123
C15_4 C 0.14349(19) 0.8553(2) 0.7481(4)
H33_4 H 0.165(2) 0.8441(19) 0.752(3)
C16_4 C 0.1590(2) 0.9040(2) 0.7334(4)
H34_4 H 0.188(2) 0.925(2) 0.742(4)
C17_4 C 0.12528(19) 0.91848(18) 0.7180(3)
C18_4 C 0.0763(2) 0.88410(19) 0.7141(3)
H35_4 H 0.056(2) 0.8936(19) 0.706(3)
C19_4 C 0.06036(17) 0.83544(17) 0.7291(3)
C20_4 C 0.09444(17) 0.82049(17) 0.7474(3)
C21_4 C 0.07856(16) 0.76784(17) 0.7617(3)
C22_2 C 0.07712(17) 0.73635(17) 0.6985(3)
C23_2 C 0.06217(18) 0.68823(18) 0.7166(3)
H36_2 H 0.0581(17) 0.6625(18) 0.671(3)
C24_2 C 0.04716(17) 0.66971(17) 0.7955(3)
C25_2 C 0.04907(18) 0.70052(18) 0.8598(3)
H37_2 H 0.0422(18) 0.6910(18) 0.922(3)
C26_4 C 0.06511(19) 0.7488(2) 0.8419(3)
C27_4 C 0.00727(16) 0.79965(17) 0.7208(3)
C28_2 C 0.09115(18) 0.75442(17) 0.6103(3)
H38_4 H 0.0667(18) 0.7660(19) 0.879(3)
O37_2 O 0.22146(17) 0.98725(12) 0.2277(2)
O39_4 O 0.17901(16) 0.98578(11) 0.3410(2)
O23_4 O 0.98725(12) 0.76578(12) 0.7723(2)
O25_4 O 0.98578(11) 0.80676(12) 0.6590(2)
O32_2 O 0.97346(17) 0.58494(15) 0.7752(3)
Cu9_4 Cu 0.91952(2) 0.71463(3) 0.78355(3)
Cu10_4 Cu 0.91574(2) 0.77858(3) 0.63994(3)
Cu1_5 Cu 0.15369(2) 0.39487(3) 0.18641(3)
Cu2_3 Cu 0.08048(2) 0.28537(3) 0.21645(3)
Cu4_8 Cu 0.166667 0.333333 0.333333
O1_5 O 0.12066(13) 0.37148(18) 0.08022(19)
O2_5 O 0.26431(14) 0.51225(20) 0.2771(3)
H1_5 H 0.254432 0.528412 0.306450
H2_5 H 0.287452 0.527962 0.312420
O3_3 O 0.06779(12) 0.29162(18) 0.0999(2)
O4_5 O 0.16575(15) 0.46033(20) 0.1555(2)
H3_5 H 0.154259 0.466114 0.111143
H4_5 H 0.168209 0.476984 0.199453
O6_5 O 0.24614(13) 0.42673(18) 0.1580(2)
H5_5 H 0.261807 0.449839 0.122812
H6_5 H 0.255917 0.406359 0.148112
O8_5 O 0.07452(13) 0.36169(18) 0.2537(2)
H7_5 H 0.077641 0.364625 0.306973
H8_5 H 0.061591 0.379675 0.246543
O9_5 O 0.31510(15) 0.51088(22) 0.0607(3)
O10_3 O 0.10081(14) 0.22095(20) 0.2064(2)
H9_3 H 0.126467 0.221739 0.186899
H10_3 H 0.084167 0.190929 0.191339
O16_5 O 0.23714(11) 0.37914(16) 0.33080(18)
H11_5 H 0.249428 0.370499 0.305952
O17_5 O 0.17972(11) 0.41536(16) 0.29590(18)
H12_5 H 0.169537 0.427346 0.312962
O18_3 O 0.15134(11) 0.33238(16) 0.21185(18)
H13_3 H 0.162648 0.323033 0.187543
C14_3 C 0.08776(17) 0.32994(25) 0.0563(3)
Cu5_5 Cu 0.17965(2) 0.27179(3) 0.48025(3)
Cu7_5 Cu 0.08426(2) 0.22142(3) 0.36006(3)
S3_5 S 0.01975(5) 0.16426(8) 0.69540(10)
S4_3 S 0.39379(5) 0.41352(7) 0.81708(8)
O19_5 O 0.21268(13) 0.29518(18) 0.58644(19)
O20_5 O 0.06903(14) 0.15441(20) 0.3895(3)
H20_5 H 0.078902 0.138254 0.360216
H21_5 H 0.045882 0.138704 0.354246
O21_3 O 0.26555(12) 0.37504(18) 0.5667(2)
O22_5 O 0.16759(15) 0.20633(20) 0.5111(2)
H22_5 H 0.179075 0.200552 0.555523
H23_5 H 0.165125 0.189682 0.467213
O23_5 O 0.23422(12) 0.22146(17) 0.7723(2)
O24_5 O 0.08720(13) 0.23993(18) 0.5086(2)
H24_5 H 0.071527 0.216827 0.543854
H25_5 H 0.077417 0.260307 0.518554
O25_5 O 0.19324(12) 0.17901(16) 0.6590(2)
O26_5 O 0.25882(13) 0.30497(18) 0.4129(2)
H26_5 H 0.255693 0.302041 0.359693
H27_5 H 0.271743 0.286991 0.420123
O27_5 O 0.01824(15) 0.15578(22) 0.6059(3)
O28_3 O 0.23253(14) 0.44571(20) 0.4602(2)
H28_3 H 0.206867 0.444927 0.479767
H29_3 H 0.249167 0.475737 0.475327
O30_5 O 0.00826(17) 0.12052(26) 0.7402(4)
O31_3 O 0.41157(17) 0.46146(25) 0.7866(4)
O32_3 O 0.41506(15) 0.38851(23) 0.7752(3)
O33_3 O 0.39758(16) 0.41164(26) 0.9067(3)
O34_5 O 0.09620(11) 0.28752(16) 0.33586(18)
H30_5 H 0.083906 0.296167 0.360714
O35_5 O 0.15362(11) 0.25130(16) 0.37076(18)
H31_5 H 0.163797 0.239320 0.353704
O36_3 O 0.18200(11) 0.33428(16) 0.45481(18)
H32_3 H 0.170686 0.343633 0.479123
C15_5 C 0.1447(2) 0.28815(28) 0.7481(4)
H33_5 H 0.1559(19) 0.3205(28) 0.752(3)
C16_5 C 0.0960(2) 0.2549(3) 0.7334(4)
H34_5 H 0.075(2) 0.262(3) 0.742(4)
C17_5 C 0.08152(18) 0.20679(26) 0.7180(3)
C18_5 C 0.11590(19) 0.19216(28) 0.7141(3)
H35_5 H 0.1064(19) 0.1620(28) 0.706(3)
C19_5 C 0.16456(17) 0.22491(24) 0.7291(3)
C20_5 C 0.17951(17) 0.27394(24) 0.7474(3)
C21_5 C 0.23216(17) 0.31071(23) 0.7617(3)
C22_3 C 0.26365(17) 0.34076(24) 0.6985(3)
C23_3 C 0.31177(18) 0.37393(25) 0.7166(3)
H36_3 H 0.3375(18) 0.3955(25) 0.671(3)
C24_3 C 0.33029(17) 0.37744(24) 0.7955(3)
C25_3 C 0.29948(18) 0.34854(25) 0.8598(3)
H37_3 H 0.3090(18) 0.3511(25) 0.922(3)
C26_5 C 0.2512(2) 0.31627(28) 0.8419(3)
C27_5 C 0.20035(17) 0.20761(23) 0.7208(3)
C28_3 C 0.24558(17) 0.33672(25) 0.6103(3)
H38_5 H 0.2340(19) 0.3006(26) 0.879(3)
Cu9_5 Cu 0.28537(3) 0.20490(4) 0.78355(3)
Cu10_5 Cu 0.22142(3) 0.13717(4) 0.63994(3)
O37_3 O 0.01275(12) 0.23422(21) 0.2277(2)
O39_5 O 0.01422(11) 0.19324(19) 0.3410(2)
O23_6 O 0.77854(17) 0.01275(12) 0.7723(2)
O25_6 O 0.82099(16) 0.01422(11) 0.6590(2)
O32_4 O 0.61149(23) 0.02654(17) 0.7752(3)
Cu9_6 Cu 0.79510(4) 0.08048(2) 0.78355(3)
Cu10_6 Cu 0.86283(4) 0.08426(2) 0.63994(3)
Cu1_6 Cu 0.60513(3) 0.75881(2) 0.18641(3)
Cu2_4 Cu 0.71463(3) 0.79510(2) 0.21645(3)
Cu4_9 Cu 0.666667 0.833333 0.333333
O1_6 O 0.62852(18) 0.74917(13) 0.08022(19)
O2_6 O 0.48775(20) 0.75205(14) 0.2771(3)
H1_6 H 0.471588 0.726019 0.306450
H2_6 H 0.472038 0.759489 0.312420
O3_4 O 0.70838(18) 0.77616(14) 0.0999(2)
O4_6 O 0.53967(20) 0.70541(13) 0.1555(2)
H3_6 H 0.533886 0.688144 0.111143
H4_6 H 0.523016 0.691224 0.199453
O6_6 O 0.57327(18) 0.81940(13) 0.1580(2)
H5_6 H 0.550161 0.811967 0.122812
H6_6 H 0.593641 0.849557 0.148112
O8_6 O 0.63831(18) 0.71282(13) 0.2537(2)
H7_6 H 0.635375 0.713015 0.306973
H8_6 H 0.620325 0.681915 0.246543
O9_6 O 0.48912(22) 0.80421(16) 0.0607(3)
O10_4 O 0.77905(20) 0.87985(14) 0.2064(2)
H9_4 H 0.778261 0.904727 0.186899
H10_4 H 0.809071 0.893237 0.191339
O16_6 O 0.62086(16) 0.85799(11) 0.33080(18)
H11_6 H 0.629501 0.878928 0.305952
O17_6 O 0.58464(16) 0.76435(11) 0.29590(18)
H12_6 H 0.572654 0.742190 0.312962
O18_4 O 0.66762(16) 0.81895(11) 0.21185(18)
H13_4 H 0.676967 0.839614 0.187543
C14_4 C 0.67006(25) 0.75781(18) 0.0563(3)
Cu5_6 Cu 0.72821(3) 0.90785(2) 0.48025(3)
Cu7_6 Cu 0.77858(3) 0.86283(2) 0.36006(3)
S3_6 S 0.83574(8) 0.85548(6) 0.69540(10)
S4_4 S 0.58648(7) 0.98026(5) 0.81708(8)
O19_6 O 0.70482(18) 0.91749(13) 0.58644(19)
O20_6 O 0.84559(20) 0.91461(14) 0.3895(3)
H20_6 H 0.861746 0.940647 0.360216
H21_6 H 0.861296 0.907177 0.354246
O21_4 O 0.62496(18) 0.89050(14) 0.5667(2)
O22_6 O 0.79367(20) 0.96125(13) 0.5111(2)
H22_6 H 0.799448 0.978522 0.555523
H23_6 H 0.810318 0.975442 0.467213
O24_6 O 0.76007(18) 0.84726(13) 0.5086(2)
H24_6 H 0.783173 0.854699 0.543854
H25_6 H 0.739693 0.817109 0.518554
O26_6 O 0.69503(18) 0.95384(13) 0.4129(2)
H26_6 H 0.697959 0.953651 0.359693
H27_6 H 0.713009 0.984751 0.420123
O27_6 O 0.84422(22) 0.86245(16) 0.6059(3)
O28_4 O 0.55429(20) 0.78681(14) 0.4602(2)
H28_4 H 0.555073 0.761939 0.479767
H29_4 H 0.524263 0.773429 0.475327
O29_4 O 0.81376(25) 0.80494(19) 0.7184(4)
O30_6 O 0.87948(26) 0.8877(2) 0.7402(4)
O31_4 O 0.53854(25) 0.95010(19) 0.7866(4)
O33_4 O 0.58836(26) 0.9859(2) 0.9067(3)
O34_6 O 0.71248(16) 0.80867(11) 0.33586(18)
H30_6 H 0.703833 0.787738 0.360714
O35_6 O 0.74870(16) 0.90231(11) 0.37076(18)
H31_6 H 0.760680 0.924476 0.353704
O36_4 O 0.66572(16) 0.84771(11) 0.45481(18)
H32_4 H 0.656367 0.827052 0.479123
C15_6 C 0.71185(28) 0.85651(19) 0.7481(4)
H33_6 H 0.6795(28) 0.835(2) 0.752(3)
C16_6 C 0.7451(3) 0.8410(2) 0.7334(4)
H34_6 H 0.738(3) 0.812(2) 0.742(4)
C17_6 C 0.79321(26) 0.87472(19) 0.7180(3)
C18_6 C 0.80784(28) 0.9237(2) 0.7141(3)
H35_6 H 0.8380(28) 0.944(2) 0.706(3)
C19_6 C 0.77509(24) 0.93964(17) 0.7291(3)
C20_6 C 0.72606(24) 0.90556(17) 0.7474(3)
C21_6 C 0.68929(23) 0.92144(16) 0.7617(3)
C22_4 C 0.65924(24) 0.92288(17) 0.6985(3)
C23_4 C 0.62607(25) 0.93783(18) 0.7166(3)
H36_4 H 0.6045(25) 0.9419(17) 0.671(3)
C24_4 C 0.62256(24) 0.95284(17) 0.7955(3)
C25_4 C 0.65146(25) 0.95093(18) 0.8598(3)
H37_4 H 0.6489(25) 0.9578(18) 0.922(3)
C26_6 C 0.68373(28) 0.93489(19) 0.8419(3)
C27_6 C 0.79239(23) 0.99273(16) 0.7208(3)
C28_4 C 0.66328(25) 0.90885(18) 0.6103(3)
H38_6 H 0.6994(26) 0.9333(18) 0.879(3)
O37_4 O 0.76578(21) 0.77854(17) 0.2277(2)
O39_6 O 0.80676(19) 0.82099(16) 0.3410(2)
S1_4 S 0.49760(8) 0.81118(6) 0.97126(10)
S2_2 S 0.74686(7) 0.68640(5) 0.84958(8)
O11_4 O 0.51958(25) 0.86172(19) 0.9482(4)
O12_4 O 0.45386(26) 0.7789(2) 0.9264(4)
O13_2 O 0.79480(25) 0.71656(19) 0.8800(4)
O14_2 O 0.72185(23) 0.64012(17) 0.8914(3)
O15_2 O 0.74498(26) 0.6807(2) 0.7599(3)
C1_4 C 0.62149(28) 0.81015(19) 0.9185(4)
H14_4 H 0.6539(28) 0.831(2) 0.914(3)
C2_4 C 0.5883(3) 0.8256(2) 0.9332(4)
H15_4 H 0.596(3) 0.854(2) 0.924(4)
C3_4 C 0.54013(26) 0.79194(19) 0.9486(3)
C4_4 C 0.52550(28) 0.7429(2) 0.9525(3)
H16_4 H 0.4954(28) 0.722(2) 0.960(3)
C5_4 C 0.55825(24) 0.72702(17) 0.9375(3)
C6_4 C 0.60728(24) 0.76110(17) 0.9192(3)
C7_4 C 0.64405(23) 0.74522(16) 0.9049(3)
C8_2 C 0.67410(24) 0.74378(17) 0.9681(3)
C9_2 C 0.70727(25) 0.72883(18) 0.9500(3)
H17_2 H 0.7289(25) 0.7247(17) 0.995(3)
C10_2 C 0.71078(24) 0.71382(17) 0.8711(3)
C11_2 C 0.68188(25) 0.71573(18) 0.8068(3)
H18_2 H 0.6845(25) 0.7088(18) 0.744(3)
C12_4 C 0.64961(28) 0.73177(19) 0.8247(3)
C13_4 C 0.54095(23) 0.67393(16) 0.9458(3)
H19_4 H 0.6340(26) 0.7333(18) 0.787(3)
O14_3 O 0.02654(17) 0.41506(15) 0.2248(3)
Cu1_7 Cu 0.90785(2) 0.17965(2) 0.51975(3)
Cu4_10 Cu 0.833333 0.166667 0.666667
S1_5 S 0.85548(6) 0.01975(5) 0.30460(10)
S2_3 S 0.98026(5) 0.39379(5) 0.18292(8)
O1_7 O 0.91749(13) 0.21268(13) 0.41356(19)
O2_7 O 0.91461(14) 0.06903(14) 0.6105(3)
H1_7 H 0.940647 0.078902 0.639784
H2_7 H 0.907177 0.045882 0.645754
O3_5 O 0.89050(14) 0.26555(12) 0.4333(2)
O4_7 O 0.96125(13) 0.16759(15) 0.4889(2)
H3_7 H 0.978522 0.179075 0.444477
H4_7 H 0.975442 0.165125 0.532787
O6_7 O 0.84726(13) 0.08720(13) 0.4914(2)
H5_7 H 0.854699 0.071527 0.456146
H6_7 H 0.817109 0.077417 0.481446
O8_7 O 0.95384(13) 0.25882(13) 0.5871(2)
H7_7 H 0.953651 0.255693 0.640307
H8_7 H 0.984751 0.271743 0.579877
O9_7 O 0.86245(16) 0.01824(15) 0.3941(3)
O10_5 O 0.78681(14) 0.23253(14) 0.5398(2)
H9_5 H 0.761939 0.206867 0.520233
H10_5 H 0.773429 0.249167 0.524673
O12_5 O 0.8877(2) 0.00826(17) 0.2598(4)
O13_3 O 0.95010(19) 0.41157(17) 0.2134(4)
O15_3 O 0.9859(2) 0.39758(16) 0.0933(3)
O16_7 O 0.80867(11) 0.09620(11) 0.66414(18)
H11_7 H 0.787738 0.083906 0.639286
O17_7 O 0.90231(11) 0.15362(11) 0.62924(18)
H12_7 H 0.924476 0.163797 0.646296
O18_5 O 0.84771(11) 0.18200(11) 0.54519(18)
H13_5 H 0.827052 0.170686 0.520877
C1_5 C 0.85651(19) 0.1447(2) 0.2519(4)
H14_5 H 0.835(2) 0.1559(19) 0.248(3)
C2_5 C 0.8410(2) 0.0960(2) 0.2666(4)
H15_5 H 0.812(2) 0.075(2) 0.258(4)
C3_5 C 0.87472(19) 0.08152(18) 0.2820(3)
C4_5 C 0.9237(2) 0.11590(19) 0.2859(3)
H16_5 H 0.944(2) 0.1064(19) 0.294(3)
C5_5 C 0.93964(17) 0.16456(17) 0.2709(3)
C6_5 C 0.90556(17) 0.17951(17) 0.2526(3)
C7_5 C 0.92144(16) 0.23216(17) 0.2383(3)
C8_3 C 0.92288(17) 0.26365(17) 0.3015(3)
C9_3 C 0.93783(18) 0.31177(18) 0.2834(3)
H17_3 H 0.9419(17) 0.3375(18) 0.329(3)
C10_3 C 0.95284(17) 0.33029(17) 0.2045(3)
C11_3 C 0.95093(18) 0.29948(18) 0.1402(3)
H18_3 H 0.9578(18) 0.3090(18) 0.078(3)
C12_5 C 0.93489(19) 0.2512(2) 0.1581(3)
C13_5 C 0.99273(16) 0.20035(17) 0.2792(3)
C14_5 C 0.90885(18) 0.24558(17) 0.3897(3)
H19_5 H 0.9333(18) 0.2340(19) 0.121(3)
Cu5_7 Cu 0.75881(2) 0.15369(2) 0.81359(3)
O19_7 O 0.74917(13) 0.12066(13) 0.91978(19)
O20_7 O 0.75205(14) 0.26431(14) 0.7229(3)
H20_7 H 0.726019 0.254432 0.693550
H21_7 H 0.759489 0.287452 0.687580
O21_5 O 0.77616(14) 0.06779(12) 0.9001(2)
O22_7 O 0.70541(13) 0.16575(15) 0.8445(2)
H22_7 H 0.688144 0.154259 0.888857
H23_7 H 0.691224 0.168209 0.800547
O24_7 O 0.81940(13) 0.24614(13) 0.8420(2)
H24_7 H 0.811967 0.261807 0.877188
H25_7 H 0.849557 0.255917 0.851888
O26_7 O 0.71282(13) 0.07452(13) 0.7463(2)
H26_7 H 0.713015 0.077641 0.693027
H27_7 H 0.681915 0.061591 0.753457
O27_7 O 0.80421(16) 0.31510(15) 0.9393(3)
O28_5 O 0.87985(14) 0.10081(14) 0.7936(2)
H28_5 H 0.904727 0.126467 0.813101
H29_5 H 0.893237 0.084167 0.808661
O34_7 O 0.85799(11) 0.23714(11) 0.66920(18)
H30_7 H 0.878928 0.249428 0.694048
O35_7 O 0.76435(11) 0.17972(11) 0.70410(18)
H31_7 H 0.742190 0.169537 0.687038
O36_5 O 0.81895(11) 0.15134(11) 0.78815(18)
H32_5 H 0.839614 0.162648 0.812457
C28_5 C 0.75781(18) 0.08776(17) 0.9437(3)
Cu1_8 Cu 0.82035(2) 0.72821(3) 0.51975(3)
Cu4_11 Cu 0.833333 0.666667 0.666667
S1_6 S 0.98025(5) 0.83574(8) 0.30460(10)
S2_4 S 0.60621(5) 0.58648(7) 0.18292(8)
O1_8 O 0.78732(13) 0.70482(18) 0.41356(19)
O2_8 O 0.93097(14) 0.84559(20) 0.6105(3)
H1_8 H 0.921098 0.861746 0.639784
H2_8 H 0.954118 0.861296 0.645754
O3_6 O 0.73445(12) 0.62496(18) 0.4333(2)
O4_8 O 0.83241(15) 0.79367(20) 0.4889(2)
H3_8 H 0.820925 0.799448 0.444477
H4_8 H 0.834875 0.810318 0.532787
O6_8 O 0.91280(13) 0.76007(18) 0.4914(2)
H5_8 H 0.928473 0.783173 0.456146
H6_8 H 0.922583 0.739693 0.481446
O8_8 O 0.74118(13) 0.69503(18) 0.5871(2)
H7_8 H 0.744307 0.697959 0.640307
H8_8 H 0.728257 0.713009 0.579877
O9_8 O 0.98176(15) 0.84422(22) 0.3941(3)
O10_6 O 0.76747(14) 0.55429(20) 0.5398(2)
H9_6 H 0.793133 0.555073 0.520233
H10_6 H 0.750833 0.524263 0.524673
O12_6 O 0.99174(17) 0.87948(26) 0.2598(4)
O13_4 O 0.58843(17) 0.53854(25) 0.2134(4)
O14_4 O 0.58494(15) 0.61149(23) 0.2248(3)
O15_4 O 0.60242(16) 0.58836(26) 0.0933(3)
O16_8 O 0.90380(11) 0.71248(16) 0.66414(18)
H11_8 H 0.916094 0.703833 0.639286
O17_8 O 0.84638(11) 0.74870(16) 0.62924(18)
H12_8 H 0.836203 0.760680 0.646296
O18_6 O 0.81800(11) 0.66572(16) 0.54519(18)
H13_6 H 0.829314 0.656367 0.520877
C1_6 C 0.8553(2) 0.71185(28) 0.2519(4)
H14_6 H 0.8441(19) 0.6795(28) 0.248(3)
C2_6 C 0.9040(2) 0.7451(3) 0.2666(4)
H15_6 H 0.925(2) 0.738(3) 0.258(4)
C3_6 C 0.91848(18) 0.79321(26) 0.2820(3)
C4_6 C 0.88410(19) 0.80784(28) 0.2859(3)
H16_6 H 0.8936(19) 0.8380(28) 0.294(3)
C5_6 C 0.83544(17) 0.77509(24) 0.2709(3)
C6_6 C 0.82049(17) 0.72606(24) 0.2526(3)
C7_6 C 0.76784(17) 0.68929(23) 0.2383(3)
C8_4 C 0.73635(17) 0.65924(24) 0.3015(3)
C9_4 C 0.68823(18) 0.62607(25) 0.2834(3)
H17_4 H 0.6625(18) 0.6045(25) 0.329(3)
C10_4 C 0.66971(17) 0.62256(24) 0.2045(3)
C11_4 C 0.70052(18) 0.65146(25) 0.1402(3)
H18_4 H 0.6910(18) 0.6489(25) 0.078(3)
C12_6 C 0.7488(2) 0.68373(28) 0.1581(3)
C13_6 C 0.79965(17) 0.79239(23) 0.2792(3)
C14_6 C 0.75442(17) 0.66328(25) 0.3897(3)
H19_6 H 0.7660(19) 0.6994(26) 0.121(3)
Cu5_8 Cu 0.84631(2) 0.60513(3) 0.81359(3)
O19_8 O 0.87934(13) 0.62852(18) 0.91978(19)
O20_8 O 0.73569(14) 0.48775(20) 0.7229(3)
H20_8 H 0.745568 0.471588 0.693550
H21_8 H 0.712548 0.472038 0.687580
O21_6 O 0.93221(12) 0.70838(18) 0.9001(2)
O22_8 O 0.83425(15) 0.53967(20) 0.8445(2)
H22_8 H 0.845741 0.533886 0.888857
H23_8 H 0.831791 0.523016 0.800547
O24_8 O 0.75386(13) 0.57327(18) 0.8420(2)
H24_8 H 0.738193 0.550161 0.877188
H25_8 H 0.744083 0.593641 0.851888
O26_8 O 0.92548(13) 0.63831(18) 0.7463(2)
H26_8 H 0.922359 0.635375 0.693027
H27_8 H 0.938409 0.620325 0.753457
O27_8 O 0.68490(15) 0.48912(22) 0.9393(3)
O28_6 O 0.89919(14) 0.77905(20) 0.7936(2)
H28_6 H 0.873533 0.778261 0.813101
H29_6 H 0.915833 0.809071 0.808661
O34_8 O 0.76286(11) 0.62086(16) 0.66920(18)
H30_8 H 0.750572 0.629501 0.694048
O35_8 O 0.82028(11) 0.58464(16) 0.70410(18)
H31_8 H 0.830463 0.572654 0.687038
O36_6 O 0.84866(11) 0.66762(16) 0.78815(18)
H32_6 H 0.837352 0.676967 0.812457
C28_6 C 0.91224(17) 0.67006(25) 0.9437(3)
S3_7 S 0.50240(8) 0.18882(6) 0.02874(10)
S4_5 S 0.25314(7) 0.31360(5) 0.15042(8)
O29_5 O 0.48042(25) 0.13828(19) 0.0518(4)
O30_7 O 0.54614(26) 0.2211(2) 0.0736(4)
O31_5 O 0.20520(25) 0.28344(19) 0.1200(4)
O32_5 O 0.27815(23) 0.35988(17) 0.1086(3)
O33_5 O 0.25502(26) 0.3193(2) 0.2401(3)
C15_7 C 0.37851(28) 0.18985(19) 0.0815(4)
H33_7 H 0.3461(28) 0.169(2) 0.086(3)
C16_7 C 0.4117(3) 0.1744(2) 0.0668(4)
H34_7 H 0.404(3) 0.146(2) 0.076(4)
C17_7 C 0.45987(26) 0.20806(19) 0.0514(3)
C18_7 C 0.47450(28) 0.2571(2) 0.0475(3)
H35_7 H 0.5046(28) 0.278(2) 0.040(3)
C19_7 C 0.44175(24) 0.27298(17) 0.0625(3)
C20_7 C 0.39272(24) 0.23890(17) 0.0808(3)
C21_7 C 0.35595(23) 0.25478(16) 0.0951(3)
C22_5 C 0.32590(24) 0.25622(17) 0.0319(3)
C23_5 C 0.29273(25) 0.27117(18) 0.0500(3)
H36_5 H 0.2711(25) 0.2753(17) 0.005(3)
C24_5 C 0.28922(24) 0.28618(17) 0.1289(3)
C25_5 C 0.31812(25) 0.28427(18) 0.1932(3)
H37_5 H 0.3155(25) 0.2912(18) 0.256(3)
C26_7 C 0.35039(28) 0.26823(19) 0.1753(3)
C27_7 C 0.45905(23) 0.32607(16) 0.0542(3)
H38_7 H 0.3660(26) 0.2667(18) 0.213(3)
Cu1_9 Cu 0.27179(3) 0.09215(2) 0.51975(3)
Cu4_12 Cu 0.333333 0.166667 0.666667
S1_7 S 0.16426(8) 0.14452(6) 0.30460(10)
S2_5 S 0.41352(7) 0.01974(5) 0.18292(8)
O1_9 O 0.29518(18) 0.08251(13) 0.41356(19)
O2_9 O 0.15441(20) 0.08539(14) 0.6105(3)
H1_9 H 0.138254 0.059353 0.639784
H2_9 H 0.138704 0.092823 0.645754
O3_7 O 0.37504(18) 0.10950(14) 0.4333(2)
O4_9 O 0.20633(20) 0.03875(13) 0.4889(2)
H3_9 H 0.200552 0.021478 0.444477
H4_9 H 0.189682 0.024558 0.532787
O6_9 O 0.23993(18) 0.15274(13) 0.4914(2)
H5_9 H 0.216827 0.145301 0.456146
H6_9 H 0.260307 0.182891 0.481446
O8_9 O 0.30497(18) 0.04616(13) 0.5871(2)
H7_9 H 0.302041 0.046349 0.640307
H8_9 H 0.286991 0.015249 0.579877
O9_9 O 0.15578(22) 0.13755(16) 0.3941(3)
O10_7 O 0.44571(20) 0.21319(14) 0.5398(2)
H9_7 H 0.444927 0.238061 0.520233
H10_7 H 0.475737 0.226571 0.524673
O11_5 O 0.18624(25) 0.19506(19) 0.2816(4)
O12_7 O 0.12052(26) 0.1123(2) 0.2598(4)
O13_5 O 0.46146(25) 0.04990(19) 0.2134(4)
O15_5 O 0.41164(26) 0.0141(2) 0.0933(3)
O16_9 O 0.28752(16) 0.19133(11) 0.66414(18)
H11_9 H 0.296167 0.212262 0.639286
O17_9 O 0.25130(16) 0.09769(11) 0.62924(18)
H12_9 H 0.239320 0.075524 0.646296
O18_7 O 0.33428(16) 0.15229(11) 0.54519(18)
H13_7 H 0.343633 0.172948 0.520877
C1_7 C 0.28815(28) 0.14349(19) 0.2519(4)
H14_7 H 0.3205(28) 0.165(2) 0.248(3)
C2_7 C 0.2549(3) 0.1590(2) 0.2666(4)
H15_7 H 0.262(3) 0.188(2) 0.258(4)
C3_7 C 0.20679(26) 0.12528(19) 0.2820(3)
C4_7 C 0.19216(28) 0.0763(2) 0.2859(3)
H16_7 H 0.1620(28) 0.056(2) 0.294(3)
C5_7 C 0.22491(24) 0.06036(17) 0.2709(3)
C6_7 C 0.27394(24) 0.09444(17) 0.2526(3)
C7_7 C 0.31071(23) 0.07856(16) 0.2383(3)
C8_5 C 0.34076(24) 0.07712(17) 0.3015(3)
C9_5 C 0.37393(25) 0.06217(18) 0.2834(3)
H17_5 H 0.3955(25) 0.0581(17) 0.329(3)
C10_5 C 0.37744(24) 0.04716(17) 0.2045(3)
C11_5 C 0.34854(25) 0.04907(18) 0.1402(3)
H18_5 H 0.3511(25) 0.0422(18) 0.078(3)
C12_7 C 0.31627(28) 0.06511(19) 0.1581(3)
C13_7 C 0.20761(23) 0.00727(16) 0.2792(3)
C14_7 C 0.33672(25) 0.09115(18) 0.3897(3)
H19_7 H 0.3006(26) 0.0667(18) 0.121(3)
Cu5_9 Cu 0.39487(3) 0.24119(2) 0.81359(3)
O19_9 O 0.37148(18) 0.25083(13) 0.91978(19)
O20_9 O 0.51225(20) 0.24795(14) 0.7229(3)
H20_9 H 0.528412 0.273981 0.693550
H21_9 H 0.527962 0.240511 0.687580
O21_7 O 0.29162(18) 0.22384(14) 0.9001(2)
O22_9 O 0.46033(20) 0.29459(13) 0.8445(2)
H22_9 H 0.466114 0.311856 0.888857
H23_9 H 0.476984 0.308776 0.800547
O24_9 O 0.42673(18) 0.18060(13) 0.8420(2)
H24_9 H 0.449839 0.188033 0.877188
H25_9 H 0.406359 0.150443 0.851888
O26_9 O 0.36169(18) 0.28718(13) 0.7463(2)
H26_9 H 0.364625 0.286985 0.693027
H27_9 H 0.379675 0.318085 0.753457
O27_9 O 0.51088(22) 0.19579(16) 0.9393(3)
O28_7 O 0.22095(20) 0.12015(14) 0.7936(2)
H28_7 H 0.221739 0.095273 0.813101
H29_7 H 0.190929 0.106763 0.808661
O34_9 O 0.37914(16) 0.14201(11) 0.66920(18)
H30_9 H 0.370499 0.121072 0.694048
O35_9 O 0.41536(16) 0.23565(11) 0.70410(18)
H31_9 H 0.427346 0.257810 0.687038
O36_7 O 0.33238(16) 0.18105(11) 0.78815(18)
H32_7 H 0.323033 0.160386 0.812457
C28_7 C 0.32994(25) 0.24219(18) 0.9437(3)
O14_5 O 0.38851(23) 0.97346(17) 0.2248(3)
Cu4_13 Cu 0.500000 0.000000 0.000000
Cu6_2 Cu 0.58619(2) 0.04796(3) 0.11688(3)
S4_6 S 0.72712(5) 0.08019(7) 0.48375(8)
O21_8 O 0.59888(12) 0.04171(18) 0.2334(2)
O28_8 O 0.56586(14) 0.11238(20) 0.1269(2)
H28_8 H 0.540200 0.111594 0.146434
H29_8 H 0.582500 0.142404 0.141994
O31_6 O 0.74490(17) 0.12813(25) 0.4533(4)
O32_6 O 0.74839(15) 0.05518(23) 0.4419(3)
O33_6 O 0.73091(16) 0.07831(26) 0.5734(3)
O36_8 O 0.51533(11) 0.00095(16) 0.12148(18)
H32_8 H 0.504019 0.010300 0.145790
C22_6 C 0.59698(17) 0.00743(24) 0.3652(3)
C23_6 C 0.64510(18) 0.04060(25) 0.3833(3)
H36_6 H 0.6708(18) 0.0622(25) 0.338(3)
C24_6 C 0.66362(17) 0.04411(24) 0.4622(3)
C25_6 C 0.63281(18) 0.01521(25) 0.5265(3)
H37_6 H 0.6423(18) 0.0178(25) 0.589(3)
C28_8 C 0.57891(17) 0.00339(25) 0.2770(3)
O38_2 O 0.65391(12) 0.09912(21) 0.1057(2)
S3_8 S 0.81118(6) 0.31359(5) 0.02874(10)
O29_6 O 0.86172(19) 0.34215(17) 0.0518(4)
O30_8 O 0.7789(2) 0.32508(17) 0.0736(4)
C15_8 C 0.81015(19) 0.1887(2) 0.0815(4)
H33_8 H 0.831(2) 0.1775(19) 0.086(3)
C16_8 C 0.8256(2) 0.2374(2) 0.0668(4)
H34_8 H 0.854(2) 0.259(2) 0.076(4)
C17_8 C 0.79194(19) 0.25182(18) 0.0514(3)
C18_8 C 0.7429(2) 0.21744(19) 0.0475(3)
H35_8 H 0.722(2) 0.2270(19) 0.040(3)
C19_8 C 0.72702(17) 0.16878(17) 0.0625(3)
C20_8 C 0.76110(17) 0.15383(17) 0.0808(3)
C21_8 C 0.74522(16) 0.10118(17) 0.0951(3)
C22_7 C 0.74378(17) 0.06969(17) 0.0319(3)
C23_7 C 0.72883(18) 0.02157(18) 0.0500(3)
C24_7 C 0.71382(17) 0.00305(17) 0.1289(3)
C25_7 C 0.71573(18) 0.03386(18) 0.1932(3)
H37_7 H 0.7088(18) 0.0244(18) 0.256(3)
C26_8 C 0.73177(19) 0.0822(2) 0.1753(3)
C27_8 C 0.67393(16) 0.13299(17) 0.0542(3)
H38_8 H 0.7333(18) 0.0994(19) 0.213(3)
Cu2_5 Cu 0.41381(2) 0.95204(3) 0.88312(3)
Cu4_14 Cu 0.500000 1.000000 1.000000
S2_6 S 0.27288(5) 0.91981(7) 0.51625(8)
O3_8 O 0.40112(12) 0.95829(18) 0.7666(2)
O10_8 O 0.43414(14) 0.88762(20) 0.8731(2)
H9_8 H 0.459800 0.888406 0.853566
H10_8 H 0.417500 0.857596 0.858006
O13_6 O 0.25510(17) 0.87187(25) 0.5467(4)
O14_6 O 0.25161(15) 0.94482(23) 0.5581(3)
O15_6 O 0.26909(16) 0.92169(26) 0.4266(3)
O18_8 O 0.48467(11) 0.99905(16) 0.87852(18)
H13_8 H 0.495981 0.989700 0.854210
C8_6 C 0.40302(17) 0.99257(24) 0.6348(3)
C9_6 C 0.35490(18) 0.95940(25) 0.6167(3)
H17_6 H 0.3292(18) 0.9378(25) 0.662(3)
C10_6 C 0.33638(17) 0.95589(24) 0.5378(3)
C11_6 C 0.36719(18) 0.98479(25) 0.4735(3)
H18_6 H 0.3577(18) 0.9822(25) 0.411(3)
C14_8 C 0.42109(17) 0.99661(25) 0.7230(3)
O37_5 O 0.34609(12) 0.90088(21) 0.8943(2)
S1_8 S 0.18882(6) 0.68641(5) 0.97126(10)
O11_6 O 0.13828(19) 0.65785(17) 0.9482(4)
O12_8 O 0.2211(2) 0.67492(17) 0.9264(4)
C1_8 C 0.18985(19) 0.8113(2) 0.9185(4)
H14_8 H 0.169(2) 0.8225(19) 0.914(3)
C2_8 C 0.1744(2) 0.7626(2) 0.9332(4)
H15_8 H 0.146(2) 0.741(2) 0.924(4)
C3_8 C 0.20806(19) 0.74818(18) 0.9486(3)
C4_8 C 0.2571(2) 0.78256(19) 0.9525(3)
H16_8 H 0.278(2) 0.7730(19) 0.960(3)
C5_8 C 0.27298(17) 0.83122(17) 0.9375(3)
C6_8 C 0.23890(17) 0.84617(17) 0.9192(3)
C7_8 C 0.25478(16) 0.89882(17) 0.9049(3)
C8_7 C 0.25622(17) 0.93031(17) 0.9681(3)
C9_7 C 0.27117(18) 0.97843(18) 0.9500(3)
C10_7 C 0.28618(17) 0.99695(17) 0.8711(3)
C11_7 C 0.28427(18) 0.96614(18) 0.8068(3)
H18_7 H 0.2912(18) 0.9756(18) 0.744(3)
C12_8 C 0.26823(19) 0.9178(2) 0.8247(3)
C13_8 C 0.32607(16) 0.86701(17) 0.9458(3)
H19_8 H 0.2667(18) 0.9006(19) 0.787(3)
Cu2_6 Cu 0.04796(3) 0.46177(2) 0.88312(3)
Cu4_15 Cu -0.000000 0.500000 1.000000
S2_7 S 0.08019(7) 0.35307(5) 0.51625(8)
O3_9 O 0.04171(18) 0.44283(14) 0.7666(2)
O10_9 O 0.11238(20) 0.54652(14) 0.8731(2)
H9_9 H 0.111594 0.571394 0.853566
H10_9 H 0.142404 0.559904 0.858006
O13_7 O 0.12813(25) 0.38323(19) 0.5467(4)
O14_7 O 0.05518(23) 0.30679(17) 0.5581(3)
O15_7 O 0.07831(26) 0.3474(2) 0.4266(3)
O18_9 O 0.00095(16) 0.48562(11) 0.87852(18)
H13_9 H 0.010300 0.506281 0.854210
C8_8 C 0.00743(24) 0.41045(17) 0.6348(3)
C9_8 C 0.04060(25) 0.39550(18) 0.6167(3)
H17_7 H 0.0622(25) 0.3914(17) 0.662(3)
C10_8 C 0.04411(24) 0.38049(17) 0.5378(3)
C11_8 C 0.01521(25) 0.38240(18) 0.4735(3)
H18_8 H 0.0178(25) 0.3755(18) 0.411(3)
C14_9 C 0.00339(25) 0.42448(18) 0.7230(3)
O37_6 O 0.09912(21) 0.44520(17) 0.8943(2)
S1_9 S 0.31359(5) 0.50240(8) 0.97126(10)
O11_7 O 0.34215(17) 0.48042(25) 0.9482(4)
O12_9 O 0.32508(17) 0.54614(26) 0.9264(4)
C1_9 C 0.1887(2) 0.37851(28) 0.9185(4)
H14_9 H 0.1775(19) 0.3461(28) 0.914(3)
C2_9 C 0.2374(2) 0.4117(3) 0.9332(4)
H15_9 H 0.259(2) 0.404(3) 0.924(4)
C3_9 C 0.25182(18) 0.45987(26) 0.9486(3)
C4_9 C 0.21744(19) 0.47450(28) 0.9525(3)
H16_9 H 0.2270(19) 0.5046(28) 0.960(3)
C5_9 C 0.16878(17) 0.44175(24) 0.9375(3)
C6_9 C 0.15383(17) 0.39272(24) 0.9192(3)
C7_9 C 0.10118(17) 0.35595(23) 0.9049(3)
C8_9 C 0.06969(17) 0.32590(24) 0.9681(3)
C9_9 C 0.02157(18) 0.29273(25) 0.9500(3)
C10_9 C 0.00305(17) 0.28922(24) 0.8711(3)
C11_9 C 0.03386(18) 0.31812(25) 0.8068(3)
H18_9 H 0.0244(18) 0.3155(25) 0.744(3)
C12_9 C 0.0822(2) 0.35039(28) 0.8247(3)
C13_9 C 0.13299(17) 0.45905(23) 0.9458(3)
H19_9 H 0.0994(19) 0.3660(26) 0.787(3)
Cu4_16 Cu 1.000000 0.500000 0.000000
Cu6_3 Cu 0.95204(3) 0.53823(2) 0.11688(3)
S4_7 S 0.91981(7) 0.64693(5) 0.48375(8)
O21_9 O 0.95829(18) 0.55717(14) 0.2334(2)
O28_9 O 0.88762(20) 0.45348(14) 0.1269(2)
H28_9 H 0.888406 0.428606 0.146434
H29_9 H 0.857596 0.440096 0.141994
O31_7 O 0.87187(25) 0.61677(19) 0.4533(4)
O32_7 O 0.94482(23) 0.69321(17) 0.4419(3)
O33_7 O 0.92169(26) 0.6526(2) 0.5734(3)
O36_9 O 0.99905(16) 0.51438(11) 0.12148(18)
H32_9 H 0.989700 0.493719 0.145790
C22_8 C 0.99257(24) 0.58955(17) 0.3652(3)
C23_8 C 0.95940(25) 0.60450(18) 0.3833(3)
H36_7 H 0.9378(25) 0.6086(17) 0.338(3)
C24_8 C 0.95589(24) 0.61951(17) 0.4622(3)
C25_8 C 0.98479(25) 0.61760(18) 0.5265(3)
H37_8 H 0.9822(25) 0.6245(18) 0.589(3)
C28_9 C 0.99661(25) 0.57552(18) 0.2770(3)
O38_3 O 0.90088(21) 0.55480(17) 0.1057(2)
S3_9 S 0.68641(5) 0.49760(8) 0.02874(10)
O29_7 O 0.65785(17) 0.51958(25) 0.0518(4)
O30_9 O 0.67492(17) 0.45386(26) 0.0736(4)
C15_9 C 0.8113(2) 0.62149(28) 0.0815(4)
H33_9 H 0.8225(19) 0.6539(28) 0.086(3)
C16_9 C 0.7626(2) 0.5883(3) 0.0668(4)
H34_9 H 0.741(2) 0.596(3) 0.076(4)
C17_9 C 0.74818(18) 0.54013(26) 0.0514(3)
C18_9 C 0.78256(19) 0.52550(28) 0.0475(3)
H35_9 H 0.7730(19) 0.4954(28) 0.040(3)
C19_9 C 0.83122(17) 0.55825(24) 0.0625(3)
C20_9 C 0.84617(17) 0.60728(24) 0.0808(3)
C21_9 C 0.89882(17) 0.64405(23) 0.0951(3)
C22_9 C 0.93031(17) 0.67410(24) 0.0319(3)
C23_9 C 0.97843(18) 0.70727(25) 0.0500(3)
C24_9 C 0.99695(17) 0.71078(24) 0.1289(3)
C25_9 C 0.96614(18) 0.68188(25) 0.1932(3)
H37_9 H 0.9756(18) 0.6845(25) 0.256(3)
C26_9 C 0.9178(2) 0.64961(28) 0.1753(3)
C27_9 C 0.86701(17) 0.54095(23) 0.0542(3)
H38_9 H 0.9006(19) 0.6340(26) 0.213(3)
O29_8 O 0.19506(19) 0.00881(17) 0.7184(4)
S2_8 S 0.31360(5) 0.06045(5) 0.84958(8)
O13_8 O 0.28344(19) 0.07823(17) 0.8800(4)
O14_8 O 0.35988(17) 0.08172(15) 0.8914(3)
O15_8 O 0.3193(2) 0.06424(16) 0.7599(3)
H17_8 H 0.2753(17) 0.0041(18) 0.995(3)
O29_9 O 0.99119(17) 0.18624(25) 0.7184(4)
S2_9 S 0.93955(5) 0.25314(7) 0.84958(8)
O13_9 O 0.92177(17) 0.20520(25) 0.8800(4)
O14_9 O 0.91828(15) 0.27815(23) 0.8914(3)
O15_9 O 0.93576(16) 0.25502(26) 0.7599(3)
H17_9 H 0.9959(18) 0.2711(25) 0.995(3)
S4_8 S 0.68640(5) 0.93955(5) 0.15042(8)
O31_8 O 0.71656(19) 0.92177(17) 0.1200(4)
O32_8 O 0.64012(17) 0.91828(15) 0.1086(3)
O33_8 O 0.6807(2) 0.93576(16) 0.2401(3)
H36_8 H 0.7247(17) 0.9959(18) 0.005(3)
O11_8 O 0.80494(19) 0.99119(17) 0.2816(4)
S4_9 S 0.06045(5) 0.74686(7) 0.15042(8)
O31_9 O 0.07823(17) 0.79480(25) 0.1200(4)
O32_9 O 0.08172(15) 0.72185(23) 0.1086(3)
O33_9 O 0.06424(16) 0.74498(26) 0.2401(3)
H36_9 H 0.0041(18) 0.7289(25) 0.005(3)
O11_9 O 0.00881(17) 0.81376(25) 0.2816(4)
loop_
_geom_bond_atom_site_label_1
_geom_bond_atom_site_label_2
_geom_bond_site_symmetry_1
_geom_bond_site_symmetry_2
Cu5 O19 1_555 1_555
S3 O27 1_555 1_555
S4 O31 1_555 1_555
O19 C28 1_555 1_555
O20 Cu7 1_555 1_555
H20 O20 1_555 1_555
H21 O20 1_555 1_555
O21 Cu6 1_555 1_555
O22 Cu5 1_555 1_555
H22 O22 1_555 1_555
H23 O22 1_555 1_555
O23 C27 1_555 1_555
O24 Cu5 1_555 1_555
H24 O24 1_555 1_555
H25 O24 1_555 1_555
O25 C27 1_555 1_555
O26 Cu5 1_555 1_555
H26 O26 1_555 1_555
H27 O26 1_555 1_555
H28 O28 1_555 1_555
H29 O28 1_555 1_555
O29 S3 1_555 1_555
O30 S3 1_555 1_555
O32 S4 1_555 1_555
O33 S4 1_555 1_555
H30 O34 1_555 1_555
O35 Cu4 1_555 1_555
H31 O35 1_555 1_555
O36 Cu4 1_555 1_555
H32 O36 1_555 1_555
C15 H33 1_555 1_555
C16 C15 1_555 1_555
H34 C16 1_555 1_555
C17 S3 1_555 1_555
C18 C17 1_555 1_555
H35 C18 1_555 1_555
C19 C18 1_555 1_555
C20 C15 1_555 1_555
C21 C20 1_555 1_555
C22 C21 1_555 1_555
C23 C22 1_555 1_555
H36 C23 1_555 1_555
C24 S4 1_555 1_555
C25 C24 1_555 1_555
H37 C25 1_555 1_555
C26 C21 1_555 1_555
C27 C19 1_555 1_555
C28 O21 1_555 1_555
H38 C26 1_555 1_555
Cu9 O23 1_555 1_555
Cu10 O25 1_555 1_555
O38 Cu6 1_555 1_555
O39 Cu7 1_555 1_555
Cu4 O34 1_555 1_555
Cu5 O35 1_555 1_555
Cu5 O36 1_555 1_555
Cu6 O26 1_555 1_555
Cu6 O28 1_555 1_555
Cu6 O36 1_555 1_555
Cu7 O24 1_555 1_555
Cu7 O34 1_555 1_555
Cu7 O35 1_555 1_555
C16 C17 1_555 1_555
C19 C20 1_555 1_555
C22 C28 1_555 1_555
C23 C24 1_555 1_555
C25 C26 1_555 1_555
Cu1 O1 1_555 1_555
Cu2 O3 1_555 1_555
Cu3 O2 1_555 1_555
Cu4_2 O16 1_555 1_555
S1 O9 1_555 1_555
S2 O13 1_555 1_555
O1 C14 1_555 1_555
O2 H1 1_555 1_555
H2 O2 1_555 1_555
O3 C14 1_555 1_555
O4 Cu1 1_555 1_555
H3 O4 1_555 1_555
H4 O4 1_555 1_555
O5 C13 1_555 1_555
O6 Cu1 1_555 1_555
H5 O6 1_555 1_555
H6 O6 1_555 1_555
O7 C13 1_555 1_555
O8 Cu1 1_555 1_555
H7 O8 1_555 1_555
H8 O8 1_555 1_555
O10 Cu2 1_555 1_555
H9 O10 1_555 1_555
H10 O10 1_555 1_555
O11 S1 1_555 1_555
O12 S1 1_555 1_555
O14 S2 1_555 1_555
O15 S2 1_555 1_555
O16 Cu3 1_555 1_555
H11 O16 1_555 1_555
O17 Cu1 1_555 1_555
H12 O17 1_555 1_555
O18 Cu1 1_555 1_555
H13 O18 1_555 1_555
C1 H14 1_555 1_555
C2 C1 1_555 1_555
H15 C2 1_555 1_555
C3 S1 1_555 1_555
C4 C3 1_555 1_555
H16 C4 1_555 1_555
C5 C4 1_555 1_555
C6 C1 1_555 1_555
C7 C6 1_555 1_555
C8 C7 1_555 1_555
C9 C8 1_555 1_555
H17 C9 1_555 1_555
C10 S2 1_555 1_555
C11 C10 1_555 1_555
H18 C11 1_555 1_555
C12 C7 1_555 1_555
C13 C5 1_555 1_555
C14 C8 1_555 1_555
H19 C12 1_555 1_555
Cu8 O5 1_555 1_555
Cu11 O7 1_555 1_555
O37 Cu2 1_555 1_555
O40 Cu3 1_555 1_555
Cu2 O8 1_555 1_555
Cu2 O18 1_555 1_555
Cu3 O6 1_555 1_555
Cu3 O17 1_555 1_555
Cu4_2 O17 1_555 1_555
Cu4_2 O18 1_555 1_555
C2 C3 1_555 1_555
C5 C6 1_555 1_555
C9 C10 1_555 1_555
C11 C12 1_555 1_555
Cu1_2 O1_2 1_555 1_555
Cu3_2 O2_2 1_555 1_555
Cu4_3 O16_2 1_555 1_555
S1_2 O9_2 1_555 1_555
O2_2 H1_2 1_555 1_555
H2_2 O2_2 1_555 1_555
O4_2 Cu1_2 1_555 1_555
H3_2 O4_2 1_555 1_555
H4_2 O4_2 1_555 1_555
O5_2 C13_2 1_555 1_555
O6_2 Cu1_2 1_555 1_555
H5_2 O6_2 1_555 1_555
H6_2 O6_2 1_555 1_555
O7_2 C13_2 1_555 1_555
O8_2 Cu1_2 1_555 1_555
H7_2 O8_2 1_555 1_555
H8_2 O8_2 1_555 1_555
O11_2 S1_2 1_555 1_555
O12_2 S1_2 1_555 1_555
O16_2 Cu3_2 1_555 1_555
H11_2 O16_2 1_555 1_555
O17_2 Cu1_2 1_555 1_555
H12_2 O17_2 1_555 1_555
C1_2 H14_2 1_555 1_555
C2_2 C1_2 1_555 1_555
H15_2 C2_2 1_555 1_555
C3_2 S1_2 1_555 1_555
C4_2 C3_2 1_555 1_555
H16_2 C4_2 1_555 1_555
C5_2 C4_2 1_555 1_555
C6_2 C1_2 1_555 1_555
C7_2 C6_2 1_555 1_555
C12_2 C7_2 1_555 1_555
C13_2 C5_2 1_555 1_555
H19_2 C12_2 1_555 1_555
Cu8_2 O5_2 1_555 1_555
Cu11_2 O7_2 1_555 1_555
O40_2 Cu3_2 1_555 1_555
Cu3_2 O6_2 1_555 1_555
Cu3_2 O17_2 1_555 1_555
Cu4_3 O17_2 1_555 1_555
C2_2 C3_2 1_555 1_555
C5_2 C6_2 1_555 1_555
Cu5_2 O19_2 1_555 1_555
S3_2 O27_2 1_555 1_555
O20_2 Cu7_2 1_555 1_555
H20_2 O20_2 1_555 1_555
H21_2 O20_2 1_555 1_555
O22_2 Cu5_2 1_555 1_555
H22_2 O22_2 1_555 1_555
H23_2 O22_2 1_555 1_555
O23_2 C27_2 1_555 1_555
O24_2 Cu5_2 1_555 1_555
H24_2 O24_2 1_555 1_555
H25_2 O24_2 1_555 1_555
O25_2 C27_2 1_555 1_555
O26_2 Cu5_2 1_555 1_555
H26_2 O26_2 1_555 1_555
H27_2 O26_2 1_555 1_555
O29_2 S3_2 1_555 1_555
O30_2 S3_2 1_555 1_555
H30_2 O34_2 1_555 1_555
O35_2 Cu4_4 1_555 1_555
H31_2 O35_2 1_555 1_555
C15_2 H33_2 1_555 1_555
C16_2 C15_2 1_555 1_555
H34_2 C16_2 1_555 1_555
C17_2 S3_2 1_555 1_555
C18_2 C17_2 1_555 1_555
H35_2 C18_2 1_555 1_555
C19_2 C18_2 1_555 1_555
C20_2 C15_2 1_555 1_555
C21_2 C20_2 1_555 1_555
C26_2 C21_2 1_555 1_555
C27_2 C19_2 1_555 1_555
H38_2 C26_2 1_555 1_555
Cu9_2 O23_2 1_555 1_555
Cu10_2 O25_2 1_555 1_555
O39_2 Cu7_2 1_555 1_555
Cu4_4 O34_2 1_555 1_555
Cu5_2 O35_2 1_555 1_555
Cu7_2 O24_2 1_555 1_555
Cu7_2 O34_2 1_555 1_555
Cu7_2 O35_2 1_555 1_555
C16_2 C17_2 1_555 1_555
C19_2 C20_2 1_555 1_555
Cu5_3 O19_3 1_555 1_555
S3_3 O27_3 1_555 1_555
O20_3 Cu7_3 1_555 1_555
H20_3 O20_3 1_555 1_555
H21_3 O20_3 1_555 1_555
O22_3 Cu5_3 1_555 1_555
H22_3 O22_3 1_555 1_555
H23_3 O22_3 1_555 1_555
O23_3 C27_3 1_555 1_555
O24_3 Cu5_3 1_555 1_555
H24_3 O24_3 1_555 1_555
H25_3 O24_3 1_555 1_555
O25_3 C27_3 1_555 1_555
O26_3 Cu5_3 1_555 1_555
H26_3 O26_3 1_555 1_555
H27_3 O26_3 1_555 1_555
O29_3 S3_3 1_555 1_555
O30_3 S3_3 1_555 1_555
H30_3 O34_3 1_555 1_555
O35_3 Cu4_5 1_555 1_555
H31_3 O35_3 1_555 1_555
C15_3 H33_3 1_555 1_555
C16_3 C15_3 1_555 1_555
H34_3 C16_3 1_555 1_555
C17_3 S3_3 1_555 1_555
C18_3 C17_3 1_555 1_555
H35_3 C18_3 1_555 1_555
C19_3 C18_3 1_555 1_555
C20_3 C15_3 1_555 1_555
C21_3 C20_3 1_555 1_555
C26_3 C21_3 1_555 1_555
C27_3 C19_3 1_555 1_555
H38_3 C26_3 1_555 1_555
Cu9_3 O23_3 1_555 1_555
Cu10_3 O25_3 1_555 1_555
O39_3 Cu7_3 1_555 1_555
Cu4_5 O34_3 1_555 1_555
Cu5_3 O35_3 1_555 1_555
Cu7_3 O24_3 1_555 1_555
Cu7_3 O34_3 1_555 1_555
Cu7_3 O35_3 1_555 1_555
C16_3 C17_3 1_555 1_555
C19_3 C20_3 1_555 1_555
Cu1_3 O1_3 1_555 1_555
Cu3_3 O2_3 1_555 1_555
Cu4_6 O16_3 1_555 1_555
S1_3 O9_3 1_555 1_555
O2_3 H1_3 1_555 1_555
H2_3 O2_3 1_555 1_555
O4_3 Cu1_3 1_555 1_555
H3_3 O4_3 1_555 1_555
H4_3 O4_3 1_555 1_555
O5_3 C13_3 1_555 1_555
O6_3 Cu1_3 1_555 1_555
H5_3 O6_3 1_555 1_555
H6_3 O6_3 1_555 1_555
O7_3 C13_3 1_555 1_555
O8_3 Cu1_3 1_555 1_555
H7_3 O8_3 1_555 1_555
H8_3 O8_3 1_555 1_555
O11_3 S1_3 1_555 1_555
O12_3 S1_3 1_555 1_555
O16_3 Cu3_3 1_555 1_555
H11_3 O16_3 1_555 1_555
O17_3 Cu1_3 1_555 1_555
H12_3 O17_3 1_555 1_555
C1_3 H14_3 1_555 1_555
C2_3 C1_3 1_555 1_555
H15_3 C2_3 1_555 1_555
C3_3 S1_3 1_555 1_555
C4_3 C3_3 1_555 1_555
H16_3 C4_3 1_555 1_555
C5_3 C4_3 1_555 1_555
C6_3 C1_3 1_555 1_555
C7_3 C6_3 1_555 1_555
C12_3 C7_3 1_555 1_555
C13_3 C5_3 1_555 1_555
H19_3 C12_3 1_555 1_555
Cu8_3 O5_3 1_555 1_555
Cu11_3 O7_3 1_555 1_555
O40_3 Cu3_3 1_555 1_555
Cu3_3 O6_3 1_555 1_555
Cu3_3 O17_3 1_555 1_555
Cu4_6 O17_3 1_555 1_555
C2_3 C3_3 1_555 1_555
C5_3 C6_3 1_555 1_555
Cu1_4 O1_4 1_555 1_555
Cu2_2 O3_2 1_555 1_555
Cu10_3 O2_4 1_555 1_555
Cu4_7 O16_4 1_555 1_555
O1_4 C14_2 1_555 1_555
O2_4 H1_4 1_555 1_555
H2_4 O2_4 1_555 1_555
O3_2 C14_2 1_555 1_555
O4_4 Cu1_4 1_555 1_555
H3_4 O4_4 1_555 1_555
H4_4 O4_4 1_555 1_555
O6_4 Cu1_4 1_555 1_555
H5_4 O6_4 1_555 1_555
H6_4 O6_4 1_555 1_555
O8_4 Cu1_4 1_555 1_555
H7_4 O8_4 1_555 1_555
H8_4 O8_4 1_555 1_555
O10_2 Cu2_2 1_555 1_555
H9_2 O10_2 1_555 1_555
H10_2 O10_2 1_555 1_555
O16_4 Cu10_3 1_555 1_555
H11_4 O16_4 1_555 1_555
O17_4 Cu1_4 1_555 1_555
H12_4 O17_4 1_555 1_555
O18_2 Cu1_4 1_555 1_555
H13_2 O18_2 1_555 1_555
Cu5_4 O19_4 1_555 1_555
Cu9_3 O16_4 1_555 1_555
Cu7_4 O10_2 1_555 1_555
S3_4 O27_4 1_555 1_555
S4_2 O31_2 1_555 1_555
O19_4 C28_2 1_555 1_555
O20_4 Cu7_4 1_555 1_555
H20_4 O20_4 1_555 1_555
H21_4 O20_4 1_555 1_555
O21_2 Cu9_3 1_555 1_555
O22_4 Cu5_4 1_555 1_555
H22_4 O22_4 1_555 1_555
H23_4 O22_4 1_555 1_555
O24_4 Cu5_4 1_555 1_555
H24_4 O24_4 1_555 1_555
H25_4 O24_4 1_555 1_555
O26_4 Cu5_4 1_555 1_555
H26_4 O26_4 1_555 1_555
H27_4 O26_4 1_555 1_555
O28_2 Cu10_3 1_555 1_555
H28_2 O28_2 1_555 1_555
H29_2 O28_2 1_555 1_555
O30_4 S3_4 1_555 1_555
O33_2 S4_2 1_555 1_555
O34_4 Cu2_2 1_555 1_555
H30_4 O34_4 1_555 1_555
O35_4 Cu4_7 1_555 1_555
H31_4 O35_4 1_555 1_555
O36_2 Cu4_7 1_555 1_555
H32_2 O36_2 1_555 1_555
C15_4 H33_4 1_555 1_555
C16_4 C15_4 1_555 1_555
H34_4 C16_4 1_555 1_555
C17_4 S3_4 1_555 1_555
C18_4 C17_4 1_555 1_555
H35_4 C18_4 1_555 1_555
C19_4 C18_4 1_555 1_555
C20_4 C15_4 1_555 1_555
C21_4 C20_4 1_555 1_555
C22_2 C21_4 1_555 1_555
C23_2 C22_2 1_555 1_555
H36_2 C23_2 1_555 1_555
C24_2 S4_2 1_555 1_555
C25_2 C24_2 1_555 1_555
H37_2 C25_2 1_555 1_555
C26_4 C21_4 1_555 1_555
C27_4 C19_4 1_555 1_555
C28_2 O21_2 1_555 1_555
H38_4 C26_4 1_555 1_555
O37_2 Cu2_2 1_555 1_555
O39_4 Cu7_4 1_555 1_555
Cu2_2 O8_4 1_555 1_555
Cu2_2 O18_2 1_555 1_555
Cu10_3 O6_4 1_555 1_555
Cu10_3 O17_4 1_555 1_555
Cu4_7 O17_4 1_555 1_555
Cu4_7 O18_2 1_555 1_555
Cu4_7 O34_4 1_555 1_555
Cu5_4 O35_4 1_555 1_555
Cu5_4 O36_2 1_555 1_555
Cu9_3 O26_4 1_555 1_555
Cu9_3 O28_2 1_555 1_555
Cu9_3 O36_2 1_555 1_555
Cu7_4 O24_4 1_555 1_555
Cu7_4 O34_4 1_555 1_555
Cu7_4 O35_4 1_555 1_555
C16_4 C17_4 1_555 1_555
C19_4 C20_4 1_555 1_555
C22_2 C28_2 1_555 1_555
C23_2 C24_2 1_555 1_555
C25_2 C26_4 1_555 1_555
Cu9_4 O23_4 1_555 1_555
Cu10_4 O25_4 1_555 1_555
Cu1_5 O1_5 1_555 1_555
Cu2_3 O3_3 1_555 1_555
Cu10 O2_5 1_555 1_555
Cu4_8 O16_5 1_555 1_555
O1_5 C14_3 1_555 1_555
O2_5 H1_5 1_555 1_555
H2_5 O2_5 1_555 1_555
O3_3 C14_3 1_555 1_555
O4_5 Cu1_5 1_555 1_555
H3_5 O4_5 1_555 1_555
H4_5 O4_5 1_555 1_555
O6_5 Cu1_5 1_555 1_555
H5_5 O6_5 1_555 1_555
H6_5 O6_5 1_555 1_555
O8_5 Cu1_5 1_555 1_555
H7_5 O8_5 1_555 1_555
H8_5 O8_5 1_555 1_555
O10_3 Cu2_3 1_555 1_555
H9_3 O10_3 1_555 1_555
H10_3 O10_3 1_555 1_555
O16_5 Cu10 1_555 1_555
H11_5 O16_5 1_555 1_555
O17_5 Cu1_5 1_555 1_555
H12_5 O17_5 1_555 1_555
O18_3 Cu1_5 1_555 1_555
H13_3 O18_3 1_555 1_555
Cu5_5 O19_5 1_555 1_555
Cu9 O16_5 1_555 1_555
Cu7_5 O10_3 1_555 1_555
S3_5 O27_5 1_555 1_555
S4_3 O31_3 1_555 1_555
O19_5 C28_3 1_555 1_555
O20_5 Cu7_5 1_555 1_555
H20_5 O20_5 1_555 1_555
H21_5 O20_5 1_555 1_555
O21_3 Cu9 1_555 1_555
O22_5 Cu5_5 1_555 1_555
H22_5 O22_5 1_555 1_555
H23_5 O22_5 1_555 1_555
O23_5 C27_5 1_555 1_555
O24_5 Cu5_5 1_555 1_555
H24_5 O24_5 1_555 1_555
H25_5 O24_5 1_555 1_555
O25_5 C27_5 1_555 1_555
O26_5 Cu5_5 1_555 1_555
H26_5 O26_5 1_555 1_555
H27_5 O26_5 1_555 1_555
O28_3 Cu10 1_555 1_555
H28_3 O28_3 1_555 1_555
H29_3 O28_3 1_555 1_555
O30_5 S3_5 1_555 1_555
O32_3 S4_3 1_555 1_555
O33_3 S4_3 1_555 1_555
O34_5 Cu2_3 1_555 1_555
H30_5 O34_5 1_555 1_555
O35_5 Cu4_8 1_555 1_555
H31_5 O35_5 1_555 1_555
O36_3 Cu4_8 1_555 1_555
H32_3 O36_3 1_555 1_555
C15_5 H33_5 1_555 1_555
C16_5 C15_5 1_555 1_555
H34_5 C16_5 1_555 1_555
C17_5 S3_5 1_555 1_555
C18_5 C17_5 1_555 1_555
H35_5 C18_5 1_555 1_555
C19_5 C18_5 1_555 1_555
C20_5 C15_5 1_555 1_555
C21_5 C20_5 1_555 1_555
C22_3 C21_5 1_555 1_555
C23_3 C22_3 1_555 1_555
H36_3 C23_3 1_555 1_555
C24_3 S4_3 1_555 1_555
C25_3 C24_3 1_555 1_555
H37_3 C25_3 1_555 1_555
C26_5 C21_5 1_555 1_555
C27_5 C19_5 1_555 1_555
C28_3 O21_3 1_555 1_555
H38_5 C26_5 1_555 1_555
Cu9_5 O23_5 1_555 1_555
Cu10_5 O25_5 1_555 1_555
O37_3 Cu2_3 1_555 1_555
O39_5 Cu7_5 1_555 1_555
Cu2_3 O8_5 1_555 1_555
Cu2_3 O18_3 1_555 1_555
Cu10 O6_5 1_555 1_555
Cu10 O17_5 1_555 1_555
Cu4_8 O17_5 1_555 1_555
Cu4_8 O18_3 1_555 1_555
Cu4_8 O34_5 1_555 1_555
Cu5_5 O35_5 1_555 1_555
Cu5_5 O36_3 1_555 1_555
Cu9 O26_5 1_555 1_555
Cu9 O28_3 1_555 1_555
Cu9 O36_3 1_555 1_555
Cu7_5 O24_5 1_555 1_555
Cu7_5 O34_5 1_555 1_555
Cu7_5 O35_5 1_555 1_555
C16_5 C17_5 1_555 1_555
C19_5 C20_5 1_555 1_555
C22_3 C28_3 1_555 1_555
C23_3 C24_3 1_555 1_555
C25_3 C26_5 1_555 1_555
Cu9_6 O23_6 1_555 1_555
Cu10_6 O25_6 1_555 1_555
Cu1_6 O1_6 1_555 1_555
Cu2_4 O3_4 1_555 1_555
Cu10_2 O2_6 1_555 1_555
Cu4_9 O16_6 1_555 1_555
O1_6 C14_4 1_555 1_555
O2_6 H1_6 1_555 1_555
H2_6 O2_6 1_555 1_555
O3_4 C14_4 1_555 1_555
O4_6 Cu1_6 1_555 1_555
H3_6 O4_6 1_555 1_555
H4_6 O4_6 1_555 1_555
O6_6 Cu1_6 1_555 1_555
H5_6 O6_6 1_555 1_555
H6_6 O6_6 1_555 1_555
O8_6 Cu1_6 1_555 1_555
H7_6 O8_6 1_555 1_555
H8_6 O8_6 1_555 1_555
O10_4 Cu2_4 1_555 1_555
H9_4 O10_4 1_555 1_555
H10_4 O10_4 1_555 1_555
O16_6 Cu10_2 1_555 1_555
H11_6 O16_6 1_555 1_555
O17_6 Cu1_6 1_555 1_555
H12_6 O17_6 1_555 1_555
O18_4 Cu1_6 1_555 1_555
H13_4 O18_4 1_555 1_555
Cu5_6 O19_6 1_555 1_555
Cu9_2 O16_6 1_555 1_555
Cu7_6 O10_4 1_555 1_555
S3_6 O27_6 1_555 1_555
S4_4 O31_4 1_555 1_555
O19_6 C28_4 1_555 1_555
O20_6 Cu7_6 1_555 1_555
H20_6 O20_6 1_555 1_555
H21_6 O20_6 1_555 1_555
O21_4 Cu9_2 1_555 1_555
O22_6 Cu5_6 1_555 1_555
H22_6 O22_6 1_555 1_555
H23_6 O22_6 1_555 1_555
O24_6 Cu5_6 1_555 1_555
H24_6 O24_6 1_555 1_555
H25_6 O24_6 1_555 1_555
O26_6 Cu5_6 1_555 1_555
H26_6 O26_6 1_555 1_555
H27_6 O26_6 1_555 1_555
O28_4 Cu10_2 1_555 1_555
H28_4 O28_4 1_555 1_555
H29_4 O28_4 1_555 1_555
O29_4 S3_6 1_555 1_555
O30_6 S3_6 1_555 1_555
O33_4 S4_4 1_555 1_555
O34_6 Cu2_4 1_555 1_555
H30_6 O34_6 1_555 1_555
O35_6 Cu4_9 1_555 1_555
H31_6 O35_6 1_555 1_555
O36_4 Cu4_9 1_555 1_555
H32_4 O36_4 1_555 1_555
C15_6 H33_6 1_555 1_555
C16_6 C15_6 1_555 1_555
H34_6 C16_6 1_555 1_555
C17_6 S3_6 1_555 1_555
C18_6 C17_6 1_555 1_555
H35_6 C18_6 1_555 1_555
C19_6 C18_6 1_555 1_555
C20_6 C15_6 1_555 1_555
C21_6 C20_6 1_555 1_555
C22_4 C21_6 1_555 1_555
C23_4 C22_4 1_555 1_555
H36_4 C23_4 1_555 1_555
C24_4 S4_4 1_555 1_555
C25_4 C24_4 1_555 1_555
H37_4 C25_4 1_555 1_555
C26_6 C21_6 1_555 1_555
C27_6 C19_6 1_555 1_555
C28_4 O21_4 1_555 1_555
H38_6 C26_6 1_555 1_555
O37_4 Cu2_4 1_555 1_555
O39_6 Cu7_6 1_555 1_555
Cu2_4 O8_6 1_555 1_555
Cu2_4 O18_4 1_555 1_555
Cu10_2 O6_6 1_555 1_555
Cu10_2 O17_6 1_555 1_555
Cu4_9 O17_6 1_555 1_555
Cu4_9 O18_4 1_555 1_555
Cu4_9 O34_6 1_555 1_555
Cu5_6 O35_6 1_555 1_555
Cu5_6 O36_4 1_555 1_555
Cu9_2 O26_6 1_555 1_555
Cu9_2 O28_4 1_555 1_555
Cu9_2 O36_4 1_555 1_555
Cu7_6 O24_6 1_555 1_555
Cu7_6 O34_6 1_555 1_555
Cu7_6 O35_6 1_555 1_555
C16_6 C17_6 1_555 1_555
C19_6 C20_6 1_555 1_555
C22_4 C28_4 1_555 1_555
C23_4 C24_4 1_555 1_555
C25_4 C26_6 1_555 1_555
S2_2 O13_2 1_555 1_555
O37 C13_4 1_555 1_555
O11_4 S1_4 1_555 1_555
O12_4 S1_4 1_555 1_555
O14_2 S2_2 1_555 1_555
O15_2 S2_2 1_555 1_555
C1_4 H14_4 1_555 1_555
C2_4 C1_4 1_555 1_555
H15_4 C2_4 1_555 1_555
C3_4 S1_4 1_555 1_555
C4_4 C3_4 1_555 1_555
H16_4 C4_4 1_555 1_555
C5_4 C4_4 1_555 1_555
C6_4 C1_4 1_555 1_555
C7_4 C6_4 1_555 1_555
C8_2 C7_4 1_555 1_555
C9_2 C8_2 1_555 1_555
H17_2 C9_2 1_555 1_555
C10_2 S2_2 1_555 1_555
C11_2 C10_2 1_555 1_555
H18_2 C11_2 1_555 1_555
C12_4 C7_4 1_555 1_555
C13_4 C5_4 1_555 1_555
H19_4 C12_4 1_555 1_555
C2_4 C3_4 1_555 1_555
C5_4 C6_4 1_555 1_555
C9_2 C10_2 1_555 1_555
C11_2 C12_4 1_555 1_555
Cu1_7 O1_7 1_555 1_555
Cu8_3 O3_5 1_555 1_555
Cu10_6 O2_7 1_555 1_555
Cu4_10 O16_7 1_555 1_555
S1_5 O9_7 1_555 1_555
S2_3 O13_3 1_555 1_555
O1_7 C14_5 1_555 1_555
O2_7 H1_7 1_555 1_555
H2_7 O2_7 1_555 1_555
O3_5 C14_5 1_555 1_555
O4_7 Cu1_7 1_555 1_555
H3_7 O4_7 1_555 1_555
H4_7 O4_7 1_555 1_555
O6_7 Cu1_7 1_555 1_555
H5_7 O6_7 1_555 1_555
H6_7 O6_7 1_555 1_555
O8_7 Cu1_7 1_555 1_555
H7_7 O8_7 1_555 1_555
H8_7 O8_7 1_555 1_555
O10_5 Cu8_3 1_555 1_555
H9_5 O10_5 1_555 1_555
H10_5 O10_5 1_555 1_555
O12_5 S1_5 1_555 1_555
O15_3 S2_3 1_555 1_555
O16_7 Cu10_6 1_555 1_555
H11_7 O16_7 1_555 1_555
O17_7 Cu1_7 1_555 1_555
H12_7 O17_7 1_555 1_555
O18_5 Cu1_7 1_555 1_555
H13_5 O18_5 1_555 1_555
C1_5 H14_5 1_555 1_555
C2_5 C1_5 1_555 1_555
H15_5 C2_5 1_555 1_555
C3_5 S1_5 1_555 1_555
C4_5 C3_5 1_555 1_555
H16_5 C4_5 1_555 1_555
C5_5 C4_5 1_555 1_555
C6_5 C1_5 1_555 1_555
C7_5 C6_5 1_555 1_555
C8_3 C7_5 1_555 1_555
C9_3 C8_3 1_555 1_555
H17_3 C9_3 1_555 1_555
C10_3 S2_3 1_555 1_555
C11_3 C10_3 1_555 1_555
H18_3 C11_3 1_555 1_555
C12_5 C7_5 1_555 1_555
C13_5 C5_5 1_555 1_555
C14_5 C8_3 1_555 1_555
H19_5 C12_5 1_555 1_555
Cu5_7 O19_7 1_555 1_555
Cu9_6 O16_7 1_555 1_555
Cu11_3 O10_5 1_555 1_555
O19_7 C28_5 1_555 1_555
O20_7 Cu11_3 1_555 1_555
H20_7 O20_7 1_555 1_555
H21_7 O20_7 1_555 1_555
O21_5 Cu9_6 1_555 1_555
O22_7 Cu5_7 1_555 1_555
H22_7 O22_7 1_555 1_555
H23_7 O22_7 1_555 1_555
O24_7 Cu5_7 1_555 1_555
H24_7 O24_7 1_555 1_555
H25_7 O24_7 1_555 1_555
O26_7 Cu5_7 1_555 1_555
H26_7 O26_7 1_555 1_555
H27_7 O26_7 1_555 1_555
O28_5 Cu10_6 1_555 1_555
H28_5 O28_5 1_555 1_555
H29_5 O28_5 1_555 1_555
O34_7 Cu8_3 1_555 1_555
H30_7 O34_7 1_555 1_555
O35_7 Cu4_10 1_555 1_555
H31_7 O35_7 1_555 1_555
O36_5 Cu4_10 1_555 1_555
H32_5 O36_5 1_555 1_555
C28_5 O21_5 1_555 1_555
Cu8_3 O8_7 1_555 1_555
Cu8_3 O18_5 1_555 1_555
Cu10_6 O6_7 1_555 1_555
Cu10_6 O17_7 1_555 1_555
Cu4_10 O17_7 1_555 1_555
Cu4_10 O18_5 1_555 1_555
Cu4_10 O34_7 1_555 1_555
C2_5 C3_5 1_555 1_555
C5_5 C6_5 1_555 1_555
C9_3 C10_3 1_555 1_555
C11_3 C12_5 1_555 1_555
Cu5_7 O35_7 1_555 1_555
Cu5_7 O36_5 1_555 1_555
Cu9_6 O26_7 1_555 1_555
Cu9_6 O28_5 1_555 1_555
Cu9_6 O36_5 1_555 1_555
Cu11_3 O24_7 1_555 1_555
Cu11_3 O34_7 1_555 1_555
Cu11_3 O35_7 1_555 1_555
Cu1_8 O1_8 1_555 1_555
Cu8 O3_6 1_555 1_555
Cu10_4 O2_8 1_555 1_555
Cu4_11 O16_8 1_555 1_555
S1_6 O9_8 1_555 1_555
S2_4 O13_4 1_555 1_555
O1_8 C14_6 1_555 1_555
O2_8 H1_8 1_555 1_555
H2_8 O2_8 1_555 1_555
O3_6 C14_6 1_555 1_555
O4_8 Cu1_8 1_555 1_555
H3_8 O4_8 1_555 1_555
H4_8 O4_8 1_555 1_555
O37_4 C13_6 1_555 1_555
O6_8 Cu1_8 1_555 1_555
H5_8 O6_8 1_555 1_555
H6_8 O6_8 1_555 1_555
O39_6 C13_6 1_555 1_555
O8_8 Cu1_8 1_555 1_555
H7_8 O8_8 1_555 1_555
H8_8 O8_8 1_555 1_555
O10_6 Cu8 1_555 1_555
H9_6 O10_6 1_555 1_555
H10_6 O10_6 1_555 1_555
O12_6 S1_6 1_555 1_555
O14_4 S2_4 1_555 1_555
O15_4 S2_4 1_555 1_555
O16_8 Cu10_4 1_555 1_555
H11_8 O16_8 1_555 1_555
O17_8 Cu1_8 1_555 1_555
H12_8 O17_8 1_555 1_555
O18_6 Cu1_8 1_555 1_555
H13_6 O18_6 1_555 1_555
C1_6 H14_6 1_555 1_555
C2_6 C1_6 1_555 1_555
H15_6 C2_6 1_555 1_555
C3_6 S1_6 1_555 1_555
C4_6 C3_6 1_555 1_555
H16_6 C4_6 1_555 1_555
C5_6 C4_6 1_555 1_555
C6_6 C1_6 1_555 1_555
C7_6 C6_6 1_555 1_555
C8_4 C7_6 1_555 1_555
C9_4 C8_4 1_555 1_555
H17_4 C9_4 1_555 1_555
C10_4 S2_4 1_555 1_555
C11_4 C10_4 1_555 1_555
H18_4 C11_4 1_555 1_555
C12_6 C7_6 1_555 1_555
C13_6 C5_6 1_555 1_555
C14_6 C8_4 1_555 1_555
H19_6 C12_6 1_555 1_555
Cu5_8 O19_8 1_555 1_555
Cu9_4 O16_8 1_555 1_555
Cu11 O10_6 1_555 1_555
O19_8 C28_6 1_555 1_555
O20_8 Cu11 1_555 1_555
H20_8 O20_8 1_555 1_555
H21_8 O20_8 1_555 1_555
O21_6 Cu9_4 1_555 1_555
O22_8 Cu5_8 1_555 1_555
H22_8 O22_8 1_555 1_555
H23_8 O22_8 1_555 1_555
O24_8 Cu5_8 1_555 1_555
H24_8 O24_8 1_555 1_555
H25_8 O24_8 1_555 1_555
O26_8 Cu5_8 1_555 1_555
H26_8 O26_8 1_555 1_555
H27_8 O26_8 1_555 1_555
O28_6 Cu10_4 1_555 1_555
H28_6 O28_6 1_555 1_555
H29_6 O28_6 1_555 1_555
O34_8 Cu8 1_555 1_555
H30_8 O34_8 1_555 1_555
O35_8 Cu4_11 1_555 1_555
H31_8 O35_8 1_555 1_555
O36_6 Cu4_11 1_555 1_555
H32_6 O36_6 1_555 1_555
C28_6 O21_6 1_555 1_555
Cu8 O8_8 1_555 1_555
Cu8 O18_6 1_555 1_555
Cu10_4 O6_8 1_555 1_555
Cu10_4 O17_8 1_555 1_555
Cu4_11 O17_8 1_555 1_555
Cu4_11 O18_6 1_555 1_555
Cu4_11 O34_8 1_555 1_555
C2_6 C3_6 1_555 1_555
C5_6 C6_6 1_555 1_555
C9_4 C10_4 1_555 1_555
C11_4 C12_6 1_555 1_555
Cu5_8 O35_8 1_555 1_555
Cu5_8 O36_6 1_555 1_555
Cu9_4 O26_8 1_555 1_555
Cu9_4 O28_6 1_555 1_555
Cu9_4 O36_6 1_555 1_555
Cu11 O24_8 1_555 1_555
Cu11 O34_8 1_555 1_555
Cu11 O35_8 1_555 1_555
S4_5 O31_5 1_555 1_555
O38 C27_7 1_555 1_555
O29_5 S3_7 1_555 1_555
O30_7 S3_7 1_555 1_555
O32_5 S4_5 1_555 1_555
O33_5 S4_5 1_555 1_555
C15_7 H33_7 1_555 1_555
C16_7 C15_7 1_555 1_555
H34_7 C16_7 1_555 1_555
C17_7 S3_7 1_555 1_555
C18_7 C17_7 1_555 1_555
H35_7 C18_7 1_555 1_555
C19_7 C18_7 1_555 1_555
C20_7 C15_7 1_555 1_555
C21_7 C20_7 1_555 1_555
C22_5 C21_7 1_555 1_555
C23_5 C22_5 1_555 1_555
H36_5 C23_5 1_555 1_555
C24_5 S4_5 1_555 1_555
C25_5 C24_5 1_555 1_555
H37_5 C25_5 1_555 1_555
C26_7 C21_7 1_555 1_555
C27_7 C19_7 1_555 1_555
H38_7 C26_7 1_555 1_555
C16_7 C17_7 1_555 1_555
C19_7 C20_7 1_555 1_555
C23_5 C24_5 1_555 1_555
C25_5 C26_7 1_555 1_555
Cu1_9 O1_9 1_555 1_555
Cu8_2 O3_7 1_555 1_555
Cu10_5 O2_9 1_555 1_555
Cu4_12 O16_9 1_555 1_555
S1_7 O9_9 1_555 1_555
S2_5 O13_5 1_555 1_555
O1_9 C14_7 1_555 1_555
O2_9 H1_9 1_555 1_555
H2_9 O2_9 1_555 1_555
O3_7 C14_7 1_555 1_555
O4_9 Cu1_9 1_555 1_555
H3_9 O4_9 1_555 1_555
H4_9 O4_9 1_555 1_555
O6_9 Cu1_9 1_555 1_555
H5_9 O6_9 1_555 1_555
H6_9 O6_9 1_555 1_555
O8_9 Cu1_9 1_555 1_555
H7_9 O8_9 1_555 1_555
H8_9 O8_9 1_555 1_555
O10_7 Cu8_2 1_555 1_555
H9_7 O10_7 1_555 1_555
H10_7 O10_7 1_555 1_555
O11_5 S1_7 1_555 1_555
O12_7 S1_7 1_555 1_555
O15_5 S2_5 1_555 1_555
O16_9 Cu10_5 1_555 1_555
H11_9 O16_9 1_555 1_555
O17_9 Cu1_9 1_555 1_555
H12_9 O17_9 1_555 1_555
O18_7 Cu1_9 1_555 1_555
H13_7 O18_7 1_555 1_555
C1_7 H14_7 1_555 1_555
C2_7 C1_7 1_555 1_555
H15_7 C2_7 1_555 1_555
C3_7 S1_7 1_555 1_555
C4_7 C3_7 1_555 1_555
H16_7 C4_7 1_555 1_555
C5_7 C4_7 1_555 1_555
C6_7 C1_7 1_555 1_555
C7_7 C6_7 1_555 1_555
C8_5 C7_7 1_555 1_555
C9_5 C8_5 1_555 1_555
H17_5 C9_5 1_555 1_555
C10_5 S2_5 1_555 1_555
C11_5 C10_5 1_555 1_555
H18_5 C11_5 1_555 1_555
C12_7 C7_7 1_555 1_555
C13_7 C5_7 1_555 1_555
C14_7 C8_5 1_555 1_555
H19_7 C12_7 1_555 1_555
Cu5_9 O19_9 1_555 1_555
Cu9_5 O16_9 1_555 1_555
Cu11_2 O10_7 1_555 1_555
O19_9 C28_7 1_555 1_555
O20_9 Cu11_2 1_555 1_555
H20_9 O20_9 1_555 1_555
H21_9 O20_9 1_555 1_555
O21_7 Cu9_5 1_555 1_555
O22_9 Cu5_9 1_555 1_555
H22_9 O22_9 1_555 1_555
H23_9 O22_9 1_555 1_555
O24_9 Cu5_9 1_555 1_555
H24_9 O24_9 1_555 1_555
H25_9 O24_9 1_555 1_555
O26_9 Cu5_9 1_555 1_555
H26_9 O26_9 1_555 1_555
H27_9 O26_9 1_555 1_555
O28_7 Cu10_5 1_555 1_555
H28_7 O28_7 1_555 1_555
H29_7 O28_7 1_555 1_555
O34_9 Cu8_2 1_555 1_555
H30_9 O34_9 1_555 1_555
O35_9 Cu4_12 1_555 1_555
H31_9 O35_9 1_555 1_555
O36_7 Cu4_12 1_555 1_555
H32_7 O36_7 1_555 1_555
C28_7 O21_7 1_555 1_555
Cu8_2 O8_9 1_555 1_555
Cu8_2 O18_7 1_555 1_555
Cu10_5 O6_9 1_555 1_555
Cu10_5 O17_9 1_555 1_555
Cu4_12 O17_9 1_555 1_555
Cu4_12 O18_7 1_555 1_555
Cu4_12 O34_9 1_555 1_555
C2_7 C3_7 1_555 1_555
C5_7 C6_7 1_555 1_555
C9_5 C10_5 1_555 1_555
C11_5 C12_7 1_555 1_555
Cu5_9 O35_9 1_555 1_555
Cu5_9 O36_7 1_555 1_555
Cu9_5 O26_9 1_555 1_555
Cu9_5 O28_7 1_555 1_555
Cu9_5 O36_7 1_555 1_555
Cu11_2 O24_9 1_555 1_555
Cu11_2 O34_9 1_555 1_555
Cu11_2 O35_9 1_555 1_555
S4_6 O31_6 1_555 1_555
O21_8 Cu6_2 1_555 1_555
H28_8 O28_8 1_555 1_555
H29_8 O28_8 1_555 1_555
O32_6 S4_6 1_555 1_555
O33_6 S4_6 1_555 1_555
O36_8 Cu4_13 1_555 1_555
H32_8 O36_8 1_555 1_555
C23_6 C22_6 1_555 1_555
H36_6 C23_6 1_555 1_555
C24_6 S4_6 1_555 1_555
C25_6 C24_6 1_555 1_555
H37_6 C25_6 1_555 1_555
C28_8 O21_8 1_555 1_555
O38_2 Cu6_2 1_555 1_555
Cu6_2 O28_8 1_555 1_555
Cu6_2 O36_8 1_555 1_555
C22_6 C28_8 1_555 1_555
C23_6 C24_6 1_555 1_555
O38_2 C27_8 1_555 1_555
O29_6 S3_8 1_555 1_555
O30_8 S3_8 1_555 1_555
C15_8 H33_8 1_555 1_555
C16_8 C15_8 1_555 1_555
H34_8 C16_8 1_555 1_555
C17_8 S3_8 1_555 1_555
C18_8 C17_8 1_555 1_555
H35_8 C18_8 1_555 1_555
C19_8 C18_8 1_555 1_555
C20_8 C15_8 1_555 1_555
C21_8 C20_8 1_555 1_555
C22_7 C21_8 1_555 1_555
C23_7 C22_7 1_555 1_555
C25_7 C24_7 1_555 1_555
H37_7 C25_7 1_555 1_555
C26_8 C21_8 1_555 1_555
C27_8 C19_8 1_555 1_555
H38_8 C26_8 1_555 1_555
C16_8 C17_8 1_555 1_555
C19_8 C20_8 1_555 1_555
C23_7 C24_7 1_555 1_555
C25_7 C26_8 1_555 1_555
Cu2_5 O3_8 1_555 1_555
S2_6 O13_6 1_555 1_555
O3_8 C14_8 1_555 1_555
O10_8 Cu2_5 1_555 1_555
H9_8 O10_8 1_555 1_555
H10_8 O10_8 1_555 1_555
O14_6 S2_6 1_555 1_555
O15_6 S2_6 1_555 1_555
H13_8 O18_8 1_555 1_555
C9_6 C8_6 1_555 1_555
H17_6 C9_6 1_555 1_555
C10_6 S2_6 1_555 1_555
C11_6 C10_6 1_555 1_555
H18_6 C11_6 1_555 1_555
C14_8 C8_6 1_555 1_555
O37_5 Cu2_5 1_555 1_555
Cu2_5 O18_8 1_555 1_555
Cu4_14 O18_8 1_555 1_555
C9_6 C10_6 1_555 1_555
O37_5 C13_8 1_555 1_555
O11_6 S1_8 1_555 1_555
O12_8 S1_8 1_555 1_555
C1_8 H14_8 1_555 1_555
C2_8 C1_8 1_555 1_555
H15_8 C2_8 1_555 1_555
C3_8 S1_8 1_555 1_555
C4_8 C3_8 1_555 1_555
H16_8 C4_8 1_555 1_555
C5_8 C4_8 1_555 1_555
C6_8 C1_8 1_555 1_555
C7_8 C6_8 1_555 1_555
C8_7 C7_8 1_555 1_555
C9_7 C8_7 1_555 1_555
C11_7 C10_7 1_555 1_555
H18_7 C11_7 1_555 1_555
C12_8 C7_8 1_555 1_555
C13_8 C5_8 1_555 1_555
H19_8 C12_8 1_555 1_555
C2_8 C3_8 1_555 1_555
C5_8 C6_8 1_555 1_555
C9_7 C10_7 1_555 1_555
C11_7 C12_8 1_555 1_555
Cu2_6 O3_9 1_555 1_555
S2_7 O13_7 1_555 1_555
O3_9 C14_9 1_555 1_555
O10_9 Cu2_6 1_555 1_555
H9_9 O10_9 1_555 1_555
H10_9 O10_9 1_555 1_555
O14_7 S2_7 1_555 1_555
O15_7 S2_7 1_555 1_555
H13_9 O18_9 1_555 1_555
C9_8 C8_8 1_555 1_555
H17_7 C9_8 1_555 1_555
C10_8 S2_7 1_555 1_555
C11_8 C10_8 1_555 1_555
H18_8 C11_8 1_555 1_555
C14_9 C8_8 1_555 1_555
O37_6 Cu2_6 1_555 1_555
Cu2_6 O18_9 1_555 1_555
Cu4_15 O18_9 1_555 1_555
C9_8 C10_8 1_555 1_555
O37_6 C13_9 1_555 1_555
O11_7 S1_9 1_555 1_555
O12_9 S1_9 1_555 1_555
C1_9 H14_9 1_555 1_555
C2_9 C1_9 1_555 1_555
H15_9 C2_9 1_555 1_555
C3_9 S1_9 1_555 1_555
C4_9 C3_9 1_555 1_555
H16_9 C4_9 1_555 1_555
C5_9 C4_9 1_555 1_555
C6_9 C1_9 1_555 1_555
C7_9 C6_9 1_555 1_555
C8_9 C7_9 1_555 1_555
C9_9 C8_9 1_555 1_555
C11_9 C10_9 1_555 1_555
H18_9 C11_9 1_555 1_555
C12_9 C7_9 1_555 1_555
C13_9 C5_9 1_555 1_555
H19_9 C12_9 1_555 1_555
C2_9 C3_9 1_555 1_555
C5_9 C6_9 1_555 1_555
C9_9 C10_9 1_555 1_555
C11_9 C12_9 1_555 1_555
S4_7 O31_7 1_555 1_555
O21_9 Cu6_3 1_555 1_555
H28_9 O28_9 1_555 1_555
H29_9 O28_9 1_555 1_555
O32_7 S4_7 1_555 1_555
O33_7 S4_7 1_555 1_555
O36_9 Cu4_16 1_555 1_555
H32_9 O36_9 1_555 1_555
C23_8 C22_8 1_555 1_555
H36_7 C23_8 1_555 1_555
C24_8 S4_7 1_555 1_555
C25_8 C24_8 1_555 1_555
H37_8 C25_8 1_555 1_555
C28_9 O21_9 1_555 1_555
O38_3 Cu6_3 1_555 1_555
Cu6_3 O28_9 1_555 1_555
Cu6_3 O36_9 1_555 1_555
C22_8 C28_9 1_555 1_555
C23_8 C24_8 1_555 1_555
O38_3 C27_9 1_555 1_555
O29_7 S3_9 1_555 1_555
O30_9 S3_9 1_555 1_555
C15_9 H33_9 1_555 1_555
C16_9 C15_9 1_555 1_555
H34_9 C16_9 1_555 1_555
C17_9 S3_9 1_555 1_555
C18_9 C17_9 1_555 1_555
H35_9 C18_9 1_555 1_555
C19_9 C18_9 1_555 1_555
C20_9 C15_9 1_555 1_555
C21_9 C20_9 1_555 1_555
C22_9 C21_9 1_555 1_555
C23_9 C22_9 1_555 1_555
C25_9 C24_9 1_555 1_555
H37_9 C25_9 1_555 1_555
C26_9 C21_9 1_555 1_555
C27_9 C19_9 1_555 1_555
H38_9 C26_9 1_555 1_555
C16_9 C17_9 1_555 1_555
C19_9 C20_9 1_555 1_555
C23_9 C24_9 1_555 1_555
C25_9 C26_9 1_555 1_555
S2_8 O13_8 1_555 1_555
O14_8 S2_8 1_555 1_555
O15_8 S2_8 1_555 1_555
S2_9 O13_9 1_555 1_555
O14_9 S2_9 1_555 1_555
O15_9 S2_9 1_555 1_555
S4_8 O31_8 1_555 1_555
O32_8 S4_8 1_555 1_555
O33_8 S4_8 1_555 1_555
S4_9 O31_9 1_555 1_555
O32_9 S4_9 1_555 1_555
O33_9 S4_9 1_555 1_555

#END
