
###############################################################################
#
# This file contains modified crystal structure data generated from the
# MOF subset of the Cambridge Structural Database (CSD) v543 
# hosted by the Cambridge Crystallographic Data Centre (CCDC).
#
# This work is licensed under the Creative Commons
# Attribution-NonCommercial-ShareAlike 4.0 International License.
# To view a copy of this license, visit
# http://creativecommons.org/licenses/by-nc-sa/4.0/
# or send a letter to
# Creative Commons, PO Box 1866, Mountain View, CA 94042, USA.
#
# CIF created using the CSD Python API on 29 September 2022
# The structure has been converted into the P1 space group
# The structure has a 3D framework
# The original CSD entry HOZQAR is in the rhombohedral crystal system
# The framework has been calculated to contain at least 10.0% void space
# The void calculation uses a probe of radius 1.32A, grid spacing 0.4
# H atom positions have been added when not included in the experimental data
#
###############################################################################

data_HOZQAR
_chemical_formula_moiety         '(C648 H324 O358 Sc70)n'
_symmetry_cell_setting           triclinic
_symmetry_space_group_name_H-M   'P 1'
_symmetry_Int_Tables_number      1
_space_group_name_Hall           'P 1'
loop_
_symmetry_equiv_pos_site_id
_symmetry_equiv_pos_as_xyz
1 x,y,z
_cell_length_a                   32.4893(14)
_cell_length_b                   32.4893(14)
_cell_length_c                   34.380(3)
_cell_angle_alpha                90
_cell_angle_beta                 90
_cell_angle_gamma                120
_cell_volume                     31428
loop_
_atom_site_label
_atom_site_type_symbol
_atom_site_fract_x
_atom_site_fract_y
_atom_site_fract_z
Sc18 Sc 0.556367(13) -0.000001(18) 0.2500
Sc31 Sc 0.468371(10) 0.010599(14) 0.200114(9)
Sc13 Sc 0.443633(13) -0.000001(18) 0.7500
Sc21 Sc 0.542227(10) 0.010599(14) 0.700114(9)
O63 O 0.50565(5) 0.00000(7) 0.7500
O64 O 0.52086(5) 0.03923(7) 0.83017(4)
O81 O 0.60234(8) 0.04216(6) 0.78677(4)
Sc1 Sc 0.223034(13) 0.889700(13) 0.0833
Sc2 Sc 0.135038(10) 0.791106(10) 0.033447(9)
O1 O 0.16102(5) 0.82769(5) 0.0833
O2 O 0.47914(5) 0.96077(7) 0.16983(4)
O3 O 0.54366(5) 0.96430(7) 0.19607(4)
O4 O 0.25846(5) 0.85862(5) 0.05436(4)
O6 O 0.20245(5) 0.80416(5) 0.01572(4)
O7 O 0.60278(7) 0.87511(5) 0.05843(4)
O8 O 0.62451(6) 0.89352(5) 0.12010(4)
O9 O 0.28887(6) 0.95554(6) 0.0833
H2 H 0.2999 0.9617 0.0606
C1 C 0.59752(8) 0.88685(6) 0.09207(6)
C2 C 0.24343(7) 0.82494(7) 0.03025(6)
C3 C 0.27642(8) 0.80770(9) 0.01836(8)
C4 C 0.51273(7) 0.95192(9) 0.16980(6)
C6 C 0.32314(9) 0.83156(11) 0.03119(9)
H4 H 0.3342 0.8592 0.0469
C7 C 0.35394(10) 0.81513(13) 0.02108(10)
C11 C 0.40106(11) 0.83864(16) 0.03650(11)
C12 C 0.43773(11) 0.85657(15) 0.05333(11)
C13 C 0.47889(9) 0.87907(13) 0.07806(9)
C14 C 0.51853(8) 0.87396(10) 0.07203(8)
H6 H 0.5202 0.8576 0.0497
C15 C 0.47782(8) 0.90498(10) 0.10999(8)
H7 H 0.4513 0.9093 0.1138
C16 C 0.55552(7) 0.89294(8) 0.09873(7)
C17 C 0.55375(7) 0.91731(7) 0.13124(6)
H8 H 0.5786 0.9291 0.1500
C18 C 0.51494(7) 0.92427(8) 0.13603(6)
H9 H 0.2950 0.9666 0.1061
Sc4 Sc 0.110300(13) 0.333334(18) 0.0833
Sc5 Sc 0.208894(10) 0.343932(14) 0.033447(9)
O12 O 0.17231(5) 0.33333(7) 0.0833
O13 O 0.03923(7) 0.51837(9) 0.16983(4)
O14 O 0.03570(7) 0.57936(9) 0.19607(4)
O15 O 0.14138(5) 0.39984(7) 0.05436(4)
O17 O 0.19584(5) 0.39829(7) 0.01572(4)
O18 O 0.12489(5) 0.72767(9) 0.05843(4)
O19 O 0.10648(5) 0.73099(8) 0.12010(4)
O20 O 0.04446(6) 0.33333(8) 0.0833
H11 H 0.0383 0.3382 0.0606
C19 C 0.11315(6) 0.71067(10) 0.09207(6)
C20 C 0.17506(7) 0.41849(10) 0.03025(6)
C21 C 0.19230(9) 0.46872(12) 0.01836(8)
C22 C 0.04808(9) 0.56081(11) 0.16980(6)
C24 C 0.16844(11) 0.49158(14) 0.03119(9)
H13 H 0.1408 0.4750 0.0469
C25 C 0.18487(13) 0.53881(16) 0.02108(10)
C29 C 0.16136(16) 0.56242(19) 0.03650(11)
C30 C 0.14343(15) 0.58116(19) 0.05333(11)
C31 C 0.12093(13) 0.59982(16) 0.07806(9)
C32 C 0.12604(10) 0.64457(13) 0.07203(8)
H15 H 0.1424 0.6626 0.0497
C33 C 0.09502(10) 0.57284(13) 0.10999(8)
H16 H 0.0907 0.5420 0.1138
C34 C 0.10706(8) 0.66258(11) 0.09873(7)
C35 C 0.08269(7) 0.63644(10) 0.13124(6)
H17 H 0.0709 0.6495 0.1500
C36 C 0.07573(8) 0.59067(11) 0.13603(6)
H18 H 0.0334 0.3285 0.1061
Sc6 Sc 0.666666(18) 0.776966(13) 0.0833
Sc7 Sc 0.656068(14) 0.864962(10) 0.033447(9)
O23 O 0.66667(7) 0.83898(5) 0.0833
O24 O 0.48163(9) 0.52086(5) 0.16983(4)
O25 O 0.42064(9) 0.45634(5) 0.19607(4)
O26 O 0.60016(7) 0.74154(5) 0.05436(4)
O28 O 0.60171(7) 0.79755(5) 0.01572(4)
O29 O 0.27233(9) 0.39722(7) 0.05843(4)
O30 O 0.26901(8) 0.37549(6) 0.12010(4)
O31 O 0.66667(8) 0.71113(6) 0.0833
H20 H 0.6618 0.7001 0.0606
C37 C 0.28933(10) 0.40248(8) 0.09207(6)
C38 C 0.58151(10) 0.75657(7) 0.03025(6)
C39 C 0.53128(12) 0.72358(8) 0.01836(8)
C40 C 0.43919(11) 0.48727(7) 0.16980(6)
C42 C 0.50842(14) 0.67686(9) 0.03119(9)
H22 H 0.5250 0.6658 0.0469
C43 C 0.46119(16) 0.64606(10) 0.02108(10)
C47 C 0.43758(19) 0.59894(11) 0.03650(11)
C48 C 0.41884(19) 0.56227(11) 0.05333(11)
C49 C 0.40018(16) 0.52111(9) 0.07806(9)
C50 C 0.35543(13) 0.48147(8) 0.07203(8)
H24 H 0.3374 0.4798 0.0497
C51 C 0.42716(13) 0.52218(8) 0.10999(8)
H25 H 0.4580 0.5487 0.1138
C52 C 0.33742(11) 0.44448(7) 0.09873(7)
C53 C 0.36356(10) 0.44625(7) 0.13124(6)
H26 H 0.3505 0.4214 0.1500
C54 C 0.40933(11) 0.48506(7) 0.13603(6)
H27 H 0.6715 0.7050 0.1061
Sc17 Sc 0.443633(13) 0.443633(13) 0.2500
Sc18_2 Sc 0.556367(13) 0.999999(18) 0.2500
Sc19 Sc 0.000001(18) 0.556367(13) 0.2500
Sc23 Sc 0.124439(10) 0.801705(10) 0.133220(9)
Sc24 Sc 0.677265(14) 0.875561(10) 0.133220(9)
Sc25 Sc 0.198295(10) 0.322735(14) 0.133220(9)
Sc29 Sc 0.542227(10) 0.531629(10) 0.200114(9)
O67 O 0.70590(7) 0.85419(5) 0.00316(4)
O68 O 0.14830(9) 0.29410(7) 0.00316(4)
O69 O 0.14581(5) 0.85170(9) 0.00316(4)
O70 O 0.12301(5) 0.36903(7) 0.13726(4)
O71 O 0.63097(7) 0.75397(9) 0.13726(4)
O72 O 0.24603(9) 0.87699(5) 0.13726(4)
O73 O 0.70237(7) 0.78967(5) 0.02940(4)
O74 O 0.08731(9) 0.29763(7) 0.02940(4)
O75 O 0.21033(5) 0.91269(9) 0.02940(4)
O76 O 0.19195(5) 0.92513(5) 0.11231(4)
O77 O 0.73317(7) 0.80805(5) 0.11231(4)
O78 O 0.07487(5) 0.26683(7) 0.11231(4)
O82 O 0.22685(5) 0.29118(6) 0.04657(4)
O83 O 0.06432(8) 0.77315(5) 0.04657(4)
O84 O 0.70882(6) 0.93568(8) 0.04657(4)
Sc3 Sc 0.3333 0.6667 0.9167
O5 O 0.10697(6) 0.75231(6) 0.98036(5)
H1 H 0.0813 0.7272 0.9850
O10 O 0.30278(12) 0.69518(13) 0.95173(11)
C5 C 0.26000(10) 0.76704(11) 0.99558(9)
H3 H 0.2279 0.7506 0.9869
C8 C 0.33800(12) 0.77523(15) 0.99766(11)
H5 H 0.3592 0.7646 0.9898
C9 C 0.29058(12) 0.75074(14) 0.98565(12)
O11 O 0.23119(16) 0.6852(2) 0.9522(2)
C10 C 0.27334(17) 0.7070(2) 0.96137(18)
O16 O 0.24769(6) 0.35466(8) 0.98036(5)
H10 H 0.2728 0.3541 0.9850
O21 O 0.30482(13) 0.60760(18) 0.95173(11)
C23 C 0.23296(11) 0.49296(15) 0.99558(9)
H12 H 0.2494 0.4773 0.9869
C26 C 0.22477(15) 0.56277(19) 0.99766(11)
H14 H 0.2354 0.5946 0.9898
C27 C 0.24926(14) 0.53984(18) 0.98565(12)
O22 O 0.3148(2) 0.54599(26) 0.9522(2)
C28 C 0.2930(2) 0.56634(26) 0.96137(18)
O27 O 0.64534(8) 0.89303(6) 0.98036(5)
H19 H 0.6459 0.9187 0.9850
O32 O 0.39240(18) 0.69722(12) 0.95173(11)
C41 C 0.50704(15) 0.74000(10) 0.99558(9)
H21 H 0.5227 0.7721 0.9869
C44 C 0.43723(19) 0.66200(12) 0.99766(11)
H23 H 0.4054 0.6408 0.9898
C45 C 0.46016(18) 0.70942(12) 0.98565(12)
O33 O 0.45401(26) 0.76881(16) 0.9522(2)
C46 C 0.43366(26) 0.72666(17) 0.96137(18)
Sc8 Sc 0.457773(10) 0.468371(10) 0.799886(9)
O34 O 0.62744(7) 0.81247(5) 0.66350(4)
O35 O 0.63097(7) 0.87699(5) 0.63726(4)
O36 O 0.52529(5) 0.59179(5) 0.77897(4)
O37 O 0.41898(6) 0.44030(6) 0.85297(5)
H28 H 0.3939 0.4146 0.8483
O38 O 0.47083(5) 0.53578(5) 0.81761(4)
O39 O 0.54178(5) 0.93611(7) 0.77490(4)
O40 O 0.56019(5) 0.95784(6) 0.71323(4)
C55 C 0.55352(6) 0.93085(8) 0.74126(6)
O41 O 0.36185(13) 0.63611(12) 0.88160(11)
C56 C 0.49161(7) 0.57676(7) 0.80308(6)
C57 C 0.47437(9) 0.60975(8) 0.81497(8)
C58 C 0.61859(9) 0.84606(7) 0.66353(6)
C59 C 0.43371(11) 0.59333(10) 0.83775(9)
H29 H 0.4173 0.5612 0.8464
C60 C 0.49823(11) 0.65647(9) 0.80214(9)
H30 H 0.5259 0.6675 0.7864
C61 C 0.48180(13) 0.68727(10) 0.81225(10)
C62 C 0.44190(15) 0.67133(12) 0.83567(11)
H31 H 0.4313 0.6925 0.8435
C63 C 0.41741(14) 0.62391(12) 0.84768(12)
O42 O 0.3519(2) 0.56452(16) 0.8811(2)
C64 C 0.3737(2) 0.60667(17) 0.87196(18)
C65 C 0.50531(16) 0.73439(11) 0.79683(11)
C66 C 0.52324(15) 0.77106(11) 0.78000(11)
C67 C 0.54574(13) 0.81222(9) 0.75527(9)
C68 C 0.54063(10) 0.85186(8) 0.76130(8)
H32 H 0.5243 0.8535 0.7836
C69 C 0.57165(10) 0.81115(8) 0.72334(8)
H33 H 0.5760 0.7846 0.7195
C70 C 0.55961(8) 0.88885(7) 0.73460(7)
C71 C 0.58398(7) 0.88708(7) 0.70209(6)
H34 H 0.5958 0.9119 0.6833
C72 C 0.59094(8) 0.84827(7) 0.69730(6)
Sc9 Sc 0.010599(14) 0.542227(10) 0.799886(9)
O43 O 0.18504(9) 0.37256(7) 0.66350(4)
O44 O 0.24603(9) 0.36903(7) 0.63726(4)
O45 O 0.06651(7) 0.47471(5) 0.77897(4)
O46 O 0.02133(8) 0.58102(6) 0.85297(5)
H35 H 0.0208 0.6061 0.8483
O47 O 0.06496(7) 0.52917(5) 0.81761(4)
O48 O 0.39434(9) 0.45822(5) 0.77490(4)
O49 O 0.39766(8) 0.43981(5) 0.71323(4)
C73 C 0.37734(10) 0.44648(6) 0.74126(6)
O50 O 0.27427(18) 0.63815(13) 0.88160(11)
C74 C 0.08516(10) 0.50839(7) 0.80308(6)
C75 C 0.13539(12) 0.52563(9) 0.81497(8)
C76 C 0.22748(11) 0.38141(9) 0.66353(6)
C77 C 0.15963(15) 0.56629(11) 0.83775(9)
H36 H 0.1440 0.5827 0.8464
C78 C 0.15825(14) 0.50177(11) 0.80214(9)
H37 H 0.1417 0.4741 0.7864
C79 C 0.20548(16) 0.51820(13) 0.81225(10)
C80 C 0.22944(19) 0.55810(15) 0.83567(11)
H38 H 0.2613 0.5687 0.8435
C81 C 0.20651(18) 0.58259(14) 0.84768(12)
O51 O 0.21266(26) 0.6481(2) 0.8811(2)
C82 C 0.23301(26) 0.6263(2) 0.87196(18)
C83 C 0.22909(19) 0.49469(16) 0.79683(11)
C84 C 0.24783(19) 0.47676(15) 0.78000(11)
C85 C 0.26649(16) 0.45426(13) 0.75527(9)
C86 C 0.31124(13) 0.45937(10) 0.76130(8)
H39 H 0.3293 0.4757 0.7836
C87 C 0.23951(13) 0.42835(10) 0.72334(8)
H40 H 0.2087 0.4240 0.7195
C88 C 0.32925(11) 0.44039(8) 0.73460(7)
C89 C 0.30311(10) 0.41602(7) 0.70209(6)
H41 H 0.3162 0.4042 0.6833
C90 C 0.25734(11) 0.40906(8) 0.69730(6)
Sc10 Sc 0.531629(10) 0.989401(14) 0.799886(9)
O52 O 0.18753(5) 0.81496(9) 0.66350(4)
O53 O 0.12301(5) 0.75397(9) 0.63726(4)
O54 O 0.40821(5) 0.93349(7) 0.77897(4)
O55 O 0.55970(6) 0.97867(8) 0.85297(5)
H42 H 0.5854 0.9792 0.8483
O56 O 0.46422(5) 0.93504(7) 0.81761(4)
O57 O 0.06389(7) 0.60566(9) 0.77490(4)
O58 O 0.04216(6) 0.60234(8) 0.71323(4)
C91 C 0.06915(8) 0.62266(10) 0.74126(6)
O59 O 0.36389(12) 0.72573(18) 0.88160(11)
C92 C 0.42324(7) 0.91484(10) 0.80308(6)
C93 C 0.39025(8) 0.86461(12) 0.81497(8)
C94 C 0.15394(7) 0.77252(11) 0.66353(6)
C95 C 0.40667(10) 0.84037(15) 0.83775(9)
H43 H 0.4388 0.8560 0.8464
C96 C 0.34353(9) 0.84175(14) 0.80214(9)
H44 H 0.3325 0.8583 0.7864
C97 C 0.31273(10) 0.79452(16) 0.81225(10)
C98 C 0.32867(12) 0.77056(19) 0.83567(11)
H45 H 0.3075 0.7387 0.8435
C99 C 0.37609(12) 0.79349(18) 0.84768(12)
O60 O 0.43548(16) 0.78734(26) 0.8811(2)
C100 C 0.39333(17) 0.76699(26) 0.87196(18)
C101 C 0.26561(11) 0.77091(19) 0.79683(11)
C102 C 0.22894(11) 0.75217(19) 0.78000(11)
C103 C 0.18778(9) 0.73351(16) 0.75527(9)
C104 C 0.14814(8) 0.68876(13) 0.76130(8)
H46 H 0.1465 0.6707 0.7836
C105 C 0.18885(8) 0.76049(13) 0.72334(8)
H47 H 0.2154 0.7913 0.7195
C106 C 0.11115(7) 0.67075(11) 0.73460(7)
C107 C 0.11292(7) 0.69689(10) 0.70209(6)
H48 H 0.0881 0.6838 0.6833
C108 C 0.15173(7) 0.74266(11) 0.69730(6)
Sc11 Sc 0.556367(13) 0.556367(13) 0.7500
Sc12 Sc 0.000001(18) 0.443633(13) 0.7500
Sc13_2 Sc 0.443633(13) 0.999999(18) 0.7500
Sc14 Sc 0.110300(13) 0.776966(13) 0.5833
Sc15 Sc 0.666666(18) 0.889700(13) 0.5833
Sc16 Sc 0.223034(13) 0.333334(18) 0.5833
Sc20 Sc 0.468371(10) 0.457773(10) 0.700114(9)
Sc26 Sc 0.198295(10) 0.875561(10) 0.633220(9)
Sc27 Sc 0.124439(10) 0.322735(14) 0.633220(9)
Sc28 Sc 0.677265(14) 0.801705(10) 0.633220(9)
O61 O 0.49436(5) 0.49435(5) 0.7500
O62 O -0.00000(7) 0.50564(5) 0.7500
O63_2 O 0.50565(5) 1.00000(7) 0.7500
O66 O 0.51837(9) 0.47914(5) 0.83017(4)
O80 O 0.43981(5) 0.39766(8) 0.78677(4)
H49 H 0.130152 0.74422 0.969029
H50 H 0.614068 0.869848 0.969029
H51 H 0.25578 0.385932 0.969029
H52 H 0.410887 0.463485 0.864305
H53 H 0.0525983 0.589113 0.864305
H54 H 0.536515 0.947402 0.864305
Sc19_2 Sc 1.000001(18) 0.556367(13) 0.2500
Sc30 Sc 0.989401(14) 0.457773(10) 0.200114(9)
Sc12_2 Sc 1.000001(18) 0.443633(13) 0.7500
Sc22 Sc 0.989401(14) 0.531629(10) 0.700114(9)
O62_2 O 1.00000(7) 0.50564(5) 0.7500
O65 O 0.96077(7) 0.48163(9) 0.83017(4)
O79 O 0.95784(6) 0.56019(5) 0.78677(4)
Sc31_2 Sc 0.010599(14) 0.468371(10) 0.299886(9)
O64_2 O 0.03923(7) 0.52086(5) 0.66983(4)
Sc1_2 Sc 0.889700(13) 0.223034(13) 0.4167
Sc2_2 Sc 0.791106(10) 0.135038(10) 0.466553(9)
Sc3_2 Sc 0.6667 0.3333 0.5833
O1_2 O 0.82769(5) 0.16102(5) 0.4167
O2_2 O 0.96077(7) 0.47914(5) 0.33017(4)
O3_2 O 0.96430(7) 0.54366(5) 0.30393(4)
O4_2 O 0.85862(5) 0.25846(5) 0.44564(4)
O5_2 O 0.75231(6) 0.10697(6) 0.51964(5)
H1_2 H 0.7272 0.0813 0.5150
O6_2 O 0.80416(5) 0.20245(5) 0.48428(4)
O7_2 O 0.87511(5) 0.60278(7) 0.44157(4)
O8_2 O 0.89352(5) 0.62451(6) 0.37990(4)
O9_2 O 0.95554(6) 0.28887(6) 0.4167
H2_2 H 0.9617 0.2999 0.4394
C1_2 C 0.88685(6) 0.59752(8) 0.40793(6)
O10_2 O 0.69518(13) 0.30278(12) 0.54827(11)
C2_2 C 0.82494(7) 0.24343(7) 0.46975(6)
C3_2 C 0.80770(9) 0.27642(8) 0.48164(8)
C4_2 C 0.95192(9) 0.51273(7) 0.33020(6)
C5_2 C 0.76704(11) 0.26000(10) 0.50442(9)
H3_2 H 0.7506 0.2279 0.5131
C6_2 C 0.83156(11) 0.32314(9) 0.46881(9)
H4_2 H 0.8592 0.3342 0.4531
C7_2 C 0.81513(13) 0.35394(10) 0.47892(10)
C8_2 C 0.77523(15) 0.33800(12) 0.50234(11)
H5_2 H 0.7646 0.3592 0.5102
C9_2 C 0.75074(14) 0.29058(12) 0.51435(12)
O11_2 O 0.6852(2) 0.23119(16) 0.5478(2)
C10_2 C 0.7070(2) 0.27334(17) 0.53863(18)
C11_2 C 0.83864(16) 0.40106(11) 0.46350(11)
C12_2 C 0.85657(15) 0.43773(11) 0.44667(11)
C13_2 C 0.87907(13) 0.47889(9) 0.42194(9)
C14_2 C 0.87396(10) 0.51853(8) 0.42797(8)
H6_2 H 0.8576 0.5202 0.4503
C15_2 C 0.90498(10) 0.47782(8) 0.39001(8)
H7_2 H 0.9093 0.4513 0.3862
C16_2 C 0.89294(8) 0.55552(7) 0.40127(7)
C17_2 C 0.91731(7) 0.55375(7) 0.36876(6)
H8_2 H 0.9291 0.5786 0.3500
C18_2 C 0.92427(8) 0.51494(7) 0.36397(6)
H9_2 H 0.9666 0.2950 0.3939
Sc4_2 Sc 0.333334(18) 0.110300(13) 0.4167
Sc5_2 Sc 0.343932(14) 0.208894(10) 0.466553(9)
O12_2 O 0.33333(7) 0.17231(5) 0.4167
O13_2 O 0.51837(9) 0.03923(7) 0.33017(4)
O14_2 O 0.57936(9) 0.03570(7) 0.30393(4)
O15_2 O 0.39984(7) 0.14138(5) 0.44564(4)
O16_2 O 0.35466(8) 0.24769(6) 0.51964(5)
H10_2 H 0.3541 0.2728 0.5150
O17_2 O 0.39829(7) 0.19584(5) 0.48428(4)
O18_2 O 0.72767(9) 0.12489(5) 0.44157(4)
O19_2 O 0.73099(8) 0.10648(5) 0.37990(4)
O20_2 O 0.33333(8) 0.04446(6) 0.4167
H11_2 H 0.3382 0.0383 0.4394
C19_2 C 0.71067(10) 0.11315(6) 0.40793(6)
O21_2 O 0.60760(18) 0.30482(13) 0.54827(11)
C20_2 C 0.41849(10) 0.17506(7) 0.46975(6)
C21_2 C 0.46872(12) 0.19230(9) 0.48164(8)
C22_2 C 0.56081(11) 0.04808(9) 0.33020(6)
C23_2 C 0.49296(15) 0.23296(11) 0.50442(9)
H12_2 H 0.4773 0.2494 0.5131
C24_2 C 0.49158(14) 0.16844(11) 0.46881(9)
H13_2 H 0.4750 0.1408 0.4531
C25_2 C 0.53881(16) 0.18487(13) 0.47892(10)
C26_2 C 0.56277(19) 0.22477(15) 0.50234(11)
H14_2 H 0.5946 0.2354 0.5102
C27_2 C 0.53984(18) 0.24926(14) 0.51435(12)
O22_2 O 0.54599(26) 0.3148(2) 0.5478(2)
C28_2 C 0.56634(26) 0.2930(2) 0.53863(18)
C29_2 C 0.56242(19) 0.16136(16) 0.46350(11)
C30_2 C 0.58116(19) 0.14343(15) 0.44667(11)
C31_2 C 0.59982(16) 0.12093(13) 0.42194(9)
C32_2 C 0.64457(13) 0.12604(10) 0.42797(8)
H15_2 H 0.6626 0.1424 0.4503
C33_2 C 0.57284(13) 0.09502(10) 0.39001(8)
H16_2 H 0.5420 0.0907 0.3862
C34_2 C 0.66258(11) 0.10706(8) 0.40127(7)
C35_2 C 0.63644(10) 0.08269(7) 0.36876(6)
H17_2 H 0.6495 0.0709 0.3500
C36_2 C 0.59067(11) 0.07573(8) 0.36397(6)
H18_2 H 0.3285 0.0334 0.3939
Sc6_2 Sc 0.776966(13) 0.666666(18) 0.4167
Sc7_2 Sc 0.864962(10) 0.656068(14) 0.466553(9)
O23_2 O 0.83898(5) 0.66667(7) 0.4167
O24_2 O 0.52086(5) 0.48163(9) 0.33017(4)
O25_2 O 0.45634(5) 0.42064(9) 0.30393(4)
O26_2 O 0.74154(5) 0.60016(7) 0.44564(4)
O27_2 O 0.89303(6) 0.64534(8) 0.51964(5)
H19_2 H 0.9187 0.6459 0.5150
O28_2 O 0.79755(5) 0.60171(7) 0.48428(4)
O29_2 O 0.39722(7) 0.27233(9) 0.44157(4)
O30_2 O 0.37549(6) 0.26901(8) 0.37990(4)
O31_2 O 0.71113(6) 0.66667(8) 0.4167
H20_2 H 0.7001 0.6618 0.4394
C37_2 C 0.40248(8) 0.28933(10) 0.40793(6)
O32_2 O 0.69722(12) 0.39240(18) 0.54827(11)
C38_2 C 0.75657(7) 0.58151(10) 0.46975(6)
C39_2 C 0.72358(8) 0.53128(12) 0.48164(8)
C40_2 C 0.48727(7) 0.43919(11) 0.33020(6)
C41_2 C 0.74000(10) 0.50704(15) 0.50442(9)
H21_2 H 0.7721 0.5227 0.5131
C42_2 C 0.67686(9) 0.50842(14) 0.46881(9)
H22_2 H 0.6658 0.5250 0.4531
C43_2 C 0.64606(10) 0.46119(16) 0.47892(10)
C44_2 C 0.66200(12) 0.43723(19) 0.50234(11)
H23_2 H 0.6408 0.4054 0.5102
C45_2 C 0.70942(12) 0.46016(18) 0.51435(12)
O33_2 O 0.76881(16) 0.45401(26) 0.5478(2)
C46_2 C 0.72666(17) 0.43366(26) 0.53863(18)
C47_2 C 0.59894(11) 0.43758(19) 0.46350(11)
C48_2 C 0.56227(11) 0.41884(19) 0.44667(11)
C49_2 C 0.52111(9) 0.40018(16) 0.42194(9)
C50_2 C 0.48147(8) 0.35543(13) 0.42797(8)
H24_2 H 0.4798 0.3374 0.4503
C51_2 C 0.52218(8) 0.42716(13) 0.39001(8)
H25_2 H 0.5487 0.4580 0.3862
C52_2 C 0.44448(7) 0.33742(11) 0.40127(7)
C53_2 C 0.44625(7) 0.36356(10) 0.36876(6)
H26_2 H 0.4214 0.3505 0.3500
C54_2 C 0.48506(7) 0.40933(11) 0.36397(6)
H27_2 H 0.7050 0.6715 0.3939
O34_2 O 0.81247(5) 0.62744(7) 0.83650(4)
O35_2 O 0.87699(5) 0.63097(7) 0.86274(4)
O36_2 O 0.59179(5) 0.52529(5) 0.72103(4)
O37_2 O 0.44030(6) 0.41898(6) 0.64703(5)
H28_2 H 0.4146 0.3939 0.6517
O38_2 O 0.53578(5) 0.47083(5) 0.68239(4)
O39_2 O 0.93611(7) 0.54178(5) 0.72510(4)
C55_2 C 0.93085(8) 0.55352(6) 0.75874(6)
O41_2 O 0.63611(12) 0.36185(13) 0.61840(11)
C56_2 C 0.57676(7) 0.49161(7) 0.69692(6)
C57_2 C 0.60975(8) 0.47437(9) 0.68503(8)
C58_2 C 0.84606(7) 0.61859(9) 0.83647(6)
C59_2 C 0.59333(10) 0.43371(11) 0.66225(9)
H29_2 H 0.5612 0.4173 0.6536
C60_2 C 0.65647(9) 0.49823(11) 0.69786(9)
H30_2 H 0.6675 0.5259 0.7136
C61_2 C 0.68727(10) 0.48180(13) 0.68775(10)
C62_2 C 0.67133(12) 0.44190(15) 0.66433(11)
H31_2 H 0.6925 0.4313 0.6565
C63_2 C 0.62391(12) 0.41741(14) 0.65232(12)
O42_2 O 0.56452(16) 0.3519(2) 0.6189(2)
C64_2 C 0.60667(17) 0.3737(2) 0.62804(18)
C65_2 C 0.73439(11) 0.50531(16) 0.70317(11)
C66_2 C 0.77106(11) 0.52324(15) 0.72000(11)
C67_2 C 0.81222(9) 0.54574(13) 0.74473(9)
C68_2 C 0.85186(8) 0.54063(10) 0.73870(8)
H32_2 H 0.8535 0.5243 0.7164
C69_2 C 0.81115(8) 0.57165(10) 0.77666(8)
H33_2 H 0.7846 0.5760 0.7805
C70_2 C 0.88885(7) 0.55961(8) 0.76540(7)
C71_2 C 0.88708(7) 0.58398(7) 0.79791(6)
H34_2 H 0.9119 0.5958 0.8167
C72_2 C 0.84827(7) 0.59094(8) 0.80270(6)
O43_2 O 0.37256(7) 0.18504(9) 0.83650(4)
O44_2 O 0.36903(7) 0.24603(9) 0.86274(4)
O45_2 O 0.47471(5) 0.06651(7) 0.72103(4)
O46_2 O 0.58102(6) 0.02133(8) 0.64703(5)
H35_2 H 0.6061 0.0208 0.6517
O47_2 O 0.52917(5) 0.06496(7) 0.68239(4)
O48_2 O 0.45822(5) 0.39434(9) 0.72510(4)
C73_2 C 0.44648(6) 0.37734(10) 0.75874(6)
O50_2 O 0.63815(13) 0.27427(18) 0.61840(11)
C74_2 C 0.50839(7) 0.08516(10) 0.69692(6)
C75_2 C 0.52563(9) 0.13539(12) 0.68503(8)
C76_2 C 0.38141(9) 0.22748(11) 0.83647(6)
C77_2 C 0.56629(11) 0.15963(15) 0.66225(9)
H36_2 H 0.5827 0.1440 0.6536
C78_2 C 0.50177(11) 0.15825(14) 0.69786(9)
H37_2 H 0.4741 0.1417 0.7136
C79_2 C 0.51820(13) 0.20548(16) 0.68775(10)
C80_2 C 0.55810(15) 0.22944(19) 0.66433(11)
H38_2 H 0.5687 0.2613 0.6565
C81_2 C 0.58259(14) 0.20651(18) 0.65232(12)
O51_2 O 0.6481(2) 0.21266(26) 0.6189(2)
C82_2 C 0.6263(2) 0.23301(26) 0.62804(18)
C83_2 C 0.49469(16) 0.22909(19) 0.70317(11)
C84_2 C 0.47676(15) 0.24783(19) 0.72000(11)
C85_2 C 0.45426(13) 0.26649(16) 0.74473(9)
C86_2 C 0.45937(10) 0.31124(13) 0.73870(8)
H39_2 H 0.4757 0.3293 0.7164
C87_2 C 0.42835(10) 0.23951(13) 0.77666(8)
H40_2 H 0.4240 0.2087 0.7805
C88_2 C 0.44039(8) 0.32925(11) 0.76540(7)
C89_2 C 0.41602(7) 0.30311(10) 0.79791(6)
H41_2 H 0.4042 0.3162 0.8167
C90_2 C 0.40906(8) 0.25734(11) 0.80270(6)
O52_2 O 0.81496(9) 0.18753(5) 0.83650(4)
O53_2 O 0.75397(9) 0.12301(5) 0.86274(4)
O54_2 O 0.93349(7) 0.40821(5) 0.72103(4)
O55_2 O 0.97867(8) 0.55970(6) 0.64703(5)
H42_2 H 0.9792 0.5854 0.6517
O56_2 O 0.93504(7) 0.46422(5) 0.68239(4)
O57_2 O 0.60566(9) 0.06389(7) 0.72510(4)
C91_2 C 0.62266(10) 0.06915(8) 0.75874(6)
O59_2 O 0.72573(18) 0.36389(12) 0.61840(11)
C92_2 C 0.91484(10) 0.42324(7) 0.69692(6)
C93_2 C 0.86461(12) 0.39025(8) 0.68503(8)
C94_2 C 0.77252(11) 0.15394(7) 0.83647(6)
C95_2 C 0.84037(15) 0.40667(10) 0.66225(9)
H43_2 H 0.8560 0.4388 0.6536
C96_2 C 0.84175(14) 0.34353(9) 0.69786(9)
H44_2 H 0.8583 0.3325 0.7136
C97_2 C 0.79452(16) 0.31273(10) 0.68775(10)
C98_2 C 0.77056(19) 0.32867(12) 0.66433(11)
H45_2 H 0.7387 0.3075 0.6565
C99_2 C 0.79349(18) 0.37609(12) 0.65232(12)
O60_2 O 0.78734(26) 0.43548(16) 0.6189(2)
C100_2 C 0.76699(26) 0.39333(17) 0.62804(18)
C101_2 C 0.77091(19) 0.26561(11) 0.70317(11)
C102_2 C 0.75217(19) 0.22894(11) 0.72000(11)
C103_2 C 0.73351(16) 0.18778(9) 0.74473(9)
C104_2 C 0.68876(13) 0.14814(8) 0.73870(8)
H46_2 H 0.6707 0.1465 0.7164
C105_2 C 0.76049(13) 0.18885(8) 0.77666(8)
H47_2 H 0.7913 0.2154 0.7805
C106_2 C 0.67075(11) 0.11115(7) 0.76540(7)
C107_2 C 0.69689(10) 0.11292(7) 0.79791(6)
H48_2 H 0.6838 0.0881 0.8167
C108_2 C 0.74266(11) 0.15173(7) 0.80270(6)
Sc14_2 Sc 0.776966(13) 0.110300(13) 0.9167
Sc15_2 Sc 0.889700(13) 0.666666(18) 0.9167
Sc16_2 Sc 0.333334(18) 0.223034(13) 0.9167
Sc23_2 Sc 0.801705(10) 0.124439(10) 0.366780(9)
Sc24_2 Sc 0.875561(10) 0.677265(14) 0.366780(9)
Sc25_2 Sc 0.322735(14) 0.198295(10) 0.366780(9)
Sc26_2 Sc 0.875561(10) 0.198295(10) 0.866780(9)
Sc27_2 Sc 0.322735(14) 0.124439(10) 0.866780(9)
Sc28_2 Sc 0.801705(10) 0.677265(14) 0.866780(9)
Sc29_2 Sc 0.531629(10) 0.542227(10) 0.299886(9)
O66_2 O 0.47914(5) 0.51837(9) 0.66983(4)
O67_2 O 0.85419(5) 0.70590(7) 0.49684(4)
O68_2 O 0.29410(7) 0.14830(9) 0.49684(4)
O69_2 O 0.85170(9) 0.14581(5) 0.49684(4)
O70_2 O 0.36903(7) 0.12301(5) 0.36274(4)
O71_2 O 0.75397(9) 0.63097(7) 0.36274(4)
O72_2 O 0.87699(5) 0.24603(9) 0.36274(4)
O73_2 O 0.78967(5) 0.70237(7) 0.47060(4)
O74_2 O 0.29763(7) 0.08731(9) 0.47060(4)
O75_2 O 0.91269(9) 0.21033(5) 0.47060(4)
O76_2 O 0.92513(5) 0.19195(5) 0.38769(4)
O77_2 O 0.80805(5) 0.73317(7) 0.38769(4)
O78_2 O 0.26683(7) 0.07487(5) 0.38769(4)
O82_2 O 0.29118(6) 0.22685(5) 0.45343(4)
O83_2 O 0.77315(5) 0.06432(8) 0.45343(4)
O84_2 O 0.93568(8) 0.70882(6) 0.45343(4)
H49_2 H 0.74422 0.130152 0.530971
H50_2 H 0.869848 0.614068 0.530971
H51_2 H 0.385932 0.25578 0.530971
H52_2 H 0.463485 0.410887 0.635695
H53_2 H 0.589113 0.0525983 0.635695
H54_2 H 0.947402 0.536515 0.635695
Sc30_2 Sc 0.457773(10) 0.989401(14) 0.299886(9)
O65_2 O 0.48163(9) 0.96077(7) 0.66983(4)
O2_3 O 0.14581(5) 0.29410(7) 0.50316(4)
O3_3 O 0.21033(5) 0.29763(7) 0.52940(4)
O7_3 O 0.26945(7) 0.20844(5) 0.39176(4)
C1_3 C 0.26419(8) 0.22018(6) 0.42540(6)
C4_3 C 0.17940(7) 0.28525(9) 0.50313(6)
H4_3 H 0.0009 0.1925 0.3802
C7_3 C 0.02061(10) 0.14846(13) 0.35441(10)
C8_3 C 0.00467(12) 0.10856(15) 0.33099(11)
H5_3 H 0.0259 0.0979 0.3231
C11_3 C 0.06773(11) 0.17197(16) 0.36983(11)
C12_3 C 0.10440(11) 0.18990(15) 0.38666(11)
C13_3 C 0.14556(9) 0.21240(13) 0.41139(9)
C14_3 C 0.18520(8) 0.20729(10) 0.40536(8)
H6_3 H 0.1869 0.1909 0.3830
C15_3 C 0.14449(8) 0.23831(10) 0.44332(8)
H7_3 H 0.1180 0.2426 0.4471
C16_3 C 0.22219(7) 0.22627(8) 0.43206(7)
C17_3 C 0.22042(7) 0.25064(7) 0.46457(6)
H8_3 H 0.2453 0.2624 0.4833
C18_3 C 0.18161(7) 0.25760(8) 0.46936(6)
O27_3 O 0.31201(8) 0.22636(6) 0.31369(5)
H19_3 H 0.3126 0.2520 0.3183
O28_3 O 0.26838(7) 0.13088(5) 0.34905(4)
O32_3 O 0.05907(18) 0.03055(12) 0.28506(11)
C38_3 C 0.24818(10) 0.08990(7) 0.36358(6)
C39_3 C 0.19795(12) 0.05691(8) 0.35169(8)
C41_3 C 0.17371(15) 0.07333(10) 0.32891(9)
H21_3 H 0.1894 0.1054 0.3202
C42_3 C 0.17509(14) 0.01019(9) 0.36452(9)
C45_3 C 0.12683(18) 0.04275(12) 0.31898(12)
O33_3 O 0.12068(26) 0.10214(16) 0.2855(2)
C46_3 C 0.10033(26) 0.05999(17) 0.29470(18)
O39_3 O 0.20844(5) 0.26945(7) 0.10824(4)
C55_3 C 0.22018(6) 0.26419(8) 0.07460(6)
H30_3 H 0.1925 0.0009 0.1198
C61_3 C 0.14846(13) 0.02061(10) 0.14559(10)
C62_3 C 0.10856(15) 0.00467(12) 0.16901(11)
H31_3 H 0.0979 0.0259 0.1769
C65_3 C 0.17197(16) 0.06773(11) 0.13017(11)
C66_3 C 0.18990(15) 0.10440(11) 0.11334(11)
C67_3 C 0.21240(13) 0.14556(9) 0.08861(9)
C68_3 C 0.20729(10) 0.18520(8) 0.09464(8)
H32_3 H 0.1909 0.1869 0.1170
C69_3 C 0.23831(10) 0.14449(8) 0.05668(8)
H33_3 H 0.2426 0.1180 0.0529
C70_3 C 0.22627(8) 0.22219(7) 0.06794(7)
C71_3 C 0.25064(7) 0.22042(7) 0.03543(6)
H34_3 H 0.2624 0.2453 0.0167
C72_3 C 0.25760(8) 0.18161(7) 0.03064(6)
O55_3 O 0.22636(6) 0.31201(8) 0.18631(5)
H42_3 H 0.2520 0.3126 0.1817
O56_3 O 0.13088(5) 0.26838(7) 0.15095(4)
O59_3 O 0.03055(12) 0.05907(18) 0.21494(11)
C92_3 C 0.08990(7) 0.24818(10) 0.13642(6)
C93_3 C 0.05691(8) 0.19795(12) 0.14831(8)
C95_3 C 0.07333(10) 0.17371(15) 0.17109(9)
H43_3 H 0.1054 0.1894 0.1798
C96_3 C 0.01019(9) 0.17509(14) 0.13548(9)
C99_3 C 0.04275(12) 0.12683(18) 0.18102(12)
O60_3 O 0.10214(16) 0.12068(26) 0.2145(2)
C100_3 C 0.05999(17) 0.10033(26) 0.20530(18)
Sc31_3 Sc 0.135038(10) 0.343932(14) 0.533447(9)
O64_3 O 0.18753(5) 0.37256(7) 0.16350(4)
O67_3 O 0.37256(7) 0.18753(5) 0.33650(4)
H50_3 H 0.280735 0.203182 0.302362
H54_3 H 0.203182 0.280735 0.197638
O34_3 O 0.29410(7) 0.14581(5) 0.99684(4)
O35_3 O 0.29763(7) 0.21033(5) 0.97060(4)
C58_3 C 0.28525(9) 0.17940(7) 0.99687(6)
Sc28_3 Sc 0.343932(14) 0.135038(10) 0.966553(9)
O24_3 O 0.14830(9) 0.85419(5) 0.50316(4)
O25_3 O 0.08731(9) 0.78967(5) 0.52940(4)
C40_3 C 0.10586(11) 0.82060(7) 0.50313(6)
H22_3 H 0.1917 0.9991 0.3802
C43_3 C 0.12786(16) 0.97939(10) 0.35441(10)
C44_3 C 0.10390(19) 0.99533(12) 0.33099(11)
H23_3 H 0.0721 0.9741 0.3231
C47_3 C 0.10425(19) 0.93227(11) 0.36983(11)
C48_3 C 0.08551(19) 0.89560(11) 0.38666(11)
C49_3 C 0.06685(16) 0.85444(9) 0.41139(9)
C50_3 C 0.02210(13) 0.81480(8) 0.40536(8)
H24_3 H 0.0041 0.8131 0.3830
C51_3 C 0.09383(13) 0.85551(8) 0.44332(8)
H25_3 H 0.1247 0.8820 0.4471
C52_3 C 0.00409(11) 0.77781(7) 0.43206(7)
C53_3 C 0.03023(10) 0.77958(7) 0.46457(6)
H26_3 H 0.0172 0.7547 0.4833
C54_3 C 0.07600(11) 0.81839(7) 0.46936(6)
O37_3 O 0.08564(6) 0.77364(6) 0.18631(5)
H28_3 H 0.0605 0.7480 0.1817
O38_3 O 0.13749(5) 0.86912(5) 0.15095(4)
O41_3 O 0.02851(13) 0.96945(12) 0.21494(11)
C56_3 C 0.15827(7) 0.91010(7) 0.13642(6)
C57_3 C 0.14103(9) 0.94309(8) 0.14831(8)
C59_3 C 0.10037(11) 0.92667(10) 0.17109(9)
H29_3 H 0.0839 0.8946 0.1798
C60_3 C 0.16489(11) 0.98981(9) 0.13548(9)
C63_3 C 0.08407(14) 0.95725(12) 0.18102(12)
O42_3 O 0.0185(2) 0.89786(16) 0.2145(2)
C64_3 C 0.0403(2) 0.94001(17) 0.20530(18)
O48_3 O 0.06100(9) 0.79156(5) 0.10824(4)
C73_3 C 0.04400(10) 0.77982(6) 0.07460(6)
Sc29_3 Sc 0.208894(10) 0.864962(10) 0.533447(9)
O66_3 O 0.18504(9) 0.81247(5) 0.16350(4)
H52_3 H 0.0775535 0.796818 0.197638
Sc3_3 Sc 1.0000 0.0000 0.2500
O5_3 O 0.77364(6) 0.08564(6) 0.31369(5)
H1_3 H 0.7480 0.0605 0.3183
O6_3 O 0.86912(5) 0.13749(5) 0.34905(4)
O10_3 O 0.96945(12) 0.02851(13) 0.28506(11)
C2_3 C 0.91010(7) 0.15827(7) 0.36358(6)
C3_3 C 0.94309(8) 0.14103(9) 0.35169(8)
C5_3 C 0.92667(10) 0.10037(11) 0.32891(9)
H3_3 H 0.8946 0.0839 0.3202
C6_3 C 0.98981(9) 0.16489(11) 0.36452(9)
C9_3 C 0.95725(12) 0.08407(14) 0.31898(12)
O11_3 O 0.89786(16) 0.0185(2) 0.2855(2)
C10_3 C 0.94001(17) 0.0403(2) 0.29470(18)
O18_3 O 0.79156(5) 0.06100(9) 0.39176(4)
C19_3 C 0.77982(6) 0.04400(10) 0.42540(6)
H44_3 H 0.9991 0.1917 0.1198
C97_3 C 0.97939(10) 0.12786(16) 0.14559(10)
C98_3 C 0.99533(12) 0.10390(19) 0.16901(11)
H45_3 H 0.9741 0.0721 0.1769
C101_3 C 0.93227(11) 0.10425(19) 0.13017(11)
C102_3 C 0.89560(11) 0.08551(19) 0.11334(11)
C103_3 C 0.85444(9) 0.06685(16) 0.08861(9)
C104_3 C 0.81480(8) 0.02210(13) 0.09464(8)
H46_3 H 0.8131 0.0041 0.1170
C105_3 C 0.85551(8) 0.09383(13) 0.05668(8)
H47_3 H 0.8820 0.1247 0.0529
C106_3 C 0.77781(7) 0.00409(11) 0.06794(7)
C107_3 C 0.77958(7) 0.03023(10) 0.03543(6)
H48_3 H 0.7547 0.0172 0.0167
C108_3 C 0.81839(7) 0.07600(11) 0.03064(6)
O69_3 O 0.81247(5) 0.18504(9) 0.33650(4)
H49_3 H 0.796818 0.0775535 0.302362
O52_3 O 0.85419(5) 0.14830(9) 0.99684(4)
O53_3 O 0.78967(5) 0.08731(9) 0.97060(4)
C94_3 C 0.82060(7) 0.10586(11) 0.99687(6)
Sc26_3 Sc 0.864962(10) 0.208894(10) 0.966553(9)
O13_3 O 0.70590(7) 0.85170(9) 0.50316(4)
O14_3 O 0.70237(7) 0.91269(9) 0.52940(4)
O16_3 O 0.91436(6) 0.68799(8) 0.31369(5)
H10_3 H 0.9395 0.6874 0.3183
O17_3 O 0.86251(5) 0.73162(7) 0.34905(4)
O21_3 O 0.97149(13) 0.94093(18) 0.28506(11)
C20_3 C 0.84173(7) 0.75182(10) 0.36358(6)
C21_3 C 0.85897(9) 0.80205(12) 0.35169(8)
C22_3 C 0.71475(9) 0.89414(11) 0.50313(6)
C23_3 C 0.89963(11) 0.82629(15) 0.32891(9)
H12_3 H 0.9161 0.8106 0.3202
C24_3 C 0.83511(11) 0.82491(14) 0.36452(9)
H13_3 H 0.8075 0.8083 0.3802
C25_3 C 0.85154(13) 0.87214(16) 0.35441(10)
C26_3 C 0.89144(15) 0.89610(19) 0.33099(11)
H14_3 H 0.9021 0.9279 0.3231
C27_3 C 0.91593(14) 0.87317(18) 0.31898(12)
O22_3 O 0.9815(2) 0.87932(26) 0.2855(2)
C28_3 C 0.9597(2) 0.89967(26) 0.29470(18)
C29_3 C 0.82803(16) 0.89575(19) 0.36983(11)
C30_3 C 0.81010(15) 0.91449(19) 0.38666(11)
C31_3 C 0.78760(13) 0.93315(16) 0.41139(9)
C32_3 C 0.79271(10) 0.97790(13) 0.40536(8)
H15_3 H 0.8091 0.9959 0.3830
C33_3 C 0.76169(10) 0.90617(13) 0.44332(8)
H16_3 H 0.7574 0.8753 0.4471
C34_3 C 0.77373(8) 0.99591(11) 0.43206(7)
C35_3 C 0.74936(7) 0.96977(10) 0.46457(6)
H17_3 H 0.7376 0.9828 0.4833
C36_3 C 0.74240(8) 0.92400(11) 0.46936(6)
O29_3 O 0.93900(9) 0.73055(7) 0.39176(4)
C37_3 C 0.95600(10) 0.73581(8) 0.42540(6)
O46_3 O 0.68799(8) 0.91436(6) 0.18631(5)
H35_3 H 0.6874 0.9395 0.1817
O47_3 O 0.73162(7) 0.86251(5) 0.15095(4)
O50_3 O 0.94093(18) 0.97149(13) 0.21494(11)
C74_3 C 0.75182(10) 0.84173(7) 0.13642(6)
C75_3 C 0.80205(12) 0.85897(9) 0.14831(8)
C77_3 C 0.82629(15) 0.89963(11) 0.17109(9)
H36_3 H 0.8106 0.9161 0.1798
C78_3 C 0.82491(14) 0.83511(11) 0.13548(9)
H37_3 H 0.8083 0.8075 0.1198
C79_3 C 0.87214(16) 0.85154(13) 0.14559(10)
C80_3 C 0.89610(19) 0.89144(15) 0.16901(11)
H38_3 H 0.9279 0.9021 0.1769
C81_3 C 0.87317(18) 0.91593(14) 0.18102(12)
O51_3 O 0.87932(26) 0.9815(2) 0.2145(2)
C82_3 C 0.89967(26) 0.9597(2) 0.20530(18)
C83_3 C 0.89575(19) 0.82803(16) 0.13017(11)
C84_3 C 0.91449(19) 0.81010(15) 0.11334(11)
C85_3 C 0.93315(16) 0.78760(13) 0.08861(9)
C86_3 C 0.97790(13) 0.79271(10) 0.09464(8)
H39_3 H 0.9959 0.8091 0.1170
C87_3 C 0.90617(13) 0.76169(10) 0.05668(8)
H40_3 H 0.8753 0.7574 0.0529
C88_3 C 0.99591(11) 0.77373(8) 0.06794(7)
C89_3 C 0.96977(10) 0.74936(7) 0.03543(6)
H41_3 H 0.9828 0.7376 0.0167
C90_3 C 0.92400(11) 0.74240(8) 0.03064(6)
O57_3 O 0.73055(7) 0.93900(9) 0.10824(4)
C91_3 C 0.73581(8) 0.95600(10) 0.07460(6)
Sc30_3 Sc 0.656068(14) 0.791106(10) 0.533447(9)
O65_3 O 0.62744(7) 0.81496(9) 0.16350(4)
O68_3 O 0.81496(9) 0.62744(7) 0.33650(4)
H51_3 H 0.922447 0.719265 0.302362
H53_3 H 0.719265 0.922447 0.197638
O43_3 O 0.85170(9) 0.70590(7) 0.99684(4)
O44_3 O 0.91269(9) 0.70237(7) 0.97060(4)
C76_3 C 0.89414(11) 0.71475(9) 0.99687(6)
Sc27_3 Sc 0.791106(10) 0.656068(14) 0.966553(9)
Sc3_4 Sc 1.0000 0.9999 0.2500
Sc3_5 Sc 0.0001 0.0000 0.2500
O31_3 O 0.37780(6) 0.00000(8) 0.7500
H27_3 H 0.3716 0.0049 0.7273
O73_3 O 0.45634(5) 0.03570(7) 0.80393(4)
O9_3 O 0.62221(6) 0.62220(6) 0.7500
H2_3 H 0.6284 0.6332 0.7727
H9_3 H 0.6332 0.6284 0.7273
O20_3 O -0.00000(8) 0.37779(6) 0.7500
H11_3 H 0.0049 0.3716 0.7727
O31_4 O 0.37780(6) 1.00000(8) 0.7500
H20_3 H 0.3668 0.9951 0.7727
O70_3 O 0.03570(7) 0.45634(5) 0.69607(4)
O71_3 O 0.42064(9) 0.96430(7) 0.69607(4)
O72_3 O 0.54366(5) 0.57936(9) 0.69607(4)
O75_3 O 0.57936(9) 0.54366(5) 0.80393(4)
O20_4 O 1.00000(8) 0.37779(6) 0.7500
H18_3 H 0.9951 0.3668 0.7273
O74_3 O 0.96430(7) 0.42064(9) 0.80393(4)
Sc3_6 Sc 0.0000 1.0000 0.2500
O62_3 O 0.00000(7) 0.49436(5) 0.2500
O79_2 O 0.04216(6) 0.43981(5) 0.21323(4)
Sc3_7 Sc 0.6667 0.3333 0.0833
O5_4 O 0.89303(6) 0.24769(6) 0.01964(5)
H1_4 H 0.9187 0.2728 0.0150
O10_4 O 0.69722(12) 0.30482(13) 0.04827(11)
C5_4 C 0.74000(10) 0.23296(11) 0.00442(9)
H3_4 H 0.7721 0.2494 0.0131
C8_4 C 0.66200(12) 0.22477(15) 0.00234(11)
H5_4 H 0.6408 0.2354 0.0102
C9_4 C 0.70942(12) 0.24926(14) 0.01435(12)
O11_4 O 0.76881(16) 0.3148(2) 0.0478(2)
C10_4 C 0.72666(17) 0.2930(2) 0.03863(18)
O16_4 O 0.75231(6) 0.64534(8) 0.01964(5)
H10_4 H 0.7272 0.6459 0.0150
O21_4 O 0.69518(13) 0.39240(18) 0.04827(11)
C23_4 C 0.76704(11) 0.50704(15) 0.00442(9)
H12_4 H 0.7506 0.5227 0.0131
C26_4 C 0.77523(15) 0.43723(19) 0.00234(11)
H14_4 H 0.7646 0.4054 0.0102
C27_4 C 0.75074(14) 0.46016(18) 0.01435(12)
O22_4 O 0.6852(2) 0.45401(26) 0.0478(2)
C28_4 C 0.7070(2) 0.43366(26) 0.03863(18)
O27_4 O 0.35466(8) 0.10697(6) 0.01964(5)
H19_4 H 0.3541 0.0813 0.0150
O32_4 O 0.60760(18) 0.30278(12) 0.04827(11)
C41_4 C 0.49296(15) 0.26000(10) 0.00442(9)
H21_4 H 0.4773 0.2279 0.0131
C44_4 C 0.56277(19) 0.33800(12) 0.00234(11)
H23_4 H 0.5946 0.3592 0.0102
C45_4 C 0.53984(18) 0.29058(12) 0.01435(12)
O33_4 O 0.54599(26) 0.23119(16) 0.0478(2)
C46_4 C 0.56634(26) 0.27334(17) 0.03863(18)
O36_3 O 0.47471(5) 0.40821(5) 0.22103(4)
O37_4 O 0.58102(6) 0.55970(6) 0.14703(5)
H28_4 H 0.6061 0.5854 0.1517
O38_4 O 0.52917(5) 0.46422(5) 0.18239(4)
O39_4 O 0.45822(5) 0.06389(7) 0.22510(4)
O40_2 O 0.43981(5) 0.04216(6) 0.28677(4)
C55_4 C 0.44648(6) 0.06915(8) 0.25874(6)
O41_4 O 0.63815(13) 0.36389(12) 0.11840(11)
C56_4 C 0.50839(7) 0.42324(7) 0.19692(6)
C57_4 C 0.52563(9) 0.39025(8) 0.18503(8)
C58_4 C 0.38141(9) 0.15394(7) 0.33647(6)
C59_4 C 0.56629(11) 0.40667(10) 0.16225(9)
H29_4 H 0.5827 0.4388 0.1536
C60_4 C 0.50177(11) 0.34353(9) 0.19786(9)
H30_4 H 0.4741 0.3325 0.2136
C61_4 C 0.51820(13) 0.31273(10) 0.18775(10)
C62_4 C 0.55810(15) 0.32867(12) 0.16433(11)
H31_4 H 0.5687 0.3075 0.1565
C63_4 C 0.58259(14) 0.37609(12) 0.15232(12)
O42_4 O 0.6481(2) 0.43548(16) 0.1189(2)
C64_4 C 0.6263(2) 0.39333(17) 0.12804(18)
C65_4 C 0.49469(16) 0.26561(11) 0.20317(11)
C66_4 C 0.47676(15) 0.22894(11) 0.22000(11)
C67_4 C 0.45426(13) 0.18778(9) 0.24473(9)
C68_4 C 0.45937(10) 0.14814(8) 0.23870(8)
H32_4 H 0.4757 0.1465 0.2164
C69_4 C 0.42835(10) 0.18885(8) 0.27666(8)
H33_4 H 0.4240 0.2154 0.2805
C70_4 C 0.44039(8) 0.11115(7) 0.26540(7)
C71_4 C 0.41602(7) 0.11292(7) 0.29791(6)
H34_4 H 0.4042 0.0881 0.3167
C72_4 C 0.40906(8) 0.15173(7) 0.30270(6)
O45_3 O 0.93349(7) 0.52529(5) 0.22103(4)
O46_4 O 0.97867(8) 0.41898(6) 0.14703(5)
H35_4 H 0.9792 0.3939 0.1517
O47_4 O 0.93504(7) 0.47083(5) 0.18239(4)
O48_4 O 0.60566(9) 0.54178(5) 0.22510(4)
O49_2 O 0.60234(8) 0.56019(5) 0.28677(4)
C73_4 C 0.62266(10) 0.55352(6) 0.25874(6)
O50_4 O 0.72573(18) 0.36185(13) 0.11840(11)
C74_4 C 0.91484(10) 0.49161(7) 0.19692(6)
C75_4 C 0.86461(12) 0.47437(9) 0.18503(8)
C76_4 C 0.77252(11) 0.61859(9) 0.33647(6)
C77_4 C 0.84037(15) 0.43371(11) 0.16225(9)
H36_4 H 0.8560 0.4173 0.1536
C78_4 C 0.84175(14) 0.49823(11) 0.19786(9)
H37_4 H 0.8583 0.5259 0.2136
C79_4 C 0.79452(16) 0.48180(13) 0.18775(10)
C80_4 C 0.77056(19) 0.44190(15) 0.16433(11)
H38_4 H 0.7387 0.4313 0.1565
C81_4 C 0.79349(18) 0.41741(14) 0.15232(12)
O51_4 O 0.78734(26) 0.3519(2) 0.1189(2)
C82_4 C 0.76699(26) 0.3737(2) 0.12804(18)
C83_4 C 0.77091(19) 0.50531(16) 0.20317(11)
C84_4 C 0.75217(19) 0.52324(15) 0.22000(11)
C85_4 C 0.73351(16) 0.54574(13) 0.24473(9)
C86_4 C 0.68876(13) 0.54063(10) 0.23870(8)
H39_4 H 0.6707 0.5243 0.2164
C87_4 C 0.76049(13) 0.57165(10) 0.27666(8)
H40_4 H 0.7913 0.5760 0.2805
C88_4 C 0.67075(11) 0.55961(8) 0.26540(7)
C89_4 C 0.69689(10) 0.58398(7) 0.29791(6)
H41_4 H 0.6838 0.5958 0.3167
C90_4 C 0.74266(11) 0.59094(8) 0.30270(6)
O54_3 O 0.59179(5) 0.06651(7) 0.22103(4)
O55_4 O 0.44030(6) 0.02133(8) 0.14703(5)
H42_4 H 0.4146 0.0208 0.1517
O56_4 O 0.53578(5) 0.06496(7) 0.18239(4)
O57_4 O 0.93611(7) 0.39434(9) 0.22510(4)
O58_2 O 0.95784(6) 0.39766(8) 0.28677(4)
C91_4 C 0.93085(8) 0.37734(10) 0.25874(6)
O59_4 O 0.63611(12) 0.27427(18) 0.11840(11)
C92_4 C 0.57676(7) 0.08516(10) 0.19692(6)
C93_4 C 0.60975(8) 0.13539(12) 0.18503(8)
C94_4 C 0.84606(7) 0.22748(11) 0.33647(6)
C95_4 C 0.59333(10) 0.15963(15) 0.16225(9)
H43_4 H 0.5612 0.1440 0.1536
C96_4 C 0.65647(9) 0.15825(14) 0.19786(9)
H44_4 H 0.6675 0.1417 0.2136
C97_4 C 0.68727(10) 0.20548(16) 0.18775(10)
C98_4 C 0.67133(12) 0.22944(19) 0.16433(11)
H45_4 H 0.6925 0.2613 0.1565
C99_4 C 0.62391(12) 0.20651(18) 0.15232(12)
O60_4 O 0.56452(16) 0.21266(26) 0.1189(2)
C100_4 C 0.60667(17) 0.23301(26) 0.12804(18)
C101_4 C 0.73439(11) 0.22909(19) 0.20317(11)
C102_4 C 0.77106(11) 0.24783(19) 0.22000(11)
C103_4 C 0.81222(9) 0.26649(16) 0.24473(9)
C104_4 C 0.85186(8) 0.31124(13) 0.23870(8)
H46_4 H 0.8535 0.3293 0.2164
C105_4 C 0.81115(8) 0.23951(13) 0.27666(8)
H47_4 H 0.7846 0.2087 0.2805
C106_4 C 0.88885(7) 0.32925(11) 0.26540(7)
C107_4 C 0.88708(7) 0.30311(10) 0.29791(6)
H48_4 H 0.9119 0.3162 0.3167
C108_4 C 0.84827(7) 0.25734(11) 0.30270(6)
O61_2 O 0.50564(5) 0.50565(5) 0.2500
O62_4 O 1.00000(7) 0.49436(5) 0.2500
O63_3 O 0.49435(5) -0.00000(7) 0.2500
O80_2 O 0.56019(5) 0.60234(8) 0.21323(4)
H49_4 H 0.869848 0.25578 0.0309713
H50_4 H 0.385932 0.130152 0.0309713
H51_4 H 0.74422 0.614068 0.0309713
H52_4 H 0.589113 0.536515 0.135695
H53_4 H 0.947402 0.410887 0.135695
H54_4 H 0.463485 0.0525983 0.135695
O1_3 O 0.83898(5) 0.17231(5) 0.9167
O4_3 O 0.74154(5) 0.14138(5) 0.94564(4)
O6_4 O 0.79755(5) 0.19584(5) 0.98428(4)
O7_4 O 0.39722(7) 0.12489(5) 0.94157(4)
O8_3 O 0.37549(6) 0.10648(5) 0.87990(4)
O9_4 O 0.71113(6) 0.04446(6) 0.9167
H2_4 H 0.7001 0.0383 0.9394
C1_4 C 0.40248(8) 0.11315(6) 0.90793(6)
C2_4 C 0.75657(7) 0.17506(7) 0.96975(6)
C3_4 C 0.72358(8) 0.19230(9) 0.98164(8)
C4_4 C 0.48727(7) 0.04808(9) 0.83020(6)
C6_4 C 0.67686(9) 0.16844(11) 0.96881(9)
H4_4 H 0.6658 0.1408 0.9531
C7_4 C 0.64606(10) 0.18487(13) 0.97892(10)
C11_4 C 0.59894(11) 0.16136(16) 0.96350(11)
C12_4 C 0.56227(11) 0.14343(15) 0.94667(11)
C13_4 C 0.52111(9) 0.12093(13) 0.92194(9)
C14_4 C 0.48147(8) 0.12604(10) 0.92797(8)
H6_4 H 0.4798 0.1424 0.9503
C15_4 C 0.52218(8) 0.09502(10) 0.89001(8)
H7_4 H 0.5487 0.0907 0.8862
C16_4 C 0.44448(7) 0.10706(8) 0.90127(7)
C17_4 C 0.44625(7) 0.08269(7) 0.86876(6)
H8_4 H 0.4214 0.0709 0.8500
C18_4 C 0.48506(7) 0.07573(8) 0.86397(6)
H9_4 H 0.7050 0.0334 0.8939
O12_3 O 0.82769(5) 0.66667(7) 0.9167
O15_3 O 0.85862(5) 0.60016(7) 0.94564(4)
O17_4 O 0.80416(5) 0.60171(7) 0.98428(4)
O18_4 O 0.87511(5) 0.27233(9) 0.94157(4)
O19_3 O 0.89352(5) 0.26901(8) 0.87990(4)
O20_5 O 0.95554(6) 0.66667(8) 0.9167
H11_4 H 0.9617 0.6618 0.9394
C19_4 C 0.88685(6) 0.28933(10) 0.90793(6)
C20_4 C 0.82494(7) 0.58151(10) 0.96975(6)
C21_4 C 0.80770(9) 0.53128(12) 0.98164(8)
C22_4 C 0.95192(9) 0.43919(11) 0.83020(6)
C24_4 C 0.83156(11) 0.50842(14) 0.96881(9)
H13_4 H 0.8592 0.5250 0.9531
C25_4 C 0.81513(13) 0.46119(16) 0.97892(10)
C29_4 C 0.83864(16) 0.43758(19) 0.96350(11)
C30_4 C 0.85657(15) 0.41884(19) 0.94667(11)
C31_4 C 0.87907(13) 0.40018(16) 0.92194(9)
C32_4 C 0.87396(10) 0.35543(13) 0.92797(8)
H15_4 H 0.8576 0.3374 0.9503
C33_4 C 0.90498(10) 0.42716(13) 0.89001(8)
H16_4 H 0.9093 0.4580 0.8862
C34_4 C 0.89294(8) 0.33742(11) 0.90127(7)
C35_4 C 0.91731(7) 0.36356(10) 0.86876(6)
H17_4 H 0.9291 0.3505 0.8500
C36_4 C 0.92427(8) 0.40933(11) 0.86397(6)
H18_4 H 0.9666 0.6715 0.8939
O23_3 O 0.33333(7) 0.16102(5) 0.9167
O26_3 O 0.39984(7) 0.25846(5) 0.94564(4)
O28_4 O 0.39829(7) 0.20245(5) 0.98428(4)
O29_4 O 0.72767(9) 0.60278(7) 0.94157(4)
O30_3 O 0.73099(8) 0.62451(6) 0.87990(4)
O31_5 O 0.33333(8) 0.28887(6) 0.9167
H20_4 H 0.3382 0.2999 0.9394
C37_4 C 0.71067(10) 0.59752(8) 0.90793(6)
C38_4 C 0.41849(10) 0.24343(7) 0.96975(6)
C39_4 C 0.46872(12) 0.27642(8) 0.98164(8)
C40_4 C 0.56081(11) 0.51273(7) 0.83020(6)
C42_4 C 0.49158(14) 0.32314(9) 0.96881(9)
H22_4 H 0.4750 0.3342 0.9531
C43_4 C 0.53881(16) 0.35394(10) 0.97892(10)
C47_4 C 0.56242(19) 0.40106(11) 0.96350(11)
C48_4 C 0.58116(19) 0.43773(11) 0.94667(11)
C49_4 C 0.59982(16) 0.47889(9) 0.92194(9)
C50_4 C 0.64457(13) 0.51853(8) 0.92797(8)
H24_4 H 0.6626 0.5202 0.9503
C51_4 C 0.57284(13) 0.47782(8) 0.89001(8)
H25_4 H 0.5420 0.4513 0.8862
C52_4 C 0.66258(11) 0.55552(7) 0.90127(7)
C53_4 C 0.63644(10) 0.55375(7) 0.86876(6)
H26_4 H 0.6495 0.5786 0.8500
C54_4 C 0.59067(11) 0.51494(7) 0.86397(6)
H27_4 H 0.3285 0.2950 0.8939
O76_3 O 0.80805(5) 0.07487(5) 0.88769(4)
O77_3 O 0.26683(7) 0.19195(5) 0.88769(4)
O78_3 O 0.92513(5) 0.73317(7) 0.88769(4)
O82_3 O 0.77315(5) 0.70882(6) 0.95343(4)
O83_3 O 0.93568(8) 0.22685(5) 0.95343(4)
O84_3 O 0.29118(6) 0.06432(8) 0.95343(4)
O63_4 O 0.49435(5) 1.00000(7) 0.2500
O81_2 O 0.39766(8) 0.95784(6) 0.21323(4)
Sc3_8 Sc 0.3333 0.6667 0.4167
O1_4 O 0.17231(5) 0.83898(5) 0.5833
O4_4 O 0.14138(5) 0.74154(5) 0.55436(4)
O5_5 O 0.24769(6) 0.89303(6) 0.48036(5)
H1_5 H 0.2728 0.9187 0.4850
O6_5 O 0.19584(5) 0.79755(5) 0.51572(4)
O7_5 O 0.12489(5) 0.39722(7) 0.55843(4)
O8_4 O 0.10648(5) 0.37549(6) 0.62010(4)
O9_5 O 0.04446(6) 0.71113(6) 0.5833
H2_5 H 0.0383 0.7001 0.5606
C1_5 C 0.11315(6) 0.40248(8) 0.59207(6)
O10_5 O 0.30482(13) 0.69722(12) 0.45173(11)
C2_5 C 0.17506(7) 0.75657(7) 0.53025(6)
C3_5 C 0.19230(9) 0.72358(8) 0.51836(8)
C4_5 C 0.04808(9) 0.48727(7) 0.66980(6)
C5_5 C 0.23296(11) 0.74000(10) 0.49558(9)
H3_5 H 0.2494 0.7721 0.4869
C6_5 C 0.16844(11) 0.67686(9) 0.53119(9)
H4_5 H 0.1408 0.6658 0.5469
C7_5 C 0.18487(13) 0.64606(10) 0.52108(10)
C8_5 C 0.22477(15) 0.66200(12) 0.49766(11)
H5_5 H 0.2354 0.6408 0.4898
C9_5 C 0.24926(14) 0.70942(12) 0.48565(12)
O11_5 O 0.3148(2) 0.76881(16) 0.4522(2)
C10_5 C 0.2930(2) 0.72666(17) 0.46137(18)
C11_5 C 0.16136(16) 0.59894(11) 0.53650(11)
C12_5 C 0.14343(15) 0.56227(11) 0.55333(11)
C13_5 C 0.12093(13) 0.52111(9) 0.57806(9)
C14_5 C 0.12604(10) 0.48147(8) 0.57203(8)
H6_5 H 0.1424 0.4798 0.5497
C15_5 C 0.09502(10) 0.52218(8) 0.60999(8)
H7_5 H 0.0907 0.5487 0.6138
C16_5 C 0.10706(8) 0.44448(7) 0.59873(7)
C17_5 C 0.08269(7) 0.44625(7) 0.63124(6)
H8_5 H 0.0709 0.4214 0.6500
C18_5 C 0.07573(8) 0.48506(7) 0.63603(6)
H9_5 H 0.0334 0.7050 0.6061
O12_4 O 0.66667(7) 0.82769(5) 0.5833
O15_4 O 0.60016(7) 0.85862(5) 0.55436(4)
O16_5 O 0.64534(8) 0.75231(6) 0.48036(5)
H10_5 H 0.6459 0.7272 0.4850
O17_5 O 0.60171(7) 0.80416(5) 0.51572(4)
O18_5 O 0.27233(9) 0.87511(5) 0.55843(4)
O19_4 O 0.26901(8) 0.89352(5) 0.62010(4)
O20_6 O 0.66667(8) 0.95554(6) 0.5833
H11_5 H 0.6618 0.9617 0.5606
C19_5 C 0.28933(10) 0.88685(6) 0.59207(6)
O21_5 O 0.39240(18) 0.69518(13) 0.45173(11)
C20_5 C 0.58151(10) 0.82494(7) 0.53025(6)
C21_5 C 0.53128(12) 0.80770(9) 0.51836(8)
C22_5 C 0.43919(11) 0.95192(9) 0.66980(6)
C23_5 C 0.50704(15) 0.76704(11) 0.49558(9)
H12_5 H 0.5227 0.7506 0.4869
C24_5 C 0.50842(14) 0.83156(11) 0.53119(9)
H13_5 H 0.5250 0.8592 0.5469
C25_5 C 0.46119(16) 0.81513(13) 0.52108(10)
C26_5 C 0.43723(19) 0.77523(15) 0.49766(11)
H14_5 H 0.4054 0.7646 0.4898
C27_5 C 0.46016(18) 0.75074(14) 0.48565(12)
O22_5 O 0.45401(26) 0.6852(2) 0.4522(2)
C28_5 C 0.43366(26) 0.7070(2) 0.46137(18)
C29_5 C 0.43758(19) 0.83864(16) 0.53650(11)
C30_5 C 0.41884(19) 0.85657(15) 0.55333(11)
C31_5 C 0.40018(16) 0.87907(13) 0.57806(9)
C32_5 C 0.35543(13) 0.87396(10) 0.57203(8)
H15_5 H 0.3374 0.8576 0.5497
C33_5 C 0.42716(13) 0.90498(10) 0.60999(8)
H16_5 H 0.4580 0.9093 0.6138
C34_5 C 0.33742(11) 0.89294(8) 0.59873(7)
C35_5 C 0.36356(10) 0.91731(7) 0.63124(6)
H17_5 H 0.3505 0.9291 0.6500
C36_5 C 0.40933(11) 0.92427(8) 0.63603(6)
H18_5 H 0.6715 0.9666 0.6061
O23_4 O 0.16102(5) 0.33333(7) 0.5833
O26_4 O 0.25846(5) 0.39984(7) 0.55436(4)
O27_5 O 0.10697(6) 0.35466(8) 0.48036(5)
H19_5 H 0.0813 0.3541 0.4850
O28_5 O 0.20245(5) 0.39829(7) 0.51572(4)
O29_5 O 0.60278(7) 0.72767(9) 0.55843(4)
O30_4 O 0.62451(6) 0.73099(8) 0.62010(4)
O31_6 O 0.28887(6) 0.33333(8) 0.5833
H20_5 H 0.2999 0.3382 0.5606
C37_5 C 0.59752(8) 0.71067(10) 0.59207(6)
O32_5 O 0.30278(12) 0.60760(18) 0.45173(11)
C38_5 C 0.24343(7) 0.41849(10) 0.53025(6)
C39_5 C 0.27642(8) 0.46872(12) 0.51836(8)
C40_5 C 0.51273(7) 0.56081(11) 0.66980(6)
C41_5 C 0.26000(10) 0.49296(15) 0.49558(9)
H21_5 H 0.2279 0.4773 0.4869
C42_5 C 0.32314(9) 0.49158(14) 0.53119(9)
H22_5 H 0.3342 0.4750 0.5469
C43_5 C 0.35394(10) 0.53881(16) 0.52108(10)
C44_5 C 0.33800(12) 0.56277(19) 0.49766(11)
H23_5 H 0.3592 0.5946 0.4898
C45_5 C 0.29058(12) 0.53984(18) 0.48565(12)
O33_5 O 0.23119(16) 0.54599(26) 0.4522(2)
C46_5 C 0.27334(17) 0.56634(26) 0.46137(18)
C47_5 C 0.40106(11) 0.56242(19) 0.53650(11)
C48_5 C 0.43773(11) 0.58116(19) 0.55333(11)
C49_5 C 0.47889(9) 0.59982(16) 0.57806(9)
C50_5 C 0.51853(8) 0.64457(13) 0.57203(8)
H24_5 H 0.5202 0.6626 0.5497
C51_5 C 0.47782(8) 0.57284(13) 0.60999(8)
H25_5 H 0.4513 0.5420 0.6138
C52_5 C 0.55552(7) 0.66258(11) 0.59873(7)
C53_5 C 0.55375(7) 0.63644(10) 0.63124(6)
H26_5 H 0.5786 0.6495 0.6500
C54_5 C 0.51494(7) 0.59067(11) 0.63603(6)
H27_5 H 0.2950 0.3285 0.6061
O36_4 O 0.40821(5) 0.47471(5) 0.27897(4)
O37_5 O 0.55970(6) 0.58102(6) 0.35297(5)
H28_5 H 0.5854 0.6061 0.3483
O38_5 O 0.46422(5) 0.52917(5) 0.31761(4)
O39_5 O 0.06389(7) 0.45822(5) 0.27490(4)
C55_5 C 0.06915(8) 0.44648(6) 0.24126(6)
O41_5 O 0.36389(12) 0.63815(13) 0.38160(11)
C56_5 C 0.42324(7) 0.50839(7) 0.30308(6)
C57_5 C 0.39025(8) 0.52563(9) 0.31497(8)
C58_5 C 0.15394(7) 0.38141(9) 0.16353(6)
C59_5 C 0.40667(10) 0.56629(11) 0.33775(9)
H29_5 H 0.4388 0.5827 0.3464
C60_5 C 0.34353(9) 0.50177(11) 0.30214(9)
H30_5 H 0.3325 0.4741 0.2864
C61_5 C 0.31273(10) 0.51820(13) 0.31225(10)
C62_5 C 0.32867(12) 0.55810(15) 0.33567(11)
H31_5 H 0.3075 0.5687 0.3435
C63_5 C 0.37609(12) 0.58259(14) 0.34768(12)
O42_5 O 0.43548(16) 0.6481(2) 0.3811(2)
C64_5 C 0.39333(17) 0.6263(2) 0.37196(18)
C65_5 C 0.26561(11) 0.49469(16) 0.29683(11)
C66_5 C 0.22894(11) 0.47676(15) 0.28000(11)
C67_5 C 0.18778(9) 0.45426(13) 0.25527(9)
C68_5 C 0.14814(8) 0.45937(10) 0.26130(8)
H32_5 H 0.1465 0.4757 0.2836
C69_5 C 0.18885(8) 0.42835(10) 0.22334(8)
H33_5 H 0.2154 0.4240 0.2195
C70_5 C 0.11115(7) 0.44039(8) 0.23460(7)
C71_5 C 0.11292(7) 0.41602(7) 0.20209(6)
H34_5 H 0.0881 0.4042 0.1833
C72_5 C 0.15173(7) 0.40906(8) 0.19730(6)
O45_4 O 0.52529(5) 0.93349(7) 0.27897(4)
O46_5 O 0.41898(6) 0.97867(8) 0.35297(5)
H35_5 H 0.3939 0.9792 0.3483
O47_5 O 0.47083(5) 0.93504(7) 0.31761(4)
O48_5 O 0.54178(5) 0.60566(9) 0.27490(4)
C73_5 C 0.55352(6) 0.62266(10) 0.24126(6)
O50_5 O 0.36185(13) 0.72573(18) 0.38160(11)
C74_5 C 0.49161(7) 0.91484(10) 0.30308(6)
C75_5 C 0.47437(9) 0.86461(12) 0.31497(8)
C76_5 C 0.61859(9) 0.77252(11) 0.16353(6)
C77_5 C 0.43371(11) 0.84037(15) 0.33775(9)
H36_5 H 0.4173 0.8560 0.3464
C78_5 C 0.49823(11) 0.84175(14) 0.30214(9)
H37_5 H 0.5259 0.8583 0.2864
C79_5 C 0.48180(13) 0.79452(16) 0.31225(10)
C80_5 C 0.44190(15) 0.77056(19) 0.33567(11)
H38_5 H 0.4313 0.7387 0.3435
C81_5 C 0.41741(14) 0.79349(18) 0.34768(12)
O51_5 O 0.3519(2) 0.78734(26) 0.3811(2)
C82_5 C 0.3737(2) 0.76699(26) 0.37196(18)
C83_5 C 0.50531(16) 0.77091(19) 0.29683(11)
C84_5 C 0.52324(15) 0.75217(19) 0.28000(11)
C85_5 C 0.54574(13) 0.73351(16) 0.25527(9)
C86_5 C 0.54063(10) 0.68876(13) 0.26130(8)
H39_5 H 0.5243 0.6707 0.2836
C87_5 C 0.57165(10) 0.76049(13) 0.22334(8)
H40_5 H 0.5760 0.7913 0.2195
C88_5 C 0.55961(8) 0.67075(11) 0.23460(7)
C89_5 C 0.58398(7) 0.69689(10) 0.20209(6)
H41_5 H 0.5958 0.6838 0.1833
C90_5 C 0.59094(8) 0.74266(11) 0.19730(6)
O54_4 O 0.06651(7) 0.59179(5) 0.27897(4)
O55_5 O 0.02133(8) 0.44030(6) 0.35297(5)
H42_5 H 0.0208 0.4146 0.3483
O56_5 O 0.06496(7) 0.53578(5) 0.31761(4)
O57_5 O 0.39434(9) 0.93611(7) 0.27490(4)
C91_5 C 0.37734(10) 0.93085(8) 0.24126(6)
O59_5 O 0.27427(18) 0.63611(12) 0.38160(11)
C92_5 C 0.08516(10) 0.57676(7) 0.30308(6)
C93_5 C 0.13539(12) 0.60975(8) 0.31497(8)
C94_5 C 0.22748(11) 0.84606(7) 0.16353(6)
C95_5 C 0.15963(15) 0.59333(10) 0.33775(9)
H43_5 H 0.1440 0.5612 0.3464
C96_5 C 0.15825(14) 0.65647(9) 0.30214(9)
H44_5 H 0.1417 0.6675 0.2864
C97_5 C 0.20548(16) 0.68727(10) 0.31225(10)
C98_5 C 0.22944(19) 0.67133(12) 0.33567(11)
H45_5 H 0.2613 0.6925 0.3435
C99_5 C 0.20651(18) 0.62391(12) 0.34768(12)
O60_5 O 0.21266(26) 0.56452(16) 0.3811(2)
C100_5 C 0.23301(26) 0.60667(17) 0.37196(18)
C101_5 C 0.22909(19) 0.73439(11) 0.29683(11)
C102_5 C 0.24783(19) 0.77106(11) 0.28000(11)
C103_5 C 0.26649(16) 0.81222(9) 0.25527(9)
C104_5 C 0.31124(13) 0.85186(8) 0.26130(8)
H46_5 H 0.3293 0.8535 0.2836
C105_5 C 0.23951(13) 0.81115(8) 0.22334(8)
H47_5 H 0.2087 0.7846 0.2195
C106_5 C 0.32925(11) 0.88885(7) 0.23460(7)
C107_5 C 0.30311(10) 0.88708(7) 0.20209(6)
H48_5 H 0.3162 0.9119 0.1833
C108_5 C 0.25734(11) 0.84827(7) 0.19730(6)
O76_4 O 0.07487(5) 0.80805(5) 0.61231(4)
O77_4 O 0.19195(5) 0.26683(7) 0.61231(4)
O78_4 O 0.73317(7) 0.92513(5) 0.61231(4)
O82_4 O 0.70882(6) 0.77315(5) 0.54657(4)
O83_4 O 0.22685(5) 0.93568(8) 0.54657(4)
O84_4 O 0.06432(8) 0.29118(6) 0.54657(4)
H49_5 H 0.25578 0.869848 0.469029
H50_5 H 0.130152 0.385932 0.469029
H51_5 H 0.614068 0.74422 0.469029
H52_5 H 0.536515 0.589113 0.364305
H53_5 H 0.410887 0.947402 0.364305
H54_5 H 0.0525983 0.463485 0.364305
C76_6 C 0.10586(11) 0.28525(9) 0.00313(6)
O16_6 O 0.08564(6) 0.31201(8) 0.68631(5)
H10_6 H 0.0605 0.3126 0.6817
O17_6 O 0.13749(5) 0.26838(7) 0.65095(4)
O21_6 O 0.02851(13) 0.05907(18) 0.71494(11)
C20_6 C 0.15827(7) 0.24818(10) 0.63642(6)
C21_6 C 0.14103(9) 0.19795(12) 0.64831(8)
C22_6 C 0.28525(9) 0.10586(11) 0.49687(6)
C23_6 C 0.10037(11) 0.17371(15) 0.67109(9)
H12_6 H 0.0839 0.1894 0.6798
C24_6 C 0.16489(11) 0.17509(14) 0.63548(9)
H13_6 H 0.1925 0.1917 0.6198
C25_6 C 0.14846(13) 0.12786(16) 0.64559(10)
C26_6 C 0.10856(15) 0.10390(19) 0.66901(11)
H14_6 H 0.0979 0.0721 0.6769
C27_6 C 0.08407(14) 0.12683(18) 0.68102(12)
O22_6 O 0.0185(2) 0.12068(26) 0.7145(2)
C28_6 C 0.0403(2) 0.10033(26) 0.70530(18)
C29_6 C 0.17197(16) 0.10425(19) 0.63017(11)
C30_6 C 0.18990(15) 0.08551(19) 0.61334(11)
C31_6 C 0.21240(13) 0.06685(16) 0.58861(9)
C32_6 C 0.20729(10) 0.02210(13) 0.59464(8)
H15_6 H 0.1909 0.0041 0.6170
C33_6 C 0.23831(10) 0.09383(13) 0.55668(8)
H16_6 H 0.2426 0.1247 0.5529
C34_6 C 0.22627(8) 0.00409(11) 0.56794(7)
C35_6 C 0.25064(7) 0.03023(10) 0.53543(6)
H17_6 H 0.2624 0.0172 0.5167
C36_6 C 0.25760(8) 0.07600(11) 0.53064(6)
O29_6 O 0.06100(9) 0.26945(7) 0.60824(4)
C37_6 C 0.04400(10) 0.26419(8) 0.57460(6)
O46_6 O 0.31201(8) 0.08564(6) 0.81369(5)
H35_6 H 0.3126 0.0605 0.8183
O47_6 O 0.26838(7) 0.13749(5) 0.84905(4)
O50_6 O 0.05907(18) 0.02851(13) 0.78506(11)
C74_6 C 0.24818(10) 0.15827(7) 0.86358(6)
C75_6 C 0.19795(12) 0.14103(9) 0.85169(8)
C77_6 C 0.17371(15) 0.10037(11) 0.82891(9)
H36_6 H 0.1894 0.0839 0.8202
C78_6 C 0.17509(14) 0.16489(11) 0.86452(9)
H37_6 H 0.1917 0.1925 0.8802
C79_6 C 0.12786(16) 0.14846(13) 0.85441(10)
C80_6 C 0.10390(19) 0.10856(15) 0.83099(11)
H38_6 H 0.0721 0.0979 0.8231
C81_6 C 0.12683(18) 0.08407(14) 0.81898(12)
O51_6 O 0.12068(26) 0.0185(2) 0.7855(2)
C82_6 C 0.10033(26) 0.0403(2) 0.79470(18)
C83_6 C 0.10425(19) 0.17197(16) 0.86983(11)
C84_6 C 0.08551(19) 0.18990(15) 0.88666(11)
C85_6 C 0.06685(16) 0.21240(13) 0.91139(9)
C86_6 C 0.02210(13) 0.20729(10) 0.90536(8)
H39_6 H 0.0041 0.1909 0.8830
C87_6 C 0.09383(13) 0.23831(10) 0.94332(8)
H40_6 H 0.1247 0.2426 0.9471
C88_6 C 0.00409(11) 0.22627(8) 0.93206(7)
C89_6 C 0.03023(10) 0.25064(7) 0.96457(6)
H41_6 H 0.0172 0.2624 0.9833
C90_6 C 0.07600(11) 0.25760(8) 0.96936(6)
O57_6 O 0.26945(7) 0.06100(9) 0.89176(4)
C91_6 C 0.26419(8) 0.04400(10) 0.92540(6)
H51_6 H 0.0775535 0.280735 0.697638
H53_6 H 0.280735 0.0775535 0.802362
C94_6 C 0.17940(7) 0.89414(11) 0.00313(6)
Sc3_9 Sc 0.0000 1.0000 0.7500
O5_6 O 0.22636(6) 0.91436(6) 0.68631(5)
H1_6 H 0.2520 0.9395 0.6817
O6_6 O 0.13088(5) 0.86251(5) 0.65095(4)
O10_6 O 0.03055(12) 0.97149(13) 0.71494(11)
C2_6 C 0.08990(7) 0.84173(7) 0.63642(6)
C3_6 C 0.05691(8) 0.85897(9) 0.64831(8)
C5_6 C 0.07333(10) 0.89963(11) 0.67109(9)
H3_6 H 0.1054 0.9161 0.6798
C6_6 C 0.01019(9) 0.83511(11) 0.63548(9)
C9_6 C 0.04275(12) 0.91593(14) 0.68102(12)
O11_6 O 0.10214(16) 0.9815(2) 0.7145(2)
C10_6 C 0.05999(17) 0.9597(2) 0.70530(18)
O18_6 O 0.20844(5) 0.93900(9) 0.60824(4)
C19_6 C 0.22018(6) 0.95600(10) 0.57460(6)
H44_6 H 0.0009 0.8083 0.8802
C97_6 C 0.02061(10) 0.87214(16) 0.85441(10)
C98_6 C 0.00467(12) 0.89610(19) 0.83099(11)
H45_6 H 0.0259 0.9279 0.8231
C101_6 C 0.06773(11) 0.89575(19) 0.86983(11)
C102_6 C 0.10440(11) 0.91449(19) 0.88666(11)
C103_6 C 0.14556(9) 0.93315(16) 0.91139(9)
C104_6 C 0.18520(8) 0.97790(13) 0.90536(8)
H46_6 H 0.1869 0.9959 0.8830
C105_6 C 0.14449(8) 0.90617(13) 0.94332(8)
H47_6 H 0.1180 0.8753 0.9471
C106_6 C 0.22219(7) 0.99591(11) 0.93206(7)
C107_6 C 0.22042(7) 0.96977(10) 0.96457(6)
H48_6 H 0.2453 0.9828 0.9833
C108_6 C 0.18161(7) 0.92400(11) 0.96936(6)
H49_6 H 0.203182 0.922447 0.697638
C40_6 C 0.89414(11) 0.17940(7) 0.49687(6)
H22_6 H 0.8083 0.0009 0.6198
C43_6 C 0.87214(16) 0.02061(10) 0.64559(10)
C44_6 C 0.89610(19) 0.00467(12) 0.66901(11)
H23_6 H 0.9279 0.0259 0.6769
C47_6 C 0.89575(19) 0.06773(11) 0.63017(11)
C48_6 C 0.91449(19) 0.10440(11) 0.61334(11)
C49_6 C 0.93315(16) 0.14556(9) 0.58861(9)
C50_6 C 0.97790(13) 0.18520(8) 0.59464(8)
H24_6 H 0.9959 0.1869 0.6170
C51_6 C 0.90617(13) 0.14449(8) 0.55668(8)
H25_6 H 0.8753 0.1180 0.5529
C52_6 C 0.99591(11) 0.22219(7) 0.56794(7)
C53_6 C 0.96977(10) 0.22042(7) 0.53543(6)
H26_6 H 0.9828 0.2453 0.5167
C54_6 C 0.92400(11) 0.18161(7) 0.53064(6)
O37_6 O 0.91436(6) 0.22636(6) 0.81369(5)
H28_6 H 0.9395 0.2520 0.8183
O38_6 O 0.86251(5) 0.13088(5) 0.84905(4)
O41_6 O 0.97149(13) 0.03055(12) 0.78506(11)
C56_6 C 0.84173(7) 0.08990(7) 0.86358(6)
C57_6 C 0.85897(9) 0.05691(8) 0.85169(8)
C59_6 C 0.89963(11) 0.07333(10) 0.82891(9)
H29_6 H 0.9161 0.1054 0.8202
C60_6 C 0.83511(11) 0.01019(9) 0.86452(9)
C63_6 C 0.91593(14) 0.04275(12) 0.81898(12)
O42_6 O 0.9815(2) 0.10214(16) 0.7855(2)
C64_6 C 0.9597(2) 0.05999(17) 0.79470(18)
O48_6 O 0.93900(9) 0.20844(5) 0.89176(4)
C73_6 C 0.95600(10) 0.22018(6) 0.92540(6)
H52_6 H 0.922447 0.203182 0.802362
C58_6 C 0.71475(9) 0.82060(7) 0.00313(6)
O7_6 O 0.73055(7) 0.79156(5) 0.60824(4)
C1_6 C 0.73581(8) 0.77982(6) 0.57460(6)
C4_6 C 0.82060(7) 0.71475(9) 0.49687(6)
H4_6 H 0.9991 0.8075 0.6198
C7_6 C 0.97939(10) 0.85154(13) 0.64559(10)
C8_6 C 0.99533(12) 0.89144(15) 0.66901(11)
H5_6 H 0.9741 0.9021 0.6769
C11_6 C 0.93227(11) 0.82803(16) 0.63017(11)
C12_6 C 0.89560(11) 0.81010(15) 0.61334(11)
C13_6 C 0.85444(9) 0.78760(13) 0.58861(9)
C14_6 C 0.81480(8) 0.79271(10) 0.59464(8)
H6_6 H 0.8131 0.8091 0.6170
C15_6 C 0.85551(8) 0.76169(10) 0.55668(8)
H7_6 H 0.8820 0.7574 0.5529
C16_6 C 0.77781(7) 0.77373(8) 0.56794(7)
C17_6 C 0.77958(7) 0.74936(7) 0.53543(6)
H8_6 H 0.7547 0.7376 0.5167
C18_6 C 0.81839(7) 0.74240(8) 0.53064(6)
O27_6 O 0.68799(8) 0.77364(6) 0.68631(5)
H19_6 H 0.6874 0.7480 0.6817
O28_6 O 0.73162(7) 0.86912(5) 0.65095(4)
O32_6 O 0.94093(18) 0.96945(12) 0.71494(11)
C38_6 C 0.75182(10) 0.91010(7) 0.63642(6)
C39_6 C 0.80205(12) 0.94309(8) 0.64831(8)
C41_6 C 0.82629(15) 0.92667(10) 0.67109(9)
H21_6 H 0.8106 0.8946 0.6798
C42_6 C 0.82491(14) 0.98981(9) 0.63548(9)
C45_6 C 0.87317(18) 0.95725(12) 0.68102(12)
O33_6 O 0.87932(26) 0.89786(16) 0.7145(2)
C46_6 C 0.89967(26) 0.94001(17) 0.70530(18)
O39_6 O 0.79156(5) 0.73055(7) 0.89176(4)
C55_6 C 0.77982(6) 0.73581(8) 0.92540(6)
H30_6 H 0.8075 0.9991 0.8802
C61_6 C 0.85154(13) 0.97939(10) 0.85441(10)
C62_6 C 0.89144(15) 0.99533(12) 0.83099(11)
H31_6 H 0.9021 0.9741 0.8231
C65_6 C 0.82803(16) 0.93227(11) 0.86983(11)
C66_6 C 0.81010(15) 0.89560(11) 0.88666(11)
C67_6 C 0.78760(13) 0.85444(9) 0.91139(9)
C68_6 C 0.79271(10) 0.81480(8) 0.90536(8)
H32_6 H 0.8091 0.8131 0.8830
C69_6 C 0.76169(10) 0.85551(8) 0.94332(8)
H33_6 H 0.7574 0.8820 0.9471
C70_6 C 0.77373(8) 0.77781(7) 0.93206(7)
C71_6 C 0.74936(7) 0.77958(7) 0.96457(6)
H34_6 H 0.7376 0.7547 0.9833
C72_6 C 0.74240(8) 0.81839(7) 0.96936(6)
O55_6 O 0.77364(6) 0.68799(8) 0.81369(5)
H42_6 H 0.7480 0.6874 0.8183
O56_6 O 0.86912(5) 0.73162(7) 0.84905(4)
O59_6 O 0.96945(12) 0.94093(18) 0.78506(11)
C92_6 C 0.91010(7) 0.75182(10) 0.86358(6)
C93_6 C 0.94309(8) 0.80205(12) 0.85169(8)
C95_6 C 0.92667(10) 0.82629(15) 0.82891(9)
H43_6 H 0.8946 0.8106 0.8202
C96_6 C 0.98981(9) 0.82491(14) 0.86452(9)
C99_6 C 0.95725(12) 0.87317(18) 0.81898(12)
O60_6 O 0.89786(16) 0.87932(26) 0.7855(2)
C100_6 C 0.94001(17) 0.89967(26) 0.79470(18)
H50_6 H 0.719265 0.796818 0.697638
H54_6 H 0.796818 0.719265 0.802362
Sc3_10 Sc 0.0000 0.0001 0.7500
Sc3_11 Sc 0.9999 1.0000 0.7500
O20_7 O 0.00000(8) 0.62221(6) 0.2500
H18_6 H 0.0049 0.6332 0.2727
O9_6 O 0.37779(6) 0.37780(6) 0.2500
H2_6 H 0.3716 0.3668 0.2273
H9_6 H 0.3668 0.3716 0.2727
O20_8 O 1.00000(8) 0.62221(6) 0.2500
H11_6 H 0.9951 0.6284 0.2273
O31_7 O 0.62220(6) -0.00000(8) 0.2500
H20_6 H 0.6332 0.0049 0.2273
O31_8 O 0.62220(6) 1.00000(8) 0.2500
H27_6 H 0.6284 0.9951 0.2727
Sc3_12 Sc 1.0000 0.0000 0.7500
loop_
_geom_bond_atom_site_label_1
_geom_bond_atom_site_label_2
_geom_bond_site_symmetry_1
_geom_bond_site_symmetry_2
Sc13 O63 1_555 1_555
Sc21 O63 1_555 1_555
Sc1 O1 1_555 1_555
Sc2 O1 1_555 1_555
O1 Sc23 1_555 1_555
O2 C4 1_555 1_555
O3 C4 1_555 1_555
O4 Sc1 1_555 1_555
O6 Sc2 1_555 1_555
O7 C1 1_555 1_555
O8 C1 1_555 1_555
O9 Sc1 1_555 1_555
H2 O9 1_555 1_555
C1 C16 1_555 1_555
C2 O4 1_555 1_555
C3 C2 1_555 1_555
C4 C18 1_555 1_555
C6 C3 1_555 1_555
H4 C6 1_555 1_555
C7 C6 1_555 1_555
C11 C7 1_555 1_555
C12 C11 1_555 1_555
C13 C12 1_555 1_555
C14 C13 1_555 1_555
H6 C14 1_555 1_555
C15 C13 1_555 1_555
H7 C15 1_555 1_555
C16 C14 1_555 1_555
C17 C16 1_555 1_555
H8 C17 1_555 1_555
C18 C15 1_555 1_555
H9 O9 1_555 1_555
Sc4 O12 1_555 1_555
Sc5 O12 1_555 1_555
O12 Sc25 1_555 1_555
O13 C22 1_555 1_555
O14 C22 1_555 1_555
O15 Sc4 1_555 1_555
O17 Sc5 1_555 1_555
O18 Sc2 1_555 1_555
O19 C19 1_555 1_555
O20 Sc4 1_555 1_555
H11 O20 1_555 1_555
C19 O18 1_555 1_555
C20 O15 1_555 1_555
C21 C20 1_555 1_555
C22 C36 1_555 1_555
C24 C21 1_555 1_555
H13 C24 1_555 1_555
C25 C24 1_555 1_555
C29 C25 1_555 1_555
C30 C29 1_555 1_555
C31 C30 1_555 1_555
C32 C31 1_555 1_555
H15 C32 1_555 1_555
C33 C31 1_555 1_555
H16 C33 1_555 1_555
C34 C19 1_555 1_555
C35 C34 1_555 1_555
H17 C35 1_555 1_555
C36 C33 1_555 1_555
H18 O20 1_555 1_555
Sc6 O23 1_555 1_555
Sc7 O7 1_555 1_555
O23 Sc7 1_555 1_555
O24 C40 1_555 1_555
O25 C40 1_555 1_555
O26 Sc6 1_555 1_555
O28 Sc7 1_555 1_555
O29 Sc5 1_555 1_555
O30 C37 1_555 1_555
O31 Sc6 1_555 1_555
H20 O31 1_555 1_555
C37 O29 1_555 1_555
C38 O26 1_555 1_555
C39 C38 1_555 1_555
C40 C54 1_555 1_555
C42 C39 1_555 1_555
H22 C42 1_555 1_555
C43 C42 1_555 1_555
C47 C43 1_555 1_555
C48 C47 1_555 1_555
C49 C48 1_555 1_555
C50 C49 1_555 1_555
H24 C50 1_555 1_555
C51 C49 1_555 1_555
H25 C51 1_555 1_555
C52 C37 1_555 1_555
C53 C52 1_555 1_555
H26 C53 1_555 1_555
C54 C51 1_555 1_555
H27 O31 1_555 1_555
Sc17 O25 1_555 1_555
Sc18_2 O3 1_555 1_555
Sc19 O14 1_555 1_555
Sc23 O19 1_555 1_555
Sc24 O8 1_555 1_555
Sc25 O30 1_555 1_555
Sc29 O24 1_555 1_555
O67 Sc7 1_555 1_555
O68 Sc5 1_555 1_555
O69 Sc2 1_555 1_555
O70 Sc4 1_555 1_555
O71 Sc6 1_555 1_555
O72 Sc1 1_555 1_555
O73 Sc6 1_555 1_555
O74 Sc4 1_555 1_555
O75 Sc1 1_555 1_555
O76 Sc1 1_555 1_555
O77 Sc6 1_555 1_555
O78 Sc4 1_555 1_555
O82 Sc5 1_555 1_555
O83 Sc2 1_555 1_555
O84 Sc7 1_555 1_555
O6 C2 1_555 1_555
C17 C18 1_555 1_555
O17 C20 1_555 1_555
C32 C34 1_555 1_555
C35 C36 1_555 1_555
O23 Sc24 1_555 1_555
O28 C38 1_555 1_555
C50 C52 1_555 1_555
C53 C54 1_555 1_555
Sc3 O10 1_555 1_555
H1 O5 1_555 1_555
O10 C10 1_555 1_555
H3 C5 1_555 1_555
H5 C8 1_555 1_555
C9 C5 1_555 1_555
O11 C10 1_555 1_555
C10 C9 1_555 1_555
H10 O16 1_555 1_555
O21 Sc3 1_555 1_555
H12 C23 1_555 1_555
H14 C26 1_555 1_555
C27 C23 1_555 1_555
O22 C28 1_555 1_555
C28 O21 1_555 1_555
H19 O27 1_555 1_555
O32 Sc3 1_555 1_555
H21 C41 1_555 1_555
H23 C44 1_555 1_555
C45 C41 1_555 1_555
O33 C46 1_555 1_555
C46 O32 1_555 1_555
Sc8 O37 1_555 1_555
O34 C58 1_555 1_555
O35 C58 1_555 1_555
O36 C56 1_555 1_555
O37 H28 1_555 1_555
O38 Sc8 1_555 1_555
O39 C55 1_555 1_555
O40 C55 1_555 1_555
C55 C70 1_555 1_555
O41 Sc3 1_555 1_555
C56 O38 1_555 1_555
C57 C56 1_555 1_555
C58 C72 1_555 1_555
C59 C57 1_555 1_555
H29 C59 1_555 1_555
C60 C57 1_555 1_555
H30 C60 1_555 1_555
C61 C60 1_555 1_555
C62 C61 1_555 1_555
H31 C62 1_555 1_555
C63 C59 1_555 1_555
O42 C64 1_555 1_555
C64 O41 1_555 1_555
C65 C61 1_555 1_555
C66 C65 1_555 1_555
C67 C66 1_555 1_555
C68 C67 1_555 1_555
H32 C68 1_555 1_555
C69 C67 1_555 1_555
H33 C69 1_555 1_555
C70 C68 1_555 1_555
C71 C70 1_555 1_555
H34 C71 1_555 1_555
C72 C69 1_555 1_555
Sc9 O46 1_555 1_555
O43 C76 1_555 1_555
O44 C76 1_555 1_555
O45 C74 1_555 1_555
O46 H35 1_555 1_555
O47 Sc9 1_555 1_555
O48 Sc8 1_555 1_555
O49 C73 1_555 1_555
C73 O48 1_555 1_555
O50 Sc3 1_555 1_555
C74 O47 1_555 1_555
C75 C74 1_555 1_555
C76 C90 1_555 1_555
C77 C75 1_555 1_555
H36 C77 1_555 1_555
C78 C75 1_555 1_555
H37 C78 1_555 1_555
C79 C78 1_555 1_555
C80 C79 1_555 1_555
H38 C80 1_555 1_555
C81 C77 1_555 1_555
O51 C82 1_555 1_555
C82 O50 1_555 1_555
C83 C79 1_555 1_555
C84 C83 1_555 1_555
C85 C84 1_555 1_555
C86 C85 1_555 1_555
H39 C86 1_555 1_555
C87 C85 1_555 1_555
H40 C87 1_555 1_555
C88 C73 1_555 1_555
C89 C88 1_555 1_555
H41 C89 1_555 1_555
C90 C87 1_555 1_555
Sc10 O39 1_555 1_555
O52 C94 1_555 1_555
O53 C94 1_555 1_555
O54 C92 1_555 1_555
O55 Sc10 1_555 1_555
H42 O55 1_555 1_555
O56 Sc10 1_555 1_555
O57 Sc9 1_555 1_555
O58 C91 1_555 1_555
C91 O57 1_555 1_555
O59 Sc3 1_555 1_555
C92 O56 1_555 1_555
C93 C92 1_555 1_555
C94 C108 1_555 1_555
C95 C93 1_555 1_555
H43 C95 1_555 1_555
C96 C93 1_555 1_555
H44 C96 1_555 1_555
C97 C96 1_555 1_555
C98 C97 1_555 1_555
H45 C98 1_555 1_555
C99 C95 1_555 1_555
O60 C100 1_555 1_555
C100 O59 1_555 1_555
C101 C97 1_555 1_555
C102 C101 1_555 1_555
C103 C102 1_555 1_555
C104 C103 1_555 1_555
H46 C104 1_555 1_555
C105 C103 1_555 1_555
H47 C105 1_555 1_555
C106 C91 1_555 1_555
C107 C106 1_555 1_555
H48 C107 1_555 1_555
C108 C105 1_555 1_555
Sc11 O36 1_555 1_555
Sc12 O45 1_555 1_555
Sc13_2 O54 1_555 1_555
Sc14 O53 1_555 1_555
Sc15 O35 1_555 1_555
Sc16 O44 1_555 1_555
Sc20 O49 1_555 1_555
Sc26 O52 1_555 1_555
Sc27 O43 1_555 1_555
Sc28 O34 1_555 1_555
O61 Sc8 1_555 1_555
O62 Sc9 1_555 1_555
O63_2 Sc10 1_555 1_555
O66 Sc8 1_555 1_555
O80 Sc8 1_555 1_555
C8 C9 1_555 1_555
C26 C27 1_555 1_555
C27 C28 1_555 1_555
C44 C45 1_555 1_555
C45 C46 1_555 1_555
C62 C63 1_555 1_555
C63 C64 1_555 1_555
C71 C72 1_555 1_555
C80 C81 1_555 1_555
C81 C82 1_555 1_555
C86 C88 1_555 1_555
C89 C90 1_555 1_555
C98 C99 1_555 1_555
C99 C100 1_555 1_555
C104 C106 1_555 1_555
C107 C108 1_555 1_555
Sc11 O61 1_555 1_555
Sc12 O62 1_555 1_555
Sc13_2 O63_2 1_555 1_555
Sc20 O61 1_555 1_555
O5 H49 1_555 1_555
O27 H50 1_555 1_555
O16 H51 1_555 1_555
O37 H52 1_555 1_555
O46 H53 1_555 1_555
O55 H54 1_555 1_555
Sc12_2 O62_2 1_555 1_555
Sc22 O62_2 1_555 1_555
Sc1_2 O1_2 1_555 1_555
Sc2_2 O1_2 1_555 1_555
Sc3_2 O10_2 1_555 1_555
O1_2 Sc23_2 1_555 1_555
O2_2 C4_2 1_555 1_555
O3_2 C4_2 1_555 1_555
O4_2 Sc1_2 1_555 1_555
O5_2 Sc2_2 1_555 1_555
H1_2 O5_2 1_555 1_555
O6_2 Sc2_2 1_555 1_555
O7_2 C1_2 1_555 1_555
O8_2 C1_2 1_555 1_555
O9_2 Sc1_2 1_555 1_555
H2_2 O9_2 1_555 1_555
C1_2 C16_2 1_555 1_555
O10_2 C10_2 1_555 1_555
C2_2 O4_2 1_555 1_555
C3_2 C2_2 1_555 1_555
C4_2 C18_2 1_555 1_555
C5_2 C3_2 1_555 1_555
H3_2 C5_2 1_555 1_555
C6_2 C3_2 1_555 1_555
H4_2 C6_2 1_555 1_555
C7_2 C6_2 1_555 1_555
C8_2 C7_2 1_555 1_555
H5_2 C8_2 1_555 1_555
C9_2 C5_2 1_555 1_555
O11_2 C10_2 1_555 1_555
C10_2 C9_2 1_555 1_555
C11_2 C7_2 1_555 1_555
C12_2 C11_2 1_555 1_555
C13_2 C12_2 1_555 1_555
C14_2 C13_2 1_555 1_555
H6_2 C14_2 1_555 1_555
C15_2 C13_2 1_555 1_555
H7_2 C15_2 1_555 1_555
C16_2 C14_2 1_555 1_555
C17_2 C16_2 1_555 1_555
H8_2 C17_2 1_555 1_555
C18_2 C15_2 1_555 1_555
H9_2 O9_2 1_555 1_555
Sc4_2 O12_2 1_555 1_555
Sc5_2 O12_2 1_555 1_555
O12_2 Sc25_2 1_555 1_555
O13_2 C22_2 1_555 1_555
O14_2 C22_2 1_555 1_555
O15_2 Sc4_2 1_555 1_555
O16_2 Sc5_2 1_555 1_555
H10_2 O16_2 1_555 1_555
O17_2 Sc5_2 1_555 1_555
O18_2 Sc2_2 1_555 1_555
O19_2 C19_2 1_555 1_555
O20_2 Sc4_2 1_555 1_555
H11_2 O20_2 1_555 1_555
C19_2 O18_2 1_555 1_555
O21_2 Sc3_2 1_555 1_555
C20_2 O15_2 1_555 1_555
C21_2 C20_2 1_555 1_555
C22_2 C36_2 1_555 1_555
C23_2 C21_2 1_555 1_555
H12_2 C23_2 1_555 1_555
C24_2 C21_2 1_555 1_555
H13_2 C24_2 1_555 1_555
C25_2 C24_2 1_555 1_555
C26_2 C25_2 1_555 1_555
H14_2 C26_2 1_555 1_555
C27_2 C23_2 1_555 1_555
O22_2 C28_2 1_555 1_555
C28_2 O21_2 1_555 1_555
C29_2 C25_2 1_555 1_555
C30_2 C29_2 1_555 1_555
C31_2 C30_2 1_555 1_555
C32_2 C31_2 1_555 1_555
H15_2 C32_2 1_555 1_555
C33_2 C31_2 1_555 1_555
H16_2 C33_2 1_555 1_555
C34_2 C19_2 1_555 1_555
C35_2 C34_2 1_555 1_555
H17_2 C35_2 1_555 1_555
C36_2 C33_2 1_555 1_555
H18_2 O20_2 1_555 1_555
Sc6_2 O23_2 1_555 1_555
Sc7_2 O7_2 1_555 1_555
O23_2 Sc7_2 1_555 1_555
O24_2 C40_2 1_555 1_555
O25_2 C40_2 1_555 1_555
O26_2 Sc6_2 1_555 1_555
O27_2 Sc7_2 1_555 1_555
H19_2 O27_2 1_555 1_555
O28_2 Sc7_2 1_555 1_555
O29_2 Sc5_2 1_555 1_555
O30_2 C37_2 1_555 1_555
O31_2 Sc6_2 1_555 1_555
H20_2 O31_2 1_555 1_555
C37_2 O29_2 1_555 1_555
O32_2 Sc3_2 1_555 1_555
C38_2 O26_2 1_555 1_555
C39_2 C38_2 1_555 1_555
C40_2 C54_2 1_555 1_555
C41_2 C39_2 1_555 1_555
H21_2 C41_2 1_555 1_555
C42_2 C39_2 1_555 1_555
H22_2 C42_2 1_555 1_555
C43_2 C42_2 1_555 1_555
C44_2 C43_2 1_555 1_555
H23_2 C44_2 1_555 1_555
C45_2 C41_2 1_555 1_555
O33_2 C46_2 1_555 1_555
C46_2 O32_2 1_555 1_555
C47_2 C43_2 1_555 1_555
C48_2 C47_2 1_555 1_555
C49_2 C48_2 1_555 1_555
C50_2 C49_2 1_555 1_555
H24_2 C50_2 1_555 1_555
C51_2 C49_2 1_555 1_555
H25_2 C51_2 1_555 1_555
C52_2 C37_2 1_555 1_555
C53_2 C52_2 1_555 1_555
H26_2 C53_2 1_555 1_555
C54_2 C51_2 1_555 1_555
H27_2 O31_2 1_555 1_555
Sc20 O37_2 1_555 1_555
O34_2 C58_2 1_555 1_555
O35_2 C58_2 1_555 1_555
O36_2 C56_2 1_555 1_555
O37_2 H28_2 1_555 1_555
O38_2 Sc20 1_555 1_555
O39_2 C55_2 1_555 1_555
O79 C55_2 1_555 1_555
C55_2 C70_2 1_555 1_555
O41_2 Sc3_2 1_555 1_555
C56_2 O38_2 1_555 1_555
C57_2 C56_2 1_555 1_555
C58_2 C72_2 1_555 1_555
C59_2 C57_2 1_555 1_555
H29_2 C59_2 1_555 1_555
C60_2 C57_2 1_555 1_555
H30_2 C60_2 1_555 1_555
C61_2 C60_2 1_555 1_555
C62_2 C61_2 1_555 1_555
H31_2 C62_2 1_555 1_555
C63_2 C59_2 1_555 1_555
O42_2 C64_2 1_555 1_555
C64_2 O41_2 1_555 1_555
C65_2 C61_2 1_555 1_555
C66_2 C65_2 1_555 1_555
C67_2 C66_2 1_555 1_555
C68_2 C67_2 1_555 1_555
H32_2 C68_2 1_555 1_555
C69_2 C67_2 1_555 1_555
H33_2 C69_2 1_555 1_555
C70_2 C68_2 1_555 1_555
C71_2 C70_2 1_555 1_555
H34_2 C71_2 1_555 1_555
C72_2 C69_2 1_555 1_555
Sc21 O46_2 1_555 1_555
O43_2 C76_2 1_555 1_555
O44_2 C76_2 1_555 1_555
O45_2 C74_2 1_555 1_555
O46_2 H35_2 1_555 1_555
O47_2 Sc21 1_555 1_555
O48_2 Sc20 1_555 1_555
O80 C73_2 1_555 1_555
C73_2 O48_2 1_555 1_555
O50_2 Sc3_2 1_555 1_555
C74_2 O47_2 1_555 1_555
C75_2 C74_2 1_555 1_555
C76_2 C90_2 1_555 1_555
C77_2 C75_2 1_555 1_555
H36_2 C77_2 1_555 1_555
C78_2 C75_2 1_555 1_555
H37_2 C78_2 1_555 1_555
C79_2 C78_2 1_555 1_555
C80_2 C79_2 1_555 1_555
H38_2 C80_2 1_555 1_555
C81_2 C77_2 1_555 1_555
O51_2 C82_2 1_555 1_555
C82_2 O50_2 1_555 1_555
C83_2 C79_2 1_555 1_555
C84_2 C83_2 1_555 1_555
C85_2 C84_2 1_555 1_555
C86_2 C85_2 1_555 1_555
H39_2 C86_2 1_555 1_555
C87_2 C85_2 1_555 1_555
H40_2 C87_2 1_555 1_555
C88_2 C73_2 1_555 1_555
C89_2 C88_2 1_555 1_555
H41_2 C89_2 1_555 1_555
C90_2 C87_2 1_555 1_555
Sc22 O39_2 1_555 1_555
O52_2 C94_2 1_555 1_555
O53_2 C94_2 1_555 1_555
O54_2 C92_2 1_555 1_555
O55_2 Sc22 1_555 1_555
H42_2 O55_2 1_555 1_555
O56_2 Sc22 1_555 1_555
O57_2 Sc21 1_555 1_555
O81 C91_2 1_555 1_555
C91_2 O57_2 1_555 1_555
O59_2 Sc3_2 1_555 1_555
C92_2 O56_2 1_555 1_555
C93_2 C92_2 1_555 1_555
C94_2 C108_2 1_555 1_555
C95_2 C93_2 1_555 1_555
H43_2 C95_2 1_555 1_555
C96_2 C93_2 1_555 1_555
H44_2 C96_2 1_555 1_555
C97_2 C96_2 1_555 1_555
C98_2 C97_2 1_555 1_555
H45_2 C98_2 1_555 1_555
C99_2 C95_2 1_555 1_555
O60_2 C100_2 1_555 1_555
C100_2 O59_2 1_555 1_555
C101_2 C97_2 1_555 1_555
C102_2 C101_2 1_555 1_555
C103_2 C102_2 1_555 1_555
C104_2 C103_2 1_555 1_555
H46_2 C104_2 1_555 1_555
C105_2 C103_2 1_555 1_555
H47_2 C105_2 1_555 1_555
C106_2 C91_2 1_555 1_555
C107_2 C106_2 1_555 1_555
H48_2 C107_2 1_555 1_555
C108_2 C105_2 1_555 1_555
Sc11 O36_2 1_555 1_555
Sc13 O45_2 1_555 1_555
Sc12_2 O54_2 1_555 1_555
Sc14_2 O53_2 1_555 1_555
Sc15_2 O35_2 1_555 1_555
Sc16_2 O44_2 1_555 1_555
Sc17 O25_2 1_555 1_555
Sc19_2 O3_2 1_555 1_555
Sc18 O14_2 1_555 1_555
Sc23_2 O19_2 1_555 1_555
Sc24_2 O8_2 1_555 1_555
Sc25_2 O30_2 1_555 1_555
Sc26_2 O52_2 1_555 1_555
Sc27_2 O43_2 1_555 1_555
Sc28_2 O34_2 1_555 1_555
Sc29_2 O24_2 1_555 1_555
O66_2 Sc20 1_555 1_555
O67_2 Sc7_2 1_555 1_555
O68_2 Sc5_2 1_555 1_555
O69_2 Sc2_2 1_555 1_555
O70_2 Sc4_2 1_555 1_555
O71_2 Sc6_2 1_555 1_555
O72_2 Sc1_2 1_555 1_555
O73_2 Sc6_2 1_555 1_555
O74_2 Sc4_2 1_555 1_555
O75_2 Sc1_2 1_555 1_555
O76_2 Sc1_2 1_555 1_555
O77_2 Sc6_2 1_555 1_555
O78_2 Sc4_2 1_555 1_555
O82_2 Sc5_2 1_555 1_555
O83_2 Sc2_2 1_555 1_555
O84_2 Sc7_2 1_555 1_555
O6_2 C2_2 1_555 1_555
C8_2 C9_2 1_555 1_555
C17_2 C18_2 1_555 1_555
O17_2 C20_2 1_555 1_555
C26_2 C27_2 1_555 1_555
C27_2 C28_2 1_555 1_555
C32_2 C34_2 1_555 1_555
C35_2 C36_2 1_555 1_555
O23_2 Sc24_2 1_555 1_555
O28_2 C38_2 1_555 1_555
C44_2 C45_2 1_555 1_555
C45_2 C46_2 1_555 1_555
C50_2 C52_2 1_555 1_555
C53_2 C54_2 1_555 1_555
C62_2 C63_2 1_555 1_555
C63_2 C64_2 1_555 1_555
C71_2 C72_2 1_555 1_555
C80_2 C81_2 1_555 1_555
C81_2 C82_2 1_555 1_555
C86_2 C88_2 1_555 1_555
C89_2 C90_2 1_555 1_555
C98_2 C99_2 1_555 1_555
C99_2 C100_2 1_555 1_555
C104_2 C106_2 1_555 1_555
C107_2 C108_2 1_555 1_555
O5_2 H49_2 1_555 1_555
O27_2 H50_2 1_555 1_555
O16_2 H51_2 1_555 1_555
O37_2 H52_2 1_555 1_555
O46_2 H53_2 1_555 1_555
O55_2 H54_2 1_555 1_555
O2_3 C4_3 1_555 1_555
O3_3 C4_3 1_555 1_555
O7_3 C1_3 1_555 1_555
O82_2 C1_3 1_555 1_555
C1_3 C16_3 1_555 1_555
C4_3 C18_3 1_555 1_555
C8_3 C7_3 1_555 1_555
H5_3 C8_3 1_555 1_555
C11_3 C7_3 1_555 1_555
C12_3 C11_3 1_555 1_555
C13_3 C12_3 1_555 1_555
C14_3 C13_3 1_555 1_555
H6_3 C14_3 1_555 1_555
C15_3 C13_3 1_555 1_555
H7_3 C15_3 1_555 1_555
C16_3 C14_3 1_555 1_555
C17_3 C16_3 1_555 1_555
H8_3 C17_3 1_555 1_555
C18_3 C15_3 1_555 1_555
Sc25_2 O7_3 1_555 1_555
O27_3 Sc25_2 1_555 1_555
H19_3 O27_3 1_555 1_555
O28_3 Sc25_2 1_555 1_555
C38_3 O78_2 1_555 1_555
C39_3 C38_3 1_555 1_555
C41_3 C39_3 1_555 1_555
H21_3 C41_3 1_555 1_555
C42_3 C39_3 1_555 1_555
C45_3 C41_3 1_555 1_555
O33_3 C46_3 1_555 1_555
C46_3 O32_3 1_555 1_555
O39_3 C55_3 1_555 1_555
O82 C55_3 1_555 1_555
C55_3 C70_3 1_555 1_555
C62_3 C61_3 1_555 1_555
H31_3 C62_3 1_555 1_555
C65_3 C61_3 1_555 1_555
C66_3 C65_3 1_555 1_555
C67_3 C66_3 1_555 1_555
C68_3 C67_3 1_555 1_555
H32_3 C68_3 1_555 1_555
C69_3 C67_3 1_555 1_555
H33_3 C69_3 1_555 1_555
C70_3 C68_3 1_555 1_555
C71_3 C70_3 1_555 1_555
H34_3 C71_3 1_555 1_555
C72_3 C69_3 1_555 1_555
Sc25 O39_3 1_555 1_555
O78 C92_3 1_555 1_555
O55_3 Sc25 1_555 1_555
H42_3 O55_3 1_555 1_555
O56_3 Sc25 1_555 1_555
C92_3 O56_3 1_555 1_555
C93_3 C92_3 1_555 1_555
C95_3 C93_3 1_555 1_555
H43_3 C95_3 1_555 1_555
C96_3 C93_3 1_555 1_555
C99_3 C95_3 1_555 1_555
O60_3 C100_3 1_555 1_555
C100_3 O59_3 1_555 1_555
Sc16 O3_3 1_555 1_555
Sc31_3 O2_3 1_555 1_555
O64_3 Sc25 1_555 1_555
O67_3 Sc25_2 1_555 1_555
C17_3 C18_3 1_555 1_555
O28_3 C38_3 1_555 1_555
C45_3 C46_3 1_555 1_555
C71_3 C72_3 1_555 1_555
C99_3 C100_3 1_555 1_555
O27_3 H50_3 1_555 1_555
O55_3 H54_3 1_555 1_555
O34_3 C58_3 1_555 1_555
O35_3 C58_3 1_555 1_555
Sc16_2 O35_3 1_555 1_555
Sc28_3 O34_3 1_555 1_555
O24_3 C40_3 1_555 1_555
O25_3 C40_3 1_555 1_555
C40_3 C54_3 1_555 1_555
C44_3 C43_3 1_555 1_555
H23_3 C44_3 1_555 1_555
C47_3 C43_3 1_555 1_555
C48_3 C47_3 1_555 1_555
C49_3 C48_3 1_555 1_555
C50_3 C49_3 1_555 1_555
H24_3 C50_3 1_555 1_555
C51_3 C49_3 1_555 1_555
H25_3 C51_3 1_555 1_555
C53_3 C52_3 1_555 1_555
H26_3 C53_3 1_555 1_555
C54_3 C51_3 1_555 1_555
Sc23 O37_3 1_555 1_555
O76 C56_3 1_555 1_555
O37_3 H28_3 1_555 1_555
O38_3 Sc23 1_555 1_555
C56_3 O38_3 1_555 1_555
C57_3 C56_3 1_555 1_555
C59_3 C57_3 1_555 1_555
H29_3 C59_3 1_555 1_555
C60_3 C57_3 1_555 1_555
C63_3 C59_3 1_555 1_555
O42_3 C64_3 1_555 1_555
C64_3 O41_3 1_555 1_555
O48_3 Sc23 1_555 1_555
O83 C73_3 1_555 1_555
C73_3 O48_3 1_555 1_555
Sc14 O25_3 1_555 1_555
Sc29_3 O24_3 1_555 1_555
O66_3 Sc23 1_555 1_555
C50_3 C52_3 1_555 1_555
C53_3 C54_3 1_555 1_555
C63_3 C64_3 1_555 1_555
O37_3 H52_3 1_555 1_555
Sc3_3 O10_3 1_555 1_555
O5_3 Sc23_2 1_555 1_555
H1_3 O5_3 1_555 1_555
O6_3 Sc23_2 1_555 1_555
O10_3 C10_3 1_555 1_555
C2_3 O76_2 1_555 1_555
C3_3 C2_3 1_555 1_555
C5_3 C3_3 1_555 1_555
H3_3 C5_3 1_555 1_555
C6_3 C3_3 1_555 1_555
C9_3 C5_3 1_555 1_555
O11_3 C10_3 1_555 1_555
C10_3 C9_3 1_555 1_555
O18_3 Sc23_2 1_555 1_555
O83_2 C19_3 1_555 1_555
C19_3 O18_3 1_555 1_555
C98_3 C97_3 1_555 1_555
H45_3 C98_3 1_555 1_555
C101_3 C97_3 1_555 1_555
C102_3 C101_3 1_555 1_555
C103_3 C102_3 1_555 1_555
C104_3 C103_3 1_555 1_555
H46_3 C104_3 1_555 1_555
C105_3 C103_3 1_555 1_555
H47_3 C105_3 1_555 1_555
C107_3 C106_3 1_555 1_555
H48_3 C107_3 1_555 1_555
C108_3 C105_3 1_555 1_555
O69_3 Sc23_2 1_555 1_555
O6_3 C2_3 1_555 1_555
C104_3 C106_3 1_555 1_555
C107_3 C108_3 1_555 1_555
O5_3 H49_3 1_555 1_555
O52_3 C94_3 1_555 1_555
O53_3 C94_3 1_555 1_555
Sc14_2 O53_3 1_555 1_555
Sc26_3 O52_3 1_555 1_555
O13_3 C22_3 1_555 1_555
O14_3 C22_3 1_555 1_555
O16_3 Sc24_2 1_555 1_555
H10_3 O16_3 1_555 1_555
O17_3 Sc24_2 1_555 1_555
C20_3 O77_2 1_555 1_555
C21_3 C20_3 1_555 1_555
C22_3 C36_3 1_555 1_555
C23_3 C21_3 1_555 1_555
H12_3 C23_3 1_555 1_555
C24_3 C21_3 1_555 1_555
H13_3 C24_3 1_555 1_555
C25_3 C24_3 1_555 1_555
C26_3 C25_3 1_555 1_555
H14_3 C26_3 1_555 1_555
C27_3 C23_3 1_555 1_555
O22_3 C28_3 1_555 1_555
C28_3 O21_3 1_555 1_555
C29_3 C25_3 1_555 1_555
C30_3 C29_3 1_555 1_555
C31_3 C30_3 1_555 1_555
C32_3 C31_3 1_555 1_555
H15_3 C32_3 1_555 1_555
C33_3 C31_3 1_555 1_555
H16_3 C33_3 1_555 1_555
C35_3 C34_3 1_555 1_555
H17_3 C35_3 1_555 1_555
C36_3 C33_3 1_555 1_555
O29_3 Sc24_2 1_555 1_555
O84_2 C37_3 1_555 1_555
C37_3 O29_3 1_555 1_555
Sc24 O46_3 1_555 1_555
O77 C74_3 1_555 1_555
O46_3 H35_3 1_555 1_555
O47_3 Sc24 1_555 1_555
C74_3 O47_3 1_555 1_555
C75_3 C74_3 1_555 1_555
C77_3 C75_3 1_555 1_555
H36_3 C77_3 1_555 1_555
C78_3 C75_3 1_555 1_555
H37_3 C78_3 1_555 1_555
C79_3 C78_3 1_555 1_555
C80_3 C79_3 1_555 1_555
H38_3 C80_3 1_555 1_555
C81_3 C77_3 1_555 1_555
O51_3 C82_3 1_555 1_555
C82_3 O50_3 1_555 1_555
C83_3 C79_3 1_555 1_555
C84_3 C83_3 1_555 1_555
C85_3 C84_3 1_555 1_555
C86_3 C85_3 1_555 1_555
H39_3 C86_3 1_555 1_555
C87_3 C85_3 1_555 1_555
H40_3 C87_3 1_555 1_555
C89_3 C88_3 1_555 1_555
H41_3 C89_3 1_555 1_555
C90_3 C87_3 1_555 1_555
O57_3 Sc24 1_555 1_555
O84 C91_3 1_555 1_555
C91_3 O57_3 1_555 1_555
Sc15 O14_3 1_555 1_555
Sc30_3 O13_3 1_555 1_555
O65_3 Sc24 1_555 1_555
O68_3 Sc24_2 1_555 1_555
O17_3 C20_3 1_555 1_555
C26_3 C27_3 1_555 1_555
C27_3 C28_3 1_555 1_555
C32_3 C34_3 1_555 1_555
C35_3 C36_3 1_555 1_555
C80_3 C81_3 1_555 1_555
C81_3 C82_3 1_555 1_555
C86_3 C88_3 1_555 1_555
C89_3 C90_3 1_555 1_555
O16_3 H51_3 1_555 1_555
O46_3 H53_3 1_555 1_555
O43_3 C76_3 1_555 1_555
O44_3 C76_3 1_555 1_555
Sc15_2 O44_3 1_555 1_555
Sc27_3 O43_3 1_555 1_555
Sc3_4 O21_3 1_555 1_555
O50_3 Sc3_4 1_555 1_555
Sc3_5 O32_3 1_555 1_555
O59_3 Sc3_5 1_555 1_555
O31_3 Sc13 1_555 1_555
H27_3 O31_3 1_555 1_555
O73_3 Sc13 1_555 1_555
O9_3 Sc11 1_555 1_555
H2_3 O9_3 1_555 1_555
H9_3 O9_3 1_555 1_555
O20_3 Sc12 1_555 1_555
H11_3 O20_3 1_555 1_555
O31_4 Sc13_2 1_555 1_555
H20_3 O31_4 1_555 1_555
O70_3 Sc12 1_555 1_555
O71_3 Sc13_2 1_555 1_555
O72_3 Sc11 1_555 1_555
O75_3 Sc11 1_555 1_555
O20_4 Sc12_2 1_555 1_555
H18_3 O20_4 1_555 1_555
O74_3 Sc12_2 1_555 1_555
Sc3_6 O41_3 1_555 1_555
Sc19 O62_3 1_555 1_555
Sc31_2 O62_3 1_555 1_555
Sc3_7 O10_4 1_555 1_555
H1_4 O5_4 1_555 1_555
O10_4 C10_4 1_555 1_555
H3_4 C5_4 1_555 1_555
H5_4 C8_4 1_555 1_555
C9_4 C5_4 1_555 1_555
O11_4 C10_4 1_555 1_555
C10_4 C9_4 1_555 1_555
H10_4 O16_4 1_555 1_555
O21_4 Sc3_7 1_555 1_555
H12_4 C23_4 1_555 1_555
H14_4 C26_4 1_555 1_555
C27_4 C23_4 1_555 1_555
O22_4 C28_4 1_555 1_555
C28_4 O21_4 1_555 1_555
H19_4 O27_4 1_555 1_555
O32_4 Sc3_7 1_555 1_555
H21_4 C41_4 1_555 1_555
H23_4 C44_4 1_555 1_555
C45_4 C41_4 1_555 1_555
O33_4 C46_4 1_555 1_555
C46_4 O32_4 1_555 1_555
Sc29 O37_4 1_555 1_555
O67_3 C58_4 1_555 1_555
O70_2 C58_4 1_555 1_555
O36_3 C56_4 1_555 1_555
O37_4 H28_4 1_555 1_555
O38_4 Sc29 1_555 1_555
O39_4 C55_4 1_555 1_555
O40_2 C55_4 1_555 1_555
C55_4 C70_4 1_555 1_555
O41_4 Sc3_7 1_555 1_555
C56_4 O38_4 1_555 1_555
C57_4 C56_4 1_555 1_555
C58_4 C72_4 1_555 1_555
C59_4 C57_4 1_555 1_555
H29_4 C59_4 1_555 1_555
C60_4 C57_4 1_555 1_555
H30_4 C60_4 1_555 1_555
C61_4 C60_4 1_555 1_555
C62_4 C61_4 1_555 1_555
H31_4 C62_4 1_555 1_555
C63_4 C59_4 1_555 1_555
O42_4 C64_4 1_555 1_555
C64_4 O41_4 1_555 1_555
C65_4 C61_4 1_555 1_555
C66_4 C65_4 1_555 1_555
C67_4 C66_4 1_555 1_555
C68_4 C67_4 1_555 1_555
H32_4 C68_4 1_555 1_555
C69_4 C67_4 1_555 1_555
H33_4 C69_4 1_555 1_555
C70_4 C68_4 1_555 1_555
C71_4 C70_4 1_555 1_555
H34_4 C71_4 1_555 1_555
C72_4 C69_4 1_555 1_555
Sc30 O46_4 1_555 1_555
O68_3 C76_4 1_555 1_555
O71_2 C76_4 1_555 1_555
O45_3 C74_4 1_555 1_555
O46_4 H35_4 1_555 1_555
O47_4 Sc30 1_555 1_555
O48_4 Sc29 1_555 1_555
O49_2 C73_4 1_555 1_555
C73_4 O48_4 1_555 1_555
O50_4 Sc3_7 1_555 1_555
C74_4 O47_4 1_555 1_555
C75_4 C74_4 1_555 1_555
C76_4 C90_4 1_555 1_555
C77_4 C75_4 1_555 1_555
H36_4 C77_4 1_555 1_555
C78_4 C75_4 1_555 1_555
H37_4 C78_4 1_555 1_555
C79_4 C78_4 1_555 1_555
C80_4 C79_4 1_555 1_555
H38_4 C80_4 1_555 1_555
C81_4 C77_4 1_555 1_555
O51_4 C82_4 1_555 1_555
C82_4 O50_4 1_555 1_555
C83_4 C79_4 1_555 1_555
C84_4 C83_4 1_555 1_555
C85_4 C84_4 1_555 1_555
C86_4 C85_4 1_555 1_555
H39_4 C86_4 1_555 1_555
C87_4 C85_4 1_555 1_555
H40_4 C87_4 1_555 1_555
C88_4 C73_4 1_555 1_555
C89_4 C88_4 1_555 1_555
H41_4 C89_4 1_555 1_555
C90_4 C87_4 1_555 1_555
Sc31 O39_4 1_555 1_555
O69_3 C94_4 1_555 1_555
O72_2 C94_4 1_555 1_555
O54_3 C92_4 1_555 1_555
O55_4 Sc31 1_555 1_555
H42_4 O55_4 1_555 1_555
O56_4 Sc31 1_555 1_555
O57_4 Sc30 1_555 1_555
O58_2 C91_4 1_555 1_555
C91_4 O57_4 1_555 1_555
O59_4 Sc3_7 1_555 1_555
C92_4 O56_4 1_555 1_555
C93_4 C92_4 1_555 1_555
C94_4 C108_4 1_555 1_555
C95_4 C93_4 1_555 1_555
H43_4 C95_4 1_555 1_555
C96_4 C93_4 1_555 1_555
H44_4 C96_4 1_555 1_555
C97_4 C96_4 1_555 1_555
C98_4 C97_4 1_555 1_555
H45_4 C98_4 1_555 1_555
C99_4 C95_4 1_555 1_555
O60_4 C100_4 1_555 1_555
C100_4 O59_4 1_555 1_555
C101_4 C97_4 1_555 1_555
C102_4 C101_4 1_555 1_555
C103_4 C102_4 1_555 1_555
C104_4 C103_4 1_555 1_555
H46_4 C104_4 1_555 1_555
C105_4 C103_4 1_555 1_555
H47_4 C105_4 1_555 1_555
C106_4 C91_4 1_555 1_555
C107_4 C106_4 1_555 1_555
H48_4 C107_4 1_555 1_555
C108_4 C105_4 1_555 1_555
Sc17 O36_3 1_555 1_555
Sc19_2 O45_3 1_555 1_555
Sc18 O54_3 1_555 1_555
Sc29_2 O49_2 1_555 1_555
O61_2 Sc29 1_555 1_555
O62_4 Sc30 1_555 1_555
O63_3 Sc31 1_555 1_555
O80_2 Sc29 1_555 1_555
C8_4 C9_4 1_555 1_555
C26_4 C27_4 1_555 1_555
C27_4 C28_4 1_555 1_555
C44_4 C45_4 1_555 1_555
C45_4 C46_4 1_555 1_555
C62_4 C63_4 1_555 1_555
C63_4 C64_4 1_555 1_555
C71_4 C72_4 1_555 1_555
C80_4 C81_4 1_555 1_555
C81_4 C82_4 1_555 1_555
C86_4 C88_4 1_555 1_555
C89_4 C90_4 1_555 1_555
C98_4 C99_4 1_555 1_555
C99_4 C100_4 1_555 1_555
C104_4 C106_4 1_555 1_555
C107_4 C108_4 1_555 1_555
Sc17 O61_2 1_555 1_555
Sc19_2 O62_4 1_555 1_555
Sc18 O63_3 1_555 1_555
Sc29_2 O61_2 1_555 1_555
O5_4 H49_4 1_555 1_555
O27_4 H50_4 1_555 1_555
O16_4 H51_4 1_555 1_555
O37_4 H52_4 1_555 1_555
O46_4 H53_4 1_555 1_555
O55_4 H54_4 1_555 1_555
Sc14_2 O1_3 1_555 1_555
Sc26_3 O1_3 1_555 1_555
O1_3 Sc26_2 1_555 1_555
O64 C4_4 1_555 1_555
O73_3 C4_4 1_555 1_555
O4_3 Sc14_2 1_555 1_555
O6_4 Sc26_3 1_555 1_555
O7_4 C1_4 1_555 1_555
O8_3 C1_4 1_555 1_555
O9_4 Sc14_2 1_555 1_555
H2_4 O9_4 1_555 1_555
C1_4 C16_4 1_555 1_555
C2_4 O4_3 1_555 1_555
C3_4 C2_4 1_555 1_555
C4_4 C18_4 1_555 1_555
C6_4 C3_4 1_555 1_555
H4_4 C6_4 1_555 1_555
C7_4 C6_4 1_555 1_555
C11_4 C7_4 1_555 1_555
C12_4 C11_4 1_555 1_555
C13_4 C12_4 1_555 1_555
C14_4 C13_4 1_555 1_555
H6_4 C14_4 1_555 1_555
C15_4 C13_4 1_555 1_555
H7_4 C15_4 1_555 1_555
C16_4 C14_4 1_555 1_555
C17_4 C16_4 1_555 1_555
H8_4 C17_4 1_555 1_555
C18_4 C15_4 1_555 1_555
H9_4 O9_4 1_555 1_555
Sc15_2 O12_3 1_555 1_555
Sc27_3 O12_3 1_555 1_555
O12_3 Sc28_2 1_555 1_555
O65 C22_4 1_555 1_555
O74_3 C22_4 1_555 1_555
O15_3 Sc15_2 1_555 1_555
O17_4 Sc27_3 1_555 1_555
O18_4 Sc26_3 1_555 1_555
O19_3 C19_4 1_555 1_555
O20_5 Sc15_2 1_555 1_555
H11_4 O20_5 1_555 1_555
C19_4 O18_4 1_555 1_555
C20_4 O15_3 1_555 1_555
C21_4 C20_4 1_555 1_555
C22_4 C36_4 1_555 1_555
C24_4 C21_4 1_555 1_555
H13_4 C24_4 1_555 1_555
C25_4 C24_4 1_555 1_555
C29_4 C25_4 1_555 1_555
C30_4 C29_4 1_555 1_555
C31_4 C30_4 1_555 1_555
C32_4 C31_4 1_555 1_555
H15_4 C32_4 1_555 1_555
C33_4 C31_4 1_555 1_555
H16_4 C33_4 1_555 1_555
C34_4 C19_4 1_555 1_555
C35_4 C34_4 1_555 1_555
H17_4 C35_4 1_555 1_555
C36_4 C33_4 1_555 1_555
H18_4 O20_5 1_555 1_555
Sc16_2 O23_3 1_555 1_555
Sc28_3 O7_4 1_555 1_555
O23_3 Sc28_3 1_555 1_555
O66 C40_4 1_555 1_555
O75_3 C40_4 1_555 1_555
O26_3 Sc16_2 1_555 1_555
O28_4 Sc28_3 1_555 1_555
O29_4 Sc27_3 1_555 1_555
O30_3 C37_4 1_555 1_555
O31_5 Sc16_2 1_555 1_555
H20_4 O31_5 1_555 1_555
C37_4 O29_4 1_555 1_555
C38_4 O26_3 1_555 1_555
C39_4 C38_4 1_555 1_555
C40_4 C54_4 1_555 1_555
C42_4 C39_4 1_555 1_555
H22_4 C42_4 1_555 1_555
C43_4 C42_4 1_555 1_555
C47_4 C43_4 1_555 1_555
C48_4 C47_4 1_555 1_555
C49_4 C48_4 1_555 1_555
C50_4 C49_4 1_555 1_555
H24_4 C50_4 1_555 1_555
C51_4 C49_4 1_555 1_555
H25_4 C51_4 1_555 1_555
C52_4 C37_4 1_555 1_555
C53_4 C52_4 1_555 1_555
H26_4 C53_4 1_555 1_555
C54_4 C51_4 1_555 1_555
H27_4 O31_5 1_555 1_555
Sc26_2 O19_3 1_555 1_555
Sc27_2 O8_3 1_555 1_555
Sc28_2 O30_3 1_555 1_555
O76_3 Sc14_2 1_555 1_555
O77_3 Sc16_2 1_555 1_555
O78_3 Sc15_2 1_555 1_555
O82_3 Sc27_3 1_555 1_555
O83_3 Sc26_3 1_555 1_555
O84_3 Sc28_3 1_555 1_555
O6_4 C2_4 1_555 1_555
C17_4 C18_4 1_555 1_555
O17_4 C20_4 1_555 1_555
C32_4 C34_4 1_555 1_555
C35_4 C36_4 1_555 1_555
O23_3 Sc27_2 1_555 1_555
O28_4 C38_4 1_555 1_555
C50_4 C52_4 1_555 1_555
C53_4 C54_4 1_555 1_555
Sc18_2 O63_4 1_555 1_555
Sc30_2 O63_4 1_555 1_555
Sc14 O1_4 1_555 1_555
Sc29_3 O1_4 1_555 1_555
Sc3_8 O10_5 1_555 1_555
O1_4 Sc26 1_555 1_555
O64_2 C4_5 1_555 1_555
O70_3 C4_5 1_555 1_555
O4_4 Sc14 1_555 1_555
O5_5 Sc29_3 1_555 1_555
H1_5 O5_5 1_555 1_555
O6_5 Sc29_3 1_555 1_555
O7_5 C1_5 1_555 1_555
O8_4 C1_5 1_555 1_555
O9_5 Sc14 1_555 1_555
H2_5 O9_5 1_555 1_555
C1_5 C16_5 1_555 1_555
O10_5 C10_5 1_555 1_555
C2_5 O4_4 1_555 1_555
C3_5 C2_5 1_555 1_555
C4_5 C18_5 1_555 1_555
C5_5 C3_5 1_555 1_555
H3_5 C5_5 1_555 1_555
C6_5 C3_5 1_555 1_555
H4_5 C6_5 1_555 1_555
C7_5 C6_5 1_555 1_555
C8_5 C7_5 1_555 1_555
H5_5 C8_5 1_555 1_555
C9_5 C5_5 1_555 1_555
O11_5 C10_5 1_555 1_555
C10_5 C9_5 1_555 1_555
C11_5 C7_5 1_555 1_555
C12_5 C11_5 1_555 1_555
C13_5 C12_5 1_555 1_555
C14_5 C13_5 1_555 1_555
H6_5 C14_5 1_555 1_555
C15_5 C13_5 1_555 1_555
H7_5 C15_5 1_555 1_555
C16_5 C14_5 1_555 1_555
C17_5 C16_5 1_555 1_555
H8_5 C17_5 1_555 1_555
C18_5 C15_5 1_555 1_555
H9_5 O9_5 1_555 1_555
Sc15 O12_4 1_555 1_555
Sc30_3 O12_4 1_555 1_555
O12_4 Sc28 1_555 1_555
O65_2 C22_5 1_555 1_555
O71_3 C22_5 1_555 1_555
O15_4 Sc15 1_555 1_555
O16_5 Sc30_3 1_555 1_555
H10_5 O16_5 1_555 1_555
O17_5 Sc30_3 1_555 1_555
O18_5 Sc29_3 1_555 1_555
O19_4 C19_5 1_555 1_555
O20_6 Sc15 1_555 1_555
H11_5 O20_6 1_555 1_555
C19_5 O18_5 1_555 1_555
O21_5 Sc3_8 1_555 1_555
C20_5 O15_4 1_555 1_555
C21_5 C20_5 1_555 1_555
C22_5 C36_5 1_555 1_555
C23_5 C21_5 1_555 1_555
H12_5 C23_5 1_555 1_555
C24_5 C21_5 1_555 1_555
H13_5 C24_5 1_555 1_555
C25_5 C24_5 1_555 1_555
C26_5 C25_5 1_555 1_555
H14_5 C26_5 1_555 1_555
C27_5 C23_5 1_555 1_555
O22_5 C28_5 1_555 1_555
C28_5 O21_5 1_555 1_555
C29_5 C25_5 1_555 1_555
C30_5 C29_5 1_555 1_555
C31_5 C30_5 1_555 1_555
C32_5 C31_5 1_555 1_555
H15_5 C32_5 1_555 1_555
C33_5 C31_5 1_555 1_555
H16_5 C33_5 1_555 1_555
C34_5 C19_5 1_555 1_555
C35_5 C34_5 1_555 1_555
H17_5 C35_5 1_555 1_555
C36_5 C33_5 1_555 1_555
H18_5 O20_6 1_555 1_555
Sc16 O23_4 1_555 1_555
Sc31_3 O7_5 1_555 1_555
O23_4 Sc31_3 1_555 1_555
O66_2 C40_5 1_555 1_555
O72_3 C40_5 1_555 1_555
O26_4 Sc16 1_555 1_555
O27_5 Sc31_3 1_555 1_555
H19_5 O27_5 1_555 1_555
O28_5 Sc31_3 1_555 1_555
O29_5 Sc30_3 1_555 1_555
O30_4 C37_5 1_555 1_555
O31_6 Sc16 1_555 1_555
H20_5 O31_6 1_555 1_555
C37_5 O29_5 1_555 1_555
O32_5 Sc3_8 1_555 1_555
C38_5 O26_4 1_555 1_555
C39_5 C38_5 1_555 1_555
C40_5 C54_5 1_555 1_555
C41_5 C39_5 1_555 1_555
H21_5 C41_5 1_555 1_555
C42_5 C39_5 1_555 1_555
H22_5 C42_5 1_555 1_555
C43_5 C42_5 1_555 1_555
C44_5 C43_5 1_555 1_555
H23_5 C44_5 1_555 1_555
C45_5 C41_5 1_555 1_555
O33_5 C46_5 1_555 1_555
C46_5 O32_5 1_555 1_555
C47_5 C43_5 1_555 1_555
C48_5 C47_5 1_555 1_555
C49_5 C48_5 1_555 1_555
C50_5 C49_5 1_555 1_555
H24_5 C50_5 1_555 1_555
C51_5 C49_5 1_555 1_555
H25_5 C51_5 1_555 1_555
C52_5 C37_5 1_555 1_555
C53_5 C52_5 1_555 1_555
H26_5 C53_5 1_555 1_555
C54_5 C51_5 1_555 1_555
H27_5 O31_6 1_555 1_555
Sc29_2 O37_5 1_555 1_555
O64_3 C58_5 1_555 1_555
O70 C58_5 1_555 1_555
O36_4 C56_5 1_555 1_555
O37_5 H28_5 1_555 1_555
O38_5 Sc29_2 1_555 1_555
O39_5 C55_5 1_555 1_555
O79_2 C55_5 1_555 1_555
C55_5 C70_5 1_555 1_555
O41_5 Sc3_8 1_555 1_555
C56_5 O38_5 1_555 1_555
C57_5 C56_5 1_555 1_555
C58_5 C72_5 1_555 1_555
C59_5 C57_5 1_555 1_555
H29_5 C59_5 1_555 1_555
C60_5 C57_5 1_555 1_555
H30_5 C60_5 1_555 1_555
C61_5 C60_5 1_555 1_555
C62_5 C61_5 1_555 1_555
H31_5 C62_5 1_555 1_555
C63_5 C59_5 1_555 1_555
O42_5 C64_5 1_555 1_555
C64_5 O41_5 1_555 1_555
C65_5 C61_5 1_555 1_555
C66_5 C65_5 1_555 1_555
C67_5 C66_5 1_555 1_555
C68_5 C67_5 1_555 1_555
H32_5 C68_5 1_555 1_555
C69_5 C67_5 1_555 1_555
H33_5 C69_5 1_555 1_555
C70_5 C68_5 1_555 1_555
C71_5 C70_5 1_555 1_555
H34_5 C71_5 1_555 1_555
C72_5 C69_5 1_555 1_555
Sc30_2 O46_5 1_555 1_555
O65_3 C76_5 1_555 1_555
O71 C76_5 1_555 1_555
O45_4 C74_5 1_555 1_555
O46_5 H35_5 1_555 1_555
O47_5 Sc30_2 1_555 1_555
O48_5 Sc29_2 1_555 1_555
O80_2 C73_5 1_555 1_555
C73_5 O48_5 1_555 1_555
O50_5 Sc3_8 1_555 1_555
C74_5 O47_5 1_555 1_555
C75_5 C74_5 1_555 1_555
C76_5 C90_5 1_555 1_555
C77_5 C75_5 1_555 1_555
H36_5 C77_5 1_555 1_555
C78_5 C75_5 1_555 1_555
H37_5 C78_5 1_555 1_555
C79_5 C78_5 1_555 1_555
C80_5 C79_5 1_555 1_555
H38_5 C80_5 1_555 1_555
C81_5 C77_5 1_555 1_555
O51_5 C82_5 1_555 1_555
C82_5 O50_5 1_555 1_555
C83_5 C79_5 1_555 1_555
C84_5 C83_5 1_555 1_555
C85_5 C84_5 1_555 1_555
C86_5 C85_5 1_555 1_555
H39_5 C86_5 1_555 1_555
C87_5 C85_5 1_555 1_555
H40_5 C87_5 1_555 1_555
C88_5 C73_5 1_555 1_555
C89_5 C88_5 1_555 1_555
H41_5 C89_5 1_555 1_555
C90_5 C87_5 1_555 1_555
Sc31_2 O39_5 1_555 1_555
O66_3 C94_5 1_555 1_555
O72 C94_5 1_555 1_555
O54_4 C92_5 1_555 1_555
O55_5 Sc31_2 1_555 1_555
H42_5 O55_5 1_555 1_555
O56_5 Sc31_2 1_555 1_555
O57_5 Sc30_2 1_555 1_555
O81_2 C91_5 1_555 1_555
C91_5 O57_5 1_555 1_555
O59_5 Sc3_8 1_555 1_555
C92_5 O56_5 1_555 1_555
C93_5 C92_5 1_555 1_555
C94_5 C108_5 1_555 1_555
C95_5 C93_5 1_555 1_555
H43_5 C95_5 1_555 1_555
C96_5 C93_5 1_555 1_555
H44_5 C96_5 1_555 1_555
C97_5 C96_5 1_555 1_555
C98_5 C97_5 1_555 1_555
H45_5 C98_5 1_555 1_555
C99_5 C95_5 1_555 1_555
O60_5 C100_5 1_555 1_555
C100_5 O59_5 1_555 1_555
C101_5 C97_5 1_555 1_555
C102_5 C101_5 1_555 1_555
C103_5 C102_5 1_555 1_555
C104_5 C103_5 1_555 1_555
H46_5 C104_5 1_555 1_555
C105_5 C103_5 1_555 1_555
H47_5 C105_5 1_555 1_555
C106_5 C91_5 1_555 1_555
C107_5 C106_5 1_555 1_555
H48_5 C107_5 1_555 1_555
C108_5 C105_5 1_555 1_555
Sc17 O36_4 1_555 1_555
Sc18_2 O45_4 1_555 1_555
Sc19 O54_4 1_555 1_555
Sc26 O19_4 1_555 1_555
Sc27 O8_4 1_555 1_555
Sc28 O30_4 1_555 1_555
O76_4 Sc14 1_555 1_555
O77_4 Sc16 1_555 1_555
O78_4 Sc15 1_555 1_555
O82_4 Sc30_3 1_555 1_555
O83_4 Sc29_3 1_555 1_555
O84_4 Sc31_3 1_555 1_555
O6_5 C2_5 1_555 1_555
C8_5 C9_5 1_555 1_555
C17_5 C18_5 1_555 1_555
O17_5 C20_5 1_555 1_555
C26_5 C27_5 1_555 1_555
C27_5 C28_5 1_555 1_555
C32_5 C34_5 1_555 1_555
C35_5 C36_5 1_555 1_555
O23_4 Sc27 1_555 1_555
O28_5 C38_5 1_555 1_555
C44_5 C45_5 1_555 1_555
C45_5 C46_5 1_555 1_555
C50_5 C52_5 1_555 1_555
C53_5 C54_5 1_555 1_555
C62_5 C63_5 1_555 1_555
C63_5 C64_5 1_555 1_555
C71_5 C72_5 1_555 1_555
C80_5 C81_5 1_555 1_555
C81_5 C82_5 1_555 1_555
C86_5 C88_5 1_555 1_555
C89_5 C90_5 1_555 1_555
C98_5 C99_5 1_555 1_555
C99_5 C100_5 1_555 1_555
C104_5 C106_5 1_555 1_555
C107_5 C108_5 1_555 1_555
O5_5 H49_5 1_555 1_555
O27_5 H50_5 1_555 1_555
O16_5 H51_5 1_555 1_555
O37_5 H52_5 1_555 1_555
O46_5 H53_5 1_555 1_555
O55_5 H54_5 1_555 1_555
O68 C76_6 1_555 1_555
O74 C76_6 1_555 1_555
O68_2 C22_6 1_555 1_555
O74_2 C22_6 1_555 1_555
O16_6 Sc27 1_555 1_555
H10_6 O16_6 1_555 1_555
O17_6 Sc27 1_555 1_555
C20_6 O77_4 1_555 1_555
C21_6 C20_6 1_555 1_555
C22_6 C36_6 1_555 1_555
C23_6 C21_6 1_555 1_555
H12_6 C23_6 1_555 1_555
C24_6 C21_6 1_555 1_555
H13_6 C24_6 1_555 1_555
C25_6 C24_6 1_555 1_555
C26_6 C25_6 1_555 1_555
H14_6 C26_6 1_555 1_555
C27_6 C23_6 1_555 1_555
O22_6 C28_6 1_555 1_555
C28_6 O21_6 1_555 1_555
C29_6 C25_6 1_555 1_555
C30_6 C29_6 1_555 1_555
C31_6 C30_6 1_555 1_555
C32_6 C31_6 1_555 1_555
H15_6 C32_6 1_555 1_555
C33_6 C31_6 1_555 1_555
H16_6 C33_6 1_555 1_555
C35_6 C34_6 1_555 1_555
H17_6 C35_6 1_555 1_555
C36_6 C33_6 1_555 1_555
O29_6 Sc27 1_555 1_555
O84_4 C37_6 1_555 1_555
C37_6 O29_6 1_555 1_555
Sc27_2 O46_6 1_555 1_555
O77_3 C74_6 1_555 1_555
O46_6 H35_6 1_555 1_555
O47_6 Sc27_2 1_555 1_555
C74_6 O47_6 1_555 1_555
C75_6 C74_6 1_555 1_555
C77_6 C75_6 1_555 1_555
H36_6 C77_6 1_555 1_555
C78_6 C75_6 1_555 1_555
H37_6 C78_6 1_555 1_555
C79_6 C78_6 1_555 1_555
C80_6 C79_6 1_555 1_555
H38_6 C80_6 1_555 1_555
C81_6 C77_6 1_555 1_555
O51_6 C82_6 1_555 1_555
C82_6 O50_6 1_555 1_555
C83_6 C79_6 1_555 1_555
C84_6 C83_6 1_555 1_555
C85_6 C84_6 1_555 1_555
C86_6 C85_6 1_555 1_555
H39_6 C86_6 1_555 1_555
C87_6 C85_6 1_555 1_555
H40_6 C87_6 1_555 1_555
C89_6 C88_6 1_555 1_555
H41_6 C89_6 1_555 1_555
C90_6 C87_6 1_555 1_555
O57_6 Sc27_2 1_555 1_555
O84_3 C91_6 1_555 1_555
C91_6 O57_6 1_555 1_555
O17_6 C20_6 1_555 1_555
C26_6 C27_6 1_555 1_555
C27_6 C28_6 1_555 1_555
C32_6 C34_6 1_555 1_555
C35_6 C36_6 1_555 1_555
C80_6 C81_6 1_555 1_555
C81_6 C82_6 1_555 1_555
C86_6 C88_6 1_555 1_555
C89_6 C90_6 1_555 1_555
O16_6 H51_6 1_555 1_555
O46_6 H53_6 1_555 1_555
O69 C94_6 1_555 1_555
O75 C94_6 1_555 1_555
Sc3_9 O10_6 1_555 1_555
O5_6 Sc26 1_555 1_555
H1_6 O5_6 1_555 1_555
O6_6 Sc26 1_555 1_555
O10_6 C10_6 1_555 1_555
C2_6 O76_4 1_555 1_555
C3_6 C2_6 1_555 1_555
C5_6 C3_6 1_555 1_555
H3_6 C5_6 1_555 1_555
C6_6 C3_6 1_555 1_555
C9_6 C5_6 1_555 1_555
O11_6 C10_6 1_555 1_555
C10_6 C9_6 1_555 1_555
O18_6 Sc26 1_555 1_555
O83_4 C19_6 1_555 1_555
C19_6 O18_6 1_555 1_555
C98_6 C97_6 1_555 1_555
H45_6 C98_6 1_555 1_555
C101_6 C97_6 1_555 1_555
C102_6 C101_6 1_555 1_555
C103_6 C102_6 1_555 1_555
C104_6 C103_6 1_555 1_555
H46_6 C104_6 1_555 1_555
C105_6 C103_6 1_555 1_555
H47_6 C105_6 1_555 1_555
C107_6 C106_6 1_555 1_555
H48_6 C107_6 1_555 1_555
C108_6 C105_6 1_555 1_555
O6_6 C2_6 1_555 1_555
C104_6 C106_6 1_555 1_555
C107_6 C108_6 1_555 1_555
O5_6 H49_6 1_555 1_555
O69_2 C40_6 1_555 1_555
O75_2 C40_6 1_555 1_555
C40_6 C54_6 1_555 1_555
C44_6 C43_6 1_555 1_555
H23_6 C44_6 1_555 1_555
C47_6 C43_6 1_555 1_555
C48_6 C47_6 1_555 1_555
C49_6 C48_6 1_555 1_555
C50_6 C49_6 1_555 1_555
H24_6 C50_6 1_555 1_555
C51_6 C49_6 1_555 1_555
H25_6 C51_6 1_555 1_555
C53_6 C52_6 1_555 1_555
H26_6 C53_6 1_555 1_555
C54_6 C51_6 1_555 1_555
Sc26_2 O37_6 1_555 1_555
O76_3 C56_6 1_555 1_555
O37_6 H28_6 1_555 1_555
O38_6 Sc26_2 1_555 1_555
C56_6 O38_6 1_555 1_555
C57_6 C56_6 1_555 1_555
C59_6 C57_6 1_555 1_555
H29_6 C59_6 1_555 1_555
C60_6 C57_6 1_555 1_555
C63_6 C59_6 1_555 1_555
O42_6 C64_6 1_555 1_555
C64_6 O41_6 1_555 1_555
O48_6 Sc26_2 1_555 1_555
O83_3 C73_6 1_555 1_555
C73_6 O48_6 1_555 1_555
C50_6 C52_6 1_555 1_555
C53_6 C54_6 1_555 1_555
C63_6 C64_6 1_555 1_555
O37_6 H52_6 1_555 1_555
O67 C58_6 1_555 1_555
O73 C58_6 1_555 1_555
O67_2 C4_6 1_555 1_555
O73_2 C4_6 1_555 1_555
O7_6 C1_6 1_555 1_555
O82_4 C1_6 1_555 1_555
C1_6 C16_6 1_555 1_555
C4_6 C18_6 1_555 1_555
C8_6 C7_6 1_555 1_555
H5_6 C8_6 1_555 1_555
C11_6 C7_6 1_555 1_555
C12_6 C11_6 1_555 1_555
C13_6 C12_6 1_555 1_555
C14_6 C13_6 1_555 1_555
H6_6 C14_6 1_555 1_555
C15_6 C13_6 1_555 1_555
H7_6 C15_6 1_555 1_555
C16_6 C14_6 1_555 1_555
C17_6 C16_6 1_555 1_555
H8_6 C17_6 1_555 1_555
C18_6 C15_6 1_555 1_555
Sc28 O7_6 1_555 1_555
O27_6 Sc28 1_555 1_555
H19_6 O27_6 1_555 1_555
O28_6 Sc28 1_555 1_555
C38_6 O78_4 1_555 1_555
C39_6 C38_6 1_555 1_555
C41_6 C39_6 1_555 1_555
H21_6 C41_6 1_555 1_555
C42_6 C39_6 1_555 1_555
C45_6 C41_6 1_555 1_555
O33_6 C46_6 1_555 1_555
C46_6 O32_6 1_555 1_555
O39_6 C55_6 1_555 1_555
O82_3 C55_6 1_555 1_555
C55_6 C70_6 1_555 1_555
C62_6 C61_6 1_555 1_555
H31_6 C62_6 1_555 1_555
C65_6 C61_6 1_555 1_555
C66_6 C65_6 1_555 1_555
C67_6 C66_6 1_555 1_555
C68_6 C67_6 1_555 1_555
H32_6 C68_6 1_555 1_555
C69_6 C67_6 1_555 1_555
H33_6 C69_6 1_555 1_555
C70_6 C68_6 1_555 1_555
C71_6 C70_6 1_555 1_555
H34_6 C71_6 1_555 1_555
C72_6 C69_6 1_555 1_555
Sc28_2 O39_6 1_555 1_555
O78_3 C92_6 1_555 1_555
O55_6 Sc28_2 1_555 1_555
H42_6 O55_6 1_555 1_555
O56_6 Sc28_2 1_555 1_555
C92_6 O56_6 1_555 1_555
C93_6 C92_6 1_555 1_555
C95_6 C93_6 1_555 1_555
H43_6 C95_6 1_555 1_555
C96_6 C93_6 1_555 1_555
C99_6 C95_6 1_555 1_555
O60_6 C100_6 1_555 1_555
C100_6 O59_6 1_555 1_555
C17_6 C18_6 1_555 1_555
O28_6 C38_6 1_555 1_555
C45_6 C46_6 1_555 1_555
C71_6 C72_6 1_555 1_555
C99_6 C100_6 1_555 1_555
O27_6 H50_6 1_555 1_555
O55_6 H54_6 1_555 1_555
Sc3_10 O21_6 1_555 1_555
O50_6 Sc3_10 1_555 1_555
Sc3_11 O32_6 1_555 1_555
O59_6 Sc3_11 1_555 1_555
O20_7 Sc19 1_555 1_555
H18_6 O20_7 1_555 1_555
O9_6 Sc17 1_555 1_555
H2_6 O9_6 1_555 1_555
H9_6 O9_6 1_555 1_555
O20_8 Sc19_2 1_555 1_555
H11_6 O20_8 1_555 1_555
O31_7 Sc18 1_555 1_555
H20_6 O31_7 1_555 1_555
O31_8 Sc18_2 1_555 1_555
H27_6 O31_8 1_555 1_555
Sc3_12 O41_6 1_555 1_555

#END
