
###############################################################################
#
# This file contains modified crystal structure data generated from the
# MOF subset of the Cambridge Structural Database (CSD) v543 
# hosted by the Cambridge Crystallographic Data Centre (CCDC).
#
# This work is licensed under the Creative Commons
# Attribution-NonCommercial-ShareAlike 4.0 International License.
# To view a copy of this license, visit
# http://creativecommons.org/licenses/by-nc-sa/4.0/
# or send a letter to
# Creative Commons, PO Box 1866, Mountain View, CA 94042, USA.
#
# CIF created using the CSD Python API on 29 September 2022
# The structure has been converted into the P1 space group
# The structure has a 3D framework
# The original CSD entry HOZTOG is in the cubic crystal system
# The framework has been calculated to contain at least 10.0% void space
# The void calculation uses a probe of radius 1.32A, grid spacing 0.4
#
###############################################################################

data_HOZTOG
_chemical_formula_moiety         '(C384 H288 Cu69 I48 N288 S43 W11)n'
_symmetry_cell_setting           triclinic
_symmetry_space_group_name_H-M   'P 1'
_symmetry_Int_Tables_number      1
_space_group_name_Hall           'P 1'
loop_
_symmetry_equiv_pos_site_id
_symmetry_equiv_pos_as_xyz
1 x,y,z
_cell_length_a                   30.361(3)
_cell_length_b                   30.361(3)
_cell_length_c                   30.361(3)
_cell_angle_alpha                90
_cell_angle_beta                 90
_cell_angle_gamma                90
_cell_volume                     27986.5
loop_
_atom_site_label
_atom_site_type_symbol
_atom_site_fract_x
_atom_site_fract_y
_atom_site_fract_z
H4 H 0.0076 0.0628 0.6666
Cu2 Cu 0.03628(4) 0.0000 0.7500
W1 W 0.1250 0.0000 0.7500
C22 C 0.0211(2) 0.1999(2) 0.54609(18)
H17 H 0.0451 0.2178 0.5522
C23 C 0.0064(2) 0.16400(19) 0.5720(2)
H18 H 0.0193 0.1538 0.5978
C49 C 0.1508(3) 0.2687(2) 0.3138(3)
H37 H 0.1581 0.2451 0.3319
C50 C 0.1154(2) 0.3291(2) 0.2854(2)
H38 H 0.0957 0.3521 0.2815
C51 C 0.1510(2) 0.3191(2) 0.2576(2)
H39 H 0.1587 0.3343 0.2321
C52 C 0.2102(2) 0.2620(2) 0.2598(2)
Cu7 Cu 0.07131(2) 0.30451(2) 0.36833(3)
Cu8 Cu 0.0000 0.2500 0.46372(4)
I4 I 0.096159(15) 0.377032(16) 0.403132(16)
N37 N 0.11454(19) 0.29833(18) 0.32001(18)
N38 N 0.17351(18) 0.28178(18) 0.27514(19)
N39 N 0.22084(18) 0.22586(19) 0.28240(19)
S4 S 0.06084(6) 0.24613(6) 0.41763(6)
C53 C 0.3138(3) 0.1508(3) 0.2687(2)
H40 H 0.3319 0.1581 0.2451
C54 C 0.2854(2) 0.1154(2) 0.3291(2)
H41 H 0.2815 0.0957 0.3521
C55 C 0.2576(2) 0.1510(2) 0.3191(2)
H42 H 0.2321 0.1587 0.3343
C56 C 0.2598(2) 0.2102(2) 0.2620(2)
N40 N 0.32001(18) 0.11454(19) 0.29833(18)
N41 N 0.27514(19) 0.17351(18) 0.28178(18)
N42 N 0.28240(19) 0.22084(18) 0.22586(19)
C57 C 0.2687(2) 0.3138(3) 0.1508(3)
H43 H 0.2451 0.3319 0.1581
C58 C 0.3291(2) 0.2854(2) 0.1154(2)
H44 H 0.3521 0.2815 0.0957
C59 C 0.3191(2) 0.2576(2) 0.1510(2)
H45 H 0.3343 0.2321 0.1587
C60 C 0.2620(2) 0.2598(2) 0.2102(2)
N43 N 0.29833(18) 0.32001(18) 0.11454(19)
N44 N 0.28178(18) 0.27514(19) 0.17351(18)
N45 N 0.22586(19) 0.28240(19) 0.22084(18)
H49 H 0.0819 0.0049 0.5919
N51 N 0.03240(19) 0.02414(19) 0.52916(18)
C69 C 0.0187(2) 0.0992(3) 0.4362(3)
C70 C 0.0791(2) 0.1346(2) 0.4646(2)
H53 H 0.1021 0.1543 0.4685
C71 C 0.0691(2) 0.0990(2) 0.4924(2)
H54 H 0.0843 0.0913 0.5179
C72 C 0.0120(2) 0.0398(2) 0.4902(2)
N52 N 0.04833(18) 0.13546(19) 0.42999(18)
N53 N 0.03178(18) 0.07649(18) 0.47486(19)
Cu12 Cu 0.21372(4) 0.0000 0.7500
S7 S 0.16763(6) 0.00387(6) 0.68916(6)
Cu14 Cu 0.11833(3) 0.05451(2) 0.82131(2)
I9 I 0.153132(16) 0.127032(16) 0.846159(15)
Cu15 Cu 0.13167(3) 0.07131(2) 0.69549(2)
I10 I 0.096868(16) 0.096159(15) 0.622968(16)
S10 S 0.08237(6) 0.06084(6) 0.75387(6)
Cu19 Cu 0.36833(3) 0.07131(2) 0.30451(2)
Cu21 Cu 0.30451(2) 0.36833(3) 0.07131(2)
Cu24 Cu 0.05451(2) 0.17869(2) 0.38167(3)
N74 N 0.17999(18) 0.11454(19) 0.70167(18)
N77 N 0.07001(18) 0.04833(18) 0.86454(19)
N78 N 0.25925(19) 0.04628(18) 0.75719(18)
N81 N 0.00719(18) 0.29628(18) 0.50925(19)
S20 S 0.00387(6) 0.31084(6) 0.33237(6)
W4 W 0.0000 0.2500 0.3750
Cu29 Cu 0.0000 0.7500 0.03628(4)
C1 C 0.1862(3) 0.8492(3) 0.7687(2)
H1 H 0.1681 0.8419 0.7451
C2 C 0.2146(2) 0.8846(2) 0.8291(2)
H2 H 0.2185 0.9043 0.8521
C3 C 0.2424(2) 0.8490(2) 0.8191(2)
H3 H 0.2679 0.8413 0.8343
C4 C 0.2402(2) 0.7898(2) 0.7620(2)
Cu1 Cu 0.13167(3) 0.92869(2) 0.80451(2)
Cu2_2 Cu 0.03628(4) 1.0000 0.7500
I1 I 0.096868(16) 0.903841(15) 0.877032(16)
N1 N 0.17999(18) 0.88546(19) 0.79833(18)
N2 N 0.22486(19) 0.82649(18) 0.78178(18)
N3 N 0.21760(19) 0.77916(18) 0.72586(19)
S1 S 0.08237(6) 0.93916(6) 0.74613(6)
W1_2 W 0.1250 1.0000 0.7500
C9 C 0.2313(2) 0.6862(3) 0.6508(3)
H7 H 0.2549 0.6681 0.6581
C10 C 0.1709(2) 0.7146(2) 0.6154(2)
H8 H 0.1479 0.7185 0.5957
C11 C 0.1809(2) 0.7424(2) 0.6510(2)
H9 H 0.1657 0.7679 0.6587
C12 C 0.2380(2) 0.7402(2) 0.7102(2)
N7 N 0.20167(18) 0.67999(18) 0.61454(19)
N8 N 0.21822(18) 0.72486(19) 0.67351(18)
N9 N 0.27414(19) 0.71760(19) 0.72084(18)
C13 C 0.3492(3) 0.7313(2) 0.8138(3)
H10 H 0.3419 0.7549 0.8319
C14 C 0.3846(2) 0.6709(2) 0.7854(2)
H11 H 0.4043 0.6479 0.7815
C15 C 0.3490(2) 0.6809(2) 0.7576(2)
H12 H 0.3413 0.6657 0.7321
C16 C 0.2898(2) 0.7380(2) 0.7598(2)
N10 N 0.38546(19) 0.70167(18) 0.82001(18)
N11 N 0.32649(18) 0.71822(18) 0.77514(19)
N12 N 0.27916(18) 0.77414(19) 0.78240(19)
C37 C 0.3288(2) 0.4878(2) 0.4601(2)
H28 H 0.3334 0.5076 0.4372
C38 C 0.3001(2) 0.45391(18) 0.5211(2)
H29 H 0.2822 0.4478 0.5451
C39 C 0.33600(19) 0.4280(2) 0.5064(2)
H30 H 0.3462 0.4022 0.5193
C40 C 0.39080(19) 0.4390(2) 0.4458(2)
Cu5 Cu 0.19549(2) 0.63167(3) 0.57131(2)
Cu6 Cu 0.2500 0.53628(4) 0.5000
I3 I 0.122968(16) 0.596868(16) 0.596159(15)
N28 N 0.29628(18) 0.49075(19) 0.49281(18)
N29 N 0.35347(18) 0.44866(18) 0.46847(19)
N30 N 0.4038(2) 0.46380(18) 0.4105(2)
S3 S 0.25387(6) 0.58237(6) 0.56084(6)
W3 W 0.2500 0.6250 0.5000
C41 C 0.4601(2) 0.3288(2) 0.4878(2)
H31 H 0.4372 0.3334 0.5076
C42 C 0.5211(2) 0.3001(2) 0.45391(18)
H32 H 0.5451 0.2822 0.4478
C43 C 0.5064(2) 0.33600(19) 0.4280(2)
H33 H 0.5193 0.3462 0.4022
C44 C 0.4458(2) 0.39080(19) 0.4390(2)
N31 N 0.49281(18) 0.29628(18) 0.49075(19)
N32 N 0.46847(19) 0.35347(18) 0.44866(18)
N33 N 0.4105(2) 0.4038(2) 0.46380(18)
C45 C 0.4878(2) 0.4601(2) 0.3288(2)
H34 H 0.5076 0.4372 0.3334
C46 C 0.45391(18) 0.5211(2) 0.3001(2)
H35 H 0.4478 0.5451 0.2822
C47 C 0.4280(2) 0.5064(2) 0.33600(19)
H36 H 0.4022 0.5193 0.3462
C48 C 0.4390(2) 0.4458(2) 0.39080(19)
N34 N 0.49075(19) 0.49281(18) 0.29628(18)
N35 N 0.44866(18) 0.46847(19) 0.35347(18)
N36 N 0.46380(18) 0.4105(2) 0.4038(2)
Cu9 Cu 0.42869(2) 0.69549(2) 0.86833(3)
I5 I 0.403841(15) 0.622968(16) 0.903132(16)
S5 S 0.43916(6) 0.75387(6) 0.91763(6)
C65 C 0.0638(3) 0.9813(2) 0.5992(3)
C66 C 0.0354(2) 0.9209(2) 0.6346(2)
H50 H 0.0315 0.8979 0.6543
C67 C 0.0076(2) 0.9309(2) 0.5990(2)
C68 C 0.0098(2) 0.9880(2) 0.5398(2)
N49 N 0.07001(18) 0.95167(18) 0.63546(19)
N50 N 0.02514(19) 0.96822(18) 0.57649(18)
Cu11 Cu 0.11833(3) 0.94549(2) 0.67869(2)
Cu12_2 Cu 0.21372(4) 1.0000 0.7500
I7 I 0.153132(16) 0.872968(16) 0.653841(15)
Cu13 Cu 0.44549(2) 0.82131(2) 0.88167(3)
I8 I 0.372968(16) 0.846159(15) 0.846868(16)
S8 S 0.50387(6) 0.81084(6) 0.83237(6)
H55 H 0.0076 0.9372 0.8334
C82 C 0.0211(2) 0.8001(2) 0.95391(18)
H62 H 0.0451 0.7822 0.9478
C83 C 0.0064(2) 0.83600(19) 0.9280(2)
H63 H 0.0193 0.8462 0.9022
S9 S 0.16763(6) 0.99613(6) 0.81084(6)
Cu18 Cu 0.5000 0.2500 0.53628(4)
Cu23 Cu 0.32131(2) 0.61833(3) 0.55451(2)
Cu25 Cu 0.57131(2) 0.80451(2) 0.86833(3)
Cu27 Cu 0.53628(4) 0.5000 0.2500
Cu30 Cu 0.5000 0.7500 0.96372(4)
Cu33 Cu 0.5000 0.7500 0.78628(4)
N73 N 0.45167(18) 0.86454(19) 0.92999(18)
N79 N 0.20372(18) 0.49075(19) 0.50719(18)
N80 N 0.50719(18) 0.20372(18) 0.49075(19)
N82 N 0.25925(19) 0.95372(18) 0.74281(18)
S13 S 0.56084(6) 0.25387(6) 0.58237(6)
S14 S 0.31084(6) 0.66763(6) 0.49613(6)
S15 S 0.24613(6) 0.58237(6) 0.43916(6)
S16 S 0.43916(6) 0.24613(6) 0.58237(6)
S18 S 0.18916(6) 0.66763(6) 0.50387(6)
S19 S 0.49613(6) 0.68916(6) 0.83237(6)
W5 W 0.5000 0.7500 0.8750
Cu28 Cu 0.7500 0.03628(4) 0.0000
C5 C 0.9878(2) 0.0399(2) 0.6712(2)
C8 C 0.9390(2) 0.0542(2) 0.60920(19)
N4 N 0.99075(19) 0.00719(18) 0.70372(18)
N5 N 0.94866(18) 0.03153(19) 0.64653(18)
N6 N 0.96380(18) 0.0895(2) 0.5962(2)
C17 C 0.8288(2) 0.0122(2) 0.5399(2)
C18 C 0.8001(2) 0.04609(18) 0.4789(2)
H14 H 0.7822 0.0522 0.4549
C19 C 0.83600(19) 0.0720(2) 0.4936(2)
H15 H 0.8462 0.0978 0.4807
C20 C 0.89080(19) 0.0610(2) 0.5542(2)
N13 N 0.79628(18) 0.00925(19) 0.50719(18)
N14 N 0.85347(18) 0.05134(18) 0.53153(19)
N15 N 0.9038(2) 0.03620(18) 0.5895(2)
C21 C 0.9601(2) 0.1712(2) 0.5122(2)
H16 H 0.9372 0.1666 0.4924
C24 C 0.9458(2) 0.10920(19) 0.5610(2)
N16 N 0.99281(18) 0.20372(18) 0.50925(19)
N17 N 0.96847(19) 0.14653(18) 0.55134(18)
N18 N 0.9105(2) 0.0962(2) 0.53620(18)
Cu8_2 Cu 1.0000 0.2500 0.46372(4)
H48 H 0.9087 0.0179 0.4157
H52 H 0.9951 0.0919 0.4181
N54 N 0.97586(19) 0.02916(18) 0.46760(19)
C74 C 0.95391(18) 0.0211(2) 0.8001(2)
H56 H 0.9478 0.0451 0.7822
C75 C 0.9280(2) 0.0064(2) 0.83600(19)
H57 H 0.9022 0.0193 0.8462
H58 H 0.8334 0.0076 0.9372
C85 C 0.6712(2) 0.0122(2) 0.4601(2)
C86 C 0.6999(2) 0.04609(18) 0.5211(2)
H65 H 0.7178 0.0522 0.5451
C87 C 0.66400(19) 0.0720(2) 0.5064(2)
H66 H 0.6538 0.0978 0.5193
C88 C 0.60920(19) 0.0610(2) 0.4458(2)
N64 N 0.70372(18) 0.00925(19) 0.49281(18)
N65 N 0.64653(18) 0.05134(18) 0.46847(19)
N66 N 0.5962(2) 0.03620(18) 0.4105(2)
C89 C 0.5399(2) 0.1712(2) 0.4878(2)
H67 H 0.5628 0.1666 0.5076
C90 C 0.4789(2) 0.1999(2) 0.45391(18)
H68 H 0.4549 0.2178 0.4478
C91 C 0.4936(2) 0.16400(19) 0.4280(2)
H69 H 0.4807 0.1538 0.4022
C92 C 0.5542(2) 0.10920(19) 0.4390(2)
N68 N 0.53153(19) 0.14653(18) 0.44866(18)
N69 N 0.5895(2) 0.0962(2) 0.46380(18)
C93 C 0.5122(2) 0.0399(2) 0.3288(2)
H70 H 0.4924 0.0628 0.3334
C96 C 0.5610(2) 0.0542(2) 0.39080(19)
N70 N 0.50925(19) 0.00719(18) 0.29628(18)
N71 N 0.55134(18) 0.03153(19) 0.35347(18)
N72 N 0.53620(18) 0.0895(2) 0.4038(2)
Cu26 Cu 0.46372(4) 0.0000 0.2500
Cu28_2 Cu 0.7500 0.03628(4) 1.0000
S17 S 0.93916(6) 0.25387(6) 0.41763(6)
W4_2 W 1.0000 0.2500 0.3750
C78 C 0.8001(2) 0.95391(18) 0.0211(2)
H59 H 0.7822 0.9478 0.0451
C79 C 0.83600(19) 0.9280(2) 0.0064(2)
H60 H 0.8462 0.9022 0.0193
H61 H 0.9372 0.8334 0.0076
Cu29_2 Cu 1.0000 0.7500 0.03628(4)
C6 C 0.95391(18) 0.9789(2) 0.6999(2)
H5 H 0.9478 0.9549 0.7178
C7 C 0.9280(2) 0.9936(2) 0.66400(19)
H6 H 0.9022 0.9807 0.6538
H13 H 0.8334 0.9924 0.5628
C25 C 0.7313(2) 0.8138(3) 0.3492(3)
H19 H 0.7549 0.8319 0.3419
C26 C 0.6709(2) 0.7854(2) 0.3846(2)
H20 H 0.6479 0.7815 0.4043
C27 C 0.6809(2) 0.7576(2) 0.3490(2)
H21 H 0.6657 0.7321 0.3413
C28 C 0.7380(2) 0.7598(2) 0.2898(2)
Cu3 Cu 0.69549(2) 0.86833(3) 0.42869(2)
Cu4 Cu 0.7500 0.96372(4) 0.5000
I2 I 0.622968(16) 0.903132(16) 0.403841(15)
N19 N 0.70167(18) 0.82001(18) 0.38546(19)
N20 N 0.71822(18) 0.77514(19) 0.32649(18)
N21 N 0.77414(19) 0.78240(19) 0.27916(18)
S2 S 0.75387(6) 0.91763(6) 0.43916(6)
W2 W 0.7500 0.8750 0.5000
C29 C 0.8492(3) 0.7687(2) 0.1862(3)
H22 H 0.8419 0.7451 0.1681
C30 C 0.8846(2) 0.8291(2) 0.2146(2)
H23 H 0.9043 0.8521 0.2185
C31 C 0.8490(2) 0.8191(2) 0.2424(2)
H24 H 0.8413 0.8343 0.2679
C32 C 0.7898(2) 0.7620(2) 0.2402(2)
N22 N 0.88546(19) 0.79833(18) 0.17999(18)
N23 N 0.82649(18) 0.78178(18) 0.22486(19)
N24 N 0.77916(18) 0.72586(19) 0.21760(19)
C33 C 0.6862(3) 0.6508(3) 0.2313(2)
H25 H 0.6681 0.6581 0.2549
C34 C 0.7146(2) 0.6154(2) 0.1709(2)
H26 H 0.7185 0.5957 0.1479
C35 C 0.7424(2) 0.6510(2) 0.1809(2)
H27 H 0.7679 0.6587 0.1657
C36 C 0.7402(2) 0.7102(2) 0.2380(2)
N25 N 0.67999(18) 0.61454(19) 0.20167(18)
N26 N 0.72486(19) 0.67351(18) 0.21822(18)
N27 N 0.71760(19) 0.72084(18) 0.27414(19)
C61 C 0.9008(3) 0.9362(3) 0.4813(2)
H46 H 0.9081 0.9181 0.5049
C62 C 0.8654(2) 0.9646(2) 0.4209(2)
H47 H 0.8457 0.9685 0.3979
C63 C 0.9010(2) 0.9924(2) 0.4309(2)
C64 C 0.9602(2) 0.9902(2) 0.4880(2)
Cu10 Cu 0.82131(2) 0.88167(3) 0.44549(2)
I6 I 0.846159(15) 0.846868(16) 0.372968(16)
N46 N 0.86454(19) 0.92999(18) 0.45167(18)
N47 N 0.92351(18) 0.97486(19) 0.46822(18)
N48 N 0.97084(18) 0.96760(19) 0.52414(19)
S6 S 0.81084(6) 0.83237(6) 0.50387(6)
H51 H 0.9821 0.9157 0.5913
C73 C 0.9878(2) 0.9601(2) 0.8288(2)
C76 C 0.9390(2) 0.9458(2) 0.89080(19)
N55 N 0.99075(19) 0.99281(18) 0.79628(18)
N56 N 0.94866(18) 0.96847(19) 0.85347(18)
N57 N 0.96380(18) 0.9105(2) 0.9038(2)
C77 C 0.8288(2) 0.9878(2) 0.9601(2)
C80 C 0.89080(19) 0.9390(2) 0.9458(2)
N58 N 0.79628(18) 0.99075(19) 0.99281(18)
N59 N 0.85347(18) 0.94866(18) 0.96847(19)
N60 N 0.9038(2) 0.96380(18) 0.9105(2)
C81 C 0.9601(2) 0.8288(2) 0.9878(2)
C84 C 0.9458(2) 0.89080(19) 0.9390(2)
N61 N 0.99281(18) 0.79628(18) 0.99075(19)
N62 N 0.96847(19) 0.85347(18) 0.94866(18)
N63 N 0.9105(2) 0.9038(2) 0.96380(18)
H64 H 0.6666 0.9924 0.4372
C94 C 0.54609(18) 0.9789(2) 0.3001(2)
H71 H 0.5522 0.9549 0.2822
C95 C 0.5720(2) 0.9936(2) 0.33600(19)
H72 H 0.5978 0.9807 0.3462
Cu16 Cu 0.67869(2) 0.88167(3) 0.55451(2)
I11 I 0.653841(15) 0.846868(16) 0.627032(16)
S11 S 0.68916(6) 0.83237(6) 0.49613(6)
Cu17 Cu 0.80451(2) 0.86833(3) 0.57131(2)
I12 I 0.877032(16) 0.903132(16) 0.596159(15)
S12 S 0.74613(6) 0.91763(6) 0.56084(6)
Cu20 Cu 0.63167(3) 0.57131(2) 0.19549(2)
Cu22 Cu 0.92869(2) 0.80451(2) 0.13167(3)
Cu26_2 Cu 0.46372(4) 1.0000 0.2500
Cu32 Cu 0.7500 0.78628(4) 0.5000
N75 N 0.79833(18) 0.82001(18) 0.61454(19)
N76 N 0.63546(19) 0.92999(18) 0.54833(18)
C6_2 C 0.54609(18) 0.0211(2) 0.1999(2)
H5_2 H 0.5522 0.0451 0.2178
C7_2 C 0.5720(2) 0.0064(2) 0.16400(19)
H6_2 H 0.5978 0.0193 0.1538
I1_2 I 0.403132(16) 0.096159(15) 0.377032(16)
S1_2 S 0.41763(6) 0.06084(6) 0.24613(6)
W1_3 W 0.3750 0.0000 0.2500
H13_2 H 0.6666 0.0076 0.0628
W2_2 W 0.7500 0.1250 0.0000
C38_2 C 0.1999(2) 0.54609(18) 0.0211(2)
H29_2 H 0.2178 0.5522 0.0451
C39_2 C 0.16400(19) 0.5720(2) 0.0064(2)
H30_2 H 0.1538 0.5978 0.0193
Cu6_2 Cu 0.2500 0.46372(4) 0.0000
I3_2 I 0.377032(16) 0.403132(16) 0.096159(15)
S3_2 S 0.24613(6) 0.41763(6) 0.06084(6)
W3_2 W 0.2500 0.3750 0.0000
H31_2 H 0.0628 0.6666 0.0076
H46_2 H 0.5919 0.0819 0.0049
N48_2 N 0.52916(18) 0.03240(19) 0.02414(19)
S6_2 S 0.68916(6) 0.16763(6) 0.00387(6)
C65_2 C 0.4362(3) 0.0187(2) 0.0992(3)
C66_2 C 0.4646(2) 0.0791(2) 0.1346(2)
H50_2 H 0.4685 0.1021 0.1543
C67_2 C 0.4924(2) 0.0691(2) 0.0990(2)
H51_2 H 0.5179 0.0843 0.0913
C68_2 C 0.4902(2) 0.0120(2) 0.0398(2)
N49_2 N 0.42999(18) 0.04833(18) 0.13546(19)
N50_2 N 0.47486(19) 0.03178(18) 0.07649(18)
Cu11_2 Cu 0.38167(3) 0.05451(2) 0.17869(2)
Cu12_3 Cu 0.28628(4) 0.0000 0.2500
I7_2 I 0.346868(16) 0.127032(16) 0.153841(15)
I8_2 I 0.127032(16) 0.153841(15) 0.346868(16)
S9_2 S 0.33237(6) 0.00387(6) 0.31084(6)
Cu16_2 Cu 0.82131(2) 0.11833(3) 0.05451(2)
I11_2 I 0.846159(15) 0.153132(16) 0.127032(16)
Cu17_2 Cu 0.69549(2) 0.13167(3) 0.07131(2)
I12_2 I 0.622968(16) 0.096868(16) 0.096159(15)
S12_2 S 0.75387(6) 0.08237(6) 0.06084(6)
Cu23_2 Cu 0.17869(2) 0.38167(3) 0.05451(2)
Cu32_2 Cu 0.7500 0.21372(4) 0.0000
Cu33_2 Cu -0.0000 0.2500 0.28628(4)
N75_2 N 0.70167(18) 0.17999(18) 0.11454(19)
N76_2 N 0.86454(19) 0.07001(18) 0.04833(18)
N79_2 N 0.29628(18) 0.50925(19) 0.00719(18)
N82_2 N 0.24075(19) 0.04628(18) 0.24281(18)
S16_2 S 0.06084(6) 0.75387(6) 0.08237(6)
S18_2 S 0.31084(6) 0.33237(6) 0.00387(6)
C25_2 C 0.7687(2) 0.1862(3) 0.8492(3)
H19_2 H 0.7451 0.1681 0.8419
C26_2 C 0.8291(2) 0.2146(2) 0.8846(2)
H20_2 H 0.8521 0.2185 0.9043
C27_2 C 0.8191(2) 0.2424(2) 0.8490(2)
H21_2 H 0.8343 0.2679 0.8413
C28_2 C 0.7620(2) 0.2402(2) 0.7898(2)
Cu3_2 Cu 0.80451(2) 0.13167(3) 0.92869(2)
I2_2 I 0.877032(16) 0.096868(16) 0.903841(15)
N19_2 N 0.79833(18) 0.17999(18) 0.88546(19)
N20_2 N 0.78178(18) 0.22486(19) 0.82649(18)
N21_2 N 0.72586(19) 0.21760(19) 0.77916(18)
S2_2 S 0.74613(6) 0.08237(6) 0.93916(6)
W2_3 W 0.7500 0.1250 1.0000
C29_2 C 0.6508(3) 0.2313(2) 0.6862(3)
H22_2 H 0.6581 0.2549 0.6681
C30_2 C 0.6154(2) 0.1709(2) 0.7146(2)
H23_2 H 0.5957 0.1479 0.7185
C31_2 C 0.6510(2) 0.1809(2) 0.7424(2)
H24_2 H 0.6587 0.1657 0.7679
C32_2 C 0.7102(2) 0.2380(2) 0.7402(2)
N22_2 N 0.61454(19) 0.20167(18) 0.67999(18)
N23_2 N 0.67351(18) 0.21822(18) 0.72486(19)
N24_2 N 0.72084(18) 0.27414(19) 0.71760(19)
C33_2 C 0.8138(3) 0.3492(3) 0.7313(2)
H25_2 H 0.8319 0.3419 0.7549
C34_2 C 0.7854(2) 0.3846(2) 0.6709(2)
H26_2 H 0.7815 0.4043 0.6479
C35_2 C 0.7576(2) 0.3490(2) 0.6809(2)
H27_2 H 0.7321 0.3413 0.6657
C36_2 C 0.7598(2) 0.2898(2) 0.7380(2)
N25_2 N 0.82001(18) 0.38546(19) 0.70167(18)
N26_2 N 0.77514(19) 0.32649(18) 0.71822(18)
N27_2 N 0.78240(19) 0.27916(18) 0.77414(19)
C37_2 C 0.1712(2) 0.5122(2) 0.9601(2)
H28_2 H 0.1666 0.4924 0.9372
C40_2 C 0.10920(19) 0.5610(2) 0.9458(2)
Cu6_3 Cu 0.2500 0.46372(4) 1.0000
N28_2 N 0.20372(18) 0.50925(19) 0.99281(18)
N29_2 N 0.14653(18) 0.55134(18) 0.96847(19)
N30_2 N 0.0962(2) 0.53620(18) 0.9105(2)
W3_3 W 0.2500 0.3750 1.0000
C41_2 C 0.0399(2) 0.6712(2) 0.9878(2)
C44_2 C 0.0542(2) 0.60920(19) 0.9390(2)
N31_2 N 0.00719(18) 0.70372(18) 0.99075(19)
N32_2 N 0.03153(19) 0.64653(18) 0.94866(18)
N33_2 N 0.0895(2) 0.5962(2) 0.96380(18)
C45_2 C 0.0122(2) 0.5399(2) 0.8288(2)
C46_2 C 0.04609(18) 0.4789(2) 0.8001(2)
H35_2 H 0.0522 0.4549 0.7822
C47_2 C 0.0720(2) 0.4936(2) 0.83600(19)
H36_2 H 0.0978 0.4807 0.8462
C48_2 C 0.0610(2) 0.5542(2) 0.89080(19)
N34_2 N 0.00925(19) 0.50719(18) 0.79628(18)
N35_2 N 0.05134(18) 0.53153(19) 0.85347(18)
N36_2 N 0.03620(18) 0.5895(2) 0.9038(2)
C61_2 C 0.5992(3) 0.0638(3) 0.9813(2)
C62_2 C 0.6346(2) 0.0354(2) 0.9209(2)
H47_2 H 0.6543 0.0315 0.8979
C63_2 C 0.5990(2) 0.0076(2) 0.9309(2)
C64_2 C 0.5398(2) 0.0098(2) 0.9880(2)
Cu10_2 Cu 0.67869(2) 0.11833(3) 0.94549(2)
I6_2 I 0.653841(15) 0.153132(16) 0.872968(16)
N46_2 N 0.63546(19) 0.07001(18) 0.95167(18)
N47_2 N 0.57649(18) 0.02514(19) 0.96822(18)
S11_2 S 0.81084(6) 0.16763(6) 0.99613(6)
Cu20_2 Cu 0.86833(3) 0.42869(2) 0.69549(2)
Cu22_2 Cu 0.57131(2) 0.19549(2) 0.63167(3)
Cu32_3 Cu 0.7500 0.21372(4) 1.0000
S14_2 S 0.18916(6) 0.33237(6) 0.99613(6)
S15_2 S 0.25387(6) 0.41763(6) 0.93916(6)
C5_2 C 0.5122(2) 0.9601(2) 0.1712(2)
H4_2 H 0.4924 0.9372 0.1666
C8_2 C 0.5610(2) 0.9458(2) 0.10920(19)
N4_2 N 0.50925(19) 0.99281(18) 0.20372(18)
N5_2 N 0.55134(18) 0.96847(19) 0.14653(18)
N6_2 N 0.53620(18) 0.9105(2) 0.0962(2)
W1_4 W 0.3750 1.0000 0.2500
C17_2 C 0.6712(2) 0.9878(2) 0.0399(2)
C20_2 C 0.60920(19) 0.9390(2) 0.0542(2)
N13_2 N 0.70372(18) 0.99075(19) 0.00719(18)
N14_2 N 0.64653(18) 0.94866(18) 0.03153(19)
N15_2 N 0.5962(2) 0.96380(18) 0.0895(2)
C21_2 C 0.5399(2) 0.8288(2) 0.0122(2)
C22_2 C 0.4789(2) 0.8001(2) 0.04609(18)
H17_2 H 0.4549 0.7822 0.0522
C23_2 C 0.4936(2) 0.83600(19) 0.0720(2)
H18_2 H 0.4807 0.8462 0.0978
C24_2 C 0.5542(2) 0.89080(19) 0.0610(2)
N16_2 N 0.50719(18) 0.79628(18) 0.00925(19)
N17_2 N 0.53153(19) 0.85347(18) 0.05134(18)
N18_2 N 0.5895(2) 0.9038(2) 0.03620(18)
H49_2 H 0.4181 0.9951 0.0919
N51_2 N 0.46760(19) 0.97586(19) 0.02916(18)
H54_2 H 0.4157 0.9087 0.0179
Cu12_4 Cu 0.28628(4) 1.0000 0.2500
S7_2 S 0.33237(6) 0.99613(6) 0.18916(6)
Cu14_2 Cu 0.38167(3) 0.94549(2) 0.32131(2)
I9_2 I 0.346868(16) 0.872968(16) 0.346159(15)
Cu15_2 Cu 0.36833(3) 0.92869(2) 0.19549(2)
I10_2 I 0.403132(16) 0.903841(15) 0.122968(16)
S10_2 S 0.41763(6) 0.93916(6) 0.25387(6)
N74_2 N 0.32001(18) 0.88546(19) 0.20167(18)
N77_2 N 0.42999(18) 0.95167(18) 0.36454(19)
N78_2 N 0.24075(19) 0.95372(18) 0.25719(18)
N81_2 N 0.49281(18) 0.70372(18) 0.00925(19)
C18_2 C 0.6999(2) 0.95391(18) 0.9789(2)
H14_2 H 0.7178 0.9478 0.9549
C19_2 C 0.66400(19) 0.9280(2) 0.9936(2)
H15_2 H 0.6538 0.9022 0.9807
H16_2 H 0.5628 0.8334 0.9924
H48_2 H 0.5913 0.9821 0.9157
C69_2 C 0.4813(2) 0.9008(3) 0.9362(3)
H52_2 H 0.5049 0.9081 0.9181
C70_2 C 0.4209(2) 0.8654(2) 0.9646(2)
H53_2 H 0.3979 0.8457 0.9685
C71_2 C 0.4309(2) 0.9010(2) 0.9924(2)
C72_2 C 0.4880(2) 0.9602(2) 0.9902(2)
N53_2 N 0.46822(18) 0.92351(18) 0.97486(19)
N54_2 N 0.52414(19) 0.97084(18) 0.96760(19)
S17_2 S 0.56084(6) 0.74613(6) 0.91763(6)
S8_2 S 0.99613(6) 0.18916(6) 0.33237(6)
Cu25_2 Cu 0.92869(2) 0.19549(2) 0.36833(3)
Cu33_3 Cu 1.0000 0.2500 0.28628(4)
S13_2 S 0.93916(6) 0.74613(6) 0.08237(6)
C42_2 C 0.9789(2) 0.6999(2) 0.95391(18)
H32_2 H 0.9549 0.7178 0.9478
C43_2 C 0.9936(2) 0.66400(19) 0.9280(2)
H33_2 H 0.9807 0.6538 0.9022
H34_2 H 0.9924 0.5628 0.8334
Cu27_2 Cu 0.96372(4) 0.5000 0.7500
C61_3 C 0.0992(3) 0.4362(3) 0.0187(2)
C62_3 C 0.1346(2) 0.4646(2) 0.0791(2)
H47_3 H 0.1543 0.4685 0.1021
C63_3 C 0.0990(2) 0.4924(2) 0.0691(2)
H48_3 H 0.0913 0.5179 0.0843
C64_3 C 0.0398(2) 0.4902(2) 0.0120(2)
I6_3 I 0.153841(15) 0.346868(16) 0.127032(16)
N46_3 N 0.13546(19) 0.42999(18) 0.04833(18)
N47_3 N 0.07649(18) 0.47486(19) 0.03178(18)
H52_3 H 0.0049 0.5919 0.0819
N54_3 N 0.02414(19) 0.52916(18) 0.03240(19)
C85_2 C 0.3288(2) 0.5122(2) 0.0399(2)
H64_2 H 0.3334 0.4924 0.0628
C88_2 C 0.39080(19) 0.5610(2) 0.0542(2)
N65_2 N 0.35347(18) 0.55134(18) 0.03153(19)
N66_2 N 0.4038(2) 0.53620(18) 0.0895(2)
C89_2 C 0.4601(2) 0.6712(2) 0.0122(2)
C90_2 C 0.5211(2) 0.6999(2) 0.04609(18)
H68_2 H 0.5451 0.7178 0.0522
C91_2 C 0.5064(2) 0.66400(19) 0.0720(2)
H69_2 H 0.5193 0.6538 0.0978
C92_2 C 0.4458(2) 0.60920(19) 0.0610(2)
N68_2 N 0.46847(19) 0.64653(18) 0.05134(18)
N69_2 N 0.4105(2) 0.5962(2) 0.03620(18)
C93_2 C 0.4878(2) 0.5399(2) 0.1712(2)
H70_2 H 0.5076 0.5628 0.1666
C94_2 C 0.45391(18) 0.4789(2) 0.1999(2)
H71_2 H 0.4478 0.4549 0.2178
C95_2 C 0.4280(2) 0.4936(2) 0.16400(19)
H72_2 H 0.4022 0.4807 0.1538
C96_2 C 0.4390(2) 0.5542(2) 0.10920(19)
N70_2 N 0.49075(19) 0.50719(18) 0.20372(18)
N71_2 N 0.44866(18) 0.53153(19) 0.14653(18)
N72_2 N 0.46380(18) 0.5895(2) 0.0962(2)
Cu32_4 Cu 0.2500 0.28628(4) 0.0000
W4_3 W -0.0000 0.7500 0.1250
H46_3 H 0.0919 0.4181 0.9951
N48_3 N 0.02916(18) 0.46760(19) 0.97586(19)
H51_3 H 0.0179 0.4157 0.9087
C73_2 C 0.0122(2) 0.4601(2) 0.6712(2)
C74_2 C 0.04609(18) 0.5211(2) 0.6999(2)
H56_2 H 0.0522 0.5451 0.7178
C75_2 C 0.0720(2) 0.5064(2) 0.66400(19)
H57_2 H 0.0978 0.5193 0.6538
C76_2 C 0.0610(2) 0.4458(2) 0.60920(19)
N55_2 N 0.00925(19) 0.49281(18) 0.70372(18)
N56_2 N 0.05134(18) 0.46847(19) 0.64653(18)
N57_2 N 0.03620(18) 0.4105(2) 0.5962(2)
C77_2 C 0.1712(2) 0.4878(2) 0.5399(2)
H58_2 H 0.1666 0.5076 0.5628
C78_2 C 0.1999(2) 0.45391(18) 0.4789(2)
H59_2 H 0.2178 0.4478 0.4549
C79_2 C 0.16400(19) 0.4280(2) 0.4936(2)
H60_2 H 0.1538 0.4022 0.4807
C80_2 C 0.10920(19) 0.4390(2) 0.5542(2)
N59_2 N 0.14653(18) 0.44866(18) 0.53153(19)
N60_2 N 0.0962(2) 0.46380(18) 0.5895(2)
C81_2 C 0.0399(2) 0.3288(2) 0.5122(2)
H61_2 H 0.0628 0.3334 0.4924
C84_2 C 0.0542(2) 0.39080(19) 0.5610(2)
N62_2 N 0.03153(19) 0.35347(18) 0.55134(18)
N63_2 N 0.0895(2) 0.4038(2) 0.53620(18)
C86_2 C 0.3001(2) 0.54609(18) 0.9789(2)
H65_2 H 0.2822 0.5522 0.9549
C87_2 C 0.33600(19) 0.5720(2) 0.9936(2)
H66_2 H 0.3462 0.5978 0.9807
H67_2 H 0.4372 0.6666 0.9924
Cu16_3 Cu 0.32131(2) 0.38167(3) 0.94549(2)
I11_3 I 0.346159(15) 0.346868(16) 0.872968(16)
Cu17_3 Cu 0.19549(2) 0.36833(3) 0.92869(2)
I12_3 I 0.122968(16) 0.403132(16) 0.903841(15)
Cu32_5 Cu 0.2500 0.28628(4) 1.0000
N75_3 N 0.20167(18) 0.32001(18) 0.88546(19)
N76_3 N 0.36454(19) 0.42999(18) 0.95167(18)
I4_2 I 0.903841(15) 0.877032(16) 0.096868(16)
C69_3 C 0.9813(2) 0.5992(3) 0.0638(3)
C70_3 C 0.9209(2) 0.6346(2) 0.0354(2)
H53_3 H 0.8979 0.6543 0.0315
C71_3 C 0.9309(2) 0.5990(2) 0.0076(2)
C72_3 C 0.9880(2) 0.5398(2) 0.0098(2)
N52_2 N 0.95167(18) 0.63546(19) 0.07001(18)
N53_3 N 0.96822(18) 0.57649(18) 0.02514(19)
Cu24_2 Cu 0.94549(2) 0.67869(2) 0.11833(3)
S20_2 S 0.99613(6) 0.81084(6) 0.16763(6)
W4_4 W 1.0000 0.7500 0.1250
I1_3 I 0.903132(16) 0.403841(15) 0.622968(16)
S1_3 S 0.91763(6) 0.43916(6) 0.75387(6)
W1_5 W 0.8750 0.5000 0.7500
I5_2 I 0.596159(15) 0.122968(16) 0.596868(16)
C65_3 C 0.9362(3) 0.4813(2) 0.9008(3)
H49_3 H 0.9181 0.5049 0.9081
C66_3 C 0.9646(2) 0.4209(2) 0.8654(2)
H50_3 H 0.9685 0.3979 0.8457
C67_3 C 0.9924(2) 0.4309(2) 0.9010(2)
C68_3 C 0.9902(2) 0.4880(2) 0.9602(2)
N49_3 N 0.92999(18) 0.45167(18) 0.86454(19)
N50_3 N 0.97486(19) 0.46822(18) 0.92351(18)
N51_3 N 0.96760(19) 0.52414(19) 0.97084(18)
H54_3 H 0.9157 0.5913 0.9821
Cu11_3 Cu 0.88167(3) 0.44549(2) 0.82131(2)
Cu12_5 Cu 0.78628(4) 0.5000 0.7500
I7_3 I 0.846868(16) 0.372968(16) 0.846159(15)
S7_3 S 0.83237(6) 0.50387(6) 0.81084(6)
Cu13_2 Cu 0.55451(2) 0.32131(2) 0.61833(3)
I8_3 I 0.627032(16) 0.346159(15) 0.653132(16)
S8_3 S 0.49613(6) 0.31084(6) 0.66763(6)
H55_2 H 0.9924 0.4372 0.6666
C82_2 C 0.9789(2) 0.3001(2) 0.54609(18)
H62_2 H 0.9549 0.2822 0.5522
C83_2 C 0.9936(2) 0.33600(19) 0.5720(2)
H63_2 H 0.9807 0.3462 0.5978
Cu14_3 Cu 0.88167(3) 0.55451(2) 0.67869(2)
I9_3 I 0.846868(16) 0.627032(16) 0.653841(15)
S9_3 S 0.83237(6) 0.49613(6) 0.68916(6)
Cu15_3 Cu 0.86833(3) 0.57131(2) 0.80451(2)
I10_3 I 0.903132(16) 0.596159(15) 0.877032(16)
S10_3 S 0.91763(6) 0.56084(6) 0.74613(6)
Cu25_3 Cu 0.42869(2) 0.30451(2) 0.63167(3)
Cu33_4 Cu 0.5000 0.2500 0.71372(4)
N73_2 N 0.54833(18) 0.36454(19) 0.57001(18)
N74_3 N 0.82001(18) 0.61454(19) 0.79833(18)
N77_3 N 0.92999(18) 0.54833(18) 0.63546(19)
N78_3 N 0.74075(19) 0.54628(18) 0.74281(18)
N82_3 N 0.74075(19) 0.45372(18) 0.75719(18)
S19_2 S 0.50387(6) 0.18916(6) 0.66763(6)
W5_2 W 0.5000 0.2500 0.6250
S8_4 S 0.00387(6) 0.68916(6) 0.16763(6)
Cu25_4 Cu 0.07131(2) 0.69549(2) 0.13167(3)
Cu33_5 Cu 0.0000 0.7500 0.21372(4)
I1_4 I 0.596868(16) 0.596159(15) 0.122968(16)
S1_4 S 0.58237(6) 0.56084(6) 0.25387(6)
W1_6 W 0.6250 0.5000 0.2500
C61_4 C 0.4008(3) 0.5638(3) 0.5187(2)
H46_4 H 0.4081 0.5819 0.4951
C62_4 C 0.3654(2) 0.5354(2) 0.5791(2)
H47_4 H 0.3457 0.5315 0.6021
C63_4 C 0.4010(2) 0.5076(2) 0.5691(2)
H48_4 H 0.4087 0.4821 0.5843
C64_4 C 0.4602(2) 0.5098(2) 0.5120(2)
I6_4 I 0.346159(15) 0.653132(16) 0.627032(16)
N46_4 N 0.36454(19) 0.57001(18) 0.54833(18)
N47_4 N 0.42351(18) 0.52514(19) 0.53178(18)
N48_4 N 0.47084(18) 0.53240(19) 0.47586(19)
C65_4 C 0.5638(3) 0.5187(2) 0.4008(3)
H49_4 H 0.5819 0.4951 0.4081
C66_4 C 0.5354(2) 0.5791(2) 0.3654(2)
H50_4 H 0.5315 0.6021 0.3457
C67_4 C 0.5076(2) 0.5691(2) 0.4010(2)
H51_4 H 0.4821 0.5843 0.4087
C68_4 C 0.5098(2) 0.5120(2) 0.4602(2)
N49_4 N 0.57001(18) 0.54833(18) 0.36454(19)
N50_4 N 0.52514(19) 0.53178(18) 0.42351(18)
N51_4 N 0.53240(19) 0.47586(19) 0.47084(18)
C69_4 C 0.5187(2) 0.4008(3) 0.5638(3)
H52_4 H 0.4951 0.4081 0.5819
C70_4 C 0.5791(2) 0.3654(2) 0.5354(2)
H53_4 H 0.6021 0.3457 0.5315
C71_4 C 0.5691(2) 0.4010(2) 0.5076(2)
H54_4 H 0.5843 0.4087 0.4821
C72_4 C 0.5120(2) 0.4602(2) 0.5098(2)
N53_4 N 0.53178(18) 0.42351(18) 0.52514(19)
N54_4 N 0.47586(19) 0.47084(18) 0.53240(19)
Cu11_4 Cu 0.61833(3) 0.55451(2) 0.32131(2)
Cu12_6 Cu 0.71372(4) 0.5000 0.2500
I7_4 I 0.653132(16) 0.627032(16) 0.346159(15)
S7_4 S 0.66763(6) 0.49613(6) 0.31084(6)
I8_4 I 0.872968(16) 0.653841(15) 0.153132(16)
Cu14_4 Cu 0.61833(3) 0.44549(2) 0.17869(2)
I9_4 I 0.653132(16) 0.372968(16) 0.153841(15)
S9_4 S 0.66763(6) 0.50387(6) 0.18916(6)
Cu15_4 Cu 0.63167(3) 0.42869(2) 0.30451(2)
I10_4 I 0.596868(16) 0.403841(15) 0.377032(16)
S10_4 S 0.58237(6) 0.43916(6) 0.24613(6)
Cu16_4 Cu 0.17869(2) 0.61833(3) 0.44549(2)
I11_4 I 0.153841(15) 0.653132(16) 0.372968(16)
Cu17_4 Cu 0.30451(2) 0.63167(3) 0.42869(2)
I12_4 I 0.377032(16) 0.596868(16) 0.403841(15)
Cu32_6 Cu 0.2500 0.71372(4) 0.5000
Cu33_6 Cu 1.0000 0.7500 0.21372(4)
N74_4 N 0.67999(18) 0.38546(19) 0.29833(18)
N75_4 N 0.29833(18) 0.67999(18) 0.38546(19)
N76_4 N 0.13546(19) 0.57001(18) 0.45167(18)
N77_4 N 0.57001(18) 0.45167(18) 0.13546(19)
N78_4 N 0.75925(19) 0.45372(18) 0.24281(18)
N82_4 N 0.75925(19) 0.54628(18) 0.25719(18)
N78_5 N 0.75719(18) 0.25925(19) 0.04628(18)
N82_5 N 0.74281(18) 0.25925(19) 0.95372(18)
Cu16_5 Cu 0.55451(2) 0.67869(2) 0.88167(3)
I11_5 I 0.627032(16) 0.653841(15) 0.846868(16)
I12_5 I 0.596159(15) 0.877032(16) 0.903132(16)
N75_5 N 0.61454(19) 0.79833(18) 0.82001(18)
N76_5 N 0.54833(18) 0.63546(19) 0.92999(18)
Cu16_6 Cu 0.05451(2) 0.82131(2) 0.11833(3)
I11_6 I 0.127032(16) 0.846159(15) 0.153132(16)
I12_6 I 0.096159(15) 0.622968(16) 0.096868(16)
N75_6 N 0.11454(19) 0.70167(18) 0.17999(18)
N76_6 N 0.04833(18) 0.86454(19) 0.07001(18)
N82_6 N 0.24281(18) 0.24075(19) 0.04628(18)
N78_6 N 0.25719(18) 0.24075(19) 0.95372(18)
Cu16_7 Cu 0.94549(2) 0.32131(2) 0.38167(3)
I11_7 I 0.872968(16) 0.346159(15) 0.346868(16)
I12_7 I 0.903841(15) 0.122968(16) 0.403132(16)
N75_7 N 0.88546(19) 0.20167(18) 0.32001(18)
N76_7 N 0.95167(18) 0.36454(19) 0.42999(18)
N78_7 N 0.74281(18) 0.74075(19) 0.54628(18)
N82_7 N 0.75719(18) 0.74075(19) 0.45372(18)
Cu16_8 Cu 0.44549(2) 0.17869(2) 0.61833(3)
I11_8 I 0.372968(16) 0.153841(15) 0.653132(16)
I12_8 I 0.403841(15) 0.377032(16) 0.596868(16)
N75_8 N 0.38546(19) 0.29833(18) 0.67999(18)
N76_8 N 0.45167(18) 0.13546(19) 0.57001(18)
N78_8 N 0.24281(18) 0.75925(19) 0.45372(18)
N82_8 N 0.25719(18) 0.75925(19) 0.54628(18)
N78_9 N 0.04628(18) 0.75719(18) 0.25925(19)
N82_9 N 0.95372(18) 0.74281(18) 0.25925(19)
N82_10 N 0.04628(18) 0.24281(18) 0.24075(19)
N78_10 N 0.95372(18) 0.25719(18) 0.24075(19)
N78_11 N 0.54628(18) 0.74281(18) 0.74075(19)
N82_11 N 0.45372(18) 0.75719(18) 0.74075(19)
N78_12 N 0.45372(18) 0.24281(18) 0.75925(19)
N82_12 N 0.54628(18) 0.25719(18) 0.75925(19)
C73_3 C 0.2101(2) 0.2378(2) 0.0788(2)
H55_3 H 0.1872 0.2576 0.0834
C74_3 C 0.2711(2) 0.20391(18) 0.0501(2)
H56_3 H 0.2951 0.1978 0.0322
C75_3 C 0.2564(2) 0.1780(2) 0.08600(19)
H57_3 H 0.2693 0.1522 0.0962
C76_3 C 0.1958(2) 0.1890(2) 0.14080(19)
N56_3 N 0.21847(19) 0.19866(18) 0.10347(18)
N57_3 N 0.1605(2) 0.21380(18) 0.1538(2)
C77_3 C 0.2378(2) 0.0788(2) 0.2101(2)
H58_3 H 0.2576 0.0834 0.1872
C78_3 C 0.20391(18) 0.0501(2) 0.2711(2)
H59_3 H 0.1978 0.0322 0.2951
C79_3 C 0.1780(2) 0.08600(19) 0.2564(2)
H60_3 H 0.1522 0.0962 0.2693
C80_3 C 0.1890(2) 0.14080(19) 0.1958(2)
N59_3 N 0.19866(18) 0.10347(18) 0.21847(19)
N60_3 N 0.21380(18) 0.1538(2) 0.1605(2)
C81_3 C 0.0788(2) 0.2101(2) 0.2378(2)
H61_3 H 0.0834 0.1872 0.2576
C82_3 C 0.0501(2) 0.2711(2) 0.20391(18)
H62_3 H 0.0322 0.2951 0.1978
C83_3 C 0.08600(19) 0.2564(2) 0.1780(2)
H63_3 H 0.0962 0.2693 0.1522
C84_3 C 0.14080(19) 0.1958(2) 0.1890(2)
N62_3 N 0.10347(18) 0.21847(19) 0.19866(18)
N63_3 N 0.1538(2) 0.1605(2) 0.21380(18)
C5_3 C 0.2899(2) 0.2378(2) 0.9212(2)
H4_3 H 0.3128 0.2576 0.9166
C6_3 C 0.2289(2) 0.20391(18) 0.9499(2)
H5_3 H 0.2049 0.1978 0.9678
C7_3 C 0.2436(2) 0.1780(2) 0.91400(19)
H6_3 H 0.2307 0.1522 0.9038
C8_3 C 0.3042(2) 0.1890(2) 0.85920(19)
N5_3 N 0.28153(19) 0.19866(18) 0.89653(18)
N6_3 N 0.3395(2) 0.21380(18) 0.8462(2)
C17_3 C 0.2622(2) 0.0788(2) 0.7899(2)
H13_3 H 0.2424 0.0834 0.8128
C18_3 C 0.29609(18) 0.0501(2) 0.7289(2)
H14_3 H 0.3022 0.0322 0.7049
C19_3 C 0.3220(2) 0.08600(19) 0.7436(2)
H15_3 H 0.3478 0.0962 0.7307
C20_3 C 0.3110(2) 0.14080(19) 0.8042(2)
N14_3 N 0.30134(18) 0.10347(18) 0.78153(19)
N15_3 N 0.28620(18) 0.1538(2) 0.8395(2)
C21_3 C 0.4212(2) 0.2101(2) 0.7622(2)
H16_3 H 0.4166 0.1872 0.7424
C22_3 C 0.4499(2) 0.2711(2) 0.79609(18)
H17_3 H 0.4678 0.2951 0.8022
C23_3 C 0.41400(19) 0.2564(2) 0.8220(2)
H18_3 H 0.4038 0.2693 0.8478
C24_3 C 0.35920(19) 0.1958(2) 0.8110(2)
N17_3 N 0.39653(18) 0.21847(19) 0.80134(18)
N18_3 N 0.3462(2) 0.1605(2) 0.78620(18)
C61_5 C 0.1862(3) 0.1508(3) 0.7313(2)
H46_5 H 0.1681 0.1581 0.7549
C62_5 C 0.2146(2) 0.1154(2) 0.6709(2)
H47_5 H 0.2185 0.0957 0.6479
C63_5 C 0.2424(2) 0.1510(2) 0.6809(2)
H48_5 H 0.2679 0.1587 0.6657
C64_5 C 0.2402(2) 0.2102(2) 0.7380(2)
N47_5 N 0.22486(19) 0.17351(18) 0.71822(18)
N48_5 N 0.21760(19) 0.22084(18) 0.77414(19)
C65_5 C 0.2313(2) 0.3138(3) 0.8492(3)
H49_5 H 0.2549 0.3319 0.8419
C66_5 C 0.1709(2) 0.2854(2) 0.8846(2)
H50_5 H 0.1479 0.2815 0.9043
C67_5 C 0.1809(2) 0.2576(2) 0.8490(2)
H51_5 H 0.1657 0.2321 0.8413
C68_5 C 0.2380(2) 0.2598(2) 0.7898(2)
N50_5 N 0.21822(18) 0.27514(19) 0.82649(18)
N51_5 N 0.27414(19) 0.28240(19) 0.77916(18)
C69_5 C 0.3492(3) 0.2687(2) 0.6862(3)
H52_5 H 0.3419 0.2451 0.6681
C70_5 C 0.3846(2) 0.3291(2) 0.7146(2)
H53_5 H 0.4043 0.3521 0.7185
C71_5 C 0.3490(2) 0.3191(2) 0.7424(2)
H54_5 H 0.3413 0.3343 0.7679
C72_5 C 0.2898(2) 0.2620(2) 0.7402(2)
N53_5 N 0.32649(18) 0.28178(18) 0.72486(19)
N54_5 N 0.27916(18) 0.22586(19) 0.71760(19)
C85_3 C 0.2622(2) 0.9212(2) 0.7101(2)
H64_3 H 0.2424 0.9166 0.6872
C86_3 C 0.29609(18) 0.9499(2) 0.7711(2)
H65_3 H 0.3022 0.9678 0.7951
C87_3 C 0.3220(2) 0.91400(19) 0.7564(2)
H66_3 H 0.3478 0.9038 0.7693
C88_3 C 0.3110(2) 0.85920(19) 0.6958(2)
N65_3 N 0.30134(18) 0.89653(18) 0.71847(19)
N66_3 N 0.28620(18) 0.8462(2) 0.6605(2)
C89_3 C 0.4212(2) 0.7899(2) 0.7378(2)
H67_3 H 0.4166 0.8128 0.7576
C90_3 C 0.4499(2) 0.7289(2) 0.70391(18)
H68_3 H 0.4678 0.7049 0.6978
C91_3 C 0.41400(19) 0.7436(2) 0.6780(2)
H69_3 H 0.4038 0.7307 0.6522
C92_3 C 0.35920(19) 0.8042(2) 0.6890(2)
N68_3 N 0.39653(18) 0.78153(19) 0.69866(18)
N69_3 N 0.3462(2) 0.8395(2) 0.71380(18)
C93_3 C 0.2899(2) 0.7622(2) 0.5788(2)
H70_3 H 0.3128 0.7424 0.5834
C94_3 C 0.2289(2) 0.79609(18) 0.5501(2)
H71_3 H 0.2049 0.8022 0.5322
C95_3 C 0.2436(2) 0.8220(2) 0.58600(19)
H72_3 H 0.2307 0.8478 0.5962
C96_3 C 0.3042(2) 0.8110(2) 0.64080(19)
N71_3 N 0.28153(19) 0.80134(18) 0.60347(18)
N72_3 N 0.3395(2) 0.78620(18) 0.6538(2)
C37_3 C 0.7378(2) 0.5788(2) 0.7101(2)
H28_3 H 0.7576 0.5834 0.6872
C38_3 C 0.70391(18) 0.5501(2) 0.7711(2)
H29_3 H 0.6978 0.5322 0.7951
C39_3 C 0.6780(2) 0.58600(19) 0.7564(2)
H30_3 H 0.6522 0.5962 0.7693
C40_3 C 0.6890(2) 0.64080(19) 0.6958(2)
N29_3 N 0.69866(18) 0.60347(18) 0.71847(19)
N30_3 N 0.71380(18) 0.6538(2) 0.6605(2)
C41_3 C 0.5788(2) 0.7101(2) 0.7378(2)
H31_3 H 0.5834 0.6872 0.7576
C42_3 C 0.5501(2) 0.7711(2) 0.70391(18)
H32_3 H 0.5322 0.7951 0.6978
C43_3 C 0.58600(19) 0.7564(2) 0.6780(2)
H33_3 H 0.5962 0.7693 0.6522
C44_3 C 0.64080(19) 0.6958(2) 0.6890(2)
N32_3 N 0.60347(18) 0.71847(19) 0.69866(18)
N33_3 N 0.6538(2) 0.6605(2) 0.71380(18)
C45_3 C 0.7101(2) 0.7378(2) 0.5788(2)
H34_3 H 0.6872 0.7576 0.5834
C46_3 C 0.7711(2) 0.70391(18) 0.5501(2)
H35_3 H 0.7951 0.6978 0.5322
C47_3 C 0.7564(2) 0.6780(2) 0.58600(19)
H36_3 H 0.7693 0.6522 0.5962
C48_3 C 0.6958(2) 0.6890(2) 0.64080(19)
N35_3 N 0.71847(19) 0.69866(18) 0.60347(18)
N36_3 N 0.6605(2) 0.71380(18) 0.6538(2)
C5_4 C 0.2101(2) 0.7622(2) 0.4212(2)
H4_4 H 0.1872 0.7424 0.4166
C6_4 C 0.2711(2) 0.79609(18) 0.4499(2)
H5_4 H 0.2951 0.8022 0.4678
C7_4 C 0.2564(2) 0.8220(2) 0.41400(19)
H6_4 H 0.2693 0.8478 0.4038
C8_4 C 0.1958(2) 0.8110(2) 0.35920(19)
N5_4 N 0.21847(19) 0.80134(18) 0.39653(18)
N6_4 N 0.1605(2) 0.78620(18) 0.3462(2)
C17_4 C 0.2378(2) 0.9212(2) 0.2899(2)
H13_4 H 0.2576 0.9166 0.3128
C18_4 C 0.20391(18) 0.9499(2) 0.2289(2)
H14_4 H 0.1978 0.9678 0.2049
C19_4 C 0.1780(2) 0.91400(19) 0.2436(2)
H15_4 H 0.1522 0.9038 0.2307
C20_4 C 0.1890(2) 0.85920(19) 0.3042(2)
N14_4 N 0.19866(18) 0.89653(18) 0.28153(19)
N15_4 N 0.21380(18) 0.8462(2) 0.3395(2)
C21_4 C 0.0788(2) 0.7899(2) 0.2622(2)
H16_4 H 0.0834 0.8128 0.2424
C22_4 C 0.0501(2) 0.7289(2) 0.29609(18)
H17_4 H 0.0322 0.7049 0.3022
C23_4 C 0.08600(19) 0.7436(2) 0.3220(2)
H18_4 H 0.0962 0.7307 0.3478
C24_4 C 0.14080(19) 0.8042(2) 0.3110(2)
N17_4 N 0.10347(18) 0.78153(19) 0.30134(18)
N18_4 N 0.1538(2) 0.8395(2) 0.28620(18)
C37_4 C 0.7622(2) 0.4212(2) 0.2101(2)
H28_4 H 0.7424 0.4166 0.1872
C38_4 C 0.79609(18) 0.4499(2) 0.2711(2)
H29_4 H 0.8022 0.4678 0.2951
C39_4 C 0.8220(2) 0.41400(19) 0.2564(2)
H30_4 H 0.8478 0.4038 0.2693
C40_4 C 0.8110(2) 0.35920(19) 0.1958(2)
N29_4 N 0.80134(18) 0.39653(18) 0.21847(19)
N30_4 N 0.78620(18) 0.3462(2) 0.1605(2)
C41_4 C 0.9212(2) 0.2899(2) 0.2378(2)
H31_4 H 0.9166 0.3128 0.2576
C42_4 C 0.9499(2) 0.2289(2) 0.20391(18)
H32_4 H 0.9678 0.2049 0.1978
C43_4 C 0.91400(19) 0.2436(2) 0.1780(2)
H33_4 H 0.9038 0.2307 0.1522
C44_4 C 0.85920(19) 0.3042(2) 0.1890(2)
N32_4 N 0.89653(18) 0.28153(19) 0.19866(18)
N33_4 N 0.8462(2) 0.3395(2) 0.21380(18)
C45_4 C 0.7899(2) 0.2622(2) 0.0788(2)
H34_4 H 0.8128 0.2424 0.0834
C46_4 C 0.7289(2) 0.29609(18) 0.0501(2)
H35_4 H 0.7049 0.3022 0.0322
C47_4 C 0.7436(2) 0.3220(2) 0.08600(19)
H36_4 H 0.7307 0.3478 0.0962
C48_4 C 0.8042(2) 0.3110(2) 0.14080(19)
N35_4 N 0.78153(19) 0.30134(18) 0.10347(18)
N36_4 N 0.8395(2) 0.28620(18) 0.1538(2)
C61_6 C 0.3138(3) 0.8492(3) 0.2313(2)
H46_6 H 0.3319 0.8419 0.2549
C62_6 C 0.2854(2) 0.8846(2) 0.1709(2)
H47_6 H 0.2815 0.9043 0.1479
C63_6 C 0.2576(2) 0.8490(2) 0.1809(2)
H48_6 H 0.2321 0.8413 0.1657
C64_6 C 0.2598(2) 0.7898(2) 0.2380(2)
N47_6 N 0.27514(19) 0.82649(18) 0.21822(18)
N48_6 N 0.28240(19) 0.77916(18) 0.27414(19)
C65_6 C 0.2687(2) 0.6862(3) 0.3492(3)
H49_6 H 0.2451 0.6681 0.3419
C66_6 C 0.3291(2) 0.7146(2) 0.3846(2)
H50_6 H 0.3521 0.7185 0.4043
C67_6 C 0.3191(2) 0.7424(2) 0.3490(2)
H51_6 H 0.3343 0.7679 0.3413
C68_6 C 0.2620(2) 0.7402(2) 0.2898(2)
N50_6 N 0.28178(18) 0.72486(19) 0.32649(18)
N51_6 N 0.22586(19) 0.71760(19) 0.27916(18)
C69_6 C 0.1508(3) 0.7313(2) 0.1862(3)
H52_6 H 0.1581 0.7549 0.1681
C70_6 C 0.1154(2) 0.6709(2) 0.2146(2)
H53_6 H 0.0957 0.6479 0.2185
C71_6 C 0.1510(2) 0.6809(2) 0.2424(2)
H54_6 H 0.1587 0.6657 0.2679
C72_6 C 0.2102(2) 0.7380(2) 0.2402(2)
N53_6 N 0.17351(18) 0.71822(18) 0.22486(19)
N54_6 N 0.22084(18) 0.77414(19) 0.21760(19)
C61_7 C 0.6862(3) 0.3492(3) 0.2687(2)
H46_7 H 0.6681 0.3419 0.2451
C62_7 C 0.7146(2) 0.3846(2) 0.3291(2)
H47_7 H 0.7185 0.4043 0.3521
C63_7 C 0.7424(2) 0.3490(2) 0.3191(2)
H48_7 H 0.7679 0.3413 0.3343
C64_7 C 0.7402(2) 0.2898(2) 0.2620(2)
N47_7 N 0.72486(19) 0.32649(18) 0.28178(18)
N48_7 N 0.71760(19) 0.27916(18) 0.22586(19)
C65_7 C 0.7313(2) 0.1862(3) 0.1508(3)
H49_7 H 0.7549 0.1681 0.1581
C66_7 C 0.6709(2) 0.2146(2) 0.1154(2)
H50_7 H 0.6479 0.2185 0.0957
C67_7 C 0.6809(2) 0.2424(2) 0.1510(2)
H51_7 H 0.6657 0.2679 0.1587
C68_7 C 0.7380(2) 0.2402(2) 0.2102(2)
N50_7 N 0.71822(18) 0.22486(19) 0.17351(18)
N51_7 N 0.77414(19) 0.21760(19) 0.22084(18)
C69_7 C 0.8492(3) 0.2313(2) 0.3138(3)
H52_7 H 0.8419 0.2549 0.3319
C70_7 C 0.8846(2) 0.1709(2) 0.2854(2)
H53_7 H 0.9043 0.1479 0.2815
C71_7 C 0.8490(2) 0.1809(2) 0.2576(2)
H54_7 H 0.8413 0.1657 0.2321
C72_7 C 0.7898(2) 0.2380(2) 0.2598(2)
N53_7 N 0.82649(18) 0.21822(18) 0.27514(19)
N54_7 N 0.77916(18) 0.27414(19) 0.28240(19)
C85_4 C 0.7622(2) 0.5788(2) 0.2899(2)
H64_4 H 0.7424 0.5834 0.3128
C86_4 C 0.79609(18) 0.5501(2) 0.2289(2)
H65_4 H 0.8022 0.5322 0.2049
C87_4 C 0.8220(2) 0.58600(19) 0.2436(2)
H66_4 H 0.8478 0.5962 0.2307
C88_4 C 0.8110(2) 0.64080(19) 0.3042(2)
N65_4 N 0.80134(18) 0.60347(18) 0.28153(19)
N66_4 N 0.78620(18) 0.6538(2) 0.3395(2)
C89_4 C 0.9212(2) 0.7101(2) 0.2622(2)
H67_4 H 0.9166 0.6872 0.2424
C90_4 C 0.9499(2) 0.7711(2) 0.29609(18)
H68_4 H 0.9678 0.7951 0.3022
C91_4 C 0.91400(19) 0.7564(2) 0.3220(2)
H69_4 H 0.9038 0.7693 0.3478
C92_4 C 0.85920(19) 0.6958(2) 0.3110(2)
N68_4 N 0.89653(18) 0.71847(19) 0.30134(18)
N69_4 N 0.8462(2) 0.6605(2) 0.28620(18)
C93_4 C 0.7899(2) 0.7378(2) 0.4212(2)
H70_4 H 0.8128 0.7576 0.4166
C94_4 C 0.7289(2) 0.70391(18) 0.4499(2)
H71_4 H 0.7049 0.6978 0.4678
C95_4 C 0.7436(2) 0.6780(2) 0.41400(19)
H72_4 H 0.7307 0.6522 0.4038
C96_4 C 0.8042(2) 0.6890(2) 0.35920(19)
N71_4 N 0.78153(19) 0.69866(18) 0.39653(18)
N72_4 N 0.8395(2) 0.71380(18) 0.3462(2)
C73_4 C 0.7101(2) 0.2622(2) 0.9212(2)
H55_4 H 0.6872 0.2424 0.9166
C74_4 C 0.7711(2) 0.29609(18) 0.9499(2)
H56_4 H 0.7951 0.3022 0.9678
C75_4 C 0.7564(2) 0.3220(2) 0.91400(19)
H57_4 H 0.7693 0.3478 0.9038
C76_4 C 0.6958(2) 0.3110(2) 0.85920(19)
N56_4 N 0.71847(19) 0.30134(18) 0.89653(18)
N57_4 N 0.6605(2) 0.28620(18) 0.8462(2)
C77_4 C 0.7378(2) 0.4212(2) 0.7899(2)
H58_4 H 0.7576 0.4166 0.8128
C78_4 C 0.70391(18) 0.4499(2) 0.7289(2)
H59_4 H 0.6978 0.4678 0.7049
C79_4 C 0.6780(2) 0.41400(19) 0.7436(2)
H60_4 H 0.6522 0.4038 0.7307
C80_4 C 0.6890(2) 0.35920(19) 0.8042(2)
N59_4 N 0.69866(18) 0.39653(18) 0.78153(19)
N60_4 N 0.71380(18) 0.3462(2) 0.8395(2)
C81_4 C 0.5788(2) 0.2899(2) 0.7622(2)
H61_4 H 0.5834 0.3128 0.7424
C82_4 C 0.5501(2) 0.2289(2) 0.79609(18)
H62_4 H 0.5322 0.2049 0.8022
C83_4 C 0.58600(19) 0.2436(2) 0.8220(2)
H63_4 H 0.5962 0.2307 0.8478
C84_4 C 0.64080(19) 0.3042(2) 0.8110(2)
N62_4 N 0.60347(18) 0.28153(19) 0.80134(18)
N63_4 N 0.6538(2) 0.3395(2) 0.78620(18)
C61_8 C 0.8138(3) 0.6508(3) 0.7687(2)
H46_8 H 0.8319 0.6581 0.7451
C62_8 C 0.7854(2) 0.6154(2) 0.8291(2)
H47_8 H 0.7815 0.5957 0.8521
C63_8 C 0.7576(2) 0.6510(2) 0.8191(2)
H48_8 H 0.7321 0.6587 0.8343
C64_8 C 0.7598(2) 0.7102(2) 0.7620(2)
N47_8 N 0.77514(19) 0.67351(18) 0.78178(18)
N48_8 N 0.78240(19) 0.72084(18) 0.72586(19)
C65_8 C 0.7687(2) 0.8138(3) 0.6508(3)
H49_8 H 0.7451 0.8319 0.6581
C66_8 C 0.8291(2) 0.7854(2) 0.6154(2)
H50_8 H 0.8521 0.7815 0.5957
C67_8 C 0.8191(2) 0.7576(2) 0.6510(2)
H51_8 H 0.8343 0.7321 0.6587
C68_8 C 0.7620(2) 0.7598(2) 0.7102(2)
N50_8 N 0.78178(18) 0.77514(19) 0.67351(18)
N51_8 N 0.72586(19) 0.78240(19) 0.72084(18)
C69_8 C 0.6508(3) 0.7687(2) 0.8138(3)
H52_8 H 0.6581 0.7451 0.8319
C70_8 C 0.6154(2) 0.8291(2) 0.7854(2)
H53_8 H 0.5957 0.8521 0.7815
C71_8 C 0.6510(2) 0.8191(2) 0.7576(2)
H54_8 H 0.6587 0.8343 0.7321
C72_8 C 0.7102(2) 0.7620(2) 0.7598(2)
N53_8 N 0.67351(18) 0.78178(18) 0.77514(19)
N54_8 N 0.72084(18) 0.72586(19) 0.78240(19)
H46_9 H 0.4081 0.4181 0.0049
N48_9 N 0.47084(18) 0.46760(19) 0.02414(19)
C65_9 C 0.5638(3) 0.4813(2) 0.0992(3)
H49_9 H 0.5819 0.5049 0.0919
C66_9 C 0.5354(2) 0.4209(2) 0.1346(2)
H50_9 H 0.5315 0.3979 0.1543
C67_9 C 0.5076(2) 0.4309(2) 0.0990(2)
H51_9 H 0.4821 0.4157 0.0913
C68_9 C 0.5098(2) 0.4880(2) 0.0398(2)
N50_9 N 0.52514(19) 0.46822(18) 0.07649(18)
N51_9 N 0.53240(19) 0.52414(19) 0.02916(18)
H54_9 H 0.5843 0.5913 0.0179
C61_9 C 0.4008(3) 0.4362(3) 0.9813(2)
C62_9 C 0.3654(2) 0.4646(2) 0.9209(2)
H47_9 H 0.3457 0.4685 0.8979
C63_9 C 0.4010(2) 0.4924(2) 0.9309(2)
H48_9 H 0.4087 0.5179 0.9157
C64_9 C 0.4602(2) 0.4902(2) 0.9880(2)
N47_9 N 0.42351(18) 0.47486(19) 0.96822(18)
C69_9 C 0.5187(2) 0.5992(3) 0.9362(3)
H52_9 H 0.4951 0.5919 0.9181
C70_9 C 0.5791(2) 0.6346(2) 0.9646(2)
H53_9 H 0.6021 0.6543 0.9685
C71_9 C 0.5691(2) 0.5990(2) 0.9924(2)
C72_9 C 0.5120(2) 0.5398(2) 0.9902(2)
N53_9 N 0.53178(18) 0.57649(18) 0.97486(19)
N54_9 N 0.47586(19) 0.52916(18) 0.96760(19)
C61_10 C 0.0992(3) 0.5638(3) 0.4813(2)
H46_10 H 0.0919 0.5819 0.5049
C62_10 C 0.1346(2) 0.5354(2) 0.4209(2)
H47_10 H 0.1543 0.5315 0.3979
C63_10 C 0.0990(2) 0.5076(2) 0.4309(2)
H48_10 H 0.0913 0.4821 0.4157
C64_10 C 0.0398(2) 0.5098(2) 0.4880(2)
N47_10 N 0.07649(18) 0.52514(19) 0.46822(18)
N48_10 N 0.02916(18) 0.53240(19) 0.52414(19)
H51_10 H 0.0179 0.5843 0.5913
H52_10 H 0.0049 0.4081 0.4181
N54_10 N 0.02414(19) 0.47084(18) 0.46760(19)
C65_10 C 0.9362(3) 0.5187(2) 0.5992(3)
H49_10 H 0.9181 0.4951 0.5919
C66_10 C 0.9646(2) 0.5791(2) 0.6346(2)
H50_10 H 0.9685 0.6021 0.6543
C67_10 C 0.9924(2) 0.5691(2) 0.5990(2)
C68_10 C 0.9902(2) 0.5120(2) 0.5398(2)
N50_10 N 0.97486(19) 0.53178(18) 0.57649(18)
N51_10 N 0.96760(19) 0.47586(19) 0.52916(18)
C69_10 C 0.9813(2) 0.4008(3) 0.4362(3)
C70_10 C 0.9209(2) 0.3654(2) 0.4646(2)
H53_10 H 0.8979 0.3457 0.4685
C71_10 C 0.9309(2) 0.4010(2) 0.4924(2)
H54_10 H 0.9157 0.4087 0.5179
C72_10 C 0.9880(2) 0.4602(2) 0.4902(2)
N53_10 N 0.96822(18) 0.42351(18) 0.47486(19)
H48_11 H 0.5913 0.0179 0.5843
H49_11 H 0.4181 0.0049 0.4081
N51_11 N 0.46760(19) 0.02414(19) 0.47084(18)
C69_11 C 0.4813(2) 0.0992(3) 0.5638(3)
H52_11 H 0.5049 0.0919 0.5819
C70_11 C 0.4209(2) 0.1346(2) 0.5354(2)
H53_11 H 0.3979 0.1543 0.5315
C71_11 C 0.4309(2) 0.0990(2) 0.5076(2)
H54_11 H 0.4157 0.0913 0.4821
C72_11 C 0.4880(2) 0.0398(2) 0.5098(2)
N53_11 N 0.46822(18) 0.07649(18) 0.52514(19)
N54_11 N 0.52414(19) 0.02916(18) 0.53240(19)
C61_11 C 0.5992(3) 0.9362(3) 0.5187(2)
H46_11 H 0.5919 0.9181 0.4951
C62_11 C 0.6346(2) 0.9646(2) 0.5791(2)
H47_11 H 0.6543 0.9685 0.6021
C63_11 C 0.5990(2) 0.9924(2) 0.5691(2)
C64_11 C 0.5398(2) 0.9902(2) 0.5120(2)
N47_11 N 0.57649(18) 0.97486(19) 0.53178(18)
N48_11 N 0.52916(18) 0.96760(19) 0.47586(19)
C65_11 C 0.4362(3) 0.9813(2) 0.4008(3)
C66_11 C 0.4646(2) 0.9209(2) 0.3654(2)
H50_11 H 0.4685 0.8979 0.3457
C67_11 C 0.4924(2) 0.9309(2) 0.4010(2)
H51_11 H 0.5179 0.9157 0.4087
C68_11 C 0.4902(2) 0.9880(2) 0.4602(2)
N50_11 N 0.47486(19) 0.96822(18) 0.42351(18)
C65_12 C 0.0638(3) 0.0187(2) 0.9008(3)
C66_12 C 0.0354(2) 0.0791(2) 0.8654(2)
H50_12 H 0.0315 0.1021 0.8457
C67_12 C 0.0076(2) 0.0691(2) 0.9010(2)
C68_12 C 0.0098(2) 0.0120(2) 0.9602(2)
N50_12 N 0.02514(19) 0.03178(18) 0.92351(18)
C69_12 C 0.0187(2) 0.9008(3) 0.0638(3)
C70_12 C 0.0791(2) 0.8654(2) 0.0354(2)
H53_12 H 0.1021 0.8457 0.0315
C71_12 C 0.0691(2) 0.9010(2) 0.0076(2)
C72_12 C 0.0120(2) 0.9602(2) 0.0098(2)
N53_12 N 0.03178(18) 0.92351(18) 0.02514(19)
H49_12 H 0.0819 0.9951 0.9081
N51_12 N 0.03240(19) 0.97586(19) 0.97084(18)
H54_12 H 0.0843 0.9087 0.9821
C61_12 C 0.9008(3) 0.0638(3) 0.0187(2)
C62_12 C 0.8654(2) 0.0354(2) 0.0791(2)
H47_12 H 0.8457 0.0315 0.1021
C63_12 C 0.9010(2) 0.0076(2) 0.0691(2)
C64_12 C 0.9602(2) 0.0098(2) 0.0120(2)
N47_12 N 0.92351(18) 0.02514(19) 0.03178(18)
H46_12 H 0.9081 0.0819 0.9951
N48_12 N 0.97084(18) 0.03240(19) 0.97586(19)
H51_12 H 0.9821 0.0843 0.9087
H48_12 H 0.9087 0.9821 0.0843
H52_12 H 0.9951 0.9081 0.0819
N54_12 N 0.97586(19) 0.97084(18) 0.03240(19)
loop_
_geom_bond_atom_site_label_1
_geom_bond_atom_site_label_2
_geom_bond_site_symmetry_1
_geom_bond_site_symmetry_2
C22 H17 1_555 1_555
C23 C22 1_555 1_555
H18 C23 1_555 1_555
C49 H37 1_555 1_555
C50 H38 1_555 1_555
C51 C50 1_555 1_555
H39 C51 1_555 1_555
C52 N38 1_555 1_555
Cu7 I4 1_555 1_555
N37 C49 1_555 1_555
N38 C49 1_555 1_555
N39 C52 1_555 1_555
S4 Cu7 1_555 1_555
C53 H40 1_555 1_555
C54 H41 1_555 1_555
C55 C54 1_555 1_555
H42 C55 1_555 1_555
C56 N39 1_555 1_555
N40 C53 1_555 1_555
N41 C53 1_555 1_555
N42 C56 1_555 1_555
C57 H43 1_555 1_555
C58 H44 1_555 1_555
C59 C58 1_555 1_555
H45 C59 1_555 1_555
C60 N42 1_555 1_555
N43 C57 1_555 1_555
N44 C57 1_555 1_555
N45 C52 1_555 1_555
C70 H53 1_555 1_555
C71 C70 1_555 1_555
H54 C71 1_555 1_555
C72 N51 1_555 1_555
N52 C69 1_555 1_555
N53 C69 1_555 1_555
Cu12 S7 1_555 1_555
S7 W1 1_555 1_555
Cu14 I9 1_555 1_555
Cu15 S7 1_555 1_555
I10 Cu15 1_555 1_555
S10 Cu2 1_555 1_555
Cu19 N40 1_555 1_555
Cu21 N43 1_555 1_555
Cu24 S4 1_555 1_555
N74 Cu15 1_555 1_555
N77 Cu14 1_555 1_555
N78 Cu12 1_555 1_555
N81 Cu8 1_555 1_555
S20 Cu7 1_555 1_555
W4 S4 1_555 1_555
W1 S10 1_555 1_555
C50 N37 1_555 1_555
C51 N38 1_555 1_555
Cu7 N37 1_555 1_555
Cu8 S4 1_555 1_555
C54 N40 1_555 1_555
C55 N41 1_555 1_555
C56 N41 1_555 1_555
C58 N43 1_555 1_555
C59 N44 1_555 1_555
C60 N44 1_555 1_555
C60 N45 1_555 1_555
C70 N52 1_555 1_555
C71 N53 1_555 1_555
C72 N53 1_555 1_555
N52 Cu24 1_555 1_555
Cu14 S10 1_555 1_555
Cu15 S10 1_555 1_555
S20 W4 1_555 1_555
C1 H1 1_555 1_555
C2 H2 1_555 1_555
C3 C2 1_555 1_555
H3 C3 1_555 1_555
C4 N2 1_555 1_555
Cu1 I1 1_555 1_555
N1 C1 1_555 1_555
N2 C1 1_555 1_555
N3 C4 1_555 1_555
S1 Cu1 1_555 1_555
W1_2 S1 1_555 1_555
C9 H7 1_555 1_555
C10 H8 1_555 1_555
C11 C10 1_555 1_555
H9 C11 1_555 1_555
C12 N3 1_555 1_555
N7 C9 1_555 1_555
N8 C9 1_555 1_555
N9 C12 1_555 1_555
C13 H10 1_555 1_555
C14 H11 1_555 1_555
C15 C14 1_555 1_555
H12 C15 1_555 1_555
C16 N9 1_555 1_555
N10 C13 1_555 1_555
N11 C13 1_555 1_555
N12 C4 1_555 1_555
C37 H28 1_555 1_555
C38 H29 1_555 1_555
C39 C38 1_555 1_555
H30 C39 1_555 1_555
C40 N29 1_555 1_555
Cu5 N7 1_555 1_555
Cu6 N28 1_555 1_555
I3 Cu5 1_555 1_555
N28 C37 1_555 1_555
N29 C37 1_555 1_555
N30 C40 1_555 1_555
S3 Cu5 1_555 1_555
W3 S3 1_555 1_555
C41 H31 1_555 1_555
C42 H32 1_555 1_555
C43 C42 1_555 1_555
H33 C43 1_555 1_555
C44 N32 1_555 1_555
N31 C41 1_555 1_555
N32 C41 1_555 1_555
N33 C40 1_555 1_555
C45 H34 1_555 1_555
C46 H35 1_555 1_555
C47 C46 1_555 1_555
H36 C47 1_555 1_555
C48 N30 1_555 1_555
N34 C45 1_555 1_555
N35 C45 1_555 1_555
N36 C44 1_555 1_555
Cu9 N10 1_555 1_555
I5 Cu9 1_555 1_555
S5 Cu9 1_555 1_555
C66 H50 1_555 1_555
C67 C66 1_555 1_555
N49 C65 1_555 1_555
N50 C65 1_555 1_555
Cu11 S1 1_555 1_555
I7 Cu11 1_555 1_555
Cu13 S5 1_555 1_555
I8 Cu13 1_555 1_555
S8 Cu13 1_555 1_555
C82 H62 1_555 1_555
C83 C82 1_555 1_555
H63 C83 1_555 1_555
S9 Cu1 1_555 1_555
Cu18 N31 1_555 1_555
Cu23 S3 1_555 1_555
Cu25 S8 1_555 1_555
Cu27 N34 1_555 1_555
Cu30 S5 1_555 1_555
Cu33 S8 1_555 1_555
N73 Cu13 1_555 1_555
N79 Cu6 1_555 1_555
N80 Cu18 1_555 1_555
N82 Cu12_2 1_555 1_555
S13 Cu18 1_555 1_555
S14 W3 1_555 1_555
S15 Cu6 1_555 1_555
S16 Cu18 1_555 1_555
S18 Cu5 1_555 1_555
S19 Cu9 1_555 1_555
W5 S5 1_555 1_555
C2 N1 1_555 1_555
C3 N2 1_555 1_555
Cu1 N1 1_555 1_555
Cu2_2 S1 1_555 1_555
W1_2 S9 1_555 1_555
C10 N7 1_555 1_555
C11 N8 1_555 1_555
C12 N8 1_555 1_555
C14 N10 1_555 1_555
C15 N11 1_555 1_555
C16 N11 1_555 1_555
C16 N12 1_555 1_555
C38 N28 1_555 1_555
C39 N29 1_555 1_555
Cu6 S3 1_555 1_555
W3 S15 1_555 1_555
W3 S18 1_555 1_555
C42 N31 1_555 1_555
C43 N32 1_555 1_555
C44 N33 1_555 1_555
C46 N34 1_555 1_555
C47 N35 1_555 1_555
C48 N35 1_555 1_555
C48 N36 1_555 1_555
C66 N49 1_555 1_555
C67 N50 1_555 1_555
C68 N50 1_555 1_555
N49 Cu11 1_555 1_555
Cu12_2 S9 1_555 1_555
S8 W5 1_555 1_555
Cu23 S14 1_555 1_555
Cu33 S19 1_555 1_555
S19 W5 1_555 1_555
C8 N5 1_555 1_555
N4 C5 1_555 1_555
N5 C5 1_555 1_555
N6 C8 1_555 1_555
C18 H14 1_555 1_555
C19 C18 1_555 1_555
H15 C19 1_555 1_555
C20 N14 1_555 1_555
N13 C17 1_555 1_555
N14 C17 1_555 1_555
N15 C8 1_555 1_555
C21 H16 1_555 1_555
C24 N6 1_555 1_555
N16 C21 1_555 1_555
N17 C21 1_555 1_555
N18 C20 1_555 1_555
Cu8_2 N16 1_555 1_555
C74 H56 1_555 1_555
C75 C74 1_555 1_555
H57 C75 1_555 1_555
C86 H65 1_555 1_555
C87 C86 1_555 1_555
H66 C87 1_555 1_555
C88 N65 1_555 1_555
N65 C85 1_555 1_555
N66 C88 1_555 1_555
C89 H67 1_555 1_555
C90 H68 1_555 1_555
C91 C90 1_555 1_555
H69 C91 1_555 1_555
C92 N68 1_555 1_555
N80 C89 1_555 1_555
N68 C89 1_555 1_555
N69 C88 1_555 1_555
C93 H70 1_555 1_555
C96 N66 1_555 1_555
N70 C93 1_555 1_555
N71 C93 1_555 1_555
N72 C92 1_555 1_555
Cu26 N70 1_555 1_555
S17 Cu8_2 1_555 1_555
C18 N13 1_555 1_555
C19 N14 1_555 1_555
C20 N15 1_555 1_555
C24 N17 1_555 1_555
C24 N18 1_555 1_555
C85 N64 1_555 1_555
C86 N64 1_555 1_555
C87 N65 1_555 1_555
C90 N80 1_555 1_555
C91 N68 1_555 1_555
C92 N69 1_555 1_555
C96 N71 1_555 1_555
C96 N72 1_555 1_555
S17 W4_2 1_555 1_555
C78 H59 1_555 1_555
C79 C78 1_555 1_555
H60 C79 1_555 1_555
C6 H5 1_555 1_555
C7 C6 1_555 1_555
H6 C7 1_555 1_555
C25 H19 1_555 1_555
C26 H20 1_555 1_555
C27 C26 1_555 1_555
H21 C27 1_555 1_555
C28 N20 1_555 1_555
Cu3 I2 1_555 1_555
N19 C25 1_555 1_555
N20 C25 1_555 1_555
N21 C28 1_555 1_555
S2 Cu3 1_555 1_555
W2 S2 1_555 1_555
C29 H22 1_555 1_555
C30 H23 1_555 1_555
C31 C30 1_555 1_555
H24 C31 1_555 1_555
C32 N21 1_555 1_555
N22 C29 1_555 1_555
N23 C29 1_555 1_555
N24 C32 1_555 1_555
C33 H25 1_555 1_555
C34 H26 1_555 1_555
C35 C34 1_555 1_555
H27 C35 1_555 1_555
C36 N24 1_555 1_555
N25 C33 1_555 1_555
N26 C33 1_555 1_555
N27 C28 1_555 1_555
C61 H46 1_555 1_555
C62 H47 1_555 1_555
C63 C62 1_555 1_555
C64 N47 1_555 1_555
Cu10 S2 1_555 1_555
I6 Cu10 1_555 1_555
N46 C61 1_555 1_555
N47 C61 1_555 1_555
N48 C64 1_555 1_555
S6 W2 1_555 1_555
C76 N56 1_555 1_555
N56 C73 1_555 1_555
N57 C76 1_555 1_555
C80 N59 1_555 1_555
N58 C77 1_555 1_555
N59 C77 1_555 1_555
N60 C76 1_555 1_555
C84 N57 1_555 1_555
N61 C81 1_555 1_555
N62 C81 1_555 1_555
N63 C80 1_555 1_555
C94 H71 1_555 1_555
C95 C94 1_555 1_555
H72 C95 1_555 1_555
Cu16 I11 1_555 1_555
S11 Cu3 1_555 1_555
Cu17 S6 1_555 1_555
I12 Cu17 1_555 1_555
S12 Cu4 1_555 1_555
Cu20 N25 1_555 1_555
Cu22 N22 1_555 1_555
Cu32 S6 1_555 1_555
N75 Cu17 1_555 1_555
N76 Cu16 1_555 1_555
C26 N19 1_555 1_555
C27 N20 1_555 1_555
Cu3 N19 1_555 1_555
Cu4 S2 1_555 1_555
W2 S11 1_555 1_555
W2 S12 1_555 1_555
C30 N22 1_555 1_555
C31 N23 1_555 1_555
C32 N23 1_555 1_555
C34 N25 1_555 1_555
C35 N26 1_555 1_555
C36 N26 1_555 1_555
C36 N27 1_555 1_555
C62 N46 1_555 1_555
C63 N47 1_555 1_555
Cu10 N46 1_555 1_555
Cu10 S6 1_555 1_555
C73 N55 1_555 1_555
C80 N60 1_555 1_555
C84 N62 1_555 1_555
C84 N63 1_555 1_555
Cu16 S11 1_555 1_555
Cu16 S12 1_555 1_555
S11 Cu32 1_555 1_555
Cu17 S12 1_555 1_555
C6_2 H5_2 1_555 1_555
C7_2 C6_2 1_555 1_555
H6_2 C7_2 1_555 1_555
Cu19 I1_2 1_555 1_555
S1_2 Cu19 1_555 1_555
W1_3 S1_2 1_555 1_555
C38_2 H29_2 1_555 1_555
C39_2 C38_2 1_555 1_555
H30_2 C39_2 1_555 1_555
I3_2 Cu21 1_555 1_555
S3_2 Cu21 1_555 1_555
W3_2 S3_2 1_555 1_555
S6_2 W2_2 1_555 1_555
C66_2 H50_2 1_555 1_555
C67_2 C66_2 1_555 1_555
H51_2 C67_2 1_555 1_555
C68_2 N48_2 1_555 1_555
N49_2 C65_2 1_555 1_555
N50_2 C65_2 1_555 1_555
Cu11_2 S1_2 1_555 1_555
I7_2 Cu11_2 1_555 1_555
I8_2 Cu24 1_555 1_555
S9_2 Cu19 1_555 1_555
Cu16_2 I11_2 1_555 1_555
Cu17_2 S6_2 1_555 1_555
I12_2 Cu17_2 1_555 1_555
S12_2 Cu28 1_555 1_555
Cu23_2 S3_2 1_555 1_555
Cu32_2 S6_2 1_555 1_555
N75_2 Cu17_2 1_555 1_555
N76_2 Cu16_2 1_555 1_555
N79_2 Cu6_2 1_555 1_555
N82_2 Cu12_3 1_555 1_555
S16_2 Cu29 1_555 1_555
S18_2 Cu21 1_555 1_555
Cu26 S1_2 1_555 1_555
W1_3 S9_2 1_555 1_555
W2_2 S12_2 1_555 1_555
Cu6_2 S3_2 1_555 1_555
W3_2 S18_2 1_555 1_555
C66_2 N49_2 1_555 1_555
C67_2 N50_2 1_555 1_555
C68_2 N50_2 1_555 1_555
N49_2 Cu11_2 1_555 1_555
Cu12_3 S9_2 1_555 1_555
Cu16_2 S12_2 1_555 1_555
Cu17_2 S12_2 1_555 1_555
Cu33_2 S20 1_555 1_555
C25_2 H19_2 1_555 1_555
C26_2 H20_2 1_555 1_555
C27_2 C26_2 1_555 1_555
H21_2 C27_2 1_555 1_555
C28_2 N20_2 1_555 1_555
Cu3_2 I2_2 1_555 1_555
N19_2 C25_2 1_555 1_555
N20_2 C25_2 1_555 1_555
N21_2 C28_2 1_555 1_555
S2_2 Cu3_2 1_555 1_555
W2_3 S2_2 1_555 1_555
C29_2 H22_2 1_555 1_555
C30_2 H23_2 1_555 1_555
C31_2 C30_2 1_555 1_555
H24_2 C31_2 1_555 1_555
C32_2 N21_2 1_555 1_555
N22_2 C29_2 1_555 1_555
N23_2 C29_2 1_555 1_555
N24_2 C32_2 1_555 1_555
C33_2 H25_2 1_555 1_555
C34_2 H26_2 1_555 1_555
C35_2 C34_2 1_555 1_555
H27_2 C35_2 1_555 1_555
C36_2 N24_2 1_555 1_555
N25_2 C33_2 1_555 1_555
N26_2 C33_2 1_555 1_555
N27_2 C28_2 1_555 1_555
C37_2 H28_2 1_555 1_555
C40_2 N29_2 1_555 1_555
Cu6_3 N28_2 1_555 1_555
N28_2 C37_2 1_555 1_555
N29_2 C37_2 1_555 1_555
N30_2 C40_2 1_555 1_555
C44_2 N32_2 1_555 1_555
N31_2 C41_2 1_555 1_555
N32_2 C41_2 1_555 1_555
N33_2 C40_2 1_555 1_555
C46_2 H35_2 1_555 1_555
C47_2 C46_2 1_555 1_555
H36_2 C47_2 1_555 1_555
C48_2 N30_2 1_555 1_555
N34_2 C45_2 1_555 1_555
N35_2 C45_2 1_555 1_555
N36_2 C44_2 1_555 1_555
C62_2 H47_2 1_555 1_555
C63_2 C62_2 1_555 1_555
C64_2 N47_2 1_555 1_555
Cu10_2 S2_2 1_555 1_555
I6_2 Cu10_2 1_555 1_555
N46_2 C61_2 1_555 1_555
N47_2 C61_2 1_555 1_555
S11_2 Cu3_2 1_555 1_555
Cu20_2 N25_2 1_555 1_555
Cu22_2 N22_2 1_555 1_555
S14_2 W3_3 1_555 1_555
S15_2 Cu6_3 1_555 1_555
C26_2 N19_2 1_555 1_555
C27_2 N20_2 1_555 1_555
Cu3_2 N19_2 1_555 1_555
Cu28_2 S2_2 1_555 1_555
W2_3 S11_2 1_555 1_555
C30_2 N22_2 1_555 1_555
C31_2 N23_2 1_555 1_555
C32_2 N23_2 1_555 1_555
C34_2 N25_2 1_555 1_555
C35_2 N26_2 1_555 1_555
C36_2 N26_2 1_555 1_555
C36_2 N27_2 1_555 1_555
W3_3 S15_2 1_555 1_555
C44_2 N33_2 1_555 1_555
C46_2 N34_2 1_555 1_555
C47_2 N35_2 1_555 1_555
C48_2 N35_2 1_555 1_555
C48_2 N36_2 1_555 1_555
C62_2 N46_2 1_555 1_555
C63_2 N47_2 1_555 1_555
Cu10_2 N46_2 1_555 1_555
S11_2 Cu32_3 1_555 1_555
C5_2 H4_2 1_555 1_555
C8_2 N5_2 1_555 1_555
Cu26_2 N4_2 1_555 1_555
N4_2 C5_2 1_555 1_555
N5_2 C5_2 1_555 1_555
N6_2 C8_2 1_555 1_555
C20_2 N14_2 1_555 1_555
N13_2 C17_2 1_555 1_555
N14_2 C17_2 1_555 1_555
N15_2 C8_2 1_555 1_555
C22_2 H17_2 1_555 1_555
C23_2 C22_2 1_555 1_555
H18_2 C23_2 1_555 1_555
C24_2 N6_2 1_555 1_555
N16_2 C21_2 1_555 1_555
N17_2 C21_2 1_555 1_555
N18_2 C20_2 1_555 1_555
Cu12_4 S7_2 1_555 1_555
S7_2 W1_4 1_555 1_555
Cu14_2 I9_2 1_555 1_555
Cu15_2 S7_2 1_555 1_555
I10_2 Cu15_2 1_555 1_555
S10_2 Cu26_2 1_555 1_555
N74_2 Cu15_2 1_555 1_555
N77_2 Cu14_2 1_555 1_555
N78_2 Cu12_4 1_555 1_555
W1_4 S10_2 1_555 1_555
C20_2 N15_2 1_555 1_555
C22_2 N16_2 1_555 1_555
C23_2 N17_2 1_555 1_555
C24_2 N17_2 1_555 1_555
C24_2 N18_2 1_555 1_555
Cu14_2 S10_2 1_555 1_555
Cu15_2 S10_2 1_555 1_555
C18_2 H14_2 1_555 1_555
C19_2 C18_2 1_555 1_555
H15_2 C19_2 1_555 1_555
C69_2 H52_2 1_555 1_555
C70_2 H53_2 1_555 1_555
C71_2 C70_2 1_555 1_555
N73 C69_2 1_555 1_555
N53_2 C69_2 1_555 1_555
S17_2 Cu30 1_555 1_555
C70_2 N73 1_555 1_555
C71_2 N53_2 1_555 1_555
C72_2 N53_2 1_555 1_555
C72_2 N54_2 1_555 1_555
S17_2 W5 1_555 1_555
Cu25_2 S8_2 1_555 1_555
Cu33_3 S8_2 1_555 1_555
S13_2 Cu29_2 1_555 1_555
S8_2 W4_2 1_555 1_555
C42_2 H32_2 1_555 1_555
C43_2 C42_2 1_555 1_555
H33_2 C43_2 1_555 1_555
C62_3 H47_3 1_555 1_555
C63_3 C62_3 1_555 1_555
H48_3 C63_3 1_555 1_555
C64_3 N47_3 1_555 1_555
I6_3 Cu23_2 1_555 1_555
N46_3 C61_3 1_555 1_555
N47_3 C61_3 1_555 1_555
N54_3 C64_3 1_555 1_555
C85_2 H64_2 1_555 1_555
C88_2 N65_2 1_555 1_555
N65_2 C85_2 1_555 1_555
N66_2 C88_2 1_555 1_555
C90_2 H68_2 1_555 1_555
C91_2 C90_2 1_555 1_555
H69_2 C91_2 1_555 1_555
C92_2 N68_2 1_555 1_555
N81_2 C89_2 1_555 1_555
N68_2 C89_2 1_555 1_555
N69_2 C88_2 1_555 1_555
C93_2 H70_2 1_555 1_555
C94_2 H71_2 1_555 1_555
C95_2 C94_2 1_555 1_555
H72_2 C95_2 1_555 1_555
C96_2 N66_2 1_555 1_555
N70_2 C93_2 1_555 1_555
N71_2 C93_2 1_555 1_555
N72_2 C92_2 1_555 1_555
Cu27 N70_2 1_555 1_555
C62_3 N46_3 1_555 1_555
C63_3 N47_3 1_555 1_555
Cu23_2 N46_3 1_555 1_555
C85_2 N79_2 1_555 1_555
C90_2 N81_2 1_555 1_555
C91_2 N68_2 1_555 1_555
C92_2 N69_2 1_555 1_555
C94_2 N70_2 1_555 1_555
C95_2 N71_2 1_555 1_555
C96_2 N71_2 1_555 1_555
C96_2 N72_2 1_555 1_555
S18_2 Cu32_4 1_555 1_555
S16_2 W4_3 1_555 1_555
C74_2 H56_2 1_555 1_555
C75_2 C74_2 1_555 1_555
H57_2 C75_2 1_555 1_555
C76_2 N56_2 1_555 1_555
N56_2 C73_2 1_555 1_555
N57_2 C76_2 1_555 1_555
C77_2 H58_2 1_555 1_555
C78_2 H59_2 1_555 1_555
C79_2 C78_2 1_555 1_555
H60_2 C79_2 1_555 1_555
C80_2 N59_2 1_555 1_555
N79 C77_2 1_555 1_555
N59_2 C77_2 1_555 1_555
N60_2 C76_2 1_555 1_555
C81_2 H61_2 1_555 1_555
C84_2 N57_2 1_555 1_555
N81 C81_2 1_555 1_555
N62_2 C81_2 1_555 1_555
N63_2 C80_2 1_555 1_555
C86_2 H65_2 1_555 1_555
C87_2 C86_2 1_555 1_555
H66_2 C87_2 1_555 1_555
Cu16_3 I11_3 1_555 1_555
Cu17_3 S14_2 1_555 1_555
I12_3 Cu17_3 1_555 1_555
Cu32_5 S14_2 1_555 1_555
N75_3 Cu17_3 1_555 1_555
N76_3 Cu16_3 1_555 1_555
C73_2 N55_2 1_555 1_555
C74_2 N55_2 1_555 1_555
C75_2 N56_2 1_555 1_555
C78_2 N79 1_555 1_555
C79_2 N59_2 1_555 1_555
C80_2 N60_2 1_555 1_555
C84_2 N62_2 1_555 1_555
C84_2 N63_2 1_555 1_555
Cu16_3 S15_2 1_555 1_555
Cu17_3 S15_2 1_555 1_555
Cu22 I4_2 1_555 1_555
S13_2 Cu22 1_555 1_555
C70_3 H53_3 1_555 1_555
C71_3 C70_3 1_555 1_555
N52_2 C69_3 1_555 1_555
N53_3 C69_3 1_555 1_555
Cu24_2 S13_2 1_555 1_555
S20_2 Cu22 1_555 1_555
W4_4 S13_2 1_555 1_555
C70_3 N52_2 1_555 1_555
C71_3 N53_3 1_555 1_555
C72_3 N53_3 1_555 1_555
N52_2 Cu24_2 1_555 1_555
S20_2 W4_4 1_555 1_555
Cu20_2 I1_3 1_555 1_555
S1_3 Cu20_2 1_555 1_555
W1_5 S1_3 1_555 1_555
I5_2 Cu22_2 1_555 1_555
S13 Cu22_2 1_555 1_555
C65_3 H49_3 1_555 1_555
C66_3 H50_3 1_555 1_555
C67_3 C66_3 1_555 1_555
N49_3 C65_3 1_555 1_555
N50_3 C65_3 1_555 1_555
N51_3 C68_3 1_555 1_555
Cu11_3 S1_3 1_555 1_555
Cu12_5 S7_3 1_555 1_555
I7_3 Cu11_3 1_555 1_555
S7_3 W1_5 1_555 1_555
Cu13_2 S13 1_555 1_555
I8_3 Cu13_2 1_555 1_555
S8_3 Cu13_2 1_555 1_555
C82_2 H62_2 1_555 1_555
C83_2 C82_2 1_555 1_555
H63_2 C83_2 1_555 1_555
Cu14_3 I9_3 1_555 1_555
S9_3 Cu20_2 1_555 1_555
Cu15_3 S7_3 1_555 1_555
I10_3 Cu15_3 1_555 1_555
S10_3 Cu27_2 1_555 1_555
Cu25_3 S8_3 1_555 1_555
Cu33_4 S8_3 1_555 1_555
N73_2 Cu13_2 1_555 1_555
N74_3 Cu15_3 1_555 1_555
N77_3 Cu14_3 1_555 1_555
N78_3 Cu12_5 1_555 1_555
N82_3 Cu12_5 1_555 1_555
S19_2 Cu22_2 1_555 1_555
W5_2 S13 1_555 1_555
Cu27_2 S1_3 1_555 1_555
W1_5 S9_3 1_555 1_555
W1_5 S10_3 1_555 1_555
C66_3 N49_3 1_555 1_555
C67_3 N50_3 1_555 1_555
C68_3 N50_3 1_555 1_555
N49_3 Cu11_3 1_555 1_555
Cu11_3 S7_3 1_555 1_555
Cu12_5 S9_3 1_555 1_555
S8_3 W5_2 1_555 1_555
Cu14_3 S9_3 1_555 1_555
Cu14_3 S10_3 1_555 1_555
Cu15_3 S10_3 1_555 1_555
Cu33_4 S19_2 1_555 1_555
S19_2 W5_2 1_555 1_555
Cu25_4 S8_4 1_555 1_555
Cu33_5 S8_4 1_555 1_555
S8_4 W4_3 1_555 1_555
Cu20 I1_4 1_555 1_555
S1_4 Cu20 1_555 1_555
W1_6 S1_4 1_555 1_555
C61_4 H46_4 1_555 1_555
C62_4 H47_4 1_555 1_555
C63_4 C62_4 1_555 1_555
H48_4 C63_4 1_555 1_555
C64_4 N47_4 1_555 1_555
I6_4 Cu23 1_555 1_555
N46_4 C61_4 1_555 1_555
N47_4 C61_4 1_555 1_555
N48_4 C64_4 1_555 1_555
C65_4 H49_4 1_555 1_555
C66_4 H50_4 1_555 1_555
C67_4 C66_4 1_555 1_555
H51_4 C67_4 1_555 1_555
C68_4 N48_4 1_555 1_555
N49_4 C65_4 1_555 1_555
N50_4 C65_4 1_555 1_555
N51_4 C68_4 1_555 1_555
C69_4 H52_4 1_555 1_555
C70_4 H53_4 1_555 1_555
C71_4 C70_4 1_555 1_555
H54_4 C71_4 1_555 1_555
C72_4 N51_4 1_555 1_555
N73_2 C69_4 1_555 1_555
N53_4 C69_4 1_555 1_555
N54_4 C64_4 1_555 1_555
Cu11_4 S1_4 1_555 1_555
Cu12_6 S7_4 1_555 1_555
I7_4 Cu11_4 1_555 1_555
S7_4 W1_6 1_555 1_555
I8_4 Cu24_2 1_555 1_555
Cu14_4 I9_4 1_555 1_555
S9_4 Cu20 1_555 1_555
Cu15_4 S7_4 1_555 1_555
I10_4 Cu15_4 1_555 1_555
S10_4 Cu27 1_555 1_555
Cu16_4 I11_4 1_555 1_555
Cu17_4 S14 1_555 1_555
I12_4 Cu17_4 1_555 1_555
Cu32_6 S14 1_555 1_555
N74_4 Cu15_4 1_555 1_555
N75_4 Cu17_4 1_555 1_555
N76_4 Cu16_4 1_555 1_555
N77_4 Cu14_4 1_555 1_555
N78_4 Cu12_6 1_555 1_555
N82_4 Cu12_6 1_555 1_555
Cu27 S1_4 1_555 1_555
W1_6 S9_4 1_555 1_555
W1_6 S10_4 1_555 1_555
C62_4 N46_4 1_555 1_555
C63_4 N47_4 1_555 1_555
Cu23 N46_4 1_555 1_555
C66_4 N49_4 1_555 1_555
C67_4 N50_4 1_555 1_555
C68_4 N50_4 1_555 1_555
N49_4 Cu11_4 1_555 1_555
C70_4 N73_2 1_555 1_555
C71_4 N53_4 1_555 1_555
C72_4 N53_4 1_555 1_555
C72_4 N54_4 1_555 1_555
Cu11_4 S7_4 1_555 1_555
Cu12_6 S9_4 1_555 1_555
Cu14_4 S9_4 1_555 1_555
Cu14_4 S10_4 1_555 1_555
Cu15_4 S10_4 1_555 1_555
Cu16_4 S18 1_555 1_555
Cu16_4 S15 1_555 1_555
S18 Cu32_6 1_555 1_555
Cu17_4 S15 1_555 1_555
Cu33_6 S20_2 1_555 1_555
S16 W5_2 1_555 1_555
N78_5 Cu32_2 1_555 1_555
N82_5 Cu32_3 1_555 1_555
Cu16_5 I11_5 1_555 1_555
I12_5 Cu25 1_555 1_555
N75_5 Cu25 1_555 1_555
N76_5 Cu16_5 1_555 1_555
Cu16_5 S19 1_555 1_555
Cu16_5 S17_2 1_555 1_555
Cu25 S17_2 1_555 1_555
Cu16_6 I11_6 1_555 1_555
I12_6 Cu25_4 1_555 1_555
N75_6 Cu25_4 1_555 1_555
N76_6 Cu16_6 1_555 1_555
N82_6 Cu32_4 1_555 1_555
Cu16_6 S16_2 1_555 1_555
Cu25_4 S16_2 1_555 1_555
N78_6 Cu32_5 1_555 1_555
Cu16_7 I11_7 1_555 1_555
I12_7 Cu25_2 1_555 1_555
N75_7 Cu25_2 1_555 1_555
N76_7 Cu16_7 1_555 1_555
Cu16_7 S17 1_555 1_555
Cu25_2 S17 1_555 1_555
N78_7 Cu32 1_555 1_555
N82_7 Cu32 1_555 1_555
Cu16_8 I11_8 1_555 1_555
I12_8 Cu25_3 1_555 1_555
N75_8 Cu25_3 1_555 1_555
N76_8 Cu16_8 1_555 1_555
N78_8 Cu32_6 1_555 1_555
N82_8 Cu32_6 1_555 1_555
Cu16_8 S19_2 1_555 1_555
Cu16_8 S16 1_555 1_555
Cu25_3 S16 1_555 1_555
N78_9 Cu33_5 1_555 1_555
N82_9 Cu33_6 1_555 1_555
N82_10 Cu33_2 1_555 1_555
N78_10 Cu33_3 1_555 1_555
N78_11 Cu33 1_555 1_555
N82_11 Cu33 1_555 1_555
N78_12 Cu33_4 1_555 1_555
N82_12 Cu33_4 1_555 1_555
C73_3 H55_3 1_555 1_555
C74_3 H56_3 1_555 1_555
C75_3 C74_3 1_555 1_555
H57_3 C75_3 1_555 1_555
C76_3 N56_3 1_555 1_555
N56_3 C73_3 1_555 1_555
N57_3 C76_3 1_555 1_555
C77_3 H58_3 1_555 1_555
C78_3 H59_3 1_555 1_555
C79_3 C78_3 1_555 1_555
H60_3 C79_3 1_555 1_555
C80_3 N59_3 1_555 1_555
N82_2 C77_3 1_555 1_555
N59_3 C77_3 1_555 1_555
N60_3 C76_3 1_555 1_555
C81_3 H61_3 1_555 1_555
C82_3 H62_3 1_555 1_555
C83_3 C82_3 1_555 1_555
H63_3 C83_3 1_555 1_555
C84_3 N57_3 1_555 1_555
N82_10 C81_3 1_555 1_555
N62_3 C81_3 1_555 1_555
N63_3 C80_3 1_555 1_555
C73_3 N82_6 1_555 1_555
C74_3 N82_6 1_555 1_555
C75_3 N56_3 1_555 1_555
C78_3 N82_2 1_555 1_555
C79_3 N59_3 1_555 1_555
C80_3 N60_3 1_555 1_555
C82_3 N82_10 1_555 1_555
C83_3 N62_3 1_555 1_555
C84_3 N62_3 1_555 1_555
C84_3 N63_3 1_555 1_555
C5_3 H4_3 1_555 1_555
C6_3 H5_3 1_555 1_555
C7_3 C6_3 1_555 1_555
H6_3 C7_3 1_555 1_555
C8_3 N5_3 1_555 1_555
N78_6 C5_3 1_555 1_555
N5_3 C5_3 1_555 1_555
N6_3 C8_3 1_555 1_555
C17_3 H13_3 1_555 1_555
C18_3 H14_3 1_555 1_555
C19_3 C18_3 1_555 1_555
H15_3 C19_3 1_555 1_555
C20_3 N14_3 1_555 1_555
N78 C17_3 1_555 1_555
N14_3 C17_3 1_555 1_555
N15_3 C8_3 1_555 1_555
C21_3 H16_3 1_555 1_555
C22_3 H17_3 1_555 1_555
C23_3 C22_3 1_555 1_555
H18_3 C23_3 1_555 1_555
C24_3 N6_3 1_555 1_555
N78_12 C21_3 1_555 1_555
N17_3 C21_3 1_555 1_555
N18_3 C20_3 1_555 1_555
C61_5 H46_5 1_555 1_555
C62_5 H47_5 1_555 1_555
C63_5 C62_5 1_555 1_555
H48_5 C63_5 1_555 1_555
C64_5 N47_5 1_555 1_555
N74 C61_5 1_555 1_555
N47_5 C61_5 1_555 1_555
N48_5 C64_5 1_555 1_555
C65_5 H49_5 1_555 1_555
C66_5 H50_5 1_555 1_555
C67_5 C66_5 1_555 1_555
H51_5 C67_5 1_555 1_555
C68_5 N48_5 1_555 1_555
N75_3 C65_5 1_555 1_555
N50_5 C65_5 1_555 1_555
N51_5 C68_5 1_555 1_555
C69_5 H52_5 1_555 1_555
C70_5 H53_5 1_555 1_555
C71_5 C70_5 1_555 1_555
H54_5 C71_5 1_555 1_555
C72_5 N51_5 1_555 1_555
N75_8 C69_5 1_555 1_555
N53_5 C69_5 1_555 1_555
N54_5 C64_5 1_555 1_555
C6_3 N78_6 1_555 1_555
C7_3 N5_3 1_555 1_555
C18_3 N78 1_555 1_555
C19_3 N14_3 1_555 1_555
C20_3 N15_3 1_555 1_555
C22_3 N78_12 1_555 1_555
C23_3 N17_3 1_555 1_555
C24_3 N17_3 1_555 1_555
C24_3 N18_3 1_555 1_555
C62_5 N74 1_555 1_555
C63_5 N47_5 1_555 1_555
C66_5 N75_3 1_555 1_555
C67_5 N50_5 1_555 1_555
C68_5 N50_5 1_555 1_555
C70_5 N75_8 1_555 1_555
C71_5 N53_5 1_555 1_555
C72_5 N53_5 1_555 1_555
C72_5 N54_5 1_555 1_555
C85_3 H64_3 1_555 1_555
C86_3 H65_3 1_555 1_555
C87_3 C86_3 1_555 1_555
H66_3 C87_3 1_555 1_555
C88_3 N65_3 1_555 1_555
N65_3 C85_3 1_555 1_555
N66_3 C88_3 1_555 1_555
C89_3 H67_3 1_555 1_555
C90_3 H68_3 1_555 1_555
C91_3 C90_3 1_555 1_555
H69_3 C91_3 1_555 1_555
C92_3 N68_3 1_555 1_555
N82_11 C89_3 1_555 1_555
N68_3 C89_3 1_555 1_555
N69_3 C88_3 1_555 1_555
C93_3 H70_3 1_555 1_555
C94_3 H71_3 1_555 1_555
C95_3 C94_3 1_555 1_555
H72_3 C95_3 1_555 1_555
C96_3 N66_3 1_555 1_555
N82_8 C93_3 1_555 1_555
N71_3 C93_3 1_555 1_555
N72_3 C92_3 1_555 1_555
C85_3 N82 1_555 1_555
C86_3 N82 1_555 1_555
C87_3 N65_3 1_555 1_555
C90_3 N82_11 1_555 1_555
C91_3 N68_3 1_555 1_555
C92_3 N69_3 1_555 1_555
C94_3 N82_8 1_555 1_555
C95_3 N71_3 1_555 1_555
C96_3 N71_3 1_555 1_555
C96_3 N72_3 1_555 1_555
C37_3 H28_3 1_555 1_555
C38_3 H29_3 1_555 1_555
C39_3 C38_3 1_555 1_555
H30_3 C39_3 1_555 1_555
C40_3 N29_3 1_555 1_555
N78_3 C37_3 1_555 1_555
N29_3 C37_3 1_555 1_555
N30_3 C40_3 1_555 1_555
C41_3 H31_3 1_555 1_555
C42_3 H32_3 1_555 1_555
C43_3 C42_3 1_555 1_555
H33_3 C43_3 1_555 1_555
C44_3 N32_3 1_555 1_555
N78_11 C41_3 1_555 1_555
N32_3 C41_3 1_555 1_555
N33_3 C40_3 1_555 1_555
C45_3 H34_3 1_555 1_555
C46_3 H35_3 1_555 1_555
C47_3 C46_3 1_555 1_555
H36_3 C47_3 1_555 1_555
C48_3 N30_3 1_555 1_555
N78_7 C45_3 1_555 1_555
N35_3 C45_3 1_555 1_555
N36_3 C44_3 1_555 1_555
C38_3 N78_3 1_555 1_555
C39_3 N29_3 1_555 1_555
C42_3 N78_11 1_555 1_555
C43_3 N32_3 1_555 1_555
C44_3 N33_3 1_555 1_555
C46_3 N78_7 1_555 1_555
C47_3 N35_3 1_555 1_555
C48_3 N35_3 1_555 1_555
C48_3 N36_3 1_555 1_555
C5_4 H4_4 1_555 1_555
C6_4 H5_4 1_555 1_555
C7_4 C6_4 1_555 1_555
H6_4 C7_4 1_555 1_555
C8_4 N5_4 1_555 1_555
N78_8 C5_4 1_555 1_555
N5_4 C5_4 1_555 1_555
N6_4 C8_4 1_555 1_555
C17_4 H13_4 1_555 1_555
C18_4 H14_4 1_555 1_555
C19_4 C18_4 1_555 1_555
H15_4 C19_4 1_555 1_555
C20_4 N14_4 1_555 1_555
N78_2 C17_4 1_555 1_555
N14_4 C17_4 1_555 1_555
N15_4 C8_4 1_555 1_555
C21_4 H16_4 1_555 1_555
C22_4 H17_4 1_555 1_555
C23_4 C22_4 1_555 1_555
H18_4 C23_4 1_555 1_555
C24_4 N6_4 1_555 1_555
N78_9 C21_4 1_555 1_555
N17_4 C21_4 1_555 1_555
N18_4 C20_4 1_555 1_555
C37_4 H28_4 1_555 1_555
C38_4 H29_4 1_555 1_555
C39_4 C38_4 1_555 1_555
H30_4 C39_4 1_555 1_555
C40_4 N29_4 1_555 1_555
N78_4 C37_4 1_555 1_555
N29_4 C37_4 1_555 1_555
N30_4 C40_4 1_555 1_555
C41_4 H31_4 1_555 1_555
C42_4 H32_4 1_555 1_555
C43_4 C42_4 1_555 1_555
H33_4 C43_4 1_555 1_555
C44_4 N32_4 1_555 1_555
N78_10 C41_4 1_555 1_555
N32_4 C41_4 1_555 1_555
N33_4 C40_4 1_555 1_555
C45_4 H34_4 1_555 1_555
C46_4 H35_4 1_555 1_555
C47_4 C46_4 1_555 1_555
H36_4 C47_4 1_555 1_555
C48_4 N30_4 1_555 1_555
N78_5 C45_4 1_555 1_555
N35_4 C45_4 1_555 1_555
N36_4 C44_4 1_555 1_555
C61_6 H46_6 1_555 1_555
C62_6 H47_6 1_555 1_555
C63_6 C62_6 1_555 1_555
H48_6 C63_6 1_555 1_555
C64_6 N47_6 1_555 1_555
N74_2 C61_6 1_555 1_555
N47_6 C61_6 1_555 1_555
N48_6 C64_6 1_555 1_555
C65_6 H49_6 1_555 1_555
C66_6 H50_6 1_555 1_555
C67_6 C66_6 1_555 1_555
H51_6 C67_6 1_555 1_555
C68_6 N48_6 1_555 1_555
N75_4 C65_6 1_555 1_555
N50_6 C65_6 1_555 1_555
N51_6 C68_6 1_555 1_555
C69_6 H52_6 1_555 1_555
C70_6 H53_6 1_555 1_555
C71_6 C70_6 1_555 1_555
H54_6 C71_6 1_555 1_555
C72_6 N51_6 1_555 1_555
N75_6 C69_6 1_555 1_555
N53_6 C69_6 1_555 1_555
N54_6 C64_6 1_555 1_555
C6_4 N78_8 1_555 1_555
C7_4 N5_4 1_555 1_555
C18_4 N78_2 1_555 1_555
C19_4 N14_4 1_555 1_555
C20_4 N15_4 1_555 1_555
C22_4 N78_9 1_555 1_555
C23_4 N17_4 1_555 1_555
C24_4 N17_4 1_555 1_555
C24_4 N18_4 1_555 1_555
C38_4 N78_4 1_555 1_555
C39_4 N29_4 1_555 1_555
C42_4 N78_10 1_555 1_555
C43_4 N32_4 1_555 1_555
C44_4 N33_4 1_555 1_555
C46_4 N78_5 1_555 1_555
C47_4 N35_4 1_555 1_555
C48_4 N35_4 1_555 1_555
C48_4 N36_4 1_555 1_555
C62_6 N74_2 1_555 1_555
C63_6 N47_6 1_555 1_555
C66_6 N75_4 1_555 1_555
C67_6 N50_6 1_555 1_555
C68_6 N50_6 1_555 1_555
C70_6 N75_6 1_555 1_555
C71_6 N53_6 1_555 1_555
C72_6 N53_6 1_555 1_555
C72_6 N54_6 1_555 1_555
C61_7 H46_7 1_555 1_555
C62_7 H47_7 1_555 1_555
C63_7 C62_7 1_555 1_555
H48_7 C63_7 1_555 1_555
C64_7 N47_7 1_555 1_555
N74_4 C61_7 1_555 1_555
N47_7 C61_7 1_555 1_555
N48_7 C64_7 1_555 1_555
C65_7 H49_7 1_555 1_555
C66_7 H50_7 1_555 1_555
C67_7 C66_7 1_555 1_555
H51_7 C67_7 1_555 1_555
C68_7 N48_7 1_555 1_555
N75_2 C65_7 1_555 1_555
N50_7 C65_7 1_555 1_555
N51_7 C68_7 1_555 1_555
C69_7 H52_7 1_555 1_555
C70_7 H53_7 1_555 1_555
C71_7 C70_7 1_555 1_555
H54_7 C71_7 1_555 1_555
C72_7 N51_7 1_555 1_555
N75_7 C69_7 1_555 1_555
N53_7 C69_7 1_555 1_555
N54_7 C64_7 1_555 1_555
C85_4 H64_4 1_555 1_555
C86_4 H65_4 1_555 1_555
C87_4 C86_4 1_555 1_555
H66_4 C87_4 1_555 1_555
C88_4 N65_4 1_555 1_555
N65_4 C85_4 1_555 1_555
N66_4 C88_4 1_555 1_555
C89_4 H67_4 1_555 1_555
C90_4 H68_4 1_555 1_555
C91_4 C90_4 1_555 1_555
H69_4 C91_4 1_555 1_555
C92_4 N68_4 1_555 1_555
N82_9 C89_4 1_555 1_555
N68_4 C89_4 1_555 1_555
N69_4 C88_4 1_555 1_555
C93_4 H70_4 1_555 1_555
C94_4 H71_4 1_555 1_555
C95_4 C94_4 1_555 1_555
H72_4 C95_4 1_555 1_555
C96_4 N66_4 1_555 1_555
N82_7 C93_4 1_555 1_555
N71_4 C93_4 1_555 1_555
N72_4 C92_4 1_555 1_555
C62_7 N74_4 1_555 1_555
C63_7 N47_7 1_555 1_555
C66_7 N75_2 1_555 1_555
C67_7 N50_7 1_555 1_555
C68_7 N50_7 1_555 1_555
C70_7 N75_7 1_555 1_555
C71_7 N53_7 1_555 1_555
C72_7 N53_7 1_555 1_555
C72_7 N54_7 1_555 1_555
C85_4 N82_4 1_555 1_555
C86_4 N82_4 1_555 1_555
C87_4 N65_4 1_555 1_555
C90_4 N82_9 1_555 1_555
C91_4 N68_4 1_555 1_555
C92_4 N69_4 1_555 1_555
C94_4 N82_7 1_555 1_555
C95_4 N71_4 1_555 1_555
C96_4 N71_4 1_555 1_555
C96_4 N72_4 1_555 1_555
C73_4 H55_4 1_555 1_555
C74_4 H56_4 1_555 1_555
C75_4 C74_4 1_555 1_555
H57_4 C75_4 1_555 1_555
C76_4 N56_4 1_555 1_555
N56_4 C73_4 1_555 1_555
N57_4 C76_4 1_555 1_555
C77_4 H58_4 1_555 1_555
C78_4 H59_4 1_555 1_555
C79_4 C78_4 1_555 1_555
H60_4 C79_4 1_555 1_555
C80_4 N59_4 1_555 1_555
N82_3 C77_4 1_555 1_555
N59_4 C77_4 1_555 1_555
N60_4 C76_4 1_555 1_555
C81_4 H61_4 1_555 1_555
C82_4 H62_4 1_555 1_555
C83_4 C82_4 1_555 1_555
H63_4 C83_4 1_555 1_555
C84_4 N57_4 1_555 1_555
N82_12 C81_4 1_555 1_555
N62_4 C81_4 1_555 1_555
N63_4 C80_4 1_555 1_555
C73_4 N82_5 1_555 1_555
C74_4 N82_5 1_555 1_555
C75_4 N56_4 1_555 1_555
C78_4 N82_3 1_555 1_555
C79_4 N59_4 1_555 1_555
C80_4 N60_4 1_555 1_555
C82_4 N82_12 1_555 1_555
C83_4 N62_4 1_555 1_555
C84_4 N62_4 1_555 1_555
C84_4 N63_4 1_555 1_555
C61_8 H46_8 1_555 1_555
C62_8 H47_8 1_555 1_555
C63_8 C62_8 1_555 1_555
H48_8 C63_8 1_555 1_555
C64_8 N47_8 1_555 1_555
N74_3 C61_8 1_555 1_555
N47_8 C61_8 1_555 1_555
N48_8 C64_8 1_555 1_555
C65_8 H49_8 1_555 1_555
C66_8 H50_8 1_555 1_555
C67_8 C66_8 1_555 1_555
H51_8 C67_8 1_555 1_555
C68_8 N48_8 1_555 1_555
N75 C65_8 1_555 1_555
N50_8 C65_8 1_555 1_555
N51_8 C68_8 1_555 1_555
C69_8 H52_8 1_555 1_555
C70_8 H53_8 1_555 1_555
C71_8 C70_8 1_555 1_555
H54_8 C71_8 1_555 1_555
C72_8 N51_8 1_555 1_555
N75_5 C69_8 1_555 1_555
N53_8 C69_8 1_555 1_555
N54_8 C64_8 1_555 1_555
C62_8 N74_3 1_555 1_555
C63_8 N47_8 1_555 1_555
C66_8 N75 1_555 1_555
C67_8 N50_8 1_555 1_555
C68_8 N50_8 1_555 1_555
C70_8 N75_5 1_555 1_555
C71_8 N53_8 1_555 1_555
C72_8 N53_8 1_555 1_555
C72_8 N54_8 1_555 1_555
C65_9 H49_9 1_555 1_555
C66_9 H50_9 1_555 1_555
C67_9 C66_9 1_555 1_555
H51_9 C67_9 1_555 1_555
C68_9 N48_9 1_555 1_555
N77_4 C65_9 1_555 1_555
N50_9 C65_9 1_555 1_555
N51_9 C68_9 1_555 1_555
C66_9 N77_4 1_555 1_555
C67_9 N50_9 1_555 1_555
C68_9 N50_9 1_555 1_555
C62_9 H47_9 1_555 1_555
C63_9 C62_9 1_555 1_555
H48_9 C63_9 1_555 1_555
C64_9 N47_9 1_555 1_555
N76_3 C61_9 1_555 1_555
N47_9 C61_9 1_555 1_555
C69_9 H52_9 1_555 1_555
C70_9 H53_9 1_555 1_555
C71_9 C70_9 1_555 1_555
N76_5 C69_9 1_555 1_555
N53_9 C69_9 1_555 1_555
N54_9 C64_9 1_555 1_555
C62_9 N76_3 1_555 1_555
C63_9 N47_9 1_555 1_555
C70_9 N76_5 1_555 1_555
C71_9 N53_9 1_555 1_555
C72_9 N53_9 1_555 1_555
C72_9 N54_9 1_555 1_555
C61_10 H46_10 1_555 1_555
C62_10 H47_10 1_555 1_555
C63_10 C62_10 1_555 1_555
H48_10 C63_10 1_555 1_555
C64_10 N47_10 1_555 1_555
N76_4 C61_10 1_555 1_555
N47_10 C61_10 1_555 1_555
N48_10 C64_10 1_555 1_555
N54_10 C64_10 1_555 1_555
C62_10 N76_4 1_555 1_555
C63_10 N47_10 1_555 1_555
C65_10 H49_10 1_555 1_555
C66_10 H50_10 1_555 1_555
C67_10 C66_10 1_555 1_555
N77_3 C65_10 1_555 1_555
N50_10 C65_10 1_555 1_555
N51_10 C68_10 1_555 1_555
C70_10 H53_10 1_555 1_555
C71_10 C70_10 1_555 1_555
H54_10 C71_10 1_555 1_555
C72_10 N51_10 1_555 1_555
N76_7 C69_10 1_555 1_555
N53_10 C69_10 1_555 1_555
C66_10 N77_3 1_555 1_555
C67_10 N50_10 1_555 1_555
C68_10 N50_10 1_555 1_555
C70_10 N76_7 1_555 1_555
C71_10 N53_10 1_555 1_555
C72_10 N53_10 1_555 1_555
C69_11 H52_11 1_555 1_555
C70_11 H53_11 1_555 1_555
C71_11 C70_11 1_555 1_555
H54_11 C71_11 1_555 1_555
C72_11 N51_11 1_555 1_555
N76_8 C69_11 1_555 1_555
N53_11 C69_11 1_555 1_555
C70_11 N76_8 1_555 1_555
C71_11 N53_11 1_555 1_555
C72_11 N53_11 1_555 1_555
C72_11 N54_11 1_555 1_555
C61_11 H46_11 1_555 1_555
C62_11 H47_11 1_555 1_555
C63_11 C62_11 1_555 1_555
C64_11 N47_11 1_555 1_555
N76 C61_11 1_555 1_555
N47_11 C61_11 1_555 1_555
N48_11 C64_11 1_555 1_555
C66_11 H50_11 1_555 1_555
C67_11 C66_11 1_555 1_555
H51_11 C67_11 1_555 1_555
C68_11 N48_11 1_555 1_555
N77_2 C65_11 1_555 1_555
N50_11 C65_11 1_555 1_555
C62_11 N76 1_555 1_555
C63_11 N47_11 1_555 1_555
C66_11 N77_2 1_555 1_555
C67_11 N50_11 1_555 1_555
C68_11 N50_11 1_555 1_555
C66_12 H50_12 1_555 1_555
C67_12 C66_12 1_555 1_555
N77 C65_12 1_555 1_555
N50_12 C65_12 1_555 1_555
C66_12 N77 1_555 1_555
C67_12 N50_12 1_555 1_555
C68_12 N50_12 1_555 1_555
C70_12 H53_12 1_555 1_555
C71_12 C70_12 1_555 1_555
N76_6 C69_12 1_555 1_555
N53_12 C69_12 1_555 1_555
C70_12 N76_6 1_555 1_555
C71_12 N53_12 1_555 1_555
C72_12 N53_12 1_555 1_555
C62_12 H47_12 1_555 1_555
C63_12 C62_12 1_555 1_555
C64_12 N47_12 1_555 1_555
N76_2 C61_12 1_555 1_555
N47_12 C61_12 1_555 1_555
C62_12 N76_2 1_555 1_555
C63_12 N47_12 1_555 1_555

#END
