
###############################################################################
#
# This file contains modified crystal structure data generated from the
# MOF subset of the Cambridge Structural Database (CSD) v543 
# hosted by the Cambridge Crystallographic Data Centre (CCDC).
#
# This work is licensed under the Creative Commons
# Attribution-NonCommercial-ShareAlike 4.0 International License.
# To view a copy of this license, visit
# http://creativecommons.org/licenses/by-nc-sa/4.0/
# or send a letter to
# Creative Commons, PO Box 1866, Mountain View, CA 94042, USA.
#
# CIF created using the CSD Python API on 29 September 2022
# The structure has been converted into the P1 space group
# The structure has a 3D framework
# The original CSD entry HUCFAO is in the triclinic crystal system
# The framework has been calculated to contain at least 10.0% void space
# The void calculation uses a probe of radius 1.32A, grid spacing 0.4
# H atom positions have been added when not included in the experimental data
#
###############################################################################

data_HUCFAO
_chemical_formula_moiety         '(C48 H60 Mn6 N12 O40)n'
_symmetry_cell_setting           triclinic
_symmetry_space_group_name_H-M   'P 1'
_symmetry_Int_Tables_number      1
_space_group_name_Hall           'P 1'
loop_
_symmetry_equiv_pos_site_id
_symmetry_equiv_pos_as_xyz
1 x,y,z
_cell_length_a                   8.9147(18)
_cell_length_b                   12.715(3)
_cell_length_c                   21.226(4)
_cell_angle_alpha                90.21(3)
_cell_angle_beta                 94.14(3)
_cell_angle_gamma                91.29(3)
_cell_volume                     2399.06
loop_
_atom_site_label
_atom_site_type_symbol
_atom_site_fract_x
_atom_site_fract_y
_atom_site_fract_z
O11 O 0.053(3) 0.189(2) 0.2404(15)
O21 O 0.071(6) 0.377(4) 0.1480(19)
H3 H 0.1120 0.4349 0.1452
H16 H 0.0179 0.0127 0.1801
O22 O 0.167(3) 0.428(2) 0.2767(17)
Mn12 Mn 0.2795(6) 0.1451(5) 0.2626(3)
O2 O 0.517(3) 0.126(2) 0.2811(13)
O3 O 0.739(3) 0.075(3) 0.3141(16)
C1 C 0.601(4) 0.067(3) 0.3153(18)
H4 H 0.5100 0.0141 0.3971
Mn5 Mn 0.6022(6) 0.2708(4) 0.2374(3)
Mn2 Mn 0.9741(6) 0.3608(5) 0.2469(3)
O4 O 0.096(4) 0.664(3) 0.6560(15)
O5 O 0.338(3) 0.681(2) 0.6719(13)
O6 O 0.359(3) 0.314(2) 0.2654(13)
O7 O 0.482(5) 0.749(3) 0.2911(15)
O8 O 0.570(5) 0.849(3) 0.4886(16)
O9 O 0.317(4) 0.550(3) 0.4575(15)
O10 O 0.836(3) 0.232(2) 0.2042(13)
O13 O 0.760(5) 0.025(3) 0.0297(17)
O19 O 0.206(4) 0.156(4) 0.3625(17)
H1 H 0.1152 0.1652 0.3613
C2 C 0.524(5) 0.985(3) 0.356(2)
H5 H 0.4264 0.9650 0.3358
C3 C 0.622(5) 0.889(3) 0.363(2)
H6 H 0.6559 0.8691 0.3218
H7 H 0.7105 0.9047 0.3908
C4 C 0.519(5) 0.788(3) 0.4540(19)
C5 C 0.469(5) 0.734(3) 0.3470(19)
C6 C 0.380(5) 0.627(3) 0.438(2)
C7 C 0.307(5) 0.582(3) 0.332(2)
H8 H 0.2779 0.6193 0.2934
H9 H 0.2162 0.5603 0.3511
C8 C 0.393(5) 0.481(3) 0.314(2)
H10 H 0.4725 0.5019 0.2876
H11 H 0.4406 0.4522 0.3527
C9 C 0.301(4) 0.401(3) 0.2826(18)
C10 C 0.422(5) 0.680(4) 0.5439(19)
H12 H 0.4987 0.7206 0.5686
H13 H 0.4390 0.6064 0.5528
C11 C 0.264(5) 0.708(4) 0.569(2)
H14 H 0.2515 0.7833 0.5630
H15 H 0.1870 0.6732 0.5409
C12 C 0.230(5) 0.682(3) 0.6373(19)
C13 C 0.942(5) 0.166(3) 0.2112(19)
C14 C 0.936(5) 0.057(3) 0.182(2)
C15 C 0.786(5) 0.031(3) 0.157(2)
H17 H 0.7466 0.0879 0.1304
H18 H 0.7201 0.0205 0.1909
N1 N 0.391(4) 0.650(3) 0.3732(16)
N2 N 0.443(4) 0.698(3) 0.4754(15)
N3 N 0.534(4) 0.798(3) 0.3888(16)
Mn7 Mn 0.3978(6) 0.7292(4) 0.7626(3)
Mn10 Mn 0.0259(6) 0.6392(5) 0.7531(3)
O24 O 0.904(4) 0.336(3) 0.3440(15)
O25 O 0.662(3) 0.319(2) 0.3281(13)
O27 O 0.538(4) 0.229(3) 0.1443(14)
O28 O 0.335(4) 0.134(3) 0.1645(15)
O29 O 0.625(4) 0.425(2) 0.1923(15)
O30 O 0.830(4) 0.488(2) 0.2323(17)
H26 H 0.259961 0.215932 0.384904
H28 H 0.987877 0.36923 0.114448
H29 H 0.911312 0.0231459 0.227259
O12 O 0.815(4) 0.837(3) 0.2073(14)
O14 O 0.804(5) 0.669(3) 0.0196(17)
O20 O 0.240(6) 0.975(3) 0.258(3)
H2 H 0.1922 0.9562 0.2873
C16 C 0.778(5) 0.942(3) 0.055(2)
C17 C 0.809(5) 0.841(3) 0.151(2)
C18 C 0.801(5) 0.750(3) 0.050(2)
C22 C 0.841(5) 0.649(3) 0.145(2)
H22 H 0.9120 0.6585 0.1818
H23 H 0.8842 0.6006 0.1164
C23 C 0.693(5) 0.600(3) 0.167(3)
H24 H 0.6490 0.6490 0.1950
H25 H 0.6222 0.5900 0.1300
C24 C 0.718(5) 0.495(3) 0.200(2)
N4 N 0.795(4) 0.934(3) 0.1196(16)
N5 N 0.816(4) 0.751(3) 0.1139(16)
N6 N 0.778(4) 0.847(3) 0.0228(16)
H27 H 0.338042 0.939142 0.260413
O15 O 0.462(4) 0.771(3) 0.8557(14)
O16 O 0.665(4) 0.866(3) 0.8355(15)
C19 C 0.754(5) 0.850(4) 0.955(2)
H19 H 0.8130 0.7971 0.9359
H20 H 0.7816 0.9185 0.9396
C20 C 0.592(6) 0.828(5) 0.943(2)
H21 H 0.5196 0.8195 0.9719
C21 C 0.571(5) 0.821(4) 0.872(2)
Mn13 Mn 0.7205(6) 0.8549(5) 0.7374(3)
H30 H 0.571247 0.912036 0.940965
C19_2 C 0.246(5) 0.150(4) 0.045(2)
H19_2 H 0.1870 0.2029 0.0641
H20_2 H 0.2184 0.0815 0.0604
C20_2 C 0.408(6) 0.172(5) 0.057(2)
H21_2 H 0.4804 0.1805 0.0281
C21_2 C 0.429(5) 0.179(4) 0.128(2)
H30_2 H 0.428753 0.0879636 0.0590348
O12_2 O 0.185(4) 0.163(3) 0.7927(14)
O14_2 O 0.196(5) 0.331(3) 0.9804(17)
O17 O 0.375(4) 0.575(2) 0.8077(15)
O18 O 0.170(4) 0.512(2) 0.7677(17)
O20_2 O 0.760(6) 0.025(3) 0.742(3)
H2_2 H 0.8078 0.0438 0.7127
C16_2 C 0.222(5) 0.058(3) 0.945(2)
C17_2 C 0.191(5) 0.159(3) 0.849(2)
C18_2 C 0.199(5) 0.250(3) 0.950(2)
C22_2 C 0.159(5) 0.351(3) 0.855(2)
H22_2 H 0.0880 0.3415 0.8182
H23_2 H 0.1158 0.3994 0.8836
C23_2 C 0.307(5) 0.400(3) 0.833(3)
H24_2 H 0.3510 0.3510 0.8050
H25_2 H 0.3778 0.4100 0.8700
C24_2 C 0.282(5) 0.505(3) 0.800(2)
N4_2 N 0.205(4) 0.066(3) 0.8804(16)
N5_2 N 0.184(4) 0.249(3) 0.8861(16)
N6_2 N 0.222(4) 0.153(3) 0.9772(16)
H27_2 H 0.661958 0.0608575 0.739587
O1 O 0.833(3) 0.572(2) 0.7233(17)
O6_2 O 0.641(3) 0.686(2) 0.7346(13)
O7_2 O 0.518(5) 0.251(3) 0.7089(15)
O8_2 O 0.430(5) 0.151(3) 0.5114(16)
O9_2 O 0.683(4) 0.450(3) 0.5425(15)
O10_2 O 0.164(3) 0.768(2) 0.7958(13)
O13_2 O 0.240(5) 0.975(3) 0.9703(17)
O19_2 O 0.794(4) 0.844(4) 0.6375(17)
H1_2 H 0.8848 0.8348 0.6387
C2_2 C 0.476(5) 0.015(3) 0.644(2)
H5_2 H 0.5736 0.0350 0.6642
C3_2 C 0.378(5) 0.111(3) 0.637(2)
H6_2 H 0.3441 0.1309 0.6782
H7_2 H 0.2895 0.0953 0.6092
C4_2 C 0.481(5) 0.212(3) 0.5460(19)
C5_2 C 0.531(5) 0.266(3) 0.6530(19)
C6_2 C 0.620(5) 0.373(3) 0.562(2)
C7_2 C 0.693(5) 0.418(3) 0.668(2)
H8_2 H 0.7221 0.3807 0.7066
H9_2 H 0.7838 0.4397 0.6489
C8_2 C 0.607(5) 0.519(3) 0.686(2)
H10_2 H 0.5275 0.4981 0.7124
H11_2 H 0.5594 0.5478 0.6473
C9_2 C 0.699(4) 0.599(3) 0.7174(18)
C10_2 C 0.578(5) 0.320(4) 0.4561(19)
H12_2 H 0.5013 0.2794 0.4314
H13_2 H 0.5610 0.3936 0.4472
C11_2 C 0.736(5) 0.292(4) 0.431(2)
H14_2 H 0.7485 0.2167 0.4370
H15_2 H 0.8130 0.3268 0.4591
C12_2 C 0.770(5) 0.318(3) 0.3627(19)
C13_2 C 0.058(5) 0.834(3) 0.7888(19)
C14_2 C 0.064(5) 0.943(3) 0.818(2)
C15_2 C 0.214(5) 0.969(3) 0.843(2)
H17_2 H 0.2534 0.9121 0.8696
H18_2 H 0.2799 0.9795 0.8091
N1_2 N 0.609(4) 0.350(3) 0.6268(16)
N2_2 N 0.557(4) 0.302(3) 0.5246(15)
N3_2 N 0.466(4) 0.202(3) 0.6112(16)
O23 O 0.483(3) 0.874(2) 0.7189(13)
O26 O 0.947(3) 0.811(2) 0.7596(15)
H26_2 H 0.740039 0.784068 0.615096
H28_2 H 0.0121233 0.63077 0.885552
H29_2 H 0.0886884 0.976854 0.772741
O3_2 O 0.261(3) 0.925(3) 0.6859(16)
C1_2 C 0.399(4) 0.933(3) 0.6847(18)
H4_2 H 0.4900 0.9859 0.6029
O21_2 O 0.929(6) 0.623(4) 0.8520(19)
H3_2 H 0.8880 0.5651 0.8548
H16_2 H 0.9821 0.9873 0.8199
loop_
_geom_bond_atom_site_label_1
_geom_bond_atom_site_label_2
_geom_bond_site_symmetry_1
_geom_bond_site_symmetry_2
H3 O21 1_555 1_555
Mn12 O11 1_555 1_555
O2 C1 1_555 1_555
O3 C1 1_555 1_555
Mn5 O2 1_555 1_555
Mn12 O2 1_555 1_555
O22 C9 1_555 1_555
Mn5 O6 1_555 1_555
Mn2 O10 1_555 1_555
Mn12 O6 1_555 1_555
O4 C12 1_555 1_555
O5 C12 1_555 1_555
O6 C9 1_555 1_555
O7 C5 1_555 1_555
O8 C4 1_555 1_555
O9 C6 1_555 1_555
O10 Mn5 1_555 1_555
O19 Mn12 1_555 1_555
H1 O19 1_555 1_555
H5 C2 1_555 1_555
C3 C2 1_555 1_555
H6 C3 1_555 1_555
H7 C3 1_555 1_555
C4 N2 1_555 1_555
C5 N1 1_555 1_555
C6 N1 1_555 1_555
C7 H8 1_555 1_555
H9 C7 1_555 1_555
C8 C7 1_555 1_555
H10 C8 1_555 1_555
H11 C8 1_555 1_555
C9 C8 1_555 1_555
C10 H12 1_555 1_555
H13 C10 1_555 1_555
C11 C10 1_555 1_555
H14 C11 1_555 1_555
H15 C11 1_555 1_555
C12 C11 1_555 1_555
C13 O10 1_555 1_555
C14 C13 1_555 1_555
C15 C14 1_555 1_555
H17 C15 1_555 1_555
H18 C15 1_555 1_555
N1 C7 1_555 1_555
N2 C6 1_555 1_555
N3 C3 1_555 1_555
Mn7 O5 1_555 1_555
Mn10 O4 1_555 1_555
O24 Mn2 1_555 1_555
O25 Mn5 1_555 1_555
O27 Mn5 1_555 1_555
O28 Mn12 1_555 1_555
O29 Mn5 1_555 1_555
O30 Mn2 1_555 1_555
C4 N3 1_555 1_555
C5 N3 1_555 1_555
C10 N2 1_555 1_555
O19 H26 1_555 1_555
C14 H29 1_555 1_555
O12 C17 1_555 1_555
O14 C18 1_555 1_555
O29 C24 1_555 1_555
O30 C24 1_555 1_555
H2 O20 1_555 1_555
C16 N4 1_555 1_555
C17 N4 1_555 1_555
C18 N5 1_555 1_555
C22 H22 1_555 1_555
H23 C22 1_555 1_555
C23 C22 1_555 1_555
H24 C23 1_555 1_555
H25 C23 1_555 1_555
C24 C23 1_555 1_555
N5 C17 1_555 1_555
N6 C16 1_555 1_555
C18 N6 1_555 1_555
C22 N5 1_555 1_555
O20 H27 1_555 1_555
O15 C21 1_555 1_555
O16 C21 1_555 1_555
C19 H19 1_555 1_555
H20 C19 1_555 1_555
C20 C19 1_555 1_555
H21 C20 1_555 1_555
C21 C20 1_555 1_555
Mn7 O15 1_555 1_555
Mn13 O16 1_555 1_555
C20 H30 1_555 1_555
O27 C21_2 1_555 1_555
O28 C21_2 1_555 1_555
C19_2 H19_2 1_555 1_555
H20_2 C19_2 1_555 1_555
C20_2 C19_2 1_555 1_555
H21_2 C20_2 1_555 1_555
C21_2 C20_2 1_555 1_555
C20_2 H30_2 1_555 1_555
O12_2 C17_2 1_555 1_555
O14_2 C18_2 1_555 1_555
O17 C24_2 1_555 1_555
O18 C24_2 1_555 1_555
H2_2 O20_2 1_555 1_555
C16_2 N4_2 1_555 1_555
C17_2 N4_2 1_555 1_555
C18_2 N5_2 1_555 1_555
C22_2 H22_2 1_555 1_555
H23_2 C22_2 1_555 1_555
C23_2 C22_2 1_555 1_555
H24_2 C23_2 1_555 1_555
H25_2 C23_2 1_555 1_555
C24_2 C23_2 1_555 1_555
N5_2 C17_2 1_555 1_555
N6_2 C16_2 1_555 1_555
Mn7 O17 1_555 1_555
Mn10 O18 1_555 1_555
C18_2 N6_2 1_555 1_555
C22_2 N5_2 1_555 1_555
O20_2 H27_2 1_555 1_555
O1 C9_2 1_555 1_555
Mn7 O6_2 1_555 1_555
Mn10 O10_2 1_555 1_555
Mn13 O6_2 1_555 1_555
O24 C12_2 1_555 1_555
O25 C12_2 1_555 1_555
O6_2 C9_2 1_555 1_555
O7_2 C5_2 1_555 1_555
O8_2 C4_2 1_555 1_555
O9_2 C6_2 1_555 1_555
O10_2 Mn7 1_555 1_555
O19_2 Mn13 1_555 1_555
H1_2 O19_2 1_555 1_555
H5_2 C2_2 1_555 1_555
C3_2 C2_2 1_555 1_555
H6_2 C3_2 1_555 1_555
H7_2 C3_2 1_555 1_555
C4_2 N2_2 1_555 1_555
C5_2 N1_2 1_555 1_555
C6_2 N1_2 1_555 1_555
C7_2 H8_2 1_555 1_555
H9_2 C7_2 1_555 1_555
C8_2 C7_2 1_555 1_555
H10_2 C8_2 1_555 1_555
H11_2 C8_2 1_555 1_555
C9_2 C8_2 1_555 1_555
C10_2 H12_2 1_555 1_555
H13_2 C10_2 1_555 1_555
C11_2 C10_2 1_555 1_555
H14_2 C11_2 1_555 1_555
H15_2 C11_2 1_555 1_555
C12_2 C11_2 1_555 1_555
C13_2 O10_2 1_555 1_555
C14_2 C13_2 1_555 1_555
C15_2 C14_2 1_555 1_555
H17_2 C15_2 1_555 1_555
H18_2 C15_2 1_555 1_555
N1_2 C7_2 1_555 1_555
N2_2 C6_2 1_555 1_555
N3_2 C3_2 1_555 1_555
O23 Mn7 1_555 1_555
O26 Mn13 1_555 1_555
Mn13 O23 1_555 1_555
C4_2 N3_2 1_555 1_555
C5_2 N3_2 1_555 1_555
C10_2 N2_2 1_555 1_555
O19_2 H26_2 1_555 1_555
C14_2 H29_2 1_555 1_555
O23 C1_2 1_555 1_555
O3_2 C1_2 1_555 1_555
H3_2 O21_2 1_555 1_555

#END
