
###############################################################################
#
# This file contains modified crystal structure data generated from the
# MOF subset of the Cambridge Structural Database (CSD) v543 
# hosted by the Cambridge Crystallographic Data Centre (CCDC).
#
# This work is licensed under the Creative Commons
# Attribution-NonCommercial-ShareAlike 4.0 International License.
# To view a copy of this license, visit
# http://creativecommons.org/licenses/by-nc-sa/4.0/
# or send a letter to
# Creative Commons, PO Box 1866, Mountain View, CA 94042, USA.
#
# CIF created using the CSD Python API on 29 September 2022
# The structure has been converted into the P1 space group
# The structure has a 3D framework
# The original CSD entry HUCLIB is in the monoclinic crystal system
# The framework has been calculated to contain at least 10.0% void space
# The void calculation uses a probe of radius 1.32A, grid spacing 0.4
#
###############################################################################

data_HUCLIB
_chemical_formula_moiety         '(C56 H32 Ag4 N8 O29 Sm4)n'
_symmetry_cell_setting           triclinic
_symmetry_space_group_name_H-M   'P 1'
_symmetry_Int_Tables_number      1
_space_group_name_Hall           'P 1'
loop_
_symmetry_equiv_pos_site_id
_symmetry_equiv_pos_as_xyz
1 x,y,z
_cell_length_a                   9.7145(9)
_cell_length_b                   22.3444(15)
_cell_length_c                   9.1726(6)
_cell_angle_alpha                90
_cell_angle_beta                 117.295(1)
_cell_angle_gamma                90
_cell_volume                     1769.36
loop_
_atom_site_label
_atom_site_type_symbol
_atom_site_fract_x
_atom_site_fract_y
_atom_site_fract_z
Sm2 Sm 0.14285(2) 0.008685(8) 0.88233(2)
Ag2 Ag 0.17933(4) 0.147629(14) 0.51691(5)
Ag6 Ag 0.17933(4) 0.352371(14) 0.01691(5)
O9 O 0.1165(3) 0.05598(11) 0.6305(3)
N5 N 0.3746(4) 0.11589(15) 0.4837(4)
N6 N 0.0381(4) 0.28296(14) 0.0463(4)
N8 N 0.0381(4) 0.21704(14) 0.5463(4)
C21 C 0.0636(4) 0.22618(16) 0.0208(5)
O15 O 0.3844(3) 0.06382(11) 0.9504(3)
C26 C 0.0207(4) 0.03303(16) 0.4972(4)
C27 C 0.0229(4) 0.11643(15) 0.0078(4)
O20 O 0.1118(3) 0.11157(11) 0.9443(3)
H13 H 0.1395 0.2184 0.9883
O11 O 0.2900(3) 0.99674(11) 0.1769(3)
O5 O 0.0418(3) 0.94114(11) 0.6386(3)
Ag5 Ag 0.82067(4) 0.852371(14) 0.48309(5)
N3 N 0.6254(4) 0.88411(15) 0.5163(4)
C15 C 0.3834(4) 0.93617(16) 0.4147(4)
C16 C 0.4789(5) 0.88129(19) 0.6648(5)
H9 H 0.4696 0.8681 0.7560
C17 C 0.5154(4) 0.91951(17) 0.4047(5)
H10 H 0.5291 0.9334 0.3166
C18 C 0.6042(5) 0.86566(19) 0.6441(5)
H11 H 0.6788 0.8410 0.7221
C19 C 0.2586(4) 0.97226(16) 0.2811(4)
C20 C 0.3662(5) 0.91690(17) 0.5490(4)
H12 H 0.2795 0.9279 0.5608
O12 O 0.1309(3) 0.97383(13) 0.2834(3)
O18 O 0.3580(3) 0.94430(11) 0.9213(3)
O22 O 0.0350(3) 0.92754(12) 0.9552(3)
C8 C 0.1309(5) 0.8101(2) 0.9136(5)
H6 H 0.1876 0.8411 0.8994
C9 C 0.0722(5) 0.70695(19) 0.9069(5)
H7 H 0.0903 0.6678 0.8859
C10 C 0.0169(4) 0.82184(16) 0.9599(4)
C11 C 0.1588(5) 0.7517(2) 0.8889(6)
H8 H 0.2365 0.7427 0.8600
O13 O 0.8691(3) 0.02617(13) 0.7166(3)
C22 C 0.8691(5) 0.1899(2) 0.0864(5)
H14 H 0.8124 0.1589 0.1006
C23 C 0.9278(5) 0.29305(19) 0.0931(5)
H15 H 0.9097 0.3322 0.1141
C24 C 0.9831(4) 0.17816(16) 0.0401(4)
C25 C 0.8412(5) 0.2483(2) 0.1111(6)
H16 H 0.7635 0.2573 0.1400
O16 O 0.9582(3) 0.05886(11) 0.3614(3)
O17 O 0.6420(3) 0.05570(11) 0.0787(3)
O21 O 0.9650(3) 0.07246(12) 0.0448(3)
C28 C 0.5081(4) 0.03469(16) 0.0083(4)
C1 C 0.6166(4) 0.06383(16) 0.5853(4)
C2 C 0.5211(5) 0.11871(19) 0.3352(5)
H1 H 0.5304 0.1319 0.2440
C3 C 0.4846(4) 0.08049(17) 0.5953(5)
H2 H 0.4709 0.0666 0.6834
C4 C 0.3958(5) 0.13434(19) 0.3559(5)
H3 H 0.3212 0.1590 0.2779
C5 C 0.7414(4) 0.02774(16) 0.7189(4)
C6 C 0.6338(5) 0.08310(17) 0.4510(4)
H4 H 0.7205 0.0721 0.4392
O2 O 0.7100(3) 0.00326(11) 0.8231(3)
Sm1 Sm 0.85715(2) 0.991315(8) 0.11767(2)
O1 O 0.8835(3) 0.94402(11) 0.3695(3)
H5 H 0.8605 0.7816 0.0117
O4 O 0.6156(3) 0.93618(11) 0.0496(3)
C12 C 0.9793(4) 0.96697(16) 0.5028(4)
O7 O 0.8882(3) 0.88843(11) 0.0557(3)
N7 N 0.9619(4) 0.78296(14) 0.4537(4)
N2 N 0.9619(4) 0.71704(14) 0.9537(4)
C7 C 0.9364(4) 0.77382(16) 0.9792(5)
C13 C 0.9771(4) 0.88357(15) 0.9922(4)
C14 C 0.4919(4) 0.96531(16) 0.9917(4)
Ag4 Ag 0.82067(4) 0.647629(14) 0.98309(5)
N1 N 0.6254(4) 0.61589(15) 0.0163(4)
C2_2 C 0.4789(5) 0.61871(19) 0.1648(5)
H1_2 H 0.4696 0.6319 0.2560
C4_2 C 0.6042(5) 0.63434(19) 0.1441(5)
H3_2 H 0.6788 0.6590 0.2221
C6_2 C 0.3662(5) 0.58310(17) 0.0490(4)
H4_2 H 0.2795 0.5721 0.0608
Sm1_2 Sm 0.14285(2) 0.491315(8) 0.38233(2)
O1_2 O 0.1165(3) 0.44402(11) 0.1305(3)
C1_2 C 0.3834(4) 0.56383(16) 0.9147(4)
C3_2 C 0.5154(4) 0.58049(17) 0.9047(5)
H2_2 H 0.5291 0.5666 0.8166
C5_2 C 0.2586(4) 0.52774(16) 0.7811(4)
O2_2 O 0.2900(3) 0.50326(11) 0.6769(3)
O3 O 0.1309(3) 0.52617(13) 0.7834(3)
C7_2 C 0.0636(4) 0.27382(16) 0.5208(5)
H5_2 H 0.1395 0.2816 0.4883
O4_2 O 0.3844(3) 0.43618(11) 0.4504(3)
O6 O 0.6420(3) 0.44430(11) 0.5787(3)
C13_2 C 0.0229(4) 0.38357(15) 0.5078(4)
O7_2 O 0.1118(3) 0.38843(11) 0.4443(3)
C14_2 C 0.5081(4) 0.46531(16) 0.5083(4)
Sm4 Sm 0.85715(2) 0.508685(8) 0.61767(2)
C22_2 C 0.1309(5) 0.6899(2) 0.4136(5)
H14_2 H 0.1876 0.6589 0.3994
C23_2 C 0.0722(5) 0.79305(19) 0.4069(5)
H15_2 H 0.0903 0.8322 0.3859
O14 O 0.6156(3) 0.56382(11) 0.5496(3)
C24_2 C 0.0169(4) 0.67816(16) 0.4599(4)
C25_2 C 0.1588(5) 0.7483(2) 0.3889(6)
H16_2 H 0.2365 0.7573 0.3600
O16_2 O 0.0418(3) 0.55886(11) 0.1386(3)
O17_2 O 0.3580(3) 0.55570(11) 0.4213(3)
O21_2 O 0.0350(3) 0.57246(12) 0.4552(3)
C28_2 C 0.4919(4) 0.53469(16) 0.4917(4)
C12_2 C 0.0207(4) 0.46697(16) 0.9972(4)
N4 N 0.3746(4) 0.38411(15) 0.9837(4)
C8_2 C 0.8691(5) 0.3101(2) 0.5864(5)
H6_2 H 0.8124 0.3411 0.6006
C9_2 C 0.9278(5) 0.20695(19) 0.5931(5)
H7_2 H 0.9097 0.1678 0.6141
C10_2 C 0.9831(4) 0.32184(16) 0.5401(4)
C11_2 C 0.8412(5) 0.2517(2) 0.6111(6)
H8_2 H 0.7635 0.2427 0.6400
O8 O 0.9650(3) 0.42754(12) 0.5448(3)
C15_2 C 0.6166(4) 0.43617(16) 0.0853(4)
C17_2 C 0.4846(4) 0.41951(17) 0.0953(5)
H10_2 H 0.4709 0.4334 0.1834
C19_2 C 0.7414(4) 0.47226(16) 0.2189(4)
O10 O 0.7100(3) 0.49674(11) 0.3231(3)
O12_2 O 0.8691(3) 0.47383(13) 0.2166(3)
C21_2 C 0.9364(4) 0.72618(16) 0.4792(5)
H13_2 H 0.8605 0.7184 0.5117
C26_2 C 0.9793(4) 0.53303(16) 0.0028(4)
C27_2 C 0.9771(4) 0.61643(15) 0.4922(4)
O19 O 0.8882(3) 0.61157(11) 0.5557(3)
O5_2 O 0.9582(3) 0.44114(11) 0.8614(3)
O9_2 O 0.8835(3) 0.55598(11) 0.8695(3)
C16_2 C 0.5211(5) 0.38129(19) 0.8352(5)
H9_2 H 0.5304 0.3681 0.7440
C18_2 C 0.3958(5) 0.36566(19) 0.8559(5)
H11_2 H 0.3212 0.3410 0.7779
C20_2 C 0.6338(5) 0.41690(17) 0.9510(4)
H12_2 H 0.7205 0.4279 0.9392
loop_
_geom_bond_atom_site_label_1
_geom_bond_atom_site_label_2
_geom_bond_site_symmetry_1
_geom_bond_site_symmetry_2
Sm2 O9 1_555 1_555
Ag2 O9 1_555 1_555
Ag6 N6 1_555 1_555
O9 C26 1_555 1_555
N5 Ag2 1_555 1_555
N6 C21 1_555 1_555
N8 Ag2 1_555 1_555
O15 Sm2 1_555 1_555
O20 Sm2 1_555 1_555
Ag5 N3 1_555 1_555
N3 C17 1_555 1_555
C15 C17 1_555 1_555
C16 H9 1_555 1_555
C17 H10 1_555 1_555
C18 N3 1_555 1_555
H11 C18 1_555 1_555
C19 C15 1_555 1_555
C20 C15 1_555 1_555
H12 C20 1_555 1_555
C16 C18 1_555 1_555
C16 C20 1_555 1_555
C19 O11 1_555 1_555
C19 O12 1_555 1_555
C8 H6 1_555 1_555
H7 C9 1_555 1_555
C11 C8 1_555 1_555
H8 C11 1_555 1_555
C8 C10 1_555 1_555
C9 C11 1_555 1_555
C22 H14 1_555 1_555
H15 C23 1_555 1_555
C25 C22 1_555 1_555
H16 C25 1_555 1_555
C22 C24 1_555 1_555
C23 C25 1_555 1_555
O17 C28 1_555 1_555
N5 C3 1_555 1_555
C1 C3 1_555 1_555
C2 H1 1_555 1_555
C3 H2 1_555 1_555
C4 N5 1_555 1_555
H3 C4 1_555 1_555
C5 C1 1_555 1_555
C6 C1 1_555 1_555
H4 C6 1_555 1_555
O13 C5 1_555 1_555
C2 C4 1_555 1_555
C2 C6 1_555 1_555
C5 O2 1_555 1_555
Sm1 O1 1_555 1_555
Ag5 O1 1_555 1_555
O1 C12 1_555 1_555
O4 Sm1 1_555 1_555
O7 Sm1 1_555 1_555
N7 Ag5 1_555 1_555
N2 C7 1_555 1_555
O18 C14 1_555 1_555
Ag4 N2 1_555 1_555
C2_2 H1_2 1_555 1_555
C4_2 N1 1_555 1_555
H3_2 C4_2 1_555 1_555
H4_2 C6_2 1_555 1_555
C2_2 C4_2 1_555 1_555
C2_2 C6_2 1_555 1_555
Sm1_2 O1_2 1_555 1_555
Ag6 O1_2 1_555 1_555
C1_2 C3_2 1_555 1_555
C3_2 H2_2 1_555 1_555
C5_2 C1_2 1_555 1_555
O2_2 Sm1_2 1_555 1_555
O3 C5_2 1_555 1_555
N8 C7_2 1_555 1_555
C7_2 H5_2 1_555 1_555
O4_2 Sm1_2 1_555 1_555
O6 C14_2 1_555 1_555
O7_2 Sm1_2 1_555 1_555
C14_2 O4_2 1_555 1_555
Sm4 O6 1_555 1_555
C22_2 H14_2 1_555 1_555
H15_2 C23_2 1_555 1_555
O14 Sm4 1_555 1_555
C25_2 C22_2 1_555 1_555
H16_2 C25_2 1_555 1_555
O16_2 Sm1_2 1_555 1_555
O17_2 Sm1_2 1_555 1_555
O21_2 Sm1_2 1_555 1_555
C28_2 C14_2 1_555 1_555
C5_2 O2_2 1_555 1_555
C13_2 O7_2 1_555 1_555
C22_2 C24_2 1_555 1_555
C23_2 C25_2 1_555 1_555
O14 C28_2 1_555 1_555
O17_2 C28_2 1_555 1_555
C8_2 H6_2 1_555 1_555
H7_2 C9_2 1_555 1_555
C11_2 C8_2 1_555 1_555
H8_2 C11_2 1_555 1_555
C15_2 C17_2 1_555 1_555
C17_2 H10_2 1_555 1_555
C19_2 C15_2 1_555 1_555
O10 Sm4 1_555 1_555
N7 C21_2 1_555 1_555
C21_2 H13_2 1_555 1_555
O19 Sm4 1_555 1_555
C8_2 C10_2 1_555 1_555
C9_2 C11_2 1_555 1_555
O8 Sm4 1_555 1_555
C19_2 O10 1_555 1_555
C19_2 O12_2 1_555 1_555
C27_2 O19 1_555 1_555
O5_2 Sm4 1_555 1_555
Sm4 O9_2 1_555 1_555
Ag4 O9_2 1_555 1_555
C16_2 H9_2 1_555 1_555
C18_2 N4 1_555 1_555
H11_2 C18_2 1_555 1_555
H12_2 C20_2 1_555 1_555
C16_2 C18_2 1_555 1_555
C16_2 C20_2 1_555 1_555

#END
