
###############################################################################
#
# This file contains modified crystal structure data generated from the
# MOF subset of the Cambridge Structural Database (CSD) v543 
# hosted by the Cambridge Crystallographic Data Centre (CCDC).
#
# This work is licensed under the Creative Commons
# Attribution-NonCommercial-ShareAlike 4.0 International License.
# To view a copy of this license, visit
# http://creativecommons.org/licenses/by-nc-sa/4.0/
# or send a letter to
# Creative Commons, PO Box 1866, Mountain View, CA 94042, USA.
#
# CIF created using the CSD Python API on 29 September 2022
# The structure has been converted into the P1 space group
# The structure has a 3D framework
# The original CSD entry HUCXEK is in the monoclinic crystal system
# The framework has been calculated to contain at least 10.0% void space
# The void calculation uses a probe of radius 1.32A, grid spacing 0.4
#
###############################################################################

data_HUCXEK
_chemical_formula_moiety         '(C100 H84 N16 O22 Tb4)n'
_symmetry_cell_setting           triclinic
_symmetry_space_group_name_H-M   'P 1'
_symmetry_Int_Tables_number      1
_space_group_name_Hall           'P 1'
loop_
_symmetry_equiv_pos_site_id
_symmetry_equiv_pos_as_xyz
1 x,y,z
_cell_length_a                   16.2538(5)
_cell_length_b                   8.7093(3)
_cell_length_c                   20.8595(6)
_cell_angle_alpha                90
_cell_angle_beta                 94.891(3)
_cell_angle_gamma                90
_cell_volume                     2942.1
loop_
_atom_site_label
_atom_site_type_symbol
_atom_site_fract_x
_atom_site_fract_y
_atom_site_fract_z
O3 O 0.1792(3) 0.5384(5) 0.8395(2)
O4 O 0.1784(3) 0.2997(5) 0.8016(2)
C15 C 0.1433(4) 0.4149(8) 0.8224(3)
C16 C 0.0509(4) 0.4071(9) 0.8262(3)
C17 C 0.0092(5) 0.5161(10) 0.8588(4)
H9 H 0.0378 0.5943 0.8815
C21 C 0.0074(5) 0.2888(11) 0.7935(4)
H12 H 0.0353 0.2130 0.7725
Tb3 Tb 0.242390(16) 0.22123(4) 0.712416(13)
Tb5 Tb 0.257610(16) 0.72123(4) 0.787584(13)
O1 O 0.1259(3) 0.3573(5) 0.6622(2)
O2 O 0.3693(3) 0.3201(6) 0.7484(2)
O5 O 0.3632(3) 0.5439(5) 0.7989(2)
O6 O 0.2120(2) 0.5330(5) 0.70467(19)
O7 O 0.2784(3) 0.3218(6) 0.6131(2)
N2 N 0.7548(5) 0.4578(10) 0.8402(4)
N3 N 0.7856(5) 0.3605(11) 0.8121(4)
N4 N 0.3514(7) 0.2767(12) 0.5300(5)
C1 C 0.1517(4) 0.4925(7) 0.6657(3)
C2 C 0.1106(4) 0.6089(8) 0.6205(3)
C3 C 0.1487(4) 0.7490(8) 0.6104(3)
H1 H 0.2006 0.7697 0.6309
C4 C 0.1096(4) 0.8576(9) 0.5698(3)
H2 H 0.1354 0.9508 0.5632
C5 C 0.0321(4) 0.8277(9) 0.5391(3)
C7 C 0.0344(4) 0.5755(9) 0.5867(3)
H4 H 0.0099 0.4800 0.5911
C8 C 0.4014(4) 0.4312(8) 0.7798(3)
C9 C 0.4931(4) 0.4263(9) 0.7966(3)
C10 C 0.5319(5) 0.5379(10) 0.8367(4)
H5 H 0.4999 0.6126 0.8545
C11 C 0.6160(5) 0.5403(12) 0.8506(4)
H6 H 0.6407 0.6155 0.8774
C12 C 0.6626(6) 0.4298(14) 0.8241(5)
C13 C 0.6260(6) 0.3122(14) 0.7858(6)
H7 H 0.6582 0.2360 0.7692
C14 C 0.5397(5) 0.3115(11) 0.7729(5)
H8 H 0.5142 0.2332 0.7483
C18 C 0.9223(5) 0.5069(11) 0.8573(4)
H10 H 0.8936 0.5790 0.8796
C19 C 0.8800(6) 0.3940(13) 0.8237(4)
C20 C 0.9218(5) 0.2860(15) 0.7927(5)
H11 H 0.8925 0.2082 0.7704
C22 C 0.3382(6) 0.3357(13) 0.5801(5)
C23 C 0.4125(7) 0.4500(12) 0.6052(5)
H13 H 0.3985 0.5015 0.6435
H14 H 0.4209 0.5245 0.5725
H15 H 0.4622 0.3917 0.6146
C24 C 0.4216(7) 0.2870(13) 0.4910(5)
H16 H 0.4120 0.3674 0.4598
H17 H 0.4282 0.1911 0.4694
H18 H 0.4708 0.3092 0.5183
C25 C 0.2760(9) 0.1752(16) 0.5063(5)
H19 H 0.2863 0.0709 0.5194
H20 H 0.2677 0.1800 0.4602
H21 H 0.2275 0.2122 0.5246
O15 O 0.3208(3) 0.0384(5) 0.6605(2)
O19 O 0.1368(3) 0.0439(5) 0.7011(2)
O21 O 0.2880(2) 0.0330(5) 0.79533(19)
C2_2 C 0.3894(4) 0.1089(8) 0.8795(3)
C3_2 C 0.3513(4) 0.2490(8) 0.8896(3)
H1_2 H 0.2994 0.2697 0.8691
C4_2 C 0.3904(4) 0.3576(9) 0.9302(3)
H2_2 H 0.3646 0.4508 0.9368
C5_2 C 0.4679(4) 0.3277(9) 0.9609(3)
C6 C 0.5039(5) 0.1845(9) 0.9532(4)
H3 H 0.5546 0.1623 0.9753
C7_2 C 0.4656(4) 0.0755(9) 0.9133(3)
H5_2 H 0.0001 0.1126 0.6455
H13_2 H 0.1015 0.0015 0.8565
H14_2 H 0.0791 0.0245 0.9275
N5 N 0.4852(4) 0.5659(7) 0.9991(3)
O1_2 O 0.3741(3) 0.8573(5) 0.8378(2)
O2_2 O 0.1307(3) 0.8201(6) 0.7516(2)
O7_2 O 0.2216(3) 0.8218(6) 0.8869(2)
N4_2 N 0.1486(7) 0.7767(12) 0.9700(5)
C1_2 C 0.3483(4) 0.9925(7) 0.8343(3)
H4_2 H 0.4901 0.9800 0.9089
C8_2 C 0.0986(4) 0.9312(8) 0.7202(3)
C9_2 C 0.0069(4) 0.9263(9) 0.7034(3)
C22_2 C 0.1618(6) 0.8357(13) 0.9199(5)
C23_2 C 0.0875(7) 0.9500(12) 0.8948(5)
H15_2 H 0.0378 0.8917 0.8854
H18_2 H 0.0292 0.8092 0.9817
C25_2 C 0.2240(9) 0.6752(16) 0.9937(5)
H19_2 H 0.2137 0.5709 0.9806
H21_2 H 0.2725 0.7122 0.9754
O17 O 0.3216(3) 0.7997(5) 0.6984(2)
C10_2 C 0.9681(5) 0.0379(10) 0.6633(4)
C11_2 C 0.8840(5) 0.0403(12) 0.6494(4)
H6_2 H 0.8593 0.1155 0.6226
C17_2 C 0.4908(5) 0.0161(10) 0.6412(4)
H9_2 H 0.4622 0.0943 0.6185
C18_2 C 0.5777(5) 0.0069(11) 0.6427(4)
H10_2 H 0.6064 0.0790 0.6204
N2_2 N 0.7452(5) 0.9578(10) 0.6598(4)
N3_2 N 0.7144(5) 0.8605(11) 0.6879(4)
C12_2 C 0.8374(6) 0.9298(14) 0.6759(5)
C13_2 C 0.8740(6) 0.8122(14) 0.7142(6)
H7_2 H 0.8418 0.7360 0.7308
C14_2 C 0.9603(5) 0.8115(11) 0.7271(5)
H8_2 H 0.9858 0.7332 0.7517
C15_2 C 0.3567(4) 0.9149(8) 0.6776(3)
C16_2 C 0.4491(4) 0.9071(9) 0.6738(3)
C19_2 C 0.6200(6) 0.8940(13) 0.6763(4)
C20_2 C 0.5782(5) 0.7860(15) 0.7073(5)
H11_2 H 0.6075 0.7082 0.7296
C21_2 C 0.4926(5) 0.7888(11) 0.7065(4)
H12_2 H 0.4647 0.7130 0.7275
N5_2 N 0.0148(4) 0.0659(7) 0.5009(3)
C31 C 0.0039(5) 0.3155(9) 0.4532(4)
H24 H 0.0546 0.3377 0.4753
O8 O 0.8741(3) 0.6427(5) 0.3378(2)
C26 C 0.8483(4) 0.5075(7) 0.3343(3)
C27 C 0.8894(4) 0.3911(8) 0.3795(3)
C28 C 0.8513(4) 0.2510(8) 0.3896(3)
H22 H 0.7994 0.2303 0.3691
C29 C 0.8904(4) 0.1424(9) 0.4302(3)
H23 H 0.8646 0.0492 0.4368
C30 C 0.9679(4) 0.1723(9) 0.4609(3)
C32 C 0.9656(4) 0.4245(9) 0.4133(3)
H25 H 0.9901 0.5200 0.4089
O9 O 0.7880(2) 0.4670(5) 0.29533(19)
Tb2 Tb 0.757610(16) 0.77877(4) 0.287584(13)
O10 O 0.6307(3) 0.6799(6) 0.2516(2)
O13 O 0.6368(3) 0.4561(5) 0.2011(2)
O14 O 0.7216(3) 0.6782(6) 0.3869(2)
N6 N 0.2452(5) 0.5422(10) 0.1598(4)
N7 N 0.2144(5) 0.6395(11) 0.1879(4)
N8 N 0.6486(7) 0.7233(12) 0.4700(5)
C33 C 0.5986(4) 0.5688(8) 0.2202(3)
C34 C 0.5069(4) 0.5737(9) 0.2034(3)
C35 C 0.4681(5) 0.4621(10) 0.1633(4)
H26 H 0.5001 0.3874 0.1455
C36 C 0.3840(5) 0.4597(12) 0.1494(4)
H27 H 0.3593 0.3845 0.1226
C37 C 0.3374(6) 0.5702(14) 0.1759(5)
C38 C 0.3740(6) 0.6878(14) 0.2142(6)
H28 H 0.3418 0.7640 0.2308
C39 C 0.4603(5) 0.6885(11) 0.2271(5)
H29 H 0.4858 0.7668 0.2517
C43 C 0.0777(5) 0.4931(11) 0.1427(4)
H31 H 0.1064 0.4210 0.1204
C44 C 0.1200(6) 0.6060(13) 0.1763(4)
C45 C 0.0782(5) 0.7140(15) 0.2073(5)
H32 H 0.1075 0.7918 0.2296
C47 C 0.6618(6) 0.6643(13) 0.4199(5)
C48 C 0.5875(7) 0.5500(12) 0.3948(5)
H34 H 0.6015 0.4985 0.3565
H35 H 0.5791 0.4755 0.4275
H36 H 0.5378 0.6083 0.3854
C49 C 0.5784(7) 0.7130(13) 0.5090(5)
H37 H 0.5880 0.6326 0.5402
H38 H 0.5718 0.8089 0.5306
H39 H 0.5292 0.6908 0.4817
C50 C 0.7240(9) 0.8248(16) 0.4937(5)
H40 H 0.7137 0.9291 0.4806
H41 H 0.7323 0.8200 0.5398
H42 H 0.7725 0.7878 0.4754
Tb8 Tb 0.742390(16) 0.27877(4) 0.212416(13)
O16 O 0.6792(3) 0.9616(5) 0.3395(2)
O18 O 0.8216(3) 0.7003(5) 0.1984(2)
O20 O 0.8632(3) 0.9561(5) 0.2989(2)
O22 O 0.7120(2) 0.9670(5) 0.20467(19)
O11 O 0.8208(3) 0.4616(5) 0.1605(2)
C40 C 0.8567(4) 0.5851(8) 0.1776(3)
C41 C 0.9491(4) 0.5929(9) 0.1738(3)
C42 C 0.9908(5) 0.4839(10) 0.1412(4)
H30 H 0.9622 0.4057 0.1185
C46 C 0.9926(5) 0.7112(11) 0.2065(4)
H33 H 0.9647 0.7870 0.2275
O12 O 0.6784(3) 0.2003(5) 0.3016(2)
N6_2 N 0.2548(5) 0.0422(10) 0.3402(4)
N7_2 N 0.2856(5) 0.1395(11) 0.3121(4)
C37_2 C 0.1626(6) 0.0702(14) 0.3241(5)
C38_2 C 0.1260(6) 0.1878(14) 0.2858(6)
H28_2 H 0.1582 0.2640 0.2692
C39_2 C 0.0397(5) 0.1885(11) 0.2729(5)
H29_2 H 0.0142 0.2668 0.2483
C40_2 C 0.6433(4) 0.0851(8) 0.3224(3)
C41_2 C 0.5509(4) 0.0929(9) 0.3262(3)
C44_2 C 0.3800(6) 0.1060(13) 0.3237(4)
C45_2 C 0.4218(5) 0.2140(15) 0.2927(5)
H32_2 H 0.3925 0.2918 0.2704
C46_2 C 0.5074(5) 0.2112(11) 0.2935(4)
H33_2 H 0.5353 0.2870 0.2725
C35_2 C 0.0319(5) 0.9621(10) 0.3367(4)
C36_2 C 0.1160(5) 0.9597(12) 0.3506(4)
H27_2 H 0.1407 0.8845 0.3774
C42_2 C 0.5092(5) 0.9839(10) 0.3588(4)
H30_2 H 0.5378 0.9057 0.3815
C43_2 C 0.4223(5) 0.9931(11) 0.3573(4)
H31_2 H 0.3936 0.9210 0.3796
O8_2 O 0.6259(3) 0.1427(5) 0.1622(2)
C26_2 C 0.6517(4) 0.0075(7) 0.1657(3)
H25_2 H 0.5099 0.0200 0.0911
O10_2 O 0.8693(3) 0.1799(6) 0.2484(2)
O14_2 O 0.7784(3) 0.1782(6) 0.1131(2)
N8_2 N 0.8514(7) 0.2233(12) 0.0300(5)
C33_2 C 0.9014(4) 0.0688(8) 0.2798(3)
C34_2 C 0.9931(4) 0.0737(9) 0.2966(3)
C47_2 C 0.8382(6) 0.1643(13) 0.0801(5)
C48_2 C 0.9125(7) 0.0500(12) 0.1052(5)
H36_2 H 0.9622 0.1083 0.1146
H39_2 H 0.9708 0.1908 0.0183
C50_2 C 0.7760(9) 0.3248(16) 0.0063(5)
H40_2 H 0.7863 0.4291 0.0194
H42_2 H 0.7275 0.2878 0.0246
N1 N 0.5148(4) 0.4341(7) 0.0009(3)
C27_2 C 0.6106(4) 0.8911(8) 0.1205(3)
C28_2 C 0.6487(4) 0.7510(8) 0.1104(3)
H22_2 H 0.7006 0.7303 0.1309
C29_2 C 0.6096(4) 0.6424(9) 0.0698(3)
H23_2 H 0.6354 0.5492 0.0632
C30_2 C 0.5321(4) 0.6723(9) 0.0391(3)
C31_2 C 0.4961(5) 0.8155(9) 0.0468(4)
H24_2 H 0.4454 0.8377 0.0247
C32_2 C 0.5344(4) 0.9245(9) 0.0867(3)
H26_2 H 0.9999 0.8874 0.3545
H34_2 H 0.8985 0.9985 0.1435
H35_2 H 0.9209 0.9755 0.0725
N1_2 N 0.9852(4) 0.9341(7) 0.4991(3)
C6_2 C 0.9961(5) 0.6845(9) 0.5468(4)
H3_2 H 0.9454 0.6623 0.5247
C49_2 C 0.9216(7) 0.2130(13) 0.9910(5)
H37_2 H 0.9120 0.1326 0.9598
H38_2 H 0.9282 0.3089 0.9694
H41_2 H 0.7677 0.3200 0.9602
C24_2 C 0.0784(7) 0.7870(13) 0.0090(5)
H16_2 H 0.0880 0.8674 0.0402
H17_2 H 0.0718 0.6911 0.0306
H20_2 H 0.2323 0.6800 0.0398
loop_
_geom_bond_atom_site_label_1
_geom_bond_atom_site_label_2
_geom_bond_site_symmetry_1
_geom_bond_site_symmetry_2
O3 C15 1_555 1_555
O4 C15 1_555 1_555
C15 C16 1_555 1_555
C16 C17 1_555 1_555
C17 H9 1_555 1_555
C21 C16 1_555 1_555
H12 C21 1_555 1_555
Tb3 O4 1_555 1_555
Tb5 O3 1_555 1_555
Tb3 O1 1_555 1_555
O1 C1 1_555 1_555
O2 Tb3 1_555 1_555
O5 C8 1_555 1_555
O6 Tb3 1_555 1_555
O7 Tb3 1_555 1_555
N2 N3 1_555 1_555
N3 C19 1_555 1_555
N4 C22 1_555 1_555
C1 O6 1_555 1_555
C2 C1 1_555 1_555
C3 C2 1_555 1_555
H1 C3 1_555 1_555
C4 C3 1_555 1_555
H2 C4 1_555 1_555
C5 C4 1_555 1_555
C7 C2 1_555 1_555
H4 C7 1_555 1_555
C8 O2 1_555 1_555
C9 C8 1_555 1_555
C10 C9 1_555 1_555
H5 C10 1_555 1_555
C11 C10 1_555 1_555
H6 C11 1_555 1_555
C12 N2 1_555 1_555
C13 C12 1_555 1_555
H7 C13 1_555 1_555
C14 C9 1_555 1_555
H8 C14 1_555 1_555
H10 C18 1_555 1_555
C19 C18 1_555 1_555
C20 C19 1_555 1_555
H11 C20 1_555 1_555
C22 O7 1_555 1_555
C23 C22 1_555 1_555
H13 C23 1_555 1_555
H14 C23 1_555 1_555
H15 C23 1_555 1_555
C24 N4 1_555 1_555
H16 C24 1_555 1_555
H17 C24 1_555 1_555
H18 C24 1_555 1_555
C25 N4 1_555 1_555
H19 C25 1_555 1_555
H20 C25 1_555 1_555
H21 C25 1_555 1_555
Tb5 O5 1_555 1_555
O15 Tb3 1_555 1_555
O19 Tb3 1_555 1_555
O21 Tb3 1_555 1_555
O6 Tb5 1_555 1_555
C11 C12 1_555 1_555
C13 C14 1_555 1_555
C3_2 C2_2 1_555 1_555
H1_2 C3_2 1_555 1_555
C4_2 C3_2 1_555 1_555
H2_2 C4_2 1_555 1_555
C5_2 C4_2 1_555 1_555
C6 C5_2 1_555 1_555
H3 C6 1_555 1_555
C7_2 C2_2 1_555 1_555
C6 C7_2 1_555 1_555
Tb5 O1_2 1_555 1_555
O1_2 C1_2 1_555 1_555
O2_2 Tb5 1_555 1_555
O7_2 Tb5 1_555 1_555
N4_2 C22_2 1_555 1_555
C8_2 O2_2 1_555 1_555
C9_2 C8_2 1_555 1_555
C22_2 O7_2 1_555 1_555
C23_2 C22_2 1_555 1_555
H15_2 C23_2 1_555 1_555
C25_2 N4_2 1_555 1_555
H19_2 C25_2 1_555 1_555
H21_2 C25_2 1_555 1_555
O17 Tb5 1_555 1_555
C11_2 C10_2 1_555 1_555
H6_2 C11_2 1_555 1_555
C17_2 H9_2 1_555 1_555
C18_2 C17_2 1_555 1_555
H10_2 C18_2 1_555 1_555
O17 C15_2 1_555 1_555
N2_2 N3_2 1_555 1_555
N3_2 C19_2 1_555 1_555
C12_2 N2_2 1_555 1_555
C13_2 C12_2 1_555 1_555
H7_2 C13_2 1_555 1_555
H8_2 C14_2 1_555 1_555
C15_2 C16_2 1_555 1_555
C20_2 C19_2 1_555 1_555
H11_2 C20_2 1_555 1_555
C21_2 C16_2 1_555 1_555
H12_2 C21_2 1_555 1_555
C13_2 C14_2 1_555 1_555
C20_2 C21_2 1_555 1_555
H24 C31 1_555 1_555
O8 C26 1_555 1_555
C26 C27 1_555 1_555
C27 C28 1_555 1_555
C28 H22 1_555 1_555
C29 C28 1_555 1_555
H23 C29 1_555 1_555
C32 C27 1_555 1_555
H25 C32 1_555 1_555
O9 C26 1_555 1_555
Tb2 O8 1_555 1_555
O10 Tb2 1_555 1_555
O13 C33 1_555 1_555
O14 Tb2 1_555 1_555
N6 N7 1_555 1_555
N7 C44 1_555 1_555
N8 C47 1_555 1_555
C33 O10 1_555 1_555
C34 C33 1_555 1_555
C35 C34 1_555 1_555
H26 C35 1_555 1_555
C36 C35 1_555 1_555
H27 C36 1_555 1_555
C37 N6 1_555 1_555
C38 C37 1_555 1_555
H28 C38 1_555 1_555
C39 C34 1_555 1_555
H29 C39 1_555 1_555
H31 C43 1_555 1_555
C44 C43 1_555 1_555
C45 C44 1_555 1_555
H32 C45 1_555 1_555
C47 O14 1_555 1_555
C48 C47 1_555 1_555
H34 C48 1_555 1_555
H35 C48 1_555 1_555
H36 C48 1_555 1_555
C49 N8 1_555 1_555
H37 C49 1_555 1_555
H38 C49 1_555 1_555
H39 C49 1_555 1_555
C50 N8 1_555 1_555
H40 C50 1_555 1_555
H41 C50 1_555 1_555
H42 C50 1_555 1_555
Tb8 O9 1_555 1_555
O16 Tb2 1_555 1_555
O18 Tb2 1_555 1_555
O20 Tb2 1_555 1_555
O22 Tb2 1_555 1_555
C29 C30 1_555 1_555
O9 Tb2 1_555 1_555
O13 Tb8 1_555 1_555
C36 C37 1_555 1_555
C38 C39 1_555 1_555
O11 C40 1_555 1_555
O18 C40 1_555 1_555
C40 C41 1_555 1_555
C41 C42 1_555 1_555
C42 H30 1_555 1_555
C46 C41 1_555 1_555
H33 C46 1_555 1_555
Tb8 O11 1_555 1_555
O12 C40_2 1_555 1_555
N6_2 N7_2 1_555 1_555
N7_2 C44_2 1_555 1_555
C37_2 N6_2 1_555 1_555
C38_2 C37_2 1_555 1_555
H28_2 C38_2 1_555 1_555
H29_2 C39_2 1_555 1_555
C40_2 C41_2 1_555 1_555
C45_2 C44_2 1_555 1_555
H32_2 C45_2 1_555 1_555
C46_2 C41_2 1_555 1_555
H33_2 C46_2 1_555 1_555
Tb8 O12 1_555 1_555
C38_2 C39_2 1_555 1_555
C45_2 C46_2 1_555 1_555
C36_2 C35_2 1_555 1_555
H27_2 C36_2 1_555 1_555
C42_2 H30_2 1_555 1_555
C43_2 C42_2 1_555 1_555
H31_2 C43_2 1_555 1_555
O8_2 C26_2 1_555 1_555
Tb8 O8_2 1_555 1_555
O10_2 Tb8 1_555 1_555
O14_2 Tb8 1_555 1_555
N8_2 C47_2 1_555 1_555
C33_2 O10_2 1_555 1_555
C34_2 C33_2 1_555 1_555
C47_2 O14_2 1_555 1_555
C48_2 C47_2 1_555 1_555
H36_2 C48_2 1_555 1_555
C50_2 N8_2 1_555 1_555
H40_2 C50_2 1_555 1_555
H42_2 C50_2 1_555 1_555
C27_2 C28_2 1_555 1_555
C28_2 H22_2 1_555 1_555
C29_2 C28_2 1_555 1_555
H23_2 C29_2 1_555 1_555
C31_2 C30_2 1_555 1_555
H24_2 C31_2 1_555 1_555
C32_2 C27_2 1_555 1_555
C29_2 C30_2 1_555 1_555
C31_2 C32_2 1_555 1_555
H3_2 C6_2 1_555 1_555
H37_2 C49_2 1_555 1_555
H38_2 C49_2 1_555 1_555
H16_2 C24_2 1_555 1_555
H17_2 C24_2 1_555 1_555

#END
