
###############################################################################
#
# This file contains modified crystal structure data generated from the
# MOF subset of the Cambridge Structural Database (CSD) v543 
# hosted by the Cambridge Crystallographic Data Centre (CCDC).
#
# This work is licensed under the Creative Commons
# Attribution-NonCommercial-ShareAlike 4.0 International License.
# To view a copy of this license, visit
# http://creativecommons.org/licenses/by-nc-sa/4.0/
# or send a letter to
# Creative Commons, PO Box 1866, Mountain View, CA 94042, USA.
#
# CIF created using the CSD Python API on 29 September 2022
# The structure has been converted into the P1 space group
# The structure has a 3D framework
# The original CSD entry HUCXOU is in the monoclinic crystal system
# The framework has been calculated to contain at least 10.0% void space
# The void calculation uses a probe of radius 1.32A, grid spacing 0.4
#
###############################################################################

data_HUCXOU
_chemical_formula_moiety         '(C100 H84 Ho4 N16 O22)n'
_symmetry_cell_setting           triclinic
_symmetry_space_group_name_H-M   'P 1'
_symmetry_Int_Tables_number      1
_space_group_name_Hall           'P 1'
loop_
_symmetry_equiv_pos_site_id
_symmetry_equiv_pos_as_xyz
1 x,y,z
_cell_length_a                   16.1925(5)
_cell_length_b                   8.6926(3)
_cell_length_c                   20.8815(6)
_cell_angle_alpha                90
_cell_angle_beta                 94.797(3)
_cell_angle_gamma                90
_cell_volume                     2928.88
loop_
_atom_site_label
_atom_site_type_symbol
_atom_site_fract_x
_atom_site_fract_y
_atom_site_fract_z
O3 O 0.1783(3) 0.5415(5) 0.8379(2)
O4 O 0.1788(3) 0.3021(5) 0.8003(2)
C15 C 0.1429(4) 0.4184(7) 0.8211(3)
C16 C 0.0514(4) 0.4078(8) 0.8254(3)
C17 C 0.0084(5) 0.5163(9) 0.8585(4)
H9 H 0.0368 0.5945 0.8813
C21 C 0.0072(6) 0.2911(11) 0.7922(4)
H12 H 0.0353 0.2171 0.7703
Ho3 Ho 0.242991(17) 0.22276(3) 0.712917(13)
Ho5 Ho 0.257009(17) 0.72276(3) 0.787083(13)
O1 O 0.1287(3) 0.3598(5) 0.6630(2)
O2 O 0.3672(3) 0.3246(5) 0.7491(2)
O5 O 0.3619(3) 0.5482(5) 0.7997(2)
O6 O 0.2138(3) 0.5369(5) 0.7052(2)
O7 O 0.2792(3) 0.3212(6) 0.6146(2)
N2 N 0.7550(5) 0.4588(9) 0.8410(4)
N3 N 0.7839(5) 0.3605(10) 0.8113(4)
N4 N 0.3518(6) 0.2772(10) 0.5309(4)
C1 C 0.1534(4) 0.4954(7) 0.6663(3)
C2 C 0.1120(4) 0.6110(7) 0.6205(3)
C3 C 0.1493(4) 0.7518(7) 0.6100(3)
H1 H 0.2014 0.7730 0.6302
C4 C 0.1102(4) 0.8602(7) 0.5701(3)
H2 H 0.1352 0.9548 0.5640
C5 C 0.0329(5) 0.8265(8) 0.5391(3)
C7 C 0.0359(5) 0.5772(8) 0.5878(3)
H4 H 0.0111 0.4823 0.5936
C8 C 0.4000(4) 0.4341(7) 0.7811(3)
C9 C 0.4913(4) 0.4282(8) 0.7984(3)
C10 C 0.5306(5) 0.5411(9) 0.8375(4)
H5 H 0.4993 0.6185 0.8544
C11 C 0.6147(5) 0.5393(11) 0.8511(4)
H6 H 0.6398 0.6129 0.8786
C12 C 0.6612(7) 0.4319(12) 0.8252(5)
C13 C 0.6244(5) 0.3142(11) 0.7874(5)
H7 H 0.6569 0.2370 0.7716
C14 C 0.5383(5) 0.3127(10) 0.7734(5)
H8 H 0.5130 0.2357 0.7477
C18 C 0.9213(6) 0.5067(10) 0.8570(4)
H10 H 0.8925 0.5784 0.8795
C19 C 0.8790(6) 0.3937(12) 0.8231(4)
C20 C 0.9221(6) 0.2849(11) 0.7917(5)
H11 H 0.8934 0.2056 0.7697
C22 C 0.3389(6) 0.3358(11) 0.5808(4)
C23 C 0.4120(7) 0.4517(12) 0.6064(5)
H13 H 0.3953 0.5080 0.6427
H14 H 0.4230 0.5222 0.5728
H15 H 0.4612 0.3938 0.6189
C24 C 0.4219(8) 0.2879(13) 0.4917(5)
H16 H 0.4096 0.3611 0.4578
H17 H 0.4321 0.1890 0.4734
H18 H 0.4702 0.3205 0.5180
C25 C 0.2768(9) 0.1741(17) 0.5086(5)
H19 H 0.2906 0.0683 0.5172
H20 H 0.2632 0.1879 0.4634
H21 H 0.2301 0.2023 0.5315
O15 O 0.3217(3) 0.0415(5) 0.6621(2)
O19 O 0.1381(3) 0.0482(5) 0.7003(2)
O21 O 0.2862(3) 0.0369(5) 0.7948(2)
C2_2 C 0.3880(4) 0.1110(7) 0.8795(3)
C3_2 C 0.3507(4) 0.2518(7) 0.8900(3)
H1_2 H 0.2986 0.2730 0.8698
C4_2 C 0.3898(4) 0.3602(7) 0.9299(3)
H2_2 H 0.3648 0.4548 0.9360
C5_2 C 0.4671(5) 0.3265(8) 0.9609(3)
C6 C 0.5030(5) 0.1843(8) 0.9534(4)
H3 H 0.5533 0.1605 0.9759
C7_2 C 0.4641(5) 0.0772(8) 0.9122(3)
H5_2 H 0.0007 0.1185 0.6456
H13_2 H 0.1047 0.0080 0.8573
H14_2 H 0.0770 0.0222 0.9272
N5 N 0.4857(4) 0.5669(6) 0.9991(3)
O1_2 O 0.3713(3) 0.8598(5) 0.8370(2)
O2_2 O 0.1328(3) 0.8246(5) 0.7509(2)
O7_2 O 0.2208(3) 0.8212(6) 0.8854(2)
N4_2 N 0.1482(6) 0.7772(10) 0.9691(4)
C1_2 C 0.3466(4) 0.9954(7) 0.8337(3)
H4_2 H 0.4889 0.9823 0.9064
C8_2 C 0.1000(4) 0.9341(7) 0.7189(3)
C9_2 C 0.0087(4) 0.9282(8) 0.7016(3)
C22_2 C 0.1611(6) 0.8358(11) 0.9192(4)
C23_2 C 0.0880(7) 0.9517(12) 0.8936(5)
H15_2 H 0.0388 0.8938 0.8811
H18_2 H 0.0298 0.8205 0.9820
C25_2 C 0.2232(9) 0.6741(17) 0.9914(5)
H19_2 H 0.2094 0.5683 0.9828
H21_2 H 0.2699 0.7023 0.9685
O17 O 0.3212(3) 0.8021(5) 0.6997(2)
C10_2 C 0.9694(5) 0.0411(9) 0.6625(4)
C11_2 C 0.8853(5) 0.0393(11) 0.6489(4)
H6_2 H 0.8602 0.1129 0.6214
C17_2 C 0.4916(5) 0.0163(9) 0.6415(4)
H9_2 H 0.4632 0.0945 0.6187
C18_2 C 0.5787(6) 0.0067(10) 0.6430(4)
H10_2 H 0.6075 0.0784 0.6205
N2_2 N 0.7450(5) 0.9588(9) 0.6590(4)
N3_2 N 0.7161(5) 0.8605(10) 0.6887(4)
C12_2 C 0.8388(7) 0.9319(12) 0.6748(5)
C13_2 C 0.8756(5) 0.8142(11) 0.7126(5)
H7_2 H 0.8431 0.7370 0.7284
C14_2 C 0.9617(5) 0.8127(10) 0.7266(5)
H8_2 H 0.9870 0.7357 0.7523
C15_2 C 0.3571(4) 0.9184(7) 0.6789(3)
C16_2 C 0.4486(4) 0.9078(8) 0.6746(3)
C19_2 C 0.6210(6) 0.8937(12) 0.6769(4)
C20_2 C 0.5779(6) 0.7849(11) 0.7083(5)
H11_2 H 0.6066 0.7056 0.7303
C21_2 C 0.4928(6) 0.7911(11) 0.7078(4)
H12_2 H 0.4647 0.7171 0.7297
N5_2 N 0.0143(4) 0.0669(6) 0.5009(3)
C31 C 0.0030(5) 0.3157(8) 0.4534(4)
H24 H 0.0533 0.3395 0.4759
O8 O 0.8713(3) 0.6402(5) 0.3370(2)
C26 C 0.8466(4) 0.5046(7) 0.3337(3)
C27 C 0.8880(4) 0.3890(7) 0.3795(3)
C28 C 0.8507(4) 0.2482(7) 0.3900(3)
H22 H 0.7986 0.2270 0.3698
C29 C 0.8898(4) 0.1398(7) 0.4299(3)
H23 H 0.8648 0.0452 0.4360
C30 C 0.9671(5) 0.1735(8) 0.4609(3)
C32 C 0.9641(5) 0.4228(8) 0.4122(3)
H25 H 0.9889 0.5177 0.4064
O9 O 0.7862(3) 0.4631(5) 0.2948(2)
Ho2 Ho 0.757009(17) 0.77724(3) 0.287083(13)
O10 O 0.6328(3) 0.6754(5) 0.2509(2)
O13 O 0.6381(3) 0.4518(5) 0.2003(2)
O14 O 0.7208(3) 0.6788(6) 0.3854(2)
N6 N 0.2450(5) 0.5412(9) 0.1590(4)
N7 N 0.2161(5) 0.6395(10) 0.1887(4)
N8 N 0.6482(6) 0.7228(10) 0.4691(4)
C33 C 0.6000(4) 0.5659(7) 0.2189(3)
C34 C 0.5087(4) 0.5718(8) 0.2016(3)
C35 C 0.4694(5) 0.4589(9) 0.1625(4)
H26 H 0.5007 0.3815 0.1456
C36 C 0.3853(5) 0.4607(11) 0.1489(4)
H27 H 0.3602 0.3871 0.1214
C37 C 0.3388(7) 0.5681(12) 0.1748(5)
C38 C 0.3756(5) 0.6858(11) 0.2126(5)
H28 H 0.3431 0.7630 0.2284
C39 C 0.4617(5) 0.6873(10) 0.2266(5)
H29 H 0.4870 0.7643 0.2523
C43 C 0.0787(6) 0.4933(10) 0.1430(4)
H31 H 0.1075 0.4216 0.1205
C44 C 0.1210(6) 0.6063(12) 0.1769(4)
C45 C 0.0779(6) 0.7151(11) 0.2083(5)
H32 H 0.1066 0.7944 0.2303
C47 C 0.6611(6) 0.6642(11) 0.4192(4)
C48 C 0.5880(7) 0.5483(12) 0.3936(5)
H34 H 0.6047 0.4920 0.3573
H35 H 0.5770 0.4778 0.4272
H36 H 0.5388 0.6062 0.3811
C49 C 0.5781(8) 0.7121(13) 0.5083(5)
H37 H 0.5904 0.6389 0.5422
H38 H 0.5679 0.8110 0.5266
H39 H 0.5298 0.6795 0.4820
C50 C 0.7232(9) 0.8259(17) 0.4914(5)
H40 H 0.7094 0.9317 0.4828
H41 H 0.7368 0.8121 0.5366
H42 H 0.7699 0.7977 0.4685
Ho8 Ho 0.742991(17) 0.27724(3) 0.212917(13)
O16 O 0.6783(3) 0.9585(5) 0.3379(2)
O18 O 0.8212(3) 0.6979(5) 0.1997(2)
O20 O 0.8619(3) 0.9518(5) 0.2997(2)
O22 O 0.7138(3) 0.9631(5) 0.2052(2)
O11 O 0.8217(3) 0.4585(5) 0.1621(2)
C40 C 0.8571(4) 0.5816(7) 0.1789(3)
C41 C 0.9486(4) 0.5922(8) 0.1746(3)
C42 C 0.9916(5) 0.4837(9) 0.1415(4)
H30 H 0.9632 0.4055 0.1187
C46 C 0.9928(6) 0.7089(11) 0.2078(4)
H33 H 0.9647 0.7829 0.2297
O12 O 0.6788(3) 0.1979(5) 0.3003(2)
N6_2 N 0.2550(5) 0.0412(9) 0.3410(4)
N7_2 N 0.2839(5) 0.1395(10) 0.3113(4)
C37_2 C 0.1612(7) 0.0681(12) 0.3252(5)
C38_2 C 0.1244(5) 0.1858(11) 0.2874(5)
H28_2 H 0.1569 0.2630 0.2716
C39_2 C 0.0383(5) 0.1873(10) 0.2734(5)
H29_2 H 0.0130 0.2643 0.2477
C40_2 C 0.6429(4) 0.0816(7) 0.3211(3)
C41_2 C 0.5514(4) 0.0922(8) 0.3254(3)
C44_2 C 0.3790(6) 0.1063(12) 0.3231(4)
C45_2 C 0.4221(6) 0.2151(11) 0.2917(5)
H32_2 H 0.3934 0.2944 0.2697
C46_2 C 0.5072(6) 0.2089(11) 0.2922(4)
H33_2 H 0.5353 0.2829 0.2703
C35_2 C 0.0306(5) 0.9589(9) 0.3375(4)
C36_2 C 0.1147(5) 0.9607(11) 0.3511(4)
H27_2 H 0.1398 0.8871 0.3786
C42_2 C 0.5084(5) 0.9837(9) 0.3585(4)
H30_2 H 0.5368 0.9055 0.3813
C43_2 C 0.4213(6) 0.9933(10) 0.3570(4)
H31_2 H 0.3925 0.9216 0.3795
O8_2 O 0.6287(3) 0.1402(5) 0.1630(2)
C26_2 C 0.6534(4) 0.0046(7) 0.1663(3)
H25_2 H 0.5111 0.0177 0.0936
O10_2 O 0.8672(3) 0.1754(5) 0.2491(2)
O14_2 O 0.7792(3) 0.1788(6) 0.1146(2)
N8_2 N 0.8518(6) 0.2228(10) 0.0309(4)
C33_2 C 0.9000(4) 0.0659(7) 0.2811(3)
C34_2 C 0.9913(4) 0.0718(8) 0.2984(3)
C47_2 C 0.8389(6) 0.1642(11) 0.0808(4)
C48_2 C 0.9120(7) 0.0483(12) 0.1064(5)
H36_2 H 0.9612 0.1062 0.1189
H39_2 H 0.9702 0.1795 0.0180
C50_2 C 0.7768(9) 0.3259(17) 0.0086(5)
H40_2 H 0.7906 0.4317 0.0172
H42_2 H 0.7301 0.2977 0.0315
N1 N 0.5143(4) 0.4331(6) 0.0009(3)
C27_2 C 0.6120(4) 0.8890(7) 0.1205(3)
C28_2 C 0.6493(4) 0.7482(7) 0.1100(3)
H22_2 H 0.7014 0.7270 0.1302
C29_2 C 0.6102(4) 0.6398(7) 0.0701(3)
H23_2 H 0.6352 0.5452 0.0640
C30_2 C 0.5329(5) 0.6735(8) 0.0391(3)
C31_2 C 0.4970(5) 0.8157(8) 0.0466(4)
H24_2 H 0.4467 0.8395 0.0241
C32_2 C 0.5359(5) 0.9228(8) 0.0878(3)
H26_2 H 0.9993 0.8815 0.3544
H34_2 H 0.8953 0.9920 0.1427
H35_2 H 0.9230 0.9778 0.0728
N1_2 N 0.9857(4) 0.9331(6) 0.4991(3)
C6_2 C 0.9970(5) 0.6843(8) 0.5466(4)
H3_2 H 0.9467 0.6605 0.5241
C49_2 C 0.9219(8) 0.2121(13) 0.9917(5)
H37_2 H 0.9096 0.1389 0.9578
H38_2 H 0.9321 0.3110 0.9734
H41_2 H 0.7632 0.3121 0.9634
C24_2 C 0.0781(8) 0.7879(13) 0.0083(5)
H16_2 H 0.0904 0.8611 0.0422
H17_2 H 0.0679 0.6890 0.0266
H20_2 H 0.2368 0.6879 0.0366
loop_
_geom_bond_atom_site_label_1
_geom_bond_atom_site_label_2
_geom_bond_site_symmetry_1
_geom_bond_site_symmetry_2
O3 C15 1_555 1_555
O4 C15 1_555 1_555
C15 C16 1_555 1_555
C16 C17 1_555 1_555
C17 H9 1_555 1_555
C21 C16 1_555 1_555
H12 C21 1_555 1_555
Ho3 O4 1_555 1_555
Ho5 O3 1_555 1_555
Ho3 O1 1_555 1_555
O1 C1 1_555 1_555
O2 Ho3 1_555 1_555
O5 C8 1_555 1_555
O6 Ho3 1_555 1_555
O7 Ho3 1_555 1_555
N2 N3 1_555 1_555
N3 C19 1_555 1_555
N4 C22 1_555 1_555
C1 O6 1_555 1_555
C2 C1 1_555 1_555
C3 C2 1_555 1_555
H1 C3 1_555 1_555
C4 C3 1_555 1_555
H2 C4 1_555 1_555
C5 C4 1_555 1_555
C7 C2 1_555 1_555
H4 C7 1_555 1_555
C8 O2 1_555 1_555
C9 C8 1_555 1_555
C10 C9 1_555 1_555
H5 C10 1_555 1_555
C11 C10 1_555 1_555
H6 C11 1_555 1_555
C12 N2 1_555 1_555
C13 C12 1_555 1_555
H7 C13 1_555 1_555
C14 C9 1_555 1_555
H8 C14 1_555 1_555
H10 C18 1_555 1_555
C19 C18 1_555 1_555
C20 C19 1_555 1_555
H11 C20 1_555 1_555
C22 O7 1_555 1_555
C23 C22 1_555 1_555
H13 C23 1_555 1_555
H14 C23 1_555 1_555
H15 C23 1_555 1_555
C24 N4 1_555 1_555
H16 C24 1_555 1_555
H17 C24 1_555 1_555
H18 C24 1_555 1_555
C25 N4 1_555 1_555
H19 C25 1_555 1_555
H20 C25 1_555 1_555
H21 C25 1_555 1_555
Ho5 O5 1_555 1_555
O15 Ho3 1_555 1_555
O19 Ho3 1_555 1_555
O21 Ho3 1_555 1_555
O6 Ho5 1_555 1_555
C11 C12 1_555 1_555
C13 C14 1_555 1_555
C3_2 C2_2 1_555 1_555
H1_2 C3_2 1_555 1_555
C4_2 C3_2 1_555 1_555
H2_2 C4_2 1_555 1_555
C5_2 C4_2 1_555 1_555
C6 C5_2 1_555 1_555
H3 C6 1_555 1_555
C7_2 C2_2 1_555 1_555
C6 C7_2 1_555 1_555
Ho5 O1_2 1_555 1_555
O1_2 C1_2 1_555 1_555
O2_2 Ho5 1_555 1_555
O7_2 Ho5 1_555 1_555
N4_2 C22_2 1_555 1_555
C8_2 O2_2 1_555 1_555
C9_2 C8_2 1_555 1_555
C22_2 O7_2 1_555 1_555
C23_2 C22_2 1_555 1_555
H15_2 C23_2 1_555 1_555
C25_2 N4_2 1_555 1_555
H19_2 C25_2 1_555 1_555
H21_2 C25_2 1_555 1_555
O17 Ho5 1_555 1_555
C11_2 C10_2 1_555 1_555
H6_2 C11_2 1_555 1_555
C17_2 H9_2 1_555 1_555
C18_2 C17_2 1_555 1_555
H10_2 C18_2 1_555 1_555
O17 C15_2 1_555 1_555
N2_2 N3_2 1_555 1_555
N3_2 C19_2 1_555 1_555
C12_2 N2_2 1_555 1_555
C13_2 C12_2 1_555 1_555
H7_2 C13_2 1_555 1_555
H8_2 C14_2 1_555 1_555
C15_2 C16_2 1_555 1_555
C20_2 C19_2 1_555 1_555
H11_2 C20_2 1_555 1_555
C21_2 C16_2 1_555 1_555
H12_2 C21_2 1_555 1_555
C13_2 C14_2 1_555 1_555
C20_2 C21_2 1_555 1_555
H24 C31 1_555 1_555
O8 C26 1_555 1_555
C26 C27 1_555 1_555
C27 C28 1_555 1_555
C28 H22 1_555 1_555
C29 C28 1_555 1_555
H23 C29 1_555 1_555
C32 C27 1_555 1_555
H25 C32 1_555 1_555
O9 C26 1_555 1_555
Ho2 O8 1_555 1_555
O10 Ho2 1_555 1_555
O13 C33 1_555 1_555
O14 Ho2 1_555 1_555
N6 N7 1_555 1_555
N7 C44 1_555 1_555
N8 C47 1_555 1_555
C33 O10 1_555 1_555
C34 C33 1_555 1_555
C35 C34 1_555 1_555
H26 C35 1_555 1_555
C36 C35 1_555 1_555
H27 C36 1_555 1_555
C37 N6 1_555 1_555
C38 C37 1_555 1_555
H28 C38 1_555 1_555
C39 C34 1_555 1_555
H29 C39 1_555 1_555
H31 C43 1_555 1_555
C44 C43 1_555 1_555
C45 C44 1_555 1_555
H32 C45 1_555 1_555
C47 O14 1_555 1_555
C48 C47 1_555 1_555
H34 C48 1_555 1_555
H35 C48 1_555 1_555
H36 C48 1_555 1_555
C49 N8 1_555 1_555
H37 C49 1_555 1_555
H38 C49 1_555 1_555
H39 C49 1_555 1_555
C50 N8 1_555 1_555
H40 C50 1_555 1_555
H41 C50 1_555 1_555
H42 C50 1_555 1_555
Ho8 O9 1_555 1_555
O16 Ho2 1_555 1_555
O18 Ho2 1_555 1_555
O20 Ho2 1_555 1_555
O22 Ho2 1_555 1_555
C29 C30 1_555 1_555
O9 Ho2 1_555 1_555
O13 Ho8 1_555 1_555
C36 C37 1_555 1_555
C38 C39 1_555 1_555
O11 C40 1_555 1_555
O18 C40 1_555 1_555
C40 C41 1_555 1_555
C41 C42 1_555 1_555
C42 H30 1_555 1_555
C46 C41 1_555 1_555
H33 C46 1_555 1_555
Ho8 O11 1_555 1_555
O12 C40_2 1_555 1_555
N6_2 N7_2 1_555 1_555
N7_2 C44_2 1_555 1_555
C37_2 N6_2 1_555 1_555
C38_2 C37_2 1_555 1_555
H28_2 C38_2 1_555 1_555
H29_2 C39_2 1_555 1_555
C40_2 C41_2 1_555 1_555
C45_2 C44_2 1_555 1_555
H32_2 C45_2 1_555 1_555
C46_2 C41_2 1_555 1_555
H33_2 C46_2 1_555 1_555
Ho8 O12 1_555 1_555
C38_2 C39_2 1_555 1_555
C45_2 C46_2 1_555 1_555
C36_2 C35_2 1_555 1_555
H27_2 C36_2 1_555 1_555
C42_2 H30_2 1_555 1_555
C43_2 C42_2 1_555 1_555
H31_2 C43_2 1_555 1_555
O8_2 C26_2 1_555 1_555
Ho8 O8_2 1_555 1_555
O10_2 Ho8 1_555 1_555
O14_2 Ho8 1_555 1_555
N8_2 C47_2 1_555 1_555
C33_2 O10_2 1_555 1_555
C34_2 C33_2 1_555 1_555
C47_2 O14_2 1_555 1_555
C48_2 C47_2 1_555 1_555
H36_2 C48_2 1_555 1_555
C50_2 N8_2 1_555 1_555
H40_2 C50_2 1_555 1_555
H42_2 C50_2 1_555 1_555
C27_2 C28_2 1_555 1_555
C28_2 H22_2 1_555 1_555
C29_2 C28_2 1_555 1_555
H23_2 C29_2 1_555 1_555
C31_2 C30_2 1_555 1_555
H24_2 C31_2 1_555 1_555
C32_2 C27_2 1_555 1_555
C29_2 C30_2 1_555 1_555
C31_2 C32_2 1_555 1_555
H3_2 C6_2 1_555 1_555
H37_2 C49_2 1_555 1_555
H38_2 C49_2 1_555 1_555
H16_2 C24_2 1_555 1_555
H17_2 C24_2 1_555 1_555

#END
