
###############################################################################
#
# This file contains modified crystal structure data generated from the
# MOF subset of the Cambridge Structural Database (CSD) v543 
# hosted by the Cambridge Crystallographic Data Centre (CCDC).
#
# This work is licensed under the Creative Commons
# Attribution-NonCommercial-ShareAlike 4.0 International License.
# To view a copy of this license, visit
# http://creativecommons.org/licenses/by-nc-sa/4.0/
# or send a letter to
# Creative Commons, PO Box 1866, Mountain View, CA 94042, USA.
#
# CIF created using the CSD Python API on 29 September 2022
# The structure has been converted into the P1 space group
# The structure has a 3D framework
# The original CSD entry HUDMAW is in the hexagonal crystal system
# The original CSD entry HUDMAW is in a Sohncke space group
# The framework has been calculated to contain at least 10.0% void space
# The void calculation uses a probe of radius 1.32A, grid spacing 0.4
#
###############################################################################

data_HUDMAW
_chemical_formula_moiety         '(C72 H48 Co6 N32 Na2 O30)n'
_symmetry_cell_setting           triclinic
_symmetry_space_group_name_H-M   'P 1'
_symmetry_Int_Tables_number      1
_space_group_name_Hall           'P 1'
loop_
_symmetry_equiv_pos_site_id
_symmetry_equiv_pos_as_xyz
1 x,y,z
_cell_length_a                   13.1191(3)
_cell_length_b                   13.1191(3)
_cell_length_c                   16.0140(5)
_cell_angle_alpha                90
_cell_angle_beta                 90
_cell_angle_gamma                120
_cell_volume                     2386.92
loop_
_atom_site_label
_atom_site_type_symbol
_atom_site_fract_x
_atom_site_fract_y
_atom_site_fract_z
O5 O 0.6261(6) 0.0073(9) 0.3752(3)
Co7 Co 0.51793(10) 0.04457(14) 0.77171(11)
N15 N 0.6126(9) 0.0613(6) 0.1933(4)
N16 N 0.4091(7) 0.0259(6) 0.3473(5)
H8 H 0.7532 0.0457 0.8034
Co1 Co 0.47336(10) 0.51793(10) 0.27171(11)
Na1 Na 0.3333 0.6667 0.2704(4)
C1 C 0.5633(7) 0.6918(6) 0.1460(5)
O1 O 0.3812(7) 0.3739(6) 0.3752(3)
O2 O 0.4749(5) 0.6407(5) 0.1947(3)
C2 C 0.5518(9) 0.7663(9) 0.0787(5)
H1 H 0.4855 0.7747 0.0777
C3 C 0.3322(7) 0.4317(7) 0.3923(5)
O3 O 0.6501(6) 0.6813(7) 0.1509(4)
O4 O 0.3410(5) 0.5126(5) 0.3424(4)
C5 C 0.6323(8) 0.8185(8) 0.0225(5)
H3 H 0.6993 0.8120 0.0289
C7 C 0.2686(8) 0.4088(8) 0.4716(5)
H4 H 0.2656 0.3501 0.5058
C8 C 0.2154(7) 0.4654(7) 0.4978(5)
H5 H 0.2115 0.5188 0.4615
C9 C 0.1621(8) 0.4494(8) 0.5802(5)
N2 N 0.1833(8) 0.3944(8) 0.6455(4)
C10 C 0.0880(8) 0.4833(8) 0.6112(5)
H6 H 0.0590 0.5242 0.5814
C11 C 0.1240(9) 0.3985(10) 0.7122(6)
H7 H 0.1266 0.3698 0.7648
N3 N 0.0613(6) 0.4487(7) 0.6933(4)
Co2 Co 0.48207(10) 0.95543(14) 0.27171(11)
C13 C 0.3082(6) 0.8715(9) 0.1460(5)
O6 O 0.3593(5) 0.8342(7) 0.1947(3)
C14 C 0.2337(9) 0.7855(13) 0.0787(5)
H9 H 0.2253 0.7108 0.0777
C15 C 0.5683(7) 0.9005(10) 0.3923(5)
O7 O 0.3187(7) 0.9688(9) 0.1509(4)
O8 O 0.4874(5) 0.8284(7) 0.3424(4)
C17 C 0.1815(8) 0.8138(11) 0.0225(5)
H11 H 0.1880 0.8873 0.0289
C19 C 0.5912(8) 0.8598(11) 0.4716(5)
H12 H 0.6499 0.9155 0.5058
C20 C 0.5346(7) 0.7500(10) 0.4978(5)
H13 H 0.4812 0.6927 0.4615
C21 C 0.5506(8) 0.7127(11) 0.5802(5)
N6 N 0.6056(8) 0.7889(11) 0.6455(4)
C22 C 0.5167(8) 0.6047(11) 0.6112(5)
H14 H 0.4758 0.5348 0.5814
C23 C 0.6015(10) 0.7255(13) 0.7122(6)
H15 H 0.6302 0.7568 0.7648
N7 N 0.5513(7) 0.6126(9) 0.6933(4)
Co3 Co 0.04457(14) 0.52664(10) 0.27171(11)
C25 C 0.1285(9) 0.4367(7) 0.1460(5)
O10 O 0.1658(7) 0.5251(5) 0.1947(3)
C26 C 0.2145(13) 0.4482(9) 0.0787(5)
H17 H 0.2892 0.5145 0.0777
C27 C 0.0995(10) 0.6678(7) 0.3923(5)
O11 O 0.0312(9) 0.3499(6) 0.1509(4)
O12 O 0.1716(7) 0.6590(5) 0.3424(4)
C29 C 0.1862(11) 0.3677(8) 0.0225(5)
H19 H 0.1127 0.3007 0.0289
C31 C 0.1402(11) 0.7314(8) 0.4716(5)
H20 H 0.0845 0.7344 0.5058
C32 C 0.2500(10) 0.7846(7) 0.4978(5)
H21 H 0.3073 0.7885 0.4615
C33 C 0.2873(11) 0.8379(8) 0.5802(5)
N10 N 0.2111(11) 0.8167(8) 0.6455(4)
C34 C 0.3953(11) 0.9120(8) 0.6112(5)
H22 H 0.4652 0.9410 0.5814
C35 C 0.2745(13) 0.8760(9) 0.7122(6)
H23 H 0.2432 0.8734 0.7648
N11 N 0.3874(9) 0.9387(6) 0.6933(4)
Co5 Co 0.52664(10) 0.48207(10) 0.77171(11)
N14 N 0.4487(7) 0.3874(9) 0.1933(4)
N18 N 0.6168(9) 0.5909(7) 0.3473(5)
C4 C 0.5453(9) 0.9026(8) 0.9144(5)
H2 H 0.4683 0.8697 0.9335
C6 C 0.6319(9) 0.8871(8) 0.9493(5)
N1 N 0.7275(8) 0.9474(8) 0.9031(5)
C12 C 0.7002(9) 0.9977(9) 0.8440(6)
N4 N 0.5909(7) 0.9741(6) 0.8473(5)
C16 C 0.0974(8) 0.6427(12) 0.9144(5)
H10 H 0.1303 0.5986 0.9335
C18 C 0.1129(8) 0.7448(12) 0.9493(5)
N5 N 0.0526(8) 0.7801(11) 0.9031(5)
C24 C 0.0023(9) 0.7025(13) 0.8440(6)
N8 N 0.0259(6) 0.6168(9) 0.8473(5)
C28 C 0.3573(12) 0.4547(9) 0.9144(5)
H18 H 0.4014 0.5317 0.9335
C30 C 0.2552(12) 0.3681(9) 0.9493(5)
N9 N 0.2199(11) 0.2725(8) 0.9031(5)
C36 C 0.2975(13) 0.2998(9) 0.8440(6)
H24 H 0.2925 0.2468 0.8034
N12 N 0.3832(9) 0.4091(7) 0.8473(5)
O9 O 0.9927(9) 0.6188(7) 0.3752(3)
Co9 Co 0.95543(14) 0.47336(10) 0.77171(11)
N13 N 0.9387(6) 0.5513(7) 0.1933(4)
N17 N 0.9741(6) 0.3832(9) 0.3473(5)
H16 H 0.9543 0.7075 0.8034
H16_2 H 0.0457 0.2925 0.3034
O9_2 O 0.0073(9) 0.3812(7) 0.8752(3)
H4_2 H 0.7344 0.6499 0.0058
C9_2 C 0.8379(8) 0.5506(8) 0.0802(5)
N2_2 N 0.8167(8) 0.6056(8) 0.1455(4)
C10_2 C 0.9120(8) 0.5167(8) 0.1112(5)
H6_2 H 0.9410 0.4758 0.0814
C11_2 C 0.8760(9) 0.6015(10) 0.2122(6)
H7_2 H 0.8734 0.6302 0.2648
H12_2 H 0.3501 0.0845 0.0058
C21_2 C 0.4494(8) 0.2873(11) 0.0802(5)
N6_2 N 0.3944(8) 0.2111(11) 0.1455(4)
C22_2 C 0.4833(8) 0.3953(11) 0.1112(5)
H14_2 H 0.5242 0.4652 0.0814
C23_2 C 0.3985(10) 0.2745(13) 0.2122(6)
H15_2 H 0.3698 0.2432 0.2648
H20_2 H 0.9155 0.2656 0.0058
C33_2 C 0.7127(11) 0.1621(8) 0.0802(5)
N10_2 N 0.7889(11) 0.1833(8) 0.1455(4)
C34_2 C 0.6047(11) 0.0880(8) 0.1112(5)
H22_2 H 0.5348 0.0590 0.0814
C35_2 C 0.7255(13) 0.1240(9) 0.2122(6)
H23_2 H 0.7568 0.1266 0.2648
Na1_2 Na 0.6667 0.3333 0.7704(4)
C1_2 C 0.4367(7) 0.3082(6) 0.6460(5)
O1_2 O 0.6188(7) 0.6261(6) 0.8752(3)
O2_2 O 0.5251(5) 0.3593(5) 0.6947(3)
C2_2 C 0.4482(9) 0.2337(9) 0.5787(5)
H1_2 H 0.5145 0.2253 0.5777
C3_2 C 0.6678(7) 0.5683(7) 0.8923(5)
O3_2 O 0.3499(6) 0.3187(7) 0.6509(4)
O4_2 O 0.6590(5) 0.4874(5) 0.8424(4)
C4_2 C 0.4547(9) 0.0974(8) 0.4144(5)
H2_2 H 0.5317 0.1303 0.4335
C5_2 C 0.3677(8) 0.1815(8) 0.5225(5)
H3_2 H 0.3007 0.1880 0.5289
C6_2 C 0.3681(9) 0.1129(8) 0.4493(5)
N1_2 N 0.2725(8) 0.0526(8) 0.4031(5)
C7_2 C 0.7314(8) 0.5912(8) 0.9716(5)
C8_2 C 0.7846(7) 0.5346(7) 0.9978(5)
H5_2 H 0.7885 0.4812 0.9615
C12_2 C 0.2998(9) 0.0023(9) 0.3440(6)
C13_2 C 0.6918(6) 0.1285(9) 0.6460(5)
O6_2 O 0.6407(5) 0.1658(7) 0.6947(3)
C14_2 C 0.7663(9) 0.2145(13) 0.5787(5)
H9_2 H 0.7747 0.2892 0.5777
C15_2 C 0.4317(7) 0.0995(10) 0.8923(5)
O7_2 O 0.6813(7) 0.0312(9) 0.6509(4)
O8_2 O 0.5126(5) 0.1716(7) 0.8424(4)
C16_2 C 0.9026(8) 0.3573(12) 0.4144(5)
H10_2 H 0.8697 0.4014 0.4335
C17_2 C 0.8185(8) 0.1862(11) 0.5225(5)
H11_2 H 0.8120 0.1127 0.5289
C18_2 C 0.8871(8) 0.2552(12) 0.4493(5)
N5_2 N 0.9474(8) 0.2199(11) 0.4031(5)
C19_2 C 0.4088(8) 0.1402(11) 0.9716(5)
C20_2 C 0.4654(7) 0.2500(10) 0.9978(5)
H13_2 H 0.5188 0.3073 0.9615
C24_2 C 0.9977(9) 0.2975(13) 0.3440(6)
C25_2 C 0.8715(9) 0.5633(7) 0.6460(5)
O10_2 O 0.8342(7) 0.4749(5) 0.6947(3)
C26_2 C 0.7855(13) 0.5518(9) 0.5787(5)
H17_2 H 0.7108 0.4855 0.5777
C27_2 C 0.9005(10) 0.3322(7) 0.8923(5)
O11_2 O 0.9688(9) 0.6501(6) 0.6509(4)
O12_2 O 0.8284(7) 0.3410(5) 0.8424(4)
C28_2 C 0.6427(12) 0.5453(9) 0.4144(5)
H18_2 H 0.5986 0.4683 0.4335
C29_2 C 0.8138(11) 0.6323(8) 0.5225(5)
H19_2 H 0.8873 0.6993 0.5289
C30_2 C 0.7448(12) 0.6319(9) 0.4493(5)
N9_2 N 0.7801(11) 0.7275(8) 0.4031(5)
C31_2 C 0.8598(11) 0.2686(8) 0.9716(5)
C32_2 C 0.7500(10) 0.2154(7) 0.9978(5)
H21_2 H 0.6927 0.2115 0.9615
C36_2 C 0.7025(13) 0.7002(9) 0.3440(6)
H24_2 H 0.7075 0.7532 0.3034
H8_2 H 0.2468 0.9543 0.3034
O5_2 O 0.3739(6) 0.9927(9) 0.8752(3)
N19 N -0.0000 0.0000 0.9366(19)
O13 O 0.0968(10) 0.0146(11) 0.9327(14)
N19_2 N -0.0000 1.0000 0.9366(19)
N19_3 N 1.0000 0.0000 0.9366(19)
O14 O 0.9854(11) 0.0822(15) 0.9327(14)
N19_4 N 1.0000 1.0000 0.9366(19)
O15 O 0.9178(15) 0.9032(10) 0.9327(14)
N19_5 N 0.0000 -0.0000 0.4366(19)
O15_2 O 0.0822(15) 0.0968(10) 0.4327(14)
N19_6 N 0.0000 1.0000 0.4366(19)
O14_2 O 0.0146(11) 0.9178(15) 0.4327(14)
N19_7 N 1.0000 -0.0000 0.4366(19)
N19_8 N 1.0000 1.0000 0.4366(19)
O13_2 O 0.9032(10) 0.9854(11) 0.4327(14)
loop_
_geom_bond_atom_site_label_1
_geom_bond_atom_site_label_2
_geom_bond_site_symmetry_1
_geom_bond_site_symmetry_2
Co1 O1 1_555 1_555
Na1 O2 1_555 1_555
C1 O2 1_555 1_555
O1 C3 1_555 1_555
O2 Co1 1_555 1_555
C2 C1 1_555 1_555
H1 C2 1_555 1_555
C3 O4 1_555 1_555
O3 C1 1_555 1_555
O4 Co1 1_555 1_555
C5 C2 1_555 1_555
H3 C5 1_555 1_555
C7 C3 1_555 1_555
H4 C7 1_555 1_555
C8 C7 1_555 1_555
H5 C8 1_555 1_555
C9 C8 1_555 1_555
N2 C9 1_555 1_555
C10 C9 1_555 1_555
H6 C10 1_555 1_555
C11 N2 1_555 1_555
H7 C11 1_555 1_555
N3 C10 1_555 1_555
C13 O6 1_555 1_555
O6 Na1 1_555 1_555
C14 C13 1_555 1_555
H9 C14 1_555 1_555
C15 O8 1_555 1_555
O7 C13 1_555 1_555
O8 Na1 1_555 1_555
C17 C14 1_555 1_555
H11 C17 1_555 1_555
C19 C15 1_555 1_555
H12 C19 1_555 1_555
C20 C19 1_555 1_555
H13 C20 1_555 1_555
C21 C20 1_555 1_555
N6 C21 1_555 1_555
C22 C21 1_555 1_555
H14 C22 1_555 1_555
C23 N6 1_555 1_555
H15 C23 1_555 1_555
N7 C22 1_555 1_555
C25 O10 1_555 1_555
O10 Na1 1_555 1_555
C26 C25 1_555 1_555
H17 C26 1_555 1_555
C27 O12 1_555 1_555
O11 C25 1_555 1_555
O12 Na1 1_555 1_555
C29 C26 1_555 1_555
H19 C29 1_555 1_555
C31 C27 1_555 1_555
H20 C31 1_555 1_555
C32 C31 1_555 1_555
H21 C32 1_555 1_555
C33 C32 1_555 1_555
N10 C33 1_555 1_555
C34 C33 1_555 1_555
H22 C34 1_555 1_555
C35 N10 1_555 1_555
H23 C35 1_555 1_555
N11 C34 1_555 1_555
Co5 N7 1_555 1_555
N14 Co1 1_555 1_555
N18 Co1 1_555 1_555
Na1 O4 1_555 1_555
C11 N3 1_555 1_555
Co2 O6 1_555 1_555
Co2 O8 1_555 1_555
C23 N7 1_555 1_555
Co3 O10 1_555 1_555
Co3 O12 1_555 1_555
C35 N11 1_555 1_555
C4 H2 1_555 1_555
C6 C4 1_555 1_555
N1 C6 1_555 1_555
C12 N1 1_555 1_555
N4 C4 1_555 1_555
C16 H10 1_555 1_555
C18 C16 1_555 1_555
N5 C18 1_555 1_555
C24 N5 1_555 1_555
N8 C16 1_555 1_555
C28 H18 1_555 1_555
C30 C28 1_555 1_555
N9 C30 1_555 1_555
C36 N9 1_555 1_555
H24 C36 1_555 1_555
N12 C28 1_555 1_555
Co5 N12 1_555 1_555
C12 N4 1_555 1_555
C24 N8 1_555 1_555
C36 N12 1_555 1_555
N2_2 C9_2 1_555 1_555
C10_2 C9_2 1_555 1_555
H6_2 C10_2 1_555 1_555
C11_2 N2_2 1_555 1_555
H7_2 C11_2 1_555 1_555
N13 C10_2 1_555 1_555
N6_2 C21_2 1_555 1_555
C22_2 C21_2 1_555 1_555
H14_2 C22_2 1_555 1_555
C23_2 N6_2 1_555 1_555
H15_2 C23_2 1_555 1_555
N14 C22_2 1_555 1_555
N10_2 C33_2 1_555 1_555
C34_2 C33_2 1_555 1_555
H22_2 C34_2 1_555 1_555
C35_2 N10_2 1_555 1_555
H23_2 C35_2 1_555 1_555
N15 C34_2 1_555 1_555
C11_2 N13 1_555 1_555
C23_2 N14 1_555 1_555
C35_2 N15 1_555 1_555
Co5 O1_2 1_555 1_555
Na1_2 O2_2 1_555 1_555
C1_2 O2_2 1_555 1_555
O1_2 C3_2 1_555 1_555
O2_2 Co5 1_555 1_555
C2_2 C1_2 1_555 1_555
H1_2 C2_2 1_555 1_555
C3_2 O4_2 1_555 1_555
O3_2 C1_2 1_555 1_555
O4_2 Co5 1_555 1_555
C4_2 H2_2 1_555 1_555
C5_2 C2_2 1_555 1_555
H3_2 C5_2 1_555 1_555
C6_2 C4_2 1_555 1_555
N1_2 C6_2 1_555 1_555
C7_2 C3_2 1_555 1_555
C8_2 C7_2 1_555 1_555
H5_2 C8_2 1_555 1_555
C12_2 N1_2 1_555 1_555
N16 C4_2 1_555 1_555
C13_2 O6_2 1_555 1_555
O6_2 Na1_2 1_555 1_555
C14_2 C13_2 1_555 1_555
H9_2 C14_2 1_555 1_555
C15_2 O8_2 1_555 1_555
O7_2 C13_2 1_555 1_555
O8_2 Na1_2 1_555 1_555
C16_2 H10_2 1_555 1_555
C17_2 C14_2 1_555 1_555
H11_2 C17_2 1_555 1_555
C18_2 C16_2 1_555 1_555
N5_2 C18_2 1_555 1_555
C19_2 C15_2 1_555 1_555
C20_2 C19_2 1_555 1_555
H13_2 C20_2 1_555 1_555
C24_2 N5_2 1_555 1_555
N17 C16_2 1_555 1_555
C25_2 O10_2 1_555 1_555
O10_2 Na1_2 1_555 1_555
C26_2 C25_2 1_555 1_555
H17_2 C26_2 1_555 1_555
C27_2 O12_2 1_555 1_555
O11_2 C25_2 1_555 1_555
O12_2 Na1_2 1_555 1_555
C28_2 H18_2 1_555 1_555
C29_2 C26_2 1_555 1_555
H19_2 C29_2 1_555 1_555
C30_2 C28_2 1_555 1_555
N9_2 C30_2 1_555 1_555
C31_2 C27_2 1_555 1_555
C32_2 C31_2 1_555 1_555
H21_2 C32_2 1_555 1_555
C36_2 N9_2 1_555 1_555
H24_2 C36_2 1_555 1_555
N18 C28_2 1_555 1_555
Na1_2 O4_2 1_555 1_555
C5_2 C6_2 1_555 1_555
C12_2 N16 1_555 1_555
Co7 O6_2 1_555 1_555
Co7 O8_2 1_555 1_555
C17_2 C18_2 1_555 1_555
C24_2 N17 1_555 1_555
Co9 O10_2 1_555 1_555
Co9 O12_2 1_555 1_555
C29_2 C30_2 1_555 1_555
C36_2 N18 1_555 1_555
N19 O13 1_555 1_555
O14 N19_3 1_555 1_555
O15 N19_4 1_555 1_555
O15_2 N19_5 1_555 1_555
O14_2 N19_6 1_555 1_555
N19_8 O13_2 1_555 1_555

#END
