
###############################################################################
#
# This file contains modified crystal structure data generated from the
# MOF subset of the Cambridge Structural Database (CSD) v543 
# hosted by the Cambridge Crystallographic Data Centre (CCDC).
#
# This work is licensed under the Creative Commons
# Attribution-NonCommercial-ShareAlike 4.0 International License.
# To view a copy of this license, visit
# http://creativecommons.org/licenses/by-nc-sa/4.0/
# or send a letter to
# Creative Commons, PO Box 1866, Mountain View, CA 94042, USA.
#
# CIF created using the CSD Python API on 29 September 2022
# The structure has been converted into the P1 space group
# The structure has a 3D framework
# The original CSD entry HUDMEA is in the hexagonal crystal system
# The original CSD entry HUDMEA is in a Sohncke space group
# The framework has been calculated to contain at least 10.0% void space
# The void calculation uses a probe of radius 1.32A, grid spacing 0.4
# H atom positions have been added when not included in the experimental data
#
###############################################################################

data_HUDMEA
_chemical_formula_moiety         '(C72 H60 Co6 N32 Na2 O30)n'
_symmetry_cell_setting           triclinic
_symmetry_space_group_name_H-M   'P 1'
_symmetry_Int_Tables_number      1
_space_group_name_Hall           'P 1'
loop_
_symmetry_equiv_pos_site_id
_symmetry_equiv_pos_as_xyz
1 x,y,z
_cell_length_a                   13.1177(4)
_cell_length_b                   13.1177(4)
_cell_length_c                   16.0050(4)
_cell_angle_alpha                90
_cell_angle_beta                 90
_cell_angle_gamma                120
_cell_volume                     2385.07
loop_
_atom_site_label
_atom_site_type_symbol
_atom_site_fract_x
_atom_site_fract_y
_atom_site_fract_z
H15 H 0.7534 0.0448 0.5589
Co9 Co 0.51833(15) 0.04430(8) 0.59155(13)
N13 N 0.6132(7) 0.0610(7) 0.1697(5)
N17 N 0.4088(9) 0.0258(12) 0.0162(5)
O12 O 0.6261(11) 0.0074(7) 0.9872(4)
Co1 Co 0.04430(8) 0.52597(13) 0.09155(13)
Na1 Na 0.3333 0.6667 0.0931(4)
O1 O 0.1657(5) 0.5250(6) 0.1678(4)
O2 O 0.1720(6) 0.6588(7) 0.0202(5)
C1 C 0.1272(8) 0.4362(10) 0.2165(6)
O3 O 0.0313(6) 0.3506(7) 0.2116(4)
C3 C 0.1863(10) 0.3678(9) 0.3403(5)
H1 H 0.1131 0.3006 0.3336
C8 C 0.3574(10) 0.4545(11) 0.4471(6)
H5 H 0.4025 0.5308 0.4268
N3 N 0.3830(8) 0.4088(9) 0.5162(5)
C9 C 0.2967(10) 0.3001(10) 0.5186(7)
H6 H 0.2914 0.2466 0.5589
N4 N 0.2185(9) 0.2729(9) 0.4597(6)
H7 H 0.1559 0.2058 0.4523
C11 C 0.2546(9) 0.3688(11) 0.4136(6)
C12 C 0.2153(12) 0.4491(10) 0.2838(6)
H8 H 0.2901 0.5153 0.2844
Co2 Co 0.47403(13) 0.51833(15) 0.09155(13)
O5 O 0.4750(6) 0.6407(8) 0.1678(4)
O6 O 0.3412(7) 0.5132(9) 0.0202(5)
C13 C 0.5638(10) 0.6910(13) 0.2165(6)
O7 O 0.6494(7) 0.6807(9) 0.2116(4)
C15 C 0.6322(9) 0.8185(13) 0.3403(5)
H10 H 0.6994 0.8125 0.3336
C20 C 0.5455(11) 0.9029(15) 0.4471(6)
H14 H 0.4692 0.8717 0.4268
N7 N 0.5912(9) 0.9742(12) 0.5162(5)
C21 C 0.6999(10) 0.9966(14) 0.5186(7)
N8 N 0.7271(9) 0.9456(13) 0.4597(6)
H16 H 0.7942 0.9501 0.4523
C23 C 0.6312(11) 0.8858(14) 0.4136(6)
C24 C 0.5509(10) 0.7662(16) 0.2838(6)
H17 H 0.4847 0.7748 0.2844
Co3 Co 0.48167(15) 0.95570(8) 0.09155(13)
O9 O 0.3593(8) 0.8343(5) 0.1678(4)
O10 O 0.4868(9) 0.8280(6) 0.0202(5)
C25 C 0.3090(13) 0.8728(8) 0.2165(6)
O11 O 0.3193(9) 0.9687(6) 0.2116(4)
C27 C 0.1815(13) 0.8137(10) 0.3403(5)
H19 H 0.1875 0.8869 0.3336
C32 C 0.0971(15) 0.6426(10) 0.4471(6)
H23 H 0.1283 0.5975 0.4268
N11 N 0.0258(12) 0.6170(8) 0.5162(5)
C33 C 0.0034(14) 0.7033(10) 0.5186(7)
N12 N 0.0544(13) 0.7815(9) 0.4597(6)
H25 H 0.0499 0.8441 0.4523
C35 C 0.1142(14) 0.7454(9) 0.4136(6)
C36 C 0.2338(16) 0.7847(12) 0.2838(6)
H26 H 0.2252 0.7099 0.2844
Co7 Co 0.52597(13) 0.48167(15) 0.59155(13)
N15 N 0.4478(10) 0.3868(7) 0.1697(5)
N16 N 0.6170(8) 0.5912(9) 0.0162(5)
C2 C 0.0994(9) 0.6675(9) 0.9708(6)
C4 C 0.2509(8) 0.7856(8) 0.8648(5)
H2 H 0.3085 0.7900 0.9010
C5 C 0.2877(8) 0.8386(9) 0.7814(6)
C6 C 0.1410(9) 0.7321(9) 0.8913(6)
H3 H 0.0854 0.7354 0.8571
C7 C 0.3957(9) 0.9139(10) 0.7504(6)
N1 N 0.2114(8) 0.8180(10) 0.7172(4)
H4 H 0.1360 0.7752 0.7191
N2 N 0.3868(7) 0.9390(7) 0.6697(5)
C10 C 0.2765(9) 0.8774(12) 0.6499(7)
H9 H 0.486(9) 0.935(8) 0.770(6)
C14 C 0.3325(9) 0.4319(13) 0.9708(6)
O8 O 0.3813(8) 0.3739(11) 0.9872(4)
C16 C 0.2144(8) 0.4653(11) 0.8648(5)
H11 H 0.2100 0.5185 0.9010
C17 C 0.1614(9) 0.4491(12) 0.7814(6)
C18 C 0.2679(9) 0.4089(13) 0.8913(6)
H12 H 0.2646 0.3500 0.8571
C19 C 0.0861(10) 0.4818(13) 0.7504(6)
N5 N 0.1820(10) 0.3934(13) 0.7172(4)
H13 H 0.2248 0.3608 0.7191
N6 N 0.0610(7) 0.4478(10) 0.6697(5)
C22 C 0.1226(12) 0.3991(15) 0.6499(7)
H18 H 0.065(8) 0.551(12) 0.770(6)
C26 C 0.5681(13) 0.9006(9) 0.9708(6)
C28 C 0.5347(11) 0.7491(8) 0.8648(5)
H20 H 0.4815 0.6915 0.9010
C29 C 0.5509(12) 0.7123(8) 0.7814(6)
C30 C 0.5911(13) 0.8590(9) 0.8913(6)
H21 H 0.6500 0.9146 0.8571
C31 C 0.5182(13) 0.6043(9) 0.7504(6)
N9 N 0.6066(13) 0.7886(8) 0.7172(4)
H22 H 0.6392 0.8640 0.7191
N10 N 0.5522(10) 0.6132(7) 0.6697(5)
C34 C 0.6009(15) 0.7235(9) 0.6499(7)
H27 H 0.449(12) 0.514(9) 0.770(6)
H28 H 0.241087 0.873899 0.587753
H29 H 0.126101 0.367188 0.587753
H30 H 0.632812 0.758913 0.587753
H24 H 0.9552 0.7086 0.5589
Co5 Co 0.95570(8) 0.47403(13) 0.59155(13)
N14 N 0.9390(7) 0.5522(10) 0.1697(5)
N18 N 0.9742(12) 0.3830(8) 0.0162(5)
O4 O 0.9926(7) 0.6187(8) 0.9872(4)
H24_2 H 0.0448 0.2914 0.0589
O4_2 O 0.0074(7) 0.3813(8) 0.4872(4)
C9_2 C 0.7033(10) 0.6999(10) 0.0186(7)
H6_2 H 0.7086 0.7534 0.0589
C21_2 C 0.3001(10) 0.0034(14) 0.0186(7)
C33_2 C 0.9966(14) 0.2967(10) 0.0186(7)
Na1_2 Na 0.6667 0.3333 0.5931(4)
O1_2 O 0.8343(5) 0.4750(6) 0.6678(4)
O2_2 O 0.8280(6) 0.3412(7) 0.5202(5)
C1_2 C 0.8728(8) 0.5638(10) 0.7165(6)
C2_2 C 0.9006(9) 0.3325(9) 0.4708(6)
O3_2 O 0.9687(6) 0.6494(7) 0.7116(4)
C3_2 C 0.8137(10) 0.6322(9) 0.8403(5)
H1_2 H 0.8869 0.6994 0.8336
C4_2 C 0.7491(8) 0.2144(8) 0.3648(5)
H2_2 H 0.6915 0.2100 0.4010
C5_2 C 0.7123(8) 0.1614(9) 0.2814(6)
C6_2 C 0.8590(9) 0.2679(9) 0.3913(6)
H3_2 H 0.9146 0.2646 0.3571
C7_2 C 0.6043(9) 0.0861(10) 0.2504(6)
N1_2 N 0.7886(8) 0.1820(10) 0.2172(4)
H4_2 H 0.8640 0.2248 0.2191
C8_2 C 0.6426(10) 0.5455(11) 0.9471(6)
H5_2 H 0.5975 0.4692 0.9268
C10_2 C 0.7235(9) 0.1226(12) 0.1499(7)
N4_2 N 0.7815(9) 0.7271(9) 0.9597(6)
H7_2 H 0.8441 0.7942 0.9523
C11_2 C 0.7454(9) 0.6312(11) 0.9136(6)
C12_2 C 0.7847(12) 0.5509(10) 0.7838(6)
H8_2 H 0.7099 0.4847 0.7844
H9_2 H 0.514(9) 0.065(8) 0.270(6)
O5_2 O 0.5250(6) 0.3593(8) 0.6678(4)
O6_2 O 0.6588(7) 0.4868(9) 0.5202(5)
C13_2 C 0.4362(10) 0.3090(13) 0.7165(6)
C14_2 C 0.6675(9) 0.5681(13) 0.4708(6)
O7_2 O 0.3506(7) 0.3193(9) 0.7116(4)
O8_2 O 0.6187(8) 0.6261(11) 0.4872(4)
C15_2 C 0.3678(9) 0.1815(13) 0.8403(5)
H10_2 H 0.3006 0.1875 0.8336
C16_2 C 0.7856(8) 0.5347(11) 0.3648(5)
H11_2 H 0.7900 0.4815 0.4010
C17_2 C 0.8386(9) 0.5509(12) 0.2814(6)
C18_2 C 0.7321(9) 0.5911(13) 0.3913(6)
H12_2 H 0.7354 0.6500 0.3571
C19_2 C 0.9139(10) 0.5182(13) 0.2504(6)
N5_2 N 0.8180(10) 0.6066(13) 0.2172(4)
H13_2 H 0.7752 0.6392 0.2191
C20_2 C 0.4545(11) 0.0971(15) 0.9471(6)
H14_2 H 0.5308 0.1283 0.9268
C22_2 C 0.8774(12) 0.6009(15) 0.1499(7)
N8_2 N 0.2729(9) 0.0544(13) 0.9597(6)
H16_2 H 0.2058 0.0499 0.9523
C23_2 C 0.3688(11) 0.1142(14) 0.9136(6)
C24_2 C 0.4491(10) 0.2338(16) 0.7838(6)
H17_2 H 0.5153 0.2252 0.7844
H18_2 H 0.935(8) 0.449(12) 0.270(6)
O9_2 O 0.6407(8) 0.1657(5) 0.6678(4)
O10_2 O 0.5132(9) 0.1720(6) 0.5202(5)
C25_2 C 0.6910(13) 0.1272(8) 0.7165(6)
C26_2 C 0.4319(13) 0.0994(9) 0.4708(6)
O11_2 O 0.6807(9) 0.0313(6) 0.7116(4)
C27_2 C 0.8185(13) 0.1863(10) 0.8403(5)
H19_2 H 0.8125 0.1131 0.8336
C28_2 C 0.4653(11) 0.2509(8) 0.3648(5)
H20_2 H 0.5185 0.3085 0.4010
C29_2 C 0.4491(12) 0.2877(8) 0.2814(6)
C30_2 C 0.4089(13) 0.1410(9) 0.3913(6)
H21_2 H 0.3500 0.0854 0.3571
C31_2 C 0.4818(13) 0.3957(9) 0.2504(6)
N9_2 N 0.3934(13) 0.2114(8) 0.2172(4)
H22_2 H 0.3608 0.1360 0.2191
C32_2 C 0.9029(15) 0.3574(10) 0.9471(6)
H23_2 H 0.8717 0.4025 0.9268
C34_2 C 0.3991(15) 0.2765(9) 0.1499(7)
N12_2 N 0.9456(13) 0.2185(9) 0.9597(6)
H25_2 H 0.9501 0.1559 0.9523
C35_2 C 0.8858(14) 0.2546(9) 0.9136(6)
C36_2 C 0.7662(16) 0.2153(12) 0.7838(6)
H26_2 H 0.7748 0.2901 0.7844
H27_2 H 0.551(12) 0.486(9) 0.270(6)
H28_2 H 0.758913 0.126101 0.087753
H29_2 H 0.873899 0.632812 0.087753
H30_2 H 0.367188 0.241087 0.087753
H15_2 H 0.2466 0.9552 0.0589
O12_2 O 0.3739(11) 0.9926(7) 0.4872(4)
N19 N 0.0000 0.0000 0.425(2)
O15 O 0.0956(19) 0.0124(15) 0.4393(17)
N19_2 N -0.0000 1.0000 0.425(2)
N19_3 N 1.0000 0.0000 0.425(2)
O13 O 0.9876(15) 0.0832(12) 0.4393(17)
N19_4 N 1.0000 1.0000 0.425(2)
O14 O 0.9168(12) 0.9044(19) 0.4393(17)
N19_5 N 0.0000 0.0000 0.925(2)
O14_2 O 0.0832(12) 0.0956(19) 0.9393(17)
N19_6 N -0.0000 1.0000 0.925(2)
O13_2 O 0.0124(15) 0.9168(12) 0.9393(17)
N19_7 N 1.0000 0.0000 0.925(2)
N19_8 N 1.0000 1.0000 0.925(2)
O15_2 O 0.9044(19) 0.9876(15) 0.9393(17)
loop_
_geom_bond_atom_site_label_1
_geom_bond_atom_site_label_2
_geom_bond_site_symmetry_1
_geom_bond_site_symmetry_2
Co1 O1 1_555 1_555
Na1 O1 1_555 1_555
O1 C1 1_555 1_555
O2 Co1 1_555 1_555
C1 O3 1_555 1_555
C3 H1 1_555 1_555
C8 H5 1_555 1_555
N3 C8 1_555 1_555
C9 N3 1_555 1_555
H6 C9 1_555 1_555
N4 C9 1_555 1_555
H7 N4 1_555 1_555
C11 C3 1_555 1_555
C12 C1 1_555 1_555
H8 C12 1_555 1_555
Co2 O5 1_555 1_555
O5 Na1 1_555 1_555
O6 Na1 1_555 1_555
C13 O5 1_555 1_555
O7 C13 1_555 1_555
C15 H10 1_555 1_555
C20 H14 1_555 1_555
N7 C20 1_555 1_555
C21 N7 1_555 1_555
N8 C21 1_555 1_555
H16 N8 1_555 1_555
C23 C15 1_555 1_555
C24 C13 1_555 1_555
H17 C24 1_555 1_555
Co3 O9 1_555 1_555
O9 Na1 1_555 1_555
O10 Na1 1_555 1_555
C25 O9 1_555 1_555
O11 C25 1_555 1_555
C27 H19 1_555 1_555
C32 H23 1_555 1_555
N11 C32 1_555 1_555
C33 N11 1_555 1_555
N12 C33 1_555 1_555
H25 N12 1_555 1_555
C35 C27 1_555 1_555
C36 C25 1_555 1_555
H26 C36 1_555 1_555
Co7 N3 1_555 1_555
N15 Co2 1_555 1_555
N16 Co2 1_555 1_555
Na1 O2 1_555 1_555
C3 C12 1_555 1_555
C8 C11 1_555 1_555
N4 C11 1_555 1_555
Co2 O6 1_555 1_555
C15 C24 1_555 1_555
C20 C23 1_555 1_555
N8 C23 1_555 1_555
Co3 O10 1_555 1_555
C27 C36 1_555 1_555
C32 C35 1_555 1_555
N12 C35 1_555 1_555
C4 H2 1_555 1_555
C5 C4 1_555 1_555
C6 C2 1_555 1_555
H3 C6 1_555 1_555
C7 C5 1_555 1_555
N1 C5 1_555 1_555
H4 N1 1_555 1_555
N2 C7 1_555 1_555
C10 N1 1_555 1_555
H9 C7 1_555 1_555
C16 H11 1_555 1_555
C17 C16 1_555 1_555
C18 C14 1_555 1_555
H12 C18 1_555 1_555
C19 C17 1_555 1_555
N5 C17 1_555 1_555
H13 N5 1_555 1_555
N6 C19 1_555 1_555
C22 N5 1_555 1_555
H18 C19 1_555 1_555
C28 H20 1_555 1_555
C29 C28 1_555 1_555
C30 C26 1_555 1_555
H21 C30 1_555 1_555
C31 C29 1_555 1_555
N9 C29 1_555 1_555
H22 N9 1_555 1_555
N10 C31 1_555 1_555
C34 N9 1_555 1_555
H27 C31 1_555 1_555
Co7 N10 1_555 1_555
C4 C6 1_555 1_555
N2 C10 1_555 1_555
C14 O8 1_555 1_555
C16 C18 1_555 1_555
N6 C22 1_555 1_555
C28 C30 1_555 1_555
N10 C34 1_555 1_555
C10 H28 1_555 1_555
C22 H29 1_555 1_555
C34 H30 1_555 1_555
C9_2 N16 1_555 1_555
H6_2 C9_2 1_555 1_555
C21_2 N17 1_555 1_555
C33_2 N18 1_555 1_555
Co5 O1_2 1_555 1_555
Na1_2 O1_2 1_555 1_555
O1_2 C1_2 1_555 1_555
O2_2 Co5 1_555 1_555
C1_2 O3_2 1_555 1_555
C2_2 O2_2 1_555 1_555
C3_2 H1_2 1_555 1_555
C4_2 H2_2 1_555 1_555
C5_2 C4_2 1_555 1_555
C6_2 C2_2 1_555 1_555
H3_2 C6_2 1_555 1_555
C7_2 C5_2 1_555 1_555
N1_2 C5_2 1_555 1_555
H4_2 N1_2 1_555 1_555
N13 C7_2 1_555 1_555
C8_2 H5_2 1_555 1_555
C10_2 N1_2 1_555 1_555
H7_2 N4_2 1_555 1_555
C11_2 C3_2 1_555 1_555
C12_2 C1_2 1_555 1_555
H8_2 C12_2 1_555 1_555
H9_2 C7_2 1_555 1_555
Co7 O5_2 1_555 1_555
O5_2 Na1_2 1_555 1_555
O6_2 Na1_2 1_555 1_555
C13_2 O5_2 1_555 1_555
C14_2 O6_2 1_555 1_555
O7_2 C13_2 1_555 1_555
O8_2 Co7 1_555 1_555
C15_2 H10_2 1_555 1_555
C16_2 H11_2 1_555 1_555
C17_2 C16_2 1_555 1_555
C18_2 C14_2 1_555 1_555
H12_2 C18_2 1_555 1_555
C19_2 C17_2 1_555 1_555
N5_2 C17_2 1_555 1_555
H13_2 N5_2 1_555 1_555
N14 C19_2 1_555 1_555
C20_2 H14_2 1_555 1_555
C22_2 N5_2 1_555 1_555
H16_2 N8_2 1_555 1_555
C23_2 C15_2 1_555 1_555
C24_2 C13_2 1_555 1_555
H17_2 C24_2 1_555 1_555
H18_2 C19_2 1_555 1_555
Co9 O9_2 1_555 1_555
O9_2 Na1_2 1_555 1_555
O10_2 Na1_2 1_555 1_555
C25_2 O9_2 1_555 1_555
C26_2 O10_2 1_555 1_555
O11_2 C25_2 1_555 1_555
C27_2 H19_2 1_555 1_555
C28_2 H20_2 1_555 1_555
C29_2 C28_2 1_555 1_555
C30_2 C26_2 1_555 1_555
H21_2 C30_2 1_555 1_555
C31_2 C29_2 1_555 1_555
N9_2 C29_2 1_555 1_555
H22_2 N9_2 1_555 1_555
N15 C31_2 1_555 1_555
C32_2 H23_2 1_555 1_555
C34_2 N9_2 1_555 1_555
H25_2 N12_2 1_555 1_555
C35_2 C27_2 1_555 1_555
C36_2 C25_2 1_555 1_555
H26_2 C36_2 1_555 1_555
H27_2 C31_2 1_555 1_555
Na1_2 O2_2 1_555 1_555
C3_2 C12_2 1_555 1_555
C4_2 C6_2 1_555 1_555
N13 C10_2 1_555 1_555
C8_2 C11_2 1_555 1_555
N4_2 C11_2 1_555 1_555
Co7 O6_2 1_555 1_555
C14_2 O8_2 1_555 1_555
C15_2 C24_2 1_555 1_555
C16_2 C18_2 1_555 1_555
N14 C22_2 1_555 1_555
C20_2 C23_2 1_555 1_555
N8_2 C23_2 1_555 1_555
Co9 O10_2 1_555 1_555
C27_2 C36_2 1_555 1_555
C28_2 C30_2 1_555 1_555
N15 C34_2 1_555 1_555
C32_2 C35_2 1_555 1_555
N12_2 C35_2 1_555 1_555
C10_2 H28_2 1_555 1_555
C22_2 H29_2 1_555 1_555
C34_2 H30_2 1_555 1_555
O15 N19 1_555 1_555
N19_3 O13 1_555 1_555
O14 N19_4 1_555 1_555
O14_2 N19_5 1_555 1_555
N19_6 O13_2 1_555 1_555
O15_2 N19_8 1_555 1_555

#END
