
###############################################################################
#
# This file contains modified crystal structure data generated from the
# MOF subset of the Cambridge Structural Database (CSD) v543 
# hosted by the Cambridge Crystallographic Data Centre (CCDC).
#
# This work is licensed under the Creative Commons
# Attribution-NonCommercial-ShareAlike 4.0 International License.
# To view a copy of this license, visit
# http://creativecommons.org/licenses/by-nc-sa/4.0/
# or send a letter to
# Creative Commons, PO Box 1866, Mountain View, CA 94042, USA.
#
# CIF created using the CSD Python API on 29 September 2022
# The structure has been converted into the P1 space group
# The structure has a 3D framework
# The original CSD entry HUDMOK is in the tetragonal crystal system
# The framework has been calculated to contain at least 10.0% void space
# The void calculation uses a probe of radius 1.32A, grid spacing 0.4
#
###############################################################################

data_HUDMOK
_chemical_formula_moiety         '(C112 H64 N16 O16 Zn8)n'
_symmetry_cell_setting           triclinic
_symmetry_space_group_name_H-M   'P 1'
_symmetry_Int_Tables_number      1
_space_group_name_Hall           'P 1'
loop_
_symmetry_equiv_pos_site_id
_symmetry_equiv_pos_as_xyz
1 x,y,z
_cell_length_a                   11.517(3)
_cell_length_b                   11.517(3)
_cell_length_c                   34.474(11)
_cell_angle_alpha                90
_cell_angle_beta                 90
_cell_angle_gamma                90
_cell_volume                     4572.68
loop_
_atom_site_label
_atom_site_type_symbol
_atom_site_fract_x
_atom_site_fract_y
_atom_site_fract_z
O1 O 0.0000 0.0000 0.2500
C2 C 0.0000 0.4356(6) 0.2500
C4 C 0.0000 0.0000 0.1462(3)
C5 C 0.0000 0.0000 0.1028(3)
C8 C 0.0000 0.0000 0.0221(3)
N2 N 0.0376(4) 0.7474(3) 0.23424(11)
C18 C 0.0586(5) 0.6373(4) 0.22511(14)
C19 C -0.0000 0.5644(6) 0.2500
C20 C 0.1355(7) 0.6098(5) 0.19139(19)
H12 H 0.1454 0.6781 0.1758
H13 H 0.1006 0.5495 0.1761
H14 H 0.2097 0.5841 0.2007
N3 N 0.0376(4) 0.2526(3) 0.26576(11)
C21 C 0.0586(5) 0.3627(4) 0.27489(14)
C22 C 0.1355(7) 0.3902(5) 0.30861(19)
H15 H 0.1454 0.3219 0.3242
H16 H 0.1006 0.4505 0.3239
H17 H 0.2097 0.4159 0.2993
Zn3 Zn 0.09798(5) 0.09798(5) 0.28205(2)
Zn6 Zn 0.09798(5) 0.90202(5) 0.21795(2)
O6 O 0.0680(3) 0.0680(3) 0.33733(13)
N9 N 0.2526(3) 0.0376(4) 0.26576(11)
C11 C 0.0000 0.0000 0.8538(3)
C12 C 0.0000 0.0000 0.8972(3)
C15 C 0.0000 0.0000 0.9779(3)
O1_2 O 0.0000 1.0000 0.2500
C4_2 C 0.0000 1.0000 0.1462(3)
C5_2 C -0.0000 1.0000 0.1028(3)
C8_2 C 0.0000 1.0000 0.0221(3)
O3 O 0.0680(3) 0.9320(3) 0.16267(13)
C9 C 0.0703(7) 0.9297(7) 0.0819(3)
H6 H 0.1206 0.8794 0.0946
C10 C 0.0679(7) 0.9321(7) 0.0428(3)
H7 H 0.1177 0.8823 0.0295
N12 N 0.2526(3) 0.9624(4) 0.23424(11)
O4 O 0.0680(3) 0.9320(3) 0.83733(13)
C11_2 C 0.0000 1.0000 0.8538(3)
C12_2 C 0.0000 1.0000 0.8972(3)
C13 C 0.0703(7) 0.9297(7) 0.9181(3)
H8 H 0.1206 0.8794 0.9054
C14 C 0.0679(7) 0.9321(7) 0.9572(3)
H9 H 0.1177 0.8823 0.9705
C15_2 C 0.0000 1.0000 0.9779(3)
Zn9 Zn 0.09798(5) 0.90202(5) 0.78205(2)
Zn1 Zn 0.90202(5) 0.09798(5) 0.21795(2)
O1_3 O 1.0000 0.0000 0.2500
O2 O 0.9320(3) 0.0680(3) 0.16267(13)
N1 N 0.9624(4) 0.2526(3) 0.23424(11)
C1 C 0.9414(5) 0.3627(4) 0.22511(14)
C2_2 C 1.0000 0.4356(6) 0.2500
C3 C 0.8645(7) 0.3902(5) 0.19139(19)
H1 H 0.8546 0.3219 0.1758
H2 H 0.8994 0.4505 0.1761
H3 H 0.7903 0.4159 0.2007
C4_3 C 1.0000 0.0000 0.1462(3)
C5_3 C 1.0000 0.0000 0.1028(3)
C6 C 0.9297(7) 0.0703(7) 0.0819(3)
H4 H 0.8794 0.1206 0.0946
C7 C 0.9321(7) 0.0679(7) 0.0428(3)
H5 H 0.8823 0.1177 0.0295
C8_3 C 1.0000 0.0000 0.0221(3)
C19_2 C 1.0000 0.5644(6) 0.2500
N4 N 0.9624(4) 0.7474(3) 0.26576(11)
C23 C 0.9414(5) 0.6373(4) 0.27489(14)
C24 C 0.8645(7) 0.6098(5) 0.30861(19)
H18 H 0.8546 0.6781 0.3242
H19 H 0.8994 0.5495 0.3239
H20 H 0.7903 0.5841 0.2993
Zn8 Zn 0.90202(5) 0.90202(5) 0.28205(2)
N11 N 0.7474(3) 0.0376(4) 0.23424(11)
C11_3 C 1.0000 0.0000 0.8538(3)
C12_3 C 1.0000 0.0000 0.8972(3)
C15_3 C 1.0000 0.0000 0.9779(3)
O5 O 0.9320(3) 0.0680(3) 0.83733(13)
C16 C 0.9297(7) 0.0703(7) 0.9181(3)
H10 H 0.8794 0.1206 0.9054
C17 C 0.9321(7) 0.0679(7) 0.9572(3)
H11 H 0.8823 0.1177 0.9705
Zn10 Zn 0.90202(5) 0.09798(5) 0.78205(2)
O1_4 O 1.0000 1.0000 0.2500
C4_4 C 1.0000 1.0000 0.1462(3)
C5_4 C 1.0000 1.0000 0.1028(3)
C8_4 C 1.0000 1.0000 0.0221(3)
O7 O 0.9320(3) 0.9320(3) 0.33733(13)
N10 N 0.7474(3) 0.9624(4) 0.26576(11)
C11_4 C 1.0000 1.0000 0.8538(3)
C12_4 C 1.0000 1.0000 0.8972(3)
C15_4 C 1.0000 1.0000 0.9779(3)
O1_5 O 0.0000 0.0000 0.7500
C4_5 C 0.0000 0.0000 0.6462(3)
C5_5 C 0.0000 0.0000 0.6028(3)
C8_5 C 0.0000 0.0000 0.5221(3)
O3_2 O 0.0680(3) 0.0680(3) 0.66267(13)
C9_2 C 0.0703(7) 0.0703(7) 0.5819(3)
H6_2 H 0.1206 0.1206 0.5946
C10_2 C 0.0679(7) 0.0679(7) 0.5428(3)
H7_2 H 0.1177 0.1177 0.5295
C11_5 C 0.0000 0.0000 0.3538(3)
C12_5 C 0.0000 0.0000 0.3972(3)
C13_2 C 0.0703(7) 0.0703(7) 0.4181(3)
H8_2 H 0.1206 0.1206 0.4054
C14_2 C 0.0679(7) 0.0679(7) 0.4572(3)
H9_2 H 0.1177 0.1177 0.4705
C15_5 C 0.0000 0.0000 0.4779(3)
Zn2 Zn 0.09798(5) 0.09798(5) 0.71795(2)
N5 N 0.2526(3) 0.0376(4) 0.73424(11)
C25 C 0.3627(4) 0.0586(5) 0.72511(14)
C26 C 0.4356(6) 0.0000 0.7500
C27 C 0.3902(5) 0.1355(7) 0.69139(19)
H21 H 0.3219 0.1454 0.6758
H22 H 0.4505 0.1006 0.6761
H23 H 0.4159 0.2097 0.7007
C29 C 0.5644(6) 0.0000 0.7500
N8 N 0.7474(3) 0.0376(4) 0.76576(11)
C33 C 0.6373(4) 0.0586(5) 0.77489(14)
C34 C 0.6098(5) 0.1355(7) 0.80861(19)
H30 H 0.6781 0.1454 0.8242
H31 H 0.5495 0.1006 0.8239
H32 H 0.5841 0.2097 0.7993
N12_2 N 0.0376(4) 0.2526(3) 0.73424(11)
O1_6 O -0.0000 1.0000 0.7500
C4_6 C -0.0000 1.0000 0.6462(3)
C5_6 C 0.0000 1.0000 0.6028(3)
C8_6 C -0.0000 1.0000 0.5221(3)
C11_6 C 0.0000 1.0000 0.3538(3)
C12_6 C 0.0000 1.0000 0.3972(3)
C15_6 C -0.0000 1.0000 0.4779(3)
C26_2 C 0.4356(6) 1.0000 0.7500
N6 N 0.7474(3) 0.9624(4) 0.73424(11)
C28 C 0.6373(4) 0.9414(5) 0.72511(14)
C29_2 C 0.5644(6) 1.0000 0.7500
C30 C 0.6098(5) 0.8645(7) 0.69139(19)
H24 H 0.6781 0.8546 0.6758
H25 H 0.5495 0.8994 0.6761
H26 H 0.5841 0.7903 0.7007
N7 N 0.2526(3) 0.9624(4) 0.76576(11)
C31 C 0.3627(4) 0.9414(5) 0.77489(14)
C32 C 0.3902(5) 0.8645(7) 0.80861(19)
H27 H 0.3219 0.8546 0.8242
H28 H 0.4505 0.8994 0.8239
H29 H 0.4159 0.7903 0.7993
Zn5 Zn 0.90202(5) 0.90202(5) 0.71795(2)
N10_2 N 0.0376(4) 0.7474(3) 0.76576(11)
O1_7 O 1.0000 0.0000 0.7500
C4_7 C 1.0000 0.0000 0.6462(3)
C5_7 C 1.0000 0.0000 0.6028(3)
C8_7 C 1.0000 0.0000 0.5221(3)
C11_7 C 1.0000 0.0000 0.3538(3)
C12_7 C 1.0000 0.0000 0.3972(3)
C15_7 C 1.0000 0.0000 0.4779(3)
N9_2 N 0.9624(4) 0.2526(3) 0.76576(11)
O1_8 O 1.0000 1.0000 0.7500
O2_2 O 0.9320(3) 0.9320(3) 0.66267(13)
C4_8 C 1.0000 1.0000 0.6462(3)
C5_8 C 1.0000 1.0000 0.6028(3)
C6_2 C 0.9297(7) 0.9297(7) 0.5819(3)
H4_2 H 0.8794 0.8794 0.5946
C7_2 C 0.9321(7) 0.9321(7) 0.5428(3)
H5_2 H 0.8823 0.8823 0.5295
C8_8 C 1.0000 1.0000 0.5221(3)
C11_8 C 1.0000 1.0000 0.3538(3)
C12_8 C 1.0000 1.0000 0.3972(3)
C15_8 C 1.0000 1.0000 0.4779(3)
C16_2 C 0.9297(7) 0.9297(7) 0.4181(3)
H10_2 H 0.8794 0.8794 0.4054
C17_2 C 0.9321(7) 0.9321(7) 0.4572(3)
H11_2 H 0.8823 0.8823 0.4705
N11_2 N 0.9624(4) 0.7474(3) 0.73424(11)
C26_3 C -0.0000 0.4356(6) 0.7500
C28_2 C 0.0586(5) 0.6373(4) 0.77489(14)
C29_3 C 0.0000 0.5644(6) 0.7500
C30_2 C 0.1355(7) 0.6098(5) 0.80861(19)
H24_2 H 0.1454 0.6781 0.8242
H25_2 H 0.1006 0.5495 0.8239
H26_2 H 0.2097 0.5841 0.7993
C31_2 C 0.0586(5) 0.3627(4) 0.72511(14)
C32_2 C 0.1355(7) 0.3902(5) 0.69139(19)
H27_2 H 0.1454 0.3219 0.6758
H28_2 H 0.1006 0.4505 0.6761
H29_2 H 0.2097 0.4159 0.7007
C25_2 C 0.9414(5) 0.3627(4) 0.77489(14)
C26_4 C 1.0000 0.4356(6) 0.7500
C27_2 C 0.8645(7) 0.3902(5) 0.80861(19)
H21_2 H 0.8546 0.3219 0.8242
H22_2 H 0.8994 0.4505 0.8239
H23_2 H 0.7903 0.4159 0.7993
C29_4 C 1.0000 0.5644(6) 0.7500
C33_2 C 0.9414(5) 0.6373(4) 0.72511(14)
C34_2 C 0.8645(7) 0.6098(5) 0.69139(19)
H30_2 H 0.8546 0.6781 0.6758
H31_2 H 0.8994 0.5495 0.6761
H32_2 H 0.7903 0.5841 0.7007
C1_2 C 0.3627(4) 0.0586(5) 0.27489(14)
C2_3 C 0.4356(6) 0.0000 0.2500
C3_2 C 0.3902(5) 0.1355(7) 0.30861(19)
H1_2 H 0.3219 0.1454 0.3242
H2_2 H 0.4505 0.1006 0.3239
H3_2 H 0.4159 0.2097 0.2993
C19_3 C 0.5644(6) 0.0000 0.2500
C23_2 C 0.6373(4) 0.0586(5) 0.22511(14)
C24_2 C 0.6098(5) 0.1355(7) 0.19139(19)
H18_2 H 0.6781 0.1454 0.1758
H19_2 H 0.5495 0.1006 0.1761
H20_2 H 0.5841 0.2097 0.2007
C2_4 C 0.4356(6) 1.0000 0.2500
C18_2 C 0.6373(4) 0.9414(5) 0.27489(14)
C19_4 C 0.5644(6) 1.0000 0.2500
C20_2 C 0.6098(5) 0.8645(7) 0.30861(19)
H12_2 H 0.6781 0.8546 0.3242
H13_2 H 0.5495 0.8994 0.3239
H14_2 H 0.5841 0.7903 0.2993
C21_2 C 0.3627(4) 0.9414(5) 0.22511(14)
C22_2 C 0.3902(5) 0.8645(7) 0.19139(19)
H15_2 H 0.3219 0.8546 0.1758
H16_2 H 0.4505 0.8994 0.1761
H17_2 H 0.4159 0.7903 0.2007
loop_
_geom_bond_atom_site_label_1
_geom_bond_atom_site_label_2
_geom_bond_site_symmetry_1
_geom_bond_site_symmetry_2
C5 C4 1_555 1_555
N2 C18 1_555 1_555
C18 C19 1_555 1_555
C19 C2 1_555 1_555
C20 C18 1_555 1_555
H12 C20 1_555 1_555
H13 C20 1_555 1_555
H14 C20 1_555 1_555
C21 C2 1_555 1_555
C22 C21 1_555 1_555
H15 C22 1_555 1_555
H16 C22 1_555 1_555
H17 C22 1_555 1_555
Zn3 O1 1_555 1_555
Zn6 N2 1_555 1_555
O6 Zn3 1_555 1_555
N9 Zn3 1_555 1_555
N3 C21 1_555 1_555
N3 Zn3 1_555 1_555
C11 C12 1_555 1_555
O1_2 Zn6 1_555 1_555
C5_2 C4_2 1_555 1_555
O3 C4_2 1_555 1_555
C9 C5_2 1_555 1_555
H6 C9 1_555 1_555
C10 C8_2 1_555 1_555
H7 C10 1_555 1_555
Zn6 O3 1_555 1_555
N12 Zn6 1_555 1_555
C9 C10 1_555 1_555
O4 C11_2 1_555 1_555
C11_2 C12_2 1_555 1_555
C12_2 C13 1_555 1_555
C13 H8 1_555 1_555
C14 C13 1_555 1_555
H9 C14 1_555 1_555
Zn9 O4 1_555 1_555
C14 C15_2 1_555 1_555
Zn1 O1_3 1_555 1_555
O2 Zn1 1_555 1_555
N1 Zn1 1_555 1_555
C1 N1 1_555 1_555
C2_2 C1 1_555 1_555
C3 C1 1_555 1_555
H1 C3 1_555 1_555
H2 C3 1_555 1_555
H3 C3 1_555 1_555
C4_3 O2 1_555 1_555
C5_3 C4_3 1_555 1_555
C6 C5_3 1_555 1_555
H4 C6 1_555 1_555
C7 C6 1_555 1_555
H5 C7 1_555 1_555
C8_3 C7 1_555 1_555
C19_2 C2_2 1_555 1_555
C23 C19_2 1_555 1_555
C24 C23 1_555 1_555
H18 C24 1_555 1_555
H19 C24 1_555 1_555
H20 C24 1_555 1_555
Zn8 N4 1_555 1_555
N11 Zn1 1_555 1_555
N4 C23 1_555 1_555
C11_3 C12_3 1_555 1_555
O5 C11_3 1_555 1_555
C16 C12_3 1_555 1_555
H10 C16 1_555 1_555
C17 C15_3 1_555 1_555
H11 C17 1_555 1_555
Zn10 O5 1_555 1_555
C16 C17 1_555 1_555
C5_4 C4_4 1_555 1_555
Zn8 O1_4 1_555 1_555
O7 Zn8 1_555 1_555
N10 Zn8 1_555 1_555
C11_4 C12_4 1_555 1_555
O1_5 Zn2 1_555 1_555
C5_5 C4_5 1_555 1_555
O3_2 C4_5 1_555 1_555
C9_2 C5_5 1_555 1_555
H6_2 C9_2 1_555 1_555
C10_2 C8_5 1_555 1_555
H7_2 C10_2 1_555 1_555
O6 C11_5 1_555 1_555
C11_5 C12_5 1_555 1_555
C12_5 C13_2 1_555 1_555
C13_2 H8_2 1_555 1_555
C14_2 C13_2 1_555 1_555
H9_2 C14_2 1_555 1_555
C15_5 C8_5 1_555 1_555
Zn2 O3_2 1_555 1_555
N5 Zn2 1_555 1_555
C25 N5 1_555 1_555
C26 C25 1_555 1_555
C27 C25 1_555 1_555
H21 C27 1_555 1_555
H22 C27 1_555 1_555
H23 C27 1_555 1_555
C29 C26 1_555 1_555
C33 C29 1_555 1_555
C34 C33 1_555 1_555
H30 C34 1_555 1_555
H31 C34 1_555 1_555
H32 C34 1_555 1_555
Zn10 N8 1_555 1_555
N12_2 Zn2 1_555 1_555
C9_2 C10_2 1_555 1_555
C14_2 C15_5 1_555 1_555
N8 C33 1_555 1_555
C5_6 C4_6 1_555 1_555
C11_6 C12_6 1_555 1_555
C15_6 C8_6 1_555 1_555
N6 C28 1_555 1_555
C28 C29_2 1_555 1_555
C29_2 C26_2 1_555 1_555
C30 C28 1_555 1_555
H24 C30 1_555 1_555
H25 C30 1_555 1_555
H26 C30 1_555 1_555
C31 C26_2 1_555 1_555
C32 C31 1_555 1_555
H27 C32 1_555 1_555
H28 C32 1_555 1_555
H29 C32 1_555 1_555
Zn9 O1_6 1_555 1_555
Zn5 N6 1_555 1_555
N10_2 Zn9 1_555 1_555
N7 C31 1_555 1_555
N7 Zn9 1_555 1_555
C5_7 C4_7 1_555 1_555
C11_7 C12_7 1_555 1_555
C15_7 C8_7 1_555 1_555
Zn10 O1_7 1_555 1_555
N9_2 Zn10 1_555 1_555
Zn5 O1_8 1_555 1_555
O2_2 Zn5 1_555 1_555
C4_8 O2_2 1_555 1_555
C5_8 C4_8 1_555 1_555
C6_2 C5_8 1_555 1_555
H4_2 C6_2 1_555 1_555
C7_2 C6_2 1_555 1_555
H5_2 C7_2 1_555 1_555
C8_8 C7_2 1_555 1_555
C11_8 C12_8 1_555 1_555
C15_8 C8_8 1_555 1_555
O7 C11_8 1_555 1_555
C16_2 C12_8 1_555 1_555
H10_2 C16_2 1_555 1_555
C17_2 C15_8 1_555 1_555
H11_2 C17_2 1_555 1_555
N11_2 Zn5 1_555 1_555
C16_2 C17_2 1_555 1_555
N10_2 C28_2 1_555 1_555
C28_2 C29_3 1_555 1_555
C29_3 C26_3 1_555 1_555
C30_2 C28_2 1_555 1_555
H24_2 C30_2 1_555 1_555
H25_2 C30_2 1_555 1_555
H26_2 C30_2 1_555 1_555
C31_2 C26_3 1_555 1_555
C32_2 C31_2 1_555 1_555
H27_2 C32_2 1_555 1_555
H28_2 C32_2 1_555 1_555
H29_2 C32_2 1_555 1_555
N12_2 C31_2 1_555 1_555
C25_2 N9_2 1_555 1_555
C26_4 C25_2 1_555 1_555
C27_2 C25_2 1_555 1_555
H21_2 C27_2 1_555 1_555
H22_2 C27_2 1_555 1_555
H23_2 C27_2 1_555 1_555
C29_4 C26_4 1_555 1_555
C33_2 C29_4 1_555 1_555
C34_2 C33_2 1_555 1_555
H30_2 C34_2 1_555 1_555
H31_2 C34_2 1_555 1_555
H32_2 C34_2 1_555 1_555
N11_2 C33_2 1_555 1_555
C1_2 N9 1_555 1_555
C2_3 C1_2 1_555 1_555
C3_2 C1_2 1_555 1_555
H1_2 C3_2 1_555 1_555
H2_2 C3_2 1_555 1_555
H3_2 C3_2 1_555 1_555
C19_3 C2_3 1_555 1_555
C23_2 C19_3 1_555 1_555
C24_2 C23_2 1_555 1_555
H18_2 C24_2 1_555 1_555
H19_2 C24_2 1_555 1_555
H20_2 C24_2 1_555 1_555
N11 C23_2 1_555 1_555
N10 C18_2 1_555 1_555
C18_2 C19_4 1_555 1_555
C19_4 C2_4 1_555 1_555
C20_2 C18_2 1_555 1_555
H12_2 C20_2 1_555 1_555
H13_2 C20_2 1_555 1_555
H14_2 C20_2 1_555 1_555
C21_2 C2_4 1_555 1_555
C22_2 C21_2 1_555 1_555
H15_2 C22_2 1_555 1_555
H16_2 C22_2 1_555 1_555
H17_2 C22_2 1_555 1_555
N12 C21_2 1_555 1_555

#END
