
###############################################################################
#
# This file contains modified crystal structure data generated from the
# MOF subset of the Cambridge Structural Database (CSD) v543 
# hosted by the Cambridge Crystallographic Data Centre (CCDC).
#
# This work is licensed under the Creative Commons
# Attribution-NonCommercial-ShareAlike 4.0 International License.
# To view a copy of this license, visit
# http://creativecommons.org/licenses/by-nc-sa/4.0/
# or send a letter to
# Creative Commons, PO Box 1866, Mountain View, CA 94042, USA.
#
# CIF created using the CSD Python API on 29 September 2022
# The structure has been converted into the P1 space group
# The structure has a 3D framework
# The original CSD entry HUDWUA is in the triclinic crystal system
# The framework has been calculated to contain at least 10.0% void space
# The void calculation uses a probe of radius 1.32A, grid spacing 0.4
#
###############################################################################

data_HUDWUA
_chemical_formula_moiety         '(C62 H52 Cu6 N2 O24)n'
_symmetry_cell_setting           triclinic
_symmetry_space_group_name_H-M   'P 1'
_symmetry_Int_Tables_number      1
_space_group_name_Hall           'P 1'
loop_
_symmetry_equiv_pos_site_id
_symmetry_equiv_pos_as_xyz
1 x,y,z
_cell_length_a                   12.079(2)
_cell_length_b                   12.382(3)
_cell_length_c                   12.568(3)
_cell_angle_alpha                99.99(3)
_cell_angle_beta                 96.00(3)
_cell_angle_gamma                91.29(3)
_cell_volume                     1839.47
loop_
_atom_site_label
_atom_site_type_symbol
_atom_site_fract_x
_atom_site_fract_y
_atom_site_fract_z
Cu3 Cu 0.5000 0.0000 0.0000
O30 O 0.5809(8) 0.0570(9) 0.1277(7)
Cu9 Cu 0.67281(9) 0.03833(8) 0.35389(8)
C1 C 0.6861(7) 0.2438(7) 0.5215(7)
C2 C 0.7559(7) 0.3475(7) 0.5419(7)
C3 C 0.7910(9) 0.3972(8) 0.4582(8)
C4 C 0.8534(10) 0.4966(9) 0.4829(8)
H1 H 0.8762 0.5300 0.4267
C5 C 0.8813(10) 0.5453(8) 0.5890(8)
H2 H 0.9213 0.6131 0.6045
C6 C 0.8515(7) 0.4963(7) 0.6758(7)
C7 C 0.7861(7) 0.3996(7) 0.6516(7)
H3 H 0.7615 0.3682 0.7083
C8 C 0.8819(8) 0.5503(7) 0.7920(7)
C9 C 0.8075(8) 0.5474(7) 0.8700(7)
H4 H 0.7380 0.5099 0.8492
C10 C 0.8344(8) 0.5994(7) 0.9787(8)
C13 C 0.9840(7) 0.6065(7) 0.8274(7)
C28 C 0.9202(11) 0.1077(10) 0.4791(11)
C29 C 0.9709(12) 0.1504(12) 0.3865(13)
H13 H 0.9396 0.1078 0.3173
H15 H 0.9540 0.2269 0.3887
C30 C 0.9080(16) 0.1138(16) 0.6716(13)
H16 H 0.8572 0.1689 0.6989
H17 H 0.9655 0.1059 0.7293
H18 H 0.8672 0.0441 0.6462
N1 N 0.9609(11) 0.1485(10) 0.5787(11)
O1 O 0.6597(6) 0.1988(5) 0.4219(5)
O2 O 0.6565(5) 0.2069(5) 0.6011(5)
O9 O 0.7672(7) 0.3511(6) 0.3508(5)
H23 H 0.7694 0.2833 0.3440
O10 O 0.8401(6) 0.0415(7) 0.4580(7)
O12 O 0.4391 0.0074 0.2922
H25 H 0.4012 0.0637 0.3084
Cu4 Cu 0.53681(9) 0.09609(9) 0.58253(8)
O23 O 0.3949(5) 0.0109(5) 0.5254(5)
H50 H 0.3504 0.0506 0.4951
H52 H 0.5799 0.0268 0.7720
O26 O 0.4642(6) 0.2037(5) 0.6787(6)
O28 O 0.3197(5) 0.1146(5) 0.7277(5)
O32 O 0.7310(6) 0.1016(5) 0.2397(5)
C42 C 0.0650(8) 0.3443(7) 0.9934(7)
H31 H 0.0476 0.3080 0.9212
C45 C 0.2538(8) 0.4001(7) 0.9448(8)
C46 C 0.3200(11) 0.4934(9) 0.9498(10)
H33 H 0.3086 0.5577 0.9989
C47 C 0.4048(11) 0.4916(9) 0.8809(12)
H34 H 0.4468 0.5564 0.8808
C48 C 0.4270(10) 0.3968(9) 0.8138(11)
C49 C 0.3612(8) 0.3021(8) 0.8065(8)
C50 C 0.2753(7) 0.3051(8) 0.8741(7)
H35 H 0.2311 0.2410 0.8716
C51 C 0.3808(8) 0.1991(8) 0.7321(7)
O15 O 0.5189(9) 0.4042(8) 0.7560(9)
H48 H 0.4976 0.3962 0.6900
C43 C 0.9875(7) 0.3382(7) 0.0661(7)
H32 H 0.9637 0.3928 0.2229
C52 C 0.8788(7) 0.2777(7) 0.0323(7)
C56 C 0.7260(9) 0.1613(9) 0.0704(7)
C57 C 0.8264(7) 0.2222(7) 0.1014(7)
H38 H 0.8603 0.2258 0.1728
C58 C 0.6764(9) 0.1019(8) 0.1504(8)
H40 H 0.9490 0.8565 0.6050
C62 C 0.9403(16) 0.7762(14) 0.3952(16)
H45 H 0.8735 0.8183 0.3949
H46 H 0.9426 0.7314 0.3241
H47 H 0.9395 0.7293 0.4494
Cu3_2 Cu 0.5000 0.0000 1.0000
O29 O 0.5818(8) 0.0919(9) 0.9219(6)
C53 C 0.8273(8) 0.2691(8) 0.9260(7)
H36 H 0.8609 0.3043 0.8764
C54 C 0.7255(9) 0.2085(9) 0.8922(8)
H37 H 0.6908 0.2070 0.8214
C55 C 0.6761(9) 0.1514(10) 0.9608(8)
C22 C 0.1727(8) 0.7309(8) 0.0740(7)
H10 H 0.1391 0.6957 0.1236
C23 C 0.2745(9) 0.7915(9) 0.1078(8)
H11 H 0.3092 0.7930 0.1786
C24 C 0.3239(9) 0.8486(10) 0.0392(8)
Cu3_3 Cu 0.5000 1.0000 0.0000
O6 O 0.4182(8) 0.9081(9) 0.0781(6)
C12 C 0.0125(7) 0.6618(7) 0.9339(7)
H6 H 0.0363 0.6072 0.7771
C21 C 0.1212(7) 0.7223(7) 0.9677(7)
C25 C 0.2740(9) 0.8387(9) 0.9296(7)
C26 C 0.1736(7) 0.7778(7) 0.8986(7)
H12 H 0.1397 0.7742 0.8272
C27 C 0.3236(9) 0.8981(8) 0.8496(8)
H14 H 0.0510 0.1435 0.3950
C31 C 0.0597(16) 0.2238(14) 0.6048(16)
H19 H 0.1265 0.1817 0.6051
H20 H 0.0574 0.2686 0.6759
H21 H 0.0605 0.2707 0.5506
Cu3_4 Cu 0.5000 1.0000 1.0000
O7 O 0.4191(8) 0.9430(9) 0.8723(7)
O8 O 0.2690(6) 0.8984(5) 0.7603(5)
Cu11 Cu 0.32719(9) 0.96167(8) 0.64611(8)
C11 C 0.9350(8) 0.6557(7) 0.0066(7)
H5 H 0.9524 0.6920 0.0788
C14 C 0.7462(8) 0.5999(7) 0.0552(8)
C15 C 0.6800(11) 0.5066(9) 0.0502(10)
H7 H 0.6914 0.4423 0.0011
C16 C 0.5952(11) 0.5084(9) 0.1191(12)
H8 H 0.5532 0.4436 0.1192
C17 C 0.5730(10) 0.6032(9) 0.1862(11)
C18 C 0.6388(8) 0.6979(8) 0.1935(8)
C19 C 0.7247(7) 0.6949(8) 0.1259(7)
H9 H 0.7689 0.7590 0.1284
C20 C 0.6192(8) 0.8009(8) 0.2679(7)
O3 O 0.4811(9) 0.5958(8) 0.2440(9)
H22 H 0.5024 0.6038 0.3100
O4 O 0.5358(6) 0.7963(5) 0.3213(6)
O5 O 0.6803(5) 0.8854(5) 0.2723(5)
Cu6 Cu 0.46319(9) 0.90391(9) 0.41747(8)
O11 O 0.6051(5) 0.9891(5) 0.4746(5)
H24 H 0.6496 0.9494 0.5049
H26 H 0.4201 0.9732 0.2280
C32 C 0.3139(7) 0.7562(7) 0.4785(7)
C33 C 0.2441(7) 0.6525(7) 0.4581(7)
C34 C 0.2090(9) 0.6028(8) 0.5418(8)
C35 C 0.1466(10) 0.5034(9) 0.5171(8)
H27 H 0.1238 0.4700 0.5733
C36 C 0.1187(10) 0.4547(8) 0.4110(8)
H28 H 0.0787 0.3869 0.3955
C37 C 0.1485(7) 0.5037(7) 0.3242(7)
C38 C 0.2139(7) 0.6004(7) 0.3484(7)
H29 H 0.2385 0.6318 0.2917
C39 C 0.1181(8) 0.4497(7) 0.2080(7)
C40 C 0.1925(8) 0.4526(7) 0.1300(7)
H30 H 0.2620 0.4901 0.1508
C41 C 0.1656(8) 0.4006(7) 0.0213(8)
C44 C 0.0160(7) 0.3935(7) 0.1726(7)
C59 C 0.0798(11) 0.8923(10) 0.5209(11)
C60 C 0.0291(12) 0.8496(12) 0.6135(13)
H39 H 0.0604 0.8922 0.6827
H41 H 0.0460 0.7731 0.6113
C61 C 0.0920(16) 0.8862(16) 0.3284(13)
H42 H 0.1428 0.8311 0.3011
H43 H 0.0345 0.8941 0.2707
H44 H 0.1328 0.9559 0.3538
N2 N 0.0391(11) 0.8515(10) 0.4213(11)
O13 O 0.3403(6) 0.8012(5) 0.5781(5)
O14 O 0.3435(5) 0.7931(5) 0.3989(5)
O21 O 0.2328(7) 0.6489(6) 0.6492(5)
H49 H 0.2306 0.7167 0.6560
O22 O 0.1599(6) 0.9585(7) 0.5420(7)
O24 O 0.5609 0.9926 0.7078
H51 H 0.5988 0.9363 0.6916
loop_
_geom_bond_atom_site_label_1
_geom_bond_atom_site_label_2
_geom_bond_site_symmetry_1
_geom_bond_site_symmetry_2
O30 Cu3 1_555 1_555
C1 C2 1_555 1_555
C2 C3 1_555 1_555
C3 C4 1_555 1_555
C4 H1 1_555 1_555
C5 C4 1_555 1_555
H2 C5 1_555 1_555
C6 C5 1_555 1_555
C7 C2 1_555 1_555
H3 C7 1_555 1_555
C8 C6 1_555 1_555
C9 C8 1_555 1_555
H4 C9 1_555 1_555
C10 C9 1_555 1_555
C13 C8 1_555 1_555
C28 C29 1_555 1_555
C29 H13 1_555 1_555
H15 C29 1_555 1_555
C30 H16 1_555 1_555
H17 C30 1_555 1_555
H18 C30 1_555 1_555
Cu9 O1 1_555 1_555
N1 C28 1_555 1_555
O1 C1 1_555 1_555
O2 C1 1_555 1_555
O9 C3 1_555 1_555
H23 O9 1_555 1_555
O10 C28 1_555 1_555
H25 O12 1_555 1_555
Cu4 O2 1_555 1_555
H50 O23 1_555 1_555
O26 Cu4 1_555 1_555
O32 Cu9 1_555 1_555
C6 C7 1_555 1_555
C30 N1 1_555 1_555
Cu9 O10 1_555 1_555
Cu4 O23 1_555 1_555
H31 C42 1_555 1_555
C46 C45 1_555 1_555
H33 C46 1_555 1_555
C47 C46 1_555 1_555
H34 C47 1_555 1_555
C48 C47 1_555 1_555
C49 C48 1_555 1_555
C50 C45 1_555 1_555
H35 C50 1_555 1_555
C51 C49 1_555 1_555
O15 C48 1_555 1_555
H48 O15 1_555 1_555
O26 C51 1_555 1_555
O28 C51 1_555 1_555
C49 C50 1_555 1_555
C52 C43 1_555 1_555
C57 C52 1_555 1_555
H38 C57 1_555 1_555
C58 C56 1_555 1_555
C62 H45 1_555 1_555
H46 C62 1_555 1_555
H47 C62 1_555 1_555
O30 C58 1_555 1_555
O32 C58 1_555 1_555
C56 C57 1_555 1_555
O29 Cu3_2 1_555 1_555
H36 C53 1_555 1_555
C54 C53 1_555 1_555
H37 C54 1_555 1_555
C55 C54 1_555 1_555
O29 C55 1_555 1_555
H10 C22 1_555 1_555
C23 C22 1_555 1_555
H11 C23 1_555 1_555
C24 C23 1_555 1_555
Cu3_3 O6 1_555 1_555
O6 C24 1_555 1_555
C21 C12 1_555 1_555
C26 C21 1_555 1_555
H12 C26 1_555 1_555
C27 C25 1_555 1_555
C31 H19 1_555 1_555
H20 C31 1_555 1_555
H21 C31 1_555 1_555
O7 C27 1_555 1_555
O8 C27 1_555 1_555
Cu11 O8 1_555 1_555
C25 C26 1_555 1_555
Cu3_4 O7 1_555 1_555
H5 C11 1_555 1_555
C15 C14 1_555 1_555
H7 C15 1_555 1_555
C16 C15 1_555 1_555
H8 C16 1_555 1_555
C17 C16 1_555 1_555
C18 C17 1_555 1_555
C19 C14 1_555 1_555
H9 C19 1_555 1_555
C20 C18 1_555 1_555
O3 C17 1_555 1_555
H22 O3 1_555 1_555
O4 C20 1_555 1_555
O5 C20 1_555 1_555
Cu6 O4 1_555 1_555
C18 C19 1_555 1_555
Cu6 O11 1_555 1_555
H24 O11 1_555 1_555
C32 C33 1_555 1_555
C33 C34 1_555 1_555
C34 C35 1_555 1_555
C35 H27 1_555 1_555
C36 C35 1_555 1_555
H28 C36 1_555 1_555
C37 C36 1_555 1_555
C38 C33 1_555 1_555
H29 C38 1_555 1_555
C39 C37 1_555 1_555
C40 C39 1_555 1_555
H30 C40 1_555 1_555
C41 C40 1_555 1_555
C44 C39 1_555 1_555
C59 C60 1_555 1_555
C60 H39 1_555 1_555
H41 C60 1_555 1_555
C61 H42 1_555 1_555
H43 C61 1_555 1_555
H44 C61 1_555 1_555
Cu11 O13 1_555 1_555
N2 C59 1_555 1_555
O13 C32 1_555 1_555
O14 Cu6 1_555 1_555
O21 C34 1_555 1_555
H49 O21 1_555 1_555
O22 C59 1_555 1_555
H51 O24 1_555 1_555
C32 O14 1_555 1_555
C37 C38 1_555 1_555
C61 N2 1_555 1_555
Cu11 O22 1_555 1_555

#END
