
###############################################################################
#
# This file contains modified crystal structure data generated from the
# MOF subset of the Cambridge Structural Database (CSD) v543 
# hosted by the Cambridge Crystallographic Data Centre (CCDC).
#
# This work is licensed under the Creative Commons
# Attribution-NonCommercial-ShareAlike 4.0 International License.
# To view a copy of this license, visit
# http://creativecommons.org/licenses/by-nc-sa/4.0/
# or send a letter to
# Creative Commons, PO Box 1866, Mountain View, CA 94042, USA.
#
# CIF created using the CSD Python API on 29 September 2022
# The structure has been converted into the P1 space group
# The structure has a 3D framework
# The original CSD entry HUFHIB is in the rhombohedral crystal system
# The framework has been calculated to contain at least 10.0% void space
# The void calculation uses a probe of radius 1.32A, grid spacing 0.4
# The framework is charged, counterions have been retained in the structure
#
###############################################################################

data_HUFHIB
_chemical_formula_moiety         '(C162 H144 Ag18 F108 N72 P18)n'
_symmetry_cell_setting           triclinic
_symmetry_space_group_name_H-M   'P 1'
_symmetry_Int_Tables_number      1
_space_group_name_Hall           'P 1'
loop_
_symmetry_equiv_pos_site_id
_symmetry_equiv_pos_as_xyz
1 x,y,z
_cell_length_a                   29.054(2)
_cell_length_b                   29.054(2)
_cell_length_c                   12.6638(16)
_cell_angle_alpha                90
_cell_angle_beta                 90
_cell_angle_gamma                120
_cell_volume                     9257.77
loop_
_atom_site_label
_atom_site_type_symbol
_atom_site_fract_x
_atom_site_fract_y
_atom_site_fract_z
Ag1 Ag 0.47070(3) 0.07052(3) 0.21322(6)
N1 N 0.4440(4) 0.1304(3) 0.2982(7)
N2 N 0.4180(3) 0.2018(3) 0.3865(7)
N4 N 0.4256(3) 0.0796(3) 0.0712(6)
C1 C 0.4432(4) 0.1693(3) 0.2399(7)
C2 C 0.3784(4) 0.1209(4) 0.0058(7)
H1 H 0.3748 0.1516 0.0044
C3 C 0.3925(4) 0.0370(4) 0.0151(8)
H2 H 0.3966 0.0066 0.0168
C4 C 0.4194(4) 0.1223(4) 0.0647(7)
C6 C 0.4153(4) 0.1625(4) 0.4416(9)
H4 H 0.4038 0.1582 0.5129
C7 C 0.4286(5) 0.1277(4) 0.3999(8)
H5 H 0.4271 0.1004 0.4437
C8 C 0.4305(4) 0.2044(4) 0.2841(8)
H6 H 0.4307 0.2313 0.2412
C9 C 0.4581(4) 0.1713(3) 0.1260(8)
H7 H 0.4939 0.1752 0.1217
H8 H 0.4599 0.2030 0.0927
Ag3 Ag 0.40385(3) 0.26649(4) 0.45345(6)
N5 N 0.5495(4) 0.0847(3) 0.2802(7)
N6 N 0.4009(4) 0.9893(3) 0.2844(6)
N6_2 N 0.0107(3) 0.4115(5) 0.2844(6)
Ag1_2 Ag 0.92948(3) 0.40018(4) 0.21322(6)
N1_2 N 0.8696(3) 0.3136(5) 0.2982(7)
N2_2 N 0.7982(3) 0.2162(4) 0.3865(7)
N4_2 N 0.9204(3) 0.3460(4) 0.0712(6)
C1_2 C 0.8307(3) 0.2739(5) 0.2399(7)
C2_2 C 0.8791(4) 0.2575(6) 0.0058(7)
H1_2 H 0.8484 0.2232 0.0044
C3_2 C 0.9630(4) 0.3555(6) 0.0151(8)
H2_2 H 0.9934 0.3900 0.0168
C4_2 C 0.8777(4) 0.2971(6) 0.0647(7)
C6_2 C 0.8375(4) 0.2528(6) 0.4416(9)
H4_2 H 0.8418 0.2456 0.5129
C7_2 C 0.8723(4) 0.3009(6) 0.3999(8)
H5_2 H 0.8996 0.3267 0.4437
C8_2 C 0.7956(4) 0.2261(6) 0.2841(8)
H6_2 H 0.7687 0.1994 0.2412
C9_2 C 0.8287(3) 0.2868(5) 0.1260(8)
H7_2 H 0.8248 0.3187 0.1217
H8_2 H 0.7970 0.2569 0.0927
Ag3_2 Ag 0.73351(4) 0.13737(5) 0.45345(6)
N5_2 N 0.9153(3) 0.4649(5) 0.2802(7)
Ag1_3 Ag 0.59982(4) 0.52930(3) 0.21322(6)
N1_3 N 0.6864(5) 0.5560(4) 0.2982(7)
N2_3 N 0.7838(4) 0.5820(3) 0.3865(7)
N4_3 N 0.6540(4) 0.5744(3) 0.0712(6)
C1_3 C 0.7261(5) 0.5568(4) 0.2399(7)
C2_3 C 0.7425(6) 0.6216(4) 0.0058(7)
H1_3 H 0.7768 0.6252 0.0044
C3_3 C 0.6445(6) 0.6075(4) 0.0151(8)
H2_3 H 0.6100 0.6034 0.0168
C4_3 C 0.7029(6) 0.5806(4) 0.0647(7)
C6_3 C 0.7472(6) 0.5847(4) 0.4416(9)
H4_3 H 0.7544 0.5962 0.5129
C7_3 C 0.6991(6) 0.5714(5) 0.3999(8)
H5_3 H 0.6733 0.5729 0.4437
C8_3 C 0.7739(6) 0.5695(4) 0.2841(8)
H6_3 H 0.8006 0.5693 0.2412
C9_3 C 0.7132(5) 0.5419(4) 0.1260(8)
H7_3 H 0.6813 0.5061 0.1217
H8_3 H 0.7431 0.5401 0.0927
Ag3_3 Ag 0.86263(5) 0.59615(3) 0.45345(6)
N5_3 N 0.5351(5) 0.4505(4) 0.2802(7)
N6_3 N 0.5885(5) 0.5991(4) 0.2844(6)
N3 N 0.7342(4) 0.6560(3) 0.9511(6)
C5 C 0.6833(6) 0.6474(4) 0.9549(8)
H3 H 0.6746 0.6697 0.9149
Ag2 Ag 0.80403(5) 0.73719(3) 0.87989(6)
Ag1_4 Ag 0.13737(3) 0.40385(3) 0.54655(6)
N1_4 N 0.1107(4) 0.4637(3) 0.6315(7)
N2_4 N 0.0847(3) 0.5351(3) 0.7198(7)
N4_4 N 0.0923(3) 0.4129(3) 0.4045(6)
C1_4 C 0.1099(4) 0.5026(3) 0.5732(7)
C2_4 C 0.0451(4) 0.4542(4) 0.3391(7)
H1_4 H 0.0415 0.4849 0.3377
C3_4 C 0.0592(4) 0.3703(4) 0.3484(8)
H2_4 H 0.0633 0.3399 0.3501
C4_4 C 0.0861(4) 0.4556(4) 0.3980(7)
C5_2 C 0.0193(4) 0.3692(4) 0.2882(8)
C6_4 C 0.0820(4) 0.4958(4) 0.7749(9)
H4_4 H 0.0705 0.4915 0.8462
C7_4 C 0.0953(5) 0.4610(4) 0.7332(8)
H5_4 H 0.0938 0.4337 0.7770
C8_4 C 0.0972(4) 0.5377(4) 0.6174(8)
H6_4 H 0.0974 0.5646 0.5745
C9_4 C 0.1248(4) 0.5046(3) 0.4593(8)
H7_4 H 0.1606 0.5085 0.4550
H8_4 H 0.1266 0.5363 0.4260
Ag3_4 Ag 0.07052(3) 0.59982(4) 0.78678(6)
N5_4 N 0.2162(4) 0.4180(3) 0.6135(7)
N6_4 N 0.0675(4) 0.3227(3) 0.6178(6)
H3_2 H 0.9970 0.3382 0.2482
Ag1_5 Ag 0.59615(3) 0.73351(4) 0.54655(6)
N1_5 N 0.5363(3) 0.6469(5) 0.6315(7)
N2_5 N 0.4649(3) 0.5495(4) 0.7198(7)
N4_5 N 0.5871(3) 0.6793(4) 0.4045(6)
C1_5 C 0.4974(3) 0.6072(5) 0.5732(7)
C2_5 C 0.5458(4) 0.5908(6) 0.3391(7)
H1_5 H 0.5151 0.5565 0.3377
C3_5 C 0.6297(4) 0.6888(6) 0.3484(8)
H2_5 H 0.6601 0.7233 0.3501
C4_5 C 0.5444(4) 0.6304(6) 0.3980(7)
C5_3 C 0.6308(4) 0.6500(6) 0.2882(8)
H3_3 H 0.6618 0.6587 0.2482
C6_5 C 0.5042(4) 0.5861(6) 0.7749(9)
H4_5 H 0.5085 0.5789 0.8462
C7_5 C 0.5390(4) 0.6342(6) 0.7332(8)
H5_5 H 0.5663 0.6600 0.7770
C8_5 C 0.4623(4) 0.5594(6) 0.6174(8)
H6_5 H 0.4354 0.5327 0.5745
C9_5 C 0.4954(3) 0.6201(5) 0.4593(8)
H7_5 H 0.4915 0.6520 0.4550
H8_5 H 0.4637 0.5902 0.4260
Ag3_5 Ag 0.40018(4) 0.47070(5) 0.78678(6)
N5_5 N 0.5820(3) 0.7982(5) 0.6135(7)
N6_5 N 0.6773(3) 0.7449(5) 0.6178(6)
H3_4 H 0.3413 0.0030 0.2482
Ag1_6 Ag 0.26649(4) 0.86263(3) 0.54655(6)
N1_6 N 0.3531(5) 0.8893(4) 0.6315(7)
N2_6 N 0.4505(4) 0.9153(3) 0.7198(7)
N4_6 N 0.3207(4) 0.9077(3) 0.4045(6)
C1_6 C 0.3928(5) 0.8901(4) 0.5732(7)
C2_6 C 0.4092(6) 0.9549(4) 0.3391(7)
H1_6 H 0.4435 0.9585 0.3377
C3_6 C 0.3112(6) 0.9408(4) 0.3484(8)
H2_6 H 0.2767 0.9367 0.3501
C4_6 C 0.3696(6) 0.9139(4) 0.3980(7)
C5_4 C 0.3500(6) 0.9807(4) 0.2882(8)
C6_6 C 0.4139(6) 0.9180(4) 0.7749(9)
H4_6 H 0.4211 0.9295 0.8462
C7_6 C 0.3658(6) 0.9047(5) 0.7332(8)
H5_6 H 0.3400 0.9062 0.7770
C8_6 C 0.4406(6) 0.9028(4) 0.6174(8)
H6_6 H 0.4673 0.9026 0.5745
C9_6 C 0.3799(5) 0.8752(4) 0.4593(8)
H7_6 H 0.3480 0.8394 0.4550
H8_6 H 0.4098 0.8734 0.4260
Ag3_6 Ag 0.52930(5) 0.92948(3) 0.78678(6)
N5_6 N 0.2018(5) 0.7838(4) 0.6135(7)
N6_6 N 0.2551(5) 0.9325(4) 0.6178(6)
N1_7 N 0.7773(4) 0.7971(3) 0.9649(7)
N4_7 N 0.7589(3) 0.7463(3) 0.7379(6)
C1_7 C 0.7765(4) 0.8360(3) 0.9066(7)
C2_7 C 0.7117(4) 0.7876(4) 0.6725(7)
H1_7 H 0.7081 0.8183 0.6711
C3_7 C 0.7258(4) 0.7037(4) 0.6818(8)
H2_7 H 0.7299 0.6733 0.6835
C4_7 C 0.7527(4) 0.7890(4) 0.7314(7)
C5_5 C 0.6859(4) 0.7026(4) 0.6216(8)
H3_5 H 0.6636 0.6716 0.5816
C8_7 C 0.7638(4) 0.8711(4) 0.9508(8)
H6_7 H 0.7640 0.8980 0.9079
C9_7 C 0.7914(4) 0.8380(3) 0.7927(8)
H7_7 H 0.8272 0.8419 0.7884
H8_7 H 0.7932 0.8697 0.7594
N5_7 N 0.8829(4) 0.7513(3) 0.9468(7)
N1_8 N 0.2029(3) 0.9803(5) 0.9649(7)
C1_8 C 0.1640(3) 0.9406(5) 0.9066(7)
C2_8 C 0.2124(4) 0.9242(6) 0.6725(7)
H1_8 H 0.1817 0.8899 0.6711
C4_8 C 0.2110(4) 0.9638(6) 0.7314(7)
C5_6 C 0.2974(4) 0.9834(6) 0.6216(8)
H3_6 H 0.3284 0.9921 0.5816
C8_8 C 0.1289(4) 0.8928(6) 0.9508(8)
H6_8 H 0.1020 0.8661 0.9079
C9_8 C 0.1620(3) 0.9535(5) 0.7927(8)
H7_8 H 0.1581 0.9854 0.7884
H8_8 H 0.1303 0.9236 0.7594
N2_7 N 0.1171(4) 0.2487(3) 0.0532(7)
C6_7 C 0.0805(6) 0.2514(4) 0.1083(9)
H4_7 H 0.0877 0.2629 0.1796
C7_7 C 0.0324(6) 0.2381(5) 0.0666(8)
H5_7 H 0.0066 0.2396 0.1104
Ag3_7 Ag 0.19597(5) 0.26281(3) 0.12011(6)
N1_9 N 0.0197(5) 0.2227(4) 0.9649(7)
C1_9 C 0.0594(5) 0.2235(4) 0.9066(7)
C2_9 C 0.0758(6) 0.2883(4) 0.6725(7)
H1_9 H 0.1101 0.2919 0.6711
C4_9 C 0.0362(6) 0.2473(4) 0.7314(7)
C5_7 C 0.0166(6) 0.3141(4) 0.6216(8)
H3_7 H 0.0079 0.3364 0.5816
C8_9 C 0.1072(6) 0.2362(4) 0.9508(8)
H6_9 H 0.1339 0.2360 0.9079
C9_9 C 0.0465(5) 0.2086(4) 0.7927(8)
H7_9 H 0.0146 0.1728 0.7884
H8_9 H 0.0764 0.2068 0.7594
N6_7 N 0.5991(4) 0.0107(3) 0.7156(6)
N1_10 N 0.5560(4) 0.8696(3) 0.7018(7)
N4_8 N 0.5744(3) 0.9204(3) 0.9288(6)
C1_10 C 0.5568(4) 0.8307(3) 0.7601(7)
C2_10 C 0.6216(4) 0.8791(4) 0.9942(7)
H1_10 H 0.6252 0.8484 0.9956
C3_8 C 0.6075(4) 0.9630(4) 0.9849(8)
H2_8 H 0.6034 0.9934 0.9832
C4_10 C 0.5806(4) 0.8777(4) 0.9353(7)
C6_8 C 0.5847(4) 0.8375(4) 0.5584(9)
H4_8 H 0.5962 0.8418 0.4871
C7_8 C 0.5714(5) 0.8723(4) 0.6001(8)
H5_8 H 0.5729 0.8996 0.5563
C8_10 C 0.5695(4) 0.7956(4) 0.7159(8)
H6_10 H 0.5693 0.7687 0.7588
C9_10 C 0.5419(4) 0.8287(3) 0.8740(8)
H7_10 H 0.5061 0.8248 0.8783
H8_10 H 0.5401 0.7970 0.9073
N1_11 N 0.1304(3) 0.6864(5) 0.7018(7)
N4_9 N 0.0796(3) 0.6540(4) 0.9288(6)
C1_11 C 0.1693(3) 0.7261(5) 0.7601(7)
C2_11 C 0.1209(4) 0.7425(6) 0.9942(7)
H1_11 H 0.1516 0.7768 0.9956
C3_9 C 0.0370(4) 0.6445(6) 0.9849(8)
H2_9 H 0.0066 0.6100 0.9832
C4_11 C 0.1223(4) 0.7029(6) 0.9353(7)
C6_9 C 0.1625(4) 0.7472(6) 0.5584(9)
H4_9 H 0.1582 0.7544 0.4871
C7_9 C 0.1277(4) 0.6991(6) 0.6001(8)
H5_9 H 0.1004 0.6733 0.5563
C8_11 C 0.2044(4) 0.7739(6) 0.7159(8)
H6_11 H 0.2313 0.8006 0.7588
C9_11 C 0.1713(3) 0.7132(5) 0.8740(8)
H7_11 H 0.1752 0.6813 0.8783
H8_11 H 0.2030 0.7431 0.9073
N6_8 N 0.9893(3) 0.5885(5) 0.7156(6)
N3_2 N 0.2658(4) 0.3440(3) 0.0489(6)
C5_8 C 0.3167(6) 0.3526(4) 0.0451(8)
H3_8 H 0.3254 0.3303 0.0851
N1_12 N 0.3136(5) 0.4440(4) 0.7018(7)
N4_10 N 0.3460(4) 0.4256(3) 0.9288(6)
C1_12 C 0.2739(5) 0.4432(4) 0.7601(7)
C2_12 C 0.2575(6) 0.3784(4) 0.9942(7)
H1_12 H 0.2232 0.3748 0.9956
C3_10 C 0.3555(6) 0.3925(4) 0.9849(8)
H2_10 H 0.3900 0.3966 0.9832
C4_12 C 0.2971(6) 0.4194(4) 0.9353(7)
C6_10 C 0.2528(6) 0.4153(4) 0.5584(9)
H4_10 H 0.2456 0.4038 0.4871
C7_10 C 0.3009(6) 0.4286(5) 0.6001(8)
H5_10 H 0.3267 0.4271 0.5563
C8_12 C 0.2261(6) 0.4305(4) 0.7159(8)
H6_12 H 0.1994 0.4307 0.7588
C9_12 C 0.2868(5) 0.4581(4) 0.8740(8)
H7_12 H 0.3187 0.4939 0.8783
H8_12 H 0.2569 0.4599 0.9073
N6_9 N 0.4115(5) 0.4009(4) 0.7156(6)
H3_9 H 0.0030 0.6618 0.7518
N1_13 N 0.8893(4) 0.5363(3) 0.3685(7)
N4_11 N 0.9077(3) 0.5871(3) 0.5955(6)
C1_13 C 0.8901(4) 0.4974(3) 0.4268(7)
C2_13 C 0.9549(4) 0.5458(4) 0.6609(7)
H1_13 H 0.9585 0.5151 0.6623
C3_11 C 0.9408(4) 0.6297(4) 0.6516(8)
H2_11 H 0.9367 0.6601 0.6499
C4_13 C 0.9139(4) 0.5444(4) 0.6020(7)
C5_9 C 0.9807(4) 0.6308(4) 0.7118(8)
C6_11 C 0.9180(4) 0.5042(4) 0.2251(9)
H4_11 H 0.9295 0.5085 0.1538
C7_11 C 0.9047(5) 0.5390(4) 0.2668(8)
H5_11 H 0.9062 0.5663 0.2230
C8_13 C 0.9028(4) 0.4623(4) 0.3826(8)
H6_13 H 0.9026 0.4354 0.4255
C9_13 C 0.8752(4) 0.4954(3) 0.5407(8)
H7_13 H 0.8394 0.4915 0.5450
H8_13 H 0.8734 0.4637 0.5740
N6_10 N 0.9325(4) 0.6773(3) 0.3822(6)
N1_14 N 0.4637(3) 0.3531(5) 0.3685(7)
N4_12 N 0.4129(3) 0.3207(4) 0.5955(6)
C1_14 C 0.5026(3) 0.3928(5) 0.4268(7)
C2_14 C 0.4542(4) 0.4092(6) 0.6609(7)
H1_14 H 0.4849 0.4435 0.6623
C3_12 C 0.3703(4) 0.3112(6) 0.6516(8)
H2_12 H 0.3399 0.2767 0.6499
C4_14 C 0.4556(4) 0.3696(6) 0.6020(7)
C5_10 C 0.3692(4) 0.3500(6) 0.7118(8)
H3_10 H 0.3382 0.3413 0.7518
C6_12 C 0.4958(4) 0.4139(6) 0.2251(9)
H4_12 H 0.4915 0.4211 0.1538
C7_12 C 0.4610(4) 0.3658(6) 0.2668(8)
H5_12 H 0.4337 0.3400 0.2230
C8_14 C 0.5377(4) 0.4406(6) 0.3826(8)
H6_14 H 0.5646 0.4673 0.4255
C9_14 C 0.5046(3) 0.3799(5) 0.5407(8)
H7_14 H 0.5085 0.3480 0.5450
H8_14 H 0.5363 0.4098 0.5740
N6_11 N 0.3227(3) 0.2551(5) 0.3822(6)
N1_15 N 0.6469(5) 0.1107(4) 0.3685(7)
N4_13 N 0.6793(4) 0.0923(3) 0.5955(6)
C1_15 C 0.6072(5) 0.1099(4) 0.4268(7)
C2_15 C 0.5908(6) 0.0451(4) 0.6609(7)
H1_15 H 0.5565 0.0415 0.6623
C3_13 C 0.6888(6) 0.0592(4) 0.6516(8)
H2_13 H 0.7233 0.0633 0.6499
C4_15 C 0.6304(6) 0.0861(4) 0.6020(7)
C5_11 C 0.6500(6) 0.0193(4) 0.7118(8)
C6_13 C 0.5861(6) 0.0820(4) 0.2251(9)
H4_13 H 0.5789 0.0705 0.1538
C7_13 C 0.6342(6) 0.0953(5) 0.2668(8)
H5_13 H 0.6600 0.0938 0.2230
C8_15 C 0.5594(6) 0.0972(4) 0.3826(8)
H6_15 H 0.5327 0.0974 0.4255
C9_15 C 0.6201(5) 0.1248(4) 0.5407(8)
H7_15 H 0.6520 0.1606 0.5450
H8_15 H 0.5902 0.1266 0.5740
N6_12 N 0.7449(5) 0.0675(4) 0.3822(6)
H3_11 H 0.6587 0.9970 0.7518
N1_16 N 0.2227(4) 0.2029(3) 0.0351(7)
N4_14 N 0.2411(3) 0.2537(3) 0.2621(6)
C1_16 C 0.2235(4) 0.1640(3) 0.0934(7)
C2_16 C 0.2883(4) 0.2124(4) 0.3275(7)
H1_16 H 0.2919 0.1817 0.3289
C3_14 C 0.2742(4) 0.2963(4) 0.3182(8)
H2_14 H 0.2701 0.3267 0.3165
C4_16 C 0.2473(4) 0.2110(4) 0.2686(7)
C5_12 C 0.3141(4) 0.2974(4) 0.3784(8)
H3_12 H 0.3364 0.3284 0.4184
C8_16 C 0.2362(4) 0.1289(4) 0.0492(8)
H6_16 H 0.2360 0.1020 0.0921
C9_16 C 0.2086(4) 0.1620(3) 0.2073(8)
H7_16 H 0.1728 0.1581 0.2116
H8_16 H 0.2068 0.1303 0.2406
N1_17 N 0.7971(3) 0.0197(5) 0.0351(7)
C1_17 C 0.8360(3) 0.0594(5) 0.0934(7)
C2_17 C 0.7876(4) 0.0758(6) 0.3275(7)
H1_17 H 0.8183 0.1101 0.3289
C4_17 C 0.7890(4) 0.0362(6) 0.2686(7)
C5_13 C 0.7026(4) 0.0166(6) 0.3784(8)
H3_13 H 0.6716 0.0079 0.4184
C8_17 C 0.8711(4) 0.1072(6) 0.0492(8)
H6_17 H 0.8980 0.1339 0.0921
C9_17 C 0.8380(3) 0.0465(5) 0.2073(8)
H7_17 H 0.8419 0.0146 0.2116
H8_17 H 0.8697 0.0764 0.2406
N1_18 N 0.9803(5) 0.7773(4) 0.0351(7)
C1_18 C 0.9406(5) 0.7765(4) 0.0934(7)
C2_18 C 0.9242(6) 0.7117(4) 0.3275(7)
H1_18 H 0.8899 0.7081 0.3289
C4_18 C 0.9638(6) 0.7527(4) 0.2686(7)
C5_14 C 0.9834(6) 0.6859(4) 0.3784(8)
H3_14 H 0.9921 0.6636 0.4184
C8_18 C 0.8928(6) 0.7638(4) 0.0492(8)
H6_18 H 0.8661 0.7640 0.0921
C9_18 C 0.9535(5) 0.7914(4) 0.2073(8)
H7_18 H 0.9854 0.8272 0.2116
H8_18 H 0.9236 0.7932 0.2406
C6_14 C 0.9195(6) 0.7486(4) 0.8917(9)
H4_14 H 0.9123 0.7371 0.8204
C7_14 C 0.9676(6) 0.7619(5) 0.9334(8)
H5_14 H 0.9934 0.7604 0.8896
N3_3 N 0.3440(3) 0.0782(3) 0.9511(6)
C5_15 C 0.3526(4) 0.0359(4) 0.9549(8)
H3_15 H 0.3303 0.0049 0.9149
Ag2_2 Ag 0.26281(3) 0.06685(4) 0.87989(6)
N4_15 N 0.2537(3) 0.0127(4) 0.7379(6)
C3_15 C 0.2963(4) 0.0222(6) 0.6818(8)
H2_15 H 0.3267 0.0567 0.6835
N5_8 N 0.2487(3) 0.1315(5) 0.9468(7)
C6_15 C 0.2514(4) 0.1708(4) 0.8917(9)
H4_15 H 0.2629 0.1751 0.8204
C7_15 C 0.2381(5) 0.2056(4) 0.9334(8)
H5_15 H 0.2396 0.2329 0.8896
N3_4 N 0.9218(3) 0.2658(4) 0.9511(6)
C5_16 C 0.9641(4) 0.3167(6) 0.9549(8)
H3_16 H 0.9951 0.3254 0.9149
Ag2_3 Ag 0.93315(4) 0.19597(5) 0.87989(6)
N4_16 N 0.9873(4) 0.2411(3) 0.7379(6)
C3_16 C 0.9778(6) 0.2742(4) 0.6818(8)
H2_16 H 0.9433 0.2701 0.6835
N5_9 N 0.8685(5) 0.1171(4) 0.9468(7)
C6_16 C 0.8292(4) 0.0805(6) 0.8917(9)
H4_16 H 0.8249 0.0877 0.8204
C7_16 C 0.7944(4) 0.0324(6) 0.9334(8)
H5_16 H 0.7671 0.0066 0.8896
N2_8 N 0.7513(3) 0.8685(3) 0.0532(7)
C6_17 C 0.7486(4) 0.8292(4) 0.1083(9)
H4_17 H 0.7371 0.8249 0.1796
C7_17 C 0.7619(5) 0.7944(4) 0.0666(8)
H5_17 H 0.7604 0.7671 0.1104
Ag3_8 Ag 0.73719(3) 0.93315(4) 0.12011(6)
N3_5 N 0.6560(3) 0.9218(3) 0.0489(6)
C5_17 C 0.6474(4) 0.9641(4) 0.0451(8)
H3_17 H 0.6697 0.9951 0.0851
N4_17 N 0.7463(3) 0.9873(4) 0.2621(6)
C3_17 C 0.7037(4) 0.9778(6) 0.3182(8)
H2_17 H 0.6733 0.9433 0.3165
N2_9 N 0.1315(3) 0.8829(4) 0.0532(7)
C6_18 C 0.1708(4) 0.9195(6) 0.1083(9)
H4_18 H 0.1751 0.9123 0.1796
C7_18 C 0.2056(4) 0.9676(6) 0.0666(8)
H5_18 H 0.2329 0.9934 0.1104
Ag3_9 Ag 0.06685(4) 0.80403(5) 0.12011(6)
N3_6 N 0.0782(3) 0.7342(4) 0.0489(6)
C5_18 C 0.0359(4) 0.6833(6) 0.0451(8)
H3_18 H 0.0049 0.6746 0.0851
N4_18 N 0.0127(4) 0.7589(3) 0.2621(6)
C3_18 C 0.0222(6) 0.7258(4) 0.3182(8)
H2_18 H 0.0567 0.7299 0.3165
P1 P 0.45097(13) 0.06786(14) 0.6755(3)
F1 F 0.4176(3) 0.0943(3) 0.6379(6)
F2 F 0.4700(4) 0.1048(4) 0.7735(6)
F3 F 0.4018(3) 0.0248(3) 0.7419(5)
F4 F 0.4827(4) 0.0395(4) 0.7184(9)
F5 F 0.5012(3) 0.1087(4) 0.6094(9)
F6 F 0.4296(4) 0.0289(4) 0.5765(7)
P1_2 P 0.93214(14) 0.38311(19) 0.6755(3)
F1_2 F 0.9057(3) 0.3233(4) 0.6379(6)
F2_2 F 0.8952(4) 0.3652(6) 0.7735(6)
F3_2 F 0.9752(3) 0.3770(4) 0.7419(5)
F4_2 F 0.9605(4) 0.4432(6) 0.7184(9)
F5_2 F 0.8913(4) 0.3925(5) 0.6094(9)
F6_2 F 0.9711(4) 0.4007(6) 0.5765(7)
P1_3 P 0.61689(19) 0.54903(13) 0.6755(3)
F1_3 F 0.6767(4) 0.5824(3) 0.6379(6)
F2_3 F 0.6348(6) 0.5300(4) 0.7735(6)
F3_3 F 0.6230(4) 0.5982(3) 0.7419(5)
F4_3 F 0.5568(6) 0.5173(4) 0.7184(9)
F5_3 F 0.6075(5) 0.4988(3) 0.6094(9)
F6_3 F 0.5993(6) 0.5704(4) 0.5765(7)
P1_4 P 0.11764(13) 0.40119(14) 0.0088(3)
F2_4 F 0.1367(4) 0.4381(4) 0.1068(6)
F3_4 F 0.0685(3) 0.3581(3) 0.0752(5)
F4_4 F 0.1494(4) 0.3728(4) 0.0517(9)
F1_4 F 0.0843(3) 0.4276(3) 0.9712(6)
F5_4 F 0.1679(3) 0.4420(4) 0.9427(9)
F6_4 F 0.0963(4) 0.3622(4) 0.9098(7)
P1_5 P 0.59881(14) 0.71644(19) 0.0088(3)
F2_5 F 0.5619(4) 0.6985(6) 0.1068(6)
F3_5 F 0.6419(3) 0.7103(4) 0.0752(5)
F4_5 F 0.6272(4) 0.7765(6) 0.0517(9)
F1_5 F 0.5724(3) 0.6566(4) 0.9712(6)
F5_5 F 0.5580(4) 0.7258(5) 0.9427(9)
F6_5 F 0.6378(4) 0.7340(6) 0.9098(7)
P1_6 P 0.28356(19) 0.88236(13) 0.0088(3)
F2_6 F 0.3015(6) 0.8633(4) 0.1068(6)
F3_6 F 0.2897(4) 0.9315(3) 0.0752(5)
F4_6 F 0.2235(6) 0.8506(4) 0.0517(9)
F1_6 F 0.3434(4) 0.9157(3) 0.9712(6)
F5_6 F 0.2742(5) 0.8321(3) 0.9427(9)
F6_6 F 0.2660(6) 0.9037(4) 0.9098(7)
P1_7 P 0.78430(13) 0.73453(14) 0.3422(3)
F1_7 F 0.7509(3) 0.7610(3) 0.3046(6)
F2_7 F 0.8033(4) 0.7715(4) 0.4402(6)
F3_7 F 0.7351(3) 0.6915(3) 0.4086(5)
F4_7 F 0.8160(4) 0.7062(4) 0.3851(9)
F5_7 F 0.8345(3) 0.7754(4) 0.2761(9)
F6_7 F 0.7629(4) 0.6956(4) 0.2432(7)
P1_8 P 0.26547(14) 0.04978(19) 0.3422(3)
F2_8 F 0.2285(4) 0.0319(6) 0.4402(6)
F3_8 F 0.3085(3) 0.0437(4) 0.4086(5)
F4_8 F 0.2938(4) 0.1099(6) 0.3851(9)
F5_8 F 0.2246(4) 0.0592(5) 0.2761(9)
F6_8 F 0.3044(4) 0.0674(6) 0.2432(7)
F1_8 F 0.2390(3) 0.9900(4) 0.3046(6)
F1_9 F 0.0100(4) 0.2491(3) 0.3046(6)
P1_9 P 0.95022(19) 0.21570(13) 0.3422(3)
F2_9 F 0.9681(6) 0.1967(4) 0.4402(6)
F3_9 F 0.9563(4) 0.2649(3) 0.4086(5)
F4_9 F 0.8901(6) 0.1840(4) 0.3851(9)
F5_9 F 0.9408(5) 0.1655(3) 0.2761(9)
F6_9 F 0.9326(6) 0.2371(4) 0.2432(7)
P1_10 P 0.54903(13) 0.93214(14) 0.3245(3)
F1_10 F 0.5824(3) 0.9057(3) 0.3621(6)
F2_10 F 0.5300(4) 0.8952(4) 0.2265(6)
F3_10 F 0.5982(3) 0.9752(3) 0.2581(5)
F4_10 F 0.5173(4) 0.9605(4) 0.2816(9)
F5_10 F 0.4988(3) 0.8913(4) 0.3906(9)
F6_10 F 0.5704(4) 0.9711(4) 0.4235(7)
P1_11 P 0.06786(14) 0.61689(19) 0.3245(3)
F1_11 F 0.0943(3) 0.6767(4) 0.3621(6)
F2_11 F 0.1048(4) 0.6348(6) 0.2265(6)
F3_11 F 0.0248(3) 0.6230(4) 0.2581(5)
F4_11 F 0.0395(4) 0.5568(6) 0.2816(9)
F5_11 F 0.1087(4) 0.6075(5) 0.3906(9)
F6_11 F 0.0289(4) 0.5993(6) 0.4235(7)
P1_12 P 0.38311(19) 0.45097(13) 0.3245(3)
F1_12 F 0.3233(4) 0.4176(3) 0.3621(6)
F2_12 F 0.3652(6) 0.4700(4) 0.2265(6)
F3_12 F 0.3770(4) 0.4018(3) 0.2581(5)
F4_12 F 0.4432(6) 0.4827(4) 0.2816(9)
F5_12 F 0.3925(5) 0.5012(3) 0.3906(9)
F6_12 F 0.4007(6) 0.4296(4) 0.4235(7)
F1_13 F 0.9157(3) 0.5724(3) 0.0288(6)
F5_13 F 0.8321(3) 0.5580(4) 0.0573(9)
F6_13 F 0.9037(4) 0.6378(4) 0.0902(7)
P1_13 P 0.88236(13) 0.59881(14) 0.9912(3)
F2_13 F 0.8633(4) 0.5619(4) 0.8932(6)
F3_13 F 0.9315(3) 0.6419(3) 0.9248(5)
F4_13 F 0.8506(4) 0.6272(4) 0.9483(9)
F1_14 F 0.4276(3) 0.3434(4) 0.0288(6)
F5_14 F 0.4420(4) 0.2742(5) 0.0573(9)
F6_14 F 0.3622(4) 0.2660(6) 0.0902(7)
P1_14 P 0.40119(14) 0.28356(19) 0.9912(3)
F2_14 F 0.4381(4) 0.3015(6) 0.8932(6)
F3_14 F 0.3581(3) 0.2897(4) 0.9248(5)
F4_14 F 0.3728(4) 0.2235(6) 0.9483(9)
F1_15 F 0.6566(4) 0.0843(3) 0.0288(6)
F5_15 F 0.7258(5) 0.1679(3) 0.0573(9)
F6_15 F 0.7340(6) 0.0963(4) 0.0902(7)
P1_15 P 0.71644(19) 0.11764(13) 0.9912(3)
F2_15 F 0.6985(6) 0.1367(4) 0.8932(6)
F3_15 F 0.7103(4) 0.0685(3) 0.9248(5)
F4_15 F 0.7765(6) 0.1494(4) 0.9483(9)
P1_16 P 0.21570(13) 0.26547(14) 0.6578(3)
F1_16 F 0.2491(3) 0.2390(3) 0.6954(6)
F2_16 F 0.1967(4) 0.2285(4) 0.5598(6)
F3_16 F 0.2649(3) 0.3085(3) 0.5914(5)
F4_16 F 0.1840(4) 0.2938(4) 0.6149(9)
F5_16 F 0.1655(3) 0.2246(4) 0.7239(9)
F6_16 F 0.2371(4) 0.3044(4) 0.7568(7)
F1_17 F 0.7610(3) 0.0100(4) 0.6954(6)
P1_17 P 0.73453(14) 0.95022(19) 0.6578(3)
F2_17 F 0.7715(4) 0.9681(6) 0.5598(6)
F3_17 F 0.6915(3) 0.9563(4) 0.5914(5)
F4_17 F 0.7062(4) 0.8901(6) 0.6149(9)
F5_17 F 0.7754(4) 0.9408(5) 0.7239(9)
F6_17 F 0.6956(4) 0.9326(6) 0.7568(7)
P1_18 P 0.04978(19) 0.78430(13) 0.6578(3)
F2_18 F 0.0319(6) 0.8033(4) 0.5598(6)
F3_18 F 0.0437(4) 0.7351(3) 0.5914(5)
F4_18 F 0.1099(6) 0.8160(4) 0.6149(9)
F5_18 F 0.0592(5) 0.8345(3) 0.7239(9)
F6_18 F 0.0674(6) 0.7629(4) 0.7568(7)
F1_18 F 0.9900(4) 0.7509(3) 0.6954(6)
loop_
_geom_bond_atom_site_label_1
_geom_bond_atom_site_label_2
_geom_bond_site_symmetry_1
_geom_bond_site_symmetry_2
Ag1 N1 1_555 1_555
N1 C1 1_555 1_555
N2 C6 1_555 1_555
N4 Ag1 1_555 1_555
C1 C8 1_555 1_555
C2 H1 1_555 1_555
C3 N4 1_555 1_555
H2 C3 1_555 1_555
C4 N4 1_555 1_555
C6 H4 1_555 1_555
C7 N1 1_555 1_555
H5 C7 1_555 1_555
C8 N2 1_555 1_555
H6 C8 1_555 1_555
C9 C1 1_555 1_555
H7 C9 1_555 1_555
H8 C9 1_555 1_555
Ag3 N2 1_555 1_555
N5 Ag1 1_555 1_555
C2 C4 1_555 1_555
C4 C9 1_555 1_555
C6 C7 1_555 1_555
Ag1_2 N1_2 1_555 1_555
N1_2 C1_2 1_555 1_555
N2_2 C6_2 1_555 1_555
N4_2 Ag1_2 1_555 1_555
C1_2 C8_2 1_555 1_555
C2_2 H1_2 1_555 1_555
C3_2 N4_2 1_555 1_555
H2_2 C3_2 1_555 1_555
C4_2 N4_2 1_555 1_555
C6_2 H4_2 1_555 1_555
C7_2 N1_2 1_555 1_555
H5_2 C7_2 1_555 1_555
C8_2 N2_2 1_555 1_555
H6_2 C8_2 1_555 1_555
C9_2 C1_2 1_555 1_555
H7_2 C9_2 1_555 1_555
H8_2 C9_2 1_555 1_555
Ag3_2 N2_2 1_555 1_555
N5_2 Ag1_2 1_555 1_555
C2_2 C4_2 1_555 1_555
C4_2 C9_2 1_555 1_555
C6_2 C7_2 1_555 1_555
Ag1_3 N1_3 1_555 1_555
N1_3 C1_3 1_555 1_555
N2_3 C6_3 1_555 1_555
N4_3 Ag1_3 1_555 1_555
C1_3 C8_3 1_555 1_555
C2_3 H1_3 1_555 1_555
C3_3 N4_3 1_555 1_555
H2_3 C3_3 1_555 1_555
C4_3 N4_3 1_555 1_555
C6_3 H4_3 1_555 1_555
C7_3 N1_3 1_555 1_555
H5_3 C7_3 1_555 1_555
C8_3 N2_3 1_555 1_555
H6_3 C8_3 1_555 1_555
C9_3 C1_3 1_555 1_555
H7_3 C9_3 1_555 1_555
H8_3 C9_3 1_555 1_555
Ag3_3 N2_3 1_555 1_555
N5_3 Ag1_3 1_555 1_555
N6_3 Ag1_3 1_555 1_555
C2_3 C4_3 1_555 1_555
C4_3 C9_3 1_555 1_555
C6_3 C7_3 1_555 1_555
C5 N3 1_555 1_555
H3 C5 1_555 1_555
Ag2 N3 1_555 1_555
Ag1_4 N1_4 1_555 1_555
N1_4 C1_4 1_555 1_555
N2_4 C6_4 1_555 1_555
N6_2 C2_4 1_555 1_555
N4_4 Ag1_4 1_555 1_555
C1_4 C8_4 1_555 1_555
C2_4 H1_4 1_555 1_555
C3_4 N4_4 1_555 1_555
H2_4 C3_4 1_555 1_555
C4_4 N4_4 1_555 1_555
C5_2 N6_2 1_555 1_555
C6_4 H4_4 1_555 1_555
C7_4 N1_4 1_555 1_555
H5_4 C7_4 1_555 1_555
C8_4 N2_4 1_555 1_555
H6_4 C8_4 1_555 1_555
C9_4 C1_4 1_555 1_555
H7_4 C9_4 1_555 1_555
H8_4 C9_4 1_555 1_555
Ag3_4 N2_4 1_555 1_555
N5_4 Ag1_4 1_555 1_555
N6_4 Ag1_4 1_555 1_555
C2_4 C4_4 1_555 1_555
C3_4 C5_2 1_555 1_555
C4_4 C9_4 1_555 1_555
C6_4 C7_4 1_555 1_555
Ag1_5 N1_5 1_555 1_555
N1_5 C1_5 1_555 1_555
N2_5 C6_5 1_555 1_555
N6_3 C2_5 1_555 1_555
N4_5 Ag1_5 1_555 1_555
C1_5 C8_5 1_555 1_555
C2_5 H1_5 1_555 1_555
C3_5 N4_5 1_555 1_555
H2_5 C3_5 1_555 1_555
C4_5 N4_5 1_555 1_555
C5_3 N6_3 1_555 1_555
H3_3 C5_3 1_555 1_555
C6_5 H4_5 1_555 1_555
C7_5 N1_5 1_555 1_555
H5_5 C7_5 1_555 1_555
C8_5 N2_5 1_555 1_555
H6_5 C8_5 1_555 1_555
C9_5 C1_5 1_555 1_555
H7_5 C9_5 1_555 1_555
H8_5 C9_5 1_555 1_555
Ag3_5 N2_5 1_555 1_555
N5_5 Ag1_5 1_555 1_555
N6_5 Ag1_5 1_555 1_555
C2_5 C4_5 1_555 1_555
C3_5 C5_3 1_555 1_555
C4_5 C9_5 1_555 1_555
C6_5 C7_5 1_555 1_555
Ag1_6 N1_6 1_555 1_555
N1_6 C1_6 1_555 1_555
N2_6 C6_6 1_555 1_555
N6 C2_6 1_555 1_555
N4_6 Ag1_6 1_555 1_555
C1_6 C8_6 1_555 1_555
C2_6 H1_6 1_555 1_555
C3_6 N4_6 1_555 1_555
H2_6 C3_6 1_555 1_555
C4_6 N4_6 1_555 1_555
C5_4 N6 1_555 1_555
C6_6 H4_6 1_555 1_555
C7_6 N1_6 1_555 1_555
H5_6 C7_6 1_555 1_555
C8_6 N2_6 1_555 1_555
H6_6 C8_6 1_555 1_555
C9_6 C1_6 1_555 1_555
H7_6 C9_6 1_555 1_555
H8_6 C9_6 1_555 1_555
Ag3_6 N2_6 1_555 1_555
N5_6 Ag1_6 1_555 1_555
N6_6 Ag1_6 1_555 1_555
C2_6 C4_6 1_555 1_555
C3_6 C5_4 1_555 1_555
C4_6 C9_6 1_555 1_555
C6_6 C7_6 1_555 1_555
Ag2 N1_7 1_555 1_555
N1_7 C1_7 1_555 1_555
N6_5 C2_7 1_555 1_555
N4_7 Ag2 1_555 1_555
C1_7 C8_7 1_555 1_555
C2_7 H1_7 1_555 1_555
C3_7 N4_7 1_555 1_555
H2_7 C3_7 1_555 1_555
C4_7 N4_7 1_555 1_555
C5_5 N6_5 1_555 1_555
H3_5 C5_5 1_555 1_555
H6_7 C8_7 1_555 1_555
C9_7 C1_7 1_555 1_555
H7_7 C9_7 1_555 1_555
H8_7 C9_7 1_555 1_555
N5_7 Ag2 1_555 1_555
C2_7 C4_7 1_555 1_555
C3_7 C5_5 1_555 1_555
C4_7 C9_7 1_555 1_555
N1_8 C1_8 1_555 1_555
N6_6 C2_8 1_555 1_555
C1_8 C8_8 1_555 1_555
C2_8 H1_8 1_555 1_555
C5_6 N6_6 1_555 1_555
H3_6 C5_6 1_555 1_555
H6_8 C8_8 1_555 1_555
C9_8 C1_8 1_555 1_555
H7_8 C9_8 1_555 1_555
H8_8 C9_8 1_555 1_555
C2_8 C4_8 1_555 1_555
C4_8 C9_8 1_555 1_555
N2_7 C6_7 1_555 1_555
C6_7 H4_7 1_555 1_555
H5_7 C7_7 1_555 1_555
Ag3_7 N2_7 1_555 1_555
C6_7 C7_7 1_555 1_555
N1_9 C1_9 1_555 1_555
N6_4 C2_9 1_555 1_555
C1_9 C8_9 1_555 1_555
C2_9 H1_9 1_555 1_555
C5_7 N6_4 1_555 1_555
H3_7 C5_7 1_555 1_555
H6_9 C8_9 1_555 1_555
C9_9 C1_9 1_555 1_555
H7_9 C9_9 1_555 1_555
H8_9 C9_9 1_555 1_555
C2_9 C4_9 1_555 1_555
C4_9 C9_9 1_555 1_555
Ag3_6 N1_10 1_555 1_555
N1_10 C1_10 1_555 1_555
N5_5 C6_8 1_555 1_555
N4_8 Ag3_6 1_555 1_555
C1_10 C8_10 1_555 1_555
C2_10 H1_10 1_555 1_555
C3_8 N4_8 1_555 1_555
H2_8 C3_8 1_555 1_555
C4_10 N4_8 1_555 1_555
C6_8 H4_8 1_555 1_555
C7_8 N1_10 1_555 1_555
H5_8 C7_8 1_555 1_555
C8_10 N5_5 1_555 1_555
H6_10 C8_10 1_555 1_555
C9_10 C1_10 1_555 1_555
H7_10 C9_10 1_555 1_555
H8_10 C9_10 1_555 1_555
C2_10 C4_10 1_555 1_555
C4_10 C9_10 1_555 1_555
C6_8 C7_8 1_555 1_555
Ag3_4 N1_11 1_555 1_555
N1_11 C1_11 1_555 1_555
N5_6 C6_9 1_555 1_555
N4_9 Ag3_4 1_555 1_555
C1_11 C8_11 1_555 1_555
C2_11 H1_11 1_555 1_555
C3_9 N4_9 1_555 1_555
H2_9 C3_9 1_555 1_555
C4_11 N4_9 1_555 1_555
C6_9 H4_9 1_555 1_555
C7_9 N1_11 1_555 1_555
H5_9 C7_9 1_555 1_555
C8_11 N5_6 1_555 1_555
H6_11 C8_11 1_555 1_555
C9_11 C1_11 1_555 1_555
H7_11 C9_11 1_555 1_555
H8_11 C9_11 1_555 1_555
C2_11 C4_11 1_555 1_555
C4_11 C9_11 1_555 1_555
C6_9 C7_9 1_555 1_555
C5_8 N3_2 1_555 1_555
H3_8 C5_8 1_555 1_555
Ag3_7 N3_2 1_555 1_555
Ag3_5 N1_12 1_555 1_555
N1_12 C1_12 1_555 1_555
N5_4 C6_10 1_555 1_555
N4_10 Ag3_5 1_555 1_555
C1_12 C8_12 1_555 1_555
C2_12 H1_12 1_555 1_555
C3_10 N4_10 1_555 1_555
H2_10 C3_10 1_555 1_555
C4_12 N4_10 1_555 1_555
C6_10 H4_10 1_555 1_555
C7_10 N1_12 1_555 1_555
H5_10 C7_10 1_555 1_555
C8_12 N5_4 1_555 1_555
H6_12 C8_12 1_555 1_555
C9_12 C1_12 1_555 1_555
H7_12 C9_12 1_555 1_555
H8_12 C9_12 1_555 1_555
N6_9 Ag3_5 1_555 1_555
C2_12 C4_12 1_555 1_555
C4_12 C9_12 1_555 1_555
C6_10 C7_10 1_555 1_555
Ag3_3 N1_13 1_555 1_555
N1_13 C1_13 1_555 1_555
N5_2 C6_11 1_555 1_555
N6_8 C2_13 1_555 1_555
N4_11 Ag3_3 1_555 1_555
C1_13 C8_13 1_555 1_555
C2_13 H1_13 1_555 1_555
C3_11 N4_11 1_555 1_555
H2_11 C3_11 1_555 1_555
C4_13 N4_11 1_555 1_555
C5_9 N6_8 1_555 1_555
C6_11 H4_11 1_555 1_555
C7_11 N1_13 1_555 1_555
H5_11 C7_11 1_555 1_555
C8_13 N5_2 1_555 1_555
H6_13 C8_13 1_555 1_555
C9_13 C1_13 1_555 1_555
H7_13 C9_13 1_555 1_555
H8_13 C9_13 1_555 1_555
N6_10 Ag3_3 1_555 1_555
C2_13 C4_13 1_555 1_555
C3_11 C5_9 1_555 1_555
C4_13 C9_13 1_555 1_555
C6_11 C7_11 1_555 1_555
Ag3 N1_14 1_555 1_555
N1_14 C1_14 1_555 1_555
N5_3 C6_12 1_555 1_555
N6_9 C2_14 1_555 1_555
N4_12 Ag3 1_555 1_555
C1_14 C8_14 1_555 1_555
C2_14 H1_14 1_555 1_555
C3_12 N4_12 1_555 1_555
H2_12 C3_12 1_555 1_555
C4_14 N4_12 1_555 1_555
C5_10 N6_9 1_555 1_555
H3_10 C5_10 1_555 1_555
C6_12 H4_12 1_555 1_555
C7_12 N1_14 1_555 1_555
H5_12 C7_12 1_555 1_555
C8_14 N5_3 1_555 1_555
H6_14 C8_14 1_555 1_555
C9_14 C1_14 1_555 1_555
H7_14 C9_14 1_555 1_555
H8_14 C9_14 1_555 1_555
N6_11 Ag3 1_555 1_555
C2_14 C4_14 1_555 1_555
C3_12 C5_10 1_555 1_555
C4_14 C9_14 1_555 1_555
C6_12 C7_12 1_555 1_555
Ag3_2 N1_15 1_555 1_555
N1_15 C1_15 1_555 1_555
N5 C6_13 1_555 1_555
N6_7 C2_15 1_555 1_555
N4_13 Ag3_2 1_555 1_555
C1_15 C8_15 1_555 1_555
C2_15 H1_15 1_555 1_555
C3_13 N4_13 1_555 1_555
H2_13 C3_13 1_555 1_555
C4_15 N4_13 1_555 1_555
C5_11 N6_7 1_555 1_555
C6_13 H4_13 1_555 1_555
C7_13 N1_15 1_555 1_555
H5_13 C7_13 1_555 1_555
C8_15 N5 1_555 1_555
H6_15 C8_15 1_555 1_555
C9_15 C1_15 1_555 1_555
H7_15 C9_15 1_555 1_555
H8_15 C9_15 1_555 1_555
N6_12 Ag3_2 1_555 1_555
C2_15 C4_15 1_555 1_555
C3_13 C5_11 1_555 1_555
C4_15 C9_15 1_555 1_555
C6_13 C7_13 1_555 1_555
Ag3_7 N1_16 1_555 1_555
N1_16 C1_16 1_555 1_555
N6_11 C2_16 1_555 1_555
N4_14 Ag3_7 1_555 1_555
C1_16 C8_16 1_555 1_555
C2_16 H1_16 1_555 1_555
C3_14 N4_14 1_555 1_555
H2_14 C3_14 1_555 1_555
C4_16 N4_14 1_555 1_555
C5_12 N6_11 1_555 1_555
H3_12 C5_12 1_555 1_555
H6_16 C8_16 1_555 1_555
C9_16 C1_16 1_555 1_555
H7_16 C9_16 1_555 1_555
H8_16 C9_16 1_555 1_555
C2_16 C4_16 1_555 1_555
C3_14 C5_12 1_555 1_555
C4_16 C9_16 1_555 1_555
N1_17 C1_17 1_555 1_555
N6_12 C2_17 1_555 1_555
C1_17 C8_17 1_555 1_555
C2_17 H1_17 1_555 1_555
C5_13 N6_12 1_555 1_555
H3_13 C5_13 1_555 1_555
H6_17 C8_17 1_555 1_555
C9_17 C1_17 1_555 1_555
H7_17 C9_17 1_555 1_555
H8_17 C9_17 1_555 1_555
C2_17 C4_17 1_555 1_555
C4_17 C9_17 1_555 1_555
N1_18 C1_18 1_555 1_555
N6_10 C2_18 1_555 1_555
C1_18 C8_18 1_555 1_555
C2_18 H1_18 1_555 1_555
C5_14 N6_10 1_555 1_555
H3_14 C5_14 1_555 1_555
H6_18 C8_18 1_555 1_555
C9_18 C1_18 1_555 1_555
H7_18 C9_18 1_555 1_555
H8_18 C9_18 1_555 1_555
C2_18 C4_18 1_555 1_555
C4_18 C9_18 1_555 1_555
N5_7 C6_14 1_555 1_555
C6_14 H4_14 1_555 1_555
H5_14 C7_14 1_555 1_555
C6_14 C7_14 1_555 1_555
C5_15 N3_3 1_555 1_555
H3_15 C5_15 1_555 1_555
Ag2_2 N3_3 1_555 1_555
N4_15 Ag2_2 1_555 1_555
C3_15 N4_15 1_555 1_555
H2_15 C3_15 1_555 1_555
N5_8 Ag2_2 1_555 1_555
N5_8 C6_15 1_555 1_555
C6_15 H4_15 1_555 1_555
H5_15 C7_15 1_555 1_555
C6_15 C7_15 1_555 1_555
C5_16 N3_4 1_555 1_555
H3_16 C5_16 1_555 1_555
Ag2_3 N3_4 1_555 1_555
N4_16 Ag2_3 1_555 1_555
C3_16 N4_16 1_555 1_555
H2_16 C3_16 1_555 1_555
N5_9 Ag2_3 1_555 1_555
N5_9 C6_16 1_555 1_555
C6_16 H4_16 1_555 1_555
H5_16 C7_16 1_555 1_555
C6_16 C7_16 1_555 1_555
N2_8 C6_17 1_555 1_555
C6_17 H4_17 1_555 1_555
H5_17 C7_17 1_555 1_555
Ag3_8 N2_8 1_555 1_555
C6_17 C7_17 1_555 1_555
C5_17 N3_5 1_555 1_555
H3_17 C5_17 1_555 1_555
Ag3_8 N3_5 1_555 1_555
N4_17 Ag3_8 1_555 1_555
C3_17 N4_17 1_555 1_555
H2_17 C3_17 1_555 1_555
N2_9 C6_18 1_555 1_555
C6_18 H4_18 1_555 1_555
H5_18 C7_18 1_555 1_555
Ag3_9 N2_9 1_555 1_555
C6_18 C7_18 1_555 1_555
C5_18 N3_6 1_555 1_555
H3_18 C5_18 1_555 1_555
Ag3_9 N3_6 1_555 1_555
N4_18 Ag3_9 1_555 1_555
C3_18 N4_18 1_555 1_555
H2_18 C3_18 1_555 1_555
P1 F1 1_555 1_555
F2 P1 1_555 1_555
F3 P1 1_555 1_555
F4 P1 1_555 1_555
F5 P1 1_555 1_555
F6 P1 1_555 1_555
P1_2 F1_2 1_555 1_555
F2_2 P1_2 1_555 1_555
F3_2 P1_2 1_555 1_555
F4_2 P1_2 1_555 1_555
F5_2 P1_2 1_555 1_555
F6_2 P1_2 1_555 1_555
P1_3 F1_3 1_555 1_555
F2_3 P1_3 1_555 1_555
F3_3 P1_3 1_555 1_555
F4_3 P1_3 1_555 1_555
F5_3 P1_3 1_555 1_555
F6_3 P1_3 1_555 1_555
F2_4 P1_4 1_555 1_555
F3_4 P1_4 1_555 1_555
F4_4 P1_4 1_555 1_555
F2_5 P1_5 1_555 1_555
F3_5 P1_5 1_555 1_555
F4_5 P1_5 1_555 1_555
F2_6 P1_6 1_555 1_555
F3_6 P1_6 1_555 1_555
F4_6 P1_6 1_555 1_555
P1_7 F1_7 1_555 1_555
F2_7 P1_7 1_555 1_555
F3_7 P1_7 1_555 1_555
F4_7 P1_7 1_555 1_555
F5_7 P1_7 1_555 1_555
F6_7 P1_7 1_555 1_555
F2_8 P1_8 1_555 1_555
F3_8 P1_8 1_555 1_555
F4_8 P1_8 1_555 1_555
F5_8 P1_8 1_555 1_555
F6_8 P1_8 1_555 1_555
F2_9 P1_9 1_555 1_555
F3_9 P1_9 1_555 1_555
F4_9 P1_9 1_555 1_555
F5_9 P1_9 1_555 1_555
F6_9 P1_9 1_555 1_555
P1_10 F1_10 1_555 1_555
F2_10 P1_10 1_555 1_555
F3_10 P1_10 1_555 1_555
F4_10 P1_10 1_555 1_555
F5_10 P1_10 1_555 1_555
F6_10 P1_10 1_555 1_555
P1_11 F1_11 1_555 1_555
F2_11 P1_11 1_555 1_555
F3_11 P1_11 1_555 1_555
F4_11 P1_11 1_555 1_555
F5_11 P1_11 1_555 1_555
F6_11 P1_11 1_555 1_555
P1_12 F1_12 1_555 1_555
F2_12 P1_12 1_555 1_555
F3_12 P1_12 1_555 1_555
F4_12 P1_12 1_555 1_555
F5_12 P1_12 1_555 1_555
F6_12 P1_12 1_555 1_555
F2_13 P1_13 1_555 1_555
F3_13 P1_13 1_555 1_555
F4_13 P1_13 1_555 1_555
F2_14 P1_14 1_555 1_555
F3_14 P1_14 1_555 1_555
F4_14 P1_14 1_555 1_555
F2_15 P1_15 1_555 1_555
F3_15 P1_15 1_555 1_555
F4_15 P1_15 1_555 1_555
P1_16 F1_16 1_555 1_555
F2_16 P1_16 1_555 1_555
F3_16 P1_16 1_555 1_555
F4_16 P1_16 1_555 1_555
F5_16 P1_16 1_555 1_555
F6_16 P1_16 1_555 1_555
F2_17 P1_17 1_555 1_555
F3_17 P1_17 1_555 1_555
F4_17 P1_17 1_555 1_555
F5_17 P1_17 1_555 1_555
F6_17 P1_17 1_555 1_555
F2_18 P1_18 1_555 1_555
F3_18 P1_18 1_555 1_555
F4_18 P1_18 1_555 1_555
F5_18 P1_18 1_555 1_555
F6_18 P1_18 1_555 1_555

#END
