
###############################################################################
#
# This file contains modified crystal structure data generated from the
# MOF subset of the Cambridge Structural Database (CSD) v543 
# hosted by the Cambridge Crystallographic Data Centre (CCDC).
#
# This work is licensed under the Creative Commons
# Attribution-NonCommercial-ShareAlike 4.0 International License.
# To view a copy of this license, visit
# http://creativecommons.org/licenses/by-nc-sa/4.0/
# or send a letter to
# Creative Commons, PO Box 1866, Mountain View, CA 94042, USA.
#
# CIF created using the CSD Python API on 29 September 2022
# The structure has been converted into the P1 space group
# The structure has a 3D framework
# The original CSD entry HUFHOH is in the rhombohedral crystal system
# The framework has been calculated to contain at least 10.0% void space
# The void calculation uses a probe of radius 1.32A, grid spacing 0.4
# The framework is charged, counterions have been retained in the structure
#
###############################################################################

data_HUFHOH
_chemical_formula_moiety         '(C162 H144 Ag18 F108 N72 P18)n'
_symmetry_cell_setting           triclinic
_symmetry_space_group_name_H-M   'P 1'
_symmetry_Int_Tables_number      1
_space_group_name_Hall           'P 1'
loop_
_symmetry_equiv_pos_site_id
_symmetry_equiv_pos_as_xyz
1 x,y,z
_cell_length_a                   28.9589(17)
_cell_length_b                   28.9589(17)
_cell_length_c                   14.5653(9)
_cell_angle_alpha                90
_cell_angle_beta                 90
_cell_angle_gamma                120
_cell_volume                     10578.3
loop_
_atom_site_label
_atom_site_type_symbol
_atom_site_fract_x
_atom_site_fract_y
_atom_site_fract_z
Ag1 Ag 0.60166(2) 0.06353(2) 0.74324(3)
C1 C 0.7025(2) 0.1146(2) 0.6083(3)
N1 N 0.79136(18) 0.20348(18) 0.8767(3)
N2 N 0.65483(17) 0.06975(17) 0.6221(3)
C2 C 0.72775(19) 0.16557(19) 0.7559(3)
N3 N 0.69089(19) 0.1284(2) 0.8120(3)
C3 C 0.7777(2) 0.20186(19) 0.7873(4)
H1 H 0.8032 0.2265 0.7454
C4 C 0.7125(2) 0.1643(2) 0.6573(4)
H2 H 0.7414 0.1956 0.6254
H3 H 0.6799 0.1672 0.6541
N4 N 0.73122(19) 0.06960(18) 0.5057(3)
C5 C 0.7548(3) 0.1665(3) 0.9315(4)
H4 H 0.7631 0.1665 0.9946
C6 C 0.7403(2) 0.1137(2) 0.5507(4)
H5 H 0.7736 0.1454 0.5429
C7 C 0.7058(2) 0.1287(3) 0.9006(4)
H6 H 0.6817 0.1020 0.9417
C8 C 0.6834(2) 0.0263(2) 0.5184(5)
C9 C 0.6462(2) 0.0262(2) 0.5775(5)
Ag2 Ag 0.79520(3) 0.06501(2) 0.40991(3)
Ag3 Ag 0.87146(3) 0.26833(2) 0.92343(3)
N5 N 0.53681(18) 0.07879(25) 0.7900(3)
Ag1_2 Ag 0.93647(2) 0.53813(3) 0.74324(3)
C1_2 C 0.8854(2) 0.5879(3) 0.6083(3)
N1_2 N 0.79652(18) 0.58788(25) 0.8767(3)
N2_2 N 0.93025(17) 0.58508(24) 0.6221(3)
C2_2 C 0.83443(19) 0.56218(27) 0.7559(3)
N3_2 N 0.8716(2) 0.56249(28) 0.8120(3)
C3_2 C 0.79814(19) 0.57584(28) 0.7873(4)
H1_2 H 0.7735 0.5767 0.7454
C4_2 C 0.8357(2) 0.5482(3) 0.6573(4)
H2_2 H 0.8044 0.5458 0.6254
H3_2 H 0.8328 0.5127 0.6541
N4_2 N 0.93040(18) 0.66162(26) 0.5057(3)
C5_2 C 0.8335(3) 0.5883(4) 0.9315(4)
H4_2 H 0.8335 0.5966 0.9946
C6_2 C 0.8863(2) 0.6266(3) 0.5507(4)
H5_2 H 0.8546 0.6282 0.5429
C7_2 C 0.8713(3) 0.5771(4) 0.9006(4)
H6_2 H 0.8980 0.5797 0.9417
C8_2 C 0.9737(2) 0.6571(3) 0.5184(5)
C9_2 C 0.9738(2) 0.6200(3) 0.5775(5)
Ag2_2 Ag 0.93499(2) 0.73020(4) 0.40991(3)
Ag3_2 Ag 0.73167(2) 0.60314(4) 0.92343(3)
N5_2 N 0.92121(25) 0.45803(31) 0.7900(3)
Ag1_3 Ag 0.46187(3) 0.39834(2) 0.74324(3)
C1_3 C 0.4121(3) 0.2975(2) 0.6083(3)
N1_3 N 0.41212(25) 0.20864(18) 0.8767(3)
N2_3 N 0.41492(24) 0.34517(17) 0.6221(3)
C2_3 C 0.43782(27) 0.27225(19) 0.7559(3)
N3_3 N 0.43751(28) 0.30911(19) 0.8120(3)
C3_3 C 0.42416(28) 0.2223(2) 0.7873(4)
H1_3 H 0.4233 0.1968 0.7454
C4_3 C 0.4518(3) 0.2875(2) 0.6573(4)
H2_3 H 0.4542 0.2586 0.6254
H3_3 H 0.4873 0.3201 0.6541
N4_3 N 0.33838(26) 0.26878(19) 0.5057(3)
C5_3 C 0.4117(4) 0.2452(3) 0.9315(4)
H4_3 H 0.4034 0.2369 0.9946
C6_3 C 0.3734(3) 0.2597(2) 0.5507(4)
H5_3 H 0.3718 0.2264 0.5429
C7_3 C 0.4229(4) 0.2942(2) 0.9006(4)
H6_3 H 0.4203 0.3183 0.9417
C8_3 C 0.3429(3) 0.3166(2) 0.5184(5)
H7 H 0.3198 0.3251 0.4858
C9_3 C 0.3800(3) 0.3538(2) 0.5775(5)
H8 H 0.3806 0.3866 0.5866
Ag2_3 Ag 0.26980(4) 0.20480(3) 0.40991(3)
Ag3_3 Ag 0.39686(4) 0.12854(3) 0.92343(3)
N5_3 N 0.54197(31) 0.46319(18) 0.7900(3)
N6 N 0.39789(32) 0.40293(18) 0.8390(3)
Ag1_4 Ag 0.26833(2) 0.39686(2) 0.07657(3)
N1_4 N 0.45803(18) 0.53681(18) 0.2100(3)
C2_4 C 0.39442(19) 0.49890(19) 0.0892(3)
N3_4 N 0.35756(19) 0.4617(2) 0.1453(3)
C3_4 C 0.4444(2) 0.53519(19) 0.1206(4)
H1_4 H 0.4699 0.5598 0.0787
C5_4 C 0.4215(3) 0.4998(3) 0.2648(4)
H4_4 H 0.4298 0.4998 0.3279
C7_4 C 0.3725(2) 0.4620(3) 0.2339(4)
H6_4 H 0.3484 0.4353 0.2750
Ag3_4 Ag 0.53813(3) 0.60166(2) 0.25676(3)
N5_4 N 0.20348(18) 0.41212(25) 0.1233(3)
N6_2 N 0.26373(18) 0.32829(26) 0.1724(3)
C1_4 C 0.3692(2) 0.4479(2) 0.9416(3)
N2_4 N 0.32150(17) 0.40308(17) 0.9554(3)
C4_4 C 0.3792(2) 0.4976(2) 0.9906(4)
H2_4 H 0.4081 0.5289 0.9587
H3_4 H 0.3466 0.5005 0.9874
C6_4 C 0.4070(2) 0.4470(2) 0.8840(4)
H5_4 H 0.4403 0.4787 0.8762
C8_4 C 0.3501(2) 0.3596(2) 0.8517(5)
H7_2 H 0.3416 0.3280 0.8191
C9_4 C 0.3129(2) 0.3595(2) 0.9108(5)
H8_2 H 0.2801 0.3273 0.9199
H7_3 H 0.6720 0.0135 0.8191
Ag1_5 Ag 0.60314(2) 0.87146(3) 0.07657(3)
N1_5 N 0.46319(18) 0.92121(25) 0.2100(3)
C2_5 C 0.50110(19) 0.89551(27) 0.0892(3)
N3_5 N 0.5383(2) 0.89582(28) 0.1453(3)
C3_5 C 0.46481(19) 0.90917(28) 0.1206(4)
H1_5 H 0.4402 0.9100 0.0787
C5_5 C 0.5002(3) 0.9216(4) 0.2648(4)
H4_5 H 0.5002 0.9299 0.3279
C7_5 C 0.5380(3) 0.9104(4) 0.2339(4)
H6_5 H 0.5647 0.9130 0.2750
Ag3_5 Ag 0.39834(2) 0.93647(4) 0.25676(3)
N5_5 N 0.58788(25) 0.79136(31) 0.1233(3)
N6_3 N 0.67171(26) 0.93545(32) 0.1724(3)
Ag1_6 Ag 0.12854(3) 0.73167(2) 0.07657(3)
N1_6 N 0.07879(25) 0.54197(18) 0.2100(3)
C2_6 C 0.10449(27) 0.60558(19) 0.0892(3)
N3_6 N 0.10418(28) 0.64244(19) 0.1453(3)
C3_6 C 0.09083(28) 0.5556(2) 0.1206(4)
H1_6 H 0.0900 0.5301 0.0787
C5_6 C 0.0784(4) 0.5785(3) 0.2648(4)
H4_6 H 0.0701 0.5702 0.3279
C7_6 C 0.0896(4) 0.6275(2) 0.2339(4)
H6_6 H 0.0870 0.6516 0.2750
Ag3_6 Ag 0.06353(4) 0.46187(3) 0.25676(3)
N5_6 N 0.20864(31) 0.79652(18) 0.1233(3)
N6_4 N 0.06455(32) 0.73627(18) 0.1724(3)
H7_4 H 0.9865 0.6584 0.8191
C1_5 C 0.0358(2) 0.7813(2) 0.2750(3)
N1_7 N 0.12469(18) 0.87015(18) 0.5434(3)
C2_7 C 0.06108(19) 0.83224(19) 0.4226(3)
N3_7 N 0.02422(19) 0.7951(2) 0.4787(3)
C3_7 C 0.1110(2) 0.86853(19) 0.4540(4)
H1_7 H 0.1365 0.8932 0.4121
C4_5 C 0.0458(2) 0.8310(2) 0.3240(4)
H2_5 H 0.0747 0.8623 0.2921
H3_5 H 0.0132 0.8339 0.3208
C5_7 C 0.0881(3) 0.8332(3) 0.5982(4)
H4_7 H 0.0964 0.8332 0.6613
C6_5 C 0.0736(2) 0.7804(2) 0.2174(4)
H5_5 H 0.1069 0.8121 0.2096
C7_7 C 0.0391(2) 0.7954(3) 0.5673(4)
H6_7 H 0.0150 0.7687 0.6084
C8_5 C 0.0167(2) 0.6930(2) 0.1851(5)
H7_5 H 0.0082 0.6614 0.1525
Ag3_7 Ag 0.20480(3) 0.93499(2) 0.59009(3)
N2_5 N 0.98816(17) 0.73642(17) 0.2888(3)
C9_5 C 0.9795(2) 0.6929(2) 0.2442(5)
H8_3 H 0.9467 0.6607 0.2533
N5_7 N 0.87015(18) 0.74545(25) 0.4566(3)
C1_6 C 0.2187(2) 0.2546(3) 0.2750(3)
N1_8 N 0.12985(18) 0.25455(25) 0.5434(3)
N2_6 N 0.26358(17) 0.25175(24) 0.2888(3)
C2_8 C 0.16776(19) 0.22885(27) 0.4226(3)
N3_8 N 0.2049(2) 0.22916(28) 0.4787(3)
C3_8 C 0.13147(19) 0.24251(28) 0.4540(4)
H1_8 H 0.1068 0.2434 0.4121
C4_6 C 0.1690(2) 0.2149(3) 0.3240(4)
H2_6 H 0.1377 0.2125 0.2921
H3_6 H 0.1661 0.1794 0.3208
C5_8 C 0.1668(3) 0.2550(4) 0.5982(4)
H4_8 H 0.1668 0.2633 0.6613
C6_6 C 0.2196(2) 0.2933(3) 0.2174(4)
H5_6 H 0.1879 0.2949 0.2096
C7_8 C 0.2046(3) 0.2438(4) 0.5673(4)
H6_8 H 0.2313 0.2464 0.6084
C8_6 C 0.3070(2) 0.3238(3) 0.1851(5)
H7_6 H 0.3386 0.3469 0.1525
C9_6 C 0.3071(2) 0.2867(3) 0.2442(5)
H8_4 H 0.3393 0.2861 0.2533
Ag3_8 Ag 0.06501(2) 0.26980(4) 0.59009(3)
N5_8 N 0.25455(25) 0.12469(31) 0.4566(3)
N2_7 N 0.74825(24) 0.01184(17) 0.2888(3)
C9_7 C 0.7133(3) 0.0205(2) 0.2442(5)
H8_5 H 0.7139 0.0533 0.2533
N5_9 N 0.87531(31) 0.12985(18) 0.4566(3)
C1_7 C 0.7454(3) 0.9642(2) 0.2750(3)
N1_9 N 0.74545(25) 0.87531(18) 0.5434(3)
C2_9 C 0.77115(27) 0.93892(19) 0.4226(3)
N3_9 N 0.77084(28) 0.97578(19) 0.4787(3)
C3_9 C 0.75749(28) 0.8890(2) 0.4540(4)
H1_9 H 0.7566 0.8635 0.4121
C4_7 C 0.7851(3) 0.9542(2) 0.3240(4)
H2_7 H 0.7875 0.9253 0.2921
H3_7 H 0.8206 0.9868 0.3208
C5_9 C 0.7450(4) 0.9119(3) 0.5982(4)
H4_9 H 0.7367 0.9036 0.6613
C6_7 C 0.7067(3) 0.9264(2) 0.2174(4)
H5_7 H 0.7051 0.8931 0.2096
C7_9 C 0.7562(4) 0.9609(2) 0.5673(4)
H6_9 H 0.7536 0.9850 0.6084
C8_7 C 0.6762(3) 0.9833(2) 0.1851(5)
H7_7 H 0.6531 0.9918 0.1525
Ag3_9 Ag 0.73020(4) 0.79520(3) 0.59009(3)
C1_8 C 0.2975(2) 0.8854(2) 0.3917(3)
N2_8 N 0.34517(17) 0.93025(17) 0.3779(3)
C2_10 C 0.27225(19) 0.83443(19) 0.2441(3)
N3_10 N 0.30911(19) 0.8716(2) 0.1880(3)
C3_10 C 0.2223(2) 0.79814(19) 0.2127(4)
H1_10 H 0.1968 0.7735 0.2546
C4_8 C 0.2875(2) 0.8357(2) 0.3427(4)
H2_8 H 0.2586 0.8044 0.3746
H3_8 H 0.3201 0.8328 0.3459
N4_4 N 0.26878(19) 0.93040(18) 0.4943(3)
C5_10 C 0.2452(3) 0.8335(3) 0.0685(4)
H4_10 H 0.2369 0.8335 0.0054
C6_8 C 0.2597(2) 0.8863(2) 0.4493(4)
H5_8 H 0.2264 0.8546 0.4571
C7_10 C 0.2942(2) 0.8713(3) 0.0994(4)
H6_10 H 0.3183 0.8980 0.0583
C8_8 C 0.3166(2) 0.9737(2) 0.4816(5)
C9_8 C 0.3538(2) 0.9738(2) 0.4225(5)
C1_9 C 0.1146(2) 0.4121(3) 0.3917(3)
N2_9 N 0.06975(17) 0.41492(24) 0.3779(3)
C2_11 C 0.16557(19) 0.43782(27) 0.2441(3)
N3_11 N 0.1284(2) 0.43751(28) 0.1880(3)
C3_11 C 0.20186(19) 0.42416(28) 0.2127(4)
H1_11 H 0.2265 0.4233 0.2546
C4_9 C 0.1643(2) 0.4518(3) 0.3427(4)
H2_9 H 0.1956 0.4542 0.3746
H3_9 H 0.1672 0.4873 0.3459
N4_5 N 0.06960(18) 0.33838(26) 0.4943(3)
C5_11 C 0.1665(3) 0.4117(4) 0.0685(4)
H4_11 H 0.1665 0.4034 0.0054
C6_9 C 0.1137(2) 0.3734(3) 0.4493(4)
H5_9 H 0.1454 0.3718 0.4571
C7_11 C 0.1287(3) 0.4229(4) 0.0994(4)
H6_11 H 0.1020 0.4203 0.0583
C8_9 C 0.0263(2) 0.3429(3) 0.4816(5)
C9_9 C 0.0262(2) 0.3800(3) 0.4225(5)
C1_10 C 0.5879(3) 0.7025(2) 0.3917(3)
N2_10 N 0.58508(24) 0.65483(17) 0.3779(3)
C2_12 C 0.56218(27) 0.72775(19) 0.2441(3)
N3_12 N 0.56249(28) 0.69089(19) 0.1880(3)
C3_12 C 0.57584(28) 0.7777(2) 0.2127(4)
H1_12 H 0.5767 0.8032 0.2546
C4_10 C 0.5482(3) 0.7125(2) 0.3427(4)
H2_10 H 0.5458 0.7414 0.3746
H3_10 H 0.5127 0.6799 0.3459
N4_6 N 0.66162(26) 0.73122(19) 0.4943(3)
C5_12 C 0.5883(4) 0.7548(3) 0.0685(4)
H4_12 H 0.5966 0.7631 0.0054
C6_10 C 0.6266(3) 0.7403(2) 0.4493(4)
H5_10 H 0.6282 0.7736 0.4571
C7_12 C 0.5771(4) 0.7058(2) 0.0994(4)
H6_12 H 0.5797 0.6817 0.0583
C8_10 C 0.6571(3) 0.6834(2) 0.4816(5)
H7_8 H 0.6802 0.6749 0.5142
C9_10 C 0.6200(3) 0.6462(2) 0.4225(5)
H8_6 H 0.6194 0.6134 0.4134
N6_5 N 0.60211(32) 0.59707(18) 0.1610(3)
C1_11 C 0.6308(2) 0.5521(2) 0.0584(3)
N2_11 N 0.67850(17) 0.59692(17) 0.0446(3)
C4_11 C 0.6208(2) 0.5024(2) 0.0094(4)
H2_11 H 0.5919 0.4711 0.0413
H3_11 H 0.6534 0.4995 0.0126
C6_11 C 0.5930(2) 0.5530(2) 0.1160(4)
H5_11 H 0.5597 0.5213 0.1238
C8_11 C 0.6499(2) 0.6404(2) 0.1483(5)
H7_9 H 0.6584 0.6720 0.1809
C9_11 C 0.6871(2) 0.6405(2) 0.0892(5)
H8_7 H 0.7199 0.6727 0.0801
C2_13 C 0.60558(19) 0.50110(19) 0.9108(3)
N3_13 N 0.64244(19) 0.5383(2) 0.8547(3)
C3_13 C 0.5556(2) 0.46481(19) 0.8794(4)
H1_13 H 0.5301 0.4402 0.9213
C5_13 C 0.5785(3) 0.5002(3) 0.7352(4)
H4_13 H 0.5702 0.5002 0.6721
C7_13 C 0.6275(2) 0.5380(3) 0.7661(4)
H6_13 H 0.6516 0.5647 0.7250
N6_6 N 0.73627(18) 0.67171(26) 0.8276(3)
C2_14 C 0.49890(19) 0.10449(27) 0.9108(3)
N3_14 N 0.4617(2) 0.10418(28) 0.8547(3)
C3_14 C 0.53519(19) 0.09083(28) 0.8794(4)
H1_14 H 0.5598 0.0900 0.9213
C5_14 C 0.4998(3) 0.0784(4) 0.7352(4)
H4_14 H 0.4998 0.0701 0.6721
C7_14 C 0.4620(3) 0.0896(4) 0.7661(4)
H6_14 H 0.4353 0.0870 0.7250
N6_7 N 0.32829(26) 0.06455(32) 0.8276(3)
H7_10 H 0.3280 0.9865 0.1809
H7_11 H 0.0135 0.3416 0.1809
C2_15 C 0.89551(27) 0.39442(19) 0.9108(3)
N3_15 N 0.89582(28) 0.35756(19) 0.8547(3)
C3_15 C 0.90917(28) 0.4444(2) 0.8794(4)
H1_15 H 0.9100 0.4699 0.9213
C5_15 C 0.9216(4) 0.4215(3) 0.7352(4)
H4_15 H 0.9299 0.4298 0.6721
C7_15 C 0.9104(4) 0.3725(2) 0.7661(4)
H6_15 H 0.9130 0.3484 0.7250
N6_8 N 0.93545(32) 0.26373(18) 0.8276(3)
N2_12 N 0.01184(17) 0.26358(17) 0.7112(3)
C9_12 C 0.0205(2) 0.3071(2) 0.7558(5)
H8_8 H 0.0533 0.3393 0.7467
C1_12 C 0.9642(2) 0.2187(2) 0.7250(3)
C2_16 C 0.93892(19) 0.16776(19) 0.5774(3)
N3_16 N 0.97578(19) 0.2049(2) 0.5213(3)
C3_16 C 0.8890(2) 0.13147(19) 0.5460(4)
H1_16 H 0.8635 0.1068 0.5879
C4_12 C 0.9542(2) 0.1690(2) 0.6760(4)
H2_12 H 0.9253 0.1377 0.7079
H3_12 H 0.9868 0.1661 0.6792
C5_16 C 0.9119(3) 0.1668(3) 0.4018(4)
H4_16 H 0.9036 0.1668 0.3387
C6_12 C 0.9264(2) 0.2196(2) 0.7826(4)
H5_12 H 0.8931 0.1879 0.7904
C7_16 C 0.9609(2) 0.2046(3) 0.4327(4)
H6_16 H 0.9850 0.2313 0.3916
C8_12 C 0.9833(2) 0.3070(2) 0.8149(5)
H7_12 H 0.9918 0.3386 0.8475
C1_13 C 0.7813(2) 0.7454(3) 0.7250(3)
N2_13 N 0.73642(17) 0.74825(24) 0.7112(3)
C2_17 C 0.83224(19) 0.77115(27) 0.5774(3)
N3_17 N 0.7951(2) 0.77084(28) 0.5213(3)
C3_17 C 0.86853(19) 0.75749(28) 0.5460(4)
H1_17 H 0.8932 0.7566 0.5879
C4_13 C 0.8310(2) 0.7851(3) 0.6760(4)
H2_13 H 0.8623 0.7875 0.7079
H3_13 H 0.8339 0.8206 0.6792
C5_17 C 0.8332(3) 0.7450(4) 0.4018(4)
H4_17 H 0.8332 0.7367 0.3387
C6_13 C 0.7804(2) 0.7067(3) 0.7826(4)
H5_13 H 0.8121 0.7051 0.7904
C7_17 C 0.7954(3) 0.7562(4) 0.4327(4)
H6_17 H 0.7687 0.7536 0.3916
C8_13 C 0.6930(2) 0.6762(3) 0.8149(5)
H7_13 H 0.6614 0.6531 0.8475
C9_13 C 0.6929(2) 0.7133(3) 0.7558(5)
H8_9 H 0.6607 0.7139 0.7467
C1_14 C 0.2546(3) 0.0358(2) 0.7250(3)
C2_18 C 0.22885(27) 0.06108(19) 0.5774(3)
N3_18 N 0.22916(28) 0.02422(19) 0.5213(3)
C3_18 C 0.24251(28) 0.1110(2) 0.5460(4)
H1_18 H 0.2434 0.1365 0.5879
C4_14 C 0.2149(3) 0.0458(2) 0.6760(4)
H2_14 H 0.2125 0.0747 0.7079
H3_14 H 0.1794 0.0132 0.6792
C5_18 C 0.2550(4) 0.0881(3) 0.4018(4)
H4_18 H 0.2633 0.0964 0.3387
C6_14 C 0.2933(3) 0.0736(2) 0.7826(4)
H5_14 H 0.2949 0.1069 0.7904
C7_18 C 0.2438(4) 0.0391(2) 0.4327(4)
H6_18 H 0.2464 0.0150 0.3916
C8_14 C 0.3238(3) 0.0167(2) 0.8149(5)
H7_14 H 0.3469 0.0082 0.8475
N2_14 N 0.25175(24) 0.98816(17) 0.7112(3)
C9_14 C 0.2867(3) 0.9795(2) 0.7558(5)
H8_10 H 0.2861 0.9467 0.7467
H7_15 H 0.6749 0.9947 0.4858
H8_11 H 0.6134 0.9940 0.5866
N6_9 N 0.59707(18) 0.99495(26) 0.8390(3)
C1_15 C 0.5521(2) 0.9212(3) 0.9416(3)
N2_15 N 0.59692(17) 0.91841(24) 0.9554(3)
C4_15 C 0.5024(2) 0.8815(3) 0.9906(4)
H2_15 H 0.4711 0.8791 0.9587
H3_15 H 0.4995 0.8460 0.9874
C6_15 C 0.5530(2) 0.9599(3) 0.8840(4)
H5_15 H 0.5213 0.9615 0.8762
C8_15 C 0.6404(2) 0.9904(3) 0.8517(5)
C9_15 C 0.6405(2) 0.9533(3) 0.9108(5)
H8_12 H 0.6727 0.9527 0.9199
H7_16 H 0.0053 0.6802 0.4858
H8_13 H 0.0060 0.6194 0.5866
N6_10 N 0.00505(26) 0.60211(32) 0.8390(3)
C1_16 C 0.0788(3) 0.6308(2) 0.9416(3)
N2_16 N 0.08159(24) 0.67850(17) 0.9554(3)
C4_16 C 0.1185(3) 0.6208(2) 0.9906(4)
H2_16 H 0.1209 0.5919 0.9587
H3_16 H 0.1540 0.6534 0.9874
C6_16 C 0.0401(3) 0.5930(2) 0.8840(4)
H5_16 H 0.0385 0.5597 0.8762
C8_16 C 0.0096(3) 0.6499(2) 0.8517(5)
C9_16 C 0.0467(3) 0.6871(2) 0.9108(5)
H8_14 H 0.0473 0.7199 0.9199
H7_17 H 0.3251 0.0053 0.5142
H8_15 H 0.3866 0.0060 0.4134
N6_11 N 0.40293(18) 0.00505(26) 0.1610(3)
C1_17 C 0.4479(2) 0.0788(3) 0.0584(3)
N2_17 N 0.40308(17) 0.08159(24) 0.0446(3)
C4_17 C 0.4976(2) 0.1185(3) 0.0094(4)
H2_17 H 0.5289 0.1209 0.0413
H3_17 H 0.5005 0.1540 0.0126
C6_17 C 0.4470(2) 0.0401(3) 0.1160(4)
H5_17 H 0.4787 0.0385 0.1238
C8_17 C 0.3596(2) 0.0096(3) 0.1483(5)
C9_17 C 0.3595(2) 0.0467(3) 0.0892(5)
H8_16 H 0.3273 0.0473 0.0801
H7_18 H 0.9947 0.3198 0.5142
H8_17 H 0.9940 0.3806 0.4134
N6_12 N 0.99495(26) 0.39789(32) 0.1610(3)
C1_18 C 0.9212(3) 0.3692(2) 0.0584(3)
N2_18 N 0.91841(24) 0.32150(17) 0.0446(3)
C4_18 C 0.8815(3) 0.3792(2) 0.0094(4)
H2_18 H 0.8791 0.4081 0.0413
H3_18 H 0.8460 0.3466 0.0126
C6_18 C 0.9599(3) 0.4070(2) 0.1160(4)
H5_18 H 0.9615 0.4403 0.1238
C8_18 C 0.9904(3) 0.3501(2) 0.1483(5)
C9_18 C 0.9533(3) 0.3129(2) 0.0892(5)
H8_18 H 0.9527 0.2801 0.0801
P1 P 0.61919(8) 0.08250(9) 0.13891(13)
F1 F 0.6207(3) 0.0406(3) 0.0738(4)
F2 F 0.6281(3) 0.0557(3) 0.2264(3)
F3 F 0.6271(3) 0.1302(3) 0.2048(4)
F4 F 0.6818(2) 0.1108(3) 0.1257(4)
F5 F 0.6163(3) 0.1137(2) 0.0520(3)
F6 F 0.5622(2) 0.0604(5) 0.1671(5)
P1_2 P 0.91750(9) 0.53669(12) 0.13891(13)
F1_2 F 0.9594(3) 0.5801(4) 0.0738(4)
F2_2 F 0.9443(3) 0.5724(4) 0.2264(3)
F3_2 F 0.8698(3) 0.4969(4) 0.2048(4)
F4_2 F 0.8892(3) 0.5710(4) 0.1257(4)
F5_2 F 0.8863(2) 0.5026(4) 0.0520(3)
F6_2 F 0.9396(5) 0.5018(5) 0.1671(5)
P1_3 P 0.46331(12) 0.38081(8) 0.13891(13)
F1_3 F 0.4199(4) 0.3793(3) 0.0738(4)
F2_3 F 0.4276(4) 0.3719(3) 0.2264(3)
F3_3 F 0.5031(4) 0.3729(3) 0.2048(4)
F4_3 F 0.4290(4) 0.3182(2) 0.1257(4)
F5_3 F 0.4974(4) 0.3837(3) 0.0520(3)
F6_3 F 0.4982(5) 0.4378(2) 0.1671(5)
P1_4 P 0.28586(8) 0.41583(9) 0.47224(13)
F1_4 F 0.2874(3) 0.3739(3) 0.4071(4)
F2_4 F 0.2948(3) 0.3890(3) 0.5597(3)
F3_4 F 0.2938(3) 0.4635(3) 0.5381(4)
F4_4 F 0.3485(2) 0.4441(3) 0.4590(4)
F5_4 F 0.2830(3) 0.4470(2) 0.3853(3)
F6_4 F 0.2289(2) 0.3937(5) 0.5004(5)
P1_5 P 0.58417(9) 0.87002(12) 0.47224(13)
F1_5 F 0.6261(3) 0.9134(4) 0.4071(4)
F2_5 F 0.6110(3) 0.9057(4) 0.5597(3)
F3_5 F 0.5365(3) 0.8302(4) 0.5381(4)
F4_5 F 0.5559(3) 0.9043(4) 0.4590(4)
F5_5 F 0.5530(2) 0.8359(4) 0.3853(3)
F6_5 F 0.6063(5) 0.8351(5) 0.5004(5)
P1_6 P 0.12998(12) 0.71414(8) 0.47224(13)
F1_6 F 0.0866(4) 0.7126(3) 0.4071(4)
F2_6 F 0.0943(4) 0.7052(3) 0.5597(3)
F3_6 F 0.1698(4) 0.7062(3) 0.5381(4)
F4_6 F 0.0957(4) 0.6515(2) 0.4590(4)
F5_6 F 0.1641(4) 0.7170(3) 0.3853(3)
F6_6 F 0.1649(5) 0.7711(2) 0.5004(5)
F4_7 F 0.0151(2) 0.7775(3) 0.7924(4)
P1_7 P 0.95252(8) 0.74917(9) 0.80558(13)
F1_7 F 0.9540(3) 0.7073(3) 0.7405(4)
F2_7 F 0.9614(3) 0.7224(3) 0.8931(3)
F3_7 F 0.9604(3) 0.7969(3) 0.8715(4)
F5_7 F 0.9496(3) 0.7804(2) 0.7187(3)
F6_7 F 0.8955(2) 0.7271(5) 0.8338(5)
P1_8 P 0.25083(9) 0.20336(12) 0.80558(13)
F1_8 F 0.2927(3) 0.2468(4) 0.7405(4)
F2_8 F 0.2776(3) 0.2391(4) 0.8931(3)
F3_8 F 0.2031(3) 0.1636(4) 0.8715(4)
F4_8 F 0.2225(3) 0.2377(4) 0.7924(4)
F5_8 F 0.2196(2) 0.1693(4) 0.7187(3)
F6_8 F 0.2729(5) 0.1685(5) 0.8338(5)
P1_9 P 0.79664(12) 0.04748(8) 0.80558(13)
F1_9 F 0.7532(4) 0.0460(3) 0.7405(4)
F2_9 F 0.7609(4) 0.0386(3) 0.8931(3)
F3_9 F 0.8364(4) 0.0396(3) 0.8715(4)
F5_9 F 0.8307(4) 0.0504(3) 0.7187(3)
F6_9 F 0.8315(5) 0.1045(2) 0.8338(5)
F4_9 F 0.7623(4) 0.9849(2) 0.7924(4)
P1_10 P 0.38081(8) 0.91750(9) 0.86109(13)
F1_10 F 0.3793(3) 0.9594(3) 0.9262(4)
F2_10 F 0.3719(3) 0.9443(3) 0.7736(3)
F3_10 F 0.3729(3) 0.8698(3) 0.7952(4)
F4_10 F 0.3182(2) 0.8892(3) 0.8743(4)
F5_10 F 0.3837(3) 0.8863(2) 0.9480(3)
F6_10 F 0.4378(2) 0.9396(5) 0.8329(5)
P1_11 P 0.08250(9) 0.46331(12) 0.86109(13)
F1_11 F 0.0406(3) 0.4199(4) 0.9262(4)
F2_11 F 0.0557(3) 0.4276(4) 0.7736(3)
F3_11 F 0.1302(3) 0.5031(4) 0.7952(4)
F4_11 F 0.1108(3) 0.4290(4) 0.8743(4)
F5_11 F 0.1137(2) 0.4974(4) 0.9480(3)
F6_11 F 0.0604(5) 0.4982(5) 0.8329(5)
P1_12 P 0.53669(12) 0.61919(8) 0.86109(13)
F1_12 F 0.5801(4) 0.6207(3) 0.9262(4)
F2_12 F 0.5724(4) 0.6281(3) 0.7736(3)
F3_12 F 0.4969(4) 0.6271(3) 0.7952(4)
F4_12 F 0.5710(4) 0.6818(2) 0.8743(4)
F5_12 F 0.5026(4) 0.6163(3) 0.9480(3)
F6_12 F 0.5018(5) 0.5622(2) 0.8329(5)
P1_13 P 0.71414(8) 0.58417(9) 0.52776(13)
F1_13 F 0.7126(3) 0.6261(3) 0.5929(4)
F2_13 F 0.7052(3) 0.6110(3) 0.4403(3)
F3_13 F 0.7062(3) 0.5365(3) 0.4619(4)
F4_13 F 0.6515(2) 0.5559(3) 0.5410(4)
F5_13 F 0.7170(3) 0.5530(2) 0.6147(3)
F6_13 F 0.7711(2) 0.6063(5) 0.4996(5)
P1_14 P 0.41583(9) 0.12998(12) 0.52776(13)
F1_14 F 0.3739(3) 0.0866(4) 0.5929(4)
F2_14 F 0.3890(3) 0.0943(4) 0.4403(3)
F3_14 F 0.4635(3) 0.1698(4) 0.4619(4)
F4_14 F 0.4441(3) 0.0957(4) 0.5410(4)
F5_14 F 0.4470(2) 0.1641(4) 0.6147(3)
F6_14 F 0.3937(5) 0.1649(5) 0.4996(5)
P1_15 P 0.87002(12) 0.28586(8) 0.52776(13)
F1_15 F 0.9134(4) 0.2874(3) 0.5929(4)
F2_15 F 0.9057(4) 0.2948(3) 0.4403(3)
F3_15 F 0.8302(4) 0.2938(3) 0.4619(4)
F4_15 F 0.9043(4) 0.3485(2) 0.5410(4)
F5_15 F 0.8359(4) 0.2830(3) 0.6147(3)
F6_15 F 0.8351(5) 0.2289(2) 0.4996(5)
P1_16 P 0.04748(8) 0.25083(9) 0.19442(13)
F1_16 F 0.0460(3) 0.2927(3) 0.2595(4)
F2_16 F 0.0386(3) 0.2776(3) 0.1069(3)
F3_16 F 0.0396(3) 0.2031(3) 0.1285(4)
F5_16 F 0.0504(3) 0.2196(2) 0.2813(3)
F6_16 F 0.1045(2) 0.2729(5) 0.1662(5)
F4_16 F 0.9849(2) 0.2225(3) 0.2076(4)
P1_17 P 0.74917(9) 0.79664(12) 0.19442(13)
F1_17 F 0.7073(3) 0.7532(4) 0.2595(4)
F2_17 F 0.7224(3) 0.7609(4) 0.1069(3)
F3_17 F 0.7969(3) 0.8364(4) 0.1285(4)
F4_17 F 0.7775(3) 0.7623(4) 0.2076(4)
F5_17 F 0.7804(2) 0.8307(4) 0.2813(3)
F6_17 F 0.7271(5) 0.8315(5) 0.1662(5)
F4_18 F 0.2377(4) 0.0151(2) 0.2076(4)
P1_18 P 0.20336(12) 0.95252(8) 0.19442(13)
F1_18 F 0.2468(4) 0.9540(3) 0.2595(4)
F2_18 F 0.2391(4) 0.9614(3) 0.1069(3)
F3_18 F 0.1636(4) 0.9604(3) 0.1285(4)
F5_18 F 0.1693(4) 0.9496(3) 0.2813(3)
F6_18 F 0.1685(5) 0.8955(2) 0.1662(5)
loop_
_geom_bond_atom_site_label_1
_geom_bond_atom_site_label_2
_geom_bond_site_symmetry_1
_geom_bond_site_symmetry_2
Ag1 N2 1_555 1_555
C1 N2 1_555 1_555
N1 C3 1_555 1_555
N2 C9 1_555 1_555
C2 N3 1_555 1_555
N3 Ag1 1_555 1_555
C3 C2 1_555 1_555
H1 C3 1_555 1_555
C4 C1 1_555 1_555
H2 C4 1_555 1_555
H3 C4 1_555 1_555
N4 C6 1_555 1_555
C5 N1 1_555 1_555
H4 C5 1_555 1_555
C6 C1 1_555 1_555
H5 C6 1_555 1_555
C7 N3 1_555 1_555
H6 C7 1_555 1_555
C8 N4 1_555 1_555
C9 C8 1_555 1_555
Ag2 N4 1_555 1_555
Ag3 N1 1_555 1_555
N5 Ag1 1_555 1_555
C2 C4 1_555 1_555
C5 C7 1_555 1_555
Ag1_2 N2_2 1_555 1_555
C1_2 N2_2 1_555 1_555
N1_2 C3_2 1_555 1_555
N2_2 C9_2 1_555 1_555
C2_2 N3_2 1_555 1_555
N3_2 Ag1_2 1_555 1_555
C3_2 C2_2 1_555 1_555
H1_2 C3_2 1_555 1_555
C4_2 C1_2 1_555 1_555
H2_2 C4_2 1_555 1_555
H3_2 C4_2 1_555 1_555
N4_2 C6_2 1_555 1_555
C5_2 N1_2 1_555 1_555
H4_2 C5_2 1_555 1_555
C6_2 C1_2 1_555 1_555
H5_2 C6_2 1_555 1_555
C7_2 N3_2 1_555 1_555
H6_2 C7_2 1_555 1_555
C8_2 N4_2 1_555 1_555
C9_2 C8_2 1_555 1_555
Ag2_2 N4_2 1_555 1_555
Ag3_2 N1_2 1_555 1_555
N5_2 Ag1_2 1_555 1_555
C2_2 C4_2 1_555 1_555
C5_2 C7_2 1_555 1_555
Ag1_3 N2_3 1_555 1_555
C1_3 N2_3 1_555 1_555
N1_3 C3_3 1_555 1_555
N2_3 C9_3 1_555 1_555
C2_3 N3_3 1_555 1_555
N3_3 Ag1_3 1_555 1_555
C3_3 C2_3 1_555 1_555
H1_3 C3_3 1_555 1_555
C4_3 C1_3 1_555 1_555
H2_3 C4_3 1_555 1_555
H3_3 C4_3 1_555 1_555
N4_3 C6_3 1_555 1_555
C5_3 N1_3 1_555 1_555
H4_3 C5_3 1_555 1_555
C6_3 C1_3 1_555 1_555
H5_3 C6_3 1_555 1_555
C7_3 N3_3 1_555 1_555
H6_3 C7_3 1_555 1_555
C8_3 N4_3 1_555 1_555
H7 C8_3 1_555 1_555
C9_3 C8_3 1_555 1_555
H8 C9_3 1_555 1_555
Ag2_3 N4_3 1_555 1_555
Ag3_3 N1_3 1_555 1_555
N5_3 Ag1_3 1_555 1_555
N6 Ag1_3 1_555 1_555
C2_3 C4_3 1_555 1_555
C5_3 C7_3 1_555 1_555
N1_4 C3_4 1_555 1_555
C2_4 N3_4 1_555 1_555
N3_4 Ag1_4 1_555 1_555
C3_4 C2_4 1_555 1_555
H1_4 C3_4 1_555 1_555
C5_4 N1_4 1_555 1_555
H4_4 C5_4 1_555 1_555
C7_4 N3_4 1_555 1_555
H6_4 C7_4 1_555 1_555
Ag3_4 N1_4 1_555 1_555
N5_4 Ag1_4 1_555 1_555
N6_2 Ag1_4 1_555 1_555
C5_4 C7_4 1_555 1_555
C1_4 N2_4 1_555 1_555
N2_4 C9_4 1_555 1_555
C4_4 C1_4 1_555 1_555
H2_4 C4_4 1_555 1_555
H3_4 C4_4 1_555 1_555
N6 C6_4 1_555 1_555
C6_4 C1_4 1_555 1_555
H5_4 C6_4 1_555 1_555
C8_4 N6 1_555 1_555
H7_2 C8_4 1_555 1_555
C9_4 C8_4 1_555 1_555
H8_2 C9_4 1_555 1_555
N1_5 C3_5 1_555 1_555
C2_5 N3_5 1_555 1_555
N3_5 Ag1_5 1_555 1_555
C3_5 C2_5 1_555 1_555
H1_5 C3_5 1_555 1_555
C5_5 N1_5 1_555 1_555
H4_5 C5_5 1_555 1_555
C7_5 N3_5 1_555 1_555
H6_5 C7_5 1_555 1_555
Ag3_5 N1_5 1_555 1_555
N5_5 Ag1_5 1_555 1_555
N6_3 Ag1_5 1_555 1_555
C5_5 C7_5 1_555 1_555
N1_6 C3_6 1_555 1_555
C2_6 N3_6 1_555 1_555
N3_6 Ag1_6 1_555 1_555
C3_6 C2_6 1_555 1_555
H1_6 C3_6 1_555 1_555
C5_6 N1_6 1_555 1_555
H4_6 C5_6 1_555 1_555
C7_6 N3_6 1_555 1_555
H6_6 C7_6 1_555 1_555
Ag3_6 N1_6 1_555 1_555
N5_6 Ag1_6 1_555 1_555
N6_4 Ag1_6 1_555 1_555
C5_6 C7_6 1_555 1_555
N1_7 C3_7 1_555 1_555
C2_7 N3_7 1_555 1_555
C3_7 C2_7 1_555 1_555
H1_7 C3_7 1_555 1_555
C4_5 C1_5 1_555 1_555
H2_5 C4_5 1_555 1_555
H3_5 C4_5 1_555 1_555
N6_4 C6_5 1_555 1_555
C5_7 N1_7 1_555 1_555
H4_7 C5_7 1_555 1_555
C6_5 C1_5 1_555 1_555
H5_5 C6_5 1_555 1_555
C7_7 N3_7 1_555 1_555
H6_7 C7_7 1_555 1_555
C8_5 N6_4 1_555 1_555
H7_5 C8_5 1_555 1_555
Ag3_7 N1_7 1_555 1_555
C2_7 C4_5 1_555 1_555
C5_7 C7_7 1_555 1_555
Ag2_2 N2_5 1_555 1_555
N2_5 C9_5 1_555 1_555
H8_3 C9_5 1_555 1_555
N5_7 Ag2_2 1_555 1_555
Ag2_3 N2_6 1_555 1_555
C1_6 N2_6 1_555 1_555
N1_8 C3_8 1_555 1_555
N2_6 C9_6 1_555 1_555
C2_8 N3_8 1_555 1_555
N3_8 Ag2_3 1_555 1_555
C3_8 C2_8 1_555 1_555
H1_8 C3_8 1_555 1_555
C4_6 C1_6 1_555 1_555
H2_6 C4_6 1_555 1_555
H3_6 C4_6 1_555 1_555
N6_2 C6_6 1_555 1_555
C5_8 N1_8 1_555 1_555
H4_8 C5_8 1_555 1_555
C6_6 C1_6 1_555 1_555
H5_6 C6_6 1_555 1_555
C7_8 N3_8 1_555 1_555
H6_8 C7_8 1_555 1_555
C8_6 N6_2 1_555 1_555
H7_6 C8_6 1_555 1_555
C9_6 C8_6 1_555 1_555
H8_4 C9_6 1_555 1_555
Ag3_8 N1_8 1_555 1_555
N5_8 Ag2_3 1_555 1_555
C2_8 C4_6 1_555 1_555
C5_8 C7_8 1_555 1_555
Ag2 N2_7 1_555 1_555
N2_7 C9_7 1_555 1_555
H8_5 C9_7 1_555 1_555
N5_9 Ag2 1_555 1_555
N1_9 C3_9 1_555 1_555
C2_9 N3_9 1_555 1_555
C3_9 C2_9 1_555 1_555
H1_9 C3_9 1_555 1_555
C4_7 C1_7 1_555 1_555
H2_7 C4_7 1_555 1_555
H3_7 C4_7 1_555 1_555
N6_3 C6_7 1_555 1_555
C5_9 N1_9 1_555 1_555
H4_9 C5_9 1_555 1_555
C6_7 C1_7 1_555 1_555
H5_7 C6_7 1_555 1_555
C7_9 N3_9 1_555 1_555
H6_9 C7_9 1_555 1_555
C8_7 N6_3 1_555 1_555
H7_7 C8_7 1_555 1_555
Ag3_9 N1_9 1_555 1_555
C2_9 C4_7 1_555 1_555
C5_9 C7_9 1_555 1_555
Ag3_5 N2_8 1_555 1_555
C1_8 N2_8 1_555 1_555
N5_6 C3_10 1_555 1_555
N2_8 C9_8 1_555 1_555
C2_10 N3_10 1_555 1_555
N3_10 Ag3_5 1_555 1_555
C3_10 C2_10 1_555 1_555
H1_10 C3_10 1_555 1_555
C4_8 C1_8 1_555 1_555
H2_8 C4_8 1_555 1_555
H3_8 C4_8 1_555 1_555
N4_4 C6_8 1_555 1_555
C5_10 N5_6 1_555 1_555
H4_10 C5_10 1_555 1_555
C6_8 C1_8 1_555 1_555
H5_8 C6_8 1_555 1_555
C7_10 N3_10 1_555 1_555
H6_10 C7_10 1_555 1_555
C8_8 N4_4 1_555 1_555
C9_8 C8_8 1_555 1_555
Ag3_7 N4_4 1_555 1_555
C2_10 C4_8 1_555 1_555
C5_10 C7_10 1_555 1_555
Ag3_6 N2_9 1_555 1_555
C1_9 N2_9 1_555 1_555
N5_4 C3_11 1_555 1_555
N2_9 C9_9 1_555 1_555
C2_11 N3_11 1_555 1_555
N3_11 Ag3_6 1_555 1_555
C3_11 C2_11 1_555 1_555
H1_11 C3_11 1_555 1_555
C4_9 C1_9 1_555 1_555
H2_9 C4_9 1_555 1_555
H3_9 C4_9 1_555 1_555
N4_5 C6_9 1_555 1_555
C5_11 N5_4 1_555 1_555
H4_11 C5_11 1_555 1_555
C6_9 C1_9 1_555 1_555
H5_9 C6_9 1_555 1_555
C7_11 N3_11 1_555 1_555
H6_11 C7_11 1_555 1_555
C8_9 N4_5 1_555 1_555
C9_9 C8_9 1_555 1_555
Ag3_8 N4_5 1_555 1_555
C2_11 C4_9 1_555 1_555
C5_11 C7_11 1_555 1_555
Ag3_4 N2_10 1_555 1_555
C1_10 N2_10 1_555 1_555
N5_5 C3_12 1_555 1_555
N2_10 C9_10 1_555 1_555
C2_12 N3_12 1_555 1_555
N3_12 Ag3_4 1_555 1_555
C3_12 C2_12 1_555 1_555
H1_12 C3_12 1_555 1_555
C4_10 C1_10 1_555 1_555
H2_10 C4_10 1_555 1_555
H3_10 C4_10 1_555 1_555
N4_6 C6_10 1_555 1_555
C5_12 N5_5 1_555 1_555
H4_12 C5_12 1_555 1_555
C6_10 C1_10 1_555 1_555
H5_10 C6_10 1_555 1_555
C7_12 N3_12 1_555 1_555
H6_12 C7_12 1_555 1_555
C8_10 N4_6 1_555 1_555
H7_8 C8_10 1_555 1_555
C9_10 C8_10 1_555 1_555
H8_6 C9_10 1_555 1_555
Ag3_9 N4_6 1_555 1_555
N6_5 Ag3_4 1_555 1_555
C2_12 C4_10 1_555 1_555
C5_12 C7_12 1_555 1_555
C1_11 N2_11 1_555 1_555
N2_11 C9_11 1_555 1_555
C4_11 C1_11 1_555 1_555
H2_11 C4_11 1_555 1_555
H3_11 C4_11 1_555 1_555
N6_5 C6_11 1_555 1_555
C6_11 C1_11 1_555 1_555
H5_11 C6_11 1_555 1_555
C8_11 N6_5 1_555 1_555
H7_9 C8_11 1_555 1_555
C9_11 C8_11 1_555 1_555
H8_7 C9_11 1_555 1_555
N5_3 C3_13 1_555 1_555
C2_13 N3_13 1_555 1_555
N3_13 Ag3_2 1_555 1_555
C3_13 C2_13 1_555 1_555
H1_13 C3_13 1_555 1_555
C5_13 N5_3 1_555 1_555
H4_13 C5_13 1_555 1_555
C7_13 N3_13 1_555 1_555
H6_13 C7_13 1_555 1_555
N6_6 Ag3_2 1_555 1_555
C5_13 C7_13 1_555 1_555
N5 C3_14 1_555 1_555
C2_14 N3_14 1_555 1_555
N3_14 Ag3_3 1_555 1_555
C3_14 C2_14 1_555 1_555
H1_14 C3_14 1_555 1_555
C5_14 N5 1_555 1_555
H4_14 C5_14 1_555 1_555
C7_14 N3_14 1_555 1_555
H6_14 C7_14 1_555 1_555
N6_7 Ag3_3 1_555 1_555
C5_14 C7_14 1_555 1_555
N5_2 C3_15 1_555 1_555
C2_15 N3_15 1_555 1_555
N3_15 Ag3 1_555 1_555
C3_15 C2_15 1_555 1_555
H1_15 C3_15 1_555 1_555
C5_15 N5_2 1_555 1_555
H4_15 C5_15 1_555 1_555
C7_15 N3_15 1_555 1_555
H6_15 C7_15 1_555 1_555
N6_8 Ag3 1_555 1_555
C5_15 C7_15 1_555 1_555
Ag3_8 N2_12 1_555 1_555
N2_12 C9_12 1_555 1_555
H8_8 C9_12 1_555 1_555
N5_9 C3_16 1_555 1_555
C2_16 N3_16 1_555 1_555
C3_16 C2_16 1_555 1_555
H1_16 C3_16 1_555 1_555
C4_12 C1_12 1_555 1_555
H2_12 C4_12 1_555 1_555
H3_12 C4_12 1_555 1_555
N6_8 C6_12 1_555 1_555
C5_16 N5_9 1_555 1_555
H4_16 C5_16 1_555 1_555
C6_12 C1_12 1_555 1_555
H5_12 C6_12 1_555 1_555
C7_16 N3_16 1_555 1_555
H6_16 C7_16 1_555 1_555
C8_12 N6_8 1_555 1_555
H7_12 C8_12 1_555 1_555
C2_16 C4_12 1_555 1_555
C5_16 C7_16 1_555 1_555
Ag3_9 N2_13 1_555 1_555
C1_13 N2_13 1_555 1_555
N5_7 C3_17 1_555 1_555
N2_13 C9_13 1_555 1_555
C2_17 N3_17 1_555 1_555
N3_17 Ag3_9 1_555 1_555
C3_17 C2_17 1_555 1_555
H1_17 C3_17 1_555 1_555
C4_13 C1_13 1_555 1_555
H2_13 C4_13 1_555 1_555
H3_13 C4_13 1_555 1_555
N6_6 C6_13 1_555 1_555
C5_17 N5_7 1_555 1_555
H4_17 C5_17 1_555 1_555
C6_13 C1_13 1_555 1_555
H5_13 C6_13 1_555 1_555
C7_17 N3_17 1_555 1_555
H6_17 C7_17 1_555 1_555
C8_13 N6_6 1_555 1_555
H7_13 C8_13 1_555 1_555
C9_13 C8_13 1_555 1_555
H8_9 C9_13 1_555 1_555
C2_17 C4_13 1_555 1_555
C5_17 C7_17 1_555 1_555
N5_8 C3_18 1_555 1_555
C2_18 N3_18 1_555 1_555
C3_18 C2_18 1_555 1_555
H1_18 C3_18 1_555 1_555
C4_14 C1_14 1_555 1_555
H2_14 C4_14 1_555 1_555
H3_14 C4_14 1_555 1_555
N6_7 C6_14 1_555 1_555
C5_18 N5_8 1_555 1_555
H4_18 C5_18 1_555 1_555
C6_14 C1_14 1_555 1_555
H5_14 C6_14 1_555 1_555
C7_18 N3_18 1_555 1_555
H6_18 C7_18 1_555 1_555
C8_14 N6_7 1_555 1_555
H7_14 C8_14 1_555 1_555
C2_18 C4_14 1_555 1_555
C5_18 C7_18 1_555 1_555
Ag3_7 N2_14 1_555 1_555
N2_14 C9_14 1_555 1_555
H8_10 C9_14 1_555 1_555
C1_15 N2_15 1_555 1_555
N2_15 C9_15 1_555 1_555
C4_15 C1_15 1_555 1_555
H2_15 C4_15 1_555 1_555
H3_15 C4_15 1_555 1_555
N6_9 C6_15 1_555 1_555
C6_15 C1_15 1_555 1_555
H5_15 C6_15 1_555 1_555
C8_15 N6_9 1_555 1_555
C9_15 C8_15 1_555 1_555
H8_12 C9_15 1_555 1_555
C1_16 N2_16 1_555 1_555
N2_16 C9_16 1_555 1_555
C4_16 C1_16 1_555 1_555
H2_16 C4_16 1_555 1_555
H3_16 C4_16 1_555 1_555
N6_10 C6_16 1_555 1_555
C6_16 C1_16 1_555 1_555
H5_16 C6_16 1_555 1_555
C8_16 N6_10 1_555 1_555
C9_16 C8_16 1_555 1_555
H8_14 C9_16 1_555 1_555
C1_17 N2_17 1_555 1_555
N2_17 C9_17 1_555 1_555
C4_17 C1_17 1_555 1_555
H2_17 C4_17 1_555 1_555
H3_17 C4_17 1_555 1_555
N6_11 C6_17 1_555 1_555
C6_17 C1_17 1_555 1_555
H5_17 C6_17 1_555 1_555
C8_17 N6_11 1_555 1_555
C9_17 C8_17 1_555 1_555
H8_16 C9_17 1_555 1_555
C1_18 N2_18 1_555 1_555
N2_18 C9_18 1_555 1_555
C4_18 C1_18 1_555 1_555
H2_18 C4_18 1_555 1_555
H3_18 C4_18 1_555 1_555
N6_12 C6_18 1_555 1_555
C6_18 C1_18 1_555 1_555
H5_18 C6_18 1_555 1_555
C8_18 N6_12 1_555 1_555
C9_18 C8_18 1_555 1_555
H8_18 C9_18 1_555 1_555
P1 F1 1_555 1_555
F2 P1 1_555 1_555
F3 P1 1_555 1_555
F4 P1 1_555 1_555
F5 P1 1_555 1_555
F6 P1 1_555 1_555
P1_2 F1_2 1_555 1_555
F2_2 P1_2 1_555 1_555
F3_2 P1_2 1_555 1_555
F4_2 P1_2 1_555 1_555
F5_2 P1_2 1_555 1_555
F6_2 P1_2 1_555 1_555
P1_3 F1_3 1_555 1_555
F2_3 P1_3 1_555 1_555
F3_3 P1_3 1_555 1_555
F4_3 P1_3 1_555 1_555
F5_3 P1_3 1_555 1_555
F6_3 P1_3 1_555 1_555
P1_4 F1_4 1_555 1_555
F2_4 P1_4 1_555 1_555
F3_4 P1_4 1_555 1_555
F4_4 P1_4 1_555 1_555
F5_4 P1_4 1_555 1_555
F6_4 P1_4 1_555 1_555
P1_5 F1_5 1_555 1_555
F2_5 P1_5 1_555 1_555
F3_5 P1_5 1_555 1_555
F4_5 P1_5 1_555 1_555
F5_5 P1_5 1_555 1_555
F6_5 P1_5 1_555 1_555
P1_6 F1_6 1_555 1_555
F2_6 P1_6 1_555 1_555
F3_6 P1_6 1_555 1_555
F4_6 P1_6 1_555 1_555
F5_6 P1_6 1_555 1_555
F6_6 P1_6 1_555 1_555
P1_7 F1_7 1_555 1_555
F2_7 P1_7 1_555 1_555
F3_7 P1_7 1_555 1_555
F5_7 P1_7 1_555 1_555
F6_7 P1_7 1_555 1_555
P1_8 F1_8 1_555 1_555
F2_8 P1_8 1_555 1_555
F3_8 P1_8 1_555 1_555
F4_8 P1_8 1_555 1_555
F5_8 P1_8 1_555 1_555
F6_8 P1_8 1_555 1_555
P1_9 F1_9 1_555 1_555
F2_9 P1_9 1_555 1_555
F3_9 P1_9 1_555 1_555
F5_9 P1_9 1_555 1_555
F6_9 P1_9 1_555 1_555
P1_10 F1_10 1_555 1_555
F2_10 P1_10 1_555 1_555
F3_10 P1_10 1_555 1_555
F4_10 P1_10 1_555 1_555
F5_10 P1_10 1_555 1_555
F6_10 P1_10 1_555 1_555
P1_11 F1_11 1_555 1_555
F2_11 P1_11 1_555 1_555
F3_11 P1_11 1_555 1_555
F4_11 P1_11 1_555 1_555
F5_11 P1_11 1_555 1_555
F6_11 P1_11 1_555 1_555
P1_12 F1_12 1_555 1_555
F2_12 P1_12 1_555 1_555
F3_12 P1_12 1_555 1_555
F4_12 P1_12 1_555 1_555
F5_12 P1_12 1_555 1_555
F6_12 P1_12 1_555 1_555
P1_13 F1_13 1_555 1_555
F2_13 P1_13 1_555 1_555
F3_13 P1_13 1_555 1_555
F4_13 P1_13 1_555 1_555
F5_13 P1_13 1_555 1_555
F6_13 P1_13 1_555 1_555
P1_14 F1_14 1_555 1_555
F2_14 P1_14 1_555 1_555
F3_14 P1_14 1_555 1_555
F4_14 P1_14 1_555 1_555
F5_14 P1_14 1_555 1_555
F6_14 P1_14 1_555 1_555
P1_15 F1_15 1_555 1_555
F2_15 P1_15 1_555 1_555
F3_15 P1_15 1_555 1_555
F4_15 P1_15 1_555 1_555
F5_15 P1_15 1_555 1_555
F6_15 P1_15 1_555 1_555
P1_16 F1_16 1_555 1_555
F2_16 P1_16 1_555 1_555
F3_16 P1_16 1_555 1_555
F5_16 P1_16 1_555 1_555
F6_16 P1_16 1_555 1_555
P1_17 F1_17 1_555 1_555
F2_17 P1_17 1_555 1_555
F3_17 P1_17 1_555 1_555
F4_17 P1_17 1_555 1_555
F5_17 P1_17 1_555 1_555
F6_17 P1_17 1_555 1_555
P1_18 F1_18 1_555 1_555
F2_18 P1_18 1_555 1_555
F3_18 P1_18 1_555 1_555
F5_18 P1_18 1_555 1_555
F6_18 P1_18 1_555 1_555

#END
