
###############################################################################
#
# This file contains modified crystal structure data generated from the
# MOF subset of the Cambridge Structural Database (CSD) v543 
# hosted by the Cambridge Crystallographic Data Centre (CCDC).
#
# This work is licensed under the Creative Commons
# Attribution-NonCommercial-ShareAlike 4.0 International License.
# To view a copy of this license, visit
# http://creativecommons.org/licenses/by-nc-sa/4.0/
# or send a letter to
# Creative Commons, PO Box 1866, Mountain View, CA 94042, USA.
#
# CIF created using the CSD Python API on 29 September 2022
# The structure has been converted into the P1 space group
# The structure has a 3D framework
# The original CSD entry HUFHEX is in the rhombohedral crystal system
# The framework has been calculated to contain at least 10.0% void space
# The void calculation uses a probe of radius 1.32A, grid spacing 0.4
# The framework is charged, counterions have been retained in the structure
#
###############################################################################

data_HUFHEX
_chemical_formula_moiety         '(C198 H252 Ag18 F108 N72 O18 P18 S18)n'
_symmetry_cell_setting           triclinic
_symmetry_space_group_name_H-M   'P 1'
_symmetry_Int_Tables_number      1
_space_group_name_Hall           'P 1'
loop_
_symmetry_equiv_pos_site_id
_symmetry_equiv_pos_as_xyz
1 x,y,z
_cell_length_a                   28.9105(14)
_cell_length_b                   28.9105(14)
_cell_length_c                   14.3863(6)
_cell_angle_alpha                90
_cell_angle_beta                 90
_cell_angle_gamma                120
_cell_volume                     10413.4
loop_
_atom_site_label
_atom_site_type_symbol
_atom_site_fract_x
_atom_site_fract_y
_atom_site_fract_z
Ag1 Ag 0.80207(2) 0.06580(2) 0.39295(3)
H7 H 0.7984 0.0064 0.6006
C9 C 0.6935(2) 0.0023(2) 0.2616(4)
H8 H 0.6891 0.0314 0.2800
S1 S 0.83114(9) 0.08242(9) 0.14664(13)
O1 O 0.8377(2) 0.1082(2) 0.2408(3)
C10 C 0.7856(4) 0.0936(4) 0.0840(5)
H9 H 0.7512 0.0770 0.1167
H10 H 0.7806 0.0779 0.0219
H11 H 0.7994 0.1321 0.0785
C11 C 0.8882(4) 0.1250(5) 0.0837(6)
H12 H 0.8871 0.1573 0.0667
H13 H 0.8898 0.1069 0.0272
H14 H 0.9199 0.1349 0.1218
N5 N 0.88383(16) 0.12954(24) 0.4528(3)
N6 N 0.74269(18) 0.07205(27) 0.5021(3)
N1 N 0.73293(18) 0.99703(17) 0.2981(3)
C1 C 0.7684(2) 0.9266(2) 0.6006(3)
H1 H 0.7650 0.9227 0.6662
C2 C 0.7380(2) 0.95522(19) 0.2714(3)
C3 C 0.77775(19) 0.94139(18) 0.4157(3)
C4 C 0.78267(19) 0.9490(2) 0.3121(3)
H2 H 0.7824 0.9178 0.2831
H3 H 0.8173 0.9811 0.2973
C5 C 0.7582(2) 0.89128(18) 0.4555(3)
H4 H 0.7472 0.8612 0.4160
N2 N 0.7925(2) 0.98433(17) 0.4685(3)
C6 C 0.6587(2) 0.9659(2) 0.1972(4)
H5 H 0.6311 0.9708 0.1723
N3 N 0.75429(18) 0.88383(16) 0.5472(3)
C7 C 0.7023(2) 0.9186(2) 0.2071(3)
H6 H 0.7061 0.8889 0.1899
C8 C 0.7879(3) 0.9765(2) 0.5610(4)
N4 N 0.6627(2) 0.92398(18) 0.1688(3)
Ag2 Ag 0.59706(3) 0.86460(2) 0.05962(3)
Ag3 Ag 0.73627(3) 0.80207(2) 0.60705(3)
N1_2 N 0.00297(17) 0.73590(25) 0.2981(3)
C1_2 C 0.0734(2) 0.8418(3) 0.6006(3)
H1_2 H 0.0773 0.8423 0.6662
C2_2 C 0.04478(19) 0.78278(28) 0.2714(3)
C3_2 C 0.05861(18) 0.83636(26) 0.4157(3)
C4_2 C 0.0510(2) 0.83367(28) 0.3121(3)
H2_2 H 0.0822 0.8646 0.2831
H3_2 H 0.0189 0.8362 0.2973
C5_2 C 0.10872(18) 0.86692(27) 0.4555(3)
H4_2 H 0.1388 0.8860 0.4160
N2_2 N 0.01567(17) 0.80817(26) 0.4685(3)
C6_2 C 0.0341(2) 0.6928(3) 0.1972(4)
H5_2 H 0.0292 0.6603 0.1723
N3_2 N 0.11617(16) 0.87046(24) 0.5472(3)
C7_2 C 0.0814(2) 0.7837(3) 0.2071(3)
H6_2 H 0.1111 0.8172 0.1899
C8_2 C 0.0235(2) 0.8114(4) 0.5610(4)
N4_2 N 0.07602(18) 0.73872(27) 0.1688(3)
Ag2_2 Ag 0.13540(2) 0.73247(4) 0.05962(3)
Ag3_2 Ag 0.19793(2) 0.93420(4) 0.60705(3)
Ag1_2 Ag 0.93420(2) 0.73627(3) 0.39295(3)
H7_2 H 0.9936 0.7920 0.6006
C9_2 C 0.9977(2) 0.6912(3) 0.2616(4)
H8_2 H 0.9686 0.6577 0.2800
S1_2 S 0.91758(9) 0.74872(13) 0.14664(13)
O1_2 O 0.8918(2) 0.7295(3) 0.2408(3)
C10_2 C 0.9064(4) 0.6920(6) 0.0840(5)
H9_2 H 0.9230 0.6742 0.1167
H10_2 H 0.9221 0.7027 0.0219
H11_2 H 0.8679 0.6673 0.0785
C11_2 C 0.8750(5) 0.7632(6) 0.0837(6)
H12_2 H 0.8427 0.7298 0.0667
H13_2 H 0.8931 0.7829 0.0272
H14_2 H 0.8651 0.7850 0.1218
N5_2 N 0.87046(24) 0.75429(29) 0.4528(3)
N6_2 N 0.92795(27) 0.67063(32) 0.5021(3)
Ag1_3 Ag 0.26373(3) 0.19793(2) 0.39295(3)
N1_3 N 0.26410(25) 0.26707(18) 0.2981(3)
C1_3 C 0.1582(3) 0.2316(2) 0.6006(3)
H1_3 H 0.1577 0.2350 0.6662
C2_3 C 0.21722(28) 0.2620(2) 0.2714(3)
C3_3 C 0.16364(26) 0.22225(19) 0.4157(3)
C4_3 C 0.16633(28) 0.21733(19) 0.3121(3)
H2_3 H 0.1354 0.2176 0.2831
H3_3 H 0.1638 0.1827 0.2973
C5_3 C 0.13308(27) 0.2418(2) 0.4555(3)
H4_3 H 0.1140 0.2528 0.4160
N2_3 N 0.19183(26) 0.2075(2) 0.4685(3)
C6_3 C 0.3072(3) 0.3413(2) 0.1972(4)
H5_3 H 0.3397 0.3689 0.1723
N3_3 N 0.12954(24) 0.24571(18) 0.5472(3)
C7_3 C 0.2163(3) 0.2977(2) 0.2071(3)
H6_3 H 0.1828 0.2939 0.1899
C8_3 C 0.1886(4) 0.2121(3) 0.5610(4)
H7_3 H 0.2080 0.2016 0.6006
N4_3 N 0.26128(27) 0.3373(2) 0.1688(3)
C9_3 C 0.3088(3) 0.3065(2) 0.2616(4)
H8_3 H 0.3423 0.3109 0.2800
S1_3 S 0.25128(13) 0.16886(9) 0.14664(13)
O1_3 O 0.2705(3) 0.1623(2) 0.2408(3)
C10_3 C 0.3080(6) 0.2144(4) 0.0840(5)
H9_3 H 0.3258 0.2488 0.1167
H10_3 H 0.2973 0.2194 0.0219
H11_3 H 0.3327 0.2006 0.0785
C11_3 C 0.2368(6) 0.1118(4) 0.0837(6)
H12_3 H 0.2702 0.1129 0.0667
H13_3 H 0.2171 0.1102 0.0272
H14_3 H 0.2150 0.0801 0.1218
Ag2_3 Ag 0.26753(4) 0.40294(3) 0.05962(3)
Ag3_3 Ag 0.06580(4) 0.26373(3) 0.60705(3)
N5_3 N 0.24571(29) 0.11617(16) 0.4528(3)
N6_3 N 0.32937(32) 0.25731(18) 0.5021(3)
Ag1_4 Ag 0.46874(2) 0.39913(2) 0.72628(3)
N1_4 N 0.39960(18) 0.33036(17) 0.6314(3)
C1_4 C 0.4351(2) 0.2599(2) 0.9339(3)
H1_4 H 0.4317 0.2560 0.9995
C2_4 C 0.4047(2) 0.28855(19) 0.6047(3)
C3_4 C 0.44442(19) 0.27472(18) 0.7490(3)
C4_4 C 0.44934(19) 0.2823(2) 0.6454(3)
H2_4 H 0.4491 0.2511 0.6164
H3_4 H 0.4840 0.3144 0.6306
C5_4 C 0.4249(2) 0.22461(18) 0.7888(3)
H4_4 H 0.4139 0.1945 0.7493
N2_4 N 0.4592(2) 0.31766(17) 0.8018(3)
C6_4 C 0.3254(2) 0.2992(2) 0.5305(4)
H5_4 H 0.2978 0.3041 0.5056
N3_4 N 0.42096(18) 0.21716(16) 0.8805(3)
C7_4 C 0.3690(2) 0.2519(2) 0.5404(3)
H6_4 H 0.3728 0.2222 0.5232
C8_4 C 0.4546(3) 0.3098(2) 0.8943(4)
H7_4 H 0.4651 0.3397 0.9339
C9_4 C 0.3602(2) 0.3356(2) 0.5949(4)
H8_4 H 0.3558 0.3647 0.6133
S1_4 S 0.49781(9) 0.41575(9) 0.47997(13)
O1_4 O 0.5044(2) 0.4415(2) 0.5741(3)
C10_4 C 0.4523(4) 0.4269(4) 0.4173(5)
H9_4 H 0.4179 0.4103 0.4500
H10_4 H 0.4473 0.4112 0.3552
H11_4 H 0.4661 0.4654 0.4118
C11_4 C 0.5549(4) 0.4583(5) 0.4170(6)
H12_4 H 0.5538 0.4906 0.4000
H13_4 H 0.5565 0.4402 0.3605
H14_4 H 0.5866 0.4682 0.4551
Ag3_4 Ag 0.40294(3) 0.13540(2) 0.94038(3)
N5_4 N 0.55050(16) 0.46287(24) 0.7861(3)
N6_4 N 0.40935(18) 0.40539(27) 0.8355(3)
Ag1_5 Ag 0.60087(2) 0.06960(3) 0.72628(3)
N1_5 N 0.66964(17) 0.06923(25) 0.6314(3)
C1_5 C 0.7401(2) 0.1751(3) 0.9339(3)
H1_5 H 0.7440 0.1756 0.9995
C2_5 C 0.71145(19) 0.11611(28) 0.6047(3)
C3_5 C 0.72528(18) 0.16969(26) 0.7490(3)
C4_5 C 0.7177(2) 0.16700(28) 0.6454(3)
H2_5 H 0.7489 0.1979 0.6164
H3_5 H 0.6856 0.1695 0.6306
C5_5 C 0.77539(18) 0.20025(27) 0.7888(3)
H4_5 H 0.8055 0.2193 0.7493
N2_5 N 0.68234(17) 0.14150(26) 0.8018(3)
C6_5 C 0.7008(2) 0.0261(3) 0.5305(4)
N3_5 N 0.78284(16) 0.20379(24) 0.8805(3)
C7_5 C 0.7481(2) 0.1170(3) 0.5404(3)
H6_5 H 0.7778 0.1505 0.5232
C8_5 C 0.6902(2) 0.1447(4) 0.8943(4)
H7_5 H 0.6603 0.1253 0.9339
C9_5 C 0.6644(2) 0.0245(3) 0.5949(4)
S1_5 S 0.58425(9) 0.08205(13) 0.47997(13)
O1_5 O 0.5585(2) 0.0628(3) 0.5741(3)
C10_5 C 0.5731(4) 0.0253(6) 0.4173(5)
H9_5 H 0.5897 0.0075 0.4500
H10_5 H 0.5888 0.0360 0.3552
H11_5 H 0.5346 0.0006 0.4118
C11_5 C 0.5417(5) 0.0965(6) 0.4170(6)
H12_5 H 0.5094 0.0631 0.4000
H13_5 H 0.5598 0.1162 0.3605
H14_5 H 0.5318 0.1183 0.4551
Ag3_5 Ag 0.86460(2) 0.26753(4) 0.94038(3)
N5_5 N 0.53713(24) 0.08762(29) 0.7861(3)
N6_5 N 0.59461(27) 0.00397(32) 0.8355(3)
Ag1_6 Ag 0.93040(3) 0.53126(2) 0.72628(3)
N1_6 N 0.93077(25) 0.60040(18) 0.6314(3)
C1_6 C 0.8249(3) 0.5649(2) 0.9339(3)
H1_6 H 0.8244 0.5683 0.9995
C2_6 C 0.88389(28) 0.5953(2) 0.6047(3)
C3_6 C 0.83031(26) 0.55558(19) 0.7490(3)
C4_6 C 0.83300(28) 0.55066(19) 0.6454(3)
H2_6 H 0.8021 0.5509 0.6164
H3_6 H 0.8305 0.5160 0.6306
C5_6 C 0.79975(27) 0.5751(2) 0.7888(3)
H4_6 H 0.7807 0.5861 0.7493
N2_6 N 0.85850(26) 0.5408(2) 0.8018(3)
C6_6 C 0.9739(3) 0.6746(2) 0.5305(4)
N3_6 N 0.79621(24) 0.57904(18) 0.8805(3)
C7_6 C 0.8830(3) 0.6310(2) 0.5404(3)
H6_6 H 0.8495 0.6272 0.5232
C8_6 C 0.8553(4) 0.5454(3) 0.8943(4)
H7_6 H 0.8747 0.5349 0.9339
C9_6 C 0.9755(3) 0.6398(2) 0.5949(4)
S1_6 S 0.91795(13) 0.50219(9) 0.47997(13)
O1_6 O 0.9372(3) 0.4956(2) 0.5741(3)
C10_6 C 0.9747(6) 0.5477(4) 0.4173(5)
H9_6 H 0.9925 0.5821 0.4500
H10_6 H 0.9640 0.5527 0.3552
H11_6 H 0.9994 0.5339 0.4118
C11_6 C 0.9035(6) 0.4451(4) 0.4170(6)
H12_6 H 0.9369 0.4462 0.4000
H13_6 H 0.8838 0.4435 0.3605
H14_6 H 0.8817 0.4134 0.4551
Ag3_6 Ag 0.73247(4) 0.59706(3) 0.94038(3)
N5_6 N 0.91238(29) 0.44950(16) 0.7861(3)
N6_6 N 0.99603(32) 0.59065(18) 0.8355(3)
C1_7 C 0.1017(2) 0.5933(2) 0.2673(3)
H1_7 H 0.0983 0.5894 0.3329
C3_7 C 0.11108(19) 0.60806(18) 0.0824(3)
C5_7 C 0.0915(2) 0.55795(18) 0.1222(3)
H4_7 H 0.0805 0.5279 0.0827
N2_7 N 0.1258(2) 0.65100(17) 0.1352(3)
N3_7 N 0.08762(18) 0.55050(16) 0.2139(3)
C8_7 C 0.1212(3) 0.6432(2) 0.2277(4)
H7_7 H 0.1317 0.6731 0.2673
Ag3_7 Ag 0.06960(3) 0.46874(2) 0.27372(3)
N5_7 N 0.21716(16) 0.79621(24) 0.1195(3)
C6_7 C 0.9920(2) 0.6326(2) 0.8639(4)
H5_5 H 0.9644 0.6375 0.8390
C1_8 C 0.4067(2) 0.5085(3) 0.2673(3)
H1_8 H 0.4106 0.5090 0.3329
C3_8 C 0.39194(18) 0.50303(26) 0.0824(3)
C5_8 C 0.44205(18) 0.53359(27) 0.1222(3)
H4_8 H 0.4721 0.5527 0.0827
N2_8 N 0.34900(17) 0.47484(26) 0.1352(3)
N3_8 N 0.44950(16) 0.53713(24) 0.2139(3)
C8_8 C 0.3568(2) 0.4781(4) 0.2277(4)
H7_8 H 0.3269 0.4587 0.2673
Ag3_8 Ag 0.53126(2) 0.60087(4) 0.27372(3)
N5_8 N 0.20379(24) 0.42096(29) 0.1195(3)
N1_7 N 0.33630(17) 0.40257(25) 0.9648(3)
C2_7 C 0.37811(19) 0.44945(28) 0.9381(3)
C4_7 C 0.3843(2) 0.50034(28) 0.9788(3)
H2_7 H 0.4155 0.5313 0.9498
H3_7 H 0.3522 0.5029 0.9640
C6_8 C 0.3674(2) 0.3595(3) 0.8639(4)
H5_6 H 0.3625 0.3270 0.8390
C7_7 C 0.4147(2) 0.4504(3) 0.8738(3)
H6_7 H 0.4444 0.4839 0.8566
C9_7 C 0.3310(2) 0.3579(3) 0.9283(4)
H8_5 H 0.3019 0.3244 0.9467
S1_7 S 0.25091(9) 0.41539(13) 0.81331(13)
O1_7 O 0.2251(2) 0.3962(3) 0.9075(3)
C10_7 C 0.2397(4) 0.3587(6) 0.7507(5)
H9_7 H 0.2563 0.3409 0.7834
H10_7 H 0.2554 0.3694 0.6886
H11_7 H 0.2012 0.3340 0.7452
C11_7 C 0.2083(5) 0.4299(6) 0.7504(6)
H12_7 H 0.1760 0.3965 0.7334
H13_7 H 0.2264 0.4496 0.6939
H14_7 H 0.1984 0.4517 0.7885
C6_9 C 0.6405(3) 0.0080(2) 0.8639(4)
H5_7 H 0.6730 0.0356 0.8390
C1_9 C 0.4915(3) 0.8983(2) 0.2673(3)
H1_9 H 0.4910 0.9017 0.3329
C3_9 C 0.49697(26) 0.88892(19) 0.0824(3)
C5_9 C 0.46641(27) 0.9085(2) 0.1222(3)
H4_9 H 0.4473 0.9195 0.0827
N2_9 N 0.52516(26) 0.8742(2) 0.1352(3)
N3_9 N 0.46287(24) 0.91238(18) 0.2139(3)
C8_9 C 0.5219(4) 0.8788(3) 0.2277(4)
H7_9 H 0.5413 0.8683 0.2673
Ag3_9 Ag 0.39913(4) 0.93040(3) 0.27372(3)
N5_9 N 0.57904(29) 0.78284(16) 0.1195(3)
N1_8 N 0.26707(18) 0.00297(17) 0.7019(3)
C1_10 C 0.2316(2) 0.0734(2) 0.3994(3)
H1_10 H 0.2350 0.0773 0.3338
C2_8 C 0.2620(2) 0.04478(19) 0.7286(3)
C3_10 C 0.22225(19) 0.05861(18) 0.5843(3)
C4_8 C 0.21733(19) 0.0510(2) 0.6879(3)
H2_8 H 0.2176 0.0822 0.7169
H3_8 H 0.1827 0.0189 0.7027
C5_10 C 0.2418(2) 0.10872(18) 0.5445(3)
H4_10 H 0.2528 0.1388 0.5840
N2_10 N 0.2075(2) 0.01567(17) 0.5315(3)
C6_10 C 0.3413(2) 0.0341(2) 0.8028(4)
H5_8 H 0.3689 0.0292 0.8277
C7_8 C 0.2977(2) 0.0814(2) 0.7929(3)
H6_8 H 0.2939 0.1111 0.8101
C8_10 C 0.2121(3) 0.0235(2) 0.4390(4)
N4_4 N 0.3373(2) 0.07602(18) 0.8312(3)
H7_10 H 0.2016 0.9936 0.3994
C9_8 C 0.3065(2) 0.9977(2) 0.7384(4)
H8_6 H 0.3109 0.9686 0.7200
S1_8 S 0.16886(9) 0.91758(9) 0.85336(13)
O1_8 O 0.1623(2) 0.8918(2) 0.7592(3)
C10_8 C 0.2144(4) 0.9064(4) 0.9160(5)
H9_8 H 0.2488 0.9230 0.8833
H10_8 H 0.2194 0.9221 0.9781
H11_8 H 0.2006 0.8679 0.9215
C11_8 C 0.1118(4) 0.8750(5) 0.9163(6)
H12_8 H 0.1129 0.8427 0.9333
H13_8 H 0.1102 0.8931 0.9728
H14_8 H 0.0801 0.8651 0.8782
N6_7 N 0.25731(18) 0.92795(27) 0.4979(3)
H7_11 H 0.0064 0.2080 0.3994
C9_9 C 0.0023(2) 0.3088(3) 0.7384(4)
H8_7 H 0.0314 0.3423 0.7200
S1_9 S 0.08242(9) 0.25128(13) 0.85336(13)
O1_9 O 0.1082(2) 0.2705(3) 0.7592(3)
C10_9 C 0.0936(4) 0.3080(6) 0.9160(5)
H9_9 H 0.0770 0.3258 0.8833
H10_9 H 0.0779 0.2973 0.9781
H11_9 H 0.1321 0.3327 0.9215
C11_9 C 0.1250(5) 0.2368(6) 0.9163(6)
H12_9 H 0.1573 0.2702 0.9333
H13_9 H 0.1069 0.2171 0.9728
H14_9 H 0.1349 0.2150 0.8782
N6_8 N 0.07205(27) 0.32937(32) 0.4979(3)
N1_9 N 0.99703(17) 0.26410(25) 0.7019(3)
C1_11 C 0.9266(2) 0.1582(3) 0.3994(3)
H1_11 H 0.9227 0.1577 0.3338
C2_9 C 0.95522(19) 0.21722(28) 0.7286(3)
C3_11 C 0.94139(18) 0.16364(26) 0.5843(3)
C4_9 C 0.9490(2) 0.16633(28) 0.6879(3)
H2_9 H 0.9178 0.1354 0.7169
H3_9 H 0.9811 0.1638 0.7027
C5_11 C 0.89128(18) 0.13308(27) 0.5445(3)
H4_11 H 0.8612 0.1140 0.5840
N2_11 N 0.98433(17) 0.19183(26) 0.5315(3)
C6_11 C 0.9659(2) 0.3072(3) 0.8028(4)
H5_9 H 0.9708 0.3397 0.8277
C7_9 C 0.9186(2) 0.2163(3) 0.7929(3)
H6_9 H 0.8889 0.1828 0.8101
C8_11 C 0.9765(2) 0.1886(4) 0.4390(4)
N4_5 N 0.92398(18) 0.26128(27) 0.8312(3)
N1_10 N 0.73590(25) 0.73293(18) 0.7019(3)
C1_12 C 0.8418(3) 0.7684(2) 0.3994(3)
H1_12 H 0.8423 0.7650 0.3338
C2_10 C 0.78278(28) 0.7380(2) 0.7286(3)
C3_12 C 0.83636(26) 0.77775(19) 0.5843(3)
C4_10 C 0.83367(28) 0.78267(19) 0.6879(3)
H2_10 H 0.8646 0.7824 0.7169
H3_10 H 0.8362 0.8173 0.7027
C5_12 C 0.86692(27) 0.7582(2) 0.5445(3)
H4_12 H 0.8860 0.7472 0.5840
N2_12 N 0.80817(26) 0.7925(2) 0.5315(3)
C6_12 C 0.6928(3) 0.6587(2) 0.8028(4)
H5_10 H 0.6603 0.6311 0.8277
C7_10 C 0.7837(3) 0.7023(2) 0.7929(3)
H6_10 H 0.8172 0.7061 0.8101
C8_12 C 0.8114(4) 0.7879(3) 0.4390(4)
H7_12 H 0.7920 0.7984 0.3994
N4_6 N 0.73872(27) 0.6627(2) 0.8312(3)
C9_10 C 0.6912(3) 0.6935(2) 0.7384(4)
H8_8 H 0.6577 0.6891 0.7200
S1_10 S 0.74872(13) 0.83114(9) 0.85336(13)
O1_10 O 0.7295(3) 0.8377(2) 0.7592(3)
C10_10 C 0.6920(6) 0.7856(4) 0.9160(5)
H9_10 H 0.6742 0.7512 0.8833
H10_10 H 0.7027 0.7806 0.9781
H11_10 H 0.6673 0.7994 0.9215
C11_10 C 0.7632(6) 0.8882(4) 0.9163(6)
H12_10 H 0.7298 0.8871 0.9333
H13_10 H 0.7829 0.8898 0.9728
H14_10 H 0.7850 0.9199 0.8782
N6_9 N 0.67063(32) 0.74269(18) 0.4979(3)
N1_11 N 0.60040(18) 0.66964(17) 0.3686(3)
C1_13 C 0.5649(2) 0.7401(2) 0.0661(3)
H1_13 H 0.5683 0.7440 0.0005
C2_11 C 0.5953(2) 0.71145(19) 0.3953(3)
C3_13 C 0.55558(19) 0.72528(18) 0.2510(3)
C4_11 C 0.55066(19) 0.7177(2) 0.3546(3)
H2_11 H 0.5509 0.7489 0.3836
H3_11 H 0.5160 0.6856 0.3694
C5_13 C 0.5751(2) 0.77539(18) 0.2112(3)
H4_13 H 0.5861 0.8055 0.2507
N2_13 N 0.5408(2) 0.68234(17) 0.1982(3)
C6_13 C 0.6746(2) 0.7008(2) 0.4695(4)
H5_11 H 0.7022 0.6959 0.4944
C7_11 C 0.6310(2) 0.7481(2) 0.4596(3)
H6_11 H 0.6272 0.7778 0.4768
C8_13 C 0.5454(3) 0.6902(2) 0.1057(4)
H7_13 H 0.5349 0.6603 0.0661
C9_11 C 0.6398(2) 0.6644(2) 0.4051(4)
H8_9 H 0.6442 0.6353 0.3867
S1_11 S 0.50219(9) 0.58425(9) 0.52003(13)
O1_11 O 0.4956(2) 0.5585(2) 0.4259(3)
C10_11 C 0.5477(4) 0.5731(4) 0.5827(5)
H9_11 H 0.5821 0.5897 0.5500
H10_11 H 0.5527 0.5888 0.6448
H11_11 H 0.5339 0.5346 0.5882
C11_11 C 0.4451(4) 0.5417(5) 0.5830(6)
H12_11 H 0.4462 0.5094 0.6000
H13_11 H 0.4435 0.5598 0.6395
H14_11 H 0.4134 0.5318 0.5449
N6_10 N 0.59065(18) 0.59461(27) 0.1645(3)
N1_12 N 0.33036(17) 0.93077(25) 0.3686(3)
C1_14 C 0.2599(2) 0.8249(3) 0.0661(3)
H1_14 H 0.2560 0.8244 0.0005
C2_12 C 0.28855(19) 0.88389(28) 0.3953(3)
C3_14 C 0.27472(18) 0.83031(26) 0.2510(3)
C4_12 C 0.2823(2) 0.83300(28) 0.3546(3)
H2_12 H 0.2511 0.8021 0.3836
H3_12 H 0.3144 0.8305 0.3694
C5_14 C 0.22461(18) 0.79975(27) 0.2112(3)
H4_14 H 0.1945 0.7807 0.2507
N2_14 N 0.31766(17) 0.85850(26) 0.1982(3)
C6_14 C 0.2992(2) 0.9739(3) 0.4695(4)
C7_12 C 0.2519(2) 0.8830(3) 0.4596(3)
H6_12 H 0.2222 0.8495 0.4768
C8_14 C 0.3098(2) 0.8553(4) 0.1057(4)
H7_14 H 0.3397 0.8747 0.0661
C9_12 C 0.3356(2) 0.9755(3) 0.4051(4)
S1_12 S 0.41575(9) 0.91795(13) 0.52003(13)
O1_12 O 0.4415(2) 0.9372(3) 0.4259(3)
C10_12 C 0.4269(4) 0.9747(6) 0.5827(5)
H9_12 H 0.4103 0.9925 0.5500
H10_12 H 0.4112 0.9640 0.6448
H11_12 H 0.4654 0.9994 0.5882
C11_12 C 0.4583(5) 0.9035(6) 0.5830(6)
H12_12 H 0.4906 0.9369 0.6000
H13_12 H 0.4402 0.8838 0.6395
H14_12 H 0.4682 0.8817 0.5449
N6_11 N 0.40539(27) 0.99603(32) 0.1645(3)
N1_13 N 0.06923(25) 0.39960(18) 0.3686(3)
C1_15 C 0.1751(3) 0.4351(2) 0.0661(3)
H1_15 H 0.1756 0.4317 0.0005
C2_13 C 0.11611(28) 0.4047(2) 0.3953(3)
C3_15 C 0.16969(26) 0.44442(19) 0.2510(3)
C4_13 C 0.16700(28) 0.44934(19) 0.3546(3)
H2_13 H 0.1979 0.4491 0.3836
H3_13 H 0.1695 0.4840 0.3694
C5_15 C 0.20025(27) 0.4249(2) 0.2112(3)
H4_15 H 0.2193 0.4139 0.2507
N2_15 N 0.14150(26) 0.4592(2) 0.1982(3)
C6_15 C 0.0261(3) 0.3254(2) 0.4695(4)
C7_13 C 0.1170(3) 0.3690(2) 0.4596(3)
H6_13 H 0.1505 0.3728 0.4768
C8_15 C 0.1447(4) 0.4546(3) 0.1057(4)
H7_15 H 0.1253 0.4651 0.0661
C9_13 C 0.0245(3) 0.3602(2) 0.4051(4)
S1_13 S 0.08205(13) 0.49781(9) 0.52003(13)
O1_13 O 0.0628(3) 0.5044(2) 0.4259(3)
C10_13 C 0.0253(6) 0.4523(4) 0.5827(5)
H9_13 H 0.0075 0.4179 0.5500
H10_13 H 0.0360 0.4473 0.6448
H11_13 H 0.0006 0.4661 0.5882
C11_13 C 0.0965(6) 0.5549(4) 0.5830(6)
H12_13 H 0.0631 0.5538 0.6000
H13_13 H 0.1162 0.5565 0.6395
H14_13 H 0.1183 0.5866 0.5449
N6_12 N 0.00397(32) 0.40935(18) 0.1645(3)
C6_16 C 0.0080(2) 0.3674(2) 0.1361(4)
H5_12 H 0.0356 0.3625 0.1610
C1_16 C 0.8983(2) 0.4067(2) 0.7327(3)
H1_16 H 0.9017 0.4106 0.6671
C3_16 C 0.88892(19) 0.39194(18) 0.9176(3)
C5_16 C 0.9085(2) 0.44205(18) 0.8778(3)
H4_16 H 0.9195 0.4721 0.9173
N2_16 N 0.8742(2) 0.34900(17) 0.8648(3)
C8_16 C 0.8788(3) 0.3568(2) 0.7723(4)
H7_16 H 0.8683 0.3269 0.7327
N1_14 N 0.66370(17) 0.59743(25) 0.0352(3)
C2_14 C 0.62189(19) 0.55055(28) 0.0619(3)
C4_14 C 0.6157(2) 0.49966(28) 0.0212(3)
H2_14 H 0.5845 0.4687 0.0502
H3_14 H 0.6478 0.4971 0.0360
C6_17 C 0.6326(2) 0.6405(3) 0.1361(4)
H5_13 H 0.6375 0.6730 0.1610
C7_14 C 0.5853(2) 0.5496(3) 0.1262(3)
H6_14 H 0.5556 0.5161 0.1434
C9_14 C 0.6690(2) 0.6421(3) 0.0717(4)
H8_10 H 0.6981 0.6756 0.0533
S1_14 S 0.74909(9) 0.58461(13) 0.18669(13)
O1_14 O 0.7749(2) 0.6038(3) 0.0925(3)
C10_14 C 0.7603(4) 0.6413(6) 0.2493(5)
H9_14 H 0.7437 0.6591 0.2166
H10_14 H 0.7446 0.6306 0.3114
H11_14 H 0.7988 0.6660 0.2548
C11_14 C 0.7917(5) 0.5701(6) 0.2496(6)
H12_14 H 0.8240 0.6035 0.2666
H13_14 H 0.7736 0.5504 0.3061
H14_14 H 0.8016 0.5483 0.2115
C1_17 C 0.5933(2) 0.4915(3) 0.7327(3)
H1_17 H 0.5894 0.4910 0.6671
C3_17 C 0.60806(18) 0.49697(26) 0.9176(3)
C5_17 C 0.55795(18) 0.46641(27) 0.8778(3)
H4_17 H 0.5279 0.4473 0.9173
N2_17 N 0.65100(17) 0.52516(26) 0.8648(3)
C8_17 C 0.6432(2) 0.5219(4) 0.7723(4)
H7_17 H 0.6731 0.5413 0.7327
C1_18 C 0.5085(3) 0.1017(2) 0.7327(3)
H1_18 H 0.5090 0.0983 0.6671
C3_18 C 0.50303(26) 0.11108(19) 0.9176(3)
C5_18 C 0.53359(27) 0.0915(2) 0.8778(3)
H4_18 H 0.5527 0.0805 0.9173
N2_18 N 0.47484(26) 0.1258(2) 0.8648(3)
C8_18 C 0.4781(4) 0.1212(3) 0.7723(4)
H7_18 H 0.4587 0.1317 0.7327
C6_18 C 0.3595(3) 0.9920(2) 0.1361(4)
H5_14 H 0.3270 0.9644 0.1610
H5_15 H 0.6959 0.9936 0.5056
H8_11 H 0.6353 0.9910 0.6133
H5_16 H 0.0064 0.7022 0.5056
H8_12 H 0.0090 0.6442 0.6133
N1_15 N 0.06626(18) 0.66370(17) 0.9648(3)
C2_15 C 0.0713(2) 0.62189(19) 0.9381(3)
C4_15 C 0.11600(19) 0.6157(2) 0.9788(3)
H2_15 H 0.1157 0.5845 0.9498
H3_15 H 0.1506 0.6478 0.9640
C7_15 C 0.0356(2) 0.5853(2) 0.8738(3)
H6_15 H 0.0394 0.5556 0.8566
C9_15 C 0.0268(2) 0.6690(2) 0.9283(4)
H8_13 H 0.0224 0.6981 0.9467
S1_15 S 0.16447(9) 0.74909(9) 0.81331(13)
O1_15 O 0.1710(2) 0.7749(2) 0.9075(3)
C10_15 C 0.1189(4) 0.7603(4) 0.7507(5)
H9_15 H 0.0845 0.7437 0.7834
H10_15 H 0.1139 0.7446 0.6886
H11_15 H 0.1327 0.7988 0.7452
C11_15 C 0.2215(4) 0.7917(5) 0.7504(6)
H12_15 H 0.2204 0.8240 0.7334
H13_15 H 0.2231 0.7736 0.6939
H14_15 H 0.2532 0.8016 0.7885
N1_16 N 0.59743(25) 0.93374(18) 0.9648(3)
C2_16 C 0.55055(28) 0.9287(2) 0.9381(3)
C4_16 C 0.49966(28) 0.88400(19) 0.9788(3)
H2_16 H 0.4687 0.8843 0.9498
H3_16 H 0.4971 0.8494 0.9640
C7_16 C 0.5496(3) 0.9644(2) 0.8738(3)
H6_16 H 0.5161 0.9606 0.8566
C9_16 C 0.6421(3) 0.9732(2) 0.9283(4)
H8_14 H 0.6756 0.9776 0.9467
S1_16 S 0.58461(13) 0.83553(9) 0.81331(13)
O1_16 O 0.6038(3) 0.8290(2) 0.9075(3)
C10_16 C 0.6413(6) 0.8811(4) 0.7507(5)
H9_16 H 0.6591 0.9155 0.7834
H10_16 H 0.6306 0.8861 0.6886
H11_16 H 0.6660 0.8673 0.7452
C11_16 C 0.5701(6) 0.7785(4) 0.7504(6)
H12_16 H 0.6035 0.7796 0.7334
H13_16 H 0.5504 0.7769 0.6939
H14_16 H 0.5483 0.7468 0.7885
H5_17 H 0.3041 0.0064 0.4944
H8_15 H 0.3647 0.0090 0.3867
H5_18 H 0.9936 0.2978 0.4944
H8_16 H 0.9910 0.3558 0.3867
N1_17 N 0.93374(18) 0.33630(17) 0.0352(3)
C2_17 C 0.9287(2) 0.37811(19) 0.0619(3)
C4_17 C 0.88400(19) 0.3843(2) 0.0212(3)
H2_17 H 0.8843 0.4155 0.0502
H3_17 H 0.8494 0.3522 0.0360
C7_17 C 0.9644(2) 0.4147(2) 0.1262(3)
H6_17 H 0.9606 0.4444 0.1434
C9_17 C 0.9732(2) 0.3310(2) 0.0717(4)
H8_17 H 0.9776 0.3019 0.0533
S1_17 S 0.83553(9) 0.25091(9) 0.18669(13)
O1_17 O 0.8290(2) 0.2251(2) 0.0925(3)
C10_17 C 0.8811(4) 0.2397(4) 0.2493(5)
H9_17 H 0.9155 0.2563 0.2166
H10_17 H 0.8861 0.2554 0.3114
H11_17 H 0.8673 0.2012 0.2548
C11_17 C 0.7785(4) 0.2083(5) 0.2496(6)
H12_17 H 0.7796 0.1760 0.2666
H13_17 H 0.7769 0.2264 0.3061
H14_17 H 0.7468 0.1984 0.2115
N1_18 N 0.40257(25) 0.06626(18) 0.0352(3)
C2_18 C 0.44945(28) 0.0713(2) 0.0619(3)
C4_18 C 0.50034(28) 0.11600(19) 0.0212(3)
H2_18 H 0.5313 0.1157 0.0502
H3_18 H 0.5029 0.1506 0.0360
C7_18 C 0.4504(3) 0.0356(2) 0.1262(3)
H6_18 H 0.4839 0.0394 0.1434
C9_18 C 0.3579(3) 0.0268(2) 0.0717(4)
H8_18 H 0.3244 0.0224 0.0533
S1_18 S 0.41539(13) 0.16447(9) 0.18669(13)
O1_18 O 0.3962(3) 0.1710(2) 0.0925(3)
C10_18 C 0.3587(6) 0.1189(4) 0.2493(5)
H9_18 H 0.3409 0.0845 0.2166
H10_18 H 0.3694 0.1139 0.3114
H11_18 H 0.3340 0.1327 0.2548
C11_18 C 0.4299(6) 0.2215(4) 0.2496(6)
H12_18 H 0.3965 0.2204 0.2666
H13_18 H 0.4496 0.2231 0.3061
H14_18 H 0.4517 0.2532 0.2115
P1 P 0.79429(6) 0.04752(6) 0.81089(10)
F1 F 0.84874(15) 0.08823(16) 0.8613(3)
F2 F 0.76833(17) 0.08102(17) 0.8482(3)
F3 F 0.74001(16) 0.00781(19) 0.7601(3)
F4 F 0.81333(18) 0.0824(2) 0.7196(3)
F5 F 0.7746(2) 0.01212(17) 0.9018(3)
F6 F 0.8197(2) 0.0139(2) 0.7729(4)
P1_2 P 0.95248(6) 0.74677(8) 0.81089(10)
F1_2 F 0.91177(16) 0.76051(22) 0.8613(3)
F2_2 F 0.91898(17) 0.68731(24) 0.8482(3)
F3_2 F 0.99219(19) 0.73220(25) 0.7601(3)
F4_2 F 0.9176(2) 0.73093(27) 0.7196(3)
F5_2 F 0.98788(17) 0.76248(26) 0.9018(3)
F6_2 F 0.9861(2) 0.8058(3) 0.7729(4)
P1_3 P 0.25323(8) 0.20571(6) 0.81089(10)
F1_3 F 0.23949(22) 0.15126(15) 0.8613(3)
F2_3 F 0.31269(24) 0.23167(17) 0.8482(3)
F3_3 F 0.26780(25) 0.25999(16) 0.7601(3)
F4_3 F 0.26907(27) 0.18667(18) 0.7196(3)
F5_3 F 0.23752(26) 0.2254(2) 0.9018(3)
F6_3 F 0.1942(3) 0.1803(2) 0.7729(4)
P1_4 P 0.46096(6) 0.38085(6) 0.14422(10)
F1_4 F 0.51541(15) 0.42156(16) 0.1946(3)
F2_4 F 0.43500(17) 0.41435(17) 0.1815(3)
F3_4 F 0.40668(16) 0.34114(19) 0.0934(3)
F4_4 F 0.48000(18) 0.4157(2) 0.0529(3)
F5_4 F 0.4413(2) 0.34545(17) 0.2351(3)
F6_4 F 0.4864(2) 0.3472(2) 0.1062(4)
P1_5 P 0.61915(6) 0.08010(8) 0.14422(10)
F1_5 F 0.57844(16) 0.09384(22) 0.1946(3)
F2_5 F 0.58565(17) 0.02064(24) 0.1815(3)
F3_5 F 0.65886(19) 0.06553(25) 0.0934(3)
F4_5 F 0.5843(2) 0.06426(27) 0.0529(3)
F5_5 F 0.65455(17) 0.09581(26) 0.2351(3)
F6_5 F 0.6528(2) 0.1391(3) 0.1062(4)
P1_6 P 0.91990(8) 0.53904(6) 0.14422(10)
F1_6 F 0.90616(22) 0.48459(15) 0.1946(3)
F2_6 F 0.97936(24) 0.56500(17) 0.1815(3)
F3_6 F 0.93447(25) 0.59332(16) 0.0934(3)
F4_6 F 0.93574(27) 0.52000(18) 0.0529(3)
F5_6 F 0.90419(26) 0.5587(2) 0.2351(3)
F6_6 F 0.8609(3) 0.5136(2) 0.1062(4)
P1_7 P 0.12762(6) 0.71419(6) 0.47756(10)
F1_7 F 0.18207(15) 0.75490(16) 0.5280(3)
F2_7 F 0.10166(17) 0.74769(17) 0.5149(3)
F3_7 F 0.07334(16) 0.67448(19) 0.4268(3)
F4_7 F 0.14666(18) 0.7491(2) 0.3863(3)
F5_7 F 0.1079(2) 0.67879(17) 0.5685(3)
F6_7 F 0.1530(2) 0.6806(2) 0.4396(4)
P1_8 P 0.28581(6) 0.41344(8) 0.47756(10)
F1_8 F 0.24510(16) 0.42718(22) 0.5280(3)
F2_8 F 0.25231(17) 0.35398(24) 0.5149(3)
F3_8 F 0.32552(19) 0.39887(25) 0.4268(3)
F4_8 F 0.2509(2) 0.39760(27) 0.3863(3)
F5_8 F 0.32121(17) 0.42915(26) 0.5685(3)
F6_8 F 0.3194(2) 0.4725(3) 0.4396(4)
P1_9 P 0.58656(8) 0.87238(6) 0.47756(10)
F1_9 F 0.57282(22) 0.81793(15) 0.5280(3)
F2_9 F 0.64602(24) 0.89834(17) 0.5149(3)
F3_9 F 0.60113(25) 0.92666(16) 0.4268(3)
F4_9 F 0.60240(27) 0.85334(18) 0.3863(3)
F5_9 F 0.57085(26) 0.8921(2) 0.5685(3)
F6_9 F 0.5275(3) 0.8470(2) 0.4396(4)
P1_10 P 0.20571(6) 0.95248(6) 0.18911(10)
F1_10 F 0.15126(15) 0.91177(16) 0.1387(3)
F2_10 F 0.23167(17) 0.91898(17) 0.1518(3)
F3_10 F 0.25999(16) 0.99219(19) 0.2399(3)
F4_10 F 0.18667(18) 0.9176(2) 0.2804(3)
F5_10 F 0.2254(2) 0.98788(17) 0.0982(3)
F6_10 F 0.1803(2) 0.9861(2) 0.2271(4)
P1_11 P 0.04752(6) 0.25323(8) 0.18911(10)
F1_11 F 0.08823(16) 0.23949(22) 0.1387(3)
F2_11 F 0.08102(17) 0.31269(24) 0.1518(3)
F3_11 F 0.00781(19) 0.26780(25) 0.2399(3)
F4_11 F 0.0824(2) 0.26907(27) 0.2804(3)
F5_11 F 0.01212(17) 0.23752(26) 0.0982(3)
F6_11 F 0.0139(2) 0.1942(3) 0.2271(4)
P1_12 P 0.74677(8) 0.79429(6) 0.18911(10)
F1_12 F 0.76051(22) 0.84874(15) 0.1387(3)
F2_12 F 0.68731(24) 0.76833(17) 0.1518(3)
F3_12 F 0.73220(25) 0.74001(16) 0.2399(3)
F4_12 F 0.73093(27) 0.81333(18) 0.2804(3)
F5_12 F 0.76248(26) 0.7746(2) 0.0982(3)
F6_12 F 0.8058(3) 0.8197(2) 0.2271(4)
P1_13 P 0.53904(6) 0.61915(6) 0.85578(10)
F1_13 F 0.48459(15) 0.57844(16) 0.8054(3)
F2_13 F 0.56500(17) 0.58565(17) 0.8185(3)
F3_13 F 0.59332(16) 0.65886(19) 0.9066(3)
F4_13 F 0.52000(18) 0.5843(2) 0.9471(3)
F5_13 F 0.5587(2) 0.65455(17) 0.7649(3)
F6_13 F 0.5136(2) 0.6528(2) 0.8938(4)
P1_14 P 0.38085(6) 0.91990(8) 0.85578(10)
F1_14 F 0.42156(16) 0.90616(22) 0.8054(3)
F2_14 F 0.41435(17) 0.97936(24) 0.8185(3)
F3_14 F 0.34114(19) 0.93447(25) 0.9066(3)
F4_14 F 0.4157(2) 0.93574(27) 0.9471(3)
F5_14 F 0.34545(17) 0.90419(26) 0.7649(3)
F6_14 F 0.3472(2) 0.8609(3) 0.8938(4)
P1_15 P 0.08010(8) 0.46096(6) 0.85578(10)
F1_15 F 0.09384(22) 0.51541(15) 0.8054(3)
F2_15 F 0.02064(24) 0.43500(17) 0.8185(3)
F3_15 F 0.06553(25) 0.40668(16) 0.9066(3)
F4_15 F 0.06426(27) 0.48000(18) 0.9471(3)
F5_15 F 0.09581(26) 0.4413(2) 0.7649(3)
F6_15 F 0.1391(3) 0.4864(2) 0.8938(4)
P1_16 P 0.87238(6) 0.28581(6) 0.52244(10)
F1_16 F 0.81793(15) 0.24510(16) 0.4720(3)
F2_16 F 0.89834(17) 0.25231(17) 0.4851(3)
F3_16 F 0.92666(16) 0.32552(19) 0.5732(3)
F4_16 F 0.85334(18) 0.2509(2) 0.6137(3)
F5_16 F 0.8921(2) 0.32121(17) 0.4315(3)
F6_16 F 0.8470(2) 0.3194(2) 0.5604(4)
P1_17 P 0.71419(6) 0.58656(8) 0.52244(10)
F1_17 F 0.75490(16) 0.57282(22) 0.4720(3)
F2_17 F 0.74769(17) 0.64602(24) 0.4851(3)
F3_17 F 0.67448(19) 0.60113(25) 0.5732(3)
F4_17 F 0.7491(2) 0.60240(27) 0.6137(3)
F5_17 F 0.67879(17) 0.57085(26) 0.4315(3)
F6_17 F 0.6806(2) 0.5275(3) 0.5604(4)
P1_18 P 0.41344(8) 0.12762(6) 0.52244(10)
F1_18 F 0.42718(22) 0.18207(15) 0.4720(3)
F2_18 F 0.35398(24) 0.10166(17) 0.4851(3)
F3_18 F 0.39887(25) 0.07334(16) 0.5732(3)
F4_18 F 0.39760(27) 0.14666(18) 0.6137(3)
F5_18 F 0.42915(26) 0.1079(2) 0.4315(3)
F6_18 F 0.4725(3) 0.1530(2) 0.5604(4)
loop_
_geom_bond_atom_site_label_1
_geom_bond_atom_site_label_2
_geom_bond_site_symmetry_1
_geom_bond_site_symmetry_2
H8 C9 1_555 1_555
S1 O1 1_555 1_555
O1 Ag1 1_555 1_555
C10 S1 1_555 1_555
H9 C10 1_555 1_555
H10 C10 1_555 1_555
H11 C10 1_555 1_555
C11 S1 1_555 1_555
H12 C11 1_555 1_555
H13 C11 1_555 1_555
H14 C11 1_555 1_555
N5 Ag1 1_555 1_555
N6 Ag1 1_555 1_555
N1 C2 1_555 1_555
C1 H1 1_555 1_555
C2 C4 1_555 1_555
C3 C4 1_555 1_555
C4 H2 1_555 1_555
H3 C4 1_555 1_555
C5 C3 1_555 1_555
H4 C5 1_555 1_555
C6 H5 1_555 1_555
N3 C1 1_555 1_555
C7 C2 1_555 1_555
H6 C7 1_555 1_555
C8 C1 1_555 1_555
N4 C6 1_555 1_555
Ag2 N4 1_555 1_555
Ag3 N3 1_555 1_555
C3 N2 1_555 1_555
C5 N3 1_555 1_555
N2 C8 1_555 1_555
C7 N4 1_555 1_555
N1_2 C2_2 1_555 1_555
C1_2 H1_2 1_555 1_555
C2_2 C4_2 1_555 1_555
C3_2 C4_2 1_555 1_555
C4_2 H2_2 1_555 1_555
H3_2 C4_2 1_555 1_555
C5_2 C3_2 1_555 1_555
H4_2 C5_2 1_555 1_555
C6_2 H5_2 1_555 1_555
N3_2 C1_2 1_555 1_555
C7_2 C2_2 1_555 1_555
H6_2 C7_2 1_555 1_555
C8_2 C1_2 1_555 1_555
N4_2 C6_2 1_555 1_555
Ag2_2 N4_2 1_555 1_555
Ag3_2 N3_2 1_555 1_555
C3_2 N2_2 1_555 1_555
C5_2 N3_2 1_555 1_555
N2_2 C8_2 1_555 1_555
C7_2 N4_2 1_555 1_555
H8_2 C9_2 1_555 1_555
S1_2 O1_2 1_555 1_555
O1_2 Ag1_2 1_555 1_555
C10_2 S1_2 1_555 1_555
H9_2 C10_2 1_555 1_555
H10_2 C10_2 1_555 1_555
H11_2 C10_2 1_555 1_555
C11_2 S1_2 1_555 1_555
H12_2 C11_2 1_555 1_555
H13_2 C11_2 1_555 1_555
H14_2 C11_2 1_555 1_555
N5_2 Ag1_2 1_555 1_555
N6_2 Ag1_2 1_555 1_555
Ag1_3 N1_3 1_555 1_555
N1_3 C2_3 1_555 1_555
C1_3 H1_3 1_555 1_555
C2_3 C4_3 1_555 1_555
C3_3 C4_3 1_555 1_555
C4_3 H2_3 1_555 1_555
H3_3 C4_3 1_555 1_555
C5_3 C3_3 1_555 1_555
H4_3 C5_3 1_555 1_555
N2_3 Ag1_3 1_555 1_555
C6_3 H5_3 1_555 1_555
N3_3 C1_3 1_555 1_555
C7_3 C2_3 1_555 1_555
H6_3 C7_3 1_555 1_555
C8_3 C1_3 1_555 1_555
H7_3 C8_3 1_555 1_555
N4_3 C6_3 1_555 1_555
C9_3 N1_3 1_555 1_555
H8_3 C9_3 1_555 1_555
S1_3 O1_3 1_555 1_555
O1_3 Ag1_3 1_555 1_555
C10_3 S1_3 1_555 1_555
H9_3 C10_3 1_555 1_555
H10_3 C10_3 1_555 1_555
H11_3 C10_3 1_555 1_555
C11_3 S1_3 1_555 1_555
H12_3 C11_3 1_555 1_555
H13_3 C11_3 1_555 1_555
H14_3 C11_3 1_555 1_555
Ag2_3 N4_3 1_555 1_555
Ag3_3 N3_3 1_555 1_555
N5_3 Ag1_3 1_555 1_555
N6_3 Ag1_3 1_555 1_555
C3_3 N2_3 1_555 1_555
C5_3 N3_3 1_555 1_555
N2_3 C8_3 1_555 1_555
C6_3 C9_3 1_555 1_555
C7_3 N4_3 1_555 1_555
Ag1_4 N1_4 1_555 1_555
N1_4 C2_4 1_555 1_555
C1_4 H1_4 1_555 1_555
C2_4 C4_4 1_555 1_555
C3_4 C4_4 1_555 1_555
C4_4 H2_4 1_555 1_555
H3_4 C4_4 1_555 1_555
C5_4 C3_4 1_555 1_555
H4_4 C5_4 1_555 1_555
N2_4 Ag1_4 1_555 1_555
C6_4 H5_4 1_555 1_555
N3_4 C1_4 1_555 1_555
C7_4 C2_4 1_555 1_555
H6_4 C7_4 1_555 1_555
C8_4 C1_4 1_555 1_555
H7_4 C8_4 1_555 1_555
N6_3 C6_4 1_555 1_555
C9_4 N1_4 1_555 1_555
H8_4 C9_4 1_555 1_555
S1_4 O1_4 1_555 1_555
O1_4 Ag1_4 1_555 1_555
C10_4 S1_4 1_555 1_555
H9_4 C10_4 1_555 1_555
H10_4 C10_4 1_555 1_555
H11_4 C10_4 1_555 1_555
C11_4 S1_4 1_555 1_555
H12_4 C11_4 1_555 1_555
H13_4 C11_4 1_555 1_555
H14_4 C11_4 1_555 1_555
Ag3_4 N3_4 1_555 1_555
N5_4 Ag1_4 1_555 1_555
N6_4 Ag1_4 1_555 1_555
C3_4 N2_4 1_555 1_555
C5_4 N3_4 1_555 1_555
N2_4 C8_4 1_555 1_555
C6_4 C9_4 1_555 1_555
C7_4 N6_3 1_555 1_555
Ag1_5 N1_5 1_555 1_555
N1_5 C2_5 1_555 1_555
C1_5 H1_5 1_555 1_555
C2_5 C4_5 1_555 1_555
C3_5 C4_5 1_555 1_555
C4_5 H2_5 1_555 1_555
H3_5 C4_5 1_555 1_555
C5_5 C3_5 1_555 1_555
H4_5 C5_5 1_555 1_555
N2_5 Ag1_5 1_555 1_555
N3_5 C1_5 1_555 1_555
C7_5 C2_5 1_555 1_555
H6_5 C7_5 1_555 1_555
C8_5 C1_5 1_555 1_555
H7_5 C8_5 1_555 1_555
N6 C6_5 1_555 1_555
C9_5 N1_5 1_555 1_555
S1_5 O1_5 1_555 1_555
O1_5 Ag1_5 1_555 1_555
C10_5 S1_5 1_555 1_555
H9_5 C10_5 1_555 1_555
H10_5 C10_5 1_555 1_555
H11_5 C10_5 1_555 1_555
C11_5 S1_5 1_555 1_555
H12_5 C11_5 1_555 1_555
H13_5 C11_5 1_555 1_555
H14_5 C11_5 1_555 1_555
Ag3_5 N3_5 1_555 1_555
N5_5 Ag1_5 1_555 1_555
N6_5 Ag1_5 1_555 1_555
C3_5 N2_5 1_555 1_555
C5_5 N3_5 1_555 1_555
N2_5 C8_5 1_555 1_555
C6_5 C9_5 1_555 1_555
C7_5 N6 1_555 1_555
Ag1_6 N1_6 1_555 1_555
N1_6 C2_6 1_555 1_555
C1_6 H1_6 1_555 1_555
C2_6 C4_6 1_555 1_555
C3_6 C4_6 1_555 1_555
C4_6 H2_6 1_555 1_555
H3_6 C4_6 1_555 1_555
C5_6 C3_6 1_555 1_555
H4_6 C5_6 1_555 1_555
N2_6 Ag1_6 1_555 1_555
N3_6 C1_6 1_555 1_555
C7_6 C2_6 1_555 1_555
H6_6 C7_6 1_555 1_555
C8_6 C1_6 1_555 1_555
H7_6 C8_6 1_555 1_555
N6_2 C6_6 1_555 1_555
C9_6 N1_6 1_555 1_555
S1_6 O1_6 1_555 1_555
O1_6 Ag1_6 1_555 1_555
C10_6 S1_6 1_555 1_555
H9_6 C10_6 1_555 1_555
H10_6 C10_6 1_555 1_555
H11_6 C10_6 1_555 1_555
C11_6 S1_6 1_555 1_555
H12_6 C11_6 1_555 1_555
H13_6 C11_6 1_555 1_555
H14_6 C11_6 1_555 1_555
Ag3_6 N3_6 1_555 1_555
N5_6 Ag1_6 1_555 1_555
N6_6 Ag1_6 1_555 1_555
C3_6 N2_6 1_555 1_555
C5_6 N3_6 1_555 1_555
N2_6 C8_6 1_555 1_555
C6_6 C9_6 1_555 1_555
C7_6 N6_2 1_555 1_555
C1_7 H1_7 1_555 1_555
C5_7 C3_7 1_555 1_555
H4_7 C5_7 1_555 1_555
N2_7 Ag2_2 1_555 1_555
N3_7 C1_7 1_555 1_555
C8_7 C1_7 1_555 1_555
H7_7 C8_7 1_555 1_555
Ag3_7 N3_7 1_555 1_555
N5_7 Ag2_2 1_555 1_555
C3_7 N2_7 1_555 1_555
C5_7 N3_7 1_555 1_555
N2_7 C8_7 1_555 1_555
C6_7 H5_5 1_555 1_555
N6_6 C6_7 1_555 1_555
C1_8 H1_8 1_555 1_555
C5_8 C3_8 1_555 1_555
H4_8 C5_8 1_555 1_555
N2_8 Ag2_3 1_555 1_555
N3_8 C1_8 1_555 1_555
C8_8 C1_8 1_555 1_555
H7_8 C8_8 1_555 1_555
Ag3_8 N3_8 1_555 1_555
N5_8 Ag2_3 1_555 1_555
C3_8 N2_8 1_555 1_555
C5_8 N3_8 1_555 1_555
N2_8 C8_8 1_555 1_555
N1_7 C2_7 1_555 1_555
C2_7 C4_7 1_555 1_555
C4_7 H2_7 1_555 1_555
H3_7 C4_7 1_555 1_555
C6_8 H5_6 1_555 1_555
C7_7 C2_7 1_555 1_555
H6_7 C7_7 1_555 1_555
N6_4 C6_8 1_555 1_555
C9_7 N1_7 1_555 1_555
H8_5 C9_7 1_555 1_555
S1_7 O1_7 1_555 1_555
C10_7 S1_7 1_555 1_555
H9_7 C10_7 1_555 1_555
H10_7 C10_7 1_555 1_555
H11_7 C10_7 1_555 1_555
C11_7 S1_7 1_555 1_555
H12_7 C11_7 1_555 1_555
H13_7 C11_7 1_555 1_555
H14_7 C11_7 1_555 1_555
C6_8 C9_7 1_555 1_555
C7_7 N6_4 1_555 1_555
C6_9 H5_7 1_555 1_555
N6_5 C6_9 1_555 1_555
C1_9 H1_9 1_555 1_555
C5_9 C3_9 1_555 1_555
H4_9 C5_9 1_555 1_555
N2_9 Ag2 1_555 1_555
N3_9 C1_9 1_555 1_555
C8_9 C1_9 1_555 1_555
H7_9 C8_9 1_555 1_555
Ag3_9 N3_9 1_555 1_555
N5_9 Ag2 1_555 1_555
C3_9 N2_9 1_555 1_555
C5_9 N3_9 1_555 1_555
N2_9 C8_9 1_555 1_555
N1_8 C2_8 1_555 1_555
C1_10 H1_10 1_555 1_555
C2_8 C4_8 1_555 1_555
C3_10 C4_8 1_555 1_555
C4_8 H2_8 1_555 1_555
H3_8 C4_8 1_555 1_555
C5_10 C3_10 1_555 1_555
H4_10 C5_10 1_555 1_555
C6_10 H5_8 1_555 1_555
N5_3 C1_10 1_555 1_555
C7_8 C2_8 1_555 1_555
H6_8 C7_8 1_555 1_555
C8_10 C1_10 1_555 1_555
N4_4 C6_10 1_555 1_555
Ag3_4 N4_4 1_555 1_555
C3_10 N2_10 1_555 1_555
C5_10 N5_3 1_555 1_555
N2_10 C8_10 1_555 1_555
C7_8 N4_4 1_555 1_555
H8_6 C9_8 1_555 1_555
S1_8 O1_8 1_555 1_555
O1_8 Ag3_2 1_555 1_555
C10_8 S1_8 1_555 1_555
H9_8 C10_8 1_555 1_555
H10_8 C10_8 1_555 1_555
H11_8 C10_8 1_555 1_555
C11_8 S1_8 1_555 1_555
H12_8 C11_8 1_555 1_555
H13_8 C11_8 1_555 1_555
H14_8 C11_8 1_555 1_555
N6_7 Ag3_2 1_555 1_555
H8_7 C9_9 1_555 1_555
S1_9 O1_9 1_555 1_555
O1_9 Ag3_3 1_555 1_555
C10_9 S1_9 1_555 1_555
H9_9 C10_9 1_555 1_555
H10_9 C10_9 1_555 1_555
H11_9 C10_9 1_555 1_555
C11_9 S1_9 1_555 1_555
H12_9 C11_9 1_555 1_555
H13_9 C11_9 1_555 1_555
H14_9 C11_9 1_555 1_555
N6_8 Ag3_3 1_555 1_555
N1_9 C2_9 1_555 1_555
C1_11 H1_11 1_555 1_555
C2_9 C4_9 1_555 1_555
C3_11 C4_9 1_555 1_555
C4_9 H2_9 1_555 1_555
H3_9 C4_9 1_555 1_555
C5_11 C3_11 1_555 1_555
H4_11 C5_11 1_555 1_555
C6_11 H5_9 1_555 1_555
N5 C1_11 1_555 1_555
C7_9 C2_9 1_555 1_555
H6_9 C7_9 1_555 1_555
C8_11 C1_11 1_555 1_555
N4_5 C6_11 1_555 1_555
Ag3_5 N4_5 1_555 1_555
C3_11 N2_11 1_555 1_555
C5_11 N5 1_555 1_555
N2_11 C8_11 1_555 1_555
C7_9 N4_5 1_555 1_555
Ag3 N1_10 1_555 1_555
N1_10 C2_10 1_555 1_555
C1_12 H1_12 1_555 1_555
C2_10 C4_10 1_555 1_555
C3_12 C4_10 1_555 1_555
C4_10 H2_10 1_555 1_555
H3_10 C4_10 1_555 1_555
C5_12 C3_12 1_555 1_555
H4_12 C5_12 1_555 1_555
N2_12 Ag3 1_555 1_555
C6_12 H5_10 1_555 1_555
N5_2 C1_12 1_555 1_555
C7_10 C2_10 1_555 1_555
H6_10 C7_10 1_555 1_555
C8_12 C1_12 1_555 1_555
H7_12 C8_12 1_555 1_555
N4_6 C6_12 1_555 1_555
C9_10 N1_10 1_555 1_555
H8_8 C9_10 1_555 1_555
S1_10 O1_10 1_555 1_555
O1_10 Ag3 1_555 1_555
C10_10 S1_10 1_555 1_555
H9_10 C10_10 1_555 1_555
H10_10 C10_10 1_555 1_555
H11_10 C10_10 1_555 1_555
C11_10 S1_10 1_555 1_555
H12_10 C11_10 1_555 1_555
H13_10 C11_10 1_555 1_555
H14_10 C11_10 1_555 1_555
Ag3_6 N4_6 1_555 1_555
N6_9 Ag3 1_555 1_555
C3_12 N2_12 1_555 1_555
C5_12 N5_2 1_555 1_555
N2_12 C8_12 1_555 1_555
C6_12 C9_10 1_555 1_555
C7_10 N4_6 1_555 1_555
Ag3_8 N1_11 1_555 1_555
N1_11 C2_11 1_555 1_555
C1_13 H1_13 1_555 1_555
C2_11 C4_11 1_555 1_555
C3_13 C4_11 1_555 1_555
C4_11 H2_11 1_555 1_555
H3_11 C4_11 1_555 1_555
C5_13 C3_13 1_555 1_555
H4_13 C5_13 1_555 1_555
N2_13 Ag3_8 1_555 1_555
C6_13 H5_11 1_555 1_555
N5_9 C1_13 1_555 1_555
C7_11 C2_11 1_555 1_555
H6_11 C7_11 1_555 1_555
C8_13 C1_13 1_555 1_555
H7_13 C8_13 1_555 1_555
N6_9 C6_13 1_555 1_555
C9_11 N1_11 1_555 1_555
H8_9 C9_11 1_555 1_555
S1_11 O1_11 1_555 1_555
O1_11 Ag3_8 1_555 1_555
C10_11 S1_11 1_555 1_555
H9_11 C10_11 1_555 1_555
H10_11 C10_11 1_555 1_555
H11_11 C10_11 1_555 1_555
C11_11 S1_11 1_555 1_555
H12_11 C11_11 1_555 1_555
H13_11 C11_11 1_555 1_555
H14_11 C11_11 1_555 1_555
N6_10 Ag3_8 1_555 1_555
C3_13 N2_13 1_555 1_555
C5_13 N5_9 1_555 1_555
N2_13 C8_13 1_555 1_555
C6_13 C9_11 1_555 1_555
C7_11 N6_9 1_555 1_555
Ag3_9 N1_12 1_555 1_555
N1_12 C2_12 1_555 1_555
C1_14 H1_14 1_555 1_555
C2_12 C4_12 1_555 1_555
C3_14 C4_12 1_555 1_555
C4_12 H2_12 1_555 1_555
H3_12 C4_12 1_555 1_555
C5_14 C3_14 1_555 1_555
H4_14 C5_14 1_555 1_555
N2_14 Ag3_9 1_555 1_555
N5_7 C1_14 1_555 1_555
C7_12 C2_12 1_555 1_555
H6_12 C7_12 1_555 1_555
C8_14 C1_14 1_555 1_555
H7_14 C8_14 1_555 1_555
N6_7 C6_14 1_555 1_555
C9_12 N1_12 1_555 1_555
S1_12 O1_12 1_555 1_555
O1_12 Ag3_9 1_555 1_555
C10_12 S1_12 1_555 1_555
H9_12 C10_12 1_555 1_555
H10_12 C10_12 1_555 1_555
H11_12 C10_12 1_555 1_555
C11_12 S1_12 1_555 1_555
H12_12 C11_12 1_555 1_555
H13_12 C11_12 1_555 1_555
H14_12 C11_12 1_555 1_555
N6_11 Ag3_9 1_555 1_555
C3_14 N2_14 1_555 1_555
C5_14 N5_7 1_555 1_555
N2_14 C8_14 1_555 1_555
C6_14 C9_12 1_555 1_555
C7_12 N6_7 1_555 1_555
Ag3_7 N1_13 1_555 1_555
N1_13 C2_13 1_555 1_555
C1_15 H1_15 1_555 1_555
C2_13 C4_13 1_555 1_555
C3_15 C4_13 1_555 1_555
C4_13 H2_13 1_555 1_555
H3_13 C4_13 1_555 1_555
C5_15 C3_15 1_555 1_555
H4_15 C5_15 1_555 1_555
N2_15 Ag3_7 1_555 1_555
N5_8 C1_15 1_555 1_555
C7_13 C2_13 1_555 1_555
H6_13 C7_13 1_555 1_555
C8_15 C1_15 1_555 1_555
H7_15 C8_15 1_555 1_555
N6_8 C6_15 1_555 1_555
C9_13 N1_13 1_555 1_555
S1_13 O1_13 1_555 1_555
O1_13 Ag3_7 1_555 1_555
C10_13 S1_13 1_555 1_555
H9_13 C10_13 1_555 1_555
H10_13 C10_13 1_555 1_555
H11_13 C10_13 1_555 1_555
C11_13 S1_13 1_555 1_555
H12_13 C11_13 1_555 1_555
H13_13 C11_13 1_555 1_555
H14_13 C11_13 1_555 1_555
N6_12 Ag3_7 1_555 1_555
C3_15 N2_15 1_555 1_555
C5_15 N5_8 1_555 1_555
N2_15 C8_15 1_555 1_555
C6_15 C9_13 1_555 1_555
C7_13 N6_8 1_555 1_555
C6_16 H5_12 1_555 1_555
N6_12 C6_16 1_555 1_555
C1_16 H1_16 1_555 1_555
C5_16 C3_16 1_555 1_555
H4_16 C5_16 1_555 1_555
N2_16 Ag3_5 1_555 1_555
N5_6 C1_16 1_555 1_555
C8_16 C1_16 1_555 1_555
H7_16 C8_16 1_555 1_555
C3_16 N2_16 1_555 1_555
C5_16 N5_6 1_555 1_555
N2_16 C8_16 1_555 1_555
N1_14 C2_14 1_555 1_555
C2_14 C4_14 1_555 1_555
C4_14 H2_14 1_555 1_555
H3_14 C4_14 1_555 1_555
C6_17 H5_13 1_555 1_555
C7_14 C2_14 1_555 1_555
H6_14 C7_14 1_555 1_555
N6_10 C6_17 1_555 1_555
C9_14 N1_14 1_555 1_555
H8_10 C9_14 1_555 1_555
S1_14 O1_14 1_555 1_555
C10_14 S1_14 1_555 1_555
H9_14 C10_14 1_555 1_555
H10_14 C10_14 1_555 1_555
H11_14 C10_14 1_555 1_555
C11_14 S1_14 1_555 1_555
H12_14 C11_14 1_555 1_555
H13_14 C11_14 1_555 1_555
H14_14 C11_14 1_555 1_555
C6_17 C9_14 1_555 1_555
C7_14 N6_10 1_555 1_555
C1_17 H1_17 1_555 1_555
C5_17 C3_17 1_555 1_555
H4_17 C5_17 1_555 1_555
N2_17 Ag3_6 1_555 1_555
N5_4 C1_17 1_555 1_555
C8_17 C1_17 1_555 1_555
H7_17 C8_17 1_555 1_555
C3_17 N2_17 1_555 1_555
C5_17 N5_4 1_555 1_555
N2_17 C8_17 1_555 1_555
C1_18 H1_18 1_555 1_555
C5_18 C3_18 1_555 1_555
H4_18 C5_18 1_555 1_555
N2_18 Ag3_4 1_555 1_555
N5_5 C1_18 1_555 1_555
C8_18 C1_18 1_555 1_555
H7_18 C8_18 1_555 1_555
C3_18 N2_18 1_555 1_555
C5_18 N5_5 1_555 1_555
N2_18 C8_18 1_555 1_555
C6_18 H5_14 1_555 1_555
N6_11 C6_18 1_555 1_555
N1_15 C2_15 1_555 1_555
C2_15 C4_15 1_555 1_555
C4_15 H2_15 1_555 1_555
H3_15 C4_15 1_555 1_555
C7_15 C2_15 1_555 1_555
H6_15 C7_15 1_555 1_555
C9_15 N1_15 1_555 1_555
H8_13 C9_15 1_555 1_555
S1_15 O1_15 1_555 1_555
C10_15 S1_15 1_555 1_555
H9_15 C10_15 1_555 1_555
H10_15 C10_15 1_555 1_555
H11_15 C10_15 1_555 1_555
C11_15 S1_15 1_555 1_555
H12_15 C11_15 1_555 1_555
H13_15 C11_15 1_555 1_555
H14_15 C11_15 1_555 1_555
N1_16 C2_16 1_555 1_555
C2_16 C4_16 1_555 1_555
C4_16 H2_16 1_555 1_555
H3_16 C4_16 1_555 1_555
C7_16 C2_16 1_555 1_555
H6_16 C7_16 1_555 1_555
C9_16 N1_16 1_555 1_555
H8_14 C9_16 1_555 1_555
S1_16 O1_16 1_555 1_555
C10_16 S1_16 1_555 1_555
H9_16 C10_16 1_555 1_555
H10_16 C10_16 1_555 1_555
H11_16 C10_16 1_555 1_555
C11_16 S1_16 1_555 1_555
H12_16 C11_16 1_555 1_555
H13_16 C11_16 1_555 1_555
H14_16 C11_16 1_555 1_555
N1_17 C2_17 1_555 1_555
C2_17 C4_17 1_555 1_555
C4_17 H2_17 1_555 1_555
H3_17 C4_17 1_555 1_555
C7_17 C2_17 1_555 1_555
H6_17 C7_17 1_555 1_555
C9_17 N1_17 1_555 1_555
H8_17 C9_17 1_555 1_555
S1_17 O1_17 1_555 1_555
C10_17 S1_17 1_555 1_555
H9_17 C10_17 1_555 1_555
H10_17 C10_17 1_555 1_555
H11_17 C10_17 1_555 1_555
C11_17 S1_17 1_555 1_555
H12_17 C11_17 1_555 1_555
H13_17 C11_17 1_555 1_555
H14_17 C11_17 1_555 1_555
N1_18 C2_18 1_555 1_555
C2_18 C4_18 1_555 1_555
C4_18 H2_18 1_555 1_555
H3_18 C4_18 1_555 1_555
C7_18 C2_18 1_555 1_555
H6_18 C7_18 1_555 1_555
C9_18 N1_18 1_555 1_555
H8_18 C9_18 1_555 1_555
S1_18 O1_18 1_555 1_555
C10_18 S1_18 1_555 1_555
H9_18 C10_18 1_555 1_555
H10_18 C10_18 1_555 1_555
H11_18 C10_18 1_555 1_555
C11_18 S1_18 1_555 1_555
H12_18 C11_18 1_555 1_555
H13_18 C11_18 1_555 1_555
H14_18 C11_18 1_555 1_555
P1 F1 1_555 1_555
F2 P1 1_555 1_555
F3 P1 1_555 1_555
F4 P1 1_555 1_555
F5 P1 1_555 1_555
F6 P1 1_555 1_555
P1_2 F1_2 1_555 1_555
F2_2 P1_2 1_555 1_555
F3_2 P1_2 1_555 1_555
F4_2 P1_2 1_555 1_555
F5_2 P1_2 1_555 1_555
F6_2 P1_2 1_555 1_555
P1_3 F1_3 1_555 1_555
F2_3 P1_3 1_555 1_555
F3_3 P1_3 1_555 1_555
F4_3 P1_3 1_555 1_555
F5_3 P1_3 1_555 1_555
F6_3 P1_3 1_555 1_555
P1_4 F1_4 1_555 1_555
F2_4 P1_4 1_555 1_555
F3_4 P1_4 1_555 1_555
F4_4 P1_4 1_555 1_555
F5_4 P1_4 1_555 1_555
F6_4 P1_4 1_555 1_555
P1_5 F1_5 1_555 1_555
F2_5 P1_5 1_555 1_555
F3_5 P1_5 1_555 1_555
F4_5 P1_5 1_555 1_555
F5_5 P1_5 1_555 1_555
F6_5 P1_5 1_555 1_555
P1_6 F1_6 1_555 1_555
F2_6 P1_6 1_555 1_555
F3_6 P1_6 1_555 1_555
F4_6 P1_6 1_555 1_555
F5_6 P1_6 1_555 1_555
F6_6 P1_6 1_555 1_555
P1_7 F1_7 1_555 1_555
F2_7 P1_7 1_555 1_555
F3_7 P1_7 1_555 1_555
F4_7 P1_7 1_555 1_555
F5_7 P1_7 1_555 1_555
F6_7 P1_7 1_555 1_555
P1_8 F1_8 1_555 1_555
F2_8 P1_8 1_555 1_555
F3_8 P1_8 1_555 1_555
F4_8 P1_8 1_555 1_555
F5_8 P1_8 1_555 1_555
F6_8 P1_8 1_555 1_555
P1_9 F1_9 1_555 1_555
F2_9 P1_9 1_555 1_555
F3_9 P1_9 1_555 1_555
F4_9 P1_9 1_555 1_555
F5_9 P1_9 1_555 1_555
F6_9 P1_9 1_555 1_555
P1_10 F1_10 1_555 1_555
F2_10 P1_10 1_555 1_555
F3_10 P1_10 1_555 1_555
F4_10 P1_10 1_555 1_555
F5_10 P1_10 1_555 1_555
F6_10 P1_10 1_555 1_555
P1_11 F1_11 1_555 1_555
F2_11 P1_11 1_555 1_555
F3_11 P1_11 1_555 1_555
F4_11 P1_11 1_555 1_555
F5_11 P1_11 1_555 1_555
F6_11 P1_11 1_555 1_555
P1_12 F1_12 1_555 1_555
F2_12 P1_12 1_555 1_555
F3_12 P1_12 1_555 1_555
F4_12 P1_12 1_555 1_555
F5_12 P1_12 1_555 1_555
F6_12 P1_12 1_555 1_555
P1_13 F1_13 1_555 1_555
F2_13 P1_13 1_555 1_555
F3_13 P1_13 1_555 1_555
F4_13 P1_13 1_555 1_555
F5_13 P1_13 1_555 1_555
F6_13 P1_13 1_555 1_555
P1_14 F1_14 1_555 1_555
F2_14 P1_14 1_555 1_555
F3_14 P1_14 1_555 1_555
F4_14 P1_14 1_555 1_555
F5_14 P1_14 1_555 1_555
F6_14 P1_14 1_555 1_555
P1_15 F1_15 1_555 1_555
F2_15 P1_15 1_555 1_555
F3_15 P1_15 1_555 1_555
F4_15 P1_15 1_555 1_555
F5_15 P1_15 1_555 1_555
F6_15 P1_15 1_555 1_555
P1_16 F1_16 1_555 1_555
F2_16 P1_16 1_555 1_555
F3_16 P1_16 1_555 1_555
F4_16 P1_16 1_555 1_555
F5_16 P1_16 1_555 1_555
F6_16 P1_16 1_555 1_555
P1_17 F1_17 1_555 1_555
F2_17 P1_17 1_555 1_555
F3_17 P1_17 1_555 1_555
F4_17 P1_17 1_555 1_555
F5_17 P1_17 1_555 1_555
F6_17 P1_17 1_555 1_555
P1_18 F1_18 1_555 1_555
F2_18 P1_18 1_555 1_555
F3_18 P1_18 1_555 1_555
F4_18 P1_18 1_555 1_555
F5_18 P1_18 1_555 1_555
F6_18 P1_18 1_555 1_555

#END
