####################################################################### 
# 
# This file contains crystal structure data downloaded from the 
# Cambridge Structural Database (CSD) hosted by the Cambridge 
# Crystallographic Data Centre (CCDC).
# 
# Full information about CCDC data access policies and citation 
# guidelines are available at http://www.ccdc.cam.ac.uk/access/V1 
# 
# Audit and citation data items may have been added by the CCDC. 
# Please retain this information to preserve the provenance of 
# this file and to allow appropriate attribution of the data. 
# 
#######################################################################

data_1aTol
_audit_block_doi                 10.5517/cc14nqyg
_database_code_depnum_ccdc_archive 'CCDC 1062616'
loop_
_citation_id
_citation_doi
_citation_year
1 10.1002/ejic.201500647 2015
_audit_update_record             
;
2015-04-30 deposited with the CCDC.	2024-07-10 downloaded from the CCDC.
;

_audit_creation_method           SHELXL-2013
_chemical_name_systematic        
;
 ?
;
_chemical_name_common            ?
_chemical_melting_point          ?
_chemical_formula_moiety         ?
_chemical_formula_sum            'C14.25 H14 Ag F6 N4 P'
_chemical_formula_weight         494.13

loop_
_atom_type_symbol
_atom_type_description
_atom_type_scat_dispersion_real
_atom_type_scat_dispersion_imag
_atom_type_scat_source
C C 0.0033 0.0016 'International Tables Vol C Tables 4.2.6.8 and 6.1.1.4'
H H 0.0000 0.0000 'International Tables Vol C Tables 4.2.6.8 and 6.1.1.4'
N N 0.0061 0.0033 'International Tables Vol C Tables 4.2.6.8 and 6.1.1.4'
F F 0.0171 0.0103 'International Tables Vol C Tables 4.2.6.8 and 6.1.1.4'
P P 0.1023 0.0942 'International Tables Vol C Tables 4.2.6.8 and 6.1.1.4'
Ag Ag -0.8971 1.1015 'International Tables Vol C Tables 4.2.6.8 and 6.1.1.4'

_space_group_crystal_system      trigonal
_space_group_IT_number           148
_space_group_name_H-M_alt        'R -3 :H'
_space_group_name_Hall           '-R 3'

_shelx_space_group_comment       
;
The symmetry employed for this shelxl refinement is uniquely defined
by the following loop, which should always be used as a source of
symmetry information in preference to the above space-group names.
They are only intended as comments.
;

loop_
_space_group_symop_operation_xyz
'x, y, z'
'-y, x-y, z'
'-x+y, -x, z'
'x+2/3, y+1/3, z+1/3'
'-y+2/3, x-y+1/3, z+1/3'
'-x+y+2/3, -x+1/3, z+1/3'
'x+1/3, y+2/3, z+2/3'
'-y+1/3, x-y+2/3, z+2/3'
'-x+y+1/3, -x+2/3, z+2/3'
'-x, -y, -z'
'y, -x+y, -z'
'x-y, x, -z'
'-x+2/3, -y+1/3, -z+1/3'
'y+2/3, -x+y+1/3, -z+1/3'
'x-y+2/3, x+1/3, -z+1/3'
'-x+1/3, -y+2/3, -z+2/3'
'y+1/3, -x+y+2/3, -z+2/3'
'x-y+1/3, x+2/3, -z+2/3'

_cell_length_a                   29.4645(9)
_cell_length_b                   29.4645(9)
_cell_length_c                   14.2632(6)
_cell_angle_alpha                90
_cell_angle_beta                 90
_cell_angle_gamma                120
_cell_volume                     10723.7(8)
_cell_formula_units_Z            18
_cell_measurement_temperature    150(2)
_cell_measurement_reflns_used    4719
_cell_measurement_theta_min      2.5442
_cell_measurement_theta_max      29.2760

_exptl_crystal_description       block
_exptl_crystal_colour            plate
_exptl_crystal_density_meas      ?
_exptl_crystal_density_method    ?
_exptl_crystal_density_diffrn    1.377
_exptl_crystal_F_000             4383
_exptl_transmission_factor_min   ?
_exptl_transmission_factor_max   ?
_exptl_crystal_size_max          0.29
_exptl_crystal_size_mid          0.08
_exptl_crystal_size_min          0.08
_exptl_absorpt_coefficient_mu    0.962
_shelx_estimated_absorpt_T_min   ?
_shelx_estimated_absorpt_T_max   ?
_exptl_absorpt_correction_T_min  0.81609
_exptl_absorpt_correction_T_max  1.00000
_exptl_absorpt_correction_type   multi-scan
_exptl_absorpt_process_details   ?

_exptl_special_details           
;
 ?
;

_diffrn_ambient_temperature      150(2)
_diffrn_radiation_wavelength     0.71073
_diffrn_radiation_type           MoK\a
_diffrn_source                   'Enhance (Mo) X-ray Source'
_diffrn_measurement_details      
;
#__ type_ start__ end____ width___ exp.time_
  1 omega  -11.00   90.00   1.0000  103.5800
omega____ theta____ kappa____ phi______ frames
    -       18.8463   77.0000  120.0000 101

#__ type_ start__ end____ width___ exp.time_
  2 omega   21.00   48.00   1.0000  103.5800
omega____ theta____ kappa____ phi______ frames
    -      -19.6276   77.0000 -120.0000 27

#__ type_ start__ end____ width___ exp.time_
  3 omega  -92.00    8.00   1.0000  103.5800
omega____ theta____ kappa____ phi______ frames
    -      -19.6276  -37.0000  -60.0000 100

#__ type_ start__ end____ width___ exp.time_
  4 omega  -98.00  -39.00   1.0000  103.5800
omega____ theta____ kappa____ phi______ frames
    -      -19.6276  179.0000 -150.0000 59

#__ type_ start__ end____ width___ exp.time_
  5 omega  -65.00   23.00   1.0000  103.5800
omega____ theta____ kappa____ phi______ frames
    -      -19.6276  102.0000   68.0000 88

;
_diffrn_measurement_device_type  ?
_diffrn_measurement_method       '\w scans'
_diffrn_detector_area_resol_mean ?
_diffrn_reflns_number            26255
_diffrn_reflns_av_unetI/netI     0.0841
_diffrn_reflns_av_R_equivalents  0.0672
_diffrn_reflns_limit_h_min       -38
_diffrn_reflns_limit_h_max       39
_diffrn_reflns_limit_k_min       -37
_diffrn_reflns_limit_k_max       37
_diffrn_reflns_limit_l_min       -19
_diffrn_reflns_limit_l_max       19
_diffrn_reflns_theta_min         2.549
_diffrn_reflns_theta_max         29.341
_diffrn_reflns_theta_full        27.000
_diffrn_measured_fraction_theta_max 0.887
_diffrn_measured_fraction_theta_full 0.997
_diffrn_reflns_Laue_measured_fraction_max 0.887
_diffrn_reflns_Laue_measured_fraction_full 0.997
_diffrn_reflns_point_group_measured_fraction_max 0.887
_diffrn_reflns_point_group_measured_fraction_full 0.997
_reflns_number_total             5827
_reflns_number_gt                3234
_reflns_threshold_expression     'I > 2\s(I)'
_reflns_Friedel_coverage         0.000
_reflns_Friedel_fraction_max     .
_reflns_Friedel_fraction_full    .

_reflns_special_details          
;
 Reflections were merged by SHELXL according to the crystal
 class for the calculation of statistics and refinement.
 
 _reflns_Friedel_fraction is defined as the number of unique
 Friedel pairs measured divided by the number that would be
 possible theoretically, ignoring centric projections and
 systematic absences.
;

_computing_data_collection       
;
CrysAlisPro, Agilent Technologies,
Version 1.171.35.11 (release 16-05-2011 CrysAlis171 .NET)
(compiled May 16 2011,17:55:39)
;
_computing_cell_refinement       
;
CrysAlisPro, Agilent Technologies,
Version 1.171.35.11 (release 16-05-2011 CrysAlis171 .NET)
(compiled May 16 2011,17:55:39)
;
_computing_data_reduction        
;
CrysAlisPro, Agilent Technologies,
Version 1.171.35.11 (release 16-05-2011 CrysAlis171 .NET)
(compiled May 16 2011,17:55:39)
;
_computing_structure_solution    'SHELXS-2013 (Sheldrick, 2013)'
_computing_structure_refinement  'SHELXL-2013 (Sheldrick, 2013)'
_computing_molecular_graphics    'X-Seed (Barbour, 1999)'
_computing_publication_material  'CIFTAB (Sheldrick, 1997)'

_refine_special_details          
;
 ?
;
_refine_ls_structure_factor_coef Fsqd
_refine_ls_matrix_type           full
_refine_ls_weighting_scheme      calc
_refine_ls_weighting_details     
'w=1/[\s^2^(Fo^2^)+(0.1425P)^2^+43.5850P] where P=(Fo^2^+2Fc^2^)/3'
_atom_sites_solution_primary     ?
_atom_sites_solution_secondary   ?
_atom_sites_solution_hydrogens   mixed
_refine_ls_hydrogen_treatment    constr
_refine_ls_extinction_method     none
_refine_ls_extinction_coef       .
_refine_ls_number_reflns         5827
_refine_ls_number_parameters     270
_refine_ls_number_restraints     0
_refine_ls_R_factor_all          0.1492
_refine_ls_R_factor_gt           0.0910
_refine_ls_wR_factor_ref         0.2870
_refine_ls_wR_factor_gt          0.2553
_refine_ls_goodness_of_fit_ref   1.049
_refine_ls_restrained_S_all      1.049
_refine_ls_shift/su_max          0.000
_refine_ls_shift/su_mean         0.000

loop_
_atom_site_label
_atom_site_type_symbol
_atom_site_fract_x
_atom_site_fract_y
_atom_site_fract_z
_atom_site_U_iso_or_equiv
_atom_site_adp_type
_atom_site_occupancy
_atom_site_site_symmetry_order
_atom_site_calc_flag
_atom_site_refinement_flags_posn
_atom_site_refinement_flags_adp
_atom_site_refinement_flags_occupancy
_atom_site_disorder_assembly
_atom_site_disorder_group
Ag1 Ag 0.46208(2) 0.07037(3) 0.74835(5) 0.0610(3) Uani 1 1 d . . . . .
C1 C 0.4491(3) 0.1643(3) 0.6553(5) 0.0449(16) Uani 1 1 d . . . . .
H1A H 0.4834 0.1663 0.6463 0.054 Uiso 1 1 calc R U . . .
H1B H 0.4499 0.1939 0.6210 0.054 Uiso 1 1 calc R U . . .
N11 N 0.4484(3) 0.1395(3) 0.8168(4) 0.0558(16) Uani 1 1 d . . . . .
C12 C 0.4409(3) 0.1690(3) 0.7567(5) 0.0437(16) Uani 1 1 d . . . . .
C13 C 0.4265(3) 0.2053(3) 0.7891(5) 0.0486(17) Uani 1 1 d . . . . .
H13 H 0.4201 0.2254 0.7445 0.058 Uiso 1 1 calc R U . . .
N14 N 0.4215(2) 0.2123(2) 0.8802(4) 0.0516(15) Uani 1 1 d . . . . .
C15 C 0.4286(4) 0.1814(3) 0.9391(6) 0.064(2) Uani 1 1 d . . . . .
H15 H 0.4241 0.1842 1.0044 0.076 Uiso 1 1 calc R U . . .
C16 C 0.4422(4) 0.1453(4) 0.9078(7) 0.079(3) Uani 1 1 d . . . . .
H16 H 0.4473 0.1242 0.9522 0.094 Uiso 1 1 calc R U . . .
N21 N 0.4058(2) 0.0692(2) 0.6378(4) 0.0410(13) Uani 1 1 d . . . . .
C22 C 0.4063(3) 0.1131(3) 0.6152(5) 0.0394(14) Uani 1 1 d . . . . .
C23 C 0.3677(3) 0.1114(3) 0.5553(5) 0.0449(16) Uani 1 1 d . . . . .
H23 H 0.3679 0.1430 0.5412 0.054 Uiso 1 1 calc R U . . .
N24 N 0.3309(3) 0.0670(2) 0.5178(4) 0.0531(16) Uani 1 1 d . . . . .
C25 C 0.3302(4) 0.0230(3) 0.5433(6) 0.064(2) Uani 1 1 d . . . . .
H25 H 0.3034 -0.0098 0.5204 0.076 Uiso 1 1 calc R U . . .
C26 C 0.3680(3) 0.0249(3) 0.6026(5) 0.057(2) Uani 1 1 d . . . . .
H26 H 0.3669 -0.0069 0.6188 0.068 Uiso 1 1 calc R U . . .
P30 P 0.46196(7) 0.06618(9) 1.13786(15) 0.0546(6) Uani 1 1 d . . . . .
F32 F 0.4816(3) 0.0392(4) 1.0595(5) 0.156(4) Uani 1 1 d . . . . .
F33 F 0.4103(2) 0.0495(3) 1.0790(4) 0.111(2) Uani 1 1 d . . . . .
F34 F 0.4922(3) 0.1149(4) 1.0776(7) 0.190(5) Uani 1 1 d . . . . .
F35 F 0.4402(3) 0.0823(5) 1.2158(6) 0.176(5) Uani 1 1 d . . . . .
F36 F 0.51382(19) 0.0804(2) 1.1932(3) 0.0804(16) Uani 1 1 d . . . . .
F37 F 0.4331(2) 0.0096(3) 1.1806(6) 0.121(3) Uani 1 1 d . . . . .
C47 C 0.4321(15) -0.0600(15) 0.642(2) 0.066(9) Uani 0.25 1 d . . P A 1
H47A H 0.4151 -0.0419 0.6698 0.099 Uiso 0.25 1 calc R U P A 1
H47B H 0.4534 -0.0647 0.6896 0.099 Uiso 0.25 1 calc R U P A 1
H47C H 0.4052 -0.0944 0.6187 0.099 Uiso 0.25 1 calc R U P A 1
C41A C 0.4655(9) -0.0290(7) 0.5644(13) 0.077(6) Uani 0.25 1 d . . P A 1
C42 C 0.5162(14) -0.0115(9) 0.5820(19) 0.102(9) Uani 0.5 1 d . . P . .
H42 H 0.5274 -0.0186 0.6400 0.122 Uiso 0.5 1 calc R U P A 1
C43 C 0.5485(9) 0.0146(10) 0.5188(17) 0.083(7) Uani 0.5 1 d . . P A .
H43 H 0.5844 0.0251 0.5283 0.100 Uiso 0.5 1 calc R U P . .
C51 C 0.5422(9) 0.2362(8) 0.4629(14) 0.137(13) Uani 0.5 1 d DG . P . .
C52 C 0.5076(8) 0.1886(11) 0.4210(11) 0.159(16) Uani 0.5 1 d G . P . .
H52 H 0.4821 0.1866 0.3777 0.191 Uiso 0.5 1 calc R U P . .
C53 C 0.5103(10) 0.1440(8) 0.4423(15) 0.23(3) Uani 0.5 1 d G . P . .
H53 H 0.4866 0.1115 0.4137 0.271 Uiso 0.5 1 calc R U P . .
C54 C 0.5475(11) 0.1469(9) 0.5056(17) 0.19(2) Uani 0.5 1 d G . P . .
H54 H 0.5494 0.1164 0.5202 0.230 Uiso 0.5 1 calc R U P . .
C55 C 0.5821(8) 0.1945(11) 0.5475(16) 0.135(11) Uani 0.5 1 d G . P . .
H55 H 0.6076 0.1965 0.5907 0.162 Uiso 0.5 1 calc R U P . .
C56 C 0.5794(7) 0.2391(8) 0.5261(15) 0.31(4) Uani 0.5 1 d G . P . .
H56 H 0.6031 0.2716 0.5548 0.377 Uiso 0.5 1 calc R U P . .
C57 C 0.5348(16) 0.2816(12) 0.438(3) 0.44(6) Uiso 0.5 1 d DG . P . .
H57A H 0.5587 0.3122 0.4752 0.663 Uiso 0.5 1 d R U P . .
H57B H 0.4985 0.2724 0.4506 0.663 Uiso 0.5 1 d R U P . .
H57C H 0.5424 0.2898 0.3710 0.663 Uiso 0.5 1 d R U P . .
C41B C 0.4655(9) -0.0290(7) 0.5644(13) 0.077(6) Uani 0.25 1 d . . P A 2
H41B H 0.4394 -0.0510 0.6082 0.092 Uiso 0.25 1 calc R U P A 2

loop_
_atom_site_aniso_label
_atom_site_aniso_U_11
_atom_site_aniso_U_22
_atom_site_aniso_U_33
_atom_site_aniso_U_23
_atom_site_aniso_U_13
_atom_site_aniso_U_12
Ag1 0.0594(4) 0.0664(5) 0.0713(5) 0.0141(3) -0.0020(3) 0.0421(3)
C1 0.046(4) 0.035(3) 0.045(4) 0.002(3) -0.009(3) 0.014(3)
N11 0.069(4) 0.055(4) 0.051(4) 0.003(3) -0.008(3) 0.036(3)
C12 0.036(3) 0.036(3) 0.054(4) 0.000(3) -0.015(3) 0.014(3)
C13 0.045(4) 0.038(4) 0.058(5) -0.003(3) -0.020(3) 0.018(3)
N14 0.060(4) 0.042(3) 0.055(4) -0.004(3) -0.016(3) 0.027(3)
C15 0.084(6) 0.067(5) 0.045(4) -0.004(4) -0.008(4) 0.042(5)
C16 0.121(9) 0.073(6) 0.066(6) 0.004(5) -0.020(6) 0.067(6)
N21 0.051(3) 0.032(3) 0.042(3) 0.002(2) 0.000(3) 0.021(3)
C22 0.047(4) 0.038(3) 0.041(3) 0.002(3) 0.002(3) 0.027(3)
C23 0.055(4) 0.042(4) 0.041(4) 0.001(3) -0.007(3) 0.026(3)
N24 0.062(4) 0.033(3) 0.054(4) -0.007(3) -0.012(3) 0.017(3)
C25 0.080(6) 0.038(4) 0.070(5) -0.018(4) -0.032(5) 0.027(4)
C26 0.079(6) 0.042(4) 0.059(5) 0.000(3) -0.001(4) 0.036(4)
P30 0.0423(10) 0.0663(13) 0.0517(12) 0.0158(10) 0.0036(8) 0.0246(10)
F32 0.087(5) 0.237(11) 0.114(5) -0.065(6) -0.002(4) 0.056(6)
F33 0.062(3) 0.147(6) 0.095(4) 0.038(4) -0.020(3) 0.030(4)
F34 0.109(6) 0.155(8) 0.221(10) 0.121(7) -0.045(6) 0.002(5)
F35 0.115(6) 0.317(13) 0.161(7) -0.140(8) -0.050(5) 0.157(8)
F36 0.055(3) 0.120(5) 0.071(3) 0.003(3) 0.000(2) 0.047(3)
F37 0.076(4) 0.086(4) 0.198(7) 0.038(5) 0.001(4) 0.038(3)
C47 0.08(2) 0.08(2) 0.06(2) -0.007(18) -0.008(18) 0.05(2)
C41A 0.095(15) 0.045(9) 0.060(11) -0.019(8) 0.022(11) 0.013(10)
C42 0.17(3) 0.063(13) 0.095(18) -0.035(12) -0.063(18) 0.073(17)
C43 0.086(15) 0.110(18) 0.086(15) -0.064(14) -0.047(12) 0.073(14)
C51 0.16(3) 0.16(3) 0.16(3) 0.09(2) 0.07(2) 0.13(3)
C52 0.21(4) 0.13(3) 0.094(19) 0.00(2) 0.08(2) 0.06(3)
C53 0.50(9) 0.20(4) 0.10(2) 0.08(2) 0.17(4) 0.26(5)
C54 0.39(7) 0.17(4) 0.08(2) -0.02(2) 0.01(3) 0.19(5)
C55 0.10(2) 0.14(3) 0.18(3) 0.05(2) 0.02(2) 0.07(2)
C56 0.25(5) 0.14(3) 0.58(11) 0.20(5) 0.33(7) 0.12(4)
C41B 0.095(15) 0.045(9) 0.060(11) -0.019(8) 0.022(11) 0.013(10)

_geom_special_details            
;
 All esds (except the esd in the dihedral angle between two l.s. planes)
 are estimated using the full covariance matrix.  The cell esds are taken
 into account individually in the estimation of esds in distances, angles
 and torsion angles; correlations between esds in cell parameters are only
 used when they are defined by crystal symmetry.  An approximate (isotropic)
 treatment of cell esds is used for estimating esds involving l.s. planes.
;

loop_
_geom_bond_atom_site_label_1
_geom_bond_atom_site_label_2
_geom_bond_distance
_geom_bond_site_symmetry_2
_geom_bond_publ_flag
Ag1 N14 2.224(6) 18_546 ?
Ag1 N21 2.277(5) . ?
Ag1 N24 2.390(6) 6 ?
Ag1 N11 2.466(6) . ?
C1 C12 1.485(10) . ?
C1 C22 1.513(9) . ?
C1 H1A 0.9900 . ?
C1 H1B 0.9900 . ?
N11 C12 1.316(9) . ?
N11 C16 1.335(11) . ?
C12 C13 1.411(10) . ?
C13 N14 1.336(10) . ?
C13 H13 0.9500 . ?
N14 C15 1.328(10) . ?
N14 Ag1 2.224(6) 17_556 ?
C15 C16 1.387(12) . ?
C15 H15 0.9500 . ?
C16 H16 0.9500 . ?
N21 C26 1.320(9) . ?
N21 C22 1.326(8) . ?
C22 C23 1.403(9) . ?
C23 N24 1.325(9) . ?
C23 H23 0.9500 . ?
N24 C25 1.336(9) . ?
N24 Ag1 2.389(6) 8_544 ?
C25 C26 1.377(11) . ?
C25 H25 0.9500 . ?
C26 H26 0.9500 . ?
P30 F35 1.475(6) . ?
P30 F34 1.522(7) . ?
P30 F37 1.568(7) . ?
P30 F36 1.579(5) . ?
P30 F33 1.585(6) . ?
P30 F32 1.634(8) . ?
C47 C41A 1.46(4) . ?
C47 H47A 0.9800 . ?
C47 H47B 0.9800 . ?
C47 H47C 0.9800 . ?
C41A C42 1.34(3) . ?
C41A C43 1.39(3) 10_656 ?
C42 C43 1.26(3) . ?
C42 H42 0.9500 . ?
C43 C41B 1.39(3) 10_656 ?
C43 C41A 1.39(3) 10_656 ?
C43 H43 0.9500 . ?
C51 C52 1.3900 . ?
C51 C56 1.3900 . ?
C51 C57 1.5017 . ?
C52 C53 1.3900 . ?
C52 H52 0.9500 . ?
C53 C54 1.3900 . ?
C53 H53 0.9500 . ?
C54 C55 1.3900 . ?
C54 H54 0.9500 . ?
C55 C56 1.3900 . ?
C55 H55 0.9500 . ?
C56 H56 0.9500 . ?
C57 H57A 0.9801 . ?
C57 H57B 0.9799 . ?
C57 H57C 0.9802 . ?

loop_
_geom_angle_atom_site_label_1
_geom_angle_atom_site_label_2
_geom_angle_atom_site_label_3
_geom_angle
_geom_angle_site_symmetry_1
_geom_angle_site_symmetry_3
_geom_angle_publ_flag
N14 Ag1 N21 148.8(2) 18_546 . ?
N14 Ag1 N24 107.1(2) 18_546 6 ?
N21 Ag1 N24 101.0(2) . 6 ?
N14 Ag1 N11 107.6(2) 18_546 . ?
N21 Ag1 N11 82.40(19) . . ?
N24 Ag1 N11 95.5(2) 6 . ?
C12 C1 C22 111.6(6) . . ?
C12 C1 H1A 109.3 . . ?
C22 C1 H1A 109.3 . . ?
C12 C1 H1B 109.3 . . ?
C22 C1 H1B 109.3 . . ?
H1A C1 H1B 108.0 . . ?
C12 N11 C16 118.0(7) . . ?
C12 N11 Ag1 116.1(5) . . ?
C16 N11 Ag1 125.5(5) . . ?
N11 C12 C13 120.2(7) . . ?
N11 C12 C1 118.8(7) . . ?
C13 C12 C1 121.0(6) . . ?
N14 C13 C12 122.2(6) . . ?
N14 C13 H13 118.9 . . ?
C12 C13 H13 118.9 . . ?
C15 N14 C13 116.3(7) . . ?
C15 N14 Ag1 126.6(5) . 17_556 ?
C13 N14 Ag1 117.1(5) . 17_556 ?
N14 C15 C16 121.8(8) . . ?
N14 C15 H15 119.1 . . ?
C16 C15 H15 119.1 . . ?
N11 C16 C15 121.5(8) . . ?
N11 C16 H16 119.2 . . ?
C15 C16 H16 119.2 . . ?
C26 N21 C22 117.7(6) . . ?
C26 N21 Ag1 121.7(5) . . ?
C22 N21 Ag1 120.1(4) . . ?
N21 C22 C23 120.0(6) . . ?
N21 C22 C1 118.4(6) . . ?
C23 C22 C1 121.6(6) . . ?
N24 C23 C22 122.0(6) . . ?
N24 C23 H23 119.0 . . ?
C22 C23 H23 119.0 . . ?
C23 N24 C25 117.1(6) . . ?
C23 N24 Ag1 125.5(5) . 8_544 ?
C25 N24 Ag1 117.3(5) . 8_544 ?
N24 C25 C26 120.6(7) . . ?
N24 C25 H25 119.7 . . ?
C26 C25 H25 119.7 . . ?
N21 C26 C25 122.6(7) . . ?
N21 C26 H26 118.7 . . ?
C25 C26 H26 118.7 . . ?
F35 P30 F34 105.5(7) . . ?
F35 P30 F37 87.6(6) . . ?
F34 P30 F37 166.8(6) . . ?
F35 P30 F36 93.2(4) . . ?
F34 P30 F36 90.0(4) . . ?
F37 P30 F36 91.4(3) . . ?
F35 P30 F33 89.8(4) . . ?
F34 P30 F33 90.7(4) . . ?
F37 P30 F33 87.2(4) . . ?
F36 P30 F33 176.6(4) . . ?
F35 P30 F32 170.9(7) . . ?
F34 P30 F32 83.6(6) . . ?
F37 P30 F32 83.3(5) . . ?
F36 P30 F32 86.6(4) . . ?
F33 P30 F32 90.2(4) . . ?
C41A C47 H47A 109.5 . . ?
C41A C47 H47B 109.5 . . ?
H47A C47 H47B 109.5 . . ?
C41A C47 H47C 109.5 . . ?
H47A C47 H47C 109.5 . . ?
H47B C47 H47C 109.5 . . ?
C42 C41A C43 119.2(18) . 10_656 ?
C42 C41A C47 112(3) . . ?
C43 C41A C47 129(3) 10_656 . ?
C43 C42 C41A 117(2) . . ?
C43 C42 H42 121.3 . . ?
C41A C42 H42 121.3 . . ?
C42 C43 C41B 123(2) . 10_656 ?
C42 C43 C41A 123(2) . 10_656 ?
C42 C43 H43 118.3 . . ?
C41B C43 H43 118.3 10_656 . ?
C41A C43 H43 118.3 10_656 . ?
C52 C51 C56 120.0 . . ?
C52 C51 C57 115.9 . . ?
C56 C51 C57 124.1 . . ?
C51 C52 C53 120.0 . . ?
C51 C52 H52 120.0 . . ?
C53 C52 H52 120.0 . . ?
C54 C53 C52 120.0 . . ?
C54 C53 H53 120.0 . . ?
C52 C53 H53 120.0 . . ?
C55 C54 C53 120.0 . . ?
C55 C54 H54 120.0 . . ?
C53 C54 H54 120.0 . . ?
C54 C55 C56 120.0 . . ?
C54 C55 H55 120.0 . . ?
C56 C55 H55 120.0 . . ?
C55 C56 C51 120.0 . . ?
C55 C56 H56 120.0 . . ?
C51 C56 H56 120.0 . . ?
C51 C57 H57A 109.5 . . ?
C51 C57 H57B 109.5 . . ?
H57A C57 H57B 109.5 . . ?
C51 C57 H57C 109.5 . . ?
H57A C57 H57C 109.4 . . ?
H57B C57 H57C 109.4 . . ?

loop_
_geom_torsion_atom_site_label_1
_geom_torsion_atom_site_label_2
_geom_torsion_atom_site_label_3
_geom_torsion_atom_site_label_4
_geom_torsion
_geom_torsion_site_symmetry_1
_geom_torsion_site_symmetry_2
_geom_torsion_site_symmetry_3
_geom_torsion_site_symmetry_4
_geom_torsion_publ_flag
C16 N11 C12 C13 -0.3(11) . . . . ?
Ag1 N11 C12 C13 172.3(5) . . . . ?
C16 N11 C12 C1 178.2(7) . . . . ?
Ag1 N11 C12 C1 -9.2(8) . . . . ?
C22 C1 C12 N11 71.7(8) . . . . ?
C22 C1 C12 C13 -109.9(7) . . . . ?
N11 C12 C13 N14 2.1(11) . . . . ?
C1 C12 C13 N14 -176.4(6) . . . . ?
C12 C13 N14 C15 -3.0(11) . . . . ?
C12 C13 N14 Ag1 176.0(5) . . . 17_556 ?
C13 N14 C15 C16 2.4(13) . . . . ?
Ag1 N14 C15 C16 -176.6(7) 17_556 . . . ?
C12 N11 C16 C15 -0.4(14) . . . . ?
Ag1 N11 C16 C15 -172.2(7) . . . . ?
N14 C15 C16 N11 -0.7(16) . . . . ?
C26 N21 C22 C23 -0.3(10) . . . . ?
Ag1 N21 C22 C23 -172.6(5) . . . . ?
C26 N21 C22 C1 179.7(6) . . . . ?
Ag1 N21 C22 C1 7.4(8) . . . . ?
C12 C1 C22 N21 -72.7(8) . . . . ?
C12 C1 C22 C23 107.3(7) . . . . ?
N21 C22 C23 N24 -1.9(11) . . . . ?
C1 C22 C23 N24 178.1(7) . . . . ?
C22 C23 N24 C25 3.5(11) . . . . ?
C22 C23 N24 Ag1 -180.0(5) . . . 8_544 ?
C23 N24 C25 C26 -3.0(13) . . . . ?
Ag1 N24 C25 C26 -179.8(7) 8_544 . . . ?
C22 N21 C26 C25 0.8(12) . . . . ?
Ag1 N21 C26 C25 172.9(7) . . . . ?
N24 C25 C26 N21 0.9(14) . . . . ?
C43 C41A C42 C43 -4(3) 10_656 . . . ?
C47 C41A C42 C43 178(2) . . . . ?
C41A C42 C43 C41B 5(3) . . . 10_656 ?
C41A C42 C43 C41A 5(3) . . . 10_656 ?
C56 C51 C52 C53 0.0 . . . . ?
C57 C51 C52 C53 -177.9 . . . . ?
C51 C52 C53 C54 0.0 . . . . ?
C52 C53 C54 C55 0.0 . . . . ?
C53 C54 C55 C56 0.0 . . . . ?
C54 C55 C56 C51 0.0 . . . . ?
C52 C51 C56 C55 0.0 . . . . ?
C57 C51 C56 C55 177.7 . . . . ?

_refine_diff_density_max         1.092
_refine_diff_density_min         -0.770
_refine_diff_density_rms         0.140

_shelxl_version_number           2013-4

_shelx_res_file                  
;
REM R-3 (#148 in standard setting)
REM  WBx95 in R-3
REM R1 =  0.1021 for   3192 Fo > 4sig(Fo)  and  0.1693 for all   5827 data
REM    280 parameters refined using      0 restraints
REM Highest difference peak  1.282,  deepest hole -0.840,  1-sigma level  0.163
REM  WBx95 in R-3
REM R1 =  0.0976 for   3192 Fo > 4sig(Fo)  and  0.1652 for all   5827 data
REM    280 parameters refined using      0 restraints
REM Highest difference peak  1.193,  deepest hole -0.799,  1-sigma level  0.149
REM  WBx95 in R-3
REM R1 =  0.1004 for   3192 Fo > 4sig(Fo)  and  0.1674 for all   5827 data
REM    221 parameters refined using      0 restraints
REM Highest difference peak  1.142,  deepest hole -0.872,  1-sigma level  0.163
REM  WBx95 in R-3
REM R1 =  0.0993 for   3192 Fo > 4sig(Fo)  and  0.1665 for all   5827 data
REM    239 parameters refined using      0 restraints
REM Highest difference peak  1.133,  deepest hole -0.872,  1-sigma level  0.162
REM  WBx95 in R-3
REM R1 =  0.0992 for   3192 Fo > 4sig(Fo)  and  0.1664 for all   5827 data
REM    239 parameters refined using      0 restraints
REM Highest difference peak  1.129,  deepest hole -0.873,  1-sigma level  0.161
REM  WBx95 in R-3
REM R1 =  0.0921 for   3234 Fo > 4sig(Fo)  and  0.1498 for all   5827 data
REM    239 parameters refined using      0 restraints
REM Highest difference peak  1.127,  deepest hole -0.716,  1-sigma level  0.144
REM  WBx95 in R-3
REM R1 =  0.0910 for    3234 Fo > 4sig(Fo)  and  0.1492 for all    5827 data
REM    270 parameters refined using      0 restraints
REM Highest difference peak  1.092,  deepest hole -0.770,  1-sigma level  0.140
REM  WBx95 in R-3
REM R1 =  0.0910 for    3234 Fo > 4sig(Fo)  and  0.1492 for all    5827 data
REM    270 parameters refined using      0 restraints
REM Highest difference peak  1.092,  deepest hole -0.770,  1-sigma level  0.140
TITL WBx95 in R-3
CELL 0.71073 29.4645 29.4645 14.2632 90.000 90.000 120.000
ZERR 18.0000 0.0009 0.0009 0.0006 0.000 0.000 0.000
LATT 3
SYMM -Y, X-Y, Z
SYMM -X+Y, -X, Z
SFAC C H N F P AG
UNIT 256.5 252 72 108 18 18
MERG 2
FMAP 2
GRID
PLAN 20
TEMP -123
BOND $H
CONF
DFIX -1.45 0.02 C51 C57
EXYZ C41A C41B
EADP C41A C41B
L.S. 20
ACTA 54
WGHT    0.142500   43.585003
FVAR       1.02406
AG1   6    0.462082    0.070371    0.748352    11.00000    0.05943    0.06640 =
         0.07129    0.01411   -0.00204    0.04210
C1    1    0.449134    0.164253    0.655297    11.00000    0.04631    0.03470 =
         0.04490    0.00225   -0.00887    0.01364
AFIX  23
H1A   2    0.483441    0.166333    0.646289    11.00000   -1.20000
H1B   2    0.449910    0.193855    0.621038    11.00000   -1.20000
AFIX   0
N11   3    0.448448    0.139502    0.816750    11.00000    0.06869    0.05470 =
         0.05105    0.00288   -0.00791    0.03614
C12   1    0.440896    0.169010    0.756736    11.00000    0.03550    0.03646 =
         0.05357    0.00038   -0.01532    0.01380
C13   1    0.426473    0.205283    0.789072    11.00000    0.04534    0.03824 =
         0.05803   -0.00344   -0.01994    0.01786
AFIX  43
H13   2    0.420068    0.225399    0.744525    11.00000   -1.20000
AFIX   0
N14   3    0.421517    0.212302    0.880206    11.00000    0.05963    0.04248 =
         0.05518   -0.00371   -0.01596    0.02729
C15   1    0.428555    0.181435    0.939094    11.00000    0.08359    0.06749 =
         0.04509   -0.00380   -0.00844    0.04154
AFIX  43
H15   2    0.424099    0.184178    1.004418    11.00000   -1.20000
AFIX   0
C16   1    0.442234    0.145308    0.907809    11.00000    0.12134    0.07302 =
         0.06647    0.00387   -0.02033    0.06723
AFIX  43
H16   2    0.447296    0.124213    0.952218    11.00000   -1.20000
AFIX   0
N21   3    0.405772    0.069230    0.637790    11.00000    0.05054    0.03162 =
         0.04159    0.00235   -0.00034    0.02107
C22   1    0.406275    0.113124    0.615163    11.00000    0.04744    0.03750 =
         0.04096    0.00186    0.00150    0.02699
C23   1    0.367675    0.111395    0.555303    11.00000    0.05492    0.04189 =
         0.04072    0.00126   -0.00662    0.02622
AFIX  43
H23   2    0.367926    0.143032    0.541216    11.00000   -1.20000
AFIX   0
N24   3    0.330868    0.066975    0.517799    11.00000    0.06226    0.03346 =
         0.05403   -0.00655   -0.01211    0.01685
C25   1    0.330226    0.023031    0.543345    11.00000    0.08018    0.03827 =
         0.06957   -0.01816   -0.03174    0.02724
AFIX  43
H25   2    0.303450   -0.009814    0.520409    11.00000   -1.20000
AFIX   0
C26   1    0.368010    0.024913    0.602596    11.00000    0.07867    0.04191 =
         0.05852    0.00015   -0.00129    0.03615
AFIX  43
H26   2    0.366861   -0.006921    0.618784    11.00000   -1.20000
AFIX   0
P30   5    0.461963    0.066180    1.137862    11.00000    0.04234    0.06626 =
         0.05170    0.01579    0.00362    0.02456
F32   4    0.481560    0.039245    1.059515    11.00000    0.08671    0.23650 =
         0.11381   -0.06498   -0.00220    0.05647
F33   4    0.410334    0.049473    1.079005    11.00000    0.06183    0.14677 =
         0.09484    0.03848   -0.02028    0.03008
F34   4    0.492218    0.114896    1.077553    11.00000    0.10863    0.15522 =
         0.22079    0.12099   -0.04549    0.00209
F35   4    0.440230    0.082260    1.215840    11.00000    0.11508    0.31657 =
         0.16111   -0.14045   -0.05010    0.15650
F36   4    0.513815    0.080367    1.193176    11.00000    0.05504    0.11977 =
         0.07108    0.00281    0.00005    0.04727
F37   4    0.433149    0.009569    1.180600    11.00000    0.07551    0.08604 =
         0.19846    0.03752    0.00088    0.03833
PART 1
C47   1    0.432062   -0.060044    0.642022    10.25000    0.07666    0.07693 =
         0.05909   -0.00693   -0.00829    0.04881
AFIX 137
H47A  2    0.415129   -0.041858    0.669806    10.25000   -1.50000
H47B  2    0.453385   -0.064687    0.689625    10.25000   -1.50000
H47C  2    0.405212   -0.094407    0.618729    10.25000   -1.50000
AFIX   0
C41A  1    0.465509   -0.029036    0.564441    10.25000    0.09536    0.04476 =
         0.05970   -0.01933    0.02181    0.01263
PART 0
C42   1    0.516248   -0.011535    0.582020    10.50000    0.16752    0.06272 =
         0.09517   -0.03534   -0.06349    0.07265
AFIX  43
H42   2    0.527393   -0.018603    0.639957    10.50000   -1.20000
AFIX   0
C43   1    0.548529    0.014620    0.518773    10.50000    0.08567    0.11037 =
         0.08595   -0.06355   -0.04720    0.07316
AFIX  43
H43   2    0.584361    0.025089    0.528272    10.50000   -1.20000
AFIX  66
C51   1    0.542163    0.236177    0.462873    10.50000    0.15741    0.15680 =
         0.16017    0.09497    0.06511    0.12682
C52   1    0.507584    0.188604    0.420960    10.50000    0.21343    0.13427 =
         0.09431   -0.00236    0.07535    0.05989
AFIX  43
H52   2    0.482118    0.186592    0.377716    10.50000   -1.20000
AFIX  65
C53   1    0.510267    0.143975    0.442319    10.50000    0.49541    0.19713 =
         0.09987    0.07871    0.16566    0.25987
AFIX  43
H53   2    0.486633    0.111462    0.413673    10.50000   -1.20000
AFIX  65
C54   1    0.547528    0.146920    0.505591    10.50000    0.38573    0.17458 =
         0.08232   -0.01882    0.01107    0.19057
AFIX  43
H54   2    0.549362    0.116418    0.520189    10.50000   -1.20000
AFIX  65
C55   1    0.582107    0.194492    0.547505    10.50000    0.10441    0.13840 =
         0.17692    0.05228    0.02336    0.07135
AFIX  43
H55   2    0.607574    0.196504    0.590748    10.50000   -1.20000
AFIX  65
C56   1    0.579425    0.239121    0.526147    10.50000    0.24522    0.14348 =
         0.57782    0.20368    0.33022    0.11599
AFIX  43
H56   2    0.603059    0.271634    0.554793    10.50000   -1.20000
AFIX   5
C57   1    0.534816    0.281582    0.437725    10.50000    0.44212
AFIX   3
H57A  2    0.558687    0.312232    0.475184    10.50000   -1.50000
H57B  2    0.498546    0.272434    0.450565    10.50000   -1.50000
H57C  2    0.542406    0.289751    0.370965    10.50000   -1.50000
PART 2
AFIX   0
C41B  1    0.465509   -0.029036    0.564441    10.25000    0.09536    0.04476 =
         0.05970   -0.01933    0.02181    0.01263
AFIX  43
H41B  2    0.439425   -0.051019    0.608231    10.25000   -1.20000
AFIX   0
HKLF 4

REM  WBx95 in R-3
REM R1 =  0.0910 for    3234 Fo > 4sig(Fo)  and  0.1492 for all    5827 data
REM    270 parameters refined using      0 restraints

END

WGHT      0.1425     43.6036

REM Highest difference peak  1.092,  deepest hole -0.770,  1-sigma level  0.140
Q1    1   0.4708  0.1276  1.1325  11.00000  0.05    1.09
Q2    1   0.4804  0.0751  1.0396  11.00000  0.05    1.04
Q3    1   0.4651  0.0819  0.8167  11.00000  0.05    0.96
Q4    1   0.4333  0.0382  1.2313  11.00000  0.05    0.72
Q5    1   0.5242 -0.0232  0.5283  11.00000  0.05    0.69
Q6    1   0.5098  0.1640  0.4444  11.00000  0.05    0.62
Q7    1   0.6667  0.3333  0.5755  10.33333  0.05    0.61
Q8    1   0.4346  0.0142  1.1039  11.00000  0.05    0.60
Q9    1   0.5249  0.1879  0.4578  11.00000  0.05    0.59
Q10   1   0.4398 -0.0355  0.5438  11.00000  0.05    0.56
Q11   1   0.5645  0.2622  0.5325  11.00000  0.05    0.56
Q12   1   0.4673 -0.0605  0.5438  11.00000  0.05    0.55
Q13   1   0.4755 -0.0063  0.5243  11.00000  0.05    0.54
Q14   1   0.4153  0.0796  1.1186  11.00000  0.05    0.52
Q15   1   0.5416  0.1526  0.4252  11.00000  0.05    0.51
Q16   1   0.4675  0.0224  1.1436  11.00000  0.05    0.50
Q17   1   0.5535  0.1710  0.5033  11.00000  0.05    0.49
Q18   1   0.5164  0.2193  0.4513  11.00000  0.05    0.47
Q19   1   0.5877  0.2406  0.4202  11.00000  0.05    0.43
Q20   1   0.4296  0.0468  0.7216  11.00000  0.05    0.42
;
_shelx_res_checksum              96929

_shelx_hkl_file                  
;
   0   0   3  787045   10721                                                      813300  -13.63    0.03  1.0000
   0   0   3  817248   10321                                                      843998  -13.63    0.03  1.0000
   0   0  -3  840455   10796                                                      867580  -13.63   -0.03  1.0000
   0   0  -3  785328   10239                                                      811555  -13.63   -0.03  1.0000
   0   0   6  410831   10873                                                      413579   -1.99    0.09  1.0000
   0   0   6  447421   10740                                                      450288   -1.99    0.09  1.0000
   0   0  -6  410092   10096                                                      412844   -1.99   -0.09  1.0000
   0   0   9     121     494                                                         164   -1.70    0.04  1.0000
   0   0  -9       3     445                                                        -579   -1.70   -0.04  1.0000
   0   0  -9     650     500                                                         746   -1.70   -0.04  1.0000
   0   0 -12    6839    1951                                                        7471    3.47    0.07  1.0000
   0   0 -12   14246    2268                                                       15152    3.47    0.07  1.0000
   0   0  12    7204    2321                                                        7851    3.47   -0.07  1.0000
   0   0  15    4242    2019                                                        4840    4.13    0.00  1.0000
   0   0 -15    7351    2529                                                        8132    4.13    0.00  1.0000
   0   0  18    5480    2577                                                        5400    0.51   -0.03  1.0000
   1  -1  17       1     781                                                        -535    1.11   -0.04  1.0000
  -1   0  17     646     847                                                         708    1.09    0.14  1.0000
   0   1  17    1771    1231                                                        1876    1.15   -0.08  1.0000
   1   0 -17    1524    1120                                                        1617    1.09   -0.14  1.0000
   1  -1  14    1073    1102                                                         974   -1.43   -0.10  1.0000
   0  -1 -14       2     600                                                        -677   -1.41    0.10  1.0000
   0   1  14     388     875                                                         330   -1.41   -0.10  1.0000
   1   0 -14       2     933                                                       -1015   -1.46   -0.04  1.0000
  -1   0  14       2     642                                                        -370   -1.46    0.04  1.0000
  -1   1 -14    2611    1212                                                        2458   -1.43    0.10  1.0000
  -1   0  11    1713    1064                                                        1906   -2.11   -0.04  1.0000
   1   0 -11    7561    1757                                                        7959   -2.11    0.04  1.0000
   0  -1 -11    2083     808                                                        2294   -2.09   -0.10  1.0000
   1   0 -11    3462    1350                                                        3734   -2.11    0.04  1.0000
   0  -1 -11    3730    1163                                                        4010   -2.09   -0.10  1.0000
   1  -1  11    2116    1306                                                        2324   -2.06    0.03  1.0000
   0   1  11    1673    1177                                                        1861   -2.09    0.10  1.0000
  -1   1 -11     948     758                                                        1089   -2.06   -0.03  1.0000
  -1   1 -11    4074    1219                                                        4361   -2.06   -0.03  1.0000
  -1   1  -8   16566    2364                                                       16829   -0.94   -0.06  1.0000
  -1   1  -8   31315    2385                                                       31676   -0.94   -0.06  1.0000
   0   1   8   14407    2416                                                       14660   -0.98    0.15  1.0000
  -1   0   8   13707    2368                                                       13953   -0.97   -0.10  1.0000
   0  -1  -8   16068    2413                                                       16338   -0.98   -0.15  1.0000
   1  -1   8   15665    2522                                                       15919   -0.94    0.06  1.0000
   1   0  -8   14884    2309                                                       15138   -0.97    0.10  1.0000
   0  -1  -5    7863    1406                                                        8132    1.39    0.06  1.0000
   1  -1   5    8025    1384                                                        8315    1.49    0.07  1.0000
   0   1   5    9869    1570                                                       10169    1.39   -0.06  1.0000
   1  -1   5    8668    1372                                                        8970    1.49    0.07  1.0000
   0  -1  -5   10556    1637                                                       10867    1.39    0.06  1.0000
   0   1   5    9014    1505                                                        9301    1.39   -0.06  1.0000
  -1   0   5   10601    1590                                                       10912    1.40   -0.02  1.0000
  -1   1  -5   10373    1434                                                       10701    1.49   -0.07  1.0000
  -1   1  -5   10064    1547                                                       10388    1.49   -0.07  1.0000
  -1   0   5   10498    1677                                                       10808    1.40   -0.02  1.0000
   1   0  -5    8295    1406                                                        8571    1.40    0.02  1.0000
   1   0  -5   10102    1592                                                       10406    1.40    0.02  1.0000
  -1   1  -2    4576    1247                                                       18982   65.25    0.06  1.0000
  -1   0   2    4913    1351                                                       19614   65.09    0.04  1.0000
   1   0  -2    5057    1415                                                       19900   65.09   -0.04  1.0000
   1  -1   2    4579    1244                                                       18986   65.25   -0.06  1.0000
   0   1   2    4170    1340                                                       18119   65.17   -0.21  1.0000
   0  -1  -2    5337    1431                                                       20480   65.17    0.21  1.0000
   1   0  -2    4740    1294                                                       19266   65.09   -0.04  1.0000
   0  -1  -2    4734    1373                                                       19281   65.17    0.21  1.0000
   1  -1   2    5086    1170                                                       20006   65.25   -0.06  1.0000
  -1   0   2    4618    1375                                                       19020   65.09    0.04  1.0000
   0   1   2    4629    1381                                                       19063   65.17   -0.21  1.0000
  -1   1  -2    4854    1116                                                       19544   65.25    0.06  1.0000
   0   1  -4   27967    1763                                                       28355   -1.07    0.00  1.0000
   1  -1  -4   30396    2463                                                       30802   -1.08   -0.11  1.0000
   0  -1   4   26741    2233                                                       27121   -1.07    0.00  1.0000
   0   1  -4   29465    2343                                                       29863   -1.07    0.00  1.0000
   1   0   4   26934    2234                                                       27311   -1.06   -0.02  1.0000
  -1   0  -4   27163    2129                                                       27540   -1.06    0.02  1.0000
   1   0   4   27962    2203                                                       28346   -1.06   -0.02  1.0000
  -1   0  -4   28690    2280                                                       29078   -1.06    0.02  1.0000
  -1   1   4   28479    2374                                                       28870   -1.08    0.11  1.0000
   1  -1  -4   27433    2284                                                       27819   -1.08   -0.11  1.0000
  -1   1   4   26569    2351                                                       26947   -1.08    0.11  1.0000
   0  -1   4   29569    2161                                                       29967   -1.07    0.00  1.0000
   0   1  -4   25875    2020                                                       26248   -1.07    0.00  1.0000
   1  -1  -7   36906    3460                                                       36279   -1.52   -0.03  1.0000
   0   1  -7   41098    2682                                                       40433   -1.53   -0.01  1.0000
   0   1  -7   34798    3135                                                       34186   -1.53   -0.01  1.0000
   0  -1   7   37228    3541                                                       36596   -1.53    0.01  1.0000
  -1   0  -7   38716    3408                                                       38096   -1.47    0.02  1.0000
  -1   1   7   35235    3501                                                       34624   -1.52    0.03  1.0000
   1   0   7   35418    3442                                                       34826   -1.47   -0.02  1.0000
   1  -1 -10   13996    2600                                                       14446    1.75    0.05  1.0000
   0   1 -10   12626    2313                                                       13051    1.74    0.06  1.0000
  -1   0 -10   28473    2554                                                       29116    1.76    0.02  1.0000
  -1   0 -10   13617    2421                                                       14062    1.76    0.02  1.0000
  -1   1  10   13643    2675                                                       14087    1.75   -0.05  1.0000
   1   0  10   13685    2654                                                       14131    1.76   -0.02  1.0000
   0   1 -10   17917    2240                                                       18422    1.74    0.06  1.0000
   0  -1  10   14846    2787                                                       15305    1.74   -0.06  1.0000
  -1   1  13    1271     719                                                        1316   -0.58    0.05  1.0000
   1   0  13     508     587                                                         535   -0.55    0.11  1.0000
   0   1 -13    2768     923                                                        2831   -0.55    0.01  1.0000
   1  -1 -13    2253    1359                                                        2312   -0.58   -0.05  1.0000
  -1   0 -13    2521    1031                                                        2581   -0.55   -0.11  1.0000
   0  -1  13    2985    1504                                                        3051   -0.55   -0.01  1.0000
   1  -1 -13    7107    1726                                                        7212   -0.58   -0.05  1.0000
   0   1 -13     844     860                                                         879   -0.55    0.01  1.0000
  -1   0 -13    1878    1030                                                        1930   -0.55   -0.11  1.0000
   1  -1 -16       6    1058                                                        -434   -2.21    0.01  1.0000
  -1   1  16     654     648                                                         782   -2.21   -0.01  1.0000
   1   0  16     433    1116                                                         536   -2.18    0.01  1.0000
   0   1 -16       5    1173                                                       -1508   -2.15   -0.02  1.0000
  -1   0 -16     832    1144                                                         973   -2.18   -0.01  1.0000
   0  -1  16       5    1395                                                       -1440   -2.15    0.02  1.0000
  -2   1  18       1    1165                                                        -739    0.97   -0.17  1.0000
   1   1  18    1506    1330                                                        1588    0.96    0.11  1.0000
   1  -2  18       1    1475                                                        -660    1.03   -0.05  1.0000
   1   1  15    7422    2475                                                        6895    2.89    0.05  1.0000
  -1   2 -15    7648    2112                                                        7097    2.98   -0.02  1.0000
  -2   1  15   10279    3180                                                        9623    3.06    0.02  1.0000
   2  -1 -15    6891    2186                                                        6356    3.06   -0.02  1.0000
   1  -2  15    6983    2346                                                        6457    2.98    0.02  1.0000
  -1  -1 -15    8908    2511                                                        8331    2.89   -0.05  1.0000
  -1   2 -12     531     654                                                         654    2.35   -0.01  1.0000
  -1  -1 -12     468     776                                                         580    2.28    0.09  1.0000
  -1  -1 -12    8391    1656                                                        8846    2.28    0.09  1.0000
   1  -2  12     711     822                                                         852    2.35    0.01  1.0000
   2  -1 -12    8295    1917                                                        8763    2.36   -0.04  1.0000
   1   1  12    1708    1164                                                        1917    2.28   -0.09  1.0000
  -1   2 -12     320     554                                                         417    2.35   -0.01  1.0000
   2  -1 -12    1020     999                                                        1188    2.36   -0.04  1.0000
  -2   1  12    1353     971                                                        1546    2.36    0.04  1.0000
   1  -2   9   55983    4901                                                       55385   -1.18    0.03  1.0000
  -1   2  -9   59955    3611                                                       59336   -1.18   -0.03  1.0000
  -1  -1  -9   53739    4613                                                       53183   -1.12    0.12  1.0000
  -2   1   9   53452    5003                                                       52880   -1.16    0.16  1.0000
   2  -1  -9   55303    4695                                                       54717   -1.16   -0.16  1.0000
   1   1   9   53908    4930                                                       53348   -1.12   -0.12  1.0000
  -1   2  -9   50787    4188                                                       50217   -1.18   -0.03  1.0000
  -2   1   6   31150    3102                                                       30402   -1.98    0.13  1.0000
  -1   2  -6   33630    2177                                                       32808   -2.10   -0.01  1.0000
   2  -1  -6   29763    2860                                                       29029   -1.98   -0.13  1.0000
  -1   2  -6   32984    2614                                                       32170   -2.10   -0.01  1.0000
   1   1   6   32772    3026                                                       31994   -2.01    0.02  1.0000
   1  -2   6   29623    2851                                                       28852   -2.10    0.01  1.0000
   1  -2   6   34768    2795                                                       33932   -2.10    0.01  1.0000
  -1  -1  -6   29720    2845                                                       28978   -2.01   -0.02  1.0000
  -1   2  -3   25734    1899                                                       28792   -8.64    0.17  1.0000
   1  -2   3   22987    1834                                                       25889   -8.64   -0.17  1.0000
  -1  -1  -3   25474    2008                                                       28527   -8.65   -0.10  1.0000
   1  -2   3   26072    1645                                                       29158   -8.64   -0.17  1.0000
   2  -1  -3   24529    2080                                                       27493   -8.55   -0.16  1.0000
  -2   1   3   26586    2138                                                       29659   -8.55    0.16  1.0000
   1  -2   3   21593    1337                                                       24409   -8.64   -0.17  1.0000
   1   1   3   23066    1934                                                       25971   -8.65    0.10  1.0000
   2  -1  -3   23557    1985                                                       26463   -8.55   -0.16  1.0000
   1   1   3   28248    2203                                                       31453   -8.65    0.10  1.0000
  -1   2  -3   24599    1589                                                       27590   -8.64    0.17  1.0000
  -2   1   3   22614    1991                                                       25455   -8.55    0.16  1.0000
  -1  -1  -3   24308    1975                                                       27293   -8.65   -0.10  1.0000
  -1   2  -3   24794    1474                                                       27797   -8.64    0.17  1.0000
  -2   1  -3  124230    3605                                                      116897   -9.81   -0.08  1.0000
   1   1  -3  135313    4377                                                      127684   -9.78    0.02  1.0000
  -1  -1   3  123796    4156                                                      116503   -9.78   -0.02  1.0000
   1  -2  -3  131180    4483                                                      123749   -9.67   -0.03  1.0000
  -2   1  -3  133763    3910                                                      126150   -9.81   -0.08  1.0000
   2  -1   3  130095    3820                                                      122592   -9.81    0.08  1.0000
  -1  -1   3  129197    3916                                                      121744   -9.78   -0.02  1.0000
   1   1  -3  131670    3771                                                      124146   -9.78    0.02  1.0000
  -1   2   3  133565    4449                                                      126067   -9.67    0.03  1.0000
   2  -1   3  130096    3859                                                      122593   -9.81    0.08  1.0000
  -1   2   3  124458    4305                                                      117224   -9.67    0.03  1.0000
   1   1  -3  120294    3427                                                      113107   -9.78    0.02  1.0000
   1  -2  -3  120878    4360                                                      113749   -9.67   -0.03  1.0000
   1  -2  -6   19790    2343                                                       19358   -1.43   -0.12  1.0000
   1   1  -6   20103    1827                                                       19636   -1.54   -0.10  1.0000
  -1  -1   6   21243    2255                                                       20764   -1.54    0.10  1.0000
   2  -1   6   22386    2333                                                       21877   -1.59   -0.07  1.0000
  -1  -1   6   19176    2363                                                       18720   -1.54    0.10  1.0000
   2  -1   6   20105    2301                                                       19622   -1.59   -0.07  1.0000
   1   1  -6   18888    2064                                                       18435   -1.54   -0.10  1.0000
  -1   2   6   18929    2380                                                       18508   -1.43    0.12  1.0000
  -2   1  -6   18688    2107                                                       18224   -1.59    0.07  1.0000
   1   1  -9   36523    3066                                                       37001   -1.15   -0.17  1.0000
  -2   1  -9   27801    3197                                                       28241   -1.22    0.03  1.0000
  -2   1  -9   35739    2519                                                       36238   -1.22    0.03  1.0000
  -1   2   9   29678    3784                                                       30126   -1.20   -0.07  1.0000
   1   1  -9   30829    3342                                                       31268   -1.15   -0.17  1.0000
   2  -1   9   30515    3658                                                       30976   -1.22   -0.03  1.0000
   1  -2  -9   28478    3551                                                       28916   -1.20    0.07  1.0000
  -1  -1   9   29172    3719                                                       29595   -1.15    0.17  1.0000
   1  -2 -12    3418    1221                                                        3038    3.10    0.18  1.0000
  -1   2  12    6612    1992                                                        6081    3.10   -0.18  1.0000
   2  -1  12    3816    1426                                                        3422    3.04    0.00  1.0000
  -2   1 -12    4230     991                                                        3815    3.04    0.00  1.0000
  -1  -1  12    5298    1717                                                        4807    3.21    0.09  1.0000
  -2   1 -12    5686    1585                                                        5204    3.04    0.00  1.0000
   1   1 -12    7088    1664                                                        6520    3.21   -0.09  1.0000
   1   1 -12    5880    1759                                                        5363    3.21   -0.09  1.0000
  -2   1 -15    1712    1169                                                        1988    2.99   -0.15  1.0000
   1   1 -15     892    1099                                                        1100    3.06    0.07  1.0000
  -1  -1  15    2965    1802                                                        3335    3.06   -0.07  1.0000
   1  -2 -15     420     851                                                         562    2.99    0.04  1.0000
   2  -1  15     736    1070                                                         921    2.99    0.15  1.0000
  -1   2  15    1746    1310                                                        2025    2.99   -0.04  1.0000
  -1  -1  18    1461    1440                                                        1542    0.99   -0.21  1.0000
  -1   2  18     605    1326                                                         657    0.95    0.16  1.0000
   2  -1  18       1    1376                                                        -283    1.01   -0.01  1.0000
   1  -2 -18     721    1367                                                         776    0.95   -0.16  1.0000
  -2   0  16    1721    1219                                                        1525   -2.27   -0.16  1.0000
   0  -2 -16    4417    1856                                                        4099   -2.26   -0.02  1.0000
   0   2  16    2808    1765                                                        2556   -2.26    0.02  1.0000
   2  -2  16    2621    1468                                                        2380   -2.24   -0.02  1.0000
   2   0 -16     742     935                                                         615   -2.27    0.16  1.0000
  -2   2 -16    3350    1598                                                        3077   -2.24    0.02  1.0000
   2   0 -13       0     879                                                        -172    0.26    0.06  1.0000
  -2   2 -13    1216    1185                                                        1192    0.33   -0.04  1.0000
   0   2  13     346     742                                                         333    0.32    0.09  1.0000
   0  -2 -13     257     489                                                         246    0.32   -0.09  1.0000
   2  -2  13       0    1102                                                        -595    0.33    0.04  1.0000
  -2   0  13       0     472                                                        -396    0.26   -0.06  1.0000
   2   0 -10   47187    3685                                                       46971    0.46    0.00  1.0000
  -2   2 -10   37690    3878                                                       37481    0.50    0.03  1.0000
   2  -2  10   38778    4295                                                       38567    0.50   -0.03  1.0000
   0  -2 -10   39570    4253                                                       39323    0.58   -0.08  1.0000
   0   2  10   34897    4298                                                       34663    0.58    0.08  1.0000
  -2   0  10   39735    4516                                                       39537    0.46    0.00  1.0000
  -2   2 -10   39075    2939                                                       38862    0.50    0.03  1.0000
   2   0 -10   38782    4078                                                       38587    0.46    0.00  1.0000
   2  -2   7     952     627                                                        1103   -2.19   -0.02  1.0000
   2   0  -7    2100     878                                                        2320   -2.18   -0.06  1.0000
   2  -2   7     948     627                                                        1099   -2.19   -0.02  1.0000
  -2   2  -7    4185     977                                                        4496   -2.19    0.02  1.0000
   0  -2  -7    1549     900                                                        1736   -2.14    0.03  1.0000
  -2   0   7    1682     748                                                        1880   -2.18    0.06  1.0000
   0   2   7     679     574                                                         805   -2.14   -0.03  1.0000
  -2   2  -7    1457     673                                                        1643   -2.19    0.02  1.0000
   0   2   4   37390    2803                                                       37846    1.09    0.11  1.0000
  -2   2  -4   33864    1620                                                       34314    1.13    0.08  1.0000
  -2   0   4   34499    2659                                                       34953    1.13   -0.04  1.0000
   2  -2   4   31286    2357                                                       31715    1.13   -0.08  1.0000
  -2   0   4   35533    2617                                                       35993    1.13   -0.04  1.0000
   0  -2  -4   36835    2760                                                       37282    1.09   -0.11  1.0000
   0   2   4   30790    2586                                                       31203    1.09    0.11  1.0000
   0  -2  -4   33351    2570                                                       33776    1.09   -0.11  1.0000
  -2   2  -4   35004    2159                                                       35462    1.13    0.08  1.0000
   2   0  -4   35685    2724                                                       36148    1.13    0.04  1.0000
   2   0  -4   37271    2591                                                       37744    1.13    0.04  1.0000
  -2   2  -4   34189    2423                                                       34642    1.13    0.08  1.0000
   2  -2   4   36913    2305                                                       37379    1.13   -0.08  1.0000
   0  -2   2   95349    2003                                                       67339   45.79    0.44  1.0000
   2  -2  -2   90587    2812                                                       63509   45.50    0.21  1.0000
   2   0   2   92949    2501                                                       65256   45.94   -0.37  1.0000
   0  -2   2   90856    2523                                                       63572   45.79    0.44  1.0000
   0  -2   2   90873    2288                                                       63587   45.79    0.44  1.0000
   0   2  -2   95137    1941                                                       67175   45.79   -0.44  1.0000
  -2   0  -2   89468    2388                                                       62334   45.94    0.37  1.0000
   0   2  -2   98392    2605                                                       69915   45.79   -0.44  1.0000
   2   0   2   92874    2348                                                       65193   45.94   -0.37  1.0000
   2  -2  -2   93791    2801                                                       66196   45.50    0.21  1.0000
  -2   0  -2   91069    2392                                                       63671   45.94    0.37  1.0000
   0   2  -2   95350    2336                                                       67354   45.79   -0.44  1.0000
  -2   2   2   99211    2950                                                       70768   45.50   -0.21  1.0000
  -2   2   2   94322    2742                                                       66649   45.50   -0.21  1.0000
   0  -2   5    1399     467                                                        1225    2.23    0.08  1.0000
   2   0   5    1550     594                                                        1368    2.21    0.10  1.0000
   0   2  -5    2548     836                                                        2312    2.23   -0.08  1.0000
  -2   2   5    1051     359                                                         910    2.11   -0.09  1.0000
  -2   0  -5     855     412                                                         722    2.21   -0.10  1.0000
   2   0   5    1261     670                                                        1097    2.21    0.10  1.0000
   0  -2   5    1803     727                                                        1604    2.23    0.08  1.0000
   0   2  -5    1561     537                                                        1377    2.23   -0.08  1.0000
   2  -2  -5    1909     735                                                        1716    2.11    0.09  1.0000
   2  -2  -5    2021     721                                                        1823    2.11    0.09  1.0000
  -2   0  -5    1525     584                                                        1345    2.21   -0.10  1.0000
  -2   2   5    1616     592                                                        1440    2.11   -0.09  1.0000
   0   2  -5    1991     618                                                        1783    2.23   -0.08  1.0000
   0   2  -8   40317    3454                                                       39915   -0.94    0.09  1.0000
   0   2  -8   51894    3364                                                       51438   -0.94    0.09  1.0000
   2  -2  -8   40162    3907                                                       39795   -0.85    0.01  1.0000
   0  -2   8   41626    4035                                                       41214   -0.94   -0.09  1.0000
  -2   0  -8   44310    3880                                                       43882   -0.94   -0.08  1.0000
  -2   2   8   40200    4109                                                       39832   -0.85   -0.01  1.0000
   2   0   8   38612    3878                                                       38216   -0.94    0.08  1.0000
   2   0  11       5    1129                                                       -1193   -2.02   -0.02  1.0000
   0   2 -11     182     341                                                         250   -2.16    0.07  1.0000
   0   2 -11       5     643                                                        -601   -2.16    0.07  1.0000
   0  -2  11       5     769                                                        -419   -2.16   -0.07  1.0000
  -2   2  11       5     477                                                        -447   -2.09    0.09  1.0000
  -2   0 -11       5     511                                                         -74   -2.02    0.02  1.0000
   2  -2 -11       5     852                                                       -1179   -2.09   -0.09  1.0000
   0  -2  14     986     926                                                        1004   -0.28    0.07  1.0000
   2  -2 -14    3814    1557                                                        3852   -0.28   -0.05  1.0000
   2  -2 -14    1348    1189                                                        1371   -0.28   -0.05  1.0000
  -2   0 -14     390     946                                                         396   -0.18    0.20  1.0000
  -2   2  14    1738    1498                                                        1763   -0.28    0.05  1.0000
   2   0  14       0     872                                                        -289   -0.18   -0.20  1.0000
   0   2 -14    2189    1067                                                        2218   -0.28   -0.07  1.0000
   2  -2 -17       0     913                                                        -593   -0.40   -0.02  1.0000
  -2   2  17     655    1237                                                         677   -0.40    0.02  1.0000
  -2   0 -17    1505    1315                                                        1533   -0.34    0.03  1.0000
   2   0  17       0     637                                                        -298   -0.34   -0.03  1.0000
   0  -2  17    2485    1602                                                        2532   -0.44   -0.01  1.0000
   2   1  16    4928    2166                                                        5014    0.57   -0.05  1.0000
  -2  -1 -16    2944    1915                                                        3011    0.57    0.05  1.0000
  -3   2  16    1053    1454                                                        1088    0.50   -0.13  1.0000
   3  -2 -16    2408    1467                                                        2462    0.50    0.13  1.0000
   1  -3  16    1216    1053                                                        1262    0.60    0.05  1.0000
  -2  -1 -13     493     799                                                         499    0.14    0.03  1.0000
   1  -3  13     316     730                                                         322    0.16   -0.02  1.0000
   3  -2 -13     497     974                                                         502    0.10    0.04  1.0000
  -1   3 -13    1035     853                                                        1045    0.16    0.02  1.0000
  -3   2  13       0    1074                                                       -1138    0.10   -0.04  1.0000
  -1   3 -13     368     609                                                         375    0.16    0.02  1.0000
   2   1  13     239     528                                                         243    0.14   -0.03  1.0000
  -3   2  10   15564    2872                                                       15426    0.52   -0.06  1.0000
   1  -3  10   14868    2784                                                       14702    0.63   -0.01  1.0000
  -2  -1 -10   16040    2651                                                       15875    0.61   -0.06  1.0000
  -1   3 -10   16107    2044                                                       15934    0.63    0.01  1.0000
   2   1  10   13156    2600                                                       13006    0.61    0.06  1.0000
  -1   3 -10   15570    2345                                                       15400    0.63    0.01  1.0000
   3  -2 -10   13956    2446                                                       13824    0.52    0.06  1.0000
   2   1   7   26719    3079                                                       27206   -1.38    0.12  1.0000
   1  -3   7   30741    3219                                                       31297   -1.46   -0.01  1.0000
  -1   3  -7   28882    2673                                                       29421   -1.46    0.01  1.0000
   3  -2  -7   27771    3200                                                       28295   -1.45   -0.06  1.0000
  -2  -1  -7   29056    3057                                                       29563   -1.38   -0.12  1.0000
  -1   3  -7   28284    2386                                                       28816   -1.46    0.01  1.0000
  -3   2   7   26033    3160                                                       26541   -1.45    0.06  1.0000
   1  -3   7   30150    2803                                                       30700   -1.46   -0.01  1.0000
  -1   3  -4    1071     444                                                        1222   -2.19    0.00  1.0000
   2   1   4    1229     686                                                        1385   -2.13   -0.05  1.0000
   2   1   4    1510     709                                                        1683   -2.13   -0.05  1.0000
   3  -2  -4    1701     719                                                        1885   -2.14   -0.05  1.0000
  -3   2   4    1070     694                                                        1219   -2.14    0.05  1.0000
   1  -3   4    1413     506                                                        1586   -2.19    0.00  1.0000
  -2  -1  -4    1541     753                                                        1718   -2.13    0.05  1.0000
   3  -2  -4     933     525                                                        1071   -2.14   -0.05  1.0000
   1  -3   4    1628     700                                                        1812   -2.19    0.00  1.0000
  -3   2   4    2080     869                                                        2285   -2.14    0.05  1.0000
   1  -3   4    3409     878                                                        3675   -2.19    0.00  1.0000
  -2  -1  -4    1665     697                                                        1849   -2.13    0.05  1.0000
  -1   3  -4    1476     573                                                        1652   -2.19    0.00  1.0000
  -1   3  -4    1582     693                                                        1764   -2.19    0.00  1.0000
  -3   2   1   12764     640                                                        5592  -35.48    0.32  1.0000
   1  -3   1   11689     643                                                        4855  -35.70   -0.45  1.0000
  -1   3  -1   12071     644                                                        5103  -35.70    0.45  1.0000
   3  -2  -1   11652     617                                                        4864  -35.48   -0.32  1.0000
  -2  -1  -1   12381     522                                                        5274  -35.90   -0.12  1.0000
   2   1   1   11254     503                                                        4548  -35.90    0.12  1.0000
   1  -3   1   11401     616                                                        4671  -35.70   -0.45  1.0000
  -1   3   2  146097    3866                                                      122402   30.07    0.06  1.0000
   2   1  -2  149208    3492                                                      125203   30.14   -0.09  1.0000
  -3   2  -2  153703    2870                                                      129253   30.22    0.22  1.0000
   1  -3  -2  153237    4057                                                      128947   30.07   -0.06  1.0000
   3  -2   2  152174    2841                                                      127858   30.22   -0.22  1.0000
   1  -3  -2  150088    4018                                                      126059   30.07   -0.06  1.0000
  -1   3   2  154555    4155                                                      130154   30.07    0.06  1.0000
  -2  -1   2  155415    3577                                                      130891   30.14    0.09  1.0000
  -2  -1   2  149272    3896                                                      125259   30.14    0.09  1.0000
   2   1  -2  157343    3999                                                      132664   30.14   -0.09  1.0000
   2   1  -2  143421    3540                                                      119907   30.14   -0.09  1.0000
  -3   2  -5    3052     726                                                        3025   -0.23   -0.17  1.0000
   3  -2   5    2575     790                                                        2550   -0.23    0.17  1.0000
  -2  -1   5    1885     733                                                        1853   -0.34    0.05  1.0000
   1  -3  -5    3170     954                                                        3125   -0.37    0.09  1.0000
   2   1  -5    2521     909                                                        2484   -0.34   -0.05  1.0000
  -2  -1   5    2636     718                                                        2599   -0.34    0.05  1.0000
  -3   2  -5    3289     821                                                        3261   -0.23   -0.17  1.0000
   2   1  -5    3411     867                                                        3368   -0.34   -0.05  1.0000
   3  -2   5    2838     784                                                        2811   -0.23    0.17  1.0000
   2   1  -5    2695     807                                                        2657   -0.34   -0.05  1.0000
  -1   3   5    3647    1000                                                        3599   -0.37   -0.09  1.0000
  -3   2  -5    2296     415                                                        2273   -0.23   -0.17  1.0000
  -1   3   5    3217     983                                                        3172   -0.37   -0.09  1.0000
   1  -3  -8   26492    3281                                                       26611    0.34   -0.23  1.0000
  -1   3   8   24848    3255                                                       24967    0.34    0.23  1.0000
  -2  -1   8   27758    3376                                                       27846    0.25   -0.14  1.0000
   2   1  -8   48109    3511                                                       48228    0.25    0.14  1.0000
   2   1  -8   28702    3091                                                       28794    0.25    0.14  1.0000
  -3   2  -8   28026    2955                                                       28171    0.40   -0.03  1.0000
   3  -2   8   26150    3118                                                       26291    0.40    0.03  1.0000
  -3   2  -8   27541    1982                                                       27685    0.40   -0.03  1.0000
  -3   2 -11    1384     941                                                        1330   -0.68    0.04  1.0000
   3  -2  11       1     466                                                        -433   -0.68   -0.04  1.0000
   2   1 -11     878     829                                                         826   -0.84    0.23  1.0000
  -3   2 -11     280     271                                                         256   -0.68    0.04  1.0000
   1  -3 -11       1     939                                                        -273   -0.82   -0.17  1.0000
  -2  -1  11       1    1089                                                       -1072   -0.84   -0.23  1.0000
  -1   3  11     210     490                                                         185   -0.82    0.17  1.0000
  -3   2 -14     480     558                                                         516   -0.76    0.15  1.0000
   3  -2  14     694     683                                                         739   -0.76   -0.15  1.0000
  -2  -1  14       1     499                                                        -383   -0.78    0.00  1.0000
   1  -3 -14    1809    1320                                                        1884   -0.82   -0.02  1.0000
   2   1 -14     778    1043                                                         825   -0.78    0.00  1.0000
  -1   3  14    2129    1361                                                        2210   -0.82    0.02  1.0000
   2   1 -14     362     410                                                         395   -0.78    0.00  1.0000
  -2  -1  17     187    1114                                                         214    0.87    0.24  1.0000
  -1   3  17     543    1331                                                         590    0.90   -0.19  1.0000
   1  -3 -17     911    1283                                                         971    0.90    0.19  1.0000
   3  -2  17    1171    1311                                                        1240    0.93    0.01  1.0000
  -1  -2 -17    1676    1323                                                        1645    0.36    0.02  1.0000
   2  -3  17     590    1203                                                         574    0.33   -0.05  1.0000
   3  -1 -17    1501    1222                                                        1488    0.31   -0.33  1.0000
  -3   1  17     135     749                                                         126    0.31    0.33  1.0000
   1   2  17       0    1128                                                       -1804    0.36   -0.02  1.0000
   1   2  14    1234    1088                                                        1124   -1.50   -0.08  1.0000
   2  -3  14    1029     957                                                         926   -1.54   -0.02  1.0000
  -1  -2 -14       3     526                                                        -390   -1.50    0.08  1.0000
   3  -1 -14    3895    1739                                                        3692   -1.56    0.01  1.0000
  -3   1  14    1354    1191                                                        1235   -1.56   -0.01  1.0000
   3  -1 -14       3     776                                                        -443   -1.56    0.01  1.0000
  -2   3 -14     514     649                                                         443   -1.54    0.02  1.0000
   3  -1 -11   25420    3555                                                       25729    0.89    0.14  1.0000
   3  -1 -11   28439    3155                                                       28766    0.89    0.14  1.0000
  -1  -2 -11   27808    3879                                                       28119    0.87    0.02  1.0000
  -2   3 -11   26732    2565                                                       27030    0.84    0.01  1.0000
  -2   3 -11   22823    3103                                                       23098    0.84    0.01  1.0000
   2  -3  11   23644    3698                                                       23924    0.84   -0.01  1.0000
   1   2  11   21838    3657                                                       22114    0.87   -0.02  1.0000
  -3   1  11   23471    3813                                                       23763    0.89   -0.14  1.0000
  -1  -2  -8   15469    2429                                                       15462    0.04   -0.18  1.0000
   1   2   8   18485    2728                                                       18472    0.04    0.18  1.0000
  -3   1   8   17644    2762                                                       17612    0.12   -0.10  1.0000
  -2   3  -8   19091    2350                                                       19045    0.15   -0.04  1.0000
   2  -3   8   19470    2739                                                       19423    0.15    0.04  1.0000
   3  -1  -8   17604    2543                                                       17570    0.12    0.10  1.0000
  -2   3  -8   18206    1796                                                       18162    0.15   -0.04  1.0000
  -3   1   5  128577    5793                                                      128086    0.64   -0.04  1.0000
  -2   3  -5  135807    4601                                                      135185    0.79   -0.12  1.0000
  -2   3  -5  146647    5467                                                      146000    0.79   -0.12  1.0000
  -2   3  -5  141644    3975                                                      141009    0.79   -0.12  1.0000
   2  -3   5  152211    4917                                                      151545    0.79    0.12  1.0000
  -1  -2  -5  130088    5497                                                      129596    0.64   -0.05  1.0000
   3  -1  -5  133050    5600                                                      132548    0.64    0.04  1.0000
   1   2   5  129752    5671                                                      129258    0.64    0.05  1.0000
  -3   1   5  148848    6106                                                      148319    0.64   -0.04  1.0000
   2  -3   5  133027    5265                                                      132405    0.79    0.12  1.0000
   1   2   5  157984    6398                                                      157439    0.64    0.05  1.0000
  -1  -2  -5  149399    6169                                                      148872    0.64   -0.05  1.0000
   2  -3   2  500998    6479                                                      539479   24.78    0.20  1.0000
  -2   3  -2  537211    6535                                                      577024   24.78   -0.20  1.0000
   3  -1  -2  524768    8167                                                      563788   24.57    0.24  1.0000
  -1  -2  -2  517832    6491                                                      557061   24.86    0.03  1.0000
   2  -3   2  526218    6035                                                      565638   24.78    0.20  1.0000
  -2   3  -2  519932    5928                                                      559111   24.78   -0.20  1.0000
  -3   1   2  511523    8155                                                      550045   24.57   -0.24  1.0000
   1   2   2  530770    8375                                                      570476   24.86   -0.03  1.0000
  -1  -2  -2  512878    8355                                                      551922   24.86    0.03  1.0000
  -3   1   2  520635    8350                                                      559493   24.57   -0.24  1.0000
   1   2   2  520570    6388                                                      559899   24.86   -0.03  1.0000
   3  -1  -2  541218    8250                                                      580834   24.57    0.24  1.0000
  -1  -2   1  147241    3153                                                      116053  -40.01   -0.39  1.0000
   2  -3  -1  147065    3040                                                      116016  -39.86   -0.12  1.0000
   2  -3  -1  143843    3226                                                      113156  -39.86   -0.12  1.0000
   3  -1   1  144111    2815                                                      113282  -40.03    0.26  1.0000
   1   2  -1  141345    3162                                                      110850  -40.01    0.39  1.0000
   1   2  -1  140935    3098                                                      110487  -40.01    0.39  1.0000
  -2   3   1  140841    2936                                                      110503  -39.86    0.12  1.0000
  -2   3   1  145277    3339                                                      114436  -39.86    0.12  1.0000
   1   2  -4    1560     791                                                        1645   -1.00    0.11  1.0000
   1   2  -4    7684    1552                                                        7871   -1.00    0.11  1.0000
  -2   3   4    1907     819                                                        2003   -1.03    0.17  1.0000
   2  -3  -4    2186     788                                                        2292   -1.03   -0.17  1.0000
  -2   3   4    1793     784                                                        1887   -1.03    0.17  1.0000
   3  -1   4    1900     662                                                        1986   -0.90   -0.06  1.0000
   3  -1   4    2453     770                                                        2550   -0.90   -0.06  1.0000
  -3   1  -4    2442     787                                                        2538   -0.90    0.06  1.0000
  -1  -2   4    1916     817                                                        2011   -1.00   -0.11  1.0000
   1   2  -4    2068     661                                                        2165   -1.00    0.11  1.0000
  -1  -2   4    2225     772                                                        2328   -1.00   -0.11  1.0000
  -3   1  -4    1899     658                                                        1984   -0.90    0.06  1.0000
   2  -3  -4    1723     724                                                        1817   -1.03   -0.17  1.0000
  -1  -2   7  154117    7241                                                      156202   -2.46    0.03  1.0000
  -3   1  -7  169787    4162                                                      171934   -2.41   -0.10  1.0000
   3  -1   7  151452    6897                                                      153475   -2.41    0.10  1.0000
   2  -3  -7  154361    7385                                                      156464   -2.48   -0.06  1.0000
  -3   1  -7  158117    6639                                                      160189   -2.41   -0.10  1.0000
  -2   3   7  148845    7458                                                      150907   -2.48    0.06  1.0000
   1   2  -7  166397    6635                                                      168565   -2.46   -0.03  1.0000
   1   2  -7  174879    6069                                                      177101   -2.46   -0.03  1.0000
  -1  -2  10    6646    1902                                                        6889    1.37    0.03  1.0000
   1   2 -10    6787    1553                                                        7032    1.37   -0.03  1.0000
  -3   1 -10    6769    1724                                                        7011    1.35    0.04  1.0000
   2  -3 -10    5244    1681                                                        5465    1.40    0.03  1.0000
  -2   3  10    5244    1670                                                        5464    1.40   -0.03  1.0000
   3  -1  10    6429    1905                                                        6664    1.35   -0.04  1.0000
  -3   1 -10    7078    1173                                                        7325    1.35    0.04  1.0000
   1   2 -10    4934    1500                                                        5143    1.37   -0.03  1.0000
  -2   3  13   30078    4670                                                       29587   -1.32    0.01  1.0000
  -3   1 -13   31244    4160                                                       30759   -1.28   -0.06  1.0000
   1   2 -13   33590    3583                                                       33087   -1.28    0.08  1.0000
   2  -3 -13   31989    4490                                                       31482   -1.32   -0.01  1.0000
   1   2 -13   31869    4122                                                       31379   -1.28    0.08  1.0000
   3  -1  13   30612    4561                                                       30133   -1.28    0.06  1.0000
  -1  -2  13   34094    4913                                                       33585   -1.28   -0.08  1.0000
  -3   1 -16    3672    1876                                                        3644    0.21    0.05  1.0000
   3  -1  16    5884    2213                                                        5850    0.21   -0.05  1.0000
   2  -3 -16    2862    1698                                                        2836    0.23   -0.07  1.0000
   1   2 -16    4452    1776                                                        4410    0.29   -0.02  1.0000
  -2   3  16    4812    2406                                                        4777    0.23    0.07  1.0000
  -1  -2  16    2584    1934                                                        2552    0.29    0.02  1.0000
   3  -3  18    2598    1999                                                        2597    0.02   -0.07  1.0000
  -3   0  18    1003    1072                                                        1006   -0.04   -0.26  1.0000
   0  -3 -18     809    1580                                                         810   -0.01   -0.17  1.0000
  -3   0  15      11     726                                                         -94    3.10    0.15  1.0000
   0  -3 -15     287    1150                                                         189    2.95    0.09  1.0000
   3  -3  15     779    1059                                                         608    3.01    0.18  1.0000
   0   3  15     966    1475                                                         780    2.95   -0.09  1.0000
   3   0 -15    1394     972                                                        1158    3.10   -0.15  1.0000
  -3   3 -15     792    1084                                                         621    3.01   -0.18  1.0000
  -3   0  12    1735    1209                                                        1725   -0.12    0.14  1.0000
   3   0 -12      27     684                                                          26   -0.12   -0.14  1.0000
   0   3  12     720     933                                                         705   -0.24   -0.15  1.0000
  -3   3 -12     319     299                                                         310   -0.24   -0.09  1.0000
   3  -3  12      97     493                                                          93   -0.24    0.09  1.0000
  -3   3 -12       0    1076                                                        -739   -0.24   -0.09  1.0000
   0  -3 -12     505     416                                                         494   -0.24    0.15  1.0000
   3  -3   9   10364    2129                                                       10220   -0.65   -0.08  1.0000
   0   3   9    8335    1988                                                        8228   -0.54   -0.21  1.0000
   3   0  -9    9952    1678                                                        9831   -0.56   -0.14  1.0000
  -3   3  -9    9691    1807                                                        9553   -0.65    0.08  1.0000
  -3   0   9    9632    2163                                                        9516   -0.56    0.14  1.0000
   3   0  -9    7466    1701                                                        7361   -0.56   -0.14  1.0000
  -3   3  -9    9127    1199                                                        8994   -0.65    0.08  1.0000
   0  -3  -9    9204    2071                                                        9095   -0.54    0.21  1.0000
   3   0  -6   12049    1772                                                       12364   -1.33   -0.20  1.0000
   3  -3   6   14129    1764                                                       14475   -1.34   -0.16  1.0000
   0   3   6   10916    1868                                                       11189   -1.20    0.10  1.0000
   0  -3  -6   12324    2022                                                       12614   -1.20   -0.10  1.0000
  -3   3  -6   12403    1603                                                       12728   -1.34    0.16  1.0000
  -3   3  -6   14022    1204                                                       14367   -1.34    0.16  1.0000
  -3   0   6   12384    1960                                                       12704   -1.33    0.20  1.0000
   3  -3   6   12619    1820                                                       12947   -1.34   -0.16  1.0000
  -3   3  -6   13573    1836                                                       13912   -1.34    0.16  1.0000
   3  -3   3  204558    3388                                                      209086   -4.62   -0.06  1.0000
  -3   3  -3  205307    4079                                                      209841   -4.62    0.06  1.0000
   0  -3  -3  191765    5804                                                      196177   -4.66    0.11  1.0000
   0   3   3  193570    5696                                                      198007   -4.66   -0.11  1.0000
  -3   3  -3  217910    4829                                                      222580   -4.62    0.06  1.0000
   3   0  -3  213075    6126                                                      217766   -4.69   -0.23  1.0000
   3   0  -3  202972    5554                                                      207551   -4.69   -0.23  1.0000
   3  -3   3  201979    4691                                                      206478   -4.62   -0.06  1.0000
  -3   0   3  216700    5806                                                      221422   -4.69    0.23  1.0000
  -3   0   3  196606    5866                                                      201105   -4.69    0.23  1.0000
  -3   3  -3  205750    3352                                                      210289   -4.62    0.06  1.0000
   0   3   3  225095    6408                                                      229877   -4.66   -0.11  1.0000
   0  -3  -3  209966    5986                                                      214582   -4.66    0.11  1.0000
   0   3  -3  296924    4988                                                      295530   -1.19    0.19  1.0000
  -3   0  -3  298700    6387                                                      297189   -1.29   -0.04  1.0000
   0   3  -3  297335    6013                                                      295940   -1.19    0.19  1.0000
   0  -3   3  280648    6501                                                      279285   -1.19   -0.19  1.0000
   3  -3  -3  305141    7212                                                      303873   -1.06   -0.20  1.0000
   0  -3   3  301219    5228                                                      299807   -1.19   -0.19  1.0000
  -3   0  -3  274729    6276                                                      273280   -1.29   -0.04  1.0000
  -3   3   3  288434    7041                                                      287209   -1.06    0.20  1.0000
   0  -3   3  295732    5873                                                      294333   -1.19   -0.19  1.0000
   3  -3  -3  277274    7118                                                      276065   -1.06   -0.20  1.0000
  -3   3   3  310214    7529                                                      308943   -1.06    0.20  1.0000
   0   3  -3  306444    6713                                                      305027   -1.19    0.19  1.0000
  -3   3   6   15302    2145                                                       14950   -1.33    0.06  1.0000
  -3   0  -6   15867    1978                                                       15480   -1.44    0.12  1.0000
   3   0   6   15679    2049                                                       15295   -1.44   -0.12  1.0000
   3   0   6   19434    2265                                                       19006   -1.44   -0.12  1.0000
   0   3  -6   15241    1669                                                       14854   -1.47   -0.02  1.0000
   3  -3  -6   16632    2320                                                       16264   -1.33   -0.06  1.0000
   0  -3   6   17494    1896                                                       17080   -1.47    0.02  1.0000
   0  -3   6   15097    2055                                                       14712   -1.47    0.02  1.0000
   0   3  -6   17154    1822                                                       16743   -1.47   -0.02  1.0000
   3   0   9   20488    2936                                                       20559   -0.23    0.07  1.0000
   0  -3   9   23065    3224                                                       23147   -0.25    0.01  1.0000
   0   3  -9   23675    2782                                                       23758   -0.25   -0.01  1.0000
  -3   3   9   20427    3250                                                       20518   -0.30    0.11  1.0000
   0   3  -9   24567    2613                                                       24652   -0.25   -0.01  1.0000
   3  -3  -9   22814    3241                                                       22912   -0.30   -0.11  1.0000
  -3   0  -9   21822    2967                                                       21896   -0.23   -0.07  1.0000
   3  -3 -12      27     724                                                           4    2.94    0.01  1.0000
  -3   0 -12    1202    1035                                                         995    2.91   -0.05  1.0000
  -3   3  12     810     560                                                         640    2.94   -0.01  1.0000
  -3   0 -12    2729     924                                                        2413    2.91   -0.05  1.0000
   0   3 -12     679     502                                                         520    3.04   -0.05  1.0000
   3   0  12    1439     832                                                        1212    2.91    0.05  1.0000
   0   3 -12      11     680                                                         -70    3.04   -0.05  1.0000
   0  -3  12    2579    1198                                                        2258    3.04    0.05  1.0000
   0   3 -15    1661    1274                                                        1609   -0.60    0.10  1.0000
   3   0  15    1250    1002                                                        1203   -0.64    0.10  1.0000
   3  -3 -15     955    1270                                                         916   -0.59   -0.01  1.0000
   0  -3  15     507     712                                                         478   -0.60   -0.10  1.0000
  -3   3  15       0     685                                                        -549   -0.59    0.01  1.0000
  -3   0 -15       0     717                                                        -108   -0.64   -0.10  1.0000
  -3   3  18    1489    1800                                                        1640    1.77    0.05  1.0000
   3  -3 -18       4    1279                                                        -605    1.77   -0.05  1.0000
   0  -3  18       4    1429                                                        -557    1.80   -0.07  1.0000
  -3  -1 -17       9     840                                                        -358   -2.74   -0.08  1.0000
  -4   3  17     393     692                                                         285   -2.79    0.12  1.0000
   4  -3 -17       9     990                                                        -765   -2.79   -0.12  1.0000
   1  -4  17       9    1285                                                       -1113   -2.74   -0.16  1.0000
   4  -3 -14       1     487                                                        -224    1.03   -0.03  1.0000
   3   1  14    1890    1478                                                        1994    1.09   -0.04  1.0000
  -4   3  14    2193    1219                                                        2298    1.03    0.03  1.0000
   1  -4  14    2103    1362                                                        2207    1.04    0.04  1.0000
  -1   4 -14    2915    1412                                                        3038    1.04   -0.04  1.0000
  -3  -1 -14    1751    1362                                                        1852    1.09    0.04  1.0000
  -1   4 -11    6507    1412                                                        6589   -0.47    0.02  1.0000
  -1   4 -11    6474    1603                                                        6556   -0.47    0.02  1.0000
  -3  -1 -11    9115    1344                                                        9183   -0.34    0.09  1.0000
  -3  -1 -11    4696    1559                                                        4745   -0.34    0.09  1.0000
   1  -4  11    4754    1640                                                        4824   -0.47   -0.02  1.0000
   4  -3 -11    4929    1706                                                        4975   -0.31   -0.01  1.0000
  -4   3  11    4795    1718                                                        4841   -0.31    0.01  1.0000
   3   1  11    5037    1738                                                        5089   -0.34   -0.09  1.0000
  -1   4  -8    4142    1116                                                        4331   -1.35   -0.01  1.0000
  -1   4  -8    4415    1004                                                        4610   -1.35   -0.01  1.0000
  -3  -1  -8    4321    1266                                                        4517   -1.38    0.11  1.0000
   3   1   8    3029    1059                                                        3196   -1.38   -0.11  1.0000
  -4   3   8    2982    1225                                                        3131   -1.25   -0.04  1.0000
   1  -4   8    4205    1362                                                        4396   -1.35    0.01  1.0000
   4  -3  -8    2407    1270                                                        2541   -1.25    0.04  1.0000
   1  -4   5   68558    4025                                                       70266    3.01    0.03  1.0000
   3   1   5   77424    4340                                                       79189    2.93    0.06  1.0000
   4  -3  -5   67767    4338                                                       69407    2.91    0.01  1.0000
  -1   4  -5   70315    3372                                                       72043    3.01   -0.03  1.0000
   1  -4   5   72087    3320                                                       73838    3.01    0.03  1.0000
   1  -4   5   65760    3200                                                       67434    3.01    0.03  1.0000
  -3  -1  -5   69987    4051                                                       71663    2.93   -0.06  1.0000
  -4   3   5   65124    4313                                                       66731    2.91   -0.01  1.0000
   3   1   5   66618    3995                                                       68256    2.93    0.06  1.0000
  -1   4  -5   69140    3158                                                       70853    3.01   -0.03  1.0000
  -3  -1  -5   77693    4274                                                       79458    2.93   -0.06  1.0000
  -1   4  -5   74584    4173                                                       76364    3.01   -0.03  1.0000
  -4   3   2   16428    1526                                                       14837    5.90   -0.42  1.0000
   3   1   2   16160     960                                                       14475    6.34   -0.01  1.0000
  -1   4  -2   16521    1292                                                       14842    6.22   -0.42  1.0000
  -1   4  -2   15569    1288                                                       13941    6.22   -0.42  1.0000
   3   1   2   15382     976                                                       13739    6.34   -0.01  1.0000
   4  -3  -2   15062    1469                                                       13552    5.90    0.42  1.0000
   1  -4   2   17140    1323                                                       15442    6.22    0.42  1.0000
   1  -4   2   17309    1363                                                       15602    6.22    0.42  1.0000
  -3  -1  -2   15732     929                                                       14070    6.34    0.01  1.0000
   4  -3  -2   15563    1361                                                       14028    5.90    0.42  1.0000
  -4   3   2   15277    1356                                                       13744    5.90   -0.42  1.0000
  -3  -1   1  107406    3391                                                      105550    2.64    0.12  1.0000
  -4   3  -1  104750    2360                                                      102783    2.84    0.03  1.0000
   1  -4  -1  103336    3292                                                      101536    2.61    0.13  1.0000
   3   1  -1  106312    3443                                                      104472    2.64   -0.12  1.0000
  -3  -1   1  101906    3275                                                      100098    2.64    0.12  1.0000
   4  -3   1  108017    2360                                                      106021    2.84   -0.03  1.0000
   1  -4  -1  109384    3466                                                      107532    2.61    0.13  1.0000
   3   1  -1  104085    3294                                                      102264    2.64   -0.12  1.0000
  -1   4   1  117479    3558                                                      115567    2.61   -0.13  1.0000
  -1   4   1  102701    3238                                                      100914    2.61   -0.13  1.0000
   1  -4  -1  110084    3412                                                      108226    2.61    0.13  1.0000
  -4   3  -4    1104     323                                                         799    4.69    0.07  1.0000
   3   1  -4     266     321                                                         130    4.63    0.10  1.0000
   3   1  -4    3186     894                                                        2657    4.63    0.10  1.0000
   4  -3   4    1685     525                                                        1304    4.69   -0.07  1.0000
  -3  -1   4    1757     701                                                        1373    4.63   -0.10  1.0000
  -3  -1   4    1649     624                                                        1278    4.63   -0.10  1.0000
  -4   3  -4    1154     272                                                         841    4.69    0.07  1.0000
  -1   4   4    1409     641                                                        1066    4.59    0.15  1.0000
   1  -4  -4    1982     653                                                        1577    4.59   -0.15  1.0000
  -1   4   4    1799     674                                                        1409    4.59    0.15  1.0000
   1  -4  -4    2268     758                                                        1834    4.59   -0.15  1.0000
   3   1  -4     851     271                                                         589    4.63    0.10  1.0000
  -1   4   7  110469    6405                                                      108123   -3.29   -0.09  1.0000
  -4   3  -7  112795    5239                                                      110400   -3.33   -0.10  1.0000
   4  -3   7  120568    5887                                                      118094   -3.33    0.10  1.0000
   3   1  -7  112879    5790                                                      110531   -3.26    0.03  1.0000
  -4   3  -7  115884    3371                                                      113456   -3.33   -0.10  1.0000
   3   1  -7  132905    5683                                                      130356   -3.26    0.03  1.0000
   4  -3   7  135372    5724                                                      132750   -3.33    0.10  1.0000
  -3  -1   7  113889    6301                                                      111530   -3.26   -0.03  1.0000
   1  -4  -7  116061    6581                                                      113659   -3.29    0.09  1.0000
  -1   4  10   23408    3545                                                       23195   -0.65    0.10  1.0000
   4  -3  10   24777    3318                                                       24529   -0.74    0.02  1.0000
   3   1 -10   29525    3130                                                       29262   -0.71   -0.07  1.0000
   1  -4 -10   25309    3507                                                       25085   -0.65   -0.10  1.0000
   3   1 -10   23678    3164                                                       23443   -0.71   -0.07  1.0000
  -4   3 -10   24934    3010                                                       24685   -0.74   -0.02  1.0000
  -4   3 -10   25947    1998                                                       25692   -0.74   -0.02  1.0000
  -3  -1  10   25626    3709                                                       25382   -0.71    0.07  1.0000
  -4   3 -13   10669    2400                                                       10576    0.42   -0.03  1.0000
  -3  -1  13   10363    2844                                                       10273    0.41    0.02  1.0000
   1  -4 -13    7678    2112                                                        7587    0.48    0.02  1.0000
   3   1 -13   10519    2131                                                       10429    0.41   -0.02  1.0000
   4  -3  13    7245    2104                                                        7168    0.42    0.03  1.0000
   3   1 -13    9610    2286                                                        9525    0.41   -0.02  1.0000
  -1   4  13    9759    2719                                                        9657    0.48   -0.02  1.0000
   3   1 -16    2087    1064                                                        2288   -2.01    0.16  1.0000
  -3  -1  16     516    1064                                                         620   -2.01   -0.16  1.0000
  -1   4  16     885     993                                                        1018   -2.01    0.06  1.0000
   4  -3  16    1986    1583                                                        2188   -2.05   -0.07  1.0000
   1  -4 -16     285     622                                                         362   -2.01   -0.06  1.0000
   4  -3  19       0    1186                                                       -1015   -0.34    0.11  1.0000
  -4   2  18     725    1672                                                         802    1.29   -0.16  1.0000
   4  -2 -18     421    1519                                                         479    1.29    0.16  1.0000
  -2  -2 -18       2     816                                                         -19    1.26    0.03  1.0000
   2  -4  18    1682    2205                                                        1793    1.24    0.06  1.0000
   4  -2 -15       0    1110                                                       -1028    0.21   -0.19  1.0000
  -2  -2 -15     312    1008                                                         309    0.05    0.08  1.0000
  -4   2  15    1622     898                                                        1603    0.21    0.19  1.0000
   2  -4  15       0    1370                                                       -1175    0.09    0.10  1.0000
   2   2  15       0    1338                                                        -995    0.05   -0.08  1.0000
  -2   4 -15     781    1010                                                         776    0.09   -0.10  1.0000
  -2  -2 -12       2     969                                                       -1069   -1.31   -0.06  1.0000
   2   2  12     790     471                                                         712   -1.31    0.06  1.0000
  -2   4 -12       2     717                                                        -683   -1.24    0.00  1.0000
   2  -4  12       2     551                                                        -494   -1.24    0.00  1.0000
   4  -2 -12       2     798                                                        -250   -1.35   -0.14  1.0000
  -2   4 -12     210     281                                                         173   -1.24    0.00  1.0000
  -4   2  12       2     773                                                         -21   -1.35    0.14  1.0000
   4  -2 -12     328     809                                                         278   -1.35   -0.14  1.0000
   2  -4   9       0     749                                                        -121   -0.22   -0.11  1.0000
   4  -2  -9       0     628                                                         -56   -0.20   -0.15  1.0000
  -2   4  -9     296     368                                                         288   -0.22    0.11  1.0000
  -2   4  -9     439     361                                                         430   -0.22    0.11  1.0000
  -2  -2  -9     668     738                                                         664   -0.09    0.00  1.0000
  -4   2   9       0     653                                                        -146   -0.20    0.15  1.0000
   2   2   9       0     745                                                        -858   -0.09    0.00  1.0000
   4  -2  -6   12326    1875                                                       11598   -3.09   -0.17  1.0000
  -2  -2  -6   10702    1722                                                       10039   -3.03    0.08  1.0000
  -2   4  -6   12733    1367                                                       11977   -3.16    0.03  1.0000
  -4   2   6   11281    1900                                                       10585   -3.09    0.17  1.0000
   2   2   6   11741    1790                                                       11045   -3.03   -0.08  1.0000
   2  -4   6   11308    1662                                                       10596   -3.16   -0.03  1.0000
   2  -4   6   12969    1513                                                       12205   -3.16   -0.03  1.0000
  -2   4  -6   12116    1442                                                       11379   -3.16    0.03  1.0000
  -2  -2  -3  219894    4298                                                      217278    2.60    0.11  1.0000
   2  -4   3  221414    4757                                                      218744    2.65   -0.16  1.0000
   4  -2  -3  228417    6281                                                      225695    2.66   -0.26  1.0000
  -4   2   3  230883    6387                                                      228141    2.66    0.26  1.0000
   2  -4   3  209969    5143                                                      207369    2.65   -0.16  1.0000
   2  -4   3  212956    3530                                                      210337    2.65   -0.16  1.0000
  -2   4  -3  204599    4604                                                      202029    2.65    0.16  1.0000
  -4   2   3  211720    5990                                                      209095    2.66    0.26  1.0000
  -2   4  -3  215390    3482                                                      212753    2.65    0.16  1.0000
   2   2   3  217897    4317                                                      215295    2.60   -0.11  1.0000
  -2  -2  -3  213316    6112                                                      210739    2.60    0.11  1.0000
  -2   4  -3  220830    5218                                                      218160    2.65    0.16  1.0000
   4  -2  -3  203425    6063                                                      200857    2.66   -0.26  1.0000
   2   2   3  231133    6247                                                      228453    2.60   -0.11  1.0000
  -2  -2  -3  232154    6019                                                      229466    2.60    0.11  1.0000
  -2   4   0    7117     689                                                        4877   13.50   -0.07  1.0000
  -2  -2   0    7154     697                                                        4889   13.62    0.05  1.0000
   2  -4   0    7804     771                                                        5448   13.50    0.07  1.0000
   2   2   0    7545     708                                                        5213   13.62   -0.05  1.0000
  -4   2   0    7542     682                                                        5244   13.40    0.00  1.0000
   2  -4   0    7057     689                                                        4827   13.50    0.07  1.0000
   2  -4   0    7837     597                                                        5476   13.50    0.07  1.0000
  -2   4   0    7575     582                                                        5257   13.50   -0.07  1.0000
  -4   2  -3   80886    2959                                                       78340   -4.19    0.09  1.0000
  -2   4   3   74829    3603                                                       72422   -4.12   -0.13  1.0000
   2  -4  -3   76719    3823                                                       74284   -4.12    0.13  1.0000
  -4   2  -3   83486    2973                                                       80899   -4.19    0.09  1.0000
   4  -2   3   75611    2789                                                       73148   -4.19   -0.09  1.0000
   2   2  -3   79705    3392                                                       77174   -4.20   -0.20  1.0000
  -2  -2   3   85231    3268                                                       82616   -4.20    0.20  1.0000
  -2  -2   3   76060    3587                                                       73591   -4.20    0.20  1.0000
   2   2  -3   80973    3146                                                       78421   -4.20   -0.20  1.0000
   2   2  -3   83458    3756                                                       80868   -4.20   -0.20  1.0000
  -2   4   3   85210    3982                                                       82640   -4.12   -0.13  1.0000
   2  -4  -3   86130    3862                                                       83549   -4.12    0.13  1.0000
  -2  -2   3   80748    3430                                                       78203   -4.20    0.20  1.0000
  -2  -2   6    8642    1605                                                        8498    0.72    0.14  1.0000
  -2   4   6    9353    1715                                                        9182    0.83    0.08  1.0000
   2   2  -6   10289    1562                                                       10132    0.72   -0.14  1.0000
  -2  -2   6   11723    1701                                                       11555    0.72    0.14  1.0000
  -4   2  -6    9393    1425                                                        9250    0.69    0.17  1.0000
   2  -4  -6    8809    1770                                                        8643    0.83   -0.08  1.0000
   4  -2   6   10304    1535                                                       10154    0.69   -0.17  1.0000
   4  -2   6    9076    1486                                                        8936    0.69   -0.17  1.0000
  -4   2  -6    8384     730                                                        8249    0.69    0.17  1.0000
   2   2  -6   12642    1712                                                       12468    0.72   -0.14  1.0000
  -4   2  -6   10611    1624                                                       10458    0.69    0.17  1.0000
  -2  -2   9     882     648                                                         878    0.07    0.06  1.0000
   2  -4  -9    1025     809                                                        1022    0.03    0.08  1.0000
   2   2  -9    1339     438                                                        1334    0.07   -0.06  1.0000
  -4   2  -9    1130     394                                                        1134   -0.05   -0.03  1.0000
   4  -2   9    1061     589                                                        1064   -0.05    0.03  1.0000
  -2   4   9     630     654                                                         628    0.03   -0.08  1.0000
  -4   2  -9    1065     698                                                        1069   -0.05   -0.03  1.0000
   2   2  -9    2463    1171                                                        2456    0.07   -0.06  1.0000
  -4   2 -12    1577     948                                                        1335    2.95   -0.03  1.0000
   2  -4 -12    2207    1076                                                        1911    3.03    0.15  1.0000
   4  -2  12    3051    1339                                                        2710    2.95    0.03  1.0000
  -4   2 -12    3459     765                                                        3095    2.95   -0.03  1.0000
   2   2 -12    1623     969                                                        1365    3.10   -0.12  1.0000
  -2  -2  12    4067    1758                                                        3653    3.10    0.12  1.0000
  -2   4  12    3425    1574                                                        3055    3.03   -0.15  1.0000
   2   2 -12    2515     914                                                        2192    3.10   -0.12  1.0000
   2   2 -15     938    1039                                                         974    0.53    0.03  1.0000
  -2   4  15     558     714                                                         579    0.42   -0.16  1.0000
   2  -4 -15       0     870                                                        -562    0.42    0.16  1.0000
  -4   2 -15       0     874                                                        -165    0.54   -0.20  1.0000
   4  -2  15    1382    1083                                                        1426    0.54    0.20  1.0000
  -2  -2  15     582     809                                                         610    0.53   -0.03  1.0000
   2  -4 -18       0     803                                                         -91    0.10   -0.26  1.0000
   4  -2  18     404    1560                                                         398    0.15    0.00  1.0000
  -2  -2  18       0     657                                                        -254    0.09   -0.20  1.0000
  -2   4  18    1782    1885                                                        1777    0.10    0.26  1.0000
   3  -4  19     952    1329                                                        1022   -1.04    0.05  1.0000
  -1  -3 -16     840     870                                                         875   -1.25    0.06  1.0000
   3  -4  16       2    1261                                                       -1433   -1.23   -0.06  1.0000
   4  -1 -16       2     821                                                        -411   -1.28    0.25  1.0000
  -4   1  16       2     603                                                        -275   -1.28   -0.25  1.0000
  -1  -3 -13      10    1125                                                       -1278    2.99    0.08  1.0000
   1   3  13     256     781                                                         369    2.99   -0.08  1.0000
  -3   4 -13     519     639                                                         672    2.92    0.02  1.0000
   3  -4  13      10    1119                                                        -712    2.92   -0.02  1.0000
  -4   1  13     349     767                                                         475    2.90    0.01  1.0000
   4  -1 -13     367     480                                                         496    2.90   -0.01  1.0000
  -4   1  10     249     528                                                         189   -1.90    0.01  1.0000
   1   3  10       4     802                                                        -264   -1.76    0.15  1.0000
  -3   4 -10       4     372                                                        -103   -1.80   -0.05  1.0000
   3  -4  10    1382     884                                                        1244   -1.80    0.05  1.0000
  -1  -3 -10       4     451                                                        -181   -1.76   -0.15  1.0000
  -3   4 -10     312     304                                                         249   -1.80   -0.05  1.0000
   4  -1 -10     420     540                                                         342   -1.90   -0.01  1.0000
   4  -1 -10    1578     879                                                        1423   -1.90   -0.01  1.0000
   3  -4   7   33868    2888                                                       34560   -1.74    0.02  1.0000
  -4   1   7   31889    3473                                                       32535   -1.67   -0.06  1.0000
   3  -4   7   32673    3241                                                       33353   -1.74    0.02  1.0000
  -3   4  -7   32137    2211                                                       32811   -1.74   -0.02  1.0000
   1   3   7   28893    3196                                                       29511   -1.68    0.04  1.0000
  -3   4  -7   31211    2628                                                       31876   -1.74   -0.02  1.0000
  -1  -3  -7   31023    3311                                                       31664   -1.68   -0.04  1.0000
   4  -1  -7   30661    3229                                                       31293   -1.67    0.06  1.0000
   1   3   4  106376    5075                                                      107945    2.23    0.01  1.0000
   4  -1  -4   94199    4466                                                       95699    2.26   -0.06  1.0000
  -4   1   4   88699    4542                                                       90155    2.26    0.06  1.0000
   3  -4   4   97485    3084                                                       99006    2.25   -0.12  1.0000
   3  -4   4  101199    3247                                                      102748    2.25   -0.12  1.0000
  -3   4  -4  104822    4085                                                      106401    2.25    0.12  1.0000
   4  -1  -4  107205    4883                                                      108805    2.26   -0.06  1.0000
  -3   4  -4   96203    3055                                                       97716    2.25    0.12  1.0000
  -3   4  -4   94290    3126                                                       95788    2.25    0.12  1.0000
  -1  -3  -4  102524    4786                                                      104064    2.23   -0.01  1.0000
   3  -4   4   95862    3919                                                       97370    2.25   -0.12  1.0000
  -4   1   4  104010    4799                                                      105587    2.26    0.06  1.0000
  -1  -3  -4   92484    4549                                                       93947    2.23   -0.01  1.0000
   1   3   1   18163    1248                                                       15321   10.22   -0.23  1.0000
  -1  -3  -1   18713    1193                                                       15837   10.22    0.23  1.0000
  -4   1   1   19642    1377                                                       16650   10.38    0.32  1.0000
   1   3   1   18245    1183                                                       15397   10.22   -0.23  1.0000
   3  -4   1   18734    1172                                                       15794   10.41   -0.15  1.0000
   3  -4   1   18511    1165                                                       15590   10.41   -0.15  1.0000
  -4   1   1   18734    1207                                                       15814   10.38    0.32  1.0000
  -1  -3  -1   17676    1264                                                       14883   10.22    0.23  1.0000
  -1  -3  -1   19959    1257                                                       16984   10.22    0.23  1.0000
  -3   4  -1   17312    1127                                                       14497   10.41    0.15  1.0000
   4  -1  -1   18013    1191                                                       15139   10.38   -0.32  1.0000
  -1  -3   2    4203     637                                                        2546   13.35    0.26  1.0000
   3  -4  -2    3958     641                                                        2379   13.14    0.03  1.0000
  -3   4   2    4531     776                                                        2827   13.14   -0.03  1.0000
  -3   4   2    4214     640                                                        2578   13.14   -0.03  1.0000
   1   3  -2    4591     638                                                        2852   13.35   -0.26  1.0000
   3  -4  -2    4860     654                                                        3088   13.14    0.03  1.0000
   1   3  -2    4466     637                                                        2753   13.35   -0.26  1.0000
  -1  -3   2    4546     676                                                        2814   13.35    0.26  1.0000
  -1  -3   5    4673    1112                                                        4638    0.23    0.14  1.0000
   1   3  -5    4601     903                                                        4569    0.23   -0.14  1.0000
  -4   1  -5    4850    1040                                                        4806    0.29    0.01  1.0000
  -3   4   5    2939     869                                                        2911    0.24    0.00  1.0000
   3  -4  -5    4954    1199                                                        4917    0.24    0.00  1.0000
   4  -1   5    3807     894                                                        3768    0.29   -0.01  1.0000
  -4   1  -5    4187     943                                                        4147    0.29    0.01  1.0000
   1   3  -5    4302    1070                                                        4272    0.23   -0.14  1.0000
   4  -1   5    4711    1004                                                        4668    0.29   -0.01  1.0000
   1   3  -5    4579     976                                                        4547    0.23   -0.14  1.0000
  -1  -3   5    5248     990                                                        5211    0.23    0.14  1.0000
   1   3  -8    1233     560                                                        1326   -1.21    0.02  1.0000
   3  -4  -8     693     638                                                         753   -1.04    0.01  1.0000
   1   3  -8    1710     724                                                        1819   -1.21    0.02  1.0000
  -1  -3   8    1096     669                                                        1183   -1.21   -0.02  1.0000
  -3   4   8    1510     844                                                        1597   -1.04   -0.01  1.0000
  -4   1  -8    3982     706                                                        4134   -1.10    0.11  1.0000
   4  -1   8     473     453                                                         525   -1.10   -0.11  1.0000
  -4   1  -8    2072     865                                                        2181   -1.10    0.11  1.0000
  -4   1 -11    1962     507                                                        1723   -2.60    0.00  1.0000
   1   3 -11    2304     936                                                        2032   -2.73    0.21  1.0000
   1   3 -11     664     542                                                         522   -2.73    0.21  1.0000
  -4   1 -11    2182     866                                                        1929   -2.60    0.00  1.0000
   3  -4 -11    1212     706                                                        1017   -2.72   -0.15  1.0000
  -3   4  11    2422    1161                                                        