
###############################################################################
#
# This file contains modified crystal structure data generated from the
# MOF subset of the Cambridge Structural Database (CSD) v543 
# hosted by the Cambridge Crystallographic Data Centre (CCDC).
#
# This work is licensed under the Creative Commons
# Attribution-NonCommercial-ShareAlike 4.0 International License.
# To view a copy of this license, visit
# http://creativecommons.org/licenses/by-nc-sa/4.0/
# or send a letter to
# Creative Commons, PO Box 1866, Mountain View, CA 94042, USA.
#
# CIF created using the CSD Python API on 29 September 2022
# The structure has been converted into the P1 space group
# The structure has a 3D framework
# The original CSD entry HUFJAV is in the rhombohedral crystal system
# The framework has been calculated to contain at least 10.0% void space
# The void calculation uses a probe of radius 1.32A, grid spacing 0.4
# The framework is charged, counterions have been retained in the structure
#
###############################################################################

data_HUFJAV
_chemical_formula_moiety         '(C198 H252 Ag18 B18 F72 N72 O18 S18)n'
_symmetry_cell_setting           triclinic
_symmetry_space_group_name_H-M   'P 1'
_symmetry_Int_Tables_number      1
_space_group_name_Hall           'P 1'
loop_
_symmetry_equiv_pos_site_id
_symmetry_equiv_pos_as_xyz
1 x,y,z
_cell_length_a                   28.123(5)
_cell_length_b                   28.123(5)
_cell_length_c                   14.436(3)
_cell_angle_alpha                90
_cell_angle_beta                 90
_cell_angle_gamma                120
_cell_volume                     9887.83
loop_
_atom_site_label
_atom_site_type_symbol
_atom_site_fract_x
_atom_site_fract_y
_atom_site_fract_z
Ag1 Ag 0.79960(4) 0.07384(4) 0.39670(7)
N2 N 0.7512(4) 0.0140(3) 0.2808(6)
C9 C 0.7124(7) 0.0208(6) 0.2268(9)
H8 H 0.7115 0.0540 0.2325
S1 S 0.7926(6) 0.1944(5) 0.2806(10)
O1 O 0.8012(9) 0.1486(6) 0.2793(17)
C10 C 0.836(3) 0.2474(16) 0.333(3)
H9 H 0.8421 0.2373 0.3954
H10 H 0.8223 0.2732 0.3385
H11 H 0.8707 0.2647 0.2989
C11 C 0.7844(13) 0.2134(13) 0.1794(15)
H12 H 0.7572 0.1813 0.1447
H13 H 0.8194 0.2306 0.1461
H14 H 0.7715 0.2398 0.1859
N5 N 0.8808(3) 0.1376(5) 0.4516(6)
N6 N 0.7318(4) 0.0753(6) 0.4912(7)
N1 N 0.7432(4) 0.8808(3) 0.5484(6)
C1 C 0.7579(5) 0.8916(5) 0.4586(8)
H1 H 0.7570 0.8637 0.4202
C2 C 0.7451(5) 0.9200(6) 0.5962(7)
H2 H 0.7366 0.9135 0.6603
N3 N 0.6769(5) 0.9349(4) 0.1579(7)
N4 N 0.7757(5) 0.9840(4) 0.4724(7)
C3 C 0.6772(7) 0.9821(6) 0.1683(12)
H3 H 0.6522 0.9885 0.1338
C4 C 0.7490(4) 0.9663(4) 0.2653(6)
C5 C 0.7148(4) 0.9270(4) 0.2052(7)
H4 H 0.7169 0.8947 0.1960
C6 C 0.7752(5) 0.9461(4) 0.4199(7)
C7 C 0.7924(5) 0.9579(5) 0.3241(7)
H5 H 0.7956 0.9271 0.2977
H6 H 0.8289 0.9915 0.3206
C8 C 0.7586(8) 0.9710(6) 0.5617(11)
H7 H 0.7559 0.9970 0.6002
Ag2 Ag 0.60757(6) 0.86707(4) 0.06337(7)
Ag3 Ag 0.72576(6) 0.79960(4) 0.60330(7)
N1_2 N 0.1192(3) 0.8624(5) 0.5484(6)
C1_2 C 0.1084(5) 0.8663(7) 0.4586(8)
H1_2 H 0.1363 0.8933 0.4202
C2_2 C 0.0800(6) 0.8251(8) 0.5962(7)
H2_2 H 0.0865 0.8231 0.6603
N3_2 N 0.0651(4) 0.7420(6) 0.1579(7)
N4_2 N 0.0160(4) 0.7917(6) 0.4724(7)
C3_2 C 0.0179(6) 0.6951(9) 0.1683(12)
H3_2 H 0.0115 0.6637 0.1338
C4_2 C 0.0337(4) 0.7827(6) 0.2653(6)
C5_2 C 0.0730(4) 0.7878(6) 0.2052(7)
H4_2 H 0.1053 0.8222 0.1960
C6_2 C 0.0539(4) 0.8291(6) 0.4199(7)
C7_2 C 0.0421(5) 0.8345(7) 0.3241(7)
H5_2 H 0.0729 0.8685 0.2977
H6_2 H 0.0085 0.8374 0.3206
C8_2 C 0.0290(6) 0.7876(10) 0.5617(11)
H7_2 H 0.0030 0.7589 0.6002
Ag2_2 Ag 0.13293(4) 0.74051(7) 0.06337(7)
Ag3_2 Ag 0.20040(4) 0.92616(7) 0.60330(7)
Ag1_2 Ag 0.92616(4) 0.72576(6) 0.39670(7)
N2_2 N 0.9860(3) 0.7372(5) 0.2808(6)
C9_2 C 0.9792(6) 0.6916(9) 0.2268(9)
H8_2 H 0.9460 0.6575 0.2325
S1_2 S 0.8056(5) 0.5982(8) 0.2806(10)
O1_2 O 0.8514(6) 0.6526(11) 0.2793(17)
C10_2 C 0.7526(16) 0.5886(34) 0.333(3)
H9_2 H 0.7627 0.6048 0.3954
H10_2 H 0.7268 0.5491 0.3385
H11_2 H 0.7353 0.6060 0.2989
C11_2 C 0.7866(13) 0.5710(18) 0.1794(15)
H12_2 H 0.8187 0.5759 0.1447
H13_2 H 0.7694 0.5888 0.1461
H14_2 H 0.7602 0.5317 0.1859
N5_2 N 0.8624(5) 0.7432(6) 0.4516(6)
N6_2 N 0.9247(6) 0.6564(7) 0.4912(7)
Ag1_3 Ag 0.27424(6) 0.20040(4) 0.39670(7)
N1_3 N 0.1376(5) 0.2568(4) 0.5484(6)
C1_3 C 0.1337(7) 0.2421(5) 0.4586(8)
H1_3 H 0.1067 0.2430 0.4202
N2_3 N 0.2628(5) 0.2488(4) 0.2808(6)
C2_3 C 0.1749(8) 0.2549(5) 0.5962(7)
H2_3 H 0.1769 0.2634 0.6603
N3_3 N 0.2580(6) 0.3231(5) 0.1579(7)
N4_3 N 0.2083(6) 0.2243(5) 0.4724(7)
C3_3 C 0.3049(9) 0.3228(7) 0.1683(12)
H3_3 H 0.3363 0.3478 0.1338
C4_3 C 0.2173(6) 0.2510(4) 0.2653(6)
C5_3 C 0.2122(6) 0.2852(4) 0.2052(7)
H4_3 H 0.1778 0.2831 0.1960
C6_3 C 0.1709(6) 0.2248(5) 0.4199(7)
C7_3 C 0.1655(7) 0.2076(5) 0.3241(7)
H5_3 H 0.1315 0.2044 0.2977
H6_3 H 0.1626 0.1711 0.3206
C8_3 C 0.2124(10) 0.2414(8) 0.5617(11)
H7_3 H 0.2411 0.2441 0.6002
C9_3 C 0.3084(9) 0.2876(7) 0.2268(9)
H8_3 H 0.3425 0.2885 0.2325
S1_3 S 0.4018(8) 0.2074(6) 0.2806(10)
O1_3 O 0.3474(11) 0.1988(9) 0.2793(17)
C10_3 C 0.4114(34) 0.164(3) 0.333(3)
H9_3 H 0.3952 0.1579 0.3954
H10_3 H 0.4509 0.1777 0.3385
H11_3 H 0.3940 0.1293 0.2989
C11_3 C 0.4290(18) 0.2156(13) 0.1794(15)
H12_3 H 0.4241 0.2428 0.1447
H13_3 H 0.4112 0.1806 0.1461
H14_3 H 0.4683 0.2285 0.1859
Ag2_3 Ag 0.25949(7) 0.39243(6) 0.06337(7)
Ag3_3 Ag 0.07384(7) 0.27424(6) 0.60330(7)
N5_3 N 0.2568(6) 0.1192(3) 0.4516(6)
N6_3 N 0.3436(7) 0.2682(4) 0.4912(7)
Ag1_4 Ag 0.46627(4) 0.40717(4) 0.73003(7)
N1_4 N 0.4099(4) 0.2141(3) 0.8817(6)
C1_4 C 0.4246(5) 0.2249(5) 0.7919(8)
H1_4 H 0.4237 0.1970 0.7535
N2_4 N 0.4179(4) 0.3473(3) 0.6141(6)
C2_4 C 0.4118(5) 0.2533(6) 0.9295(7)
H2_4 H 0.4033 0.2468 0.9936
N4_4 N 0.4424(5) 0.3173(4) 0.8057(7)
C3_4 C 0.3439(7) 0.3154(6) 0.5016(12)
H3_4 H 0.3189 0.3218 0.4671
C4_4 C 0.4157(4) 0.2996(4) 0.5986(6)
C5_4 C 0.3815(4) 0.2603(4) 0.5385(7)
H4_4 H 0.3836 0.2280 0.5293
C6_4 C 0.4419(5) 0.2794(4) 0.7532(7)
C7_4 C 0.4591(5) 0.2912(5) 0.6574(7)
H5_4 H 0.4623 0.2604 0.6310
H6_4 H 0.4956 0.3248 0.6539
C8_4 C 0.4253(8) 0.3043(6) 0.8950(11)
H7_4 H 0.4226 0.3303 0.9335
C9_4 C 0.3791(7) 0.3541(6) 0.5601(9)
H8_4 H 0.3782 0.3873 0.5658
S1_4 S 0.4593(6) 0.5277(5) 0.6139(10)
O1_4 O 0.4679(9) 0.4819(6) 0.6126(17)
C10_4 C 0.503(3) 0.5807(16) 0.666(3)
H9_4 H 0.5088 0.5706 0.7287
H10_4 H 0.4890 0.6065 0.6718
H11_4 H 0.5374 0.5980 0.6322
C11_4 C 0.4511(13) 0.5467(13) 0.5127(15)
H12_4 H 0.4239 0.5146 0.4780
H13_4 H 0.4861 0.5639 0.4794
H14_4 H 0.4382 0.5731 0.5192
Ag3_4 Ag 0.39243(6) 0.13293(4) 0.93663(7)
N5_4 N 0.5475(3) 0.4709(5) 0.7849(6)
N6_4 N 0.3984(4) 0.4087(6) 0.8246(7)
Ag1_5 Ag 0.59283(4) 0.05909(6) 0.73003(7)
N1_5 N 0.7859(3) 0.1957(5) 0.8817(6)
C1_5 C 0.7751(5) 0.1996(7) 0.7919(8)
H1_5 H 0.8030 0.2266 0.7535
N2_5 N 0.6527(3) 0.0705(5) 0.6141(6)
C2_5 C 0.7467(6) 0.1584(8) 0.9295(7)
H2_5 H 0.7532 0.1564 0.9936
N4_5 N 0.6827(4) 0.1250(6) 0.8057(7)
C3_5 C 0.6846(6) 0.0284(9) 0.5016(12)
C4_5 C 0.7004(4) 0.1160(6) 0.5986(6)
C5_5 C 0.7397(4) 0.1211(6) 0.5385(7)
H4_5 H 0.7720 0.1555 0.5293
C6_5 C 0.7206(4) 0.1624(6) 0.7532(7)
C7_5 C 0.7088(5) 0.1678(7) 0.6574(7)
H5_5 H 0.7396 0.2018 0.6310
H6_5 H 0.6752 0.1707 0.6539
C8_5 C 0.6957(6) 0.1209(10) 0.8950(11)
H7_5 H 0.6697 0.0922 0.9335
C9_5 C 0.6459(6) 0.0249(9) 0.5601(9)
Ag3_5 Ag 0.86707(4) 0.25949(7) 0.93663(7)
N5_5 N 0.5291(5) 0.0765(6) 0.7849(6)
Ag1_6 Ag 0.94091(6) 0.53373(4) 0.73003(7)
N1_6 N 0.8043(5) 0.5901(4) 0.8817(6)
C1_6 C 0.8004(7) 0.5754(5) 0.7919(8)
H1_6 H 0.7734 0.5763 0.7535
N2_6 N 0.9295(5) 0.5821(4) 0.6141(6)
C2_6 C 0.8416(8) 0.5882(5) 0.9295(7)
H2_6 H 0.8436 0.5967 0.9936
N4_6 N 0.8750(6) 0.5576(5) 0.8057(7)
C3_6 C 0.9716(9) 0.6561(7) 0.5016(12)
C4_6 C 0.8840(6) 0.5843(4) 0.5986(6)
C5_6 C 0.8789(6) 0.6185(4) 0.5385(7)
H4_6 H 0.8445 0.6164 0.5293
C6_6 C 0.8376(6) 0.5581(5) 0.7532(7)
C7_6 C 0.8322(7) 0.5409(5) 0.6574(7)
H5_6 H 0.7982 0.5377 0.6310
H6_6 H 0.8293 0.5044 0.6539
C8_6 C 0.8791(10) 0.5747(8) 0.8950(11)
H7_6 H 0.9078 0.5774 0.9335
C9_6 C 0.9751(9) 0.6209(7) 0.5601(9)
Ag3_6 Ag 0.74051(7) 0.60757(6) 0.93663(7)
N5_6 N 0.9235(6) 0.4525(3) 0.7849(6)
N1_7 N 0.0765(4) 0.5475(3) 0.2151(6)
C1_7 C 0.0912(5) 0.5583(5) 0.1253(8)
H1_7 H 0.0903 0.5304 0.0869
C2_7 C 0.0784(5) 0.5867(6) 0.2629(7)
H2_7 H 0.0699 0.5802 0.3270
N4_7 N 0.1090(5) 0.6507(4) 0.1391(7)
C6_7 C 0.1085(5) 0.6128(4) 0.0866(7)
C8_7 C 0.0919(8) 0.6377(6) 0.2284(11)
H7_7 H 0.0892 0.6637 0.2669
H9_5 H 0.1754 0.9040 0.0621
H10_5 H 0.1556 0.9399 0.0052
Ag3_7 Ag 0.05909(6) 0.46627(4) 0.26997(7)
N5_7 N 0.2141(3) 0.8043(5) 0.1183(6)
H3_5 H 0.9855 0.6552 0.8005
N1_8 N 0.4525(3) 0.5291(5) 0.2151(6)
C1_8 C 0.4417(5) 0.5330(7) 0.1253(8)
H1_8 H 0.4696 0.5600 0.0869
C2_8 C 0.4133(6) 0.4918(8) 0.2629(7)
H2_8 H 0.4198 0.4898 0.3270
N4_8 N 0.3493(4) 0.4584(6) 0.1391(7)
C6_8 C 0.3872(4) 0.4958(6) 0.0866(7)
C8_8 C 0.3623(6) 0.4543(10) 0.2284(11)
H7_8 H 0.3363 0.4256 0.2669
H9_6 H 0.0960 0.2715 0.0621
H10_6 H 0.0601 0.2158 0.0052
Ag3_8 Ag 0.53373(4) 0.59283(7) 0.26997(7)
N5_8 N 0.1957(5) 0.4099(6) 0.1183(6)
N2_7 N 0.3193(3) 0.4039(5) 0.9475(6)
C3_7 C 0.3512(6) 0.3618(9) 0.8350(12)
H3_6 H 0.3448 0.3304 0.8005
C4_7 C 0.3670(4) 0.4494(6) 0.9320(6)
C5_7 C 0.4063(4) 0.4545(6) 0.8719(7)
H4_7 H 0.4386 0.4889 0.8627
C7_7 C 0.3754(5) 0.5012(7) 0.9908(7)
H5_7 H 0.4062 0.5352 0.9644
H6_7 H 0.3418 0.5041 0.9873
C9_7 C 0.3125(6) 0.3583(9) 0.8935(9)
H8_5 H 0.2793 0.3242 0.8992
S1_5 S 0.1389(5) 0.2649(8) 0.9473(10)
O1_5 O 0.1847(6) 0.3193(11) 0.9460(17)
C10_5 C 0.0859(16) 0.2553(34) 1.000(3)
H11_5 H 0.0686 0.2727 0.9656
C11_5 C 0.1199(13) 0.2377(18) 0.8461(15)
H12_5 H 0.1520 0.2426 0.8114
H13_5 H 0.1027 0.2555 0.8128
H14_5 H 0.0935 0.1984 0.8526
H3_7 H 0.6696 0.0145 0.8005
N1_9 N 0.4709(5) 0.9235(4) 0.2151(6)
C1_9 C 0.4670(7) 0.9088(5) 0.1253(8)
H1_9 H 0.4400 0.9097 0.0869
C2_9 C 0.5082(8) 0.9216(5) 0.2629(7)
H2_9 H 0.5102 0.9301 0.3270
N4_9 N 0.5416(6) 0.8910(5) 0.1391(7)
C6_9 C 0.5042(6) 0.8915(5) 0.0866(7)
C8_9 C 0.5457(10) 0.9081(8) 0.2284(11)
H7_9 H 0.5744 0.9108 0.2669
H9_7 H 0.7285 0.8246 0.0621
H10_7 H 0.7842 0.8444 0.0052
Ag3_9 Ag 0.40717(7) 0.94091(6) 0.26997(7)
N5_9 N 0.5901(6) 0.7859(3) 0.1183(6)
C1_10 C 0.2421(5) 0.1084(5) 0.5414(8)
H1_10 H 0.2430 0.1363 0.5798
C2_10 C 0.2549(5) 0.0800(6) 0.4038(7)
H2_10 H 0.2634 0.0865 0.3397
N3_4 N 0.3231(5) 0.0651(4) 0.8421(7)
N4_10 N 0.2243(5) 0.0160(4) 0.5276(7)
C3_8 C 0.3228(7) 0.0179(6) 0.8317(12)
H3_8 H 0.3478 0.0115 0.8662
C4_8 C 0.2510(4) 0.0337(4) 0.7347(6)
C5_8 C 0.2852(4) 0.0730(4) 0.7948(7)
H4_8 H 0.2831 0.1053 0.8040
C6_10 C 0.2248(5) 0.0539(4) 0.5801(7)
C7_8 C 0.2076(5) 0.0421(5) 0.6759(7)
H5_8 H 0.2044 0.0729 0.7023
H6_8 H 0.1711 0.0085 0.6794
C8_10 C 0.2414(8) 0.0290(6) 0.4383(11)
H7_10 H 0.2441 0.0030 0.3998
N2_8 N 0.2488(4) 0.9860(3) 0.7192(6)
C9_8 C 0.2876(7) 0.9792(6) 0.7732(9)
H8_6 H 0.2885 0.9460 0.7675
S1_6 S 0.2074(6) 0.8056(5) 0.7194(10)
O1_6 O 0.1988(9) 0.8514(6) 0.7207(17)
C10_6 C 0.164(3) 0.7526(16) 0.667(3)
H9_8 H 0.1579 0.7627 0.6046
H10_8 H 0.1777 0.7268 0.6615
H11_6 H 0.1293 0.7353 0.7011
C11_6 C 0.2156(13) 0.7866(13) 0.8206(15)
H12_6 H 0.2428 0.8187 0.8553
H13_6 H 0.1806 0.7694 0.8539
H14_6 H 0.2285 0.7602 0.8141
N6_5 N 0.2682(4) 0.9247(6) 0.5088(7)
N2_9 N 0.0140(3) 0.2628(5) 0.7192(6)
C9_9 C 0.0208(6) 0.3084(9) 0.7732(9)
H8_7 H 0.0540 0.3425 0.7675
S1_7 S 0.1944(5) 0.4018(8) 0.7194(10)
O1_7 O 0.1486(6) 0.3474(11) 0.7207(17)
C10_7 C 0.2474(16) 0.4114(34) 0.667(3)
H9_9 H 0.2373 0.3952 0.6046
H10_9 H 0.2732 0.4509 0.6615
H11_7 H 0.2647 0.3940 0.7011
C11_7 C 0.2134(13) 0.4290(18) 0.8206(15)
H12_7 H 0.1813 0.4241 0.8553
H13_7 H 0.2306 0.4112 0.8539
H14_7 H 0.2398 0.4683 0.8141
N6_6 N 0.0753(6) 0.3436(7) 0.5088(7)
C1_11 C 0.8916(5) 0.1337(7) 0.5414(8)
H1_11 H 0.8637 0.1067 0.5798
C2_11 C 0.9200(6) 0.1749(8) 0.4038(7)
H2_11 H 0.9135 0.1769 0.3397
N3_5 N 0.9349(4) 0.2580(6) 0.8421(7)
N4_11 N 0.9840(4) 0.2083(6) 0.5276(7)
C3_9 C 0.9821(6) 0.3049(9) 0.8317(12)
H3_9 H 0.9885 0.3363 0.8662
C4_9 C 0.9663(4) 0.2173(6) 0.7347(6)
C5_9 C 0.9270(4) 0.2122(6) 0.7948(7)
H4_9 H 0.8947 0.1778 0.8040
C6_11 C 0.9461(4) 0.1709(6) 0.5801(7)
C7_9 C 0.9579(5) 0.1655(7) 0.6759(7)
H5_9 H 0.9271 0.1315 0.7023
H6_9 H 0.9915 0.1626 0.6794
C8_11 C 0.9710(6) 0.2124(10) 0.4383(11)
H7_11 H 0.9970 0.2411 0.3998
C1_12 C 0.8663(7) 0.7579(5) 0.5414(8)
H1_12 H 0.8933 0.7570 0.5798
N2_10 N 0.7372(5) 0.7512(4) 0.7192(6)
C2_12 C 0.8251(8) 0.7451(5) 0.4038(7)
H2_12 H 0.8231 0.7366 0.3397
N3_6 N 0.7420(6) 0.6769(5) 0.8421(7)
N4_12 N 0.7917(6) 0.7757(5) 0.5276(7)
C3_10 C 0.6951(9) 0.6772(7) 0.8317(12)
H3_10 H 0.6637 0.6522 0.8662
C4_10 C 0.7827(6) 0.7490(4) 0.7347(6)
C5_10 C 0.7878(6) 0.7148(4) 0.7948(7)
H4_10 H 0.8222 0.7169 0.8040
C6_12 C 0.8291(6) 0.7752(5) 0.5801(7)
C7_10 C 0.8345(7) 0.7924(5) 0.6759(7)
H5_10 H 0.8685 0.7956 0.7023
H6_10 H 0.8374 0.8289 0.6794
C8_12 C 0.7876(10) 0.7586(8) 0.4383(11)
H7_12 H 0.7589 0.7559 0.3998
C9_10 C 0.6916(9) 0.7124(7) 0.7732(9)
H8_8 H 0.6575 0.7115 0.7675
S1_8 S 0.5982(8) 0.7926(6) 0.7194(10)
O1_8 O 0.6526(11) 0.8012(9) 0.7207(17)
C10_8 C 0.5886(34) 0.836(3) 0.667(3)
H9_10 H 0.6048 0.8421 0.6046
H10_10 H 0.5491 0.8223 0.6615
H11_8 H 0.6060 0.8707 0.7011
C11_8 C 0.5710(18) 0.7844(13) 0.8206(15)
H12_8 H 0.5759 0.7572 0.8553
H13_8 H 0.5888 0.8194 0.8539
H14_8 H 0.5317 0.7715 0.8141
N6_7 N 0.6564(7) 0.7318(4) 0.5088(7)
C1_13 C 0.5754(5) 0.7751(5) 0.2081(8)
H1_13 H 0.5763 0.8030 0.2465
N2_11 N 0.5821(4) 0.6527(3) 0.3859(6)
C2_13 C 0.5882(5) 0.7467(6) 0.0705(7)
H2_13 H 0.5967 0.7532 0.0064
N4_13 N 0.5576(5) 0.6827(4) 0.1943(7)
C3_11 C 0.6561(7) 0.6846(6) 0.4984(12)
H3_11 H 0.6811 0.6782 0.5329
C4_11 C 0.5843(4) 0.7004(4) 0.4014(6)
C5_11 C 0.6185(4) 0.7397(4) 0.4615(7)
H4_11 H 0.6164 0.7720 0.4707
C6_13 C 0.5581(5) 0.7206(4) 0.2468(7)
C7_11 C 0.5409(5) 0.7088(5) 0.3426(7)
H5_11 H 0.5377 0.7396 0.3690
H6_11 H 0.5044 0.6752 0.3461
C8_13 C 0.5747(8) 0.6957(6) 0.1050(11)
H7_13 H 0.5774 0.6697 0.0665
C9_11 C 0.6209(7) 0.6459(6) 0.4399(9)
H8_9 H 0.6218 0.6127 0.4342
S1_9 S 0.5407(6) 0.4723(5) 0.3861(10)
O1_9 O 0.5321(9) 0.5181(6) 0.3874(17)
C10_9 C 0.497(3) 0.4193(16) 0.334(3)
H9_11 H 0.4912 0.4294 0.2713
H10_11 H 0.5110 0.3935 0.3282
H11_9 H 0.4626 0.4020 0.3678
C11_9 C 0.5489(13) 0.4533(13) 0.4873(15)
H12_9 H 0.5761 0.4854 0.5220
H13_9 H 0.5139 0.4361 0.5206
H14_9 H 0.5618 0.4269 0.4808
N6_8 N 0.6016(4) 0.5913(6) 0.1754(7)
C1_14 C 0.2249(5) 0.8004(7) 0.2081(8)
H1_14 H 0.1970 0.7734 0.2465
N2_12 N 0.3473(3) 0.9295(5) 0.3859(6)
C2_14 C 0.2533(6) 0.8416(8) 0.0705(7)
H2_14 H 0.2468 0.8436 0.0064
N4_14 N 0.3173(4) 0.8750(6) 0.1943(7)
C3_12 C 0.3154(6) 0.9716(9) 0.4984(12)
C4_12 C 0.2996(4) 0.8840(6) 0.4014(6)
C5_12 C 0.2603(4) 0.8789(6) 0.4615(7)
H4_12 H 0.2280 0.8445 0.4707
C6_14 C 0.2794(4) 0.8376(6) 0.2468(7)
C7_12 C 0.2912(5) 0.8322(7) 0.3426(7)
H5_12 H 0.2604 0.7982 0.3690
H6_12 H 0.3248 0.8293 0.3461
C8_14 C 0.3043(6) 0.8791(10) 0.1050(11)
H7_14 H 0.3303 0.9078 0.0665
C9_12 C 0.3541(6) 0.9751(9) 0.4399(9)
C1_15 C 0.1996(7) 0.4246(5) 0.2081(8)
H1_15 H 0.2266 0.4237 0.2465
N2_13 N 0.0705(5) 0.4179(4) 0.3859(6)
C2_15 C 0.1584(8) 0.4118(5) 0.0705(7)
H2_15 H 0.1564 0.4033 0.0064
N4_15 N 0.1250(6) 0.4424(5) 0.1943(7)
C3_13 C 0.0284(9) 0.3439(7) 0.4984(12)
C4_13 C 0.1160(6) 0.4157(4) 0.4014(6)
C5_13 C 0.1211(6) 0.3815(4) 0.4615(7)
H4_13 H 0.1555 0.3836 0.4707
C6_15 C 0.1624(6) 0.4419(5) 0.2468(7)
C7_13 C 0.1678(7) 0.4591(5) 0.3426(7)
H5_13 H 0.2018 0.4623 0.3690
H6_13 H 0.1707 0.4956 0.3461
C8_15 C 0.1209(10) 0.4253(8) 0.1050(11)
H7_15 H 0.0922 0.4226 0.0665
C9_13 C 0.0249(9) 0.3791(7) 0.4399(9)
H3_12 H 0.0145 0.3448 0.1995
C1_16 C 0.9088(5) 0.4417(5) 0.8747(8)
H1_16 H 0.9097 0.4696 0.9131
C2_16 C 0.9216(5) 0.4133(6) 0.7371(7)
H2_16 H 0.9301 0.4198 0.6730
N4_16 N 0.8910(5) 0.3493(4) 0.8609(7)
C6_16 C 0.8915(5) 0.3872(4) 0.9134(7)
C8_16 C 0.9081(8) 0.3623(6) 0.7716(11)
H7_16 H 0.9108 0.3363 0.7331
H9_12 H 0.8246 0.0960 0.9379
H10_12 H 0.8444 0.0601 0.9948
N2_14 N 0.6807(3) 0.5961(5) 0.0525(6)
C3_14 C 0.6488(6) 0.6382(9) 0.1650(12)
H3_13 H 0.6552 0.6696 0.1995
C4_14 C 0.6330(4) 0.5506(6) 0.0680(6)
C5_14 C 0.5937(4) 0.5455(6) 0.1281(7)
H4_14 H 0.5614 0.5111 0.1373
C7_14 C 0.6246(5) 0.4988(7) 0.0092(7)
H5_14 H 0.5938 0.4648 0.0356
H6_14 H 0.6582 0.4959 0.0127
C9_14 C 0.6875(6) 0.6417(9) 0.1065(9)
H8_10 H 0.7207 0.6758 0.1008
S1_10 S 0.8611(5) 0.7351(8) 0.0527(10)
O1_10 O 0.8153(6) 0.6807(11) 0.0540(17)
C10_10 C 0.9141(16) 0.7447(34) 0.000(3)
H11_10 H 0.9314 0.7273 0.0344
C11_10 C 0.8801(13) 0.7623(18) 0.1539(15)
H12_10 H 0.8480 0.7574 0.1886
H13_10 H 0.8973 0.7445 0.1872
H14_10 H 0.9065 0.8016 0.1474
C1_17 C 0.5583(5) 0.4670(7) 0.8747(8)
H1_17 H 0.5304 0.4400 0.9131
C2_17 C 0.5867(6) 0.5082(8) 0.7371(7)
H2_17 H 0.5802 0.5102 0.6730
N4_17 N 0.6507(4) 0.5416(6) 0.8609(7)
C6_17 C 0.6128(4) 0.5042(6) 0.9134(7)
C8_17 C 0.6377(6) 0.5457(10) 0.7716(11)
H7_17 H 0.6637 0.5744 0.7331
H9_13 H 0.9040 0.7285 0.9379
H10_13 H 0.9399 0.7842 0.9948
C1_18 C 0.5330(7) 0.0912(5) 0.8747(8)
H1_18 H 0.5600 0.0903 0.9131
C2_18 C 0.4918(8) 0.0784(5) 0.7371(7)
H2_18 H 0.4898 0.0699 0.6730
N4_18 N 0.4584(6) 0.1090(5) 0.8609(7)
C6_18 C 0.4958(6) 0.1085(5) 0.9134(7)
C8_18 C 0.4543(10) 0.0919(8) 0.7716(11)
H7_18 H 0.4256 0.0892 0.7331
H9_14 H 0.2715 0.1754 0.9379
H10_14 H 0.2158 0.1556 0.9948
H3_14 H 0.3304 0.9855 0.1995
H3_15 H 0.6782 0.9970 0.4671
H8_11 H 0.6127 0.9908 0.5658
S1_11 S 0.4723(5) 0.9315(8) 0.6139(10)
O1_11 O 0.5181(6) 0.9859(11) 0.6126(17)
C10_11 C 0.4193(16) 0.9219(34) 0.666(3)
H9_15 H 0.4294 0.9381 0.7287
H10_15 H 0.3935 0.8824 0.6718
H11_11 H 0.4020 0.9393 0.6322
C11_11 C 0.4533(13) 0.9043(18) 0.5127(15)
H12_11 H 0.4854 0.9092 0.4780
H13_11 H 0.4361 0.9221 0.4794
H14_11 H 0.4269 0.8650 0.5192
N6_9 N 0.5913(6) 0.9898(7) 0.8246(7)
N2_15 N 0.5961(5) 0.9155(4) 0.9475(6)
C3_15 C 0.6382(9) 0.9895(7) 0.8350(12)
C4_15 C 0.5506(6) 0.9177(4) 0.9320(6)
C5_15 C 0.5455(6) 0.9519(4) 0.8719(7)
H4_15 H 0.5111 0.9498 0.8627
C7_15 C 0.4988(7) 0.8743(5) 0.9908(7)
H5_15 H 0.4648 0.8711 0.9644
H6_15 H 0.4959 0.8378 0.9873
C9_15 C 0.6417(9) 0.9543(7) 0.8935(9)
H8_12 H 0.6758 0.9552 0.8992
S1_12 S 0.7351(8) 0.8741(6) 0.9473(10)
O1_12 O 0.6807(11) 0.8655(9) 0.9460(17)
C10_12 C 0.7447(34) 0.831(3) 1.000(3)
H11_12 H 0.7273 0.7960 0.9656
C11_12 C 0.7623(18) 0.8823(13) 0.8461(15)
H12_12 H 0.7574 0.9095 0.8114
H13_12 H 0.7445 0.8473 0.8128
H14_12 H 0.8016 0.8952 0.8526
H3_16 H 0.0030 0.6811 0.4671
H8_13 H 0.0092 0.6218 0.5658
S1_13 S 0.0685(8) 0.5407(6) 0.6139(10)
O1_13 O 0.0141(11) 0.5321(9) 0.6126(17)
C10_13 C 0.0781(34) 0.497(3) 0.666(3)
H9_16 H 0.0619 0.4912 0.7287
H10_16 H 0.1176 0.5110 0.6718
H11_13 H 0.0607 0.4626 0.6322
C11_13 C 0.0957(18) 0.5489(13) 0.5127(15)
H12_13 H 0.0908 0.5761 0.4780
H13_13 H 0.0779 0.5139 0.4794
H14_13 H 0.1350 0.5618 0.5192
N6_10 N 0.0102(7) 0.6016(4) 0.8246(7)
N2_16 N 0.0845(4) 0.6807(3) 0.9475(6)
C3_16 C 0.0105(7) 0.6488(6) 0.8350(12)
C4_16 C 0.0823(4) 0.6330(4) 0.9320(6)
C5_16 C 0.0481(4) 0.5937(4) 0.8719(7)
H4_16 H 0.0502 0.5614 0.8627
C7_16 C 0.1257(5) 0.6246(5) 0.9908(7)
H5_16 H 0.1289 0.5938 0.9644
H6_16 H 0.1622 0.6582 0.9873
C9_16 C 0.0457(7) 0.6875(6) 0.8935(9)
H8_14 H 0.0448 0.7207 0.8992
S1_14 S 0.1259(6) 0.8611(5) 0.9473(10)
O1_14 O 0.1345(9) 0.8153(6) 0.9460(17)
C10_14 C 0.169(3) 0.9141(16) 1.000(3)
H11_14 H 0.2040 0.9314 0.9656
C11_14 C 0.1177(13) 0.8801(13) 0.8461(15)
H12_14 H 0.0905 0.8480 0.8114
H13_14 H 0.1527 0.8973 0.8128
H14_14 H 0.1048 0.9065 0.8526
H3_17 H 0.3218 0.0030 0.5329
H8_15 H 0.3873 0.0092 0.4342
S1_15 S 0.5277(5) 0.0685(8) 0.3861(10)
O1_15 O 0.4819(6) 0.0141(11) 0.3874(17)
C10_15 C 0.5807(16) 0.0781(34) 0.334(3)
H9_17 H 0.5706 0.0619 0.2713
H10_17 H 0.6065 0.1176 0.3282
H11_15 H 0.5980 0.0607 0.3678
C11_15 C 0.5467(13) 0.0957(18) 0.4873(15)
H12_15 H 0.5146 0.0908 0.5220
H13_15 H 0.5639 0.0779 0.5206
H14_15 H 0.5731 0.1350 0.4808
N6_11 N 0.4087(6) 0.0102(7) 0.1754(7)
N2_17 N 0.4039(5) 0.0845(4) 0.0525(6)
C3_17 C 0.3618(9) 0.0105(7) 0.1650(12)
C4_17 C 0.4494(6) 0.0823(4) 0.0680(6)
C5_17 C 0.4545(6) 0.0481(4) 0.1281(7)
H4_17 H 0.4889 0.0502 0.1373
C7_17 C 0.5012(7) 0.1257(5) 0.0092(7)
H5_17 H 0.5352 0.1289 0.0356
H6_17 H 0.5041 0.1622 0.0127
C9_17 C 0.3583(9) 0.0457(7) 0.1065(9)
H8_16 H 0.3242 0.0448 0.1008
S1_16 S 0.2649(8) 0.1259(6) 0.0527(10)
O1_16 O 0.3193(11) 0.1345(9) 0.0540(17)
C10_16 C 0.2553(34) 0.169(3) 0.000(3)
H11_16 H 0.2727 0.2040 0.0344
C11_16 C 0.2377(18) 0.1177(13) 0.1539(15)
H12_16 H 0.2426 0.0905 0.1886
H13_16 H 0.2555 0.1527 0.1872
H14_16 H 0.1984 0.1048 0.1474
H3_18 H 0.9970 0.3189 0.5329
H8_17 H 0.9908 0.3782 0.4342
S1_17 S 0.9315(8) 0.4593(6) 0.3861(10)
O1_17 O 0.9859(11) 0.4679(9) 0.3874(17)
C10_17 C 0.9219(34) 0.503(3) 0.334(3)
H9_18 H 0.9381 0.5088 0.2713
H10_18 H 0.8824 0.4890 0.3282
H11_17 H 0.9393 0.5374 0.3678
C11_17 C 0.9043(18) 0.4511(13) 0.4873(15)
H12_17 H 0.9092 0.4239 0.5220
H13_17 H 0.9221 0.4861 0.5206
H14_17 H 0.8650 0.4382 0.4808
N6_12 N 0.9898(7) 0.3984(4) 0.1754(7)
N2_18 N 0.9155(4) 0.3193(3) 0.0525(6)
C3_18 C 0.9895(7) 0.3512(6) 0.1650(12)
C4_18 C 0.9177(4) 0.3670(4) 0.0680(6)
C5_18 C 0.9519(4) 0.4063(4) 0.1281(7)
H4_18 H 0.9498 0.4386 0.1373
C7_18 C 0.8743(5) 0.3754(5) 0.0092(7)
H5_18 H 0.8711 0.4062 0.0356
H6_18 H 0.8378 0.3418 0.0127
C9_18 C 0.9543(7) 0.3125(6) 0.1065(9)
H8_18 H 0.9552 0.2793 0.1008
S1_18 S 0.8741(6) 0.1389(5) 0.0527(10)
O1_18 O 0.8655(9) 0.1847(6) 0.0540(17)
C10_18 C 0.831(3) 0.0859(16) 0.000(3)
H11_18 H 0.7960 0.0686 0.0344
C11_18 C 0.8823(13) 0.1199(13) 0.1539(15)
H12_18 H 0.9095 0.1520 0.1886
H13_18 H 0.8473 0.1027 0.1872
H14_18 H 0.8952 0.0935 0.1474
F1 F 0.6023(6) 0.0285(5) 0.0434(9)
F2 F 0.6057(5) 0.1072(5) 0.0718(9)
F3 F 0.6617(4) 0.0896(5) 0.1343(10)
B1 B 0.6086(11) 0.0681(10) 0.1083(13)
F4 F 0.5749(6) 0.0383(9) 0.1765(10)
F1_2 F 0.9715(5) 0.5738(8) 0.0434(9)
F2_2 F 0.8928(5) 0.4985(7) 0.0718(9)
F3_2 F 0.9104(5) 0.5721(6) 0.1343(10)
B1_2 B 0.9319(10) 0.5405(15) 0.1083(13)
F4_2 F 0.9617(9) 0.5366(11) 0.1765(10)
F1_3 F 0.4262(8) 0.3977(6) 0.0434(9)
F2_3 F 0.5015(7) 0.3943(5) 0.0718(9)
F3_3 F 0.4279(6) 0.3383(4) 0.1343(10)
B1_3 B 0.4595(15) 0.3914(11) 0.1083(13)
F4_3 F 0.4634(11) 0.4251(6) 0.1765(10)
F1_4 F 0.2690(6) 0.3618(5) 0.3767(9)
F2_4 F 0.2724(5) 0.4405(5) 0.4051(9)
F3_4 F 0.3284(4) 0.4229(5) 0.4676(10)
B1_4 B 0.2753(11) 0.4014(10) 0.4416(13)
F4_4 F 0.2416(6) 0.3716(9) 0.5098(10)
F1_5 F 0.6382(5) 0.9071(8) 0.3767(9)
F2_5 F 0.5595(5) 0.8318(7) 0.4051(9)
F3_5 F 0.5771(5) 0.9054(6) 0.4676(10)
B1_5 B 0.5986(10) 0.8738(15) 0.4416(13)
F4_5 F 0.6284(9) 0.8699(11) 0.5098(10)
F1_6 F 0.0929(8) 0.7310(6) 0.3767(9)
F2_6 F 0.1682(7) 0.7276(5) 0.4051(9)
F3_6 F 0.0946(6) 0.6716(4) 0.4676(10)
B1_6 B 0.1262(15) 0.7247(11) 0.4416(13)
F4_6 F 0.1301(11) 0.7584(6) 0.5098(10)
F1_7 F 0.9356(6) 0.6952(5) 0.7101(9)
F2_7 F 0.9390(5) 0.7739(5) 0.7385(9)
F3_7 F 0.9950(4) 0.7563(5) 0.8010(10)
B1_7 B 0.9419(11) 0.7348(10) 0.7750(13)
F4_7 F 0.9082(6) 0.7050(9) 0.8432(10)
F1_8 F 0.3048(5) 0.2405(8) 0.7101(9)
F2_8 F 0.2261(5) 0.1652(7) 0.7385(9)
F3_8 F 0.2437(5) 0.2388(6) 0.8010(10)
B1_8 B 0.2652(10) 0.2072(15) 0.7750(13)
F4_8 F 0.2950(9) 0.2033(11) 0.8432(10)
F1_9 F 0.7595(8) 0.0644(6) 0.7101(9)
F2_9 F 0.8348(7) 0.0610(5) 0.7385(9)
F3_9 F 0.7612(6) 0.0050(4) 0.8010(10)
B1_9 B 0.7928(15) 0.0581(11) 0.7750(13)
F4_9 F 0.7967(11) 0.0918(6) 0.8432(10)
F1_10 F 0.3977(6) 0.9715(5) 0.9566(9)
F2_10 F 0.3943(5) 0.8928(5) 0.9282(9)
F3_10 F 0.3383(4) 0.9104(5) 0.8657(10)
B1_10 B 0.3914(11) 0.9319(10) 0.8917(13)
F4_10 F 0.4251(6) 0.9617(9) 0.8235(10)
F1_11 F 0.0285(5) 0.4262(8) 0.9566(9)
F2_11 F 0.1072(5) 0.5015(7) 0.9282(9)
F3_11 F 0.0896(5) 0.4279(6) 0.8657(10)
B1_11 B 0.0681(10) 0.4595(15) 0.8917(13)
F4_11 F 0.0383(9) 0.4634(11) 0.8235(10)
F1_12 F 0.5738(8) 0.6023(6) 0.9566(9)
F2_12 F 0.4985(7) 0.6057(5) 0.9282(9)
F3_12 F 0.5721(6) 0.6617(4) 0.8657(10)
B1_12 B 0.5405(15) 0.6086(11) 0.8917(13)
F4_12 F 0.5366(11) 0.5749(6) 0.8235(10)
F1_13 F 0.7310(6) 0.6382(5) 0.6233(9)
F2_13 F 0.7276(5) 0.5595(5) 0.5949(9)
F3_13 F 0.6716(4) 0.5771(5) 0.5324(10)
B1_13 B 0.7247(11) 0.5986(10) 0.5584(13)
F4_13 F 0.7584(6) 0.6284(9) 0.4902(10)
F1_14 F 0.3618(5) 0.0929(8) 0.6233(9)
F2_14 F 0.4405(5) 0.1682(7) 0.5949(9)
F3_14 F 0.4229(5) 0.0946(6) 0.5324(10)
B1_14 B 0.4014(10) 0.1262(15) 0.5584(13)
F4_14 F 0.3716(9) 0.1301(11) 0.4902(10)
F1_15 F 0.9071(8) 0.2690(6) 0.6233(9)
F2_15 F 0.8318(7) 0.2724(5) 0.5949(9)
F3_15 F 0.9054(6) 0.3284(4) 0.5324(10)
B1_15 B 0.8738(15) 0.2753(11) 0.5584(13)
F4_15 F 0.8699(11) 0.2416(6) 0.4902(10)
F1_16 F 0.0644(6) 0.3048(5) 0.2899(9)
F2_16 F 0.0610(5) 0.2261(5) 0.2615(9)
F3_16 F 0.0050(4) 0.2437(5) 0.1990(10)
B1_16 B 0.0581(11) 0.2652(10) 0.2250(13)
F4_16 F 0.0918(6) 0.2950(9) 0.1568(10)
F1_17 F 0.6952(5) 0.7595(8) 0.2899(9)
F2_17 F 0.7739(5) 0.8348(7) 0.2615(9)
F3_17 F 0.7563(5) 0.7612(6) 0.1990(10)
B1_17 B 0.7348(10) 0.7928(15) 0.2250(13)
F4_17 F 0.7050(9) 0.7967(11) 0.1568(10)
F1_18 F 0.2405(8) 0.9356(6) 0.2899(9)
F2_18 F 0.1652(7) 0.9390(5) 0.2615(9)
F3_18 F 0.2388(6) 0.9950(4) 0.1990(10)
B1_18 B 0.2072(15) 0.9419(11) 0.2250(13)
F4_18 F 0.2033(11) 0.9082(6) 0.1568(10)
loop_
_geom_bond_atom_site_label_1
_geom_bond_atom_site_label_2
_geom_bond_site_symmetry_1
_geom_bond_site_symmetry_2
Ag1 N2 1_555 1_555
C9 N2 1_555 1_555
H8 C9 1_555 1_555
S1 O1 1_555 1_555
O1 Ag1 1_555 1_555
C10 S1 1_555 1_555
H9 C10 1_555 1_555
H10 C10 1_555 1_555
H11 C10 1_555 1_555
C11 S1 1_555 1_555
H12 C11 1_555 1_555
H13 C11 1_555 1_555
H14 C11 1_555 1_555
N5 Ag1 1_555 1_555
N6 Ag1 1_555 1_555
N1 C1 1_555 1_555
C1 H1 1_555 1_555
C2 N1 1_555 1_555
H2 C2 1_555 1_555
N3 C3 1_555 1_555
C3 H3 1_555 1_555
C4 C5 1_555 1_555
C5 N3 1_555 1_555
H4 C5 1_555 1_555
C6 C1 1_555 1_555
C7 C4 1_555 1_555
H5 C7 1_555 1_555
H6 C7 1_555 1_555
C8 C2 1_555 1_555
H7 C8 1_555 1_555
Ag2 N3 1_555 1_555
Ag3 N1 1_555 1_555
N4 C6 1_555 1_555
N4 C8 1_555 1_555
C6 C7 1_555 1_555
N1_2 C1_2 1_555 1_555
C1_2 H1_2 1_555 1_555
C2_2 N1_2 1_555 1_555
H2_2 C2_2 1_555 1_555
N3_2 C3_2 1_555 1_555
C3_2 H3_2 1_555 1_555
C4_2 C5_2 1_555 1_555
C5_2 N3_2 1_555 1_555
H4_2 C5_2 1_555 1_555
C6_2 C1_2 1_555 1_555
C7_2 C4_2 1_555 1_555
H5_2 C7_2 1_555 1_555
H6_2 C7_2 1_555 1_555
C8_2 C2_2 1_555 1_555
H7_2 C8_2 1_555 1_555
Ag2_2 N3_2 1_555 1_555
Ag3_2 N1_2 1_555 1_555
N4_2 C6_2 1_555 1_555
N4_2 C8_2 1_555 1_555
C6_2 C7_2 1_555 1_555
Ag1_2 N2_2 1_555 1_555
C9_2 N2_2 1_555 1_555
H8_2 C9_2 1_555 1_555
S1_2 O1_2 1_555 1_555
O1_2 Ag1_2 1_555 1_555
C10_2 S1_2 1_555 1_555
H9_2 C10_2 1_555 1_555
H10_2 C10_2 1_555 1_555
H11_2 C10_2 1_555 1_555
C11_2 S1_2 1_555 1_555
H12_2 C11_2 1_555 1_555
H13_2 C11_2 1_555 1_555
H14_2 C11_2 1_555 1_555
N5_2 Ag1_2 1_555 1_555
N6_2 Ag1_2 1_555 1_555
Ag1_3 N2_3 1_555 1_555
N1_3 C1_3 1_555 1_555
C1_3 H1_3 1_555 1_555
N2_3 C4_3 1_555 1_555
C2_3 N1_3 1_555 1_555
H2_3 C2_3 1_555 1_555
N3_3 C3_3 1_555 1_555
N4_3 Ag1_3 1_555 1_555
C3_3 H3_3 1_555 1_555
C4_3 C5_3 1_555 1_555
C5_3 N3_3 1_555 1_555
H4_3 C5_3 1_555 1_555
C6_3 C1_3 1_555 1_555
C7_3 C4_3 1_555 1_555
H5_3 C7_3 1_555 1_555
H6_3 C7_3 1_555 1_555
C8_3 C2_3 1_555 1_555
H7_3 C8_3 1_555 1_555
C9_3 N2_3 1_555 1_555
H8_3 C9_3 1_555 1_555
S1_3 O1_3 1_555 1_555
O1_3 Ag1_3 1_555 1_555
C10_3 S1_3 1_555 1_555
H9_3 C10_3 1_555 1_555
H10_3 C10_3 1_555 1_555
H11_3 C10_3 1_555 1_555
C11_3 S1_3 1_555 1_555
H12_3 C11_3 1_555 1_555
H13_3 C11_3 1_555 1_555
H14_3 C11_3 1_555 1_555
Ag2_3 N3_3 1_555 1_555
Ag3_3 N1_3 1_555 1_555
N5_3 Ag1_3 1_555 1_555
N6_3 Ag1_3 1_555 1_555
N4_3 C6_3 1_555 1_555
N4_3 C8_3 1_555 1_555
C3_3 C9_3 1_555 1_555
C6_3 C7_3 1_555 1_555
Ag1_4 N2_4 1_555 1_555
N1_4 C1_4 1_555 1_555
C1_4 H1_4 1_555 1_555
N2_4 C4_4 1_555 1_555
C2_4 N1_4 1_555 1_555
H2_4 C2_4 1_555 1_555
N6_3 C3_4 1_555 1_555
N4_4 Ag1_4 1_555 1_555
C3_4 H3_4 1_555 1_555
C4_4 C5_4 1_555 1_555
C5_4 N6_3 1_555 1_555
H4_4 C5_4 1_555 1_555
C6_4 C1_4 1_555 1_555
C7_4 C4_4 1_555 1_555
H5_4 C7_4 1_555 1_555
H6_4 C7_4 1_555 1_555
C8_4 C2_4 1_555 1_555
H7_4 C8_4 1_555 1_555
C9_4 N2_4 1_555 1_555
H8_4 C9_4 1_555 1_555
S1_4 O1_4 1_555 1_555
O1_4 Ag1_4 1_555 1_555
C10_4 S1_4 1_555 1_555
H9_4 C10_4 1_555 1_555
H10_4 C10_4 1_555 1_555
H11_4 C10_4 1_555 1_555
C11_4 S1_4 1_555 1_555
H12_4 C11_4 1_555 1_555
H13_4 C11_4 1_555 1_555
H14_4 C11_4 1_555 1_555
Ag3_4 N1_4 1_555 1_555
N5_4 Ag1_4 1_555 1_555
N6_4 Ag1_4 1_555 1_555
N4_4 C6_4 1_555 1_555
N4_4 C8_4 1_555 1_555
C3_4 C9_4 1_555 1_555
C6_4 C7_4 1_555 1_555
Ag1_5 N2_5 1_555 1_555
N1_5 C1_5 1_555 1_555
C1_5 H1_5 1_555 1_555
N2_5 C4_5 1_555 1_555
C2_5 N1_5 1_555 1_555
H2_5 C2_5 1_555 1_555
N6 C3_5 1_555 1_555
N4_5 Ag1_5 1_555 1_555
C4_5 C5_5 1_555 1_555
C5_5 N6 1_555 1_555
H4_5 C5_5 1_555 1_555
C6_5 C1_5 1_555 1_555
C7_5 C4_5 1_555 1_555
H5_5 C7_5 1_555 1_555
H6_5 C7_5 1_555 1_555
C8_5 C2_5 1_555 1_555
H7_5 C8_5 1_555 1_555
C9_5 N2_5 1_555 1_555
Ag3_5 N1_5 1_555 1_555
N5_5 Ag1_5 1_555 1_555
N4_5 C6_5 1_555 1_555
N4_5 C8_5 1_555 1_555
C3_5 C9_5 1_555 1_555
C6_5 C7_5 1_555 1_555
Ag1_6 N2_6 1_555 1_555
N1_6 C1_6 1_555 1_555
C1_6 H1_6 1_555 1_555
N2_6 C4_6 1_555 1_555
C2_6 N1_6 1_555 1_555
H2_6 C2_6 1_555 1_555
N6_2 C3_6 1_555 1_555
N4_6 Ag1_6 1_555 1_555
C4_6 C5_6 1_555 1_555
C5_6 N6_2 1_555 1_555
H4_6 C5_6 1_555 1_555
C6_6 C1_6 1_555 1_555
C7_6 C4_6 1_555 1_555
H5_6 C7_6 1_555 1_555
H6_6 C7_6 1_555 1_555
C8_6 C2_6 1_555 1_555
H7_6 C8_6 1_555 1_555
C9_6 N2_6 1_555 1_555
Ag3_6 N1_6 1_555 1_555
N5_6 Ag1_6 1_555 1_555
N4_6 C6_6 1_555 1_555
N4_6 C8_6 1_555 1_555
C3_6 C9_6 1_555 1_555
C6_6 C7_6 1_555 1_555
N1_7 C1_7 1_555 1_555
C1_7 H1_7 1_555 1_555
C2_7 N1_7 1_555 1_555
H2_7 C2_7 1_555 1_555
N4_7 Ag2_2 1_555 1_555
C6_7 C1_7 1_555 1_555
C8_7 C2_7 1_555 1_555
H7_7 C8_7 1_555 1_555
Ag3_7 N1_7 1_555 1_555
N5_7 Ag2_2 1_555 1_555
N4_7 C6_7 1_555 1_555
N4_7 C8_7 1_555 1_555
N1_8 C1_8 1_555 1_555
C1_8 H1_8 1_555 1_555
C2_8 N1_8 1_555 1_555
H2_8 C2_8 1_555 1_555
N4_8 Ag2_3 1_555 1_555
C6_8 C1_8 1_555 1_555
C8_8 C2_8 1_555 1_555
H7_8 C8_8 1_555 1_555
Ag3_8 N1_8 1_555 1_555
N5_8 Ag2_3 1_555 1_555
N4_8 C6_8 1_555 1_555
N4_8 C8_8 1_555 1_555
N2_7 C4_7 1_555 1_555
N6_4 C3_7 1_555 1_555
C3_7 H3_6 1_555 1_555
C4_7 C5_7 1_555 1_555
C5_7 N6_4 1_555 1_555
H4_7 C5_7 1_555 1_555
C7_7 C4_7 1_555 1_555
H5_7 C7_7 1_555 1_555
H6_7 C7_7 1_555 1_555
C9_7 N2_7 1_555 1_555
H8_5 C9_7 1_555 1_555
S1_5 O1_5 1_555 1_555
C10_5 S1_5 1_555 1_555
H11_5 C10_5 1_555 1_555
C11_5 S1_5 1_555 1_555
H12_5 C11_5 1_555 1_555
H13_5 C11_5 1_555 1_555
H14_5 C11_5 1_555 1_555
C3_7 C9_7 1_555 1_555
N1_9 C1_9 1_555 1_555
C1_9 H1_9 1_555 1_555
C2_9 N1_9 1_555 1_555
H2_9 C2_9 1_555 1_555
N4_9 Ag2 1_555 1_555
C6_9 C1_9 1_555 1_555
C8_9 C2_9 1_555 1_555
H7_9 C8_9 1_555 1_555
Ag3_9 N1_9 1_555 1_555
N5_9 Ag2 1_555 1_555
N4_9 C6_9 1_555 1_555
N4_9 C8_9 1_555 1_555
N5_3 C1_10 1_555 1_555
C1_10 H1_10 1_555 1_555
C2_10 N5_3 1_555 1_555
H2_10 C2_10 1_555 1_555
N3_4 C3_8 1_555 1_555
C3_8 H3_8 1_555 1_555
C4_8 C5_8 1_555 1_555
C5_8 N3_4 1_555 1_555
H4_8 C5_8 1_555 1_555
C6_10 C1_10 1_555 1_555
C7_8 C4_8 1_555 1_555
H5_8 C7_8 1_555 1_555
H6_8 C7_8 1_555 1_555
C8_10 C2_10 1_555 1_555
H7_10 C8_10 1_555 1_555
Ag3_4 N3_4 1_555 1_555
N4_10 C6_10 1_555 1_555
N4_10 C8_10 1_555 1_555
C6_10 C7_8 1_555 1_555
Ag3_2 N2_8 1_555 1_555
C9_8 N2_8 1_555 1_555
H8_6 C9_8 1_555 1_555
S1_6 O1_6 1_555 1_555
O1_6 Ag3_2 1_555 1_555
C10_6 S1_6 1_555 1_555
H9_8 C10_6 1_555 1_555
H10_8 C10_6 1_555 1_555
H11_6 C10_6 1_555 1_555
C11_6 S1_6 1_555 1_555
H12_6 C11_6 1_555 1_555
H13_6 C11_6 1_555 1_555
H14_6 C11_6 1_555 1_555
N6_5 Ag3_2 1_555 1_555
Ag3_3 N2_9 1_555 1_555
C9_9 N2_9 1_555 1_555
H8_7 C9_9 1_555 1_555
S1_7 O1_7 1_555 1_555
O1_7 Ag3_3 1_555 1_555
C10_7 S1_7 1_555 1_555
H9_9 C10_7 1_555 1_555
H10_9 C10_7 1_555 1_555
H11_7 C10_7 1_555 1_555
C11_7 S1_7 1_555 1_555
H12_7 C11_7 1_555 1_555
H13_7 C11_7 1_555 1_555
H14_7 C11_7 1_555 1_555
N6_6 Ag3_3 1_555 1_555
N5 C1_11 1_555 1_555
C1_11 H1_11 1_555 1_555
C2_11 N5 1_555 1_555
H2_11 C2_11 1_555 1_555
N3_5 C3_9 1_555 1_555
C3_9 H3_9 1_555 1_555
C4_9 C5_9 1_555 1_555
C5_9 N3_5 1_555 1_555
H4_9 C5_9 1_555 1_555
C6_11 C1_11 1_555 1_555
C7_9 C4_9 1_555 1_555
H5_9 C7_9 1_555 1_555
H6_9 C7_9 1_555 1_555
C8_11 C2_11 1_555 1_555
H7_11 C8_11 1_555 1_555
Ag3_5 N3_5 1_555 1_555
N4_11 C6_11 1_555 1_555
N4_11 C8_11 1_555 1_555
C6_11 C7_9 1_555 1_555
Ag3 N2_10 1_555 1_555
N5_2 C1_12 1_555 1_555
C1_12 H1_12 1_555 1_555
N2_10 C4_10 1_555 1_555
C2_12 N5_2 1_555 1_555
H2_12 C2_12 1_555 1_555
N3_6 C3_10 1_555 1_555
N4_12 Ag3 1_555 1_555
C3_10 H3_10 1_555 1_555
C4_10 C5_10 1_555 1_555
C5_10 N3_6 1_555 1_555
H4_10 C5_10 1_555 1_555
C6_12 C1_12 1_555 1_555
C7_10 C4_10 1_555 1_555
H5_10 C7_10 1_555 1_555
H6_10 C7_10 1_555 1_555
C8_12 C2_12 1_555 1_555
H7_12 C8_12 1_555 1_555
C9_10 N2_10 1_555 1_555
H8_8 C9_10 1_555 1_555
S1_8 O1_8 1_555 1_555
O1_8 Ag3 1_555 1_555
C10_8 S1_8 1_555 1_555
H9_10 C10_8 1_555 1_555
H10_10 C10_8 1_555 1_555
H11_8 C10_8 1_555 1_555
C11_8 S1_8 1_555 1_555
H12_8 C11_8 1_555 1_555
H13_8 C11_8 1_555 1_555
H14_8 C11_8 1_555 1_555
Ag3_6 N3_6 1_555 1_555
N6_7 Ag3 1_555 1_555
N4_12 C6_12 1_555 1_555
N4_12 C8_12 1_555 1_555
C3_10 C9_10 1_555 1_555
C6_12 C7_10 1_555 1_555
Ag3_8 N2_11 1_555 1_555
N5_9 C1_13 1_555 1_555
C1_13 H1_13 1_555 1_555
N2_11 C4_11 1_555 1_555
C2_13 N5_9 1_555 1_555
H2_13 C2_13 1_555 1_555
N6_7 C3_11 1_555 1_555
N4_13 Ag3_8 1_555 1_555
C3_11 H3_11 1_555 1_555
C4_11 C5_11 1_555 1_555
C5_11 N6_7 1_555 1_555
H4_11 C5_11 1_555 1_555
C6_13 C1_13 1_555 1_555
C7_11 C4_11 1_555 1_555
H5_11 C7_11 1_555 1_555
H6_11 C7_11 1_555 1_555
C8_13 C2_13 1_555 1_555
H7_13 C8_13 1_555 1_555
C9_11 N2_11 1_555 1_555
H8_9 C9_11 1_555 1_555
S1_9 O1_9 1_555 1_555
O1_9 Ag3_8 1_555 1_555
C10_9 S1_9 1_555 1_555
H9_11 C10_9 1_555 1_555
H10_11 C10_9 1_555 1_555
H11_9 C10_9 1_555 1_555
C11_9 S1_9 1_555 1_555
H12_9 C11_9 1_555 1_555
H13_9 C11_9 1_555 1_555
H14_9 C11_9 1_555 1_555
N6_8 Ag3_8 1_555 1_555
N4_13 C6_13 1_555 1_555
N4_13 C8_13 1_555 1_555
C3_11 C9_11 1_555 1_555
C6_13 C7_11 1_555 1_555
Ag3_9 N2_12 1_555 1_555
N5_7 C1_14 1_555 1_555
C1_14 H1_14 1_555 1_555
N2_12 C4_12 1_555 1_555
C2_14 N5_7 1_555 1_555
H2_14 C2_14 1_555 1_555
N6_5 C3_12 1_555 1_555
N4_14 Ag3_9 1_555 1_555
C4_12 C5_12 1_555 1_555
C5_12 N6_5 1_555 1_555
H4_12 C5_12 1_555 1_555
C6_14 C1_14 1_555 1_555
C7_12 C4_12 1_555 1_555
H5_12 C7_12 1_555 1_555
H6_12 C7_12 1_555 1_555
C8_14 C2_14 1_555 1_555
H7_14 C8_14 1_555 1_555
C9_12 N2_12 1_555 1_555
N4_14 C6_14 1_555 1_555
N4_14 C8_14 1_555 1_555
C3_12 C9_12 1_555 1_555
C6_14 C7_12 1_555 1_555
Ag3_7 N2_13 1_555 1_555
N5_8 C1_15 1_555 1_555
C1_15 H1_15 1_555 1_555
N2_13 C4_13 1_555 1_555
C2_15 N5_8 1_555 1_555
H2_15 C2_15 1_555 1_555
N6_6 C3_13 1_555 1_555
N4_15 Ag3_7 1_555 1_555
C4_13 C5_13 1_555 1_555
C5_13 N6_6 1_555 1_555
H4_13 C5_13 1_555 1_555
C6_15 C1_15 1_555 1_555
C7_13 C4_13 1_555 1_555
H5_13 C7_13 1_555 1_555
H6_13 C7_13 1_555 1_555
C8_15 C2_15 1_555 1_555
H7_15 C8_15 1_555 1_555
C9_13 N2_13 1_555 1_555
N4_15 C6_15 1_555 1_555
N4_15 C8_15 1_555 1_555
C3_13 C9_13 1_555 1_555
C6_15 C7_13 1_555 1_555
N5_6 C1_16 1_555 1_555
C1_16 H1_16 1_555 1_555
C2_16 N5_6 1_555 1_555
H2_16 C2_16 1_555 1_555
N4_16 Ag3_5 1_555 1_555
C6_16 C1_16 1_555 1_555
C8_16 C2_16 1_555 1_555
H7_16 C8_16 1_555 1_555
N4_16 C6_16 1_555 1_555
N4_16 C8_16 1_555 1_555
N2_14 C4_14 1_555 1_555
N6_8 C3_14 1_555 1_555
C3_14 H3_13 1_555 1_555
C4_14 C5_14 1_555 1_555
C5_14 N6_8 1_555 1_555
H4_14 C5_14 1_555 1_555
C7_14 C4_14 1_555 1_555
H5_14 C7_14 1_555 1_555
H6_14 C7_14 1_555 1_555
C9_14 N2_14 1_555 1_555
H8_10 C9_14 1_555 1_555
S1_10 O1_10 1_555 1_555
C10_10 S1_10 1_555 1_555
H11_10 C10_10 1_555 1_555
C11_10 S1_10 1_555 1_555
H12_10 C11_10 1_555 1_555
H13_10 C11_10 1_555 1_555
H14_10 C11_10 1_555 1_555
C3_14 C9_14 1_555 1_555
N5_4 C1_17 1_555 1_555
C1_17 H1_17 1_555 1_555
C2_17 N5_4 1_555 1_555
H2_17 C2_17 1_555 1_555
N4_17 Ag3_6 1_555 1_555
C6_17 C1_17 1_555 1_555
C8_17 C2_17 1_555 1_555
H7_17 C8_17 1_555 1_555
N4_17 C6_17 1_555 1_555
N4_17 C8_17 1_555 1_555
N5_5 C1_18 1_555 1_555
C1_18 H1_18 1_555 1_555
C2_18 N5_5 1_555 1_555
H2_18 C2_18 1_555 1_555
N4_18 Ag3_4 1_555 1_555
C6_18 C1_18 1_555 1_555
C8_18 C2_18 1_555 1_555
H7_18 C8_18 1_555 1_555
N4_18 C6_18 1_555 1_555
N4_18 C8_18 1_555 1_555
S1_11 O1_11 1_555 1_555
C10_11 S1_11 1_555 1_555
H9_15 C10_11 1_555 1_555
H10_15 C10_11 1_555 1_555
H11_11 C10_11 1_555 1_555
C11_11 S1_11 1_555 1_555
H12_11 C11_11 1_555 1_555
H13_11 C11_11 1_555 1_555
H14_11 C11_11 1_555 1_555
N2_15 C4_15 1_555 1_555
N6_9 C3_15 1_555 1_555
C4_15 C5_15 1_555 1_555
C5_15 N6_9 1_555 1_555
H4_15 C5_15 1_555 1_555
C7_15 C4_15 1_555 1_555
H5_15 C7_15 1_555 1_555
H6_15 C7_15 1_555 1_555
C9_15 N2_15 1_555 1_555
H8_12 C9_15 1_555 1_555
S1_12 O1_12 1_555 1_555
C10_12 S1_12 1_555 1_555
H11_12 C10_12 1_555 1_555
C11_12 S1_12 1_555 1_555
H12_12 C11_12 1_555 1_555
H13_12 C11_12 1_555 1_555
H14_12 C11_12 1_555 1_555
C3_15 C9_15 1_555 1_555
S1_13 O1_13 1_555 1_555
C10_13 S1_13 1_555 1_555
H9_16 C10_13 1_555 1_555
H10_16 C10_13 1_555 1_555
H11_13 C10_13 1_555 1_555
C11_13 S1_13 1_555 1_555
H12_13 C11_13 1_555 1_555
H13_13 C11_13 1_555 1_555
H14_13 C11_13 1_555 1_555
N2_16 C4_16 1_555 1_555
N6_10 C3_16 1_555 1_555
C4_16 C5_16 1_555 1_555
C5_16 N6_10 1_555 1_555
H4_16 C5_16 1_555 1_555
C7_16 C4_16 1_555 1_555
H5_16 C7_16 1_555 1_555
H6_16 C7_16 1_555 1_555
C9_16 N2_16 1_555 1_555
H8_14 C9_16 1_555 1_555
S1_14 O1_14 1_555 1_555
C10_14 S1_14 1_555 1_555
H11_14 C10_14 1_555 1_555
C11_14 S1_14 1_555 1_555
H12_14 C11_14 1_555 1_555
H13_14 C11_14 1_555 1_555
H14_14 C11_14 1_555 1_555
C3_16 C9_16 1_555 1_555
S1_15 O1_15 1_555 1_555
C10_15 S1_15 1_555 1_555
H9_17 C10_15 1_555 1_555
H10_17 C10_15 1_555 1_555
H11_15 C10_15 1_555 1_555
C11_15 S1_15 1_555 1_555
H12_15 C11_15 1_555 1_555
H13_15 C11_15 1_555 1_555
H14_15 C11_15 1_555 1_555
N2_17 C4_17 1_555 1_555
N6_11 C3_17 1_555 1_555
C4_17 C5_17 1_555 1_555
C5_17 N6_11 1_555 1_555
H4_17 C5_17 1_555 1_555
C7_17 C4_17 1_555 1_555
H5_17 C7_17 1_555 1_555
H6_17 C7_17 1_555 1_555
C9_17 N2_17 1_555 1_555
H8_16 C9_17 1_555 1_555
S1_16 O1_16 1_555 1_555
C10_16 S1_16 1_555 1_555
H11_16 C10_16 1_555 1_555
C11_16 S1_16 1_555 1_555
H12_16 C11_16 1_555 1_555
H13_16 C11_16 1_555 1_555
H14_16 C11_16 1_555 1_555
C3_17 C9_17 1_555 1_555
S1_17 O1_17 1_555 1_555
C10_17 S1_17 1_555 1_555
H9_18 C10_17 1_555 1_555
H10_18 C10_17 1_555 1_555
H11_17 C10_17 1_555 1_555
C11_17 S1_17 1_555 1_555
H12_17 C11_17 1_555 1_555
H13_17 C11_17 1_555 1_555
H14_17 C11_17 1_555 1_555
N2_18 C4_18 1_555 1_555
N6_12 C3_18 1_555 1_555
C4_18 C5_18 1_555 1_555
C5_18 N6_12 1_555 1_555
H4_18 C5_18 1_555 1_555
C7_18 C4_18 1_555 1_555
H5_18 C7_18 1_555 1_555
H6_18 C7_18 1_555 1_555
C9_18 N2_18 1_555 1_555
H8_18 C9_18 1_555 1_555
S1_18 O1_18 1_555 1_555
C10_18 S1_18 1_555 1_555
H11_18 C10_18 1_555 1_555
C11_18 S1_18 1_555 1_555
H12_18 C11_18 1_555 1_555
H13_18 C11_18 1_555 1_555
H14_18 C11_18 1_555 1_555
C3_18 C9_18 1_555 1_555
F1 B1 1_555 1_555
F2 B1 1_555 1_555
F3 B1 1_555 1_555
B1 F4 1_555 1_555
F1_2 B1_2 1_555 1_555
F2_2 B1_2 1_555 1_555
F3_2 B1_2 1_555 1_555
B1_2 F4_2 1_555 1_555
F1_3 B1_3 1_555 1_555
F2_3 B1_3 1_555 1_555
F3_3 B1_3 1_555 1_555
B1_3 F4_3 1_555 1_555
F1_4 B1_4 1_555 1_555
F2_4 B1_4 1_555 1_555
F3_4 B1_4 1_555 1_555
B1_4 F4_4 1_555 1_555
F1_5 B1_5 1_555 1_555
F2_5 B1_5 1_555 1_555
F3_5 B1_5 1_555 1_555
B1_5 F4_5 1_555 1_555
F1_6 B1_6 1_555 1_555
F2_6 B1_6 1_555 1_555
F3_6 B1_6 1_555 1_555
B1_6 F4_6 1_555 1_555
F1_7 B1_7 1_555 1_555
F2_7 B1_7 1_555 1_555
F3_7 B1_7 1_555 1_555
B1_7 F4_7 1_555 1_555
F1_8 B1_8 1_555 1_555
F2_8 B1_8 1_555 1_555
F3_8 B1_8 1_555 1_555
B1_8 F4_8 1_555 1_555
F1_9 B1_9 1_555 1_555
F2_9 B1_9 1_555 1_555
F3_9 B1_9 1_555 1_555
B1_9 F4_9 1_555 1_555
F1_10 B1_10 1_555 1_555
F2_10 B1_10 1_555 1_555
F3_10 B1_10 1_555 1_555
B1_10 F4_10 1_555 1_555
F1_11 B1_11 1_555 1_555
F2_11 B1_11 1_555 1_555
F3_11 B1_11 1_555 1_555
B1_11 F4_11 1_555 1_555
F1_12 B1_12 1_555 1_555
F2_12 B1_12 1_555 1_555
F3_12 B1_12 1_555 1_555
B1_12 F4_12 1_555 1_555
F1_13 B1_13 1_555 1_555
F2_13 B1_13 1_555 1_555
F3_13 B1_13 1_555 1_555
B1_13 F4_13 1_555 1_555
F1_14 B1_14 1_555 1_555
F2_14 B1_14 1_555 1_555
F3_14 B1_14 1_555 1_555
B1_14 F4_14 1_555 1_555
F1_15 B1_15 1_555 1_555
F2_15 B1_15 1_555 1_555
F3_15 B1_15 1_555 1_555
B1_15 F4_15 1_555 1_555
F1_16 B1_16 1_555 1_555
F2_16 B1_16 1_555 1_555
F3_16 B1_16 1_555 1_555
B1_16 F4_16 1_555 1_555
F1_17 B1_17 1_555 1_555
F2_17 B1_17 1_555 1_555
F3_17 B1_17 1_555 1_555
B1_17 F4_17 1_555 1_555
F1_18 B1_18 1_555 1_555
F2_18 B1_18 1_555 1_555
F3_18 B1_18 1_555 1_555
B1_18 F4_18 1_555 1_555

#END
