
###############################################################################
#
# This file contains modified crystal structure data generated from the
# MOF subset of the Cambridge Structural Database (CSD) v543 
# hosted by the Cambridge Crystallographic Data Centre (CCDC).
#
# This work is licensed under the Creative Commons
# Attribution-NonCommercial-ShareAlike 4.0 International License.
# To view a copy of this license, visit
# http://creativecommons.org/licenses/by-nc-sa/4.0/
# or send a letter to
# Creative Commons, PO Box 1866, Mountain View, CA 94042, USA.
#
# CIF created using the CSD Python API on 29 September 2022
# The structure has been converted into the P1 space group
# The structure has a 3D framework
# The original CSD entry HUFJEZ is in the rhombohedral crystal system
# The framework has been calculated to contain at least 10.0% void space
# The void calculation uses a probe of radius 1.32A, grid spacing 0.4
# The framework is charged, counterions have been retained in the structure
#
###############################################################################

data_HUFJEZ
_chemical_formula_moiety         '(C162 H144 Ag18 B18 F72 N72)n'
_symmetry_cell_setting           triclinic
_symmetry_space_group_name_H-M   'P 1'
_symmetry_Int_Tables_number      1
_space_group_name_Hall           'P 1'
loop_
_symmetry_equiv_pos_site_id
_symmetry_equiv_pos_as_xyz
1 x,y,z
_cell_length_a                   28.159(2)
_cell_length_b                   28.159(2)
_cell_length_c                   11.9365(12)
_cell_angle_alpha                90
_cell_angle_beta                 90
_cell_angle_gamma                120
_cell_volume                     8196.76
loop_
_atom_site_label
_atom_site_type_symbol
_atom_site_fract_x
_atom_site_fract_y
_atom_site_fract_z
Ag1 Ag 0.58905(2) 0.06801(3) 0.19037(6)
C2 C 0.7654(3) 0.2004(3) 0.2890(9)
H2 H 0.7943 0.2279 0.2454
N1 N 0.6509(3) 0.0806(3) 0.0488(6)
C3 C 0.7170(4) 0.1669(3) 0.2395(8)
C4 C 0.6834(4) 0.1203(4) 0.3982(9)
H3 H 0.6546 0.0910 0.4388
C6 C 0.7004(4) 0.1260(4) 0.0487(8)
N3 N 0.6758(3) 0.1267(3) 0.2943(7)
C8 C 0.7322(3) 0.1545(4) 0.4529(9)
H6 H 0.7365 0.1492 0.5300
N4 N 0.7739(3) 0.1961(3) 0.3946(9)
C9 C 0.7072(4) 0.1732(4) 0.1157(8)
H7 H 0.6739 0.1764 0.1083
H8 H 0.7386 0.2073 0.0862
Ag3 Ag 0.85437(4) 0.25572(2) 0.47630(6)
N6 N 0.5294(3) 0.0889(4) 0.2721(9)
N5 N 0.5831(3) 0.9874(4) 0.2661(5)
N5_2 N 0.0126(4) 0.5956(5) 0.2661(5)
Ag1_2 Ag 0.93199(3) 0.52104(4) 0.19037(6)
C2_2 C 0.7996(3) 0.5650(4) 0.2890(9)
H2_2 H 0.7721 0.5664 0.2454
N1_2 N 0.9194(3) 0.5703(4) 0.0488(6)
C3_2 C 0.8331(3) 0.5501(5) 0.2395(8)
C4_2 C 0.8797(4) 0.5631(6) 0.3982(9)
H3_2 H 0.9090 0.5636 0.4388
C6_2 C 0.8740(4) 0.5744(6) 0.0487(8)
N3_2 N 0.8733(3) 0.5491(4) 0.2943(7)
C8_2 C 0.8455(4) 0.5777(5) 0.4529(9)
H6_2 H 0.8508 0.5873 0.5300
N4_2 N 0.8039(3) 0.5778(4) 0.3946(9)
C9_2 C 0.8268(4) 0.5340(6) 0.1157(8)
H7_2 H 0.8236 0.4975 0.1083
H8_2 H 0.7927 0.5313 0.0862
Ag3_2 Ag 0.74428(2) 0.59866(4) 0.47630(6)
N6_2 N 0.9111(4) 0.4406(5) 0.2721(9)
Ag1_3 Ag 0.47896(4) 0.41095(2) 0.19037(6)
C2_3 C 0.4350(4) 0.2346(3) 0.2890(9)
H2_3 H 0.4336 0.2057 0.2454
N1_3 N 0.4297(4) 0.3491(3) 0.0488(6)
C3_3 C 0.4499(5) 0.2830(4) 0.2395(8)
C4_3 C 0.4369(6) 0.3166(4) 0.3982(9)
H3_3 H 0.4364 0.3454 0.4388
C6_3 C 0.4256(6) 0.2996(4) 0.0487(8)
N3_3 N 0.4509(4) 0.3242(3) 0.2943(7)
C8_3 C 0.4223(5) 0.2678(3) 0.4529(9)
H6_3 H 0.4127 0.2635 0.5300
N4_3 N 0.4222(4) 0.2261(3) 0.3946(9)
C9_3 C 0.4660(6) 0.2928(4) 0.1157(8)
H7_3 H 0.5025 0.3261 0.1083
H8_3 H 0.4687 0.2614 0.0862
Ag3_3 Ag 0.40134(4) 0.14563(4) 0.47630(6)
N5_3 N 0.4044(5) 0.4169(3) 0.2661(5)
N6_3 N 0.5594(5) 0.4706(3) 0.2721(9)
C1 C 0.3924(4) 0.3555(3) 0.9909(6)
H1 H 0.3943 0.3901 0.9898
N2 N 0.3459(4) 0.2623(3) 0.9328(5)
C5 C 0.3507(4) 0.3112(3) 0.9321(6)
H4 H 0.3250 0.3166 0.8905
C7 C 0.3834(5) 0.2575(3) 0.9895(7)
H5 H 0.3814 0.2228 0.9896
Ag2 Ag 0.26532(4) 0.18771(4) 0.85704(6)
Ag1_4 Ag 0.25572(2) 0.40134(3) 0.52370(6)
C1_2 C 0.3112(3) 0.3702(3) 0.3242(6)
H1_2 H 0.2766 0.3375 0.3231
C2_4 C 0.4321(3) 0.5337(3) 0.6223(9)
H2_4 H 0.4610 0.5612 0.5787
N1_4 N 0.3176(3) 0.4139(3) 0.3821(6)
C3_4 C 0.3837(4) 0.5002(3) 0.5728(8)
C4_4 C 0.3501(4) 0.4536(4) 0.7315(9)
H3_4 H 0.3213 0.4243 0.7721
C5_2 C 0.3555(3) 0.3728(3) 0.2654(6)
H4_2 H 0.3501 0.3417 0.2238
C6_4 C 0.3671(4) 0.4593(4) 0.3820(8)
N3_4 N 0.3425(3) 0.4600(3) 0.6276(7)
C7_2 C 0.4092(3) 0.4592(4) 0.3228(7)
H5_2 H 0.4439 0.4919 0.3229
C8_4 C 0.3989(3) 0.4878(4) 0.7862(9)
H6_4 H 0.4032 0.4825 0.8633
N4_4 N 0.4406(3) 0.5294(3) 0.7279(9)
C9_4 C 0.3739(4) 0.5065(4) 0.4490(8)
H7_4 H 0.3406 0.5097 0.4416
H8_4 H 0.4053 0.5406 0.4195
Ag3_4 Ag 0.52104(4) 0.58905(2) 0.80963(6)
N5_4 N 0.2497(3) 0.3208(4) 0.5995(5)
N6_4 N 0.1961(3) 0.4222(4) 0.6054(9)
H4_3 H 0.6583 0.0083 0.2238
Ag1_5 Ag 0.59866(3) 0.85437(4) 0.52370(6)
C1_3 C 0.6298(3) 0.9409(4) 0.3242(6)
H1_3 H 0.6625 0.9390 0.3231
C2_5 C 0.4663(3) 0.8983(4) 0.6223(9)
H2_5 H 0.4388 0.8997 0.5787
N1_5 N 0.5861(3) 0.9036(4) 0.3821(6)
C3_5 C 0.4998(3) 0.8834(5) 0.5728(8)
C4_5 C 0.5464(4) 0.8964(6) 0.7315(9)
H3_5 H 0.5757 0.8969 0.7721
C5_3 C 0.6272(3) 0.9826(4) 0.2654(6)
C6_5 C 0.5407(4) 0.9077(6) 0.3820(8)
N3_5 N 0.5400(3) 0.8824(4) 0.6276(7)
C7_3 C 0.5408(4) 0.9499(5) 0.3228(7)
H5_3 H 0.5081 0.9519 0.3229
C8_5 C 0.5122(4) 0.9110(5) 0.7862(9)
H6_5 H 0.5175 0.9206 0.8633
N4_5 N 0.4706(3) 0.9111(4) 0.7279(9)
C9_5 C 0.4935(4) 0.8673(6) 0.4490(8)
H7_5 H 0.4903 0.8308 0.4416
H8_5 H 0.4594 0.8646 0.4195
Ag3_5 Ag 0.41095(2) 0.93199(4) 0.80963(6)
N5_5 N 0.6792(4) 0.9290(5) 0.5995(5)
N6_5 N 0.5778(4) 0.7739(5) 0.6054(9)
Ag1_6 Ag 0.14563(4) 0.74428(2) 0.52370(6)
C1_4 C 0.0591(4) 0.6888(3) 0.3242(6)
H1_4 H 0.0610 0.7234 0.3231
C2_6 C 0.1017(4) 0.5679(3) 0.6223(9)
H2_6 H 0.1003 0.5390 0.5787
N1_6 N 0.0964(4) 0.6824(3) 0.3821(6)
C3_6 C 0.1166(5) 0.6163(4) 0.5728(8)
C4_6 C 0.1036(6) 0.6499(4) 0.7315(9)
H3_6 H 0.1031 0.6787 0.7721
C5_4 C 0.0174(4) 0.6445(3) 0.2654(6)
C6_6 C 0.0923(6) 0.6329(4) 0.3820(8)
N3_6 N 0.1176(4) 0.6575(3) 0.6276(7)
C7_4 C 0.0501(5) 0.5908(3) 0.3228(7)
H5_4 H 0.0481 0.5561 0.3229
C8_6 C 0.0890(5) 0.6011(3) 0.7862(9)
H6_6 H 0.0794 0.5968 0.8633
N4_6 N 0.0889(4) 0.5594(3) 0.7279(9)
C9_6 C 0.1327(6) 0.6261(4) 0.4490(8)
H7_6 H 0.1692 0.6594 0.4416
H8_6 H 0.1354 0.5947 0.4195
Ag3_6 Ag 0.06801(4) 0.47896(4) 0.80963(6)
N5_6 N 0.0710(5) 0.7503(3) 0.5995(5)
N6_6 N 0.2261(5) 0.8039(3) 0.6054(9)
H4_4 H 0.9917 0.6499 0.2238
C2_7 C 0.0987(3) 0.8671(3) 0.9557(9)
H2_7 H 0.1276 0.8946 0.9121
C3_7 C 0.0503(4) 0.8336(3) 0.9062(8)
C5_5 C 0.0221(3) 0.7062(3) 0.5988(6)
H4_5 H 0.0167 0.6751 0.5572
C6_7 C 0.0337(4) 0.7927(4) 0.7154(8)
N3_7 N 0.0091(3) 0.7934(3) 0.9610(7)
C7_5 C 0.0758(3) 0.7926(4) 0.6562(7)
H5_5 H 0.1105 0.8253 0.6563
C9_7 C 0.0405(4) 0.8399(4) 0.7824(8)
H7_7 H 0.0072 0.8431 0.7750
H8_7 H 0.0719 0.8740 0.7529
C1_5 C 0.2964(3) 0.2743(4) 0.6576(6)
H1_5 H 0.3291 0.2724 0.6565
C2_8 C 0.1329(3) 0.2317(4) 0.9557(9)
H2_8 H 0.1054 0.2331 0.9121
N1_7 N 0.2527(3) 0.2370(4) 0.7155(6)
C3_8 C 0.1664(3) 0.2168(5) 0.9062(8)
C5_6 C 0.2938(3) 0.3160(4) 0.5988(6)
H4_6 H 0.3249 0.3417 0.5572
C6_8 C 0.2073(4) 0.2411(6) 0.7154(8)
N3_8 N 0.2066(3) 0.2158(4) 0.9610(7)
C7_6 C 0.2074(4) 0.2833(5) 0.6562(7)
H5_6 H 0.1747 0.2853 0.6563
C9_8 C 0.1601(4) 0.2007(6) 0.7824(8)
H7_8 H 0.1569 0.1642 0.7750
H8_8 H 0.1260 0.1980 0.7529
N6_7 N 0.2445(4) 0.1072(5) 0.9387(9)
C4_7 C 0.7702(6) 0.9833(4) 0.0649(9)
C8_7 C 0.7556(5) 0.9345(3) 0.1196(9)
H6_7 H 0.7460 0.9302 0.1967
N4_7 N 0.7555(4) 0.8928(3) 0.0613(9)
Ag3_7 Ag 0.73468(4) 0.81229(4) 0.14296(6)
C2_9 C 0.7683(4) 0.9013(3) 0.9557(9)
H2_9 H 0.7669 0.8724 0.9121
C3_9 C 0.7832(5) 0.9497(4) 0.9062(8)
C5_7 C 0.6840(4) 0.9779(3) 0.5988(6)
H4_7 H 0.6583 0.9833 0.5572
C6_9 C 0.7589(6) 0.9663(4) 0.7154(8)
N3_9 N 0.7842(4) 0.9909(3) 0.9610(7)
C7_7 C 0.7167(5) 0.9242(3) 0.6562(7)
H5_7 H 0.7147 0.8895 0.6563
C9_9 C 0.7993(6) 0.9595(4) 0.7824(8)
H7_9 H 0.8358 0.9928 0.7750
H8_9 H 0.8020 0.9281 0.7529
N5_7 N 0.4169(3) 0.0126(4) 0.7339(5)
C2_10 C 0.2346(3) 0.7996(3) 0.7110(9)
H2_10 H 0.2057 0.7721 0.7546
N1_8 N 0.3491(3) 0.9194(3) 0.9512(6)
C3_10 C 0.2830(4) 0.8331(3) 0.7605(8)
C4_8 C 0.3166(4) 0.8797(4) 0.6018(9)
H3_7 H 0.3454 0.9090 0.5612
C6_10 C 0.2996(4) 0.8740(4) 0.9513(8)
N3_10 N 0.3242(3) 0.8733(3) 0.7057(7)
C8_8 C 0.2678(3) 0.8455(4) 0.5471(9)
H6_8 H 0.2635 0.8508 0.4700
C9_10 C 0.2928(4) 0.8268(4) 0.8843(8)
H7_10 H 0.3261 0.8236 0.8917
H8_10 H 0.2614 0.7927 0.9138
C2_11 C 0.2004(3) 0.4350(4) 0.7110(9)
H2_11 H 0.2279 0.4336 0.7546
N1_9 N 0.0806(3) 0.4297(4) 0.9512(6)
C3_11 C 0.1669(3) 0.4499(5) 0.7605(8)
C4_9 C 0.1203(4) 0.4369(6) 0.6018(9)
H3_8 H 0.0910 0.4364 0.5612
C6_11 C 0.1260(4) 0.4256(6) 0.9513(8)
N3_11 N 0.1267(3) 0.4509(4) 0.7057(7)
C8_9 C 0.1545(4) 0.4223(5) 0.5471(9)
H6_9 H 0.1492 0.4127 0.4700
C9_11 C 0.1732(4) 0.4660(6) 0.8843(8)
H7_11 H 0.1764 0.5025 0.8917
H8_11 H 0.2073 0.4687 0.9138
N5_8 N 0.9874(4) 0.4044(5) 0.7339(5)
C1_6 C 0.6076(4) 0.6445(3) 0.0091(6)
H1_6 H 0.6057 0.6099 0.0102
N2_2 N 0.6541(4) 0.7377(3) 0.0672(5)
C5_8 C 0.6493(4) 0.6888(3) 0.0679(6)
H4_8 H 0.6750 0.6834 0.1095
C7_8 C 0.6166(5) 0.7425(3) 0.0105(7)
H5_8 H 0.6186 0.7772 0.0104
C2_12 C 0.5650(4) 0.7654(3) 0.7110(9)
H2_12 H 0.5664 0.7943 0.7546
N1_10 N 0.5703(4) 0.6509(3) 0.9512(6)
C3_12 C 0.5501(5) 0.7170(4) 0.7605(8)
C4_10 C 0.5631(6) 0.6834(4) 0.6018(9)
H3_9 H 0.5636 0.6546 0.5612
C6_12 C 0.5744(6) 0.7004(4) 0.9513(8)
N3_12 N 0.5491(4) 0.6758(3) 0.7057(7)
C8_10 C 0.5777(5) 0.7322(3) 0.5471(9)
H6_10 H 0.5873 0.7365 0.4700
C9_12 C 0.5340(6) 0.7072(4) 0.8843(8)
H7_12 H 0.4975 0.6739 0.8917
H8_12 H 0.5313 0.7386 0.9138
N5_9 N 0.5956(5) 0.5831(3) 0.7339(5)
C1_7 C 0.6888(3) 0.6298(3) 0.6758(6)
H1_7 H 0.7234 0.6625 0.6769
C2_13 C 0.5679(3) 0.4663(3) 0.3777(9)
H2_13 H 0.5390 0.4388 0.4213
N1_11 N 0.6824(3) 0.5861(3) 0.6179(6)
C3_13 C 0.6163(4) 0.4998(3) 0.4272(8)
C4_11 C 0.6499(4) 0.5464(4) 0.2685(9)
H3_10 H 0.6787 0.5757 0.2279
C5_9 C 0.6445(3) 0.6272(3) 0.7346(6)
H4_9 H 0.6499 0.6583 0.7762
C6_13 C 0.6329(4) 0.5407(4) 0.6180(8)
N3_13 N 0.6575(3) 0.5400(3) 0.3724(7)
C7_9 C 0.5908(3) 0.5408(4) 0.6772(7)
H5_9 H 0.5561 0.5081 0.6771
C8_11 C 0.6011(3) 0.5122(4) 0.2138(9)
H6_11 H 0.5968 0.5175 0.1367
C9_13 C 0.6261(4) 0.4935(4) 0.5510(8)
H7_13 H 0.6594 0.4903 0.5584
H8_13 H 0.5947 0.4594 0.5805
N5_10 N 0.7503(3) 0.6792(4) 0.4005(5)
C1_8 C 0.3702(3) 0.0591(4) 0.6758(6)
H1_8 H 0.3375 0.0610 0.6769
C2_14 C 0.5337(3) 0.1017(4) 0.3777(9)
H2_14 H 0.5612 0.1003 0.4213
N1_12 N 0.4139(3) 0.0964(4) 0.6179(6)
C3_14 C 0.5002(3) 0.1166(5) 0.4272(8)
C4_12 C 0.4536(4) 0.1036(6) 0.2685(9)
H3_11 H 0.4243 0.1031 0.2279
C5_10 C 0.3728(3) 0.0174(4) 0.7346(6)
C6_14 C 0.4593(4) 0.0923(6) 0.6180(8)
N3_14 N 0.4600(3) 0.1176(4) 0.3724(7)
C7_10 C 0.4592(4) 0.0501(5) 0.6772(7)
H5_10 H 0.4919 0.0481 0.6771
C8_12 C 0.4878(4) 0.0890(5) 0.2138(9)
H6_12 H 0.4825 0.0794 0.1367
C9_14 C 0.5065(4) 0.1327(6) 0.5510(8)
H7_14 H 0.5097 0.1692 0.5584
H8_14 H 0.5406 0.1354 0.5805
N5_11 N 0.3208(4) 0.0710(5) 0.4005(5)
H4_10 H 0.3417 0.9917 0.7762
H4_11 H 0.0083 0.3501 0.7762
C1_9 C 0.9409(4) 0.3112(3) 0.6758(6)
H1_9 H 0.9390 0.2766 0.6769
C2_15 C 0.8983(4) 0.4321(3) 0.3777(9)
H2_15 H 0.8997 0.4610 0.4213
N1_13 N 0.9036(4) 0.3176(3) 0.6179(6)
C3_15 C 0.8834(5) 0.3837(4) 0.4272(8)
C4_13 C 0.8964(6) 0.3501(4) 0.2685(9)
H3_12 H 0.8969 0.3213 0.2279
C5_11 C 0.9826(4) 0.3555(3) 0.7346(6)
C6_15 C 0.9077(6) 0.3671(4) 0.6180(8)
N3_15 N 0.8824(4) 0.3425(3) 0.3724(7)
C7_11 C 0.9499(5) 0.4092(3) 0.6772(7)
H5_11 H 0.9519 0.4439 0.6771
C8_13 C 0.9110(5) 0.3989(3) 0.2138(9)
H6_13 H 0.9206 0.4032 0.1367
C9_15 C 0.8673(6) 0.3739(4) 0.5510(8)
H7_15 H 0.8308 0.3406 0.5584
H8_15 H 0.8646 0.4053 0.5805
N5_12 N 0.9290(5) 0.2497(3) 0.4005(5)
C2_16 C 0.9013(3) 0.1329(3) 0.0443(9)
H2_16 H 0.8724 0.1054 0.0879
C3_16 C 0.9497(4) 0.1664(3) 0.0938(8)
C5_12 C 0.9779(3) 0.2938(3) 0.4012(6)
H4_12 H 0.9833 0.3249 0.4428
C6_16 C 0.9663(4) 0.2073(4) 0.2846(8)
N3_16 N 0.9909(3) 0.2066(3) 0.0390(7)
C7_12 C 0.9242(3) 0.2074(4) 0.3438(7)
H5_12 H 0.8895 0.1747 0.3437
C9_16 C 0.9595(4) 0.1601(4) 0.2176(8)
H7_16 H 0.9928 0.1569 0.2250
H8_16 H 0.9281 0.1260 0.2471
C1_10 C 0.7036(3) 0.7257(4) 0.3424(6)
H1_10 H 0.6709 0.7276 0.3435
C2_17 C 0.8671(3) 0.7683(4) 0.0443(9)
H2_17 H 0.8946 0.7669 0.0879
N1_14 N 0.7473(3) 0.7630(4) 0.2845(6)
C3_17 C 0.8336(3) 0.7832(5) 0.0938(8)
C5_13 C 0.7062(3) 0.6840(4) 0.4012(6)
H4_13 H 0.6751 0.6583 0.4428
C6_17 C 0.7927(4) 0.7589(6) 0.2846(8)
N3_17 N 0.7934(3) 0.7842(4) 0.0390(7)
C7_13 C 0.7926(4) 0.7167(5) 0.3438(7)
H5_13 H 0.8253 0.7147 0.3437
C9_17 C 0.8399(4) 0.7993(6) 0.2176(8)
H7_17 H 0.8431 0.8358 0.2250
H8_17 H 0.8740 0.8020 0.2471
C2_18 C 0.2317(4) 0.0987(3) 0.0443(9)
H2_18 H 0.2331 0.1276 0.0879
C3_18 C 0.2168(5) 0.0503(4) 0.0938(8)
C5_14 C 0.3160(4) 0.0221(3) 0.4012(6)
H4_14 H 0.3417 0.0167 0.4428
C6_18 C 0.2411(6) 0.0337(4) 0.2846(8)
N3_18 N 0.2158(4) 0.0091(3) 0.0390(7)
C7_14 C 0.2833(5) 0.0758(3) 0.3438(7)
H5_14 H 0.2853 0.1105 0.3437
C9_18 C 0.2007(6) 0.0405(4) 0.2176(8)
H7_18 H 0.1642 0.0072 0.2250
H8_18 H 0.1980 0.0719 0.2471
C4_14 C 0.2298(6) 0.0167(4) 0.9351(9)
C8_14 C 0.2444(5) 0.0655(3) 0.8804(9)
H6_14 H 0.2540 0.0698 0.8033
C1_11 C 0.6445(3) 0.0369(3) 0.9909(6)
H1_11 H 0.6099 0.0042 0.9898
N2_3 N 0.7377(3) 0.0836(3) 0.9328(5)
C5_15 C 0.6888(3) 0.0395(3) 0.9321(6)
H4_15 H 0.6834 0.0084 0.8905
C7_15 C 0.7425(3) 0.1259(4) 0.9895(7)
H5_15 H 0.7772 0.1586 0.9896
Ag2_2 Ag 0.81229(4) 0.07762(2) 0.85704(6)
C1_12 C 0.7257(4) 0.0222(3) 0.6576(6)
H1_12 H 0.7276 0.0568 0.6565
N1_15 N 0.7630(4) 0.0158(3) 0.7155(6)
N6_8 N 0.8928(5) 0.1372(3) 0.9387(9)
C4_15 C 0.9833(4) 0.2130(4) 0.9351(9)
C8_15 C 0.9345(3) 0.1788(4) 0.8804(9)
H6_15 H 0.9302 0.1841 0.8033
C1_13 C 0.9631(3) 0.6076(4) 0.9909(6)
H1_13 H 0.9958 0.6057 0.9898
N2_4 N 0.9164(3) 0.6541(4) 0.9328(5)
C5_16 C 0.9605(3) 0.6493(4) 0.9321(6)
H4_16 H 0.9916 0.6750 0.8905
C7_16 C 0.8741(4) 0.6166(5) 0.9895(7)
H5_16 H 0.8414 0.6186 0.9896
Ag2_3 Ag 0.92238(2) 0.73468(4) 0.85704(6)
C1_14 C 0.9778(3) 0.7036(3) 0.6576(6)
H1_14 H 0.9432 0.6709 0.6565
N1_16 N 0.9842(3) 0.7473(3) 0.7155(6)
N6_9 N 0.8628(3) 0.7555(4) 0.9387(9)
C4_16 C 0.7870(4) 0.7702(6) 0.9351(9)
H3_13 H 0.7577 0.7697 0.8945
C8_16 C 0.8212(4) 0.7556(5) 0.8804(9)
H6_16 H 0.8159 0.7460 0.8033
C4_17 C 0.0167(4) 0.7870(4) 0.0649(9)
C8_17 C 0.0655(3) 0.8212(4) 0.1196(9)
H6_17 H 0.0698 0.8159 0.1967
N4_8 N 0.1072(3) 0.8628(3) 0.0613(9)
Ag3_8 Ag 0.18771(4) 0.92238(2) 0.14296(6)
C1_15 C 0.3555(3) 0.9631(3) 0.0091(6)
H1_15 H 0.3901 0.9958 0.0102
N2_5 N 0.2623(3) 0.9164(3) 0.0672(5)
C5_17 C 0.3112(3) 0.9605(3) 0.0679(6)
H4_17 H 0.3166 0.9916 0.1095
C7_17 C 0.2575(3) 0.8741(4) 0.0105(7)
H5_17 H 0.2228 0.8414 0.0104
C1_16 C 0.2743(4) 0.9778(3) 0.3424(6)
H1_16 H 0.2724 0.9432 0.3435
N1_17 N 0.2370(4) 0.9842(3) 0.2845(6)
H3_14 H 0.9879 0.7577 0.1055
C4_18 C 0.2130(4) 0.2298(6) 0.0649(9)
H3_15 H 0.2423 0.2303 0.1055
C8_18 C 0.1788(4) 0.2444(5) 0.1196(9)
H6_18 H 0.1841 0.2540 0.1967
N4_9 N 0.1372(3) 0.2445(4) 0.0613(9)
Ag3_9 Ag 0.07762(2) 0.26532(4) 0.14296(6)
C1_17 C 0.0369(3) 0.3924(4) 0.0091(6)
H1_17 H 0.0042 0.3943 0.0102
N2_6 N 0.0836(3) 0.3459(4) 0.0672(5)
C5_18 C 0.0395(3) 0.3507(4) 0.0679(6)
H4_18 H 0.0084 0.3250 0.1095
C7_18 C 0.1259(4) 0.3834(5) 0.0105(7)
H5_18 H 0.1586 0.3814 0.0104
C1_18 C 0.0222(3) 0.2964(3) 0.3424(6)
H1_18 H 0.0568 0.3291 0.3435
N1_18 N 0.0158(3) 0.2527(3) 0.2845(6)
H3_16 H 0.7697 0.0121 0.1055
H3_17 H 0.0121 0.2423 0.8945
H3_18 H 0.2303 0.9879 0.8945
F1 F 0.5938(3) 0.0975(3) 0.6319(7)
F2 F 0.5934(3) 0.0212(3) 0.5802(6)
F3 F 0.6627(3) 0.0866(4) 0.6810(7)
B1 B 0.6062(6) 0.0576(5) 0.6606(11)
F4 F 0.5773(4) 0.0346(3) 0.7579(6)
F1_2 F 0.9025(3) 0.4963(4) 0.6319(7)
F2_2 F 0.9788(3) 0.5722(4) 0.5802(6)
F3_2 F 0.9134(4) 0.5761(5) 0.6810(7)
B1_2 B 0.9424(5) 0.5486(8) 0.6606(11)
F4_2 F 0.9654(3) 0.5427(5) 0.7579(6)
F1_3 F 0.5037(4) 0.4062(3) 0.6319(7)
F2_3 F 0.4278(4) 0.4066(3) 0.5802(6)
F3_3 F 0.4239(5) 0.3373(3) 0.6810(7)
B1_3 B 0.4514(8) 0.3938(6) 0.6606(11)
F4_3 F 0.4573(5) 0.4227(4) 0.7579(6)
F3_4 F 0.3294(3) 0.4199(4) 0.0143(7)
F4_4 F 0.2440(4) 0.3679(3) 0.0912(6)
F1_4 F 0.2605(3) 0.4308(3) 0.9652(7)
F2_4 F 0.2601(3) 0.3545(3) 0.9135(6)
B1_4 B 0.2729(6) 0.3909(5) 0.9939(11)
F3_5 F 0.5801(4) 0.9094(5) 0.0143(7)
F4_5 F 0.6321(3) 0.8760(5) 0.0912(6)
F1_5 F 0.5692(3) 0.8296(4) 0.9652(7)
F2_5 F 0.6455(3) 0.9055(4) 0.9135(6)
B1_5 B 0.6091(5) 0.8819(8) 0.9939(11)
F3_6 F 0.0906(5) 0.6706(3) 0.0143(7)
F4_6 F 0.1240(5) 0.7560(4) 0.0912(6)
F1_6 F 0.1704(4) 0.7395(3) 0.9652(7)
F2_6 F 0.0945(4) 0.7399(3) 0.9135(6)
B1_6 B 0.1181(8) 0.7271(6) 0.9939(11)
F1_7 F 0.9271(3) 0.7642(3) 0.2986(7)
F2_7 F 0.9267(3) 0.6879(3) 0.2469(6)
F3_7 F 0.9960(3) 0.7533(4) 0.3477(7)
B1_7 B 0.9395(6) 0.7243(5) 0.3273(11)
F4_7 F 0.9106(4) 0.7013(3) 0.4246(6)
F1_8 F 0.2358(3) 0.1630(4) 0.2986(7)
F2_8 F 0.3121(3) 0.2389(4) 0.2469(6)
F3_8 F 0.2467(4) 0.2428(5) 0.3477(7)
B1_8 B 0.2757(5) 0.2153(8) 0.3273(11)
F4_8 F 0.2987(3) 0.2094(5) 0.4246(6)
F1_9 F 0.8370(4) 0.0729(3) 0.2986(7)
F2_9 F 0.7611(4) 0.0733(3) 0.2469(6)
F3_9 F 0.7572(5) 0.0040(3) 0.3477(7)
B1_9 B 0.7847(8) 0.0605(6) 0.3273(11)
F4_9 F 0.7906(5) 0.0894(4) 0.4246(6)
F1_10 F 0.4062(3) 0.9025(3) 0.3681(7)
F2_10 F 0.4066(3) 0.9788(3) 0.4198(6)
F3_10 F 0.3373(3) 0.9134(4) 0.3190(7)
B1_10 B 0.3938(6) 0.9424(5) 0.3394(11)
F4_10 F 0.4227(4) 0.9654(3) 0.2421(6)
F1_11 F 0.0975(3) 0.5037(4) 0.3681(7)
F2_11 F 0.0212(3) 0.4278(4) 0.4198(6)
F3_11 F 0.0866(4) 0.4239(5) 0.3190(7)
B1_11 B 0.0576(5) 0.4514(8) 0.3394(11)
F4_11 F 0.0346(3) 0.4573(5) 0.2421(6)
F1_12 F 0.4963(4) 0.5938(3) 0.3681(7)
F2_12 F 0.5722(4) 0.5934(3) 0.4198(6)
F3_12 F 0.5761(5) 0.6627(3) 0.3190(7)
B1_12 B 0.5486(8) 0.6062(6) 0.3394(11)
F4_12 F 0.5427(5) 0.5773(4) 0.2421(6)
F1_13 F 0.7395(3) 0.5692(3) 0.0348(7)
F2_13 F 0.7399(3) 0.6455(3) 0.0865(6)
B1_13 B 0.7271(6) 0.6091(5) 0.0061(11)
F3_13 F 0.6706(3) 0.5801(4) 0.9857(7)
F4_13 F 0.7560(4) 0.6321(3) 0.9088(6)
F1_14 F 0.4308(3) 0.1704(4) 0.0348(7)
F2_14 F 0.3545(3) 0.0945(4) 0.0865(6)
B1_14 B 0.3909(5) 0.1181(8) 0.0061(11)
F3_14 F 0.4199(4) 0.0906(5) 0.9857(7)
F4_14 F 0.3679(3) 0.1240(5) 0.9088(6)
F1_15 F 0.8296(4) 0.2605(3) 0.0348(7)
F2_15 F 0.9055(4) 0.2601(3) 0.0865(6)
B1_15 B 0.8819(8) 0.2729(6) 0.0061(11)
F3_15 F 0.9094(5) 0.3294(3) 0.9857(7)
F4_15 F 0.8760(5) 0.2440(4) 0.9088(6)
F1_16 F 0.0729(3) 0.2358(3) 0.7014(7)
F2_16 F 0.0733(3) 0.3121(3) 0.7531(6)
F3_16 F 0.0040(3) 0.2467(4) 0.6523(7)
B1_16 B 0.0605(6) 0.2757(5) 0.6727(11)
F4_16 F 0.0894(4) 0.2987(3) 0.5754(6)
F1_17 F 0.7642(3) 0.8370(4) 0.7014(7)
F2_17 F 0.6879(3) 0.7611(4) 0.7531(6)
F3_17 F 0.7533(4) 0.7572(5) 0.6523(7)
B1_17 B 0.7243(5) 0.7847(8) 0.6727(11)
F4_17 F 0.7013(3) 0.7906(5) 0.5754(6)
F1_18 F 0.1630(4) 0.9271(3) 0.7014(7)
F2_18 F 0.2389(4) 0.9267(3) 0.7531(6)
F3_18 F 0.2428(5) 0.9960(3) 0.6523(7)
B1_18 B 0.2153(8) 0.9395(6) 0.6727(11)
F4_18 F 0.2094(5) 0.9106(4) 0.5754(6)
loop_
_geom_bond_atom_site_label_1
_geom_bond_atom_site_label_2
_geom_bond_site_symmetry_1
_geom_bond_site_symmetry_2
Ag1 N1 1_555 1_555
C2 H2 1_555 1_555
C3 C2 1_555 1_555
C4 H3 1_555 1_555
C6 N1 1_555 1_555
N3 Ag1 1_555 1_555
C8 C4 1_555 1_555
H6 C8 1_555 1_555
N4 C2 1_555 1_555
C9 C3 1_555 1_555
H7 C9 1_555 1_555
H8 C9 1_555 1_555
Ag3 N4 1_555 1_555
N6 Ag1 1_555 1_555
C3 N3 1_555 1_555
C4 N3 1_555 1_555
C6 C9 1_555 1_555
C8 N4 1_555 1_555
Ag1_2 N1_2 1_555 1_555
C2_2 H2_2 1_555 1_555
C3_2 C2_2 1_555 1_555
C4_2 H3_2 1_555 1_555
C6_2 N1_2 1_555 1_555
N3_2 Ag1_2 1_555 1_555
C8_2 C4_2 1_555 1_555
H6_2 C8_2 1_555 1_555
N4_2 C2_2 1_555 1_555
C9_2 C3_2 1_555 1_555
H7_2 C9_2 1_555 1_555
H8_2 C9_2 1_555 1_555
Ag3_2 N4_2 1_555 1_555
N6_2 Ag1_2 1_555 1_555
C3_2 N3_2 1_555 1_555
C4_2 N3_2 1_555 1_555
C6_2 C9_2 1_555 1_555
C8_2 N4_2 1_555 1_555
Ag1_3 N1_3 1_555 1_555
C2_3 H2_3 1_555 1_555
C3_3 C2_3 1_555 1_555
C4_3 H3_3 1_555 1_555
C6_3 N1_3 1_555 1_555
N3_3 Ag1_3 1_555 1_555
C8_3 C4_3 1_555 1_555
H6_3 C8_3 1_555 1_555
N4_3 C2_3 1_555 1_555
C9_3 C3_3 1_555 1_555
H7_3 C9_3 1_555 1_555
H8_3 C9_3 1_555 1_555
Ag3_3 N4_3 1_555 1_555
N5_3 Ag1_3 1_555 1_555
N6_3 Ag1_3 1_555 1_555
C3_3 N3_3 1_555 1_555
C4_3 N3_3 1_555 1_555
C6_3 C9_3 1_555 1_555
C8_3 N4_3 1_555 1_555
C1 H1 1_555 1_555
N2 C5 1_555 1_555
C5 C1 1_555 1_555
H4 C5 1_555 1_555
C7 N2 1_555 1_555
H5 C7 1_555 1_555
Ag2 N2 1_555 1_555
Ag1_4 N1_4 1_555 1_555
C1_2 H1_2 1_555 1_555
C2_4 H2_4 1_555 1_555
N1_4 C1_2 1_555 1_555
N5_3 C5_2 1_555 1_555
C3_4 C2_4 1_555 1_555
C4_4 H3_4 1_555 1_555
C5_2 C1_2 1_555 1_555
H4_2 C5_2 1_555 1_555
C6_4 N1_4 1_555 1_555
N3_4 Ag1_4 1_555 1_555
C7_2 N5_3 1_555 1_555
H5_2 C7_2 1_555 1_555
C8_4 C4_4 1_555 1_555
H6_4 C8_4 1_555 1_555
N4_4 C2_4 1_555 1_555
C9_4 C3_4 1_555 1_555
H7_4 C9_4 1_555 1_555
H8_4 C9_4 1_555 1_555
Ag3_4 N4_4 1_555 1_555
N5_4 Ag1_4 1_555 1_555
N6_4 Ag1_4 1_555 1_555
C3_4 N3_4 1_555 1_555
C4_4 N3_4 1_555 1_555
C6_4 C7_2 1_555 1_555
C6_4 C9_4 1_555 1_555
C8_4 N4_4 1_555 1_555
Ag1_5 N1_5 1_555 1_555
C1_3 H1_3 1_555 1_555
C2_5 H2_5 1_555 1_555
N1_5 C1_3 1_555 1_555
N5 C5_3 1_555 1_555
C3_5 C2_5 1_555 1_555
C4_5 H3_5 1_555 1_555
C5_3 C1_3 1_555 1_555
C6_5 N1_5 1_555 1_555
N3_5 Ag1_5 1_555 1_555
C7_3 N5 1_555 1_555
H5_3 C7_3 1_555 1_555
C8_5 C4_5 1_555 1_555
H6_5 C8_5 1_555 1_555
N4_5 C2_5 1_555 1_555
C9_5 C3_5 1_555 1_555
H7_5 C9_5 1_555 1_555
H8_5 C9_5 1_555 1_555
Ag3_5 N4_5 1_555 1_555
N5_5 Ag1_5 1_555 1_555
N6_5 Ag1_5 1_555 1_555
C3_5 N3_5 1_555 1_555
C4_5 N3_5 1_555 1_555
C6_5 C7_3 1_555 1_555
C6_5 C9_5 1_555 1_555
C8_5 N4_5 1_555 1_555
Ag1_6 N1_6 1_555 1_555
C1_4 H1_4 1_555 1_555
C2_6 H2_6 1_555 1_555
N1_6 C1_4 1_555 1_555
N5_2 C5_4 1_555 1_555
C3_6 C2_6 1_555 1_555
C4_6 H3_6 1_555 1_555
C5_4 C1_4 1_555 1_555
C6_6 N1_6 1_555 1_555
N3_6 Ag1_6 1_555 1_555
C7_4 N5_2 1_555 1_555
H5_4 C7_4 1_555 1_555
C8_6 C4_6 1_555 1_555
H6_6 C8_6 1_555 1_555
N4_6 C2_6 1_555 1_555
C9_6 C3_6 1_555 1_555
H7_6 C9_6 1_555 1_555
H8_6 C9_6 1_555 1_555
Ag3_6 N4_6 1_555 1_555
N5_6 Ag1_6 1_555 1_555
N6_6 Ag1_6 1_555 1_555
C3_6 N3_6 1_555 1_555
C4_6 N3_6 1_555 1_555
C6_6 C7_4 1_555 1_555
C6_6 C9_6 1_555 1_555
C8_6 N4_6 1_555 1_555
C2_7 H2_7 1_555 1_555
N5_6 C5_5 1_555 1_555
C3_7 C2_7 1_555 1_555
H4_5 C5_5 1_555 1_555
C7_5 N5_6 1_555 1_555
H5_5 C7_5 1_555 1_555
C9_7 C3_7 1_555 1_555
H7_7 C9_7 1_555 1_555
H8_7 C9_7 1_555 1_555
C3_7 N3_7 1_555 1_555
C6_7 C7_5 1_555 1_555
C6_7 C9_7 1_555 1_555
Ag2 N1_7 1_555 1_555
C1_5 H1_5 1_555 1_555
C2_8 H2_8 1_555 1_555
N1_7 C1_5 1_555 1_555
N5_4 C5_6 1_555 1_555
C3_8 C2_8 1_555 1_555
C5_6 C1_5 1_555 1_555
H4_6 C5_6 1_555 1_555
C6_8 N1_7 1_555 1_555
N3_8 Ag2 1_555 1_555
C7_6 N5_4 1_555 1_555
H5_6 C7_6 1_555 1_555
C9_8 C3_8 1_555 1_555
H7_8 C9_8 1_555 1_555
H8_8 C9_8 1_555 1_555
N6_7 Ag2 1_555 1_555
C3_8 N3_8 1_555 1_555
C6_8 C7_6 1_555 1_555
C6_8 C9_8 1_555 1_555
C8_7 C4_7 1_555 1_555
H6_7 C8_7 1_555 1_555
Ag3_7 N4_7 1_555 1_555
C8_7 N4_7 1_555 1_555
C2_9 H2_9 1_555 1_555
N5_5 C5_7 1_555 1_555
C3_9 C2_9 1_555 1_555
H4_7 C5_7 1_555 1_555
C7_7 N5_5 1_555 1_555
H5_7 C7_7 1_555 1_555
C9_9 C3_9 1_555 1_555
H7_9 C9_9 1_555 1_555
H8_9 C9_9 1_555 1_555
C3_9 N3_9 1_555 1_555
C6_9 C7_7 1_555 1_555
C6_9 C9_9 1_555 1_555
Ag3_5 N1_8 1_555 1_555
C2_10 H2_10 1_555 1_555
C3_10 C2_10 1_555 1_555
C4_8 H3_7 1_555 1_555
C6_10 N1_8 1_555 1_555
N3_10 Ag3_5 1_555 1_555
C8_8 C4_8 1_555 1_555
H6_8 C8_8 1_555 1_555
N6_6 C2_10 1_555 1_555
C9_10 C3_10 1_555 1_555
H7_10 C9_10 1_555 1_555
H8_10 C9_10 1_555 1_555
C3_10 N3_10 1_555 1_555
C4_8 N3_10 1_555 1_555
C6_10 C9_10 1_555 1_555
C8_8 N6_6 1_555 1_555
Ag3_6 N1_9 1_555 1_555
C2_11 H2_11 1_555 1_555
C3_11 C2_11 1_555 1_555
C4_9 H3_8 1_555 1_555
C6_11 N1_9 1_555 1_555
N3_11 Ag3_6 1_555 1_555
C8_9 C4_9 1_555 1_555
H6_9 C8_9 1_555 1_555
N6_4 C2_11 1_555 1_555
C9_11 C3_11 1_555 1_555
H7_11 C9_11 1_555 1_555
H8_11 C9_11 1_555 1_555
C3_11 N3_11 1_555 1_555
C4_9 N3_11 1_555 1_555
C6_11 C9_11 1_555 1_555
C8_9 N6_4 1_555 1_555
C1_6 H1_6 1_555 1_555
N2_2 C5_8 1_555 1_555
C5_8 C1_6 1_555 1_555
H4_8 C5_8 1_555 1_555
C7_8 N2_2 1_555 1_555
H5_8 C7_8 1_555 1_555
Ag3_7 N2_2 1_555 1_555
Ag3_4 N1_10 1_555 1_555
C2_12 H2_12 1_555 1_555
C3_12 C2_12 1_555 1_555
C4_10 H3_9 1_555 1_555
C6_12 N1_10 1_555 1_555
N3_12 Ag3_4 1_555 1_555
C8_10 C4_10 1_555 1_555
H6_10 C8_10 1_555 1_555
N6_5 C2_12 1_555 1_555
C9_12 C3_12 1_555 1_555
H7_12 C9_12 1_555 1_555
H8_12 C9_12 1_555 1_555
N5_9 Ag3_4 1_555 1_555
C3_12 N3_12 1_555 1_555
C4_10 N3_12 1_555 1_555
C6_12 C9_12 1_555 1_555
C8_10 N6_5 1_555 1_555
Ag3_2 N1_11 1_555 1_555
C1_7 H1_7 1_555 1_555
C2_13 H2_13 1_555 1_555
N1_11 C1_7 1_555 1_555
N5_9 C5_9 1_555 1_555
C3_13 C2_13 1_555 1_555
C4_11 H3_10 1_555 1_555
C5_9 C1_7 1_555 1_555
H4_9 C5_9 1_555 1_555
C6_13 N1_11 1_555 1_555
N3_13 Ag3_2 1_555 1_555
C7_9 N5_9 1_555 1_555
H5_9 C7_9 1_555 1_555
C8_11 C4_11 1_555 1_555
H6_11 C8_11 1_555 1_555
N6_3 C2_13 1_555 1_555
C9_13 C3_13 1_555 1_555
H7_13 C9_13 1_555 1_555
H8_13 C9_13 1_555 1_555
N5_10 Ag3_2 1_555 1_555
C3_13 N3_13 1_555 1_555
C4_11 N3_13 1_555 1_555
C6_13 C7_9 1_555 1_555
C6_13 C9_13 1_555 1_555
C8_11 N6_3 1_555 1_555
Ag3_3 N1_12 1_555 1_555
C1_8 H1_8 1_555 1_555
C2_14 H2_14 1_555 1_555
N1_12 C1_8 1_555 1_555
N5_7 C5_10 1_555 1_555
C3_14 C2_14 1_555 1_555
C4_12 H3_11 1_555 1_555
C5_10 C1_8 1_555 1_555
C6_14 N1_12 1_555 1_555
N3_14 Ag3_3 1_555 1_555
C7_10 N5_7 1_555 1_555
H5_10 C7_10 1_555 1_555
C8_12 C4_12 1_555 1_555
H6_12 C8_12 1_555 1_555
N6 C2_14 1_555 1_555
C9_14 C3_14 1_555 1_555
H7_14 C9_14 1_555 1_555
H8_14 C9_14 1_555 1_555
N5_11 Ag3_3 1_555 1_555
C3_14 N3_14 1_555 1_555
C4_12 N3_14 1_555 1_555
C6_14 C7_10 1_555 1_555
C6_14 C9_14 1_555 1_555
C8_12 N6 1_555 1_555
Ag3 N1_13 1_555 1_555
C1_9 H1_9 1_555 1_555
C2_15 H2_15 1_555 1_555
N1_13 C1_9 1_555 1_555
N5_8 C5_11 1_555 1_555
C3_15 C2_15 1_555 1_555
C4_13 H3_12 1_555 1_555
C5_11 C1_9 1_555 1_555
C6_15 N1_13 1_555 1_555
N3_15 Ag3 1_555 1_555
C7_11 N5_8 1_555 1_555
H5_11 C7_11 1_555 1_555
C8_13 C4_13 1_555 1_555
H6_13 C8_13 1_555 1_555
N6_2 C2_15 1_555 1_555
C9_15 C3_15 1_555 1_555
H7_15 C9_15 1_555 1_555
H8_15 C9_15 1_555 1_555
N5_12 Ag3 1_555 1_555
C3_15 N3_15 1_555 1_555
C4_13 N3_15 1_555 1_555
C6_15 C7_11 1_555 1_555
C6_15 C9_15 1_555 1_555
C8_13 N6_2 1_555 1_555
C2_16 H2_16 1_555 1_555
N5_12 C5_12 1_555 1_555
C3_16 C2_16 1_555 1_555
H4_12 C5_12 1_555 1_555
C7_12 N5_12 1_555 1_555
H5_12 C7_12 1_555 1_555
C9_16 C3_16 1_555 1_555
H7_16 C9_16 1_555 1_555
H8_16 C9_16 1_555 1_555
C3_16 N3_16 1_555 1_555
C6_16 C7_12 1_555 1_555
C6_16 C9_16 1_555 1_555
Ag3_7 N1_14 1_555 1_555
C1_10 H1_10 1_555 1_555
C2_17 H2_17 1_555 1_555
N1_14 C1_10 1_555 1_555
N5_10 C5_13 1_555 1_555
C3_17 C2_17 1_555 1_555
C5_13 C1_10 1_555 1_555
H4_13 C5_13 1_555 1_555
C6_17 N1_14 1_555 1_555
N3_17 Ag3_7 1_555 1_555
C7_13 N5_10 1_555 1_555
H5_13 C7_13 1_555 1_555
C9_17 C3_17 1_555 1_555
H7_17 C9_17 1_555 1_555
H8_17 C9_17 1_555 1_555
C3_17 N3_17 1_555 1_555
C6_17 C7_13 1_555 1_555
C6_17 C9_17 1_555 1_555
C2_18 H2_18 1_555 1_555
N5_11 C5_14 1_555 1_555
C3_18 C2_18 1_555 1_555
H4_14 C5_14 1_555 1_555
C7_14 N5_11 1_555 1_555
H5_14 C7_14 1_555 1_555
C9_18 C3_18 1_555 1_555
H7_18 C9_18 1_555 1_555
H8_18 C9_18 1_555 1_555
C3_18 N3_18 1_555 1_555
C6_18 C7_14 1_555 1_555
C6_18 C9_18 1_555 1_555
C8_14 C4_14 1_555 1_555
H6_14 C8_14 1_555 1_555
C8_14 N6_7 1_555 1_555
C1_11 H1_11 1_555 1_555
N2_3 C5_15 1_555 1_555
C5_15 C1_11 1_555 1_555
H4_15 C5_15 1_555 1_555
C7_15 N2_3 1_555 1_555
H5_15 C7_15 1_555 1_555
Ag2_2 N2_3 1_555 1_555
Ag2_2 N1_15 1_555 1_555
C1_12 H1_12 1_555 1_555
N1_15 C1_12 1_555 1_555
N6_8 Ag2_2 1_555 1_555
C8_15 C4_15 1_555 1_555
H6_15 C8_15 1_555 1_555
C8_15 N6_8 1_555 1_555
C1_13 H1_13 1_555 1_555
N2_4 C5_16 1_555 1_555
C5_16 C1_13 1_555 1_555
H4_16 C5_16 1_555 1_555
C7_16 N2_4 1_555 1_555
H5_16 C7_16 1_555 1_555
Ag2_3 N2_4 1_555 1_555
Ag2_3 N1_16 1_555 1_555
C1_14 H1_14 1_555 1_555
N1_16 C1_14 1_555 1_555
N6_9 Ag2_3 1_555 1_555
C4_16 H3_13 1_555 1_555
C8_16 C4_16 1_555 1_555
H6_16 C8_16 1_555 1_555
C8_16 N6_9 1_555 1_555
C8_17 C4_17 1_555 1_555
H6_17 C8_17 1_555 1_555
Ag3_8 N4_8 1_555 1_555
C8_17 N4_8 1_555 1_555
C1_15 H1_15 1_555 1_555
N2_5 C5_17 1_555 1_555
C5_17 C1_15 1_555 1_555
H4_17 C5_17 1_555 1_555
C7_17 N2_5 1_555 1_555
H5_17 C7_17 1_555 1_555
Ag3_8 N2_5 1_555 1_555
Ag3_8 N1_17 1_555 1_555
C1_16 H1_16 1_555 1_555
N1_17 C1_16 1_555 1_555
C4_18 H3_15 1_555 1_555
C8_18 C4_18 1_555 1_555
H6_18 C8_18 1_555 1_555
Ag3_9 N4_9 1_555 1_555
C8_18 N4_9 1_555 1_555
C1_17 H1_17 1_555 1_555
N2_6 C5_18 1_555 1_555
C5_18 C1_17 1_555 1_555
H4_18 C5_18 1_555 1_555
C7_18 N2_6 1_555 1_555
H5_18 C7_18 1_555 1_555
Ag3_9 N2_6 1_555 1_555
Ag3_9 N1_18 1_555 1_555
C1_18 H1_18 1_555 1_555
N1_18 C1_18 1_555 1_555
F1 B1 1_555 1_555
F2 B1 1_555 1_555
F3 B1 1_555 1_555
B1 F4 1_555 1_555
F1_2 B1_2 1_555 1_555
F2_2 B1_2 1_555 1_555
F3_2 B1_2 1_555 1_555
B1_2 F4_2 1_555 1_555
F1_3 B1_3 1_555 1_555
F2_3 B1_3 1_555 1_555
F3_3 B1_3 1_555 1_555
B1_3 F4_3 1_555 1_555
F1_4 B1_4 1_555 1_555
F2_4 B1_4 1_555 1_555
F1_5 B1_5 1_555 1_555
F2_5 B1_5 1_555 1_555
F1_6 B1_6 1_555 1_555
F2_6 B1_6 1_555 1_555
F1_7 B1_7 1_555 1_555
F2_7 B1_7 1_555 1_555
F3_7 B1_7 1_555 1_555
B1_7 F4_7 1_555 1_555
F1_8 B1_8 1_555 1_555
F2_8 B1_8 1_555 1_555
F3_8 B1_8 1_555 1_555
B1_8 F4_8 1_555 1_555
F1_9 B1_9 1_555 1_555
F2_9 B1_9 1_555 1_555
F3_9 B1_9 1_555 1_555
B1_9 F4_9 1_555 1_555
F1_10 B1_10 1_555 1_555
F2_10 B1_10 1_555 1_555
F3_10 B1_10 1_555 1_555
B1_10 F4_10 1_555 1_555
F1_11 B1_11 1_555 1_555
F2_11 B1_11 1_555 1_555
F3_11 B1_11 1_555 1_555
B1_11 F4_11 1_555 1_555
F1_12 B1_12 1_555 1_555
F2_12 B1_12 1_555 1_555
F3_12 B1_12 1_555 1_555
B1_12 F4_12 1_555 1_555
F1_13 B1_13 1_555 1_555
F2_13 B1_13 1_555 1_555
F1_14 B1_14 1_555 1_555
F2_14 B1_14 1_555 1_555
F1_15 B1_15 1_555 1_555
F2_15 B1_15 1_555 1_555
F1_16 B1_16 1_555 1_555
F2_16 B1_16 1_555 1_555
F3_16 B1_16 1_555 1_555
B1_16 F4_16 1_555 1_555
F1_17 B1_17 1_555 1_555
F2_17 B1_17 1_555 1_555
F3_17 B1_17 1_555 1_555
B1_17 F4_17 1_555 1_555
F1_18 B1_18 1_555 1_555
F2_18 B1_18 1_555 1_555
F3_18 B1_18 1_555 1_555
B1_18 F4_18 1_555 1_555

#END
