
###############################################################################
#
# This file contains modified crystal structure data generated from the
# MOF subset of the Cambridge Structural Database (CSD) v543 
# hosted by the Cambridge Crystallographic Data Centre (CCDC).
#
# This work is licensed under the Creative Commons
# Attribution-NonCommercial-ShareAlike 4.0 International License.
# To view a copy of this license, visit
# http://creativecommons.org/licenses/by-nc-sa/4.0/
# or send a letter to
# Creative Commons, PO Box 1866, Mountain View, CA 94042, USA.
#
# CIF created using the CSD Python API on 29 September 2022
# The structure has been converted into the P1 space group
# The structure has a 3D framework
# The original CSD entry HUGLIG is in the monoclinic crystal system
# The framework has been calculated to contain at least 10.0% void space
# The void calculation uses a probe of radius 1.32A, grid spacing 0.4
#
###############################################################################

data_HUGLIG
_chemical_formula_moiety         '(C144 H80 F48 In11 O36)n'
_symmetry_cell_setting           triclinic
_symmetry_space_group_name_H-M   'P 1'
_symmetry_Int_Tables_number      1
_space_group_name_Hall           'P 1'
loop_
_symmetry_equiv_pos_site_id
_symmetry_equiv_pos_as_xyz
1 x,y,z
_cell_length_a                   25.3750(13)
_cell_length_b                   13.1271(6)
_cell_length_c                   13.1893(6)
_cell_angle_alpha                90
_cell_angle_beta                 107.305(3)
_cell_angle_gamma                90
_cell_volume                     4194.49
loop_
_atom_site_label
_atom_site_type_symbol
_atom_site_fract_x
_atom_site_fract_y
_atom_site_fract_z
In4 In 0.0000 -0.0000 0.5000
In4_2 In 0.0000 1.0000 0.5000
In7 In -0.0000 0.89017(9) 0.2500
F7 F 0.6767(5) 0.1366(9) 0.0157(11)
F8 F 0.7042(5) 0.2314(8) 0.1530(12)
F9 F 0.6506(5) 0.0365(13) 0.3423(10)
F10 F 0.5894(5) 0.1244(12) 0.2306(11)
F11 F 0.6172(6) 0.2129(8) 0.0775(12)
C26 C 0.8145(8) 0.0182(13) 0.3517(14)
H16 H 0.8363 0.0288 0.4213
C30 C 0.7294(6) 0.0356(12) 0.2198(13)
F12 F 0.6654(6) 0.1927(10) 0.3156(11)
C31 C 0.7628(6) 0.0536(15) 0.3218(14)
H18 H 0.7494 0.0902 0.3693
C33 C 0.6669(8) 0.1661(14) 0.1078(19)
C34 C 0.6434(8) 0.1045(18) 0.2667(19)
C35 C 0.6688(6) 0.0718(13) 0.1776(15)
In4_3 In 1.0000 -0.0000 0.5000
F1 F 0.3233(5) 0.1366(9) 0.4843(11)
F2 F 0.2958(5) 0.2314(8) 0.3470(12)
F3 F 0.3494(5) 0.0365(13) 0.1577(10)
F4 F 0.4106(5) 0.1244(12) 0.2694(11)
F5 F 0.3828(6) 0.2129(8) 0.4225(12)
C7 C 0.1855(8) 0.0182(13) 0.1483(14)
H4 H 0.1637 0.0288 0.0787
C11 C 0.2706(6) 0.0356(12) 0.2802(13)
F6 F 0.3346(6) 0.1927(10) 0.1844(11)
C12 C 0.2372(6) 0.0536(15) 0.1782(14)
H6 H 0.2506 0.0902 0.1307
H7 H 0.4185 0.0577 0.5072
C14 C 0.3331(8) 0.1661(14) 0.3922(19)
C15 C 0.3566(8) 0.1045(18) 0.2333(19)
C16 C 0.3312(6) 0.0718(13) 0.3224(15)
H19 H 0.5815 0.0577 0.9928
In5 In -0.0000 -0.0000 0.0000
In5_2 In 0.0000 -0.0000 1.0000
O7 O 0.9204(4) 0.9368(9) 0.4139(8)
O8 O 0.9124(4) 0.8949(8) 0.2484(8)
O10 O 0.5396(4) 0.6468(7) 0.0234(7)
C21 C 0.8946(6) 0.9293(11) 0.3165(12)
C22 C 0.6318(6) 0.9814(11) 0.1204(13)
C23 C 0.6379(7) 0.8883(13) 0.1679(13)
H13 H 0.6625 0.8816 0.2357
C25 C 0.8035(6) 0.9486(12) 0.1815(12)
H15 H 0.8172 0.9142 0.1331
C27 C 0.7490(7) 0.9831(13) 0.1532(14)
H17 H 0.7259 0.9689 0.0856
C28 C 0.8364(6) 0.9672(11) 0.2841(12)
C29 C 0.5708(6) 0.8155(12) 0.0208(12)
C32 C 0.5895(7) 0.9933(12) 0.0228(14)
C36 C 0.6095(6) 0.8044(12) 0.1201(12)
H20 H 0.6159 0.7411 0.1532
In3 In 0.5000 0.5000 -0.0000
In4_4 In 1.0000 1.0000 0.5000
In7_2 In 1.0000 0.89017(9) 0.2500
In1 In 0.5000 0.5000 0.5000
In2 In 0.5000 0.60983(9) 0.7500
O1 O 0.4816(4) 0.4842(7) 0.6410(7)
O2 O 0.0796(4) 0.9368(9) 0.0861(8)
O3 O 0.0876(4) 0.8949(8) 0.2516(8)
O4 O 0.4785(4) 0.7265(7) 0.6332(7)
O5 O 0.4604(4) 0.6468(7) 0.4766(7)
C1 C 0.4574(6) 0.7228(12) 0.5348(12)
C2 C 0.1054(6) 0.9293(11) 0.1835(12)
C3 C 0.3682(6) 0.9814(11) 0.3796(13)
C4 C 0.3621(7) 0.8883(13) 0.3321(13)
H1 H 0.3375 0.8816 0.2643
C5 C 0.4399(7) 0.9101(11) 0.5279(12)
H2 H 0.4665 0.9172 0.5935
C6 C 0.1965(6) 0.9486(12) 0.3185(12)
H3 H 0.1828 0.9142 0.3669
C8 C 0.2510(7) 0.9831(13) 0.3468(14)
H5 H 0.2741 0.9689 0.4144
C9 C 0.1636(6) 0.9672(11) 0.2159(12)
C10 C 0.4292(6) 0.8155(12) 0.4792(12)
C13 C 0.4105(7) 0.9933(12) 0.4772(14)
C17 C 0.3905(6) 0.8044(12) 0.3799(12)
H8 H 0.3841 0.7411 0.3468
C18 C 0.4769(7) 0.3909(14) 0.6944(12)
H9 H 0.4818 0.3330 0.6524
H10 H 0.4407 0.3861 0.7046
O6 O 0.5184(4) 0.4842(7) 0.8590(7)
C19 C 0.5231(7) 0.3909(14) 0.8056(12)
H11 H 0.5182 0.3330 0.8476
H12 H 0.5593 0.3861 0.7954
O9 O 0.5215(4) 0.7265(7) 0.8668(7)
C20 C 0.5426(6) 0.7228(12) 0.9652(12)
C24 C 0.5601(7) 0.9101(11) 0.9721(12)
H14 H 0.5335 0.9172 0.9065
In3_2 In 0.5000 0.5000 1.0000
In5_3 In -0.0000 1.0000 0.0000
O11 O 0.5184(4) 0.5158(7) 0.3590(7)
O12 O 0.4204(4) 0.4368(9) 0.4139(8)
O13 O 0.5796(4) 0.5632(9) 0.5861(8)
O14 O 0.4124(4) 0.6051(8) 0.7484(8)
O15 O 0.5876(4) 0.6051(8) 0.7516(8)
O16 O 0.5396(4) 0.3532(7) 0.5234(7)
In5_4 In 0.0000 1.0000 1.0000
In5_5 In 1.0000 -0.0000 0.0000
In5_6 In 1.0000 -0.0000 1.0000
In5_7 In 1.0000 1.0000 0.0000
In5_8 In 1.0000 1.0000 1.0000
O11_2 O 0.4816(4) 0.5158(7) 0.1410(7)
O12_2 O 0.5796(4) 0.4368(9) 0.0861(8)
O13_2 O 0.4204(4) 0.5632(9) 0.9139(8)
O16_2 O 0.4604(4) 0.3532(7) 0.9766(7)
O8_2 O 0.4124(4) 0.3949(8) 0.2484(8)
O10_2 O 0.0396(4) 0.1468(7) 0.0234(7)
F7_2 F 0.1767(5) 0.6366(9) 0.0157(11)
F8_2 F 0.2042(5) 0.7314(8) 0.1530(12)
C21_2 C 0.3946(6) 0.4293(11) 0.3165(12)
F9_2 F 0.1506(5) 0.5365(13) 0.3423(10)
F10_2 F 0.0894(5) 0.6244(12) 0.2306(11)
C22_2 C 0.1318(6) 0.4814(11) 0.1204(13)
C23_2 C 0.1379(7) 0.3883(13) 0.1679(13)
H13_2 H 0.1625 0.3816 0.2357
F11_2 F 0.1172(6) 0.7129(8) 0.0775(12)
C25_2 C 0.3035(6) 0.4486(12) 0.1815(12)
H15_2 H 0.3172 0.4142 0.1331
C26_2 C 0.3145(8) 0.5182(13) 0.3517(14)
H16_2 H 0.3363 0.5288 0.4213
C27_2 C 0.2490(7) 0.4831(13) 0.1532(14)
H17_2 H 0.2259 0.4689 0.0856
C28_2 C 0.3364(6) 0.4672(11) 0.2841(12)
C29_2 C 0.0708(6) 0.3155(12) 0.0208(12)
C30_2 C 0.2294(6) 0.5356(12) 0.2198(13)
F12_2 F 0.1654(6) 0.6927(10) 0.3156(11)
C31_2 C 0.2628(6) 0.5536(15) 0.3218(14)
H18_2 H 0.2494 0.5902 0.3693
C32_2 C 0.0895(7) 0.4933(12) 0.0228(14)
C33_2 C 0.1669(8) 0.6661(14) 0.1078(19)
C34_2 C 0.1434(8) 0.6045(18) 0.2667(19)
C35_2 C 0.1688(6) 0.5718(13) 0.1776(15)
C36_2 C 0.1095(6) 0.3044(12) 0.1201(12)
H20_2 H 0.1159 0.2411 0.1532
In7_3 In 0.5000 0.39017(9) 0.2500
In2_2 In 0.0000 0.10983(9) 0.7500
O9_2 O 0.0215(4) 0.2265(7) 0.8668(7)
C20_2 C 0.0426(6) 0.2228(12) 0.9652(12)
C24_2 C 0.0601(7) 0.4101(11) 0.9721(12)
H14_2 H 0.0335 0.4172 0.9065
H19_2 H 0.0815 0.5577 0.9928
O11_3 O 0.0184(4) 0.0158(7) 0.3590(7)
O13_3 O 0.0796(4) 0.0632(9) 0.5861(8)
O15_2 O 0.0876(4) 0.1051(8) 0.7516(8)
O6_2 O 0.0184(4) 0.9842(7) 0.8590(7)
C19_2 C 0.0231(7) 0.8909(14) 0.8056(12)
H11_2 H 0.0182 0.8330 0.8476
H12_2 H 0.0593 0.8861 0.7954
O16_3 O 0.0396(4) 0.8532(7) 0.5234(7)
In2_3 In 1.0000 0.10983(9) 0.7500
O3_2 O 0.5876(4) 0.3949(8) 0.2516(8)
O4_2 O 0.9785(4) 0.2265(7) 0.6332(7)
O5_2 O 0.9604(4) 0.1468(7) 0.4766(7)
C1_2 C 0.9574(6) 0.2228(12) 0.5348(12)
F1_2 F 0.8233(5) 0.6366(9) 0.4843(11)
F2_2 F 0.7958(5) 0.7314(8) 0.3470(12)
C2_2 C 0.6054(6) 0.4293(11) 0.1835(12)
F3_2 F 0.8494(5) 0.5365(13) 0.1577(10)
F4_2 F 0.9106(5) 0.6244(12) 0.2694(11)
C3_2 C 0.8682(6) 0.4814(11) 0.3796(13)
C4_2 C 0.8621(7) 0.3883(13) 0.3321(13)
H1_2 H 0.8375 0.3816 0.2643
F5_2 F 0.8828(6) 0.7129(8) 0.4225(12)
C5_2 C 0.9399(7) 0.4101(11) 0.5279(12)
H2_2 H 0.9665 0.4172 0.5935
C6_2 C 0.6965(6) 0.4486(12) 0.3185(12)
H3_2 H 0.6828 0.4142 0.3669
C7_2 C 0.6855(8) 0.5182(13) 0.1483(14)
H4_2 H 0.6637 0.5288 0.0787
C8_2 C 0.7510(7) 0.4831(13) 0.3468(14)
H5_2 H 0.7741 0.4689 0.4144
C9_2 C 0.6636(6) 0.4672(11) 0.2159(12)
C10_2 C 0.9292(6) 0.3155(12) 0.4792(12)
C11_2 C 0.7706(6) 0.5356(12) 0.2802(13)
F6_2 F 0.8346(6) 0.6927(10) 0.1844(11)
C12_2 C 0.7372(6) 0.5536(15) 0.1782(14)
H6_2 H 0.7506 0.5902 0.1307
C13_2 C 0.9105(7) 0.4933(12) 0.4772(14)
H7_2 H 0.9185 0.5577 0.5072
C14_2 C 0.8331(8) 0.6661(14) 0.3922(19)
C15_2 C 0.8566(8) 0.6045(18) 0.2333(19)
C16_2 C 0.8312(6) 0.5718(13) 0.3224(15)
C17_2 C 0.8905(6) 0.3044(12) 0.3799(12)
H8_2 H 0.8841 0.2411 0.3468
O14_2 O 0.9124(4) 0.1051(8) 0.7484(8)
O1_2 O 0.9816(4) 0.9842(7) 0.6410(7)
C18_2 C 0.9769(7) 0.8909(14) 0.6944(12)
H9_2 H 0.9818 0.8330 0.6524
H10_2 H 0.9407 0.8861 0.7046
O11_4 O 0.9816(4) 0.0158(7) 0.1410(7)
O13_4 O 0.9204(4) 0.0632(9) 0.9139(8)
O16_4 O 0.9604(4) 0.8532(7) 0.9766(7)
O4_3 O 0.5215(4) 0.2735(7) 0.3668(7)
C1_3 C 0.5426(6) 0.2772(12) 0.4652(12)
C2_3 C 0.8946(6) 0.0707(11) 0.8165(12)
C3_3 C 0.6318(6) 0.0186(11) 0.6204(13)
C4_3 C 0.6379(7) 0.1117(13) 0.6679(13)
H1_3 H 0.6625 0.1184 0.7357
C5_3 C 0.5601(7) 0.0899(11) 0.4721(12)
H2_3 H 0.5335 0.0828 0.4065
C6_3 C 0.8035(6) 0.0514(12) 0.6815(12)
H3_3 H 0.8172 0.0858 0.6331
C8_3 C 0.7490(7) 0.0169(13) 0.6532(14)
H5_3 H 0.7259 0.0311 0.5856
C9_3 C 0.8364(6) 0.0328(11) 0.7841(12)
C10_3 C 0.5708(6) 0.1845(12) 0.5208(12)
C13_3 C 0.5895(7) 0.0067(12) 0.5228(14)
C17_3 C 0.6095(6) 0.1956(12) 0.6201(12)
H8_3 H 0.6159 0.2589 0.6532
C18_3 C 0.5231(7) 0.6091(14) 0.3056(12)
H9_3 H 0.5182 0.6670 0.3476
H10_3 H 0.5593 0.6139 0.2954
C19_3 C 0.4769(7) 0.6091(14) 0.1944(12)
H11_3 H 0.4818 0.6670 0.1524
H12_3 H 0.4407 0.6139 0.2046
O9_3 O 0.4785(4) 0.2735(7) 0.1332(7)
C20_3 C 0.4574(6) 0.2772(12) 0.0348(12)
C24_3 C 0.4399(7) 0.0899(11) 0.0279(12)
H14_3 H 0.4665 0.0828 0.0935
C21_3 C 0.1054(6) 0.0707(11) 0.6835(12)
C22_3 C 0.3682(6) 0.0186(11) 0.8796(13)
C23_3 C 0.3621(7) 0.1117(13) 0.8321(13)
H13_3 H 0.3375 0.1184 0.7643
C25_3 C 0.1965(6) 0.0514(12) 0.8185(12)
H15_3 H 0.1828 0.0858 0.8669
C27_3 C 0.2510(7) 0.0169(13) 0.8468(14)
H17_3 H 0.2741 0.0311 0.9144
C28_3 C 0.1636(6) 0.0328(11) 0.7159(12)
C29_3 C 0.4292(6) 0.1845(12) 0.9792(12)
C32_3 C 0.4105(7) 0.0067(12) 0.9772(14)
C36_3 C 0.3905(6) 0.1956(12) 0.8799(12)
H20_3 H 0.3841 0.2589 0.8468
F1_3 F 0.6767(5) 0.8634(9) 0.5157(11)
F2_3 F 0.7042(5) 0.7686(8) 0.6530(12)
F3_3 F 0.6506(5) 0.9635(13) 0.8423(10)
F4_3 F 0.5894(5) 0.8756(12) 0.7306(11)
F5_3 F 0.6172(6) 0.7871(8) 0.5775(12)
C7_3 C 0.8145(8) 0.9818(13) 0.8517(14)
H4_3 H 0.8363 0.9712 0.9213
C11_3 C 0.7294(6) 0.9644(12) 0.7198(13)
F6_3 F 0.6654(6) 0.8073(10) 0.8156(11)
C12_3 C 0.7628(6) 0.9464(15) 0.8218(14)
H6_3 H 0.7494 0.9098 0.8693
H7_3 H 0.5815 0.9423 0.4928
C14_3 C 0.6669(8) 0.8339(14) 0.6078(19)
C15_3 C 0.6434(8) 0.8955(18) 0.7667(19)
C16_3 C 0.6688(6) 0.9282(13) 0.6776(15)
H19_3 H 0.4185 0.9423 0.0072
F7_3 F 0.3233(5) 0.8634(9) 0.9843(11)
F8_3 F 0.2958(5) 0.7686(8) 0.8470(12)
F9_3 F 0.3494(5) 0.9635(13) 0.6577(10)
F10_3 F 0.4106(5) 0.8756(12) 0.7694(11)
F11_3 F 0.3828(6) 0.7871(8) 0.9225(12)
C26_3 C 0.1855(8) 0.9818(13) 0.6483(14)
H16_3 H 0.1637 0.9712 0.5787
C30_3 C 0.2706(6) 0.9644(12) 0.7802(13)
F12_3 F 0.3346(6) 0.8073(10) 0.6844(11)
C31_3 C 0.2372(6) 0.9464(15) 0.6782(14)
H18_3 H 0.2506 0.9098 0.6307
C33_3 C 0.3331(8) 0.8339(14) 0.8922(19)
C34_3 C 0.3566(8) 0.8955(18) 0.7333(19)
C35_3 C 0.3312(6) 0.9282(13) 0.8224(15)
C18_4 C 0.0231(7) 0.1091(14) 0.3056(12)
H9_4 H 0.0182 0.1670 0.3476
H10_4 H 0.0593 0.1139 0.2954
O4_4 O 0.0215(4) 0.7735(7) 0.3668(7)
C1_4 C 0.0426(6) 0.7772(12) 0.4652(12)
F1_4 F 0.1767(5) 0.3634(9) 0.5157(11)
F2_4 F 0.2042(5) 0.2686(8) 0.6530(12)
C2_4 C 0.3946(6) 0.5707(11) 0.8165(12)
F3_4 F 0.1506(5) 0.4635(13) 0.8423(10)
F4_4 F 0.0894(5) 0.3756(12) 0.7306(11)
C3_4 C 0.1318(6) 0.5186(11) 0.6204(13)
C4_4 C 0.1379(7) 0.6117(13) 0.6679(13)
H1_4 H 0.1625 0.6184 0.7357
F5_4 F 0.1172(6) 0.2871(8) 0.5775(12)
C5_4 C 0.0601(7) 0.5899(11) 0.4721(12)
H2_4 H 0.0335 0.5828 0.4065
C6_4 C 0.3035(6) 0.5514(12) 0.6815(12)
H3_4 H 0.3172 0.5858 0.6331
C7_4 C 0.3145(8) 0.4818(13) 0.8517(14)
H4_4 H 0.3363 0.4712 0.9213
C8_4 C 0.2490(7) 0.5169(13) 0.6532(14)
H5_4 H 0.2259 0.5311 0.5856
C9_4 C 0.3364(6) 0.5328(11) 0.7841(12)
C10_4 C 0.0708(6) 0.6845(12) 0.5208(12)
C11_4 C 0.2294(6) 0.4644(12) 0.7198(13)
F6_4 F 0.1654(6) 0.3073(10) 0.8156(11)
C12_4 C 0.2628(6) 0.4464(15) 0.8218(14)
H6_4 H 0.2494 0.4098 0.8693
C13_4 C 0.0895(7) 0.5067(12) 0.5228(14)
H7_4 H 0.0815 0.4423 0.4928
C14_4 C 0.1669(8) 0.3339(14) 0.6078(19)
C15_4 C 0.1434(8) 0.3955(18) 0.7667(19)
C16_4 C 0.1688(6) 0.4282(13) 0.6776(15)
C17_4 C 0.1095(6) 0.6956(12) 0.6201(12)
H8_4 H 0.1159 0.7589 0.6532
C19_4 C 0.9769(7) 0.1091(14) 0.1944(12)
H11_4 H 0.9818 0.1670 0.1524
H12_4 H 0.9407 0.1139 0.2046
O9_4 O 0.9785(4) 0.7735(7) 0.1332(7)
C20_4 C 0.9574(6) 0.7772(12) 0.0348(12)
C24_4 C 0.9399(7) 0.5899(11) 0.0279(12)
H14_4 H 0.9665 0.5828 0.0935
H19_4 H 0.9185 0.4423 0.0072
F7_4 F 0.8233(5) 0.3634(9) 0.9843(11)
F8_4 F 0.7958(5) 0.2686(8) 0.8470(12)
C21_4 C 0.6054(6) 0.5707(11) 0.6835(12)
F9_4 F 0.8494(5) 0.4635(13) 0.6577(10)
F10_4 F 0.9106(5) 0.3756(12) 0.7694(11)
C22_4 C 0.8682(6) 0.5186(11) 0.8796(13)
C23_4 C 0.8621(7) 0.6117(13) 0.8321(13)
H13_4 H 0.8375 0.6184 0.7643
F11_4 F 0.8828(6) 0.2871(8) 0.9225(12)
C25_4 C 0.6965(6) 0.5514(12) 0.8185(12)
H15_4 H 0.6828 0.5858 0.8669
C26_4 C 0.6855(8) 0.4818(13) 0.6483(14)
H16_4 H 0.6637 0.4712 0.5787
C27_4 C 0.7510(7) 0.5169(13) 0.8468(14)
H17_4 H 0.7741 0.5311 0.9144
C28_4 C 0.6636(6) 0.5328(11) 0.7159(12)
C29_4 C 0.9292(6) 0.6845(12) 0.9792(12)
C30_4 C 0.7706(6) 0.4644(12) 0.7802(13)
F12_4 F 0.8346(6) 0.3073(10) 0.6844(11)
C31_4 C 0.7372(6) 0.4464(15) 0.6782(14)
H18_4 H 0.7506 0.4098 0.6307
C32_4 C 0.9105(7) 0.5067(12) 0.9772(14)
C33_4 C 0.8331(8) 0.3339(14) 0.8922(19)
C34_4 C 0.8566(8) 0.3955(18) 0.7333(19)
C35_4 C 0.8312(6) 0.4282(13) 0.8224(15)
C36_4 C 0.8905(6) 0.6956(12) 0.8799(12)
H20_4 H 0.8841 0.7589 0.8468
loop_
_geom_bond_atom_site_label_1
_geom_bond_atom_site_label_2
_geom_bond_site_symmetry_1
_geom_bond_site_symmetry_2
F7 C33 1_555 1_555
F8 C33 1_555 1_555
F9 C34 1_555 1_555
F10 C34 1_555 1_555
F11 C33 1_555 1_555
C26 H16 1_555 1_555
F12 C34 1_555 1_555
C31 C26 1_555 1_555
H18 C31 1_555 1_555
C33 C35 1_555 1_555
C34 C35 1_555 1_555
C30 C31 1_555 1_555
C30 C35 1_555 1_555
F1 C14 1_555 1_555
F2 C14 1_555 1_555
F3 C15 1_555 1_555
F4 C15 1_555 1_555
F5 C14 1_555 1_555
C7 H4 1_555 1_555
F6 C15 1_555 1_555
C12 C7 1_555 1_555
H6 C12 1_555 1_555
C14 C16 1_555 1_555
C15 C16 1_555 1_555
C11 C12 1_555 1_555
C11 C16 1_555 1_555
O7 C21 1_555 1_555
O8 C21 1_555 1_555
C21 C28 1_555 1_555
C22 C23 1_555 1_555
C23 H13 1_555 1_555
C25 H15 1_555 1_555
C27 C25 1_555 1_555
H17 C27 1_555 1_555
C28 C25 1_555 1_555
C32 C22 1_555 1_555
C36 C23 1_555 1_555
H20 C36 1_555 1_555
In4_4 O7 1_555 1_555
In7_2 O8 1_555 1_555
O10 In3 1_555 1_555
C29 C36 1_555 1_555
In1 O1 1_555 1_555
In2 O1 1_555 1_555
O1 C18 1_555 1_555
O2 C2 1_555 1_555
O3 C2 1_555 1_555
O4 In2 1_555 1_555
O5 In1 1_555 1_555
C1 O4 1_555 1_555
C2 C9 1_555 1_555
C3 C4 1_555 1_555
C4 H1 1_555 1_555
C5 H2 1_555 1_555
C6 H3 1_555 1_555
C8 C6 1_555 1_555
H5 C8 1_555 1_555
C9 C6 1_555 1_555
C10 C1 1_555 1_555
C13 C3 1_555 1_555
C17 C4 1_555 1_555
H8 C17 1_555 1_555
C18 H9 1_555 1_555
H10 C18 1_555 1_555
O6 In2 1_555 1_555
C19 C18 1_555 1_555
H11 C19 1_555 1_555
H12 C19 1_555 1_555
O9 In2 1_555 1_555
C20 O9 1_555 1_555
C24 H14 1_555 1_555
In3_2 O6 1_555 1_555
In5_3 O2 1_555 1_555
In7 O3 1_555 1_555
O11 In1 1_555 1_555
O12 In1 1_555 1_555
O13 In1 1_555 1_555
O14 In2 1_555 1_555
O15 In2 1_555 1_555
O16 In1 1_555 1_555
O5 C1 1_555 1_555
C5 C10 1_555 1_555
C5 C13 1_555 1_555
C10 C17 1_555 1_555
O6 C19 1_555 1_555
O11_2 In3 1_555 1_555
O12_2 In3 1_555 1_555
O13_2 In3_2 1_555 1_555
O16_2 In3_2 1_555 1_555
O12 C21_2 1_555 1_555
O8_2 C21_2 1_555 1_555
F7_2 C33_2 1_555 1_555
F8_2 C33_2 1_555 1_555
C21_2 C28_2 1_555 1_555
F9_2 C34_2 1_555 1_555
F10_2 C34_2 1_555 1_555
C22_2 C23_2 1_555 1_555
C23_2 H13_2 1_555 1_555
F11_2 C33_2 1_555 1_555
C25_2 H15_2 1_555 1_555
C26_2 H16_2 1_555 1_555
C27_2 C25_2 1_555 1_555
H17_2 C27_2 1_555 1_555
C28_2 C25_2 1_555 1_555
C30_2 C27_2 1_555 1_555
F12_2 C34_2 1_555 1_555
C31_2 C26_2 1_555 1_555
H18_2 C31_2 1_555 1_555
C32_2 C22_2 1_555 1_555
C33_2 C35_2 1_555 1_555
C34_2 C35_2 1_555 1_555
C35_2 C22_2 1_555 1_555
C36_2 C23_2 1_555 1_555
H20_2 C36_2 1_555 1_555
In7_3 O8_2 1_555 1_555
O10_2 In5 1_555 1_555
C26_2 C28_2 1_555 1_555
C29_2 C36_2 1_555 1_555
C30_2 C31_2 1_555 1_555
C30_2 C35_2 1_555 1_555
O9_2 In2_2 1_555 1_555
C20_2 O9_2 1_555 1_555
C24_2 H14_2 1_555 1_555
O11_3 In4 1_555 1_555
O13_3 In4 1_555 1_555
O15_2 In2_2 1_555 1_555
H11_2 C19_2 1_555 1_555
H12_2 C19_2 1_555 1_555
In5_4 O6_2 1_555 1_555
O16_3 In4_2 1_555 1_555
O6_2 C19_2 1_555 1_555
O12_2 C2_2 1_555 1_555
O3_2 C2_2 1_555 1_555
O4_2 In2_3 1_555 1_555
O5_2 In4_3 1_555 1_555
C1_2 O4_2 1_555 1_555
F1_2 C14_2 1_555 1_555
F2_2 C14_2 1_555 1_555
C2_2 C9_2 1_555 1_555
F3_2 C15_2 1_555 1_555
F4_2 C15_2 1_555 1_555
C3_2 C4_2 1_555 1_555
C4_2 H1_2 1_555 1_555
F5_2 C14_2 1_555 1_555
C5_2 H2_2 1_555 1_555
C6_2 H3_2 1_555 1_555
C7_2 H4_2 1_555 1_555
C8_2 C6_2 1_555 1_555
H5_2 C8_2 1_555 1_555
C9_2 C6_2 1_555 1_555
C10_2 C1_2 1_555 1_555
C11_2 C8_2 1_555 1_555
F6_2 C15_2 1_555 1_555
C12_2 C7_2 1_555 1_555
H6_2 C12_2 1_555 1_555
C13_2 C3_2 1_555 1_555
H7_2 C13_2 1_555 1_555
C14_2 C16_2 1_555 1_555
C15_2 C16_2 1_555 1_555
C16_2 C3_2 1_555 1_555
C17_2 C4_2 1_555 1_555
H8_2 C17_2 1_555 1_555
In7_3 O3_2 1_555 1_555
O14_2 In2_3 1_555 1_555
O5_2 C1_2 1_555 1_555
C5_2 C10_2 1_555 1_555
C5_2 C13_2 1_555 1_555
C7_2 C9_2 1_555 1_555
C10_2 C17_2 1_555 1_555
C11_2 C12_2 1_555 1_555
C11_2 C16_2 1_555 1_555
In4_4 O1_2 1_555 1_555
O1_2 C18_2 1_555 1_555
C18_2 H9_2 1_555 1_555
H10_2 C18_2 1_555 1_555
O11_4 In5_5 1_555 1_555
O13_4 In5_6 1_555 1_555
O16_4 In5_8 1_555 1_555
In7_3 O11 1_555 1_555
O11 C18_3 1_555 1_555
O13_4 C2_3 1_555 1_555
O14_2 C2_3 1_555 1_555
O4_3 In7_3 1_555 1_555
C1_3 O4_3 1_555 1_555
C2_3 C9_3 1_555 1_555
C3_3 C4_3 1_555 1_555
C4_3 H1_3 1_555 1_555
C5_3 H2_3 1_555 1_555
C6_3 H3_3 1_555 1_555
C8_3 C6_3 1_555 1_555
H5_3 C8_3 1_555 1_555
C9_3 C6_3 1_555 1_555
C10_3 C1_3 1_555 1_555
C13_3 C3_3 1_555 1_555
C17_3 C4_3 1_555 1_555
H8_3 C17_3 1_555 1_555
C18_3 H9_3 1_555 1_555
H10_3 C18_3 1_555 1_555
O11_2 In7_3 1_555 1_555
C19_3 C18_3 1_555 1_555
H11_3 C19_3 1_555 1_555
H12_3 C19_3 1_555 1_555
O9_3 In7_3 1_555 1_555
C20_3 O9_3 1_555 1_555
C24_3 H14_3 1_555 1_555
O16 C1_3 1_555 1_555
C5_3 C10_3 1_555 1_555
C5_3 C13_3 1_555 1_555
C10_3 C17_3 1_555 1_555
O11_2 C19_3 1_555 1_555
O13_3 C21_3 1_555 1_555
O15_2 C21_3 1_555 1_555
C21_3 C28_3 1_555 1_555
C22_3 C23_3 1_555 1_555
C23_3 H13_3 1_555 1_555
C25_3 H15_3 1_555 1_555
C27_3 C25_3 1_555 1_555
H17_3 C27_3 1_555 1_555
C28_3 C25_3 1_555 1_555
C32_3 C22_3 1_555 1_555
C36_3 C23_3 1_555 1_555
H20_3 C36_3 1_555 1_555
C29_3 C36_3 1_555 1_555
F1_3 C14_3 1_555 1_555
F2_3 C14_3 1_555 1_555
F3_3 C15_3 1_555 1_555
F4_3 C15_3 1_555 1_555
F5_3 C14_3 1_555 1_555
C7_3 H4_3 1_555 1_555
F6_3 C15_3 1_555 1_555
C12_3 C7_3 1_555 1_555
H6_3 C12_3 1_555 1_555
C14_3 C16_3 1_555 1_555
C15_3 C16_3 1_555 1_555
C11_3 C12_3 1_555 1_555
C11_3 C16_3 1_555 1_555
F7_3 C33_3 1_555 1_555
F8_3 C33_3 1_555 1_555
F9_3 C34_3 1_555 1_555
F10_3 C34_3 1_555 1_555
F11_3 C33_3 1_555 1_555
C26_3 H16_3 1_555 1_555
F12_3 C34_3 1_555 1_555
C31_3 C26_3 1_555 1_555
H18_3 C31_3 1_555 1_555
C33_3 C35_3 1_555 1_555
C34_3 C35_3 1_555 1_555
C30_3 C31_3 1_555 1_555
C30_3 C35_3 1_555 1_555
O11_3 C18_4 1_555 1_555
C18_4 H9_4 1_555 1_555
H10_4 C18_4 1_555 1_555
O13_2 C2_4 1_555 1_555
O14 C2_4 1_555 1_555
O4_4 In7 1_555 1_555
C1_4 O4_4 1_555 1_555
F1_4 C14_4 1_555 1_555
F2_4 C14_4 1_555 1_555
C2_4 C9_4 1_555 1_555
F3_4 C15_4 1_555 1_555
F4_4 C15_4 1_555 1_555
C3_4 C4_4 1_555 1_555
C4_4 H1_4 1_555 1_555
F5_4 C14_4 1_555 1_555
C5_4 H2_4 1_555 1_555
C6_4 H3_4 1_555 1_555
C7_4 H4_4 1_555 1_555
C8_4 C6_4 1_555 1_555
H5_4 C8_4 1_555 1_555
C9_4 C6_4 1_555 1_555
C10_4 C1_4 1_555 1_555
C11_4 C8_4 1_555 1_555
F6_4 C15_4 1_555 1_555
C12_4 C7_4 1_555 1_555
H6_4 C12_4 1_555 1_555
C13_4 C3_4 1_555 1_555
H7_4 C13_4 1_555 1_555
C14_4 C16_4 1_555 1_555
C15_4 C16_4 1_555 1_555
C16_4 C3_4 1_555 1_555
C17_4 C4_4 1_555 1_555
H8_4 C17_4 1_555 1_555
O16_3 C1_4 1_555 1_555
C5_4 C10_4 1_555 1_555
C5_4 C13_4 1_555 1_555
C7_4 C9_4 1_555 1_555
C10_4 C17_4 1_555 1_555
C11_4 C12_4 1_555 1_555
C11_4 C16_4 1_555 1_555
H11_4 C19_4 1_555 1_555
H12_4 C19_4 1_555 1_555
O11_4 C19_4 1_555 1_555
O9_4 In7_2 1_555 1_555
C20_4 O9_4 1_555 1_555
C24_4 H14_4 1_555 1_555
O13 C21_4 1_555 1_555
O15 C21_4 1_555 1_555
F7_4 C33_4 1_555 1_555
F8_4 C33_4 1_555 1_555
C21_4 C28_4 1_555 1_555
F9_4 C34_4 1_555 1_555
F10_4 C34_4 1_555 1_555
C22_4 C23_4 1_555 1_555
C23_4 H13_4 1_555 1_555
F11_4 C33_4 1_555 1_555
C25_4 H15_4 1_555 1_555
C26_4 H16_4 1_555 1_555
C27_4 C25_4 1_555 1_555
H17_4 C27_4 1_555 1_555
C28_4 C25_4 1_555 1_555
C30_4 C27_4 1_555 1_555
F12_4 C34_4 1_555 1_555
C31_4 C26_4 1_555 1_555
H18_4 C31_4 1_555 1_555
C32_4 C22_4 1_555 1_555
C33_4 C35_4 1_555 1_555
C34_4 C35_4 1_555 1_555
C35_4 C22_4 1_555 1_555
C36_4 C23_4 1_555 1_555
H20_4 C36_4 1_555 1_555
C26_4 C28_4 1_555 1_555
C29_4 C36_4 1_555 1_555
C30_4 C31_4 1_555 1_555
C30_4 C35_4 1_555 1_555

#END
