
###############################################################################
#
# This file contains modified crystal structure data generated from the
# MOF subset of the Cambridge Structural Database (CSD) v543 
# hosted by the Cambridge Crystallographic Data Centre (CCDC).
#
# This work is licensed under the Creative Commons
# Attribution-NonCommercial-ShareAlike 4.0 International License.
# To view a copy of this license, visit
# http://creativecommons.org/licenses/by-nc-sa/4.0/
# or send a letter to
# Creative Commons, PO Box 1866, Mountain View, CA 94042, USA.
#
# CIF created using the CSD Python API on 29 September 2022
# The structure has been converted into the P1 space group
# The structure has a 3D framework
# The original CSD entry HUHBET is in the orthorhombic crystal system
# The framework has been calculated to contain at least 10.0% void space
# The void calculation uses a probe of radius 1.32A, grid spacing 0.4
# The framework is charged, counterions have been retained in the structure
#
###############################################################################

data_HUHBET
_chemical_formula_moiety         '(C256 H476 Mn48 Na32 O222 8+)n'
_symmetry_cell_setting           triclinic
_symmetry_space_group_name_H-M   'P 1'
_symmetry_Int_Tables_number      1
_space_group_name_Hall           'P 1'
loop_
_symmetry_equiv_pos_site_id
_symmetry_equiv_pos_as_xyz
1 x,y,z
_cell_length_a                   24.4252(6)
_cell_length_b                   19.0425(5)
_cell_length_c                   26.7153(7)
_cell_angle_alpha                90
_cell_angle_beta                 90
_cell_angle_gamma                90
_cell_volume                     12425.7
loop_
_atom_site_label
_atom_site_type_symbol
_atom_site_fract_x
_atom_site_fract_y
_atom_site_fract_z
Na6 Na 0.03191(9) 0.07676(11) 0.98808(8)
C16 C 0.2213(3) 0.1170(3) 0.9558(2)
C17 C 0.2511(3) 0.0753(3) 0.9954(2)
H28 H 0.2897 0.0911 0.9968
H29 H 0.2511 0.0251 0.9858
C18 C 0.1621(3) 0.0916(3) 0.9507(2)
H30 H 0.1626 0.0415 0.9408
H31 H 0.1444 0.1182 0.9232
O12 O 0.12932(16) 0.0989(2) 0.99490(14)
C19 C 0.2247(3) 0.1963(3) 0.9668(2)
H32 H 0.2061 0.2218 0.9394
H33 H 0.2637 0.2104 0.9664
C20 C 0.2497(3) 0.1054(4) 0.9057(2)
H34 H 0.2448 0.0565 0.8952
H35 H 0.2337 0.1367 0.8805
H36 H 0.2888 0.1155 0.9091
C29 C 0.0594(4) 0.2216(5) 0.9196(3)
C30 C 0.0460(5) 0.2580(8) 0.8712(6)
H49 H 0.0557 0.2274 0.8430
H50 H 0.0068 0.2686 0.8700
H51 H 0.0670 0.3018 0.8689
O22 O 0.0906(3) 0.2467(3) 0.9518(3)
O23 O 0.0330(2) 0.1606(3) 0.9260(2)
O28 O 0.1539(2) 0.3671(3) 0.9642(2)
H59 H 0.1581 0.3702 0.9328
H60 H 0.1384 0.3279 0.9625
H3 H 0.0235 0.7518 0.8602
C4 C 0.0030(2) 0.7757(3) 0.9568(2)
H5 H 0.0080 0.7613 0.9921
H6 H 0.0378 0.7972 0.9454
C5 C 0.0415(2) 0.6602(3) 0.9323(2)
H7 H 0.0749 0.6830 0.9201
H8 H 0.0351 0.6170 0.9133
H9 H 0.0458 0.6489 0.9679
C23 C 0.0540(2) 0.8880(3) 0.8366(2)
C24 C 0.1119(3) 0.9122(6) 0.8362(3)
H40 H 0.1316 0.8893 0.8088
H41 H 0.1293 0.9000 0.8681
H42 H 0.1130 0.9632 0.8316
O16 O 0.02773(15) 0.8991(2) 0.87753(14)
O17 O 0.03307(15) 0.8610(2) 0.79908(14)
Na5 Na 0.06090(9) 0.81533(12) 0.72544(8)
O32 O 0.05047(14) 0.95718(19) 0.97030(14)
C22 C 0.8187(3) 0.1549(4) 0.0157(3)
H37 H 0.7889 0.1588 0.0402
H39 H 0.8538 0.1509 0.0334
O26 O 0.94953(14) 0.04282(19) 0.02970(14)
H55 H 0.9513 0.0608 0.0583
H56 H 0.9185 0.0529 0.0182
C6 C 0.9140(2) 0.0380(3) 0.8531(2)
C8 C 0.8529(2) 0.0454(3) 0.8616(2)
H12 H 0.8466 0.0855 0.8845
H13 H 0.8353 0.0570 0.8292
C9 C 0.9432(2) 0.0243(3) 0.9023(2)
H14 H 0.9831 0.0222 0.8959
H15 H 0.9364 0.0644 0.9250
C10 C 0.9354(3) 0.1082(3) 0.8319(3)
H16 H 0.9172 0.1181 0.7999
H17 H 0.9750 0.1049 0.8266
H18 H 0.9276 0.1461 0.8556
C21 C 0.8100(3) 0.0914(3) 0.9840(2)
H38 H 0.8192 0.1969 0.9945
O14 O 0.84906(15) 0.04568(19) 0.98449(14)
O15 O 0.76795(16) 0.0848(2) 0.95948(16)
C28 C 0.7690(4) 0.0109(5) 0.7205(3)
H46 H 0.7438 0.0510 0.7212
H48 H 0.8055 0.0270 0.7105
O31 O 0.66094(16) 0.0732(2) 0.88761(15)
Na8 Na 0.68948(9) 0.14605(13) 0.95665(9)
Mn1 Mn 0.86911(3) 0.73950(4) 0.87022(3)
Mn2 Mn 0.77205(4) 0.81987(5) 0.92449(3)
Mn3 Mn 0.84852(3) 0.95066(4) 0.94610(3)
Mn4 Mn 0.83223(3) 0.89114(5) 0.83900(4)
Mn5 Mn 0.94578(3) 0.87106(4) 0.89032(3)
Mn6 Mn 0.88583(4) 0.79640(6) 0.98259(5)
O1 O 0.85439(14) 0.84770(19) 0.90383(14)
C1 C 0.9924(2) 0.7104(3) 0.9255(2)
C2 C 0.9411(2) 0.6701(3) 0.9424(2)
H1 H 0.9388 0.6257 0.9232
H2 H 0.9451 0.6578 0.9782
O2 O 0.89122(14) 0.70843(18) 0.93580(13)
C3 C 0.9889(2) 0.7289(3) 0.8704(2)
H4 H 0.9852 0.6851 0.8508
O3 O 0.94411(14) 0.77462(19) 0.85838(14)
O4 O 0.96142(14) 0.82743(18) 0.95466(14)
C7 C 0.9270(2) 0.9814(3) 0.8146(2)
H10 H 0.9080 0.9933 0.7829
H11 H 0.9668 0.9823 0.8078
O5 O 0.91183(15) 0.91134(19) 0.82875(14)
O6 O 0.82690(14) 0.98498(18) 0.88186(14)
O7 O 0.92695(14) 0.96067(18) 0.92742(13)
C11 C 0.7491(2) 0.7503(3) 0.8079(2)
C12 C 0.7539(2) 0.7027(3) 0.8530(2)
H19 H 0.7173 0.6977 0.8686
H20 H 0.7657 0.6556 0.8417
O8 O 0.79165(15) 0.7276(2) 0.89003(15)
C13 C 0.7258(2) 0.8215(3) 0.8220(2)
H21 H 0.7227 0.8504 0.7913
H22 H 0.6884 0.8147 0.8355
O9 O 0.75775(15) 0.85998(19) 0.85842(14)
C14 C 0.8038(2) 0.7575(3) 0.7803(2)
H23 H 0.8154 0.7105 0.7686
H24 H 0.7982 0.7873 0.7504
O10 O 0.84673(14) 0.78712(19) 0.80999(14)
C15 C 0.7086(3) 0.7158(4) 0.7712(3)
H25 H 0.6723 0.7132 0.7868
H26 H 0.7213 0.6684 0.7630
H27 H 0.7065 0.7440 0.7406
O11 O 0.77273(15) 0.9178(2) 0.95568(14)
O13 O 0.7987(2) 0.7818(2) 0.98676(15)
C25 C 0.8686(2) 0.5833(3) 0.8506(2)
C26 C 0.8913(3) 0.5220(3) 0.8217(3)
H43 H 0.8863 0.4788 0.8411
H44 H 0.9304 0.5296 0.8155
H45 H 0.8720 0.5179 0.7897
O18 O 0.88282(16) 0.6442(2) 0.83392(14)
O19 O 0.83906(16) 0.5732(2) 0.88761(15)
C27 C 0.7718(3) 0.9797(4) 0.7693(3)
H47 H 0.7558 0.9760 0.6963
O20 O 0.81175(17) 0.9339(2) 0.77687(16)
O21 O 0.73964(17) 0.9981(2) 0.80196(16)
C31 C 0.6514(3) 0.8371(4) 0.9269(3)
C32 C 0.5972(3) 0.8002(5) 0.9264(4)
H52 H 0.5677 0.8349 0.9271
H53 H 0.5944 0.7696 0.9558
H54 H 0.5942 0.7718 0.8959
O24 O 0.6929(2) 0.7975(2) 0.93663(16)
O25 O 0.65403(19) 0.8993(2) 0.91632(18)
Na1 Na 0.93910(9) 0.81533(12) 0.77456(8)
Na3 Na 0.72500(9) 0.98193(12) 0.88983(9)
Na4 Na 0.81052(9) 0.64605(13) 0.95665(9)
O27 O 0.94210(19) 0.6955(2) 0.75104(17)
H57 H 0.9244 0.6730 0.7728
H58 H 0.9224 0.6934 0.7255
O29 O 0.73205(16) 0.5848(2) 0.95948(16)
O30 O 0.96693(15) 0.8610(2) 0.70092(14)
Na7 Na 0.77500(9) 0.48193(12) 0.88983(9)
H43_2 H 0.6137 0.0212 0.3411
Na7_2 Na 0.72500(9) 0.01807(12) 0.38983(9)
Mn1_2 Mn 0.63089(3) 0.76050(4) 0.37022(3)
Mn2_2 Mn 0.72795(4) 0.68013(5) 0.42449(3)
Mn3_2 Mn 0.65148(3) 0.54934(4) 0.44610(3)
Mn4_2 Mn 0.66777(3) 0.60886(5) 0.33900(4)
Mn5_2 Mn 0.55422(3) 0.62894(4) 0.39032(3)
Mn6_2 Mn 0.61417(4) 0.70360(6) 0.48259(5)
O1_2 O 0.64561(14) 0.65230(19) 0.40383(14)
C1_2 C 0.5076(2) 0.7896(3) 0.4255(2)
C2_2 C 0.5589(2) 0.8299(3) 0.4424(2)
H1_2 H 0.5612 0.8743 0.4232
H2_2 H 0.5549 0.8422 0.4782
O2_2 O 0.60878(14) 0.79157(18) 0.43580(13)
C3_2 C 0.5111(2) 0.7711(3) 0.3704(2)
H3_2 H 0.4765 0.7482 0.3602
H4_2 H 0.5148 0.8149 0.3508
O3_2 O 0.55589(14) 0.72538(19) 0.35838(14)
C4_2 C 0.4970(2) 0.7243(3) 0.4568(2)
H5_2 H 0.4920 0.7387 0.4921
H6_2 H 0.4622 0.7028 0.4454
O4_2 O 0.53858(14) 0.67257(18) 0.45466(14)
C5_2 C 0.4585(2) 0.8398(3) 0.4323(2)
H7_2 H 0.4251 0.8170 0.4201
H8_2 H 0.4649 0.8830 0.4133
H9_2 H 0.4542 0.8511 0.4679
C6_2 C 0.5860(2) 0.4620(3) 0.3531(2)
C7_2 C 0.5730(2) 0.5186(3) 0.3146(2)
H10_2 H 0.5920 0.5067 0.2829
H11_2 H 0.5332 0.5177 0.3078
O5_2 O 0.58817(15) 0.58866(19) 0.32875(14)
C8_2 C 0.6471(2) 0.4546(3) 0.3616(2)
H12_2 H 0.6534 0.4145 0.3845
H13_2 H 0.6647 0.4430 0.3292
O6_2 O 0.67310(14) 0.51502(18) 0.38186(14)
C9_2 C 0.5568(2) 0.4757(3) 0.4023(2)
H14_2 H 0.5169 0.4778 0.3959
H15_2 H 0.5636 0.4356 0.4250
O7_2 O 0.57305(14) 0.53933(18) 0.42742(13)
C10_2 C 0.5646(3) 0.3918(3) 0.3319(3)
H16_2 H 0.5828 0.3819 0.2999
H17_2 H 0.5250 0.3951 0.3266
H18_2 H 0.5724 0.3539 0.3556
C11_2 C 0.7509(2) 0.7497(3) 0.3079(2)
C12_2 C 0.7461(2) 0.7973(3) 0.3530(2)
H19_2 H 0.7827 0.8023 0.3686
H20_2 H 0.7343 0.8444 0.3417
O8_2 O 0.70835(15) 0.7724(2) 0.39003(15)
C13_2 C 0.7742(2) 0.6785(3) 0.3220(2)
H21_2 H 0.7773 0.6496 0.2913
H22_2 H 0.8116 0.6853 0.3355
O9_2 O 0.74225(15) 0.64002(19) 0.35842(14)
C14_2 C 0.6962(2) 0.7425(3) 0.2803(2)
H23_2 H 0.6846 0.7895 0.2686
H24_2 H 0.7018 0.7127 0.2504
O10_2 O 0.65327(14) 0.71288(19) 0.30999(14)
C15_2 C 0.7914(3) 0.7842(4) 0.2712(3)
H25_2 H 0.8277 0.7868 0.2868
H26_2 H 0.7787 0.8316 0.2630
H27_2 H 0.7935 0.7560 0.2406
C16_2 C 0.7213(3) 0.6170(3) 0.5442(2)
C17_2 C 0.7511(3) 0.5753(3) 0.5046(2)
H28_2 H 0.7897 0.5911 0.5032
H29_2 H 0.7511 0.5251 0.5142
O11_2 O 0.72727(15) 0.5822(2) 0.45568(14)
C18_2 C 0.6621(3) 0.5916(3) 0.5493(2)
H30_2 H 0.6626 0.5415 0.5592
H31_2 H 0.6444 0.6182 0.5768
O12_2 O 0.62932(16) 0.5989(2) 0.50510(14)
C19_2 C 0.7247(3) 0.6963(3) 0.5332(2)
H32_2 H 0.7061 0.7218 0.5606
H33_2 H 0.7637 0.7104 0.5336
O13_2 O 0.7013(2) 0.7182(2) 0.48676(15)
C20_2 C 0.7497(3) 0.6054(4) 0.5943(2)
H34_2 H 0.7448 0.5565 0.6048
H35_2 H 0.7337 0.6367 0.6195
H36_2 H 0.7888 0.6155 0.5909
C21_2 C 0.6900(3) 0.4086(3) 0.4840(2)
C22_2 C 0.6813(3) 0.3451(4) 0.5157(3)
H37_2 H 0.7111 0.3412 0.5402
H38_2 H 0.6808 0.3031 0.4945
H39_2 H 0.6462 0.3491 0.5334
O14_2 O 0.65094(15) 0.45432(19) 0.48449(14)
O15_2 O 0.73205(16) 0.4152(2) 0.45948(16)
C23_2 C 0.4460(2) 0.6120(3) 0.3366(2)
C24_2 C 0.3881(3) 0.5878(6) 0.3362(3)
H40_2 H 0.3684 0.6107 0.3088
H41_2 H 0.3707 0.6000 0.3681
H42_2 H 0.3870 0.5368 0.3316
O16_2 O 0.47227(15) 0.6009(2) 0.37753(14)
O17_2 O 0.46693(15) 0.6390(2) 0.29908(14)
C25_2 C 0.6314(2) 0.9167(3) 0.3506(2)
C26_2 C 0.6087(3) 0.9780(3) 0.3217(3)
H44_2 H 0.5696 0.9704 0.3155
H45_2 H 0.6280 0.9821 0.2897
O18_2 O 0.61718(16) 0.8558(2) 0.33392(14)
O19_2 O 0.66094(16) 0.9268(2) 0.38761(15)
C27_2 C 0.7282(3) 0.5203(4) 0.2693(3)
C28_2 C 0.7310(4) 0.4891(5) 0.2205(3)
H46_2 H 0.7562 0.4490 0.2212
H47_2 H 0.7442 0.5240 0.1963
H48_2 H 0.6945 0.4730 0.2105
O20_2 O 0.68825(17) 0.5661(2) 0.27687(16)
O21_2 O 0.76036(17) 0.5019(2) 0.30196(16)
C29_2 C 0.5594(4) 0.7216(5) 0.5804(3)
C30_2 C 0.5460(5) 0.7580(8) 0.6288(6)
H49_2 H 0.5557 0.7274 0.6570
H50_2 H 0.5068 0.7686 0.6300
H51_2 H 0.5670 0.8018 0.6311
O22_2 O 0.5906(3) 0.7467(3) 0.5482(3)
O23_2 O 0.5330(2) 0.6606(3) 0.5740(2)
C31_2 C 0.8486(3) 0.6629(4) 0.4269(3)
C32_2 C 0.9028(3) 0.6998(5) 0.4264(4)
H52_2 H 0.9323 0.6651 0.4271
H53_2 H 0.9056 0.7304 0.4558
H54_2 H 0.9058 0.7282 0.3959
O24_2 O 0.8071(2) 0.7025(2) 0.43663(16)
O25_2 O 0.84597(19) 0.6007(2) 0.41632(18)
Na1_2 Na 0.56090(9) 0.68467(12) 0.27456(8)
Na2 Na 0.53191(9) 0.57676(11) 0.51192(8)
Na3_2 Na 0.77500(9) 0.51807(12) 0.38983(9)
Na4_2 Na 0.68948(9) 0.85395(13) 0.45665(9)
O26_2 O 0.55047(14) 0.45718(19) 0.52970(14)
H55_2 H 0.5487 0.4392 0.5583
H56_2 H 0.5815 0.4471 0.5182
O27_2 O 0.55790(19) 0.8045(2) 0.25104(17)
H57_2 H 0.5756 0.8270 0.2728
H58_2 H 0.5776 0.8066 0.2255
O28_2 O 0.6539(2) 0.8671(3) 0.5358(2)
H59_2 H 0.6581 0.8702 0.5672
H60_2 H 0.6384 0.8279 0.5375
O29_2 O 0.76795(16) 0.9152(2) 0.45948(16)
O30_2 O 0.53307(15) 0.6390(2) 0.20092(14)
O31_2 O 0.83906(16) 0.4268(2) 0.38761(15)
Na5_2 Na 0.43910(9) 0.68467(12) 0.22544(8)
Na6_2 Na 0.46809(9) 0.42324(11) 0.48808(8)
Na8_2 Na 0.81052(9) 0.35395(13) 0.45665(9)
O32_2 O 0.44953(14) 0.54282(19) 0.47030(14)
C6_3 C 0.0860(2) 0.0380(3) 0.6469(2)
C8_3 C 0.1471(2) 0.0454(3) 0.6384(2)
H12_3 H 0.1534 0.0855 0.6155
H13_3 H 0.1647 0.0570 0.6708
C9_3 C 0.0568(2) 0.0243(3) 0.5977(2)
H14_3 H 0.0169 0.0222 0.6041
H15_3 H 0.0636 0.0644 0.5750
C10_3 C 0.0646(3) 0.1082(3) 0.6681(3)
H16_3 H 0.0828 0.1181 0.7001
H17_3 H 0.0250 0.1049 0.6734
H18_3 H 0.0724 0.1461 0.6444
C21_3 C 0.1900(3) 0.0914(3) 0.5160(2)
C22_3 C 0.1813(3) 0.1549(4) 0.4843(3)
H37_3 H 0.2111 0.1588 0.4598
H38_3 H 0.1808 0.1969 0.5055
H39_3 H 0.1462 0.1509 0.4666
O14_3 O 0.15094(15) 0.04568(19) 0.51551(14)
O15_3 O 0.23205(16) 0.0848(2) 0.54052(16)
C28_3 C 0.2310(4) 0.0109(5) 0.7795(3)
H46_3 H 0.2562 0.0510 0.7788
H48_3 H 0.1945 0.0270 0.7895
O26_3 O 0.05047(14) 0.04282(19) 0.47030(14)
H55_3 H 0.0487 0.0608 0.4417
H56_3 H 0.0815 0.0529 0.4818
O31_3 O 0.33906(16) 0.0732(2) 0.61239(15)
Na8_3 Na 0.31052(9) 0.14605(13) 0.54335(9)
Mn1_3 Mn 0.13089(3) 0.73950(4) 0.62978(3)
Mn2_3 Mn 0.22795(4) 0.81987(5) 0.57551(3)
Mn3_3 Mn 0.15148(3) 0.95066(4) 0.55390(3)
Mn4_3 Mn 0.16777(3) 0.89114(5) 0.66100(4)
Mn5_3 Mn 0.05422(3) 0.87106(4) 0.60968(3)
Mn6_3 Mn 0.11417(4) 0.79640(6) 0.51741(5)
O1_3 O 0.14561(14) 0.84770(19) 0.59617(14)
C1_3 C 0.0076(2) 0.7104(3) 0.5745(2)
C2_3 C 0.0589(2) 0.6701(3) 0.5576(2)
H1_3 H 0.0612 0.6257 0.5768
H2_3 H 0.0549 0.6578 0.5218
O2_3 O 0.10878(14) 0.70843(18) 0.56420(13)
C3_3 C 0.0111(2) 0.7289(3) 0.6296(2)
H4_3 H 0.0148 0.6851 0.6492
O3_3 O 0.05589(14) 0.77462(19) 0.64162(14)
O4_3 O 0.03858(14) 0.82743(18) 0.54534(14)
C7_3 C 0.0730(2) 0.9814(3) 0.6854(2)
H10_3 H 0.0920 0.9933 0.7171
H11_3 H 0.0332 0.9823 0.6922
O5_3 O 0.08817(15) 0.91134(19) 0.67125(14)
O6_3 O 0.17310(14) 0.98498(18) 0.61814(14)
O7_3 O 0.07305(14) 0.96067(18) 0.57258(13)
C11_3 C 0.2509(2) 0.7503(3) 0.6921(2)
C12_3 C 0.2461(2) 0.7027(3) 0.6470(2)
H19_3 H 0.2827 0.6977 0.6314
H20_3 H 0.2343 0.6556 0.6583
O8_3 O 0.20835(15) 0.7276(2) 0.60997(15)
C13_3 C 0.2742(2) 0.8215(3) 0.6780(2)
H21_3 H 0.2773 0.8504 0.7087
H22_3 H 0.3116 0.8147 0.6645
O9_3 O 0.24225(15) 0.85998(19) 0.64158(14)
C14_3 C 0.1962(2) 0.7575(3) 0.7197(2)
H23_3 H 0.1846 0.7105 0.7314
H24_3 H 0.2018 0.7873 0.7496
O10_3 O 0.15327(14) 0.78712(19) 0.69001(14)
C15_3 C 0.2914(3) 0.7158(4) 0.7288(3)
H25_3 H 0.3277 0.7132 0.7132
H26_3 H 0.2787 0.6684 0.7370
H27_3 H 0.2935 0.7440 0.7594
C16_3 C 0.2213(3) 0.8830(3) 0.4558(2)
C17_3 C 0.2511(3) 0.9247(3) 0.4954(2)
H28_3 H 0.2897 0.9089 0.4968
H29_3 H 0.2511 0.9749 0.4858
O11_3 O 0.22727(15) 0.9178(2) 0.54432(14)
C18_3 C 0.1621(3) 0.9084(3) 0.4507(2)
H30_3 H 0.1626 0.9585 0.4408
H31_3 H 0.1444 0.8818 0.4232
O12_3 O 0.12932(16) 0.9011(2) 0.49490(14)
C19_3 C 0.2247(3) 0.8037(3) 0.4668(2)
H32_3 H 0.2061 0.7782 0.4394
H33_3 H 0.2637 0.7896 0.4664
O13_3 O 0.2013(2) 0.7818(2) 0.51324(15)
C20_3 C 0.2497(3) 0.8946(4) 0.4057(2)
H34_3 H 0.2448 0.9435 0.3952
H35_3 H 0.2337 0.8633 0.3805
H36_3 H 0.2888 0.8845 0.4091
C25_3 C 0.1314(2) 0.5833(3) 0.6494(2)
C26_3 C 0.1087(3) 0.5220(3) 0.6783(3)
H43_3 H 0.1137 0.4788 0.6589
H44_3 H 0.0696 0.5296 0.6845
H45_3 H 0.1280 0.5179 0.7103
O18_3 O 0.11718(16) 0.6442(2) 0.66608(14)
O19_3 O 0.16094(16) 0.5732(2) 0.61239(15)
C27_3 C 0.2282(3) 0.9797(4) 0.7307(3)
H47_3 H 0.2442 0.9760 0.8037
O20_3 O 0.18825(17) 0.9339(2) 0.72313(16)
O21_3 O 0.26036(17) 0.9981(2) 0.69804(16)
C29_3 C 0.0594(4) 0.7784(5) 0.4196(3)
C30_3 C 0.0460(5) 0.7420(8) 0.3712(6)
H49_3 H 0.0557 0.7726 0.3430
H50_3 H 0.0068 0.7314 0.3700
H51_3 H 0.0670 0.6982 0.3689
O22_3 O 0.0906(3) 0.7533(3) 0.4518(3)
O23_3 O 0.0330(2) 0.8394(3) 0.4260(2)
C31_3 C 0.3486(3) 0.8371(4) 0.5731(3)
C32_3 C 0.4028(3) 0.8002(5) 0.5736(4)
H52_3 H 0.4323 0.8349 0.5729
H53_3 H 0.4056 0.7696 0.5442
H54_3 H 0.4058 0.7718 0.6041
O24_3 O 0.3071(2) 0.7975(2) 0.56337(16)
O25_3 O 0.34597(19) 0.8993(2) 0.58368(18)
Na2_2 Na 0.03191(9) 0.92324(11) 0.48808(8)
Na3_3 Na 0.27500(9) 0.98193(12) 0.61017(9)
Na4_3 Na 0.18948(9) 0.64605(13) 0.54335(9)
O27_3 O 0.05790(19) 0.6955(2) 0.74896(17)
H57_3 H 0.0756 0.6730 0.7272
H58_3 H 0.0776 0.6934 0.7745
O28_3 O 0.1539(2) 0.6329(3) 0.4642(2)
H59_3 H 0.1581 0.6298 0.4328
H60_3 H 0.1384 0.6721 0.4625
O29_3 O 0.26795(16) 0.5848(2) 0.54052(16)
Na7_3 Na 0.22500(9) 0.48193(12) 0.61017(9)
Na6_3 Na 0.96809(9) 0.07676(11) 0.51192(8)
H3_3 H 0.9765 0.7518 0.6398
C4_3 C 0.9970(2) 0.7757(3) 0.5432(2)
H5_3 H 0.9920 0.7613 0.5079
H6_3 H 0.9622 0.7972 0.5546
C5_3 C 0.9585(2) 0.6602(3) 0.5677(2)
H7_3 H 0.9251 0.6830 0.5799
H8_3 H 0.9649 0.6170 0.5867
H9_3 H 0.9542 0.6489 0.5321
C23_3 C 0.9460(2) 0.8880(3) 0.6634(2)
C24_3 C 0.8881(3) 0.9122(6) 0.6638(3)
H40_3 H 0.8684 0.8893 0.6912
H41_3 H 0.8707 0.9000 0.6319
H42_3 H 0.8870 0.9632 0.6684
O16_3 O 0.97227(15) 0.8991(2) 0.62247(14)
O32_3 O 0.94953(14) 0.95718(19) 0.52970(14)
H43_4 H 0.3863 0.0212 0.1589
Na7_4 Na 0.27500(9) 0.01807(12) 0.11017(9)
Mn1_4 Mn 0.36911(3) 0.76050(4) 0.12978(3)
Mn2_4 Mn 0.27205(4) 0.68013(5) 0.07551(3)
Mn3_4 Mn 0.34852(3) 0.54934(4) 0.05390(3)
Mn4_4 Mn 0.33223(3) 0.60886(5) 0.16100(4)
Mn5_4 Mn 0.44578(3) 0.62894(4) 0.10968(3)
Mn6_4 Mn 0.38583(4) 0.70360(6) 0.01741(5)
O1_4 O 0.35439(14) 0.65230(19) 0.09617(14)
C1_4 C 0.4924(2) 0.7896(3) 0.0745(2)
C2_4 C 0.4411(2) 0.8299(3) 0.0576(2)
H1_4 H 0.4388 0.8743 0.0768
H2_4 H 0.4451 0.8422 0.0218
O2_4 O 0.39122(14) 0.79157(18) 0.06420(13)
C3_4 C 0.4889(2) 0.7711(3) 0.1296(2)
H3_4 H 0.5235 0.7482 0.1398
H4_4 H 0.4852 0.8149 0.1492
O3_4 O 0.44411(14) 0.72538(19) 0.14162(14)
C4_4 C 0.5030(2) 0.7243(3) 0.0432(2)
H5_4 H 0.5080 0.7387 0.0079
H6_4 H 0.5378 0.7028 0.0546
O4_4 O 0.46142(14) 0.67257(18) 0.04534(14)
C5_4 C 0.5415(2) 0.8398(3) 0.0677(2)
H7_4 H 0.5749 0.8170 0.0799
H8_4 H 0.5351 0.8830 0.0867
H9_4 H 0.5458 0.8511 0.0321
C6_4 C 0.4140(2) 0.4620(3) 0.1469(2)
C7_4 C 0.4270(2) 0.5186(3) 0.1854(2)
H10_4 H 0.4080 0.5067 0.2171
H11_4 H 0.4668 0.5177 0.1922
O5_4 O 0.41183(15) 0.58866(19) 0.17125(14)
C8_4 C 0.3529(2) 0.4546(3) 0.1384(2)
H12_4 H 0.3466 0.4145 0.1155
H13_4 H 0.3353 0.4430 0.1708
O6_4 O 0.32690(14) 0.51502(18) 0.11814(14)
C9_4 C 0.4432(2) 0.4757(3) 0.0977(2)
H14_4 H 0.4831 0.4778 0.1041
H15_4 H 0.4364 0.4356 0.0750
O7_4 O 0.42695(14) 0.53933(18) 0.07258(13)
C10_4 C 0.4354(3) 0.3918(3) 0.1681(3)
H16_4 H 0.4172 0.3819 0.2001
H17_4 H 0.4750 0.3951 0.1734
H18_4 H 0.4276 0.3539 0.1444
C11_4 C 0.2491(2) 0.7497(3) 0.1921(2)
C12_4 C 0.2539(2) 0.7973(3) 0.1470(2)
H19_4 H 0.2173 0.8023 0.1314
H20_4 H 0.2657 0.8444 0.1583
O8_4 O 0.29165(15) 0.7724(2) 0.10997(15)
C13_4 C 0.2258(2) 0.6785(3) 0.1780(2)
H21_4 H 0.2227 0.6496 0.2087
H22_4 H 0.1884 0.6853 0.1645
O9_4 O 0.25775(15) 0.64002(19) 0.14158(14)
C14_4 C 0.3038(2) 0.7425(3) 0.2197(2)
H23_4 H 0.3154 0.7895 0.2314
H24_4 H 0.2982 0.7127 0.2496
O10_4 O 0.34673(14) 0.71288(19) 0.19001(14)
C15_4 C 0.2086(3) 0.7842(4) 0.2288(3)
H25_4 H 0.1723 0.7868 0.2132
H26_4 H 0.2213 0.8316 0.2370
H27_4 H 0.2065 0.7560 0.2594
O11_4 O 0.27273(15) 0.5822(2) 0.04432(14)
O13_4 O 0.2987(2) 0.7182(2) 0.01324(15)
C21_4 C 0.3100(3) 0.4086(3) 0.0160(2)
H38_4 H 0.3192 0.3031 0.0055
O14_4 O 0.34906(15) 0.45432(19) 0.01551(14)
O15_4 O 0.26795(16) 0.4152(2) 0.04052(16)
C23_4 C 0.5540(2) 0.6120(3) 0.1634(2)
C24_4 C 0.6119(3) 0.5878(6) 0.1638(3)
H40_4 H 0.6316 0.6107 0.1912
H41_4 H 0.6293 0.6000 0.1319
H42_4 H 0.6130 0.5368 0.1684
O16_4 O 0.52773(15) 0.6009(2) 0.12247(14)
C25_4 C 0.3686(2) 0.9167(3) 0.1494(2)
C26_4 C 0.3913(3) 0.9780(3) 0.1783(3)
H44_4 H 0.4304 0.9704 0.1845
H45_4 H 0.3720 0.9821 0.2103
O18_4 O 0.38282(16) 0.8558(2) 0.16608(14)
O19_4 O 0.33906(16) 0.9268(2) 0.11239(15)
C27_4 C 0.2718(3) 0.5203(4) 0.2307(3)
C28_4 C 0.2690(4) 0.4891(5) 0.2795(3)
H46_4 H 0.2438 0.4490 0.2788
H47_4 H 0.2558 0.5240 0.3037
H48_4 H 0.3055 0.4730 0.2895
O20_4 O 0.31175(17) 0.5661(2) 0.22313(16)
O21_4 O 0.23964(17) 0.5019(2) 0.19804(16)
C31_4 C 0.1514(3) 0.6629(4) 0.0731(3)
C32_4 C 0.0972(3) 0.6998(5) 0.0736(4)
H52_4 H 0.0677 0.6651 0.0729
H53_4 H 0.0944 0.7304 0.0442
H54_4 H 0.0942 0.7282 0.1041
O24_4 O 0.1929(2) 0.7025(2) 0.06337(16)
O25_4 O 0.15403(19) 0.6007(2) 0.08368(18)
Na3_4 Na 0.22500(9) 0.51807(12) 0.11017(9)
Na4_4 Na 0.31052(9) 0.85395(13) 0.04335(9)
O27_4 O 0.44210(19) 0.8045(2) 0.24896(17)
H57_4 H 0.4244 0.8270 0.2272
H58_4 H 0.4224 0.8066 0.2745
O29_4 O 0.23205(16) 0.9152(2) 0.04052(16)
O31_4 O 0.16094(16) 0.4268(2) 0.11239(15)
Na6_4 Na 0.53191(9) 0.42324(11) 0.01192(8)
Na8_4 Na 0.18948(9) 0.35395(13) 0.04335(9)
O32_4 O 0.55047(14) 0.54282(19) 0.02970(14)
C16_4 C 0.2787(3) 0.6170(3) 0.9558(2)
C17_4 C 0.2489(3) 0.5753(3) 0.9954(2)
H28_4 H 0.2103 0.5911 0.9968
H29_4 H 0.2489 0.5251 0.9858
C18_4 C 0.3379(3) 0.5916(3) 0.9507(2)
H30_4 H 0.3374 0.5415 0.9408
H31_4 H 0.3556 0.6182 0.9232
O12_4 O 0.37068(16) 0.5989(2) 0.99490(14)
C19_4 C 0.2753(3) 0.6963(3) 0.9668(2)
H32_4 H 0.2939 0.7218 0.9394
H33_4 H 0.2363 0.7104 0.9664
C20_4 C 0.2503(3) 0.6054(4) 0.9057(2)
H34_4 H 0.2552 0.5565 0.8952
H35_4 H 0.2663 0.6367 0.8805
H36_4 H 0.2112 0.6155 0.9091
C22_4 C 0.3187(3) 0.3451(4) 0.9843(3)
H37_4 H 0.2889 0.3412 0.9598
H39_4 H 0.3538 0.3491 0.9666
C29_4 C 0.4406(4) 0.7216(5) 0.9196(3)
C30_4 C 0.4540(5) 0.7580(8) 0.8712(6)
H49_4 H 0.4443 0.7274 0.8430
H50_4 H 0.4932 0.7686 0.8700
H51_4 H 0.4330 0.8018 0.8689
O22_4 O 0.4094(3) 0.7467(3) 0.9518(3)
O23_4 O 0.4670(2) 0.6606(3) 0.9260(2)
Na2_3 Na 0.46809(9) 0.57676(11) 0.98808(8)
O26_4 O 0.44953(14) 0.45718(19) 0.97030(14)
H55_4 H 0.4513 0.4392 0.9417
H56_4 H 0.4185 0.4471 0.9818
O28_4 O 0.3461(2) 0.8671(3) 0.9642(2)
H59_4 H 0.3419 0.8702 0.9328
H60_4 H 0.3616 0.8279 0.9625
Mn1_5 Mn 0.13089(3) 0.26050(4) 0.12978(3)
Mn2_5 Mn 0.22795(4) 0.18013(5) 0.07551(3)
Mn3_5 Mn 0.15148(3) 0.04934(4) 0.05390(3)
Mn4_5 Mn 0.16777(3) 0.10886(5) 0.16100(4)
Mn5_5 Mn 0.05422(3) 0.12894(4) 0.10968(3)
Mn6_5 Mn 0.11417(4) 0.20360(6) 0.01741(5)
O1_5 O 0.14561(14) 0.15230(19) 0.09617(14)
C1_5 C 0.0076(2) 0.2896(3) 0.0745(2)
C2_5 C 0.0589(2) 0.3299(3) 0.0576(2)
H1_5 H 0.0612 0.3743 0.0768
H2_5 H 0.0549 0.3422 0.0218
O2_5 O 0.10878(14) 0.29157(18) 0.06420(13)
C3_5 C 0.0111(2) 0.2711(3) 0.1296(2)
H4_5 H 0.0148 0.3149 0.1492
O3_5 O 0.05589(14) 0.22538(19) 0.14162(14)
O4_5 O 0.03858(14) 0.17257(18) 0.04534(14)
C7_5 C 0.0730(2) 0.0186(3) 0.1854(2)
H10_5 H 0.0920 0.0067 0.2171
H11_5 H 0.0332 0.0177 0.1922
O5_5 O 0.08817(15) 0.08866(19) 0.17125(14)
O6_5 O 0.17310(14) 0.01502(18) 0.11814(14)
O7_5 O 0.07305(14) 0.03933(18) 0.07258(13)
C11_5 C 0.2509(2) 0.2497(3) 0.1921(2)
C12_5 C 0.2461(2) 0.2973(3) 0.1470(2)
H19_5 H 0.2827 0.3023 0.1314
H20_5 H 0.2343 0.3444 0.1583
O8_5 O 0.20835(15) 0.2724(2) 0.10997(15)
C13_5 C 0.2742(2) 0.1785(3) 0.1780(2)
H21_5 H 0.2773 0.1496 0.2087
H22_5 H 0.3116 0.1853 0.1645
O9_5 O 0.24225(15) 0.14002(19) 0.14158(14)
C14_5 C 0.1962(2) 0.2425(3) 0.2197(2)
H23_5 H 0.1846 0.2895 0.2314
H24_5 H 0.2018 0.2127 0.2496
O10_5 O 0.15327(14) 0.21288(19) 0.19001(14)
C15_5 C 0.2914(3) 0.2842(4) 0.2288(3)
H25_5 H 0.3277 0.2868 0.2132
H26_5 H 0.2787 0.3316 0.2370
H27_5 H 0.2935 0.2560 0.2594
O11_5 O 0.22727(15) 0.0822(2) 0.04432(14)
O13_5 O 0.2013(2) 0.2182(2) 0.01324(15)
C25_5 C 0.1314(2) 0.4167(3) 0.1494(2)
C26_5 C 0.1087(3) 0.4780(3) 0.1783(3)
H43_5 H 0.1137 0.5212 0.1589
H44_5 H 0.0696 0.4704 0.1845
H45_5 H 0.1280 0.4821 0.2103
O18_5 O 0.11718(16) 0.3558(2) 0.16608(14)
C27_5 C 0.2282(3) 0.0203(4) 0.2307(3)
H47_5 H 0.2442 0.0240 0.3037
O20_5 O 0.18825(17) 0.0661(2) 0.22313(16)
O21_5 O 0.26036(17) 0.0019(2) 0.19804(16)
C31_5 C 0.3486(3) 0.1629(4) 0.0731(3)
C32_5 C 0.4028(3) 0.1998(5) 0.0736(4)
H52_5 H 0.4323 0.1651 0.0729
H53_5 H 0.4056 0.2304 0.0442
H54_5 H 0.4058 0.2282 0.1041
O24_5 O 0.3071(2) 0.2025(2) 0.06337(16)
O25_5 O 0.34597(19) 0.1007(2) 0.08368(18)
Na1_3 Na 0.06090(9) 0.18467(12) 0.22544(8)
O27_5 O 0.05790(19) 0.3045(2) 0.24896(17)
H57_5 H 0.0756 0.3270 0.2272
H58_5 H 0.0776 0.3066 0.2745
O30_3 O 0.03307(15) 0.1390(2) 0.29908(14)
C6_5 C 0.0860(2) 0.9620(3) 0.1469(2)
C8_5 C 0.1471(2) 0.9546(3) 0.1384(2)
H12_5 H 0.1534 0.9145 0.1155
H13_5 H 0.1647 0.9430 0.1708
C9_5 C 0.0568(2) 0.9757(3) 0.0977(2)
H14_5 H 0.0169 0.9778 0.1041
H15_5 H 0.0636 0.9356 0.0750
C10_5 C 0.0646(3) 0.8918(3) 0.1681(3)
H16_5 H 0.0828 0.8819 0.2001
H17_5 H 0.0250 0.8951 0.1734
H18_5 H 0.0724 0.8539 0.1444
C21_5 C 0.1900(3) 0.9086(3) 0.0160(2)
H38_5 H 0.1808 0.8031 0.0055
O14_5 O 0.15094(15) 0.95432(19) 0.01551(14)
C28_5 C 0.2310(4) 0.9891(5) 0.2795(3)
H46_5 H 0.2562 0.9490 0.2788
H48_5 H 0.1945 0.9730 0.2895
C22_5 C 0.1813(3) 0.8451(4) 0.9843(3)
H37_5 H 0.2111 0.8412 0.9598
H39_5 H 0.1462 0.8491 0.9666
H55_5 H 0.0487 0.9392 0.9417
H56_5 H 0.0815 0.9471 0.9818
H3_5 H 0.9765 0.2482 0.1398
C4_5 C 0.9970(2) 0.2243(3) 0.0432(2)
H5_5 H 0.9920 0.2387 0.0079
H6_5 H 0.9622 0.2028 0.0546
C5_5 C 0.9585(2) 0.3398(3) 0.0677(2)
H7_5 H 0.9251 0.3170 0.0799
H8_5 H 0.9649 0.3830 0.0867
H9_5 H 0.9542 0.3511 0.0321
C23_5 C 0.9460(2) 0.1120(3) 0.1634(2)
C24_5 C 0.8881(3) 0.0878(6) 0.1638(3)
H40_5 H 0.8684 0.1107 0.1912
H41_5 H 0.8707 0.1000 0.1319
H42_5 H 0.8870 0.0368 0.1684
O16_5 O 0.97227(15) 0.1009(2) 0.12247(14)
O17_3 O 0.96693(15) 0.1390(2) 0.20092(14)
Na5_3 Na 0.93910(9) 0.18467(12) 0.27456(8)
Mn1_6 Mn 0.36911(3) 0.23950(4) 0.62978(3)
Mn2_6 Mn 0.27205(4) 0.31987(5) 0.57551(3)
Mn3_6 Mn 0.34852(3) 0.45066(4) 0.55390(3)
Mn4_6 Mn 0.33223(3) 0.39114(5) 0.66100(4)
Mn5_6 Mn 0.44578(3) 0.37106(4) 0.60968(3)
Mn6_6 Mn 0.38583(4) 0.29640(6) 0.51741(5)
O1_6 O 0.35439(14) 0.34770(19) 0.59617(14)
C1_6 C 0.4924(2) 0.2104(3) 0.5745(2)
C2_6 C 0.4411(2) 0.1701(3) 0.5576(2)
H1_6 H 0.4388 0.1257 0.5768
H2_6 H 0.4451 0.1578 0.5218
O2_6 O 0.39122(14) 0.20843(18) 0.56420(13)
C3_6 C 0.4889(2) 0.2289(3) 0.6296(2)
H3_6 H 0.5235 0.2518 0.6398
H4_6 H 0.4852 0.1851 0.6492
O3_6 O 0.44411(14) 0.27462(19) 0.64162(14)
C4_6 C 0.5030(2) 0.2757(3) 0.5432(2)
H5_6 H 0.5080 0.2613 0.5079
H6_6 H 0.5378 0.2972 0.5546
O4_6 O 0.46142(14) 0.32743(18) 0.54534(14)
C5_6 C 0.5415(2) 0.1602(3) 0.5677(2)
H7_6 H 0.5749 0.1830 0.5799
H8_6 H 0.5351 0.1170 0.5867
H9_6 H 0.5458 0.1489 0.5321
C6_6 C 0.4140(2) 0.5380(3) 0.6469(2)
C7_6 C 0.4270(2) 0.4814(3) 0.6854(2)
H10_6 H 0.4080 0.4933 0.7171
H11_6 H 0.4668 0.4823 0.6922
O5_6 O 0.41183(15) 0.41134(19) 0.67125(14)
C8_6 C 0.3529(2) 0.5454(3) 0.6384(2)
H12_6 H 0.3466 0.5855 0.6155
H13_6 H 0.3353 0.5570 0.6708
O6_6 O 0.32690(14) 0.48498(18) 0.61814(14)
C9_6 C 0.4432(2) 0.5243(3) 0.5977(2)
H14_6 H 0.4831 0.5222 0.6041
H15_6 H 0.4364 0.5644 0.5750
O7_6 O 0.42695(14) 0.46067(18) 0.57258(13)
C10_6 C 0.4354(3) 0.6082(3) 0.6681(3)
H16_6 H 0.4172 0.6181 0.7001
H17_6 H 0.4750 0.6049 0.6734
H18_6 H 0.4276 0.6461 0.6444
C11_6 C 0.2491(2) 0.2503(3) 0.6921(2)
C12_6 C 0.2539(2) 0.2027(3) 0.6470(2)
H19_6 H 0.2173 0.1977 0.6314
H20_6 H 0.2657 0.1556 0.6583
O8_6 O 0.29165(15) 0.2276(2) 0.60997(15)
C13_6 C 0.2258(2) 0.3215(3) 0.6780(2)
H21_6 H 0.2227 0.3504 0.7087
H22_6 H 0.1884 0.3147 0.6645
O9_6 O 0.25775(15) 0.35998(19) 0.64158(14)
C14_6 C 0.3038(2) 0.2575(3) 0.7197(2)
H23_6 H 0.3154 0.2105 0.7314
H24_6 H 0.2982 0.2873 0.7496
O10_6 O 0.34673(14) 0.28712(19) 0.69001(14)
C15_6 C 0.2086(3) 0.2158(4) 0.7288(3)
H25_6 H 0.1723 0.2132 0.7132
H26_6 H 0.2213 0.1684 0.7370
H27_6 H 0.2065 0.2440 0.7594
C16_5 C 0.2787(3) 0.3830(3) 0.4558(2)
C17_5 C 0.2489(3) 0.4247(3) 0.4954(2)
H28_5 H 0.2103 0.4089 0.4968
H29_5 H 0.2489 0.4749 0.4858
O11_6 O 0.27273(15) 0.4178(2) 0.54432(14)
C18_5 C 0.3379(3) 0.4084(3) 0.4507(2)
H30_5 H 0.3374 0.4585 0.4408
H31_5 H 0.3556 0.3818 0.4232
O12_5 O 0.37068(16) 0.4011(2) 0.49490(14)
C19_5 C 0.2753(3) 0.3037(3) 0.4668(2)
H32_5 H 0.2939 0.2782 0.4394
H33_5 H 0.2363 0.2896 0.4664
O13_6 O 0.2987(2) 0.2818(2) 0.51324(15)
C20_5 C 0.2503(3) 0.3946(4) 0.4057(2)
H34_5 H 0.2552 0.4435 0.3952
H35_5 H 0.2663 0.3633 0.3805
H36_5 H 0.2112 0.3845 0.4091
C21_6 C 0.3100(3) 0.5914(3) 0.5160(2)
C22_6 C 0.3187(3) 0.6549(4) 0.4843(3)
H37_6 H 0.2889 0.6588 0.4598
H38_6 H 0.3192 0.6969 0.5055
H39_6 H 0.3538 0.6509 0.4666
O14_6 O 0.34906(15) 0.54568(19) 0.51551(14)
C23_6 C 0.5540(2) 0.3880(3) 0.6634(2)
C24_6 C 0.6119(3) 0.4122(6) 0.6638(3)
H40_6 H 0.6316 0.3893 0.6912
H41_6 H 0.6293 0.4000 0.6319
H42_6 H 0.6130 0.4632 0.6684
O16_6 O 0.52773(15) 0.3991(2) 0.62247(14)
O17_4 O 0.53307(15) 0.3610(2) 0.70092(14)
C25_6 C 0.3686(2) 0.0833(3) 0.6494(2)
C26_6 C 0.3913(3) 0.0220(3) 0.6783(3)
H44_6 H 0.4304 0.0296 0.6845
H45_6 H 0.3720 0.0179 0.7103
O18_6 O 0.38282(16) 0.1442(2) 0.66608(14)
C27_6 C 0.2718(3) 0.4797(4) 0.7307(3)
C28_6 C 0.2690(4) 0.5109(5) 0.7795(3)
H46_6 H 0.2438 0.5510 0.7788
H47_6 H 0.2558 0.4760 0.8037
H48_6 H 0.3055 0.5270 0.7895
O20_6 O 0.31175(17) 0.4339(2) 0.72313(16)
O21_6 O 0.23964(17) 0.4981(2) 0.69804(16)
C29_5 C 0.4406(4) 0.2784(5) 0.4196(3)
C30_5 C 0.4540(5) 0.2420(8) 0.3712(6)
H49_5 H 0.4443 0.2726 0.3430
H50_5 H 0.4932 0.2314 0.3700
H51_5 H 0.4330 0.1982 0.3689
O22_5 O 0.4094(3) 0.2533(3) 0.4518(3)
O23_5 O 0.4670(2) 0.3394(3) 0.4260(2)
C31_6 C 0.1514(3) 0.3371(4) 0.5731(3)
C32_6 C 0.0972(3) 0.3002(5) 0.5736(4)
H52_6 H 0.0677 0.3349 0.5729
H53_6 H 0.0944 0.2696 0.5442
H54_6 H 0.0942 0.2718 0.6041
O24_6 O 0.1929(2) 0.2975(2) 0.56337(16)
O25_6 O 0.15403(19) 0.3993(2) 0.58368(18)
Na1_4 Na 0.43910(9) 0.31533(12) 0.72544(8)
H55_6 H 0.4513 0.5608 0.4417
H56_6 H 0.4185 0.5529 0.4818
O27_6 O 0.44210(19) 0.1955(2) 0.74896(17)
H57_6 H 0.4244 0.1730 0.7272
H58_6 H 0.4224 0.1934 0.7745
O28_5 O 0.3461(2) 0.1329(3) 0.4642(2)
H59_5 H 0.3419 0.1298 0.4328
H60_5 H 0.3616 0.1721 0.4625
O30_4 O 0.46693(15) 0.3610(2) 0.79908(14)
Na5_4 Na 0.56090(9) 0.31533(12) 0.77456(8)
H43_6 H 0.3863 0.9788 0.6589
H3_7 H 0.0235 0.2482 0.3602
C4_7 C 0.0030(2) 0.2243(3) 0.4568(2)
H5_7 H 0.0080 0.2387 0.4921
H6_7 H 0.0378 0.2028 0.4454
C5_7 C 0.0415(2) 0.3398(3) 0.4323(2)
H7_7 H 0.0749 0.3170 0.4201
H8_7 H 0.0351 0.3830 0.4133
H9_7 H 0.0458 0.3511 0.4679
C23_7 C 0.0540(2) 0.1120(3) 0.3366(2)
C24_7 C 0.1119(3) 0.0878(6) 0.3362(3)
H40_7 H 0.1316 0.1107 0.3088
H41_7 H 0.1293 0.1000 0.3681
H42_7 H 0.1130 0.0368 0.3316
O16_7 O 0.02773(15) 0.1009(2) 0.37753(14)
Mn1_7 Mn 0.86911(3) 0.26050(4) 0.37022(3)
Mn2_7 Mn 0.77205(4) 0.18013(5) 0.42449(3)
Mn3_7 Mn 0.84852(3) 0.04934(4) 0.44610(3)
Mn4_7 Mn 0.83223(3) 0.10886(5) 0.33900(4)
Mn5_7 Mn 0.94578(3) 0.12894(4) 0.39032(3)
Mn6_7 Mn 0.88583(4) 0.20360(6) 0.48259(5)
O1_7 O 0.85439(14) 0.15230(19) 0.40383(14)
C1_7 C 0.9924(2) 0.2896(3) 0.4255(2)
C2_7 C 0.9411(2) 0.3299(3) 0.4424(2)
H1_7 H 0.9388 0.3743 0.4232
H2_7 H 0.9451 0.3422 0.4782
O2_7 O 0.89122(14) 0.29157(18) 0.43580(13)
C3_7 C 0.9889(2) 0.2711(3) 0.3704(2)
H4_7 H 0.9852 0.3149 0.3508
O3_7 O 0.94411(14) 0.22538(19) 0.35838(14)
O4_7 O 0.96142(14) 0.17257(18) 0.45466(14)
C7_7 C 0.9270(2) 0.0186(3) 0.3146(2)
H10_7 H 0.9080 0.0067 0.2829
H11_7 H 0.9668 0.0177 0.3078
O5_7 O 0.91183(15) 0.08866(19) 0.32875(14)
O6_7 O 0.82690(14) 0.01502(18) 0.38186(14)
O7_7 O 0.92695(14) 0.03933(18) 0.42742(13)
C11_7 C 0.7491(2) 0.2497(3) 0.3079(2)
C12_7 C 0.7539(2) 0.2973(3) 0.3530(2)
H19_7 H 0.7173 0.3023 0.3686
H20_7 H 0.7657 0.3444 0.3417
O8_7 O 0.79165(15) 0.2724(2) 0.39003(15)
C13_7 C 0.7258(2) 0.1785(3) 0.3220(2)
H21_7 H 0.7227 0.1496 0.2913
H22_7 H 0.6884 0.1853 0.3355
O9_7 O 0.75775(15) 0.14002(19) 0.35842(14)
C14_7 C 0.8038(2) 0.2425(3) 0.2803(2)
H23_7 H 0.8154 0.2895 0.2686
H24_7 H 0.7982 0.2127 0.2504
O10_7 O 0.84673(14) 0.21288(19) 0.30999(14)
C15_7 C 0.7086(3) 0.2842(4) 0.2712(3)
H25_7 H 0.6723 0.2868 0.2868
H26_7 H 0.7213 0.3316 0.2630
H27_7 H 0.7065 0.2560 0.2406
C16_6 C 0.7787(3) 0.1170(3) 0.5442(2)
C17_6 C 0.7489(3) 0.0753(3) 0.5046(2)
H28_6 H 0.7103 0.0911 0.5032
H29_6 H 0.7489 0.0251 0.5142
O11_7 O 0.77273(15) 0.0822(2) 0.45568(14)
C18_6 C 0.8379(3) 0.0916(3) 0.5493(2)
H30_6 H 0.8374 0.0415 0.5592
H31_6 H 0.8556 0.1182 0.5768
O12_6 O 0.87068(16) 0.0989(2) 0.50510(14)
C19_6 C 0.7753(3) 0.1963(3) 0.5332(2)
H32_6 H 0.7939 0.2218 0.5606
H33_6 H 0.7363 0.2104 0.5336
O13_7 O 0.7987(2) 0.2182(2) 0.48676(15)
C20_6 C 0.7503(3) 0.1054(4) 0.5943(2)
H34_6 H 0.7552 0.0565 0.6048
H35_6 H 0.7663 0.1367 0.6195
H36_6 H 0.7112 0.1155 0.5909
C25_7 C 0.8686(2) 0.4167(3) 0.3506(2)
C26_7 C 0.8913(3) 0.4780(3) 0.3217(3)
H43_7 H 0.8863 0.5212 0.3411
H44_7 H 0.9304 0.4704 0.3155
H45_7 H 0.8720 0.4821 0.2897
O18_7 O 0.88282(16) 0.3558(2) 0.33392(14)
C27_7 C 0.7718(3) 0.0203(4) 0.2693(3)
H47_7 H 0.7558 0.0240 0.1963
O20_7 O 0.81175(17) 0.0661(2) 0.27687(16)
O21_7 O 0.73964(17) 0.0019(2) 0.30196(16)
C29_6 C 0.9406(4) 0.2216(5) 0.5804(3)
C30_6 C 0.9540(5) 0.2580(8) 0.6288(6)
H49_6 H 0.9443 0.2274 0.6570
H50_6 H 0.9932 0.2686 0.6300
H51_6 H 0.9330 0.3018 0.6311
O22_6 O 0.9094(3) 0.2467(3) 0.5482(3)
O23_6 O 0.9670(2) 0.1606(3) 0.5740(2)
C31_7 C 0.6514(3) 0.1629(4) 0.4269(3)
C32_7 C 0.5972(3) 0.1998(5) 0.4264(4)
H52_7 H 0.5677 0.1651 0.4271
H53_7 H 0.5944 0.2304 0.4558
H54_7 H 0.5942 0.2282 0.3959
O24_7 O 0.6929(2) 0.2025(2) 0.43663(16)
O25_7 O 0.65403(19) 0.1007(2) 0.41632(18)
O27_7 O 0.94210(19) 0.3045(2) 0.25104(17)
H57_7 H 0.9244 0.3270 0.2728
H58_7 H 0.9224 0.3066 0.2255
O28_6 O 0.8461(2) 0.3671(3) 0.5358(2)
H59_6 H 0.8419 0.3702 0.5672
H60_6 H 0.8616 0.3279 0.5375
C6_7 C 0.9140(2) 0.9620(3) 0.3531(2)
C8_7 C 0.8529(2) 0.9546(3) 0.3616(2)
H12_7 H 0.8466 0.9145 0.3845
H13_7 H 0.8353 0.9430 0.3292
C9_7 C 0.9432(2) 0.9757(3) 0.4023(2)
H14_7 H 0.9831 0.9778 0.3959
H15_7 H 0.9364 0.9356 0.4250
C10_7 C 0.9354(3) 0.8918(3) 0.3319(3)
H16_7 H 0.9172 0.8819 0.2999
H17_7 H 0.9750 0.8951 0.3266
H18_7 H 0.9276 0.8539 0.3556
C21_7 C 0.8100(3) 0.9086(3) 0.4840(2)
C22_7 C 0.8187(3) 0.8451(4) 0.5157(3)
H37_7 H 0.7889 0.8412 0.5402
H38_7 H 0.8192 0.8031 0.4945
H39_7 H 0.8538 0.8491 0.5334
O14_7 O 0.84906(15) 0.95432(19) 0.48449(14)
C28_7 C 0.7690(4) 0.9891(5) 0.2205(3)
H46_7 H 0.7438 0.9490 0.2212
H48_7 H 0.8055 0.9730 0.2105
H55_7 H 0.9513 0.9392 0.5583
H56_7 H 0.9185 0.9471 0.5182
C16_7 C 0.7213(3) 0.3830(3) 0.0442(2)
C17_7 C 0.7511(3) 0.4247(3) 0.0046(2)
H28_7 H 0.7897 0.4089 0.0032
H29_7 H 0.7511 0.4749 0.0142
C18_7 C 0.6621(3) 0.4084(3) 0.0493(2)
H30_7 H 0.6626 0.4585 0.0592
H31_7 H 0.6444 0.3818 0.0768
O12_7 O 0.62932(16) 0.4011(2) 0.00510(14)
C19_7 C 0.7247(3) 0.3037(3) 0.0332(2)
H32_7 H 0.7061 0.2782 0.0606
H33_7 H 0.7637 0.2896 0.0336
C20_7 C 0.7497(3) 0.3946(4) 0.0943(2)
H34_7 H 0.7448 0.4435 0.1048
H35_7 H 0.7337 0.3633 0.1195
H36_7 H 0.7888 0.3845 0.0909
C22_8 C 0.6813(3) 0.6549(4) 0.0157(3)
H37_8 H 0.7111 0.6588 0.0402
H39_8 H 0.6462 0.6509 0.0334
C29_7 C 0.5594(4) 0.2784(5) 0.0804(3)
C30_7 C 0.5460(5) 0.2420(8) 0.1288(6)
H49_7 H 0.5557 0.2726 0.1570
H50_7 H 0.5068 0.2314 0.1300
H51_7 H 0.5670 0.1982 0.1311
O22_7 O 0.5906(3) 0.2533(3) 0.0482(3)
O23_7 O 0.5330(2) 0.3394(3) 0.0740(2)
H55_8 H 0.5487 0.5608 0.0583
H56_8 H 0.5815 0.5529 0.0182
O28_7 O 0.6539(2) 0.1329(3) 0.0358(2)
H59_7 H 0.6581 0.1298 0.0672
H60_7 H 0.6384 0.1721 0.0375
Mn1_8 Mn 0.63089(3) 0.23950(4) 0.87022(3)
Mn2_8 Mn 0.72795(4) 0.31987(5) 0.92449(3)
Mn3_8 Mn 0.65148(3) 0.45066(4) 0.94610(3)
Mn4_8 Mn 0.66777(3) 0.39114(5) 0.83900(4)
Mn5_8 Mn 0.55422(3) 0.37106(4) 0.89032(3)
Mn6_8 Mn 0.61417(4) 0.29640(6) 0.98259(5)
O1_8 O 0.64561(14) 0.34770(19) 0.90383(14)
C1_8 C 0.5076(2) 0.2104(3) 0.9255(2)
C2_8 C 0.5589(2) 0.1701(3) 0.9424(2)
H1_8 H 0.5612 0.1257 0.9232
H2_8 H 0.5549 0.1578 0.9782
O2_8 O 0.60878(14) 0.20843(18) 0.93580(13)
C3_8 C 0.5111(2) 0.2289(3) 0.8704(2)
H3_8 H 0.4765 0.2518 0.8602
H4_8 H 0.5148 0.1851 0.8508
O3_8 O 0.55589(14) 0.27462(19) 0.85838(14)
C4_8 C 0.4970(2) 0.2757(3) 0.9568(2)
H5_8 H 0.4920 0.2613 0.9921
H6_8 H 0.4622 0.2972 0.9454
O4_8 O 0.53858(14) 0.32743(18) 0.95466(14)
C5_8 C 0.4585(2) 0.1602(3) 0.9323(2)
H7_8 H 0.4251 0.1830 0.9201
H8_8 H 0.4649 0.1170 0.9133
H9_8 H 0.4542 0.1489 0.9679
C6_8 C 0.5860(2) 0.5380(3) 0.8531(2)
C7_8 C 0.5730(2) 0.4814(3) 0.8146(2)
H10_8 H 0.5920 0.4933 0.7829
H11_8 H 0.5332 0.4823 0.8078
O5_8 O 0.58817(15) 0.41134(19) 0.82875(14)
C8_8 C 0.6471(2) 0.5454(3) 0.8616(2)
H12_8 H 0.6534 0.5855 0.8845
H13_8 H 0.6647 0.5570 0.8292
O6_8 O 0.67310(14) 0.48498(18) 0.88186(14)
C9_8 C 0.5568(2) 0.5243(3) 0.9023(2)
H14_8 H 0.5169 0.5222 0.8959
H15_8 H 0.5636 0.5644 0.9250
O7_8 O 0.57305(14) 0.46067(18) 0.92742(13)
C10_8 C 0.5646(3) 0.6082(3) 0.8319(3)
H16_8 H 0.5828 0.6181 0.7999
H17_8 H 0.5250 0.6049 0.8266
H18_8 H 0.5724 0.6461 0.8556
C11_8 C 0.7509(2) 0.2503(3) 0.8079(2)
C12_8 C 0.7461(2) 0.2027(3) 0.8530(2)
H19_8 H 0.7827 0.1977 0.8686
H20_8 H 0.7343 0.1556 0.8417
O8_8 O 0.70835(15) 0.2276(2) 0.89003(15)
C13_8 C 0.7742(2) 0.3215(3) 0.8220(2)
H21_8 H 0.7773 0.3504 0.7913
H22_8 H 0.8116 0.3147 0.8355
O9_8 O 0.74225(15) 0.35998(19) 0.85842(14)
C14_8 C 0.6962(2) 0.2575(3) 0.7803(2)
H23_8 H 0.6846 0.2105 0.7686
H24_8 H 0.7018 0.2873 0.7504
O10_8 O 0.65327(14) 0.28712(19) 0.80999(14)
C15_8 C 0.7914(3) 0.2158(4) 0.7712(3)
H25_8 H 0.8277 0.2132 0.7868
H26_8 H 0.7787 0.1684 0.7630
H27_8 H 0.7935 0.2440 0.7406
O11_8 O 0.72727(15) 0.4178(2) 0.95568(14)
O13_8 O 0.7013(2) 0.2818(2) 0.98676(15)
C21_8 C 0.6900(3) 0.5914(3) 0.9840(2)
H38_8 H 0.6808 0.6969 0.9945
O14_8 O 0.65094(15) 0.54568(19) 0.98449(14)
C23_8 C 0.4460(2) 0.3880(3) 0.8366(2)
C24_8 C 0.3881(3) 0.4122(6) 0.8362(3)
H40_8 H 0.3684 0.3893 0.8088
H41_8 H 0.3707 0.4000 0.8681
H42_8 H 0.3870 0.4632 0.8316
O16_8 O 0.47227(15) 0.3991(2) 0.87753(14)
C25_8 C 0.6314(2) 0.0833(3) 0.8506(2)
C26_8 C 0.6087(3) 0.0220(3) 0.8217(3)
H44_8 H 0.5696 0.0296 0.8155
H45_8 H 0.6280 0.0179 0.7897
O18_8 O 0.61718(16) 0.1442(2) 0.83392(14)
C27_8 C 0.7282(3) 0.4797(4) 0.7693(3)
C28_8 C 0.7310(4) 0.5109(5) 0.7205(3)
H46_8 H 0.7562 0.5510 0.7212
H47_8 H 0.7442 0.4760 0.6963
H48_8 H 0.6945 0.5270 0.7105
O20_8 O 0.68825(17) 0.4339(2) 0.77687(16)
O21_8 O 0.76036(17) 0.4981(2) 0.80196(16)
C31_8 C 0.8486(3) 0.3371(4) 0.9269(3)
C32_8 C 0.9028(3) 0.3002(5) 0.9264(4)
H52_8 H 0.9323 0.3349 0.9271
H53_8 H 0.9056 0.2696 0.9558
H54_8 H 0.9058 0.2718 0.8959
O24_8 O 0.8071(2) 0.2975(2) 0.93663(16)
O25_8 O 0.84597(19) 0.3993(2) 0.91632(18)
O27_8 O 0.55790(19) 0.1955(2) 0.75104(17)
H57_8 H 0.5756 0.1730 0.7728
H58_8 H 0.5776 0.1934 0.7255
H43_8 H 0.6137 0.9788 0.8411
C16_8 C 0.7787(3) 0.8830(3) 0.0442(2)
C17_8 C 0.7489(3) 0.9247(3) 0.0046(2)
H28_8 H 0.7103 0.9089 0.0032
H29_8 H 0.7489 0.9749 0.0142
C18_8 C 0.8379(3) 0.9084(3) 0.0493(2)
H30_8 H 0.8374 0.9585 0.0592
H31_8 H 0.8556 0.8818 0.0768
O12_8 O 0.87068(16) 0.9011(2) 0.00510(14)
C19_8 C 0.7753(3) 0.8037(3) 0.0332(2)
H32_8 H 0.7939 0.7782 0.0606
H33_8 H 0.7363 0.7896 0.0336
C20_8 C 0.7503(3) 0.8946(4) 0.0943(2)
H34_8 H 0.7552 0.9435 0.1048
H35_8 H 0.7663 0.8633 0.1195
H36_8 H 0.7112 0.8845 0.0909
C29_8 C 0.9406(4) 0.7784(5) 0.0804(3)
C30_8 C 0.9540(5) 0.7420(8) 0.1288(6)
H49_8 H 0.9443 0.7726 0.1570
H50_8 H 0.9932 0.7314 0.1300
H51_8 H 0.9330 0.6982 0.1311
O22_8 O 0.9094(3) 0.7533(3) 0.0482(3)
O23_8 O 0.9670(2) 0.8394(3) 0.0740(2)
Na2_4 Na 0.96809(9) 0.92324(11) 0.01192(8)
O28_8 O 0.8461(2) 0.6329(3) 0.0358(2)
H59_8 H 0.8419 0.6298 0.0672
H60_8 H 0.8616 0.6721 0.0375
loop_
_geom_bond_atom_site_label_1
_geom_bond_atom_site_label_2
_geom_bond_site_symmetry_1
_geom_bond_site_symmetry_2
C16 C17 1_555 1_555
C17 H28 1_555 1_555
H29 C17 1_555 1_555
C18 C16 1_555 1_555
H30 C18 1_555 1_555
H31 C18 1_555 1_555
C19 C16 1_555 1_555
H32 C19 1_555 1_555
H33 C19 1_555 1_555
C20 C16 1_555 1_555
H34 C20 1_555 1_555
H35 C20 1_555 1_555
H36 C20 1_555 1_555
C29 C30 1_555 1_555
C30 H49 1_555 1_555
H50 C30 1_555 1_555
H51 C30 1_555 1_555
O23 C29 1_555 1_555
H59 O28 1_555 1_555
H60 O28 1_555 1_555
C18 O12 1_555 1_555
O12 Na6 1_555 1_555
C29 O22 1_555 1_555
O23 Na6 1_555 1_555
H5 C4 1_555 1_555
H6 C4 1_555 1_555
H7 C5 1_555 1_555
H8 C5 1_555 1_555
H9 C5 1_555 1_555
C23 C24 1_555 1_555
C24 H40 1_555 1_555
H41 C24 1_555 1_555
H42 C24 1_555 1_555
O17 C23 1_555 1_555
Na5 O17 1_555 1_555
C23 O16 1_555 1_555
C22 H37 1_555 1_555
H39 C22 1_555 1_555
H55 O26 1_555 1_555
H56 O26 1_555 1_555
C8 C6 1_555 1_555
H12 C8 1_555 1_555
H13 C8 1_555 1_555
C9 C6 1_555 1_555
H14 C9 1_555 1_555
H15 C9 1_555 1_555
C10 C6 1_555 1_555
H16 C10 1_555 1_555
H17 C10 1_555 1_555
H18 C10 1_555 1_555
O15 C21 1_555 1_555
C28 H46 1_555 1_555
H48 C28 1_555 1_555
Na8 O15 1_555 1_555
C21 O14 1_555 1_555
O31 Na8 1_555 1_555
Mn1 O1 1_555 1_555
Mn2 O1 1_555 1_555
Mn3 O1 1_555 1_555
Mn4 O1 1_555 1_555
Mn5 O1 1_555 1_555
Mn6 O1 1_555 1_555
C1 C2 1_555 1_555
C2 H1 1_555 1_555
H2 C2 1_555 1_555
O2 Mn1 1_555 1_555
C3 C1 1_555 1_555
H4 C3 1_555 1_555
O3 Mn1 1_555 1_555
O4 Mn5 1_555 1_555
C7 H10 1_555 1_555
H11 C7 1_555 1_555
O5 Mn4 1_555 1_555
O6 Mn3 1_555 1_555
O7 Mn3 1_555 1_555
C11 C12 1_555 1_555
C12 H19 1_555 1_555
H20 C12 1_555 1_555
O8 Mn1 1_555 1_555
C13 C11 1_555 1_555
H21 C13 1_555 1_555
H22 C13 1_555 1_555
O9 Mn2 1_555 1_555
C14 C11 1_555 1_555
H23 C14 1_555 1_555
H24 C14 1_555 1_555
O10 Mn1 1_555 1_555
C15 C11 1_555 1_555
H25 C15 1_555 1_555
H26 C15 1_555 1_555
H27 C15 1_555 1_555
O11 Mn2 1_555 1_555
O13 Mn2 1_555 1_555
C25 C26 1_555 1_555
C26 H43 1_555 1_555
H44 C26 1_555 1_555
H45 C26 1_555 1_555
O18 Mn1 1_555 1_555
O19 C25 1_555 1_555
O20 Mn4 1_555 1_555
O21 C27 1_555 1_555
C31 C32 1_555 1_555
C32 H52 1_555 1_555
H53 C32 1_555 1_555
H54 C32 1_555 1_555
O24 Mn2 1_555 1_555
O25 C31 1_555 1_555
Na1 O3 1_555 1_555
Na3 O6 1_555 1_555
Na4 O2 1_555 1_555
O27 Na1 1_555 1_555
H57 O27 1_555 1_555
H58 O27 1_555 1_555
O29 Na4 1_555 1_555
O30 Na1 1_555 1_555
Na7 O19 1_555 1_555
Mn2 O8 1_555 1_555
Mn3 O11 1_555 1_555
Mn4 O6 1_555 1_555
Mn4 O9 1_555 1_555
Mn4 O10 1_555 1_555
Mn5 O3 1_555 1_555
Mn5 O5 1_555 1_555
Mn5 O7 1_555 1_555
Mn6 O2 1_555 1_555
Mn6 O4 1_555 1_555
Mn6 O13 1_555 1_555
C2 O2 1_555 1_555
C3 O3 1_555 1_555
C7 O5 1_555 1_555
O5 Na1 1_555 1_555
C12 O8 1_555 1_555
O8 Na4 1_555 1_555
C13 O9 1_555 1_555
O9 Na3 1_555 1_555
C14 O10 1_555 1_555
O10 Na1 1_555 1_555
O11 Na3 1_555 1_555
O13 Na4 1_555 1_555
C25 O18 1_555 1_555
O19 Na4 1_555 1_555
C27 O20 1_555 1_555
O21 Na3 1_555 1_555
C31 O24 1_555 1_555
O25 Na3 1_555 1_555
O29 Na7 1_555 1_555
Mn1_2 O1_2 1_555 1_555
Mn2_2 O1_2 1_555 1_555
Mn3_2 O1_2 1_555 1_555
Mn4_2 O1_2 1_555 1_555
Mn5_2 O1_2 1_555 1_555
Mn6_2 O1_2 1_555 1_555
C1_2 C2_2 1_555 1_555
C2_2 H1_2 1_555 1_555
H2_2 C2_2 1_555 1_555
O2_2 Mn1_2 1_555 1_555
C3_2 C1_2 1_555 1_555
H3_2 C3_2 1_555 1_555
H4_2 C3_2 1_555 1_555
O3_2 Mn1_2 1_555 1_555
C4_2 C1_2 1_555 1_555
H5_2 C4_2 1_555 1_555
H6_2 C4_2 1_555 1_555
O4_2 Mn5_2 1_555 1_555
C5_2 C1_2 1_555 1_555
H7_2 C5_2 1_555 1_555
H8_2 C5_2 1_555 1_555
H9_2 C5_2 1_555 1_555
C6_2 C7_2 1_555 1_555
C7_2 H10_2 1_555 1_555
H11_2 C7_2 1_555 1_555
O5_2 Mn4_2 1_555 1_555
C8_2 C6_2 1_555 1_555
H12_2 C8_2 1_555 1_555
H13_2 C8_2 1_555 1_555
O6_2 Mn3_2 1_555 1_555
C9_2 C6_2 1_555 1_555
H14_2 C9_2 1_555 1_555
H15_2 C9_2 1_555 1_555
O7_2 Mn3_2 1_555 1_555
C10_2 C6_2 1_555 1_555
H16_2 C10_2 1_555 1_555
H17_2 C10_2 1_555 1_555
H18_2 C10_2 1_555 1_555
C11_2 C12_2 1_555 1_555
C12_2 H19_2 1_555 1_555
H20_2 C12_2 1_555 1_555
O8_2 Mn1_2 1_555 1_555
C13_2 C11_2 1_555 1_555
H21_2 C13_2 1_555 1_555
H22_2 C13_2 1_555 1_555
O9_2 Mn2_2 1_555 1_555
C14_2 C11_2 1_555 1_555
H23_2 C14_2 1_555 1_555
H24_2 C14_2 1_555 1_555
O10_2 Mn1_2 1_555 1_555
C15_2 C11_2 1_555 1_555
H25_2 C15_2 1_555 1_555
H26_2 C15_2 1_555 1_555
H27_2 C15_2 1_555 1_555
C16_2 C17_2 1_555 1_555
C17_2 H28_2 1_555 1_555
H29_2 C17_2 1_555 1_555
O11_2 Mn2_2 1_555 1_555
C18_2 C16_2 1_555 1_555
H30_2 C18_2 1_555 1_555
H31_2 C18_2 1_555 1_555
O12_2 Mn3_2 1_555 1_555
C19_2 C16_2 1_555 1_555
H32_2 C19_2 1_555 1_555
H33_2 C19_2 1_555 1_555
O13_2 Mn2_2 1_555 1_555
C20_2 C16_2 1_555 1_555
H34_2 C20_2 1_555 1_555
H35_2 C20_2 1_555 1_555
H36_2 C20_2 1_555 1_555
C21_2 C22_2 1_555 1_555
C22_2 H37_2 1_555 1_555
H38_2 C22_2 1_555 1_555
H39_2 C22_2 1_555 1_555
O14_2 Mn3_2 1_555 1_555
O15_2 C21_2 1_555 1_555
C23_2 C24_2 1_555 1_555
C24_2 H40_2 1_555 1_555
H41_2 C24_2 1_555 1_555
H42_2 C24_2 1_555 1_555
O16_2 Mn5_2 1_555 1_555
O17_2 C23_2 1_555 1_555
C25_2 C26_2 1_555 1_555
H44_2 C26_2 1_555 1_555
H45_2 C26_2 1_555 1_555
O18_2 Mn1_2 1_555 1_555
O19_2 C25_2 1_555 1_555
C27_2 C28_2 1_555 1_555
C28_2 H46_2 1_555 1_555
H47_2 C28_2 1_555 1_555
H48_2 C28_2 1_555 1_555
O20_2 Mn4_2 1_555 1_555
O21_2 C27_2 1_555 1_555
C29_2 C30_2 1_555 1_555
C30_2 H49_2 1_555 1_555
H50_2 C30_2 1_555 1_555
H51_2 C30_2 1_555 1_555
O22_2 Mn6_2 1_555 1_555
O23_2 C29_2 1_555 1_555
C31_2 C32_2 1_555 1_555
C32_2 H52_2 1_555 1_555
H53_2 C32_2 1_555 1_555
H54_2 C32_2 1_555 1_555
O24_2 Mn2_2 1_555 1_555
O25_2 C31_2 1_555 1_555
Na1_2 O3_2 1_555 1_555
Na2 O4_2 1_555 1_555
Na3_2 O6_2 1_555 1_555
Na4_2 O2_2 1_555 1_555
O26_2 Na2 1_555 1_555
H55_2 O26_2 1_555 1_555
H56_2 O26_2 1_555 1_555
O27_2 Na1_2 1_555 1_555
H57_2 O27_2 1_555 1_555
H58_2 O27_2 1_555 1_555
O28_2 Na4_2 1_555 1_555
H59_2 O28_2 1_555 1_555
H60_2 O28_2 1_555 1_555
O29_2 Na4_2 1_555 1_555
O30_2 Na1_2 1_555 1_555
O31_2 Na3_2 1_555 1_555
Na5_2 O17_2 1_555 1_555
Na6_2 O26_2 1_555 1_555
Na8_2 O15_2 1_555 1_555
O32_2 Na2 1_555 1_555
Mn2_2 O8_2 1_555 1_555
Mn3_2 O11_2 1_555 1_555
Mn4_2 O6_2 1_555 1_555
Mn4_2 O9_2 1_555 1_555
Mn4_2 O10_2 1_555 1_555
Mn5_2 O3_2 1_555 1_555
Mn5_2 O5_2 1_555 1_555
Mn5_2 O7_2 1_555 1_555
Mn6_2 O2_2 1_555 1_555
Mn6_2 O4_2 1_555 1_555
Mn6_2 O12_2 1_555 1_555
Mn6_2 O13_2 1_555 1_555
C2_2 O2_2 1_555 1_555
C3_2 O3_2 1_555 1_555
C4_2 O4_2 1_555 1_555
C7_2 O5_2 1_555 1_555
O5_2 Na1_2 1_555 1_555
C8_2 O6_2 1_555 1_555
C9_2 O7_2 1_555 1_555
O7_2 Na2 1_555 1_555
C12_2 O8_2 1_555 1_555
O8_2 Na4_2 1_555 1_555
C13_2 O9_2 1_555 1_555
O9_2 Na3_2 1_555 1_555
C14_2 O10_2 1_555 1_555
O10_2 Na1_2 1_555 1_555
C17_2 O11_2 1_555 1_555
O11_2 Na3_2 1_555 1_555
C18_2 O12_2 1_555 1_555
O12_2 Na2 1_555 1_555
C19_2 O13_2 1_555 1_555
O13_2 Na4_2 1_555 1_555
C21_2 O14_2 1_555 1_555
O15_2 Na3_2 1_555 1_555
C23_2 O16_2 1_555 1_555
O17_2 Na1_2 1_555 1_555
C25_2 O18_2 1_555 1_555
O19_2 Na4_2 1_555 1_555
C27_2 O20_2 1_555 1_555
O21_2 Na3_2 1_555 1_555
C29_2 O22_2 1_555 1_555
O23_2 Na2 1_555 1_555
C31_2 O24_2 1_555 1_555
O25_2 Na3_2 1_555 1_555
O30_2 Na5_2 1_555 1_555
O31_2 Na8_2 1_555 1_555
Na6_2 O32_2 1_555 1_555
C8_3 C6_3 1_555 1_555
H12_3 C8_3 1_555 1_555
H13_3 C8_3 1_555 1_555
C9_3 C6_3 1_555 1_555
H14_3 C9_3 1_555 1_555
H15_3 C9_3 1_555 1_555
C10_3 C6_3 1_555 1_555
H16_3 C10_3 1_555 1_555
H17_3 C10_3 1_555 1_555
H18_3 C10_3 1_555 1_555
C21_3 C22_3 1_555 1_555
C22_3 H37_3 1_555 1_555
H38_3 C22_3 1_555 1_555
H39_3 C22_3 1_555 1_555
O15_3 C21_3 1_555 1_555
C28_3 H46_3 1_555 1_555
H48_3 C28_3 1_555 1_555
H55_3 O26_3 1_555 1_555
H56_3 O26_3 1_555 1_555
Na8_3 O15_3 1_555 1_555
C21_3 O14_3 1_555 1_555
O31_3 Na8_3 1_555 1_555
Mn1_3 O1_3 1_555 1_555
Mn2_3 O1_3 1_555 1_555
Mn3_3 O1_3 1_555 1_555
Mn4_3 O1_3 1_555 1_555
Mn5_3 O1_3 1_555 1_555
Mn6_3 O1_3 1_555 1_555
C1_3 C2_3 1_555 1_555
C2_3 H1_3 1_555 1_555
H2_3 C2_3 1_555 1_555
O2_3 Mn1_3 1_555 1_555
C3_3 C1_3 1_555 1_555
H4_3 C3_3 1_555 1_555
O3_3 Mn1_3 1_555 1_555
O4_3 Mn5_3 1_555 1_555
C7_3 H10_3 1_555 1_555
H11_3 C7_3 1_555 1_555
O5_3 Mn4_3 1_555 1_555
O6_3 Mn3_3 1_555 1_555
O7_3 Mn3_3 1_555 1_555
C11_3 C12_3 1_555 1_555
C12_3 H19_3 1_555 1_555
H20_3 C12_3 1_555 1_555
O8_3 Mn1_3 1_555 1_555
C13_3 C11_3 1_555 1_555
H21_3 C13_3 1_555 1_555
H22_3 C13_3 1_555 1_555
O9_3 Mn2_3 1_555 1_555
C14_3 C11_3 1_555 1_555
H23_3 C14_3 1_555 1_555
H24_3 C14_3 1_555 1_555
O10_3 Mn1_3 1_555 1_555
C15_3 C11_3 1_555 1_555
H25_3 C15_3 1_555 1_555
H26_3 C15_3 1_555 1_555
H27_3 C15_3 1_555 1_555
C16_3 C17_3 1_555 1_555
C17_3 H28_3 1_555 1_555
H29_3 C17_3 1_555 1_555
O11_3 Mn2_3 1_555 1_555
C18_3 C16_3 1_555 1_555
H30_3 C18_3 1_555 1_555
H31_3 C18_3 1_555 1_555
O12_3 Mn3_3 1_555 1_555
C19_3 C16_3 1_555 1_555
H32_3 C19_3 1_555 1_555
H33_3 C19_3 1_555 1_555
O13_3 Mn2_3 1_555 1_555
C20_3 C16_3 1_555 1_555
H34_3 C20_3 1_555 1_555
H35_3 C20_3 1_555 1_555
H36_3 C20_3 1_555 1_555
C25_3 C26_3 1_555 1_555
C26_3 H43_3 1_555 1_555
H44_3 C26_3 1_555 1_555
H45_3 C26_3 1_555 1_555
O18_3 Mn1_3 1_555 1_555
O19_3 C25_3 1_555 1_555
O20_3 Mn4_3 1_555 1_555
O21_3 C27_3 1_555 1_555
C29_3 C30_3 1_555 1_555
C30_3 H49_3 1_555 1_555
H50_3 C30_3 1_555 1_555
H51_3 C30_3 1_555 1_555
O22_3 Mn6_3 1_555 1_555
O23_3 C29_3 1_555 1_555
C31_3 C32_3 1_555 1_555
C32_3 H52_3 1_555 1_555
H53_3 C32_3 1_555 1_555
H54_3 C32_3 1_555 1_555
O24_3 Mn2_3 1_555 1_555
O25_3 C31_3 1_555 1_555
Na5 O3_3 1_555 1_555
Na2_2 O4_3 1_555 1_555
Na3_3 O6_3 1_555 1_555
Na4_3 O2_3 1_555 1_555
O27_3 Na5 1_555 1_555
H57_3 O27_3 1_555 1_555
H58_3 O27_3 1_555 1_555
O28_3 Na4_3 1_555 1_555
H59_3 O28_3 1_555 1_555
H60_3 O28_3 1_555 1_555
O29_3 Na4_3 1_555 1_555
Na7_3 O19_3 1_555 1_555
Mn2_3 O8_3 1_555 1_555
Mn3_3 O11_3 1_555 1_555
Mn4_3 O6_3 1_555 1_555
Mn4_3 O9_3 1_555 1_555
Mn4_3 O10_3 1_555 1_555
Mn5_3 O3_3 1_555 1_555
Mn5_3 O5_3 1_555 1_555
Mn5_3 O7_3 1_555 1_555
Mn6_3 O2_3 1_555 1_555
Mn6_3 O4_3 1_555 1_555
Mn6_3 O12_3 1_555 1_555
Mn6_3 O13_3 1_555 1_555
C2_3 O2_3 1_555 1_555
C3_3 O3_3 1_555 1_555
C7_3 O5_3 1_555 1_555
O5_3 Na5 1_555 1_555
O7_3 Na2_2 1_555 1_555
C12_3 O8_3 1_555 1_555
O8_3 Na4_3 1_555 1_555
C13_3 O9_3 1_555 1_555
O9_3 Na3_3 1_555 1_555
C14_3 O10_3 1_555 1_555
O10_3 Na5 1_555 1_555
C17_3 O11_3 1_555 1_555
O11_3 Na3_3 1_555 1_555
C18_3 O12_3 1_555 1_555
O12_3 Na2_2 1_555 1_555
C19_3 O13_3 1_555 1_555
O13_3 Na4_3 1_555 1_555
C25_3 O18_3 1_555 1_555
O19_3 Na4_3 1_555 1_555
C27_3 O20_3 1_555 1_555
O21_3 Na3_3 1_555 1_555
C29_3 O22_3 1_555 1_555
O23_3 Na2_2 1_555 1_555
C31_3 O24_3 1_555 1_555
O25_3 Na3_3 1_555 1_555
O29_3 Na7_3 1_555 1_555
H5_3 C4_3 1_555 1_555
H6_3 C4_3 1_555 1_555
H7_3 C5_3 1_555 1_555
H8_3 C5_3 1_555 1_555
H9_3 C5_3 1_555 1_555
C23_3 C24_3 1_555 1_555
C24_3 H40_3 1_555 1_555
H41_3 C24_3 1_555 1_555
H42_3 C24_3 1_555 1_555
O30 C23_3 1_555 1_555
C23_3 O16_3 1_555 1_555
Mn1_4 O1_4 1_555 1_555
Mn2_4 O1_4 1_555 1_555
Mn3_4 O1_4 1_555 1_555
Mn4_4 O1_4 1_555 1_555
Mn5_4 O1_4 1_555 1_555
Mn6_4 O1_4 1_555 1_555
C1_4 C2_4 1_555 1_555
C2_4 H1_4 1_555 1_555
H2_4 C2_4 1_555 1_555
O2_4 Mn1_4 1_555 1_555
C3_4 C1_4 1_555 1_555
H3_4 C3_4 1_555 1_555
H4_4 C3_4 1_555 1_555
O3_4 Mn1_4 1_555 1_555
C4_4 C1_4 1_555 1_555
H5_4 C4_4 1_555 1_555
H6_4 C4_4 1_555 1_555
O4_4 Mn5_4 1_555 1_555
C5_4 C1_4 1_555 1_555
H7_4 C5_4 1_555 1_555
H8_4 C5_4 1_555 1_555
H9_4 C5_4 1_555 1_555
C6_4 C7_4 1_555 1_555
C7_4 H10_4 1_555 1_555
H11_4 C7_4 1_555 1_555
O5_4 Mn4_4 1_555 1_555
C8_4 C6_4 1_555 1_555
H12_4 C8_4 1_555 1_555
H13_4 C8_4 1_555 1_555
O6_4 Mn3_4 1_555 1_555
C9_4 C6_4 1_555 1_555
H14_4 C9_4 1_555 1_555
H15_4 C9_4 1_555 1_555
O7_4 Mn3_4 1_555 1_555
C10_4 C6_4 1_555 1_555
H16_4 C10_4 1_555 1_555
H17_4 C10_4 1_555 1_555
H18_4 C10_4 1_555 1_555
C11_4 C12_4 1_555 1_555
C12_4 H19_4 1_555 1_555
H20_4 C12_4 1_555 1_555
O8_4 Mn1_4 1_555 1_555
C13_4 C11_4 1_555 1_555
H21_4 C13_4 1_555 1_555
H22_4 C13_4 1_555 1_555
O9_4 Mn2_4 1_555 1_555
C14_4 C11_4 1_555 1_555
H23_4 C14_4 1_555 1_555
H24_4 C14_4 1_555 1_555
O10_4 Mn1_4 1_555 1_555
C15_4 C11_4 1_555 1_555
H25_4 C15_4 1_555 1_555
H26_4 C15_4 1_555 1_555
H27_4 C15_4 1_555 1_555
O11_4 Mn2_4 1_555 1_555
O13_4 Mn2_4 1_555 1_555
O14_4 Mn3_4 1_555 1_555
O15_4 C21_4 1_555 1_555
C23_4 C24_4 1_555 1_555
C24_4 H40_4 1_555 1_555
H41_4 C24_4 1_555 1_555
H42_4 C24_4 1_555 1_555
O16_4 Mn5_4 1_555 1_555
O30_2 C23_4 1_555 1_555
C25_4 C26_4 1_555 1_555
H44_4 C26_4 1_555 1_555
H45_4 C26_4 1_555 1_555
O18_4 Mn1_4 1_555 1_555
O19_4 C25_4 1_555 1_555
C27_4 C28_4 1_555 1_555
C28_4 H46_4 1_555 1_555
H47_4 C28_4 1_555 1_555
H48_4 C28_4 1_555 1_555
O20_4 Mn4_4 1_555 1_555
O21_4 C27_4 1_555 1_555
C31_4 C32_4 1_555 1_555
C32_4 H52_4 1_555 1_555
H53_4 C32_4 1_555 1_555
H54_4 C32_4 1_555 1_555
O24_4 Mn2_4 1_555 1_555
O25_4 C31_4 1_555 1_555
Na5_2 O3_4 1_555 1_555
Na3_4 O6_4 1_555 1_555
Na4_4 O2_4 1_555 1_555
O27_4 Na5_2 1_555 1_555
H57_4 O27_4 1_555 1_555
H58_4 O27_4 1_555 1_555
O29_4 Na4_4 1_555 1_555
O31_4 Na3_4 1_555 1_555
Na8_4 O15_4 1_555 1_555
Mn2_4 O8_4 1_555 1_555
Mn3_4 O11_4 1_555 1_555
Mn4_4 O6_4 1_555 1_555
Mn4_4 O9_4 1_555 1_555
Mn4_4 O10_4 1_555 1_555
Mn5_4 O3_4 1_555 1_555
Mn5_4 O5_4 1_555 1_555
Mn5_4 O7_4 1_555 1_555
Mn6_4 O2_4 1_555 1_555
Mn6_4 O4_4 1_555 1_555
Mn6_4 O13_4 1_555 1_555
C2_4 O2_4 1_555 1_555
C3_4 O3_4 1_555 1_555
C4_4 O4_4 1_555 1_555
C7_4 O5_4 1_555 1_555
O5_4 Na5_2 1_555 1_555
C8_4 O6_4 1_555 1_555
C9_4 O7_4 1_555 1_555
C12_4 O8_4 1_555 1_555
O8_4 Na4_4 1_555 1_555
C13_4 O9_4 1_555 1_555
O9_4 Na3_4 1_555 1_555
C14_4 O10_4 1_555 1_555
O10_4 Na5_2 1_555 1_555
O11_4 Na3_4 1_555 1_555
O13_4 Na4_4 1_555 1_555
C21_4 O14_4 1_555 1_555
O15_4 Na3_4 1_555 1_555
C23_4 O16_4 1_555 1_555
C25_4 O18_4 1_555 1_555
O19_4 Na4_4 1_555 1_555
C27_4 O20_4 1_555 1_555
O21_4 Na3_4 1_555 1_555
C31_4 O24_4 1_555 1_555
O25_4 Na3_4 1_555 1_555
O31_4 Na8_4 1_555 1_555
Na6_4 O32_4 1_555 1_555
C16_4 C17_4 1_555 1_555
C17_4 H28_4 1_555 1_555
H29_4 C17_4 1_555 1_555
C18_4 C16_4 1_555 1_555
H30_4 C18_4 1_555 1_555
H31_4 C18_4 1_555 1_555
C19_4 C16_4 1_555 1_555
H32_4 C19_4 1_555 1_555
H33_4 C19_4 1_555 1_555
C20_4 C16_4 1_555 1_555
H34_4 C20_4 1_555 1_555
H35_4 C20_4 1_555 1_555
H36_4 C20_4 1_555 1_555
C22_4 H37_4 1_555 1_555
H39_4 C22_4 1_555 1_555
C29_4 C30_4 1_555 1_555
C30_4 H49_4 1_555 1_555
H50_4 C30_4 1_555 1_555
H51_4 C30_4 1_555 1_555
O23_4 C29_4 1_555 1_555
O26_4 Na2_3 1_555 1_555
H55_4 O26_4 1_555 1_555
H56_4 O26_4 1_555 1_555
H59_4 O28_4 1_555 1_555
H60_4 O28_4 1_555 1_555
C18_4 O12_4 1_555 1_555
O12_4 Na2_3 1_555 1_555
C29_4 O22_4 1_555 1_555
O23_4 Na2_3 1_555 1_555
Mn1_5 O1_5 1_555 1_555
Mn2_5 O1_5 1_555 1_555
Mn3_5 O1_5 1_555 1_555
Mn4_5 O1_5 1_555 1_555
Mn5_5 O1_5 1_555 1_555
Mn6_5 O1_5 1_555 1_555
C1_5 C2_5 1_555 1_555
C2_5 H1_5 1_555 1_555
H2_5 C2_5 1_555 1_555
O2_5 Mn1_5 1_555 1_555
C3_5 C1_5 1_555 1_555
H4_5 C3_5 1_555 1_555
O3_5 Mn1_5 1_555 1_555
O4_5 Mn5_5 1_555 1_555
C7_5 H10_5 1_555 1_555
H11_5 C7_5 1_555 1_555
O5_5 Mn4_5 1_555 1_555
O6_5 Mn3_5 1_555 1_555
O7_5 Mn3_5 1_555 1_555
C11_5 C12_5 1_555 1_555
C12_5 H19_5 1_555 1_555
H20_5 C12_5 1_555 1_555
O8_5 Mn1_5 1_555 1_555
C13_5 C11_5 1_555 1_555
H21_5 C13_5 1_555 1_555
H22_5 C13_5 1_555 1_555
O9_5 Mn2_5 1_555 1_555
C14_5 C11_5 1_555 1_555
H23_5 C14_5 1_555 1_555
H24_5 C14_5 1_555 1_555
O10_5 Mn1_5 1_555 1_555
C15_5 C11_5 1_555 1_555
H25_5 C15_5 1_555 1_555
H26_5 C15_5 1_555 1_555
H27_5 C15_5 1_555 1_555
O11_5 Mn2_5 1_555 1_555
O13_5 Mn2_5 1_555 1_555
C25_5 C26_5 1_555 1_555
C26_5 H43_5 1_555 1_555
H44_5 C26_5 1_555 1_555
H45_5 C26_5 1_555 1_555
O18_5 Mn1_5 1_555 1_555
O31_4 C25_5 1_555 1_555
O20_5 Mn4_5 1_555 1_555
O21_5 C27_5 1_555 1_555
C31_5 C32_5 1_555 1_555
C32_5 H52_5 1_555 1_555
H53_5 C32_5 1_555 1_555
H54_5 C32_5 1_555 1_555
O24_5 Mn2_5 1_555 1_555
O25_5 C31_5 1_555 1_555
Na1_3 O3_5 1_555 1_555
Na7_4 O6_5 1_555 1_555
Na8_4 O2_5 1_555 1_555
O27_5 Na1_3 1_555 1_555
H57_5 O27_5 1_555 1_555
H58_5 O27_5 1_555 1_555
O30_3 Na1_3 1_555 1_555
Mn2_5 O8_5 1_555 1_555
Mn3_5 O11_5 1_555 1_555
Mn4_5 O6_5 1_555 1_555
Mn4_5 O9_5 1_555 1_555
Mn4_5 O10_5 1_555 1_555
Mn5_5 O3_5 1_555 1_555
Mn5_5 O5_5 1_555 1_555
Mn5_5 O7_5 1_555 1_555
Mn6_5 O2_5 1_555 1_555
Mn6_5 O4_5 1_555 1_555
Mn6_5 O13_5 1_555 1_555
C2_5 O2_5 1_555 1_555
C3_5 O3_5 1_555 1_555
C7_5 O5_5 1_555 1_555
O5_5 Na1_3 1_555 1_555
C12_5 O8_5 1_555 1_555
O8_5 Na8_4 1_555 1_555
C13_5 O9_5 1_555 1_555
O9_5 Na7_4 1_555 1_555
C14_5 O10_5 1_555 1_555
O10_5 Na1_3 1_555 1_555
O11_5 Na7_4 1_555 1_555
O13_5 Na8_4 1_555 1_555
C25_5 O18_5 1_555 1_555
C27_5 O20_5 1_555 1_555
O21_5 Na7_4 1_555 1_555
C31_5 O24_5 1_555 1_555
O25_5 Na7_4 1_555 1_555
C8_5 C6_5 1_555 1_555
H12_5 C8_5 1_555 1_555
H13_5 C8_5 1_555 1_555
C9_5 C6_5 1_555 1_555
H14_5 C9_5 1_555 1_555
H15_5 C9_5 1_555 1_555
C10_5 C6_5 1_555 1_555
H16_5 C10_5 1_555 1_555
H17_5 C10_5 1_555 1_555
H18_5 C10_5 1_555 1_555
O29_4 C21_5 1_555 1_555
C28_5 H46_5 1_555 1_555
H48_5 C28_5 1_555 1_555
C21_5 O14_5 1_555 1_555
C22_5 H37_5 1_555 1_555
H39_5 C22_5 1_555 1_555
H55_5 O32 1_555 1_555
H56_5 O32 1_555 1_555
H5_5 C4_5 1_555 1_555
H6_5 C4_5 1_555 1_555
H7_5 C5_5 1_555 1_555
H8_5 C5_5 1_555 1_555
H9_5 C5_5 1_555 1_555
C23_5 C24_5 1_555 1_555
C24_5 H40_5 1_555 1_555
H41_5 C24_5 1_555 1_555
H42_5 C24_5 1_555 1_555
O17_3 C23_5 1_555 1_555
Na5_3 O17_3 1_555 1_555
C23_5 O16_5 1_555 1_555
Mn1_6 O1_6 1_555 1_555
Mn2_6 O1_6 1_555 1_555
Mn3_6 O1_6 1_555 1_555
Mn4_6 O1_6 1_555 1_555
Mn5_6 O1_6 1_555 1_555
Mn6_6 O1_6 1_555 1_555
C1_6 C2_6 1_555 1_555
C2_6 H1_6 1_555 1_555
H2_6 C2_6 1_555 1_555
O2_6 Mn1_6 1_555 1_555
C3_6 C1_6 1_555 1_555
H3_6 C3_6 1_555 1_555
H4_6 C3_6 1_555 1_555
O3_6 Mn1_6 1_555 1_555
C4_6 C1_6 1_555 1_555
H5_6 C4_6 1_555 1_555
H6_6 C4_6 1_555 1_555
O4_6 Mn5_6 1_555 1_555
C5_6 C1_6 1_555 1_555
H7_6 C5_6 1_555 1_555
H8_6 C5_6 1_555 1_555
H9_6 C5_6 1_555 1_555
C6_6 C7_6 1_555 1_555
C7_6 H10_6 1_555 1_555
H11_6 C7_6 1_555 1_555
O5_6 Mn4_6 1_555 1_555
C8_6 C6_6 1_555 1_555
H12_6 C8_6 1_555 1_555
H13_6 C8_6 1_555 1_555
O6_6 Mn3_6 1_555 1_555
C9_6 C6_6 1_555 1_555
H14_6 C9_6 1_555 1_555
H15_6 C9_6 1_555 1_555
O7_6 Mn3_6 1_555 1_555
C10_6 C6_6 1_555 1_555
H16_6 C10_6 1_555 1_555
H17_6 C10_6 1_555 1_555
H18_6 C10_6 1_555 1_555
C11_6 C12_6 1_555 1_555
C12_6 H19_6 1_555 1_555
H20_6 C12_6 1_555 1_555
O8_6 Mn1_6 1_555 1_555
C13_6 C11_6 1_555 1_555
H21_6 C13_6 1_555 1_555
H22_6 C13_6 1_555 1_555
O9_6 Mn2_6 1_555 1_555
C14_6 C11_6 1_555 1_555
H23_6 C14_6 1_555 1_555
H24_6 C14_6 1_555 1_555
O10_6 Mn1_6 1_555 1_555
C15_6 C11_6 1_555 1_555
H25_6 C15_6 1_555 1_555
H26_6 C15_6 1_555 1_555
H27_6 C15_6 1_555 1_555
C16_5 C17_5 1_555 1_555
C17_5 H28_5 1_555 1_555
H29_5 C17_5 1_555 1_555
O11_6 Mn2_6 1_555 1_555
C18_5 C16_5 1_555 1_555
H30_5 C18_5 1_555 1_555
H31_5 C18_5 1_555 1_555
O12_5 Mn3_6 1_555 1_555
C19_5 C16_5 1_555 1_555
H32_5 C19_5 1_555 1_555
H33_5 C19_5 1_555 1_555
O13_6 Mn2_6 1_555 1_555
C20_5 C16_5 1_555 1_555
H34_5 C20_5 1_555 1_555
H35_5 C20_5 1_555 1_555
H36_5 C20_5 1_555 1_555
C21_6 C22_6 1_555 1_555
C22_6 H37_6 1_555 1_555
H38_6 C22_6 1_555 1_555
H39_6 C22_6 1_555 1_555
O14_6 Mn3_6 1_555 1_555
O29_3 C21_6 1_555 1_555
C23_6 C24_6 1_555 1_555
C24_6 H40_6 1_555 1_555
H41_6 C24_6 1_555 1_555
H42_6 C24_6 1_555 1_555
O16_6 Mn5_6 1_555 1_555
O17_4 C23_6 1_555 1_555
C25_6 C26_6 1_555 1_555
H44_6 C26_6 1_555 1_555
H45_6 C26_6 1_555 1_555
O18_6 Mn1_6 1_555 1_555
O31_3 C25_6 1_555 1_555
C27_6 C28_6 1_555 1_555
C28_6 H46_6 1_555 1_555
H47_6 C28_6 1_555 1_555
H48_6 C28_6 1_555 1_555
O20_6 Mn4_6 1_555 1_555
O21_6 C27_6 1_555 1_555
C29_5 C30_5 1_555 1_555
C30_5 H49_5 1_555 1_555
H50_5 C30_5 1_555 1_555
H51_5 C30_5 1_555 1_555
O22_5 Mn6_6 1_555 1_555
O23_5 C29_5 1_555 1_555
C31_6 C32_6 1_555 1_555
C32_6 H52_6 1_555 1_555
H53_6 C32_6 1_555 1_555
H54_6 C32_6 1_555 1_555
O24_6 Mn2_6 1_555 1_555
O25_6 C31_6 1_555 1_555
Na1_4 O3_6 1_555 1_555
Na6_2 O4_6 1_555 1_555
Na7_3 O6_6 1_555 1_555
Na8_3 O2_6 1_555 1_555
H55_6 O32_2 1_555 1_555
H56_6 O32_2 1_555 1_555
O27_6 Na1_4 1_555 1_555
H57_6 O27_6 1_555 1_555
H58_6 O27_6 1_555 1_555
O28_5 Na8_3 1_555 1_555
H59_5 O28_5 1_555 1_555
H60_5 O28_5 1_555 1_555
O30_4 Na1_4 1_555 1_555
Na5_4 O17_4 1_555 1_555
Mn2_6 O8_6 1_555 1_555
Mn3_6 O11_6 1_555 1_555
Mn4_6 O6_6 1_555 1_555
Mn4_6 O9_6 1_555 1_555
Mn4_6 O10_6 1_555 1_555
Mn5_6 O3_6 1_555 1_555
Mn5_6 O5_6 1_555 1_555
Mn5_6 O7_6 1_555 1_555
Mn6_6 O2_6 1_555 1_555
Mn6_6 O4_6 1_555 1_555
Mn6_6 O12_5 1_555 1_555
Mn6_6 O13_6 1_555 1_555
C2_6 O2_6 1_555 1_555
C3_6 O3_6 1_555 1_555
C4_6 O4_6 1_555 1_555
C7_6 O5_6 1_555 1_555
O5_6 Na1_4 1_555 1_555
C8_6 O6_6 1_555 1_555
C9_6 O7_6 1_555 1_555
O7_6 Na6_2 1_555 1_555
C12_6 O8_6 1_555 1_555
O8_6 Na8_3 1_555 1_555
C13_6 O9_6 1_555 1_555
O9_6 Na7_3 1_555 1_555
C14_6 O10_6 1_555 1_555
O10_6 Na1_4 1_555 1_555
C17_5 O11_6 1_555 1_555
O11_6 Na7_3 1_555 1_555
C18_5 O12_5 1_555 1_555
O12_5 Na6_2 1_555 1_555
C19_5 O13_6 1_555 1_555
O13_6 Na8_3 1_555 1_555
C21_6 O14_6 1_555 1_555
C23_6 O16_6 1_555 1_555
O17_4 Na1_4 1_555 1_555
C25_6 O18_6 1_555 1_555
C27_6 O20_6 1_555 1_555
O21_6 Na7_3 1_555 1_555
C29_5 O22_5 1_555 1_555
O23_5 Na6_2 1_555 1_555
C31_6 O24_6 1_555 1_555
O25_6 Na7_3 1_555 1_555
O30_4 Na5_4 1_555 1_555
H5_7 C4_7 1_555 1_555
H6_7 C4_7 1_555 1_555
H7_7 C5_7 1_555 1_555
H8_7 C5_7 1_555 1_555
H9_7 C5_7 1_555 1_555
C23_7 C24_7 1_555 1_555
C24_7 H40_7 1_555 1_555
H41_7 C24_7 1_555 1_555
H42_7 C24_7 1_555 1_555
O30_3 C23_7 1_555 1_555
C23_7 O16_7 1_555 1_555
Mn1_7 O1_7 1_555 1_555
Mn2_7 O1_7 1_555 1_555
Mn3_7 O1_7 1_555 1_555
Mn4_7 O1_7 1_555 1_555
Mn5_7 O1_7 1_555 1_555
Mn6_7 O1_7 1_555 1_555
C1_7 C2_7 1_555 1_555
C2_7 H1_7 1_555 1_555
H2_7 C2_7 1_555 1_555
O2_7 Mn1_7 1_555 1_555
C3_7 C1_7 1_555 1_555
H4_7 C3_7 1_555 1_555
O3_7 Mn1_7 1_555 1_555
O4_7 Mn5_7 1_555 1_555
C7_7 H10_7 1_555 1_555
H11_7 C7_7 1_555 1_555
O5_7 Mn4_7 1_555 1_555
O6_7 Mn3_7 1_555 1_555
O7_7 Mn3_7 1_555 1_555
C11_7 C12_7 1_555 1_555
C12_7 H19_7 1_555 1_555
H20_7 C12_7 1_555 1_555
O8_7 Mn1_7 1_555 1_555
C13_7 C11_7 1_555 1_555
H21_7 C13_7 1_555 1_555
H22_7 C13_7 1_555 1_555
O9_7 Mn2_7 1_555 1_555
C14_7 C11_7 1_555 1_555
H23_7 C14_7 1_555 1_555
H24_7 C14_7 1_555 1_555
O10_7 Mn1_7 1_555 1_555
C15_7 C11_7 1_555 1_555
H25_7 C15_7 1_555 1_555
H26_7 C15_7 1_555 1_555
H27_7 C15_7 1_555 1_555
C16_6 C17_6 1_555 1_555
C17_6 H28_6 1_555 1_555
H29_6 C17_6 1_555 1_555
O11_7 Mn2_7 1_555 1_555
C18_6 C16_6 1_555 1_555
H30_6 C18_6 1_555 1_555
H31_6 C18_6 1_555 1_555
O12_6 Mn3_7 1_555 1_555
C19_6 C16_6 1_555 1_555
H32_6 C19_6 1_555 1_555
H33_6 C19_6 1_555 1_555
O13_7 Mn2_7 1_555 1_555
C20_6 C16_6 1_555 1_555
H34_6 C20_6 1_555 1_555
H35_6 C20_6 1_555 1_555
H36_6 C20_6 1_555 1_555
C25_7 C26_7 1_555 1_555
C26_7 H43_7 1_555 1_555
H44_7 C26_7 1_555 1_555
H45_7 C26_7 1_555 1_555
O18_7 Mn1_7 1_555 1_555
O31_2 C25_7 1_555 1_555
O20_7 Mn4_7 1_555 1_555
O21_7 C27_7 1_555 1_555
C29_6 C30_6 1_555 1_555
C30_6 H49_6 1_555 1_555
H50_6 C30_6 1_555 1_555
H51_6 C30_6 1_555 1_555
O22_6 Mn6_7 1_555 1_555
O23_6 C29_6 1_555 1_555
C31_7 C32_7 1_555 1_555
C32_7 H52_7 1_555 1_555
H53_7 C32_7 1_555 1_555
H54_7 C32_7 1_555 1_555
O24_7 Mn2_7 1_555 1_555
O25_7 C31_7 1_555 1_555
Na5_3 O3_7 1_555 1_555
Na6_3 O4_7 1_555 1_555
Na7_2 O6_7 1_555 1_555
Na8_2 O2_7 1_555 1_555
O27_7 Na5_3 1_555 1_555
H57_7 O27_7 1_555 1_555
H58_7 O27_7 1_555 1_555
O28_6 Na8_2 1_555 1_555
H59_6 O28_6 1_555 1_555
H60_6 O28_6 1_555 1_555
Mn2_7 O8_7 1_555 1_555
Mn3_7 O11_7 1_555 1_555
Mn4_7 O6_7 1_555 1_555
Mn4_7 O9_7 1_555 1_555
Mn4_7 O10_7 1_555 1_555
Mn5_7 O3_7 1_555 1_555
Mn5_7 O5_7 1_555 1_555
Mn5_7 O7_7 1_555 1_555
Mn6_7 O2_7 1_555 1_555
Mn6_7 O4_7 1_555 1_555
Mn6_7 O12_6 1_555 1_555
Mn6_7 O13_7 1_555 1_555
C2_7 O2_7 1_555 1_555
C3_7 O3_7 1_555 1_555
C7_7 O5_7 1_555 1_555
O5_7 Na5_3 1_555 1_555
O7_7 Na6_3 1_555 1_555
C12_7 O8_7 1_555 1_555
O8_7 Na8_2 1_555 1_555
C13_7 O9_7 1_555 1_555
O9_7 Na7_2 1_555 1_555
C14_7 O10_7 1_555 1_555
O10_7 Na5_3 1_555 1_555
C17_6 O11_7 1_555 1_555
O11_7 Na7_2 1_555 1_555
C18_6 O12_6 1_555 1_555
O12_6 Na6_3 1_555 1_555
C19_6 O13_7 1_555 1_555
O13_7 Na8_2 1_555 1_555
C25_7 O18_7 1_555 1_555
C27_7 O20_7 1_555 1_555
O21_7 Na7_2 1_555 1_555
C29_6 O22_6 1_555 1_555
O23_6 Na6_3 1_555 1_555
C31_7 O24_7 1_555 1_555
O25_7 Na7_2 1_555 1_555
C8_7 C6_7 1_555 1_555
H12_7 C8_7 1_555 1_555
H13_7 C8_7 1_555 1_555
C9_7 C6_7 1_555 1_555
H14_7 C9_7 1_555 1_555
H15_7 C9_7 1_555 1_555
C10_7 C6_7 1_555 1_555
H16_7 C10_7 1_555 1_555
H17_7 C10_7 1_555 1_555
H18_7 C10_7 1_555 1_555
C21_7 C22_7 1_555 1_555
C22_7 H37_7 1_555 1_555
H38_7 C22_7 1_555 1_555
H39_7 C22_7 1_555 1_555
O29_2 C21_7 1_555 1_555
C28_7 H46_7 1_555 1_555
H48_7 C28_7 1_555 1_555
H55_7 O32_3 1_555 1_555
H56_7 O32_3 1_555 1_555
C21_7 O14_7 1_555 1_555
C16_7 C17_7 1_555 1_555
C17_7 H28_7 1_555 1_555
H29_7 C17_7 1_555 1_555
C18_7 C16_7 1_555 1_555
H30_7 C18_7 1_555 1_555
H31_7 C18_7 1_555 1_555
C19_7 C16_7 1_555 1_555
H32_7 C19_7 1_555 1_555
H33_7 C19_7 1_555 1_555
C20_7 C16_7 1_555 1_555
H34_7 C20_7 1_555 1_555
H35_7 C20_7 1_555 1_555
H36_7 C20_7 1_555 1_555
C22_8 H37_8 1_555 1_555
H39_8 C22_8 1_555 1_555
C29_7 C30_7 1_555 1_555
C30_7 H49_7 1_555 1_555
H50_7 C30_7 1_555 1_555
H51_7 C30_7 1_555 1_555
O23_7 C29_7 1_555 1_555
H55_8 O32_4 1_555 1_555
H56_8 O32_4 1_555 1_555
H59_7 O28_7 1_555 1_555
H60_7 O28_7 1_555 1_555
C18_7 O12_7 1_555 1_555
O12_7 Na6_4 1_555 1_555
C29_7 O22_7 1_555 1_555
O23_7 Na6_4 1_555 1_555
Mn1_8 O1_8 1_555 1_555
Mn2_8 O1_8 1_555 1_555
Mn3_8 O1_8 1_555 1_555
Mn4_8 O1_8 1_555 1_555
Mn5_8 O1_8 1_555 1_555
Mn6_8 O1_8 1_555 1_555
C1_8 C2_8 1_555 1_555
C2_8 H1_8 1_555 1_555
H2_8 C2_8 1_555 1_555
O2_8 Mn1_8 1_555 1_555
C3_8 C1_8 1_555 1_555
H3_8 C3_8 1_555 1_555
H4_8 C3_8 1_555 1_555
O3_8 Mn1_8 1_555 1_555
C4_8 C1_8 1_555 1_555
H5_8 C4_8 1_555 1_555
H6_8 C4_8 1_555 1_555
O4_8 Mn5_8 1_555 1_555
C5_8 C1_8 1_555 1_555
H7_8 C5_8 1_555 1_555
H8_8 C5_8 1_555 1_555
H9_8 C5_8 1_555 1_555
C6_8 C7_8 1_555 1_555
C7_8 H10_8 1_555 1_555
H11_8 C7_8 1_555 1_555
O5_8 Mn4_8 1_555 1_555
C8_8 C6_8 1_555 1_555
H12_8 C8_8 1_555 1_555
H13_8 C8_8 1_555 1_555
O6_8 Mn3_8 1_555 1_555
C9_8 C6_8 1_555 1_555
H14_8 C9_8 1_555 1_555
H15_8 C9_8 1_555 1_555
O7_8 Mn3_8 1_555 1_555
C10_8 C6_8 1_555 1_555
H16_8 C10_8 1_555 1_555
H17_8 C10_8 1_555 1_555
H18_8 C10_8 1_555 1_555
C11_8 C12_8 1_555 1_555
C12_8 H19_8 1_555 1_555
H20_8 C12_8 1_555 1_555
O8_8 Mn1_8 1_555 1_555
C13_8 C11_8 1_555 1_555
H21_8 C13_8 1_555 1_555
H22_8 C13_8 1_555 1_555
O9_8 Mn2_8 1_555 1_555
C14_8 C11_8 1_555 1_555
H23_8 C14_8 1_555 1_555
H24_8 C14_8 1_555 1_555
O10_8 Mn1_8 1_555 1_555
C15_8 C11_8 1_555 1_555
H25_8 C15_8 1_555 1_555
H26_8 C15_8 1_555 1_555
H27_8 C15_8 1_555 1_555
O11_8 Mn2_8 1_555 1_555
O13_8 Mn2_8 1_555 1_555
O14_8 Mn3_8 1_555 1_555
O29 C21_8 1_555 1_555
C23_8 C24_8 1_555 1_555
C24_8 H40_8 1_555 1_555
H41_8 C24_8 1_555 1_555
H42_8 C24_8 1_555 1_555
O16_8 Mn5_8 1_555 1_555
O30_4 C23_8 1_555 1_555
C25_8 C26_8 1_555 1_555
H44_8 C26_8 1_555 1_555
H45_8 C26_8 1_555 1_555
O18_8 Mn1_8 1_555 1_555
O31 C25_8 1_555 1_555
C27_8 C28_8 1_555 1_555
C28_8 H46_8 1_555 1_555
H47_8 C28_8 1_555 1_555
H48_8 C28_8 1_555 1_555
O20_8 Mn4_8 1_555 1_555
O21_8 C27_8 1_555 1_555
C31_8 C32_8 1_555 1_555
C32_8 H52_8 1_555 1_555
H53_8 C32_8 1_555 1_555
H54_8 C32_8 1_555 1_555
O24_8 Mn2_8 1_555 1_555
O25_8 C31_8 1_555 1_555
Na5_4 O3_8 1_555 1_555
Na7 O6_8 1_555 1_555
Na8 O2_8 1_555 1_555
O27_8 Na5_4 1_555 1_555
H57_8 O27_8 1_555 1_555
H58_8 O27_8 1_555 1_555
Mn2_8 O8_8 1_555 1_555
Mn3_8 O11_8 1_555 1_555
Mn4_8 O6_8 1_555 1_555
Mn4_8 O9_8 1_555 1_555
Mn4_8 O10_8 1_555 1_555
Mn5_8 O3_8 1_555 1_555
Mn5_8 O5_8 1_555 1_555
Mn5_8 O7_8 1_555 1_555
Mn6_8 O2_8 1_555 1_555
Mn6_8 O4_8 1_555 1_555
Mn6_8 O13_8 1_555 1_555
C2_8 O2_8 1_555 1_555
C3_8 O3_8 1_555 1_555
C4_8 O4_8 1_555 1_555
C7_8 O5_8 1_555 1_555
O5_8 Na5_4 1_555 1_555
C8_8 O6_8 1_555 1_555
C9_8 O7_8 1_555 1_555
C12_8 O8_8 1_555 1_555
O8_8 Na8 1_555 1_555
C13_8 O9_8 1_555 1_555
O9_8 Na7 1_555 1_555
C14_8 O10_8 1_555 1_555
O10_8 Na5_4 1_555 1_555
O11_8 Na7 1_555 1_555
O13_8 Na8 1_555 1_555
C21_8 O14_8 1_555 1_555
C23_8 O16_8 1_555 1_555
C25_8 O18_8 1_555 1_555
C27_8 O20_8 1_555 1_555
O21_8 Na7 1_555 1_555
C31_8 O24_8 1_555 1_555
O25_8 Na7 1_555 1_555
C16_8 C17_8 1_555 1_555
C17_8 H28_8 1_555 1_555
H29_8 C17_8 1_555 1_555
C18_8 C16_8 1_555 1_555
H30_8 C18_8 1_555 1_555
H31_8 C18_8 1_555 1_555
C19_8 C16_8 1_555 1_555
H32_8 C19_8 1_555 1_555
H33_8 C19_8 1_555 1_555
C20_8 C16_8 1_555 1_555
H34_8 C20_8 1_555 1_555
H35_8 C20_8 1_555 1_555
H36_8 C20_8 1_555 1_555
C29_8 C30_8 1_555 1_555
C30_8 H49_8 1_555 1_555
H50_8 C30_8 1_555 1_555
H51_8 C30_8 1_555 1_555
O23_8 C29_8 1_555 1_555
H59_8 O28_8 1_555 1_555
H60_8 O28_8 1_555 1_555
C18_8 O12_8 1_555 1_555
O12_8 Na2_4 1_555 1_555
C29_8 O22_8 1_555 1_555
O23_8 Na2_4 1_555 1_555

#END
