
###############################################################################
#
# This file contains modified crystal structure data generated from the
# MOF subset of the Cambridge Structural Database (CSD) v543 
# hosted by the Cambridge Crystallographic Data Centre (CCDC).
#
# This work is licensed under the Creative Commons
# Attribution-NonCommercial-ShareAlike 4.0 International License.
# To view a copy of this license, visit
# http://creativecommons.org/licenses/by-nc-sa/4.0/
# or send a letter to
# Creative Commons, PO Box 1866, Mountain View, CA 94042, USA.
#
# CIF created using the CSD Python API on 29 September 2022
# The structure has been converted into the P1 space group
# The structure has a 3D framework
# The original CSD entry HUHHOI is in the orthorhombic crystal system
# The framework has been calculated to contain at least 10.0% void space
# The void calculation uses a probe of radius 1.32A, grid spacing 0.4
# H atom positions have been added when not included in the experimental data
#
###############################################################################

data_HUHHOI
_chemical_formula_moiety         '(C104 H104 Cd30 Cl22 N126)n'
_symmetry_cell_setting           triclinic
_symmetry_space_group_name_H-M   'P 1'
_symmetry_Int_Tables_number      1
_space_group_name_Hall           'P 1'
loop_
_symmetry_equiv_pos_site_id
_symmetry_equiv_pos_as_xyz
1 x,y,z
_cell_length_a                   13.663(5)
_cell_length_b                   37.256(8)
_cell_length_c                   10.932(2)
_cell_angle_alpha                90
_cell_angle_beta                 90
_cell_angle_gamma                90
_cell_volume                     5564.7
loop_
_atom_site_label
_atom_site_type_symbol
_atom_site_fract_x
_atom_site_fract_y
_atom_site_fract_z
C7 C -0.0000 0.19310(13) 0.0612(12)
Cd8 Cd 0.13742(3) 0.122638(9) 0.3374(2)
Cd14 Cd 0.24978(15) 0.183393(9) 0.0883(2)
N20 N 0.0793(9) 0.1808(3) 0.1064(12)
N23 N 0.0485(8) 0.1586(4) 0.1935(12)
Cl1 Cl 0.25167(9) 0.17955(3) 0.3391(7)
Cl2 Cl 0.2500 0.2500 0.0902(16)
Cl3 Cl 0.0000 0.07728(5) 0.3345(12)
N1 N 0.2193(14) 0.1010(4) 0.1795(14)
N2 N 0.2498(16) 0.12084(12) 0.0933(18)
N3 N 0.2819(12) 0.0995(4) 0.0009(11)
N4 N 0.2628(12) 0.0674(3) 0.0283(10)
N5 N 0.0794(8) 0.1798(4) 0.5624(13)
N6 N 0.0450(9) 0.1569(4) 0.4821(10)
C1 C 0.2179(18) 0.0649(5) 0.1331(19)
C2 C 0.2214(9) 0.03338(19) 0.2145(8)
H1 H 0.1595 0.0311 0.2573
H2 H 0.2724 0.0368 0.2751
C3 C 0.2408(9) -0.0000 0.1452(11)
H3 H 0.3088 0.0000 0.1194
H4 H 0.2006 0.0000 0.0720
C4 C 0.0000 0.1956(4) 0.6202(17)
C5 C 0.0000 0.22214(13) 0.7192(12)
C6 C -0.0000 0.19688(13) 0.8397(12)
C8 C 0.0000 0.21704(13) 0.9499(12)
Cd9 Cd 0.25022(15) 0.183393(9) 0.5883(2)
Cd10 Cd 0.25022(15) 0.316607(9) 0.0883(2)
Cl6 Cl 0.24833(9) 0.17955(3) 0.8391(7)
Cl7 Cl 0.2500 0.2500 0.5902(16)
N11 N 0.2502(16) 0.12084(12) 0.5933(18)
N13 N 0.2181(12) 0.0995(4) 0.5009(11)
N17 N 0.4206(8) 0.1798(4) 0.0624(13)
N22 N 0.4207(9) 0.1808(3) 0.6064(12)
H9 H 0.0615 0.2368 0.7190
H10 H 0.0701 0.1810 0.8540
H12 H 0.0650783 0.233904 0.952058
Cd5 Cd 0.36258(3) 0.122638(9) 0.8374(2)
C3_2 C 0.2408(9) 1.0000 0.1452(11)
H3_2 H 0.3088 1.0000 0.1194
H4_2 H 0.2006 1.0000 0.0720
Cd3 Cd 0.13742(3) 0.877362(9) 0.3374(2)
Cd12 Cd 0.24978(15) 0.816607(9) 0.0883(2)
Cl5 Cl 0.25167(9) 0.82045(3) 0.3391(7)
Cl8 Cl -0.0000 0.92272(5) 0.3345(12)
N9 N 0.2193(14) 0.8990(4) 0.1795(14)
N10 N 0.2498(16) 0.87916(12) 0.0933(18)
N12 N 0.2819(12) 0.9005(4) 0.0009(11)
N14 N 0.2181(12) 0.9005(4) 0.5009(11)
N15 N 0.2628(12) 0.9326(3) 0.0283(10)
N19 N 0.0450(9) 0.8431(4) 0.4821(10)
N25 N 0.0485(8) 0.8414(4) 0.1935(12)
C9 C 0.2179(18) 0.9351(5) 0.1331(19)
C10 C 0.2214(9) 0.96662(19) 0.2145(8)
H7 H 0.1595 0.9689 0.2573
H8 H 0.2724 0.9632 0.2751
Cd7 Cd 0.36258(3) 0.877362(9) 0.8374(2)
N7 N 0.9207(9) 0.1808(3) 0.1064(12)
N8 N 0.9515(8) 0.1586(4) 0.1935(12)
C7_2 C 1.0000 0.19310(13) 0.0612(12)
Cd6 Cd 0.86258(3) 0.122638(9) 0.3374(2)
Cd11 Cd 0.75022(15) 0.183393(9) 0.0883(2)
Cl3_2 Cl 1.0000 0.07728(5) 0.3345(12)
C4_2 C 1.0000 0.1956(4) 0.6202(17)
C5_2 C 1.0000 0.22214(13) 0.7192(12)
H5 H 0.9385 0.2368 0.7190
C6_2 C 1.0000 0.19688(13) 0.8397(12)
H6 H 0.9299 0.1810 0.8540
C8_2 C 1.0000 0.21704(13) 0.9499(12)
Cd13 Cd 0.74978(15) 0.183393(9) 0.5883(2)
N16 N 0.9206(8) 0.1798(4) 0.5624(13)
N18 N 0.9550(9) 0.1569(4) 0.4821(10)
H11 H 0.934922 0.233904 0.952058
Cl8_2 Cl 1.0000 0.92272(5) 0.3345(12)
N7_2 N 0.0793(9) 0.8192(3) 0.1064(12)
C7_3 C 0.0000 0.80690(13) 0.0612(12)
C4_3 C -0.0000 0.8044(4) 0.6202(17)
C5_3 C -0.0000 0.77786(13) 0.7192(12)
H5_2 H 0.0615 0.7632 0.7190
C6_3 C 0.0000 0.80312(13) 0.8397(12)
H6_2 H 0.0701 0.8190 0.8540
C8_3 C -0.0000 0.78296(13) 0.9499(12)
Cd13_2 Cd 0.25022(15) 0.816607(9) 0.5883(2)
N16_2 N 0.0794(8) 0.8202(4) 0.5624(13)
H11_2 H 0.0650783 0.766096 0.952058
C3_3 C 0.7592(9) -0.0000 0.1452(11)
H3_3 H 0.6912 0.0000 0.1194
H4_3 H 0.7994 0.0000 0.0720
Cl5_2 Cl 0.74833(9) 0.17955(3) 0.3391(7)
N9_2 N 0.7807(14) 0.1010(4) 0.1795(14)
N10_2 N 0.7502(16) 0.12084(12) 0.0933(18)
N12_2 N 0.7181(12) 0.0995(4) 0.0009(11)
N14_2 N 0.7819(12) 0.0995(4) 0.5009(11)
N15_2 N 0.7372(12) 0.0674(3) 0.0283(10)
C9_2 C 0.7821(18) 0.0649(5) 0.1331(19)
C10_2 C 0.7786(9) 0.03338(19) 0.2145(8)
H7_2 H 0.8405 0.0311 0.2573
H8_2 H 0.7276 0.0368 0.2751
Cd7_2 Cd 0.63742(3) 0.122638(9) 0.8374(2)
C7_4 C 1.0000 0.80690(13) 0.0612(12)
Cd8_2 Cd 0.86258(3) 0.877362(9) 0.3374(2)
Cd14_2 Cd 0.75022(15) 0.816607(9) 0.0883(2)
N20_2 N 0.9207(9) 0.8192(3) 0.1064(12)
N23_2 N 0.9515(8) 0.8414(4) 0.1935(12)
Cl1_2 Cl 0.74833(9) 0.82045(3) 0.3391(7)
Cl2_2 Cl 0.7500 0.7500 0.0902(16)
N1_2 N 0.7807(14) 0.8990(4) 0.1795(14)
N2_2 N 0.7502(16) 0.87916(12) 0.0933(18)
N3_2 N 0.7181(12) 0.9005(4) 0.0009(11)
N4_2 N 0.7372(12) 0.9326(3) 0.0283(10)
N5_2 N 0.9206(8) 0.8202(4) 0.5624(13)
N6_2 N 0.9550(9) 0.8431(4) 0.4821(10)
C1_2 C 0.7821(18) 0.9351(5) 0.1331(19)
C2_2 C 0.7786(9) 0.96662(19) 0.2145(8)
H1_2 H 0.8405 0.9689 0.2573
H2_2 H 0.7276 0.9632 0.2751
C3_4 C 0.7592(9) 1.0000 0.1452(11)
H3_4 H 0.6912 1.0000 0.1194
H4_4 H 0.7994 1.0000 0.0720
C4_4 C 1.0000 0.8044(4) 0.6202(17)
C5_4 C 1.0000 0.77786(13) 0.7192(12)
C6_4 C 1.0000 0.80312(13) 0.8397(12)
C8_4 C 1.0000 0.78296(13) 0.9499(12)
Cd9_2 Cd 0.74978(15) 0.816607(9) 0.5883(2)
Cd10_2 Cd 0.74978(15) 0.683393(9) 0.0883(2)
Cl6_2 Cl 0.75167(9) 0.82045(3) 0.8391(7)
Cl7_2 Cl 0.7500 0.7500 0.5902(16)
N11_2 N 0.7498(16) 0.87916(12) 0.5933(18)
N13_2 N 0.7819(12) 0.9005(4) 0.5009(11)
N17_2 N 0.5794(8) 0.8202(4) 0.0624(13)
N22_2 N 0.5793(9) 0.8192(3) 0.6064(12)
H9_2 H 0.9385 0.7632 0.7190
H10_2 H 0.9299 0.8190 0.8540
H12_2 H 0.934922 0.766096 0.952058
Cd5_2 Cd 0.63742(3) 0.877362(9) 0.8374(2)
Cl2_3 Cl 0.2500 0.7500 0.0902(16)
Cd10_3 Cd 0.25022(15) 0.683393(9) 0.0883(2)
Cl6_3 Cl 0.24833(9) 0.82045(3) 0.8391(7)
Cl7_3 Cl 0.2500 0.7500 0.5902(16)
N11_3 N 0.2502(16) 0.87916(12) 0.5933(18)
N17_3 N 0.4206(8) 0.8202(4) 0.0624(13)
N22_3 N 0.4207(9) 0.8192(3) 0.6064(12)
Cl2_4 Cl 0.7500 0.2500 0.0902(16)
Cd10_4 Cd 0.74978(15) 0.316607(9) 0.0883(2)
Cl6_4 Cl 0.75167(9) 0.17955(3) 0.8391(7)
Cl7_4 Cl 0.7500 0.2500 0.5902(16)
N11_4 N 0.7498(16) 0.12084(12) 0.5933(18)
N17_4 N 0.5794(8) 0.1798(4) 0.0624(13)
N22_4 N 0.5793(9) 0.1808(3) 0.6064(12)
N5_3 N 0.0794(8) 0.6798(4) 0.0624(13)
C4_5 C -0.0000 0.6956(4) 0.1202(17)
C5_5 C 0.0000 0.72214(13) 0.2192(12)
C6_5 C 0.0000 0.69688(13) 0.3397(12)
C7_5 C 0.0000 0.69310(13) 0.5612(12)
C8_5 C -0.0000 0.71704(13) 0.4499(12)
Cd8_3 Cd 0.13742(3) 0.622638(9) 0.8374(2)
Cd14_3 Cd 0.24978(15) 0.683393(9) 0.5883(2)
Cl6_5 Cl 0.24833(9) 0.67955(3) 0.3391(7)
N11_5 N 0.2502(16) 0.62084(12) 0.0933(18)
N13_3 N 0.2181(12) 0.5995(4) 0.0009(11)
N14_3 N 0.2181(12) 0.4005(4) 0.0009(11)
N20_3 N 0.0793(9) 0.6808(3) 0.6064(12)
N22_5 N 0.4207(9) 0.6808(3) 0.1064(12)
N23_3 N 0.0485(8) 0.6586(4) 0.6935(12)
H9_3 H 0.0615 0.7368 0.2190
H10_3 H 0.0701 0.6810 0.3540
H12_3 H 0.0650783 0.733904 0.452058
Cl1_3 Cl 0.25167(9) 0.67955(3) 0.8391(7)
Cl3_3 Cl -0.0000 0.57728(5) 0.8345(12)
N1_3 N 0.2193(14) 0.6010(4) 0.6795(14)
N2_3 N 0.2498(16) 0.62084(12) 0.5933(18)
N3_3 N 0.2819(12) 0.5995(4) 0.5009(11)
N4_3 N 0.2628(12) 0.5674(3) 0.5283(10)
N6_3 N 0.0450(9) 0.6569(4) 0.9821(10)
C1_3 C 0.2179(18) 0.5649(5) 0.6331(19)
C2_3 C 0.2214(9) 0.53338(19) 0.7145(8)
H1_3 H 0.1595 0.5311 0.7573
H2_3 H 0.2724 0.5368 0.7751
C3_5 C 0.2408(9) 0.5000 0.6452(11)
H3_5 H 0.3088 0.5000 0.6194
H4_5 H 0.2006 0.5000 0.5720
Cd3_2 Cd 0.13742(3) 0.377362(9) 0.8374(2)
Cd5_3 Cd 0.36258(3) 0.622638(9) 0.3374(2)
Cd7_3 Cd 0.36258(3) 0.377362(9) 0.3374(2)
Cd12_2 Cd 0.24978(15) 0.316607(9) 0.5883(2)
Cl5_3 Cl 0.25167(9) 0.32045(3) 0.8391(7)
Cl8_3 Cl -0.0000 0.42272(5) 0.8345(12)
N9_3 N 0.2193(14) 0.3990(4) 0.6795(14)
N10_3 N 0.2498(16) 0.37916(12) 0.5933(18)
N12_3 N 0.2819(12) 0.4005(4) 0.5009(11)
N15_3 N 0.2628(12) 0.4326(3) 0.5283(10)
N17_5 N 0.4206(8) 0.6798(4) 0.5624(13)
N19_2 N 0.0450(9) 0.3431(4) 0.9821(10)
N25_2 N 0.0485(8) 0.3414(4) 0.6935(12)
C9_3 C 0.2179(18) 0.4351(5) 0.6331(19)
C10_3 C 0.2214(9) 0.46662(19) 0.7145(8)
H7_3 H 0.1595 0.4689 0.7573
H8_3 H 0.2724 0.4632 0.7751
N7_3 N 0.9207(9) 0.6808(3) 0.6064(12)
N8_2 N 0.9515(8) 0.6586(4) 0.6935(12)
C4_6 C 1.0000 0.6956(4) 0.1202(17)
C5_6 C 1.0000 0.72214(13) 0.2192(12)
H5_3 H 0.9385 0.7368 0.2190
C6_6 C 1.0000 0.69688(13) 0.3397(12)
H6_3 H 0.9299 0.6810 0.3540
C7_6 C 1.0000 0.69310(13) 0.5612(12)
C8_6 C 1.0000 0.71704(13) 0.4499(12)
Cd6_2 Cd 0.86258(3) 0.622638(9) 0.8374(2)
Cd11_2 Cd 0.75022(15) 0.683393(9) 0.5883(2)
N16_3 N 0.9206(8) 0.6798(4) 0.0624(13)
H11_3 H 0.934922 0.733904 0.452058
Cl3_4 Cl 1.0000 0.57728(5) 0.8345(12)
Cl8_4 Cl 1.0000 0.42272(5) 0.8345(12)
N18_2 N 0.9550(9) 0.6569(4) 0.9821(10)
N7_4 N 0.0793(9) 0.3192(3) 0.6064(12)
C4_7 C 0.0000 0.3044(4) 0.1202(17)
C5_7 C -0.0000 0.27786(13) 0.2192(12)
H5_4 H 0.0615 0.2632 0.2190
C6_7 C 0.0000 0.30312(13) 0.3397(12)
H6_4 H 0.0701 0.3190 0.3540
C7_7 C 0.0000 0.30690(13) 0.5612(12)
C8_7 C 0.0000 0.28296(13) 0.4499(12)
N16_4 N 0.0794(8) 0.3202(4) 0.0624(13)
H11_4 H 0.0650783 0.266096 0.452058
N5_4 N 0.9206(8) 0.3202(4) 0.0624(13)
C4_8 C 1.0000 0.3044(4) 0.1202(17)
C5_8 C 1.0000 0.27786(13) 0.2192(12)
C6_8 C 1.0000 0.30312(13) 0.3397(12)
C7_8 C 1.0000 0.30690(13) 0.5612(12)
C8_8 C 1.0000 0.28296(13) 0.4499(12)
Cd8_4 Cd 0.86258(3) 0.377362(9) 0.8374(2)
Cd14_4 Cd 0.75022(15) 0.316607(9) 0.5883(2)
Cl6_6 Cl 0.75167(9) 0.32045(3) 0.3391(7)
N11_6 N 0.7498(16) 0.37916(12) 0.0933(18)
N13_4 N 0.7819(12) 0.4005(4) 0.0009(11)
N14_4 N 0.7819(12) 0.5995(4) 0.0009(11)
N20_4 N 0.9207(9) 0.3192(3) 0.6064(12)
N22_6 N 0.5793(9) 0.3192(3) 0.1064(12)
N23_4 N 0.9515(8) 0.3414(4) 0.6935(12)
H9_4 H 0.9385 0.2632 0.2190
H10_4 H 0.9299 0.3190 0.3540
H12_4 H 0.934922 0.266096 0.452058
Cl1_4 Cl 0.74833(9) 0.32045(3) 0.8391(7)
N1_4 N 0.7807(14) 0.3990(4) 0.6795(14)
N2_4 N 0.7502(16) 0.37916(12) 0.5933(18)
N3_4 N 0.7181(12) 0.4005(4) 0.5009(11)
N4_4 N 0.7372(12) 0.4326(3) 0.5283(10)
N6_4 N 0.9550(9) 0.3431(4) 0.9821(10)
C1_4 C 0.7821(18) 0.4351(5) 0.6331(19)
C2_4 C 0.7786(9) 0.46662(19) 0.7145(8)
H1_4 H 0.8405 0.4689 0.7573
H2_4 H 0.7276 0.4632 0.7751
C3_6 C 0.7592(9) 0.5000 0.6452(11)
H3_6 H 0.6912 0.5000 0.6194
H4_6 H 0.7994 0.5000 0.5720
Cd5_4 Cd 0.63742(3) 0.377362(9) 0.3374(2)
Cd7_4 Cd 0.63742(3) 0.622638(9) 0.3374(2)
Cl5_4 Cl 0.74833(9) 0.67955(3) 0.8391(7)
N9_4 N 0.7807(14) 0.6010(4) 0.6795(14)
N10_4 N 0.7502(16) 0.62084(12) 0.5933(18)
N12_4 N 0.7181(12) 0.5995(4) 0.5009(11)
N15_4 N 0.7372(12) 0.5674(3) 0.5283(10)
N17_6 N 0.5794(8) 0.3202(4) 0.5624(13)
C9_4 C 0.7821(18) 0.5649(5) 0.6331(19)
C10_4 C 0.7786(9) 0.53338(19) 0.7145(8)
H7_4 H 0.8405 0.5311 0.7573
H8_4 H 0.7276 0.5368 0.7751
Cl6_7 Cl 0.24833(9) 0.32045(3) 0.3391(7)
N11_7 N 0.2502(16) 0.37916(12) 0.0933(18)
N22_7 N 0.4207(9) 0.3192(3) 0.1064(12)
N17_7 N 0.4206(8) 0.3202(4) 0.5624(13)
Cl6_8 Cl 0.75167(9) 0.67955(3) 0.3391(7)
N11_8 N 0.7498(16) 0.62084(12) 0.0933(18)
N22_8 N 0.5793(9) 0.6808(3) 0.1064(12)
N17_8 N 0.5794(8) 0.6798(4) 0.5624(13)
N8_3 N 0.4515(8) 0.1586(4) 0.6935(12)
C4_9 C 0.5000 0.1956(4) 0.1202(17)
C5_9 C 0.5000 0.22214(13) 0.2192(12)
H5_5 H 0.4385 0.2368 0.2190
C6_9 C 0.5000 0.19688(13) 0.3397(12)
H6_5 H 0.4299 0.1810 0.3540
C7_9 C 0.5000 0.19310(13) 0.5612(12)
C8_9 C 0.5000 0.21704(13) 0.4499(12)
N23_5 N 0.5485(8) 0.1586(4) 0.6935(12)
H9_5 H 0.5615 0.2368 0.2190
H10_5 H 0.5701 0.1810 0.3540
H11_5 H 0.434922 0.233904 0.452058
H12_5 H 0.565078 0.233904 0.452058
Cl3_5 Cl 0.5000 0.07728(5) 0.8345(12)
N1_5 N 0.7193(14) 0.1010(4) 0.6795(14)
N4_5 N 0.7628(12) 0.0674(3) 0.5283(10)
N6_5 N 0.5450(9) 0.1569(4) 0.9821(10)
C1_5 C 0.7179(18) 0.0649(5) 0.6331(19)
C2_5 C 0.7214(9) 0.03338(19) 0.7145(8)
H1_5 H 0.6595 0.0311 0.7573
H2_5 H 0.7724 0.0368 0.7751
C3_7 C 0.7408(9) -0.0000 0.6452(11)
H3_7 H 0.8088 0.0000 0.6194
H4_7 H 0.7006 0.0000 0.5720
N18_3 N 0.4550(9) 0.1569(4) 0.9821(10)
C3_8 C 0.7408(9) 1.0000 0.6452(11)
H3_8 H 0.8088 1.0000 0.6194
H4_8 H 0.7006 1.0000 0.5720
Cl8_5 Cl 0.5000 0.92272(5) 0.8345(12)
N9_5 N 0.7193(14) 0.8990(4) 0.6795(14)
N15_5 N 0.7628(12) 0.9326(3) 0.5283(10)
N19_3 N 0.5450(9) 0.8431(4) 0.9821(10)
N25_3 N 0.5485(8) 0.8414(4) 0.6935(12)
C9_5 C 0.7179(18) 0.9351(5) 0.6331(19)
C10_5 C 0.7214(9) 0.96662(19) 0.7145(8)
H7_5 H 0.6595 0.9689 0.7573
H8_5 H 0.7724 0.9632 0.7751
C3_9 C 0.2592(9) -0.0000 0.6452(11)
H3_9 H 0.1912 0.0000 0.6194
H4_9 H 0.2994 0.0000 0.5720
N9_6 N 0.2807(14) 0.1010(4) 0.6795(14)
N15_6 N 0.2372(12) 0.0674(3) 0.5283(10)
C9_6 C 0.2821(18) 0.0649(5) 0.6331(19)
C10_6 C 0.2786(9) 0.03338(19) 0.7145(8)
H7_6 H 0.3405 0.0311 0.7573
H8_6 H 0.2276 0.0368 0.7751
C4_10 C 0.5000 0.8044(4) 0.1202(17)
C5_10 C 0.5000 0.77786(13) 0.2192(12)
H5_6 H 0.5615 0.7632 0.2190
C6_10 C 0.5000 0.80312(13) 0.3397(12)
H6_6 H 0.5701 0.8190 0.3540
C7_10 C 0.5000 0.80690(13) 0.5612(12)
C8_10 C 0.5000 0.78296(13) 0.4499(12)
N23_6 N 0.4515(8) 0.8414(4) 0.6935(12)
H9_6 H 0.4385 0.7632 0.2190
H10_6 H 0.4299 0.8190 0.3540
H11_6 H 0.565078 0.766096 0.452058
H12_6 H 0.434922 0.766096 0.452058
N1_6 N 0.2807(14) 0.8990(4) 0.6795(14)
N4_6 N 0.2372(12) 0.9326(3) 0.5283(10)
N6_6 N 0.4550(9) 0.8431(4) 0.9821(10)
C1_6 C 0.2821(18) 0.9351(5) 0.6331(19)
C2_6 C 0.2786(9) 0.96662(19) 0.7145(8)
H1_6 H 0.3405 0.9689 0.7573
H2_6 H 0.2276 0.9632 0.7751
C3_10 C 0.2592(9) 1.0000 0.6452(11)
H3_10 H 0.1912 1.0000 0.6194
H4_10 H 0.2994 1.0000 0.5720
N8_4 N 0.4515(8) 0.6586(4) 0.1935(12)
C7_11 C 0.5000 0.69310(13) 0.0612(12)
N23_7 N 0.5485(8) 0.6586(4) 0.1935(12)
Cl3_6 Cl 0.5000 0.57728(5) 0.3345(12)
N1_7 N 0.7193(14) 0.6010(4) 0.1795(14)
N4_7 N 0.7628(12) 0.5674(3) 0.0283(10)
N6_7 N 0.5450(9) 0.6569(4) 0.4821(10)
C1_7 C 0.7179(18) 0.5649(5) 0.1331(19)
C2_7 C 0.7214(9) 0.53338(19) 0.2145(8)
H1_7 H 0.6595 0.5311 0.2573
H2_7 H 0.7724 0.5368 0.2751
C3_11 C 0.7408(9) 0.5000 0.1452(11)
H3_11 H 0.8088 0.5000 0.1194
H4_11 H 0.7006 0.5000 0.0720
C4_11 C 0.5000 0.6956(4) 0.6202(17)
C5_11 C 0.5000 0.72214(13) 0.7192(12)
H5_7 H 0.4385 0.7368 0.7190
C6_11 C 0.5000 0.69688(13) 0.8397(12)
H6_7 H 0.4299 0.6810 0.8540
C8_11 C 0.5000 0.71704(13) 0.9499(12)
Cl8_6 Cl 0.5000 0.42272(5) 0.3345(12)
N9_7 N 0.7193(14) 0.3990(4) 0.1795(14)
N15_7 N 0.7628(12) 0.4326(3) 0.0283(10)
N18_4 N 0.4550(9) 0.6569(4) 0.4821(10)
N19_4 N 0.5450(9) 0.3431(4) 0.4821(10)
N25_4 N 0.5485(8) 0.3414(4) 0.1935(12)
C9_7 C 0.7179(18) 0.4351(5) 0.1331(19)
C10_7 C 0.7214(9) 0.46662(19) 0.2145(8)
H7_7 H 0.6595 0.4689 0.2573
H8_7 H 0.7724 0.4632 0.2751
H9_7 H 0.5615 0.7368 0.7190
H10_7 H 0.5701 0.6810 0.8540
H11_7 H 0.434922 0.733904 0.952058
H12_7 H 0.565078 0.733904 0.952058
C7_12 C 0.5000 0.30690(13) 0.0612(12)
N23_8 N 0.4515(8) 0.3414(4) 0.1935(12)
N1_8 N 0.2807(14) 0.3990(4) 0.1795(14)
N4_8 N 0.2372(12) 0.4326(3) 0.0283(10)
N6_8 N 0.4550(9) 0.3431(4) 0.4821(10)
C1_8 C 0.2821(18) 0.4351(5) 0.1331(19)
C2_8 C 0.2786(9) 0.46662(19) 0.2145(8)
H1_8 H 0.3405 0.4689 0.2573
H2_8 H 0.2276 0.4632 0.2751
C3_12 C 0.2592(9) 0.5000 0.1452(11)
H3_12 H 0.1912 0.5000 0.1194
H4_12 H 0.2994 0.5000 0.0720
C4_12 C 0.5000 0.3044(4) 0.6202(17)
C5_12 C 0.5000 0.27786(13) 0.7192(12)
H5_8 H 0.5615 0.2632 0.7190
C6_12 C 0.5000 0.30312(13) 0.8397(12)
H6_8 H 0.5701 0.3190 0.8540
C8_12 C 0.5000 0.28296(13) 0.9499(12)
N9_8 N 0.2807(14) 0.6010(4) 0.1795(14)
N15_8 N 0.2372(12) 0.5674(3) 0.0283(10)
C9_8 C 0.2821(18) 0.5649(5) 0.1331(19)
C10_8 C 0.2786(9) 0.53338(19) 0.2145(8)
H7_8 H 0.3405 0.5311 0.2573
H8_8 H 0.2276 0.5368 0.2751
H9_8 H 0.4385 0.2632 0.7190
H10_8 H 0.4299 0.3190 0.8540
H11_8 H 0.565078 0.266096 0.952058
H12_8 H 0.434922 0.266096 0.952058
loop_
_geom_bond_atom_site_label_1
_geom_bond_atom_site_label_2
_geom_bond_site_symmetry_1
_geom_bond_site_symmetry_2
Cd8 N23 1_555 1_555
N20 C7 1_555 1_555
Cd14 N20 1_555 1_555
N20 N23 1_555 1_555
Cd8 Cl1 1_555 1_555
Cd14 Cl1 1_555 1_555
Cl1 Cd9 1_555 1_555
Cl2 Cd14 1_555 1_555
Cl3 Cd8 1_555 1_555
N1 Cd8 1_555 1_555
N2 Cd14 1_555 1_555
N3 N2 1_555 1_555
N4 N3 1_555 1_555
N5 N6 1_555 1_555
N6 Cd8 1_555 1_555
C1 N1 1_555 1_555
C2 C1 1_555 1_555
H1 C2 1_555 1_555
H2 C2 1_555 1_555
C3 C2 1_555 1_555
H3 C3 1_555 1_555
H4 C3 1_555 1_555
C4 N5 1_555 1_555
C5 C4 1_555 1_555
C6 C5 1_555 1_555
C8 C6 1_555 1_555
Cd9 N5 1_555 1_555
Cd10 Cl2 1_555 1_555
Cl6 Cd9 1_555 1_555
Cl7 Cd9 1_555 1_555
N11 Cd9 1_555 1_555
N13 Cd8 1_555 1_555
N17 Cd14 1_555 1_555
N22 Cd9 1_555 1_555
H9 C5 1_555 1_555
H10 C6 1_555 1_555
N1 N2 1_555 1_555
N4 C1 1_555 1_555
N11 N13 1_555 1_555
C8 H12 1_555 1_555
Cd5 Cl6 1_555 1_555
H3_2 C3_2 1_555 1_555
H4_2 C3_2 1_555 1_555
Cd3 Cl5 1_555 1_555
Cd12 Cl5 1_555 1_555
Cl8 Cd3 1_555 1_555
N9 Cd3 1_555 1_555
N10 Cd12 1_555 1_555
N12 N10 1_555 1_555
N14 Cd3 1_555 1_555
N15 N12 1_555 1_555
N19 Cd3 1_555 1_555
N25 Cd3 1_555 1_555
C9 N9 1_555 1_555
C10 C3_2 1_555 1_555
H7 C10 1_555 1_555
H8 C10 1_555 1_555
N9 N10 1_555 1_555
N15 C9 1_555 1_555
C9 C10 1_555 1_555
N7 N8 1_555 1_555
N8 Cd6 1_555 1_555
C7_2 N7 1_555 1_555
Cd11 N7 1_555 1_555
C5_2 C4_2 1_555 1_555
H5 C5_2 1_555 1_555
C6_2 C5_2 1_555 1_555
H6 C6_2 1_555 1_555
C8_2 C6_2 1_555 1_555
Cd6 Cl3_2 1_555 1_555
Cd13 N16 1_555 1_555
N16 C4_2 1_555 1_555
Cd6 N18 1_555 1_555
N16 N18 1_555 1_555
C8_2 H11 1_555 1_555
N7_2 N25 1_555 1_555
C7_3 N7_2 1_555 1_555
Cd12 N7_2 1_555 1_555
C5_3 C4_3 1_555 1_555
H5_2 C5_3 1_555 1_555
C6_3 C5_3 1_555 1_555
H6_2 C6_3 1_555 1_555
C8_3 C6_3 1_555 1_555
Cd13_2 N16_2 1_555 1_555
N16_2 C4_3 1_555 1_555
N16_2 N19 1_555 1_555
C8_3 H11_2 1_555 1_555
H3_3 C3_3 1_555 1_555
H4_3 C3_3 1_555 1_555
Cd6 Cl5_2 1_555 1_555
Cd11 Cl5_2 1_555 1_555
N9_2 Cd6 1_555 1_555
N10_2 Cd11 1_555 1_555
N12_2 N10_2 1_555 1_555
N14_2 Cd6 1_555 1_555
N15_2 N12_2 1_555 1_555
C9_2 N9_2 1_555 1_555
C10_2 C3_3 1_555 1_555
H7_2 C10_2 1_555 1_555
H8_2 C10_2 1_555 1_555
N9_2 N10_2 1_555 1_555
N15_2 C9_2 1_555 1_555
C9_2 C10_2 1_555 1_555
Cd8_2 N23_2 1_555 1_555
N20_2 C7_4 1_555 1_555
Cd14_2 N20_2 1_555 1_555
N20_2 N23_2 1_555 1_555
Cd8_2 Cl1_2 1_555 1_555
Cd14_2 Cl1_2 1_555 1_555
Cl1_2 Cd9_2 1_555 1_555
Cl2_2 Cd14_2 1_555 1_555
Cl8_2 Cd8_2 1_555 1_555
N1_2 Cd8_2 1_555 1_555
N2_2 Cd14_2 1_555 1_555
N3_2 N2_2 1_555 1_555
N4_2 N3_2 1_555 1_555
N5_2 N6_2 1_555 1_555
N6_2 Cd8_2 1_555 1_555
C1_2 N1_2 1_555 1_555
C2_2 C1_2 1_555 1_555
H1_2 C2_2 1_555 1_555
H2_2 C2_2 1_555 1_555
C3_4 C2_2 1_555 1_555
H3_4 C3_4 1_555 1_555
H4_4 C3_4 1_555 1_555
C4_4 N5_2 1_555 1_555
C5_4 C4_4 1_555 1_555
C6_4 C5_4 1_555 1_555
C8_4 C6_4 1_555 1_555
Cd9_2 N5_2 1_555 1_555
Cd10_2 Cl2_2 1_555 1_555
Cl6_2 Cd9_2 1_555 1_555
Cl7_2 Cd9_2 1_555 1_555
N11_2 Cd9_2 1_555 1_555
N13_2 Cd8_2 1_555 1_555
N17_2 Cd14_2 1_555 1_555
N22_2 Cd9_2 1_555 1_555
H9_2 C5_4 1_555 1_555
H10_2 C6_4 1_555 1_555
N1_2 N2_2 1_555 1_555
N4_2 C1_2 1_555 1_555
N11_2 N13_2 1_555 1_555
C8_4 H12_2 1_555 1_555
Cd5_2 Cl6_2 1_555 1_555
Cl5 Cd13_2 1_555 1_555
Cl2_3 Cd12 1_555 1_555
Cd10_3 Cl2_3 1_555 1_555
Cl6_3 Cd13_2 1_555 1_555
Cl7_3 Cd13_2 1_555 1_555
N11_3 Cd13_2 1_555 1_555
N17_3 Cd12 1_555 1_555
N22_3 Cd13_2 1_555 1_555
N11_3 N14 1_555 1_555
Cd7 Cl6_3 1_555 1_555
Cl5_2 Cd13 1_555 1_555
Cl2_4 Cd11 1_555 1_555
Cd10_4 Cl2_4 1_555 1_555
Cl6_4 Cd13 1_555 1_555
Cl7_4 Cd13 1_555 1_555
N11_4 Cd13 1_555 1_555
N17_4 Cd11 1_555 1_555
N22_4 Cd13 1_555 1_555
N11_4 N14_2 1_555 1_555
Cd7_2 Cl6_4 1_555 1_555
C4_5 N5_3 1_555 1_555
C5_5 C4_5 1_555 1_555
C6_5 C5_5 1_555 1_555
C8_5 C6_5 1_555 1_555
Cd8_3 N23_3 1_555 1_555
Cd10_3 N5_3 1_555 1_555
Cd14_3 Cl6_5 1_555 1_555
Cl6_5 Cd10_3 1_555 1_555
N11_5 Cd10_3 1_555 1_555
N20_3 C7_5 1_555 1_555
N22_5 Cd10_3 1_555 1_555
H9_3 C5_5 1_555 1_555
H10_3 C6_5 1_555 1_555
C7_5 C8_5 1_555 1_555
Cd14_3 N20_3 1_555 1_555
N11_5 N13_3 1_555 1_555
N20_3 N23_3 1_555 1_555
C8_5 H12_3 1_555 1_555
Cd8_3 Cl1_3 1_555 1_555
Cd14_3 Cl1_3 1_555 1_555
Cl7_3 Cd14_3 1_555 1_555
Cl3_3 Cd8_3 1_555 1_555
N1_3 Cd8_3 1_555 1_555
N2_3 Cd14_3 1_555 1_555
N3_3 N2_3 1_555 1_555
N4_3 N3_3 1_555 1_555
N6_3 Cd8_3 1_555 1_555
C1_3 N1_3 1_555 1_555
C2_3 C1_3 1_555 1_555
H1_3 C2_3 1_555 1_555
H2_3 C2_3 1_555 1_555
C3_5 C2_3 1_555 1_555
H3_5 C3_5 1_555 1_555
H4_5 C3_5 1_555 1_555
Cd3_2 Cl5_3 1_555 1_555
Cd5_3 N3_3 1_555 1_555
Cd7_3 N12_3 1_555 1_555
Cd12_2 Cl5_3 1_555 1_555
Cl8_3 Cd3_2 1_555 1_555
N9_3 Cd3_2 1_555 1_555
N10_3 Cd12_2 1_555 1_555
N12_3 N10_3 1_555 1_555
N15_3 N12_3 1_555 1_555
N17_5 Cd14_3 1_555 1_555
N19_2 Cd3_2 1_555 1_555
N25_2 Cd3_2 1_555 1_555
C9_3 N9_3 1_555 1_555
C10_3 C3_5 1_555 1_555
H7_3 C10_3 1_555 1_555
H8_3 C10_3 1_555 1_555
N1_3 N2_3 1_555 1_555
N4_3 C1_3 1_555 1_555
Cd5_3 Cl6_5 1_555 1_555
N9_3 N10_3 1_555 1_555
N15_3 C9_3 1_555 1_555
C9_3 C10_3 1_555 1_555
N7_3 N8_2 1_555 1_555
N8_2 Cd6_2 1_555 1_555
C5_6 C4_6 1_555 1_555
H5_3 C5_6 1_555 1_555
C6_6 C5_6 1_555 1_555
H6_3 C6_6 1_555 1_555
C7_6 N7_3 1_555 1_555
C8_6 C6_6 1_555 1_555
Cd11_2 N7_3 1_555 1_555
Cd10_2 N16_3 1_555 1_555
N16_3 C4_6 1_555 1_555
C7_6 C8_6 1_555 1_555
C8_6 H11_3 1_555 1_555
Cd6_2 Cl3_4 1_555 1_555
Cd6_2 N18_2 1_555 1_555
N7_4 N25_2 1_555 1_555
C5_7 C4_7 1_555 1_555
H5_4 C5_7 1_555 1_555
C6_7 C5_7 1_555 1_555
H6_4 C6_7 1_555 1_555
C7_7 N7_4 1_555 1_555
C8_7 C6_7 1_555 1_555
Cd12_2 N7_4 1_555 1_555
Cd10 N16_4 1_555 1_555
N16_4 C4_7 1_555 1_555
C7_7 C8_7 1_555 1_555
C8_7 H11_4 1_555 1_555
C4_8 N5_4 1_555 1_555
C5_8 C4_8 1_555 1_555
C6_8 C5_8 1_555 1_555
C8_8 C6_8 1_555 1_555
Cd8_4 N23_4 1_555 1_555
Cd10_4 N5_4 1_555 1_555
Cd14_4 Cl6_6 1_555 1_555
Cl6_6 Cd10_4 1_555 1_555
N11_6 Cd10_4 1_555 1_555
N20_4 C7_8 1_555 1_555
N22_6 Cd10_4 1_555 1_555
H9_4 C5_8 1_555 1_555
H10_4 C6_8 1_555 1_555
C7_8 C8_8 1_555 1_555
Cd14_4 N20_4 1_555 1_555
N11_6 N13_4 1_555 1_555
N20_4 N23_4 1_555 1_555
C8_8 H12_4 1_555 1_555
Cd8_4 Cl1_4 1_555 1_555
Cd14_4 Cl1_4 1_555 1_555
Cl7_4 Cd14_4 1_555 1_555
Cl8_4 Cd8_4 1_555 1_555
N1_4 Cd8_4 1_555 1_555
N2_4 Cd14_4 1_555 1_555
N3_4 N2_4 1_555 1_555
N4_4 N3_4 1_555 1_555
N6_4 Cd8_4 1_555 1_555
C1_4 N1_4 1_555 1_555
C2_4 C1_4 1_555 1_555
H1_4 C2_4 1_555 1_555
H2_4 C2_4 1_555 1_555
C3_6 C2_4 1_555 1_555
H3_6 C3_6 1_555 1_555
H4_6 C3_6 1_555 1_555
Cd6_2 Cl5_4 1_555 1_555
Cd5_4 N3_4 1_555 1_555
Cd7_4 N12_4 1_555 1_555
Cd11_2 Cl5_4 1_555 1_555
N9_4 Cd6_2 1_555 1_555
N10_4 Cd11_2 1_555 1_555
N12_4 N10_4 1_555 1_555
N15_4 N12_4 1_555 1_555
N17_6 Cd14_4 1_555 1_555
C9_4 N9_4 1_555 1_555
C10_4 C3_6 1_555 1_555
H7_4 C10_4 1_555 1_555
H8_4 C10_4 1_555 1_555
N1_4 N2_4 1_555 1_555
N4_4 C1_4 1_555 1_555
Cd5_4 Cl6_6 1_555 1_555
N9_4 N10_4 1_555 1_555
N15_4 C9_4 1_555 1_555
C9_4 C10_4 1_555 1_555
Cd12_2 Cl6_7 1_555 1_555
Cl6_7 Cd10 1_555 1_555
N11_7 Cd10 1_555 1_555
N22_7 Cd10 1_555 1_555
N11_7 N14_3 1_555 1_555
Cl7 Cd12_2 1_555 1_555
N17_7 Cd12_2 1_555 1_555
Cd7_3 Cl6_7 1_555 1_555
Cd11_2 Cl6_8 1_555 1_555
Cl6_8 Cd10_2 1_555 1_555
N11_8 Cd10_2 1_555 1_555
N22_8 Cd10_2 1_555 1_555
N11_8 N14_4 1_555 1_555
Cl7_2 Cd11_2 1_555 1_555
N17_8 Cd11_2 1_555 1_555
Cd7_4 Cl6_8 1_555 1_555
N22 N8_3 1_555 1_555
N8_3 Cd5 1_555 1_555
C4_9 N17_4 1_555 1_555
C5_9 C4_9 1_555 1_555
H5_5 C5_9 1_555 1_555
C6_9 C5_9 1_555 1_555
H6_5 C6_9 1_555 1_555
C7_9 N22 1_555 1_555
C8_9 C6_9 1_555 1_555
Cd7_2 N23_5 1_555 1_555
N17 C4_9 1_555 1_555
N22_4 C7_9 1_555 1_555
N23_5 N8_3 1_555 1_555
H9_5 C5_9 1_555 1_555
H10_5 C6_9 1_555 1_555
C7_9 C8_9 1_555 1_555
N22_4 N23_5 1_555 1_555
C8_9 H11_5 1_555 1_555
C8_9 H12_5 1_555 1_555
Cl3_5 Cd7_2 1_555 1_555
N1_5 Cd7_2 1_555 1_555
N4_5 N14_2 1_555 1_555
N6_5 Cd7_2 1_555 1_555
C1_5 N1_5 1_555 1_555
C2_5 C1_5 1_555 1_555
H1_5 C2_5 1_555 1_555
H2_5 C2_5 1_555 1_555
C3_7 C2_5 1_555 1_555
H3_7 C3_7 1_555 1_555
H4_7 C3_7 1_555 1_555
Cd5 Cl3_5 1_555 1_555
N18_3 N6_5 1_555 1_555
N1_5 N11_4 1_555 1_555
N4_5 C1_5 1_555 1_555
Cd5 N18_3 1_555 1_555
H3_8 C3_8 1_555 1_555
H4_8 C3_8 1_555 1_555
Cl8_5 Cd5_2 1_555 1_555
N9_5 Cd5_2 1_555 1_555
N15_5 N13_2 1_555 1_555
N19_3 Cd5_2 1_555 1_555
N25_3 Cd5_2 1_555 1_555
C9_5 N9_5 1_555 1_555
C10_5 C3_8 1_555 1_555
H7_5 C10_5 1_555 1_555
H8_5 C10_5 1_555 1_555
N9_5 N11_2 1_555 1_555
N15_5 C9_5 1_555 1_555
C9_5 C10_5 1_555 1_555
H3_9 C3_9 1_555 1_555
H4_9 C3_9 1_555 1_555
N9_6 Cd5 1_555 1_555
N15_6 N13 1_555 1_555
C9_6 N9_6 1_555 1_555
C10_6 C3_9 1_555 1_555
H7_6 C10_6 1_555 1_555
H8_6 C10_6 1_555 1_555
N9_6 N11 1_555 1_555
N15_6 C9_6 1_555 1_555
C9_6 C10_6 1_555 1_555
N22_2 N25_3 1_555 1_555
C4_10 N17_3 1_555 1_555
C5_10 C4_10 1_555 1_555
H5_6 C5_10 1_555 1_555
C6_10 C5_10 1_555 1_555
H6_6 C6_10 1_555 1_555
C7_10 N22_2 1_555 1_555
C8_10 C6_10 1_555 1_555
Cd7 N23_6 1_555 1_555
N17_2 C4_10 1_555 1_555
N22_3 C7_10 1_555 1_555
N23_6 N25_3 1_555 1_555
H9_6 C5_10 1_555 1_555
H10_6 C6_10 1_555 1_555
C7_10 C8_10 1_555 1_555
N22_3 N23_6 1_555 1_555
C8_10 H11_6 1_555 1_555
C8_10 H12_6 1_555 1_555
Cl8_5 Cd7 1_555 1_555
N1_6 Cd7 1_555 1_555
N4_6 N14 1_555 1_555
N6_6 Cd7 1_555 1_555
C1_6 N1_6 1_555 1_555
C2_6 C1_6 1_555 1_555
H1_6 C2_6 1_555 1_555
H2_6 C2_6 1_555 1_555
C3_10 C2_6 1_555 1_555
H3_10 C3_10 1_555 1_555
H4_10 C3_10 1_555 1_555
N19_3 N6_6 1_555 1_555
N1_6 N11_3 1_555 1_555
N4_6 C1_6 1_555 1_555
N22_5 N8_4 1_555 1_555
N8_4 Cd5_3 1_555 1_555
C7_11 N22_5 1_555 1_555
Cd7_4 N23_7 1_555 1_555
N22_8 C7_11 1_555 1_555
N23_7 N8_4 1_555 1_555
N22_8 N23_7 1_555 1_555
Cl3_6 Cd7_4 1_555 1_555
N1_7 Cd7_4 1_555 1_555
N4_7 N14_4 1_555 1_555
N17_8 N6_7 1_555 1_555
N6_7 Cd7_4 1_555 1_555
C1_7 N1_7 1_555 1_555
C2_7 C1_7 1_555 1_555
H1_7 C2_7 1_555 1_555
H2_7 C2_7 1_555 1_555
C3_11 C2_7 1_555 1_555
H3_11 C3_11 1_555 1_555
H4_11 C3_11 1_555 1_555
C4_11 N17_8 1_555 1_555
C5_11 C4_11 1_555 1_555
H5_7 C5_11 1_555 1_555
C6_11 C5_11 1_555 1_555
H6_7 C6_11 1_555 1_555
C8_11 C6_11 1_555 1_555
Cd5_3 Cl3_6 1_555 1_555
Cl8_6 Cd5_4 1_555 1_555
N9_7 Cd5_4 1_555 1_555
N15_7 N13_4 1_555 1_555
N17_5 C4_11 1_555 1_555
N18_4 N6_7 1_555 1_555
N19_4 Cd5_4 1_555 1_555
N25_4 Cd5_4 1_555 1_555
C9_7 N9_7 1_555 1_555
C10_7 C3_11 1_555 1_555
H7_7 C10_7 1_555 1_555
H8_7 C10_7 1_555 1_555
H9_7 C5_11 1_555 1_555
H10_7 C6_11 1_555 1_555
N1_7 N11_8 1_555 1_555
N4_7 C1_7 1_555 1_555
Cd5_3 N18_4 1_555 1_555
N9_7 N11_6 1_555 1_555
N15_7 C9_7 1_555 1_555
N17_5 N18_4 1_555 1_555
C9_7 C10_7 1_555 1_555
C8_11 H11_7 1_555 1_555
C8_11 H12_7 1_555 1_555
N22_6 N25_4 1_555 1_555
C7_12 N22_6 1_555 1_555
Cd7_3 N23_8 1_555 1_555
N22_7 C7_12 1_555 1_555
N23_8 N25_4 1_555 1_555
N22_7 N23_8 1_555 1_555
Cl8_6 Cd7_3 1_555 1_555
N1_8 Cd7_3 1_555 1_555
N4_8 N14_3 1_555 1_555
N17_7 N6_8 1_555 1_555
N6_8 Cd7_3 1_555 1_555
C1_8 N1_8 1_555 1_555
C2_8 C1_8 1_555 1_555
H1_8 C2_8 1_555 1_555
H2_8 C2_8 1_555 1_555
C3_12 C2_8 1_555 1_555
H3_12 C3_12 1_555 1_555
H4_12 C3_12 1_555 1_555
C4_12 N17_7 1_555 1_555
C5_12 C4_12 1_555 1_555
H5_8 C5_12 1_555 1_555
C6_12 C5_12 1_555 1_555
H6_8 C6_12 1_555 1_555
C8_12 C6_12 1_555 1_555
N9_8 Cd5_3 1_555 1_555
N15_8 N13_3 1_555 1_555
N17_6 C4_12 1_555 1_555
N19_4 N6_8 1_555 1_555
C9_8 N9_8 1_555 1_555
C10_8 C3_12 1_555 1_555
H7_8 C10_8 1_555 1_555
H8_8 C10_8 1_555 1_555
H9_8 C5_12 1_555 1_555
H10_8 C6_12 1_555 1_555
N1_8 N11_7 1_555 1_555
N4_8 C1_8 1_555 1_555
N9_8 N11_5 1_555 1_555
N15_8 C9_8 1_555 1_555
N17_6 N19_4 1_555 1_555
C9_8 C10_8 1_555 1_555
C8_12 H11_8 1_555 1_555
C8_12 H12_8 1_555 1_555

#END
