
###############################################################################
#
# This file contains modified crystal structure data generated from the
# MOF subset of the Cambridge Structural Database (CSD) v543 
# hosted by the Cambridge Crystallographic Data Centre (CCDC).
#
# This work is licensed under the Creative Commons
# Attribution-NonCommercial-ShareAlike 4.0 International License.
# To view a copy of this license, visit
# http://creativecommons.org/licenses/by-nc-sa/4.0/
# or send a letter to
# Creative Commons, PO Box 1866, Mountain View, CA 94042, USA.
#
# CIF created using the CSD Python API on 29 September 2022
# The structure has been converted into the P1 space group
# The structure has a 3D framework
# The original CSD entry HUHJOL is in the triclinic crystal system
# The framework has been calculated to contain at least 10.0% void space
# The void calculation uses a probe of radius 1.32A, grid spacing 0.4
#
###############################################################################

data_HUHJOL
_chemical_formula_moiety         '(C148 H272 Mn24 Na14 O113)n'
_symmetry_cell_setting           triclinic
_symmetry_space_group_name_H-M   'P 1'
_symmetry_Int_Tables_number      1
_space_group_name_Hall           'P 1'
loop_
_symmetry_equiv_pos_site_id
_symmetry_equiv_pos_as_xyz
1 x,y,z
_cell_length_a                   12.8432(4)
_cell_length_b                   19.5607(6)
_cell_length_c                   25.6910(8)
_cell_angle_alpha                79.224(2)
_cell_angle_beta                 78.864(2)
_cell_angle_gamma                71.244(2)
_cell_volume                     5941.93
loop_
_atom_site_label
_atom_site_type_symbol
_atom_site_fract_x
_atom_site_fract_y
_atom_site_fract_z
H129 H 0.0178 0.6899 0.2080
O14 O 0.0078(4) 0.3701(3) 0.2414(2)
C26 C 0.0663(8) 0.4714(5) 0.1952(4)
H45 H 0.1403 0.4407 0.2027
H46 H 0.0488 0.5178 0.2091
H47 H 0.0652 0.4806 0.1565
Mn7 Mn 0.23412(8) 0.05706(6) 0.15445(4)
Mn9 Mn 0.31171(8) 0.11885(6) 0.24138(4)
Mn12 Mn 0.47560(8) 0.08855(6) 0.13268(4)
Na4 Na 0.0588(2) 0.10401(15) 0.27771(11)
Na5 Na 0.3776(2) 0.02656(15) 0.03759(10)
Na7 Na 0.5839(2) 0.15558(16) 0.21968(11)
O28 O 0.3754(4) 0.0191(3) 0.20465(18)
O30 O 0.1696(4) 0.0013(3) 0.2134(2)
C43 C 0.3757(6) 0.0233(4) 0.3631(3)
C44 C 0.4423(6) 0.0744(4) 0.3314(3)
H78 H 0.4061 0.1238 0.3416
H79 H 0.5178 0.0573 0.3418
O32 O 0.4518(4) 0.0785(3) 0.27518(18)
C45 C 0.2575(6) 0.0487(4) 0.3511(3)
H80 H 0.2179 0.0144 0.3722
H81 H 0.2201 0.0970 0.3633
O33 O 0.2473(4) 0.0544(3) 0.29540(17)
C47 C 0.3710(6) 0.0226(4) 0.4237(3)
H85 H 0.4481 0.0034 0.4321
C48 C 0.3166(10) 0.0950(7) 0.4464(4)
H86 H 0.3533 0.1311 0.4270
H87 H 0.3239 0.0878 0.4845
H88 H 0.2377 0.1125 0.4422
C49 C 0.2321(6) 0.2334(4) 0.1295(3)
C50 C 0.2728(6) 0.1843(4) 0.0857(3)
H89 H 0.2091 0.1883 0.0677
H90 H 0.3276 0.2023 0.0587
O35 O 0.3230(4) 0.1089(2) 0.10396(18)
C51 C 0.3269(6) 0.2351(4) 0.1556(3)
H91 H 0.3802 0.2533 0.1277
H92 H 0.2971 0.2704 0.1817
O36 O 0.3860(4) 0.1664(3) 0.18253(18)
C52 C 0.1444(6) 0.2095(4) 0.1711(3)
H93 H 0.1150 0.2448 0.1973
H94 H 0.0820 0.2110 0.1531
O37 O 0.1844(4) 0.1381(2) 0.19925(18)
C53 C 0.1736(7) 0.3113(4) 0.1042(3)
H95 H 0.1147 0.3085 0.0856
H96 H 0.1365 0.3409 0.1336
C54 C 0.2456(13) 0.3519(7) 0.0647(5)
H97 H 0.2728 0.3800 0.0839
H98 H 0.2015 0.3851 0.0380
H99 H 0.3089 0.3168 0.0467
C56 C 0.7051(5) 0.0094(4) 0.1574(3)
H101 H 0.7259 0.0466 0.1291
O38 O 0.5951(4) 0.0416(2) 0.18434(18)
C63 C 0.1069(7) 0.0868(5) 0.0630(3)
O43 O 0.1901(4) 0.0659(3) 0.0304(2)
O44 O 0.1049(4) 0.0862(3) 0.11271(19)
C65 C 0.1623(6) 0.2314(4) 0.3082(3)
O45 O 0.2595(4) 0.2064(3) 0.2821(2)
O46 O 0.0848(4) 0.2064(3) 0.30955(19)
C66 C 0.1505(7) 0.2926(5) 0.3386(4)
H117 H 0.1436 0.3379 0.3138
H118 H 0.2162 0.2816 0.3564
H119 H 0.0840 0.2982 0.3656
C67 C 0.6101(6) 0.1838(4) 0.0779(3)
O47 O 0.5532(4) 0.1449(3) 0.06886(19)
O48 O 0.6233(4) 0.1900(3) 0.1225(2)
C68 C 0.6628(10) 0.2225(6) 0.0291(4)
H120 H 0.6073 0.2669 0.0160
H121 H 0.6914 0.1905 0.0011
H122 H 0.7241 0.2354 0.0382
O52 O 0.6991(4) 0.0533(3) 0.2791(2)
O55 O 0.4432(4) 0.2584(3) 0.2443(2)
H132 H 0.4610 0.2818 0.2636
H133 H 0.3821 0.2512 0.2578
H136 H 0.5347 0.1009 0.0111
O58 O 0.7154(4) 0.2124(3) 0.24634(18)
O57 O 0.5083(4) 0.0863(2) 0.98953(17)
H137 H 0.4922 0.1210 0.9650
Mn8 Mn 0.29866(8) 0.96346(6) 0.26136(4)
Mn10 Mn 0.53172(8) 0.98624(6) 0.24411(4)
Mn11 Mn 0.45700(8) 0.92283(6) 0.15663(4)
Na6 Na 0.5528(3) 0.79581(18) 0.25453(12)
C37 C 0.2088(6) 0.8856(4) 0.1748(3)
C38 C 0.2594(6) 0.9147(4) 0.1203(3)
H67 H 0.3100 0.8732 0.1023
H68 H 0.1993 0.9402 0.0982
O29 O 0.3206(4) 0.9644(3) 0.12262(18)
C39 C 0.1240(6) 0.9481(4) 0.2028(3)
H69 H 0.0648 0.9730 0.1802
H70 H 0.0890 0.9270 0.2371
C40 C 0.2978(6) 0.8413(4) 0.2095(3)
H71 H 0.2609 0.8234 0.2445
H72 H 0.3443 0.7981 0.1922
O31 O 0.3693(4) 0.8800(3) 0.21877(19)
C41 C 0.1417(7) 0.8357(5) 0.1666(4)
H73 H 0.1035 0.8207 0.2022
H74 H 0.0832 0.8660 0.1448
C42 C 0.1977(14) 0.7725(9) 0.1426(7)
H75 H 0.2167 0.7859 0.1040
H76 H 0.1498 0.7408 0.1487
H77 H 0.2659 0.7466 0.1583
C46 C 0.4316(6) 0.9451(4) 0.3518(3)
H82 H 0.5059 0.9281 0.3634
H83 H 0.3874 0.9140 0.3736
O34 O 0.4442(4) 0.9355(3) 0.29649(17)
H84 H 0.3309 0.9877 0.4431
C55 C 0.7177(5) 0.9421(4) 0.1320(3)
H100 H 0.7583 0.9959 0.1835
C57 C 0.6890(5) 0.8826(4) 0.1740(3)
H102 H 0.7018 0.8389 0.1566
H103 H 0.7400 0.8692 0.2011
O39 O 0.5760(4) 0.9026(3) 0.20082(18)
C58 C 0.6433(5) 0.9615(4) 0.0873(3)
H104 H 0.6656 0.9989 0.0598
H105 H 0.6584 0.9175 0.0699
O40 O 0.5270(4) 0.9876(3) 0.10394(17)
C59 C 0.8400(6) 0.9154(4) 0.1080(3)
H106 H 0.8548 0.9516 0.0772
H107 H 0.8859 0.9143 0.1352
C60 C 0.8774(13) 0.8438(12) 0.0898(7)
H108 H 0.8633 0.8072 0.1197
H109 H 0.9571 0.8315 0.0765
H110 H 0.8367 0.8449 0.0609
C61 C 0.1171(6) 0.9315(4) 0.3383(3)
O41 O 0.0562(4) 0.9937(3) 0.3313(2)
O42 O 0.2212(4) 0.9096(3) 0.3156(2)
C62 C 0.0804(8) 0.8725(5) 0.3742(4)
H111 H 0.1267 0.8532 0.4029
H112 H 0.0876 0.8333 0.3536
H113 H 0.0026 0.8917 0.3898
C69 C 0.5591(6) 0.7704(4) 0.1270(3)
O49 O 0.5615(4) 0.7466(3) 0.17493(19)
O50 O 0.5216(4) 0.8385(3) 0.10912(18)
C70 C 0.6014(9) 0.7196(5) 0.0846(3)
H123 H 0.6065 0.7482 0.0491
H124 H 0.5500 0.6910 0.0869
H125 H 0.6750 0.6866 0.0906
C71 C 0.7242(6) 0.9863(5) 0.2923(3)
O51 O 0.6645(4) 0.9478(3) 0.28416(19)
C72 C 0.8237(7) 0.9455(6) 0.3171(5)
H126 H 0.8661 0.9040 0.2979
H127 H 0.8018 0.9278 0.3546
H128 H 0.8698 0.9775 0.3154
O53 O 0.7897(10) 0.7175(4) 0.2249(4)
C73 C 0.8756(12) 0.7013(6) 0.2390(5)
O54 O 0.8854(11) 0.7314(8) 0.2725(7)
C74 C 0.9610(11) 0.6644(8) 0.2150(6)
H130 H 0.9459 0.6566 0.1810
H131 H 0.9878 0.6173 0.2369
O56 O 0.6652(5) 0.8001(4) 0.3144(3)
H134 H 0.6623 0.8441 0.3045
H135 H 0.7271 0.7679 0.3101
Na9 Na 0.5784(3) 0.62490(16) 0.21315(12)
O59 O 0.4896(5) 0.7011(3) 0.2958(2)
O62 O 0.4917(4) 0.9137(2) 0.01047(17)
Na10 Na 0.6224(2) 0.97344(15) 0.96241(10)
Mn1 Mn 0.68964(9) 0.37490(6) 0.38288(4)
Mn2 Mn 0.74210(8) 0.45115(6) 0.26276(4)
Mn3 Mn 0.65876(9) 0.31032(6) 0.27985(4)
Mn4 Mn 0.50547(9) 0.46495(6) 0.24321(5)
Mn5 Mn 0.53006(8) 0.52976(6) 0.33825(4)
Mn6 Mn 0.44389(9) 0.39025(6) 0.35793(4)
Na1 Na 0.9140(2) 0.28803(15) 0.30370(12)
Na2 Na 0.4478(2) 0.45384(15) 0.46699(10)
O1 O 0.5890(4) 0.4262(3) 0.30647(19)
C1 C 0.7811(5) 0.5267(4) 0.3646(3)
C2 C 0.6871(5) 0.5179(4) 0.4102(3)
H1 H 0.7204 0.4887 0.4420
H2 H 0.6429 0.5667 0.4200
O2 O 0.6135(3) 0.4835(2) 0.39691(17)
C3 C 0.7348(6) 0.5745(4) 0.3158(3)
H3 H 0.6911 0.6232 0.3258
H4 H 0.7974 0.5808 0.2881
O3 O 0.6643(4) 0.5460(3) 0.29297(19)
C4 C 0.8590(5) 0.4523(4) 0.3499(3)
H5 H 0.9222 0.4606 0.3233
H6 H 0.8894 0.4229 0.3823
O4 O 0.8060(4) 0.4114(2) 0.32828(18)
C5 C 0.8517(6) 0.5670(4) 0.3831(3)
H7 H 0.9005 0.5823 0.3514
H8 H 0.8006 0.6117 0.3969
C6 C 0.9237(7) 0.5240(5) 0.4257(3)
H9 H 0.8770 0.5078 0.4574
H10 H 0.9615 0.5550 0.4355
H11 H 0.9792 0.4815 0.4117
C7 C 0.7244(7) 0.3869(4) 0.1512(3)
C8 C 0.6213(7) 0.3602(5) 0.1672(3)
H12 H 0.5656 0.3886 0.1435
H13 H 0.6423 0.3085 0.1617
O5 O 0.5710(4) 0.3669(3) 0.22251(19)
C9 C 0.8144(6) 0.3439(4) 0.1863(3)
H14 H 0.8365 0.2918 0.1817
H15 H 0.8806 0.3613 0.1738
O6 O 0.7803(4) 0.3504(3) 0.24246(19)
C10 C 0.6957(7) 0.4691(4) 0.1539(3)
H16 H 0.7638 0.4843 0.1412
H17 H 0.6412 0.4961 0.1292
O7 O 0.6513(4) 0.4889(3) 0.20581(18)
C11 C 0.7762(9) 0.3708(6) 0.0929(3)
H18 H 0.8470 0.3832 0.0838
H19 H 0.7939 0.3179 0.0920
C12 C 0.7036(13) 0.4114(8) 0.0499(5)
H20 H 0.6996 0.4631 0.0444
H21 H 0.6287 0.4065 0.0612
H22 H 0.7357 0.3909 0.0163
C13 C 0.6046(7) 0.2205(4) 0.4038(3)
C14 C 0.7225(6) 0.2189(4) 0.3787(3)
H23 H 0.7682 0.2100 0.4076
H24 H 0.7541 0.1777 0.3575
O8 O 0.7302(4) 0.2844(3) 0.34475(19)
C15 C 0.5543(6) 0.2808(4) 0.4405(3)
H25 H 0.4806 0.2772 0.4588
H26 H 0.6024 0.2715 0.4685
O9 O 0.5414(4) 0.3537(3) 0.41374(19)
C16 C 0.5325(7) 0.2307(4) 0.3616(3)
H27 H 0.5634 0.1893 0.3406
H28 H 0.4573 0.2297 0.3795
O10 O 0.5229(4) 0.2970(3) 0.3260(2)
C17 C 0.6075(7) 0.1476(4) 0.4412(3)
H29 H 0.6357 0.1487 0.4741
H30 H 0.5303 0.1452 0.4517
C18 C 0.6783(9) 0.0772(5) 0.4177(4)
H31 H 0.6620 0.0797 0.3816
H32 H 0.6607 0.0352 0.4406
H33 H 0.7573 0.0721 0.4161
C19 C 0.2634(6) 0.5549(4) 0.3198(3)
C20 C 0.3360(6) 0.5966(4) 0.2809(3)
H34 H 0.3116 0.6073 0.2452
H35 H 0.3245 0.6436 0.2935
O11 O 0.4535(4) 0.5573(3) 0.27557(19)
C21 C 0.2948(6) 0.5388(4) 0.3744(3)
H36 H 0.2854 0.5855 0.3872
H37 H 0.2430 0.5150 0.3987
O12 O 0.4064(4) 0.4931(3) 0.37795(19)
C22 C 0.2706(6) 0.4848(5) 0.2981(4)
H38 H 0.2174 0.4616 0.3218
H39 H 0.2470 0.4985 0.2622
O13 O 0.3771(4) 0.4330(3) 0.2942(2)
C23 C 0.1405(6) 0.6029(5) 0.3198(4)
H40 H 0.1241 0.6133 0.2826
H41 H 0.0921 0.5741 0.3410
C24 C 0.1089(7) 0.6749(5) 0.3418(4)
H42 H 0.1240 0.6657 0.3789
H43 H 0.0296 0.6997 0.3409
H44 H 0.1526 0.7056 0.3200
C25 C 0.9820(6) 0.4334(4) 0.2218(3)
O15 O 0.8802(4) 0.4749(3) 0.2206(2)
C27 C 0.8546(6) 0.3032(4) 0.4537(3)
O16 O 0.9098(4) 0.2788(3) 0.4136(2)
O17 O 0.7540(4) 0.3450(3) 0.4556(2)
C28 C 0.9012(8) 0.2851(6) 0.5055(3)
H48 H 0.8606 0.2560 0.5317
H49 H 0.8933 0.3303 0.5193
H50 H 0.9800 0.2574 0.4996
C29 C 0.8182(5) 0.1760(4) 0.2400(3)
O18 O 0.8876(4) 0.1816(3) 0.2662(2)
C30 C 0.8578(6) 0.1271(4) 0.1969(3)
H51 H 0.9216 0.1383 0.1733
H52 H 0.7977 0.1350 0.1761
H53 H 0.8800 0.0761 0.2134
C31 C 0.2722(7) 0.3705(5) 0.4518(4)
O20 O 0.3054(5) 0.4008(3) 0.4800(2)
O21 O 0.3121(4) 0.3623(3) 0.4027(2)
C32 C 0.1761(9) 0.3399(7) 0.4734(5)
H54 H 0.1452 0.3525 0.5095
H55 H 0.2020 0.2868 0.4747
H56 H 0.1185 0.3606 0.4500
C33 C 0.4575(6) 0.6908(4) 0.3441(3)
O23 O 0.4637(4) 0.6273(3) 0.37045(19)
C34 C 0.4130(9) 0.7536(5) 0.3763(4)
H57 H 0.4746 0.7700 0.3813
H58 H 0.3755 0.7379 0.4114
H59 H 0.3600 0.7938 0.3573
C35 C 0.4143(8) 0.5640(7) 0.1535(4)
O24 O 0.4604(6) 0.6104(4) 0.1566(2)
O25 O 0.4233(5) 0.5026(4) 0.1837(3)
C36 C 0.3435(13) 0.5798(9) 0.1087(6)
H60 H 0.2647 0.5917 0.1240
H61 H 0.3636 0.5368 0.0904
H62 H 0.3567 0.6211 0.0831
O26 O 0.4157(4) 0.5782(3) 0.47680(19)
H63 H 0.4315 0.5968 0.4453
H64 H 0.3684 0.6118 0.4920
O27 O 0.7684(5) 0.6131(3) 0.1721(2)
H65 H 0.8249 0.5811 0.1822
H66 H 0.7723 0.6435 0.1901
C64 C 0.9917(8) 0.1122(11) 0.0450(4)
H114 H 0.9665 0.1656 0.0382
H115 H 0.9390 0.0950 0.0732
H116 H 0.9959 0.0923 0.0121
Na8 Na 0.5522(2) 0.54616(15) 0.53301(10)
O60 O 0.5843(4) 0.4218(3) 0.52320(19)
Mn1_2 Mn 0.31036(9) 0.62510(6) 0.61712(4)
Mn2_2 Mn 0.25790(8) 0.54885(6) 0.73724(4)
Mn3_2 Mn 0.34124(9) 0.68968(6) 0.72015(4)
Mn4_2 Mn 0.49453(9) 0.53505(6) 0.75679(5)
Mn5_2 Mn 0.46994(8) 0.47024(6) 0.66175(4)
Mn6_2 Mn 0.55611(9) 0.60975(6) 0.64207(4)
Na1_2 Na 0.0860(2) 0.71197(15) 0.69630(12)
Na3 Na 0.4216(3) 0.37510(16) 0.78685(12)
O1_2 O 0.4110(4) 0.5738(3) 0.69353(19)
C1_2 C 0.2189(5) 0.4733(4) 0.6354(3)
C2_2 C 0.3129(5) 0.4821(4) 0.5898(3)
H1_2 H 0.2796 0.5113 0.5580
H2_2 H 0.3571 0.4333 0.5800
O2_2 O 0.3865(3) 0.5165(2) 0.60309(17)
C3_2 C 0.2652(6) 0.4255(4) 0.6842(3)
H3_2 H 0.3089 0.3768 0.6742
H4_2 H 0.2026 0.4192 0.7119
O3_2 O 0.3357(4) 0.4540(3) 0.70703(19)
C4_2 C 0.1410(5) 0.5477(4) 0.6501(3)
H5_2 H 0.0778 0.5394 0.6767
H6_2 H 0.1106 0.5771 0.6177
O4_2 O 0.1940(4) 0.5886(2) 0.67172(18)
C5_2 C 0.1483(6) 0.4330(4) 0.6169(3)
H7_2 H 0.0995 0.4177 0.6486
H8_2 H 0.1994 0.3883 0.6031
C6_2 C 0.0763(7) 0.4760(5) 0.5743(3)
H9_2 H 0.1230 0.4922 0.5426
H10_2 H 0.0385 0.4450 0.5645
H11_2 H 0.0208 0.5185 0.5883
C7_2 C 0.2756(7) 0.6131(4) 0.8488(3)
C8_2 C 0.3787(7) 0.6398(5) 0.8328(3)
H12_2 H 0.4344 0.6114 0.8565
H13_2 H 0.3577 0.6915 0.8383
O5_2 O 0.4290(4) 0.6331(3) 0.77749(19)
C9_2 C 0.1856(6) 0.6561(4) 0.8137(3)
H14_2 H 0.1635 0.7082 0.8183
H15_2 H 0.1194 0.6387 0.8262
O6_2 O 0.2197(4) 0.6496(3) 0.75754(19)
C10_2 C 0.3043(7) 0.5309(4) 0.8461(3)
H16_2 H 0.2362 0.5157 0.8588
H17_2 H 0.3588 0.5039 0.8708
O7_2 O 0.3487(4) 0.5111(3) 0.79419(18)
C11_2 C 0.2238(9) 0.6292(6) 0.9071(3)
H18_2 H 0.1530 0.6168 0.9162
H19_2 H 0.2061 0.6821 0.9080
C12_2 C 0.2964(13) 0.5886(8) 0.9501(5)
H20_2 H 0.3004 0.5369 0.9556
H21_2 H 0.3713 0.5935 0.9388
H22_2 H 0.2643 0.6091 0.9837
C13_2 C 0.3954(7) 0.7795(4) 0.5962(3)
C14_2 C 0.2775(6) 0.7811(4) 0.6213(3)
H23_2 H 0.2318 0.7900 0.5924
H24_2 H 0.2459 0.8223 0.6425
O8_2 O 0.2698(4) 0.7156(3) 0.65525(19)
C15_2 C 0.4457(6) 0.7192(4) 0.5595(3)
H25_2 H 0.5194 0.7228 0.5412
H26_2 H 0.3976 0.7285 0.5315
O9_2 O 0.4586(4) 0.6463(3) 0.58626(19)
C16_2 C 0.4675(7) 0.7693(4) 0.6384(3)
H27_2 H 0.4366 0.8107 0.6594
H28_2 H 0.5427 0.7703 0.6205
O10_2 O 0.4771(4) 0.7030(3) 0.6740(2)
C17_2 C 0.3925(7) 0.8524(4) 0.5588(3)
H29_2 H 0.3643 0.8513 0.5259
H30_2 H 0.4697 0.8548 0.5483
C18_2 C 0.3217(9) 0.9228(5) 0.5823(4)
H31_2 H 0.3380 0.9203 0.6184
H32_2 H 0.3393 0.9648 0.5594
H33_2 H 0.2427 0.9279 0.5839
C19_2 C 0.7366(6) 0.4451(4) 0.6802(3)
C20_2 C 0.6640(6) 0.4034(4) 0.7191(3)
H34_2 H 0.6884 0.3927 0.7548
H35_2 H 0.6755 0.3564 0.7065
O11_2 O 0.5465(4) 0.4427(3) 0.72443(19)
C21_2 C 0.7052(6) 0.4612(4) 0.6256(3)
H36_2 H 0.7146 0.4145 0.6128
H37_2 H 0.7570 0.4850 0.6013
O12_2 O 0.5936(4) 0.5069(3) 0.62205(19)
C22_2 C 0.7294(6) 0.5152(5) 0.7019(4)
H38_2 H 0.7826 0.5384 0.6782
H39_2 H 0.7530 0.5015 0.7378
O13_2 O 0.6229(4) 0.5670(3) 0.7058(2)
C23_2 C 0.8595(6) 0.3971(5) 0.6802(4)
H40_2 H 0.8759 0.3867 0.7174
H41_2 H 0.9079 0.4259 0.6590
C24_2 C 0.8911(7) 0.3251(5) 0.6582(4)
H42_2 H 0.8760 0.3343 0.6211
H43_2 H 0.9704 0.3003 0.6591
H44_2 H 0.8474 0.2944 0.6800
C25_2 C 0.0180(6) 0.5666(4) 0.7782(3)
O15_2 O 0.1198(4) 0.5251(3) 0.7794(2)
C27_2 C 0.1454(6) 0.6968(4) 0.5463(3)
O16_2 O 0.0902(4) 0.7212(3) 0.5864(2)
O17_2 O 0.2460(4) 0.6550(3) 0.5444(2)
C28_2 C 0.0988(8) 0.7149(6) 0.4945(3)
H48_2 H 0.1394 0.7440 0.4683
H49_2 H 0.1067 0.6697 0.4807
H50_2 H 0.0200 0.7426 0.5004
C29_2 C 0.1818(5) 0.8240(4) 0.7600(3)
O18_2 O 0.1124(4) 0.8184(3) 0.7338(2)
O19 O 0.2846(4) 0.7876(3) 0.75366(18)
C30_2 C 0.1422(6) 0.8729(4) 0.8031(3)
H51_2 H 0.0784 0.8617 0.8267
H52_2 H 0.2023 0.8650 0.8239
H53_2 H 0.1200 0.9239 0.7866
C31_2 C 0.7278(7) 0.6295(5) 0.5482(4)
O20_2 O 0.6946(5) 0.5992(3) 0.5200(2)
O21_2 O 0.6879(4) 0.6377(3) 0.5973(2)
C32_2 C 0.8239(9) 0.6601(7) 0.5266(5)
H54_2 H 0.8548 0.6475 0.4905
H55_2 H 0.7980 0.7132 0.5253
H56_2 H 0.8815 0.6394 0.5500
C33_2 C 0.5425(6) 0.3092(4) 0.6559(3)
O22 O 0.5104(5) 0.2989(3) 0.7042(2)
O23_2 O 0.5363(4) 0.3727(3) 0.62955(19)
C34_2 C 0.5870(9) 0.2464(5) 0.6237(4)
H57_2 H 0.5254 0.2300 0.6187
H58_2 H 0.6245 0.2621 0.5886
H59_2 H 0.6400 0.2062 0.6427
C35_2 C 0.5857(8) 0.4360(7) 0.8465(4)
O24_2 O 0.5396(6) 0.3896(4) 0.8434(2)
O25_2 O 0.5767(5) 0.4974(4) 0.8163(3)
C36_2 C 0.6565(13) 0.4202(9) 0.8913(6)
H60_2 H 0.7353 0.4083 0.8760
H61_2 H 0.6364 0.4632 0.9096
H62_2 H 0.6433 0.3789 0.9169
H63_2 H 0.5685 0.4032 0.5547
H64_2 H 0.6316 0.3882 0.5080
O27_2 O 0.2316(5) 0.3869(3) 0.8279(2)
H65_2 H 0.1751 0.4189 0.8178
H66_2 H 0.2277 0.3565 0.8099
C64_2 C 0.0083(8) 0.8878(11) 0.9550(4)
H114_2 H 0.0335 0.8344 0.9618
H115_2 H 0.0610 0.9050 0.9268
H116_2 H 0.0041 0.9077 0.9879
Na11 Na 0.4472(3) 0.20419(18) 0.74547(12)
Na12 Na 0.4161(2) 0.84442(16) 0.78032(11)
O61 O 0.4385(4) 0.2534(3) 0.82507(19)
Mn8_2 Mn 0.70134(8) 0.03654(6) 0.73864(4)
Mn10_2 Mn 0.46828(8) 0.01376(6) 0.75589(4)
Mn11_2 Mn 0.54300(8) 0.07717(6) 0.84337(4)
C37_2 C 0.7912(6) 0.1144(4) 0.8252(3)
C38_2 C 0.7406(6) 0.0853(4) 0.8797(3)
H67_2 H 0.6900 0.1268 0.8977
H68_2 H 0.8007 0.0598 0.9018
O29_2 O 0.6794(4) 0.0356(3) 0.87738(18)
C39_2 C 0.8760(6) 0.0519(4) 0.7972(3)
H69_2 H 0.9352 0.0270 0.8198
H70_2 H 0.9110 0.0730 0.7629
C40_2 C 0.7022(6) 0.1587(4) 0.7905(3)
H71_2 H 0.7391 0.1766 0.7555
H72_2 H 0.6557 0.2019 0.8078
O31_2 O 0.6307(4) 0.1200(3) 0.78123(19)
C41_2 C 0.8583(7) 0.1643(5) 0.8334(4)
H73_2 H 0.8965 0.1793 0.7978
H74_2 H 0.9168 0.1340 0.8552
C42_2 C 0.8023(14) 0.2275(9) 0.8574(7)
H75_2 H 0.7833 0.2141 0.8960
H76_2 H 0.8502 0.2592 0.8513
H77_2 H 0.7341 0.2534 0.8417
C46_2 C 0.5684(6) 0.0549(4) 0.6482(3)
H82_2 H 0.4941 0.0719 0.6366
H83_2 H 0.6126 0.0860 0.6264
O34_2 O 0.5558(4) 0.0645(3) 0.70351(17)
H84_2 H 0.6691 0.0123 0.5569
C55_2 C 0.2823(5) 0.0579(4) 0.8680(3)
H100_2 H 0.2417 0.0041 0.8165
C57_2 C 0.3110(5) 0.1174(4) 0.8260(3)
H102_2 H 0.2982 0.1611 0.8434
H103_2 H 0.2600 0.1308 0.7989
O39_2 O 0.4240(4) 0.0974(3) 0.79918(18)
C58_2 C 0.3567(5) 0.0385(4) 0.9127(3)
H104_2 H 0.3344 0.0011 0.9402
H105_2 H 0.3416 0.0825 0.9301
O40_2 O 0.4730(4) 0.0124(3) 0.89606(17)
C59_2 C 0.1600(6) 0.0846(4) 0.8920(3)
H106_2 H 0.1452 0.0484 0.9228
H107_2 H 0.1141 0.0857 0.8648
C60_2 C 0.1226(13) 0.1562(12) 0.9102(7)
H108_2 H 0.1367 0.1928 0.8803
H109_2 H 0.0429 0.1685 0.9235
H110_2 H 0.1633 0.1551 0.9391
C61_2 C 0.8829(6) 0.0685(4) 0.6617(3)
O41_2 O 0.9438(4) 0.0063(3) 0.6687(2)
O42_2 O 0.7788(4) 0.0904(3) 0.6844(2)
C62_2 C 0.9196(8) 0.1275(5) 0.6258(4)
H111_2 H 0.8733 0.1468 0.5971
H112_2 H 0.9124 0.1667 0.6464
H113_2 H 0.9974 0.1083 0.6102
C69_2 C 0.4409(6) 0.2296(4) 0.8730(3)
O50_2 O 0.4784(4) 0.1615(3) 0.89088(18)
C70_2 C 0.3986(9) 0.2804(5) 0.9154(3)
H123_2 H 0.3935 0.2518 0.9509
H124_2 H 0.4500 0.3090 0.9131
H125_2 H 0.3250 0.3134 0.9094
C71_2 C 0.2758(6) 0.0137(5) 0.7077(3)
O51_2 O 0.3355(4) 0.0522(3) 0.71584(19)
C72_2 C 0.1763(7) 0.0545(6) 0.6829(5)
H126_2 H 0.1339 0.0960 0.7021
H127_2 H 0.1982 0.0722 0.6454
H128_2 H 0.1302 0.0225 0.6846
O53_2 O 0.2103(10) 0.2825(4) 0.7751(4)
C73_2 C 0.1244(12) 0.2987(6) 0.7610(5)
O54_2 O 0.1146(11) 0.2686(8) 0.7275(7)
C74_2 C 0.0390(11) 0.3356(8) 0.7850(6)
H130_2 H 0.0541 0.3434 0.8190
H131_2 H 0.0122 0.3827 0.7631
O56_2 O 0.3348(5) 0.1999(4) 0.6856(3)
H134_2 H 0.3377 0.1559 0.6955
H135_2 H 0.2729 0.2321 0.6899
H137_2 H 0.5078 0.8790 0.0350
O14_2 O 0.9922(4) 0.6299(3) 0.7586(2)
C26_2 C 0.9337(8) 0.5286(5) 0.8048(4)
H45_2 H 0.8597 0.5593 0.7973
H46_2 H 0.9512 0.4822 0.7909
H47_2 H 0.9348 0.5194 0.8435
Mn7_2 Mn 0.76588(8) 0.94294(6) 0.84555(4)
Mn9_2 Mn 0.68829(8) 0.88115(6) 0.75862(4)
Mn12_2 Mn 0.52440(8) 0.91145(6) 0.86732(4)
Na4_2 Na 0.9412(2) 0.89599(15) 0.72229(11)
O28_2 O 0.6246(4) 0.9809(3) 0.79535(18)
O30_2 O 0.8304(4) 0.9987(3) 0.7866(2)
C43_2 C 0.6243(6) 0.9767(4) 0.6369(3)
C44_2 C 0.5577(6) 0.9256(4) 0.6686(3)
H78_2 H 0.5939 0.8762 0.6584
H79_2 H 0.4822 0.9427 0.6582
O32_2 O 0.5482(4) 0.9215(3) 0.72482(18)
C45_2 C 0.7425(6) 0.9513(4) 0.6489(3)
H80_2 H 0.7821 0.9856 0.6278
H81_2 H 0.7799 0.9030 0.6367
O33_2 O 0.7527(4) 0.9456(3) 0.70460(17)
C47_2 C 0.6290(6) 0.9774(4) 0.5763(3)
H85_2 H 0.5519 0.9966 0.5679
C48_2 C 0.6834(10) 0.9050(7) 0.5536(4)
H86_2 H 0.6467 0.8689 0.5730
H87_2 H 0.6761 0.9122 0.5155
H88_2 H 0.7623 0.8875 0.5578
C49_2 C 0.7679(6) 0.7666(4) 0.8705(3)
C50_2 C 0.7272(6) 0.8157(4) 0.9143(3)
H89_2 H 0.7909 0.8117 0.9323
H90_2 H 0.6724 0.7977 0.9413
O35_2 O 0.6770(4) 0.8911(2) 0.89604(18)
C51_2 C 0.6731(6) 0.7649(4) 0.8444(3)
H91_2 H 0.6198 0.7467 0.8723
H92_2 H 0.7029 0.7296 0.8183
O36_2 O 0.6140(4) 0.8336(3) 0.81747(18)
C52_2 C 0.8556(6) 0.7905(4) 0.8289(3)
H93_2 H 0.8850 0.7552 0.8027
H94_2 H 0.9180 0.7890 0.8469
O37_2 O 0.8156(4) 0.8619(2) 0.80075(18)
C53_2 C 0.8264(7) 0.6887(4) 0.8958(3)
H95_2 H 0.8853 0.6915 0.9144
H96_2 H 0.8635 0.6591 0.8664
C54_2 C 0.7544(13) 0.6481(7) 0.9353(5)
H97_2 H 0.7272 0.6200 0.9161
H98_2 H 0.7985 0.6149 0.9620
H99_2 H 0.6911 0.6832 0.9533
C56_2 C 0.2949(5) 0.9906(4) 0.8426(3)
H101_2 H 0.2741 0.9534 0.8709
O38_2 O 0.4049(4) 0.9584(2) 0.81566(18)
C63_2 C 0.8931(7) 0.9132(5) 0.9370(3)
O43_2 O 0.8099(4) 0.9341(3) 0.9696(2)
O44_2 O 0.8951(4) 0.9138(3) 0.88729(19)
C65_2 C 0.8377(6) 0.7686(4) 0.6918(3)
O45_2 O 0.7405(4) 0.7936(3) 0.7179(2)
O46_2 O 0.9152(4) 0.7936(3) 0.69045(19)
C66_2 C 0.8495(7) 0.7074(5) 0.6614(4)
H117_2 H 0.8564 0.6621 0.6862
H118_2 H 0.7838 0.7184 0.6436
H119_2 H 0.9160 0.7018 0.6344
C67_2 C 0.3899(6) 0.8162(4) 0.9221(3)
O47_2 O 0.4468(4) 0.8551(3) 0.93114(19)
O48_2 O 0.3767(4) 0.8100(3) 0.8775(2)
C68_2 C 0.3372(10) 0.7775(6) 0.9709(4)
H120_2 H 0.3927 0.7331 0.9840
H121_2 H 0.3086 0.8095 0.9989
H122_2 H 0.2759 0.7646 0.9618
O52_2 O 0.3009(4) 0.9467(3) 0.7209(2)
O55_2 O 0.5568(4) 0.7416(3) 0.7557(2)
H132_2 H 0.5390 0.7182 0.7364
H133_2 H 0.6179 0.7488 0.7422
H136_2 H 0.4653 0.8991 0.9889
H129_2 H 0.9822 0.3101 0.7920
loop_
_geom_bond_atom_site_label_1
_geom_bond_atom_site_label_2
_geom_bond_site_symmetry_1
_geom_bond_site_symmetry_2
H45 C26 1_555 1_555
H46 C26 1_555 1_555
H47 C26 1_555 1_555
Mn7 O28 1_555 1_555
Mn9 O28 1_555 1_555
Mn12 O28 1_555 1_555
Na7 O32 1_555 1_555
O30 Mn7 1_555 1_555
C43 C44 1_555 1_555
C44 H78 1_555 1_555
H79 C44 1_555 1_555
O32 Mn9 1_555 1_555
C45 C43 1_555 1_555
H80 C45 1_555 1_555
H81 C45 1_555 1_555
C47 C43 1_555 1_555
H85 C47 1_555 1_555
C48 C47 1_555 1_555
H86 C48 1_555 1_555
H87 C48 1_555 1_555
H88 C48 1_555 1_555
C49 C50 1_555 1_555
C50 H89 1_555 1_555
H90 C50 1_555 1_555
O35 Mn7 1_555 1_555
C51 C49 1_555 1_555
H91 C51 1_555 1_555
H92 C51 1_555 1_555
O36 Mn9 1_555 1_555
C52 C49 1_555 1_555
H93 C52 1_555 1_555
H94 C52 1_555 1_555
O37 Mn7 1_555 1_555
C53 C49 1_555 1_555
H95 C53 1_555 1_555
H96 C53 1_555 1_555
C54 C53 1_555 1_555
H97 C54 1_555 1_555
H98 C54 1_555 1_555
H99 C54 1_555 1_555
H101 C56 1_555 1_555
C63 O43 1_555 1_555
O43 Na5 1_555 1_555
O44 Mn7 1_555 1_555
C65 O45 1_555 1_555
O45 Mn9 1_555 1_555
C66 C65 1_555 1_555
H117 C66 1_555 1_555
H118 C66 1_555 1_555
H119 C66 1_555 1_555
C67 O47 1_555 1_555
O47 Mn12 1_555 1_555
O48 Na7 1_555 1_555
C68 C67 1_555 1_555
H120 C68 1_555 1_555
H121 C68 1_555 1_555
H122 C68 1_555 1_555
O52 Na7 1_555 1_555
O55 Na7 1_555 1_555
H132 O55 1_555 1_555
H133 O55 1_555 1_555
O58 Na7 1_555 1_555
Mn9 O33 1_555 1_555
Mn9 O37 1_555 1_555
Mn12 O35 1_555 1_555
Mn12 O36 1_555 1_555
Mn12 O38 1_555 1_555
Na4 O30 1_555 1_555
Na4 O33 1_555 1_555
Na4 O37 1_555 1_555
Na4 O46 1_555 1_555
Na5 O35 1_555 1_555
Na7 O36 1_555 1_555
Na7 O38 1_555 1_555
C44 O32 1_555 1_555
C45 O33 1_555 1_555
C50 O35 1_555 1_555
C51 O36 1_555 1_555
C52 O37 1_555 1_555
C56 O38 1_555 1_555
C63 O44 1_555 1_555
C65 O46 1_555 1_555
C67 O48 1_555 1_555
H137 O57 1_555 1_555
Na6 O31 1_555 1_555
C37 C38 1_555 1_555
C38 H67 1_555 1_555
H68 C38 1_555 1_555
C39 C37 1_555 1_555
H69 C39 1_555 1_555
H70 C39 1_555 1_555
C40 C37 1_555 1_555
H71 C40 1_555 1_555
H72 C40 1_555 1_555
O31 Mn8 1_555 1_555
C41 C37 1_555 1_555
H73 C41 1_555 1_555
H74 C41 1_555 1_555
C42 C41 1_555 1_555
H75 C42 1_555 1_555
H76 C42 1_555 1_555
H77 C42 1_555 1_555
H82 C46 1_555 1_555
H83 C46 1_555 1_555
O34 Mn8 1_555 1_555
C57 C55 1_555 1_555
H102 C57 1_555 1_555
H103 C57 1_555 1_555
O39 Mn10 1_555 1_555
C58 C55 1_555 1_555
H104 C58 1_555 1_555
H105 C58 1_555 1_555
O40 Mn11 1_555 1_555
C59 C55 1_555 1_555
H106 C59 1_555 1_555
H107 C59 1_555 1_555
C60 C59 1_555 1_555
H108 C60 1_555 1_555
H109 C60 1_555 1_555
H110 C60 1_555 1_555
C61 O41 1_555 1_555
O42 Mn8 1_555 1_555
C62 C61 1_555 1_555
H111 C62 1_555 1_555
H112 C62 1_555 1_555
H113 C62 1_555 1_555
C69 O49 1_555 1_555
O49 Na6 1_555 1_555
O50 Mn11 1_555 1_555
C70 C69 1_555 1_555
H123 C70 1_555 1_555
H124 C70 1_555 1_555
H125 C70 1_555 1_555
C71 O51 1_555 1_555
O51 Mn10 1_555 1_555
C72 C71 1_555 1_555
H126 C72 1_555 1_555
H127 C72 1_555 1_555
H128 C72 1_555 1_555
O53 Na6 1_555 1_555
C73 O53 1_555 1_555
O54 C73 1_555 1_555
C74 C73 1_555 1_555
H130 C74 1_555 1_555
H131 C74 1_555 1_555
O56 Na6 1_555 1_555
H134 O56 1_555 1_555
H135 O56 1_555 1_555
Na9 O49 1_555 1_555
O59 Na6 1_555 1_555
Mn10 O34 1_555 1_555
Mn11 O29 1_555 1_555
Mn11 O31 1_555 1_555
Mn11 O39 1_555 1_555
Na6 O34 1_555 1_555
Na6 O39 1_555 1_555
C38 O29 1_555 1_555
C40 O31 1_555 1_555
C46 O34 1_555 1_555
C57 O39 1_555 1_555
C58 O40 1_555 1_555
C61 O42 1_555 1_555
C69 O50 1_555 1_555
Na9 O59 1_555 1_555
Mn1 O1 1_555 1_555
Mn2 O1 1_555 1_555
Mn3 O1 1_555 1_555
Mn4 O1 1_555 1_555
Mn5 O1 1_555 1_555
Mn6 O1 1_555 1_555
Na1 O4 1_555 1_555
Na2 O2 1_555 1_555
Na9 O3 1_555 1_555
C1 C2 1_555 1_555
C2 H1 1_555 1_555
H2 C2 1_555 1_555
O2 Mn1 1_555 1_555
C3 C1 1_555 1_555
H3 C3 1_555 1_555
H4 C3 1_555 1_555
O3 Mn2 1_555 1_555
C4 C1 1_555 1_555
H5 C4 1_555 1_555
H6 C4 1_555 1_555
O4 Mn1 1_555 1_555
C5 C1 1_555 1_555
H7 C5 1_555 1_555
H8 C5 1_555 1_555
C6 C5 1_555 1_555
H9 C6 1_555 1_555
H10 C6 1_555 1_555
H11 C6 1_555 1_555
C7 C8 1_555 1_555
C8 H12 1_555 1_555
H13 C8 1_555 1_555
O5 Mn3 1_555 1_555
C9 C7 1_555 1_555
H14 C9 1_555 1_555
H15 C9 1_555 1_555
O6 Mn2 1_555 1_555
C10 C7 1_555 1_555
H16 C10 1_555 1_555
H17 C10 1_555 1_555
O7 Mn2 1_555 1_555
C11 C7 1_555 1_555
H18 C11 1_555 1_555
H19 C11 1_555 1_555
C12 C11 1_555 1_555
H20 C12 1_555 1_555
H21 C12 1_555 1_555
H22 C12 1_555 1_555
C13 C14 1_555 1_555
C14 H23 1_555 1_555
H24 C14 1_555 1_555
O8 Mn1 1_555 1_555
C15 C13 1_555 1_555
H25 C15 1_555 1_555
H26 C15 1_555 1_555
O9 Mn1 1_555 1_555
C16 C13 1_555 1_555
H27 C16 1_555 1_555
H28 C16 1_555 1_555
O10 Mn3 1_555 1_555
C17 C13 1_555 1_555
H29 C17 1_555 1_555
H30 C17 1_555 1_555
C18 C17 1_555 1_555
H31 C18 1_555 1_555
H32 C18 1_555 1_555
H33 C18 1_555 1_555
C19 C20 1_555 1_555
C20 H34 1_555 1_555
H35 C20 1_555 1_555
O11 Mn4 1_555 1_555
C21 C19 1_555 1_555
H36 C21 1_555 1_555
H37 C21 1_555 1_555
O12 Mn5 1_555 1_555
C22 C19 1_555 1_555
H38 C22 1_555 1_555
H39 C22 1_555 1_555
O13 Mn4 1_555 1_555
C23 C19 1_555 1_555
H40 C23 1_555 1_555
H41 C23 1_555 1_555
C24 C23 1_555 1_555
H42 C24 1_555 1_555
H43 C24 1_555 1_555
H44 C24 1_555 1_555
O15 Mn2 1_555 1_555
C27 O16 1_555 1_555
O16 Na1 1_555 1_555
O17 Mn1 1_555 1_555
C28 C27 1_555 1_555
H48 C28 1_555 1_555
H49 C28 1_555 1_555
H50 C28 1_555 1_555
C29 O18 1_555 1_555
O18 Na1 1_555 1_555
O58 Mn3 1_555 1_555
C30 C29 1_555 1_555
H51 C30 1_555 1_555
H52 C30 1_555 1_555
H53 C30 1_555 1_555
C31 O20 1_555 1_555
O20 Na2 1_555 1_555
O21 Mn6 1_555 1_555
C32 C31 1_555 1_555
H54 C32 1_555 1_555
H55 C32 1_555 1_555
H56 C32 1_555 1_555
C33 O59 1_555 1_555
O23 Mn5 1_555 1_555
C34 C33 1_555 1_555
H57 C34 1_555 1_555
H58 C34 1_555 1_555
H59 C34 1_555 1_555
C35 O24 1_555 1_555
O24 Na9 1_555 1_555
O25 Mn4 1_555 1_555
C36 C35 1_555 1_555
H60 C36 1_555 1_555
H61 C36 1_555 1_555
H62 C36 1_555 1_555
O26 Na2 1_555 1_555
H63 O26 1_555 1_555
H64 O26 1_555 1_555
O27 Na9 1_555 1_555
H65 O27 1_555 1_555
H66 O27 1_555 1_555
H114 C64 1_555 1_555
H115 C64 1_555 1_555
H116 C64 1_555 1_555
Na8 O26 1_555 1_555
O60 Na2 1_555 1_555
Mn2 O4 1_555 1_555
Mn3 O6 1_555 1_555
Mn3 O8 1_555 1_555
Mn4 O5 1_555 1_555
Mn4 O7 1_555 1_555
Mn5 O2 1_555 1_555
Mn5 O3 1_555 1_555
Mn5 O11 1_555 1_555
Mn6 O9 1_555 1_555
Mn6 O10 1_555 1_555
Mn6 O12 1_555 1_555
Mn6 O13 1_555 1_555
Na1 O6 1_555 1_555
Na1 O8 1_555 1_555
Na2 O9 1_555 1_555
Na2 O12 1_555 1_555
Na9 O7 1_555 1_555
Na9 O11 1_555 1_555
C2 O2 1_555 1_555
C3 O3 1_555 1_555
C4 O4 1_555 1_555
C8 O5 1_555 1_555
C9 O6 1_555 1_555
C10 O7 1_555 1_555
C14 O8 1_555 1_555
C15 O9 1_555 1_555
C16 O10 1_555 1_555
C20 O11 1_555 1_555
C21 O12 1_555 1_555
C22 O13 1_555 1_555
C25 O15 1_555 1_555
C27 O17 1_555 1_555
C29 O58 1_555 1_555
C31 O21 1_555 1_555
C33 O23 1_555 1_555
C35 O25 1_555 1_555
Na8 O60 1_555 1_555
Mn1_2 O1_2 1_555 1_555
Mn2_2 O1_2 1_555 1_555
Mn3_2 O1_2 1_555 1_555
Mn4_2 O1_2 1_555 1_555
Mn5_2 O1_2 1_555 1_555
Mn6_2 O1_2 1_555 1_555
Na1_2 O4_2 1_555 1_555
Na8 O2_2 1_555 1_555
Na3 O3_2 1_555 1_555
C1_2 C2_2 1_555 1_555
C2_2 H1_2 1_555 1_555
H2_2 C2_2 1_555 1_555
O2_2 Mn1_2 1_555 1_555
C3_2 C1_2 1_555 1_555
H3_2 C3_2 1_555 1_555
H4_2 C3_2 1_555 1_555
O3_2 Mn2_2 1_555 1_555
C4_2 C1_2 1_555 1_555
H5_2 C4_2 1_555 1_555
H6_2 C4_2 1_555 1_555
O4_2 Mn1_2 1_555 1_555
C5_2 C1_2 1_555 1_555
H7_2 C5_2 1_555 1_555
H8_2 C5_2 1_555 1_555
C6_2 C5_2 1_555 1_555
H9_2 C6_2 1_555 1_555
H10_2 C6_2 1_555 1_555
H11_2 C6_2 1_555 1_555
C7_2 C8_2 1_555 1_555
C8_2 H12_2 1_555 1_555
H13_2 C8_2 1_555 1_555
O5_2 Mn3_2 1_555 1_555
C9_2 C7_2 1_555 1_555
H14_2 C9_2 1_555 1_555
H15_2 C9_2 1_555 1_555
O6_2 Mn2_2 1_555 1_555
C10_2 C7_2 1_555 1_555
H16_2 C10_2 1_555 1_555
H17_2 C10_2 1_555 1_555
O7_2 Mn2_2 1_555 1_555
C11_2 C7_2 1_555 1_555
H18_2 C11_2 1_555 1_555
H19_2 C11_2 1_555 1_555
C12_2 C11_2 1_555 1_555
H20_2 C12_2 1_555 1_555
H21_2 C12_2 1_555 1_555
H22_2 C12_2 1_555 1_555
C13_2 C14_2 1_555 1_555
C14_2 H23_2 1_555 1_555
H24_2 C14_2 1_555 1_555
O8_2 Mn1_2 1_555 1_555
C15_2 C13_2 1_555 1_555
H25_2 C15_2 1_555 1_555
H26_2 C15_2 1_555 1_555
O9_2 Mn1_2 1_555 1_555
C16_2 C13_2 1_555 1_555
H27_2 C16_2 1_555 1_555
H28_2 C16_2 1_555 1_555
O10_2 Mn3_2 1_555 1_555
C17_2 C13_2 1_555 1_555
H29_2 C17_2 1_555 1_555
H30_2 C17_2 1_555 1_555
C18_2 C17_2 1_555 1_555
H31_2 C18_2 1_555 1_555
H32_2 C18_2 1_555 1_555
H33_2 C18_2 1_555 1_555
C19_2 C20_2 1_555 1_555
C20_2 H34_2 1_555 1_555
H35_2 C20_2 1_555 1_555
O11_2 Mn4_2 1_555 1_555
C21_2 C19_2 1_555 1_555
H36_2 C21_2 1_555 1_555
H37_2 C21_2 1_555 1_555
O12_2 Mn5_2 1_555 1_555
C22_2 C19_2 1_555 1_555
H38_2 C22_2 1_555 1_555
H39_2 C22_2 1_555 1_555
O13_2 Mn4_2 1_555 1_555
C23_2 C19_2 1_555 1_555
H40_2 C23_2 1_555 1_555
H41_2 C23_2 1_555 1_555
C24_2 C23_2 1_555 1_555
H42_2 C24_2 1_555 1_555
H43_2 C24_2 1_555 1_555
H44_2 C24_2 1_555 1_555
O15_2 Mn2_2 1_555 1_555
C27_2 O16_2 1_555 1_555
O16_2 Na1_2 1_555 1_555
O17_2 Mn1_2 1_555 1_555
C28_2 C27_2 1_555 1_555
H48_2 C28_2 1_555 1_555
H49_2 C28_2 1_555 1_555
H50_2 C28_2 1_555 1_555
C29_2 O18_2 1_555 1_555
O18_2 Na1_2 1_555 1_555
O19 Mn3_2 1_555 1_555
C30_2 C29_2 1_555 1_555
H51_2 C30_2 1_555 1_555
H52_2 C30_2 1_555 1_555
H53_2 C30_2 1_555 1_555
C31_2 O20_2 1_555 1_555
O20_2 Na8 1_555 1_555
O21_2 Mn6_2 1_555 1_555
C32_2 C31_2 1_555 1_555
H54_2 C32_2 1_555 1_555
H55_2 C32_2 1_555 1_555
H56_2 C32_2 1_555 1_555
C33_2 O22 1_555 1_555
O22 Na3 1_555 1_555
O23_2 Mn5_2 1_555 1_555
C34_2 C33_2 1_555 1_555
H57_2 C34_2 1_555 1_555
H58_2 C34_2 1_555 1_555
H59_2 C34_2 1_555 1_555
C35_2 O24_2 1_555 1_555
O24_2 Na3 1_555 1_555
O25_2 Mn4_2 1_555 1_555
C36_2 C35_2 1_555 1_555
H60_2 C36_2 1_555 1_555
H61_2 C36_2 1_555 1_555
H62_2 C36_2 1_555 1_555
H63_2 O60 1_555 1_555
H64_2 O60 1_555 1_555
O27_2 Na3 1_555 1_555
H65_2 O27_2 1_555 1_555
H66_2 O27_2 1_555 1_555
H114_2 C64_2 1_555 1_555
H115_2 C64_2 1_555 1_555
H116_2 C64_2 1_555 1_555
Na11 O22 1_555 1_555
Na12 O19 1_555 1_555
O61 Na3 1_555 1_555
Mn2_2 O4_2 1_555 1_555
Mn3_2 O6_2 1_555 1_555
Mn3_2 O8_2 1_555 1_555
Mn4_2 O5_2 1_555 1_555
Mn4_2 O7_2 1_555 1_555
Mn5_2 O2_2 1_555 1_555
Mn5_2 O3_2 1_555 1_555
Mn5_2 O11_2 1_555 1_555
Mn6_2 O9_2 1_555 1_555
Mn6_2 O10_2 1_555 1_555
Mn6_2 O12_2 1_555 1_555
Mn6_2 O13_2 1_555 1_555
Na1_2 O6_2 1_555 1_555
Na1_2 O8_2 1_555 1_555
Na8 O9_2 1_555 1_555
Na8 O12_2 1_555 1_555
Na3 O7_2 1_555 1_555
Na3 O11_2 1_555 1_555
C2_2 O2_2 1_555 1_555
C3_2 O3_2 1_555 1_555
C4_2 O4_2 1_555 1_555
C8_2 O5_2 1_555 1_555
C9_2 O6_2 1_555 1_555
C10_2 O7_2 1_555 1_555
C14_2 O8_2 1_555 1_555
C15_2 O9_2 1_555 1_555
C16_2 O10_2 1_555 1_555
C20_2 O11_2 1_555 1_555
C21_2 O12_2 1_555 1_555
C22_2 O13_2 1_555 1_555
C25_2 O15_2 1_555 1_555
C27_2 O17_2 1_555 1_555
C29_2 O19 1_555 1_555
C31_2 O21_2 1_555 1_555
C33_2 O23_2 1_555 1_555
C35_2 O25_2 1_555 1_555
Na11 O61 1_555 1_555
Na11 O31_2 1_555 1_555
C37_2 C38_2 1_555 1_555
C38_2 H67_2 1_555 1_555
H68_2 C38_2 1_555 1_555
C39_2 C37_2 1_555 1_555
H69_2 C39_2 1_555 1_555
H70_2 C39_2 1_555 1_555
C40_2 C37_2 1_555 1_555
H71_2 C40_2 1_555 1_555
H72_2 C40_2 1_555 1_555
O31_2 Mn8_2 1_555 1_555
C41_2 C37_2 1_555 1_555
H73_2 C41_2 1_555 1_555
H74_2 C41_2 1_555 1_555
C42_2 C41_2 1_555 1_555
H75_2 C42_2 1_555 1_555
H76_2 C42_2 1_555 1_555
H77_2 C42_2 1_555 1_555
H82_2 C46_2 1_555 1_555
H83_2 C46_2 1_555 1_555
O34_2 Mn8_2 1_555 1_555
C57_2 C55_2 1_555 1_555
H102_2 C57_2 1_555 1_555
H103_2 C57_2 1_555 1_555
O39_2 Mn10_2 1_555 1_555
C58_2 C55_2 1_555 1_555
H104_2 C58_2 1_555 1_555
H105_2 C58_2 1_555 1_555
O40_2 Mn11_2 1_555 1_555
C59_2 C55_2 1_555 1_555
H106_2 C59_2 1_555 1_555
H107_2 C59_2 1_555 1_555
C60_2 C59_2 1_555 1_555
H108_2 C60_2 1_555 1_555
H109_2 C60_2 1_555 1_555
H110_2 C60_2 1_555 1_555
C61_2 O41_2 1_555 1_555
O42_2 Mn8_2 1_555 1_555
C62_2 C61_2 1_555 1_555
H111_2 C62_2 1_555 1_555
H112_2 C62_2 1_555 1_555
H113_2 C62_2 1_555 1_555
C69_2 O61 1_555 1_555
O50_2 Mn11_2 1_555 1_555
C70_2 C69_2 1_555 1_555
H123_2 C70_2 1_555 1_555
H124_2 C70_2 1_555 1_555
H125_2 C70_2 1_555 1_555
C71_2 O51_2 1_555 1_555
O51_2 Mn10_2 1_555 1_555
C72_2 C71_2 1_555 1_555
H126_2 C72_2 1_555 1_555
H127_2 C72_2 1_555 1_555
H128_2 C72_2 1_555 1_555
O53_2 Na11 1_555 1_555
C73_2 O53_2 1_555 1_555
O54_2 C73_2 1_555 1_555
C74_2 C73_2 1_555 1_555
H130_2 C74_2 1_555 1_555
H131_2 C74_2 1_555 1_555
O56_2 Na11 1_555 1_555
H134_2 O56_2 1_555 1_555
H135_2 O56_2 1_555 1_555
Mn10_2 O34_2 1_555 1_555
Mn11_2 O29_2 1_555 1_555
Mn11_2 O31_2 1_555 1_555
Mn11_2 O39_2 1_555 1_555
Na11 O34_2 1_555 1_555
Na11 O39_2 1_555 1_555
C38_2 O29_2 1_555 1_555
C40_2 O31_2 1_555 1_555
C46_2 O34_2 1_555 1_555
C57_2 O39_2 1_555 1_555
C58_2 O40_2 1_555 1_555
C61_2 O42_2 1_555 1_555
C69_2 O50_2 1_555 1_555
H137_2 O62 1_555 1_555
H45_2 C26_2 1_555 1_555
H46_2 C26_2 1_555 1_555
H47_2 C26_2 1_555 1_555
Mn7_2 O28_2 1_555 1_555
Mn9_2 O28_2 1_555 1_555
Mn12_2 O28_2 1_555 1_555
Na12 O32_2 1_555 1_555
O30_2 Mn7_2 1_555 1_555
C43_2 C44_2 1_555 1_555
C44_2 H78_2 1_555 1_555
H79_2 C44_2 1_555 1_555
O32_2 Mn9_2 1_555 1_555
C45_2 C43_2 1_555 1_555
H80_2 C45_2 1_555 1_555
H81_2 C45_2 1_555 1_555
C47_2 C43_2 1_555 1_555
H85_2 C47_2 1_555 1_555
C48_2 C47_2 1_555 1_555
H86_2 C48_2 1_555 1_555
H87_2 C48_2 1_555 1_555
H88_2 C48_2 1_555 1_555
C49_2 C50_2 1_555 1_555
C50_2 H89_2 1_555 1_555
H90_2 C50_2 1_555 1_555
O35_2 Mn7_2 1_555 1_555
C51_2 C49_2 1_555 1_555
H91_2 C51_2 1_555 1_555
H92_2 C51_2 1_555 1_555
O36_2 Mn9_2 1_555 1_555
C52_2 C49_2 1_555 1_555
H93_2 C52_2 1_555 1_555
H94_2 C52_2 1_555 1_555
O37_2 Mn7_2 1_555 1_555
C53_2 C49_2 1_555 1_555
H95_2 C53_2 1_555 1_555
H96_2 C53_2 1_555 1_555
C54_2 C53_2 1_555 1_555
H97_2 C54_2 1_555 1_555
H98_2 C54_2 1_555 1_555
H99_2 C54_2 1_555 1_555
H101_2 C56_2 1_555 1_555
C63_2 O43_2 1_555 1_555
O43_2 Na10 1_555 1_555
O44_2 Mn7_2 1_555 1_555
C65_2 O45_2 1_555 1_555
O45_2 Mn9_2 1_555 1_555
C66_2 C65_2 1_555 1_555
H117_2 C66_2 1_555 1_555
H118_2 C66_2 1_555 1_555
H119_2 C66_2 1_555 1_555
C67_2 O47_2 1_555 1_555
O47_2 Mn12_2 1_555 1_555
O48_2 Na12 1_555 1_555
C68_2 C67_2 1_555 1_555
H120_2 C68_2 1_555 1_555
H121_2 C68_2 1_555 1_555
H122_2 C68_2 1_555 1_555
O52_2 Na12 1_555 1_555
O55_2 Na12 1_555 1_555
H132_2 O55_2 1_555 1_555
H133_2 O55_2 1_555 1_555
Mn9_2 O33_2 1_555 1_555
Mn9_2 O37_2 1_555 1_555
Mn12_2 O35_2 1_555 1_555
Mn12_2 O36_2 1_555 1_555
Mn12_2 O38_2 1_555 1_555
Na4_2 O30_2 1_555 1_555
Na4_2 O33_2 1_555 1_555
Na4_2 O37_2 1_555 1_555
Na4_2 O46_2 1_555 1_555
Na10 O35_2 1_555 1_555
Na12 O36_2 1_555 1_555
Na12 O38_2 1_555 1_555
C44_2 O32_2 1_555 1_555
C45_2 O33_2 1_555 1_555
C50_2 O35_2 1_555 1_555
C51_2 O36_2 1_555 1_555
C52_2 O37_2 1_555 1_555
C56_2 O38_2 1_555 1_555
C63_2 O44_2 1_555 1_555
C65_2 O46_2 1_555 1_555
C67_2 O48_2 1_555 1_555

#END
