
###############################################################################
#
# This file contains modified crystal structure data generated from the
# MOF subset of the Cambridge Structural Database (CSD) v543 
# hosted by the Cambridge Crystallographic Data Centre (CCDC).
#
# This work is licensed under the Creative Commons
# Attribution-NonCommercial-ShareAlike 4.0 International License.
# To view a copy of this license, visit
# http://creativecommons.org/licenses/by-nc-sa/4.0/
# or send a letter to
# Creative Commons, PO Box 1866, Mountain View, CA 94042, USA.
#
# CIF created using the CSD Python API on 29 September 2022
# The structure has been converted into the P1 space group
# The structure has a 3D framework
# The original CSD entry HUHNIJ is in the orthorhombic crystal system
# The original CSD entry HUHNIJ is in a Sohncke space group
# The framework has been calculated to contain at least 10.0% void space
# The void calculation uses a probe of radius 1.32A, grid spacing 0.4
#
###############################################################################

data_HUHNIJ
_chemical_formula_moiety         '(C344 H440 Cd8 N32 O60 Ti8)n'
_symmetry_cell_setting           triclinic
_symmetry_space_group_name_H-M   'P 1'
_symmetry_Int_Tables_number      1
_space_group_name_Hall           'P 1'
loop_
_symmetry_equiv_pos_site_id
_symmetry_equiv_pos_as_xyz
1 x,y,z
_cell_length_a                   13.9325(12)
_cell_length_b                   26.873(2)
_cell_length_c                   27.147(2)
_cell_angle_alpha                90
_cell_angle_beta                 90
_cell_angle_gamma                90
_cell_volume                     10164.1
loop_
_atom_site_label
_atom_site_type_symbol
_atom_site_fract_x
_atom_site_fract_y
_atom_site_fract_z
Cd1 Cd 0.30793(7) 0.62932(3) 0.04194(3)
O8 O 0.3530(9) 0.5535(4) 0.0758(5)
N4 N 0.1875(8) 0.5842(3) 0.0016(4)
C39 C 0.1505(9) 0.5405(4) 0.0190(4)
H53 H 0.1717 0.5283 0.0500
H54 H 0.0597 0.4838 0.0070
C79 C 0.3928(13) 0.5384(5) 0.0380(8)
C80 C 0.4385(14) 0.4847(7) 0.0335(9)
H99 H 0.4079 0.4667 0.0063
H100 H 0.4284 0.4664 0.0644
H101 H 0.5075 0.4876 0.0272
O16 O 0.4579(8) 0.6663(3) 0.0692(6)
O17 O 0.2675(7) 0.6747(3) 0.1105(3)
O18 O 0.1445(9) 0.6786(5) 0.0650(4)
Cd2 Cd 0.40765(7) 0.71620(3) 0.13799(3)
O4 O 0.9591(5) 0.9284(2) 0.3201(2)
O10 O 0.3680(10) 0.6995(6) 0.2170(4)
O11 O 0.3127(13) 0.7702(5) 0.1924(4)
O12 O 0.5242(10) 0.6495(4) 0.1333(6)
N6 N 0.9616(6) 0.9830(3) 0.2373(3)
N8 N 0.5400(8) 0.7603(3) 0.1705(4)
H56 H 0.8287 0.9831 0.2682
H58 H 0.7991 0.9926 0.1815
C63 C 0.9509(9) 0.9328(3) 0.2161(4)
H83 H 0.9239 0.9355 0.1825
C64 C 0.8865(4) 0.90029(19) 0.24695(16)
C65 C 0.8923(4) 0.89988(19) 0.29806(17)
C66 C 0.8278(5) 0.8717(2) 0.32540(13)
C67 C 0.7575(4) 0.8439(2) 0.30162(18)
H84 H 0.7134 0.8247 0.3203
C68 C 0.7517(4) 0.8444(2) 0.25051(19)
C69 C 0.8163(5) 0.8725(2) 0.22317(13)
H85 H 0.8123 0.8728 0.1882
C70 C 0.8340(10) 0.8729(4) 0.3820(4)
C71 C 0.8173(15) 0.9276(5) 0.4006(5)
H86 H 0.8668 0.9495 0.3868
H87 H 0.8210 0.9284 0.4367
H88 H 0.7538 0.9391 0.3900
C72 C 0.9305(12) 0.8488(5) 0.4000(4)
H89 H 0.9364 0.8152 0.3862
H90 H 0.9307 0.8469 0.4360
H91 H 0.9847 0.8692 0.3889
C73 C 0.7509(12) 0.8400(6) 0.4041(5)
H92 H 0.6888 0.8549 0.3958
H93 H 0.7578 0.8382 0.4400
H94 H 0.7545 0.8064 0.3902
C74 C 0.6776(9) 0.8150(3) 0.2245(4)
C75 C 0.6346(12) 0.8328(4) 0.1813(5)
H95 H 0.6542 0.8639 0.1681
C76 C 0.5655(10) 0.8061(4) 0.1582(5)
H96 H 0.5330 0.8213 0.1313
C77 C 0.5824(9) 0.7417(3) 0.2114(4)
H97 H 0.5651 0.7092 0.2221
C78 C 0.6478(9) 0.7672(4) 0.2376(4)
H98 H 0.6748 0.7522 0.2661
C81 C 0.3271(15) 0.7395(9) 0.2232(8)
C82 C 0.285(2) 0.7462(11) 0.2764(12)
H102 H 0.2885 0.7143 0.2940
H103 H 0.2185 0.7572 0.2743
H104 H 0.3233 0.7711 0.2942
C83 C 0.5241(13) 0.6452(5) 0.0872(7)
C84 C 0.5970(15) 0.6109(7) 0.0564(9)
H105 H 0.5791 0.6115 0.0215
H106 H 0.5938 0.5766 0.0687
H107 H 0.6625 0.6236 0.0602
C85 C 0.1861(11) 0.6881(5) 0.1035(4)
C86 C 0.1317(13) 0.7197(7) 0.1455(8)
H108 H 0.1605 0.7125 0.1776
H109 H 0.0637 0.7105 0.1460
H110 H 0.1379 0.7553 0.1383
N10 N 0.3891(9) 0.7775(3) 0.0780(3)
H68 H 0.3037 0.9443 0.0077
C58 C 0.3893(9) 0.8552(3) 0.0067(3)
C59 C 0.4548(9) 0.8174(4) 0.0064(4)
C60 C 0.4534(9) 0.7789(4) 0.0402(4)
H79 H 0.4986 0.7527 0.0369
C61 C 0.3287(10) 0.8146(4) 0.0795(4)
H80 H 0.2853 0.8157 0.1065
C62 C 0.3225(10) 0.8524(4) 0.0449(4)
H81 H 0.2728 0.8765 0.0472
O9 O 0.4049(9) 0.5674(4) 0.9999(5)
H10 H 0.0038 0.4541 0.7153
C5 C 0.0087(12) 0.5207(6) 0.6771(6)
H13 H 0.0749 0.5152 0.6651
C6 C 0.0092(11) 0.5530(6) 0.7254(7)
H14 H 0.0518 0.5368 0.7498
H15 H 0.0373 0.5860 0.7176
H40 H 0.0221 0.4313 0.9361
H48 H 0.0538 0.3679 0.9071
H49 H 0.0138 0.3125 0.9002
C36 C 0.0513(8) 0.5282(4) 0.9491(4)
C37 C 0.0835(11) 0.5731(5) 0.9327(5)
H51 H 0.0599 0.5863 0.9026
C38 C 0.1519(11) 0.6002(5) 0.9606(6)
H52 H 0.1726 0.6316 0.9485
C40 C 0.0838(9) 0.5137(4) 0.9931(4)
N9 N 0.3175(8) 0.6838(3) 0.9777(3)
Ti1 Ti 0.31274(14) 0.94401(5) 0.71914(6)
O1 O 0.3368(5) 0.87657(19) 0.7319(2)
O2 O 0.2232(6) 0.9287(2) 0.6675(2)
O5 O 0.3780(5) 0.9727(2) 0.7714(2)
O6 O 0.4103(6) 0.9604(2) 0.6750(2)
N2 N 0.1911(6) 0.9311(2) 0.7728(3)
H2 H 0.1434 0.9086 0.7566
N5 N 0.5551(6) 0.9624(3) 0.8227(3)
H3 H 0.5996 0.9773 0.8476
H4 H 0.5051 0.9958 0.7123
H5 H 0.0948 0.9927 0.7153
C2 C 0.4238(12) 0.9506(6) 0.6254(4)
H6 H 0.3719 0.9659 0.6063
H7 H 0.4235 0.9145 0.6199
H8 H 0.4856 0.9644 0.6148
C3 C 0.1411(7) 0.9792(3) 0.7848(4)
H9 H 0.1816 0.9972 0.8094
C4 C 0.0380(9) 0.9716(5) 0.8085(5)
H11 H 0.0440 0.9503 0.8382
C8 C 0.2243(8) 0.9063(3) 0.8189(4)
H18 H 0.1677 0.8998 0.8399
H19 H 0.2665 0.9297 0.8369
C10 C 0.3322(5) 0.84471(16) 0.76975(17)
C11 C 0.3826(4) 0.80010(18) 0.76795(17)
C12 C 0.3800(4) 0.76769(15) 0.8078(2)
H23 H 0.4144 0.7372 0.8066
C13 C 0.3271(5) 0.77989(18) 0.84952(17)
C14 C 0.2767(5) 0.8245(2) 0.85132(18)
H24 H 0.2405 0.8328 0.8798
C15 C 0.2792(4) 0.85690(16) 0.8114(2)
C16 C 0.4442(9) 0.7863(3) 0.7225(4)
C17 C 0.5248(9) 0.8251(4) 0.7144(5)
H25 H 0.4962 0.8573 0.7056
H26 H 0.5669 0.8139 0.6877
H27 H 0.5622 0.8287 0.7448
C18 C 0.3804(9) 0.7843(4) 0.6758(4)
H28 H 0.3397 0.7546 0.6771
H29 H 0.4213 0.7829 0.6465
H30 H 0.3400 0.8141 0.6744
C19 C 0.4978(9) 0.7351(3) 0.7276(4)
H31 H 0.5551 0.7394 0.7481
H32 H 0.5169 0.7233 0.6948
H33 H 0.4550 0.7107 0.7429
C20 C 0.3231(8) 0.7468(3) 0.8938(4)
C21 C 0.2579(10) 0.7510(4) 0.9300(5)
H34 H 0.2096 0.7757 0.9267
C22 C 0.2568(10) 0.7222(4) 0.9704(5)
H35 H 0.2108 0.7293 0.9953
C23 C 0.3854(11) 0.6791(5) 0.9415(6)
H36 H 0.4333 0.6543 0.9454
C24 C 0.3880(11) 0.7078(4) 0.9006(5)
H37 H 0.4349 0.7014 0.8760
C27 C 0.1596(5) 0.95141(18) 0.6372(2)
C28 C 0.0924(5) 0.92463(13) 0.6102(2)
C29 C 0.0239(5) 0.94957(19) 0.5823(2)
C32 C 0.0881(13) 0.8659(4) 0.6125(5)
C33 C 0.0751(15) 0.8485(4) 0.6667(6)
H42 H 0.1369 0.8502 0.6838
H43 H 0.0513 0.8142 0.6672
H44 H 0.0288 0.8703 0.6833
C34 C 0.1813(15) 0.8472(4) 0.5925(6)
H45 H 0.1857 0.8553 0.5574
H46 H 0.1849 0.8111 0.5969
H47 H 0.2344 0.8631 0.6103
C35 C 0.0008(16) 0.8457(6) 0.5869(10)
H50 H 0.0132 0.8436 0.5514
C41 C 0.6126(8) 0.9476(3) 0.7805(4)
H55 H 0.5738 0.9236 0.7606
C42 C 0.6310(7) 0.9929(3) 0.7491(4)
C43 C 0.6864(11) 0.9776(4) 0.7016(5)
H57 H 0.6468 0.9546 0.6816
C44 C 0.7798(11) 0.9519(5) 0.7173(7)
H59 H 0.8166 0.9426 0.6875
H60 H 0.8192 0.9757 0.7364
C45 C 0.7625(12) 0.9066(5) 0.7476(8)
H61 H 0.8244 0.8914 0.7573
H62 H 0.7256 0.8818 0.7283
C46 C 0.7048(10) 0.9223(5) 0.7944(6)
H63 H 0.6906 0.8924 0.8144
H64 H 0.7443 0.9452 0.8146
C47 C 0.5081(8) 0.9188(3) 0.8461(3)
H65 H 0.5581 0.8937 0.8534
H66 H 0.4634 0.9039 0.8219
C48 C 0.3916(5) 0.89669(16) 0.97061(17)
C49 C 0.4468(5) 0.89123(16) 0.92829(19)
H67 H 0.4811 0.8612 0.9227
C50 C 0.4517(4) 0.92969(18) 0.89414(17)
C51 C 0.4015(5) 0.97361(15) 0.90232(16)
C52 C 0.3463(5) 0.97907(17) 0.94464(18)
C53 C 0.3414(4) 0.9406(2) 0.97879(16)
H78 H 0.5035 0.8176 0.9819
Ti1_2 Ti 0.68726(14) 0.44401(5) 0.78086(6)
Ti2 Ti 0.55557(13) 0.52149(5) 0.69699(5)
O1_2 O 0.6632(5) 0.37657(19) 0.7681(2)
O2_2 O 0.7768(6) 0.4287(2) 0.8325(2)
O3 O 0.5953(5) 0.5100(2) 0.6318(2)
O4_2 O 0.4591(5) 0.5716(2) 0.6799(2)
O5_2 O 0.6220(5) 0.4727(2) 0.7286(2)
O6_2 O 0.5897(6) 0.4604(2) 0.8250(2)
O7 O 0.6431(5) 0.5697(2) 0.7169(3)
O12_2 O 0.0242(10) 0.8505(4) 0.8667(6)
N1 N 0.7683(6) 0.5145(3) 0.7837(3)
H1 H 0.7312 0.5392 0.7638
N2_2 N 0.8089(6) 0.4311(2) 0.7272(3)
H2_2 H 0.8566 0.4086 0.7434
N3 N 0.6825(8) 0.1838(3) 0.5223(3)
N5_2 N 0.4449(6) 0.4624(3) 0.6773(3)
H3_2 H 0.4004 0.4773 0.6524
N6_2 N 0.4616(6) 0.5170(3) 0.7627(3)
H4_2 H 0.4949 0.4958 0.7877
N7 N 0.6109(9) 0.2775(3) 0.4220(3)
N8_2 N 0.0400(8) 0.7397(3) 0.8295(4)
C1 C 0.8625(9) 0.5102(3) 0.7607(4)
H5_2 H 0.9052 0.4927 0.7847
C2_2 C 0.5762(12) 0.4506(6) 0.8746(4)
H6_2 H 0.6281 0.4659 0.8937
H7_2 H 0.5765 0.4145 0.8801
H8_2 H 0.5144 0.4644 0.8852
C3_2 C 0.8589(7) 0.4792(3) 0.7152(4)
H9_2 H 0.8184 0.4972 0.6906
C4_2 C 0.9620(9) 0.4716(5) 0.6915(5)
H11_2 H 0.9560 0.4503 0.6618
H12 H 0.9713 0.5374 0.6509
C7 C 0.9095(10) 0.5612(4) 0.7495(6)
H16 H 0.9168 0.5804 0.7804
H17 H 0.8679 0.5805 0.7269
C8_2 C 0.7757(8) 0.4063(3) 0.6811(4)
H18_2 H 0.8323 0.3998 0.6601
H19_2 H 0.7335 0.4297 0.6631
C9 C 0.6495(11) 0.6208(4) 0.7065(8)
H20 H 0.6705 0.6388 0.7360
H21 H 0.5865 0.6333 0.6962
H22 H 0.6961 0.6262 0.6799
C10_2 C 0.6678(5) 0.34471(16) 0.73025(17)
C11_2 C 0.6174(4) 0.30010(18) 0.73205(17)
C12_2 C 0.6200(4) 0.26769(15) 0.6922(2)
H23_2 H 0.5856 0.2372 0.6934
C13_2 C 0.6729(5) 0.27989(18) 0.65048(17)
C14_2 C 0.7233(5) 0.3245(2) 0.64868(18)
H24_2 H 0.7595 0.3328 0.6202
C15_2 C 0.7208(4) 0.35690(16) 0.6886(2)
C16_2 C 0.5558(9) 0.2863(3) 0.7775(4)
C17_2 C 0.4752(9) 0.3251(4) 0.7856(5)
H25_2 H 0.5038 0.3573 0.7944
H26_2 H 0.4331 0.3139 0.8123
H27_2 H 0.4378 0.3287 0.7552
C18_2 C 0.6196(9) 0.2843(4) 0.8242(4)
H28_2 H 0.6603 0.2546 0.8229
H29_2 H 0.5787 0.2829 0.8535
H30_2 H 0.6600 0.3141 0.8256
C19_2 C 0.5022(9) 0.2351(3) 0.7724(4)
H31_2 H 0.4449 0.2394 0.7519
H32_2 H 0.4831 0.2233 0.8052
H33_2 H 0.5450 0.2107 0.7571
C20_2 C 0.6769(8) 0.2468(3) 0.6062(4)
C21_2 C 0.7421(10) 0.2510(4) 0.5700(5)
H34_2 H 0.7904 0.2757 0.5733
C22_2 C 0.7432(10) 0.2222(4) 0.5296(5)
H35_2 H 0.7892 0.2293 0.5047
C23_2 C 0.6146(11) 0.1791(5) 0.5585(6)
H36_2 H 0.5667 0.1543 0.5546
C24_2 C 0.6120(11) 0.2078(4) 0.5994(5)
H37_2 H 0.5651 0.2014 0.6240
C25 C 0.7699(8) 0.5332(3) 0.8339(4)
H38 H 0.7052 0.5302 0.8488
H39 H 0.7885 0.5687 0.8341
C26 C 0.8416(5) 0.50312(17) 0.8637(2)
C27_2 C 0.8404(5) 0.45141(18) 0.8628(2)
C28_2 C 0.9076(5) 0.42463(13) 0.8898(2)
C29_2 C 0.9761(5) 0.44957(19) 0.9177(2)
C30 C 0.9773(5) 0.5013(2) 0.9186(2)
C31 C 0.9100(5) 0.52806(13) 0.8916(2)
H41 H 0.9109 0.5634 0.8922
C32_2 C 0.9119(13) 0.3659(4) 0.8875(5)
C33_2 C 0.9249(15) 0.3485(4) 0.8333(6)
H42_2 H 0.8631 0.3502 0.8162
H43_2 H 0.9487 0.3142 0.8328
H44_2 H 0.9712 0.3703 0.8167
C34_2 C 0.8187(15) 0.3472(4) 0.9075(6)
H45_2 H 0.8143 0.3553 0.9426
H46_2 H 0.8151 0.3111 0.9031
H47_2 H 0.7656 0.3631 0.8897
C35_2 C 0.9992(16) 0.3457(6) 0.9131(10)
H50_2 H 0.9868 0.3436 0.9486
C41_2 C 0.3874(8) 0.4476(3) 0.7195(4)
H55_2 H 0.4262 0.4236 0.7394
C42_2 C 0.3690(7) 0.4929(3) 0.7509(4)
H56_2 H 0.3287 0.5169 0.7318
C43_2 C 0.3136(11) 0.4776(4) 0.7984(5)
H57_2 H 0.3532 0.4546 0.8184
H58_2 H 0.2991 0.5074 0.8185
C44_2 C 0.2202(11) 0.4519(5) 0.7827(7)
H59_2 H 0.1834 0.4426 0.8125
H60_2 H 0.1808 0.4757 0.7636
C45_2 C 0.2375(12) 0.4066(5) 0.7524(8)
H61_2 H 0.1756 0.3914 0.7427
H62_2 H 0.2744 0.3818 0.7717
C46_2 C 0.2952(10) 0.4223(5) 0.7056(6)
H63_2 H 0.3094 0.3924 0.6856
H64_2 H 0.2557 0.4452 0.6854
C47_2 C 0.4919(8) 0.4188(3) 0.6539(3)
H65_2 H 0.4419 0.3937 0.6466
H66_2 H 0.5366 0.4039 0.6781
C48_2 C 0.6084(5) 0.39669(16) 0.52939(17)
C49_2 C 0.5532(5) 0.39123(16) 0.57171(19)
H67_2 H 0.5189 0.3612 0.5773
C50_2 C 0.5483(4) 0.42969(18) 0.60586(17)
C51_2 C 0.5985(5) 0.47361(15) 0.59768(16)
C52_2 C 0.6537(5) 0.47907(17) 0.55536(18)
C53_2 C 0.6586(4) 0.4406(2) 0.52121(16)
H68_2 H 0.6963 0.4443 0.4923
C54 C 0.7105(9) 0.5274(3) 0.5457(4)
C55 C 0.7677(10) 0.5260(4) 0.4966(4)
H69 H 0.8172 0.5002 0.4985
H70 H 0.7981 0.5584 0.4910
H71 H 0.7239 0.5186 0.4694
C56 C 0.6476(10) 0.5735(4) 0.5451(5)
H72 H 0.6061 0.5727 0.5160
H73 H 0.6881 0.6032 0.5441
H74 H 0.6078 0.5741 0.5749
C57 C 0.7863(8) 0.5361(5) 0.5867(4)
H75 H 0.7541 0.5382 0.6187
H76 H 0.8206 0.5673 0.5802
H77 H 0.8321 0.5085 0.5870
C58_2 C 0.6107(9) 0.3552(3) 0.4933(3)
C59_2 C 0.5452(9) 0.3174(4) 0.4936(4)
H78_2 H 0.4965 0.3176 0.5181
C60_2 C 0.5466(9) 0.2789(4) 0.4598(4)
H79_2 H 0.5014 0.2527 0.4631
C61_2 C 0.6713(10) 0.3146(4) 0.4205(4)
H80_2 H 0.7147 0.3157 0.3935
C62_2 C 0.6775(10) 0.3524(4) 0.4551(4)
H81_2 H 0.7272 0.3765 0.4528
C63_2 C 0.4509(9) 0.5672(3) 0.7839(4)
H82 H 0.5150 0.5830 0.7865
H83_2 H 0.4239 0.5645 0.8175
C64_2 C 0.3865(4) 0.59971(19) 0.75305(16)
C65_2 C 0.3923(4) 0.60012(19) 0.70194(17)
C66_2 C 0.3278(5) 0.6283(2) 0.67460(13)
C67_2 C 0.2575(4) 0.6561(2) 0.69838(18)
H84_2 H 0.2134 0.6753 0.6797
C68_2 C 0.2517(4) 0.6556(2) 0.74949(19)
C69_2 C 0.3163(5) 0.6275(2) 0.77683(13)
H85_2 H 0.3123 0.6272 0.8118
C70_2 C 0.3340(10) 0.6271(4) 0.6180(4)
C71_2 C 0.3173(15) 0.5724(5) 0.5994(5)
H86_2 H 0.3668 0.5505 0.6132
H87_2 H 0.3210 0.5716 0.5633
H88_2 H 0.2538 0.5609 0.6100
C72_2 C 0.4305(12) 0.6512(5) 0.6000(4)
H89_2 H 0.4364 0.6848 0.6138
H90_2 H 0.4307 0.6531 0.5640
H91_2 H 0.4847 0.6308 0.6111
C73_2 C 0.2509(12) 0.6600(6) 0.5959(5)
H92_2 H 0.1888 0.6451 0.6042
H93_2 H 0.2578 0.6618 0.5600
H94_2 H 0.2545 0.6936 0.6098
C74_2 C 0.1776(9) 0.6850(3) 0.7755(4)
C75_2 C 0.1346(12) 0.6672(4) 0.8187(5)
H95_2 H 0.1542 0.6361 0.8319
C76_2 C 0.0655(10) 0.6939(4) 0.8418(5)
H96_2 H 0.0330 0.6787 0.8687
C77_2 C 0.0824(9) 0.7583(3) 0.7886(4)
H97_2 H 0.0651 0.7908 0.7779
C78_2 C 0.1478(9) 0.7328(4) 0.7624(4)
H98_2 H 0.1748 0.7478 0.7339
C83_2 C 0.0241(13) 0.8548(5) 0.9128(7)
C84_2 C 0.0970(15) 0.8891(7) 0.9436(9)
H105_2 H 0.0791 0.8885 0.9785
H106_2 H 0.0938 0.9234 0.9313
H107_2 H 0.1625 0.8764 0.9398
Cd4 Cd 0.69207(7) 0.12932(3) 0.45806(3)
Cd5 Cd 0.59235(7) 0.21620(3) 0.36201(3)
O4_3 O 0.0409(5) 0.4284(2) 0.1799(2)
O10_2 O 0.6320(10) 0.1995(6) 0.2830(4)
O11_2 O 0.6873(13) 0.2702(5) 0.3076(4)
O12_3 O 0.4758(10) 0.1495(4) 0.3667(6)
O13 O 0.5421(8) 0.1663(3) 0.4308(6)
O14 O 0.7325(7) 0.1747(3) 0.3895(3)
O15 O 0.8555(9) 0.1786(5) 0.4350(4)
N5_3 N 0.0551(6) 0.5376(3) 0.1773(3)
H3_3 H 0.0996 0.5227 0.1524
N6_3 N 0.0384(6) 0.4830(3) 0.2627(3)
H4_3 H 0.0051 0.5042 0.2877
N8_3 N 0.4600(8) 0.2603(3) 0.3295(4)
C17_3 C 0.0248(9) 0.6749(4) 0.2856(5)
H26_3 H 0.0669 0.6861 0.3123
H27_3 H 0.0622 0.6713 0.2552
H31_3 H 0.0551 0.7606 0.2519
H32_3 H 0.0169 0.7767 0.3052
C41_3 C 0.1126(8) 0.5524(3) 0.2195(4)
H55_3 H 0.0738 0.5764 0.2394
C42_3 C 0.1310(7) 0.5071(3) 0.2509(4)
H56_3 H 0.1713 0.4831 0.2318
C43_3 C 0.1864(11) 0.5224(4) 0.2984(5)
H57_3 H 0.1468 0.5454 0.3184
H58_3 H 0.2009 0.4926 0.3185
C44_3 C 0.2798(11) 0.5481(5) 0.2827(7)
H59_3 H 0.3166 0.5574 0.3125
H60_3 H 0.3192 0.5243 0.2636
C45_3 C 0.2625(12) 0.5934(5) 0.2524(8)
H61_3 H 0.3244 0.6086 0.2427
H62_3 H 0.2256 0.6182 0.2717
C46_3 C 0.2048(10) 0.5777(5) 0.2056(6)
H63_3 H 0.1906 0.6076 0.1856
H64_3 H 0.2443 0.5548 0.1854
C47_3 C 0.0081(8) 0.5812(3) 0.1539(3)
H65_3 H 0.0581 0.6063 0.1466
H78_3 H 0.0035 0.6824 0.0181
C63_3 C 0.0491(9) 0.4328(3) 0.2839(4)
H83_3 H 0.0761 0.4355 0.3175
C64_3 C 0.1135(4) 0.40029(19) 0.25305(16)
C65_3 C 0.1077(4) 0.39988(19) 0.20194(17)
C66_3 C 0.1722(5) 0.3717(2) 0.17460(13)
C67_3 C 0.2425(4) 0.3439(2) 0.19838(18)
H84_3 H 0.2866 0.3247 0.1797
C68_3 C 0.2483(4) 0.3444(2) 0.24949(19)
C69_3 C 0.1837(5) 0.3725(2) 0.27683(13)
H85_3 H 0.1877 0.3728 0.3118
C70_3 C 0.1660(10) 0.3729(4) 0.1180(4)
C71_3 C 0.1827(15) 0.4276(5) 0.0994(5)
H86_3 H 0.1332 0.4495 0.1132
H87_3 H 0.1790 0.4284 0.0633
H88_3 H 0.2462 0.4391 0.1100
C72_3 C 0.0695(12) 0.3488(5) 0.1000(4)
H89_3 H 0.0636 0.3152 0.1138
H90_3 H 0.0693 0.3469 0.0640
H91_3 H 0.0153 0.3692 0.1111
C73_3 C 0.2491(12) 0.3400(6) 0.0959(5)
H92_3 H 0.3112 0.3549 0.1042
H93_3 H 0.2422 0.3382 0.0600
H94_3 H 0.2455 0.3064 0.1098
C74_3 C 0.3224(9) 0.3150(3) 0.2755(4)
C75_3 C 0.3654(12) 0.3328(4) 0.3187(5)
H95_3 H 0.3458 0.3639 0.3319
C76_3 C 0.4345(10) 0.3061(4) 0.3418(5)
H96_3 H 0.4670 0.3213 0.3687
C77_3 C 0.4176(9) 0.2417(3) 0.2886(4)
H97_3 H 0.4349 0.2092 0.2779
C78_3 C 0.3522(9) 0.2672(4) 0.2624(4)
H98_3 H 0.3252 0.2522 0.2339
C81_2 C 0.6729(15) 0.2395(9) 0.2768(8)
C82_2 C 0.715(2) 0.2462(11) 0.2236(12)
H102_2 H 0.7115 0.2143 0.2060
H103_2 H 0.7815 0.2572 0.2257
H104_2 H 0.6767 0.2711 0.2058
C83_3 C 0.4759(13) 0.1452(5) 0.4128(7)
C84_3 C 0.4030(15) 0.1109(7) 0.4436(9)
H105_3 H 0.4209 0.1115 0.4785
H106_3 H 0.4062 0.0766 0.4313
H107_3 H 0.3375 0.1236 0.4398
C85_2 C 0.8139(11) 0.1881(5) 0.3965(4)
C86_2 C 0.8683(13) 0.2197(7) 0.3545(8)
H108_2 H 0.8395 0.2125 0.3224
H109_2 H 0.9363 0.2105 0.3540
H110_2 H 0.8621 0.2553 0.3617
O8_2 O 0.6470(9) 0.0535(4) 0.4242(5)
O9_2 O 0.5951(9) 0.0674(4) 0.5001(5)
N4_2 N 0.8125(8) 0.0842(3) 0.4984(4)
C5_2 C 0.9913(12) 0.0207(6) 0.8229(6)
H13_2 H 0.9251 0.0152 0.8349
C6_2 C 0.9908(11) 0.0530(6) 0.7746(7)
H14_2 H 0.9482 0.0368 0.7502
H15_2 H 0.9627 0.0860 0.7824
C36_2 C 0.9487(8) 0.0282(4) 0.5509(4)
C37_2 C 0.9165(11) 0.0731(5) 0.5673(5)
H51_2 H 0.9401 0.0863 0.5974
C38_2 C 0.8481(11) 0.1002(5) 0.5394(6)
H52_2 H 0.8274 0.1316 0.5515
C39_2 C 0.8495(9) 0.0405(4) 0.4810(4)
H53_2 H 0.8283 0.0283 0.4500
C40_2 C 0.9162(9) 0.0137(4) 0.5069(4)
C79_2 C 0.6072(13) 0.0384(5) 0.4620(8)
Cd2_2 Cd 0.90765(7) 0.78380(3) 0.86201(3)
O10_3 O 0.8680(10) 0.8005(6) 0.7830(4)
O11_3 O 0.8127(13) 0.7298(5) 0.8076(4)
O13_2 O 0.9579(8) 0.8337(3) 0.9308(6)
O14_2 O 0.7675(7) 0.8253(3) 0.8895(3)
O15_2 O 0.6445(9) 0.8214(5) 0.9350(4)
C81_3 C 0.8271(15) 0.7605(9) 0.7768(8)
C82_3 C 0.785(2) 0.7538(11) 0.7236(12)
H102_3 H 0.7885 0.7857 0.7060
H103_3 H 0.7185 0.7428 0.7257
H104_3 H 0.8233 0.7289 0.7058
C85_3 C 0.6861(11) 0.8119(5) 0.8965(4)
C86_3 C 0.6317(13) 0.7803(7) 0.8545(8)
H108_3 H 0.6605 0.7875 0.8224
H109_3 H 0.5637 0.7895 0.8540
H110_3 H 0.6379 0.7447 0.8617
Cd3 Cd 0.80793(7) 0.87068(3) 0.95806(3)
N10_2 N 0.8891(9) 0.7225(3) 0.9220(3)
H68_3 H 0.8037 0.5557 0.9923
C55_2 C 0.7323(10) 0.4740(4) 0.9966(4)
H69_2 H 0.6828 0.4998 0.9985
H70_2 H 0.7019 0.4416 0.9910
H71_2 H 0.7761 0.4814 0.9694
C58_3 C 0.8893(9) 0.6448(3) 0.9933(3)
C59_3 C 0.9548(9) 0.6826(4) 0.9936(4)
C60_3 C 0.9534(9) 0.7211(4) 0.9598(4)
H79_3 H 0.9986 0.7473 0.9631
C61_3 C 0.8287(10) 0.6854(4) 0.9205(4)
H80_3 H 0.7853 0.6843 0.8935
C62_3 C 0.8225(10) 0.6476(4) 0.9551(4)
H81_3 H 0.7728 0.6235 0.9528
O8_3 O 0.8530(9) 0.9465(4) 0.9242(5)
N4_3 N 0.6875(8) 0.9158(3) 0.9984(4)
C39_3 C 0.6505(9) 0.9595(4) 0.9810(4)
H53_3 H 0.6717 0.9717 0.9500
C79_3 C 0.8928(13) 0.9616(5) 0.9620(8)
Cd1_2 Cd 0.19207(7) 0.37068(3) 0.54194(3)
Ti1_3 Ti 0.81274(14) 0.55599(5) 0.28086(6)
Ti2_2 Ti 0.94443(13) 0.47851(5) 0.19699(5)
O1_3 O 0.8368(5) 0.62343(19) 0.2681(2)
O2_3 O 0.7232(6) 0.5713(2) 0.3325(2)
O3_2 O 0.9047(5) 0.4900(2) 0.1318(2)
O5_3 O 0.8780(5) 0.5273(2) 0.2286(2)
O6_3 O 0.9103(6) 0.5396(2) 0.3250(2)
O7_2 O 0.8569(5) 0.4303(2) 0.2169(3)
O8_4 O 0.1470(9) 0.4465(4) 0.5758(5)
O9_3 O 0.0951(9) 0.4326(4) 0.4999(5)
N1_2 N 0.7317(6) 0.4855(3) 0.2837(3)
H1_2 H 0.7688 0.4608 0.2638
N2_3 N 0.6911(6) 0.5689(2) 0.2272(3)
H2_3 H 0.6434 0.5914 0.2434
N3_2 N 0.8175(8) 0.8162(3) 0.0223(3)
N4_4 N 0.3125(8) 0.4158(3) 0.5016(4)
C1_2 C 0.6375(9) 0.4898(3) 0.2607(4)
H5_3 H 0.5948 0.5073 0.2847
C2_3 C 0.9238(12) 0.5494(6) 0.3746(4)
H6_3 H 0.8719 0.5341 0.3937
H7_3 H 0.9235 0.5855 0.3801
H8_3 H 0.9856 0.5356 0.3852
C3_3 C 0.6411(7) 0.5208(3) 0.2152(4)
H9_3 H 0.6816 0.5028 0.1906
C4_3 C 0.5380(9) 0.5284(5) 0.1915(5)
H10_2 H 0.4962 0.5459 0.2153
H11_3 H 0.5440 0.5497 0.1618
C5_3 C 0.4913(12) 0.4793(6) 0.1771(6)
H12_2 H 0.5287 0.4626 0.1509
H13_3 H 0.4251 0.4848 0.1651
C6_3 C 0.4908(11) 0.4470(6) 0.2254(7)
H14_3 H 0.4482 0.4632 0.2498
H15_3 H 0.4627 0.4140 0.2176
C7_2 C 0.5905(10) 0.4388(4) 0.2495(6)
H16_2 H 0.5832 0.4196 0.2804
H17_2 H 0.6321 0.4195 0.2269
C8_3 C 0.7243(8) 0.5937(3) 0.1811(4)
H18_3 H 0.6677 0.6002 0.1601
H19_3 H 0.7665 0.5703 0.1631
C9_2 C 0.8505(11) 0.3792(4) 0.2065(8)
H20_2 H 0.8295 0.3612 0.2360
H21_2 H 0.9135 0.3667 0.1962
H22_2 H 0.8039 0.3738 0.1799
C10_3 C 0.8322(5) 0.65529(16) 0.23025(17)
C11_3 C 0.8826(4) 0.69990(18) 0.23205(17)
C12_3 C 0.8800(4) 0.73231(15) 0.1922(2)
H23_3 H 0.9144 0.7628 0.1934
C13_3 C 0.8271(5) 0.72011(18) 0.15048(17)
C14_3 C 0.7767(5) 0.6755(2) 0.14868(18)
H24_3 H 0.7405 0.6672 0.1202
C15_3 C 0.7792(4) 0.64310(16) 0.1886(2)
C16_3 C 0.9442(9) 0.7137(3) 0.2775(4)
H25_3 H 0.9962 0.6427 0.2944
C18_3 C 0.8804(9) 0.7157(4) 0.3242(4)
H28_3 H 0.8397 0.7454 0.3229
H29_3 H 0.9213 0.7171 0.3535
H30_3 H 0.8400 0.6859 0.3256
C19_3 C 0.9978(9) 0.7649(3) 0.2724(4)
H33_3 H 0.9550 0.7893 0.2571
C20_3 C 0.8231(8) 0.7532(3) 0.1062(4)
C21_3 C 0.7579(10) 0.7490(4) 0.0700(5)
H34_3 H 0.7096 0.7243 0.0733
C22_3 C 0.7568(10) 0.7778(4) 0.0296(5)
H35_3 H 0.7108 0.7707 0.0047
C23_3 C 0.8854(11) 0.8209(5) 0.0585(6)
H36_3 H 0.9333 0.8457 0.0546
C24_3 C 0.8880(11) 0.7922(4) 0.0994(5)
H37_3 H 0.9349 0.7986 0.1240
C25_2 C 0.7301(8) 0.4668(3) 0.3339(4)
H38_2 H 0.7948 0.4698 0.3488
H39_2 H 0.7115 0.4313 0.3341
C26_2 C 0.6584(5) 0.49688(17) 0.3637(2)
C27_3 C 0.6596(5) 0.54859(18) 0.3628(2)
C28_3 C 0.5924(5) 0.57537(13) 0.3898(2)
C29_3 C 0.5239(5) 0.55043(19) 0.4177(2)
H40_2 H 0.4779 0.5687 0.4361
C30_2 C 0.5227(5) 0.4987(2) 0.4186(2)
C31_2 C 0.5900(5) 0.47194(13) 0.3916(2)
H41_2 H 0.5891 0.4366 0.3922
C32_3 C 0.5881(13) 0.6341(4) 0.3875(5)
C33_3 C 0.5751(15) 0.6515(4) 0.3333(6)
H42_3 H 0.6369 0.6498 0.3162
H43_3 H 0.5513 0.6858 0.3328
H44_3 H 0.5288 0.6297 0.3167
C34_3 C 0.6813(15) 0.6528(4) 0.4075(6)
H45_3 H 0.6857 0.6447 0.4426
H46_3 H 0.6849 0.6889 0.4031
H47_3 H 0.7344 0.6369 0.3897
C35_3 C 0.5008(16) 0.6543(6) 0.4131(10)
H48_2 H 0.4462 0.6321 0.4071
H49_2 H 0.4862 0.6875 0.4002
H50_3 H 0.5132 0.6564 0.4486
C36_3 C 0.4487(8) 0.4718(4) 0.4491(4)
C37_3 C 0.4165(11) 0.4269(5) 0.4327(5)
H51_3 H 0.4401 0.4137 0.4026
C38_3 C 0.3481(11) 0.3998(5) 0.4606(6)
H52_3 H 0.3274 0.3684 0.4485
C39_4 C 0.3495(9) 0.4595(4) 0.5190(4)
H53_4 H 0.3283 0.4717 0.5500
C40_3 C 0.4162(9) 0.4863(4) 0.4931(4)
H54_2 H 0.4403 0.5162 0.5070
H66_3 H 0.9634 0.5961 0.1781
C48_3 C 0.8916(5) 0.60331(16) 0.02939(17)
C49_3 C 0.9468(5) 0.60877(16) 0.07171(19)
H67_3 H 0.9811 0.6388 0.0773
C50_3 C 0.9517(4) 0.57031(18) 0.10586(17)
C51_3 C 0.9015(5) 0.52639(15) 0.09768(16)
C52_3 C 0.8463(5) 0.52093(17) 0.05536(18)
C53_3 C 0.8414(4) 0.5594(2) 0.02121(16)
C54_2 C 0.7895(9) 0.4726(3) 0.0457(4)
C56_2 C 0.8524(10) 0.4265(4) 0.0451(5)
H72_2 H 0.8939 0.4273 0.0160
H73_2 H 0.8119 0.3968 0.0441
H74_2 H 0.8922 0.4259 0.0749
C57_2 C 0.7137(8) 0.4639(5) 0.0867(4)
H75_2 H 0.7459 0.4618 0.1187
H76_2 H 0.6794 0.4327 0.0802
H77_2 H 0.6679 0.4915 0.0870
H82_2 H 0.9850 0.4170 0.2865
C79_4 C 0.1072(13) 0.4616(5) 0.5380(8)
C80_2 C 0.0615(14) 0.5153(7) 0.5335(9)
H99_2 H 0.0921 0.5333 0.5063
H100_2 H 0.0716 0.5336 0.5644
O16_2 O 0.0421(8) 0.3337(3) 0.5692(6)
O17_2 O 0.2325(7) 0.3253(3) 0.6105(3)
O18_2 O 0.3555(9) 0.3214(5) 0.5650(4)
N9_2 N 0.1825(8) 0.3162(3) 0.4777(3)
Ti1_4 Ti 0.18726(14) 0.05599(5) 0.21914(6)
O1_4 O 0.1632(5) 0.12343(19) 0.2319(2)
O2_4 O 0.2768(6) 0.0713(2) 0.1675(2)
O5_4 O 0.1220(5) 0.0273(2) 0.2714(2)
O6_4 O 0.0897(6) 0.0396(2) 0.1750(2)
N2_4 N 0.3089(6) 0.0689(2) 0.2728(3)
H2_4 H 0.3566 0.0914 0.2566
N7_2 N 0.1109(9) 0.2225(3) 0.5780(3)
H5_4 H 0.4052 0.0073 0.2153
C2_4 C 0.0762(12) 0.0494(6) 0.1254(4)
H6_4 H 0.1281 0.0341 0.1063
H7_4 H 0.0765 0.0855 0.1199
H8_4 H 0.0144 0.0356 0.1148
C3_4 C 0.3589(7) 0.0208(3) 0.2848(4)
H9_4 H 0.3184 0.0028 0.3094
C4_4 C 0.4620(9) 0.0284(5) 0.3085(5)
H10_3 H 0.5038 0.0459 0.2847
H11_4 H 0.4560 0.0497 0.3382
C8_4 C 0.2757(8) 0.0937(3) 0.3189(4)
H18_4 H 0.3323 0.1002 0.3399
H19_4 H 0.2335 0.0703 0.3369
C10_4 C 0.1678(5) 0.15529(16) 0.26975(17)
C11_4 C 0.1174(4) 0.19990(18) 0.26795(17)
C12_4 C 0.1200(4) 0.23231(15) 0.3078(2)
H23_4 H 0.0856 0.2628 0.3066
C13_4 C 0.1729(5) 0.22011(18) 0.34952(17)
C14_4 C 0.2233(5) 0.1755(2) 0.35132(18)
H24_4 H 0.2595 0.1672 0.3798
C15_4 C 0.2208(4) 0.14310(16) 0.3114(2)
C16_4 C 0.0558(9) 0.2137(3) 0.2225(4)
H25_4 H 0.0038 0.1427 0.2056
C18_4 C 0.1196(9) 0.2157(4) 0.1758(4)
H28_4 H 0.1603 0.2454 0.1771
H29_4 H 0.0787 0.2171 0.1465
H30_4 H 0.1600 0.1859 0.1744
C19_4 C 0.0022(9) 0.2649(3) 0.2276(4)
H33_4 H 0.0450 0.2893 0.2429
C20_4 C 0.1769(8) 0.2532(3) 0.3938(4)
C21_4 C 0.2421(10) 0.2490(4) 0.4300(5)
H34_4 H 0.2904 0.2243 0.4267
C22_4 C 0.2432(10) 0.2778(4) 0.4704(5)
H35_4 H 0.2892 0.2707 0.4953
C23_4 C 0.1146(11) 0.3209(5) 0.4415(6)
H36_4 H 0.0667 0.3457 0.4454
C24_4 C 0.1120(11) 0.2922(4) 0.4006(5)
H37_4 H 0.0651 0.2986 0.3760
C27_4 C 0.3404(5) 0.04859(18) 0.1372(2)
C28_4 C 0.4076(5) 0.07537(13) 0.1102(2)
C29_4 C 0.4761(5) 0.05043(19) 0.0823(2)
H40_3 H 0.5221 0.0687 0.0639
C32_4 C 0.4119(13) 0.1341(4) 0.1125(5)
C33_4 C 0.4249(15) 0.1515(4) 0.1667(6)
H42_4 H 0.3631 0.1498 0.1838
H43_4 H 0.4487 0.1858 0.1672
H44_4 H 0.4712 0.1297 0.1833
C34_4 C 0.3187(15) 0.1528(4) 0.0925(6)
H45_4 H 0.3143 0.1447 0.0574
H46_4 H 0.3151 0.1889 0.0969
H47_4 H 0.2656 0.1369 0.1103
C35_4 C 0.4992(16) 0.1543(6) 0.0869(10)
H48_3 H 0.5538 0.1321 0.0929
H49_3 H 0.5138 0.1875 0.0998
H50_4 H 0.4868 0.1564 0.0514
H66_4 H 0.0366 0.0961 0.3219
C48_4 C 0.1084(5) 0.10331(16) 0.47061(17)
C49_4 C 0.0532(5) 0.10877(16) 0.42829(19)
H67_4 H 0.0189 0.1388 0.4227
C50_4 C 0.0483(4) 0.07031(18) 0.39414(17)
C51_4 C 0.0985(5) 0.02639(15) 0.40232(16)
C52_4 C 0.1537(5) 0.02093(17) 0.44464(18)
C53_4 C 0.1586(4) 0.0594(2) 0.47879(16)
H68_4 H 0.1963 0.0557 0.5077
C58_4 C 0.1107(9) 0.1448(3) 0.5067(3)
C59_4 C 0.0452(9) 0.1826(4) 0.5064(4)
C60_4 C 0.0466(9) 0.2211(4) 0.5402(4)
H79_4 H 0.0014 0.2473 0.5369
C61_4 C 0.1713(10) 0.1854(4) 0.5795(4)
H80_4 H 0.2147 0.1843 0.6065
C62_4 C 0.1775(10) 0.1476(4) 0.5449(4)
H81_4 H 0.2272 0.1235 0.5472
Cd5_2 Cd 0.09235(7) 0.28380(3) 0.63799(3)
Ti2_3 Ti 0.05557(13) 0.97851(5) 0.30301(5)
O3_3 O 0.0953(5) 0.9900(2) 0.3682(2)
O7_3 O 0.1431(5) 0.9303(2) 0.2831(3)
O9_4 O 0.9049(9) 0.9326(4) 0.0001(5)
N1_3 N 0.2683(6) 0.9855(3) 0.2163(3)
H1_3 H 0.2312 0.9608 0.2362
C1_3 C 0.3625(9) 0.9898(3) 0.2393(4)
C5_4 C 0.5087(12) 0.9793(6) 0.3229(6)
H12_3 H 0.4713 0.9626 0.3491
H13_4 H 0.5749 0.9848 0.3349
C6_4 C 0.5092(11) 0.9470(6) 0.2746(7)
H14_4 H 0.5518 0.9632 0.2502
H15_4 H 0.5373 0.9140 0.2824
C7_3 C 0.4095(10) 0.9388(4) 0.2505(6)
H16_3 H 0.4168 0.9196 0.2196
H17_3 H 0.3679 0.9195 0.2731
C9_3 C 0.1495(11) 0.8792(4) 0.2935(8)
H20_3 H 0.1705 0.8612 0.2640
H21_3 H 0.0865 0.8667 0.3038
H22_3 H 0.1961 0.8738 0.3201
C25_3 C 0.2699(8) 0.9668(3) 0.1661(4)
H38_3 H 0.2052 0.9698 0.1512
H39_3 H 0.2885 0.9313 0.1659
C26_3 C 0.3416(5) 0.99688(17) 0.1363(2)
C30_3 C 0.4773(5) 0.9987(2) 0.0814(2)
C31_3 C 0.4100(5) 0.97194(13) 0.1084(2)
H41_3 H 0.4109 0.9366 0.1078
C36_4 C 0.5513(8) 0.9718(4) 0.0509(4)
C37_4 C 0.5835(11) 0.9269(5) 0.0673(5)
H51_4 H 0.5599 0.9137 0.0974
C38_4 C 0.6519(11) 0.8998(5) 0.0394(6)
H52_4 H 0.6726 0.8684 0.0515
C40_4 C 0.5838(9) 0.9863(4) 0.0069(4)
C54_3 C 0.2105(9) 0.9726(3) 0.4543(4)
C55_3 C 0.2677(10) 0.9740(4) 0.5034(4)
H69_3 H 0.3172 0.9998 0.5015
H70_3 H 0.2981 0.9416 0.5090
H71_3 H 0.2239 0.9814 0.5306
C56_3 C 0.1476(10) 0.9265(4) 0.4549(5)
H72_3 H 0.1061 0.9273 0.4840
H73_3 H 0.1881 0.8968 0.4559
H74_3 H 0.1078 0.9259 0.4251
C57_3 C 0.2863(8) 0.9639(5) 0.4133(4)
H75_3 H 0.2541 0.9618 0.3813
H76_3 H 0.3206 0.9327 0.4198
H77_3 H 0.3321 0.9915 0.4130
H82_3 H 0.0150 0.9170 0.2135
O10_4 O 0.1320(10) 0.3005(6) 0.7170(4)
O11_4 O 0.1873(13) 0.2298(5) 0.6924(4)
C81_4 C 0.1729(15) 0.2605(9) 0.7232(8)
C82_4 C 0.215(2) 0.2538(11) 0.7764(12)
H102_4 H 0.2115 0.2857 0.7940
H103_4 H 0.2815 0.2428 0.7743
H104_4 H 0.1767 0.2289 0.7942
C85_4 C 0.3139(11) 0.3119(5) 0.6035(4)
C86_4 C 0.3683(13) 0.2803(7) 0.6455(8)
H108_4 H 0.3395 0.2875 0.6776
H109_4 H 0.4363 0.2895 0.6460
H110_4 H 0.3621 0.2447 0.6383
H101_2 H 0.9925 0.5124 0.5272
H101_3 H 0.0075 0.0124 0.9728
H54_3 H 0.5597 0.0162 0.9930
C80_3 C 0.9385(14) 0.0153(7) 0.9665(9)
H99_3 H 0.9079 0.0333 0.9937
H100_3 H 0.9284 0.0336 0.9356
N5_4 N 0.9449(6) 0.0376(3) 0.3227(3)
H3_4 H 0.9004 0.0227 0.3476
H4_4 H 0.9949 0.0042 0.2123
C17_4 C 0.9752(9) 0.1749(4) 0.2144(5)
H26_4 H 0.9331 0.1861 0.1877
H27_4 H 0.9378 0.1713 0.2448
H31_4 H 0.9449 0.2606 0.2481
H32_4 H 0.9831 0.2767 0.1948
C41_4 C 0.8874(8) 0.0524(3) 0.2805(4)
H55_4 H 0.9262 0.0764 0.2606
C42_4 C 0.8690(7) 0.0071(3) 0.2491(4)
C43_4 C 0.8136(11) 0.0224(4) 0.2016(5)
H57_4 H 0.8532 0.0454 0.1816
C44_4 C 0.7202(11) 0.0481(5) 0.2173(7)
H59_4 H 0.6834 0.0574 0.1875
H60_4 H 0.6808 0.0243 0.2364
C45_4 C 0.7375(12) 0.0934(5) 0.2476(8)
H61_4 H 0.6756 0.1086 0.2573
H62_4 H 0.7744 0.1182 0.2283
C46_4 C 0.7952(10) 0.0777(5) 0.2944(6)
H63_4 H 0.8094 0.1076 0.3144
H64_4 H 0.7557 0.0548 0.3146
C47_4 C 0.9919(8) 0.0812(3) 0.3461(3)
H65_4 H 0.9419 0.1063 0.3534
H78_4 H 0.9965 0.1824 0.4819
C55_4 C 0.2323(10) 0.0260(4) 0.0034(4)
H69_4 H 0.1828 0.0002 0.0015
H70_4 H 0.2019 0.0584 0.0090
H71_4 H 0.2761 0.0186 0.0306
Ti2_4 Ti 0.44443(13) 0.02149(5) 0.80301(5)
O3_4 O 0.4047(5) 0.0100(2) 0.8682(2)
O4_4 O 0.5409(5) 0.0716(2) 0.8201(2)
O7_4 O 0.3569(5) 0.0697(2) 0.7831(3)
O12_4 O 0.9758(10) 0.3505(4) 0.6333(6)
N1_4 N 0.2317(6) 0.0145(3) 0.7163(3)
H1_4 H 0.2688 0.0392 0.7362
N6_4 N 0.5384(6) 0.0170(3) 0.7373(3)
N8_4 N 0.9600(8) 0.2397(3) 0.6705(4)
C1_4 C 0.1375(9) 0.0102(3) 0.7393(4)
H12_4 H 0.0287 0.0374 0.8491
C7_4 C 0.0905(10) 0.0612(4) 0.7505(6)
H16_4 H 0.0832 0.0804 0.7196
H17_4 H 0.1321 0.0805 0.7731
C9_4 C 0.3505(11) 0.1208(4) 0.7935(8)
H20_4 H 0.3295 0.1388 0.7640
H21_4 H 0.4135 0.1333 0.8038
H22_4 H 0.3039 0.1262 0.8201
C25_4 C 0.2301(8) 0.0332(3) 0.6661(4)
H38_4 H 0.2948 0.0302 0.6512
H39_4 H 0.2115 0.0687 0.6659
C26_4 C 0.1584(5) 0.00312(17) 0.6363(2)
C30_4 C 0.0227(5) 0.0013(2) 0.5814(2)
C31_4 C 0.0900(5) 0.02806(13) 0.6084(2)
H41_4 H 0.0891 0.0634 0.6078
H56_4 H 0.6713 0.0169 0.7682
H58_4 H 0.7009 0.0074 0.6815
C54_4 C 0.2895(9) 0.0274(3) 0.9543(4)
C56_4 C 0.3524(10) 0.0735(4) 0.9549(5)
H72_4 H 0.3939 0.0727 0.9840
H73_4 H 0.3119 0.1032 0.9559
H74_4 H 0.3922 0.0741 0.9251
C57_4 C 0.2137(8) 0.0361(5) 0.9133(4)
H75_4 H 0.2459 0.0382 0.8813
H76_4 H 0.1794 0.0673 0.9198
H77_4 H 0.1679 0.0085 0.9130
C63_4 C 0.5491(9) 0.0672(3) 0.7161(4)
H82_4 H 0.4850 0.0830 0.7135
H83_4 H 0.5761 0.0645 0.6825
C64_4 C 0.6135(4) 0.09971(19) 0.74695(16)
C65_4 C 0.6077(4) 0.10012(19) 0.79806(17)
C66_4 C 0.6722(5) 0.1283(2) 0.82540(13)
C67_4 C 0.7425(4) 0.1561(2) 0.80162(18)
H84_4 H 0.7866 0.1753 0.8203
C68_4 C 0.7483(4) 0.1556(2) 0.75051(19)
C69_4 C 0.6837(5) 0.1275(2) 0.72317(13)
H85_4 H 0.6877 0.1272 0.6882
C70_4 C 0.6660(10) 0.1271(4) 0.8820(4)
C71_4 C 0.6827(15) 0.0724(5) 0.9006(5)
H86_4 H 0.6332 0.0505 0.8868
H87_4 H 0.6790 0.0716 0.9367
H88_4 H 0.7462 0.0609 0.8900
C72_4 C 0.5695(12) 0.1512(5) 0.9000(4)
H89_4 H 0.5636 0.1848 0.8862
H90_4 H 0.5693 0.1531 0.9360
H91_4 H 0.5153 0.1308 0.8889
C73_4 C 0.7491(12) 0.1600(6) 0.9041(5)
H92_4 H 0.8112 0.1451 0.8958
H93_4 H 0.7422 0.1618 0.9400
H94_4 H 0.7455 0.1936 0.8902
C74_4 C 0.8224(9) 0.1850(3) 0.7245(4)
C75_4 C 0.8654(12) 0.1672(4) 0.6813(5)
H95_4 H 0.8458 0.1361 0.6681
C76_4 C 0.9345(10) 0.1939(4) 0.6582(5)
H96_4 H 0.9670 0.1787 0.6313
C77_4 C 0.9176(9) 0.2583(3) 0.7114(4)
H97_4 H 0.9349 0.2908 0.7221
C78_4 C 0.8522(9) 0.2328(4) 0.7376(4)
H98_4 H 0.8252 0.2478 0.7661
C83_4 C 0.9759(13) 0.3548(5) 0.5872(7)
C84_4 C 0.9030(15) 0.3891(7) 0.5564(9)
H105_4 H 0.9209 0.3885 0.5215
H106_4 H 0.9062 0.4234 0.5687
H107_4 H 0.8375 0.3764 0.5602
H10_4 H 0.9962 0.9541 0.7847
H40_4 H 0.9779 0.9313 0.5639
H48_4 H 0.9462 0.8679 0.5929
H49_4 H 0.9862 0.8125 0.5998
H54_4 H 0.9403 0.9838 0.4930
C80_4 C 0.5615(14) 0.9847(7) 0.4665(9)
H99_4 H 0.5921 0.9667 0.4937
H100_4 H 0.5716 0.9664 0.4356
H101_4 H 0.4925 0.9876 0.4728
loop_
_geom_bond_atom_site_label_1
_geom_bond_atom_site_label_2
_geom_bond_site_symmetry_1
_geom_bond_site_symmetry_2
Cd1 O8 1_555 1_555
O8 C79 1_555 1_555
N4 Cd1 1_555 1_555
C39 N4 1_555 1_555
H53 C39 1_555 1_555
C80 C79 1_555 1_555
H99 C80 1_555 1_555
H100 C80 1_555 1_555
H101 C80 1_555 1_555
O16 Cd1 1_555 1_555
O17 Cd1 1_555 1_555
O18 Cd1 1_555 1_555
Cd2 O10 1_555 1_555
O10 C81 1_555 1_555
O11 Cd2 1_555 1_555
O12 Cd2 1_555 1_555
O16 Cd2 1_555 1_555
O17 Cd2 1_555 1_555
O18 C85 1_555 1_555
N8 Cd2 1_555 1_555
C63 N6 1_555 1_555
H83 C63 1_555 1_555
C64 C63 1_555 1_555
C65 O4 1_555 1_555
C66 C65 1_555 1_555
C67 C66 1_555 1_555
H84 C67 1_555 1_555
C68 C67 1_555 1_555
C69 C64 1_555 1_555
H85 C69 1_555 1_555
C70 C66 1_555 1_555
C71 C70 1_555 1_555
H86 C71 1_555 1_555
H87 C71 1_555 1_555
H88 C71 1_555 1_555
C72 C70 1_555 1_555
H89 C72 1_555 1_555
H90 C72 1_555 1_555
H91 C72 1_555 1_555
C73 C70 1_555 1_555
H92 C73 1_555 1_555
H93 C73 1_555 1_555
H94 C73 1_555 1_555
C74 C68 1_555 1_555
C75 C74 1_555 1_555
H95 C75 1_555 1_555
C76 N8 1_555 1_555
H96 C76 1_555 1_555
C77 N8 1_555 1_555
H97 C77 1_555 1_555
C78 C74 1_555 1_555
H98 C78 1_555 1_555
C81 O11 1_555 1_555
C82 C81 1_555 1_555
H102 C82 1_555 1_555
H103 C82 1_555 1_555
H104 C82 1_555 1_555
C83 O12 1_555 1_555
C84 C83 1_555 1_555
H105 C84 1_555 1_555
H106 C84 1_555 1_555
H107 C84 1_555 1_555
C85 O17 1_555 1_555
C86 C85 1_555 1_555
H108 C86 1_555 1_555
H109 C86 1_555 1_555
H110 C86 1_555 1_555
N10 Cd2 1_555 1_555
O16 C83 1_555 1_555
C64 C65 1_555 1_555
C68 C69 1_555 1_555
C75 C76 1_555 1_555
C77 C78 1_555 1_555
N10 C60 1_555 1_555
C59 C58 1_555 1_555
C60 C59 1_555 1_555
H79 C60 1_555 1_555
C61 N10 1_555 1_555
H80 C61 1_555 1_555
C62 C58 1_555 1_555
H81 C62 1_555 1_555
C61 C62 1_555 1_555
H13 C5 1_555 1_555
C6 C5 1_555 1_555
H14 C6 1_555 1_555
H15 C6 1_555 1_555
C37 C36 1_555 1_555
H51 C37 1_555 1_555
H52 C38 1_555 1_555
C40 C36 1_555 1_555
C37 C38 1_555 1_555
Ti1 O1 1_555 1_555
O1 C10 1_555 1_555
O2 Ti1 1_555 1_555
O5 Ti1 1_555 1_555
O6 Ti1 1_555 1_555
N2 Ti1 1_555 1_555
H2 N2 1_555 1_555
N9 C22 1_555 1_555
H3 N5 1_555 1_555
C2 O6 1_555 1_555
H6 C2 1_555 1_555
H7 C2 1_555 1_555
H8 C2 1_555 1_555
C3 N2 1_555 1_555
H9 C3 1_555 1_555
C4 C3 1_555 1_555
H11 C4 1_555 1_555
C8 N2 1_555 1_555
H18 C8 1_555 1_555
H19 C8 1_555 1_555
C10 C11 1_555 1_555
C11 C12 1_555 1_555
C12 H23 1_555 1_555
C13 C12 1_555 1_555
C14 C13 1_555 1_555
H24 C14 1_555 1_555
C15 C8 1_555 1_555
C16 C11 1_555 1_555
C17 C16 1_555 1_555
H25 C17 1_555 1_555
H26 C17 1_555 1_555
H27 C17 1_555 1_555
C18 C16 1_555 1_555
H28 C18 1_555 1_555
H29 C18 1_555 1_555
H30 C18 1_555 1_555
C19 C16 1_555 1_555
H31 C19 1_555 1_555
H32 C19 1_555 1_555
H33 C19 1_555 1_555
C20 C13 1_555 1_555
C21 C20 1_555 1_555
H34 C21 1_555 1_555
C22 C21 1_555 1_555
H35 C22 1_555 1_555
C23 N9 1_555 1_555
H36 C23 1_555 1_555
C24 C20 1_555 1_555
H37 C24 1_555 1_555
C27 O2 1_555 1_555
C28 C27 1_555 1_555
C29 C28 1_555 1_555
C32 C28 1_555 1_555
C33 C32 1_555 1_555
H42 C33 1_555 1_555
H43 C33 1_555 1_555
H44 C33 1_555 1_555
C34 C32 1_555 1_555
H45 C34 1_555 1_555
H46 C34 1_555 1_555
H47 C34 1_555 1_555
C35 C32 1_555 1_555
H50 C35 1_555 1_555
C41 N5 1_555 1_555
H55 C41 1_555 1_555
C43 C42 1_555 1_555
H57 C43 1_555 1_555
C44 C43 1_555 1_555
H59 C44 1_555 1_555
H60 C44 1_555 1_555
C45 C44 1_555 1_555
H61 C45 1_555 1_555
H62 C45 1_555 1_555
C46 C41 1_555 1_555
H63 C46 1_555 1_555
H64 C46 1_555 1_555
C47 N5 1_555 1_555
H65 C47 1_555 1_555
H66 C47 1_555 1_555
C48 C49 1_555 1_555
C49 H67 1_555 1_555
C50 C47 1_555 1_555
C51 C50 1_555 1_555
C52 C51 1_555 1_555
C53 C48 1_555 1_555
C10 C15 1_555 1_555
C14 C15 1_555 1_555
C23 C24 1_555 1_555
C41 C42 1_555 1_555
C45 C46 1_555 1_555
C49 C50 1_555 1_555
C52 C53 1_555 1_555
Ti1_2 O1_2 1_555 1_555
Ti2 O3 1_555 1_555
O1_2 C10_2 1_555 1_555
O2_2 Ti1_2 1_555 1_555
O3 C51_2 1_555 1_555
O4_2 Ti2 1_555 1_555
O5_2 Ti1_2 1_555 1_555
O6_2 Ti1_2 1_555 1_555
O7 Ti2 1_555 1_555
N1 Ti1_2 1_555 1_555
H1 N1 1_555 1_555
N2_2 Ti1_2 1_555 1_555
H2_2 N2_2 1_555 1_555
N3 C22_2 1_555 1_555
N5_2 Ti2 1_555 1_555
H3_2 N5_2 1_555 1_555
N6_2 Ti2 1_555 1_555
H4_2 N6_2 1_555 1_555
N7 C60_2 1_555 1_555
C1 N1 1_555 1_555
H5_2 C1 1_555 1_555
C2_2 O6_2 1_555 1_555
H6_2 C2_2 1_555 1_555
H7_2 C2_2 1_555 1_555
H8_2 C2_2 1_555 1_555
C3_2 N2_2 1_555 1_555
H9_2 C3_2 1_555 1_555
C4_2 C3_2 1_555 1_555
H11_2 C4_2 1_555 1_555
C7 C1 1_555 1_555
H16 C7 1_555 1_555
H17 C7 1_555 1_555
C8_2 N2_2 1_555 1_555
H18_2 C8_2 1_555 1_555
H19_2 C8_2 1_555 1_555
C9 O7 1_555 1_555
H20 C9 1_555 1_555
H21 C9 1_555 1_555
H22 C9 1_555 1_555
C10_2 C11_2 1_555 1_555
C11_2 C12_2 1_555 1_555
C12_2 H23_2 1_555 1_555
C13_2 C12_2 1_555 1_555
C14_2 C13_2 1_555 1_555
H24_2 C14_2 1_555 1_555
C15_2 C8_2 1_555 1_555
C16_2 C11_2 1_555 1_555
C17_2 C16_2 1_555 1_555
H25_2 C17_2 1_555 1_555
H26_2 C17_2 1_555 1_555
H27_2 C17_2 1_555 1_555
C18_2 C16_2 1_555 1_555
H28_2 C18_2 1_555 1_555
H29_2 C18_2 1_555 1_555
H30_2 C18_2 1_555 1_555
C19_2 C16_2 1_555 1_555
H31_2 C19_2 1_555 1_555
H32_2 C19_2 1_555 1_555
H33_2 C19_2 1_555 1_555
C20_2 C13_2 1_555 1_555
C21_2 C20_2 1_555 1_555
H34_2 C21_2 1_555 1_555
C22_2 C21_2 1_555 1_555
H35_2 C22_2 1_555 1_555
C23_2 N3 1_555 1_555
H36_2 C23_2 1_555 1_555
C24_2 C20_2 1_555 1_555
H37_2 C24_2 1_555 1_555
C25 N1 1_555 1_555
H38 C25 1_555 1_555
H39 C25 1_555 1_555
C26 C25 1_555 1_555
C27_2 O2_2 1_555 1_555
C28_2 C27_2 1_555 1_555
C29_2 C28_2 1_555 1_555
C30 C29_2 1_555 1_555
C31 C26 1_555 1_555
H41 C31 1_555 1_555
C32_2 C28_2 1_555 1_555
C33_2 C32_2 1_555 1_555
H42_2 C33_2 1_555 1_555
H43_2 C33_2 1_555 1_555
H44_2 C33_2 1_555 1_555
C34_2 C32_2 1_555 1_555
H45_2 C34_2 1_555 1_555
H46_2 C34_2 1_555 1_555
H47_2 C34_2 1_555 1_555
C35_2 C32_2 1_555 1_555
H50_2 C35_2 1_555 1_555
C41_2 N5_2 1_555 1_555
H55_2 C41_2 1_555 1_555
C42_2 N6_2 1_555 1_555
H56_2 C42_2 1_555 1_555
C43_2 C42_2 1_555 1_555
H57_2 C43_2 1_555 1_555
H58_2 C43_2 1_555 1_555
C44_2 C43_2 1_555 1_555
H59_2 C44_2 1_555 1_555
H60_2 C44_2 1_555 1_555
C45_2 C44_2 1_555 1_555
H61_2 C45_2 1_555 1_555
H62_2 C45_2 1_555 1_555
C46_2 C41_2 1_555 1_555
H63_2 C46_2 1_555 1_555
H64_2 C46_2 1_555 1_555
C47_2 N5_2 1_555 1_555
H65_2 C47_2 1_555 1_555
H66_2 C47_2 1_555 1_555
C48_2 C49_2 1_555 1_555
C49_2 H67_2 1_555 1_555
C50_2 C47_2 1_555 1_555
C51_2 C50_2 1_555 1_555
C52_2 C51_2 1_555 1_555
C53_2 C48_2 1_555 1_555
H68_2 C53_2 1_555 1_555
C54 C52_2 1_555 1_555
C55 C54 1_555 1_555
H69 C55 1_555 1_555
H70 C55 1_555 1_555
H71 C55 1_555 1_555
C56 C54 1_555 1_555
H72 C56 1_555 1_555
H73 C56 1_555 1_555
H74 C56 1_555 1_555
C57 C54 1_555 1_555
H75 C57 1_555 1_555
H76 C57 1_555 1_555
H77 C57 1_555 1_555
C58_2 C48_2 1_555 1_555
C59_2 C58_2 1_555 1_555
H78_2 C59_2 1_555 1_555
C60_2 C59_2 1_555 1_555
H79_2 C60_2 1_555 1_555
C61_2 N7 1_555 1_555
H80_2 C61_2 1_555 1_555
C62_2 C58_2 1_555 1_555
H81_2 C62_2 1_555 1_555
C63_2 N6_2 1_555 1_555
H82 C63_2 1_555 1_555
H83_2 C63_2 1_555 1_555
C64_2 C63_2 1_555 1_555
C65_2 O4_2 1_555 1_555
C66_2 C65_2 1_555 1_555
C67_2 C66_2 1_555 1_555
H84_2 C67_2 1_555 1_555
C68_2 C67_2 1_555 1_555
C69_2 C64_2 1_555 1_555
H85_2 C69_2 1_555 1_555
C70_2 C66_2 1_555 1_555
C71_2 C70_2 1_555 1_555
H86_2 C71_2 1_555 1_555
H87_2 C71_2 1_555 1_555
H88_2 C71_2 1_555 1_555
C72_2 C70_2 1_555 1_555
H89_2 C72_2 1_555 1_555
H90_2 C72_2 1_555 1_555
H91_2 C72_2 1_555 1_555
C73_2 C70_2 1_555 1_555
H92_2 C73_2 1_555 1_555
H93_2 C73_2 1_555 1_555
H94_2 C73_2 1_555 1_555
C74_2 C68_2 1_555 1_555
C75_2 C74_2 1_555 1_555
H95_2 C75_2 1_555 1_555
C76_2 N8_2 1_555 1_555
H96_2 C76_2 1_555 1_555
C77_2 N8_2 1_555 1_555
H97_2 C77_2 1_555 1_555
C78_2 C74_2 1_555 1_555
H98_2 C78_2 1_555 1_555
C83_2 O12_2 1_555 1_555
C84_2 C83_2 1_555 1_555
H105_2 C84_2 1_555 1_555
H106_2 C84_2 1_555 1_555
H107_2 C84_2 1_555 1_555
Cd4 N3 1_555 1_555
Cd5 N7 1_555 1_555
Ti2 O5_2 1_555 1_555
C1 C3_2 1_555 1_555
C10_2 C15_2 1_555 1_555
C14_2 C15_2 1_555 1_555
C23_2 C24_2 1_555 1_555
C26 C27_2 1_555 1_555
C30 C31 1_555 1_555
C41_2 C42_2 1_555 1_555
C45_2 C46_2 1_555 1_555
C49_2 C50_2 1_555 1_555
C52_2 C53_2 1_555 1_555
C61_2 C62_2 1_555 1_555
C64_2 C65_2 1_555 1_555
C68_2 C69_2 1_555 1_555
C75_2 C76_2 1_555 1_555
C77_2 C78_2 1_555 1_555
Cd5 O10_2 1_555 1_555
O10_2 C81_2 1_555 1_555
O11_2 Cd5 1_555 1_555
O12_3 Cd5 1_555 1_555
O13 Cd5 1_555 1_555
O14 Cd5 1_555 1_555
O15 C85_2 1_555 1_555
H3_3 N5_3 1_555 1_555
H4_3 N6_3 1_555 1_555
N8_3 Cd5 1_555 1_555
H26_3 C17_3 1_555 1_555
H27_3 C17_3 1_555 1_555
C41_3 N5_3 1_555 1_555
H55_3 C41_3 1_555 1_555
C42_3 N6_3 1_555 1_555
H56_3 C42_3 1_555 1_555
C43_3 C42_3 1_555 1_555
H57_3 C43_3 1_555 1_555
H58_3 C43_3 1_555 1_555
C44_3 C43_3 1_555 1_555
H59_3 C44_3 1_555 1_555
H60_3 C44_3 1_555 1_555
C45_3 C44_3 1_555 1_555
H61_3 C45_3 1_555 1_555
H62_3 C45_3 1_555 1_555
C46_3 C41_3 1_555 1_555
H63_3 C46_3 1_555 1_555
H64_3 C46_3 1_555 1_555
C47_3 N5_3 1_555 1_555
H65_3 C47_3 1_555 1_555
C63_3 N6_3 1_555 1_555
H83_3 C63_3 1_555 1_555
C64_3 C63_3 1_555 1_555
C65_3 O4_3 1_555 1_555
C66_3 C65_3 1_555 1_555
C67_3 C66_3 1_555 1_555
H84_3 C67_3 1_555 1_555
C68_3 C67_3 1_555 1_555
C69_3 C64_3 1_555 1_555
H85_3 C69_3 1_555 1_555
C70_3 C66_3 1_555 1_555
C71_3 C70_3 1_555 1_555
H86_3 C71_3 1_555 1_555
H87_3 C71_3 1_555 1_555
H88_3 C71_3 1_555 1_555
C72_3 C70_3 1_555 1_555
H89_3 C72_3 1_555 1_555
H90_3 C72_3 1_555 1_555
H91_3 C72_3 1_555 1_555
C73_3 C70_3 1_555 1_555
H92_3 C73_3 1_555 1_555
H93_3 C73_3 1_555 1_555
H94_3 C73_3 1_555 1_555
C74_3 C68_3 1_555 1_555
C75_3 C74_3 1_555 1_555
H95_3 C75_3 1_555 1_555
C76_3 N8_3 1_555 1_555
H96_3 C76_3 1_555 1_555
C77_3 N8_3 1_555 1_555
H97_3 C77_3 1_555 1_555
C78_3 C74_3 1_555 1_555
H98_3 C78_3 1_555 1_555
C81_2 O11_2 1_555 1_555
C82_2 C81_2 1_555 1_555
H102_2 C82_2 1_555 1_555
H103_2 C82_2 1_555 1_555
H104_2 C82_2 1_555 1_555
C83_3 O12_3 1_555 1_555
C84_3 C83_3 1_555 1_555
H105_3 C84_3 1_555 1_555
H106_3 C84_3 1_555 1_555
H107_3 C84_3 1_555 1_555
C85_2 O14 1_555 1_555
C86_2 C85_2 1_555 1_555
H108_2 C86_2 1_555 1_555
H109_2 C86_2 1_555 1_555
H110_2 C86_2 1_555 1_555
Cd4 O13 1_555 1_555
O13 C83_3 1_555 1_555
O14 Cd4 1_555 1_555
O15 Cd4 1_555 1_555
C41_3 C42_3 1_555 1_555
C45_3 C46_3 1_555 1_555
C64_3 C65_3 1_555 1_555
C68_3 C69_3 1_555 1_555
C75_3 C76_3 1_555 1_555
C77_3 C78_3 1_555 1_555
Cd4 O8_2 1_555 1_555
O8_2 C79_2 1_555 1_555
O9_2 Cd4 1_555 1_555
N4_2 Cd4 1_555 1_555
H13_2 C5_2 1_555 1_555
C6_2 C5_2 1_555 1_555
H14_2 C6_2 1_555 1_555
H15_2 C6_2 1_555 1_555
C37_2 C36_2 1_555 1_555
H51_2 C37_2 1_555 1_555
C38_2 N4_2 1_555 1_555
H52_2 C38_2 1_555 1_555
C39_2 N4_2 1_555 1_555
H53_2 C39_2 1_555 1_555
C40_2 C36_2 1_555 1_555
C79_2 O9_2 1_555 1_555
C37_2 C38_2 1_555 1_555
C39_2 C40_2 1_555 1_555
Cd2_2 O10_3 1_555 1_555
O10_3 C81_3 1_555 1_555
O11_3 Cd2_2 1_555 1_555
O13_2 Cd2_2 1_555 1_555
O14_2 Cd2_2 1_555 1_555
O15_2 C85_3 1_555 1_555
C81_3 O11_3 1_555 1_555
C82_3 C81_3 1_555 1_555
H102_3 C82_3 1_555 1_555
H103_3 C82_3 1_555 1_555
H104_3 C82_3 1_555 1_555
C85_3 O14_2 1_555 1_555
C86_3 C85_3 1_555 1_555
H108_3 C86_3 1_555 1_555
H109_3 C86_3 1_555 1_555
H110_3 C86_3 1_555 1_555
Cd3 O13_2 1_555 1_555
N10_2 Cd2_2 1_555 1_555
O14_2 Cd3 1_555 1_555
O15_2 Cd3 1_555 1_555
N10_2 C60_3 1_555 1_555
H69_2 C55_2 1_555 1_555
H70_2 C55_2 1_555 1_555
H71_2 C55_2 1_555 1_555
C59_3 C58_3 1_555 1_555
C60_3 C59_3 1_555 1_555
H79_3 C60_3 1_555 1_555
C61_3 N10_2 1_555 1_555
H80_3 C61_3 1_555 1_555
C62_3 C58_3 1_555 1_555
H81_3 C62_3 1_555 1_555
C61_3 C62_3 1_555 1_555
Cd3 O8_3 1_555 1_555
O8_3 C79_3 1_555 1_555
N4_3 Cd3 1_555 1_555
C39_3 N4_3 1_555 1_555
H53_3 C39_3 1_555 1_555
Cd1_2 O8_4 1_555 1_555
Ti1_3 O1_3 1_555 1_555
Ti2_2 O3_2 1_555 1_555
O1_3 C10_3 1_555 1_555
O2_3 Ti1_3 1_555 1_555
O3_2 C51_3 1_555 1_555
O5_3 Ti1_3 1_555 1_555
O6_3 Ti1_3 1_555 1_555
O7_2 Ti2_2 1_555 1_555
O8_4 C79_4 1_555 1_555
O9_3 Cd1_2 1_555 1_555
N1_2 Ti1_3 1_555 1_555
H1_2 N1_2 1_555 1_555
N2_3 Ti1_3 1_555 1_555
H2_3 N2_3 1_555 1_555
N3_2 C22_3 1_555 1_555
N4_4 Cd1_2 1_555 1_555
C1_2 N1_2 1_555 1_555
H5_3 C1_2 1_555 1_555
C2_3 O6_3 1_555 1_555
H6_3 C2_3 1_555 1_555
H7_3 C2_3 1_555 1_555
H8_3 C2_3 1_555 1_555
C3_3 N2_3 1_555 1_555
H9_3 C3_3 1_555 1_555
C4_3 C3_3 1_555 1_555
H10_2 C4_3 1_555 1_555
H11_3 C4_3 1_555 1_555
C5_3 C4_3 1_555 1_555
H12_2 C5_3 1_555 1_555
H13_3 C5_3 1_555 1_555
C6_3 C5_3 1_555 1_555
H14_3 C6_3 1_555 1_555
H15_3 C6_3 1_555 1_555
C7_2 C1_2 1_555 1_555
H16_2 C7_2 1_555 1_555
H17_2 C7_2 1_555 1_555
C8_3 N2_3 1_555 1_555
H18_3 C8_3 1_555 1_555
H19_3 C8_3 1_555 1_555
C9_2 O7_2 1_555 1_555
H20_2 C9_2 1_555 1_555
H21_2 C9_2 1_555 1_555
H22_2 C9_2 1_555 1_555
C10_3 C11_3 1_555 1_555
C11_3 C12_3 1_555 1_555
C12_3 H23_3 1_555 1_555
C13_3 C12_3 1_555 1_555
C14_3 C13_3 1_555 1_555
H24_3 C14_3 1_555 1_555
C15_3 C8_3 1_555 1_555
C16_3 C11_3 1_555 1_555
C18_3 C16_3 1_555 1_555
H28_3 C18_3 1_555 1_555
H29_3 C18_3 1_555 1_555
H30_3 C18_3 1_555 1_555
C19_3 C16_3 1_555 1_555
H33_3 C19_3 1_555 1_555
C20_3 C13_3 1_555 1_555
C21_3 C20_3 1_555 1_555
H34_3 C21_3 1_555 1_555
C22_3 C21_3 1_555 1_555
H35_3 C22_3 1_555 1_555
C23_3 N3_2 1_555 1_555
H36_3 C23_3 1_555 1_555
C24_3 C20_3 1_555 1_555
H37_3 C24_3 1_555 1_555
C25_2 N1_2 1_555 1_555
H38_2 C25_2 1_555 1_555
H39_2 C25_2 1_555 1_555
C26_2 C25_2 1_555 1_555
C27_3 O2_3 1_555 1_555
C28_3 C27_3 1_555 1_555
C29_3 C28_3 1_555 1_555
H40_2 C29_3 1_555 1_555
C30_2 C29_3 1_555 1_555
C31_2 C26_2 1_555 1_555
H41_2 C31_2 1_555 1_555
C32_3 C28_3 1_555 1_555
C33_3 C32_3 1_555 1_555
H42_3 C33_3 1_555 1_555
H43_3 C33_3 1_555 1_555
H44_3 C33_3 1_555 1_555
C34_3 C32_3 1_555 1_555
H45_3 C34_3 1_555 1_555
H46_3 C34_3 1_555 1_555
H47_3 C34_3 1_555 1_555
C35_3 C32_3 1_555 1_555
H48_2 C35_3 1_555 1_555
H49_2 C35_3 1_555 1_555
H50_3 C35_3 1_555 1_555
C36_3 C30_2 1_555 1_555
C37_3 C36_3 1_555 1_555
H51_3 C37_3 1_555 1_555
C38_3 N4_4 1_555 1_555
H52_3 C38_3 1_555 1_555
C39_4 N4_4 1_555 1_555
H53_4 C39_4 1_555 1_555
C40_3 C36_3 1_555 1_555
H54_2 C40_3 1_555 1_555
C48_3 C49_3 1_555 1_555
C49_3 H67_3 1_555 1_555
C51_3 C50_3 1_555 1_555
C52_3 C51_3 1_555 1_555
C53_3 C48_3 1_555 1_555
C54_2 C52_3 1_555 1_555
C56_2 C54_2 1_555 1_555
H72_2 C56_2 1_555 1_555
H73_2 C56_2 1_555 1_555
H74_2 C56_2 1_555 1_555
C57_2 C54_2 1_555 1_555
H75_2 C57_2 1_555 1_555
H76_2 C57_2 1_555 1_555
H77_2 C57_2 1_555 1_555
C79_4 O9_3 1_555 1_555
C80_2 C79_4 1_555 1_555
H99_2 C80_2 1_555 1_555
H100_2 C80_2 1_555 1_555
O16_2 Cd1_2 1_555 1_555
O17_2 Cd1_2 1_555 1_555
O18_2 Cd1_2 1_555 1_555
N9_2 Cd1_2 1_555 1_555
Ti2_2 O5_3 1_555 1_555
C1_2 C3_3 1_555 1_555
C6_3 C7_2 1_555 1_555
C10_3 C15_3 1_555 1_555
C14_3 C15_3 1_555 1_555
C23_3 C24_3 1_555 1_555
C26_2 C27_3 1_555 1_555
C30_2 C31_2 1_555 1_555
C37_3 C38_3 1_555 1_555
C39_4 C40_3 1_555 1_555
C49_3 C50_3 1_555 1_555
C52_3 C53_3 1_555 1_555
Ti1_4 O1_4 1_555 1_555
O1_4 C10_4 1_555 1_555
O2_4 Ti1_4 1_555 1_555
O5_4 Ti1_4 1_555 1_555
O6_4 Ti1_4 1_555 1_555
N2_4 Ti1_4 1_555 1_555
H2_4 N2_4 1_555 1_555
N9_2 C22_4 1_555 1_555
N7_2 C60_4 1_555 1_555
C2_4 O6_4 1_555 1_555
H6_4 C2_4 1_555 1_555
H7_4 C2_4 1_555 1_555
H8_4 C2_4 1_555 1_555
C3_4 N2_4 1_555 1_555
H9_4 C3_4 1_555 1_555
C4_4 C3_4 1_555 1_555
H10_3 C4_4 1_555 1_555
H11_4 C4_4 1_555 1_555
C8_4 N2_4 1_555 1_555
H18_4 C8_4 1_555 1_555
H19_4 C8_4 1_555 1_555
C10_4 C11_4 1_555 1_555
C11_4 C12_4 1_555 1_555
C12_4 H23_4 1_555 1_555
C13_4 C12_4 1_555 1_555
C14_4 C13_4 1_555 1_555
H24_4 C14_4 1_555 1_555
C15_4 C8_4 1_555 1_555
C16_4 C11_4 1_555 1_555
C18_4 C16_4 1_555 1_555
H28_4 C18_4 1_555 1_555
H29_4 C18_4 1_555 1_555
H30_4 C18_4 1_555 1_555
C19_4 C16_4 1_555 1_555
H33_4 C19_4 1_555 1_555
C20_4 C13_4 1_555 1_555
C21_4 C20_4 1_555 1_555
H34_4 C21_4 1_555 1_555
C22_4 C21_4 1_555 1_555
H35_4 C22_4 1_555 1_555
C23_4 N9_2 1_555 1_555
H36_4 C23_4 1_555 1_555
C24_4 C20_4 1_555 1_555
H37_4 C24_4 1_555 1_555
C27_4 O2_4 1_555 1_555
C28_4 C27_4 1_555 1_555
C29_4 C28_4 1_555 1_555
H40_3 C29_4 1_555 1_555
C32_4 C28_4 1_555 1_555
C33_4 C32_4 1_555 1_555
H42_4 C33_4 1_555 1_555
H43_4 C33_4 1_555 1_555
H44_4 C33_4 1_555 1_555
C34_4 C32_4 1_555 1_555
H45_4 C34_4 1_555 1_555
H46_4 C34_4 1_555 1_555
H47_4 C34_4 1_555 1_555
C35_4 C32_4 1_555 1_555
H48_3 C35_4 1_555 1_555
H49_3 C35_4 1_555 1_555
H50_4 C35_4 1_555 1_555
C48_4 C49_4 1_555 1_555
C49_4 H67_4 1_555 1_555
C51_4 C50_4 1_555 1_555
C52_4 C51_4 1_555 1_555
C53_4 C48_4 1_555 1_555
H68_4 C53_4 1_555 1_555
C58_4 C48_4 1_555 1_555
C59_4 C58_4 1_555 1_555
C60_4 C59_4 1_555 1_555
H79_4 C60_4 1_555 1_555
C61_4 N7_2 1_555 1_555
H80_4 C61_4 1_555 1_555
C62_4 C58_4 1_555 1_555
H81_4 C62_4 1_555 1_555
Cd5_2 N7_2 1_555 1_555
C10_4 C15_4 1_555 1_555
C14_4 C15_4 1_555 1_555
C23_4 C24_4 1_555 1_555
C49_4 C50_4 1_555 1_555
C52_4 C53_4 1_555 1_555
C61_4 C62_4 1_555 1_555
Ti2_3 O3_3 1_555 1_555
O7_3 Ti2_3 1_555 1_555
H1_3 N1_3 1_555 1_555
C1_3 N1_3 1_555 1_555
H12_3 C5_4 1_555 1_555
H13_4 C5_4 1_555 1_555
C6_4 C5_4 1_555 1_555
H14_4 C6_4 1_555 1_555
H15_4 C6_4 1_555 1_555
C7_3 C1_3 1_555 1_555
H16_3 C7_3 1_555 1_555
H17_3 C7_3 1_555 1_555
C9_3 O7_3 1_555 1_555
H20_3 C9_3 1_555 1_555
H21_3 C9_3 1_555 1_555
H22_3 C9_3 1_555 1_555
C25_3 N1_3 1_555 1_555
H38_3 C25_3 1_555 1_555
H39_3 C25_3 1_555 1_555
C26_3 C25_3 1_555 1_555
C31_3 C26_3 1_555 1_555
H41_3 C31_3 1_555 1_555
C36_4 C30_3 1_555 1_555
C37_4 C36_4 1_555 1_555
H51_4 C37_4 1_555 1_555
H52_4 C38_4 1_555 1_555
C40_4 C36_4 1_555 1_555
C55_3 C54_3 1_555 1_555
H69_3 C55_3 1_555 1_555
H70_3 C55_3 1_555 1_555
H71_3 C55_3 1_555 1_555
C56_3 C54_3 1_555 1_555
H72_3 C56_3 1_555 1_555
H73_3 C56_3 1_555 1_555
H74_3 C56_3 1_555 1_555
C57_3 C54_3 1_555 1_555
H75_3 C57_3 1_555 1_555
H76_3 C57_3 1_555 1_555
H77_3 C57_3 1_555 1_555
C6_4 C7_3 1_555 1_555
C30_3 C31_3 1_555 1_555
C37_4 C38_4 1_555 1_555
Cd5_2 O10_4 1_555 1_555
O10_4 C81_4 1_555 1_555
O11_4 Cd5_2 1_555 1_555
O16_2 Cd5_2 1_555 1_555
O17_2 Cd5_2 1_555 1_555
O18_2 C85_4 1_555 1_555
C81_4 O11_4 1_555 1_555
C82_4 C81_4 1_555 1_555
H102_4 C82_4 1_555 1_555
H103_4 C82_4 1_555 1_555
H104_4 C82_4 1_555 1_555
C85_4 O17_2 1_555 1_555
C86_4 C85_4 1_555 1_555
H108_4 C86_4 1_555 1_555
H109_4 C86_4 1_555 1_555
H110_4 C86_4 1_555 1_555
H99_3 C80_3 1_555 1_555
H100_3 C80_3 1_555 1_555
H3_4 N5_4 1_555 1_555
H26_4 C17_4 1_555 1_555
H27_4 C17_4 1_555 1_555
C41_4 N5_4 1_555 1_555
H55_4 C41_4 1_555 1_555
C43_4 C42_4 1_555 1_555
H57_4 C43_4 1_555 1_555
C44_4 C43_4 1_555 1_555
H59_4 C44_4 1_555 1_555
H60_4 C44_4 1_555 1_555
C45_4 C44_4 1_555 1_555
H61_4 C45_4 1_555 1_555
H62_4 C45_4 1_555 1_555
C46_4 C41_4 1_555 1_555
H63_4 C46_4 1_555 1_555
H64_4 C46_4 1_555 1_555
C47_4 N5_4 1_555 1_555
H65_4 C47_4 1_555 1_555
C41_4 C42_4 1_555 1_555
C45_4 C46_4 1_555 1_555
H69_4 C55_4 1_555 1_555
H70_4 C55_4 1_555 1_555
H71_4 C55_4 1_555 1_555
Ti2_4 O3_4 1_555 1_555
O4_4 Ti2_4 1_555 1_555
O7_4 Ti2_4 1_555 1_555
H1_4 N1_4 1_555 1_555
N6_4 Ti2_4 1_555 1_555
C1_4 N1_4 1_555 1_555
C7_4 C1_4 1_555 1_555
H16_4 C7_4 1_555 1_555
H17_4 C7_4 1_555 1_555
C9_4 O7_4 1_555 1_555
H20_4 C9_4 1_555 1_555
H21_4 C9_4 1_555 1_555
H22_4 C9_4 1_555 1_555
C25_4 N1_4 1_555 1_555
H38_4 C25_4 1_555 1_555
H39_4 C25_4 1_555 1_555
C26_4 C25_4 1_555 1_555
C31_4 C26_4 1_555 1_555
H41_4 C31_4 1_555 1_555
C56_4 C54_4 1_555 1_555
H72_4 C56_4 1_555 1_555
H73_4 C56_4 1_555 1_555
H74_4 C56_4 1_555 1_555
C57_4 C54_4 1_555 1_555
H75_4 C57_4 1_555 1_555
H76_4 C57_4 1_555 1_555
H77_4 C57_4 1_555 1_555
C63_4 N6_4 1_555 1_555
H82_4 C63_4 1_555 1_555
H83_4 C63_4 1_555 1_555
C64_4 C63_4 1_555 1_555
C65_4 O4_4 1_555 1_555
C66_4 C65_4 1_555 1_555
C67_4 C66_4 1_555 1_555
H84_4 C67_4 1_555 1_555
C68_4 C67_4 1_555 1_555
C69_4 C64_4 1_555 1_555
H85_4 C69_4 1_555 1_555
C70_4 C66_4 1_555 1_555
C71_4 C70_4 1_555 1_555
H86_4 C71_4 1_555 1_555
H87_4 C71_4 1_555 1_555
H88_4 C71_4 1_555 1_555
C72_4 C70_4 1_555 1_555
H89_4 C72_4 1_555 1_555
H90_4 C72_4 1_555 1_555
H91_4 C72_4 1_555 1_555
C73_4 C70_4 1_555 1_555
H92_4 C73_4 1_555 1_555
H93_4 C73_4 1_555 1_555
H94_4 C73_4 1_555 1_555
C74_4 C68_4 1_555 1_555
C75_4 C74_4 1_555 1_555
H95_4 C75_4 1_555 1_555
C76_4 N8_4 1_555 1_555
H96_4 C76_4 1_555 1_555
C77_4 N8_4 1_555 1_555
H97_4 C77_4 1_555 1_555
C78_4 C74_4 1_555 1_555
H98_4 C78_4 1_555 1_555
C83_4 O12_4 1_555 1_555
C84_4 C83_4 1_555 1_555
H105_4 C84_4 1_555 1_555
H106_4 C84_4 1_555 1_555
H107_4 C84_4 1_555 1_555
C30_4 C31_4 1_555 1_555
C64_4 C65_4 1_555 1_555
C68_4 C69_4 1_555 1_555
C75_4 C76_4 1_555 1_555
C77_4 C78_4 1_555 1_555
H99_4 C80_4 1_555 1_555
H100_4 C80_4 1_555 1_555
H101_4 C80_4 1_555 1_555

#END
