
###############################################################################
#
# This file contains modified crystal structure data generated from the
# MOF subset of the Cambridge Structural Database (CSD) v543 
# hosted by the Cambridge Crystallographic Data Centre (CCDC).
#
# This work is licensed under the Creative Commons
# Attribution-NonCommercial-ShareAlike 4.0 International License.
# To view a copy of this license, visit
# http://creativecommons.org/licenses/by-nc-sa/4.0/
# or send a letter to
# Creative Commons, PO Box 1866, Mountain View, CA 94042, USA.
#
# CIF created using the CSD Python API on 29 September 2022
# The structure has been converted into the P1 space group
# The structure has a 3D framework
# The original CSD entry HUJGEA is in the tetragonal crystal system
# The framework has been calculated to contain at least 10.0% void space
# The void calculation uses a probe of radius 1.32A, grid spacing 0.4
# H atom positions have been added when not included in the experimental data
# Generated hydrogen atom positions removed from atoms on special positions
#
###############################################################################

data_HUJGEA
_chemical_formula_moiety         '(C184 H208 Cu16 O84)n'
_symmetry_cell_setting           triclinic
_symmetry_space_group_name_H-M   'P 1'
_symmetry_Int_Tables_number      1
_space_group_name_Hall           'P 1'
loop_
_symmetry_equiv_pos_site_id
_symmetry_equiv_pos_as_xyz
1 x,y,z
_cell_length_a                   17.9257(3)
_cell_length_b                   17.9257(3)
_cell_length_c                   28.0627(7)
_cell_angle_alpha                90
_cell_angle_beta                 90
_cell_angle_gamma                90
_cell_volume                     9017.41
loop_
_atom_site_label
_atom_site_type_symbol
_atom_site_fract_x
_atom_site_fract_y
_atom_site_fract_z
O11 O 0.01205(12) 0.87949(11) 0.51444(7)
O12 O 0.11960(15) 0.61960(15) 0.63885(13)
H8 H 0.0310 0.7523 0.5426
C22 C 0.02357(17) 0.61770(16) 0.57873(10)
C24 C 0.01834(18) 0.51834(18) 0.52054(14)
C25 C 0.08695(18) 0.58695(18) 0.59857(16)
C26 C 0.1746(3) 0.6746(3) 0.6289(3)
H11 H 0.2150 0.6522 0.6102
H12 H 0.1947 0.6941 0.6589
O13 O 0.31632(11) 0.31842(12) 0.69681(7)
O14 O 0.19299(11) 0.33429(12) 0.70549(7)
O15 O 0.44806(11) 0.44415(12) 0.56537(7)
O16 O 0.37949(11) 0.51205(12) 0.51444(7)
C27 C 0.25485(16) 0.34746(16) 0.68647(10)
C28 C 0.25572(16) 0.40354(17) 0.64661(10)
C29 C 0.19054(17) 0.44118(18) 0.63432(11)
H13 H 0.1467 0.4339 0.6527
C30 C 0.18886(16) 0.48871(17) 0.59584(11)
C31 C 0.25329(17) 0.49875(16) 0.56949(11)
H14 H 0.2523 0.5310 0.5426
C32 C 0.32006(16) 0.46259(16) 0.58139(10)
C33 C 0.32036(16) 0.41511(16) 0.62049(10)
H15 H 0.3651 0.3904 0.6294
C34 C 0.38795(17) 0.47404(16) 0.55134(10)
C35 C 0.11770(16) 0.52357(17) 0.57873(10)
C36 C 0.08422(17) 0.49023(17) 0.54047(11)
H16 H 0.1062 0.4468 0.5270
H17 H 0.1522 0.7150 0.6102
O17 O 0.18158(12) 0.18368(11) 0.30319(7)
O18 O 0.16571(12) 0.30701(11) 0.29451(7)
O19 O 0.05585(12) 0.05194(11) 0.43463(7)
C37 C 0.15254(16) 0.24515(16) 0.31353(10)
C38 C 0.09646(17) 0.24428(16) 0.35339(10)
C39 C 0.05882(18) 0.30946(17) 0.36568(11)
H18 H 0.0661 0.3533 0.3473
C40 C 0.01129(17) 0.31114(16) 0.40416(11)
C41 C 0.00125(16) 0.24671(17) 0.43051(11)
C42 C 0.03741(16) 0.17994(16) 0.41861(10)
C43 C 0.08489(16) 0.17964(16) 0.37951(10)
H20 H 0.1096 0.1349 0.3706
C44 C 0.02596(16) 0.11205(17) 0.44866(10)
C46 C 0.00977(17) 0.41578(17) 0.45953(11)
H21 H 0.0532 0.3938 0.4730
Cu5 Cu 0.45944(2) 0.54056(2) 0.47032(2)
Cu6 Cu 0.04056(2) 0.95944(2) 0.47032(2)
Cu8 Cu 0.54056(2) 0.45944(2) 0.52968(2)
Cu13 Cu 0.32432(3) 0.2500 0.7500
Cu14 Cu 0.2500 0.32432(3) 0.2500
Cu15 Cu 0.17568(3) 0.2500 0.7500
Cu16 Cu 0.2500 0.17568(3) 0.2500
O21 O 0.10974(15) 0.89026(15) 0.42657(15)
O34 O 0.12051(11) 0.98795(12) 0.51444(7)
Cu10 Cu 0.95944(2) 0.04056(2) 0.52968(2)
Cu2 Cu 0.67568(3) 0.7500 0.2500
O1 O 0.68368(11) 0.68158(12) 0.30319(7)
O2 O 0.80701(11) 0.66571(12) 0.29451(7)
O3 O 0.55194(11) 0.55585(12) 0.43463(7)
O4 O 0.62051(11) 0.48795(12) 0.48556(7)
O5 O 0.88040(15) 0.38040(15) 0.36115(13)
O6 O 0.55675(19) 0.7500 0.2500
O7 O 0.39026(15) 0.60974(15) 0.42657(15)
C1 C 0.74515(16) 0.65254(16) 0.31353(10)
C2 C 0.74428(16) 0.59646(17) 0.35339(10)
C3 C 0.80946(17) 0.55882(18) 0.36568(11)
H1 H 0.8533 0.5661 0.3473
C4 C 0.81114(16) 0.51129(17) 0.40416(11)
C5 C 0.74671(17) 0.50125(16) 0.43051(11)
H2 H 0.7477 0.4690 0.4574
C6 C 0.67994(16) 0.53741(16) 0.41861(10)
C7 C 0.67964(16) 0.58489(16) 0.37951(10)
H3 H 0.6349 0.6096 0.3706
C8 C 0.61205(17) 0.52596(16) 0.44866(10)
C9 C 0.88230(16) 0.47643(17) 0.42127(10)
C10 C 0.91578(17) 0.50977(17) 0.45953(11)
H4 H 0.8938 0.5532 0.4730
C11 C 0.98166(18) 0.48166(18) 0.47946(14)
C12 C 0.91305(18) 0.41305(18) 0.40143(16)
C13 C 0.8254(3) 0.3254(3) 0.3711(3)
H5 H 0.8478 0.2850 0.3898
H6 H 0.8059 0.3053 0.3411
O8 O 0.81842(12) 0.81632(11) 0.69681(7)
O9 O 0.83429(12) 0.69299(11) 0.70549(7)
O10 O 0.94415(12) 0.94806(11) 0.56537(7)
C14 C 0.84746(16) 0.75485(16) 0.68647(10)
C15 C 0.90354(17) 0.75572(16) 0.64661(10)
C16 C 0.94118(18) 0.69054(17) 0.63432(11)
H7 H 0.9339 0.6467 0.6527
C17 C 0.98871(17) 0.68886(16) 0.59584(11)
C18 C 0.99875(16) 0.75329(17) 0.56949(11)
C19 C 0.96259(16) 0.82006(16) 0.58139(10)
C20 C 0.91511(16) 0.82036(16) 0.62049(10)
H9 H 0.8904 0.8651 0.6294
C21 C 0.97404(16) 0.88795(17) 0.55134(10)
C23 C 0.99023(17) 0.58422(17) 0.54047(11)
H10 H 0.9468 0.6062 0.5270
O20 O 0.98795(12) 0.12051(11) 0.48556(7)
H19 H 0.9690 0.2477 0.4574
C45 C 0.97643(17) 0.38230(16) 0.42127(10)
H22 H 0.7850 0.3478 0.3898
Cu4 Cu 0.82432(3) 0.7500 0.2500
O22 O 0.94325(19) 0.7500 0.2500
Cu11 Cu 0.7500 0.67568(3) 0.7500
Cu12 Cu 0.7500 0.82432(3) 0.7500
O23 O 0.81632(11) 0.81842(12) 0.30319(7)
O24 O 0.68368(11) 0.81842(12) 0.19681(7)
O25 O 0.81632(11) 0.68158(12) 0.19681(7)
O26 O 0.69299(11) 0.83429(12) 0.29451(7)
O27 O 0.80701(11) 0.83429(12) 0.20549(7)
O28 O 0.69299(11) 0.66571(12) 0.20549(7)
O30 O 0.44415(12) 0.44806(11) 0.43463(7)
O31 O 0.48795(12) 0.62051(11) 0.51444(7)
O29 O 0.94806(11) 0.94415(12) 0.43463(7)
O13_2 O 0.18158(12) 0.31632(11) 0.19681(7)
O14_2 O 0.16571(12) 0.19299(11) 0.20549(7)
O15_2 O 0.05585(12) 0.44806(11) 0.06537(7)
C27_2 C 0.15254(16) 0.25485(16) 0.18647(10)
C28_2 C 0.09646(17) 0.25572(16) 0.14661(10)
C29_2 C 0.05882(18) 0.19054(17) 0.13432(11)
H13_2 H 0.0661 0.1467 0.1527
C30_2 C 0.01129(17) 0.18886(16) 0.09584(11)
C31_2 C 0.00125(16) 0.25329(17) 0.06949(11)
C32_2 C 0.03741(16) 0.32006(16) 0.08139(10)
C33_2 C 0.08489(16) 0.32036(16) 0.12049(10)
H15_2 H 0.1096 0.3651 0.1294
C34_2 C 0.02596(16) 0.38795(17) 0.05134(10)
C36_2 C 0.00977(17) 0.08422(17) 0.04047(11)
H16_2 H 0.0532 0.1062 0.0270
Cu8_2 Cu 0.04056(2) 0.54056(2) 0.02968(2)
O32 O 0.62051(11) 0.01205(12) 0.01444(7)
O34_2 O 0.51205(12) 0.12051(11) 0.01444(7)
O17_2 O 0.31632(11) 0.18158(12) 0.80319(7)
O18_2 O 0.19299(11) 0.16571(12) 0.79451(7)
O19_2 O 0.44806(11) 0.05585(12) 0.93463(7)
C37_2 C 0.25485(16) 0.15254(16) 0.81353(10)
C38_2 C 0.25572(16) 0.09646(17) 0.85339(10)
C39_2 C 0.19054(17) 0.05882(18) 0.86568(11)
H18_2 H 0.1467 0.0661 0.8473
C40_2 C 0.18886(16) 0.01129(17) 0.90416(11)
C41_2 C 0.25329(17) 0.00125(16) 0.93051(11)
C42_2 C 0.32006(16) 0.03741(16) 0.91861(10)
C43_2 C 0.32036(16) 0.08489(16) 0.87951(10)
H20_2 H 0.3651 0.1096 0.8706
C44_2 C 0.38795(17) 0.02596(16) 0.94866(10)
C46_2 C 0.08422(17) 0.00977(17) 0.95953(11)
H21_2 H 0.1062 0.0532 0.9730
Cu3 Cu 0.54056(2) 0.04056(2) 0.97032(2)
O21_2 O 0.60974(15) 0.10974(15) 0.92657(15)
Cu9 Cu 0.45944(2) 0.95944(2) 0.02968(2)
O4_2 O 0.01205(12) 0.62051(11) 0.98556(7)
O5_2 O 0.11960(15) 0.88040(15) 0.86115(13)
H2_2 H 0.0310 0.7477 0.9574
C9_2 C 0.02357(17) 0.88230(16) 0.92127(10)
C11_2 C 0.01834(18) 0.98166(18) 0.97946(14)
C12_2 C 0.08695(18) 0.91305(18) 0.90143(16)
C13_2 C 0.1746(3) 0.8254(3) 0.8711(3)
H5_2 H 0.2150 0.8478 0.8898
H6_2 H 0.1947 0.8059 0.8411
O20_2 O 0.37949(11) 0.98795(12) 0.98556(7)
H19_2 H 0.2523 0.9690 0.9574
C45_2 C 0.11770(16) 0.97643(17) 0.92127(10)
H22_2 H 0.1522 0.7850 0.8898
O29_2 O 0.55585(12) 0.94806(11) 0.93463(7)
O30_2 O 0.05194(11) 0.44415(12) 0.93463(7)
O12_2 O 0.88040(15) 0.11960(15) 0.13885(13)
H8_2 H 0.7477 0.0310 0.0426
C22_2 C 0.88230(16) 0.02357(17) 0.07873(10)
C24_2 C 0.98166(18) 0.01834(18) 0.02054(14)
C25_2 C 0.91305(18) 0.08695(18) 0.09857(16)
C26_2 C 0.8254(3) 0.1746(3) 0.1289(3)
H11_2 H 0.8478 0.2150 0.1102
H12_2 H 0.8059 0.1947 0.1589
O16_2 O 0.98795(12) 0.37949(11) 0.01444(7)
H14_2 H 0.9690 0.2523 0.0426
C35_2 C 0.97643(17) 0.11770(16) 0.07873(10)
H17_2 H 0.7850 0.1522 0.1102
Cu5_2 Cu 0.95944(2) 0.45944(2) 0.97032(2)
O10_2 O 0.55194(11) 0.94415(12) 0.06537(7)
C14_2 C 0.74515(16) 0.84746(16) 0.18647(10)
C15_2 C 0.74428(16) 0.90354(17) 0.14661(10)
C16_2 C 0.80946(17) 0.94118(18) 0.13432(11)
H7_2 H 0.8533 0.9339 0.1527
C17_2 C 0.81114(16) 0.98871(17) 0.09584(11)
C18_2 C 0.74671(17) 0.99875(16) 0.06949(11)
C19_2 C 0.67994(16) 0.96259(16) 0.08139(10)
C20_2 C 0.67964(16) 0.91511(16) 0.12049(10)
H9_2 H 0.6349 0.8904 0.1294
C21_2 C 0.61205(17) 0.97404(16) 0.05134(10)
C23_2 C 0.91578(17) 0.99023(17) 0.04047(11)
H10_2 H 0.8938 0.9468 0.0270
O31_2 O 0.87949(11) 0.48795(12) 0.01444(7)
O1_2 O 0.81842(12) 0.68368(11) 0.80319(7)
O2_2 O 0.83429(12) 0.80701(11) 0.79451(7)
O3_2 O 0.94415(12) 0.55194(11) 0.93463(7)
O6_2 O 0.7500 0.55675(19) 0.7500
O7_2 O 0.89026(15) 0.39026(15) 0.92657(15)
C1_2 C 0.84746(16) 0.74515(16) 0.81353(10)
C2_2 C 0.90354(17) 0.74428(16) 0.85339(10)
C3_2 C 0.94118(18) 0.80946(17) 0.86568(11)
H1_2 H 0.9339 0.8533 0.8473
C4_2 C 0.98871(17) 0.81114(16) 0.90416(11)
C5_2 C 0.99875(16) 0.74671(17) 0.93051(11)
C6_2 C 0.96259(16) 0.67994(16) 0.91861(10)
C7_2 C 0.91511(16) 0.67964(16) 0.87951(10)
H3_2 H 0.8904 0.6349 0.8706
C8_2 C 0.97404(16) 0.61205(17) 0.94866(10)
C10_2 C 0.99023(17) 0.91578(17) 0.95953(11)
H4_2 H 0.9468 0.8938 0.9730
O22_2 O 0.7500 0.94325(19) 0.7500
O23_2 O 0.68158(12) 0.81632(11) 0.80319(7)
O24_2 O 0.68158(12) 0.68368(11) 0.69681(7)
O26_2 O 0.66571(12) 0.69299(11) 0.79451(7)
O27_2 O 0.66571(12) 0.80701(11) 0.70549(7)
O4_3 O 0.87949(11) 0.01205(12) 0.48556(7)
O5_3 O 0.61960(15) 0.11960(15) 0.36115(13)
H2_3 H 0.7523 0.0310 0.4574
C9_3 C 0.61770(16) 0.02357(17) 0.42127(10)
C11_3 C 0.51834(18) 0.01834(18) 0.47946(14)
C12_3 C 0.58695(18) 0.08695(18) 0.40143(16)
C13_3 C 0.6746(3) 0.1746(3) 0.3711(3)
H5_3 H 0.6522 0.2150 0.3898
H6_3 H 0.6941 0.1947 0.3411
O13_3 O 0.18368(11) 0.18158(12) 0.69681(7)
O14_3 O 0.30701(11) 0.16571(12) 0.70549(7)
O15_3 O 0.05194(11) 0.05585(12) 0.56537(7)
C27_3 C 0.24515(16) 0.15254(16) 0.68647(10)
C28_3 C 0.24428(16) 0.09646(17) 0.64661(10)
C29_3 C 0.30946(17) 0.05882(18) 0.63432(11)
H13_3 H 0.3533 0.0661 0.6527
C30_3 C 0.31114(16) 0.01129(17) 0.59584(11)
C31_3 C 0.24671(17) 0.00125(16) 0.56949(11)
C32_3 C 0.17994(16) 0.03741(16) 0.58139(10)
C33_3 C 0.17964(16) 0.08489(16) 0.62049(10)
H15_3 H 0.1349 0.1096 0.6294
C34_3 C 0.11205(17) 0.02596(16) 0.55134(10)
C36_3 C 0.41578(17) 0.00977(17) 0.54047(11)
H16_3 H 0.3938 0.0532 0.5270
O17_3 O 0.31842(12) 0.31632(11) 0.30319(7)
O18_3 O 0.33429(12) 0.19299(11) 0.29451(7)
O20_3 O 0.51205(12) 0.37949(11) 0.48556(7)
C37_3 C 0.34746(16) 0.25485(16) 0.31353(10)
C38_3 C 0.40354(17) 0.25572(16) 0.35339(10)
C39_3 C 0.44118(18) 0.19054(17) 0.36568(11)
H18_3 H 0.4339 0.1467 0.3473
C40_3 C 0.48871(17) 0.18886(16) 0.40416(11)
C41_3 C 0.49875(16) 0.25329(17) 0.43051(11)
H19_3 H 0.5310 0.2523 0.4574
C42_3 C 0.46259(16) 0.32006(16) 0.41861(10)
C43_3 C 0.41511(16) 0.32036(16) 0.37951(10)
H20_3 H 0.3904 0.3651 0.3706
C44_3 C 0.47404(16) 0.38795(17) 0.44866(10)
C45_3 C 0.52357(17) 0.11770(16) 0.42127(10)
C46_3 C 0.49023(17) 0.08422(17) 0.45953(11)
H21_3 H 0.4468 0.1062 0.4730
H22_3 H 0.7150 0.1522 0.3898
C1_3 C 0.75485(16) 0.84746(16) 0.31353(10)
C2_3 C 0.75572(16) 0.90354(17) 0.35339(10)
C3_3 C 0.69054(17) 0.94118(18) 0.36568(11)
H1_3 H 0.6467 0.9339 0.3473
C4_3 C 0.68886(16) 0.98871(17) 0.40416(11)
C5_3 C 0.75329(17) 0.99875(16) 0.43051(11)
C6_3 C 0.82006(16) 0.96259(16) 0.41861(10)
C7_3 C 0.82036(16) 0.91511(16) 0.37951(10)
H3_3 H 0.8651 0.8904 0.3706
C8_3 C 0.88795(17) 0.97404(16) 0.44866(10)
C10_3 C 0.58422(17) 0.99023(17) 0.45953(11)
H4_3 H 0.6062 0.9468 0.4730
O10_3 O 0.55585(12) 0.55194(11) 0.56537(7)
O12_3 O 0.38040(15) 0.88040(15) 0.63885(13)
C14_3 C 0.65254(16) 0.74515(16) 0.68647(10)
C15_3 C 0.59646(17) 0.74428(16) 0.64661(10)
C16_3 C 0.55882(18) 0.80946(17) 0.63432(11)
H7_3 H 0.5661 0.8533 0.6527
C17_3 C 0.51129(17) 0.81114(16) 0.59584(11)
C18_3 C 0.50125(16) 0.74671(17) 0.56949(11)
H8_3 H 0.4690 0.7477 0.5426
C19_3 C 0.53741(16) 0.67994(16) 0.58139(10)
C20_3 C 0.58489(16) 0.67964(16) 0.62049(10)
H9_3 H 0.6096 0.6349 0.6294
C21_3 C 0.52596(16) 0.61205(17) 0.55134(10)
C22_3 C 0.47643(17) 0.88230(16) 0.57873(10)
C23_3 C 0.50977(17) 0.91578(17) 0.54047(11)
H10_3 H 0.5532 0.8938 0.5270
C24_3 C 0.48166(18) 0.98166(18) 0.52054(14)
C25_3 C 0.41305(18) 0.91305(18) 0.59857(16)
C26_3 C 0.3254(3) 0.8254(3) 0.6289(3)
H11_3 H 0.2850 0.8478 0.6102
H12_3 H 0.3053 0.8059 0.6589
H14_3 H 0.2477 0.9690 0.5426
C35_3 C 0.38230(16) 0.97643(17) 0.57873(10)
H17_3 H 0.3478 0.7850 0.6102
O10_4 O 0.94806(11) 0.55585(12) 0.06537(7)
O12_4 O 0.61960(15) 0.38040(15) 0.13885(13)
C14_4 C 0.75485(16) 0.65254(16) 0.18647(10)
C15_4 C 0.75572(16) 0.59646(17) 0.14661(10)
C16_4 C 0.69054(17) 0.55882(18) 0.13432(11)
H7_4 H 0.6467 0.5661 0.1527
C17_4 C 0.68886(16) 0.51129(17) 0.09584(11)
C18_4 C 0.75329(17) 0.50125(16) 0.06949(11)
H8_4 H 0.7523 0.4690 0.0426
C19_4 C 0.82006(16) 0.53741(16) 0.08139(10)
C20_4 C 0.82036(16) 0.58489(16) 0.12049(10)
H9_4 H 0.8651 0.6096 0.1294
C21_4 C 0.88795(17) 0.52596(16) 0.05134(10)
C22_4 C 0.61770(16) 0.47643(17) 0.07873(10)
C23_4 C 0.58422(17) 0.50977(17) 0.04047(11)
H10_4 H 0.6062 0.5532 0.0270
C24_4 C 0.51834(18) 0.48166(18) 0.02054(14)
C25_4 C 0.58695(18) 0.41305(18) 0.09857(16)
C26_4 C 0.6746(3) 0.3254(3) 0.1289(3)
H11_4 H 0.6522 0.2850 0.1102
H12_4 H 0.6941 0.3053 0.1589
O13_4 O 0.31842(12) 0.18368(11) 0.19681(7)
O14_4 O 0.33429(12) 0.30701(11) 0.20549(7)
O15_4 O 0.44415(12) 0.05194(11) 0.06537(7)
C27_4 C 0.34746(16) 0.24515(16) 0.18647(10)
C28_4 C 0.40354(17) 0.24428(16) 0.14661(10)
C29_4 C 0.44118(18) 0.30946(17) 0.13432(11)
H13_4 H 0.4339 0.3533 0.1527
C30_4 C 0.48871(17) 0.31114(16) 0.09584(11)
C31_4 C 0.49875(16) 0.24671(17) 0.06949(11)
H14_4 H 0.5310 0.2477 0.0426
C32_4 C 0.46259(16) 0.17994(16) 0.08139(10)
C33_4 C 0.41511(16) 0.17964(16) 0.12049(10)
H15_4 H 0.3904 0.1349 0.1294
C34_4 C 0.47404(16) 0.11205(17) 0.05134(10)
C35_4 C 0.52357(17) 0.38230(16) 0.07873(10)
C36_4 C 0.49023(17) 0.41578(17) 0.04047(11)
H16_4 H 0.4468 0.3938 0.0270
H17_4 H 0.7150 0.3478 0.1102
O4_4 O 0.48795(12) 0.87949(11) 0.98556(7)
O5_4 O 0.38040(15) 0.61960(15) 0.86115(13)
C1_4 C 0.65254(16) 0.75485(16) 0.81353(10)
C2_4 C 0.59646(17) 0.75572(16) 0.85339(10)
C3_4 C 0.55882(18) 0.69054(17) 0.86568(11)
H1_4 H 0.5661 0.6467 0.8473
C4_4 C 0.51129(17) 0.68886(16) 0.90416(11)
C5_4 C 0.50125(16) 0.75329(17) 0.93051(11)
H2_4 H 0.4690 0.7523 0.9574
C6_4 C 0.53741(16) 0.82006(16) 0.91861(10)
C7_4 C 0.58489(16) 0.82036(16) 0.87951(10)
H3_4 H 0.6096 0.8651 0.8706
C8_4 C 0.52596(16) 0.88795(17) 0.94866(10)
C9_4 C 0.47643(17) 0.61770(16) 0.92127(10)
C10_4 C 0.50977(17) 0.58422(17) 0.95953(11)
H4_4 H 0.5532 0.6062 0.9730
C11_4 C 0.48166(18) 0.51834(18) 0.97946(14)
C12_4 C 0.41305(18) 0.58695(18) 0.90143(16)
C13_4 C 0.3254(3) 0.6746(3) 0.8711(3)
H5_4 H 0.2850 0.6522 0.8898
H6_4 H 0.3053 0.6941 0.8411
O17_4 O 0.18368(11) 0.31842(12) 0.80319(7)
O18_4 O 0.30701(11) 0.33429(12) 0.79451(7)
O20_4 O 0.12051(11) 0.51205(12) 0.98556(7)
C37_4 C 0.24515(16) 0.34746(16) 0.81353(10)
C38_4 C 0.24428(16) 0.40354(17) 0.85339(10)
C39_4 C 0.30946(17) 0.44118(18) 0.86568(11)
H18_4 H 0.3533 0.4339 0.8473
C40_4 C 0.31114(16) 0.48871(17) 0.90416(11)
C41_4 C 0.24671(17) 0.49875(16) 0.93051(11)
H19_4 H 0.2477 0.5310 0.9574
C42_4 C 0.17994(16) 0.46259(16) 0.91861(10)
C43_4 C 0.17964(16) 0.41511(16) 0.87951(10)
H20_4 H 0.1349 0.3904 0.8706
C44_4 C 0.11205(17) 0.47404(16) 0.94866(10)
C45_4 C 0.38230(16) 0.52357(17) 0.92127(10)
C46_4 C 0.41578(17) 0.49023(17) 0.95953(11)
H21_4 H 0.3938 0.4468 0.9730
H22_4 H 0.3478 0.7150 0.8898
O21_3 O 0.10974(15) 0.60974(15) 0.07343(15)
O7_3 O 0.39026(15) 0.89026(15) 0.07343(15)
O7_4 O 0.60974(15) 0.39026(15) 0.57343(15)
O21_4 O 0.89026(15) 0.10974(15) 0.57343(15)
O6_3 O 0.44325(19) 0.2500 0.7500
H6_5 H 0.1941 0.6947 0.6589
O22_3 O 0.05675(19) 0.2500 0.7500
H12_5 H 0.8053 0.3059 0.3411
O6_4 O 0.2500 0.44325(19) 0.2500
O22_4 O 0.2500 0.05675(19) 0.2500
H12_6 H 0.1941 0.8053 0.8411
H6_6 H 0.8053 0.1941 0.1589
H12_7 H 0.6947 0.1941 0.3411
H6_7 H 0.3059 0.8053 0.6589
H6_8 H 0.6947 0.3059 0.1589
H12_8 H 0.3059 0.6947 0.8411
loop_
_geom_bond_atom_site_label_1
_geom_bond_atom_site_label_2
_geom_bond_site_symmetry_1
_geom_bond_site_symmetry_2
O12 C25 1_555 1_555
C25 C22 1_555 1_555
C26 O12 1_555 1_555
H11 C26 1_555 1_555
H12 C26 1_555 1_555
O13 C27 1_555 1_555
O14 C27 1_555 1_555
O15 C34 1_555 1_555
O16 C34 1_555 1_555
C27 C28 1_555 1_555
C28 C29 1_555 1_555
C29 H13 1_555 1_555
C30 C29 1_555 1_555
C31 C30 1_555 1_555
H14 C31 1_555 1_555
C32 C31 1_555 1_555
C33 C28 1_555 1_555
H15 C33 1_555 1_555
C34 C32 1_555 1_555
C35 C25 1_555 1_555
C36 C24 1_555 1_555
H16 C36 1_555 1_555
H17 C26 1_555 1_555
O17 C37 1_555 1_555
O18 C37 1_555 1_555
O19 C44 1_555 1_555
C37 C38 1_555 1_555
C38 C39 1_555 1_555
C39 H18 1_555 1_555
C40 C39 1_555 1_555
C41 C40 1_555 1_555
C42 C41 1_555 1_555
C43 C38 1_555 1_555
H20 C43 1_555 1_555
C44 C42 1_555 1_555
H21 C46 1_555 1_555
Cu5 O16 1_555 1_555
Cu6 O11 1_555 1_555
Cu8 O15 1_555 1_555
Cu13 O13 1_555 1_555
Cu14 O18 1_555 1_555
Cu15 O14 1_555 1_555
Cu16 O17 1_555 1_555
C30 C35 1_555 1_555
C32 C33 1_555 1_555
C35 C36 1_555 1_555
C42 C43 1_555 1_555
O21 Cu6 1_555 1_555
O34 Cu6 1_555 1_555
Cu5 O3 1_555 1_555
Cu2 O1 1_555 1_555
O1 C1 1_555 1_555
O2 C1 1_555 1_555
O3 C8 1_555 1_555
O4 C8 1_555 1_555
O5 C12 1_555 1_555
O6 Cu2 1_555 1_555
O7 Cu5 1_555 1_555
C1 C2 1_555 1_555
C2 C3 1_555 1_555
C3 H1 1_555 1_555
C4 C3 1_555 1_555
C5 C4 1_555 1_555
H2 C5 1_555 1_555
C6 C5 1_555 1_555
C7 C2 1_555 1_555
H3 C7 1_555 1_555
C8 C6 1_555 1_555
C9 C4 1_555 1_555
C10 C9 1_555 1_555
H4 C10 1_555 1_555
C11 C10 1_555 1_555
C12 C9 1_555 1_555
C13 O5 1_555 1_555
H5 C13 1_555 1_555
H6 C13 1_555 1_555
O8 C14 1_555 1_555
O9 C14 1_555 1_555
O10 C21 1_555 1_555
C14 C15 1_555 1_555
C15 C16 1_555 1_555
C16 H7 1_555 1_555
C17 C16 1_555 1_555
C18 C17 1_555 1_555
C19 C18 1_555 1_555
C20 C15 1_555 1_555
H9 C20 1_555 1_555
C21 C19 1_555 1_555
H10 C23 1_555 1_555
C45 C12 1_555 1_555
H22 C13 1_555 1_555
Cu4 O2 1_555 1_555
O22 Cu4 1_555 1_555
Cu8 O4 1_555 1_555
Cu10 O20 1_555 1_555
Cu11 O9 1_555 1_555
Cu12 O8 1_555 1_555
O23 Cu4 1_555 1_555
O24 Cu2 1_555 1_555
O25 Cu4 1_555 1_555
O26 Cu2 1_555 1_555
O27 Cu4 1_555 1_555
O28 Cu2 1_555 1_555
O30 Cu5 1_555 1_555
O31 Cu5 1_555 1_555
C6 C7 1_555 1_555
C19 C20 1_555 1_555
O13_2 C27_2 1_555 1_555
O14_2 C27_2 1_555 1_555
O15_2 C34_2 1_555 1_555
C27_2 C28_2 1_555 1_555
C28_2 C29_2 1_555 1_555
C29_2 H13_2 1_555 1_555
C30_2 C29_2 1_555 1_555
C31_2 C30_2 1_555 1_555
C32_2 C31_2 1_555 1_555
C33_2 C28_2 1_555 1_555
H15_2 C33_2 1_555 1_555
C34_2 C32_2 1_555 1_555
H16_2 C36_2 1_555 1_555
Cu8_2 O15_2 1_555 1_555
Cu14 O13_2 1_555 1_555
Cu16 O14_2 1_555 1_555
C32_2 C33_2 1_555 1_555
O17_2 C37_2 1_555 1_555
O18_2 C37_2 1_555 1_555
O19_2 C44_2 1_555 1_555
C37_2 C38_2 1_555 1_555
C38_2 C39_2 1_555 1_555
C39_2 H18_2 1_555 1_555
C40_2 C39_2 1_555 1_555
C41_2 C40_2 1_555 1_555
C42_2 C41_2 1_555 1_555
C43_2 C38_2 1_555 1_555
H20_2 C43_2 1_555 1_555
C44_2 C42_2 1_555 1_555
H21_2 C46_2 1_555 1_555
Cu3 O19_2 1_555 1_555
O21_2 Cu3 1_555 1_555
Cu15 O18_2 1_555 1_555
Cu13 O17_2 1_555 1_555
C42_2 C43_2 1_555 1_555
O5_2 C12_2 1_555 1_555
C12_2 C9_2 1_555 1_555
C13_2 O5_2 1_555 1_555
H5_2 C13_2 1_555 1_555
H6_2 C13_2 1_555 1_555
C45_2 C12_2 1_555 1_555
H22_2 C13_2 1_555 1_555
O12_2 C25_2 1_555 1_555
C25_2 C22_2 1_555 1_555
C26_2 O12_2 1_555 1_555
H11_2 C26_2 1_555 1_555
H12_2 C26_2 1_555 1_555
C35_2 C25_2 1_555 1_555
H17_2 C26_2 1_555 1_555
O24 C14_2 1_555 1_555
O27 C14_2 1_555 1_555
O10_2 C21_2 1_555 1_555
C14_2 C15_2 1_555 1_555
C15_2 C16_2 1_555 1_555
C16_2 H7_2 1_555 1_555
C17_2 C16_2 1_555 1_555
C18_2 C17_2 1_555 1_555
C19_2 C18_2 1_555 1_555
C20_2 C15_2 1_555 1_555
H9_2 C20_2 1_555 1_555
C21_2 C19_2 1_555 1_555
H10_2 C23_2 1_555 1_555
Cu9 O10_2 1_555 1_555
C19_2 C20_2 1_555 1_555
Cu5_2 O3_2 1_555 1_555
Cu11 O1_2 1_555 1_555
O1_2 C1_2 1_555 1_555
O2_2 C1_2 1_555 1_555
O3_2 C8_2 1_555 1_555
O6_2 Cu11 1_555 1_555
O7_2 Cu5_2 1_555 1_555
C1_2 C2_2 1_555 1_555
C2_2 C3_2 1_555 1_555
C3_2 H1_2 1_555 1_555
C4_2 C3_2 1_555 1_555
C5_2 C4_2 1_555 1_555
C6_2 C5_2 1_555 1_555
C7_2 C2_2 1_555 1_555
H3_2 C7_2 1_555 1_555
C8_2 C6_2 1_555 1_555
H4_2 C10_2 1_555 1_555
Cu12 O2_2 1_555 1_555
O22_2 Cu12 1_555 1_555
O23_2 Cu12 1_555 1_555
O24_2 Cu11 1_555 1_555
O26_2 Cu11 1_555 1_555
O27_2 Cu12 1_555 1_555
C6_2 C7_2 1_555 1_555
O5_3 C12_3 1_555 1_555
C12_3 C9_3 1_555 1_555
C13_3 O5_3 1_555 1_555
H5_3 C13_3 1_555 1_555
H6_3 C13_3 1_555 1_555
O13_3 C27_3 1_555 1_555
O14_3 C27_3 1_555 1_555
O15_3 C34_3 1_555 1_555
C27_3 C28_3 1_555 1_555
C28_3 C29_3 1_555 1_555
C29_3 H13_3 1_555 1_555
C30_3 C29_3 1_555 1_555
C31_3 C30_3 1_555 1_555
C32_3 C31_3 1_555 1_555
C33_3 C28_3 1_555 1_555
H15_3 C33_3 1_555 1_555
C34_3 C32_3 1_555 1_555
H16_3 C36_3 1_555 1_555
O17_3 C37_3 1_555 1_555
O18_3 C37_3 1_555 1_555
O30 C44_3 1_555 1_555
O20_3 C44_3 1_555 1_555
C37_3 C38_3 1_555 1_555
C38_3 C39_3 1_555 1_555
C39_3 H18_3 1_555 1_555
C40_3 C39_3 1_555 1_555
C41_3 C40_3 1_555 1_555
H19_3 C41_3 1_555 1_555
C42_3 C41_3 1_555 1_555
C43_3 C38_3 1_555 1_555
H20_3 C43_3 1_555 1_555
C44_3 C42_3 1_555 1_555
C45_3 C12_3 1_555 1_555
C46_3 C11_3 1_555 1_555
H21_3 C46_3 1_555 1_555
H22_3 C13_3 1_555 1_555
Cu10 O4_3 1_555 1_555
Cu8 O20_3 1_555 1_555
Cu15 O13_3 1_555 1_555
Cu16 O18_3 1_555 1_555
Cu13 O14_3 1_555 1_555
Cu14 O17_3 1_555 1_555
C32_3 C33_3 1_555 1_555
C40_3 C45_3 1_555 1_555
C42_3 C43_3 1_555 1_555
C45_3 C46_3 1_555 1_555
O23 C1_3 1_555 1_555
O26 C1_3 1_555 1_555
O29 C8_3 1_555 1_555
C1_3 C2_3 1_555 1_555
C2_3 C3_3 1_555 1_555
C3_3 H1_3 1_555 1_555
C4_3 C3_3 1_555 1_555
C5_3 C4_3 1_555 1_555
C6_3 C5_3 1_555 1_555
C7_3 C2_3 1_555 1_555
H3_3 C7_3 1_555 1_555
C8_3 C6_3 1_555 1_555
H4_3 C10_3 1_555 1_555
O24_2 C14_3 1_555 1_555
O27_2 C14_3 1_555 1_555
O10_3 C21_3 1_555 1_555
O31 C21_3 1_555 1_555
O12_3 C25_3 1_555 1_555
C14_3 C15_3 1_555 1_555
C15_3 C16_3 1_555 1_555
C16_3 H7_3 1_555 1_555
C17_3 C16_3 1_555 1_555
C18_3 C17_3 1_555 1_555
H8_3 C18_3 1_555 1_555
C19_3 C18_3 1_555 1_555
C20_3 C15_3 1_555 1_555
H9_3 C20_3 1_555 1_555
C21_3 C19_3 1_555 1_555
C22_3 C17_3 1_555 1_555
C23_3 C22_3 1_555 1_555
H10_3 C23_3 1_555 1_555
C25_3 C22_3 1_555 1_555
C26_3 O12_3 1_555 1_555
H11_3 C26_3 1_555 1_555
H12_3 C26_3 1_555 1_555
C35_3 C25_3 1_555 1_555
H17_3 C26_3 1_555 1_555
Cu8 O10_3 1_555 1_555
C6_3 C7_3 1_555 1_555
C19_3 C20_3 1_555 1_555
C23_3 C24_3 1_555 1_555
O25 C14_4 1_555 1_555
O28 C14_4 1_555 1_555
O10_4 C21_4 1_555 1_555
O31_2 C21_4 1_555 1_555
O12_4 C25_4 1_555 1_555
C14_4 C15_4 1_555 1_555
C15_4 C16_4 1_555 1_555
C16_4 H7_4 1_555 1_555
C17_4 C16_4 1_555 1_555
C18_4 C17_4 1_555 1_555
H8_4 C18_4 1_555 1_555
C19_4 C18_4 1_555 1_555
C20_4 C15_4 1_555 1_555
H9_4 C20_4 1_555 1_555
C21_4 C19_4 1_555 1_555
C22_4 C17_4 1_555 1_555
C23_4 C22_4 1_555 1_555
H10_4 C23_4 1_555 1_555
C25_4 C22_4 1_555 1_555
C26_4 O12_4 1_555 1_555
H11_4 C26_4 1_555 1_555
H12_4 C26_4 1_555 1_555
O13_4 C27_4 1_555 1_555
O14_4 C27_4 1_555 1_555
O15_4 C34_4 1_555 1_555
O34_2 C34_4 1_555 1_555
C27_4 C28_4 1_555 1_555
C28_4 C29_4 1_555 1_555
C29_4 H13_4 1_555 1_555
C30_4 C29_4 1_555 1_555
C31_4 C30_4 1_555 1_555
H14_4 C31_4 1_555 1_555
C32_4 C31_4 1_555 1_555
C33_4 C28_4 1_555 1_555
H15_4 C33_4 1_555 1_555
C34_4 C32_4 1_555 1_555
C35_4 C25_4 1_555 1_555
C36_4 C24_4 1_555 1_555
H16_4 C36_4 1_555 1_555
H17_4 C26_4 1_555 1_555
Cu16 O13_4 1_555 1_555
Cu14 O14_4 1_555 1_555
C19_4 C20_4 1_555 1_555
C23_4 C24_4 1_555 1_555
C30_4 C35_4 1_555 1_555
C32_4 C33_4 1_555 1_555
C35_4 C36_4 1_555 1_555
O23_2 C1_4 1_555 1_555
O26_2 C1_4 1_555 1_555
O29_2 C8_4 1_555 1_555
O4_4 C8_4 1_555 1_555
O5_4 C12_4 1_555 1_555
C1_4 C2_4 1_555 1_555
C2_4 C3_4 1_555 1_555
C3_4 H1_4 1_555 1_555
C4_4 C3_4 1_555 1_555
C5_4 C4_4 1_555 1_555
H2_4 C5_4 1_555 1_555
C6_4 C5_4 1_555 1_555
C7_4 C2_4 1_555 1_555
H3_4 C7_4 1_555 1_555
C8_4 C6_4 1_555 1_555
C9_4 C4_4 1_555 1_555
C10_4 C9_4 1_555 1_555
H4_4 C10_4 1_555 1_555
C11_4 C10_4 1_555 1_555
C12_4 C9_4 1_555 1_555
C13_4 O5_4 1_555 1_555
H5_4 C13_4 1_555 1_555
H6_4 C13_4 1_555 1_555
O17_4 C37_4 1_555 1_555
O18_4 C37_4 1_555 1_555
O30_2 C44_4 1_555 1_555
O20_4 C44_4 1_555 1_555
C37_4 C38_4 1_555 1_555
C38_4 C39_4 1_555 1_555
C39_4 H18_4 1_555 1_555
C40_4 C39_4 1_555 1_555
C41_4 C40_4 1_555 1_555
H19_4 C41_4 1_555 1_555
C42_4 C41_4 1_555 1_555
C43_4 C38_4 1_555 1_555
H20_4 C43_4 1_555 1_555
C44_4 C42_4 1_555 1_555
C45_4 C12_4 1_555 1_555
C46_4 C11_4 1_555 1_555
H21_4 C46_4 1_555 1_555
H22_4 C13_4 1_555 1_555
Cu13 O18_4 1_555 1_555
Cu15 O17_4 1_555 1_555
C6_4 C7_4 1_555 1_555
C40_4 C45_4 1_555 1_555
C42_4 C43_4 1_555 1_555
C45_4 C46_4 1_555 1_555
O21_3 Cu8_2 1_555 1_555
O7_3 Cu9 1_555 1_555
O7_4 Cu8 1_555 1_555
O21_4 Cu10 1_555 1_555
O6_3 Cu13 1_555 1_555
H6_5 C26 1_555 1_555
O22_3 Cu15 1_555 1_555
H12_5 C13 1_555 1_555
O6_4 Cu14 1_555 1_555
O22_4 Cu16 1_555 1_555
H12_6 C13_2 1_555 1_555
H6_6 C26_2 1_555 1_555
H12_7 C13_3 1_555 1_555
H6_7 C26_3 1_555 1_555
H6_8 C26_4 1_555 1_555
H12_8 C13_4 1_555 1_555

#END
