
###############################################################################
#
# This file contains modified crystal structure data generated from the
# MOF subset of the Cambridge Structural Database (CSD) v543 
# hosted by the Cambridge Crystallographic Data Centre (CCDC).
#
# This work is licensed under the Creative Commons
# Attribution-NonCommercial-ShareAlike 4.0 International License.
# To view a copy of this license, visit
# http://creativecommons.org/licenses/by-nc-sa/4.0/
# or send a letter to
# Creative Commons, PO Box 1866, Mountain View, CA 94042, USA.
#
# CIF created using the CSD Python API on 29 September 2022
# The structure has been converted into the P1 space group
# The structure has a 3D framework
# The original CSD entry HUJVOX is in the tetragonal crystal system
# The original CSD entry HUJVOX is in a Sohncke space group
# The framework has been calculated to contain at least 10.0% void space
# The void calculation uses a probe of radius 1.32A, grid spacing 0.4
# The framework is charged, counterions have been retained in the structure
#
###############################################################################

data_HUJVOX
_chemical_formula_moiety         '(C48 H64 Cl8 Cu5 N32 O32 2+)n'
_symmetry_cell_setting           triclinic
_symmetry_space_group_name_H-M   'P 1'
_symmetry_Int_Tables_number      1
_space_group_name_Hall           'P 1'
loop_
_symmetry_equiv_pos_site_id
_symmetry_equiv_pos_as_xyz
1 x,y,z
_cell_length_a                   9.032(1)
_cell_length_b                   9.032(1)
_cell_length_c                   31.322(5)
_cell_angle_alpha                90
_cell_angle_beta                 90
_cell_angle_gamma                90
_cell_volume                     2555.16
loop_
_atom_site_label
_atom_site_type_symbol
_atom_site_fract_x
_atom_site_fract_y
_atom_site_fract_z
Cu1 Cu 0.73262(5) 0.73262(5) 0.0000
O1 O 0.9159(4) 0.5387(4) 0.00304(15)
N1 N 0.6265(4) 0.6184(3) 0.04515(9)
N2 N 0.6070(4) 0.4710(4) 0.04427(11)
N3 N 0.3265(4) 0.6406(3) 0.2051(1)
N4 N 0.3146(4) 0.4921(4) 0.20437(11)
C1 C 0.5623(4) 0.6638(4) 0.08129(11)
C2 C 0.5012(4) 0.5442(4) 0.10354(11)
C3 C 0.5332(5) 0.4238(5) 0.07870(13)
C4 C 0.3949(5) 0.6753(4) 0.16866(12)
C5 C 0.4258(4) 0.5496(4) 0.14464(11)
C6 C 0.3723(6) 0.4354(5) 0.16901(13)
H1 H 0.560(6) 0.778(6) 0.0903(16)
H2 H 0.634(6) 0.421(6) 0.0234(17)
H3 H 0.523(5) 0.337(6) 0.0829(14)
H4 H 0.372(5) 0.341(6) 0.1635(14)
H6 H 0.964(8) 0.490(9) 0.025(3)
H7 H 0.289(6) 0.448(6) 0.2256(17)
H8 H 0.407(6) 0.780(6) 0.1619(15)
H9 H 0.514(9) 0.932(8) 0.017(3)
N10 N 0.8265(4) 0.8594(3) 0.0449(1)
Cu2 Cu 0.23262(5) 0.76738(5) 0.2500
Cu1_2 Cu 0.73262(5) 0.73262(5) 1.0000
H5 H 0.932(8) 0.514(9) 0.983(3)
O2 O 0.5387(4) 0.9159(4) 0.99696(15)
H10 H 0.490(9) 0.964(8) 0.975(3)
N5 N 0.6184(3) 0.6265(4) 0.95485(9)
N6 N 0.4710(4) 0.6070(4) 0.95573(11)
N7 N 0.6406(3) 0.3265(4) 0.7949(1)
N8 N 0.4921(4) 0.3146(4) 0.79563(11)
C7 C 0.6638(4) 0.5623(4) 0.91871(11)
C8 C 0.5442(4) 0.5012(4) 0.89646(11)
C9 C 0.4238(5) 0.5332(5) 0.92130(13)
C10 C 0.6753(4) 0.3949(5) 0.83134(12)
C11 C 0.5496(4) 0.4258(4) 0.85536(11)
C12 C 0.4354(5) 0.3723(6) 0.83099(13)
H11 H 0.778(6) 0.560(6) 0.9097(16)
H12 H 0.421(6) 0.634(6) 0.9766(17)
H13 H 0.337(6) 0.523(5) 0.9171(14)
H14 H 0.341(6) 0.372(5) 0.8365(14)
H15 H 0.448(6) 0.289(6) 0.7744(17)
H16 H 0.780(6) 0.407(6) 0.8381(15)
N9 N 0.8594(3) 0.8265(4) 0.9551(1)
Cu3 Cu 0.76738(5) 0.23262(5) 0.7500
N2_2 N 0.0290(4) 0.1070(4) 0.79427(11)
C3_2 C 0.0762(5) 0.0332(5) 0.82870(13)
H2_2 H 0.079(6) 0.134(6) 0.7734(17)
H3_2 H 0.163(6) 0.023(5) 0.8329(14)
H6_2 H 0.010(9) 0.464(8) 0.775(3)
N7_2 N 0.1735(4) 0.1406(3) 0.5449(1)
C10_2 C 0.1051(5) 0.1753(4) 0.58134(12)
C11_2 C 0.0742(4) 0.0496(4) 0.60536(11)
H16_2 H 0.093(6) 0.280(6) 0.5881(15)
Cu3_2 Cu 0.26738(5) 0.26738(5) 0.5000
O1_2 O 0.9613(4) 0.4159(4) 0.75304(15)
N1_2 N 0.8816(3) 0.1265(4) 0.79515(9)
C1_2 C 0.8362(4) 0.0623(4) 0.83129(11)
C2_2 C 0.9558(4) 0.0012(4) 0.85354(11)
H1_2 H 0.722(6) 0.060(6) 0.8403(16)
H5_2 H 0.986(9) 0.432(8) 0.733(3)
O2_2 O 0.5841(4) 0.0387(4) 0.74696(15)
H9_2 H 0.568(8) 0.014(9) 0.767(3)
N5_2 N 0.8735(4) 0.1184(3) 0.70485(9)
C7_2 C 0.9377(4) 0.1638(4) 0.66871(11)
C8_2 C 0.9988(4) 0.0442(4) 0.64646(11)
H11_2 H 0.940(6) 0.278(6) 0.6597(16)
N9_2 N 0.6735(4) 0.3594(3) 0.7051(1)
C4_2 C 0.8247(4) 0.8949(5) 0.91866(12)
C5_2 C 0.9504(4) 0.9258(4) 0.89464(11)
H8_2 H 0.720(6) 0.907(6) 0.9119(15)
H10_2 H 0.536(8) 0.990(9) 0.725(3)
N6_2 N 0.8930(4) 0.9710(4) 0.70573(11)
C9_2 C 0.9668(5) 0.9238(5) 0.67130(13)
H12_2 H 0.866(6) 0.921(6) 0.7266(17)
H13_2 H 0.977(5) 0.837(6) 0.6671(14)
O1_3 O 0.0841(4) 0.4613(4) 0.50304(15)
N1_3 N 0.3735(4) 0.3816(3) 0.54515(9)
N2_3 N 0.3930(4) 0.5290(4) 0.54427(11)
N4_2 N 0.6854(4) 0.5079(4) 0.70437(11)
C1_3 C 0.4377(4) 0.3362(4) 0.58129(11)
C2_3 C 0.4988(4) 0.4558(4) 0.60354(11)
C3_3 C 0.4668(5) 0.5762(5) 0.57870(13)
C4_3 C 0.6051(5) 0.3247(4) 0.66866(12)
C5_3 C 0.5742(4) 0.4504(4) 0.64464(11)
C6_2 C 0.6277(6) 0.5646(5) 0.66901(13)
H1_3 H 0.440(6) 0.222(6) 0.5903(16)
H2_3 H 0.366(6) 0.579(6) 0.5234(17)
H3_3 H 0.477(5) 0.663(6) 0.5829(14)
H4_2 H 0.628(5) 0.659(6) 0.6635(14)
H5_3 H 0.068(8) 0.486(9) 0.483(3)
H6_3 H 0.036(8) 0.510(9) 0.525(3)
H7_2 H 0.711(6) 0.552(6) 0.7256(17)
H8_3 H 0.593(6) 0.220(6) 0.6619(15)
O2_3 O 0.4613(4) 0.0841(4) 0.49696(15)
H9_3 H 0.486(9) 0.068(8) 0.517(3)
H10_3 H 0.510(9) 0.036(8) 0.475(3)
N5_3 N 0.3816(3) 0.3735(4) 0.45485(9)
N6_3 N 0.5290(4) 0.3930(4) 0.45573(11)
N7_3 N 0.3594(3) 0.6735(4) 0.2949(1)
N8_2 N 0.5079(4) 0.6854(4) 0.29563(11)
C7_3 C 0.3362(4) 0.4377(4) 0.41871(11)
C8_3 C 0.4558(4) 0.4988(4) 0.39646(11)
C9_3 C 0.5762(5) 0.4668(5) 0.42130(13)
C10_3 C 0.3247(4) 0.6051(5) 0.33134(12)
C11_3 C 0.4504(4) 0.5742(4) 0.35536(11)
C12_2 C 0.5646(5) 0.6277(6) 0.33099(13)
H11_3 H 0.222(6) 0.440(6) 0.4097(16)
H12_3 H 0.579(6) 0.366(6) 0.4766(17)
H13_3 H 0.663(6) 0.477(5) 0.4171(14)
H14_2 H 0.659(6) 0.628(5) 0.3365(14)
H15_2 H 0.552(6) 0.711(6) 0.2744(17)
H16_3 H 0.220(6) 0.593(6) 0.3381(15)
N9_3 N 0.1406(3) 0.1735(4) 0.4551(1)
C4_4 C 0.1753(4) 0.1051(5) 0.41866(12)
C5_4 C 0.0496(4) 0.0742(4) 0.39464(11)
H8_4 H 0.280(6) 0.093(6) 0.4119(15)
H10_4 H 0.464(8) 0.010(9) 0.225(3)
N6_4 N 0.1070(4) 0.0290(4) 0.20573(11)
C9_4 C 0.0332(5) 0.0762(5) 0.17130(13)
H12_4 H 0.134(6) 0.079(6) 0.2266(17)
H13_4 H 0.023(5) 0.163(6) 0.1671(14)
O1_4 O 0.0387(4) 0.5841(4) 0.25304(15)
N1_4 N 0.1184(3) 0.8735(4) 0.29515(9)
C1_4 C 0.1638(4) 0.9377(4) 0.33129(11)
C2_4 C 0.0442(4) 0.9988(4) 0.35354(11)
H1_4 H 0.278(6) 0.940(6) 0.3403(16)
H5_4 H 0.014(9) 0.568(8) 0.233(3)
O2_4 O 0.4159(4) 0.9613(4) 0.24696(15)
H9_4 H 0.432(8) 0.986(9) 0.267(3)
N5_4 N 0.1265(4) 0.8816(3) 0.20485(9)
C7_4 C 0.0623(4) 0.8362(4) 0.16871(11)
C8_4 C 0.0012(4) 0.9558(4) 0.14646(11)
H11_4 H 0.060(6) 0.722(6) 0.1597(16)
N2_4 N 0.9710(4) 0.8930(4) 0.29427(11)
C3_4 C 0.9238(5) 0.9668(5) 0.32870(13)
H2_4 H 0.921(6) 0.866(6) 0.2734(17)
H3_4 H 0.837(6) 0.977(5) 0.3329(14)
H6_4 H 0.990(9) 0.536(8) 0.275(3)
C10_4 C 0.8949(5) 0.8247(4) 0.08134(12)
C11_4 C 0.9258(4) 0.9504(4) 0.10536(11)
H16_4 H 0.907(6) 0.720(6) 0.0881(15)
N4_3 N 0.0079(4) 0.8146(4) 0.95437(11)
C6_3 C 0.0646(5) 0.8723(6) 0.91901(13)
H4_3 H 0.159(6) 0.872(5) 0.9135(14)
H7_3 H 0.052(6) 0.789(6) 0.9756(17)
N8_3 N 0.1854(4) 0.9921(4) 0.54563(11)
C12_3 C 0.1277(6) 0.9354(5) 0.58099(13)
H14_3 H 0.128(5) 0.841(6) 0.5865(14)
H15_3 H 0.211(6) 0.948(6) 0.5244(17)
N4_4 N 0.9921(4) 0.1854(4) 0.45437(11)
C6_4 C 0.9354(5) 0.1277(6) 0.41901(13)
H4_4 H 0.841(6) 0.128(5) 0.4135(14)
H7_4 H 0.948(6) 0.211(6) 0.4756(17)
N8_4 N 0.8146(4) 0.0079(4) 0.04563(11)
C12_4 C 0.8723(6) 0.0646(5) 0.08099(13)
H14_4 H 0.872(5) 0.159(6) 0.0865(14)
H15_4 H 0.789(6) 0.052(6) 0.0244(17)
Cl1 Cl 0.32163(16) 0.02851(13) 0.09733(4)
O3 O 0.2731(5) 0.1795(4) 0.09862(19)
O4 O 0.4859(6) 0.0286(7) 0.1003(2)
O5 O 0.2943(7) 0.9697(6) 0.05491(18)
Cl1_2 Cl 0.47149(13) 0.82163(16) 0.84733(4)
O3_2 O 0.3205(4) 0.7731(5) 0.84862(19)
O4_2 O 0.4714(7) 0.9859(6) 0.8503(2)
O5_2 O 0.5303(6) 0.7943(7) 0.80491(18)
O5_3 O 0.7057(7) 0.0303(6) 0.55491(18)
Cl1_3 Cl 0.67837(16) 0.97149(13) 0.59733(4)
O3_3 O 0.7269(5) 0.8205(4) 0.59862(19)
O4_3 O 0.5141(6) 0.9714(7) 0.6003(2)
Cl1_4 Cl 0.52851(13) 0.17837(16) 0.34733(4)
O3_4 O 0.6795(4) 0.2269(5) 0.34862(19)
O4_4 O 0.5286(7) 0.0141(6) 0.3503(2)
O5_4 O 0.4697(6) 0.2057(7) 0.30491(18)
Cl1_5 Cl 0.17837(16) 0.52851(13) 0.65267(4)
O3_5 O 0.2269(5) 0.6795(4) 0.65138(19)
O4_5 O 0.0141(6) 0.5286(7) 0.6497(2)
O5_5 O 0.2057(7) 0.4697(6) 0.69509(18)
Cl1_6 Cl 0.02851(13) 0.32163(16) 0.90267(4)
O3_6 O 0.1795(4) 0.2731(5) 0.90138(19)
O4_6 O 0.0286(7) 0.4859(6) 0.8997(2)
O5_6 O 0.9697(6) 0.2943(7) 0.94509(18)
Cl1_7 Cl 0.82163(16) 0.47149(13) 0.15267(4)
O3_7 O 0.7731(5) 0.3205(4) 0.15138(19)
O4_7 O 0.9859(6) 0.4714(7) 0.1497(2)
O5_7 O 0.7943(7) 0.5303(6) 0.19509(18)
O5_8 O 0.0303(6) 0.7057(7) 0.44509(18)
Cl1_8 Cl 0.97149(13) 0.67837(16) 0.40267(4)
O3_8 O 0.8205(4) 0.7269(5) 0.40138(19)
O4_8 O 0.9714(7) 0.5141(6) 0.3997(2)
loop_
_geom_bond_atom_site_label_1
_geom_bond_atom_site_label_2
_geom_bond_site_symmetry_1
_geom_bond_site_symmetry_2
Cu1 O1 1_555 1_555
N1 Cu1 1_555 1_555
N2 N1 1_555 1_555
N3 N4 1_555 1_555
N4 C6 1_555 1_555
C1 N1 1_555 1_555
C2 C1 1_555 1_555
C3 N2 1_555 1_555
C4 N3 1_555 1_555
C5 C2 1_555 1_555
C6 C5 1_555 1_555
H1 C1 1_555 1_555
H2 N2 1_555 1_555
H3 C3 1_555 1_555
H4 C6 1_555 1_555
H6 O1 1_555 1_555
H7 N4 1_555 1_555
H8 C4 1_555 1_555
N10 Cu1 1_555 1_555
Cu2 N3 1_555 1_555
C2 C3 1_555 1_555
C4 C5 1_555 1_555
O2 Cu1_2 1_555 1_555
H10 O2 1_555 1_555
N5 Cu1_2 1_555 1_555
N6 N5 1_555 1_555
N7 N8 1_555 1_555
N8 C12 1_555 1_555
C7 N5 1_555 1_555
C8 C7 1_555 1_555
C9 N6 1_555 1_555
C10 N7 1_555 1_555
C11 C8 1_555 1_555
C12 C11 1_555 1_555
H11 C7 1_555 1_555
H12 N6 1_555 1_555
H13 C9 1_555 1_555
H14 C12 1_555 1_555
H15 N8 1_555 1_555
H16 C10 1_555 1_555
N9 Cu1_2 1_555 1_555
Cu3 N7 1_555 1_555
C8 C9 1_555 1_555
C10 C11 1_555 1_555
C3_2 N2_2 1_555 1_555
H2_2 N2_2 1_555 1_555
H3_2 C3_2 1_555 1_555
C10_2 N7_2 1_555 1_555
H16_2 C10_2 1_555 1_555
Cu3_2 N7_2 1_555 1_555
C10_2 C11_2 1_555 1_555
Cu3 O1_2 1_555 1_555
O1_2 H5_2 1_555 1_555
N1_2 Cu3 1_555 1_555
C1_2 N1_2 1_555 1_555
C2_2 C1_2 1_555 1_555
H1_2 C1_2 1_555 1_555
O2_2 Cu3 1_555 1_555
H9_2 O2_2 1_555 1_555
N5_2 Cu3 1_555 1_555
C7_2 N5_2 1_555 1_555
C8_2 C7_2 1_555 1_555
H11_2 C7_2 1_555 1_555
N9_2 Cu3 1_555 1_555
C4_2 N9 1_555 1_555
H8_2 C4_2 1_555 1_555
C9_2 N6_2 1_555 1_555
H12_2 N6_2 1_555 1_555
H13_2 C9_2 1_555 1_555
C4_2 C5_2 1_555 1_555
Cu3_2 O1_3 1_555 1_555
O1_3 H5_3 1_555 1_555
N1_3 Cu3_2 1_555 1_555
N2_3 N1_3 1_555 1_555
N9_2 N4_2 1_555 1_555
N4_2 C6_2 1_555 1_555
C1_3 N1_3 1_555 1_555
C2_3 C1_3 1_555 1_555
C3_3 N2_3 1_555 1_555
C4_3 N9_2 1_555 1_555
C5_3 C2_3 1_555 1_555
C6_2 C5_3 1_555 1_555
H1_3 C1_3 1_555 1_555
H2_3 N2_3 1_555 1_555
H3_3 C3_3 1_555 1_555
H4_2 C6_2 1_555 1_555
H6_3 O1_3 1_555 1_555
H7_2 N4_2 1_555 1_555
H8_3 C4_3 1_555 1_555
O2_3 Cu3_2 1_555 1_555
H9_3 O2_3 1_555 1_555
H10_3 O2_3 1_555 1_555
N5_3 Cu3_2 1_555 1_555
N6_3 N5_3 1_555 1_555
N7_3 N8_2 1_555 1_555
N8_2 C12_2 1_555 1_555
C7_3 N5_3 1_555 1_555
C8_3 C7_3 1_555 1_555
C9_3 N6_3 1_555 1_555
C10_3 N7_3 1_555 1_555
C11_3 C8_3 1_555 1_555
C12_2 C11_3 1_555 1_555
H11_3 C7_3 1_555 1_555
H12_3 N6_3 1_555 1_555
H13_3 C9_3 1_555 1_555
H14_2 C12_2 1_555 1_555
H15_2 N8_2 1_555 1_555
H16_3 C10_3 1_555 1_555
N9_3 Cu3_2 1_555 1_555
Cu2 N7_3 1_555 1_555
C2_3 C3_3 1_555 1_555
C4_3 C5_3 1_555 1_555
C8_3 C9_3 1_555 1_555
C10_3 C11_3 1_555 1_555
C4_4 N9_3 1_555 1_555
H8_4 C4_4 1_555 1_555
C9_4 N6_4 1_555 1_555
H12_4 N6_4 1_555 1_555
H13_4 C9_4 1_555 1_555
C4_4 C5_4 1_555 1_555
Cu2 O1_4 1_555 1_555
O1_4 H5_4 1_555 1_555
N1_4 Cu2 1_555 1_555
C1_4 N1_4 1_555 1_555
C2_4 C1_4 1_555 1_555
H1_4 C1_4 1_555 1_555
O2_4 Cu2 1_555 1_555
H9_4 O2_4 1_555 1_555
N5_4 Cu2 1_555 1_555
C7_4 N5_4 1_555 1_555
C8_4 C7_4 1_555 1_555
H11_4 C7_4 1_555 1_555
C3_4 N2_4 1_555 1_555
H2_4 N2_4 1_555 1_555
H3_4 C3_4 1_555 1_555
C10_4 N10 1_555 1_555
H16_4 C10_4 1_555 1_555
C10_4 C11_4 1_555 1_555
N4_3 C6_3 1_555 1_555
H4_3 C6_3 1_555 1_555
H7_3 N4_3 1_555 1_555
N8_3 C12_3 1_555 1_555
H14_3 C12_3 1_555 1_555
H15_3 N8_3 1_555 1_555
N4_4 C6_4 1_555 1_555
H4_4 C6_4 1_555 1_555
H7_4 N4_4 1_555 1_555
N8_4 C12_4 1_555 1_555
H14_4 C12_4 1_555 1_555
H15_4 N8_4 1_555 1_555
Cl1 O3 1_555 1_555
O4 Cl1 1_555 1_555
Cl1_2 O3_2 1_555 1_555
O4_2 Cl1_2 1_555 1_555
O5_2 Cl1_2 1_555 1_555
Cl1_3 O3_3 1_555 1_555
O4_3 Cl1_3 1_555 1_555
Cl1_4 O3_4 1_555 1_555
O4_4 Cl1_4 1_555 1_555
O5_4 Cl1_4 1_555 1_555
Cl1_5 O3_5 1_555 1_555
O4_5 Cl1_5 1_555 1_555
O5_5 Cl1_5 1_555 1_555
Cl1_6 O3_6 1_555 1_555
O4_6 Cl1_6 1_555 1_555
Cl1_7 O3_7 1_555 1_555
O4_7 Cl1_7 1_555 1_555
O5_7 Cl1_7 1_555 1_555
Cl1_8 O3_8 1_555 1_555
O4_8 Cl1_8 1_555 1_555

#END
