
###############################################################################
#
# This file contains modified crystal structure data generated from the
# MOF subset of the Cambridge Structural Database (CSD) v543 
# hosted by the Cambridge Crystallographic Data Centre (CCDC).
#
# This work is licensed under the Creative Commons
# Attribution-NonCommercial-ShareAlike 4.0 International License.
# To view a copy of this license, visit
# http://creativecommons.org/licenses/by-nc-sa/4.0/
# or send a letter to
# Creative Commons, PO Box 1866, Mountain View, CA 94042, USA.
#
# CIF created using the CSD Python API on 29 September 2022
# The structure has been converted into the P1 space group
# The structure has a 3D framework
# The original CSD entry HUKQUZ is in the rhombohedral crystal system
# The framework has been calculated to contain at least 10.0% void space
# The void calculation uses a probe of radius 1.32A, grid spacing 0.4
# The framework is charged, counterions have been retained in the structure
#
###############################################################################

data_HUKQUZ
_chemical_formula_moiety         '(C756 H756 Cd29 Cl36 N216 O144 22+)n'
_symmetry_cell_setting           triclinic
_symmetry_space_group_name_H-M   'P 1'
_symmetry_Int_Tables_number      1
_space_group_name_Hall           'P 1'
loop_
_symmetry_equiv_pos_site_id
_symmetry_equiv_pos_as_xyz
1 x,y,z
_cell_length_a                   20.783(7)
_cell_length_b                   20.783(7)
_cell_length_c                   59.34(3)
_cell_angle_alpha                90
_cell_angle_beta                 90
_cell_angle_gamma                120
_cell_volume                     22197
loop_
_atom_site_label
_atom_site_type_symbol
_atom_site_fract_x
_atom_site_fract_y
_atom_site_fract_z
Cd5 Cd 0.0000 0.0000 0.0000
Cd5_2 Cd 0.0000 0.0000 1.0000
Cd5_3 Cd 0.0000 1.0000 0.0000
Cd5_4 Cd 0.0000 1.0000 1.0000
C77 C 0.1699(10) 0.0100(7) 0.0486(2)
C83 C 0.1252(10) 0.0329(7) 0.0400(2)
H77 H 0.2035 0.0320 0.0608
Cd5_5 Cd 1.0000 0.0000 0.0000
H83 H 0.1216 0.0739 0.0455
Cd5_6 Cd 1.0000 0.0000 1.0000
Cd2 Cd 0.3333 0.6667 0.1667
N1 N 0.0103(5) 0.0963(5) 0.02248(14)
N2 N 0.0500(5) 0.2086(5) 0.03665(15)
N3 N 0.2465(5) 0.4432(5) 0.13449(14)
N4 N 0.2983(5) 0.5612(5) 0.14476(14)
C1 C 0.0606(7) 0.1681(6) 0.02115(19)
H1 H 0.0997 0.1884 0.0104
C4 C 0.0933(7) 0.2873(6) 0.0399(2)
H4 H 0.0634 0.3102 0.0354
H5 H 0.1376 0.3077 0.0301
C5 C 0.1182(7) 0.3079(6) 0.06415(19)
C6 C 0.1606(7) 0.2815(7) 0.0741(2)
H6 H 0.1735 0.2507 0.0657
C7 C 0.1010(7) 0.3521(6) 0.0768(2)
H7 H 0.0724 0.3712 0.0702
C8 C 0.1842(6) 0.2994(6) 0.0958(2)
H8 H 0.2139 0.2813 0.1023
C9 C 0.1236(6) 0.3699(6) 0.09888(18)
H9 H 0.1103 0.4004 0.1073
C10 C 0.1658(6) 0.3429(5) 0.10849(18)
C11 C 0.1912(6) 0.3642(6) 0.13245(18)
H10 H 0.1478 0.3528 0.1420
H11 H 0.2129 0.3342 0.1379
C12 C 0.2413(6) 0.4941(6) 0.14779(18)
H12 H 0.2016 0.4825 0.1579
C13 C 0.3125(5) 0.4806(6) 0.12318(18)
H13 H 0.3326 0.4607 0.1127
C14 C 0.3429(6) 0.5518(6) 0.1300(2)
H14 H 0.3899 0.5906 0.1251
N10 N 0.4388(5) 0.7371(7) 0.14476(14)
N11 N 0.2629(7) 0.7017(5) 0.14476(14)
N12 N 0.2279(5) 0.5962(7) 0.18857(14)
N13 N 0.4038(7) 0.6316(5) 0.18857(14)
N14 N 0.3684(5) 0.7721(5) 0.18857(14)
C19 C 0.5059(6) 0.7472(8) 0.14779(18)
C20 C 0.4482(6) 0.7911(8) 0.1300(2)
C21 C 0.2528(8) 0.7587(6) 0.14779(18)
C22 C 0.2089(8) 0.6571(6) 0.1300(2)
C23 C 0.1608(6) 0.5861(8) 0.18554(18)
C24 C 0.2185(6) 0.5422(8) 0.2033(2)
N17 N 0.5568(5) 0.8033(7) 0.13449(14)
H19 H 0.5175 0.7191 0.1579
C27 C 0.5194(6) 0.8319(8) 0.12318(18)
H20 H 0.4094 0.7993 0.1251
N18 N 0.1967(7) 0.7535(5) 0.13449(14)
H21 H 0.2809 0.7984 0.1579
C28 C 0.1681(8) 0.6875(5) 0.12318(18)
H22 H 0.2007 0.6101 0.1251
N19 N 0.1099(5) 0.5300(7) 0.19884(14)
H23 H 0.1492 0.6142 0.1754
C29 C 0.1473(6) 0.5014(8) 0.21015(18)
H24 H 0.2573 0.5340 0.2082
C32 C 0.6358(6) 0.8270(8) 0.13245(18)
H27 H 0.5393 0.8719 0.1127
C33 C 0.1730(8) 0.8088(6) 0.13245(18)
H28 H 0.1281 0.6674 0.1127
C34 C 0.0309(6) 0.5063(8) 0.20088(18)
H29 H 0.1274 0.4614 0.2206
C37 C 0.6571(5) 0.8229(8) 0.10849(18)
H34 H 0.6472 0.7950 0.1420
H35 H 0.6658 0.8787 0.1379
C38 C 0.1771(8) 0.8342(6) 0.10849(18)
H36 H 0.2050 0.8522 0.1420
H37 H 0.1213 0.7871 0.1379
C39 C 0.0096(5) 0.5104(8) 0.22484(18)
H38 H 0.0195 0.5383 0.1913
H39 H 0.0009 0.4546 0.1954
C44 C 0.7006(6) 0.8848(8) 0.0958(2)
C45 C 0.6301(6) 0.7537(8) 0.09888(18)
C46 C 0.1152(8) 0.8158(6) 0.0958(2)
C47 C 0.2463(8) 0.8764(6) 0.09888(18)
C49 C 0.0366(6) 0.5796(8) 0.23445(18)
C54 C 0.7185(7) 0.8791(10) 0.0741(2)
H44 H 0.7187 0.9326 0.1023
C55 C 0.6479(6) 0.7489(9) 0.0768(2)
H45 H 0.5996 0.7099 0.1073
C56 C 0.1209(10) 0.8394(7) 0.0741(2)
H46 H 0.0674 0.7861 0.1023
C57 C 0.2511(9) 0.8990(7) 0.0768(2)
H47 H 0.2901 0.8897 0.1073
C59 C 0.0188(6) 0.5844(9) 0.2565(2)
H49 H 0.0671 0.6234 0.2260
C62 C 0.6921(6) 0.8103(9) 0.06415(19)
H54 H 0.7493 0.9228 0.0657
H55 H 0.6288 0.7012 0.0702
C63 C 0.1897(9) 0.8818(7) 0.06415(19)
H56 H 0.0772 0.8265 0.0657
H57 H 0.2988 0.9276 0.0702
H59 H 0.0379 0.6321 0.2631
C67 C 0.7127(6) 0.8060(9) 0.0399(2)
C68 C 0.1940(9) 0.9067(7) 0.0399(2)
N22 N 0.7914(5) 0.8414(7) 0.03665(15)
H64 H 0.6898 0.7532 0.0354
H65 H 0.6923 0.8299 0.0301
N23 N 0.1586(7) 0.9500(5) 0.03665(15)
H66 H 0.2468 0.9366 0.0354
H67 H 0.1701 0.8624 0.0301
C74 C 0.8319(6) 0.8925(9) 0.02115(19)
C75 C 0.8401(7) 0.8301(10) 0.0486(2)
C76 C 0.1075(9) 0.9394(7) 0.02115(19)
N27 N 0.9037(5) 0.9140(7) 0.02248(14)
H74 H 0.8116 0.9113 0.0104
C82 C 0.9077(7) 0.8748(10) 0.0400(2)
H75 H 0.8285 0.7965 0.0608
N28 N 0.0860(7) 0.9897(5) 0.02248(14)
H76 H 0.0887 0.9003 0.0104
Cd5_7 Cd 1.0000 1.0000 0.0000
H82 H 0.9523 0.8784 0.0455
N8 N 0.0963(5) 0.0860(7) 0.97752(14)
Cd5_8 Cd 1.0000 1.0000 1.0000
C2 C 0.9671(7) 0.0923(7) 0.0400(2)
H2 H 0.9261 0.0477 0.0455
C3 C 0.9900(7) 0.1599(7) 0.0486(2)
H3 H 0.9680 0.1715 0.0608
C48 C 0.9661(6) 0.4485(8) 0.2375(2)
C58 C 0.9482(7) 0.4542(10) 0.2592(2)
H48 H 0.9480 0.4007 0.2310
C64 C 0.9746(6) 0.5230(9) 0.26918(19)
H58 H 0.9174 0.4105 0.2676
C69 C 0.9540(6) 0.5273(9) 0.2934(2)
N24 N 0.8753(5) 0.4919(7) 0.29668(15)
H68 H 0.9769 0.5801 0.2979
H69 H 0.9744 0.5034 0.3032
C78 C 0.8348(6) 0.4408(9) 0.31218(19)
C79 C 0.8266(7) 0.5032(10) 0.2847(2)
N29 N 0.7630(5) 0.4193(7) 0.31085(14)
H78 H 0.8551 0.4220 0.3229
C84 C 0.7590(7) 0.4585(10) 0.2933(2)
H79 H 0.8382 0.5368 0.2725
Cd7 Cd 0.6667 0.3333 0.3333
H84 H 0.7144 0.4549 0.2878
N9 N 0.9140(7) 0.0103(5) 0.97752(14)
N7 N 0.9897(5) 0.9037(5) 0.97752(14)
C23_2 C 0.4139(8) 0.5746(10) 0.18554(18)
C24_2 C 0.4578(8) 0.6762(10) 0.2033(2)
N19_2 N 0.4700(7) 0.5798(9) 0.19884(14)
H23_2 H 0.3858 0.5349 0.1754
C29_2 C 0.4986(8) 0.6458(10) 0.21015(18)
H24_2 H 0.4660 0.7232 0.2082
C34_2 C 0.4937(8) 0.5245(10) 0.20088(18)
H29_2 H 0.5386 0.6659 0.2206
C39_2 C 0.4896(8) 0.4991(9) 0.22484(18)
H38_2 H 0.4617 0.4811 0.1913
H39_2 H 0.5454 0.5462 0.1954
C48_2 C 0.5515(8) 0.5175(10) 0.2375(2)
C49_2 C 0.4204(8) 0.4569(10) 0.23445(18)
C58_2 C 0.5458(10) 0.4939(12) 0.2592(2)
H48_2 H 0.5993 0.5472 0.2310
C59_2 C 0.4156(9) 0.4343(11) 0.2565(2)
H49_2 H 0.3766 0.4436 0.2260
C64_2 C 0.4770(9) 0.4515(11) 0.26918(19)
H58_2 H 0.5895 0.5068 0.2676
H59_2 H 0.3679 0.4057 0.2631
C69_2 C 0.4727(9) 0.4266(11) 0.2934(2)
N24_2 N 0.5081(7) 0.3833(9) 0.29668(15)
H68_2 H 0.4199 0.3967 0.2979
H69_2 H 0.4966 0.4709 0.3032
C78_2 C 0.5592(9) 0.3939(11) 0.31218(19)
C79_2 C 0.4968(10) 0.3233(12) 0.2847(2)
N29_2 N 0.5807(7) 0.3436(9) 0.31085(14)
H78_2 H 0.5780 0.4330 0.3229
C84_2 C 0.5415(10) 0.3004(12) 0.2933(2)
H79_2 H 0.4632 0.3013 0.2725
H84_2 H 0.5451 0.2594 0.2878
C48_3 C 0.4825(10) 0.0339(6) 0.2375(2)
C58_3 C 0.5061(12) 0.0518(7) 0.2592(2)
H48_3 H 0.4528 0.0520 0.2310
C64_3 C 0.5485(11) 0.0254(6) 0.26918(19)
H58_3 H 0.4932 0.0826 0.2676
C69_3 C 0.5734(11) 0.0460(6) 0.2934(2)
N24_3 N 0.6167(9) 0.1247(5) 0.29668(15)
H68_3 H 0.6033 0.0231 0.2979
H69_3 H 0.5291 0.0256 0.3032
C78_3 C 0.6061(11) 0.1652(6) 0.31218(19)
C79_3 C 0.6767(12) 0.1734(7) 0.2847(2)
N29_3 N 0.6564(9) 0.2370(5) 0.31085(14)
H78_3 H 0.5670 0.1449 0.3229
C84_3 C 0.6996(12) 0.2410(7) 0.2933(2)
H79_3 H 0.6987 0.1618 0.2725
H84_3 H 0.7406 0.2856 0.2878
C23_3 C 0.4254(10) 0.8392(6) 0.18554(18)
C24_3 C 0.3238(10) 0.7815(6) 0.2033(2)
N19_3 N 0.4202(9) 0.8901(5) 0.19884(14)
H23_3 H 0.4651 0.8508 0.1754
C29_3 C 0.3542(10) 0.8527(6) 0.21015(18)
H24_3 H 0.2768 0.7427 0.2082
C34_3 C 0.4755(10) 0.9691(6) 0.20088(18)
H29_3 H 0.3341 0.8726 0.2206
C39_3 C 0.5009(9) 0.9904(5) 0.22484(18)
H38_3 H 0.5189 0.9805 0.1913
H39_3 H 0.4538 0.9991 0.1954
C49_3 C 0.5431(10) 0.9634(6) 0.23445(18)
C59_3 C 0.5657(11) 0.9812(6) 0.2565(2)
H49_3 H 0.5564 0.9329 0.2260
H59_3 H 0.5943 0.9621 0.2631
Cd2_2 Cd -0.0000 0.0000 0.5000
N10_2 N 0.1055(5) 0.0704(7) 0.47809(14)
N14_2 N 0.0350(5) 0.1055(5) 0.52191(14)
C19_2 C 0.1726(6) 0.0805(8) 0.48112(18)
C20_2 C 0.1149(6) 0.1244(8) 0.4633(2)
N17_2 N 0.2235(5) 0.1366(7) 0.46782(14)
H19_2 H 0.1842 0.0524 0.4912
C27_2 C 0.1861(6) 0.1652(8) 0.45651(18)
H20_2 H 0.0761 0.1326 0.4584
C32_2 C 0.3025(6) 0.1603(8) 0.46578(18)
H27_2 H 0.2060 0.2052 0.4460
C37_2 C 0.3238(5) 0.1562(8) 0.44182(18)
H34_2 H 0.3139 0.1283 0.4753
H35_2 H 0.3325 0.2120 0.4712
C44_2 C 0.3673(6) 0.2181(8) 0.4291(2)
C45_2 C 0.2968(6) 0.0870(8) 0.43221(18)
C54_2 C 0.3852(7) 0.2124(10) 0.4074(2)
H44_2 H 0.3854 0.2659 0.4356
C55_2 C 0.3146(6) 0.0822(9) 0.4101(2)
H45_2 H 0.2663 0.0432 0.4406
C62_2 C 0.3588(6) 0.1436(9) 0.39748(19)
H54_2 H 0.4160 0.2561 0.3990
H55_2 H 0.2955 0.0345 0.4035
C67_2 C 0.3794(6) 0.1393(9) 0.3732(2)
N22_2 N 0.4581(5) 0.1747(7) 0.36998(15)
H64_2 H 0.3565 0.0865 0.3687
H65_2 H 0.3590 0.1632 0.3634
C74_2 C 0.4986(6) 0.2258(9) 0.35448(19)
C75_2 C 0.5068(7) 0.1634(10) 0.3819(2)
N27_2 N 0.5704(5) 0.2473(7) 0.35581(14)
H74_2 H 0.4783 0.2446 0.3437
C82_2 C 0.5744(7) 0.2081(10) 0.3733(2)
H75_2 H 0.4952 0.1298 0.3941
H82_2 H 0.6190 0.2117 0.3788
Cd2_3 Cd -0.0000 1.0000 0.5000
C14_2 C 0.0096(6) 0.8851(6) 0.4633(2)
H14_2 H 0.0566 0.9239 0.4584
N13_2 N 0.0704(7) 0.9650(5) 0.52191(14)
Cd2_4 Cd 1.0000 0.0000 0.5000
N11_2 N 0.9296(7) 0.0350(5) 0.47809(14)
C21_2 C 0.9195(8) 0.0920(6) 0.48112(18)
N18_2 N 0.8634(7) 0.0868(5) 0.46782(14)
H21_2 H 0.9476 0.1317 0.4912
C28_2 C 0.8348(8) 0.0208(5) 0.45651(18)
C33_2 C 0.8397(8) 0.1421(6) 0.46578(18)
H28_2 H 0.7948 0.0007 0.4460
C38_2 C 0.8438(8) 0.1675(6) 0.44182(18)
H36_2 H 0.8717 0.1855 0.4753
H37_2 H 0.7880 0.1204 0.4712
C46_2 C 0.7819(8) 0.1491(6) 0.4291(2)
C47_2 C 0.9130(8) 0.2097(6) 0.43221(18)
C56_2 C 0.7876(10) 0.1727(7) 0.4074(2)
H46_2 H 0.7341 0.1194 0.4356
C57_2 C 0.9178(9) 0.2323(7) 0.4101(2)
H47_2 H 0.9568 0.2230 0.4406
C63_2 C 0.8564(9) 0.2151(7) 0.39748(19)
H56_2 H 0.7439 0.1598 0.3990
H57_2 H 0.9655 0.2609 0.4035
C68_2 C 0.8607(9) 0.2400(7) 0.3732(2)
N23_2 N 0.8253(7) 0.2833(5) 0.36998(15)
H66_2 H 0.9135 0.2699 0.3687
H67_2 H 0.8368 0.1957 0.3634
C76_2 C 0.7742(9) 0.2727(7) 0.35448(19)
C77_2 C 0.8366(10) 0.3433(7) 0.3819(2)
N28_2 N 0.7527(7) 0.3230(5) 0.35581(14)
H76_2 H 0.7554 0.2336 0.3437
C83_2 C 0.7919(10) 0.3662(7) 0.3733(2)
H77_2 H 0.8702 0.3653 0.3941
H83_2 H 0.7883 0.4072 0.3788
Cd2_5 Cd 1.0000 1.0000 0.5000
N1_2 N 0.6770(5) 0.4296(5) 0.35581(14)
N2_2 N 0.7167(5) 0.5419(5) 0.36998(15)
N3_2 N 0.9132(5) 0.7765(5) 0.46782(14)
N4_2 N 0.9650(5) 0.8945(5) 0.47809(14)
C1_2 C 0.7273(7) 0.5014(6) 0.35448(19)
H1_2 H 0.7664 0.5217 0.3437
C2_2 C 0.6338(7) 0.4256(7) 0.3733(2)
H2_2 H 0.5928 0.3810 0.3788
C3_2 C 0.6567(7) 0.4932(7) 0.3819(2)
H3_2 H 0.6347 0.5048 0.3941
C4_2 C 0.7600(7) 0.6206(6) 0.3732(2)
H4_2 H 0.7301 0.6435 0.3687
H5_2 H 0.8043 0.6410 0.3634
C5_2 C 0.7849(7) 0.6412(6) 0.39748(19)
C6_2 C 0.8273(7) 0.6148(7) 0.4074(2)
H6_2 H 0.8402 0.5840 0.3990
C7_2 C 0.7677(7) 0.6854(6) 0.4101(2)
H7_2 H 0.7391 0.7045 0.4035
C8_2 C 0.8509(6) 0.6327(6) 0.4291(2)
H8_2 H 0.8806 0.6146 0.4356
C9_2 C 0.7903(6) 0.7032(6) 0.43221(18)
H9_2 H 0.7770 0.7337 0.4406
C10_2 C 0.8325(6) 0.6762(5) 0.44182(18)
C11_2 C 0.8579(6) 0.6975(6) 0.46578(18)
H10_2 H 0.8145 0.6861 0.4753
H11_2 H 0.8796 0.6675 0.4712
C12_2 C 0.9080(6) 0.8274(6) 0.48112(18)
H12_2 H 0.8683 0.8158 0.4912
C13_2 C 0.9792(5) 0.8139(6) 0.45651(18)
H13_2 H 0.9993 0.7940 0.4460
N12_2 N 0.8945(5) 0.9296(7) 0.52191(14)
C22_2 C 0.8756(8) 0.9904(6) 0.4633(2)
C23_4 C 0.8274(6) 0.9195(8) 0.51888(18)
C24_4 C 0.8851(6) 0.8756(8) 0.5367(2)
H22_2 H 0.8674 0.9434 0.4584
N19_4 N 0.7765(5) 0.8634(7) 0.53218(14)
H23_4 H 0.8158 0.9476 0.5088
C29_4 C 0.8139(6) 0.8348(8) 0.54349(18)
H24_4 H 0.9239 0.8674 0.5416
C34_4 C 0.6975(6) 0.8397(8) 0.53422(18)
H29_4 H 0.7940 0.7948 0.5540
C39_4 C 0.6762(5) 0.8438(8) 0.55818(18)
H38_4 H 0.6861 0.8717 0.5247
H39_4 H 0.6675 0.7880 0.5288
C48_4 C 0.6327(6) 0.7819(8) 0.5709(2)
C49_4 C 0.7032(6) 0.9130(8) 0.56779(18)
C58_4 C 0.6148(7) 0.7876(10) 0.5926(2)
H48_4 H 0.6146 0.7341 0.5644
C59_4 C 0.6854(6) 0.9178(9) 0.5899(2)
H49_4 H 0.7337 0.9568 0.5594
C64_4 C 0.6412(6) 0.8564(9) 0.60252(19)
H58_4 H 0.5840 0.7439 0.6010
H59_4 H 0.7045 0.9655 0.5965
C69_4 C 0.6206(6) 0.8607(9) 0.6268(2)
N24_4 N 0.5419(5) 0.8253(7) 0.63002(15)
H68_4 H 0.6435 0.9135 0.6313
H69_4 H 0.6410 0.8368 0.6366
C78_4 C 0.5014(6) 0.7742(9) 0.64552(19)
C79_4 C 0.4932(7) 0.8366(10) 0.6181(2)
N29_4 N 0.4296(5) 0.7527(7) 0.64419(14)
H78_4 H 0.5217 0.7554 0.6563
C84_4 C 0.4256(7) 0.7919(10) 0.6267(2)
H79_4 H 0.5048 0.8702 0.6059
Cd7_2 Cd 0.3333 0.6667 0.6667
H84_4 H 0.3810 0.7883 0.6212
C24_5 C 0.1244(8) 0.0096(10) 0.5367(2)
H24_5 H 0.1326 0.0566 0.5416
C23_5 C 0.0805(8) 0.9080(10) 0.51888(18)
N19_5 N 0.1366(7) 0.9132(9) 0.53218(14)
H23_5 H 0.0524 0.8683 0.5088
C29_5 C 0.1652(8) 0.9792(10) 0.54349(18)
C34_5 C 0.1603(8) 0.8579(10) 0.53422(18)
H29_5 H 0.2052 0.9993 0.5540
C39_5 C 0.1562(8) 0.8325(9) 0.55818(18)
H38_5 H 0.1283 0.8145 0.5247
H39_5 H 0.2120 0.8796 0.5288
C48_5 C 0.2181(8) 0.8509(10) 0.5709(2)
C49_5 C 0.0870(8) 0.7903(10) 0.56779(18)
C58_5 C 0.2124(10) 0.8273(12) 0.5926(2)
H48_5 H 0.2659 0.8806 0.5644
C59_5 C 0.0822(9) 0.7677(11) 0.5899(2)
H49_5 H 0.0432 0.7770 0.5594
C64_5 C 0.1436(9) 0.7849(11) 0.60252(19)
H58_5 H 0.2561 0.8402 0.6010
H59_5 H 0.0345 0.7391 0.5965
C69_5 C 0.1393(9) 0.7600(11) 0.6268(2)
N24_5 N 0.1747(7) 0.7167(9) 0.63002(15)
H68_5 H 0.0865 0.7301 0.6313
H69_5 H 0.1632 0.8043 0.6366
C78_5 C 0.2258(9) 0.7273(11) 0.64552(19)
C79_5 C 0.1634(10) 0.6567(12) 0.6181(2)
N29_5 N 0.2473(7) 0.6770(9) 0.64419(14)
H78_5 H 0.2446 0.7664 0.6563
C84_5 C 0.2081(10) 0.6338(12) 0.6267(2)
H79_5 H 0.1298 0.6347 0.6059
H84_5 H 0.2117 0.5928 0.6212
C23_6 C 0.0920(10) 0.1726(6) 0.51888(18)
N19_6 N 0.0868(9) 0.2235(5) 0.53218(14)
H23_6 H 0.1317 0.1842 0.5088
C29_6 C 0.0208(10) 0.1861(6) 0.54349(18)
C34_6 C 0.1421(10) 0.3025(6) 0.53422(18)
H29_6 H 0.0007 0.2060 0.5540
C39_6 C 0.1675(9) 0.3238(5) 0.55818(18)
H38_6 H 0.1855 0.3139 0.5247
H39_6 H 0.1204 0.3325 0.5288
C48_6 C 0.1491(10) 0.3673(6) 0.5709(2)
C49_6 C 0.2097(10) 0.2968(6) 0.56779(18)
C58_6 C 0.1727(12) 0.3852(7) 0.5926(2)
H48_6 H 0.1194 0.3854 0.5644
C59_6 C 0.2323(11) 0.3146(6) 0.5899(2)
H49_6 H 0.2230 0.2663 0.5594
C64_6 C 0.2151(11) 0.3588(6) 0.60252(19)
H58_6 H 0.1598 0.4160 0.6010
H59_6 H 0.2609 0.2955 0.5965
C69_6 C 0.2400(11) 0.3794(6) 0.6268(2)
N24_6 N 0.2833(9) 0.4581(5) 0.63002(15)
H68_6 H 0.2699 0.3565 0.6313
H69_6 H 0.1957 0.3590 0.6366
C78_6 C 0.2727(11) 0.4986(6) 0.64552(19)
C79_6 C 0.3433(12) 0.5068(7) 0.6181(2)
N29_6 N 0.3230(9) 0.5704(5) 0.64419(14)
H78_6 H 0.2336 0.4783 0.6563
C84_6 C 0.3662(12) 0.5744(7) 0.6267(2)
H79_6 H 0.3653 0.4952 0.6059
H84_6 H 0.4072 0.6190 0.6212
C24_6 C 0.9904(10) 0.1149(6) 0.5367(2)
H24_6 H 0.9434 0.0761 0.5416
C44_3 C 0.0339(6) 0.5515(8) 0.7625(2)
C54_3 C 0.0518(7) 0.5458(10) 0.7408(2)
H44_3 H 0.0520 0.5993 0.7690
C62_3 C 0.0254(6) 0.4770(9) 0.73082(19)
H54_3 H 0.0826 0.5895 0.7324
C67_3 C 0.0460(6) 0.4727(9) 0.7066(2)
N22_3 N 0.1247(5) 0.5081(7) 0.70332(15)
H64_3 H 0.0231 0.4199 0.7021
H65_3 H 0.0256 0.4966 0.6968
C74_3 C 0.1652(6) 0.5592(9) 0.68782(19)
C75_3 C 0.1734(7) 0.4968(10) 0.7153(2)
N27_3 N 0.2370(5) 0.5807(7) 0.68915(14)
H74_3 H 0.1449 0.5780 0.6771
C82_3 C 0.2410(7) 0.5415(10) 0.7067(2)
H75_3 H 0.1618 0.4632 0.7275
H82_3 H 0.2856 0.5451 0.7122
Cd2_6 Cd 0.6666 0.3334 0.8334
N3_3 N 0.5798(5) 0.1099(5) 0.80116(14)
N4_3 N 0.6316(5) 0.2279(5) 0.81143(14)
C7_3 C 0.4343(7) 0.0188(6) 0.7435(2)
H7_3 H 0.4057 0.0379 0.7369
C9_3 C 0.4569(6) 0.0366(6) 0.76555(18)
H9_3 H 0.4436 0.0671 0.7740
C10_3 C 0.4991(6) 0.0096(5) 0.77516(18)
C11_3 C 0.5245(6) 0.0309(6) 0.79912(18)
H10_3 H 0.4811 0.0195 0.8087
H11_3 H 0.5462 0.0009 0.8046
C12_3 C 0.5746(6) 0.1608(6) 0.81446(18)
H12_3 H 0.5349 0.1492 0.8246
C13_3 C 0.6458(5) 0.1473(6) 0.78985(18)
H13_3 H 0.6659 0.1274 0.7794
C14_3 C 0.6762(6) 0.2185(6) 0.7967(2)
H14_3 H 0.7232 0.2573 0.7918
N10_3 N 0.7721(5) 0.4038(7) 0.81143(14)
N11_3 N 0.5962(7) 0.3684(5) 0.81143(14)
N12_3 N 0.5612(5) 0.2629(7) 0.85524(14)
N13_3 N 0.7371(7) 0.2983(5) 0.85524(14)
N14_3 N 0.7017(5) 0.4388(5) 0.85524(14)
C19_3 C 0.8392(6) 0.4139(8) 0.81446(18)
C20_3 C 0.7815(6) 0.4578(8) 0.7967(2)
C21_3 C 0.5861(8) 0.4254(6) 0.81446(18)
C22_3 C 0.5422(8) 0.3238(6) 0.7967(2)
C23_7 C 0.4941(6) 0.2528(8) 0.85221(18)
C24_7 C 0.5518(6) 0.2089(8) 0.8700(2)
N17_3 N 0.8901(5) 0.4700(7) 0.80116(14)
H19_3 H 0.8508 0.3858 0.8246
C27_3 C 0.8527(6) 0.4986(8) 0.78985(18)
H20_3 H 0.7427 0.4660 0.7918
N18_3 N 0.5300(7) 0.4202(5) 0.80116(14)
H21_3 H 0.6142 0.4651 0.8246
C28_3 C 0.5014(8) 0.3542(5) 0.78985(18)
H22_3 H 0.5340 0.2768 0.7918
N19_7 N 0.4432(5) 0.1967(7) 0.86551(14)
H23_7 H 0.4825 0.2809 0.8421
C29_7 C 0.4806(6) 0.1681(8) 0.87682(18)
H24_7 H 0.5906 0.2007 0.8749
C32_3 C 0.9691(6) 0.4937(8) 0.79912(18)
H27_3 H 0.8726 0.5386 0.7794
C33_3 C 0.5063(8) 0.4755(6) 0.79912(18)
H28_3 H 0.4614 0.3341 0.7794
C34_7 C 0.3642(6) 0.1730(8) 0.86755(18)
H29_7 H 0.4607 0.1281 0.8873
C37_3 C 0.9904(5) 0.4896(8) 0.77516(18)
H34_3 H 0.9805 0.4617 0.8087
H35_3 H 0.9991 0.5454 0.8046
C38_3 C 0.5104(8) 0.5009(6) 0.77516(18)
H36_3 H 0.5383 0.5189 0.8087
H37_3 H 0.4546 0.4538 0.8046
C39_7 C 0.3429(5) 0.1771(8) 0.89151(18)
H38_7 H 0.3528 0.2050 0.8580
H39_7 H 0.3342 0.1213 0.8621
C45_3 C 0.9634(6) 0.4204(8) 0.76555(18)
C46_3 C 0.4485(8) 0.4825(6) 0.7625(2)
C47_3 C 0.5796(8) 0.5431(6) 0.76555(18)
C48_7 C 0.2994(6) 0.1152(8) 0.9042(2)
C49_7 C 0.3699(6) 0.2463(8) 0.90112(18)
C55_3 C 0.9812(6) 0.4156(9) 0.7435(2)
H45_3 H 0.9329 0.3766 0.7740
C56_3 C 0.4542(10) 0.5061(7) 0.7408(2)
H46_3 H 0.4007 0.4528 0.7690
C57_3 C 0.5844(9) 0.5657(7) 0.7435(2)
H47_3 H 0.6234 0.5564 0.7740
C58_7 C 0.2815(7) 0.1209(10) 0.9259(2)
H48_7 H 0.2813 0.0674 0.8977
C59_7 C 0.3521(6) 0.2511(9) 0.9232(2)
H49_7 H 0.4004 0.2901 0.8927
H55_3 H 0.9621 0.3679 0.7369
C63_3 C 0.5230(9) 0.5485(7) 0.73082(19)
H56_3 H 0.4105 0.4932 0.7324
H57_3 H 0.6321 0.5943 0.7369
C64_7 C 0.3079(6) 0.1897(9) 0.93585(19)
H58_7 H 0.2507 0.0772 0.9343
H59_7 H 0.3712 0.2988 0.9298
C68_3 C 0.5273(9) 0.5734(7) 0.7066(2)
C69_7 C 0.2873(6) 0.1940(9) 0.9601(2)
N23_3 N 0.4919(7) 0.6167(5) 0.70332(15)
H66_3 H 0.5801 0.6033 0.7021
H67_3 H 0.5034 0.5291 0.6968
N24_7 N 0.2086(5) 0.1586(7) 0.96335(15)
H68_7 H 0.3102 0.2468 0.9646
H69_7 H 0.3077 0.1701 0.9699
C76_3 C 0.4408(9) 0.6061(7) 0.68782(19)
C77_3 C 0.5032(10) 0.6767(7) 0.7153(2)
C78_7 C 0.1681(6) 0.1075(9) 0.97885(19)
C79_7 C 0.1599(7) 0.1699(10) 0.9514(2)
N28_3 N 0.4193(7) 0.6564(5) 0.68915(14)
H76_3 H 0.4220 0.5670 0.6771
C83_3 C 0.4585(10) 0.6996(7) 0.7067(2)
H77_3 H 0.5368 0.6987 0.7275
H78_7 H 0.1884 0.0887 0.9896
C84_7 C 0.0923(7) 0.1252(10) 0.9600(2)
H79_7 H 0.1715 0.2035 0.9392
H83_3 H 0.4549 0.7406 0.7122
H84_7 H 0.0477 0.1216 0.9545
N1_3 N 0.3436(5) 0.7630(5) 0.68915(14)
N2_3 N 0.3833(5) 0.8753(5) 0.70332(15)
C1_3 C 0.3939(7) 0.8348(6) 0.68782(19)
H1_3 H 0.4330 0.8551 0.6771
C2_3 C 0.3004(7) 0.7590(7) 0.7067(2)
H2_3 H 0.2594 0.7144 0.7122
C3_3 C 0.3233(7) 0.8266(7) 0.7153(2)
H3_3 H 0.3013 0.8382 0.7275
C4_3 C 0.4266(7) 0.9540(6) 0.7066(2)
H4_3 H 0.3967 0.9769 0.7021
H5_3 H 0.4709 0.9744 0.6968
C5_3 C 0.4515(7) 0.9746(6) 0.73082(19)
C6_3 C 0.4939(7) 0.9482(7) 0.7408(2)
H6_3 H 0.5068 0.9174 0.7324
C8_3 C 0.5175(6) 0.9661(6) 0.7625(2)
H8_3 H 0.5472 0.9480 0.7690
C23_8 C 0.7472(8) 0.2413(10) 0.85221(18)
C24_8 C 0.7911(8) 0.3429(10) 0.8700(2)
N19_8 N 0.8033(7) 0.2465(9) 0.86551(14)
H23_8 H 0.7191 0.2016 0.8421
C29_8 C 0.8319(8) 0.3125(10) 0.87682(18)
H24_8 H 0.7993 0.3899 0.8749
C34_8 C 0.8270(8) 0.1912(10) 0.86755(18)
H29_8 H 0.8719 0.3326 0.8873
C39_8 C 0.8229(8) 0.1658(9) 0.89151(18)
H38_8 H 0.7950 0.1478 0.8580
H39_8 H 0.8787 0.2129 0.8621
C48_8 C 0.8848(8) 0.1842(10) 0.9042(2)
C49_8 C 0.7537(8) 0.1236(10) 0.90112(18)
C58_8 C 0.8791(10) 0.1606(12) 0.9259(2)
H48_8 H 0.9326 0.2139 0.8977
C59_8 C 0.7489(9) 0.1010(11) 0.9232(2)
H49_8 H 0.7099 0.1103 0.8927
C64_8 C 0.8103(9) 0.1182(11) 0.93585(19)
H58_8 H 0.9228 0.1735 0.9343
H59_8 H 0.7012 0.0724 0.9298
C69_8 C 0.8060(9) 0.0933(11) 0.9601(2)
N24_8 N 0.8414(7) 0.0500(9) 0.96335(15)
H68_8 H 0.7532 0.0634 0.9646
H69_8 H 0.8299 0.1376 0.9699
C78_8 C 0.8925(9) 0.0606(11) 0.97885(19)
H78_8 H 0.9113 0.0997 0.9896
C79_8 C 0.8301(10) 0.9900(12) 0.9514(2)
C84_8 C 0.8748(10) 0.9671(12) 0.9600(2)
H79_8 H 0.7965 0.9680 0.9392
H84_8 H 0.8784 0.9261 0.9545
C79_9 C 0.0100(12) 0.8401(7) 0.9514(2)
C84_9 C 0.0329(12) 0.9077(7) 0.9600(2)
H79_9 H 0.0320 0.8285 0.9392
H84_9 H 0.0739 0.9523 0.9545
C23_9 C 0.7587(10) 0.5059(6) 0.85221(18)
C24_9 C 0.6571(10) 0.4482(6) 0.8700(2)
N19_9 N 0.7535(9) 0.5568(5) 0.86551(14)
H23_9 H 0.7984 0.5175 0.8421
C29_9 C 0.6875(10) 0.5194(6) 0.87682(18)
H24_9 H 0.6101 0.4094 0.8749
C34_9 C 0.8088(10) 0.6358(6) 0.86755(18)
H29_9 H 0.6674 0.5393 0.8873
C39_9 C 0.8342(9) 0.6571(5) 0.89151(18)
H38_9 H 0.8522 0.6472 0.8580
H39_9 H 0.7871 0.6658 0.8621
C48_9 C 0.8158(10) 0.7006(6) 0.9042(2)
C49_9 C 0.8764(10) 0.6301(6) 0.90112(18)
C58_9 C 0.8394(12) 0.7185(7) 0.9259(2)
H48_9 H 0.7861 0.7187 0.8977
C59_9 C 0.8990(11) 0.6479(6) 0.9232(2)
H49_9 H 0.8897 0.5996 0.8927
C64_9 C 0.8818(11) 0.6921(6) 0.93585(19)
H58_9 H 0.8265 0.7493 0.9343
H59_9 H 0.9276 0.6288 0.9298
C69_9 C 0.9067(11) 0.7127(6) 0.9601(2)
N24_9 N 0.9500(9) 0.7914(5) 0.96335(15)
H68_9 H 0.9366 0.6898 0.9646
H69_9 H 0.8624 0.6923 0.9699
C78_9 C 0.9394(11) 0.8319(6) 0.97885(19)
H78_9 H 0.9003 0.8116 0.9896
Cd13 Cd 0.0000 -0.0000 0.15655(2)
Cd13_2 Cd 0.0000 1.0000 0.15655(2)
C130 C 0.5706(6) 0.0366(6) 0.39591(19)
C135 C 0.5682(7) 0.0564(7) 0.4179(2)
H133 H 0.6061 0.0724 0.3858
C143 C 0.5170(7) 0.0100(6) 0.4331(2)
H135 H 0.6041 0.1049 0.4227
C150 C 0.5134(6) 0.0286(6) 0.45705(19)
N51 N 0.5332(5) 0.1078(4) 0.45921(14)
H149 H 0.5481 0.0197 0.4661
C157 C 0.5910(6) 0.1609(6) 0.47076(18)
C158 C 0.4971(6) 0.1404(6) 0.4489(2)
N55 N 0.5956(4) 0.2266(5) 0.46831(15)
H157 H 0.6244 0.1525 0.4795
C159 C 0.5363(6) 0.2135(6) 0.45453(19)
H158 H 0.4539 0.1166 0.4397
Cd11 Cd 0.6667 0.3333 0.48988(2)
H159 H 0.5247 0.2503 0.4497
C167 C 0.8885(7) 0.0007(9) 0.1968(2)
Cd13_3 Cd 1.0000 -0.0000 0.15655(2)
H167 H 0.9278 0.0457 0.2027
Cd9 Cd 0.3333 0.6667 0.32278(2)
N30 N 0.0682(5) 0.1050(5) 0.17923(14)
N31 N 0.1223(4) 0.2205(4) 0.19185(13)
N32 N 0.1572(6) 0.4677(6) 0.28628(17)
N33 N 0.2407(5) 0.5743(5) 0.30002(14)
C85 C 0.0746(5) 0.1703(6) 0.17674(17)
H85 H 0.0489 0.1815 0.1656
C86 C 0.1467(7) 0.1815(6) 0.2045(2)
H86 H 0.1815 0.2006 0.2166
C87 C 0.1122(6) 0.1115(7) 0.1968(2)
H87 H 0.1179 0.0722 0.2027
C88 C 0.1453(6) 0.2980(5) 0.19303(18)
H88 H 0.1152 0.3088 0.1824
H89 H 0.1980 0.3277 0.1884
C89 C 0.1365(6) 0.3212(6) 0.21669(19)
C90 C 0.0671(6) 0.3015(5) 0.22493(18)
H90 H 0.0243 0.2728 0.2159
C91 C 0.1988(7) 0.3645(7) 0.2293(2)
H91 H 0.2469 0.3803 0.2233
C92 C 0.0599(6) 0.3233(6) 0.24630(19)
H92 H 0.0118 0.3090 0.2519
C93 C 0.1901(7) 0.3847(8) 0.2511(2)
H93 H 0.2325 0.4125 0.2603
C94 C 0.1197(7) 0.3645(6) 0.2593(2)
C95 C 0.1127(8) 0.3883(7) 0.2826(2)
H94 H 0.0599 0.3725 0.2855
H95 H 0.1276 0.3625 0.2937
C96 C 0.1501(7) 0.5210(8) 0.2743(2)
H96 H 0.1167 0.5136 0.2624
C97 C 0.2116(7) 0.5030(7) 0.3013(2)
H97 H 0.2270 0.4787 0.3117
C98 C 0.2022(6) 0.5866(7) 0.28366(19)
H98 H 0.2104 0.6341 0.2794
N37 N 0.4262(5) 0.7612(6) 0.34496(16)
C110 C 0.4417(8) 0.8296(8) 0.3456(2)
H110 H 0.4170 0.8492 0.3369
C112 C 0.4739(7) 0.7561(8) 0.3598(2)
H112 H 0.4756 0.7121 0.3629
N40 N 0.1067(5) 0.0356(6) 0.13498(15)
N42 N 0.4257(5) 0.6664(7) 0.30002(14)
N43 N 0.3336(7) 0.7593(5) 0.30002(14)
N44 N 0.2388(6) 0.6650(8) 0.34496(16)
N45 N 0.3350(8) 0.5738(5) 0.34496(16)
N46 N 0.4975(7) 0.8692(7) 0.36002(19)
C115 C 0.5174(9) 0.8216(10) 0.3695(3)
C118 C 0.4970(7) 0.7086(10) 0.3013(2)
C119 C 0.4134(7) 0.6156(9) 0.28366(19)
C120 C 0.2914(10) 0.7884(7) 0.3013(2)
C121 C 0.3844(9) 0.7978(6) 0.28366(19)
C122 C 0.5269(10) 0.9497(8) 0.3639(2)
H115 H 0.5546 0.8330 0.3805
N49 N 0.5323(6) 0.6895(8) 0.28628(17)
H118 H 0.5213 0.7483 0.3117
C124 C 0.4790(8) 0.6291(11) 0.2743(2)
H119 H 0.3659 0.5763 0.2794
N50 N 0.3105(8) 0.8428(6) 0.28628(17)
H120 H 0.2517 0.7730 0.3117
C125 C 0.3709(11) 0.8499(7) 0.2743(2)
H121 H 0.4237 0.7896 0.2794
C126 C 0.5239(8) 0.9678(7) 0.3884(2)
H122 H 0.4976 0.9662 0.3549
H123 H 0.5790 0.9778 0.3586
C128 C 0.6117(7) 0.7244(11) 0.2826(2)
H125 H 0.4864 0.6031 0.2624
C129 C 0.2756(11) 0.8873(8) 0.2826(2)
H126 H 0.3969 0.8833 0.2624
C131 C 0.4756(9) 0.9160(8) 0.4042(2)
C133 C 0.6355(6) 0.7552(9) 0.2593(2)
H129 H 0.6275 0.6874 0.2855
H130 H 0.6375 0.7651 0.2937
C134 C 0.2448(9) 0.8803(7) 0.2593(2)
H131 H 0.3126 0.9401 0.2855
H132 H 0.2349 0.8724 0.2937
C136 C 0.4701(8) 0.9382(8) 0.4256(2)
H134 H 0.4465 0.8651 0.4000
C139 C 0.6767(6) 0.7366(8) 0.24630(19)
C140 C 0.6153(8) 0.8054(11) 0.2511(2)
C141 C 0.2634(8) 0.9401(6) 0.24630(19)
C142 C 0.1946(11) 0.8099(7) 0.2511(2)
H136 H 0.4332 0.9033 0.4355
C146 C 0.6985(5) 0.7656(8) 0.22493(18)
H139 H 0.6910 0.7028 0.2519
C147 C 0.6355(7) 0.8343(10) 0.2293(2)
H140 H 0.5875 0.8200 0.2603
C148 C 0.2344(8) 0.9329(6) 0.22493(18)
H141 H 0.2972 0.9882 0.2519
C149 C 0.1657(10) 0.8012(7) 0.2293(2)
H142 H 0.1800 0.7675 0.2603
C152 C 0.6788(6) 0.8153(8) 0.21669(19)
H145 H 0.7272 0.7515 0.2159
H146 H 0.6197 0.8666 0.2233
C153 C 0.1847(8) 0.8635(6) 0.21669(19)
H147 H 0.2485 0.9757 0.2159
H148 H 0.1334 0.7531 0.2233
H150 H 0.4625 0.9961 0.4629
C155 C 0.7020(5) 0.8473(8) 0.19303(18)
C156 C 0.1527(8) 0.8547(6) 0.19303(18)
N53 N 0.7795(4) 0.9018(6) 0.19185(13)
H153 H 0.6912 0.8064 0.1824
H154 H 0.6723 0.8703 0.1884
N54 N 0.0982(6) 0.8777(4) 0.19185(13)
H155 H 0.1936 0.8848 0.1824
H156 H 0.1297 0.8020 0.1884
C162 C 0.8297(6) 0.9043(8) 0.17674(17)
C163 C 0.8185(6) 0.9652(9) 0.2045(2)
C164 C 0.0957(8) 0.9254(5) 0.17674(17)
C165 C 0.0348(9) 0.8533(7) 0.2045(2)
N57 N 0.8950(5) 0.9632(7) 0.17923(14)
H162 H 0.8185 0.8674 0.1656
H163 H 0.7994 0.9809 0.2166
N58 N 0.0368(7) 0.9318(5) 0.17923(14)
H164 H 0.1326 0.9511 0.1656
H165 H 0.0191 0.8185 0.2166
Cd13_4 Cd 1.0000 1.0000 0.15655(2)
N41 N 0.9644(6) 0.0711(4) 0.13498(15)
C168 C 0.9993(9) 0.8878(6) 0.1968(2)
H168 H 0.9543 0.8821 0.2027
N34 N 0.9289(4) 0.8933(5) 0.13498(15)
N35 N 0.8665(5) 0.7745(4) 0.12588(14)
N36 N 0.8308(7) 0.5359(7) 0.02669(19)
C99 C 0.9243(6) 0.8276(6) 0.13743(18)
H99 H 0.9577 0.8192 0.1462
C100 C 0.8696(6) 0.8802(6) 0.12120(19)
H100 H 0.8580 0.9170 0.1164
C101 C 0.8304(6) 0.8071(6) 0.1156(2)
H101 H 0.7872 0.7833 0.1064
C102 C 0.8467(6) 0.6953(6) 0.12372(19)
H102 H 0.8814 0.6864 0.1328
H103 H 0.7958 0.6628 0.1296
C103 C 0.8503(7) 0.6767(6) 0.0998(2)
C104 C 0.9015(7) 0.7231(7) 0.0846(2)
H104 H 0.9374 0.7716 0.0894
C105 C 0.8034(8) 0.6049(8) 0.0923(2)
H105 H 0.7665 0.5700 0.1022
C106 C 0.9039(6) 0.7033(6) 0.06258(19)
H106 H 0.9394 0.7391 0.0525
C107 C 0.8089(9) 0.5827(8) 0.0709(2)
H107 H 0.7798 0.5318 0.0667
C108 C 0.8572(8) 0.6345(7) 0.0551(2)
C109 C 0.8602(10) 0.6164(8) 0.0306(2)
H108 H 0.8309 0.6329 0.0216
H109 H 0.9123 0.6445 0.0253
C111 C 0.8507(9) 0.4883(10) 0.0362(3)
H111 H 0.8879 0.4997 0.0472
C113 C 0.7750(8) 0.4963(8) 0.0123(2)
C114 C 0.8072(7) 0.4228(8) 0.0265(2)
N47 N 0.7595(5) 0.4279(6) 0.01163(16)
H113 H 0.7503 0.5159 0.0036
H114 H 0.8089 0.3788 0.0296
Cd10 Cd 0.6666 0.3334 0.98945(2)
N35_2 N 0.2255(4) 0.0920(6) 0.12588(14)
N36_2 N 0.4641(7) 0.2949(10) 0.02669(19)
C99_2 C 0.1724(6) 0.0967(8) 0.13743(18)
H99_2 H 0.1808 0.1385 0.1462
C101_2 C 0.1929(6) 0.0233(8) 0.1156(2)
H101_2 H 0.2167 0.0039 0.1064
C102_2 C 0.3047(6) 0.1514(8) 0.12372(19)
H102_2 H 0.3136 0.1950 0.1328
H103_2 H 0.3372 0.1330 0.1296
C103_2 C 0.3233(6) 0.1736(9) 0.0998(2)
C104_2 C 0.2769(7) 0.1784(10) 0.0846(2)
H104_2 H 0.2284 0.1658 0.0894
C105_2 C 0.3951(8) 0.1985(11) 0.0923(2)
H105_2 H 0.4300 0.1965 0.1022
C106_2 C 0.2967(6) 0.2006(8) 0.06258(19)
H106_2 H 0.2609 0.2003 0.0525
C107_2 C 0.4173(8) 0.2262(12) 0.0709(2)
H107_2 H 0.4682 0.2480 0.0667
C108_2 C 0.3655(7) 0.2227(11) 0.0551(2)
C109_2 C 0.3836(8) 0.2438(13) 0.0306(2)
H108_2 H 0.3671 0.1980 0.0216
H109_2 H 0.3555 0.2678 0.0253
C111_2 C 0.5117(10) 0.3624(13) 0.0362(3)
H111_2 H 0.5003 0.3882 0.0472
C113_2 C 0.5037(8) 0.2788(11) 0.0123(2)
C114_2 C 0.5772(8) 0.3845(11) 0.0265(2)
N47_2 N 0.5721(6) 0.3317(8) 0.01163(16)
H113_2 H 0.4841 0.2345 0.0036
H114_2 H 0.6212 0.4302 0.0296
C100_2 C 0.1198(6) 0.9894(8) 0.12120(19)
H100_2 H 0.0830 0.9410 0.1164
C110_2 C 0.1704(8) 0.6121(11) 0.3456(2)
H110_2 H 0.1508 0.5678 0.3369
C112_2 C 0.2439(8) 0.7178(11) 0.3598(2)
H112_2 H 0.2879 0.7635 0.3629
N46_2 N 0.1308(7) 0.6282(10) 0.36002(19)
C115_2 C 0.1784(10) 0.6957(13) 0.3695(3)
C122_2 C 0.0503(8) 0.5771(13) 0.3639(2)
H115_2 H 0.1670 0.7215 0.3805
C126_2 C 0.0322(7) 0.5560(11) 0.3884(2)
H122_2 H 0.0338 0.5313 0.3549
H123_2 H 0.0222 0.6011 0.3586
C131_2 C 0.0840(8) 0.5595(12) 0.4042(2)
C136_2 C 0.0618(8) 0.5318(11) 0.4256(2)
H134_2 H 0.1349 0.5813 0.4000
H136_2 H 0.0967 0.5298 0.4355
H150_2 H 0.0039 0.4663 0.4629
C130_2 C 0.9634(6) 0.5339(8) 0.39591(19)
C135_2 C 0.9436(7) 0.5117(10) 0.4179(2)
H133_2 H 0.9276 0.5336 0.3858
C143_2 C 0.9900(6) 0.5069(9) 0.4331(2)
H135_2 H 0.8951 0.4991 0.4227
C150_2 C 0.9714(6) 0.4847(8) 0.45705(19)
N51_2 N 0.8922(4) 0.4253(6) 0.45921(14)
H149_2 H 0.9803 0.5283 0.4661
C157_2 C 0.8391(6) 0.4300(8) 0.47076(18)
C158_2 C 0.8596(6) 0.3566(8) 0.4489(2)
N55_2 N 0.7734(5) 0.3689(6) 0.46831(15)
H157_2 H 0.8475 0.4718 0.4795
C159_2 C 0.7865(6) 0.3227(8) 0.45453(19)
H158_2 H 0.8834 0.3372 0.4397
H159_2 H 0.7497 0.2743 0.4497
C100_3 C 0.0106(8) 0.1304(6) 0.12120(19)
H100_3 H 0.0590 0.1420 0.1164
C110_3 C 0.3879(11) 0.5583(8) 0.3456(2)
H110_3 H 0.4322 0.5830 0.3369
C112_3 C 0.2822(11) 0.5261(7) 0.3598(2)
H112_3 H 0.2365 0.5244 0.3629
N46_3 N 0.3718(10) 0.5025(7) 0.36002(19)
C115_3 C 0.3043(13) 0.4826(9) 0.3695(3)
C122_3 C 0.4229(13) 0.4731(10) 0.3639(2)
H115_3 H 0.2785 0.4454 0.3805
C126_3 C 0.4440(11) 0.4761(8) 0.3884(2)
H122_3 H 0.4687 0.5024 0.3549
H123_3 H 0.3989 0.4210 0.3586
C130_3 C 0.4661(8) 0.4294(6) 0.39591(19)
C131_3 C 0.4405(12) 0.5244(9) 0.4042(2)
C135_3 C 0.4883(10) 0.4318(7) 0.4179(2)
H133_3 H 0.4664 0.3939 0.3858
C136_3 C 0.4682(11) 0.5299(8) 0.4256(2)
H134_3 H 0.4187 0.5535 0.4000
C143_3 C 0.4931(9) 0.4830(7) 0.4331(2)
H135_3 H 0.5009 0.3959 0.4227
H136_3 H 0.4702 0.5668 0.4355
C150_3 C 0.5153(8) 0.4866(6) 0.45705(19)
N51_3 N 0.5747(6) 0.4668(5) 0.45921(14)
H149_3 H 0.4717 0.4519 0.4661
H150_3 H 0.5337 0.5375 0.4629
C157_3 C 0.5700(8) 0.4090(6) 0.47076(18)
C158_3 C 0.6434(8) 0.5029(6) 0.4489(2)
N55_3 N 0.6311(6) 0.4044(4) 0.46831(15)
H157_3 H 0.5282 0.3756 0.4795
C159_3 C 0.6773(8) 0.4637(6) 0.45453(19)
H158_3 H 0.6628 0.5461 0.4397
H159_3 H 0.7257 0.4753 0.4497
N35_3 N 0.9080(6) 0.1335(5) 0.12588(14)
N36_3 N 0.7051(10) 0.1692(7) 0.02669(19)
C99_3 C 0.9033(8) 0.0757(6) 0.13743(18)
H99_3 H 0.8615 0.0423 0.1462
C101_3 C 0.9767(8) 0.1696(6) 0.1156(2)
H101_3 H 0.9961 0.2128 0.1064
C102_3 C 0.8486(8) 0.1533(6) 0.12372(19)
H102_3 H 0.8050 0.1186 0.1328
H103_3 H 0.8670 0.2042 0.1296
C103_3 C 0.8264(9) 0.1497(7) 0.0998(2)
C104_3 C 0.8216(10) 0.0985(7) 0.0846(2)
H104_3 H 0.8342 0.0626 0.0894
C105_3 C 0.8015(11) 0.1966(8) 0.0923(2)
H105_3 H 0.8035 0.2335 0.1022
C106_3 C 0.7994(8) 0.0961(6) 0.06258(19)
H106_3 H 0.7997 0.0606 0.0525
C107_3 C 0.7738(12) 0.1911(9) 0.0709(2)
H107_3 H 0.7520 0.2202 0.0667
C108_3 C 0.7773(11) 0.1428(8) 0.0551(2)
C109_3 C 0.7562(13) 0.1398(10) 0.0306(2)
H108_3 H 0.8020 0.1691 0.0216
H109_3 H 0.7322 0.0877 0.0253
C111_3 C 0.6376(13) 0.1493(9) 0.0362(3)
H111_3 H 0.6118 0.1121 0.0472
C113_3 C 0.7212(11) 0.2250(8) 0.0123(2)
C114_3 C 0.6155(11) 0.1928(7) 0.0265(2)
N47_3 N 0.6683(8) 0.2405(5) 0.01163(16)
H113_3 H 0.7655 0.2497 0.0036
H114_3 H 0.5698 0.1911 0.0296
Cd9_2 Cd -0.0000 0.0000 0.65611(2)
N37_2 N 0.0929(5) 0.0945(6) 0.67829(16)
C110_4 C 0.1084(8) 0.1629(8) 0.6789(2)
H110_4 H 0.0837 0.1825 0.6702
C112_4 C 0.1406(7) 0.0894(8) 0.6931(2)
H112_4 H 0.1423 0.0454 0.6962
N43_2 N 0.0003(7) 0.0926(5) 0.63335(14)
N46_4 N 0.1641(7) 0.2026(7) 0.69336(19)
C115_4 C 0.1840(9) 0.1550(10) 0.7029(3)
C118_2 C 0.1637(7) 0.0419(10) 0.6346(2)
C121_2 C 0.0511(9) 0.1311(6) 0.61699(19)
C122_4 C 0.1935(10) 0.2831(8) 0.6973(2)
H115_4 H 0.2212 0.1664 0.7139
N49_2 N 0.1990(6) 0.0228(8) 0.61961(17)
H118_2 H 0.1880 0.0816 0.6450
C125_2 C 0.0376(11) 0.1832(7) 0.6076(2)
H121_2 H 0.0904 0.1229 0.6127
C126_4 C 0.1905(8) 0.3012(7) 0.7218(2)
H122_4 H 0.1642 0.2996 0.6883
H123_4 H 0.2456 0.3112 0.6920
C128_2 C 0.2784(7) 0.0577(11) 0.6159(2)
H126_2 H 0.0636 0.2166 0.5957
C130_4 C 0.2372(6) 0.3700(6) 0.72925(19)
C131_4 C 0.1422(9) 0.2494(8) 0.7376(2)
C133_2 C 0.3022(6) 0.0885(9) 0.5926(2)
H129_2 H 0.2942 0.0207 0.6188
H130_2 H 0.3042 0.0984 0.6270
C135_4 C 0.2348(7) 0.3898(7) 0.7513(2)
H133_4 H 0.2727 0.4058 0.7192
C136_4 C 0.1367(8) 0.2716(8) 0.7590(2)
H134_4 H 0.1131 0.1985 0.7334
C139_2 C 0.3434(6) 0.0699(8) 0.57963(19)
C140_2 C 0.2820(8) 0.1387(11) 0.5844(2)
C143_4 C 0.1836(7) 0.3434(6) 0.7665(2)
H135_4 H 0.2707 0.4383 0.7561
H136_4 H 0.0998 0.2367 0.7689
C146_2 C 0.3652(5) 0.0989(8) 0.55826(18)
H139_2 H 0.3577 0.0361 0.5852
C147_2 C 0.3022(7) 0.1676(10) 0.5626(2)
H140_2 H 0.2542 0.1533 0.5936
C150_4 C 0.1800(6) 0.3620(6) 0.79039(19)
C152_2 C 0.3455(6) 0.1486(8) 0.55002(19)
H145_2 H 0.3939 0.0848 0.5492
H146_2 H 0.2864 0.1999 0.5566
N51_4 N 0.1998(5) 0.4412(4) 0.79255(14)
H149_4 H 0.2147 0.3531 0.7995
H150_4 H 0.1291 0.3295 0.7963
C155_2 C 0.3687(5) 0.1806(8) 0.52636(18)
C157_4 C 0.2576(6) 0.4943(6) 0.80410(18)
C158_4 C 0.1637(6) 0.4738(6) 0.7823(2)
N53_2 N 0.4462(4) 0.2351(6) 0.52518(13)
H153_2 H 0.3579 0.1397 0.5157
H154_2 H 0.3390 0.2036 0.5217
N55_4 N 0.2622(4) 0.5600(5) 0.80165(15)
H157_4 H 0.2910 0.4859 0.8129
C159_4 C 0.2029(6) 0.5469(6) 0.78787(19)
H158_4 H 0.1205 0.4500 0.7731
C162_2 C 0.4964(6) 0.2376(8) 0.51007(17)
C163_2 C 0.4852(6) 0.2985(9) 0.5378(2)
Cd11_2 Cd 0.3333 0.6667 0.82322(2)
H159_4 H 0.1913 0.5837 0.7831
N57_2 N 0.5617(5) 0.2965(7) 0.51256(14)
H162_2 H 0.4852 0.2007 0.4989
H163_2 H 0.4661 0.3142 0.5499
C167_2 C 0.5552(7) 0.3340(9) 0.5301(2)
H167_2 H 0.5945 0.3790 0.5360
Cd9_3 Cd -0.0000 1.0000 0.65611(2)
N42_2 N 0.0924(5) 0.9997(7) 0.63335(14)
N45_2 N 0.0017(8) 0.9071(5) 0.67829(16)
C119_2 C 0.0801(7) 0.9489(9) 0.61699(19)
C124_2 C 0.1457(8) 0.9624(11) 0.6076(2)
H119_2 H 0.0326 0.9096 0.6127
H125_2 H 0.1531 0.9364 0.5957
Cd9_4 Cd 1.0000 0.0000 0.65611(2)
C120_2 C 0.9581(10) 0.1217(7) 0.6346(2)
N50_2 N 0.9772(8) 0.1761(6) 0.61961(17)
H120_2 H 0.9184 0.1063 0.6450
C129_2 C 0.9423(11) 0.2206(8) 0.6159(2)
C134_2 C 0.9115(9) 0.2136(7) 0.5926(2)
H131_2 H 0.9793 0.2734 0.6188
H132_2 H 0.9016 0.2057 0.6270
C141_2 C 0.9301(8) 0.2734(6) 0.57963(19)
C142_2 C 0.8613(11) 0.1432(7) 0.5844(2)
C148_2 C 0.9011(8) 0.2662(6) 0.55826(18)
H141_2 H 0.9639 0.3215 0.5852
C149_2 C 0.8324(10) 0.1345(7) 0.5626(2)
H142_2 H 0.8467 0.1008 0.5936
C153_2 C 0.8514(8) 0.1968(6) 0.55002(19)
H147_2 H 0.9152 0.3090 0.5492
H148_2 H 0.8001 0.0864 0.5566
C156_2 C 0.8194(8) 0.1880(6) 0.52636(18)
N54_2 N 0.7649(6) 0.2110(4) 0.52518(13)
H155_2 H 0.8603 0.2181 0.5157
H156_2 H 0.7964 0.1353 0.5217
C164_2 C 0.7624(8) 0.2587(5) 0.51007(17)
C165_2 C 0.7015(9) 0.1866(7) 0.5378(2)
N58_2 N 0.7035(7) 0.2651(5) 0.51256(14)
H164_2 H 0.7993 0.2844 0.4989
H165_2 H 0.6858 0.1518 0.5499
C168_2 C 0.6660(9) 0.2211(6) 0.5301(2)
H168_2 H 0.6210 0.2154 0.5360
Cd9_5 Cd 1.0000 1.0000 0.65611(2)
N30_2 N 0.7349(5) 0.4383(5) 0.51256(14)
N31_2 N 0.7890(4) 0.5538(4) 0.52518(13)
N32_2 N 0.8239(6) 0.8010(6) 0.61961(17)
N33_2 N 0.9074(5) 0.9076(5) 0.63335(14)
C85_2 C 0.7413(5) 0.5036(6) 0.51007(17)
H85_2 H 0.7156 0.5148 0.4989
C86_2 C 0.8134(7) 0.5148(6) 0.5378(2)
H86_2 H 0.8482 0.5339 0.5499
C87_2 C 0.7789(6) 0.4448(7) 0.5301(2)
H87_2 H 0.7846 0.4055 0.5360
C88_2 C 0.8120(6) 0.6313(5) 0.52636(18)
H88_2 H 0.7819 0.6421 0.5157
H89_2 H 0.8647 0.6610 0.5217
C89_2 C 0.8032(6) 0.6545(6) 0.55002(19)
C90_2 C 0.7338(6) 0.6348(5) 0.55826(18)
H90_2 H 0.6910 0.6061 0.5492
C91_2 C 0.8655(7) 0.6978(7) 0.5626(2)
H91_2 H 0.9136 0.7136 0.5566
C92_2 C 0.7266(6) 0.6566(6) 0.57963(19)
H92_2 H 0.6785 0.6423 0.5852
C93_2 C 0.8568(7) 0.7180(8) 0.5844(2)
H93_2 H 0.8992 0.7458 0.5936
C94_2 C 0.7864(7) 0.6978(6) 0.5926(2)
C95_2 C 0.7794(8) 0.7216(7) 0.6159(2)
H94_2 H 0.7266 0.7058 0.6188
H95_2 H 0.7943 0.6958 0.6270
C96_2 C 0.8168(7) 0.8543(8) 0.6076(2)
H96_2 H 0.7834 0.8469 0.5957
C97_2 C 0.8783(7) 0.8363(7) 0.6346(2)
H97_2 H 0.8937 0.8120 0.6450
C98_2 C 0.8689(6) 0.9199(7) 0.61699(19)
H98_2 H 0.8771 0.9674 0.6127
N44_2 N 0.9055(6) 0.9983(8) 0.67829(16)
C112_5 C 0.9106(8) 0.0511(11) 0.6931(2)
H112_5 H 0.9546 0.0968 0.6962
C115_5 C 0.8450(10) 0.0291(13) 0.7029(3)
H115_5 H 0.8336 0.0549 0.7139
C110_5 C 0.8371(8) 0.9454(11) 0.6789(2)
H110_5 H 0.8175 0.9011 0.6702
N46_5 N 0.7974(7) 0.9616(10) 0.69336(19)
C122_5 C 0.7169(8) 0.9105(13) 0.6973(2)
C126_5 C 0.6988(7) 0.8894(11) 0.7218(2)
H122_5 H 0.7004 0.8647 0.6883
H123_5 H 0.6888 0.9345 0.6920
C130_5 C 0.6300(6) 0.8673(8) 0.72925(19)
C131_5 C 0.7506(8) 0.8929(12) 0.7376(2)
C135_5 C 0.6102(7) 0.8451(10) 0.7513(2)
H133_5 H 0.5942 0.8670 0.7192
C136_5 C 0.7284(8) 0.8652(11) 0.7590(2)
H134_5 H 0.8015 0.9147 0.7334
C143_5 C 0.6566(6) 0.8403(9) 0.7665(2)
H135_5 H 0.5617 0.8325 0.7561
H136_5 H 0.7633 0.8632 0.7689
C150_5 C 0.6380(6) 0.8181(8) 0.79039(19)
N51_5 N 0.5588(4) 0.7587(6) 0.79255(14)
H149_5 H 0.6469 0.8617 0.7995
H150_5 H 0.6705 0.7997 0.7963
C157_5 C 0.5057(6) 0.7634(8) 0.80410(18)
C158_5 C 0.5262(6) 0.6900(8) 0.7823(2)
N55_5 N 0.4400(5) 0.7023(6) 0.80165(15)
H157_5 H 0.5141 0.8052 0.8129
C159_5 C 0.4531(6) 0.6561(8) 0.78787(19)
H158_5 H 0.5500 0.6706 0.7731
H159_5 H 0.4163 0.6077 0.7831
C110_6 C 0.0546(11) 0.8916(8) 0.6789(2)
H110_6 H 0.0989 0.9163 0.6702
N46_6 N 0.0384(10) 0.8359(7) 0.69336(19)
C122_6 C 0.0895(13) 0.8065(10) 0.6973(2)
C126_6 C 0.1106(11) 0.8095(8) 0.7218(2)
H122_6 H 0.1353 0.8358 0.6883
H123_6 H 0.0655 0.7544 0.6920
C130_6 C 0.1327(8) 0.7628(6) 0.72925(19)
C131_6 C 0.1071(12) 0.8578(9) 0.7376(2)
C135_6 C 0.1549(10) 0.7652(7) 0.7513(2)
H133_6 H 0.1330 0.7273 0.7192
C136_6 C 0.1348(11) 0.8633(8) 0.7590(2)
H134_6 H 0.0853 0.8869 0.7334
C143_6 C 0.1597(9) 0.8164(7) 0.7665(2)
H135_6 H 0.1675 0.7293 0.7561
H136_6 H 0.1368 0.9002 0.7689
C150_6 C 0.1819(8) 0.8200(6) 0.79039(19)
N51_6 N 0.2413(6) 0.8002(5) 0.79255(14)
H149_6 H 0.1383 0.7853 0.7995
H150_6 H 0.2003 0.8709 0.7963
C157_6 C 0.2366(8) 0.7424(6) 0.80410(18)
C158_6 C 0.3100(8) 0.8363(6) 0.7823(2)
N55_6 N 0.2977(6) 0.7378(4) 0.80165(15)
H157_6 H 0.1948 0.7090 0.8129
C159_6 C 0.3439(8) 0.7971(6) 0.78787(19)
H158_6 H 0.3294 0.8795 0.7731
H159_6 H 0.3923 0.8087 0.7831
C112_6 C 0.9489(11) 0.8594(7) 0.6931(2)
H112_6 H 0.9032 0.8577 0.6962
C115_6 C 0.9709(13) 0.8160(9) 0.7029(3)
H115_6 H 0.9451 0.7788 0.7139
C139_3 C 0.0100(6) 0.4033(8) 0.91297(19)
C146_3 C 0.0318(5) 0.4323(8) 0.89160(18)
H139_3 H 0.0243 0.3695 0.9186
C152_3 C 0.0121(6) 0.4820(8) 0.88336(19)
H145_3 H 0.0605 0.4182 0.8826
C155_3 C 0.0353(5) 0.5140(8) 0.85970(18)
N53_3 N 0.1128(4) 0.5685(6) 0.85852(13)
H153_3 H 0.0245 0.4731 0.8491
H154_3 H 0.0056 0.5370 0.8551
C162_3 C 0.1630(6) 0.5710(8) 0.84341(17)
C163_3 C 0.1518(6) 0.6319(9) 0.8712(2)
N57_3 N 0.2283(5) 0.6299(7) 0.84590(14)
H162_3 H 0.1518 0.5341 0.8323
H163_3 H 0.1327 0.6476 0.8833
C167_3 C 0.2218(7) 0.6674(9) 0.8635(2)
H167_3 H 0.2611 0.7124 0.8694
N32_3 N 0.4905(6) 0.1344(6) 0.95295(17)
N33_3 N 0.5740(5) 0.2410(5) 0.96669(14)
C91_3 C 0.5321(7) 0.0312(7) 0.8960(2)
H91_3 H 0.5802 0.0470 0.8900
C93_3 C 0.5234(7) 0.0514(8) 0.9178(2)
H93_3 H 0.5658 0.0792 0.9270
C94_3 C 0.4530(7) 0.0312(6) 0.9260(2)
C95_3 C 0.4460(8) 0.0550(7) 0.9493(2)
H94_3 H 0.3932 0.0392 0.9522
H95_3 H 0.4609 0.0292 0.9604
C96_3 C 0.4834(7) 0.1877(8) 0.9410(2)
H96_3 H 0.4500 0.1803 0.9291
C97_3 C 0.5449(7) 0.1697(7) 0.9680(2)
H97_3 H 0.5603 0.1454 0.9784
C98_3 C 0.5355(6) 0.2533(7) 0.95033(19)
H98_3 H 0.5437 0.3008 0.9461
N42_3 N 0.7590(5) 0.3331(7) 0.96669(14)
N43_3 N 0.6669(7) 0.4260(5) 0.96669(14)
C118_3 C 0.8303(7) 0.3753(10) 0.9680(2)
C119_3 C 0.7467(7) 0.2823(9) 0.95033(19)
C120_3 C 0.6247(10) 0.4551(7) 0.9680(2)
C121_3 C 0.7177(9) 0.4645(6) 0.95033(19)
N49_3 N 0.8656(6) 0.3562(8) 0.95295(17)
H118_3 H 0.8546 0.4150 0.9784
C124_3 C 0.8123(8) 0.2958(11) 0.9410(2)
H119_3 H 0.6992 0.2430 0.9461
N50_3 N 0.6438(8) 0.5095(6) 0.95295(17)
H120_3 H 0.5850 0.4397 0.9784
C125_3 C 0.7042(11) 0.5166(7) 0.9410(2)
H121_3 H 0.7570 0.4563 0.9461
C128_3 C 0.9450(7) 0.3911(11) 0.9493(2)
H125_3 H 0.8197 0.2698 0.9291
C129_3 C 0.6089(11) 0.5540(8) 0.9493(2)
H126_3 H 0.7302 0.5500 0.9291
C133_3 C 0.9688(6) 0.4219(9) 0.9260(2)
H129_3 H 0.9608 0.3541 0.9522
H130_3 H 0.9708 0.4318 0.9604
C134_3 C 0.5781(9) 0.5470(7) 0.9260(2)
H131_3 H 0.6459 0.6068 0.9522
H132_3 H 0.5682 0.5391 0.9604
C140_3 C 0.9486(8) 0.4721(11) 0.9178(2)
C141_3 C 0.5967(8) 0.6068(6) 0.91297(19)
C142_3 C 0.5279(11) 0.4766(7) 0.9178(2)
C147_3 C 0.9688(7) 0.5010(10) 0.8960(2)
H140_3 H 0.9208 0.4867 0.9270
C148_3 C 0.5677(8) 0.5996(6) 0.89160(18)
H141_3 H 0.6305 0.6549 0.9186
C149_3 C 0.4990(10) 0.4679(7) 0.8960(2)
H142_3 H 0.5133 0.4342 0.9270
H146_3 H 0.9530 0.5333 0.8900
C153_3 C 0.5180(8) 0.5302(6) 0.88336(19)
H147_3 H 0.5818 0.6424 0.8826
H148_3 H 0.4667 0.4198 0.8900
C156_3 C 0.4860(8) 0.5214(6) 0.85970(18)
N54_3 N 0.4315(6) 0.5444(4) 0.85852(13)
H155_3 H 0.5269 0.5515 0.8491
H156_3 H 0.4630 0.4687 0.8551
C164_3 C 0.4290(8) 0.5921(5) 0.84341(17)
C165_3 C 0.3681(9) 0.5200(7) 0.8712(2)
N58_3 N 0.3701(7) 0.5985(5) 0.84590(14)
H164_3 H 0.4659 0.6178 0.8323
H165_3 H 0.3524 0.4852 0.8833
C168_3 C 0.3326(9) 0.5545(6) 0.8635(2)
H168_3 H 0.2876 0.5488 0.8694
N30_3 N 0.4015(5) 0.7717(5) 0.84590(14)
N31_3 N 0.4556(4) 0.8872(4) 0.85852(13)
C85_3 C 0.4079(5) 0.8370(6) 0.84341(17)
H85_3 H 0.3822 0.8482 0.8323
C86_3 C 0.4800(7) 0.8482(6) 0.8712(2)
H86_3 H 0.5148 0.8673 0.8833
C87_3 C 0.4455(6) 0.7782(7) 0.8635(2)
H87_3 H 0.4512 0.7389 0.8694
C88_3 C 0.4786(6) 0.9647(5) 0.85970(18)
H88_3 H 0.4485 0.9755 0.8491
H89_3 H 0.5313 0.9944 0.8551
C89_3 C 0.4698(6) 0.9879(6) 0.88336(19)
C90_3 C 0.4004(6) 0.9682(5) 0.89160(18)
H90_3 H 0.3576 0.9395 0.8826
C92_3 C 0.3932(6) 0.9900(6) 0.91297(19)
H92_3 H 0.3451 0.9757 0.9186
Cd10_2 Cd 0.3334 0.6666 0.01055(2)
Cd8 Cd 0.0000 -0.0000 0.84345(2)
N34_2 N 0.0711(4) 0.1067(5) 0.86502(15)
N35_4 N 0.1335(5) 0.2255(4) 0.87412(14)
N36_4 N 0.1692(7) 0.4641(7) 0.97331(19)
C99_4 C 0.0757(6) 0.1724(6) 0.86257(18)
H99_4 H 0.0423 0.1808 0.8538
C100_4 C 0.1304(6) 0.1198(6) 0.87880(19)
H100_4 H 0.1420 0.0830 0.8836
C101_4 C 0.1696(6) 0.1929(6) 0.8844(2)
H101_4 H 0.2128 0.2167 0.8936
C102_4 C 0.1533(6) 0.3047(6) 0.87628(19)
H102_4 H 0.1186 0.3136 0.8672
H103_4 H 0.2042 0.3372 0.8704
C103_4 C 0.1497(7) 0.3233(6) 0.9002(2)
C104_4 C 0.0985(7) 0.2769(7) 0.9154(2)
H104_4 H 0.0626 0.2284 0.9106
C105_4 C 0.1966(8) 0.3951(8) 0.9077(2)
H105_4 H 0.2335 0.4300 0.8978
C106_4 C 0.0961(6) 0.2967(6) 0.93742(19)
H106_4 H 0.0606 0.2609 0.9475
C107_4 C 0.1911(9) 0.4173(8) 0.9291(2)
H107_4 H 0.2202 0.4682 0.9333
C108_4 C 0.1428(8) 0.3655(7) 0.9449(2)
C109_4 C 0.1398(10) 0.3836(8) 0.9694(2)
H108_4 H 0.1691 0.3671 0.9784
H109_4 H 0.0877 0.3555 0.9747
C111_4 C 0.1493(9) 0.5117(10) 0.9638(3)
H111_4 H 0.1121 0.5003 0.9528
N38 N 0.1050(5) 0.0368(7) 0.82077(14)
C113_4 C 0.2250(8) 0.5037(8) 0.9877(2)
C114_4 C 0.1928(7) 0.5772(8) 0.9735(2)
C116 C 0.1703(6) 0.0957(8) 0.82326(17)
N47_4 N 0.2405(5) 0.5721(6) 0.98837(16)
H113_4 H 0.2497 0.4841 0.9964
H114_4 H 0.1911 0.6212 0.9704
N48 N 0.2205(4) 0.0982(6) 0.80815(13)
H116 H 0.1815 0.1326 0.8344
C123 C 0.1815(6) 0.0348(9) 0.7955(2)
C127 C 0.2980(5) 0.1527(8) 0.80697(18)
H124 H 0.2006 0.0191 0.7834
H127 H 0.3088 0.1936 0.8176
H128 H 0.3277 0.1297 0.8116
C132 C 0.3212(6) 0.1847(8) 0.78331(19)
C137 C 0.3015(5) 0.2344(8) 0.77507(18)
C138 C 0.3645(7) 0.1657(10) 0.7707(2)
H137 H 0.2728 0.2485 0.7841
C144 C 0.3233(6) 0.2634(8) 0.75370(19)
H138 H 0.3803 0.1334 0.7767
C145 C 0.3847(8) 0.1946(11) 0.7489(2)
H143 H 0.3090 0.2972 0.7481
C151 C 0.3645(6) 0.2448(9) 0.7407(2)
H144 H 0.4125 0.1800 0.7397
C154 C 0.3883(7) 0.2756(11) 0.7174(2)
N52 N 0.4677(6) 0.3105(8) 0.71372(17)
H151 H 0.3725 0.3126 0.7145
H152 H 0.3625 0.2349 0.7063
C160 C 0.5210(8) 0.3709(11) 0.7257(2)
C161 C 0.5030(7) 0.2914(10) 0.6987(2)
H160 H 0.5136 0.3969 0.7376
C166 C 0.5866(7) 0.3844(9) 0.71634(19)
N56 N 0.5743(5) 0.3336(7) 0.69998(14)
H161 H 0.4787 0.2517 0.6883
H166 H 0.6341 0.4237 0.7206
Cd12 Cd 0.6667 0.3333 0.67722(2)
Cd8_2 Cd 0.0000 1.0000 0.84345(2)
N41_2 N 0.0356(6) 0.9289(4) 0.86502(15)
C117 C 0.1115(7) 0.9993(9) 0.8032(2)
H117 H 0.0722 0.9543 0.7973
C168_4 C 0.0007(9) 0.1122(6) 0.8032(2)
H168_4 H 0.0457 0.1179 0.7973
Cd8_3 Cd 1.0000 -0.0000 0.84345(2)
N39 N 0.9632(7) 0.0682(5) 0.82077(14)
Cd8_4 Cd 1.0000 1.0000 0.84345(2)
N30_4 N 0.9318(5) 0.8950(5) 0.82077(14)
N31_4 N 0.8777(4) 0.7795(4) 0.80815(13)
N32_4 N 0.8428(6) 0.5323(6) 0.71372(17)
N33_4 N 0.7593(5) 0.4257(5) 0.69998(14)
C85_4 C 0.9254(5) 0.8297(6) 0.82326(17)
H85_4 H 0.9511 0.8185 0.8344
C86_4 C 0.8533(7) 0.8185(6) 0.7955(2)
H86_4 H 0.8185 0.7994 0.7834
C87_4 C 0.8878(6) 0.8885(7) 0.8032(2)
H87_4 H 0.8821 0.9278 0.7973
C88_4 C 0.8547(6) 0.7020(5) 0.80697(18)
H88_4 H 0.8848 0.6912 0.8176
H89_4 H 0.8020 0.6723 0.8116
C89_4 C 0.8635(6) 0.6788(6) 0.78331(19)
C90_4 C 0.9329(6) 0.6985(5) 0.77507(18)
H90_4 H 0.9757 0.7272 0.7841
C91_4 C 0.8012(7) 0.6355(7) 0.7707(2)
H91_4 H 0.7531 0.6197 0.7767
C92_4 C 0.9401(6) 0.6767(6) 0.75370(19)
H92_4 H 0.9882 0.6910 0.7481
C93_4 C 0.8099(7) 0.6153(8) 0.7489(2)
H93_4 H 0.7675 0.5875 0.7397
C94_4 C 0.8803(7) 0.6355(6) 0.7407(2)
C95_4 C 0.8873(8) 0.6117(7) 0.7174(2)
H94_4 H 0.9401 0.6275 0.7145
H95_4 H 0.8724 0.6375 0.7063
C96_4 C 0.8499(7) 0.4790(8) 0.7257(2)
H96_4 H 0.8833 0.4864 0.7376
C97_4 C 0.7884(7) 0.4970(7) 0.6987(2)
H97_4 H 0.7730 0.5213 0.6883
C98_4 C 0.7978(6) 0.4134(7) 0.71634(19)
H98_4 H 0.7896 0.3659 0.7206
N37_3 N 0.5738(5) 0.2388(6) 0.65504(16)
C110_7 C 0.5583(8) 0.1704(8) 0.6544(2)
H110_7 H 0.5830 0.1508 0.6631
C112_7 C 0.5261(7) 0.2439(8) 0.6402(2)
H112_7 H 0.5244 0.2879 0.6371
N40_2 N 0.8933(5) 0.9644(6) 0.86502(15)
N43_4 N 0.6664(7) 0.2407(5) 0.69998(14)
N44_3 N 0.7612(6) 0.3350(8) 0.65504(16)
N45_3 N 0.6650(8) 0.4262(5) 0.65504(16)
N46_7 N 0.5025(7) 0.1308(7) 0.63998(19)
C115_7 C 0.4826(9) 0.1784(10) 0.6305(3)
C120_4 C 0.7086(10) 0.2116(7) 0.6987(2)
C121_4 C 0.6156(9) 0.2022(6) 0.71634(19)
C122_7 C 0.4731(10) 0.0503(8) 0.6361(2)
H115_7 H 0.4454 0.1670 0.6195
N50_4 N 0.6895(8) 0.1572(6) 0.71372(17)
H120_4 H 0.7483 0.2270 0.6883
C125_4 C 0.6291(11) 0.1501(7) 0.7257(2)
H121_4 H 0.5763 0.2104 0.7206
C126_7 C 0.4761(8) 0.0322(7) 0.6116(2)
H122_7 H 0.5024 0.0338 0.6451
H123_7 H 0.4210 0.0222 0.6414
C129_4 C 0.7244(11) 0.1127(8) 0.7174(2)
H126_4 H 0.6031 0.1167 0.7376
C131_7 C 0.5244(9) 0.0840(8) 0.5958(2)
C134_4 C 0.7552(9) 0.1197(7) 0.7407(2)
H131_4 H 0.6874 0.0599 0.7145
H132_4 H 0.7651 0.1276 0.7063
C136_7 C 0.5299(8) 0.0618(8) 0.5744(2)
H134_7 H 0.5535 0.1349 0.6000
C141_4 C 0.7366(8) 0.0599(6) 0.75370(19)
C142_4 C 0.8054(11) 0.1901(7) 0.7489(2)
H136_7 H 0.5668 0.0967 0.5645
C148_4 C 0.7656(8) 0.0671(6) 0.77507(18)
H141_4 H 0.7028 0.0118 0.7481
C149_4 C 0.8343(10) 0.1988(7) 0.7707(2)
H142_4 H 0.8200 0.2325 0.7397
C153_4 C 0.8153(8) 0.1365(6) 0.78331(19)
H147_4 H 0.7515 0.0243 0.7841
H148_4 H 0.8666 0.2469 0.7767
H150_7 H 0.5375 0.0039 0.5371
C156_4 C 0.8473(8) 0.1453(6) 0.80697(18)
N54_4 N 0.9018(6) 0.1223(4) 0.80815(13)
H155_4 H 0.8064 0.1152 0.8176
H156_4 H 0.8703 0.1980 0.8116
C164_4 C 0.9043(8) 0.0746(5) 0.82326(17)
C165_4 C 0.9652(9) 0.1467(7) 0.7955(2)
H164_4 H 0.8674 0.0489 0.8344
H165_4 H 0.9809 0.1815 0.7834
C130_7 C 0.4294(6) 0.9634(6) 0.60409(19)
C135_7 C 0.4318(7) 0.9436(7) 0.5821(2)
H133_7 H 0.3939 0.9276 0.6142
C143_7 C 0.4830(7) 0.9900(6) 0.5669(2)
H135_7 H 0.3959 0.8951 0.5773
C150_7 C 0.4866(6) 0.9714(6) 0.54295(19)
N51_7 N 0.4668(5) 0.8922(4) 0.54079(14)
H149_7 H 0.4519 0.9803 0.5339
C157_7 C 0.4090(6) 0.8391(6) 0.52924(18)
C158_7 C 0.5029(6) 0.8596(6) 0.5511(2)
N55_7 N 0.4044(4) 0.7734(5) 0.53169(15)
H157_7 H 0.3756 0.8475 0.5205
C159_7 C 0.4637(6) 0.7865(6) 0.54547(19)
H158_7 H 0.5461 0.8834 0.5603
Cd11_3 Cd 0.3333 0.6667 0.51012(2)
H159_7 H 0.4753 0.7497 0.5503
C130_8 C 0.0366(6) 0.4661(8) 0.60409(19)
C135_8 C 0.0564(7) 0.4883(10) 0.5821(2)
H133_8 H 0.0724 0.4664 0.6142
C143_8 C 0.0100(6) 0.4931(9) 0.5669(2)
H135_8 H 0.1049 0.5009 0.5773
C150_8 C 0.0286(6) 0.5153(8) 0.54295(19)
N51_8 N 0.1078(4) 0.5747(6) 0.54079(14)
H149_8 H 0.0197 0.4717 0.5339
C157_8 C 0.1609(6) 0.5700(8) 0.52924(18)
C158_8 C 0.1404(6) 0.6434(8) 0.5511(2)
N55_8 N 0.2266(5) 0.6311(6) 0.53169(15)
H157_8 H 0.1525 0.5282 0.5205
C159_8 C 0.2135(6) 0.6773(8) 0.54547(19)
H158_8 H 0.1166 0.6628 0.5603
H159_8 H 0.2503 0.7257 0.5503
C110_8 C 0.8296(8) 0.3879(11) 0.6544(2)
H110_8 H 0.8492 0.4322 0.6631
C112_8 C 0.7561(8) 0.2822(11) 0.6402(2)
H112_8 H 0.7121 0.2365 0.6371
N46_8 N 0.8692(7) 0.3718(10) 0.63998(19)
C115_8 C 0.8216(10) 0.3043(13) 0.6305(3)
C122_8 C 0.9497(8) 0.4229(13) 0.6361(2)
H115_8 H 0.8330 0.2785 0.6195
C126_8 C 0.9678(7) 0.4440(11) 0.6116(2)
H122_8 H 0.9662 0.4687 0.6451
H123_8 H 0.9778 0.3989 0.6414
C131_8 C 0.9160(8) 0.4405(12) 0.5958(2)
C136_8 C 0.9382(8) 0.4682(11) 0.5744(2)
H134_8 H 0.8651 0.4187 0.6000
H136_8 H 0.9033 0.4702 0.5645
H150_8 H 0.9961 0.5337 0.5371
C100_5 C 0.8802(6) 0.0106(8) 0.87880(19)
H100_5 H 0.9170 0.0590 0.8836
N35_5 N 0.7745(4) 0.9080(6) 0.87412(14)
N36_5 N 0.5359(7) 0.7051(10) 0.97331(19)
C99_5 C 0.8276(6) 0.9033(8) 0.86257(18)
H99_5 H 0.8192 0.8615 0.8538
C101_5 C 0.8071(6) 0.9767(8) 0.8844(2)
H101_5 H 0.7833 0.9961 0.8936
C102_5 C 0.6953(6) 0.8486(8) 0.87628(19)
H102_5 H 0.6864 0.8050 0.8672
H103_5 H 0.6628 0.8670 0.8704
C103_5 C 0.6767(6) 0.8264(9) 0.9002(2)
C104_5 C 0.7231(7) 0.8216(10) 0.9154(2)
H104_5 H 0.7716 0.8342 0.9106
C105_5 C 0.6049(8) 0.8015(11) 0.9077(2)
H105_5 H 0.5700 0.8035 0.8978
C106_5 C 0.7033(6) 0.7994(8) 0.93742(19)
H106_5 H 0.7391 0.7997 0.9475
C107_5 C 0.5827(8) 0.7738(12) 0.9291(2)
H107_5 H 0.5318 0.7520 0.9333
C108_5 C 0.6345(7) 0.7773(11) 0.9449(2)
C109_5 C 0.6164(8) 0.7562(13) 0.9694(2)
H108_5 H 0.6329 0.8020 0.9784
H109_5 H 0.6445 0.7322 0.9747
C111_5 C 0.4883(10) 0.6376(13) 0.9638(3)
H111_5 H 0.4997 0.6118 0.9528
C113_5 C 0.4963(8) 0.7212(11) 0.9877(2)
C114_5 C 0.4228(8) 0.6155(11) 0.9735(2)
N47_5 N 0.4279(6) 0.6683(8) 0.98837(16)
H113_5 H 0.5159 0.7655 0.9964
H114_5 H 0.3788 0.5698 0.9704
N35_6 N 0.0920(6) 0.8665(5) 0.87412(14)
N36_6 N 0.2949(10) 0.8308(7) 0.97331(19)
C99_6 C 0.0967(8) 0.9243(6) 0.86257(18)
H99_6 H 0.1385 0.9577 0.8538
C101_6 C 0.0233(8) 0.8304(6) 0.8844(2)
H101_6 H 0.0039 0.7872 0.8936
C102_6 C 0.1514(8) 0.8467(6) 0.87628(19)
H102_6 H 0.1950 0.8814 0.8672
H103_6 H 0.1330 0.7958 0.8704
C103_6 C 0.1736(9) 0.8503(7) 0.9002(2)
C104_6 C 0.1784(10) 0.9015(7) 0.9154(2)
H104_6 H 0.1658 0.9374 0.9106
C105_6 C 0.1985(11) 0.8034(8) 0.9077(2)
H105_6 H 0.1965 0.7665 0.8978
C106_6 C 0.2006(8) 0.9039(6) 0.93742(19)
H106_6 H 0.2003 0.9394 0.9475
C107_6 C 0.2262(12) 0.8089(9) 0.9291(2)
H107_6 H 0.2480 0.7798 0.9333
C108_6 C 0.2227(11) 0.8572(8) 0.9449(2)
C109_6 C 0.2438(13) 0.8602(10) 0.9694(2)
H108_6 H 0.1980 0.8309 0.9784
H109_6 H 0.2678 0.9123 0.9747
C111_6 C 0.3624(13) 0.8507(9) 0.9638(3)
H111_6 H 0.3882 0.8879 0.9528
C113_6 C 0.2788(11) 0.7750(8) 0.9877(2)
C114_6 C 0.3845(11) 0.8072(7) 0.9735(2)
N47_6 N 0.3317(8) 0.7595(5) 0.98837(16)
H113_6 H 0.2345 0.7503 0.9964
H114_6 H 0.4302 0.8089 0.9704
C110_9 C 0.6121(11) 0.4417(8) 0.6544(2)
H110_9 H 0.5678 0.4170 0.6631
C112_9 C 0.7178(11) 0.4739(7) 0.6402(2)
H112_9 H 0.7635 0.4756 0.6371
N46_9 N 0.6282(10) 0.4975(7) 0.63998(19)
C115_9 C 0.6957(13) 0.5174(9) 0.6305(3)
C122_9 C 0.5771(13) 0.5269(10) 0.6361(2)
H115_9 H 0.7215 0.5546 0.6195
C126_9 C 0.5560(11) 0.5239(8) 0.6116(2)
H122_9 H 0.5313 0.4976 0.6451
H123_9 H 0.6011 0.5790 0.6414
C130_9 C 0.5339(8) 0.5706(6) 0.60409(19)
C131_9 C 0.5595(12) 0.4756(9) 0.5958(2)
C135_9 C 0.5117(10) 0.5682(7) 0.5821(2)
H133_9 H 0.5336 0.6061 0.6142
C136_9 C 0.5318(11) 0.4701(8) 0.5744(2)
H134_9 H 0.5813 0.4465 0.6000
C143_9 C 0.5069(9) 0.5170(7) 0.5669(2)
H135_9 H 0.4991 0.6041 0.5773
H136_9 H 0.5298 0.4332 0.5645
C150_9 C 0.4847(8) 0.5134(6) 0.54295(19)
N51_9 N 0.4253(6) 0.5332(5) 0.54079(14)
H149_9 H 0.5283 0.5481 0.5339
H150_9 H 0.4663 0.4625 0.5371
C157_9 C 0.4300(8) 0.5910(6) 0.52924(18)
C158_9 C 0.3566(8) 0.4971(6) 0.5511(2)
N55_9 N 0.3689(6) 0.5956(4) 0.53169(15)
H157_9 H 0.4718 0.6244 0.5205
C159_9 C 0.3227(8) 0.5363(6) 0.54547(19)
H158_9 H 0.3372 0.4539 0.5603
H159_9 H 0.2743 0.5247 0.5503
C100_6 C 0.9894(8) 0.8696(6) 0.87880(19)
H100_6 H 0.9410 0.8580 0.8836
Cd12_2 Cd 0.0000 -0.0000 0.34389(2)
Cd12_3 Cd 0.0000 1.0000 0.34389(2)
C160_2 C 0.8543(8) 0.0376(11) 0.3924(2)
H160_2 H 0.8469 0.0636 0.4043
C166_2 C 0.9199(7) 0.0511(9) 0.38301(19)
N56_2 N 0.9076(5) 0.0003(7) 0.36665(14)
H166_2 H 0.9674 0.0904 0.3873
Cd12_4 Cd 1.0000 -0.0000 0.34389(2)
N30_5 N 0.2651(5) 0.5617(5) 0.48744(14)
N31_5 N 0.2110(4) 0.4462(4) 0.47482(13)
N32_5 N 0.1761(6) 0.1990(6) 0.38039(17)
N33_5 N 0.0926(5) 0.0924(5) 0.36665(14)
C85_5 C 0.2587(5) 0.4964(6) 0.48993(17)
H85_5 H 0.2844 0.4852 0.5011
C86_5 C 0.1866(7) 0.4852(6) 0.4622(2)
H86_5 H 0.1518 0.4661 0.4501
C87_5 C 0.2211(6) 0.5552(7) 0.4699(2)
H87_5 H 0.2154 0.5945 0.4640
C88_5 C 0.1880(6) 0.3687(5) 0.47364(18)
H88_5 H 0.2181 0.3579 0.4843
H89_5 H 0.1353 0.3390 0.4783
C89_5 C 0.1968(6) 0.3455(6) 0.44998(19)
C90_5 C 0.2662(6) 0.3652(5) 0.44174(18)
H90_5 H 0.3090 0.3939 0.4508
C91_5 C 0.1345(7) 0.3022(7) 0.4374(2)
H91_5 H 0.0864 0.2864 0.4434
C92_5 C 0.2734(6) 0.3434(6) 0.42037(19)
H92_5 H 0.3215 0.3577 0.4148
C93_5 C 0.1432(7) 0.2820(8) 0.4156(2)
H93_5 H 0.1008 0.2542 0.4064
C94_5 C 0.2136(7) 0.3022(6) 0.4074(2)
C95_5 C 0.2206(8) 0.2784(7) 0.3841(2)
H94_5 H 0.2734 0.2942 0.3812
H95_5 H 0.2057 0.3042 0.3730
C96_5 C 0.1832(7) 0.1457(8) 0.3924(2)
H96_5 H 0.2166 0.1531 0.4043
C97_5 C 0.1217(7) 0.1637(7) 0.3654(2)
H97_5 H 0.1063 0.1880 0.3550
C98_5 C 0.1311(6) 0.0801(7) 0.38301(19)
H98_5 H 0.1229 0.0326 0.3873
N38_2 N 0.4383(5) 0.7035(7) 0.48744(14)
N39_2 N 0.2965(7) 0.7349(5) 0.48744(14)
N44_4 N 0.0945(6) 0.0017(8) 0.32171(16)
C116_2 C 0.5036(6) 0.7624(8) 0.48993(17)
C117_2 C 0.4448(7) 0.6660(9) 0.4699(2)
N48_2 N 0.5538(4) 0.7649(6) 0.47482(13)
H116_2 H 0.5148 0.7993 0.5011
C123_2 C 0.5148(6) 0.7015(9) 0.4622(2)
H117_2 H 0.4055 0.6210 0.4640
C127_2 C 0.6313(5) 0.8194(8) 0.47364(18)
H124_2 H 0.5339 0.6858 0.4501
H127_2 H 0.6421 0.8603 0.4843
H128_2 H 0.6610 0.7964 0.4783
C132_2 C 0.6545(6) 0.8514(8) 0.44998(19)
C137_2 C 0.6348(5) 0.9011(8) 0.44174(18)
C138_2 C 0.6978(7) 0.8324(10) 0.4374(2)
H137_2 H 0.6061 0.9152 0.4508
C144_2 C 0.6566(6) 0.9301(8) 0.42037(19)
H138_2 H 0.7136 0.8001 0.4434
C145_2 C 0.7180(8) 0.8613(11) 0.4156(2)
H143_2 H 0.6423 0.9639 0.4148
C151_2 C 0.6978(6) 0.9115(9) 0.4074(2)
H144_2 H 0.7458 0.8467 0.4064
C154_2 C 0.7216(7) 0.9423(11) 0.3841(2)
N52_2 N 0.8010(6) 0.9772(8) 0.38039(17)
H151_2 H 0.7058 0.9793 0.3812
H152_2 H 0.6958 0.9016 0.3730
C161_2 C 0.8363(7) 0.9581(10) 0.3654(2)
H161_2 H 0.8120 0.9184 0.3550
Cd12_5 Cd 1.0000 1.0000 0.34389(2)
C120_5 C 0.0419(10) 0.8783(7) 0.3654(2)
N50_5 N 0.0228(8) 0.8239(6) 0.38039(17)
H120_5 H 0.0816 0.8937 0.3550
C129_5 C 0.0577(11) 0.7794(8) 0.3841(2)
C134_5 C 0.0885(9) 0.7864(7) 0.4074(2)
H131_5 H 0.0207 0.7266 0.3812
H132_5 H 0.0984 0.7943 0.3730
C141_5 C 0.0699(8) 0.7266(6) 0.42037(19)
C142_5 C 0.1387(11) 0.8568(7) 0.4156(2)
C148_5 C 0.0989(8) 0.7338(6) 0.44174(18)
H141_5 H 0.0361 0.6785 0.4148
C149_5 C 0.1676(10) 0.8655(7) 0.4374(2)
H142_5 H 0.1533 0.8992 0.4064
C153_5 C 0.1486(8) 0.8032(6) 0.44998(19)
H147_5 H 0.0848 0.6910 0.4508
H148_5 H 0.1999 0.9136 0.4434
C156_5 C 0.1806(8) 0.8120(6) 0.47364(18)
N54_5 N 0.2351(6) 0.7890(4) 0.47482(13)
H155_5 H 0.1397 0.7819 0.4843
H156_5 H 0.2036 0.8647 0.4783
C164_5 C 0.2376(8) 0.7413(5) 0.48993(17)
C165_5 C 0.2985(9) 0.8134(7) 0.4622(2)
H164_5 H 0.2007 0.7156 0.5011
H165_5 H 0.3142 0.8482 0.4501
C168_5 C 0.3340(9) 0.7789(6) 0.4699(2)
H168_5 H 0.3790 0.7846 0.4640
N45_4 N 0.9983(8) 0.0929(5) 0.32171(16)
N37_4 N 0.9071(5) 0.9055(6) 0.32171(16)
C110_10 C 0.8916(8) 0.8371(8) 0.3211(2)
H110_10 H 0.9163 0.8175 0.3298
C112_10 C 0.8594(7) 0.9106(8) 0.3069(2)
H112_10 H 0.8577 0.9546 0.3038
N43_5 N 0.9997(7) 0.9074(5) 0.36665(14)
N46_10 N 0.8359(7) 0.7974(7) 0.30664(19)
C115_10 C 0.8160(9) 0.8450(10) 0.2971(3)
C121_5 C 0.9489(9) 0.8689(6) 0.38301(19)
C122_10 C 0.8065(10) 0.7169(8) 0.3027(2)
H115_10 H 0.7788 0.8336 0.2861
C125_5 C 0.9624(11) 0.8168(7) 0.3924(2)
H121_5 H 0.9096 0.8771 0.3873
C126_10 C 0.8095(8) 0.6988(7) 0.2782(2)
H122_10 H 0.8358 0.7004 0.3117
H123_10 H 0.7544 0.6888 0.3080
H126_5 H 0.9364 0.7834 0.4043
C130_10 C 0.7628(6) 0.6300(6) 0.27075(19)
C131_10 C 0.8578(9) 0.7506(8) 0.2624(2)
C135_10 C 0.7652(7) 0.6102(7) 0.2487(2)
H133_10 H 0.7273 0.5942 0.2808
C136_10 C 0.8633(8) 0.7284(8) 0.2410(2)
H134_10 H 0.8869 0.8015 0.2666
C143_10 C 0.8164(7) 0.6566(6) 0.2335(2)
H135_10 H 0.7293 0.5617 0.2439
H136_10 H 0.9002 0.7633 0.2311
C150_10 C 0.8200(6) 0.6380(6) 0.20961(19)
N51_10 N 0.8002(5) 0.5588(4) 0.20745(14)
H149_10 H 0.7853 0.6469 0.2005
H150_10 H 0.8709 0.6705 0.2037
C157_10 C 0.7424(6) 0.5057(6) 0.19590(18)
C158_10 C 0.8363(6) 0.5262(6) 0.2177(2)
N55_10 N 0.7378(4) 0.4400(5) 0.19835(15)
H157_10 H 0.7090 0.5141 0.1871
C159_10 C 0.7971(6) 0.4531(6) 0.21213(19)
H158_10 H 0.8795 0.5500 0.2269
Cd11_4 Cd 0.6667 0.3333 0.17678(2)
H159_10 H 0.8087 0.4163 0.2169
C110_11 C 0.1629(8) 0.0546(11) 0.3211(2)
H110_11 H 0.1825 0.0989 0.3298
N46_11 N 0.2026(7) 0.0384(10) 0.30664(19)
C122_11 C 0.2831(8) 0.0895(13) 0.3027(2)
C126_11 C 0.3012(7) 0.1106(11) 0.2782(2)
H122_11 H 0.2996 0.1353 0.3117
H123_11 H 0.3112 0.0655 0.3080
C130_11 C 0.3700(6) 0.1327(8) 0.27075(19)
C131_11 C 0.2494(8) 0.1071(12) 0.2624(2)
C135_11 C 0.3898(7) 0.1549(10) 0.2487(2)
H133_11 H 0.4058 0.1330 0.2808
C136_11 C 0.2716(8) 0.1348(11) 0.2410(2)
H134_11 H 0.1985 0.0853 0.2666
C143_11 C 0.3434(6) 0.1597(9) 0.2335(2)
H135_11 H 0.4383 0.1675 0.2439
H136_11 H 0.2367 0.1368 0.2311
C150_11 C 0.3620(6) 0.1819(8) 0.20961(19)
N51_11 N 0.4412(4) 0.2413(6) 0.20745(14)
H149_11 H 0.3531 0.1383 0.2005
H150_11 H 0.3295 0.2003 0.2037
C157_11 C 0.4943(6) 0.2366(8) 0.19590(18)
C158_11 C 0.4738(6) 0.3100(8) 0.2177(2)
N55_11 N 0.5600(5) 0.2977(6) 0.19835(15)
H157_11 H 0.4859 0.1948 0.1871
C159_11 C 0.5469(6) 0.3439(8) 0.21213(19)
H158_11 H 0.4500 0.3294 0.2269
H159_11 H 0.5837 0.3923 0.2169
C112_11 C 0.0894(8) 0.9489(11) 0.3069(2)
H112_11 H 0.0454 0.9032 0.3038
C115_11 C 0.1550(10) 0.9709(13) 0.2971(3)
H115_11 H 0.1664 0.9451 0.2861
C112_12 C 0.0511(11) 0.1406(7) 0.3069(2)
H112_12 H 0.0968 0.1423 0.3038
C115_12 C 0.0291(13) 0.1840(9) 0.2971(3)
H115_12 H 0.0549 0.2212 0.2861
C110_12 C 0.9454(11) 0.1084(8) 0.3211(2)
H110_12 H 0.9011 0.0837 0.3298
N46_12 N 0.9616(10) 0.1641(7) 0.30664(19)
C122_12 C 0.9105(13) 0.1935(10) 0.3027(2)
C126_12 C 0.8894(11) 0.1905(8) 0.2782(2)
H122_12 H 0.8647 0.1642 0.3117
H123_12 H 0.9345 0.2456 0.3080
C130_12 C 0.8673(8) 0.2372(6) 0.27075(19)
C131_12 C 0.8929(12) 0.1422(9) 0.2624(2)
C135_12 C 0.8451(10) 0.2348(7) 0.2487(2)
H133_12 H 0.8670 0.2727 0.2808
C136_12 C 0.8652(11) 0.1367(8) 0.2410(2)
H134_12 H 0.9147 0.1131 0.2666
C143_12 C 0.8403(9) 0.1836(7) 0.2335(2)
H135_12 H 0.8325 0.2707 0.2439
H136_12 H 0.8632 0.0998 0.2311
C150_12 C 0.8181(8) 0.1800(6) 0.20961(19)
N51_12 N 0.7587(6) 0.1998(5) 0.20745(14)
H149_12 H 0.8617 0.2147 0.2005
H150_12 H 0.7997 0.1291 0.2037
C157_12 C 0.7634(8) 0.2576(6) 0.19590(18)
C158_12 C 0.6900(8) 0.1637(6) 0.2177(2)
N55_12 N 0.7023(6) 0.2622(4) 0.19835(15)
H157_12 H 0.8052 0.2910 0.1871
C159_12 C 0.6561(8) 0.2029(6) 0.21213(19)
H158_12 H 0.6706 0.1205 0.2269
H159_12 H 0.6077 0.1913 0.2169
C138_3 C 0.0312(7) 0.4990(10) 0.1040(2)
H138_3 H 0.0470 0.4667 0.1100
C145_3 C 0.0514(8) 0.5279(11) 0.0822(2)
C151_3 C 0.0312(6) 0.5781(9) 0.0740(2)
H144_3 H 0.0792 0.5133 0.0730
C154_3 C 0.0550(7) 0.6089(11) 0.0507(2)
N52_3 N 0.1344(6) 0.6438(8) 0.04705(17)
H151_3 H 0.0392 0.6459 0.0478
H152_3 H 0.0292 0.5682 0.0396
C160_3 C 0.1877(8) 0.7042(11) 0.0590(2)
C161_3 C 0.1697(7) 0.6247(10) 0.0320(2)
H160_3 H 0.1803 0.7302 0.0709
C166_3 C 0.2533(7) 0.7177(9) 0.04967(19)
N56_3 N 0.2410(5) 0.6669(7) 0.03331(14)
H161_3 H 0.1454 0.5850 0.0216
H166_3 H 0.3008 0.7570 0.0539
N30_6 N 0.5985(5) 0.2283(5) 0.15410(14)
N31_6 N 0.5444(4) 0.1128(4) 0.14148(13)
C85_6 C 0.5921(5) 0.1630(6) 0.15659(17)
H85_6 H 0.6178 0.1518 0.1677
C86_6 C 0.5200(7) 0.1518(6) 0.1288(2)
H86_6 H 0.4852 0.1327 0.1167
C87_6 C 0.5545(6) 0.2218(7) 0.1365(2)
H87_6 H 0.5488 0.2611 0.1306
C88_6 C 0.5214(6) 0.0353(5) 0.14030(18)
H88_6 H 0.5515 0.0245 0.1509
H89_6 H 0.4687 0.0056 0.1449
C89_6 C 0.5302(6) 0.0121(6) 0.11664(19)
C90_6 C 0.5996(6) 0.0318(5) 0.10840(18)
H90_6 H 0.6424 0.0605 0.1174
C92_6 C 0.6068(6) 0.0100(6) 0.08703(19)
H92_6 H 0.6549 0.0243 0.0814
N38_3 N 0.7717(5) 0.3701(7) 0.15410(14)
N39_3 N 0.6299(7) 0.4015(5) 0.15410(14)
C116_3 C 0.8370(6) 0.4290(8) 0.15659(17)
C117_3 C 0.7782(7) 0.3326(9) 0.1365(2)
N48_3 N 0.8872(4) 0.4315(6) 0.14148(13)
H116_3 H 0.8482 0.4659 0.1677
C123_3 C 0.8482(6) 0.3681(9) 0.1288(2)
H117_3 H 0.7389 0.2876 0.1306
C127_3 C 0.9647(5) 0.4860(8) 0.14030(18)
H124_3 H 0.8673 0.3524 0.1167
H127_3 H 0.9755 0.5269 0.1509
H128_3 H 0.9944 0.4630 0.1449
C132_3 C 0.9879(6) 0.5180(8) 0.11664(19)
C137_3 C 0.9682(5) 0.5677(8) 0.10840(18)
H137_3 H 0.9395 0.5818 0.1174
C144_3 C 0.9900(6) 0.5967(8) 0.08703(19)
H143_3 H 0.9757 0.6305 0.0814
N32_6 N 0.5095(6) 0.8656(6) 0.04705(17)
N33_6 N 0.4260(5) 0.7590(5) 0.03331(14)
C91_6 C 0.4679(7) 0.9688(7) 0.1040(2)
H91_6 H 0.4198 0.9530 0.1100
C93_6 C 0.4766(7) 0.9486(8) 0.0822(2)
H93_6 H 0.4342 0.9208 0.0730
C94_6 C 0.5470(7) 0.9688(6) 0.0740(2)
C95_6 C 0.5540(8) 0.9450(7) 0.0507(2)
H94_6 H 0.6068 0.9608 0.0478
H95_6 H 0.5391 0.9708 0.0396
C96_6 C 0.5166(7) 0.8123(8) 0.0590(2)
H96_6 H 0.5500 0.8197 0.0709
C97_6 C 0.4551(7) 0.8303(7) 0.0320(2)
H97_6 H 0.4397 0.8546 0.0216
C98_6 C 0.4645(6) 0.7467(7) 0.04967(19)
H98_6 H 0.4563 0.6992 0.0539
N43_6 N 0.3331(7) 0.5740(5) 0.03331(14)
C120_6 C 0.3753(10) 0.5449(7) 0.0320(2)
C121_6 C 0.2823(9) 0.5355(6) 0.04967(19)
N50_6 N 0.3562(8) 0.4905(6) 0.04705(17)
H120_6 H 0.4150 0.5603 0.0216
C125_6 C 0.2958(11) 0.4834(7) 0.0590(2)
H121_6 H 0.2430 0.5437 0.0539
C129_6 C 0.3911(11) 0.4460(8) 0.0507(2)
H126_6 H 0.2698 0.4500 0.0709
C134_6 C 0.4219(9) 0.4530(7) 0.0740(2)
H131_6 H 0.3541 0.3932 0.0478
H132_6 H 0.4318 0.4609 0.0396
C141_6 C 0.4033(8) 0.3932(6) 0.08703(19)
C142_6 C 0.4721(11) 0.5234(7) 0.0822(2)
C148_6 C 0.4323(8) 0.4004(6) 0.10840(18)
H141_6 H 0.3695 0.3451 0.0814
C149_6 C 0.5010(10) 0.5321(7) 0.1040(2)
H142_6 H 0.4867 0.5658 0.0730
C153_6 C 0.4820(8) 0.4698(6) 0.11664(19)
H147_6 H 0.4182 0.3576 0.1174
H148_6 H 0.5333 0.5802 0.1100
C156_6 C 0.5140(8) 0.4786(6) 0.14030(18)
N54_6 N 0.5685(6) 0.4556(4) 0.14148(13)
H155_6 H 0.4731 0.4485 0.1509
H156_6 H 0.5370 0.5313 0.1449
C164_6 C 0.5710(8) 0.4079(5) 0.15659(17)
C165_6 C 0.6319(9) 0.4800(7) 0.1288(2)
H164_6 H 0.5341 0.3822 0.1677
H165_6 H 0.6476 0.5148 0.1167
C168_6 C 0.6674(9) 0.4455(6) 0.1365(2)
H168_6 H 0.7124 0.4512 0.1306
Cl1 Cl 0.32985(15) 0.32193(15) 0.17152(5)
O1 O 0.3179(5) 0.3119(5) 0.19544(13)
O2 O 0.2646(4) 0.2680(4) 0.15998(14)
O3 O 0.3926(4) 0.3142(5) 0.16542(15)
O4 O 0.3438(4) 0.3945(4) 0.16549(15)
Cl1_2 Cl 0.67807(15) 0.00792(21) 0.17152(5)
O1_2 O 0.6881(5) 0.0060(7) 0.19544(13)
O3_2 O 0.6858(5) 0.0784(6) 0.16542(15)
O2_2 O 0.7320(4) 0.9966(6) 0.15998(14)
O4_2 O 0.6055(4) 0.9493(6) 0.16549(15)
O2_3 O 0.0034(6) 0.7354(4) 0.15998(14)
O4_3 O 0.0507(6) 0.6562(4) 0.16549(15)
Cl1_3 Cl 0.99208(21) 0.67015(15) 0.17152(5)
O1_3 O 0.9940(7) 0.6821(5) 0.19544(13)
O3_3 O 0.9216(6) 0.6074(4) 0.16542(15)
O3_4 O 0.0593(4) 0.6475(5) 0.49875(15)
O4_4 O 0.0105(4) 0.7278(4) 0.49882(15)
Cl1_4 Cl 0.99652(15) 0.65526(15) 0.50485(5)
O1_4 O 0.9846(5) 0.6452(5) 0.52877(13)
O2_4 O 0.9313(4) 0.6013(4) 0.49331(14)
Cl1_5 Cl 0.34474(15) 0.34125(21) 0.50485(5)
O1_5 O 0.3548(5) 0.3393(7) 0.52877(13)
O2_5 O 0.3987(4) 0.3299(6) 0.49331(14)
O3_5 O 0.3525(5) 0.4117(6) 0.49875(15)
O4_5 O 0.2722(4) 0.2826(6) 0.49882(15)
Cl1_6 Cl 0.65875(21) 0.00348(15) 0.50485(5)
O1_6 O 0.6607(7) 0.0154(5) 0.52877(13)
O2_6 O 0.6701(6) 0.0687(4) 0.49331(14)
O3_6 O 0.5883(6) 0.9407(4) 0.49875(15)
O4_6 O 0.7174(6) 0.9895(4) 0.49882(15)
O4_7 O 0.6771(4) 0.0612(4) 0.83216(15)
Cl1_7 Cl 0.66318(15) 0.98860(15) 0.83819(5)
O1_7 O 0.6512(5) 0.9786(5) 0.86211(13)
O2_7 O 0.5979(4) 0.9347(4) 0.82665(14)
O3_7 O 0.7259(4) 0.9809(5) 0.83209(15)
Cl1_8 Cl 0.01140(15) 0.67459(21) 0.83819(5)
O1_8 O 0.0214(5) 0.6727(7) 0.86211(13)
O2_8 O 0.0653(4) 0.6633(6) 0.82665(14)
O3_8 O 0.0191(5) 0.7451(6) 0.83209(15)
O4_8 O 0.9388(4) 0.6160(6) 0.83216(15)
Cl1_9 Cl 0.32541(21) 0.33682(15) 0.83819(5)
O1_9 O 0.3273(7) 0.3488(5) 0.86211(13)
O2_9 O 0.3367(6) 0.4021(4) 0.82665(14)
O3_9 O 0.2549(6) 0.2741(4) 0.83209(15)
O4_9 O 0.3840(6) 0.3229(4) 0.83216(15)
Cl1_10 Cl 0.67015(15) 0.67807(15) 0.82848(5)
O1_10 O 0.6821(5) 0.6881(5) 0.80456(13)
O2_10 O 0.7354(4) 0.7320(4) 0.84002(14)
O3_10 O 0.6074(4) 0.6858(5) 0.83458(15)
O4_10 O 0.6562(4) 0.6055(4) 0.83451(15)
O2_11 O 0.2680(4) 0.0034(6) 0.84002(14)
O4_11 O 0.3945(4) 0.0507(6) 0.83451(15)
Cl1_11 Cl 0.32193(15) 0.99208(21) 0.82848(5)
O1_11 O 0.3119(5) 0.9940(7) 0.80456(13)
O3_11 O 0.3142(5) 0.9216(6) 0.83458(15)
Cl1_12 Cl 0.00792(21) 0.32985(15) 0.82848(5)
O1_12 O 0.0060(7) 0.3179(5) 0.80456(13)
O3_12 O 0.0784(6) 0.3926(4) 0.83458(15)
O2_12 O 0.9966(6) 0.2646(4) 0.84002(14)
O4_12 O 0.9493(6) 0.3438(4) 0.83451(15)
Cl1_13 Cl 0.00348(15) 0.34474(15) 0.49515(5)
O1_13 O 0.0154(5) 0.3548(5) 0.47123(13)
O2_13 O 0.0687(4) 0.3987(4) 0.50669(14)
O3_13 O 0.9407(4) 0.3525(5) 0.50125(15)
O4_13 O 0.9895(4) 0.2722(4) 0.50118(15)
Cl1_14 Cl 0.65526(15) 0.65875(21) 0.49515(5)
O1_14 O 0.6452(5) 0.6607(7) 0.47123(13)
O2_14 O 0.6013(4) 0.6701(6) 0.50669(14)
O3_14 O 0.6475(5) 0.5883(6) 0.50125(15)
O4_14 O 0.7278(4) 0.7174(6) 0.50118(15)
O3_15 O 0.4117(6) 0.0593(4) 0.50125(15)
O4_15 O 0.2826(6) 0.0105(4) 0.50118(15)
Cl1_15 Cl 0.34125(21) 0.99652(15) 0.49515(5)
O1_15 O 0.3393(7) 0.9846(5) 0.47123(13)
O2_15 O 0.3299(6) 0.9313(4) 0.50669(14)
Cl1_16 Cl 0.33682(15) 0.01140(15) 0.16181(5)
O1_16 O 0.3488(5) 0.0214(5) 0.13789(13)
O2_16 O 0.4021(4) 0.0653(4) 0.17335(14)
O3_16 O 0.2741(4) 0.0191(5) 0.16791(15)
O4_16 O 0.3229(4) 0.9388(4) 0.16784(15)
O4_17 O 0.0612(4) 0.3840(6) 0.16784(15)
Cl1_17 Cl 0.98860(15) 0.32541(21) 0.16181(5)
O1_17 O 0.9786(5) 0.3273(7) 0.13789(13)
O2_17 O 0.9347(4) 0.3367(6) 0.17335(14)
O3_17 O 0.9809(5) 0.2549(6) 0.16791(15)
Cl1_18 Cl 0.67459(21) 0.66318(15) 0.16181(5)
O1_18 O 0.6727(7) 0.6512(5) 0.13789(13)
O2_18 O 0.6633(6) 0.5979(4) 0.17335(14)
O3_18 O 0.7451(6) 0.7259(4) 0.16791(15)
O4_18 O 0.6160(6) 0.6771(4) 0.16784(15)
Cl2 Cl 0.2720(3) 0.3288(3) 0.00235(9)
O6 O 0.2651(8) 0.3900(8) 0.0089(3)
O8 O 0.2450(11) 0.2797(10) 0.0220(3)
O5 O 0.3414(10) 0.3412(12) 0.9975(3)
O7 O 0.2198(10) 0.2914(11) 0.9858(3)
O5_2 O 0.6588(12) 0.0002(16) 0.9975(3)
Cl2_2 Cl 0.6712(3) 0.9432(4) 0.00235(9)
O6_2 O 0.6100(8) 0.8751(11) 0.0089(3)
O8_2 O 0.7203(10) 0.9653(15) 0.0220(3)
O7_2 O 0.7086(11) 0.9284(15) 0.9858(3)
Cl2_3 Cl 0.0568(4) 0.7280(3) 0.00235(9)
O6_3 O 0.1249(11) 0.7349(8) 0.0089(3)
O8_3 O 0.0347(15) 0.7550(11) 0.0220(3)
O7_3 O 0.0716(15) 0.7802(10) 0.9858(3)
O5_3 O 0.9998(16) 0.6586(10) 0.9975(3)
O5_4 O 0.0081(10) 0.6745(12) 0.3308(3)
Cl2_4 Cl 0.9387(3) 0.6621(3) 0.33568(9)
O6_4 O 0.9318(8) 0.7233(8) 0.3422(3)
O7_4 O 0.8865(10) 0.6247(11) 0.3191(3)
O8_4 O 0.9117(11) 0.6130(10) 0.3553(3)
Cl2_5 Cl 0.3379(3) 0.2765(4) 0.33568(9)
O5_5 O 0.3255(12) 0.3335(16) 0.3308(3)
O6_5 O 0.2767(8) 0.2084(11) 0.3422(3)
O7_5 O 0.3753(11) 0.2617(15) 0.3191(3)
O8_5 O 0.3870(10) 0.2986(15) 0.3553(3)
Cl2_6 Cl 0.7235(4) 0.0613(3) 0.33568(9)
O6_6 O 0.7916(11) 0.0682(8) 0.3422(3)
O7_6 O 0.7383(15) 0.1135(10) 0.3191(3)
O8_6 O 0.7014(15) 0.0883(11) 0.3553(3)
O5_6 O 0.6665(16) 0.9919(10) 0.3308(3)
O5_7 O 0.6747(10) 0.0079(12) 0.6642(3)
O6_7 O 0.5984(8) 0.0567(8) 0.6756(3)
Cl2_7 Cl 0.6053(3) 0.9955(3) 0.66902(9)
O7_7 O 0.5531(10) 0.9581(11) 0.6525(3)
O8_7 O 0.5783(11) 0.9464(10) 0.6887(3)
Cl2_8 Cl 0.0045(3) 0.6099(4) 0.66902(9)
O7_8 O 0.0419(11) 0.5951(15) 0.6525(3)
O8_8 O 0.0536(10) 0.6320(15) 0.6887(3)
O5_8 O 0.9921(12) 0.6669(16) 0.6642(3)
O6_8 O 0.9433(8) 0.5418(11) 0.6756(3)
Cl2_9 Cl 0.3901(4) 0.3947(3) 0.66902(9)
O5_9 O 0.3331(16) 0.3253(10) 0.6642(3)
O6_9 O 0.4582(11) 0.4016(8) 0.6756(3)
O7_9 O 0.4049(15) 0.4469(10) 0.6525(3)
O8_9 O 0.3680(15) 0.4217(11) 0.6887(3)
O5_10 O 0.6586(10) 0.6588(12) 0.0025(3)
O7_10 O 0.7802(10) 0.7086(11) 0.0142(3)
Cl2_10 Cl 0.7280(3) 0.6712(3) 0.99765(9)
O6_10 O 0.7349(8) 0.6100(8) 0.9911(3)
O8_10 O 0.7550(11) 0.7203(10) 0.9780(3)
O7_11 O 0.2914(11) 0.0716(15) 0.0142(3)
Cl2_11 Cl 0.3288(3) 0.0568(4) 0.99765(9)
O6_11 O 0.3900(8) 0.1249(11) 0.9911(3)
O8_11 O 0.2797(10) 0.0347(15) 0.9780(3)
O5_11 O 0.3412(12) 0.9998(16) 0.0025(3)
O5_12 O 0.0002(16) 0.3414(10) 0.0025(3)
O7_12 O 0.9284(15) 0.2198(10) 0.0142(3)
Cl2_12 Cl 0.9432(4) 0.2720(3) 0.99765(9)
O6_12 O 0.8751(11) 0.2651(8) 0.9911(3)
O8_12 O 0.9653(15) 0.2450(11) 0.9780(3)
Cl2_13 Cl 0.0613(3) 0.3379(3) 0.66432(9)
O6_13 O 0.0682(8) 0.2767(8) 0.6578(3)
O7_13 O 0.1135(10) 0.3753(11) 0.6809(3)
O8_13 O 0.0883(11) 0.3870(10) 0.6447(3)
O5_13 O 0.9919(10) 0.3255(12) 0.6692(3)
Cl2_14 Cl 0.6621(3) 0.7235(4) 0.66432(9)
O5_14 O 0.6745(12) 0.6665(16) 0.6692(3)
O6_14 O 0.7233(8) 0.7916(11) 0.6578(3)
O7_14 O 0.6247(11) 0.7383(15) 0.6809(3)
O8_14 O 0.6130(10) 0.7014(15) 0.6447(3)
O5_15 O 0.3335(16) 0.0081(10) 0.6692(3)
Cl2_15 Cl 0.2765(4) 0.9387(3) 0.66432(9)
O6_15 O 0.2084(11) 0.9318(8) 0.6578(3)
O7_15 O 0.2617(15) 0.8865(10) 0.6809(3)
O8_15 O 0.2986(15) 0.9117(11) 0.6447(3)
Cl2_16 Cl 0.3947(3) 0.0045(3) 0.33098(9)
O7_16 O 0.4469(10) 0.0419(11) 0.3475(3)
O8_16 O 0.4217(11) 0.0536(10) 0.3113(3)
O5_16 O 0.3253(10) 0.9921(12) 0.3358(3)
O6_16 O 0.4016(8) 0.9433(8) 0.3244(3)
O5_17 O 0.0079(12) 0.3331(16) 0.3358(3)
O6_17 O 0.0567(8) 0.4582(11) 0.3244(3)
Cl2_17 Cl 0.9955(3) 0.3901(4) 0.33098(9)
O7_17 O 0.9581(11) 0.4049(15) 0.3475(3)
O8_17 O 0.9464(10) 0.3680(15) 0.3113(3)
Cl2_18 Cl 0.6099(4) 0.6053(3) 0.33098(9)
O5_18 O 0.6669(16) 0.6747(10) 0.3358(3)
O6_18 O 0.5418(11) 0.5984(8) 0.3244(3)
O7_18 O 0.5951(15) 0.5531(10) 0.3475(3)
O8_18 O 0.6320(15) 0.5783(11) 0.3113(3)
loop_
_geom_bond_atom_site_label_1
_geom_bond_atom_site_label_2
_geom_bond_site_symmetry_1
_geom_bond_site_symmetry_2
C83 C77 1_555 1_555
H77 C77 1_555 1_555
H83 C83 1_555 1_555
Cd5 N1 1_555 1_555
Cd2 N4 1_555 1_555
N1 C1 1_555 1_555
N2 C1 1_555 1_555
N3 C11 1_555 1_555
N4 C12 1_555 1_555
C1 H1 1_555 1_555
C4 N2 1_555 1_555
H4 C4 1_555 1_555
H5 C4 1_555 1_555
C5 C4 1_555 1_555
C6 C5 1_555 1_555
H6 C6 1_555 1_555
C7 C5 1_555 1_555
H7 C7 1_555 1_555
C8 C6 1_555 1_555
H8 C8 1_555 1_555
C9 C7 1_555 1_555
H9 C9 1_555 1_555
C10 C8 1_555 1_555
C11 C10 1_555 1_555
H10 C11 1_555 1_555
H11 C11 1_555 1_555
C12 N3 1_555 1_555
H12 C12 1_555 1_555
C13 N3 1_555 1_555
H13 C13 1_555 1_555
C14 N4 1_555 1_555
H14 C14 1_555 1_555
N10 Cd2 1_555 1_555
N11 Cd2 1_555 1_555
N12 Cd2 1_555 1_555
N13 Cd2 1_555 1_555
N14 Cd2 1_555 1_555
C19 N10 1_555 1_555
C20 N10 1_555 1_555
C21 N11 1_555 1_555
C22 N11 1_555 1_555
C23 N12 1_555 1_555
C24 N12 1_555 1_555
N17 C19 1_555 1_555
H19 C19 1_555 1_555
C27 C20 1_555 1_555
H20 C20 1_555 1_555
N18 C21 1_555 1_555
H21 C21 1_555 1_555
C28 C22 1_555 1_555
H22 C22 1_555 1_555
N19 C23 1_555 1_555
H23 C23 1_555 1_555
C29 C24 1_555 1_555
H24 C24 1_555 1_555
C32 N17 1_555 1_555
H27 C27 1_555 1_555
C33 N18 1_555 1_555
H28 C28 1_555 1_555
C34 N19 1_555 1_555
H29 C29 1_555 1_555
C37 C32 1_555 1_555
H34 C32 1_555 1_555
H35 C32 1_555 1_555
C38 C33 1_555 1_555
H36 C33 1_555 1_555
H37 C33 1_555 1_555
C39 C34 1_555 1_555
H38 C34 1_555 1_555
H39 C34 1_555 1_555
C44 C37 1_555 1_555
C45 C37 1_555 1_555
C46 C38 1_555 1_555
C47 C38 1_555 1_555
C49 C39 1_555 1_555
C54 C44 1_555 1_555
H44 C44 1_555 1_555
C55 C45 1_555 1_555
H45 C45 1_555 1_555
C56 C46 1_555 1_555
H46 C46 1_555 1_555
C57 C47 1_555 1_555
H47 C47 1_555 1_555
C59 C49 1_555 1_555
H49 C49 1_555 1_555
C62 C54 1_555 1_555
H54 C54 1_555 1_555
H55 C55 1_555 1_555
C63 C56 1_555 1_555
H56 C56 1_555 1_555
H57 C57 1_555 1_555
H59 C59 1_555 1_555
C67 C62 1_555 1_555
C68 C63 1_555 1_555
N22 C67 1_555 1_555
H64 C67 1_555 1_555
H65 C67 1_555 1_555
N23 C68 1_555 1_555
H66 C68 1_555 1_555
H67 C68 1_555 1_555
C74 N22 1_555 1_555
C75 N22 1_555 1_555
C76 N23 1_555 1_555
N27 C74 1_555 1_555
H74 C74 1_555 1_555
C82 C75 1_555 1_555
H75 C75 1_555 1_555
N28 C76 1_555 1_555
H76 C76 1_555 1_555
Cd5_7 N27 1_555 1_555
H82 C82 1_555 1_555
Cd5_3 N28 1_555 1_555
C9 C10 1_555 1_555
C13 C14 1_555 1_555
N17 C27 1_555 1_555
N18 C28 1_555 1_555
N19 C29 1_555 1_555
C55 C62 1_555 1_555
C57 C63 1_555 1_555
N27 C82 1_555 1_555
N8 Cd5_2 1_555 1_555
H2 C2 1_555 1_555
H3 C3 1_555 1_555
C58 C48 1_555 1_555
H48 C48 1_555 1_555
C64 C58 1_555 1_555
H58 C58 1_555 1_555
C69 C64 1_555 1_555
N24 C69 1_555 1_555
H68 C69 1_555 1_555
H69 C69 1_555 1_555
C78 N24 1_555 1_555
C79 N24 1_555 1_555
N29 C78 1_555 1_555
H78 C78 1_555 1_555
C84 C79 1_555 1_555
H79 C79 1_555 1_555
Cd7 N29 1_555 1_555
H84 C84 1_555 1_555
C2 C3 1_555 1_555
N29 C84 1_555 1_555
N9 Cd5_6 1_555 1_555
N7 Cd5_8 1_555 1_555
C23_2 N13 1_555 1_555
C24_2 N13 1_555 1_555
N19_2 C23_2 1_555 1_555
H23_2 C23_2 1_555 1_555
C29_2 C24_2 1_555 1_555
H24_2 C24_2 1_555 1_555
C34_2 N19_2 1_555 1_555
H29_2 C29_2 1_555 1_555
C39_2 C34_2 1_555 1_555
H38_2 C34_2 1_555 1_555
H39_2 C34_2 1_555 1_555
C48_2 C39_2 1_555 1_555
C49_2 C39_2 1_555 1_555
C58_2 C48_2 1_555 1_555
H48_2 C48_2 1_555 1_555
C59_2 C49_2 1_555 1_555
H49_2 C49_2 1_555 1_555
C64_2 C58_2 1_555 1_555
H58_2 C58_2 1_555 1_555
H59_2 C59_2 1_555 1_555
C69_2 C64_2 1_555 1_555
N24_2 C69_2 1_555 1_555
H68_2 C69_2 1_555 1_555
H69_2 C69_2 1_555 1_555
C78_2 N24_2 1_555 1_555
C79_2 N24_2 1_555 1_555
N29_2 C78_2 1_555 1_555
H78_2 C78_2 1_555 1_555
C84_2 C79_2 1_555 1_555
H79_2 C79_2 1_555 1_555
Cd7 N29_2 1_555 1_555
H84_2 C84_2 1_555 1_555
N19_2 C29_2 1_555 1_555
C59_2 C64_2 1_555 1_555
N29_2 C84_2 1_555 1_555
C58_3 C48_3 1_555 1_555
H48_3 C48_3 1_555 1_555
C64_3 C58_3 1_555 1_555
H58_3 C58_3 1_555 1_555
C69_3 C64_3 1_555 1_555
N24_3 C69_3 1_555 1_555
H68_3 C69_3 1_555 1_555
H69_3 C69_3 1_555 1_555
C78_3 N24_3 1_555 1_555
C79_3 N24_3 1_555 1_555
N29_3 C78_3 1_555 1_555
H78_3 C78_3 1_555 1_555
C84_3 C79_3 1_555 1_555
H79_3 C79_3 1_555 1_555
Cd7 N29_3 1_555 1_555
H84_3 C84_3 1_555 1_555
N29_3 C84_3 1_555 1_555
C23_3 N14 1_555 1_555
C24_3 N14 1_555 1_555
N19_3 C23_3 1_555 1_555
H23_3 C23_3 1_555 1_555
C29_3 C24_3 1_555 1_555
H24_3 C24_3 1_555 1_555
C34_3 N19_3 1_555 1_555
H29_3 C29_3 1_555 1_555
C39_3 C34_3 1_555 1_555
H38_3 C34_3 1_555 1_555
H39_3 C34_3 1_555 1_555
C49_3 C39_3 1_555 1_555
C59_3 C49_3 1_555 1_555
H49_3 C49_3 1_555 1_555
H59_3 C59_3 1_555 1_555
N19_3 C29_3 1_555 1_555
N10_2 Cd2_2 1_555 1_555
N14_2 Cd2_2 1_555 1_555
C19_2 N10_2 1_555 1_555
C20_2 N10_2 1_555 1_555
N17_2 C19_2 1_555 1_555
H19_2 C19_2 1_555 1_555
C27_2 C20_2 1_555 1_555
H20_2 C20_2 1_555 1_555
C32_2 N17_2 1_555 1_555
H27_2 C27_2 1_555 1_555
C37_2 C32_2 1_555 1_555
H34_2 C32_2 1_555 1_555
H35_2 C32_2 1_555 1_555
C44_2 C37_2 1_555 1_555
C45_2 C37_2 1_555 1_555
C54_2 C44_2 1_555 1_555
H44_2 C44_2 1_555 1_555
C55_2 C45_2 1_555 1_555
H45_2 C45_2 1_555 1_555
C62_2 C54_2 1_555 1_555
H54_2 C54_2 1_555 1_555
H55_2 C55_2 1_555 1_555
C67_2 C62_2 1_555 1_555
N22_2 C67_2 1_555 1_555
H64_2 C67_2 1_555 1_555
H65_2 C67_2 1_555 1_555
C74_2 N22_2 1_555 1_555
C75_2 N22_2 1_555 1_555
N27_2 C74_2 1_555 1_555
H74_2 C74_2 1_555 1_555
C82_2 C75_2 1_555 1_555
H75_2 C75_2 1_555 1_555
Cd7 N27_2 1_555 1_555
H82_2 C82_2 1_555 1_555
N17_2 C27_2 1_555 1_555
C55_2 C62_2 1_555 1_555
N27_2 C82_2 1_555 1_555
H14_2 C14_2 1_555 1_555
N13_2 Cd2_3 1_555 1_555
N11_2 Cd2_4 1_555 1_555
C21_2 N11_2 1_555 1_555
N18_2 C21_2 1_555 1_555
H21_2 C21_2 1_555 1_555
C33_2 N18_2 1_555 1_555
H28_2 C28_2 1_555 1_555
C38_2 C33_2 1_555 1_555
H36_2 C33_2 1_555 1_555
H37_2 C33_2 1_555 1_555
C46_2 C38_2 1_555 1_555
C47_2 C38_2 1_555 1_555
C56_2 C46_2 1_555 1_555
H46_2 C46_2 1_555 1_555
C57_2 C47_2 1_555 1_555
H47_2 C47_2 1_555 1_555
C63_2 C56_2 1_555 1_555
H56_2 C56_2 1_555 1_555
H57_2 C57_2 1_555 1_555
C68_2 C63_2 1_555 1_555
N23_2 C68_2 1_555 1_555
H66_2 C68_2 1_555 1_555
H67_2 C68_2 1_555 1_555
C76_2 N23_2 1_555 1_555
C77_2 N23_2 1_555 1_555
N28_2 C76_2 1_555 1_555
H76_2 C76_2 1_555 1_555
C83_2 C77_2 1_555 1_555
H77_2 C77_2 1_555 1_555
Cd7 N28_2 1_555 1_555
H83_2 C83_2 1_555 1_555
N18_2 C28_2 1_555 1_555
C57_2 C63_2 1_555 1_555
N28_2 C83_2 1_555 1_555
Cd7 N1_2 1_555 1_555
Cd2_5 N4_2 1_555 1_555
N1_2 C1_2 1_555 1_555
N2_2 C1_2 1_555 1_555
N3_2 C11_2 1_555 1_555
N4_2 C12_2 1_555 1_555
C1_2 H1_2 1_555 1_555
C2_2 N1_2 1_555 1_555
H2_2 C2_2 1_555 1_555
C3_2 N2_2 1_555 1_555
H3_2 C3_2 1_555 1_555
C4_2 N2_2 1_555 1_555
H4_2 C4_2 1_555 1_555
H5_2 C4_2 1_555 1_555
C5_2 C4_2 1_555 1_555
C6_2 C5_2 1_555 1_555
H6_2 C6_2 1_555 1_555
C7_2 C5_2 1_555 1_555
H7_2 C7_2 1_555 1_555
C8_2 C6_2 1_555 1_555
H8_2 C8_2 1_555 1_555
C9_2 C7_2 1_555 1_555
H9_2 C9_2 1_555 1_555
C10_2 C8_2 1_555 1_555
C11_2 C10_2 1_555 1_555
H10_2 C11_2 1_555 1_555
H11_2 C11_2 1_555 1_555
C12_2 N3_2 1_555 1_555
H12_2 C12_2 1_555 1_555
C13_2 N3_2 1_555 1_555
H13_2 C13_2 1_555 1_555
N12_2 Cd2_5 1_555 1_555
C23_4 N12_2 1_555 1_555
C24_4 N12_2 1_555 1_555
H22_2 C22_2 1_555 1_555
N19_4 C23_4 1_555 1_555
H23_4 C23_4 1_555 1_555
C29_4 C24_4 1_555 1_555
H24_4 C24_4 1_555 1_555
C34_4 N19_4 1_555 1_555
H29_4 C29_4 1_555 1_555
C39_4 C34_4 1_555 1_555
H38_4 C34_4 1_555 1_555
H39_4 C34_4 1_555 1_555
C48_4 C39_4 1_555 1_555
C49_4 C39_4 1_555 1_555
C58_4 C48_4 1_555 1_555
H48_4 C48_4 1_555 1_555
C59_4 C49_4 1_555 1_555
H49_4 C49_4 1_555 1_555
C64_4 C58_4 1_555 1_555
H58_4 C58_4 1_555 1_555
H59_4 C59_4 1_555 1_555
C69_4 C64_4 1_555 1_555
N24_4 C69_4 1_555 1_555
H68_4 C69_4 1_555 1_555
H69_4 C69_4 1_555 1_555
C78_4 N24_4 1_555 1_555
C79_4 N24_4 1_555 1_555
N29_4 C78_4 1_555 1_555
H78_4 C78_4 1_555 1_555
C84_4 C79_4 1_555 1_555
H79_4 C79_4 1_555 1_555
Cd7_2 N29_4 1_555 1_555
H84_4 C84_4 1_555 1_555
C2_2 C3_2 1_555 1_555
C9_2 C10_2 1_555 1_555
N19_4 C29_4 1_555 1_555
C59_4 C64_4 1_555 1_555
N29_4 C84_4 1_555 1_555
H24_5 C24_5 1_555 1_555
C23_5 N13_2 1_555 1_555
N19_5 C23_5 1_555 1_555
H23_5 C23_5 1_555 1_555
C34_5 N19_5 1_555 1_555
H29_5 C29_5 1_555 1_555
C39_5 C34_5 1_555 1_555
H38_5 C34_5 1_555 1_555
H39_5 C34_5 1_555 1_555
C48_5 C39_5 1_555 1_555
C49_5 C39_5 1_555 1_555
C58_5 C48_5 1_555 1_555
H48_5 C48_5 1_555 1_555
C59_5 C49_5 1_555 1_555
H49_5 C49_5 1_555 1_555
C64_5 C58_5 1_555 1_555
H58_5 C58_5 1_555 1_555
H59_5 C59_5 1_555 1_555
C69_5 C64_5 1_555 1_555
N24_5 C69_5 1_555 1_555
H68_5 C69_5 1_555 1_555
H69_5 C69_5 1_555 1_555
C78_5 N24_5 1_555 1_555
C79_5 N24_5 1_555 1_555
N29_5 C78_5 1_555 1_555
H78_5 C78_5 1_555 1_555
C84_5 C79_5 1_555 1_555
H79_5 C79_5 1_555 1_555
Cd7_2 N29_5 1_555 1_555
H84_5 C84_5 1_555 1_555
N19_5 C29_5 1_555 1_555
C59_5 C64_5 1_555 1_555
N29_5 C84_5 1_555 1_555
C23_6 N14_2 1_555 1_555
N19_6 C23_6 1_555 1_555
H23_6 C23_6 1_555 1_555
C34_6 N19_6 1_555 1_555
H29_6 C29_6 1_555 1_555
C39_6 C34_6 1_555 1_555
H38_6 C34_6 1_555 1_555
H39_6 C34_6 1_555 1_555
C48_6 C39_6 1_555 1_555
C49_6 C39_6 1_555 1_555
C58_6 C48_6 1_555 1_555
H48_6 C48_6 1_555 1_555
C59_6 C49_6 1_555 1_555
H49_6 C49_6 1_555 1_555
C64_6 C58_6 1_555 1_555
H58_6 C58_6 1_555 1_555
H59_6 C59_6 1_555 1_555
C69_6 C64_6 1_555 1_555
N24_6 C69_6 1_555 1_555
H68_6 C69_6 1_555 1_555
H69_6 C69_6 1_555 1_555
C78_6 N24_6 1_555 1_555
C79_6 N24_6 1_555 1_555
N29_6 C78_6 1_555 1_555
H78_6 C78_6 1_555 1_555
C84_6 C79_6 1_555 1_555
H79_6 C79_6 1_555 1_555
Cd7_2 N29_6 1_555 1_555
H84_6 C84_6 1_555 1_555
N19_6 C29_6 1_555 1_555
C59_6 C64_6 1_555 1_555
N29_6 C84_6 1_555 1_555
H24_6 C24_6 1_555 1_555
C54_3 C44_3 1_555 1_555
H44_3 C44_3 1_555 1_555
C62_3 C54_3 1_555 1_555
H54_3 C54_3 1_555 1_555
C67_3 C62_3 1_555 1_555
N22_3 C67_3 1_555 1_555
H64_3 C67_3 1_555 1_555
H65_3 C67_3 1_555 1_555
C74_3 N22_3 1_555 1_555
C75_3 N22_3 1_555 1_555
N27_3 C74_3 1_555 1_555
H74_3 C74_3 1_555 1_555
C82_3 C75_3 1_555 1_555
H75_3 C75_3 1_555 1_555
Cd7_2 N27_3 1_555 1_555
H82_3 C82_3 1_555 1_555
N27_3 C82_3 1_555 1_555
Cd2_6 N4_3 1_555 1_555
N3_3 C11_3 1_555 1_555
N4_3 C12_3 1_555 1_555
H7_3 C7_3 1_555 1_555
C9_3 C7_3 1_555 1_555
H9_3 C9_3 1_555 1_555
C11_3 C10_3 1_555 1_555
H10_3 C11_3 1_555 1_555
H11_3 C11_3 1_555 1_555
C12_3 N3_3 1_555 1_555
H12_3 C12_3 1_555 1_555
C13_3 N3_3 1_555 1_555
H13_3 C13_3 1_555 1_555
C14_3 N4_3 1_555 1_555
H14_3 C14_3 1_555 1_555
N10_3 Cd2_6 1_555 1_555
N11_3 Cd2_6 1_555 1_555
N12_3 Cd2_6 1_555 1_555
N13_3 Cd2_6 1_555 1_555
N14_3 Cd2_6 1_555 1_555
C19_3 N10_3 1_555 1_555
C20_3 N10_3 1_555 1_555
C21_3 N11_3 1_555 1_555
C22_3 N11_3 1_555 1_555
C23_7 N12_3 1_555 1_555
C24_7 N12_3 1_555 1_555
N17_3 C19_3 1_555 1_555
H19_3 C19_3 1_555 1_555
C27_3 C20_3 1_555 1_555
H20_3 C20_3 1_555 1_555
N18_3 C21_3 1_555 1_555
H21_3 C21_3 1_555 1_555
C28_3 C22_3 1_555 1_555
H22_3 C22_3 1_555 1_555
N19_7 C23_7 1_555 1_555
H23_7 C23_7 1_555 1_555
C29_7 C24_7 1_555 1_555
H24_7 C24_7 1_555 1_555
C32_3 N17_3 1_555 1_555
H27_3 C27_3 1_555 1_555
C33_3 N18_3 1_555 1_555
H28_3 C28_3 1_555 1_555
C34_7 N19_7 1_555 1_555
H29_7 C29_7 1_555 1_555
C37_3 C32_3 1_555 1_555
H34_3 C32_3 1_555 1_555
H35_3 C32_3 1_555 1_555
C38_3 C33_3 1_555 1_555
H36_3 C33_3 1_555 1_555
H37_3 C33_3 1_555 1_555
C39_7 C34_7 1_555 1_555
H38_7 C34_7 1_555 1_555
H39_7 C34_7 1_555 1_555
C45_3 C37_3 1_555 1_555
C46_3 C38_3 1_555 1_555
C47_3 C38_3 1_555 1_555
C48_7 C39_7 1_555 1_555
C49_7 C39_7 1_555 1_555
C55_3 C45_3 1_555 1_555
H45_3 C45_3 1_555 1_555
C56_3 C46_3 1_555 1_555
H46_3 C46_3 1_555 1_555
C57_3 C47_3 1_555 1_555
H47_3 C47_3 1_555 1_555
C58_7 C48_7 1_555 1_555
H48_7 C48_7 1_555 1_555
C59_7 C49_7 1_555 1_555
H49_7 C49_7 1_555 1_555
H55_3 C55_3 1_555 1_555
C63_3 C56_3 1_555 1_555
H56_3 C56_3 1_555 1_555
H57_3 C57_3 1_555 1_555
C64_7 C58_7 1_555 1_555
H58_7 C58_7 1_555 1_555
H59_7 C59_7 1_555 1_555
C68_3 C63_3 1_555 1_555
C69_7 C64_7 1_555 1_555
N23_3 C68_3 1_555 1_555
H66_3 C68_3 1_555 1_555
H67_3 C68_3 1_555 1_555
N24_7 C69_7 1_555 1_555
H68_7 C69_7 1_555 1_555
H69_7 C69_7 1_555 1_555
C76_3 N23_3 1_555 1_555
C77_3 N23_3 1_555 1_555
C78_7 N24_7 1_555 1_555
C79_7 N24_7 1_555 1_555
N28_3 C76_3 1_555 1_555
H76_3 C76_3 1_555 1_555
C83_3 C77_3 1_555 1_555
H77_3 C77_3 1_555 1_555
N8 C78_7 1_555 1_555
H78_7 C78_7 1_555 1_555
C84_7 C79_7 1_555 1_555
H79_7 C79_7 1_555 1_555
Cd7_2 N28_3 1_555 1_555
H83_3 C83_3 1_555 1_555
H84_7 C84_7 1_555 1_555
C9_3 C10_3 1_555 1_555
C13_3 C14_3 1_555 1_555
N17_3 C27_3 1_555 1_555
N18_3 C28_3 1_555 1_555
N19_7 C29_7 1_555 1_555
C57_3 C63_3 1_555 1_555
C59_7 C64_7 1_555 1_555
N28_3 C83_3 1_555 1_555
N8 C84_7 1_555 1_555
Cd7_2 N1_3 1_555 1_555
N1_3 C1_3 1_555 1_555
N2_3 C1_3 1_555 1_555
C1_3 H1_3 1_555 1_555
C2_3 N1_3 1_555 1_555
H2_3 C2_3 1_555 1_555
C3_3 N2_3 1_555 1_555
H3_3 C3_3 1_555 1_555
C4_3 N2_3 1_555 1_555
H4_3 C4_3 1_555 1_555
H5_3 C4_3 1_555 1_555
C5_3 C4_3 1_555 1_555
C6_3 C5_3 1_555 1_555
H6_3 C6_3 1_555 1_555
C8_3 C6_3 1_555 1_555
H8_3 C8_3 1_555 1_555
C2_3 C3_3 1_555 1_555
C23_8 N13_3 1_555 1_555
C24_8 N13_3 1_555 1_555
N19_8 C23_8 1_555 1_555
H23_8 C23_8 1_555 1_555
C29_8 C24_8 1_555 1_555
H24_8 C24_8 1_555 1_555
C34_8 N19_8 1_555 1_555
H29_8 C29_8 1_555 1_555
C39_8 C34_8 1_555 1_555
H38_8 C34_8 1_555 1_555
H39_8 C34_8 1_555 1_555
C48_8 C39_8 1_555 1_555
C49_8 C39_8 1_555 1_555
C58_8 C48_8 1_555 1_555
H48_8 C48_8 1_555 1_555
C59_8 C49_8 1_555 1_555
H49_8 C49_8 1_555 1_555
C64_8 C58_8 1_555 1_555
H58_8 C58_8 1_555 1_555
H59_8 C59_8 1_555 1_555
C69_8 C64_8 1_555 1_555
N24_8 C69_8 1_555 1_555
H68_8 C69_8 1_555 1_555
H69_8 C69_8 1_555 1_555
C78_8 N24_8 1_555 1_555
N9 C78_8 1_555 1_555
H78_8 C78_8 1_555 1_555
N19_8 C29_8 1_555 1_555
C59_8 C64_8 1_555 1_555
C84_8 C79_8 1_555 1_555
H79_8 C79_8 1_555 1_555
H84_8 C84_8 1_555 1_555
C84_9 C79_9 1_555 1_555
H79_9 C79_9 1_555 1_555
H84_9 C84_9 1_555 1_555
C23_9 N14_3 1_555 1_555
C24_9 N14_3 1_555 1_555
N19_9 C23_9 1_555 1_555
H23_9 C23_9 1_555 1_555
C29_9 C24_9 1_555 1_555
H24_9 C24_9 1_555 1_555
C34_9 N19_9 1_555 1_555
H29_9 C29_9 1_555 1_555
C39_9 C34_9 1_555 1_555
H38_9 C34_9 1_555 1_555
H39_9 C34_9 1_555 1_555
C48_9 C39_9 1_555 1_555
C49_9 C39_9 1_555 1_555
C58_9 C48_9 1_555 1_555
H48_9 C48_9 1_555 1_555
C59_9 C49_9 1_555 1_555
H49_9 C49_9 1_555 1_555
C64_9 C58_9 1_555 1_555
H58_9 C58_9 1_555 1_555
H59_9 C59_9 1_555 1_555
C69_9 C64_9 1_555 1_555
N24_9 C69_9 1_555 1_555
H68_9 C69_9 1_555 1_555
H69_9 C69_9 1_555 1_555
C78_9 N24_9 1_555 1_555
N7 C78_9 1_555 1_555
H78_9 C78_9 1_555 1_555
N19_9 C29_9 1_555 1_555
C59_9 C64_9 1_555 1_555
C135 C130 1_555 1_555
H133 C130 1_555 1_555
C143 C135 1_555 1_555
H135 C135 1_555 1_555
C150 C143 1_555 1_555
N51 C150 1_555 1_555
H149 C150 1_555 1_555
C157 N51 1_555 1_555
C158 N51 1_555 1_555
N55 C157 1_555 1_555
H157 C157 1_555 1_555
C159 C158 1_555 1_555
H158 C158 1_555 1_555
Cd11 N55 1_555 1_555
H159 C159 1_555 1_555
H167 C167 1_555 1_555
N55 C159 1_555 1_555
Cd13 N30 1_555 1_555
Cd9 N33 1_555 1_555
N30 C85 1_555 1_555
N31 C85 1_555 1_555
N32 C95 1_555 1_555
N33 C97 1_555 1_555
C85 H85 1_555 1_555
C86 N31 1_555 1_555
H86 C86 1_555 1_555
C87 N30 1_555 1_555
H87 C87 1_555 1_555
C88 N31 1_555 1_555
H88 C88 1_555 1_555
H89 C88 1_555 1_555
C89 C88 1_555 1_555
C90 C89 1_555 1_555
H90 C90 1_555 1_555
C91 C89 1_555 1_555
H91 C91 1_555 1_555
C92 C90 1_555 1_555
H92 C92 1_555 1_555
C93 C91 1_555 1_555
H93 C93 1_555 1_555
C94 C92 1_555 1_555
C95 C94 1_555 1_555
H94 C95 1_555 1_555
H95 C95 1_555 1_555
C96 N32 1_555 1_555
H96 C96 1_555 1_555
C97 N32 1_555 1_555
H97 C97 1_555 1_555
C98 N33 1_555 1_555
H98 C98 1_555 1_555
N37 Cd9 1_555 1_555
C110 N37 1_555 1_555
H110 C110 1_555 1_555
C112 N37 1_555 1_555
H112 C112 1_555 1_555
N40 Cd13 1_555 1_555
N42 Cd9 1_555 1_555
N43 Cd9 1_555 1_555
N44 Cd9 1_555 1_555
N45 Cd9 1_555 1_555
N46 C110 1_555 1_555
C115 C112 1_555 1_555
C118 N42 1_555 1_555
C119 N42 1_555 1_555
C120 N43 1_555 1_555
C121 N43 1_555 1_555
C122 N46 1_555 1_555
H115 C115 1_555 1_555
N49 C118 1_555 1_555
H118 C118 1_555 1_555
C124 C119 1_555 1_555
H119 C119 1_555 1_555
N50 C120 1_555 1_555
H120 C120 1_555 1_555
C125 C121 1_555 1_555
H121 C121 1_555 1_555
C126 C122 1_555 1_555
H122 C122 1_555 1_555
H123 C122 1_555 1_555
C128 N49 1_555 1_555
H125 C124 1_555 1_555
C129 N50 1_555 1_555
H126 C125 1_555 1_555
C131 C126 1_555 1_555
C133 C128 1_555 1_555
H129 C128 1_555 1_555
H130 C128 1_555 1_555
C134 C129 1_555 1_555
H131 C129 1_555 1_555
H132 C129 1_555 1_555
C136 C131 1_555 1_555
H134 C131 1_555 1_555
C139 C133 1_555 1_555
C140 C133 1_555 1_555
C141 C134 1_555 1_555
C142 C134 1_555 1_555
H136 C136 1_555 1_555
C146 C139 1_555 1_555
H139 C139 1_555 1_555
C147 C140 1_555 1_555
H140 C140 1_555 1_555
C148 C141 1_555 1_555
H141 C141 1_555 1_555
C149 C142 1_555 1_555
H142 C142 1_555 1_555
C152 C146 1_555 1_555
H145 C146 1_555 1_555
H146 C147 1_555 1_555
C153 C148 1_555 1_555
H147 C148 1_555 1_555
H148 C149 1_555 1_555
C155 C152 1_555 1_555
C156 C153 1_555 1_555
N53 C155 1_555 1_555
H153 C155 1_555 1_555
H154 C155 1_555 1_555
N54 C156 1_555 1_555
H155 C156 1_555 1_555
H156 C156 1_555 1_555
C162 N53 1_555 1_555
C163 N53 1_555 1_555
C164 N54 1_555 1_555
C165 N54 1_555 1_555
N57 C162 1_555 1_555
H162 C162 1_555 1_555
H163 C163 1_555 1_555
N58 C164 1_555 1_555
H164 C164 1_555 1_555
H165 C165 1_555 1_555
Cd13_4 N57 1_555 1_555
Cd13_2 N58 1_555 1_555
C86 C87 1_555 1_555
C93 C94 1_555 1_555
C96 C98 1_555 1_555
N46 C115 1_555 1_555
N49 C124 1_555 1_555
N50 C125 1_555 1_555
C147 C152 1_555 1_555
C149 C153 1_555 1_555
N41 Cd13_3 1_555 1_555
H168 C168 1_555 1_555
N34 Cd13_4 1_555 1_555
N35 C99 1_555 1_555
N36 C109 1_555 1_555
C99 N34 1_555 1_555
H99 C99 1_555 1_555
C100 N34 1_555 1_555
H100 C100 1_555 1_555
C101 N35 1_555 1_555
H101 C101 1_555 1_555
C102 N35 1_555 1_555
H102 C102 1_555 1_555
H103 C102 1_555 1_555
C103 C102 1_555 1_555
C104 C103 1_555 1_555
H104 C104 1_555 1_555
C105 C103 1_555 1_555
H105 C105 1_555 1_555
C106 C104 1_555 1_555
H106 C106 1_555 1_555
C107 C105 1_555 1_555
H107 C107 1_555 1_555
C108 C106 1_555 1_555
C109 C108 1_555 1_555
H108 C109 1_555 1_555
H109 C109 1_555 1_555
C111 N36 1_555 1_555
H111 C111 1_555 1_555
C113 N36 1_555 1_555
C114 C111 1_555 1_555
N47 C113 1_555 1_555
H113 C113 1_555 1_555
H114 C114 1_555 1_555
C100 C101 1_555 1_555
C107 C108 1_555 1_555
C114 N47 1_555 1_555
N35_2 C99_2 1_555 1_555
N36_2 C109_2 1_555 1_555
C99_2 N40 1_555 1_555
H99_2 C99_2 1_555 1_555
C101_2 N35_2 1_555 1_555
H101_2 C101_2 1_555 1_555
C102_2 N35_2 1_555 1_555
H102_2 C102_2 1_555 1_555
H103_2 C102_2 1_555 1_555
C103_2 C102_2 1_555 1_555
C104_2 C103_2 1_555 1_555
H104_2 C104_2 1_555 1_555
C105_2 C103_2 1_555 1_555
H105_2 C105_2 1_555 1_555
C106_2 C104_2 1_555 1_555
H106_2 C106_2 1_555 1_555
C107_2 C105_2 1_555 1_555
H107_2 C107_2 1_555 1_555
C108_2 C106_2 1_555 1_555
C109_2 C108_2 1_555 1_555
H108_2 C109_2 1_555 1_555
H109_2 C109_2 1_555 1_555
C111_2 N36_2 1_555 1_555
H111_2 C111_2 1_555 1_555
C113_2 N36_2 1_555 1_555
C114_2 C111_2 1_555 1_555
N47_2 C113_2 1_555 1_555
H113_2 C113_2 1_555 1_555
H114_2 C114_2 1_555 1_555
C107_2 C108_2 1_555 1_555
C114_2 N47_2 1_555 1_555
H100_2 C100_2 1_555 1_555
C110_2 N44 1_555 1_555
H110_2 C110_2 1_555 1_555
C112_2 N44 1_555 1_555
H112_2 C112_2 1_555 1_555
N46_2 C110_2 1_555 1_555
C115_2 C112_2 1_555 1_555
C122_2 N46_2 1_555 1_555
H115_2 C115_2 1_555 1_555
C126_2 C122_2 1_555 1_555
H122_2 C122_2 1_555 1_555
H123_2 C122_2 1_555 1_555
C131_2 C126_2 1_555 1_555
C136_2 C131_2 1_555 1_555
H134_2 C131_2 1_555 1_555
H136_2 C136_2 1_555 1_555
N46_2 C115_2 1_555 1_555
C135_2 C130_2 1_555 1_555
H133_2 C130_2 1_555 1_555
C143_2 C135_2 1_555 1_555
H135_2 C135_2 1_555 1_555
C150_2 C143_2 1_555 1_555
N51_2 C150_2 1_555 1_555
H149_2 C150_2 1_555 1_555
C157_2 N51_2 1_555 1_555
C158_2 N51_2 1_555 1_555
N55_2 C157_2 1_555 1_555
H157_2 C157_2 1_555 1_555
C159_2 C158_2 1_555 1_555
H158_2 C158_2 1_555 1_555
Cd11 N55_2 1_555 1_555
H159_2 C159_2 1_555 1_555
N55_2 C159_2 1_555 1_555
H100_3 C100_3 1_555 1_555
C110_3 N45 1_555 1_555
H110_3 C110_3 1_555 1_555
C112_3 N45 1_555 1_555
H112_3 C112_3 1_555 1_555
N46_3 C110_3 1_555 1_555
C115_3 C112_3 1_555 1_555
C122_3 N46_3 1_555 1_555
H115_3 C115_3 1_555 1_555
C126_3 C122_3 1_555 1_555
H122_3 C122_3 1_555 1_555
H123_3 C122_3 1_555 1_555
C130_3 C126_3 1_555 1_555
C131_3 C126_3 1_555 1_555
C135_3 C130_3 1_555 1_555
H133_3 C130_3 1_555 1_555
C136_3 C131_3 1_555 1_555
H134_3 C131_3 1_555 1_555
C143_3 C135_3 1_555 1_555
H135_3 C135_3 1_555 1_555
H136_3 C136_3 1_555 1_555
C150_3 C143_3 1_555 1_555
N51_3 C150_3 1_555 1_555
H149_3 C150_3 1_555 1_555
H150_3 C150_3 1_555 1_555
C157_3 N51_3 1_555 1_555
C158_3 N51_3 1_555 1_555
N55_3 C157_3 1_555 1_555
H157_3 C157_3 1_555 1_555
C159_3 C158_3 1_555 1_555
H158_3 C158_3 1_555 1_555
Cd11 N55_3 1_555 1_555
H159_3 C159_3 1_555 1_555
N46_3 C115_3 1_555 1_555
C136_3 C143_3 1_555 1_555
N55_3 C159_3 1_555 1_555
N35_3 C99_3 1_555 1_555
N36_3 C109_3 1_555 1_555
C99_3 N41 1_555 1_555
H99_3 C99_3 1_555 1_555
C101_3 N35_3 1_555 1_555
H101_3 C101_3 1_555 1_555
C102_3 N35_3 1_555 1_555
H102_3 C102_3 1_555 1_555
H103_3 C102_3 1_555 1_555
C103_3 C102_3 1_555 1_555
C104_3 C103_3 1_555 1_555
H104_3 C104_3 1_555 1_555
C105_3 C103_3 1_555 1_555
H105_3 C105_3 1_555 1_555
C106_3 C104_3 1_555 1_555
H106_3 C106_3 1_555 1_555
C107_3 C105_3 1_555 1_555
H107_3 C107_3 1_555 1_555
C108_3 C106_3 1_555 1_555
C109_3 C108_3 1_555 1_555
H108_3 C109_3 1_555 1_555
H109_3 C109_3 1_555 1_555
C111_3 N36_3 1_555 1_555
H111_3 C111_3 1_555 1_555
C113_3 N36_3 1_555 1_555
C114_3 C111_3 1_555 1_555
N47_3 C113_3 1_555 1_555
H113_3 C113_3 1_555 1_555
H114_3 C114_3 1_555 1_555
C107_3 C108_3 1_555 1_555
C114_3 N47_3 1_555 1_555
N37_2 Cd9_2 1_555 1_555
C110_4 N37_2 1_555 1_555
H110_4 C110_4 1_555 1_555
C112_4 N37_2 1_555 1_555
H112_4 C112_4 1_555 1_555
N43_2 Cd9_2 1_555 1_555
N46_4 C110_4 1_555 1_555
C115_4 C112_4 1_555 1_555
C121_2 N43_2 1_555 1_555
C122_4 N46_4 1_555 1_555
H115_4 C115_4 1_555 1_555
N49_2 C118_2 1_555 1_555
H118_2 C118_2 1_555 1_555
C125_2 C121_2 1_555 1_555
H121_2 C121_2 1_555 1_555
C126_4 C122_4 1_555 1_555
H122_4 C122_4 1_555 1_555
H123_4 C122_4 1_555 1_555
C128_2 N49_2 1_555 1_555
H126_2 C125_2 1_555 1_555
C130_4 C126_4 1_555 1_555
C131_4 C126_4 1_555 1_555
C133_2 C128_2 1_555 1_555
H129_2 C128_2 1_555 1_555
H130_2 C128_2 1_555 1_555
C135_4 C130_4 1_555 1_555
H133_4 C130_4 1_555 1_555
C136_4 C131_4 1_555 1_555
H134_4 C131_4 1_555 1_555
C139_2 C133_2 1_555 1_555
C140_2 C133_2 1_555 1_555
C143_4 C135_4 1_555 1_555
H135_4 C135_4 1_555 1_555
H136_4 C136_4 1_555 1_555
C146_2 C139_2 1_555 1_555
H139_2 C139_2 1_555 1_555
C147_2 C140_2 1_555 1_555
H140_2 C140_2 1_555 1_555
C150_4 C143_4 1_555 1_555
C152_2 C146_2 1_555 1_555
H145_2 C146_2 1_555 1_555
H146_2 C147_2 1_555 1_555
N51_4 C150_4 1_555 1_555
H149_4 C150_4 1_555 1_555
H150_4 C150_4 1_555 1_555
C155_2 C152_2 1_555 1_555
C157_4 N51_4 1_555 1_555
C158_4 N51_4 1_555 1_555
N53_2 C155_2 1_555 1_555
H153_2 C155_2 1_555 1_555
H154_2 C155_2 1_555 1_555
N55_4 C157_4 1_555 1_555
H157_4 C157_4 1_555 1_555
C159_4 C158_4 1_555 1_555
H158_4 C158_4 1_555 1_555
C162_2 N53_2 1_555 1_555
C163_2 N53_2 1_555 1_555
Cd11_2 N55_4 1_555 1_555
H159_4 C159_4 1_555 1_555
N57_2 C162_2 1_555 1_555
H162_2 C162_2 1_555 1_555
H163_2 C163_2 1_555 1_555
C167_2 C163_2 1_555 1_555
Cd11 N57_2 1_555 1_555
H167_2 C167_2 1_555 1_555
N46_4 C115_4 1_555 1_555
C136_4 C143_4 1_555 1_555
C147_2 C152_2 1_555 1_555
N55_4 C159_4 1_555 1_555
N57_2 C167_2 1_555 1_555
N42_2 Cd9_3 1_555 1_555
N45_2 Cd9_3 1_555 1_555
C119_2 N42_2 1_555 1_555
C124_2 C119_2 1_555 1_555
H119_2 C119_2 1_555 1_555
H125_2 C124_2 1_555 1_555
N50_2 C120_2 1_555 1_555
H120_2 C120_2 1_555 1_555
C129_2 N50_2 1_555 1_555
C134_2 C129_2 1_555 1_555
H131_2 C129_2 1_555 1_555
H132_2 C129_2 1_555 1_555
C141_2 C134_2 1_555 1_555
C142_2 C134_2 1_555 1_555
C148_2 C141_2 1_555 1_555
H141_2 C141_2 1_555 1_555
C149_2 C142_2 1_555 1_555
H142_2 C142_2 1_555 1_555
C153_2 C148_2 1_555 1_555
H147_2 C148_2 1_555 1_555
H148_2 C149_2 1_555 1_555
C156_2 C153_2 1_555 1_555
N54_2 C156_2 1_555 1_555
H155_2 C156_2 1_555 1_555
H156_2 C156_2 1_555 1_555
C164_2 N54_2 1_555 1_555
C165_2 N54_2 1_555 1_555
N58_2 C164_2 1_555 1_555
H164_2 C164_2 1_555 1_555
H165_2 C165_2 1_555 1_555
C168_2 C165_2 1_555 1_555
Cd11 N58_2 1_555 1_555
H168_2 C168_2 1_555 1_555
C149_2 C153_2 1_555 1_555
N58_2 C168_2 1_555 1_555
Cd11 N30_2 1_555 1_555
Cd9_5 N33_2 1_555 1_555
N30_2 C85_2 1_555 1_555
N31_2 C85_2 1_555 1_555
N32_2 C95_2 1_555 1_555
N33_2 C97_2 1_555 1_555
C85_2 H85_2 1_555 1_555
C86_2 N31_2 1_555 1_555
H86_2 C86_2 1_555 1_555
C87_2 N30_2 1_555 1_555
H87_2 C87_2 1_555 1_555
C88_2 N31_2 1_555 1_555
H88_2 C88_2 1_555 1_555
H89_2 C88_2 1_555 1_555
C89_2 C88_2 1_555 1_555
C90_2 C89_2 1_555 1_555
H90_2 C90_2 1_555 1_555
C91_2 C89_2 1_555 1_555
H91_2 C91_2 1_555 1_555
C92_2 C90_2 1_555 1_555
H92_2 C92_2 1_555 1_555
C93_2 C91_2 1_555 1_555
H93_2 C93_2 1_555 1_555
C94_2 C92_2 1_555 1_555
C95_2 C94_2 1_555 1_555
H94_2 C95_2 1_555 1_555
H95_2 C95_2 1_555 1_555
C96_2 N32_2 1_555 1_555
H96_2 C96_2 1_555 1_555
C97_2 N32_2 1_555 1_555
H97_2 C97_2 1_555 1_555
C98_2 N33_2 1_555 1_555
H98_2 C98_2 1_555 1_555
N44_2 Cd9_5 1_555 1_555
C86_2 C87_2 1_555 1_555
C93_2 C94_2 1_555 1_555
C96_2 C98_2 1_555 1_555
H112_5 C112_5 1_555 1_555
C115_5 C112_5 1_555 1_555
H115_5 C115_5 1_555 1_555
C110_5 N44_2 1_555 1_555
H110_5 C110_5 1_555 1_555
N46_5 C110_5 1_555 1_555
C122_5 N46_5 1_555 1_555
C126_5 C122_5 1_555 1_555
H122_5 C122_5 1_555 1_555
H123_5 C122_5 1_555 1_555
C130_5 C126_5 1_555 1_555
C131_5 C126_5 1_555 1_555
C135_5 C130_5 1_555 1_555
H133_5 C130_5 1_555 1_555
C136_5 C131_5 1_555 1_555
H134_5 C131_5 1_555 1_555
C143_5 C135_5 1_555 1_555
H135_5 C135_5 1_555 1_555
H136_5 C136_5 1_555 1_555
C150_5 C143_5 1_555 1_555
N51_5 C150_5 1_555 1_555
H149_5 C150_5 1_555 1_555
H150_5 C150_5 1_555 1_555
C157_5 N51_5 1_555 1_555
C158_5 N51_5 1_555 1_555
N55_5 C157_5 1_555 1_555
H157_5 C157_5 1_555 1_555
C159_5 C158_5 1_555 1_555
H158_5 C158_5 1_555 1_555
Cd11_2 N55_5 1_555 1_555
H159_5 C159_5 1_555 1_555
C136_5 C143_5 1_555 1_555
N55_5 C159_5 1_555 1_555
C110_6 N45_2 1_555 1_555
H110_6 C110_6 1_555 1_555
N46_6 C110_6 1_555 1_555
C122_6 N46_6 1_555 1_555
C126_6 C122_6 1_555 1_555
H122_6 C122_6 1_555 1_555
H123_6 C122_6 1_555 1_555
C130_6 C126_6 1_555 1_555
C131_6 C126_6 1_555 1_555
C135_6 C130_6 1_555 1_555
H133_6 C130_6 1_555 1_555
C136_6 C131_6 1_555 1_555
H134_6 C131_6 1_555 1_555
C143_6 C135_6 1_555 1_555
H135_6 C135_6 1_555 1_555
H136_6 C136_6 1_555 1_555
C150_6 C143_6 1_555 1_555
N51_6 C150_6 1_555 1_555
H149_6 C150_6 1_555 1_555
H150_6 C150_6 1_555 1_555
C157_6 N51_6 1_555 1_555
C158_6 N51_6 1_555 1_555
N55_6 C157_6 1_555 1_555
H157_6 C157_6 1_555 1_555
C159_6 C158_6 1_555 1_555
H158_6 C158_6 1_555 1_555
Cd11_2 N55_6 1_555 1_555
H159_6 C159_6 1_555 1_555
C136_6 C143_6 1_555 1_555
N55_6 C159_6 1_555 1_555
H112_6 C112_6 1_555 1_555
C115_6 C112_6 1_555 1_555
H115_6 C115_6 1_555 1_555
C146_3 C139_3 1_555 1_555
H139_3 C139_3 1_555 1_555
C152_3 C146_3 1_555 1_555
H145_3 C146_3 1_555 1_555
C155_3 C152_3 1_555 1_555
N53_3 C155_3 1_555 1_555
H153_3 C155_3 1_555 1_555
H154_3 C155_3 1_555 1_555
C162_3 N53_3 1_555 1_555
C163_3 N53_3 1_555 1_555
N57_3 C162_3 1_555 1_555
H162_3 C162_3 1_555 1_555
H163_3 C163_3 1_555 1_555
C167_3 C163_3 1_555 1_555
Cd11_2 N57_3 1_555 1_555
H167_3 C167_3 1_555 1_555
N57_3 C167_3 1_555 1_555
Cd10 N33_3 1_555 1_555
N32_3 C95_3 1_555 1_555
N33_3 C97_3 1_555 1_555
H91_3 C91_3 1_555 1_555
C93_3 C91_3 1_555 1_555
H93_3 C93_3 1_555 1_555
C95_3 C94_3 1_555 1_555
H94_3 C95_3 1_555 1_555
H95_3 C95_3 1_555 1_555
C96_3 N32_3 1_555 1_555
H96_3 C96_3 1_555 1_555
C97_3 N32_3 1_555 1_555
H97_3 C97_3 1_555 1_555
C98_3 N33_3 1_555 1_555
H98_3 C98_3 1_555 1_555
N42_3 Cd10 1_555 1_555
N43_3 Cd10 1_555 1_555
C118_3 N42_3 1_555 1_555
C119_3 N42_3 1_555 1_555
C120_3 N43_3 1_555 1_555
C121_3 N43_3 1_555 1_555
N49_3 C118_3 1_555 1_555
H118_3 C118_3 1_555 1_555
C124_3 C119_3 1_555 1_555
H119_3 C119_3 1_555 1_555
N50_3 C120_3 1_555 1_555
H120_3 C120_3 1_555 1_555
C125_3 C121_3 1_555 1_555
H121_3 C121_3 1_555 1_555
C128_3 N49_3 1_555 1_555
H125_3 C124_3 1_555 1_555
C129_3 N50_3 1_555 1_555
H126_3 C125_3 1_555 1_555
C133_3 C128_3 1_555 1_555
H129_3 C128_3 1_555 1_555
H130_3 C128_3 1_555 1_555
C134_3 C129_3 1_555 1_555
H131_3 C129_3 1_555 1_555
H132_3 C129_3 1_555 1_555
C140_3 C133_3 1_555 1_555
C141_3 C134_3 1_555 1_555
C142_3 C134_3 1_555 1_555
C147_3 C140_3 1_555 1_555
H140_3 C140_3 1_555 1_555
C148_3 C141_3 1_555 1_555
H141_3 C141_3 1_555 1_555
C149_3 C142_3 1_555 1_555
H142_3 C142_3 1_555 1_555
H146_3 C147_3 1_555 1_555
C153_3 C148_3 1_555 1_555
H147_3 C148_3 1_555 1_555
H148_3 C149_3 1_555 1_555
C156_3 C153_3 1_555 1_555
N54_3 C156_3 1_555 1_555
H155_3 C156_3 1_555 1_555
H156_3 C156_3 1_555 1_555
C164_3 N54_3 1_555 1_555
C165_3 N54_3 1_555 1_555
N58_3 C164_3 1_555 1_555
H164_3 C164_3 1_555 1_555
H165_3 C165_3 1_555 1_555
C168_3 C165_3 1_555 1_555
Cd11_2 N58_3 1_555 1_555
H168_3 C168_3 1_555 1_555
C93_3 C94_3 1_555 1_555
C96_3 C98_3 1_555 1_555
N49_3 C124_3 1_555 1_555
N50_3 C125_3 1_555 1_555
C149_3 C153_3 1_555 1_555
N58_3 C168_3 1_555 1_555
Cd11_2 N30_3 1_555 1_555
N30_3 C85_3 1_555 1_555
N31_3 C85_3 1_555 1_555
C85_3 H85_3 1_555 1_555
C86_3 N31_3 1_555 1_555
H86_3 C86_3 1_555 1_555
C87_3 N30_3 1_555 1_555
H87_3 C87_3 1_555 1_555
C88_3 N31_3 1_555 1_555
H88_3 C88_3 1_555 1_555
H89_3 C88_3 1_555 1_555
C89_3 C88_3 1_555 1_555
C90_3 C89_3 1_555 1_555
H90_3 C90_3 1_555 1_555
C92_3 C90_3 1_555 1_555
H92_3 C92_3 1_555 1_555
C86_3 C87_3 1_555 1_555
N34_2 Cd8 1_555 1_555
N35_4 C99_4 1_555 1_555
N36_4 C109_4 1_555 1_555
C99_4 N34_2 1_555 1_555
H99_4 C99_4 1_555 1_555
C100_4 N34_2 1_555 1_555
H100_4 C100_4 1_555 1_555
C101_4 N35_4 1_555 1_555
H101_4 C101_4 1_555 1_555
C102_4 N35_4 1_555 1_555
H102_4 C102_4 1_555 1_555
H103_4 C102_4 1_555 1_555
C103_4 C102_4 1_555 1_555
C104_4 C103_4 1_555 1_555
H104_4 C104_4 1_555 1_555
C105_4 C103_4 1_555 1_555
H105_4 C105_4 1_555 1_555
C106_4 C104_4 1_555 1_555
H106_4 C106_4 1_555 1_555
C107_4 C105_4 1_555 1_555
H107_4 C107_4 1_555 1_555
C108_4 C106_4 1_555 1_555
C109_4 C108_4 1_555 1_555
H108_4 C109_4 1_555 1_555
H109_4 C109_4 1_555 1_555
C111_4 N36_4 1_555 1_555
H111_4 C111_4 1_555 1_555
N38 Cd8 1_555 1_555
C113_4 N36_4 1_555 1_555
C114_4 C111_4 1_555 1_555
C116 N38 1_555 1_555
N47_4 C113_4 1_555 1_555
H113_4 C113_4 1_555 1_555
H114_4 C114_4 1_555 1_555
N48 C116 1_555 1_555
H116 C116 1_555 1_555
C127 N48 1_555 1_555
H124 C123 1_555 1_555
H127 C127 1_555 1_555
H128 C127 1_555 1_555
C132 C127 1_555 1_555
C137 C132 1_555 1_555
C138 C132 1_555 1_555
H137 C137 1_555 1_555
C144 C137 1_555 1_555
H138 C138 1_555 1_555
C145 C138 1_555 1_555
H143 C144 1_555 1_555
C151 C144 1_555 1_555
H144 C145 1_555 1_555
C154 C151 1_555 1_555
N52 C154 1_555 1_555
H151 C154 1_555 1_555
H152 C154 1_555 1_555
C160 N52 1_555 1_555
C161 N52 1_555 1_555
H160 C160 1_555 1_555
C166 C160 1_555 1_555
N56 C161 1_555 1_555
H161 C161 1_555 1_555
H166 C166 1_555 1_555
Cd12 N56 1_555 1_555
C100_4 C101_4 1_555 1_555
C107_4 C108_4 1_555 1_555
C114_4 N47_4 1_555 1_555
N48 C123 1_555 1_555
C145 C151 1_555 1_555
C166 N56 1_555 1_555
N41_2 Cd8_2 1_555 1_555
H117 C117 1_555 1_555
H168_4 C168_4 1_555 1_555
N39 Cd8_3 1_555 1_555
Cd8_4 N30_4 1_555 1_555
Cd12 N33_4 1_555 1_555
N30_4 C85_4 1_555 1_555
N31_4 C85_4 1_555 1_555
N32_4 C95_4 1_555 1_555
N33_4 C97_4 1_555 1_555
C85_4 H85_4 1_555 1_555
C86_4 N31_4 1_555 1_555
H86_4 C86_4 1_555 1_555
C87_4 N30_4 1_555 1_555
H87_4 C87_4 1_555 1_555
C88_4 N31_4 1_555 1_555
H88_4 C88_4 1_555 1_555
H89_4 C88_4 1_555 1_555
C89_4 C88_4 1_555 1_555
C90_4 C89_4 1_555 1_555
H90_4 C90_4 1_555 1_555
C91_4 C89_4 1_555 1_555
H91_4 C91_4 1_555 1_555
C92_4 C90_4 1_555 1_555
H92_4 C92_4 1_555 1_555
C93_4 C91_4 1_555 1_555
H93_4 C93_4 1_555 1_555
C94_4 C92_4 1_555 1_555
C95_4 C94_4 1_555 1_555
H94_4 C95_4 1_555 1_555
H95_4 C95_4 1_555 1_555
C96_4 N32_4 1_555 1_555
H96_4 C96_4 1_555 1_555
C97_4 N32_4 1_555 1_555
H97_4 C97_4 1_555 1_555
C98_4 N33_4 1_555 1_555
H98_4 C98_4 1_555 1_555
N37_3 Cd12 1_555 1_555
C110_7 N37_3 1_555 1_555
H110_7 C110_7 1_555 1_555
C112_7 N37_3 1_555 1_555
H112_7 C112_7 1_555 1_555
N40_2 Cd8_4 1_555 1_555
N43_4 Cd12 1_555 1_555
N44_3 Cd12 1_555 1_555
N45_3 Cd12 1_555 1_555
N46_7 C110_7 1_555 1_555
C115_7 C112_7 1_555 1_555
C120_4 N43_4 1_555 1_555
C121_4 N43_4 1_555 1_555
C122_7 N46_7 1_555 1_555
H115_7 C115_7 1_555 1_555
N50_4 C120_4 1_555 1_555
H120_4 C120_4 1_555 1_555
C125_4 C121_4 1_555 1_555
H121_4 C121_4 1_555 1_555
C126_7 C122_7 1_555 1_555
H122_7 C122_7 1_555 1_555
H123_7 C122_7 1_555 1_555
C129_4 N50_4 1_555 1_555
H126_4 C125_4 1_555 1_555
C131_7 C126_7 1_555 1_555
C134_4 C129_4 1_555 1_555
H131_4 C129_4 1_555 1_555
H132_4 C129_4 1_555 1_555
C136_7 C131_7 1_555 1_555
H134_7 C131_7 1_555 1_555
C141_4 C134_4 1_555 1_555
C142_4 C134_4 1_555 1_555
H136_7 C136_7 1_555 1_555
C148_4 C141_4 1_555 1_555
H141_4 C141_4 1_555 1_555
C149_4 C142_4 1_555 1_555
H142_4 C142_4 1_555 1_555
C153_4 C148_4 1_555 1_555
H147_4 C148_4 1_555 1_555
H148_4 C149_4 1_555 1_555
C156_4 C153_4 1_555 1_555
N54_4 C156_4 1_555 1_555
H155_4 C156_4 1_555 1_555
H156_4 C156_4 1_555 1_555
C164_4 N54_4 1_555 1_555
C165_4 N54_4 1_555 1_555
N39 C164_4 1_555 1_555
H164_4 C164_4 1_555 1_555
H165_4 C165_4 1_555 1_555
C86_4 C87_4 1_555 1_555
C93_4 C94_4 1_555 1_555
C96_4 C98_4 1_555 1_555
N46_7 C115_7 1_555 1_555
N50_4 C125_4 1_555 1_555
C149_4 C153_4 1_555 1_555
C135_7 C130_7 1_555 1_555
H133_7 C130_7 1_555 1_555
C143_7 C135_7 1_555 1_555
H135_7 C135_7 1_555 1_555
C150_7 C143_7 1_555 1_555
N51_7 C150_7 1_555 1_555
H149_7 C150_7 1_555 1_555
C157_7 N51_7 1_555 1_555
C158_7 N51_7 1_555 1_555
N55_7 C157_7 1_555 1_555
H157_7 C157_7 1_555 1_555
C159_7 C158_7 1_555 1_555
H158_7 C158_7 1_555 1_555
Cd11_3 N55_7 1_555 1_555
H159_7 C159_7 1_555 1_555
N55_7 C159_7 1_555 1_555
C135_8 C130_8 1_555 1_555
H133_8 C130_8 1_555 1_555
C143_8 C135_8 1_555 1_555
H135_8 C135_8 1_555 1_555
C150_8 C143_8 1_555 1_555
N51_8 C150_8 1_555 1_555
H149_8 C150_8 1_555 1_555
C157_8 N51_8 1_555 1_555
C158_8 N51_8 1_555 1_555
N55_8 C157_8 1_555 1_555
H157_8 C157_8 1_555 1_555
C159_8 C158_8 1_555 1_555
H158_8 C158_8 1_555 1_555
Cd11_3 N55_8 1_555 1_555
H159_8 C159_8 1_555 1_555
N55_8 C159_8 1_555 1_555
C110_8 N44_3 1_555 1_555
H110_8 C110_8 1_555 1_555
C112_8 N44_3 1_555 1_555
H112_8 C112_8 1_555 1_555
N46_8 C110_8 1_555 1_555
C115_8 C112_8 1_555 1_555
C122_8 N46_8 1_555 1_555
H115_8 C115_8 1_555 1_555
C126_8 C122_8 1_555 1_555
H122_8 C122_8 1_555 1_555
H123_8 C122_8 1_555 1_555
C131_8 C126_8 1_555 1_555
C136_8 C131_8 1_555 1_555
H134_8 C131_8 1_555 1_555
H136_8 C136_8 1_555 1_555
N46_8 C115_8 1_555 1_555
H100_5 C100_5 1_555 1_555
N35_5 C99_5 1_555 1_555
N36_5 C109_5 1_555 1_555
C99_5 N40_2 1_555 1_555
H99_5 C99_5 1_555 1_555
C101_5 N35_5 1_555 1_555
H101_5 C101_5 1_555 1_555
C102_5 N35_5 1_555 1_555
H102_5 C102_5 1_555 1_555
H103_5 C102_5 1_555 1_555
C103_5 C102_5 1_555 1_555
C104_5 C103_5 1_555 1_555
H104_5 C104_5 1_555 1_555
C105_5 C103_5 1_555 1_555
H105_5 C105_5 1_555 1_555
C106_5 C104_5 1_555 1_555
H106_5 C106_5 1_555 1_555
C107_5 C105_5 1_555 1_555
H107_5 C107_5 1_555 1_555
C108_5 C106_5 1_555 1_555
C109_5 C108_5 1_555 1_555
H108_5 C109_5 1_555 1_555
H109_5 C109_5 1_555 1_555
C111_5 N36_5 1_555 1_555
H111_5 C111_5 1_555 1_555
C113_5 N36_5 1_555 1_555
C114_5 C111_5 1_555 1_555
N47_5 C113_5 1_555 1_555
H113_5 C113_5 1_555 1_555
H114_5 C114_5 1_555 1_555
C107_5 C108_5 1_555 1_555
C114_5 N47_5 1_555 1_555
N35_6 C99_6 1_555 1_555
N36_6 C109_6 1_555 1_555
C99_6 N41_2 1_555 1_555
H99_6 C99_6 1_555 1_555
C101_6 N35_6 1_555 1_555
H101_6 C101_6 1_555 1_555
C102_6 N35_6 1_555 1_555
H102_6 C102_6 1_555 1_555
H103_6 C102_6 1_555 1_555
C103_6 C102_6 1_555 1_555
C104_6 C103_6 1_555 1_555
H104_6 C104_6 1_555 1_555
C105_6 C103_6 1_555 1_555
H105_6 C105_6 1_555 1_555
C106_6 C104_6 1_555 1_555
H106_6 C106_6 1_555 1_555
C107_6 C105_6 1_555 1_555
H107_6 C107_6 1_555 1_555
C108_6 C106_6 1_555 1_555
C109_6 C108_6 1_555 1_555
H108_6 C109_6 1_555 1_555
H109_6 C109_6 1_555 1_555
C111_6 N36_6 1_555 1_555
H111_6 C111_6 1_555 1_555
C113_6 N36_6 1_555 1_555
C114_6 C111_6 1_555 1_555
N47_6 C113_6 1_555 1_555
H113_6 C113_6 1_555 1_555
H114_6 C114_6 1_555 1_555
C107_6 C108_6 1_555 1_555
C114_6 N47_6 1_555 1_555
C110_9 N45_3 1_555 1_555
H110_9 C110_9 1_555 1_555
C112_9 N45_3 1_555 1_555
H112_9 C112_9 1_555 1_555
N46_9 C110_9 1_555 1_555
C115_9 C112_9 1_555 1_555
C122_9 N46_9 1_555 1_555
H115_9 C115_9 1_555 1_555
C126_9 C122_9 1_555 1_555
H122_9 C122_9 1_555 1_555
H123_9 C122_9 1_555 1_555
C130_9 C126_9 1_555 1_555
C131_9 C126_9 1_555 1_555
C135_9 C130_9 1_555 1_555
H133_9 C130_9 1_555 1_555
C136_9 C131_9 1_555 1_555
H134_9 C131_9 1_555 1_555
C143_9 C135_9 1_555 1_555
H135_9 C135_9 1_555 1_555
H136_9 C136_9 1_555 1_555
C150_9 C143_9 1_555 1_555
N51_9 C150_9 1_555 1_555
H149_9 C150_9 1_555 1_555
H150_9 C150_9 1_555 1_555
C157_9 N51_9 1_555 1_555
C158_9 N51_9 1_555 1_555
N55_9 C157_9 1_555 1_555
H157_9 C157_9 1_555 1_555
C159_9 C158_9 1_555 1_555
H158_9 C158_9 1_555 1_555
Cd11_3 N55_9 1_555 1_555
H159_9 C159_9 1_555 1_555
N46_9 C115_9 1_555 1_555
C136_9 C143_9 1_555 1_555
N55_9 C159_9 1_555 1_555
H100_6 C100_6 1_555 1_555
H160_2 C160_2 1_555 1_555
C166_2 C160_2 1_555 1_555
H166_2 C166_2 1_555 1_555
Cd12_4 N56_2 1_555 1_555
C166_2 N56_2 1_555 1_555
Cd11_3 N30_5 1_555 1_555
Cd12_2 N33_5 1_555 1_555
N30_5 C85_5 1_555 1_555
N31_5 C85_5 1_555 1_555
N32_5 C95_5 1_555 1_555
N33_5 C97_5 1_555 1_555
C85_5 H85_5 1_555 1_555
C86_5 N31_5 1_555 1_555
H86_5 C86_5 1_555 1_555
C87_5 N30_5 1_555 1_555
H87_5 C87_5 1_555 1_555
C88_5 N31_5 1_555 1_555
H88_5 C88_5 1_555 1_555
H89_5 C88_5 1_555 1_555
C89_5 C88_5 1_555 1_555
C90_5 C89_5 1_555 1_555
H90_5 C90_5 1_555 1_555
C91_5 C89_5 1_555 1_555
H91_5 C91_5 1_555 1_555
C92_5 C90_5 1_555 1_555
H92_5 C92_5 1_555 1_555
C93_5 C91_5 1_555 1_555
H93_5 C93_5 1_555 1_555
C94_5 C92_5 1_555 1_555
C95_5 C94_5 1_555 1_555
H94_5 C95_5 1_555 1_555
H95_5 C95_5 1_555 1_555
C96_5 N32_5 1_555 1_555
H96_5 C96_5 1_555 1_555
C97_5 N32_5 1_555 1_555
H97_5 C97_5 1_555 1_555
C98_5 N33_5 1_555 1_555
H98_5 C98_5 1_555 1_555
N38_2 Cd11_3 1_555 1_555
N39_2 Cd11_3 1_555 1_555
N44_4 Cd12_2 1_555 1_555
C116_2 N38_2 1_555 1_555
C117_2 N38_2 1_555 1_555
N48_2 C116_2 1_555 1_555
H116_2 C116_2 1_555 1_555
C123_2 C117_2 1_555 1_555
H117_2 C117_2 1_555 1_555
C127_2 N48_2 1_555 1_555
H124_2 C123_2 1_555 1_555
H127_2 C127_2 1_555 1_555
H128_2 C127_2 1_555 1_555
C132_2 C127_2 1_555 1_555
C137_2 C132_2 1_555 1_555
C138_2 C132_2 1_555 1_555
H137_2 C137_2 1_555 1_555
C144_2 C137_2 1_555 1_555
H138_2 C138_2 1_555 1_555
C145_2 C138_2 1_555 1_555
H143_2 C144_2 1_555 1_555
C151_2 C144_2 1_555 1_555
H144_2 C145_2 1_555 1_555
C154_2 C151_2 1_555 1_555
N52_2 C154_2 1_555 1_555
H151_2 C154_2 1_555 1_555
H152_2 C154_2 1_555 1_555
C161_2 N52_2 1_555 1_555
H161_2 C161_2 1_555 1_555
C86_5 C87_5 1_555 1_555
C93_5 C94_5 1_555 1_555
C96_5 C98_5 1_555 1_555
N48_2 C123_2 1_555 1_555
C145_2 C151_2 1_555 1_555
N50_5 C120_5 1_555 1_555
H120_5 C120_5 1_555 1_555
C129_5 N50_5 1_555 1_555
C134_5 C129_5 1_555 1_555
H131_5 C129_5 1_555 1_555
H132_5 C129_5 1_555 1_555
C141_5 C134_5 1_555 1_555
C142_5 C134_5 1_555 1_555
C148_5 C141_5 1_555 1_555
H141_5 C141_5 1_555 1_555
C149_5 C142_5 1_555 1_555
H142_5 C142_5 1_555 1_555
C153_5 C148_5 1_555 1_555
H147_5 C148_5 1_555 1_555
H148_5 C149_5 1_555 1_555
C156_5 C153_5 1_555 1_555
N54_5 C156_5 1_555 1_555
H155_5 C156_5 1_555 1_555
H156_5 C156_5 1_555 1_555
C164_5 N54_5 1_555 1_555
C165_5 N54_5 1_555 1_555
N39_2 C164_5 1_555 1_555
H164_5 C164_5 1_555 1_555
H165_5 C165_5 1_555 1_555
C168_5 C165_5 1_555 1_555
H168_5 C168_5 1_555 1_555
C149_5 C153_5 1_555 1_555
N39_2 C168_5 1_555 1_555
N45_4 Cd12_4 1_555 1_555
N37_4 Cd12_5 1_555 1_555
C110_10 N37_4 1_555 1_555
H110_10 C110_10 1_555 1_555
C112_10 N37_4 1_555 1_555
H112_10 C112_10 1_555 1_555
N43_5 Cd12_5 1_555 1_555
N46_10 C110_10 1_555 1_555
C115_10 C112_10 1_555 1_555
C121_5 N43_5 1_555 1_555
C122_10 N46_10 1_555 1_555
H115_10 C115_10 1_555 1_555
C125_5 C121_5 1_555 1_555
H121_5 C121_5 1_555 1_555
C126_10 C122_10 1_555 1_555
H122_10 C122_10 1_555 1_555
H123_10 C122_10 1_555 1_555
H126_5 C125_5 1_555 1_555
C130_10 C126_10 1_555 1_555
C131_10 C126_10 1_555 1_555
C135_10 C130_10 1_555 1_555
H133_10 C130_10 1_555 1_555
C136_10 C131_10 1_555 1_555
H134_10 C131_10 1_555 1_555
C143_10 C135_10 1_555 1_555
H135_10 C135_10 1_555 1_555
H136_10 C136_10 1_555 1_555
C150_10 C143_10 1_555 1_555
N51_10 C150_10 1_555 1_555
H149_10 C150_10 1_555 1_555
H150_10 C150_10 1_555 1_555
C157_10 N51_10 1_555 1_555
C158_10 N51_10 1_555 1_555
N55_10 C157_10 1_555 1_555
H157_10 C157_10 1_555 1_555
C159_10 C158_10 1_555 1_555
H158_10 C158_10 1_555 1_555
Cd11_4 N55_10 1_555 1_555
H159_10 C159_10 1_555 1_555
N46_10 C115_10 1_555 1_555
C136_10 C143_10 1_555 1_555
N55_10 C159_10 1_555 1_555
C110_11 N44_4 1_555 1_555
H110_11 C110_11 1_555 1_555
N46_11 C110_11 1_555 1_555
C122_11 N46_11 1_555 1_555
C126_11 C122_11 1_555 1_555
H122_11 C122_11 1_555 1_555
H123_11 C122_11 1_555 1_555
C130_11 C126_11 1_555 1_555
C131_11 C126_11 1_555 1_555
C135_11 C130_11 1_555 1_555
H133_11 C130_11 1_555 1_555
C136_11 C131_11 1_555 1_555
H134_11 C131_11 1_555 1_555
C143_11 C135_11 1_555 1_555
H135_11 C135_11 1_555 1_555
H136_11 C136_11 1_555 1_555
C150_11 C143_11 1_555 1_555
N51_11 C150_11 1_555 1_555
H149_11 C150_11 1_555 1_555
H150_11 C150_11 1_555 1_555
C157_11 N51_11 1_555 1_555
C158_11 N51_11 1_555 1_555
N55_11 C157_11 1_555 1_555
H157_11 C157_11 1_555 1_555
C159_11 C158_11 1_555 1_555
H158_11 C158_11 1_555 1_555
Cd11_4 N55_11 1_555 1_555
H159_11 C159_11 1_555 1_555
C136_11 C143_11 1_555 1_555
N55_11 C159_11 1_555 1_555
H112_11 C112_11 1_555 1_555
C115_11 C112_11 1_555 1_555
H115_11 C115_11 1_555 1_555
H112_12 C112_12 1_555 1_555
C115_12 C112_12 1_555 1_555
H115_12 C115_12 1_555 1_555
C110_12 N45_4 1_555 1_555
H110_12 C110_12 1_555 1_555
N46_12 C110_12 1_555 1_555
C122_12 N46_12 1_555 1_555
C126_12 C122_12 1_555 1_555
H122_12 C122_12 1_555 1_555
H123_12 C122_12 1_555 1_555
C130_12 C126_12 1_555 1_555
C131_12 C126_12 1_555 1_555
C135_12 C130_12 1_555 1_555
H133_12 C130_12 1_555 1_555
C136_12 C131_12 1_555 1_555
H134_12 C131_12 1_555 1_555
C143_12 C135_12 1_555 1_555
H135_12 C135_12 1_555 1_555
H136_12 C136_12 1_555 1_555
C150_12 C143_12 1_555 1_555
N51_12 C150_12 1_555 1_555
H149_12 C150_12 1_555 1_555
H150_12 C150_12 1_555 1_555
C157_12 N51_12 1_555 1_555
C158_12 N51_12 1_555 1_555
N55_12 C157_12 1_555 1_555
H157_12 C157_12 1_555 1_555
C159_12 C158_12 1_555 1_555
H158_12 C158_12 1_555 1_555
Cd11_4 N55_12 1_555 1_555
H159_12 C159_12 1_555 1_555
C136_12 C143_12 1_555 1_555
N55_12 C159_12 1_555 1_555
H138_3 C138_3 1_555 1_555
C145_3 C138_3 1_555 1_555
H144_3 C145_3 1_555 1_555
C154_3 C151_3 1_555 1_555
N52_3 C154_3 1_555 1_555
H151_3 C154_3 1_555 1_555
H152_3 C154_3 1_555 1_555
C160_3 N52_3 1_555 1_555
C161_3 N52_3 1_555 1_555
H160_3 C160_3 1_555 1_555
C166_3 C160_3 1_555 1_555
N56_3 C161_3 1_555 1_555
H161_3 C161_3 1_555 1_555
H166_3 C166_3 1_555 1_555
Cd10_2 N56_3 1_555 1_555
C145_3 C151_3 1_555 1_555
C166_3 N56_3 1_555 1_555
Cd11_4 N30_6 1_555 1_555
N30_6 C85_6 1_555 1_555
N31_6 C85_6 1_555 1_555
C85_6 H85_6 1_555 1_555
C86_6 N31_6 1_555 1_555
H86_6 C86_6 1_555 1_555
C87_6 N30_6 1_555 1_555
H87_6 C87_6 1_555 1_555
C88_6 N31_6 1_555 1_555
H88_6 C88_6 1_555 1_555
H89_6 C88_6 1_555 1_555
C89_6 C88_6 1_555 1_555
C90_6 C89_6 1_555 1_555
H90_6 C90_6 1_555 1_555
C92_6 C90_6 1_555 1_555
H92_6 C92_6 1_555 1_555
N38_3 Cd11_4 1_555 1_555
N39_3 Cd11_4 1_555 1_555
C116_3 N38_3 1_555 1_555
C117_3 N38_3 1_555 1_555
N48_3 C116_3 1_555 1_555
H116_3 C116_3 1_555 1_555
C123_3 C117_3 1_555 1_555
H117_3 C117_3 1_555 1_555
C127_3 N48_3 1_555 1_555
H124_3 C123_3 1_555 1_555
H127_3 C127_3 1_555 1_555
H128_3 C127_3 1_555 1_555
C132_3 C127_3 1_555 1_555
C137_3 C132_3 1_555 1_555
H137_3 C137_3 1_555 1_555
C144_3 C137_3 1_555 1_555
H143_3 C144_3 1_555 1_555
C86_6 C87_6 1_555 1_555
N48_3 C123_3 1_555 1_555
Cd10_2 N33_6 1_555 1_555
N32_6 C95_6 1_555 1_555
N33_6 C97_6 1_555 1_555
H91_6 C91_6 1_555 1_555
C93_6 C91_6 1_555 1_555
H93_6 C93_6 1_555 1_555
C95_6 C94_6 1_555 1_555
H94_6 C95_6 1_555 1_555
H95_6 C95_6 1_555 1_555
C96_6 N32_6 1_555 1_555
H96_6 C96_6 1_555 1_555
C97_6 N32_6 1_555 1_555
H97_6 C97_6 1_555 1_555
C98_6 N33_6 1_555 1_555
H98_6 C98_6 1_555 1_555
N43_6 Cd10_2 1_555 1_555
C120_6 N43_6 1_555 1_555
C121_6 N43_6 1_555 1_555
N50_6 C120_6 1_555 1_555
H120_6 C120_6 1_555 1_555
C125_6 C121_6 1_555 1_555
H121_6 C121_6 1_555 1_555
C129_6 N50_6 1_555 1_555
H126_6 C125_6 1_555 1_555
C134_6 C129_6 1_555 1_555
H131_6 C129_6 1_555 1_555
H132_6 C129_6 1_555 1_555
C141_6 C134_6 1_555 1_555
C142_6 C134_6 1_555 1_555
C148_6 C141_6 1_555 1_555
H141_6 C141_6 1_555 1_555
C149_6 C142_6 1_555 1_555
H142_6 C142_6 1_555 1_555
C153_6 C148_6 1_555 1_555
H147_6 C148_6 1_555 1_555
H148_6 C149_6 1_555 1_555
C156_6 C153_6 1_555 1_555
N54_6 C156_6 1_555 1_555
H155_6 C156_6 1_555 1_555
H156_6 C156_6 1_555 1_555
C164_6 N54_6 1_555 1_555
C165_6 N54_6 1_555 1_555
N39_3 C164_6 1_555 1_555
H164_6 C164_6 1_555 1_555
H165_6 C165_6 1_555 1_555
C168_6 C165_6 1_555 1_555
H168_6 C168_6 1_555 1_555
C93_6 C94_6 1_555 1_555
C96_6 C98_6 1_555 1_555
N50_6 C125_6 1_555 1_555
C149_6 C153_6 1_555 1_555
N39_3 C168_6 1_555 1_555
Cl1 O1 1_555 1_555
O2 Cl1 1_555 1_555
O3 Cl1 1_555 1_555
O4 Cl1 1_555 1_555
Cl1_2 O1_2 1_555 1_555
O3_2 Cl1_2 1_555 1_555
Cl1_3 O1_3 1_555 1_555
O3_3 Cl1_3 1_555 1_555
Cl1_4 O1_4 1_555 1_555
O2_4 Cl1_4 1_555 1_555
Cl1_5 O1_5 1_555 1_555
O2_5 Cl1_5 1_555 1_555
O3_5 Cl1_5 1_555 1_555
O4_5 Cl1_5 1_555 1_555
Cl1_6 O1_6 1_555 1_555
O2_6 Cl1_6 1_555 1_555
Cl1_7 O1_7 1_555 1_555
O2_7 Cl1_7 1_555 1_555
O3_7 Cl1_7 1_555 1_555
Cl1_8 O1_8 1_555 1_555
O2_8 Cl1_8 1_555 1_555
O3_8 Cl1_8 1_555 1_555
Cl1_9 O1_9 1_555 1_555
O2_9 Cl1_9 1_555 1_555
O3_9 Cl1_9 1_555 1_555
O4_9 Cl1_9 1_555 1_555
Cl1_10 O1_10 1_555 1_555
O2_10 Cl1_10 1_555 1_555
O3_10 Cl1_10 1_555 1_555
O4_10 Cl1_10 1_555 1_555
Cl1_11 O1_11 1_555 1_555
O3_11 Cl1_11 1_555 1_555
Cl1_12 O1_12 1_555 1_555
O3_12 Cl1_12 1_555 1_555
Cl1_13 O1_13 1_555 1_555
O2_13 Cl1_13 1_555 1_555
Cl1_14 O1_14 1_555 1_555
O2_14 Cl1_14 1_555 1_555
O3_14 Cl1_14 1_555 1_555
O4_14 Cl1_14 1_555 1_555
Cl1_15 O1_15 1_555 1_555
O2_15 Cl1_15 1_555 1_555
Cl1_16 O1_16 1_555 1_555
O2_16 Cl1_16 1_555 1_555
O3_16 Cl1_16 1_555 1_555
Cl1_17 O1_17 1_555 1_555
O2_17 Cl1_17 1_555 1_555
O3_17 Cl1_17 1_555 1_555
Cl1_18 O1_18 1_555 1_555
O2_18 Cl1_18 1_555 1_555
O3_18 Cl1_18 1_555 1_555
O4_18 Cl1_18 1_555 1_555
O6 Cl2 1_555 1_555
O8 Cl2 1_555 1_555
O6_2 Cl2_2 1_555 1_555
O8_2 Cl2_2 1_555 1_555
O6_3 Cl2_3 1_555 1_555
O8_3 Cl2_3 1_555 1_555
O6_4 Cl2_4 1_555 1_555
O7_4 Cl2_4 1_555 1_555
O8_4 Cl2_4 1_555 1_555
Cl2_5 O5_5 1_555 1_555
O6_5 Cl2_5 1_555 1_555
O7_5 Cl2_5 1_555 1_555
O8_5 Cl2_5 1_555 1_555
O6_6 Cl2_6 1_555 1_555
O7_6 Cl2_6 1_555 1_555
O8_6 Cl2_6 1_555 1_555
O7_7 Cl2_7 1_555 1_555
O8_7 Cl2_7 1_555 1_555
O7_8 Cl2_8 1_555 1_555
O8_8 Cl2_8 1_555 1_555
Cl2_9 O5_9 1_555 1_555
O6_9 Cl2_9 1_555 1_555
O7_9 Cl2_9 1_555 1_555
O8_9 Cl2_9 1_555 1_555
O6_10 Cl2_10 1_555 1_555
O8_10 Cl2_10 1_555 1_555
O6_11 Cl2_11 1_555 1_555
O8_11 Cl2_11 1_555 1_555
O6_12 Cl2_12 1_555 1_555
O8_12 Cl2_12 1_555 1_555
O6_13 Cl2_13 1_555 1_555
O7_13 Cl2_13 1_555 1_555
O8_13 Cl2_13 1_555 1_555
Cl2_14 O5_14 1_555 1_555
O6_14 Cl2_14 1_555 1_555
O7_14 Cl2_14 1_555 1_555
O8_14 Cl2_14 1_555 1_555
O6_15 Cl2_15 1_555 1_555
O7_15 Cl2_15 1_555 1_555
O8_15 Cl2_15 1_555 1_555
O7_16 Cl2_16 1_555 1_555
O8_16 Cl2_16 1_555 1_555
O7_17 Cl2_17 1_555 1_555
O8_17 Cl2_17 1_555 1_555
Cl2_18 O5_18 1_555 1_555
O6_18 Cl2_18 1_555 1_555
O7_18 Cl2_18 1_555 1_555
O8_18 Cl2_18 1_555 1_555

#END
