
###############################################################################
#
# This file contains modified crystal structure data generated from the
# MOF subset of the Cambridge Structural Database (CSD) v543 
# hosted by the Cambridge Crystallographic Data Centre (CCDC).
#
# This work is licensed under the Creative Commons
# Attribution-NonCommercial-ShareAlike 4.0 International License.
# To view a copy of this license, visit
# http://creativecommons.org/licenses/by-nc-sa/4.0/
# or send a letter to
# Creative Commons, PO Box 1866, Mountain View, CA 94042, USA.
#
# CIF created using the CSD Python API on 29 September 2022
# The structure has been converted into the P1 space group
# The structure has a 3D framework
# The original CSD entry HULCOI is in the tetragonal crystal system
# The framework has been calculated to contain at least 10.0% void space
# The void calculation uses a probe of radius 1.32A, grid spacing 0.4
# H atom positions have been added when not included in the experimental data
#
###############################################################################

data_HULCOI
_chemical_formula_moiety         '(C528 H384 Cu56 N96 O282)n'
_symmetry_cell_setting           triclinic
_symmetry_space_group_name_H-M   'P 1'
_symmetry_Int_Tables_number      1
_space_group_name_Hall           'P 1'
loop_
_symmetry_equiv_pos_site_id
_symmetry_equiv_pos_as_xyz
1 x,y,z
_cell_length_a                   31.0865(6)
_cell_length_b                   31.0865(6)
_cell_length_c                   44.596(3)
_cell_angle_alpha                90
_cell_angle_beta                 90
_cell_angle_gamma                90
_cell_volume                     43096.3
loop_
_atom_site_label
_atom_site_type_symbol
_atom_site_fract_x
_atom_site_fract_y
_atom_site_fract_z
C3 C 0.3324(12) 0.0254(8) 0.1342(8)
C4 C 0.3137(12) 0.0415(7) 0.1602(10)
H2 H 0.3178 0.0701 0.1656
C5 C 0.2886(8) 0.0148(7) 0.1781(6)
Cu1 Cu 0.54447(8) 0.24750(7) 0.0000
Cu2 Cu 0.55850(8) 0.16367(7) 0.0000
Cu3 Cu 0.36244(5) 0.30144(5) 0.16855(5)
Cu4 Cu 0.39676(5) 0.35074(5) 0.12684(5)
O3 O 0.3815(2) 0.2540(2) 0.1421(2)
O4 O 0.1526(3) 0.1438(2) 0.3120(3)
O5 O 0.5132(3) 0.1608(2) 0.0306(2)
O6 O 0.1245(2) 0.1013(2) 0.3483(2)
O7 O 0.4125(3) 0.2964(2) 0.1076(3)
C10 C 0.4033(4) 0.2622(4) 0.1208(4)
O11 O 0.5023(3) 0.2324(2) 0.0300(2)
C11 C 0.1455(4) 0.1095(4) 0.3260(4)
C14 C 0.4968(5) 0.1936(4) 0.0395(4)
O14 O 0.5721(5) 0.0955(4) 0.0000
O15 O 0.3521(6) 0.1157(4) 0.1381(6)
C15 C 0.4179(4) 0.2216(4) 0.1034(4)
C17 C 0.1634(4) 0.0694(4) 0.3096(4)
C19 C 0.4638(5) 0.1905(4) 0.0635(4)
O16 O 0.3349(5) 0.2590(4) 0.2034(3)
H8 H 0.3420 0.2677 0.2200
N3 N 0.2655(9) 0.0352(5) 0.2022(7)
H9 H 0.2670 0.0628 0.2029
C21 C 0.4462(4) 0.2261(4) 0.0784(3)
H10 H 0.4531 0.2536 0.0717
C22 C 0.1843(5) 0.0744(4) 0.2821(4)
H11 H 0.1855 0.1013 0.2730
C23 C 0.4480(6) 0.1505(5) 0.0725(5)
H12 H 0.4589 0.1259 0.0633
N4 N 0.4032(6) 0.1040(4) 0.0998(7)
H14 H 0.4150 0.0836 0.0897
C26 C 0.1591(4) 0.0298(4) 0.3217(3)
H16 H 0.1420 0.0268 0.3387
N5 N 0.2289(7) 0.0461(4) 0.2463(6)
H17 H 0.2390 0.0718 0.2453
C27 C 0.2039(5) 0.0382(5) 0.2677(5)
O18 O 0.4251(5) 0.3906(5) 0.0911(4)
H18 H 0.4476 0.3796 0.0854
C29 C 0.4034(5) 0.1818(4) 0.1094(4)
H19 H 0.3830 0.1780 0.1245
C31 C 0.2424(9) 0.0166(6) 0.2232(6)
C32 C 0.3716(9) 0.0915(6) 0.1202(6)
C33 C 0.4183(7) 0.1459(5) 0.0934(6)
N6 N 0.3660(8) 0.0478(5) 0.1172(7)
H21 H 0.3823 0.0336 0.1052
O19 O 0.5308(7) 0.3160(4) 0.0000
H23 H 0.5542 0.0829 0.0103
H24 H 0.5288 0.3246 0.0173
C34 C 0.0440(5) 0.3012(9) 0.1441(7)
C35 C 0.0174(5) 0.3262(10) 0.1262(9)
H25 H 0.0281 0.3387 0.1088
C39 C 0.0280(6) 0.2824(8) 0.1701(6)
H27 H 0.0458 0.2657 0.1821
O20 O 0.3100(2) 0.3068(3) 0.1447(3)
N7 N 0.1552(3) 0.3029(5) 0.1204(5)
H28 H 0.1609 0.2792 0.1295
C40 C 0.0065(3) 0.1783(4) 0.3102(3)
C41 C 0.2207(4) 0.3641(4) 0.0668(4)
C42 C 0.1109(6) 0.3196(9) 0.1221(5)
O21 O 0.1000(4) 0.3445(6) 0.1012(7)
N8 N 0.0866(4) 0.2933(6) 0.1376(6)
H29 H 0.0979 0.2698 0.1441
O27 O 0.0517(2) 0.1519(3) 0.3471(3)
O28 O 0.3402(2) 0.3462(3) 0.1069(3)
O29 O 0.2488(3) 0.4107(2) 0.0313(2)
O31 O 0.0801(2) 0.1965(3) 0.3122(3)
O32 O 0.1796(2) 0.3998(3) 0.0314(2)
C45 C 0.3097(3) 0.3293(4) 0.1220(3)
C46 C 0.0506(3) 0.1756(4) 0.3256(3)
C49 C 0.2155(4) 0.3945(4) 0.0407(3)
C51 C 0.2665(3) 0.3342(4) 0.1064(4)
C53 C 0.1848(4) 0.3476(5) 0.0799(4)
H30 H 0.1577 0.3530 0.0718
O35 O 0.0221(4) 0.2389(5) 0.2264(6)
C57 C 0.2616(4) 0.3584(4) 0.0806(3)
H36 H 0.2857 0.3711 0.0719
C58 C 0.2302(5) 0.3155(5) 0.1180(5)
H38 H 0.2322 0.2976 0.1346
C61 C 0.1889(5) 0.3236(6) 0.1045(7)
C63 C 0.0023(4) 0.1995(5) 0.2808(5)
H43 H 0.0266 0.2100 0.2711
Cu9 Cu 0.24750(7) 0.45553(8) 0.0000
Cu12 Cu 0.16367(7) 0.44150(8) 0.0000
Cu14 Cu 0.13756(5) 0.19856(5) 0.33145(5)
Cu18 Cu 0.10324(5) 0.14926(5) 0.37316(5)
O38 O 0.3474(3) 0.3562(2) 0.1880(3)
O41 O 0.3755(2) 0.3987(2) 0.1517(2)
O43 O 0.4483(2) 0.3481(3) 0.1529(3)
O46 O 0.5893(2) 0.2488(3) 0.0313(2)
O49 O 0.4199(2) 0.3035(3) 0.1878(3)
O51 O 0.6002(3) 0.1796(2) 0.0314(2)
H47 H 0.345764 0.229247 0.200518
H48 H 0.431036 0.41988 0.0989813
Cu1_2 Cu 0.54447(8) 0.24750(7) 1.0000
Cu2_2 Cu 0.55850(8) 0.16367(7) 1.0000
O14_2 O 0.5721(5) 0.0955(4) 1.0000
H6 H 0.5542 0.0829 0.9897
O19_2 O 0.5308(7) 0.3160(4) 1.0000
H22 H 0.5288 0.3246 0.9827
Cu9_2 Cu 0.24750(7) 0.45553(8) 1.0000
Cu12_2 Cu 0.16367(7) 0.44150(8) 1.0000
O40 O 0.5132(3) 0.1608(2) 0.9694(2)
O47 O 0.5893(2) 0.2488(3) 0.9687(2)
O48 O 0.5023(3) 0.2324(2) 0.9700(2)
O52 O 0.6002(3) 0.1796(2) 0.9686(2)
C1 C 0.3012(9) 0.9560(5) 0.1441(7)
C2 C 0.3262(10) 0.9826(5) 0.1262(9)
H1 H 0.3387 0.9719 0.1088
C6 C 0.2824(8) 0.9720(6) 0.1701(6)
H3 H 0.2657 0.9542 0.1821
O1 O 0.3068(3) 0.6900(2) 0.1447(3)
N1 N 0.3029(5) 0.8448(3) 0.1204(5)
H4 H 0.2792 0.8391 0.1295
C7 C 0.1783(4) 0.9935(3) 0.3102(3)
C8 C 0.3641(4) 0.7793(4) 0.0668(4)
C9 C 0.3196(9) 0.8891(6) 0.1221(5)
O2 O 0.3445(6) 0.9000(4) 0.1012(7)
N2 N 0.2933(6) 0.9134(4) 0.1376(6)
H5 H 0.2698 0.9021 0.1441
O8 O 0.1519(3) 0.9483(2) 0.3471(3)
O9 O 0.3462(3) 0.6598(2) 0.1069(3)
O10 O 0.4107(2) 0.7512(3) 0.0313(2)
O12 O 0.1965(3) 0.9199(2) 0.3122(3)
O13 O 0.3998(3) 0.8204(2) 0.0314(2)
C12 C 0.3293(4) 0.6903(3) 0.1220(3)
C13 C 0.1756(4) 0.9494(3) 0.3256(3)
C16 C 0.3945(4) 0.7845(4) 0.0407(3)
C18 C 0.3342(4) 0.7335(3) 0.1064(4)
C20 C 0.3476(5) 0.8152(4) 0.0799(4)
H7 H 0.3530 0.8423 0.0718
O17 O 0.2389(5) 0.9779(4) 0.2264(6)
C24 C 0.3584(4) 0.7384(4) 0.0806(3)
H13 H 0.3711 0.7143 0.0719
C25 C 0.3155(5) 0.7698(5) 0.1180(5)
H15 H 0.2976 0.7678 0.1346
C28 C 0.3236(6) 0.8111(5) 0.1045(7)
C30 C 0.1995(5) 0.9977(4) 0.2808(5)
H20 H 0.2100 0.9734 0.2711
Cu8 Cu 0.45553(8) 0.75250(7) 0.0000
Cu11 Cu 0.44150(8) 0.83633(7) 0.0000
Cu13 Cu 0.30144(5) 0.63756(5) 0.16855(5)
Cu16 Cu 0.19856(5) 0.86244(5) 0.33145(5)
Cu17 Cu 0.35074(5) 0.60324(5) 0.12684(5)
Cu20 Cu 0.14926(5) 0.89676(5) 0.37316(5)
Cu8_2 Cu 0.45553(8) 0.75250(7) 1.0000
Cu11_2 Cu 0.44150(8) 0.83633(7) 1.0000
C36 C 0.9746(8) 0.3324(12) 0.1342(8)
C37 C 0.9585(7) 0.3137(12) 0.1602(10)
H26 H 0.9299 0.3178 0.1656
C38 C 0.9852(7) 0.2886(8) 0.1781(6)
Cu5 Cu 0.69856(5) 0.36244(5) 0.16855(5)
Cu6 Cu 0.64926(5) 0.39676(5) 0.12684(5)
O22 O 0.7460(2) 0.3815(2) 0.1421(2)
O23 O 0.8562(2) 0.1526(3) 0.3120(3)
O24 O 0.8392(2) 0.5132(3) 0.0306(2)
O25 O 0.8987(2) 0.1245(2) 0.3483(2)
O26 O 0.7036(2) 0.4125(3) 0.1076(3)
C43 C 0.7378(4) 0.4033(4) 0.1208(4)
O30 O 0.7676(2) 0.5023(3) 0.0300(2)
C44 C 0.8905(4) 0.1455(4) 0.3260(4)
C47 C 0.8064(4) 0.4968(5) 0.0395(4)
O33 O 0.8843(4) 0.3521(6) 0.1381(6)
C48 C 0.7784(4) 0.4179(4) 0.1034(4)
C50 C 0.9306(4) 0.1634(4) 0.3096(4)
C52 C 0.8095(4) 0.4638(5) 0.0635(4)
O34 O 0.7410(4) 0.3349(5) 0.2034(3)
H31 H 0.7323 0.3420 0.2200
N9 N 0.9648(5) 0.2655(9) 0.2022(7)
H32 H 0.9372 0.2670 0.2029
C54 C 0.7739(4) 0.4462(4) 0.0784(3)
H33 H 0.7464 0.4531 0.0717
C55 C 0.9256(4) 0.1843(5) 0.2821(4)
H34 H 0.8987 0.1855 0.2730
C56 C 0.8495(5) 0.4480(6) 0.0725(5)
H35 H 0.8741 0.4589 0.0633
N10 N 0.8960(4) 0.4032(6) 0.0998(7)
H37 H 0.9164 0.4150 0.0897
C59 C 0.9702(4) 0.1591(4) 0.3217(3)
H39 H 0.9732 0.1420 0.3387
N11 N 0.9539(4) 0.2289(7) 0.2463(6)
H40 H 0.9282 0.2390 0.2453
C60 C 0.9618(5) 0.2039(5) 0.2677(5)
O36 O 0.6094(5) 0.4251(5) 0.0911(4)
H41 H 0.6204 0.4476 0.0854
C62 C 0.8182(4) 0.4034(5) 0.1094(4)
H42 H 0.8220 0.3830 0.1245
C64 C 0.9834(6) 0.2424(9) 0.2232(6)
C65 C 0.9085(6) 0.3716(9) 0.1202(6)
C66 C 0.8541(5) 0.4183(7) 0.0934(6)
N12 N 0.9522(5) 0.3660(8) 0.1172(7)
H44 H 0.9664 0.3823 0.1052
O37 O 0.6932(3) 0.3100(2) 0.1447(3)
Cu7 Cu 0.75250(7) 0.54447(8) 0.0000
Cu10 Cu 0.83633(7) 0.55850(8) 0.0000
Cu15 Cu 0.80144(5) 0.13756(5) 0.33145(5)
Cu19 Cu 0.85074(5) 0.10324(5) 0.37316(5)
O39 O 0.6438(2) 0.3474(3) 0.1880(3)
O42 O 0.6013(2) 0.3755(2) 0.1517(2)
O44 O 0.6519(3) 0.4483(2) 0.1529(3)
O45 O 0.6538(3) 0.3402(2) 0.1069(3)
O50 O 0.6965(3) 0.4199(2) 0.1878(3)
H45 H 0.770753 0.345764 0.200518
H46 H 0.58012 0.431036 0.0989813
Cu7_2 Cu 0.75250(7) 0.54447(8) 1.0000
Cu10_2 Cu 0.83633(7) 0.55850(8) 1.0000
O14_3 O 0.9045(4) 0.5721(5) 0.0000
O19_3 O 0.6840(4) 0.5308(7) 0.0000
H23_2 H 0.9171 0.5542 0.0103
H24_2 H 0.6754 0.5288 0.0173
C34_2 C 0.6988(9) 0.0440(5) 0.1441(7)
C35_2 C 0.6738(10) 0.0174(5) 0.1262(9)
H25_2 H 0.6613 0.0281 0.1088
C39_2 C 0.7176(8) 0.0280(6) 0.1701(6)
H27_2 H 0.7343 0.0458 0.1821
N7_2 N 0.6971(5) 0.1552(3) 0.1204(5)
H28_2 H 0.7208 0.1609 0.1295
C40_2 C 0.8217(4) 0.0065(3) 0.3102(3)
C41_2 C 0.6359(4) 0.2207(4) 0.0668(4)
C42_2 C 0.6804(9) 0.1109(6) 0.1221(5)
O21_2 O 0.6555(6) 0.1000(4) 0.1012(7)
N8_2 N 0.7067(6) 0.0866(4) 0.1376(6)
H29_2 H 0.7302 0.0979 0.1441
O27_2 O 0.8481(3) 0.0517(2) 0.3471(3)
O31_2 O 0.8035(3) 0.0801(2) 0.3122(3)
C45_2 C 0.6707(4) 0.3097(3) 0.1220(3)
C46_2 C 0.8244(4) 0.0506(3) 0.3256(3)
C49_2 C 0.6055(4) 0.2155(4) 0.0407(3)
C51_2 C 0.6658(4) 0.2665(3) 0.1064(4)
C53_2 C 0.6524(5) 0.1848(4) 0.0799(4)
H30_2 H 0.6470 0.1577 0.0718
O35_2 O 0.7611(5) 0.0221(4) 0.2264(6)
C57_2 C 0.6416(4) 0.2616(4) 0.0806(3)
H36_2 H 0.6289 0.2857 0.0719
C58_2 C 0.6845(5) 0.2302(5) 0.1180(5)
H38_2 H 0.7024 0.2322 0.1346
C61_2 C 0.6764(6) 0.1889(5) 0.1045(7)
C63_2 C 0.8005(5) 0.0023(4) 0.2808(5)
H43_2 H 0.7900 0.0266 0.2711
O46_2 O 0.7512(3) 0.5893(2) 0.0313(2)
O51_2 O 0.8204(2) 0.6002(3) 0.0314(2)
O14_4 O 0.9045(4) 0.5721(5) 1.0000
H6_2 H 0.9171 0.5542 0.9897
O19_4 O 0.6840(4) 0.5308(7) 1.0000
H22_2 H 0.6754 0.5288 0.9827
O40_2 O 0.8392(2) 0.5132(3) 0.9694(2)
O47_2 O 0.7512(3) 0.5893(2) 0.9687(2)
O48_2 O 0.7676(2) 0.5023(3) 0.9700(2)
O52_2 O 0.8204(2) 0.6002(3) 0.9686(2)
C36_2 C 0.6676(12) 0.9746(8) 0.1342(8)
C37_2 C 0.6863(12) 0.9585(7) 0.1602(10)
H26_2 H 0.6822 0.9299 0.1656
C38_2 C 0.7114(8) 0.9852(7) 0.1781(6)
Cu5_2 Cu 0.63756(5) 0.69856(5) 0.16855(5)
Cu6_2 Cu 0.60324(5) 0.64926(5) 0.12684(5)
O22_2 O 0.6185(2) 0.7460(2) 0.1421(2)
O23_2 O 0.8474(3) 0.8562(2) 0.3120(3)
O24_2 O 0.4868(3) 0.8392(2) 0.0306(2)
O25_2 O 0.8755(2) 0.8987(2) 0.3483(2)
O26_2 O 0.5875(3) 0.7036(2) 0.1076(3)
C43_2 C 0.5967(4) 0.7378(4) 0.1208(4)
O30_2 O 0.4977(3) 0.7676(2) 0.0300(2)
C44_2 C 0.8545(4) 0.8905(4) 0.3260(4)
C47_2 C 0.5032(5) 0.8064(4) 0.0395(4)
O33_2 O 0.6479(6) 0.8843(4) 0.1381(6)
C48_2 C 0.5821(4) 0.7784(4) 0.1034(4)
C50_2 C 0.8366(4) 0.9306(4) 0.3096(4)
C52_2 C 0.5362(5) 0.8095(4) 0.0635(4)
O34_2 O 0.6651(5) 0.7410(4) 0.2034(3)
H31_2 H 0.6580 0.7323 0.2200
N9_2 N 0.7345(9) 0.9648(5) 0.2022(7)
H32_2 H 0.7330 0.9372 0.2029
C54_2 C 0.5538(4) 0.7739(4) 0.0784(3)
H33_2 H 0.5469 0.7464 0.0717
C55_2 C 0.8157(5) 0.9256(4) 0.2821(4)
H34_2 H 0.8145 0.8987 0.2730
C56_2 C 0.5520(6) 0.8495(5) 0.0725(5)
H35_2 H 0.5411 0.8741 0.0633
N10_2 N 0.5968(6) 0.8960(4) 0.0998(7)
H37_2 H 0.5850 0.9164 0.0897
C59_2 C 0.8409(4) 0.9702(4) 0.3217(3)
H39_2 H 0.8580 0.9732 0.3387
N11_2 N 0.7711(7) 0.9539(4) 0.2463(6)
H40_2 H 0.7610 0.9282 0.2453
C60_2 C 0.7961(5) 0.9618(5) 0.2677(5)
O36_2 O 0.5749(5) 0.6094(5) 0.0911(4)
H41_2 H 0.5524 0.6204 0.0854
C62_2 C 0.5966(5) 0.8182(4) 0.1094(4)
H42_2 H 0.6170 0.8220 0.1245
C64_2 C 0.7576(9) 0.9834(6) 0.2232(6)
C65_2 C 0.6284(9) 0.9085(6) 0.1202(6)
C66_2 C 0.5817(7) 0.8541(5) 0.0934(6)
N12_2 N 0.6340(8) 0.9522(5) 0.1172(7)
H44_2 H 0.6177 0.9664 0.1052
O37_2 O 0.6900(2) 0.6932(3) 0.1447(3)
Cu15_2 Cu 0.86244(5) 0.80144(5) 0.33145(5)
Cu19_2 Cu 0.89676(5) 0.85074(5) 0.37316(5)
O39_2 O 0.6526(3) 0.6438(2) 0.1880(3)
O42_2 O 0.6245(2) 0.6013(2) 0.1517(2)
O44_2 O 0.5517(2) 0.6519(3) 0.1529(3)
O45_2 O 0.6598(2) 0.6538(3) 0.1069(3)
O50_2 O 0.5801(2) 0.6965(3) 0.1878(3)
H45_2 H 0.654236 0.770753 0.200518
H46_2 H 0.568964 0.58012 0.0989813
C36_3 C 0.0254(8) 0.6676(12) 0.1342(8)
C37_3 C 0.0415(7) 0.6863(12) 0.1602(10)
H26_3 H 0.0701 0.6822 0.1656
C38_3 C 0.0148(7) 0.7114(8) 0.1781(6)
O22_3 O 0.2540(2) 0.6185(2) 0.1421(2)
O23_3 O 0.1438(2) 0.8474(3) 0.3120(3)
O24_3 O 0.1608(2) 0.4868(3) 0.0306(2)
O25_3 O 0.1013(2) 0.8755(2) 0.3483(2)
O26_3 O 0.2964(2) 0.5875(3) 0.1076(3)
C43_3 C 0.2622(4) 0.5967(4) 0.1208(4)
O30_3 O 0.2324(2) 0.4977(3) 0.0300(2)
C44_3 C 0.1095(4) 0.8545(4) 0.3260(4)
C47_3 C 0.1936(4) 0.5032(5) 0.0395(4)
O33_3 O 0.1157(4) 0.6479(6) 0.1381(6)
C48_3 C 0.2216(4) 0.5821(4) 0.1034(4)
C50_3 C 0.0694(4) 0.8366(4) 0.3096(4)
C52_3 C 0.1905(4) 0.5362(5) 0.0635(4)
O34_3 O 0.2590(4) 0.6651(5) 0.2034(3)
H31_3 H 0.2677 0.6580 0.2200
N9_3 N 0.0352(5) 0.7345(9) 0.2022(7)
H32_3 H 0.0628 0.7330 0.2029
C54_3 C 0.2261(4) 0.5538(4) 0.0784(3)
H33_3 H 0.2536 0.5469 0.0717
C55_3 C 0.0744(4) 0.8157(5) 0.2821(4)
H34_3 H 0.1013 0.8145 0.2730
C56_3 C 0.1505(5) 0.5520(6) 0.0725(5)
H35_3 H 0.1259 0.5411 0.0633
N10_3 N 0.1040(4) 0.5968(6) 0.0998(7)
H37_3 H 0.0836 0.5850 0.0897
C59_3 C 0.0298(4) 0.8409(4) 0.3217(3)
H39_3 H 0.0268 0.8580 0.3387
N11_3 N 0.0461(4) 0.7711(7) 0.2463(6)
H40_3 H 0.0718 0.7610 0.2453
C60_3 C 0.0382(5) 0.7961(5) 0.2677(5)
O36_3 O 0.3906(5) 0.5749(5) 0.0911(4)
H41_3 H 0.3796 0.5524 0.0854
C62_3 C 0.1818(4) 0.5966(5) 0.1094(4)
H42_3 H 0.1780 0.6170 0.1245
C64_3 C 0.0166(6) 0.7576(9) 0.2232(6)
C65_3 C 0.0915(6) 0.6284(9) 0.1202(6)
C66_3 C 0.1459(5) 0.5817(7) 0.0934(6)
N12_3 N 0.0478(5) 0.6340(8) 0.1172(7)
H44_3 H 0.0336 0.6177 0.1052
O39_3 O 0.3562(2) 0.6526(3) 0.1880(3)
O42_3 O 0.3987(2) 0.6245(2) 0.1517(2)
O44_3 O 0.3481(3) 0.5517(2) 0.1529(3)
O50_3 O 0.3035(3) 0.5801(2) 0.1878(3)
H45_3 H 0.229247 0.654236 0.200518
H46_3 H 0.41988 0.568964 0.0989813
O14_5 O 0.4279(5) 0.9045(4) 0.0000
O19_5 O 0.4692(7) 0.6840(4) 0.0000
H23_3 H 0.4458 0.9171 0.0103
H24_3 H 0.4712 0.6754 0.0173
C34_3 C 0.9560(5) 0.6988(9) 0.1441(7)
C35_3 C 0.9826(5) 0.6738(10) 0.1262(9)
H25_3 H 0.9719 0.6613 0.1088
C39_3 C 0.9720(6) 0.7176(8) 0.1701(6)
H27_3 H 0.9542 0.7343 0.1821
N7_3 N 0.8448(3) 0.6971(5) 0.1204(5)
H28_3 H 0.8391 0.7208 0.1295
C40_3 C 0.9935(3) 0.8217(4) 0.3102(3)
C41_3 C 0.7793(4) 0.6359(4) 0.0668(4)
C42_3 C 0.8891(6) 0.6804(9) 0.1221(5)
O21_3 O 0.9000(4) 0.6555(6) 0.1012(7)
N8_3 N 0.9134(4) 0.7067(6) 0.1376(6)
H29_3 H 0.9021 0.7302 0.1441
O27_3 O 0.9483(2) 0.8481(3) 0.3471(3)
O31_3 O 0.9199(2) 0.8035(3) 0.3122(3)
C45_3 C 0.6903(3) 0.6707(4) 0.1220(3)
C46_3 C 0.9494(3) 0.8244(4) 0.3256(3)
C49_3 C 0.7845(4) 0.6055(4) 0.0407(3)
C51_3 C 0.7335(3) 0.6658(4) 0.1064(4)
C53_3 C 0.8152(4) 0.6524(5) 0.0799(4)
H30_3 H 0.8423 0.6470 0.0718
O35_3 O 0.9779(4) 0.7611(5) 0.2264(6)
C57_3 C 0.7384(4) 0.6416(4) 0.0806(3)
H36_3 H 0.7143 0.6289 0.0719
C58_3 C 0.7698(5) 0.6845(5) 0.1180(5)
H38_3 H 0.7678 0.7024 0.1346
C61_3 C 0.8111(5) 0.6764(6) 0.1045(7)
C63_3 C 0.9977(4) 0.8005(5) 0.2808(5)
H43_3 H 0.9734 0.7900 0.2711
O14_6 O 0.4279(5) 0.9045(4) 1.0000
H6_3 H 0.4458 0.9171 0.9897
O19_6 O 0.4692(7) 0.6840(4) 1.0000
H22_3 H 0.4712 0.6754 0.9827
O40_3 O 0.4868(3) 0.8392(2) 0.9694(2)
O47_3 O 0.4107(2) 0.7512(3) 0.9687(2)
O48_3 O 0.4977(3) 0.7676(2) 0.9700(2)
O52_3 O 0.3998(3) 0.8204(2) 0.9686(2)
O14_7 O 0.0955(4) 0.4279(5) 0.0000
O19_7 O 0.3160(4) 0.4692(7) 0.0000
H23_4 H 0.0829 0.4458 0.0103
H24_4 H 0.3246 0.4712 0.0173
O14_8 O 0.0955(4) 0.4279(5) 1.0000
H6_4 H 0.0829 0.4458 0.9897
O19_8 O 0.3160(4) 0.4692(7) 1.0000
H22_4 H 0.3246 0.4712 0.9827
O40_4 O 0.1608(2) 0.4868(3) 0.9694(2)
O47_4 O 0.2488(3) 0.4107(2) 0.9687(2)
O48_4 O 0.2324(2) 0.4977(3) 0.9700(2)
O52_4 O 0.1796(2) 0.3998(3) 0.9686(2)
Cu1_3 Cu 0.04447(8) 0.74750(7) 0.5000
Cu2_3 Cu 0.05850(8) 0.66367(7) 0.5000
O5_2 O 0.0132(3) 0.6608(2) 0.5306(2)
O11_2 O 0.0023(3) 0.7324(2) 0.5300(2)
O14_9 O 0.0721(5) 0.5955(4) 0.5000
H6_5 H 0.0542 0.5829 0.4897
O19_9 O 0.0308(7) 0.8160(4) 0.5000
H22_5 H 0.0288 0.8246 0.4827
H23_5 H 0.0542 0.5829 0.5103
H24_5 H 0.0288 0.8246 0.5173
O40_5 O 0.0132(3) 0.6608(2) 0.4694(2)
O46_3 O 0.0893(2) 0.7488(3) 0.5313(2)
O47_5 O 0.0893(2) 0.7488(3) 0.4687(2)
O48_5 O 0.0023(3) 0.7324(2) 0.4700(2)
O51_3 O 0.1002(3) 0.6796(2) 0.5314(2)
O52_5 O 0.1002(3) 0.6796(2) 0.4686(2)
O24_4 O 0.3392(2) 0.0132(3) 0.5306(2)
O30_4 O 0.2676(2) 0.0023(3) 0.5300(2)
Cu7_3 Cu 0.25250(7) 0.04447(8) 0.5000
Cu10_3 Cu 0.33633(7) 0.05850(8) 0.5000
C1_2 C 0.8012(9) 0.4560(5) 0.6441(7)
C2_2 C 0.8262(10) 0.4826(5) 0.6262(9)
H1_2 H 0.8387 0.4719 0.6088
C3_2 C 0.8324(12) 0.5254(8) 0.6342(8)
C4_2 C 0.8137(12) 0.5415(7) 0.6602(10)
H2_2 H 0.8178 0.5701 0.6656
C5_2 C 0.7886(8) 0.5148(7) 0.6781(6)
C6_2 C 0.7824(8) 0.4720(6) 0.6701(6)
H3_2 H 0.7657 0.4542 0.6821
O1_2 O 0.8068(3) 0.1900(2) 0.6447(3)
N1_2 N 0.8029(5) 0.3448(3) 0.6204(5)
H4_2 H 0.7792 0.3391 0.6295
C7_2 C 0.6783(4) 0.4935(3) 0.8102(3)
C8_2 C 0.8641(4) 0.2793(4) 0.5668(4)
C9_2 C 0.8196(9) 0.3891(6) 0.6221(5)
O2_2 O 0.8445(6) 0.4000(4) 0.6012(7)
N2_2 N 0.7933(6) 0.4134(4) 0.6376(6)
H5_2 H 0.7698 0.4021 0.6441
Cu3_2 Cu 0.86244(5) 0.80144(5) 0.66855(5)
Cu4_2 Cu 0.89676(5) 0.85074(5) 0.62684(5)
O3_2 O 0.8815(2) 0.7540(2) 0.6421(2)
O4_2 O 0.6526(3) 0.6438(2) 0.8120(3)
O6_2 O 0.6245(2) 0.6013(2) 0.8483(2)
O7_2 O 0.9125(3) 0.7964(2) 0.6076(3)
C10_2 C 0.9033(4) 0.7622(4) 0.6208(4)
O8_2 O 0.6519(3) 0.4483(2) 0.8471(3)
O9_2 O 0.8462(3) 0.1598(2) 0.6069(3)
O10_2 O 0.9107(2) 0.2512(3) 0.5313(2)
C11_2 C 0.6455(4) 0.6095(4) 0.8260(4)
O12_2 O 0.6965(3) 0.4199(2) 0.8122(3)
O13_2 O 0.8998(3) 0.3204(2) 0.5314(2)
C12_2 C 0.8293(4) 0.1903(3) 0.6220(3)
C13_2 C 0.6756(4) 0.4494(3) 0.8256(3)
C14_2 C 0.9968(5) 0.6936(4) 0.5395(4)
O15_2 O 0.8521(6) 0.6157(4) 0.6381(6)
C15_2 C 0.9179(4) 0.7216(4) 0.6034(4)
C16_2 C 0.8945(4) 0.2845(4) 0.5407(3)
C17_2 C 0.6634(4) 0.5694(4) 0.8096(4)
C18_2 C 0.8342(4) 0.2335(3) 0.6064(4)
C19_2 C 0.9638(5) 0.6905(4) 0.5635(4)
C20_2 C 0.8476(5) 0.3152(4) 0.5799(4)
H7_2 H 0.8530 0.3423 0.5718
O16_2 O 0.8349(5) 0.7590(4) 0.7034(3)
H8_2 H 0.8420 0.7677 0.7200
N3_2 N 0.7655(9) 0.5352(5) 0.7022(7)
H9_2 H 0.7670 0.5628 0.7029
C21_2 C 0.9462(4) 0.7261(4) 0.5784(3)
H10_2 H 0.9531 0.7536 0.5717
C22_2 C 0.6843(5) 0.5744(4) 0.7821(4)
H11_2 H 0.6855 0.6013 0.7730
O17_2 O 0.7389(5) 0.4779(4) 0.7264(6)
C23_2 C 0.9480(6) 0.6505(5) 0.5725(5)
H12_2 H 0.9589 0.6259 0.5633
C24_2 C 0.8584(4) 0.2384(4) 0.5806(3)
H13_2 H 0.8711 0.2143 0.5719
N4_2 N 0.9032(6) 0.6040(4) 0.5998(7)
H14_2 H 0.9150 0.5836 0.5897
C25_2 C 0.8155(5) 0.2698(5) 0.6180(5)
H15_2 H 0.7976 0.2678 0.6346
C26_2 C 0.6591(4) 0.5298(4) 0.8217(3)
H16_2 H 0.6420 0.5268 0.8387
N5_2 N 0.7289(7) 0.5461(4) 0.7463(6)
H17_2 H 0.7390 0.5718 0.7453
C27_2 C 0.7039(5) 0.5382(5) 0.7677(5)
O18_2 O 0.9251(5) 0.8906(5) 0.5911(4)
H18_2 H 0.9476 0.8796 0.5854
C28_2 C 0.8236(6) 0.3111(5) 0.6045(7)
C29_2 C 0.9034(5) 0.6818(4) 0.6094(4)
H19_2 H 0.8830 0.6780 0.6245
C30_2 C 0.6995(5) 0.4977(4) 0.7808(5)
H20_2 H 0.7100 0.4734 0.7711
C31_2 C 0.7424(9) 0.5166(6) 0.7232(6)
C32_2 C 0.8716(9) 0.5915(6) 0.6202(6)
C33_2 C 0.9183(7) 0.6459(5) 0.5934(6)
N6_2 N 0.8660(8) 0.5478(5) 0.6172(7)
H21_2 H 0.8823 0.5336 0.6052
C34_4 C 0.5440(5) 0.8012(9) 0.6441(7)
C35_4 C 0.5174(5) 0.8262(10) 0.6262(9)
H25_4 H 0.5281 0.8387 0.6088
C36_4 C 0.4746(8) 0.8324(12) 0.6342(8)
C37_4 C 0.4585(7) 0.8137(12) 0.6602(10)
H26_4 H 0.4299 0.8178 0.6656
C38_4 C 0.4852(7) 0.7886(8) 0.6781(6)
C39_4 C 0.5280(6) 0.7824(8) 0.6701(6)
H27_4 H 0.5458 0.7657 0.6821
O20_2 O 0.8100(2) 0.8068(3) 0.6447(3)
N7_4 N 0.6552(3) 0.8029(5) 0.6204(5)
H28_4 H 0.6609 0.7792 0.6295
C40_4 C 0.5065(3) 0.6783(4) 0.8102(3)
C41_4 C 0.7207(4) 0.8641(4) 0.5668(4)
C42_4 C 0.6109(6) 0.8196(9) 0.6221(5)
O21_4 O 0.6000(4) 0.8445(6) 0.6012(7)
N8_4 N 0.5866(4) 0.7933(6) 0.6376(6)
H29_4 H 0.5979 0.7698 0.6441
Cu5_3 Cu 0.19856(5) 0.86244(5) 0.66855(5)
Cu6_3 Cu 0.14926(5) 0.89676(5) 0.62684(5)
O22_4 O 0.2460(2) 0.8815(2) 0.6421(2)
O23_4 O 0.3562(2) 0.6526(3) 0.8120(3)
O25_4 O 0.3987(2) 0.6245(2) 0.8483(2)
O26_4 O 0.2036(2) 0.9125(3) 0.6076(3)
C43_4 C 0.2378(4) 0.9033(4) 0.6208(4)
O27_4 O 0.5517(2) 0.6519(3) 0.8471(3)
O28_2 O 0.8402(2) 0.8462(3) 0.6069(3)
O29_2 O 0.7488(3) 0.9107(2) 0.5313(2)
C44_4 C 0.3905(4) 0.6455(4) 0.8260(4)
O31_4 O 0.5801(2) 0.6965(3) 0.8122(3)
O32_2 O 0.6796(2) 0.8998(3) 0.5314(2)
C45_4 C 0.8097(3) 0.8293(4) 0.6220(3)
C46_4 C 0.5506(3) 0.6756(4) 0.8256(3)
C47_4 C 0.3064(4) 0.9968(5) 0.5395(4)
O33_4 O 0.3843(4) 0.8521(6) 0.6381(6)
C48_4 C 0.2784(4) 0.9179(4) 0.6034(4)
C49_4 C 0.7155(4) 0.8945(4) 0.5407(3)
C50_4 C 0.4306(4) 0.6634(4) 0.8096(4)
C51_4 C 0.7665(3) 0.8342(4) 0.6064(4)
C52_4 C 0.3095(4) 0.9638(5) 0.5635(4)
C53_4 C 0.6848(4) 0.8476(5) 0.5799(4)
H30_4 H 0.6577 0.8530 0.5718
O34_4 O 0.2410(4) 0.8349(5) 0.7034(3)
H31_4 H 0.2323 0.8420 0.7200
N9_4 N 0.4648(5) 0.7655(9) 0.7022(7)
H32_4 H 0.4372 0.7670 0.7029
C54_4 C 0.2739(4) 0.9462(4) 0.5784(3)
H33_4 H 0.2464 0.9531 0.5717
C55_4 C 0.4256(4) 0.6843(5) 0.7821(4)
H34_4 H 0.3987 0.6855 0.7730
O35_4 O 0.5221(4) 0.7389(5) 0.7264(6)
C56_4 C 0.3495(5) 0.9480(6) 0.5725(5)
H35_4 H 0.3741 0.9589 0.5633
C57_4 C 0.7616(4) 0.8584(4) 0.5806(3)
H36_4 H 0.7857 0.8711 0.5719
N10_4 N 0.3960(4) 0.9032(6) 0.5998(7)
H37_4 H 0.4164 0.9150 0.5897
C58_4 C 0.7302(5) 0.8155(5) 0.6180(5)
H38_4 H 0.7322 0.7976 0.6346
C59_4 C 0.4702(4) 0.6591(4) 0.8217(3)
H39_4 H 0.4732 0.6420 0.8387
N11_4 N 0.4539(4) 0.7289(7) 0.7463(6)
H40_4 H 0.4282 0.7390 0.7453
C60_4 C 0.4618(5) 0.7039(5) 0.7677(5)
O36_4 O 0.1094(5) 0.9251(5) 0.5911(4)
H41_4 H 0.1204 0.9476 0.5854
C61_4 C 0.6889(5) 0.8236(6) 0.6045(7)
C62_4 C 0.3182(4) 0.9034(5) 0.6094(4)
H42_4 H 0.3220 0.8830 0.6245
C63_4 C 0.5023(4) 0.6995(5) 0.7808(5)
H43_4 H 0.5266 0.7100 0.7711
C64_4 C 0.4834(6) 0.7424(9) 0.7232(6)
C65_4 C 0.4085(6) 0.8716(9) 0.6202(6)
C66_4 C 0.3541(5) 0.9183(7) 0.5934(6)
N12_4 N 0.4522(5) 0.8660(8) 0.6172(7)
H44_4 H 0.4664 0.8823 0.6052
O37_3 O 0.1932(3) 0.8100(2) 0.6447(3)
Cu8_3 Cu 0.95553(8) 0.25250(7) 0.5000
Cu9_3 Cu 0.74750(7) 0.95553(8) 0.5000
Cu11_3 Cu 0.94150(8) 0.33633(7) 0.5000
Cu12_3 Cu 0.66367(7) 0.94150(8) 0.5000
Cu13_2 Cu 0.80144(5) 0.13756(5) 0.66855(5)
Cu14_2 Cu 0.63756(5) 0.69856(5) 0.83145(5)
Cu15_3 Cu 0.30144(5) 0.63756(5) 0.83145(5)
Cu16_2 Cu 0.69856(5) 0.36244(5) 0.83145(5)
Cu17_2 Cu 0.85074(5) 0.10324(5) 0.62684(5)
Cu18_2 Cu 0.60324(5) 0.64926(5) 0.87316(5)
Cu19_3 Cu 0.35074(5) 0.60324(5) 0.87316(5)
Cu20_2 Cu 0.64926(5) 0.39676(5) 0.87316(5)
O38_2 O 0.8474(3) 0.8562(2) 0.6880(3)
O39_4 O 0.1438(2) 0.8474(3) 0.6880(3)
O41_2 O 0.8755(2) 0.8987(2) 0.6517(2)
O42_4 O 0.1013(2) 0.8755(2) 0.6517(2)
O43_2 O 0.9483(2) 0.8481(3) 0.6529(3)
O44_4 O 0.1519(3) 0.9483(2) 0.6529(3)
O45_3 O 0.1538(3) 0.8402(2) 0.6069(3)
O49_2 O 0.9199(2) 0.8035(3) 0.6878(3)
O50_4 O 0.1965(3) 0.9199(2) 0.6878(3)
H45_4 H 0.270753 0.845764 0.700518
H46_4 H 0.0801205 0.931036 0.598981
H47_2 H 0.845764 0.729247 0.700518
H48_2 H 0.931036 0.91988 0.598981
O14_10 O 0.4045(4) 0.0721(5) 0.5000
H6_6 H 0.4171 0.0542 0.4897
O19_10 O 0.1840(4) 0.0308(7) 0.5000
H22_6 H 0.1754 0.0288 0.4827
H23_6 H 0.4171 0.0542 0.5103
H24_6 H 0.1754 0.0288 0.5173
O40_6 O 0.3392(2) 0.0132(3) 0.4694(2)
O46_4 O 0.2512(3) 0.0893(2) 0.5313(2)
O47_6 O 0.2512(3) 0.0893(2) 0.4687(2)
O48_6 O 0.2676(2) 0.0023(3) 0.4700(2)
O51_4 O 0.3204(2) 0.1002(3) 0.5314(2)
O52_6 O 0.3204(2) 0.1002(3) 0.4686(2)
C34_5 C 0.1988(9) 0.5440(5) 0.6441(7)
C35_5 C 0.1738(10) 0.5174(5) 0.6262(9)
H25_5 H 0.1613 0.5281 0.6088
C36_5 C 0.1676(12) 0.4746(8) 0.6342(8)
C37_5 C 0.1863(12) 0.4585(7) 0.6602(10)
H26_5 H 0.1822 0.4299 0.6656
C38_5 C 0.2114(8) 0.4852(7) 0.6781(6)
C39_5 C 0.2176(8) 0.5280(6) 0.6701(6)
H27_5 H 0.2343 0.5458 0.6821
N7_5 N 0.1971(5) 0.6552(3) 0.6204(5)
H28_5 H 0.2208 0.6609 0.6295
C40_5 C 0.3217(4) 0.5065(3) 0.8102(3)
C41_5 C 0.1359(4) 0.7207(4) 0.5668(4)
C42_5 C 0.1804(9) 0.6109(6) 0.6221(5)
O21_5 O 0.1555(6) 0.6000(4) 0.6012(7)
N8_5 N 0.2067(6) 0.5866(4) 0.6376(6)
H29_5 H 0.2302 0.5979 0.6441
Cu5_4 Cu 0.13756(5) 0.19856(5) 0.66855(5)
Cu6_4 Cu 0.10324(5) 0.14926(5) 0.62684(5)
O22_5 O 0.1185(2) 0.2460(2) 0.6421(2)
O23_5 O 0.3474(3) 0.3562(2) 0.8120(3)
O25_5 O 0.3755(2) 0.3987(2) 0.8483(2)
O26_5 O 0.0875(3) 0.2036(2) 0.6076(3)
C43_5 C 0.0967(4) 0.2378(4) 0.6208(4)
O27_5 O 0.3481(3) 0.5517(2) 0.8471(3)
C44_5 C 0.3545(4) 0.3905(4) 0.8260(4)
O31_5 O 0.3035(3) 0.5801(2) 0.8122(3)
C45_5 C 0.1707(4) 0.8097(3) 0.6220(3)
C46_5 C 0.3244(4) 0.5506(3) 0.8256(3)
C47_5 C 0.0032(5) 0.3064(4) 0.5395(4)
O33_5 O 0.1479(6) 0.3843(4) 0.6381(6)
C48_5 C 0.0821(4) 0.2784(4) 0.6034(4)
C49_5 C 0.1055(4) 0.7155(4) 0.5407(3)
C50_5 C 0.3366(4) 0.4306(4) 0.8096(4)
C51_5 C 0.1658(4) 0.7665(3) 0.6064(4)
C52_5 C 0.0362(5) 0.3095(4) 0.5635(4)
C53_5 C 0.1524(5) 0.6848(4) 0.5799(4)
H30_5 H 0.1470 0.6577 0.5718
O34_5 O 0.1651(5) 0.2410(4) 0.7034(3)
H31_5 H 0.1580 0.2323 0.7200
N9_5 N 0.2345(9) 0.4648(5) 0.7022(7)
H32_5 H 0.2330 0.4372 0.7029
C54_5 C 0.0538(4) 0.2739(4) 0.5784(3)
H33_5 H 0.0469 0.2464 0.5717
C55_5 C 0.3157(5) 0.4256(4) 0.7821(4)
H34_5 H 0.3145 0.3987 0.7730
O35_5 O 0.2611(5) 0.5221(4) 0.7264(6)
C56_5 C 0.0520(6) 0.3495(5) 0.5725(5)
H35_5 H 0.0411 0.3741 0.5633
C57_5 C 0.1416(4) 0.7616(4) 0.5806(3)
H36_5 H 0.1289 0.7857 0.5719
N10_5 N 0.0968(6) 0.3960(4) 0.5998(7)
H37_5 H 0.0850 0.4164 0.5897
C58_5 C 0.1845(5) 0.7302(5) 0.6180(5)
H38_5 H 0.2024 0.7322 0.6346
C59_5 C 0.3409(4) 0.4702(4) 0.8217(3)
H39_5 H 0.3580 0.4732 0.8387
N11_5 N 0.2711(7) 0.4539(4) 0.7463(6)
H40_5 H 0.2610 0.4282 0.7453
C60_5 C 0.2961(5) 0.4618(5) 0.7677(5)
O36_5 O 0.0749(5) 0.1094(5) 0.5911(4)
H41_5 H 0.0524 0.1204 0.5854
C61_5 C 0.1764(6) 0.6889(5) 0.6045(7)
C62_5 C 0.0966(5) 0.3182(4) 0.6094(4)
H42_5 H 0.1170 0.3220 0.6245
C63_5 C 0.3005(5) 0.5023(4) 0.7808(5)
H43_5 H 0.2900 0.5266 0.7711
C64_5 C 0.2576(9) 0.4834(6) 0.7232(6)
C65_5 C 0.1284(9) 0.4085(6) 0.6202(6)
C66_5 C 0.0817(7) 0.3541(5) 0.5934(6)
N12_5 N 0.1340(8) 0.4522(5) 0.6172(7)
H44_5 H 0.1177 0.4664 0.6052
O37_4 O 0.1900(2) 0.1932(3) 0.6447(3)
Cu15_4 Cu 0.36244(5) 0.30144(5) 0.83145(5)
Cu19_4 Cu 0.39676(5) 0.35074(5) 0.87316(5)
O39_5 O 0.1526(3) 0.1438(2) 0.6880(3)
O42_5 O 0.1245(2) 0.1013(2) 0.6517(2)
O44_5 O 0.0517(2) 0.1519(3) 0.6529(3)
O45_4 O 0.1598(2) 0.1538(3) 0.6069(3)
O50_5 O 0.0801(2) 0.1965(3) 0.6878(3)
H45_5 H 0.154236 0.270753 0.700518
H46_5 H 0.0689635 0.0801205 0.598981
O24_5 O 0.9868(3) 0.3392(2) 0.5306(2)
O30_5 O 0.9977(3) 0.2676(2) 0.5300(2)
C34_6 C 0.4560(5) 0.1988(9) 0.6441(7)
C35_6 C 0.4826(5) 0.1738(10) 0.6262(9)
H25_6 H 0.4719 0.1613 0.6088
C36_6 C 0.5254(8) 0.1676(12) 0.6342(8)
C37_6 C 0.5415(7) 0.1863(12) 0.6602(10)
H26_6 H 0.5701 0.1822 0.6656
C38_6 C 0.5148(7) 0.2114(8) 0.6781(6)
C39_6 C 0.4720(6) 0.2176(8) 0.6701(6)
H27_6 H 0.4542 0.2343 0.6821
N7_6 N 0.3448(3) 0.1971(5) 0.6204(5)
H28_6 H 0.3391 0.2208 0.6295
C40_6 C 0.4935(3) 0.3217(4) 0.8102(3)
C41_6 C 0.2793(4) 0.1359(4) 0.5668(4)
C42_6 C 0.3891(6) 0.1804(9) 0.6221(5)
O21_6 O 0.4000(4) 0.1555(6) 0.6012(7)
N8_6 N 0.4134(4) 0.2067(6) 0.6376(6)
H29_6 H 0.4021 0.2302 0.6441
O22_6 O 0.7540(2) 0.1185(2) 0.6421(2)
O23_6 O 0.6438(2) 0.3474(3) 0.8120(3)
O25_6 O 0.6013(2) 0.3755(2) 0.8483(2)
O26_6 O 0.7964(2) 0.0875(3) 0.6076(3)
C43_6 C 0.7622(4) 0.0967(4) 0.6208(4)
O27_6 O 0.4483(2) 0.3481(3) 0.8471(3)
C44_6 C 0.6095(4) 0.3545(4) 0.8260(4)
O31_6 O 0.4199(2) 0.3035(3) 0.8122(3)
C45_6 C 0.1903(3) 0.1707(4) 0.6220(3)
C46_6 C 0.4494(3) 0.3244(4) 0.8256(3)
C47_6 C 0.6936(4) 0.0032(5) 0.5395(4)
O33_6 O 0.6157(4) 0.1479(6) 0.6381(6)
C48_6 C 0.7216(4) 0.0821(4) 0.6034(4)
C49_6 C 0.2845(4) 0.1055(4) 0.5407(3)
C50_6 C 0.5694(4) 0.3366(4) 0.8096(4)
C51_6 C 0.2335(3) 0.1658(4) 0.6064(4)
C52_6 C 0.6905(4) 0.0362(5) 0.5635(4)
C53_6 C 0.3152(4) 0.1524(5) 0.5799(4)
H30_6 H 0.3423 0.1470 0.5718
O34_6 O 0.7590(4) 0.1651(5) 0.7034(3)
H31_6 H 0.7677 0.1580 0.7200
N9_6 N 0.5352(5) 0.2345(9) 0.7022(7)
H32_6 H 0.5628 0.2330 0.7029
C54_6 C 0.7261(4) 0.0538(4) 0.5784(3)
H33_6 H 0.7536 0.0469 0.5717
C55_6 C 0.5744(4) 0.3157(5) 0.7821(4)
H34_6 H 0.6013 0.3145 0.7730
O35_6 O 0.4779(4) 0.2611(5) 0.7264(6)
C56_6 C 0.6505(5) 0.0520(6) 0.5725(5)
H35_6 H 0.6259 0.0411 0.5633
C57_6 C 0.2384(4) 0.1416(4) 0.5806(3)
H36_6 H 0.2143 0.1289 0.5719
N10_6 N 0.6040(4) 0.0968(6) 0.5998(7)
H37_6 H 0.5836 0.0850 0.5897
C58_6 C 0.2698(5) 0.1845(5) 0.6180(5)
H38_6 H 0.2678 0.2024 0.6346
C59_6 C 0.5298(4) 0.3409(4) 0.8217(3)
H39_6 H 0.5268 0.3580 0.8387
N11_6 N 0.5461(4) 0.2711(7) 0.7463(6)
H40_6 H 0.5718 0.2610 0.7453
C60_6 C 0.5382(5) 0.2961(5) 0.7677(5)
O36_6 O 0.8906(5) 0.0749(5) 0.5911(4)
H41_6 H 0.8796 0.0524 0.5854
C61_6 C 0.3111(5) 0.1764(6) 0.6045(7)
C62_6 C 0.6818(4) 0.0966(5) 0.6094(4)
H42_6 H 0.6780 0.1170 0.6245
C63_6 C 0.4977(4) 0.3005(5) 0.7808(5)
H43_6 H 0.4734 0.2900 0.7711
C64_6 C 0.5166(6) 0.2576(9) 0.7232(6)
C65_6 C 0.5915(6) 0.1284(9) 0.6202(6)
C66_6 C 0.6459(5) 0.0817(7) 0.5934(6)
N12_6 N 0.5478(5) 0.1340(8) 0.6172(7)
H44_6 H 0.5336 0.1177 0.6052
O39_6 O 0.8562(2) 0.1526(3) 0.6880(3)
O42_6 O 0.8987(2) 0.1245(2) 0.6517(2)
O44_6 O 0.8481(3) 0.0517(2) 0.6529(3)
O50_6 O 0.8035(3) 0.0801(2) 0.6878(3)
H45_6 H 0.729247 0.154236 0.700518
H46_6 H 0.91988 0.0689635 0.598981
O24_6 O 0.6608(2) 0.9868(3) 0.5306(2)
O30_6 O 0.7324(2) 0.9977(3) 0.5300(2)
O14_11 O 0.9279(5) 0.4045(4) 0.5000
H6_7 H 0.9458 0.4171 0.4897
O19_11 O 0.9692(7) 0.1840(4) 0.5000
H22_7 H 0.9712 0.1754 0.4827
H23_7 H 0.9458 0.4171 0.5103
H24_7 H 0.9712 0.1754 0.5173
O40_7 O 0.9868(3) 0.3392(2) 0.4694(2)
O47_7 O 0.9107(2) 0.2512(3) 0.4687(2)
O48_7 O 0.9977(3) 0.2676(2) 0.4700(2)
O52_7 O 0.8998(3) 0.3204(2) 0.4686(2)
O14_12 O 0.5955(4) 0.9279(5) 0.5000
H6_8 H 0.5829 0.9458 0.4897
O19_12 O 0.8160(4) 0.9692(7) 0.5000
H22_8 H 0.8246 0.9712 0.4827
H23_8 H 0.5829 0.9458 0.5103
H24_8 H 0.8246 0.9712 0.5173
O40_8 O 0.6608(2) 0.9868(3) 0.4694(2)
O47_8 O 0.7488(3) 0.9107(2) 0.4687(2)
O48_8 O 0.7324(2) 0.9977(3) 0.4700(2)
O52_8 O 0.6796(2) 0.8998(3) 0.4686(2)
C36_7 C 0.0254(8) 0.6676(12) 0.8658(8)
C37_7 C 0.0415(7) 0.6863(12) 0.8398(10)
H26_7 H 0.0701 0.6822 0.8344
C38_7 C 0.0148(7) 0.7114(8) 0.8219(6)
O22_7 O 0.2540(2) 0.6185(2) 0.8579(2)
O26_7 O 0.2964(2) 0.5875(3) 0.8924(3)
C43_7 C 0.2622(4) 0.5967(4) 0.8792(4)
C44_7 C 0.1095(4) 0.8545(4) 0.6740(4)
C47_7 C 0.1936(4) 0.5032(5) 0.9605(4)
O33_7 O 0.1157(4) 0.6479(6) 0.8619(6)
C48_7 C 0.2216(4) 0.5821(4) 0.8966(4)
C50_7 C 0.0694(4) 0.8366(4) 0.6904(4)
C52_7 C 0.1905(4) 0.5362(5) 0.9365(4)
O34_7 O 0.2590(4) 0.6651(5) 0.7966(3)
H31_7 H 0.2677 0.6580 0.7800
N9_7 N 0.0352(5) 0.7345(9) 0.7978(7)
H32_7 H 0.0628 0.7330 0.7971
C54_7 C 0.2261(4) 0.5538(4) 0.9216(3)
H33_7 H 0.2536 0.5469 0.9283
C55_7 C 0.0744(4) 0.8157(5) 0.7179(4)
H34_7 H 0.1013 0.8145 0.7270
C56_7 C 0.1505(5) 0.5520(6) 0.9275(5)
H35_7 H 0.1259 0.5411 0.9367
N10_7 N 0.1040(4) 0.5968(6) 0.9002(7)
H37_7 H 0.0836 0.5850 0.9103
C59_7 C 0.0298(4) 0.8409(4) 0.6783(3)
H39_7 H 0.0268 0.8580 0.6613
N11_7 N 0.0461(4) 0.7711(7) 0.7537(6)
H40_7 H 0.0718 0.7610 0.7547
C60_7 C 0.0382(5) 0.7961(5) 0.7323(5)
O36_7 O 0.3906(5) 0.5749(5) 0.9089(4)
H41_7 H 0.3796 0.5524 0.9146
C62_7 C 0.1818(4) 0.5966(5) 0.8906(4)
H42_7 H 0.1780 0.6170 0.8755
C64_7 C 0.0166(6) 0.7576(9) 0.7768(6)
C65_7 C 0.0915(6) 0.6284(9) 0.8798(6)
C66_7 C 0.1459(5) 0.5817(7) 0.9066(6)
N12_7 N 0.0478(5) 0.6340(8) 0.8828(7)
H44_7 H 0.0336 0.6177 0.8948
O37_5 O 0.3068(3) 0.6900(2) 0.8553(3)
O45_5 O 0.3462(3) 0.6598(2) 0.8931(3)
H45_7 H 0.229247 0.654236 0.799482
H46_7 H 0.41988 0.568964 0.901019
C1_3 C 0.6988(9) 0.0440(5) 0.8559(7)
C2_3 C 0.6738(10) 0.0174(5) 0.8738(9)
H1_3 H 0.6613 0.0281 0.8912
C6_3 C 0.7176(8) 0.0280(6) 0.8299(6)
H3_3 H 0.7343 0.0458 0.8179
O1_3 O 0.6932(3) 0.3100(2) 0.8553(3)
N1_3 N 0.6971(5) 0.1552(3) 0.8796(5)
H4_3 H 0.7208 0.1609 0.8705
C7_3 C 0.8217(4) 0.0065(3) 0.6898(3)
C8_3 C 0.6359(4) 0.2207(4) 0.9332(4)
C9_3 C 0.6804(9) 0.1109(6) 0.8779(5)
O2_3 O 0.6555(6) 0.1000(4) 0.8988(7)
N2_3 N 0.7067(6) 0.0866(4) 0.8624(6)
H5_3 H 0.7302 0.0979 0.8559
O9_3 O 0.6538(3) 0.3402(2) 0.8931(3)
C12_3 C 0.6707(4) 0.3097(3) 0.8780(3)
C13_3 C 0.8244(4) 0.0506(3) 0.6744(3)
C16_3 C 0.6055(4) 0.2155(4) 0.9593(3)
C18_3 C 0.6658(4) 0.2665(3) 0.8936(4)
C20_3 C 0.6524(5) 0.1848(4) 0.9201(4)
H7_3 H 0.6470 0.1577 0.9282
O17_3 O 0.7611(5) 0.0221(4) 0.7736(6)
C24_3 C 0.6416(4) 0.2616(4) 0.9194(3)
H13_3 H 0.6289 0.2857 0.9281
C25_3 C 0.6845(5) 0.2302(5) 0.8820(5)
H15_3 H 0.7024 0.2322 0.8654
C28_3 C 0.6764(6) 0.1889(5) 0.8955(7)
C30_3 C 0.8005(5) 0.0023(4) 0.7192(5)
H20_3 H 0.7900 0.0266 0.7289
C3_3 C 0.6676(12) 0.9746(8) 0.8658(8)
C4_3 C 0.6863(12) 0.9585(7) 0.8398(10)
H2_3 H 0.6822 0.9299 0.8344
C5_3 C 0.7114(8) 0.9852(7) 0.8219(6)
O3_3 O 0.6185(2) 0.7460(2) 0.8579(2)
O7_3 O 0.5875(3) 0.7036(2) 0.8924(3)
C10_3 C 0.5967(4) 0.7378(4) 0.8792(4)
C11_3 C 0.8545(4) 0.8905(4) 0.6740(4)
C14_3 C 0.5032(5) 0.8064(4) 0.9605(4)
O15_3 O 0.6479(6) 0.8843(4) 0.8619(6)
C15_3 C 0.5821(4) 0.7784(4) 0.8966(4)
C17_3 C 0.8366(4) 0.9306(4) 0.6904(4)
C19_3 C 0.5362(5) 0.8095(4) 0.9365(4)
O16_3 O 0.6651(5) 0.7410(4) 0.7966(3)
H8_3 H 0.6580 0.7323 0.7800
N3_3 N 0.7345(9) 0.9648(5) 0.7978(7)
H9_3 H 0.7330 0.9372 0.7971
C21_3 C 0.5538(4) 0.7739(4) 0.9216(3)
H10_3 H 0.5469 0.7464 0.9283
C22_3 C 0.8157(5) 0.9256(4) 0.7179(4)
H11_3 H 0.8145 0.8987 0.7270
C23_3 C 0.5520(6) 0.8495(5) 0.9275(5)
H12_3 H 0.5411 0.8741 0.9367
N4_3 N 0.5968(6) 0.8960(4) 0.9002(7)
H14_3 H 0.5850 0.9164 0.9103
C26_3 C 0.8409(4) 0.9702(4) 0.6783(3)
H16_3 H 0.8580 0.9732 0.6613
N5_3 N 0.7711(7) 0.9539(4) 0.7537(6)
H17_3 H 0.7610 0.9282 0.7547
C27_3 C 0.7961(5) 0.9618(5) 0.7323(5)
O18_3 O 0.5749(5) 0.6094(5) 0.9089(4)
H18_3 H 0.5524 0.6204 0.9146
C29_3 C 0.5966(5) 0.8182(4) 0.8906(4)
H19_3 H 0.6170 0.8220 0.8755
C31_3 C 0.7576(9) 0.9834(6) 0.7768(6)
C32_3 C 0.6284(9) 0.9085(6) 0.8798(6)
C33_3 C 0.5817(7) 0.8541(5) 0.9066(6)
N6_3 N 0.6340(8) 0.9522(5) 0.8828(7)
H21_3 H 0.6177 0.9664 0.8948
C34_7 C 0.9560(5) 0.6988(9) 0.8559(7)
C35_7 C 0.9826(5) 0.6738(10) 0.8738(9)
H25_7 H 0.9719 0.6613 0.8912
C39_7 C 0.9720(6) 0.7176(8) 0.8299(6)
H27_7 H 0.9542 0.7343 0.8179
O20_3 O 0.6900(2) 0.6932(3) 0.8553(3)
N7_7 N 0.8448(3) 0.6971(5) 0.8796(5)
H28_7 H 0.8391 0.7208 0.8705
C40_7 C 0.9935(3) 0.8217(4) 0.6898(3)
C41_7 C 0.7793(4) 0.6359(4) 0.9332(4)
C42_7 C 0.8891(6) 0.6804(9) 0.8779(5)
O21_7 O 0.9000(4) 0.6555(6) 0.8988(7)
N8_7 N 0.9134(4) 0.7067(6) 0.8624(6)
H29_7 H 0.9021 0.7302 0.8559
O28_3 O 0.6598(2) 0.6538(3) 0.8931(3)
C45_7 C 0.6903(3) 0.6707(4) 0.8780(3)
C46_7 C 0.9494(3) 0.8244(4) 0.6744(3)
C49_7 C 0.7845(4) 0.6055(4) 0.9593(3)
C51_7 C 0.7335(3) 0.6658(4) 0.8936(4)
C53_7 C 0.8152(4) 0.6524(5) 0.9201(4)
H30_7 H 0.8423 0.6470 0.9282
O35_7 O 0.9779(4) 0.7611(5) 0.7736(6)
C57_7 C 0.7384(4) 0.6416(4) 0.9194(3)
H36_7 H 0.7143 0.6289 0.9281
C58_7 C 0.7698(5) 0.6845(5) 0.8820(5)
H38_7 H 0.7678 0.7024 0.8654
C61_7 C 0.8111(5) 0.6764(6) 0.8955(7)
C63_7 C 0.9977(4) 0.8005(5) 0.7192(5)
H43_7 H 0.9734 0.7900 0.7289
H47_3 H 0.654236 0.770753 0.799482
H48_3 H 0.568964 0.58012 0.901019
C36_8 C 0.3324(12) 0.0254(8) 0.8658(8)
C37_8 C 0.3137(12) 0.0415(7) 0.8398(10)
H26_8 H 0.3178 0.0701 0.8344
C38_8 C 0.2886(8) 0.0148(7) 0.8219(6)
O22_8 O 0.3815(2) 0.2540(2) 0.8579(2)
O26_8 O 0.4125(3) 0.2964(2) 0.8924(3)
C43_8 C 0.4033(4) 0.2622(4) 0.8792(4)
C44_8 C 0.1455(4) 0.1095(4) 0.6740(4)
C47_8 C 0.4968(5) 0.1936(4) 0.9605(4)
O33_8 O 0.3521(6) 0.1157(4) 0.8619(6)
C48_8 C 0.4179(4) 0.2216(4) 0.8966(4)
C50_8 C 0.1634(4) 0.0694(4) 0.6904(4)
C52_8 C 0.4638(5) 0.1905(4) 0.9365(4)
O34_8 O 0.3349(5) 0.2590(4) 0.7966(3)
H31_8 H 0.3420 0.2677 0.7800
N9_8 N 0.2655(9) 0.0352(5) 0.7978(7)
H32_8 H 0.2670 0.0628 0.7971
C54_8 C 0.4462(4) 0.2261(4) 0.9216(3)
H33_8 H 0.4531 0.2536 0.9283
C55_8 C 0.1843(5) 0.0744(4) 0.7179(4)
H34_8 H 0.1855 0.1013 0.7270
C56_8 C 0.4480(6) 0.1505(5) 0.9275(5)
H35_8 H 0.4589 0.1259 0.9367
N10_8 N 0.4032(6) 0.1040(4) 0.9002(7)
H37_8 H 0.4150 0.0836 0.9103
C59_8 C 0.1591(4) 0.0298(4) 0.6783(3)
H39_8 H 0.1420 0.0268 0.6613
N11_8 N 0.2289(7) 0.0461(4) 0.7537(6)
H40_8 H 0.2390 0.0718 0.7547
C60_8 C 0.2039(5) 0.0382(5) 0.7323(5)
O36_8 O 0.4251(5) 0.3906(5) 0.9089(4)
H41_8 H 0.4476 0.3796 0.9146
C62_8 C 0.4034(5) 0.1818(4) 0.8906(4)
H42_8 H 0.3830 0.1780 0.8755
C64_8 C 0.2424(9) 0.0166(6) 0.7768(6)
C65_8 C 0.3716(9) 0.0915(6) 0.8798(6)
C66_8 C 0.4183(7) 0.1459(5) 0.9066(6)
N12_8 N 0.3660(8) 0.0478(5) 0.8828(7)
H44_8 H 0.3823 0.0336 0.8948
O37_6 O 0.3100(2) 0.3068(3) 0.8553(3)
O45_6 O 0.3402(2) 0.3462(3) 0.8931(3)
H45_8 H 0.345764 0.229247 0.799482
H46_8 H 0.431036 0.41988 0.901019
C34_8 C 0.3012(9) 0.9560(5) 0.8559(7)
C35_8 C 0.3262(10) 0.9826(5) 0.8738(9)
H25_8 H 0.3387 0.9719 0.8912
C39_8 C 0.2824(8) 0.9720(6) 0.8299(6)
H27_8 H 0.2657 0.9542 0.8179
N7_8 N 0.3029(5) 0.8448(3) 0.8796(5)
H28_8 H 0.2792 0.8391 0.8705
C40_8 C 0.1783(4) 0.9935(3) 0.6898(3)
C41_8 C 0.3641(4) 0.7793(4) 0.9332(4)
C42_8 C 0.3196(9) 0.8891(6) 0.8779(5)
O21_8 O 0.3445(6) 0.9000(4) 0.8988(7)
N8_8 N 0.2933(6) 0.9134(4) 0.8624(6)
H29_8 H 0.2698 0.9021 0.8559
C45_8 C 0.3293(4) 0.6903(3) 0.8780(3)
C46_8 C 0.1756(4) 0.9494(3) 0.6744(3)
C49_8 C 0.3945(4) 0.7845(4) 0.9593(3)
C51_8 C 0.3342(4) 0.7335(3) 0.8936(4)
C53_8 C 0.3476(5) 0.8152(4) 0.9201(4)
H30_8 H 0.3530 0.8423 0.9282
O35_8 O 0.2389(5) 0.9779(4) 0.7736(6)
C57_8 C 0.3584(4) 0.7384(4) 0.9194(3)
H36_8 H 0.3711 0.7143 0.9281
C58_8 C 0.3155(5) 0.7698(5) 0.8820(5)
H38_8 H 0.2976 0.7678 0.8654
C61_8 C 0.3236(6) 0.8111(5) 0.8955(7)
C63_8 C 0.1995(5) 0.9977(4) 0.7192(5)
H43_8 H 0.2100 0.9734 0.7289
C34_9 C 0.0440(5) 0.3012(9) 0.8559(7)
C35_9 C 0.0174(5) 0.3262(10) 0.8738(9)
H25_9 H 0.0281 0.3387 0.8912
C39_9 C 0.0280(6) 0.2824(8) 0.8299(6)
H27_9 H 0.0458 0.2657 0.8179
N7_9 N 0.1552(3) 0.3029(5) 0.8796(5)
H28_9 H 0.1609 0.2792 0.8705
C40_9 C 0.0065(3) 0.1783(4) 0.6898(3)
C41_9 C 0.2207(4) 0.3641(4) 0.9332(4)
C42_9 C 0.1109(6) 0.3196(9) 0.8779(5)
O21_9 O 0.1000(4) 0.3445(6) 0.8988(7)
N8_9 N 0.0866(4) 0.2933(6) 0.8624(6)
H29_9 H 0.0979 0.2698 0.8559
C45_9 C 0.3097(3) 0.3293(4) 0.8780(3)
C46_9 C 0.0506(3) 0.1756(4) 0.6744(3)
C49_9 C 0.2155(4) 0.3945(4) 0.9593(3)
C51_9 C 0.2665(3) 0.3342(4) 0.8936(4)
C53_9 C 0.1848(4) 0.3476(5) 0.9201(4)
H30_9 H 0.1577 0.3530 0.9282
O35_9 O 0.0221(4) 0.2389(5) 0.7736(6)
C57_9 C 0.2616(4) 0.3584(4) 0.9194(3)
H36_9 H 0.2857 0.3711 0.9281
C58_9 C 0.2302(5) 0.3155(5) 0.8820(5)
H38_9 H 0.2322 0.2976 0.8654
C61_9 C 0.1889(5) 0.3236(6) 0.8955(7)
C63_9 C 0.0023(4) 0.1995(5) 0.7192(5)
H43_9 H 0.0266 0.2100 0.7289
C36_9 C 0.9746(8) 0.3324(12) 0.8658(8)
C37_9 C 0.9585(7) 0.3137(12) 0.8398(10)
H26_9 H 0.9299 0.3178 0.8344
C38_9 C 0.9852(7) 0.2886(8) 0.8219(6)
O22_9 O 0.7460(2) 0.3815(2) 0.8579(2)
O26_9 O 0.7036(2) 0.4125(3) 0.8924(3)
C43_9 C 0.7378(4) 0.4033(4) 0.8792(4)
C44_9 C 0.8905(4) 0.1455(4) 0.6740(4)
C47_9 C 0.8064(4) 0.4968(5) 0.9605(4)
O33_9 O 0.8843(4) 0.3521(6) 0.8619(6)
C48_9 C 0.7784(4) 0.4179(4) 0.8966(4)
C50_9 C 0.9306(4) 0.1634(4) 0.6904(4)
C52_9 C 0.8095(4) 0.4638(5) 0.9365(4)
O34_9 O 0.7410(4) 0.3349(5) 0.7966(3)
H31_9 H 0.7323 0.3420 0.7800
N9_9 N 0.9648(5) 0.2655(9) 0.7978(7)
H32_9 H 0.9372 0.2670 0.7971
C54_9 C 0.7739(4) 0.4462(4) 0.9216(3)
H33_9 H 0.7464 0.4531 0.9283
C55_9 C 0.9256(4) 0.1843(5) 0.7179(4)
H34_9 H 0.8987 0.1855 0.7270
C56_9 C 0.8495(5) 0.4480(6) 0.9275(5)
H35_9 H 0.8741 0.4589 0.9367
N10_9 N 0.8960(4) 0.4032(6) 0.9002(7)
H37_9 H 0.9164 0.4150 0.9103
C59_9 C 0.9702(4) 0.1591(4) 0.6783(3)
H39_9 H 0.9732 0.1420 0.6613
N11_9 N 0.9539(4) 0.2289(7) 0.7537(6)
H40_9 H 0.9282 0.2390 0.7547
C60_9 C 0.9618(5) 0.2039(5) 0.7323(5)
O36_9 O 0.6094(5) 0.4251(5) 0.9089(4)
H41_9 H 0.6204 0.4476 0.9146
C62_9 C 0.8182(4) 0.4034(5) 0.8906(4)
H42_9 H 0.8220 0.3830 0.8755
C64_9 C 0.9834(6) 0.2424(9) 0.7768(6)
C65_9 C 0.9085(6) 0.3716(9) 0.8798(6)
C66_9 C 0.8541(5) 0.4183(7) 0.9066(6)
N12_9 N 0.9522(5) 0.3660(8) 0.8828(7)
H44_9 H 0.9664 0.3823 0.8948
H45_9 H 0.770753 0.345764 0.799482
H46_9 H 0.58012 0.431036 0.901019
C1_4 C 0.1988(9) 0.5440(5) 0.3559(7)
C2_4 C 0.1738(10) 0.5174(5) 0.3738(9)
H1_4 H 0.1613 0.5281 0.3912
C3_4 C 0.1676(12) 0.4746(8) 0.3658(8)
C4_4 C 0.1863(12) 0.4585(7) 0.3398(10)
H2_4 H 0.1822 0.4299 0.3344
C5_4 C 0.2114(8) 0.4852(7) 0.3219(6)
C6_4 C 0.2176(8) 0.5280(6) 0.3299(6)
H3_4 H 0.2343 0.5458 0.3179
O1_4 O 0.1932(3) 0.8100(2) 0.3553(3)
N1_4 N 0.1971(5) 0.6552(3) 0.3796(5)
H4_4 H 0.2208 0.6609 0.3705
C7_4 C 0.3217(4) 0.5065(3) 0.1898(3)
C8_4 C 0.1359(4) 0.7207(4) 0.4332(4)
C9_4 C 0.1804(9) 0.6109(6) 0.3779(5)
O2_4 O 0.1555(6) 0.6000(4) 0.3988(7)
N2_4 N 0.2067(6) 0.5866(4) 0.3624(6)
H5_4 H 0.2302 0.5979 0.3559
O3_4 O 0.1185(2) 0.2460(2) 0.3579(2)
O7_4 O 0.0875(3) 0.2036(2) 0.3924(3)
C10_4 C 0.0967(4) 0.2378(4) 0.3792(4)
O9_4 O 0.1538(3) 0.8402(2) 0.3931(3)
C11_4 C 0.3545(4) 0.3905(4) 0.1740(4)
C12_4 C 0.1707(4) 0.8097(3) 0.3780(3)
C13_4 C 0.3244(4) 0.5506(3) 0.1744(3)
C14_4 C 0.0032(5) 0.3064(4) 0.4605(4)
O15_4 O 0.1479(6) 0.3843(4) 0.3619(6)
C15_4 C 0.0821(4) 0.2784(4) 0.3966(4)
C16_4 C 0.1055(4) 0.7155(4) 0.4593(3)
C17_4 C 0.3366(4) 0.4306(4) 0.1904(4)
C18_4 C 0.1658(4) 0.7665(3) 0.3936(4)
C19_4 C 0.0362(5) 0.3095(4) 0.4365(4)
C20_4 C 0.1524(5) 0.6848(4) 0.4201(4)
H7_4 H 0.1470 0.6577 0.4282
O16_4 O 0.1651(5) 0.2410(4) 0.2966(3)
H8_4 H 0.1580 0.2323 0.2800
N3_4 N 0.2345(9) 0.4648(5) 0.2978(7)
H9_4 H 0.2330 0.4372 0.2971
C21_4 C 0.0538(4) 0.2739(4) 0.4216(3)
H10_4 H 0.0469 0.2464 0.4283
C22_4 C 0.3157(5) 0.4256(4) 0.2179(4)
H11_4 H 0.3145 0.3987 0.2270
O17_4 O 0.2611(5) 0.5221(4) 0.2736(6)
C23_4 C 0.0520(6) 0.3495(5) 0.4275(5)
H12_4 H 0.0411 0.3741 0.4367
C24_4 C 0.1416(4) 0.7616(4) 0.4194(3)
H13_4 H 0.1289 0.7857 0.4281
N4_4 N 0.0968(6) 0.3960(4) 0.4002(7)
H14_4 H 0.0850 0.4164 0.4103
C25_4 C 0.1845(5) 0.7302(5) 0.3820(5)
H15_4 H 0.2024 0.7322 0.3654
C26_4 C 0.3409(4) 0.4702(4) 0.1783(3)
H16_4 H 0.3580 0.4732 0.1613
N5_4 N 0.2711(7) 0.4539(4) 0.2537(6)
H17_4 H 0.2610 0.4282 0.2547
C27_4 C 0.2961(5) 0.4618(5) 0.2323(5)
O18_4 O 0.0749(5) 0.1094(5) 0.4089(4)
H18_4 H 0.0524 0.1204 0.4146
C28_4 C 0.1764(6) 0.6889(5) 0.3955(7)
C29_4 C 0.0966(5) 0.3182(4) 0.3906(4)
H19_4 H 0.1170 0.3220 0.3755
C30_4 C 0.3005(5) 0.5023(4) 0.2192(5)
H20_4 H 0.2900 0.5266 0.2289
C31_4 C 0.2576(9) 0.4834(6) 0.2768(6)
C32_4 C 0.1284(9) 0.4085(6) 0.3798(6)
C33_4 C 0.0817(7) 0.3541(5) 0.4066(6)
N6_4 N 0.1340(8) 0.4522(5) 0.3828(7)
H21_4 H 0.1177 0.4664 0.3948
C34_10 C 0.4560(5) 0.1988(9) 0.3559(7)
C35_10 C 0.4826(5) 0.1738(10) 0.3738(9)
H25_10 H 0.4719 0.1613 0.3912
C36_10 C 0.5254(8) 0.1676(12) 0.3658(8)
C37_10 C 0.5415(7) 0.1863(12) 0.3398(10)
H26_10 H 0.5701 0.1822 0.3344
C38_10 C 0.5148(7) 0.2114(8) 0.3219(6)
C39_10 C 0.4720(6) 0.2176(8) 0.3299(6)
H27_10 H 0.4542 0.2343 0.3179
O20_4 O 0.1900(2) 0.1932(3) 0.3553(3)
N7_10 N 0.3448(3) 0.1971(5) 0.3796(5)
H28_10 H 0.3391 0.2208 0.3705
C40_10 C 0.4935(3) 0.3217(4) 0.1898(3)
C41_10 C 0.2793(4) 0.1359(4) 0.4332(4)
C42_10 C 0.3891(6) 0.1804(9) 0.3779(5)
O21_10 O 0.4000(4) 0.1555(6) 0.3988(7)
N8_10 N 0.4134(4) 0.2067(6) 0.3624(6)
H29_10 H 0.4021 0.2302 0.3559
O22_10 O 0.7540(2) 0.1185(2) 0.3579(2)
O26_10 O 0.7964(2) 0.0875(3) 0.3924(3)
C43_10 C 0.7622(4) 0.0967(4) 0.3792(4)
O28_4 O 0.1598(2) 0.1538(3) 0.3931(3)
C44_10 C 0.6095(4) 0.3545(4) 0.1740(4)
C45_10 C 0.1903(3) 0.1707(4) 0.3780(3)
C46_10 C 0.4494(3) 0.3244(4) 0.1744(3)
C47_10 C 0.6936(4) 0.0032(5) 0.4605(4)
O33_10 O 0.6157(4) 0.1479(6) 0.3619(6)
C48_10 C 0.7216(4) 0.0821(4) 0.3966(4)
C49_10 C 0.2845(4) 0.1055(4) 0.4593(3)
C50_10 C 0.5694(4) 0.3366(4) 0.1904(4)
C51_10 C 0.2335(3) 0.1658(4) 0.3936(4)
C52_10 C 0.6905(4) 0.0362(5) 0.4365(4)
C53_10 C 0.3152(4) 0.1524(5) 0.4201(4)
H30_10 H 0.3423 0.1470 0.4282
O34_10 O 0.7590(4) 0.1651(5) 0.2966(3)
H31_10 H 0.7677 0.1580 0.2800
N9_10 N 0.5352(5) 0.2345(9) 0.2978(7)
H32_10 H 0.5628 0.2330 0.2971
C54_10 C 0.7261(4) 0.0538(4) 0.4216(3)
H33_10 H 0.7536 0.0469 0.4283
C55_10 C 0.5744(4) 0.3157(5) 0.2179(4)
H34_10 H 0.6013 0.3145 0.2270
O35_10 O 0.4779(4) 0.2611(5) 0.2736(6)
C56_10 C 0.6505(5) 0.0520(6) 0.4275(5)
H35_10 H 0.6259 0.0411 0.4367
C57_10 C 0.2384(4) 0.1416(4) 0.4194(3)
H36_10 H 0.2143 0.1289 0.4281
N10_10 N 0.6040(4) 0.0968(6) 0.4002(7)
H37_10 H 0.5836 0.0850 0.4103
C58_10 C 0.2698(5) 0.1845(5) 0.3820(5)
H38_10 H 0.2678 0.2024 0.3654
C59_10 C 0.5298(4) 0.3409(4) 0.1783(3)
H39_10 H 0.5268 0.3580 0.1613
N11_10 N 0.5461(4) 0.2711(7) 0.2537(6)
H40_10 H 0.5718 0.2610 0.2547
C60_10 C 0.5382(5) 0.2961(5) 0.2323(5)
O36_10 O 0.8906(5) 0.0749(5) 0.4089(4)
H41_10 H 0.8796 0.0524 0.4146
C61_10 C 0.3111(5) 0.1764(6) 0.3955(7)
C62_10 C 0.6818(4) 0.0966(5) 0.3906(4)
H42_10 H 0.6780 0.1170 0.3755
C63_10 C 0.4977(4) 0.3005(5) 0.2192(5)
H43_10 H 0.4734 0.2900 0.2289
C64_10 C 0.5166(6) 0.2576(9) 0.2768(6)
C65_10 C 0.5915(6) 0.1284(9) 0.3798(6)
C66_10 C 0.6459(5) 0.0817(7) 0.4066(6)
N12_10 N 0.5478(5) 0.1340(8) 0.3828(7)
H44_10 H 0.5336 0.1177 0.3948
O37_7 O 0.8068(3) 0.1900(2) 0.3553(3)
O45_7 O 0.8462(3) 0.1598(2) 0.3931(3)
H45_10 H 0.729247 0.154236 0.299482
H46_10 H 0.91988 0.0689635 0.401019
H47_4 H 0.154236 0.270753 0.299482
H48_4 H 0.0689635 0.0801205 0.401019
C34_11 C 0.8012(9) 0.4560(5) 0.3559(7)
C35_11 C 0.8262(10) 0.4826(5) 0.3738(9)
H25_11 H 0.8387 0.4719 0.3912
C36_11 C 0.8324(12) 0.5254(8) 0.3658(8)
C37_11 C 0.8137(12) 0.5415(7) 0.3398(10)
H26_11 H 0.8178 0.5701 0.3344
C38_11 C 0.7886(8) 0.5148(7) 0.3219(6)
C39_11 C 0.7824(8) 0.4720(6) 0.3299(6)
H27_11 H 0.7657 0.4542 0.3179
N7_11 N 0.8029(5) 0.3448(3) 0.3796(5)
H28_11 H 0.7792 0.3391 0.3705
C40_11 C 0.6783(4) 0.4935(3) 0.1898(3)
C41_11 C 0.8641(4) 0.2793(4) 0.4332(4)
C42_11 C 0.8196(9) 0.3891(6) 0.3779(5)
O21_11 O 0.8445(6) 0.4000(4) 0.3988(7)
N8_11 N 0.7933(6) 0.4134(4) 0.3624(6)
H29_11 H 0.7698 0.4021 0.3559
O22_11 O 0.8815(2) 0.7540(2) 0.3579(2)
O26_11 O 0.9125(3) 0.7964(2) 0.3924(3)
C43_11 C 0.9033(4) 0.7622(4) 0.3792(4)
C44_11 C 0.6455(4) 0.6095(4) 0.1740(4)
C45_11 C 0.8293(4) 0.1903(3) 0.3780(3)
C46_11 C 0.6756(4) 0.4494(3) 0.1744(3)
C47_11 C 0.9968(5) 0.6936(4) 0.4605(4)
O33_11 O 0.8521(6) 0.6157(4) 0.3619(6)
C48_11 C 0.9179(4) 0.7216(4) 0.3966(4)
C49_11 C 0.8945(4) 0.2845(4) 0.4593(3)
C50_11 C 0.6634(4) 0.5694(4) 0.1904(4)
C51_11 C 0.8342(4) 0.2335(3) 0.3936(4)
C52_11 C 0.9638(5) 0.6905(4) 0.4365(4)
C53_11 C 0.8476(5) 0.3152(4) 0.4201(4)
H30_11 H 0.8530 0.3423 0.4282
O34_11 O 0.8349(5) 0.7590(4) 0.2966(3)
H31_11 H 0.8420 0.7677 0.2800
N9_11 N 0.7655(9) 0.5352(5) 0.2978(7)
H32_11 H 0.7670 0.5628 0.2971
C54_11 C 0.9462(4) 0.7261(4) 0.4216(3)
H33_11 H 0.9531 0.7536 0.4283
C55_11 C 0.6843(5) 0.5744(4) 0.2179(4)
H34_11 H 0.6855 0.6013 0.2270
O35_11 O 0.7389(5) 0.4779(4) 0.2736(6)
C56_11 C 0.9480(6) 0.6505(5) 0.4275(5)
H35_11 H 0.9589 0.6259 0.4367
C57_11 C 0.8584(4) 0.2384(4) 0.4194(3)
H36_11 H 0.8711 0.2143 0.4281
N10_11 N 0.9032(6) 0.6040(4) 0.4002(7)
H37_11 H 0.9150 0.5836 0.4103
C58_11 C 0.8155(5) 0.2698(5) 0.3820(5)
H38_11 H 0.7976 0.2678 0.3654
C59_11 C 0.6591(4) 0.5298(4) 0.1783(3)
H39_11 H 0.6420 0.5268 0.1613
N11_11 N 0.7289(7) 0.5461(4) 0.2537(6)
H40_11 H 0.7390 0.5718 0.2547
C60_11 C 0.7039(5) 0.5382(5) 0.2323(5)
O36_11 O 0.9251(5) 0.8906(5) 0.4089(4)
H41_11 H 0.9476 0.8796 0.4146
C61_11 C 0.8236(6) 0.3111(5) 0.3955(7)
C62_11 C 0.9034(5) 0.6818(4) 0.3906(4)
H42_11 H 0.8830 0.6780 0.3755
C63_11 C 0.6995(5) 0.4977(4) 0.2192(5)
H43_11 H 0.7100 0.4734 0.2289
C64_11 C 0.7424(9) 0.5166(6) 0.2768(6)
C65_11 C 0.8716(9) 0.5915(6) 0.3798(6)
C66_11 C 0.9183(7) 0.6459(5) 0.4066(6)
N12_11 N 0.8660(8) 0.5478(5) 0.3828(7)
H44_11 H 0.8823 0.5336 0.3948
O37_8 O 0.8100(2) 0.8068(3) 0.3553(3)
O45_8 O 0.8402(2) 0.8462(3) 0.3931(3)
H45_11 H 0.845764 0.729247 0.299482
H46_11 H 0.931036 0.91988 0.401019
C34_12 C 0.5440(5) 0.8012(9) 0.3559(7)
C35_12 C 0.5174(5) 0.8262(10) 0.3738(9)
H25_12 H 0.5281 0.8387 0.3912
C36_12 C 0.4746(8) 0.8324(12) 0.3658(8)
C37_12 C 0.4585(7) 0.8137(12) 0.3398(10)
H26_12 H 0.4299 0.8178 0.3344
C38_12 C 0.4852(7) 0.7886(8) 0.3219(6)
C39_12 C 0.5280(6) 0.7824(8) 0.3299(6)
H27_12 H 0.5458 0.7657 0.3179
N7_12 N 0.6552(3) 0.8029(5) 0.3796(5)
H28_12 H 0.6609 0.7792 0.3705
C40_12 C 0.5065(3) 0.6783(4) 0.1898(3)
C41_12 C 0.7207(4) 0.8641(4) 0.4332(4)
C42_12 C 0.6109(6) 0.8196(9) 0.3779(5)
O21_12 O 0.6000(4) 0.8445(6) 0.3988(7)
N8_12 N 0.5866(4) 0.7933(6) 0.3624(6)
H29_12 H 0.5979 0.7698 0.3559
O22_12 O 0.2460(2) 0.8815(2) 0.3579(2)
O26_12 O 0.2036(2) 0.9125(3) 0.3924(3)
C43_12 C 0.2378(4) 0.9033(4) 0.3792(4)
C44_12 C 0.3905(4) 0.6455(4) 0.1740(4)
C45_12 C 0.8097(3) 0.8293(4) 0.3780(3)
C46_12 C 0.5506(3) 0.6756(4) 0.1744(3)
C47_12 C 0.3064(4) 0.9968(5) 0.4605(4)
O33_12 O 0.3843(4) 0.8521(6) 0.3619(6)
C48_12 C 0.2784(4) 0.9179(4) 0.3966(4)
C49_12 C 0.7155(4) 0.8945(4) 0.4593(3)
C50_12 C 0.4306(4) 0.6634(4) 0.1904(4)
C51_12 C 0.7665(3) 0.8342(4) 0.3936(4)
C52_12 C 0.3095(4) 0.9638(5) 0.4365(4)
C53_12 C 0.6848(4) 0.8476(5) 0.4201(4)
H30_12 H 0.6577 0.8530 0.4282
O34_12 O 0.2410(4) 0.8349(5) 0.2966(3)
H31_12 H 0.2323 0.8420 0.2800
N9_12 N 0.4648(5) 0.7655(9) 0.2978(7)
H32_12 H 0.4372 0.7670 0.2971
C54_12 C 0.2739(4) 0.9462(4) 0.4216(3)
H33_12 H 0.2464 0.9531 0.4283
C55_12 C 0.4256(4) 0.6843(5) 0.2179(4)
H34_12 H 0.3987 0.6855 0.2270
O35_12 O 0.5221(4) 0.7389(5) 0.2736(6)
C56_12 C 0.3495(5) 0.9480(6) 0.4275(5)
H35_12 H 0.3741 0.9589 0.4367
C57_12 C 0.7616(4) 0.8584(4) 0.4194(3)
H36_12 H 0.7857 0.8711 0.4281
N10_12 N 0.3960(4) 0.9032(6) 0.4002(7)
H37_12 H 0.4164 0.9150 0.4103
C58_12 C 0.7302(5) 0.8155(5) 0.3820(5)
H38_12 H 0.7322 0.7976 0.3654
C59_12 C 0.4702(4) 0.6591(4) 0.1783(3)
H39_12 H 0.4732 0.6420 0.1613
N11_12 N 0.4539(4) 0.7289(7) 0.2537(6)
H40_12 H 0.4282 0.7390 0.2547
C60_12 C 0.4618(5) 0.7039(5) 0.2323(5)
O36_12 O 0.1094(5) 0.9251(5) 0.4089(4)
H41_12 H 0.1204 0.9476 0.4146
C61_12 C 0.6889(5) 0.8236(6) 0.3955(7)
C62_12 C 0.3182(4) 0.9034(5) 0.3906(4)
H42_12 H 0.3220 0.8830 0.3755
C63_12 C 0.5023(4) 0.6995(5) 0.2192(5)
H43_12 H 0.5266 0.7100 0.2289
C64_12 C 0.4834(6) 0.7424(9) 0.2768(6)
C65_12 C 0.4085(6) 0.8716(9) 0.3798(6)
C66_12 C 0.3541(5) 0.9183(7) 0.4066(6)
N12_12 N 0.4522(5) 0.8660(8) 0.3828(7)
H44_12 H 0.4664 0.8823 0.3948
H45_12 H 0.270753 0.845764 0.299482
H46_12 H 0.0801205 0.931036 0.401019
loop_
_geom_bond_atom_site_label_1
_geom_bond_atom_site_label_2
_geom_bond_site_symmetry_1
_geom_bond_site_symmetry_2
C4 C3 1_555 1_555
H2 C4 1_555 1_555
C5 C4 1_555 1_555
Cu1 O11 1_555 1_555
Cu2 O5 1_555 1_555
Cu3 O3 1_555 1_555
Cu4 O7 1_555 1_555
O3 C10 1_555 1_555
O4 C11 1_555 1_555
O5 C14 1_555 1_555
O6 C11 1_555 1_555
O7 C10 1_555 1_555
C10 C15 1_555 1_555
O11 C14 1_555 1_555
C11 C17 1_555 1_555
C14 C19 1_555 1_555
O14 Cu2 1_555 1_555
O15 C32 1_555 1_555
C15 C21 1_555 1_555
C17 C22 1_555 1_555
C19 C21 1_555 1_555
O16 Cu3 1_555 1_555
H8 O16 1_555 1_555
N3 C5 1_555 1_555
H9 N3 1_555 1_555
C21 H10 1_555 1_555
C22 H11 1_555 1_555
C23 C19 1_555 1_555
H12 C23 1_555 1_555
N4 H14 1_555 1_555
H16 C26 1_555 1_555
N5 H17 1_555 1_555
C27 C22 1_555 1_555
O18 Cu4 1_555 1_555
H18 O18 1_555 1_555
C29 C15 1_555 1_555
H19 C29 1_555 1_555
C31 N3 1_555 1_555
C32 N4 1_555 1_555
C33 C23 1_555 1_555
N6 C3 1_555 1_555
H21 N6 1_555 1_555
O19 Cu1 1_555 1_555
H23 O14 1_555 1_555
H24 O19 1_555 1_555
C34 C35 1_555 1_555
C35 H25 1_555 1_555
C39 C34 1_555 1_555
H27 C39 1_555 1_555
O20 Cu3 1_555 1_555
N7 H28 1_555 1_555
C40 C46 1_555 1_555
C41 C49 1_555 1_555
C42 N7 1_555 1_555
O21 C42 1_555 1_555
N8 C34 1_555 1_555
H29 N8 1_555 1_555
O27 C46 1_555 1_555
O28 Cu4 1_555 1_555
O29 C49 1_555 1_555
O31 C46 1_555 1_555
O32 C49 1_555 1_555
C45 O20 1_555 1_555
C51 C45 1_555 1_555
C53 C41 1_555 1_555
H30 C53 1_555 1_555
C57 C41 1_555 1_555
H36 C57 1_555 1_555
C58 C51 1_555 1_555
H38 C58 1_555 1_555
C61 N7 1_555 1_555
C63 C40 1_555 1_555
H43 C63 1_555 1_555
Cu9 O29 1_555 1_555
Cu12 O32 1_555 1_555
Cu14 O4 1_555 1_555
Cu18 O6 1_555 1_555
O38 Cu3 1_555 1_555
O41 Cu4 1_555 1_555
O43 Cu4 1_555 1_555
O46 Cu1 1_555 1_555
O49 Cu3 1_555 1_555
O51 Cu2 1_555 1_555
C17 C26 1_555 1_555
N4 C33 1_555 1_555
N5 C27 1_555 1_555
N5 C31 1_555 1_555
C29 C33 1_555 1_555
C32 N6 1_555 1_555
C42 N8 1_555 1_555
O27 Cu18 1_555 1_555
O28 C45 1_555 1_555
O31 Cu14 1_555 1_555
C51 C57 1_555 1_555
C53 C61 1_555 1_555
C58 C61 1_555 1_555
O16 H47 1_555 1_555
O18 H48 1_555 1_555
O14_2 Cu2_2 1_555 1_555
H6 O14_2 1_555 1_555
O19_2 Cu1_2 1_555 1_555
H22 O19_2 1_555 1_555
O40 Cu2_2 1_555 1_555
O47 Cu1_2 1_555 1_555
O48 Cu1_2 1_555 1_555
O52 Cu2_2 1_555 1_555
C1 C2 1_555 1_555
C2 H1 1_555 1_555
C6 C1 1_555 1_555
H3 C6 1_555 1_555
O1 C12 1_555 1_555
N1 H4 1_555 1_555
C7 C13 1_555 1_555
C8 C16 1_555 1_555
C9 N1 1_555 1_555
O2 C9 1_555 1_555
N2 C1 1_555 1_555
H5 N2 1_555 1_555
O8 C13 1_555 1_555
O9 C12 1_555 1_555
O10 C16 1_555 1_555
O12 C13 1_555 1_555
O13 C16 1_555 1_555
C12 C18 1_555 1_555
C18 C24 1_555 1_555
C20 C8 1_555 1_555
H7 C20 1_555 1_555
C24 C8 1_555 1_555
H13 C24 1_555 1_555
C25 C18 1_555 1_555
H15 C25 1_555 1_555
C28 N1 1_555 1_555
C30 C7 1_555 1_555
H20 C30 1_555 1_555
Cu8 O10 1_555 1_555
Cu11 O13 1_555 1_555
Cu13 O1 1_555 1_555
Cu16 O12 1_555 1_555
Cu17 O9 1_555 1_555
Cu20 O8 1_555 1_555
C9 N2 1_555 1_555
C20 C28 1_555 1_555
C25 C28 1_555 1_555
C37 C36 1_555 1_555
H26 C37 1_555 1_555
C38 C37 1_555 1_555
Cu5 O22 1_555 1_555
Cu6 O26 1_555 1_555
O22 C43 1_555 1_555
O23 C44 1_555 1_555
O24 C47 1_555 1_555
O25 C44 1_555 1_555
O26 C43 1_555 1_555
C43 C48 1_555 1_555
O30 C47 1_555 1_555
C44 C50 1_555 1_555
C47 C52 1_555 1_555
O33 C65 1_555 1_555
C48 C54 1_555 1_555
C50 C55 1_555 1_555
C52 C54 1_555 1_555
O34 Cu5 1_555 1_555
H31 O34 1_555 1_555
N9 C38 1_555 1_555
H32 N9 1_555 1_555
C54 H33 1_555 1_555
C55 H34 1_555 1_555
C56 C52 1_555 1_555
H35 C56 1_555 1_555
N10 H37 1_555 1_555
H39 C59 1_555 1_555
N11 H40 1_555 1_555
C60 C55 1_555 1_555
O36 Cu6 1_555 1_555
H41 O36 1_555 1_555
C62 C48 1_555 1_555
H42 C62 1_555 1_555
C64 N9 1_555 1_555
C65 N10 1_555 1_555
C66 C56 1_555 1_555
N12 C36 1_555 1_555
H44 N12 1_555 1_555
O37 Cu5 1_555 1_555
Cu7 O30 1_555 1_555
Cu10 O24 1_555 1_555
Cu15 O23 1_555 1_555
Cu19 O25 1_555 1_555
O39 Cu5 1_555 1_555
O42 Cu6 1_555 1_555
O44 Cu6 1_555 1_555
O45 Cu6 1_555 1_555
O50 Cu5 1_555 1_555
C50 C59 1_555 1_555
N10 C66 1_555 1_555
N11 C60 1_555 1_555
N11 C64 1_555 1_555
C62 C66 1_555 1_555
C65 N12 1_555 1_555
O34 H45 1_555 1_555
O36 H46 1_555 1_555
O14_3 Cu10 1_555 1_555
O19_3 Cu7 1_555 1_555
H23_2 O14_3 1_555 1_555
H24_2 O19_3 1_555 1_555
C34_2 C35_2 1_555 1_555
C35_2 H25_2 1_555 1_555
C39_2 C34_2 1_555 1_555
H27_2 C39_2 1_555 1_555
N7_2 H28_2 1_555 1_555
C40_2 C46_2 1_555 1_555
C41_2 C49_2 1_555 1_555
C42_2 N7_2 1_555 1_555
O21_2 C42_2 1_555 1_555
N8_2 C34_2 1_555 1_555
H29_2 N8_2 1_555 1_555
O27_2 C46_2 1_555 1_555
O46 C49_2 1_555 1_555
O31_2 C46_2 1_555 1_555
O51 C49_2 1_555 1_555
C45_2 O37 1_555 1_555
C51_2 C45_2 1_555 1_555
C53_2 C41_2 1_555 1_555
H30_2 C53_2 1_555 1_555
C57_2 C41_2 1_555 1_555
H36_2 C57_2 1_555 1_555
C58_2 C51_2 1_555 1_555
H38_2 C58_2 1_555 1_555
C61_2 N7_2 1_555 1_555
C63_2 C40_2 1_555 1_555
H43_2 C63_2 1_555 1_555
O46_2 Cu7 1_555 1_555
O51_2 Cu10 1_555 1_555
C42_2 N8_2 1_555 1_555
O27_2 Cu19 1_555 1_555
O45 C45_2 1_555 1_555
O31_2 Cu15 1_555 1_555
C51_2 C57_2 1_555 1_555
C53_2 C61_2 1_555 1_555
C58_2 C61_2 1_555 1_555
O14_4 Cu10_2 1_555 1_555
H6_2 O14_4 1_555 1_555
O19_4 Cu7_2 1_555 1_555
H22_2 O19_4 1_555 1_555
O40_2 Cu10_2 1_555 1_555
O47_2 Cu7_2 1_555 1_555
O48_2 Cu7_2 1_555 1_555
O52_2 Cu10_2 1_555 1_555
C37_2 C36_2 1_555 1_555
H26_2 C37_2 1_555 1_555
C38_2 C37_2 1_555 1_555
Cu5_2 O22_2 1_555 1_555
Cu6_2 O26_2 1_555 1_555
O22_2 C43_2 1_555 1_555
O23_2 C44_2 1_555 1_555
O24_2 C47_2 1_555 1_555
O25_2 C44_2 1_555 1_555
O26_2 C43_2 1_555 1_555
C43_2 C48_2 1_555 1_555
O30_2 C47_2 1_555 1_555
C44_2 C50_2 1_555 1_555
C47_2 C52_2 1_555 1_555
O33_2 C65_2 1_555 1_555
C48_2 C54_2 1_555 1_555
C50_2 C55_2 1_555 1_555
C52_2 C54_2 1_555 1_555
O34_2 Cu5_2 1_555 1_555
H31_2 O34_2 1_555 1_555
N9_2 C38_2 1_555 1_555
H32_2 N9_2 1_555 1_555
C54_2 H33_2 1_555 1_555
C55_2 H34_2 1_555 1_555
C56_2 C52_2 1_555 1_555
H35_2 C56_2 1_555 1_555
N10_2 H37_2 1_555 1_555
H39_2 C59_2 1_555 1_555
N11_2 H40_2 1_555 1_555
C60_2 C55_2 1_555 1_555
O36_2 Cu6_2 1_555 1_555
H41_2 O36_2 1_555 1_555
C62_2 C48_2 1_555 1_555
H42_2 C62_2 1_555 1_555
C64_2 N9_2 1_555 1_555
C65_2 N10_2 1_555 1_555
C66_2 C56_2 1_555 1_555
N12_2 C36_2 1_555 1_555
H44_2 N12_2 1_555 1_555
O37_2 Cu5_2 1_555 1_555
Cu8 O30_2 1_555 1_555
Cu11 O24_2 1_555 1_555
Cu15_2 O23_2 1_555 1_555
Cu19_2 O25_2 1_555 1_555
O39_2 Cu5_2 1_555 1_555
O42_2 Cu6_2 1_555 1_555
O44_2 Cu6_2 1_555 1_555
O45_2 Cu6_2 1_555 1_555
O50_2 Cu5_2 1_555 1_555
C50_2 C59_2 1_555 1_555
N10_2 C66_2 1_555 1_555
N11_2 C60_2 1_555 1_555
N11_2 C64_2 1_555 1_555
C62_2 C66_2 1_555 1_555
C65_2 N12_2 1_555 1_555
O34_2 H45_2 1_555 1_555
O36_2 H46_2 1_555 1_555
C37_3 C36_3 1_555 1_555
H26_3 C37_3 1_555 1_555
C38_3 C37_3 1_555 1_555
Cu13 O22_3 1_555 1_555
Cu17 O26_3 1_555 1_555
O22_3 C43_3 1_555 1_555
O23_3 C44_3 1_555 1_555
O24_3 C47_3 1_555 1_555
O25_3 C44_3 1_555 1_555
O26_3 C43_3 1_555 1_555
C43_3 C48_3 1_555 1_555
O30_3 C47_3 1_555 1_555
C44_3 C50_3 1_555 1_555
C47_3 C52_3 1_555 1_555
O33_3 C65_3 1_555 1_555
C48_3 C54_3 1_555 1_555
C50_3 C55_3 1_555 1_555
C52_3 C54_3 1_555 1_555
O34_3 Cu13 1_555 1_555
H31_3 O34_3 1_555 1_555
N9_3 C38_3 1_555 1_555
H32_3 N9_3 1_555 1_555
C54_3 H33_3 1_555 1_555
C55_3 H34_3 1_555 1_555
C56_3 C52_3 1_555 1_555
H35_3 C56_3 1_555 1_555
N10_3 H37_3 1_555 1_555
H39_3 C59_3 1_555 1_555
N11_3 H40_3 1_555 1_555
C60_3 C55_3 1_555 1_555
O36_3 Cu17 1_555 1_555
H41_3 O36_3 1_555 1_555
C62_3 C48_3 1_555 1_555
H42_3 C62_3 1_555 1_555
C64_3 N9_3 1_555 1_555
C65_3 N10_3 1_555 1_555
C66_3 C56_3 1_555 1_555
N12_3 C36_3 1_555 1_555
H44_3 N12_3 1_555 1_555
Cu9 O30_3 1_555 1_555
Cu12 O24_3 1_555 1_555
Cu16 O23_3 1_555 1_555
Cu20 O25_3 1_555 1_555
O39_3 Cu13 1_555 1_555
O42_3 Cu17 1_555 1_555
O44_3 Cu17 1_555 1_555
O50_3 Cu13 1_555 1_555
C50_3 C59_3 1_555 1_555
N10_3 C66_3 1_555 1_555
N11_3 C60_3 1_555 1_555
N11_3 C64_3 1_555 1_555
C62_3 C66_3 1_555 1_555
C65_3 N12_3 1_555 1_555
O34_3 H45_3 1_555 1_555
O36_3 H46_3 1_555 1_555
O14_5 Cu11 1_555 1_555
O19_5 Cu8 1_555 1_555
H23_3 O14_5 1_555 1_555
H24_3 O19_5 1_555 1_555
C34_3 C35_3 1_555 1_555
C35_3 H25_3 1_555 1_555
C39_3 C34_3 1_555 1_555
H27_3 C39_3 1_555 1_555
N7_3 H28_3 1_555 1_555
C40_3 C46_3 1_555 1_555
C41_3 C49_3 1_555 1_555
C42_3 N7_3 1_555 1_555
O21_3 C42_3 1_555 1_555
N8_3 C34_3 1_555 1_555
H29_3 N8_3 1_555 1_555
O27_3 C46_3 1_555 1_555
O46_2 C49_3 1_555 1_555
O31_3 C46_3 1_555 1_555
O51_2 C49_3 1_555 1_555
C45_3 O37_2 1_555 1_555
C51_3 C45_3 1_555 1_555
C53_3 C41_3 1_555 1_555
H30_3 C53_3 1_555 1_555
C57_3 C41_3 1_555 1_555
H36_3 C57_3 1_555 1_555
C58_3 C51_3 1_555 1_555
H38_3 C58_3 1_555 1_555
C61_3 N7_3 1_555 1_555
C63_3 C40_3 1_555 1_555
H43_3 C63_3 1_555 1_555
C42_3 N8_3 1_555 1_555
O27_3 Cu19_2 1_555 1_555
O45_2 C45_3 1_555 1_555
O31_3 Cu15_2 1_555 1_555
C51_3 C57_3 1_555 1_555
C53_3 C61_3 1_555 1_555
C58_3 C61_3 1_555 1_555
O14_6 Cu11_2 1_555 1_555
H6_3 O14_6 1_555 1_555
O19_6 Cu8_2 1_555 1_555
H22_3 O19_6 1_555 1_555
O40_3 Cu11_2 1_555 1_555
O47_3 Cu8_2 1_555 1_555
O48_3 Cu8_2 1_555 1_555
O52_3 Cu11_2 1_555 1_555
O14_7 Cu12 1_555 1_555
O19_7 Cu9 1_555 1_555
H23_4 O14_7 1_555 1_555
H24_4 O19_7 1_555 1_555
O14_8 Cu12_2 1_555 1_555
H6_4 O14_8 1_555 1_555
O19_8 Cu9_2 1_555 1_555
H22_4 O19_8 1_555 1_555
O40_4 Cu12_2 1_555 1_555
O47_4 Cu9_2 1_555 1_555
O48_4 Cu9_2 1_555 1_555
O52_4 Cu12_2 1_555 1_555
Cu1_3 O11_2 1_555 1_555
Cu2_3 O5_2 1_555 1_555
O14_9 Cu2_3 1_555 1_555
H6_5 O14_9 1_555 1_555
O19_9 Cu1_3 1_555 1_555
H22_5 O19_9 1_555 1_555
H23_5 O14_9 1_555 1_555
H24_5 O19_9 1_555 1_555
O40_5 Cu2_3 1_555 1_555
O46_3 Cu1_3 1_555 1_555
O47_5 Cu1_3 1_555 1_555
O48_5 Cu1_3 1_555 1_555
O51_3 Cu2_3 1_555 1_555
O52_5 Cu2_3 1_555 1_555
Cu7_3 O30_4 1_555 1_555
Cu10_3 O24_4 1_555 1_555
C1_2 C2_2 1_555 1_555
C2_2 H1_2 1_555 1_555
C3_2 C2_2 1_555 1_555
C4_2 C3_2 1_555 1_555
H2_2 C4_2 1_555 1_555
C5_2 C4_2 1_555 1_555
C6_2 C1_2 1_555 1_555
H3_2 C6_2 1_555 1_555
O1_2 C12_2 1_555 1_555
N1_2 H4_2 1_555 1_555
C7_2 C13_2 1_555 1_555
C8_2 C16_2 1_555 1_555
C9_2 N1_2 1_555 1_555
O2_2 C9_2 1_555 1_555
N2_2 C1_2 1_555 1_555
H5_2 N2_2 1_555 1_555
Cu3_2 O3_2 1_555 1_555
Cu4_2 O7_2 1_555 1_555
O3_2 C10_2 1_555 1_555
O4_2 C11_2 1_555 1_555
O6_2 C11_2 1_555 1_555
O7_2 C10_2 1_555 1_555
C10_2 C15_2 1_555 1_555
O8_2 C13_2 1_555 1_555
O9_2 C12_2 1_555 1_555
O10_2 C16_2 1_555 1_555
C11_2 C17_2 1_555 1_555
O12_2 C13_2 1_555 1_555
O13_2 C16_2 1_555 1_555
C12_2 C18_2 1_555 1_555
C14_2 C19_2 1_555 1_555
O15_2 C32_2 1_555 1_555
C15_2 C21_2 1_555 1_555
C17_2 C22_2 1_555 1_555
C18_2 C24_2 1_555 1_555
C19_2 C21_2 1_555 1_555
C20_2 C8_2 1_555 1_555
H7_2 C20_2 1_555 1_555
O16_2 Cu3_2 1_555 1_555
H8_2 O16_2 1_555 1_555
N3_2 C5_2 1_555 1_555
H9_2 N3_2 1_555 1_555
C21_2 H10_2 1_555 1_555
C22_2 H11_2 1_555 1_555
O17_2 C31_2 1_555 1_555
C23_2 C19_2 1_555 1_555
H12_2 C23_2 1_555 1_555
C24_2 C8_2 1_555 1_555
H13_2 C24_2 1_555 1_555
N4_2 H14_2 1_555 1_555
C25_2 C18_2 1_555 1_555
H15_2 C25_2 1_555 1_555
C26_2 C7_2 1_555 1_555
H16_2 C26_2 1_555 1_555
N5_2 H17_2 1_555 1_555
C27_2 C22_2 1_555 1_555
O18_2 Cu4_2 1_555 1_555
H18_2 O18_2 1_555 1_555
C28_2 N1_2 1_555 1_555
C29_2 C15_2 1_555 1_555
H19_2 C29_2 1_555 1_555
C30_2 C7_2 1_555 1_555
H20_2 C30_2 1_555 1_555
C31_2 N3_2 1_555 1_555
C32_2 N4_2 1_555 1_555
C33_2 C23_2 1_555 1_555
N6_2 C3_2 1_555 1_555
H21_2 N6_2 1_555 1_555
C34_4 C35_4 1_555 1_555
C35_4 H25_4 1_555 1_555
C36_4 C35_4 1_555 1_555
C37_4 C36_4 1_555 1_555
H26_4 C37_4 1_555 1_555
C38_4 C37_4 1_555 1_555
C39_4 C34_4 1_555 1_555
H27_4 C39_4 1_555 1_555
O20_2 Cu3_2 1_555 1_555
N7_4 H28_4 1_555 1_555
C40_4 C46_4 1_555 1_555
C41_4 C49_4 1_555 1_555
C42_4 N7_4 1_555 1_555
O21_4 C42_4 1_555 1_555
N8_4 C34_4 1_555 1_555
H29_4 N8_4 1_555 1_555
Cu5_3 O22_4 1_555 1_555
Cu6_3 O26_4 1_555 1_555
O22_4 C43_4 1_555 1_555
O23_4 C44_4 1_555 1_555
O25_4 C44_4 1_555 1_555
O26_4 C43_4 1_555 1_555
C43_4 C48_4 1_555 1_555
O27_4 C46_4 1_555 1_555
O28_2 Cu4_2 1_555 1_555
O29_2 C49_4 1_555 1_555
C44_4 C50_4 1_555 1_555
O31_4 C46_4 1_555 1_555
O32_2 C49_4 1_555 1_555
C45_4 O20_2 1_555 1_555
C47_4 C52_4 1_555 1_555
O33_4 C65_4 1_555 1_555
C48_4 C54_4 1_555 1_555
C50_4 C55_4 1_555 1_555
C51_4 C45_4 1_555 1_555
C52_4 C54_4 1_555 1_555
C53_4 C41_4 1_555 1_555
H30_4 C53_4 1_555 1_555
O34_4 Cu5_3 1_555 1_555
H31_4 O34_4 1_555 1_555
N9_4 C38_4 1_555 1_555
H32_4 N9_4 1_555 1_555
C54_4 H33_4 1_555 1_555
C55_4 H34_4 1_555 1_555
O35_4 C64_4 1_555 1_555
C56_4 C52_4 1_555 1_555
H35_4 C56_4 1_555 1_555
C57_4 C41_4 1_555 1_555
H36_4 C57_4 1_555 1_555
N10_4 H37_4 1_555 1_555
C58_4 C51_4 1_555 1_555
H38_4 C58_4 1_555 1_555
C59_4 C40_4 1_555 1_555
H39_4 C59_4 1_555 1_555
N11_4 H40_4 1_555 1_555
C60_4 C55_4 1_555 1_555
O36_4 Cu6_3 1_555 1_555
H41_4 O36_4 1_555 1_555
C61_4 N7_4 1_555 1_555
C62_4 C48_4 1_555 1_555
H42_4 C62_4 1_555 1_555
C63_4 C40_4 1_555 1_555
H43_4 C63_4 1_555 1_555
C64_4 N9_4 1_555 1_555
C65_4 N10_4 1_555 1_555
C66_4 C56_4 1_555 1_555
N12_4 C36_4 1_555 1_555
H44_4 N12_4 1_555 1_555
O37_3 Cu5_3 1_555 1_555
Cu8_3 O10_2 1_555 1_555
Cu9_3 O29_2 1_555 1_555
Cu11_3 O13_2 1_555 1_555
Cu12_3 O32_2 1_555 1_555
Cu13_2 O1_2 1_555 1_555
Cu14_2 O4_2 1_555 1_555
Cu15_3 O23_4 1_555 1_555
Cu16_2 O12_2 1_555 1_555
Cu17_2 O9_2 1_555 1_555
Cu18_2 O6_2 1_555 1_555
Cu19_3 O25_4 1_555 1_555
Cu20_2 O8_2 1_555 1_555
O38_2 Cu3_2 1_555 1_555
O39_4 Cu5_3 1_555 1_555
O41_2 Cu4_2 1_555 1_555
O42_4 Cu6_3 1_555 1_555
O43_2 Cu4_2 1_555 1_555
O44_4 Cu6_3 1_555 1_555
O45_3 Cu6_3 1_555 1_555
O49_2 Cu3_2 1_555 1_555
O50_4 Cu5_3 1_555 1_555
C5_2 C6_2 1_555 1_555
C9_2 N2_2 1_555 1_555
C17_2 C26_2 1_555 1_555
C20_2 C28_2 1_555 1_555
N4_2 C33_2 1_555 1_555
C25_2 C28_2 1_555 1_555
N5_2 C27_2 1_555 1_555
N5_2 C31_2 1_555 1_555
C27_2 C30_2 1_555 1_555
C29_2 C33_2 1_555 1_555
C32_2 N6_2 1_555 1_555
C38_4 C39_4 1_555 1_555
C42_4 N8_4 1_555 1_555
O27_4 Cu18_2 1_555 1_555
O28_2 C45_4 1_555 1_555
O31_4 Cu14_2 1_555 1_555
C50_4 C59_4 1_555 1_555
C51_4 C57_4 1_555 1_555
C53_4 C61_4 1_555 1_555
N10_4 C66_4 1_555 1_555
C58_4 C61_4 1_555 1_555
N11_4 C60_4 1_555 1_555
N11_4 C64_4 1_555 1_555
C60_4 C63_4 1_555 1_555
C62_4 C66_4 1_555 1_555
C65_4 N12_4 1_555 1_555
O34_4 H45_4 1_555 1_555
O36_4 H46_4 1_555 1_555
O16_2 H47_2 1_555 1_555
O18_2 H48_2 1_555 1_555
O14_10 Cu10_3 1_555 1_555
H6_6 O14_10 1_555 1_555
O19_10 Cu7_3 1_555 1_555
H22_6 O19_10 1_555 1_555
H23_6 O14_10 1_555 1_555
H24_6 O19_10 1_555 1_555
O40_6 Cu10_3 1_555 1_555
O46_4 Cu7_3 1_555 1_555
O47_6 Cu7_3 1_555 1_555
O48_6 Cu7_3 1_555 1_555
O51_4 Cu10_3 1_555 1_555
O52_6 Cu10_3 1_555 1_555
C34_5 C35_5 1_555 1_555
C35_5 H25_5 1_555 1_555
C36_5 C35_5 1_555 1_555
C37_5 C36_5 1_555 1_555
H26_5 C37_5 1_555 1_555
C38_5 C37_5 1_555 1_555
C39_5 C34_5 1_555 1_555
H27_5 C39_5 1_555 1_555
N7_5 H28_5 1_555 1_555
C40_5 C46_5 1_555 1_555
C41_5 C49_5 1_555 1_555
C42_5 N7_5 1_555 1_555
O21_5 C42_5 1_555 1_555
N8_5 C34_5 1_555 1_555
H29_5 N8_5 1_555 1_555
Cu5_4 O22_5 1_555 1_555
Cu6_4 O26_5 1_555 1_555
O22_5 C43_5 1_555 1_555
O23_5 C44_5 1_555 1_555
O25_5 C44_5 1_555 1_555
O26_5 C43_5 1_555 1_555
C43_5 C48_5 1_555 1_555
O27_5 C46_5 1_555 1_555
O46_3 C49_5 1_555 1_555
C44_5 C50_5 1_555 1_555
O31_5 C46_5 1_555 1_555
O51_3 C49_5 1_555 1_555
C45_5 O37_3 1_555 1_555
C47_5 C52_5 1_555 1_555
O33_5 C65_5 1_555 1_555
C48_5 C54_5 1_555 1_555
C50_5 C55_5 1_555 1_555
C51_5 C45_5 1_555 1_555
C52_5 C54_5 1_555 1_555
C53_5 C41_5 1_555 1_555
H30_5 C53_5 1_555 1_555
O34_5 Cu5_4 1_555 1_555
H31_5 O34_5 1_555 1_555
N9_5 C38_5 1_555 1_555
H32_5 N9_5 1_555 1_555
C54_5 H33_5 1_555 1_555
C55_5 H34_5 1_555 1_555
O35_5 C64_5 1_555 1_555
C56_5 C52_5 1_555 1_555
H35_5 C56_5 1_555 1_555
C57_5 C41_5 1_555 1_555
H36_5 C57_5 1_555 1_555
N10_5 H37_5 1_555 1_555
C58_5 C51_5 1_555 1_555
H38_5 C58_5 1_555 1_555
C59_5 C40_5 1_555 1_555
H39_5 C59_5 1_555 1_555
N11_5 H40_5 1_555 1_555
C60_5 C55_5 1_555 1_555
O36_5 Cu6_4 1_555 1_555
H41_5 O36_5 1_555 1_555
C61_5 N7_5 1_555 1_555
C62_5 C48_5 1_555 1_555
H42_5 C62_5 1_555 1_555
C63_5 C40_5 1_555 1_555
H43_5 C63_5 1_555 1_555
C64_5 N9_5 1_555 1_555
C65_5 N10_5 1_555 1_555
C66_5 C56_5 1_555 1_555
N12_5 C36_5 1_555 1_555
H44_5 N12_5 1_555 1_555
O37_4 Cu5_4 1_555 1_555
Cu15_4 O23_5 1_555 1_555
Cu19_4 O25_5 1_555 1_555
O39_5 Cu5_4 1_555 1_555
O42_5 Cu6_4 1_555 1_555
O44_5 Cu6_4 1_555 1_555
O45_4 Cu6_4 1_555 1_555
O50_5 Cu5_4 1_555 1_555
C38_5 C39_5 1_555 1_555
C42_5 N8_5 1_555 1_555
O27_5 Cu19_3 1_555 1_555
O45_3 C45_5 1_555 1_555
O31_5 Cu15_3 1_555 1_555
C50_5 C59_5 1_555 1_555
C51_5 C57_5 1_555 1_555
C53_5 C61_5 1_555 1_555
N10_5 C66_5 1_555 1_555
C58_5 C61_5 1_555 1_555
N11_5 C60_5 1_555 1_555
N11_5 C64_5 1_555 1_555
C60_5 C63_5 1_555 1_555
C62_5 C66_5 1_555 1_555
C65_5 N12_5 1_555 1_555
O34_5 H45_5 1_555 1_555
O36_5 H46_5 1_555 1_555
Cu8_3 O30_5 1_555 1_555
Cu11_3 O24_5 1_555 1_555
C34_6 C35_6 1_555 1_555
C35_6 H25_6 1_555 1_555
C36_6 C35_6 1_555 1_555
C37_6 C36_6 1_555 1_555
H26_6 C37_6 1_555 1_555
C38_6 C37_6 1_555 1_555
C39_6 C34_6 1_555 1_555
H27_6 C39_6 1_555 1_555
N7_6 H28_6 1_555 1_555
C40_6 C46_6 1_555 1_555
C41_6 C49_6 1_555 1_555
C42_6 N7_6 1_555 1_555
O21_6 C42_6 1_555 1_555
N8_6 C34_6 1_555 1_555
H29_6 N8_6 1_555 1_555
Cu13_2 O22_6 1_555 1_555
Cu17_2 O26_6 1_555 1_555
O22_6 C43_6 1_555 1_555
O23_6 C44_6 1_555 1_555
O25_6 C44_6 1_555 1_555
O26_6 C43_6 1_555 1_555
C43_6 C48_6 1_555 1_555
O27_6 C46_6 1_555 1_555
O46_4 C49_6 1_555 1_555
C44_6 C50_6 1_555 1_555
O31_6 C46_6 1_555 1_555
O51_4 C49_6 1_555 1_555
C45_6 O37_4 1_555 1_555
C47_6 C52_6 1_555 1_555
O33_6 C65_6 1_555 1_555
C48_6 C54_6 1_555 1_555
C50_6 C55_6 1_555 1_555
C51_6 C45_6 1_555 1_555
C52_6 C54_6 1_555 1_555
C53_6 C41_6 1_555 1_555
H30_6 C53_6 1_555 1_555
O34_6 Cu13_2 1_555 1_555
H31_6 O34_6 1_555 1_555
N9_6 C38_6 1_555 1_555
H32_6 N9_6 1_555 1_555
C54_6 H33_6 1_555 1_555
C55_6 H34_6 1_555 1_555
O35_6 C64_6 1_555 1_555
C56_6 C52_6 1_555 1_555
H35_6 C56_6 1_555 1_555
C57_6 C41_6 1_555 1_555
H36_6 C57_6 1_555 1_555
N10_6 H37_6 1_555 1_555
C58_6 C51_6 1_555 1_555
H38_6 C58_6 1_555 1_555
C59_6 C40_6 1_555 1_555
H39_6 C59_6 1_555 1_555
N11_6 H40_6 1_555 1_555
C60_6 C55_6 1_555 1_555
O36_6 Cu17_2 1_555 1_555
H41_6 O36_6 1_555 1_555
C61_6 N7_6 1_555 1_555
C62_6 C48_6 1_555 1_555
H42_6 C62_6 1_555 1_555
C63_6 C40_6 1_555 1_555
H43_6 C63_6 1_555 1_555
C64_6 N9_6 1_555 1_555
C65_6 N10_6 1_555 1_555
C66_6 C56_6 1_555 1_555
N12_6 C36_6 1_555 1_555
H44_6 N12_6 1_555 1_555
Cu16_2 O23_6 1_555 1_555
Cu20_2 O25_6 1_555 1_555
O39_6 Cu13_2 1_555 1_555
O42_6 Cu17_2 1_555 1_555
O44_6 Cu17_2 1_555 1_555
O50_6 Cu13_2 1_555 1_555
C38_6 C39_6 1_555 1_555
C42_6 N8_6 1_555 1_555
O27_6 Cu19_4 1_555 1_555
O45_4 C45_6 1_555 1_555
O31_6 Cu15_4 1_555 1_555
C50_6 C59_6 1_555 1_555
C51_6 C57_6 1_555 1_555
C53_6 C61_6 1_555 1_555
N10_6 C66_6 1_555 1_555
C58_6 C61_6 1_555 1_555
N11_6 C60_6 1_555 1_555
N11_6 C64_6 1_555 1_555
C60_6 C63_6 1_555 1_555
C62_6 C66_6 1_555 1_555
C65_6 N12_6 1_555 1_555
O34_6 H45_6 1_555 1_555
O36_6 H46_6 1_555 1_555
Cu9_3 O30_6 1_555 1_555
Cu12_3 O24_6 1_555 1_555
O14_11 Cu11_3 1_555 1_555
H6_7 O14_11 1_555 1_555
O19_11 Cu8_3 1_555 1_555
H22_7 O19_11 1_555 1_555
H23_7 O14_11 1_555 1_555
H24_7 O19_11 1_555 1_555
O40_7 Cu11_3 1_555 1_555
O47_7 Cu8_3 1_555 1_555
O48_7 Cu8_3 1_555 1_555
O52_7 Cu11_3 1_555 1_555
O14_12 Cu12_3 1_555 1_555
H6_8 O14_12 1_555 1_555
O19_12 Cu9_3 1_555 1_555
H22_8 O19_12 1_555 1_555
H23_8 O14_12 1_555 1_555
H24_8 O19_12 1_555 1_555
O40_8 Cu12_3 1_555 1_555
O47_8 Cu9_3 1_555 1_555
O48_8 Cu9_3 1_555 1_555
O52_8 Cu12_3 1_555 1_555
C37_7 C36_7 1_555 1_555
H26_7 C37_7 1_555 1_555
C38_7 C37_7 1_555 1_555
Cu15_3 O22_7 1_555 1_555
Cu19_3 O26_7 1_555 1_555
O22_7 C43_7 1_555 1_555
O39_4 C44_7 1_555 1_555
O40_4 C47_7 1_555 1_555
O42_4 C44_7 1_555 1_555
O26_7 C43_7 1_555 1_555
C43_7 C48_7 1_555 1_555
O48_4 C47_7 1_555 1_555
C44_7 C50_7 1_555 1_555
C47_7 C52_7 1_555 1_555
O33_7 C65_7 1_555 1_555
C48_7 C54_7 1_555 1_555
C50_7 C55_7 1_555 1_555
C52_7 C54_7 1_555 1_555
O34_7 Cu15_3 1_555 1_555
H31_7 O34_7 1_555 1_555
N9_7 C38_7 1_555 1_555
H32_7 N9_7 1_555 1_555
C54_7 H33_7 1_555 1_555
C55_7 H34_7 1_555 1_555
C56_7 C52_7 1_555 1_555
H35_7 C56_7 1_555 1_555
N10_7 H37_7 1_555 1_555
H39_7 C59_7 1_555 1_555
N11_7 H40_7 1_555 1_555
C60_7 C55_7 1_555 1_555
O36_7 Cu19_3 1_555 1_555
H41_7 O36_7 1_555 1_555
C62_7 C48_7 1_555 1_555
H42_7 C62_7 1_555 1_555
C64_7 N9_7 1_555 1_555
C65_7 N10_7 1_555 1_555
C66_7 C56_7 1_555 1_555
N12_7 C36_7 1_555 1_555
H44_7 N12_7 1_555 1_555
O37_5 Cu15_3 1_555 1_555
O45_5 Cu19_3 1_555 1_555
C50_7 C59_7 1_555 1_555
N10_7 C66_7 1_555 1_555
N11_7 C60_7 1_555 1_555
N11_7 C64_7 1_555 1_555
C62_7 C66_7 1_555 1_555
C65_7 N12_7 1_555 1_555
O34_7 H45_7 1_555 1_555
O36_7 H46_7 1_555 1_555
C1_3 C2_3 1_555 1_555
C2_3 H1_3 1_555 1_555
C6_3 C1_3 1_555 1_555
H3_3 C6_3 1_555 1_555
O1_3 C12_3 1_555 1_555
N1_3 H4_3 1_555 1_555
C7_3 C13_3 1_555 1_555
C8_3 C16_3 1_555 1_555
C9_3 N1_3 1_555 1_555
O2_3 C9_3 1_555 1_555
N2_3 C1_3 1_555 1_555
H5_3 N2_3 1_555 1_555
O44_6 C13_3 1_555 1_555
O9_3 C12_3 1_555 1_555
O47 C16_3 1_555 1_555
O50_6 C13_3 1_555 1_555
O52 C16_3 1_555 1_555
C12_3 C18_3 1_555 1_555
C18_3 C24_3 1_555 1_555
C20_3 C8_3 1_555 1_555
H7_3 C20_3 1_555 1_555
C24_3 C8_3 1_555 1_555
H13_3 C24_3 1_555 1_555
C25_3 C18_3 1_555 1_555
H15_3 C25_3 1_555 1_555
C28_3 N1_3 1_555 1_555
C30_3 C7_3 1_555 1_555
H20_3 C30_3 1_555 1_555
Cu16_2 O1_3 1_555 1_555
Cu20_2 O9_3 1_555 1_555
C9_3 N2_3 1_555 1_555
C20_3 C28_3 1_555 1_555
C25_3 C28_3 1_555 1_555
C4_3 C3_3 1_555 1_555
H2_3 C4_3 1_555 1_555
C5_3 C4_3 1_555 1_555
Cu14_2 O3_3 1_555 1_555
Cu18_2 O7_3 1_555 1_555
O3_3 C10_3 1_555 1_555
O38_2 C11_3 1_555 1_555
O40_3 C14_3 1_555 1_555
O41_2 C11_3 1_555 1_555
O7_3 C10_3 1_555 1_555
C10_3 C15_3 1_555 1_555
O48_3 C14_3 1_555 1_555
C11_3 C17_3 1_555 1_555
C14_3 C19_3 1_555 1_555
O15_3 C32_3 1_555 1_555
C15_3 C21_3 1_555 1_555
C17_3 C22_3 1_555 1_555
C19_3 C21_3 1_555 1_555
O16_3 Cu14_2 1_555 1_555
H8_3 O16_3 1_555 1_555
N3_3 C5_3 1_555 1_555
H9_3 N3_3 1_555 1_555
C21_3 H10_3 1_555 1_555
C22_3 H11_3 1_555 1_555
C23_3 C19_3 1_555 1_555
H12_3 C23_3 1_555 1_555
N4_3 H14_3 1_555 1_555
H16_3 C26_3 1_555 1_555
N5_3 H17_3 1_555 1_555
C27_3 C22_3 1_555 1_555
O18_3 Cu18_2 1_555 1_555
H18_3 O18_3 1_555 1_555
C29_3 C15_3 1_555 1_555
H19_3 C29_3 1_555 1_555
C31_3 N3_3 1_555 1_555
C32_3 N4_3 1_555 1_555
C33_3 C23_3 1_555 1_555
N6_3 C3_3 1_555 1_555
H21_3 N6_3 1_555 1_555
C34_7 C35_7 1_555 1_555
C35_7 H25_7 1_555 1_555
C39_7 C34_7 1_555 1_555
H27_7 C39_7 1_555 1_555
O20_3 Cu14_2 1_555 1_555
N7_7 H28_7 1_555 1_555
C40_7 C46_7 1_555 1_555
C41_7 C49_7 1_555 1_555
C42_7 N7_7 1_555 1_555
O21_7 C42_7 1_555 1_555
N8_7 C34_7 1_555 1_555
H29_7 N8_7 1_555 1_555
O43_2 C46_7 1_555 1_555
O28_3 Cu18_2 1_555 1_555
O47_2 C49_7 1_555 1_555
O49_2 C46_7 1_555 1_555
O52_2 C49_7 1_555 1_555
C45_7 O20_3 1_555 1_555
C51_7 C45_7 1_555 1_555
C53_7 C41_7 1_555 1_555
H30_7 C53_7 1_555 1_555
C57_7 C41_7 1_555 1_555
H36_7 C57_7 1_555 1_555
C58_7 C51_7 1_555 1_555
H38_7 C58_7 1_555 1_555
C61_7 N7_7 1_555 1_555
C63_7 C40_7 1_555 1_555
H43_7 C63_7 1_555 1_555
C17_3 C26_3 1_555 1_555
N4_3 C33_3 1_555 1_555
N5_3 C27_3 1_555 1_555
N5_3 C31_3 1_555 1_555
C29_3 C33_3 1_555 1_555
C32_3 N6_3 1_555 1_555
C42_7 N8_7 1_555 1_555
O28_3 C45_7 1_555 1_555
C51_7 C57_7 1_555 1_555
C53_7 C61_7 1_555 1_555
C58_7 C61_7 1_555 1_555
O16_3 H47_3 1_555 1_555
O18_3 H48_3 1_555 1_555
C37_8 C36_8 1_555 1_555
H26_8 C37_8 1_555 1_555
C38_8 C37_8 1_555 1_555
Cu15_4 O22_8 1_555 1_555
Cu19_4 O26_8 1_555 1_555
O22_8 C43_8 1_555 1_555
O39_5 C44_8 1_555 1_555
O40 C47_8 1_555 1_555
O42_5 C44_8 1_555 1_555
O26_8 C43_8 1_555 1_555
C43_8 C48_8 1_555 1_555
O48 C47_8 1_555 1_555
C44_8 C50_8 1_555 1_555
C47_8 C52_8 1_555 1_555
O33_8 C65_8 1_555 1_555
C48_8 C54_8 1_555 1_555
C50_8 C55_8 1_555 1_555
C52_8 C54_8 1_555 1_555
O34_8 Cu15_4 1_555 1_555
H31_8 O34_8 1_555 1_555
N9_8 C38_8 1_555 1_555
H32_8 N9_8 1_555 1_555
C54_8 H33_8 1_555 1_555
C55_8 H34_8 1_555 1_555
C56_8 C52_8 1_555 1_555
H35_8 C56_8 1_555 1_555
N10_8 H37_8 1_555 1_555
H39_8 C59_8 1_555 1_555
N11_8 H40_8 1_555 1_555
C60_8 C55_8 1_555 1_555
O36_8 Cu19_4 1_555 1_555
H41_8 O36_8 1_555 1_555
C62_8 C48_8 1_555 1_555
H42_8 C62_8 1_555 1_555
C64_8 N9_8 1_555 1_555
C65_8 N10_8 1_555 1_555
C66_8 C56_8 1_555 1_555
N12_8 C36_8 1_555 1_555
H44_8 N12_8 1_555 1_555
O37_6 Cu15_4 1_555 1_555
O45_6 Cu19_4 1_555 1_555
C50_8 C59_8 1_555 1_555
N10_8 C66_8 1_555 1_555
N11_8 C60_8 1_555 1_555
N11_8 C64_8 1_555 1_555
C62_8 C66_8 1_555 1_555
C65_8 N12_8 1_555 1_555
O34_8 H45_8 1_555 1_555
O36_8 H46_8 1_555 1_555
C34_8 C35_8 1_555 1_555
C35_8 H25_8 1_555 1_555
C39_8 C34_8 1_555 1_555
H27_8 C39_8 1_555 1_555
N7_8 H28_8 1_555 1_555
C40_8 C46_8 1_555 1_555
C41_8 C49_8 1_555 1_555
C42_8 N7_8 1_555 1_555
O21_8 C42_8 1_555 1_555
N8_8 C34_8 1_555 1_555
H29_8 N8_8 1_555 1_555
O44_4 C46_8 1_555 1_555
O47_3 C49_8 1_555 1_555
O50_4 C46_8 1_555 1_555
O52_3 C49_8 1_555 1_555
C45_8 O37_5 1_555 1_555
C51_8 C45_8 1_555 1_555
C53_8 C41_8 1_555 1_555
H30_8 C53_8 1_555 1_555
C57_8 C41_8 1_555 1_555
H36_8 C57_8 1_555 1_555
C58_8 C51_8 1_555 1_555
H38_8 C58_8 1_555 1_555
C61_8 N7_8 1_555 1_555
C63_8 C40_8 1_555 1_555
H43_8 C63_8 1_555 1_555
C42_8 N8_8 1_555 1_555
O45_5 C45_8 1_555 1_555
C51_8 C57_8 1_555 1_555
C53_8 C61_8 1_555 1_555
C58_8 C61_8 1_555 1_555
C34_9 C35_9 1_555 1_555
C35_9 H25_9 1_555 1_555
C39_9 C34_9 1_555 1_555
H27_9 C39_9 1_555 1_555
N7_9 H28_9 1_555 1_555
C40_9 C46_9 1_555 1_555
C41_9 C49_9 1_555 1_555
C42_9 N7_9 1_555 1_555
O21_9 C42_9 1_555 1_555
N8_9 C34_9 1_555 1_555
H29_9 N8_9 1_555 1_555
O44_5 C46_9 1_555 1_555
O47_4 C49_9 1_555 1_555
O50_5 C46_9 1_555 1_555
O52_4 C49_9 1_555 1_555
C45_9 O37_6 1_555 1_555
C51_9 C45_9 1_555 1_555
C53_9 C41_9 1_555 1_555
H30_9 C53_9 1_555 1_555
C57_9 C41_9 1_555 1_555
H36_9 C57_9 1_555 1_555
C58_9 C51_9 1_555 1_555
H38_9 C58_9 1_555 1_555
C61_9 N7_9 1_555 1_555
C63_9 C40_9 1_555 1_555
H43_9 C63_9 1_555 1_555
C42_9 N8_9 1_555 1_555
O45_6 C45_9 1_555 1_555
C51_9 C57_9 1_555 1_555
C53_9 C61_9 1_555 1_555
C58_9 C61_9 1_555 1_555
C37_9 C36_9 1_555 1_555
H26_9 C37_9 1_555 1_555
C38_9 C37_9 1_555 1_555
Cu16_2 O22_9 1_555 1_555
Cu20_2 O26_9 1_555 1_555
O22_9 C43_9 1_555 1_555
O39_6 C44_9 1_555 1_555
O40_2 C47_9 1_555 1_555
O42_6 C44_9 1_555 1_555
O26_9 C43_9 1_555 1_555
C43_9 C48_9 1_555 1_555
O48_2 C47_9 1_555 1_555
C44_9 C50_9 1_555 1_555
C47_9 C52_9 1_555 1_555
O33_9 C65_9 1_555 1_555
C48_9 C54_9 1_555 1_555
C50_9 C55_9 1_555 1_555
C52_9 C54_9 1_555 1_555
O34_9 Cu16_2 1_555 1_555
H31_9 O34_9 1_555 1_555
N9_9 C38_9 1_555 1_555
H32_9 N9_9 1_555 1_555
C54_9 H33_9 1_555 1_555
C55_9 H34_9 1_555 1_555
C56_9 C52_9 1_555 1_555
H35_9 C56_9 1_555 1_555
N10_9 H37_9 1_555 1_555
H39_9 C59_9 1_555 1_555
N11_9 H40_9 1_555 1_555
C60_9 C55_9 1_555 1_555
O36_9 Cu20_2 1_555 1_555
H41_9 O36_9 1_555 1_555
C62_9 C48_9 1_555 1_555
H42_9 C62_9 1_555 1_555
C64_9 N9_9 1_555 1_555
C65_9 N10_9 1_555 1_555
C66_9 C56_9 1_555 1_555
N12_9 C36_9 1_555 1_555
H44_9 N12_9 1_555 1_555
C50_9 C59_9 1_555 1_555
N10_9 C66_9 1_555 1_555
N11_9 C60_9 1_555 1_555
N11_9 C64_9 1_555 1_555
C62_9 C66_9 1_555 1_555
C65_9 N12_9 1_555 1_555
O34_9 H45_9 1_555 1_555
O36_9 H46_9 1_555 1_555
C1_4 C2_4 1_555 1_555
C2_4 H1_4 1_555 1_555
C3_4 C2_4 1_555 1_555
C4_4 C3_4 1_555 1_555
H2_4 C4_4 1_555 1_555
C5_4 C4_4 1_555 1_555
C6_4 C1_4 1_555 1_555
H3_4 C6_4 1_555 1_555
O1_4 C12_4 1_555 1_555
N1_4 H4_4 1_555 1_555
C7_4 C13_4 1_555 1_555
C8_4 C16_4 1_555 1_555
C9_4 N1_4 1_555 1_555
O2_4 C9_4 1_555 1_555
N2_4 C1_4 1_555 1_555
H5_4 N2_4 1_555 1_555
Cu14 O3_4 1_555 1_555
Cu18 O7_4 1_555 1_555
O3_4 C10_4 1_555 1_555
O38 C11_4 1_555 1_555
O41 C11_4 1_555 1_555
O7_4 C10_4 1_555 1_555
C10_4 C15_4 1_555 1_555
O44_3 C13_4 1_555 1_555
O9_4 C12_4 1_555 1_555
O47_5 C16_4 1_555 1_555
C11_4 C17_4 1_555 1_555
O50_3 C13_4 1_555 1_555
O52_5 C16_4 1_555 1_555
C12_4 C18_4 1_555 1_555
C14_4 C19_4 1_555 1_555
O15_4 C32_4 1_555 1_555
C15_4 C21_4 1_555 1_555
C17_4 C22_4 1_555 1_555
C18_4 C24_4 1_555 1_555
C19_4 C21_4 1_555 1_555
C20_4 C8_4 1_555 1_555
H7_4 C20_4 1_555 1_555
O16_4 Cu14 1_555 1_555
H8_4 O16_4 1_555 1_555
N3_4 C5_4 1_555 1_555
H9_4 N3_4 1_555 1_555
C21_4 H10_4 1_555 1_555
C22_4 H11_4 1_555 1_555
O17_4 C31_4 1_555 1_555
C23_4 C19_4 1_555 1_555
H12_4 C23_4 1_555 1_555
C24_4 C8_4 1_555 1_555
H13_4 C24_4 1_555 1_555
N4_4 H14_4 1_555 1_555
C25_4 C18_4 1_555 1_555
H15_4 C25_4 1_555 1_555
C26_4 C7_4 1_555 1_555
H16_4 C26_4 1_555 1_555
N5_4 H17_4 1_555 1_555
C27_4 C22_4 1_555 1_555
O18_4 Cu18 1_555 1_555
H18_4 O18_4 1_555 1_555
C28_4 N1_4 1_555 1_555
C29_4 C15_4 1_555 1_555
H19_4 C29_4 1_555 1_555
C30_4 C7_4 1_555 1_555
H20_4 C30_4 1_555 1_555
C31_4 N3_4 1_555 1_555
C32_4 N4_4 1_555 1_555
C33_4 C23_4 1_555 1_555
N6_4 C3_4 1_555 1_555
H21_4 N6_4 1_555 1_555
C34_10 C35_10 1_555 1_555
C35_10 H25_10 1_555 1_555
C36_10 C35_10 1_555 1_555
C37_10 C36_10 1_555 1_555
H26_10 C37_10 1_555 1_555
C38_10 C37_10 1_555 1_555
C39_10 C34_10 1_555 1_555
H27_10 C39_10 1_555 1_555
O20_4 Cu14 1_555 1_555
N7_10 H28_10 1_555 1_555
C40_10 C46_10 1_555 1_555
C41_10 C49_10 1_555 1_555
C42_10 N7_10 1_555 1_555
O21_10 C42_10 1_555 1_555
N8_10 C34_10 1_555 1_555
H29_10 N8_10 1_555 1_555
Cu15 O22_10 1_555 1_555
Cu19 O26_10 1_555 1_555
O22_10 C43_10 1_555 1_555
O39 C44_10 1_555 1_555
O42 C44_10 1_555 1_555
O26_10 C43_10 1_555 1_555
C43_10 C48_10 1_555 1_555
O43 C46_10 1_555 1_555
O28_4 Cu18 1_555 1_555
O47_6 C49_10 1_555 1_555
C44_10 C50_10 1_555 1_555
O49 C46_10 1_555 1_555
O52_6 C49_10 1_555 1_555
C45_10 O20_4 1_555 1_555
C47_10 C52_10 1_555 1_555
O33_10 C65_10 1_555 1_555
C48_10 C54_10 1_555 1_555
C50_10 C55_10 1_555 1_555
C51_10 C45_10 1_555 1_555
C52_10 C54_10 1_555 1_555
C53_10 C41_10 1_555 1_555
H30_10 C53_10 1_555 1_555
O34_10 Cu15 1_555 1_555
H31_10 O34_10 1_555 1_555
N9_10 C38_10 1_555 1_555
H32_10 N9_10 1_555 1_555
C54_10 H33_10 1_555 1_555
C55_10 H34_10 1_555 1_555
O35_10 C64_10 1_555 1_555
C56_10 C52_10 1_555 1_555
H35_10 C56_10 1_555 1_555
C57_10 C41_10 1_555 1_555
H36_10 C57_10 1_555 1_555
N10_10 H37_10 1_555 1_555
C58_10 C51_10 1_555 1_555
H38_10 C58_10 1_555 1_555
C59_10 C40_10 1_555 1_555
H39_10 C59_10 1_555 1_555
N11_10 H40_10 1_555 1_555
C60_10 C55_10 1_555 1_555
O36_10 Cu19 1_555 1_555
H41_10 O36_10 1_555 1_555
C61_10 N7_10 1_555 1_555
C62_10 C48_10 1_555 1_555
H42_10 C62_10 1_555 1_555
C63_10 C40_10 1_555 1_555
H43_10 C63_10 1_555 1_555
C64_10 N9_10 1_555 1_555
C65_10 N10_10 1_555 1_555
C66_10 C56_10 1_555 1_555
N12_10 C36_10 1_555 1_555
H44_10 N12_10 1_555 1_555
O37_7 Cu15 1_555 1_555
Cu16 O1_4 1_555 1_555
Cu20 O9_4 1_555 1_555
O45_7 Cu19 1_555 1_555
C5_4 C6_4 1_555 1_555
C9_4 N2_4 1_555 1_555
C17_4 C26_4 1_555 1_555
C20_4 C28_4 1_555 1_555
N4_4 C33_4 1_555 1_555
C25_4 C28_4 1_555 1_555
N5_4 C27_4 1_555 1_555
N5_4 C31_4 1_555 1_555
C27_4 C30_4 1_555 1_555
C29_4 C33_4 1_555 1_555
C32_4 N6_4 1_555 1_555
C38_10 C39_10 1_555 1_555
C42_10 N8_10 1_555 1_555
O28_4 C45_10 1_555 1_555
C50_10 C59_10 1_555 1_555
C51_10 C57_10 1_555 1_555
C53_10 C61_10 1_555 1_555
N10_10 C66_10 1_555 1_555
C58_10 C61_10 1_555 1_555
N11_10 C60_10 1_555 1_555
N11_10 C64_10 1_555 1_555
C60_10 C63_10 1_555 1_555
C62_10 C66_10 1_555 1_555
C65_10 N12_10 1_555 1_555
O34_10 H45_10 1_555 1_555
O36_10 H46_10 1_555 1_555
O16_4 H47_4 1_555 1_555
O18_4 H48_4 1_555 1_555
C34_11 C35_11 1_555 1_555
C35_11 H25_11 1_555 1_555
C36_11 C35_11 1_555 1_555
C37_11 C36_11 1_555 1_555
H26_11 C37_11 1_555 1_555
C38_11 C37_11 1_555 1_555
C39_11 C34_11 1_555 1_555
H27_11 C39_11 1_555 1_555
N7_11 H28_11 1_555 1_555
C40_11 C46_11 1_555 1_555
C41_11 C49_11 1_555 1_555
C42_11 N7_11 1_555 1_555
O21_11 C42_11 1_555 1_555
N8_11 C34_11 1_555 1_555
H29_11 N8_11 1_555 1_555
Cu15_2 O22_11 1_555 1_555
Cu19_2 O26_11 1_555 1_555
O22_11 C43_11 1_555 1_555
O39_2 C44_11 1_555 1_555
O42_2 C44_11 1_555 1_555
O26_11 C43_11 1_555 1_555
C43_11 C48_11 1_555 1_555
O44 C46_11 1_555 1_555
O47_7 C49_11 1_555 1_555
C44_11 C50_11 1_555 1_555
O50 C46_11 1_555 1_555
O52_7 C49_11 1_555 1_555
C45_11 O37_7 1_555 1_555
C47_11 C52_11 1_555 1_555
O33_11 C65_11 1_555 1_555
C48_11 C54_11 1_555 1_555
C50_11 C55_11 1_555 1_555
C51_11 C45_11 1_555 1_555
C52_11 C54_11 1_555 1_555
C53_11 C41_11 1_555 1_555
H30_11 C53_11 1_555 1_555
O34_11 Cu15_2 1_555 1_555
H31_11 O34_11 1_555 1_555
N9_11 C38_11 1_555 1_555
H32_11 N9_11 1_555 1_555
C54_11 H33_11 1_555 1_555
C55_11 H34_11 1_555 1_555
O35_11 C64_11 1_555 1_555
C56_11 C52_11 1_555 1_555
H35_11 C56_11 1_555 1_555
C57_11 C41_11 1_555 1_555
H36_11 C57_11 1_555 1_555
N10_11 H37_11 1_555 1_555
C58_11 C51_11 1_555 1_555
H38_11 C58_11 1_555 1_555
C59_11 C40_11 1_555 1_555
H39_11 C59_11 1_555 1_555
N11_11 H40_11 1_555 1_555
C60_11 C55_11 1_555 1_555
O36_11 Cu19_2 1_555 1_555
H41_11 O36_11 1_555 1_555
C61_11 N7_11 1_555 1_555
C62_11 C48_11 1_555 1_555
H42_11 C62_11 1_555 1_555
C63_11 C40_11 1_555 1_555
H43_11 C63_11 1_555 1_555
C64_11 N9_11 1_555 1_555
C65_11 N10_11 1_555 1_555
C66_11 C56_11 1_555 1_555
N12_11 C36_11 1_555 1_555
H44_11 N12_11 1_555 1_555
O37_8 Cu15_2 1_555 1_555
O45_8 Cu19_2 1_555 1_555
C38_11 C39_11 1_555 1_555
C42_11 N8_11 1_555 1_555
O45_7 C45_11 1_555 1_555
C50_11 C59_11 1_555 1_555
C51_11 C57_11 1_555 1_555
C53_11 C61_11 1_555 1_555
N10_11 C66_11 1_555 1_555
C58_11 C61_11 1_555 1_555
N11_11 C60_11 1_555 1_555
N11_11 C64_11 1_555 1_555
C60_11 C63_11 1_555 1_555
C62_11 C66_11 1_555 1_555
C65_11 N12_11 1_555 1_555
O34_11 H45_11 1_555 1_555
O36_11 H46_11 1_555 1_555
C34_12 C35_12 1_555 1_555
C35_12 H25_12 1_555 1_555
C36_12 C35_12 1_555 1_555
C37_12 C36_12 1_555 1_555
H26_12 C37_12 1_555 1_555
C38_12 C37_12 1_555 1_555
C39_12 C34_12 1_555 1_555
H27_12 C39_12 1_555 1_555
N7_12 H28_12 1_555 1_555
C40_12 C46_12 1_555 1_555
C41_12 C49_12 1_555 1_555
C42_12 N7_12 1_555 1_555
O21_12 C42_12 1_555 1_555
N8_12 C34_12 1_555 1_555
H29_12 N8_12 1_555 1_555
Cu16 O22_12 1_555 1_555
Cu20 O26_12 1_555 1_555
O22_12 C43_12 1_555 1_555
O39_3 C44_12 1_555 1_555
O42_3 C44_12 1_555 1_555
O26_12 C43_12 1_555 1_555
C43_12 C48_12 1_555 1_555
O44_2 C46_12 1_555 1_555
O47_8 C49_12 1_555 1_555
C44_12 C50_12 1_555 1_555
O50_2 C46_12 1_555 1_555
O52_8 C49_12 1_555 1_555
C45_12 O37_8 1_555 1_555
C47_12 C52_12 1_555 1_555
O33_12 C65_12 1_555 1_555
C48_12 C54_12 1_555 1_555
C50_12 C55_12 1_555 1_555
C51_12 C45_12 1_555 1_555
C52_12 C54_12 1_555 1_555
C53_12 C41_12 1_555 1_555
H30_12 C53_12 1_555 1_555
O34_12 Cu16 1_555 1_555
H31_12 O34_12 1_555 1_555
N9_12 C38_12 1_555 1_555
H32_12 N9_12 1_555 1_555
C54_12 H33_12 1_555 1_555
C55_12 H34_12 1_555 1_555
O35_12 C64_12 1_555 1_555
C56_12 C52_12 1_555 1_555
H35_12 C56_12 1_555 1_555
C57_12 C41_12 1_555 1_555
H36_12 C57_12 1_555 1_555
N10_12 H37_12 1_555 1_555
C58_12 C51_12 1_555 1_555
H38_12 C58_12 1_555 1_555
C59_12 C40_12 1_555 1_555
H39_12 C59_12 1_555 1_555
N11_12 H40_12 1_555 1_555
C60_12 C55_12 1_555 1_555
O36_12 Cu20 1_555 1_555
H41_12 O36_12 1_555 1_555
C61_12 N7_12 1_555 1_555
C62_12 C48_12 1_555 1_555
H42_12 C62_12 1_555 1_555
C63_12 C40_12 1_555 1_555
H43_12 C63_12 1_555 1_555
C64_12 N9_12 1_555 1_555
C65_12 N10_12 1_555 1_555
C66_12 C56_12 1_555 1_555
N12_12 C36_12 1_555 1_555
H44_12 N12_12 1_555 1_555
C38_12 C39_12 1_555 1_555
C42_12 N8_12 1_555 1_555
O45_8 C45_12 1_555 1_555
C50_12 C59_12 1_555 1_555
C51_12 C57_12 1_555 1_555
C53_12 C61_12 1_555 1_555
N10_12 C66_12 1_555 1_555
C58_12 C61_12 1_555 1_555
N11_12 C60_12 1_555 1_555
N11_12 C64_12 1_555 1_555
C60_12 C63_12 1_555 1_555
C62_12 C66_12 1_555 1_555
C65_12 N12_12 1_555 1_555
O34_12 H45_12 1_555 1_555
O36_12 H46_12 1_555 1_555

#END
