
###############################################################################
#
# This file contains modified crystal structure data generated from the
# MOF subset of the Cambridge Structural Database (CSD) v543 
# hosted by the Cambridge Crystallographic Data Centre (CCDC).
#
# This work is licensed under the Creative Commons
# Attribution-NonCommercial-ShareAlike 4.0 International License.
# To view a copy of this license, visit
# http://creativecommons.org/licenses/by-nc-sa/4.0/
# or send a letter to
# Creative Commons, PO Box 1866, Mountain View, CA 94042, USA.
#
# CIF created using the CSD Python API on 29 September 2022
# The structure has been converted into the P1 space group
# The structure has a 3D framework
# The original CSD entry HULRIR is in the monoclinic crystal system
# The framework has been calculated to contain at least 10.0% void space
# The void calculation uses a probe of radius 1.32A, grid spacing 0.4
# H atom positions have been added when not included in the experimental data
#
###############################################################################

data_HULRIR
_chemical_formula_moiety         '(C192 H112 Cd24 N24 O110)n'
_symmetry_cell_setting           triclinic
_symmetry_space_group_name_H-M   'P 1'
_symmetry_Int_Tables_number      1
_space_group_name_Hall           'P 1'
loop_
_symmetry_equiv_pos_site_id
_symmetry_equiv_pos_as_xyz
1 x,y,z
_cell_length_a                   18.873(4)
_cell_length_b                   19.329(4)
_cell_length_c                   25.911(5)
_cell_angle_alpha                90
_cell_angle_beta                 101.04(3)
_cell_angle_gamma                90
_cell_volume                     9277.31
loop_
_atom_site_label
_atom_site_type_symbol
_atom_site_fract_x
_atom_site_fract_y
_atom_site_fract_z
O1 O 0.2343(4) 0.0594(4) 0.5173(3)
O2 O 0.3132(3) 0.0292(4) 0.4695(2)
C1 C 0.2969(5) 0.0475(6) 0.5118(4)
O3 O 0.3057(6) 0.0816(6) 0.7065(4)
O4 O 0.4098(4) 0.1101(5) 0.7409(3)
C2 C 0.3697(6) 0.0905(7) 0.7034(4)
O5 O 0.6708(4) 0.4315(4) 0.4524(3)
O6 O 0.7633(4) 0.3692(4) 0.4955(3)
C3 C 0.6993(5) 0.3902(6) 0.4885(4)
O7 O 0.4445(4) 0.3941(4) 0.6011(4)
O8 O 0.4451(4) 0.4426(5) 0.5297(4)
C4 C 0.4725(5) 0.4046(6) 0.5629(4)
C5 C 0.5448(5) 0.3720(5) 0.5620(3)
Cd1 Cd 0.69654(3) 0.07855(4) 0.57095(2)
Cd2 Cd 0.67811(4) 0.11975(4) 0.70645(3)
O9 O 0.5750(3) 0.0854(4) 0.5515(3)
C7 C 0.4809(4) 0.0691(5) 0.5989(3)
C8 C 0.4620(5) 0.0772(6) 0.6477(4)
H2 H 0.4978 0.0839 0.6774
C9 C 0.3377(5) 0.0674(6) 0.6073(4)
H3 H 0.2894 0.0698 0.6102
C10 C 0.5589(5) 0.0694(5) 0.5955(4)
N1 N 0.7683(4) 0.0281(5) 0.6436(3)
O10 O 0.7036(3) 0.1829(4) 0.6179(2)
O11 O 0.6190(4) 0.2098(3) 0.6636(2)
C11 C 0.6741(4) 0.3065(5) 0.5572(3)
H4 H 0.7177 0.2846 0.5561
C12 C 0.6540(5) 0.3619(5) 0.5262(3)
N2 N 0.7581(4) 0.0412(5) 0.6917(3)
C13 C 0.6307(5) 0.2818(5) 0.5906(3)
C14 C 0.3544(4) 0.0561(6) 0.5590(3)
C15 C 0.6522(5) 0.2221(5) 0.6258(4)
C16 C 0.4270(5) 0.0572(5) 0.5553(4)
H5 H 0.4397 0.0499 0.5228
C17 C 0.5874(5) 0.3960(5) 0.5274(4)
H6 H 0.5727 0.4336 0.5056
O12 O 0.6058(3) 0.0553(4) 0.6344(3)
C18 C 0.5675(5) 0.3160(5) 0.5942(3)
H7 H 0.5401 0.3013 0.6184
C19 C 0.3906(5) 0.0755(6) 0.6523(4)
O13 O 0.7670(8) 0.2043(7) 0.7439(5)
H8 H 0.7911 0.0137 0.8008
O17 O 0.6943(6) 0.0816(6) 0.7935(4)
O18 O 0.5902(4) 0.1101(5) 0.7591(3)
O19 O 0.8292(4) 0.0685(4) 0.5476(3)
O20 O 0.7367(4) 0.1308(4) 0.5045(3)
Cd5 Cd 0.80346(3) 0.42145(4) 0.42905(2)
Cd6 Cd 0.32189(4) 0.11975(4) 0.79355(3)
Cd7 Cd 0.33646(3) 0.44740(4) 0.56226(3)
Cd8 Cd 0.16354(3) 0.05260(4) 0.43774(3)
Cd9 Cd 0.66354(3) 0.55260(4) 0.43774(3)
H13 H 0.748512 0.251436 0.73373
H14 H 0.776849 0.200047 0.782811
C6 C 0.8646(15) 0.9385(15) 0.8007(11)
H1 H 0.8767 0.9320 0.8369
Cd3 Cd 0.83646(3) 0.94740(4) 0.56226(3)
N3 N 0.8160(4) 0.9812(5) 0.6418(3)
C20 C 0.8389(7) 0.9593(7) 0.6909(5)
C21 C 0.8021(7) 0.9978(7) 0.7214(4)
O14 O 0.7901(8) 0.8302(8) 0.5745(7)
C22 C 0.8155(9) 0.9876(10) 0.7796(7)
C23 C 0.8885(12) 0.9067(11) 0.7087(9)
H9 H 0.9127 0.8811 0.6871
C24 C 0.8973(14) 0.8971(13) 0.7652(11)
H10 H 0.9268 0.8608 0.7799
O15 O 0.7657(4) 0.9406(4) 0.4827(3)
O16 O 0.6868(3) 0.9708(4) 0.5305(2)
O21 O 0.9445(4) 0.8941(4) 0.6011(4)
O22 O 0.9451(4) 0.9426(5) 0.5297(4)
Cd4 Cd 0.30346(3) 0.92145(4) 0.42905(2)
H11 H 0.73915 0.833382 0.57907
H12 H 0.792726 0.801473 0.54315
O2_2 O 0.6868(3) 0.0292(4) 0.0305(2)
O5_2 O 0.3292(4) 0.4315(4) 0.0476(3)
O6_2 O 0.2367(4) 0.3692(4) 0.0045(3)
C3_2 C 0.3007(5) 0.3902(6) 0.0115(4)
Cd5_2 Cd 0.19654(3) 0.42145(4) 0.07095(2)
Cd8_2 Cd 0.83646(3) 0.05260(4) 0.06226(3)
Cd9_2 Cd 0.33646(3) 0.55260(4) 0.06226(3)
O1_2 O 0.7657(4) 0.0594(4) 0.9827(3)
C1_2 C 0.7031(5) 0.0475(6) 0.9882(4)
C2_2 C 0.6303(6) 0.0905(7) 0.7966(4)
O7_2 O 0.5555(4) 0.3941(4) 0.8989(4)
O8_2 O 0.5549(4) 0.4426(5) 0.9703(4)
C4_2 C 0.5275(5) 0.4046(6) 0.9371(4)
C5_2 C 0.4552(5) 0.3720(5) 0.9380(3)
Cd1_2 Cd 0.30346(3) 0.07855(4) 0.92905(2)
O9_2 O 0.4250(3) 0.0854(4) 0.9485(3)
C7_2 C 0.5191(4) 0.0691(5) 0.9011(3)
C8_2 C 0.5380(5) 0.0772(6) 0.8523(4)
H2_2 H 0.5022 0.0839 0.8226
C9_2 C 0.6623(5) 0.0674(6) 0.8927(4)
H3_2 H 0.7106 0.0698 0.8898
C10_2 C 0.4411(5) 0.0694(5) 0.9045(4)
N1_2 N 0.2317(4) 0.0281(5) 0.8564(3)
O10_2 O 0.2964(3) 0.1829(4) 0.8821(2)
O11_2 O 0.3810(4) 0.2098(3) 0.8364(2)
C11_2 C 0.3259(4) 0.3065(5) 0.9428(3)
H4_2 H 0.2823 0.2846 0.9439
C12_2 C 0.3460(5) 0.3619(5) 0.9738(3)
N2_2 N 0.2419(4) 0.0412(5) 0.8083(3)
C13_2 C 0.3693(5) 0.2818(5) 0.9094(3)
C14_2 C 0.6456(4) 0.0561(6) 0.9410(3)
C15_2 C 0.3478(5) 0.2221(5) 0.8742(4)
C16_2 C 0.5730(5) 0.0572(5) 0.9447(4)
H5_2 H 0.5603 0.0499 0.9772
C17_2 C 0.4126(5) 0.3960(5) 0.9726(4)
H6_2 H 0.4273 0.4336 0.9944
O12_2 O 0.3942(3) 0.0553(4) 0.8656(3)
C18_2 C 0.4325(5) 0.3160(5) 0.9058(3)
H7_2 H 0.4599 0.3013 0.8816
C19_2 C 0.6094(5) 0.0755(6) 0.8477(4)
O13_2 O 0.2330(8) 0.2043(7) 0.7561(5)
H8_2 H 0.2089 0.0137 0.6992
O19_2 O 0.1708(4) 0.0685(4) 0.9524(3)
O20_2 O 0.2633(4) 0.1308(4) 0.9955(3)
Cd7_2 Cd 0.66354(3) 0.44740(4) 0.93774(3)
H13_2 H 0.251488 0.251436 0.76627
H14_2 H 0.223151 0.200047 0.717189
O15_2 O 0.2343(4) 0.9406(4) 0.0173(3)
Cd4_2 Cd 0.69654(3) 0.92145(4) 0.07095(2)
C6_2 C 0.1354(15) 0.9385(15) 0.6993(11)
H1_2 H 0.1233 0.9320 0.6631
Cd3_2 Cd 0.16354(3) 0.94740(4) 0.93774(3)
N3_2 N 0.1840(4) 0.9812(5) 0.8582(3)
C20_2 C 0.1611(7) 0.9593(7) 0.8091(5)
C21_2 C 0.1979(7) 0.9978(7) 0.7786(4)
O14_2 O 0.2099(8) 0.8302(8) 0.9255(7)
C22_2 C 0.1845(9) 0.9876(10) 0.7204(7)
C23_2 C 0.1115(12) 0.9067(11) 0.7913(9)
H9_2 H 0.0873 0.8811 0.8129
C24_2 C 0.1027(14) 0.8971(13) 0.7348(11)
H10_2 H 0.0732 0.8608 0.7201
O16_2 O 0.3132(3) 0.9708(4) 0.9695(2)
O21_2 O 0.0555(4) 0.8941(4) 0.8989(4)
O22_2 O 0.0549(4) 0.9426(5) 0.9703(4)
H11_2 H 0.26085 0.833382 0.92093
H12_2 H 0.207274 0.801473 0.95685
O5_3 O 0.1708(4) 0.9315(4) 0.4524(3)
O6_3 O 0.2633(4) 0.8692(4) 0.4955(3)
C3_3 C 0.1993(5) 0.8902(6) 0.4885(4)
C5_3 C 0.0448(5) 0.8720(5) 0.5620(3)
C6_3 C 0.3646(15) 0.4385(15) 0.8007(11)
H1_3 H 0.3767 0.4320 0.8369
Cd1_3 Cd 0.19654(3) 0.57855(4) 0.57095(2)
Cd2_2 Cd 0.17811(4) 0.61975(4) 0.70645(3)
O9_3 O 0.0750(3) 0.5854(4) 0.5515(3)
C10_3 C 0.0589(5) 0.5694(5) 0.5955(4)
N1_3 N 0.2683(4) 0.5281(5) 0.6436(3)
O10_3 O 0.2036(3) 0.6829(4) 0.6179(2)
O11_3 O 0.1190(4) 0.7098(3) 0.6636(2)
C11_3 C 0.1741(4) 0.8065(5) 0.5572(3)
H4_3 H 0.2177 0.7846 0.5561
C12_3 C 0.1540(5) 0.8619(5) 0.5262(3)
N2_3 N 0.2581(4) 0.5412(5) 0.6917(3)
C13_3 C 0.1307(5) 0.7818(5) 0.5906(3)
C15_3 C 0.1522(5) 0.7221(5) 0.6258(4)
C17_3 C 0.0874(5) 0.8960(5) 0.5274(4)
H6_3 H 0.0727 0.9336 0.5056
N3_3 N 0.3160(4) 0.4812(5) 0.6418(3)
O12_3 O 0.1058(3) 0.5553(4) 0.6344(3)
C18_3 C 0.0675(5) 0.8160(5) 0.5942(3)
H7_3 H 0.0401 0.8013 0.6184
C20_3 C 0.3389(7) 0.4593(7) 0.6909(5)
C21_3 C 0.3021(7) 0.4978(7) 0.7214(4)
O13_3 O 0.2670(8) 0.7043(7) 0.7439(5)
O14_3 O 0.2901(8) 0.3302(8) 0.5745(7)
C22_3 C 0.3155(9) 0.4876(10) 0.7796(7)
H8_3 H 0.2911 0.5137 0.8008
C23_3 C 0.3885(12) 0.4067(11) 0.7087(9)
H9_3 H 0.4127 0.3811 0.6871
C24_3 C 0.3973(14) 0.3971(13) 0.7652(11)
H10_3 H 0.4268 0.3608 0.7799
O15_3 O 0.2657(4) 0.4406(4) 0.4827(3)
O16_3 O 0.1868(3) 0.4708(4) 0.5305(2)
O17_2 O 0.1943(6) 0.5816(6) 0.7935(4)
O18_2 O 0.0902(4) 0.6101(5) 0.7591(3)
O19_3 O 0.3292(4) 0.5685(4) 0.5476(3)
O20_3 O 0.2367(4) 0.6308(4) 0.5045(3)
H11_3 H 0.23915 0.333382 0.57907
H12_3 H 0.292726 0.301473 0.54315
H13_3 H 0.248512 0.751436 0.73373
H14_3 H 0.276849 0.700047 0.782811
O1_3 O 0.7343(4) 0.5594(4) 0.5173(3)
O2_3 O 0.8132(3) 0.5292(4) 0.4695(2)
C1_3 C 0.7969(5) 0.5475(6) 0.5118(4)
O3_2 O 0.8057(6) 0.5816(6) 0.7065(4)
O4_2 O 0.9098(4) 0.6101(5) 0.7409(3)
C2_3 C 0.8697(6) 0.5905(7) 0.7034(4)
C4_3 C 0.9725(5) 0.9046(6) 0.5629(4)
C7_3 C 0.9809(4) 0.5691(5) 0.5989(3)
C8_3 C 0.9620(5) 0.5772(6) 0.6477(4)
H2_3 H 0.9978 0.5839 0.6774
C9_3 C 0.8377(5) 0.5674(6) 0.6073(4)
H3_3 H 0.7894 0.5698 0.6102
C14_3 C 0.8544(4) 0.5561(6) 0.5590(3)
C16_3 C 0.9270(5) 0.5572(5) 0.5553(4)
H5_3 H 0.9397 0.5499 0.5228
C19_3 C 0.8906(5) 0.5755(6) 0.6523(4)
Cd6_2 Cd 0.82189(4) 0.61975(4) 0.79355(3)
O2_4 O 0.1868(3) 0.5292(4) 0.0305(2)
O1_4 O 0.2657(4) 0.5594(4) 0.9827(3)
C1_4 C 0.2031(5) 0.5475(6) 0.9882(4)
C2_4 C 0.1303(6) 0.5905(7) 0.7966(4)
C4_4 C 0.0275(5) 0.9046(6) 0.9371(4)
C7_4 C 0.0191(4) 0.5691(5) 0.9011(3)
C8_4 C 0.0380(5) 0.5772(6) 0.8523(4)
H2_4 H 0.0022 0.5839 0.8226
C9_4 C 0.1623(5) 0.5674(6) 0.8927(4)
H3_4 H 0.2106 0.5698 0.8898
C14_4 C 0.1456(4) 0.5561(6) 0.9410(3)
C16_4 C 0.0730(5) 0.5572(5) 0.9447(4)
H5_4 H 0.0603 0.5499 0.9772
C19_4 C 0.1094(5) 0.5755(6) 0.8477(4)
O5_4 O 0.8292(4) 0.9315(4) 0.0476(3)
O6_4 O 0.7367(4) 0.8692(4) 0.0045(3)
C3_4 C 0.8007(5) 0.8902(6) 0.0115(4)
O15_4 O 0.7343(4) 0.4406(4) 0.0173(3)
C5_4 C 0.9552(5) 0.8720(5) 0.9380(3)
C6_4 C 0.6354(15) 0.4385(15) 0.6993(11)
H1_4 H 0.6233 0.4320 0.6631
Cd1_4 Cd 0.80346(3) 0.57855(4) 0.92905(2)
O9_4 O 0.9250(3) 0.5854(4) 0.9485(3)
C10_4 C 0.9411(5) 0.5694(5) 0.9045(4)
N1_4 N 0.7317(4) 0.5281(5) 0.8564(3)
O10_4 O 0.7964(3) 0.6829(4) 0.8821(2)
O11_4 O 0.8810(4) 0.7098(3) 0.8364(2)
C11_4 C 0.8259(4) 0.8065(5) 0.9428(3)
H4_4 H 0.7823 0.7846 0.9439
C12_4 C 0.8460(5) 0.8619(5) 0.9738(3)
N2_4 N 0.7419(4) 0.5412(5) 0.8083(3)
C13_4 C 0.8693(5) 0.7818(5) 0.9094(3)
C15_4 C 0.8478(5) 0.7221(5) 0.8742(4)
C17_4 C 0.9126(5) 0.8960(5) 0.9726(4)
H6_4 H 0.9273 0.9336 0.9944
N3_4 N 0.6840(4) 0.4812(5) 0.8582(3)
O12_4 O 0.8942(3) 0.5553(4) 0.8656(3)
C18_4 C 0.9325(5) 0.8160(5) 0.9058(3)
H7_4 H 0.9599 0.8013 0.8816
C20_4 C 0.6611(7) 0.4593(7) 0.8091(5)
C21_4 C 0.6979(7) 0.4978(7) 0.7786(4)
O13_4 O 0.7330(8) 0.7043(7) 0.7561(5)
O14_4 O 0.7099(8) 0.3302(8) 0.9255(7)
C22_4 C 0.6845(9) 0.4876(10) 0.7204(7)
H8_4 H 0.7089 0.5137 0.6992
C23_4 C 0.6115(12) 0.4067(11) 0.7913(9)
H9_4 H 0.5873 0.3811 0.8129
C24_4 C 0.6027(14) 0.3971(13) 0.7348(11)
H10_4 H 0.5732 0.3608 0.7201
O16_4 O 0.8132(3) 0.4708(4) 0.9695(2)
O19_4 O 0.6708(4) 0.5685(4) 0.9524(3)
O20_4 O 0.7633(4) 0.6308(4) 0.9955(3)
H11_4 H 0.76085 0.333382 0.92093
H12_4 H 0.707274 0.301473 0.95685
H13_4 H 0.751488 0.751436 0.76627
H14_4 H 0.723151 0.700047 0.717189
C6_5 C 0.1354(15) 0.0615(15) 0.1993(11)
H1_5 H 0.1233 0.0680 0.1631
N3_5 N 0.1840(4) 0.0188(5) 0.3582(3)
C20_5 C 0.1611(7) 0.0407(7) 0.3091(5)
C21_5 C 0.1979(7) 0.0022(7) 0.2786(4)
O14_5 O 0.2099(8) 0.1698(8) 0.4255(7)
C22_5 C 0.1845(9) 0.0124(10) 0.2204(7)
C23_5 C 0.1115(12) 0.0933(11) 0.2913(9)
H9_5 H 0.0873 0.1189 0.3129
C24_5 C 0.1027(14) 0.1029(13) 0.2348(11)
H10_5 H 0.0732 0.1392 0.2201
O21_3 O 0.0555(4) 0.1059(4) 0.3989(4)
O22_3 O 0.0549(4) 0.0574(5) 0.4703(4)
H11_5 H 0.26085 0.166618 0.42093
H12_5 H 0.207274 0.198527 0.45685
C1_5 C 0.7031(5) 0.9525(6) 0.4882(4)
O3_3 O 0.6943(6) 0.9184(6) 0.2935(4)
O4_3 O 0.5902(4) 0.8899(5) 0.2591(3)
C2_5 C 0.6303(6) 0.9095(7) 0.2966(4)
C3_5 C 0.3007(5) 0.6098(6) 0.5115(4)
O7_3 O 0.5555(4) 0.6059(4) 0.3989(4)
O8_3 O 0.5549(4) 0.5574(5) 0.4703(4)
C4_5 C 0.5275(5) 0.5954(6) 0.4371(4)
C5_5 C 0.4552(5) 0.6280(5) 0.4380(3)
Cd2_3 Cd 0.32189(4) 0.88025(4) 0.29355(3)
O9_5 O 0.4250(3) 0.9146(4) 0.4485(3)
C7_5 C 0.5191(4) 0.9309(5) 0.4011(3)
C8_5 C 0.5380(5) 0.9228(6) 0.3523(4)
H2_5 H 0.5022 0.9161 0.3226
C9_5 C 0.6623(5) 0.9326(6) 0.3927(4)
H3_5 H 0.7106 0.9302 0.3898
C10_5 C 0.4411(5) 0.9306(5) 0.4045(4)
N1_5 N 0.2317(4) 0.9719(5) 0.3564(3)
O10_5 O 0.2964(3) 0.8171(4) 0.3821(2)
O11_5 O 0.3810(4) 0.7902(3) 0.3364(2)
C11_5 C 0.3259(4) 0.6935(5) 0.4428(3)
H4_5 H 0.2823 0.7154 0.4439
C12_5 C 0.3460(5) 0.6381(5) 0.4738(3)
N2_5 N 0.2419(4) 0.9588(5) 0.3083(3)
C13_5 C 0.3693(5) 0.7182(5) 0.4094(3)
C14_5 C 0.6456(4) 0.9439(6) 0.4410(3)
C15_5 C 0.3478(5) 0.7779(5) 0.3742(4)
C16_5 C 0.5730(5) 0.9428(5) 0.4447(4)
H5_5 H 0.5603 0.9501 0.4772
C17_5 C 0.4126(5) 0.6040(5) 0.4726(4)
H6_5 H 0.4273 0.5664 0.4944
O12_5 O 0.3942(3) 0.9447(4) 0.3656(3)
C18_5 C 0.4325(5) 0.6840(5) 0.4058(3)
H7_5 H 0.4599 0.6987 0.3816
C19_5 C 0.6094(5) 0.9245(6) 0.3477(4)
O13_5 O 0.2330(8) 0.7957(7) 0.2561(5)
H8_5 H 0.2089 0.9863 0.1992
O17_3 O 0.3057(6) 0.9184(6) 0.2065(4)
O18_3 O 0.4098(4) 0.8899(5) 0.2409(3)
Cd6_3 Cd 0.67811(4) 0.88025(4) 0.20645(3)
H13_5 H 0.251488 0.748564 0.26627
H14_5 H 0.223151 0.799953 0.217189
C6_6 C 0.8646(15) 0.0615(15) 0.3007(11)
H1_6 H 0.8767 0.0680 0.3369
N3_6 N 0.8160(4) 0.0188(5) 0.1418(3)
C20_6 C 0.8389(7) 0.0407(7) 0.1909(5)
C21_6 C 0.8021(7) 0.0022(7) 0.2214(4)
O14_6 O 0.7901(8) 0.1698(8) 0.0745(7)
C22_6 C 0.8155(9) 0.0124(10) 0.2796(7)
C23_6 C 0.8885(12) 0.0933(11) 0.2087(9)
H9_6 H 0.9127 0.1189 0.1871
C24_6 C 0.8973(14) 0.1029(13) 0.2652(11)
H10_6 H 0.9268 0.1392 0.2799
O21_4 O 0.9445(4) 0.1059(4) 0.1011(4)
O22_4 O 0.9451(4) 0.0574(5) 0.0297(4)
H11_6 H 0.73915 0.166618 0.0790696
H12_6 H 0.792726 0.198527 0.0431499
C1_6 C 0.2969(5) 0.9525(6) 0.0118(4)
C2_6 C 0.3697(6) 0.9095(7) 0.2034(4)
O7_4 O 0.4445(4) 0.6059(4) 0.1011(4)
O8_4 O 0.4451(4) 0.5574(5) 0.0297(4)
C4_6 C 0.4725(5) 0.5954(6) 0.0629(4)
C5_6 C 0.5448(5) 0.6280(5) 0.0620(3)
O9_6 O 0.5750(3) 0.9146(4) 0.0515(3)
C7_6 C 0.4809(4) 0.9309(5) 0.0989(3)
C8_6 C 0.4620(5) 0.9228(6) 0.1477(4)
H2_6 H 0.4978 0.9161 0.1774
C9_6 C 0.3377(5) 0.9326(6) 0.1073(4)
H3_6 H 0.2894 0.9302 0.1102
C10_6 C 0.5589(5) 0.9306(5) 0.0955(4)
N1_6 N 0.7683(4) 0.9719(5) 0.1436(3)
O10_6 O 0.7036(3) 0.8171(4) 0.1179(2)
O11_6 O 0.6190(4) 0.7902(3) 0.1636(2)
C11_6 C 0.6741(4) 0.6935(5) 0.0572(3)
H4_6 H 0.7177 0.7154 0.0561
C12_6 C 0.6540(5) 0.6381(5) 0.0262(3)
N2_6 N 0.7581(4) 0.9588(5) 0.1917(3)
C13_6 C 0.6307(5) 0.7182(5) 0.0906(3)
C14_6 C 0.3544(4) 0.9439(6) 0.0590(3)
C15_6 C 0.6522(5) 0.7779(5) 0.1258(4)
C16_6 C 0.4270(5) 0.9428(5) 0.0553(4)
H5_6 H 0.4397 0.9501 0.0228
C17_6 C 0.5874(5) 0.6040(5) 0.0274(4)
H6_6 H 0.5727 0.5664 0.0056
O12_6 O 0.6058(3) 0.9447(4) 0.1344(3)
C18_6 C 0.5675(5) 0.6840(5) 0.0942(3)
H7_6 H 0.5401 0.6987 0.1184
C19_6 C 0.3906(5) 0.9245(6) 0.1523(4)
O13_6 O 0.7670(8) 0.7957(7) 0.2439(5)
H8_6 H 0.7911 0.9863 0.3008
H13_6 H 0.748512 0.748564 0.23373
H14_6 H 0.776849 0.799953 0.282811
C3_6 C 0.6993(5) 0.6098(6) 0.9885(4)
C1_7 C 0.2031(5) 0.4525(6) 0.4882(4)
O3_4 O 0.1943(6) 0.4184(6) 0.2935(4)
O4_4 O 0.0902(4) 0.3899(5) 0.2591(3)
C2_7 C 0.1303(6) 0.4095(7) 0.2966(4)
C4_7 C 0.0275(5) 0.0954(6) 0.4371(4)
C7_7 C 0.0191(4) 0.4309(5) 0.4011(3)
C8_7 C 0.0380(5) 0.4228(6) 0.3523(4)
H2_7 H 0.0022 0.4161 0.3226
C9_7 C 0.1623(5) 0.4326(6) 0.3927(4)
H3_7 H 0.2106 0.4302 0.3898
C14_7 C 0.1456(4) 0.4439(6) 0.4410(3)
C16_7 C 0.0730(5) 0.4428(5) 0.4447(4)
H5_7 H 0.0603 0.4501 0.4772
C19_7 C 0.1094(5) 0.4245(6) 0.3477(4)
Cd6_4 Cd 0.17811(4) 0.38025(4) 0.20645(3)
C3_7 C 0.8007(5) 0.1098(6) 0.5115(4)
C5_7 C 0.9552(5) 0.1280(5) 0.4380(3)
C6_7 C 0.6354(15) 0.5615(15) 0.1993(11)
H1_7 H 0.6233 0.5680 0.1631
Cd2_4 Cd 0.82189(4) 0.38025(4) 0.29355(3)
O9_7 O 0.9250(3) 0.4146(4) 0.4485(3)
C10_7 C 0.9411(5) 0.4306(5) 0.4045(4)
N1_7 N 0.7317(4) 0.4719(5) 0.3564(3)
O10_7 O 0.7964(3) 0.3171(4) 0.3821(2)
O11_7 O 0.8810(4) 0.2902(3) 0.3364(2)
C11_7 C 0.8259(4) 0.1935(5) 0.4428(3)
H4_7 H 0.7823 0.2154 0.4439
C12_7 C 0.8460(5) 0.1381(5) 0.4738(3)
N2_7 N 0.7419(4) 0.4588(5) 0.3083(3)
C13_7 C 0.8693(5) 0.2182(5) 0.4094(3)
C15_7 C 0.8478(5) 0.2779(5) 0.3742(4)
C17_7 C 0.9126(5) 0.1040(5) 0.4726(4)
H6_7 H 0.9273 0.0664 0.4944
N3_7 N 0.6840(4) 0.5188(5) 0.3582(3)
O12_7 O 0.8942(3) 0.4447(4) 0.3656(3)
C18_7 C 0.9325(5) 0.1840(5) 0.4058(3)
H7_7 H 0.9599 0.1987 0.3816
C20_7 C 0.6611(7) 0.5407(7) 0.3091(5)
C21_7 C 0.6979(7) 0.5022(7) 0.2786(4)
O13_7 O 0.7330(8) 0.2957(7) 0.2561(5)
O14_7 O 0.7099(8) 0.6698(8) 0.4255(7)
C22_7 C 0.6845(9) 0.5124(10) 0.2204(7)
H8_7 H 0.7089 0.4863 0.1992
C23_7 C 0.6115(12) 0.5933(11) 0.2913(9)
H9_7 H 0.5873 0.6189 0.3129
C24_7 C 0.6027(14) 0.6029(13) 0.2348(11)
H10_7 H 0.5732 0.6392 0.2201
O17_4 O 0.8057(6) 0.4184(6) 0.2065(4)
O18_4 O 0.9098(4) 0.3899(5) 0.2409(3)
H11_7 H 0.76085 0.666618 0.42093
H12_7 H 0.707274 0.698527 0.45685
H13_7 H 0.751488 0.248564 0.26627
H14_7 H 0.723151 0.299953 0.217189
C5_8 C 0.0448(5) 0.1280(5) 0.0620(3)
C6_8 C 0.3646(15) 0.5615(15) 0.3007(11)
H1_8 H 0.3767 0.5680 0.3369
O9_8 O 0.0750(3) 0.4146(4) 0.0515(3)
C10_8 C 0.0589(5) 0.4306(5) 0.0955(4)
N1_8 N 0.2683(4) 0.4719(5) 0.1436(3)
O10_8 O 0.2036(3) 0.3171(4) 0.1179(2)
O11_8 O 0.1190(4) 0.2902(3) 0.1636(2)
C11_8 C 0.1741(4) 0.1935(5) 0.0572(3)
H4_8 H 0.2177 0.2154 0.0561
C12_8 C 0.1540(5) 0.1381(5) 0.0262(3)
N2_8 N 0.2581(4) 0.4588(5) 0.1917(3)
C13_8 C 0.1307(5) 0.2182(5) 0.0906(3)
C15_8 C 0.1522(5) 0.2779(5) 0.1258(4)
C17_8 C 0.0874(5) 0.1040(5) 0.0274(4)
H6_8 H 0.0727 0.0664 0.0056
N3_8 N 0.3160(4) 0.5188(5) 0.1418(3)
O12_8 O 0.1058(3) 0.4447(4) 0.1344(3)
C18_8 C 0.0675(5) 0.1840(5) 0.0942(3)
H7_8 H 0.0401 0.1987 0.1184
C20_8 C 0.3389(7) 0.5407(7) 0.1909(5)
C21_8 C 0.3021(7) 0.5022(7) 0.2214(4)
O13_8 O 0.2670(8) 0.2957(7) 0.2439(5)
O14_8 O 0.2901(8) 0.6698(8) 0.0745(7)
C22_8 C 0.3155(9) 0.5124(10) 0.2796(7)
H8_8 H 0.2911 0.4863 0.3008
C23_8 C 0.3885(12) 0.5933(11) 0.2087(9)
H9_8 H 0.4127 0.6189 0.1871
C24_8 C 0.3973(14) 0.6029(13) 0.2652(11)
H10_8 H 0.4268 0.6392 0.2799
H11_8 H 0.23915 0.666618 0.0790696
H12_8 H 0.292726 0.698527 0.0431499
H13_8 H 0.248512 0.248564 0.23373
H14_8 H 0.276849 0.299953 0.282811
C3_8 C 0.1993(5) 0.1098(6) 0.9885(4)
C1_8 C 0.7969(5) 0.4525(6) 0.0118(4)
C2_8 C 0.8697(6) 0.4095(7) 0.2034(4)
C4_8 C 0.9725(5) 0.0954(6) 0.0629(4)
C7_8 C 0.9809(4) 0.4309(5) 0.0989(3)
C8_8 C 0.9620(5) 0.4228(6) 0.1477(4)
H2_8 H 0.9978 0.4161 0.1774
C9_8 C 0.8377(5) 0.4326(6) 0.1073(4)
H3_8 H 0.7894 0.4302 0.1102
C14_8 C 0.8544(4) 0.4439(6) 0.0590(3)
C16_8 C 0.9270(5) 0.4428(5) 0.0553(4)
H5_8 H 0.9397 0.4501 0.0228
C19_8 C 0.8906(5) 0.4245(6) 0.1523(4)
loop_
_geom_bond_atom_site_label_1
_geom_bond_atom_site_label_2
_geom_bond_site_symmetry_1
_geom_bond_site_symmetry_2
O1 C1 1_555 1_555
O2 C1 1_555 1_555
C1 C14 1_555 1_555
O3 C2 1_555 1_555
O4 C2 1_555 1_555
C2 C19 1_555 1_555
O5 C3 1_555 1_555
O6 C3 1_555 1_555
C3 C12 1_555 1_555
O7 C4 1_555 1_555
O8 C4 1_555 1_555
C4 C5 1_555 1_555
C5 C17 1_555 1_555
Cd1 O9 1_555 1_555
Cd2 O10 1_555 1_555
O9 C10 1_555 1_555
C7 C8 1_555 1_555
C8 H2 1_555 1_555
C9 H3 1_555 1_555
C10 C7 1_555 1_555
N1 Cd1 1_555 1_555
O10 Cd1 1_555 1_555
O11 Cd2 1_555 1_555
C11 H4 1_555 1_555
C12 C11 1_555 1_555
N2 Cd2 1_555 1_555
C13 C11 1_555 1_555
C14 C9 1_555 1_555
C15 O10 1_555 1_555
C16 C7 1_555 1_555
H5 C16 1_555 1_555
C17 C12 1_555 1_555
H6 C17 1_555 1_555
O12 Cd1 1_555 1_555
C18 C5 1_555 1_555
H7 C18 1_555 1_555
C19 C8 1_555 1_555
O13 Cd2 1_555 1_555
O17 Cd2 1_555 1_555
O18 Cd2 1_555 1_555
O19 Cd1 1_555 1_555
O20 Cd1 1_555 1_555
Cd5 O5 1_555 1_555
Cd6 O3 1_555 1_555
Cd7 O7 1_555 1_555
Cd8 O1 1_555 1_555
Cd9 O5 1_555 1_555
O4 Cd6 1_555 1_555
O6 Cd5 1_555 1_555
O8 Cd7 1_555 1_555
Cd2 O12 1_555 1_555
C9 C19 1_555 1_555
C10 O12 1_555 1_555
N1 N2 1_555 1_555
O11 C15 1_555 1_555
C13 C15 1_555 1_555
C13 C18 1_555 1_555
C14 C16 1_555 1_555
O13 H13 1_555 1_555
O13 H14 1_555 1_555
C6 H1 1_555 1_555
Cd3 N3 1_555 1_555
C20 N3 1_555 1_555
O14 Cd3 1_555 1_555
C22 C6 1_555 1_555
C23 C20 1_555 1_555
H9 C23 1_555 1_555
C24 C6 1_555 1_555
H10 C24 1_555 1_555
O15 Cd3 1_555 1_555
O21 Cd3 1_555 1_555
O22 Cd3 1_555 1_555
C20 C21 1_555 1_555
C21 C22 1_555 1_555
C23 C24 1_555 1_555
O14 H11 1_555 1_555
O14 H12 1_555 1_555
O5_2 C3_2 1_555 1_555
O6_2 C3_2 1_555 1_555
Cd5_2 O5_2 1_555 1_555
Cd9_2 O5_2 1_555 1_555
O6_2 Cd5_2 1_555 1_555
O1_2 C1_2 1_555 1_555
C1_2 C14_2 1_555 1_555
O17 C2_2 1_555 1_555
O18 C2_2 1_555 1_555
C2_2 C19_2 1_555 1_555
O7_2 C4_2 1_555 1_555
O8_2 C4_2 1_555 1_555
C4_2 C5_2 1_555 1_555
C5_2 C17_2 1_555 1_555
Cd1_2 O9_2 1_555 1_555
Cd6 O10_2 1_555 1_555
O9_2 C10_2 1_555 1_555
C7_2 C8_2 1_555 1_555
C8_2 H2_2 1_555 1_555
C9_2 H3_2 1_555 1_555
C10_2 C7_2 1_555 1_555
N1_2 Cd1_2 1_555 1_555
O10_2 Cd1_2 1_555 1_555
O11_2 Cd6 1_555 1_555
C11_2 H4_2 1_555 1_555
C12_2 C11_2 1_555 1_555
N2_2 Cd6 1_555 1_555
C13_2 C11_2 1_555 1_555
C14_2 C9_2 1_555 1_555
C15_2 O10_2 1_555 1_555
C16_2 C7_2 1_555 1_555
H5_2 C16_2 1_555 1_555
C17_2 C12_2 1_555 1_555
H6_2 C17_2 1_555 1_555
O12_2 Cd1_2 1_555 1_555
C18_2 C5_2 1_555 1_555
H7_2 C18_2 1_555 1_555
C19_2 C8_2 1_555 1_555
O13_2 Cd6 1_555 1_555
O19_2 Cd1_2 1_555 1_555
O20_2 Cd1_2 1_555 1_555
Cd7_2 O7_2 1_555 1_555
O8_2 Cd7_2 1_555 1_555
Cd6 O12_2 1_555 1_555
C9_2 C19_2 1_555 1_555
C10_2 O12_2 1_555 1_555
N1_2 N2_2 1_555 1_555
O11_2 C15_2 1_555 1_555
C13_2 C15_2 1_555 1_555
C13_2 C18_2 1_555 1_555
C14_2 C16_2 1_555 1_555
O13_2 H13_2 1_555 1_555
O13_2 H14_2 1_555 1_555
C6_2 H1_2 1_555 1_555
Cd3_2 N3_2 1_555 1_555
C20_2 N3_2 1_555 1_555
O14_2 Cd3_2 1_555 1_555
C22_2 C6_2 1_555 1_555
C23_2 C20_2 1_555 1_555
H9_2 C23_2 1_555 1_555
C24_2 C6_2 1_555 1_555
H10_2 C24_2 1_555 1_555
O21_2 Cd3_2 1_555 1_555
O22_2 Cd3_2 1_555 1_555
C20_2 C21_2 1_555 1_555
C21_2 C22_2 1_555 1_555
C23_2 C24_2 1_555 1_555
O14_2 H11_2 1_555 1_555
O14_2 H12_2 1_555 1_555
O5_3 C3_3 1_555 1_555
O6_3 C3_3 1_555 1_555
C3_3 C12_3 1_555 1_555
C5_3 C17_3 1_555 1_555
C6_3 H1_3 1_555 1_555
Cd1_3 O9_3 1_555 1_555
Cd2_2 O10_3 1_555 1_555
Cd7 N3_3 1_555 1_555
O9_3 C10_3 1_555 1_555
N1_3 Cd1_3 1_555 1_555
O10_3 Cd1_3 1_555 1_555
O11_3 Cd2_2 1_555 1_555
C11_3 H4_3 1_555 1_555
C12_3 C11_3 1_555 1_555
N2_3 Cd2_2 1_555 1_555
C13_3 C11_3 1_555 1_555
C15_3 O10_3 1_555 1_555
C17_3 C12_3 1_555 1_555
H6_3 C17_3 1_555 1_555
N3_3 N1_3 1_555 1_555
O12_3 Cd1_3 1_555 1_555
C18_3 C5_3 1_555 1_555
H7_3 C18_3 1_555 1_555
C20_3 N3_3 1_555 1_555
C21_3 N2_3 1_555 1_555
O13_3 Cd2_2 1_555 1_555
O14_3 Cd7 1_555 1_555
C22_3 C6_3 1_555 1_555
H8_3 C22_3 1_555 1_555
C23_3 C20_3 1_555 1_555
H9_3 C23_3 1_555 1_555
C24_3 C6_3 1_555 1_555
H10_3 C24_3 1_555 1_555
O15_3 Cd7 1_555 1_555
O16_3 Cd1_3 1_555 1_555
O17_2 Cd2_2 1_555 1_555
O18_2 Cd2_2 1_555 1_555
O19_3 Cd1_3 1_555 1_555
O20_3 Cd1_3 1_555 1_555
Cd4 O5_3 1_555 1_555
O6_3 Cd4 1_555 1_555
Cd2_2 O12_3 1_555 1_555
Cd7 O19_3 1_555 1_555
C10_3 O12_3 1_555 1_555
N1_3 N2_3 1_555 1_555
O11_3 C15_3 1_555 1_555
C13_3 C15_3 1_555 1_555
C13_3 C18_3 1_555 1_555
C20_3 C21_3 1_555 1_555
C21_3 C22_3 1_555 1_555
C23_3 C24_3 1_555 1_555
O14_3 H11_3 1_555 1_555
O14_3 H12_3 1_555 1_555
O13_3 H13_3 1_555 1_555
O13_3 H14_3 1_555 1_555
O1_3 C1_3 1_555 1_555
O2_3 C1_3 1_555 1_555
C1_3 C14_3 1_555 1_555
O3_2 C2_3 1_555 1_555
O4_2 C2_3 1_555 1_555
C2_3 C19_3 1_555 1_555
O21 C4_3 1_555 1_555
O22 C4_3 1_555 1_555
C7_3 C8_3 1_555 1_555
C8_3 H2_3 1_555 1_555
C9_3 H3_3 1_555 1_555
C14_3 C9_3 1_555 1_555
C16_3 C7_3 1_555 1_555
H5_3 C16_3 1_555 1_555
C19_3 C8_3 1_555 1_555
Cd5 O2_3 1_555 1_555
Cd6_2 O3_2 1_555 1_555
Cd9 O1_3 1_555 1_555
O4_2 Cd6_2 1_555 1_555
C9_3 C19_3 1_555 1_555
C14_3 C16_3 1_555 1_555
Cd5_2 O2_4 1_555 1_555
O1_4 C1_4 1_555 1_555
C1_4 C14_4 1_555 1_555
O17_2 C2_4 1_555 1_555
O18_2 C2_4 1_555 1_555
C2_4 C19_4 1_555 1_555
O21_2 C4_4 1_555 1_555
O22_2 C4_4 1_555 1_555
C7_4 C8_4 1_555 1_555
C8_4 H2_4 1_555 1_555
C9_4 H3_4 1_555 1_555
C14_4 C9_4 1_555 1_555
C16_4 C7_4 1_555 1_555
H5_4 C16_4 1_555 1_555
C19_4 C8_4 1_555 1_555
C9_4 C19_4 1_555 1_555
C14_4 C16_4 1_555 1_555
O5_4 C3_4 1_555 1_555
O6_4 C3_4 1_555 1_555
Cd4_2 O5_4 1_555 1_555
O6_4 Cd4_2 1_555 1_555
C5_4 C17_4 1_555 1_555
C6_4 H1_4 1_555 1_555
Cd1_4 O9_4 1_555 1_555
Cd6_2 O10_4 1_555 1_555
Cd7_2 N3_4 1_555 1_555
O9_4 C10_4 1_555 1_555
N1_4 Cd1_4 1_555 1_555
O10_4 Cd1_4 1_555 1_555
O11_4 Cd6_2 1_555 1_555
C11_4 H4_4 1_555 1_555
C12_4 C11_4 1_555 1_555
N2_4 Cd6_2 1_555 1_555
C13_4 C11_4 1_555 1_555
C15_4 O10_4 1_555 1_555
C17_4 C12_4 1_555 1_555
H6_4 C17_4 1_555 1_555
N3_4 N1_4 1_555 1_555
O12_4 Cd1_4 1_555 1_555
C18_4 C5_4 1_555 1_555
H7_4 C18_4 1_555 1_555
C20_4 N3_4 1_555 1_555
C21_4 N2_4 1_555 1_555
O13_4 Cd6_2 1_555 1_555
O14_4 Cd7_2 1_555 1_555
C22_4 C6_4 1_555 1_555
H8_4 C22_4 1_555 1_555
C23_4 C20_4 1_555 1_555
H9_4 C23_4 1_555 1_555
C24_4 C6_4 1_555 1_555
H10_4 C24_4 1_555 1_555
O16_4 Cd1_4 1_555 1_555
O19_4 Cd1_4 1_555 1_555
O20_4 Cd1_4 1_555 1_555
Cd6_2 O12_4 1_555 1_555
Cd7_2 O19_4 1_555 1_555
C10_4 O12_4 1_555 1_555
N1_4 N2_4 1_555 1_555
O11_4 C15_4 1_555 1_555
C13_4 C15_4 1_555 1_555
C13_4 C18_4 1_555 1_555
C20_4 C21_4 1_555 1_555
C21_4 C22_4 1_555 1_555
C23_4 C24_4 1_555 1_555
O14_4 H11_4 1_555 1_555
O14_4 H12_4 1_555 1_555
O13_4 H13_4 1_555 1_555
O13_4 H14_4 1_555 1_555
C6_5 H1_5 1_555 1_555
Cd8 N3_5 1_555 1_555
C20_5 N3_5 1_555 1_555
O14_5 Cd8 1_555 1_555
C22_5 C6_5 1_555 1_555
C23_5 C20_5 1_555 1_555
H9_5 C23_5 1_555 1_555
C24_5 C6_5 1_555 1_555
H10_5 C24_5 1_555 1_555
O21_3 Cd8 1_555 1_555
O22_3 Cd8 1_555 1_555
C20_5 C21_5 1_555 1_555
C21_5 C22_5 1_555 1_555
C23_5 C24_5 1_555 1_555
O14_5 H11_5 1_555 1_555
O14_5 H12_5 1_555 1_555
O15 C1_5 1_555 1_555
O16 C1_5 1_555 1_555
C1_5 C14_5 1_555 1_555
O3_3 C2_5 1_555 1_555
O4_3 C2_5 1_555 1_555
C2_5 C19_5 1_555 1_555
O19_3 C3_5 1_555 1_555
O20_3 C3_5 1_555 1_555
C3_5 C12_5 1_555 1_555
O7_3 C4_5 1_555 1_555
O8_3 C4_5 1_555 1_555
C4_5 C5_5 1_555 1_555
C5_5 C17_5 1_555 1_555
Cd4 O9_5 1_555 1_555
Cd2_3 O10_5 1_555 1_555
O9_5 C10_5 1_555 1_555
C7_5 C8_5 1_555 1_555
C8_5 H2_5 1_555 1_555
C9_5 H3_5 1_555 1_555
C10_5 C7_5 1_555 1_555
N1_5 Cd4 1_555 1_555
O10_5 Cd4 1_555 1_555
O11_5 Cd2_3 1_555 1_555
C11_5 H4_5 1_555 1_555
C12_5 C11_5 1_555 1_555
N2_5 Cd2_3 1_555 1_555
C13_5 C11_5 1_555 1_555
C14_5 C9_5 1_555 1_555
C15_5 O10_5 1_555 1_555
C16_5 C7_5 1_555 1_555
H5_5 C16_5 1_555 1_555
C17_5 C12_5 1_555 1_555
H6_5 C17_5 1_555 1_555
O12_5 Cd4 1_555 1_555
C18_5 C5_5 1_555 1_555
H7_5 C18_5 1_555 1_555
C19_5 C8_5 1_555 1_555
O13_5 Cd2_3 1_555 1_555
O17_3 Cd2_3 1_555 1_555
O18_3 Cd2_3 1_555 1_555
Cd6_3 O3_3 1_555 1_555
Cd9 O7_3 1_555 1_555
O4_3 Cd6_3 1_555 1_555
O8_3 Cd9 1_555 1_555
Cd2_3 O12_5 1_555 1_555
C9_5 C19_5 1_555 1_555
C10_5 O12_5 1_555 1_555
N1_5 N2_5 1_555 1_555
O11_5 C15_5 1_555 1_555
C13_5 C15_5 1_555 1_555
C13_5 C18_5 1_555 1_555
C14_5 C16_5 1_555 1_555
O13_5 H13_5 1_555 1_555
O13_5 H14_5 1_555 1_555
C6_6 H1_6 1_555 1_555
Cd8_2 N3_6 1_555 1_555
C20_6 N3_6 1_555 1_555
O14_6 Cd8_2 1_555 1_555
C22_6 C6_6 1_555 1_555
C23_6 C20_6 1_555 1_555
H9_6 C23_6 1_555 1_555
C24_6 C6_6 1_555 1_555
H10_6 C24_6 1_555 1_555
O21_4 Cd8_2 1_555 1_555
O22_4 Cd8_2 1_555 1_555
C20_6 C21_6 1_555 1_555
C21_6 C22_6 1_555 1_555
C23_6 C24_6 1_555 1_555
O14_6 H11_6 1_555 1_555
O14_6 H12_6 1_555 1_555
O15_2 C1_6 1_555 1_555
C1_6 C14_6 1_555 1_555
O17_3 C2_6 1_555 1_555
O18_3 C2_6 1_555 1_555
C2_6 C19_6 1_555 1_555
O7_4 C4_6 1_555 1_555
O8_4 C4_6 1_555 1_555
C4_6 C5_6 1_555 1_555
C5_6 C17_6 1_555 1_555
Cd4_2 O9_6 1_555 1_555
Cd6_3 O10_6 1_555 1_555
O9_6 C10_6 1_555 1_555
C7_6 C8_6 1_555 1_555
C8_6 H2_6 1_555 1_555
C9_6 H3_6 1_555 1_555
C10_6 C7_6 1_555 1_555
N1_6 Cd4_2 1_555 1_555
O10_6 Cd4_2 1_555 1_555
O11_6 Cd6_3 1_555 1_555
C11_6 H4_6 1_555 1_555
C12_6 C11_6 1_555 1_555
N2_6 Cd6_3 1_555 1_555
C13_6 C11_6 1_555 1_555
C14_6 C9_6 1_555 1_555
C15_6 O10_6 1_555 1_555
C16_6 C7_6 1_555 1_555
H5_6 C16_6 1_555 1_555
C17_6 C12_6 1_555 1_555
H6_6 C17_6 1_555 1_555
O12_6 Cd4_2 1_555 1_555
C18_6 C5_6 1_555 1_555
H7_6 C18_6 1_555 1_555
C19_6 C8_6 1_555 1_555
O13_6 Cd6_3 1_555 1_555
Cd9_2 O7_4 1_555 1_555
O8_4 Cd9_2 1_555 1_555
Cd6_3 O12_6 1_555 1_555
C9_6 C19_6 1_555 1_555
C10_6 O12_6 1_555 1_555
N1_6 N2_6 1_555 1_555
O11_6 C15_6 1_555 1_555
C13_6 C15_6 1_555 1_555
C13_6 C18_6 1_555 1_555
C14_6 C16_6 1_555 1_555
O13_6 H13_6 1_555 1_555
O13_6 H14_6 1_555 1_555
O19_4 C3_6 1_555 1_555
O20_4 C3_6 1_555 1_555
O15_3 C1_7 1_555 1_555
O16_3 C1_7 1_555 1_555
C1_7 C14_7 1_555 1_555
O3_4 C2_7 1_555 1_555
O4_4 C2_7 1_555 1_555
C2_7 C19_7 1_555 1_555
O21_3 C4_7 1_555 1_555
O22_3 C4_7 1_555 1_555
C7_7 C8_7 1_555 1_555
C8_7 H2_7 1_555 1_555
C9_7 H3_7 1_555 1_555
C14_7 C9_7 1_555 1_555
C16_7 C7_7 1_555 1_555
H5_7 C16_7 1_555 1_555
C19_7 C8_7 1_555 1_555
Cd6_4 O3_4 1_555 1_555
O4_4 Cd6_4 1_555 1_555
C9_7 C19_7 1_555 1_555
C14_7 C16_7 1_555 1_555
O19 C3_7 1_555 1_555
O20 C3_7 1_555 1_555
C3_7 C12_7 1_555 1_555
C5_7 C17_7 1_555 1_555
C6_7 H1_7 1_555 1_555
Cd5 O9_7 1_555 1_555
Cd2_4 O10_7 1_555 1_555
Cd9 N3_7 1_555 1_555
O9_7 C10_7 1_555 1_555
N1_7 Cd5 1_555 1_555
O10_7 Cd5 1_555 1_555
O11_7 Cd2_4 1_555 1_555
C11_7 H4_7 1_555 1_555
C12_7 C11_7 1_555 1_555
N2_7 Cd2_4 1_555 1_555
C13_7 C11_7 1_555 1_555
C15_7 O10_7 1_555 1_555
C17_7 C12_7 1_555 1_555
H6_7 C17_7 1_555 1_555
N3_7 N1_7 1_555 1_555
O12_7 Cd5 1_555 1_555
C18_7 C5_7 1_555 1_555
H7_7 C18_7 1_555 1_555
C20_7 N3_7 1_555 1_555
C21_7 N2_7 1_555 1_555
O13_7 Cd2_4 1_555 1_555
O14_7 Cd9 1_555 1_555
C22_7 C6_7 1_555 1_555
H8_7 C22_7 1_555 1_555
C23_7 C20_7 1_555 1_555
H9_7 C23_7 1_555 1_555
C24_7 C6_7 1_555 1_555
H10_7 C24_7 1_555 1_555
O17_4 Cd2_4 1_555 1_555
O18_4 Cd2_4 1_555 1_555
Cd2_4 O12_7 1_555 1_555
C10_7 O12_7 1_555 1_555
N1_7 N2_7 1_555 1_555
O11_7 C15_7 1_555 1_555
C13_7 C15_7 1_555 1_555
C13_7 C18_7 1_555 1_555
C20_7 C21_7 1_555 1_555
C21_7 C22_7 1_555 1_555
C23_7 C24_7 1_555 1_555
O14_7 H11_7 1_555 1_555
O14_7 H12_7 1_555 1_555
O13_7 H13_7 1_555 1_555
O13_7 H14_7 1_555 1_555
C5_8 C17_8 1_555 1_555
C6_8 H1_8 1_555 1_555
Cd5_2 O9_8 1_555 1_555
Cd6_4 O10_8 1_555 1_555
Cd9_2 N3_8 1_555 1_555
O9_8 C10_8 1_555 1_555
N1_8 Cd5_2 1_555 1_555
O10_8 Cd5_2 1_555 1_555
O11_8 Cd6_4 1_555 1_555
C11_8 H4_8 1_555 1_555
C12_8 C11_8 1_555 1_555
N2_8 Cd6_4 1_555 1_555
C13_8 C11_8 1_555 1_555
C15_8 O10_8 1_555 1_555
C17_8 C12_8 1_555 1_555
H6_8 C17_8 1_555 1_555
N3_8 N1_8 1_555 1_555
O12_8 Cd5_2 1_555 1_555
C18_8 C5_8 1_555 1_555
H7_8 C18_8 1_555 1_555
C20_8 N3_8 1_555 1_555
C21_8 N2_8 1_555 1_555
O13_8 Cd6_4 1_555 1_555
O14_8 Cd9_2 1_555 1_555
C22_8 C6_8 1_555 1_555
H8_8 C22_8 1_555 1_555
C23_8 C20_8 1_555 1_555
H9_8 C23_8 1_555 1_555
C24_8 C6_8 1_555 1_555
H10_8 C24_8 1_555 1_555
Cd6_4 O12_8 1_555 1_555
C10_8 O12_8 1_555 1_555
N1_8 N2_8 1_555 1_555
O11_8 C15_8 1_555 1_555
C13_8 C15_8 1_555 1_555
C13_8 C18_8 1_555 1_555
C20_8 C21_8 1_555 1_555
C21_8 C22_8 1_555 1_555
C23_8 C24_8 1_555 1_555
O14_8 H11_8 1_555 1_555
O14_8 H12_8 1_555 1_555
O13_8 H13_8 1_555 1_555
O13_8 H14_8 1_555 1_555
O19_2 C3_8 1_555 1_555
O20_2 C3_8 1_555 1_555
O15_4 C1_8 1_555 1_555
C1_8 C14_8 1_555 1_555
O17_4 C2_8 1_555 1_555
O18_4 C2_8 1_555 1_555
C2_8 C19_8 1_555 1_555
O21_4 C4_8 1_555 1_555
O22_4 C4_8 1_555 1_555
C7_8 C8_8 1_555 1_555
C8_8 H2_8 1_555 1_555
C9_8 H3_8 1_555 1_555
C14_8 C9_8 1_555 1_555
C16_8 C7_8 1_555 1_555
H5_8 C16_8 1_555 1_555
C19_8 C8_8 1_555 1_555
C9_8 C19_8 1_555 1_555
C14_8 C16_8 1_555 1_555

#END
