
###############################################################################
#
# This file contains modified crystal structure data generated from the
# MOF subset of the Cambridge Structural Database (CSD) v543 
# hosted by the Cambridge Crystallographic Data Centre (CCDC).
#
# This work is licensed under the Creative Commons
# Attribution-NonCommercial-ShareAlike 4.0 International License.
# To view a copy of this license, visit
# http://creativecommons.org/licenses/by-nc-sa/4.0/
# or send a letter to
# Creative Commons, PO Box 1866, Mountain View, CA 94042, USA.
#
# CIF created using the CSD Python API on 29 September 2022
# The structure has been converted into the P1 space group
# The structure has a 3D framework
# The original CSD entry HULTEP is in the rhombohedral crystal system
# The framework has been calculated to contain at least 10.0% void space
# The void calculation uses a probe of radius 1.32A, grid spacing 0.4
# The framework is charged, counterions have been retained in the structure
#
###############################################################################

data_HULTEP
_chemical_formula_moiety         '(C180 H144 B24 Co9 F60 N108 6-)n'
_symmetry_cell_setting           triclinic
_symmetry_space_group_name_H-M   'P 1'
_symmetry_Int_Tables_number      1
_space_group_name_Hall           'P 1'
loop_
_symmetry_equiv_pos_site_id
_symmetry_equiv_pos_as_xyz
1 x,y,z
_cell_length_a                   13.717(4)
_cell_length_b                   13.717(4)
_cell_length_c                   58.97(2)
_cell_angle_alpha                90
_cell_angle_beta                 90
_cell_angle_gamma                120
_cell_volume                     9609.04
loop_
_atom_site_label
_atom_site_type_symbol
_atom_site_fract_x
_atom_site_fract_y
_atom_site_fract_z
B1 B 0.6667 0.3333 0.0377(5)
F1 F 0.7705(5) 0.3615(5) 0.03878(14)
F2 F 0.6667 0.3333 0.0147(4)
F3 F 0.6385(5) 0.4090(7) 0.03878(14)
F4 F 0.5910(7) 0.2295(5) 0.03878(14)
B1_2 B 0.3333 0.6667 0.4623(5)
F1_2 F 0.3615(5) 0.7705(5) 0.46122(14)
F2_2 F 0.3333 0.6667 0.4853(4)
F3_2 F 0.4090(7) 0.6385(5) 0.46122(14)
F4_2 F 0.2295(5) 0.5910(7) 0.46122(14)
B1_3 B 0.3334 0.6666 0.3710(5)
F1_3 F 0.4372(5) 0.6948(5) 0.37211(14)
F2_3 F 0.3334 0.6666 0.3480(4)
F3_3 F 0.3052(5) 0.7423(7) 0.37211(14)
F4_3 F 0.2577(7) 0.5628(5) 0.37211(14)
B1_4 B -0.0000 0.0000 0.7956(5)
F1_4 F 0.0282(5) 0.1038(5) 0.79455(14)
F2_4 F -0.0000 0.0000 0.8186(4)
B1_5 B -0.0000 1.0000 0.7956(5)
F2_5 F -0.0000 1.0000 0.8186(4)
F3_4 F 0.0757(7) 0.9718(5) 0.79455(14)
B1_6 B 1.0000 0.0000 0.7956(5)
F2_6 F 1.0000 0.0000 0.8186(4)
B1_7 B 1.0000 1.0000 0.7956(5)
F2_7 F 1.0000 1.0000 0.8186(4)
F4_4 F 0.8962(5) 0.9243(7) 0.79455(14)
B1_8 B 0.0000 -0.0000 0.7044(5)
F1_5 F 0.1038(5) 0.0282(5) 0.70545(14)
F2_8 F 0.0000 -0.0000 0.6814(4)
B1_9 B 0.0000 1.0000 0.7044(5)
F2_9 F 0.0000 1.0000 0.6814(4)
B1_10 B 1.0000 -0.0000 0.7044(5)
F2_10 F 1.0000 -0.0000 0.6814(4)
F3_5 F 0.9718(5) 0.0757(7) 0.70545(14)
B1_11 B 1.0000 1.0000 0.7044(5)
F2_11 F 1.0000 1.0000 0.6814(4)
F4_5 F 0.9243(7) 0.8962(5) 0.70545(14)
B1_12 B 0.6666 0.3334 0.1290(5)
F1_6 F 0.6948(5) 0.4372(5) 0.12789(14)
F2_12 F 0.6666 0.3334 0.1520(4)
F3_6 F 0.7423(7) 0.3052(5) 0.12789(14)
F4_6 F 0.5628(5) 0.2577(7) 0.12789(14)
B1_13 B 0.3333 0.6667 0.9623(5)
F1_7 F 0.2295(5) 0.6385(5) 0.96122(14)
F2_13 F 0.3333 0.6667 0.9853(4)
F3_7 F 0.3615(5) 0.5910(7) 0.96122(14)
F4_7 F 0.4090(7) 0.7705(5) 0.96122(14)
B1_14 B 0.6667 0.3333 0.5377(5)
F1_8 F 0.6385(5) 0.2295(5) 0.53878(14)
F2_14 F 0.6667 0.3333 0.5147(4)
F3_8 F 0.5910(7) 0.3615(5) 0.53878(14)
F4_8 F 0.7705(5) 0.4090(7) 0.53878(14)
B1_15 B 0.6666 0.3334 0.6290(5)
F1_9 F 0.5628(5) 0.3052(5) 0.62789(14)
F2_15 F 0.6666 0.3334 0.6520(4)
F3_9 F 0.6948(5) 0.2577(7) 0.62789(14)
F4_9 F 0.7423(7) 0.4372(5) 0.62789(14)
B1_16 B 0.0000 -0.0000 0.2044(5)
F2_16 F 0.0000 -0.0000 0.1814(4)
F4_10 F 0.1038(5) 0.0757(7) 0.20545(14)
B1_17 B 0.0000 1.0000 0.2044(5)
F2_17 F 0.0000 1.0000 0.1814(4)
B1_18 B 1.0000 -0.0000 0.2044(5)
F2_18 F 1.0000 -0.0000 0.1814(4)
F3_10 F 0.9243(7) 0.0282(5) 0.20545(14)
B1_19 B 1.0000 1.0000 0.2044(5)
F1_10 F 0.9718(5) 0.8962(5) 0.20545(14)
F2_19 F 1.0000 1.0000 0.1814(4)
B1_20 B -0.0000 0.0000 0.2956(5)
F2_20 F -0.0000 0.0000 0.3186(4)
F4_11 F 0.0757(7) 0.1038(5) 0.29455(14)
B1_21 B -0.0000 1.0000 0.2956(5)
F2_21 F -0.0000 1.0000 0.3186(4)
F3_11 F 0.0282(5) 0.9243(7) 0.29455(14)
B1_22 B 1.0000 0.0000 0.2956(5)
F2_22 F 1.0000 0.0000 0.3186(4)
B1_23 B 1.0000 1.0000 0.2956(5)
F1_11 F 0.8962(5) 0.9718(5) 0.29455(14)
F2_23 F 1.0000 1.0000 0.3186(4)
B1_24 B 0.3334 0.6666 0.8710(5)
F1_12 F 0.3052(5) 0.5628(5) 0.87211(14)
F2_24 F 0.3334 0.6666 0.8480(4)
F3_12 F 0.2577(7) 0.6948(5) 0.87211(14)
F4_12 F 0.4372(5) 0.7423(7) 0.87211(14)
Co1 Co 0.0000 0.0000 0.0000
C21 C 0.1655(6) 0.1467(4) 0.03903(7)
H17 H 0.1105 0.1586 0.0455
C22 C 0.2503(8) 0.0900(6) 0.01742(9)
H18 H 0.2655 0.0541 0.0057
C23 C 0.3263(8) 0.1568(6) 0.03295(10)
H19 H 0.4010 0.1745 0.0341
C24 C 0.3175(6) 0.2665(5) 0.06584(8)
C25 C 0.4199(8) 0.2990(6) 0.07431(10)
H20 H 0.4659 0.2746 0.0679
N13 N 0.1489(4) 0.0819(3) 0.02104(5)
N14 N 0.2717(5) 0.1930(4) 0.04666(6)
N15 N 0.2516(6) 0.2998(5) 0.07378(8)
C26 C 0.3521(4) 0.5200(4) 0.12764(7)
H21 H 0.2852 0.5081 0.1212
C27 C 0.4936(5) 0.5767(6) 0.14925(9)
H22 H 0.5447 0.6126 0.1610
C28 C 0.5028(5) 0.5099(6) 0.13372(10)
H23 H 0.5598 0.4922 0.1326
C29 C 0.3843(4) 0.4002(5) 0.10083(8)
C30 C 0.4542(5) 0.3677(6) 0.09236(10)
H24 H 0.5246 0.3921 0.0988
N16 N 0.4003(3) 0.5848(3) 0.14563(5)
N17 N 0.4120(3) 0.4737(4) 0.12001(6)
N18 N 0.2851(4) 0.3669(5) 0.09289(8)
Co4 Co 0.3333 0.6667 0.1667
Co1_2 Co 0.0000 0.0000 1.0000
N20 N 0.0670(3) 0.1489(4) 0.97896(5)
Co1_3 Co 0.0000 1.0000 0.0000
H9 H 0.0481 0.8895 0.0455
N9 N 0.0482(4) 0.7484(6) 0.07378(8)
C16 C 0.1678(6) 0.6479(4) 0.12764(7)
H13 H 0.2228 0.7148 0.1212
C17 C 0.0830(8) 0.5064(5) 0.14925(9)
H14 H 0.0678 0.4553 0.1610
C18 C 0.0070(8) 0.4972(5) 0.13372(10)
C19 C 0.0158(6) 0.6157(4) 0.10083(8)
N10 N 0.1844(4) 0.5997(3) 0.14563(5)
N11 N 0.0616(5) 0.5880(3) 0.12001(6)
N12 N 0.0817(6) 0.7149(4) 0.09289(8)
Co1_4 Co 0.0000 1.0000 1.0000
N19 N 0.0819(3) 0.9330(3) 0.97896(5)
C1 C 0.8533(4) 0.0188(4) 0.03903(7)
C2 C 0.9100(6) 0.1603(5) 0.01742(9)
H2 H 0.9459 0.2114 0.0057
C3 C 0.8432(6) 0.1695(5) 0.03295(10)
H3 H 0.8255 0.2265 0.0341
C4 C 0.7335(5) 0.0510(4) 0.06584(8)
C5 C 0.7010(6) 0.1209(5) 0.07431(10)
H4 H 0.7254 0.1913 0.0679
Co1_5 Co 1.0000 0.0000 0.0000
N1 N 0.9181(3) 0.0670(3) 0.02104(5)
N2 N 0.8070(4) 0.0787(3) 0.04666(6)
H7 H 0.5078 0.0677 0.1326
C10 C 0.6323(6) 0.0866(8) 0.09236(10)
H8 H 0.6079 0.1326 0.0988
Co1_6 Co 1.0000 0.0000 1.0000
H1 H 0.8414 0.9519 0.0455
Co1_7 Co 1.0000 1.0000 0.0000
N3 N 0.7002(5) 0.9518(4) 0.07378(8)
C6 C 0.4800(4) 0.8322(6) 0.12764(7)
H5 H 0.4919 0.7772 0.1212
C7 C 0.4233(6) 0.9170(8) 0.14925(9)
H6 H 0.3874 0.9322 0.1610
C8 C 0.4901(6) 0.9930(8) 0.13372(10)
C9 C 0.5998(5) 0.9842(6) 0.10083(8)
N4 N 0.4152(3) 0.8156(4) 0.14563(5)
N5 N 0.5263(4) 0.9384(5) 0.12001(6)
N6 N 0.6331(5) 0.9183(6) 0.09289(8)
C11 C 0.9812(4) 0.8345(6) 0.03903(7)
C12 C 0.8397(5) 0.7497(8) 0.01742(9)
H10 H 0.7886 0.7345 0.0057
C13 C 0.8305(5) 0.6737(8) 0.03295(10)
H11 H 0.7735 0.5990 0.0341
C14 C 0.9490(4) 0.6825(6) 0.06584(8)
C15 C 0.8791(5) 0.5801(8) 0.07431(10)
H12 H 0.8087 0.5341 0.0679
N7 N 0.9330(3) 0.8511(4) 0.02104(5)
N8 N 0.9213(3) 0.7283(5) 0.04666(6)
H15 H 0.9323 0.4402 0.1326
C20 C 0.9134(8) 0.5458(5) 0.09236(10)
H16 H 0.8674 0.4754 0.0988
Co1_8 Co 1.0000 1.0000 1.0000
N21 N 0.8511(4) 0.9181(3) 0.97896(5)
Co1_9 Co 0.0000 0.0000 0.5000
C21_2 C 0.1467(4) 0.1655(6) 0.46097(7)
H17_2 H 0.1586 0.1105 0.4545
C22_2 C 0.0900(6) 0.2503(8) 0.48258(9)
H18_2 H 0.0541 0.2655 0.4943
C23_2 C 0.1568(6) 0.3263(8) 0.46705(10)
H19_2 H 0.1745 0.4010 0.4659
C24_2 C 0.2665(5) 0.3175(6) 0.43416(8)
C25_2 C 0.2990(6) 0.4199(8) 0.42569(10)
H20_2 H 0.2746 0.4659 0.4321
N13_2 N 0.0819(3) 0.1489(4) 0.47896(5)
N14_2 N 0.1930(4) 0.2717(5) 0.45334(6)
N15_2 N 0.2998(5) 0.2516(6) 0.42622(8)
C26_2 C 0.5200(4) 0.3521(4) 0.37236(7)
H21_2 H 0.5081 0.2852 0.3788
C27_2 C 0.5767(6) 0.4936(5) 0.35075(9)
H22_2 H 0.6126 0.5447 0.3390
C28_2 C 0.5099(6) 0.5028(5) 0.36628(10)
H23_2 H 0.4922 0.5598 0.3674
C29_2 C 0.4002(5) 0.3843(4) 0.39917(8)
C30_2 C 0.3677(6) 0.4542(5) 0.40764(10)
H24_2 H 0.3921 0.5246 0.4012
N16_2 N 0.5848(3) 0.4003(3) 0.35437(5)
N17_2 N 0.4737(4) 0.4120(3) 0.37999(6)
N18_2 N 0.3669(5) 0.2851(4) 0.40711(8)
Co4_2 Co 0.6667 0.3333 0.3333
N20_2 N 0.1489(4) 0.0670(3) 0.52104(5)
C1_2 C 0.0188(4) 0.8533(4) 0.46097(7)
C2_2 C 0.1603(5) 0.9100(6) 0.48258(9)
H2_2 H 0.2114 0.9459 0.4943
C3_2 C 0.1695(5) 0.8432(6) 0.46705(10)
H3_2 H 0.2265 0.8255 0.4659
C4_2 C 0.0510(4) 0.7335(5) 0.43416(8)
C5_2 C 0.1209(5) 0.7010(6) 0.42569(10)
H4_2 H 0.1913 0.7254 0.4321
Co1_10 Co 0.0000 1.0000 0.5000
N1_2 N 0.0670(3) 0.9181(3) 0.47896(5)
N2_2 N 0.0787(3) 0.8070(4) 0.45334(6)
H7_2 H 0.0677 0.5078 0.3674
C10_2 C 0.0866(8) 0.6323(6) 0.40764(10)
H8_2 H 0.1326 0.6079 0.4012
Co1_11 Co 1.0000 0.0000 0.5000
H9_2 H 0.8895 0.0481 0.4545
N9_2 N 0.7484(6) 0.0482(4) 0.42622(8)
C16_2 C 0.6479(4) 0.1678(6) 0.37236(7)
H13_2 H 0.7148 0.2228 0.3788
C17_2 C 0.5064(5) 0.0830(8) 0.35075(9)
H14_2 H 0.4553 0.0678 0.3390
C18_2 C 0.4972(5) 0.0070(8) 0.36628(10)
C19_2 C 0.6157(4) 0.0158(6) 0.39917(8)
N10_2 N 0.5997(3) 0.1844(4) 0.35437(5)
N11_2 N 0.5880(3) 0.0616(5) 0.37999(6)
N12_2 N 0.7149(4) 0.0817(6) 0.40711(8)
N19_2 N 0.9330(3) 0.0819(3) 0.52104(5)
H1_2 H 0.9519 0.8414 0.4545
Co1_12 Co 1.0000 1.0000 0.5000
N3_2 N 0.9518(4) 0.7002(5) 0.42622(8)
C6_2 C 0.8322(6) 0.4800(4) 0.37236(7)
H5_2 H 0.7772 0.4919 0.3788
C7_2 C 0.9170(8) 0.4233(6) 0.35075(9)
H6_2 H 0.9322 0.3874 0.3390
C8_2 C 0.9930(8) 0.4901(6) 0.36628(10)
C9_2 C 0.9842(6) 0.5998(5) 0.39917(8)
N4_2 N 0.8156(4) 0.4152(3) 0.35437(5)
N5_2 N 0.9384(5) 0.5263(4) 0.37999(6)
N6_2 N 0.9183(6) 0.6331(5) 0.40711(8)
C11_2 C 0.8345(6) 0.9812(4) 0.46097(7)
C12_2 C 0.7497(8) 0.8397(5) 0.48258(9)
H10_2 H 0.7345 0.7886 0.4943
C13_2 C 0.6737(8) 0.8305(5) 0.46705(10)
H11_2 H 0.5990 0.7735 0.4659
C14_2 C 0.6825(6) 0.9490(4) 0.43416(8)
C15_2 C 0.5801(8) 0.8791(5) 0.42569(10)
H12_2 H 0.5341 0.8087 0.4321
N7_2 N 0.8511(4) 0.9330(3) 0.47896(5)
N8_2 N 0.7283(5) 0.9213(3) 0.45334(6)
H15_2 H 0.4402 0.9323 0.3674
C20_2 C 0.5458(5) 0.9134(8) 0.40764(10)
H16_2 H 0.4754 0.8674 0.4012
N21_2 N 0.9181(3) 0.8511(4) 0.52104(5)
N19_3 N 0.7486(3) 0.2663(3) 0.31229(5)
N20_3 N 0.7337(3) 0.4822(4) 0.31229(5)
N21_3 N 0.5178(4) 0.2514(3) 0.31229(5)
C26_3 C 0.1866(4) 0.6855(4) 0.70570(7)
H21_3 H 0.1747 0.6186 0.7122
C27_3 C 0.2433(6) 0.8270(5) 0.68409(9)
H22_3 H 0.2792 0.8781 0.6724
C28_3 C 0.1765(6) 0.8362(5) 0.69962(10)
H23_3 H 0.1588 0.8932 0.7008
C29_3 C 0.0668(5) 0.7177(4) 0.73251(8)
C30_3 C 0.0343(6) 0.7876(5) 0.74098(10)
H24_3 H 0.0587 0.8580 0.7346
N16_3 N 0.2514(3) 0.7337(3) 0.68771(5)
N17_3 N 0.1403(4) 0.7454(3) 0.71333(6)
N18_3 N 0.0335(5) 0.6185(4) 0.74045(8)
Co4_3 Co 0.3333 0.6667 0.6667
C1_3 C 0.6855(4) 0.1866(4) 0.79430(7)
H1_3 H 0.6186 0.1747 0.7878
C2_3 C 0.8270(5) 0.2433(6) 0.81591(9)
H2_3 H 0.8781 0.2792 0.8276
C3_3 C 0.8362(5) 0.1765(6) 0.80038(10)
H3_3 H 0.8932 0.1588 0.7992
C4_3 C 0.7177(4) 0.0668(5) 0.76749(8)
C5_3 C 0.7876(5) 0.0343(6) 0.75902(10)
H4_3 H 0.8580 0.0587 0.7654
Co1_13 Co 0.6667 0.3333 0.8333
N1_3 N 0.7337(3) 0.2514(3) 0.81229(5)
N2_3 N 0.7454(3) 0.1403(4) 0.78667(6)
N3_3 N 0.6185(4) 0.0335(5) 0.75955(8)
C11_3 C 0.5012(6) 0.3145(4) 0.79430(7)
H9_3 H 0.5562 0.3814 0.7878
C12_3 C 0.4164(8) 0.1730(5) 0.81591(9)
H10_3 H 0.4012 0.1219 0.8276
C13_3 C 0.3404(8) 0.1638(5) 0.80038(10)
H11_3 H 0.2657 0.1068 0.7992
C14_3 C 0.3492(6) 0.2823(4) 0.76749(8)
C15_3 C 0.2468(8) 0.2124(5) 0.75902(10)
H12_3 H 0.2008 0.1420 0.7654
N7_3 N 0.5178(4) 0.2663(3) 0.81229(5)
N8_3 N 0.3950(5) 0.2546(3) 0.78667(6)
N9_3 N 0.4151(6) 0.3815(4) 0.75955(8)
C16_3 C 0.3145(4) 0.5012(6) 0.70570(7)
H13_3 H 0.3814 0.5562 0.7122
C17_3 C 0.1730(5) 0.4164(8) 0.68409(9)
H14_3 H 0.1219 0.4012 0.6724
C18_3 C 0.1638(5) 0.3404(8) 0.69962(10)
H15_3 H 0.1068 0.2657 0.7008
C19_3 C 0.2823(4) 0.3492(6) 0.73251(8)
C20_3 C 0.2124(5) 0.2468(8) 0.74098(10)
H16_3 H 0.1420 0.2008 0.7346
N10_3 N 0.2663(3) 0.5178(4) 0.68771(5)
N11_3 N 0.2546(3) 0.3950(5) 0.71333(6)
N12_3 N 0.3815(4) 0.4151(6) 0.74045(8)
C21_3 C 0.8134(4) 0.4988(6) 0.79430(7)
H17_3 H 0.8253 0.4438 0.7878
C22_3 C 0.7567(6) 0.5836(8) 0.81591(9)
H18_3 H 0.7208 0.5988 0.8276
C23_3 C 0.8235(6) 0.6596(8) 0.80038(10)
H19_3 H 0.8412 0.7343 0.7992
C24_3 C 0.9332(5) 0.6508(6) 0.76749(8)
C25_3 C 0.9657(6) 0.7532(8) 0.75902(10)
H20_3 H 0.9413 0.7992 0.7654
N13_3 N 0.7486(3) 0.4822(4) 0.81229(5)
N14_3 N 0.8597(4) 0.6050(5) 0.78667(6)
N15_3 N 0.9665(5) 0.5849(6) 0.75955(8)
N19_4 N 0.5997(3) 0.4152(3) 0.85437(5)
N20_4 N 0.8156(4) 0.4003(3) 0.85437(5)
N21_4 N 0.5848(3) 0.1844(4) 0.85437(5)
C6_3 C 0.4988(6) 0.8134(4) 0.70570(7)
H5_3 H 0.4438 0.8253 0.7122
C7_3 C 0.5836(8) 0.7567(6) 0.68409(9)
H6_3 H 0.5988 0.7208 0.6724
C8_3 C 0.6596(8) 0.8235(6) 0.69962(10)
H7_3 H 0.7343 0.8412 0.7008
C9_3 C 0.6508(6) 0.9332(5) 0.73251(8)
C10_3 C 0.7532(8) 0.9657(6) 0.74098(10)
H8_3 H 0.7992 0.9413 0.7346
N4_3 N 0.4822(4) 0.7486(3) 0.68771(5)
N5_3 N 0.6050(5) 0.8597(4) 0.71333(6)
N6_3 N 0.5849(6) 0.9665(5) 0.74045(8)
N19_5 N 0.4152(3) 0.5997(3) 0.64563(5)
N20_5 N 0.4003(3) 0.8156(4) 0.64563(5)
N21_5 N 0.1844(4) 0.5848(3) 0.64563(5)
N19_6 N 0.2663(3) 0.7486(3) 0.18771(5)
N20_6 N 0.4822(4) 0.7337(3) 0.18771(5)
N21_6 N 0.2514(3) 0.5178(4) 0.18771(5)
H1_4 H 0.1586 0.0481 0.9545
N3_4 N 0.2998(5) 0.0482(4) 0.92622(8)
C6_4 C 0.5200(4) 0.1678(6) 0.87236(7)
H5_4 H 0.5081 0.2228 0.8788
C7_4 C 0.5767(6) 0.0830(8) 0.85075(9)
H6_4 H 0.6126 0.0678 0.8390
C8_4 C 0.5099(6) 0.0070(8) 0.86628(10)
C9_4 C 0.4002(5) 0.0158(6) 0.89917(8)
N5_4 N 0.4737(4) 0.0616(5) 0.87999(6)
N6_4 N 0.3669(5) 0.0817(6) 0.90711(8)
C11_4 C 0.0188(4) 0.1655(6) 0.96097(7)
C12_4 C 0.1603(5) 0.2503(8) 0.98258(9)
H10_4 H 0.2114 0.2655 0.9943
C13_4 C 0.1695(5) 0.3263(8) 0.96705(10)
H11_4 H 0.2265 0.4010 0.9659
C14_4 C 0.0510(4) 0.3175(6) 0.93416(8)
C15_4 C 0.1209(5) 0.4199(8) 0.92569(10)
H12_4 H 0.1913 0.4659 0.9321
N8_4 N 0.0787(3) 0.2717(5) 0.95334(6)
H15_4 H 0.0677 0.5598 0.8674
C20_4 C 0.0866(8) 0.4542(5) 0.90764(10)
H16_4 H 0.1326 0.5246 0.9012
C1_4 C 0.1467(4) 0.9812(4) 0.96097(7)
C2_4 C 0.0900(6) 0.8397(5) 0.98258(9)
H2_4 H 0.0541 0.7886 0.9943
C3_4 C 0.1568(6) 0.8305(5) 0.96705(10)
H3_4 H 0.1745 0.7735 0.9659
C4_4 C 0.2665(5) 0.9490(4) 0.93416(8)
C5_4 C 0.2990(6) 0.8791(5) 0.92569(10)
H4_4 H 0.2746 0.8087 0.9321
N2_4 N 0.1930(4) 0.9213(3) 0.95334(6)
H7_4 H 0.4922 0.9323 0.8674
C10_4 C 0.3677(6) 0.9134(8) 0.90764(10)
H8_4 H 0.3921 0.8674 0.9012
H9_4 H 0.9519 0.1105 0.9545
N9_4 N 0.9518(4) 0.2516(6) 0.92622(8)
C16_4 C 0.8322(6) 0.3521(4) 0.87236(7)
H13_4 H 0.7772 0.2852 0.8788
C17_4 C 0.9170(8) 0.4936(5) 0.85075(9)
H14_4 H 0.9322 0.5447 0.8390
C18_4 C 0.9930(8) 0.5028(5) 0.86628(10)
C19_4 C 0.9842(6) 0.3843(4) 0.89917(8)
N11_4 N 0.9384(5) 0.4120(3) 0.87999(6)
N12_4 N 0.9183(6) 0.2851(4) 0.90711(8)
C21_4 C 0.8345(6) 0.8533(4) 0.96097(7)
H17_4 H 0.8895 0.8414 0.9545
C22_4 C 0.7497(8) 0.9100(6) 0.98258(9)
H18_4 H 0.7345 0.9459 0.9943
C23_4 C 0.6737(8) 0.8432(6) 0.96705(10)
H19_4 H 0.5990 0.8255 0.9659
C24_4 C 0.6825(6) 0.7335(5) 0.93416(8)
C25_4 C 0.5801(8) 0.7010(6) 0.92569(10)
H20_4 H 0.5341 0.7254 0.9321
N14_4 N 0.7283(5) 0.8070(4) 0.95334(6)
N15_4 N 0.7484(6) 0.7002(5) 0.92622(8)
C26_4 C 0.6479(4) 0.4800(4) 0.87236(7)
H21_4 H 0.7148 0.4919 0.8788
C27_4 C 0.5064(5) 0.4233(6) 0.85075(9)
H22_4 H 0.4553 0.3874 0.8390
C28_4 C 0.4972(5) 0.4901(6) 0.86628(10)
H23_4 H 0.4402 0.5078 0.8674
C29_4 C 0.6157(4) 0.5998(5) 0.89917(8)
C30_4 C 0.5458(5) 0.6323(6) 0.90764(10)
H24_4 H 0.4754 0.6079 0.9012
N17_4 N 0.5880(3) 0.5263(4) 0.87999(6)
N18_4 N 0.7149(4) 0.6331(5) 0.90711(8)
H1_5 H 0.0481 0.1586 0.5455
N3_5 N 0.0482(4) 0.2998(5) 0.57378(8)
C6_5 C 0.1678(6) 0.5200(4) 0.62764(7)
H5_5 H 0.2228 0.5081 0.6212
C7_5 C 0.0830(8) 0.5767(6) 0.64925(9)
H6_5 H 0.0678 0.6126 0.6610
C8_5 C 0.0070(8) 0.5099(6) 0.63372(10)
C9_5 C 0.0158(6) 0.4002(5) 0.60083(8)
N5_5 N 0.0616(5) 0.4737(4) 0.62001(6)
N6_5 N 0.0817(6) 0.3669(5) 0.59289(8)
C11_5 C 0.1655(6) 0.0188(4) 0.53903(7)
C12_5 C 0.2503(8) 0.1603(5) 0.51742(9)
H10_5 H 0.2655 0.2114 0.5057
C13_5 C 0.3263(8) 0.1695(5) 0.53295(10)
H11_5 H 0.4010 0.2265 0.5341
C14_5 C 0.3175(6) 0.0510(4) 0.56584(8)
C15_5 C 0.4199(8) 0.1209(5) 0.57431(10)
H12_5 H 0.4659 0.1913 0.5679
N8_5 N 0.2717(5) 0.0787(3) 0.54666(6)
H15_5 H 0.5598 0.0677 0.6326
C20_5 C 0.4542(5) 0.0866(8) 0.59236(10)
H16_5 H 0.5246 0.1326 0.5988
H9_5 H 0.1105 0.9519 0.5455
N9_5 N 0.2516(6) 0.9518(4) 0.57378(8)
C16_5 C 0.3521(4) 0.8322(6) 0.62764(7)
H13_5 H 0.2852 0.7772 0.6212
C17_5 C 0.4936(5) 0.9170(8) 0.64925(9)
H14_5 H 0.5447 0.9322 0.6610
C18_5 C 0.5028(5) 0.9930(8) 0.63372(10)
C19_5 C 0.3843(4) 0.9842(6) 0.60083(8)
N11_5 N 0.4120(3) 0.9384(5) 0.62001(6)
N12_5 N 0.2851(4) 0.9183(6) 0.59289(8)
C1_5 C 0.9812(4) 0.1467(4) 0.53903(7)
C2_5 C 0.8397(5) 0.0900(6) 0.51742(9)
H2_5 H 0.7886 0.0541 0.5057
C3_5 C 0.8305(5) 0.1568(6) 0.53295(10)
H3_5 H 0.7735 0.1745 0.5341
C4_5 C 0.9490(4) 0.2665(5) 0.56584(8)
C5_5 C 0.8791(5) 0.2990(6) 0.57431(10)
H4_5 H 0.8087 0.2746 0.5679
N2_5 N 0.9213(3) 0.1930(4) 0.54666(6)
H7_5 H 0.9323 0.4922 0.6326
C10_5 C 0.9134(8) 0.3677(6) 0.59236(10)
H8_5 H 0.8674 0.3921 0.5988
C21_5 C 0.8533(4) 0.8345(6) 0.53903(7)
H17_5 H 0.8414 0.8895 0.5455
C22_5 C 0.9100(6) 0.7497(8) 0.51742(9)
H18_5 H 0.9459 0.7345 0.5057
C23_5 C 0.8432(6) 0.6737(8) 0.53295(10)
H19_5 H 0.8255 0.5990 0.5341
C24_5 C 0.7335(5) 0.6825(6) 0.56584(8)
C25_5 C 0.7010(6) 0.5801(8) 0.57431(10)
H20_5 H 0.7254 0.5341 0.5679
N14_5 N 0.8070(4) 0.7283(5) 0.54666(6)
N15_5 N 0.7002(5) 0.7484(6) 0.57378(8)
C26_5 C 0.4800(4) 0.6479(4) 0.62764(7)
H21_5 H 0.4919 0.7148 0.6212
C27_5 C 0.4233(6) 0.5064(5) 0.64925(9)
H22_5 H 0.3874 0.4553 0.6610
C28_5 C 0.4901(6) 0.4972(5) 0.63372(10)
H23_5 H 0.5078 0.4402 0.6326
C29_5 C 0.5998(5) 0.6157(4) 0.60083(8)
C30_5 C 0.6323(6) 0.5458(5) 0.59236(10)
H24_5 H 0.6079 0.4754 0.5988
N17_5 N 0.5263(4) 0.5880(3) 0.62001(6)
N18_5 N 0.6331(5) 0.7149(4) 0.59289(8)
C6_6 C 0.5012(6) 0.1866(4) 0.29430(7)
H5_6 H 0.5562 0.1747 0.2878
C7_6 C 0.4164(8) 0.2433(6) 0.31591(9)
H6_6 H 0.4012 0.2792 0.3276
C8_6 C 0.3404(8) 0.1765(6) 0.30038(10)
H7_6 H 0.2657 0.1588 0.2992
C9_6 C 0.3492(6) 0.0668(5) 0.26749(8)
C10_6 C 0.2468(8) 0.0343(6) 0.25902(10)
H8_6 H 0.2008 0.0587 0.2654
N5_6 N 0.3950(5) 0.1403(4) 0.28667(6)
N6_6 N 0.4151(6) 0.0335(5) 0.25955(8)
C1_6 C 0.3145(4) 0.8134(4) 0.20570(7)
H1_6 H 0.3814 0.8253 0.2122
C2_6 C 0.1730(5) 0.7567(6) 0.18409(9)
H2_6 H 0.1219 0.7208 0.1724
C3_6 C 0.1638(5) 0.8235(6) 0.19962(10)
H3_6 H 0.1068 0.8412 0.2008
C4_6 C 0.2823(4) 0.9332(5) 0.23251(8)
C5_6 C 0.2124(5) 0.9657(6) 0.24098(10)
H4_6 H 0.1420 0.9413 0.2346
N2_6 N 0.2546(3) 0.8597(4) 0.21333(6)
N3_6 N 0.3815(4) 0.9665(5) 0.24045(8)
C11_6 C 0.4988(6) 0.6855(4) 0.20570(7)
H9_6 H 0.4438 0.6186 0.2122
C12_6 C 0.5836(8) 0.8270(5) 0.18409(9)
H10_6 H 0.5988 0.8781 0.1724
C13_6 C 0.6596(8) 0.8362(5) 0.19962(10)
H11_6 H 0.7343 0.8932 0.2008
C14_6 C 0.6508(6) 0.7177(4) 0.23251(8)
C15_6 C 0.7532(8) 0.7876(5) 0.24098(10)
H12_6 H 0.7992 0.8580 0.2346
N8_6 N 0.6050(5) 0.7454(3) 0.21333(6)
N9_6 N 0.5849(6) 0.6185(4) 0.24045(8)
C16_6 C 0.6855(4) 0.4988(6) 0.29430(7)
H13_6 H 0.6186 0.4438 0.2878
C17_6 C 0.8270(5) 0.5836(8) 0.31591(9)
H14_6 H 0.8781 0.5988 0.3276
C18_6 C 0.8362(5) 0.6596(8) 0.30038(10)
H15_6 H 0.8932 0.7343 0.2992
C19_6 C 0.7177(4) 0.6508(6) 0.26749(8)
C20_6 C 0.7876(5) 0.7532(8) 0.25902(10)
H16_6 H 0.8580 0.7992 0.2654
N11_6 N 0.7454(3) 0.6050(5) 0.28667(6)
N12_6 N 0.6185(4) 0.5849(6) 0.25955(8)
C21_6 C 0.1866(4) 0.5012(6) 0.20570(7)
H17_6 H 0.1747 0.5562 0.2122
C22_6 C 0.2433(6) 0.4164(8) 0.18409(9)
H18_6 H 0.2792 0.4012 0.1724
C23_6 C 0.1765(6) 0.3404(8) 0.19962(10)
H19_6 H 0.1588 0.2657 0.2008
C24_6 C 0.0668(5) 0.3492(6) 0.23251(8)
C25_6 C 0.0343(6) 0.2468(8) 0.24098(10)
H20_6 H 0.0587 0.2008 0.2346
N14_6 N 0.1403(4) 0.3950(5) 0.21333(6)
N15_6 N 0.0335(5) 0.4151(6) 0.24045(8)
C26_6 C 0.8134(4) 0.3145(4) 0.29430(7)
H21_6 H 0.8253 0.3814 0.2878
C27_6 C 0.7567(6) 0.1730(5) 0.31591(9)
H22_6 H 0.7208 0.1219 0.3276
C28_6 C 0.8235(6) 0.1638(5) 0.30038(10)
H23_6 H 0.8412 0.1068 0.2992
C29_6 C 0.9332(5) 0.2823(4) 0.26749(8)
C30_6 C 0.9657(6) 0.2124(5) 0.25902(10)
H24_6 H 0.9413 0.1420 0.2654
N17_6 N 0.8597(4) 0.2546(3) 0.28667(6)
N18_6 N 0.9665(5) 0.3815(4) 0.25955(8)
loop_
_geom_bond_atom_site_label_1
_geom_bond_atom_site_label_2
_geom_bond_site_symmetry_1
_geom_bond_site_symmetry_2
B1 F1 1_555 1_555
F2 B1 1_555 1_555
F3 B1 1_555 1_555
F4 B1 1_555 1_555
B1_2 F1_2 1_555 1_555
F2_2 B1_2 1_555 1_555
F3_2 B1_2 1_555 1_555
F4_2 B1_2 1_555 1_555
B1_3 F1_3 1_555 1_555
F2_3 B1_3 1_555 1_555
F3_3 B1_3 1_555 1_555
F4_3 B1_3 1_555 1_555
B1_4 F1_4 1_555 1_555
F2_4 B1_4 1_555 1_555
F2_5 B1_5 1_555 1_555
F3_4 B1_5 1_555 1_555
F2_6 B1_6 1_555 1_555
F2_7 B1_7 1_555 1_555
F4_4 B1_7 1_555 1_555
B1_8 F1_5 1_555 1_555
F2_8 B1_8 1_555 1_555
F2_9 B1_9 1_555 1_555
F2_10 B1_10 1_555 1_555
F3_5 B1_10 1_555 1_555
F2_11 B1_11 1_555 1_555
F4_5 B1_11 1_555 1_555
B1_12 F1_6 1_555 1_555
F2_12 B1_12 1_555 1_555
F3_6 B1_12 1_555 1_555
F4_6 B1_12 1_555 1_555
B1_13 F1_7 1_555 1_555
F2_13 B1_13 1_555 1_555
F3_7 B1_13 1_555 1_555
F4_7 B1_13 1_555 1_555
B1_14 F1_8 1_555 1_555
F2_14 B1_14 1_555 1_555
F3_8 B1_14 1_555 1_555
F4_8 B1_14 1_555 1_555
B1_15 F1_9 1_555 1_555
F2_15 B1_15 1_555 1_555
F3_9 B1_15 1_555 1_555
F4_9 B1_15 1_555 1_555
F2_16 B1_16 1_555 1_555
F4_10 B1_16 1_555 1_555
F2_17 B1_17 1_555 1_555
F2_18 B1_18 1_555 1_555
F3_10 B1_18 1_555 1_555
B1_19 F1_10 1_555 1_555
F2_19 B1_19 1_555 1_555
F2_20 B1_20 1_555 1_555
F4_11 B1_20 1_555 1_555
F2_21 B1_21 1_555 1_555
F3_11 B1_21 1_555 1_555
F2_22 B1_22 1_555 1_555
B1_23 F1_11 1_555 1_555
F2_23 B1_23 1_555 1_555
B1_24 F1_12 1_555 1_555
F2_24 B1_24 1_555 1_555
F3_12 B1_24 1_555 1_555
F4_12 B1_24 1_555 1_555
C21 H17 1_555 1_555
C22 H18 1_555 1_555
C23 C22 1_555 1_555
H19 C23 1_555 1_555
C24 C25 1_555 1_555
C25 H20 1_555 1_555
N13 Co1 1_555 1_555
N14 C21 1_555 1_555
N15 C24 1_555 1_555
C26 H21 1_555 1_555
C27 H22 1_555 1_555
C28 C27 1_555 1_555
H23 C28 1_555 1_555
C29 C30 1_555 1_555
C30 C25 1_555 1_555
H24 C30 1_555 1_555
N16 C26 1_555 1_555
N17 C26 1_555 1_555
N18 N15 1_555 1_555
Co4 N16 1_555 1_555
C21 N13 1_555 1_555
C22 N13 1_555 1_555
C23 N14 1_555 1_555
C24 N14 1_555 1_555
C27 N16 1_555 1_555
C28 N17 1_555 1_555
C29 N17 1_555 1_555
C29 N18 1_555 1_555
N20 Co1_2 1_555 1_555
C16 H13 1_555 1_555
C17 H14 1_555 1_555
C18 C17 1_555 1_555
N10 C16 1_555 1_555
N11 C16 1_555 1_555
N12 N9 1_555 1_555
Co4 N10 1_555 1_555
C17 N10 1_555 1_555
C18 N11 1_555 1_555
C19 N11 1_555 1_555
C19 N12 1_555 1_555
N19 Co1_4 1_555 1_555
C2 H2 1_555 1_555
C3 C2 1_555 1_555
H3 C3 1_555 1_555
C4 C5 1_555 1_555
C5 H4 1_555 1_555
Co1_5 N1 1_555 1_555
N1 C1 1_555 1_555
N2 C1 1_555 1_555
C10 C5 1_555 1_555
H8 C10 1_555 1_555
C2 N1 1_555 1_555
C3 N2 1_555 1_555
C4 N2 1_555 1_555
C6 H5 1_555 1_555
C7 H6 1_555 1_555
C8 C7 1_555 1_555
N4 C6 1_555 1_555
N5 C6 1_555 1_555
N6 N3 1_555 1_555
C12 H10 1_555 1_555
C13 C12 1_555 1_555
H11 C13 1_555 1_555
C14 C15 1_555 1_555
C15 H12 1_555 1_555
N7 Co1_7 1_555 1_555
N8 C11 1_555 1_555
C20 C15 1_555 1_555
H16 C20 1_555 1_555
Co4 N4 1_555 1_555
C7 N4 1_555 1_555
C8 N5 1_555 1_555
C9 N5 1_555 1_555
C9 N6 1_555 1_555
C11 N7 1_555 1_555
C12 N7 1_555 1_555
C13 N8 1_555 1_555
C14 N8 1_555 1_555
N21 Co1_8 1_555 1_555
C21_2 H17_2 1_555 1_555
C22_2 H18_2 1_555 1_555
C23_2 C22_2 1_555 1_555
H19_2 C23_2 1_555 1_555
C24_2 C25_2 1_555 1_555
C25_2 H20_2 1_555 1_555
N13_2 Co1_9 1_555 1_555
N14_2 C21_2 1_555 1_555
N15_2 C24_2 1_555 1_555
C26_2 H21_2 1_555 1_555
C27_2 H22_2 1_555 1_555
C28_2 C27_2 1_555 1_555
H23_2 C28_2 1_555 1_555
C29_2 C30_2 1_555 1_555
C30_2 C25_2 1_555 1_555
H24_2 C30_2 1_555 1_555
N16_2 C26_2 1_555 1_555
N17_2 C26_2 1_555 1_555
N18_2 N15_2 1_555 1_555
Co4_2 N16_2 1_555 1_555
N20_2 Co1_9 1_555 1_555
C21_2 N13_2 1_555 1_555
C22_2 N13_2 1_555 1_555
C23_2 N14_2 1_555 1_555
C24_2 N14_2 1_555 1_555
C27_2 N16_2 1_555 1_555
C28_2 N17_2 1_555 1_555
C29_2 N17_2 1_555 1_555
C29_2 N18_2 1_555 1_555
C2_2 H2_2 1_555 1_555
C3_2 C2_2 1_555 1_555
H3_2 C3_2 1_555 1_555
C4_2 C5_2 1_555 1_555
C5_2 H4_2 1_555 1_555
Co1_10 N1_2 1_555 1_555
N1_2 C1_2 1_555 1_555
N2_2 C1_2 1_555 1_555
C10_2 C5_2 1_555 1_555
H8_2 C10_2 1_555 1_555
C2_2 N1_2 1_555 1_555
C3_2 N2_2 1_555 1_555
C4_2 N2_2 1_555 1_555
C16_2 H13_2 1_555 1_555
C17_2 H14_2 1_555 1_555
C18_2 C17_2 1_555 1_555
N10_2 C16_2 1_555 1_555
N11_2 C16_2 1_555 1_555
N12_2 N9_2 1_555 1_555
Co4_2 N10_2 1_555 1_555
N19_2 Co1_11 1_555 1_555
C17_2 N10_2 1_555 1_555
C18_2 N11_2 1_555 1_555
C19_2 N11_2 1_555 1_555
C19_2 N12_2 1_555 1_555
C6_2 H5_2 1_555 1_555
C7_2 H6_2 1_555 1_555
C8_2 C7_2 1_555 1_555
N4_2 C6_2 1_555 1_555
N5_2 C6_2 1_555 1_555
N6_2 N3_2 1_555 1_555
C12_2 H10_2 1_555 1_555
C13_2 C12_2 1_555 1_555
H11_2 C13_2 1_555 1_555
C14_2 C15_2 1_555 1_555
C15_2 H12_2 1_555 1_555
N7_2 Co1_12 1_555 1_555
N8_2 C11_2 1_555 1_555
C20_2 C15_2 1_555 1_555
H16_2 C20_2 1_555 1_555
Co4_2 N4_2 1_555 1_555
N21_2 Co1_12 1_555 1_555
C7_2 N4_2 1_555 1_555
C8_2 N5_2 1_555 1_555
C9_2 N5_2 1_555 1_555
C9_2 N6_2 1_555 1_555
C11_2 N7_2 1_555 1_555
C12_2 N7_2 1_555 1_555
C13_2 N8_2 1_555 1_555
C14_2 N8_2 1_555 1_555
N19_3 Co4_2 1_555 1_555
N20_3 Co4_2 1_555 1_555
N21_3 Co4_2 1_555 1_555
C26_3 H21_3 1_555 1_555
C27_3 H22_3 1_555 1_555
C28_3 C27_3 1_555 1_555
H23_3 C28_3 1_555 1_555
C29_3 C30_3 1_555 1_555
H24_3 C30_3 1_555 1_555
N16_3 C26_3 1_555 1_555
N17_3 C26_3 1_555 1_555
Co4_3 N16_3 1_555 1_555
C27_3 N16_3 1_555 1_555
C28_3 N17_3 1_555 1_555
C29_3 N17_3 1_555 1_555
C29_3 N18_3 1_555 1_555
C1_3 H1_3 1_555 1_555
C2_3 H2_3 1_555 1_555
C3_3 C2_3 1_555 1_555
H3_3 C3_3 1_555 1_555
C4_3 C5_3 1_555 1_555
C5_3 H4_3 1_555 1_555
Co1_13 N1_3 1_555 1_555
N1_3 C1_3 1_555 1_555
N2_3 C1_3 1_555 1_555
N3_3 C4_3 1_555 1_555
C11_3 H9_3 1_555 1_555
C12_3 H10_3 1_555 1_555
C13_3 C12_3 1_555 1_555
H11_3 C13_3 1_555 1_555
C14_3 C15_3 1_555 1_555
C15_3 H12_3 1_555 1_555
N7_3 Co1_13 1_555 1_555
N8_3 C11_3 1_555 1_555
N9_3 C14_3 1_555 1_555
C16_3 H13_3 1_555 1_555
C17_3 H14_3 1_555 1_555
C18_3 C17_3 1_555 1_555
H15_3 C18_3 1_555 1_555
C19_3 C20_3 1_555 1_555
C20_3 C15_3 1_555 1_555
H16_3 C20_3 1_555 1_555
N10_3 C16_3 1_555 1_555
N11_3 C16_3 1_555 1_555
N12_3 N9_3 1_555 1_555
C21_3 H17_3 1_555 1_555
C22_3 H18_3 1_555 1_555
C23_3 C22_3 1_555 1_555
H19_3 C23_3 1_555 1_555
C24_3 C25_3 1_555 1_555
C25_3 H20_3 1_555 1_555
N13_3 Co1_13 1_555 1_555
N14_3 C21_3 1_555 1_555
N15_3 C24_3 1_555 1_555
Co4_3 N10_3 1_555 1_555
N19_4 Co1_13 1_555 1_555
N20_4 Co1_13 1_555 1_555
N21_4 Co1_13 1_555 1_555
C2_3 N1_3 1_555 1_555
C3_3 N2_3 1_555 1_555
C4_3 N2_3 1_555 1_555
C11_3 N7_3 1_555 1_555
C12_3 N7_3 1_555 1_555
C13_3 N8_3 1_555 1_555
C14_3 N8_3 1_555 1_555
C17_3 N10_3 1_555 1_555
C18_3 N11_3 1_555 1_555
C19_3 N11_3 1_555 1_555
C19_3 N12_3 1_555 1_555
C21_3 N13_3 1_555 1_555
C22_3 N13_3 1_555 1_555
C23_3 N14_3 1_555 1_555
C24_3 N14_3 1_555 1_555
C6_3 H5_3 1_555 1_555
C7_3 H6_3 1_555 1_555
C8_3 C7_3 1_555 1_555
H7_3 C8_3 1_555 1_555
C9_3 C10_3 1_555 1_555
H8_3 C10_3 1_555 1_555
N4_3 C6_3 1_555 1_555
N5_3 C6_3 1_555 1_555
Co4_3 N4_3 1_555 1_555
C7_3 N4_3 1_555 1_555
C8_3 N5_3 1_555 1_555
C9_3 N5_3 1_555 1_555
C9_3 N6_3 1_555 1_555
N19_5 Co4_3 1_555 1_555
N20_5 Co4_3 1_555 1_555
N21_5 Co4_3 1_555 1_555
N19_6 Co4 1_555 1_555
N20_6 Co4 1_555 1_555
N21_6 Co4 1_555 1_555
C6_4 H5_4 1_555 1_555
C7_4 H6_4 1_555 1_555
C8_4 C7_4 1_555 1_555
N21_4 C6_4 1_555 1_555
N5_4 C6_4 1_555 1_555
N6_4 N3_4 1_555 1_555
C12_4 H10_4 1_555 1_555
C13_4 C12_4 1_555 1_555
H11_4 C13_4 1_555 1_555
C14_4 C15_4 1_555 1_555
C15_4 H12_4 1_555 1_555
N8_4 C11_4 1_555 1_555
C20_4 C15_4 1_555 1_555
H16_4 C20_4 1_555 1_555
C7_4 N21_4 1_555 1_555
C8_4 N5_4 1_555 1_555
C9_4 N5_4 1_555 1_555
C9_4 N6_4 1_555 1_555
C11_4 N20 1_555 1_555
C12_4 N20 1_555 1_555
C13_4 N8_4 1_555 1_555
C14_4 N8_4 1_555 1_555
C2_4 H2_4 1_555 1_555
C3_4 C2_4 1_555 1_555
H3_4 C3_4 1_555 1_555
C4_4 C5_4 1_555 1_555
C5_4 H4_4 1_555 1_555
N19 C1_4 1_555 1_555
N2_4 C1_4 1_555 1_555
C10_4 C5_4 1_555 1_555
H8_4 C10_4 1_555 1_555
C2_4 N19 1_555 1_555
C3_4 N2_4 1_555 1_555
C4_4 N2_4 1_555 1_555
C16_4 H13_4 1_555 1_555
C17_4 H14_4 1_555 1_555
C18_4 C17_4 1_555 1_555
N20_4 C16_4 1_555 1_555
N11_4 C16_4 1_555 1_555
N12_4 N9_4 1_555 1_555
C17_4 N20_4 1_555 1_555
C18_4 N11_4 1_555 1_555
C19_4 N11_4 1_555 1_555
C19_4 N12_4 1_555 1_555
C21_4 H17_4 1_555 1_555
C22_4 H18_4 1_555 1_555
C23_4 C22_4 1_555 1_555
H19_4 C23_4 1_555 1_555
C24_4 C25_4 1_555 1_555
C25_4 H20_4 1_555 1_555
N14_4 C21_4 1_555 1_555
N15_4 C24_4 1_555 1_555
C26_4 H21_4 1_555 1_555
C27_4 H22_4 1_555 1_555
C28_4 C27_4 1_555 1_555
H23_4 C28_4 1_555 1_555
C29_4 C30_4 1_555 1_555
C30_4 C25_4 1_555 1_555
H24_4 C30_4 1_555 1_555
N19_4 C26_4 1_555 1_555
N17_4 C26_4 1_555 1_555
N18_4 N15_4 1_555 1_555
C21_4 N21 1_555 1_555
C22_4 N21 1_555 1_555
C23_4 N14_4 1_555 1_555
C24_4 N14_4 1_555 1_555
C27_4 N19_4 1_555 1_555
C28_4 N17_4 1_555 1_555
C29_4 N17_4 1_555 1_555
C29_4 N18_4 1_555 1_555
C6_5 H5_5 1_555 1_555
C7_5 H6_5 1_555 1_555
C8_5 C7_5 1_555 1_555
N21_5 C6_5 1_555 1_555
N5_5 C6_5 1_555 1_555
N6_5 N3_5 1_555 1_555
C12_5 H10_5 1_555 1_555
C13_5 C12_5 1_555 1_555
H11_5 C13_5 1_555 1_555
C14_5 C15_5 1_555 1_555
C15_5 H12_5 1_555 1_555
N8_5 C11_5 1_555 1_555
C20_5 C15_5 1_555 1_555
H16_5 C20_5 1_555 1_555
C7_5 N21_5 1_555 1_555
C8_5 N5_5 1_555 1_555
C9_5 N5_5 1_555 1_555
C9_5 N6_5 1_555 1_555
C11_5 N20_2 1_555 1_555
C12_5 N20_2 1_555 1_555
C13_5 N8_5 1_555 1_555
C14_5 N8_5 1_555 1_555
C16_5 H13_5 1_555 1_555
C17_5 H14_5 1_555 1_555
C18_5 C17_5 1_555 1_555
N20_5 C16_5 1_555 1_555
N11_5 C16_5 1_555 1_555
N12_5 N9_5 1_555 1_555
C17_5 N20_5 1_555 1_555
C18_5 N11_5 1_555 1_555
C19_5 N11_5 1_555 1_555
C19_5 N12_5 1_555 1_555
C2_5 H2_5 1_555 1_555
C3_5 C2_5 1_555 1_555
H3_5 C3_5 1_555 1_555
C4_5 C5_5 1_555 1_555
C5_5 H4_5 1_555 1_555
N19_2 C1_5 1_555 1_555
N2_5 C1_5 1_555 1_555
C10_5 C5_5 1_555 1_555
H8_5 C10_5 1_555 1_555
C2_5 N19_2 1_555 1_555
C3_5 N2_5 1_555 1_555
C4_5 N2_5 1_555 1_555
C21_5 H17_5 1_555 1_555
C22_5 H18_5 1_555 1_555
C23_5 C22_5 1_555 1_555
H19_5 C23_5 1_555 1_555
C24_5 C25_5 1_555 1_555
C25_5 H20_5 1_555 1_555
N14_5 C21_5 1_555 1_555
N15_5 C24_5 1_555 1_555
C26_5 H21_5 1_555 1_555
C27_5 H22_5 1_555 1_555
C28_5 C27_5 1_555 1_555
H23_5 C28_5 1_555 1_555
C29_5 C30_5 1_555 1_555
C30_5 C25_5 1_555 1_555
H24_5 C30_5 1_555 1_555
N19_5 C26_5 1_555 1_555
N17_5 C26_5 1_555 1_555
N18_5 N15_5 1_555 1_555
C21_5 N21_2 1_555 1_555
C22_5 N21_2 1_555 1_555
C23_5 N14_5 1_555 1_555
C24_5 N14_5 1_555 1_555
C27_5 N19_5 1_555 1_555
C28_5 N17_5 1_555 1_555
C29_5 N17_5 1_555 1_555
C29_5 N18_5 1_555 1_555
C6_6 H5_6 1_555 1_555
C7_6 H6_6 1_555 1_555
C8_6 C7_6 1_555 1_555
H7_6 C8_6 1_555 1_555
C9_6 C10_6 1_555 1_555
H8_6 C10_6 1_555 1_555
N21_3 C6_6 1_555 1_555
N5_6 C6_6 1_555 1_555
C7_6 N21_3 1_555 1_555
C8_6 N5_6 1_555 1_555
C9_6 N5_6 1_555 1_555
C9_6 N6_6 1_555 1_555
C1_6 H1_6 1_555 1_555
C2_6 H2_6 1_555 1_555
C3_6 C2_6 1_555 1_555
H3_6 C3_6 1_555 1_555
C4_6 C5_6 1_555 1_555
C5_6 H4_6 1_555 1_555
N19_6 C1_6 1_555 1_555
N2_6 C1_6 1_555 1_555
N3_6 C4_6 1_555 1_555
C11_6 H9_6 1_555 1_555
C12_6 H10_6 1_555 1_555
C13_6 C12_6 1_555 1_555
H11_6 C13_6 1_555 1_555
C14_6 C15_6 1_555 1_555
C15_6 H12_6 1_555 1_555
N8_6 C11_6 1_555 1_555
N9_6 C14_6 1_555 1_555
C16_6 H13_6 1_555 1_555
C17_6 H14_6 1_555 1_555
C18_6 C17_6 1_555 1_555
H15_6 C18_6 1_555 1_555
C19_6 C20_6 1_555 1_555
C20_6 C15_6 1_555 1_555
H16_6 C20_6 1_555 1_555
N20_3 C16_6 1_555 1_555
N11_6 C16_6 1_555 1_555
N12_6 N9_6 1_555 1_555
C21_6 H17_6 1_555 1_555
C22_6 H18_6 1_555 1_555
C23_6 C22_6 1_555 1_555
H19_6 C23_6 1_555 1_555
C24_6 C25_6 1_555 1_555
C25_6 H20_6 1_555 1_555
N14_6 C21_6 1_555 1_555
N15_6 C24_6 1_555 1_555
C2_6 N19_6 1_555 1_555
C3_6 N2_6 1_555 1_555
C4_6 N2_6 1_555 1_555
C11_6 N20_6 1_555 1_555
C12_6 N20_6 1_555 1_555
C13_6 N8_6 1_555 1_555
C14_6 N8_6 1_555 1_555
C17_6 N20_3 1_555 1_555
C18_6 N11_6 1_555 1_555
C19_6 N11_6 1_555 1_555
C19_6 N12_6 1_555 1_555
C21_6 N21_6 1_555 1_555
C22_6 N21_6 1_555 1_555
C23_6 N14_6 1_555 1_555
C24_6 N14_6 1_555 1_555
C26_6 H21_6 1_555 1_555
C27_6 H22_6 1_555 1_555
C28_6 C27_6 1_555 1_555
H23_6 C28_6 1_555 1_555
C29_6 C30_6 1_555 1_555
H24_6 C30_6 1_555 1_555
N19_3 C26_6 1_555 1_555
N17_6 C26_6 1_555 1_555
C27_6 N19_3 1_555 1_555
C28_6 N17_6 1_555 1_555
C29_6 N17_6 1_555 1_555
C29_6 N18_6 1_555 1_555

#END
