
###############################################################################
#
# This file contains modified crystal structure data generated from the
# MOF subset of the Cambridge Structural Database (CSD) v543 
# hosted by the Cambridge Crystallographic Data Centre (CCDC).
#
# This work is licensed under the Creative Commons
# Attribution-NonCommercial-ShareAlike 4.0 International License.
# To view a copy of this license, visit
# http://creativecommons.org/licenses/by-nc-sa/4.0/
# or send a letter to
# Creative Commons, PO Box 1866, Mountain View, CA 94042, USA.
#
# CIF created using the CSD Python API on 29 September 2022
# The structure has been converted into the P1 space group
# The structure has a 3D framework
# The original CSD entry HUMWET is in the cubic crystal system
# The original CSD entry HUMWET is in a Sohncke space group
# The framework has been calculated to contain at least 10.0% void space
# The void calculation uses a probe of radius 1.32A, grid spacing 0.4
# The framework is charged, counterions have been retained in the structure
#
###############################################################################

data_HUMWET
_chemical_formula_moiety         '(C264 H288 B8 Cl4 Mn13 O48 1-)n'
_symmetry_cell_setting           triclinic
_symmetry_space_group_name_H-M   'P 1'
_symmetry_Int_Tables_number      1
_space_group_name_Hall           'P 1'
loop_
_symmetry_equiv_pos_site_id
_symmetry_equiv_pos_as_xyz
1 x,y,z
_cell_length_a                   23.461(11)
_cell_length_b                   23.461(11)
_cell_length_c                   23.461(11)
_cell_angle_alpha                90
_cell_angle_beta                 90
_cell_angle_gamma                90
_cell_volume                     12913.4
loop_
_atom_site_label
_atom_site_type_symbol
_atom_site_fract_x
_atom_site_fract_y
_atom_site_fract_z
Mn19 Mn -0.0000 0.40075(6) 0.5000
Mn27 Mn -0.0000 0.5000 0.40075(6)
Mn4 Mn -0.0000 0.59925(6) 0.5000
Cl3 Cl -0.0000 0.5000 0.5000
Mn30 Mn -0.0000 0.5000 0.59925(6)
O58 O 0.0707(2) 0.5915(3) 0.4390(3)
O63 O 0.0531(2) 0.6490(3) 0.5576(3)
Mn6 Mn 0.5000 -0.0000 0.40075(6)
Mn7 Mn 0.5000 -0.0000 0.59925(6)
C199 C 0.6775(3) 0.3177(3) 0.2349(3)
C200 C 0.6208(3) 0.3625(3) 0.1359(3)
B7 B 0.7094(4) 0.2906(4) 0.2906(4)
C201 C 0.5877(4) 0.3853(4) 0.0825(3)
C202 C 0.6166(3) 0.3302(4) 0.2368(3)
C203 C 0.6796(3) 0.3503(3) 0.1326(3)
C204 C 0.7093(3) 0.3276(4) 0.1820(3)
O37 O 0.5915(3) 0.4390(3) 0.0707(2)
C205 C 0.5877(3) 0.3536(4) 0.1867(3)
C206 C 0.5799(3) 0.3249(5) 0.2931(3)
H217 H 0.5688 0.2859 0.2985
H218 H 0.5466 0.3484 0.2899
H219 H 0.6023 0.3372 0.3251
C207 C 0.7731(4) 0.3129(5) 0.1773(4)
H220 H 0.7942 0.3466 0.1676
H221 H 0.7784 0.2846 0.1482
H222 H 0.7864 0.2983 0.2131
C208 C 0.7130(4) 0.3618(5) 0.0753(4)
H223 H 0.7169 0.3268 0.0545
H224 H 0.7501 0.3767 0.0838
H225 H 0.6923 0.3889 0.0526
C209 C 0.5240(4) 0.3699(5) 0.1895(4)
H226 H 0.5129 0.3876 0.1543
H227 H 0.5179 0.3960 0.2204
H228 H 0.5015 0.3362 0.1955
O38 O 0.5576(3) 0.3510(3) 0.0531(2)
C210 C 0.6823(3) 0.2349(3) 0.3225(3)
C211 C 0.6375(3) 0.1359(3) 0.3792(3)
C212 C 0.6147(4) 0.0825(3) 0.4123(4)
C213 C 0.6698(4) 0.2368(3) 0.3834(3)
C214 C 0.6497(3) 0.1326(3) 0.3204(3)
C215 C 0.6724(4) 0.1820(3) 0.2907(3)
O39 O 0.5610(3) 0.0707(2) 0.4085(3)
C216 C 0.6464(4) 0.1867(3) 0.4123(3)
C217 C 0.6751(5) 0.2931(3) 0.4201(3)
H229 H 0.7141 0.2985 0.4312
H230 H 0.6516 0.2899 0.4534
H231 H 0.6628 0.3251 0.3977
C218 C 0.6871(5) 0.1773(4) 0.2269(4)
H232 H 0.6534 0.1676 0.2058
H233 H 0.7154 0.1482 0.2216
H234 H 0.7017 0.2131 0.2136
C219 C 0.6382(5) 0.0753(4) 0.2870(4)
H235 H 0.6732 0.0545 0.2831
H236 H 0.6233 0.0838 0.2499
H237 H 0.6111 0.0526 0.3077
C220 C 0.6301(5) 0.1895(4) 0.4760(4)
H238 H 0.6124 0.1543 0.4871
H239 H 0.6040 0.2204 0.4821
H240 H 0.6638 0.1955 0.4985
O40 O 0.6490(3) 0.0531(2) 0.4424(3)
C221 C 0.7651(3) 0.3225(3) 0.3177(3)
C222 C 0.8641(3) 0.3792(3) 0.3625(3)
C223 C 0.9175(3) 0.4123(4) 0.3853(4)
C224 C 0.7632(3) 0.3834(3) 0.3302(4)
C225 C 0.8674(3) 0.3204(3) 0.3503(3)
C226 C 0.8180(3) 0.2907(3) 0.3276(4)
O41 O 0.9293(2) 0.4085(3) 0.4390(3)
C227 C 0.8133(3) 0.4123(3) 0.3536(4)
C228 C 0.7069(3) 0.4201(3) 0.3249(5)
H241 H 0.7015 0.4312 0.2859
H242 H 0.7101 0.4534 0.3484
H243 H 0.6749 0.3977 0.3372
C229 C 0.8227(4) 0.2269(4) 0.3129(5)
H244 H 0.8324 0.2058 0.3466
H245 H 0.8518 0.2216 0.2846
H246 H 0.7869 0.2136 0.2983
C230 C 0.9247(4) 0.2870(4) 0.3618(5)
H247 H 0.9455 0.2831 0.3268
H248 H 0.9162 0.2499 0.3767
H249 H 0.9474 0.3077 0.3889
C231 C 0.8105(4) 0.4760(4) 0.3699(5)
H250 H 0.8457 0.4871 0.3876
H251 H 0.7796 0.4821 0.3960
H252 H 0.8045 0.4985 0.3362
O42 O 0.9469(2) 0.4424(3) 0.3510(3)
Mn12 Mn 0.59925(6) -0.0000 0.5000
Mn14 Mn 0.59925(6) 0.5000 0.0000
Mn19_2 Mn 1.0000 0.40075(6) 0.5000
Mn21 Mn 0.5000 0.40075(6) 0.0000
Mn24 Mn 0.40075(6) -0.0000 0.5000
Mn27_2 Mn 1.0000 0.5000 0.40075(6)
O53 O 0.5915(3) 0.0707(2) 0.5610(3)
O56 O 0.4390(3) 0.0707(2) 0.5915(3)
O65 O 0.5576(3) 0.0531(2) 0.6490(3)
O66 O 0.4424(3) 0.0531(2) 0.3510(3)
Cl6 Cl 0.5000 -0.0000 0.5000
Mn14_2 Mn 0.59925(6) 0.5000 1.0000
Mn21_2 Mn 0.5000 0.40075(6) 1.0000
Mn9 Mn 0.5000 0.59925(6) -0.0000
Mn15 Mn 0.40075(6) 0.5000 -0.0000
O49 O 0.5610(3) 0.5915(3) 0.0707(2)
O69 O 0.4424(3) 0.6490(3) 0.0531(2)
Cl4 Cl 0.5000 0.5000 -0.0000
C1 C 0.6823(3) 0.6775(3) 0.2349(3)
C2 C 0.6375(3) 0.6208(3) 0.1359(3)
B1 B 0.7094(4) 0.7094(4) 0.2906(4)
C3 C 0.6147(4) 0.5877(4) 0.0825(3)
C4 C 0.6698(4) 0.6166(3) 0.2368(3)
C5 C 0.6497(3) 0.6796(3) 0.1326(3)
C6 C 0.6724(4) 0.7093(3) 0.1820(3)
C7 C 0.6464(4) 0.5877(3) 0.1867(3)
C8 C 0.6751(5) 0.5799(3) 0.2931(3)
H1 H 0.7141 0.5688 0.2985
H2 H 0.6516 0.5466 0.2899
H3 H 0.6628 0.6023 0.3251
C9 C 0.6871(5) 0.7731(4) 0.1773(4)
H4 H 0.6534 0.7942 0.1676
H5 H 0.7154 0.7784 0.1482
H6 H 0.7017 0.7864 0.2131
C10 C 0.6382(5) 0.7130(4) 0.0753(4)
H7 H 0.6732 0.7169 0.0545
H8 H 0.6233 0.7501 0.0838
H9 H 0.6111 0.6923 0.0526
C11 C 0.6301(5) 0.5240(4) 0.1895(4)
H10 H 0.6124 0.5129 0.1543
H11 H 0.6040 0.5179 0.2204
H12 H 0.6638 0.5015 0.1955
O2 O 0.6490(3) 0.5576(3) 0.0531(2)
C12 C 0.7651(3) 0.6823(3) 0.3225(3)
C13 C 0.8641(3) 0.6375(3) 0.3792(3)
C14 C 0.9175(3) 0.6147(4) 0.4123(4)
C15 C 0.7632(3) 0.6698(4) 0.3834(3)
C16 C 0.8674(3) 0.6497(3) 0.3204(3)
C17 C 0.8180(3) 0.6724(4) 0.2907(3)
O3 O 0.9293(2) 0.5610(3) 0.4085(3)
C18 C 0.8133(3) 0.6464(4) 0.4123(3)
C19 C 0.7069(3) 0.6751(5) 0.4201(3)
H13 H 0.7015 0.7141 0.4312
H14 H 0.7101 0.6516 0.4534
H15 H 0.6749 0.6628 0.3977
C20 C 0.8227(4) 0.6871(5) 0.2269(4)
H16 H 0.8324 0.6534 0.2058
H17 H 0.8518 0.7154 0.2216
H18 H 0.7869 0.7017 0.2136
C21 C 0.9247(4) 0.6382(5) 0.2870(4)
H19 H 0.9455 0.6732 0.2831
H20 H 0.9162 0.6233 0.2499
H21 H 0.9474 0.6111 0.3077
C22 C 0.8105(4) 0.6301(5) 0.4760(4)
H22 H 0.8457 0.6124 0.4871
H23 H 0.7796 0.6040 0.4821
H24 H 0.8045 0.6638 0.4985
O4 O 0.9469(2) 0.6490(3) 0.4424(3)
C23 C 0.6775(3) 0.7651(3) 0.3177(3)
C24 C 0.6208(3) 0.8641(3) 0.3625(3)
C25 C 0.5877(4) 0.9175(3) 0.3853(4)
C26 C 0.6166(3) 0.7632(3) 0.3302(4)
C27 C 0.6796(3) 0.8674(3) 0.3503(3)
C28 C 0.7093(3) 0.8180(3) 0.3276(4)
O5 O 0.5915(3) 0.9293(2) 0.4390(3)
C29 C 0.5877(3) 0.8133(3) 0.3536(4)
C30 C 0.5799(3) 0.7069(3) 0.3249(5)
H25 H 0.5688 0.7015 0.2859
H26 H 0.5466 0.7101 0.3484
H27 H 0.6023 0.6749 0.3372
C31 C 0.7731(4) 0.8227(4) 0.3129(5)
H28 H 0.7942 0.8324 0.3466
H29 H 0.7784 0.8518 0.2846
H30 H 0.7864 0.7869 0.2983
C32 C 0.7130(4) 0.9247(4) 0.3618(5)
H31 H 0.7169 0.9455 0.3268
H32 H 0.7501 0.9162 0.3767
H33 H 0.6923 0.9474 0.3889
C33 C 0.5240(4) 0.8105(4) 0.3699(5)
H34 H 0.5129 0.8457 0.3876
H35 H 0.5179 0.7796 0.3960
H36 H 0.5015 0.8045 0.3362
O6 O 0.5576(3) 0.9469(2) 0.3510(3)
C34 C 0.3177(3) 0.3225(3) 0.2349(3)
C35 C 0.3625(3) 0.3792(3) 0.1359(3)
B2 B 0.2906(4) 0.2906(4) 0.2906(4)
C36 C 0.3853(4) 0.4123(4) 0.0825(3)
C37 C 0.3302(4) 0.3834(3) 0.2368(3)
C38 C 0.3503(3) 0.3204(3) 0.1326(3)
C39 C 0.3276(4) 0.2907(3) 0.1820(3)
O7 O 0.4390(3) 0.4085(3) 0.0707(2)
C40 C 0.3536(4) 0.4123(3) 0.1867(3)
C41 C 0.3249(5) 0.4201(3) 0.2931(3)
H37 H 0.2859 0.4312 0.2985
H38 H 0.3484 0.4534 0.2899
H39 H 0.3372 0.3977 0.3251
C42 C 0.3129(5) 0.2269(4) 0.1773(4)
H40 H 0.3466 0.2058 0.1676
H41 H 0.2846 0.2216 0.1482
H42 H 0.2983 0.2136 0.2131
C43 C 0.3618(5) 0.2870(4) 0.0753(4)
H43 H 0.3268 0.2831 0.0545
H44 H 0.3767 0.2499 0.0838
H45 H 0.3889 0.3077 0.0526
C44 C 0.3699(5) 0.4760(4) 0.1895(4)
H46 H 0.3876 0.4871 0.1543
H47 H 0.3960 0.4821 0.2204
H48 H 0.3362 0.4985 0.1955
O8 O 0.3510(3) 0.4424(3) 0.0531(2)
C45 C 0.2349(3) 0.3177(3) 0.3225(3)
C46 C 0.1359(3) 0.3625(3) 0.3792(3)
C47 C 0.0825(3) 0.3853(4) 0.4123(4)
C48 C 0.2368(3) 0.3302(4) 0.3834(3)
C49 C 0.1326(3) 0.3503(3) 0.3204(3)
C50 C 0.1820(3) 0.3276(4) 0.2907(3)
O9 O 0.0707(2) 0.4390(3) 0.4085(3)
C51 C 0.1867(3) 0.3536(4) 0.4123(3)
C52 C 0.2931(3) 0.3249(5) 0.4201(3)
H49 H 0.2985 0.2859 0.4312
H50 H 0.2899 0.3484 0.4534
H51 H 0.3251 0.3372 0.3977
C53 C 0.1773(4) 0.3129(5) 0.2269(4)
H52 H 0.1676 0.3466 0.2058
H53 H 0.1482 0.2846 0.2216
H54 H 0.2131 0.2983 0.2136
C54 C 0.0753(4) 0.3618(5) 0.2870(4)
H55 H 0.0545 0.3268 0.2831
H56 H 0.0838 0.3767 0.2499
H57 H 0.0526 0.3889 0.3077
C55 C 0.1895(4) 0.3699(5) 0.4760(4)
H58 H 0.1543 0.3876 0.4871
H59 H 0.2204 0.3960 0.4821
H60 H 0.1955 0.3362 0.4985
O10 O 0.0531(2) 0.3510(3) 0.4424(3)
C56 C 0.3225(3) 0.2349(3) 0.3177(3)
C57 C 0.3792(3) 0.1359(3) 0.3625(3)
C58 C 0.4123(4) 0.0825(3) 0.3853(4)
C59 C 0.3834(3) 0.2368(3) 0.3302(4)
C60 C 0.3204(3) 0.1326(3) 0.3503(3)
C61 C 0.2907(3) 0.1820(3) 0.3276(4)
O11 O 0.4085(3) 0.0707(2) 0.4390(3)
C62 C 0.4123(3) 0.1867(3) 0.3536(4)
C63 C 0.4201(3) 0.2931(3) 0.3249(5)
H61 H 0.4312 0.2985 0.2859
H62 H 0.4534 0.2899 0.3484
H63 H 0.3977 0.3251 0.3372
C64 C 0.2269(4) 0.1773(4) 0.3129(5)
H64 H 0.2058 0.1676 0.3466
H65 H 0.2216 0.1482 0.2846
H66 H 0.2136 0.2131 0.2983
C65 C 0.2870(4) 0.0753(4) 0.3618(5)
H67 H 0.2831 0.0545 0.3268
H68 H 0.2499 0.0838 0.3767
H69 H 0.3077 0.0526 0.3889
C66 C 0.4760(4) 0.1895(4) 0.3699(5)
H70 H 0.4871 0.1543 0.3876
H71 H 0.4821 0.2204 0.3960
H72 H 0.4985 0.1955 0.3362
Mn4_2 Mn 1.0000 0.59925(6) 0.5000
Cl3_2 Cl 1.0000 0.5000 0.5000
Mn6_2 Mn 0.5000 1.0000 0.40075(6)
Mn7_2 Mn 0.5000 1.0000 0.59925(6)
C67 C 0.3225(3) 0.7651(3) 0.6823(3)
C68 C 0.3792(3) 0.8641(3) 0.6375(3)
B3 B 0.2906(4) 0.7094(4) 0.7094(4)
C69 C 0.4123(4) 0.9175(3) 0.6147(4)
C70 C 0.3834(3) 0.7632(3) 0.6698(4)
C71 C 0.3204(3) 0.8674(3) 0.6497(3)
C72 C 0.2907(3) 0.8180(3) 0.6724(4)
O13 O 0.4085(3) 0.9293(2) 0.5610(3)
C73 C 0.4123(3) 0.8133(3) 0.6464(4)
C74 C 0.4201(3) 0.7069(3) 0.6751(5)
H73 H 0.4312 0.7015 0.7141
H74 H 0.4534 0.7101 0.6516
H75 H 0.3977 0.6749 0.6628
C75 C 0.2269(4) 0.8227(4) 0.6871(5)
H76 H 0.2058 0.8324 0.6534
H77 H 0.2216 0.8518 0.7154
H78 H 0.2136 0.7869 0.7017
C76 C 0.2870(4) 0.9247(4) 0.6382(5)
H79 H 0.2831 0.9455 0.6732
H80 H 0.2499 0.9162 0.6233
H81 H 0.3077 0.9474 0.6111
C77 C 0.4760(4) 0.8105(4) 0.6301(5)
H82 H 0.4871 0.8457 0.6124
H83 H 0.4821 0.7796 0.6040
H84 H 0.4985 0.8045 0.6638
O14 O 0.4424(3) 0.9469(2) 0.6490(3)
C78 C 0.3177(3) 0.6775(3) 0.7651(3)
C79 C 0.3625(3) 0.6208(3) 0.8641(3)
C80 C 0.3853(4) 0.5877(4) 0.9175(3)
C81 C 0.3302(4) 0.6166(3) 0.7632(3)
C82 C 0.3503(3) 0.6796(3) 0.8674(3)
C83 C 0.3276(4) 0.7093(3) 0.8180(3)
O15 O 0.4390(3) 0.5915(3) 0.9293(2)
C84 C 0.3536(4) 0.5877(3) 0.8133(3)
C85 C 0.3249(5) 0.5799(3) 0.7069(3)
H85 H 0.2859 0.5688 0.7015
H86 H 0.3484 0.5466 0.7101
H87 H 0.3372 0.6023 0.6749
C86 C 0.3129(5) 0.7731(4) 0.8227(4)
H88 H 0.3466 0.7942 0.8324
H89 H 0.2846 0.7784 0.8518
H90 H 0.2983 0.7864 0.7869
C87 C 0.3618(5) 0.7130(4) 0.9247(4)
H91 H 0.3268 0.7169 0.9455
H92 H 0.3767 0.7501 0.9162
H93 H 0.3889 0.6923 0.9474
C88 C 0.3699(5) 0.5240(4) 0.8105(4)
H94 H 0.3876 0.5129 0.8457
H95 H 0.3960 0.5179 0.7796
H96 H 0.3362 0.5015 0.8045
O16 O 0.3510(3) 0.5576(3) 0.9469(2)
C89 C 0.2349(3) 0.6823(3) 0.6775(3)
C90 C 0.1359(3) 0.6375(3) 0.6208(3)
C91 C 0.0825(3) 0.6147(4) 0.5877(4)
C92 C 0.2368(3) 0.6698(4) 0.6166(3)
C93 C 0.1326(3) 0.6497(3) 0.6796(3)
C94 C 0.1820(3) 0.6724(4) 0.7093(3)
O17 O 0.0707(2) 0.5610(3) 0.5915(3)
C95 C 0.1867(3) 0.6464(4) 0.5877(3)
C96 C 0.2931(3) 0.6751(5) 0.5799(3)
H97 H 0.2985 0.7141 0.5688
H98 H 0.2899 0.6516 0.5466
H99 H 0.3251 0.6628 0.6023
C97 C 0.1773(4) 0.6871(5) 0.7731(4)
H100 H 0.1676 0.6534 0.7942
H101 H 0.1482 0.7154 0.7784
H102 H 0.2131 0.7017 0.7864
C98 C 0.0753(4) 0.6382(5) 0.7130(4)
H103 H 0.0545 0.6732 0.7169
H104 H 0.0838 0.6233 0.7501
H105 H 0.0526 0.6111 0.6923
C99 C 0.1895(4) 0.6301(5) 0.5240(4)
H106 H 0.1543 0.6124 0.5129
H107 H 0.2204 0.6040 0.5179
H108 H 0.1955 0.6638 0.5015
Mn9_2 Mn 0.5000 0.59925(6) 1.0000
C133 C 0.6775(3) 0.6823(3) 0.7651(3)
C134 C 0.6208(3) 0.6375(3) 0.8641(3)
B5 B 0.7094(4) 0.7094(4) 0.7094(4)
C135 C 0.5877(4) 0.6147(4) 0.9175(3)
C136 C 0.6166(3) 0.6698(4) 0.7632(3)
C137 C 0.6796(3) 0.6497(3) 0.8674(3)
C138 C 0.7093(3) 0.6724(4) 0.8180(3)
O25 O 0.5915(3) 0.5610(3) 0.9293(2)
C139 C 0.5877(3) 0.6464(4) 0.8133(3)
C140 C 0.5799(3) 0.6751(5) 0.7069(3)
H145 H 0.5688 0.7141 0.7015
H146 H 0.5466 0.6516 0.7101
H147 H 0.6023 0.6628 0.6749
C141 C 0.7731(4) 0.6871(5) 0.8227(4)
H148 H 0.7942 0.6534 0.8324
H149 H 0.7784 0.7154 0.8518
H150 H 0.7864 0.7017 0.7869
C142 C 0.7130(4) 0.6382(5) 0.9247(4)
H151 H 0.7169 0.6732 0.9455
H152 H 0.7501 0.6233 0.9162
H153 H 0.6923 0.6111 0.9474
C143 C 0.5240(4) 0.6301(5) 0.8105(4)
H154 H 0.5129 0.6124 0.8457
H155 H 0.5179 0.6040 0.7796
H156 H 0.5015 0.6638 0.8045
O26 O 0.5576(3) 0.6490(3) 0.9469(2)
C144 C 0.6823(3) 0.7651(3) 0.6775(3)
C145 C 0.6375(3) 0.8641(3) 0.6208(3)
C146 C 0.6147(4) 0.9175(3) 0.5877(4)
C147 C 0.6698(4) 0.7632(3) 0.6166(3)
C148 C 0.6497(3) 0.8674(3) 0.6796(3)
C149 C 0.6724(4) 0.8180(3) 0.7093(3)
O27 O 0.5610(3) 0.9293(2) 0.5915(3)
C150 C 0.6464(4) 0.8133(3) 0.5877(3)
C151 C 0.6751(5) 0.7069(3) 0.5799(3)
H157 H 0.7141 0.7015 0.5688
H158 H 0.6516 0.7101 0.5466
H159 H 0.6628 0.6749 0.6023
C152 C 0.6871(5) 0.8227(4) 0.7731(4)
H160 H 0.6534 0.8324 0.7942
H161 H 0.7154 0.8518 0.7784
H162 H 0.7017 0.7869 0.7864
C153 C 0.6382(5) 0.9247(4) 0.7130(4)
H163 H 0.6732 0.9455 0.7169
H164 H 0.6233 0.9162 0.7501
H165 H 0.6111 0.9474 0.6923
C154 C 0.6301(5) 0.8105(4) 0.5240(4)
H166 H 0.6124 0.8457 0.5129
H167 H 0.6040 0.7796 0.5179
H168 H 0.6638 0.8045 0.5015
O28 O 0.6490(3) 0.9469(2) 0.5576(3)
C155 C 0.7651(3) 0.6775(3) 0.6823(3)
C156 C 0.8641(3) 0.6208(3) 0.6375(3)
C157 C 0.9175(3) 0.5877(4) 0.6147(4)
C158 C 0.7632(3) 0.6166(3) 0.6698(4)
C159 C 0.8674(3) 0.6796(3) 0.6497(3)
C160 C 0.8180(3) 0.7093(3) 0.6724(4)
O29 O 0.9293(2) 0.5915(3) 0.5610(3)
C161 C 0.8133(3) 0.5877(3) 0.6464(4)
C162 C 0.7069(3) 0.5799(3) 0.6751(5)
H169 H 0.7015 0.5688 0.7141
H170 H 0.7101 0.5466 0.6516
H171 H 0.6749 0.6023 0.6628
C163 C 0.8227(4) 0.7731(4) 0.6871(5)
H172 H 0.8324 0.7942 0.6534
H173 H 0.8518 0.7784 0.7154
H174 H 0.7869 0.7864 0.7017
C164 C 0.9247(4) 0.7130(4) 0.6382(5)
H175 H 0.9455 0.7169 0.6732
H176 H 0.9162 0.7501 0.6233
H177 H 0.9474 0.6923 0.6111
C165 C 0.8105(4) 0.5240(4) 0.6301(5)
H178 H 0.8457 0.5129 0.6124
H179 H 0.7796 0.5179 0.6040
H180 H 0.8045 0.5015 0.6638
O30 O 0.9469(2) 0.5576(3) 0.6490(3)
C232 C 0.3225(3) 0.6823(3) 0.2349(3)
C233 C 0.3792(3) 0.6375(3) 0.1359(3)
B8 B 0.2906(4) 0.7094(4) 0.2906(4)
C234 C 0.4123(4) 0.6147(4) 0.0825(3)
C235 C 0.3834(3) 0.6698(4) 0.2368(3)
C236 C 0.3204(3) 0.6497(3) 0.1326(3)
C237 C 0.2907(3) 0.6724(4) 0.1820(3)
O43 O 0.4085(3) 0.5610(3) 0.0707(2)
C238 C 0.4123(3) 0.6464(4) 0.1867(3)
C239 C 0.4201(3) 0.6751(5) 0.2931(3)
H253 H 0.4312 0.7141 0.2985
H254 H 0.4534 0.6516 0.2899
H255 H 0.3977 0.6628 0.3251
C240 C 0.2269(4) 0.6871(5) 0.1773(4)
H256 H 0.2058 0.6534 0.1676
H257 H 0.2216 0.7154 0.1482
H258 H 0.2136 0.7017 0.2131
C241 C 0.2870(4) 0.6382(5) 0.0753(4)
H259 H 0.2831 0.6732 0.0545
H260 H 0.2499 0.6233 0.0838
H261 H 0.3077 0.6111 0.0526
C242 C 0.4760(4) 0.6301(5) 0.1895(4)
H262 H 0.4871 0.6124 0.1543
H263 H 0.4821 0.6040 0.2204
H264 H 0.4985 0.6638 0.1955
C243 C 0.3177(3) 0.7651(3) 0.3225(3)
C244 C 0.3625(3) 0.8641(3) 0.3792(3)
C245 C 0.3853(4) 0.9175(3) 0.4123(4)
C246 C 0.3302(4) 0.7632(3) 0.3834(3)
C247 C 0.3503(3) 0.8674(3) 0.3204(3)
C248 C 0.3276(4) 0.8180(3) 0.2907(3)
O45 O 0.4390(3) 0.9293(2) 0.4085(3)
C249 C 0.3536(4) 0.8133(3) 0.4123(3)
C250 C 0.3249(5) 0.7069(3) 0.4201(3)
H265 H 0.2859 0.7015 0.4312
H266 H 0.3484 0.7101 0.4534
H267 H 0.3372 0.6749 0.3977
C251 C 0.3129(5) 0.8227(4) 0.2269(4)
H268 H 0.3466 0.8324 0.2058
H269 H 0.2846 0.8518 0.2216
H270 H 0.2983 0.7869 0.2136
C252 C 0.3618(5) 0.9247(4) 0.2870(4)
H271 H 0.3268 0.9455 0.2831
H272 H 0.3767 0.9162 0.2499
H273 H 0.3889 0.9474 0.3077
C253 C 0.3699(5) 0.8105(4) 0.4760(4)
H274 H 0.3876 0.8457 0.4871
H275 H 0.3960 0.7796 0.4821
H276 H 0.3362 0.8045 0.4985
O46 O 0.3510(3) 0.9469(2) 0.4424(3)
C254 C 0.2349(3) 0.6775(3) 0.3177(3)
C255 C 0.1359(3) 0.6208(3) 0.3625(3)
C256 C 0.0825(3) 0.5877(4) 0.3853(4)
C257 C 0.2368(3) 0.6166(3) 0.3302(4)
C258 C 0.1326(3) 0.6796(3) 0.3503(3)
C259 C 0.1820(3) 0.7093(3) 0.3276(4)
C260 C 0.1867(3) 0.5877(3) 0.3536(4)
C261 C 0.2931(3) 0.5799(3) 0.3249(5)
H277 H 0.2985 0.5688 0.2859
H278 H 0.2899 0.5466 0.3484
H279 H 0.3251 0.6023 0.3372
C262 C 0.1773(4) 0.7731(4) 0.3129(5)
H280 H 0.1676 0.7942 0.3466
H281 H 0.1482 0.7784 0.2846
H282 H 0.2131 0.7864 0.2983
C263 C 0.0753(4) 0.7130(4) 0.3618(5)
H283 H 0.0545 0.7169 0.3268
H284 H 0.0838 0.7501 0.3767
H285 H 0.0526 0.6923 0.3889
C264 C 0.1895(4) 0.5240(4) 0.3699(5)
H286 H 0.1543 0.5129 0.3876
H287 H 0.2204 0.5179 0.3960
H288 H 0.1955 0.5015 0.3362
O48 O 0.0531(2) 0.5576(3) 0.3510(3)
Mn12_2 Mn 0.59925(6) 1.0000 0.5000
Mn15_2 Mn 0.40075(6) 0.5000 1.0000
Mn24_2 Mn 0.40075(6) 1.0000 0.5000
Mn30_2 Mn 1.0000 0.5000 0.59925(6)
O59 O 0.0707(2) 0.4085(3) 0.5610(3)
Cl4_2 Cl 0.5000 0.5000 1.0000
Cl6_2 Cl 0.5000 1.0000 0.5000
O51 O 0.5610(3) 0.4085(3) 0.9293(2)
O55 O 0.4085(3) 0.4390(3) 0.9293(2)
O62 O 0.6490(3) 0.4424(3) 0.9469(2)
O68 O 0.4424(3) 0.3510(3) 0.9469(2)
O64 O 0.9469(2) 0.3510(3) 0.5576(3)
O70 O 0.3510(3) 0.0531(2) 0.5576(3)
C67_2 C 0.6775(3) 0.2349(3) 0.6823(3)
C68_2 C 0.6208(3) 0.1359(3) 0.6375(3)
B3_2 B 0.7094(4) 0.2906(4) 0.7094(4)
C69_2 C 0.5877(4) 0.0825(3) 0.6147(4)
C70_2 C 0.6166(3) 0.2368(3) 0.6698(4)
C71_2 C 0.6796(3) 0.1326(3) 0.6497(3)
C72_2 C 0.7093(3) 0.1820(3) 0.6724(4)
C73_2 C 0.5877(3) 0.1867(3) 0.6464(4)
C74_2 C 0.5799(3) 0.2931(3) 0.6751(5)
H73_2 H 0.5688 0.2985 0.7141
H74_2 H 0.5466 0.2899 0.6516
H75_2 H 0.6023 0.3251 0.6628
C75_2 C 0.7731(4) 0.1773(4) 0.6871(5)
H76_2 H 0.7942 0.1676 0.6534
H77_2 H 0.7784 0.1482 0.7154
H78_2 H 0.7864 0.2131 0.7017
C76_2 C 0.7130(4) 0.0753(4) 0.6382(5)
H79_2 H 0.7169 0.0545 0.6732
H80_2 H 0.7501 0.0838 0.6233
H81_2 H 0.6923 0.0526 0.6111
C77_2 C 0.5240(4) 0.1895(4) 0.6301(5)
H82_2 H 0.5129 0.1543 0.6124
H83_2 H 0.5179 0.2204 0.6040
H84_2 H 0.5015 0.1955 0.6638
C78_2 C 0.6823(3) 0.3225(3) 0.7651(3)
C79_2 C 0.6375(3) 0.3792(3) 0.8641(3)
C80_2 C 0.6147(4) 0.4123(4) 0.9175(3)
C81_2 C 0.6698(4) 0.3834(3) 0.7632(3)
C82_2 C 0.6497(3) 0.3204(3) 0.8674(3)
C83_2 C 0.6724(4) 0.2907(3) 0.8180(3)
C84_2 C 0.6464(4) 0.4123(3) 0.8133(3)
C85_2 C 0.6751(5) 0.4201(3) 0.7069(3)
H85_2 H 0.7141 0.4312 0.7015
H86_2 H 0.6516 0.4534 0.7101
H87_2 H 0.6628 0.3977 0.6749
C86_2 C 0.6871(5) 0.2269(4) 0.8227(4)
H88_2 H 0.6534 0.2058 0.8324
H89_2 H 0.7154 0.2216 0.8518
H90_2 H 0.7017 0.2136 0.7869
C87_2 C 0.6382(5) 0.2870(4) 0.9247(4)
H91_2 H 0.6732 0.2831 0.9455
H92_2 H 0.6233 0.2499 0.9162
H93_2 H 0.6111 0.3077 0.9474
C88_2 C 0.6301(5) 0.4760(4) 0.8105(4)
H94_2 H 0.6124 0.4871 0.8457
H95_2 H 0.6040 0.4821 0.7796
H96_2 H 0.6638 0.4985 0.8045
C89_2 C 0.7651(3) 0.3177(3) 0.6775(3)
C90_2 C 0.8641(3) 0.3625(3) 0.6208(3)
C91_2 C 0.9175(3) 0.3853(4) 0.5877(4)
C92_2 C 0.7632(3) 0.3302(4) 0.6166(3)
C93_2 C 0.8674(3) 0.3503(3) 0.6796(3)
C94_2 C 0.8180(3) 0.3276(4) 0.7093(3)
O17_2 O 0.9293(2) 0.4390(3) 0.5915(3)
C95_2 C 0.8133(3) 0.3536(4) 0.5877(3)
C96_2 C 0.7069(3) 0.3249(5) 0.5799(3)
H97_2 H 0.7015 0.2859 0.5688
H98_2 H 0.7101 0.3484 0.5466
H99_2 H 0.6749 0.3372 0.6023
C97_2 C 0.8227(4) 0.3129(5) 0.7731(4)
H100_2 H 0.8324 0.3466 0.7942
H101_2 H 0.8518 0.2846 0.7784
H102_2 H 0.7869 0.2983 0.7864
C98_2 C 0.9247(4) 0.3618(5) 0.7130(4)
H103_2 H 0.9455 0.3268 0.7169
H104_2 H 0.9162 0.3767 0.7501
H105_2 H 0.9474 0.3889 0.6923
C99_2 C 0.8105(4) 0.3699(5) 0.5240(4)
H106_2 H 0.8457 0.3876 0.5129
H107_2 H 0.7796 0.3960 0.5179
H108_2 H 0.8045 0.3362 0.5015
C133_2 C 0.3225(3) 0.3177(3) 0.7651(3)
C134_2 C 0.3792(3) 0.3625(3) 0.8641(3)
B5_2 B 0.2906(4) 0.2906(4) 0.7094(4)
C135_2 C 0.4123(4) 0.3853(4) 0.9175(3)
C136_2 C 0.3834(3) 0.3302(4) 0.7632(3)
C137_2 C 0.3204(3) 0.3503(3) 0.8674(3)
C138_2 C 0.2907(3) 0.3276(4) 0.8180(3)
C139_2 C 0.4123(3) 0.3536(4) 0.8133(3)
C140_2 C 0.4201(3) 0.3249(5) 0.7069(3)
H145_2 H 0.4312 0.2859 0.7015
H146_2 H 0.4534 0.3484 0.7101
H147_2 H 0.3977 0.3372 0.6749
C141_2 C 0.2269(4) 0.3129(5) 0.8227(4)
H148_2 H 0.2058 0.3466 0.8324
H149_2 H 0.2216 0.2846 0.8518
H150_2 H 0.2136 0.2983 0.7869
C142_2 C 0.2870(4) 0.3618(5) 0.9247(4)
H151_2 H 0.2831 0.3268 0.9455
H152_2 H 0.2499 0.3767 0.9162
H153_2 H 0.3077 0.3889 0.9474
C143_2 C 0.4760(4) 0.3699(5) 0.8105(4)
H154_2 H 0.4871 0.3876 0.8457
H155_2 H 0.4821 0.3960 0.7796
H156_2 H 0.4985 0.3362 0.8045
C144_2 C 0.3177(3) 0.2349(3) 0.6775(3)
C145_2 C 0.3625(3) 0.1359(3) 0.6208(3)
C146_2 C 0.3853(4) 0.0825(3) 0.5877(4)
C147_2 C 0.3302(4) 0.2368(3) 0.6166(3)
C148_2 C 0.3503(3) 0.1326(3) 0.6796(3)
C149_2 C 0.3276(4) 0.1820(3) 0.7093(3)
C150_2 C 0.3536(4) 0.1867(3) 0.5877(3)
C151_2 C 0.3249(5) 0.2931(3) 0.5799(3)
H157_2 H 0.2859 0.2985 0.5688
H158_2 H 0.3484 0.2899 0.5466
H159_2 H 0.3372 0.3251 0.6023
C152_2 C 0.3129(5) 0.1773(4) 0.7731(4)
H160_2 H 0.3466 0.1676 0.7942
H161_2 H 0.2846 0.1482 0.7784
H162_2 H 0.2983 0.2131 0.7864
C153_2 C 0.3618(5) 0.0753(4) 0.7130(4)
H163_2 H 0.3268 0.0545 0.7169
H164_2 H 0.3767 0.0838 0.7501
H165_2 H 0.3889 0.0526 0.6923
C154_2 C 0.3699(5) 0.1895(4) 0.5240(4)
H166_2 H 0.3876 0.1543 0.5129
H167_2 H 0.3960 0.2204 0.5179
H168_2 H 0.3362 0.1955 0.5015
C155_2 C 0.2349(3) 0.3225(3) 0.6823(3)
C156_2 C 0.1359(3) 0.3792(3) 0.6375(3)
C157_2 C 0.0825(3) 0.4123(4) 0.6147(4)
C158_2 C 0.2368(3) 0.3834(3) 0.6698(4)
C159_2 C 0.1326(3) 0.3204(3) 0.6497(3)
C160_2 C 0.1820(3) 0.2907(3) 0.6724(4)
C161_2 C 0.1867(3) 0.4123(3) 0.6464(4)
C162_2 C 0.2931(3) 0.4201(3) 0.6751(5)
H169_2 H 0.2985 0.4312 0.7141
H170_2 H 0.2899 0.4534 0.6516
H171_2 H 0.3251 0.3977 0.6628
C163_2 C 0.1773(4) 0.2269(4) 0.6871(5)
H172_2 H 0.1676 0.2058 0.6534
H173_2 H 0.1482 0.2216 0.7154
H174_2 H 0.2131 0.2136 0.7017
C164_2 C 0.0753(4) 0.2870(4) 0.6382(5)
H175_2 H 0.0545 0.2831 0.6732
H176_2 H 0.0838 0.2499 0.6233
H177_2 H 0.0526 0.3077 0.6111
C165_2 C 0.1895(4) 0.4760(4) 0.6301(5)
H178_2 H 0.1543 0.4871 0.6124
H179_2 H 0.2204 0.4821 0.6040
H180_2 H 0.1955 0.4985 0.6638
O30_2 O 0.0531(2) 0.4424(3) 0.6490(3)
loop_
_geom_bond_atom_site_label_1
_geom_bond_atom_site_label_2
_geom_bond_site_symmetry_1
_geom_bond_site_symmetry_2
Cl3 Mn4 1_555 1_555
Mn19 Cl3 1_555 1_555
Mn27 Cl3 1_555 1_555
Mn30 Cl3 1_555 1_555
O58 Mn4 1_555 1_555
O63 Mn4 1_555 1_555
C199 B7 1_555 1_555
C200 C201 1_555 1_555
B7 C210 1_555 1_555
C201 O37 1_555 1_555
C202 C199 1_555 1_555
C203 C200 1_555 1_555
C204 C199 1_555 1_555
O37 Mn14 1_555 1_555
C205 C200 1_555 1_555
C206 C202 1_555 1_555
H217 C206 1_555 1_555
H218 C206 1_555 1_555
H219 C206 1_555 1_555
C207 C204 1_555 1_555
H220 C207 1_555 1_555
H221 C207 1_555 1_555
H222 C207 1_555 1_555
C208 C203 1_555 1_555
H223 C208 1_555 1_555
H224 C208 1_555 1_555
H225 C208 1_555 1_555
C209 C205 1_555 1_555
H226 C209 1_555 1_555
H227 C209 1_555 1_555
H228 C209 1_555 1_555
O38 C201 1_555 1_555
C210 C213 1_555 1_555
C211 C212 1_555 1_555
C212 O39 1_555 1_555
C213 C216 1_555 1_555
C214 C211 1_555 1_555
C215 C210 1_555 1_555
O39 Mn6 1_555 1_555
C216 C211 1_555 1_555
C217 C213 1_555 1_555
H229 C217 1_555 1_555
H230 C217 1_555 1_555
H231 C217 1_555 1_555
C218 C215 1_555 1_555
H232 C218 1_555 1_555
H233 C218 1_555 1_555
H234 C218 1_555 1_555
C219 C214 1_555 1_555
H235 C219 1_555 1_555
H236 C219 1_555 1_555
H237 C219 1_555 1_555
C220 C216 1_555 1_555
H238 C220 1_555 1_555
H239 C220 1_555 1_555
H240 C220 1_555 1_555
O40 C212 1_555 1_555
C221 B7 1_555 1_555
C222 C223 1_555 1_555
C223 O41 1_555 1_555
C224 C221 1_555 1_555
C225 C222 1_555 1_555
C226 C221 1_555 1_555
O41 Mn19_2 1_555 1_555
C227 C222 1_555 1_555
C228 C224 1_555 1_555
H241 C228 1_555 1_555
H242 C228 1_555 1_555
H243 C228 1_555 1_555
C229 C226 1_555 1_555
H244 C229 1_555 1_555
H245 C229 1_555 1_555
H246 C229 1_555 1_555
C230 C225 1_555 1_555
H247 C230 1_555 1_555
H248 C230 1_555 1_555
H249 C230 1_555 1_555
C231 C227 1_555 1_555
H250 C231 1_555 1_555
H251 C231 1_555 1_555
H252 C231 1_555 1_555
O42 C223 1_555 1_555
Mn21 O38 1_555 1_555
Mn27_2 O42 1_555 1_555
O53 Mn12 1_555 1_555
O56 Mn7 1_555 1_555
O65 Mn7 1_555 1_555
O66 Mn6 1_555 1_555
Cl6 Mn6 1_555 1_555
Mn7 Cl6 1_555 1_555
C202 C205 1_555 1_555
C203 C204 1_555 1_555
C214 C215 1_555 1_555
O40 Mn12 1_555 1_555
C224 C227 1_555 1_555
C225 C226 1_555 1_555
Mn12 Cl6 1_555 1_555
Mn24 Cl6 1_555 1_555
Mn14 Cl4 1_555 1_555
O49 Mn9 1_555 1_555
O69 Mn9 1_555 1_555
Cl4 Mn9 1_555 1_555
Mn15 Cl4 1_555 1_555
Mn14 O2 1_555 1_555
C1 B1 1_555 1_555
C2 C3 1_555 1_555
B1 C12 1_555 1_555
C3 O49 1_555 1_555
C4 C1 1_555 1_555
C5 C2 1_555 1_555
C6 C1 1_555 1_555
C7 C2 1_555 1_555
C8 C4 1_555 1_555
H1 C8 1_555 1_555
H2 C8 1_555 1_555
H3 C8 1_555 1_555
C9 C6 1_555 1_555
H4 C9 1_555 1_555
H5 C9 1_555 1_555
H6 C9 1_555 1_555
C10 C5 1_555 1_555
H7 C10 1_555 1_555
H8 C10 1_555 1_555
H9 C10 1_555 1_555
C11 C7 1_555 1_555
H10 C11 1_555 1_555
H11 C11 1_555 1_555
H12 C11 1_555 1_555
O2 C3 1_555 1_555
C12 C15 1_555 1_555
C13 C14 1_555 1_555
C14 O3 1_555 1_555
C15 C18 1_555 1_555
C16 C13 1_555 1_555
C17 C12 1_555 1_555
O3 Mn27_2 1_555 1_555
C18 C13 1_555 1_555
C19 C15 1_555 1_555
H13 C19 1_555 1_555
H14 C19 1_555 1_555
H15 C19 1_555 1_555
C20 C17 1_555 1_555
H16 C20 1_555 1_555
H17 C20 1_555 1_555
H18 C20 1_555 1_555
C21 C16 1_555 1_555
H19 C21 1_555 1_555
H20 C21 1_555 1_555
H21 C21 1_555 1_555
C22 C18 1_555 1_555
H22 C22 1_555 1_555
H23 C22 1_555 1_555
H24 C22 1_555 1_555
O4 C14 1_555 1_555
C23 B1 1_555 1_555
C24 C25 1_555 1_555
C25 O5 1_555 1_555
C26 C23 1_555 1_555
C27 C24 1_555 1_555
C28 C23 1_555 1_555
O5 Mn12_2 1_555 1_555
C29 C24 1_555 1_555
C30 C26 1_555 1_555
H25 C30 1_555 1_555
H26 C30 1_555 1_555
H27 C30 1_555 1_555
C31 C28 1_555 1_555
H28 C31 1_555 1_555
H29 C31 1_555 1_555
H30 C31 1_555 1_555
C32 C27 1_555 1_555
H31 C32 1_555 1_555
H32 C32 1_555 1_555
H33 C32 1_555 1_555
C33 C29 1_555 1_555
H34 C33 1_555 1_555
H35 C33 1_555 1_555
H36 C33 1_555 1_555
O6 C25 1_555 1_555
C34 B2 1_555 1_555
C35 C36 1_555 1_555
B2 C45 1_555 1_555
C36 O7 1_555 1_555
C37 C34 1_555 1_555
C38 C35 1_555 1_555
C39 C34 1_555 1_555
O7 Mn21 1_555 1_555
C40 C35 1_555 1_555
C41 C37 1_555 1_555
H37 C41 1_555 1_555
H38 C41 1_555 1_555
H39 C41 1_555 1_555
C42 C39 1_555 1_555
H40 C42 1_555 1_555
H41 C42 1_555 1_555
H42 C42 1_555 1_555
C43 C38 1_555 1_555
H43 C43 1_555 1_555
H44 C43 1_555 1_555
H45 C43 1_555 1_555
C44 C40 1_555 1_555
H46 C44 1_555 1_555
H47 C44 1_555 1_555
H48 C44 1_555 1_555
O8 Mn15 1_555 1_555
C45 C48 1_555 1_555
C46 C47 1_555 1_555
C47 O9 1_555 1_555
C48 C51 1_555 1_555
C49 C46 1_555 1_555
C50 C45 1_555 1_555
O9 Mn27 1_555 1_555
C51 C46 1_555 1_555
C52 C48 1_555 1_555
H49 C52 1_555 1_555
H50 C52 1_555 1_555
H51 C52 1_555 1_555
C53 C50 1_555 1_555
H52 C53 1_555 1_555
H53 C53 1_555 1_555
H54 C53 1_555 1_555
C54 C49 1_555 1_555
H55 C54 1_555 1_555
H56 C54 1_555 1_555
H57 C54 1_555 1_555
C55 C51 1_555 1_555
H58 C55 1_555 1_555
H59 C55 1_555 1_555
H60 C55 1_555 1_555
O10 C47 1_555 1_555
C56 B2 1_555 1_555
C57 C58 1_555 1_555
C58 O11 1_555 1_555
C59 C56 1_555 1_555
C60 C57 1_555 1_555
C61 C56 1_555 1_555
O11 Mn24 1_555 1_555
C62 C57 1_555 1_555
C63 C59 1_555 1_555
H61 C63 1_555 1_555
H62 C63 1_555 1_555
H63 C63 1_555 1_555
C64 C61 1_555 1_555
H64 C64 1_555 1_555
H65 C64 1_555 1_555
H66 C64 1_555 1_555
C65 C60 1_555 1_555
H67 C65 1_555 1_555
H68 C65 1_555 1_555
H69 C65 1_555 1_555
C66 C62 1_555 1_555
H70 C66 1_555 1_555
H71 C66 1_555 1_555
H72 C66 1_555 1_555
O66 C58 1_555 1_555
Mn19 O10 1_555 1_555
Mn4_2 O4 1_555 1_555
Cl3_2 Mn4_2 1_555 1_555
Mn6_2 O6 1_555 1_555
Mn7_2 O14 1_555 1_555
C67 B3 1_555 1_555
C68 C69 1_555 1_555
B3 C78 1_555 1_555
C69 O13 1_555 1_555
C70 C67 1_555 1_555
C71 C68 1_555 1_555
C72 C67 1_555 1_555
O13 Mn24_2 1_555 1_555
C73 C68 1_555 1_555
C74 C70 1_555 1_555
H73 C74 1_555 1_555
H74 C74 1_555 1_555
H75 C74 1_555 1_555
C75 C72 1_555 1_555
H76 C75 1_555 1_555
H77 C75 1_555 1_555
H78 C75 1_555 1_555
C76 C71 1_555 1_555
H79 C76 1_555 1_555
H80 C76 1_555 1_555
H81 C76 1_555 1_555
C77 C73 1_555 1_555
H82 C77 1_555 1_555
H83 C77 1_555 1_555
H84 C77 1_555 1_555
O14 C69 1_555 1_555
C78 C81 1_555 1_555
C79 C80 1_555 1_555
C80 O15 1_555 1_555
C81 C84 1_555 1_555
C82 C79 1_555 1_555
C83 C78 1_555 1_555
O15 Mn9_2 1_555 1_555
C84 C79 1_555 1_555
C85 C81 1_555 1_555
H85 C85 1_555 1_555
H86 C85 1_555 1_555
H87 C85 1_555 1_555
C86 C83 1_555 1_555
H88 C86 1_555 1_555
H89 C86 1_555 1_555
H90 C86 1_555 1_555
C87 C82 1_555 1_555
H91 C87 1_555 1_555
H92 C87 1_555 1_555
H93 C87 1_555 1_555
C88 C84 1_555 1_555
H94 C88 1_555 1_555
H95 C88 1_555 1_555
H96 C88 1_555 1_555
O16 C80 1_555 1_555
C89 B3 1_555 1_555
C90 C91 1_555 1_555
C91 O17 1_555 1_555
C92 C89 1_555 1_555
C93 C90 1_555 1_555
C94 C89 1_555 1_555
O17 Mn30 1_555 1_555
C95 C90 1_555 1_555
C96 C92 1_555 1_555
H97 C96 1_555 1_555
H98 C96 1_555 1_555
H99 C96 1_555 1_555
C97 C94 1_555 1_555
H100 C97 1_555 1_555
H101 C97 1_555 1_555
H102 C97 1_555 1_555
C98 C93 1_555 1_555
H103 C98 1_555 1_555
H104 C98 1_555 1_555
H105 C98 1_555 1_555
C99 C95 1_555 1_555
H106 C99 1_555 1_555
H107 C99 1_555 1_555
H108 C99 1_555 1_555
O63 C91 1_555 1_555
Mn9_2 O26 1_555 1_555
C133 B5 1_555 1_555
C134 C135 1_555 1_555
B5 C144 1_555 1_555
C135 O25 1_555 1_555
C136 C133 1_555 1_555
C137 C134 1_555 1_555
C138 C133 1_555 1_555
O25 Mn14_2 1_555 1_555
C139 C134 1_555 1_555
C140 C136 1_555 1_555
H145 C140 1_555 1_555
H146 C140 1_555 1_555
H147 C140 1_555 1_555
C141 C138 1_555 1_555
H148 C141 1_555 1_555
H149 C141 1_555 1_555
H150 C141 1_555 1_555
C142 C137 1_555 1_555
H151 C142 1_555 1_555
H152 C142 1_555 1_555
H153 C142 1_555 1_555
C143 C139 1_555 1_555
H154 C143 1_555 1_555
H155 C143 1_555 1_555
H156 C143 1_555 1_555
O26 C135 1_555 1_555
C144 C147 1_555 1_555
C145 C146 1_555 1_555
C146 O27 1_555 1_555
C147 C150 1_555 1_555
C148 C145 1_555 1_555
C149 C144 1_555 1_555
O27 Mn7_2 1_555 1_555
C150 C145 1_555 1_555
C151 C147 1_555 1_555
H157 C151 1_555 1_555
H158 C151 1_555 1_555
H159 C151 1_555 1_555
C152 C149 1_555 1_555
H160 C152 1_555 1_555
H161 C152 1_555 1_555
H162 C152 1_555 1_555
C153 C148 1_555 1_555
H163 C153 1_555 1_555
H164 C153 1_555 1_555
H165 C153 1_555 1_555
C154 C150 1_555 1_555
H166 C154 1_555 1_555
H167 C154 1_555 1_555
H168 C154 1_555 1_555
O28 C146 1_555 1_555
C155 B5 1_555 1_555
C156 C157 1_555 1_555
C157 O29 1_555 1_555
C158 C155 1_555 1_555
C159 C156 1_555 1_555
C160 C155 1_555 1_555
O29 Mn4_2 1_555 1_555
C161 C156 1_555 1_555
C162 C158 1_555 1_555
H169 C162 1_555 1_555
H170 C162 1_555 1_555
H171 C162 1_555 1_555
C163 C160 1_555 1_555
H172 C163 1_555 1_555
H173 C163 1_555 1_555
H174 C163 1_555 1_555
C164 C159 1_555 1_555
H175 C164 1_555 1_555
H176 C164 1_555 1_555
H177 C164 1_555 1_555
C165 C161 1_555 1_555
H178 C165 1_555 1_555
H179 C165 1_555 1_555
H180 C165 1_555 1_555
O30 C157 1_555 1_555
Mn21 Cl4 1_555 1_555
C232 B8 1_555 1_555
C233 C234 1_555 1_555
B8 C243 1_555 1_555
C234 O43 1_555 1_555
C235 C232 1_555 1_555
C236 C233 1_555 1_555
C237 C232 1_555 1_555
O43 Mn15 1_555 1_555
C238 C233 1_555 1_555
C239 C235 1_555 1_555
H253 C239 1_555 1_555
H254 C239 1_555 1_555
H255 C239 1_555 1_555
C240 C237 1_555 1_555
H256 C240 1_555 1_555
H257 C240 1_555 1_555
H258 C240 1_555 1_555
C241 C236 1_555 1_555
H259 C241 1_555 1_555
H260 C241 1_555 1_555
H261 C241 1_555 1_555
C242 C238 1_555 1_555
H262 C242 1_555 1_555
H263 C242 1_555 1_555
H264 C242 1_555 1_555
C243 C246 1_555 1_555
C244 C245 1_555 1_555
C245 O45 1_555 1_555
C246 C249 1_555 1_555
C247 C244 1_555 1_555
C248 C243 1_555 1_555
O45 Mn6_2 1_555 1_555
C249 C244 1_555 1_555
C250 C246 1_555 1_555
H265 C250 1_555 1_555
H266 C250 1_555 1_555
H267 C250 1_555 1_555
C251 C248 1_555 1_555
H268 C251 1_555 1_555
H269 C251 1_555 1_555
H270 C251 1_555 1_555
C252 C247 1_555 1_555
H271 C252 1_555 1_555
H272 C252 1_555 1_555
H273 C252 1_555 1_555
C253 C249 1_555 1_555
H274 C253 1_555 1_555
H275 C253 1_555 1_555
H276 C253 1_555 1_555
O46 C245 1_555 1_555
C254 B8 1_555 1_555
C255 C256 1_555 1_555
C256 O58 1_555 1_555
C257 C254 1_555 1_555
C258 C255 1_555 1_555
C259 C254 1_555 1_555
C260 C255 1_555 1_555
C261 C257 1_555 1_555
H277 C261 1_555 1_555
H278 C261 1_555 1_555
H279 C261 1_555 1_555
C262 C259 1_555 1_555
H280 C262 1_555 1_555
H281 C262 1_555 1_555
H282 C262 1_555 1_555
C263 C258 1_555 1_555
H283 C263 1_555 1_555
H284 C263 1_555 1_555
H285 C263 1_555 1_555
C264 C260 1_555 1_555
H286 C264 1_555 1_555
H287 C264 1_555 1_555
H288 C264 1_555 1_555
O48 C256 1_555 1_555
Mn12_2 O28 1_555 1_555
Mn14_2 Cl4_2 1_555 1_555
Mn15_2 O16 1_555 1_555
Mn19_2 Cl3_2 1_555 1_555
Mn24_2 O46 1_555 1_555
Mn27_2 Cl3_2 1_555 1_555
Mn30_2 Cl3_2 1_555 1_555
O59 Mn19 1_555 1_555
Cl4_2 Mn9_2 1_555 1_555
Cl6_2 Mn6_2 1_555 1_555
C4 C7 1_555 1_555
C5 C6 1_555 1_555
C16 C17 1_555 1_555
C26 C29 1_555 1_555
C27 C28 1_555 1_555
C36 O8 1_555 1_555
C37 C40 1_555 1_555
C38 C39 1_555 1_555
C49 C50 1_555 1_555
C59 C62 1_555 1_555
C60 C61 1_555 1_555
Mn7_2 Cl6_2 1_555 1_555
C70 C73 1_555 1_555
C71 C72 1_555 1_555
C82 C83 1_555 1_555
C92 C95 1_555 1_555
C93 C94 1_555 1_555
C136 C139 1_555 1_555
C137 C138 1_555 1_555
C148 C149 1_555 1_555
C158 C161 1_555 1_555
C159 C160 1_555 1_555
O30 Mn30_2 1_555 1_555
C234 O69 1_555 1_555
C235 C238 1_555 1_555
C236 C237 1_555 1_555
C247 C248 1_555 1_555
C257 C260 1_555 1_555
C258 C259 1_555 1_555
O48 Mn27 1_555 1_555
Mn12_2 Cl6_2 1_555 1_555
Mn15_2 Cl4_2 1_555 1_555
Mn24_2 Cl6_2 1_555 1_555
Mn21_2 Cl4_2 1_555 1_555
O51 Mn21_2 1_555 1_555
O55 Mn15_2 1_555 1_555
O62 Mn14_2 1_555 1_555
O68 Mn21_2 1_555 1_555
O64 Mn19_2 1_555 1_555
O70 Mn24 1_555 1_555
C67_2 B3_2 1_555 1_555
C68_2 C69_2 1_555 1_555
B3_2 C78_2 1_555 1_555
C69_2 O53 1_555 1_555
C70_2 C67_2 1_555 1_555
C71_2 C68_2 1_555 1_555
C72_2 C67_2 1_555 1_555
C73_2 C68_2 1_555 1_555
C74_2 C70_2 1_555 1_555
H73_2 C74_2 1_555 1_555
H74_2 C74_2 1_555 1_555
H75_2 C74_2 1_555 1_555
C75_2 C72_2 1_555 1_555
H76_2 C75_2 1_555 1_555
H77_2 C75_2 1_555 1_555
H78_2 C75_2 1_555 1_555
C76_2 C71_2 1_555 1_555
H79_2 C76_2 1_555 1_555
H80_2 C76_2 1_555 1_555
H81_2 C76_2 1_555 1_555
C77_2 C73_2 1_555 1_555
H82_2 C77_2 1_555 1_555
H83_2 C77_2 1_555 1_555
H84_2 C77_2 1_555 1_555
O65 C69_2 1_555 1_555
C78_2 C81_2 1_555 1_555
C79_2 C80_2 1_555 1_555
C80_2 O51 1_555 1_555
C81_2 C84_2 1_555 1_555
C82_2 C79_2 1_555 1_555
C83_2 C78_2 1_555 1_555
C84_2 C79_2 1_555 1_555
C85_2 C81_2 1_555 1_555
H85_2 C85_2 1_555 1_555
H86_2 C85_2 1_555 1_555
H87_2 C85_2 1_555 1_555
C86_2 C83_2 1_555 1_555
H88_2 C86_2 1_555 1_555
H89_2 C86_2 1_555 1_555
H90_2 C86_2 1_555 1_555
C87_2 C82_2 1_555 1_555
H91_2 C87_2 1_555 1_555
H92_2 C87_2 1_555 1_555
H93_2 C87_2 1_555 1_555
C88_2 C84_2 1_555 1_555
H94_2 C88_2 1_555 1_555
H95_2 C88_2 1_555 1_555
H96_2 C88_2 1_555 1_555
O62 C80_2 1_555 1_555
C89_2 B3_2 1_555 1_555
C90_2 C91_2 1_555 1_555
C91_2 O17_2 1_555 1_555
C92_2 C89_2 1_555 1_555
C93_2 C90_2 1_555 1_555
C94_2 C89_2 1_555 1_555
O17_2 Mn30_2 1_555 1_555
C95_2 C90_2 1_555 1_555
C96_2 C92_2 1_555 1_555
H97_2 C96_2 1_555 1_555
H98_2 C96_2 1_555 1_555
H99_2 C96_2 1_555 1_555
C97_2 C94_2 1_555 1_555
H100_2 C97_2 1_555 1_555
H101_2 C97_2 1_555 1_555
H102_2 C97_2 1_555 1_555
C98_2 C93_2 1_555 1_555
H103_2 C98_2 1_555 1_555
H104_2 C98_2 1_555 1_555
H105_2 C98_2 1_555 1_555
C99_2 C95_2 1_555 1_555
H106_2 C99_2 1_555 1_555
H107_2 C99_2 1_555 1_555
H108_2 C99_2 1_555 1_555
O64 C91_2 1_555 1_555
C133_2 B5_2 1_555 1_555
C134_2 C135_2 1_555 1_555
B5_2 C144_2 1_555 1_555
C135_2 O55 1_555 1_555
C136_2 C133_2 1_555 1_555
C137_2 C134_2 1_555 1_555
C138_2 C133_2 1_555 1_555
C139_2 C134_2 1_555 1_555
C140_2 C136_2 1_555 1_555
H145_2 C140_2 1_555 1_555
H146_2 C140_2 1_555 1_555
H147_2 C140_2 1_555 1_555
C141_2 C138_2 1_555 1_555
H148_2 C141_2 1_555 1_555
H149_2 C141_2 1_555 1_555
H150_2 C141_2 1_555 1_555
C142_2 C137_2 1_555 1_555
H151_2 C142_2 1_555 1_555
H152_2 C142_2 1_555 1_555
H153_2 C142_2 1_555 1_555
C143_2 C139_2 1_555 1_555
H154_2 C143_2 1_555 1_555
H155_2 C143_2 1_555 1_555
H156_2 C143_2 1_555 1_555
O68 C135_2 1_555 1_555
C144_2 C147_2 1_555 1_555
C145_2 C146_2 1_555 1_555
C146_2 O56 1_555 1_555
C147_2 C150_2 1_555 1_555
C148_2 C145_2 1_555 1_555
C149_2 C144_2 1_555 1_555
C150_2 C145_2 1_555 1_555
C151_2 C147_2 1_555 1_555
H157_2 C151_2 1_555 1_555
H158_2 C151_2 1_555 1_555
H159_2 C151_2 1_555 1_555
C152_2 C149_2 1_555 1_555
H160_2 C152_2 1_555 1_555
H161_2 C152_2 1_555 1_555
H162_2 C152_2 1_555 1_555
C153_2 C148_2 1_555 1_555
H163_2 C153_2 1_555 1_555
H164_2 C153_2 1_555 1_555
H165_2 C153_2 1_555 1_555
C154_2 C150_2 1_555 1_555
H166_2 C154_2 1_555 1_555
H167_2 C154_2 1_555 1_555
H168_2 C154_2 1_555 1_555
O70 C146_2 1_555 1_555
C155_2 B5_2 1_555 1_555
C156_2 C157_2 1_555 1_555
C157_2 O59 1_555 1_555
C158_2 C155_2 1_555 1_555
C159_2 C156_2 1_555 1_555
C160_2 C155_2 1_555 1_555
C161_2 C156_2 1_555 1_555
C162_2 C158_2 1_555 1_555
H169_2 C162_2 1_555 1_555
H170_2 C162_2 1_555 1_555
H171_2 C162_2 1_555 1_555
C163_2 C160_2 1_555 1_555
H172_2 C163_2 1_555 1_555
H173_2 C163_2 1_555 1_555
H174_2 C163_2 1_555 1_555
C164_2 C159_2 1_555 1_555
H175_2 C164_2 1_555 1_555
H176_2 C164_2 1_555 1_555
H177_2 C164_2 1_555 1_555
C165_2 C161_2 1_555 1_555
H178_2 C165_2 1_555 1_555
H179_2 C165_2 1_555 1_555
H180_2 C165_2 1_555 1_555
O30_2 C157_2 1_555 1_555
C70_2 C73_2 1_555 1_555
C71_2 C72_2 1_555 1_555
C82_2 C83_2 1_555 1_555
C92_2 C95_2 1_555 1_555
C93_2 C94_2 1_555 1_555
C136_2 C139_2 1_555 1_555
C137_2 C138_2 1_555 1_555
C148_2 C149_2 1_555 1_555
C158_2 C161_2 1_555 1_555
C159_2 C160_2 1_555 1_555
O30_2 Mn30 1_555 1_555

#END
