
###############################################################################
#
# This file contains modified crystal structure data generated from the
# MOF subset of the Cambridge Structural Database (CSD) v543 
# hosted by the Cambridge Crystallographic Data Centre (CCDC).
#
# This work is licensed under the Creative Commons
# Attribution-NonCommercial-ShareAlike 4.0 International License.
# To view a copy of this license, visit
# http://creativecommons.org/licenses/by-nc-sa/4.0/
# or send a letter to
# Creative Commons, PO Box 1866, Mountain View, CA 94042, USA.
#
# CIF created using the CSD Python API on 29 September 2022
# The structure has been converted into the P1 space group
# The structure has a 3D framework
# The original CSD entry HUNHUW is in the monoclinic crystal system
# The framework has been calculated to contain at least 10.0% void space
# The void calculation uses a probe of radius 1.32A, grid spacing 0.4
#
###############################################################################

data_HUNHUW
_chemical_formula_moiety         '(C176 H160 N48 O96 Zn12)n'
_symmetry_cell_setting           triclinic
_symmetry_space_group_name_H-M   'P 1'
_symmetry_Int_Tables_number      1
_space_group_name_Hall           'P 1'
loop_
_symmetry_equiv_pos_site_id
_symmetry_equiv_pos_as_xyz
1 x,y,z
_cell_length_a                   21.5759(4)
_cell_length_b                   12.87221(18)
_cell_length_c                   26.4917(5)
_cell_angle_alpha                90
_cell_angle_beta                 109.462(2)
_cell_angle_gamma                90
_cell_volume                     6937.14
loop_
_atom_site_label
_atom_site_type_symbol
_atom_site_fract_x
_atom_site_fract_y
_atom_site_fract_z
O3 O 0.3589(2) 0.1885(3) 0.82067(15)
O4 O 0.3963(2) 0.1959(3) 0.90966(16)
C6 C 0.3911(3) 0.1539(4) 0.86637(19)
C8 C 0.4110(2) 0.0009(4) 0.81401(19)
H4 H 0.4236 0.0466 0.7900
C13 C 0.4270(3) 0.0526(4) 0.8682(2)
H11 H 0.4157 0.0055 0.8924
H12 H 0.4739 0.0653 0.8825
Zn4 Zn 0.36630(3) 0.31261(4) 0.94992(2)
Zn6 Zn 0.31413(3) 0.31988(4) 0.81137(2)
Zn1 Zn 0.36630(3) 0.68739(4) 0.44992(2)
O1 O 0.76940(18) 0.7968(3) 0.90881(14)
O2 O 0.41137(19) 0.4334(3) 0.92966(14)
O5 O 0.53694(18) 0.9829(3) 0.81332(15)
O6 O 0.45430(17) 0.7285(3) 0.51733(14)
O7 O 0.72931(18) 0.8036(3) 0.82015(14)
O8 O 0.3615(2) 0.8160(3) 0.83329(18)
O9 O 0.5345(2) 0.6309(3) 0.82031(17)
O10 O 0.3591(3) 0.4441(4) 0.84235(18)
O11 O 0.4600(2) 0.8604(4) 0.56997(15)
O12 O 0.36767(18) 0.8213(3) 0.50754(15)
N1 N 0.3003(2) 0.3642(3) 0.73492(15)
N2 N 0.3383(2) 0.5926(3) 0.50532(15)
N3 N 0.44511(19) 0.9015(3) 0.81782(15)
N4 N 0.4454(2) 0.7200(3) 0.82428(16)
N5 N 0.5366(2) 0.8061(3) 0.81478(16)
N6 N 0.4284(2) 0.8050(3) 0.53255(16)
C1 C 0.3076(2) 0.4461(4) 0.63983(19)
C2 C 0.2697(2) 0.5587(4) 0.55771(19)
H1 H 0.2300 0.5704 0.5635
C3 C 0.7229(2) 0.8002(3) 0.86541(18)
C4 C 0.3159(2) 0.4931(4) 0.59128(18)
C5 C 0.2823(2) 0.6069(4) 0.51563(19)
H2 H 0.2506 0.6510 0.4936
C7 C 0.3989(3) 0.4766(4) 0.8855(2)
H3 H 0.3639 0.9894 0.7991
C9 C 0.4113(3) 0.6217(4) 0.8267(2)
H5 H 0.4192 0.5723 0.8018
H6 H 0.3644 0.6342 0.8158
C10 C 0.4348(3) 0.5757(5) 0.8827(2)
H7 H 0.4816 0.5617 0.8932
H8 H 0.4280 0.6258 0.9076
C11 C 0.3822(3) 0.5262(4) 0.5364(2)
H9 H 0.4206 0.5136 0.5287
C12 C 0.3731(3) 0.4752(4) 0.5793(2)
H10 H 0.4049 0.4296 0.6000
C14 C 0.2783(2) 0.4592(4) 0.7188(2)
H13 H 0.2604 0.4982 0.7401
C15 C 0.5086(2) 0.9030(4) 0.81571(17)
C16 C 0.5077(3) 0.7129(4) 0.81984(19)
C17 C 0.6543(2) 0.7978(4) 0.86747(18)
H14 H 0.6482 0.8563 0.8884
H15 H 0.6482 0.7346 0.8852
C18 C 0.2808(3) 0.5026(4) 0.6719(2)
H16 H 0.2646 0.5692 0.6619
C19 C 0.6032(2) 0.8026(4) 0.8122(2)
H17 H 0.6107 0.8639 0.7937
H18 H 0.6077 0.7421 0.7918
C20 C 0.4134(2) 0.8127(4) 0.82627(19)
C21 C 0.3287(3) 0.3454(4) 0.6556(2)
H19 H 0.3456 0.3045 0.6343
C22 C 0.3244(3) 0.3066(4) 0.7028(2)
H20 H 0.3384 0.2390 0.7130
Zn5 Zn 0.86630(3) 0.81261(4) 0.94992(2)
Zn7 Zn 0.81413(3) 0.81988(4) 0.81137(2)
O13 O 0.26940(18) 0.7032(3) 0.40881(14)
O14 O 0.41137(19) 0.5666(3) 0.42966(14)
O16 O 0.3963(2) 0.8041(3) 0.40966(16)
O17 O 0.22931(18) 0.3036(3) 0.82015(14)
O1_2 O 0.26940(18) 0.2968(3) 0.90881(14)
O5_2 O 0.03694(18) 0.4829(3) 0.81332(15)
O9_2 O 0.0345(2) 0.1309(3) 0.82031(17)
N5_2 N 0.0366(2) 0.3061(3) 0.81478(16)
C3_2 C 0.2229(2) 0.3002(3) 0.86541(18)
C15_2 C 0.0086(2) 0.4030(4) 0.81571(17)
C16_2 C 0.0077(3) 0.2129(4) 0.81984(19)
C17_2 C 0.1543(2) 0.2978(4) 0.86747(18)
H14_2 H 0.1482 0.3563 0.8884
H15_2 H 0.1482 0.2346 0.8852
C19_2 C 0.1032(2) 0.3026(4) 0.8122(2)
H17_2 H 0.1107 0.3639 0.7937
H18_2 H 0.1077 0.2421 0.7918
Zn1_2 Zn 0.86630(3) 0.18739(4) 0.44992(2)
O3_2 O 0.8589(2) 0.6885(3) 0.82067(15)
O4_2 O 0.8963(2) 0.6959(3) 0.90966(16)
O6_2 O 0.95430(17) 0.2285(3) 0.51733(14)
O8_2 O 0.8615(2) 0.3160(3) 0.83329(18)
O11_2 O 0.9600(2) 0.3604(4) 0.56997(15)
O12_2 O 0.86767(18) 0.3213(3) 0.50754(15)
N2_2 N 0.8383(2) 0.0926(3) 0.50532(15)
N3_2 N 0.94511(19) 0.4015(3) 0.81782(15)
N4_2 N 0.9454(2) 0.2200(3) 0.82428(16)
N6_2 N 0.9284(2) 0.3050(3) 0.53255(16)
C2_2 C 0.7697(2) 0.0587(4) 0.55771(19)
H1_2 H 0.7300 0.0704 0.5635
C5_2 C 0.7823(2) 0.1069(4) 0.51563(19)
H2_2 H 0.7506 0.1510 0.4936
C6_2 C 0.8911(3) 0.6539(4) 0.86637(19)
C8_2 C 0.9110(2) 0.5009(4) 0.81401(19)
H3_2 H 0.8639 0.4894 0.7991
H4_2 H 0.9236 0.5466 0.7900
C9_2 C 0.9113(3) 0.1217(4) 0.8267(2)
H5_2 H 0.9192 0.0723 0.8018
H6_2 H 0.8644 0.1342 0.8158
C10_2 C 0.9348(3) 0.0757(5) 0.8827(2)
H7_2 H 0.9816 0.0617 0.8932
H8_2 H 0.9280 0.1258 0.9076
C11_2 C 0.8822(3) 0.0262(4) 0.5364(2)
H9_2 H 0.9206 0.0136 0.5287
C13_2 C 0.9270(3) 0.5526(4) 0.8682(2)
H11_2 H 0.9157 0.5055 0.8924
H12_2 H 0.9739 0.5653 0.8825
C18_2 C 0.7808(3) 0.0026(4) 0.6719(2)
H16_2 H 0.7646 0.0692 0.6619
C20_2 C 0.9134(2) 0.3127(4) 0.82627(19)
O13_2 O 0.76940(18) 0.2032(3) 0.40881(14)
O14_2 O 0.91137(19) 0.0666(3) 0.42966(14)
O16_2 O 0.8963(2) 0.3041(3) 0.40966(16)
O2_2 O 0.91137(19) 0.9334(3) 0.92966(14)
O10_2 O 0.8591(3) 0.9441(4) 0.84235(18)
N1_2 N 0.8003(2) 0.8642(3) 0.73492(15)
C1_2 C 0.8076(2) 0.9461(4) 0.63983(19)
C4_2 C 0.8159(2) 0.9931(4) 0.59128(18)
C7_2 C 0.8989(3) 0.9766(4) 0.8855(2)
C12_2 C 0.8731(3) 0.9752(4) 0.5793(2)
H10_2 H 0.9049 0.9296 0.6000
C14_2 C 0.7783(2) 0.9592(4) 0.7188(2)
H13_2 H 0.7604 0.9982 0.7401
C21_2 C 0.8287(3) 0.8454(4) 0.6556(2)
H19_2 H 0.8456 0.8045 0.6343
C22_2 C 0.8244(3) 0.8066(4) 0.7028(2)
H20_2 H 0.8384 0.7390 0.7130
Zn2 Zn 0.31413(3) 0.68012(4) 0.31137(2)
O5_3 O 0.53694(18) 0.0171(3) 0.31332(15)
O6_3 O 0.45430(17) 0.2715(3) 0.01733(14)
O7_2 O 0.72931(18) 0.1964(3) 0.32015(14)
O8_3 O 0.3615(2) 0.1840(3) 0.33329(18)
O9_3 O 0.5345(2) 0.3691(3) 0.32031(17)
O10_3 O 0.3591(3) 0.5559(4) 0.34235(18)
O11_3 O 0.4600(2) 0.1396(4) 0.06997(15)
O12_3 O 0.36767(18) 0.1787(3) 0.00754(15)
N1_3 N 0.3003(2) 0.6358(3) 0.23492(15)
N2_3 N 0.3383(2) 0.4074(3) 0.00532(15)
N3_3 N 0.44511(19) 0.0985(3) 0.31782(15)
N4_3 N 0.4454(2) 0.2800(3) 0.32428(16)
N5_3 N 0.5366(2) 0.1939(3) 0.31478(16)
N6_3 N 0.4284(2) 0.1950(3) 0.03255(16)
C1_3 C 0.3076(2) 0.5539(4) 0.13983(19)
C2_3 C 0.2697(2) 0.4413(4) 0.05771(19)
H1_3 H 0.2300 0.4296 0.0635
C3_3 C 0.7229(2) 0.1998(3) 0.36541(18)
C4_3 C 0.3159(2) 0.5069(4) 0.09128(18)
C5_3 C 0.2823(2) 0.3931(4) 0.01563(19)
C7_3 C 0.3989(3) 0.5234(4) 0.3855(2)
H3_3 H 0.3639 0.0106 0.2991
C9_3 C 0.4113(3) 0.3783(4) 0.3267(2)
H5_3 H 0.4192 0.4277 0.3018
H6_3 H 0.3644 0.3658 0.3158
C10_3 C 0.4348(3) 0.4243(5) 0.3827(2)
H7_3 H 0.4816 0.4383 0.3932
H8_3 H 0.4280 0.3742 0.4076
C11_3 C 0.3822(3) 0.4738(4) 0.0364(2)
H9_3 H 0.4206 0.4864 0.0287
C12_3 C 0.3731(3) 0.5248(4) 0.0793(2)
H10_3 H 0.4049 0.5704 0.1000
C14_3 C 0.2783(2) 0.5408(4) 0.2188(2)
H13_3 H 0.2604 0.5018 0.2401
C15_3 C 0.5086(2) 0.0970(4) 0.31571(17)
C16_3 C 0.5077(3) 0.2871(4) 0.31984(19)
C17_3 C 0.6543(2) 0.2022(4) 0.36747(18)
H14_3 H 0.6482 0.1437 0.3884
H15_3 H 0.6482 0.2654 0.3852
C18_3 C 0.2808(3) 0.4974(4) 0.1719(2)
H16_3 H 0.2646 0.4308 0.1619
C19_3 C 0.6032(2) 0.1974(4) 0.3122(2)
H17_3 H 0.6107 0.1361 0.2937
H18_3 H 0.6077 0.2579 0.2918
C20_3 C 0.4134(2) 0.1873(4) 0.32627(19)
C21_3 C 0.3287(3) 0.6546(4) 0.1556(2)
H19_3 H 0.3456 0.6955 0.1343
C22_3 C 0.3244(3) 0.6934(4) 0.2028(2)
H20_3 H 0.3384 0.7610 0.2130
Zn7_2 Zn 0.81413(3) 0.18012(4) 0.31137(2)
O15 O 0.3589(2) 0.8115(3) 0.32067(15)
O17_2 O 0.22931(18) 0.6964(3) 0.32015(14)
H2_3 H 0.2506 0.3490 0.9936
C6_3 C 0.3911(3) 0.8461(4) 0.36637(19)
C8_3 C 0.4110(2) 0.9991(4) 0.31401(19)
H4_3 H 0.4236 0.9534 0.2900
C13_3 C 0.4270(3) 0.9474(4) 0.3682(2)
H11_3 H 0.4157 0.9945 0.3924
H12_3 H 0.4739 0.9347 0.3825
O5_4 O 0.03694(18) 0.5171(3) 0.31332(15)
O9_4 O 0.0345(2) 0.8691(3) 0.32031(17)
N5_4 N 0.0366(2) 0.6939(3) 0.31478(16)
C3_4 C 0.2229(2) 0.6998(3) 0.36541(18)
C15_4 C 0.0086(2) 0.5970(4) 0.31571(17)
C16_4 C 0.0077(3) 0.7871(4) 0.31984(19)
C17_4 C 0.1543(2) 0.7022(4) 0.36747(18)
H14_4 H 0.1482 0.6437 0.3884
H15_4 H 0.1482 0.7654 0.3852
C19_4 C 0.1032(2) 0.6974(4) 0.3122(2)
H17_4 H 0.1107 0.6361 0.2937
H18_4 H 0.1077 0.7579 0.2918
O10_4 O 0.8591(3) 0.0559(4) 0.34235(18)
N1_4 N 0.8003(2) 0.1358(3) 0.23492(15)
C1_4 C 0.8076(2) 0.0539(4) 0.13983(19)
C4_4 C 0.8159(2) 0.0069(4) 0.09128(18)
C7_4 C 0.8989(3) 0.0234(4) 0.3855(2)
C12_4 C 0.8731(3) 0.0248(4) 0.0793(2)
H10_4 H 0.9049 0.0704 0.1000
C14_4 C 0.7783(2) 0.0408(4) 0.2188(2)
H13_4 H 0.7604 0.0018 0.2401
C21_4 C 0.8287(3) 0.1546(4) 0.1556(2)
H19_4 H 0.8456 0.1955 0.1343
C22_4 C 0.8244(3) 0.1934(4) 0.2028(2)
H20_4 H 0.8384 0.2610 0.2130
O15_2 O 0.8589(2) 0.3115(3) 0.32067(15)
O6_4 O 0.95430(17) 0.7715(3) 0.01733(14)
O8_4 O 0.8615(2) 0.6840(3) 0.33329(18)
O11_4 O 0.9600(2) 0.6396(4) 0.06997(15)
O12_4 O 0.86767(18) 0.6787(3) 0.00754(15)
N2_4 N 0.8383(2) 0.9074(3) 0.00532(15)
N3_4 N 0.94511(19) 0.5985(3) 0.31782(15)
N4_4 N 0.9454(2) 0.7800(3) 0.32428(16)
N6_4 N 0.9284(2) 0.6950(3) 0.03255(16)
C2_4 C 0.7697(2) 0.9413(4) 0.05771(19)
H1_4 H 0.7300 0.9296 0.0635
C5_4 C 0.7823(2) 0.8931(4) 0.01563(19)
C6_4 C 0.8911(3) 0.3461(4) 0.36637(19)
C8_4 C 0.9110(2) 0.4991(4) 0.31401(19)
H3_4 H 0.8639 0.5106 0.2991
H4_4 H 0.9236 0.4534 0.2900
C9_4 C 0.9113(3) 0.8783(4) 0.3267(2)
H5_4 H 0.9192 0.9277 0.3018
H6_4 H 0.8644 0.8658 0.3158
C10_4 C 0.9348(3) 0.9243(5) 0.3827(2)
H7_4 H 0.9816 0.9383 0.3932
H8_4 H 0.9280 0.8742 0.4076
C11_4 C 0.8822(3) 0.9738(4) 0.0364(2)
H9_4 H 0.9206 0.9864 0.0287
C13_4 C 0.9270(3) 0.4474(4) 0.3682(2)
H11_4 H 0.9157 0.4945 0.3924
H12_4 H 0.9739 0.4347 0.3825
C18_4 C 0.7808(3) 0.9974(4) 0.1719(2)
H16_4 H 0.7646 0.9308 0.1619
C20_4 C 0.9134(2) 0.6873(4) 0.32627(19)
H2_4 H 0.7506 0.8490 0.9936
O3_3 O 0.6411(2) 0.1885(3) 0.67933(15)
O4_3 O 0.6037(2) 0.1959(3) 0.59034(16)
C6_5 C 0.6089(3) 0.1539(4) 0.63363(19)
C8_5 C 0.5890(2) 0.0009(4) 0.68599(19)
H4_5 H 0.5764 0.0466 0.7100
C13_5 C 0.5730(3) 0.0526(4) 0.6318(2)
H11_5 H 0.5843 0.0055 0.6076
H12_5 H 0.5261 0.0653 0.6175
Zn4_2 Zn 0.63370(3) 0.31261(4) 0.55008(2)
Zn6_2 Zn 0.68587(3) 0.31988(4) 0.68863(2)
Zn1_3 Zn 0.63370(3) 0.68739(4) 0.05008(2)
H2_5 H 0.7494 0.6510 0.0064
O13_3 O 0.73060(18) 0.7032(3) 0.09119(14)
O14_3 O 0.58863(19) 0.5666(3) 0.07034(14)
O16_3 O 0.6037(2) 0.8041(3) 0.09034(16)
O1_3 O 0.23060(18) 0.7968(3) 0.59119(14)
O2_3 O 0.58863(19) 0.4334(3) 0.57034(14)
O5_5 O 0.46306(18) 0.9829(3) 0.68668(15)
O6_5 O 0.54570(17) 0.7285(3) 0.98267(14)
O7_3 O 0.27069(18) 0.8036(3) 0.67985(14)
O8_5 O 0.6385(2) 0.8160(3) 0.66671(18)
O9_5 O 0.4655(2) 0.6309(3) 0.67969(17)
O10_5 O 0.6409(3) 0.4441(4) 0.65765(18)
O11_5 O 0.5400(2) 0.8604(4) 0.93003(15)
O12_5 O 0.63233(18) 0.8213(3) 0.99246(15)
N1_5 N 0.6997(2) 0.3642(3) 0.76508(15)
N2_5 N 0.6617(2) 0.5926(3) 0.99468(15)
N3_5 N 0.55489(19) 0.9015(3) 0.68218(15)
N4_5 N 0.5546(2) 0.7200(3) 0.67572(16)
N5_5 N 0.4634(2) 0.8061(3) 0.68522(16)
N6_5 N 0.5716(2) 0.8050(3) 0.96745(16)
C1_5 C 0.6924(2) 0.4461(4) 0.86017(19)
C2_5 C 0.7303(2) 0.5587(4) 0.94229(19)
H1_5 H 0.7700 0.5704 0.9365
C3_5 C 0.2771(2) 0.8002(3) 0.63459(18)
C4_5 C 0.6841(2) 0.4931(4) 0.90872(18)
C5_5 C 0.7177(2) 0.6069(4) 0.98437(19)
C7_5 C 0.6011(3) 0.4766(4) 0.6145(2)
H3_5 H 0.6361 0.9894 0.7009
C9_5 C 0.5887(3) 0.6217(4) 0.6733(2)
H5_5 H 0.5808 0.5723 0.6982
H6_5 H 0.6356 0.6342 0.6842
C10_5 C 0.5652(3) 0.5757(5) 0.6173(2)
H7_5 H 0.5184 0.5617 0.6068
H8_5 H 0.5720 0.6258 0.5924
C11_5 C 0.6178(3) 0.5262(4) 0.9636(2)
H9_5 H 0.5794 0.5136 0.9713
C12_5 C 0.6269(3) 0.4752(4) 0.9207(2)
H10_5 H 0.5951 0.4296 0.9000
C14_5 C 0.7217(2) 0.4592(4) 0.7812(2)
H13_5 H 0.7396 0.4982 0.7599
C15_5 C 0.4914(2) 0.9030(4) 0.68429(17)
C16_5 C 0.4923(3) 0.7129(4) 0.68016(19)
C17_5 C 0.3457(2) 0.7978(4) 0.63253(18)
H14_5 H 0.3518 0.8563 0.6116
H15_5 H 0.3518 0.7346 0.6148
C18_5 C 0.7192(3) 0.5026(4) 0.8281(2)
H16_5 H 0.7354 0.5692 0.8381
C19_5 C 0.3968(2) 0.8026(4) 0.6878(2)
H17_5 H 0.3893 0.8639 0.7063
H18_5 H 0.3923 0.7421 0.7082
C20_5 C 0.5866(2) 0.8127(4) 0.67373(19)
C21_5 C 0.6713(3) 0.3454(4) 0.8444(2)
H19_5 H 0.6544 0.3045 0.8657
C22_5 C 0.6756(3) 0.3066(4) 0.7972(2)
H20_5 H 0.6616 0.2390 0.7870
Zn5_2 Zn 0.13370(3) 0.81261(4) 0.55008(2)
Zn7_3 Zn 0.18587(3) 0.81988(4) 0.68863(2)
O17_3 O 0.77069(18) 0.3036(3) 0.67985(14)
Zn1_4 Zn 0.13370(3) 0.18739(4) 0.05008(2)
H2_6 H 0.2494 0.1510 0.0064
O13_4 O 0.23060(18) 0.2032(3) 0.09119(14)
O14_4 O 0.08863(19) 0.0666(3) 0.07034(14)
O16_4 O 0.1037(2) 0.3041(3) 0.09034(16)
O3_4 O 0.1411(2) 0.6885(3) 0.67933(15)
O4_4 O 0.1037(2) 0.6959(3) 0.59034(16)
O6_6 O 0.04570(17) 0.2285(3) 0.98267(14)
O8_6 O 0.1385(2) 0.3160(3) 0.66671(18)
O11_6 O 0.0400(2) 0.3604(4) 0.93003(15)
O12_6 O 0.13233(18) 0.3213(3) 0.99246(15)
N2_6 N 0.1617(2) 0.0926(3) 0.99468(15)
N3_6 N 0.05489(19) 0.4015(3) 0.68218(15)
N4_6 N 0.0546(2) 0.2200(3) 0.67572(16)
N6_6 N 0.0716(2) 0.3050(3) 0.96745(16)
C2_6 C 0.2303(2) 0.0587(4) 0.94229(19)
H1_6 H 0.2700 0.0704 0.9365
C5_6 C 0.2177(2) 0.1069(4) 0.98437(19)
C6_6 C 0.1089(3) 0.6539(4) 0.63363(19)
C8_6 C 0.0890(2) 0.5009(4) 0.68599(19)
H3_6 H 0.1361 0.4894 0.7009
H4_6 H 0.0764 0.5466 0.7100
C9_6 C 0.0887(3) 0.1217(4) 0.6733(2)
H5_6 H 0.0808 0.0723 0.6982
H6_6 H 0.1356 0.1342 0.6842
C10_6 C 0.0652(3) 0.0757(5) 0.6173(2)
H7_6 H 0.0184 0.0617 0.6068
H8_6 H 0.0720 0.1258 0.5924
C11_6 C 0.1178(3) 0.0262(4) 0.9636(2)
H9_6 H 0.0794 0.0136 0.9713
C13_6 C 0.0730(3) 0.5526(4) 0.6318(2)
H11_6 H 0.0843 0.5055 0.6076
H12_6 H 0.0261 0.5653 0.6175
C18_6 C 0.2192(3) 0.0026(4) 0.8281(2)
H16_6 H 0.2354 0.0692 0.8381
C20_6 C 0.0866(2) 0.3127(4) 0.67373(19)
O2_4 O 0.08863(19) 0.9334(3) 0.57034(14)
O10_6 O 0.1409(3) 0.9441(4) 0.65765(18)
N1_6 N 0.1997(2) 0.8642(3) 0.76508(15)
C1_6 C 0.1924(2) 0.9461(4) 0.86017(19)
C4_6 C 0.1841(2) 0.9931(4) 0.90872(18)
C7_6 C 0.1011(3) 0.9766(4) 0.6145(2)
C12_6 C 0.1269(3) 0.9752(4) 0.9207(2)
H10_6 H 0.0951 0.9296 0.9000
C14_6 C 0.2217(2) 0.9592(4) 0.7812(2)
H13_6 H 0.2396 0.9982 0.7599
C21_6 C 0.1713(3) 0.8454(4) 0.8444(2)
H19_6 H 0.1544 0.8045 0.8657
C22_6 C 0.1756(3) 0.8066(4) 0.7972(2)
H20_6 H 0.1616 0.7390 0.7870
O1_4 O 0.73060(18) 0.2968(3) 0.59119(14)
O5_6 O 0.96306(18) 0.4829(3) 0.68668(15)
O9_6 O 0.9655(2) 0.1309(3) 0.67969(17)
N5_6 N 0.9634(2) 0.3061(3) 0.68522(16)
C3_6 C 0.7771(2) 0.3002(3) 0.63459(18)
C15_6 C 0.9914(2) 0.4030(4) 0.68429(17)
C16_6 C 0.9923(3) 0.2129(4) 0.68016(19)
C17_6 C 0.8457(2) 0.2978(4) 0.63253(18)
H14_6 H 0.8518 0.3563 0.6116
H15_6 H 0.8518 0.2346 0.6148
C19_6 C 0.8968(2) 0.3026(4) 0.6878(2)
H17_6 H 0.8893 0.3639 0.7063
H18_6 H 0.8923 0.2421 0.7082
Zn2_2 Zn 0.68587(3) 0.68012(4) 0.18863(2)
O5_7 O 0.46306(18) 0.0171(3) 0.18668(15)
O6_7 O 0.54570(17) 0.2715(3) 0.48267(14)
O7_4 O 0.27069(18) 0.1964(3) 0.17985(14)
O8_7 O 0.6385(2) 0.1840(3) 0.16671(18)
O9_7 O 0.4655(2) 0.3691(3) 0.17969(17)
O10_7 O 0.6409(3) 0.5559(4) 0.15765(18)
O11_7 O 0.5400(2) 0.1396(4) 0.43003(15)
O12_7 O 0.63233(18) 0.1787(3) 0.49246(15)
N1_7 N 0.6997(2) 0.6358(3) 0.26508(15)
N2_7 N 0.6617(2) 0.4074(3) 0.49468(15)
N3_7 N 0.55489(19) 0.0985(3) 0.18218(15)
N4_7 N 0.5546(2) 0.2800(3) 0.17572(16)
N5_7 N 0.4634(2) 0.1939(3) 0.18522(16)
N6_7 N 0.5716(2) 0.1950(3) 0.46745(16)
C1_7 C 0.6924(2) 0.5539(4) 0.36017(19)
C2_7 C 0.7303(2) 0.4413(4) 0.44229(19)
H1_7 H 0.7700 0.4296 0.4365
C3_7 C 0.2771(2) 0.1998(3) 0.13459(18)
C4_7 C 0.6841(2) 0.5069(4) 0.40872(18)
C5_7 C 0.7177(2) 0.3931(4) 0.48437(19)
H2_7 H 0.7494 0.3490 0.5064
C7_7 C 0.6011(3) 0.5234(4) 0.1145(2)
H3_7 H 0.6361 0.0106 0.2009
C9_7 C 0.5887(3) 0.3783(4) 0.1733(2)
H5_7 H 0.5808 0.4277 0.1982
H6_7 H 0.6356 0.3658 0.1842
C10_7 C 0.5652(3) 0.4243(5) 0.1173(2)
H7_7 H 0.5184 0.4383 0.1068
H8_7 H 0.5720 0.3742 0.0924
C11_7 C 0.6178(3) 0.4738(4) 0.4636(2)
H9_7 H 0.5794 0.4864 0.4713
C12_7 C 0.6269(3) 0.5248(4) 0.4207(2)
H10_7 H 0.5951 0.5704 0.4000
C14_7 C 0.7217(2) 0.5408(4) 0.2812(2)
H13_7 H 0.7396 0.5018 0.2599
C15_7 C 0.4914(2) 0.0970(4) 0.18429(17)
C16_7 C 0.4923(3) 0.2871(4) 0.18016(19)
C17_7 C 0.3457(2) 0.2022(4) 0.13253(18)
H14_7 H 0.3518 0.1437 0.1116
H15_7 H 0.3518 0.2654 0.1148
C18_7 C 0.7192(3) 0.4974(4) 0.3281(2)
H16_7 H 0.7354 0.4308 0.3381
C19_7 C 0.3968(2) 0.1974(4) 0.1878(2)
H17_7 H 0.3893 0.1361 0.2063
H18_7 H 0.3923 0.2579 0.2082
C20_7 C 0.5866(2) 0.1873(4) 0.17373(19)
C21_7 C 0.6713(3) 0.6546(4) 0.3444(2)
H19_7 H 0.6544 0.6955 0.3657
C22_7 C 0.6756(3) 0.6934(4) 0.2972(2)
H20_7 H 0.6616 0.7610 0.2870
Zn7_4 Zn 0.18587(3) 0.18012(4) 0.18863(2)
O15_3 O 0.6411(2) 0.8115(3) 0.17933(15)
O17_4 O 0.77069(18) 0.6964(3) 0.17985(14)
C6_7 C 0.6089(3) 0.8461(4) 0.13363(19)
C8_7 C 0.5890(2) 0.9991(4) 0.18599(19)
H4_7 H 0.5764 0.9534 0.2100
C13_7 C 0.5730(3) 0.9474(4) 0.1318(2)
H11_7 H 0.5843 0.9945 0.1076
H12_7 H 0.5261 0.9347 0.1175
O10_8 O 0.1409(3) 0.0559(4) 0.15765(18)
N1_8 N 0.1997(2) 0.1358(3) 0.26508(15)
C1_8 C 0.1924(2) 0.0539(4) 0.36017(19)
C4_8 C 0.1841(2) 0.0069(4) 0.40872(18)
C7_8 C 0.1011(3) 0.0234(4) 0.1145(2)
C12_8 C 0.1269(3) 0.0248(4) 0.4207(2)
H10_8 H 0.0951 0.0704 0.4000
C14_8 C 0.2217(2) 0.0408(4) 0.2812(2)
H13_8 H 0.2396 0.0018 0.2599
C21_8 C 0.1713(3) 0.1546(4) 0.3444(2)
H19_8 H 0.1544 0.1955 0.3657
C22_8 C 0.1756(3) 0.1934(4) 0.2972(2)
H20_8 H 0.1616 0.2610 0.2870
O15_4 O 0.1411(2) 0.3115(3) 0.17933(15)
O6_8 O 0.04570(17) 0.7715(3) 0.48267(14)
O8_8 O 0.1385(2) 0.6840(3) 0.16671(18)
O11_8 O 0.0400(2) 0.6396(4) 0.43003(15)
O12_8 O 0.13233(18) 0.6787(3) 0.49246(15)
N2_8 N 0.1617(2) 0.9074(3) 0.49468(15)
N3_8 N 0.05489(19) 0.5985(3) 0.18218(15)
N4_8 N 0.0546(2) 0.7800(3) 0.17572(16)
N6_8 N 0.0716(2) 0.6950(3) 0.46745(16)
C2_8 C 0.2303(2) 0.9413(4) 0.44229(19)
H1_8 H 0.2700 0.9296 0.4365
C5_8 C 0.2177(2) 0.8931(4) 0.48437(19)
H2_8 H 0.2494 0.8490 0.5064
C6_8 C 0.1089(3) 0.3461(4) 0.13363(19)
C8_8 C 0.0890(2) 0.4991(4) 0.18599(19)
H3_8 H 0.1361 0.5106 0.2009
H4_8 H 0.0764 0.4534 0.2100
C9_8 C 0.0887(3) 0.8783(4) 0.1733(2)
H5_8 H 0.0808 0.9277 0.1982
H6_8 H 0.1356 0.8658 0.1842
C10_8 C 0.0652(3) 0.9243(5) 0.1173(2)
H7_8 H 0.0184 0.9383 0.1068
H8_8 H 0.0720 0.8742 0.0924
C11_8 C 0.1178(3) 0.9738(4) 0.4636(2)
H9_8 H 0.0794 0.9864 0.4713
C13_8 C 0.0730(3) 0.4474(4) 0.1318(2)
H11_8 H 0.0843 0.4945 0.1076
H12_8 H 0.0261 0.4347 0.1175
C18_8 C 0.2192(3) 0.9974(4) 0.3281(2)
H16_8 H 0.2354 0.9308 0.3381
C20_8 C 0.0866(2) 0.6873(4) 0.17373(19)
O5_8 O 0.96306(18) 0.5171(3) 0.18668(15)
O9_8 O 0.9655(2) 0.8691(3) 0.17969(17)
N5_8 N 0.9634(2) 0.6939(3) 0.18522(16)
C3_8 C 0.7771(2) 0.6998(3) 0.13459(18)
C15_8 C 0.9914(2) 0.5970(4) 0.18429(17)
C16_8 C 0.9923(3) 0.7871(4) 0.18016(19)
C17_8 C 0.8457(2) 0.7022(4) 0.13253(18)
H14_8 H 0.8518 0.6437 0.1116
H15_8 H 0.8518 0.7654 0.1148
C19_8 C 0.8968(2) 0.6974(4) 0.1878(2)
H17_8 H 0.8893 0.6361 0.2063
H18_8 H 0.8923 0.7579 0.2082
loop_
_geom_bond_atom_site_label_1
_geom_bond_atom_site_label_2
_geom_bond_site_symmetry_1
_geom_bond_site_symmetry_2
O3 C6 1_555 1_555
O4 C6 1_555 1_555
C6 C13 1_555 1_555
H4 C8 1_555 1_555
C13 C8 1_555 1_555
H11 C13 1_555 1_555
H12 C13 1_555 1_555
Zn4 O4 1_555 1_555
Zn6 O3 1_555 1_555
Zn1 O6 1_555 1_555
Zn6 O10 1_555 1_555
O1 C3 1_555 1_555
O2 C7 1_555 1_555
O5 C15 1_555 1_555
O6 N6 1_555 1_555
O7 C3 1_555 1_555
O8 C20 1_555 1_555
O9 C16 1_555 1_555
O10 C7 1_555 1_555
O11 N6 1_555 1_555
O12 Zn1 1_555 1_555
N1 Zn6 1_555 1_555
N2 Zn1 1_555 1_555
N4 C9 1_555 1_555
N5 C15 1_555 1_555
N6 O12 1_555 1_555
C1 C4 1_555 1_555
C2 H1 1_555 1_555
C3 C17 1_555 1_555
C4 C2 1_555 1_555
C5 N2 1_555 1_555
H2 C5 1_555 1_555
C7 C10 1_555 1_555
C9 H5 1_555 1_555
H6 C9 1_555 1_555
C10 C9 1_555 1_555
H7 C10 1_555 1_555
H8 C10 1_555 1_555
C11 N2 1_555 1_555
H9 C11 1_555 1_555
C12 C4 1_555 1_555
H10 C12 1_555 1_555
C14 N1 1_555 1_555
H13 C14 1_555 1_555
C15 N3 1_555 1_555
C16 N4 1_555 1_555
C17 H14 1_555 1_555
H15 C17 1_555 1_555
C18 C1 1_555 1_555
H16 C18 1_555 1_555
C19 N5 1_555 1_555
H17 C19 1_555 1_555
H18 C19 1_555 1_555
C20 N3 1_555 1_555
C21 C1 1_555 1_555
H19 C21 1_555 1_555
C22 N1 1_555 1_555
H20 C22 1_555 1_555
Zn4 O2 1_555 1_555
Zn5 O1 1_555 1_555
Zn7 O7 1_555 1_555
O13 Zn1 1_555 1_555
O14 Zn1 1_555 1_555
O16 Zn1 1_555 1_555
O17 Zn6 1_555 1_555
N4 C20 1_555 1_555
N5 C16 1_555 1_555
C2 C5 1_555 1_555
C11 C12 1_555 1_555
C14 C18 1_555 1_555
C17 C19 1_555 1_555
C21 C22 1_555 1_555
O1_2 C3_2 1_555 1_555
O5_2 C15_2 1_555 1_555
O17 C3_2 1_555 1_555
O9_2 C16_2 1_555 1_555
N5_2 C15_2 1_555 1_555
C3_2 C17_2 1_555 1_555
C17_2 H14_2 1_555 1_555
H15_2 C17_2 1_555 1_555
C19_2 N5_2 1_555 1_555
H17_2 C19_2 1_555 1_555
H18_2 C19_2 1_555 1_555
Zn4 O1_2 1_555 1_555
N5_2 C16_2 1_555 1_555
C17_2 C19_2 1_555 1_555
Zn1_2 O6_2 1_555 1_555
O3_2 C6_2 1_555 1_555
O4_2 C6_2 1_555 1_555
O6_2 N6_2 1_555 1_555
O8_2 C20_2 1_555 1_555
O11_2 N6_2 1_555 1_555
O12_2 Zn1_2 1_555 1_555
N2_2 Zn1_2 1_555 1_555
N3_2 C8_2 1_555 1_555
N4_2 C9_2 1_555 1_555
N6_2 O12_2 1_555 1_555
C2_2 H1_2 1_555 1_555
C5_2 N2_2 1_555 1_555
H2_2 C5_2 1_555 1_555
C6_2 C13_2 1_555 1_555
C8_2 H3_2 1_555 1_555
H4_2 C8_2 1_555 1_555
C9_2 H5_2 1_555 1_555
H6_2 C9_2 1_555 1_555
C10_2 C9_2 1_555 1_555
H7_2 C10_2 1_555 1_555
H8_2 C10_2 1_555 1_555
C11_2 N2_2 1_555 1_555
H9_2 C11_2 1_555 1_555
C13_2 C8_2 1_555 1_555
H11_2 C13_2 1_555 1_555
H12_2 C13_2 1_555 1_555
H16_2 C18_2 1_555 1_555
C20_2 N3_2 1_555 1_555
Zn5 O4_2 1_555 1_555
Zn7 O3_2 1_555 1_555
O13_2 Zn1_2 1_555 1_555
O14_2 Zn1_2 1_555 1_555
O16_2 Zn1_2 1_555 1_555
N4_2 C20_2 1_555 1_555
C2_2 C5_2 1_555 1_555
Zn7 O10_2 1_555 1_555
O2_2 C7_2 1_555 1_555
O10_2 C7_2 1_555 1_555
N1_2 Zn7 1_555 1_555
C1_2 C4_2 1_555 1_555
C12_2 C4_2 1_555 1_555
H10_2 C12_2 1_555 1_555
C14_2 N1_2 1_555 1_555
H13_2 C14_2 1_555 1_555
C21_2 C1_2 1_555 1_555
H19_2 C21_2 1_555 1_555
C22_2 N1_2 1_555 1_555
H20_2 C22_2 1_555 1_555
Zn5 O2_2 1_555 1_555
C21_2 C22_2 1_555 1_555
Zn2 O10_3 1_555 1_555
O13_2 C3_3 1_555 1_555
O14 C7_3 1_555 1_555
O5_3 C15_3 1_555 1_555
O6_3 N6_3 1_555 1_555
O7_2 C3_3 1_555 1_555
O8_3 C20_3 1_555 1_555
O9_3 C16_3 1_555 1_555
O10_3 C7_3 1_555 1_555
O11_3 N6_3 1_555 1_555
N1_3 Zn2 1_555 1_555
N4_3 C9_3 1_555 1_555
N5_3 C15_3 1_555 1_555
N6_3 O12_3 1_555 1_555
C1_3 C4_3 1_555 1_555
C2_3 H1_3 1_555 1_555
C3_3 C17_3 1_555 1_555
C4_3 C2_3 1_555 1_555
C5_3 N2_3 1_555 1_555
C7_3 C10_3 1_555 1_555
C9_3 H5_3 1_555 1_555
H6_3 C9_3 1_555 1_555
C10_3 C9_3 1_555 1_555
H7_3 C10_3 1_555 1_555
H8_3 C10_3 1_555 1_555
C11_3 N2_3 1_555 1_555
H9_3 C11_3 1_555 1_555
C12_3 C4_3 1_555 1_555
H10_3 C12_3 1_555 1_555
C14_3 N1_3 1_555 1_555
H13_3 C14_3 1_555 1_555
C15_3 N3_3 1_555 1_555
C16_3 N4_3 1_555 1_555
C17_3 H14_3 1_555 1_555
H15_3 C17_3 1_555 1_555
C18_3 C1_3 1_555 1_555
H16_3 C18_3 1_555 1_555
C19_3 N5_3 1_555 1_555
H17_3 C19_3 1_555 1_555
H18_3 C19_3 1_555 1_555
C20_3 N3_3 1_555 1_555
C21_3 C1_3 1_555 1_555
H19_3 C21_3 1_555 1_555
C22_3 N1_3 1_555 1_555
H20_3 C22_3 1_555 1_555
Zn7_2 O7_2 1_555 1_555
O15 Zn2 1_555 1_555
O17_2 Zn2 1_555 1_555
N4_3 C20_3 1_555 1_555
N5_3 C16_3 1_555 1_555
C2_3 C5_3 1_555 1_555
C11_3 C12_3 1_555 1_555
C14_3 C18_3 1_555 1_555
C17_3 C19_3 1_555 1_555
C21_3 C22_3 1_555 1_555
O15 C6_3 1_555 1_555
O16 C6_3 1_555 1_555
C6_3 C13_3 1_555 1_555
H4_3 C8_3 1_555 1_555
C13_3 C8_3 1_555 1_555
H11_3 C13_3 1_555 1_555
H12_3 C13_3 1_555 1_555
O13 C3_4 1_555 1_555
O5_4 C15_4 1_555 1_555
O17_2 C3_4 1_555 1_555
O9_4 C16_4 1_555 1_555
N5_4 C15_4 1_555 1_555
C3_4 C17_4 1_555 1_555
C17_4 H14_4 1_555 1_555
H15_4 C17_4 1_555 1_555
C19_4 N5_4 1_555 1_555
H17_4 C19_4 1_555 1_555
H18_4 C19_4 1_555 1_555
N5_4 C16_4 1_555 1_555
C17_4 C19_4 1_555 1_555
Zn7_2 O10_4 1_555 1_555
O14_2 C7_4 1_555 1_555
O10_4 C7_4 1_555 1_555
N1_4 Zn7_2 1_555 1_555
C1_4 C4_4 1_555 1_555
C12_4 C4_4 1_555 1_555
H10_4 C12_4 1_555 1_555
C14_4 N1_4 1_555 1_555
H13_4 C14_4 1_555 1_555
C21_4 C1_4 1_555 1_555
H19_4 C21_4 1_555 1_555
C22_4 N1_4 1_555 1_555
H20_4 C22_4 1_555 1_555
O15_2 Zn7_2 1_555 1_555
C21_4 C22_4 1_555 1_555
O15_2 C6_4 1_555 1_555
O16_2 C6_4 1_555 1_555
O6_4 N6_4 1_555 1_555
O8_4 C20_4 1_555 1_555
O11_4 N6_4 1_555 1_555
N3_4 C8_4 1_555 1_555
N4_4 C9_4 1_555 1_555
N6_4 O12_4 1_555 1_555
C2_4 H1_4 1_555 1_555
C5_4 N2_4 1_555 1_555
C6_4 C13_4 1_555 1_555
C8_4 H3_4 1_555 1_555
H4_4 C8_4 1_555 1_555
C9_4 H5_4 1_555 1_555
H6_4 C9_4 1_555 1_555
C10_4 C9_4 1_555 1_555
H7_4 C10_4 1_555 1_555
H8_4 C10_4 1_555 1_555
C11_4 N2_4 1_555 1_555
H9_4 C11_4 1_555 1_555
C13_4 C8_4 1_555 1_555
H11_4 C13_4 1_555 1_555
H12_4 C13_4 1_555 1_555
H16_4 C18_4 1_555 1_555
C20_4 N3_4 1_555 1_555
N4_4 C20_4 1_555 1_555
C2_4 C5_4 1_555 1_555
O3_3 C6_5 1_555 1_555
O4_3 C6_5 1_555 1_555
C6_5 C13_5 1_555 1_555
H4_5 C8_5 1_555 1_555
C13_5 C8_5 1_555 1_555
H11_5 C13_5 1_555 1_555
H12_5 C13_5 1_555 1_555
Zn4_2 O4_3 1_555 1_555
Zn6_2 O3_3 1_555 1_555
O13_3 Zn1_3 1_555 1_555
O14_3 Zn1_3 1_555 1_555
O16_3 Zn1_3 1_555 1_555
Zn6_2 O10_5 1_555 1_555
O1_3 C3_5 1_555 1_555
O2_3 C7_5 1_555 1_555
O5_5 C15_5 1_555 1_555
O6_5 N6_5 1_555 1_555
O7_3 C3_5 1_555 1_555
O8_5 C20_5 1_555 1_555
O9_5 C16_5 1_555 1_555
O10_5 C7_5 1_555 1_555
O11_5 N6_5 1_555 1_555
N1_5 Zn6_2 1_555 1_555
N4_5 C9_5 1_555 1_555
N5_5 C15_5 1_555 1_555
N6_5 O12_5 1_555 1_555
C1_5 C4_5 1_555 1_555
C2_5 H1_5 1_555 1_555
C3_5 C17_5 1_555 1_555
C4_5 C2_5 1_555 1_555
C5_5 N2_5 1_555 1_555
C7_5 C10_5 1_555 1_555
C9_5 H5_5 1_555 1_555
H6_5 C9_5 1_555 1_555
C10_5 C9_5 1_555 1_555
H7_5 C10_5 1_555 1_555
H8_5 C10_5 1_555 1_555
C11_5 N2_5 1_555 1_555
H9_5 C11_5 1_555 1_555
C12_5 C4_5 1_555 1_555
H10_5 C12_5 1_555 1_555
C14_5 N1_5 1_555 1_555
H13_5 C14_5 1_555 1_555
C15_5 N3_5 1_555 1_555
C16_5 N4_5 1_555 1_555
C17_5 H14_5 1_555 1_555
H15_5 C17_5 1_555 1_555
C18_5 C1_5 1_555 1_555
H16_5 C18_5 1_555 1_555
C19_5 N5_5 1_555 1_555
H17_5 C19_5 1_555 1_555
H18_5 C19_5 1_555 1_555
C20_5 N3_5 1_555 1_555
C21_5 C1_5 1_555 1_555
H19_5 C21_5 1_555 1_555
C22_5 N1_5 1_555 1_555
H20_5 C22_5 1_555 1_555
Zn4_2 O2_3 1_555 1_555
Zn5_2 O1_3 1_555 1_555
Zn7_3 O7_3 1_555 1_555
O17_3 Zn6_2 1_555 1_555
N4_5 C20_5 1_555 1_555
N5_5 C16_5 1_555 1_555
C2_5 C5_5 1_555 1_555
C11_5 C12_5 1_555 1_555
C14_5 C18_5 1_555 1_555
C17_5 C19_5 1_555 1_555
C21_5 C22_5 1_555 1_555
O13_4 Zn1_4 1_555 1_555
O14_4 Zn1_4 1_555 1_555
O16_4 Zn1_4 1_555 1_555
O3_4 C6_6 1_555 1_555
O4_4 C6_6 1_555 1_555
O6_6 N6_6 1_555 1_555
O8_6 C20_6 1_555 1_555
O11_6 N6_6 1_555 1_555
N3_6 C8_6 1_555 1_555
N4_6 C9_6 1_555 1_555
N6_6 O12_6 1_555 1_555
C2_6 H1_6 1_555 1_555
C5_6 N2_6 1_555 1_555
C6_6 C13_6 1_555 1_555
C8_6 H3_6 1_555 1_555
H4_6 C8_6 1_555 1_555
C9_6 H5_6 1_555 1_555
H6_6 C9_6 1_555 1_555
C10_6 C9_6 1_555 1_555
H7_6 C10_6 1_555 1_555
H8_6 C10_6 1_555 1_555
C11_6 N2_6 1_555 1_555
H9_6 C11_6 1_555 1_555
C13_6 C8_6 1_555 1_555
H11_6 C13_6 1_555 1_555
H12_6 C13_6 1_555 1_555
H16_6 C18_6 1_555 1_555
C20_6 N3_6 1_555 1_555
Zn5_2 O4_4 1_555 1_555
Zn7_3 O3_4 1_555 1_555
N4_6 C20_6 1_555 1_555
C2_6 C5_6 1_555 1_555
Zn7_3 O10_6 1_555 1_555
O2_4 C7_6 1_555 1_555
O10_6 C7_6 1_555 1_555
N1_6 Zn7_3 1_555 1_555
C1_6 C4_6 1_555 1_555
C12_6 C4_6 1_555 1_555
H10_6 C12_6 1_555 1_555
C14_6 N1_6 1_555 1_555
H13_6 C14_6 1_555 1_555
C21_6 C1_6 1_555 1_555
H19_6 C21_6 1_555 1_555
C22_6 N1_6 1_555 1_555
H20_6 C22_6 1_555 1_555
Zn5_2 O2_4 1_555 1_555
C21_6 C22_6 1_555 1_555
O1_4 C3_6 1_555 1_555
O5_6 C15_6 1_555 1_555
O17_3 C3_6 1_555 1_555
O9_6 C16_6 1_555 1_555
N5_6 C15_6 1_555 1_555
C3_6 C17_6 1_555 1_555
C17_6 H14_6 1_555 1_555
H15_6 C17_6 1_555 1_555
C19_6 N5_6 1_555 1_555
H17_6 C19_6 1_555 1_555
H18_6 C19_6 1_555 1_555
Zn4_2 O1_4 1_555 1_555
N5_6 C16_6 1_555 1_555
C17_6 C19_6 1_555 1_555
Zn4_2 O6_7 1_555 1_555
Zn2_2 O10_7 1_555 1_555
O13_4 C3_7 1_555 1_555
O14_3 C7_7 1_555 1_555
O5_7 C15_7 1_555 1_555
O6_7 N6_7 1_555 1_555
O7_4 C3_7 1_555 1_555
O8_7 C20_7 1_555 1_555
O9_7 C16_7 1_555 1_555
O10_7 C7_7 1_555 1_555
O11_7 N6_7 1_555 1_555
O12_7 Zn4_2 1_555 1_555
N1_7 Zn2_2 1_555 1_555
N2_7 Zn4_2 1_555 1_555
N4_7 C9_7 1_555 1_555
N5_7 C15_7 1_555 1_555
N6_7 O12_7 1_555 1_555
C1_7 C4_7 1_555 1_555
C2_7 H1_7 1_555 1_555
C3_7 C17_7 1_555 1_555
C4_7 C2_7 1_555 1_555
C5_7 N2_7 1_555 1_555
H2_7 C5_7 1_555 1_555
C7_7 C10_7 1_555 1_555
C9_7 H5_7 1_555 1_555
H6_7 C9_7 1_555 1_555
C10_7 C9_7 1_555 1_555
H7_7 C10_7 1_555 1_555
H8_7 C10_7 1_555 1_555
C11_7 N2_7 1_555 1_555
H9_7 C11_7 1_555 1_555
C12_7 C4_7 1_555 1_555
H10_7 C12_7 1_555 1_555
C14_7 N1_7 1_555 1_555
H13_7 C14_7 1_555 1_555
C15_7 N3_7 1_555 1_555
C16_7 N4_7 1_555 1_555
C17_7 H14_7 1_555 1_555
H15_7 C17_7 1_555 1_555
C18_7 C1_7 1_555 1_555
H16_7 C18_7 1_555 1_555
C19_7 N5_7 1_555 1_555
H17_7 C19_7 1_555 1_555
H18_7 C19_7 1_555 1_555
C20_7 N3_7 1_555 1_555
C21_7 C1_7 1_555 1_555
H19_7 C21_7 1_555 1_555
C22_7 N1_7 1_555 1_555
H20_7 C22_7 1_555 1_555
Zn7_4 O7_4 1_555 1_555
O15_3 Zn2_2 1_555 1_555
O17_4 Zn2_2 1_555 1_555
N4_7 C20_7 1_555 1_555
N5_7 C16_7 1_555 1_555
C2_7 C5_7 1_555 1_555
C11_7 C12_7 1_555 1_555
C14_7 C18_7 1_555 1_555
C17_7 C19_7 1_555 1_555
C21_7 C22_7 1_555 1_555
O15_3 C6_7 1_555 1_555
O16_3 C6_7 1_555 1_555
C6_7 C13_7 1_555 1_555
H4_7 C8_7 1_555 1_555
C13_7 C8_7 1_555 1_555
H11_7 C13_7 1_555 1_555
H12_7 C13_7 1_555 1_555
Zn7_4 O10_8 1_555 1_555
O14_4 C7_8 1_555 1_555
O10_8 C7_8 1_555 1_555
N1_8 Zn7_4 1_555 1_555
C1_8 C4_8 1_555 1_555
C12_8 C4_8 1_555 1_555
H10_8 C12_8 1_555 1_555
C14_8 N1_8 1_555 1_555
H13_8 C14_8 1_555 1_555
C21_8 C1_8 1_555 1_555
H19_8 C21_8 1_555 1_555
C22_8 N1_8 1_555 1_555
H20_8 C22_8 1_555 1_555
O15_4 Zn7_4 1_555 1_555
C21_8 C22_8 1_555 1_555
Zn5_2 O6_8 1_555 1_555
O15_4 C6_8 1_555 1_555
O16_4 C6_8 1_555 1_555
O6_8 N6_8 1_555 1_555
O8_8 C20_8 1_555 1_555
O11_8 N6_8 1_555 1_555
O12_8 Zn5_2 1_555 1_555
N2_8 Zn5_2 1_555 1_555
N3_8 C8_8 1_555 1_555
N4_8 C9_8 1_555 1_555
N6_8 O12_8 1_555 1_555
C2_8 H1_8 1_555 1_555
C5_8 N2_8 1_555 1_555
H2_8 C5_8 1_555 1_555
C6_8 C13_8 1_555 1_555
C8_8 H3_8 1_555 1_555
H4_8 C8_8 1_555 1_555
C9_8 H5_8 1_555 1_555
H6_8 C9_8 1_555 1_555
C10_8 C9_8 1_555 1_555
H7_8 C10_8 1_555 1_555
H8_8 C10_8 1_555 1_555
C11_8 N2_8 1_555 1_555
H9_8 C11_8 1_555 1_555
C13_8 C8_8 1_555 1_555
H11_8 C13_8 1_555 1_555
H12_8 C13_8 1_555 1_555
H16_8 C18_8 1_555 1_555
C20_8 N3_8 1_555 1_555
N4_8 C20_8 1_555 1_555
C2_8 C5_8 1_555 1_555
O13_3 C3_8 1_555 1_555
O5_8 C15_8 1_555 1_555
O17_4 C3_8 1_555 1_555
O9_8 C16_8 1_555 1_555
N5_8 C15_8 1_555 1_555
C3_8 C17_8 1_555 1_555
C17_8 H14_8 1_555 1_555
H15_8 C17_8 1_555 1_555
C19_8 N5_8 1_555 1_555
H17_8 C19_8 1_555 1_555
H18_8 C19_8 1_555 1_555
N5_8 C16_8 1_555 1_555
C17_8 C19_8 1_555 1_555

#END
