
###############################################################################
#
# This file contains modified crystal structure data generated from the
# MOF subset of the Cambridge Structural Database (CSD) v543 
# hosted by the Cambridge Crystallographic Data Centre (CCDC).
#
# This work is licensed under the Creative Commons
# Attribution-NonCommercial-ShareAlike 4.0 International License.
# To view a copy of this license, visit
# http://creativecommons.org/licenses/by-nc-sa/4.0/
# or send a letter to
# Creative Commons, PO Box 1866, Mountain View, CA 94042, USA.
#
# CIF created using the CSD Python API on 29 September 2022
# The structure has been converted into the P1 space group
# The structure has a 3D framework
# The original CSD entry HUPLAH is in the tetragonal crystal system
# The framework has been calculated to contain at least 10.0% void space
# The void calculation uses a probe of radius 1.32A, grid spacing 0.4
#
###############################################################################

data_HUPLAH
_chemical_formula_moiety         '(C176 H192 Gd12 N34 O50)n'
_symmetry_cell_setting           triclinic
_symmetry_space_group_name_H-M   'P 1'
_symmetry_Int_Tables_number      1
_space_group_name_Hall           'P 1'
loop_
_symmetry_equiv_pos_site_id
_symmetry_equiv_pos_as_xyz
1 x,y,z
_cell_length_a                   19.4684(2)
_cell_length_b                   19.4684(2)
_cell_length_c                   12.3837(3)
_cell_angle_alpha                90
_cell_angle_beta                 90
_cell_angle_gamma                90
_cell_volume                     4693.65
loop_
_atom_site_label
_atom_site_type_symbol
_atom_site_fract_x
_atom_site_fract_y
_atom_site_fract_z
Gd1 Gd -0.0000 0.0000 0.0000
O12 O -0.0000 0.0000 0.3372(11)
N7 N -0.0000 0.0000 0.2376(17)
O21 O 0.1145(5) 0.0143(5) 0.0350(8)
Gd1_2 Gd -0.0000 0.0000 1.0000
O5 O -0.0000 -0.0000 0.6628(11)
N4 N -0.0000 0.0000 0.7624(17)
O8 O 0.0547(5) 0.0096(5) 0.8145(9)
H35 H 0.0218 0.2406 0.9507
Gd5 Gd 0.5000 0.0000 0.7500
Gd1_3 Gd -0.0000 1.0000 0.0000
Gd2 Gd 0.0000 0.5000 0.2500
N2 N 0.0000 0.5000 0.4889(18)
O4 O 0.0534(5) 0.4897(6) 0.4335(9)
O6 O 0.0000 0.5000 0.583(2)
O12_2 O -0.0000 1.0000 0.3372(11)
N7_2 N -0.0000 1.0000 0.2376(17)
O13 O 0.0096(5) 0.9453(5) 0.1855(9)
O15 O 0.1166(5) 0.4923(5) 0.2228(9)
C48 C 0.3578(8) 0.4357(9) 0.0026(18)
H52 H 0.3981 0.4429 0.0501
C49 C 0.3699(8) 0.2404(9) 0.0051(16)
C52 C 0.3745(9) 0.3091(10) 0.0353(15)
C53 C 0.3892(9) 0.3223(10) 0.1586(16)
H53 H 0.4084 0.3685 0.1679
H54 H 0.4220 0.2882 0.1852
H55 H 0.3462 0.3186 0.1995
C54 C 0.1732(8) 0.4424(10) 0.0753(18)
H56 H 0.1310 0.4256 0.0473
C55 C 0.1721(8) 0.4804(11) 0.1729(14)
C56 C 0.2308(9) 0.4294(11) 0.021(2)
N8 N 0.2919(7) 0.4504(8) 0.0655(14)
C57 C 0.2363(8) 0.4957(8) 0.2170(17)
H58 H 0.2392 0.5121 0.2891
C58 C 0.2333(7) 0.0204(10) 0.0127(17)
C59 C 0.1660(9) 0.0492(9) 0.0016(16)
C63 C 0.3894(8) 0.1813(10) 0.0868(17)
H67 H 0.3703 0.1377 0.0613
H68 H 0.3705 0.1921 0.1582
H69 H 0.4395 0.1776 0.0917
C65 C 0.2957(8) 0.4873(9) 0.1570(14)
H71 H 0.3379 0.5069 0.1799
C67 C 0.1461(11) 0.6616(10) 0.1393(17)
H73 H 0.1445 0.6693 0.2183
H74 H 0.1191 0.6198 0.1227
C68 C 0.3623(9) 0.6427(8) 0.0384(15)
C69 C 0.3435(11) 0.6557(11) 0.1442(14)
H75 H 0.4678 0.6385 0.0591
C72 C 0.2792(10) 0.6663(9) 0.1769(16)
C73 C 0.2248(11) 0.6511(9) 0.1009(15)
H81 H 0.4062 0.7703 0.0463
N11 N 0.1185(8) 0.7174(7) 0.0860(14)
C82 C 0.1185(11) 0.8391(9) 0.0532(16)
H84 H 0.1421 0.8817 0.0579
C83 C 0.4022(11) 0.6696(13) 0.225(2)
H85 H 0.4088 0.7193 0.2323
H86 H 0.3905 0.6497 0.2950
H87 H 0.4446 0.6486 0.1977
C84 C 0.2642(12) 0.6911(13) 0.2953(19)
H88 H 0.3045 0.7154 0.3235
H89 H 0.2246 0.7222 0.2950
H90 H 0.2542 0.6513 0.3411
C86 C 0.1449(10) 0.7827(9) 0.0940(19)
H94 H 0.1866 0.7875 0.1331
C88 C 0.0559(10) 0.7142(10) 0.0313(17)
H96 H 0.0359 0.6699 0.0242
N12 N 0.0000 0.5000 0.0111(18)
O20 O 0.0103(6) 0.5534(5) 0.0665(9)
O22 O 0.0077(5) 0.6166(5) 0.2772(9)
Gd1_4 Gd -0.0000 1.0000 1.0000
O5_2 O -0.0000 1.0000 0.6628(11)
N4_2 N -0.0000 1.0000 0.7624(17)
C45 C 0.3384(10) 0.1461(11) 0.8607(17)
H49 H 0.3307 0.1445 0.7817
H50 H 0.3802 0.1191 0.8773
C46 C 0.3573(8) 0.3623(9) 0.9616(15)
C47 C 0.3443(11) 0.3435(11) 0.8558(14)
H51 H 0.3615 0.4678 0.9409
C50 C 0.3337(9) 0.2792(10) 0.8231(16)
C51 C 0.3489(9) 0.2248(11) 0.8991(15)
H57 H 0.2297 0.4062 0.9537
N9 N 0.2826(7) 0.1185(8) 0.9140(14)
C60 C 0.1609(9) 0.1185(11) 0.9468(16)
H60 H 0.1183 0.1421 0.9421
C61 C 0.3304(13) 0.4022(11) 0.775(2)
H61 H 0.2807 0.4088 0.7677
H62 H 0.3503 0.3905 0.7050
H63 H 0.3514 0.4446 0.8023
C62 C 0.3089(13) 0.2642(12) 0.7047(19)
H64 H 0.2846 0.3045 0.6765
H65 H 0.2778 0.2246 0.7050
H66 H 0.3487 0.2542 0.6589
C64 C 0.2173(9) 0.1449(10) 0.9060(19)
H70 H 0.2125 0.1866 0.8669
C66 C 0.2858(10) 0.0559(10) 0.9687(17)
H72 H 0.3301 0.0359 0.9758
O16 O 0.0143(5) 0.8855(5) 0.9650(8)
O17 O 0.4923(5) 0.8834(5) 0.7772(9)
C70 C 0.4357(9) 0.6422(8) 0.9974(18)
H76 H 0.4429 0.6019 0.9499
C71 C 0.2404(9) 0.6301(8) 0.9949(16)
C74 C 0.3091(10) 0.6255(9) 0.9647(15)
C75 C 0.3223(10) 0.6108(9) 0.8414(16)
H77 H 0.3685 0.5916 0.8321
H78 H 0.2882 0.5780 0.8148
H79 H 0.3186 0.6538 0.8005
C76 C 0.4424(10) 0.8268(8) 0.9247(18)
H80 H 0.4256 0.8690 0.9527
C77 C 0.4804(11) 0.8279(8) 0.8271(14)
C78 C 0.4294(11) 0.7692(9) 0.979(2)
N10 N 0.4504(8) 0.7081(7) 0.9345(14)
C79 C 0.4957(8) 0.7637(8) 0.7830(17)
H82 H 0.5121 0.7608 0.7109
C80 C 0.0204(10) 0.7667(7) 0.9873(17)
C81 C 0.0492(9) 0.8340(9) 0.9984(16)
C85 C 0.1813(10) 0.6106(8) 0.9132(17)
H91 H 0.1377 0.6297 0.9387
H92 H 0.1921 0.6295 0.8418
H93 H 0.1776 0.5605 0.9083
C87 C 0.4873(9) 0.7043(8) 0.8430(14)
H95 H 0.5069 0.6621 0.8201
O19 O 0.0000 0.5000 0.917(2)
Gd5_2 Gd 0.5000 1.0000 0.7500
H59 H 0.2406 0.9782 0.0493
Gd1_5 Gd 1.0000 0.0000 0.0000
H11 H 0.7594 0.0218 0.0493
C23 C 0.8539(11) 0.3384(10) 0.1393(17)
H25 H 0.8555 0.3307 0.2183
H26 H 0.8809 0.3802 0.1227
C24 C 0.6377(9) 0.3573(8) 0.0384(15)
C25 C 0.6565(11) 0.3443(11) 0.1442(14)
H27 H 0.5322 0.3615 0.0591
C28 C 0.7208(10) 0.3337(9) 0.1769(16)
C29 C 0.7752(11) 0.3489(9) 0.1009(15)
H33 H 0.5938 0.2297 0.0463
O11 O 0.9904(5) 0.0547(5) 0.1855(9)
N6 N 0.8815(8) 0.2826(7) 0.0860(14)
C38 C 0.8815(11) 0.1609(9) 0.0532(16)
H36 H 0.8579 0.1183 0.0579
C39 C 0.5978(11) 0.3304(13) 0.225(2)
H37 H 0.5912 0.2807 0.2323
H38 H 0.6095 0.3503 0.2950
H39 H 0.5554 0.3514 0.1977
C40 C 0.7358(12) 0.3089(13) 0.2953(19)
H40 H 0.6955 0.2846 0.3235
H41 H 0.7754 0.2778 0.2950
H42 H 0.7458 0.3487 0.3411
O12_3 O 1.0000 0.0000 0.3372(11)
N7_3 N 1.0000 0.0000 0.2376(17)
C42 C 0.8551(10) 0.2173(9) 0.0940(19)
H46 H 0.8134 0.2125 0.1331
C44 C 0.9441(10) 0.2858(10) 0.0313(17)
H48 H 0.9641 0.3301 0.0242
Gd1_6 Gd 1.0000 0.0000 1.0000
O5_3 O 1.0000 -0.0000 0.6628(11)
N4_3 N 1.0000 0.0000 0.7624(17)
O9 O 0.9857(5) 0.1145(5) 0.9650(8)
O10 O 0.5077(5) 0.1166(5) 0.7772(9)
C26 C 0.5643(9) 0.3578(8) 0.9974(18)
H28 H 0.5571 0.3981 0.9499
C27 C 0.7596(9) 0.3699(8) 0.9949(16)
C30 C 0.6909(10) 0.3745(9) 0.9647(15)
C31 C 0.6777(10) 0.3892(9) 0.8414(16)
H29 H 0.6315 0.4084 0.8321
H30 H 0.7118 0.4220 0.8148
H31 H 0.6814 0.3462 0.8005
C32 C 0.5576(10) 0.1732(8) 0.9247(18)
H32 H 0.5744 0.1310 0.9527
C33 C 0.5196(11) 0.1721(8) 0.8271(14)
C34 C 0.5706(11) 0.2308(9) 0.979(2)
N5 N 0.5496(8) 0.2919(7) 0.9345(14)
C35 C 0.5043(8) 0.2363(8) 0.7830(17)
H34 H 0.4879 0.2392 0.7109
C36 C 0.9796(10) 0.2333(7) 0.9873(17)
C37 C 0.9508(9) 0.1660(9) 0.9984(16)
C41 C 0.8187(10) 0.3894(8) 0.9132(17)
H43 H 0.8623 0.3703 0.9387
H44 H 0.8079 0.3705 0.8418
H45 H 0.8224 0.4395 0.9083
C43 C 0.5127(9) 0.2957(8) 0.8430(14)
H47 H 0.4931 0.3379 0.8201
Gd1_7 Gd 1.0000 1.0000 0.0000
O1 O 0.8855(5) 0.9857(5) 0.0350(8)
Gd2_2 Gd 1.0000 0.5000 0.2500
O2 O 0.8834(5) 0.5077(5) 0.2228(9)
C4 C 0.6422(8) 0.5643(9) 0.0026(18)
H4 H 0.6019 0.5571 0.0501
C5 C 0.6301(8) 0.7596(9) 0.0051(16)
C8 C 0.6255(9) 0.6909(10) 0.0353(15)
C9 C 0.6108(9) 0.6777(10) 0.1586(16)
H5 H 0.5916 0.6315 0.1679
H6 H 0.5780 0.7118 0.1852
H7 H 0.6538 0.6814 0.1995
C10 C 0.8268(8) 0.5576(10) 0.0753(18)
H8 H 0.8690 0.5744 0.0473
C11 C 0.8279(8) 0.5196(11) 0.1729(14)
C12 C 0.7692(9) 0.5706(11) 0.021(2)
N1 N 0.7081(7) 0.5496(8) 0.0655(14)
N2_2 N 1.0000 0.5000 0.4889(18)
C13 C 0.7637(8) 0.5043(8) 0.2170(17)
H10 H 0.7608 0.4879 0.2891
C14 C 0.7667(7) 0.9796(10) 0.0127(17)
C15 C 0.8340(9) 0.9508(9) 0.0016(16)
O6_2 O 1.0000 0.5000 0.583(2)
C19 C 0.6106(8) 0.8187(10) 0.0868(17)
H19 H 0.6297 0.8623 0.0613
H20 H 0.6295 0.8079 0.1582
H21 H 0.5605 0.8224 0.0917
C21 C 0.7043(8) 0.5127(9) 0.1570(14)
H23 H 0.6621 0.4931 0.1799
O7 O 0.9466(5) 0.5103(6) 0.4335(9)
O12_4 O 1.0000 1.0000 0.3372(11)
N7_4 N 1.0000 1.0000 0.2376(17)
N12_2 N 1.0000 0.5000 0.0111(18)
O18 O 0.9897(6) 0.4466(5) 0.0665(9)
O23 O 0.9923(5) 0.3834(5) 0.2772(9)
Gd1_8 Gd 1.0000 1.0000 1.0000
C1 C 0.6616(10) 0.8539(11) 0.8607(17)
H1 H 0.6693 0.8555 0.7817
H2 H 0.6198 0.8809 0.8773
C2 C 0.6427(8) 0.6377(9) 0.9616(15)
C3 C 0.6557(11) 0.6565(11) 0.8558(14)
H3 H 0.6385 0.5322 0.9409
C6 C 0.6663(9) 0.7208(10) 0.8231(16)
C7 C 0.6511(9) 0.7752(11) 0.8991(15)
H9 H 0.7703 0.5938 0.9537
O3 O 0.9453(5) 0.9904(5) 0.8145(9)
N3 N 0.7174(7) 0.8815(8) 0.9140(14)
C16 C 0.8391(9) 0.8815(11) 0.9468(16)
H12 H 0.8817 0.8579 0.9421
C17 C 0.6696(13) 0.5978(11) 0.775(2)
H13 H 0.7193 0.5912 0.7677
H14 H 0.6497 0.6095 0.7050
H15 H 0.6486 0.5554 0.8023
C18 C 0.6911(13) 0.7358(12) 0.7047(19)
H16 H 0.7154 0.6955 0.6765
H17 H 0.7222 0.7754 0.7050
H18 H 0.6513 0.7458 0.6589
O5_4 O 1.0000 1.0000 0.6628(11)
N4_4 N 1.0000 1.0000 0.7624(17)
C20 C 0.7827(9) 0.8551(10) 0.9060(19)
H22 H 0.7875 0.8134 0.8669
C22 C 0.7142(10) 0.9441(10) 0.9687(17)
H24 H 0.6699 0.9641 0.9758
H83 H 0.9782 0.7594 0.9507
O19_2 O 1.0000 0.5000 0.917(2)
O19_3 O 0.5000 0.0000 0.083(2)
N2_3 N 0.5000 0.0000 0.5111(18)
O6_3 O 0.5000 0.0000 0.417(2)
O7_2 O 0.5103(6) 0.0534(5) 0.5665(9)
N12_3 N 0.5000 0.0000 0.9889(18)
O18_2 O 0.4466(5) 0.0103(6) 0.9335(9)
O23_2 O 0.3834(5) 0.0077(5) 0.7228(9)
O19_4 O 0.5000 1.0000 0.083(2)
N2_4 N 0.5000 1.0000 0.5111(18)
O4_2 O 0.4897(6) 0.9466(5) 0.5665(9)
O6_4 O 0.5000 1.0000 0.417(2)
N12_4 N 0.5000 1.0000 0.9889(18)
O20_2 O 0.5534(5) 0.9897(6) 0.9335(9)
O22_2 O 0.6166(5) 0.9923(5) 0.7228(9)
H82_2 H 0.0121 0.2608 0.2109
H95_2 H 0.0069 0.1621 0.3201
Gd1_9 Gd 0.5000 0.5000 0.5000
O1_2 O 0.3855(5) 0.4857(5) 0.5350(8)
C1_2 C 0.1616(10) 0.3539(11) 0.3607(17)
H1_2 H 0.1693 0.3555 0.2817
H2_2 H 0.1198 0.3809 0.3773
C2_2 C 0.1427(8) 0.1377(9) 0.4616(15)
C3_2 C 0.1557(11) 0.1565(11) 0.3558(14)
C4_2 C 0.1422(8) 0.0643(9) 0.5026(18)
H3_2 H 0.1385 0.0322 0.4409
H4_2 H 0.1019 0.0571 0.5501
C5_2 C 0.1301(8) 0.2596(9) 0.5051(16)
C6_2 C 0.1663(9) 0.2208(10) 0.3231(16)
C7_2 C 0.1511(9) 0.2752(11) 0.3991(15)
C8_2 C 0.1255(9) 0.1909(10) 0.5353(15)
C9_2 C 0.1108(9) 0.1777(10) 0.6586(16)
H5_2 H 0.0916 0.1315 0.6679
H6_2 H 0.0780 0.2118 0.6852
H7_2 H 0.1538 0.1814 0.6995
C10_2 C 0.3268(8) 0.0576(10) 0.5753(18)
H8_2 H 0.3690 0.0744 0.5473
C11_2 C 0.3279(8) 0.0196(11) 0.6729(14)
C12_2 C 0.2692(9) 0.0706(11) 0.521(2)
H9_2 H 0.2703 0.0938 0.4537
N1_2 N 0.2081(7) 0.0496(8) 0.5655(14)
O3_2 O 0.4453(5) 0.4904(5) 0.3145(9)
C13_2 C 0.2637(8) 0.0043(8) 0.7170(17)
C14_2 C 0.2667(7) 0.4796(10) 0.5127(17)
H11_2 H 0.2594 0.5218 0.5493
C15_2 C 0.3340(9) 0.4508(9) 0.5016(16)
N3_2 N 0.2174(7) 0.3815(8) 0.4140(14)
C16_2 C 0.3391(9) 0.3815(11) 0.4468(16)
H12_2 H 0.3817 0.3579 0.4421
C17_2 C 0.1696(13) 0.0978(11) 0.275(2)
H13_2 H 0.2193 0.0912 0.2677
H14_2 H 0.1497 0.1095 0.2050
H15_2 H 0.1486 0.0554 0.3023
C18_2 C 0.1911(13) 0.2358(12) 0.2047(19)
H16_2 H 0.2154 0.1955 0.1765
H17_2 H 0.2222 0.2754 0.2050
H18_2 H 0.1513 0.2458 0.1589
O5_5 O 0.5000 0.5000 0.1628(11)
N4_5 N 0.5000 0.5000 0.2624(17)
C19_2 C 0.1106(8) 0.3187(10) 0.5868(17)
H19_2 H 0.1297 0.3623 0.5613
H20_2 H 0.1295 0.3079 0.6582
H21_2 H 0.0605 0.3224 0.5917
C20_2 C 0.2827(9) 0.3551(10) 0.4060(19)
H22_2 H 0.2875 0.3134 0.3669
C21_2 C 0.2043(8) 0.0127(9) 0.6570(14)
C22_2 C 0.2142(10) 0.4441(10) 0.4687(17)
H24_2 H 0.1699 0.4641 0.4758
O8_2 O 0.5547(5) 0.5096(5) 0.3145(9)
O9_2 O 0.4857(5) 0.6145(5) 0.4650(8)
C23_2 C 0.3539(11) 0.8384(10) 0.6393(17)
H25_2 H 0.3555 0.8307 0.7183
H26_2 H 0.3809 0.8802 0.6227
C24_2 C 0.1377(9) 0.8573(8) 0.5384(15)
C25_2 C 0.1565(11) 0.8443(11) 0.6442(14)
C26_2 C 0.0643(9) 0.8578(8) 0.4974(18)
H27_2 H 0.0322 0.8615 0.5591
H28_2 H 0.0571 0.8981 0.4499
C27_2 C 0.2596(9) 0.8699(8) 0.4949(16)
C28_2 C 0.2208(10) 0.8337(9) 0.6769(16)
C29_2 C 0.2752(11) 0.8489(9) 0.6009(15)
C30_2 C 0.1909(10) 0.8745(9) 0.4647(15)
C31_2 C 0.1777(10) 0.8892(9) 0.3414(16)
H29_2 H 0.1315 0.9084 0.3321
H30_2 H 0.2118 0.9220 0.3148
H31_2 H 0.1814 0.8462 0.3005
C32_2 C 0.0576(10) 0.6732(8) 0.4247(18)
H32_2 H 0.0744 0.6310 0.4527
C33_2 C 0.0196(11) 0.6721(8) 0.3271(14)
C34_2 C 0.0706(11) 0.7308(9) 0.479(2)
H33_2 H 0.0938 0.7297 0.5463
N5_2 N 0.0496(8) 0.7919(7) 0.4345(14)
O11_2 O 0.4904(5) 0.5547(5) 0.6855(9)
C35_2 C 0.0043(8) 0.7363(8) 0.2830(17)
C36_2 C 0.4796(10) 0.7333(7) 0.4873(17)
H35_2 H 0.5218 0.7406 0.4507
C37_2 C 0.4508(9) 0.6660(9) 0.4984(16)
N6_2 N 0.3815(8) 0.7826(7) 0.5860(14)
C38_2 C 0.3815(11) 0.6609(9) 0.5532(16)
H36_2 H 0.3579 0.6183 0.5579
C39_2 C 0.0978(11) 0.8304(13) 0.725(2)
H37_2 H 0.0912 0.7807 0.7323
H38_2 H 0.1095 0.8503 0.7950
H39_2 H 0.0554 0.8514 0.6977
C40_2 C 0.2358(12) 0.8089(13) 0.7953(19)
H40_2 H 0.1955 0.7846 0.8235
H41_2 H 0.2754 0.7778 0.7950
H42_2 H 0.2458 0.8487 0.8411
O12_5 O 0.5000 0.5000 0.8372(11)
N7_5 N 0.5000 0.5000 0.7376(17)
C41_2 C 0.3187(10) 0.8894(8) 0.4132(17)
H43_2 H 0.3623 0.8703 0.4387
H44_2 H 0.3079 0.8705 0.3418
H45_2 H 0.3224 0.9395 0.4083
C42_2 C 0.3551(10) 0.7173(9) 0.5940(19)
H46_2 H 0.3134 0.7125 0.6331
C43_2 C 0.0127(9) 0.7957(8) 0.3430(14)
C44_2 C 0.4441(10) 0.7858(10) 0.5313(17)
H48_2 H 0.4641 0.8301 0.5242
O13_2 O 0.5096(5) 0.4453(5) 0.6855(9)
H58_2 H 0.7392 0.0121 0.7891
H71_2 H 0.8379 0.0069 0.6799
O16_2 O 0.5143(5) 0.3855(5) 0.4650(8)
C67_2 C 0.6461(11) 0.1616(10) 0.6393(17)
H73_2 H 0.6445 0.1693 0.7183
H74_2 H 0.6191 0.1198 0.6227
C68_2 C 0.8623(9) 0.1427(8) 0.5384(15)
C69_2 C 0.8435(11) 0.1557(11) 0.6442(14)
C70_2 C 0.9357(9) 0.1422(8) 0.4974(18)
H75_2 H 0.9678 0.1385 0.5591
H76_2 H 0.9429 0.1019 0.4499
C71_2 C 0.7404(9) 0.1301(8) 0.4949(16)
C72_2 C 0.7792(10) 0.1663(9) 0.6769(16)
C73_2 C 0.7248(11) 0.1511(9) 0.6009(15)
C74_2 C 0.8091(10) 0.1255(9) 0.4647(15)
C75_2 C 0.8223(10) 0.1108(9) 0.3414(16)
H77_2 H 0.8685 0.0916 0.3321
H78_2 H 0.7882 0.0780 0.3148
H79_2 H 0.8186 0.1538 0.3005
C76_2 C 0.9424(10) 0.3268(8) 0.4247(18)
H80_2 H 0.9256 0.3690 0.4527
C77_2 C 0.9804(11) 0.3279(8) 0.3271(14)
C78_2 C 0.9294(11) 0.2692(9) 0.479(2)
H81_2 H 0.9062 0.2703 0.5463
N10_2 N 0.9504(8) 0.2081(7) 0.4345(14)
C79_2 C 0.9957(8) 0.2637(8) 0.2830(17)
C80_2 C 0.5204(10) 0.2667(7) 0.4873(17)
H83_2 H 0.4782 0.2594 0.4507
C81_2 C 0.5492(9) 0.3340(9) 0.4984(16)
N11_2 N 0.6185(8) 0.2174(7) 0.5860(14)
C82_2 C 0.6185(11) 0.3391(9) 0.5532(16)
H84_2 H 0.6421 0.3817 0.5579
C83_2 C 0.9022(11) 0.1696(13) 0.725(2)
H85_2 H 0.9088 0.2193 0.7323
H86_2 H 0.8905 0.1497 0.7950
H87_2 H 0.9446 0.1486 0.6977
C84_2 C 0.7642(12) 0.1911(13) 0.7953(19)
H88_2 H 0.8045 0.2154 0.8235
H89_2 H 0.7246 0.2222 0.7950
H90_2 H 0.7542 0.1513 0.8411
C85_2 C 0.6813(10) 0.1106(8) 0.4132(17)
H91_2 H 0.6377 0.1297 0.4387
H92_2 H 0.6921 0.1295 0.3418
H93_2 H 0.6776 0.0605 0.4083
C86_2 C 0.6449(10) 0.2827(9) 0.5940(19)
H94_2 H 0.6866 0.2875 0.6331
C87_2 C 0.9873(9) 0.2043(8) 0.3430(14)
C88_2 C 0.5559(10) 0.2142(10) 0.5313(17)
H96_2 H 0.5359 0.1699 0.5242
O21_2 O 0.6145(5) 0.5143(5) 0.5350(8)
H10_2 H 0.2608 0.9879 0.7891
H23_2 H 0.1621 0.9931 0.6799
C45_2 C 0.8384(10) 0.6461(11) 0.3607(17)
H49_2 H 0.8307 0.6445 0.2817
H50_2 H 0.8802 0.6191 0.3773
C46_2 C 0.8573(8) 0.8623(9) 0.4616(15)
C47_2 C 0.8443(11) 0.8435(11) 0.3558(14)
C48_2 C 0.8578(8) 0.9357(9) 0.5026(18)
H51_2 H 0.8615 0.9678 0.4409
H52_2 H 0.8981 0.9429 0.5501
C49_2 C 0.8699(8) 0.7404(9) 0.5051(16)
C50_2 C 0.8337(9) 0.7792(10) 0.3231(16)
C51_2 C 0.8489(9) 0.7248(11) 0.3991(15)
C52_2 C 0.8745(9) 0.8091(10) 0.5353(15)
C53_2 C 0.8892(9) 0.8223(10) 0.6586(16)
H53_2 H 0.9084 0.8685 0.6679
H54_2 H 0.9220 0.7882 0.6852
H55_2 H 0.8462 0.8186 0.6995
C54_2 C 0.6732(8) 0.9424(10) 0.5753(18)
H56_2 H 0.6310 0.9256 0.5473
C55_2 C 0.6721(8) 0.9804(11) 0.6729(14)
C56_2 C 0.7308(9) 0.9294(11) 0.521(2)
H57_2 H 0.7297 0.9062 0.4537
N8_2 N 0.7919(7) 0.9504(8) 0.5655(14)
C57_2 C 0.7363(8) 0.9957(8) 0.7170(17)
C58_2 C 0.7333(7) 0.5204(10) 0.5127(17)
H59_2 H 0.7406 0.4782 0.5493
C59_2 C 0.6660(9) 0.5492(9) 0.5016(16)
N9_2 N 0.7826(7) 0.6185(8) 0.4140(14)
C60_2 C 0.6609(9) 0.6185(11) 0.4468(16)
H60_2 H 0.6183 0.6421 0.4421
C61_2 C 0.8304(13) 0.9022(11) 0.275(2)
H61_2 H 0.7807 0.9088 0.2677
H62_2 H 0.8503 0.8905 0.2050
H63_2 H 0.8514 0.9446 0.3023
C62_2 C 0.8089(13) 0.7642(12) 0.2047(19)
H64_2 H 0.7846 0.8045 0.1765
H65_2 H 0.7778 0.7246 0.2050
H66_2 H 0.8487 0.7542 0.1589
C63_2 C 0.8894(8) 0.6813(10) 0.5868(17)
H67_2 H 0.8703 0.6377 0.5613
H68_2 H 0.8705 0.6921 0.6582
H69_2 H 0.9395 0.6776 0.5917
C64_2 C 0.7173(9) 0.6449(10) 0.4060(19)
H70_2 H 0.7125 0.6866 0.3669
C65_2 C 0.7957(8) 0.9873(9) 0.6570(14)
C66_2 C 0.7858(10) 0.5559(10) 0.4687(17)
H72_2 H 0.8301 0.5359 0.4758
H34_2 H 0.9879 0.7392 0.2109
H47_2 H 0.9931 0.8379 0.3201
loop_
_geom_bond_atom_site_label_1
_geom_bond_atom_site_label_2
_geom_bond_site_symmetry_1
_geom_bond_site_symmetry_2
O12 N7 1_555 1_555
O21 Gd1 1_555 1_555
O5 N4 1_555 1_555
O8 Gd1_2 1_555 1_555
N4 O8 1_555 1_555
N2 O4 1_555 1_555
O4 Gd2 1_555 1_555
O6 N2 1_555 1_555
O12_2 N7_2 1_555 1_555
O13 Gd1_3 1_555 1_555
O21 C59 1_555 1_555
O15 Gd2 1_555 1_555
H52 C48 1_555 1_555
C53 C52 1_555 1_555
H53 C53 1_555 1_555
H54 C53 1_555 1_555
H55 C53 1_555 1_555
C54 H56 1_555 1_555
C55 O15 1_555 1_555
C56 C54 1_555 1_555
N8 C48 1_555 1_555
C57 C55 1_555 1_555
H58 C57 1_555 1_555
C59 C58 1_555 1_555
C63 C49 1_555 1_555
H67 C63 1_555 1_555
H68 C63 1_555 1_555
H69 C63 1_555 1_555
C65 N8 1_555 1_555
H71 C65 1_555 1_555
C67 H73 1_555 1_555
H74 C67 1_555 1_555
C68 C69 1_555 1_555
C69 C72 1_555 1_555
C72 C73 1_555 1_555
C73 C67 1_555 1_555
N11 C67 1_555 1_555
H84 C82 1_555 1_555
C83 C69 1_555 1_555
H85 C83 1_555 1_555
H86 C83 1_555 1_555
H87 C83 1_555 1_555
C84 C72 1_555 1_555
H88 C84 1_555 1_555
H89 C84 1_555 1_555
H90 C84 1_555 1_555
C86 N11 1_555 1_555
H94 C86 1_555 1_555
H96 C88 1_555 1_555
O20 Gd2 1_555 1_555
O22 Gd2 1_555 1_555
N7_2 O13 1_555 1_555
C49 C52 1_555 1_555
C54 C55 1_555 1_555
C56 N8 1_555 1_555
C57 C65 1_555 1_555
N11 C88 1_555 1_555
C82 C86 1_555 1_555
N12 O20 1_555 1_555
O5_2 N4_2 1_555 1_555
C45 H49 1_555 1_555
H50 C45 1_555 1_555
C46 C47 1_555 1_555
C47 C50 1_555 1_555
C50 C51 1_555 1_555
C51 C45 1_555 1_555
N9 C45 1_555 1_555
H60 C60 1_555 1_555
C61 C47 1_555 1_555
H61 C61 1_555 1_555
H62 C61 1_555 1_555
H63 C61 1_555 1_555
C62 C50 1_555 1_555
H64 C62 1_555 1_555
H65 C62 1_555 1_555
H66 C62 1_555 1_555
C64 N9 1_555 1_555
H70 C64 1_555 1_555
H72 C66 1_555 1_555
O16 Gd1_4 1_555 1_555
O17 C77 1_555 1_555
H76 C70 1_555 1_555
C75 C74 1_555 1_555
H77 C75 1_555 1_555
H78 C75 1_555 1_555
H79 C75 1_555 1_555
C76 H80 1_555 1_555
C77 C76 1_555 1_555
C78 C76 1_555 1_555
N10 C70 1_555 1_555
C79 C77 1_555 1_555
H82 C79 1_555 1_555
C81 O16 1_555 1_555
C85 C71 1_555 1_555
H91 C85 1_555 1_555
H92 C85 1_555 1_555
H93 C85 1_555 1_555
C87 N10 1_555 1_555
H95 C87 1_555 1_555
Gd5_2 O17 1_555 1_555
N9 C66 1_555 1_555
C60 C64 1_555 1_555
C71 C74 1_555 1_555
C78 N10 1_555 1_555
C79 C87 1_555 1_555
C80 C81 1_555 1_555
C23 H25 1_555 1_555
H26 C23 1_555 1_555
C24 C25 1_555 1_555
C25 C28 1_555 1_555
C28 C29 1_555 1_555
C29 C23 1_555 1_555
O11 Gd1_5 1_555 1_555
N6 C23 1_555 1_555
H36 C38 1_555 1_555
C39 C25 1_555 1_555
H37 C39 1_555 1_555
H38 C39 1_555 1_555
H39 C39 1_555 1_555
C40 C28 1_555 1_555
H40 C40 1_555 1_555
H41 C40 1_555 1_555
H42 C40 1_555 1_555
O12_3 N7_3 1_555 1_555
N7_3 O11 1_555 1_555
C42 N6 1_555 1_555
H46 C42 1_555 1_555
H48 C44 1_555 1_555
N6 C44 1_555 1_555
C38 C42 1_555 1_555
O5_3 N4_3 1_555 1_555
O9 Gd1_6 1_555 1_555
O10 C33 1_555 1_555
H28 C26 1_555 1_555
C31 C30 1_555 1_555
H29 C31 1_555 1_555
H30 C31 1_555 1_555
H31 C31 1_555 1_555
C32 H32 1_555 1_555
C33 C32 1_555 1_555
C34 C32 1_555 1_555
N5 C26 1_555 1_555
C35 C33 1_555 1_555
H34 C35 1_555 1_555
C37 O9 1_555 1_555
C41 C27 1_555 1_555
H43 C41 1_555 1_555
H44 C41 1_555 1_555
H45 C41 1_555 1_555
C43 N5 1_555 1_555
H47 C43 1_555 1_555
Gd5 O10 1_555 1_555
C27 C30 1_555 1_555
C34 N5 1_555 1_555
C35 C43 1_555 1_555
C36 C37 1_555 1_555
Gd1_7 O1 1_555 1_555
O1 C15 1_555 1_555
Gd2_2 O2 1_555 1_555
O2 C11 1_555 1_555
H4 C4 1_555 1_555
C9 C8 1_555 1_555
H5 C9 1_555 1_555
H6 C9 1_555 1_555
H7 C9 1_555 1_555
C10 H8 1_555 1_555
C11 C10 1_555 1_555
C12 C10 1_555 1_555
N1 C4 1_555 1_555
C13 C11 1_555 1_555
H10 C13 1_555 1_555
C15 C14 1_555 1_555
O6_2 N2_2 1_555 1_555
C19 C5 1_555 1_555
H19 C19 1_555 1_555
H20 C19 1_555 1_555
H21 C19 1_555 1_555
C21 N1 1_555 1_555
H23 C21 1_555 1_555
O7 Gd2_2 1_555 1_555
O12_4 N7_4 1_555 1_555
N12_2 O18 1_555 1_555
O18 Gd2_2 1_555 1_555
O23 Gd2_2 1_555 1_555
C5 C8 1_555 1_555
C12 N1 1_555 1_555
N2_2 O7 1_555 1_555
C13 C21 1_555 1_555
C1 H1 1_555 1_555
H2 C1 1_555 1_555
C2 C3 1_555 1_555
C3 C6 1_555 1_555
C6 C7 1_555 1_555
C7 C1 1_555 1_555
O3 Gd1_8 1_555 1_555
N3 C1 1_555 1_555
H12 C16 1_555 1_555
C17 C3 1_555 1_555
H13 C17 1_555 1_555
H14 C17 1_555 1_555
H15 C17 1_555 1_555
C18 C6 1_555 1_555
H16 C18 1_555 1_555
H17 C18 1_555 1_555
H18 C18 1_555 1_555
O5_4 N4_4 1_555 1_555
N4_4 O3 1_555 1_555
C20 N3 1_555 1_555
H22 C20 1_555 1_555
H24 C22 1_555 1_555
N3 C22 1_555 1_555
C16 C20 1_555 1_555
O6_3 N2_3 1_555 1_555
O7_2 Gd5 1_555 1_555
N12_3 O18_2 1_555 1_555
O18_2 Gd5 1_555 1_555
O23_2 Gd5 1_555 1_555
N2_3 O7_2 1_555 1_555
N2_4 O4_2 1_555 1_555
O4_2 Gd5_2 1_555 1_555
O6_4 N2_4 1_555 1_555
O20_2 Gd5_2 1_555 1_555
O22_2 Gd5_2 1_555 1_555
N12_4 O20_2 1_555 1_555
Gd1_9 O1_2 1_555 1_555
O1_2 C15_2 1_555 1_555
O23_2 C11_2 1_555 1_555
C1_2 H1_2 1_555 1_555
H2_2 C1_2 1_555 1_555
C2_2 C3_2 1_555 1_555
C3_2 C6_2 1_555 1_555
C4_2 C2_2 1_555 1_555
H3_2 C4_2 1_555 1_555
H4_2 C4_2 1_555 1_555
C5_2 C7_2 1_555 1_555
C6_2 C7_2 1_555 1_555
C7_2 C1_2 1_555 1_555
C8_2 C2_2 1_555 1_555
C9_2 C8_2 1_555 1_555
H5_2 C9_2 1_555 1_555
H6_2 C9_2 1_555 1_555
H7_2 C9_2 1_555 1_555
C10_2 H8_2 1_555 1_555
C11_2 C10_2 1_555 1_555
C12_2 C10_2 1_555 1_555
H9_2 C12_2 1_555 1_555
N1_2 C4_2 1_555 1_555
O3_2 Gd1_9 1_555 1_555
C13_2 C11_2 1_555 1_555
C14_2 H11_2 1_555 1_555
C15_2 C14_2 1_555 1_555
N3_2 C1_2 1_555 1_555
C16_2 C15_2 1_555 1_555
H12_2 C16_2 1_555 1_555
C17_2 C3_2 1_555 1_555
H13_2 C17_2 1_555 1_555
H14_2 C17_2 1_555 1_555
H15_2 C17_2 1_555 1_555
C18_2 C6_2 1_555 1_555
H16_2 C18_2 1_555 1_555
H17_2 C18_2 1_555 1_555
H18_2 C18_2 1_555 1_555
O5_5 N4_5 1_555 1_555
N4_5 O3_2 1_555 1_555
C19_2 C5_2 1_555 1_555
H19_2 C19_2 1_555 1_555
H20_2 C19_2 1_555 1_555
H21_2 C19_2 1_555 1_555
C20_2 N3_2 1_555 1_555
H22_2 C20_2 1_555 1_555
C21_2 N1_2 1_555 1_555
C22_2 C14_2 1_555 1_555
H24_2 C22_2 1_555 1_555
O8_2 Gd1_9 1_555 1_555
O9_2 Gd1_9 1_555 1_555
O22 C33_2 1_555 1_555
C23_2 H25_2 1_555 1_555
H26_2 C23_2 1_555 1_555
C24_2 C25_2 1_555 1_555
C25_2 C28_2 1_555 1_555
C26_2 C24_2 1_555 1_555
H27_2 C26_2 1_555 1_555
H28_2 C26_2 1_555 1_555
C27_2 C29_2 1_555 1_555
C28_2 C29_2 1_555 1_555
C29_2 C23_2 1_555 1_555
C30_2 C24_2 1_555 1_555
C31_2 C30_2 1_555 1_555
H29_2 C31_2 1_555 1_555
H30_2 C31_2 1_555 1_555
H31_2 C31_2 1_555 1_555
C32_2 H32_2 1_555 1_555
C33_2 C32_2 1_555 1_555
C34_2 C32_2 1_555 1_555
H33_2 C34_2 1_555 1_555
N5_2 C26_2 1_555 1_555
O11_2 Gd1_9 1_555 1_555
C35_2 C33_2 1_555 1_555
C36_2 H35_2 1_555 1_555
C37_2 O9_2 1_555 1_555
N6_2 C23_2 1_555 1_555
C38_2 C37_2 1_555 1_555
H36_2 C38_2 1_555 1_555
C39_2 C25_2 1_555 1_555
H37_2 C39_2 1_555 1_555
H38_2 C39_2 1_555 1_555
H39_2 C39_2 1_555 1_555
C40_2 C28_2 1_555 1_555
H40_2 C40_2 1_555 1_555
H41_2 C40_2 1_555 1_555
H42_2 C40_2 1_555 1_555
O12_5 N7_5 1_555 1_555
N7_5 O11_2 1_555 1_555
C41_2 C27_2 1_555 1_555
H43_2 C41_2 1_555 1_555
H44_2 C41_2 1_555 1_555
H45_2 C41_2 1_555 1_555
C42_2 N6_2 1_555 1_555
H46_2 C42_2 1_555 1_555
C43_2 N5_2 1_555 1_555
C44_2 C36_2 1_555 1_555
H48_2 C44_2 1_555 1_555
O13_2 Gd1_9 1_555 1_555
O16_2 Gd1_9 1_555 1_555
O23 C77_2 1_555 1_555
C67_2 H73_2 1_555 1_555
H74_2 C67_2 1_555 1_555
C68_2 C69_2 1_555 1_555
C69_2 C72_2 1_555 1_555
C70_2 C68_2 1_555 1_555
H75_2 C70_2 1_555 1_555
H76_2 C70_2 1_555 1_555
C71_2 C73_2 1_555 1_555
C72_2 C73_2 1_555 1_555
C73_2 C67_2 1_555 1_555
C74_2 C68_2 1_555 1_555
C75_2 C74_2 1_555 1_555
H77_2 C75_2 1_555 1_555
H78_2 C75_2 1_555 1_555
H79_2 C75_2 1_555 1_555
C76_2 H80_2 1_555 1_555
C77_2 C76_2 1_555 1_555
C78_2 C76_2 1_555 1_555
H81_2 C78_2 1_555 1_555
N10_2 C70_2 1_555 1_555
C79_2 C77_2 1_555 1_555
C80_2 H83_2 1_555 1_555
C81_2 O16_2 1_555 1_555
N11_2 C67_2 1_555 1_555
C82_2 C81_2 1_555 1_555
H84_2 C82_2 1_555 1_555
C83_2 C69_2 1_555 1_555
H85_2 C83_2 1_555 1_555
H86_2 C83_2 1_555 1_555
H87_2 C83_2 1_555 1_555
C84_2 C72_2 1_555 1_555
H88_2 C84_2 1_555 1_555
H89_2 C84_2 1_555 1_555
H90_2 C84_2 1_555 1_555
C85_2 C71_2 1_555 1_555
H91_2 C85_2 1_555 1_555
H92_2 C85_2 1_555 1_555
H93_2 C85_2 1_555 1_555
C86_2 N11_2 1_555 1_555
H94_2 C86_2 1_555 1_555
C87_2 N10_2 1_555 1_555
C88_2 C80_2 1_555 1_555
H96_2 C88_2 1_555 1_555
O21_2 Gd1_9 1_555 1_555
C5_2 C8_2 1_555 1_555
C12_2 N1_2 1_555 1_555
C13_2 C21_2 1_555 1_555
N3_2 C22_2 1_555 1_555
C16_2 C20_2 1_555 1_555
N4_5 O8_2 1_555 1_555
C27_2 C30_2 1_555 1_555
C34_2 N5_2 1_555 1_555
C35_2 C43_2 1_555 1_555
C36_2 C37_2 1_555 1_555
N6_2 C44_2 1_555 1_555
C38_2 C42_2 1_555 1_555
N7_5 O13_2 1_555 1_555
C71_2 C74_2 1_555 1_555
C78_2 N10_2 1_555 1_555
C79_2 C87_2 1_555 1_555
C80_2 C81_2 1_555 1_555
N11_2 C88_2 1_555 1_555
C82_2 C86_2 1_555 1_555
O21_2 C59_2 1_555 1_555
C45_2 H49_2 1_555 1_555
H50_2 C45_2 1_555 1_555
C46_2 C47_2 1_555 1_555
C47_2 C50_2 1_555 1_555
C48_2 C46_2 1_555 1_555
H51_2 C48_2 1_555 1_555
H52_2 C48_2 1_555 1_555
C49_2 C51_2 1_555 1_555
C50_2 C51_2 1_555 1_555
C51_2 C45_2 1_555 1_555
C52_2 C46_2 1_555 1_555
C53_2 C52_2 1_555 1_555
H53_2 C53_2 1_555 1_555
H54_2 C53_2 1_555 1_555
H55_2 C53_2 1_555 1_555
C54_2 H56_2 1_555 1_555
C55_2 O22_2 1_555 1_555
C56_2 C54_2 1_555 1_555
H57_2 C56_2 1_555 1_555
N8_2 C48_2 1_555 1_555
C57_2 C55_2 1_555 1_555
C58_2 H59_2 1_555 1_555
C59_2 C58_2 1_555 1_555
N9_2 C45_2 1_555 1_555
C60_2 C59_2 1_555 1_555
H60_2 C60_2 1_555 1_555
C61_2 C47_2 1_555 1_555
H61_2 C61_2 1_555 1_555
H62_2 C61_2 1_555 1_555
H63_2 C61_2 1_555 1_555
C62_2 C50_2 1_555 1_555
H64_2 C62_2 1_555 1_555
H65_2 C62_2 1_555 1_555
H66_2 C62_2 1_555 1_555
C63_2 C49_2 1_555 1_555
H67_2 C63_2 1_555 1_555
H68_2 C63_2 1_555 1_555
H69_2 C63_2 1_555 1_555
C64_2 N9_2 1_555 1_555
H70_2 C64_2 1_555 1_555
C65_2 N8_2 1_555 1_555
C66_2 C58_2 1_555 1_555
H72_2 C66_2 1_555 1_555
C49_2 C52_2 1_555 1_555
C54_2 C55_2 1_555 1_555
C56_2 N8_2 1_555 1_555
C57_2 C65_2 1_555 1_555
N9_2 C66_2 1_555 1_555
C60_2 C64_2 1_555 1_555

#END
