
###############################################################################
#
# This file contains modified crystal structure data generated from the
# MOF subset of the Cambridge Structural Database (CSD) v543 
# hosted by the Cambridge Crystallographic Data Centre (CCDC).
#
# This work is licensed under the Creative Commons
# Attribution-NonCommercial-ShareAlike 4.0 International License.
# To view a copy of this license, visit
# http://creativecommons.org/licenses/by-nc-sa/4.0/
# or send a letter to
# Creative Commons, PO Box 1866, Mountain View, CA 94042, USA.
#
# CIF created using the CSD Python API on 29 September 2022
# The structure has been converted into the P1 space group
# The structure has a 3D framework
# The original CSD entry HUPQIU is in the rhombohedral crystal system
# The framework has been calculated to contain at least 10.0% void space
# The void calculation uses a probe of radius 1.32A, grid spacing 0.4
#
###############################################################################

data_HUPQIU
_chemical_formula_moiety         '(C576 H432 O156 Zn30)n'
_symmetry_cell_setting           triclinic
_symmetry_space_group_name_H-M   'P 1'
_symmetry_Int_Tables_number      1
_space_group_name_Hall           'P 1'
loop_
_symmetry_equiv_pos_site_id
_symmetry_equiv_pos_as_xyz
1 x,y,z
_cell_length_a                   29.923(2)
_cell_length_b                   29.923(2)
_cell_length_c                   37.639(3)
_cell_angle_alpha                90
_cell_angle_beta                 90
_cell_angle_gamma                120
_cell_volume                     29186.3
loop_
_atom_site_label
_atom_site_type_symbol
_atom_site_fract_x
_atom_site_fract_y
_atom_site_fract_z
O2 O 0.2094(4) 0.5948(3) 0.4375(2)
O5 O 0.2631(4) 0.6345(8) 0.3906(3)
O6 O 0.0276(5) 0.3855(5) 0.2026(4)
O7 O 0.1024(5) 0.4157(5) 0.2465(4)
C11 C 0.0296(7) 0.4158(7) 0.2284(5)
C13 C 0.0698(7) 0.4315(7) 0.2523(5)
C14 C 0.1467(7) 0.4336(8) 0.2705(6)
H9 H 0.1653 0.4161 0.2651
H10 H 0.1347 0.4264 0.2946
H11 H 0.1690 0.4701 0.2676
C15 C 0.0743(6) 0.4663(6) 0.2812(4)
H12 H 0.1011 0.4776 0.2975
C16 C 0.0387(5) 0.4820(6) 0.2840(4)
C17 C 0.0419(5) 0.5164(5) 0.3123(3)
C18 C 0.0030(5) 0.5289(5) 0.3166(3)
C19 C 0.0095(5) 0.5671(4) 0.3446(3)
H13 H 0.0392 0.5831 0.3584
C21 C 0.0174(5) 0.6387(5) 0.3952(4)
H14 H 0.0469 0.6582 0.3803
H15 H 0.0222 0.6145 0.4090
H16 H 0.0133 0.6618 0.4109
C26 C 0.0873(5) 0.5377(6) 0.3359(3)
C27 C 0.0835(5) 0.5247(6) 0.3706(3)
H21 H 0.0511 0.5014 0.3796
C28 C 0.1242(5) 0.5436(6) 0.3931(4)
H22 H 0.1198 0.5318 0.4164
C29 C 0.1725(5) 0.5809(6) 0.3811(4)
C30 C 0.2185(5) 0.6061(6) 0.4054(4)
C31 C 0.1778(5) 0.5964(6) 0.3466(4)
H23 H 0.2099 0.6216 0.3381
C32 C 0.1364(5) 0.5750(6) 0.3244(4)
H24 H 0.1409 0.5856 0.3008
Zn7 Zn 0.3334 0.6666 0.39980(7)
Zn10 Zn 0.26382(7) 0.63260(5) 0.47115(3)
Zn1 Zn 0.6667 0.3333 0.06647(7)
Zn2 Zn 0.70073(5) 0.29788(5) 0.13782(3)
O1 O 0.7498(3) 0.3393(3) 0.17434(18)
O3 O 0.7673(3) 0.4181(4) 0.15951(18)
O4 O 0.6667 0.3333 0.1190(3)
O8 O 0.8899(3) 0.5678(3) 0.3384(2)
O9 O 0.9729(4) 0.6121(4) 0.3740(2)
C1 C 0.7776(4) 0.3892(4) 0.1748(3)
C2 C 0.8239(4) 0.4106(4) 0.1994(3)
C3 C 0.8313(4) 0.3801(4) 0.2236(3)
H1 H 0.8081 0.3448 0.2243
C4 C 0.8720(4) 0.4010(4) 0.2464(3)
H2 H 0.8746 0.3804 0.2638
C5 C 0.9094(4) 0.4522(4) 0.2441(3)
C6 C 0.9029(4) 0.4820(4) 0.2189(3)
H3 H 0.9279 0.5167 0.2168
C7 C 0.8626(4) 0.4631(4) 0.1976(3)
H4 H 0.8596 0.4847 0.1812
C8 C 0.9531(5) 0.4737(5) 0.2678(3)
C9 C 0.9943(5) 0.4610(5) 0.2623(4)
C10 C 0.9900(5) 0.4282(6) 0.2340(4)
H5 H 0.9614 0.4146 0.2191
C12 C 0.9857(7) 0.3664(7) 0.1767(5)
H6 H 0.9918 0.3478 0.1584
H7 H 0.9842 0.3949 0.1665
H8 H 0.9536 0.3438 0.1884
C20 C 0.9707(5) 0.5775(5) 0.3491(3)
C22 C 0.9254(5) 0.5545(4) 0.3287(3)
C23 C 0.8429(5) 0.5454(4) 0.3203(3)
H17 H 0.8482 0.5394 0.2960
H18 H 0.8291 0.5683 0.3210
H19 H 0.8191 0.5133 0.3314
C24 C 0.9193(4) 0.5200(4) 0.3029(3)
H20 H 0.8889 0.5039 0.2899
C25 C 0.9595(5) 0.5082(5) 0.2956(3)
Zn3 Zn 0.70212(5) 0.40285(7) 0.13782(3)
O10 O 0.6607(3) 0.4105(4) 0.17434(18)
O11 O 0.4052(3) 0.6146(5) 0.4375(2)
O12 O 0.5819(4) 0.3492(5) 0.15951(18)
O13 O 0.3655(8) 0.6286(9) 0.3906(3)
O14 O 0.6145(5) 0.6421(7) 0.2026(4)
O15 O 0.5843(5) 0.6867(7) 0.2465(4)
O16 O 0.4322(3) 0.3221(4) 0.3384(2)
O17 O 0.3879(4) 0.3608(6) 0.3740(2)
C33 C 0.6108(4) 0.3884(6) 0.1748(3)
C34 C 0.5894(4) 0.4133(6) 0.1994(3)
C35 C 0.6199(4) 0.4512(6) 0.2236(3)
H25 H 0.6552 0.4633 0.2243
C36 C 0.5990(4) 0.4710(6) 0.2464(3)
H26 H 0.6196 0.4942 0.2638
C37 C 0.5478(4) 0.4572(6) 0.2441(3)
C38 C 0.5180(4) 0.4209(6) 0.2189(3)
H27 H 0.4833 0.4112 0.2168
C39 C 0.5369(4) 0.3995(6) 0.1976(3)
H28 H 0.5153 0.3749 0.1812
C40 C 0.5263(5) 0.4794(7) 0.2678(3)
C41 C 0.5390(5) 0.5333(7) 0.2623(4)
C42 C 0.5718(6) 0.5618(8) 0.2340(4)
H29 H 0.5854 0.5468 0.2191
C43 C 0.5842(7) 0.6138(10) 0.2284(5)
C44 C 0.6336(7) 0.6193(10) 0.1767(5)
H30 H 0.6522 0.6440 0.1584
H31 H 0.6051 0.5893 0.1665
H32 H 0.6562 0.6098 0.1884
C45 C 0.5685(7) 0.6383(10) 0.2523(5)
C46 C 0.5664(8) 0.7131(11) 0.2705(6)
H33 H 0.5839 0.7492 0.2651
H34 H 0.5736 0.7083 0.2946
H35 H 0.5299 0.6989 0.2676
C47 C 0.5337(6) 0.6080(8) 0.2812(4)
H36 H 0.5224 0.6235 0.2975
C48 C 0.5180(6) 0.5567(8) 0.2840(4)
C49 C 0.4836(5) 0.5255(7) 0.3123(3)
C50 C 0.4711(5) 0.4741(7) 0.3166(3)
C51 C 0.4329(4) 0.4424(6) 0.3446(3)
H37 H 0.4169 0.4561 0.3584
C52 C 0.4225(5) 0.3932(7) 0.3491(3)
C53 C 0.3613(5) 0.3787(7) 0.3952(4)
H38 H 0.3418 0.3887 0.3803
H39 H 0.3855 0.4077 0.4090
H40 H 0.3382 0.3515 0.4109
C54 C 0.4455(4) 0.3709(6) 0.3287(3)
C55 C 0.4546(4) 0.2975(6) 0.3203(3)
H41 H 0.4606 0.3088 0.2960
H42 H 0.4317 0.2608 0.3210
H43 H 0.4867 0.3058 0.3314
C56 C 0.4800(4) 0.3993(6) 0.3029(3)
H44 H 0.4961 0.3850 0.2899
C57 C 0.4918(5) 0.4513(7) 0.2956(3)
C58 C 0.4623(6) 0.5496(8) 0.3359(3)
C59 C 0.4753(6) 0.5588(8) 0.3706(3)
H45 H 0.4986 0.5497 0.3796
C60 C 0.4564(6) 0.5806(8) 0.3931(4)
H46 H 0.4682 0.5880 0.4164
C61 C 0.4191(6) 0.5916(8) 0.3811(4)
C62 C 0.3939(6) 0.6124(8) 0.4054(4)
C63 C 0.4036(6) 0.5814(8) 0.3466(4)
H47 H 0.3784 0.5883 0.3381
C64 C 0.4250(6) 0.5614(8) 0.3244(4)
H48 H 0.4144 0.5553 0.3008
Zn4 Zn 0.59715(7) 0.29927(5) 0.13782(3)
O18 O 0.5895(4) 0.2502(3) 0.17434(18)
O20 O 0.6508(5) 0.2327(3) 0.15951(18)
O24 O 0.6779(4) 0.1101(3) 0.3384(2)
O25 O 0.6392(6) 0.0271(4) 0.3740(2)
C65 C 0.6116(6) 0.2224(4) 0.1748(3)
C66 C 0.5867(6) 0.1761(4) 0.1994(3)
C67 C 0.5488(6) 0.1687(4) 0.2236(3)
H49 H 0.5367 0.1919 0.2243
C68 C 0.5290(6) 0.1280(4) 0.2464(3)
H50 H 0.5058 0.1254 0.2638
C69 C 0.5428(6) 0.0906(4) 0.2441(3)
C70 C 0.5791(6) 0.0971(4) 0.2189(3)
H51 H 0.5888 0.0721 0.2168
C71 C 0.6005(6) 0.1374(4) 0.1976(3)
H52 H 0.6251 0.1404 0.1812
C72 C 0.5206(7) 0.0469(5) 0.2678(3)
C73 C 0.4667(7) 0.0057(5) 0.2623(4)
C74 C 0.4382(8) 0.0100(5) 0.2340(4)
H53 H 0.4532 0.0386 0.2191
C76 C 0.3807(10) 0.0143(7) 0.1767(5)
H54 H 0.3560 0.0082 0.1584
H55 H 0.4107 0.0158 0.1665
H56 H 0.3902 0.0464 0.1884
C84 C 0.6068(7) 0.0293(5) 0.3491(3)
C86 C 0.6291(6) 0.0746(5) 0.3287(3)
C87 C 0.7025(6) 0.1571(5) 0.3203(3)
H65 H 0.6912 0.1518 0.2960
H66 H 0.7392 0.1709 0.3210
H67 H 0.6942 0.1809 0.3314
C88 C 0.6007(6) 0.0807(4) 0.3029(3)
H68 H 0.6150 0.1111 0.2899
C89 C 0.5487(7) 0.0405(5) 0.2956(3)
Zn8 Zn 0.36740(5) 0.63121(5) 0.47115(3)
O26 O 0.5427(4) 0.2615(3) 0.1042(2)
O27 O 0.7385(3) 0.2813(5) 0.1042(2)
O28 O 0.7187(5) 0.4573(4) 0.1042(2)
O29 O 0.5964(4) 0.3012(8) 0.0573(3)
O30 O 0.6988(8) 0.2953(9) 0.0573(3)
O31 O 0.7047(9) 0.4036(4) 0.0573(3)
O19 O 0.3854(5) 0.7906(4) 0.4375(2)
O21 O 0.3714(9) 0.7369(4) 0.3906(3)
O22 O 0.3579(7) 0.9724(5) 0.2026(4)
O23 O 0.3133(7) 0.8976(5) 0.2465(4)
C75 C 0.3862(10) 0.9704(7) 0.2284(5)
C77 C 0.3617(10) 0.9302(7) 0.2523(5)
C78 C 0.2869(11) 0.8533(7) 0.2705(6)
H57 H 0.2508 0.8347 0.2651
H58 H 0.2917 0.8653 0.2946
H59 H 0.3011 0.8310 0.2676
C79 C 0.3920(8) 0.9257(6) 0.2812(4)
H60 H 0.3765 0.8989 0.2975
C80 C 0.4433(8) 0.9613(5) 0.2840(4)
C81 C 0.4745(7) 0.9581(5) 0.3123(3)
C82 C 0.5259(7) 0.9970(5) 0.3166(3)
C83 C 0.5576(6) 0.9905(5) 0.3446(3)
H61 H 0.5439 0.9608 0.3584
C85 C 0.6213(7) 0.9826(5) 0.3952(4)
H62 H 0.6113 0.9531 0.3803
H63 H 0.5923 0.9778 0.4090
H64 H 0.6485 0.9867 0.4109
C90 C 0.4504(8) 0.9127(5) 0.3359(3)
C91 C 0.4412(8) 0.9165(5) 0.3706(3)
H69 H 0.4503 0.9489 0.3796
C92 C 0.4194(8) 0.8758(5) 0.3931(4)
H70 H 0.4120 0.8802 0.4164
C93 C 0.4084(8) 0.8275(5) 0.3811(4)
C94 C 0.3876(8) 0.7815(5) 0.4054(4)
C95 C 0.4186(8) 0.8222(5) 0.3466(4)
H71 H 0.4117 0.7901 0.3381
C96 C 0.4386(8) 0.8636(5) 0.3244(4)
H72 H 0.4447 0.8591 0.3008
Zn9 Zn 0.36879(5) 0.73618(7) 0.47115(3)
Zn7_2 Zn 0.0000 -0.0000 0.73314(7)
Zn7_3 Zn 0.0000 1.0000 0.73314(7)
O15_2 O 0.2510(5) 0.0200(7) 0.5798(4)
C46_2 C 0.2331(8) 0.0464(11) 0.6038(6)
H33_2 H 0.2506 0.0825 0.5984
H34_2 H 0.2403 0.0416 0.6279
H35_2 H 0.1966 0.0322 0.6009
Zn7_4 Zn 1.0000 -0.0000 0.73314(7)
O1_2 O 0.4165(3) 0.6726(3) 0.50767(18)
O2_2 O 0.8761(4) 0.9281(3) 0.7708(2)
O3_2 O 0.4340(3) 0.7514(4) 0.49284(18)
O4_2 O 0.3334 0.6666 0.4523(3)
O5_2 O 0.9298(4) 0.9678(8) 0.7239(3)
O6_2 O 0.6943(5) 0.7188(5) 0.5359(4)
O7_2 O 0.7691(5) 0.7490(5) 0.5798(4)
O8_2 O 0.5566(3) 0.9011(3) 0.6717(2)
O9_2 O 0.6396(4) 0.9454(4) 0.7073(2)
C1_2 C 0.4443(4) 0.7225(4) 0.5081(3)
C2_2 C 0.4906(4) 0.7439(4) 0.5327(3)
C3_2 C 0.4980(4) 0.7134(4) 0.5569(3)
H1_2 H 0.4748 0.6781 0.5576
C4_2 C 0.5387(4) 0.7343(4) 0.5797(3)
H2_2 H 0.5413 0.7137 0.5971
C5_2 C 0.5761(4) 0.7855(4) 0.5774(3)
C6_2 C 0.5696(4) 0.8153(4) 0.5522(3)
H3_2 H 0.5946 0.8500 0.5501
C7_2 C 0.5293(4) 0.7964(4) 0.5309(3)
H4_2 H 0.5263 0.8180 0.5145
C8_2 C 0.6198(5) 0.8070(5) 0.6011(3)
C9_2 C 0.6610(5) 0.7943(5) 0.5956(4)
C10_2 C 0.6567(5) 0.7615(6) 0.5673(4)
H5_2 H 0.6281 0.7479 0.5524
C11_2 C 0.6963(7) 0.7491(7) 0.5617(5)
C12_2 C 0.6524(7) 0.6997(7) 0.5100(5)
H6_2 H 0.6585 0.6811 0.4917
H7_2 H 0.6509 0.7282 0.4998
H8_2 H 0.6203 0.6771 0.5217
C13_2 C 0.7365(7) 0.7648(7) 0.5856(5)
C14_2 C 0.8134(7) 0.7669(8) 0.6038(6)
H9_2 H 0.8320 0.7494 0.5984
H10_2 H 0.8014 0.7597 0.6279
H11_2 H 0.8357 0.8034 0.6009
C15_2 C 0.7410(6) 0.7996(6) 0.6145(4)
H12_2 H 0.7678 0.8109 0.6308
C16_2 C 0.7054(5) 0.8153(6) 0.6173(4)
C17_2 C 0.7086(5) 0.8497(5) 0.6456(3)
C18_2 C 0.6697(5) 0.8622(5) 0.6499(3)
C19_2 C 0.6762(5) 0.9004(4) 0.6779(3)
H13_2 H 0.7059 0.9164 0.6917
C20_2 C 0.6374(5) 0.9108(5) 0.6824(3)
C21_2 C 0.6841(5) 0.9720(5) 0.7285(4)
H14_2 H 0.7136 0.9915 0.7136
H15_2 H 0.6889 0.9478 0.7423
H16_2 H 0.6800 0.9951 0.7442
C22_2 C 0.5921(5) 0.8878(4) 0.6620(3)
C23_2 C 0.5096(5) 0.8787(4) 0.6536(3)
H17_2 H 0.5149 0.8727 0.6293
H18_2 H 0.4958 0.9016 0.6543
H19_2 H 0.4858 0.8466 0.6647
C24_2 C 0.5860(4) 0.8533(4) 0.6362(3)
H20_2 H 0.5556 0.8372 0.6232
C25_2 C 0.6262(5) 0.8415(5) 0.6289(3)
C26_2 C 0.7540(5) 0.8710(6) 0.6692(3)
C27_2 C 0.7502(5) 0.8580(6) 0.7039(3)
H21_2 H 0.7178 0.8347 0.7129
C28_2 C 0.7909(5) 0.8769(6) 0.7264(4)
H22_2 H 0.7865 0.8651 0.7497
C29_2 C 0.8392(5) 0.9142(6) 0.7144(4)
C30_2 C 0.8852(5) 0.9394(6) 0.7387(4)
C31_2 C 0.8445(5) 0.9297(6) 0.6799(4)
H23_2 H 0.8766 0.9549 0.6714
C32_2 C 0.8031(5) 0.9083(6) 0.6577(4)
H24_2 H 0.8076 0.9189 0.6341
O10_2 O 0.3274(3) 0.7438(4) 0.50767(18)
O11_2 O 0.0719(3) 0.9479(5) 0.7708(2)
O12_2 O 0.2486(4) 0.6825(5) 0.49284(18)
O13_2 O 0.0322(8) 0.9619(9) 0.7239(3)
O14_2 O 0.2812(5) 0.9754(7) 0.5359(4)
O16_2 O 0.0989(3) 0.6554(4) 0.6717(2)
O17_2 O 0.0546(4) 0.6941(6) 0.7073(2)
C33_2 C 0.2775(4) 0.7217(6) 0.5081(3)
C34_2 C 0.2561(4) 0.7466(6) 0.5327(3)
C35_2 C 0.2866(4) 0.7845(6) 0.5569(3)
H25_2 H 0.3219 0.7966 0.5576
C36_2 C 0.2657(4) 0.8043(6) 0.5797(3)
H26_2 H 0.2863 0.8275 0.5971
C37_2 C 0.2145(4) 0.7905(6) 0.5774(3)
C38_2 C 0.1847(4) 0.7542(6) 0.5522(3)
H27_2 H 0.1500 0.7445 0.5501
C39_2 C 0.2036(4) 0.7328(6) 0.5309(3)
H28_2 H 0.1820 0.7082 0.5145
C40_2 C 0.1930(5) 0.8127(7) 0.6011(3)
C41_2 C 0.2057(5) 0.8666(7) 0.5956(4)
C42_2 C 0.2385(6) 0.8951(8) 0.5673(4)
H29_2 H 0.2521 0.8801 0.5524
C43_2 C 0.2509(7) 0.9471(10) 0.5617(5)
C44_2 C 0.3003(7) 0.9526(10) 0.5100(5)
H30_2 H 0.3189 0.9773 0.4917
H31_2 H 0.2718 0.9226 0.4998
H32_2 H 0.3229 0.9431 0.5217
C45_2 C 0.2352(7) 0.9716(10) 0.5856(5)
C47_2 C 0.2004(6) 0.9413(8) 0.6145(4)
H36_2 H 0.1891 0.9568 0.6308
C48_2 C 0.1847(6) 0.8900(8) 0.6173(4)
C49_2 C 0.1503(5) 0.8588(7) 0.6456(3)
C50_2 C 0.1378(5) 0.8074(7) 0.6499(3)
C51_2 C 0.0996(4) 0.7757(6) 0.6779(3)
H37_2 H 0.0836 0.7894 0.6917
C52_2 C 0.0892(5) 0.7265(7) 0.6824(3)
C53_2 C 0.0280(5) 0.7120(7) 0.7285(4)
H38_2 H 0.0085 0.7220 0.7136
H39_2 H 0.0522 0.7410 0.7423
H40_2 H 0.0049 0.6848 0.7442
C54_2 C 0.1122(4) 0.7042(6) 0.6620(3)
C55_2 C 0.1213(4) 0.6308(6) 0.6536(3)
H41_2 H 0.1273 0.6421 0.6293
H42_2 H 0.0984 0.5941 0.6543
H43_2 H 0.1534 0.6391 0.6647
C56_2 C 0.1467(4) 0.7326(6) 0.6362(3)
H44_2 H 0.1628 0.7183 0.6232
C57_2 C 0.1585(5) 0.7846(7) 0.6289(3)
C58_2 C 0.1290(6) 0.8829(8) 0.6692(3)
C59_2 C 0.1420(6) 0.8921(8) 0.7039(3)
H45_2 H 0.1653 0.8830 0.7129
C60_2 C 0.1231(6) 0.9139(8) 0.7264(4)
H46_2 H 0.1349 0.9213 0.7497
C61_2 C 0.0858(6) 0.9249(8) 0.7144(4)
C62_2 C 0.0606(6) 0.9457(8) 0.7387(4)
C63_2 C 0.0703(6) 0.9147(8) 0.6799(4)
H47_2 H 0.0451 0.9216 0.6714
C64_2 C 0.0917(6) 0.8947(8) 0.6577(4)
H48_2 H 0.0811 0.8886 0.6341
O18_2 O 0.2562(4) 0.5835(3) 0.50767(18)
O19_2 O 0.0521(5) 0.1239(4) 0.7708(2)
O20_2 O 0.3175(5) 0.5660(3) 0.49284(18)
O21_2 O 0.0381(9) 0.0702(4) 0.7239(3)
O22_2 O 0.0246(7) 0.3057(5) 0.5359(4)
O24_2 O 0.3446(4) 0.4434(3) 0.6717(2)
O25_2 O 0.3059(6) 0.3604(4) 0.7073(2)
C65_2 C 0.2783(6) 0.5557(4) 0.5081(3)
C66_2 C 0.2534(6) 0.5094(4) 0.5327(3)
C67_2 C 0.2155(6) 0.5020(4) 0.5569(3)
H49_2 H 0.2034 0.5252 0.5576
C68_2 C 0.1957(6) 0.4613(4) 0.5797(3)
H50_2 H 0.1725 0.4587 0.5971
C69_2 C 0.2095(6) 0.4239(4) 0.5774(3)
C70_2 C 0.2458(6) 0.4304(4) 0.5522(3)
H51_2 H 0.2555 0.4054 0.5501
C71_2 C 0.2672(6) 0.4707(4) 0.5309(3)
H52_2 H 0.2918 0.4737 0.5145
C72_2 C 0.1873(7) 0.3802(5) 0.6011(3)
C73_2 C 0.1334(7) 0.3390(5) 0.5956(4)
C74_2 C 0.1049(8) 0.3433(5) 0.5673(4)
H53_2 H 0.1199 0.3719 0.5524
C75_2 C 0.0529(10) 0.3037(7) 0.5617(5)
C76_2 C 0.0474(10) 0.3476(7) 0.5100(5)
H54_2 H 0.0227 0.3415 0.4917
H55_2 H 0.0774 0.3491 0.4998
H56_2 H 0.0569 0.3797 0.5217
C77_2 C 0.0284(10) 0.2635(7) 0.5856(5)
C79_2 C 0.0587(8) 0.2590(6) 0.6145(4)
H60_2 H 0.0432 0.2322 0.6308
C80_2 C 0.1100(8) 0.2946(5) 0.6173(4)
C81_2 C 0.1412(7) 0.2914(5) 0.6456(3)
C82_2 C 0.1926(7) 0.3303(5) 0.6499(3)
C83_2 C 0.2243(6) 0.3238(5) 0.6779(3)
H61_2 H 0.2106 0.2941 0.6917
C84_2 C 0.2735(7) 0.3626(5) 0.6824(3)
C85_2 C 0.2880(7) 0.3159(5) 0.7285(4)
H62_2 H 0.2780 0.2864 0.7136
H63_2 H 0.2590 0.3111 0.7423
H64_2 H 0.3152 0.3200 0.7442
C86_2 C 0.2958(6) 0.4079(5) 0.6620(3)
C87_2 C 0.3692(6) 0.4904(5) 0.6536(3)
H65_2 H 0.3579 0.4851 0.6293
H66_2 H 0.4059 0.5042 0.6543
H67_2 H 0.3609 0.5142 0.6647
C88_2 C 0.2674(6) 0.4140(4) 0.6362(3)
H68_2 H 0.2817 0.4444 0.6232
C89_2 C 0.2154(7) 0.3738(5) 0.6289(3)
C90_2 C 0.1171(8) 0.2460(5) 0.6692(3)
C91_2 C 0.1079(8) 0.2498(5) 0.7039(3)
H69_2 H 0.1170 0.2822 0.7129
C92_2 C 0.0861(8) 0.2091(5) 0.7264(4)
H70_2 H 0.0787 0.2135 0.7497
C93_2 C 0.0751(8) 0.1608(5) 0.7144(4)
C94_2 C 0.0543(8) 0.1148(5) 0.7387(4)
C95_2 C 0.0853(8) 0.1555(5) 0.6799(4)
H71_2 H 0.0784 0.1234 0.6714
C96_2 C 0.1053(8) 0.1969(5) 0.6577(4)
H72_2 H 0.1114 0.1924 0.6341
Zn7_5 Zn 1.0000 1.0000 0.73314(7)
Zn8_2 Zn 0.03406(5) 0.96455(5) 0.80449(3)
Zn9_2 Zn 0.03545(5) 0.06952(7) 0.80449(3)
Zn10_2 Zn 0.93048(7) 0.96594(5) 0.80449(3)
O23_2 O 0.9800(7) 0.2309(5) 0.5798(4)
C78_2 C 0.9536(11) 0.1866(7) 0.6038(6)
H57_2 H 0.9175 0.1680 0.5984
H58_2 H 0.9584 0.1986 0.6279
H59_2 H 0.9678 0.1643 0.6009
O8_3 O 0.2232(3) 0.2345(3) 0.0051(2)
O9_3 O 0.3062(4) 0.2788(4) 0.0407(2)
C19_3 C 0.3428(5) 0.2338(4) 0.0113(3)
H13_3 H 0.3725 0.2498 0.0251
C20_3 C 0.3040(5) 0.2442(5) 0.0158(3)
C21_3 C 0.3507(5) 0.3054(5) 0.0619(4)
H14_3 H 0.3802 0.3249 0.0470
H15_3 H 0.3555 0.2812 0.0757
H16_3 H 0.3466 0.3285 0.0776
C26_3 C 0.4206(5) 0.2044(6) 0.0026(3)
C27_3 C 0.4168(5) 0.1914(6) 0.0373(3)
H21_3 H 0.3844 0.1681 0.0463
C28_3 C 0.4575(5) 0.2103(6) 0.0598(4)
H22_3 H 0.4531 0.1985 0.0831
C29_3 C 0.5058(5) 0.2476(6) 0.0478(4)
C30_3 C 0.5518(5) 0.2728(6) 0.0721(4)
C31_3 C 0.5111(5) 0.2631(6) 0.0133(4)
H23_3 H 0.5432 0.2883 0.0048
O1_3 O 0.0831(3) 0.0060(3) 0.84101(18)
O3_3 O 0.1006(3) 0.0848(4) 0.82618(18)
O4_3 O 0.0000 -0.0000 0.7857(3)
O6_3 O 0.3609(5) 0.0522(5) 0.8693(4)
O7_3 O 0.4357(5) 0.0824(5) 0.9132(4)
C1_3 C 0.1109(4) 0.0559(4) 0.8415(3)
C2_3 C 0.1572(4) 0.0773(4) 0.8661(3)
C3_3 C 0.1646(4) 0.0468(4) 0.8903(3)
H1_3 H 0.1414 0.0115 0.8910
C4_3 C 0.2053(4) 0.0677(4) 0.9131(3)
H2_3 H 0.2079 0.0471 0.9305
C5_3 C 0.2427(4) 0.1189(4) 0.9108(3)
C6_3 C 0.2362(4) 0.1487(4) 0.8856(3)
H3_3 H 0.2612 0.1834 0.8835
C7_3 C 0.1959(4) 0.1298(4) 0.8643(3)
H4_3 H 0.1929 0.1514 0.8479
C8_3 C 0.2864(5) 0.1404(5) 0.9345(3)
C9_3 C 0.3276(5) 0.1277(5) 0.9290(4)
C10_3 C 0.3233(5) 0.0949(6) 0.9007(4)
H5_3 H 0.2947 0.0813 0.8858
C11_3 C 0.3629(7) 0.0825(7) 0.8951(5)
C12_3 C 0.3190(7) 0.0331(7) 0.8434(5)
H6_3 H 0.3251 0.0145 0.8251
H7_3 H 0.3175 0.0616 0.8332
H8_3 H 0.2869 0.0105 0.8551
C13_3 C 0.4031(7) 0.0982(7) 0.9190(5)
C14_3 C 0.4800(7) 0.1003(8) 0.9372(6)
H9_3 H 0.4986 0.0828 0.9318
H10_3 H 0.4680 0.0931 0.9613
H11_3 H 0.5023 0.1368 0.9343
C15_3 C 0.4076(6) 0.1330(6) 0.9479(4)
H12_3 H 0.4344 0.1443 0.9642
C16_3 C 0.3720(5) 0.1487(6) 0.9507(4)
C17_3 C 0.3752(5) 0.1831(5) 0.9790(3)
C18_3 C 0.3363(5) 0.1956(5) 0.9833(3)
C22_3 C 0.2587(5) 0.2212(4) 0.9954(3)
C23_3 C 0.1762(5) 0.2121(4) 0.9870(3)
H17_3 H 0.1815 0.2061 0.9627
H18_3 H 0.1624 0.2350 0.9877
H19_3 H 0.1524 0.1800 0.9981
C24_3 C 0.2526(4) 0.1867(4) 0.9696(3)
H20_3 H 0.2222 0.1706 0.9566
C25_3 C 0.2928(5) 0.1749(5) 0.9623(3)
C32_3 C 0.4697(5) 0.2417(6) 0.9911(4)
H24_3 H 0.4742 0.2523 0.9675
O4_4 O 0.0000 1.0000 0.7857(3)
C87_3 C 0.0358(6) 0.8238(5) 0.9870(3)
H65_3 H 0.0245 0.8185 0.9627
H66_3 H 0.0725 0.8376 0.9877
H67_3 H 0.0275 0.8476 0.9981
O17_3 O 0.7212(4) 0.0275(6) 0.0407(2)
C51_3 C 0.7662(4) 0.1091(6) 0.0113(3)
H37_3 H 0.7502 0.1228 0.0251
C52_3 C 0.7558(5) 0.0599(7) 0.0158(3)
C53_3 C 0.6946(5) 0.0454(7) 0.0619(4)
H38_3 H 0.6751 0.0554 0.0470
H39_3 H 0.7188 0.0744 0.0757
H40_3 H 0.6715 0.0182 0.0776
C58_3 C 0.7956(6) 0.2163(8) 0.0026(3)
C59_3 C 0.8086(6) 0.2255(8) 0.0373(3)
H45_3 H 0.8319 0.2164 0.0463
C60_3 C 0.7897(6) 0.2473(8) 0.0598(4)
H46_3 H 0.8015 0.2547 0.0831
C61_3 C 0.7524(6) 0.2583(8) 0.0478(4)
C62_3 C 0.7272(6) 0.2791(8) 0.0721(4)
C63_3 C 0.7369(6) 0.2481(8) 0.0133(4)
H47_3 H 0.7117 0.2550 0.0048
O4_5 O 1.0000 -0.0000 0.7857(3)
O10_3 O 0.9940(3) 0.0772(4) 0.84101(18)
O12_3 O 0.9152(4) 0.0159(5) 0.82618(18)
O14_3 O 0.9478(5) 0.3088(7) 0.8693(4)
O15_3 O 0.9176(5) 0.3534(7) 0.9132(4)
C33_3 C 0.9441(4) 0.0551(6) 0.8415(3)
C34_3 C 0.9227(4) 0.0800(6) 0.8661(3)
C35_3 C 0.9532(4) 0.1179(6) 0.8903(3)
H25_3 H 0.9885 0.1300 0.8910
C36_3 C 0.9323(4) 0.1377(6) 0.9131(3)
H26_3 H 0.9529 0.1609 0.9305
C37_3 C 0.8811(4) 0.1239(6) 0.9108(3)
C38_3 C 0.8513(4) 0.0876(6) 0.8856(3)
H27_3 H 0.8166 0.0779 0.8835
C39_3 C 0.8702(4) 0.0662(6) 0.8643(3)
H28_3 H 0.8486 0.0416 0.8479
C40_3 C 0.8596(5) 0.1461(7) 0.9345(3)
C41_3 C 0.8723(5) 0.2000(7) 0.9290(4)
C42_3 C 0.9051(6) 0.2285(8) 0.9007(4)
H29_3 H 0.9187 0.2135 0.8858
C43_3 C 0.9175(7) 0.2805(10) 0.8951(5)
C44_3 C 0.9669(7) 0.2860(10) 0.8434(5)
H30_3 H 0.9855 0.3107 0.8251
H31_3 H 0.9384 0.2560 0.8332
H32_3 H 0.9895 0.2765 0.8551
C45_3 C 0.9018(7) 0.3050(10) 0.9190(5)
C46_3 C 0.8997(8) 0.3798(11) 0.9372(6)
H33_3 H 0.9172 0.4159 0.9318
H34_3 H 0.9069 0.3750 0.9613
H35_3 H 0.8632 0.3656 0.9343
C47_3 C 0.8670(6) 0.2747(8) 0.9479(4)
H36_3 H 0.8557 0.2902 0.9642
C48_3 C 0.8513(6) 0.2234(8) 0.9507(4)
C49_3 C 0.8169(5) 0.1922(7) 0.9790(3)
C50_3 C 0.8044(5) 0.1408(7) 0.9833(3)
C54_3 C 0.7788(4) 0.0376(6) 0.9954(3)
C56_3 C 0.8133(4) 0.0660(6) 0.9696(3)
H44_3 H 0.8294 0.0517 0.9566
C57_3 C 0.8251(5) 0.1180(7) 0.9623(3)
C64_3 C 0.7583(6) 0.2281(8) 0.9911(4)
H48_3 H 0.7477 0.2220 0.9675
O16_3 O 0.7655(3) 0.9888(4) 0.0051(2)
O25_3 O 0.9725(6) 0.6938(4) 0.0407(2)
C83_3 C 0.8909(6) 0.6572(5) 0.0113(3)
H61_3 H 0.8772 0.6275 0.0251
C84_3 C 0.9401(7) 0.6960(5) 0.0158(3)
C85_3 C 0.9546(7) 0.6493(5) 0.0619(4)
H62_3 H 0.9446 0.6198 0.0470
H63_3 H 0.9256 0.6445 0.0757
H64_3 H 0.9818 0.6534 0.0776
C90_3 C 0.7837(8) 0.5794(5) 0.0026(3)
C91_3 C 0.7745(8) 0.5832(5) 0.0373(3)
H69_3 H 0.7836 0.6156 0.0463
C92_3 C 0.7527(8) 0.5425(5) 0.0598(4)
H70_3 H 0.7453 0.5469 0.0831
C93_3 C 0.7417(8) 0.4942(5) 0.0478(4)
C94_3 C 0.7209(8) 0.4482(5) 0.0721(4)
C95_3 C 0.7519(8) 0.4889(5) 0.0133(4)
H71_3 H 0.7450 0.4568 0.0048
O4_6 O 1.0000 1.0000 0.7857(3)
C55_3 C 0.7879(4) 0.9642(6) 0.9870(3)
H41_3 H 0.7939 0.9755 0.9627
H42_3 H 0.7650 0.9275 0.9877
H43_3 H 0.8200 0.9725 0.9981
O18_3 O 0.9228(4) 0.9169(3) 0.84101(18)
O20_3 O 0.9841(5) 0.8994(3) 0.82618(18)
O22_3 O 0.6912(7) 0.6391(5) 0.8693(4)
O23_3 O 0.6466(7) 0.5643(5) 0.9132(4)
C65_3 C 0.9449(6) 0.8891(4) 0.8415(3)
C66_3 C 0.9200(6) 0.8428(4) 0.8661(3)
C67_3 C 0.8821(6) 0.8354(4) 0.8903(3)
H49_3 H 0.8700 0.8586 0.8910
C68_3 C 0.8623(6) 0.7947(4) 0.9131(3)
H50_3 H 0.8391 0.7921 0.9305
C69_3 C 0.8761(6) 0.7573(4) 0.9108(3)
C70_3 C 0.9124(6) 0.7638(4) 0.8856(3)
H51_3 H 0.9221 0.7388 0.8835
C71_3 C 0.9338(6) 0.8041(4) 0.8643(3)
H52_3 H 0.9584 0.8071 0.8479
C72_3 C 0.8539(7) 0.7136(5) 0.9345(3)
C73_3 C 0.8000(7) 0.6724(5) 0.9290(4)
C74_3 C 0.7715(8) 0.6767(5) 0.9007(4)
H53_3 H 0.7865 0.7053 0.8858
C75_3 C 0.7195(10) 0.6371(7) 0.8951(5)
C76_3 C 0.7140(10) 0.6810(7) 0.8434(5)
H54_3 H 0.6893 0.6749 0.8251
H55_3 H 0.7440 0.6825 0.8332
H56_3 H 0.7235 0.7131 0.8551
C77_3 C 0.6950(10) 0.5969(7) 0.9190(5)
C78_3 C 0.6202(11) 0.5200(7) 0.9372(6)
H57_3 H 0.5841 0.5014 0.9318
H58_3 H 0.6250 0.5320 0.9613
H59_3 H 0.6344 0.4977 0.9343
C79_3 C 0.7253(8) 0.5924(6) 0.9479(4)
H60_3 H 0.7098 0.5656 0.9642
C80_3 C 0.7766(8) 0.6280(5) 0.9507(4)
C81_3 C 0.8078(7) 0.6248(5) 0.9790(3)
C82_3 C 0.8592(7) 0.6637(5) 0.9833(3)
C86_3 C 0.9624(6) 0.7413(5) 0.9954(3)
C88_3 C 0.9340(6) 0.7474(4) 0.9696(3)
H68_3 H 0.9483 0.7778 0.9566
C89_3 C 0.8820(7) 0.7072(5) 0.9623(3)
C96_3 C 0.7719(8) 0.5303(5) 0.9911(4)
H72_3 H 0.7780 0.5258 0.9675
O24_3 O 0.0112(4) 0.7768(3) 0.0051(2)
O19_3 O 0.6146(5) 0.2094(4) 0.5625(2)
O21_3 O 0.6286(9) 0.2631(4) 0.6094(3)
O22_4 O 0.6421(7) 0.0276(5) 0.7974(4)
O23_4 O 0.6867(7) 0.1024(5) 0.7535(4)
C75_4 C 0.6138(10) 0.0296(7) 0.7716(5)
C77_4 C 0.6383(10) 0.0698(7) 0.7477(5)
C78_4 C 0.7131(11) 0.1467(7) 0.7295(6)
H57_4 H 0.7492 0.1653 0.7349
H58_4 H 0.7083 0.1347 0.7054
H59_4 H 0.6989 0.1690 0.7324
C79_4 C 0.6080(8) 0.0743(6) 0.7188(4)
H60_4 H 0.6235 0.1011 0.7025
C80_4 C 0.5567(8) 0.0387(5) 0.7160(4)
C81_4 C 0.5255(7) 0.0419(5) 0.6877(3)
C82_4 C 0.4741(7) 0.0030(5) 0.6834(3)
C83_4 C 0.4424(6) 0.0095(5) 0.6554(3)
H61_4 H 0.4561 0.0392 0.6416
C85_4 C 0.3787(7) 0.0174(5) 0.6048(4)
H62_4 H 0.3887 0.0469 0.6197
H63_4 H 0.4077 0.0222 0.5910
H64_4 H 0.3515 0.0133 0.5891
C90_4 C 0.5496(8) 0.0873(5) 0.6641(3)
C91_4 C 0.5588(8) 0.0835(5) 0.6294(3)
H69_4 H 0.5497 0.0511 0.6204
C92_4 C 0.5806(8) 0.1242(5) 0.6069(4)
H70_4 H 0.5880 0.1198 0.5836
C93_4 C 0.5916(8) 0.1725(5) 0.6189(4)
C94_4 C 0.6124(8) 0.2185(5) 0.5946(4)
C95_4 C 0.5814(8) 0.1778(5) 0.6534(4)
H71_4 H 0.5883 0.2099 0.6619
C96_4 C 0.5614(8) 0.1364(5) 0.6756(4)
H72_4 H 0.5553 0.1409 0.6992
Zn5 Zn 0.6666 0.3334 0.60020(7)
Zn9_3 Zn 0.63121(5) 0.26382(7) 0.52885(3)
Zn1_2 Zn 0.3333 0.6667 0.93353(7)
Zn2_2 Zn 0.29927(5) 0.70212(5) 0.86218(3)
O1_4 O 0.2502(3) 0.6607(3) 0.82566(18)
O3_4 O 0.2327(3) 0.5819(4) 0.84049(18)
O4_7 O 0.3333 0.6667 0.8810(3)
O8_4 O 0.1101(3) 0.4322(3) 0.6616(2)
O9_4 O 0.0271(4) 0.3879(4) 0.6260(2)
C1_4 C 0.2224(4) 0.6108(4) 0.8252(3)
C2_4 C 0.1761(4) 0.5894(4) 0.8006(3)
C3_4 C 0.1687(4) 0.6199(4) 0.7764(3)
H1_4 H 0.1919 0.6552 0.7757
C4_4 C 0.1280(4) 0.5990(4) 0.7536(3)
H2_4 H 0.1254 0.6196 0.7362
C5_4 C 0.0906(4) 0.5478(4) 0.7559(3)
C6_4 C 0.0971(4) 0.5180(4) 0.7811(3)
H3_4 H 0.0721 0.4833 0.7832
C7_4 C 0.1374(4) 0.5369(4) 0.8024(3)
H4_4 H 0.1404 0.5153 0.8188
C8_4 C 0.0469(5) 0.5263(5) 0.7322(3)
C9_4 C 0.0057(5) 0.5390(5) 0.7377(4)
C10_4 C 0.0100(5) 0.5718(6) 0.7660(4)
H5_4 H 0.0386 0.5854 0.7809
C12_4 C 0.0143(7) 0.6336(7) 0.8233(5)
H6_4 H 0.0082 0.6522 0.8416
H7_4 H 0.0158 0.6051 0.8335
H8_4 H 0.0464 0.6562 0.8116
C20_4 C 0.0293(5) 0.4225(5) 0.6509(3)
C22_4 C 0.0746(5) 0.4455(4) 0.6713(3)
C23_4 C 0.1571(5) 0.4546(4) 0.6797(3)
H17_4 H 0.1518 0.4606 0.7040
H18_4 H 0.1709 0.4317 0.6790
H19_4 H 0.1809 0.4867 0.6686
C24_4 C 0.0807(4) 0.4800(4) 0.6971(3)
H20_4 H 0.1111 0.4961 0.7101
C25_4 C 0.0405(5) 0.4918(5) 0.7044(3)
Zn3_2 Zn 0.29788(5) 0.59715(7) 0.86218(3)
O10_4 O 0.3393(3) 0.5895(4) 0.82566(18)
O11_3 O 0.5948(3) 0.3854(5) 0.5625(2)
O12_4 O 0.4181(4) 0.6508(5) 0.84049(18)
O13_3 O 0.6345(8) 0.3714(9) 0.6094(3)
O14_4 O 0.3855(5) 0.3579(7) 0.7974(4)
O15_4 O 0.4157(5) 0.3133(7) 0.7535(4)
O16_4 O 0.5678(3) 0.6779(4) 0.6616(2)
O17_4 O 0.6121(4) 0.6392(6) 0.6260(2)
C33_4 C 0.3892(4) 0.6116(6) 0.8252(3)
C34_4 C 0.4106(4) 0.5867(6) 0.8006(3)
C35_4 C 0.3801(4) 0.5488(6) 0.7764(3)
H25_4 H 0.3448 0.5367 0.7757
C36_4 C 0.4010(4) 0.5290(6) 0.7536(3)
H26_4 H 0.3804 0.5058 0.7362
C37_4 C 0.4522(4) 0.5428(6) 0.7559(3)
C38_4 C 0.4820(4) 0.5791(6) 0.7811(3)
H27_4 H 0.5167 0.5888 0.7832
C39_4 C 0.4631(4) 0.6005(6) 0.8024(3)
H28_4 H 0.4847 0.6251 0.8188
C40_4 C 0.4737(5) 0.5206(7) 0.7322(3)
C41_4 C 0.4610(5) 0.4667(7) 0.7377(4)
C42_4 C 0.4282(6) 0.4382(8) 0.7660(4)
H29_4 H 0.4146 0.4532 0.7809
C43_4 C 0.4158(7) 0.3862(10) 0.7716(5)
C44_4 C 0.3664(7) 0.3807(10) 0.8233(5)
H30_4 H 0.3478 0.3560 0.8416
H31_4 H 0.3949 0.4107 0.8335
H32_4 H 0.3438 0.3902 0.8116
C45_4 C 0.4315(7) 0.3617(10) 0.7477(5)
C46_4 C 0.4336(8) 0.2869(11) 0.7295(6)
H33_4 H 0.4161 0.2508 0.7349
H34_4 H 0.4264 0.2917 0.7054
H35_4 H 0.4701 0.3011 0.7324
C47_4 C 0.4663(6) 0.3920(8) 0.7188(4)
H36_4 H 0.4776 0.3765 0.7025
C48_4 C 0.4820(6) 0.4433(8) 0.7160(4)
C49_4 C 0.5164(5) 0.4745(7) 0.6877(3)
C50_4 C 0.5289(5) 0.5259(7) 0.6834(3)
C51_4 C 0.5671(4) 0.5576(6) 0.6554(3)
H37_4 H 0.5831 0.5439 0.6416
C52_4 C 0.5775(5) 0.6068(7) 0.6509(3)
C53_4 C 0.6387(5) 0.6213(7) 0.6048(4)
H38_4 H 0.6582 0.6113 0.6197
H39_4 H 0.6145 0.5923 0.5910
H40_4 H 0.6618 0.6485 0.5891
C54_4 C 0.5545(4) 0.6291(6) 0.6713(3)
C55_4 C 0.5454(4) 0.7025(6) 0.6797(3)
H41_4 H 0.5394 0.6912 0.7040
H42_4 H 0.5683 0.7392 0.6790
H43_4 H 0.5133 0.6942 0.6686
C56_4 C 0.5200(4) 0.6007(6) 0.6971(3)
H44_4 H 0.5039 0.6150 0.7101
C57_4 C 0.5082(5) 0.5487(7) 0.7044(3)
C58_4 C 0.5377(6) 0.4504(8) 0.6641(3)
C59_4 C 0.5247(6) 0.4412(8) 0.6294(3)
H45_4 H 0.5014 0.4503 0.6204
C60_4 C 0.5436(6) 0.4194(8) 0.6069(4)
H46_4 H 0.5318 0.4120 0.5836
C61_4 C 0.5809(6) 0.4084(8) 0.6189(4)
C62_4 C 0.6061(6) 0.3876(8) 0.5946(4)
C63_4 C 0.5964(6) 0.4186(8) 0.6534(4)
H47_4 H 0.6216 0.4117 0.6619
C64_4 C 0.5750(6) 0.4386(8) 0.6756(4)
H48_4 H 0.5856 0.4447 0.6992
Zn4_2 Zn 0.40285(7) 0.70073(5) 0.86218(3)
O18_4 O 0.4105(4) 0.7498(3) 0.82566(18)
O20_4 O 0.3492(5) 0.7673(3) 0.84049(18)
O24_4 O 0.3221(4) 0.8899(3) 0.6616(2)
O25_4 O 0.3608(6) 0.9729(4) 0.6260(2)
C65_4 C 0.3884(6) 0.7776(4) 0.8252(3)
C66_4 C 0.4133(6) 0.8239(4) 0.8006(3)
C67_4 C 0.4512(6) 0.8313(4) 0.7764(3)
H49_4 H 0.4633 0.8081 0.7757
C68_4 C 0.4710(6) 0.8720(4) 0.7536(3)
H50_4 H 0.4942 0.8746 0.7362
C69_4 C 0.4572(6) 0.9094(4) 0.7559(3)
C70_4 C 0.4209(6) 0.9029(4) 0.7811(3)
H51_4 H 0.4112 0.9279 0.7832
C71_4 C 0.3995(6) 0.8626(4) 0.8024(3)
H52_4 H 0.3749 0.8596 0.8188
C72_4 C 0.4794(7) 0.9531(5) 0.7322(3)
C73_4 C 0.5333(7) 0.9943(5) 0.7377(4)
C74_4 C 0.5618(8) 0.9900(5) 0.7660(4)
H53_4 H 0.5468 0.9614 0.7809
C76_4 C 0.6193(10) 0.9857(7) 0.8233(5)
H54_4 H 0.6440 0.9918 0.8416
H55_4 H 0.5893 0.9842 0.8335
H56_4 H 0.6098 0.9536 0.8116
C84_4 C 0.3932(7) 0.9707(5) 0.6509(3)
C86_4 C 0.3709(6) 0.9254(5) 0.6713(3)
C87_4 C 0.2975(6) 0.8429(5) 0.6797(3)
H65_4 H 0.3088 0.8482 0.7040
H66_4 H 0.2608 0.8291 0.6790
H67_4 H 0.3058 0.8191 0.6686
C88_4 C 0.3993(6) 0.9193(4) 0.6971(3)
H68_4 H 0.3850 0.8889 0.7101
C89_4 C 0.4513(7) 0.9595(5) 0.7044(3)
Zn8_3 Zn 0.63260(5) 0.36879(5) 0.52885(3)
O26_2 O 0.4573(4) 0.7385(3) 0.8958(2)
O27_2 O 0.2615(3) 0.7187(5) 0.8958(2)
O28_2 O 0.2813(5) 0.5427(4) 0.8958(2)
O29_2 O 0.4036(4) 0.6988(8) 0.9427(3)
O30_2 O 0.3012(8) 0.7047(9) 0.9427(3)
O31_2 O 0.2953(9) 0.5964(4) 0.9427(3)
O2_3 O 0.7906(4) 0.4052(3) 0.5625(2)
O5_3 O 0.7369(4) 0.3655(8) 0.6094(3)
O6_4 O 0.9724(5) 0.6145(5) 0.7974(4)
O7_4 O 0.8976(5) 0.5843(5) 0.7535(4)
C11_4 C 0.9704(7) 0.5842(7) 0.7716(5)
C13_4 C 0.9302(7) 0.5685(7) 0.7477(5)
C14_4 C 0.8533(7) 0.5664(8) 0.7295(6)
H9_4 H 0.8347 0.5839 0.7349
H10_4 H 0.8653 0.5736 0.7054
H11_4 H 0.8310 0.5299 0.7324
C15_4 C 0.9257(6) 0.5337(6) 0.7188(4)
H12_4 H 0.8989 0.5224 0.7025
C16_4 C 0.9613(5) 0.5180(6) 0.7160(4)
C17_4 C 0.9581(5) 0.4836(5) 0.6877(3)
C18_4 C 0.9970(5) 0.4711(5) 0.6834(3)
C19_4 C 0.9905(5) 0.4329(4) 0.6554(3)
H13_4 H 0.9608 0.4169 0.6416
C21_4 C 0.9826(5) 0.3613(5) 0.6048(4)
H14_4 H 0.9531 0.3418 0.6197
H15_4 H 0.9778 0.3855 0.5910
H16_4 H 0.9867 0.3382 0.5891
C26_4 C 0.9127(5) 0.4623(6) 0.6641(3)
C27_4 C 0.9165(5) 0.4753(6) 0.6294(3)
H21_4 H 0.9489 0.4986 0.6204
C28_4 C 0.8758(5) 0.4564(6) 0.6069(4)
H22_4 H 0.8802 0.4682 0.5836
C29_4 C 0.8275(5) 0.4191(6) 0.6189(4)
C30_4 C 0.7815(5) 0.3939(6) 0.5946(4)
C31_4 C 0.8222(5) 0.4036(6) 0.6534(4)
H23_4 H 0.7901 0.3784 0.6619
C32_4 C 0.8636(5) 0.4250(6) 0.6756(4)
H24_4 H 0.8591 0.4144 0.6992
Zn10_3 Zn 0.73618(7) 0.36740(5) 0.52885(3)
Zn5_2 Zn -0.0000 0.0000 0.26686(7)
O23_5 O 0.0200(7) 0.7691(5) 0.4202(4)
C78_5 C 0.0464(11) 0.8134(7) 0.3962(6)
H57_5 H 0.0825 0.8320 0.4016
H58_5 H 0.0416 0.8014 0.3721
H59_5 H 0.0322 0.8357 0.3991
Zn5_3 Zn -0.0000 1.0000 0.26686(7)
Zn5_4 Zn 1.0000 0.0000 0.26686(7)
O1_5 O 0.5835(3) 0.3274(3) 0.49233(18)
O2_4 O 0.1239(4) 0.0719(3) 0.2292(2)
O3_5 O 0.5660(3) 0.2486(4) 0.50716(18)
O4_8 O 0.6666 0.3334 0.5477(3)
O5_4 O 0.0702(4) 0.0322(8) 0.2761(3)
O6_5 O 0.3057(5) 0.2812(5) 0.4641(4)
O7_5 O 0.2309(5) 0.2510(5) 0.4202(4)
O8_5 O 0.4434(3) 0.0989(3) 0.3283(2)
O9_5 O 0.3604(4) 0.0546(4) 0.2927(2)
C1_5 C 0.5557(4) 0.2775(4) 0.4919(3)
C2_5 C 0.5094(4) 0.2561(4) 0.4673(3)
C3_5 C 0.5020(4) 0.2866(4) 0.4431(3)
H1_5 H 0.5252 0.3219 0.4424
C4_5 C 0.4613(4) 0.2657(4) 0.4203(3)
H2_5 H 0.4587 0.2863 0.4029
C5_5 C 0.4239(4) 0.2145(4) 0.4226(3)
C6_5 C 0.4304(4) 0.1847(4) 0.4478(3)
H3_5 H 0.4054 0.1500 0.4499
C7_5 C 0.4707(4) 0.2036(4) 0.4691(3)
H4_5 H 0.4737 0.1820 0.4855
C8_5 C 0.3802(5) 0.1930(5) 0.3989(3)
C9_5 C 0.3390(5) 0.2057(5) 0.4044(4)
C10_5 C 0.3433(5) 0.2385(6) 0.4327(4)
H5_5 H 0.3719 0.2521 0.4476
C11_5 C 0.3037(7) 0.2509(7) 0.4383(5)
C12_5 C 0.3476(7) 0.3003(7) 0.4900(5)
H6_5 H 0.3415 0.3189 0.5083
H7_5 H 0.3491 0.2718 0.5002
H8_5 H 0.3797 0.3229 0.4783
C13_5 C 0.2635(7) 0.2352(7) 0.4144(5)
C14_5 C 0.1866(7) 0.2331(8) 0.3962(6)
H9_5 H 0.1680 0.2506 0.4016
H10_5 H 0.1986 0.2403 0.3721
H11_5 H 0.1643 0.1966 0.3991
C15_5 C 0.2590(6) 0.2004(6) 0.3855(4)
H12_5 H 0.2322 0.1891 0.3692
C16_5 C 0.2946(5) 0.1847(6) 0.3827(4)
C17_5 C 0.2914(5) 0.1503(5) 0.3544(3)
C18_5 C 0.3303(5) 0.1378(5) 0.3501(3)
C19_5 C 0.3238(5) 0.0996(4) 0.3221(3)
H13_5 H 0.2941 0.0836 0.3083
C20_5 C 0.3626(5) 0.0892(5) 0.3176(3)
C21_5 C 0.3159(5) 0.0280(5) 0.2715(4)
H14_5 H 0.2864 0.0085 0.2864
H15_5 H 0.3111 0.0522 0.2577
H16_5 H 0.3200 0.0049 0.2558
C22_5 C 0.4079(5) 0.1122(4) 0.3380(3)
C23_5 C 0.4904(5) 0.1213(4) 0.3464(3)
H17_5 H 0.4851 0.1273 0.3707
H18_5 H 0.5042 0.0984 0.3457
H19_5 H 0.5142 0.1534 0.3353
C24_5 C 0.4140(4) 0.1467(4) 0.3638(3)
H20_5 H 0.4444 0.1628 0.3768
C25_5 C 0.3738(5) 0.1585(5) 0.3711(3)
C26_5 C 0.2460(5) 0.1290(6) 0.3308(3)
C27_5 C 0.2498(5) 0.1420(6) 0.2961(3)
H21_5 H 0.2822 0.1653 0.2871
C28_5 C 0.2091(5) 0.1231(6) 0.2736(4)
H22_5 H 0.2135 0.1349 0.2503
C29_5 C 0.1608(5) 0.0858(6) 0.2856(4)
C30_5 C 0.1148(5) 0.0606(6) 0.2613(4)
C31_5 C 0.1555(5) 0.0703(6) 0.3201(4)
H23_5 H 0.1234 0.0451 0.3286
C32_5 C 0.1969(5) 0.0917(6) 0.3423(4)
H24_5 H 0.1924 0.0811 0.3659
O10_5 O 0.6726(3) 0.2562(4) 0.49233(18)
O11_4 O 0.9281(3) 0.0521(5) 0.2292(2)
O12_5 O 0.7514(4) 0.3175(5) 0.50716(18)
O13_4 O 0.9678(8) 0.0381(9) 0.2761(3)
O14_5 O 0.7188(5) 0.0246(7) 0.4641(4)
O16_5 O 0.9011(3) 0.3446(4) 0.3283(2)
O17_5 O 0.9454(4) 0.3059(6) 0.2927(2)
C33_5 C 0.7225(4) 0.2783(6) 0.4919(3)
C34_5 C 0.7439(4) 0.2534(6) 0.4673(3)
C35_5 C 0.7134(4) 0.2155(6) 0.4431(3)
H25_5 H 0.6781 0.2034 0.4424
C36_5 C 0.7343(4) 0.1957(6) 0.4203(3)
H26_5 H 0.7137 0.1725 0.4029
C37_5 C 0.7855(4) 0.2095(6) 0.4226(3)
C38_5 C 0.8153(4) 0.2458(6) 0.4478(3)
H27_5 H 0.8500 0.2555 0.4499
C39_5 C 0.7964(4) 0.2672(6) 0.4691(3)
H28_5 H 0.8180 0.2918 0.4855
C40_5 C 0.8070(5) 0.1873(7) 0.3989(3)
C41_5 C 0.7943(5) 0.1334(7) 0.4044(4)
C42_5 C 0.7615(6) 0.1049(8) 0.4327(4)
H29_5 H 0.7479 0.1199 0.4476
C43_5 C 0.7491(7) 0.0529(10) 0.4383(5)
C44_5 C 0.6997(7) 0.0474(10) 0.4900(5)
H30_5 H 0.6811 0.0227 0.5083
H31_5 H 0.7282 0.0774 0.5002
H32_5 H 0.6771 0.0569 0.4783
C45_5 C 0.7648(7) 0.0284(10) 0.4144(5)
C47_5 C 0.7996(6) 0.0587(8) 0.3855(4)
H36_5 H 0.8109 0.0432 0.3692
C48_5 C 0.8153(6) 0.1100(8) 0.3827(4)
C49_5 C 0.8497(5) 0.1412(7) 0.3544(3)
C50_5 C 0.8622(5) 0.1926(7) 0.3501(3)
C51_5 C 0.9004(4) 0.2243(6) 0.3221(3)
H37_5 H 0.9164 0.2106 0.3083
C52_5 C 0.9108(5) 0.2735(7) 0.3176(3)
C53_5 C 0.9720(5) 0.2880(7) 0.2715(4)
H38_5 H 0.9915 0.2780 0.2864
H39_5 H 0.9478 0.2590 0.2577
H40_5 H 0.9951 0.3152 0.2558
C54_5 C 0.8878(4) 0.2958(6) 0.3380(3)
C55_5 C 0.8787(4) 0.3692(6) 0.3464(3)
H41_5 H 0.8727 0.3579 0.3707
H42_5 H 0.9016 0.4059 0.3457
H43_5 H 0.8466 0.3609 0.3353
C56_5 C 0.8533(4) 0.2674(6) 0.3638(3)
H44_5 H 0.8372 0.2817 0.3768
C57_5 C 0.8415(5) 0.2154(7) 0.3711(3)
C58_5 C 0.8710(6) 0.1171(8) 0.3308(3)
C59_5 C 0.8580(6) 0.1079(8) 0.2961(3)
H45_5 H 0.8347 0.1170 0.2871
C60_5 C 0.8769(6) 0.0861(8) 0.2736(4)
H46_5 H 0.8651 0.0787 0.2503
C61_5 C 0.9142(6) 0.0751(8) 0.2856(4)
C62_5 C 0.9394(6) 0.0543(8) 0.2613(4)
C63_5 C 0.9297(6) 0.0853(8) 0.3201(4)
H47_5 H 0.9549 0.0784 0.3286
C64_5 C 0.9083(6) 0.1053(8) 0.3423(4)
H48_5 H 0.9189 0.1114 0.3659
O18_5 O 0.7438(4) 0.4165(3) 0.49233(18)
O19_4 O 0.9479(5) 0.8761(4) 0.2292(2)
O20_5 O 0.6825(5) 0.4340(3) 0.50716(18)
O21_4 O 0.9619(9) 0.9298(4) 0.2761(3)
O22_5 O 0.9754(7) 0.6943(5) 0.4641(4)
O24_5 O 0.6554(4) 0.5566(3) 0.3283(2)
O25_5 O 0.6941(6) 0.6396(4) 0.2927(2)
C65_5 C 0.7217(6) 0.4443(4) 0.4919(3)
C66_5 C 0.7466(6) 0.4906(4) 0.4673(3)
C67_5 C 0.7845(6) 0.4980(4) 0.4431(3)
H49_5 H 0.7966 0.4748 0.4424
C68_5 C 0.8043(6) 0.5387(4) 0.4203(3)
H50_5 H 0.8275 0.5413 0.4029
C69_5 C 0.7905(6) 0.5761(4) 0.4226(3)
C70_5 C 0.7542(6) 0.5696(4) 0.4478(3)
H51_5 H 0.7445 0.5946 0.4499
C71_5 C 0.7328(6) 0.5293(4) 0.4691(3)
H52_5 H 0.7082 0.5263 0.4855
C72_5 C 0.8127(7) 0.6198(5) 0.3989(3)
C73_5 C 0.8666(7) 0.6610(5) 0.4044(4)
C74_5 C 0.8951(8) 0.6567(5) 0.4327(4)
H53_5 H 0.8801 0.6281 0.4476
C75_5 C 0.9471(10) 0.6963(7) 0.4383(5)
C76_5 C 0.9526(10) 0.6524(7) 0.4900(5)
H54_5 H 0.9773 0.6585 0.5083
H55_5 H 0.9226 0.6509 0.5002
H56_5 H 0.9431 0.6203 0.4783
C77_5 C 0.9716(10) 0.7365(7) 0.4144(5)
C79_5 C 0.9413(8) 0.7410(6) 0.3855(4)
H60_5 H 0.9568 0.7678 0.3692
C80_5 C 0.8900(8) 0.7054(5) 0.3827(4)
C81_5 C 0.8588(7) 0.7086(5) 0.3544(3)
C82_5 C 0.8074(7) 0.6697(5) 0.3501(3)
C83_5 C 0.7757(6) 0.6762(5) 0.3221(3)
H61_5 H 0.7894 0.7059 0.3083
C84_5 C 0.7265(7) 0.6374(5) 0.3176(3)
C85_5 C 0.7120(7) 0.6841(5) 0.2715(4)
H62_5 H 0.7220 0.7136 0.2864
H63_5 H 0.7410 0.6889 0.2577
H64_5 H 0.6848 0.6800 0.2558
C86_5 C 0.7042(6) 0.5921(5) 0.3380(3)
C87_5 C 0.6308(6) 0.5096(5) 0.3464(3)
H65_5 H 0.6421 0.5149 0.3707
H66_5 H 0.5941 0.4958 0.3457
H67_5 H 0.6391 0.4858 0.3353
C88_5 C 0.7326(6) 0.5860(4) 0.3638(3)
H68_5 H 0.7183 0.5556 0.3768
C89_5 C 0.7846(7) 0.6262(5) 0.3711(3)
C90_5 C 0.8829(8) 0.7540(5) 0.3308(3)
C91_5 C 0.8921(8) 0.7502(5) 0.2961(3)
H69_5 H 0.8830 0.7178 0.2871
C92_5 C 0.9139(8) 0.7909(5) 0.2736(4)
H70_5 H 0.9213 0.7865 0.2503
C93_5 C 0.9249(8) 0.8392(5) 0.2856(4)
C94_5 C 0.9457(8) 0.8852(5) 0.2613(4)
C95_5 C 0.9147(8) 0.8445(5) 0.3201(4)
H71_5 H 0.9216 0.8766 0.3286
C96_5 C 0.8947(8) 0.8031(5) 0.3423(4)
H72_5 H 0.8886 0.8076 0.3659
Zn5_5 Zn 1.0000 1.0000 0.26686(7)
Zn8_4 Zn 0.96594(5) 0.03545(5) 0.19551(3)
Zn9_4 Zn 0.96455(5) 0.93048(7) 0.19551(3)
Zn10_4 Zn 0.06952(7) 0.03406(5) 0.19551(3)
O15_5 O 0.7490(5) 0.9800(7) 0.4202(4)
C46_5 C 0.7669(8) 0.9536(11) 0.3962(6)
H33_5 H 0.7494 0.9175 0.4016
H34_5 H 0.7597 0.9584 0.3721
H35_5 H 0.8034 0.9678 0.3991
O4_9 O -0.0000 0.0000 0.2143(3)
C55_6 C 0.2121(4) 0.0358(6) 0.0130(3)
H41_6 H 0.2061 0.0245 0.0373
H42_6 H 0.2350 0.0725 0.0123
H43_6 H 0.1800 0.0275 0.0019
O18_6 O 0.0772(4) 0.0831(3) 0.15899(18)
O20_6 O 0.0159(5) 0.1006(3) 0.17382(18)
O22_6 O 0.3088(7) 0.3609(5) 0.1307(4)
O23_6 O 0.3534(7) 0.4357(5) 0.0868(4)
C65_6 C 0.0551(6) 0.1109(4) 0.1585(3)
C66_6 C 0.0800(6) 0.1572(4) 0.1339(3)
C67_6 C 0.1179(6) 0.1646(4) 0.1097(3)
H49_6 H 0.1300 0.1414 0.1090
C68_6 C 0.1377(6) 0.2053(4) 0.0869(3)
H50_6 H 0.1609 0.2079 0.0695
C69_6 C 0.1239(6) 0.2427(4) 0.0892(3)
C70_6 C 0.0876(6) 0.2362(4) 0.1144(3)
H51_6 H 0.0779 0.2612 0.1165
C71_6 C 0.0662(6) 0.1959(4) 0.1357(3)
H52_6 H 0.0416 0.1929 0.1521
C72_6 C 0.1461(7) 0.2864(5) 0.0655(3)
C73_6 C 0.2000(7) 0.3276(5) 0.0710(4)
C74_6 C 0.2285(8) 0.3233(5) 0.0993(4)
H53_6 H 0.2135 0.2947 0.1142
C75_6 C 0.2805(10) 0.3629(7) 0.1049(5)
C76_6 C 0.2860(10) 0.3190(7) 0.1566(5)
H54_6 H 0.3107 0.3251 0.1749
H55_6 H 0.2560 0.3175 0.1668
H56_6 H 0.2765 0.2869 0.1449
C77_6 C 0.3050(10) 0.4031(7) 0.0810(5)
C78_6 C 0.3798(11) 0.4800(7) 0.0628(6)
H57_6 H 0.4159 0.4986 0.0682
H58_6 H 0.3750 0.4680 0.0387
H59_6 H 0.3656 0.5023 0.0657
C79_6 C 0.2747(8) 0.4076(6) 0.0521(4)
H60_6 H 0.2902 0.4344 0.0358
C80_6 C 0.2234(8) 0.3720(5) 0.0493(4)
C81_6 C 0.1922(7) 0.3752(5) 0.0210(3)
C82_6 C 0.1408(7) 0.3363(5) 0.0167(3)
C86_6 C 0.0376(6) 0.2587(5) 0.0046(3)
C88_6 C 0.0660(6) 0.2526(4) 0.0304(3)
H68_6 H 0.0517 0.2222 0.0434
C89_6 C 0.1180(7) 0.2928(5) 0.0377(3)
C96_6 C 0.2281(8) 0.4697(5) 0.0089(4)
H72_6 H 0.2220 0.4742 0.0325
O16_6 O 0.2345(3) 0.0112(4) 0.9949(2)
O25_6 O 0.0275(6) 0.3062(4) 0.9593(2)
C83_6 C 0.1091(6) 0.3428(5) 0.9887(3)
H61_6 H 0.1228 0.3725 0.9749
C84_6 C 0.0599(7) 0.3040(5) 0.9842(3)
C85_6 C 0.0454(7) 0.3507(5) 0.9381(4)
H62_6 H 0.0554 0.3802 0.9530
H63_6 H 0.0744 0.3555 0.9243
H64_6 H 0.0182 0.3466 0.9224
C90_6 C 0.2163(8) 0.4206(5) 0.9974(3)
C91_6 C 0.2255(8) 0.4168(5) 0.9627(3)
H69_6 H 0.2164 0.3844 0.9537
C92_6 C 0.2473(8) 0.4575(5) 0.9402(4)
H70_6 H 0.2547 0.4531 0.9169
C93_6 C 0.2583(8) 0.5058(5) 0.9522(4)
C94_6 C 0.2791(8) 0.5518(5) 0.9279(4)
C95_6 C 0.2481(8) 0.5111(5) 0.9867(4)
H71_6 H 0.2550 0.5432 0.9952
O4_10 O -0.0000 1.0000 0.2143(3)
O10_6 O 0.0060(3) 0.9228(4) 0.15899(18)
O12_6 O 0.0848(4) 0.9841(5) 0.17382(18)
O14_6 O 0.0522(5) 0.6912(7) 0.1307(4)
O15_6 O 0.0824(5) 0.6466(7) 0.0868(4)
C33_6 C 0.0559(4) 0.9449(6) 0.1585(3)
C34_6 C 0.0773(4) 0.9200(6) 0.1339(3)
C35_6 C 0.0468(4) 0.8821(6) 0.1097(3)
H25_6 H 0.0115 0.8700 0.1090
C36_6 C 0.0677(4) 0.8623(6) 0.0869(3)
H26_6 H 0.0471 0.8391 0.0695
C37_6 C 0.1189(4) 0.8761(6) 0.0892(3)
C38_6 C 0.1487(4) 0.9124(6) 0.1144(3)
H27_6 H 0.1834 0.9221 0.1165
C39_6 C 0.1298(4) 0.9338(6) 0.1357(3)
H28_6 H 0.1514 0.9584 0.1521
C40_6 C 0.1404(5) 0.8539(7) 0.0655(3)
C41_6 C 0.1277(5) 0.8000(7) 0.0710(4)
C42_6 C 0.0949(6) 0.7715(8) 0.0993(4)
H29_6 H 0.0813 0.7865 0.1142
C43_6 C 0.0825(7) 0.7195(10) 0.1049(5)
C44_6 C 0.0331(7) 0.7140(10) 0.1566(5)
H30_6 H 0.0145 0.6893 0.1749
H31_6 H 0.0616 0.7440 0.1668
H32_6 H 0.0105 0.7235 0.1449
C45_6 C 0.0982(7) 0.6950(10) 0.0810(5)
C46_6 C 0.1003(8) 0.6202(11) 0.0628(6)
H33_6 H 0.0828 0.5841 0.0682
H34_6 H 0.0931 0.6250 0.0387
H35_6 H 0.1368 0.6344 0.0657
C47_6 C 0.1330(6) 0.7253(8) 0.0521(4)
H36_6 H 0.1443 0.7098 0.0358
C48_6 C 0.1487(6) 0.7766(8) 0.0493(4)
C49_6 C 0.1831(5) 0.8078(7) 0.0210(3)
C50_6 C 0.1956(5) 0.8592(7) 0.0167(3)
C54_6 C 0.2212(4) 0.9624(6) 0.0046(3)
C56_6 C 0.1867(4) 0.9340(6) 0.0304(3)
H44_6 H 0.1706 0.9483 0.0434
C57_6 C 0.1749(5) 0.8820(7) 0.0377(3)
C64_6 C 0.2417(6) 0.7719(8) 0.0089(4)
H48_6 H 0.2523 0.7780 0.0325
O17_6 O 0.2788(4) 0.9725(6) 0.9593(2)
C51_6 C 0.2338(4) 0.8909(6) 0.9887(3)
H37_6 H 0.2498 0.8772 0.9749
C52_6 C 0.2442(5) 0.9401(7) 0.9842(3)
C53_6 C 0.3054(5) 0.9546(7) 0.9381(4)
H38_6 H 0.3249 0.9446 0.9530
H39_6 H 0.2812 0.9256 0.9243
H40_6 H 0.3285 0.9818 0.9224
C58_6 C 0.2044(6) 0.7837(8) 0.9974(3)
C59_6 C 0.1914(6) 0.7745(8) 0.9627(3)
H45_6 H 0.1681 0.7836 0.9537
C60_6 C 0.2103(6) 0.7527(8) 0.9402(4)
H46_6 H 0.1985 0.7453 0.9169
C61_6 C 0.2476(6) 0.7417(8) 0.9522(4)
C62_6 C 0.2728(6) 0.7209(8) 0.9279(4)
C63_6 C 0.2631(6) 0.7519(8) 0.9867(4)
H47_6 H 0.2883 0.7450 0.9952
O4_11 O 1.0000 0.0000 0.2143(3)
C87_6 C 0.9642(6) 0.1762(5) 0.0130(3)
H65_6 H 0.9755 0.1815 0.0373
H66_6 H 0.9275 0.1624 0.0123
H67_6 H 0.9725 0.1524 0.0019
O1_6 O 0.9169(3) 0.9940(3) 0.15899(18)
O3_6 O 0.8994(3) 0.9152(4) 0.17382(18)
O4_12 O 1.0000 1.0000 0.2143(3)
O6_6 O 0.6391(5) 0.9478(5) 0.1307(4)
O7_6 O 0.5643(5) 0.9176(5) 0.0868(4)
C1_6 C 0.8891(4) 0.9441(4) 0.1585(3)
C2_6 C 0.8428(4) 0.9227(4) 0.1339(3)
C3_6 C 0.8354(4) 0.9532(4) 0.1097(3)
H1_6 H 0.8586 0.9885 0.1090
C4_6 C 0.7947(4) 0.9323(4) 0.0869(3)
H2_6 H 0.7921 0.9529 0.0695
C5_6 C 0.7573(4) 0.8811(4) 0.0892(3)
C6_6 C 0.7638(4) 0.8513(4) 0.1144(3)
H3_6 H 0.7388 0.8166 0.1165
C7_6 C 0.8041(4) 0.8702(4) 0.1357(3)
H4_6 H 0.8071 0.8486 0.1521
C8_6 C 0.7136(5) 0.8596(5) 0.0655(3)
C9_6 C 0.6724(5) 0.8723(5) 0.0710(4)
C10_6 C 0.6767(5) 0.9051(6) 0.0993(4)
H5_6 H 0.7053 0.9187 0.1142
C11_6 C 0.6371(7) 0.9175(7) 0.1049(5)
C12_6 C 0.6810(7) 0.9669(7) 0.1566(5)
H6_6 H 0.6749 0.9855 0.1749
H7_6 H 0.6825 0.9384 0.1668
H8_6 H 0.7131 0.9895 0.1449
C13_6 C 0.5969(7) 0.9018(7) 0.0810(5)
C14_6 C 0.5200(7) 0.8997(8) 0.0628(6)
H9_6 H 0.5014 0.9172 0.0682
H10_6 H 0.5320 0.9069 0.0387
H11_6 H 0.4977 0.8632 0.0657
C15_6 C 0.5924(6) 0.8670(6) 0.0521(4)
H12_6 H 0.5656 0.8557 0.0358
C16_6 C 0.6280(5) 0.8513(6) 0.0493(4)
C17_6 C 0.6248(5) 0.8169(5) 0.0210(3)
C18_6 C 0.6637(5) 0.8044(5) 0.0167(3)
C22_6 C 0.7413(5) 0.7788(4) 0.0046(3)
C23_6 C 0.8238(5) 0.7879(4) 0.0130(3)
H17_6 H 0.8185 0.7939 0.0373
H18_6 H 0.8376 0.7650 0.0123
H19_6 H 0.8476 0.8200 0.0019
C24_6 C 0.7474(4) 0.8133(4) 0.0304(3)
H20_6 H 0.7778 0.8294 0.0434
C25_6 C 0.7072(5) 0.8251(5) 0.0377(3)
C32_6 C 0.5303(5) 0.7583(6) 0.0089(4)
H24_6 H 0.5258 0.7477 0.0325
O8_6 O 0.7768(3) 0.7655(3) 0.9949(2)
O9_6 O 0.6938(4) 0.7212(4) 0.9593(2)
C19_6 C 0.6572(5) 0.7662(4) 0.9887(3)
H13_6 H 0.6275 0.7502 0.9749
C20_6 C 0.6960(5) 0.7558(5) 0.9842(3)
C21_6 C 0.6493(5) 0.6946(5) 0.9381(4)
H14_6 H 0.6198 0.6751 0.9530
H15_6 H 0.6445 0.7188 0.9243
H16_6 H 0.6534 0.6715 0.9224
C26_6 C 0.5794(5) 0.7956(6) 0.9974(3)
C27_6 C 0.5832(5) 0.8086(6) 0.9627(3)
H21_6 H 0.6156 0.8319 0.9537
C28_6 C 0.5425(5) 0.7897(6) 0.9402(4)
H22_6 H 0.5469 0.8015 0.9169
C29_6 C 0.4942(5) 0.7524(6) 0.9522(4)
C30_6 C 0.4482(5) 0.7272(6) 0.9279(4)
C31_6 C 0.4889(5) 0.7369(6) 0.9867(4)
H23_6 H 0.4568 0.7117 0.9952
O24_6 O 0.9888(4) 0.2232(3) 0.9949(2)
loop_
_geom_bond_atom_site_label_1
_geom_bond_atom_site_label_2
_geom_bond_site_symmetry_1
_geom_bond_site_symmetry_2
O2 C30 1_555 1_555
O5 C30 1_555 1_555
O6 C11 1_555 1_555
O7 C13 1_555 1_555
C13 C11 1_555 1_555
C14 O7 1_555 1_555
H9 C14 1_555 1_555
H10 C14 1_555 1_555
H11 C14 1_555 1_555
C15 C13 1_555 1_555
H12 C15 1_555 1_555
C17 C16 1_555 1_555
C18 C17 1_555 1_555
C19 C18 1_555 1_555
H13 C19 1_555 1_555
H14 C21 1_555 1_555
H15 C21 1_555 1_555
H16 C21 1_555 1_555
C26 C17 1_555 1_555
C27 C26 1_555 1_555
H21 C27 1_555 1_555
C28 C27 1_555 1_555
H22 C28 1_555 1_555
C29 C28 1_555 1_555
C30 C29 1_555 1_555
C31 C29 1_555 1_555
H23 C31 1_555 1_555
C32 C26 1_555 1_555
H24 C32 1_555 1_555
Zn7 O5 1_555 1_555
Zn10 O2 1_555 1_555
C15 C16 1_555 1_555
C31 C32 1_555 1_555
Zn1 O4 1_555 1_555
Zn2 O1 1_555 1_555
O1 C1 1_555 1_555
O3 C1 1_555 1_555
O4 Zn2 1_555 1_555
O8 C22 1_555 1_555
O9 C20 1_555 1_555
C1 C2 1_555 1_555
C2 C3 1_555 1_555
C3 H1 1_555 1_555
C4 C3 1_555 1_555
H2 C4 1_555 1_555
C5 C4 1_555 1_555
C6 C5 1_555 1_555
H3 C6 1_555 1_555
C7 C2 1_555 1_555
H4 C7 1_555 1_555
C8 C5 1_555 1_555
C9 C8 1_555 1_555
C10 C9 1_555 1_555
H5 C10 1_555 1_555
H6 C12 1_555 1_555
H7 C12 1_555 1_555
H8 C12 1_555 1_555
C22 C20 1_555 1_555
C23 O8 1_555 1_555
H17 C23 1_555 1_555
H18 C23 1_555 1_555
H19 C23 1_555 1_555
C24 C22 1_555 1_555
H20 C24 1_555 1_555
C25 C8 1_555 1_555
Zn3 O3 1_555 1_555
O10 Zn3 1_555 1_555
O11 C62 1_555 1_555
O12 C33 1_555 1_555
O13 C62 1_555 1_555
O14 C43 1_555 1_555
O15 C45 1_555 1_555
O16 C54 1_555 1_555
O17 C52 1_555 1_555
C33 O10 1_555 1_555
C34 C33 1_555 1_555
C35 C34 1_555 1_555
H25 C35 1_555 1_555
C36 C35 1_555 1_555
H26 C36 1_555 1_555
C37 C36 1_555 1_555
C38 C37 1_555 1_555
H27 C38 1_555 1_555
C39 C34 1_555 1_555
H28 C39 1_555 1_555
C40 C37 1_555 1_555
C41 C40 1_555 1_555
C42 C41 1_555 1_555
H29 C42 1_555 1_555
C43 C42 1_555 1_555
C44 O14 1_555 1_555
H30 C44 1_555 1_555
H31 C44 1_555 1_555
H32 C44 1_555 1_555
C45 C43 1_555 1_555
C46 O15 1_555 1_555
H33 C46 1_555 1_555
H34 C46 1_555 1_555
H35 C46 1_555 1_555
C47 C45 1_555 1_555
H36 C47 1_555 1_555
C48 C41 1_555 1_555
C49 C48 1_555 1_555
C50 C49 1_555 1_555
C51 C50 1_555 1_555
H37 C51 1_555 1_555
C52 C51 1_555 1_555
C53 O17 1_555 1_555
H38 C53 1_555 1_555
H39 C53 1_555 1_555
H40 C53 1_555 1_555
C54 C52 1_555 1_555
C55 O16 1_555 1_555
H41 C55 1_555 1_555
H42 C55 1_555 1_555
H43 C55 1_555 1_555
C56 C54 1_555 1_555
H44 C56 1_555 1_555
C57 C40 1_555 1_555
C58 C49 1_555 1_555
C59 C58 1_555 1_555
H45 C59 1_555 1_555
C60 C59 1_555 1_555
H46 C60 1_555 1_555
C61 C60 1_555 1_555
C62 C61 1_555 1_555
C63 C61 1_555 1_555
H47 C63 1_555 1_555
C64 C58 1_555 1_555
H48 C64 1_555 1_555
Zn4 O4 1_555 1_555
O18 Zn4 1_555 1_555
O20 Zn2 1_555 1_555
O24 C86 1_555 1_555
O25 C84 1_555 1_555
C65 O18 1_555 1_555
C66 C65 1_555 1_555
C67 C66 1_555 1_555
H49 C67 1_555 1_555
C68 C67 1_555 1_555
H50 C68 1_555 1_555
C69 C68 1_555 1_555
C70 C69 1_555 1_555
H51 C70 1_555 1_555
C71 C66 1_555 1_555
H52 C71 1_555 1_555
C72 C69 1_555 1_555
C73 C72 1_555 1_555
C74 C73 1_555 1_555
H53 C74 1_555 1_555
H54 C76 1_555 1_555
H55 C76 1_555 1_555
H56 C76 1_555 1_555
C86 C84 1_555 1_555
C87 O24 1_555 1_555
H65 C87 1_555 1_555
H66 C87 1_555 1_555
H67 C87 1_555 1_555
C88 C86 1_555 1_555
H68 C88 1_555 1_555
C89 C72 1_555 1_555
Zn7 O13 1_555 1_555
Zn8 O11 1_555 1_555
O26 Zn4 1_555 1_555
O27 Zn2 1_555 1_555
O28 Zn3 1_555 1_555
O29 Zn1 1_555 1_555
O30 Zn1 1_555 1_555
O31 Zn1 1_555 1_555
O4 Zn3 1_555 1_555
C6 C7 1_555 1_555
C24 C25 1_555 1_555
O12 Zn4 1_555 1_555
C38 C39 1_555 1_555
C47 C48 1_555 1_555
C50 C57 1_555 1_555
C56 C57 1_555 1_555
C63 C64 1_555 1_555
O20 C65 1_555 1_555
C70 C71 1_555 1_555
C88 C89 1_555 1_555
O19 C94 1_555 1_555
O21 C94 1_555 1_555
O22 C75 1_555 1_555
O23 C77 1_555 1_555
C77 C75 1_555 1_555
C78 O23 1_555 1_555
H57 C78 1_555 1_555
H58 C78 1_555 1_555
H59 C78 1_555 1_555
C79 C77 1_555 1_555
H60 C79 1_555 1_555
C81 C80 1_555 1_555
C82 C81 1_555 1_555
C83 C82 1_555 1_555
H61 C83 1_555 1_555
H62 C85 1_555 1_555
H63 C85 1_555 1_555
H64 C85 1_555 1_555
C90 C81 1_555 1_555
C91 C90 1_555 1_555
H69 C91 1_555 1_555
C92 C91 1_555 1_555
H70 C92 1_555 1_555
C93 C92 1_555 1_555
C94 C93 1_555 1_555
C95 C93 1_555 1_555
H71 C95 1_555 1_555
C96 C90 1_555 1_555
H72 C96 1_555 1_555
Zn7 O21 1_555 1_555
Zn9 O19 1_555 1_555
C79 C80 1_555 1_555
C95 C96 1_555 1_555
C46_2 O15_2 1_555 1_555
H33_2 C46_2 1_555 1_555
H34_2 C46_2 1_555 1_555
H35_2 C46_2 1_555 1_555
Zn7 O4_2 1_555 1_555
Zn8 O1_2 1_555 1_555
O1_2 C1_2 1_555 1_555
O2_2 C30_2 1_555 1_555
O3_2 C1_2 1_555 1_555
O4_2 Zn8 1_555 1_555
O5_2 C30_2 1_555 1_555
O6_2 C11_2 1_555 1_555
O7_2 C13_2 1_555 1_555
O8_2 C22_2 1_555 1_555
O9_2 C20_2 1_555 1_555
C1_2 C2_2 1_555 1_555
C2_2 C3_2 1_555 1_555
C3_2 H1_2 1_555 1_555
C4_2 C3_2 1_555 1_555
H2_2 C4_2 1_555 1_555
C5_2 C4_2 1_555 1_555
C6_2 C5_2 1_555 1_555
H3_2 C6_2 1_555 1_555
C7_2 C2_2 1_555 1_555
H4_2 C7_2 1_555 1_555
C8_2 C5_2 1_555 1_555
C9_2 C8_2 1_555 1_555
C10_2 C9_2 1_555 1_555
H5_2 C10_2 1_555 1_555
C11_2 C10_2 1_555 1_555
C12_2 O6_2 1_555 1_555
H6_2 C12_2 1_555 1_555
H7_2 C12_2 1_555 1_555
H8_2 C12_2 1_555 1_555
C13_2 C11_2 1_555 1_555
C14_2 O7_2 1_555 1_555
H9_2 C14_2 1_555 1_555
H10_2 C14_2 1_555 1_555
H11_2 C14_2 1_555 1_555
C15_2 C13_2 1_555 1_555
H12_2 C15_2 1_555 1_555
C16_2 C9_2 1_555 1_555
C17_2 C16_2 1_555 1_555
C18_2 C17_2 1_555 1_555
C19_2 C18_2 1_555 1_555
H13_2 C19_2 1_555 1_555
C20_2 C19_2 1_555 1_555
C21_2 O9_2 1_555 1_555
H14_2 C21_2 1_555 1_555
H15_2 C21_2 1_555 1_555
H16_2 C21_2 1_555 1_555
C22_2 C20_2 1_555 1_555
C23_2 O8_2 1_555 1_555
H17_2 C23_2 1_555 1_555
H18_2 C23_2 1_555 1_555
H19_2 C23_2 1_555 1_555
C24_2 C22_2 1_555 1_555
H20_2 C24_2 1_555 1_555
C25_2 C8_2 1_555 1_555
C26_2 C17_2 1_555 1_555
C27_2 C26_2 1_555 1_555
H21_2 C27_2 1_555 1_555
C28_2 C27_2 1_555 1_555
H22_2 C28_2 1_555 1_555
C29_2 C28_2 1_555 1_555
C30_2 C29_2 1_555 1_555
C31_2 C29_2 1_555 1_555
H23_2 C31_2 1_555 1_555
C32_2 C26_2 1_555 1_555
H24_2 C32_2 1_555 1_555
Zn9 O3_2 1_555 1_555
O10_2 Zn9 1_555 1_555
O11_2 C62_2 1_555 1_555
O12_2 C33_2 1_555 1_555
O13_2 C62_2 1_555 1_555
O14_2 C43_2 1_555 1_555
O16_2 C54_2 1_555 1_555
O17_2 C52_2 1_555 1_555
C33_2 O10_2 1_555 1_555
C34_2 C33_2 1_555 1_555
C35_2 C34_2 1_555 1_555
H25_2 C35_2 1_555 1_555
C36_2 C35_2 1_555 1_555
H26_2 C36_2 1_555 1_555
C37_2 C36_2 1_555 1_555
C38_2 C37_2 1_555 1_555
H27_2 C38_2 1_555 1_555
C39_2 C34_2 1_555 1_555
H28_2 C39_2 1_555 1_555
C40_2 C37_2 1_555 1_555
C41_2 C40_2 1_555 1_555
C42_2 C41_2 1_555 1_555
H29_2 C42_2 1_555 1_555
C43_2 C42_2 1_555 1_555
C44_2 O14_2 1_555 1_555
H30_2 C44_2 1_555 1_555
H31_2 C44_2 1_555 1_555
H32_2 C44_2 1_555 1_555
C45_2 C43_2 1_555 1_555
C47_2 C45_2 1_555 1_555
H36_2 C47_2 1_555 1_555
C48_2 C41_2 1_555 1_555
C49_2 C48_2 1_555 1_555
C50_2 C49_2 1_555 1_555
C51_2 C50_2 1_555 1_555
H37_2 C51_2 1_555 1_555
C52_2 C51_2 1_555 1_555
C53_2 O17_2 1_555 1_555
H38_2 C53_2 1_555 1_555
H39_2 C53_2 1_555 1_555
H40_2 C53_2 1_555 1_555
C54_2 C52_2 1_555 1_555
C55_2 O16_2 1_555 1_555
H41_2 C55_2 1_555 1_555
H42_2 C55_2 1_555 1_555
H43_2 C55_2 1_555 1_555
C56_2 C54_2 1_555 1_555
H44_2 C56_2 1_555 1_555
C57_2 C40_2 1_555 1_555
C58_2 C49_2 1_555 1_555
C59_2 C58_2 1_555 1_555
H45_2 C59_2 1_555 1_555
C60_2 C59_2 1_555 1_555
H46_2 C60_2 1_555 1_555
C61_2 C60_2 1_555 1_555
C62_2 C61_2 1_555 1_555
C63_2 C61_2 1_555 1_555
H47_2 C63_2 1_555 1_555
C64_2 C58_2 1_555 1_555
H48_2 C64_2 1_555 1_555
Zn10 O4_2 1_555 1_555
O18_2 Zn10 1_555 1_555
O19_2 C94_2 1_555 1_555
O20_2 Zn8 1_555 1_555
O21_2 C94_2 1_555 1_555
O22_2 C75_2 1_555 1_555
O24_2 C86_2 1_555 1_555
O25_2 C84_2 1_555 1_555
C65_2 O18_2 1_555 1_555
C66_2 C65_2 1_555 1_555
C67_2 C66_2 1_555 1_555
H49_2 C67_2 1_555 1_555
C68_2 C67_2 1_555 1_555
H50_2 C68_2 1_555 1_555
C69_2 C68_2 1_555 1_555
C70_2 C69_2 1_555 1_555
H51_2 C70_2 1_555 1_555
C71_2 C66_2 1_555 1_555
H52_2 C71_2 1_555 1_555
C72_2 C69_2 1_555 1_555
C73_2 C72_2 1_555 1_555
C74_2 C73_2 1_555 1_555
H53_2 C74_2 1_555 1_555
C75_2 C74_2 1_555 1_555
C76_2 O22_2 1_555 1_555
H54_2 C76_2 1_555 1_555
H55_2 C76_2 1_555 1_555
H56_2 C76_2 1_555 1_555
C77_2 C75_2 1_555 1_555
C79_2 C77_2 1_555 1_555
H60_2 C79_2 1_555 1_555
C80_2 C73_2 1_555 1_555
C81_2 C80_2 1_555 1_555
C82_2 C81_2 1_555 1_555
C83_2 C82_2 1_555 1_555
H61_2 C83_2 1_555 1_555
C84_2 C83_2 1_555 1_555
C85_2 O25_2 1_555 1_555
H62_2 C85_2 1_555 1_555
H63_2 C85_2 1_555 1_555
H64_2 C85_2 1_555 1_555
C86_2 C84_2 1_555 1_555
C87_2 O24_2 1_555 1_555
H65_2 C87_2 1_555 1_555
H66_2 C87_2 1_555 1_555
H67_2 C87_2 1_555 1_555
C88_2 C86_2 1_555 1_555
H68_2 C88_2 1_555 1_555
C89_2 C72_2 1_555 1_555
C90_2 C81_2 1_555 1_555
C91_2 C90_2 1_555 1_555
H69_2 C91_2 1_555 1_555
C92_2 C91_2 1_555 1_555
H70_2 C92_2 1_555 1_555
C93_2 C92_2 1_555 1_555
C94_2 C93_2 1_555 1_555
C95_2 C93_2 1_555 1_555
H71_2 C95_2 1_555 1_555
C96_2 C90_2 1_555 1_555
H72_2 C96_2 1_555 1_555
Zn7_2 O21_2 1_555 1_555
Zn7_3 O13_2 1_555 1_555
Zn7_5 O5_2 1_555 1_555
Zn8_2 O11_2 1_555 1_555
Zn9_2 O19_2 1_555 1_555
Zn10_2 O2_2 1_555 1_555
O4_2 Zn9 1_555 1_555
C6_2 C7_2 1_555 1_555
C15_2 C16_2 1_555 1_555
C18_2 C25_2 1_555 1_555
C24_2 C25_2 1_555 1_555
C31_2 C32_2 1_555 1_555
O12_2 Zn10 1_555 1_555
C38_2 C39_2 1_555 1_555
C47_2 C48_2 1_555 1_555
C50_2 C57_2 1_555 1_555
C56_2 C57_2 1_555 1_555
C63_2 C64_2 1_555 1_555
O20_2 C65_2 1_555 1_555
C70_2 C71_2 1_555 1_555
C79_2 C80_2 1_555 1_555
C82_2 C89_2 1_555 1_555
C88_2 C89_2 1_555 1_555
C95_2 C96_2 1_555 1_555
C78_2 O23_2 1_555 1_555
H57_2 C78_2 1_555 1_555
H58_2 C78_2 1_555 1_555
H59_2 C78_2 1_555 1_555
O26 C30_3 1_555 1_555
O29 C30_3 1_555 1_555
O9_3 C20_3 1_555 1_555
H13_3 C19_3 1_555 1_555
C20_3 C19_3 1_555 1_555
C21_3 O9_3 1_555 1_555
H14_3 C21_3 1_555 1_555
H15_3 C21_3 1_555 1_555
H16_3 C21_3 1_555 1_555
C27_3 C26_3 1_555 1_555
H21_3 C27_3 1_555 1_555
C28_3 C27_3 1_555 1_555
H22_3 C28_3 1_555 1_555
C29_3 C28_3 1_555 1_555
C30_3 C29_3 1_555 1_555
C31_3 C29_3 1_555 1_555
H23_3 C31_3 1_555 1_555
Zn7_2 O4_3 1_555 1_555
O1_3 C1_3 1_555 1_555
O3_3 C1_3 1_555 1_555
O6_3 C11_3 1_555 1_555
O7_3 C13_3 1_555 1_555
C1_3 C2_3 1_555 1_555
C2_3 C3_3 1_555 1_555
C3_3 H1_3 1_555 1_555
C4_3 C3_3 1_555 1_555
H2_3 C4_3 1_555 1_555
C5_3 C4_3 1_555 1_555
C6_3 C5_3 1_555 1_555
H3_3 C6_3 1_555 1_555
C7_3 C2_3 1_555 1_555
H4_3 C7_3 1_555 1_555
C8_3 C5_3 1_555 1_555
C9_3 C8_3 1_555 1_555
C10_3 C9_3 1_555 1_555
H5_3 C10_3 1_555 1_555
C11_3 C10_3 1_555 1_555
C12_3 O6_3 1_555 1_555
H6_3 C12_3 1_555 1_555
H7_3 C12_3 1_555 1_555
H8_3 C12_3 1_555 1_555
C13_3 C11_3 1_555 1_555
C14_3 O7_3 1_555 1_555
H9_3 C14_3 1_555 1_555
H10_3 C14_3 1_555 1_555
H11_3 C14_3 1_555 1_555
C15_3 C13_3 1_555 1_555
H12_3 C15_3 1_555 1_555
C16_3 C9_3 1_555 1_555
C17_3 C16_3 1_555 1_555
C18_3 C17_3 1_555 1_555
H17_3 C23_3 1_555 1_555
H18_3 C23_3 1_555 1_555
H19_3 C23_3 1_555 1_555
C24_3 C22_3 1_555 1_555
H20_3 C24_3 1_555 1_555
C25_3 C8_3 1_555 1_555
H24_3 C32_3 1_555 1_555
Zn9_2 O3_3 1_555 1_555
O4_3 Zn9_2 1_555 1_555
C6_3 C7_3 1_555 1_555
C15_3 C16_3 1_555 1_555
C18_3 C25_3 1_555 1_555
C24_3 C25_3 1_555 1_555
Zn7_3 O4_4 1_555 1_555
O4_4 Zn8_2 1_555 1_555
H65_3 C87_3 1_555 1_555
H66_3 C87_3 1_555 1_555
H67_3 C87_3 1_555 1_555
O27 C62_3 1_555 1_555
O30 C62_3 1_555 1_555
O17_3 C52_3 1_555 1_555
H37_3 C51_3 1_555 1_555
C52_3 C51_3 1_555 1_555
C53_3 O17_3 1_555 1_555
H38_3 C53_3 1_555 1_555
H39_3 C53_3 1_555 1_555
H40_3 C53_3 1_555 1_555
C59_3 C58_3 1_555 1_555
H45_3 C59_3 1_555 1_555
C60_3 C59_3 1_555 1_555
H46_3 C60_3 1_555 1_555
C61_3 C60_3 1_555 1_555
C62_3 C61_3 1_555 1_555
C63_3 C61_3 1_555 1_555
H47_3 C63_3 1_555 1_555
Zn7_4 O4_5 1_555 1_555
O12_3 C33_3 1_555 1_555
O14_3 C43_3 1_555 1_555
O15_3 C45_3 1_555 1_555
C33_3 O10_3 1_555 1_555
C34_3 C33_3 1_555 1_555
C35_3 C34_3 1_555 1_555
H25_3 C35_3 1_555 1_555
C36_3 C35_3 1_555 1_555
H26_3 C36_3 1_555 1_555
C37_3 C36_3 1_555 1_555
C38_3 C37_3 1_555 1_555
H27_3 C38_3 1_555 1_555
C39_3 C34_3 1_555 1_555
H28_3 C39_3 1_555 1_555
C40_3 C37_3 1_555 1_555
C41_3 C40_3 1_555 1_555
C42_3 C41_3 1_555 1_555
H29_3 C42_3 1_555 1_555
C43_3 C42_3 1_555 1_555
C44_3 O14_3 1_555 1_555
H30_3 C44_3 1_555 1_555
H31_3 C44_3 1_555 1_555
H32_3 C44_3 1_555 1_555
C45_3 C43_3 1_555 1_555
C46_3 O15_3 1_555 1_555
H33_3 C46_3 1_555 1_555
H34_3 C46_3 1_555 1_555
H35_3 C46_3 1_555 1_555
C47_3 C45_3 1_555 1_555
H36_3 C47_3 1_555 1_555
C48_3 C41_3 1_555 1_555
C49_3 C48_3 1_555 1_555
C50_3 C49_3 1_555 1_555
C56_3 C54_3 1_555 1_555
H44_3 C56_3 1_555 1_555
C57_3 C40_3 1_555 1_555
H48_3 C64_3 1_555 1_555
C38_3 C39_3 1_555 1_555
C47_3 C48_3 1_555 1_555
C50_3 C57_3 1_555 1_555
C56_3 C57_3 1_555 1_555
O28 C94_3 1_555 1_555
O31 C94_3 1_555 1_555
O25_3 C84_3 1_555 1_555
H61_3 C83_3 1_555 1_555
C84_3 C83_3 1_555 1_555
C85_3 O25_3 1_555 1_555
H62_3 C85_3 1_555 1_555
H63_3 C85_3 1_555 1_555
H64_3 C85_3 1_555 1_555
C91_3 C90_3 1_555 1_555
H69_3 C91_3 1_555 1_555
C92_3 C91_3 1_555 1_555
H70_3 C92_3 1_555 1_555
C93_3 C92_3 1_555 1_555
C94_3 C93_3 1_555 1_555
C95_3 C93_3 1_555 1_555
H71_3 C95_3 1_555 1_555
Zn7_5 O4_6 1_555 1_555
H41_3 C55_3 1_555 1_555
H42_3 C55_3 1_555 1_555
H43_3 C55_3 1_555 1_555
Zn10_2 O4_6 1_555 1_555
O18_3 Zn10_2 1_555 1_555
O22_3 C75_3 1_555 1_555
O23_3 C77_3 1_555 1_555
C65_3 O18_3 1_555 1_555
C66_3 C65_3 1_555 1_555
C67_3 C66_3 1_555 1_555
H49_3 C67_3 1_555 1_555
C68_3 C67_3 1_555 1_555
H50_3 C68_3 1_555 1_555
C69_3 C68_3 1_555 1_555
C70_3 C69_3 1_555 1_555
H51_3 C70_3 1_555 1_555
C71_3 C66_3 1_555 1_555
H52_3 C71_3 1_555 1_555
C72_3 C69_3 1_555 1_555
C73_3 C72_3 1_555 1_555
C74_3 C73_3 1_555 1_555
H53_3 C74_3 1_555 1_555
C75_3 C74_3 1_555 1_555
C76_3 O22_3 1_555 1_555
H54_3 C76_3 1_555 1_555
H55_3 C76_3 1_555 1_555
H56_3 C76_3 1_555 1_555
C77_3 C75_3 1_555 1_555
C78_3 O23_3 1_555 1_555
H57_3 C78_3 1_555 1_555
H58_3 C78_3 1_555 1_555
H59_3 C78_3 1_555 1_555
C79_3 C77_3 1_555 1_555
H60_3 C79_3 1_555 1_555
C80_3 C73_3 1_555 1_555
C81_3 C80_3 1_555 1_555
C82_3 C81_3 1_555 1_555
C88_3 C86_3 1_555 1_555
H68_3 C88_3 1_555 1_555
C89_3 C72_3 1_555 1_555
H72_3 C96_3 1_555 1_555
O20_3 C65_3 1_555 1_555
C70_3 C71_3 1_555 1_555
C79_3 C80_3 1_555 1_555
C82_3 C89_3 1_555 1_555
C88_3 C89_3 1_555 1_555
O19_3 C94_4 1_555 1_555
O21_3 C94_4 1_555 1_555
O22_4 C75_4 1_555 1_555
O23_4 C77_4 1_555 1_555
C77_4 C75_4 1_555 1_555
C78_4 O23_4 1_555 1_555
H57_4 C78_4 1_555 1_555
H58_4 C78_4 1_555 1_555
H59_4 C78_4 1_555 1_555
C79_4 C77_4 1_555 1_555
H60_4 C79_4 1_555 1_555
C81_4 C80_4 1_555 1_555
C82_4 C81_4 1_555 1_555
C83_4 C82_4 1_555 1_555
H61_4 C83_4 1_555 1_555
H62_4 C85_4 1_555 1_555
H63_4 C85_4 1_555 1_555
H64_4 C85_4 1_555 1_555
C90_4 C81_4 1_555 1_555
C91_4 C90_4 1_555 1_555
H69_4 C91_4 1_555 1_555
C92_4 C91_4 1_555 1_555
H70_4 C92_4 1_555 1_555
C93_4 C92_4 1_555 1_555
C94_4 C93_4 1_555 1_555
C95_4 C93_4 1_555 1_555
H71_4 C95_4 1_555 1_555
C96_4 C90_4 1_555 1_555
H72_4 C96_4 1_555 1_555
Zn5 O21_3 1_555 1_555
Zn9_3 O19_3 1_555 1_555
C79_4 C80_4 1_555 1_555
C95_4 C96_4 1_555 1_555
Zn1_2 O4_7 1_555 1_555
Zn2_2 O1_4 1_555 1_555
O1_4 C1_4 1_555 1_555
O3_4 C1_4 1_555 1_555
O4_7 Zn2_2 1_555 1_555
O8_4 C22_4 1_555 1_555
O9_4 C20_4 1_555 1_555
C1_4 C2_4 1_555 1_555
C2_4 C3_4 1_555 1_555
C3_4 H1_4 1_555 1_555
C4_4 C3_4 1_555 1_555
H2_4 C4_4 1_555 1_555
C5_4 C4_4 1_555 1_555
C6_4 C5_4 1_555 1_555
H3_4 C6_4 1_555 1_555
C7_4 C2_4 1_555 1_555
H4_4 C7_4 1_555 1_555
C8_4 C5_4 1_555 1_555
C9_4 C8_4 1_555 1_555
C10_4 C9_4 1_555 1_555
H5_4 C10_4 1_555 1_555
H6_4 C12_4 1_555 1_555
H7_4 C12_4 1_555 1_555
H8_4 C12_4 1_555 1_555
C22_4 C20_4 1_555 1_555
C23_4 O8_4 1_555 1_555
H17_4 C23_4 1_555 1_555
H18_4 C23_4 1_555 1_555
H19_4 C23_4 1_555 1_555
C24_4 C22_4 1_555 1_555
H20_4 C24_4 1_555 1_555
C25_4 C8_4 1_555 1_555
Zn3_2 O3_4 1_555 1_555
O10_4 Zn3_2 1_555 1_555
O11_3 C62_4 1_555 1_555
O12_4 C33_4 1_555 1_555
O13_3 C62_4 1_555 1_555
O14_4 C43_4 1_555 1_555
O15_4 C45_4 1_555 1_555
O16_4 C54_4 1_555 1_555
O17_4 C52_4 1_555 1_555
C33_4 O10_4 1_555 1_555
C34_4 C33_4 1_555 1_555
C35_4 C34_4 1_555 1_555
H25_4 C35_4 1_555 1_555
C36_4 C35_4 1_555 1_555
H26_4 C36_4 1_555 1_555
C37_4 C36_4 1_555 1_555
C38_4 C37_4 1_555 1_555
H27_4 C38_4 1_555 1_555
C39_4 C34_4 1_555 1_555
H28_4 C39_4 1_555 1_555
C40_4 C37_4 1_555 1_555
C41_4 C40_4 1_555 1_555
C42_4 C41_4 1_555 1_555
H29_4 C42_4 1_555 1_555
C43_4 C42_4 1_555 1_555
C44_4 O14_4 1_555 1_555
H30_4 C44_4 1_555 1_555
H31_4 C44_4 1_555 1_555
H32_4 C44_4 1_555 1_555
C45_4 C43_4 1_555 1_555
C46_4 O15_4 1_555 1_555
H33_4 C46_4 1_555 1_555
H34_4 C46_4 1_555 1_555
H35_4 C46_4 1_555 1_555
C47_4 C45_4 1_555 1_555
H36_4 C47_4 1_555 1_555
C48_4 C41_4 1_555 1_555
C49_4 C48_4 1_555 1_555
C50_4 C49_4 1_555 1_555
C51_4 C50_4 1_555 1_555
H37_4 C51_4 1_555 1_555
C52_4 C51_4 1_555 1_555
C53_4 O17_4 1_555 1_555
H38_4 C53_4 1_555 1_555
H39_4 C53_4 1_555 1_555
H40_4 C53_4 1_555 1_555
C54_4 C52_4 1_555 1_555
C55_4 O16_4 1_555 1_555
H41_4 C55_4 1_555 1_555
H42_4 C55_4 1_555 1_555
H43_4 C55_4 1_555 1_555
C56_4 C54_4 1_555 1_555
H44_4 C56_4 1_555 1_555
C57_4 C40_4 1_555 1_555
C58_4 C49_4 1_555 1_555
C59_4 C58_4 1_555 1_555
H45_4 C59_4 1_555 1_555
C60_4 C59_4 1_555 1_555
H46_4 C60_4 1_555 1_555
C61_4 C60_4 1_555 1_555
C62_4 C61_4 1_555 1_555
C63_4 C61_4 1_555 1_555
H47_4 C63_4 1_555 1_555
C64_4 C58_4 1_555 1_555
H48_4 C64_4 1_555 1_555
Zn4_2 O4_7 1_555 1_555
O18_4 Zn4_2 1_555 1_555
O20_4 Zn2_2 1_555 1_555
O24_4 C86_4 1_555 1_555
O25_4 C84_4 1_555 1_555
C65_4 O18_4 1_555 1_555
C66_4 C65_4 1_555 1_555
C67_4 C66_4 1_555 1_555
H49_4 C67_4 1_555 1_555
C68_4 C67_4 1_555 1_555
H50_4 C68_4 1_555 1_555
C69_4 C68_4 1_555 1_555
C70_4 C69_4 1_555 1_555
H51_4 C70_4 1_555 1_555
C71_4 C66_4 1_555 1_555
H52_4 C71_4 1_555 1_555
C72_4 C69_4 1_555 1_555
C73_4 C72_4 1_555 1_555
C74_4 C73_4 1_555 1_555
H53_4 C74_4 1_555 1_555
H54_4 C76_4 1_555 1_555
H55_4 C76_4 1_555 1_555
H56_4 C76_4 1_555 1_555
C86_4 C84_4 1_555 1_555
C87_4 O24_4 1_555 1_555
H65_4 C87_4 1_555 1_555
H66_4 C87_4 1_555 1_555
H67_4 C87_4 1_555 1_555
C88_4 C86_4 1_555 1_555
H68_4 C88_4 1_555 1_555
C89_4 C72_4 1_555 1_555
Zn5 O13_3 1_555 1_555
Zn8_3 O11_3 1_555 1_555
O26_2 Zn4_2 1_555 1_555
O27_2 Zn2_2 1_555 1_555
O28_2 Zn3_2 1_555 1_555
O29_2 Zn1_2 1_555 1_555
O30_2 Zn1_2 1_555 1_555
O31_2 Zn1_2 1_555 1_555
O4_7 Zn3_2 1_555 1_555
C6_4 C7_4 1_555 1_555
C24_4 C25_4 1_555 1_555
O12_4 Zn4_2 1_555 1_555
C38_4 C39_4 1_555 1_555
C47_4 C48_4 1_555 1_555
C50_4 C57_4 1_555 1_555
C56_4 C57_4 1_555 1_555
C63_4 C64_4 1_555 1_555
O20_4 C65_4 1_555 1_555
C70_4 C71_4 1_555 1_555
C88_4 C89_4 1_555 1_555
O2_3 C30_4 1_555 1_555
O5_3 C30_4 1_555 1_555
O6_4 C11_4 1_555 1_555
O7_4 C13_4 1_555 1_555
C13_4 C11_4 1_555 1_555
C14_4 O7_4 1_555 1_555
H9_4 C14_4 1_555 1_555
H10_4 C14_4 1_555 1_555
H11_4 C14_4 1_555 1_555
C15_4 C13_4 1_555 1_555
H12_4 C15_4 1_555 1_555
C17_4 C16_4 1_555 1_555
C18_4 C17_4 1_555 1_555
C19_4 C18_4 1_555 1_555
H13_4 C19_4 1_555 1_555
H14_4 C21_4 1_555 1_555
H15_4 C21_4 1_555 1_555
H16_4 C21_4 1_555 1_555
C26_4 C17_4 1_555 1_555
C27_4 C26_4 1_555 1_555
H21_4 C27_4 1_555 1_555
C28_4 C27_4 1_555 1_555
H22_4 C28_4 1_555 1_555
C29_4 C28_4 1_555 1_555
C30_4 C29_4 1_555 1_555
C31_4 C29_4 1_555 1_555
H23_4 C31_4 1_555 1_555
C32_4 C26_4 1_555 1_555
H24_4 C32_4 1_555 1_555
Zn5 O5_3 1_555 1_555
Zn10_3 O2_3 1_555 1_555
C15_4 C16_4 1_555 1_555
C31_4 C32_4 1_555 1_555
C78_5 O23_5 1_555 1_555
H57_5 C78_5 1_555 1_555
H58_5 C78_5 1_555 1_555
H59_5 C78_5 1_555 1_555
Zn5 O4_8 1_555 1_555
Zn8_3 O1_5 1_555 1_555
O1_5 C1_5 1_555 1_555
O2_4 C30_5 1_555 1_555
O3_5 C1_5 1_555 1_555
O4_8 Zn8_3 1_555 1_555
O5_4 C30_5 1_555 1_555
O6_5 C11_5 1_555 1_555
O7_5 C13_5 1_555 1_555
O8_5 C22_5 1_555 1_555
O9_5 C20_5 1_555 1_555
C1_5 C2_5 1_555 1_555
C2_5 C3_5 1_555 1_555
C3_5 H1_5 1_555 1_555
C4_5 C3_5 1_555 1_555
H2_5 C4_5 1_555 1_555
C5_5 C4_5 1_555 1_555
C6_5 C5_5 1_555 1_555
H3_5 C6_5 1_555 1_555
C7_5 C2_5 1_555 1_555
H4_5 C7_5 1_555 1_555
C8_5 C5_5 1_555 1_555
C9_5 C8_5 1_555 1_555
C10_5 C9_5 1_555 1_555
H5_5 C10_5 1_555 1_555
C11_5 C10_5 1_555 1_555
C12_5 O6_5 1_555 1_555
H6_5 C12_5 1_555 1_555
H7_5 C12_5 1_555 1_555
H8_5 C12_5 1_555 1_555
C13_5 C11_5 1_555 1_555
C14_5 O7_5 1_555 1_555
H9_5 C14_5 1_555 1_555
H10_5 C14_5 1_555 1_555
H11_5 C14_5 1_555 1_555
C15_5 C13_5 1_555 1_555
H12_5 C15_5 1_555 1_555
C16_5 C9_5 1_555 1_555
C17_5 C16_5 1_555 1_555
C18_5 C17_5 1_555 1_555
C19_5 C18_5 1_555 1_555
H13_5 C19_5 1_555 1_555
C20_5 C19_5 1_555 1_555
C21_5 O9_5 1_555 1_555
H14_5 C21_5 1_555 1_555
H15_5 C21_5 1_555 1_555
H16_5 C21_5 1_555 1_555
C22_5 C20_5 1_555 1_555
C23_5 O8_5 1_555 1_555
H17_5 C23_5 1_555 1_555
H18_5 C23_5 1_555 1_555
H19_5 C23_5 1_555 1_555
C24_5 C22_5 1_555 1_555
H20_5 C24_5 1_555 1_555
C25_5 C8_5 1_555 1_555
C26_5 C17_5 1_555 1_555
C27_5 C26_5 1_555 1_555
H21_5 C27_5 1_555 1_555
C28_5 C27_5 1_555 1_555
H22_5 C28_5 1_555 1_555
C29_5 C28_5 1_555 1_555
C30_5 C29_5 1_555 1_555
C31_5 C29_5 1_555 1_555
H23_5 C31_5 1_555 1_555
C32_5 C26_5 1_555 1_555
H24_5 C32_5 1_555 1_555
Zn9_3 O3_5 1_555 1_555
O10_5 Zn9_3 1_555 1_555
O11_4 C62_5 1_555 1_555
O12_5 C33_5 1_555 1_555
O13_4 C62_5 1_555 1_555
O14_5 C43_5 1_555 1_555
O16_5 C54_5 1_555 1_555
O17_5 C52_5 1_555 1_555
C33_5 O10_5 1_555 1_555
C34_5 C33_5 1_555 1_555
C35_5 C34_5 1_555 1_555
H25_5 C35_5 1_555 1_555
C36_5 C35_5 1_555 1_555
H26_5 C36_5 1_555 1_555
C37_5 C36_5 1_555 1_555
C38_5 C37_5 1_555 1_555
H27_5 C38_5 1_555 1_555
C39_5 C34_5 1_555 1_555
H28_5 C39_5 1_555 1_555
C40_5 C37_5 1_555 1_555
C41_5 C40_5 1_555 1_555
C42_5 C41_5 1_555 1_555
H29_5 C42_5 1_555 1_555
C43_5 C42_5 1_555 1_555
C44_5 O14_5 1_555 1_555
H30_5 C44_5 1_555 1_555
H31_5 C44_5 1_555 1_555
H32_5 C44_5 1_555 1_555
C45_5 C43_5 1_555 1_555
C47_5 C45_5 1_555 1_555
H36_5 C47_5 1_555 1_555
C48_5 C41_5 1_555 1_555
C49_5 C48_5 1_555 1_555
C50_5 C49_5 1_555 1_555
C51_5 C50_5 1_555 1_555
H37_5 C51_5 1_555 1_555
C52_5 C51_5 1_555 1_555
C53_5 O17_5 1_555 1_555
H38_5 C53_5 1_555 1_555
H39_5 C53_5 1_555 1_555
H40_5 C53_5 1_555 1_555
C54_5 C52_5 1_555 1_555
C55_5 O16_5 1_555 1_555
H41_5 C55_5 1_555 1_555
H42_5 C55_5 1_555 1_555
H43_5 C55_5 1_555 1_555
C56_5 C54_5 1_555 1_555
H44_5 C56_5 1_555 1_555
C57_5 C40_5 1_555 1_555
C58_5 C49_5 1_555 1_555
C59_5 C58_5 1_555 1_555
H45_5 C59_5 1_555 1_555
C60_5 C59_5 1_555 1_555
H46_5 C60_5 1_555 1_555
C61_5 C60_5 1_555 1_555
C62_5 C61_5 1_555 1_555
C63_5 C61_5 1_555 1_555
H47_5 C63_5 1_555 1_555
C64_5 C58_5 1_555 1_555
H48_5 C64_5 1_555 1_555
Zn10_3 O4_8 1_555 1_555
O18_5 Zn10_3 1_555 1_555
O19_4 C94_5 1_555 1_555
O20_5 Zn8_3 1_555 1_555
O21_4 C94_5 1_555 1_555
O22_5 C75_5 1_555 1_555
O24_5 C86_5 1_555 1_555
O25_5 C84_5 1_555 1_555
C65_5 O18_5 1_555 1_555
C66_5 C65_5 1_555 1_555
C67_5 C66_5 1_555 1_555
H49_5 C67_5 1_555 1_555
C68_5 C67_5 1_555 1_555
H50_5 C68_5 1_555 1_555
C69_5 C68_5 1_555 1_555
C70_5 C69_5 1_555 1_555
H51_5 C70_5 1_555 1_555
C71_5 C66_5 1_555 1_555
H52_5 C71_5 1_555 1_555
C72_5 C69_5 1_555 1_555
C73_5 C72_5 1_555 1_555
C74_5 C73_5 1_555 1_555
H53_5 C74_5 1_555 1_555
C75_5 C74_5 1_555 1_555
C76_5 O22_5 1_555 1_555
H54_5 C76_5 1_555 1_555
H55_5 C76_5 1_555 1_555
H56_5 C76_5 1_555 1_555
C77_5 C75_5 1_555 1_555
C79_5 C77_5 1_555 1_555
H60_5 C79_5 1_555 1_555
C80_5 C73_5 1_555 1_555
C81_5 C80_5 1_555 1_555
C82_5 C81_5 1_555 1_555
C83_5 C82_5 1_555 1_555
H61_5 C83_5 1_555 1_555
C84_5 C83_5 1_555 1_555
C85_5 O25_5 1_555 1_555
H62_5 C85_5 1_555 1_555
H63_5 C85_5 1_555 1_555
H64_5 C85_5 1_555 1_555
C86_5 C84_5 1_555 1_555
C87_5 O24_5 1_555 1_555
H65_5 C87_5 1_555 1_555
H66_5 C87_5 1_555 1_555
H67_5 C87_5 1_555 1_555
C88_5 C86_5 1_555 1_555
H68_5 C88_5 1_555 1_555
C89_5 C72_5 1_555 1_555
C90_5 C81_5 1_555 1_555
C91_5 C90_5 1_555 1_555
H69_5 C91_5 1_555 1_555
C92_5 C91_5 1_555 1_555
H70_5 C92_5 1_555 1_555
C93_5 C92_5 1_555 1_555
C94_5 C93_5 1_555 1_555
C95_5 C93_5 1_555 1_555
H71_5 C95_5 1_555 1_555
C96_5 C90_5 1_555 1_555
H72_5 C96_5 1_555 1_555
Zn5_5 O21_4 1_555 1_555
Zn5_4 O13_4 1_555 1_555
Zn5_2 O5_4 1_555 1_555
Zn8_4 O11_4 1_555 1_555
Zn9_4 O19_4 1_555 1_555
Zn10_4 O2_4 1_555 1_555
O4_8 Zn9_3 1_555 1_555
C6_5 C7_5 1_555 1_555
C15_5 C16_5 1_555 1_555
C18_5 C25_5 1_555 1_555
C24_5 C25_5 1_555 1_555
C31_5 C32_5 1_555 1_555
O12_5 Zn10_3 1_555 1_555
C38_5 C39_5 1_555 1_555
C47_5 C48_5 1_555 1_555
C50_5 C57_5 1_555 1_555
C56_5 C57_5 1_555 1_555
C63_5 C64_5 1_555 1_555
O20_5 C65_5 1_555 1_555
C70_5 C71_5 1_555 1_555
C79_5 C80_5 1_555 1_555
C82_5 C89_5 1_555 1_555
C88_5 C89_5 1_555 1_555
C95_5 C96_5 1_555 1_555
C46_5 O15_5 1_555 1_555
H33_5 C46_5 1_555 1_555
H34_5 C46_5 1_555 1_555
H35_5 C46_5 1_555 1_555
Zn5_2 O4_9 1_555 1_555
H41_6 C55_6 1_555 1_555
H42_6 C55_6 1_555 1_555
H43_6 C55_6 1_555 1_555
Zn10_4 O4_9 1_555 1_555
O18_6 Zn10_4 1_555 1_555
O22_6 C75_6 1_555 1_555
O23_6 C77_6 1_555 1_555
C65_6 O18_6 1_555 1_555
C66_6 C65_6 1_555 1_555
C67_6 C66_6 1_555 1_555
H49_6 C67_6 1_555 1_555
C68_6 C67_6 1_555 1_555
H50_6 C68_6 1_555 1_555
C69_6 C68_6 1_555 1_555
C70_6 C69_6 1_555 1_555
H51_6 C70_6 1_555 1_555
C71_6 C66_6 1_555 1_555
H52_6 C71_6 1_555 1_555
C72_6 C69_6 1_555 1_555
C73_6 C72_6 1_555 1_555
C74_6 C73_6 1_555 1_555
H53_6 C74_6 1_555 1_555
C75_6 C74_6 1_555 1_555
C76_6 O22_6 1_555 1_555
H54_6 C76_6 1_555 1_555
H55_6 C76_6 1_555 1_555
H56_6 C76_6 1_555 1_555
C77_6 C75_6 1_555 1_555
C78_6 O23_6 1_555 1_555
H57_6 C78_6 1_555 1_555
H58_6 C78_6 1_555 1_555
H59_6 C78_6 1_555 1_555
C79_6 C77_6 1_555 1_555
H60_6 C79_6 1_555 1_555
C80_6 C73_6 1_555 1_555
C81_6 C80_6 1_555 1_555
C82_6 C81_6 1_555 1_555
C88_6 C86_6 1_555 1_555
H68_6 C88_6 1_555 1_555
C89_6 C72_6 1_555 1_555
H72_6 C96_6 1_555 1_555
O20_6 C65_6 1_555 1_555
C70_6 C71_6 1_555 1_555
C79_6 C80_6 1_555 1_555
C82_6 C89_6 1_555 1_555
C88_6 C89_6 1_555 1_555
O28_2 C94_6 1_555 1_555
O31_2 C94_6 1_555 1_555
O25_6 C84_6 1_555 1_555
H61_6 C83_6 1_555 1_555
C84_6 C83_6 1_555 1_555
C85_6 O25_6 1_555 1_555
H62_6 C85_6 1_555 1_555
H63_6 C85_6 1_555 1_555
H64_6 C85_6 1_555 1_555
C91_6 C90_6 1_555 1_555
H69_6 C91_6 1_555 1_555
C92_6 C91_6 1_555 1_555
H70_6 C92_6 1_555 1_555
C93_6 C92_6 1_555 1_555
C94_6 C93_6 1_555 1_555
C95_6 C93_6 1_555 1_555
H71_6 C95_6 1_555 1_555
Zn5_3 O4_10 1_555 1_555
O12_6 C33_6 1_555 1_555
O14_6 C43_6 1_555 1_555
O15_6 C45_6 1_555 1_555
C33_6 O10_6 1_555 1_555
C34_6 C33_6 1_555 1_555
C35_6 C34_6 1_555 1_555
H25_6 C35_6 1_555 1_555
C36_6 C35_6 1_555 1_555
H26_6 C36_6 1_555 1_555
C37_6 C36_6 1_555 1_555
C38_6 C37_6 1_555 1_555
H27_6 C38_6 1_555 1_555
C39_6 C34_6 1_555 1_555
H28_6 C39_6 1_555 1_555
C40_6 C37_6 1_555 1_555
C41_6 C40_6 1_555 1_555
C42_6 C41_6 1_555 1_555
H29_6 C42_6 1_555 1_555
C43_6 C42_6 1_555 1_555
C44_6 O14_6 1_555 1_555
H30_6 C44_6 1_555 1_555
H31_6 C44_6 1_555 1_555
H32_6 C44_6 1_555 1_555
C45_6 C43_6 1_555 1_555
C46_6 O15_6 1_555 1_555
H33_6 C46_6 1_555 1_555
H34_6 C46_6 1_555 1_555
H35_6 C46_6 1_555 1_555
C47_6 C45_6 1_555 1_555
H36_6 C47_6 1_555 1_555
C48_6 C41_6 1_555 1_555
C49_6 C48_6 1_555 1_555
C50_6 C49_6 1_555 1_555
C56_6 C54_6 1_555 1_555
H44_6 C56_6 1_555 1_555
C57_6 C40_6 1_555 1_555
H48_6 C64_6 1_555 1_555
C38_6 C39_6 1_555 1_555
C47_6 C48_6 1_555 1_555
C50_6 C57_6 1_555 1_555
C56_6 C57_6 1_555 1_555
O27_2 C62_6 1_555 1_555
O30_2 C62_6 1_555 1_555
O17_6 C52_6 1_555 1_555
H37_6 C51_6 1_555 1_555
C52_6 C51_6 1_555 1_555
C53_6 O17_6 1_555 1_555
H38_6 C53_6 1_555 1_555
H39_6 C53_6 1_555 1_555
H40_6 C53_6 1_555 1_555
C59_6 C58_6 1_555 1_555
H45_6 C59_6 1_555 1_555
C60_6 C59_6 1_555 1_555
H46_6 C60_6 1_555 1_555
C61_6 C60_6 1_555 1_555
C62_6 C61_6 1_555 1_555
C63_6 C61_6 1_555 1_555
H47_6 C63_6 1_555 1_555
Zn5_4 O4_11 1_555 1_555
O4_11 Zn8_4 1_555 1_555
H65_6 C87_6 1_555 1_555
H66_6 C87_6 1_555 1_555
H67_6 C87_6 1_555 1_555
Zn5_5 O4_12 1_555 1_555
O1_6 C1_6 1_555 1_555
O3_6 C1_6 1_555 1_555
O6_6 C11_6 1_555 1_555
O7_6 C13_6 1_555 1_555
C1_6 C2_6 1_555 1_555
C2_6 C3_6 1_555 1_555
C3_6 H1_6 1_555 1_555
C4_6 C3_6 1_555 1_555
H2_6 C4_6 1_555 1_555
C5_6 C4_6 1_555 1_555
C6_6 C5_6 1_555 1_555
H3_6 C6_6 1_555 1_555
C7_6 C2_6 1_555 1_555
H4_6 C7_6 1_555 1_555
C8_6 C5_6 1_555 1_555
C9_6 C8_6 1_555 1_555
C10_6 C9_6 1_555 1_555
H5_6 C10_6 1_555 1_555
C11_6 C10_6 1_555 1_555
C12_6 O6_6 1_555 1_555
H6_6 C12_6 1_555 1_555
H7_6 C12_6 1_555 1_555
H8_6 C12_6 1_555 1_555
C13_6 C11_6 1_555 1_555
C14_6 O7_6 1_555 1_555
H9_6 C14_6 1_555 1_555
H10_6 C14_6 1_555 1_555
H11_6 C14_6 1_555 1_555
C15_6 C13_6 1_555 1_555
H12_6 C15_6 1_555 1_555
C16_6 C9_6 1_555 1_555
C17_6 C16_6 1_555 1_555
C18_6 C17_6 1_555 1_555
H17_6 C23_6 1_555 1_555
H18_6 C23_6 1_555 1_555
H19_6 C23_6 1_555 1_555
C24_6 C22_6 1_555 1_555
H20_6 C24_6 1_555 1_555
C25_6 C8_6 1_555 1_555
H24_6 C32_6 1_555 1_555
Zn9_4 O3_6 1_555 1_555
O4_12 Zn9_4 1_555 1_555
C6_6 C7_6 1_555 1_555
C15_6 C16_6 1_555 1_555
C18_6 C25_6 1_555 1_555
C24_6 C25_6 1_555 1_555
O26_2 C30_6 1_555 1_555
O29_2 C30_6 1_555 1_555
O9_6 C20_6 1_555 1_555
H13_6 C19_6 1_555 1_555
C20_6 C19_6 1_555 1_555
C21_6 O9_6 1_555 1_555
H14_6 C21_6 1_555 1_555
H15_6 C21_6 1_555 1_555
H16_6 C21_6 1_555 1_555
C27_6 C26_6 1_555 1_555
H21_6 C27_6 1_555 1_555
C28_6 C27_6 1_555 1_555
H22_6 C28_6 1_555 1_555
C29_6 C28_6 1_555 1_555
C30_6 C29_6 1_555 1_555
C31_6 C29_6 1_555 1_555
H23_6 C31_6 1_555 1_555

#END
