
###############################################################################
#
# This file contains modified crystal structure data generated from the
# MOF subset of the Cambridge Structural Database (CSD) v543 
# hosted by the Cambridge Crystallographic Data Centre (CCDC).
#
# This work is licensed under the Creative Commons
# Attribution-NonCommercial-ShareAlike 4.0 International License.
# To view a copy of this license, visit
# http://creativecommons.org/licenses/by-nc-sa/4.0/
# or send a letter to
# Creative Commons, PO Box 1866, Mountain View, CA 94042, USA.
#
# CIF created using the CSD Python API on 29 September 2022
# The structure has been converted into the P1 space group
# The structure has a 3D framework
# The original CSD entry HUQGUX is in the triclinic crystal system
# The framework has been calculated to contain at least 10.0% void space
# The void calculation uses a probe of radius 1.32A, grid spacing 0.4
#
###############################################################################

data_HUQGUX
_chemical_formula_moiety         '(C186 H130 Cu4 N10 O26)n'
_symmetry_cell_setting           triclinic
_symmetry_space_group_name_H-M   'P 1'
_symmetry_Int_Tables_number      1
_space_group_name_Hall           'P 1'
loop_
_symmetry_equiv_pos_site_id
_symmetry_equiv_pos_as_xyz
1 x,y,z
_cell_length_a                   19.913(11)
_cell_length_b                   20.884(11)
_cell_length_c                   21.486(12)
_cell_angle_alpha                116.076(8)
_cell_angle_beta                 98.550(9)
_cell_angle_gamma                101.661(9)
_cell_volume                     7568.15
loop_
_atom_site_label
_atom_site_type_symbol
_atom_site_fract_x
_atom_site_fract_y
_atom_site_fract_z
C3 C 0.3415(4) 0.6111(4) 0.0670(4)
C4 C 0.3859(3) 0.6577(3) 0.1283(4)
H7 H 0.3708 0.6901 0.1655
C5 C 0.3667(3) 0.5703(3) 0.0076(4)
C8 C 0.4644(3) 0.6596(3) 0.1398(4)
H10 H 0.4961 0.6876 0.1854
C18 C 0.2669(4) 0.6067(4) 0.0564(4)
H13 H 0.2375 0.5706 0.0111
C19 C 0.2363(5) 0.6442(5) 0.0992(5)
H14 H 0.2625 0.6751 0.1470
C20 C 0.0426(4) 0.5964(5) 0.0183(5)
C23 C 0.1608(5) 0.6431(6) 0.0793(8)
C24 C 0.4359(3) 0.5751(3) 0.0166(3)
C26 C 0.1077(5) 0.5872(5) 0.0325(5)
H19 H 0.1137 0.5403 0.0082
C28 C 0.1570(7) 0.7016(8) 0.1376(6)
H20 H 0.1951 0.7337 0.1780
C30 C 0.0765(7) 0.7092(9) 0.1285(7)
H22 H 0.0647 0.7467 0.1646
N1 N 0.0286(3) 0.6587(4) 0.0664(4)
N2 N 0.4866(2) 0.6187(2) 0.0809(3)
O6 O 0.7075(2) 0.6021(2) 0.0185(3)
O7 O 0.7151(3) 0.7337(3) 0.0167(3)
Cu1 Cu 0.58952(4) 0.62921(4) 0.09287(4)
Cu2 Cu 0.76347(4) 0.70376(4) 0.09075(4)
O14 O 0.7394(2) 0.7808(2) 0.1716(2)
O15 O 0.6162(2) 0.5700(2) 0.1365(2)
O16 O 0.6075(2) 0.6641(3) 0.2340(2)
O17 O 0.6203(2) 0.7349(2) 0.1358(3)
O18 O 0.8050(2) 0.6630(2) 0.1527(2)
O20 O 0.8530(3) 0.7425(3) 0.0748(3)
C1 C 0.6164(9) 0.6982(9) 0.8992(10)
H1 H 0.6078 0.6888 0.9377
H2 H 0.5831 0.6597 0.8547
H3 H 0.6107 0.7459 0.9085
C2 C 0.7208(11) 0.6742(10) 0.8301(8)
H4 H 0.7228 0.7094 0.8124
H5 H 0.6917 0.6255 0.7925
H6 H 0.7680 0.6725 0.8449
H8 H 0.3350 0.5401 0.9621
C6 C 0.6475(4) 0.5758(3) 0.9744(3)
C7 C 0.6074(3) 0.4746(3) 0.1971(4)
H9 H 0.5986 0.4508 0.1473
C9 C 0.6297(4) 0.4417(3) 0.7487(3)
C10 C 0.6407(3) 0.5306(3) 0.8964(3)
C11 C 0.6202(3) 0.5556(3) 0.2384(3)
C13 C 0.6239(4) 0.4003(3) 0.6699(4)
C14 C 0.5687(3) 0.4579(3) 0.7723(3)
H11 H 0.5246 0.4404 0.7394
C15 C 0.5767(3) 0.4995(3) 0.8442(3)
H12 H 0.5362 0.5076 0.8591
C17 C 0.6578(4) 0.0020(4) 0.3061(3)
H15 H 0.0077 0.5608 0.9763
C21 C 0.6161(3) 0.5996(4) 0.1994(4)
C22 C 0.6950(3) 0.4729(4) 0.8026(4)
H16 H 0.7358 0.4644 0.7886
H17 H 0.4503 0.5469 0.9766
C25 C 0.6086(4) 0.4353(3) 0.2325(4)
H18 H 0.5991 0.3839 0.2050
C27 C 0.6229(4) 0.4650(3) 0.3072(4)
C29 C 0.7010(3) 0.5144(3) 0.8730(3)
H21 H 0.7449 0.5325 0.9065
C31 C 0.6230(4) 0.3345(4) 0.4145(4)
C32 C 0.6360(6) 0.2231(4) 0.4179(4)
C33 C 0.6685(4) 0.3546(3) 0.6469(4)
H23 H 0.6992 0.3494 0.6803
C34 C 0.6300(4) 0.5435(4) 0.3474(4)
H24 H 0.6341 0.5648 0.3965
C35 C 0.5786(4) 0.4081(3) 0.6192(3)
H25 H 0.5511 0.4401 0.6342
H26 H 0.7714 0.0367 0.3320
C37 C 0.6311(4) 0.5875(4) 0.3150(4)
H27 H 0.6389 0.6386 0.3430
C38 C 0.6501(4) 0.0791(3) 0.3459(4)
C42 C 0.6241(4) 0.4208(4) 0.3428(4)
C43 C 0.6602(4) 0.4534(4) 0.4155(4)
H31 H 0.6837 0.5045 0.4405
C44 C 0.6663(4) 0.3182(3) 0.5759(4)
H32 H 0.6956 0.2880 0.5608
C45 C 0.6625(4) 0.4143(4) 0.4502(4)
H33 H 0.6896 0.4379 0.4978
C46 C 0.5745(4) 0.3686(4) 0.5468(4)
H34 H 0.5413 0.3709 0.5131
C47 C 0.6190(5) 0.3262(4) 0.5246(4)
C48 C 0.6040(5) 0.0950(4) 0.3885(4)
H35 H 0.5792 0.0564 0.3947
C49 C 0.5864(6) 0.3020(4) 0.3404(4)
H36 H 0.5620 0.2511 0.3136
C50 C 0.5878(5) 0.3448(4) 0.3112(4)
H37 H 0.5615 0.3221 0.2634
C51 C 0.6903(4) 0.1374(4) 0.3423(4)
H38 H 0.7226 0.1292 0.3147
C52 C 0.6846(5) 0.2112(4) 0.3796(4)
H39 H 0.7140 0.2505 0.3776
C53 C 0.5910(5) 0.1632(4) 0.4231(4)
H40 H 0.5561 0.1698 0.4476
C54 C 0.7340(7) 0.7145(5) 0.9609(5)
H41 H 0.7797 0.7101 0.9620
N3 N 0.6204(4) 0.2935(3) 0.4506(3)
N4 N 0.6886(8) 0.6985(6) 0.8944(6)
O3 O 0.5902(2) 0.5835(2) 0.9907(2)
C12 C 0.6712(3) 0.8608(3) 0.2225(3)
C16 C 0.6791(4) 0.7871(3) 0.1737(3)
C36 C 0.7307(4) 0.9958(4) 0.3063(4)
C39 C 0.6086(3) 0.8697(4) 0.2287(4)
H28 H 0.5686 0.8278 0.2053
C40 C 0.7329(4) 0.9222(3) 0.2640(3)
H29 H 0.7770 0.9140 0.2636
C41 C 0.5996(4) 0.9410(4) 0.2697(4)
H30 H 0.5544 0.9456 0.2716
Cu3 Cu 0.92389(4) 0.66733(4) 0.04995(4)
O21 O 0.9658(3) 0.7834(3) 0.1293(3)
O22 O 0.8904(3) 0.6159(3) 0.1027(3)
C56 C 0.8897(4) 0.0167(4) 0.2360(4)
C57 C 0.8832(4) 0.0972(4) 0.2783(4)
C58 C 0.8526(5) 0.1265(4) 0.2439(4)
H42 H 0.8375 0.1001 0.1939
C59 C 0.9091(4) 0.1356(4) 0.3499(4)
H43 H 0.9297 0.1136 0.3739
C62 C 0.8442(4) 0.6186(4) 0.1357(4)
H47 H 0.9837 0.0355 0.2988
C65 C 0.8700(5) 0.2406(4) 0.3539(4)
C66 C 0.8514(4) 0.4859(4) 0.2426(4)
C67 C 0.8485(4) 0.5765(4) 0.1751(4)
C68 C 0.8843(3) 0.4914(4) 0.8042(3)
H48 H 0.8787 0.4666 0.8309
C69 C 0.9095(4) 0.4306(3) 0.5047(4)
H49 H 0.9289 0.4547 0.4810
C70 C 0.8447(4) 0.3202(4) 0.5041(4)
H50 H 0.8226 0.2689 0.4802
C71 C 0.7977(4) 0.5654(4) 0.2093(4)
H51 H 0.7610 0.5867 0.2087
C72 C 0.8802(4) 0.4509(4) 0.7347(4)
H52 H 0.8719 0.3996 0.7154
C73 C 0.8861(5) 0.4359(4) 0.6126(3)
C74 C 0.8968(4) 0.5700(4) 0.8400(4)
C75 C 0.8533(4) 0.4404(4) 0.2816(4)
C76 C 0.9010(4) 0.6173(5) 0.9130(4)
C77 C 0.8745(5) 0.3539(4) 0.4678(4)
C78 C 0.8417(4) 0.1977(4) 0.2806(4)
H53 H 0.8156 0.2150 0.2552
C79 C 0.9040(4) 0.6027(4) 0.7948(4)
H54 H 0.9124 0.6539 0.8136
C80 C 0.8587(4) 0.3556(4) 0.3508(3)
C81 C 0.8475(4) 0.3616(3) 0.5740(3)
H55 H 0.8228 0.3394 0.5964
C82 C 0.9057(4) 0.4071(4) 0.2811(4)
H56 H 0.9382 0.4113 0.2551
C83 C 0.7992(5) 0.5221(5) 0.2458(5)
H57 H 0.7659 0.5183 0.2711
C84 C 0.8035(5) 0.3855(4) 0.3486(4)
H58 H 0.7658 0.3760 0.3673
C85 C 0.9146(4) 0.4699(4) 0.5771(4)
H59 H 0.9382 0.5209 0.6023
C86 C 0.9056(4) 0.2101(4) 0.3901(4)
H60 H 0.9267 0.2378 0.4395
C87 C 0.8878(4) 0.4817(4) 0.6911(4)
C88 C 0.8980(5) 0.5379(4) 0.1739(5)
H61 H 0.9273 0.5366 0.1438
C89 C 0.9079(5) 0.5013(5) 0.2132(4)
H62 H 0.9490 0.4877 0.2199
C90 C 0.9125(5) 0.3651(4) 0.3199(4)
H63 H 0.9506 0.3462 0.3232
C92 C 0.8074(4) 0.4298(4) 0.3173(4)
H64 H 0.7740 0.4557 0.3215
C93 C 0.8989(5) 0.5595(4) 0.7248(4)
H65 H 0.9029 0.5827 0.6966
N5 N 0.8674(4) 0.3136(3) 0.3885(3)
O11 O 0.9305(3) 0.6835(3) 0.9487(3)
O12 O 0.8832(3) 0.5825(3) 0.9469(3)
C55 C 0.9035(4) 0.8766(4) 0.1650(4)
C60 C 0.9515(4) 0.9244(4) 0.2248(4)
H44 H 0.9874 0.9108 0.2442
C61 C 0.8437(4) 0.9644(4) 0.1735(4)
H45 H 0.8063 0.9762 0.1539
C63 C 0.8496(4) 0.8947(4) 0.1374(4)
H46 H 0.8166 0.8595 0.0939
C64 C 0.9469(5) 0.9985(4) 0.2593(5)
C91 C 0.9119(4) 0.7986(4) 0.1238(4)
C55_2 C 0.0965(4) 0.1234(4) 0.8350(4)
C60_2 C 0.0485(4) 0.0756(4) 0.7752(4)
H44_2 H 0.0126 0.0892 0.7558
C61_2 C 0.1563(4) 0.0356(4) 0.8265(4)
H45_2 H 0.1937 0.0238 0.8461
C63_2 C 0.1504(4) 0.1053(4) 0.8626(4)
H46_2 H 0.1834 0.1405 0.9061
C64_2 C 0.0531(5) 0.0015(4) 0.7407(5)
C91_2 C 0.0881(4) 0.2014(4) 0.8762(4)
O9 O 0.1470(3) 0.2575(3) 0.9252(3)
O10 O 0.0342(3) 0.2166(3) 0.8707(3)
Cu6 Cu 0.23653(4) 0.29624(4) 0.90925(4)
Cu9 Cu 0.07611(4) 0.33267(4) 0.95005(4)
C56_2 C 0.1103(4) 0.9833(4) 0.7640(4)
C57_2 C 0.1168(4) 0.9028(4) 0.7217(4)
C58_2 C 0.1474(5) 0.8735(4) 0.7561(4)
H42_2 H 0.1625 0.8999 0.8061
C59_2 C 0.0909(4) 0.8644(4) 0.6501(4)
H43_2 H 0.0703 0.8864 0.6261
C62_2 C 0.1558(4) 0.3814(4) 0.8643(4)
H47_2 H 0.0163 0.9645 0.7012
C65_2 C 0.1300(5) 0.7594(4) 0.6461(4)
C66_2 C 0.1486(4) 0.5141(4) 0.7574(4)
C67_2 C 0.1515(4) 0.4235(4) 0.8249(4)
C68_2 C 0.1157(3) 0.5086(4) 0.1958(3)
H48_2 H 0.1213 0.5334 0.1691
C69_2 C 0.0905(4) 0.5694(3) 0.4953(4)
H49_2 H 0.0711 0.5453 0.5190
C70_2 C 0.1553(4) 0.6798(4) 0.4959(4)
H50_2 H 0.1774 0.7311 0.5198
C71_2 C 0.2023(4) 0.4346(4) 0.7907(4)
H51_2 H 0.2390 0.4133 0.7913
C72_2 C 0.1198(4) 0.5491(4) 0.2653(4)
H52_2 H 0.1281 0.6004 0.2846
C73_2 C 0.1139(5) 0.5641(4) 0.3874(3)
C74_2 C 0.1032(4) 0.4300(4) 0.1600(4)
C75_2 C 0.1467(4) 0.5596(4) 0.7184(4)
C76_2 C 0.0990(4) 0.3827(5) 0.0870(4)
C77_2 C 0.1255(5) 0.6461(4) 0.5322(4)
C78_2 C 0.1583(4) 0.8023(4) 0.7194(4)
H53_2 H 0.1844 0.7850 0.7448
C79_2 C 0.0960(4) 0.3973(4) 0.2052(4)
H54_2 H 0.0876 0.3461 0.1864
C80_2 C 0.1413(4) 0.6444(4) 0.6492(3)
C81_2 C 0.1525(4) 0.6384(3) 0.4260(3)
H55_2 H 0.1772 0.6606 0.4036
C82_2 C 0.0943(4) 0.5929(4) 0.7189(4)
H56_2 H 0.0618 0.5887 0.7449
C83_2 C 0.2008(5) 0.4779(5) 0.7542(5)
H57_2 H 0.2341 0.4817 0.7289
C84_2 C 0.1965(5) 0.6145(4) 0.6514(4)
H58_2 H 0.2342 0.6240 0.6327
C85_2 C 0.0854(4) 0.5301(4) 0.4229(4)
H59_2 H 0.0618 0.4791 0.3977
C86_2 C 0.0944(4) 0.7899(4) 0.6099(4)
H60_2 H 0.0733 0.7622 0.5605
C87_2 C 0.1122(4) 0.5183(4) 0.3089(4)
C88_2 C 0.1020(5) 0.4621(4) 0.8261(5)
H61_2 H 0.0727 0.4634 0.8562
C89_2 C 0.0921(5) 0.4987(5) 0.7868(4)
H62_2 H 0.0510 0.5123 0.7801
C90_2 C 0.0875(5) 0.6349(4) 0.6801(4)
H63_2 H 0.0494 0.6538 0.6768
C92_2 C 0.1926(4) 0.5702(4) 0.6827(4)
H64_2 H 0.2260 0.5443 0.6785
C93_2 C 0.1011(5) 0.4405(4) 0.2752(4)
H65_2 H 0.0971 0.4173 0.3034
N5_2 N 0.1326(4) 0.6864(3) 0.6115(3)
O8 O 0.1950(2) 0.3370(2) 0.8473(2)
O11_2 O 0.0695(3) 0.3165(3) 0.0513(3)
O12_2 O 0.1168(3) 0.4175(3) 0.0531(3)
O13 O 0.1096(3) 0.3841(3) 0.8973(3)
C12_2 C 0.3288(3) 0.1392(3) 0.7775(3)
C16_2 C 0.3209(4) 0.2129(3) 0.8263(3)
C36_2 C 0.2693(4) 0.0042(4) 0.6937(4)
C39_2 C 0.3914(3) 0.1303(4) 0.7713(4)
H28_2 H 0.4314 0.1722 0.7947
C40_2 C 0.2671(4) 0.0778(3) 0.7360(3)
H29_2 H 0.2230 0.0860 0.7364
C41_2 C 0.4004(4) 0.0590(4) 0.7303(4)
H30_2 H 0.4456 0.0544 0.7284
O1 O 0.2606(2) 0.2192(2) 0.8284(2)
O5 O 0.3797(2) 0.2651(2) 0.8642(3)
Cu4 Cu 0.41048(4) 0.37079(4) 0.90713(4)
C1_2 C 0.3836(9) 0.3018(9) 0.1008(10)
H1_2 H 0.3922 0.3112 0.0623
H2_2 H 0.4169 0.3403 0.1453
H3_2 H 0.3893 0.2541 0.0915
C2_2 C 0.2792(11) 0.3258(10) 0.1699(8)
H4_2 H 0.2772 0.2906 0.1876
H5_2 H 0.3083 0.3745 0.2075
H6_2 H 0.2320 0.3275 0.1551
H8_2 H 0.6650 0.4599 0.0379
C6_2 C 0.3525(4) 0.4242(3) 0.0256(3)
C7_2 C 0.3926(3) 0.5254(3) 0.8029(4)
H9_2 H 0.4014 0.5492 0.8527
C9_2 C 0.3703(4) 0.5583(3) 0.2513(3)
C10_2 C 0.3593(3) 0.4694(3) 0.1036(3)
C11_2 C 0.3798(3) 0.4444(3) 0.7616(3)
C13_2 C 0.3761(4) 0.5997(3) 0.3301(4)
C14_2 C 0.4313(3) 0.5421(3) 0.2277(3)
H11_2 H 0.4754 0.5596 0.2606
C15_2 C 0.4233(3) 0.5005(3) 0.1558(3)
H12_2 H 0.4638 0.4924 0.1409
C17_2 C 0.3422(4) 0.9980(4) 0.6939(3)
H15_2 H 0.9923 0.4392 0.0237
C21_2 C 0.3839(3) 0.4004(4) 0.8006(4)
C22_2 C 0.3050(3) 0.5271(4) 0.1974(4)
H16_2 H 0.2642 0.5356 0.2114
H17_2 H 0.5497 0.4531 0.0234
C25_2 C 0.3914(4) 0.5647(3) 0.7675(4)
H18_2 H 0.4009 0.6161 0.7950
C27_2 C 0.3771(4) 0.5350(3) 0.6928(4)
C29_2 C 0.2990(3) 0.4856(3) 0.1270(3)
H21_2 H 0.2551 0.4675 0.0935
C31_2 C 0.3770(4) 0.6655(4) 0.5855(4)
C32_2 C 0.3640(6) 0.7769(4) 0.5821(4)
C33_2 C 0.3315(4) 0.6454(3) 0.3531(4)
H23_2 H 0.3008 0.6506 0.3197
C34_2 C 0.3700(4) 0.4565(4) 0.6526(4)
H24_2 H 0.3659 0.4352 0.6035
C35_2 C 0.4214(4) 0.5919(3) 0.3808(3)
H25_2 H 0.4489 0.5599 0.3658
H26_2 H 0.2286 0.9633 0.6680
C37_2 C 0.3689(4) 0.4125(4) 0.6850(4)
H27_2 H 0.3611 0.3614 0.6570
C38_2 C 0.3499(4) 0.9209(3) 0.6541(4)
C42_2 C 0.3759(4) 0.5792(4) 0.6572(4)
C43_2 C 0.3398(4) 0.5466(4) 0.5845(4)
H31_2 H 0.3163 0.4955 0.5595
C44_2 C 0.3337(4) 0.6818(3) 0.4241(4)
H32_2 H 0.3044 0.7120 0.4392
C45_2 C 0.3375(4) 0.5857(4) 0.5498(4)
H33_2 H 0.3104 0.5621 0.5022
C46_2 C 0.4255(4) 0.6314(4) 0.4532(4)
H34_2 H 0.4587 0.6291 0.4869
C47_2 C 0.3810(5) 0.6738(4) 0.4754(4)
C48_2 C 0.3960(5) 0.9050(4) 0.6115(4)
H35_2 H 0.4208 0.9436 0.6053
C49_2 C 0.4136(6) 0.6980(4) 0.6596(4)
H36_2 H 0.4380 0.7489 0.6864
C50_2 C 0.4122(5) 0.6552(4) 0.6888(4)
H37_2 H 0.4385 0.6779 0.7366
C51_2 C 0.3097(4) 0.8626(4) 0.6577(4)
H38_2 H 0.2774 0.8708 0.6853
C52_2 C 0.3154(5) 0.7888(4) 0.6204(4)
H39_2 H 0.2860 0.7495 0.6224
C53_2 C 0.4090(5) 0.8368(4) 0.5769(4)
H40_2 H 0.4439 0.8302 0.5524
C54_2 C 0.2660(7) 0.2855(5) 0.0391(5)
H41_2 H 0.2203 0.2899 0.0380
N3_2 N 0.3796(4) 0.7065(3) 0.5494(3)
N4_2 N 0.3114(8) 0.3015(6) 0.1056(6)
O2 O 0.3838(2) 0.4300(2) 0.8635(2)
O3_2 O 0.4098(2) 0.4165(2) 0.0093(2)
O4 O 0.3925(2) 0.3359(3) 0.7660(2)
C3_2 C 0.6585(4) 0.3889(4) 0.9330(4)
C4_2 C 0.6141(3) 0.3423(3) 0.8717(4)
H7_2 H 0.6292 0.3099 0.8345
C5_2 C 0.6333(3) 0.4297(3) 0.9924(4)
C8_2 C 0.5356(3) 0.3404(3) 0.8602(4)
H10_2 H 0.5039 0.3124 0.8146
C18_2 C 0.7331(4) 0.3933(4) 0.9436(4)
H13_2 H 0.7625 0.4294 0.9889
C19_2 C 0.7637(5) 0.3558(5) 0.9008(5)
H14_2 H 0.7375 0.3249 0.8530
C20_2 C 0.9574(4) 0.4036(5) 0.9817(5)
C23_2 C 0.8392(5) 0.3569(6) 0.9207(8)
C24_2 C 0.5641(3) 0.4249(3) 0.9834(3)
C26_2 C 0.8923(5) 0.4128(5) 0.9675(5)
H19_2 H 0.8863 0.4597 0.9918
C28_2 C 0.8430(7) 0.2984(8) 0.8624(6)
H20_2 H 0.8049 0.2663 0.8220
C30_2 C 0.9235(7) 0.2908(9) 0.8715(7)
H22_2 H 0.9353 0.2533 0.8354
N1_2 N 0.9714(3) 0.3413(4) 0.9336(4)
N2_2 N 0.5134(2) 0.3813(2) 0.9191(3)
O6_2 O 0.2925(2) 0.3979(2) 0.9815(3)
O7_2 O 0.2849(3) 0.2663(3) 0.9833(3)
loop_
_geom_bond_atom_site_label_1
_geom_bond_atom_site_label_2
_geom_bond_site_symmetry_1
_geom_bond_site_symmetry_2
C3 C4 1_555 1_555
C4 H7 1_555 1_555
C5 C3 1_555 1_555
C8 C4 1_555 1_555
H10 C8 1_555 1_555
C18 C3 1_555 1_555
H13 C18 1_555 1_555
C19 C18 1_555 1_555
H14 C19 1_555 1_555
C23 C19 1_555 1_555
C24 C5 1_555 1_555
C26 C20 1_555 1_555
H19 C26 1_555 1_555
C28 C23 1_555 1_555
H20 C28 1_555 1_555
C30 C28 1_555 1_555
H22 C30 1_555 1_555
N1 C20 1_555 1_555
N2 C8 1_555 1_555
Cu1 N2 1_555 1_555
Cu2 O6 1_555 1_555
O14 Cu2 1_555 1_555
O15 Cu1 1_555 1_555
O16 Cu1 1_555 1_555
O17 Cu1 1_555 1_555
O18 Cu2 1_555 1_555
O20 Cu2 1_555 1_555
C23 C26 1_555 1_555
C24 N2 1_555 1_555
C30 N1 1_555 1_555
O7 Cu2 1_555 1_555
C1 H1 1_555 1_555
H2 C1 1_555 1_555
H3 C1 1_555 1_555
C2 H4 1_555 1_555
H5 C2 1_555 1_555
H6 C2 1_555 1_555
C6 C10 1_555 1_555
C7 H9 1_555 1_555
C9 C13 1_555 1_555
C10 C15 1_555 1_555
C11 C7 1_555 1_555
C13 C33 1_555 1_555
C14 C9 1_555 1_555
H11 C14 1_555 1_555
C15 C14 1_555 1_555
H12 C15 1_555 1_555
C21 C11 1_555 1_555
C22 C9 1_555 1_555
H16 C22 1_555 1_555
C25 C7 1_555 1_555
H18 C25 1_555 1_555
C27 C25 1_555 1_555
C29 C10 1_555 1_555
H21 C29 1_555 1_555
C31 C45 1_555 1_555
C32 C52 1_555 1_555
C33 H23 1_555 1_555
C34 C27 1_555 1_555
H24 C34 1_555 1_555
C35 C13 1_555 1_555
H25 C35 1_555 1_555
C37 C11 1_555 1_555
H27 C37 1_555 1_555
C38 C17 1_555 1_555
C42 C27 1_555 1_555
C43 C42 1_555 1_555
H31 C43 1_555 1_555
C44 C33 1_555 1_555
H32 C44 1_555 1_555
C45 C43 1_555 1_555
H33 C45 1_555 1_555
C46 C35 1_555 1_555
H34 C46 1_555 1_555
C47 C44 1_555 1_555
C48 C38 1_555 1_555
H35 C48 1_555 1_555
C49 C31 1_555 1_555
H36 C49 1_555 1_555
C50 C42 1_555 1_555
H37 C50 1_555 1_555
C51 C38 1_555 1_555
H38 C51 1_555 1_555
C52 C51 1_555 1_555
H39 C52 1_555 1_555
C53 C32 1_555 1_555
H40 C53 1_555 1_555
C54 H41 1_555 1_555
N3 C31 1_555 1_555
N4 C1 1_555 1_555
O15 C21 1_555 1_555
O3 C6 1_555 1_555
O16 C21 1_555 1_555
C2 N4 1_555 1_555
C22 C29 1_555 1_555
C32 N3 1_555 1_555
C34 C37 1_555 1_555
C46 C47 1_555 1_555
C47 N3 1_555 1_555
C48 C53 1_555 1_555
C49 C50 1_555 1_555
C54 N4 1_555 1_555
C12 C16 1_555 1_555
C16 O14 1_555 1_555
C39 C12 1_555 1_555
H28 C39 1_555 1_555
C40 C12 1_555 1_555
H29 C40 1_555 1_555
H30 C41 1_555 1_555
O17 C16 1_555 1_555
C36 C40 1_555 1_555
C39 C41 1_555 1_555
O20 Cu3 1_555 1_555
O21 Cu3 1_555 1_555
O22 Cu3 1_555 1_555
C56 C57 1_555 1_555
C57 C58 1_555 1_555
C58 H42 1_555 1_555
C59 C57 1_555 1_555
H43 C59 1_555 1_555
C62 C67 1_555 1_555
C65 C78 1_555 1_555
C66 C75 1_555 1_555
C67 C71 1_555 1_555
C68 H48 1_555 1_555
C69 H49 1_555 1_555
C70 H50 1_555 1_555
C71 H51 1_555 1_555
C72 C68 1_555 1_555
H52 C72 1_555 1_555
C73 C81 1_555 1_555
C74 C68 1_555 1_555
C75 C82 1_555 1_555
C76 C74 1_555 1_555
C77 C69 1_555 1_555
C78 C58 1_555 1_555
H53 C78 1_555 1_555
C79 C74 1_555 1_555
H54 C79 1_555 1_555
C80 C84 1_555 1_555
C81 C70 1_555 1_555
H55 C81 1_555 1_555
C82 H56 1_555 1_555
C83 C66 1_555 1_555
H57 C83 1_555 1_555
C84 H58 1_555 1_555
C85 C69 1_555 1_555
H59 C85 1_555 1_555
C86 C59 1_555 1_555
H60 C86 1_555 1_555
C87 C72 1_555 1_555
C88 C67 1_555 1_555
H61 C88 1_555 1_555
C89 C66 1_555 1_555
H62 C89 1_555 1_555
C90 C80 1_555 1_555
H63 C90 1_555 1_555
C92 C75 1_555 1_555
H64 C92 1_555 1_555
C93 C79 1_555 1_555
H65 C93 1_555 1_555
N5 C65 1_555 1_555
O18 C62 1_555 1_555
O11 C76 1_555 1_555
O12 C76 1_555 1_555
O22 C62 1_555 1_555
C65 C86 1_555 1_555
C70 C77 1_555 1_555
C71 C83 1_555 1_555
C73 C85 1_555 1_555
C73 C87 1_555 1_555
C77 N5 1_555 1_555
C80 N5 1_555 1_555
C82 C90 1_555 1_555
C84 C92 1_555 1_555
C87 C93 1_555 1_555
C88 C89 1_555 1_555
C55 C60 1_555 1_555
C60 H44 1_555 1_555
H45 C61 1_555 1_555
C63 C55 1_555 1_555
H46 C63 1_555 1_555
C91 C55 1_555 1_555
O20 C91 1_555 1_555
O21 C91 1_555 1_555
C60 C64 1_555 1_555
C61 C63 1_555 1_555
C55_2 C60_2 1_555 1_555
C60_2 H44_2 1_555 1_555
H45_2 C61_2 1_555 1_555
C63_2 C55_2 1_555 1_555
H46_2 C63_2 1_555 1_555
C91_2 C55_2 1_555 1_555
O9 C91_2 1_555 1_555
O10 C91_2 1_555 1_555
Cu6 O9 1_555 1_555
Cu9 O9 1_555 1_555
C60_2 C64_2 1_555 1_555
C61_2 C63_2 1_555 1_555
O10 Cu9 1_555 1_555
C56_2 C57_2 1_555 1_555
C57_2 C58_2 1_555 1_555
C58_2 H42_2 1_555 1_555
C59_2 C57_2 1_555 1_555
H43_2 C59_2 1_555 1_555
C62_2 C67_2 1_555 1_555
C65_2 C78_2 1_555 1_555
C66_2 C75_2 1_555 1_555
C67_2 C71_2 1_555 1_555
C68_2 H48_2 1_555 1_555
C69_2 H49_2 1_555 1_555
C70_2 H50_2 1_555 1_555
C71_2 H51_2 1_555 1_555
C72_2 C68_2 1_555 1_555
H52_2 C72_2 1_555 1_555
C73_2 C81_2 1_555 1_555
C74_2 C68_2 1_555 1_555
C75_2 C82_2 1_555 1_555
C76_2 C74_2 1_555 1_555
C77_2 C69_2 1_555 1_555
C78_2 C58_2 1_555 1_555
H53_2 C78_2 1_555 1_555
C79_2 C74_2 1_555 1_555
H54_2 C79_2 1_555 1_555
C80_2 C84_2 1_555 1_555
C81_2 C70_2 1_555 1_555
H55_2 C81_2 1_555 1_555
C82_2 H56_2 1_555 1_555
C83_2 C66_2 1_555 1_555
H57_2 C83_2 1_555 1_555
C84_2 H58_2 1_555 1_555
C85_2 C69_2 1_555 1_555
H59_2 C85_2 1_555 1_555
C86_2 C59_2 1_555 1_555
H60_2 C86_2 1_555 1_555
C87_2 C72_2 1_555 1_555
C88_2 C67_2 1_555 1_555
H61_2 C88_2 1_555 1_555
C89_2 C66_2 1_555 1_555
H62_2 C89_2 1_555 1_555
C90_2 C80_2 1_555 1_555
H63_2 C90_2 1_555 1_555
C92_2 C75_2 1_555 1_555
H64_2 C92_2 1_555 1_555
C93_2 C79_2 1_555 1_555
H65_2 C93_2 1_555 1_555
N5_2 C65_2 1_555 1_555
O8 C62_2 1_555 1_555
O11_2 C76_2 1_555 1_555
O12_2 C76_2 1_555 1_555
O13 C62_2 1_555 1_555
Cu6 O8 1_555 1_555
Cu9 O13 1_555 1_555
C65_2 C86_2 1_555 1_555
C70_2 C77_2 1_555 1_555
C71_2 C83_2 1_555 1_555
C73_2 C85_2 1_555 1_555
C73_2 C87_2 1_555 1_555
C77_2 N5_2 1_555 1_555
C80_2 N5_2 1_555 1_555
C82_2 C90_2 1_555 1_555
C84_2 C92_2 1_555 1_555
C87_2 C93_2 1_555 1_555
C88_2 C89_2 1_555 1_555
C12_2 C16_2 1_555 1_555
C16_2 O1 1_555 1_555
C39_2 C12_2 1_555 1_555
H28_2 C39_2 1_555 1_555
C40_2 C12_2 1_555 1_555
H29_2 C40_2 1_555 1_555
H30_2 C41_2 1_555 1_555
O1 Cu6 1_555 1_555
O5 C16_2 1_555 1_555
Cu4 O5 1_555 1_555
C36_2 C40_2 1_555 1_555
C39_2 C41_2 1_555 1_555
C1_2 H1_2 1_555 1_555
H2_2 C1_2 1_555 1_555
H3_2 C1_2 1_555 1_555
C2_2 H4_2 1_555 1_555
H5_2 C2_2 1_555 1_555
H6_2 C2_2 1_555 1_555
C6_2 C10_2 1_555 1_555
C7_2 H9_2 1_555 1_555
C9_2 C13_2 1_555 1_555
C10_2 C15_2 1_555 1_555
C11_2 C7_2 1_555 1_555
C13_2 C33_2 1_555 1_555
C14_2 C9_2 1_555 1_555
H11_2 C14_2 1_555 1_555
C15_2 C14_2 1_555 1_555
H12_2 C15_2 1_555 1_555
C21_2 C11_2 1_555 1_555
C22_2 C9_2 1_555 1_555
H16_2 C22_2 1_555 1_555
C25_2 C7_2 1_555 1_555
H18_2 C25_2 1_555 1_555
C27_2 C25_2 1_555 1_555
C29_2 C10_2 1_555 1_555
H21_2 C29_2 1_555 1_555
C31_2 C45_2 1_555 1_555
C32_2 C52_2 1_555 1_555
C33_2 H23_2 1_555 1_555
C34_2 C27_2 1_555 1_555
H24_2 C34_2 1_555 1_555
C35_2 C13_2 1_555 1_555
H25_2 C35_2 1_555 1_555
C37_2 C11_2 1_555 1_555
H27_2 C37_2 1_555 1_555
C38_2 C17_2 1_555 1_555
C42_2 C27_2 1_555 1_555
C43_2 C42_2 1_555 1_555
H31_2 C43_2 1_555 1_555
C44_2 C33_2 1_555 1_555
H32_2 C44_2 1_555 1_555
C45_2 C43_2 1_555 1_555
H33_2 C45_2 1_555 1_555
C46_2 C35_2 1_555 1_555
H34_2 C46_2 1_555 1_555
C47_2 C44_2 1_555 1_555
C48_2 C38_2 1_555 1_555
H35_2 C48_2 1_555 1_555
C49_2 C31_2 1_555 1_555
H36_2 C49_2 1_555 1_555
C50_2 C42_2 1_555 1_555
H37_2 C50_2 1_555 1_555
C51_2 C38_2 1_555 1_555
H38_2 C51_2 1_555 1_555
C52_2 C51_2 1_555 1_555
H39_2 C52_2 1_555 1_555
C53_2 C32_2 1_555 1_555
H40_2 C53_2 1_555 1_555
C54_2 H41_2 1_555 1_555
N3_2 C31_2 1_555 1_555
N4_2 C1_2 1_555 1_555
O2 C21_2 1_555 1_555
O3_2 C6_2 1_555 1_555
O4 C21_2 1_555 1_555
Cu4 O2 1_555 1_555
C2_2 N4_2 1_555 1_555
C22_2 C29_2 1_555 1_555
C32_2 N3_2 1_555 1_555
C34_2 C37_2 1_555 1_555
C46_2 C47_2 1_555 1_555
C47_2 N3_2 1_555 1_555
C48_2 C53_2 1_555 1_555
C49_2 C50_2 1_555 1_555
C54_2 N4_2 1_555 1_555
O4 Cu4 1_555 1_555
C3_2 C4_2 1_555 1_555
C4_2 H7_2 1_555 1_555
C5_2 C3_2 1_555 1_555
C8_2 C4_2 1_555 1_555
H10_2 C8_2 1_555 1_555
C18_2 C3_2 1_555 1_555
H13_2 C18_2 1_555 1_555
C19_2 C18_2 1_555 1_555
H14_2 C19_2 1_555 1_555
C23_2 C19_2 1_555 1_555
C24_2 C5_2 1_555 1_555
C26_2 C20_2 1_555 1_555
H19_2 C26_2 1_555 1_555
C28_2 C23_2 1_555 1_555
H20_2 C28_2 1_555 1_555
C30_2 C28_2 1_555 1_555
H22_2 C30_2 1_555 1_555
N1_2 C20_2 1_555 1_555
N2_2 C8_2 1_555 1_555
Cu4 N2_2 1_555 1_555
Cu6 O6_2 1_555 1_555
C23_2 C26_2 1_555 1_555
C24_2 N2_2 1_555 1_555
C30_2 N1_2 1_555 1_555
O7_2 Cu6 1_555 1_555

#END
