
###############################################################################
#
# This file contains modified crystal structure data generated from the
# MOF subset of the Cambridge Structural Database (CSD) v543 
# hosted by the Cambridge Crystallographic Data Centre (CCDC).
#
# This work is licensed under the Creative Commons
# Attribution-NonCommercial-ShareAlike 4.0 International License.
# To view a copy of this license, visit
# http://creativecommons.org/licenses/by-nc-sa/4.0/
# or send a letter to
# Creative Commons, PO Box 1866, Mountain View, CA 94042, USA.
#
# CIF created using the CSD Python API on 29 September 2022
# The structure has been converted into the P1 space group
# The structure has a 3D framework
# The original CSD entry HUQGOR is in the triclinic crystal system
# The framework has been calculated to contain at least 10.0% void space
# The void calculation uses a probe of radius 1.32A, grid spacing 0.4
#
###############################################################################

data_HUQGOR
_chemical_formula_moiety         '(C186 H130 N10 O26 Zn6)n'
_symmetry_cell_setting           triclinic
_symmetry_space_group_name_H-M   'P 1'
_symmetry_Int_Tables_number      1
_space_group_name_Hall           'P 1'
loop_
_symmetry_equiv_pos_site_id
_symmetry_equiv_pos_as_xyz
1 x,y,z
_cell_length_a                   19.792(5)
_cell_length_b                   20.604(5)
_cell_length_c                   21.471(6)
_cell_angle_alpha                115.799(6)
_cell_angle_beta                 98.322(7)
_cell_angle_gamma                100.882(7)
_cell_volume                     7482.02
loop_
_atom_site_label
_atom_site_type_symbol
_atom_site_fract_x
_atom_site_fract_y
_atom_site_fract_z
C55 C 0.5882(5) 0.2016(5) 0.3764(5)
C56 C 0.5509(4) 0.0768(4) 0.2720(5)
H42 H 0.5169 0.0923 0.2517
C59 C 0.6559(4) 0.0335(4) 0.3247(3)
H43 H 0.6919 0.0191 0.3438
C61 C 0.5983(5) 0.1261(4) 0.3368(4)
C65 C 0.6503(4) 0.1045(4) 0.3619(4)
H44 H 0.6832 0.1382 0.4053
C75 C 0.5542(5) 0.0048(4) 0.2379(5)
O8 O 0.6465(3) 0.2562(3) 0.4267(3)
O11 O 0.5330(3) 0.2158(3) 0.3679(3)
Zn8 Zn 0.73785(4) 0.29748(4) 0.41203(4)
Zn10 Zn 0.57720(4) 0.33341(5) 0.45233(4)
C57 C 0.6542(4) 0.3812(4) 0.3623(4)
C58 C 0.6514(4) 0.4244(4) 0.3240(4)
C60 C 0.6468(4) 0.5120(4) 0.2528(4)
C62 C 0.6275(5) 0.6464(4) 0.0317(4)
C63 C 0.6458(4) 0.5565(4) 0.2158(4)
C64 C 0.6312(4) 0.7584(4) 0.1432(4)
C66 C 0.6104(5) 0.9842(4) 0.2613(4)
C68 C 0.6169(4) 0.9029(4) 0.2174(4)
H45 H 0.6846 0.7286 0.0201
C70 C 0.6559(4) 0.8013(4) 0.2178(4)
H46 H 0.6783 0.7810 0.2431
C73 C 0.6983(5) 0.4760(6) 0.2521(6)
H49 H 0.7318 0.4788 0.2265
C74 C 0.5936(6) 0.4983(6) 0.2851(5)
H50 H 0.5558 0.5186 0.2822
H51 H 0.5178 0.9690 0.1982
C78 C 0.6001(4) 0.7942(4) 0.1095(4)
H52 H 0.5852 0.7695 0.0598
C80 C 0.5904(5) 0.8646(4) 0.1464(4)
H54 H 0.5659 0.8847 0.1224
C81 C 0.6389(5) 0.6435(4) 0.1452(4)
C82 C 0.6487(4) 0.8708(4) 0.2547(4)
H55 H 0.6648 0.8969 0.3043
C84 C 0.7012(5) 0.4346(5) 0.2900(5)
H57 H 0.7387 0.4137 0.2915
H59 H 0.5688 0.5466 0.0206
C88 C 0.5872(5) 0.6312(4) 0.1770(4)
H60 H 0.5493 0.6514 0.1748
C89 C 0.6948(5) 0.5686(5) 0.1836(5)
H61 H 0.7312 0.5458 0.1830
C90 C 0.5928(5) 0.4577(6) 0.3202(6)
H62 H 0.5561 0.4510 0.3414
C91 C 0.6951(5) 0.6145(4) 0.1498(4)
H63 H 0.7329 0.6246 0.1311
C92 C 0.5894(5) 0.5898(4) 0.2121(4)
H64 H 0.5534 0.5831 0.2340
N5 N 0.6339(4) 0.6849(3) 0.1077(3)
O9 O 0.6946(2) 0.3391(2) 0.3496(2)
O13 O 0.6162(3) 0.3888(3) 0.4042(3)
C1 C 0.1106(3) 0.3399(3) 0.3651(3)
H1 H 0.1259 0.3113 0.3256
C2 C 0.1327(4) 0.4300(4) 0.4932(4)
H2 H 0.1650 0.4605 0.5377
C3 C 0.2310(5) 0.3945(5) 0.4455(5)
H3 H 0.2595 0.4315 0.4902
C4 C 0.1566(4) 0.3892(5) 0.4350(5)
C5 C 0.2630(6) 0.3577(5) 0.4046(5)
H4 H 0.2347 0.3243 0.3586
C7 C 0.3871(6) 0.4099(6) 0.4700(5)
H5 H 0.3750 0.4517 0.5008
C8 C 0.3406(6) 0.3568(7) 0.4155(6)
C9 C 0.4606(5) 0.4046(5) 0.4842(5)
H6 H 0.4948 0.4427 0.5246
C10 C 0.3549(7) 0.3038(10) 0.3664(6)
H7 H 0.3202 0.2693 0.3246
C11 C 0.0353(4) 0.3400(4) 0.3633(4)
H8 H 0.0009 0.3098 0.3201
C13 C 0.4260(7) 0.2983(10) 0.3768(10)
H9 H 0.4382 0.2612 0.3400
C34 C 0.0626(4) 0.4263(4) 0.4864(4)
H26 H 0.0474 0.4541 0.5263
N2 N 0.4775(4) 0.3469(4) 0.4403(4)
N3 N 0.0144(3) 0.3825(3) 0.4222(3)
C67 C 0.6037(4) 0.4304(5) 0.6619(4)
C69 C 0.6591(4) 0.6780(4) 0.9954(4)
C71 C 0.6159(4) 0.5079(5) 0.6948(4)
H47 H 0.6215 0.5328 0.6678
C72 C 0.6550(4) 0.6383(4) 0.9241(4)
H48 H 0.6770 0.6619 0.9009
C76 C 0.6167(4) 0.5605(4) 0.8853(4)
C77 C 0.6132(4) 0.5163(4) 0.8091(4)
C79 C 0.5845(5) 0.5250(5) 0.9217(5)
H53 H 0.5603 0.4741 0.8974
C83 C 0.6199(4) 0.5481(4) 0.7660(4)
H56 H 0.6276 0.5998 0.7858
C85 C 0.5948(5) 0.3952(5) 0.7049(5)
H58 H 0.5846 0.3433 0.6851
C86 C 0.5898(4) 0.5687(4) 0.9958(4)
C87 C 0.5979(5) 0.3855(6) 0.5871(5)
C93 C 0.6015(5) 0.4388(4) 0.7763(4)
H65 H 0.5980 0.4152 0.8045
O10 O 0.6176(3) 0.4190(3) 0.5525(3)
O12 O 0.5698(4) 0.3184(4) 0.5543(3)
C12 C 0.8236(4) 0.2137(4) 0.3297(3)
C16 C 0.8306(4) 0.1419(4) 0.2811(3)
C24 C 0.7697(5) 0.0804(4) 0.2392(4)
H14 H 0.7243 0.0867 0.2376
C33 C 0.7794(5) 0.0094(4) 0.2000(4)
C45 C 0.9009(5) 0.0590(4) 0.2316(4)
H33 H 0.9463 0.0537 0.2296
C52 C 0.8926(4) 0.1304(4) 0.2734(4)
H39 H 0.9330 0.1714 0.2968
O1 O 0.7622(3) 0.2220(3) 0.3303(2)
O2 O 0.8809(3) 0.2645(3) 0.3701(3)
Zn5 Zn 0.90931(4) 0.37072(4) 0.40987(4)
C17 C 0.8818(3) 0.4452(4) 0.2643(4)
C18 C 0.8864(4) 0.4000(4) 0.3012(4)
C20 C 0.8783(4) 0.5325(4) 0.1929(4)
C21 C 0.8708(4) 0.4110(4) 0.1887(4)
H11 H 0.8623 0.3593 0.1618
C22 C 0.8912(4) 0.5237(4) 0.3037(4)
H12 H 0.8986 0.5472 0.3532
C23 C 0.8728(4) 0.4576(5) 0.1547(4)
H13 H 0.8705 0.4366 0.1061
C27 C 0.9134(5) 0.6531(4) 0.1906(4)
H16 H 0.9354 0.6760 0.2393
H25 H 0.7397 0.9677 0.1765
C35 C 0.8447(4) 0.9993(4) 0.1950(4)
C36 C 0.8512(4) 0.9211(4) 0.1512(4)
C37 C 0.8774(5) 0.6644(4) 0.0839(3)
C38 C 0.8212(5) 0.7906(4) 0.1209(4)
H27 H 0.7940 0.7510 0.1245
C41 C 0.9111(4) 0.8399(4) 0.0771(4)
H30 H 0.9455 0.8344 0.0514
C42 C 0.8464(4) 0.5477(4) 0.0868(4)
H31 H 0.8261 0.4959 0.0614
C44 C 0.8682(5) 0.7775(4) 0.0817(4)
C46 C 0.9165(6) 0.6954(5) 0.1543(4)
H34 H 0.9450 0.7449 0.1776
C48 C 0.8783(4) 0.5786(4) 0.1550(4)
C49 C 0.8892(4) 0.5637(4) 0.2675(4)
H36 H 0.8954 0.6151 0.2938
C50 C 0.8111(4) 0.8624(4) 0.1571(4)
H37 H 0.7781 0.8700 0.1844
C51 C 0.8420(5) 0.5888(5) 0.0520(4)
H38 H 0.8143 0.5653 0.0051
C53 C 0.8974(5) 0.9076(4) 0.1133(5)
H40 H 0.9240 0.9480 0.1103
N4 N 0.8836(4) 0.7090(4) 0.0508(3)
O4 O 0.8851(2) 0.4313(3) 0.3662(2)
O6 O 0.8933(3) 0.3353(3) 0.2695(2)
C6 C 0.8530(5) 0.4262(3) 0.5291(4)
C14 C 0.9260(4) 0.5010(4) 0.6566(3)
H10 H 0.9662 0.4911 0.6412
C15 C 0.8726(4) 0.5604(4) 0.7539(4)
C19 C 0.8774(4) 0.6018(4) 0.8298(4)
C25 C 0.8590(4) 0.4729(3) 0.6076(4)
C26 C 0.9304(4) 0.5438(4) 0.7282(3)
H15 H 0.9746 0.5624 0.7607
C28 C 0.9266(4) 0.6300(4) 0.9518(4)
H17 H 0.9591 0.6263 0.9852
C29 C 0.8854(14) 0.2917(12) 0.5974(14)
H18 H 0.9025 0.2688 0.6246
H19 H 0.9152 0.3421 0.6168
H20 H 0.8863 0.2631 0.5485
C30 C 0.8815(5) 0.6741(4) 0.9748(4)
C31 C 0.7988(4) 0.4870(3) 0.6311(3)
H21 H 0.7543 0.4669 0.5986
C32 C 0.7740(13) 0.3058(15) 0.6612(8)
H22 H 0.7233 0.2882 0.6419
H23 H 0.7876 0.3585 0.6947
H24 H 0.7882 0.2788 0.6852
C39 C 0.9239(5) 0.5922(4) 0.8819(4)
H28 H 0.9520 0.5598 0.8669
C40 C 0.8054(4) 0.5309(4) 0.7027(4)
H29 H 0.7654 0.5417 0.7181
C43 C 0.8369(5) 0.6852(4) 0.9254(4)
H32 H 0.8101 0.7189 0.9412
C47 C 0.8331(4) 0.6473(4) 0.8557(4)
H35 H 0.7998 0.6513 0.8232
C54 C 0.7817(14) 0.2841(6) 0.5441(7)
H41 H 0.7400 0.2985 0.5473
N1 N 0.8105(10) 0.2932(6) 0.6008(5)
O3 O 0.9089(3) 0.4166(2) 0.5117(2)
O5 O 0.7895(3) 0.4012(3) 0.4868(3)
O7 O 0.7872(3) 0.2626(3) 0.4832(3)
C6_2 C 0.1470(5) 0.5738(3) 0.4709(4)
C14_2 C 0.0740(4) 0.4990(4) 0.3434(3)
H10_2 H 0.0338 0.5089 0.3588
C15_2 C 0.1274(4) 0.4396(4) 0.2461(4)
C19_2 C 0.1226(4) 0.3982(4) 0.1702(4)
C25_2 C 0.1410(4) 0.5271(3) 0.3924(4)
C26_2 C 0.0696(4) 0.4562(4) 0.2718(3)
H15_2 H 0.0254 0.4376 0.2393
C28_2 C 0.0734(4) 0.3700(4) 0.0482(4)
H17_2 H 0.0409 0.3737 0.0148
C29_2 C 0.1146(14) 0.7083(12) 0.4026(14)
H18_2 H 0.0975 0.7312 0.3754
H19_2 H 0.0848 0.6579 0.3832
H20_2 H 0.1137 0.7369 0.4515
C30_2 C 0.1185(5) 0.3259(4) 0.0252(4)
C31_2 C 0.2012(4) 0.5130(3) 0.3689(3)
H21_2 H 0.2457 0.5331 0.4014
C32_2 C 0.2260(13) 0.6942(15) 0.3388(8)
H22_2 H 0.2767 0.7118 0.3581
H23_2 H 0.2124 0.6415 0.3053
H24_2 H 0.2118 0.7212 0.3148
C39_2 C 0.0761(5) 0.4078(4) 0.1181(4)
H28_2 H 0.0480 0.4402 0.1331
C40_2 C 0.1946(4) 0.4691(4) 0.2973(4)
H29_2 H 0.2346 0.4583 0.2819
C43_2 C 0.1631(5) 0.3148(4) 0.0746(4)
H32_2 H 0.1899 0.2811 0.0588
C47_2 C 0.1669(4) 0.3527(4) 0.1443(4)
H35_2 H 0.2002 0.3487 0.1768
C54_2 C 0.2183(14) 0.7159(6) 0.4559(7)
H41_2 H 0.2600 0.7015 0.4527
N1_2 N 0.1895(10) 0.7068(6) 0.3992(5)
O3_2 O 0.0911(3) 0.5834(2) 0.4883(2)
O5_2 O 0.2105(3) 0.5988(3) 0.5132(3)
O7_2 O 0.2128(3) 0.7374(3) 0.5168(3)
Zn1 Zn 0.09069(4) 0.62928(4) 0.59013(4)
Zn2 Zn 0.26215(4) 0.70252(4) 0.58797(4)
O14 O 0.2378(3) 0.7780(3) 0.6697(2)
O15 O 0.1191(3) 0.7355(3) 0.6299(3)
O16 O 0.1149(2) 0.5687(3) 0.6338(2)
O17 O 0.3535(3) 0.7438(3) 0.5733(3)
O19 O 0.3054(2) 0.6609(2) 0.6504(2)
C17_2 C 0.1182(3) 0.5548(4) 0.7357(4)
C18_2 C 0.1136(4) 0.6000(4) 0.6988(4)
C20_2 C 0.1217(4) 0.4675(4) 0.8071(4)
C21_2 C 0.1292(4) 0.5890(4) 0.8113(4)
H11_2 H 0.1377 0.6407 0.8382
C22_2 C 0.1088(4) 0.4763(4) 0.6963(4)
H12_2 H 0.1014 0.4528 0.6468
C23_2 C 0.1272(4) 0.5424(5) 0.8453(4)
H13_2 H 0.1295 0.5634 0.8939
C27_2 C 0.0866(5) 0.3469(4) 0.8094(4)
H16_2 H 0.0646 0.3240 0.7607
H25_2 H 0.2603 0.0323 0.8235
C35_2 C 0.1553(4) 0.0007(4) 0.8050(4)
C36_2 C 0.1488(4) 0.0789(4) 0.8488(4)
C37_2 C 0.1226(5) 0.3356(4) 0.9161(3)
C38_2 C 0.1788(5) 0.2094(4) 0.8791(4)
H27_2 H 0.2060 0.2490 0.8755
C41_2 C 0.0889(4) 0.1601(4) 0.9229(4)
H30_2 H 0.0545 0.1656 0.9486
C42_2 C 0.1536(4) 0.4523(4) 0.9132(4)
H31_2 H 0.1739 0.5041 0.9386
C44_2 C 0.1318(5) 0.2225(4) 0.9183(4)
C46_2 C 0.0835(6) 0.3046(5) 0.8457(4)
H34_2 H 0.0550 0.2551 0.8224
C48_2 C 0.1217(4) 0.4214(4) 0.8450(4)
C49_2 C 0.1108(4) 0.4363(4) 0.7325(4)
H36_2 H 0.1046 0.3849 0.7062
C50_2 C 0.1889(4) 0.1376(4) 0.8429(4)
H37_2 H 0.2219 0.1300 0.8156
C51_2 C 0.1580(5) 0.4112(5) 0.9480(4)
H38_2 H 0.1857 0.4347 0.9949
C53_2 C 0.1026(5) 0.0924(4) 0.8867(5)
H40_2 H 0.0760 0.0520 0.8897
N4_2 N 0.1164(4) 0.2910(4) 0.9492(3)
O6_2 O 0.1067(3) 0.6647(3) 0.7305(2)
C12_2 C 0.1764(4) 0.7863(4) 0.6703(3)
C16_2 C 0.1694(4) 0.8581(4) 0.7189(3)
C24_2 C 0.2303(5) 0.9196(4) 0.7608(4)
H14_2 H 0.2757 0.9133 0.7624
C33_2 C 0.2206(5) 0.9906(4) 0.8000(4)
C45_2 C 0.0991(5) 0.9410(4) 0.7684(4)
H33_2 H 0.0537 0.9463 0.7704
C52_2 C 0.1074(4) 0.8696(4) 0.7266(4)
H39_2 H 0.0670 0.8286 0.7032
C1_2 C 0.8894(3) 0.6601(3) 0.6349(3)
H1_2 H 0.8741 0.6887 0.6744
C2_2 C 0.8673(4) 0.5700(4) 0.5068(4)
H2_2 H 0.8350 0.5395 0.4623
C3_2 C 0.7690(5) 0.6055(5) 0.5545(5)
H3_2 H 0.7405 0.5685 0.5098
C4_2 C 0.8434(4) 0.6108(5) 0.5650(5)
C5_2 C 0.7370(6) 0.6423(5) 0.5954(5)
H4_2 H 0.7653 0.6757 0.6414
C7_2 C 0.6129(6) 0.5901(6) 0.5300(5)
H5_2 H 0.6250 0.5483 0.4992
C8_2 C 0.6594(6) 0.6432(7) 0.5845(6)
C9_2 C 0.5394(5) 0.5954(5) 0.5158(5)
H6_2 H 0.5052 0.5573 0.4754
C10_2 C 0.6451(7) 0.6962(10) 0.6336(6)
H7_2 H 0.6798 0.7307 0.6754
C11_2 C 0.9647(4) 0.6600(4) 0.6367(4)
H8_2 H 0.9991 0.6902 0.6799
C13_2 C 0.5740(7) 0.7017(10) 0.6232(10)
H9_2 H 0.5618 0.7388 0.6600
C34_2 C 0.9374(4) 0.5737(4) 0.5136(4)
H26_2 H 0.9526 0.5459 0.4737
N2_2 N 0.5225(4) 0.6531(4) 0.5597(4)
N3_2 N 0.9856(3) 0.6175(3) 0.5778(3)
C67_2 C 0.3963(4) 0.5696(5) 0.3381(4)
C69_2 C 0.3409(4) 0.3220(4) 0.0046(4)
C71_2 C 0.3841(4) 0.4921(5) 0.3052(4)
H47_2 H 0.3785 0.4672 0.3322
C72_2 C 0.3450(4) 0.3617(4) 0.0759(4)
H48_2 H 0.3230 0.3381 0.0991
C76_2 C 0.3833(4) 0.4395(4) 0.1147(4)
C77_2 C 0.3868(4) 0.4837(4) 0.1909(4)
C79_2 C 0.4155(5) 0.4750(5) 0.0783(5)
H53_2 H 0.4397 0.5259 0.1026
C83_2 C 0.3801(4) 0.4519(4) 0.2340(4)
H56_2 H 0.3724 0.4002 0.2142
C85_2 C 0.4052(5) 0.6048(5) 0.2951(5)
H58_2 H 0.4154 0.6567 0.3149
C86_2 C 0.4102(4) 0.4313(4) 0.0042(4)
C87_2 C 0.4021(5) 0.6145(6) 0.4129(5)
C93_2 C 0.3985(5) 0.5612(4) 0.2237(4)
H65_2 H 0.4020 0.5848 0.1955
O10_2 O 0.3824(3) 0.5810(3) 0.4475(3)
O12_2 O 0.4302(4) 0.6816(4) 0.4457(3)
Zn3 Zn 0.42280(4) 0.66659(5) 0.54767(4)
O20 O 0.4670(3) 0.7842(3) 0.6321(3)
O21 O 0.3838(3) 0.6112(3) 0.5958(3)
C57_2 C 0.3458(4) 0.6188(4) 0.6377(4)
C58_2 C 0.3486(4) 0.5756(4) 0.6760(4)
C60_2 C 0.3532(4) 0.4880(4) 0.7472(4)
C62_2 C 0.3725(5) 0.3536(4) 0.9683(4)
C63_2 C 0.3542(4) 0.4435(4) 0.7842(4)
C64_2 C 0.3688(4) 0.2416(4) 0.8568(4)
C66_2 C 0.3896(5) 0.0158(4) 0.7387(4)
C68_2 C 0.3831(4) 0.0971(4) 0.7826(4)
H45_2 H 0.3154 0.2714 0.9799
C70_2 C 0.3441(4) 0.1987(4) 0.7822(4)
H46_2 H 0.3217 0.2190 0.7569
C73_2 C 0.3017(5) 0.5240(6) 0.7479(6)
H49_2 H 0.2682 0.5212 0.7735
C74_2 C 0.4064(6) 0.5017(6) 0.7149(5)
H50_2 H 0.4442 0.4814 0.7178
H51_2 H 0.4822 0.0310 0.8018
C78_2 C 0.3999(4) 0.2058(4) 0.8905(4)
H52_2 H 0.4148 0.2305 0.9402
C80_2 C 0.4096(5) 0.1354(4) 0.8536(4)
H54_2 H 0.4341 0.1153 0.8776
C81_2 C 0.3611(5) 0.3565(4) 0.8548(4)
C82_2 C 0.3513(4) 0.1292(4) 0.7453(4)
H55_2 H 0.3352 0.1031 0.6957
C84_2 C 0.2988(5) 0.5654(5) 0.7100(5)
H57_2 H 0.2613 0.5863 0.7085
H59_2 H 0.4312 0.4534 0.9794
C88_2 C 0.4128(5) 0.3688(4) 0.8230(4)
H60_2 H 0.4507 0.3486 0.8252
C89_2 C 0.3052(5) 0.4314(5) 0.8164(5)
H61_2 H 0.2688 0.4542 0.8170
C90_2 C 0.4072(5) 0.5423(6) 0.6798(6)
H62_2 H 0.4439 0.5490 0.6586
C91_2 C 0.3049(5) 0.3855(4) 0.8502(4)
H63_2 H 0.2671 0.3754 0.8689
C92_2 C 0.4106(5) 0.4102(4) 0.7879(4)
H64_2 H 0.4466 0.4169 0.7660
N5_2 N 0.3661(4) 0.3151(3) 0.8923(3)
C55_2 C 0.4118(5) 0.7984(5) 0.6236(5)
C56_2 C 0.4491(4) 0.9232(4) 0.7280(5)
H42_2 H 0.4831 0.9077 0.7483
C59_2 C 0.3441(4) 0.9665(4) 0.6753(3)
H43_2 H 0.3081 0.9809 0.6562
C61_2 C 0.4017(5) 0.8739(4) 0.6632(4)
C65_2 C 0.3497(4) 0.8955(4) 0.6381(4)
H44_2 H 0.3168 0.8618 0.5947
C75_2 C 0.4458(5) 0.9952(4) 0.7621(5)
loop_
_geom_bond_atom_site_label_1
_geom_bond_atom_site_label_2
_geom_bond_site_symmetry_1
_geom_bond_site_symmetry_2
C55 C61 1_555 1_555
C56 H42 1_555 1_555
C59 H43 1_555 1_555
C61 C56 1_555 1_555
C65 C59 1_555 1_555
H44 C65 1_555 1_555
C75 C56 1_555 1_555
O8 C55 1_555 1_555
O11 C55 1_555 1_555
Zn8 O8 1_555 1_555
Zn10 O8 1_555 1_555
C61 C65 1_555 1_555
O11 Zn10 1_555 1_555
C57 C58 1_555 1_555
C58 C84 1_555 1_555
C60 C63 1_555 1_555
C63 C89 1_555 1_555
C64 C70 1_555 1_555
C68 C66 1_555 1_555
C70 H46 1_555 1_555
C73 C60 1_555 1_555
H49 C73 1_555 1_555
C74 C60 1_555 1_555
H50 C74 1_555 1_555
C78 C64 1_555 1_555
H52 C78 1_555 1_555
C80 C68 1_555 1_555
H54 C80 1_555 1_555
C81 C88 1_555 1_555
C82 C68 1_555 1_555
H55 C82 1_555 1_555
C84 C73 1_555 1_555
H57 C84 1_555 1_555
C88 H60 1_555 1_555
C89 H61 1_555 1_555
C90 C58 1_555 1_555
H62 C90 1_555 1_555
C91 C81 1_555 1_555
H63 C91 1_555 1_555
C92 C63 1_555 1_555
H64 C92 1_555 1_555
N5 C62 1_555 1_555
O9 C57 1_555 1_555
O13 C57 1_555 1_555
Zn8 O9 1_555 1_555
Zn10 O13 1_555 1_555
C64 N5 1_555 1_555
C70 C82 1_555 1_555
C74 C90 1_555 1_555
C78 C80 1_555 1_555
C81 N5 1_555 1_555
C88 C92 1_555 1_555
C89 C91 1_555 1_555
C1 H1 1_555 1_555
C2 H2 1_555 1_555
C3 H3 1_555 1_555
C4 C1 1_555 1_555
C5 C3 1_555 1_555
H4 C5 1_555 1_555
C7 H5 1_555 1_555
C8 C5 1_555 1_555
C9 C7 1_555 1_555
H6 C9 1_555 1_555
C10 C8 1_555 1_555
H7 C10 1_555 1_555
C11 C1 1_555 1_555
H8 C11 1_555 1_555
C13 C10 1_555 1_555
H9 C13 1_555 1_555
C34 C2 1_555 1_555
H26 C34 1_555 1_555
N2 C9 1_555 1_555
N3 C11 1_555 1_555
C67 C71 1_555 1_555
C71 H47 1_555 1_555
C72 C69 1_555 1_555
H48 C72 1_555 1_555
C76 C72 1_555 1_555
C77 C76 1_555 1_555
C79 C76 1_555 1_555
H53 C79 1_555 1_555
C83 C71 1_555 1_555
H56 C83 1_555 1_555
C85 C67 1_555 1_555
H58 C85 1_555 1_555
C87 C67 1_555 1_555
C93 C77 1_555 1_555
H65 C93 1_555 1_555
O10 C87 1_555 1_555
O12 C87 1_555 1_555
Zn10 N2 1_555 1_555
C2 C4 1_555 1_555
C3 C4 1_555 1_555
C7 C8 1_555 1_555
C13 N2 1_555 1_555
C34 N3 1_555 1_555
C77 C83 1_555 1_555
C79 C86 1_555 1_555
C85 C93 1_555 1_555
O10 Zn10 1_555 1_555
O12 Zn10 1_555 1_555
C12 C16 1_555 1_555
C16 C24 1_555 1_555
C24 H14 1_555 1_555
C33 C24 1_555 1_555
H33 C45 1_555 1_555
C52 C16 1_555 1_555
H39 C52 1_555 1_555
O1 C12 1_555 1_555
O2 C12 1_555 1_555
Zn5 O2 1_555 1_555
Zn8 O1 1_555 1_555
C45 C52 1_555 1_555
C17 C18 1_555 1_555
C18 O4 1_555 1_555
C20 C23 1_555 1_555
C21 C17 1_555 1_555
H11 C21 1_555 1_555
C22 C17 1_555 1_555
H12 C22 1_555 1_555
C23 C21 1_555 1_555
H13 C23 1_555 1_555
C27 H16 1_555 1_555
C36 C35 1_555 1_555
C37 C46 1_555 1_555
C38 H27 1_555 1_555
C41 H30 1_555 1_555
C42 H31 1_555 1_555
C44 C38 1_555 1_555
C46 C27 1_555 1_555
H34 C46 1_555 1_555
C48 C20 1_555 1_555
C49 C20 1_555 1_555
H36 C49 1_555 1_555
C50 C36 1_555 1_555
H37 C50 1_555 1_555
C51 C37 1_555 1_555
H38 C51 1_555 1_555
C53 C36 1_555 1_555
H40 C53 1_555 1_555
O4 Zn5 1_555 1_555
O6 C18 1_555 1_555
C22 C49 1_555 1_555
C27 C48 1_555 1_555
C37 N4 1_555 1_555
C38 C50 1_555 1_555
C41 C44 1_555 1_555
C41 C53 1_555 1_555
C42 C48 1_555 1_555
C42 C51 1_555 1_555
C44 N4 1_555 1_555
C6 C25 1_555 1_555
C14 H10 1_555 1_555
C15 C19 1_555 1_555
C19 C39 1_555 1_555
C25 C14 1_555 1_555
C26 C14 1_555 1_555
H15 C26 1_555 1_555
C28 H17 1_555 1_555
C29 H18 1_555 1_555
H19 C29 1_555 1_555
H20 C29 1_555 1_555
C30 C28 1_555 1_555
C31 C25 1_555 1_555
H21 C31 1_555 1_555
C32 H22 1_555 1_555
H23 C32 1_555 1_555
H24 C32 1_555 1_555
C39 C28 1_555 1_555
H28 C39 1_555 1_555
C40 C15 1_555 1_555
H29 C40 1_555 1_555
C43 C30 1_555 1_555
H32 C43 1_555 1_555
C47 C19 1_555 1_555
H35 C47 1_555 1_555
C54 H41 1_555 1_555
N1 C29 1_555 1_555
O3 C6 1_555 1_555
O5 C6 1_555 1_555
O7 C54 1_555 1_555
Zn8 O5 1_555 1_555
C15 C26 1_555 1_555
C31 C40 1_555 1_555
C32 N1 1_555 1_555
C43 C47 1_555 1_555
C54 N1 1_555 1_555
O3 Zn5 1_555 1_555
O7 Zn8 1_555 1_555
C6_2 C25_2 1_555 1_555
C14_2 H10_2 1_555 1_555
C15_2 C19_2 1_555 1_555
C19_2 C39_2 1_555 1_555
C25_2 C14_2 1_555 1_555
C26_2 C14_2 1_555 1_555
H15_2 C26_2 1_555 1_555
C28_2 H17_2 1_555 1_555
C29_2 H18_2 1_555 1_555
H19_2 C29_2 1_555 1_555
H20_2 C29_2 1_555 1_555
C30_2 C28_2 1_555 1_555
C31_2 C25_2 1_555 1_555
H21_2 C31_2 1_555 1_555
C32_2 H22_2 1_555 1_555
H23_2 C32_2 1_555 1_555
H24_2 C32_2 1_555 1_555
C39_2 C28_2 1_555 1_555
H28_2 C39_2 1_555 1_555
C40_2 C15_2 1_555 1_555
H29_2 C40_2 1_555 1_555
C43_2 C30_2 1_555 1_555
H32_2 C43_2 1_555 1_555
C47_2 C19_2 1_555 1_555
H35_2 C47_2 1_555 1_555
C54_2 H41_2 1_555 1_555
N1_2 C29_2 1_555 1_555
O3_2 C6_2 1_555 1_555
O5_2 C6_2 1_555 1_555
O7_2 C54_2 1_555 1_555
Zn2 O5_2 1_555 1_555
O14 Zn2 1_555 1_555
O15 Zn1 1_555 1_555
O16 Zn1 1_555 1_555
O17 Zn2 1_555 1_555
O19 Zn2 1_555 1_555
C15_2 C26_2 1_555 1_555
C31_2 C40_2 1_555 1_555
C32_2 N1_2 1_555 1_555
C43_2 C47_2 1_555 1_555
C54_2 N1_2 1_555 1_555
O3_2 Zn1 1_555 1_555
O7_2 Zn2 1_555 1_555
C17_2 C18_2 1_555 1_555
C18_2 O16 1_555 1_555
C20_2 C23_2 1_555 1_555
C21_2 C17_2 1_555 1_555
H11_2 C21_2 1_555 1_555
C22_2 C17_2 1_555 1_555
H12_2 C22_2 1_555 1_555
C23_2 C21_2 1_555 1_555
H13_2 C23_2 1_555 1_555
C27_2 H16_2 1_555 1_555
C36_2 C35_2 1_555 1_555
C37_2 C46_2 1_555 1_555
C38_2 H27_2 1_555 1_555
C41_2 H30_2 1_555 1_555
C42_2 H31_2 1_555 1_555
C44_2 C38_2 1_555 1_555
C46_2 C27_2 1_555 1_555
H34_2 C46_2 1_555 1_555
C48_2 C20_2 1_555 1_555
C49_2 C20_2 1_555 1_555
H36_2 C49_2 1_555 1_555
C50_2 C36_2 1_555 1_555
H37_2 C50_2 1_555 1_555
C51_2 C37_2 1_555 1_555
H38_2 C51_2 1_555 1_555
C53_2 C36_2 1_555 1_555
H40_2 C53_2 1_555 1_555
O6_2 C18_2 1_555 1_555
C22_2 C49_2 1_555 1_555
C27_2 C48_2 1_555 1_555
C37_2 N4_2 1_555 1_555
C38_2 C50_2 1_555 1_555
C41_2 C44_2 1_555 1_555
C41_2 C53_2 1_555 1_555
C42_2 C48_2 1_555 1_555
C42_2 C51_2 1_555 1_555
C44_2 N4_2 1_555 1_555
C12_2 C16_2 1_555 1_555
C16_2 C24_2 1_555 1_555
C24_2 H14_2 1_555 1_555
C33_2 C24_2 1_555 1_555
H33_2 C45_2 1_555 1_555
C52_2 C16_2 1_555 1_555
H39_2 C52_2 1_555 1_555
O14 C12_2 1_555 1_555
O15 C12_2 1_555 1_555
C45_2 C52_2 1_555 1_555
C1_2 H1_2 1_555 1_555
C2_2 H2_2 1_555 1_555
C3_2 H3_2 1_555 1_555
C4_2 C1_2 1_555 1_555
C5_2 C3_2 1_555 1_555
H4_2 C5_2 1_555 1_555
C7_2 H5_2 1_555 1_555
C8_2 C5_2 1_555 1_555
C9_2 C7_2 1_555 1_555
H6_2 C9_2 1_555 1_555
C10_2 C8_2 1_555 1_555
H7_2 C10_2 1_555 1_555
C11_2 C1_2 1_555 1_555
H8_2 C11_2 1_555 1_555
C13_2 C10_2 1_555 1_555
H9_2 C13_2 1_555 1_555
C34_2 C2_2 1_555 1_555
H26_2 C34_2 1_555 1_555
N2_2 C9_2 1_555 1_555
N3_2 C11_2 1_555 1_555
C67_2 C71_2 1_555 1_555
C71_2 H47_2 1_555 1_555
C72_2 C69_2 1_555 1_555
H48_2 C72_2 1_555 1_555
C76_2 C72_2 1_555 1_555
C77_2 C76_2 1_555 1_555
C79_2 C76_2 1_555 1_555
H53_2 C79_2 1_555 1_555
C83_2 C71_2 1_555 1_555
H56_2 C83_2 1_555 1_555
C85_2 C67_2 1_555 1_555
H58_2 C85_2 1_555 1_555
C87_2 C67_2 1_555 1_555
C93_2 C77_2 1_555 1_555
H65_2 C93_2 1_555 1_555
O10_2 C87_2 1_555 1_555
O12_2 C87_2 1_555 1_555
Zn3 N2_2 1_555 1_555
O17 Zn3 1_555 1_555
O20 Zn3 1_555 1_555
O21 Zn3 1_555 1_555
C2_2 C4_2 1_555 1_555
C3_2 C4_2 1_555 1_555
C7_2 C8_2 1_555 1_555
C13_2 N2_2 1_555 1_555
C34_2 N3_2 1_555 1_555
C77_2 C83_2 1_555 1_555
C79_2 C86_2 1_555 1_555
C85_2 C93_2 1_555 1_555
O10_2 Zn3 1_555 1_555
O12_2 Zn3 1_555 1_555
C57_2 C58_2 1_555 1_555
C58_2 C84_2 1_555 1_555
C60_2 C63_2 1_555 1_555
C63_2 C89_2 1_555 1_555
C64_2 C70_2 1_555 1_555
C68_2 C66_2 1_555 1_555
C70_2 H46_2 1_555 1_555
C73_2 C60_2 1_555 1_555
H49_2 C73_2 1_555 1_555
C74_2 C60_2 1_555 1_555
H50_2 C74_2 1_555 1_555
C78_2 C64_2 1_555 1_555
H52_2 C78_2 1_555 1_555
C80_2 C68_2 1_555 1_555
H54_2 C80_2 1_555 1_555
C81_2 C88_2 1_555 1_555
C82_2 C68_2 1_555 1_555
H55_2 C82_2 1_555 1_555
C84_2 C73_2 1_555 1_555
H57_2 C84_2 1_555 1_555
C88_2 H60_2 1_555 1_555
C89_2 H61_2 1_555 1_555
C90_2 C58_2 1_555 1_555
H62_2 C90_2 1_555 1_555
C91_2 C81_2 1_555 1_555
H63_2 C91_2 1_555 1_555
C92_2 C63_2 1_555 1_555
H64_2 C92_2 1_555 1_555
N5_2 C62_2 1_555 1_555
O19 C57_2 1_555 1_555
O21 C57_2 1_555 1_555
C64_2 N5_2 1_555 1_555
C70_2 C82_2 1_555 1_555
C74_2 C90_2 1_555 1_555
C78_2 C80_2 1_555 1_555
C81_2 N5_2 1_555 1_555
C88_2 C92_2 1_555 1_555
C89_2 C91_2 1_555 1_555
C55_2 C61_2 1_555 1_555
C56_2 H42_2 1_555 1_555
C59_2 H43_2 1_555 1_555
C61_2 C56_2 1_555 1_555
C65_2 C59_2 1_555 1_555
H44_2 C65_2 1_555 1_555
C75_2 C56_2 1_555 1_555
O17 C55_2 1_555 1_555
O20 C55_2 1_555 1_555
C61_2 C65_2 1_555 1_555

#END
