
###############################################################################
#
# This file contains modified crystal structure data generated from the
# MOF subset of the Cambridge Structural Database (CSD) v543 
# hosted by the Cambridge Crystallographic Data Centre (CCDC).
#
# This work is licensed under the Creative Commons
# Attribution-NonCommercial-ShareAlike 4.0 International License.
# To view a copy of this license, visit
# http://creativecommons.org/licenses/by-nc-sa/4.0/
# or send a letter to
# Creative Commons, PO Box 1866, Mountain View, CA 94042, USA.
#
# CIF created using the CSD Python API on 29 September 2022
# The structure has been converted into the P1 space group
# The structure has a 3D framework
# The original CSD entry HUQHOS is in the triclinic crystal system
# The framework has been calculated to contain at least 10.0% void space
# The void calculation uses a probe of radius 1.32A, grid spacing 0.4
#
###############################################################################

data_HUQHOS
_chemical_formula_moiety         '(C182 H126 N10 O26 Zn4)n'
_symmetry_cell_setting           triclinic
_symmetry_space_group_name_H-M   'P 1'
_symmetry_Int_Tables_number      1
_space_group_name_Hall           'P 1'
loop_
_symmetry_equiv_pos_site_id
_symmetry_equiv_pos_as_xyz
1 x,y,z
_cell_length_a                   17.898(4)
_cell_length_b                   20.275(4)
_cell_length_c                   21.796(5)
_cell_angle_alpha                63.375(4)
_cell_angle_beta                 76.644(4)
_cell_angle_gamma                84.876(4)
_cell_volume                     6878.5
loop_
_atom_site_label
_atom_site_type_symbol
_atom_site_fract_x
_atom_site_fract_y
_atom_site_fract_z
C1 C 0.05389(17) 0.04147(19) 0.13588(16)
H1 H 0.0190 0.0319 0.1779
C2 C 0.28900(18) 0.1083(2) 0.09663(19)
H2 H 0.2526 0.1298 0.1198
C3 C 0.12948(17) 0.0477(2) 0.13302(16)
H3 H 0.1457 0.0436 0.1722
C4 C 0.36518(17) 0.11572(19) 0.09228(18)
H4 H 0.3798 0.1425 0.1129
C7 C 0.18319(16) 0.06023(16) 0.07063(15)
C12 C 0.32099(16) 0.03625(16) 0.03429(15)
H5 H 0.3077 0.0079 0.0146
C13 C 0.07842(16) 0.05959(15) 0.02071(14)
C21 C 0.26569(15) 0.06799(16) 0.06615(14)
C25 C 0.15627(16) 0.06547(15) 0.01370(15)
C38 C 0.39671(16) 0.04658(16) 0.03154(15)
H17 H 0.4338 0.0250 0.0090
N1 N 0.42019(13) 0.08577(13) 0.05923(12)
N2 N 0.02708(13) 0.04860(13) 0.08035(12)
Zn6 Zn 0.534960(17) 0.106120(17) 0.049590(15)
Zn10 Zn 0.911410(17) 0.045800(18) 0.088970(16)
O3 O 0.57558(11) 0.00604(10) 0.09729(10)
O4 O 0.77831(11) 0.08351(11) 0.00812(10)
O5 O 0.67226(11) 0.01884(11) 0.14096(10)
O11 O 0.78522(12) 0.21955(12) 0.00925(11)
Zn2 Zn 0.727710(18) 0.117020(18) 0.080630(17)
O14 O 0.76140(11) 0.11601(11) 0.16006(10)
O15 O 0.62870(11) 0.17091(10) 0.06709(10)
O17 O 0.50999(11) 0.14549(11) 0.12334(11)
O19 O 0.88740(11) 0.12174(12) 0.12111(11)
C16 C 0.87774(17) 0.91781(18) 0.19482(16)
C19 C 0.88056(17) 0.24966(17) 0.66894(15)
C22 C 0.88441(17) 0.79145(17) 0.20063(16)
H8 H 0.8864 0.8124 0.1526
C27 C 0.82779(17) 0.12840(15) 0.16112(15)
C29 C 0.84382(17) 0.09979(15) 0.96949(14)
C37 C 0.87412(16) 0.83624(17) 0.23475(15)
C39 C 0.92404(17) 0.15126(17) 0.84891(14)
H18 H 0.9671 0.1380 0.8687
C40 C 0.89552(17) 0.60288(17) 0.34683(15)
C42 C 0.88616(16) 0.68240(17) 0.30905(15)
C43 C 0.83870(17) 0.15548(16) 0.21152(15)
C45 C 0.90041(18) 0.32897(17) 0.52359(14)
C46 C 0.86013(18) 0.21641(18) 0.29853(16)
C51 C 0.85264(16) 0.13298(16) 0.89150(14)
C55 C 0.79790(17) 0.18579(18) 0.78985(15)
H27 H 0.7549 0.1964 0.7700
C59 C 0.83807(19) 0.35094(18) 0.37685(15)
H31 H 0.8065 0.3900 0.3768
C60 C 0.87131(17) 0.72764(18) 0.34416(16)
H32 H 0.8652 0.7062 0.3927
C61 C 0.78837(17) 0.14922(18) 0.86189(16)
H33 H 0.7395 0.1356 0.8904
C63 C 0.86955(17) 0.20696(17) 0.74658(15)
C65 C 0.78600(18) 0.20145(19) 0.29698(17)
H36 H 0.7436 0.2122 0.3247
C67 C 0.83957(19) 0.23097(18) 0.63191(15)
H38 H 0.8049 0.1914 0.6559
C68 C 0.89164(17) 0.71713(17) 0.23671(15)
H39 H 0.9005 0.6887 0.2122
C70 C 0.77560(18) 0.17058(19) 0.25398(16)
H41 H 0.7263 0.1600 0.2536
C71 C 0.7631(2) 0.25946(19) 0.95582(18)
H42 H 0.7111 0.2569 0.9573
C73 C 0.89810(19) 0.33197(18) 0.41164(16)
C74 C 0.93318(17) 0.18925(18) 0.77678(15)
H44 H 0.9821 0.2030 0.7485
C75 C 0.86564(16) 0.80299(18) 0.30775(15)
H45 H 0.8561 0.8319 0.3318
C76 C 0.94170(19) 0.34884(18) 0.56003(16)
H46 H 0.9760 0.3887 0.5358
C77 C 0.87175(19) 0.25490(19) 0.33980(16)
C78 C 0.84974(19) 0.27046(19) 0.55970(16)
H47 H 0.8220 0.2572 0.5356
C79 C 0.9360(2) 0.5618(2) 0.31333(17)
H48 H 0.9595 0.5862 0.2660
C80 C 0.9421(2) 0.48746(19) 0.34726(16)
H49 H 0.9707 0.4626 0.3229
C81 C 0.82525(19) 0.31154(19) 0.34208(16)
H50 H 0.7841 0.3239 0.3198
C82 C 0.90688(19) 0.44749(18) 0.41742(15)
C83 C 0.93148(18) 0.30939(18) 0.63184(16)
H51 H 0.9591 0.3229 0.6559
C84 C 0.91197(18) 0.16739(19) 0.21507(17)
H52 H 0.9542 0.1548 0.1887
C85 C 0.92269(19) 0.1982(2) 0.25797(18)
H53 H 0.9722 0.2067 0.2596
C86 C 0.8627(2) 0.56271(18) 0.41768(15)
H54 H 0.8362 0.5876 0.4428
C87 C 0.8683(2) 0.48689(18) 0.45179(15)
H55 H 0.8453 0.4620 0.4992
C88 C 0.9442(2) 0.2738(2) 0.41110(18)
H56 H 0.9840 0.2599 0.4351
C89 C 0.9316(2) 0.2365(2) 0.37537(19)
H57 H 0.9636 0.1980 0.3748
C90 C 0.7736(4) 0.3511(3) 0.8354(2)
H58 H 0.8036 0.3458 0.7952
H59 H 0.7748 0.4018 0.8267
H60 H 0.7215 0.3359 0.8436
C91 C 0.8871(3) 0.3086(3) 0.8883(3)
H61 H 0.9020 0.3564 0.8809
H62 H 0.9121 0.3002 0.8485
H63 H 0.9019 0.2714 0.9298
N4 N 0.91093(17) 0.37028(15) 0.44928(13)
N5 N 0.8052(2) 0.30548(18) 0.89663(15)
O2 O 0.90553(11) 0.09053(11) 0.99080(10)
O7 O 0.87902(11) 0.94418(11) 0.12873(10)
O12 O 0.88394(14) 0.95708(13) 0.22328(11)
O18 O 0.57841(11) 0.12253(12) 0.95049(10)
O20 O 0.53913(13) 0.22803(13) 0.95106(11)
C5 C 0.64044(16) 0.51039(15) 0.35980(13)
C6 C 0.63842(15) 0.66392(15) 0.28570(14)
C8 C 0.62591(15) 0.98126(15) 0.13296(14)
C9 C 0.63704(15) 0.74498(15) 0.24576(14)
C10 C 0.56752(16) 0.19048(19) 0.91883(14)
C11 C 0.63843(16) 0.39777(16) 0.46994(13)
C14 C 0.60050(16) 0.28084(15) 0.23777(14)
C15 C 0.58248(16) 0.21066(16) 0.15701(15)
C17 C 0.67923(16) 0.86694(16) 0.21774(16)
H7 H 0.7102 0.8967 0.2242
C18 C 0.61949(16) 0.29651(17) 0.69283(14)
C20 C 0.57373(16) 0.17334(15) 0.11380(14)
C23 C 0.63099(16) 0.39095(15) 0.36007(14)
C24 C 0.63120(15) 0.89939(14) 0.17118(14)
C26 C 0.61092(17) 0.31856(16) 0.28023(15)
C28 C 0.60036(17) 0.18531(18) 0.80310(14)
H10 H 0.5987 0.1341 0.8271
C30 C 0.65974(16) 0.29559(16) 0.57560(14)
H11 H 0.6767 0.2477 0.5979
C31 C 0.68226(16) 0.79131(16) 0.25486(16)
H12 H 0.7147 0.7709 0.2863
C32 C 0.57703(17) 0.62052(16) 0.29693(16)
H13 H 0.5343 0.6431 0.2788
C33 C 0.59020(16) 0.22786(17) 0.84020(14)
C34 C 0.57674(18) 0.54413(16) 0.33436(16)
H14 H 0.5340 0.5162 0.3421
C35 C 0.66495(17) 0.32701(16) 0.50401(14)
H15 H 0.6862 0.3008 0.4786
C36 C 0.59018(17) 0.77810(17) 0.19739(16)
H16 H 0.5611 0.7487 0.1888
C41 C 0.58438(18) 0.28770(17) 0.35247(15)
H19 H 0.5598 0.2418 0.3752
C44 C 0.60968(17) 0.43732(16) 0.50869(14)
H20 H 0.5924 0.4851 0.4865
C47 C 0.64443(17) 0.25873(16) 0.13477(15)
H21 H 0.6798 0.2676 0.0931
C48 C 0.65891(17) 0.42221(15) 0.28741(14)
H22 H 0.6845 0.4676 0.2649
C49 C 0.70301(18) 0.55166(17) 0.34950(16)
H23 H 0.7460 0.5288 0.3669
C50 C 0.61284(17) 0.21976(17) 0.73101(15)
H24 H 0.6170 0.1912 0.7069
C52 C 0.60701(18) 0.40511(17) 0.58018(15)
H25 H 0.5893 0.4326 0.6050
C53 C 0.59631(18) 0.30411(18) 0.80370(15)
H26 H 0.5890 0.3326 0.8282
C54 C 0.62969(16) 0.33358(16) 0.61580(14)
C56 C 0.58628(17) 0.85353(16) 0.16222(16)
H28 H 0.5528 0.8742 0.1318
C57 C 0.54031(18) 0.23326(19) 0.25841(16)
H29 H 0.5049 0.2242 0.3001
C58 C 0.59329(18) 0.32313(16) 0.39161(15)
H30 H 0.5737 0.3012 0.4399
C62 C 0.70125(17) 0.62704(17) 0.31330(16)
H34 H 0.7436 0.6546 0.3069
C64 C 0.64912(17) 0.38679(16) 0.24867(14)
H35 H 0.6684 0.4088 0.2004
C66 C 0.53050(18) 0.19775(18) 0.21859(16)
H37 H 0.4890 0.1656 0.2337
C69 C 0.61311(19) 0.33780(18) 0.73134(15)
H40 H 0.6204 0.3887 0.7074
C72 C 0.65306(18) 0.29353(17) 0.17554(16)
H43 H 0.6945 0.3256 0.1608
N3 N 0.64114(14) 0.43092(12) 0.39691(11)
H6 H 0.0605 0.0634 0.9825
H9 H 0.1902 0.0728 0.9717
C5_2 C 0.35956(16) 0.48961(15) 0.64020(13)
C6_2 C 0.36158(15) 0.33608(15) 0.71430(14)
C8_2 C 0.37409(15) 0.01874(15) 0.86704(14)
C9_2 C 0.36296(15) 0.25502(15) 0.75424(14)
C10_2 C 0.43248(16) 0.80952(19) 0.08117(14)
C11_2 C 0.36157(16) 0.60223(16) 0.53006(13)
C14_2 C 0.39950(16) 0.71916(15) 0.76223(14)
C15_2 C 0.41752(16) 0.78934(16) 0.84299(15)
C17_2 C 0.32077(16) 0.13306(16) 0.78226(16)
H7_2 H 0.2898 0.1033 0.7758
C18_2 C 0.38051(16) 0.70349(17) 0.30717(14)
C20_2 C 0.42627(16) 0.82666(15) 0.88620(14)
C23_2 C 0.36901(16) 0.60905(15) 0.63993(14)
C24_2 C 0.36880(15) 0.10061(14) 0.82882(14)
C26_2 C 0.38908(17) 0.68144(16) 0.71977(15)
C28_2 C 0.39964(17) 0.81469(18) 0.19690(14)
H10_2 H 0.4013 0.8659 0.1729
C30_2 C 0.34026(16) 0.70441(16) 0.42440(14)
H11_2 H 0.3233 0.7523 0.4021
C31_2 C 0.31774(16) 0.20869(16) 0.74514(16)
H12_2 H 0.2853 0.2291 0.7137
C32_2 C 0.42297(17) 0.37948(16) 0.70307(16)
H13_2 H 0.4657 0.3569 0.7212
C33_2 C 0.40980(16) 0.77214(17) 0.15980(14)
C34_2 C 0.42326(18) 0.45587(16) 0.66564(16)
H14_2 H 0.4660 0.4838 0.6579
C35_2 C 0.33505(17) 0.67299(16) 0.49599(14)
H15_2 H 0.3138 0.6992 0.5214
C36_2 C 0.40982(17) 0.22190(17) 0.80261(16)
H16_2 H 0.4389 0.2513 0.8112
C41_2 C 0.41562(18) 0.71230(17) 0.64753(15)
H19_2 H 0.4402 0.7582 0.6248
C44_2 C 0.39032(17) 0.56268(16) 0.49131(14)
H20_2 H 0.4076 0.5149 0.5135
C47_2 C 0.35557(17) 0.74127(16) 0.86523(15)
H21_2 H 0.3202 0.7324 0.9069
C48_2 C 0.34109(17) 0.57779(15) 0.71259(14)
H22_2 H 0.3155 0.5324 0.7351
C49_2 C 0.29699(18) 0.44834(17) 0.65050(16)
H23_2 H 0.2540 0.4712 0.6331
C50_2 C 0.38716(17) 0.78024(17) 0.26899(15)
H24_2 H 0.3830 0.8088 0.2931
C52_2 C 0.39299(18) 0.59489(17) 0.41982(15)
H25_2 H 0.4107 0.5674 0.3950
C53_2 C 0.40369(18) 0.69589(18) 0.19630(15)
H26_2 H 0.4110 0.6674 0.1718
C54_2 C 0.37031(16) 0.66642(16) 0.38420(14)
C56_2 C 0.41372(17) 0.14647(16) 0.83778(16)
H28_2 H 0.4472 0.1258 0.8682
C57_2 C 0.45969(18) 0.76674(19) 0.74159(16)
H29_2 H 0.4951 0.7758 0.6999
C58_2 C 0.40671(18) 0.67687(16) 0.60839(15)
H30_2 H 0.4263 0.6988 0.5601
C62_2 C 0.29875(17) 0.37296(17) 0.68670(16)
H34_2 H 0.2564 0.3454 0.6931
C64_2 C 0.35088(17) 0.61321(16) 0.75133(14)
H35_2 H 0.3316 0.5912 0.7996
C66_2 C 0.46950(18) 0.80225(18) 0.78141(16)
H37_2 H 0.5110 0.8344 0.7663
C69_2 C 0.38689(19) 0.66220(18) 0.26866(15)
H40_2 H 0.3796 0.6113 0.2926
C72_2 C 0.34694(18) 0.70647(17) 0.82446(16)
H43_2 H 0.3055 0.6744 0.8392
N3_2 N 0.35886(14) 0.56908(12) 0.60309(11)
O6 O 0.37130(11) 0.82909(10) 0.93291(10)
O8 O 0.49001(11) 0.85451(11) 0.87666(11)
O9 O 0.42159(11) 0.87747(12) 0.04951(10)
O13 O 0.46087(13) 0.77197(13) 0.04894(11)
O16 O 0.12098(11) 0.05582(11) 0.87127(10)
Zn4 Zn 0.465040(17) 0.893880(17) 0.950410(15)
Zn7 Zn 0.272290(18) 0.882980(18) 0.919370(17)
C16_2 C 0.12226(17) 0.08219(18) 0.80518(16)
C19_2 C 0.11944(17) 0.75034(17) 0.33106(15)
C22_2 C 0.11559(17) 0.20855(17) 0.79937(16)
H8_2 H 0.1136 0.1876 0.8474
C27_2 C 0.17221(17) 0.87160(15) 0.83888(15)
C29_2 C 0.15618(17) 0.90021(15) 0.03051(14)
C37_2 C 0.12588(16) 0.16376(17) 0.76525(15)
C39_2 C 0.07596(17) 0.84874(17) 0.15109(14)
H18_2 H 0.0329 0.8620 0.1313
C40_2 C 0.10448(17) 0.39712(17) 0.65317(15)
C42_2 C 0.11384(16) 0.31760(17) 0.69095(15)
C43_2 C 0.16130(17) 0.84452(16) 0.78848(15)
C45_2 C 0.09959(18) 0.67103(17) 0.47641(14)
C46_2 C 0.13987(18) 0.78359(18) 0.70147(16)
C51_2 C 0.14736(16) 0.86702(16) 0.10850(14)
C55_2 C 0.20210(17) 0.81421(18) 0.21015(15)
H27_2 H 0.2451 0.8036 0.2300
C59_2 C 0.16193(19) 0.64906(18) 0.62315(15)
H31_2 H 0.1935 0.6100 0.6232
C60_2 C 0.12869(17) 0.27236(18) 0.65584(16)
H32_2 H 0.1348 0.2938 0.6073
C61_2 C 0.21163(17) 0.85078(18) 0.13811(16)
H33_2 H 0.2605 0.8644 0.1096
C63_2 C 0.13045(17) 0.79304(17) 0.25342(15)
C65_2 C 0.21400(18) 0.79855(19) 0.70302(17)
H36_2 H 0.2564 0.7878 0.6753
C67_2 C 0.16043(19) 0.76903(18) 0.36809(15)
H38_2 H 0.1951 0.8086 0.3441
C68_2 C 0.10836(17) 0.28287(17) 0.76329(15)
H39_2 H 0.0995 0.3113 0.7878
C70_2 C 0.22440(18) 0.82942(19) 0.74602(16)
H41_2 H 0.2737 0.8400 0.7464
C71_2 C 0.2369(2) 0.74054(19) 0.04418(18)
H42_2 H 0.2889 0.7431 0.0427
C73_2 C 0.10190(19) 0.66803(18) 0.58836(16)
C74_2 C 0.06682(17) 0.81075(18) 0.22322(15)
H44_2 H 0.0179 0.7970 0.2515
C75_2 C 0.13436(16) 0.19701(18) 0.69225(15)
H45_2 H 0.1439 0.1681 0.6682
C76_2 C 0.05830(19) 0.65116(18) 0.43997(16)
H46_2 H 0.0240 0.6113 0.4642
C77_2 C 0.12825(19) 0.74510(19) 0.66020(16)
C78_2 C 0.15026(19) 0.72954(19) 0.44030(16)
H47_2 H 0.1780 0.7428 0.4644
C79_2 C 0.0640(2) 0.4382(2) 0.68667(17)
H48_2 H 0.0405 0.4138 0.7340
C80_2 C 0.0579(2) 0.51254(19) 0.65274(16)
H49_2 H 0.0293 0.5374 0.6771
C81_2 C 0.17475(19) 0.68846(19) 0.65792(16)
H50_2 H 0.2159 0.6761 0.6802
C82_2 C 0.09312(19) 0.55251(18) 0.58258(15)
C83_2 C 0.06852(18) 0.69061(18) 0.36816(16)
H51_2 H 0.0409 0.6771 0.3441
C84_2 C 0.08803(18) 0.83261(19) 0.78493(17)
H52_2 H 0.0458 0.8452 0.8113
C85_2 C 0.07731(19) 0.8018(2) 0.74203(18)
H53_2 H 0.0278 0.7933 0.7404
C86_2 C 0.1373(2) 0.43729(18) 0.58232(15)
H54_2 H 0.1638 0.4124 0.5572
C87_2 C 0.1317(2) 0.51311(18) 0.54821(15)
H55_2 H 0.1547 0.5380 0.5008
C88_2 C 0.0558(2) 0.7262(2) 0.58890(18)
H56_2 H 0.0160 0.7401 0.5649
C89_2 C 0.0684(2) 0.7635(2) 0.62463(19)
H57_2 H 0.0364 0.8020 0.6252
C90_2 C 0.2264(4) 0.6489(3) 0.1646(2)
H58_2 H 0.1964 0.6542 0.2048
H59_2 H 0.2252 0.5982 0.1733
H60_2 H 0.2785 0.6641 0.1564
C91_2 C 0.1129(3) 0.6914(3) 0.1117(3)
H61_2 H 0.0980 0.6436 0.1191
H62_2 H 0.0879 0.6998 0.1515
H63_2 H 0.0981 0.7286 0.0702
N4_2 N 0.08907(17) 0.62972(15) 0.55072(13)
N5_2 N 0.1948(2) 0.69452(18) 0.10337(15)
O1 O 0.23860(11) 0.88399(11) 0.83994(10)
O2_2 O 0.09447(11) 0.90947(11) 0.00920(10)
O10 O 0.11260(11) 0.87826(12) 0.87889(11)
O12_2 O 0.11606(14) 0.04292(13) 0.77672(11)
Zn9 Zn 0.088590(17) 0.954200(18) 0.911030(16)
O3_2 O 0.42442(11) 0.99396(10) 0.90271(10)
O4_2 O 0.22169(11) 0.91649(11) 0.99188(10)
O5_2 O 0.32774(11) 0.98116(11) 0.85904(10)
O11_2 O 0.21478(12) 0.78045(12) 0.99075(11)
N6 N 0.57981(13) 0.91423(13) 0.94077(12)
C1_2 C 0.94611(17) 0.95853(19) 0.86412(16)
H1_2 H 0.9810 0.9681 0.8221
C2_2 C 0.71100(18) 0.8917(2) 0.90337(19)
H2_2 H 0.7474 0.8702 0.8802
C3_2 C 0.87052(17) 0.9523(2) 0.86698(16)
H3_2 H 0.8543 0.9564 0.8278
C4_2 C 0.63482(17) 0.88428(19) 0.90772(18)
H4_2 H 0.6202 0.8575 0.8871
C7_2 C 0.81681(16) 0.93977(16) 0.92937(15)
C12_2 C 0.67901(16) 0.96375(16) 0.96571(15)
H5_2 H 0.6923 0.9921 0.9854
C13_2 C 0.92158(16) 0.94041(15) 0.97929(14)
C21_2 C 0.73431(15) 0.93201(16) 0.93385(14)
C25_2 C 0.84373(16) 0.93453(15) 0.98630(15)
C38_2 C 0.60329(16) 0.95342(16) 0.96846(15)
H17_2 H 0.5662 0.9750 0.9910
N2_2 N 0.97292(13) 0.95140(13) 0.91965(12)
H6_2 H 0.9395 0.9366 0.0175
H9_2 H 0.8098 0.9272 0.0283
loop_
_geom_bond_atom_site_label_1
_geom_bond_atom_site_label_2
_geom_bond_site_symmetry_1
_geom_bond_site_symmetry_2
C1 H1 1_555 1_555
C2 H2 1_555 1_555
C3 C1 1_555 1_555
H3 C3 1_555 1_555
C4 C2 1_555 1_555
H4 C4 1_555 1_555
C7 C3 1_555 1_555
C12 H5 1_555 1_555
C21 C2 1_555 1_555
C25 C7 1_555 1_555
C38 C12 1_555 1_555
H17 C38 1_555 1_555
N1 C4 1_555 1_555
N2 C1 1_555 1_555
Zn6 N1 1_555 1_555
C7 C21 1_555 1_555
C12 C21 1_555 1_555
C13 C25 1_555 1_555
C13 N2 1_555 1_555
C38 N1 1_555 1_555
Zn6 O3 1_555 1_555
Zn2 O4 1_555 1_555
O14 Zn2 1_555 1_555
O15 Zn6 1_555 1_555
O17 Zn6 1_555 1_555
O19 Zn10 1_555 1_555
O5 Zn2 1_555 1_555
O11 Zn2 1_555 1_555
Zn2 O15 1_555 1_555
C16 C37 1_555 1_555
C19 C63 1_555 1_555
C22 H8 1_555 1_555
C27 C43 1_555 1_555
C29 C51 1_555 1_555
C37 C22 1_555 1_555
C39 H18 1_555 1_555
C40 C42 1_555 1_555
C42 C60 1_555 1_555
C43 C70 1_555 1_555
C45 C76 1_555 1_555
C46 C65 1_555 1_555
C51 C39 1_555 1_555
C55 H27 1_555 1_555
C59 H31 1_555 1_555
C60 H32 1_555 1_555
C61 C51 1_555 1_555
H33 C61 1_555 1_555
C63 C55 1_555 1_555
C65 H36 1_555 1_555
C67 C19 1_555 1_555
H38 C67 1_555 1_555
C68 C22 1_555 1_555
H39 C68 1_555 1_555
C70 C65 1_555 1_555
H41 C70 1_555 1_555
C71 H42 1_555 1_555
C73 C59 1_555 1_555
C74 C39 1_555 1_555
H44 C74 1_555 1_555
C75 C37 1_555 1_555
H45 C75 1_555 1_555
C76 H46 1_555 1_555
C77 C46 1_555 1_555
C78 C45 1_555 1_555
H47 C78 1_555 1_555
C79 C40 1_555 1_555
H48 C79 1_555 1_555
C80 C79 1_555 1_555
H49 C80 1_555 1_555
C81 C59 1_555 1_555
H50 C81 1_555 1_555
C82 C80 1_555 1_555
C83 C19 1_555 1_555
H51 C83 1_555 1_555
C84 C43 1_555 1_555
H52 C84 1_555 1_555
C85 C46 1_555 1_555
H53 C85 1_555 1_555
C86 C40 1_555 1_555
H54 C86 1_555 1_555
C87 C82 1_555 1_555
H55 C87 1_555 1_555
C88 C73 1_555 1_555
H56 C88 1_555 1_555
C89 C77 1_555 1_555
H57 C89 1_555 1_555
C90 H58 1_555 1_555
H59 C90 1_555 1_555
H60 C90 1_555 1_555
C91 H61 1_555 1_555
H62 C91 1_555 1_555
H63 C91 1_555 1_555
N4 C45 1_555 1_555
N5 C71 1_555 1_555
O14 C27 1_555 1_555
O2 C29 1_555 1_555
O7 C16 1_555 1_555
O19 C27 1_555 1_555
O12 C16 1_555 1_555
C42 C68 1_555 1_555
C55 C61 1_555 1_555
C60 C75 1_555 1_555
C63 C74 1_555 1_555
C67 C78 1_555 1_555
C73 N4 1_555 1_555
C76 C83 1_555 1_555
C77 C81 1_555 1_555
C82 N4 1_555 1_555
C84 C85 1_555 1_555
C86 C87 1_555 1_555
C88 C89 1_555 1_555
C90 N5 1_555 1_555
C91 N5 1_555 1_555
C5 C34 1_555 1_555
C6 C9 1_555 1_555
C8 C24 1_555 1_555
C9 C31 1_555 1_555
C10 C33 1_555 1_555
C11 C35 1_555 1_555
C14 C26 1_555 1_555
C15 C20 1_555 1_555
C17 H7 1_555 1_555
C18 C50 1_555 1_555
C20 O15 1_555 1_555
C23 C48 1_555 1_555
C24 C17 1_555 1_555
C26 C41 1_555 1_555
C28 H10 1_555 1_555
C30 H11 1_555 1_555
C31 C17 1_555 1_555
H12 C31 1_555 1_555
C32 C6 1_555 1_555
H13 C32 1_555 1_555
C33 C28 1_555 1_555
C34 C32 1_555 1_555
H14 C34 1_555 1_555
C35 C30 1_555 1_555
H15 C35 1_555 1_555
C36 C9 1_555 1_555
H16 C36 1_555 1_555
C41 H19 1_555 1_555
C44 C11 1_555 1_555
H20 C44 1_555 1_555
C47 C15 1_555 1_555
H21 C47 1_555 1_555
C48 H22 1_555 1_555
C49 C5 1_555 1_555
H23 C49 1_555 1_555
C50 C28 1_555 1_555
H24 C50 1_555 1_555
C52 C44 1_555 1_555
H25 C52 1_555 1_555
C53 C33 1_555 1_555
H26 C53 1_555 1_555
C54 C18 1_555 1_555
C56 C24 1_555 1_555
H28 C56 1_555 1_555
C57 C14 1_555 1_555
H29 C57 1_555 1_555
C58 C23 1_555 1_555
H30 C58 1_555 1_555
C62 C6 1_555 1_555
H34 C62 1_555 1_555
C64 C26 1_555 1_555
H35 C64 1_555 1_555
C66 C15 1_555 1_555
H37 C66 1_555 1_555
C69 C18 1_555 1_555
H40 C69 1_555 1_555
C72 C14 1_555 1_555
H43 C72 1_555 1_555
N3 C5 1_555 1_555
O17 C20 1_555 1_555
O18 C10 1_555 1_555
O20 C10 1_555 1_555
C11 N3 1_555 1_555
C23 N3 1_555 1_555
C30 C54 1_555 1_555
C36 C56 1_555 1_555
C41 C58 1_555 1_555
C47 C72 1_555 1_555
C48 C64 1_555 1_555
C49 C62 1_555 1_555
C52 C54 1_555 1_555
C53 C69 1_555 1_555
C57 C66 1_555 1_555
C5_2 C34_2 1_555 1_555
C6_2 C9_2 1_555 1_555
C8_2 C24_2 1_555 1_555
C9_2 C31_2 1_555 1_555
C10_2 C33_2 1_555 1_555
C11_2 C35_2 1_555 1_555
C14_2 C26_2 1_555 1_555
C15_2 C20_2 1_555 1_555
C17_2 H7_2 1_555 1_555
C18_2 C50_2 1_555 1_555
C20_2 O6 1_555 1_555
C23_2 C48_2 1_555 1_555
C24_2 C17_2 1_555 1_555
C26_2 C41_2 1_555 1_555
C28_2 H10_2 1_555 1_555
C30_2 H11_2 1_555 1_555
C31_2 C17_2 1_555 1_555
H12_2 C31_2 1_555 1_555
C32_2 C6_2 1_555 1_555
H13_2 C32_2 1_555 1_555
C33_2 C28_2 1_555 1_555
C34_2 C32_2 1_555 1_555
H14_2 C34_2 1_555 1_555
C35_2 C30_2 1_555 1_555
H15_2 C35_2 1_555 1_555
C36_2 C9_2 1_555 1_555
H16_2 C36_2 1_555 1_555
C41_2 H19_2 1_555 1_555
C44_2 C11_2 1_555 1_555
H20_2 C44_2 1_555 1_555
C47_2 C15_2 1_555 1_555
H21_2 C47_2 1_555 1_555
C48_2 H22_2 1_555 1_555
C49_2 C5_2 1_555 1_555
H23_2 C49_2 1_555 1_555
C50_2 C28_2 1_555 1_555
H24_2 C50_2 1_555 1_555
C52_2 C44_2 1_555 1_555
H25_2 C52_2 1_555 1_555
C53_2 C33_2 1_555 1_555
H26_2 C53_2 1_555 1_555
C54_2 C18_2 1_555 1_555
C56_2 C24_2 1_555 1_555
H28_2 C56_2 1_555 1_555
C57_2 C14_2 1_555 1_555
H29_2 C57_2 1_555 1_555
C58_2 C23_2 1_555 1_555
H30_2 C58_2 1_555 1_555
C62_2 C6_2 1_555 1_555
H34_2 C62_2 1_555 1_555
C64_2 C26_2 1_555 1_555
H35_2 C64_2 1_555 1_555
C66_2 C15_2 1_555 1_555
H37_2 C66_2 1_555 1_555
C69_2 C18_2 1_555 1_555
H40_2 C69_2 1_555 1_555
C72_2 C14_2 1_555 1_555
H43_2 C72_2 1_555 1_555
N3_2 C5_2 1_555 1_555
O6 Zn4 1_555 1_555
O8 C20_2 1_555 1_555
O9 C10_2 1_555 1_555
O13 C10_2 1_555 1_555
Zn4 O8 1_555 1_555
Zn7 O6 1_555 1_555
C11_2 N3_2 1_555 1_555
C23_2 N3_2 1_555 1_555
C30_2 C54_2 1_555 1_555
C36_2 C56_2 1_555 1_555
C41_2 C58_2 1_555 1_555
C47_2 C72_2 1_555 1_555
C48_2 C64_2 1_555 1_555
C49_2 C62_2 1_555 1_555
C52_2 C54_2 1_555 1_555
C53_2 C69_2 1_555 1_555
C57_2 C66_2 1_555 1_555
C16_2 C37_2 1_555 1_555
C19_2 C63_2 1_555 1_555
C22_2 H8_2 1_555 1_555
C27_2 C43_2 1_555 1_555
C29_2 C51_2 1_555 1_555
C37_2 C22_2 1_555 1_555
C39_2 H18_2 1_555 1_555
C40_2 C42_2 1_555 1_555
C42_2 C60_2 1_555 1_555
C43_2 C70_2 1_555 1_555
C45_2 C76_2 1_555 1_555
C46_2 C65_2 1_555 1_555
C51_2 C39_2 1_555 1_555
C55_2 H27_2 1_555 1_555
C59_2 H31_2 1_555 1_555
C60_2 H32_2 1_555 1_555
C61_2 C51_2 1_555 1_555
H33_2 C61_2 1_555 1_555
C63_2 C55_2 1_555 1_555
C65_2 H36_2 1_555 1_555
C67_2 C19_2 1_555 1_555
H38_2 C67_2 1_555 1_555
C68_2 C22_2 1_555 1_555
H39_2 C68_2 1_555 1_555
C70_2 C65_2 1_555 1_555
H41_2 C70_2 1_555 1_555
C71_2 H42_2 1_555 1_555
C73_2 C59_2 1_555 1_555
C74_2 C39_2 1_555 1_555
H44_2 C74_2 1_555 1_555
C75_2 C37_2 1_555 1_555
H45_2 C75_2 1_555 1_555
C76_2 H46_2 1_555 1_555
C77_2 C46_2 1_555 1_555
C78_2 C45_2 1_555 1_555
H47_2 C78_2 1_555 1_555
C79_2 C40_2 1_555 1_555
H48_2 C79_2 1_555 1_555
C80_2 C79_2 1_555 1_555
H49_2 C80_2 1_555 1_555
C81_2 C59_2 1_555 1_555
H50_2 C81_2 1_555 1_555
C82_2 C80_2 1_555 1_555
C83_2 C19_2 1_555 1_555
H51_2 C83_2 1_555 1_555
C84_2 C43_2 1_555 1_555
H52_2 C84_2 1_555 1_555
C85_2 C46_2 1_555 1_555
H53_2 C85_2 1_555 1_555
C86_2 C40_2 1_555 1_555
H54_2 C86_2 1_555 1_555
C87_2 C82_2 1_555 1_555
H55_2 C87_2 1_555 1_555
C88_2 C73_2 1_555 1_555
H56_2 C88_2 1_555 1_555
C89_2 C77_2 1_555 1_555
H57_2 C89_2 1_555 1_555
C90_2 H58_2 1_555 1_555
H59_2 C90_2 1_555 1_555
H60_2 C90_2 1_555 1_555
C91_2 H61_2 1_555 1_555
H62_2 C91_2 1_555 1_555
H63_2 C91_2 1_555 1_555
N4_2 C45_2 1_555 1_555
N5_2 C71_2 1_555 1_555
O1 C27_2 1_555 1_555
O2_2 C29_2 1_555 1_555
O16 C16_2 1_555 1_555
O10 C27_2 1_555 1_555
O12_2 C16_2 1_555 1_555
Zn7 O1 1_555 1_555
Zn9 O10 1_555 1_555
C42_2 C68_2 1_555 1_555
C55_2 C61_2 1_555 1_555
C60_2 C75_2 1_555 1_555
C63_2 C74_2 1_555 1_555
C67_2 C78_2 1_555 1_555
C73_2 N4_2 1_555 1_555
C76_2 C83_2 1_555 1_555
C77_2 C81_2 1_555 1_555
C82_2 N4_2 1_555 1_555
C84_2 C85_2 1_555 1_555
C86_2 C87_2 1_555 1_555
C88_2 C89_2 1_555 1_555
C90_2 N5_2 1_555 1_555
C91_2 N5_2 1_555 1_555
Zn4 O3_2 1_555 1_555
Zn7 O4_2 1_555 1_555
N6 Zn4 1_555 1_555
O5_2 Zn7 1_555 1_555
O11_2 Zn7 1_555 1_555
C1_2 H1_2 1_555 1_555
C2_2 H2_2 1_555 1_555
C3_2 C1_2 1_555 1_555
H3_2 C3_2 1_555 1_555
C4_2 C2_2 1_555 1_555
H4_2 C4_2 1_555 1_555
C7_2 C3_2 1_555 1_555
C12_2 H5_2 1_555 1_555
C21_2 C2_2 1_555 1_555
C25_2 C7_2 1_555 1_555
C38_2 C12_2 1_555 1_555
H17_2 C38_2 1_555 1_555
N6 C4_2 1_555 1_555
N2_2 C1_2 1_555 1_555
C7_2 C21_2 1_555 1_555
C12_2 C21_2 1_555 1_555
C13_2 C25_2 1_555 1_555
C13_2 N2_2 1_555 1_555
C38_2 N6 1_555 1_555

#END
