
###############################################################################
#
# This file contains modified crystal structure data generated from the
# MOF subset of the Cambridge Structural Database (CSD) v543 
# hosted by the Cambridge Crystallographic Data Centre (CCDC).
#
# This work is licensed under the Creative Commons
# Attribution-NonCommercial-ShareAlike 4.0 International License.
# To view a copy of this license, visit
# http://creativecommons.org/licenses/by-nc-sa/4.0/
# or send a letter to
# Creative Commons, PO Box 1866, Mountain View, CA 94042, USA.
#
# CIF created using the CSD Python API on 29 September 2022
# The structure has been converted into the P1 space group
# The structure has a 3D framework
# The original CSD entry HUQHAE is in the triclinic crystal system
# The framework has been calculated to contain at least 10.0% void space
# The void calculation uses a probe of radius 1.32A, grid spacing 0.4
#
###############################################################################

data_HUQHAE
_chemical_formula_moiety         '(C188 H134 N10 O26 Zn6)n'
_symmetry_cell_setting           triclinic
_symmetry_space_group_name_H-M   'P 1'
_symmetry_Int_Tables_number      1
_space_group_name_Hall           'P 1'
loop_
_symmetry_equiv_pos_site_id
_symmetry_equiv_pos_as_xyz
1 x,y,z
_cell_length_a                   19.608(4)
_cell_length_b                   21.133(4)
_cell_length_c                   21.571(4)
_cell_angle_alpha                117.428(3)
_cell_angle_beta                 100.548(4)
_cell_angle_gamma                99.067(3)
_cell_volume                     7493.93
loop_
_atom_site_label
_atom_site_type_symbol
_atom_site_fract_x
_atom_site_fract_y
_atom_site_fract_z
N6 N 0.0251(4) 0.1592(4) 0.0730(4)
Zn10 Zn 0.92080(5) 0.17003(5) 0.05586(5)
O1 O 0.7158(3) 0.1042(3) 0.0136(3)
Zn2 Zn 0.76627(5) 0.20753(5) 0.09345(5)
O7 O 0.8100(2) 0.1677(3) 0.1560(3)
O8 O 0.8857(3) 0.1084(3) 0.0961(3)
O9 O 0.7051(3) 0.2391(3) 0.0220(4)
O10 O 0.8826(3) 0.0920(3) 0.9532(3)
C53 C 0.8428(5) 0.1151(5) 0.1353(5)
C54 C 0.8058(4) 0.0362(4) 0.2562(5)
H35 H 0.7821 0.0440 0.2928
C57 C 0.8437(4) 0.0702(4) 0.1700(4)
C67 C 0.8023(4) 0.0758(5) 0.2213(5)
H39 H 0.7721 0.1081 0.2306
O13 O 0.9425(3) 0.1921(3) 0.9576(3)
H41 H 0.9445 0.0280 0.6035
C79 C 0.9077(4) 0.0725(5) 0.7277(5)
H50 H 0.9156 0.0968 0.7009
C85 C 0.8822(5) 0.0183(4) 0.1555(5)
H56 H 0.9109 0.0126 0.1233
C86 C 0.8840(5) 0.0015(5) 0.8079(5)
C87 C 0.9142(4) 0.1157(5) 0.8033(5)
H58 H 0.9280 0.1683 0.8266
C88 C 0.9005(4) 0.0815(6) 0.8433(5)
C90 C 0.9076(5) 0.1230(6) 0.9207(6)
H62 H 0.5804 0.2205 0.0017
Zn5 Zn 0.59857(5) 0.13165(5) 0.09704(5)
O16 O 0.7448(4) 0.2855(3) 0.1748(3)
O18 O 0.8572(3) 0.2449(3) 0.0799(3)
O19 O 0.9736(3) 0.2908(3) 0.1537(4)
O3 O 0.5956(2) 0.0800(3) 0.9940(3)
C1 C 0.4662(6) 0.1690(5) 0.1364(5)
H1 H 0.5006 0.2024 0.1826
C2 C 0.6513(5) 0.0684(5) 0.9715(5)
O5 O 0.6228(2) 0.0734(3) 0.1408(3)
C6 C 0.6965(4) 0.0077(4) 0.8625(5)
H3 H 0.7440 0.0290 0.8953
C7 C 0.6303(4) 0.0922(5) 0.3187(5)
H4 H 0.6358 0.1439 0.3471
O6 O 0.6143(3) 0.1683(3) 0.2390(3)
C15 C 0.3996(7) 0.1704(6) 0.1298(7)
H8 H 0.3876 0.2073 0.1690
C16 C 0.6428(5) 0.0228(5) 0.8929(5)
N3 N 0.4904(5) 0.1231(4) 0.0817(5)
C23 C 0.6243(4) 0.0614(5) 0.2450(6)
C26 C 0.6216(4) 0.1062(5) 0.2096(5)
C28 C 0.4382(4) 0.0743(5) 0.0175(5)
H17 H 0.6644 0.0048 0.4452
C33 C 0.3653(4) 0.0740(6) 0.0086(6)
C37 C 0.6286(4) 0.0503(5) 0.3517(5)
H22 H 0.6347 0.0738 0.4028
C40 C 0.2609(8) 0.1024(8) 0.0522(7)
H25 H 0.2246 0.0573 0.0184
C43 C 0.3454(5) 0.1186(7) 0.0661(7)
C46 C 0.0340(5) 0.0948(6) 0.0558(6)
C47 C 0.1032(6) 0.0813(7) 0.0564(6)
H31 H 0.1095 0.0343 0.0467
C48 C 0.0807(6) 0.2248(10) 0.0931(9)
H32 H 0.0706 0.2709 0.1053
C49 C 0.1619(7) 0.1394(11) 0.0717(9)
C50 C 0.2543(9) 0.1570(8) 0.0918(8)
H33 H 0.2904 0.2016 0.1273
C51 C 0.1516(6) 0.2165(14) 0.0937(11)
H34 H 0.1910 0.2573 0.1072
N5 N 0.6279(5) 0.1930(4) 0.9168(4)
C91 C 0.6934(5) 0.2116(6) 0.9534(6)
C92 C 0.7507(4) 0.2072(5) 0.9186(5)
H59 H 0.7403 0.1568 0.8772
H60 H 0.7968 0.2191 0.9540
H61 H 0.7537 0.2427 0.9012
C93 C 0.5628(5) 0.1935(5) 0.9482(5)
H63 H 0.5358 0.1424 0.9306
H64 H 0.5311 0.2181 0.9323
C94 C 0.6056(6) 0.1553(6) 0.8301(6)
H65 H 0.6228 0.1922 0.8169
H66 H 0.5530 0.1362 0.8103
H67 H 0.6275 0.1144 0.8099
O14 O 0.6229(3) 0.2343(3) 0.1341(3)
H15 H 0.4514 0.0396 0.9778
H19 H 0.3305 0.0425 0.9622
N4 N 0.8559(3) 0.8175(4) 0.3857(4)
C52 C 0.8435(4) 0.9856(4) 0.2379(4)
C55 C 0.9045(4) 0.3800(5) 0.1746(5)
C56 C 0.8899(4) 0.9957(5) 0.6922(5)
C58 C 0.8535(4) 0.8566(5) 0.3471(5)
C59 C 0.8482(4) 0.9403(5) 0.2771(4)
C60 C 0.8620(5) 0.7453(5) 0.3518(5)
C61 C 0.8869(5) 0.5213(5) 0.2428(5)
C62 C 0.8776(4) 0.6001(5) 0.2832(6)
C63 C 0.8225(5) 0.8293(5) 0.4947(5)
H36 H 0.7897 0.7810 0.4680
C64 C 0.9042(4) 0.8633(4) 0.3127(4)
H37 H 0.9421 0.8403 0.3135
C65 C 0.8637(5) 0.8597(5) 0.4609(6)
C66 C 0.8974(4) 0.7167(5) 0.3920(5)
H38 H 0.9179 0.7478 0.4433
C68 C 0.9007(4) 0.9042(4) 0.2759(4)
H40 H 0.9348 0.9066 0.2503
C69 C 0.9145(5) 0.9784(5) 0.5772(5)
C70 C 0.8465(4) 0.3977(5) 0.1395(4)
H42 H 0.8147 0.3619 0.0925
C71 C 0.9028(5) 0.6456(5) 0.3593(5)
H43 H 0.9239 0.6270 0.3884
C72 C 0.7988(4) 0.9320(5) 0.3138(5)
H44 H 0.7623 0.9570 0.3163
C73 C 0.8360(4) 0.7003(5) 0.2775(5)
H45 H 0.8135 0.7197 0.2498
C74 C 0.9415(5) 0.5047(5) 0.2778(5)
H46 H 0.9722 0.5421 0.3248
C75 C 0.8788(5) 0.9491(6) 0.6140(5)
C76 C 0.8388(5) 0.4675(5) 0.1760(5)
H47 H 0.7995 0.4795 0.1550
C77 C 0.8795(5) 0.9749(5) 0.1870(5)
H48 H 0.9031 0.9367 0.1731
C78 C 0.8407(5) 0.6269(5) 0.2397(5)
H49 H 0.8207 0.5965 0.1883
C80 C 0.9530(4) 0.4344(5) 0.2462(5)
H51 H 0.9906 0.4230 0.2703
C81 C 0.8001(4) 0.8905(5) 0.3458(5)
H52 H 0.7635 0.8848 0.3677
C82 C 0.9054(5) 0.9342(5) 0.5018(6)
H53 H 0.9282 0.9554 0.4779
C83 C 0.8740(4) 0.9605(5) 0.7314(5)
H54 H 0.8562 0.9080 0.7063
C84 C 0.8341(5) 0.8761(5) 0.5698(5)
H55 H 0.8090 0.8561 0.5933
H57 H 0.8798 0.9770 0.8351
C89 C 0.9144(5) 0.3024(5) 0.1355(5)
C3 C 0.5600(5) 0.9456(5) 0.7696(6)
H2 H 0.5123 0.9256 0.7374
C4 C 0.6182(4) 0.9747(5) 0.3125(5)
C5 C 0.6229(4) 0.9347(5) 0.7444(5)
N2 N 0.5941(4) 0.7881(4) 0.4373(4)
C8 C 0.6110(5) 0.8945(5) 0.6636(5)
C9 C 0.6101(4) 0.9213(5) 0.3414(5)
C10 C 0.6093(4) 0.9399(5) 0.2326(5)
H5 H 0.6005 0.8877 0.2036
C11 C 0.6514(4) 0.5054(5) 0.3038(5)
C12 C 0.6679(4) 0.3635(4) 0.2191(5)
C13 C 0.6769(4) 0.6369(4) 0.3373(5)
H6 H 0.7105 0.6278 0.3098
C14 C 0.7180(5) 0.4986(5) 0.3004(4)
H7 H 0.7568 0.5424 0.3227
C17 C 0.6371(4) 0.9078(5) 0.4474(5)
H9 H 0.6605 0.9283 0.4978
C18 C 0.5755(4) 0.8457(5) 0.2983(4)
H10 H 0.5538 0.8235 0.2473
C19 C 0.6575(5) 0.8514(4) 0.6351(5)
H11 H 0.6935 0.8474 0.6681
C20 C 0.6420(5) 0.5817(5) 0.3440(5)
C21 C 0.5978(4) 0.8195(4) 0.5126(5)
C22 C 0.6111(5) 0.7179(5) 0.4059(4)
C24 C 0.5737(4) 0.6581(5) 0.4088(5)
H12 H 0.5360 0.6639 0.4313
C25 C 0.5739(5) 0.8029(5) 0.3332(6)
H13 H 0.5541 0.7506 0.3041
C27 C 0.5768(5) 0.9919(5) 0.8521(5)
H14 H 0.5385 0.9980 0.8737
C29 C 0.6912(4) 0.9653(4) 0.7901(5)
H16 H 0.7323 0.9579 0.7732
C30 C 0.6409(4) 0.9531(5) 0.4158(6)
C31 C 0.6139(4) 0.9836(5) 0.2007(5)
H18 H 0.6102 0.9622 0.1502
C32 C 0.5989(5) 0.8329(6) 0.4048(6)
C34 C 0.5543(4) 0.8959(5) 0.6112(5)
H20 H 0.5208 0.9228 0.6283
C35 C 0.6778(5) 0.2883(5) 0.1750(5)
C36 C 0.5471(5) 0.8598(5) 0.5374(5)
H21 H 0.5095 0.8617 0.5040
C38 C 0.7328(5) 0.4279(5) 0.2645(4)
H23 H 0.7805 0.4228 0.2695
C39 C 0.6032(4) 0.3717(5) 0.2267(5)
H24 H 0.5629 0.3291 0.2038
C41 C 0.5890(4) 0.5918(4) 0.3806(4)
H26 H 0.5642 0.5528 0.3857
C42 C 0.6660(5) 0.7076(5) 0.3691(5)
H27 H 0.6936 0.7469 0.3664
C44 C 0.5939(5) 0.4432(5) 0.2684(5)
H28 H 0.5472 0.4479 0.2719
C45 C 0.6539(4) 0.8161(4) 0.5647(5)
H29 H 0.6874 0.7889 0.5485
H30 H 0.9934 0.0550 0.0422
H30_2 H 0.0066 0.9450 0.9578
Zn8 Zn 0.07920(5) 0.82997(5) 0.94414(5)
O2 O 0.3771(3) 0.7657(3) 0.8659(3)
O4 O 0.2552(4) 0.7145(3) 0.8252(3)
C3_2 C 0.4400(5) 0.0544(5) 0.2304(6)
H2_2 H 0.4877 0.0744 0.2626
C4_2 C 0.3818(4) 0.0253(5) 0.6875(5)
C5_2 C 0.3771(4) 0.0653(5) 0.2556(5)
N2_2 N 0.4059(4) 0.2119(4) 0.5627(4)
C8_2 C 0.3890(5) 0.1055(5) 0.3364(5)
C9_2 C 0.3899(4) 0.0787(5) 0.6586(5)
C10_2 C 0.3907(4) 0.0601(5) 0.7674(5)
H5_2 H 0.3995 0.1123 0.7964
C11_2 C 0.3486(4) 0.4946(5) 0.6962(5)
C12_2 C 0.3321(4) 0.6365(4) 0.7809(5)
C13_2 C 0.3231(4) 0.3631(4) 0.6627(5)
H6_2 H 0.2895 0.3722 0.6902
C14_2 C 0.2820(5) 0.5014(5) 0.6996(4)
H7_2 H 0.2432 0.4576 0.6773
C17_2 C 0.3629(4) 0.0922(5) 0.5526(5)
H9_2 H 0.3395 0.0717 0.5022
C18_2 C 0.4245(4) 0.1543(5) 0.7017(4)
H10_2 H 0.4462 0.1765 0.7527
C19_2 C 0.3425(5) 0.1486(4) 0.3649(5)
H11_2 H 0.3065 0.1526 0.3319
C20_2 C 0.3580(5) 0.4183(5) 0.6560(5)
C21_2 C 0.4022(4) 0.1805(4) 0.4874(5)
C22_2 C 0.3889(5) 0.2821(5) 0.5941(4)
C24_2 C 0.4263(4) 0.3419(5) 0.5912(5)
H12_2 H 0.4640 0.3361 0.5687
C25_2 C 0.4261(5) 0.1971(5) 0.6668(6)
H13_2 H 0.4459 0.2494 0.6959
C27_2 C 0.4232(5) 0.0081(5) 0.1479(5)
H14_2 H 0.4615 0.0020 0.1263
C29_2 C 0.3088(4) 0.0347(4) 0.2099(5)
H16_2 H 0.2677 0.0421 0.2268
C30_2 C 0.3591(4) 0.0469(5) 0.5842(6)
C31_2 C 0.3861(4) 0.0164(5) 0.7993(5)
H18_2 H 0.3898 0.0378 0.8498
C32_2 C 0.4011(5) 0.1671(6) 0.5952(6)
C34_2 C 0.4457(4) 0.1041(5) 0.3888(5)
H20_2 H 0.4792 0.0772 0.3717
C35_2 C 0.3222(5) 0.7117(5) 0.8250(5)
C36_2 C 0.4529(5) 0.1402(5) 0.4626(5)
H21_2 H 0.4905 0.1383 0.4960
C38_2 C 0.2672(5) 0.5721(5) 0.7355(4)
H23_2 H 0.2195 0.5772 0.7305
C39_2 C 0.3968(4) 0.6283(5) 0.7733(5)
H24_2 H 0.4371 0.6709 0.7962
C41_2 C 0.4110(4) 0.4082(4) 0.6194(4)
H26_2 H 0.4358 0.4472 0.6143
C42_2 C 0.3340(5) 0.2924(5) 0.6309(5)
H27_2 H 0.3064 0.2531 0.6336
C44_2 C 0.4061(5) 0.5568(5) 0.7316(5)
H28_2 H 0.4528 0.5521 0.7281
C45_2 C 0.3461(4) 0.1839(4) 0.4353(5)
H29_2 H 0.3126 0.2111 0.4515
Zn4 Zn 0.40143(5) 0.86835(5) 0.90296(5)
Zn6 Zn 0.23373(5) 0.79247(5) 0.90655(5)
N4_2 N 0.1441(3) 0.1825(4) 0.6143(4)
C52_2 C 0.1565(4) 0.0144(4) 0.7621(4)
O11 O 0.1428(3) 0.7551(3) 0.9201(3)
C55_2 C 0.0955(4) 0.6200(5) 0.8254(5)
C56_2 C 0.1101(4) 0.0043(5) 0.3078(5)
O12 O 0.0264(3) 0.7092(3) 0.8463(4)
C58_2 C 0.1465(4) 0.1434(5) 0.6529(5)
C59_2 C 0.1518(4) 0.0597(5) 0.7229(4)
C60_2 C 0.1380(5) 0.2547(5) 0.6482(5)
C61_2 C 0.1131(5) 0.4787(5) 0.7572(5)
C62_2 C 0.1224(4) 0.3999(5) 0.7168(6)
C63_2 C 0.1775(5) 0.1707(5) 0.5053(5)
H36_2 H 0.2103 0.2190 0.5320
C64_2 C 0.0958(4) 0.1367(4) 0.6873(4)
H37_2 H 0.0579 0.1597 0.6865
C65_2 C 0.1363(5) 0.1403(5) 0.5391(6)
C66_2 C 0.1026(4) 0.2833(5) 0.6080(5)
H38_2 H 0.0821 0.2522 0.5567
C68_2 C 0.0993(4) 0.0958(4) 0.7241(4)
H40_2 H 0.0652 0.0934 0.7497
C69_2 C 0.0855(5) 0.0216(5) 0.4228(5)
C70_2 C 0.1535(4) 0.6023(5) 0.8605(4)
H42_2 H 0.1853 0.6381 0.9075
C71_2 C 0.0972(5) 0.3544(5) 0.6407(5)
H43_2 H 0.0761 0.3730 0.6116
C72_2 C 0.2012(4) 0.0680(5) 0.6862(5)
H44_2 H 0.2377 0.0430 0.6837
C73_2 C 0.1640(4) 0.2997(5) 0.7225(5)
H45_2 H 0.1865 0.2803 0.7502
C74_2 C 0.0585(5) 0.4953(5) 0.7222(5)
H46_2 H 0.0278 0.4579 0.6752
C75_2 C 0.1212(5) 0.0509(6) 0.3860(5)
C76_2 C 0.1612(5) 0.5325(5) 0.8240(5)
H47_2 H 0.2005 0.5205 0.8450
C77_2 C 0.1205(5) 0.0251(5) 0.8130(5)
H48_2 H 0.0969 0.0633 0.8269
C78_2 C 0.1593(5) 0.3731(5) 0.7603(5)
H49_2 H 0.1793 0.4035 0.8117
C80_2 C 0.0470(4) 0.5656(5) 0.7538(5)
H51_2 H 0.0094 0.5770 0.7297
C81_2 C 0.1999(4) 0.1095(5) 0.6542(5)
H52_2 H 0.2365 0.1152 0.6323
C82_2 C 0.0946(5) 0.0658(5) 0.4982(6)
H53_2 H 0.0718 0.0446 0.5221
C83_2 C 0.1260(4) 0.0395(5) 0.2686(5)
H54_2 H 0.1438 0.0920 0.2937
C84_2 C 0.1659(5) 0.1239(5) 0.4302(5)
H55_2 H 0.1910 0.1439 0.4067
H57_2 H 0.1202 0.0230 0.1649
C89_2 C 0.0856(5) 0.6976(5) 0.8645(5)
H15_2 H 0.5486 0.9604 0.0222
H19_2 H 0.6695 0.9575 0.0378
O15 O 0.4044(2) 0.9200(3) 0.0060(3)
C1_2 C 0.5338(6) 0.8310(5) 0.8636(5)
H1_2 H 0.4994 0.7976 0.8174
C2_2 C 0.3487(5) 0.9316(5) 0.0285(5)
O5_2 O 0.3772(2) 0.9266(3) 0.8592(3)
N1 N 0.9749(4) 0.8408(4) 0.9270(4)
C6_2 C 0.3035(4) 0.9923(4) 0.1375(5)
H3_2 H 0.2560 0.9710 0.1047
C7_2 C 0.3697(4) 0.9078(5) 0.6813(5)
H4_2 H 0.3642 0.8561 0.6529
O6_2 O 0.3857(3) 0.8317(3) 0.7610(3)
C15_2 C 0.6004(7) 0.8296(6) 0.8702(7)
H8_2 H 0.6124 0.7927 0.8310
C16_2 C 0.3572(5) 0.9772(5) 0.1071(5)
N3_2 N 0.5096(5) 0.8769(4) 0.9183(5)
C23_2 C 0.3757(4) 0.9386(5) 0.7550(6)
C26_2 C 0.3784(4) 0.8938(5) 0.7904(5)
C28_2 C 0.5618(4) 0.9257(5) 0.9825(5)
H17_2 H 0.3356 0.9952 0.5548
C33_2 C 0.6347(4) 0.9260(6) 0.9914(6)
C37_2 C 0.3714(4) 0.9497(5) 0.6483(5)
H22_2 H 0.3653 0.9262 0.5972
C40_2 C 0.7391(8) 0.8976(8) 0.9478(7)
H25_2 H 0.7754 0.9427 0.9816
C43_2 C 0.6546(5) 0.8814(7) 0.9339(7)
C46_2 C 0.9660(5) 0.9052(6) 0.9442(6)
C47_2 C 0.8968(6) 0.9187(7) 0.9436(6)
H31_2 H 0.8905 0.9657 0.9533
C48_2 C 0.9193(6) 0.7752(10) 0.9069(9)
H32_2 H 0.9294 0.7291 0.8947
C49_2 C 0.8381(7) 0.8606(11) 0.9283(9)
C50_2 C 0.7457(9) 0.8430(8) 0.9082(8)
H33_2 H 0.7096 0.7984 0.8727
C51_2 C 0.8484(6) 0.7835(14) 0.9063(11)
H34_2 H 0.8090 0.7427 0.8928
N5_2 N 0.3721(5) 0.8070(4) 0.0832(4)
C91_2 C 0.3066(5) 0.7884(6) 0.0466(6)
C92_2 C 0.2493(4) 0.7928(5) 0.0814(5)
H59_2 H 0.2597 0.8432 0.1228
H60_2 H 0.2032 0.7809 0.0460
H61_2 H 0.2463 0.7573 0.0988
C93_2 C 0.4372(5) 0.8065(5) 0.0518(5)
H63_2 H 0.4642 0.8576 0.0694
H64_2 H 0.4689 0.7819 0.0677
C94_2 C 0.3944(6) 0.8447(6) 0.1699(6)
H65_2 H 0.3772 0.8078 0.1831
H66_2 H 0.4470 0.8638 0.1897
H67_2 H 0.3725 0.8856 0.1901
O17 O 0.1174(3) 0.9080(3) 0.0468(3)
O20 O 0.0575(3) 0.8079(3) 0.0424(3)
O1_2 O 0.2842(3) 0.8958(3) 0.9864(3)
O7_2 O 0.1900(2) 0.8323(3) 0.8440(3)
O8_2 O 0.1143(3) 0.8916(3) 0.9039(3)
O9_2 O 0.2949(3) 0.7609(3) 0.9780(4)
C53_2 C 0.1572(5) 0.8849(5) 0.8647(5)
C54_2 C 0.1942(4) 0.9638(4) 0.7438(5)
H35_2 H 0.2179 0.9560 0.7072
C57_2 C 0.1563(4) 0.9298(4) 0.8300(4)
C67_2 C 0.1977(4) 0.9242(5) 0.7787(5)
H39_2 H 0.2279 0.8919 0.7694
H41_2 H 0.0555 0.9720 0.3965
C79_2 C 0.0923(4) 0.9275(5) 0.2723(5)
H50_2 H 0.0844 0.9032 0.2991
C85_2 C 0.1178(5) 0.9817(4) 0.8445(5)
H56_2 H 0.0891 0.9874 0.8767
C86_2 C 0.1160(5) 0.9985(5) 0.1921(5)
C87_2 C 0.0858(4) 0.8843(5) 0.1967(5)
H58_2 H 0.0720 0.8317 0.1734
C88_2 C 0.0995(4) 0.9185(6) 0.1567(5)
C90_2 C 0.0924(5) 0.8770(6) 0.0793(6)
H62_2 H 0.4196 0.7795 0.9983
loop_
_geom_bond_atom_site_label_1
_geom_bond_atom_site_label_2
_geom_bond_site_symmetry_1
_geom_bond_site_symmetry_2
Zn2 O1 1_555 1_555
Zn10 O8 1_555 1_555
O7 Zn2 1_555 1_555
O8 C53 1_555 1_555
O9 Zn2 1_555 1_555
O10 C90 1_555 1_555
C53 O7 1_555 1_555
C54 H35 1_555 1_555
C57 C53 1_555 1_555
C67 C54 1_555 1_555
H39 C67 1_555 1_555
O13 C90 1_555 1_555
H50 C79 1_555 1_555
C85 C57 1_555 1_555
H56 C85 1_555 1_555
C87 C79 1_555 1_555
H58 C87 1_555 1_555
C88 C86 1_555 1_555
C90 C88 1_555 1_555
O16 Zn2 1_555 1_555
O18 Zn2 1_555 1_555
O19 Zn10 1_555 1_555
Zn10 O18 1_555 1_555
C57 C67 1_555 1_555
C87 C88 1_555 1_555
Zn5 O5 1_555 1_555
O3 C2 1_555 1_555
C1 H1 1_555 1_555
C2 C16 1_555 1_555
O5 C26 1_555 1_555
N6 C46 1_555 1_555
C6 H3 1_555 1_555
C7 H4 1_555 1_555
O6 C26 1_555 1_555
C15 C1 1_555 1_555
H8 C15 1_555 1_555
C16 C6 1_555 1_555
N3 Zn5 1_555 1_555
C23 C7 1_555 1_555
C26 C23 1_555 1_555
C28 N3 1_555 1_555
C33 C28 1_555 1_555
H22 C37 1_555 1_555
C40 H25 1_555 1_555
C43 C15 1_555 1_555
C47 C46 1_555 1_555
H31 C47 1_555 1_555
C48 N6 1_555 1_555
H32 C48 1_555 1_555
C49 C47 1_555 1_555
C50 C40 1_555 1_555
H33 C50 1_555 1_555
C51 C48 1_555 1_555
H34 C51 1_555 1_555
N5 C91 1_555 1_555
C92 C91 1_555 1_555
H59 C92 1_555 1_555
H60 C92 1_555 1_555
H61 C92 1_555 1_555
C93 N5 1_555 1_555
H63 C93 1_555 1_555
H64 C93 1_555 1_555
C94 N5 1_555 1_555
H65 C94 1_555 1_555
H66 C94 1_555 1_555
H67 C94 1_555 1_555
O14 Zn5 1_555 1_555
C1 N3 1_555 1_555
C7 C37 1_555 1_555
C33 C43 1_555 1_555
C40 C43 1_555 1_555
C49 C50 1_555 1_555
C49 C51 1_555 1_555
N4 C58 1_555 1_555
O18 C89 1_555 1_555
C55 C70 1_555 1_555
C56 C75 1_555 1_555
O19 C89 1_555 1_555
C58 C64 1_555 1_555
C59 C52 1_555 1_555
C60 N4 1_555 1_555
C61 C62 1_555 1_555
C62 C71 1_555 1_555
C63 H36 1_555 1_555
C64 H37 1_555 1_555
C65 N4 1_555 1_555
C66 C60 1_555 1_555
H38 C66 1_555 1_555
C68 C59 1_555 1_555
H40 C68 1_555 1_555
C70 H42 1_555 1_555
C71 C66 1_555 1_555
H43 C71 1_555 1_555
C72 C59 1_555 1_555
H44 C72 1_555 1_555
C73 C60 1_555 1_555
H45 C73 1_555 1_555
C74 C61 1_555 1_555
H46 C74 1_555 1_555
C75 C69 1_555 1_555
C76 C61 1_555 1_555
H47 C76 1_555 1_555
C77 C52 1_555 1_555
H48 C77 1_555 1_555
C78 C62 1_555 1_555
H49 C78 1_555 1_555
C80 C55 1_555 1_555
H51 C80 1_555 1_555
C81 C58 1_555 1_555
H52 C81 1_555 1_555
C82 C65 1_555 1_555
H53 C82 1_555 1_555
C83 C56 1_555 1_555
H54 C83 1_555 1_555
C84 C63 1_555 1_555
H55 C84 1_555 1_555
C89 C55 1_555 1_555
C63 C65 1_555 1_555
C64 C68 1_555 1_555
C69 C82 1_555 1_555
C70 C76 1_555 1_555
C72 C81 1_555 1_555
C73 C78 1_555 1_555
C74 C80 1_555 1_555
C75 C84 1_555 1_555
O14 C35 1_555 1_555
O16 C35 1_555 1_555
C3 H2 1_555 1_555
C4 C9 1_555 1_555
C5 C3 1_555 1_555
N2 C21 1_555 1_555
C8 C5 1_555 1_555
C9 C18 1_555 1_555
C10 C4 1_555 1_555
H5 C10 1_555 1_555
C11 C14 1_555 1_555
C12 C35 1_555 1_555
C13 H6 1_555 1_555
C14 H7 1_555 1_555
C17 H9 1_555 1_555
C18 H10 1_555 1_555
C19 C8 1_555 1_555
H11 C19 1_555 1_555
C20 C11 1_555 1_555
C21 C36 1_555 1_555
C22 N2 1_555 1_555
C24 C22 1_555 1_555
H12 C24 1_555 1_555
C25 C18 1_555 1_555
H13 C25 1_555 1_555
C27 C3 1_555 1_555
H14 C27 1_555 1_555
C29 C5 1_555 1_555
H16 C29 1_555 1_555
C30 C9 1_555 1_555
C31 C10 1_555 1_555
H18 C31 1_555 1_555
C32 N2 1_555 1_555
C34 C8 1_555 1_555
H20 C34 1_555 1_555
C36 C34 1_555 1_555
H21 C36 1_555 1_555
C38 C12 1_555 1_555
H23 C38 1_555 1_555
C39 C12 1_555 1_555
H24 C39 1_555 1_555
C41 C20 1_555 1_555
H26 C41 1_555 1_555
C42 C13 1_555 1_555
H27 C42 1_555 1_555
C44 C11 1_555 1_555
H28 C44 1_555 1_555
C45 C19 1_555 1_555
H29 C45 1_555 1_555
C13 C20 1_555 1_555
C14 C38 1_555 1_555
C17 C30 1_555 1_555
C17 C32 1_555 1_555
C21 C45 1_555 1_555
C22 C42 1_555 1_555
C24 C41 1_555 1_555
C25 C32 1_555 1_555
C39 C44 1_555 1_555
O2 C35_2 1_555 1_555
O4 C35_2 1_555 1_555
C3_2 H2_2 1_555 1_555
C4_2 C9_2 1_555 1_555
C5_2 C3_2 1_555 1_555
N2_2 C21_2 1_555 1_555
C8_2 C5_2 1_555 1_555
C9_2 C18_2 1_555 1_555
C10_2 C4_2 1_555 1_555
H5_2 C10_2 1_555 1_555
C11_2 C14_2 1_555 1_555
C12_2 C35_2 1_555 1_555
C13_2 H6_2 1_555 1_555
C14_2 H7_2 1_555 1_555
C17_2 H9_2 1_555 1_555
C18_2 H10_2 1_555 1_555
C19_2 C8_2 1_555 1_555
H11_2 C19_2 1_555 1_555
C20_2 C11_2 1_555 1_555
C21_2 C36_2 1_555 1_555
C22_2 N2_2 1_555 1_555
C24_2 C22_2 1_555 1_555
H12_2 C24_2 1_555 1_555
C25_2 C18_2 1_555 1_555
H13_2 C25_2 1_555 1_555
C27_2 C3_2 1_555 1_555
H14_2 C27_2 1_555 1_555
C29_2 C5_2 1_555 1_555
H16_2 C29_2 1_555 1_555
C30_2 C9_2 1_555 1_555
C31_2 C10_2 1_555 1_555
H18_2 C31_2 1_555 1_555
C32_2 N2_2 1_555 1_555
C34_2 C8_2 1_555 1_555
H20_2 C34_2 1_555 1_555
C36_2 C34_2 1_555 1_555
H21_2 C36_2 1_555 1_555
C38_2 C12_2 1_555 1_555
H23_2 C38_2 1_555 1_555
C39_2 C12_2 1_555 1_555
H24_2 C39_2 1_555 1_555
C41_2 C20_2 1_555 1_555
H26_2 C41_2 1_555 1_555
C42_2 C13_2 1_555 1_555
H27_2 C42_2 1_555 1_555
C44_2 C11_2 1_555 1_555
H28_2 C44_2 1_555 1_555
C45_2 C19_2 1_555 1_555
H29_2 C45_2 1_555 1_555
Zn4 O2 1_555 1_555
Zn6 O4 1_555 1_555
C13_2 C20_2 1_555 1_555
C14_2 C38_2 1_555 1_555
C17_2 C30_2 1_555 1_555
C17_2 C32_2 1_555 1_555
C21_2 C45_2 1_555 1_555
C22_2 C42_2 1_555 1_555
C24_2 C41_2 1_555 1_555
C25_2 C32_2 1_555 1_555
C39_2 C44_2 1_555 1_555
N4_2 C58_2 1_555 1_555
O11 C89_2 1_555 1_555
C55_2 C70_2 1_555 1_555
C56_2 C75_2 1_555 1_555
O12 C89_2 1_555 1_555
C58_2 C64_2 1_555 1_555
C59_2 C52_2 1_555 1_555
C60_2 N4_2 1_555 1_555
C61_2 C62_2 1_555 1_555
C62_2 C71_2 1_555 1_555
C63_2 H36_2 1_555 1_555
C64_2 H37_2 1_555 1_555
C65_2 N4_2 1_555 1_555
C66_2 C60_2 1_555 1_555
H38_2 C66_2 1_555 1_555
C68_2 C59_2 1_555 1_555
H40_2 C68_2 1_555 1_555
C70_2 H42_2 1_555 1_555
C71_2 C66_2 1_555 1_555
H43_2 C71_2 1_555 1_555
C72_2 C59_2 1_555 1_555
H44_2 C72_2 1_555 1_555
C73_2 C60_2 1_555 1_555
H45_2 C73_2 1_555 1_555
C74_2 C61_2 1_555 1_555
H46_2 C74_2 1_555 1_555
C75_2 C69_2 1_555 1_555
C76_2 C61_2 1_555 1_555
H47_2 C76_2 1_555 1_555
C77_2 C52_2 1_555 1_555
H48_2 C77_2 1_555 1_555
C78_2 C62_2 1_555 1_555
H49_2 C78_2 1_555 1_555
C80_2 C55_2 1_555 1_555
H51_2 C80_2 1_555 1_555
C81_2 C58_2 1_555 1_555
H52_2 C81_2 1_555 1_555
C82_2 C65_2 1_555 1_555
H53_2 C82_2 1_555 1_555
C83_2 C56_2 1_555 1_555
H54_2 C83_2 1_555 1_555
C84_2 C63_2 1_555 1_555
H55_2 C84_2 1_555 1_555
C89_2 C55_2 1_555 1_555
Zn6 O11 1_555 1_555
Zn8 O11 1_555 1_555
O12 Zn8 1_555 1_555
C63_2 C65_2 1_555 1_555
C64_2 C68_2 1_555 1_555
C69_2 C82_2 1_555 1_555
C70_2 C76_2 1_555 1_555
C72_2 C81_2 1_555 1_555
C73_2 C78_2 1_555 1_555
C74_2 C80_2 1_555 1_555
C75_2 C84_2 1_555 1_555
Zn4 O5_2 1_555 1_555
O15 C2_2 1_555 1_555
C1_2 H1_2 1_555 1_555
C2_2 C16_2 1_555 1_555
O5_2 C26_2 1_555 1_555
N1 C46_2 1_555 1_555
C6_2 H3_2 1_555 1_555
C7_2 H4_2 1_555 1_555
O6_2 C26_2 1_555 1_555
C15_2 C1_2 1_555 1_555
H8_2 C15_2 1_555 1_555
C16_2 C6_2 1_555 1_555
N3_2 Zn4 1_555 1_555
C23_2 C7_2 1_555 1_555
C26_2 C23_2 1_555 1_555
C28_2 N3_2 1_555 1_555
C33_2 C28_2 1_555 1_555
H22_2 C37_2 1_555 1_555
C40_2 H25_2 1_555 1_555
C43_2 C15_2 1_555 1_555
C47_2 C46_2 1_555 1_555
H31_2 C47_2 1_555 1_555
C48_2 N1 1_555 1_555
H32_2 C48_2 1_555 1_555
C49_2 C47_2 1_555 1_555
C50_2 C40_2 1_555 1_555
H33_2 C50_2 1_555 1_555
C51_2 C48_2 1_555 1_555
H34_2 C51_2 1_555 1_555
N5_2 C91_2 1_555 1_555
C92_2 C91_2 1_555 1_555
H59_2 C92_2 1_555 1_555
H60_2 C92_2 1_555 1_555
H61_2 C92_2 1_555 1_555
C93_2 N5_2 1_555 1_555
H63_2 C93_2 1_555 1_555
H64_2 C93_2 1_555 1_555
C94_2 N5_2 1_555 1_555
H65_2 C94_2 1_555 1_555
H66_2 C94_2 1_555 1_555
H67_2 C94_2 1_555 1_555
C1_2 N3_2 1_555 1_555
C7_2 C37_2 1_555 1_555
C33_2 C43_2 1_555 1_555
C40_2 C43_2 1_555 1_555
C49_2 C50_2 1_555 1_555
C49_2 C51_2 1_555 1_555
Zn6 O1_2 1_555 1_555
Zn8 O8_2 1_555 1_555
O7_2 Zn6 1_555 1_555
O8_2 C53_2 1_555 1_555
O9_2 Zn6 1_555 1_555
O17 C90_2 1_555 1_555
C53_2 O7_2 1_555 1_555
C54_2 H35_2 1_555 1_555
C57_2 C53_2 1_555 1_555
C67_2 C54_2 1_555 1_555
H39_2 C67_2 1_555 1_555
O20 C90_2 1_555 1_555
H50_2 C79_2 1_555 1_555
C85_2 C57_2 1_555 1_555
H56_2 C85_2 1_555 1_555
C87_2 C79_2 1_555 1_555
H58_2 C87_2 1_555 1_555
C88_2 C86_2 1_555 1_555
C90_2 C88_2 1_555 1_555
C57_2 C67_2 1_555 1_555
C87_2 C88_2 1_555 1_555

#END
