
###############################################################################
#
# This file contains modified crystal structure data generated from the
# MOF subset of the Cambridge Structural Database (CSD) v543 
# hosted by the Cambridge Crystallographic Data Centre (CCDC).
#
# This work is licensed under the Creative Commons
# Attribution-NonCommercial-ShareAlike 4.0 International License.
# To view a copy of this license, visit
# http://creativecommons.org/licenses/by-nc-sa/4.0/
# or send a letter to
# Creative Commons, PO Box 1866, Mountain View, CA 94042, USA.
#
# CIF created using the CSD Python API on 29 September 2022
# The structure has been converted into the P1 space group
# The structure has a 3D framework
# The original CSD entry HUQHEI is in the triclinic crystal system
# The framework has been calculated to contain at least 10.0% void space
# The void calculation uses a probe of radius 1.32A, grid spacing 0.4
#
###############################################################################

data_HUQHEI
_chemical_formula_moiety         '(C182 H126 N14 O26 Zn4)n'
_symmetry_cell_setting           triclinic
_symmetry_space_group_name_H-M   'P 1'
_symmetry_Int_Tables_number      1
_space_group_name_Hall           'P 1'
loop_
_symmetry_equiv_pos_site_id
_symmetry_equiv_pos_as_xyz
1 x,y,z
_cell_length_a                   19.612(4)
_cell_length_b                   20.640(4)
_cell_length_c                   21.567(4)
_cell_angle_alpha                115.922(4)
_cell_angle_beta                 98.944(4)
_cell_angle_gamma                100.421(4)
_cell_volume                     7445.89
loop_
_atom_site_label
_atom_site_type_symbol
_atom_site_fract_x
_atom_site_fract_y
_atom_site_fract_z
C39 C 0.43710(17) 0.07527(17) 0.01469(19)
C40 C 0.46082(19) 0.16064(18) 0.13517(19)
H26 H 0.4935 0.1908 0.1798
C41 C 0.3914(2) 0.1594(2) 0.1284(2)
H27 H 0.3767 0.1893 0.1677
C42 C 0.34127(17) 0.1131(2) 0.0622(2)
C43 C 0.36515(18) 0.07072(19) 0.0051(2)
C44 C 0.1662(2) 0.1353(3) 0.0869(2)
C49 C 0.0452(2) 0.0947(2) 0.0169(3)
C50 C 0.1156(2) 0.0862(3) 0.0263(3)
C51 C 0.0771(3) 0.1912(4) 0.1277(3)
H38 H 0.0644 0.2268 0.1652
C52 C 0.1451(3) 0.1846(4) 0.1397(3)
H39 H 0.1771 0.2145 0.1848
N1 N 0.48480(13) 0.11968(13) 0.07940(14)
N2 N 0.26440(18) 0.10774(19) 0.04831(19)
N3 N 0.24204(19) 0.1357(2) 0.1007(2)
N4 N 0.02750(16) 0.14921(17) 0.06484(18)
O4 O 0.71076(13) 0.09930(12) 0.01619(12)
O7 O 0.71554(15) 0.23567(16) 0.01841(16)
Zn1 Zn 0.764750(19) 0.20250(2) 0.09087(2)
Zn2 Zn 0.591830(19) 0.12918(2) 0.09238(2)
O14 O 0.62091(12) 0.23712(12) 0.13162(12)
O15 O 0.74063(12) 0.27883(12) 0.17156(12)
O16 O 0.61709(11) 0.06879(12) 0.13482(12)
O17 O 0.80912(11) 0.16155(12) 0.15241(12)
O19 O 0.85997(12) 0.24244(12) 0.07711(13)
C11 C 0.61503(16) 0.1004(2) 0.20089(19)
C12 C 0.61891(17) 0.05400(19) 0.23731(18)
C16 C 0.62861(19) 0.0452(2) 0.34615(19)
H9 H 0.6345 0.0683 0.3953
C17 C 0.62842(17) 0.0875(2) 0.31175(19)
H10 H 0.6346 0.1389 0.3379
H13 H 0.6801 0.0048 0.4418
C22 C 0.64884(19) 0.07330(18) 0.97359(19)
C23 C 0.64188(16) 0.02697(17) 0.89521(17)
H14 H 0.5354 0.0082 0.8620
C28 C 0.70234(16) 0.01232(17) 0.87157(18)
H17 H 0.7471 0.0307 0.9044
H25 H 0.4534 0.0472 0.9758
H28 H 0.3329 0.0392 0.9604
C45 C 0.7363(3) 0.2193(3) 0.9640(3)
H29 H 0.7836 0.2169 0.9679
C46 C 0.6231(4) 0.1991(4) 0.8907(4)
H30 H 0.6129 0.2383 0.8815
H31 H 0.6106 0.2043 0.9337
H32 H 0.5954 0.1512 0.8514
C47 C 0.7272(5) 0.1855(5) 0.8367(4)
H33 H 0.7783 0.1947 0.8512
H34 H 0.7165 0.2160 0.8154
H35 H 0.7055 0.1335 0.8026
H36 H 0.0104 0.0601 0.9748
H37 H 0.1266 0.0469 0.9907
N5 N 0.6985(4) 0.2045(3) 0.8993(3)
O5 O 0.59171(11) 0.08276(11) 0.99123(11)
O6 O 0.60778(13) 0.16385(13) 0.23185(13)
C1 C 0.6785(2) 0.28641(18) 0.17239(18)
C2 C 0.67183(17) 0.36059(18) 0.22258(18)
C3 C 0.60432(19) 0.37100(19) 0.2263(2)
H1 H 0.5634 0.3306 0.1993
C4 C 0.59758(19) 0.4407(2) 0.2696(2)
H2 H 0.5521 0.4465 0.2727
C5 C 0.65733(18) 0.50237(18) 0.30878(19)
C6 C 0.72426(18) 0.49072(18) 0.30599(18)
H3 H 0.7651 0.5311 0.3331
C7 C 0.73208(18) 0.42107(17) 0.26420(17)
H4 H 0.7778 0.4146 0.2639
C8 C 0.64936(19) 0.57864(19) 0.34980(19)
C9 C 0.5978(2) 0.59103(19) 0.3891(2)
H5 H 0.5696 0.5515 0.3919
C10 C 0.6902(2) 0.63878(19) 0.34726(19)
H6 H 0.7248 0.6316 0.3219
C13 C 0.60940(17) 0.97703(19) 0.19917(19)
H7 H 0.6029 0.9538 0.1499
C14 C 0.60969(18) 0.9355(2) 0.23434(19)
H8 H 0.6027 0.8841 0.2078
C15 C 0.62003(19) 0.9670(2) 0.30845(19)
C18 C 0.6206(2) 0.9220(2) 0.3450(2)
C19 C 0.5859(2) 0.8460(2) 0.3106(2)
H11 H 0.5626 0.8224 0.2621
C20 C 0.5847(2) 0.8042(2) 0.3460(2)
H12 H 0.5598 0.7535 0.3213
C21 C 0.6556(2) 0.9540(2) 0.4165(2)
C24 C 0.57593(17) 0.99879(18) 0.84651(17)
C25 C 0.56978(16) 0.95658(17) 0.77461(18)
H15 H 0.5249 0.9376 0.7420
C26 C 0.63012(17) 0.94196(18) 0.75007(18)
C27 C 0.69594(17) 0.97100(18) 0.80041(18)
H16 H 0.7368 0.9621 0.7852
C29 C 0.62333(18) 0.89982(18) 0.67211(19)
C30 C 0.5761(2) 0.90683(19) 0.62191(19)
H18 H 0.5451 0.9361 0.6370
C31 C 0.5738(2) 0.8722(2) 0.5513(2)
H19 H 0.5426 0.8794 0.5194
C32 C 0.6177(2) 0.82609(19) 0.5265(2)
C33 C 0.6644(2) 0.81659(19) 0.57542(19)
H20 H 0.6941 0.7858 0.5598
C34 C 0.66680(18) 0.85243(18) 0.64650(18)
H21 H 0.6980 0.8452 0.6785
C35 C 0.6198(2) 0.8365(2) 0.4175(2)
C36 C 0.6544(2) 0.9101(2) 0.4512(2)
H22 H 0.6784 0.9329 0.4994
C37 C 0.6809(2) 0.7086(2) 0.38107(19)
H23 H 0.7087 0.7479 0.3777
C38 C 0.5892(2) 0.6619(2) 0.4236(2)
H24 H 0.5551 0.6698 0.4495
C48 C 0.6308(2) 0.7217(2) 0.42018(19)
N6 N 0.6174(2) 0.79324(16) 0.45268(16)
Zn3 Zn 0.92633(2) 0.16493(2) 0.05037(2)
O20 O 0.97289(14) 0.28247(13) 0.13449(15)
O21 O 0.89068(14) 0.11106(14) 0.10019(14)
C53 C 0.84987(17) 0.11944(18) 0.14100(18)
C54 C 0.85138(17) 0.07372(18) 0.17857(18)
C55 C 0.9036(2) 0.0367(2) 0.1775(2)
H40 H 0.9377 0.0399 0.1527
C69 C 0.9045(2) 0.1139(3) 0.9167(2)
C70 C 0.89590(17) 0.0688(2) 0.8386(2)
C74 C 0.8932(2) 0.0595(2) 0.7233(2)
H51 H 0.8945 0.0828 0.6950
C75 C 0.9000(2) 0.1020(2) 0.7960(2)
H52 H 0.9074 0.1536 0.8159
H56 H 0.9265 0.0232 0.5996
C89 C 0.80183(19) 0.0677(2) 0.2148(2)
H62 H 0.7665 0.0925 0.2162
C91 C 0.8035(2) 0.0249(2) 0.2498(2)
H63 H 0.7687 0.0212 0.2739
O11 O 0.88535(13) 0.08020(15) 0.95058(13)
O13 O 0.93198(15) 0.18225(16) 0.94797(15)
C56 C 0.9056(2) 0.9949(2) 0.2128(2)
H41 H 0.9416 0.9710 0.2117
C57 C 0.85603(17) 0.98741(18) 0.24968(19)
C58 C 0.85761(18) 0.94154(18) 0.28549(19)
C59 C 0.9137(2) 0.9129(2) 0.2933(2)
H42 H 0.9517 0.9227 0.2748
C60 C 0.8018(2) 0.9247(2) 0.3150(2)
H43 H 0.7624 0.9432 0.3114
C61 C 0.9138(2) 0.2955(2) 0.1249(2)
C62 C 0.90564(19) 0.37170(18) 0.1649(2)
C63 C 0.9541(2) 0.4223(2) 0.2286(2)
H44 H 0.9918 0.4084 0.2467
C64 C 0.9477(2) 0.49507(19) 0.2673(2)
H45 H 0.9811 0.5287 0.3108
C65 C 0.8448(2) 0.46542(18) 0.17710(19)
H46 H 0.8071 0.4791 0.1587
C66 C 0.8514(2) 0.39289(19) 0.13892(19)
H47 H 0.8183 0.3590 0.0954
C67 C 0.88607(19) 0.59374(18) 0.28320(19)
C68 C 0.91087(18) 0.63549(18) 0.35649(19)
H48 H 0.9331 0.6150 0.3819
C71 C 0.88597(16) 0.9919(2) 0.80729(19)
H49 H 0.8827 0.9682 0.8352
C72 C 0.88089(16) 0.95005(18) 0.73598(18)
H50 H 0.8748 0.8987 0.7168
C73 C 0.88453(18) 0.98206(18) 0.69226(19)
C76 C 0.88044(19) 0.93817(18) 0.61614(18)
C77 C 0.84865(18) 0.86026(18) 0.57781(18)
H53 H 0.8305 0.8357 0.6016
C78 C 0.84345(19) 0.81896(18) 0.50593(19)
H54 H 0.8212 0.7676 0.4820
C79 C 0.87106(19) 0.85339(18) 0.46928(19)
C80 C 0.9031(2) 0.93009(19) 0.50575(19)
H55 H 0.9225 0.9538 0.4819
C81 C 0.9064(2) 0.9715(2) 0.5768(2)
C82 C 0.8608(2) 0.85579(18) 0.35601(19)
C83 C 0.9166(2) 0.8696(2) 0.3278(2)
H57 H 0.9555 0.8504 0.3317
C84 C 0.8039(2) 0.8824(2) 0.3482(2)
H58 H 0.7656 0.8716 0.3660
C85 C 0.8713(2) 0.73944(18) 0.35839(19)
C86 C 0.90375(19) 0.70741(18) 0.3938(2)
H59 H 0.9212 0.7339 0.4433
C87 C 0.8526(2) 0.62765(19) 0.24796(19)
H60 H 0.8345 0.6014 0.1985
C88 C 0.8461(2) 0.69833(18) 0.28493(19)
H61 H 0.8241 0.7194 0.2599
C90 C 0.8937(2) 0.51689(18) 0.24191(19)
N7 N 0.86406(17) 0.81342(15) 0.39400(15)
C56_2 C 0.0944(2) 0.0051(2) 0.7872(2)
H41_2 H 0.0584 0.0290 0.7883
C57_2 C 0.14397(17) 0.01259(18) 0.75032(19)
C58_2 C 0.14239(18) 0.05846(18) 0.71451(19)
C59_2 C 0.0863(2) 0.0871(2) 0.7067(2)
H42_2 H 0.0483 0.0773 0.7252
C60_2 C 0.1982(2) 0.0753(2) 0.6850(2)
H43_2 H 0.2376 0.0568 0.6886
C61_2 C 0.0862(2) 0.7045(2) 0.8751(2)
C62_2 C 0.09436(19) 0.62830(18) 0.8351(2)
C63_2 C 0.0459(2) 0.5777(2) 0.7714(2)
H44_2 H 0.0082 0.5916 0.7533
C64_2 C 0.0523(2) 0.50493(19) 0.7327(2)
H45_2 H 0.0189 0.4713 0.6892
C65_2 C 0.1552(2) 0.53458(18) 0.82290(19)
H46_2 H 0.1929 0.5209 0.8413
C66_2 C 0.1486(2) 0.60711(19) 0.86108(19)
H47_2 H 0.1817 0.6410 0.9046
C67_2 C 0.11393(19) 0.40626(18) 0.71680(19)
C68_2 C 0.08913(18) 0.36451(18) 0.64351(19)
H48_2 H 0.0669 0.3850 0.6181
C71_2 C 0.11403(16) 0.0081(2) 0.19271(19)
H49_2 H 0.1173 0.0318 0.1648
C72_2 C 0.11911(16) 0.04995(18) 0.26402(18)
H50_2 H 0.1252 0.1013 0.2832
C73_2 C 0.11547(18) 0.01794(18) 0.30774(19)
C76_2 C 0.11956(19) 0.06183(18) 0.38386(18)
C77_2 C 0.15135(18) 0.13974(18) 0.42219(18)
H53_2 H 0.1695 0.1643 0.3984
C78_2 C 0.15655(19) 0.18104(18) 0.49407(19)
H54_2 H 0.1788 0.2324 0.5180
C79_2 C 0.12894(19) 0.14661(18) 0.53072(19)
C80_2 C 0.0969(2) 0.06991(19) 0.49425(19)
H55_2 H 0.0775 0.0462 0.5181
C81_2 C 0.0936(2) 0.0285(2) 0.4232(2)
C82_2 C 0.1392(2) 0.14421(18) 0.64399(19)
C83_2 C 0.0834(2) 0.1304(2) 0.6722(2)
H57_2 H 0.0445 0.1496 0.6683
C84_2 C 0.1961(2) 0.1176(2) 0.6518(2)
H58_2 H 0.2344 0.1284 0.6340
C85_2 C 0.1287(2) 0.26056(18) 0.64161(19)
C86_2 C 0.09625(19) 0.29259(18) 0.6062(2)
H59_2 H 0.0788 0.2661 0.5567
C87_2 C 0.1474(2) 0.37235(19) 0.75204(19)
H60_2 H 0.1655 0.3986 0.8015
C88_2 C 0.1539(2) 0.30167(18) 0.71507(19)
H61_2 H 0.1759 0.2806 0.7401
C90_2 C 0.1063(2) 0.48311(18) 0.75809(19)
N7_2 N 0.13594(17) 0.18658(15) 0.60600(15)
O9 O 0.14003(12) 0.75756(12) 0.92289(13)
O10 O 0.02711(14) 0.71753(13) 0.86551(15)
Zn4 Zn 0.235250(19) 0.79750(2) 0.90913(2)
Zn9 Zn 0.07367(2) 0.83507(2) 0.94963(2)
C53_2 C 0.15013(17) 0.88056(18) 0.85900(18)
C54_2 C 0.14862(17) 0.92628(18) 0.82143(18)
C55_2 C 0.0964(2) 0.9633(2) 0.8225(2)
H40_2 H 0.0623 0.9601 0.8473
C69_2 C 0.0955(2) 0.8861(3) 0.0833(2)
C70_2 C 0.10410(17) 0.9312(2) 0.1614(2)
C74_2 C 0.1068(2) 0.9405(2) 0.2767(2)
H51_2 H 0.1055 0.9172 0.3050
C75_2 C 0.1000(2) 0.8980(2) 0.2040(2)
H52_2 H 0.0926 0.8464 0.1841
H56_2 H 0.0735 0.9768 0.4004
C89_2 C 0.19817(19) 0.9323(2) 0.7852(2)
H62_2 H 0.2335 0.9075 0.7838
C91_2 C 0.1965(2) 0.9751(2) 0.7502(2)
H63_2 H 0.2313 0.9788 0.7261
O8 O 0.19088(11) 0.83845(12) 0.84759(12)
O11_2 O 0.11465(13) 0.91980(15) 0.04942(13)
O12 O 0.10932(14) 0.88894(14) 0.89981(14)
O13_2 O 0.06802(15) 0.81775(16) 0.05203(15)
C1_2 C 0.3215(2) 0.71359(18) 0.82761(18)
C2_2 C 0.32817(17) 0.63941(18) 0.77742(18)
C3_2 C 0.39568(19) 0.62900(19) 0.7737(2)
H1_2 H 0.4366 0.6694 0.8007
C4_2 C 0.40242(19) 0.5593(2) 0.7304(2)
H2_2 H 0.4479 0.5535 0.7273
C5_2 C 0.34267(18) 0.49763(18) 0.69122(19)
C6_2 C 0.27574(18) 0.50928(18) 0.69401(18)
H3_2 H 0.2349 0.4689 0.6669
C7_2 C 0.26792(18) 0.57893(17) 0.73580(17)
H4_2 H 0.2222 0.5854 0.7361
C8_2 C 0.35064(19) 0.42136(19) 0.65020(19)
C9_2 C 0.4022(2) 0.40897(19) 0.6109(2)
H5_2 H 0.4304 0.4485 0.6081
C10_2 C 0.3098(2) 0.36122(19) 0.65274(19)
H6_2 H 0.2752 0.3684 0.6781
C13_2 C 0.39060(17) 0.02297(19) 0.80083(19)
H7_2 H 0.3971 0.0462 0.8501
C14_2 C 0.39031(18) 0.0645(2) 0.76566(19)
H8_2 H 0.3973 0.1159 0.7922
C15_2 C 0.37997(19) 0.0330(2) 0.69155(19)
C18_2 C 0.3794(2) 0.0780(2) 0.6550(2)
C19_2 C 0.4141(2) 0.1540(2) 0.6894(2)
H11_2 H 0.4374 0.1776 0.7379
C20_2 C 0.4153(2) 0.1958(2) 0.6540(2)
H12_2 H 0.4402 0.2465 0.6787
C21_2 C 0.3444(2) 0.0460(2) 0.5835(2)
C24_2 C 0.42407(17) 0.00121(18) 0.15349(17)
C25_2 C 0.43022(16) 0.04342(17) 0.22539(18)
H15_2 H 0.4751 0.0624 0.2580
C26_2 C 0.36988(17) 0.05804(18) 0.24993(18)
C27_2 C 0.30406(17) 0.02900(18) 0.19959(18)
H16_2 H 0.2632 0.0379 0.2148
C29_2 C 0.37667(18) 0.10018(18) 0.32789(19)
C30_2 C 0.4239(2) 0.09317(19) 0.37809(19)
H18_2 H 0.4549 0.0639 0.3630
C31_2 C 0.4262(2) 0.1278(2) 0.4487(2)
H19_2 H 0.4574 0.1206 0.4806
C32_2 C 0.3823(2) 0.17391(19) 0.4735(2)
C33_2 C 0.3356(2) 0.18341(19) 0.42458(19)
H20_2 H 0.3059 0.2142 0.4402
C34_2 C 0.33320(18) 0.14757(18) 0.35350(18)
H21_2 H 0.3020 0.1548 0.3215
C35_2 C 0.3802(2) 0.1635(2) 0.5825(2)
C36_2 C 0.3456(2) 0.0899(2) 0.5488(2)
H22_2 H 0.3216 0.0671 0.5006
C37_2 C 0.3191(2) 0.2914(2) 0.61893(19)
H23_2 H 0.2913 0.2521 0.6223
C38_2 C 0.4108(2) 0.3381(2) 0.5764(2)
H24_2 H 0.4449 0.3302 0.5505
C48_2 C 0.3692(2) 0.2783(2) 0.57982(19)
N6_2 N 0.3826(2) 0.20676(16) 0.54732(16)
O1 O 0.37909(12) 0.76288(12) 0.86838(12)
O2 O 0.25937(12) 0.72117(12) 0.82844(12)
Zn7 Zn 0.408170(19) 0.87082(2) 0.90762(2)
C11_2 C 0.38497(16) 0.8996(2) 0.79911(19)
C12_2 C 0.38109(17) 0.94600(19) 0.76269(18)
C16_2 C 0.37139(19) 0.9548(2) 0.65385(19)
H9_2 H 0.3655 0.9317 0.6047
C17_2 C 0.37158(17) 0.9125(2) 0.68825(19)
H10_2 H 0.3654 0.8611 0.6621
H13_2 H 0.3199 0.9952 0.5582
C22_2 C 0.35116(19) 0.92670(18) 0.02641(19)
C23_2 C 0.35812(16) 0.97303(17) 0.10479(17)
H14_2 H 0.4646 0.9918 0.1380
C28_2 C 0.29766(16) 0.98768(17) 0.12843(18)
H17_2 H 0.2529 0.9693 0.0956
H25_2 H 0.5466 0.9528 0.0242
H28_2 H 0.6671 0.9608 0.0396
C45_2 C 0.2637(3) 0.7807(3) 0.0360(3)
H29_2 H 0.2164 0.7831 0.0321
C46_2 C 0.3769(4) 0.8009(4) 0.1093(4)
H30_2 H 0.3871 0.7617 0.1185
H31_2 H 0.3894 0.7957 0.0663
H32_2 H 0.4046 0.8488 0.1486
C47_2 C 0.2728(5) 0.8145(5) 0.1633(4)
H33_2 H 0.2217 0.8053 0.1488
H34_2 H 0.2835 0.7840 0.1846
H35_2 H 0.2945 0.8665 0.1974
H36_2 H 0.9896 0.9399 0.0252
H37_2 H 0.8734 0.9531 0.0093
N5_2 N 0.3015(4) 0.7955(3) 0.1007(3)
O3 O 0.38291(11) 0.93121(12) 0.86518(12)
O5_2 O 0.40829(11) 0.91724(11) 0.00877(11)
O6_2 O 0.39222(13) 0.83615(13) 0.76815(13)
C39_2 C 0.56290(17) 0.92473(17) 0.98531(19)
C40_2 C 0.53918(19) 0.83936(18) 0.86483(19)
H26_2 H 0.5065 0.8092 0.8202
C41_2 C 0.6086(2) 0.8406(2) 0.8716(2)
H27_2 H 0.6233 0.8107 0.8323
C42_2 C 0.65873(17) 0.8869(2) 0.9378(2)
C43_2 C 0.63485(18) 0.92928(19) 0.9949(2)
C44_2 C 0.8338(2) 0.8647(3) 0.9131(2)
C49_2 C 0.9548(2) 0.9053(2) 0.9831(3)
C50_2 C 0.8844(2) 0.9138(3) 0.9737(3)
C51_2 C 0.9229(3) 0.8088(4) 0.8723(3)
H38_2 H 0.9356 0.7732 0.8348
C52_2 C 0.8549(3) 0.8154(4) 0.8603(3)
H39_2 H 0.8229 0.7855 0.8152
N1_2 N 0.51520(13) 0.88032(13) 0.92060(14)
N2_2 N 0.73560(18) 0.89226(19) 0.95169(19)
N3_2 N 0.75796(19) 0.8643(2) 0.8993(2)
N4_2 N 0.97250(16) 0.85079(17) 0.93516(18)
O4_2 O 0.28924(13) 0.90070(12) 0.98381(12)
O7_2 O 0.28446(15) 0.76433(16) 0.98159(16)
loop_
_geom_bond_atom_site_label_1
_geom_bond_atom_site_label_2
_geom_bond_site_symmetry_1
_geom_bond_site_symmetry_2
C40 H26 1_555 1_555
C41 C40 1_555 1_555
H27 C41 1_555 1_555
C42 C41 1_555 1_555
C43 C39 1_555 1_555
C44 C50 1_555 1_555
C50 C49 1_555 1_555
C51 H38 1_555 1_555
C52 C44 1_555 1_555
H39 C52 1_555 1_555
N1 C39 1_555 1_555
N2 C42 1_555 1_555
N3 C44 1_555 1_555
N4 C49 1_555 1_555
Zn1 O4 1_555 1_555
Zn2 N1 1_555 1_555
O14 Zn2 1_555 1_555
O15 Zn1 1_555 1_555
O16 Zn2 1_555 1_555
O17 Zn1 1_555 1_555
O19 Zn1 1_555 1_555
C40 N1 1_555 1_555
C42 C43 1_555 1_555
C51 C52 1_555 1_555
C51 N4 1_555 1_555
N2 N3 1_555 1_555
O7 Zn1 1_555 1_555
C11 C12 1_555 1_555
H9 C16 1_555 1_555
C17 C12 1_555 1_555
H10 C17 1_555 1_555
C22 C23 1_555 1_555
C28 C23 1_555 1_555
H17 C28 1_555 1_555
C45 H29 1_555 1_555
C46 H30 1_555 1_555
H31 C46 1_555 1_555
H32 C46 1_555 1_555
C47 H33 1_555 1_555
H34 C47 1_555 1_555
H35 C47 1_555 1_555
N5 C45 1_555 1_555
O16 C11 1_555 1_555
O5 C22 1_555 1_555
O6 C11 1_555 1_555
C16 C17 1_555 1_555
C46 N5 1_555 1_555
C47 N5 1_555 1_555
C1 C2 1_555 1_555
C2 C3 1_555 1_555
C3 H1 1_555 1_555
C4 C3 1_555 1_555
H2 C4 1_555 1_555
C5 C4 1_555 1_555
C6 C5 1_555 1_555
H3 C6 1_555 1_555
C7 C2 1_555 1_555
H4 C7 1_555 1_555
C8 C5 1_555 1_555
C9 C8 1_555 1_555
H5 C9 1_555 1_555
C10 C8 1_555 1_555
H6 C10 1_555 1_555
C13 H7 1_555 1_555
C14 C13 1_555 1_555
H8 C14 1_555 1_555
C15 C14 1_555 1_555
C18 C15 1_555 1_555
C19 C18 1_555 1_555
H11 C19 1_555 1_555
C20 C19 1_555 1_555
H12 C20 1_555 1_555
C21 C18 1_555 1_555
C25 C24 1_555 1_555
H15 C25 1_555 1_555
C26 C25 1_555 1_555
C27 C26 1_555 1_555
H16 C27 1_555 1_555
C29 C26 1_555 1_555
C30 C29 1_555 1_555
H18 C30 1_555 1_555
C31 C30 1_555 1_555
H19 C31 1_555 1_555
C32 C31 1_555 1_555
C33 C32 1_555 1_555
H20 C33 1_555 1_555
C34 C29 1_555 1_555
H21 C34 1_555 1_555
C35 C20 1_555 1_555
C36 C21 1_555 1_555
H22 C36 1_555 1_555
C37 C10 1_555 1_555
H23 C37 1_555 1_555
C38 C9 1_555 1_555
H24 C38 1_555 1_555
C48 C37 1_555 1_555
N6 C32 1_555 1_555
O14 C1 1_555 1_555
O15 C1 1_555 1_555
C6 C7 1_555 1_555
C33 C34 1_555 1_555
C35 C36 1_555 1_555
C35 N6 1_555 1_555
C38 C48 1_555 1_555
C48 N6 1_555 1_555
O19 Zn3 1_555 1_555
O20 Zn3 1_555 1_555
O21 Zn3 1_555 1_555
C53 C54 1_555 1_555
C54 C55 1_555 1_555
C55 H40 1_555 1_555
C69 C70 1_555 1_555
H51 C74 1_555 1_555
C75 C70 1_555 1_555
H52 C75 1_555 1_555
C89 C54 1_555 1_555
H62 C89 1_555 1_555
H63 C91 1_555 1_555
O17 C53 1_555 1_555
O11 C69 1_555 1_555
O21 C53 1_555 1_555
O13 C69 1_555 1_555
C74 C75 1_555 1_555
C89 C91 1_555 1_555
H41 C56 1_555 1_555
C57 C56 1_555 1_555
C58 C57 1_555 1_555
C59 C58 1_555 1_555
H42 C59 1_555 1_555
C60 C58 1_555 1_555
H43 C60 1_555 1_555
C61 C62 1_555 1_555
C62 C63 1_555 1_555
C63 H44 1_555 1_555
C64 C63 1_555 1_555
H45 C64 1_555 1_555
C65 H46 1_555 1_555
C66 C62 1_555 1_555
H47 C66 1_555 1_555
C67 C68 1_555 1_555
C68 H48 1_555 1_555
C71 H49 1_555 1_555
C72 C71 1_555 1_555
H50 C72 1_555 1_555
C73 C72 1_555 1_555
C76 C73 1_555 1_555
C77 C76 1_555 1_555
H53 C77 1_555 1_555
C78 C77 1_555 1_555
H54 C78 1_555 1_555
C79 C78 1_555 1_555
C80 C79 1_555 1_555
H55 C80 1_555 1_555
C81 C76 1_555 1_555
C82 C83 1_555 1_555
C83 C59 1_555 1_555
H57 C83 1_555 1_555
C84 C60 1_555 1_555
H58 C84 1_555 1_555
C85 C86 1_555 1_555
C86 C68 1_555 1_555
H59 C86 1_555 1_555
C87 C67 1_555 1_555
H60 C87 1_555 1_555
C88 C85 1_555 1_555
H61 C88 1_555 1_555
C90 C64 1_555 1_555
N7 C79 1_555 1_555
O19 C61 1_555 1_555
O20 C61 1_555 1_555
C65 C66 1_555 1_555
C65 C90 1_555 1_555
C67 C90 1_555 1_555
C80 C81 1_555 1_555
C82 C84 1_555 1_555
C82 N7 1_555 1_555
C85 N7 1_555 1_555
C87 C88 1_555 1_555
H41_2 C56_2 1_555 1_555
C57_2 C56_2 1_555 1_555
C58_2 C57_2 1_555 1_555
C59_2 C58_2 1_555 1_555
H42_2 C59_2 1_555 1_555
C60_2 C58_2 1_555 1_555
H43_2 C60_2 1_555 1_555
C61_2 C62_2 1_555 1_555
C62_2 C63_2 1_555 1_555
C63_2 H44_2 1_555 1_555
C64_2 C63_2 1_555 1_555
H45_2 C64_2 1_555 1_555
C65_2 H46_2 1_555 1_555
C66_2 C62_2 1_555 1_555
H47_2 C66_2 1_555 1_555
C67_2 C68_2 1_555 1_555
C68_2 H48_2 1_555 1_555
C71_2 H49_2 1_555 1_555
C72_2 C71_2 1_555 1_555
H50_2 C72_2 1_555 1_555
C73_2 C72_2 1_555 1_555
C76_2 C73_2 1_555 1_555
C77_2 C76_2 1_555 1_555
H53_2 C77_2 1_555 1_555
C78_2 C77_2 1_555 1_555
H54_2 C78_2 1_555 1_555
C79_2 C78_2 1_555 1_555
C80_2 C79_2 1_555 1_555
H55_2 C80_2 1_555 1_555
C81_2 C76_2 1_555 1_555
C82_2 C83_2 1_555 1_555
C83_2 C59_2 1_555 1_555
H57_2 C83_2 1_555 1_555
C84_2 C60_2 1_555 1_555
H58_2 C84_2 1_555 1_555
C85_2 C86_2 1_555 1_555
C86_2 C68_2 1_555 1_555
H59_2 C86_2 1_555 1_555
C87_2 C67_2 1_555 1_555
H60_2 C87_2 1_555 1_555
C88_2 C85_2 1_555 1_555
H61_2 C88_2 1_555 1_555
C90_2 C64_2 1_555 1_555
N7_2 C79_2 1_555 1_555
O9 C61_2 1_555 1_555
O10 C61_2 1_555 1_555
Zn4 O9 1_555 1_555
Zn9 O9 1_555 1_555
C65_2 C66_2 1_555 1_555
C65_2 C90_2 1_555 1_555
C67_2 C90_2 1_555 1_555
C80_2 C81_2 1_555 1_555
C82_2 C84_2 1_555 1_555
C82_2 N7_2 1_555 1_555
C85_2 N7_2 1_555 1_555
C87_2 C88_2 1_555 1_555
O10 Zn9 1_555 1_555
C53_2 C54_2 1_555 1_555
C54_2 C55_2 1_555 1_555
C55_2 H40_2 1_555 1_555
C69_2 C70_2 1_555 1_555
H51_2 C74_2 1_555 1_555
C75_2 C70_2 1_555 1_555
H52_2 C75_2 1_555 1_555
C89_2 C54_2 1_555 1_555
H62_2 C89_2 1_555 1_555
H63_2 C91_2 1_555 1_555
O8 C53_2 1_555 1_555
O11_2 C69_2 1_555 1_555
O12 C53_2 1_555 1_555
O13_2 C69_2 1_555 1_555
Zn4 O8 1_555 1_555
Zn9 O12 1_555 1_555
C74_2 C75_2 1_555 1_555
C89_2 C91_2 1_555 1_555
C1_2 C2_2 1_555 1_555
C2_2 C3_2 1_555 1_555
C3_2 H1_2 1_555 1_555
C4_2 C3_2 1_555 1_555
H2_2 C4_2 1_555 1_555
C5_2 C4_2 1_555 1_555
C6_2 C5_2 1_555 1_555
H3_2 C6_2 1_555 1_555
C7_2 C2_2 1_555 1_555
H4_2 C7_2 1_555 1_555
C8_2 C5_2 1_555 1_555
C9_2 C8_2 1_555 1_555
H5_2 C9_2 1_555 1_555
C10_2 C8_2 1_555 1_555
H6_2 C10_2 1_555 1_555
C13_2 H7_2 1_555 1_555
C14_2 C13_2 1_555 1_555
H8_2 C14_2 1_555 1_555
C15_2 C14_2 1_555 1_555
C18_2 C15_2 1_555 1_555
C19_2 C18_2 1_555 1_555
H11_2 C19_2 1_555 1_555
C20_2 C19_2 1_555 1_555
H12_2 C20_2 1_555 1_555
C21_2 C18_2 1_555 1_555
C25_2 C24_2 1_555 1_555
H15_2 C25_2 1_555 1_555
C26_2 C25_2 1_555 1_555
C27_2 C26_2 1_555 1_555
H16_2 C27_2 1_555 1_555
C29_2 C26_2 1_555 1_555
C30_2 C29_2 1_555 1_555
H18_2 C30_2 1_555 1_555
C31_2 C30_2 1_555 1_555
H19_2 C31_2 1_555 1_555
C32_2 C31_2 1_555 1_555
C33_2 C32_2 1_555 1_555
H20_2 C33_2 1_555 1_555
C34_2 C29_2 1_555 1_555
H21_2 C34_2 1_555 1_555
C35_2 C20_2 1_555 1_555
C36_2 C21_2 1_555 1_555
H22_2 C36_2 1_555 1_555
C37_2 C10_2 1_555 1_555
H23_2 C37_2 1_555 1_555
C38_2 C9_2 1_555 1_555
H24_2 C38_2 1_555 1_555
C48_2 C37_2 1_555 1_555
N6_2 C32_2 1_555 1_555
O1 C1_2 1_555 1_555
O2 C1_2 1_555 1_555
Zn4 O2 1_555 1_555
Zn7 O1 1_555 1_555
C6_2 C7_2 1_555 1_555
C33_2 C34_2 1_555 1_555
C35_2 C36_2 1_555 1_555
C35_2 N6_2 1_555 1_555
C38_2 C48_2 1_555 1_555
C48_2 N6_2 1_555 1_555
C11_2 C12_2 1_555 1_555
H9_2 C16_2 1_555 1_555
C17_2 C12_2 1_555 1_555
H10_2 C17_2 1_555 1_555
C22_2 C23_2 1_555 1_555
C28_2 C23_2 1_555 1_555
H17_2 C28_2 1_555 1_555
C45_2 H29_2 1_555 1_555
C46_2 H30_2 1_555 1_555
H31_2 C46_2 1_555 1_555
H32_2 C46_2 1_555 1_555
C47_2 H33_2 1_555 1_555
H34_2 C47_2 1_555 1_555
H35_2 C47_2 1_555 1_555
N5_2 C45_2 1_555 1_555
O3 C11_2 1_555 1_555
O5_2 C22_2 1_555 1_555
O6_2 C11_2 1_555 1_555
Zn7 O3 1_555 1_555
C16_2 C17_2 1_555 1_555
C46_2 N5_2 1_555 1_555
C47_2 N5_2 1_555 1_555
C40_2 H26_2 1_555 1_555
C41_2 C40_2 1_555 1_555
H27_2 C41_2 1_555 1_555
C42_2 C41_2 1_555 1_555
C43_2 C39_2 1_555 1_555
C44_2 C50_2 1_555 1_555
C50_2 C49_2 1_555 1_555
C51_2 H38_2 1_555 1_555
C52_2 C44_2 1_555 1_555
H39_2 C52_2 1_555 1_555
N1_2 C39_2 1_555 1_555
N2_2 C42_2 1_555 1_555
N3_2 C44_2 1_555 1_555
N4_2 C49_2 1_555 1_555
Zn4 O4_2 1_555 1_555
Zn7 N1_2 1_555 1_555
C40_2 N1_2 1_555 1_555
C42_2 C43_2 1_555 1_555
C51_2 C52_2 1_555 1_555
C51_2 N4_2 1_555 1_555
N2_2 N3_2 1_555 1_555
O7_2 Zn4 1_555 1_555

#END
