
###############################################################################
#
# This file contains modified crystal structure data generated from the
# MOF subset of the Cambridge Structural Database (CSD) v543 
# hosted by the Cambridge Crystallographic Data Centre (CCDC).
#
# This work is licensed under the Creative Commons
# Attribution-NonCommercial-ShareAlike 4.0 International License.
# To view a copy of this license, visit
# http://creativecommons.org/licenses/by-nc-sa/4.0/
# or send a letter to
# Creative Commons, PO Box 1866, Mountain View, CA 94042, USA.
#
# CIF created using the CSD Python API on 29 September 2022
# The structure has been converted into the P1 space group
# The structure has a 3D framework
# The original CSD entry HUQHIM is in the monoclinic crystal system
# The framework has been calculated to contain at least 10.0% void space
# The void calculation uses a probe of radius 1.32A, grid spacing 0.4
#
###############################################################################

data_HUQHIM
_chemical_formula_moiety         '(C368 H258 N24 O54 Zn12)n'
_symmetry_cell_setting           triclinic
_symmetry_space_group_name_H-M   'P 1'
_symmetry_Int_Tables_number      1
_space_group_name_Hall           'P 1'
loop_
_symmetry_equiv_pos_site_id
_symmetry_equiv_pos_as_xyz
1 x,y,z
_cell_length_a                   21.210(3)
_cell_length_b                   36.410(5)
_cell_length_c                   19.419(3)
_cell_angle_alpha                90
_cell_angle_beta                 94.425(3)
_cell_angle_gamma                90
_cell_volume                     14951.7
loop_
_atom_site_label
_atom_site_type_symbol
_atom_site_fract_x
_atom_site_fract_y
_atom_site_fract_z
C10 C 0.0986(2) 0.21174(12) 0.4802(2)
C11 C 0.0422(2) 0.23407(13) 0.4898(2)
C12 C 0.0465(2) 0.27185(12) 0.5006(2)
H10 H 0.0860 0.2831 0.5029
O1 O 0.09209(14) 0.17962(8) 0.45544(15)
O2 O 0.15239(14) 0.22491(8) 0.49492(15)
Zn4 Zn 0.20285(2) 0.180270(14) 0.46871(3)
C55 C 0.0300(2) 0.27518(12) 0.7480(2)
C56 C 0.1339(2) 0.23035(12) 0.7375(2)
C57 C 0.0608(2) 0.25897(12) 0.8061(2)
H42 H 0.0456 0.2630 0.8492
C59 C 0.1022(2) 0.24486(13) 0.6794(2)
H43 H 0.1150 0.2389 0.6360
C60 C 0.1916(2) 0.20561(12) 0.7312(3)
C62 C 0.1130(2) 0.23719(12) 0.8015(2)
H44 H 0.1340 0.2272 0.8410
C64 C 0.0522(2) 0.26786(13) 0.6844(2)
H46 H 0.0329 0.2787 0.6448
H52 H 0.0091 0.3226 0.8460
O10 O 0.22725(14) 0.20162(9) 0.78311(16)
O12 O 0.19784(16) 0.19160(9) 0.67207(16)
Zn6 Zn 0.25375(3) 0.153300(15) 0.63754(3)
Zn9 Zn 0.31476(2) 0.186600(14) 0.80838(3)
C1 C 0.7602(6) 0.5492(2) 0.7232(5)
H1 H 0.7906 0.5551 0.7586
C2 C 0.3587 0.0214 0.6133
H2 H 0.3788 0.0038 0.5855
H3 H 0.3174 0.0127 0.6224
H4 H 0.3837 0.0248 0.6562
C3 C 0.2520(2) 0.20810(13) 0.0078(3)
H5 H 0.2186 0.2211 0.0244
C4 C 0.2287(3) 0.18650(14) 0.1494(3)
C6 C 0.3439(2) 0.17030(14) 0.0264(3)
H7 H 0.3737 0.1580 0.0554
C7 C 0.2942(3) 0.18827(14) 0.0519(3)
C9 C 0.3243(5) 0.0835(3) 0.6087(5)
H9 H 0.3090 0.0752 0.6494
C13 C 0.9338(2) 0.27690(13) 0.5058(2)
C14 C 0.9941(2) 0.29261(13) 0.5078(2)
H11 H 0.9984 0.3178 0.5141
C15 C 0.3796(2) 0.22678(12) 0.5475(2)
C16 C 0.3250(2) 0.20291(13) 0.5525(2)
C17 C 0.4613(2) 0.26560(14) 0.6012(2)
H12 H 0.4807 0.2760 0.6411
C18 C 0.1686(2) 0.16967(12) 0.3196(2)
H13 H 0.1347 0.1576 0.3371
C19 C 0.1732(2) 0.16967(13) 0.2498(2)
H14 H 0.1423 0.1583 0.2207
C20 C 0.5399(2) 0.29786(13) 0.5345(2)
C21 C 0.4540(2) 0.25809(13) 0.4796(2)
H15 H 0.4681 0.2635 0.4366
C22 C 0.4098(2) 0.24295(14) 0.6061(2)
H16 H 0.3950 0.2384 0.6491
C23 C 0.9833(2) 0.21828(12) 0.4847(2)
H17 H 0.9791 0.1934 0.4744
C24 C 0.4025(2) 0.23490(13) 0.4835(2)
H18 H 0.3831 0.2247 0.4434
C25 C 0.9291(2) 0.23930(13) 0.4950(3)
H19 H 0.8899 0.2279 0.4944
C26 C 0.4846(2) 0.27315(13) 0.5375(2)
C27 C 0.6496(2) 0.34031(13) 0.5295(3)
C28 C 0.2240(2) 0.18666(12) 0.2229(2)
C29 C 0.2584(2) 0.20362(12) 0.3376(2)
H20 H 0.2880 0.2153 0.3680
C30 C 0.3704 0.0683 0.5033
H21 H 0.3665 0.0944 0.4962
H22 H 0.3428 0.0558 0.4695
H23 H 0.4133 0.0610 0.4986
C31 C 0.2661(2) 0.20506(12) 0.2684(2)
H24 H 0.2993 0.2183 0.2521
C32 C 0.8706(2) 0.33511(13) 0.4909(3)
H25 H 0.9046 0.3464 0.4719
C33 C 0.7598(2) 0.44152(13) 0.6349(2)
H26 H 0.7917 0.4478 0.6683
C34 C 0.7650(2) 0.33918(14) 0.5275(3)
C35 C 0.7158(2) 0.50485(14) 0.6421(2)
C36 C 0.5827(2) 0.29213(12) 0.4839(2)
H27 H 0.5743 0.2738 0.4511
C37 C 0.8771(2) 0.29888(13) 0.5131(2)
C38 C 0.5518(2) 0.32614(14) 0.5772(3)
H28 H 0.5225 0.3318 0.6087
C39 C 0.7124(2) 0.39568(13) 0.5575(3)
C40 C 0.6369(2) 0.31288(13) 0.4813(3)
H29 H 0.6646 0.3084 0.4474
C41 C 0.7159(2) 0.46694(13) 0.6132(3)
C42 C 0.7175(2) 0.57407(13) 0.7026(3)
C43 C 0.7577(2) 0.40591(14) 0.6074(3)
H30 H 0.7879 0.3889 0.6236
C44 C 0.7194(3) 0.61180(13) 0.7347(3)
C45 C 0.8148(2) 0.35527(13) 0.4959(3)
H31 H 0.8111 0.3790 0.4784
C46 C 0.6070(2) 0.34811(13) 0.5768(3)
H32 H 0.6141 0.3673 0.6079
C47 C 0.7710(2) 0.30386(13) 0.5520(3)
H33 H 0.7380 0.2933 0.5740
C48 C 0.6681(3) 0.42174(14) 0.5342(3)
H34 H 0.6368 0.4155 0.5000
C49 C 0.8250(2) 0.28403(13) 0.5447(2)
H35 H 0.8274 0.2600 0.5609
C50 C 0.6699(3) 0.45656(14) 0.5607(3)
H36 H 0.6402 0.4737 0.5437
C51 C 0.6779(3) 0.53087(17) 0.6207(4)
H37 H 0.6486 0.5260 0.5837
C52 C 0.6783(3) 0.56557(15) 0.6499(4)
H38 H 0.6501 0.5832 0.6315
C53 C 0.7612(5) 0.5147(2) 0.6940(5)
H39 H 0.7924 0.4980 0.7091
N1 N 0.2852(3) 0.18729(12) 0.1237(3)
H40 H 0.3183 0.1872 0.1522
N3 N 0.21022(17) 0.18612(9) 0.36321(17)
N4 N 0.3525(5) 0.0589(3) 0.5740(7)
N5 N 0.70859(18) 0.35972(10) 0.5308(2)
O3 O 0.1697(3) 0.18412(15) 0.1065(3)
O4 O 0.31352(16) 0.19172(10) 0.60925(19)
O5 O 0.29187(14) 0.19528(9) 0.49628(16)
O6 O 0.75731(19) 0.61660(9) 0.78648(18)
O7 O 0.68073(17) 0.63398(9) 0.7094(2)
O8 O 0.3154(2) 0.11395(13) 0.5970(3)
H60 H 0.7810 0.5531 0.0370
O13 O 0.79916(16) 0.62168(8) 0.04469(17)
O17 O 0.24269(19) 0.11660(9) 0.71352(18)
Zn5 Zn 0.79715(2) 0.680270(14) 0.03129(3)
Zn8 Zn 0.74625(3) 0.653300(15) 0.86246(3)
O21 O 0.20084(16) 0.12168(8) 0.45531(17)
O22 O 0.19003(15) 0.14196(8) 0.55925(16)
Zn10 Zn 0.68524(2) 0.686600(14) 0.69162(3)
C5 C 0.2619(2) 0.20756(13) 0.9385(3)
H6 H 0.2347 0.2213 0.9088
C8 C 0.3479(2) 0.17116(13) 0.9573(2)
H8 H 0.3812 0.1585 0.9398
N2 N 0.30715(15) 0.18896(10) 0.91151(18)
C54 C 0.7031(2) 0.29031(16) 0.8232(3)
H41 H 0.7039 0.2682 0.8473
C58 C 0.4218(2) 0.21375(15) 0.8001(2)
C61 C 0.4787(2) 0.23629(13) 0.7946(2)
C63 C 0.4752(2) 0.27426(14) 0.7839(2)
H45 H 0.4358 0.2855 0.7783
C65 C 0.9752(2) 0.29966(11) 0.7551(2)
C66 C 0.6484(2) 0.30151(14) 0.7897(3)
C67 C 0.5298(2) 0.29558(13) 0.7815(2)
H47 H 0.5267 0.3207 0.7735
C68 C 0.8716(2) 0.34310(12) 0.7749(3)
C69 C 0.8173(2) 0.39937(12) 0.8166(3)
C70 C 0.5894(2) 0.27874(13) 0.7911(2)
C71 C 0.6479(2) 0.33315(14) 0.7546(3)
H48 H 0.6105 0.3411 0.7311
C72 C 0.8440(2) 0.57032(13) 0.9002(3)
H49 H 0.8578 0.5902 0.8753
C73 C 0.8180(2) 0.57736(12) 0.9600(2)
C74 C 0.8686(2) 0.45745(12) 0.8328(3)
H50 H 0.9013 0.4732 0.8236
C75 C 0.9252(2) 0.30064(14) 0.7078(3)
H51 H 0.9263 0.2863 0.6683
C76 C 0.9744(2) 0.32219(12) 0.8137(2)
C77 C 0.7565(2) 0.34249(13) 0.7844(3)
C78 C 0.7025(2) 0.35448(14) 0.7526(3)
H53 H 0.7011 0.3768 0.7293
C79 C 0.9220(2) 0.34388(12) 0.8235(3)
H54 H 0.9212 0.3587 0.8624
C80 C 0.8651(2) 0.42332(13) 0.8019(3)
H55 H 0.8946 0.4165 0.7713
C81 C 0.8515(2) 0.53605(12) 0.8740(3)
H56 H 0.8734 0.5324 0.8349
C82 C 0.5385(3) 0.22072(14) 0.8015(3)
H57 H 0.5418 0.1954 0.8078
C83 C 0.8719(2) 0.32219(12) 0.7153(3)
H58 H 0.8381 0.3225 0.6819
C84 C 0.8070(2) 0.61511(13) 0.9839(3)
C85 C 0.5924(2) 0.24068(13) 0.7997(3)
H59 H 0.6314 0.2290 0.8041
C86 C 0.7979(3) 0.54875(15) 0.9950(3)
C87 C 0.8248(3) 0.50612(14) 0.9085(3)
C88 C 0.8242(2) 0.46869(12) 0.8772(3)
C89 C 0.7768(3) 0.44457(14) 0.8894(3)
H61 H 0.7460 0.4518 0.9182
C90 C 0.8009(3) 0.51213(14) 0.9717(3)
H62 H 0.7874 0.4927 0.9980
C91 C 0.7733(3) 0.40985(15) 0.8604(3)
H63 H 0.7411 0.3938 0.8705
C92 C 0.7577(3) 0.31042(17) 0.8228(4)
H64 H 0.7946 0.3027 0.8477
N6 N 0.81396(17) 0.36425(11) 0.7842(2)
O9 O 0.36816(15) 0.22720(9) 0.78071(14)
O11 O 0.42656(16) 0.18184(9) 0.82351(19)
O14 O 0.80997(15) 0.64196(8) 0.94075(16)
O18 O 0.31927(17) 0.13398(9) 0.7906(2)
C72_2 C 0.1560(2) 0.07032(13) 0.5998(3)
H49_2 H 0.1422 0.0902 0.6247
C73_2 C 0.1820(2) 0.07736(12) 0.5400(2)
C81_2 C 0.1485(2) 0.03605(12) 0.6260(3)
H56_2 H 0.1266 0.0324 0.6651
C84_2 C 0.1930(2) 0.11511(13) 0.5161(3)
C86_2 C 0.2021(3) 0.04875(15) 0.5050(3)
H60_2 H 0.2190 0.0531 0.4630
C87_2 C 0.1752(3) 0.00612(14) 0.5915(3)
C90_2 C 0.1991(3) 0.01213(14) 0.5283(3)
C1_2 C 0.2398(6) 0.0492(2) 0.7768(5)
H1_2 H 0.2094 0.0551 0.7414
C35_2 C 0.2842(2) 0.00485(14) 0.8579(2)
C42_2 C 0.2825(2) 0.07407(13) 0.7974(3)
C44_2 C 0.2806(3) 0.11180(13) 0.7653(3)
C51_2 C 0.3221(3) 0.03087(17) 0.8793(4)
H37_2 H 0.3514 0.0260 0.9163
C52_2 C 0.3217(3) 0.06557(15) 0.8501(4)
H38_2 H 0.3499 0.0832 0.8685
C53_2 C 0.2388(5) 0.0147(2) 0.8060(5)
C3_2 C 0.7480(2) 0.70810(13) 0.4922(3)
H5_2 H 0.7814 0.7211 0.4756
C4_2 C 0.7713(3) 0.68650(14) 0.3506(3)
C5_2 C 0.7381(2) 0.70756(13) 0.5615(3)
H6_2 H 0.7653 0.7213 0.5912
C6_2 C 0.6561(2) 0.67030(14) 0.4736(3)
H7_2 H 0.6263 0.6580 0.4446
C7_2 C 0.7058(3) 0.68827(14) 0.4481(3)
C8_2 C 0.6521(2) 0.67116(13) 0.5427(2)
H8_2 H 0.6188 0.6585 0.5602
C18_2 C 0.8314(2) 0.66967(12) 0.1804(2)
H13_2 H 0.8653 0.6576 0.1629
C19_2 C 0.8268(2) 0.66967(13) 0.2502(2)
H14_2 H 0.8577 0.6583 0.2793
C21_2 C 0.5460(2) 0.75809(13) 0.0204(2)
H15_2 H 0.5319 0.7635 0.0634
C23_2 C 0.0167(2) 0.71828(12) 0.0153(2)
H17_2 H 0.0209 0.6934 0.0256
C24_2 C 0.5975(2) 0.73490(13) 0.0165(2)
H18_2 H 0.6169 0.7247 0.0566
C25_2 C 0.0709(2) 0.73930(13) 0.0050(3)
H19_2 H 0.1101 0.7279 0.0056
C28_2 C 0.7760(2) 0.68666(12) 0.2771(2)
C29_2 C 0.7416(2) 0.70362(12) 0.1624(2)
H20_2 H 0.7120 0.7153 0.1320
H21_2 H 0.6335 0.5944 0.0038
H22_2 H 0.6572 0.5558 0.0305
H23_2 H 0.5867 0.5610 0.0014
C31_2 C 0.7339(2) 0.70506(12) 0.2316(2)
H24_2 H 0.7007 0.7183 0.2479
C32_2 C 0.1294(2) 0.83511(13) 0.0091(3)
H25_2 H 0.0954 0.8464 0.0281
C36_2 C 0.4173(2) 0.79213(12) 0.0161(2)
H27_2 H 0.4257 0.7738 0.0489
C40_2 C 0.3631(2) 0.81288(13) 0.0187(3)
H29_2 H 0.3354 0.8084 0.0526
C45_2 C 0.1852(2) 0.85527(13) 0.0041(3)
H31_2 H 0.1889 0.8790 0.0216
H34_2 H 0.3632 0.9155 0.0000
N1_2 N 0.7148(3) 0.68729(12) 0.3763(3)
H40_2 H 0.6817 0.6872 0.3478
N2_2 N 0.69285(15) 0.68896(10) 0.58849(18)
N3_2 N 0.78978(17) 0.68612(9) 0.13679(17)
O3_2 O 0.8303(3) 0.68412(15) 0.3935(3)
O5_2 O 0.70813(14) 0.69528(9) 0.00372(16)
C54_2 C 0.2969(2) 0.79031(16) 0.6768(3)
H41_2 H 0.2961 0.7682 0.6527
C58_2 C 0.5782(2) 0.71375(15) 0.6999(2)
C61_2 C 0.5213(2) 0.73629(13) 0.7054(2)
C63_2 C 0.5248(2) 0.77426(14) 0.7161(2)
H45_2 H 0.5642 0.7855 0.7217
C65_2 C 0.0248(2) 0.79966(11) 0.7449(2)
C66_2 C 0.3516(2) 0.80151(14) 0.7103(3)
C67_2 C 0.4702(2) 0.79558(13) 0.7185(2)
H47_2 H 0.4733 0.8207 0.7265
C68_2 C 0.1284(2) 0.84310(12) 0.7251(3)
C69_2 C 0.1827(2) 0.89937(12) 0.6834(3)
C70_2 C 0.4106(2) 0.77874(13) 0.7089(2)
C71_2 C 0.3521(2) 0.83315(14) 0.7454(3)
H48_2 H 0.3895 0.8411 0.7689
C74_2 C 0.1314(2) 0.95745(12) 0.6672(3)
H50_2 H 0.0987 0.9732 0.6764
C75_2 C 0.0748(2) 0.80064(14) 0.7922(3)
H51_2 H 0.0737 0.7863 0.8317
C76_2 C 0.0256(2) 0.82219(12) 0.6863(2)
C77_2 C 0.2435(2) 0.84249(13) 0.7156(3)
C78_2 C 0.2975(2) 0.85448(14) 0.7474(3)
H53_2 H 0.2989 0.8768 0.7707
C79_2 C 0.0780(2) 0.84388(12) 0.6765(3)
H54_2 H 0.0788 0.8587 0.6376
C80_2 C 0.1349(2) 0.92332(13) 0.6981(3)
H55_2 H 0.1054 0.9165 0.7287
C82_2 C 0.4615(3) 0.72072(14) 0.6985(3)
H57_2 H 0.4582 0.6954 0.6922
C83_2 C 0.1281(2) 0.82219(12) 0.7847(3)
H58_2 H 0.1619 0.8225 0.8181
C85_2 C 0.4076(2) 0.74068(13) 0.7003(3)
H59_2 H 0.3686 0.7290 0.6959
C88_2 C 0.1758(2) 0.96869(12) 0.6228(3)
C89_2 C 0.2232(3) 0.94457(14) 0.6106(3)
H61_2 H 0.2540 0.9518 0.5818
H62_2 H 0.2126 0.9927 0.5020
C91_2 C 0.2267(3) 0.90985(15) 0.6396(3)
H63_2 H 0.2589 0.8938 0.6295
C92_2 C 0.2423(3) 0.81042(17) 0.6772(4)
H64_2 H 0.2054 0.8027 0.6523
N6_2 N 0.18604(17) 0.86425(11) 0.7158(2)
O9_2 O 0.63184(15) 0.72720(9) 0.71929(14)
O11_2 O 0.57344(16) 0.68184(9) 0.67649(19)
O15 O 0.90791(14) 0.67962(8) 0.04456(15)
O16 O 0.84761(14) 0.72491(8) 0.00508(15)
O19 O 0.77275(14) 0.70162(9) 0.71689(16)
C2_2 C 0.6413 0.5214 0.8867
H2_2 H 0.6212 0.5038 0.9145
H3_2 H 0.6826 0.5127 0.8776
H4_2 H 0.6163 0.5248 0.8438
C9_2 C 0.6757(5) 0.5835(3) 0.8913(5)
H9_2 H 0.6910 0.5752 0.8506
C13_2 C 0.0662(2) 0.77690(13) 0.9942(2)
C14_2 C 0.0059(2) 0.79261(13) 0.9922(2)
H11_2 H 0.0016 0.8178 0.9859
C15_2 C 0.6204(2) 0.72678(12) 0.9525(2)
C16_2 C 0.6750(2) 0.70291(13) 0.9475(2)
C17_2 C 0.5387(2) 0.76560(14) 0.8988(2)
H12_2 H 0.5193 0.7760 0.8589
C20_2 C 0.4601(2) 0.79786(13) 0.9655(2)
C22_2 C 0.5902(2) 0.74295(14) 0.8939(2)
H16_2 H 0.6050 0.7384 0.8509
C26_2 C 0.5154(2) 0.77315(13) 0.9625(2)
C27_2 C 0.3504(2) 0.84031(13) 0.9705(3)
C30_2 C 0.6296 0.5683 0.9967
C33_2 C 0.2402(2) 0.94152(13) 0.8651(2)
H26_2 H 0.2083 0.9478 0.8317
C34_2 C 0.2350(2) 0.83918(14) 0.9725(3)
C37_2 C 0.1229(2) 0.79888(13) 0.9869(2)
C38_2 C 0.4482(2) 0.82614(14) 0.9228(3)
H28_2 H 0.4775 0.8318 0.8913
C39_2 C 0.2876(2) 0.89568(13) 0.9425(3)
C41_2 C 0.2841(2) 0.96694(13) 0.8868(3)
C43_2 C 0.2423(2) 0.90591(14) 0.8926(3)
H30_2 H 0.2121 0.8889 0.8764
C46_2 C 0.3930(2) 0.84811(13) 0.9232(3)
H32_2 H 0.3859 0.8673 0.8921
C47_2 C 0.2290(2) 0.80386(13) 0.9480(3)
H33_2 H 0.2620 0.7933 0.9260
C48_2 C 0.3319(3) 0.92174(14) 0.9658(3)
H34_3 H 0.3632 0.9155 1.0000
C49_2 C 0.1750(2) 0.78403(13) 0.9553(2)
H35_2 H 0.1726 0.7600 0.9391
C50_2 C 0.3301(3) 0.95656(14) 0.9393(3)
H36_2 H 0.3598 0.9737 0.9563
H39_2 H 0.2076 0.9980 0.7909
N4_2 N 0.6475(5) 0.5589(3) 0.9260(7)
N5_2 N 0.29141(18) 0.85972(10) 0.9692(2)
O4_2 O 0.68648(16) 0.69172(10) 0.89075(19)
O8_2 O 0.6846(2) 0.61395(13) 0.9030(3)
O20 O 0.80216(16) 0.69160(9) 0.82793(16)
C10_2 C 0.9014(2) 0.71174(12) 0.0198(2)
C11_2 C 0.9578(2) 0.73407(13) 0.0102(2)
C55_2 C 0.9700(2) 0.77518(12) 0.7520(2)
C56_2 C 0.8661(2) 0.73035(12) 0.7625(2)
C57_2 C 0.9392(2) 0.75897(12) 0.6939(2)
H42_2 H 0.9544 0.7630 0.6508
C59_2 C 0.8978(2) 0.74486(13) 0.8206(2)
H43_2 H 0.8850 0.7389 0.8640
C60_2 C 0.8084(2) 0.70561(12) 0.7688(3)
C62_2 C 0.8870(2) 0.73719(12) 0.6985(2)
H44_2 H 0.8660 0.7272 0.6590
C64_2 C 0.9478(2) 0.76786(13) 0.8156(2)
H46_2 H 0.9671 0.7787 0.8552
H52_2 H 0.9909 0.8226 0.6540
C12_2 C 0.9535(2) 0.77185(12) 0.9994(2)
H10_2 H 0.9140 0.7831 0.9971
C5_3 C 0.7381(2) 0.79244(13) 0.0615(3)
H6_3 H 0.7653 0.7787 0.0912
C8_3 C 0.6521(2) 0.82884(13) 0.0427(2)
H8_3 H 0.6188 0.8415 0.0602
N2_3 N 0.69285(15) 0.81104(10) 0.08849(18)
C54_3 C 0.2969(2) 0.70969(16) 0.1768(3)
H41_3 H 0.2961 0.7318 0.1527
C58_3 C 0.5782(2) 0.78625(15) 0.1999(2)
C61_3 C 0.5213(2) 0.76371(13) 0.2054(2)
C63_3 C 0.5248(2) 0.72574(14) 0.2161(2)
H45_3 H 0.5642 0.7145 0.2217
C65_3 C 0.0248(2) 0.70034(11) 0.2449(2)
C66_3 C 0.3516(2) 0.69849(14) 0.2103(3)
C67_3 C 0.4702(2) 0.70442(13) 0.2185(2)
H47_3 H 0.4733 0.6793 0.2265
C68_3 C 0.1284(2) 0.65690(12) 0.2251(3)
C69_3 C 0.1827(2) 0.60063(12) 0.1834(3)
C70_3 C 0.4106(2) 0.72126(13) 0.2089(2)
C71_3 C 0.3521(2) 0.66685(14) 0.2454(3)
H48_3 H 0.3895 0.6589 0.2689
C72_3 C 0.1560(2) 0.42968(13) 0.0998(3)
H49_3 H 0.1422 0.4098 0.1247
C73_3 C 0.1820(2) 0.42264(12) 0.0400(2)
C74_3 C 0.1314(2) 0.54255(12) 0.1672(3)
H50_3 H 0.0987 0.5268 0.1764
C75_3 C 0.0748(2) 0.69936(14) 0.2922(3)
H51_3 H 0.0737 0.7137 0.3317
C76_3 C 0.0256(2) 0.67781(12) 0.1863(2)
C77_3 C 0.2435(2) 0.65751(13) 0.2156(3)
C78_3 C 0.2975(2) 0.64552(14) 0.2474(3)
H53_3 H 0.2989 0.6232 0.2707
C79_3 C 0.0780(2) 0.65612(12) 0.1765(3)
H54_3 H 0.0788 0.6413 0.1376
C80_3 C 0.1349(2) 0.57668(13) 0.1981(3)
H55_3 H 0.1054 0.5835 0.2287
C81_3 C 0.1485(2) 0.46395(12) 0.1260(3)
H56_3 H 0.1266 0.4676 0.1651
C82_3 C 0.4615(3) 0.77928(14) 0.1985(3)
H57_3 H 0.4582 0.8046 0.1922
C83_3 C 0.1281(2) 0.67781(12) 0.2847(3)
H58_3 H 0.1619 0.6775 0.3181
C84_3 C 0.1930(2) 0.38489(13) 0.0161(3)
C85_3 C 0.4076(2) 0.75932(13) 0.2003(3)
H59_3 H 0.3686 0.7710 0.1959
C86_3 C 0.2021(3) 0.45125(15) 0.0050(3)
C87_3 C 0.1752(3) 0.49388(14) 0.0915(3)
C88_3 C 0.1758(2) 0.53131(12) 0.1228(3)
C89_3 C 0.2232(3) 0.55543(14) 0.1106(3)
H61_3 H 0.2540 0.5482 0.0818
C90_3 C 0.1991(3) 0.48787(14) 0.0283(3)
H62_3 H 0.2126 0.5073 0.0020
C91_3 C 0.2267(3) 0.59015(15) 0.1396(3)
H63_3 H 0.2589 0.6062 0.1295
C92_3 C 0.2423(3) 0.68958(17) 0.1772(4)
H64_3 H 0.2054 0.6973 0.1523
N6_3 N 0.18604(17) 0.63575(11) 0.2158(2)
O9_3 O 0.63184(15) 0.77280(9) 0.21929(14)
O11_3 O 0.57344(16) 0.81816(9) 0.17649(19)
O14_2 O 0.19003(15) 0.35804(8) 0.05925(16)
Zn3 Zn 0.68524(2) 0.813400(14) 0.19162(3)
O18_2 O 0.68073(17) 0.86602(9) 0.2094(2)
Zn7 Zn 0.25375(3) 0.346700(15) 0.13754(3)
O19_2 O 0.77275(14) 0.79838(9) 0.21689(16)
C1_3 C 0.2398(6) 0.4508(2) 0.2768(5)
H1_3 H 0.2094 0.4449 0.2414
C2_3 C 0.6413 0.9786 0.3867
H2_3 H 0.6212 0.9962 0.4145
H3_3 H 0.6826 0.9873 0.3776
H4_3 H 0.6163 0.9752 0.3438
C3_3 C 0.7480(2) 0.79190(13) 0.9922(3)
H5_3 H 0.7814 0.7789 0.9756
C4_3 C 0.7713(3) 0.81350(14) 0.8506(3)
C6_3 C 0.6561(2) 0.82970(14) 0.9736(3)
H7_3 H 0.6263 0.8420 0.9446
C7_3 C 0.7058(3) 0.81173(14) 0.9481(3)
C9_3 C 0.6757(5) 0.9165(3) 0.3913(5)
H9_3 H 0.6910 0.9248 0.3506
C13_3 C 0.0662(2) 0.72310(13) 0.4942(2)
C14_3 C 0.0059(2) 0.70739(13) 0.4922(2)
H11_3 H 0.0016 0.6822 0.4859
C15_3 C 0.6204(2) 0.77322(12) 0.4525(2)
C16_3 C 0.6750(2) 0.79709(13) 0.4475(2)
C17_3 C 0.5387(2) 0.73440(14) 0.3988(2)
H12_3 H 0.5193 0.7240 0.3589
C18_3 C 0.8314(2) 0.83033(12) 0.6804(2)
H13_3 H 0.8653 0.8424 0.6629
C19_3 C 0.8268(2) 0.83033(13) 0.7502(2)
H14_3 H 0.8577 0.8417 0.7793
C20_3 C 0.4601(2) 0.70214(13) 0.4655(2)
C21_3 C 0.5460(2) 0.74191(13) 0.5204(2)
H15_3 H 0.5319 0.7365 0.5634
C22_3 C 0.5902(2) 0.75705(14) 0.3939(2)
H16_3 H 0.6050 0.7616 0.3509
C23_3 C 0.0167(2) 0.78172(12) 0.5153(2)
H17_3 H 0.0209 0.8066 0.5256
C24_3 C 0.5975(2) 0.76510(13) 0.5165(2)
H18_3 H 0.6169 0.7753 0.5566
C25_3 C 0.0709(2) 0.76070(13) 0.5050(3)
H19_3 H 0.1101 0.7721 0.5056
C26_3 C 0.5154(2) 0.72685(13) 0.4625(2)
C27_3 C 0.3504(2) 0.65969(13) 0.4705(3)
C28_3 C 0.7760(2) 0.81334(12) 0.7771(2)
C29_3 C 0.7416(2) 0.79638(12) 0.6624(2)
H20_3 H 0.7120 0.7847 0.6320
C30_3 C 0.6296 0.9317 0.4967
H21_3 H 0.6335 0.9056 0.5038
H22_3 H 0.6572 0.9442 0.5305
H23_3 H 0.5867 0.9390 0.5014
C31_3 C 0.7339(2) 0.79494(12) 0.7316(2)
H24_3 H 0.7007 0.7817 0.7479
C32_3 C 0.1294(2) 0.66489(13) 0.5091(3)
H25_3 H 0.0954 0.6536 0.5281
C33_3 C 0.2402(2) 0.55848(13) 0.3651(2)
H26_3 H 0.2083 0.5522 0.3317
C34_3 C 0.2350(2) 0.66082(14) 0.4725(3)
C35_3 C 0.2842(2) 0.49515(14) 0.3579(2)
C36_3 C 0.4173(2) 0.70787(12) 0.5161(2)
H27_3 H 0.4257 0.7262 0.5489
C37_3 C 0.1229(2) 0.70112(13) 0.4869(2)
C38_3 C 0.4482(2) 0.67386(14) 0.4228(3)
H28_3 H 0.4775 0.6682 0.3913
C39_3 C 0.2876(2) 0.60432(13) 0.4425(3)
C40_3 C 0.3631(2) 0.68712(13) 0.5187(3)
H29_3 H 0.3354 0.6916 0.5526
C41_3 C 0.2841(2) 0.53306(13) 0.3868(3)
C42_3 C 0.2825(2) 0.42593(13) 0.2974(3)
C43_3 C 0.2423(2) 0.59409(14) 0.3926(3)
H30_3 H 0.2121 0.6111 0.3764
C44_3 C 0.2806(3) 0.38820(13) 0.2653(3)
C45_3 C 0.1852(2) 0.64473(13) 0.5041(3)
H31_3 H 0.1889 0.6210 0.5216
C46_3 C 0.3930(2) 0.65189(13) 0.4232(3)
H32_3 H 0.3859 0.6327 0.3921
C47_3 C 0.2290(2) 0.69614(13) 0.4480(3)
H33_3 H 0.2620 0.7067 0.4260
C48_3 C 0.3319(3) 0.57826(14) 0.4658(3)
H34_4 H 0.3632 0.5845 0.5000
C49_3 C 0.1750(2) 0.71597(13) 0.4553(2)
H35_3 H 0.1726 0.7400 0.4391
C50_3 C 0.3301(3) 0.54344(14) 0.4393(3)
H36_3 H 0.3598 0.5263 0.4563
C51_3 C 0.3221(3) 0.46913(17) 0.3793(4)
H37_3 H 0.3514 0.4740 0.4163
C52_3 C 0.3217(3) 0.43443(15) 0.3501(4)
H38_3 H 0.3499 0.4168 0.3685
C53_3 C 0.2388(5) 0.4853(2) 0.3060(5)
H39_3 H 0.2076 0.5020 0.2909
N1_3 N 0.7148(3) 0.81271(12) 0.8763(3)
H40_3 H 0.6817 0.8128 0.8478
N3_3 N 0.78978(17) 0.81388(9) 0.63679(17)
N4_3 N 0.6475(5) 0.9411(3) 0.4260(7)
N5_3 N 0.29141(18) 0.64028(10) 0.4692(2)
O3_3 O 0.8303(3) 0.81588(15) 0.8935(3)
O4_3 O 0.68648(16) 0.80828(10) 0.39075(19)
O5_3 O 0.70813(14) 0.80472(9) 0.50372(16)
O6_2 O 0.24269(19) 0.38340(9) 0.21352(18)
O7_2 O 0.31927(17) 0.36602(9) 0.2906(2)
O8_3 O 0.6846(2) 0.88605(13) 0.4030(3)
Zn1 Zn 0.79715(2) 0.819730(14) 0.53129(3)
Zn2 Zn 0.74625(3) 0.846700(15) 0.36246(3)
H60_3 H 0.2190 0.4469 0.9630
O13_2 O 0.20084(16) 0.37832(8) 0.95531(17)
O15_2 O 0.90791(14) 0.82038(8) 0.54456(15)
O16_2 O 0.84761(14) 0.77509(8) 0.50508(15)
O17_2 O 0.75731(19) 0.88340(9) 0.28648(18)
Zn5_2 Zn 0.20285(2) 0.319730(14) 0.96871(3)
O20_2 O 0.80216(16) 0.80840(9) 0.32793(16)
O21_2 O 0.79916(16) 0.87832(8) 0.54469(17)
O22_2 O 0.80997(15) 0.85804(8) 0.44075(16)
Zn10_2 Zn 0.31476(2) 0.313400(14) 0.30838(3)
C55_3 C 0.9700(2) 0.72482(12) 0.2520(2)
C56_3 C 0.8661(2) 0.76965(12) 0.2625(2)
C57_3 C 0.9392(2) 0.74103(12) 0.1939(2)
H42_3 H 0.9544 0.7370 0.1508
C59_3 C 0.8978(2) 0.75514(13) 0.3206(2)
H43_3 H 0.8850 0.7611 0.3640
C60_3 C 0.8084(2) 0.79439(12) 0.2688(3)
C62_3 C 0.8870(2) 0.76281(12) 0.1985(2)
H44_3 H 0.8660 0.7728 0.1590
C64_3 C 0.9478(2) 0.73214(13) 0.3156(2)
H46_3 H 0.9671 0.7213 0.3552
H52_3 H 0.9909 0.6774 0.1540
C10_3 C 0.9014(2) 0.78826(12) 0.5198(2)
C11_3 C 0.9578(2) 0.76593(13) 0.5102(2)
C12_3 C 0.9535(2) 0.72815(12) 0.4994(2)
H10_3 H 0.9140 0.7169 0.4971
C10_4 C 0.0986(2) 0.28826(12) 0.9802(2)
C11_4 C 0.0422(2) 0.26593(13) 0.9898(2)
O1_2 O 0.09209(14) 0.32038(8) 0.95544(15)
O2_2 O 0.15239(14) 0.27509(8) 0.99492(15)
C55_4 C 0.0300(2) 0.22482(12) 0.2480(2)
C56_4 C 0.1339(2) 0.26965(12) 0.2375(2)
C57_4 C 0.0608(2) 0.24103(12) 0.3061(2)
H42_4 H 0.0456 0.2370 0.3492
C59_4 C 0.1022(2) 0.25514(13) 0.1794(2)
H43_4 H 0.1150 0.2611 0.1360
C60_4 C 0.1916(2) 0.29439(12) 0.2312(3)
C62_4 C 0.1130(2) 0.26281(12) 0.3015(2)
H44_4 H 0.1340 0.2728 0.3410
C64_4 C 0.0522(2) 0.23214(13) 0.1844(2)
H46_4 H 0.0329 0.2213 0.1448
H52_4 H 0.0091 0.1774 0.3460
O10_2 O 0.22725(14) 0.29838(9) 0.28311(16)
O12_2 O 0.19784(16) 0.30840(9) 0.17207(16)
C2_4 C 0.3587 0.4786 0.1133
H2_4 H 0.3788 0.4962 0.0855
H3_4 H 0.3174 0.4873 0.1224
H4_4 H 0.3837 0.4752 0.1562
C9_4 C 0.3243(5) 0.4165(3) 0.1087(5)
H9_4 H 0.3090 0.4248 0.1494
C13_4 C 0.9338(2) 0.22310(13) 0.0058(2)
C14_4 C 0.9941(2) 0.20739(13) 0.0078(2)
H11_4 H 0.9984 0.1822 0.0141
C15_4 C 0.3796(2) 0.27322(12) 0.0475(2)
C16_4 C 0.3250(2) 0.29709(13) 0.0525(2)
C17_4 C 0.4613(2) 0.23440(14) 0.1012(2)
H12_4 H 0.4807 0.2240 0.1411
C20_4 C 0.5399(2) 0.20214(13) 0.0345(2)
C22_4 C 0.4098(2) 0.25705(14) 0.1061(2)
H16_4 H 0.3950 0.2616 0.1491
C26_4 C 0.4846(2) 0.22685(13) 0.0375(2)
C27_4 C 0.6496(2) 0.15969(13) 0.0295(3)
C30_4 C 0.3704 0.4317 0.0033
C33_4 C 0.7598(2) 0.05848(13) 0.1349(2)
H26_4 H 0.7917 0.0522 0.1683
C34_4 C 0.7650(2) 0.16082(14) 0.0275(3)
C37_4 C 0.8771(2) 0.20112(13) 0.0131(2)
C38_4 C 0.5518(2) 0.17386(14) 0.0772(3)
H28_4 H 0.5225 0.1682 0.1087
C39_4 C 0.7124(2) 0.10432(13) 0.0575(3)
C41_4 C 0.7159(2) 0.03306(13) 0.1132(3)
C43_4 C 0.7577(2) 0.09409(14) 0.1074(3)
H30_4 H 0.7879 0.1111 0.1236
C46_4 C 0.6070(2) 0.15189(13) 0.0768(3)
H32_4 H 0.6141 0.1327 0.1079
C47_4 C 0.7710(2) 0.19614(13) 0.0520(3)
H33_4 H 0.7380 0.2067 0.0740
C48_4 C 0.6681(3) 0.07826(14) 0.0342(3)
H34_5 H 0.6368 0.0845 0.0000
C49_4 C 0.8250(2) 0.21597(13) 0.0447(2)
H35_4 H 0.8274 0.2400 0.0609
C50_4 C 0.6699(3) 0.04344(14) 0.0607(3)
H36_4 H 0.6402 0.0263 0.0437
H39_4 H 0.7924 0.0020 0.2091
N4_4 N 0.3525(5) 0.4411(3) 0.0740(7)
N5_4 N 0.70859(18) 0.14028(10) 0.0308(2)
O4_4 O 0.31352(16) 0.30828(10) 0.10925(19)
O8_4 O 0.3154(2) 0.38605(13) 0.0970(3)
C3_4 C 0.2520(2) 0.29190(13) 0.5078(3)
H5_4 H 0.2186 0.2789 0.5244
C4_4 C 0.2287(3) 0.31350(14) 0.6494(3)
C5_4 C 0.2619(2) 0.29244(13) 0.4385(3)
H6_4 H 0.2347 0.2787 0.4088
C6_4 C 0.3439(2) 0.32970(14) 0.5264(3)
H7_4 H 0.3737 0.3420 0.5554
C7_4 C 0.2942(3) 0.31173(14) 0.5519(3)
C8_4 C 0.3479(2) 0.32884(13) 0.4573(2)
H8_4 H 0.3812 0.3415 0.4398
C18_4 C 0.1686(2) 0.33033(12) 0.8196(2)
H13_4 H 0.1347 0.3424 0.8371
C19_4 C 0.1732(2) 0.33033(13) 0.7498(2)
H14_4 H 0.1423 0.3417 0.7207
C21_4 C 0.4540(2) 0.24191(13) 0.9796(2)
H15_4 H 0.4681 0.2365 0.9366
C23_4 C 0.9833(2) 0.28172(12) 0.9847(2)
H17_4 H 0.9791 0.3066 0.9744
C24_4 C 0.4025(2) 0.26510(13) 0.9835(2)
H18_4 H 0.3831 0.2753 0.9434
C25_4 C 0.9291(2) 0.26070(13) 0.9950(3)
H19_4 H 0.8899 0.2721 0.9944
C28_4 C 0.2240(2) 0.31334(12) 0.7229(2)
C29_4 C 0.2584(2) 0.29638(12) 0.8376(2)
H20_4 H 0.2880 0.2847 0.8680
H21_4 H 0.3665 0.4056 0.9962
H22_4 H 0.3428 0.4442 0.9695
H23_4 H 0.4133 0.4390 0.9986
C31_4 C 0.2661(2) 0.29494(12) 0.7684(2)
H24_4 H 0.2993 0.2817 0.7521
C32_4 C 0.8706(2) 0.16489(13) 0.9909(3)
H25_4 H 0.9046 0.1536 0.9719
C36_4 C 0.5827(2) 0.20787(12) 0.9839(2)
H27_4 H 0.5743 0.2262 0.9511
C40_4 C 0.6369(2) 0.18712(13) 0.9813(3)
H29_4 H 0.6646 0.1916 0.9474
C45_4 C 0.8148(2) 0.14473(13) 0.9959(3)
H31_4 H 0.8111 0.1210 0.9784
H34_6 H 0.6368 0.0845 1.0000
N1_4 N 0.2852(3) 0.31271(12) 0.6237(3)
H40_4 H 0.3183 0.3128 0.6522
N2_4 N 0.30715(15) 0.31104(10) 0.41151(18)
N3_4 N 0.21022(17) 0.31388(9) 0.86321(17)
O3_4 O 0.1697(3) 0.31588(15) 0.6065(3)
O5_4 O 0.29187(14) 0.30472(9) 0.99628(16)
C54_4 C 0.7031(2) 0.20969(16) 0.3232(3)
H41_4 H 0.7039 0.2318 0.3473
C58_4 C 0.4218(2) 0.28625(15) 0.3001(2)
C61_4 C 0.4787(2) 0.26371(13) 0.2946(2)
C63_4 C 0.4752(2) 0.22574(14) 0.2839(2)
H45_4 H 0.4358 0.2145 0.2783
C65_4 C 0.9752(2) 0.20034(11) 0.2551(2)
C66_4 C 0.6484(2) 0.19849(14) 0.2897(3)
C67_4 C 0.5298(2) 0.20442(13) 0.2815(2)
H47_4 H 0.5267 0.1793 0.2735
C68_4 C 0.8716(2) 0.15690(12) 0.2749(3)
C69_4 C 0.8173(2) 0.10063(12) 0.3166(3)
C70_4 C 0.5894(2) 0.22126(13) 0.2911(2)
C71_4 C 0.6479(2) 0.16685(14) 0.2546(3)
H48_4 H 0.6105 0.1589 0.2311
C74_4 C 0.8686(2) 0.04255(12) 0.3328(3)
H50_4 H 0.9013 0.0268 0.3236
C75_4 C 0.9252(2) 0.19936(14) 0.2078(3)
H51_4 H 0.9263 0.2137 0.1683
C76_4 C 0.9744(2) 0.17781(12) 0.3137(2)
C77_4 C 0.7565(2) 0.15751(13) 0.2844(3)
C78_4 C 0.7025(2) 0.14552(14) 0.2526(3)
H53_4 H 0.7011 0.1232 0.2293
C79_4 C 0.9220(2) 0.15612(12) 0.3235(3)
H54_4 H 0.9212 0.1413 0.3624
C80_4 C 0.8651(2) 0.07668(13) 0.3019(3)
H55_4 H 0.8946 0.0835 0.2713
C82_4 C 0.5385(3) 0.27928(14) 0.3015(3)
H57_4 H 0.5418 0.3046 0.3078
C83_4 C 0.8719(2) 0.17781(12) 0.2153(3)
H58_4 H 0.8381 0.1775 0.1819
C85_4 C 0.5924(2) 0.25932(13) 0.2997(3)
H59_4 H 0.6314 0.2710 0.3041
C88_4 C 0.8242(2) 0.03131(12) 0.3772(3)
C89_4 C 0.7768(3) 0.05543(14) 0.3894(3)
H61_4 H 0.7460 0.0482 0.4182
H62_4 H 0.7874 0.0073 0.4980
C91_4 C 0.7733(3) 0.09015(15) 0.3604(3)
H63_4 H 0.7411 0.1062 0.3705
C92_4 C 0.7577(3) 0.18958(17) 0.3228(4)
H64_4 H 0.7946 0.1973 0.3477
N6_4 N 0.81396(17) 0.13575(11) 0.2842(2)
O9_4 O 0.36816(15) 0.27280(9) 0.28071(14)
O11_4 O 0.42656(16) 0.31816(9) 0.32351(19)
C1_4 C 0.7602(6) 0.9508(2) 0.2232(5)
H1_4 H 0.7906 0.9449 0.2586
C35_4 C 0.7158(2) 0.99515(14) 0.1421(2)
C42_4 C 0.7175(2) 0.92593(13) 0.2026(3)
C44_4 C 0.7194(3) 0.88820(13) 0.2347(3)
C51_4 C 0.6779(3) 0.96913(17) 0.1207(4)
H37_4 H 0.6486 0.9740 0.0837
C52_4 C 0.6783(3) 0.93443(15) 0.1499(4)
H38_4 H 0.6501 0.9168 0.1315
C53_4 C 0.7612(5) 0.9853(2) 0.1940(5)
C72_4 C 0.8440(2) 0.92968(13) 0.4002(3)
H49_4 H 0.8578 0.9098 0.3753
C73_4 C 0.8180(2) 0.92264(12) 0.4600(2)
C81_4 C 0.8515(2) 0.96395(12) 0.3740(3)
H56_4 H 0.8734 0.9676 0.3349
C84_4 C 0.8070(2) 0.88489(13) 0.4839(3)
C86_4 C 0.7979(3) 0.95125(15) 0.4950(3)
H60_4 H 0.7810 0.9469 0.5370
C87_4 C 0.8248(3) 0.99388(14) 0.4085(3)
C90_4 C 0.8009(3) 0.98787(14) 0.4717(3)
C12_4 C 0.0465(2) 0.22815(12) 0.0006(2)
H10_4 H 0.0860 0.2169 0.0029
loop_
_geom_bond_atom_site_label_1
_geom_bond_atom_site_label_2
_geom_bond_site_symmetry_1
_geom_bond_site_symmetry_2
C10 C11 1_555 1_555
C11 C12 1_555 1_555
C12 H10 1_555 1_555
O1 C10 1_555 1_555
O2 C10 1_555 1_555
Zn4 O1 1_555 1_555
O2 Zn4 1_555 1_555
C55 C57 1_555 1_555
C56 C59 1_555 1_555
C57 H42 1_555 1_555
C59 H43 1_555 1_555
C60 C56 1_555 1_555
C62 C56 1_555 1_555
H44 C62 1_555 1_555
C64 C55 1_555 1_555
H46 C64 1_555 1_555
O10 C60 1_555 1_555
O12 C60 1_555 1_555
Zn6 O12 1_555 1_555
Zn9 O10 1_555 1_555
C57 C62 1_555 1_555
C59 C64 1_555 1_555
C1 H1 1_555 1_555
C2 H2 1_555 1_555
H3 C2 1_555 1_555
H4 C2 1_555 1_555
C3 H5 1_555 1_555
C4 C28 1_555 1_555
C6 H7 1_555 1_555
C7 C3 1_555 1_555
C9 H9 1_555 1_555
C13 C14 1_555 1_555
H11 C14 1_555 1_555
C15 C16 1_555 1_555
C16 O4 1_555 1_555
C17 H12 1_555 1_555
C18 H13 1_555 1_555
C19 C18 1_555 1_555
H14 C19 1_555 1_555
C20 C26 1_555 1_555
C21 H15 1_555 1_555
C22 C15 1_555 1_555
H16 C22 1_555 1_555
H17 C23 1_555 1_555
C24 C15 1_555 1_555
H18 C24 1_555 1_555
C25 C13 1_555 1_555
H19 C25 1_555 1_555
C26 C17 1_555 1_555
C27 C40 1_555 1_555
C28 C19 1_555 1_555
C29 H20 1_555 1_555
C30 H21 1_555 1_555
H22 C30 1_555 1_555
H23 C30 1_555 1_555
C31 C28 1_555 1_555
H24 C31 1_555 1_555
C32 H25 1_555 1_555
C33 H26 1_555 1_555
C34 C45 1_555 1_555
C35 C41 1_555 1_555
C36 C20 1_555 1_555
H27 C36 1_555 1_555
C37 C13 1_555 1_555
C38 C20 1_555 1_555
H28 C38 1_555 1_555
C39 C43 1_555 1_555
C40 C36 1_555 1_555
H29 C40 1_555 1_555
C41 C33 1_555 1_555
C42 C1 1_555 1_555
C43 C33 1_555 1_555
H30 C43 1_555 1_555
C44 C42 1_555 1_555
C45 C32 1_555 1_555
H31 C45 1_555 1_555
C46 C27 1_555 1_555
H32 C46 1_555 1_555
C47 C34 1_555 1_555
H33 C47 1_555 1_555
C48 C39 1_555 1_555
H34 C48 1_555 1_555
C49 C37 1_555 1_555
H35 C49 1_555 1_555
C50 C41 1_555 1_555
H36 C50 1_555 1_555
C51 C35 1_555 1_555
H37 C51 1_555 1_555
C52 C42 1_555 1_555
H38 C52 1_555 1_555
C53 C1 1_555 1_555
H39 C53 1_555 1_555
N1 C4 1_555 1_555
H40 N1 1_555 1_555
N3 C18 1_555 1_555
N4 C2 1_555 1_555
N5 C27 1_555 1_555
O3 C4 1_555 1_555
O4 Zn6 1_555 1_555
O5 C16 1_555 1_555
O6 C44 1_555 1_555
O7 C44 1_555 1_555
O8 C9 1_555 1_555
Zn4 N3 1_555 1_555
Zn6 O8 1_555 1_555
O17 Zn6 1_555 1_555
Zn5 O13 1_555 1_555
Zn8 O6 1_555 1_555
O21 Zn4 1_555 1_555
O22 Zn4 1_555 1_555
Zn10 O7 1_555 1_555
C6 C7 1_555 1_555
C7 N1 1_555 1_555
C9 N4 1_555 1_555
C17 C22 1_555 1_555
C21 C24 1_555 1_555
C21 C26 1_555 1_555
C23 C25 1_555 1_555
C29 C31 1_555 1_555
C29 N3 1_555 1_555
C30 N4 1_555 1_555
C32 C37 1_555 1_555
C34 N5 1_555 1_555
C35 C53 1_555 1_555
C38 C46 1_555 1_555
C39 N5 1_555 1_555
C47 C49 1_555 1_555
C48 C50 1_555 1_555
C51 C52 1_555 1_555
O5 Zn4 1_555 1_555
Zn6 O22 1_555 1_555
H6 C5 1_555 1_555
H8 C8 1_555 1_555
N2 C5 1_555 1_555
C54 H41 1_555 1_555
C58 C61 1_555 1_555
C61 C63 1_555 1_555
C63 H45 1_555 1_555
C66 C54 1_555 1_555
C67 C63 1_555 1_555
H47 C67 1_555 1_555
C68 C79 1_555 1_555
C69 C80 1_555 1_555
C70 C66 1_555 1_555
C71 C66 1_555 1_555
H48 C71 1_555 1_555
C72 H49 1_555 1_555
C73 C72 1_555 1_555
C74 H50 1_555 1_555
C75 C65 1_555 1_555
H51 C75 1_555 1_555
C76 C65 1_555 1_555
C77 C78 1_555 1_555
C78 C71 1_555 1_555
H53 C78 1_555 1_555
C79 C76 1_555 1_555
H54 C79 1_555 1_555
C80 C74 1_555 1_555
H55 C80 1_555 1_555
C81 C72 1_555 1_555
H56 C81 1_555 1_555
C82 C61 1_555 1_555
H57 C82 1_555 1_555
C83 C68 1_555 1_555
H58 C83 1_555 1_555
C84 C73 1_555 1_555
C85 C70 1_555 1_555
H59 C85 1_555 1_555
C86 C73 1_555 1_555
C87 C81 1_555 1_555
C88 C74 1_555 1_555
C89 C88 1_555 1_555
H61 C89 1_555 1_555
C90 C86 1_555 1_555
H62 C90 1_555 1_555
C91 C69 1_555 1_555
H63 C91 1_555 1_555
C92 C54 1_555 1_555
H64 C92 1_555 1_555
N6 C68 1_555 1_555
O9 C58 1_555 1_555
O11 C58 1_555 1_555
O14 C84 1_555 1_555
Zn9 N2 1_555 1_555
O18 Zn9 1_555 1_555
Zn8 O14 1_555 1_555
C8 N2 1_555 1_555
C67 C70 1_555 1_555
C69 N6 1_555 1_555
C75 C83 1_555 1_555
C77 C92 1_555 1_555
C77 N6 1_555 1_555
C82 C85 1_555 1_555
C87 C88 1_555 1_555
C87 C90 1_555 1_555
C89 C91 1_555 1_555
O9 Zn9 1_555 1_555
O11 Zn9 1_555 1_555
C72_2 H49_2 1_555 1_555
C73_2 C72_2 1_555 1_555
C81_2 C72_2 1_555 1_555
H56_2 C81_2 1_555 1_555
C84_2 C73_2 1_555 1_555
C86_2 C73_2 1_555 1_555
H60_2 C86_2 1_555 1_555
C87_2 C81_2 1_555 1_555
C90_2 C86_2 1_555 1_555
O21 C84_2 1_555 1_555
O22 C84_2 1_555 1_555
C87_2 C90_2 1_555 1_555
C1_2 H1_2 1_555 1_555
C42_2 C1_2 1_555 1_555
C44_2 C42_2 1_555 1_555
C51_2 C35_2 1_555 1_555
H37_2 C51_2 1_555 1_555
C52_2 C42_2 1_555 1_555
H38_2 C52_2 1_555 1_555
C53_2 C1_2 1_555 1_555
O17 C44_2 1_555 1_555
O18 C44_2 1_555 1_555
C35_2 C53_2 1_555 1_555
C51_2 C52_2 1_555 1_555
C3_2 H5_2 1_555 1_555
C4_2 C28_2 1_555 1_555
C5_2 C3_2 1_555 1_555
H6_2 C5_2 1_555 1_555
C6_2 H7_2 1_555 1_555
C7_2 C3_2 1_555 1_555
C8_2 C6_2 1_555 1_555
H8_2 C8_2 1_555 1_555
C18_2 H13_2 1_555 1_555
C19_2 C18_2 1_555 1_555
H14_2 C19_2 1_555 1_555
C21_2 H15_2 1_555 1_555
H17_2 C23_2 1_555 1_555
H18_2 C24_2 1_555 1_555
H19_2 C25_2 1_555 1_555
C28_2 C19_2 1_555 1_555
C29_2 H20_2 1_555 1_555
C31_2 C28_2 1_555 1_555
H24_2 C31_2 1_555 1_555
C32_2 H25_2 1_555 1_555
H27_2 C36_2 1_555 1_555
C40_2 C36_2 1_555 1_555
H29_2 C40_2 1_555 1_555
C45_2 C32_2 1_555 1_555
H31_2 C45_2 1_555 1_555
N1_2 C4_2 1_555 1_555
H40_2 N1_2 1_555 1_555
N2_2 C5_2 1_555 1_555
N3_2 C18_2 1_555 1_555
O3_2 C4_2 1_555 1_555
Zn5 N3_2 1_555 1_555
C54_2 H41_2 1_555 1_555
C58_2 C61_2 1_555 1_555
C61_2 C63_2 1_555 1_555
C63_2 H45_2 1_555 1_555
C66_2 C54_2 1_555 1_555
C67_2 C63_2 1_555 1_555
H47_2 C67_2 1_555 1_555
C68_2 C79_2 1_555 1_555
C69_2 C80_2 1_555 1_555
C70_2 C66_2 1_555 1_555
C71_2 C66_2 1_555 1_555
H48_2 C71_2 1_555 1_555
C74_2 H50_2 1_555 1_555
C75_2 C65_2 1_555 1_555
H51_2 C75_2 1_555 1_555
C76_2 C65_2 1_555 1_555
C77_2 C78_2 1_555 1_555
C78_2 C71_2 1_555 1_555
H53_2 C78_2 1_555 1_555
C79_2 C76_2 1_555 1_555
H54_2 C79_2 1_555 1_555
C80_2 C74_2 1_555 1_555
H55_2 C80_2 1_555 1_555
C82_2 C61_2 1_555 1_555
H57_2 C82_2 1_555 1_555
C83_2 C68_2 1_555 1_555
H58_2 C83_2 1_555 1_555
C85_2 C70_2 1_555 1_555
H59_2 C85_2 1_555 1_555
C88_2 C74_2 1_555 1_555
C89_2 C88_2 1_555 1_555
H61_2 C89_2 1_555 1_555
C91_2 C69_2 1_555 1_555
H63_2 C91_2 1_555 1_555
C92_2 C54_2 1_555 1_555
H64_2 C92_2 1_555 1_555
N6_2 C68_2 1_555 1_555
O9_2 C58_2 1_555 1_555
O11_2 C58_2 1_555 1_555
Zn10 N2_2 1_555 1_555
O15 Zn5 1_555 1_555
O16 Zn5 1_555 1_555
O19 Zn10 1_555 1_555
C6_2 C7_2 1_555 1_555
C7_2 N1_2 1_555 1_555
C8_2 N2_2 1_555 1_555
C21_2 C24_2 1_555 1_555
C23_2 C25_2 1_555 1_555
C29_2 C31_2 1_555 1_555
C29_2 N3_2 1_555 1_555
O5_2 Zn5 1_555 1_555
C67_2 C70_2 1_555 1_555
C69_2 N6_2 1_555 1_555
C75_2 C83_2 1_555 1_555
C77_2 C92_2 1_555 1_555
C77_2 N6_2 1_555 1_555
C82_2 C85_2 1_555 1_555
C89_2 C91_2 1_555 1_555
O9_2 Zn10 1_555 1_555
O11_2 Zn10 1_555 1_555
C2_2 H2_2 1_555 1_555
H3_2 C2_2 1_555 1_555
H4_2 C2_2 1_555 1_555
C9_2 H9_2 1_555 1_555
C13_2 C14_2 1_555 1_555
H11_2 C14_2 1_555 1_555
C15_2 C16_2 1_555 1_555
C16_2 O4_2 1_555 1_555
C17_2 H12_2 1_555 1_555
C20_2 C26_2 1_555 1_555
C22_2 C15_2 1_555 1_555
H16_2 C22_2 1_555 1_555
C26_2 C17_2 1_555 1_555
C33_2 H26_2 1_555 1_555
C37_2 C13_2 1_555 1_555
C38_2 C20_2 1_555 1_555
H28_2 C38_2 1_555 1_555
C39_2 C43_2 1_555 1_555
C41_2 C33_2 1_555 1_555
C43_2 C33_2 1_555 1_555
H30_2 C43_2 1_555 1_555
C46_2 C27_2 1_555 1_555
H32_2 C46_2 1_555 1_555
C47_2 C34_2 1_555 1_555
H33_2 C47_2 1_555 1_555
C48_2 C39_2 1_555 1_555
H34_3 C48_2 1_555 1_555
C49_2 C37_2 1_555 1_555
H35_2 C49_2 1_555 1_555
C50_2 C41_2 1_555 1_555
H36_2 C50_2 1_555 1_555
N4_2 C2_2 1_555 1_555
N5_2 C27_2 1_555 1_555
O4_2 Zn8 1_555 1_555
O8_2 C9_2 1_555 1_555
Zn8 O8_2 1_555 1_555
O20 Zn8 1_555 1_555
C9_2 N4_2 1_555 1_555
C17_2 C22_2 1_555 1_555
C30_2 N4_2 1_555 1_555
C34_2 N5_2 1_555 1_555
C38_2 C46_2 1_555 1_555
C39_2 N5_2 1_555 1_555
C47_2 C49_2 1_555 1_555
C48_2 C50_2 1_555 1_555
C10_2 C11_2 1_555 1_555
O15 C10_2 1_555 1_555
O16 C10_2 1_555 1_555
C55_2 C57_2 1_555 1_555
C56_2 C59_2 1_555 1_555
C57_2 H42_2 1_555 1_555
C59_2 H43_2 1_555 1_555
C60_2 C56_2 1_555 1_555
C62_2 C56_2 1_555 1_555
H44_2 C62_2 1_555 1_555
C64_2 C55_2 1_555 1_555
H46_2 C64_2 1_555 1_555
O19 C60_2 1_555 1_555
O20 C60_2 1_555 1_555
C57_2 C62_2 1_555 1_555
C59_2 C64_2 1_555 1_555
C12_2 H10_2 1_555 1_555
H6_3 C5_3 1_555 1_555
H8_3 C8_3 1_555 1_555
N2_3 C5_3 1_555 1_555
C54_3 H41_3 1_555 1_555
C58_3 C61_3 1_555 1_555
C61_3 C63_3 1_555 1_555
C63_3 H45_3 1_555 1_555
C66_3 C54_3 1_555 1_555
C67_3 C63_3 1_555 1_555
H47_3 C67_3 1_555 1_555
C68_3 C79_3 1_555 1_555
C69_3 C80_3 1_555 1_555
C70_3 C66_3 1_555 1_555
C71_3 C66_3 1_555 1_555
H48_3 C71_3 1_555 1_555
C72_3 H49_3 1_555 1_555
C73_3 C72_3 1_555 1_555
C74_3 H50_3 1_555 1_555
C75_3 C65_3 1_555 1_555
H51_3 C75_3 1_555 1_555
C76_3 C65_3 1_555 1_555
C77_3 C78_3 1_555 1_555
C78_3 C71_3 1_555 1_555
H53_3 C78_3 1_555 1_555
C79_3 C76_3 1_555 1_555
H54_3 C79_3 1_555 1_555
C80_3 C74_3 1_555 1_555
H55_3 C80_3 1_555 1_555
C81_3 C72_3 1_555 1_555
H56_3 C81_3 1_555 1_555
C82_3 C61_3 1_555 1_555
H57_3 C82_3 1_555 1_555
C83_3 C68_3 1_555 1_555
H58_3 C83_3 1_555 1_555
C84_3 C73_3 1_555 1_555
C85_3 C70_3 1_555 1_555
H59_3 C85_3 1_555 1_555
C86_3 C73_3 1_555 1_555
C87_3 C81_3 1_555 1_555
C88_3 C74_3 1_555 1_555
C89_3 C88_3 1_555 1_555
H61_3 C89_3 1_555 1_555
C90_3 C86_3 1_555 1_555
H62_3 C90_3 1_555 1_555
C91_3 C69_3 1_555 1_555
H63_3 C91_3 1_555 1_555
C92_3 C54_3 1_555 1_555
H64_3 C92_3 1_555 1_555
N6_3 C68_3 1_555 1_555
O9_3 C58_3 1_555 1_555
O11_3 C58_3 1_555 1_555
O14_2 C84_3 1_555 1_555
Zn3 N2_3 1_555 1_555
O18_2 Zn3 1_555 1_555
Zn7 O14_2 1_555 1_555
O19_2 Zn3 1_555 1_555
C8_3 N2_3 1_555 1_555
C67_3 C70_3 1_555 1_555
C69_3 N6_3 1_555 1_555
C75_3 C83_3 1_555 1_555
C77_3 C92_3 1_555 1_555
C77_3 N6_3 1_555 1_555
C82_3 C85_3 1_555 1_555
C87_3 C88_3 1_555 1_555
C87_3 C90_3 1_555 1_555
C89_3 C91_3 1_555 1_555
O9_3 Zn3 1_555 1_555
O11_3 Zn3 1_555 1_555
C1_3 H1_3 1_555 1_555
C2_3 H2_3 1_555 1_555
H3_3 C2_3 1_555 1_555
H4_3 C2_3 1_555 1_555
C3_3 H5_3 1_555 1_555
C4_3 C28_3 1_555 1_555
C6_3 H7_3 1_555 1_555
C7_3 C3_3 1_555 1_555
C9_3 H9_3 1_555 1_555
C13_3 C14_3 1_555 1_555
H11_3 C14_3 1_555 1_555
C15_3 C16_3 1_555 1_555
C16_3 O4_3 1_555 1_555
C17_3 H12_3 1_555 1_555
C18_3 H13_3 1_555 1_555
C19_3 C18_3 1_555 1_555
H14_3 C19_3 1_555 1_555
C20_3 C26_3 1_555 1_555
C21_3 H15_3 1_555 1_555
C22_3 C15_3 1_555 1_555
H16_3 C22_3 1_555 1_555
H17_3 C23_3 1_555 1_555
C24_3 C15_3 1_555 1_555
H18_3 C24_3 1_555 1_555
C25_3 C13_3 1_555 1_555
H19_3 C25_3 1_555 1_555
C26_3 C17_3 1_555 1_555
C27_3 C40_3 1_555 1_555
C28_3 C19_3 1_555 1_555
C29_3 H20_3 1_555 1_555
C30_3 H21_3 1_555 1_555
H22_3 C30_3 1_555 1_555
H23_3 C30_3 1_555 1_555
C31_3 C28_3 1_555 1_555
H24_3 C31_3 1_555 1_555
C32_3 H25_3 1_555 1_555
C33_3 H26_3 1_555 1_555
C34_3 C45_3 1_555 1_555
C35_3 C41_3 1_555 1_555
C36_3 C20_3 1_555 1_555
H27_3 C36_3 1_555 1_555
C37_3 C13_3 1_555 1_555
C38_3 C20_3 1_555 1_555
H28_3 C38_3 1_555 1_555
C39_3 C43_3 1_555 1_555
C40_3 C36_3 1_555 1_555
H29_3 C40_3 1_555 1_555
C41_3 C33_3 1_555 1_555
C42_3 C1_3 1_555 1_555
C43_3 C33_3 1_555 1_555
H30_3 C43_3 1_555 1_555
C44_3 C42_3 1_555 1_555
C45_3 C32_3 1_555 1_555
H31_3 C45_3 1_555 1_555
C46_3 C27_3 1_555 1_555
H32_3 C46_3 1_555 1_555
C47_3 C34_3 1_555 1_555
H33_3 C47_3 1_555 1_555
C48_3 C39_3 1_555 1_555
H34_4 C48_3 1_555 1_555
C49_3 C37_3 1_555 1_555
H35_3 C49_3 1_555 1_555
C50_3 C41_3 1_555 1_555
H36_3 C50_3 1_555 1_555
C51_3 C35_3 1_555 1_555
H37_3 C51_3 1_555 1_555
C52_3 C42_3 1_555 1_555
H38_3 C52_3 1_555 1_555
C53_3 C1_3 1_555 1_555
H39_3 C53_3 1_555 1_555
N1_3 C4_3 1_555 1_555
H40_3 N1_3 1_555 1_555
N3_3 C18_3 1_555 1_555
N4_3 C2_3 1_555 1_555
N5_3 C27_3 1_555 1_555
O3_3 C4_3 1_555 1_555
O4_3 Zn2 1_555 1_555
O5_3 C16_3 1_555 1_555
O6_2 C44_3 1_555 1_555
O7_2 C44_3 1_555 1_555
O8_3 C9_3 1_555 1_555
Zn1 N3_3 1_555 1_555
Zn2 O8_3 1_555 1_555
O15_2 Zn1 1_555 1_555
O16_2 Zn1 1_555 1_555
O17_2 Zn2 1_555 1_555
Zn5_2 O13_2 1_555 1_555
Zn7 O6_2 1_555 1_555
O20_2 Zn2 1_555 1_555
O21_2 Zn1 1_555 1_555
O22_2 Zn1 1_555 1_555
Zn10_2 O7_2 1_555 1_555
C6_3 C7_3 1_555 1_555
C7_3 N1_3 1_555 1_555
C9_3 N4_3 1_555 1_555
C17_3 C22_3 1_555 1_555
C21_3 C24_3 1_555 1_555
C21_3 C26_3 1_555 1_555
C23_3 C25_3 1_555 1_555
C29_3 C31_3 1_555 1_555
C29_3 N3_3 1_555 1_555
C30_3 N4_3 1_555 1_555
C32_3 C37_3 1_555 1_555
C34_3 N5_3 1_555 1_555
C35_3 C53_3 1_555 1_555
C38_3 C46_3 1_555 1_555
C39_3 N5_3 1_555 1_555
C47_3 C49_3 1_555 1_555
C48_3 C50_3 1_555 1_555
C51_3 C52_3 1_555 1_555
O5_3 Zn1 1_555 1_555
Zn2 O22_2 1_555 1_555
C55_3 C57_3 1_555 1_555
C56_3 C59_3 1_555 1_555
C57_3 H42_3 1_555 1_555
C59_3 H43_3 1_555 1_555
C60_3 C56_3 1_555 1_555
C62_3 C56_3 1_555 1_555
H44_3 C62_3 1_555 1_555
C64_3 C55_3 1_555 1_555
H46_3 C64_3 1_555 1_555
O19_2 C60_3 1_555 1_555
O20_2 C60_3 1_555 1_555
C57_3 C62_3 1_555 1_555
C59_3 C64_3 1_555 1_555
C10_3 C11_3 1_555 1_555
C11_3 C12_3 1_555 1_555
C12_3 H10_3 1_555 1_555
O15_2 C10_3 1_555 1_555
O16_2 C10_3 1_555 1_555
C10_4 C11_4 1_555 1_555
O1_2 C10_4 1_555 1_555
O2_2 C10_4 1_555 1_555
C55_4 C57_4 1_555 1_555
C56_4 C59_4 1_555 1_555
C57_4 H42_4 1_555 1_555
C59_4 H43_4 1_555 1_555
C60_4 C56_4 1_555 1_555
C62_4 C56_4 1_555 1_555
H44_4 C62_4 1_555 1_555
C64_4 C55_4 1_555 1_555
H46_4 C64_4 1_555 1_555
O10_2 C60_4 1_555 1_555
O12_2 C60_4 1_555 1_555
Zn5_2 O1_2 1_555 1_555
Zn7 O12_2 1_555 1_555
Zn10_2 O10_2 1_555 1_555
O2_2 Zn5_2 1_555 1_555
C57_4 C62_4 1_555 1_555
C59_4 C64_4 1_555 1_555
C2_4 H2_4 1_555 1_555
H3_4 C2_4 1_555 1_555
H4_4 C2_4 1_555 1_555
C9_4 H9_4 1_555 1_555
C13_4 C14_4 1_555 1_555
H11_4 C14_4 1_555 1_555
C15_4 C16_4 1_555 1_555
C16_4 O4_4 1_555 1_555
C17_4 H12_4 1_555 1_555
C20_4 C26_4 1_555 1_555
C22_4 C15_4 1_555 1_555
H16_4 C22_4 1_555 1_555
C26_4 C17_4 1_555 1_555
C33_4 H26_4 1_555 1_555
C37_4 C13_4 1_555 1_555
C38_4 C20_4 1_555 1_555
H28_4 C38_4 1_555 1_555
C39_4 C43_4 1_555 1_555
C41_4 C33_4 1_555 1_555
C43_4 C33_4 1_555 1_555
H30_4 C43_4 1_555 1_555
C46_4 C27_4 1_555 1_555
H32_4 C46_4 1_555 1_555
C47_4 C34_4 1_555 1_555
H33_4 C47_4 1_555 1_555
C48_4 C39_4 1_555 1_555
H34_5 C48_4 1_555 1_555
C49_4 C37_4 1_555 1_555
H35_4 C49_4 1_555 1_555
C50_4 C41_4 1_555 1_555
H36_4 C50_4 1_555 1_555
N4_4 C2_4 1_555 1_555
N5_4 C27_4 1_555 1_555
O4_4 Zn7 1_555 1_555
O8_4 C9_4 1_555 1_555
Zn7 O8_4 1_555 1_555
C9_4 N4_4 1_555 1_555
C17_4 C22_4 1_555 1_555
C30_4 N4_4 1_555 1_555
C34_4 N5_4 1_555 1_555
C38_4 C46_4 1_555 1_555
C39_4 N5_4 1_555 1_555
C47_4 C49_4 1_555 1_555
C48_4 C50_4 1_555 1_555
C3_4 H5_4 1_555 1_555
C4_4 C28_4 1_555 1_555
C5_4 C3_4 1_555 1_555
H6_4 C5_4 1_555 1_555
C6_4 H7_4 1_555 1_555
C7_4 C3_4 1_555 1_555
C8_4 C6_4 1_555 1_555
H8_4 C8_4 1_555 1_555
C18_4 H13_4 1_555 1_555
C19_4 C18_4 1_555 1_555
H14_4 C19_4 1_555 1_555
C21_4 H15_4 1_555 1_555
H17_4 C23_4 1_555 1_555
H18_4 C24_4 1_555 1_555
H19_4 C25_4 1_555 1_555
C28_4 C19_4 1_555 1_555
C29_4 H20_4 1_555 1_555
C31_4 C28_4 1_555 1_555
H24_4 C31_4 1_555 1_555
C32_4 H25_4 1_555 1_555
H27_4 C36_4 1_555 1_555
C40_4 C36_4 1_555 1_555
H29_4 C40_4 1_555 1_555
C45_4 C32_4 1_555 1_555
H31_4 C45_4 1_555 1_555
N1_4 C4_4 1_555 1_555
H40_4 N1_4 1_555 1_555
N2_4 C5_4 1_555 1_555
N3_4 C18_4 1_555 1_555
O3_4 C4_4 1_555 1_555
Zn5_2 N3_4 1_555 1_555
C54_4 H41_4 1_555 1_555
C58_4 C61_4 1_555 1_555
C61_4 C63_4 1_555 1_555
C63_4 H45_4 1_555 1_555
C66_4 C54_4 1_555 1_555
C67_4 C63_4 1_555 1_555
H47_4 C67_4 1_555 1_555
C68_4 C79_4 1_555 1_555
C69_4 C80_4 1_555 1_555
C70_4 C66_4 1_555 1_555
C71_4 C66_4 1_555 1_555
H48_4 C71_4 1_555 1_555
C74_4 H50_4 1_555 1_555
C75_4 C65_4 1_555 1_555
H51_4 C75_4 1_555 1_555
C76_4 C65_4 1_555 1_555
C77_4 C78_4 1_555 1_555
C78_4 C71_4 1_555 1_555
H53_4 C78_4 1_555 1_555
C79_4 C76_4 1_555 1_555
H54_4 C79_4 1_555 1_555
C80_4 C74_4 1_555 1_555
H55_4 C80_4 1_555 1_555
C82_4 C61_4 1_555 1_555
H57_4 C82_4 1_555 1_555
C83_4 C68_4 1_555 1_555
H58_4 C83_4 1_555 1_555
C85_4 C70_4 1_555 1_555
H59_4 C85_4 1_555 1_555
C88_4 C74_4 1_555 1_555
C89_4 C88_4 1_555 1_555
H61_4 C89_4 1_555 1_555
C91_4 C69_4 1_555 1_555
H63_4 C91_4 1_555 1_555
C92_4 C54_4 1_555 1_555
H64_4 C92_4 1_555 1_555
N6_4 C68_4 1_555 1_555
O9_4 C58_4 1_555 1_555
O11_4 C58_4 1_555 1_555
Zn10_2 N2_4 1_555 1_555
C6_4 C7_4 1_555 1_555
C7_4 N1_4 1_555 1_555
C8_4 N2_4 1_555 1_555
C21_4 C24_4 1_555 1_555
C23_4 C25_4 1_555 1_555
C29_4 C31_4 1_555 1_555
C29_4 N3_4 1_555 1_555
O5_4 Zn5_2 1_555 1_555
C67_4 C70_4 1_555 1_555
C69_4 N6_4 1_555 1_555
C75_4 C83_4 1_555 1_555
C77_4 C92_4 1_555 1_555
C77_4 N6_4 1_555 1_555
C82_4 C85_4 1_555 1_555
C89_4 C91_4 1_555 1_555
O9_4 Zn10_2 1_555 1_555
O11_4 Zn10_2 1_555 1_555
C1_4 H1_4 1_555 1_555
C42_4 C1_4 1_555 1_555
C44_4 C42_4 1_555 1_555
C51_4 C35_4 1_555 1_555
H37_4 C51_4 1_555 1_555
C52_4 C42_4 1_555 1_555
H38_4 C52_4 1_555 1_555
C53_4 C1_4 1_555 1_555
O17_2 C44_4 1_555 1_555
O18_2 C44_4 1_555 1_555
C35_4 C53_4 1_555 1_555
C51_4 C52_4 1_555 1_555
C72_4 H49_4 1_555 1_555
C73_4 C72_4 1_555 1_555
C81_4 C72_4 1_555 1_555
H56_4 C81_4 1_555 1_555
C84_4 C73_4 1_555 1_555
C86_4 C73_4 1_555 1_555
H60_4 C86_4 1_555 1_555
C87_4 C81_4 1_555 1_555
C90_4 C86_4 1_555 1_555
O21_2 C84_4 1_555 1_555
O22_2 C84_4 1_555 1_555
C87_4 C90_4 1_555 1_555
C12_4 H10_4 1_555 1_555

#END
