
###############################################################################
#
# This file contains modified crystal structure data generated from the
# MOF subset of the Cambridge Structural Database (CSD) v543 
# hosted by the Cambridge Crystallographic Data Centre (CCDC).
#
# This work is licensed under the Creative Commons
# Attribution-NonCommercial-ShareAlike 4.0 International License.
# To view a copy of this license, visit
# http://creativecommons.org/licenses/by-nc-sa/4.0/
# or send a letter to
# Creative Commons, PO Box 1866, Mountain View, CA 94042, USA.
#
# CIF created using the CSD Python API on 29 September 2022
# The structure has been converted into the P1 space group
# The structure has a 3D framework
# The original CSD entry HUQHUY is in the monoclinic crystal system
# The framework has been calculated to contain at least 10.0% void space
# The void calculation uses a probe of radius 1.32A, grid spacing 0.4
# H atom positions have been added when not included in the experimental data
#
###############################################################################

data_HUQHUY
_chemical_formula_moiety         '(C752 H496 N32 O104 Zn24)n'
_symmetry_cell_setting           triclinic
_symmetry_space_group_name_H-M   'P 1'
_symmetry_Int_Tables_number      1
_space_group_name_Hall           'P 1'
loop_
_symmetry_equiv_pos_site_id
_symmetry_equiv_pos_as_xyz
1 x,y,z
_cell_length_a                   36.80(2)
_cell_length_b                   21.661(14)
_cell_length_c                   44.65(3)
_cell_angle_alpha                90
_cell_angle_beta                 100.400(5)
_cell_angle_gamma                90
_cell_volume                     35006.9
loop_
_atom_site_label
_atom_site_type_symbol
_atom_site_fract_x
_atom_site_fract_y
_atom_site_fract_z
C7 C 0.32589(18) 0.5173(4) 0.0448(2)
C8 C 0.07086(19) 0.3581(3) 0.06682(19)
H5 H 0.0819 0.3232 0.0767
C9 C 0.04475(17) 0.6899(3) 0.0556(2)
C10 C 0.0766(2) 0.4669(3) 0.0535(2)
C15 C 0.06490(18) 0.6789(3) 0.03429(19)
H7 H 0.0674 0.7097 0.0203
C17 C 0.01039(19) 0.1867(3) 0.05145(16)
H8 H 0.0225 0.1489 0.0538
C18 C 0.07943(17) 0.5792(3) 0.0536(2)
C20 C 0.03003(17) 0.2412(3) 0.05337(17)
H10 H 0.0556 0.2382 0.0562
C21 C 0.03345(18) 0.3561(3) 0.0497(2)
C24 C 0.01502(17) 0.2994(3) 0.05145(19)
C25 C 0.0413(2) 0.4627(3) 0.0379(2)
H12 H 0.0309 0.4975 0.0275
C26 C 0.2750(2) 0.5518(4) 0.0704(2)
H13 H 0.2667 0.5719 0.0863
C28 C 0.00973(17) 0.7803(4) 0.02871(16)
H15 H 0.0135 0.7614 0.0108
C29 C 0.04061(17) 0.6423(3) 0.07636(19)
H16 H 0.0255 0.6489 0.0906
C30 C 0.01757(18) 0.7738(4) 0.08062(17)
H17 H 0.0255 0.7514 0.0984
C31 C 0.0229(2) 0.7539(3) 0.05606(17)
C34 C 0.31368(18) 0.5488(3) 0.0704(2)
H20 H 0.3307 0.5663 0.0861
C35 C 0.0895(2) 0.4139(4) 0.06793(19)
H21 H 0.1131 0.4152 0.0796
C36 C 0.15025(19) 0.4739(4) 0.0381(2)
H22 H 0.1357 0.4406 0.0301
C37 C 0.0207(2) 0.4114(4) 0.0366(2)
C39 C 0.15807(17) 0.5689(3) 0.0646(2)
H25 H 0.1483 0.6023 0.0735
C42 C 0.3673(2) 0.5177(4) 0.0476(3)
C43 C 0.21049(19) 0.5238(4) 0.04835(19)
C44 C 0.08212(17) 0.6233(3) 0.03242(19)
H27 H 0.0954 0.6158 0.0169
C45 C 0.1346(2) 0.5217(4) 0.0531(2)
C46 C 0.18951(18) 0.4761(4) 0.0349(2)
H28 H 0.1996 0.4459 0.0240
C47 C 0.05787(17) 0.5877(3) 0.0761(2)
H29 H 0.0556 0.5570 0.0901
C48 C 0.19393(18) 0.5696(3) 0.06360(19)
H30 H 0.2085 0.6014 0.0733
C49 C 0.3016(2) 0.4932(3) 0.0234(2)
H31 H 0.3094 0.4734 0.0072
C51 C 0.24912(18) 0.5253(4) 0.0471(2)
C52 C 0.2640(2) 0.4964(4) 0.0241(2)
H33 H 0.2478 0.4781 0.0082
N2 N 0.09620(15) 0.5235(3) 0.05265(17)
O4 O 0.38974(13) 0.5207(3) 0.07008(15)
O6 O 0.37456(13) 0.5117(2) 0.01961(14)
Zn5 Zn 0.42903(2) 0.52452(4) 0.02626(2)
Zn11 Zn 0.41041(3) 0.45156(5) 0.10123(3)
C56 C 0.3126(2) 0.5694(4) 0.6476(2)
C57 C 0.3030(2) 0.5826(4) 0.6742(2)
H37 H 0.3209 0.5895 0.6914
H40 H 0.0064 0.7961 0.6109
C62 C 0.2512(2) 0.5620(4) 0.6227(3)
H41 H 0.2346 0.5592 0.6043
C64 C 0.2887(2) 0.5605(4) 0.6237(2)
H43 H 0.2971 0.5523 0.6057
C65 C 0.2651(2) 0.5859(5) 0.6759(2)
H44 H 0.2577 0.6001 0.6935
C66 C 0.00576(17) 0.7788(4) 0.65528(19)
C67 C 0.2387(2) 0.5680(5) 0.6509(2)
C68 C 0.02529(18) 0.7213(3) 0.65652(18)
C69 C 0.1395(2) 0.5176(4) 0.6387(2)
H45 H 0.1250 0.4876 0.6274
C70 C 0.0323(2) 0.3815(4) 0.6598(2)
C71 C 0.0103(2) 0.3203(4) 0.6588(2)
C72 C 0.0737(2) 0.6586(4) 0.64428(19)
H46 H 0.0929 0.6535 0.6335
C75 C 0.1989(2) 0.5635(4) 0.6531(2)
C76 C 0.0076(2) 0.2143(4) 0.67437(19)
H47 H 0.0167 0.1829 0.6878
C78 C 0.0280(2) 0.2712(4) 0.6748(2)
H49 H 0.0521 0.2746 0.6854
C79 C 0.0177(2) 0.6711(4) 0.6757(2)
C80 C 0.0673(2) 0.3896(4) 0.6764(2)
H51 H 0.0786 0.3577 0.6885
C82 C 0.0679(2) 0.4970(4) 0.6613(2)
C83 C 0.0658(2) 0.6107(4) 0.6614(2)
C84 C 0.1243(2) 0.5567(5) 0.6590(3)
C85 C 0.0340(2) 0.4921(3) 0.6447(2)
H53 H 0.0228 0.5249 0.6332
C86 C 0.0851(2) 0.4438(4) 0.6751(3)
H54 H 0.1100 0.4459 0.6837
C87 C 0.1861(2) 0.6066(5) 0.6739(3)
H55 H 0.2013 0.6368 0.6843
C88 C 0.0562(2) 0.7124(4) 0.64171(19)
H56 H 0.0640 0.7441 0.6303
C89 C 0.0372(2) 0.6173(4) 0.6770(2)
H57 H 0.0310 0.5846 0.6886
C90 C 0.0153(2) 0.4322(4) 0.6454(2)
C91 C 0.1474(2) 0.5992(5) 0.6772(2)
H59 H 0.1380 0.6228 0.6914
C93 C 0.1743(2) 0.5247(4) 0.6362(2)
H60 H 0.1829 0.5011 0.6215
C94 C 0.3541(2) 0.5633(4) 0.6451(2)
N4 N 0.08646(17) 0.5544(3) 0.66132(18)
O10 O 0.36388(13) 0.5476(2) 0.62321(13)
O11 O 0.37476(13) 0.5742(3) 0.67106(12)
Zn7 Zn 0.42656(2) 0.55406(4) 0.68204(2)
Zn9 Zn 0.41041(3) 0.54844(5) 0.60123(3)
Zn4 Zn 0.92903(2) 0.02452(4) 0.02626(2)
Zn6 Zn 0.92656(2) 0.05406(4) 0.68204(2)
Zn8 Zn 0.91041(3) 0.04844(5) 0.60123(3)
C6 C 0.9903(2) 0.8367(4) 0.0276(2)
H4 H 0.9816 0.8566 0.0093
C12 C 0.97268(16) 0.1894(3) 0.04596(16)
C13 C 0.98525(18) 0.8593(3) 0.0536(2)
C16 C 0.9519(2) 0.1326(3) 0.04080(18)
C19 C 0.99844(19) 0.8335(4) 0.0820(2)
H9 H 0.9955 0.8521 0.1001
C32 C 0.97493(18) 0.3020(3) 0.04577(18)
H18 H 0.9628 0.3399 0.0439
H23 H 0.9964 0.4132 0.0262
C38 C 0.95520(18) 0.2479(3) 0.04327(17)
H24 H 0.9295 0.2497 0.0397
C41 C 0.96044(16) 0.9204(4) 0.0532(2)
O1 O 0.96718(12) 0.0810(2) 0.04624(11)
O2 O 0.94852(14) 0.9414(2) 0.02825(11)
O3 O 0.91671(13) 0.13495(19) 0.02918(11)
O5 O 0.95625(14) 0.9365(2) 0.07943(12)
O17 O 0.87456(13) 0.0117(2) 0.01961(14)
Zn10 Zn 0.91041(3) 0.95156(5) 0.10123(3)
C1 C 0.95137(18) 0.0146(4) 0.7457(2)
C2 C 0.93223(18) 0.0557(4) 0.79015(16)
C3 C 0.90697(17) 0.0876(4) 0.74032(19)
H2 H 0.8891 0.1119 0.7284
C4 C 0.9340(2) 0.0507(3) 0.82421(16)
C5 C 0.9660(2) 0.0327(4) 0.87442(19)
H3 H 0.9877 0.0226 0.8877
C11 C 0.93476(17) 0.0440(3) 0.88470(15)
C14 C 0.95801(15) 0.0036(3) 0.93785(15)
C23 C 0.93585(18) 0.0434(3) 0.92039(16)
C27 C 0.89980(19) 0.0604(4) 0.83662(16)
H14 H 0.8771 0.0681 0.8243
C33 C 0.95375(15) 0.0089(3) 0.77696(17)
C40 C 0.90391(19) 0.0571(5) 0.86624(17)
H26 H 0.8832 0.0648 0.8749
C50 C 0.96489(17) 0.0365(3) 0.84320(18)
H32 H 0.9863 0.0289 0.8355
C53 C 0.91004(18) 0.0907(5) 0.77050(18)
H34 H 0.8955 0.1195 0.7783
C54 C 0.91354(19) 0.0814(3) 0.93294(18)
H35 H 0.8987 0.1107 0.9214
C55 C 0.9140(2) 0.0746(4) 0.9629(2)
H36 H 0.8982 0.0997 0.9716
N1 N 0.92878(15) 0.0504(3) 0.72584(13)
N3 N 0.93448(13) 0.0363(2) 0.98090(13)
C58 C 0.9732(2) 0.8575(4) 0.67773(19)
H38 H 0.9650 0.8733 0.6947
C59 C 0.96647(16) 0.8909(3) 0.65070(17)
C60 C 0.9913(2) 0.8025(4) 0.6803(2)
H39 H 0.9941 0.7804 0.6984
C61 C 0.9987(2) 0.8115(4) 0.62820(18)
C63 C 0.9792(2) 0.8699(4) 0.62692(17)
H42 H 0.9757 0.8928 0.6090
C73 C 0.9763(2) 0.2062(4) 0.6554(2)
C74 C 0.9523(3) 0.1447(4) 0.6558(3)
C77 C 0.97677(19) 0.3103(4) 0.6382(2)
H48 H 0.9661 0.3426 0.6259
H50 H 0.9993 0.6755 0.6874
C81 C 0.9593(3) 0.2518(4) 0.6361(2)
H52 H 0.9375 0.2444 0.6224
H58 H 0.9908 0.4288 0.6356
C92 C 0.94922(19) 0.9568(4) 0.6506(2)
O7 O 0.94164(13) 0.9732(2) 0.67745(11)
O8 O 0.94249(12) 0.9831(2) 0.62658(12)
O9 O 0.96398(14) 0.1145(3) 0.67750(14)
O12 O 0.87768(18) 0.1175(3) 0.57038(13)
O13 O 0.93154(14) 0.1287(2) 0.62991(13)
O16 O 0.95625(14) 0.0635(2) 0.57943(12)
O20 O 0.86388(13) 0.0476(2) 0.62321(13)
O21 O 0.87476(13) 0.0742(3) 0.67106(12)
H61 H 0.894726 0.14717 0.563094
H62 H 0.862839 0.0959038 0.552677
H1 H 0.9677 0.9901 0.7373
H6 H 0.9740 0.9792 0.9291
C22 C 0.95774(17) 0.9978(3) 0.96791(16)
H11 H 0.9727 0.9689 0.9796
H19 H 0.9676 0.9785 0.7885
O15 O 0.88974(13) 0.9793(3) 0.57008(15)
C6_2 C 0.4903(2) 0.3367(4) 0.0276(2)
H4_2 H 0.4816 0.3566 0.0093
C7_2 C 0.82589(18) 0.0173(4) 0.0448(2)
C9_2 C 0.54475(17) 0.1899(3) 0.0556(2)
C13_2 C 0.48525(18) 0.3593(3) 0.0536(2)
C15_2 C 0.56490(18) 0.1789(3) 0.03429(19)
H7_2 H 0.5674 0.2097 0.0203
C18_2 C 0.57943(17) 0.0792(3) 0.0536(2)
C19_2 C 0.49844(19) 0.3335(4) 0.0820(2)
H9_2 H 0.4955 0.3521 0.1001
C26_2 C 0.7750(2) 0.0518(4) 0.0704(2)
H13_2 H 0.7667 0.0719 0.0863
C28_2 C 0.50973(17) 0.2803(4) 0.02871(16)
H15_2 H 0.5135 0.2614 0.0108
C29_2 C 0.54061(17) 0.1423(3) 0.07636(19)
H16_2 H 0.5255 0.1489 0.0906
C30_2 C 0.51757(18) 0.2738(4) 0.08062(17)
H17_2 H 0.5255 0.2514 0.0984
C31_2 C 0.5229(2) 0.2539(3) 0.05606(17)
C34_2 C 0.81368(18) 0.0488(3) 0.0704(2)
H20_2 H 0.8307 0.0663 0.0861
C39_2 C 0.65807(17) 0.0689(3) 0.0646(2)
H25_2 H 0.6483 0.1023 0.0735
C41_2 C 0.46044(16) 0.4204(4) 0.0532(2)
C42_2 C 0.8673(2) 0.0177(4) 0.0476(3)
C43_2 C 0.71049(19) 0.0238(4) 0.04835(19)
C44_2 C 0.58212(17) 0.1233(3) 0.03242(19)
H27_2 H 0.5954 0.1158 0.0169
C45_2 C 0.6346(2) 0.0217(4) 0.0531(2)
C47_2 C 0.55787(17) 0.0877(3) 0.0761(2)
H29_2 H 0.5556 0.0570 0.0901
C48_2 C 0.69393(18) 0.0696(3) 0.06360(19)
H30_2 H 0.7085 0.1014 0.0733
C51_2 C 0.74912(18) 0.0253(4) 0.0471(2)
N2_2 N 0.59620(15) 0.0235(3) 0.05265(17)
O2_2 O 0.44852(14) 0.4414(2) 0.02825(11)
O4_2 O 0.88974(13) 0.0207(3) 0.07008(15)
O5_2 O 0.45625(14) 0.4365(2) 0.07943(12)
C56_2 C 0.8126(2) 0.0694(4) 0.6476(2)
C57_2 C 0.8030(2) 0.0826(4) 0.6742(2)
H37_2 H 0.8209 0.0895 0.6914
C58_2 C 0.4732(2) 0.3575(4) 0.67773(19)
H38_2 H 0.4650 0.3733 0.6947
C59_2 C 0.46647(16) 0.3909(3) 0.65070(17)
C60_2 C 0.4913(2) 0.3025(4) 0.6803(2)
H39_2 H 0.4941 0.2804 0.6984
C61_2 C 0.4987(2) 0.3115(4) 0.62820(18)
H40_2 H 0.5064 0.2961 0.6109
C62_2 C 0.7512(2) 0.0620(4) 0.6227(3)
H41_2 H 0.7346 0.0592 0.6043
C63_2 C 0.4792(2) 0.3699(4) 0.62692(17)
H42_2 H 0.4757 0.3928 0.6090
C64_2 C 0.7887(2) 0.0605(4) 0.6237(2)
H43_2 H 0.7971 0.0523 0.6057
C65_2 C 0.7651(2) 0.0859(5) 0.6759(2)
H44_2 H 0.7577 0.1001 0.6935
C66_2 C 0.50576(17) 0.2788(4) 0.65528(19)
C67_2 C 0.7387(2) 0.0680(5) 0.6509(2)
C68_2 C 0.52529(18) 0.2213(3) 0.65652(18)
C69_2 C 0.6395(2) 0.0176(4) 0.6387(2)
C72_2 C 0.5737(2) 0.1586(4) 0.64428(19)
H46_2 H 0.5929 0.1535 0.6335
C75_2 C 0.6989(2) 0.0635(4) 0.6531(2)
C79_2 C 0.5177(2) 0.1711(4) 0.6757(2)
H50_2 H 0.4993 0.1755 0.6874
C83_2 C 0.5658(2) 0.1107(4) 0.6614(2)
C84_2 C 0.6243(2) 0.0567(5) 0.6590(3)
H53_2 H 0.5228 0.0249 0.6332
C87_2 C 0.6861(2) 0.1066(5) 0.6739(3)
H55_2 H 0.7013 0.1368 0.6843
C88_2 C 0.5562(2) 0.2124(4) 0.64171(19)
H56_2 H 0.5640 0.2441 0.6303
C89_2 C 0.5372(2) 0.1173(4) 0.6770(2)
H57_2 H 0.5310 0.0846 0.6886
C91_2 C 0.6474(2) 0.0992(5) 0.6772(2)
H59_2 H 0.6380 0.1228 0.6914
C92_2 C 0.44922(19) 0.4568(4) 0.6506(2)
C93_2 C 0.6743(2) 0.0247(4) 0.6362(2)
H60_2 H 0.6829 0.0011 0.6215
C94_2 C 0.8541(2) 0.0633(4) 0.6451(2)
N4_2 N 0.58646(17) 0.0544(3) 0.66132(18)
O7_2 O 0.44164(13) 0.4732(2) 0.67745(11)
O8_2 O 0.44249(12) 0.4831(2) 0.62658(12)
C8_2 C 0.57086(19) 0.8581(3) 0.06682(19)
H5_2 H 0.5819 0.8232 0.0767
C10_2 C 0.5766(2) 0.9669(3) 0.0535(2)
C12_2 C 0.47268(16) 0.6894(3) 0.04596(16)
C16_2 C 0.4519(2) 0.6326(3) 0.04080(18)
C17_2 C 0.51039(19) 0.6867(3) 0.05145(16)
H8_2 H 0.5225 0.6489 0.0538
C20_2 C 0.53003(17) 0.7412(3) 0.05337(17)
H10_2 H 0.5556 0.7382 0.0562
C21_2 C 0.53345(18) 0.8561(3) 0.0497(2)
C24_2 C 0.51502(17) 0.7994(3) 0.05145(19)
C25_2 C 0.5413(2) 0.9627(3) 0.0379(2)
H12_2 H 0.5309 0.9975 0.0275
C32_2 C 0.47493(18) 0.8020(3) 0.04577(18)
H18_2 H 0.4628 0.8399 0.0439
C35_2 C 0.5895(2) 0.9139(4) 0.06793(19)
H21_2 H 0.6131 0.9152 0.0796
C36_2 C 0.65025(19) 0.9739(4) 0.0381(2)
H22_2 H 0.6357 0.9406 0.0301
C37_2 C 0.5207(2) 0.9114(4) 0.0366(2)
H23_2 H 0.4964 0.9132 0.0262
C38_2 C 0.45520(18) 0.7479(3) 0.04327(17)
H24_2 H 0.4295 0.7497 0.0397
C46_2 C 0.68951(18) 0.9761(4) 0.0349(2)
H28_2 H 0.6996 0.9459 0.0240
C49_2 C 0.8016(2) 0.9932(3) 0.0234(2)
H31_2 H 0.8094 0.9734 0.0072
C52_2 C 0.7640(2) 0.9964(4) 0.0241(2)
H33_2 H 0.7478 0.9781 0.0082
O1_2 O 0.46718(12) 0.5810(2) 0.04624(11)
O3_2 O 0.41671(13) 0.63495(19) 0.02918(11)
C1_2 C 0.45137(18) 0.5146(4) 0.7457(2)
H1_2 H 0.4677 0.4901 0.7373
C2_2 C 0.43223(18) 0.5557(4) 0.79015(16)
C3_2 C 0.40697(17) 0.5876(4) 0.74032(19)
H2_2 H 0.3891 0.6119 0.7284
C4_2 C 0.4340(2) 0.5507(3) 0.82421(16)
C5_2 C 0.4660(2) 0.5327(4) 0.87442(19)
H3_2 H 0.4877 0.5226 0.8877
C11_2 C 0.43476(17) 0.5440(3) 0.88470(15)
C14_2 C 0.45801(15) 0.5036(3) 0.93785(15)
H6_2 H 0.4740 0.4792 0.9291
C22_2 C 0.45774(17) 0.4978(3) 0.96791(16)
H11_2 H 0.4727 0.4689 0.9796
C23_2 C 0.43585(18) 0.5434(3) 0.92039(16)
C27_2 C 0.39980(19) 0.5604(4) 0.83662(16)
H14_2 H 0.3771 0.5681 0.8243
C33_2 C 0.45375(15) 0.5089(3) 0.77696(17)
H19_2 H 0.4676 0.4785 0.7885
C40_2 C 0.40391(19) 0.5571(5) 0.86624(17)
H26_2 H 0.3832 0.5648 0.8749
C50_2 C 0.46489(17) 0.5365(3) 0.84320(18)
H32_2 H 0.4863 0.5289 0.8355
C53_2 C 0.41004(18) 0.5907(5) 0.77050(18)
H34_2 H 0.3955 0.6195 0.7783
C54_2 C 0.41354(19) 0.5814(3) 0.93294(18)
H35_2 H 0.3987 0.6107 0.9214
C55_2 C 0.4140(2) 0.5746(4) 0.9629(2)
H36_2 H 0.3982 0.5997 0.9716
N1_2 N 0.42878(15) 0.5504(3) 0.72584(13)
N3_2 N 0.43448(13) 0.5363(2) 0.98090(13)
H45_2 H 0.6250 0.9876 0.6274
C70_2 C 0.5323(2) 0.8815(4) 0.6598(2)
C71_2 C 0.5103(2) 0.8203(4) 0.6588(2)
C73_2 C 0.4763(2) 0.7062(4) 0.6554(2)
C74_2 C 0.4523(3) 0.6447(4) 0.6558(3)
C76_2 C 0.5076(2) 0.7143(4) 0.67437(19)
H47_2 H 0.5167 0.6829 0.6878
C77_2 C 0.47677(19) 0.8103(4) 0.6382(2)
H48_2 H 0.4661 0.8426 0.6259
C78_2 C 0.5280(2) 0.7712(4) 0.6748(2)
H49_2 H 0.5521 0.7746 0.6854
C80_2 C 0.5673(2) 0.8896(4) 0.6764(2)
H51_2 H 0.5786 0.8577 0.6885
C81_2 C 0.4593(3) 0.7518(4) 0.6361(2)
H52_2 H 0.4375 0.7444 0.6224
C82_2 C 0.5679(2) 0.9970(4) 0.6613(2)
C85_2 C 0.5340(2) 0.9921(3) 0.6447(2)
C86_2 C 0.5851(2) 0.9438(4) 0.6751(3)
H54_2 H 0.6100 0.9459 0.6837
C90_2 C 0.5153(2) 0.9322(4) 0.6454(2)
H58_2 H 0.4908 0.9288 0.6356
O9_2 O 0.46398(14) 0.6145(3) 0.67750(14)
O12_2 O 0.37768(18) 0.6175(3) 0.57038(13)
O13_2 O 0.43154(14) 0.6287(2) 0.62991(13)
O15_2 O 0.38974(13) 0.4793(3) 0.57008(15)
O16_2 O 0.45625(14) 0.5635(2) 0.57943(12)
H61_2 H 0.394726 0.64717 0.563094
H62_2 H 0.362839 0.595904 0.552677
C7_3 C 0.32589(18) 0.4827(4) 0.5448(2)
C8_3 C 0.07086(19) 0.6419(3) 0.56682(19)
H5_3 H 0.0819 0.6768 0.5767
C9_3 C 0.04475(17) 0.3101(3) 0.5556(2)
C10_3 C 0.0766(2) 0.5331(3) 0.5535(2)
C15_3 C 0.06490(18) 0.3211(3) 0.53429(19)
H7_3 H 0.0674 0.2903 0.5203
C17_3 C 0.01039(19) 0.8133(3) 0.55145(16)
H8_3 H 0.0225 0.8511 0.5538
C18_3 C 0.07943(17) 0.4208(3) 0.5536(2)
C20_3 C 0.03003(17) 0.7588(3) 0.55337(17)
H10_3 H 0.0556 0.7618 0.5562
C21_3 C 0.03345(18) 0.6439(3) 0.5497(2)
C24_3 C 0.01502(17) 0.7006(3) 0.55145(19)
C25_3 C 0.0413(2) 0.5373(3) 0.5379(2)
H12_3 H 0.0309 0.5025 0.5275
C26_3 C 0.2750(2) 0.4482(4) 0.5704(2)
H13_3 H 0.2667 0.4281 0.5863
C28_3 C 0.00973(17) 0.2197(4) 0.52871(16)
H15_3 H 0.0135 0.2386 0.5108
C29_3 C 0.04061(17) 0.3577(3) 0.57636(19)
H16_3 H 0.0255 0.3511 0.5906
C30_3 C 0.01757(18) 0.2262(4) 0.58062(17)
H17_3 H 0.0255 0.2486 0.5984
C31_3 C 0.0229(2) 0.2461(3) 0.55606(17)
C34_3 C 0.31368(18) 0.4512(3) 0.5704(2)
H20_3 H 0.3307 0.4337 0.5861
C35_3 C 0.0895(2) 0.5861(4) 0.56793(19)
H21_3 H 0.1131 0.5848 0.5796
C36_3 C 0.15025(19) 0.5261(4) 0.5381(2)
H22_3 H 0.1357 0.5594 0.5301
C37_3 C 0.0207(2) 0.5886(4) 0.5366(2)
C39_3 C 0.15807(17) 0.4311(3) 0.5646(2)
H25_3 H 0.1483 0.3977 0.5735
C42_3 C 0.3673(2) 0.4823(4) 0.5476(3)
C43_3 C 0.21049(19) 0.4762(4) 0.54835(19)
C44_3 C 0.08212(17) 0.3767(3) 0.53242(19)
H27_3 H 0.0954 0.3842 0.5169
C45_3 C 0.1346(2) 0.4783(4) 0.5531(2)
C46_3 C 0.18951(18) 0.5239(4) 0.5349(2)
H28_3 H 0.1996 0.5541 0.5240
C47_3 C 0.05787(17) 0.4123(3) 0.5761(2)
H29_3 H 0.0556 0.4430 0.5901
C48_3 C 0.19393(18) 0.4304(3) 0.56360(19)
H30_3 H 0.2085 0.3986 0.5733
C49_3 C 0.3016(2) 0.5068(3) 0.5234(2)
H31_3 H 0.3094 0.5266 0.5072
C51_3 C 0.24912(18) 0.4747(4) 0.5471(2)
C52_3 C 0.2640(2) 0.5036(4) 0.5241(2)
H33_3 H 0.2478 0.5219 0.5082
N2_3 N 0.09620(15) 0.4765(3) 0.55265(17)
O6_2 O 0.37456(13) 0.4883(2) 0.51961(14)
C56_3 C 0.3126(2) 0.4306(4) 0.1476(2)
C57_3 C 0.3030(2) 0.4174(4) 0.1742(2)
H37_3 H 0.3209 0.4105 0.1914
H40_3 H 0.0064 0.2039 0.1109
C62_3 C 0.2512(2) 0.4380(4) 0.1227(3)
H41_3 H 0.2346 0.4408 0.1043
C64_3 C 0.2887(2) 0.4395(4) 0.1237(2)
H43_3 H 0.2971 0.4477 0.1057
C65_3 C 0.2651(2) 0.4141(5) 0.1759(2)
H44_3 H 0.2577 0.3999 0.1935
C66_3 C 0.00576(17) 0.2212(4) 0.15528(19)
C67_3 C 0.2387(2) 0.4320(5) 0.1509(2)
C68_3 C 0.02529(18) 0.2787(3) 0.15652(18)
C69_3 C 0.1395(2) 0.4824(4) 0.1387(2)
H45_3 H 0.1250 0.5124 0.1274
C70_3 C 0.0323(2) 0.6185(4) 0.1598(2)
C71_3 C 0.0103(2) 0.6797(4) 0.1588(2)
C72_3 C 0.0737(2) 0.3414(4) 0.14428(19)
H46_3 H 0.0929 0.3465 0.1335
C75_3 C 0.1989(2) 0.4365(4) 0.1531(2)
C76_3 C 0.0076(2) 0.7857(4) 0.17437(19)
H47_3 H 0.0167 0.8171 0.1878
C78_3 C 0.0280(2) 0.7288(4) 0.1748(2)
H49_3 H 0.0521 0.7254 0.1854
C79_3 C 0.0177(2) 0.3289(4) 0.1757(2)
C80_3 C 0.0673(2) 0.6104(4) 0.1764(2)
H51_3 H 0.0786 0.6423 0.1885
C82_3 C 0.0679(2) 0.5030(4) 0.1613(2)
C83_3 C 0.0658(2) 0.3893(4) 0.1614(2)
C84_3 C 0.1243(2) 0.4433(5) 0.1590(3)
C85_3 C 0.0340(2) 0.5079(3) 0.1447(2)
H53_3 H 0.0228 0.4751 0.1332
C86_3 C 0.0851(2) 0.5562(4) 0.1751(3)
H54_3 H 0.1100 0.5541 0.1837
C87_3 C 0.1861(2) 0.3934(5) 0.1739(3)
H55_3 H 0.2013 0.3632 0.1843
C88_3 C 0.0562(2) 0.2876(4) 0.14171(19)
H56_3 H 0.0640 0.2559 0.1303
C89_3 C 0.0372(2) 0.3827(4) 0.1770(2)
H57_3 H 0.0310 0.4154 0.1886
C90_3 C 0.0153(2) 0.5678(4) 0.1454(2)
C91_3 C 0.1474(2) 0.4008(5) 0.1772(2)
H59_3 H 0.1380 0.3772 0.1914
C93_3 C 0.1743(2) 0.4753(4) 0.1362(2)
H60_3 H 0.1829 0.4989 0.1215
C94_3 C 0.3541(2) 0.4367(4) 0.1451(2)
N4_3 N 0.08646(17) 0.4456(3) 0.16132(18)
O10_2 O 0.36388(13) 0.4524(2) 0.12321(13)
O11_2 O 0.37476(13) 0.4258(3) 0.17106(12)
Zn5_2 Zn 0.42903(2) 0.47548(4) 0.52626(2)
Zn7_2 Zn 0.42656(2) 0.44594(4) 0.18204(2)
H1_3 H 0.9677 0.0099 0.2373
H6_3 H 0.9740 0.0208 0.4291
C22_3 C 0.95774(17) 0.0022(3) 0.46791(16)
H11_3 H 0.9727 0.0311 0.4796
H19_3 H 0.9676 0.0215 0.2885
O14 O 0.94852(14) 0.0586(2) 0.52825(11)
O18 O 0.94164(13) 0.0268(2) 0.17745(11)
O19 O 0.94249(12) 0.0169(2) 0.12658(12)
C1_3 C 0.95137(18) 0.9854(4) 0.2457(2)
C2_3 C 0.93223(18) 0.9443(4) 0.29015(16)
C3_3 C 0.90697(17) 0.9124(4) 0.24032(19)
H2_3 H 0.8891 0.8881 0.2284
C4_3 C 0.9340(2) 0.9493(3) 0.32421(16)
C5_3 C 0.9660(2) 0.9673(4) 0.37442(19)
H3_3 H 0.9877 0.9774 0.3877
C6_3 C 0.9903(2) 0.1633(4) 0.5276(2)
H4_3 H 0.9816 0.1434 0.5093
C11_3 C 0.93476(17) 0.9560(3) 0.38470(15)
C12_3 C 0.97268(16) 0.8106(3) 0.54596(16)
C13_3 C 0.98525(18) 0.1407(3) 0.5536(2)
C14_3 C 0.95801(15) 0.9964(3) 0.43785(15)
C16_3 C 0.9519(2) 0.8674(3) 0.54080(18)
C19_3 C 0.99844(19) 0.1665(4) 0.5820(2)
H9_3 H 0.9955 0.1479 0.6001
C23_3 C 0.93585(18) 0.9566(3) 0.42039(16)
C27_3 C 0.89980(19) 0.9396(4) 0.33662(16)
H14_3 H 0.8771 0.9319 0.3243
C32_3 C 0.97493(18) 0.6980(3) 0.54577(18)
H18_3 H 0.9628 0.6601 0.5439
C33_3 C 0.95375(15) 0.9911(3) 0.27696(17)
H23_3 H 0.9964 0.5868 0.5262
C38_3 C 0.95520(18) 0.7521(3) 0.54327(17)
H24_3 H 0.9295 0.7503 0.5397
C40_3 C 0.90391(19) 0.9429(5) 0.36624(17)
H26_3 H 0.8832 0.9352 0.3749
C41_3 C 0.96044(16) 0.0796(4) 0.5532(2)
C50_3 C 0.96489(17) 0.9635(3) 0.34320(18)
H32_3 H 0.9863 0.9711 0.3355
C53_3 C 0.91004(18) 0.9093(5) 0.27050(18)
H34_3 H 0.8955 0.8805 0.2783
C54_3 C 0.91354(19) 0.9186(3) 0.43294(18)
H35_3 H 0.8987 0.8893 0.4214
C55_3 C 0.9140(2) 0.9254(4) 0.4629(2)
H36_3 H 0.8982 0.9003 0.4716
N1_3 N 0.92878(15) 0.9496(3) 0.22584(13)
N3_3 N 0.93448(13) 0.9637(2) 0.48090(13)
O1_3 O 0.96718(12) 0.9190(2) 0.54624(11)
O3_3 O 0.91671(13) 0.86505(19) 0.52918(11)
Zn1 Zn 0.92903(2) 0.97548(4) 0.52626(2)
C58_3 C 0.9732(2) 0.1425(4) 0.17773(19)
H38_3 H 0.9650 0.1267 0.1947
C59_3 C 0.96647(16) 0.1091(3) 0.15070(17)
C60_3 C 0.9913(2) 0.1975(4) 0.1803(2)
H39_3 H 0.9941 0.2196 0.1984
C61_3 C 0.9987(2) 0.1885(4) 0.12820(18)
C63_3 C 0.9792(2) 0.1301(4) 0.12692(17)
H42_3 H 0.9757 0.1072 0.1090
C73_3 C 0.9763(2) 0.7938(4) 0.1554(2)
C74_3 C 0.9523(3) 0.8553(4) 0.1558(3)
C77_3 C 0.97677(19) 0.6897(4) 0.1382(2)
H48_3 H 0.9661 0.6574 0.1259
H50_3 H 0.9993 0.3245 0.1874
C81_3 C 0.9593(3) 0.7482(4) 0.1361(2)
H52_3 H 0.9375 0.7556 0.1224
H58_3 H 0.9908 0.5712 0.1356
C92_3 C 0.94922(19) 0.0432(4) 0.1506(2)
O9_3 O 0.96398(14) 0.8855(3) 0.17750(14)
O12_3 O 0.87768(18) 0.8825(3) 0.07038(13)
O13_3 O 0.93154(14) 0.8713(2) 0.12991(13)
Zn2 Zn 0.92656(2) 0.94594(4) 0.18204(2)
O17_2 O 0.87456(13) 0.9883(2) 0.51961(14)
O20_2 O 0.86388(13) 0.9524(2) 0.12321(13)
O21_2 O 0.87476(13) 0.9258(3) 0.17106(12)
H61_3 H 0.894726 0.85283 0.0630944
H62_3 H 0.862839 0.904096 0.0526771
C1_4 C 0.45137(18) 0.4854(4) 0.2457(2)
H1_4 H 0.4677 0.5099 0.2373
C2_4 C 0.43223(18) 0.4443(4) 0.29015(16)
C3_4 C 0.40697(17) 0.4124(4) 0.24032(19)
H2_4 H 0.3891 0.3881 0.2284
C4_4 C 0.4340(2) 0.4493(3) 0.32421(16)
C5_4 C 0.4660(2) 0.4673(4) 0.37442(19)
H3_4 H 0.4877 0.4774 0.3877
C8_4 C 0.57086(19) 0.1419(3) 0.56682(19)
H5_4 H 0.5819 0.1768 0.5767
C10_4 C 0.5766(2) 0.0331(3) 0.5535(2)
C11_4 C 0.43476(17) 0.4560(3) 0.38470(15)
C12_4 C 0.47268(16) 0.3106(3) 0.54596(16)
C14_4 C 0.45801(15) 0.4964(3) 0.43785(15)
H6_4 H 0.4740 0.5208 0.4291
C16_4 C 0.4519(2) 0.3674(3) 0.54080(18)
C17_4 C 0.51039(19) 0.3133(3) 0.55145(16)
H8_4 H 0.5225 0.3511 0.5538
C20_4 C 0.53003(17) 0.2588(3) 0.55337(17)
H10_4 H 0.5556 0.2618 0.5562
C21_4 C 0.53345(18) 0.1439(3) 0.5497(2)
C22_4 C 0.45774(17) 0.5022(3) 0.46791(16)
H11_4 H 0.4727 0.5311 0.4796
C23_4 C 0.43585(18) 0.4566(3) 0.42039(16)
C24_4 C 0.51502(17) 0.2006(3) 0.55145(19)
C25_4 C 0.5413(2) 0.0373(3) 0.5379(2)
H12_4 H 0.5309 0.0025 0.5275
C27_4 C 0.39980(19) 0.4396(4) 0.33662(16)
H14_4 H 0.3771 0.4319 0.3243
C32_4 C 0.47493(18) 0.1980(3) 0.54577(18)
H18_4 H 0.4628 0.1601 0.5439
C33_4 C 0.45375(15) 0.4911(3) 0.27696(17)
H19_4 H 0.4676 0.5215 0.2885
C35_4 C 0.5895(2) 0.0861(4) 0.56793(19)
H21_4 H 0.6131 0.0848 0.5796
C36_4 C 0.65025(19) 0.0261(4) 0.5381(2)
H22_4 H 0.6357 0.0594 0.5301
C37_4 C 0.5207(2) 0.0886(4) 0.5366(2)
H23_4 H 0.4964 0.0868 0.5262
C38_4 C 0.45520(18) 0.2521(3) 0.54327(17)
H24_4 H 0.4295 0.2503 0.5397
C40_4 C 0.40391(19) 0.4429(5) 0.36624(17)
H26_4 H 0.3832 0.4352 0.3749
C46_4 C 0.68951(18) 0.0239(4) 0.5349(2)
H28_4 H 0.6996 0.0541 0.5240
C49_4 C 0.8016(2) 0.0068(3) 0.5234(2)
H31_4 H 0.8094 0.0266 0.5072
C50_4 C 0.46489(17) 0.4635(3) 0.34320(18)
H32_4 H 0.4863 0.4711 0.3355
C52_4 C 0.7640(2) 0.0036(4) 0.5241(2)
H33_4 H 0.7478 0.0219 0.5082
C53_4 C 0.41004(18) 0.4093(5) 0.27050(18)
H34_4 H 0.3955 0.3805 0.2783
C54_4 C 0.41354(19) 0.4186(3) 0.43294(18)
H35_4 H 0.3987 0.3893 0.4214
C55_4 C 0.4140(2) 0.4254(4) 0.4629(2)
H36_4 H 0.3982 0.4003 0.4716
N1_4 N 0.42878(15) 0.4496(3) 0.22584(13)
N3_4 N 0.43448(13) 0.4637(2) 0.48090(13)
O1_4 O 0.46718(12) 0.4190(2) 0.54624(11)
O3_4 O 0.41671(13) 0.36505(19) 0.52918(11)
H45_4 H 0.6250 0.0124 0.1274
C70_4 C 0.5323(2) 0.1185(4) 0.1598(2)
C71_4 C 0.5103(2) 0.1797(4) 0.1588(2)
C73_4 C 0.4763(2) 0.2938(4) 0.1554(2)
C74_4 C 0.4523(3) 0.3553(4) 0.1558(3)
C76_4 C 0.5076(2) 0.2857(4) 0.17437(19)
H47_4 H 0.5167 0.3171 0.1878
C77_4 C 0.47677(19) 0.1897(4) 0.1382(2)
H48_4 H 0.4661 0.1574 0.1259
C78_4 C 0.5280(2) 0.2288(4) 0.1748(2)
H49_4 H 0.5521 0.2254 0.1854
C80_4 C 0.5673(2) 0.1104(4) 0.1764(2)
H51_4 H 0.5786 0.1423 0.1885
C81_4 C 0.4593(3) 0.2482(4) 0.1361(2)
H52_4 H 0.4375 0.2556 0.1224
C82_4 C 0.5679(2) 0.0030(4) 0.1613(2)
C85_4 C 0.5340(2) 0.0079(3) 0.1447(2)
C86_4 C 0.5851(2) 0.0562(4) 0.1751(3)
H54_4 H 0.6100 0.0541 0.1837
C90_4 C 0.5153(2) 0.0678(4) 0.1454(2)
H58_4 H 0.4908 0.0712 0.1356
O9_4 O 0.46398(14) 0.3855(3) 0.17750(14)
O12_4 O 0.37768(18) 0.3825(3) 0.07038(13)
O13_4 O 0.43154(14) 0.3713(2) 0.12991(13)
O14_2 O 0.44852(14) 0.5586(2) 0.52825(11)
O18_2 O 0.44164(13) 0.5268(2) 0.17745(11)
O19_2 O 0.44249(12) 0.5169(2) 0.12658(12)
H61_4 H 0.394726 0.35283 0.0630944
H62_4 H 0.362839 0.404096 0.0526771
C6_4 C 0.4903(2) 0.6633(4) 0.5276(2)
H4_4 H 0.4816 0.6434 0.5093
C7_4 C 0.82589(18) 0.9827(4) 0.5448(2)
C9_4 C 0.54475(17) 0.8101(3) 0.5556(2)
C13_4 C 0.48525(18) 0.6407(3) 0.5536(2)
C15_4 C 0.56490(18) 0.8211(3) 0.53429(19)
H7_4 H 0.5674 0.7903 0.5203
C18_4 C 0.57943(17) 0.9208(3) 0.5536(2)
C19_4 C 0.49844(19) 0.6665(4) 0.5820(2)
H9_4 H 0.4955 0.6479 0.6001
C26_4 C 0.7750(2) 0.9482(4) 0.5704(2)
H13_4 H 0.7667 0.9281 0.5863
C28_4 C 0.50973(17) 0.7197(4) 0.52871(16)
H15_4 H 0.5135 0.7386 0.5108
C29_4 C 0.54061(17) 0.8577(3) 0.57636(19)
H16_4 H 0.5255 0.8511 0.5906
C30_4 C 0.51757(18) 0.7262(4) 0.58062(17)
H17_4 H 0.5255 0.7486 0.5984
C31_4 C 0.5229(2) 0.7461(3) 0.55606(17)
C34_4 C 0.81368(18) 0.9512(3) 0.5704(2)
H20_4 H 0.8307 0.9337 0.5861
C39_4 C 0.65807(17) 0.9311(3) 0.5646(2)
H25_4 H 0.6483 0.8977 0.5735
C41_4 C 0.46044(16) 0.5796(4) 0.5532(2)
C42_4 C 0.8673(2) 0.9823(4) 0.5476(3)
C43_4 C 0.71049(19) 0.9762(4) 0.54835(19)
C44_4 C 0.58212(17) 0.8767(3) 0.53242(19)
H27_4 H 0.5954 0.8842 0.5169
C45_4 C 0.6346(2) 0.9783(4) 0.5531(2)
C47_4 C 0.55787(17) 0.9123(3) 0.5761(2)
H29_4 H 0.5556 0.9430 0.5901
C48_4 C 0.69393(18) 0.9304(3) 0.56360(19)
H30_4 H 0.7085 0.8986 0.5733
C51_4 C 0.74912(18) 0.9747(4) 0.5471(2)
N2_4 N 0.59620(15) 0.9765(3) 0.55265(17)
C56_4 C 0.8126(2) 0.9306(4) 0.1476(2)
C57_4 C 0.8030(2) 0.9174(4) 0.1742(2)
H37_4 H 0.8209 0.9105 0.1914
C58_4 C 0.4732(2) 0.6425(4) 0.17773(19)
H38_4 H 0.4650 0.6267 0.1947
C59_4 C 0.46647(16) 0.6091(3) 0.15070(17)
C60_4 C 0.4913(2) 0.6975(4) 0.1803(2)
H39_4 H 0.4941 0.7196 0.1984
C61_4 C 0.4987(2) 0.6885(4) 0.12820(18)
H40_4 H 0.5064 0.7039 0.1109
C62_4 C 0.7512(2) 0.9380(4) 0.1227(3)
H41_4 H 0.7346 0.9408 0.1043
C63_4 C 0.4792(2) 0.6301(4) 0.12692(17)
H42_4 H 0.4757 0.6072 0.1090
C64_4 C 0.7887(2) 0.9395(4) 0.1237(2)
H43_4 H 0.7971 0.9477 0.1057
C65_4 C 0.7651(2) 0.9141(5) 0.1759(2)
H44_4 H 0.7577 0.8999 0.1935
C66_4 C 0.50576(17) 0.7212(4) 0.15528(19)
C67_4 C 0.7387(2) 0.9320(5) 0.1509(2)
C68_4 C 0.52529(18) 0.7787(3) 0.15652(18)
C69_4 C 0.6395(2) 0.9824(4) 0.1387(2)
C72_4 C 0.5737(2) 0.8414(4) 0.14428(19)
H46_4 H 0.5929 0.8465 0.1335
C75_4 C 0.6989(2) 0.9365(4) 0.1531(2)
C79_4 C 0.5177(2) 0.8289(4) 0.1757(2)
H50_4 H 0.4993 0.8245 0.1874
C83_4 C 0.5658(2) 0.8893(4) 0.1614(2)
C84_4 C 0.6243(2) 0.9433(5) 0.1590(3)
H53_4 H 0.5228 0.9751 0.1332
C87_4 C 0.6861(2) 0.8934(5) 0.1739(3)
H55_4 H 0.7013 0.8632 0.1843
C88_4 C 0.5562(2) 0.7876(4) 0.14171(19)
H56_4 H 0.5640 0.7559 0.1303
C89_4 C 0.5372(2) 0.8827(4) 0.1770(2)
H57_4 H 0.5310 0.9154 0.1886
C91_4 C 0.6474(2) 0.9008(5) 0.1772(2)
H59_4 H 0.6380 0.8772 0.1914
C92_4 C 0.44922(19) 0.5432(4) 0.1506(2)
C93_4 C 0.6743(2) 0.9753(4) 0.1362(2)
H60_4 H 0.6829 0.9989 0.1215
C94_4 C 0.8541(2) 0.9367(4) 0.1451(2)
N4_4 N 0.58646(17) 0.9456(3) 0.16132(18)
Zn4_2 Zn 0.07097(2) 0.02452(4) 0.47374(2)
Zn6_2 Zn 0.07344(2) 0.05406(4) 0.81796(2)
Zn8_2 Zn 0.08959(3) 0.04844(5) 0.89877(3)
C1_5 C 0.04863(18) 0.0146(4) 0.7543(2)
C2_5 C 0.06777(18) 0.0557(4) 0.70985(16)
C3_5 C 0.09303(17) 0.0876(4) 0.75968(19)
H2_5 H 0.1109 0.1119 0.7716
C4_5 C 0.0660(2) 0.0507(3) 0.67579(16)
C5_5 C 0.0340(2) 0.0327(4) 0.62558(19)
H3_5 H 0.0123 0.0226 0.6123
C6_5 C 0.0097(2) 0.8367(4) 0.4724(2)
H4_5 H 0.0184 0.8566 0.4907
C11_5 C 0.06524(17) 0.0440(3) 0.61530(15)
C12_5 C 0.02732(16) 0.1894(3) 0.45404(16)
C13_5 C 0.01475(18) 0.8593(3) 0.4464(2)
C14_5 C 0.04199(15) 0.0036(3) 0.56215(15)
C16_5 C 0.0481(2) 0.1326(3) 0.45920(18)
C19_5 C 0.00156(19) 0.8335(4) 0.4180(2)
H9_5 H 0.0045 0.8521 0.3999
C23_5 C 0.06415(18) 0.0434(3) 0.57961(16)
C27_5 C 0.10020(19) 0.0604(4) 0.66338(16)
H14_5 H 0.1229 0.0681 0.6757
C32_5 C 0.02507(18) 0.3020(3) 0.45423(18)
H18_5 H 0.0372 0.3399 0.4561
C33_5 C 0.04625(15) 0.0089(3) 0.72304(17)
H23_5 H 0.0036 0.4132 0.4738
C38_5 C 0.04480(18) 0.2479(3) 0.45673(17)
H24_5 H 0.0705 0.2497 0.4603
C40_5 C 0.09609(19) 0.0571(5) 0.63376(17)
H26_5 H 0.1168 0.0648 0.6251
C41_5 C 0.03956(16) 0.9204(4) 0.4468(2)
C50_5 C 0.03511(17) 0.0365(3) 0.65680(18)
H32_5 H 0.0137 0.0289 0.6645
C53_5 C 0.08996(18) 0.0907(5) 0.72950(18)
H34_5 H 0.1045 0.1195 0.7217
C54_5 C 0.08646(19) 0.0814(3) 0.56706(18)
H35_5 H 0.1013 0.1107 0.5786
C55_5 C 0.0860(2) 0.0746(4) 0.5371(2)
H36_5 H 0.1018 0.0997 0.5284
N1_5 N 0.07122(15) 0.0504(3) 0.77416(13)
N3_5 N 0.06552(13) 0.0363(2) 0.51910(13)
O1_5 O 0.03282(12) 0.0810(2) 0.45376(11)
O2_3 O 0.05148(14) 0.9414(2) 0.47175(11)
O3_5 O 0.08329(13) 0.13495(19) 0.47082(11)
O5_3 O 0.04375(14) 0.9365(2) 0.42057(12)
C58_5 C 0.0268(2) 0.8575(4) 0.82227(19)
H38_5 H 0.0350 0.8733 0.8053
C59_5 C 0.03353(16) 0.8909(3) 0.84930(17)
C60_5 C 0.0087(2) 0.8025(4) 0.8197(2)
H39_5 H 0.0059 0.7804 0.8016
C61_5 C 0.0013(2) 0.8115(4) 0.87180(18)
C63_5 C 0.0208(2) 0.8699(4) 0.87308(17)
H42_5 H 0.0243 0.8928 0.8910
C73_5 C 0.0237(2) 0.2062(4) 0.8446(2)
C74_5 C 0.0477(3) 0.1447(4) 0.8442(3)
C77_5 C 0.02323(19) 0.3103(4) 0.8618(2)
H48_5 H 0.0339 0.3426 0.8741
H50_5 H 0.0007 0.6755 0.8126
C81_5 C 0.0407(3) 0.2518(4) 0.8639(2)
H52_5 H 0.0625 0.2444 0.8776
H58_5 H 0.0092 0.4288 0.8644
C92_5 C 0.05078(19) 0.9568(4) 0.8494(2)
O7_3 O 0.05836(13) 0.9732(2) 0.82255(11)
O8_3 O 0.05751(12) 0.9831(2) 0.87342(12)
O9_5 O 0.03602(14) 0.1145(3) 0.82250(14)
O12_5 O 0.12232(18) 0.1175(3) 0.92962(13)
O13_5 O 0.06846(14) 0.1287(2) 0.87009(13)
O16_3 O 0.04375(14) 0.0635(2) 0.92057(12)
O17_3 O 0.12544(13) 0.0117(2) 0.48039(14)
O20_3 O 0.13612(13) 0.0476(2) 0.87679(13)
O21_3 O 0.12524(13) 0.0742(3) 0.82894(12)
Zn10_2 Zn 0.08959(3) 0.95156(5) 0.39877(3)
H61_5 H 0.105274 0.14717 0.936906
H62_5 H 0.137161 0.0959038 0.947323
H1_5 H 0.0323 0.9901 0.7627
H6_5 H 0.0260 0.9792 0.5709
C22_5 C 0.04226(17) 0.9978(3) 0.53209(16)
H11_5 H 0.0273 0.9689 0.5204
H19_5 H 0.0324 0.9785 0.7115
O15_3 O 0.11026(13) 0.9793(3) 0.92992(15)
C7_5 C 0.67411(18) 0.5173(4) 0.4552(2)
C8_5 C 0.92914(19) 0.3581(3) 0.43318(19)
H5_5 H 0.9181 0.3232 0.4233
C9_5 C 0.95525(17) 0.6899(3) 0.4444(2)
C10_5 C 0.9234(2) 0.4669(3) 0.4465(2)
C15_5 C 0.93510(18) 0.6789(3) 0.46571(19)
H7_5 H 0.9326 0.7097 0.4797
C17_5 C 0.98961(19) 0.1867(3) 0.44855(16)
H8_5 H 0.9775 0.1489 0.4462
C18_5 C 0.92057(17) 0.5792(3) 0.4464(2)
C20_5 C 0.96997(17) 0.2412(3) 0.44663(17)
H10_5 H 0.9444 0.2382 0.4438
C21_5 C 0.96655(18) 0.3561(3) 0.4503(2)
C24_5 C 0.98498(17) 0.2994(3) 0.44855(19)
C25_5 C 0.9587(2) 0.4627(3) 0.4621(2)
H12_5 H 0.9691 0.4975 0.4725
C26_5 C 0.7250(2) 0.5518(4) 0.4296(2)
H13_5 H 0.7333 0.5719 0.4137
C28_5 C 0.99027(17) 0.7803(4) 0.47129(16)
H15_5 H 0.9865 0.7614 0.4892
C29_5 C 0.95939(17) 0.6423(3) 0.42364(19)
H16_5 H 0.9745 0.6489 0.4094
C30_5 C 0.98243(18) 0.7738(4) 0.41938(17)
H17_5 H 0.9745 0.7514 0.4016
C31_5 C 0.9771(2) 0.7539(3) 0.44394(17)
C34_5 C 0.68632(18) 0.5488(3) 0.4296(2)
H20_5 H 0.6693 0.5663 0.4139
C35_5 C 0.9105(2) 0.4139(4) 0.43207(19)
H21_5 H 0.8869 0.4152 0.4204
C36_5 C 0.84975(19) 0.4739(4) 0.4619(2)
H22_5 H 0.8643 0.4406 0.4699
C37_5 C 0.9793(2) 0.4114(4) 0.4634(2)
C39_5 C 0.84193(17) 0.5689(3) 0.4354(2)
H25_5 H 0.8517 0.6023 0.4265
C42_5 C 0.6327(2) 0.5177(4) 0.4524(3)
C43_5 C 0.78951(19) 0.5238(4) 0.45165(19)
C44_5 C 0.91788(17) 0.6233(3) 0.46758(19)
H27_5 H 0.9046 0.6158 0.4831
C45_5 C 0.8654(2) 0.5217(4) 0.4469(2)
C46_5 C 0.81049(18) 0.4761(4) 0.4651(2)
H28_5 H 0.8004 0.4459 0.4760
C47_5 C 0.94213(17) 0.5877(3) 0.4239(2)
H29_5 H 0.9444 0.5570 0.4099
C48_5 C 0.80607(18) 0.5696(3) 0.43640(19)
H30_5 H 0.7915 0.6014 0.4267
C49_5 C 0.6984(2) 0.4932(3) 0.4766(2)
H31_5 H 0.6906 0.4734 0.4928
C51_5 C 0.75088(18) 0.5253(4) 0.4529(2)
C52_5 C 0.7360(2) 0.4964(4) 0.4759(2)
H33_5 H 0.7522 0.4781 0.4918
N2_5 N 0.90380(15) 0.5235(3) 0.44735(17)
O4_3 O 0.61026(13) 0.5207(3) 0.42992(15)
O6_3 O 0.62544(13) 0.5117(2) 0.48039(14)
C56_5 C 0.6874(2) 0.5694(4) 0.8524(2)
C57_5 C 0.6970(2) 0.5826(4) 0.8258(2)
H37_5 H 0.6791 0.5895 0.8086
H40_5 H 0.9936 0.7961 0.8891
C62_5 C 0.7488(2) 0.5620(4) 0.8773(3)
H41_5 H 0.7654 0.5592 0.8957
C64_5 C 0.7113(2) 0.5605(4) 0.8763(2)
H43_5 H 0.7029 0.5523 0.8943
C65_5 C 0.7349(2) 0.5859(5) 0.8241(2)
H44_5 H 0.7423 0.6001 0.8065
C66_5 C 0.99424(17) 0.7788(4) 0.84472(19)
C67_5 C 0.7613(2) 0.5680(5) 0.8491(2)
C68_5 C 0.97471(18) 0.7213(3) 0.84348(18)
C69_5 C 0.8605(2) 0.5176(4) 0.8613(2)
H45_5 H 0.8750 0.4876 0.8726
C70_5 C 0.9677(2) 0.3815(4) 0.8402(2)
C71_5 C 0.9897(2) 0.3203(4) 0.8412(2)
C72_5 C 0.9263(2) 0.6586(4) 0.85572(19)
H46_5 H 0.9071 0.6535 0.8665
C75_5 C 0.8011(2) 0.5635(4) 0.8469(2)
C76_5 C 0.9924(2) 0.2143(4) 0.82563(19)
H47_5 H 0.9833 0.1829 0.8122
C78_5 C 0.9720(2) 0.2712(4) 0.8252(2)
H49_5 H 0.9479 0.2746 0.8146
C79_5 C 0.9823(2) 0.6711(4) 0.8243(2)
C80_5 C 0.9327(2) 0.3896(4) 0.8236(2)
H51_5 H 0.9214 0.3577 0.8115
C82_5 C 0.9321(2) 0.4970(4) 0.8387(2)
C83_5 C 0.9342(2) 0.6107(4) 0.8386(2)
C84_5 C 0.8757(2) 0.5567(5) 0.8410(3)
C85_5 C 0.9660(2) 0.4921(3) 0.8553(2)
H53_5 H 0.9772 0.5249 0.8668
C86_5 C 0.9149(2) 0.4438(4) 0.8249(3)
H54_5 H 0.8900 0.4459 0.8163
C87_5 C 0.8139(2) 0.6066(5) 0.8261(3)
H55_5 H 0.7987 0.6368 0.8157
C88_5 C 0.9438(2) 0.7124(4) 0.85829(19)
H56_5 H 0.9360 0.7441 0.8697
C89_5 C 0.9628(2) 0.6173(4) 0.8230(2)
H57_5 H 0.9690 0.5846 0.8114
C90_5 C 0.9847(2) 0.4322(4) 0.8546(2)
C91_5 C 0.8526(2) 0.5992(5) 0.8228(2)
H59_5 H 0.8620 0.6228 0.8086
C93_5 C 0.8257(2) 0.5247(4) 0.8638(2)
H60_5 H 0.8171 0.5011 0.8785
C94_5 C 0.6459(2) 0.5633(4) 0.8549(2)
N4_5 N 0.91354(17) 0.5544(3) 0.83868(18)
O10_3 O 0.63612(13) 0.5476(2) 0.87679(13)
O11_3 O 0.62524(13) 0.5742(3) 0.82894(12)
Zn5_3 Zn 0.57097(2) 0.52452(4) 0.47374(2)
Zn7_3 Zn 0.57344(2) 0.55406(4) 0.81796(2)
Zn9_2 Zn 0.58959(3) 0.54844(5) 0.89877(3)
Zn11_2 Zn 0.58959(3) 0.45156(5) 0.39877(3)
C6_6 C 0.5097(2) 0.3367(4) 0.4724(2)
H4_6 H 0.5184 0.3566 0.4907
C7_6 C 0.17411(18) 0.0173(4) 0.4552(2)
C9_6 C 0.45525(17) 0.1899(3) 0.4444(2)
C13_6 C 0.51475(18) 0.3593(3) 0.4464(2)
C15_6 C 0.43510(18) 0.1789(3) 0.46571(19)
H7_6 H 0.4326 0.2097 0.4797
C18_6 C 0.42057(17) 0.0792(3) 0.4464(2)
C19_6 C 0.50156(19) 0.3335(4) 0.4180(2)
H9_6 H 0.5045 0.3521 0.3999
C26_6 C 0.2250(2) 0.0518(4) 0.4296(2)
H13_6 H 0.2333 0.0719 0.4137
C28_6 C 0.49027(17) 0.2803(4) 0.47129(16)
H15_6 H 0.4865 0.2614 0.4892
C29_6 C 0.45939(17) 0.1423(3) 0.42364(19)
H16_6 H 0.4745 0.1489 0.4094
C30_6 C 0.48243(18) 0.2738(4) 0.41938(17)
H17_6 H 0.4745 0.2514 0.4016
C31_6 C 0.4771(2) 0.2539(3) 0.44394(17)
C34_6 C 0.18632(18) 0.0488(3) 0.4296(2)
H20_6 H 0.1693 0.0663 0.4139
C39_6 C 0.34193(17) 0.0689(3) 0.4354(2)
H25_6 H 0.3517 0.1023 0.4265
C41_6 C 0.53956(16) 0.4204(4) 0.4468(2)
C42_6 C 0.1327(2) 0.0177(4) 0.4524(3)
C43_6 C 0.28951(19) 0.0238(4) 0.45165(19)
C44_6 C 0.41788(17) 0.1233(3) 0.46758(19)
H27_6 H 0.4046 0.1158 0.4831
C45_6 C 0.3654(2) 0.0217(4) 0.4469(2)
C47_6 C 0.44213(17) 0.0877(3) 0.4239(2)
H29_6 H 0.4444 0.0570 0.4099
C48_6 C 0.30607(18) 0.0696(3) 0.43640(19)
H30_6 H 0.2915 0.1014 0.4267
C51_6 C 0.25088(18) 0.0253(4) 0.4529(2)
N2_6 N 0.40380(15) 0.0235(3) 0.44735(17)
O2_4 O 0.55148(14) 0.4414(2) 0.47175(11)
O4_4 O 0.11026(13) 0.0207(3) 0.42992(15)
O5_4 O 0.54375(14) 0.4365(2) 0.42057(12)
C56_6 C 0.1874(2) 0.0694(4) 0.8524(2)
C57_6 C 0.1970(2) 0.0826(4) 0.8258(2)
H37_6 H 0.1791 0.0895 0.8086
C58_6 C 0.5268(2) 0.3575(4) 0.82227(19)
H38_6 H 0.5350 0.3733 0.8053
C59_6 C 0.53353(16) 0.3909(3) 0.84930(17)
C60_6 C 0.5087(2) 0.3025(4) 0.8197(2)
H39_6 H 0.5059 0.2804 0.8016
C61_6 C 0.5013(2) 0.3115(4) 0.87180(18)
H40_6 H 0.4936 0.2961 0.8891
C62_6 C 0.2488(2) 0.0620(4) 0.8773(3)
H41_6 H 0.2654 0.0592 0.8957
C63_6 C 0.5208(2) 0.3699(4) 0.87308(17)
H42_6 H 0.5243 0.3928 0.8910
C64_6 C 0.2113(2) 0.0605(4) 0.8763(2)
H43_6 H 0.2029 0.0523 0.8943
C65_6 C 0.2349(2) 0.0859(5) 0.8241(2)
H44_6 H 0.2423 0.1001 0.8065
C66_6 C 0.49424(17) 0.2788(4) 0.84472(19)
C67_6 C 0.2613(2) 0.0680(5) 0.8491(2)
C68_6 C 0.47471(18) 0.2213(3) 0.84348(18)
C69_6 C 0.3605(2) 0.0176(4) 0.8613(2)
C72_6 C 0.4263(2) 0.1586(4) 0.85572(19)
H46_6 H 0.4071 0.1535 0.8665
C75_6 C 0.3011(2) 0.0635(4) 0.8469(2)
C79_6 C 0.4823(2) 0.1711(4) 0.8243(2)
H50_6 H 0.5007 0.1755 0.8126
C83_6 C 0.4342(2) 0.1107(4) 0.8386(2)
C84_6 C 0.3757(2) 0.0567(5) 0.8410(3)
H53_6 H 0.4772 0.0249 0.8668
C87_6 C 0.3139(2) 0.1066(5) 0.8261(3)
H55_6 H 0.2987 0.1368 0.8157
C88_6 C 0.4438(2) 0.2124(4) 0.85829(19)
H56_6 H 0.4360 0.2441 0.8697
C89_6 C 0.4628(2) 0.1173(4) 0.8230(2)
H57_6 H 0.4690 0.0846 0.8114
C91_6 C 0.3526(2) 0.0992(5) 0.8228(2)
H59_6 H 0.3620 0.1228 0.8086
C92_6 C 0.55078(19) 0.4568(4) 0.8494(2)
C93_6 C 0.3257(2) 0.0247(4) 0.8638(2)
H60_6 H 0.3171 0.0011 0.8785
C94_6 C 0.1459(2) 0.0633(4) 0.8549(2)
N4_6 N 0.41354(17) 0.0544(3) 0.83868(18)
O7_4 O 0.55836(13) 0.4732(2) 0.82255(11)
O8_4 O 0.55751(12) 0.4831(2) 0.87342(12)
C1_6 C 0.54863(18) 0.5146(4) 0.7543(2)
H1_6 H 0.5323 0.4901 0.7627
C2_6 C 0.56777(18) 0.5557(4) 0.70985(16)
C3_6 C 0.59303(17) 0.5876(4) 0.75968(19)
H2_6 H 0.6109 0.6119 0.7716
C4_6 C 0.5660(2) 0.5507(3) 0.67579(16)
C5_6 C 0.5340(2) 0.5327(4) 0.62558(19)
H3_6 H 0.5123 0.5226 0.6123
C8_6 C 0.42914(19) 0.8581(3) 0.43318(19)
H5_6 H 0.4181 0.8232 0.4233
C10_6 C 0.4234(2) 0.9669(3) 0.4465(2)
C11_6 C 0.56524(17) 0.5440(3) 0.61530(15)
C12_6 C 0.52732(16) 0.6894(3) 0.45404(16)
C14_6 C 0.54199(15) 0.5036(3) 0.56215(15)
H6_6 H 0.5260 0.4792 0.5709
C16_6 C 0.5481(2) 0.6326(3) 0.45920(18)
C17_6 C 0.48961(19) 0.6867(3) 0.44855(16)
H8_6 H 0.4775 0.6489 0.4462
C20_6 C 0.46997(17) 0.7412(3) 0.44663(17)
H10_6 H 0.4444 0.7382 0.4438
C21_6 C 0.46655(18) 0.8561(3) 0.4503(2)
C22_6 C 0.54226(17) 0.4978(3) 0.53209(16)
H11_6 H 0.5273 0.4689 0.5204
C23_6 C 0.56415(18) 0.5434(3) 0.57961(16)
C24_6 C 0.48498(17) 0.7994(3) 0.44855(19)
C25_6 C 0.4587(2) 0.9627(3) 0.4621(2)
H12_6 H 0.4691 0.9975 0.4725
C27_6 C 0.60020(19) 0.5604(4) 0.66338(16)
H14_6 H 0.6229 0.5681 0.6757
C32_6 C 0.52507(18) 0.8020(3) 0.45423(18)
H18_6 H 0.5372 0.8399 0.4561
C33_6 C 0.54625(15) 0.5089(3) 0.72304(17)
H19_6 H 0.5324 0.4785 0.7115
C35_6 C 0.4105(2) 0.9139(4) 0.43207(19)
H21_6 H 0.3869 0.9152 0.4204
C36_6 C 0.34975(19) 0.9739(4) 0.4619(2)
H22_6 H 0.3643 0.9406 0.4699
C37_6 C 0.4793(2) 0.9114(4) 0.4634(2)
H23_6 H 0.5036 0.9132 0.4738
C38_6 C 0.54480(18) 0.7479(3) 0.45673(17)
H24_6 H 0.5705 0.7497 0.4603
C40_6 C 0.59609(19) 0.5571(5) 0.63376(17)
H26_6 H 0.6168 0.5648 0.6251
C46_6 C 0.31049(18) 0.9761(4) 0.4651(2)
H28_6 H 0.3004 0.9459 0.4760
C49_6 C 0.1984(2) 0.9932(3) 0.4766(2)
H31_6 H 0.1906 0.9734 0.4928
C50_6 C 0.53511(17) 0.5365(3) 0.65680(18)
H32_6 H 0.5137 0.5289 0.6645
C52_6 C 0.2360(2) 0.9964(4) 0.4759(2)
H33_6 H 0.2522 0.9781 0.4918
C53_6 C 0.58996(18) 0.5907(5) 0.72950(18)
H34_6 H 0.6045 0.6195 0.7217
C54_6 C 0.58646(19) 0.5814(3) 0.56706(18)
H35_6 H 0.6013 0.6107 0.5786
C55_6 C 0.5860(2) 0.5746(4) 0.5371(2)
H36_6 H 0.6018 0.5997 0.5284
N1_6 N 0.57122(15) 0.5504(3) 0.77416(13)
N3_6 N 0.56552(13) 0.5363(2) 0.51910(13)
O1_6 O 0.53282(12) 0.5810(2) 0.45376(11)
O3_6 O 0.58329(13) 0.63495(19) 0.47082(11)
H45_6 H 0.3750 0.9876 0.8726
C70_6 C 0.4677(2) 0.8815(4) 0.8402(2)
C71_6 C 0.4897(2) 0.8203(4) 0.8412(2)
C73_6 C 0.5237(2) 0.7062(4) 0.8446(2)
C74_6 C 0.5477(3) 0.6447(4) 0.8442(3)
C76_6 C 0.4924(2) 0.7143(4) 0.82563(19)
H47_6 H 0.4833 0.6829 0.8122
C77_6 C 0.52323(19) 0.8103(4) 0.8618(2)
H48_6 H 0.5339 0.8426 0.8741
C78_6 C 0.4720(2) 0.7712(4) 0.8252(2)
H49_6 H 0.4479 0.7746 0.8146
C80_6 C 0.4327(2) 0.8896(4) 0.8236(2)
H51_6 H 0.4214 0.8577 0.8115
C81_6 C 0.5407(3) 0.7518(4) 0.8639(2)
H52_6 H 0.5625 0.7444 0.8776
C82_6 C 0.4321(2) 0.9970(4) 0.8387(2)
C85_6 C 0.4660(2) 0.9921(3) 0.8553(2)
C86_6 C 0.4149(2) 0.9438(4) 0.8249(3)
H54_6 H 0.3900 0.9459 0.8163
C90_6 C 0.4847(2) 0.9322(4) 0.8546(2)
H58_6 H 0.5092 0.9288 0.8644
O9_6 O 0.53602(14) 0.6145(3) 0.82250(14)
O12_6 O 0.62232(18) 0.6175(3) 0.92962(13)
O13_6 O 0.56846(14) 0.6287(2) 0.87009(13)
O15_4 O 0.61026(13) 0.4793(3) 0.92992(15)
O16_4 O 0.54375(14) 0.5635(2) 0.92057(12)
H61_6 H 0.605274 0.64717 0.936906
H62_6 H 0.637161 0.595904 0.947323
H1_7 H 0.0323 0.0099 0.2627
H6_7 H 0.0260 0.0208 0.0709
C22_7 C 0.04226(17) 0.0022(3) 0.03209(16)
H11_7 H 0.0273 0.0311 0.0204
H19_7 H 0.0324 0.0215 0.2115
O18_3 O 0.05836(13) 0.0268(2) 0.32255(11)
O19_3 O 0.05751(12) 0.0169(2) 0.37342(12)
O14_3 O 0.05148(14) 0.0586(2) 0.97175(11)
C1_7 C 0.04863(18) 0.9854(4) 0.2543(2)
C2_7 C 0.06777(18) 0.9443(4) 0.20985(16)
C3_7 C 0.09303(17) 0.9124(4) 0.25968(19)
H2_7 H 0.1109 0.8881 0.2716
C4_7 C 0.0660(2) 0.9493(3) 0.17579(16)
C5_7 C 0.0340(2) 0.9673(4) 0.12558(19)
H3_7 H 0.0123 0.9774 0.1123
C11_7 C 0.06524(17) 0.9560(3) 0.11530(15)
C14_7 C 0.04199(15) 0.9964(3) 0.06215(15)
C23_7 C 0.06415(18) 0.9566(3) 0.07961(16)
C27_7 C 0.10020(19) 0.9396(4) 0.16338(16)
H14_7 H 0.1229 0.9319 0.1757
C33_7 C 0.04625(15) 0.9911(3) 0.22304(17)
C40_7 C 0.09609(19) 0.9429(5) 0.13376(17)
H26_7 H 0.1168 0.9352 0.1251
C50_7 C 0.03511(17) 0.9635(3) 0.15680(18)
H32_7 H 0.0137 0.9711 0.1645
C53_7 C 0.08996(18) 0.9093(5) 0.22950(18)
H34_7 H 0.1045 0.8805 0.2217
C54_7 C 0.08646(19) 0.9186(3) 0.06706(18)
H35_7 H 0.1013 0.8893 0.0786
C55_7 C 0.0860(2) 0.9254(4) 0.0371(2)
H36_7 H 0.1018 0.9003 0.0284
N1_7 N 0.07122(15) 0.9496(3) 0.27416(13)
N3_7 N 0.06552(13) 0.9637(2) 0.01910(13)
C58_7 C 0.0268(2) 0.1425(4) 0.32227(19)
H38_7 H 0.0350 0.1267 0.3053
C59_7 C 0.03353(16) 0.1091(3) 0.34930(17)
C60_7 C 0.0087(2) 0.1975(4) 0.3197(2)
H39_7 H 0.0059 0.2196 0.3016
C61_7 C 0.0013(2) 0.1885(4) 0.37180(18)
C63_7 C 0.0208(2) 0.1301(4) 0.37308(17)
H42_7 H 0.0243 0.1072 0.3910
C73_7 C 0.0237(2) 0.7938(4) 0.3446(2)
C74_7 C 0.0477(3) 0.8553(4) 0.3442(3)
C77_7 C 0.02323(19) 0.6897(4) 0.3618(2)
H48_7 H 0.0339 0.6574 0.3741
H50_7 H 0.0007 0.3245 0.3126
C81_7 C 0.0407(3) 0.7482(4) 0.3639(2)
H52_7 H 0.0625 0.7556 0.3776
H58_7 H 0.0092 0.5712 0.3644
C92_7 C 0.05078(19) 0.0432(4) 0.3494(2)
O9_7 O 0.03602(14) 0.8855(3) 0.32250(14)
O12_7 O 0.12232(18) 0.8825(3) 0.42962(13)
O13_7 O 0.06846(14) 0.8713(2) 0.37009(13)
Zn2_2 Zn 0.07344(2) 0.94594(4) 0.31796(2)
O20_4 O 0.13612(13) 0.9524(2) 0.37679(13)
O21_4 O 0.12524(13) 0.9258(3) 0.32894(12)
H61_7 H 0.105274 0.85283 0.436906
H62_7 H 0.137161 0.904096 0.447323
C6_7 C 0.0097(2) 0.1633(4) 0.9724(2)
H4_7 H 0.0184 0.1434 0.9907
C12_7 C 0.02732(16) 0.8106(3) 0.95404(16)
C13_7 C 0.01475(18) 0.1407(3) 0.9464(2)
C16_7 C 0.0481(2) 0.8674(3) 0.95920(18)
C19_7 C 0.00156(19) 0.1665(4) 0.9180(2)
H9_7 H 0.0045 0.1479 0.8999
C32_7 C 0.02507(18) 0.6980(3) 0.95423(18)
H18_7 H 0.0372 0.6601 0.9561
H23_7 H 0.0036 0.5868 0.9738
C38_7 C 0.04480(18) 0.7521(3) 0.95673(17)
H24_7 H 0.0705 0.7503 0.9603
C41_7 C 0.03956(16) 0.0796(4) 0.9468(2)
O1_7 O 0.03282(12) 0.9190(2) 0.95376(11)
O3_7 O 0.08329(13) 0.86505(19) 0.97082(11)
Zn1_2 Zn 0.07097(2) 0.97548(4) 0.97374(2)
O17_4 O 0.12544(13) 0.9883(2) 0.98039(14)
C56_7 C 0.6874(2) 0.4306(4) 0.3524(2)
C57_7 C 0.6970(2) 0.4174(4) 0.3258(2)
H37_7 H 0.6791 0.4105 0.3086
H40_7 H 0.9936 0.2039 0.3891
C62_7 C 0.7488(2) 0.4380(4) 0.3773(3)
H41_7 H 0.7654 0.4408 0.3957
C64_7 C 0.7113(2) 0.4395(4) 0.3763(2)
H43_7 H 0.7029 0.4477 0.3943
C65_7 C 0.7349(2) 0.4141(5) 0.3241(2)
H44_7 H 0.7423 0.3999 0.3065
C66_7 C 0.99424(17) 0.2212(4) 0.34472(19)
C67_7 C 0.7613(2) 0.4320(5) 0.3491(2)
C68_7 C 0.97471(18) 0.2787(3) 0.34348(18)
C69_7 C 0.8605(2) 0.4824(4) 0.3613(2)
H45_7 H 0.8750 0.5124 0.3726
C70_7 C 0.9677(2) 0.6185(4) 0.3402(2)
C71_7 C 0.9897(2) 0.6797(4) 0.3412(2)
C72_7 C 0.9263(2) 0.3414(4) 0.35572(19)
H46_7 H 0.9071 0.3465 0.3665
C75_7 C 0.8011(2) 0.4365(4) 0.3469(2)
C76_7 C 0.9924(2) 0.7857(4) 0.32563(19)
H47_7 H 0.9833 0.8171 0.3122
C78_7 C 0.9720(2) 0.7288(4) 0.3252(2)
H49_7 H 0.9479 0.7254 0.3146
C79_7 C 0.9823(2) 0.3289(4) 0.3243(2)
C80_7 C 0.9327(2) 0.6104(4) 0.3236(2)
H51_7 H 0.9214 0.6423 0.3115
C82_7 C 0.9321(2) 0.5030(4) 0.3387(2)
C83_7 C 0.9342(2) 0.3893(4) 0.3386(2)
C84_7 C 0.8757(2) 0.4433(5) 0.3410(3)
C85_7 C 0.9660(2) 0.5079(3) 0.3553(2)
H53_7 H 0.9772 0.4751 0.3668
C86_7 C 0.9149(2) 0.5562(4) 0.3249(3)
H54_7 H 0.8900 0.5541 0.3163
C87_7 C 0.8139(2) 0.3934(5) 0.3261(3)
H55_7 H 0.7987 0.3632 0.3157
C88_7 C 0.9438(2) 0.2876(4) 0.35829(19)
H56_7 H 0.9360 0.2559 0.3697
C89_7 C 0.9628(2) 0.3827(4) 0.3230(2)
H57_7 H 0.9690 0.4154 0.3114
C90_7 C 0.9847(2) 0.5678(4) 0.3546(2)
C91_7 C 0.8526(2) 0.4008(5) 0.3228(2)
H59_7 H 0.8620 0.3772 0.3086
C93_7 C 0.8257(2) 0.4753(4) 0.3638(2)
H60_7 H 0.8171 0.4989 0.3785
C94_7 C 0.6459(2) 0.4367(4) 0.3549(2)
N4_7 N 0.91354(17) 0.4456(3) 0.33868(18)
O10_4 O 0.63612(13) 0.4524(2) 0.37679(13)
O11_4 O 0.62524(13) 0.4258(3) 0.32894(12)
Zn7_4 Zn 0.57344(2) 0.44594(4) 0.31796(2)
C7_7 C 0.67411(18) 0.4827(4) 0.9552(2)
C8_7 C 0.92914(19) 0.6419(3) 0.93318(19)
H5_7 H 0.9181 0.6768 0.9233
C9_7 C 0.95525(17) 0.3101(3) 0.9444(2)
C10_7 C 0.9234(2) 0.5331(3) 0.9465(2)
C15_7 C 0.93510(18) 0.3211(3) 0.96571(19)
H7_7 H 0.9326 0.2903 0.9797
C17_7 C 0.98961(19) 0.8133(3) 0.94855(16)
H8_7 H 0.9775 0.8511 0.9462
C18_7 C 0.92057(17) 0.4208(3) 0.9464(2)
C20_7 C 0.96997(17) 0.7588(3) 0.94663(17)
H10_7 H 0.9444 0.7618 0.9438
C21_7 C 0.96655(18) 0.6439(3) 0.9503(2)
C24_7 C 0.98498(17) 0.7006(3) 0.94855(19)
C25_7 C 0.9587(2) 0.5373(3) 0.9621(2)
H12_7 H 0.9691 0.5025 0.9725
C26_7 C 0.7250(2) 0.4482(4) 0.9296(2)
H13_7 H 0.7333 0.4281 0.9137
C28_7 C 0.99027(17) 0.2197(4) 0.97129(16)
H15_7 H 0.9865 0.2386 0.9892
C29_7 C 0.95939(17) 0.3577(3) 0.92364(19)
H16_7 H 0.9745 0.3511 0.9094
C30_7 C 0.98243(18) 0.2262(4) 0.91938(17)
H17_7 H 0.9745 0.2486 0.9016
C31_7 C 0.9771(2) 0.2461(3) 0.94394(17)
C34_7 C 0.68632(18) 0.4512(3) 0.9296(2)
H20_7 H 0.6693 0.4337 0.9139
C35_7 C 0.9105(2) 0.5861(4) 0.93207(19)
H21_7 H 0.8869 0.5848 0.9204
C36_7 C 0.84975(19) 0.5261(4) 0.9619(2)
H22_7 H 0.8643 0.5594 0.9699
C37_7 C 0.9793(2) 0.5886(4) 0.9634(2)
C39_7 C 0.84193(17) 0.4311(3) 0.9354(2)
H25_7 H 0.8517 0.3977 0.9265
C42_7 C 0.6327(2) 0.4823(4) 0.9524(3)
C43_7 C 0.78951(19) 0.4762(4) 0.95165(19)
C44_7 C 0.91788(17) 0.3767(3) 0.96758(19)
H27_7 H 0.9046 0.3842 0.9831
C45_7 C 0.8654(2) 0.4783(4) 0.9469(2)
C46_7 C 0.81049(18) 0.5239(4) 0.9651(2)
H28_7 H 0.8004 0.5541 0.9760
C47_7 C 0.94213(17) 0.4123(3) 0.9239(2)
H29_7 H 0.9444 0.4430 0.9099
C48_7 C 0.80607(18) 0.4304(3) 0.93640(19)
H30_7 H 0.7915 0.3986 0.9267
C49_7 C 0.6984(2) 0.5068(3) 0.9766(2)
H31_7 H 0.6906 0.5266 0.9928
C51_7 C 0.75088(18) 0.4747(4) 0.9529(2)
C52_7 C 0.7360(2) 0.5036(4) 0.9759(2)
H33_7 H 0.7522 0.5219 0.9918
N2_7 N 0.90380(15) 0.4765(3) 0.94735(17)
O6_4 O 0.62544(13) 0.4883(2) 0.98039(14)
Zn5_4 Zn 0.57097(2) 0.47548(4) 0.97374(2)
C1_8 C 0.54863(18) 0.4854(4) 0.2543(2)
H1_8 H 0.5323 0.5099 0.2627
C2_8 C 0.56777(18) 0.4443(4) 0.20985(16)
C3_8 C 0.59303(17) 0.4124(4) 0.25968(19)
H2_8 H 0.6109 0.3881 0.2716
C4_8 C 0.5660(2) 0.4493(3) 0.17579(16)
C5_8 C 0.5340(2) 0.4673(4) 0.12558(19)
H3_8 H 0.5123 0.4774 0.1123
C11_8 C 0.56524(17) 0.4560(3) 0.11530(15)
C14_8 C 0.54199(15) 0.4964(3) 0.06215(15)
H6_8 H 0.5260 0.5208 0.0709
C22_8 C 0.54226(17) 0.5022(3) 0.03209(16)
H11_8 H 0.5273 0.5311 0.0204
C23_8 C 0.56415(18) 0.4566(3) 0.07961(16)
C27_8 C 0.60020(19) 0.4396(4) 0.16338(16)
H14_8 H 0.6229 0.4319 0.1757
C33_8 C 0.54625(15) 0.4911(3) 0.22304(17)
H19_8 H 0.5324 0.5215 0.2115
C40_8 C 0.59609(19) 0.4429(5) 0.13376(17)
H26_8 H 0.6168 0.4352 0.1251
C50_8 C 0.53511(17) 0.4635(3) 0.15680(18)
H32_8 H 0.5137 0.4711 0.1645
C53_8 C 0.58996(18) 0.4093(5) 0.22950(18)
H34_8 H 0.6045 0.3805 0.2217
C54_8 C 0.58646(19) 0.4186(3) 0.06706(18)
H35_8 H 0.6013 0.3893 0.0786
C55_8 C 0.5860(2) 0.4254(4) 0.0371(2)
H36_8 H 0.6018 0.4003 0.0284
N1_8 N 0.57122(15) 0.4496(3) 0.27416(13)
N3_8 N 0.56552(13) 0.4637(2) 0.01910(13)
H45_8 H 0.3750 0.0124 0.3726
C70_8 C 0.4677(2) 0.1185(4) 0.3402(2)
C71_8 C 0.4897(2) 0.1797(4) 0.3412(2)
C73_8 C 0.5237(2) 0.2938(4) 0.3446(2)
C74_8 C 0.5477(3) 0.3553(4) 0.3442(3)
C76_8 C 0.4924(2) 0.2857(4) 0.32563(19)
H47_8 H 0.4833 0.3171 0.3122
C77_8 C 0.52323(19) 0.1897(4) 0.3618(2)
H48_8 H 0.5339 0.1574 0.3741
C78_8 C 0.4720(2) 0.2288(4) 0.3252(2)
H49_8 H 0.4479 0.2254 0.3146
C80_8 C 0.4327(2) 0.1104(4) 0.3236(2)
H51_8 H 0.4214 0.1423 0.3115
C81_8 C 0.5407(3) 0.2482(4) 0.3639(2)
H52_8 H 0.5625 0.2556 0.3776
C82_8 C 0.4321(2) 0.0030(4) 0.3387(2)
C85_8 C 0.4660(2) 0.0079(3) 0.3553(2)
C86_8 C 0.4149(2) 0.0562(4) 0.3249(3)
H54_8 H 0.3900 0.0541 0.3163
C90_8 C 0.4847(2) 0.0678(4) 0.3546(2)
H58_8 H 0.5092 0.0712 0.3644
O9_8 O 0.53602(14) 0.3855(3) 0.32250(14)
O12_8 O 0.62232(18) 0.3825(3) 0.42962(13)
O13_8 O 0.56846(14) 0.3713(2) 0.37009(13)
O18_4 O 0.55836(13) 0.5268(2) 0.32255(11)
O19_4 O 0.55751(12) 0.5169(2) 0.37342(12)
H61_8 H 0.605274 0.35283 0.436906
H62_8 H 0.637161 0.404096 0.447323
C8_8 C 0.42914(19) 0.1419(3) 0.93318(19)
H5_8 H 0.4181 0.1768 0.9233
C10_8 C 0.4234(2) 0.0331(3) 0.9465(2)
C12_8 C 0.52732(16) 0.3106(3) 0.95404(16)
C16_8 C 0.5481(2) 0.3674(3) 0.95920(18)
C17_8 C 0.48961(19) 0.3133(3) 0.94855(16)
H8_8 H 0.4775 0.3511 0.9462
C20_8 C 0.46997(17) 0.2588(3) 0.94663(17)
H10_8 H 0.4444 0.2618 0.9438
C21_8 C 0.46655(18) 0.1439(3) 0.9503(2)
C24_8 C 0.48498(17) 0.2006(3) 0.94855(19)
C25_8 C 0.4587(2) 0.0373(3) 0.9621(2)
H12_8 H 0.4691 0.0025 0.9725
C32_8 C 0.52507(18) 0.1980(3) 0.95423(18)
H18_8 H 0.5372 0.1601 0.9561
C35_8 C 0.4105(2) 0.0861(4) 0.93207(19)
H21_8 H 0.3869 0.0848 0.9204
C36_8 C 0.34975(19) 0.0261(4) 0.9619(2)
H22_8 H 0.3643 0.0594 0.9699
C37_8 C 0.4793(2) 0.0886(4) 0.9634(2)
H23_8 H 0.5036 0.0868 0.9738
C38_8 C 0.54480(18) 0.2521(3) 0.95673(17)
H24_8 H 0.5705 0.2503 0.9603
C46_8 C 0.31049(18) 0.0239(4) 0.9651(2)
H28_8 H 0.3004 0.0541 0.9760
C49_8 C 0.1984(2) 0.0068(3) 0.9766(2)
H31_8 H 0.1906 0.0266 0.9928
C52_8 C 0.2360(2) 0.0036(4) 0.9759(2)
H33_8 H 0.2522 0.0219 0.9918
O1_8 O 0.53282(12) 0.4190(2) 0.95376(11)
O3_8 O 0.58329(13) 0.36505(19) 0.97082(11)
O14_4 O 0.55148(14) 0.5586(2) 0.97175(11)
C56_8 C 0.1874(2) 0.9306(4) 0.3524(2)
C57_8 C 0.1970(2) 0.9174(4) 0.3258(2)
H37_8 H 0.1791 0.9105 0.3086
C58_8 C 0.5268(2) 0.6425(4) 0.32227(19)
H38_8 H 0.5350 0.6267 0.3053
C59_8 C 0.53353(16) 0.6091(3) 0.34930(17)
C60_8 C 0.5087(2) 0.6975(4) 0.3197(2)
H39_8 H 0.5059 0.7196 0.3016
C61_8 C 0.5013(2) 0.6885(4) 0.37180(18)
H40_8 H 0.4936 0.7039 0.3891
C62_8 C 0.2488(2) 0.9380(4) 0.3773(3)
H41_8 H 0.2654 0.9408 0.3957
C63_8 C 0.5208(2) 0.6301(4) 0.37308(17)
H42_8 H 0.5243 0.6072 0.3910
C64_8 C 0.2113(2) 0.9395(4) 0.3763(2)
H43_8 H 0.2029 0.9477 0.3943
C65_8 C 0.2349(2) 0.9141(5) 0.3241(2)
H44_8 H 0.2423 0.8999 0.3065
C66_8 C 0.49424(17) 0.7212(4) 0.34472(19)
C67_8 C 0.2613(2) 0.9320(5) 0.3491(2)
C68_8 C 0.47471(18) 0.7787(3) 0.34348(18)
C69_8 C 0.3605(2) 0.9824(4) 0.3613(2)
C72_8 C 0.4263(2) 0.8414(4) 0.35572(19)
H46_8 H 0.4071 0.8465 0.3665
C75_8 C 0.3011(2) 0.9365(4) 0.3469(2)
C79_8 C 0.4823(2) 0.8289(4) 0.3243(2)
H50_8 H 0.5007 0.8245 0.3126
C83_8 C 0.4342(2) 0.8893(4) 0.3386(2)
C84_8 C 0.3757(2) 0.9433(5) 0.3410(3)
H53_8 H 0.4772 0.9751 0.3668
C87_8 C 0.3139(2) 0.8934(5) 0.3261(3)
H55_8 H 0.2987 0.8632 0.3157
C88_8 C 0.4438(2) 0.7876(4) 0.35829(19)
H56_8 H 0.4360 0.7559 0.3697
C89_8 C 0.4628(2) 0.8827(4) 0.3230(2)
H57_8 H 0.4690 0.9154 0.3114
C91_8 C 0.3526(2) 0.9008(5) 0.3228(2)
H59_8 H 0.3620 0.8772 0.3086
C92_8 C 0.55078(19) 0.5432(4) 0.3494(2)
C93_8 C 0.3257(2) 0.9753(4) 0.3638(2)
H60_8 H 0.3171 0.9989 0.3785
C94_8 C 0.1459(2) 0.9367(4) 0.3549(2)
N4_8 N 0.41354(17) 0.9456(3) 0.33868(18)
C6_8 C 0.5097(2) 0.6633(4) 0.9724(2)
H4_8 H 0.5184 0.6434 0.9907
C7_8 C 0.17411(18) 0.9827(4) 0.9552(2)
C9_8 C 0.45525(17) 0.8101(3) 0.9444(2)
C13_8 C 0.51475(18) 0.6407(3) 0.9464(2)
C15_8 C 0.43510(18) 0.8211(3) 0.96571(19)
H7_8 H 0.4326 0.7903 0.9797
C18_8 C 0.42057(17) 0.9208(3) 0.9464(2)
C19_8 C 0.50156(19) 0.6665(4) 0.9180(2)
H9_8 H 0.5045 0.6479 0.8999
C26_8 C 0.2250(2) 0.9482(4) 0.9296(2)
H13_8 H 0.2333 0.9281 0.9137
C28_8 C 0.49027(17) 0.7197(4) 0.97129(16)
H15_8 H 0.4865 0.7386 0.9892
C29_8 C 0.45939(17) 0.8577(3) 0.92364(19)
H16_8 H 0.4745 0.8511 0.9094
C30_8 C 0.48243(18) 0.7262(4) 0.91938(17)
H17_8 H 0.4745 0.7486 0.9016
C31_8 C 0.4771(2) 0.7461(3) 0.94394(17)
C34_8 C 0.18632(18) 0.9512(3) 0.9296(2)
H20_8 H 0.1693 0.9337 0.9139
C39_8 C 0.34193(17) 0.9311(3) 0.9354(2)
H25_8 H 0.3517 0.8977 0.9265
C41_8 C 0.53956(16) 0.5796(4) 0.9468(2)
C42_8 C 0.1327(2) 0.9823(4) 0.9524(3)
C43_8 C 0.28951(19) 0.9762(4) 0.95165(19)
C44_8 C 0.41788(17) 0.8767(3) 0.96758(19)
H27_8 H 0.4046 0.8842 0.9831
C45_8 C 0.3654(2) 0.9783(4) 0.9469(2)
C47_8 C 0.44213(17) 0.9123(3) 0.9239(2)
H29_8 H 0.4444 0.9430 0.9099
C48_8 C 0.30607(18) 0.9304(3) 0.93640(19)
H30_8 H 0.2915 0.8986 0.9267
C51_8 C 0.25088(18) 0.9747(4) 0.9529(2)
N2_8 N 0.40380(15) 0.9765(3) 0.94735(17)
loop_
_geom_bond_atom_site_label_1
_geom_bond_atom_site_label_2
_geom_bond_site_symmetry_1
_geom_bond_site_symmetry_2
C7 C34 1_555 1_555
C8 H5 1_555 1_555
C9 C15 1_555 1_555
C10 C25 1_555 1_555
C15 H7 1_555 1_555
H8 C17 1_555 1_555
C18 C44 1_555 1_555
C20 C17 1_555 1_555
H10 C20 1_555 1_555
C21 C8 1_555 1_555
C24 C20 1_555 1_555
C25 H12 1_555 1_555
C26 H13 1_555 1_555
H15 C28 1_555 1_555
C29 C9 1_555 1_555
H16 C29 1_555 1_555
H17 C30 1_555 1_555
C31 C9 1_555 1_555
C34 C26 1_555 1_555
H20 C34 1_555 1_555
C35 C8 1_555 1_555
H21 C35 1_555 1_555
C36 H22 1_555 1_555
C37 C21 1_555 1_555
C39 H25 1_555 1_555
C42 C7 1_555 1_555
C43 C46 1_555 1_555
C44 C15 1_555 1_555
H27 C44 1_555 1_555
C45 C36 1_555 1_555
C46 C36 1_555 1_555
H28 C46 1_555 1_555
C47 C18 1_555 1_555
H29 C47 1_555 1_555
C48 C39 1_555 1_555
H30 C48 1_555 1_555
C49 C7 1_555 1_555
H31 C49 1_555 1_555
C51 C26 1_555 1_555
C52 C49 1_555 1_555
H33 C52 1_555 1_555
N2 C10 1_555 1_555
O4 C42 1_555 1_555
O6 C42 1_555 1_555
Zn5 O6 1_555 1_555
Zn11 O4 1_555 1_555
C10 C35 1_555 1_555
C18 N2 1_555 1_555
C21 C24 1_555 1_555
C25 C37 1_555 1_555
C28 C31 1_555 1_555
C29 C47 1_555 1_555
C30 C31 1_555 1_555
C39 C45 1_555 1_555
C43 C48 1_555 1_555
C43 C51 1_555 1_555
C45 N2 1_555 1_555
C51 C52 1_555 1_555
C56 C57 1_555 1_555
C57 H37 1_555 1_555
C62 H41 1_555 1_555
C64 C56 1_555 1_555
H43 C64 1_555 1_555
C65 C57 1_555 1_555
H44 C65 1_555 1_555
C67 C62 1_555 1_555
C68 C66 1_555 1_555
C69 H45 1_555 1_555
C70 C71 1_555 1_555
C72 H46 1_555 1_555
C75 C67 1_555 1_555
H47 C76 1_555 1_555
C78 C71 1_555 1_555
H49 C78 1_555 1_555
C79 C68 1_555 1_555
C80 C70 1_555 1_555
H51 C80 1_555 1_555
C82 C85 1_555 1_555
C83 C72 1_555 1_555
C84 C69 1_555 1_555
C85 H53 1_555 1_555
C86 C80 1_555 1_555
H54 C86 1_555 1_555
C87 C75 1_555 1_555
H55 C87 1_555 1_555
C88 C68 1_555 1_555
H56 C88 1_555 1_555
C89 C79 1_555 1_555
H57 C89 1_555 1_555
C90 C70 1_555 1_555
C91 C84 1_555 1_555
H59 C91 1_555 1_555
C93 C69 1_555 1_555
H60 C93 1_555 1_555
C94 C56 1_555 1_555
N4 C82 1_555 1_555
O10 C94 1_555 1_555
O11 C94 1_555 1_555
Zn7 O11 1_555 1_555
Zn9 O10 1_555 1_555
C62 C64 1_555 1_555
C65 C67 1_555 1_555
C72 C88 1_555 1_555
C75 C93 1_555 1_555
C76 C78 1_555 1_555
C82 C86 1_555 1_555
C83 C89 1_555 1_555
C83 N4 1_555 1_555
C84 N4 1_555 1_555
C85 C90 1_555 1_555
C87 C91 1_555 1_555
C6 H4 1_555 1_555
C12 C16 1_555 1_555
C13 C6 1_555 1_555
C16 O1 1_555 1_555
C19 C13 1_555 1_555
H9 C19 1_555 1_555
H18 C32 1_555 1_555
C38 C12 1_555 1_555
H24 C38 1_555 1_555
C41 C13 1_555 1_555
O1 Zn4 1_555 1_555
O2 C41 1_555 1_555
O3 C16 1_555 1_555
O5 C41 1_555 1_555
O17 Zn4 1_555 1_555
Zn10 O5 1_555 1_555
C32 C38 1_555 1_555
O3 Zn4 1_555 1_555
C2 C4 1_555 1_555
C3 H2 1_555 1_555
C4 C27 1_555 1_555
C5 H3 1_555 1_555
C11 C5 1_555 1_555
C23 C11 1_555 1_555
C27 H14 1_555 1_555
C33 C1 1_555 1_555
C40 C11 1_555 1_555
H26 C40 1_555 1_555
C50 C4 1_555 1_555
H32 C50 1_555 1_555
C53 C2 1_555 1_555
H34 C53 1_555 1_555
C54 C23 1_555 1_555
H35 C54 1_555 1_555
C55 C54 1_555 1_555
H36 C55 1_555 1_555
N1 C1 1_555 1_555
C58 H38 1_555 1_555
C59 C58 1_555 1_555
C60 C58 1_555 1_555
H39 C60 1_555 1_555
C63 C59 1_555 1_555
H42 C63 1_555 1_555
C73 C74 1_555 1_555
C74 O9 1_555 1_555
C77 H48 1_555 1_555
C81 C73 1_555 1_555
H52 C81 1_555 1_555
C92 C59 1_555 1_555
O7 C92 1_555 1_555
O8 C92 1_555 1_555
O9 Zn6 1_555 1_555
O12 Zn8 1_555 1_555
O13 C74 1_555 1_555
Zn6 N1 1_555 1_555
Zn8 O13 1_555 1_555
O16 Zn8 1_555 1_555
O20 Zn8 1_555 1_555
O21 Zn6 1_555 1_555
C2 C33 1_555 1_555
C3 C53 1_555 1_555
C3 N1 1_555 1_555
C5 C50 1_555 1_555
C14 C23 1_555 1_555
C27 C40 1_555 1_555
C55 N3 1_555 1_555
C61 C63 1_555 1_555
C77 C81 1_555 1_555
O12 H61 1_555 1_555
O12 H62 1_555 1_555
H11 C22 1_555 1_555
C6_2 H4_2 1_555 1_555
C7_2 C34_2 1_555 1_555
C9_2 C15_2 1_555 1_555
C13_2 C6_2 1_555 1_555
C15_2 H7_2 1_555 1_555
C18_2 C44_2 1_555 1_555
C19_2 C13_2 1_555 1_555
H9_2 C19_2 1_555 1_555
C26_2 H13_2 1_555 1_555
C28_2 C6_2 1_555 1_555
H15_2 C28_2 1_555 1_555
C29_2 C9_2 1_555 1_555
H16_2 C29_2 1_555 1_555
C30_2 C19_2 1_555 1_555
H17_2 C30_2 1_555 1_555
C31_2 C9_2 1_555 1_555
C34_2 C26_2 1_555 1_555
H20_2 C34_2 1_555 1_555
C39_2 H25_2 1_555 1_555
C41_2 C13_2 1_555 1_555
C42_2 C7_2 1_555 1_555
C44_2 C15_2 1_555 1_555
H27_2 C44_2 1_555 1_555
C47_2 C18_2 1_555 1_555
H29_2 C47_2 1_555 1_555
C48_2 C39_2 1_555 1_555
H30_2 C48_2 1_555 1_555
C51_2 C26_2 1_555 1_555
O2_2 C41_2 1_555 1_555
O4_2 C42_2 1_555 1_555
O5_2 C41_2 1_555 1_555
O17 C42_2 1_555 1_555
Zn5 O2_2 1_555 1_555
Zn11 O5_2 1_555 1_555
C18_2 N2_2 1_555 1_555
C28_2 C31_2 1_555 1_555
C29_2 C47_2 1_555 1_555
C30_2 C31_2 1_555 1_555
C39_2 C45_2 1_555 1_555
C43_2 C48_2 1_555 1_555
C43_2 C51_2 1_555 1_555
C45_2 N2_2 1_555 1_555
C56_2 C57_2 1_555 1_555
C57_2 H37_2 1_555 1_555
C58_2 H38_2 1_555 1_555
C59_2 C58_2 1_555 1_555
C60_2 C58_2 1_555 1_555
H39_2 C60_2 1_555 1_555
C61_2 H40_2 1_555 1_555
C62_2 H41_2 1_555 1_555
C63_2 C59_2 1_555 1_555
H42_2 C63_2 1_555 1_555
C64_2 C56_2 1_555 1_555
H43_2 C64_2 1_555 1_555
C65_2 C57_2 1_555 1_555
H44_2 C65_2 1_555 1_555
C66_2 C60_2 1_555 1_555
C67_2 C62_2 1_555 1_555
C68_2 C66_2 1_555 1_555
C72_2 H46_2 1_555 1_555
C75_2 C67_2 1_555 1_555
C79_2 C68_2 1_555 1_555
H50_2 C79_2 1_555 1_555
C83_2 C72_2 1_555 1_555
C84_2 C69_2 1_555 1_555
C87_2 C75_2 1_555 1_555
H55_2 C87_2 1_555 1_555
C88_2 C68_2 1_555 1_555
H56_2 C88_2 1_555 1_555
C89_2 C79_2 1_555 1_555
H57_2 C89_2 1_555 1_555
C91_2 C84_2 1_555 1_555
H59_2 C91_2 1_555 1_555
C92_2 C59_2 1_555 1_555
C93_2 C69_2 1_555 1_555
H60_2 C93_2 1_555 1_555
C94_2 C56_2 1_555 1_555
O7_2 C92_2 1_555 1_555
O8_2 C92_2 1_555 1_555
O20 C94_2 1_555 1_555
O21 C94_2 1_555 1_555
Zn7 O7_2 1_555 1_555
Zn9 O8_2 1_555 1_555
C61_2 C63_2 1_555 1_555
C61_2 C66_2 1_555 1_555
C62_2 C64_2 1_555 1_555
C65_2 C67_2 1_555 1_555
C72_2 C88_2 1_555 1_555
C75_2 C93_2 1_555 1_555
C83_2 C89_2 1_555 1_555
C83_2 N4_2 1_555 1_555
C84_2 N4_2 1_555 1_555
C87_2 C91_2 1_555 1_555
C8_2 H5_2 1_555 1_555
C10_2 C25_2 1_555 1_555
C12_2 C16_2 1_555 1_555
C16_2 O1_2 1_555 1_555
C17_2 C12_2 1_555 1_555
H8_2 C17_2 1_555 1_555
C20_2 C17_2 1_555 1_555
H10_2 C20_2 1_555 1_555
C21_2 C8_2 1_555 1_555
C24_2 C20_2 1_555 1_555
C25_2 H12_2 1_555 1_555
C32_2 C24_2 1_555 1_555
H18_2 C32_2 1_555 1_555
C35_2 C8_2 1_555 1_555
H21_2 C35_2 1_555 1_555
C36_2 H22_2 1_555 1_555
C37_2 C21_2 1_555 1_555
H23_2 C37_2 1_555 1_555
C38_2 C12_2 1_555 1_555
H24_2 C38_2 1_555 1_555
C46_2 C36_2 1_555 1_555
H28_2 C46_2 1_555 1_555
H31_2 C49_2 1_555 1_555
C52_2 C49_2 1_555 1_555
H33_2 C52_2 1_555 1_555
O1_2 Zn5 1_555 1_555
O3_2 C16_2 1_555 1_555
C10_2 C35_2 1_555 1_555
C21_2 C24_2 1_555 1_555
C25_2 C37_2 1_555 1_555
C32_2 C38_2 1_555 1_555
O3_2 Zn5 1_555 1_555
C1_2 H1_2 1_555 1_555
C2_2 C4_2 1_555 1_555
C3_2 H2_2 1_555 1_555
C4_2 C27_2 1_555 1_555
C5_2 H3_2 1_555 1_555
C11_2 C5_2 1_555 1_555
C14_2 H6_2 1_555 1_555
C22_2 C14_2 1_555 1_555
H11_2 C22_2 1_555 1_555
C23_2 C11_2 1_555 1_555
C27_2 H14_2 1_555 1_555
C33_2 C1_2 1_555 1_555
H19_2 C33_2 1_555 1_555
C40_2 C11_2 1_555 1_555
H26_2 C40_2 1_555 1_555
C50_2 C4_2 1_555 1_555
H32_2 C50_2 1_555 1_555
C53_2 C2_2 1_555 1_555
H34_2 C53_2 1_555 1_555
C54_2 C23_2 1_555 1_555
H35_2 C54_2 1_555 1_555
C55_2 C54_2 1_555 1_555
H36_2 C55_2 1_555 1_555
N1_2 C1_2 1_555 1_555
N3_2 C22_2 1_555 1_555
C70_2 C71_2 1_555 1_555
C71_2 C77_2 1_555 1_555
C73_2 C74_2 1_555 1_555
C74_2 O9_2 1_555 1_555
C76_2 C73_2 1_555 1_555
H47_2 C76_2 1_555 1_555
C77_2 H48_2 1_555 1_555
C78_2 C71_2 1_555 1_555
H49_2 C78_2 1_555 1_555
C80_2 C70_2 1_555 1_555
H51_2 C80_2 1_555 1_555
C81_2 C73_2 1_555 1_555
H52_2 C81_2 1_555 1_555
C82_2 C85_2 1_555 1_555
C86_2 C80_2 1_555 1_555
H54_2 C86_2 1_555 1_555
C90_2 C70_2 1_555 1_555
H58_2 C90_2 1_555 1_555
O9_2 Zn7 1_555 1_555
O12_2 Zn9 1_555 1_555
O13_2 C74_2 1_555 1_555
Zn7 N1_2 1_555 1_555
Zn9 O13_2 1_555 1_555
O15_2 Zn9 1_555 1_555
O16_2 Zn9 1_555 1_555
C2_2 C33_2 1_555 1_555
C3_2 C53_2 1_555 1_555
C3_2 N1_2 1_555 1_555
C5_2 C50_2 1_555 1_555
C14_2 C23_2 1_555 1_555
C27_2 C40_2 1_555 1_555
C55_2 N3_2 1_555 1_555
C76_2 C78_2 1_555 1_555
C77_2 C81_2 1_555 1_555
C82_2 C86_2 1_555 1_555
C85_2 C90_2 1_555 1_555
O12_2 H61_2 1_555 1_555
O12_2 H62_2 1_555 1_555
C7_3 C34_3 1_555 1_555
C8_3 H5_3 1_555 1_555
C9_3 C15_3 1_555 1_555
C10_3 C25_3 1_555 1_555
C15_3 H7_3 1_555 1_555
H8_3 C17_3 1_555 1_555
C18_3 C44_3 1_555 1_555
C20_3 C17_3 1_555 1_555
H10_3 C20_3 1_555 1_555
C21_3 C8_3 1_555 1_555
C24_3 C20_3 1_555 1_555
C25_3 H12_3 1_555 1_555
C26_3 H13_3 1_555 1_555
H15_3 C28_3 1_555 1_555
C29_3 C9_3 1_555 1_555
H16_3 C29_3 1_555 1_555
H17_3 C30_3 1_555 1_555
C31_3 C9_3 1_555 1_555
C34_3 C26_3 1_555 1_555
H20_3 C34_3 1_555 1_555
C35_3 C8_3 1_555 1_555
H21_3 C35_3 1_555 1_555
C36_3 H22_3 1_555 1_555
C37_3 C21_3 1_555 1_555
C39_3 H25_3 1_555 1_555
C42_3 C7_3 1_555 1_555
C43_3 C46_3 1_555 1_555
C44_3 C15_3 1_555 1_555
H27_3 C44_3 1_555 1_555
C45_3 C36_3 1_555 1_555
C46_3 C36_3 1_555 1_555
H28_3 C46_3 1_555 1_555
C47_3 C18_3 1_555 1_555
H29_3 C47_3 1_555 1_555
C48_3 C39_3 1_555 1_555
H30_3 C48_3 1_555 1_555
C49_3 C7_3 1_555 1_555
H31_3 C49_3 1_555 1_555
C51_3 C26_3 1_555 1_555
C52_3 C49_3 1_555 1_555
H33_3 C52_3 1_555 1_555
N2_3 C10_3 1_555 1_555
O15_2 C42_3 1_555 1_555
O6_2 C42_3 1_555 1_555
C56_3 C57_3 1_555 1_555
C57_3 H37_3 1_555 1_555
C62_3 H41_3 1_555 1_555
C64_3 C56_3 1_555 1_555
H43_3 C64_3 1_555 1_555
C65_3 C57_3 1_555 1_555
H44_3 C65_3 1_555 1_555
C67_3 C62_3 1_555 1_555
C68_3 C66_3 1_555 1_555
C69_3 H45_3 1_555 1_555
C70_3 C71_3 1_555 1_555
C72_3 H46_3 1_555 1_555
C75_3 C67_3 1_555 1_555
H47_3 C76_3 1_555 1_555
C78_3 C71_3 1_555 1_555
H49_3 C78_3 1_555 1_555
C79_3 C68_3 1_555 1_555
C80_3 C70_3 1_555 1_555
H51_3 C80_3 1_555 1_555
C82_3 C85_3 1_555 1_555
C83_3 C72_3 1_555 1_555
C84_3 C69_3 1_555 1_555
C85_3 H53_3 1_555 1_555
C86_3 C80_3 1_555 1_555
H54_3 C86_3 1_555 1_555
C87_3 C75_3 1_555 1_555
H55_3 C87_3 1_555 1_555
C88_3 C68_3 1_555 1_555
H56_3 C88_3 1_555 1_555
C89_3 C79_3 1_555 1_555
H57_3 C89_3 1_555 1_555
C90_3 C70_3 1_555 1_555
C91_3 C84_3 1_555 1_555
H59_3 C91_3 1_555 1_555
C93_3 C69_3 1_555 1_555
H60_3 C93_3 1_555 1_555
C94_3 C56_3 1_555 1_555
N4_3 C82_3 1_555 1_555
O10_2 C94_3 1_555 1_555
O11_2 C94_3 1_555 1_555
Zn5_2 O6_2 1_555 1_555
Zn7_2 O11_2 1_555 1_555
Zn11 O10_2 1_555 1_555
C10_3 C35_3 1_555 1_555
C18_3 N2_3 1_555 1_555
C21_3 C24_3 1_555 1_555
C25_3 C37_3 1_555 1_555
C28_3 C31_3 1_555 1_555
C29_3 C47_3 1_555 1_555
C30_3 C31_3 1_555 1_555
C39_3 C45_3 1_555 1_555
C43_3 C48_3 1_555 1_555
C43_3 C51_3 1_555 1_555
C45_3 N2_3 1_555 1_555
C51_3 C52_3 1_555 1_555
C62_3 C64_3 1_555 1_555
C65_3 C67_3 1_555 1_555
C72_3 C88_3 1_555 1_555
C75_3 C93_3 1_555 1_555
C76_3 C78_3 1_555 1_555
C82_3 C86_3 1_555 1_555
C83_3 C89_3 1_555 1_555
C83_3 N4_3 1_555 1_555
C84_3 N4_3 1_555 1_555
C85_3 C90_3 1_555 1_555
C87_3 C91_3 1_555 1_555
H11_3 C22_3 1_555 1_555
C2_3 C4_3 1_555 1_555
C3_3 H2_3 1_555 1_555
C4_3 C27_3 1_555 1_555
C5_3 H3_3 1_555 1_555
C6_3 H4_3 1_555 1_555
C11_3 C5_3 1_555 1_555
C12_3 C16_3 1_555 1_555
C13_3 C6_3 1_555 1_555
C16_3 O1_3 1_555 1_555
C19_3 C13_3 1_555 1_555
H9_3 C19_3 1_555 1_555
C23_3 C11_3 1_555 1_555
C27_3 H14_3 1_555 1_555
H18_3 C32_3 1_555 1_555
C33_3 C1_3 1_555 1_555
C38_3 C12_3 1_555 1_555
H24_3 C38_3 1_555 1_555
C40_3 C11_3 1_555 1_555
H26_3 C40_3 1_555 1_555
C41_3 C13_3 1_555 1_555
C50_3 C4_3 1_555 1_555
H32_3 C50_3 1_555 1_555
C53_3 C2_3 1_555 1_555
H34_3 C53_3 1_555 1_555
C54_3 C23_3 1_555 1_555
H35_3 C54_3 1_555 1_555
C55_3 C54_3 1_555 1_555
H36_3 C55_3 1_555 1_555
N1_3 C1_3 1_555 1_555
O1_3 Zn1 1_555 1_555
O14 C41_3 1_555 1_555
O3_3 C16_3 1_555 1_555
O16 C41_3 1_555 1_555
Zn1 N3_3 1_555 1_555
C58_3 H38_3 1_555 1_555
C59_3 C58_3 1_555 1_555
C60_3 C58_3 1_555 1_555
H39_3 C60_3 1_555 1_555
C63_3 C59_3 1_555 1_555
H42_3 C63_3 1_555 1_555
C73_3 C74_3 1_555 1_555
C74_3 O9_3 1_555 1_555
C77_3 H48_3 1_555 1_555
C81_3 C73_3 1_555 1_555
H52_3 C81_3 1_555 1_555
C92_3 C59_3 1_555 1_555
O18 C92_3 1_555 1_555
O19 C92_3 1_555 1_555
O9_3 Zn2 1_555 1_555
O12_3 Zn10 1_555 1_555
O13_3 C74_3 1_555 1_555
Zn2 N1_3 1_555 1_555
Zn10 O13_3 1_555 1_555
O17_2 Zn1 1_555 1_555
O20_2 Zn10 1_555 1_555
O21_2 Zn2 1_555 1_555
C2_3 C33_3 1_555 1_555
C3_3 C53_3 1_555 1_555
C3_3 N1_3 1_555 1_555
C5_3 C50_3 1_555 1_555
C14_3 C23_3 1_555 1_555
C27_3 C40_3 1_555 1_555
C32_3 C38_3 1_555 1_555
C55_3 N3_3 1_555 1_555
O3_3 Zn1 1_555 1_555
C61_3 C63_3 1_555 1_555
C77_3 C81_3 1_555 1_555
O12_3 H61_3 1_555 1_555
O12_3 H62_3 1_555 1_555
C1_4 H1_4 1_555 1_555
C2_4 C4_4 1_555 1_555
C3_4 H2_4 1_555 1_555
C4_4 C27_4 1_555 1_555
C5_4 H3_4 1_555 1_555
C8_4 H5_4 1_555 1_555
C10_4 C25_4 1_555 1_555
C11_4 C5_4 1_555 1_555
C12_4 C16_4 1_555 1_555
C14_4 H6_4 1_555 1_555
C16_4 O1_4 1_555 1_555
C17_4 C12_4 1_555 1_555
H8_4 C17_4 1_555 1_555
C20_4 C17_4 1_555 1_555
H10_4 C20_4 1_555 1_555
C21_4 C8_4 1_555 1_555
C22_4 C14_4 1_555 1_555
H11_4 C22_4 1_555 1_555
C23_4 C11_4 1_555 1_555
C24_4 C20_4 1_555 1_555
C25_4 H12_4 1_555 1_555
C27_4 H14_4 1_555 1_555
C32_4 C24_4 1_555 1_555
H18_4 C32_4 1_555 1_555
C33_4 C1_4 1_555 1_555
H19_4 C33_4 1_555 1_555
C35_4 C8_4 1_555 1_555
H21_4 C35_4 1_555 1_555
C36_4 H22_4 1_555 1_555
C37_4 C21_4 1_555 1_555
H23_4 C37_4 1_555 1_555
C38_4 C12_4 1_555 1_555
H24_4 C38_4 1_555 1_555
C40_4 C11_4 1_555 1_555
H26_4 C40_4 1_555 1_555
C46_4 C36_4 1_555 1_555
H28_4 C46_4 1_555 1_555
H31_4 C49_4 1_555 1_555
C50_4 C4_4 1_555 1_555
H32_4 C50_4 1_555 1_555
C52_4 C49_4 1_555 1_555
H33_4 C52_4 1_555 1_555
C53_4 C2_4 1_555 1_555
H34_4 C53_4 1_555 1_555
C54_4 C23_4 1_555 1_555
H35_4 C54_4 1_555 1_555
C55_4 C54_4 1_555 1_555
H36_4 C55_4 1_555 1_555
N1_4 C1_4 1_555 1_555
N3_4 C22_4 1_555 1_555
O1_4 Zn5_2 1_555 1_555
O3_4 C16_4 1_555 1_555
Zn5_2 N3_4 1_555 1_555
C70_4 C71_4 1_555 1_555
C71_4 C77_4 1_555 1_555
C73_4 C74_4 1_555 1_555
C74_4 O9_4 1_555 1_555
C76_4 C73_4 1_555 1_555
H47_4 C76_4 1_555 1_555
C77_4 H48_4 1_555 1_555
C78_4 C71_4 1_555 1_555
H49_4 C78_4 1_555 1_555
C80_4 C70_4 1_555 1_555
H51_4 C80_4 1_555 1_555
C81_4 C73_4 1_555 1_555
H52_4 C81_4 1_555 1_555
C82_4 C85_4 1_555 1_555
C86_4 C80_4 1_555 1_555
H54_4 C86_4 1_555 1_555
C90_4 C70_4 1_555 1_555
H58_4 C90_4 1_555 1_555
O9_4 Zn7_2 1_555 1_555
O12_4 Zn11 1_555 1_555
O13_4 C74_4 1_555 1_555
Zn7_2 N1_4 1_555 1_555
Zn11 O13_4 1_555 1_555
O14_2 Zn5_2 1_555 1_555
O18_2 Zn7_2 1_555 1_555
O19_2 Zn11 1_555 1_555
C2_4 C33_4 1_555 1_555
C3_4 C53_4 1_555 1_555
C3_4 N1_4 1_555 1_555
C5_4 C50_4 1_555 1_555
C10_4 C35_4 1_555 1_555
C14_4 C23_4 1_555 1_555
C21_4 C24_4 1_555 1_555
C25_4 C37_4 1_555 1_555
C27_4 C40_4 1_555 1_555
C32_4 C38_4 1_555 1_555
C55_4 N3_4 1_555 1_555
O3_4 Zn5_2 1_555 1_555
C76_4 C78_4 1_555 1_555
C77_4 C81_4 1_555 1_555
C82_4 C86_4 1_555 1_555
C85_4 C90_4 1_555 1_555
O12_4 H61_4 1_555 1_555
O12_4 H62_4 1_555 1_555
C6_4 H4_4 1_555 1_555
C7_4 C34_4 1_555 1_555
C9_4 C15_4 1_555 1_555
C13_4 C6_4 1_555 1_555
C15_4 H7_4 1_555 1_555
C18_4 C44_4 1_555 1_555
C19_4 C13_4 1_555 1_555
H9_4 C19_4 1_555 1_555
C26_4 H13_4 1_555 1_555
C28_4 C6_4 1_555 1_555
H15_4 C28_4 1_555 1_555
C29_4 C9_4 1_555 1_555
H16_4 C29_4 1_555 1_555
C30_4 C19_4 1_555 1_555
H17_4 C30_4 1_555 1_555
C31_4 C9_4 1_555 1_555
C34_4 C26_4 1_555 1_555
H20_4 C34_4 1_555 1_555
C39_4 H25_4 1_555 1_555
C41_4 C13_4 1_555 1_555
C42_4 C7_4 1_555 1_555
C44_4 C15_4 1_555 1_555
H27_4 C44_4 1_555 1_555
C47_4 C18_4 1_555 1_555
H29_4 C47_4 1_555 1_555
C48_4 C39_4 1_555 1_555
H30_4 C48_4 1_555 1_555
C51_4 C26_4 1_555 1_555
O14_2 C41_4 1_555 1_555
O15 C42_4 1_555 1_555
O16_2 C41_4 1_555 1_555
O17_2 C42_4 1_555 1_555
C56_4 C57_4 1_555 1_555
C57_4 H37_4 1_555 1_555
C58_4 H38_4 1_555 1_555
C59_4 C58_4 1_555 1_555
C60_4 C58_4 1_555 1_555
H39_4 C60_4 1_555 1_555
C61_4 H40_4 1_555 1_555
C62_4 H41_4 1_555 1_555
C63_4 C59_4 1_555 1_555
H42_4 C63_4 1_555 1_555
C64_4 C56_4 1_555 1_555
H43_4 C64_4 1_555 1_555
C65_4 C57_4 1_555 1_555
H44_4 C65_4 1_555 1_555
C66_4 C60_4 1_555 1_555
C67_4 C62_4 1_555 1_555
C68_4 C66_4 1_555 1_555
C72_4 H46_4 1_555 1_555
C75_4 C67_4 1_555 1_555
C79_4 C68_4 1_555 1_555
H50_4 C79_4 1_555 1_555
C83_4 C72_4 1_555 1_555
C84_4 C69_4 1_555 1_555
C87_4 C75_4 1_555 1_555
H55_4 C87_4 1_555 1_555
C88_4 C68_4 1_555 1_555
H56_4 C88_4 1_555 1_555
C89_4 C79_4 1_555 1_555
H57_4 C89_4 1_555 1_555
C91_4 C84_4 1_555 1_555
H59_4 C91_4 1_555 1_555
C92_4 C59_4 1_555 1_555
C93_4 C69_4 1_555 1_555
H60_4 C93_4 1_555 1_555
C94_4 C56_4 1_555 1_555
O18_2 C92_4 1_555 1_555
O19_2 C92_4 1_555 1_555
O20_2 C94_4 1_555 1_555
O21_2 C94_4 1_555 1_555
C18_4 N2_4 1_555 1_555
C28_4 C31_4 1_555 1_555
C29_4 C47_4 1_555 1_555
C30_4 C31_4 1_555 1_555
C39_4 C45_4 1_555 1_555
C43_4 C48_4 1_555 1_555
C43_4 C51_4 1_555 1_555
C45_4 N2_4 1_555 1_555
C61_4 C63_4 1_555 1_555
C61_4 C66_4 1_555 1_555
C62_4 C64_4 1_555 1_555
C65_4 C67_4 1_555 1_555
C72_4 C88_4 1_555 1_555
C75_4 C93_4 1_555 1_555
C83_4 C89_4 1_555 1_555
C83_4 N4_4 1_555 1_555
C84_4 N4_4 1_555 1_555
C87_4 C91_4 1_555 1_555
C2_5 C4_5 1_555 1_555
C3_5 H2_5 1_555 1_555
C4_5 C27_5 1_555 1_555
C5_5 H3_5 1_555 1_555
C6_5 H4_5 1_555 1_555
C11_5 C5_5 1_555 1_555
C12_5 C16_5 1_555 1_555
C13_5 C6_5 1_555 1_555
C16_5 O1_5 1_555 1_555
C19_5 C13_5 1_555 1_555
H9_5 C19_5 1_555 1_555
C23_5 C11_5 1_555 1_555
C27_5 H14_5 1_555 1_555
H18_5 C32_5 1_555 1_555
C33_5 C1_5 1_555 1_555
C38_5 C12_5 1_555 1_555
H24_5 C38_5 1_555 1_555
C40_5 C11_5 1_555 1_555
H26_5 C40_5 1_555 1_555
C41_5 C13_5 1_555 1_555
C50_5 C4_5 1_555 1_555
H32_5 C50_5 1_555 1_555
C53_5 C2_5 1_555 1_555
H34_5 C53_5 1_555 1_555
C54_5 C23_5 1_555 1_555
H35_5 C54_5 1_555 1_555
C55_5 C54_5 1_555 1_555
H36_5 C55_5 1_555 1_555
N1_5 C1_5 1_555 1_555
O1_5 Zn4_2 1_555 1_555
O2_3 C41_5 1_555 1_555
O3_5 C16_5 1_555 1_555
O5_3 C41_5 1_555 1_555
Zn4_2 N3_5 1_555 1_555
C58_5 H38_5 1_555 1_555
C59_5 C58_5 1_555 1_555
C60_5 C58_5 1_555 1_555
H39_5 C60_5 1_555 1_555
C63_5 C59_5 1_555 1_555
H42_5 C63_5 1_555 1_555
C73_5 C74_5 1_555 1_555
C74_5 O9_5 1_555 1_555
C77_5 H48_5 1_555 1_555
C81_5 C73_5 1_555 1_555
H52_5 C81_5 1_555 1_555
C92_5 C59_5 1_555 1_555
O7_3 C92_5 1_555 1_555
O8_3 C92_5 1_555 1_555
O9_5 Zn6_2 1_555 1_555
O12_5 Zn8_2 1_555 1_555
O13_5 C74_5 1_555 1_555
Zn6_2 N1_5 1_555 1_555
Zn8_2 O13_5 1_555 1_555
O16_3 Zn8_2 1_555 1_555
O17_3 Zn4_2 1_555 1_555
O20_3 Zn8_2 1_555 1_555
O21_3 Zn6_2 1_555 1_555
Zn10_2 O5_3 1_555 1_555
C2_5 C33_5 1_555 1_555
C3_5 C53_5 1_555 1_555
C3_5 N1_5 1_555 1_555
C5_5 C50_5 1_555 1_555
C14_5 C23_5 1_555 1_555
C27_5 C40_5 1_555 1_555
C32_5 C38_5 1_555 1_555
C55_5 N3_5 1_555 1_555
O3_5 Zn4_2 1_555 1_555
C61_5 C63_5 1_555 1_555
C77_5 C81_5 1_555 1_555
O12_5 H61_5 1_555 1_555
O12_5 H62_5 1_555 1_555
H11_5 C22_5 1_555 1_555
C7_5 C34_5 1_555 1_555
C8_5 H5_5 1_555 1_555
C9_5 C15_5 1_555 1_555
C10_5 C25_5 1_555 1_555
C15_5 H7_5 1_555 1_555
H8_5 C17_5 1_555 1_555
C18_5 C44_5 1_555 1_555
C20_5 C17_5 1_555 1_555
H10_5 C20_5 1_555 1_555
C21_5 C8_5 1_555 1_555
C24_5 C20_5 1_555 1_555
C25_5 H12_5 1_555 1_555
C26_5 H13_5 1_555 1_555
H15_5 C28_5 1_555 1_555
C29_5 C9_5 1_555 1_555
H16_5 C29_5 1_555 1_555
H17_5 C30_5 1_555 1_555
C31_5 C9_5 1_555 1_555
C34_5 C26_5 1_555 1_555
H20_5 C34_5 1_555 1_555
C35_5 C8_5 1_555 1_555
H21_5 C35_5 1_555 1_555
C36_5 H22_5 1_555 1_555
C37_5 C21_5 1_555 1_555
C39_5 H25_5 1_555 1_555
C42_5 C7_5 1_555 1_555
C43_5 C46_5 1_555 1_555
C44_5 C15_5 1_555 1_555
H27_5 C44_5 1_555 1_555
C45_5 C36_5 1_555 1_555
C46_5 C36_5 1_555 1_555
H28_5 C46_5 1_555 1_555
C47_5 C18_5 1_555 1_555
H29_5 C47_5 1_555 1_555
C48_5 C39_5 1_555 1_555
H30_5 C48_5 1_555 1_555
C49_5 C7_5 1_555 1_555
H31_5 C49_5 1_555 1_555
C51_5 C26_5 1_555 1_555
C52_5 C49_5 1_555 1_555
H33_5 C52_5 1_555 1_555
N2_5 C10_5 1_555 1_555
O4_3 C42_5 1_555 1_555
O6_3 C42_5 1_555 1_555
C56_5 C57_5 1_555 1_555
C57_5 H37_5 1_555 1_555
C62_5 H41_5 1_555 1_555
C64_5 C56_5 1_555 1_555
H43_5 C64_5 1_555 1_555
C65_5 C57_5 1_555 1_555
H44_5 C65_5 1_555 1_555
C67_5 C62_5 1_555 1_555
C68_5 C66_5 1_555 1_555
C69_5 H45_5 1_555 1_555
C70_5 C71_5 1_555 1_555
C72_5 H46_5 1_555 1_555
C75_5 C67_5 1_555 1_555
H47_5 C76_5 1_555 1_555
C78_5 C71_5 1_555 1_555
H49_5 C78_5 1_555 1_555
C79_5 C68_5 1_555 1_555
C80_5 C70_5 1_555 1_555
H51_5 C80_5 1_555 1_555
C82_5 C85_5 1_555 1_555
C83_5 C72_5 1_555 1_555
C84_5 C69_5 1_555 1_555
C85_5 H53_5 1_555 1_555
C86_5 C80_5 1_555 1_555
H54_5 C86_5 1_555 1_555
C87_5 C75_5 1_555 1_555
H55_5 C87_5 1_555 1_555
C88_5 C68_5 1_555 1_555
H56_5 C88_5 1_555 1_555
C89_5 C79_5 1_555 1_555
H57_5 C89_5 1_555 1_555
C90_5 C70_5 1_555 1_555
C91_5 C84_5 1_555 1_555
H59_5 C91_5 1_555 1_555
C93_5 C69_5 1_555 1_555
H60_5 C93_5 1_555 1_555
C94_5 C56_5 1_555 1_555
N4_5 C82_5 1_555 1_555
O10_3 C94_5 1_555 1_555
O11_3 C94_5 1_555 1_555
Zn5_3 O6_3 1_555 1_555
Zn7_3 O11_3 1_555 1_555
Zn9_2 O10_3 1_555 1_555
Zn11_2 O4_3 1_555 1_555
C10_5 C35_5 1_555 1_555
C18_5 N2_5 1_555 1_555
C21_5 C24_5 1_555 1_555
C25_5 C37_5 1_555 1_555
C28_5 C31_5 1_555 1_555
C29_5 C47_5 1_555 1_555
C30_5 C31_5 1_555 1_555
C39_5 C45_5 1_555 1_555
C43_5 C48_5 1_555 1_555
C43_5 C51_5 1_555 1_555
C45_5 N2_5 1_555 1_555
C51_5 C52_5 1_555 1_555
C62_5 C64_5 1_555 1_555
C65_5 C67_5 1_555 1_555
C72_5 C88_5 1_555 1_555
C75_5 C93_5 1_555 1_555
C76_5 C78_5 1_555 1_555
C82_5 C86_5 1_555 1_555
C83_5 C89_5 1_555 1_555
C83_5 N4_5 1_555 1_555
C84_5 N4_5 1_555 1_555
C85_5 C90_5 1_555 1_555
C87_5 C91_5 1_555 1_555
C6_6 H4_6 1_555 1_555
C7_6 C34_6 1_555 1_555
C9_6 C15_6 1_555 1_555
C13_6 C6_6 1_555 1_555
C15_6 H7_6 1_555 1_555
C18_6 C44_6 1_555 1_555
C19_6 C13_6 1_555 1_555
H9_6 C19_6 1_555 1_555
C26_6 H13_6 1_555 1_555
C28_6 C6_6 1_555 1_555
H15_6 C28_6 1_555 1_555
C29_6 C9_6 1_555 1_555
H16_6 C29_6 1_555 1_555
C30_6 C19_6 1_555 1_555
H17_6 C30_6 1_555 1_555
C31_6 C9_6 1_555 1_555
C34_6 C26_6 1_555 1_555
H20_6 C34_6 1_555 1_555
C39_6 H25_6 1_555 1_555
C41_6 C13_6 1_555 1_555
C42_6 C7_6 1_555 1_555
C44_6 C15_6 1_555 1_555
H27_6 C44_6 1_555 1_555
C47_6 C18_6 1_555 1_555
H29_6 C47_6 1_555 1_555
C48_6 C39_6 1_555 1_555
H30_6 C48_6 1_555 1_555
C51_6 C26_6 1_555 1_555
O2_4 C41_6 1_555 1_555
O4_4 C42_6 1_555 1_555
O5_4 C41_6 1_555 1_555
O17_3 C42_6 1_555 1_555
C56_6 C57_6 1_555 1_555
C57_6 H37_6 1_555 1_555
C58_6 H38_6 1_555 1_555
C59_6 C58_6 1_555 1_555
C60_6 C58_6 1_555 1_555
H39_6 C60_6 1_555 1_555
C61_6 H40_6 1_555 1_555
C62_6 H41_6 1_555 1_555
C63_6 C59_6 1_555 1_555
H42_6 C63_6 1_555 1_555
C64_6 C56_6 1_555 1_555
H43_6 C64_6 1_555 1_555
C65_6 C57_6 1_555 1_555
H44_6 C65_6 1_555 1_555
C66_6 C60_6 1_555 1_555
C67_6 C62_6 1_555 1_555
C68_6 C66_6 1_555 1_555
C72_6 H46_6 1_555 1_555
C75_6 C67_6 1_555 1_555
C79_6 C68_6 1_555 1_555
H50_6 C79_6 1_555 1_555
C83_6 C72_6 1_555 1_555
C84_6 C69_6 1_555 1_555
C87_6 C75_6 1_555 1_555
H55_6 C87_6 1_555 1_555
C88_6 C68_6 1_555 1_555
H56_6 C88_6 1_555 1_555
C89_6 C79_6 1_555 1_555
H57_6 C89_6 1_555 1_555
C91_6 C84_6 1_555 1_555
H59_6 C91_6 1_555 1_555
C92_6 C59_6 1_555 1_555
C93_6 C69_6 1_555 1_555
H60_6 C93_6 1_555 1_555
C94_6 C56_6 1_555 1_555
O7_4 C92_6 1_555 1_555
O8_4 C92_6 1_555 1_555
O20_3 C94_6 1_555 1_555
O21_3 C94_6 1_555 1_555
Zn5_3 O2_4 1_555 1_555
Zn7_3 O7_4 1_555 1_555
Zn9_2 O8_4 1_555 1_555
Zn11_2 O5_4 1_555 1_555
C18_6 N2_6 1_555 1_555
C28_6 C31_6 1_555 1_555
C29_6 C47_6 1_555 1_555
C30_6 C31_6 1_555 1_555
C39_6 C45_6 1_555 1_555
C43_6 C48_6 1_555 1_555
C43_6 C51_6 1_555 1_555
C45_6 N2_6 1_555 1_555
C61_6 C63_6 1_555 1_555
C61_6 C66_6 1_555 1_555
C62_6 C64_6 1_555 1_555
C65_6 C67_6 1_555 1_555
C72_6 C88_6 1_555 1_555
C75_6 C93_6 1_555 1_555
C83_6 C89_6 1_555 1_555
C83_6 N4_6 1_555 1_555
C84_6 N4_6 1_555 1_555
C87_6 C91_6 1_555 1_555
C1_6 H1_6 1_555 1_555
C2_6 C4_6 1_555 1_555
C3_6 H2_6 1_555 1_555
C4_6 C27_6 1_555 1_555
C5_6 H3_6 1_555 1_555
C8_6 H5_6 1_555 1_555
C10_6 C25_6 1_555 1_555
C11_6 C5_6 1_555 1_555
C12_6 C16_6 1_555 1_555
C14_6 H6_6 1_555 1_555
C16_6 O1_6 1_555 1_555
C17_6 C12_6 1_555 1_555
H8_6 C17_6 1_555 1_555
C20_6 C17_6 1_555 1_555
H10_6 C20_6 1_555 1_555
C21_6 C8_6 1_555 1_555
C22_6 C14_6 1_555 1_555
H11_6 C22_6 1_555 1_555
C23_6 C11_6 1_555 1_555
C24_6 C20_6 1_555 1_555
C25_6 H12_6 1_555 1_555
C27_6 H14_6 1_555 1_555
C32_6 C24_6 1_555 1_555
H18_6 C32_6 1_555 1_555
C33_6 C1_6 1_555 1_555
H19_6 C33_6 1_555 1_555
C35_6 C8_6 1_555 1_555
H21_6 C35_6 1_555 1_555
C36_6 H22_6 1_555 1_555
C37_6 C21_6 1_555 1_555
H23_6 C37_6 1_555 1_555
C38_6 C12_6 1_555 1_555
H24_6 C38_6 1_555 1_555
C40_6 C11_6 1_555 1_555
H26_6 C40_6 1_555 1_555
C46_6 C36_6 1_555 1_555
H28_6 C46_6 1_555 1_555
H31_6 C49_6 1_555 1_555
C50_6 C4_6 1_555 1_555
H32_6 C50_6 1_555 1_555
C52_6 C49_6 1_555 1_555
H33_6 C52_6 1_555 1_555
C53_6 C2_6 1_555 1_555
H34_6 C53_6 1_555 1_555
C54_6 C23_6 1_555 1_555
H35_6 C54_6 1_555 1_555
C55_6 C54_6 1_555 1_555
H36_6 C55_6 1_555 1_555
N1_6 C1_6 1_555 1_555
N3_6 C22_6 1_555 1_555
O1_6 Zn5_3 1_555 1_555
O3_6 C16_6 1_555 1_555
Zn5_3 N3_6 1_555 1_555
C70_6 C71_6 1_555 1_555
C71_6 C77_6 1_555 1_555
C73_6 C74_6 1_555 1_555
C74_6 O9_6 1_555 1_555
C76_6 C73_6 1_555 1_555
H47_6 C76_6 1_555 1_555
C77_6 H48_6 1_555 1_555
C78_6 C71_6 1_555 1_555
H49_6 C78_6 1_555 1_555
C80_6 C70_6 1_555 1_555
H51_6 C80_6 1_555 1_555
C81_6 C73_6 1_555 1_555
H52_6 C81_6 1_555 1_555
C82_6 C85_6 1_555 1_555
C86_6 C80_6 1_555 1_555
H54_6 C86_6 1_555 1_555
C90_6 C70_6 1_555 1_555
H58_6 C90_6 1_555 1_555
O9_6 Zn7_3 1_555 1_555
O12_6 Zn9_2 1_555 1_555
O13_6 C74_6 1_555 1_555
Zn7_3 N1_6 1_555 1_555
Zn9_2 O13_6 1_555 1_555
O15_4 Zn9_2 1_555 1_555
O16_4 Zn9_2 1_555 1_555
C2_6 C33_6 1_555 1_555
C3_6 C53_6 1_555 1_555
C3_6 N1_6 1_555 1_555
C5_6 C50_6 1_555 1_555
C10_6 C35_6 1_555 1_555
C14_6 C23_6 1_555 1_555
C21_6 C24_6 1_555 1_555
C25_6 C37_6 1_555 1_555
C27_6 C40_6 1_555 1_555
C32_6 C38_6 1_555 1_555
C55_6 N3_6 1_555 1_555
O3_6 Zn5_3 1_555 1_555
C76_6 C78_6 1_555 1_555
C77_6 C81_6 1_555 1_555
C82_6 C86_6 1_555 1_555
C85_6 C90_6 1_555 1_555
O12_6 H61_6 1_555 1_555
O12_6 H62_6 1_555 1_555
H11_7 C22_7 1_555 1_555
C2_7 C4_7 1_555 1_555
C3_7 H2_7 1_555 1_555
C4_7 C27_7 1_555 1_555
C5_7 H3_7 1_555 1_555
C11_7 C5_7 1_555 1_555
C23_7 C11_7 1_555 1_555
C27_7 H14_7 1_555 1_555
C33_7 C1_7 1_555 1_555
C40_7 C11_7 1_555 1_555
H26_7 C40_7 1_555 1_555
C50_7 C4_7 1_555 1_555
H32_7 C50_7 1_555 1_555
C53_7 C2_7 1_555 1_555
H34_7 C53_7 1_555 1_555
C54_7 C23_7 1_555 1_555
H35_7 C54_7 1_555 1_555
C55_7 C54_7 1_555 1_555
H36_7 C55_7 1_555 1_555
N1_7 C1_7 1_555 1_555
C58_7 H38_7 1_555 1_555
C59_7 C58_7 1_555 1_555
C60_7 C58_7 1_555 1_555
H39_7 C60_7 1_555 1_555
C63_7 C59_7 1_555 1_555
H42_7 C63_7 1_555 1_555
C73_7 C74_7 1_555 1_555
C74_7 O9_7 1_555 1_555
C77_7 H48_7 1_555 1_555
C81_7 C73_7 1_555 1_555
H52_7 C81_7 1_555 1_555
C92_7 C59_7 1_555 1_555
O18_3 C92_7 1_555 1_555
O19_3 C92_7 1_555 1_555
O9_7 Zn2_2 1_555 1_555
O12_7 Zn10_2 1_555 1_555
O13_7 C74_7 1_555 1_555
Zn2_2 N1_7 1_555 1_555
Zn10_2 O13_7 1_555 1_555
O20_4 Zn10_2 1_555 1_555
O21_4 Zn2_2 1_555 1_555
C2_7 C33_7 1_555 1_555
C3_7 C53_7 1_555 1_555
C3_7 N1_7 1_555 1_555
C5_7 C50_7 1_555 1_555
C14_7 C23_7 1_555 1_555
C27_7 C40_7 1_555 1_555
C55_7 N3_7 1_555 1_555
C61_7 C63_7 1_555 1_555
C77_7 C81_7 1_555 1_555
O12_7 H61_7 1_555 1_555
O12_7 H62_7 1_555 1_555
C6_7 H4_7 1_555 1_555
C12_7 C16_7 1_555 1_555
C13_7 C6_7 1_555 1_555
C16_7 O1_7 1_555 1_555
C19_7 C13_7 1_555 1_555
H9_7 C19_7 1_555 1_555
H18_7 C32_7 1_555 1_555
C38_7 C12_7 1_555 1_555
H24_7 C38_7 1_555 1_555
C41_7 C13_7 1_555 1_555
O1_7 Zn1_2 1_555 1_555
O14_3 C41_7 1_555 1_555
O3_7 C16_7 1_555 1_555
O16_3 C41_7 1_555 1_555
O17_4 Zn1_2 1_555 1_555
C32_7 C38_7 1_555 1_555
O3_7 Zn1_2 1_555 1_555
C56_7 C57_7 1_555 1_555
C57_7 H37_7 1_555 1_555
C62_7 H41_7 1_555 1_555
C64_7 C56_7 1_555 1_555
H43_7 C64_7 1_555 1_555
C65_7 C57_7 1_555 1_555
H44_7 C65_7 1_555 1_555
C67_7 C62_7 1_555 1_555
C68_7 C66_7 1_555 1_555
C69_7 H45_7 1_555 1_555
C70_7 C71_7 1_555 1_555
C72_7 H46_7 1_555 1_555
C75_7 C67_7 1_555 1_555
H47_7 C76_7 1_555 1_555
C78_7 C71_7 1_555 1_555
H49_7 C78_7 1_555 1_555
C79_7 C68_7 1_555 1_555
C80_7 C70_7 1_555 1_555
H51_7 C80_7 1_555 1_555
C82_7 C85_7 1_555 1_555
C83_7 C72_7 1_555 1_555
C84_7 C69_7 1_555 1_555
C85_7 H53_7 1_555 1_555
C86_7 C80_7 1_555 1_555
H54_7 C86_7 1_555 1_555
C87_7 C75_7 1_555 1_555
H55_7 C87_7 1_555 1_555
C88_7 C68_7 1_555 1_555
H56_7 C88_7 1_555 1_555
C89_7 C79_7 1_555 1_555
H57_7 C89_7 1_555 1_555
C90_7 C70_7 1_555 1_555
C91_7 C84_7 1_555 1_555
H59_7 C91_7 1_555 1_555
C93_7 C69_7 1_555 1_555
H60_7 C93_7 1_555 1_555
C94_7 C56_7 1_555 1_555
N4_7 C82_7 1_555 1_555
O10_4 C94_7 1_555 1_555
O11_4 C94_7 1_555 1_555
Zn7_4 O11_4 1_555 1_555
Zn11_2 O10_4 1_555 1_555
C62_7 C64_7 1_555 1_555
C65_7 C67_7 1_555 1_555
C72_7 C88_7 1_555 1_555
C75_7 C93_7 1_555 1_555
C76_7 C78_7 1_555 1_555
C82_7 C86_7 1_555 1_555
C83_7 C89_7 1_555 1_555
C83_7 N4_7 1_555 1_555
C84_7 N4_7 1_555 1_555
C85_7 C90_7 1_555 1_555
C87_7 C91_7 1_555 1_555
C7_7 C34_7 1_555 1_555
C8_7 H5_7 1_555 1_555
C9_7 C15_7 1_555 1_555
C10_7 C25_7 1_555 1_555
C15_7 H7_7 1_555 1_555
H8_7 C17_7 1_555 1_555
C18_7 C44_7 1_555 1_555
C20_7 C17_7 1_555 1_555
H10_7 C20_7 1_555 1_555
C21_7 C8_7 1_555 1_555
C24_7 C20_7 1_555 1_555
C25_7 H12_7 1_555 1_555
C26_7 H13_7 1_555 1_555
H15_7 C28_7 1_555 1_555
C29_7 C9_7 1_555 1_555
H16_7 C29_7 1_555 1_555
H17_7 C30_7 1_555 1_555
C31_7 C9_7 1_555 1_555
C34_7 C26_7 1_555 1_555
H20_7 C34_7 1_555 1_555
C35_7 C8_7 1_555 1_555
H21_7 C35_7 1_555 1_555
C36_7 H22_7 1_555 1_555
C37_7 C21_7 1_555 1_555
C39_7 H25_7 1_555 1_555
C42_7 C7_7 1_555 1_555
C43_7 C46_7 1_555 1_555
C44_7 C15_7 1_555 1_555
H27_7 C44_7 1_555 1_555
C45_7 C36_7 1_555 1_555
C46_7 C36_7 1_555 1_555
H28_7 C46_7 1_555 1_555
C47_7 C18_7 1_555 1_555
H29_7 C47_7 1_555 1_555
C48_7 C39_7 1_555 1_555
H30_7 C48_7 1_555 1_555
C49_7 C7_7 1_555 1_555
H31_7 C49_7 1_555 1_555
C51_7 C26_7 1_555 1_555
C52_7 C49_7 1_555 1_555
H33_7 C52_7 1_555 1_555
N2_7 C10_7 1_555 1_555
O15_4 C42_7 1_555 1_555
O6_4 C42_7 1_555 1_555
Zn5_4 O6_4 1_555 1_555
C10_7 C35_7 1_555 1_555
C18_7 N2_7 1_555 1_555
C21_7 C24_7 1_555 1_555
C25_7 C37_7 1_555 1_555
C28_7 C31_7 1_555 1_555
C29_7 C47_7 1_555 1_555
C30_7 C31_7 1_555 1_555
C39_7 C45_7 1_555 1_555
C43_7 C48_7 1_555 1_555
C43_7 C51_7 1_555 1_555
C45_7 N2_7 1_555 1_555
C51_7 C52_7 1_555 1_555
C1_8 H1_8 1_555 1_555
C2_8 C4_8 1_555 1_555
C3_8 H2_8 1_555 1_555
C4_8 C27_8 1_555 1_555
C5_8 H3_8 1_555 1_555
C11_8 C5_8 1_555 1_555
C14_8 H6_8 1_555 1_555
C22_8 C14_8 1_555 1_555
H11_8 C22_8 1_555 1_555
C23_8 C11_8 1_555 1_555
C27_8 H14_8 1_555 1_555
C33_8 C1_8 1_555 1_555
H19_8 C33_8 1_555 1_555
C40_8 C11_8 1_555 1_555
H26_8 C40_8 1_555 1_555
C50_8 C4_8 1_555 1_555
H32_8 C50_8 1_555 1_555
C53_8 C2_8 1_555 1_555
H34_8 C53_8 1_555 1_555
C54_8 C23_8 1_555 1_555
H35_8 C54_8 1_555 1_555
C55_8 C54_8 1_555 1_555
H36_8 C55_8 1_555 1_555
N1_8 C1_8 1_555 1_555
N3_8 C22_8 1_555 1_555
C70_8 C71_8 1_555 1_555
C71_8 C77_8 1_555 1_555
C73_8 C74_8 1_555 1_555
C74_8 O9_8 1_555 1_555
C76_8 C73_8 1_555 1_555
H47_8 C76_8 1_555 1_555
C77_8 H48_8 1_555 1_555
C78_8 C71_8 1_555 1_555
H49_8 C78_8 1_555 1_555
C80_8 C70_8 1_555 1_555
H51_8 C80_8 1_555 1_555
C81_8 C73_8 1_555 1_555
H52_8 C81_8 1_555 1_555
C82_8 C85_8 1_555 1_555
C86_8 C80_8 1_555 1_555
H54_8 C86_8 1_555 1_555
C90_8 C70_8 1_555 1_555
H58_8 C90_8 1_555 1_555
O9_8 Zn7_4 1_555 1_555
O12_8 Zn11_2 1_555 1_555
O13_8 C74_8 1_555 1_555
Zn7_4 N1_8 1_555 1_555
Zn11_2 O13_8 1_555 1_555
O18_4 Zn7_4 1_555 1_555
O19_4 Zn11_2 1_555 1_555
C2_8 C33_8 1_555 1_555
C3_8 C53_8 1_555 1_555
C3_8 N1_8 1_555 1_555
C5_8 C50_8 1_555 1_555
C14_8 C23_8 1_555 1_555
C27_8 C40_8 1_555 1_555
C55_8 N3_8 1_555 1_555
C76_8 C78_8 1_555 1_555
C77_8 C81_8 1_555 1_555
C82_8 C86_8 1_555 1_555
C85_8 C90_8 1_555 1_555
O12_8 H61_8 1_555 1_555
O12_8 H62_8 1_555 1_555
C8_8 H5_8 1_555 1_555
C10_8 C25_8 1_555 1_555
C12_8 C16_8 1_555 1_555
C16_8 O1_8 1_555 1_555
C17_8 C12_8 1_555 1_555
H8_8 C17_8 1_555 1_555
C20_8 C17_8 1_555 1_555
H10_8 C20_8 1_555 1_555
C21_8 C8_8 1_555 1_555
C24_8 C20_8 1_555 1_555
C25_8 H12_8 1_555 1_555
C32_8 C24_8 1_555 1_555
H18_8 C32_8 1_555 1_555
C35_8 C8_8 1_555 1_555
H21_8 C35_8 1_555 1_555
C36_8 H22_8 1_555 1_555
C37_8 C21_8 1_555 1_555
H23_8 C37_8 1_555 1_555
C38_8 C12_8 1_555 1_555
H24_8 C38_8 1_555 1_555
C46_8 C36_8 1_555 1_555
H28_8 C46_8 1_555 1_555
H31_8 C49_8 1_555 1_555
C52_8 C49_8 1_555 1_555
H33_8 C52_8 1_555 1_555
O1_8 Zn5_4 1_555 1_555
O3_8 C16_8 1_555 1_555
O14_4 Zn5_4 1_555 1_555
C10_8 C35_8 1_555 1_555
C21_8 C24_8 1_555 1_555
C25_8 C37_8 1_555 1_555
C32_8 C38_8 1_555 1_555
O3_8 Zn5_4 1_555 1_555
C56_8 C57_8 1_555 1_555
C57_8 H37_8 1_555 1_555
C58_8 H38_8 1_555 1_555
C59_8 C58_8 1_555 1_555
C60_8 C58_8 1_555 1_555
H39_8 C60_8 1_555 1_555
C61_8 H40_8 1_555 1_555
C62_8 H41_8 1_555 1_555
C63_8 C59_8 1_555 1_555
H42_8 C63_8 1_555 1_555
C64_8 C56_8 1_555 1_555
H43_8 C64_8 1_555 1_555
C65_8 C57_8 1_555 1_555
H44_8 C65_8 1_555 1_555
C66_8 C60_8 1_555 1_555
C67_8 C62_8 1_555 1_555
C68_8 C66_8 1_555 1_555
C72_8 H46_8 1_555 1_555
C75_8 C67_8 1_555 1_555
C79_8 C68_8 1_555 1_555
H50_8 C79_8 1_555 1_555
C83_8 C72_8 1_555 1_555
C84_8 C69_8 1_555 1_555
C87_8 C75_8 1_555 1_555
H55_8 C87_8 1_555 1_555
C88_8 C68_8 1_555 1_555
H56_8 C88_8 1_555 1_555
C89_8 C79_8 1_555 1_555
H57_8 C89_8 1_555 1_555
C91_8 C84_8 1_555 1_555
H59_8 C91_8 1_555 1_555
C92_8 C59_8 1_555 1_555
C93_8 C69_8 1_555 1_555
H60_8 C93_8 1_555 1_555
C94_8 C56_8 1_555 1_555
O18_4 C92_8 1_555 1_555
O19_4 C92_8 1_555 1_555
O20_4 C94_8 1_555 1_555
O21_4 C94_8 1_555 1_555
C61_8 C63_8 1_555 1_555
C61_8 C66_8 1_555 1_555
C62_8 C64_8 1_555 1_555
C65_8 C67_8 1_555 1_555
C72_8 C88_8 1_555 1_555
C75_8 C93_8 1_555 1_555
C83_8 C89_8 1_555 1_555
C83_8 N4_8 1_555 1_555
C84_8 N4_8 1_555 1_555
C87_8 C91_8 1_555 1_555
C6_8 H4_8 1_555 1_555
C7_8 C34_8 1_555 1_555
C9_8 C15_8 1_555 1_555
C13_8 C6_8 1_555 1_555
C15_8 H7_8 1_555 1_555
C18_8 C44_8 1_555 1_555
C19_8 C13_8 1_555 1_555
H9_8 C19_8 1_555 1_555
C26_8 H13_8 1_555 1_555
C28_8 C6_8 1_555 1_555
H15_8 C28_8 1_555 1_555
C29_8 C9_8 1_555 1_555
H16_8 C29_8 1_555 1_555
C30_8 C19_8 1_555 1_555
H17_8 C30_8 1_555 1_555
C31_8 C9_8 1_555 1_555
C34_8 C26_8 1_555 1_555
H20_8 C34_8 1_555 1_555
C39_8 H25_8 1_555 1_555
C41_8 C13_8 1_555 1_555
C42_8 C7_8 1_555 1_555
C44_8 C15_8 1_555 1_555
H27_8 C44_8 1_555 1_555
C47_8 C18_8 1_555 1_555
H29_8 C47_8 1_555 1_555
C48_8 C39_8 1_555 1_555
H30_8 C48_8 1_555 1_555
C51_8 C26_8 1_555 1_555
O14_4 C41_8 1_555 1_555
O15_3 C42_8 1_555 1_555
O16_4 C41_8 1_555 1_555
O17_4 C42_8 1_555 1_555
C18_8 N2_8 1_555 1_555
C28_8 C31_8 1_555 1_555
C29_8 C47_8 1_555 1_555
C30_8 C31_8 1_555 1_555
C39_8 C45_8 1_555 1_555
C43_8 C48_8 1_555 1_555
C43_8 C51_8 1_555 1_555
C45_8 N2_8 1_555 1_555

#END
