
###############################################################################
#
# This file contains modified crystal structure data generated from the
# MOF subset of the Cambridge Structural Database (CSD) v543 
# hosted by the Cambridge Crystallographic Data Centre (CCDC).
#
# This work is licensed under the Creative Commons
# Attribution-NonCommercial-ShareAlike 4.0 International License.
# To view a copy of this license, visit
# http://creativecommons.org/licenses/by-nc-sa/4.0/
# or send a letter to
# Creative Commons, PO Box 1866, Mountain View, CA 94042, USA.
#
# CIF created using the CSD Python API on 29 September 2022
# The structure has been converted into the P1 space group
# The structure has a 3D framework
# The original CSD entry HUQJAG is in the monoclinic crystal system
# The framework has been calculated to contain at least 10.0% void space
# The void calculation uses a probe of radius 1.32A, grid spacing 0.4
#
###############################################################################

data_HUQJAG
_chemical_formula_moiety         '(C768 H496 N56 O96 Zn24)n'
_symmetry_cell_setting           triclinic
_symmetry_space_group_name_H-M   'P 1'
_symmetry_Int_Tables_number      1
_space_group_name_Hall           'P 1'
loop_
_symmetry_equiv_pos_site_id
_symmetry_equiv_pos_as_xyz
1 x,y,z
_cell_length_a                   37.106(14)
_cell_length_b                   21.340(6)
_cell_length_c                   40.018(14)
_cell_angle_alpha                90
_cell_angle_beta                 111.145(14)
_cell_angle_gamma                90
_cell_volume                     29554.4
loop_
_atom_site_label
_atom_site_type_symbol
_atom_site_fract_x
_atom_site_fract_y
_atom_site_fract_z
Zn21 Zn 0.07723(2) 0.06612(4) 0.96204(2)
C2 C 0.30648(13) 0.5274(2) 0.16488(15)
C4 C 0.01839(15) 0.6884(3) 0.17232(15)
C8 C 0.34850(15) 0.5212(2) 0.16745(16)
C9 C 0.27664(14) 0.5032(2) 0.13667(15)
H2 H 0.2810 0.4860 0.1171
C10 C 0.06046(16) 0.5787(3) 0.17209(18)
C11 C 0.24004(14) 0.5046(2) 0.13764(16)
H3 H 0.2198 0.4892 0.1180
C12 C 0.11851(15) 0.5249(2) 0.17015(17)
C13 C 0.29859(15) 0.5539(3) 0.19283(15)
H4 H 0.3184 0.5711 0.2122
C14 C 0.19171(14) 0.5267(2) 0.16653(15)
C16 C 0.16793(14) 0.4778(3) 0.15338(16)
H6 H 0.1766 0.4446 0.1432
C17 C 0.02358(14) 0.3519(2) 0.17579(17)
C19 C 0.00409(15) 0.2927(3) 0.17864(18)
C20 C 0.05902(15) 0.6262(3) 0.14971(17)
H7 H 0.0723 0.6222 0.1341
C21 C 0.00128(15) 0.1907(2) 0.20513(16)
H8 H 0.0130 0.1616 0.2231
C22 C 0.23190(14) 0.5272(2) 0.16561(16)
C23 C 0.06126(15) 0.4646(2) 0.17150(19)
C25 C 0.08146(15) 0.4156(3) 0.1942(2)
H10 H 0.1075 0.4200 0.2082
C26 C 0.06168(16) 0.3601(3) 0.19530(18)
H11 H 0.0752 0.3276 0.2100
C28 C 0.14246(16) 0.5740(3) 0.1838(2)
H12 H 0.1344 0.6066 0.1949
C30 C 0.26114(17) 0.5548(3) 0.19192(17)
H14 H 0.2559 0.5752 0.2102
C31 C 0.01969(16) 0.2476(3) 0.20386(17)
H15 H 0.0439 0.2550 0.2212
C32 C 0.17895(15) 0.5761(3) 0.18140(17)
H16 H 0.1947 0.6109 0.1899
C35 C 0.02344(16) 0.4570(3) 0.15256(19)
H17 H 0.0093 0.4893 0.1381
C36 C 0.03976(18) 0.5842(2) 0.19448(19)
H18 H 0.0396 0.5513 0.2097
C37 C 0.01942(18) 0.6377(3) 0.19445(19)
H19 H 0.0057 0.6402 0.2098
C40 C 0.03848(14) 0.6814(3) 0.14881(15)
H22 H 0.0381 0.7132 0.1328
C44 C 0.13141(15) 0.4750(2) 0.15439(17)
H25 H 0.1155 0.4408 0.1448
C48 C 0.00539(15) 0.4007(2) 0.15460(19)
N1 N 0.07999(12) 0.52204(19) 0.17123(15)
O1 O 0.37273(9) 0.53764(16) 0.19663(10)
O5 O 0.35482(9) 0.50169(14) 0.14083(9)
Zn8 Zn 0.427230(15) 0.51996(3) 0.214770(16)
Zn13 Zn 0.400560(15) 0.51664(3) 0.120930(16)
C131 C 0.02947(17) 0.8908(4) 0.9286(2)
C151 C 0.0144(2) 0.1399(5) 0.94385(18)
C156 C 0.0189(2) 0.2557(4) 0.94419(17)
H100 H 0.0443 0.2515 0.9454
C161 C 0.05167(18) 0.9489(4) 0.9281(2)
C164 C 0.02608(17) 0.8722(3) 0.96085(17)
H102 H 0.0383 0.8955 0.9815
C174 C 0.01096(18) 0.8527(4) 0.8973(2)
H109 H 0.0138 0.8623 0.8758
C175 C 0.00537(18) 0.8212(4) 0.96254(19)
H110 H 0.0033 0.8106 0.9843
H118 H 0.0008 0.4330 0.9671
C192 C 0.00352(18) 0.3171(4) 0.94440(17)
H124 H 0.0185 0.3523 0.9449
O16 O 0.06481(15) 0.9814(2) 0.95497(16)
O19 O 0.05490(10) 0.9610(2) 0.89680(11)
O22 O 0.04802(13) 0.1396(2) 0.94090(11)
Zn15 Zn 0.099440(15) 0.98336(3) 0.879070(16)
Zn7 Zn 0.927230(15) 0.01996(3) 0.214770(16)
Zn11 Zn 0.900560(15) 0.01664(3) 0.120930(16)
C1 C 0.9699(3) 0.8171(3) 0.20448(19)
H1 H 0.9617 0.8234 0.2236
C3 C 0.94614(13) 0.9242(2) 0.18205(16)
C5 C 0.94667(16) 0.1181(2) 0.17984(19)
C6 C 0.96239(14) 0.8619(2) 0.17804(13)
C7 C 0.99743(15) 0.7463(2) 0.17308(15)
C15 C 0.96541(14) 0.0096(3) 0.29412(16)
C18 C 0.96598(15) 0.1788(2) 0.17968(17)
C24 C 0.97004(14) 0.0124(3) 0.32901(15)
C29 C 0.94908(15) 0.2229(3) 0.15379(19)
H13 H 0.9250 0.2141 0.1365
C33 C 0.94079(15) 0.0383(3) 0.33783(16)
C34 C 0.77783(14) 0.2065(3) 0.01956(16)
C39 C 0.82351(15) 0.0599(3) 0.06824(15)
H21 H 0.8156 0.0202 0.0724
C41 C 0.79712(15) 0.1006(2) 0.04814(16)
H23 H 0.7715 0.0878 0.0385
C42 C 0.80635(16) 0.1616(3) 0.04096(16)
C43 C 0.96597(16) 0.2786(3) 0.1524(2)
H24 H 0.9533 0.3077 0.1348
C45 C 0.87133(16) 0.1314(3) 0.07566(17)
H26 H 0.8973 0.1423 0.0853
C47 C 0.96754(17) 0.8456(3) 0.14774(16)
H28 H 0.9597 0.8727 0.1282
H29 H 0.9794 0.3962 0.1406
C50 C 0.59053(18) 0.1049(4) 0.07146(19)
H30 H 0.6073 0.1381 0.0811
C51 C 0.84556(15) 0.1754(3) 0.05490(17)
H31 H 0.8544 0.2141 0.0503
C52 C 0.5024(2) 0.2959(4) 0.05769(15)
C54 C 0.4856(2) 0.3601(5) 0.05615(18)
C55 C 0.9902(3) 0.7610(3) 0.2025(2)
H33 H 0.9985 0.7342 0.2222
C56 C 0.98444(18) 0.7887(3) 0.14531(16)
H34 H 0.9872 0.7786 0.1237
C57 C 0.9085(2) 0.0614(4) 0.31208(18)
H35 H 0.8883 0.0789 0.3176
C58 C 0.94764(18) 0.0306(4) 0.44240(19)
H36 H 0.9639 0.0030 0.4366
C59 C 0.4811(2) 0.2443(4) 0.05581(17)
H37 H 0.4557 0.2485 0.0546
C63 C 0.5341(2) 0.1762(5) 0.05612(19)
C66 C 0.5507(2) 0.1142(4) 0.0570(2)
C69 C 0.60448(18) 0.0439(4) 0.07106(18)
H41 H 0.6310 0.0372 0.0808
C71 C 0.94683(18) 0.0316(3) 0.47770(18)
H42 H 0.9632 0.0052 0.4951
C79 C 0.9073(2) 0.0572(4) 0.27643(19)
H48 H 0.8862 0.0740 0.2582
C80 C 0.90058(19) 0.1103(4) 0.42705(18)
H49 H 0.8838 0.1375 0.4105
C81 C 0.78270(16) 0.2697(3) 0.02703(16)
H50 H 0.8048 0.2833 0.0455
C84 C 0.5420(2) 0.0061(5) 0.0421(2)
C85 C 0.5547(2) 0.2290(5) 0.05832(18)
H54 H 0.5803 0.2250 0.0601
C88 C 0.92443(18) 0.0702(4) 0.41734(19)
C90 C 0.5258(2) 0.0621(5) 0.0422(2)
H56 H 0.4992 0.0670 0.0329
C92 C 0.9026(2) 0.1084(3) 0.4615(2)
H58 H 0.8879 0.1377 0.4682
C94 C 0.54004(18) 0.2903(4) 0.05812(16)
H60 H 0.5549 0.3255 0.0583
C96 C 0.49648(18) 0.1829(4) 0.05560(17)
H62 H 0.4815 0.1477 0.0551
N2 N 0.93531(12) 0.03001(18) 0.26776(12)
N3 N 0.86150(12) 0.0752(2) 0.08263(12)
N4 N 0.92187(13) 0.0730(3) 0.38138(14)
N5 N 0.94522(13) 0.0387(3) 0.37530(13)
N7 N 0.92319(14) 0.0695(3) 0.48639(14)
O2 O 0.95935(9) 0.08722(17) 0.20870(11)
O3 O 0.93957(9) 0.96174(14) 0.15789(9)
O6 O 0.94241(11) 0.93308(16) 0.21144(10)
O8 O 0.91876(10) 0.10154(15) 0.15291(11)
O10 O 0.45198(13) 0.3604(2) 0.05910(11)
O12 O 0.50269(15) 0.4069(3) 0.05083(14)
C98 C 0.75571(17) 0.3135(3) 0.00779(17)
H63 H 0.7599 0.3560 0.0130
H95 H 0.7014 0.5833 0.0001
H123 H 0.7670 0.5745 0.0010
N15 N 0.57681(14) 0.5695(3) 0.01361(14)
O25 O 0.87273(9) 0.03764(16) 0.19663(10)
O29 O 0.93519(15) 0.0186(2) 0.04503(16)
O31 O 0.85482(9) 0.00169(14) 0.14083(9)
O35 O 0.94510(10) 0.0390(2) 0.10320(11)
Zn18 Zn 0.42277(2) 0.43388(4) 0.03796(2)
Zn22 Zn 0.92277(2) 0.06612(4) 0.53796(2)
C38 C 0.74429(17) 0.1865(3) 0.99221(17)
H20 H 0.7401 0.1440 0.9870
C97 C 0.72217(14) 0.2935(3) 0.98044(16)
C99 C 0.67649(15) 0.4401(3) 0.93176(15)
H64 H 0.6844 0.4798 0.9276
C100 C 0.70288(15) 0.3994(2) 0.95186(16)
H65 H 0.7285 0.4122 0.9615
C101 C 0.69365(16) 0.3384(3) 0.95904(16)
C102 C 0.62867(16) 0.3686(3) 0.92434(17)
H66 H 0.6027 0.3577 0.9147
C103 C 0.65444(15) 0.3246(3) 0.94510(17)
H67 H 0.6456 0.2859 0.9497
C104 C 0.71730(16) 0.2303(3) 0.97297(16)
H68 H 0.6952 0.2167 0.9545
N8 N 0.63850(12) 0.4248(2) 0.91737(12)
C109 C 0.55333(16) 0.3819(2) 0.82016(19)
H70 H 0.2190 0.0140 0.8829
H71 H 0.2802 0.0108 0.8820
C119 C 0.53459(14) 0.4904(3) 0.70588(16)
H73 H 0.5147 0.5082 0.7117
C120 C 0.33207(14) 0.0222(3) 0.84662(16)
H74 H 0.3234 0.0554 0.8568
C121 C 0.47642(14) 0.1481(2) 0.82421(17)
C122 C 0.53402(15) 0.3212(2) 0.82032(17)
C123 C 0.49591(15) 0.2073(3) 0.82136(18)
C125 C 0.49872(15) 0.3093(2) 0.79487(16)
H76 H 0.4870 0.3384 0.7769
C127 C 0.43874(15) 0.0354(2) 0.82850(19)
C128 C 0.52996(14) 0.4876(3) 0.67099(15)
H77 H 0.5076 0.5028 0.6534
C129 C 0.41854(15) 0.0844(3) 0.8058(2)
H78 H 0.3925 0.0800 0.7918
C130 C 0.43832(16) 0.1399(3) 0.80470(18)
H79 H 0.4248 0.1724 0.7900
C133 C 0.55092(15) 0.2771(3) 0.84621(19)
H81 H 0.5750 0.2859 0.8635
C135 C 0.48031(16) 0.2524(3) 0.79614(17)
H83 H 0.4561 0.2450 0.7788
C137 C 0.55921(15) 0.4617(3) 0.66217(16)
C138 C 0.47656(16) 0.0430(3) 0.84744(19)
H85 H 0.4907 0.0107 0.8619
C142 C 0.53403(16) 0.2214(3) 0.8476(2)
H89 H 0.5467 0.1923 0.8652
C143 C 0.36859(15) 0.0250(2) 0.84561(17)
H90 H 0.3845 0.0592 0.8552
C144 C 0.80691(19) 0.6286(4) 0.9297(2)
H91 H 0.7905 0.6599 0.9165
C146 C 0.49461(15) 0.0993(2) 0.84540(19)
H93 H 0.5206 0.1038 0.8594
C147 C 0.6794(3) 0.5927(3) 0.9472(2)
C148 C 0.90947(18) 0.3951(4) 0.92854(19)
H94 H 0.8927 0.3619 0.9189
C149 C 0.9976(2) 0.2041(4) 0.94231(15)
C150 C 0.7070(2) 0.5867(4) 0.9793(3)
C154 C 0.5915(2) 0.4386(4) 0.68792(18)
H98 H 0.6117 0.4211 0.6824
C155 C 0.55236(18) 0.4694(4) 0.55760(19)
H99 H 0.5361 0.4970 0.5634
C157 C 0.98664(19) 0.7835(4) 0.93219(19)
C158 C 0.6364(2) 0.5790(3) 0.9415(3)
C159 C 0.94643(19) 0.7225(4) 0.95909(19)
H101 H 0.9476 0.7568 0.9738
C160 C 0.9659(2) 0.3238(5) 0.94388(19)
C162 C 0.7542(2) 0.5993(4) 0.9528(3)
C163 C 0.9493(2) 0.3858(4) 0.9430(2)
C165 C 0.84322(19) 0.6207(4) 0.9267(2)
H103 H 0.8508 0.6465 0.9117
C166 C 0.89552(18) 0.4561(4) 0.92894(18)
H104 H 0.8690 0.4628 0.9192
C167 C 0.8677(2) 0.5740(4) 0.9465(2)
C168 C 0.55317(18) 0.4684(3) 0.52230(18)
H105 H 0.5368 0.4948 0.5049
C169 C 0.7246(2) 0.6170(3) 0.9191(3)
H106 H 0.7310 0.6308 0.8999
C170 C 0.96501(18) 0.7278(5) 0.9341(2)
C171 C 0.91933(19) 0.5069(5) 0.9431(2)
C172 C 0.98943(18) 0.8030(4) 0.89962(18)
H107 H 0.9759 0.7808 0.8789
C173 C 0.8565(2) 0.5391(4) 0.9691(2)
H108 H 0.8733 0.5088 0.9831
C176 C 0.5927(2) 0.4428(4) 0.72357(19)
H111 H 0.6138 0.4260 0.7418
C177 C 0.59942(19) 0.3897(4) 0.57295(18)
H112 H 0.6162 0.3625 0.5895
C178 C 0.94363(18) 0.6274(5) 0.9160(2)
H113 H 0.9423 0.5943 0.9005
C179 C 0.6864(2) 0.6125(3) 0.9165(2)
H114 H 0.6662 0.6221 0.8953
C180 C 0.9580(2) 0.4939(5) 0.9579(2)
H115 H 0.9745 0.5268 0.9690
C181 C 0.9453(2) 0.2710(5) 0.94168(18)
H116 H 0.9197 0.2750 0.9399
C182 C 0.7955(2) 0.5921(5) 0.9511(3)
C183 C 0.92774(18) 0.6731(4) 0.9632(2)
H117 H 0.9167 0.6723 0.9807
C184 C 0.57557(18) 0.4298(4) 0.58266(19)
C185 C 0.92435(19) 0.6188(5) 0.9398(2)
C186 C 0.9742(2) 0.4379(5) 0.9578(2)
C187 C 0.9635(2) 0.6765(5) 0.9127(2)
H119 H 0.9761 0.6766 0.8964
C188 C 0.5974(2) 0.3916(3) 0.5385(2)
H120 H 0.6121 0.3623 0.5318
C189 C 0.8208(3) 0.5470(5) 0.9720(2)
H121 H 0.8138 0.5225 0.9879
C190 C 0.95996(18) 0.2097(4) 0.94188(16)
H122 H 0.9451 0.1745 0.9417
C191 C 0.7470(3) 0.5856(5) 0.9800(3)
N10 N 0.56469(12) 0.46999(18) 0.73224(12)
N11 N 0.57813(13) 0.4270(3) 0.61862(14)
N12 N 0.55478(13) 0.4613(3) 0.62470(13)
N13 N 0.90347(15) 0.5643(4) 0.94355(17)
N14 N 0.57681(14) 0.4305(3) 0.51361(14)
O14 O 0.54065(9) 0.41278(17) 0.79130(11)
O20 O 0.58124(10) 0.39846(15) 0.84709(11)
O21 O 0.63138(11) 0.58777(19) 0.97155(11)
O23 O 0.61418(12) 0.56458(19) 0.91066(14)
O24 O 0.99731(15) 0.0931(3) 0.94917(14)
Zn4 Zn 0.572770(15) 0.48004(3) 0.785230(16)
Zn5 Zn 0.599440(15) 0.48336(3) 0.879070(16)
Zn6 Zn 0.57723(2) 0.56612(4) 0.96204(2)
O26 O 0.62727(9) 0.46236(16) 0.80337(10)
O28 O 0.56043(9) 0.53826(14) 0.84211(9)
O30 O 0.56481(15) 0.4814(2) 0.95497(16)
O32 O 0.64518(9) 0.49831(14) 0.85917(9)
O34 O 0.55759(11) 0.56692(16) 0.78856(10)
O36 O 0.55490(10) 0.4610(2) 0.89680(11)
O38 O 0.54802(13) 0.6396(2) 0.94090(11)
Zn19 Zn 0.57723(2) 0.43388(4) 0.46204(2)
H5 H 0.9853 0.9918 0.2883
H9 H 0.9924 0.9972 0.3466
C27 C 0.47053(17) 0.6092(4) 0.0714(2)
C46 C 0.69309(19) 0.8714(4) 0.0703(2)
H27 H 0.7095 0.8401 0.0835
C49 C 0.8206(3) 0.9073(3) 0.0528(2)
C53 C 0.7930(2) 0.9133(4) 0.0207(3)
C60 C 0.51336(19) 0.7165(4) 0.06781(19)
C61 C 0.8636(2) 0.9210(3) 0.0585(3)
C62 C 0.55357(19) 0.7775(4) 0.04091(19)
H38 H 0.5524 0.7432 0.0262
C64 C 0.44833(18) 0.5511(4) 0.0719(2)
C65 C 0.7458(2) 0.9007(4) 0.0472(3)
C67 C 0.47392(17) 0.6278(3) 0.03915(17)
H39 H 0.4617 0.6045 0.0185
C68 C 0.65678(19) 0.8793(4) 0.0733(2)
H40 H 0.6492 0.8535 0.0883
C70 C 0.6323(2) 0.9260(4) 0.0535(2)
C72 C 0.7754(2) 0.8830(3) 0.0809(3)
H43 H 0.7690 0.8692 0.1001
C73 C 0.53499(18) 0.7722(5) 0.0659(2)
C74 C 0.58067(19) 0.9931(5) 0.0569(2)
C75 C 0.51057(18) 0.6970(4) 0.10038(18)
H44 H 0.5241 0.7192 0.1211
C76 C 0.6435(2) 0.9609(4) 0.0309(2)
H45 H 0.6267 0.9912 0.0169
C77 C 0.48904(18) 0.6473(4) 0.1027(2)
H46 H 0.4862 0.6377 0.1242
C78 C 0.49463(18) 0.6788(4) 0.03746(19)
H47 H 0.4967 0.6894 0.0157
C82 C 0.55637(18) 0.8726(5) 0.0840(2)
H51 H 0.5577 0.9057 0.0995
C83 C 0.8136(2) 0.8875(3) 0.0835(2)
H52 H 0.8338 0.8779 0.1047
H53 H 0.5255 0.9732 0.0310
C86 C 0.7045(2) 0.9079(5) 0.0489(3)
C87 C 0.57226(18) 0.8269(4) 0.0368(2)
H55 H 0.5833 0.8277 0.0193
C89 C 0.57565(19) 0.8812(5) 0.0602(2)
C91 C 0.5365(2) 0.8235(5) 0.0873(2)
H57 H 0.5239 0.8234 0.1036
C93 C 0.6792(3) 0.9530(5) 0.0280(2)
H59 H 0.6862 0.9775 0.0121
C95 C 0.7530(3) 0.9144(5) 0.0200(3)
N6 N 0.59653(15) 0.9357(4) 0.05645(17)
O4 O 0.43519(15) 0.5186(2) 0.04503(16)
O7 O 0.44510(10) 0.5390(2) 0.10320(11)
O9 O 0.86862(11) 0.91223(19) 0.02845(11)
O11 O 0.88582(12) 0.93542(19) 0.08934(14)
Zn3 Zn 0.92277(2) 0.93388(4) 0.03796(2)
O37 O 0.95198(13) 0.8604(2) 0.05910(11)
H32 H 0.7986 0.9167 0.9999
H61 H 0.7330 0.9255 0.9990
C105 C 0.5301(3) 0.6829(3) 0.79552(19)
H69 H 0.5383 0.6766 0.7764
C106 C 0.19352(13) 0.9726(2) 0.83512(15)
C107 C 0.55386(13) 0.5758(2) 0.81795(16)
C108 C 0.48161(15) 0.8116(3) 0.82768(15)
C110 C 0.53761(14) 0.6381(2) 0.82196(13)
C111 C 0.50257(15) 0.7537(2) 0.82692(15)
C112 C 0.15150(15) 0.9788(2) 0.83255(16)
C113 C 0.22336(14) 0.9968(2) 0.86333(15)
C114 C 0.43954(16) 0.9213(3) 0.82791(18)
C115 C 0.25996(14) 0.9954(2) 0.86236(16)
C116 C 0.38149(15) 0.9751(2) 0.82985(17)
C117 C 0.20141(15) 0.9461(3) 0.80717(15)
H72 H 0.1816 0.9289 0.7878
C118 C 0.30829(14) 0.9733(2) 0.83347(15)
C124 C 0.44098(15) 0.8738(3) 0.85029(17)
H75 H 0.4277 0.8778 0.8659
C126 C 0.26810(14) 0.9728(2) 0.83439(16)
C132 C 0.35754(16) 0.9260(3) 0.8162(2)
H80 H 0.3656 0.8934 0.8051
C134 C 0.23886(17) 0.9452(3) 0.80808(17)
H82 H 0.2441 0.9248 0.7898
C136 C 0.32105(15) 0.9239(3) 0.81860(17)
H84 H 0.3053 0.8891 0.8101
C139 C 0.46024(18) 0.9158(2) 0.80552(19)
H86 H 0.4604 0.9487 0.7903
C140 C 0.48058(18) 0.8623(3) 0.80555(19)
H87 H 0.4943 0.8598 0.7902
C141 C 0.46152(14) 0.8186(3) 0.85119(15)
H88 H 0.4619 0.7868 0.8672
C145 C 0.53246(17) 0.6544(3) 0.85226(16)
H92 H 0.5403 0.6273 0.8718
C152 C 0.5098(3) 0.7390(3) 0.7975(2)
H96 H 0.5015 0.7658 0.7778
C153 C 0.51556(18) 0.7113(3) 0.85469(16)
H97 H 0.5128 0.7214 0.8763
N9 N 0.42001(12) 0.97796(19) 0.82877(15)
O13 O 0.12727(9) 0.96236(16) 0.80337(10)
O17 O 0.14518(9) 0.99831(14) 0.85917(9)
N16 N 0.92319(14) 0.9305(3) 0.98639(14)
Zn9 Zn 0.072770(15) 0.98004(3) 0.785230(16)
Zn7_2 Zn 0.072770(15) 0.01996(3) 0.285230(16)
Zn11_2 Zn 0.099440(15) 0.01664(3) 0.379070(16)
C1_2 C 0.0301(3) 0.8171(3) 0.29552(19)
H1_2 H 0.0383 0.8234 0.2764
C3_2 C 0.05386(13) 0.9242(2) 0.31795(16)
C5_2 C 0.05333(16) 0.1181(2) 0.32016(19)
C6_2 C 0.03761(14) 0.8619(2) 0.32196(13)
C7_2 C 0.00257(15) 0.7463(2) 0.32692(15)
C15_2 C 0.03459(14) 0.0096(3) 0.20588(16)
C18_2 C 0.03402(15) 0.1788(2) 0.32032(17)
C24_2 C 0.02996(14) 0.0124(3) 0.17099(15)
C29_2 C 0.05092(15) 0.2229(3) 0.34621(19)
H13_2 H 0.0750 0.2141 0.3635
C33_2 C 0.05921(15) 0.0383(3) 0.16217(16)
C34_2 C 0.22217(14) 0.2065(3) 0.48044(16)
C38_2 C 0.25571(17) 0.1865(3) 0.50779(17)
H20_2 H 0.2599 0.1440 0.5130
C39_2 C 0.17649(15) 0.0599(3) 0.43176(15)
H21_2 H 0.1844 0.0202 0.4276
C41_2 C 0.20288(15) 0.1006(2) 0.45186(16)
H23_2 H 0.2285 0.0878 0.4615
C42_2 C 0.19365(16) 0.1616(3) 0.45904(16)
C43_2 C 0.03403(16) 0.2786(3) 0.3476(2)
H24_2 H 0.0467 0.3077 0.3652
C45_2 C 0.12867(16) 0.1314(3) 0.42434(17)
H26_2 H 0.1027 0.1423 0.4147
C47_2 C 0.03246(17) 0.8456(3) 0.35226(16)
H28_2 H 0.0403 0.8727 0.3718
H29_2 H 0.0206 0.3962 0.3594
C50_2 C 0.40947(18) 0.1049(4) 0.42854(19)
H30_2 H 0.3927 0.1381 0.4189
C51_2 C 0.15444(15) 0.1754(3) 0.44510(17)
H31_2 H 0.1456 0.2141 0.4497
C52_2 C 0.4976(2) 0.2959(4) 0.44231(15)
C54_2 C 0.5144(2) 0.3601(5) 0.44385(18)
C55_2 C 0.0098(3) 0.7610(3) 0.2975(2)
H33_2 H 0.0015 0.7342 0.2778
C56_2 C 0.01556(18) 0.7887(3) 0.35469(16)
H34_2 H 0.0128 0.7786 0.3763
C57_2 C 0.0915(2) 0.0614(4) 0.18792(18)
H35_2 H 0.1117 0.0789 0.1824
C58_2 C 0.05236(18) 0.0306(4) 0.05760(19)
H36_2 H 0.0361 0.0030 0.0634
C59_2 C 0.5189(2) 0.2443(4) 0.44419(17)
H37_2 H 0.5443 0.2485 0.4454
C63_2 C 0.4659(2) 0.1762(5) 0.44388(19)
C66_2 C 0.4493(2) 0.1142(4) 0.4430(2)
C69_2 C 0.39552(18) 0.0439(4) 0.42894(18)
H41_2 H 0.3690 0.0372 0.4192
C71_2 C 0.05317(18) 0.0316(3) 0.02230(18)
H42_2 H 0.0368 0.0052 0.0049
C79_2 C 0.0927(2) 0.0572(4) 0.22357(19)
H48_2 H 0.1138 0.0740 0.2418
C80_2 C 0.09942(19) 0.1103(4) 0.07295(18)
H49_2 H 0.1162 0.1375 0.0895
C81_2 C 0.21730(16) 0.2697(3) 0.47297(16)
H50_2 H 0.1952 0.2833 0.4545
C84_2 C 0.4580(2) 0.0061(5) 0.4579(2)
C85_2 C 0.4453(2) 0.2290(5) 0.44168(18)
H54_2 H 0.4197 0.2250 0.4399
C88_2 C 0.07557(18) 0.0702(4) 0.08266(19)
C90_2 C 0.4742(2) 0.0621(5) 0.4578(2)
H56_2 H 0.5008 0.0670 0.4671
C92_2 C 0.0974(2) 0.1084(3) 0.0385(2)
H58_2 H 0.1121 0.1377 0.0318
C94_2 C 0.45996(18) 0.2903(4) 0.44188(16)
H60_2 H 0.4451 0.3255 0.4417
C96_2 C 0.50352(18) 0.1829(4) 0.44440(17)
H62_2 H 0.5185 0.1477 0.4449
N2_2 N 0.06469(12) 0.03001(18) 0.23224(12)
N3_2 N 0.13850(12) 0.0752(2) 0.41737(12)
N4_2 N 0.07813(13) 0.0730(3) 0.11862(14)
N5_2 N 0.05478(13) 0.0387(3) 0.12470(13)
N7_2 N 0.07681(14) 0.0695(3) 0.01361(14)
O2_2 O 0.04065(9) 0.08722(17) 0.29130(11)
O3_2 O 0.06043(9) 0.96174(14) 0.34211(9)
O6_2 O 0.05759(11) 0.93308(16) 0.28856(10)
O8_2 O 0.08124(10) 0.10154(15) 0.34709(11)
O10_2 O 0.54802(13) 0.3604(2) 0.44090(11)
O12_2 O 0.49731(15) 0.4069(3) 0.44917(14)
C97_2 C 0.27783(14) 0.2935(3) 0.51956(16)
C98_2 C 0.24429(17) 0.3135(3) 0.49221(17)
H63_2 H 0.2401 0.3560 0.4870
C99_2 C 0.32351(15) 0.4401(3) 0.56824(15)
H64_2 H 0.3156 0.4798 0.5724
C100_2 C 0.29712(15) 0.3994(2) 0.54814(16)
H65_2 H 0.2715 0.4122 0.5385
C101_2 C 0.30635(16) 0.3384(3) 0.54096(16)
C102_2 C 0.37133(16) 0.3686(3) 0.57566(17)
H66_2 H 0.3973 0.3577 0.5853
C103_2 C 0.34556(15) 0.3246(3) 0.55490(17)
H67_2 H 0.3544 0.2859 0.5503
C104_2 C 0.28270(16) 0.2303(3) 0.52703(16)
H68_2 H 0.3048 0.2167 0.5455
N8_2 N 0.36150(12) 0.4248(2) 0.58263(12)
C109_2 C 0.44667(16) 0.3819(2) 0.67984(19)
H70_2 H 0.7810 0.0140 0.6171
H71_2 H 0.7198 0.0108 0.6180
C119_2 C 0.46541(14) 0.4904(3) 0.79412(16)
H73_2 H 0.4853 0.5082 0.7883
C120_2 C 0.66793(14) 0.0222(3) 0.65338(16)
H74_2 H 0.6766 0.0554 0.6432
C121_2 C 0.52358(14) 0.1481(2) 0.67579(17)
C122_2 C 0.46598(15) 0.3212(2) 0.67968(17)
C123_2 C 0.50409(15) 0.2073(3) 0.67864(18)
C125_2 C 0.50128(15) 0.3093(2) 0.70513(16)
H76_2 H 0.5130 0.3384 0.7231
C127_2 C 0.56126(15) 0.0354(2) 0.67150(19)
C128_2 C 0.47004(14) 0.4876(3) 0.82901(15)
H77_2 H 0.4924 0.5028 0.8466
C129_2 C 0.58146(15) 0.0844(3) 0.6942(2)
H78_2 H 0.6075 0.0800 0.7082
C130_2 C 0.56168(16) 0.1399(3) 0.69530(18)
H79_2 H 0.5752 0.1724 0.7100
C133_2 C 0.44908(15) 0.2771(3) 0.65379(19)
H81_2 H 0.4250 0.2859 0.6365
C135_2 C 0.51969(16) 0.2524(3) 0.70386(17)
H83_2 H 0.5439 0.2450 0.7212
C137_2 C 0.44079(15) 0.4617(3) 0.83783(16)
C138_2 C 0.52344(16) 0.0430(3) 0.65256(19)
H85_2 H 0.5093 0.0107 0.6381
C142_2 C 0.46597(16) 0.2214(3) 0.6524(2)
H89_2 H 0.4533 0.1923 0.6348
C143_2 C 0.63141(15) 0.0250(2) 0.65439(17)
H90_2 H 0.6155 0.0592 0.6448
C144_2 C 0.19309(19) 0.6286(4) 0.5703(2)
H91_2 H 0.2095 0.6599 0.5835
C146_2 C 0.50539(15) 0.0993(2) 0.65460(19)
H93_2 H 0.4794 0.1038 0.6406
C147_2 C 0.3206(3) 0.5927(3) 0.5528(2)
C148_2 C 0.09053(18) 0.3951(4) 0.57146(19)
H94_2 H 0.1073 0.3619 0.5811
C149_2 C 0.0024(2) 0.2041(4) 0.55769(15)
C150_2 C 0.2930(2) 0.5867(4) 0.5207(3)
H95_2 H 0.2986 0.5833 0.4999
C154_2 C 0.4085(2) 0.4386(4) 0.81208(18)
H98_2 H 0.3883 0.4211 0.8176
C155_2 C 0.44764(18) 0.4694(4) 0.94240(19)
H99_2 H 0.4639 0.4970 0.9366
C157_2 C 0.01336(19) 0.7835(4) 0.56781(19)
C158_2 C 0.3636(2) 0.5790(3) 0.5585(3)
C159_2 C 0.05357(19) 0.7225(4) 0.54091(19)
H101_2 H 0.0524 0.7568 0.5262
C160_2 C 0.0341(2) 0.3238(5) 0.55612(19)
C162_2 C 0.2458(2) 0.5993(4) 0.5472(3)
C163_2 C 0.0507(2) 0.3858(4) 0.5570(2)
C165_2 C 0.15678(19) 0.6207(4) 0.5733(2)
H103_2 H 0.1492 0.6465 0.5883
C166_2 C 0.10448(18) 0.4561(4) 0.57106(18)
H104_2 H 0.1310 0.4628 0.5808
C167_2 C 0.1323(2) 0.5740(4) 0.5535(2)
C168_2 C 0.44683(18) 0.4684(3) 0.97770(18)
H105_2 H 0.4632 0.4948 0.9951
C169_2 C 0.2754(2) 0.6170(3) 0.5809(3)
H106_2 H 0.2690 0.6308 0.6001
C170_2 C 0.03499(18) 0.7278(5) 0.5659(2)
C171_2 C 0.08067(19) 0.5069(5) 0.5569(2)
C172_2 C 0.01057(18) 0.8030(4) 0.60038(18)
H107_2 H 0.0241 0.7808 0.6211
C173_2 C 0.1435(2) 0.5391(4) 0.5309(2)
H108_2 H 0.1267 0.5088 0.5169
C176_2 C 0.4073(2) 0.4428(4) 0.77643(19)
H111_2 H 0.3862 0.4260 0.7582
C177_2 C 0.40058(19) 0.3897(4) 0.92705(18)
H112_2 H 0.3838 0.3625 0.9105
C178_2 C 0.05637(18) 0.6274(5) 0.5840(2)
H113_2 H 0.0577 0.5943 0.5995
C179_2 C 0.3136(2) 0.6125(3) 0.5835(2)
H114_2 H 0.3338 0.6221 0.6047
C180_2 C 0.0420(2) 0.4939(5) 0.5421(2)
H115_2 H 0.0255 0.5268 0.5310
C181_2 C 0.0547(2) 0.2710(5) 0.55832(18)
H116_2 H 0.0803 0.2750 0.5601
C182_2 C 0.2045(2) 0.5921(5) 0.5489(3)
C183_2 C 0.07226(18) 0.6731(4) 0.5368(2)
H117_2 H 0.0833 0.6723 0.5193
C184_2 C 0.42443(18) 0.4298(4) 0.91734(19)
C185_2 C 0.07565(19) 0.6188(5) 0.5602(2)
C186_2 C 0.0258(2) 0.4379(5) 0.5422(2)
C187_2 C 0.0365(2) 0.6765(5) 0.5873(2)
H119_2 H 0.0239 0.6766 0.6036
C188_2 C 0.4026(2) 0.3916(3) 0.9615(2)
H120_2 H 0.3879 0.3623 0.9682
C189_2 C 0.1792(3) 0.5470(5) 0.5280(2)
H121_2 H 0.1862 0.5225 0.5121
C190_2 C 0.04004(18) 0.2097(4) 0.55812(16)
H122_2 H 0.0549 0.1745 0.5583
C191_2 C 0.2530(3) 0.5856(5) 0.5200(3)
H123_2 H 0.2330 0.5745 0.4990
N10_2 N 0.43531(12) 0.46999(18) 0.76776(12)
N11_2 N 0.42187(13) 0.4270(3) 0.88138(14)
N12_2 N 0.44522(13) 0.4613(3) 0.87530(13)
N13_2 N 0.09653(15) 0.5643(4) 0.55645(17)
N14_2 N 0.42319(14) 0.4305(3) 0.98639(14)
O14_2 O 0.45935(9) 0.41278(17) 0.70870(11)
O20_2 O 0.41876(10) 0.39846(15) 0.65291(11)
O21_2 O 0.36862(11) 0.58777(19) 0.52845(11)
O23_2 O 0.38582(12) 0.56458(19) 0.58934(14)
O24_2 O 0.00269(15) 0.0931(3) 0.55083(14)
Zn4_2 Zn 0.427230(15) 0.48004(3) 0.714770(16)
Zn5_2 Zn 0.400560(15) 0.48336(3) 0.620930(16)
Zn6_2 Zn 0.42277(2) 0.56612(4) 0.53796(2)
N15_2 N 0.42319(14) 0.5695(3) 0.48639(14)
O25_2 O 0.12727(9) 0.03764(16) 0.30337(10)
O26_2 O 0.37273(9) 0.46236(16) 0.69663(10)
O28_2 O 0.43957(9) 0.53826(14) 0.65789(9)
O29_2 O 0.06481(15) 0.0186(2) 0.45497(16)
O30_2 O 0.43519(15) 0.4814(2) 0.54503(16)
O31_2 O 0.14518(9) 0.00169(14) 0.35917(9)
O32_2 O 0.35482(9) 0.49831(14) 0.64083(9)
O34_2 O 0.44241(11) 0.56692(16) 0.71144(10)
O35_2 O 0.05490(10) 0.0390(2) 0.39680(11)
O36_2 O 0.44510(10) 0.4610(2) 0.60320(11)
O38_2 O 0.45198(13) 0.6396(2) 0.55910(11)
H5_2 H 0.0147 0.9918 0.2117
H9_2 H 0.0076 0.9972 0.1534
C27_2 C 0.52947(17) 0.6092(4) 0.4286(2)
C46_2 C 0.30691(19) 0.8714(4) 0.4297(2)
H27_2 H 0.2905 0.8401 0.4165
C49_2 C 0.1794(3) 0.9073(3) 0.4472(2)
C53_2 C 0.2070(2) 0.9133(4) 0.4793(3)
H32_2 H 0.2014 0.9167 0.5001
C60_2 C 0.48664(19) 0.7165(4) 0.43219(19)
C61_2 C 0.1364(2) 0.9210(3) 0.4415(3)
C62_2 C 0.44643(19) 0.7775(4) 0.45909(19)
H38_2 H 0.4476 0.7432 0.4738
C64_2 C 0.55167(18) 0.5511(4) 0.4281(2)
C65_2 C 0.2542(2) 0.9007(4) 0.4528(3)
C67_2 C 0.52608(17) 0.6278(3) 0.46085(17)
H39_2 H 0.5383 0.6045 0.4815
C68_2 C 0.34322(19) 0.8793(4) 0.4267(2)
H40_2 H 0.3508 0.8535 0.4117
C70_2 C 0.3677(2) 0.9260(4) 0.4465(2)
C72_2 C 0.2246(2) 0.8830(3) 0.4191(3)
H43_2 H 0.2310 0.8692 0.3999
C73_2 C 0.46501(18) 0.7722(5) 0.4341(2)
C74_2 C 0.41933(19) 0.9931(5) 0.4431(2)
C75_2 C 0.48943(18) 0.6970(4) 0.39962(18)
H44_2 H 0.4759 0.7192 0.3789
C76_2 C 0.3565(2) 0.9609(4) 0.4691(2)
H45_2 H 0.3733 0.9912 0.4831
C77_2 C 0.51096(18) 0.6473(4) 0.3973(2)
H46_2 H 0.5138 0.6377 0.3758
C78_2 C 0.50537(18) 0.6788(4) 0.46254(19)
H47_2 H 0.5033 0.6894 0.4843
C82_2 C 0.44363(18) 0.8726(5) 0.4160(2)
H51_2 H 0.4423 0.9057 0.4005
C83_2 C 0.1864(2) 0.8875(3) 0.4165(2)
H52_2 H 0.1662 0.8779 0.3953
H53_2 H 0.4745 0.9732 0.4690
C86_2 C 0.2955(2) 0.9079(5) 0.4511(3)
C87_2 C 0.42774(18) 0.8269(4) 0.4632(2)
H55_2 H 0.4167 0.8277 0.4807
C89_2 C 0.42435(19) 0.8812(5) 0.4398(2)
C91_2 C 0.4635(2) 0.8235(5) 0.4127(2)
H57_2 H 0.4761 0.8234 0.3964
C93_2 C 0.3208(3) 0.9530(5) 0.4720(2)
H59_2 H 0.3138 0.9775 0.4879
C95_2 C 0.2470(3) 0.9144(5) 0.4800(3)
H61_2 H 0.2670 0.9255 0.5010
N6_2 N 0.40347(15) 0.9357(4) 0.44355(17)
O4_2 O 0.56481(15) 0.5186(2) 0.45497(16)
O7_2 O 0.55490(10) 0.5390(2) 0.39680(11)
O9_2 O 0.13138(11) 0.91223(19) 0.47155(11)
O11_2 O 0.11418(12) 0.93542(19) 0.41066(14)
Zn3_2 Zn 0.07723(2) 0.93388(4) 0.46204(2)
C105_2 C 0.4699(3) 0.6829(3) 0.70448(19)
H69_2 H 0.4617 0.6766 0.7236
C106_2 C 0.80648(13) 0.9726(2) 0.66488(15)
C107_2 C 0.44614(13) 0.5758(2) 0.68205(16)
C108_2 C 0.51839(15) 0.8116(3) 0.67232(15)
C110_2 C 0.46239(14) 0.6381(2) 0.67804(13)
C111_2 C 0.49743(15) 0.7537(2) 0.67308(15)
C112_2 C 0.84850(15) 0.9788(2) 0.66745(16)
C113_2 C 0.77664(14) 0.9968(2) 0.63667(15)
C114_2 C 0.56046(16) 0.9213(3) 0.67209(18)
C115_2 C 0.74004(14) 0.9954(2) 0.63764(16)
C116_2 C 0.61851(15) 0.9751(2) 0.67015(17)
C117_2 C 0.79859(15) 0.9461(3) 0.69283(15)
H72_2 H 0.8184 0.9289 0.7122
C118_2 C 0.69171(14) 0.9733(2) 0.66653(15)
C124_2 C 0.55902(15) 0.8738(3) 0.64971(17)
H75_2 H 0.5723 0.8778 0.6341
C126_2 C 0.73190(14) 0.9728(2) 0.66561(16)
C132_2 C 0.64246(16) 0.9260(3) 0.6838(2)
H80_2 H 0.6344 0.8934 0.6949
C134_2 C 0.76114(17) 0.9452(3) 0.69192(17)
H82_2 H 0.7559 0.9248 0.7102
C136_2 C 0.67895(15) 0.9239(3) 0.68140(17)
H84_2 H 0.6947 0.8891 0.6899
C139_2 C 0.53976(18) 0.9158(2) 0.69448(19)
H86_2 H 0.5396 0.9487 0.7097
C140_2 C 0.51942(18) 0.8623(3) 0.69445(19)
H87_2 H 0.5057 0.8598 0.7098
C141_2 C 0.53848(14) 0.8186(3) 0.64881(15)
H88_2 H 0.5381 0.7868 0.6328
C145_2 C 0.46754(17) 0.6544(3) 0.64774(16)
H92_2 H 0.4597 0.6273 0.6282
C152_2 C 0.4902(3) 0.7390(3) 0.7025(2)
H96_2 H 0.4985 0.7658 0.7222
C153_2 C 0.48444(18) 0.7113(3) 0.64531(16)
H97_2 H 0.4872 0.7214 0.6237
N9_2 N 0.57999(12) 0.97796(19) 0.67123(15)
O13_2 O 0.87273(9) 0.96236(16) 0.69663(10)
O17_2 O 0.85482(9) 0.99831(14) 0.64083(9)
N16_2 N 0.07681(14) 0.9305(3) 0.51361(14)
O37_2 O 0.04802(13) 0.8604(2) 0.44090(11)
Zn9_2 Zn 0.927230(15) 0.98004(3) 0.714770(16)
Zn12 Zn 0.599440(15) 0.51664(3) 0.379070(16)
Zn14 Zn 0.900560(15) 0.98336(3) 0.620930(16)
C2_2 C 0.69352(13) 0.5274(2) 0.33512(15)
C4_2 C 0.98161(15) 0.6884(3) 0.32768(15)
C8_2 C 0.65150(15) 0.5212(2) 0.33255(16)
C9_2 C 0.72336(14) 0.5032(2) 0.36333(15)
H2_2 H 0.7190 0.4860 0.3829
C10_2 C 0.93954(16) 0.5787(3) 0.32791(18)
C11_2 C 0.75996(14) 0.5046(2) 0.36236(16)
H3_2 H 0.7802 0.4892 0.3820
C12_2 C 0.88149(15) 0.5249(2) 0.32985(17)
C13_2 C 0.70141(15) 0.5539(3) 0.30717(15)
H4_2 H 0.6816 0.5711 0.2878
C14_2 C 0.80829(14) 0.5267(2) 0.33347(15)
C16_2 C 0.83207(14) 0.4778(3) 0.34662(16)
H6_2 H 0.8234 0.4446 0.3568
C17_2 C 0.97642(14) 0.3519(2) 0.32421(17)
C19_2 C 0.99591(15) 0.2927(3) 0.32136(18)
C20_2 C 0.94098(15) 0.6262(3) 0.35029(17)
H7_2 H 0.9277 0.6222 0.3659
C21_2 C 0.99872(15) 0.1907(2) 0.29487(16)
H8_2 H 0.9870 0.1616 0.2769
C22_2 C 0.76810(14) 0.5272(2) 0.33439(16)
C23_2 C 0.93874(15) 0.4646(2) 0.32850(19)
C25_2 C 0.91854(15) 0.4156(3) 0.3058(2)
H10_2 H 0.8925 0.4200 0.2918
C26_2 C 0.93832(16) 0.3601(3) 0.30470(18)
H11_2 H 0.9248 0.3276 0.2900
C28_2 C 0.85754(16) 0.5740(3) 0.3162(2)
H12_2 H 0.8656 0.6066 0.3051
C30_2 C 0.73886(17) 0.5548(3) 0.30808(17)
H14_2 H 0.7441 0.5752 0.2898
C31_2 C 0.98031(16) 0.2476(3) 0.29614(17)
H15_2 H 0.9561 0.2550 0.2788
C32_2 C 0.82105(15) 0.5761(3) 0.31860(17)
H16_2 H 0.8053 0.6109 0.3101
C35_2 C 0.97656(16) 0.4570(3) 0.34744(19)
H17_2 H 0.9907 0.4893 0.3619
C36_2 C 0.96024(18) 0.5842(2) 0.30552(19)
H18_2 H 0.9604 0.5513 0.2903
C37_2 C 0.98058(18) 0.6377(3) 0.30555(19)
H19_2 H 0.9943 0.6402 0.2902
C40_2 C 0.96152(14) 0.6814(3) 0.35119(15)
H22_2 H 0.9619 0.7132 0.3672
C44_2 C 0.86859(15) 0.4750(2) 0.34561(17)
H25_2 H 0.8845 0.4408 0.3552
C48_2 C 0.99461(15) 0.4007(2) 0.34540(19)
N1_2 N 0.92001(12) 0.52204(19) 0.32877(15)
O1_2 O 0.62727(9) 0.53764(16) 0.30337(10)
O5_2 O 0.64518(9) 0.50169(14) 0.35917(9)
C131_2 C 0.97053(17) 0.8908(4) 0.5714(2)
C151_2 C 0.9856(2) 0.1399(5) 0.55615(18)
C156_2 C 0.9811(2) 0.2557(4) 0.55581(17)
H100_2 H 0.9557 0.2515 0.5546
C161_2 C 0.94833(18) 0.9489(4) 0.5719(2)
C164_2 C 0.97392(17) 0.8722(3) 0.53915(17)
H102_2 H 0.9617 0.8955 0.5185
C174_2 C 0.98904(18) 0.8527(4) 0.6027(2)
H109_2 H 0.9862 0.8623 0.6242
C175_2 C 0.99463(18) 0.8212(4) 0.53746(19)
H110_2 H 0.9967 0.8106 0.5157
H118_2 H 0.9992 0.4330 0.5329
C192_2 C 0.99648(18) 0.3171(4) 0.55560(17)
H124_2 H 0.9815 0.3523 0.5551
O16_2 O 0.93519(15) 0.9814(2) 0.54503(16)
O19_2 O 0.94510(10) 0.9610(2) 0.60320(11)
O22_2 O 0.95198(13) 0.1396(2) 0.55910(11)
Zn8_2 Zn 0.572770(15) 0.51996(3) 0.285230(16)
C1_3 C 0.4699(3) 0.3171(3) 0.20448(19)
H1_3 H 0.4617 0.3234 0.2236
C2_3 C 0.80648(13) 0.0274(2) 0.16488(15)
C3_3 C 0.44614(13) 0.4242(2) 0.18205(16)
C4_3 C 0.51839(15) 0.1884(3) 0.17232(15)
C6_3 C 0.46239(14) 0.3619(2) 0.17804(13)
C7_3 C 0.49743(15) 0.2463(2) 0.17308(15)
C8_3 C 0.84850(15) 0.0212(2) 0.16745(16)
C9_3 C 0.77664(14) 0.0032(2) 0.13667(15)
C10_3 C 0.56046(16) 0.0787(3) 0.17209(18)
C11_3 C 0.74004(14) 0.0046(2) 0.13764(16)
C12_3 C 0.61851(15) 0.0249(2) 0.17015(17)
C13_3 C 0.79859(15) 0.0539(3) 0.19283(15)
H4_3 H 0.8184 0.0711 0.2122
C14_3 C 0.69171(14) 0.0267(2) 0.16653(15)
C20_3 C 0.55902(15) 0.1262(3) 0.14971(17)
H7_3 H 0.5723 0.1222 0.1341
C22_3 C 0.73190(14) 0.0272(2) 0.16561(16)
C28_3 C 0.64246(16) 0.0740(3) 0.1838(2)
H12_3 H 0.6344 0.1066 0.1949
C30_3 C 0.76114(17) 0.0548(3) 0.19192(17)
H14_3 H 0.7559 0.0752 0.2102
C32_3 C 0.67895(15) 0.0761(3) 0.18140(17)
H16_3 H 0.6947 0.1109 0.1899
C36_3 C 0.53976(18) 0.0842(2) 0.19448(19)
H18_3 H 0.5396 0.0513 0.2097
C37_3 C 0.51942(18) 0.1377(3) 0.19445(19)
H19_3 H 0.5057 0.1402 0.2098
C40_3 C 0.53848(14) 0.1814(3) 0.14881(15)
H22_3 H 0.5381 0.2132 0.1328
C47_3 C 0.46754(17) 0.3456(3) 0.14774(16)
H28_3 H 0.4597 0.3727 0.1282
C55_3 C 0.4902(3) 0.2610(3) 0.2025(2)
H33_3 H 0.4985 0.2342 0.2222
C56_3 C 0.48444(18) 0.2887(3) 0.14531(16)
H34_3 H 0.4872 0.2786 0.1237
N1_3 N 0.57999(12) 0.02204(19) 0.17123(15)
O3_3 O 0.43957(9) 0.46174(14) 0.15789(9)
O6_3 O 0.44241(11) 0.43308(16) 0.21144(10)
H95_3 H 0.2014 0.0833 0.0001
H123_3 H 0.2670 0.0745 0.0010
H73_3 H 0.0147 0.0082 0.7117
H77_3 H 0.0076 0.0028 0.6534
C131_3 C 0.52947(17) 0.3908(4) 0.9286(2)
C144_3 C 0.30691(19) 0.1286(4) 0.9297(2)
H91_3 H 0.2905 0.1599 0.9165
C147_3 C 0.1794(3) 0.0927(3) 0.9472(2)
C150_3 C 0.2070(2) 0.0867(4) 0.9793(3)
C157_3 C 0.48664(19) 0.2835(4) 0.93219(19)
C158_3 C 0.1364(2) 0.0790(3) 0.9415(3)
C159_3 C 0.44643(19) 0.2225(4) 0.95909(19)
H101_3 H 0.4476 0.2568 0.9738
C161_3 C 0.55167(18) 0.4489(4) 0.9281(2)
C162_3 C 0.2542(2) 0.0993(4) 0.9528(3)
C164_3 C 0.52608(17) 0.3722(3) 0.96085(17)
H102_3 H 0.5383 0.3955 0.9815
C165_3 C 0.34322(19) 0.1207(4) 0.9267(2)
H103_3 H 0.3508 0.1465 0.9117
C167_3 C 0.3677(2) 0.0740(4) 0.9465(2)
C169_3 C 0.2246(2) 0.1170(3) 0.9191(3)
H106_3 H 0.2310 0.1308 0.8999
C170_3 C 0.46501(18) 0.2278(5) 0.9341(2)
C171_3 C 0.41933(19) 0.0069(5) 0.9431(2)
C172_3 C 0.48943(18) 0.3030(4) 0.89962(18)
H107_3 H 0.4759 0.2808 0.8789
C173_3 C 0.3565(2) 0.0391(4) 0.9691(2)
H108_3 H 0.3733 0.0088 0.9831
C174_3 C 0.51096(18) 0.3527(4) 0.8973(2)
H109_3 H 0.5138 0.3623 0.8758
C175_3 C 0.50537(18) 0.3212(4) 0.96254(19)
H110_3 H 0.5033 0.3106 0.9843
C178_3 C 0.44363(18) 0.1274(5) 0.9160(2)
H113_3 H 0.4423 0.0943 0.9005
C179_3 C 0.1864(2) 0.1125(3) 0.9165(2)
H114_3 H 0.1662 0.1221 0.8953
H115_3 H 0.4745 0.0268 0.9690
C182_3 C 0.2955(2) 0.0921(5) 0.9511(3)
C183_3 C 0.42774(18) 0.1731(4) 0.9632(2)
H117_3 H 0.4167 0.1723 0.9807
C185_3 C 0.42435(19) 0.1188(5) 0.9398(2)
C187_3 C 0.4635(2) 0.1765(5) 0.9127(2)
H119_3 H 0.4761 0.1766 0.8964
C189_3 C 0.3208(3) 0.0470(5) 0.9720(2)
H121_3 H 0.3138 0.0225 0.9879
C191_3 C 0.2470(3) 0.0856(5) 0.9800(3)
N13_3 N 0.40347(15) 0.0643(4) 0.94355(17)
O21_3 O 0.13138(11) 0.08777(19) 0.97155(11)
O23_3 O 0.11418(12) 0.06458(19) 0.91066(14)
O28_3 O 0.06043(9) 0.03826(14) 0.84211(9)
O34_3 O 0.05759(11) 0.06692(16) 0.78856(10)
C5_3 C 0.44667(16) 0.6181(2) 0.17984(19)
H2_3 H 0.7810 0.9860 0.1171
H3_3 H 0.7198 0.9892 0.1180
C15_3 C 0.46541(14) 0.5096(3) 0.29412(16)
H5_3 H 0.4853 0.4918 0.2883
C16_3 C 0.66793(14) 0.9778(3) 0.15338(16)
H6_3 H 0.6766 0.9446 0.1432
C17_3 C 0.52358(14) 0.8519(2) 0.17579(17)
C18_3 C 0.46598(15) 0.6788(2) 0.17968(17)
C19_3 C 0.50409(15) 0.7927(3) 0.17864(18)
C21_3 C 0.50128(15) 0.6907(2) 0.20513(16)
H8_3 H 0.5130 0.6616 0.2231
C23_3 C 0.56126(15) 0.9646(2) 0.17150(19)
C24_3 C 0.47004(14) 0.5124(3) 0.32901(15)
H9_3 H 0.4924 0.4972 0.3466
C25_3 C 0.58146(15) 0.9156(3) 0.1942(2)
H10_3 H 0.6075 0.9200 0.2082
C26_3 C 0.56168(16) 0.8601(3) 0.19530(18)
H11_3 H 0.5752 0.8276 0.2100
C29_3 C 0.44908(15) 0.7229(3) 0.15379(19)
H13_3 H 0.4250 0.7141 0.1365
C31_3 C 0.51969(16) 0.7476(3) 0.20386(17)
H15_3 H 0.5439 0.7550 0.2212
C33_3 C 0.44079(15) 0.5383(3) 0.33783(16)
C34_3 C 0.27783(14) 0.7065(3) 0.01956(16)
C35_3 C 0.52344(16) 0.9570(3) 0.15256(19)
H17_3 H 0.5093 0.9893 0.1381
C39_3 C 0.32351(15) 0.5599(3) 0.06824(15)
H21_3 H 0.3156 0.5202 0.0724
C41_3 C 0.29712(15) 0.6006(2) 0.04814(16)
H23_3 H 0.2715 0.5878 0.0385
C42_3 C 0.30635(16) 0.6616(3) 0.04096(16)
C43_3 C 0.46597(16) 0.7786(3) 0.1524(2)
H24_3 H 0.4533 0.8077 0.1348
C44_3 C 0.63141(15) 0.9750(2) 0.15439(17)
H25_3 H 0.6155 0.9408 0.1448
C45_3 C 0.37133(16) 0.6314(3) 0.07566(17)
H26_3 H 0.3973 0.6423 0.0853
C46_3 C 0.19309(19) 0.3714(4) 0.0703(2)
H27_3 H 0.2095 0.3401 0.0835
C48_3 C 0.50539(15) 0.9007(2) 0.15460(19)
H29_3 H 0.4794 0.8962 0.1406
C49_3 C 0.3206(3) 0.4073(3) 0.0528(2)
C50_3 C 0.09053(18) 0.6049(4) 0.07146(19)
H30_3 H 0.1073 0.6381 0.0811
C51_3 C 0.34556(15) 0.6754(3) 0.05490(17)
H31_3 H 0.3544 0.7141 0.0503
C52_3 C 0.0024(2) 0.7959(4) 0.05769(15)
C53_3 C 0.2930(2) 0.4133(4) 0.0207(3)
C57_3 C 0.4085(2) 0.5614(4) 0.31208(18)
H35_3 H 0.3883 0.5789 0.3176
C58_3 C 0.44764(18) 0.5306(4) 0.44240(19)
H36_3 H 0.4639 0.5030 0.4366
C60_3 C 0.01336(19) 0.2165(4) 0.06781(19)
C61_3 C 0.3636(2) 0.4210(3) 0.0585(3)
C62_3 C 0.05357(19) 0.2775(4) 0.04091(19)
H38_3 H 0.0524 0.2432 0.0262
C63_3 C 0.0341(2) 0.6762(5) 0.05612(19)
C65_3 C 0.2458(2) 0.4007(4) 0.0472(3)
C66_3 C 0.0507(2) 0.6142(4) 0.0570(2)
C68_3 C 0.15678(19) 0.3793(4) 0.0733(2)
H40_3 H 0.1492 0.3535 0.0883
C69_3 C 0.10448(18) 0.5439(4) 0.07106(18)
H41_3 H 0.1310 0.5372 0.0808
C70_3 C 0.1323(2) 0.4260(4) 0.0535(2)
C71_3 C 0.44683(18) 0.5316(3) 0.47770(18)
H42_3 H 0.4632 0.5052 0.4951
C72_3 C 0.2754(2) 0.3830(3) 0.0809(3)
H43_3 H 0.2690 0.3692 0.1001
C73_3 C 0.03499(18) 0.2722(5) 0.0659(2)
C74_3 C 0.08067(19) 0.4931(5) 0.0569(2)
C75_3 C 0.01057(18) 0.1970(4) 0.10038(18)
H44_3 H 0.0241 0.2192 0.1211
C76_3 C 0.1435(2) 0.4609(4) 0.0309(2)
H45_3 H 0.1267 0.4912 0.0169
C79_3 C 0.4073(2) 0.5572(4) 0.27643(19)
H48_3 H 0.3862 0.5740 0.2582
C80_3 C 0.40058(19) 0.6103(4) 0.42705(18)
H49_3 H 0.3838 0.6375 0.4105
C81_3 C 0.28270(16) 0.7697(3) 0.02703(16)
H50_3 H 0.3048 0.7833 0.0455
C82_3 C 0.05637(18) 0.3726(5) 0.0840(2)
H51_3 H 0.0577 0.4057 0.0995
C83_3 C 0.3136(2) 0.3875(3) 0.0835(2)
H52_3 H 0.3338 0.3779 0.1047
C84_3 C 0.0420(2) 0.5061(5) 0.0421(2)
H53_3 H 0.0255 0.4732 0.0310
C85_3 C 0.0547(2) 0.7290(5) 0.05832(18)
H54_3 H 0.0803 0.7250 0.0601
C86_3 C 0.2045(2) 0.4079(5) 0.0489(3)
C87_3 C 0.07226(18) 0.3269(4) 0.0368(2)
H55_3 H 0.0833 0.3277 0.0193
C88_3 C 0.42443(18) 0.5702(4) 0.41734(19)
C89_3 C 0.07565(19) 0.3812(5) 0.0602(2)
C90_3 C 0.0258(2) 0.5621(5) 0.0422(2)
C91_3 C 0.0365(2) 0.3235(5) 0.0873(2)
H57_3 H 0.0239 0.3234 0.1036
C92_3 C 0.4026(2) 0.6084(3) 0.4615(2)
H58_3 H 0.3879 0.6377 0.4682
C93_3 C 0.1792(3) 0.4530(5) 0.0280(2)
H59_3 H 0.1862 0.4775 0.0121
C94_3 C 0.04004(18) 0.7903(4) 0.05812(16)
H60_3 H 0.0549 0.8255 0.0583
C95_3 C 0.2530(3) 0.4144(5) 0.0200(3)
N2_3 N 0.43531(12) 0.53001(18) 0.26776(12)
N3_3 N 0.36150(12) 0.5752(2) 0.08263(12)
N4_3 N 0.42187(13) 0.5730(3) 0.38138(14)
N5_3 N 0.44522(13) 0.5387(3) 0.37530(13)
N6_3 N 0.09653(15) 0.4357(4) 0.05645(17)
O2_3 O 0.45935(9) 0.58722(17) 0.20870(11)
O8_3 O 0.41876(10) 0.60154(15) 0.15291(11)
O9_3 O 0.36862(11) 0.41223(19) 0.02845(11)
O11_3 O 0.38582(12) 0.43542(19) 0.08934(14)
O12_3 O 0.00269(15) 0.9069(3) 0.05083(14)
C98_3 C 0.25571(17) 0.8135(3) 0.00779(17)
H63_3 H 0.2599 0.8560 0.0130
C38_3 C 0.24429(17) 0.6865(3) 0.99221(17)
H20_3 H 0.2401 0.6440 0.9870
H32_3 H 0.2986 0.4167 0.9999
H61_3 H 0.2330 0.4255 0.9990
C97_3 C 0.22217(14) 0.7935(3) 0.98044(16)
C99_3 C 0.17649(15) 0.9401(3) 0.93176(15)
H64_3 H 0.1844 0.9798 0.9276
C100_3 C 0.20288(15) 0.8994(2) 0.95186(16)
H65_3 H 0.2285 0.9122 0.9615
C101_3 C 0.19365(16) 0.8384(3) 0.95904(16)
C102_3 C 0.12867(16) 0.8686(3) 0.92434(17)
H66_3 H 0.1027 0.8577 0.9147
C103_3 C 0.15444(15) 0.8246(3) 0.94510(17)
H67_3 H 0.1456 0.7859 0.9497
C104_3 C 0.21730(16) 0.7303(3) 0.97297(16)
H68_3 H 0.1952 0.7167 0.9545
N8_3 N 0.13850(12) 0.9248(2) 0.91737(12)
C105_3 C 0.0301(3) 0.1829(3) 0.79552(19)
H69_3 H 0.0383 0.1766 0.7764
C107_3 C 0.05386(13) 0.0758(2) 0.81795(16)
C109_3 C 0.05333(16) 0.8819(2) 0.82016(19)
C110_3 C 0.03761(14) 0.1381(2) 0.82196(13)
C111_3 C 0.00257(15) 0.2537(2) 0.82692(15)
C119_3 C 0.03459(14) 0.9904(3) 0.70588(16)
C122_3 C 0.03402(15) 0.8212(2) 0.82032(17)
C128_3 C 0.02996(14) 0.9876(3) 0.67099(15)
C133_3 C 0.05092(15) 0.7771(3) 0.84621(19)
H81_3 H 0.0750 0.7859 0.8635
C137_3 C 0.05921(15) 0.9617(3) 0.66217(16)
C142_3 C 0.03403(16) 0.7214(3) 0.8476(2)
H89_3 H 0.0467 0.6923 0.8652
C145_3 C 0.03246(17) 0.1544(3) 0.85226(16)
H92_3 H 0.0403 0.1273 0.8718
H93_3 H 0.0206 0.6038 0.8594
C148_3 C 0.40947(18) 0.8951(4) 0.92854(19)
H94_3 H 0.3927 0.8619 0.9189
C149_3 C 0.4976(2) 0.7041(4) 0.94231(15)
C151_3 C 0.5144(2) 0.6399(5) 0.94385(18)
C152_3 C 0.0098(3) 0.2390(3) 0.7975(2)
H96_3 H 0.0015 0.2658 0.7778
C153_3 C 0.01556(18) 0.2113(3) 0.85469(16)
H97_3 H 0.0128 0.2214 0.8763
C154_3 C 0.0915(2) 0.9386(4) 0.68792(18)
H98_3 H 0.1117 0.9211 0.6824
C155_3 C 0.05236(18) 0.9694(4) 0.55760(19)
H99_3 H 0.0361 0.9970 0.5634
C156_3 C 0.5189(2) 0.7557(4) 0.94419(17)
H100_3 H 0.5443 0.7515 0.9454
C160_3 C 0.4659(2) 0.8238(5) 0.94388(19)
C163_3 C 0.4493(2) 0.8858(4) 0.9430(2)
C166_3 C 0.39552(18) 0.9561(4) 0.92894(18)
H104_3 H 0.3690 0.9628 0.9192
C168_3 C 0.05317(18) 0.9684(3) 0.52230(18)
H105_3 H 0.0368 0.9948 0.5049
C176_3 C 0.0927(2) 0.9428(4) 0.72357(19)
H111_3 H 0.1138 0.9260 0.7418
C177_3 C 0.09942(19) 0.8897(4) 0.57295(18)
H112_3 H 0.1162 0.8625 0.5895
C180_3 C 0.4580(2) 0.9939(5) 0.9579(2)
C181_3 C 0.4453(2) 0.7710(5) 0.94168(18)
H116_3 H 0.4197 0.7750 0.9399
C184_3 C 0.07557(18) 0.9298(4) 0.58266(19)
C186_3 C 0.4742(2) 0.9379(5) 0.9578(2)
H118_3 H 0.5008 0.9330 0.9671
C188_3 C 0.0974(2) 0.8916(3) 0.5385(2)
H120_3 H 0.1121 0.8623 0.5318
C190_3 C 0.45996(18) 0.7097(4) 0.94188(16)
H122_3 H 0.4451 0.6745 0.9417
C192_3 C 0.50352(18) 0.8171(4) 0.94440(17)
H124_3 H 0.5185 0.8523 0.9449
N10_3 N 0.06469(12) 0.96999(18) 0.73224(12)
N11_3 N 0.07813(13) 0.9270(3) 0.61862(14)
N12_3 N 0.05478(13) 0.9613(3) 0.62470(13)
O14_3 O 0.04065(9) 0.91278(17) 0.79130(11)
O20_3 O 0.08124(10) 0.89846(15) 0.84709(11)
O24_3 O 0.49731(15) 0.5931(3) 0.94917(14)
C27_3 C 0.97053(17) 0.1092(4) 0.0714(2)
C54_3 C 0.9856(2) 0.8601(5) 0.05615(18)
C59_3 C 0.9811(2) 0.7443(4) 0.05581(17)
H37_3 H 0.9557 0.7485 0.0546
C64_3 C 0.94833(18) 0.0511(4) 0.0719(2)
C67_3 C 0.97392(17) 0.1278(3) 0.03915(17)
H39_3 H 0.9617 0.1045 0.0185
C77_3 C 0.98904(18) 0.1473(4) 0.1027(2)
H46_3 H 0.9862 0.1377 0.1242
C78_3 C 0.99463(18) 0.1788(4) 0.03746(19)
H47_3 H 0.9967 0.1894 0.0157
H56_3 H 0.9992 0.5670 0.0329
C96_3 C 0.99648(18) 0.6829(4) 0.05560(17)
H62_3 H 0.9815 0.6477 0.0551
C106_3 C 0.69352(13) 0.4726(2) 0.83512(15)
C108_3 C 0.98161(15) 0.3116(3) 0.82768(15)
C112_3 C 0.65150(15) 0.4788(2) 0.83255(16)
C113_3 C 0.72336(14) 0.4968(2) 0.86333(15)
H70_3 H 0.7190 0.5140 0.8829
C114_3 C 0.93954(16) 0.4213(3) 0.82791(18)
C115_3 C 0.75996(14) 0.4954(2) 0.86236(16)
H71_3 H 0.7802 0.5108 0.8820
C116_3 C 0.88149(15) 0.4751(2) 0.82985(17)
C117_3 C 0.70141(15) 0.4461(3) 0.80717(15)
H72_3 H 0.6816 0.4289 0.7878
C118_3 C 0.80829(14) 0.4733(2) 0.83347(15)
C120_3 C 0.83207(14) 0.5222(3) 0.84662(16)
H74_3 H 0.8234 0.5554 0.8568
C121_3 C 0.97642(14) 0.6481(2) 0.82421(17)
C123_3 C 0.99591(15) 0.7073(3) 0.82136(18)
C124_3 C 0.94098(15) 0.3738(3) 0.85029(17)
H75_3 H 0.9277 0.3778 0.8659
C125_3 C 0.99872(15) 0.8093(2) 0.79487(16)
H76_3 H 0.9870 0.8384 0.7769
C126_3 C 0.76810(14) 0.4728(2) 0.83439(16)
C127_3 C 0.93874(15) 0.5354(2) 0.82850(19)
C129_3 C 0.91854(15) 0.5844(3) 0.8058(2)
H78_3 H 0.8925 0.5800 0.7918
C130_3 C 0.93832(16) 0.6399(3) 0.80470(18)
H79_3 H 0.9248 0.6724 0.7900
C132_3 C 0.85754(16) 0.4260(3) 0.8162(2)
H80_3 H 0.8656 0.3934 0.8051
C134_3 C 0.73886(17) 0.4452(3) 0.80808(17)
H82_3 H 0.7441 0.4248 0.7898
C135_3 C 0.98031(16) 0.7524(3) 0.79614(17)
H83_3 H 0.9561 0.7450 0.7788
C136_3 C 0.82105(15) 0.4239(3) 0.81860(17)
H84_3 H 0.8053 0.3891 0.8101
C138_3 C 0.97656(16) 0.5430(3) 0.84744(19)
H85_3 H 0.9907 0.5107 0.8619
C139_3 C 0.96024(18) 0.4158(2) 0.80552(19)
H86_3 H 0.9604 0.4487 0.7903
C140_3 C 0.98058(18) 0.3623(3) 0.80555(19)
H87_3 H 0.9943 0.3598 0.7902
C141_3 C 0.96152(14) 0.3186(3) 0.85119(15)
H88_3 H 0.9619 0.2868 0.8672
C143_3 C 0.86859(15) 0.5250(2) 0.84561(17)
H90_3 H 0.8845 0.5592 0.8552
C146_3 C 0.99461(15) 0.5993(2) 0.84540(19)
N9_3 N 0.92001(12) 0.47796(19) 0.82877(15)
C27_4 C 0.02947(17) 0.1092(4) 0.4286(2)
C54_4 C 0.0144(2) 0.8601(5) 0.44385(18)
C59_4 C 0.0189(2) 0.7443(4) 0.44419(17)
H37_4 H 0.0443 0.7485 0.4454
C64_4 C 0.05167(18) 0.0511(4) 0.4281(2)
C67_4 C 0.02608(17) 0.1278(3) 0.46085(17)
H39_4 H 0.0383 0.1045 0.4815
C77_4 C 0.01096(18) 0.1473(4) 0.3973(2)
H46_4 H 0.0138 0.1377 0.3758
C78_4 C 0.00537(18) 0.1788(4) 0.46254(19)
H47_4 H 0.0033 0.1894 0.4843
H56_4 H 0.0008 0.5670 0.4671
C96_4 C 0.00352(18) 0.6829(4) 0.44440(17)
H62_4 H 0.0185 0.6477 0.4449
C106_4 C 0.30648(13) 0.4726(2) 0.66488(15)
C108_4 C 0.01839(15) 0.3116(3) 0.67232(15)
C112_4 C 0.34850(15) 0.4788(2) 0.66745(16)
C113_4 C 0.27664(14) 0.4968(2) 0.63667(15)
H70_4 H 0.2810 0.5140 0.6171
C114_4 C 0.06046(16) 0.4213(3) 0.67209(18)
C115_4 C 0.24004(14) 0.4954(2) 0.63764(16)
H71_4 H 0.2198 0.5108 0.6180
C116_4 C 0.11851(15) 0.4751(2) 0.67015(17)
C117_4 C 0.29859(15) 0.4461(3) 0.69283(15)
H72_4 H 0.3184 0.4289 0.7122
C118_4 C 0.19171(14) 0.4733(2) 0.66653(15)
C120_4 C 0.16793(14) 0.5222(3) 0.65338(16)
H74_4 H 0.1766 0.5554 0.6432
C121_4 C 0.02358(14) 0.6481(2) 0.67579(17)
C123_4 C 0.00409(15) 0.7073(3) 0.67864(18)
C124_4 C 0.05902(15) 0.3738(3) 0.64971(17)
H75_4 H 0.0723 0.3778 0.6341
C125_4 C 0.00128(15) 0.8093(2) 0.70513(16)
H76_4 H 0.0130 0.8384 0.7231
C126_4 C 0.23190(14) 0.4728(2) 0.66561(16)
C127_4 C 0.06126(15) 0.5354(2) 0.67150(19)
C129_4 C 0.08146(15) 0.5844(3) 0.6942(2)
H78_4 H 0.1075 0.5800 0.7082
C130_4 C 0.06168(16) 0.6399(3) 0.69530(18)
H79_4 H 0.0752 0.6724 0.7100
C132_4 C 0.14246(16) 0.4260(3) 0.6838(2)
H80_4 H 0.1344 0.3934 0.6949
C134_4 C 0.26114(17) 0.4452(3) 0.69192(17)
H82_4 H 0.2559 0.4248 0.7102
C135_4 C 0.01969(16) 0.7524(3) 0.70386(17)
H83_4 H 0.0439 0.7450 0.7212
C136_4 C 0.17895(15) 0.4239(3) 0.68140(17)
H84_4 H 0.1947 0.3891 0.6899
C138_4 C 0.02344(16) 0.5430(3) 0.65256(19)
H85_4 H 0.0093 0.5107 0.6381
C139_4 C 0.03976(18) 0.4158(2) 0.69448(19)
H86_4 H 0.0396 0.4487 0.7097
C140_4 C 0.01942(18) 0.3623(3) 0.69445(19)
H87_4 H 0.0057 0.3598 0.7098
C141_4 C 0.03848(14) 0.3186(3) 0.64881(15)
H88_4 H 0.0381 0.2868 0.6328
C143_4 C 0.13141(15) 0.5250(2) 0.65439(17)
H90_4 H 0.1155 0.5592 0.6448
C146_4 C 0.00539(15) 0.5993(2) 0.65460(19)
N9_4 N 0.07999(12) 0.47796(19) 0.67123(15)
C1_4 C 0.5301(3) 0.3171(3) 0.29552(19)
H1_4 H 0.5383 0.3234 0.2764
C2_4 C 0.19352(13) 0.0274(2) 0.33512(15)
C3_4 C 0.55386(13) 0.4242(2) 0.31795(16)
C4_4 C 0.48161(15) 0.1884(3) 0.32768(15)
C6_4 C 0.53761(14) 0.3619(2) 0.32196(13)
C7_4 C 0.50257(15) 0.2463(2) 0.32692(15)
C8_4 C 0.15150(15) 0.0212(2) 0.33255(16)
C9_4 C 0.22336(14) 0.0032(2) 0.36333(15)
C10_4 C 0.43954(16) 0.0787(3) 0.32791(18)
C11_4 C 0.25996(14) 0.0046(2) 0.36236(16)
C12_4 C 0.38149(15) 0.0249(2) 0.32985(17)
C13_4 C 0.20141(15) 0.0539(3) 0.30717(15)
H4_4 H 0.1816 0.0711 0.2878
C14_4 C 0.30829(14) 0.0267(2) 0.33347(15)
C20_4 C 0.44098(15) 0.1262(3) 0.35029(17)
H7_4 H 0.4277 0.1222 0.3659
C22_4 C 0.26810(14) 0.0272(2) 0.33439(16)
C28_4 C 0.35754(16) 0.0740(3) 0.3162(2)
H12_4 H 0.3656 0.1066 0.3051
C30_4 C 0.23886(17) 0.0548(3) 0.30808(17)
H14_4 H 0.2441 0.0752 0.2898
C32_4 C 0.32105(15) 0.0761(3) 0.31860(17)
H16_4 H 0.3053 0.1109 0.3101
C36_4 C 0.46024(18) 0.0842(2) 0.30552(19)
H18_4 H 0.4604 0.0513 0.2903
C37_4 C 0.48058(18) 0.1377(3) 0.30555(19)
H19_4 H 0.4943 0.1402 0.2902
C40_4 C 0.46152(14) 0.1814(3) 0.35119(15)
H22_4 H 0.4619 0.2132 0.3672
C47_4 C 0.53246(17) 0.3456(3) 0.35226(16)
H28_4 H 0.5403 0.3727 0.3718
C55_4 C 0.5098(3) 0.2610(3) 0.2975(2)
H33_4 H 0.5015 0.2342 0.2778
C56_4 C 0.51556(18) 0.2887(3) 0.35469(16)
H34_4 H 0.5128 0.2786 0.3763
N1_4 N 0.42001(12) 0.02204(19) 0.32877(15)
O3_4 O 0.56043(9) 0.46174(14) 0.34211(9)
O6_4 O 0.55759(11) 0.43308(16) 0.28856(10)
H73_4 H 0.9853 0.0082 0.7883
H77_4 H 0.9924 0.0028 0.8466
C131_4 C 0.47053(17) 0.3908(4) 0.5714(2)
C144_4 C 0.69309(19) 0.1286(4) 0.5703(2)
H91_4 H 0.7095 0.1599 0.5835
C147_4 C 0.8206(3) 0.0927(3) 0.5528(2)
C150_4 C 0.7930(2) 0.0867(4) 0.5207(3)
H95_4 H 0.7986 0.0833 0.4999
C157_4 C 0.51336(19) 0.2835(4) 0.56781(19)
C158_4 C 0.8636(2) 0.0790(3) 0.5585(3)
C159_4 C 0.55357(19) 0.2225(4) 0.54091(19)
H101_4 H 0.5524 0.2568 0.5262
C161_4 C 0.44833(18) 0.4489(4) 0.5719(2)
C162_4 C 0.7458(2) 0.0993(4) 0.5472(3)
C164_4 C 0.47392(17) 0.3722(3) 0.53915(17)
H102_4 H 0.4617 0.3955 0.5185
C165_4 C 0.65678(19) 0.1207(4) 0.5733(2)
H103_4 H 0.6492 0.1465 0.5883
C167_4 C 0.6323(2) 0.0740(4) 0.5535(2)
C169_4 C 0.7754(2) 0.1170(3) 0.5809(3)
H106_4 H 0.7690 0.1308 0.6001
C170_4 C 0.53499(18) 0.2278(5) 0.5659(2)
C171_4 C 0.58067(19) 0.0069(5) 0.5569(2)
C172_4 C 0.51057(18) 0.3030(4) 0.60038(18)
H107_4 H 0.5241 0.2808 0.6211
C173_4 C 0.6435(2) 0.0391(4) 0.5309(2)
H108_4 H 0.6267 0.0088 0.5169
C174_4 C 0.48904(18) 0.3527(4) 0.6027(2)
H109_4 H 0.4862 0.3623 0.6242
C175_4 C 0.49463(18) 0.3212(4) 0.53746(19)
H110_4 H 0.4967 0.3106 0.5157
C178_4 C 0.55637(18) 0.1274(5) 0.5840(2)
H113_4 H 0.5577 0.0943 0.5995
C179_4 C 0.8136(2) 0.1125(3) 0.5835(2)
H114_4 H 0.8338 0.1221 0.6047
H115_4 H 0.5255 0.0268 0.5310
C182_4 C 0.7045(2) 0.0921(5) 0.5489(3)
C183_4 C 0.57226(18) 0.1731(4) 0.5368(2)
H117_4 H 0.5833 0.1723 0.5193
C185_4 C 0.57565(19) 0.1188(5) 0.5602(2)
C187_4 C 0.5365(2) 0.1765(5) 0.5873(2)
H119_4 H 0.5239 0.1766 0.6036
C189_4 C 0.6792(3) 0.0470(5) 0.5280(2)
H121_4 H 0.6862 0.0225 0.5121
C191_4 C 0.7530(3) 0.0856(5) 0.5200(3)
H123_4 H 0.7330 0.0745 0.4990
N13_4 N 0.59653(15) 0.0643(4) 0.55645(17)
O21_4 O 0.86862(11) 0.08777(19) 0.52845(11)
O23_4 O 0.88582(12) 0.06458(19) 0.58934(14)
O28_4 O 0.93957(9) 0.03826(14) 0.65789(9)
O34_4 O 0.94241(11) 0.06692(16) 0.71144(10)
C5_4 C 0.55333(16) 0.6181(2) 0.32016(19)
H2_4 H 0.2190 0.9860 0.3829
H3_4 H 0.2802 0.9892 0.3820
C15_4 C 0.53459(14) 0.5096(3) 0.20588(16)
H5_4 H 0.5147 0.4918 0.2117
C16_4 C 0.33207(14) 0.9778(3) 0.34662(16)
H6_4 H 0.3234 0.9446 0.3568
C17_4 C 0.47642(14) 0.8519(2) 0.32421(17)
C18_4 C 0.53402(15) 0.6788(2) 0.32032(17)
C19_4 C 0.49591(15) 0.7927(3) 0.32136(18)
C21_4 C 0.49872(15) 0.6907(2) 0.29487(16)
H8_4 H 0.4870 0.6616 0.2769
C23_4 C 0.43874(15) 0.9646(2) 0.32850(19)
C24_4 C 0.52996(14) 0.5124(3) 0.17099(15)
H9_4 H 0.5076 0.4972 0.1534
C25_4 C 0.41854(15) 0.9156(3) 0.3058(2)
H10_4 H 0.3925 0.9200 0.2918
C26_4 C 0.43832(16) 0.8601(3) 0.30470(18)
H11_4 H 0.4248 0.8276 0.2900
C29_4 C 0.55092(15) 0.7229(3) 0.34621(19)
H13_4 H 0.5750 0.7141 0.3635
C31_4 C 0.48031(16) 0.7476(3) 0.29614(17)
H15_4 H 0.4561 0.7550 0.2788
C33_4 C 0.55921(15) 0.5383(3) 0.16217(16)
C34_4 C 0.72217(14) 0.7065(3) 0.48044(16)
C35_4 C 0.47656(16) 0.9570(3) 0.34744(19)
H17_4 H 0.4907 0.9893 0.3619
C38_4 C 0.75571(17) 0.6865(3) 0.50779(17)
H20_4 H 0.7599 0.6440 0.5130
C39_4 C 0.67649(15) 0.5599(3) 0.43176(15)
H21_4 H 0.6844 0.5202 0.4276
C41_4 C 0.70288(15) 0.6006(2) 0.45186(16)
H23_4 H 0.7285 0.5878 0.4615
C42_4 C 0.69365(16) 0.6616(3) 0.45904(16)
C43_4 C 0.53403(16) 0.7786(3) 0.3476(2)
H24_4 H 0.5467 0.8077 0.3652
C44_4 C 0.36859(15) 0.9750(2) 0.34561(17)
H25_4 H 0.3845 0.9408 0.3552
C45_4 C 0.62867(16) 0.6314(3) 0.42434(17)
H26_4 H 0.6027 0.6423 0.4147
C46_4 C 0.80691(19) 0.3714(4) 0.4297(2)
H27_4 H 0.7905 0.3401 0.4165
C48_4 C 0.49461(15) 0.9007(2) 0.34540(19)
H29_4 H 0.5206 0.8962 0.3594
C49_4 C 0.6794(3) 0.4073(3) 0.4472(2)
C50_4 C 0.90947(18) 0.6049(4) 0.42854(19)
H30_4 H 0.8927 0.6381 0.4189
C51_4 C 0.65444(15) 0.6754(3) 0.44510(17)
H31_4 H 0.6456 0.7141 0.4497
C52_4 C 0.9976(2) 0.7959(4) 0.44231(15)
C53_4 C 0.7070(2) 0.4133(4) 0.4793(3)
H32_4 H 0.7014 0.4167 0.5001
C57_4 C 0.5915(2) 0.5614(4) 0.18792(18)
H35_4 H 0.6117 0.5789 0.1824
C58_4 C 0.55236(18) 0.5306(4) 0.05760(19)
H36_4 H 0.5361 0.5030 0.0634
C60_4 C 0.98664(19) 0.2165(4) 0.43219(19)
C61_4 C 0.6364(2) 0.4210(3) 0.4415(3)
C62_4 C 0.94643(19) 0.2775(4) 0.45909(19)
H38_4 H 0.9476 0.2432 0.4738
C63_4 C 0.9659(2) 0.6762(5) 0.44388(19)
C65_4 C 0.7542(2) 0.4007(4) 0.4528(3)
C66_4 C 0.9493(2) 0.6142(4) 0.4430(2)
C68_4 C 0.84322(19) 0.3793(4) 0.4267(2)
H40_4 H 0.8508 0.3535 0.4117
C69_4 C 0.89552(18) 0.5439(4) 0.42894(18)
H41_4 H 0.8690 0.5372 0.4192
C70_4 C 0.8677(2) 0.4260(4) 0.4465(2)
C71_4 C 0.55317(18) 0.5316(3) 0.02230(18)
H42_4 H 0.5368 0.5052 0.0049
C72_4 C 0.7246(2) 0.3830(3) 0.4191(3)
H43_4 H 0.7310 0.3692 0.3999
C73_4 C 0.96501(18) 0.2722(5) 0.4341(2)
C74_4 C 0.91933(19) 0.4931(5) 0.4431(2)
C75_4 C 0.98943(18) 0.1970(4) 0.39962(18)
H44_4 H 0.9759 0.2192 0.3789
C76_4 C 0.8565(2) 0.4609(4) 0.4691(2)
H45_4 H 0.8733 0.4912 0.4831
C79_4 C 0.5927(2) 0.5572(4) 0.22357(19)
H48_4 H 0.6138 0.5740 0.2418
C80_4 C 0.59942(19) 0.6103(4) 0.07295(18)
H49_4 H 0.6162 0.6375 0.0895
C81_4 C 0.71730(16) 0.7697(3) 0.47297(16)
H50_4 H 0.6952 0.7833 0.4545
C82_4 C 0.94363(18) 0.3726(5) 0.4160(2)
H51_4 H 0.9423 0.4057 0.4005
C83_4 C 0.6864(2) 0.3875(3) 0.4165(2)
H52_4 H 0.6662 0.3779 0.3953
C84_4 C 0.9580(2) 0.5061(5) 0.4579(2)
H53_4 H 0.9745 0.4732 0.4690
C85_4 C 0.9453(2) 0.7290(5) 0.44168(18)
H54_4 H 0.9197 0.7250 0.4399
C86_4 C 0.7955(2) 0.4079(5) 0.4511(3)
C87_4 C 0.92774(18) 0.3269(4) 0.4632(2)
H55_4 H 0.9167 0.3277 0.4807
C88_4 C 0.57557(18) 0.5702(4) 0.08266(19)
C89_4 C 0.92435(19) 0.3812(5) 0.4398(2)
C90_4 C 0.9742(2) 0.5621(5) 0.4578(2)
C91_4 C 0.9635(2) 0.3235(5) 0.4127(2)
H57_4 H 0.9761 0.3234 0.3964
C92_4 C 0.5974(2) 0.6084(3) 0.0385(2)
H58_4 H 0.6121 0.6377 0.0318
C93_4 C 0.8208(3) 0.4530(5) 0.4720(2)
H59_4 H 0.8138 0.4775 0.4879
C94_4 C 0.95996(18) 0.7903(4) 0.44188(16)
H60_4 H 0.9451 0.8255 0.4417
C95_4 C 0.7470(3) 0.4144(5) 0.4800(3)
H61_4 H 0.7670 0.4255 0.5010
N2_4 N 0.56469(12) 0.53001(18) 0.23224(12)
N3_4 N 0.63850(12) 0.5752(2) 0.41737(12)
N4_4 N 0.57813(13) 0.5730(3) 0.11862(14)
N5_4 N 0.55478(13) 0.5387(3) 0.12470(13)
N6_4 N 0.90347(15) 0.4357(4) 0.44355(17)
O2_4 O 0.54065(9) 0.58722(17) 0.29130(11)
O8_4 O 0.58124(10) 0.60154(15) 0.34709(11)
O9_4 O 0.63138(11) 0.41223(19) 0.47155(11)
O11_4 O 0.61418(12) 0.43542(19) 0.41066(14)
O12_4 O 0.99731(15) 0.9069(3) 0.44917(14)
C97_4 C 0.77783(14) 0.7935(3) 0.51956(16)
C98_4 C 0.74429(17) 0.8135(3) 0.49221(17)
H63_4 H 0.7401 0.8560 0.4870
C99_4 C 0.82351(15) 0.9401(3) 0.56824(15)
H64_4 H 0.8156 0.9798 0.5724
C100_4 C 0.79712(15) 0.8994(2) 0.54814(16)
H65_4 H 0.7715 0.9122 0.5385
C101_4 C 0.80635(16) 0.8384(3) 0.54096(16)
C102_4 C 0.87133(16) 0.8686(3) 0.57566(17)
H66_4 H 0.8973 0.8577 0.5853
C103_4 C 0.84556(15) 0.8246(3) 0.55490(17)
H67_4 H 0.8544 0.7859 0.5503
C104_4 C 0.78270(16) 0.7303(3) 0.52703(16)
H68_4 H 0.8048 0.7167 0.5455
N8_4 N 0.86150(12) 0.9248(2) 0.58263(12)
C105_4 C 0.9699(3) 0.1829(3) 0.70448(19)
H69_4 H 0.9617 0.1766 0.7236
C107_4 C 0.94614(13) 0.0758(2) 0.68205(16)
C109_4 C 0.94667(16) 0.8819(2) 0.67984(19)
C110_4 C 0.96239(14) 0.1381(2) 0.67804(13)
C111_4 C 0.99743(15) 0.2537(2) 0.67308(15)
C119_4 C 0.96541(14) 0.9904(3) 0.79412(16)
C122_4 C 0.96598(15) 0.8212(2) 0.67968(17)
C128_4 C 0.97004(14) 0.9876(3) 0.82901(15)
C133_4 C 0.94908(15) 0.7771(3) 0.65379(19)
H81_4 H 0.9250 0.7859 0.6365
C137_4 C 0.94079(15) 0.9617(3) 0.83783(16)
C142_4 C 0.96597(16) 0.7214(3) 0.6524(2)
H89_4 H 0.9533 0.6923 0.6348
C145_4 C 0.96754(17) 0.1544(3) 0.64774(16)
H92_4 H 0.9597 0.1273 0.6282
H93_4 H 0.9794 0.6038 0.6406
C148_4 C 0.59053(18) 0.8951(4) 0.57146(19)
H94_4 H 0.6073 0.8619 0.5811
C149_4 C 0.5024(2) 0.7041(4) 0.55769(15)
C151_4 C 0.4856(2) 0.6399(5) 0.55615(18)
C152_4 C 0.9902(3) 0.2390(3) 0.7025(2)
H96_4 H 0.9985 0.2658 0.7222
C153_4 C 0.98444(18) 0.2113(3) 0.64531(16)
H97_4 H 0.9872 0.2214 0.6237
C154_4 C 0.9085(2) 0.9386(4) 0.81208(18)
H98_4 H 0.8883 0.9211 0.8176
C155_4 C 0.94764(18) 0.9694(4) 0.94240(19)
H99_4 H 0.9639 0.9970 0.9366
C156_4 C 0.4811(2) 0.7557(4) 0.55581(17)
H100_4 H 0.4557 0.7515 0.5546
C160_4 C 0.5341(2) 0.8238(5) 0.55612(19)
C163_4 C 0.5507(2) 0.8858(4) 0.5570(2)
C166_4 C 0.60448(18) 0.9561(4) 0.57106(18)
H104_4 H 0.6310 0.9628 0.5808
C168_4 C 0.94683(18) 0.9684(3) 0.97770(18)
H105_4 H 0.9632 0.9948 0.9951
C176_4 C 0.9073(2) 0.9428(4) 0.77643(19)
H111_4 H 0.8862 0.9260 0.7582
C177_4 C 0.90058(19) 0.8897(4) 0.92705(18)
H112_4 H 0.8838 0.8625 0.9105
C180_4 C 0.5420(2) 0.9939(5) 0.5421(2)
C181_4 C 0.5547(2) 0.7710(5) 0.55832(18)
H116_4 H 0.5803 0.7750 0.5601
C184_4 C 0.92443(18) 0.9298(4) 0.91734(19)
C186_4 C 0.5258(2) 0.9379(5) 0.5422(2)
H118_4 H 0.4992 0.9330 0.5329
C188_4 C 0.9026(2) 0.8916(3) 0.9615(2)
H120_4 H 0.8879 0.8623 0.9682
C190_4 C 0.54004(18) 0.7097(4) 0.55812(16)
H122_4 H 0.5549 0.6745 0.5583
C192_4 C 0.49648(18) 0.8171(4) 0.55560(17)
H124_4 H 0.4815 0.8523 0.5551
N10_4 N 0.93531(12) 0.96999(18) 0.76776(12)
N11_4 N 0.92187(13) 0.9270(3) 0.88138(14)
N12_4 N 0.94522(13) 0.9613(3) 0.87530(13)
O14_4 O 0.95935(9) 0.91278(17) 0.70870(11)
O20_4 O 0.91876(10) 0.89846(15) 0.65291(11)
O24_4 O 0.50269(15) 0.5931(3) 0.55083(14)
loop_
_geom_bond_atom_site_label_1
_geom_bond_atom_site_label_2
_geom_bond_site_symmetry_1
_geom_bond_site_symmetry_2
C2 C8 1_555 1_555
C8 O1 1_555 1_555
C9 C2 1_555 1_555
H2 C9 1_555 1_555
C10 C20 1_555 1_555
C11 C9 1_555 1_555
H3 C11 1_555 1_555
C12 C28 1_555 1_555
C13 C2 1_555 1_555
H4 C13 1_555 1_555
C14 C16 1_555 1_555
C16 H6 1_555 1_555
C17 C19 1_555 1_555
C19 C31 1_555 1_555
C20 H7 1_555 1_555
C21 H8 1_555 1_555
C22 C11 1_555 1_555
C23 C25 1_555 1_555
C25 H10 1_555 1_555
C26 C17 1_555 1_555
H11 C26 1_555 1_555
C28 H12 1_555 1_555
C30 C13 1_555 1_555
H14 C30 1_555 1_555
C31 C21 1_555 1_555
H15 C31 1_555 1_555
C32 C14 1_555 1_555
H16 C32 1_555 1_555
C35 C23 1_555 1_555
H17 C35 1_555 1_555
C36 C10 1_555 1_555
H18 C36 1_555 1_555
C37 C4 1_555 1_555
H19 C37 1_555 1_555
C40 C4 1_555 1_555
H22 C40 1_555 1_555
C44 C12 1_555 1_555
H25 C44 1_555 1_555
C48 C17 1_555 1_555
N1 C10 1_555 1_555
O1 Zn8 1_555 1_555
O5 C8 1_555 1_555
Zn13 O5 1_555 1_555
C12 N1 1_555 1_555
C14 C22 1_555 1_555
C16 C44 1_555 1_555
C20 C40 1_555 1_555
C22 C30 1_555 1_555
C23 N1 1_555 1_555
C25 C26 1_555 1_555
C28 C32 1_555 1_555
C35 C48 1_555 1_555
C36 C37 1_555 1_555
C131 C161 1_555 1_555
C151 O22 1_555 1_555
H100 C156 1_555 1_555
C161 O16 1_555 1_555
C164 C131 1_555 1_555
H102 C164 1_555 1_555
C174 C131 1_555 1_555
H109 C174 1_555 1_555
H110 C175 1_555 1_555
C192 C156 1_555 1_555
H124 C192 1_555 1_555
O19 C161 1_555 1_555
O22 Zn21 1_555 1_555
Zn15 O19 1_555 1_555
C164 C175 1_555 1_555
C1 H1 1_555 1_555
C3 C6 1_555 1_555
C5 C18 1_555 1_555
C6 C1 1_555 1_555
C7 C55 1_555 1_555
C24 C15 1_555 1_555
C29 C18 1_555 1_555
H13 C29 1_555 1_555
C33 C24 1_555 1_555
C39 H21 1_555 1_555
C41 C39 1_555 1_555
H23 C41 1_555 1_555
C42 C34 1_555 1_555
H24 C43 1_555 1_555
C45 H26 1_555 1_555
C47 C6 1_555 1_555
H28 C47 1_555 1_555
C50 H30 1_555 1_555
C51 C42 1_555 1_555
H31 C51 1_555 1_555
C52 C54 1_555 1_555
C54 O10 1_555 1_555
C55 C1 1_555 1_555
H33 C55 1_555 1_555
C56 C7 1_555 1_555
H34 C56 1_555 1_555
C57 C33 1_555 1_555
H35 C57 1_555 1_555
C58 H36 1_555 1_555
C59 C52 1_555 1_555
H37 C59 1_555 1_555
C63 C66 1_555 1_555
C66 C50 1_555 1_555
C69 C50 1_555 1_555
H41 C69 1_555 1_555
C71 C58 1_555 1_555
H42 C71 1_555 1_555
C79 C57 1_555 1_555
H48 C79 1_555 1_555
C80 H49 1_555 1_555
C81 C34 1_555 1_555
H50 C81 1_555 1_555
C85 C63 1_555 1_555
H54 C85 1_555 1_555
C88 C58 1_555 1_555
C90 C66 1_555 1_555
H56 C90 1_555 1_555
C92 C80 1_555 1_555
H58 C92 1_555 1_555
C94 C52 1_555 1_555
H60 C94 1_555 1_555
C96 C59 1_555 1_555
H62 C96 1_555 1_555
N2 C15 1_555 1_555
N3 C39 1_555 1_555
N4 C88 1_555 1_555
N5 C33 1_555 1_555
N7 C71 1_555 1_555
O2 C5 1_555 1_555
O3 C3 1_555 1_555
O6 C3 1_555 1_555
O8 C5 1_555 1_555
O10 Zn18 1_555 1_555
O12 C54 1_555 1_555
Zn7 N2 1_555 1_555
Zn11 N3 1_555 1_555
C98 C81 1_555 1_555
H63 C98 1_555 1_555
O25 Zn7 1_555 1_555
O31 Zn11 1_555 1_555
O35 Zn11 1_555 1_555
Zn22 N7 1_555 1_555
C29 C43 1_555 1_555
C41 C42 1_555 1_555
C45 C51 1_555 1_555
C45 N3 1_555 1_555
C47 C56 1_555 1_555
C63 C96 1_555 1_555
C79 N2 1_555 1_555
C80 C88 1_555 1_555
C84 C90 1_555 1_555
C85 C94 1_555 1_555
C92 N7 1_555 1_555
N4 N5 1_555 1_555
O2 Zn7 1_555 1_555
O8 Zn11 1_555 1_555
C38 H20 1_555 1_555
C99 H64 1_555 1_555
C100 C99 1_555 1_555
H65 C100 1_555 1_555
C101 C97 1_555 1_555
C102 H66 1_555 1_555
C103 C101 1_555 1_555
H67 C103 1_555 1_555
C104 C38 1_555 1_555
H68 C104 1_555 1_555
N8 C99 1_555 1_555
C109 C122 1_555 1_555
C119 H73 1_555 1_555
C120 H74 1_555 1_555
C121 C123 1_555 1_555
C122 C125 1_555 1_555
C123 C135 1_555 1_555
C125 H76 1_555 1_555
C127 C129 1_555 1_555
C128 C119 1_555 1_555
H77 C128 1_555 1_555
C129 H78 1_555 1_555
C130 C121 1_555 1_555
H79 C130 1_555 1_555
C133 C122 1_555 1_555
H81 C133 1_555 1_555
C135 C125 1_555 1_555
H83 C135 1_555 1_555
C137 C128 1_555 1_555
C138 C127 1_555 1_555
H85 C138 1_555 1_555
C142 C123 1_555 1_555
H89 C142 1_555 1_555
H90 C143 1_555 1_555
C144 H91 1_555 1_555
C146 C121 1_555 1_555
H93 C146 1_555 1_555
C147 C150 1_555 1_555
C148 H94 1_555 1_555
C154 C137 1_555 1_555
H98 C154 1_555 1_555
C155 H99 1_555 1_555
C157 C170 1_555 1_555
C158 C147 1_555 1_555
C159 H101 1_555 1_555
C160 C163 1_555 1_555
C162 C169 1_555 1_555
C163 C148 1_555 1_555
C165 C144 1_555 1_555
H103 C165 1_555 1_555
C166 C148 1_555 1_555
H104 C166 1_555 1_555
C167 C165 1_555 1_555
C168 C155 1_555 1_555
H105 C168 1_555 1_555
C169 H106 1_555 1_555
C170 C159 1_555 1_555
C171 C166 1_555 1_555
C172 C157 1_555 1_555
H107 C172 1_555 1_555
C173 C167 1_555 1_555
H108 C173 1_555 1_555
C176 C154 1_555 1_555
H111 C176 1_555 1_555
C177 H112 1_555 1_555
C178 H113 1_555 1_555
C179 C147 1_555 1_555
H114 C179 1_555 1_555
C180 C171 1_555 1_555
H115 C180 1_555 1_555
C181 C160 1_555 1_555
H116 C181 1_555 1_555
C182 C144 1_555 1_555
C183 C159 1_555 1_555
H117 C183 1_555 1_555
C184 C155 1_555 1_555
C185 C178 1_555 1_555
C186 C163 1_555 1_555
C187 C170 1_555 1_555
H119 C187 1_555 1_555
C188 C177 1_555 1_555
H120 C188 1_555 1_555
C189 C173 1_555 1_555
H121 C189 1_555 1_555
C190 C149 1_555 1_555
H122 C190 1_555 1_555
C191 C150 1_555 1_555
N10 C119 1_555 1_555
N11 C184 1_555 1_555
N12 C137 1_555 1_555
N13 C167 1_555 1_555
N14 C168 1_555 1_555
O14 C109 1_555 1_555
O20 C109 1_555 1_555
O21 C158 1_555 1_555
O23 C158 1_555 1_555
Zn4 N10 1_555 1_555
Zn5 N8 1_555 1_555
Zn6 O21 1_555 1_555
O26 Zn4 1_555 1_555
O28 Zn5 1_555 1_555
O30 Zn6 1_555 1_555
O32 Zn5 1_555 1_555
O34 Zn4 1_555 1_555
O36 Zn5 1_555 1_555
O38 Zn6 1_555 1_555
Zn19 N14 1_555 1_555
C97 C104 1_555 1_555
C100 C101 1_555 1_555
C102 C103 1_555 1_555
C102 N8 1_555 1_555
C120 C143 1_555 1_555
C129 C130 1_555 1_555
C133 C142 1_555 1_555
C138 C146 1_555 1_555
C162 C182 1_555 1_555
C162 C191 1_555 1_555
C169 C179 1_555 1_555
C171 N13 1_555 1_555
C176 N10 1_555 1_555
C177 C184 1_555 1_555
C178 C187 1_555 1_555
C180 C186 1_555 1_555
C181 C190 1_555 1_555
C182 C189 1_555 1_555
C183 C185 1_555 1_555
C185 N13 1_555 1_555
C188 N14 1_555 1_555
N11 N12 1_555 1_555
O14 Zn4 1_555 1_555
O20 Zn5 1_555 1_555
O23 Zn5 1_555 1_555
C27 C64 1_555 1_555
C46 H27 1_555 1_555
C49 C53 1_555 1_555
C60 C73 1_555 1_555
C61 C49 1_555 1_555
C62 H38 1_555 1_555
C64 O4 1_555 1_555
C65 C72 1_555 1_555
C67 C27 1_555 1_555
H39 C67 1_555 1_555
C68 C46 1_555 1_555
H40 C68 1_555 1_555
C70 C68 1_555 1_555
C72 H43 1_555 1_555
C73 C62 1_555 1_555
C75 C60 1_555 1_555
H44 C75 1_555 1_555
C76 C70 1_555 1_555
H45 C76 1_555 1_555
C77 C27 1_555 1_555
H46 C77 1_555 1_555
C78 C60 1_555 1_555
H47 C78 1_555 1_555
C82 H51 1_555 1_555
C83 C49 1_555 1_555
H52 C83 1_555 1_555
C86 C46 1_555 1_555
C87 C62 1_555 1_555
H55 C87 1_555 1_555
C89 C82 1_555 1_555
C91 C73 1_555 1_555
H57 C91 1_555 1_555
C93 C76 1_555 1_555
H59 C93 1_555 1_555
C95 C53 1_555 1_555
N6 C70 1_555 1_555
O4 Zn18 1_555 1_555
O7 C64 1_555 1_555
O9 C61 1_555 1_555
O11 C61 1_555 1_555
Zn3 O9 1_555 1_555
O37 Zn3 1_555 1_555
Zn13 O7 1_555 1_555
C65 C86 1_555 1_555
C65 C95 1_555 1_555
C67 C78 1_555 1_555
C72 C83 1_555 1_555
C74 N6 1_555 1_555
C75 C77 1_555 1_555
C82 C91 1_555 1_555
C86 C93 1_555 1_555
C87 C89 1_555 1_555
C89 N6 1_555 1_555
C105 H69 1_555 1_555
C106 C112 1_555 1_555
C107 C110 1_555 1_555
C108 C111 1_555 1_555
C110 C105 1_555 1_555
C111 C152 1_555 1_555
C112 O13 1_555 1_555
C113 C106 1_555 1_555
C114 C124 1_555 1_555
C115 C113 1_555 1_555
C116 C132 1_555 1_555
C117 C106 1_555 1_555
H72 C117 1_555 1_555
C124 H75 1_555 1_555
C126 C115 1_555 1_555
C132 H80 1_555 1_555
C134 C117 1_555 1_555
H82 C134 1_555 1_555
C136 C118 1_555 1_555
H84 C136 1_555 1_555
C139 C114 1_555 1_555
H86 C139 1_555 1_555
C140 C108 1_555 1_555
H87 C140 1_555 1_555
C141 C108 1_555 1_555
H88 C141 1_555 1_555
C145 C110 1_555 1_555
H92 C145 1_555 1_555
C152 C105 1_555 1_555
H96 C152 1_555 1_555
C153 C111 1_555 1_555
H97 C153 1_555 1_555
N9 C114 1_555 1_555
O13 Zn9 1_555 1_555
O28 C107 1_555 1_555
O17 C112 1_555 1_555
O34 C107 1_555 1_555
Zn15 O17 1_555 1_555
C116 N9 1_555 1_555
C118 C126 1_555 1_555
C124 C141 1_555 1_555
C126 C134 1_555 1_555
C132 C136 1_555 1_555
C139 C140 1_555 1_555
C145 C153 1_555 1_555
C1_2 H1_2 1_555 1_555
C3_2 C6_2 1_555 1_555
C5_2 C18_2 1_555 1_555
C6_2 C1_2 1_555 1_555
C7_2 C55_2 1_555 1_555
C24_2 C15_2 1_555 1_555
C29_2 C18_2 1_555 1_555
H13_2 C29_2 1_555 1_555
C33_2 C24_2 1_555 1_555
C34_2 C38_2 1_555 1_555
C38_2 H20_2 1_555 1_555
C39_2 H21_2 1_555 1_555
C41_2 C39_2 1_555 1_555
H23_2 C41_2 1_555 1_555
C42_2 C34_2 1_555 1_555
H24_2 C43_2 1_555 1_555
C45_2 H26_2 1_555 1_555
C47_2 C6_2 1_555 1_555
H28_2 C47_2 1_555 1_555
C50_2 H30_2 1_555 1_555
C51_2 C42_2 1_555 1_555
H31_2 C51_2 1_555 1_555
C52_2 C54_2 1_555 1_555
C54_2 O10_2 1_555 1_555
C55_2 C1_2 1_555 1_555
H33_2 C55_2 1_555 1_555
C56_2 C7_2 1_555 1_555
H34_2 C56_2 1_555 1_555
C57_2 C33_2 1_555 1_555
H35_2 C57_2 1_555 1_555
C58_2 H36_2 1_555 1_555
C59_2 C52_2 1_555 1_555
H37_2 C59_2 1_555 1_555
C63_2 C66_2 1_555 1_555
C66_2 C50_2 1_555 1_555
C69_2 C50_2 1_555 1_555
H41_2 C69_2 1_555 1_555
C71_2 C58_2 1_555 1_555
H42_2 C71_2 1_555 1_555
C79_2 C57_2 1_555 1_555
H48_2 C79_2 1_555 1_555
C80_2 H49_2 1_555 1_555
C81_2 C34_2 1_555 1_555
H50_2 C81_2 1_555 1_555
C85_2 C63_2 1_555 1_555
H54_2 C85_2 1_555 1_555
C88_2 C58_2 1_555 1_555
C90_2 C66_2 1_555 1_555
H56_2 C90_2 1_555 1_555
C92_2 C80_2 1_555 1_555
H58_2 C92_2 1_555 1_555
C94_2 C52_2 1_555 1_555
H60_2 C94_2 1_555 1_555
C96_2 C59_2 1_555 1_555
H62_2 C96_2 1_555 1_555
N2_2 C15_2 1_555 1_555
N3_2 C39_2 1_555 1_555
N4_2 C88_2 1_555 1_555
N5_2 C33_2 1_555 1_555
N7_2 C71_2 1_555 1_555
O2_2 C5_2 1_555 1_555
O3_2 C3_2 1_555 1_555
O6_2 C3_2 1_555 1_555
O8_2 C5_2 1_555 1_555
O10_2 Zn19 1_555 1_555
O12_2 C54_2 1_555 1_555
Zn7_2 N2_2 1_555 1_555
Zn11_2 N3_2 1_555 1_555
C97_2 C98_2 1_555 1_555
C98_2 C81_2 1_555 1_555
H63_2 C98_2 1_555 1_555
C99_2 H64_2 1_555 1_555
C100_2 C99_2 1_555 1_555
H65_2 C100_2 1_555 1_555
C101_2 C97_2 1_555 1_555
C102_2 H66_2 1_555 1_555
C103_2 C101_2 1_555 1_555
H67_2 C103_2 1_555 1_555
C104_2 C38_2 1_555 1_555
H68_2 C104_2 1_555 1_555
N8_2 C99_2 1_555 1_555
C109_2 C122_2 1_555 1_555
C119_2 H73_2 1_555 1_555
C120_2 H74_2 1_555 1_555
C121_2 C123_2 1_555 1_555
C122_2 C125_2 1_555 1_555
C123_2 C135_2 1_555 1_555
C125_2 H76_2 1_555 1_555
C127_2 C129_2 1_555 1_555
C128_2 C119_2 1_555 1_555
H77_2 C128_2 1_555 1_555
C129_2 H78_2 1_555 1_555
C130_2 C121_2 1_555 1_555
H79_2 C130_2 1_555 1_555
C133_2 C122_2 1_555 1_555
H81_2 C133_2 1_555 1_555
C135_2 C125_2 1_555 1_555
H83_2 C135_2 1_555 1_555
C137_2 C128_2 1_555 1_555
C138_2 C127_2 1_555 1_555
H85_2 C138_2 1_555 1_555
C142_2 C123_2 1_555 1_555
H89_2 C142_2 1_555 1_555
H90_2 C143_2 1_555 1_555
C144_2 H91_2 1_555 1_555
C146_2 C121_2 1_555 1_555
H93_2 C146_2 1_555 1_555
C147_2 C150_2 1_555 1_555
C148_2 H94_2 1_555 1_555
C150_2 H95_2 1_555 1_555
C154_2 C137_2 1_555 1_555
H98_2 C154_2 1_555 1_555
C155_2 H99_2 1_555 1_555
C157_2 C170_2 1_555 1_555
C158_2 C147_2 1_555 1_555
C159_2 H101_2 1_555 1_555
C160_2 C163_2 1_555 1_555
C162_2 C169_2 1_555 1_555
C163_2 C148_2 1_555 1_555
C165_2 C144_2 1_555 1_555
H103_2 C165_2 1_555 1_555
C166_2 C148_2 1_555 1_555
H104_2 C166_2 1_555 1_555
C167_2 C165_2 1_555 1_555
C168_2 C155_2 1_555 1_555
H105_2 C168_2 1_555 1_555
C169_2 H106_2 1_555 1_555
C170_2 C159_2 1_555 1_555
C171_2 C166_2 1_555 1_555
C172_2 C157_2 1_555 1_555
H107_2 C172_2 1_555 1_555
C173_2 C167_2 1_555 1_555
H108_2 C173_2 1_555 1_555
C176_2 C154_2 1_555 1_555
H111_2 C176_2 1_555 1_555
C177_2 H112_2 1_555 1_555
C178_2 H113_2 1_555 1_555
C179_2 C147_2 1_555 1_555
H114_2 C179_2 1_555 1_555
C180_2 C171_2 1_555 1_555
H115_2 C180_2 1_555 1_555
C181_2 C160_2 1_555 1_555
H116_2 C181_2 1_555 1_555
C182_2 C144_2 1_555 1_555
C183_2 C159_2 1_555 1_555
H117_2 C183_2 1_555 1_555
C184_2 C155_2 1_555 1_555
C185_2 C178_2 1_555 1_555
C186_2 C163_2 1_555 1_555
C187_2 C170_2 1_555 1_555
H119_2 C187_2 1_555 1_555
C188_2 C177_2 1_555 1_555
H120_2 C188_2 1_555 1_555
C189_2 C173_2 1_555 1_555
H121_2 C189_2 1_555 1_555
C190_2 C149_2 1_555 1_555
H122_2 C190_2 1_555 1_555
C191_2 C150_2 1_555 1_555
H123_2 C191_2 1_555 1_555
N10_2 C119_2 1_555 1_555
N11_2 C184_2 1_555 1_555
N12_2 C137_2 1_555 1_555
N13_2 C167_2 1_555 1_555
N14_2 C168_2 1_555 1_555
O14_2 C109_2 1_555 1_555
O20_2 C109_2 1_555 1_555
O21_2 C158_2 1_555 1_555
O23_2 C158_2 1_555 1_555
Zn4_2 N10_2 1_555 1_555
Zn5_2 N8_2 1_555 1_555
Zn6_2 O21_2 1_555 1_555
N15_2 Zn6_2 1_555 1_555
O25_2 Zn7_2 1_555 1_555
O26_2 Zn4_2 1_555 1_555
O28_2 Zn5_2 1_555 1_555
O30_2 Zn6_2 1_555 1_555
O31_2 Zn11_2 1_555 1_555
O32_2 Zn5_2 1_555 1_555
O34_2 Zn4_2 1_555 1_555
O35_2 Zn11_2 1_555 1_555
O36_2 Zn5_2 1_555 1_555
O38_2 Zn6_2 1_555 1_555
C29_2 C43_2 1_555 1_555
C41_2 C42_2 1_555 1_555
C45_2 C51_2 1_555 1_555
C45_2 N3_2 1_555 1_555
C47_2 C56_2 1_555 1_555
C63_2 C96_2 1_555 1_555
C79_2 N2_2 1_555 1_555
C80_2 C88_2 1_555 1_555
C84_2 C90_2 1_555 1_555
C85_2 C94_2 1_555 1_555
C92_2 N7_2 1_555 1_555
N4_2 N5_2 1_555 1_555
O2_2 Zn7_2 1_555 1_555
O8_2 Zn11_2 1_555 1_555
C97_2 C104_2 1_555 1_555
C100_2 C101_2 1_555 1_555
C102_2 C103_2 1_555 1_555
C102_2 N8_2 1_555 1_555
C120_2 C143_2 1_555 1_555
C129_2 C130_2 1_555 1_555
C133_2 C142_2 1_555 1_555
C138_2 C146_2 1_555 1_555
C162_2 C182_2 1_555 1_555
C162_2 C191_2 1_555 1_555
C169_2 C179_2 1_555 1_555
C171_2 N13_2 1_555 1_555
C176_2 N10_2 1_555 1_555
C177_2 C184_2 1_555 1_555
C178_2 C187_2 1_555 1_555
C180_2 C186_2 1_555 1_555
C181_2 C190_2 1_555 1_555
C182_2 C189_2 1_555 1_555
C183_2 C185_2 1_555 1_555
C185_2 N13_2 1_555 1_555
C188_2 N14_2 1_555 1_555
N11_2 N12_2 1_555 1_555
O14_2 Zn4_2 1_555 1_555
O20_2 Zn5_2 1_555 1_555
O23_2 Zn5_2 1_555 1_555
C27_2 C64_2 1_555 1_555
C46_2 H27_2 1_555 1_555
C49_2 C53_2 1_555 1_555
C53_2 H32_2 1_555 1_555
C60_2 C73_2 1_555 1_555
C61_2 C49_2 1_555 1_555
C62_2 H38_2 1_555 1_555
C64_2 O4_2 1_555 1_555
C65_2 C72_2 1_555 1_555
C67_2 C27_2 1_555 1_555
H39_2 C67_2 1_555 1_555
C68_2 C46_2 1_555 1_555
H40_2 C68_2 1_555 1_555
C70_2 C68_2 1_555 1_555
C72_2 H43_2 1_555 1_555
C73_2 C62_2 1_555 1_555
C75_2 C60_2 1_555 1_555
H44_2 C75_2 1_555 1_555
C76_2 C70_2 1_555 1_555
H45_2 C76_2 1_555 1_555
C77_2 C27_2 1_555 1_555
H46_2 C77_2 1_555 1_555
C78_2 C60_2 1_555 1_555
H47_2 C78_2 1_555 1_555
C82_2 H51_2 1_555 1_555
C83_2 C49_2 1_555 1_555
H52_2 C83_2 1_555 1_555
C86_2 C46_2 1_555 1_555
C87_2 C62_2 1_555 1_555
H55_2 C87_2 1_555 1_555
C89_2 C82_2 1_555 1_555
C91_2 C73_2 1_555 1_555
H57_2 C91_2 1_555 1_555
C93_2 C76_2 1_555 1_555
H59_2 C93_2 1_555 1_555
C95_2 C53_2 1_555 1_555
H61_2 C95_2 1_555 1_555
N6_2 C70_2 1_555 1_555
O4_2 Zn19 1_555 1_555
O7_2 C64_2 1_555 1_555
O9_2 C61_2 1_555 1_555
O11_2 C61_2 1_555 1_555
Zn3_2 O9_2 1_555 1_555
C105_2 H69_2 1_555 1_555
C106_2 C112_2 1_555 1_555
C107_2 C110_2 1_555 1_555
C108_2 C111_2 1_555 1_555
C110_2 C105_2 1_555 1_555
C111_2 C152_2 1_555 1_555
C112_2 O13_2 1_555 1_555
C113_2 C106_2 1_555 1_555
C114_2 C124_2 1_555 1_555
C115_2 C113_2 1_555 1_555
C116_2 C132_2 1_555 1_555
C117_2 C106_2 1_555 1_555
H72_2 C117_2 1_555 1_555
C124_2 H75_2 1_555 1_555
C126_2 C115_2 1_555 1_555
C132_2 H80_2 1_555 1_555
C134_2 C117_2 1_555 1_555
H82_2 C134_2 1_555 1_555
C136_2 C118_2 1_555 1_555
H84_2 C136_2 1_555 1_555
C139_2 C114_2 1_555 1_555
H86_2 C139_2 1_555 1_555
C140_2 C108_2 1_555 1_555
H87_2 C140_2 1_555 1_555
C141_2 C108_2 1_555 1_555
H88_2 C141_2 1_555 1_555
C145_2 C110_2 1_555 1_555
H92_2 C145_2 1_555 1_555
C152_2 C105_2 1_555 1_555
H96_2 C152_2 1_555 1_555
C153_2 C111_2 1_555 1_555
H97_2 C153_2 1_555 1_555
N9_2 C114_2 1_555 1_555
O13_2 Zn9_2 1_555 1_555
O28_2 C107_2 1_555 1_555
O17_2 C112_2 1_555 1_555
O34_2 C107_2 1_555 1_555
N16_2 Zn3_2 1_555 1_555
O37_2 Zn3_2 1_555 1_555
Zn12 O7_2 1_555 1_555
Zn14 O17_2 1_555 1_555
C65_2 C86_2 1_555 1_555
C65_2 C95_2 1_555 1_555
C67_2 C78_2 1_555 1_555
C72_2 C83_2 1_555 1_555
C74_2 N6_2 1_555 1_555
C75_2 C77_2 1_555 1_555
C82_2 C91_2 1_555 1_555
C86_2 C93_2 1_555 1_555
C87_2 C89_2 1_555 1_555
C89_2 N6_2 1_555 1_555
C116_2 N9_2 1_555 1_555
C118_2 C126_2 1_555 1_555
C124_2 C141_2 1_555 1_555
C126_2 C134_2 1_555 1_555
C132_2 C136_2 1_555 1_555
C139_2 C140_2 1_555 1_555
C145_2 C153_2 1_555 1_555
C2_2 C8_2 1_555 1_555
C8_2 O1_2 1_555 1_555
C9_2 C2_2 1_555 1_555
H2_2 C9_2 1_555 1_555
C10_2 C20_2 1_555 1_555
C11_2 C9_2 1_555 1_555
H3_2 C11_2 1_555 1_555
C12_2 C28_2 1_555 1_555
C13_2 C2_2 1_555 1_555
H4_2 C13_2 1_555 1_555
C14_2 C16_2 1_555 1_555
C16_2 H6_2 1_555 1_555
C17_2 C19_2 1_555 1_555
C19_2 C31_2 1_555 1_555
C20_2 H7_2 1_555 1_555
C21_2 H8_2 1_555 1_555
C22_2 C11_2 1_555 1_555
C23_2 C25_2 1_555 1_555
C25_2 H10_2 1_555 1_555
C26_2 C17_2 1_555 1_555
H11_2 C26_2 1_555 1_555
C28_2 H12_2 1_555 1_555
C30_2 C13_2 1_555 1_555
H14_2 C30_2 1_555 1_555
C31_2 C21_2 1_555 1_555
H15_2 C31_2 1_555 1_555
C32_2 C14_2 1_555 1_555
H16_2 C32_2 1_555 1_555
C35_2 C23_2 1_555 1_555
H17_2 C35_2 1_555 1_555
C36_2 C10_2 1_555 1_555
H18_2 C36_2 1_555 1_555
C37_2 C4_2 1_555 1_555
H19_2 C37_2 1_555 1_555
C40_2 C4_2 1_555 1_555
H22_2 C40_2 1_555 1_555
C44_2 C12_2 1_555 1_555
H25_2 C44_2 1_555 1_555
C48_2 C17_2 1_555 1_555
N1_2 C10_2 1_555 1_555
O1_2 Zn8_2 1_555 1_555
O5_2 C8_2 1_555 1_555
C131_2 C161_2 1_555 1_555
C151_2 O22_2 1_555 1_555
H100_2 C156_2 1_555 1_555
C161_2 O16_2 1_555 1_555
C164_2 C131_2 1_555 1_555
H102_2 C164_2 1_555 1_555
C174_2 C131_2 1_555 1_555
H109_2 C174_2 1_555 1_555
H110_2 C175_2 1_555 1_555
C192_2 C156_2 1_555 1_555
H124_2 C192_2 1_555 1_555
O19_2 C161_2 1_555 1_555
O22_2 Zn22 1_555 1_555
Zn12 O5_2 1_555 1_555
Zn14 O19_2 1_555 1_555
C12_2 N1_2 1_555 1_555
C14_2 C22_2 1_555 1_555
C16_2 C44_2 1_555 1_555
C20_2 C40_2 1_555 1_555
C22_2 C30_2 1_555 1_555
C23_2 N1_2 1_555 1_555
C25_2 C26_2 1_555 1_555
C28_2 C32_2 1_555 1_555
C35_2 C48_2 1_555 1_555
C36_2 C37_2 1_555 1_555
C164_2 C175_2 1_555 1_555
C1_3 H1_3 1_555 1_555
C2_3 C8_3 1_555 1_555
C3_3 C6_3 1_555 1_555
C4_3 C7_3 1_555 1_555
C6_3 C1_3 1_555 1_555
C7_3 C55_3 1_555 1_555
C8_3 O25 1_555 1_555
C9_3 C2_3 1_555 1_555
C10_3 C20_3 1_555 1_555
C11_3 C9_3 1_555 1_555
C12_3 C28_3 1_555 1_555
C13_3 C2_3 1_555 1_555
H4_3 C13_3 1_555 1_555
C20_3 H7_3 1_555 1_555
C22_3 C11_3 1_555 1_555
C28_3 H12_3 1_555 1_555
C30_3 C13_3 1_555 1_555
H14_3 C30_3 1_555 1_555
C32_3 C14_3 1_555 1_555
H16_3 C32_3 1_555 1_555
C36_3 C10_3 1_555 1_555
H18_3 C36_3 1_555 1_555
C37_3 C4_3 1_555 1_555
H19_3 C37_3 1_555 1_555
C40_3 C4_3 1_555 1_555
H22_3 C40_3 1_555 1_555
C47_3 C6_3 1_555 1_555
H28_3 C47_3 1_555 1_555
C55_3 C1_3 1_555 1_555
H33_3 C55_3 1_555 1_555
C56_3 C7_3 1_555 1_555
H34_3 C56_3 1_555 1_555
N1_3 C10_3 1_555 1_555
O3_3 C3_3 1_555 1_555
O31 C8_3 1_555 1_555
O6_3 C3_3 1_555 1_555
Zn8 O6_3 1_555 1_555
Zn13 O3_3 1_555 1_555
C12_3 N1_3 1_555 1_555
C14_3 C22_3 1_555 1_555
C20_3 C40_3 1_555 1_555
C22_3 C30_3 1_555 1_555
C28_3 C32_3 1_555 1_555
C36_3 C37_3 1_555 1_555
C47_3 C56_3 1_555 1_555
C131_3 C161_3 1_555 1_555
C144_3 H91_3 1_555 1_555
C147_3 C150_3 1_555 1_555
C157_3 C170_3 1_555 1_555
C158_3 C147_3 1_555 1_555
C159_3 H101_3 1_555 1_555
C161_3 O30 1_555 1_555
C162_3 C169_3 1_555 1_555
C164_3 C131_3 1_555 1_555
H102_3 C164_3 1_555 1_555
C165_3 C144_3 1_555 1_555
H103_3 C165_3 1_555 1_555
C167_3 C165_3 1_555 1_555
C169_3 H106_3 1_555 1_555
C170_3 C159_3 1_555 1_555
C172_3 C157_3 1_555 1_555
H107_3 C172_3 1_555 1_555
C173_3 C167_3 1_555 1_555
H108_3 C173_3 1_555 1_555
C174_3 C131_3 1_555 1_555
H109_3 C174_3 1_555 1_555
C175_3 C157_3 1_555 1_555
H110_3 C175_3 1_555 1_555
C178_3 H113_3 1_555 1_555
C179_3 C147_3 1_555 1_555
H114_3 C179_3 1_555 1_555
C182_3 C144_3 1_555 1_555
C183_3 C159_3 1_555 1_555
H117_3 C183_3 1_555 1_555
C185_3 C178_3 1_555 1_555
C187_3 C170_3 1_555 1_555
H119_3 C187_3 1_555 1_555
C189_3 C173_3 1_555 1_555
H121_3 C189_3 1_555 1_555
C191_3 C150_3 1_555 1_555
N13_3 C167_3 1_555 1_555
O36 C161_3 1_555 1_555
O21_3 C158_3 1_555 1_555
O23_3 C158_3 1_555 1_555
Zn21 O21_3 1_555 1_555
C162_3 C182_3 1_555 1_555
C162_3 C191_3 1_555 1_555
C164_3 C175_3 1_555 1_555
C169_3 C179_3 1_555 1_555
C171_3 N13_3 1_555 1_555
C172_3 C174_3 1_555 1_555
C178_3 C187_3 1_555 1_555
C182_3 C189_3 1_555 1_555
C183_3 C185_3 1_555 1_555
C185_3 N13_3 1_555 1_555
C5_3 C18_3 1_555 1_555
C15_3 H5_3 1_555 1_555
C16_3 H6_3 1_555 1_555
C17_3 C19_3 1_555 1_555
C18_3 C21_3 1_555 1_555
C19_3 C31_3 1_555 1_555
C21_3 H8_3 1_555 1_555
C23_3 C25_3 1_555 1_555
C24_3 C15_3 1_555 1_555
H9_3 C24_3 1_555 1_555
C25_3 H10_3 1_555 1_555
C26_3 C17_3 1_555 1_555
H11_3 C26_3 1_555 1_555
C29_3 C18_3 1_555 1_555
H13_3 C29_3 1_555 1_555
C31_3 C21_3 1_555 1_555
H15_3 C31_3 1_555 1_555
C33_3 C24_3 1_555 1_555
C35_3 C23_3 1_555 1_555
H17_3 C35_3 1_555 1_555
C39_3 H21_3 1_555 1_555
C41_3 C39_3 1_555 1_555
H23_3 C41_3 1_555 1_555
C42_3 C34_3 1_555 1_555
C43_3 C19_3 1_555 1_555
H24_3 C43_3 1_555 1_555
H25_3 C44_3 1_555 1_555
C45_3 H26_3 1_555 1_555
C46_3 H27_3 1_555 1_555
C48_3 C17_3 1_555 1_555
H29_3 C48_3 1_555 1_555
C49_3 C53_3 1_555 1_555
C50_3 H30_3 1_555 1_555
C51_3 C42_3 1_555 1_555
H31_3 C51_3 1_555 1_555
C57_3 C33_3 1_555 1_555
H35_3 C57_3 1_555 1_555
C58_3 H36_3 1_555 1_555
C60_3 C73_3 1_555 1_555
C61_3 C49_3 1_555 1_555
C62_3 H38_3 1_555 1_555
C63_3 C66_3 1_555 1_555
C65_3 C72_3 1_555 1_555
C66_3 C50_3 1_555 1_555
C68_3 C46_3 1_555 1_555
H40_3 C68_3 1_555 1_555
C69_3 C50_3 1_555 1_555
H41_3 C69_3 1_555 1_555
C70_3 C68_3 1_555 1_555
C71_3 C58_3 1_555 1_555
H42_3 C71_3 1_555 1_555
C72_3 H43_3 1_555 1_555
C73_3 C62_3 1_555 1_555
C74_3 C69_3 1_555 1_555
C75_3 C60_3 1_555 1_555
H44_3 C75_3 1_555 1_555
C76_3 C70_3 1_555 1_555
H45_3 C76_3 1_555 1_555
C79_3 C57_3 1_555 1_555
H48_3 C79_3 1_555 1_555
C80_3 H49_3 1_555 1_555
C81_3 C34_3 1_555 1_555
H50_3 C81_3 1_555 1_555
C82_3 H51_3 1_555 1_555
C83_3 C49_3 1_555 1_555
H52_3 C83_3 1_555 1_555
C84_3 C74_3 1_555 1_555
H53_3 C84_3 1_555 1_555
C85_3 C63_3 1_555 1_555
H54_3 C85_3 1_555 1_555
C86_3 C46_3 1_555 1_555
C87_3 C62_3 1_555 1_555
H55_3 C87_3 1_555 1_555
C88_3 C58_3 1_555 1_555
C89_3 C82_3 1_555 1_555
C90_3 C66_3 1_555 1_555
C91_3 C73_3 1_555 1_555
H57_3 C91_3 1_555 1_555
C92_3 C80_3 1_555 1_555
H58_3 C92_3 1_555 1_555
C93_3 C76_3 1_555 1_555
H59_3 C93_3 1_555 1_555
C94_3 C52_3 1_555 1_555
H60_3 C94_3 1_555 1_555
C95_3 C53_3 1_555 1_555
N2_3 C15_3 1_555 1_555
N3_3 C39_3 1_555 1_555
N4_3 C88_3 1_555 1_555
N5_3 C33_3 1_555 1_555
N6_3 C70_3 1_555 1_555
N15_2 C71_3 1_555 1_555
O2_3 C5_3 1_555 1_555
O8_3 C5_3 1_555 1_555
O9_3 C61_3 1_555 1_555
O11_3 C61_3 1_555 1_555
Zn8 N2_3 1_555 1_555
Zn13 N3_3 1_555 1_555
Zn18 O9_3 1_555 1_555
C98_3 C81_3 1_555 1_555
H63_3 C98_3 1_555 1_555
C16_3 C44_3 1_555 1_555
C25_3 C26_3 1_555 1_555
C29_3 C43_3 1_555 1_555
C35_3 C48_3 1_555 1_555
C41_3 C42_3 1_555 1_555
C45_3 C51_3 1_555 1_555
C45_3 N3_3 1_555 1_555
C65_3 C86_3 1_555 1_555
C65_3 C95_3 1_555 1_555
C72_3 C83_3 1_555 1_555
C74_3 N6_3 1_555 1_555
C79_3 N2_3 1_555 1_555
C80_3 C88_3 1_555 1_555
C82_3 C91_3 1_555 1_555
C84_3 C90_3 1_555 1_555
C85_3 C94_3 1_555 1_555
C86_3 C93_3 1_555 1_555
C87_3 C89_3 1_555 1_555
C89_3 N6_3 1_555 1_555
C92_3 N15_2 1_555 1_555
N4_3 N5_3 1_555 1_555
O2_3 Zn8 1_555 1_555
O8_3 Zn13 1_555 1_555
O11_3 Zn13 1_555 1_555
C38_3 H20_3 1_555 1_555
C99_3 H64_3 1_555 1_555
C100_3 C99_3 1_555 1_555
H65_3 C100_3 1_555 1_555
C101_3 C97_3 1_555 1_555
C102_3 H66_3 1_555 1_555
C103_3 C101_3 1_555 1_555
H67_3 C103_3 1_555 1_555
C104_3 C38_3 1_555 1_555
H68_3 C104_3 1_555 1_555
N8_3 C99_3 1_555 1_555
C105_3 H69_3 1_555 1_555
C107_3 C110_3 1_555 1_555
C109_3 C122_3 1_555 1_555
C110_3 C105_3 1_555 1_555
C111_3 C152_3 1_555 1_555
C128_3 C119_3 1_555 1_555
C133_3 C122_3 1_555 1_555
H81_3 C133_3 1_555 1_555
C137_3 C128_3 1_555 1_555
H89_3 C142_3 1_555 1_555
C145_3 C110_3 1_555 1_555
H92_3 C145_3 1_555 1_555
C148_3 H94_3 1_555 1_555
C149_3 C151_3 1_555 1_555
C151_3 O38 1_555 1_555
C152_3 C105_3 1_555 1_555
H96_3 C152_3 1_555 1_555
C153_3 C111_3 1_555 1_555
H97_3 C153_3 1_555 1_555
C154_3 C137_3 1_555 1_555
H98_3 C154_3 1_555 1_555
C155_3 H99_3 1_555 1_555
C156_3 C149_3 1_555 1_555
H100_3 C156_3 1_555 1_555
C160_3 C163_3 1_555 1_555
C163_3 C148_3 1_555 1_555
C166_3 C148_3 1_555 1_555
H104_3 C166_3 1_555 1_555
C168_3 C155_3 1_555 1_555
H105_3 C168_3 1_555 1_555
C176_3 C154_3 1_555 1_555
H111_3 C176_3 1_555 1_555
C177_3 H112_3 1_555 1_555
C181_3 C160_3 1_555 1_555
H116_3 C181_3 1_555 1_555
C184_3 C155_3 1_555 1_555
C186_3 C163_3 1_555 1_555
H118_3 C186_3 1_555 1_555
C188_3 C177_3 1_555 1_555
H120_3 C188_3 1_555 1_555
C190_3 C149_3 1_555 1_555
H122_3 C190_3 1_555 1_555
C192_3 C156_3 1_555 1_555
H124_3 C192_3 1_555 1_555
N10_3 C119_3 1_555 1_555
N11_3 C184_3 1_555 1_555
N12_3 C137_3 1_555 1_555
N16_2 C168_3 1_555 1_555
O14_3 C109_3 1_555 1_555
O28_3 C107_3 1_555 1_555
O34_3 C107_3 1_555 1_555
O20_3 C109_3 1_555 1_555
O24_3 C151_3 1_555 1_555
Zn9 N10_3 1_555 1_555
Zn15 N8_3 1_555 1_555
C97_3 C104_3 1_555 1_555
C100_3 C101_3 1_555 1_555
C102_3 C103_3 1_555 1_555
C102_3 N8_3 1_555 1_555
C133_3 C142_3 1_555 1_555
C145_3 C153_3 1_555 1_555
C160_3 C192_3 1_555 1_555
C176_3 N10_3 1_555 1_555
C177_3 C184_3 1_555 1_555
C180_3 C186_3 1_555 1_555
C181_3 C190_3 1_555 1_555
C188_3 N16_2 1_555 1_555
N11_3 N12_3 1_555 1_555
O14_3 Zn9 1_555 1_555
O20_3 Zn15 1_555 1_555
C27_3 C64_3 1_555 1_555
C54_3 O37 1_555 1_555
H37_3 C59_3 1_555 1_555
C64_3 O29 1_555 1_555
C67_3 C27_3 1_555 1_555
H39_3 C67_3 1_555 1_555
C77_3 C27_3 1_555 1_555
H46_3 C77_3 1_555 1_555
H47_3 C78_3 1_555 1_555
C96_3 C59_3 1_555 1_555
H62_3 C96_3 1_555 1_555
O35 C64_3 1_555 1_555
C67_3 C78_3 1_555 1_555
C106_3 C112_3 1_555 1_555
C112_3 O26 1_555 1_555
C113_3 C106_3 1_555 1_555
H70_3 C113_3 1_555 1_555
C114_3 C124_3 1_555 1_555
C115_3 C113_3 1_555 1_555
H71_3 C115_3 1_555 1_555
C116_3 C132_3 1_555 1_555
C117_3 C106_3 1_555 1_555
H72_3 C117_3 1_555 1_555
C118_3 C120_3 1_555 1_555
C120_3 H74_3 1_555 1_555
C121_3 C123_3 1_555 1_555
C123_3 C135_3 1_555 1_555
C124_3 H75_3 1_555 1_555
C125_3 H76_3 1_555 1_555
C126_3 C115_3 1_555 1_555
C127_3 C129_3 1_555 1_555
C129_3 H78_3 1_555 1_555
C130_3 C121_3 1_555 1_555
H79_3 C130_3 1_555 1_555
C132_3 H80_3 1_555 1_555
C134_3 C117_3 1_555 1_555
H82_3 C134_3 1_555 1_555
C135_3 C125_3 1_555 1_555
H83_3 C135_3 1_555 1_555
C136_3 C118_3 1_555 1_555
H84_3 C136_3 1_555 1_555
C138_3 C127_3 1_555 1_555
H85_3 C138_3 1_555 1_555
C139_3 C114_3 1_555 1_555
H86_3 C139_3 1_555 1_555
C140_3 C108_3 1_555 1_555
H87_3 C140_3 1_555 1_555
C141_3 C108_3 1_555 1_555
H88_3 C141_3 1_555 1_555
C143_3 C116_3 1_555 1_555
H90_3 C143_3 1_555 1_555
C146_3 C121_3 1_555 1_555
N9_3 C114_3 1_555 1_555
O32 C112_3 1_555 1_555
C116_3 N9_3 1_555 1_555
C118_3 C126_3 1_555 1_555
C120_3 C143_3 1_555 1_555
C124_3 C141_3 1_555 1_555
C126_3 C134_3 1_555 1_555
C127_3 N9_3 1_555 1_555
C129_3 C130_3 1_555 1_555
C132_3 C136_3 1_555 1_555
C138_3 C146_3 1_555 1_555
C139_3 C140_3 1_555 1_555
C27_4 C64_4 1_555 1_555
C54_4 O37_2 1_555 1_555
H37_4 C59_4 1_555 1_555
C64_4 O29_2 1_555 1_555
C67_4 C27_4 1_555 1_555
H39_4 C67_4 1_555 1_555
C77_4 C27_4 1_555 1_555
H46_4 C77_4 1_555 1_555
H47_4 C78_4 1_555 1_555
C96_4 C59_4 1_555 1_555
H62_4 C96_4 1_555 1_555
O35_2 C64_4 1_555 1_555
C106_4 C112_4 1_555 1_555
C112_4 O26_2 1_555 1_555
C113_4 C106_4 1_555 1_555
H70_4 C113_4 1_555 1_555
C114_4 C124_4 1_555 1_555
C115_4 C113_4 1_555 1_555
H71_4 C115_4 1_555 1_555
C116_4 C132_4 1_555 1_555
C117_4 C106_4 1_555 1_555
H72_4 C117_4 1_555 1_555
C118_4 C120_4 1_555 1_555
C120_4 H74_4 1_555 1_555
C121_4 C123_4 1_555 1_555
C123_4 C135_4 1_555 1_555
C124_4 H75_4 1_555 1_555
C125_4 H76_4 1_555 1_555
C126_4 C115_4 1_555 1_555
C127_4 C129_4 1_555 1_555
C129_4 H78_4 1_555 1_555
C130_4 C121_4 1_555 1_555
H79_4 C130_4 1_555 1_555
C132_4 H80_4 1_555 1_555
C134_4 C117_4 1_555 1_555
H82_4 C134_4 1_555 1_555
C135_4 C125_4 1_555 1_555
H83_4 C135_4 1_555 1_555
C136_4 C118_4 1_555 1_555
H84_4 C136_4 1_555 1_555
C138_4 C127_4 1_555 1_555
H85_4 C138_4 1_555 1_555
C139_4 C114_4 1_555 1_555
H86_4 C139_4 1_555 1_555
C140_4 C108_4 1_555 1_555
H87_4 C140_4 1_555 1_555
C141_4 C108_4 1_555 1_555
H88_4 C141_4 1_555 1_555
C143_4 C116_4 1_555 1_555
H90_4 C143_4 1_555 1_555
C146_4 C121_4 1_555 1_555
N9_4 C114_4 1_555 1_555
O32_2 C112_4 1_555 1_555
C67_4 C78_4 1_555 1_555
C116_4 N9_4 1_555 1_555
C118_4 C126_4 1_555 1_555
C120_4 C143_4 1_555 1_555
C124_4 C141_4 1_555 1_555
C126_4 C134_4 1_555 1_555
C127_4 N9_4 1_555 1_555
C129_4 C130_4 1_555 1_555
C132_4 C136_4 1_555 1_555
C138_4 C146_4 1_555 1_555
C139_4 C140_4 1_555 1_555
C1_4 H1_4 1_555 1_555
C2_4 C8_4 1_555 1_555
C3_4 C6_4 1_555 1_555
C4_4 C7_4 1_555 1_555
C6_4 C1_4 1_555 1_555
C7_4 C55_4 1_555 1_555
C8_4 O25_2 1_555 1_555
C9_4 C2_4 1_555 1_555
C10_4 C20_4 1_555 1_555
C11_4 C9_4 1_555 1_555
C12_4 C28_4 1_555 1_555
C13_4 C2_4 1_555 1_555
H4_4 C13_4 1_555 1_555
C20_4 H7_4 1_555 1_555
C22_4 C11_4 1_555 1_555
C28_4 H12_4 1_555 1_555
C30_4 C13_4 1_555 1_555
H14_4 C30_4 1_555 1_555
C32_4 C14_4 1_555 1_555
H16_4 C32_4 1_555 1_555
C36_4 C10_4 1_555 1_555
H18_4 C36_4 1_555 1_555
C37_4 C4_4 1_555 1_555
H19_4 C37_4 1_555 1_555
C40_4 C4_4 1_555 1_555
H22_4 C40_4 1_555 1_555
C47_4 C6_4 1_555 1_555
H28_4 C47_4 1_555 1_555
C55_4 C1_4 1_555 1_555
H33_4 C55_4 1_555 1_555
C56_4 C7_4 1_555 1_555
H34_4 C56_4 1_555 1_555
N1_4 C10_4 1_555 1_555
O3_4 C3_4 1_555 1_555
O31_2 C8_4 1_555 1_555
O6_4 C3_4 1_555 1_555
C131_4 C161_4 1_555 1_555
C144_4 H91_4 1_555 1_555
C147_4 C150_4 1_555 1_555
C150_4 H95_4 1_555 1_555
C157_4 C170_4 1_555 1_555
C158_4 C147_4 1_555 1_555
C159_4 H101_4 1_555 1_555
C161_4 O30_2 1_555 1_555
C162_4 C169_4 1_555 1_555
C164_4 C131_4 1_555 1_555
H102_4 C164_4 1_555 1_555
C165_4 C144_4 1_555 1_555
H103_4 C165_4 1_555 1_555
C167_4 C165_4 1_555 1_555
C169_4 H106_4 1_555 1_555
C170_4 C159_4 1_555 1_555
C172_4 C157_4 1_555 1_555
H107_4 C172_4 1_555 1_555
C173_4 C167_4 1_555 1_555
H108_4 C173_4 1_555 1_555
C174_4 C131_4 1_555 1_555
H109_4 C174_4 1_555 1_555
C175_4 C157_4 1_555 1_555
H110_4 C175_4 1_555 1_555
C178_4 H113_4 1_555 1_555
C179_4 C147_4 1_555 1_555
H114_4 C179_4 1_555 1_555
C182_4 C144_4 1_555 1_555
C183_4 C159_4 1_555 1_555
H117_4 C183_4 1_555 1_555
C185_4 C178_4 1_555 1_555
C187_4 C170_4 1_555 1_555
H119_4 C187_4 1_555 1_555
C189_4 C173_4 1_555 1_555
H121_4 C189_4 1_555 1_555
C191_4 C150_4 1_555 1_555
H123_4 C191_4 1_555 1_555
N13_4 C167_4 1_555 1_555
O36_2 C161_4 1_555 1_555
O21_4 C158_4 1_555 1_555
O23_4 C158_4 1_555 1_555
Zn22 O21_4 1_555 1_555
Zn8_2 O6_4 1_555 1_555
Zn12 O3_4 1_555 1_555
C12_4 N1_4 1_555 1_555
C14_4 C22_4 1_555 1_555
C20_4 C40_4 1_555 1_555
C22_4 C30_4 1_555 1_555
C28_4 C32_4 1_555 1_555
C36_4 C37_4 1_555 1_555
C47_4 C56_4 1_555 1_555
C162_4 C182_4 1_555 1_555
C162_4 C191_4 1_555 1_555
C164_4 C175_4 1_555 1_555
C169_4 C179_4 1_555 1_555
C171_4 N13_4 1_555 1_555
C172_4 C174_4 1_555 1_555
C178_4 C187_4 1_555 1_555
C182_4 C189_4 1_555 1_555
C183_4 C185_4 1_555 1_555
C185_4 N13_4 1_555 1_555
C5_4 C18_4 1_555 1_555
C15_4 H5_4 1_555 1_555
C16_4 H6_4 1_555 1_555
C17_4 C19_4 1_555 1_555
C18_4 C21_4 1_555 1_555
C19_4 C31_4 1_555 1_555
C21_4 H8_4 1_555 1_555
C23_4 C25_4 1_555 1_555
C24_4 C15_4 1_555 1_555
H9_4 C24_4 1_555 1_555
C25_4 H10_4 1_555 1_555
C26_4 C17_4 1_555 1_555
H11_4 C26_4 1_555 1_555
C29_4 C18_4 1_555 1_555
H13_4 C29_4 1_555 1_555
C31_4 C21_4 1_555 1_555
H15_4 C31_4 1_555 1_555
C33_4 C24_4 1_555 1_555
C34_4 C38_4 1_555 1_555
C35_4 C23_4 1_555 1_555
H17_4 C35_4 1_555 1_555
C38_4 H20_4 1_555 1_555
C39_4 H21_4 1_555 1_555
C41_4 C39_4 1_555 1_555
H23_4 C41_4 1_555 1_555
C42_4 C34_4 1_555 1_555
C43_4 C19_4 1_555 1_555
H24_4 C43_4 1_555 1_555
H25_4 C44_4 1_555 1_555
C45_4 H26_4 1_555 1_555
C46_4 H27_4 1_555 1_555
C48_4 C17_4 1_555 1_555
H29_4 C48_4 1_555 1_555
C49_4 C53_4 1_555 1_555
C50_4 H30_4 1_555 1_555
C51_4 C42_4 1_555 1_555
H31_4 C51_4 1_555 1_555
C53_4 H32_4 1_555 1_555
C57_4 C33_4 1_555 1_555
H35_4 C57_4 1_555 1_555
C58_4 H36_4 1_555 1_555
C60_4 C73_4 1_555 1_555
C61_4 C49_4 1_555 1_555
C62_4 H38_4 1_555 1_555
C63_4 C66_4 1_555 1_555
C65_4 C72_4 1_555 1_555
C66_4 C50_4 1_555 1_555
C68_4 C46_4 1_555 1_555
H40_4 C68_4 1_555 1_555
C69_4 C50_4 1_555 1_555
H41_4 C69_4 1_555 1_555
C70_4 C68_4 1_555 1_555
C71_4 C58_4 1_555 1_555
H42_4 C71_4 1_555 1_555
C72_4 H43_4 1_555 1_555
C73_4 C62_4 1_555 1_555
C74_4 C69_4 1_555 1_555
C75_4 C60_4 1_555 1_555
H44_4 C75_4 1_555 1_555
C76_4 C70_4 1_555 1_555
H45_4 C76_4 1_555 1_555
C79_4 C57_4 1_555 1_555
H48_4 C79_4 1_555 1_555
C80_4 H49_4 1_555 1_555
C81_4 C34_4 1_555 1_555
H50_4 C81_4 1_555 1_555
C82_4 H51_4 1_555 1_555
C83_4 C49_4 1_555 1_555
H52_4 C83_4 1_555 1_555
C84_4 C74_4 1_555 1_555
H53_4 C84_4 1_555 1_555
C85_4 C63_4 1_555 1_555
H54_4 C85_4 1_555 1_555
C86_4 C46_4 1_555 1_555
C87_4 C62_4 1_555 1_555
H55_4 C87_4 1_555 1_555
C88_4 C58_4 1_555 1_555
C89_4 C82_4 1_555 1_555
C90_4 C66_4 1_555 1_555
C91_4 C73_4 1_555 1_555
H57_4 C91_4 1_555 1_555
C92_4 C80_4 1_555 1_555
H58_4 C92_4 1_555 1_555
C93_4 C76_4 1_555 1_555
H59_4 C93_4 1_555 1_555
C94_4 C52_4 1_555 1_555
H60_4 C94_4 1_555 1_555
C95_4 C53_4 1_555 1_555
H61_4 C95_4 1_555 1_555
N2_4 C15_4 1_555 1_555
N3_4 C39_4 1_555 1_555
N4_4 C88_4 1_555 1_555
N5_4 C33_4 1_555 1_555
N6_4 C70_4 1_555 1_555
N15 C71_4 1_555 1_555
O2_4 C5_4 1_555 1_555
O8_4 C5_4 1_555 1_555
O9_4 C61_4 1_555 1_555
O11_4 C61_4 1_555 1_555
Zn8_2 N2_4 1_555 1_555
Zn12 N3_4 1_555 1_555
Zn19 O9_4 1_555 1_555
C97_4 C98_4 1_555 1_555
C98_4 C81_4 1_555 1_555
H63_4 C98_4 1_555 1_555
C99_4 H64_4 1_555 1_555
C100_4 C99_4 1_555 1_555
H65_4 C100_4 1_555 1_555
C101_4 C97_4 1_555 1_555
C102_4 H66_4 1_555 1_555
C103_4 C101_4 1_555 1_555
H67_4 C103_4 1_555 1_555
C104_4 C38_4 1_555 1_555
H68_4 C104_4 1_555 1_555
N8_4 C99_4 1_555 1_555
C105_4 H69_4 1_555 1_555
C107_4 C110_4 1_555 1_555
C109_4 C122_4 1_555 1_555
C110_4 C105_4 1_555 1_555
C111_4 C152_4 1_555 1_555
C128_4 C119_4 1_555 1_555
C133_4 C122_4 1_555 1_555
H81_4 C133_4 1_555 1_555
C137_4 C128_4 1_555 1_555
H89_4 C142_4 1_555 1_555
C145_4 C110_4 1_555 1_555
H92_4 C145_4 1_555 1_555
C148_4 H94_4 1_555 1_555
C149_4 C151_4 1_555 1_555
C151_4 O38_2 1_555 1_555
C152_4 C105_4 1_555 1_555
H96_4 C152_4 1_555 1_555
C153_4 C111_4 1_555 1_555
H97_4 C153_4 1_555 1_555
C154_4 C137_4 1_555 1_555
H98_4 C154_4 1_555 1_555
C155_4 H99_4 1_555 1_555
C156_4 C149_4 1_555 1_555
H100_4 C156_4 1_555 1_555
C160_4 C163_4 1_555 1_555
C163_4 C148_4 1_555 1_555
C166_4 C148_4 1_555 1_555
H104_4 C166_4 1_555 1_555
C168_4 C155_4 1_555 1_555
H105_4 C168_4 1_555 1_555
C176_4 C154_4 1_555 1_555
H111_4 C176_4 1_555 1_555
C177_4 H112_4 1_555 1_555
C181_4 C160_4 1_555 1_555
H116_4 C181_4 1_555 1_555
C184_4 C155_4 1_555 1_555
C186_4 C163_4 1_555 1_555
H118_4 C186_4 1_555 1_555
C188_4 C177_4 1_555 1_555
H120_4 C188_4 1_555 1_555
C190_4 C149_4 1_555 1_555
H122_4 C190_4 1_555 1_555
C192_4 C156_4 1_555 1_555
H124_4 C192_4 1_555 1_555
N10_4 C119_4 1_555 1_555
N11_4 C184_4 1_555 1_555
N12_4 C137_4 1_555 1_555
N16 C168_4 1_555 1_555
O14_4 C109_4 1_555 1_555
O28_4 C107_4 1_555 1_555
O34_4 C107_4 1_555 1_555
O20_4 C109_4 1_555 1_555
O24_4 C151_4 1_555 1_555
Zn9_2 N10_4 1_555 1_555
Zn14 N8_4 1_555 1_555
C16_4 C44_4 1_555 1_555
C25_4 C26_4 1_555 1_555
C29_4 C43_4 1_555 1_555
C35_4 C48_4 1_555 1_555
C41_4 C42_4 1_555 1_555
C45_4 C51_4 1_555 1_555
C45_4 N3_4 1_555 1_555
C65_4 C86_4 1_555 1_555
C65_4 C95_4 1_555 1_555
C72_4 C83_4 1_555 1_555
C74_4 N6_4 1_555 1_555
C79_4 N2_4 1_555 1_555
C80_4 C88_4 1_555 1_555
C82_4 C91_4 1_555 1_555
C84_4 C90_4 1_555 1_555
C85_4 C94_4 1_555 1_555
C86_4 C93_4 1_555 1_555
C87_4 C89_4 1_555 1_555
C89_4 N6_4 1_555 1_555
C92_4 N15 1_555 1_555
N4_4 N5_4 1_555 1_555
O2_4 Zn8_2 1_555 1_555
O8_4 Zn12 1_555 1_555
O11_4 Zn12 1_555 1_555
C97_4 C104_4 1_555 1_555
C100_4 C101_4 1_555 1_555
C102_4 C103_4 1_555 1_555
C102_4 N8_4 1_555 1_555
C133_4 C142_4 1_555 1_555
C145_4 C153_4 1_555 1_555
C160_4 C192_4 1_555 1_555
C176_4 N10_4 1_555 1_555
C177_4 C184_4 1_555 1_555
C180_4 C186_4 1_555 1_555
C181_4 C190_4 1_555 1_555
C188_4 N16 1_555 1_555
N11_4 N12_4 1_555 1_555
O14_4 Zn9_2 1_555 1_555
O20_4 Zn14 1_555 1_555

#END
