
###############################################################################
#
# This file contains modified crystal structure data generated from the
# MOF subset of the Cambridge Structural Database (CSD) v543 
# hosted by the Cambridge Crystallographic Data Centre (CCDC).
#
# This work is licensed under the Creative Commons
# Attribution-NonCommercial-ShareAlike 4.0 International License.
# To view a copy of this license, visit
# http://creativecommons.org/licenses/by-nc-sa/4.0/
# or send a letter to
# Creative Commons, PO Box 1866, Mountain View, CA 94042, USA.
#
# CIF created using the CSD Python API on 29 September 2022
# The structure has been converted into the P1 space group
# The structure has a 3D framework
# The original CSD entry HURFEH is in the orthorhombic crystal system
# The original CSD entry HURFEH is in a Sohncke space group
# The framework has been calculated to contain at least 10.0% void space
# The void calculation uses a probe of radius 1.32A, grid spacing 0.4
#
###############################################################################

data_HURFEH
_chemical_formula_moiety         '(C144 H136 N48 O50 Zn19)n'
_symmetry_cell_setting           triclinic
_symmetry_space_group_name_H-M   'P 1'
_symmetry_Int_Tables_number      1
_space_group_name_Hall           'P 1'
loop_
_symmetry_equiv_pos_site_id
_symmetry_equiv_pos_as_xyz
1 x,y,z
_cell_length_a                   15.4775(9)
_cell_length_b                   19.1313(12)
_cell_length_c                   25.5440(15)
_cell_angle_alpha                90
_cell_angle_beta                 90
_cell_angle_gamma                90
_cell_volume                     7563.7
loop_
_atom_site_label
_atom_site_type_symbol
_atom_site_fract_x
_atom_site_fract_y
_atom_site_fract_z
Zn4 Zn 0.04100(5) 0.03939(4) 0.79745(3)
O8 O 0.1515(3) 0.0288(3) 0.7540(2)
O9 O 0.0165(4) 0.1256(3) 0.7507(2)
O10 O 0.0058(4) 0.0695(3) 0.6745(2)
O11 O 0.0198(4) 0.3868(3) 0.7488(2)
H8 H 0.4891 0.0137 0.4282
C24 C 0.2485(5) 0.0091(4) 0.6847(3)
C26 C 0.2944(5) 0.0708(4) 0.6957(3)
H23 H 0.2732 0.1019 0.7206
C27 C 0.3711(5) 0.0858(5) 0.6697(4)
C28 C 0.4021(5) 0.0386(5) 0.6319(3)
H24 H 0.4529 0.0483 0.6139
C29 C 0.0090(5) 0.1241(4) 0.7013(3)
C30 C 0.0050(6) 0.1919(4) 0.6733(3)
C31 C 0.0038(5) 0.2551(4) 0.7009(3)
H25 H 0.0103 0.2553 0.7371
N11 N 0.4148(6) 0.1463(5) 0.6813(4)
H30 H 0.3947 0.1745 0.7045
H31 H 0.4623 0.1559 0.6654
Zn11 Zn 0.01766(5) 0.46935(4) 0.79982(3)
N14 N 0.0823(4) 0.0892(3) 0.8631(2)
Zn1 Zn 0.44326(5) 0.66128(4) 0.51702(3)
Zn2 Zn 0.43403(5) 0.83707(4) 0.51801(3)
Zn3 Zn 0.30836(5) 0.74104(4) 0.44199(3)
O5 O 0.3499(5) 0.8724(4) 0.5729(3)
O6 O 0.4592(4) 0.9401(4) 0.5568(2)
O7 O 0.1132(3) 0.9540(3) 0.6908(2)
N1 N 0.5529(4) 0.7179(3) 0.5281(2)
N2 N 0.5504(4) 0.7900(3) 0.5283(2)
N3 N 0.6822(4) 0.7568(3) 0.5493(2)
N4 N 0.4169(4) 0.8659(3) 0.4427(2)
N5 N 0.3610(4) 0.8275(3) 0.4117(2)
N6 N 0.4177(4) 0.9108(3) 0.3631(2)
N7 N 0.4315(4) 0.6268(3) 0.4428(2)
N8 N 0.3665(4) 0.6565(3) 0.4129(2)
N9 N 0.4358(4) 0.5793(3) 0.3648(2)
C1 C 0.6634(6) 0.6268(4) 0.5441(5)
H1 H 0.6149 0.5957 0.5408
H2 H 0.6910 0.6193 0.5772
H3 H 0.7038 0.6179 0.5164
C2 C 0.6329(5) 0.7004(4) 0.5408(3)
C3 C 0.6291(4) 0.8118(4) 0.5408(3)
C4 C 0.6574(5) 0.8857(4) 0.5436(4)
H4 H 0.6853 0.8985 0.5114
H5 H 0.6971 0.8914 0.5721
H6 H 0.6080 0.9152 0.5491
C5 C 0.5139(6) 0.9678(5) 0.4303(3)
H7 H 0.5295 0.9579 0.4659
H9 H 0.5645 0.9657 0.4087
C6 C 0.4493(5) 0.9149(4) 0.4117(3)
C7 C 0.3633(5) 0.8563(4) 0.3646(3)
C8 C 0.3091(6) 0.8319(5) 0.3196(3)
H10 H 0.2728 0.7941 0.3309
H11 H 0.3459 0.8161 0.2918
H12 H 0.2738 0.8698 0.3074
C9 C 0.5457(6) 0.5377(5) 0.4304(3)
H13 H 0.5986 0.5614 0.4220
H14 H 0.5441 0.4935 0.4126
H15 H 0.5425 0.5302 0.4675
C10 C 0.4715(5) 0.5810(4) 0.4134(3)
C11 C 0.3713(5) 0.6261(4) 0.3665(3)
C12 C 0.3111(6) 0.6407(5) 0.3226(3)
H16 H 0.2735 0.6786 0.3320
H17 H 0.2774 0.5998 0.3153
H18 H 0.3437 0.6533 0.2920
C21 C 0.3910(6) 0.9277(5) 0.5817(3)
C22 C 0.3568(5) 0.9771(4) 0.6213(3)
C23 C 0.2793(5) 0.9625(4) 0.6475(3)
H22 H 0.2487 0.9219 0.6399
C25 C 0.1641(5) 0.9956(4) 0.7122(3)
O13 O 0.3664(3) 0.7443(3) 0.51107(16)
H34 H 0.3260 0.7541 0.5325
Zn7 Zn 0.80836(5) 0.75896(4) 0.55801(3)
Zn8 Zn 0.45900(5) 0.96061(4) 0.29745(3)
Zn10 Zn 0.48234(5) 0.53065(4) 0.29982(3)
O14 O 0.4446(4) 0.6058(3) 0.5797(2)
O16 O 0.0451(4) 0.9370(3) 0.8202(2)
N13 N 0.1822(4) 0.7432(3) 0.4507(2)
O1 O 0.5554(4) 0.1058(3) 0.9203(2)
O2 O 0.6890(4) 0.0881(4) 0.9479(2)
O3 O 0.9119(3) 0.0369(3) 0.8123(2)
O4 O 0.8699(4) 0.0045(3) 0.7322(2)
O12 O 0.9549(4) 0.4370(3) 0.6798(2)
C13 C 0.6345(5) 0.0859(4) 0.9131(3)
C14 C 0.6560(5) 0.0625(5) 0.8582(3)
C15 C 0.7431(5) 0.0535(4) 0.8449(3)
H19 H 0.7864 0.0602 0.8696
C16 C 0.7634(5) 0.0342(4) 0.7938(3)
C17 C 0.8556(5) 0.0249(4) 0.7783(3)
C18 C 0.6982(6) 0.0250(5) 0.7575(3)
H20 H 0.7125 0.0123 0.7234
C19 C 0.6133(6) 0.0342(6) 0.7703(4)
C20 C 0.5925(6) 0.0531(5) 0.8213(3)
H21 H 0.5350 0.0595 0.8305
C32 C 0.9929(6) 0.3176(4) 0.6739(3)
C33 C 0.9888(5) 0.3858(4) 0.7029(3)
C34 C 0.9859(8) 0.3179(5) 0.6195(4)
H26 H 0.9765 0.3596 0.6018
C35 C 0.9931(9) 0.2553(5) 0.5918(3)
C36 C 0.9994(8) 0.1919(5) 0.6187(3)
H27 H 0.9999 0.1499 0.6003
N10 N 0.5481(6) 0.0228(6) 0.7329(3)
H28 H 0.5616 0.0100 0.7017
H29 H 0.4947 0.0286 0.7413
N12 N 0.9879(11) 0.2563(6) 0.5366(3)
H32 H 0.9886 0.2177 0.5193
H33 H 0.9840 0.2955 0.5202
Zn6 Zn 0.55674(5) 0.16128(4) 0.98298(3)
Zn9 Zn 0.95900(5) 0.53939(4) 0.70255(3)
Zn5 Zn 0.98234(5) 0.96935(4) 0.70018(3)
O15 O 0.9802(4) 0.8868(3) 0.7512(2)
N15 N 0.9358(4) 0.9207(3) 0.6352(2)
Zn1_2 Zn 0.05674(5) 0.33872(4) 0.01702(3)
Zn2_2 Zn 0.06597(5) 0.16293(4) 0.01801(3)
Zn5_2 Zn 0.51766(5) 0.03065(4) 0.20018(3)
O5_2 O 0.1501(5) 0.1276(4) 0.0729(3)
O6_2 O 0.0408(4) 0.0599(4) 0.0568(2)
O7_2 O 0.3868(3) 0.0460(3) 0.1908(2)
C21_2 C 0.1090(6) 0.0723(5) 0.0817(3)
C22_2 C 0.1432(5) 0.0229(4) 0.1213(3)
C23_2 C 0.2207(5) 0.0375(4) 0.1475(3)
H22_2 H 0.2513 0.0781 0.1399
C25_2 C 0.3359(5) 0.0044(4) 0.2122(3)
O13_2 O 0.1336(3) 0.2557(3) 0.01107(16)
H34_2 H 0.1740 0.2459 0.0325
O14_2 O 0.0554(4) 0.3942(3) 0.0797(2)
O15_2 O 0.5198(4) 0.1132(3) 0.2512(2)
O16_2 O 0.4549(4) 0.0630(3) 0.3202(2)
N15_2 N 0.5642(4) 0.0793(3) 0.1352(2)
Zn3_2 Zn 0.19164(5) 0.25896(4) 0.94199(3)
N4_2 N 0.0831(4) 0.1341(3) 0.9427(2)
N5_2 N 0.1390(4) 0.1725(3) 0.9117(2)
N7_2 N 0.0685(4) 0.3732(3) 0.9428(2)
N8_2 N 0.1335(4) 0.3435(3) 0.9129(2)
N9_2 N 0.0642(4) 0.4207(3) 0.8648(2)
C6_2 C 0.0507(5) 0.0851(4) 0.9117(3)
C7_2 C 0.1367(5) 0.1437(4) 0.8646(3)
C8_2 C 0.1909(6) 0.1681(5) 0.8196(3)
H10_2 H 0.2272 0.2059 0.8309
H11_2 H 0.1541 0.1839 0.7918
H12_2 H 0.2262 0.1302 0.8074
C10_2 C 0.0285(5) 0.4190(4) 0.9134(3)
C11_2 C 0.1287(5) 0.3739(4) 0.8665(3)
C12_2 C 0.1889(6) 0.3593(5) 0.8226(3)
H16_2 H 0.2265 0.3214 0.8320
H17_2 H 0.2226 0.4002 0.8153
H18_2 H 0.1563 0.3467 0.7920
N13_2 N 0.3178(4) 0.2568(3) 0.9507(2)
O1_2 O 0.9446(4) 0.8942(3) 0.4203(2)
O2_2 O 0.8110(4) 0.9119(4) 0.4479(2)
O3_2 O 0.5881(3) 0.9631(3) 0.3123(2)
O4_2 O 0.6301(4) 0.9955(3) 0.2322(2)
O8_2 O 0.3485(3) 0.9712(3) 0.2540(2)
O9_2 O 0.4835(4) 0.8744(3) 0.2507(2)
O10_2 O 0.4942(4) 0.9305(3) 0.1745(2)
O11_2 O 0.4802(4) 0.6132(3) 0.2488(2)
O12_2 O 0.5451(4) 0.5630(3) 0.1798(2)
C13_2 C 0.8655(5) 0.9141(4) 0.4131(3)
C14_2 C 0.8440(5) 0.9375(5) 0.3582(3)
C15_2 C 0.7569(5) 0.9465(4) 0.3449(3)
H19_2 H 0.7136 0.9398 0.3696
C16_2 C 0.7366(5) 0.9658(4) 0.2938(3)
C17_2 C 0.6444(5) 0.9751(4) 0.2783(3)
C18_2 C 0.8018(6) 0.9750(5) 0.2575(3)
H20_2 H 0.7875 0.9877 0.2234
C19_2 C 0.8867(6) 0.9658(6) 0.2703(4)
C20_2 C 0.9075(6) 0.9469(5) 0.3213(3)
H21_2 H 0.9650 0.9405 0.3305
C24_2 C 0.2515(5) 0.9909(4) 0.1847(3)
C26_2 C 0.2056(5) 0.9292(4) 0.1957(3)
H23_2 H 0.2268 0.8981 0.2206
C27_2 C 0.1289(5) 0.9142(5) 0.1697(4)
C28_2 C 0.0979(5) 0.9614(5) 0.1319(3)
H24_2 H 0.0471 0.9517 0.1139
C29_2 C 0.4910(5) 0.8759(4) 0.2013(3)
C30_2 C 0.4950(6) 0.8081(4) 0.1733(3)
C31_2 C 0.4962(5) 0.7449(4) 0.2009(3)
H25_2 H 0.4897 0.7447 0.2371
C32_2 C 0.5071(6) 0.6824(4) 0.1739(3)
C33_2 C 0.5112(5) 0.6142(4) 0.2029(3)
C34_2 C 0.5141(8) 0.6821(5) 0.1195(4)
H26_2 H 0.5235 0.6404 0.1018
C35_2 C 0.5069(9) 0.7447(5) 0.0918(3)
C36_2 C 0.5006(8) 0.8081(5) 0.1187(3)
H27_2 H 0.5001 0.8501 0.1003
N10_2 N 0.9519(6) 0.9772(6) 0.2329(3)
H28_2 H 0.9384 0.9900 0.2017
N11_2 N 0.0852(6) 0.8537(5) 0.1813(4)
H30_2 H 0.1053 0.8255 0.2045
H31_2 H 0.0377 0.8441 0.1654
N12_2 N 0.5121(11) 0.7437(6) 0.0366(3)
H32_2 H 0.5114 0.7823 0.0193
H33_2 H 0.5160 0.7045 0.0202
Zn6_2 Zn 0.94326(5) 0.83872(4) 0.48298(3)
Zn9_2 Zn 0.54100(5) 0.46061(4) 0.20255(3)
N1_2 N 0.9471(4) 0.2821(3) 0.0281(2)
N2_2 N 0.9496(4) 0.2100(3) 0.0283(2)
N3_2 N 0.8178(4) 0.2432(3) 0.0493(2)
C1_2 C 0.8366(6) 0.3732(4) 0.0441(5)
H1_2 H 0.8851 0.4043 0.0408
H2_2 H 0.8090 0.3807 0.0772
H3_2 H 0.7962 0.3821 0.0164
C2_2 C 0.8671(5) 0.2996(4) 0.0408(3)
C3_2 C 0.8709(4) 0.1882(4) 0.0408(3)
C4_2 C 0.8426(5) 0.1143(4) 0.0436(4)
H4_2 H 0.8147 0.1015 0.0114
H5_2 H 0.8029 0.1086 0.0721
H6_2 H 0.8920 0.0848 0.0491
Zn7_2 Zn 0.69164(5) 0.24104(4) 0.05801(3)
N1_3 N 0.0529(4) 0.7821(3) 0.4719(2)
N2_3 N 0.0504(4) 0.7100(3) 0.4717(2)
C1_3 C 0.1634(6) 0.8732(4) 0.4559(5)
H1_3 H 0.1149 0.9043 0.4592
H2_3 H 0.1910 0.8807 0.4228
H3_3 H 0.2038 0.8821 0.4836
C2_3 C 0.1329(5) 0.7996(4) 0.4592(3)
C3_3 C 0.1291(4) 0.6882(4) 0.4592(3)
C4_3 C 0.1574(5) 0.6143(4) 0.4564(4)
H4_3 H 0.1853 0.6015 0.4886
H5_3 H 0.1971 0.6086 0.4279
H6_3 H 0.1080 0.5848 0.4509
C5_2 C 0.0139(6) 0.5322(5) 0.5697(3)
H7_2 H 0.0295 0.5421 0.5341
H9_2 H 0.0645 0.5343 0.5913
C9_2 C 0.0457(6) 0.9623(5) 0.5696(3)
H13_2 H 0.0986 0.9386 0.5780
H15_2 H 0.0425 0.9698 0.5325
Zn2_3 Zn 0.93403(5) 0.66293(4) 0.48199(3)
O2_3 O 0.1890(4) 0.4119(4) 0.0521(2)
O3_3 O 0.4119(3) 0.4631(3) 0.1877(2)
O4_3 O 0.3699(4) 0.4955(3) 0.2678(2)
O5_3 O 0.8499(5) 0.6276(4) 0.4271(3)
O6_3 O 0.9592(4) 0.5599(4) 0.4432(2)
O7_3 O 0.6132(3) 0.5460(3) 0.3092(2)
O8_3 O 0.6515(3) 0.4712(3) 0.2460(2)
O9_3 O 0.5165(4) 0.3744(3) 0.2493(2)
O10_3 O 0.5058(4) 0.4305(3) 0.3255(2)
N4_3 N 0.9169(4) 0.6341(3) 0.5573(2)
N5_3 N 0.8610(4) 0.6725(3) 0.5883(2)
N6_2 N 0.9177(4) 0.5892(3) 0.6369(2)
N7_3 N 0.9315(4) 0.8732(3) 0.5572(2)
N8_3 N 0.8665(4) 0.8435(3) 0.5871(2)
H8_2 H 0.9891 0.4863 0.5718
C6_3 C 0.9493(5) 0.5851(4) 0.5883(3)
C7_3 C 0.8633(5) 0.6437(4) 0.6354(3)
C8_3 C 0.8091(6) 0.6681(5) 0.6804(3)
H10_3 H 0.7728 0.7059 0.6691
H11_3 H 0.8459 0.6839 0.7082
H12_3 H 0.7738 0.6302 0.6926
C10_3 C 0.9715(5) 0.9190(4) 0.5866(3)
C11_3 C 0.8713(5) 0.8739(4) 0.6335(3)
C12_3 C 0.8111(6) 0.8593(5) 0.6774(3)
H16_3 H 0.7735 0.8214 0.6680
H17_3 H 0.7774 0.9002 0.6847
H18_3 H 0.8437 0.8467 0.7080
C13_3 C 0.1345(5) 0.4141(4) 0.0869(3)
C14_3 C 0.1560(5) 0.4375(5) 0.1418(3)
C15_3 C 0.2431(5) 0.4465(4) 0.1551(3)
H19_3 H 0.2864 0.4398 0.1304
C16_3 C 0.2634(5) 0.4658(4) 0.2062(3)
C17_3 C 0.3556(5) 0.4751(4) 0.2217(3)
C18_3 C 0.1982(6) 0.4750(5) 0.2425(3)
H20_3 H 0.2125 0.4877 0.2766
C19_3 C 0.1133(6) 0.4658(6) 0.2297(4)
C20_3 C 0.0925(6) 0.4469(5) 0.1787(3)
H21_3 H 0.0350 0.4405 0.1695
C21_3 C 0.8910(6) 0.5723(5) 0.4183(3)
C22_3 C 0.8568(5) 0.5229(4) 0.3787(3)
C23_3 C 0.7793(5) 0.5375(4) 0.3525(3)
H22_3 H 0.7487 0.5781 0.3601
C24_3 C 0.7485(5) 0.4909(4) 0.3153(3)
C25_3 C 0.6641(5) 0.5044(4) 0.2878(3)
C26_3 C 0.7944(5) 0.4292(4) 0.3043(3)
H23_3 H 0.7732 0.3981 0.2794
C27_3 C 0.8711(5) 0.4142(5) 0.3303(4)
C28_3 C 0.9021(5) 0.4614(5) 0.3681(3)
H24_3 H 0.9529 0.4517 0.3861
C29_3 C 0.5090(5) 0.3759(4) 0.2987(3)
C30_3 C 0.5050(6) 0.3081(4) 0.3267(3)
C31_3 C 0.5038(5) 0.2449(4) 0.2991(3)
H25_3 H 0.5103 0.2447 0.2629
C32_3 C 0.4929(6) 0.1824(4) 0.3261(3)
C33_3 C 0.4888(5) 0.1142(4) 0.2971(3)
C34_3 C 0.4859(8) 0.1821(5) 0.3805(4)
H26_3 H 0.4765 0.1404 0.3982
C35_3 C 0.4931(9) 0.2447(5) 0.4082(3)
C36_3 C 0.4994(8) 0.3081(5) 0.3813(3)
H27_3 H 0.4999 0.3501 0.3997
N10_3 N 0.0481(6) 0.4772(6) 0.2671(3)
H28_3 H 0.0616 0.4900 0.2983
N11_3 N 0.9148(6) 0.3537(5) 0.3187(4)
H30_3 H 0.8947 0.3255 0.2955
H31_3 H 0.9623 0.3441 0.3346
N12_3 N 0.4879(11) 0.2437(6) 0.4634(3)
H32_3 H 0.4886 0.2823 0.4807
H33_3 H 0.4840 0.2045 0.4798
O13_3 O 0.8664(3) 0.7557(3) 0.48893(16)
H34_3 H 0.8260 0.7459 0.4675
N14_2 N 0.5823(4) 0.4108(3) 0.1369(2)
O2_4 O 0.3110(4) 0.5881(4) 0.5521(2)
O3_4 O 0.0881(3) 0.5369(3) 0.6877(2)
O4_4 O 0.1301(4) 0.5045(3) 0.7678(2)
C13_4 C 0.3655(5) 0.5859(4) 0.5869(3)
C14_4 C 0.3440(5) 0.5625(5) 0.6418(3)
C15_4 C 0.2569(5) 0.5535(4) 0.6551(3)
H19_4 H 0.2136 0.5602 0.6304
C16_4 C 0.2366(5) 0.5342(4) 0.7062(3)
C17_4 C 0.1444(5) 0.5249(4) 0.7217(3)
C18_4 C 0.3018(6) 0.5250(5) 0.7425(3)
H20_4 H 0.2875 0.5123 0.7766
C19_4 C 0.3867(6) 0.5342(6) 0.7297(4)
C20_4 C 0.4075(6) 0.5531(5) 0.6787(3)
H21_4 H 0.4650 0.5595 0.6695
C32_4 C 0.0071(6) 0.8176(4) 0.8261(3)
C33_4 C 0.0112(5) 0.8858(4) 0.7971(3)
C34_4 C 0.0141(8) 0.8179(5) 0.8805(4)
H26_4 H 0.0235 0.8596 0.8982
C35_4 C 0.0069(9) 0.7553(5) 0.9082(3)
C36_4 C 0.0006(8) 0.6919(5) 0.8813(3)
H27_4 H 0.0001 0.6499 0.8997
N10_4 N 0.4519(6) 0.5228(6) 0.7671(3)
H28_4 H 0.4384 0.5100 0.7983
H29_2 H 0.5053 0.5286 0.7587
N12_4 N 0.0121(11) 0.7563(6) 0.9634(3)
H32_4 H 0.0114 0.7177 0.9807
H33_4 H 0.0160 0.7955 0.9798
N4_4 N 0.5831(4) 0.3659(3) 0.0573(2)
N5_4 N 0.6390(4) 0.3275(3) 0.0883(2)
N7_4 N 0.5685(4) 0.1268(3) 0.0572(2)
N8_4 N 0.6335(4) 0.1565(3) 0.0871(2)
C5_3 C 0.4861(6) 0.4678(5) 0.0697(3)
H7_3 H 0.4705 0.4579 0.0341
H8_3 H 0.5109 0.5137 0.0718
H9_3 H 0.4355 0.4657 0.0913
C6_4 C 0.5507(5) 0.4149(4) 0.0883(3)
C7_4 C 0.6367(5) 0.3563(4) 0.1354(3)
C8_4 C 0.6909(6) 0.3319(5) 0.1804(3)
H10_4 H 0.7272 0.2941 0.1691
H11_4 H 0.6541 0.3161 0.2082
H12_4 H 0.7262 0.3698 0.1926
C9_3 C 0.4543(6) 0.0377(5) 0.0696(3)
H13_3 H 0.4014 0.0614 0.0780
H15_3 H 0.4575 0.0302 0.0325
C10_4 C 0.5285(5) 0.0810(4) 0.0866(3)
C11_4 C 0.6287(5) 0.1261(4) 0.1335(3)
C12_4 C 0.6889(6) 0.1407(5) 0.1774(3)
H16_4 H 0.7265 0.1786 0.1680
H17_4 H 0.7226 0.0998 0.1847
H18_4 H 0.6563 0.1533 0.2080
Zn2_4 Zn 0.56597(5) 0.33707(4) 0.98199(3)
O5_4 O 0.6501(5) 0.3724(4) 0.9271(3)
O6_4 O 0.5408(4) 0.4401(4) 0.9432(2)
O7_4 O 0.8868(3) 0.4540(3) 0.8092(2)
O8_4 O 0.8485(3) 0.5288(3) 0.7460(2)
O9_4 O 0.9835(4) 0.6256(3) 0.7493(2)
O10_4 O 0.9942(4) 0.5695(3) 0.8255(2)
N1_4 N 0.4471(4) 0.2179(3) 0.9719(2)
N2_4 N 0.4496(4) 0.2900(3) 0.9717(2)
C1_4 C 0.3366(6) 0.1268(4) 0.9559(5)
H1_4 H 0.3851 0.0957 0.9592
H2_4 H 0.3090 0.1193 0.9228
H3_4 H 0.2962 0.1179 0.9836
C2_4 C 0.3671(5) 0.2004(4) 0.9592(3)
C3_4 C 0.3709(4) 0.3118(4) 0.9592(3)
C4_4 C 0.3426(5) 0.3857(4) 0.9564(4)
H4_4 H 0.3147 0.3985 0.9886
H5_4 H 0.3029 0.3914 0.9279
H6_4 H 0.3920 0.4152 0.9509
C21_4 C 0.6090(6) 0.4277(5) 0.9183(3)
C22_4 C 0.6432(5) 0.4771(4) 0.8787(3)
C23_4 C 0.7207(5) 0.4625(4) 0.8525(3)
H22_4 H 0.7513 0.4219 0.8601
C24_4 C 0.7515(5) 0.5091(4) 0.8153(3)
C25_4 C 0.8359(5) 0.4956(4) 0.7878(3)
C26_4 C 0.7056(5) 0.5708(4) 0.8043(3)
H23_4 H 0.7268 0.6019 0.7794
C27_4 C 0.6289(5) 0.5858(5) 0.8303(4)
C28_4 C 0.5979(5) 0.5386(5) 0.8681(3)
H24_4 H 0.5471 0.5483 0.8861
C29_4 C 0.9910(5) 0.6241(4) 0.7987(3)
C30_4 C 0.9950(6) 0.6919(4) 0.8267(3)
C31_4 C 0.9962(5) 0.7551(4) 0.7991(3)
H25_4 H 0.9897 0.7553 0.7629
N11_4 N 0.5852(6) 0.6463(5) 0.8187(4)
H30_4 H 0.6053 0.6745 0.7955
H31_4 H 0.5377 0.6559 0.8346
O13_4 O 0.6336(3) 0.2443(3) 0.98893(16)
H34_4 H 0.6740 0.2541 0.9675
H29_3 H 0.0053 0.9714 0.2413
H8_4 H 0.0109 0.9863 0.9282
C5_4 C 0.9861(6) 0.0322(5) 0.9303(3)
H7_4 H 0.9705 0.0421 0.9659
H9_4 H 0.9355 0.0343 0.9087
C9_4 C 0.9543(6) 0.4623(5) 0.9304(3)
H13_4 H 0.9014 0.4386 0.9220
H14_2 H 0.9559 0.5065 0.9126
H15_4 H 0.9575 0.4698 0.9675
H14_3 H 0.0441 0.0065 0.5874
H29_4 H 0.9947 0.4714 0.2587
H14_4 H 0.4559 0.9935 0.0874
loop_
_geom_bond_atom_site_label_1
_geom_bond_atom_site_label_2
_geom_bond_site_symmetry_1
_geom_bond_site_symmetry_2
O8 Zn4 1_555 1_555
O9 Zn4 1_555 1_555
C26 C24 1_555 1_555
H23 C26 1_555 1_555
C27 C26 1_555 1_555
H24 C28 1_555 1_555
C29 O9 1_555 1_555
C30 C29 1_555 1_555
C31 C30 1_555 1_555
H25 C31 1_555 1_555
N11 C27 1_555 1_555
H30 N11 1_555 1_555
H31 N11 1_555 1_555
Zn11 O11 1_555 1_555
N14 Zn4 1_555 1_555
O10 C29 1_555 1_555
C27 C28 1_555 1_555
Zn1 N1 1_555 1_555
Zn2 O5 1_555 1_555
Zn3 N5 1_555 1_555
O5 C21 1_555 1_555
O6 Zn2 1_555 1_555
N1 N2 1_555 1_555
N2 Zn2 1_555 1_555
N3 C2 1_555 1_555
N4 Zn2 1_555 1_555
N5 N4 1_555 1_555
N6 C6 1_555 1_555
N7 Zn1 1_555 1_555
N8 Zn3 1_555 1_555
N9 C10 1_555 1_555
C1 H1 1_555 1_555
H2 C1 1_555 1_555
H3 C1 1_555 1_555
C2 N1 1_555 1_555
C3 N2 1_555 1_555
C4 C3 1_555 1_555
H4 C4 1_555 1_555
H5 C4 1_555 1_555
H6 C4 1_555 1_555
C5 H7 1_555 1_555
H9 C5 1_555 1_555
C6 N4 1_555 1_555
C7 N5 1_555 1_555
C8 C7 1_555 1_555
H10 C8 1_555 1_555
H11 C8 1_555 1_555
H12 C8 1_555 1_555
C9 H13 1_555 1_555
H14 C9 1_555 1_555
H15 C9 1_555 1_555
C10 N7 1_555 1_555
C11 N8 1_555 1_555
C12 C11 1_555 1_555
H16 C12 1_555 1_555
H17 C12 1_555 1_555
H18 C12 1_555 1_555
C21 O6 1_555 1_555
C22 C21 1_555 1_555
C23 C22 1_555 1_555
H22 C23 1_555 1_555
C25 O7 1_555 1_555
O13 Zn1 1_555 1_555
H34 O13 1_555 1_555
Zn7 N3 1_555 1_555
Zn8 N6 1_555 1_555
Zn10 N9 1_555 1_555
O14 Zn1 1_555 1_555
N13 Zn3 1_555 1_555
Zn2 O13 1_555 1_555
Zn3 O13 1_555 1_555
N3 C3 1_555 1_555
N6 C7 1_555 1_555
N7 N8 1_555 1_555
N9 C11 1_555 1_555
C1 C2 1_555 1_555
C5 C6 1_555 1_555
C9 C10 1_555 1_555
O1 C13 1_555 1_555
O2 C13 1_555 1_555
O3 C17 1_555 1_555
O4 C17 1_555 1_555
O12 C33 1_555 1_555
C13 C14 1_555 1_555
C14 C15 1_555 1_555
C15 H19 1_555 1_555
C16 C15 1_555 1_555
C17 C16 1_555 1_555
C18 C16 1_555 1_555
H20 C18 1_555 1_555
C19 C18 1_555 1_555
C20 C14 1_555 1_555
H21 C20 1_555 1_555
C33 C32 1_555 1_555
C34 C32 1_555 1_555
H26 C34 1_555 1_555
C35 C34 1_555 1_555
H27 C36 1_555 1_555
N10 C19 1_555 1_555
H28 N10 1_555 1_555
H29 N10 1_555 1_555
N12 C35 1_555 1_555
H32 N12 1_555 1_555
H33 N12 1_555 1_555
Zn6 O1 1_555 1_555
Zn9 O12 1_555 1_555
C19 C20 1_555 1_555
C35 C36 1_555 1_555
O15 Zn5 1_555 1_555
N15 Zn5 1_555 1_555
Zn2_2 O5_2 1_555 1_555
O5_2 C21_2 1_555 1_555
O6_2 Zn2_2 1_555 1_555
O7_2 Zn5_2 1_555 1_555
C21_2 O6_2 1_555 1_555
C22_2 C21_2 1_555 1_555
C23_2 C22_2 1_555 1_555
H22_2 C23_2 1_555 1_555
C25_2 O7_2 1_555 1_555
O13_2 Zn1_2 1_555 1_555
H34_2 O13_2 1_555 1_555
O14_2 Zn1_2 1_555 1_555
O15_2 Zn5_2 1_555 1_555
N15_2 Zn5_2 1_555 1_555
Zn2_2 O13_2 1_555 1_555
Zn3_2 N5_2 1_555 1_555
N5_2 N4_2 1_555 1_555
N14 C6_2 1_555 1_555
N8_2 Zn3_2 1_555 1_555
N9_2 C10_2 1_555 1_555
C6_2 N4_2 1_555 1_555
C7_2 N5_2 1_555 1_555
C8_2 C7_2 1_555 1_555
H10_2 C8_2 1_555 1_555
H11_2 C8_2 1_555 1_555
H12_2 C8_2 1_555 1_555
C10_2 N7_2 1_555 1_555
C11_2 N8_2 1_555 1_555
C12_2 C11_2 1_555 1_555
H16_2 C12_2 1_555 1_555
H17_2 C12_2 1_555 1_555
H18_2 C12_2 1_555 1_555
Zn11 N9_2 1_555 1_555
N13_2 Zn3_2 1_555 1_555
N14 C7_2 1_555 1_555
N7_2 N8_2 1_555 1_555
N9_2 C11_2 1_555 1_555
Zn8 O3_2 1_555 1_555
O1_2 C13_2 1_555 1_555
O2_2 C13_2 1_555 1_555
O3_2 C17_2 1_555 1_555
O4_2 C17_2 1_555 1_555
O8_2 Zn8 1_555 1_555
O9_2 Zn8 1_555 1_555
O11_2 C33_2 1_555 1_555
O12_2 C33_2 1_555 1_555
C13_2 C14_2 1_555 1_555
C14_2 C15_2 1_555 1_555
C15_2 H19_2 1_555 1_555
C16_2 C15_2 1_555 1_555
C17_2 C16_2 1_555 1_555
C18_2 C16_2 1_555 1_555
H20_2 C18_2 1_555 1_555
C19_2 C18_2 1_555 1_555
C20_2 C14_2 1_555 1_555
H21_2 C20_2 1_555 1_555
C26_2 C24_2 1_555 1_555
H23_2 C26_2 1_555 1_555
C27_2 C26_2 1_555 1_555
H24_2 C28_2 1_555 1_555
C29_2 O9_2 1_555 1_555
C30_2 C29_2 1_555 1_555
C31_2 C30_2 1_555 1_555
H25_2 C31_2 1_555 1_555
C32_2 C31_2 1_555 1_555
C33_2 C32_2 1_555 1_555
C34_2 C32_2 1_555 1_555
H26_2 C34_2 1_555 1_555
C35_2 C34_2 1_555 1_555
C36_2 C30_2 1_555 1_555
H27_2 C36_2 1_555 1_555
N10_2 C19_2 1_555 1_555
H28_2 N10_2 1_555 1_555
N11_2 C27_2 1_555 1_555
H30_2 N11_2 1_555 1_555
H31_2 N11_2 1_555 1_555
N12_2 C35_2 1_555 1_555
H32_2 N12_2 1_555 1_555
H33_2 N12_2 1_555 1_555
Zn6_2 O1_2 1_555 1_555
Zn9_2 O12_2 1_555 1_555
Zn10 O11_2 1_555 1_555
O10_2 C29_2 1_555 1_555
C19_2 C20_2 1_555 1_555
C27_2 C28_2 1_555 1_555
C35_2 C36_2 1_555 1_555
N1_2 N2_2 1_555 1_555
N3_2 C2_2 1_555 1_555
C1_2 H1_2 1_555 1_555
H2_2 C1_2 1_555 1_555
H3_2 C1_2 1_555 1_555
C2_2 N1_2 1_555 1_555
C3_2 N2_2 1_555 1_555
C4_2 C3_2 1_555 1_555
H4_2 C4_2 1_555 1_555
H5_2 C4_2 1_555 1_555
H6_2 C4_2 1_555 1_555
Zn7_2 N3_2 1_555 1_555
N3_2 C3_2 1_555 1_555
C1_2 C2_2 1_555 1_555
N1_3 N2_3 1_555 1_555
N13 C2_3 1_555 1_555
C1_3 H1_3 1_555 1_555
H2_3 C1_3 1_555 1_555
H3_3 C1_3 1_555 1_555
C2_3 N1_3 1_555 1_555
C3_3 N2_3 1_555 1_555
C4_3 C3_3 1_555 1_555
H4_3 C4_3 1_555 1_555
H5_3 C4_3 1_555 1_555
H6_3 C4_3 1_555 1_555
C5_2 H7_2 1_555 1_555
H9_2 C5_2 1_555 1_555
C9_2 H13_2 1_555 1_555
H15_2 C9_2 1_555 1_555
N13 C3_3 1_555 1_555
C1_3 C2_3 1_555 1_555
Zn2_3 O5_3 1_555 1_555
Zn7 N5_3 1_555 1_555
Zn9_2 O3_3 1_555 1_555
Zn10 O4_3 1_555 1_555
O14_2 C13_3 1_555 1_555
O2_3 C13_3 1_555 1_555
O3_3 C17_3 1_555 1_555
O4_3 C17_3 1_555 1_555
O5_3 C21_3 1_555 1_555
O6_3 Zn2_3 1_555 1_555
O7_3 Zn10 1_555 1_555
O8_3 Zn9_2 1_555 1_555
O9_3 Zn9_2 1_555 1_555
O10_3 Zn10 1_555 1_555
O15_2 C33_3 1_555 1_555
O16_2 C33_3 1_555 1_555
N4_3 Zn2_3 1_555 1_555
N5_3 N4_3 1_555 1_555
N6_2 C6_3 1_555 1_555
N7_3 Zn6_2 1_555 1_555
N8_3 Zn7 1_555 1_555
N15 C10_3 1_555 1_555
C6_3 N4_3 1_555 1_555
C7_3 N5_3 1_555 1_555
C8_3 C7_3 1_555 1_555
H10_3 C8_3 1_555 1_555
H11_3 C8_3 1_555 1_555
H12_3 C8_3 1_555 1_555
C10_3 N7_3 1_555 1_555
C11_3 N8_3 1_555 1_555
C12_3 C11_3 1_555 1_555
H16_3 C12_3 1_555 1_555
H17_3 C12_3 1_555 1_555
H18_3 C12_3 1_555 1_555
C13_3 C14_3 1_555 1_555
C14_3 C15_3 1_555 1_555
C15_3 H19_3 1_555 1_555
C16_3 C15_3 1_555 1_555
C17_3 C16_3 1_555 1_555
C18_3 C16_3 1_555 1_555
H20_3 C18_3 1_555 1_555
C19_3 C18_3 1_555 1_555
C20_3 C14_3 1_555 1_555
H21_3 C20_3 1_555 1_555
C21_3 O6_3 1_555 1_555
C22_3 C21_3 1_555 1_555
C23_3 C22_3 1_555 1_555
H22_3 C23_3 1_555 1_555
C24_3 C23_3 1_555 1_555
C25_3 O7_3 1_555 1_555
C26_3 C24_3 1_555 1_555
H23_3 C26_3 1_555 1_555
C27_3 C26_3 1_555 1_555
C28_3 C22_3 1_555 1_555
H24_3 C28_3 1_555 1_555
C29_3 O9_3 1_555 1_555
C30_3 C29_3 1_555 1_555
C31_3 C30_3 1_555 1_555
H25_3 C31_3 1_555 1_555
C32_3 C31_3 1_555 1_555
C33_3 C32_3 1_555 1_555
C34_3 C32_3 1_555 1_555
H26_3 C34_3 1_555 1_555
C35_3 C34_3 1_555 1_555
C36_3 C30_3 1_555 1_555
H27_3 C36_3 1_555 1_555
N10_3 C19_3 1_555 1_555
H28_3 N10_3 1_555 1_555
N11_3 C27_3 1_555 1_555
H30_3 N11_3 1_555 1_555
H31_3 N11_3 1_555 1_555
N12_3 C35_3 1_555 1_555
H32_3 N12_3 1_555 1_555
H33_3 N12_3 1_555 1_555
O13_3 Zn6_2 1_555 1_555
H34_3 O13_3 1_555 1_555
Zn9 N6_2 1_555 1_555
N14_2 Zn9_2 1_555 1_555
Zn2_3 O13_3 1_555 1_555
Zn7 O13_3 1_555 1_555
O8_3 C25_3 1_555 1_555
O10_3 C29_3 1_555 1_555
N6_2 C7_3 1_555 1_555
N7_3 N8_3 1_555 1_555
N15 C11_3 1_555 1_555
C19_3 C20_3 1_555 1_555
C24_3 C25_3 1_555 1_555
C27_3 C28_3 1_555 1_555
C35_3 C36_3 1_555 1_555
Zn11 O4_4 1_555 1_555
O14 C13_4 1_555 1_555
O2_4 C13_4 1_555 1_555
O3_4 C17_4 1_555 1_555
O4_4 C17_4 1_555 1_555
O16 C33_4 1_555 1_555
C13_4 C14_4 1_555 1_555
C14_4 C15_4 1_555 1_555
C15_4 H19_4 1_555 1_555
C16_4 C15_4 1_555 1_555
C17_4 C16_4 1_555 1_555
C18_4 C16_4 1_555 1_555
H20_4 C18_4 1_555 1_555
C19_4 C18_4 1_555 1_555
C20_4 C14_4 1_555 1_555
H21_4 C20_4 1_555 1_555
C33_4 C32_4 1_555 1_555
C34_4 C32_4 1_555 1_555
H26_4 C34_4 1_555 1_555
C35_4 C34_4 1_555 1_555
H27_4 C36_4 1_555 1_555
N10_4 C19_4 1_555 1_555
H28_4 N10_4 1_555 1_555
H29_2 N10_4 1_555 1_555
N12_4 C35_4 1_555 1_555
H32_4 N12_4 1_555 1_555
H33_4 N12_4 1_555 1_555
C19_4 C20_4 1_555 1_555
C35_4 C36_4 1_555 1_555
Zn7_2 N5_4 1_555 1_555
N5_4 N4_4 1_555 1_555
N14_2 C6_4 1_555 1_555
N8_4 Zn7_2 1_555 1_555
N15_2 C10_4 1_555 1_555
C5_3 H7_3 1_555 1_555
H8_3 C5_3 1_555 1_555
H9_3 C5_3 1_555 1_555
C6_4 N4_4 1_555 1_555
C7_4 N5_4 1_555 1_555
C8_4 C7_4 1_555 1_555
H10_4 C8_4 1_555 1_555
H11_4 C8_4 1_555 1_555
H12_4 C8_4 1_555 1_555
C9_3 H13_3 1_555 1_555
H15_3 C9_3 1_555 1_555
C10_4 N7_4 1_555 1_555
C11_4 N8_4 1_555 1_555
C12_4 C11_4 1_555 1_555
H16_4 C12_4 1_555 1_555
H17_4 C12_4 1_555 1_555
H18_4 C12_4 1_555 1_555
N14_2 C7_4 1_555 1_555
N7_4 N8_4 1_555 1_555
N15_2 C11_4 1_555 1_555
C5_3 C6_4 1_555 1_555
C9_3 C10_4 1_555 1_555
Zn6 N1_4 1_555 1_555
Zn2_4 O5_4 1_555 1_555
O5_4 C21_4 1_555 1_555
O6_4 Zn2_4 1_555 1_555
O8_4 Zn9 1_555 1_555
O9_4 Zn9 1_555 1_555
N1_4 N2_4 1_555 1_555
N2_4 Zn2_4 1_555 1_555
N13_2 C2_4 1_555 1_555
C1_4 H1_4 1_555 1_555
H2_4 C1_4 1_555 1_555
H3_4 C1_4 1_555 1_555
C2_4 N1_4 1_555 1_555
C3_4 N2_4 1_555 1_555
C4_4 C3_4 1_555 1_555
H4_4 C4_4 1_555 1_555
H5_4 C4_4 1_555 1_555
H6_4 C4_4 1_555 1_555
C21_4 O6_4 1_555 1_555
C22_4 C21_4 1_555 1_555
C23_4 C22_4 1_555 1_555
H22_4 C23_4 1_555 1_555
C24_4 C23_4 1_555 1_555
C25_4 O7_4 1_555 1_555
C26_4 C24_4 1_555 1_555
H23_4 C26_4 1_555 1_555
C27_4 C26_4 1_555 1_555
C28_4 C22_4 1_555 1_555
H24_4 C28_4 1_555 1_555
C29_4 O9_4 1_555 1_555
C30_4 C29_4 1_555 1_555
C31_4 C30_4 1_555 1_555
H25_4 C31_4 1_555 1_555
N11_4 C27_4 1_555 1_555
H30_4 N11_4 1_555 1_555
H31_4 N11_4 1_555 1_555
O13_4 Zn6 1_555 1_555
H34_4 O13_4 1_555 1_555
Zn2_4 O13_4 1_555 1_555
O8_4 C25_4 1_555 1_555
O10_4 C29_4 1_555 1_555
N13_2 C3_4 1_555 1_555
C1_4 C2_4 1_555 1_555
C24_4 C25_4 1_555 1_555
C27_4 C28_4 1_555 1_555
C5_4 H7_4 1_555 1_555
H9_4 C5_4 1_555 1_555
C9_4 H13_4 1_555 1_555
H14_2 C9_4 1_555 1_555
H15_4 C9_4 1_555 1_555

#END
