
###############################################################################
#
# This file contains modified crystal structure data generated from the
# MOF subset of the Cambridge Structural Database (CSD) v543 
# hosted by the Cambridge Crystallographic Data Centre (CCDC).
#
# This work is licensed under the Creative Commons
# Attribution-NonCommercial-ShareAlike 4.0 International License.
# To view a copy of this license, visit
# http://creativecommons.org/licenses/by-nc-sa/4.0/
# or send a letter to
# Creative Commons, PO Box 1866, Mountain View, CA 94042, USA.
#
# CIF created using the CSD Python API on 29 September 2022
# The structure has been converted into the P1 space group
# The structure has a 3D framework
# The original CSD entry HURGOR is in the orthorhombic crystal system
# The framework has been calculated to contain at least 10.0% void space
# The void calculation uses a probe of radius 1.32A, grid spacing 0.4
# The framework is charged, counterions have been retained in the structure
#
###############################################################################

data_HURGOR
_chemical_formula_moiety         '(C224 H128 Co12 O62 4-)n'
_symmetry_cell_setting           triclinic
_symmetry_space_group_name_H-M   'P 1'
_symmetry_Int_Tables_number      1
_space_group_name_Hall           'P 1'
loop_
_symmetry_equiv_pos_site_id
_symmetry_equiv_pos_as_xyz
1 x,y,z
_cell_length_a                   26.09860(10)
_cell_length_b                   22.3068(3)
_cell_length_c                   13.8496(3)
_cell_angle_alpha                90
_cell_angle_beta                 90
_cell_angle_gamma                90
_cell_volume                     8062.91
loop_
_atom_site_label
_atom_site_type_symbol
_atom_site_fract_x
_atom_site_fract_y
_atom_site_fract_z
Co8 Co 0.407571(14) 0.090167(18) 0.22603(3)
O21 O 0.40150(11) 0.00338(11) 0.25502(18)
Co4 Co 0.406975(19) 0.2500 0.2500
O9 O 0.40899(8) 0.17864(9) 0.14822(13)
O12 O 0.34322(8) 0.11210(10) 0.29445(15)
O16 O 0.47184(9) 0.11173(11) 0.29136(19)
O20 O 0.39100(10) 0.09444(11) 0.08015(15)
C43 C 0.39654(11) 0.14985(15) 0.0744(2)
H28 H 0.4115 0.2630 0.0221
O1 O 0.40899(8) 0.32136(9) 0.35178(13)
Co2 Co 0.407571(14) 0.409833(18) 0.27397(3)
O2 O 0.34322(8) 0.38790(10) 0.20555(15)
C1 C 0.32857(12) 0.33958(16) 0.1699(2)
O3 O 0.35089(9) 0.29094(11) 0.17234(16)
C2 C 0.27812(12) 0.34045(15) 0.1163(2)
C3 C 0.25235(13) 0.39333(15) 0.0997(3)
C4 C 0.20611(13) 0.39284(17) 0.0513(3)
C5 C 0.18397(13) 0.34078(17) 0.0183(3)
C13 C 0.21071(15) 0.28817(17) 0.0332(3)
C14 C 0.25711(15) 0.28821(17) 0.0817(3)
O6 O 0.39100(10) 0.40556(11) 0.41985(15)
C15 C 0.39654(11) 0.35015(15) 0.4256(2)
C16 C 0.39074(12) 0.31934(15) 0.5212(2)
C17 C 0.37534(16) 0.35216(18) 0.6016(2)
C18 C 0.37162(17) 0.32368(16) 0.6904(2)
C19 C 0.38350(13) 0.26461(15) 0.7011(2)
C20 C 0.39808(14) 0.23223(16) 0.6200(2)
C21 C 0.40167(13) 0.25977(15) 0.5316(2)
O7 O 0.40150(11) 0.49662(11) 0.24498(18)
C22 C 0.4370(2) 0.5247(2) 0.2846(3)
O8 O 0.47191(15) 0.50098(15) 0.3315(3)
C23 C 0.43627(17) 0.59296(17) 0.2747(3)
C24 C 0.47824(17) 0.62708(18) 0.2992(3)
C25 C 0.47825(17) 0.68727(19) 0.2883(3)
C26 C 0.43393(17) 0.71692(18) 0.2564(3)
C27 C 0.39228(19) 0.6824(2) 0.2319(4)
C28 C 0.39256(18) 0.6208(2) 0.2407(3)
H1 H 0.2664 0.4289 0.1208
H2 H 0.1887 0.4291 0.0406
H6 H 0.1099 0.2610 0.0170
H7 H 0.1981 0.2514 0.0112
H8 H 0.2741 0.2520 0.0928
H9 H 0.3670 0.3944 0.5976
H10 H 0.3608 0.3454 0.7450
H11 H 0.4059 0.1910 0.6244
H12 H 0.4115 0.2370 0.4779
H13 H 0.5075 0.6077 0.3252
H14 H 0.5081 0.7096 0.3022
H15 H 0.3630 0.7013 0.2100
H16 H 0.3637 0.5981 0.2239
C29 C 0.32857(12) 0.16042(16) 0.3301(2)
O13 O 0.35089(9) 0.20906(11) 0.32766(16)
C30 C 0.27812(12) 0.15955(15) 0.3837(2)
C31 C 0.25235(13) 0.10667(15) 0.4003(3)
C32 C 0.20611(13) 0.10716(17) 0.4487(3)
C33 C 0.18397(13) 0.15922(17) 0.4817(3)
C34 C 0.13338(13) 0.15935(16) 0.5312(3)
C35 C 0.11841(15) 0.1119(2) 0.5887(4)
C36 C 0.07096(15) 0.1129(2) 0.6345(3)
C37 C 0.03805(13) 0.16056(15) 0.6229(3)
O15 O 0.47184(9) 0.38827(11) 0.20864(19)
O18 O 0.46338(10) 0.20855(12) 0.32859(17)
O19 O 0.46338(10) 0.29145(12) 0.17141(17)
C39 C 0.05395(15) 0.20784(17) 0.5688(3)
C40 C 0.10027(16) 0.20673(18) 0.5219(3)
C41 C 0.21071(15) 0.21183(17) 0.4668(3)
C42 C 0.25711(15) 0.21179(17) 0.4183(3)
C44 C 0.39074(12) 0.18066(15) 0.9788(2)
C45 C 0.37534(16) 0.14784(18) 0.8984(2)
C46 C 0.37162(17) 0.17632(16) 0.8096(2)
C47 C 0.38350(13) 0.23539(15) 0.7989(2)
C48 C 0.39808(14) 0.26777(16) 0.8800(2)
C49 C 0.40167(13) 0.24023(15) 0.9684(2)
C50 C 0.4370(2) 0.9753(2) 0.2154(3)
O23 O 0.47191(15) 0.99902(15) 0.1685(3)
C51 C 0.43627(17) 0.90704(17) 0.2253(3)
C52 C 0.47824(17) 0.87292(18) 0.2008(3)
C53 C 0.47825(17) 0.81273(19) 0.2117(3)
C54 C 0.43393(17) 0.78308(18) 0.2436(3)
C55 C 0.39228(19) 0.8176(2) 0.2681(4)
C56 C 0.39256(18) 0.8792(2) 0.2593(3)
H17 H 0.2664 0.0711 0.3792
H18 H 0.1887 0.0709 0.4594
H19 H 0.1403 0.0794 0.5974
H20 H 0.0607 0.0802 0.6743
H21 H 0.0329 0.2414 0.5628
H22 H 0.1099 0.2390 0.4830
H23 H 0.1981 0.2486 0.4888
H24 H 0.2741 0.2480 0.4072
H25 H 0.3670 0.1056 0.9024
H26 H 0.3608 0.1546 0.7550
H27 H 0.4059 0.3090 0.8756
H29 H 0.5075 0.8923 0.1748
H30 H 0.5081 0.7904 0.1978
H31 H 0.3630 0.7987 0.2900
H32 H 0.3637 0.9019 0.2761
C6 C 0.13338(13) 0.34065(16) 0.9688(3)
C7 C 0.11841(15) 0.3881(2) 0.9113(4)
C8 C 0.07096(15) 0.3871(2) 0.8655(3)
C9 C 0.03805(13) 0.33944(15) 0.8771(3)
C11 C 0.05395(15) 0.29216(17) 0.9312(3)
C12 C 0.10027(16) 0.29327(18) 0.9781(3)
H3 H 0.1403 0.4206 0.9026
H4 H 0.0607 0.4198 0.8257
H5 H 0.0329 0.2586 0.9372
Co5 Co 0.906975(19) 0.2500 0.7500
Co10 Co 0.907571(14) 0.090167(18) 0.77397(3)
C38 C 0.98624(13) 0.16015(17) 0.6719(2)
O14 O 0.97184(9) 0.11173(11) 0.70864(19)
O17 O 0.96338(10) 0.20855(12) 0.67141(17)
C10 C 0.98624(13) 0.33985(17) 0.8281(2)
O4 O 0.97184(9) 0.38827(11) 0.79136(19)
O5 O 0.96338(10) 0.29145(12) 0.82859(17)
Co7 Co 0.907571(14) 0.409833(18) 0.72603(3)
C16_2 C 0.89074(12) 0.18066(15) 0.0212(2)
C17_2 C 0.87534(16) 0.14784(18) 0.1016(2)
C18_2 C 0.87162(17) 0.17632(16) 0.1904(2)
C19_2 C 0.88350(13) 0.23539(15) 0.2011(2)
C20_2 C 0.89808(14) 0.26777(16) 0.1200(2)
C21_2 C 0.90167(13) 0.24023(15) 0.0316(2)
H9_2 H 0.8670 0.1056 0.0976
H10_2 H 0.8608 0.1546 0.2450
H11_2 H 0.9059 0.3090 0.1244
O9_2 O 0.90899(8) 0.32136(9) 0.64822(13)
O12_2 O 0.84322(8) 0.38790(10) 0.79445(15)
C34_2 C 0.63338(13) 0.34065(16) 0.0312(3)
C35_2 C 0.61841(15) 0.3881(2) 0.0887(4)
C36_2 C 0.57096(15) 0.3871(2) 0.1345(3)
C37_2 C 0.53805(13) 0.33944(15) 0.1229(3)
C38_2 C 0.48624(13) 0.33985(17) 0.1719(2)
C39_2 C 0.55395(15) 0.29216(17) 0.0688(3)
C40_2 C 0.60027(16) 0.29327(18) 0.0219(3)
O20_2 O 0.89100(10) 0.40556(11) 0.58015(15)
C43_2 C 0.89654(11) 0.35015(15) 0.5744(2)
C44_2 C 0.89074(12) 0.31934(15) 0.4788(2)
C45_2 C 0.87534(16) 0.35216(18) 0.3984(2)
C46_2 C 0.87162(17) 0.32368(16) 0.3096(2)
C47_2 C 0.88350(13) 0.26461(15) 0.2989(2)
C48_2 C 0.89808(14) 0.23223(16) 0.3800(2)
C49_2 C 0.90167(13) 0.25977(15) 0.4684(2)
O22 O 0.90150(11) 0.49662(11) 0.75502(18)
O24 O 0.97191(15) 0.50098(15) 0.6685(3)
H19_2 H 0.6403 0.4206 0.0974
H20_2 H 0.5607 0.4198 0.1743
H21_2 H 0.5329 0.2586 0.0628
H25_2 H 0.8670 0.3944 0.4024
H26_2 H 0.8608 0.3454 0.2550
H27_2 H 0.9059 0.1910 0.3756
H28_2 H 0.9115 0.2370 0.5221
O1_2 O 0.90899(8) 0.17864(9) 0.85178(13)
O2_2 O 0.84322(8) 0.11210(10) 0.70555(15)
C1_2 C 0.82857(12) 0.16042(16) 0.6699(2)
O3_2 O 0.85089(9) 0.20906(11) 0.67234(16)
C2_2 C 0.77812(12) 0.15955(15) 0.6163(2)
C3_2 C 0.75235(13) 0.10667(15) 0.5997(3)
C4_2 C 0.70611(13) 0.10716(17) 0.5513(3)
C5_2 C 0.68397(13) 0.15922(17) 0.5183(3)
C6_2 C 0.63338(13) 0.15935(16) 0.4688(3)
C7_2 C 0.61841(15) 0.1119(2) 0.4113(4)
C8_2 C 0.57096(15) 0.1129(2) 0.3655(3)
C9_2 C 0.53805(13) 0.16056(15) 0.3771(3)
C10_2 C 0.48624(13) 0.16015(17) 0.3281(2)
C11_2 C 0.55395(15) 0.20784(17) 0.4312(3)
C12_2 C 0.60027(16) 0.20673(18) 0.4781(3)
C13_2 C 0.71071(15) 0.21183(17) 0.5332(3)
C14_2 C 0.75711(15) 0.21179(17) 0.5817(3)
O6_2 O 0.89100(10) 0.09444(11) 0.91985(15)
C15_2 C 0.89654(11) 0.14985(15) 0.9256(2)
O7_2 O 0.90150(11) 0.00338(11) 0.74498(18)
H1_2 H 0.7664 0.0711 0.6208
H2_2 H 0.6887 0.0709 0.5406
H3_2 H 0.6403 0.0794 0.4026
H4_2 H 0.5607 0.0802 0.3257
H5_2 H 0.5329 0.2414 0.4372
H6_2 H 0.6099 0.2390 0.5170
H7_2 H 0.6981 0.2486 0.5112
H8_2 H 0.7741 0.2480 0.5928
H12_2 H 0.9115 0.2630 0.9779
C29_2 C 0.82857(12) 0.33958(16) 0.8301(2)
O13_2 O 0.85089(9) 0.29094(11) 0.82766(16)
C30_2 C 0.77812(12) 0.34045(15) 0.8837(2)
C31_2 C 0.75235(13) 0.39333(15) 0.9003(3)
C32_2 C 0.70611(13) 0.39284(17) 0.9487(3)
C33_2 C 0.68397(13) 0.34078(17) 0.9817(3)
C41_2 C 0.71071(15) 0.28817(17) 0.9668(3)
C42_2 C 0.75711(15) 0.28821(17) 0.9183(3)
H17_2 H 0.7664 0.4289 0.8792
H18_2 H 0.6887 0.4291 0.9594
H22_2 H 0.6099 0.2610 0.9830
H23_2 H 0.6981 0.2514 0.9888
H24_2 H 0.7741 0.2520 0.9072
C22_2 C 0.9370(2) 0.9753(2) 0.7846(3)
O8_2 O 0.97191(15) 0.99902(15) 0.8315(3)
C23_2 C 0.93627(17) 0.90704(17) 0.7747(3)
C24_2 C 0.97824(17) 0.87292(18) 0.7992(3)
C25_2 C 0.97825(17) 0.81273(19) 0.7883(3)
C26_2 C 0.93393(17) 0.78308(18) 0.7564(3)
C27_2 C 0.89228(19) 0.8176(2) 0.7319(4)
C28_2 C 0.89256(18) 0.8792(2) 0.7407(3)
H15_2 H 0.8630 0.7987 0.7100
H16_2 H 0.8637 0.9019 0.7239
C50_2 C 0.9370(2) 0.5247(2) 0.7154(3)
C51_2 C 0.93627(17) 0.59296(17) 0.7253(3)
C52_2 C 0.97824(17) 0.62708(18) 0.7008(3)
C53_2 C 0.97825(17) 0.68727(19) 0.7117(3)
C54_2 C 0.93393(17) 0.71692(18) 0.7436(3)
C55_2 C 0.89228(19) 0.6824(2) 0.7681(4)
C56_2 C 0.89256(18) 0.6208(2) 0.7593(3)
H31_2 H 0.8630 0.7013 0.7900
H32_2 H 0.8637 0.5981 0.7761
C22_3 C 0.0630(2) 0.0247(2) 0.2154(3)
O8_3 O 0.02809(15) 0.00098(15) 0.1685(3)
C23_3 C 0.06373(17) 0.09296(17) 0.2253(3)
C24_3 C 0.02176(17) 0.12708(18) 0.2008(3)
C25_3 C 0.02175(17) 0.18727(19) 0.2117(3)
C26_3 C 0.06607(17) 0.21692(18) 0.2436(3)
C27_3 C 0.10772(19) 0.1824(2) 0.2681(4)
C28_3 C 0.10744(18) 0.1208(2) 0.2593(3)
H15_3 H 0.1370 0.2013 0.2900
H16_3 H 0.1363 0.0981 0.2761
Co8_2 Co 0.092429(14) 0.590167(18) 0.27397(3)
O21_2 O 0.09850(11) 0.50338(11) 0.24498(18)
C50_3 C 0.0630(2) 0.4753(2) 0.2846(3)
O23_2 O 0.02809(15) 0.49902(15) 0.3315(3)
C51_3 C 0.06373(17) 0.40704(17) 0.2747(3)
C52_3 C 0.02176(17) 0.37292(18) 0.2992(3)
C53_3 C 0.02175(17) 0.31273(19) 0.2883(3)
C54_3 C 0.06607(17) 0.28308(18) 0.2564(3)
C55_3 C 0.10772(19) 0.3176(2) 0.2319(4)
C56_3 C 0.10744(18) 0.3792(2) 0.2407(3)
H31_3 H 0.1370 0.2987 0.2100
H32_3 H 0.1363 0.4019 0.2239
Co1 Co 0.093025(19) 0.7500 0.2500
O1_3 O 0.09101(8) 0.82136(9) 0.14822(13)
Co2_2 Co 0.092429(14) 0.909833(18) 0.22603(3)
O2_3 O 0.15678(8) 0.88790(10) 0.29445(15)
C1_3 C 0.17143(12) 0.83958(16) 0.3301(2)
O3_3 O 0.14911(9) 0.79094(11) 0.32766(16)
C2_3 C 0.22188(12) 0.84045(15) 0.3837(2)
C3_3 C 0.24765(13) 0.89333(15) 0.4003(3)
C4_3 C 0.29389(13) 0.89284(17) 0.4487(3)
C5_3 C 0.31603(13) 0.84078(17) 0.4817(3)
C6_3 C 0.36662(13) 0.84065(16) 0.5312(3)
C7_3 C 0.38159(15) 0.8881(2) 0.5887(4)
C8_3 C 0.42904(15) 0.8871(2) 0.6345(3)
C9_3 C 0.46195(13) 0.83944(15) 0.6229(3)
C10_3 C 0.51376(13) 0.83985(17) 0.6719(2)
O4_2 O 0.52816(9) 0.88827(11) 0.70864(19)
O5_2 O 0.53662(10) 0.79145(12) 0.67141(17)
C11_3 C 0.44605(15) 0.79216(17) 0.5688(3)
C12_3 C 0.39973(16) 0.79327(18) 0.5219(3)
C13_3 C 0.28929(15) 0.78817(17) 0.4668(3)
C14_3 C 0.24289(15) 0.78821(17) 0.4183(3)
O6_3 O 0.10900(10) 0.90556(11) 0.08015(15)
C15_3 C 0.10346(11) 0.85015(15) 0.0744(2)
O7_3 O 0.09850(11) 0.99662(11) 0.25502(18)
H1_3 H 0.2336 0.9289 0.3792
H2_3 H 0.3113 0.9291 0.4594
H3_3 H 0.3597 0.9206 0.5974
H4_3 H 0.4393 0.9198 0.6743
H5_3 H 0.4671 0.7586 0.5628
H6_3 H 0.3901 0.7610 0.4830
H7_3 H 0.3019 0.7514 0.4888
H8_3 H 0.2259 0.7520 0.4072
H12_3 H 0.0885 0.7370 0.0221
Co3 Co 0.593025(19) 0.7500 0.7500
O10 O 0.09101(8) 0.67864(9) 0.35178(13)
Co7_2 Co 0.592429(14) 0.909833(18) 0.77397(3)
O11 O 0.15678(8) 0.61210(10) 0.20555(15)
C29_3 C 0.17143(12) 0.66042(16) 0.1699(2)
O13_3 O 0.14911(9) 0.70906(11) 0.17234(16)
C30_3 C 0.22188(12) 0.65955(15) 0.1163(2)
C31_3 C 0.24765(13) 0.60667(15) 0.0997(3)
C32_3 C 0.29389(13) 0.60716(17) 0.0513(3)
C33_3 C 0.31603(13) 0.65922(17) 0.0183(3)
O15_2 O 0.02816(9) 0.88827(11) 0.29136(19)
O18_2 O 0.03662(10) 0.70855(12) 0.17141(17)
O19_2 O 0.03662(10) 0.79145(12) 0.32859(17)
C41_3 C 0.28929(15) 0.71183(17) 0.0332(3)
C42_3 C 0.24289(15) 0.71179(17) 0.0817(3)
H17_3 H 0.2336 0.5711 0.1208
H18_3 H 0.3113 0.5709 0.0406
H22_3 H 0.3901 0.7390 0.0170
H23_3 H 0.3019 0.7486 0.0112
H24_3 H 0.2259 0.7480 0.0928
C16_3 C 0.10926(12) 0.81934(15) 0.9788(2)
C17_3 C 0.12466(16) 0.85216(18) 0.8984(2)
C18_3 C 0.12838(17) 0.82368(16) 0.8096(2)
C19_3 C 0.11650(13) 0.76461(15) 0.7989(2)
C20_3 C 0.10192(14) 0.73223(16) 0.8800(2)
C21_3 C 0.09833(13) 0.75977(15) 0.9684(2)
H9_3 H 0.1330 0.8944 0.9024
H10_3 H 0.1392 0.8454 0.7550
H11_3 H 0.0941 0.6910 0.8756
Co10_2 Co 0.592429(14) 0.590167(18) 0.72603(3)
C34_3 C 0.36662(13) 0.65935(16) 0.9688(3)
C35_3 C 0.38159(15) 0.6119(2) 0.9113(4)
C36_3 C 0.42904(15) 0.6129(2) 0.8655(3)
C37_3 C 0.46195(13) 0.66056(15) 0.8771(3)
C38_3 C 0.51376(13) 0.66015(17) 0.8281(2)
O14_2 O 0.52816(9) 0.61173(11) 0.79136(19)
O16_2 O 0.02816(9) 0.61173(11) 0.20864(19)
O17_2 O 0.53662(10) 0.70855(12) 0.82859(17)
C39_3 C 0.44605(15) 0.70784(17) 0.9312(3)
C40_3 C 0.39973(16) 0.70673(18) 0.9781(3)
O20_3 O 0.10900(10) 0.59444(11) 0.41985(15)
C43_3 C 0.10346(11) 0.64985(15) 0.4256(2)
C44_3 C 0.10926(12) 0.68066(15) 0.5212(2)
C45_3 C 0.12466(16) 0.64784(18) 0.6016(2)
C46_3 C 0.12838(17) 0.67632(16) 0.6904(2)
C47_3 C 0.11650(13) 0.73539(15) 0.7011(2)
C48_3 C 0.10192(14) 0.76777(16) 0.6200(2)
C49_3 C 0.09833(13) 0.74023(15) 0.5316(2)
H19_3 H 0.3597 0.5794 0.9026
H20_3 H 0.4393 0.5802 0.8257
H21_3 H 0.4671 0.7414 0.9372
H25_3 H 0.1330 0.6056 0.5976
H26_3 H 0.1392 0.6546 0.7450
H27_3 H 0.0941 0.8090 0.6244
H28_3 H 0.0885 0.7630 0.4779
C10_4 C 0.01376(13) 0.66015(17) 0.1719(2)
C38_4 C 0.01376(13) 0.83985(17) 0.3281(2)
O24_2 O 0.52809(15) 0.00098(15) 0.8315(3)
C6_4 C 0.86662(13) 0.65935(16) 0.0312(3)
C7_4 C 0.88159(15) 0.6119(2) 0.0887(4)
C8_4 C 0.92904(15) 0.6129(2) 0.1345(3)
C9_4 C 0.96195(13) 0.66056(15) 0.1229(3)
C11_4 C 0.94605(15) 0.70784(17) 0.0688(3)
C12_4 C 0.89973(16) 0.70673(18) 0.0219(3)
H3_4 H 0.8597 0.5794 0.0974
H4_4 H 0.9393 0.5802 0.1743
H5_4 H 0.9671 0.7414 0.0628
O1_4 O 0.59101(8) 0.67864(9) 0.64822(13)
O2_4 O 0.65678(8) 0.61210(10) 0.79445(15)
C1_4 C 0.67143(12) 0.66042(16) 0.8301(2)
O3_4 O 0.64911(9) 0.70906(11) 0.82766(16)
C2_4 C 0.72188(12) 0.65955(15) 0.8837(2)
C3_4 C 0.74765(13) 0.60667(15) 0.9003(3)
C4_4 C 0.79389(13) 0.60716(17) 0.9487(3)
C5_4 C 0.81603(13) 0.65922(17) 0.9817(3)
C13_4 C 0.78929(15) 0.71183(17) 0.9668(3)
C14_4 C 0.74289(15) 0.71179(17) 0.9183(3)
O6_4 O 0.60900(10) 0.59444(11) 0.58015(15)
C15_4 C 0.60346(11) 0.64985(15) 0.5744(2)
C16_4 C 0.60926(12) 0.68066(15) 0.4788(2)
C17_4 C 0.62466(16) 0.64784(18) 0.3984(2)
C18_4 C 0.62838(17) 0.67632(16) 0.3096(2)
C19_4 C 0.61650(13) 0.73539(15) 0.2989(2)
C20_4 C 0.60192(14) 0.76777(16) 0.3800(2)
C21_4 C 0.59833(13) 0.74023(15) 0.4684(2)
O7_4 O 0.59850(11) 0.50338(11) 0.75502(18)
C22_4 C 0.5630(2) 0.4753(2) 0.7154(3)
O8_4 O 0.52809(15) 0.49902(15) 0.6685(3)
C23_4 C 0.56373(17) 0.40704(17) 0.7253(3)
C24_4 C 0.52176(17) 0.37292(18) 0.7008(3)
C25_4 C 0.52175(17) 0.31273(19) 0.7117(3)
C26_4 C 0.56607(17) 0.28308(18) 0.7436(3)
C27_4 C 0.60772(19) 0.3176(2) 0.7681(4)
C28_4 C 0.60744(18) 0.3792(2) 0.7593(3)
H1_4 H 0.7336 0.5711 0.8792
H2_4 H 0.8113 0.5709 0.9594
H6_4 H 0.8901 0.7390 0.9830
H7_4 H 0.8019 0.7486 0.9888
H8_4 H 0.7259 0.7480 0.9072
H9_4 H 0.6330 0.6056 0.4024
H10_4 H 0.6392 0.6546 0.2550
H11_4 H 0.5941 0.8090 0.3756
H12_4 H 0.5885 0.7630 0.5221
H13_2 H 0.4925 0.3923 0.6748
H14_2 H 0.4919 0.2904 0.6978
H15_4 H 0.6370 0.2987 0.7900
H16_4 H 0.6363 0.4019 0.7761
O10_2 O 0.59101(8) 0.82136(9) 0.85178(13)
O11_2 O 0.65678(8) 0.88790(10) 0.70555(15)
C29_4 C 0.67143(12) 0.83958(16) 0.6699(2)
O13_4 O 0.64911(9) 0.79094(11) 0.67234(16)
C30_4 C 0.72188(12) 0.84045(15) 0.6163(2)
C31_4 C 0.74765(13) 0.89333(15) 0.5997(3)
C32_4 C 0.79389(13) 0.89284(17) 0.5513(3)
C33_4 C 0.81603(13) 0.84078(17) 0.5183(3)
C34_4 C 0.86662(13) 0.84065(16) 0.4688(3)
C35_4 C 0.88159(15) 0.8881(2) 0.4113(4)
C36_4 C 0.92904(15) 0.8871(2) 0.3655(3)
C37_4 C 0.96195(13) 0.83944(15) 0.3771(3)
C39_4 C 0.94605(15) 0.79216(17) 0.4312(3)
C40_4 C 0.89973(16) 0.79327(18) 0.4781(3)
C41_4 C 0.78929(15) 0.78817(17) 0.5332(3)
C42_4 C 0.74289(15) 0.78821(17) 0.5817(3)
C44_4 C 0.60926(12) 0.81934(15) 0.0212(2)
C45_4 C 0.62466(16) 0.85216(18) 0.1016(2)
C46_4 C 0.62838(17) 0.82368(16) 0.1904(2)
C47_4 C 0.61650(13) 0.76461(15) 0.2011(2)
C48_4 C 0.60192(14) 0.73223(16) 0.1200(2)
C49_4 C 0.59833(13) 0.75977(15) 0.0316(2)
C50_4 C 0.5630(2) 0.0247(2) 0.7846(3)
C51_4 C 0.56373(17) 0.09296(17) 0.7747(3)
C52_4 C 0.52176(17) 0.12708(18) 0.7992(3)
C53_4 C 0.52175(17) 0.18727(19) 0.7883(3)
C54_4 C 0.56607(17) 0.21692(18) 0.7564(3)
C55_4 C 0.60772(19) 0.1824(2) 0.7319(4)
C56_4 C 0.60744(18) 0.1208(2) 0.7407(3)
H17_4 H 0.7336 0.9289 0.6208
H18_4 H 0.8113 0.9291 0.5406
H19_4 H 0.8597 0.9206 0.4026
H20_4 H 0.9393 0.9198 0.3257
H21_4 H 0.9671 0.7586 0.4372
H22_4 H 0.8901 0.7610 0.5170
H23_4 H 0.8019 0.7514 0.5112
H24_4 H 0.7259 0.7520 0.5928
H25_4 H 0.6330 0.8944 0.0976
H26_4 H 0.6392 0.8454 0.2450
H27_4 H 0.5941 0.6910 0.1244
H29_2 H 0.4925 0.1077 0.8252
H30_2 H 0.4919 0.2096 0.8022
H31_4 H 0.6370 0.2013 0.7100
H32_4 H 0.6363 0.0981 0.7239
O20_4 O 0.60900(10) 0.90556(11) 0.91985(15)
C43_4 C 0.60346(11) 0.85015(15) 0.9256(2)
O22_2 O 0.59850(11) 0.99662(11) 0.74498(18)
H28_4 H 0.5885 0.7370 0.9779
H13_3 H 0.9925 0.1077 0.1748
H14_3 H 0.9919 0.2096 0.1978
H29_3 H 0.9925 0.3923 0.3252
H30_3 H 0.9919 0.2904 0.3022
H13_4 H 0.0075 0.8923 0.8252
H14_4 H 0.0081 0.7904 0.8022
H29_4 H 0.0075 0.6077 0.6748
H30_4 H 0.0081 0.7096 0.6978
loop_
_geom_bond_atom_site_label_1
_geom_bond_atom_site_label_2
_geom_bond_site_symmetry_1
_geom_bond_site_symmetry_2
Co8 O21 1_555 1_555
Co4 O9 1_555 1_555
O9 Co8 1_555 1_555
Co8 O12 1_555 1_555
O16 Co8 1_555 1_555
O20 Co8 1_555 1_555
C43 O9 1_555 1_555
O20 C43 1_555 1_555
Co4 O1 1_555 1_555
O1 Co2 1_555 1_555
Co2 O2 1_555 1_555
O2 C1 1_555 1_555
C1 O3 1_555 1_555
O3 Co4 1_555 1_555
C2 C1 1_555 1_555
C3 C2 1_555 1_555
C4 C3 1_555 1_555
C5 C4 1_555 1_555
C13 C5 1_555 1_555
C14 C2 1_555 1_555
O6 Co2 1_555 1_555
C15 O1 1_555 1_555
C16 C15 1_555 1_555
C17 C16 1_555 1_555
C18 C17 1_555 1_555
C19 C18 1_555 1_555
C20 C19 1_555 1_555
C21 C16 1_555 1_555
O7 Co2 1_555 1_555
C22 O7 1_555 1_555
O8 Co2 1_555 1_555
C23 C22 1_555 1_555
C24 C23 1_555 1_555
C25 C24 1_555 1_555
C26 C25 1_555 1_555
C27 C26 1_555 1_555
C28 C23 1_555 1_555
H1 C3 1_555 1_555
H2 C4 1_555 1_555
H7 C13 1_555 1_555
H8 C14 1_555 1_555
H9 C17 1_555 1_555
H10 C18 1_555 1_555
H11 C20 1_555 1_555
H12 C21 1_555 1_555
H13 C24 1_555 1_555
H14 C25 1_555 1_555
H15 C27 1_555 1_555
H16 C28 1_555 1_555
C29 O12 1_555 1_555
O13 Co4 1_555 1_555
C30 C29 1_555 1_555
C31 C30 1_555 1_555
C32 C31 1_555 1_555
C33 C32 1_555 1_555
C34 C33 1_555 1_555
C35 C34 1_555 1_555
C36 C35 1_555 1_555
C37 C36 1_555 1_555
O15 Co2 1_555 1_555
O18 Co4 1_555 1_555
O19 Co4 1_555 1_555
C39 C37 1_555 1_555
C40 C34 1_555 1_555
C41 C33 1_555 1_555
C42 C30 1_555 1_555
C45 C44 1_555 1_555
C46 C45 1_555 1_555
C47 C19 1_555 1_555
C48 C47 1_555 1_555
C49 C44 1_555 1_555
C50 O23 1_555 1_555
C51 C50 1_555 1_555
C52 C51 1_555 1_555
C53 C52 1_555 1_555
C54 C26 1_555 1_555
C55 C54 1_555 1_555
C56 C51 1_555 1_555
H17 C31 1_555 1_555
H18 C32 1_555 1_555
H19 C35 1_555 1_555
H20 C36 1_555 1_555
H21 C39 1_555 1_555
H22 C40 1_555 1_555
H23 C41 1_555 1_555
H24 C42 1_555 1_555
H25 C45 1_555 1_555
H26 C46 1_555 1_555
H27 C48 1_555 1_555
H29 C52 1_555 1_555
H30 C53 1_555 1_555
H31 C55 1_555 1_555
H32 C56 1_555 1_555
C13 C14 1_555 1_555
O6 C15 1_555 1_555
C20 C21 1_555 1_555
C22 O8 1_555 1_555
C27 C28 1_555 1_555
C29 O13 1_555 1_555
C39 C40 1_555 1_555
C41 C42 1_555 1_555
C46 C47 1_555 1_555
C48 C49 1_555 1_555
C53 C54 1_555 1_555
C55 C56 1_555 1_555
C7 C6 1_555 1_555
C8 C7 1_555 1_555
C9 C8 1_555 1_555
C11 C9 1_555 1_555
C12 C6 1_555 1_555
H3 C7 1_555 1_555
H4 C8 1_555 1_555
H5 C11 1_555 1_555
C11 C12 1_555 1_555
Co5 O17 1_555 1_555
Co10 O14 1_555 1_555
O14 C38 1_555 1_555
O17 C38 1_555 1_555
O4 C10 1_555 1_555
O5 C10 1_555 1_555
Co5 O5 1_555 1_555
Co7 O4 1_555 1_555
C17_2 C16_2 1_555 1_555
C18_2 C17_2 1_555 1_555
C19_2 C18_2 1_555 1_555
C20_2 C19_2 1_555 1_555
C21_2 C16_2 1_555 1_555
H9_2 C17_2 1_555 1_555
H10_2 C18_2 1_555 1_555
H11_2 C20_2 1_555 1_555
Co5 O9_2 1_555 1_555
O9_2 Co7 1_555 1_555
Co7 O12_2 1_555 1_555
C35_2 C34_2 1_555 1_555
C36_2 C35_2 1_555 1_555
C37_2 C36_2 1_555 1_555
C38_2 C37_2 1_555 1_555
O15 C38_2 1_555 1_555
O19 C38_2 1_555 1_555
C39_2 C37_2 1_555 1_555
C40_2 C34_2 1_555 1_555
O20_2 Co7 1_555 1_555
C43_2 O9_2 1_555 1_555
C44_2 C43_2 1_555 1_555
C45_2 C44_2 1_555 1_555
C46_2 C45_2 1_555 1_555
C47_2 C19_2 1_555 1_555
C48_2 C47_2 1_555 1_555
C49_2 C44_2 1_555 1_555
O22 Co7 1_555 1_555
O24 Co7 1_555 1_555
H19_2 C35_2 1_555 1_555
H20_2 C36_2 1_555 1_555
H21_2 C39_2 1_555 1_555
H25_2 C45_2 1_555 1_555
H26_2 C46_2 1_555 1_555
H27_2 C48_2 1_555 1_555
H28_2 C49_2 1_555 1_555
C20_2 C21_2 1_555 1_555
C39_2 C40_2 1_555 1_555
O20_2 C43_2 1_555 1_555
C46_2 C47_2 1_555 1_555
C48_2 C49_2 1_555 1_555
Co5 O1_2 1_555 1_555
O1_2 Co10 1_555 1_555
Co10 O2_2 1_555 1_555
O2_2 C1_2 1_555 1_555
C1_2 O3_2 1_555 1_555
O3_2 Co5 1_555 1_555
C2_2 C1_2 1_555 1_555
C3_2 C2_2 1_555 1_555
C4_2 C3_2 1_555 1_555
C5_2 C4_2 1_555 1_555
C6_2 C5_2 1_555 1_555
C7_2 C6_2 1_555 1_555
C8_2 C7_2 1_555 1_555
C9_2 C8_2 1_555 1_555
C10_2 C9_2 1_555 1_555
O16 C10_2 1_555 1_555
O18 C10_2 1_555 1_555
C11_2 C9_2 1_555 1_555
C12_2 C6_2 1_555 1_555
C13_2 C5_2 1_555 1_555
C14_2 C2_2 1_555 1_555
O6_2 Co10 1_555 1_555
C15_2 O1_2 1_555 1_555
O7_2 Co10 1_555 1_555
H1_2 C3_2 1_555 1_555
H2_2 C4_2 1_555 1_555
H3_2 C7_2 1_555 1_555
H4_2 C8_2 1_555 1_555
H5_2 C11_2 1_555 1_555
H6_2 C12_2 1_555 1_555
H7_2 C13_2 1_555 1_555
H8_2 C14_2 1_555 1_555
C29_2 O12_2 1_555 1_555
O13_2 Co5 1_555 1_555
C30_2 C29_2 1_555 1_555
C31_2 C30_2 1_555 1_555
C32_2 C31_2 1_555 1_555
C33_2 C32_2 1_555 1_555
C41_2 C33_2 1_555 1_555
C42_2 C30_2 1_555 1_555
H17_2 C31_2 1_555 1_555
H18_2 C32_2 1_555 1_555
H23_2 C41_2 1_555 1_555
H24_2 C42_2 1_555 1_555
C11_2 C12_2 1_555 1_555
C13_2 C14_2 1_555 1_555
O6_2 C15_2 1_555 1_555
C29_2 O13_2 1_555 1_555
C41_2 C42_2 1_555 1_555
C23_2 C22_2 1_555 1_555
C24_2 C23_2 1_555 1_555
C25_2 C24_2 1_555 1_555
C26_2 C25_2 1_555 1_555
C27_2 C26_2 1_555 1_555
C28_2 C23_2 1_555 1_555
H15_2 C27_2 1_555 1_555
H16_2 C28_2 1_555 1_555
O22 C50_2 1_555 1_555
C50_2 O24 1_555 1_555
C51_2 C50_2 1_555 1_555
C52_2 C51_2 1_555 1_555
C53_2 C52_2 1_555 1_555
C54_2 C26_2 1_555 1_555
C55_2 C54_2 1_555 1_555
C56_2 C51_2 1_555 1_555
H31_2 C55_2 1_555 1_555
H32_2 C56_2 1_555 1_555
C22_2 O8_2 1_555 1_555
C27_2 C28_2 1_555 1_555
C53_2 C54_2 1_555 1_555
C55_2 C56_2 1_555 1_555
C23_3 C22_3 1_555 1_555
C24_3 C23_3 1_555 1_555
C25_3 C24_3 1_555 1_555
C26_3 C25_3 1_555 1_555
C27_3 C26_3 1_555 1_555
C28_3 C23_3 1_555 1_555
H15_3 C27_3 1_555 1_555
H16_3 C28_3 1_555 1_555
Co8_2 O21_2 1_555 1_555
O21_2 C50_3 1_555 1_555
C50_3 O23_2 1_555 1_555
O23_2 Co8_2 1_555 1_555
C51_3 C50_3 1_555 1_555
C52_3 C51_3 1_555 1_555
C53_3 C52_3 1_555 1_555
C54_3 C26_3 1_555 1_555
C55_3 C54_3 1_555 1_555
C56_3 C51_3 1_555 1_555
H31_3 C55_3 1_555 1_555
H32_3 C56_3 1_555 1_555
C22_3 O8_3 1_555 1_555
C27_3 C28_3 1_555 1_555
C53_3 C54_3 1_555 1_555
C55_3 C56_3 1_555 1_555
Co1 O1_3 1_555 1_555
O1_3 Co2_2 1_555 1_555
Co2_2 O2_3 1_555 1_555
O2_3 C1_3 1_555 1_555
C1_3 O3_3 1_555 1_555
O3_3 Co1 1_555 1_555
C2_3 C1_3 1_555 1_555
C3_3 C2_3 1_555 1_555
C4_3 C3_3 1_555 1_555
C5_3 C4_3 1_555 1_555
C6_3 C5_3 1_555 1_555
C7_3 C6_3 1_555 1_555
C8_3 C7_3 1_555 1_555
C9_3 C8_3 1_555 1_555
C10_3 C9_3 1_555 1_555
O4_2 C10_3 1_555 1_555
O5_2 C10_3 1_555 1_555
C11_3 C9_3 1_555 1_555
C12_3 C6_3 1_555 1_555
C13_3 C5_3 1_555 1_555
C14_3 C2_3 1_555 1_555
O6_3 Co2_2 1_555 1_555
C15_3 O1_3 1_555 1_555
O7_3 Co2_2 1_555 1_555
H1_3 C3_3 1_555 1_555
H2_3 C4_3 1_555 1_555
H3_3 C7_3 1_555 1_555
H4_3 C8_3 1_555 1_555
H5_3 C11_3 1_555 1_555
H6_3 C12_3 1_555 1_555
H7_3 C13_3 1_555 1_555
H8_3 C14_3 1_555 1_555
Co3 O5_2 1_555 1_555
O10 Co1 1_555 1_555
Co7_2 O4_2 1_555 1_555
Co8_2 O10 1_555 1_555
O11 Co8_2 1_555 1_555
C29_3 O11 1_555 1_555
O13_3 Co1 1_555 1_555
C30_3 C29_3 1_555 1_555
C31_3 C30_3 1_555 1_555
C32_3 C31_3 1_555 1_555
C33_3 C32_3 1_555 1_555
O15_2 Co2_2 1_555 1_555
O18_2 Co1 1_555 1_555
O19_2 Co1 1_555 1_555
C41_3 C33_3 1_555 1_555
C42_3 C30_3 1_555 1_555
H17_3 C31_3 1_555 1_555
H18_3 C32_3 1_555 1_555
H23_3 C41_3 1_555 1_555
H24_3 C42_3 1_555 1_555
C11_3 C12_3 1_555 1_555
C13_3 C14_3 1_555 1_555
O6_3 C15_3 1_555 1_555
C29_3 O13_3 1_555 1_555
C41_3 C42_3 1_555 1_555
C17_3 C16_3 1_555 1_555
C18_3 C17_3 1_555 1_555
C19_3 C18_3 1_555 1_555
C20_3 C19_3 1_555 1_555
C21_3 C16_3 1_555 1_555
H9_3 C17_3 1_555 1_555
H10_3 C18_3 1_555 1_555
H11_3 C20_3 1_555 1_555
Co3 O17_2 1_555 1_555
Co10_2 O14_2 1_555 1_555
C35_3 C34_3 1_555 1_555
C36_3 C35_3 1_555 1_555
C37_3 C36_3 1_555 1_555
C38_3 C37_3 1_555 1_555
O14_2 C38_3 1_555 1_555
O16_2 Co8_2 1_555 1_555
O17_2 C38_3 1_555 1_555
C39_3 C37_3 1_555 1_555
C40_3 C34_3 1_555 1_555
O20_3 Co8_2 1_555 1_555
C43_3 O10 1_555 1_555
C44_3 C43_3 1_555 1_555
C45_3 C44_3 1_555 1_555
C46_3 C45_3 1_555 1_555
C47_3 C19_3 1_555 1_555
C48_3 C47_3 1_555 1_555
C49_3 C44_3 1_555 1_555
H19_3 C35_3 1_555 1_555
H20_3 C36_3 1_555 1_555
H21_3 C39_3 1_555 1_555
H25_3 C45_3 1_555 1_555
H26_3 C46_3 1_555 1_555
H27_3 C48_3 1_555 1_555
H28_3 C49_3 1_555 1_555
C20_3 C21_3 1_555 1_555
C39_3 C40_3 1_555 1_555
O20_3 C43_3 1_555 1_555
C46_3 C47_3 1_555 1_555
C48_3 C49_3 1_555 1_555
O16_2 C10_4 1_555 1_555
O18_2 C10_4 1_555 1_555
O15_2 C38_4 1_555 1_555
O19_2 C38_4 1_555 1_555
C7_4 C6_4 1_555 1_555
C8_4 C7_4 1_555 1_555
C9_4 C8_4 1_555 1_555
C11_4 C9_4 1_555 1_555
C12_4 C6_4 1_555 1_555
H3_4 C7_4 1_555 1_555
H4_4 C8_4 1_555 1_555
H5_4 C11_4 1_555 1_555
C11_4 C12_4 1_555 1_555
Co3 O1_4 1_555 1_555
O1_4 Co10_2 1_555 1_555
Co10_2 O2_4 1_555 1_555
O2_4 C1_4 1_555 1_555
C1_4 O3_4 1_555 1_555
O3_4 Co3 1_555 1_555
C2_4 C1_4 1_555 1_555
C3_4 C2_4 1_555 1_555
C4_4 C3_4 1_555 1_555
C5_4 C4_4 1_555 1_555
C13_4 C5_4 1_555 1_555
C14_4 C2_4 1_555 1_555
O6_4 Co10_2 1_555 1_555
C15_4 O1_4 1_555 1_555
C16_4 C15_4 1_555 1_555
C17_4 C16_4 1_555 1_555
C18_4 C17_4 1_555 1_555
C19_4 C18_4 1_555 1_555
C20_4 C19_4 1_555 1_555
C21_4 C16_4 1_555 1_555
O7_4 Co10_2 1_555 1_555
C22_4 O7_4 1_555 1_555
O8_4 Co10_2 1_555 1_555
C23_4 C22_4 1_555 1_555
C24_4 C23_4 1_555 1_555
C25_4 C24_4 1_555 1_555
C26_4 C25_4 1_555 1_555
C27_4 C26_4 1_555 1_555
C28_4 C23_4 1_555 1_555
H1_4 C3_4 1_555 1_555
H2_4 C4_4 1_555 1_555
H7_4 C13_4 1_555 1_555
H8_4 C14_4 1_555 1_555
H9_4 C17_4 1_555 1_555
H10_4 C18_4 1_555 1_555
H11_4 C20_4 1_555 1_555
H12_4 C21_4 1_555 1_555
H13_2 C24_4 1_555 1_555
H14_2 C25_4 1_555 1_555
H15_4 C27_4 1_555 1_555
H16_4 C28_4 1_555 1_555
O10_2 Co3 1_555 1_555
Co7_2 O10_2 1_555 1_555
O11_2 Co7_2 1_555 1_555
C29_4 O11_2 1_555 1_555
O13_4 Co3 1_555 1_555
C30_4 C29_4 1_555 1_555
C31_4 C30_4 1_555 1_555
C32_4 C31_4 1_555 1_555
C33_4 C32_4 1_555 1_555
C34_4 C33_4 1_555 1_555
C35_4 C34_4 1_555 1_555
C36_4 C35_4 1_555 1_555
C37_4 C36_4 1_555 1_555
C39_4 C37_4 1_555 1_555
C40_4 C34_4 1_555 1_555
C41_4 C33_4 1_555 1_555
C42_4 C30_4 1_555 1_555
C45_4 C44_4 1_555 1_555
C46_4 C45_4 1_555 1_555
C47_4 C19_4 1_555 1_555
C48_4 C47_4 1_555 1_555
C49_4 C44_4 1_555 1_555
C50_4 O24_2 1_555 1_555
C51_4 C50_4 1_555 1_555
C52_4 C51_4 1_555 1_555
C53_4 C52_4 1_555 1_555
C54_4 C26_4 1_555 1_555
C55_4 C54_4 1_555 1_555
C56_4 C51_4 1_555 1_555
H17_4 C31_4 1_555 1_555
H18_4 C32_4 1_555 1_555
H19_4 C35_4 1_555 1_555
H20_4 C36_4 1_555 1_555
H21_4 C39_4 1_555 1_555
H22_4 C40_4 1_555 1_555
H23_4 C41_4 1_555 1_555
H24_4 C42_4 1_555 1_555
H25_4 C45_4 1_555 1_555
H26_4 C46_4 1_555 1_555
H27_4 C48_4 1_555 1_555
H29_2 C52_4 1_555 1_555
H30_2 C53_4 1_555 1_555
H31_4 C55_4 1_555 1_555
H32_4 C56_4 1_555 1_555
C13_4 C14_4 1_555 1_555
O6_4 C15_4 1_555 1_555
C20_4 C21_4 1_555 1_555
C22_4 O8_4 1_555 1_555
C27_4 C28_4 1_555 1_555
C29_4 O13_4 1_555 1_555
C39_4 C40_4 1_555 1_555
C41_4 C42_4 1_555 1_555
C46_4 C47_4 1_555 1_555
C48_4 C49_4 1_555 1_555
C53_4 C54_4 1_555 1_555
C55_4 C56_4 1_555 1_555
O20_4 Co7_2 1_555 1_555
C43_4 O10_2 1_555 1_555
O22_2 Co7_2 1_555 1_555
O20_4 C43_4 1_555 1_555

#END
