
###############################################################################
#
# This file contains modified crystal structure data generated from the
# MOF subset of the Cambridge Structural Database (CSD) v543 
# hosted by the Cambridge Crystallographic Data Centre (CCDC).
#
# This work is licensed under the Creative Commons
# Attribution-NonCommercial-ShareAlike 4.0 International License.
# To view a copy of this license, visit
# http://creativecommons.org/licenses/by-nc-sa/4.0/
# or send a letter to
# Creative Commons, PO Box 1866, Mountain View, CA 94042, USA.
#
# CIF created using the CSD Python API on 29 September 2022
# The structure has been converted into the P1 space group
# The structure has a 3D framework
# The original CSD entry HURGEH is in the monoclinic crystal system
# The framework has been calculated to contain at least 10.0% void space
# The void calculation uses a probe of radius 1.32A, grid spacing 0.4
#
###############################################################################

data_HURGEH
_chemical_formula_moiety         '(C108 H44 Co12 O70)n'
_symmetry_cell_setting           triclinic
_symmetry_space_group_name_H-M   'P 1'
_symmetry_Int_Tables_number      1
_space_group_name_Hall           'P 1'
loop_
_symmetry_equiv_pos_site_id
_symmetry_equiv_pos_as_xyz
1 x,y,z
_cell_length_a                   18.0309(9)
_cell_length_b                   14.2780(8)
_cell_length_c                   20.2047(12)
_cell_angle_alpha                90
_cell_angle_beta                 91.406(2)
_cell_angle_gamma                90
_cell_volume                     5200.04
loop_
_atom_site_label
_atom_site_type_symbol
_atom_site_fract_x
_atom_site_fract_y
_atom_site_fract_z
Co2 Co 0.20150(6) 0.20241(7) 0.05764(6)
O3 O 0.2677(3) 0.0908(3) 0.0279(3)
C2 C 0.3232(4) 0.1120(6) 0.0666(4)
O4 O 0.3219(3) 0.1826(4) 0.1020(3)
C3 C 0.3850(4) 0.0409(5) 0.0710(4)
C4 C 0.4589(4) 0.0691(5) 0.0851(4)
C5 C 0.5152(4) 0.0034(5) 0.0856(4)
C6 C 0.5955(4) 0.0330(5) 0.0911(4)
O6 O 0.6072(3) 0.1211(3) 0.0983(3)
Co3 Co 0.70664(5) 0.18049(7) 0.09189(5)
C15 C 0.1083(6) 0.0746(7) 0.1553(6)
O11 O 0.1672(3) 0.1231(4) 0.1411(3)
O12 O 0.0726(4) 0.0843(6) 0.2048(4)
O19 O 0.1728(3) 0.3315(4) 0.1156(3)
H1 H 0.4706 0.1323 0.0931
H10 H 0.1453 0.3804 0.0934
H11 H 0.1694 0.3261 0.1626
O21 O 0.7661(3) 0.0894(3) 0.0365(3)
O22 O 0.8265(3) 0.2213(4) 0.0525(3)
O23 O 0.1034(3) 0.1769(4) 0.0085(3)
O25 O 0.7488(3) 0.1441(4) 0.1805(3)
O27 O 0.6911(3) 0.3148(3) 0.1166(3)
Co1 Co 0.24653(5) 0.05327(7) 0.92488(5)
O1 O 0.2616(3) 0.1906(3) 0.8937(3)
C1 C 0.2565(4) 0.2673(5) 0.9231(4)
O2 O 0.2438(3) 0.2810(3) 0.9835(3)
O13 O 0.2488(3) 0.3559(4) 0.6805(3)
C16 C 0.2630(4) 0.4354(5) 0.7056(4)
O14 O 0.2711(3) 0.5096(4) 0.6737(3)
C17 C 0.2717(4) 0.4363(5) 0.7785(4)
C18 C 0.2858(4) 0.5208(5) 0.8117(4)
C19 C 0.2908(4) 0.5217(5) 0.8795(4)
C20 C 0.2829(4) 0.4391(5) 0.9165(4)
C21 C 0.2685(4) 0.3560(5) 0.8840(4)
C22 C 0.2648(4) 0.3532(5) 0.8148(4)
C23 C 0.3082(4) 0.6113(5) 0.9170(5)
O15 O 0.3089(3) 0.6852(3) 0.8834(3)
O16 O 0.3177(4) 0.6069(4) 0.9787(3)
H5 H 0.2914 0.5755 0.7872
H6 H 0.2869 0.4416 0.9629
H7 H 0.2584 0.2953 0.7932
Co6 Co 0.25347(5) 0.55327(7) 0.57512(5)
O20 O 0.3579(3) 0.0289(4) 0.9121(3)
Co9 Co 0.20664(5) 0.31951(7) 0.59189(5)
Co10 Co 0.29336(5) 0.81951(7) 0.90811(5)
O24 O 0.1367(3) 0.0733(4) 0.9304(3)
O26 O 0.2289(3) 0.0096(4) 0.8263(3)
O28 O 0.6576(3) 0.2338(3) 0.9798(3)
O5 O 0.6421(3) 0.9711(4) 0.0879(3)
C8 C 0.1185(4) 0.8928(6) 0.0190(4)
C9 C 0.1392(4) 0.9613(6) 0.0663(4)
C10 C 0.0858(5) 0.9976(6) 0.1063(5)
C11 C 0.0114(4) 0.9690(6) 0.0984(5)
C13 C 0.0446(4) 0.8641(5) 0.0108(4)
C24 C 0.4983(4) 0.9100(5) 0.0736(4)
C25 C 0.4259(4) 0.8807(5) 0.0610(4)
C26 C 0.3694(4) 0.9476(5) 0.0589(4)
C27 C 0.4108(5) 0.7809(6) 0.0446(5)
O17 O 0.3424(3) 0.7662(3) 0.0202(3)
O18 O 0.4560(4) 0.7195(4) 0.0556(4)
H2 H 0.1893 0.9807 0.0705
H8 H 0.5371 0.8668 0.0727
H9 H 0.3203 0.9283 0.0492
Co4 Co 0.75347(5) 0.94673(7) 0.07512(5)
O7 O 0.2339(3) 0.9106(3) 0.9635(3)
C7 C 0.1764(4) 0.8574(5) 0.9730(4)
O8 O 0.1735(3) 0.7787(4) 0.9475(3)
H4 H 0.0312 0.8200 0.9788
C12 C 0.9914(4) 0.9031(5) 0.0496(4)
C14 C 0.9105(4) 0.8809(6) 0.0363(5)
O10 O 0.8633(3) 0.9267(4) 0.0696(3)
H3 H 0.9746 0.9927 0.1263
O9 O 0.8966(3) 0.8231(4) 0.9915(3)
Co7 Co 0.79850(6) 0.79759(7) 0.94236(6)
C18_2 C 0.2142(4) 0.0208(5) 0.6883(4)
C19_2 C 0.2092(4) 0.0217(5) 0.6205(4)
C23_2 C 0.1918(4) 0.1113(5) 0.5830(5)
O15_2 O 0.1911(3) 0.1852(3) 0.6166(3)
O16_2 O 0.1823(4) 0.1069(4) 0.5213(3)
H5_2 H 0.2086 0.0755 0.7128
O1_2 O 0.2384(3) 0.6906(3) 0.6063(3)
C1_2 C 0.2435(4) 0.7673(5) 0.5769(4)
O2_2 O 0.2562(3) 0.7810(3) 0.5165(3)
Co2_2 Co 0.29850(6) 0.70241(7) 0.44236(6)
O3_2 O 0.2323(3) 0.5908(3) 0.4721(3)
C2_2 C 0.1768(4) 0.6120(6) 0.4334(4)
O4_2 O 0.1781(3) 0.6826(4) 0.3980(3)
C3_2 C 0.1150(4) 0.5409(5) 0.4290(4)
C4_2 C 0.0411(4) 0.5691(5) 0.4149(4)
O7_2 O 0.2661(3) 0.4106(3) 0.5365(3)
C7_2 C 0.3236(4) 0.3574(5) 0.5270(4)
O8_2 O 0.3265(3) 0.2787(4) 0.5525(3)
C8_2 C 0.3815(4) 0.3928(6) 0.4810(4)
C9_2 C 0.3608(4) 0.4613(6) 0.4337(4)
C10_2 C 0.4142(5) 0.4976(6) 0.3937(5)
C11_2 C 0.4886(4) 0.4690(6) 0.4016(5)
C12_2 C 0.5086(4) 0.4031(5) 0.4504(4)
C13_2 C 0.4554(4) 0.3641(5) 0.4892(4)
C14_2 C 0.5895(4) 0.3809(6) 0.4637(5)
O9_2 O 0.6034(3) 0.3231(4) 0.5085(3)
O10_2 O 0.6367(3) 0.4267(4) 0.4304(3)
C15_2 C 0.3917(6) 0.5746(7) 0.3447(6)
O11_2 O 0.3328(3) 0.6231(4) 0.3589(3)
O12_2 O 0.4274(4) 0.5843(6) 0.2952(4)
O13_2 O 0.2512(3) 0.8559(4) 0.8195(3)
C16_2 C 0.2370(4) 0.9354(5) 0.7944(4)
C17_2 C 0.2283(4) 0.9363(5) 0.7215(4)
C20_2 C 0.2171(4) 0.9391(5) 0.5835(4)
C21_2 C 0.2315(4) 0.8560(5) 0.6160(4)
C22_2 C 0.2352(4) 0.8532(5) 0.6852(4)
C24_2 C 0.0017(4) 0.4100(5) 0.4264(4)
C25_2 C 0.0741(4) 0.3807(5) 0.4390(4)
C26_2 C 0.1306(4) 0.4476(5) 0.4411(4)
C27_2 C 0.0892(5) 0.2809(6) 0.4554(5)
O17_2 O 0.1576(3) 0.2662(3) 0.4798(3)
O18_2 O 0.0440(4) 0.2195(4) 0.4444(4)
O19_2 O 0.3272(3) 0.8315(4) 0.3844(3)
H1_2 H 0.0294 0.6323 0.4069
H2_2 H 0.3107 0.4807 0.4295
H3_2 H 0.5254 0.4927 0.3737
H4_2 H 0.4688 0.3200 0.5212
H6_2 H 0.2131 0.9416 0.5371
H7_2 H 0.2416 0.7953 0.7068
H9_2 H 0.1797 0.4283 0.4508
H10_2 H 0.3547 0.8804 0.4066
H11_2 H 0.3306 0.8261 0.3374
Co5 Co 0.74653(5) 0.44673(7) 0.42488(5)
Co7_2 Co 0.70150(6) 0.29759(7) 0.55764(6)
O20_2 O 0.1421(3) 0.5289(4) 0.5879(3)
O23_2 O 0.3966(3) 0.6769(4) 0.4915(3)
O24_2 O 0.3633(3) 0.5733(4) 0.5696(3)
C5_2 C 0.9848(4) 0.5034(5) 0.4144(4)
C6_2 C 0.9045(4) 0.5330(5) 0.4089(4)
O5_2 O 0.8579(3) 0.4711(4) 0.4121(3)
O6_2 O 0.8928(3) 0.6211(3) 0.4017(3)
Co3_2 Co 0.79336(5) 0.68049(7) 0.40811(5)
H8_2 H 0.9629 0.3668 0.4273
O21_2 O 0.7339(3) 0.5894(3) 0.4635(3)
O22_2 O 0.6735(3) 0.7213(4) 0.4475(3)
O25_2 O 0.7512(3) 0.6441(4) 0.3195(3)
O27_2 O 0.8089(3) 0.8148(3) 0.3834(3)
O28_2 O 0.8424(3) 0.7338(3) 0.5202(3)
C12_3 C 0.0086(4) 0.0969(5) 0.9504(4)
C14_3 C 0.0895(4) 0.1191(6) 0.9637(5)
H3_3 H 0.0254 0.0073 0.8737
C7_3 C 0.8236(4) 0.1426(5) 0.0270(4)
H4_3 H 0.9688 0.1800 0.0212
C8_3 C 0.8815(4) 0.1072(6) 0.9810(4)
C9_3 C 0.8608(4) 0.0387(6) 0.9337(4)
C10_3 C 0.9142(5) 0.0024(6) 0.8937(5)
C11_3 C 0.9886(4) 0.0310(6) 0.9016(5)
C13_3 C 0.9554(4) 0.1359(5) 0.9892(4)
C24_3 C 0.5017(4) 0.0900(5) 0.9264(4)
C25_3 C 0.5741(4) 0.1193(5) 0.9390(4)
C26_3 C 0.6306(4) 0.0524(5) 0.9411(4)
C27_3 C 0.5892(5) 0.2191(6) 0.9554(5)
O18_3 O 0.5440(4) 0.2805(4) 0.9444(4)
H2_3 H 0.8107 0.0193 0.9295
H8_3 H 0.4629 0.1332 0.9273
H9_3 H 0.6797 0.0717 0.9508
O1_3 O 0.7384(3) 0.8094(3) 0.1063(3)
C1_3 C 0.7435(4) 0.7327(5) 0.0769(4)
O2_3 O 0.7562(3) 0.7190(3) 0.0165(3)
C16_3 C 0.7370(4) 0.5646(5) 0.2944(4)
O14_2 O 0.7289(3) 0.4904(4) 0.3263(3)
C17_3 C 0.7283(4) 0.5637(5) 0.2215(4)
C18_3 C 0.7142(4) 0.4792(5) 0.1883(4)
C19_3 C 0.7092(4) 0.4783(5) 0.1205(4)
C20_3 C 0.7171(4) 0.5609(5) 0.0835(4)
C21_3 C 0.7315(4) 0.6440(5) 0.1160(4)
C22_3 C 0.7352(4) 0.6468(5) 0.1852(4)
C23_3 C 0.6918(4) 0.3887(5) 0.0830(5)
O16_3 O 0.6823(4) 0.3931(4) 0.0213(3)
H5_3 H 0.7086 0.4245 0.2128
H6_3 H 0.7131 0.5584 0.0371
H7_3 H 0.7416 0.7047 0.2068
O26_2 O 0.7711(3) 0.9904(4) 0.1737(3)
O3_3 O 0.7323(3) 0.9092(3) 0.9721(3)
C2_3 C 0.6768(4) 0.8880(6) 0.9334(4)
O4_3 O 0.6781(3) 0.8174(4) 0.8980(3)
C3_3 C 0.6150(4) 0.9591(5) 0.9290(4)
C4_3 C 0.5411(4) 0.9309(5) 0.9149(4)
C5_3 C 0.4848(4) 0.9966(5) 0.9144(4)
C6_3 C 0.4045(4) 0.9670(5) 0.9089(4)
O6_3 O 0.3928(3) 0.8789(3) 0.9017(3)
C15_3 C 0.8917(6) 0.9254(7) 0.8447(6)
O11_3 O 0.8328(3) 0.8769(4) 0.8589(3)
O12_3 O 0.9274(4) 0.9157(6) 0.7952(4)
O19_3 O 0.8272(3) 0.6685(4) 0.8844(3)
H1_3 H 0.5294 0.8677 0.9069
H10_3 H 0.8547 0.6196 0.9066
H11_3 H 0.8306 0.6739 0.8374
C5_4 C 0.0152(4) 0.4966(5) 0.5856(4)
C6_4 C 0.0955(4) 0.4670(5) 0.5911(4)
O6_4 O 0.1072(3) 0.3789(3) 0.5983(3)
H8_4 H 0.0371 0.6332 0.5727
O1_4 O 0.7616(3) 0.3094(3) 0.3937(3)
C1_4 C 0.7565(4) 0.2327(5) 0.4231(4)
O2_4 O 0.7438(3) 0.2190(3) 0.4835(3)
O3_4 O 0.7677(3) 0.4092(3) 0.5279(3)
C2_4 C 0.8232(4) 0.3880(6) 0.5666(4)
O4_4 O 0.8219(3) 0.3174(4) 0.6020(3)
C3_4 C 0.8850(4) 0.4591(5) 0.5710(4)
C4_4 C 0.9589(4) 0.4309(5) 0.5851(4)
C7_4 C 0.6764(4) 0.6426(5) 0.4730(4)
C8_4 C 0.6185(4) 0.6072(6) 0.5190(4)
C9_4 C 0.6392(4) 0.5387(6) 0.5663(4)
C10_4 C 0.5858(5) 0.5024(6) 0.6063(5)
C11_4 C 0.5114(4) 0.5310(6) 0.5984(5)
C12_4 C 0.4914(4) 0.5969(5) 0.5496(4)
C13_4 C 0.5446(4) 0.6359(5) 0.5108(4)
C14_4 C 0.4105(4) 0.6191(6) 0.5363(5)
C15_4 C 0.6083(6) 0.4254(7) 0.6553(6)
O11_4 O 0.6672(3) 0.3769(4) 0.6411(3)
O12_4 O 0.5726(4) 0.4157(6) 0.7048(4)
C16_4 C 0.7630(4) 0.0646(5) 0.2056(4)
C17_4 C 0.7717(4) 0.0637(5) 0.2785(4)
C20_4 C 0.7829(4) 0.0609(5) 0.4165(4)
C21_4 C 0.7685(4) 0.1440(5) 0.3840(4)
C22_4 C 0.7648(4) 0.1468(5) 0.3148(4)
C24_4 C 0.9983(4) 0.5900(5) 0.5736(4)
C25_4 C 0.9259(4) 0.6193(5) 0.5610(4)
C26_4 C 0.8694(4) 0.5524(5) 0.5589(4)
C27_4 C 0.9108(5) 0.7191(6) 0.5446(5)
O18_4 O 0.9560(4) 0.7805(4) 0.5556(4)
O19_4 O 0.6728(3) 0.1685(4) 0.6156(3)
H1_4 H 0.9706 0.3677 0.5931
H2_4 H 0.6893 0.5193 0.5705
H3_4 H 0.4746 0.5073 0.6263
H4_4 H 0.5312 0.6800 0.4788
H6_4 H 0.7869 0.0584 0.4629
H7_4 H 0.7584 0.2047 0.2932
H9_4 H 0.8203 0.5717 0.5492
H10_4 H 0.6453 0.1196 0.5934
H11_4 H 0.6694 0.1739 0.6626
C18_4 C 0.7858(4) 0.9792(5) 0.3117(4)
C19_4 C 0.7908(4) 0.9783(5) 0.3795(4)
C23_4 C 0.8082(4) 0.8887(5) 0.4170(5)
O16_4 O 0.8177(4) 0.8931(4) 0.4787(3)
H5_4 H 0.7914 0.9245 0.2872
loop_
_geom_bond_atom_site_label_1
_geom_bond_atom_site_label_2
_geom_bond_site_symmetry_1
_geom_bond_site_symmetry_2
Co2 O3 1_555 1_555
C2 O3 1_555 1_555
O4 Co2 1_555 1_555
C3 C2 1_555 1_555
C4 C3 1_555 1_555
C5 C4 1_555 1_555
C6 C5 1_555 1_555
O6 C6 1_555 1_555
Co3 O6 1_555 1_555
O11 Co2 1_555 1_555
O12 C15 1_555 1_555
O19 Co2 1_555 1_555
H1 C4 1_555 1_555
H10 O19 1_555 1_555
H11 O19 1_555 1_555
O21 Co3 1_555 1_555
O22 Co3 1_555 1_555
O23 Co2 1_555 1_555
O25 Co3 1_555 1_555
O27 Co3 1_555 1_555
C2 O4 1_555 1_555
C15 O11 1_555 1_555
Co1 O1 1_555 1_555
O1 C1 1_555 1_555
C1 O2 1_555 1_555
O13 C16 1_555 1_555
C16 O14 1_555 1_555
O14 Co6 1_555 1_555
C17 C16 1_555 1_555
C18 C17 1_555 1_555
C19 C18 1_555 1_555
C20 C19 1_555 1_555
C21 C1 1_555 1_555
C22 C17 1_555 1_555
C23 C19 1_555 1_555
O15 C23 1_555 1_555
O16 C23 1_555 1_555
H5 C18 1_555 1_555
H6 C20 1_555 1_555
H7 C22 1_555 1_555
O20 Co1 1_555 1_555
Co9 O13 1_555 1_555
Co10 O15 1_555 1_555
O24 Co1 1_555 1_555
O26 Co1 1_555 1_555
C20 C21 1_555 1_555
C21 C22 1_555 1_555
C9 C8 1_555 1_555
C10 C9 1_555 1_555
C11 C10 1_555 1_555
C13 C8 1_555 1_555
C25 C24 1_555 1_555
C27 C25 1_555 1_555
O17 C27 1_555 1_555
O18 C27 1_555 1_555
H2 C9 1_555 1_555
H8 C24 1_555 1_555
H9 C26 1_555 1_555
Co4 O5 1_555 1_555
C25 C26 1_555 1_555
C7 O7 1_555 1_555
O8 C7 1_555 1_555
Co10 O7 1_555 1_555
O8 Co10 1_555 1_555
C14 C12 1_555 1_555
O10 C14 1_555 1_555
Co4 O10 1_555 1_555
Co7 O9 1_555 1_555
C19_2 C18_2 1_555 1_555
C23_2 C19_2 1_555 1_555
O15_2 C23_2 1_555 1_555
O16_2 C23_2 1_555 1_555
H5_2 C18_2 1_555 1_555
Co9 O15_2 1_555 1_555
Co6 O1_2 1_555 1_555
O1_2 C1_2 1_555 1_555
C1_2 O2_2 1_555 1_555
O2_2 Co2_2 1_555 1_555
Co2_2 O3_2 1_555 1_555
O3_2 Co6 1_555 1_555
C2_2 O3_2 1_555 1_555
O4_2 Co2_2 1_555 1_555
C3_2 C2_2 1_555 1_555
C4_2 C3_2 1_555 1_555
O7_2 Co6 1_555 1_555
C7_2 O7_2 1_555 1_555
O8_2 C7_2 1_555 1_555
C8_2 C7_2 1_555 1_555
C9_2 C8_2 1_555 1_555
C10_2 C9_2 1_555 1_555
C11_2 C10_2 1_555 1_555
C12_2 C11_2 1_555 1_555
C13_2 C8_2 1_555 1_555
C14_2 C12_2 1_555 1_555
O9_2 C14_2 1_555 1_555
O10_2 C14_2 1_555 1_555
C15_2 C10_2 1_555 1_555
O11_2 Co2_2 1_555 1_555
O12_2 C15_2 1_555 1_555
O13_2 C16_2 1_555 1_555
C17_2 C16_2 1_555 1_555
C21_2 C1_2 1_555 1_555
C22_2 C17_2 1_555 1_555
C25_2 C24_2 1_555 1_555
C26_2 C3_2 1_555 1_555
C27_2 C25_2 1_555 1_555
O17_2 C27_2 1_555 1_555
O18_2 C27_2 1_555 1_555
O19_2 Co2_2 1_555 1_555
H1_2 C4_2 1_555 1_555
H2_2 C9_2 1_555 1_555
H3_2 C11_2 1_555 1_555
H4_2 C13_2 1_555 1_555
H6_2 C20_2 1_555 1_555
H7_2 C22_2 1_555 1_555
H9_2 C26_2 1_555 1_555
H10_2 O19_2 1_555 1_555
H11_2 O19_2 1_555 1_555
Co5 O10_2 1_555 1_555
Co7_2 O9_2 1_555 1_555
O20_2 Co6 1_555 1_555
Co9 O7_2 1_555 1_555
Co10 O13_2 1_555 1_555
O23_2 Co2_2 1_555 1_555
O24_2 Co6 1_555 1_555
C2_2 O4_2 1_555 1_555
O8_2 Co9 1_555 1_555
C12_2 C13_2 1_555 1_555
C15_2 O11_2 1_555 1_555
C20_2 C21_2 1_555 1_555
C21_2 C22_2 1_555 1_555
C25_2 C26_2 1_555 1_555
O17_2 Co9 1_555 1_555
C6_2 C5_2 1_555 1_555
O5_2 C6_2 1_555 1_555
O6_2 C6_2 1_555 1_555
Co3_2 O6_2 1_555 1_555
Co5 O5_2 1_555 1_555
O21_2 Co3_2 1_555 1_555
O22_2 Co3_2 1_555 1_555
O25_2 Co3_2 1_555 1_555
O27_2 Co3_2 1_555 1_555
O28_2 Co3_2 1_555 1_555
Co5 O21_2 1_555 1_555
C14_3 C12_3 1_555 1_555
O24 C14_3 1_555 1_555
C7_3 O21 1_555 1_555
O22 C7_3 1_555 1_555
C9_3 C8_3 1_555 1_555
C10_3 C9_3 1_555 1_555
C11_3 C10_3 1_555 1_555
C13_3 C8_3 1_555 1_555
C25_3 C24_3 1_555 1_555
C27_3 C25_3 1_555 1_555
O28 C27_3 1_555 1_555
O18_3 C27_3 1_555 1_555
H2_3 C9_3 1_555 1_555
H8_3 C24_3 1_555 1_555
H9_3 C26_3 1_555 1_555
C25_3 C26_3 1_555 1_555
Co4 O1_3 1_555 1_555
O1_3 C1_3 1_555 1_555
C1_3 O2_3 1_555 1_555
O25_2 C16_3 1_555 1_555
C16_3 O14_2 1_555 1_555
O14_2 Co5 1_555 1_555
C17_3 C16_3 1_555 1_555
C18_3 C17_3 1_555 1_555
C19_3 C18_3 1_555 1_555
C20_3 C19_3 1_555 1_555
C21_3 C1_3 1_555 1_555
C22_3 C17_3 1_555 1_555
C23_3 C19_3 1_555 1_555
O27 C23_3 1_555 1_555
O16_3 C23_3 1_555 1_555
H5_3 C18_3 1_555 1_555
H6_3 C20_3 1_555 1_555
H7_3 C22_3 1_555 1_555
O26_2 Co4 1_555 1_555
C20_3 C21_3 1_555 1_555
C21_3 C22_3 1_555 1_555
Co7 O3_3 1_555 1_555
C2_3 O3_3 1_555 1_555
O4_3 Co7 1_555 1_555
C3_3 C2_3 1_555 1_555
C4_3 C3_3 1_555 1_555
C5_3 C4_3 1_555 1_555
C6_3 C5_3 1_555 1_555
O6_3 C6_3 1_555 1_555
Co10 O6_3 1_555 1_555
O11_3 Co7 1_555 1_555
O12_3 C15_3 1_555 1_555
O19_3 Co7 1_555 1_555
H1_3 C4_3 1_555 1_555
H10_3 O19_3 1_555 1_555
H11_3 O19_3 1_555 1_555
C2_3 O4_3 1_555 1_555
C15_3 O11_3 1_555 1_555
C6_4 C5_4 1_555 1_555
O20_2 C6_4 1_555 1_555
O6_4 C6_4 1_555 1_555
Co9 O6_4 1_555 1_555
Co5 O1_4 1_555 1_555
O1_4 C1_4 1_555 1_555
C1_4 O2_4 1_555 1_555
O2_4 Co7_2 1_555 1_555
Co7_2 O3_4 1_555 1_555
O3_4 Co5 1_555 1_555
C2_4 O3_4 1_555 1_555
O4_4 Co7_2 1_555 1_555
C3_4 C2_4 1_555 1_555
C4_4 C3_4 1_555 1_555
C7_4 O21_2 1_555 1_555
O22_2 C7_4 1_555 1_555
C8_4 C7_4 1_555 1_555
C9_4 C8_4 1_555 1_555
C10_4 C9_4 1_555 1_555
C11_4 C10_4 1_555 1_555
C12_4 C11_4 1_555 1_555
C13_4 C8_4 1_555 1_555
C14_4 C12_4 1_555 1_555
O23_2 C14_4 1_555 1_555
O24_2 C14_4 1_555 1_555
C15_4 C10_4 1_555 1_555
O11_4 Co7_2 1_555 1_555
O12_4 C15_4 1_555 1_555
O25 C16_4 1_555 1_555
C17_4 C16_4 1_555 1_555
C21_4 C1_4 1_555 1_555
C22_4 C17_4 1_555 1_555
C25_4 C24_4 1_555 1_555
C26_4 C3_4 1_555 1_555
C27_4 C25_4 1_555 1_555
O28_2 C27_4 1_555 1_555
O18_4 C27_4 1_555 1_555
O19_4 Co7_2 1_555 1_555
H1_4 C4_4 1_555 1_555
H2_4 C9_4 1_555 1_555
H3_4 C11_4 1_555 1_555
H4_4 C13_4 1_555 1_555
H6_4 C20_4 1_555 1_555
H7_4 C22_4 1_555 1_555
H9_4 C26_4 1_555 1_555
H10_4 O19_4 1_555 1_555
H11_4 O19_4 1_555 1_555
C2_4 O4_4 1_555 1_555
C12_4 C13_4 1_555 1_555
C15_4 O11_4 1_555 1_555
C20_4 C21_4 1_555 1_555
C21_4 C22_4 1_555 1_555
C25_4 C26_4 1_555 1_555
C19_4 C18_4 1_555 1_555
C23_4 C19_4 1_555 1_555
O27_2 C23_4 1_555 1_555
O16_4 C23_4 1_555 1_555
H5_4 C18_4 1_555 1_555

#END
