
###############################################################################
#
# This file contains modified crystal structure data generated from the
# MOF subset of the Cambridge Structural Database (CSD) v543 
# hosted by the Cambridge Crystallographic Data Centre (CCDC).
#
# This work is licensed under the Creative Commons
# Attribution-NonCommercial-ShareAlike 4.0 International License.
# To view a copy of this license, visit
# http://creativecommons.org/licenses/by-nc-sa/4.0/
# or send a letter to
# Creative Commons, PO Box 1866, Mountain View, CA 94042, USA.
#
# CIF created using the CSD Python API on 29 September 2022
# The structure has been converted into the P1 space group
# The structure has a 3D framework
# The original CSD entry HURHAG is in the monoclinic crystal system
# The framework has been calculated to contain at least 10.0% void space
# The void calculation uses a probe of radius 1.32A, grid spacing 0.4
#
###############################################################################

data_HURHAG
_chemical_formula_moiety         '(C168 H116 N8 O48 Zn8)n'
_symmetry_cell_setting           triclinic
_symmetry_space_group_name_H-M   'P 1'
_symmetry_Int_Tables_number      1
_space_group_name_Hall           'P 1'
loop_
_symmetry_equiv_pos_site_id
_symmetry_equiv_pos_as_xyz
1 x,y,z
_cell_length_a                   22.412(3)
_cell_length_b                   11.1024(14)
_cell_length_c                   18.087(4)
_cell_angle_alpha                90
_cell_angle_beta                 118.069(4)
_cell_angle_gamma                90
_cell_volume                     3971.19
loop_
_atom_site_label
_atom_site_type_symbol
_atom_site_fract_x
_atom_site_fract_y
_atom_site_fract_z
O7 O 0.07495(16) 0.1836(3) 0.7583(2)
O8 O 0.03733(19) 0.1549(3) 0.6237(2)
C25 C 0.0600(2) 0.1146(4) 0.6959(3)
Zn5 Zn 0.05731(2) 0.34612(4) 0.70536(3)
O9 O 0.03236(14) 0.5828(3) 0.36765(17)
O10 O 0.09701(15) 0.5521(3) 0.30579(17)
O11 O 0.09837(16) 0.4088(3) 0.64094(19)
C35 C 0.0837(2) 0.5418(3) 0.3653(2)
O12 O 0.1886(2) 0.2929(5) 0.7042(2)
C36 C 0.13463(18) 0.4770(3) 0.4415(2)
C37 C 0.1985(2) 0.4504(4) 0.4500(3)
C38 C 0.1207(2) 0.4462(3) 0.5058(2)
C39 C 0.1683(2) 0.3925(4) 0.5782(2)
C40 C 0.2464(3) 0.3980(5) 0.5224(3)
C41 C 0.1521(2) 0.3607(4) 0.6470(3)
C42 C 0.2318(2) 0.3680(4) 0.5861(3)
H25 H 0.082(2) 0.463(3) 0.500(2)
H26 H 0.266(2) 0.332(4) 0.634(3)
H27 H 0.282(2) 0.380(4) 0.526(3)
H28 H 0.211(2) 0.470(4) 0.406(3)
Zn3 Zn 0.05731(2) 0.65388(4) 0.20536(3)
O13 O 0.09701(15) 0.4479(3) 0.80579(17)
O3 O 0.09837(16) 0.5912(3) 0.14094(19)
O4 O 0.07495(16) 0.8164(3) 0.2583(2)
O5 O 0.03733(19) 0.8451(3) 0.1237(2)
O6 O 0.1886(2) 0.7071(5) 0.2042(2)
C4 C 0.1207(2) 0.5538(3) 0.0058(2)
C5 C 0.1683(2) 0.6075(4) 0.0782(2)
C9 C 0.0600(2) 0.8854(4) 0.1959(3)
C13 C 0.2464(3) 0.6020(5) 0.0224(3)
C15 C 0.1521(2) 0.6393(4) 0.1470(3)
C18 C 0.2318(2) 0.6320(4) 0.0861(3)
H1 H 0.082(2) 0.537(3) 0.000(2)
H3 H 0.266(2) 0.668(4) 0.134(3)
H6 H 0.282(2) 0.620(4) 0.026(3)
O1 O 0.03236(14) 0.4172(3) 0.86765(17)
C1 C 0.0837(2) 0.4582(3) 0.8653(2)
C2 C 0.13463(18) 0.5230(3) 0.9415(2)
C3 C 0.1985(2) 0.5496(4) 0.9500(3)
H1_2 H 0.082(2) 0.537(3) 1.000(2)
H8 H 0.211(2) 0.530(4) 0.906(3)
Zn1 Zn 0.44269(2) 0.15388(4) 0.29464(3)
O3_2 O 0.40163(16) 0.0912(3) 0.35906(19)
O4_2 O 0.42505(16) 0.3164(3) 0.2417(2)
O5_2 O 0.46267(19) 0.3451(3) 0.3763(2)
N1 N 0.37377(18) 0.7681(3) 0.4345(3)
O6_2 O 0.3114(2) 0.2071(5) 0.2958(2)
C2_2 C 0.36537(18) 0.0230(3) 0.5585(2)
C3_2 C 0.3015(2) 0.0496(4) 0.5500(3)
C4_2 C 0.3793(2) 0.0538(3) 0.4942(2)
C5_2 C 0.3317(2) 0.1075(4) 0.4218(2)
C6 C 0.4333(2) 0.5913(4) 0.3522(3)
C7 C 0.3888(3) 0.7222(4) 0.5095(3)
C8 C 0.3407(2) 0.7127(4) 0.5348(3)
C9_2 C 0.4400(2) 0.3854(4) 0.3041(3)
C10 C 0.2755(2) 0.7500(3) 0.4852(3)
C11 C 0.42902(19) 0.5179(4) 0.2888(3)
C12 C 0.4236(2) 0.7144(4) 0.3414(3)
C13_2 C 0.2536(3) 0.1020(5) 0.4776(3)
C14 C 0.4157(2) 0.5688(4) 0.2129(3)
C15_2 C 0.3479(2) 0.1393(4) 0.3530(3)
C16 C 0.4073(2) 0.6918(4) 0.2011(4)
C17 C 0.3097(3) 0.7972(6) 0.3826(4)
C18_2 C 0.2682(2) 0.1320(4) 0.4139(3)
C19 C 0.4105(2) 0.7632(4) 0.2646(3)
C20 C 0.4284(3) 0.7930(5) 0.4109(4)
C21 C 0.2607(3) 0.7891(5) 0.4053(3)
H1_3 H 0.418(2) 0.037(3) 0.500(2)
H2 H 0.427(3) 0.881(6) 0.401(4)
H3_2 H 0.234(2) 0.168(4) 0.366(3)
H4 H 0.414(2) 0.526(4) 0.170(3)
H5 H 0.443(2) 0.564(4) 0.400(3)
H6_2 H 0.218(2) 0.120(4) 0.474(3)
H7 H 0.472(2) 0.770(4) 0.465(3)
H8_2 H 0.289(2) 0.030(4) 0.594(3)
H9 H 0.402(3) 0.840(5) 0.251(3)
H10 H 0.434(3) 0.700(5) 0.542(3)
H11 H 0.355(2) 0.691(4) 0.582(3)
H12 H 0.402(2) 0.721(4) 0.152(3)
H13 H 0.219(3) 0.799(4) 0.372(3)
H14 H 0.306(3) 0.824(4) 0.343(3)
N2 N 0.12623(18) 0.7319(3) 0.5655(3)
C22 C 0.0667(2) 0.9087(4) 0.6478(3)
C23 C 0.1112(3) 0.7778(4) 0.4905(3)
C24 C 0.1593(2) 0.7873(4) 0.4652(3)
C26 C 0.2245(2) 0.7500(3) 0.5148(3)
C27 C 0.07098(19) 0.9821(4) 0.7112(3)
C28 C 0.0764(2) 0.7856(4) 0.6586(3)
C29 C 0.0843(2) 0.9312(4) 0.7871(3)
C30 C 0.0927(2) 0.8082(4) 0.7989(4)
C31 C 0.1903(3) 0.7028(6) 0.6174(4)
C32 C 0.0895(2) 0.7368(4) 0.7354(3)
C33 C 0.0716(3) 0.7070(5) 0.5891(4)
C34 C 0.2393(3) 0.7109(5) 0.5947(3)
H15 H 0.073(3) 0.619(6) 0.599(4)
H16 H 0.086(2) 0.974(4) 0.830(3)
H17 H 0.057(2) 0.936(4) 0.600(3)
H18 H 0.028(2) 0.730(4) 0.535(3)
H19 H 0.098(3) 0.660(5) 0.749(3)
H20 H 0.066(3) 0.800(5) 0.458(3)
H21 H 0.145(2) 0.809(4) 0.418(3)
H22 H 0.098(2) 0.779(4) 0.848(3)
H23 H 0.281(3) 0.701(4) 0.628(3)
H24 H 0.194(3) 0.676(4) 0.657(3)
O9_2 O 0.53236(14) 0.0828(3) 0.36765(17)
O10_2 O 0.59701(15) 0.0521(3) 0.30579(17)
C35_2 C 0.5837(2) 0.0418(3) 0.3653(2)
Zn3_2 Zn 0.55731(2) 0.15388(4) 0.20536(3)
O14 O 0.40299(15) 0.0521(3) 0.19421(17)
O3_3 O 0.59837(16) 0.0912(3) 0.14094(19)
O4_3 O 0.57495(16) 0.3164(3) 0.2583(2)
O5_3 O 0.53733(19) 0.3451(3) 0.1237(2)
N1_2 N 0.62623(18) 0.7681(3) 0.0655(3)
O6_3 O 0.6886(2) 0.2071(5) 0.2042(2)
C4_3 C 0.6207(2) 0.0538(3) 0.0058(2)
C5_3 C 0.6683(2) 0.1075(4) 0.0782(2)
C6_2 C 0.5667(2) 0.5913(4) 0.1478(3)
C9_3 C 0.5600(2) 0.3854(4) 0.1959(3)
C10_2 C 0.7245(2) 0.7500(3) 0.0148(3)
C11_2 C 0.57098(19) 0.5179(4) 0.2112(3)
C12_2 C 0.5764(2) 0.7144(4) 0.1586(3)
C13_3 C 0.7464(3) 0.1020(5) 0.0224(3)
C14_2 C 0.5843(2) 0.5688(4) 0.2871(3)
C15_3 C 0.6521(2) 0.1393(4) 0.1470(3)
C16_2 C 0.5927(2) 0.6918(4) 0.2989(4)
C17_2 C 0.6903(3) 0.7972(6) 0.1174(4)
C18_3 C 0.7318(2) 0.1320(4) 0.0861(3)
C19_2 C 0.5895(2) 0.7632(4) 0.2354(3)
C20_2 C 0.5716(3) 0.7930(5) 0.0891(4)
C21_2 C 0.7393(3) 0.7891(5) 0.0947(3)
H1_4 H 0.582(2) 0.037(3) 0.000(2)
H2_2 H 0.573(3) 0.881(6) 0.099(4)
H3_3 H 0.766(2) 0.168(4) 0.134(3)
H4_2 H 0.586(2) 0.526(4) 0.330(3)
H5_2 H 0.557(2) 0.564(4) 0.100(3)
H6_3 H 0.782(2) 0.120(4) 0.026(3)
H7_2 H 0.528(2) 0.770(4) 0.035(3)
H9_2 H 0.598(3) 0.840(5) 0.249(3)
H12_2 H 0.598(2) 0.721(4) 0.348(3)
H13_2 H 0.781(3) 0.799(4) 0.128(3)
H14_2 H 0.694(3) 0.824(4) 0.157(3)
C23_2 C 0.8888(3) 0.7778(4) 0.0095(3)
C24_2 C 0.8407(2) 0.7873(4) 0.0348(3)
H20_2 H 0.934(3) 0.800(5) 0.042(3)
H21_2 H 0.855(2) 0.809(4) 0.082(3)
O9_3 O 0.46764(14) 0.0828(3) 0.13235(17)
C35_3 C 0.4163(2) 0.0418(3) 0.1347(2)
O1_2 O 0.46764(14) 0.9172(3) 0.63235(17)
O2 O 0.40299(15) 0.9479(3) 0.69421(17)
C1_2 C 0.4163(2) 0.9582(3) 0.6347(2)
Zn2 Zn 0.55731(2) 0.84612(4) 0.70536(3)
O11_2 O 0.59837(16) 0.9088(3) 0.64094(19)
O12_2 O 0.6886(2) 0.7929(5) 0.7042(2)
C36_2 C 0.63463(18) 0.9770(3) 0.4415(2)
C37_2 C 0.6985(2) 0.9504(4) 0.4500(3)
C38_2 C 0.6207(2) 0.9462(3) 0.5058(2)
C39_2 C 0.6683(2) 0.8925(4) 0.5782(2)
C40_2 C 0.7464(3) 0.8980(5) 0.5224(3)
C41_2 C 0.6521(2) 0.8607(4) 0.6470(3)
C42_2 C 0.7318(2) 0.8680(4) 0.5861(3)
H25_2 H 0.582(2) 0.963(3) 0.500(2)
H26_2 H 0.766(2) 0.832(4) 0.634(3)
H27_2 H 0.782(2) 0.880(4) 0.526(3)
H28_2 H 0.711(2) 0.970(4) 0.406(3)
Zn4 Zn 0.44269(2) 0.84612(4) 0.79464(3)
O13_2 O 0.59701(15) 0.9479(3) 0.80579(17)
O15 O 0.57495(16) 0.6836(3) 0.7583(2)
O16 O 0.53733(19) 0.6549(3) 0.6237(2)
O1_3 O 0.53236(14) 0.9172(3) 0.86765(17)
C1_3 C 0.5837(2) 0.9582(3) 0.8653(2)
O11_3 O 0.40163(16) 0.9088(3) 0.85906(19)
O12_3 O 0.3114(2) 0.7929(5) 0.7958(2)
C38_3 C 0.3793(2) 0.9462(3) 0.9942(2)
C39_3 C 0.3317(2) 0.8925(4) 0.9218(2)
C40_3 C 0.2536(3) 0.8980(5) 0.9776(3)
C41_3 C 0.3479(2) 0.8607(4) 0.8530(3)
C42_3 C 0.2682(2) 0.8680(4) 0.9139(3)
H25_3 H 0.418(2) 0.963(3) 1.000(2)
H26_3 H 0.234(2) 0.832(4) 0.866(3)
H27_3 H 0.218(2) 0.880(4) 0.974(3)
O15_2 O 0.42505(16) 0.6836(3) 0.7417(2)
O16_2 O 0.46267(19) 0.6549(3) 0.8763(2)
N1_3 N 0.87377(18) 0.2681(3) 0.4345(3)
C6_3 C 0.9333(2) 0.0913(4) 0.3522(3)
C7_2 C 0.8888(3) 0.2222(4) 0.5095(3)
C8_2 C 0.8407(2) 0.2127(4) 0.5348(3)
C10_3 C 0.7755(2) 0.2500(3) 0.4852(3)
C11_3 C 0.92902(19) 0.0179(4) 0.2888(3)
C12_3 C 0.9236(2) 0.2144(4) 0.3414(3)
C14_3 C 0.9157(2) 0.0688(4) 0.2129(3)
C16_3 C 0.9073(2) 0.1918(4) 0.2011(4)
C17_3 C 0.8097(3) 0.2972(6) 0.3826(4)
C19_3 C 0.9105(2) 0.2632(4) 0.2646(3)
C20_3 C 0.9284(3) 0.2930(5) 0.4109(4)
C21_3 C 0.7607(3) 0.2891(5) 0.4053(3)
H2_3 H 0.927(3) 0.381(6) 0.401(4)
H4_3 H 0.914(2) 0.026(4) 0.170(3)
H5_3 H 0.943(2) 0.064(4) 0.400(3)
H7_3 H 0.972(2) 0.270(4) 0.465(3)
H9_3 H 0.902(3) 0.340(5) 0.251(3)
H10_2 H 0.934(3) 0.200(5) 0.542(3)
H11_2 H 0.855(2) 0.191(4) 0.582(3)
H12_3 H 0.902(2) 0.221(4) 0.152(3)
H13_3 H 0.719(3) 0.299(4) 0.372(3)
H14_3 H 0.806(3) 0.324(4) 0.343(3)
N2_2 N 0.62623(18) 0.2319(3) 0.5655(3)
C22_2 C 0.5667(2) 0.4087(4) 0.6478(3)
C23_3 C 0.6112(3) 0.2778(4) 0.4905(3)
C24_3 C 0.6593(2) 0.2873(4) 0.4652(3)
C25_2 C 0.5600(2) 0.6146(4) 0.6959(3)
C26_2 C 0.7245(2) 0.2500(3) 0.5148(3)
C27_2 C 0.57098(19) 0.4821(4) 0.7112(3)
C28_2 C 0.5764(2) 0.2856(4) 0.6586(3)
C29_2 C 0.5843(2) 0.4312(4) 0.7871(3)
C30_2 C 0.5927(2) 0.3082(4) 0.7989(4)
C31_2 C 0.6903(3) 0.2028(6) 0.6174(4)
C32_2 C 0.5895(2) 0.2368(4) 0.7354(3)
C33_2 C 0.5716(3) 0.2070(5) 0.5891(4)
C34_2 C 0.7393(3) 0.2109(5) 0.5947(3)
H15_2 H 0.573(3) 0.119(6) 0.599(4)
H16_2 H 0.586(2) 0.474(4) 0.830(3)
H17_2 H 0.557(2) 0.436(4) 0.600(3)
H18_2 H 0.528(2) 0.230(4) 0.535(3)
H19_2 H 0.598(3) 0.160(5) 0.749(3)
H20_3 H 0.566(3) 0.300(5) 0.458(3)
H21_3 H 0.645(2) 0.309(4) 0.418(3)
H22_2 H 0.598(2) 0.279(4) 0.848(3)
H23_2 H 0.781(3) 0.201(4) 0.628(3)
H24_2 H 0.694(3) 0.176(4) 0.657(3)
C7_3 C 0.1112(3) 0.2222(4) 0.9905(3)
C8_3 C 0.1593(2) 0.2127(4) 0.9652(3)
H10_3 H 0.066(3) 0.200(5) 0.958(3)
H11_3 H 0.145(2) 0.191(4) 0.918(3)
N2_3 N 0.37377(18) 0.2319(3) 0.9345(3)
C22_3 C 0.4333(2) 0.4087(4) 0.8522(3)
C25_3 C 0.4400(2) 0.6146(4) 0.8041(3)
C26_3 C 0.2755(2) 0.2500(3) 0.9852(3)
C27_3 C 0.42902(19) 0.4821(4) 0.7888(3)
C28_3 C 0.4236(2) 0.2856(4) 0.8414(3)
C29_3 C 0.4157(2) 0.4312(4) 0.7129(3)
C30_3 C 0.4073(2) 0.3082(4) 0.7011(4)
C31_3 C 0.3097(3) 0.2028(6) 0.8826(4)
C32_3 C 0.4105(2) 0.2368(4) 0.7646(3)
C33_3 C 0.4284(3) 0.2070(5) 0.9109(4)
C34_3 C 0.2607(3) 0.2109(5) 0.9053(3)
H15_3 H 0.427(3) 0.119(6) 0.901(4)
H16_3 H 0.414(2) 0.474(4) 0.670(3)
H17_3 H 0.443(2) 0.436(4) 0.900(3)
H18_3 H 0.472(2) 0.230(4) 0.965(3)
H19_3 H 0.402(3) 0.160(5) 0.751(3)
H22_3 H 0.402(2) 0.279(4) 0.652(3)
H23_3 H 0.219(3) 0.201(4) 0.872(3)
H24_3 H 0.306(3) 0.176(4) 0.843(3)
O7_2 O 0.92505(16) 0.1836(3) 0.7417(2)
O8_2 O 0.96267(19) 0.1549(3) 0.8763(2)
C25_4 C 0.9400(2) 0.1146(4) 0.8041(3)
Zn5_2 Zn 0.94269(2) 0.34612(4) 0.79464(3)
Zn1_2 Zn 0.94269(2) 0.65388(4) 0.29464(3)
O1_4 O 0.96764(14) 0.4172(3) 0.63235(17)
O2_2 O 0.90299(15) 0.4479(3) 0.69421(17)
O3_4 O 0.90163(16) 0.5912(3) 0.35906(19)
O4_4 O 0.92505(16) 0.8164(3) 0.2417(2)
O5_4 O 0.96267(19) 0.8451(3) 0.3763(2)
C1_4 C 0.9163(2) 0.4582(3) 0.6347(2)
O6_4 O 0.8114(2) 0.7071(5) 0.2958(2)
C2_3 C 0.86537(18) 0.5230(3) 0.5585(2)
C3_3 C 0.8015(2) 0.5496(4) 0.5500(3)
C4_4 C 0.8793(2) 0.5538(3) 0.4942(2)
C5_4 C 0.8317(2) 0.6075(4) 0.4218(2)
C9_4 C 0.9400(2) 0.8854(4) 0.3041(3)
C13_4 C 0.7536(3) 0.6020(5) 0.4776(3)
C15_4 C 0.8479(2) 0.6393(4) 0.3530(3)
C18_4 C 0.7682(2) 0.6320(4) 0.4139(3)
H1_5 H 0.918(2) 0.537(3) 0.500(2)
H3_4 H 0.734(2) 0.668(4) 0.366(3)
H6_4 H 0.718(2) 0.620(4) 0.474(3)
H8_3 H 0.789(2) 0.530(4) 0.594(3)
O14_2 O 0.90299(15) 0.5521(3) 0.19421(17)
O9_4 O 0.96764(14) 0.5828(3) 0.13235(17)
C35_4 C 0.9163(2) 0.5418(3) 0.1347(2)
C36_3 C 0.86537(18) 0.4770(3) 0.0585(2)
C37_3 C 0.8015(2) 0.4504(4) 0.0500(3)
H25_4 H 0.918(2) 0.463(3) 0.000(2)
H28_3 H 0.789(2) 0.470(4) 0.094(3)
O11_4 O 0.90163(16) 0.4088(3) 0.85906(19)
O12_4 O 0.8114(2) 0.2929(5) 0.7958(2)
C38_4 C 0.8793(2) 0.4462(3) 0.9942(2)
C39_4 C 0.8317(2) 0.3925(4) 0.9218(2)
C40_4 C 0.7536(3) 0.3980(5) 0.9776(3)
C41_4 C 0.8479(2) 0.3607(4) 0.8530(3)
C42_4 C 0.7682(2) 0.3680(4) 0.9139(3)
H25_5 H 0.918(2) 0.463(3) 1.000(2)
H26_4 H 0.734(2) 0.332(4) 0.866(3)
H27_4 H 0.718(2) 0.380(4) 0.974(3)
C2_4 C 0.63463(18) 0.0230(3) 0.9415(2)
C3_4 C 0.6985(2) 0.0496(4) 0.9500(3)
C7_4 C 0.6112(3) 0.7222(4) 0.9905(3)
C8_4 C 0.6593(2) 0.7127(4) 0.9652(3)
H1_6 H 0.582(2) 0.037(3) 1.000(2)
H8_4 H 0.711(2) 0.030(4) 0.906(3)
H10_4 H 0.566(3) 0.700(5) 0.958(3)
H11_4 H 0.645(2) 0.691(4) 0.918(3)
N2_4 N 0.87377(18) 0.7319(3) 0.9345(3)
C22_4 C 0.9333(2) 0.9087(4) 0.8522(3)
C26_4 C 0.7755(2) 0.7500(3) 0.9852(3)
C27_4 C 0.92902(19) 0.9821(4) 0.7888(3)
C28_4 C 0.9236(2) 0.7856(4) 0.8414(3)
C29_4 C 0.9157(2) 0.9312(4) 0.7129(3)
C30_4 C 0.9073(2) 0.8082(4) 0.7011(4)
C31_4 C 0.8097(3) 0.7028(6) 0.8826(4)
C32_4 C 0.9105(2) 0.7368(4) 0.7646(3)
C33_4 C 0.9284(3) 0.7070(5) 0.9109(4)
C34_4 C 0.7607(3) 0.7109(5) 0.9053(3)
H15_4 H 0.927(3) 0.619(6) 0.901(4)
H16_4 H 0.914(2) 0.974(4) 0.670(3)
H17_4 H 0.943(2) 0.936(4) 0.900(3)
H18_4 H 0.972(2) 0.730(4) 0.965(3)
H19_4 H 0.902(3) 0.660(5) 0.751(3)
H22_4 H 0.902(2) 0.779(4) 0.652(3)
H23_4 H 0.719(3) 0.701(4) 0.872(3)
H24_4 H 0.806(3) 0.676(4) 0.843(3)
C36_4 C 0.36537(18) 0.9770(3) 0.0585(2)
C37_4 C 0.3015(2) 0.9504(4) 0.0500(3)
H25_6 H 0.418(2) 0.963(3) 0.000(2)
H28_4 H 0.289(2) 0.970(4) 0.094(3)
N1_4 N 0.12623(18) 0.2681(3) 0.0655(3)
C6_4 C 0.0667(2) 0.0913(4) 0.1478(3)
C10_4 C 0.2245(2) 0.2500(3) 0.0148(3)
C11_4 C 0.07098(19) 0.0179(4) 0.2112(3)
C12_4 C 0.0764(2) 0.2144(4) 0.1586(3)
C14_4 C 0.0843(2) 0.0688(4) 0.2871(3)
C16_4 C 0.0927(2) 0.1918(4) 0.2989(4)
C17_4 C 0.1903(3) 0.2972(6) 0.1174(4)
C19_4 C 0.0895(2) 0.2632(4) 0.2354(3)
C20_4 C 0.0716(3) 0.2930(5) 0.0891(4)
C21_4 C 0.2393(3) 0.2891(5) 0.0947(3)
H2_4 H 0.073(3) 0.381(6) 0.099(4)
H4_4 H 0.086(2) 0.026(4) 0.330(3)
H5_4 H 0.057(2) 0.064(4) 0.100(3)
H7_4 H 0.028(2) 0.270(4) 0.035(3)
H9_4 H 0.098(3) 0.340(5) 0.249(3)
H12_4 H 0.098(2) 0.221(4) 0.348(3)
H13_4 H 0.281(3) 0.299(4) 0.128(3)
H14_4 H 0.194(3) 0.324(4) 0.157(3)
C23_4 C 0.3888(3) 0.2778(4) 0.0095(3)
C24_4 C 0.3407(2) 0.2873(4) 0.0348(3)
H20_4 H 0.434(3) 0.300(5) 0.042(3)
H21_4 H 0.355(2) 0.309(4) 0.082(3)
loop_
_geom_bond_atom_site_label_1
_geom_bond_atom_site_label_2
_geom_bond_site_symmetry_1
_geom_bond_site_symmetry_2
O7 C25 1_555 1_555
O8 C25 1_555 1_555
Zn5 O7 1_555 1_555
O8 Zn5 1_555 1_555
O10 C35 1_555 1_555
O11 Zn5 1_555 1_555
C35 O9 1_555 1_555
O12 C41 1_555 1_555
C36 C35 1_555 1_555
C37 C36 1_555 1_555
C38 C36 1_555 1_555
C39 C38 1_555 1_555
C40 C37 1_555 1_555
C41 O11 1_555 1_555
C42 C39 1_555 1_555
H25 C38 1_555 1_555
H26 C42 1_555 1_555
H27 C40 1_555 1_555
H28 C37 1_555 1_555
Zn3 O10 1_555 1_555
O13 Zn5 1_555 1_555
C39 C41 1_555 1_555
C40 C42 1_555 1_555
Zn3 O3 1_555 1_555
O3 C15 1_555 1_555
O4 Zn3 1_555 1_555
O5 Zn3 1_555 1_555
O6 C15 1_555 1_555
C5 C4 1_555 1_555
C9 O4 1_555 1_555
C13 C18 1_555 1_555
C15 C5 1_555 1_555
C18 C5 1_555 1_555
H1 C4 1_555 1_555
H3 C18 1_555 1_555
H6 C13 1_555 1_555
O5 C9 1_555 1_555
O1 C1 1_555 1_555
O13 C1 1_555 1_555
C1 C2 1_555 1_555
C2 C3 1_555 1_555
H8 C3 1_555 1_555
Zn1 O3_2 1_555 1_555
O3_2 C15_2 1_555 1_555
O4_2 Zn1 1_555 1_555
O5_2 Zn1 1_555 1_555
N1 C7 1_555 1_555
O6_2 C15_2 1_555 1_555
C2_2 C3_2 1_555 1_555
C3_2 C13_2 1_555 1_555
C4_2 C2_2 1_555 1_555
C5_2 C4_2 1_555 1_555
C6 C11 1_555 1_555
C7 C8 1_555 1_555
C8 C10 1_555 1_555
C9_2 O4_2 1_555 1_555
C10 C21 1_555 1_555
C11 C9_2 1_555 1_555
C12 C6 1_555 1_555
C13_2 C18_2 1_555 1_555
C14 C11 1_555 1_555
C15_2 C5_2 1_555 1_555
C16 C14 1_555 1_555
C17 N1 1_555 1_555
C18_2 C5_2 1_555 1_555
C19 C12 1_555 1_555
C20 N1 1_555 1_555
C21 C17 1_555 1_555
H1_3 C4_2 1_555 1_555
H2 C20 1_555 1_555
H3_2 C18_2 1_555 1_555
H4 C14 1_555 1_555
H5 C6 1_555 1_555
H6_2 C13_2 1_555 1_555
H7 C20 1_555 1_555
H8_2 C3_2 1_555 1_555
H9 C19 1_555 1_555
H10 C7 1_555 1_555
H11 C8 1_555 1_555
H12 C16 1_555 1_555
H13 C21 1_555 1_555
H14 C17 1_555 1_555
N2 C23 1_555 1_555
C22 C27 1_555 1_555
C23 C24 1_555 1_555
C24 C26 1_555 1_555
C26 C10 1_555 1_555
C27 C29 1_555 1_555
C28 C22 1_555 1_555
C29 C30 1_555 1_555
C30 C32 1_555 1_555
C31 N2 1_555 1_555
C32 C28 1_555 1_555
C33 N2 1_555 1_555
C34 C26 1_555 1_555
H15 C33 1_555 1_555
H16 C29 1_555 1_555
H17 C22 1_555 1_555
H18 C33 1_555 1_555
H19 C32 1_555 1_555
H20 C23 1_555 1_555
H21 C24 1_555 1_555
H22 C30 1_555 1_555
H23 C34 1_555 1_555
H24 C31 1_555 1_555
O9_2 Zn1 1_555 1_555
O10_2 C35_2 1_555 1_555
C35_2 O9_2 1_555 1_555
Zn3_2 O10_2 1_555 1_555
O14 Zn1 1_555 1_555
O5_2 C9_2 1_555 1_555
C12 C20 1_555 1_555
C16 C19 1_555 1_555
C28 C33 1_555 1_555
C31 C34 1_555 1_555
Zn3_2 O3_3 1_555 1_555
O3_3 C15_3 1_555 1_555
O4_3 Zn3_2 1_555 1_555
O5_3 Zn3_2 1_555 1_555
O6_3 C15_3 1_555 1_555
C5_3 C4_3 1_555 1_555
C6_2 C11_2 1_555 1_555
C9_3 O4_3 1_555 1_555
C10_2 C21_2 1_555 1_555
C11_2 C9_3 1_555 1_555
C12_2 C6_2 1_555 1_555
C13_3 C18_3 1_555 1_555
C14_2 C11_2 1_555 1_555
C15_3 C5_3 1_555 1_555
C16_2 C14_2 1_555 1_555
C17_2 N1_2 1_555 1_555
C18_3 C5_3 1_555 1_555
C19_2 C12_2 1_555 1_555
C20_2 N1_2 1_555 1_555
C21_2 C17_2 1_555 1_555
H1_4 C4_3 1_555 1_555
H2_2 C20_2 1_555 1_555
H3_3 C18_3 1_555 1_555
H4_2 C14_2 1_555 1_555
H5_2 C6_2 1_555 1_555
H6_3 C13_3 1_555 1_555
H7_2 C20_2 1_555 1_555
H9_2 C19_2 1_555 1_555
H12_2 C16_2 1_555 1_555
H13_2 C21_2 1_555 1_555
H14_2 C17_2 1_555 1_555
C23_2 C24_2 1_555 1_555
H20_2 C23_2 1_555 1_555
H21_2 C24_2 1_555 1_555
O9_3 Zn3_2 1_555 1_555
O14 C35_3 1_555 1_555
C35_3 O9_3 1_555 1_555
O5_3 C9_3 1_555 1_555
C12_2 C20_2 1_555 1_555
C16_2 C19_2 1_555 1_555
O1_2 C1_2 1_555 1_555
O2 C1_2 1_555 1_555
Zn2 O1_2 1_555 1_555
O11_2 Zn2 1_555 1_555
O12_2 C41_2 1_555 1_555
C37_2 C36_2 1_555 1_555
C38_2 C36_2 1_555 1_555
C39_2 C38_2 1_555 1_555
C40_2 C37_2 1_555 1_555
C41_2 O11_2 1_555 1_555
C42_2 C39_2 1_555 1_555
H25_2 C38_2 1_555 1_555
H26_2 C42_2 1_555 1_555
H27_2 C40_2 1_555 1_555
H28_2 C37_2 1_555 1_555
Zn4 O2 1_555 1_555
O13_2 Zn2 1_555 1_555
O15 Zn2 1_555 1_555
O16 Zn2 1_555 1_555
C39_2 C41_2 1_555 1_555
C40_2 C42_2 1_555 1_555
O1_3 C1_3 1_555 1_555
O13_2 C1_3 1_555 1_555
Zn4 O1_3 1_555 1_555
O11_3 Zn4 1_555 1_555
O12_3 C41_3 1_555 1_555
C39_3 C38_3 1_555 1_555
C41_3 O11_3 1_555 1_555
C42_3 C39_3 1_555 1_555
H25_3 C38_3 1_555 1_555
H26_3 C42_3 1_555 1_555
H27_3 C40_3 1_555 1_555
O15_2 Zn4 1_555 1_555
O16_2 Zn4 1_555 1_555
C39_3 C41_3 1_555 1_555
C40_3 C42_3 1_555 1_555
N1_3 C7_2 1_555 1_555
C6_3 C11_3 1_555 1_555
C7_2 C8_2 1_555 1_555
C8_2 C10_3 1_555 1_555
C10_3 C21_3 1_555 1_555
C12_3 C6_3 1_555 1_555
C14_3 C11_3 1_555 1_555
C16_3 C14_3 1_555 1_555
C17_3 N1_3 1_555 1_555
C19_3 C12_3 1_555 1_555
C20_3 N1_3 1_555 1_555
C21_3 C17_3 1_555 1_555
H2_3 C20_3 1_555 1_555
H4_3 C14_3 1_555 1_555
H5_3 C6_3 1_555 1_555
H7_3 C20_3 1_555 1_555
H9_3 C19_3 1_555 1_555
H10_2 C7_2 1_555 1_555
H11_2 C8_2 1_555 1_555
H12_3 C16_3 1_555 1_555
H13_3 C21_3 1_555 1_555
H14_3 C17_3 1_555 1_555
O15 C25_2 1_555 1_555
O16 C25_2 1_555 1_555
N2_2 C23_3 1_555 1_555
C22_2 C27_2 1_555 1_555
C23_3 C24_3 1_555 1_555
C24_3 C26_2 1_555 1_555
C25_2 C27_2 1_555 1_555
C26_2 C10_3 1_555 1_555
C27_2 C29_2 1_555 1_555
C28_2 C22_2 1_555 1_555
C29_2 C30_2 1_555 1_555
C30_2 C32_2 1_555 1_555
C31_2 N2_2 1_555 1_555
C32_2 C28_2 1_555 1_555
C33_2 N2_2 1_555 1_555
C34_2 C26_2 1_555 1_555
H15_2 C33_2 1_555 1_555
H16_2 C29_2 1_555 1_555
H17_2 C22_2 1_555 1_555
H18_2 C33_2 1_555 1_555
H19_2 C32_2 1_555 1_555
H20_3 C23_3 1_555 1_555
H21_3 C24_3 1_555 1_555
H22_2 C30_2 1_555 1_555
H23_2 C34_2 1_555 1_555
H24_2 C31_2 1_555 1_555
C12_3 C20_3 1_555 1_555
C16_3 C19_3 1_555 1_555
C28_2 C33_2 1_555 1_555
C31_2 C34_2 1_555 1_555
C7_3 C8_3 1_555 1_555
H10_3 C7_3 1_555 1_555
H11_3 C8_3 1_555 1_555
O15_2 C25_3 1_555 1_555
O16_2 C25_3 1_555 1_555
C22_3 C27_3 1_555 1_555
C25_3 C27_3 1_555 1_555
C27_3 C29_3 1_555 1_555
C28_3 C22_3 1_555 1_555
C29_3 C30_3 1_555 1_555
C30_3 C32_3 1_555 1_555
C31_3 N2_3 1_555 1_555
C32_3 C28_3 1_555 1_555
C33_3 N2_3 1_555 1_555
C34_3 C26_3 1_555 1_555
H15_3 C33_3 1_555 1_555
H16_3 C29_3 1_555 1_555
H17_3 C22_3 1_555 1_555
H18_3 C33_3 1_555 1_555
H19_3 C32_3 1_555 1_555
H22_3 C30_3 1_555 1_555
H23_3 C34_3 1_555 1_555
H24_3 C31_3 1_555 1_555
C28_3 C33_3 1_555 1_555
C31_3 C34_3 1_555 1_555
O7_2 C25_4 1_555 1_555
O8_2 C25_4 1_555 1_555
Zn5_2 O7_2 1_555 1_555
O8_2 Zn5_2 1_555 1_555
Zn1_2 O3_4 1_555 1_555
O1_4 C1_4 1_555 1_555
O2_2 C1_4 1_555 1_555
O3_4 C15_4 1_555 1_555
O4_4 Zn1_2 1_555 1_555
O5_4 Zn1_2 1_555 1_555
C1_4 C2_3 1_555 1_555
O6_4 C15_4 1_555 1_555
C2_3 C3_3 1_555 1_555
C3_3 C13_4 1_555 1_555
C4_4 C2_3 1_555 1_555
C5_4 C4_4 1_555 1_555
C9_4 O4_4 1_555 1_555
C13_4 C18_4 1_555 1_555
C15_4 C5_4 1_555 1_555
C18_4 C5_4 1_555 1_555
H1_5 C4_4 1_555 1_555
H3_4 C18_4 1_555 1_555
H6_4 C13_4 1_555 1_555
H8_3 C3_3 1_555 1_555
Zn5_2 O2_2 1_555 1_555
O14_2 Zn1_2 1_555 1_555
O5_4 C9_4 1_555 1_555
O14_2 C35_4 1_555 1_555
C35_4 O9_4 1_555 1_555
C36_3 C35_4 1_555 1_555
C37_3 C36_3 1_555 1_555
H28_3 C37_3 1_555 1_555
O11_4 Zn5_2 1_555 1_555
O12_4 C41_4 1_555 1_555
C39_4 C38_4 1_555 1_555
C41_4 O11_4 1_555 1_555
C42_4 C39_4 1_555 1_555
H25_5 C38_4 1_555 1_555
H26_4 C42_4 1_555 1_555
H27_4 C40_4 1_555 1_555
C39_4 C41_4 1_555 1_555
C40_4 C42_4 1_555 1_555
C2_4 C3_4 1_555 1_555
C7_4 C8_4 1_555 1_555
H8_4 C3_4 1_555 1_555
H10_4 C7_4 1_555 1_555
H11_4 C8_4 1_555 1_555
C22_4 C27_4 1_555 1_555
C27_4 C29_4 1_555 1_555
C28_4 C22_4 1_555 1_555
C29_4 C30_4 1_555 1_555
C30_4 C32_4 1_555 1_555
C31_4 N2_4 1_555 1_555
C32_4 C28_4 1_555 1_555
C33_4 N2_4 1_555 1_555
C34_4 C26_4 1_555 1_555
H15_4 C33_4 1_555 1_555
H16_4 C29_4 1_555 1_555
H17_4 C22_4 1_555 1_555
H18_4 C33_4 1_555 1_555
H19_4 C32_4 1_555 1_555
H22_4 C30_4 1_555 1_555
H23_4 C34_4 1_555 1_555
H24_4 C31_4 1_555 1_555
C28_4 C33_4 1_555 1_555
C31_4 C34_4 1_555 1_555
C37_4 C36_4 1_555 1_555
H28_4 C37_4 1_555 1_555
C6_4 C11_4 1_555 1_555
C10_4 C21_4 1_555 1_555
C12_4 C6_4 1_555 1_555
C14_4 C11_4 1_555 1_555
C16_4 C14_4 1_555 1_555
C17_4 N1_4 1_555 1_555
C19_4 C12_4 1_555 1_555
C20_4 N1_4 1_555 1_555
C21_4 C17_4 1_555 1_555
H2_4 C20_4 1_555 1_555
H4_4 C14_4 1_555 1_555
H5_4 C6_4 1_555 1_555
H7_4 C20_4 1_555 1_555
H9_4 C19_4 1_555 1_555
H12_4 C16_4 1_555 1_555
H13_4 C21_4 1_555 1_555
H14_4 C17_4 1_555 1_555
C23_4 C24_4 1_555 1_555
H20_4 C23_4 1_555 1_555
H21_4 C24_4 1_555 1_555
C12_4 C20_4 1_555 1_555
C16_4 C19_4 1_555 1_555

#END
