
###############################################################################
#
# This file contains modified crystal structure data generated from the
# MOF subset of the Cambridge Structural Database (CSD) v543 
# hosted by the Cambridge Crystallographic Data Centre (CCDC).
#
# This work is licensed under the Creative Commons
# Attribution-NonCommercial-ShareAlike 4.0 International License.
# To view a copy of this license, visit
# http://creativecommons.org/licenses/by-nc-sa/4.0/
# or send a letter to
# Creative Commons, PO Box 1866, Mountain View, CA 94042, USA.
#
# CIF created using the CSD Python API on 29 September 2022
# The structure has been converted into the P1 space group
# The structure has a 3D framework
# The original CSD entry HURKEN is in the monoclinic crystal system
# The framework has been calculated to contain at least 10.0% void space
# The void calculation uses a probe of radius 1.32A, grid spacing 0.4
# H atom positions have been added when not included in the experimental data
#
###############################################################################

data_HURKEN
_chemical_formula_moiety         '(C108 H136 Ni8 O76 P16)n'
_symmetry_cell_setting           triclinic
_symmetry_space_group_name_H-M   'P 1'
_symmetry_Int_Tables_number      1
_space_group_name_Hall           'P 1'
loop_
_symmetry_equiv_pos_site_id
_symmetry_equiv_pos_as_xyz
1 x,y,z
_cell_length_a                   29.2490(10)
_cell_length_b                   12.1715(3)
_cell_length_c                   9.9211(2)
_cell_angle_alpha                90
_cell_angle_beta                 96.797(2)
_cell_angle_gamma                90
_cell_volume                     3507.13
loop_
_atom_site_label
_atom_site_type_symbol
_atom_site_fract_x
_atom_site_fract_y
_atom_site_fract_z
_atom_site_U_iso_or_equiv
_atom_site_thermal_displace_type
O7 O 0.6689(7) 0.8001(14) 0.0000(14) 0.0038 Uiso
O13 O 0.6662(8) 0.0746(13) 0.1494(16) 0.0038 Uiso
Ni3 Ni 0.7385(3) 0.3009(4) 0.1373(5) 0.0113 Uiso
O19 O 0.2851(8) 0.8226(14) 0.0043(14) 0.0038 Uiso
H17 H 0.638726 0.0268573 0.150689 . .
H21 H 0.614083 0.271475 0.0982018 . .
H25 H 0.335535 0.634746 0.0172579 . .
H26 H 0.292813 0.559293 0.0523865 . .
Ni1 Ni 0.7385(3) 0.6991(4) 0.6373(5) 0.0113 Uiso
O1 O 0.6952(8) 0.7482(10) 0.7740(16) 0.0038 Uiso
O2 O 0.6919(7) 0.5925(14) 0.5220(14) 0.0038 Uiso
O3 O 0.7618(8) 0.5660(14) 0.7668(16) 0.0038 Uiso
O4 O 0.7886(7) 0.8066(13) 0.7502(14) 0.0038 Uiso
O5 O 0.2851(8) 0.1774(14) 0.5043(14) 0.0038 Uiso
P1 P 0.6792(4) 0.7020(8) 0.9064(9) 0.0076 Uiso
O6 O 0.7130(8) 0.6187(14) 0.9745(16) 0.0038 Uiso
O7_2 O 0.6689(7) 0.8001(14) 1.0000(14) 0.0038 Uiso
C1 C 0.62511 0.6309 0.86138 0.0038 Uiso
C2 C 0.58399 0.66441 0.90815 0.0038 Uiso
C3 C 0.6246 0.54284 0.77109 0.0038 Uiso
C4 C 0.54303 0.60781 0.86918 0.0038 Uiso
C5 C 0.58333 0.48863 0.7284 0.0038 Uiso
C6 C 0.54226 0.51738 0.78122 0.0038 Uiso
C7 C 0.500 0.453(2) 0.750 0.0038 Uiso
C8 C 0.500 0.338(2) 0.750 0.0038 Uiso
C9 C 0.45969 0.26783 0.69538 0.0038 Uiso
C10 C 0.4397 0.29983 0.56561 0.0038 Uiso
C11 C 0.43974 0.18086 0.76094 0.0038 Uiso
C12 C 0.40025 0.24774 0.50396 0.0038 Uiso
C13 C 0.39933 0.13066 0.69985 0.0038 Uiso
C14 C 0.37896 0.16552 0.57186 0.0038 Uiso
P2 P 0.3254(4) 0.0976(7) 0.5025(8) 0.0076 Uiso
O8 O 0.3338(8) 0.0746(13) 0.3506(16) 0.0038 Uiso
O10 O 0.3048(8) 0.7482(10) 0.7260(16) 0.0038 Uiso
P3 P 0.3208(4) 0.7020(8) 0.5936(9) 0.0076 Uiso
O11 O 0.2870(8) 0.6187(14) 0.5255(16) 0.0038 Uiso
O12 O 0.3311(7) 0.8001(14) 0.5000(14) 0.0038 Uiso
C15 C 0.37489 0.6309 0.63862 0.0038 Uiso
C16 C 0.41601 0.66441 0.59185 0.0038 Uiso
C17 C 0.3754 0.54284 0.72891 0.0038 Uiso
C18 C 0.45697 0.60781 0.63082 0.0038 Uiso
C19 C 0.41667 0.48863 0.7716 0.0038 Uiso
C20 C 0.45774 0.51738 0.71878 0.0038 Uiso
C21 C 0.54031 0.26783 0.80462 0.0038 Uiso
C22 C 0.5603 0.29983 0.93439 0.0038 Uiso
C23 C 0.56026 0.18086 0.73906 0.0038 Uiso
C24 C 0.59975 0.24774 0.99604 0.0038 Uiso
C25 C 0.60067 0.13066 0.80015 0.0038 Uiso
C26 C 0.62104 0.16552 0.92814 0.0038 Uiso
P4 P 0.6746(4) 0.0976(7) 0.9975(8) 0.0076 Uiso
O15 O 0.7149(8) 0.1774(14) 0.9957(14) 0.0038 Uiso
Ni2 Ni 0.2615(3) 0.6991(4) 0.8627(5) 0.0113 Uiso
O16 O 0.3081(7) 0.5925(14) 0.9780(14) 0.0038 Uiso
O17 O 0.2382(8) 0.5660(14) 0.7332(16) 0.0038 Uiso
O18 O 0.2114(7) 0.8066(13) 0.7498(14) 0.0038 Uiso
Ni4 Ni 0.2615(3) 0.3009(4) 0.3627(5) 0.0113 Uiso
Ni5 Ni 0.2385(3) 0.1991(4) 0.6373(5) 0.0113 Uiso
Ni6 Ni 0.7615(3) 0.1991(4) 0.8627(5) 0.0113 Uiso
O20 O 0.7149(8) 0.8226(14) 0.4957(14) 0.0038 Uiso
O21 O 0.7851(8) 0.6774(14) 0.5043(14) 0.0038 Uiso
O22 O 0.2149(8) 0.6774(14) 0.9957(14) 0.0038 Uiso
H1 H 0.656398 0.516388 0.73391 . .
H2 H 0.455693 0.152331 0.859472 . .
H3 H 0.582858 0.423264 0.653297 . .
H4 H 0.664465 0.634746 0.482742 . .
H5 H 0.707187 0.559293 0.447613 . .
H6 H 0.644277 0.84681 0.952189 . .
H7 H 0.583951 0.735117 0.975396 . .
H8 H 0.455191 0.365998 0.512686 . .
H9 H 0.511387 0.634096 0.907411 . .
H10 H 0.383693 0.0642925 0.752044 . .
H11 H 0.794221 0.781536 0.845979 . .
H12 H 0.817899 0.804414 0.708905 . .
H13 H 0.385917 0.271475 0.401798 . .
H14 H 0.735348 0.517826 0.780561 . .
H15 H 0.785173 0.52297 0.724465 . .
H16 H 0.616307 0.0642925 0.747956 . .
H18 H 0.205779 0.781536 0.654021 . .
H19 H 0.182101 0.804414 0.791095 . .
H20 H 0.544809 0.365998 0.987314 . .
H22 H 0.264652 0.517826 0.719439 . .
H23 H 0.214827 0.52297 0.775535 . .
H24 H 0.416049 0.735117 0.524604 . .
H27 H 0.341083 0.144677 0.306535 . .
H28 H 0.488613 0.634096 0.592589 . .
H29 H 0.343602 0.516388 0.76609 . .
H30 H 0.355723 0.84681 0.547811 . .
H31 H 0.417142 0.423264 0.846703 . .
H32 H 0.544307 0.152331 0.640528 . .
H27_2 H 0.658917 0.144677 0.193465 . .
H17_2 H 0.361274 0.0268573 0.349311 . .
O1_2 O 0.1952(8) 0.2482(10) 0.7740(16) 0.0038 Uiso
O2_2 O 0.1919(7) 0.0925(14) 0.5220(14) 0.0038 Uiso
O3_2 O 0.2618(8) 0.0660(14) 0.7668(16) 0.0038 Uiso
O4_2 O 0.2886(7) 0.3066(13) 0.7502(14) 0.0038 Uiso
P1_2 P 0.1792(4) 0.2020(8) 0.9064(9) 0.0076 Uiso
O6_2 O 0.2130(8) 0.1187(14) 0.9745(16) 0.0038 Uiso
O7_3 O 0.1689(7) 0.3001(14) 1.0000(14) 0.0038 Uiso
C1_2 C 0.12511 0.1309 0.86138 0.0038 Uiso
C2_2 C 0.08399 0.16441 0.90815 0.0038 Uiso
C3_2 C 0.1246 0.04284 0.77109 0.0038 Uiso
C4_2 C 0.04303 0.10781 0.86918 0.0038 Uiso
C6_2 C 0.04226 0.01738 0.78122 0.0038 Uiso
O20_2 O 0.2149(8) 0.3226(14) 0.4957(14) 0.0038 Uiso
H1_2 H 0.156398 0.0163878 0.73391 . .
H4_2 H 0.164465 0.134746 0.482742 . .
H5_2 H 0.207187 0.0592925 0.447613 . .
H6_2 H 0.144277 0.34681 0.952189 . .
H7_2 H 0.0839515 0.235117 0.975396 . .
H9_2 H 0.0113869 0.134096 0.907411 . .
H11_2 H 0.294221 0.281536 0.845979 . .
H12_2 H 0.317899 0.304414 0.708905 . .
H14_2 H 0.235348 0.0178256 0.780561 . .
H15_2 H 0.285173 0.0229703 0.724465 . .
O13_2 O 0.1662(8) 0.5746(13) 0.1494(16) 0.0038 Uiso
Ni3_2 Ni 0.2385(3) 0.8009(4) 0.1373(5) 0.0113 Uiso
H17_3 H 0.138726 0.526857 0.150689 . .
H21_2 H 0.114083 0.771475 0.0982018 . .
C5_2 C 0.08333 0.98863 0.7284 0.0038 Uiso
C7_2 C 0.000 0.953(2) 0.750 0.0038 Uiso
C8_2 C 0.000 0.838(2) 0.750 0.0038 Uiso
C21_2 C 0.04031 0.76783 0.80462 0.0038 Uiso
C22_2 C 0.0603 0.79983 0.93439 0.0038 Uiso
C23_2 C 0.06026 0.68086 0.73906 0.0038 Uiso
C24_2 C 0.09975 0.74774 0.99604 0.0038 Uiso
C25_2 C 0.10067 0.63066 0.80015 0.0038 Uiso
C26_2 C 0.12104 0.66552 0.92814 0.0038 Uiso
P4_2 P 0.1746(4) 0.5976(7) 0.9975(8) 0.0076 Uiso
O14 O 0.1835(7) 0.4900(12) 0.9298(16) 0.0038 Uiso
H3_2 H 0.0828582 0.923264 0.653297 . .
H16_2 H 0.116307 0.564292 0.747956 . .
H20_2 H 0.0448087 0.865998 0.987314 . .
H32_2 H 0.0443073 0.652331 0.640528 . .
O19_2 O 0.7851(8) 0.3226(14) 0.0043(14) 0.0038 Uiso
H25_2 H 0.835535 0.134746 0.0172579 . .
H26_2 H 0.792813 0.0592925 0.0523865 . .
O10_2 O 0.8048(8) 0.2482(10) 0.7260(16) 0.0038 Uiso
P3_2 P 0.8208(4) 0.2020(8) 0.5936(9) 0.0076 Uiso
O11_2 O 0.7870(8) 0.1187(14) 0.5255(16) 0.0038 Uiso
O12_2 O 0.8311(7) 0.3001(14) 0.5000(14) 0.0038 Uiso
C15_2 C 0.87489 0.1309 0.63862 0.0038 Uiso
C16_2 C 0.91601 0.16441 0.59185 0.0038 Uiso
C17_2 C 0.8754 0.04284 0.72891 0.0038 Uiso
C18_2 C 0.95697 0.10781 0.63082 0.0038 Uiso
C20_2 C 0.95774 0.01738 0.71878 0.0038 Uiso
O16_2 O 0.8081(7) 0.0925(14) 0.9780(14) 0.0038 Uiso
O17_2 O 0.7382(8) 0.0660(14) 0.7332(16) 0.0038 Uiso
O18_2 O 0.7114(7) 0.3066(13) 0.7498(14) 0.0038 Uiso
H18_2 H 0.705779 0.281536 0.654021 . .
H19_2 H 0.682101 0.304414 0.791095 . .
H22_2 H 0.764652 0.0178256 0.719439 . .
H23_2 H 0.714827 0.0229703 0.775535 . .
H24_2 H 0.916049 0.235117 0.524604 . .
H28_2 H 0.988613 0.134096 0.592589 . .
H29_2 H 0.843602 0.0163878 0.76609 . .
H30_2 H 0.855723 0.34681 0.547811 . .
C7_3 C 1.000 0.953(2) 0.750 0.0038 Uiso
C8_3 C 1.000 0.838(2) 0.750 0.0038 Uiso
C9_2 C 0.95969 0.76783 0.69538 0.0038 Uiso
C10_2 C 0.9397 0.79983 0.56561 0.0038 Uiso
C11_2 C 0.93974 0.68086 0.76094 0.0038 Uiso
C12_2 C 0.90025 0.74774 0.50396 0.0038 Uiso
C13_2 C 0.89933 0.63066 0.69985 0.0038 Uiso
C14_2 C 0.87896 0.66552 0.57186 0.0038 Uiso
P2_2 P 0.8254(4) 0.5976(7) 0.5025(8) 0.0076 Uiso
O8_2 O 0.8338(8) 0.5746(13) 0.3506(16) 0.0038 Uiso
O9 O 0.8165(7) 0.4900(12) 0.5702(16) 0.0038 Uiso
C19_2 C 0.91667 0.98863 0.7716 0.0038 Uiso
Ni4_2 Ni 0.7615(3) 0.8009(4) 0.3627(5) 0.0113 Uiso
H2_2 H 0.955693 0.652331 0.859472 . .
H8_2 H 0.955191 0.865998 0.512686 . .
H10_2 H 0.883693 0.564292 0.752044 . .
H13_2 H 0.885917 0.771475 0.401798 . .
H27_3 H 0.841083 0.644677 0.306535 . .
H31_2 H 0.917142 0.923264 0.846703 . .
H27_4 H 0.158917 0.644677 0.193465 . .
H17_4 H 0.861274 0.526857 0.349311 . .
O1_3 O 0.3048(8) 0.2518(10) 0.2260(16) 0.0038 Uiso
O2_3 O 0.3081(7) 0.4075(14) 0.4780(14) 0.0038 Uiso
O3_3 O 0.2382(8) 0.4340(14) 0.2332(16) 0.0038 Uiso
O4_3 O 0.2114(7) 0.1934(13) 0.2498(14) 0.0038 Uiso
P1_3 P 0.3208(4) 0.2980(8) 0.0936(9) 0.0076 Uiso
O6_3 O 0.2870(8) 0.3813(14) 0.0255(16) 0.0038 Uiso
O7_4 O 0.3311(7) 0.1999(14) 0.0000(14) 0.0038 Uiso
C1_3 C 0.37489 0.3691 0.13862 0.0038 Uiso
C2_3 C 0.41601 0.33559 0.09185 0.0038 Uiso
C3_3 C 0.3754 0.45716 0.22891 0.0038 Uiso
C4_3 C 0.45697 0.39219 0.13082 0.0038 Uiso
C5_3 C 0.41667 0.51137 0.2716 0.0038 Uiso
C6_3 C 0.45774 0.48262 0.21878 0.0038 Uiso
C7_4 C 0.500 0.547(2) 0.250 0.0038 Uiso
C8_4 C 0.500 0.662(2) 0.250 0.0038 Uiso
C9_3 C 0.54031 0.73217 0.30462 0.0038 Uiso
C10_3 C 0.5603 0.70017 0.43439 0.0038 Uiso
C11_3 C 0.56026 0.81914 0.23906 0.0038 Uiso
C12_3 C 0.59975 0.75226 0.49604 0.0038 Uiso
C13_3 C 0.60067 0.86934 0.30015 0.0038 Uiso
C14_3 C 0.62104 0.83448 0.42814 0.0038 Uiso
P2_3 P 0.6746(4) 0.9024(7) 0.4975(8) 0.0076 Uiso
O8_3 O 0.6662(8) 0.9254(13) 0.6494(16) 0.0038 Uiso
O10_3 O 0.6952(8) 0.2518(10) 0.2740(16) 0.0038 Uiso
P3_3 P 0.6792(4) 0.2980(8) 0.4064(9) 0.0076 Uiso
O11_3 O 0.7130(8) 0.3813(14) 0.4745(16) 0.0038 Uiso
O12_3 O 0.6689(7) 0.1999(14) 0.5000(14) 0.0038 Uiso
C15_3 C 0.62511 0.3691 0.36138 0.0038 Uiso
C16_3 C 0.58399 0.33559 0.40815 0.0038 Uiso
C17_3 C 0.6246 0.45716 0.27109 0.0038 Uiso
C18_3 C 0.54303 0.39219 0.36918 0.0038 Uiso
C19_3 C 0.58333 0.51137 0.2284 0.0038 Uiso
C20_3 C 0.54226 0.48262 0.28122 0.0038 Uiso
C21_3 C 0.45969 0.73217 0.19538 0.0038 Uiso
C22_3 C 0.4397 0.70017 0.06561 0.0038 Uiso
C23_3 C 0.43974 0.81914 0.26094 0.0038 Uiso
C24_3 C 0.40025 0.75226 0.00396 0.0038 Uiso
C25_3 C 0.39933 0.86934 0.19985 0.0038 Uiso
C26_3 C 0.37896 0.83448 0.07186 0.0038 Uiso
P4_3 P 0.3254(4) 0.9024(7) 0.0025(8) 0.0076 Uiso
O16_3 O 0.6919(7) 0.4075(14) 0.0220(14) 0.0038 Uiso
O17_3 O 0.7618(8) 0.4340(14) 0.2668(16) 0.0038 Uiso
O18_3 O 0.7886(7) 0.1934(13) 0.2502(14) 0.0038 Uiso
H1_3 H 0.343602 0.483612 0.26609 . .
H2_3 H 0.544307 0.847669 0.140528 . .
H3_3 H 0.417142 0.576736 0.346703 . .
H4_3 H 0.335535 0.365254 0.517258 . .
H5_3 H 0.292813 0.440707 0.552387 . .
H6_3 H 0.355723 0.15319 0.0478114 . .
H7_3 H 0.416049 0.264883 0.0246038 . .
H8_3 H 0.544809 0.634002 0.487314 . .
H9_3 H 0.488613 0.365904 0.0925893 . .
H10_3 H 0.616307 0.935708 0.247956 . .
H11_3 H 0.205779 0.218464 0.154021 . .
H12_3 H 0.182101 0.195586 0.291095 . .
H13_3 H 0.614083 0.728525 0.598202 . .
H14_3 H 0.264652 0.482174 0.219439 . .
H15_3 H 0.214827 0.47703 0.275535 . .
H16_3 H 0.383693 0.935708 0.252044 . .
H18_3 H 0.794221 0.218464 0.345979 . .
H19_3 H 0.817899 0.195586 0.208905 . .
H20_3 H 0.455191 0.634002 0.0126862 . .
H22_3 H 0.735348 0.482174 0.280561 . .
H23_3 H 0.785173 0.47703 0.224465 . .
H24_3 H 0.583951 0.264883 0.475396 . .
H27_5 H 0.658917 0.855323 0.693465 . .
H28_3 H 0.511387 0.365904 0.407411 . .
H29_3 H 0.656398 0.483612 0.23391 . .
H30_3 H 0.644277 0.15319 0.452189 . .
H31_3 H 0.582858 0.576736 0.153297 . .
H32_3 H 0.455693 0.847669 0.359472 . .
O7_5 O 0.3311(7) 0.1999(14) 1.0000(14) 0.0038 Uiso
O13_3 O 0.3338(8) 0.9254(13) 0.8506(16) 0.0038 Uiso
H17_5 H 0.361274 0.973143 0.849311 . .
H21_3 H 0.385917 0.728525 0.901798 . .
H25_3 H 0.664465 0.365254 0.982742 . .
H26_3 H 0.707187 0.440707 0.947613 . .
H17_6 H 0.638726 0.973143 0.650689 . .
H27_6 H 0.341083 0.855323 0.806535 . .
C7_5 C 0.000 0.047(2) 0.250 0.0038 Uiso
C8_5 C 0.000 0.162(2) 0.250 0.0038 Uiso
C9_4 C 0.04031 0.23217 0.30462 0.0038 Uiso
C10_4 C 0.0603 0.20017 0.43439 0.0038 Uiso
C11_4 C 0.06026 0.31914 0.23906 0.0038 Uiso
C12_4 C 0.09975 0.25226 0.49604 0.0038 Uiso
C13_4 C 0.10067 0.36934 0.30015 0.0038 Uiso
C14_4 C 0.12104 0.33448 0.42814 0.0038 Uiso
P2_4 P 0.1746(4) 0.4024(7) 0.4975(8) 0.0076 Uiso
O8_4 O 0.1662(8) 0.4254(13) 0.6494(16) 0.0038 Uiso
O9_2 O 0.1835(7) 0.5100(12) 0.4298(16) 0.0038 Uiso
C19_4 C 0.08333 0.01137 0.2284 0.0038 Uiso
H2_4 H 0.0443073 0.347669 0.140528 . .
H8_4 H 0.0448087 0.134002 0.487314 . .
H10_4 H 0.116307 0.435708 0.247956 . .
H13_4 H 0.114083 0.228525 0.598202 . .
H27_7 H 0.158917 0.355323 0.693465 . .
H31_4 H 0.0828582 0.0767357 0.153297 . .
O10_4 O 0.1952(8) 0.7518(10) 0.2740(16) 0.0038 Uiso
P3_4 P 0.1792(4) 0.7980(8) 0.4064(9) 0.0076 Uiso
O11_4 O 0.2130(8) 0.8813(14) 0.4745(16) 0.0038 Uiso
O12_4 O 0.1689(7) 0.6999(14) 0.5000(14) 0.0038 Uiso
C15_4 C 0.12511 0.8691 0.36138 0.0038 Uiso
C16_4 C 0.08399 0.83559 0.40815 0.0038 Uiso
C17_4 C 0.1246 0.95716 0.27109 0.0038 Uiso
C18_4 C 0.04303 0.89219 0.36918 0.0038 Uiso
C20_4 C 0.04226 0.98262 0.28122 0.0038 Uiso
O16_4 O 0.1919(7) 0.9075(14) 0.0220(14) 0.0038 Uiso
O17_4 O 0.2618(8) 0.9340(14) 0.2668(16) 0.0038 Uiso
O18_4 O 0.2886(7) 0.6934(13) 0.2502(14) 0.0038 Uiso
H18_4 H 0.294221 0.718464 0.345979 . .
H19_4 H 0.317899 0.695586 0.208905 . .
H22_4 H 0.235348 0.982174 0.280561 . .
H23_4 H 0.285173 0.97703 0.224465 . .
H24_4 H 0.0839515 0.764883 0.475396 . .
H28_4 H 0.0113869 0.865904 0.407411 . .
H29_4 H 0.156398 0.983612 0.23391 . .
H30_4 H 0.144277 0.65319 0.452189 . .
H25_4 H 0.164465 0.865254 0.982742 . .
H26_4 H 0.207187 0.940707 0.947613 . .
C5_4 C 0.91667 0.01137 0.2716 0.0038 Uiso
C7_6 C 1.000 0.047(2) 0.250 0.0038 Uiso
C8_6 C 1.000 0.162(2) 0.250 0.0038 Uiso
C21_4 C 0.95969 0.23217 0.19538 0.0038 Uiso
C22_4 C 0.9397 0.20017 0.06561 0.0038 Uiso
C23_4 C 0.93974 0.31914 0.26094 0.0038 Uiso
C24_4 C 0.90025 0.25226 0.00396 0.0038 Uiso
C25_4 C 0.89933 0.36934 0.19985 0.0038 Uiso
C26_4 C 0.87896 0.33448 0.07186 0.0038 Uiso
P4_4 P 0.8254(4) 0.4024(7) 0.0025(8) 0.0076 Uiso
O14_2 O 0.8165(7) 0.5100(12) 0.0702(16) 0.0038 Uiso
H3_4 H 0.917142 0.0767357 0.346703 . .
H16_4 H 0.883693 0.435708 0.252044 . .
H20_4 H 0.955191 0.134002 0.0126862 . .
H32_4 H 0.955693 0.347669 0.359472 . .
O13_4 O 0.8338(8) 0.4254(13) 0.8506(16) 0.0038 Uiso
H17_7 H 0.861274 0.473143 0.849311 . .
H21_4 H 0.885917 0.228525 0.901798 . .
O1_4 O 0.8048(8) 0.7518(10) 0.2260(16) 0.0038 Uiso
O2_4 O 0.8081(7) 0.9075(14) 0.4780(14) 0.0038 Uiso
O3_4 O 0.7382(8) 0.9340(14) 0.2332(16) 0.0038 Uiso
O4_4 O 0.7114(7) 0.6934(13) 0.2498(14) 0.0038 Uiso
P1_4 P 0.8208(4) 0.7980(8) 0.0936(9) 0.0076 Uiso
O6_4 O 0.7870(8) 0.8813(14) 0.0255(16) 0.0038 Uiso
O7_6 O 0.8311(7) 0.6999(14) 0.0000(14) 0.0038 Uiso
C1_4 C 0.87489 0.8691 0.13862 0.0038 Uiso
C2_4 C 0.91601 0.83559 0.09185 0.0038 Uiso
C3_4 C 0.8754 0.95716 0.22891 0.0038 Uiso
C4_4 C 0.95697 0.89219 0.13082 0.0038 Uiso
C6_4 C 0.95774 0.98262 0.21878 0.0038 Uiso
H1_4 H 0.843602 0.983612 0.26609 . .
H4_4 H 0.835535 0.865254 0.517258 . .
H5_4 H 0.792813 0.940707 0.552387 . .
H6_4 H 0.855723 0.65319 0.0478114 . .
H7_4 H 0.916049 0.764883 0.0246038 . .
H9_4 H 0.988613 0.865904 0.0925893 . .
H11_4 H 0.705779 0.718464 0.154021 . .
H12_4 H 0.682101 0.695586 0.291095 . .
H14_4 H 0.764652 0.982174 0.219439 . .
H15_4 H 0.714827 0.97703 0.275535 . .
H17_8 H 0.138726 0.473143 0.650689 . .
H27_8 H 0.841083 0.355323 0.806535 . .
O9_3 O 0.3165(7) 0.9900(12) 0.5702(16) 0.0038 Uiso
O14_3 O 0.6835(7) 0.9900(12) 0.9298(16) 0.0038 Uiso
O7_7 O 0.1689(7) 0.3001(14) 0.0000(14) 0.0038 Uiso
O9_4 O 0.6835(7) 0.0100(12) 0.4298(16) 0.0038 Uiso
O14_4 O 0.3165(7) 0.0100(12) 0.0702(16) 0.0038 Uiso
O7_8 O 0.8311(7) 0.6999(14) 1.0000(14) 0.0038 Uiso
loop_
_geom_bond_atom_site_label_1
_geom_bond_atom_site_label_2
_geom_bond_site_symmetry_1
_geom_bond_site_symmetry_2
O13 H17 1_555 1_555
Ni1 O1 1_555 1_555
O1 P1 1_555 1_555
O2 Ni1 1_555 1_555
O3 Ni1 1_555 1_555
O4 Ni1 1_555 1_555
O5 P2 1_555 1_555
P1 O6 1_555 1_555
O7_2 P1 1_555 1_555
C1 P1 1_555 1_555
C2 C1 1_555 1_555
C3 C1 1_555 1_555
C4 C2 1_555 1_555
C5 C3 1_555 1_555
C6 C4 1_555 1_555
C7 C6 1_555 1_555
C8 C7 1_555 1_555
C9 C8 1_555 1_555
C10 C9 1_555 1_555
C11 C9 1_555 1_555
C12 C10 1_555 1_555
C13 C11 1_555 1_555
C14 C12 1_555 1_555
P2 C14 1_555 1_555
O8 P2 1_555 1_555
O10 P3 1_555 1_555
P3 O11 1_555 1_555
O12 P3 1_555 1_555
C15 P3 1_555 1_555
C16 C15 1_555 1_555
C17 C15 1_555 1_555
C18 C16 1_555 1_555
C19 C17 1_555 1_555
C20 C7 1_555 1_555
C21 C8 1_555 1_555
C22 C21 1_555 1_555
C23 C21 1_555 1_555
C24 C22 1_555 1_555
C25 C23 1_555 1_555
C26 C24 1_555 1_555
P4 C26 1_555 1_555
O15 P4 1_555 1_555
Ni2 O10 1_555 1_555
O16 Ni2 1_555 1_555
O17 Ni2 1_555 1_555
O18 Ni2 1_555 1_555
Ni4 O5 1_555 1_555
Ni5 O5 1_555 1_555
Ni6 O15 1_555 1_555
O20 Ni1 1_555 1_555
O21 Ni1 1_555 1_555
O22 Ni2 1_555 1_555
C5 C6 1_555 1_555
C13 C14 1_555 1_555
C18 C20 1_555 1_555
C19 C20 1_555 1_555
C25 C26 1_555 1_555
C3 H1 1_555 1_555
C11 H2 1_555 1_555
C5 H3 1_555 1_555
O2 H4 1_555 1_555
O2 H5 1_555 1_555
O7_2 H6 1_555 1_555
C2 H7 1_555 1_555
C10 H8 1_555 1_555
C4 H9 1_555 1_555
C13 H10 1_555 1_555
O4 H11 1_555 1_555
O4 H12 1_555 1_555
C12 H13 1_555 1_555
O3 H14 1_555 1_555
O3 H15 1_555 1_555
C25 H16 1_555 1_555
O18 H18 1_555 1_555
O18 H19 1_555 1_555
C22 H20 1_555 1_555
O17 H22 1_555 1_555
O17 H23 1_555 1_555
C16 H24 1_555 1_555
O8 H27 1_555 1_555
C18 H28 1_555 1_555
C17 H29 1_555 1_555
O12 H30 1_555 1_555
C19 H31 1_555 1_555
C23 H32 1_555 1_555
O13 H27_2 1_555 1_555
O8 H17_2 1_555 1_555
Ni5 O1_2 1_555 1_555
O1_2 P1_2 1_555 1_555
O2_2 Ni5 1_555 1_555
O3_2 Ni5 1_555 1_555
O4_2 Ni5 1_555 1_555
P1_2 O6_2 1_555 1_555
O7_3 P1_2 1_555 1_555
C1_2 P1_2 1_555 1_555
C2_2 C1_2 1_555 1_555
C3_2 C1_2 1_555 1_555
C4_2 C2_2 1_555 1_555
C6_2 C4_2 1_555 1_555
O20_2 Ni5 1_555 1_555
C3_2 H1_2 1_555 1_555
O2_2 H4_2 1_555 1_555
O2_2 H5_2 1_555 1_555
O7_3 H6_2 1_555 1_555
C2_2 H7_2 1_555 1_555
C4_2 H9_2 1_555 1_555
O4_2 H11_2 1_555 1_555
O4_2 H12_2 1_555 1_555
O3_2 H14_2 1_555 1_555
O3_2 H15_2 1_555 1_555
O13_2 H17_3 1_555 1_555
C8_2 C7_2 1_555 1_555
C21_2 C8_2 1_555 1_555
C22_2 C21_2 1_555 1_555
C23_2 C21_2 1_555 1_555
C24_2 C22_2 1_555 1_555
C25_2 C23_2 1_555 1_555
C26_2 C24_2 1_555 1_555
P4_2 C26_2 1_555 1_555
O14 P4_2 1_555 1_555
O22 P4_2 1_555 1_555
C25_2 C26_2 1_555 1_555
C5_2 H3_2 1_555 1_555
C25_2 H16_2 1_555 1_555
C22_2 H20_2 1_555 1_555
C23_2 H32_2 1_555 1_555
O10_2 P3_2 1_555 1_555
P3_2 O11_2 1_555 1_555
O12_2 P3_2 1_555 1_555
C15_2 P3_2 1_555 1_555
C16_2 C15_2 1_555 1_555
C17_2 C15_2 1_555 1_555
C18_2 C16_2 1_555 1_555
Ni6 O10_2 1_555 1_555
O16_2 Ni6 1_555 1_555
O17_2 Ni6 1_555 1_555
O18_2 Ni6 1_555 1_555
C18_2 C20_2 1_555 1_555
O18_2 H18_2 1_555 1_555
O18_2 H19_2 1_555 1_555
O17_2 H22_2 1_555 1_555
O17_2 H23_2 1_555 1_555
C16_2 H24_2 1_555 1_555
C18_2 H28_2 1_555 1_555
C17_2 H29_2 1_555 1_555
O12_2 H30_2 1_555 1_555
O21 P2_2 1_555 1_555
C8_3 C7_3 1_555 1_555
C9_2 C8_3 1_555 1_555
C10_2 C9_2 1_555 1_555
C11_2 C9_2 1_555 1_555
C12_2 C10_2 1_555 1_555
C13_2 C11_2 1_555 1_555
C14_2 C12_2 1_555 1_555
P2_2 C14_2 1_555 1_555
O8_2 P2_2 1_555 1_555
O9 P2_2 1_555 1_555
Ni4_2 O21 1_555 1_555
C13_2 C14_2 1_555 1_555
C11_2 H2_2 1_555 1_555
C10_2 H8_2 1_555 1_555
C13_2 H10_2 1_555 1_555
C12_2 H13_2 1_555 1_555
O8_2 H27_3 1_555 1_555
C19_2 H31_2 1_555 1_555
O13_2 H27_4 1_555 1_555
O8_2 H17_4 1_555 1_555
Ni4 O1_3 1_555 1_555
O1_3 P1_3 1_555 1_555
O2_3 Ni4 1_555 1_555
O3_3 Ni4 1_555 1_555
O4_3 Ni4 1_555 1_555
O20 P2_3 1_555 1_555
P1_3 O6_3 1_555 1_555
O7_4 P1_3 1_555 1_555
C1_3 P1_3 1_555 1_555
C2_3 C1_3 1_555 1_555
C3_3 C1_3 1_555 1_555
C4_3 C2_3 1_555 1_555
C5_3 C3_3 1_555 1_555
C6_3 C4_3 1_555 1_555
C7_4 C6_3 1_555 1_555
C8_4 C7_4 1_555 1_555
C9_3 C8_4 1_555 1_555
C10_3 C9_3 1_555 1_555
C11_3 C9_3 1_555 1_555
C12_3 C10_3 1_555 1_555
C13_3 C11_3 1_555 1_555
C14_3 C12_3 1_555 1_555
P2_3 C14_3 1_555 1_555
O8_3 P2_3 1_555 1_555
O10_3 P3_3 1_555 1_555
P3_3 O11_3 1_555 1_555
O12_3 P3_3 1_555 1_555
C15_3 P3_3 1_555 1_555
C16_3 C15_3 1_555 1_555
C17_3 C15_3 1_555 1_555
C18_3 C16_3 1_555 1_555
C19_3 C17_3 1_555 1_555
C20_3 C7_4 1_555 1_555
C21_3 C8_4 1_555 1_555
C22_3 C21_3 1_555 1_555
C23_3 C21_3 1_555 1_555
C24_3 C22_3 1_555 1_555
C25_3 C23_3 1_555 1_555
C26_3 C24_3 1_555 1_555
P4_3 C26_3 1_555 1_555
O19 P4_3 1_555 1_555
Ni3 O10_3 1_555 1_555
O16_3 Ni3 1_555 1_555
O17_3 Ni3 1_555 1_555
O18_3 Ni3 1_555 1_555
Ni4_2 O20 1_555 1_555
Ni3_2 O19 1_555 1_555
O20_2 Ni4 1_555 1_555
O19_2 Ni3 1_555 1_555
C5_3 C6_3 1_555 1_555
C13_3 C14_3 1_555 1_555
C18_3 C20_3 1_555 1_555
C19_3 C20_3 1_555 1_555
C25_3 C26_3 1_555 1_555
C3_3 H1_3 1_555 1_555
C11_3 H2_3 1_555 1_555
C5_3 H3_3 1_555 1_555
O2_3 H4_3 1_555 1_555
O2_3 H5_3 1_555 1_555
O7_4 H6_3 1_555 1_555
C2_3 H7_3 1_555 1_555
C10_3 H8_3 1_555 1_555
C4_3 H9_3 1_555 1_555
C13_3 H10_3 1_555 1_555
O4_3 H11_3 1_555 1_555
O4_3 H12_3 1_555 1_555
C12_3 H13_3 1_555 1_555
O3_3 H14_3 1_555 1_555
O3_3 H15_3 1_555 1_555
C25_3 H16_3 1_555 1_555
O18_3 H18_3 1_555 1_555
O18_3 H19_3 1_555 1_555
C22_3 H20_3 1_555 1_555
O17_3 H22_3 1_555 1_555
O17_3 H23_3 1_555 1_555
C16_3 H24_3 1_555 1_555
O8_3 H27_5 1_555 1_555
C18_3 H28_3 1_555 1_555
C17_3 H29_3 1_555 1_555
O12_3 H30_3 1_555 1_555
C19_3 H31_3 1_555 1_555
C23_3 H32_3 1_555 1_555
O13_3 H17_5 1_555 1_555
O8_3 H17_6 1_555 1_555
O13_3 H27_6 1_555 1_555
O20_2 P2_4 1_555 1_555
C8_5 C7_5 1_555 1_555
C9_4 C8_5 1_555 1_555
C10_4 C9_4 1_555 1_555
C11_4 C9_4 1_555 1_555
C12_4 C10_4 1_555 1_555
C13_4 C11_4 1_555 1_555
C14_4 C12_4 1_555 1_555
P2_4 C14_4 1_555 1_555
O8_4 P2_4 1_555 1_555
O9_2 P2_4 1_555 1_555
C13_4 C14_4 1_555 1_555
C11_4 H2_4 1_555 1_555
C10_4 H8_4 1_555 1_555
C13_4 H10_4 1_555 1_555
C12_4 H13_4 1_555 1_555
O8_4 H27_7 1_555 1_555
C19_4 H31_4 1_555 1_555
O10_4 P3_4 1_555 1_555
P3_4 O11_4 1_555 1_555
O12_4 P3_4 1_555 1_555
C15_4 P3_4 1_555 1_555
C16_4 C15_4 1_555 1_555
C17_4 C15_4 1_555 1_555
C18_4 C16_4 1_555 1_555
Ni3_2 O10_4 1_555 1_555
O16_4 Ni3_2 1_555 1_555
O17_4 Ni3_2 1_555 1_555
O18_4 Ni3_2 1_555 1_555
C18_4 C20_4 1_555 1_555
O18_4 H18_4 1_555 1_555
O18_4 H19_4 1_555 1_555
O17_4 H22_4 1_555 1_555
O17_4 H23_4 1_555 1_555
C16_4 H24_4 1_555 1_555
C18_4 H28_4 1_555 1_555
C17_4 H29_4 1_555 1_555
O12_4 H30_4 1_555 1_555
C8_6 C7_6 1_555 1_555
C21_4 C8_6 1_555 1_555
C22_4 C21_4 1_555 1_555
C23_4 C21_4 1_555 1_555
C24_4 C22_4 1_555 1_555
C25_4 C23_4 1_555 1_555
C26_4 C24_4 1_555 1_555
P4_4 C26_4 1_555 1_555
O14_2 P4_4 1_555 1_555
O19_2 P4_4 1_555 1_555
C25_4 C26_4 1_555 1_555
C5_4 H3_4 1_555 1_555
C25_4 H16_4 1_555 1_555
C22_4 H20_4 1_555 1_555
C23_4 H32_4 1_555 1_555
O13_4 H17_7 1_555 1_555
Ni4_2 O1_4 1_555 1_555
O1_4 P1_4 1_555 1_555
O2_4 Ni4_2 1_555 1_555
O3_4 Ni4_2 1_555 1_555
O4_4 Ni4_2 1_555 1_555
P1_4 O6_4 1_555 1_555
O7_6 P1_4 1_555 1_555
C1_4 P1_4 1_555 1_555
C2_4 C1_4 1_555 1_555
C3_4 C1_4 1_555 1_555
C4_4 C2_4 1_555 1_555
C6_4 C4_4 1_555 1_555
C3_4 H1_4 1_555 1_555
O2_4 H4_4 1_555 1_555
O2_4 H5_4 1_555 1_555
O7_6 H6_4 1_555 1_555
C2_4 H7_4 1_555 1_555
C4_4 H9_4 1_555 1_555
O4_4 H11_4 1_555 1_555
O4_4 H12_4 1_555 1_555
O3_4 H14_4 1_555 1_555
O3_4 H15_4 1_555 1_555
O8_4 H17_8 1_555 1_555
O13_4 H27_8 1_555 1_555

#END
