
###############################################################################
#
# This file contains modified crystal structure data generated from the
# MOF subset of the Cambridge Structural Database (CSD) v543 
# hosted by the Cambridge Crystallographic Data Centre (CCDC).
#
# This work is licensed under the Creative Commons
# Attribution-NonCommercial-ShareAlike 4.0 International License.
# To view a copy of this license, visit
# http://creativecommons.org/licenses/by-nc-sa/4.0/
# or send a letter to
# Creative Commons, PO Box 1866, Mountain View, CA 94042, USA.
#
# CIF created using the CSD Python API on 29 September 2022
# The structure has been converted into the P1 space group
# The structure has a 3D framework
# The original CSD entry HURKOX is in the monoclinic crystal system
# The framework has been calculated to contain at least 10.0% void space
# The void calculation uses a probe of radius 1.32A, grid spacing 0.4
# The framework is charged, counterions have been retained in the structure
#
###############################################################################

data_HURKOX
_chemical_formula_moiety         '(C232 H88 Eu14 N8 O88 7-)n'
_symmetry_cell_setting           triclinic
_symmetry_space_group_name_H-M   'P 1'
_symmetry_Int_Tables_number      1
_space_group_name_Hall           'P 1'
loop_
_symmetry_equiv_pos_site_id
_symmetry_equiv_pos_as_xyz
1 x,y,z
_cell_length_a                   18.9221(12)
_cell_length_b                   23.2834(18)
_cell_length_c                   21.4350(12)
_cell_angle_alpha                90
_cell_angle_beta                 101.931(2)
_cell_angle_gamma                90
_cell_volume                     9239.63
loop_
_atom_site_label
_atom_site_type_symbol
_atom_site_fract_x
_atom_site_fract_y
_atom_site_fract_z
Eu1 Eu 0.41447(2) 0.50214(2) 0.04150(2)
Eu2 Eu 0.000000 0.35147(3) 0.250000
C1 C 0.1637(3) 0.4151(3) 0.0460(3)
C2 C 0.1362(3) 0.3612(3) 0.0415(3)
H1 H 0.102437 0.350496 0.005410
C3 C 0.1574(3) 0.3230(3) 0.0889(3)
C4 C 0.2070(3) 0.3381(2) 0.1427(2)
H2 H 0.221586 0.311554 0.175225
C5 C 0.2347(3) 0.3922(3) 0.1481(2)
C6 C 0.2833(3) 0.4090(3) 0.2086(3)
C7 C 0.2638(4) 0.3952(3) 0.2665(3)
H3 H 0.221596 0.374490 0.265829
C8 C 0.3049(3) 0.4114(3) 0.3239(3)
H4 H 0.290388 0.401856 0.361457
C9 C 0.3682(3) 0.4421(3) 0.3263(2)
C10 C 0.3888(3) 0.4569(3) 0.2708(2)
H5 H 0.431145 0.477663 0.272503
C11 C 0.3469(3) 0.4411(3) 0.2115(2)
C12 C 0.3727(3) 0.4595(3) 0.1526(2)
C13 C 0.4142(3) 0.4605(3) 0.3895(2)
C14 C 0.1237(3) 0.2646(3) 0.0827(3)
C15 C 0.1386(4) 0.2274(3) 0.0379(4)
H6 H 0.171860 0.238316 0.013703
C16 C 0.1058(4) 0.1733(3) 0.0272(4)
C17 C 0.0536(3) 0.1587(3) 0.0597(3)
C18 C 0.0367(4) 0.1961(3) 0.1044(3)
H8 H 0.000739 0.186169 0.126132
C19 C 0.0720(4) 0.2481(3) 0.1176(3)
C20 C 0.0498(5) 0.2849(3) 0.1682(4)
C21 C 0.0123(3) 0.1038(2) 0.0480(3)
N1 N 0.2133(3) 0.4319(2) 0.1010(2)
O1 O 0.3802(2) 0.42437(18) 0.11114(18)
O2 O 0.3879(2) 0.51250(18) 0.14859(19)
O3 O 0.4755(2) 0.4798(2) 0.38744(18)
O4 O 0.3884(2) 0.4553(2) 0.43814(16)
O6 O 0.0918(3) 0.3116(3) 0.2085(3)
O8 O 0.0336(2) 0.06547(17) 0.01431(18)
O9 O 0.2906(2) 0.5422(2) 0.0279(2)
H21 H 0.012403 0.494825 0.599805
O17 O 0.0178(4) 0.2839(3) 0.3271(3)
O19 O 0.0429(2) 0.09768(17) 0.42868(19)
O23 O 0.0129(3) 0.5750(3) 0.6807(3)
Eu5 Eu 0.58553(2) 0.50214(2) 0.45850(2)
Eu7 Eu 0.08553(2) 0.00214(2) 0.45850(2)
Eu9 Eu 0.41447(2) 0.49786(2) 0.54150(2)
Eu13 Eu 0.000000 0.64853(3) 0.750000
O26 O 0.5245(2) 0.4798(2) 0.11256(18)
O29 O 0.4571(2) 0.59768(17) 0.07132(19)
O31 O 0.5336(2) 0.56547(17) 0.01431(18)
O35 O 0.0129(3) 0.4250(3) 0.1807(3)
O38 O 0.0945(3) 0.3936(2) 0.3212(2)
H7 H 0.119290 0.147845 0.998307
C22 C 0.1380(3) 0.4564(3) 0.9942(3)
C23 C 0.0648(4) 0.4582(3) 0.9661(3)
H9 H 0.033651 0.432990 0.980626
C24 C 0.0368(4) 0.4953(3) 0.9181(4)
C25 C 0.0825(3) 0.5341(3) 0.8959(3)
C26 C 0.1539(3) 0.5338(3) 0.9238(3)
H11 H 0.184497 0.559814 0.909782
C27 C 0.1828(3) 0.4958(3) 0.9730(3)
C28 C 0.2638(4) 0.4978(3) 0.9981(3)
C29 C 0.0538(4) 0.5742(3) 0.8425(3)
O10 O 0.3009(2) 0.45604(19) 0.9860(2)
O12 O 0.0945(3) 0.6064(2) 0.8212(2)
O28 O 0.3884(2) 0.5447(2) 0.93814(16)
O33 O 0.4664(2) 0.43453(17) 0.98569(18)
Eu10 Eu 0.08553(2) 0.99786(2) 0.95850(2)
Eu2_2 Eu 1.000000 0.35147(3) 0.250000
O5 O 0.9822(4) 0.2839(3) 0.1729(3)
O7 O 0.9571(2) 0.09768(17) 0.07132(19)
C30 C 0.8363(3) 0.4151(3) 0.4540(3)
C31 C 0.8638(3) 0.3612(3) 0.4585(3)
H12 H 0.897563 0.350496 0.494590
C32 C 0.8426(3) 0.3230(3) 0.4111(3)
C33 C 0.7930(3) 0.3381(2) 0.3573(2)
H13 H 0.778414 0.311554 0.324775
C34 C 0.7653(3) 0.3922(3) 0.3519(2)
C35 C 0.7167(3) 0.4090(3) 0.2914(3)
C36 C 0.7362(4) 0.3952(3) 0.2335(3)
H14 H 0.778404 0.374490 0.234171
C37 C 0.6951(3) 0.4114(3) 0.1761(3)
H15 H 0.709612 0.401856 0.138543
C38 C 0.6318(3) 0.4421(3) 0.1737(2)
C39 C 0.6112(3) 0.4569(3) 0.2292(2)
H16 H 0.568855 0.477663 0.227497
C40 C 0.6531(3) 0.4411(3) 0.2885(2)
C41 C 0.6273(3) 0.4595(3) 0.3474(2)
C42 C 0.5858(3) 0.4605(3) 0.1105(2)
C43 C 0.8763(3) 0.2646(3) 0.4173(3)
C44 C 0.8614(4) 0.2274(3) 0.4621(4)
H17 H 0.828140 0.238316 0.486297
C45 C 0.8942(4) 0.1733(3) 0.4728(4)
H18 H 0.880710 0.147845 0.501693
C46 C 0.9464(3) 0.1587(3) 0.4403(3)
C47 C 0.9633(4) 0.1961(3) 0.3956(3)
H19 H 0.999261 0.186169 0.373868
C48 C 0.9280(4) 0.2481(3) 0.3824(3)
C49 C 0.9502(5) 0.2849(3) 0.3318(4)
C50 C 0.9877(3) 0.1038(2) 0.4520(3)
C51 C 0.8620(3) 0.4564(3) 0.5058(3)
C52 C 0.9352(4) 0.4582(3) 0.5339(3)
H20 H 0.966349 0.432990 0.519374
C53 C 0.9632(4) 0.4953(3) 0.5819(4)
C54 C 0.9175(3) 0.5341(3) 0.6041(3)
C55 C 0.8461(3) 0.5338(3) 0.5762(3)
H22 H 0.815503 0.559814 0.590218
C56 C 0.8172(3) 0.4958(3) 0.5270(3)
C57 C 0.7362(4) 0.4978(3) 0.5019(3)
C58 C 0.9462(4) 0.5742(3) 0.6575(3)
N2 N 0.7867(3) 0.4319(2) 0.3990(2)
O13 O 0.6198(2) 0.42437(18) 0.38886(18)
O14 O 0.6121(2) 0.51250(18) 0.35141(19)
O16 O 0.6116(2) 0.4553(2) 0.06186(16)
O18 O 0.9082(3) 0.3116(3) 0.2915(3)
O20 O 0.9664(2) 0.06547(17) 0.48569(18)
O21 O 0.7094(2) 0.5422(2) 0.4721(2)
O22 O 0.6991(2) 0.45604(19) 0.5140(2)
O24 O 0.9055(3) 0.6064(2) 0.6788(2)
Eu6 Eu 0.91447(2) 0.00214(2) 0.04150(2)
Eu13_2 Eu 1.000000 0.64853(3) 0.750000
O27 O 0.6116(2) 0.5447(2) 0.56186(16)
O30 O 0.5429(2) 0.59768(17) 0.42868(19)
O32 O 0.4664(2) 0.56547(17) 0.48569(18)
O34 O 0.5336(2) 0.43453(17) 0.51431(18)
O36 O 0.9871(3) 0.4250(3) 0.3193(3)
O37 O 0.9055(3) 0.3936(2) 0.1788(2)
H10 H 0.987597 0.494825 0.900195
O11 O 0.9871(3) 0.5750(3) 0.8193(3)
Eu8 Eu 0.58553(2) 0.49786(2) 0.95850(2)
Eu11 Eu 0.91447(2) 0.99786(2) 0.54150(2)
O26_2 O 0.0245(2) 0.9798(2) 0.11256(18)
O2_2 O 0.8879(2) 0.01250(18) 0.14859(19)
O9_2 O 0.7906(2) 0.0422(2) 0.0279(2)
C54_2 C 0.4175(3) 0.0341(3) 0.6041(3)
C55_2 C 0.3461(3) 0.0338(3) 0.5762(3)
H22_2 H 0.315503 0.059814 0.590218
C58_2 C 0.4462(4) 0.0742(3) 0.6575(3)
O14_2 O 0.1121(2) 0.01250(18) 0.35141(19)
O21_2 O 0.2094(2) 0.0422(2) 0.4721(2)
O23_2 O 0.5129(3) 0.0750(3) 0.6807(3)
O24_2 O 0.4055(3) 0.1064(2) 0.6788(2)
Eu13_3 Eu 0.500000 0.14853(3) 0.750000
O27_2 O 0.1116(2) 0.0447(2) 0.56186(16)
C25_2 C 0.5825(3) 0.0341(3) 0.8959(3)
C26_2 C 0.6539(3) 0.0338(3) 0.9238(3)
H11_2 H 0.684497 0.059814 0.909782
C29_2 C 0.5538(4) 0.0742(3) 0.8425(3)
O11_2 O 0.4871(3) 0.0750(3) 0.8193(3)
O12_2 O 0.5945(3) 0.1064(2) 0.8212(2)
O28_2 O 0.8884(2) 0.0447(2) 0.93814(16)
Eu2_3 Eu 0.500000 0.85147(3) 0.250000
C1_2 C 0.6637(3) 0.9151(3) 0.0460(3)
C2_2 C 0.6362(3) 0.8612(3) 0.0415(3)
H1_2 H 0.602437 0.850496 0.005410
C3_2 C 0.6574(3) 0.8230(3) 0.0889(3)
C4_2 C 0.7070(3) 0.8381(2) 0.1427(2)
H2_2 H 0.721586 0.811554 0.175225
C5_2 C 0.7347(3) 0.8922(3) 0.1481(2)
C6_2 C 0.7833(3) 0.9090(3) 0.2086(3)
C7_2 C 0.7638(4) 0.8952(3) 0.2665(3)
H3_2 H 0.721596 0.874490 0.265829
C8_2 C 0.8049(3) 0.9114(3) 0.3239(3)
H4_2 H 0.790388 0.901856 0.361457
C9_2 C 0.8682(3) 0.9421(3) 0.3263(2)
C10_2 C 0.8888(3) 0.9569(3) 0.2708(2)
H5_2 H 0.931145 0.977663 0.272503
C11_2 C 0.8469(3) 0.9411(3) 0.2115(2)
C12_2 C 0.8727(3) 0.9595(3) 0.1526(2)
C13_2 C 0.9142(3) 0.9605(3) 0.3895(2)
C14_2 C 0.6237(3) 0.7646(3) 0.0827(3)
C15_2 C 0.6386(4) 0.7274(3) 0.0379(4)
H6_2 H 0.671860 0.738316 0.013703
C16_2 C 0.6058(4) 0.6733(3) 0.0272(4)
C17_2 C 0.5536(3) 0.6587(3) 0.0597(3)
C18_2 C 0.5367(4) 0.6961(3) 0.1044(3)
H8_2 H 0.500739 0.686169 0.126132
C19_2 C 0.5720(4) 0.7481(3) 0.1176(3)
C20_2 C 0.5498(5) 0.7849(3) 0.1682(4)
C21_2 C 0.5123(3) 0.6038(2) 0.0480(3)
N1_2 N 0.7133(3) 0.9319(2) 0.1010(2)
O1_2 O 0.8802(2) 0.92437(18) 0.11114(18)
O3_2 O 0.9755(2) 0.9798(2) 0.38744(18)
O4_2 O 0.8884(2) 0.9553(2) 0.43814(16)
O5_2 O 0.4822(4) 0.7839(3) 0.1729(3)
O6_2 O 0.5918(3) 0.8116(3) 0.2085(3)
C30_2 C 0.3363(3) 0.9151(3) 0.4540(3)
C31_2 C 0.3638(3) 0.8612(3) 0.4585(3)
H12_2 H 0.397563 0.850496 0.494590
C32_2 C 0.3426(3) 0.8230(3) 0.4111(3)
C33_2 C 0.2930(3) 0.8381(2) 0.3573(2)
H13_2 H 0.278414 0.811554 0.324775
C34_2 C 0.2653(3) 0.8922(3) 0.3519(2)
C35_2 C 0.2167(3) 0.9090(3) 0.2914(3)
C36_2 C 0.2362(4) 0.8952(3) 0.2335(3)
H14_2 H 0.278404 0.874490 0.234171
C37_2 C 0.1951(3) 0.9114(3) 0.1761(3)
H15_2 H 0.209612 0.901856 0.138543
C38_2 C 0.1318(3) 0.9421(3) 0.1737(2)
C39_2 C 0.1112(3) 0.9569(3) 0.2292(2)
H16_2 H 0.068855 0.977663 0.227497
C40_2 C 0.1531(3) 0.9411(3) 0.2885(2)
C41_2 C 0.1273(3) 0.9595(3) 0.3474(2)
C42_2 C 0.0858(3) 0.9605(3) 0.1105(2)
C43_2 C 0.3763(3) 0.7646(3) 0.4173(3)
C44_2 C 0.3614(4) 0.7274(3) 0.4621(4)
H17_2 H 0.328140 0.738316 0.486297
C45_2 C 0.3942(4) 0.6733(3) 0.4728(4)
H18_2 H 0.380710 0.647845 0.501693
C46_2 C 0.4464(3) 0.6587(3) 0.4403(3)
C47_2 C 0.4633(4) 0.6961(3) 0.3956(3)
H19_2 H 0.499261 0.686169 0.373868
C48_2 C 0.4280(4) 0.7481(3) 0.3824(3)
C49_2 C 0.4502(5) 0.7849(3) 0.3318(4)
C50_2 C 0.4877(3) 0.6038(2) 0.4520(3)
C51_2 C 0.3620(3) 0.9564(3) 0.5058(3)
C52_2 C 0.4352(4) 0.9582(3) 0.5339(3)
H20_2 H 0.466349 0.932990 0.519374
C53_2 C 0.4632(4) 0.9953(3) 0.5819(4)
H21_2 H 0.512403 0.994825 0.599805
C56_2 C 0.3172(3) 0.9958(3) 0.5270(3)
C57_2 C 0.2362(4) 0.9978(3) 0.5019(3)
N2_2 N 0.2867(3) 0.9319(2) 0.3990(2)
O13_2 O 0.1198(2) 0.92437(18) 0.38886(18)
O16_2 O 0.1116(2) 0.9553(2) 0.06186(16)
O17_2 O 0.5178(4) 0.7839(3) 0.3271(3)
O18_2 O 0.4082(3) 0.8116(3) 0.2915(3)
O22_2 O 0.1991(2) 0.95604(19) 0.5140(2)
O34_2 O 0.0336(2) 0.93453(17) 0.51431(18)
O35_2 O 0.5129(3) 0.9250(3) 0.1807(3)
O36_2 O 0.4871(3) 0.9250(3) 0.3193(3)
O37_2 O 0.4055(3) 0.8936(2) 0.1788(2)
O38_2 O 0.5945(3) 0.8936(2) 0.3212(2)
H7_2 H 0.619290 0.647845 0.998307
C22_2 C 0.6380(3) 0.9564(3) 0.9942(3)
C23_2 C 0.5648(4) 0.9582(3) 0.9661(3)
H9_2 H 0.533651 0.932990 0.980626
C24_2 C 0.5368(4) 0.9953(3) 0.9181(4)
H10_2 H 0.487597 0.994825 0.900195
C27_2 C 0.6828(3) 0.9958(3) 0.9730(3)
C28_2 C 0.7638(4) 0.9978(3) 0.9981(3)
O10_2 O 0.8009(2) 0.95604(19) 0.9860(2)
O33_2 O 0.9664(2) 0.93453(17) 0.98569(18)
H10_3 H 0.012403 0.505175 0.099805
O5_3 O 0.0178(4) 0.7161(3) 0.8271(3)
O7_2 O 0.0429(2) 0.90232(17) 0.92868(19)
C30_3 C 0.1637(3) 0.5849(3) 0.5460(3)
C31_3 C 0.1362(3) 0.6388(3) 0.5415(3)
H12_3 H 0.102437 0.649504 0.505410
C32_3 C 0.1574(3) 0.6770(3) 0.5889(3)
C33_3 C 0.2070(3) 0.6619(2) 0.6427(2)
H13_3 H 0.221586 0.688446 0.675225
C34_3 C 0.2347(3) 0.6078(3) 0.6481(2)
C35_3 C 0.2833(3) 0.5910(3) 0.7086(3)
C36_3 C 0.2638(4) 0.6048(3) 0.7665(3)
H14_3 H 0.221596 0.625510 0.765829
C37_3 C 0.3049(3) 0.5886(3) 0.8239(3)
H15_3 H 0.290388 0.598144 0.861457
C38_3 C 0.3682(3) 0.5579(3) 0.8263(2)
C39_3 C 0.3888(3) 0.5431(3) 0.7708(2)
H16_3 H 0.431145 0.522337 0.772503
C40_3 C 0.3469(3) 0.5589(3) 0.7115(2)
C41_3 C 0.3727(3) 0.5405(3) 0.6526(2)
C42_3 C 0.4142(3) 0.5395(3) 0.8895(2)
C43_3 C 0.1237(3) 0.7354(3) 0.5827(3)
C44_3 C 0.1386(4) 0.7726(3) 0.5379(4)
H17_3 H 0.171860 0.761684 0.513703
C45_3 C 0.1058(4) 0.8267(3) 0.5272(4)
H18_3 H 0.119290 0.852155 0.498307
C46_3 C 0.0536(3) 0.8413(3) 0.5597(3)
C47_3 C 0.0367(4) 0.8039(3) 0.6044(3)
H19_3 H 0.000739 0.813831 0.626132
C48_3 C 0.0720(4) 0.7519(3) 0.6176(3)
C49_3 C 0.0498(5) 0.7151(3) 0.6682(4)
C50_3 C 0.0123(3) 0.8962(2) 0.5480(3)
C51_3 C 0.1380(3) 0.5436(3) 0.4942(3)
C52_3 C 0.0648(4) 0.5418(3) 0.4661(3)
H20_3 H 0.033651 0.567010 0.480626
C53_3 C 0.0368(4) 0.5047(3) 0.4181(4)
C54_3 C 0.0825(3) 0.4659(3) 0.3959(3)
C55_3 C 0.1539(3) 0.4662(3) 0.4238(3)
H22_3 H 0.184497 0.440186 0.409782
C56_3 C 0.1828(3) 0.5042(3) 0.4730(3)
C57_3 C 0.2638(4) 0.5022(3) 0.4981(3)
C58_3 C 0.0538(4) 0.4258(3) 0.3425(3)
N2_3 N 0.2133(3) 0.5681(2) 0.6010(2)
O13_3 O 0.3802(2) 0.57563(18) 0.61114(18)
O14_3 O 0.3879(2) 0.48750(18) 0.64859(19)
O15 O 0.4755(2) 0.5202(2) 0.88744(18)
O18_3 O 0.0918(3) 0.6884(3) 0.7085(3)
O21_3 O 0.2906(2) 0.4578(2) 0.5279(2)
O22_3 O 0.3009(2) 0.54396(19) 0.4860(2)
O25 O 0.5245(2) 0.5202(2) 0.61256(18)
O30_2 O 0.4571(2) 0.40232(17) 0.57132(19)
H7_3 H 0.880710 0.852155 0.001693
C22_3 C 0.8620(3) 0.5436(3) 0.0058(3)
C23_3 C 0.9352(4) 0.5418(3) 0.0339(3)
H9_3 H 0.966349 0.567010 0.019374
C24_3 C 0.9632(4) 0.5047(3) 0.0819(4)
C25_3 C 0.9175(3) 0.4659(3) 0.1041(3)
C26_3 C 0.8461(3) 0.4662(3) 0.0762(3)
H11_3 H 0.815503 0.440186 0.090218
C27_3 C 0.8172(3) 0.5042(3) 0.0270(3)
C28_3 C 0.7362(4) 0.5022(3) 0.0019(3)
C29_3 C 0.9462(4) 0.4258(3) 0.1575(3)
O10_3 O 0.6991(2) 0.54396(19) 0.0140(2)
C1_3 C 0.8363(3) 0.5849(3) 0.9540(3)
C2_3 C 0.8638(3) 0.6388(3) 0.9585(3)
H1_3 H 0.897563 0.649504 0.994590
C3_3 C 0.8426(3) 0.6770(3) 0.9111(3)
C4_3 C 0.7930(3) 0.6619(2) 0.8573(2)
H2_3 H 0.778414 0.688446 0.824775
C5_3 C 0.7653(3) 0.6078(3) 0.8519(2)
C6_3 C 0.7167(3) 0.5910(3) 0.7914(3)
C7_3 C 0.7362(4) 0.6048(3) 0.7335(3)
H3_3 H 0.778404 0.625510 0.734171
C8_3 C 0.6951(3) 0.5886(3) 0.6761(3)
H4_3 H 0.709612 0.598144 0.638543
C9_3 C 0.6318(3) 0.5579(3) 0.6737(2)
C10_3 C 0.6112(3) 0.5431(3) 0.7292(2)
H5_3 H 0.568855 0.522337 0.727497
C11_3 C 0.6531(3) 0.5589(3) 0.7885(2)
C12_3 C 0.6273(3) 0.5405(3) 0.8474(2)
C13_3 C 0.5858(3) 0.5395(3) 0.6105(2)
C14_3 C 0.8763(3) 0.7354(3) 0.9173(3)
C15_3 C 0.8614(4) 0.7726(3) 0.9621(4)
H6_3 H 0.828140 0.761684 0.986297
C16_3 C 0.8942(4) 0.8267(3) 0.9728(4)
C17_3 C 0.9464(3) 0.8413(3) 0.9403(3)
C18_3 C 0.9633(4) 0.8039(3) 0.8956(3)
H8_3 H 0.999261 0.813831 0.873868
C19_3 C 0.9280(4) 0.7519(3) 0.8824(3)
C20_3 C 0.9502(5) 0.7151(3) 0.8318(4)
C21_3 C 0.9877(3) 0.8962(2) 0.9520(3)
N1_3 N 0.7867(3) 0.5681(2) 0.8990(2)
O1_3 O 0.6198(2) 0.57563(18) 0.88886(18)
O2_3 O 0.6121(2) 0.48750(18) 0.85141(19)
O6_3 O 0.9082(3) 0.6884(3) 0.7915(3)
O9_3 O 0.7094(2) 0.4578(2) 0.9721(2)
H21_3 H 0.987597 0.505175 0.400195
O17_3 O 0.9822(4) 0.7161(3) 0.6729(3)
O19_2 O 0.9571(2) 0.90232(17) 0.57132(19)
O29_2 O 0.5429(2) 0.40232(17) 0.92868(19)
O25_2 O 0.0245(2) 0.0202(2) 0.61256(18)
H7_4 H 0.380710 0.352155 0.001693
C22_4 C 0.3620(3) 0.0436(3) 0.0058(3)
C23_4 C 0.4352(4) 0.0418(3) 0.0339(3)
H9_4 H 0.466349 0.067010 0.019374
C24_4 C 0.4632(4) 0.0047(3) 0.0819(4)
H10_4 H 0.512403 0.005175 0.099805
C27_4 C 0.3172(3) 0.0042(3) 0.0270(3)
C28_4 C 0.2362(4) 0.0022(3) 0.0019(3)
O10_4 O 0.1991(2) 0.04396(19) 0.0140(2)
C1_4 C 0.3363(3) 0.0849(3) 0.9540(3)
C2_4 C 0.3638(3) 0.1388(3) 0.9585(3)
H1_4 H 0.397563 0.149504 0.994590
C3_4 C 0.3426(3) 0.1770(3) 0.9111(3)
C4_4 C 0.2930(3) 0.1619(2) 0.8573(2)
H2_4 H 0.278414 0.188446 0.824775
C5_4 C 0.2653(3) 0.1078(3) 0.8519(2)
C6_4 C 0.2167(3) 0.0910(3) 0.7914(3)
C7_4 C 0.2362(4) 0.1048(3) 0.7335(3)
H3_4 H 0.278404 0.125510 0.734171
C8_4 C 0.1951(3) 0.0886(3) 0.6761(3)
H4_4 H 0.209612 0.098144 0.638543
C9_4 C 0.1318(3) 0.0579(3) 0.6737(2)
C10_4 C 0.1112(3) 0.0431(3) 0.7292(2)
H5_4 H 0.068855 0.022337 0.727497
C11_4 C 0.1531(3) 0.0589(3) 0.7885(2)
C12_4 C 0.1273(3) 0.0405(3) 0.8474(2)
C13_4 C 0.0858(3) 0.0395(3) 0.6105(2)
C14_4 C 0.3763(3) 0.2354(3) 0.9173(3)
C15_4 C 0.3614(4) 0.2726(3) 0.9621(4)
H6_4 H 0.328140 0.261684 0.986297
C16_4 C 0.3942(4) 0.3267(3) 0.9728(4)
C17_4 C 0.4464(3) 0.3413(3) 0.9403(3)
C18_4 C 0.4633(4) 0.3039(3) 0.8956(3)
H8_4 H 0.499261 0.313831 0.873868
C19_4 C 0.4280(4) 0.2519(3) 0.8824(3)
C20_4 C 0.4502(5) 0.2151(3) 0.8318(4)
C21_4 C 0.4877(3) 0.3962(2) 0.9520(3)
N1_4 N 0.2867(3) 0.0681(2) 0.8990(2)
O1_4 O 0.1198(2) 0.07563(18) 0.88886(18)
O5_4 O 0.5178(4) 0.2161(3) 0.8271(3)
O6_4 O 0.4082(3) 0.1884(3) 0.7915(3)
C30_4 C 0.6637(3) 0.0849(3) 0.5460(3)
C31_4 C 0.6362(3) 0.1388(3) 0.5415(3)
H12_4 H 0.602437 0.149504 0.505410
C32_4 C 0.6574(3) 0.1770(3) 0.5889(3)
C33_4 C 0.7070(3) 0.1619(2) 0.6427(2)
H13_4 H 0.721586 0.188446 0.675225
C34_4 C 0.7347(3) 0.1078(3) 0.6481(2)
C35_4 C 0.7833(3) 0.0910(3) 0.7086(3)
C36_4 C 0.7638(4) 0.1048(3) 0.7665(3)
H14_4 H 0.721596 0.125510 0.765829
C37_4 C 0.8049(3) 0.0886(3) 0.8239(3)
H15_4 H 0.790388 0.098144 0.861457
C38_4 C 0.8682(3) 0.0579(3) 0.8263(2)
C39_4 C 0.8888(3) 0.0431(3) 0.7708(2)
H16_4 H 0.931145 0.022337 0.772503
C40_4 C 0.8469(3) 0.0589(3) 0.7115(2)
C41_4 C 0.8727(3) 0.0405(3) 0.6526(2)
C42_4 C 0.9142(3) 0.0395(3) 0.8895(2)
C43_4 C 0.6237(3) 0.2354(3) 0.5827(3)
C44_4 C 0.6386(4) 0.2726(3) 0.5379(4)
H17_4 H 0.671860 0.261684 0.513703
C45_4 C 0.6058(4) 0.3267(3) 0.5272(4)
H18_4 H 0.619290 0.352155 0.498307
C46_4 C 0.5536(3) 0.3413(3) 0.5597(3)
C47_4 C 0.5367(4) 0.3039(3) 0.6044(3)
H19_4 H 0.500739 0.313831 0.626132
C48_4 C 0.5720(4) 0.2519(3) 0.6176(3)
C49_4 C 0.5498(5) 0.2151(3) 0.6682(4)
C50_4 C 0.5123(3) 0.3962(2) 0.5480(3)
C51_4 C 0.6380(3) 0.0436(3) 0.4942(3)
C52_4 C 0.5648(4) 0.0418(3) 0.4661(3)
H20_4 H 0.533651 0.067010 0.480626
C53_4 C 0.5368(4) 0.0047(3) 0.4181(4)
H21_4 H 0.487597 0.005175 0.400195
C56_4 C 0.6828(3) 0.0042(3) 0.4730(3)
C57_4 C 0.7638(4) 0.0022(3) 0.4981(3)
N2_4 N 0.7133(3) 0.0681(2) 0.6010(2)
O13_4 O 0.8802(2) 0.07563(18) 0.61114(18)
O15_2 O 0.9755(2) 0.0202(2) 0.88744(18)
O17_4 O 0.4822(4) 0.2161(3) 0.6729(3)
O18_4 O 0.5918(3) 0.1884(3) 0.7085(3)
O22_4 O 0.8009(2) 0.04396(19) 0.4860(2)
C25_4 C 0.4175(3) 0.9659(3) 0.1041(3)
C26_4 C 0.3461(3) 0.9662(3) 0.0762(3)
H11_4 H 0.315503 0.940186 0.090218
C29_4 C 0.4462(4) 0.9258(3) 0.1575(3)
O2_4 O 0.1121(2) 0.98750(18) 0.85141(19)
O9_4 O 0.2094(2) 0.9578(2) 0.9721(2)
C54_4 C 0.5825(3) 0.9659(3) 0.3959(3)
C55_4 C 0.6539(3) 0.9662(3) 0.4238(3)
H22_4 H 0.684497 0.940186 0.409782
C58_4 C 0.5538(4) 0.9258(3) 0.3425(3)
O14_4 O 0.8879(2) 0.98750(18) 0.64859(19)
O21_4 O 0.7906(2) 0.9578(2) 0.5279(2)
loop_
_geom_bond_atom_site_label_1
_geom_bond_atom_site_label_2
_geom_bond_site_symmetry_1
_geom_bond_site_symmetry_2
Eu1 O1 1_555 1_555
C1 C2 1_555 1_555
C2 H1 1_555 1_555
C3 C2 1_555 1_555
C4 C3 1_555 1_555
H2 C4 1_555 1_555
C5 C4 1_555 1_555
C6 C5 1_555 1_555
C7 C6 1_555 1_555
H3 C7 1_555 1_555
C8 C7 1_555 1_555
H4 C8 1_555 1_555
C9 C8 1_555 1_555
C10 C9 1_555 1_555
H5 C10 1_555 1_555
C11 C6 1_555 1_555
C12 C11 1_555 1_555
C13 C9 1_555 1_555
C14 C3 1_555 1_555
C15 C14 1_555 1_555
H6 C15 1_555 1_555
C16 C15 1_555 1_555
C17 C16 1_555 1_555
C18 C17 1_555 1_555
H8 C18 1_555 1_555
C19 C14 1_555 1_555
C20 C19 1_555 1_555
C21 C17 1_555 1_555
N1 C1 1_555 1_555
O1 C12 1_555 1_555
O2 Eu1 1_555 1_555
O3 C13 1_555 1_555
O4 C13 1_555 1_555
O6 Eu2 1_555 1_555
O8 C21 1_555 1_555
O9 Eu1 1_555 1_555
O17 Eu2 1_555 1_555
Eu5 O3 1_555 1_555
Eu7 O19 1_555 1_555
Eu9 O4 1_555 1_555
Eu13 O23 1_555 1_555
O26 Eu1 1_555 1_555
O29 Eu1 1_555 1_555
O31 Eu1 1_555 1_555
O35 Eu2 1_555 1_555
O38 Eu2 1_555 1_555
C5 N1 1_555 1_555
C10 C11 1_555 1_555
C12 O2 1_555 1_555
C18 C19 1_555 1_555
C20 O6 1_555 1_555
C23 C22 1_555 1_555
H9 C23 1_555 1_555
C24 C23 1_555 1_555
C25 C24 1_555 1_555
C26 C25 1_555 1_555
H11 C26 1_555 1_555
C27 C22 1_555 1_555
C28 C27 1_555 1_555
C29 C25 1_555 1_555
O12 C29 1_555 1_555
C26 C27 1_555 1_555
C28 O10 1_555 1_555
O12 Eu13 1_555 1_555
Eu2_2 O5 1_555 1_555
Eu5 O13 1_555 1_555
C30 C31 1_555 1_555
C31 H12 1_555 1_555
C32 C31 1_555 1_555
C33 C32 1_555 1_555
H13 C33 1_555 1_555
C34 C33 1_555 1_555
C35 C34 1_555 1_555
C36 C35 1_555 1_555
H14 C36 1_555 1_555
C37 C36 1_555 1_555
H15 C37 1_555 1_555
C38 C37 1_555 1_555
C39 C38 1_555 1_555
H16 C39 1_555 1_555
C40 C35 1_555 1_555
C41 C40 1_555 1_555
C42 C38 1_555 1_555
C43 C32 1_555 1_555
C44 C43 1_555 1_555
H17 C44 1_555 1_555
C45 C44 1_555 1_555
H18 C45 1_555 1_555
C46 C45 1_555 1_555
C47 C46 1_555 1_555
H19 C47 1_555 1_555
C48 C43 1_555 1_555
C49 C48 1_555 1_555
C50 C46 1_555 1_555
C51 C30 1_555 1_555
C52 C51 1_555 1_555
H20 C52 1_555 1_555
C53 C52 1_555 1_555
C54 C53 1_555 1_555
C55 C54 1_555 1_555
H22 C55 1_555 1_555
C56 C51 1_555 1_555
C57 C56 1_555 1_555
C58 C54 1_555 1_555
N2 C30 1_555 1_555
O13 C41 1_555 1_555
O14 Eu5 1_555 1_555
O26 C42 1_555 1_555
O16 C42 1_555 1_555
O18 Eu2_2 1_555 1_555
O20 C50 1_555 1_555
O21 Eu5 1_555 1_555
O22 Eu5 1_555 1_555
O24 C58 1_555 1_555
Eu6 O7 1_555 1_555
O27 Eu5 1_555 1_555
O30 Eu5 1_555 1_555
O32 Eu5 1_555 1_555
O34 Eu5 1_555 1_555
O36 Eu2_2 1_555 1_555
O37 Eu2_2 1_555 1_555
C34 N2 1_555 1_555
C39 C40 1_555 1_555
C41 O14 1_555 1_555
C47 C48 1_555 1_555
C49 O18 1_555 1_555
C55 C56 1_555 1_555
C57 O21 1_555 1_555
C57 O22 1_555 1_555
O24 Eu13_2 1_555 1_555
Eu13_2 O11 1_555 1_555
O2_2 Eu6 1_555 1_555
O9_2 Eu6 1_555 1_555
C55_2 C54_2 1_555 1_555
H22_2 C55_2 1_555 1_555
C58_2 C54_2 1_555 1_555
O14_2 Eu7 1_555 1_555
O21_2 Eu7 1_555 1_555
O23_2 C58_2 1_555 1_555
O24_2 C58_2 1_555 1_555
Eu13_3 O23_2 1_555 1_555
O27_2 Eu7 1_555 1_555
O24_2 Eu13_3 1_555 1_555
C26_2 C25_2 1_555 1_555
H11_2 C26_2 1_555 1_555
C29_2 C25_2 1_555 1_555
O11_2 C29_2 1_555 1_555
O12_2 C29_2 1_555 1_555
Eu13_3 O11_2 1_555 1_555
O12_2 Eu13_3 1_555 1_555
Eu2_3 O5_2 1_555 1_555
C1_2 C2_2 1_555 1_555
C2_2 H1_2 1_555 1_555
C3_2 C2_2 1_555 1_555
C4_2 C3_2 1_555 1_555
H2_2 C4_2 1_555 1_555
C5_2 C4_2 1_555 1_555
C6_2 C5_2 1_555 1_555
C7_2 C6_2 1_555 1_555
H3_2 C7_2 1_555 1_555
C8_2 C7_2 1_555 1_555
H4_2 C8_2 1_555 1_555
C9_2 C8_2 1_555 1_555
C10_2 C9_2 1_555 1_555
H5_2 C10_2 1_555 1_555
C11_2 C6_2 1_555 1_555
C12_2 C11_2 1_555 1_555
C13_2 C9_2 1_555 1_555
C14_2 C3_2 1_555 1_555
C15_2 C14_2 1_555 1_555
H6_2 C15_2 1_555 1_555
C16_2 C15_2 1_555 1_555
C17_2 C16_2 1_555 1_555
C18_2 C17_2 1_555 1_555
H8_2 C18_2 1_555 1_555
C19_2 C14_2 1_555 1_555
C20_2 C19_2 1_555 1_555
C21_2 C17_2 1_555 1_555
N1_2 C1_2 1_555 1_555
O1_2 C12_2 1_555 1_555
O3_2 C13_2 1_555 1_555
O4_2 C13_2 1_555 1_555
O5_2 C20_2 1_555 1_555
O6_2 Eu2_3 1_555 1_555
O29 C21_2 1_555 1_555
O31 C21_2 1_555 1_555
C30_2 C31_2 1_555 1_555
C31_2 H12_2 1_555 1_555
C32_2 C31_2 1_555 1_555
C33_2 C32_2 1_555 1_555
H13_2 C33_2 1_555 1_555
C34_2 C33_2 1_555 1_555
C35_2 C34_2 1_555 1_555
C36_2 C35_2 1_555 1_555
H14_2 C36_2 1_555 1_555
C37_2 C36_2 1_555 1_555
H15_2 C37_2 1_555 1_555
C38_2 C37_2 1_555 1_555
C39_2 C38_2 1_555 1_555
H16_2 C39_2 1_555 1_555
C40_2 C35_2 1_555 1_555
C41_2 C40_2 1_555 1_555
C42_2 C38_2 1_555 1_555
C43_2 C32_2 1_555 1_555
C44_2 C43_2 1_555 1_555
H17_2 C44_2 1_555 1_555
C45_2 C44_2 1_555 1_555
H18_2 C45_2 1_555 1_555
C46_2 C45_2 1_555 1_555
C47_2 C46_2 1_555 1_555
H19_2 C47_2 1_555 1_555
C48_2 C43_2 1_555 1_555
C49_2 C48_2 1_555 1_555
C50_2 C46_2 1_555 1_555
C51_2 C30_2 1_555 1_555
C52_2 C51_2 1_555 1_555
H20_2 C52_2 1_555 1_555
C53_2 C52_2 1_555 1_555
H21_2 C53_2 1_555 1_555
C56_2 C51_2 1_555 1_555
C57_2 C56_2 1_555 1_555
N2_2 C30_2 1_555 1_555
O13_2 C41_2 1_555 1_555
O26_2 C42_2 1_555 1_555
O16_2 C42_2 1_555 1_555
O17_2 Eu2_3 1_555 1_555
O18_2 Eu2_3 1_555 1_555
O30 C50_2 1_555 1_555
O32 C50_2 1_555 1_555
Eu11 O4_2 1_555 1_555
Eu9 O32 1_555 1_555
O35_2 Eu2_3 1_555 1_555
O36_2 Eu2_3 1_555 1_555
O37_2 Eu2_3 1_555 1_555
O38_2 Eu2_3 1_555 1_555
C5_2 N1_2 1_555 1_555
C10_2 C11_2 1_555 1_555
C18_2 C19_2 1_555 1_555
C20_2 O6_2 1_555 1_555
C34_2 N2_2 1_555 1_555
C39_2 C40_2 1_555 1_555
C47_2 C48_2 1_555 1_555
C49_2 O17_2 1_555 1_555
C49_2 O18_2 1_555 1_555
C57_2 O22_2 1_555 1_555
C23_2 C22_2 1_555 1_555
H9_2 C23_2 1_555 1_555
C24_2 C23_2 1_555 1_555
H10_2 C24_2 1_555 1_555
C27_2 C22_2 1_555 1_555
C28_2 C27_2 1_555 1_555
C28_2 O10_2 1_555 1_555
Eu13 O5_3 1_555 1_555
Eu9 O13_3 1_555 1_555
C30_3 C31_3 1_555 1_555
C31_3 H12_3 1_555 1_555
C32_3 C31_3 1_555 1_555
C33_3 C32_3 1_555 1_555
H13_3 C33_3 1_555 1_555
C34_3 C33_3 1_555 1_555
C35_3 C34_3 1_555 1_555
C36_3 C35_3 1_555 1_555
H14_3 C36_3 1_555 1_555
C37_3 C36_3 1_555 1_555
H15_3 C37_3 1_555 1_555
C38_3 C37_3 1_555 1_555
C39_3 C38_3 1_555 1_555
H16_3 C39_3 1_555 1_555
C40_3 C35_3 1_555 1_555
C41_3 C40_3 1_555 1_555
C42_3 C38_3 1_555 1_555
C43_3 C32_3 1_555 1_555
C44_3 C43_3 1_555 1_555
H17_3 C44_3 1_555 1_555
C45_3 C44_3 1_555 1_555
H18_3 C45_3 1_555 1_555
C46_3 C45_3 1_555 1_555
C47_3 C46_3 1_555 1_555
H19_3 C47_3 1_555 1_555
C48_3 C43_3 1_555 1_555
C49_3 C48_3 1_555 1_555
C50_3 C46_3 1_555 1_555
C51_3 C30_3 1_555 1_555
C52_3 C51_3 1_555 1_555
H20_3 C52_3 1_555 1_555
C53_3 C52_3 1_555 1_555
C54_3 C53_3 1_555 1_555
C55_3 C54_3 1_555 1_555
H22_3 C55_3 1_555 1_555
C56_3 C51_3 1_555 1_555
C57_3 C56_3 1_555 1_555
C58_3 C54_3 1_555 1_555
N2_3 C30_3 1_555 1_555
O13_3 C41_3 1_555 1_555
O14_3 Eu9 1_555 1_555
O15 C42_3 1_555 1_555
O28 C42_3 1_555 1_555
O18_3 Eu13 1_555 1_555
O34_2 C50_3 1_555 1_555
O21_3 Eu9 1_555 1_555
O22_3 Eu9 1_555 1_555
O38 C58_3 1_555 1_555
Eu8 O15 1_555 1_555
Eu10 O7_2 1_555 1_555
O25 Eu9 1_555 1_555
O30_2 Eu9 1_555 1_555
O34 Eu9 1_555 1_555
C34_3 N2_3 1_555 1_555
C39_3 C40_3 1_555 1_555
C41_3 O14_3 1_555 1_555
C47_3 C48_3 1_555 1_555
C49_3 O18_3 1_555 1_555
C55_3 C56_3 1_555 1_555
C57_3 O21_3 1_555 1_555
C57_3 O22_3 1_555 1_555
C23_3 C22_3 1_555 1_555
H9_3 C23_3 1_555 1_555
C24_3 C23_3 1_555 1_555
C25_3 C24_3 1_555 1_555
C26_3 C25_3 1_555 1_555
H11_3 C26_3 1_555 1_555
C27_3 C22_3 1_555 1_555
C28_3 C27_3 1_555 1_555
C29_3 C25_3 1_555 1_555
O37 C29_3 1_555 1_555
C26_3 C27_3 1_555 1_555
C28_3 O10_3 1_555 1_555
Eu8 O1_3 1_555 1_555
C1_3 C2_3 1_555 1_555
C2_3 H1_3 1_555 1_555
C3_3 C2_3 1_555 1_555
C4_3 C3_3 1_555 1_555
H2_3 C4_3 1_555 1_555
C5_3 C4_3 1_555 1_555
C6_3 C5_3 1_555 1_555
C7_3 C6_3 1_555 1_555
H3_3 C7_3 1_555 1_555
C8_3 C7_3 1_555 1_555
H4_3 C8_3 1_555 1_555
C9_3 C8_3 1_555 1_555
C10_3 C9_3 1_555 1_555
H5_3 C10_3 1_555 1_555
C11_3 C6_3 1_555 1_555
C12_3 C11_3 1_555 1_555
C13_3 C9_3 1_555 1_555
C14_3 C3_3 1_555 1_555
C15_3 C14_3 1_555 1_555
H6_3 C15_3 1_555 1_555
C16_3 C15_3 1_555 1_555
C17_3 C16_3 1_555 1_555
C18_3 C17_3 1_555 1_555
H8_3 C18_3 1_555 1_555
C19_3 C14_3 1_555 1_555
C20_3 C19_3 1_555 1_555
C21_3 C17_3 1_555 1_555
N1_3 C1_3 1_555 1_555
O1_3 C12_3 1_555 1_555
O2_3 Eu8 1_555 1_555
O25 C13_3 1_555 1_555
O27 C13_3 1_555 1_555
O6_3 Eu13_2 1_555 1_555
O33_2 C21_3 1_555 1_555
O9_3 Eu8 1_555 1_555
O17_3 Eu13_2 1_555 1_555
Eu11 O19_2 1_555 1_555
O29_2 Eu8 1_555 1_555
O33 Eu8 1_555 1_555
C5_3 N1_3 1_555 1_555
C10_3 C11_3 1_555 1_555
C12_3 O2_3 1_555 1_555
C18_3 C19_3 1_555 1_555
C20_3 O6_3 1_555 1_555
C23_4 C22_4 1_555 1_555
H9_4 C23_4 1_555 1_555
C24_4 C23_4 1_555 1_555
H10_4 C24_4 1_555 1_555
C27_4 C22_4 1_555 1_555
C28_4 C27_4 1_555 1_555
C28_4 O10_4 1_555 1_555
Eu13_3 O5_4 1_555 1_555
C1_4 C2_4 1_555 1_555
C2_4 H1_4 1_555 1_555
C3_4 C2_4 1_555 1_555
C4_4 C3_4 1_555 1_555
H2_4 C4_4 1_555 1_555
C5_4 C4_4 1_555 1_555
C6_4 C5_4 1_555 1_555
C7_4 C6_4 1_555 1_555
H3_4 C7_4 1_555 1_555
C8_4 C7_4 1_555 1_555
H4_4 C8_4 1_555 1_555
C9_4 C8_4 1_555 1_555
C10_4 C9_4 1_555 1_555
H5_4 C10_4 1_555 1_555
C11_4 C6_4 1_555 1_555
C12_4 C11_4 1_555 1_555
C13_4 C9_4 1_555 1_555
C14_4 C3_4 1_555 1_555
C15_4 C14_4 1_555 1_555
H6_4 C15_4 1_555 1_555
C16_4 C15_4 1_555 1_555
C17_4 C16_4 1_555 1_555
C18_4 C17_4 1_555 1_555
H8_4 C18_4 1_555 1_555
C19_4 C14_4 1_555 1_555
C20_4 C19_4 1_555 1_555
C21_4 C17_4 1_555 1_555
N1_4 C1_4 1_555 1_555
O1_4 C12_4 1_555 1_555
O25_2 C13_4 1_555 1_555
O27_2 C13_4 1_555 1_555
O5_4 C20_4 1_555 1_555
O6_4 Eu13_3 1_555 1_555
O29_2 C21_4 1_555 1_555
O33 C21_4 1_555 1_555
C30_4 C31_4 1_555 1_555
C31_4 H12_4 1_555 1_555
C32_4 C31_4 1_555 1_555
C33_4 C32_4 1_555 1_555
H13_4 C33_4 1_555 1_555
C34_4 C33_4 1_555 1_555
C35_4 C34_4 1_555 1_555
C36_4 C35_4 1_555 1_555
H14_4 C36_4 1_555 1_555
C37_4 C36_4 1_555 1_555
H15_4 C37_4 1_555 1_555
C38_4 C37_4 1_555 1_555
C39_4 C38_4 1_555 1_555
H16_4 C39_4 1_555 1_555
C40_4 C35_4 1_555 1_555
C41_4 C40_4 1_555 1_555
C42_4 C38_4 1_555 1_555
C43_4 C32_4 1_555 1_555
C44_4 C43_4 1_555 1_555
H17_4 C44_4 1_555 1_555
C45_4 C44_4 1_555 1_555
H18_4 C45_4 1_555 1_555
C46_4 C45_4 1_555 1_555
C47_4 C46_4 1_555 1_555
H19_4 C47_4 1_555 1_555
C48_4 C43_4 1_555 1_555
C49_4 C48_4 1_555 1_555
C50_4 C46_4 1_555 1_555
C51_4 C30_4 1_555 1_555
C52_4 C51_4 1_555 1_555
H20_4 C52_4 1_555 1_555
C53_4 C52_4 1_555 1_555
H21_4 C53_4 1_555 1_555
C56_4 C51_4 1_555 1_555
C57_4 C56_4 1_555 1_555
N2_4 C30_4 1_555 1_555
O13_4 C41_4 1_555 1_555
O15_2 C42_4 1_555 1_555
O28_2 C42_4 1_555 1_555
O17_4 Eu13_3 1_555 1_555
O18_4 Eu13_3 1_555 1_555
O30_2 C50_4 1_555 1_555
O34 C50_4 1_555 1_555
C5_4 N1_4 1_555 1_555
C10_4 C11_4 1_555 1_555
C18_4 C19_4 1_555 1_555
C20_4 O6_4 1_555 1_555
C34_4 N2_4 1_555 1_555
C39_4 C40_4 1_555 1_555
C47_4 C48_4 1_555 1_555
C49_4 O17_4 1_555 1_555
C49_4 O18_4 1_555 1_555
C57_4 O22_4 1_555 1_555
C26_4 C25_4 1_555 1_555
H11_4 C26_4 1_555 1_555
C29_4 C25_4 1_555 1_555
O35_2 C29_4 1_555 1_555
O37_2 C29_4 1_555 1_555
O2_4 Eu10 1_555 1_555
O9_4 Eu10 1_555 1_555
C55_4 C54_4 1_555 1_555
H22_4 C55_4 1_555 1_555
C58_4 C54_4 1_555 1_555
O14_4 Eu11 1_555 1_555
O21_4 Eu11 1_555 1_555
O36_2 C58_4 1_555 1_555
O38_2 C58_4 1_555 1_555

#END
