
###############################################################################
#
# This file contains modified crystal structure data generated from the
# MOF subset of the Cambridge Structural Database (CSD) v543 
# hosted by the Cambridge Crystallographic Data Centre (CCDC).
#
# This work is licensed under the Creative Commons
# Attribution-NonCommercial-ShareAlike 4.0 International License.
# To view a copy of this license, visit
# http://creativecommons.org/licenses/by-nc-sa/4.0/
# or send a letter to
# Creative Commons, PO Box 1866, Mountain View, CA 94042, USA.
#
# CIF created using the CSD Python API on 29 September 2022
# The structure has been converted into the P1 space group
# The structure has a 3D framework
# The original CSD entry HURQUG is in the hexagonal crystal system
# The framework has been calculated to contain at least 10.0% void space
# The void calculation uses a probe of radius 1.32A, grid spacing 0.4
# H atom positions have been added when not included in the experimental data
# Generated hydrogen atom positions removed from atoms on special positions
#
###############################################################################

data_HURQUG
_chemical_formula_moiety         '(C24 H96 Ce6 O43)n'
_symmetry_cell_setting           triclinic
_symmetry_space_group_name_H-M   'P 1'
_symmetry_Int_Tables_number      1
_space_group_name_Hall           'P 1'
loop_
_symmetry_equiv_pos_site_id
_symmetry_equiv_pos_as_xyz
1 x,y,z
_cell_length_a                   9.4193(4)
_cell_length_b                   9.4193(4)
_cell_length_c                   17.4757(8)
_cell_angle_alpha                90
_cell_angle_beta                 90
_cell_angle_gamma                120
_cell_volume                     1342.77
loop_
_atom_site_label
_atom_site_type_symbol
_atom_site_fract_x
_atom_site_fract_y
_atom_site_fract_z
O13 O 0.00000 0.27200(50) 0.00000
Ce6 Ce 0.00000 0.00000 0.00000
H13 H 0.0502364 0.546485 0.225253
H14 H 0.0286293 0.445129 0.303522
O13_2 O 0.00000 0.27200(50) 1.00000
C11 C 0.0947(7) 0.4029(6) 0.9485(3)
C12 C 0.1849(11) 0.3511(4) 0.8949(2)
O15 O 0.2717(4) 0.4505(4) 0.8444(2)
O16 O 0.1703(4) 0.2108(4) 0.9039(2)
H11 H 0.02615 0.43123 0.92133
H12 H 0.17275 0.49649 0.97771
Ce6_2 Ce -0.00000 0.00000 1.00000
Ce7 Ce 0.33333 0.66667 0.75000
Ce6_3 Ce 0.00000 1.00000 0.00000
Ce6_4 Ce 0.00000 1.00000 1.00000
Ce1 Ce 0.66667 0.33333 0.25000
C1 C 0.3511(4) 0.1849(11) 0.1051(2)
C2 C 0.4029(6) 0.0947(7) 0.0515(3)
O1 O 0.4505(4) 0.2717(4) 0.1556(2)
O2 O 0.2720(5) 0.00000 0.00000
O3 O 0.2108(4) 0.1703(4) 0.0961(2)
O4 O 0.9899(7) 0.4371(8) 0.25000
H1 H 0.43123 0.02615 0.07867
H2 H 0.49649 0.17275 0.02229
C5 C 0.3511(4) 0.1849(11) 0.3949(2)
C6 C 0.4029(6) 0.0947(7) 0.4485(3)
O7 O 0.4505(4) 0.2717(4) 0.3444(2)
O8 O 0.2720(5) 0.00000 0.50000
O9 O 0.2108(4) 0.1703(4) 0.4039(2)
H5 H 0.43123 0.02615 0.42133
H6 H 0.49649 0.17275 0.47771
C9 C 0.8151(11) 0.1662(12) 0.1051(2)
C10 C 0.9053(7) 0.3082(9) 0.0515(3)
O12 O 0.7283(4) 0.1788(6) 0.1556(2)
O13_3 O 1.00000 0.27200(50) 0.00000
O14 O 0.8297(4) 0.0405(6) 0.0961(2)
H9 H 0.97385 0.40508 0.07867
H10 H 0.82725 0.32374 0.02229
O17 O 0.5629(8) 0.5528(11) 0.25000
O18 O 0.4472(11) 0.0101(7) 0.25000
O19 O 0.7283(4) 0.1788(6) 0.3444(2)
O20 O 0.8212(6) 0.5495(4) 0.3444(2)
O21 O 0.8212(6) 0.5495(4) 0.1556(2)
Ce4 Ce -0.00000 0.00000 0.50000
Ce6_5 Ce 1.00000 0.00000 0.00000
O2_2 O 0.2720(5) 0.00000 1.00000
O13_4 O 1.00000 0.27200(50) 1.00000
Ce6_6 Ce 1.00000 0.00000 1.00000
O2_3 O 0.2720(5) 1.00000 0.00000
O8_2 O 0.2720(5) 1.00000 0.50000
C7 C 0.3082(9) 0.9053(7) 0.5515(3)
C8 C 0.1662(12) 0.8151(11) 0.6051(2)
O10 O 0.1788(6) 0.7283(4) 0.6556(2)
O11 O 0.0405(6) 0.8297(4) 0.5961(2)
H7 H 0.40508 0.97385 0.57867
H8 H 0.32374 0.82725 0.52229
Ce4_2 Ce 0.00000 1.00000 0.50000
Ce6_7 Ce 1.00000 1.00000 0.00000
H15 H 0.443463 0.964064 0.198435
H16 H 0.480052 0.954149 0.288363
O2_4 O 0.2720(5) 1.00000 1.00000
C3 C 0.3082(9) 0.9053(7) 0.9485(3)
C4 C 0.1662(12) 0.8151(11) 0.8949(2)
O5 O 0.1788(6) 0.7283(4) 0.8444(2)
O6 O 0.0405(6) 0.8297(4) 0.9039(2)
H3 H 0.40508 0.97385 0.92133
H4 H 0.32374 0.82725 0.97771
Ce6_8 Ce 1.00000 1.00000 1.00000
Ce4_3 Ce 1.00000 0.00000 0.50000
O23 O 0.7280(5) 0.72800(50) 0.00000
O27 O 0.9595(6) 0.7892(4) 0.0961(2)
Ce4_4 Ce 1.00000 1.00000 0.50000
O23_2 O 0.7280(5) 0.72800(50) 1.00000
O25 O 0.7892(4) 0.9595(6) 0.9039(2)
O13_5 O 0.00000 0.27200(50) 0.50000
C11_2 C 0.0947(7) 0.4029(6) 0.5515(3)
C12_2 C 0.1849(11) 0.3511(4) 0.6051(2)
O15_2 O 0.2717(4) 0.4505(4) 0.6556(2)
O16_2 O 0.1703(4) 0.2108(4) 0.5961(2)
H11_2 H 0.02615 0.43123 0.57867
H12_2 H 0.17275 0.49649 0.52229
H13_2 H 0.0502364 0.546485 0.274747
H14_2 H 0.0286293 0.445129 0.196478
C9_2 C 0.8151(11) 0.1662(12) 0.3949(2)
C10_2 C 0.9053(7) 0.3082(9) 0.4485(3)
O13_6 O 1.00000 0.27200(50) 0.50000
O14_2 O 0.8297(4) 0.0405(6) 0.4039(2)
H9_2 H 0.97385 0.40508 0.42133
H10_2 H 0.82725 0.32374 0.47771
H15_2 H 0.443463 0.964064 0.301565
H16_2 H 0.480052 0.954149 0.211637
O23_3 O 0.7280(5) 0.72800(50) 0.50000
O25_2 O 0.7892(4) 0.9595(6) 0.5961(2)
O27_2 O 0.9595(6) 0.7892(4) 0.4039(2)
H13_3 H 0.546485 0.0502364 0.725253
H14_3 H 0.445129 0.0286293 0.803522
O4_2 O 0.4371(8) 0.9899(7) 0.75000
O17_2 O 0.5528(11) 0.5629(8) 0.75000
O18_2 O 0.0101(7) 0.4472(11) 0.75000
O20_2 O 0.5495(4) 0.8212(6) 0.8444(2)
O21_2 O 0.5495(4) 0.8212(6) 0.6556(2)
H15_3 H 0.964064 0.443463 0.698435
H16_3 H 0.954149 0.480052 0.788363
H13_4 H 0.546485 0.0502364 0.774747
H14_4 H 0.445129 0.0286293 0.696478
H15_4 H 0.964064 0.443463 0.801565
H16_4 H 0.954149 0.480052 0.711637
H15_5 H 0.479398 0.0359359 0.801565
H16_5 H 0.525903 0.0458513 0.711637
C11_3 C 0.6918(9) 0.5971(6) 0.0515(3)
C12_3 C 0.8338(12) 0.6489(4) 0.1051(2)
H11_3 H 0.59492 0.56877 0.07867
H12_3 H 0.67626 0.50351 0.02229
C9_3 C 0.6489(16) 0.8338(12) 0.8949(2)
C10_3 C 0.5971(11) 0.6918(9) 0.9485(3)
H9_3 H 0.56877 0.59492 0.92133
H10_3 H 0.50351 0.67626 0.97771
H17 H 0.947728 0.503757 0.737982
H18 H 0.986193 0.361797 0.710796
H15_6 H 0.479398 0.0359359 0.698435
H16_6 H 0.525903 0.0458513 0.788363
C9_4 C 0.6489(16) 0.8338(12) 0.6051(2)
C10_4 C 0.5971(11) 0.6918(9) 0.5515(3)
H9_4 H 0.56877 0.59492 0.57867
H10_4 H 0.50351 0.67626 0.52229
C11_4 C 0.6918(9) 0.5971(6) 0.4485(3)
C12_4 C 0.8338(12) 0.6489(4) 0.3949(2)
H11_4 H 0.59492 0.56877 0.42133
H12_4 H 0.67626 0.50351 0.47771
H17_2 H 0.947728 0.503757 0.762018
H18_2 H 0.986193 0.361797 0.789204
H17_3 H 0.55603 0.0522721 0.762018
H18_3 H 0.375605 0.0138075 0.789204
H13_5 H 0.949764 0.496249 0.725253
H14_5 H 0.971371 0.416499 0.803522
H17_4 H 0.55603 0.0522721 0.737982
H18_4 H 0.375605 0.0138075 0.710796
H13_6 H 0.949764 0.496249 0.774747
H14_6 H 0.971371 0.416499 0.696478
H15_7 H 0.0359359 0.479398 0.198435
H16_7 H 0.0458513 0.525903 0.288363
H17_5 H 0.503757 0.947728 0.262018
H18_5 H 0.361797 0.986193 0.289204
H15_8 H 0.0359359 0.479398 0.301565
H16_8 H 0.0458513 0.525903 0.211637
H17_6 H 0.503757 0.947728 0.237982
H18_6 H 0.361797 0.986193 0.210796
H17_7 H 0.0522721 0.55603 0.237982
H18_7 H 0.0138075 0.375605 0.210796
H13_7 H 0.496249 0.949764 0.274747
H14_7 H 0.416499 0.971371 0.196478
H17_8 H 0.0522721 0.55603 0.262018
H18_8 H 0.0138075 0.375605 0.289204
H13_8 H 0.496249 0.949764 0.225253
H14_8 H 0.416499 0.971371 0.303522
loop_
_geom_bond_atom_site_label_1
_geom_bond_atom_site_label_2
_geom_bond_site_symmetry_1
_geom_bond_site_symmetry_2
Ce6 O13 1_555 1_555
O13_2 C11 1_555 1_555
C11 C12 1_555 1_555
C12 O15 1_555 1_555
O15 Ce7 1_555 1_555
O16 C12 1_555 1_555
H11 C11 1_555 1_555
H12 C11 1_555 1_555
Ce6_2 O13_2 1_555 1_555
O16 Ce6_2 1_555 1_555
Ce1 O1 1_555 1_555
Ce6 O2 1_555 1_555
C1 C2 1_555 1_555
C2 O2 1_555 1_555
O1 C1 1_555 1_555
O3 Ce6 1_555 1_555
O4 Ce1 1_555 1_555
H1 C2 1_555 1_555
H2 C2 1_555 1_555
C5 C6 1_555 1_555
C6 O8 1_555 1_555
O7 Ce1 1_555 1_555
O9 C5 1_555 1_555
H5 C6 1_555 1_555
H6 C6 1_555 1_555
C9 C10 1_555 1_555
C10 O13_3 1_555 1_555
O12 Ce1 1_555 1_555
O14 C9 1_555 1_555
H9 C10 1_555 1_555
H10 C10 1_555 1_555
O17 Ce1 1_555 1_555
O18 Ce1 1_555 1_555
O19 Ce1 1_555 1_555
O20 Ce1 1_555 1_555
O21 Ce1 1_555 1_555
Ce4 O8 1_555 1_555
Ce6_5 O13_3 1_555 1_555
C1 O3 1_555 1_555
C5 O7 1_555 1_555
O9 Ce4 1_555 1_555
C9 O12 1_555 1_555
O14 Ce6_5 1_555 1_555
Ce6_2 O2_2 1_555 1_555
Ce6_6 O13_4 1_555 1_555
Ce6_3 O2_3 1_555 1_555
O8_2 C7 1_555 1_555
C7 C8 1_555 1_555
C8 O10 1_555 1_555
O10 Ce7 1_555 1_555
O11 C8 1_555 1_555
H7 C7 1_555 1_555
H8 C7 1_555 1_555
Ce4_2 O8_2 1_555 1_555
O11 Ce4_2 1_555 1_555
Ce6_4 O2_4 1_555 1_555
O2_4 C3 1_555 1_555
C3 C4 1_555 1_555
C4 O5 1_555 1_555
O5 Ce7 1_555 1_555
O6 Ce6_4 1_555 1_555
H3 C3 1_555 1_555
H4 C3 1_555 1_555
C4 O6 1_555 1_555
O23 Ce6_7 1_555 1_555
O27 Ce6_7 1_555 1_555
O23_2 Ce6_8 1_555 1_555
O25 Ce6_8 1_555 1_555
O13_5 C11_2 1_555 1_555
C11_2 C12_2 1_555 1_555
C12_2 O15_2 1_555 1_555
O15_2 Ce7 1_555 1_555
O16_2 C12_2 1_555 1_555
H11_2 C11_2 1_555 1_555
H12_2 C11_2 1_555 1_555
Ce4 O13_5 1_555 1_555
O16_2 Ce4 1_555 1_555
C9_2 C10_2 1_555 1_555
C10_2 O13_6 1_555 1_555
O14_2 C9_2 1_555 1_555
H9_2 C10_2 1_555 1_555
H10_2 C10_2 1_555 1_555
Ce4_3 O13_6 1_555 1_555
C9_2 O19 1_555 1_555
O14_2 Ce4_3 1_555 1_555
O23_3 Ce4_4 1_555 1_555
O25_2 Ce4_4 1_555 1_555
O27_2 Ce4_4 1_555 1_555
O4_2 Ce7 1_555 1_555
O17_2 Ce7 1_555 1_555
O18_2 Ce7 1_555 1_555
O20_2 Ce7 1_555 1_555
O21_2 Ce7 1_555 1_555
O23 C11_3 1_555 1_555
C11_3 C12_3 1_555 1_555
C12_3 O21 1_555 1_555
O27 C12_3 1_555 1_555
H11_3 C11_3 1_555 1_555
H12_3 C11_3 1_555 1_555
C9_3 C10_3 1_555 1_555
C10_3 O23_2 1_555 1_555
O25 C9_3 1_555 1_555
H9_3 C10_3 1_555 1_555
H10_3 C10_3 1_555 1_555
C9_3 O20_2 1_555 1_555
C9_4 C10_4 1_555 1_555
C10_4 O23_3 1_555 1_555
O23_3 C11_4 1_555 1_555
O25_2 C9_4 1_555 1_555
H9_4 C10_4 1_555 1_555
H10_4 C10_4 1_555 1_555
C11_4 C12_4 1_555 1_555
C12_4 O20 1_555 1_555
O27_2 C12_4 1_555 1_555
H11_4 C11_4 1_555 1_555
H12_4 C11_4 1_555 1_555
C9_4 O21_2 1_555 1_555

#END
