
###############################################################################
#
# This file contains modified crystal structure data generated from the
# MOF subset of the Cambridge Structural Database (CSD) v543 
# hosted by the Cambridge Crystallographic Data Centre (CCDC).
#
# This work is licensed under the Creative Commons
# Attribution-NonCommercial-ShareAlike 4.0 International License.
# To view a copy of this license, visit
# http://creativecommons.org/licenses/by-nc-sa/4.0/
# or send a letter to
# Creative Commons, PO Box 1866, Mountain View, CA 94042, USA.
#
# CIF created using the CSD Python API on 29 September 2022
# The structure has been converted into the P1 space group
# The structure has a 3D framework
# The original CSD entry HUSFAF is in the monoclinic crystal system
# The framework has been calculated to contain at least 10.0% void space
# The void calculation uses a probe of radius 1.32A, grid spacing 0.4
# The framework is charged, counterions have been retained in the structure
#
###############################################################################

data_HUSFAF
_chemical_formula_moiety         '(C232 H96 Dy14 N8 O88 6-)n'
_symmetry_cell_setting           triclinic
_symmetry_space_group_name_H-M   'P 1'
_symmetry_Int_Tables_number      1
_space_group_name_Hall           'P 1'
loop_
_symmetry_equiv_pos_site_id
_symmetry_equiv_pos_as_xyz
1 x,y,z
_cell_length_a                   18.994(10)
_cell_length_b                   23.272(10)
_cell_length_c                   21.381(9)
_cell_angle_alpha                90
_cell_angle_beta                 102.063(19)
_cell_angle_gamma                90
_cell_volume                     9242.32
loop_
_atom_site_label
_atom_site_type_symbol
_atom_site_fract_x
_atom_site_fract_y
_atom_site_fract_z
Dy1 Dy 0.41677(3) 0.00424(2) 0.04143(2)
O6 O 0.2947(5) 0.0444(5) 0.0275(4)
O8 O 0.3887(5) 0.0133(4) 0.1467(4)
O15 O 0.0089(7) 0.0747(8) 0.6843(7)
Dy5 Dy 0.58323(3) 0.00424(2) 0.45857(2)
Dy13 Dy 0.0000 0.15614(4) 0.7500
O25 O 0.4597(5) 0.0989(4) 0.0709(4)
O27 O 0.5333(5) 0.0629(4) 0.0135(4)
C16 C 0.0875(9) 0.0359(8) 0.8962(7)
C17 C 0.0562(9) 0.0769(8) 0.8423(8)
C18 C 0.1586(7) 0.0368(7) 0.9246(7)
H8 H 0.1890 0.0641 0.9126
O4 O 0.0976(6) 0.1108(5) 0.8233(5)
O38 O 0.3903(5) 0.0464(4) 0.9388(4)
C1 C 0.0810(10) 0.7468(7) 0.1126(8)
C2 C 0.0449(11) 0.6950(7) 0.1006(9)
H1 H 0.0108 0.6857 0.1245
C3 C 0.0569(7) 0.6570(5) 0.0556(6)
C4 C 0.0152(7) 0.6030(5) 0.0474(6)
C5 C 0.1108(9) 0.6696(7) 0.0219(7)
C6 C 0.1458(10) 0.7219(7) 0.0341(8)
H3 H 0.1822 0.7301 0.0124
C7 C 0.1304(8) 0.7628(6) 0.0764(7)
C8 C 0.1654(8) 0.8202(6) 0.0832(6)
C9 C 0.2146(7) 0.8355(5) 0.1386(5)
H4 H 0.2300 0.8085 0.1705
C10 C 0.2403(7) 0.8911(6) 0.1459(6)
C11 C 0.1695(7) 0.9140(6) 0.0419(6)
C12 C 0.1459(7) 0.8594(6) 0.0356(6)
C21 C 0.3754(7) 0.9608(5) 0.1520(5)
C22 C 0.3488(7) 0.9409(6) 0.2089(5)
C23 C 0.2872(7) 0.9075(6) 0.2066(6)
C24 C 0.2694(8) 0.8914(6) 0.2631(6)
H9 H 0.2295 0.8679 0.2614
C25 C 0.3074(7) 0.9082(6) 0.3217(6)
H10 H 0.2921 0.8977 0.3587
C26 C 0.3684(7) 0.9407(6) 0.3251(6)
C27 C 0.3892(7) 0.9574(6) 0.2686(5)
H11 H 0.4302 0.9798 0.2708
C28 C 0.4151(8) 0.9619(6) 0.3887(6)
Dy2 Dy -0.0000 0.84386(4) 0.2500
N1 N 0.2174(7) 0.9323(5) 0.0987(6)
H12 H 0.2317 0.9673 0.1037
O2 O 0.0333(5) 0.5629(4) 0.0135(4)
O7 O 0.3833(5) 0.9253(4) 0.1109(4)
O9 O 0.4749(5) 0.9830(5) 0.3868(4)
O10 O 0.3903(5) 0.9536(4) 0.4388(4)
C29 C 0.0548(16) 0.806(2) 0.1564(13)
O12 O 0.0953(8) 0.8031(10) 0.2071(9)
H19 H 0.0089 0.9953 0.5989
O13 O 0.0403(5) 0.5989(4) 0.4291(4)
O23 O 0.028(2) 0.7760(9) 0.3254(10)
Dy7 Dy 0.08323(3) 0.50424(2) 0.45857(2)
Dy9 Dy 0.41677(3) 0.99576(2) 0.54143(2)
O31 O 0.0089(7) 0.9253(8) 0.1843(7)
O34 O 0.0976(6) 0.8892(5) 0.3233(5)
O36 O 0.5251(5) 0.9830(5) 0.1132(4)
H2 H 0.1227 0.6438 0.9925
H5 H 0.1154 0.8482 0.9977
C13 C 0.1423(8) 0.9560(7) 0.9928(7)
C14 C 0.0697(9) 0.9561(9) 0.9642(8)
H6 H 0.0399 0.9287 0.9768
C15 C 0.0404(9) 0.9950(7) 0.9181(9)
C19 C 0.1857(8) 0.9968(6) 0.9716(7)
C20 C 0.2670(7) 0.9990(6) 0.9976(6)
O5 O 0.3047(5) 0.9574(4) 0.9852(5)
Dy10 Dy 0.08323(3) 0.49576(2) 0.95857(2)
O29 O 0.4667(5) 0.9371(4) 0.9865(4)
C45 C 0.9125(9) 0.0359(8) 0.6038(7)
C46 C 0.9438(9) 0.0769(8) 0.6577(8)
C47 C 0.8414(7) 0.0368(7) 0.5754(7)
H20 H 0.8110 0.0641 0.5874
O16 O 0.9024(6) 0.1108(5) 0.6767(5)
O18 O 0.7053(5) 0.0444(5) 0.4725(4)
O20 O 0.6113(5) 0.0133(4) 0.3533(4)
Dy13_2 Dy 1.0000 0.15614(4) 0.7500
O26 O 0.5403(5) 0.0989(4) 0.4291(4)
O28 O 0.4667(5) 0.0629(4) 0.4865(4)
O37 O 0.6097(5) 0.0464(4) 0.5612(4)
O3 O 0.9911(7) 0.0747(8) 0.8157(7)
Dy2_2 Dy 1.0000 0.84386(4) 0.2500
O1 O 0.9597(5) 0.5989(4) 0.0709(4)
O11 O 0.972(2) 0.7760(9) 0.1746(10)
C30 C 0.9190(10) 0.7468(7) 0.3874(8)
C31 C 0.9551(11) 0.6950(7) 0.3994(9)
H13 H 0.9892 0.6857 0.3755
C32 C 0.9431(7) 0.6570(5) 0.4444(6)
C33 C 0.9848(7) 0.6030(5) 0.4526(6)
C34 C 0.8892(9) 0.6696(7) 0.4781(7)
H14 H 0.8773 0.6438 0.5075
C35 C 0.8542(10) 0.7219(7) 0.4659(8)
H15 H 0.8178 0.7301 0.4876
C36 C 0.8696(8) 0.7628(6) 0.4236(7)
C37 C 0.8346(8) 0.8202(6) 0.4168(6)
C38 C 0.7854(7) 0.8355(5) 0.3614(5)
H16 H 0.7700 0.8085 0.3295
C39 C 0.7597(7) 0.8911(6) 0.3541(6)
C40 C 0.8305(7) 0.9140(6) 0.4581(6)
C41 C 0.8541(7) 0.8594(6) 0.4644(6)
H17 H 0.8846 0.8482 0.5023
C42 C 0.8577(8) 0.9560(7) 0.5072(7)
C43 C 0.9303(9) 0.9561(9) 0.5358(8)
H18 H 0.9601 0.9287 0.5232
C44 C 0.9596(9) 0.9950(7) 0.5819(9)
C48 C 0.8143(8) 0.9968(6) 0.5284(7)
C49 C 0.7330(7) 0.9990(6) 0.5024(6)
C50 C 0.6246(7) 0.9608(5) 0.3480(5)
C51 C 0.6512(7) 0.9409(6) 0.2911(5)
C52 C 0.7128(7) 0.9075(6) 0.2934(6)
C53 C 0.7306(8) 0.8914(6) 0.2369(6)
H21 H 0.7705 0.8679 0.2386
C54 C 0.6926(7) 0.9082(6) 0.1783(6)
H22 H 0.7079 0.8977 0.1413
C55 C 0.6316(7) 0.9407(6) 0.1749(6)
C56 C 0.6108(7) 0.9574(6) 0.2314(5)
H23 H 0.5698 0.9798 0.2292
C57 C 0.5849(8) 0.9619(6) 0.1113(6)
N2 N 0.7826(7) 0.9323(5) 0.4013(6)
H24 H 0.7683 0.9673 0.3963
O14 O 0.9667(5) 0.5629(4) 0.4865(4)
O17 O 0.6953(5) 0.9574(4) 0.5148(5)
O19 O 0.6167(5) 0.9253(4) 0.3891(4)
O22 O 0.6097(5) 0.9536(4) 0.0612(4)
C58 C 0.9452(16) 0.806(2) 0.3436(13)
O24 O 0.9047(8) 0.8031(10) 0.2929(9)
Dy6 Dy 0.91677(3) 0.50424(2) 0.04143(2)
Dy11 Dy 0.91677(3) 0.49576(2) 0.54143(2)
O30 O 0.5333(5) 0.9371(4) 0.5135(4)
O32 O 0.9911(7) 0.9253(8) 0.3157(7)
O33 O 0.9024(6) 0.8892(5) 0.1767(5)
H7 H 0.9911 0.9953 0.9011
Dy8 Dy 0.58323(3) 0.99576(2) 0.95857(2)
O36_2 O 0.0251(5) 0.4830(5) 0.1132(4)
C1_2 C 0.5810(10) 0.2468(7) 0.1126(8)
C2_2 C 0.5449(11) 0.1950(7) 0.1006(9)
H1_2 H 0.5108 0.1857 0.1245
C3_2 C 0.5569(7) 0.1570(5) 0.0556(6)
C4_2 C 0.5152(7) 0.1030(5) 0.0474(6)
C5_2 C 0.6108(9) 0.1696(7) 0.0219(7)
C6_2 C 0.6458(10) 0.2219(7) 0.0341(8)
H3_2 H 0.6822 0.2301 0.0124
C7_2 C 0.6304(8) 0.2628(6) 0.0764(7)
C8_2 C 0.6654(8) 0.3202(6) 0.0832(6)
C9_2 C 0.7146(7) 0.3355(5) 0.1386(5)
H4_2 H 0.7300 0.3085 0.1705
C10_2 C 0.7403(7) 0.3911(6) 0.1459(6)
C11_2 C 0.6695(7) 0.4140(6) 0.0419(6)
C12_2 C 0.6459(7) 0.3594(6) 0.0356(6)
C21_2 C 0.8754(7) 0.4608(5) 0.1520(5)
C22_2 C 0.8488(7) 0.4409(6) 0.2089(5)
C23_2 C 0.7872(7) 0.4075(6) 0.2066(6)
C24_2 C 0.7694(8) 0.3914(6) 0.2631(6)
H9_2 H 0.7295 0.3679 0.2614
C25_2 C 0.8074(7) 0.4082(6) 0.3217(6)
H10_2 H 0.7921 0.3977 0.3587
C26_2 C 0.8684(7) 0.4407(6) 0.3251(6)
C27_2 C 0.8892(7) 0.4574(6) 0.2686(5)
H11_2 H 0.9302 0.4798 0.2708
C28_2 C 0.9151(8) 0.4619(6) 0.3887(6)
Dy2_3 Dy 0.5000 0.34386(4) 0.2500
N1_2 N 0.7174(7) 0.4323(5) 0.0987(6)
H12_2 H 0.7317 0.4673 0.1037
O6_2 O 0.7947(5) 0.5444(5) 0.0275(4)
O7_2 O 0.8833(5) 0.4253(4) 0.1109(4)
O8_2 O 0.8887(5) 0.5133(4) 0.1467(4)
O9_2 O 0.9749(5) 0.4830(5) 0.3868(4)
O10_2 O 0.8903(5) 0.4536(4) 0.4388(4)
C29_2 C 0.5548(16) 0.306(2) 0.1564(13)
O11_2 O 0.472(2) 0.2760(9) 0.1746(10)
O12_2 O 0.5953(8) 0.3031(10) 0.2071(9)
C30_2 C 0.4190(10) 0.2468(7) 0.3874(8)
C31_2 C 0.4551(11) 0.1950(7) 0.3994(9)
H13_2 H 0.4892 0.1857 0.3755
C32_2 C 0.4431(7) 0.1570(5) 0.4444(6)
C33_2 C 0.4848(7) 0.1030(5) 0.4526(6)
C34_2 C 0.3892(9) 0.1696(7) 0.4781(7)
H14_2 H 0.3773 0.1438 0.5075
C35_2 C 0.3542(10) 0.2219(7) 0.4659(8)
H15_2 H 0.3178 0.2301 0.4876
C36_2 C 0.3696(8) 0.2628(6) 0.4236(7)
C37_2 C 0.3346(8) 0.3202(6) 0.4168(6)
C38_2 C 0.2854(7) 0.3355(5) 0.3614(5)
H16_2 H 0.2700 0.3085 0.3295
C39_2 C 0.2597(7) 0.3911(6) 0.3541(6)
C40_2 C 0.3305(7) 0.4140(6) 0.4581(6)
C41_2 C 0.3541(7) 0.3594(6) 0.4644(6)
H17_2 H 0.3846 0.3482 0.5023
C42_2 C 0.3577(8) 0.4560(7) 0.5072(7)
C43_2 C 0.4303(9) 0.4561(9) 0.5358(8)
H18_2 H 0.4601 0.4287 0.5232
C44_2 C 0.4596(9) 0.4950(7) 0.5819(9)
H19_2 H 0.5089 0.4953 0.5989
C45_2 C 0.4125(9) 0.5359(8) 0.6038(7)
C46_2 C 0.4438(9) 0.5769(8) 0.6577(8)
C47_2 C 0.3414(7) 0.5368(7) 0.5754(7)
H20_2 H 0.3110 0.5641 0.5874
C48_2 C 0.3143(8) 0.4968(6) 0.5284(7)
C49_2 C 0.2330(7) 0.4990(6) 0.5024(6)
C50_2 C 0.1246(7) 0.4608(5) 0.3480(5)
C51_2 C 0.1512(7) 0.4409(6) 0.2911(5)
C52_2 C 0.2128(7) 0.4075(6) 0.2934(6)
C53_2 C 0.2306(8) 0.3914(6) 0.2369(6)
H21_2 H 0.2705 0.3679 0.2386
C54_2 C 0.1926(7) 0.4082(6) 0.1783(6)
H22_2 H 0.2079 0.3977 0.1413
C55_2 C 0.1316(7) 0.4407(6) 0.1749(6)
C56_2 C 0.1108(7) 0.4574(6) 0.2314(5)
H23_2 H 0.0698 0.4798 0.2292
C57_2 C 0.0849(8) 0.4619(6) 0.1113(6)
N2_2 N 0.2826(7) 0.4323(5) 0.4013(6)
H24_2 H 0.2683 0.4673 0.3963
O15_2 O 0.5089(7) 0.5747(8) 0.6843(7)
O16_2 O 0.4024(6) 0.6108(5) 0.6767(5)
O17_2 O 0.1953(5) 0.4574(4) 0.5148(5)
O18_2 O 0.2053(5) 0.5444(5) 0.4725(4)
O19_2 O 0.1167(5) 0.4253(4) 0.3891(4)
O20_2 O 0.1113(5) 0.5133(4) 0.3533(4)
O22_2 O 0.1097(5) 0.4536(4) 0.0612(4)
C58_2 C 0.4452(16) 0.306(2) 0.3436(13)
O23_2 O 0.528(2) 0.2760(9) 0.3254(10)
O24_2 O 0.4047(8) 0.3031(10) 0.2929(9)
Dy13_3 Dy 0.5000 0.65614(4) 0.7500
O30_2 O 0.0333(5) 0.4371(4) 0.5135(4)
O31_2 O 0.5089(7) 0.4253(8) 0.1843(7)
O32_2 O 0.4911(7) 0.4253(8) 0.3157(7)
O33_2 O 0.4024(6) 0.3892(5) 0.1767(5)
O34_2 O 0.5976(6) 0.3892(5) 0.3233(5)
O37_2 O 0.1097(5) 0.5464(4) 0.5612(4)
H2_2 H 0.6227 0.1438 0.9925
H5_2 H 0.6154 0.3482 0.9977
C13_2 C 0.6423(8) 0.4560(7) 0.9928(7)
C14_2 C 0.5697(9) 0.4561(9) 0.9642(8)
H6_2 H 0.5399 0.4287 0.9768
C15_2 C 0.5404(9) 0.4950(7) 0.9181(9)
H7_2 H 0.4911 0.4953 0.9011
C16_2 C 0.5875(9) 0.5359(8) 0.8962(7)
C17_2 C 0.5562(9) 0.5769(8) 0.8423(8)
C18_2 C 0.6586(7) 0.5368(7) 0.9246(7)
H8_2 H 0.6890 0.5641 0.9126
C19_2 C 0.6857(8) 0.4968(6) 0.9716(7)
C20_2 C 0.7670(7) 0.4990(6) 0.9976(6)
O3_2 O 0.4911(7) 0.5747(8) 0.8157(7)
O4_2 O 0.5976(6) 0.6108(5) 0.8233(5)
O5_2 O 0.8047(5) 0.4574(4) 0.9852(5)
O29_2 O 0.9667(5) 0.4371(4) 0.9865(4)
O38_2 O 0.8903(5) 0.5464(4) 0.9388(4)
H7_3 H 0.0089 0.0047 0.0989
O1_2 O 0.0403(5) 0.4011(4) 0.9291(4)
O11_3 O 0.028(2) 0.2240(9) 0.8254(10)
C30_3 C 0.0810(10) 0.2532(7) 0.6126(8)
C31_3 C 0.0449(11) 0.3050(7) 0.6006(9)
H13_3 H 0.0108 0.3143 0.6245
C32_3 C 0.0569(7) 0.3430(5) 0.5556(6)
C33_3 C 0.0152(7) 0.3970(5) 0.5474(6)
C34_3 C 0.1108(9) 0.3304(7) 0.5219(7)
H14_3 H 0.1227 0.3562 0.4925
C35_3 C 0.1458(10) 0.2781(7) 0.5341(8)
H15_3 H 0.1822 0.2699 0.5124
C36_3 C 0.1304(8) 0.2372(6) 0.5764(7)
C37_3 C 0.1654(8) 0.1798(6) 0.5832(6)
C38_3 C 0.2146(7) 0.1645(5) 0.6386(5)
H16_3 H 0.2300 0.1915 0.6705
C39_3 C 0.2403(7) 0.1089(6) 0.6459(6)
C40_3 C 0.1695(7) 0.0860(6) 0.5419(6)
C41_3 C 0.1459(7) 0.1406(6) 0.5356(6)
H17_3 H 0.1154 0.1518 0.4977
C42_3 C 0.1423(8) 0.0440(7) 0.4928(7)
C43_3 C 0.0697(9) 0.0439(9) 0.4642(8)
H18_3 H 0.0399 0.0713 0.4768
C44_3 C 0.0404(9) 0.0050(7) 0.4181(9)
C48_3 C 0.1857(8) 0.0032(6) 0.4716(7)
C49_3 C 0.2670(7) 0.0010(6) 0.4976(6)
C50_3 C 0.3754(7) 0.0392(5) 0.6520(5)
C51_3 C 0.3488(7) 0.0591(6) 0.7089(5)
C52_3 C 0.2872(7) 0.0925(6) 0.7066(6)
C53_3 C 0.2694(8) 0.1086(6) 0.7631(6)
H21_3 H 0.2295 0.1321 0.7614
C54_3 C 0.3074(7) 0.0918(6) 0.8217(6)
H22_3 H 0.2921 0.1023 0.8587
C55_3 C 0.3684(7) 0.0593(6) 0.8251(6)
C56_3 C 0.3892(7) 0.0426(6) 0.7686(5)
H23_3 H 0.4302 0.0202 0.7708
C57_3 C 0.4151(8) 0.0381(6) 0.8887(6)
N2_3 N 0.2174(7) 0.0677(5) 0.5987(6)
H24_3 H 0.2317 0.0327 0.6037
O17_3 O 0.3047(5) 0.0426(4) 0.4852(5)
O19_3 O 0.3833(5) 0.0747(4) 0.6109(4)
O21 O 0.4749(5) 0.0170(5) 0.8868(4)
C58_3 C 0.0548(16) 0.194(2) 0.6564(13)
O24_3 O 0.0953(8) 0.1969(10) 0.7071(9)
O35 O 0.5251(5) 0.0170(5) 0.6132(4)
C45_3 C 0.0875(9) 0.9641(8) 0.3962(7)
C46_3 C 0.0562(9) 0.9231(8) 0.3423(8)
C47_3 C 0.1586(7) 0.9632(7) 0.4246(7)
H20_3 H 0.1890 0.9359 0.4126
O18_3 O 0.2947(5) 0.9556(5) 0.5275(4)
O20_3 O 0.3887(5) 0.9867(4) 0.6467(4)
O26_2 O 0.4597(5) 0.9011(4) 0.5709(4)
H2_3 H 0.8773 0.3562 0.0075
H5_3 H 0.8846 0.1518 0.0023
C13_3 C 0.8577(8) 0.0440(7) 0.0072(7)
C14_3 C 0.9303(9) 0.0439(9) 0.0358(8)
H6_3 H 0.9601 0.0713 0.0232
C15_3 C 0.9596(9) 0.0050(7) 0.0819(9)
C19_3 C 0.8143(8) 0.0032(6) 0.0284(7)
C20_3 C 0.7330(7) 0.0010(6) 0.0024(6)
O5_3 O 0.6953(5) 0.0426(4) 0.0148(5)
C1_3 C 0.9190(10) 0.2532(7) 0.8874(8)
C2_3 C 0.9551(11) 0.3050(7) 0.8994(9)
H1_3 H 0.9892 0.3143 0.8755
C3_3 C 0.9431(7) 0.3430(5) 0.9444(6)
C4_3 C 0.9848(7) 0.3970(5) 0.9526(6)
C5_3 C 0.8892(9) 0.3304(7) 0.9781(7)
C6_3 C 0.8542(10) 0.2781(7) 0.9659(8)
H3_3 H 0.8178 0.2699 0.9876
C7_3 C 0.8696(8) 0.2372(6) 0.9236(7)
C8_3 C 0.8346(8) 0.1798(6) 0.9168(6)
C9_3 C 0.7854(7) 0.1645(5) 0.8614(5)
H4_3 H 0.7700 0.1915 0.8295
C10_3 C 0.7597(7) 0.1089(6) 0.8541(6)
C11_3 C 0.8305(7) 0.0860(6) 0.9581(6)
C12_3 C 0.8541(7) 0.1406(6) 0.9644(6)
C21_3 C 0.6246(7) 0.0392(5) 0.8480(5)
C22_3 C 0.6512(7) 0.0591(6) 0.7911(5)
C23_3 C 0.7128(7) 0.0925(6) 0.7934(6)
C24_3 C 0.7306(8) 0.1086(6) 0.7369(6)
H9_3 H 0.7705 0.1321 0.7386
C25_3 C 0.6926(7) 0.0918(6) 0.6783(6)
H10_3 H 0.7079 0.1023 0.6413
C26_3 C 0.6316(7) 0.0593(6) 0.6749(6)
C27_3 C 0.6108(7) 0.0426(6) 0.7314(5)
H11_3 H 0.5698 0.0202 0.7292
C28_3 C 0.5849(8) 0.0381(6) 0.6113(6)
N1_3 N 0.7826(7) 0.0677(5) 0.9013(6)
H12_3 H 0.7683 0.0327 0.8963
O7_3 O 0.6167(5) 0.0747(4) 0.8891(4)
C29_3 C 0.9452(16) 0.194(2) 0.8436(13)
O12_3 O 0.9047(8) 0.1969(10) 0.7929(9)
H19_3 H 0.9911 0.0047 0.4011
O13_2 O 0.9597(5) 0.4011(4) 0.5709(4)
O23_3 O 0.972(2) 0.2240(9) 0.6746(10)
C16_3 C 0.9125(9) 0.9641(8) 0.1038(7)
C17_3 C 0.9438(9) 0.9231(8) 0.1577(8)
C18_3 C 0.8414(7) 0.9632(7) 0.0754(7)
H8_3 H 0.8110 0.9359 0.0874
O6_3 O 0.7053(5) 0.9556(5) 0.9725(4)
O8_3 O 0.6113(5) 0.9867(4) 0.8533(4)
O25_2 O 0.5403(5) 0.9011(4) 0.9291(4)
O35_2 O 0.0251(5) 0.5170(5) 0.6132(4)
H2_4 H 0.3773 0.8562 0.0075
H5_4 H 0.3846 0.6518 0.0023
C13_4 C 0.3577(8) 0.5440(7) 0.0072(7)
C14_4 C 0.4303(9) 0.5439(9) 0.0358(8)
H6_4 H 0.4601 0.5713 0.0232
C15_4 C 0.4596(9) 0.5050(7) 0.0819(9)
H7_4 H 0.5089 0.5047 0.0989
C16_4 C 0.4125(9) 0.4641(8) 0.1038(7)
C17_4 C 0.4438(9) 0.4231(8) 0.1577(8)
C18_4 C 0.3414(7) 0.4632(7) 0.0754(7)
H8_4 H 0.3110 0.4359 0.0874
C19_4 C 0.3143(8) 0.5032(6) 0.0284(7)
C20_4 C 0.2330(7) 0.5010(6) 0.0024(6)
O5_4 O 0.1953(5) 0.5426(4) 0.0148(5)
C1_4 C 0.4190(10) 0.7532(7) 0.8874(8)
C2_4 C 0.4551(11) 0.8050(7) 0.8994(9)
H1_4 H 0.4892 0.8143 0.8755
C3_4 C 0.4431(7) 0.8430(5) 0.9444(6)
C4_4 C 0.4848(7) 0.8970(5) 0.9526(6)
C5_4 C 0.3892(9) 0.8304(7) 0.9781(7)
C6_4 C 0.3542(10) 0.7781(7) 0.9659(8)
H3_4 H 0.3178 0.7699 0.9876
C7_4 C 0.3696(8) 0.7372(6) 0.9236(7)
C8_4 C 0.3346(8) 0.6798(6) 0.9168(6)
C9_4 C 0.2854(7) 0.6645(5) 0.8614(5)
H4_4 H 0.2700 0.6915 0.8295
C10_4 C 0.2597(7) 0.6089(6) 0.8541(6)
C11_4 C 0.3305(7) 0.5860(6) 0.9581(6)
C12_4 C 0.3541(7) 0.6406(6) 0.9644(6)
C21_4 C 0.1246(7) 0.5392(5) 0.8480(5)
C22_4 C 0.1512(7) 0.5591(6) 0.7911(5)
C23_4 C 0.2128(7) 0.5925(6) 0.7934(6)
C24_4 C 0.2306(8) 0.6086(6) 0.7369(6)
H9_4 H 0.2705 0.6321 0.7386
C25_4 C 0.1926(7) 0.5918(6) 0.6783(6)
H10_4 H 0.2079 0.6023 0.6413
C26_4 C 0.1316(7) 0.5593(6) 0.6749(6)
C27_4 C 0.1108(7) 0.5426(6) 0.7314(5)
H11_4 H 0.0698 0.5202 0.7292
C28_4 C 0.0849(8) 0.5381(6) 0.6113(6)
N1_4 N 0.2826(7) 0.5677(5) 0.9013(6)
H12_4 H 0.2683 0.5327 0.8963
O6_4 O 0.2053(5) 0.4556(5) 0.9725(4)
O7_4 O 0.1167(5) 0.5747(4) 0.8891(4)
O8_4 O 0.1113(5) 0.4867(4) 0.8533(4)
C29_4 C 0.4452(16) 0.694(2) 0.8436(13)
O11_4 O 0.528(2) 0.7240(9) 0.8254(10)
O12_4 O 0.4047(8) 0.6969(10) 0.7929(9)
C30_4 C 0.5810(10) 0.7532(7) 0.6126(8)
C31_4 C 0.5449(11) 0.8050(7) 0.6006(9)
H13_4 H 0.5108 0.8143 0.6245
C32_4 C 0.5569(7) 0.8430(5) 0.5556(6)
C33_4 C 0.5152(7) 0.8970(5) 0.5474(6)
C34_4 C 0.6108(9) 0.8304(7) 0.5219(7)
H14_4 H 0.6227 0.8562 0.4925
C35_4 C 0.6458(10) 0.7781(7) 0.5341(8)
H15_4 H 0.6822 0.7699 0.5124
C36_4 C 0.6304(8) 0.7372(6) 0.5764(7)
C37_4 C 0.6654(8) 0.6798(6) 0.5832(6)
C38_4 C 0.7146(7) 0.6645(5) 0.6386(5)
H16_4 H 0.7300 0.6915 0.6705
C39_4 C 0.7403(7) 0.6089(6) 0.6459(6)
C40_4 C 0.6695(7) 0.5860(6) 0.5419(6)
C41_4 C 0.6459(7) 0.6406(6) 0.5356(6)
H17_4 H 0.6154 0.6518 0.4977
C42_4 C 0.6423(8) 0.5440(7) 0.4928(7)
C43_4 C 0.5697(9) 0.5439(9) 0.4642(8)
H18_4 H 0.5399 0.5713 0.4768
C44_4 C 0.5404(9) 0.5050(7) 0.4181(9)
H19_4 H 0.4911 0.5047 0.4011
C45_4 C 0.5875(9) 0.4641(8) 0.3962(7)
C46_4 C 0.5562(9) 0.4231(8) 0.3423(8)
C47_4 C 0.6586(7) 0.4632(7) 0.4246(7)
H20_4 H 0.6890 0.4359 0.4126
C48_4 C 0.6857(8) 0.5032(6) 0.4716(7)
C49_4 C 0.7670(7) 0.5010(6) 0.4976(6)
C50_4 C 0.8754(7) 0.5392(5) 0.6520(5)
C51_4 C 0.8488(7) 0.5591(6) 0.7089(5)
C52_4 C 0.7872(7) 0.5925(6) 0.7066(6)
C53_4 C 0.7694(8) 0.6086(6) 0.7631(6)
H21_4 H 0.7295 0.6321 0.7614
C54_4 C 0.8074(7) 0.5918(6) 0.8217(6)
H22_4 H 0.7921 0.6023 0.8587
C55_4 C 0.8684(7) 0.5593(6) 0.8251(6)
C56_4 C 0.8892(7) 0.5426(6) 0.7686(5)
H23_4 H 0.9302 0.5202 0.7708
C57_4 C 0.9151(8) 0.5381(6) 0.8887(6)
N2_4 N 0.7174(7) 0.5677(5) 0.5987(6)
H24_4 H 0.7317 0.5327 0.6037
O17_4 O 0.8047(5) 0.5426(4) 0.4852(5)
O18_4 O 0.7947(5) 0.4556(5) 0.5275(4)
O19_4 O 0.8833(5) 0.5747(4) 0.6109(4)
O20_4 O 0.8887(5) 0.4867(4) 0.6467(4)
O21_2 O 0.9749(5) 0.5170(5) 0.8868(4)
C58_4 C 0.5548(16) 0.694(2) 0.6564(13)
O23_4 O 0.472(2) 0.7240(9) 0.6746(10)
O24_4 O 0.5953(8) 0.6969(10) 0.7071(9)
loop_
_geom_bond_atom_site_label_1
_geom_bond_atom_site_label_2
_geom_bond_site_symmetry_1
_geom_bond_site_symmetry_2
Dy13 O15 1_555 1_555
O25 Dy1 1_555 1_555
O27 Dy1 1_555 1_555
Dy1 O6 1_555 1_555
Dy1 O8 1_555 1_555
C17 C16 1_555 1_555
C18 C16 1_555 1_555
H8 C18 1_555 1_555
O4 C17 1_555 1_555
O4 Dy13 1_555 1_555
C1 C2 1_555 1_555
C2 H1 1_555 1_555
C3 C2 1_555 1_555
C4 C3 1_555 1_555
C5 C3 1_555 1_555
C6 C5 1_555 1_555
H3 C6 1_555 1_555
C7 C1 1_555 1_555
C8 C7 1_555 1_555
C9 C8 1_555 1_555
H4 C9 1_555 1_555
C10 C9 1_555 1_555
C11 C12 1_555 1_555
C12 C8 1_555 1_555
C21 C22 1_555 1_555
C22 C23 1_555 1_555
C23 C10 1_555 1_555
C24 C23 1_555 1_555
H9 C24 1_555 1_555
C25 C24 1_555 1_555
H10 C25 1_555 1_555
C26 C25 1_555 1_555
C27 C22 1_555 1_555
H11 C27 1_555 1_555
C28 C26 1_555 1_555
N1 C10 1_555 1_555
H12 N1 1_555 1_555
O2 C4 1_555 1_555
O7 C21 1_555 1_555
O9 C28 1_555 1_555
O10 C28 1_555 1_555
C29 C1 1_555 1_555
O12 Dy2 1_555 1_555
O23 Dy2 1_555 1_555
Dy7 O13 1_555 1_555
Dy9 O10 1_555 1_555
O31 Dy2 1_555 1_555
O34 Dy2 1_555 1_555
C6 C7 1_555 1_555
C11 N1 1_555 1_555
C26 C27 1_555 1_555
C29 O12 1_555 1_555
C14 C13 1_555 1_555
H6 C14 1_555 1_555
C15 C14 1_555 1_555
C19 C13 1_555 1_555
C20 C19 1_555 1_555
O5 C20 1_555 1_555
C46 C45 1_555 1_555
C47 C45 1_555 1_555
H20 C47 1_555 1_555
O16 C46 1_555 1_555
O26 Dy5 1_555 1_555
O28 Dy5 1_555 1_555
O37 Dy5 1_555 1_555
Dy5 O18 1_555 1_555
Dy5 O20 1_555 1_555
O16 Dy13_2 1_555 1_555
Dy13_2 O3 1_555 1_555
Dy2_2 O11 1_555 1_555
C30 C31 1_555 1_555
C31 H13 1_555 1_555
C32 C31 1_555 1_555
C33 C32 1_555 1_555
C34 C32 1_555 1_555
H14 C34 1_555 1_555
C35 C34 1_555 1_555
H15 C35 1_555 1_555
C36 C30 1_555 1_555
C37 C36 1_555 1_555
C38 C37 1_555 1_555
H16 C38 1_555 1_555
C39 C38 1_555 1_555
C40 C41 1_555 1_555
C41 C37 1_555 1_555
H17 C41 1_555 1_555
C42 C40 1_555 1_555
C43 C42 1_555 1_555
H18 C43 1_555 1_555
C44 C43 1_555 1_555
C48 C42 1_555 1_555
C49 C48 1_555 1_555
C50 C51 1_555 1_555
C51 C52 1_555 1_555
C52 C39 1_555 1_555
C53 C52 1_555 1_555
H21 C53 1_555 1_555
C54 C53 1_555 1_555
H22 C54 1_555 1_555
C55 C54 1_555 1_555
C56 C51 1_555 1_555
H23 C56 1_555 1_555
C57 C55 1_555 1_555
N2 C39 1_555 1_555
H24 N2 1_555 1_555
O14 C33 1_555 1_555
O17 C49 1_555 1_555
O19 C50 1_555 1_555
O36 C57 1_555 1_555
O22 C57 1_555 1_555
C58 C30 1_555 1_555
O24 Dy2_2 1_555 1_555
Dy6 O1 1_555 1_555
Dy11 O14 1_555 1_555
O32 Dy2_2 1_555 1_555
O33 Dy2_2 1_555 1_555
C35 C36 1_555 1_555
C40 N2 1_555 1_555
C55 C56 1_555 1_555
C58 O24 1_555 1_555
C1_2 C2_2 1_555 1_555
C2_2 H1_2 1_555 1_555
C3_2 C2_2 1_555 1_555
C4_2 C3_2 1_555 1_555
C5_2 C3_2 1_555 1_555
C6_2 C5_2 1_555 1_555
H3_2 C6_2 1_555 1_555
C7_2 C1_2 1_555 1_555
C8_2 C7_2 1_555 1_555
C9_2 C8_2 1_555 1_555
H4_2 C9_2 1_555 1_555
C10_2 C9_2 1_555 1_555
C11_2 C12_2 1_555 1_555
C12_2 C8_2 1_555 1_555
C21_2 C22_2 1_555 1_555
C22_2 C23_2 1_555 1_555
C23_2 C10_2 1_555 1_555
C24_2 C23_2 1_555 1_555
H9_2 C24_2 1_555 1_555
C25_2 C24_2 1_555 1_555
H10_2 C25_2 1_555 1_555
C26_2 C25_2 1_555 1_555
C27_2 C22_2 1_555 1_555
H11_2 C27_2 1_555 1_555
C28_2 C26_2 1_555 1_555
Dy2_3 O11_2 1_555 1_555
N1_2 C10_2 1_555 1_555
H12_2 N1_2 1_555 1_555
O25 C4_2 1_555 1_555
O27 C4_2 1_555 1_555
O7_2 C21_2 1_555 1_555
O8_2 C21_2 1_555 1_555
O9_2 C28_2 1_555 1_555
O10_2 C28_2 1_555 1_555
C29_2 C1_2 1_555 1_555
O11_2 C29_2 1_555 1_555
O12_2 Dy2_3 1_555 1_555
C30_2 C31_2 1_555 1_555
C31_2 H13_2 1_555 1_555
C32_2 C31_2 1_555 1_555
C33_2 C32_2 1_555 1_555
C34_2 C32_2 1_555 1_555
H14_2 C34_2 1_555 1_555
C35_2 C34_2 1_555 1_555
H15_2 C35_2 1_555 1_555
C36_2 C30_2 1_555 1_555
C37_2 C36_2 1_555 1_555
C38_2 C37_2 1_555 1_555
H16_2 C38_2 1_555 1_555
C39_2 C38_2 1_555 1_555
C40_2 C41_2 1_555 1_555
C41_2 C37_2 1_555 1_555
H17_2 C41_2 1_555 1_555
C42_2 C40_2 1_555 1_555
C43_2 C42_2 1_555 1_555
H18_2 C43_2 1_555 1_555
C44_2 C43_2 1_555 1_555
H19_2 C44_2 1_555 1_555
C45_2 C44_2 1_555 1_555
C46_2 C45_2 1_555 1_555
C47_2 C45_2 1_555 1_555
H20_2 C47_2 1_555 1_555
C48_2 C42_2 1_555 1_555
C49_2 C48_2 1_555 1_555
C50_2 C51_2 1_555 1_555
C51_2 C52_2 1_555 1_555
C52_2 C39_2 1_555 1_555
C53_2 C52_2 1_555 1_555
H21_2 C53_2 1_555 1_555
C54_2 C53_2 1_555 1_555
H22_2 C54_2 1_555 1_555
C55_2 C54_2 1_555 1_555
C56_2 C51_2 1_555 1_555
H23_2 C56_2 1_555 1_555
C57_2 C55_2 1_555 1_555
Dy7 O17_2 1_555 1_555
N2_2 C39_2 1_555 1_555
H24_2 N2_2 1_555 1_555
O26 C33_2 1_555 1_555
O28 C33_2 1_555 1_555
O15_2 C46_2 1_555 1_555
O16_2 C46_2 1_555 1_555
O17_2 C49_2 1_555 1_555
O18_2 C49_2 1_555 1_555
O19_2 C50_2 1_555 1_555
O20_2 C50_2 1_555 1_555
O36_2 C57_2 1_555 1_555
O22_2 C57_2 1_555 1_555
C58_2 C30_2 1_555 1_555
O23_2 Dy2_3 1_555 1_555
O24_2 Dy2_3 1_555 1_555
Dy11 O10_2 1_555 1_555
Dy13_3 O15_2 1_555 1_555
O30_2 Dy7 1_555 1_555
O31_2 Dy2_3 1_555 1_555
O32_2 Dy2_3 1_555 1_555
O33_2 Dy2_3 1_555 1_555
O34_2 Dy2_3 1_555 1_555
O37_2 Dy7 1_555 1_555
C6_2 C7_2 1_555 1_555
C11_2 N1_2 1_555 1_555
C26_2 C27_2 1_555 1_555
Dy6 O6_2 1_555 1_555
Dy6 O7_2 1_555 1_555
Dy6 O8_2 1_555 1_555
C29_2 O12_2 1_555 1_555
C35_2 C36_2 1_555 1_555
C40_2 N2_2 1_555 1_555
C47_2 C48_2 1_555 1_555
C55_2 C56_2 1_555 1_555
Dy7 O18_2 1_555 1_555
Dy7 O19_2 1_555 1_555
Dy7 O20_2 1_555 1_555
O16_2 Dy13_3 1_555 1_555
C58_2 O23_2 1_555 1_555
C58_2 O24_2 1_555 1_555
C14_2 C13_2 1_555 1_555
H6_2 C14_2 1_555 1_555
C15_2 C14_2 1_555 1_555
H7_2 C15_2 1_555 1_555
C16_2 C15_2 1_555 1_555
C17_2 C16_2 1_555 1_555
C18_2 C16_2 1_555 1_555
H8_2 C18_2 1_555 1_555
C19_2 C13_2 1_555 1_555
C20_2 C19_2 1_555 1_555
O3_2 C17_2 1_555 1_555
O4_2 C17_2 1_555 1_555
O5_2 C20_2 1_555 1_555
Dy13_3 O3_2 1_555 1_555
C18_2 C19_2 1_555 1_555
O4_2 Dy13_3 1_555 1_555
Dy13 O11_3 1_555 1_555
C30_3 C31_3 1_555 1_555
C31_3 H13_3 1_555 1_555
C32_3 C31_3 1_555 1_555
C33_3 C32_3 1_555 1_555
C34_3 C32_3 1_555 1_555
H14_3 C34_3 1_555 1_555
C35_3 C34_3 1_555 1_555
H15_3 C35_3 1_555 1_555
C36_3 C30_3 1_555 1_555
C37_3 C36_3 1_555 1_555
C38_3 C37_3 1_555 1_555
H16_3 C38_3 1_555 1_555
C39_3 C38_3 1_555 1_555
C40_3 C41_3 1_555 1_555
C41_3 C37_3 1_555 1_555
H17_3 C41_3 1_555 1_555
C42_3 C40_3 1_555 1_555
C43_3 C42_3 1_555 1_555
H18_3 C43_3 1_555 1_555
C44_3 C43_3 1_555 1_555
C48_3 C42_3 1_555 1_555
C49_3 C48_3 1_555 1_555
C50_3 C51_3 1_555 1_555
C51_3 C52_3 1_555 1_555
C52_3 C39_3 1_555 1_555
C53_3 C52_3 1_555 1_555
H21_3 C53_3 1_555 1_555
C54_3 C53_3 1_555 1_555
H22_3 C54_3 1_555 1_555
C55_3 C54_3 1_555 1_555
C56_3 C51_3 1_555 1_555
H23_3 C56_3 1_555 1_555
C57_3 C55_3 1_555 1_555
N2_3 C39_3 1_555 1_555
H24_3 N2_3 1_555 1_555
O30_2 C33_3 1_555 1_555
O17_3 C49_3 1_555 1_555
O19_3 C50_3 1_555 1_555
O21 C57_3 1_555 1_555
O38 C57_3 1_555 1_555
C58_3 C30_3 1_555 1_555
O24_3 Dy13 1_555 1_555
Dy10 O1_2 1_555 1_555
C35_3 C36_3 1_555 1_555
C40_3 N2_3 1_555 1_555
C55_3 C56_3 1_555 1_555
C58_3 O24_3 1_555 1_555
C46_3 C45_3 1_555 1_555
C47_3 C45_3 1_555 1_555
H20_3 C47_3 1_555 1_555
O34 C46_3 1_555 1_555
O26_2 Dy9 1_555 1_555
O30 Dy9 1_555 1_555
Dy9 O18_3 1_555 1_555
Dy9 O20_3 1_555 1_555
C14_3 C13_3 1_555 1_555
H6_3 C14_3 1_555 1_555
C15_3 C14_3 1_555 1_555
C19_3 C13_3 1_555 1_555
C20_3 C19_3 1_555 1_555
O5_3 C20_3 1_555 1_555
C1_3 C2_3 1_555 1_555
C2_3 H1_3 1_555 1_555
C3_3 C2_3 1_555 1_555
C4_3 C3_3 1_555 1_555
C5_3 C3_3 1_555 1_555
C6_3 C5_3 1_555 1_555
H3_3 C6_3 1_555 1_555
C7_3 C1_3 1_555 1_555
C8_3 C7_3 1_555 1_555
C9_3 C8_3 1_555 1_555
H4_3 C9_3 1_555 1_555
C10_3 C9_3 1_555 1_555
C11_3 C12_3 1_555 1_555
C12_3 C8_3 1_555 1_555
C21_3 C22_3 1_555 1_555
C22_3 C23_3 1_555 1_555
C23_3 C10_3 1_555 1_555
C24_3 C23_3 1_555 1_555
H9_3 C24_3 1_555 1_555
C25_3 C24_3 1_555 1_555
H10_3 C25_3 1_555 1_555
C26_3 C25_3 1_555 1_555
C27_3 C22_3 1_555 1_555
H11_3 C27_3 1_555 1_555
C28_3 C26_3 1_555 1_555
N1_3 C10_3 1_555 1_555
H12_3 N1_3 1_555 1_555
O29_2 C4_3 1_555 1_555
O7_3 C21_3 1_555 1_555
O35 C28_3 1_555 1_555
O37 C28_3 1_555 1_555
C29_3 C1_3 1_555 1_555
O12_3 Dy13_2 1_555 1_555
O23_3 Dy13_2 1_555 1_555
Dy11 O13_2 1_555 1_555
C6_3 C7_3 1_555 1_555
C11_3 N1_3 1_555 1_555
C26_3 C27_3 1_555 1_555
C29_3 O12_3 1_555 1_555
C17_3 C16_3 1_555 1_555
C18_3 C16_3 1_555 1_555
H8_3 C18_3 1_555 1_555
O33 C17_3 1_555 1_555
O25_2 Dy8 1_555 1_555
O29 Dy8 1_555 1_555
Dy8 O6_3 1_555 1_555
Dy8 O8_3 1_555 1_555
C14_4 C13_4 1_555 1_555
H6_4 C14_4 1_555 1_555
C15_4 C14_4 1_555 1_555
H7_4 C15_4 1_555 1_555
C16_4 C15_4 1_555 1_555
C17_4 C16_4 1_555 1_555
C18_4 C16_4 1_555 1_555
H8_4 C18_4 1_555 1_555
C19_4 C13_4 1_555 1_555
C20_4 C19_4 1_555 1_555
O31_2 C17_4 1_555 1_555
O33_2 C17_4 1_555 1_555
O5_4 C20_4 1_555 1_555
C18_4 C19_4 1_555 1_555
C1_4 C2_4 1_555 1_555
C2_4 H1_4 1_555 1_555
C3_4 C2_4 1_555 1_555
C4_4 C3_4 1_555 1_555
C5_4 C3_4 1_555 1_555
C6_4 C5_4 1_555 1_555
H3_4 C6_4 1_555 1_555
C7_4 C1_4 1_555 1_555
C8_4 C7_4 1_555 1_555
C9_4 C8_4 1_555 1_555
H4_4 C9_4 1_555 1_555
C10_4 C9_4 1_555 1_555
C11_4 C12_4 1_555 1_555
C12_4 C8_4 1_555 1_555
C21_4 C22_4 1_555 1_555
C22_4 C23_4 1_555 1_555
C23_4 C10_4 1_555 1_555
C24_4 C23_4 1_555 1_555
H9_4 C24_4 1_555 1_555
C25_4 C24_4 1_555 1_555
H10_4 C25_4 1_555 1_555
C26_4 C25_4 1_555 1_555
C27_4 C22_4 1_555 1_555
H11_4 C27_4 1_555 1_555
C28_4 C26_4 1_555 1_555
Dy13_3 O11_4 1_555 1_555
N1_4 C10_4 1_555 1_555
H12_4 N1_4 1_555 1_555
O25_2 C4_4 1_555 1_555
O29 C4_4 1_555 1_555
O7_4 C21_4 1_555 1_555
O8_4 C21_4 1_555 1_555
O35_2 C28_4 1_555 1_555
O37_2 C28_4 1_555 1_555
C29_4 C1_4 1_555 1_555
O11_4 C29_4 1_555 1_555
O12_4 Dy13_3 1_555 1_555
C30_4 C31_4 1_555 1_555
C31_4 H13_4 1_555 1_555
C32_4 C31_4 1_555 1_555
C33_4 C32_4 1_555 1_555
C34_4 C32_4 1_555 1_555
H14_4 C34_4 1_555 1_555
C35_4 C34_4 1_555 1_555
H15_4 C35_4 1_555 1_555
C36_4 C30_4 1_555 1_555
C37_4 C36_4 1_555 1_555
C38_4 C37_4 1_555 1_555
H16_4 C38_4 1_555 1_555
C39_4 C38_4 1_555 1_555
C40_4 C41_4 1_555 1_555
C41_4 C37_4 1_555 1_555
H17_4 C41_4 1_555 1_555
C42_4 C40_4 1_555 1_555
C43_4 C42_4 1_555 1_555
H18_4 C43_4 1_555 1_555
C44_4 C43_4 1_555 1_555
H19_4 C44_4 1_555 1_555
C45_4 C44_4 1_555 1_555
C46_4 C45_4 1_555 1_555
C47_4 C45_4 1_555 1_555
H20_4 C47_4 1_555 1_555
C48_4 C42_4 1_555 1_555
C49_4 C48_4 1_555 1_555
C50_4 C51_4 1_555 1_555
C51_4 C52_4 1_555 1_555
C52_4 C39_4 1_555 1_555
C53_4 C52_4 1_555 1_555
H21_4 C53_4 1_555 1_555
C54_4 C53_4 1_555 1_555
H22_4 C54_4 1_555 1_555
C55_4 C54_4 1_555 1_555
C56_4 C51_4 1_555 1_555
H23_4 C56_4 1_555 1_555
C57_4 C55_4 1_555 1_555
Dy11 O17_4 1_555 1_555
N2_4 C39_4 1_555 1_555
H24_4 N2_4 1_555 1_555
O26_2 C33_4 1_555 1_555
O30 C33_4 1_555 1_555
O32_2 C46_4 1_555 1_555
O34_2 C46_4 1_555 1_555
O17_4 C49_4 1_555 1_555
O18_4 C49_4 1_555 1_555
O19_4 C50_4 1_555 1_555
O20_4 C50_4 1_555 1_555
O21_2 C57_4 1_555 1_555
O38_2 C57_4 1_555 1_555
C58_4 C30_4 1_555 1_555
O23_4 Dy13_3 1_555 1_555
O24_4 Dy13_3 1_555 1_555
C6_4 C7_4 1_555 1_555
C11_4 N1_4 1_555 1_555
C26_4 C27_4 1_555 1_555
Dy10 O6_4 1_555 1_555
Dy10 O7_4 1_555 1_555
Dy10 O8_4 1_555 1_555
C29_4 O12_4 1_555 1_555
C35_4 C36_4 1_555 1_555
C40_4 N2_4 1_555 1_555
C47_4 C48_4 1_555 1_555
C55_4 C56_4 1_555 1_555
Dy11 O18_4 1_555 1_555
Dy11 O19_4 1_555 1_555
Dy11 O20_4 1_555 1_555
C58_4 O23_4 1_555 1_555
C58_4 O24_4 1_555 1_555

#END
