
###############################################################################
#
# This file contains modified crystal structure data generated from the
# MOF subset of the Cambridge Structural Database (CSD) v543 
# hosted by the Cambridge Crystallographic Data Centre (CCDC).
#
# This work is licensed under the Creative Commons
# Attribution-NonCommercial-ShareAlike 4.0 International License.
# To view a copy of this license, visit
# http://creativecommons.org/licenses/by-nc-sa/4.0/
# or send a letter to
# Creative Commons, PO Box 1866, Mountain View, CA 94042, USA.
#
# CIF created using the CSD Python API on 29 September 2022
# The structure has been converted into the P1 space group
# The structure has a 3D framework
# The original CSD entry HUSFIN is in the monoclinic crystal system
# The framework has been calculated to contain at least 10.0% void space
# The void calculation uses a probe of radius 1.32A, grid spacing 0.4
# The framework is charged, counterions have been retained in the structure
#
###############################################################################

data_HUSFIN
_chemical_formula_moiety         '(C232 H96 Ho14 N8 O88 3-)n'
_symmetry_cell_setting           triclinic
_symmetry_space_group_name_H-M   'P 1'
_symmetry_Int_Tables_number      1
_space_group_name_Hall           'P 1'
loop_
_symmetry_equiv_pos_site_id
_symmetry_equiv_pos_as_xyz
1 x,y,z
_cell_length_a                   18.951(5)
_cell_length_b                   23.186(6)
_cell_length_c                   21.379(6)
_cell_angle_alpha                90
_cell_angle_beta                 102.011(12)
_cell_angle_gamma                90
_cell_volume                     9188.23
loop_
_atom_site_label
_atom_site_type_symbol
_atom_site_fract_x
_atom_site_fract_y
_atom_site_fract_z
Ho10 Ho 0.084234(16) 0.004136(12) 0.958511(13)
C1 C 0.4168(4) 0.5368(3) 0.3896(3)
C2 C 0.3713(4) 0.5568(3) 0.3265(3)
C3 C 0.3909(4) 0.5408(3) 0.2692(3)
H1 H 0.4322 0.5188 0.2706
C4 C 0.3502(4) 0.5573(3) 0.2108(3)
C5 C 0.2875(4) 0.5913(4) 0.2081(4)
C6 C 0.2679(5) 0.6061(4) 0.2652(4)
H2 H 0.2265 0.6280 0.2641
C7 C 0.3087(5) 0.5889(4) 0.3233(4)
H3 H 0.2943 0.5990 0.3609
C8 C 0.3757(4) 0.5386(3) 0.1521(3)
C9 C 0.2391(4) 0.6083(4) 0.1469(4)
C10 C 0.1687(5) 0.5844(4) 0.0451(4)
C11 C 0.1425(4) 0.6390(4) 0.0379(4)
H4 H 0.1099 0.6496 0.0009
C12 C 0.1645(5) 0.6783(3) 0.0859(4)
C21 C 0.2131(4) 0.6639(3) 0.1401(4)
H8 H 0.2283 0.6911 0.1720
C22 C 0.1294(5) 0.7362(4) 0.0779(4)
C23 C 0.1438(6) 0.7749(4) 0.0326(5)
H9 H 0.1783 0.7654 0.0092
C24 C 0.1081(6) 0.8278(5) 0.0211(5)
C25 C 0.0572(5) 0.8425(3) 0.0559(4)
C26 C 0.0427(6) 0.8049(4) 0.1011(5)
H11 H 0.0077 0.8146 0.1239
C27 C 0.0792(6) 0.7523(4) 0.1139(5)
C28 C 0.0571(8) 0.7143(5) 0.1634(7)
C29 C 0.0149(4) 0.8967(3) 0.0443(4)
Ho1 Ho 0.415766(16) 0.495864(12) 0.041489(13)
N1 N 0.2163(4) 0.5677(3) 0.0994(3)
H12 H 0.2318 0.5328 0.1039
O1 O 0.3909(3) 0.5441(3) 0.4387(2)
O2 O 0.4766(3) 0.5156(3) 0.3875(3)
O3 O 0.3887(3) 0.4852(2) 0.1465(3)
O4 O 0.3835(3) 0.5735(3) 0.1108(3)
O5 O 0.2956(3) 0.4552(3) 0.0265(3)
O10 O 0.0929(6) 0.6938(6) 0.2070(6)
O12 O 0.0353(3) 0.9363(2) 0.0116(3)
Ho5 Ho 0.584234(16) 0.495864(12) 0.458511(13)
Ho9 Ho 0.415766(16) 0.504136(12) 0.541489(13)
Ho13 Ho 0.0000 0.65424(3) 0.2500
O28 O 0.5234(3) 0.5156(3) 0.1125(3)
O33 O 0.4595(3) 0.4025(2) 0.0677(3)
O35 O 0.5353(3) 0.4363(2) 0.0116(3)
C13 C 0.1416(5) 0.5424(4) 0.9933(4)
C14 C 0.0690(5) 0.5423(5) 0.9654(5)
H5 H 0.0385 0.5692 0.9783
C15 C 0.0416(6) 0.5033(5) 0.9193(7)
C16 C 0.0858(5) 0.4645(5) 0.8964(5)
C17 C 0.1582(5) 0.4628(5) 0.9236(5)
H7 H 0.1880 0.4361 0.9095
C18 C 0.1864(5) 0.5013(4) 0.9724(5)
C19 C 0.2674(5) 0.5001(4) 0.9978(4)
C20 C 0.0568(6) 0.4235(5) 0.8419(6)
H10 H 0.1185 0.8528 0.9902
Ho2 Ho 0.0000 0.34576(3) 0.7500
O6 O 0.3050(3) 0.5422(3) 0.9879(3)
O7 O 0.0976(4) 0.3891(3) 0.8224(4)
H18 H 0.0079 0.5027 0.5972
O20 O 0.0098(5) 0.4238(5) 0.6817(5)
O21 O 0.0238(12) 0.7217(7) 0.3276(8)
O23 O 0.0405(3) 0.9025(2) 0.4323(3)
Ho7 Ho 0.084234(16) 0.995864(12) 0.458511(13)
O26 O 0.3909(3) 0.4559(3) 0.9387(2)
O29 O 0.0238(12) 0.2783(7) 0.8276(8)
O32 O 0.0929(6) 0.3062(6) 0.7070(6)
O37 O 0.4647(3) 0.5637(2) 0.9884(3)
Ho11 Ho 0.915766(16) 0.004136(12) 0.541489(13)
O9 O 0.9762(12) 0.7217(7) 0.1724(8)
O11 O 0.9595(3) 0.9025(2) 0.0677(3)
Ho6 Ho 0.915766(16) 0.995864(12) 0.041489(13)
Ho13_2 Ho 1.0000 0.65424(3) 0.2500
H6 H 0.9921 0.5027 0.9028
Ho2_2 Ho 1.0000 0.34576(3) 0.7500
O8 O 0.9902(5) 0.4238(5) 0.8183(5)
C30 C 0.5832(4) 0.5368(3) 0.1104(3)
C31 C 0.6287(4) 0.5568(3) 0.1735(3)
C32 C 0.6091(4) 0.5408(3) 0.2308(3)
H13 H 0.5678 0.5188 0.2294
C33 C 0.6498(4) 0.5573(3) 0.2892(3)
C34 C 0.7125(4) 0.5913(4) 0.2919(4)
C35 C 0.7321(5) 0.6061(4) 0.2348(4)
H14 H 0.7735 0.6280 0.2359
C36 C 0.6913(5) 0.5889(4) 0.1767(4)
H15 H 0.7057 0.5990 0.1391
C37 C 0.6243(4) 0.5386(3) 0.3479(3)
C38 C 0.7609(4) 0.6083(4) 0.3531(4)
C39 C 0.8313(5) 0.5844(4) 0.4549(4)
C40 C 0.8575(4) 0.6390(4) 0.4621(4)
H16 H 0.8901 0.6496 0.4991
C41 C 0.8355(5) 0.6783(3) 0.4141(4)
C42 C 0.8584(5) 0.5424(4) 0.5067(4)
C43 C 0.9310(5) 0.5423(5) 0.5346(5)
H17 H 0.9615 0.5692 0.5217
C44 C 0.9584(6) 0.5033(5) 0.5807(7)
C45 C 0.9142(5) 0.4645(5) 0.6036(5)
C46 C 0.8418(5) 0.4628(5) 0.5764(5)
H19 H 0.8120 0.4361 0.5905
C47 C 0.8136(5) 0.5013(4) 0.5276(5)
C48 C 0.7326(5) 0.5001(4) 0.5022(4)
C49 C 0.9432(6) 0.4235(5) 0.6581(6)
C50 C 0.7869(4) 0.6639(3) 0.3599(4)
H20 H 0.7717 0.6911 0.3280
C51 C 0.8706(5) 0.7362(4) 0.4221(4)
C52 C 0.8562(6) 0.7749(4) 0.4674(5)
H21 H 0.8217 0.7654 0.4908
C53 C 0.8919(6) 0.8278(5) 0.4789(5)
H22 H 0.8815 0.8528 0.5098
C54 C 0.9428(5) 0.8425(3) 0.4441(4)
C55 C 0.9573(6) 0.8049(4) 0.3989(5)
H23 H 0.9923 0.8146 0.3761
C56 C 0.9208(6) 0.7523(4) 0.3861(5)
C57 C 0.9429(8) 0.7143(5) 0.3366(7)
C58 C 0.9851(4) 0.8967(3) 0.4557(4)
N2 N 0.7837(4) 0.5677(3) 0.4006(3)
H24 H 0.7682 0.5328 0.3961
O13 O 0.6091(3) 0.5441(3) 0.0613(2)
O15 O 0.6113(3) 0.4852(2) 0.3535(3)
O16 O 0.6165(3) 0.5735(3) 0.3892(3)
O17 O 0.7044(3) 0.4552(3) 0.4735(3)
O18 O 0.6950(3) 0.5422(3) 0.5121(3)
O19 O 0.9024(4) 0.3891(3) 0.6776(4)
O22 O 0.9071(6) 0.6938(6) 0.2930(6)
O24 O 0.9647(3) 0.9363(2) 0.4884(3)
O25 O 0.6091(3) 0.4559(3) 0.5613(2)
O30 O 0.9762(12) 0.2783(7) 0.6724(8)
O31 O 0.9071(6) 0.3062(6) 0.7930(6)
O34 O 0.5405(3) 0.4025(2) 0.4323(3)
O36 O 0.4647(3) 0.4363(2) 0.4884(3)
O38 O 0.5353(3) 0.5637(2) 0.5116(3)
Ho8 Ho 0.584234(16) 0.504136(12) 0.958511(13)
O28_2 O 0.0234(3) 0.0156(3) 0.1125(3)
C1_2 C 0.9168(4) 0.0368(3) 0.3896(3)
C2_2 C 0.8713(4) 0.0568(3) 0.3265(3)
C3_2 C 0.8909(4) 0.0408(3) 0.2692(3)
H1_2 H 0.9322 0.0188 0.2706
C4_2 C 0.8502(4) 0.0573(3) 0.2108(3)
C5_2 C 0.7875(4) 0.0913(4) 0.2081(4)
C6_2 C 0.7679(5) 0.1061(4) 0.2652(4)
H2_2 H 0.7265 0.1280 0.2641
C7_2 C 0.8087(5) 0.0889(4) 0.3233(4)
H3_2 H 0.7943 0.0990 0.3609
C8_2 C 0.8757(4) 0.0386(3) 0.1521(3)
C9_2 C 0.7391(4) 0.1083(4) 0.1469(4)
C10_2 C 0.6687(5) 0.0844(4) 0.0451(4)
C11_2 C 0.6425(4) 0.1390(4) 0.0379(4)
H4_2 H 0.6099 0.1496 0.0009
C12_2 C 0.6645(5) 0.1783(3) 0.0859(4)
C21_2 C 0.7131(4) 0.1639(3) 0.1401(4)
H8_2 H 0.7283 0.1911 0.1720
C22_2 C 0.6294(5) 0.2362(4) 0.0779(4)
C23_2 C 0.6438(6) 0.2749(4) 0.0326(5)
H9_2 H 0.6783 0.2654 0.0092
C24_2 C 0.6081(6) 0.3278(5) 0.0211(5)
C25_2 C 0.5572(5) 0.3425(3) 0.0559(4)
C26_2 C 0.5427(6) 0.3049(4) 0.1011(5)
H11_2 H 0.5077 0.3146 0.1239
C27_2 C 0.5792(6) 0.2523(4) 0.1139(5)
C28_2 C 0.5571(8) 0.2143(5) 0.1634(7)
C29_2 C 0.5149(4) 0.3967(3) 0.0443(4)
N1_2 N 0.7163(4) 0.0677(3) 0.0994(3)
H12_2 H 0.7318 0.0328 0.1039
O1_2 O 0.8909(3) 0.0441(3) 0.4387(2)
O2_2 O 0.9766(3) 0.0156(3) 0.3875(3)
O4_2 O 0.8835(3) 0.0735(3) 0.1108(3)
O9_2 O 0.4762(12) 0.2217(7) 0.1724(8)
O10_2 O 0.5929(6) 0.1938(6) 0.2070(6)
Ho13_3 Ho 0.5000 0.15424(3) 0.2500
C13_2 C 0.6416(5) 0.0424(4) 0.9933(4)
C14_2 C 0.5690(5) 0.0423(5) 0.9654(5)
H5_2 H 0.5385 0.0692 0.9783
C15_2 C 0.5416(6) 0.0033(5) 0.9193(7)
H6_2 H 0.4921 0.0027 0.9028
C18_2 C 0.6864(5) 0.0013(4) 0.9724(5)
C19_2 C 0.7674(5) 0.0001(4) 0.9978(4)
H10_2 H 0.6185 0.3528 0.9902
O6_2 O 0.8050(3) 0.0422(3) 0.9879(3)
C30_2 C 0.0832(4) 0.0368(3) 0.1104(3)
C31_2 C 0.1287(4) 0.0568(3) 0.1735(3)
C32_2 C 0.1091(4) 0.0408(3) 0.2308(3)
H13_2 H 0.0678 0.0188 0.2294
C33_2 C 0.1498(4) 0.0573(3) 0.2892(3)
C34_2 C 0.2125(4) 0.0913(4) 0.2919(4)
C35_2 C 0.2321(5) 0.1061(4) 0.2348(4)
H14_2 H 0.2735 0.1280 0.2359
C36_2 C 0.1913(5) 0.0889(4) 0.1767(4)
H15_2 H 0.2057 0.0990 0.1391
C37_2 C 0.1243(4) 0.0386(3) 0.3479(3)
C38_2 C 0.2609(4) 0.1083(4) 0.3531(4)
C39_2 C 0.3313(5) 0.0844(4) 0.4549(4)
C40_2 C 0.3575(4) 0.1390(4) 0.4621(4)
H16_2 H 0.3901 0.1496 0.4991
C41_2 C 0.3355(5) 0.1783(3) 0.4141(4)
C42_2 C 0.3584(5) 0.0424(4) 0.5067(4)
C43_2 C 0.4310(5) 0.0423(5) 0.5346(5)
H17_2 H 0.4615 0.0692 0.5217
C44_2 C 0.4584(6) 0.0033(5) 0.5807(7)
H18_2 H 0.5079 0.0027 0.5972
C47_2 C 0.3136(5) 0.0013(4) 0.5276(5)
C48_2 C 0.2326(5) 0.0001(4) 0.5022(4)
C50_2 C 0.2869(4) 0.1639(3) 0.3599(4)
H20_2 H 0.2717 0.1911 0.3280
C51_2 C 0.3706(5) 0.2362(4) 0.4221(4)
C52_2 C 0.3562(6) 0.2749(4) 0.4674(5)
H21_2 H 0.3217 0.2654 0.4908
C53_2 C 0.3919(6) 0.3278(5) 0.4789(5)
H22_2 H 0.3815 0.3528 0.5098
C54_2 C 0.4428(5) 0.3425(3) 0.4441(4)
C55_2 C 0.4573(6) 0.3049(4) 0.3989(5)
H23_2 H 0.4923 0.3146 0.3761
C56_2 C 0.4208(6) 0.2523(4) 0.3861(5)
C57_2 C 0.4429(8) 0.2143(5) 0.3366(7)
C58_2 C 0.4851(4) 0.3967(3) 0.4557(4)
N2_2 N 0.2837(4) 0.0677(3) 0.4006(3)
H24_2 H 0.2682 0.0328 0.3961
O13_2 O 0.1091(3) 0.0441(3) 0.0613(2)
O16_2 O 0.1165(3) 0.0735(3) 0.3892(3)
O18_2 O 0.1950(3) 0.0422(3) 0.5121(3)
O21_2 O 0.5238(12) 0.2217(7) 0.3276(8)
O22_2 O 0.4071(6) 0.1938(6) 0.2930(6)
O37_2 O 0.9647(3) 0.0637(2) 0.9884(3)
O38_2 O 0.0353(3) 0.0637(2) 0.5116(3)
O3_2 O 0.8887(3) 0.9852(2) 0.1465(3)
O5_2 O 0.7956(3) 0.9552(3) 0.0265(3)
C16_2 C 0.5858(5) 0.9645(5) 0.8964(5)
C17_2 C 0.6582(5) 0.9628(5) 0.9236(5)
H7_2 H 0.6880 0.9361 0.9095
C20_2 C 0.5568(6) 0.9235(5) 0.8419(6)
Ho2_3 Ho 0.5000 0.84576(3) 0.7500
O7_2 O 0.5976(4) 0.8891(3) 0.8224(4)
O8_2 O 0.4902(5) 0.9238(5) 0.8183(5)
C45_2 C 0.4142(5) 0.9645(5) 0.6036(5)
C46_2 C 0.3418(5) 0.9628(5) 0.5764(5)
H19_2 H 0.3120 0.9361 0.5905
C49_2 C 0.4432(6) 0.9235(5) 0.6581(6)
O15_2 O 0.1113(3) 0.9852(2) 0.3535(3)
O17_2 O 0.2044(3) 0.9552(3) 0.4735(3)
O19_2 O 0.4024(4) 0.8891(3) 0.6776(4)
O20_2 O 0.5098(5) 0.9238(5) 0.6817(5)
O25_2 O 0.1091(3) 0.9559(3) 0.5613(2)
O26_2 O 0.8909(3) 0.9559(3) 0.9387(2)
O29_2 O 0.5238(12) 0.7783(7) 0.8276(8)
O30_2 O 0.4762(12) 0.7783(7) 0.6724(8)
O31_2 O 0.4071(6) 0.8062(6) 0.7930(6)
O32_2 O 0.5929(6) 0.8062(6) 0.7070(6)
H6_3 H 0.0079 0.4973 0.0972
O8_3 O 0.0098(5) 0.5762(5) 0.1817(5)
C30_3 C 0.4168(4) 0.4632(3) 0.8896(3)
C31_3 C 0.3713(4) 0.4432(3) 0.8265(3)
C32_3 C 0.3909(4) 0.4592(3) 0.7692(3)
H13_3 H 0.4322 0.4812 0.7706
C33_3 C 0.3502(4) 0.4427(3) 0.7108(3)
C34_3 C 0.2875(4) 0.4087(4) 0.7081(4)
C35_3 C 0.2679(5) 0.3939(4) 0.7652(4)
H14_3 H 0.2265 0.3720 0.7641
C36_3 C 0.3087(5) 0.4111(4) 0.8233(4)
H15_3 H 0.2943 0.4010 0.8609
C37_3 C 0.3757(4) 0.4614(3) 0.6521(3)
C38_3 C 0.2391(4) 0.3917(4) 0.6469(4)
C39_3 C 0.1687(5) 0.4156(4) 0.5451(4)
C40_3 C 0.1425(4) 0.3610(4) 0.5379(4)
H16_3 H 0.1099 0.3504 0.5009
C41_3 C 0.1645(5) 0.3217(3) 0.5859(4)
C42_3 C 0.1416(5) 0.4576(4) 0.4933(4)
C43_3 C 0.0690(5) 0.4577(5) 0.4654(5)
H17_3 H 0.0385 0.4308 0.4783
C44_3 C 0.0416(6) 0.4967(5) 0.4193(7)
C45_3 C 0.0858(5) 0.5355(5) 0.3964(5)
C46_3 C 0.1582(5) 0.5372(5) 0.4236(5)
H19_3 H 0.1880 0.5639 0.4095
C47_3 C 0.1864(5) 0.4987(4) 0.4724(5)
C48_3 C 0.2674(5) 0.4999(4) 0.4978(4)
C49_3 C 0.0568(6) 0.5765(5) 0.3419(6)
C50_3 C 0.2131(4) 0.3361(3) 0.6401(4)
H20_3 H 0.2283 0.3089 0.6720
C51_3 C 0.1294(5) 0.2638(4) 0.5779(4)
C52_3 C 0.1438(6) 0.2251(4) 0.5326(5)
H21_3 H 0.1783 0.2346 0.5092
C53_3 C 0.1081(6) 0.1722(5) 0.5211(5)
H22_3 H 0.1185 0.1472 0.4902
C54_3 C 0.0572(5) 0.1575(3) 0.5559(4)
C55_3 C 0.0427(6) 0.1951(4) 0.6011(5)
H23_3 H 0.0077 0.1854 0.6239
C56_3 C 0.0792(6) 0.2477(4) 0.6139(5)
C57_3 C 0.0571(8) 0.2857(5) 0.6634(7)
C58_3 C 0.0149(4) 0.1033(3) 0.5443(4)
N2_3 N 0.2163(4) 0.4323(3) 0.5994(3)
H24_3 H 0.2318 0.4672 0.6039
O14 O 0.4766(3) 0.4844(3) 0.8875(3)
O15_3 O 0.3887(3) 0.5148(2) 0.6465(3)
O16_3 O 0.3835(3) 0.4265(3) 0.6108(3)
O17_3 O 0.2956(3) 0.5448(3) 0.5265(3)
O18_3 O 0.3050(3) 0.4578(3) 0.4879(3)
O19_3 O 0.0976(4) 0.6109(3) 0.3224(4)
O27 O 0.5234(3) 0.4844(3) 0.6125(3)
O34_2 O 0.4595(3) 0.5975(2) 0.5677(3)
O11_2 O 0.0405(3) 0.0975(2) 0.9323(3)
C13_3 C 0.8584(5) 0.4576(4) 0.0067(4)
C14_3 C 0.9310(5) 0.4577(5) 0.0346(5)
H5_3 H 0.9615 0.4308 0.0217
C15_3 C 0.9584(6) 0.4967(5) 0.0807(7)
C16_3 C 0.9142(5) 0.5355(5) 0.1036(5)
C17_3 C 0.8418(5) 0.5372(5) 0.0764(5)
H7_3 H 0.8120 0.5639 0.0905
C18_3 C 0.8136(5) 0.4987(4) 0.0276(5)
C19_3 C 0.7326(5) 0.4999(4) 0.0022(4)
C20_3 C 0.9432(6) 0.5765(5) 0.1581(6)
H10_3 H 0.8815 0.1472 0.0098
O6_3 O 0.6950(3) 0.4578(3) 0.0121(3)
O7_3 O 0.9024(4) 0.6109(3) 0.1776(4)
H18_3 H 0.9921 0.4973 0.4028
O20_3 O 0.9902(5) 0.5762(5) 0.3183(5)
O23_2 O 0.9595(3) 0.0975(2) 0.5677(3)
C1_3 C 0.5832(4) 0.4632(3) 0.6104(3)
C2_3 C 0.6287(4) 0.4432(3) 0.6735(3)
C3_3 C 0.6091(4) 0.4592(3) 0.7308(3)
H1_3 H 0.5678 0.4812 0.7294
C4_3 C 0.6498(4) 0.4427(3) 0.7892(3)
C5_3 C 0.7125(4) 0.4087(4) 0.7919(4)
C6_3 C 0.7321(5) 0.3939(4) 0.7348(4)
H2_3 H 0.7735 0.3720 0.7359
C7_3 C 0.6913(5) 0.4111(4) 0.6767(4)
H3_3 H 0.7057 0.4010 0.6391
C8_3 C 0.6243(4) 0.4614(3) 0.8479(3)
C9_3 C 0.7609(4) 0.3917(4) 0.8531(4)
C10_3 C 0.8313(5) 0.4156(4) 0.9549(4)
C11_3 C 0.8575(4) 0.3610(4) 0.9621(4)
H4_3 H 0.8901 0.3504 0.9991
C12_3 C 0.8355(5) 0.3217(3) 0.9141(4)
C21_3 C 0.7869(4) 0.3361(3) 0.8599(4)
H8_3 H 0.7717 0.3089 0.8280
C22_3 C 0.8706(5) 0.2638(4) 0.9221(4)
C23_3 C 0.8562(6) 0.2251(4) 0.9674(5)
H9_3 H 0.8217 0.2346 0.9908
C24_3 C 0.8919(6) 0.1722(5) 0.9789(5)
C25_3 C 0.9428(5) 0.1575(3) 0.9441(4)
C26_3 C 0.9573(6) 0.1951(4) 0.8989(5)
H11_3 H 0.9923 0.1854 0.8761
C27_3 C 0.9208(6) 0.2477(4) 0.8861(5)
C28_3 C 0.9429(8) 0.2857(5) 0.8366(7)
C29_3 C 0.9851(4) 0.1033(3) 0.9557(4)
N1_3 N 0.7837(4) 0.4323(3) 0.9006(3)
H12_3 H 0.7682 0.4672 0.8961
O3_3 O 0.6113(3) 0.5148(2) 0.8535(3)
O4_3 O 0.6165(3) 0.4265(3) 0.8892(3)
O5_3 O 0.7044(3) 0.5448(3) 0.9735(3)
O33_2 O 0.5405(3) 0.5975(2) 0.9323(3)
O27_2 O 0.0234(3) 0.9844(3) 0.6125(3)
C16_4 C 0.4142(5) 0.0355(5) 0.1036(5)
C17_4 C 0.3418(5) 0.0372(5) 0.0764(5)
H7_4 H 0.3120 0.0639 0.0905
C20_4 C 0.4432(6) 0.0765(5) 0.1581(6)
O7_4 O 0.4024(4) 0.1109(3) 0.1776(4)
O8_4 O 0.5098(5) 0.0762(5) 0.1817(5)
C45_4 C 0.5858(5) 0.0355(5) 0.3964(5)
C46_4 C 0.6582(5) 0.0372(5) 0.4236(5)
H19_4 H 0.6880 0.0639 0.4095
C49_4 C 0.5568(6) 0.0765(5) 0.3419(6)
O15_4 O 0.8887(3) 0.0148(2) 0.6465(3)
O17_4 O 0.7956(3) 0.0448(3) 0.5265(3)
O19_4 O 0.5976(4) 0.1109(3) 0.3224(4)
O20_4 O 0.4902(5) 0.0762(5) 0.3183(5)
O3_4 O 0.1113(3) 0.0148(2) 0.8535(3)
O5_4 O 0.2044(3) 0.0448(3) 0.9735(3)
C13_4 C 0.3584(5) 0.9576(4) 0.0067(4)
C14_4 C 0.4310(5) 0.9577(5) 0.0346(5)
H5_4 H 0.4615 0.9308 0.0217
C15_4 C 0.4584(6) 0.9967(5) 0.0807(7)
H6_4 H 0.5079 0.9973 0.0972
C18_4 C 0.3136(5) 0.9987(4) 0.0276(5)
C19_4 C 0.2326(5) 0.9999(4) 0.0022(4)
H10_4 H 0.3815 0.6472 0.0098
O6_4 O 0.1950(3) 0.9578(3) 0.0121(3)
C30_4 C 0.9168(4) 0.9632(3) 0.8896(3)
C31_4 C 0.8713(4) 0.9432(3) 0.8265(3)
C32_4 C 0.8909(4) 0.9592(3) 0.7692(3)
H13_4 H 0.9322 0.9812 0.7706
C33_4 C 0.8502(4) 0.9427(3) 0.7108(3)
C34_4 C 0.7875(4) 0.9087(4) 0.7081(4)
C35_4 C 0.7679(5) 0.8939(4) 0.7652(4)
H14_4 H 0.7265 0.8720 0.7641
C36_4 C 0.8087(5) 0.9111(4) 0.8233(4)
H15_4 H 0.7943 0.9010 0.8609
C37_4 C 0.8757(4) 0.9614(3) 0.6521(3)
C38_4 C 0.7391(4) 0.8917(4) 0.6469(4)
C39_4 C 0.6687(5) 0.9156(4) 0.5451(4)
C40_4 C 0.6425(4) 0.8610(4) 0.5379(4)
H16_4 H 0.6099 0.8504 0.5009
C41_4 C 0.6645(5) 0.8217(3) 0.5859(4)
C42_4 C 0.6416(5) 0.9576(4) 0.4933(4)
C43_4 C 0.5690(5) 0.9577(5) 0.4654(5)
H17_4 H 0.5385 0.9308 0.4783
C44_4 C 0.5416(6) 0.9967(5) 0.4193(7)
H18_4 H 0.4921 0.9973 0.4028
C47_4 C 0.6864(5) 0.9987(4) 0.4724(5)
C48_4 C 0.7674(5) 0.9999(4) 0.4978(4)
C50_4 C 0.7131(4) 0.8361(3) 0.6401(4)
H20_4 H 0.7283 0.8089 0.6720
C51_4 C 0.6294(5) 0.7638(4) 0.5779(4)
C52_4 C 0.6438(6) 0.7251(4) 0.5326(5)
H21_4 H 0.6783 0.7346 0.5092
C53_4 C 0.6081(6) 0.6722(5) 0.5211(5)
H22_4 H 0.6185 0.6472 0.4902
C54_4 C 0.5572(5) 0.6575(3) 0.5559(4)
C55_4 C 0.5427(6) 0.6951(4) 0.6011(5)
H23_4 H 0.5077 0.6854 0.6239
C56_4 C 0.5792(6) 0.7477(4) 0.6139(5)
C57_4 C 0.5571(8) 0.7857(5) 0.6634(7)
C58_4 C 0.5149(4) 0.6033(3) 0.5443(4)
N2_4 N 0.7163(4) 0.9323(3) 0.5994(3)
H24_4 H 0.7318 0.9672 0.6039
O14_2 O 0.9766(3) 0.9844(3) 0.8875(3)
O16_4 O 0.8835(3) 0.9265(3) 0.6108(3)
O18_4 O 0.8050(3) 0.9578(3) 0.4879(3)
C1_4 C 0.0832(4) 0.9632(3) 0.6104(3)
C2_4 C 0.1287(4) 0.9432(3) 0.6735(3)
C3_4 C 0.1091(4) 0.9592(3) 0.7308(3)
H1_4 H 0.0678 0.9812 0.7294
C4_4 C 0.1498(4) 0.9427(3) 0.7892(3)
C5_4 C 0.2125(4) 0.9087(4) 0.7919(4)
C6_4 C 0.2321(5) 0.8939(4) 0.7348(4)
H2_4 H 0.2735 0.8720 0.7359
C7_4 C 0.1913(5) 0.9111(4) 0.6767(4)
H3_4 H 0.2057 0.9010 0.6391
C8_4 C 0.1243(4) 0.9614(3) 0.8479(3)
C9_4 C 0.2609(4) 0.8917(4) 0.8531(4)
C10_4 C 0.3313(5) 0.9156(4) 0.9549(4)
C11_4 C 0.3575(4) 0.8610(4) 0.9621(4)
H4_4 H 0.3901 0.8504 0.9991
C12_4 C 0.3355(5) 0.8217(3) 0.9141(4)
C21_4 C 0.2869(4) 0.8361(3) 0.8599(4)
H8_4 H 0.2717 0.8089 0.8280
C22_4 C 0.3706(5) 0.7638(4) 0.9221(4)
C23_4 C 0.3562(6) 0.7251(4) 0.9674(5)
H9_4 H 0.3217 0.7346 0.9908
C24_4 C 0.3919(6) 0.6722(5) 0.9789(5)
C25_4 C 0.4428(5) 0.6575(3) 0.9441(4)
C26_4 C 0.4573(6) 0.6951(4) 0.8989(5)
H11_4 H 0.4923 0.6854 0.8761
C27_4 C 0.4208(6) 0.7477(4) 0.8861(5)
C28_4 C 0.4429(8) 0.7857(5) 0.8366(7)
C29_4 C 0.4851(4) 0.6033(3) 0.9557(4)
N1_4 N 0.2837(4) 0.9323(3) 0.9006(3)
H12_4 H 0.2682 0.9672 0.8961
O4_4 O 0.1165(3) 0.9265(3) 0.8892(3)
loop_
_geom_bond_atom_site_label_1
_geom_bond_atom_site_label_2
_geom_bond_site_symmetry_1
_geom_bond_site_symmetry_2
C1 C2 1_555 1_555
C2 C3 1_555 1_555
C3 H1 1_555 1_555
C4 C3 1_555 1_555
C5 C4 1_555 1_555
C6 C5 1_555 1_555
H2 C6 1_555 1_555
C7 C2 1_555 1_555
H3 C7 1_555 1_555
C8 C4 1_555 1_555
C9 C5 1_555 1_555
C10 C11 1_555 1_555
C11 H4 1_555 1_555
C12 C11 1_555 1_555
C21 C9 1_555 1_555
H8 C21 1_555 1_555
C22 C12 1_555 1_555
C23 C22 1_555 1_555
H9 C23 1_555 1_555
C24 C23 1_555 1_555
C25 C24 1_555 1_555
C26 C25 1_555 1_555
H11 C26 1_555 1_555
C27 C22 1_555 1_555
C28 C27 1_555 1_555
C29 C25 1_555 1_555
Ho1 O3 1_555 1_555
N1 C9 1_555 1_555
H12 N1 1_555 1_555
O1 C1 1_555 1_555
O2 C1 1_555 1_555
O3 C8 1_555 1_555
O4 C8 1_555 1_555
O10 C28 1_555 1_555
O12 C29 1_555 1_555
Ho5 O2 1_555 1_555
Ho9 O1 1_555 1_555
O28 Ho1 1_555 1_555
O33 Ho1 1_555 1_555
O35 Ho1 1_555 1_555
C6 C7 1_555 1_555
C10 N1 1_555 1_555
C12 C21 1_555 1_555
C26 C27 1_555 1_555
Ho1 O4 1_555 1_555
Ho1 O5 1_555 1_555
O10 Ho13 1_555 1_555
C14 C13 1_555 1_555
H5 C14 1_555 1_555
C15 C14 1_555 1_555
C16 C15 1_555 1_555
C17 C16 1_555 1_555
H7 C17 1_555 1_555
C18 C13 1_555 1_555
C19 C18 1_555 1_555
C20 C16 1_555 1_555
Ho2 O7 1_555 1_555
O6 C19 1_555 1_555
O7 C20 1_555 1_555
O20 Ho2 1_555 1_555
Ho7 O23 1_555 1_555
Ho13 O21 1_555 1_555
O29 Ho2 1_555 1_555
O32 Ho2 1_555 1_555
C17 C18 1_555 1_555
Ho6 O11 1_555 1_555
Ho13_2 O9 1_555 1_555
C30 C31 1_555 1_555
C31 C32 1_555 1_555
C32 H13 1_555 1_555
C33 C32 1_555 1_555
C34 C33 1_555 1_555
C35 C34 1_555 1_555
H14 C35 1_555 1_555
C36 C31 1_555 1_555
H15 C36 1_555 1_555
C37 C33 1_555 1_555
C38 C34 1_555 1_555
C39 C40 1_555 1_555
C40 H16 1_555 1_555
C41 C40 1_555 1_555
C42 C39 1_555 1_555
C43 C42 1_555 1_555
H17 C43 1_555 1_555
C44 C43 1_555 1_555
C45 C44 1_555 1_555
C46 C45 1_555 1_555
H19 C46 1_555 1_555
C47 C42 1_555 1_555
C48 C47 1_555 1_555
C49 C45 1_555 1_555
C50 C38 1_555 1_555
H20 C50 1_555 1_555
C51 C41 1_555 1_555
C52 C51 1_555 1_555
H21 C52 1_555 1_555
C53 C52 1_555 1_555
H22 C53 1_555 1_555
C54 C53 1_555 1_555
C55 C54 1_555 1_555
H23 C55 1_555 1_555
C56 C51 1_555 1_555
C57 C56 1_555 1_555
C58 C54 1_555 1_555
Ho5 O15 1_555 1_555
N2 C38 1_555 1_555
H24 N2 1_555 1_555
O13 C30 1_555 1_555
O28 C30 1_555 1_555
O15 C37 1_555 1_555
O16 C37 1_555 1_555
O17 C48 1_555 1_555
O18 C48 1_555 1_555
O19 Ho2_2 1_555 1_555
O22 C57 1_555 1_555
O24 C58 1_555 1_555
O25 Ho5 1_555 1_555
O30 Ho2_2 1_555 1_555
O31 Ho2_2 1_555 1_555
O34 Ho5 1_555 1_555
O36 Ho5 1_555 1_555
O38 Ho5 1_555 1_555
Ho2_2 O8 1_555 1_555
C35 C36 1_555 1_555
C39 N2 1_555 1_555
C41 C50 1_555 1_555
C46 C47 1_555 1_555
C49 O19 1_555 1_555
C55 C56 1_555 1_555
Ho5 O16 1_555 1_555
Ho5 O17 1_555 1_555
Ho5 O18 1_555 1_555
O22 Ho13_2 1_555 1_555
C1_2 C2_2 1_555 1_555
C2_2 C3_2 1_555 1_555
C3_2 H1_2 1_555 1_555
C4_2 C3_2 1_555 1_555
C5_2 C4_2 1_555 1_555
C6_2 C5_2 1_555 1_555
H2_2 C6_2 1_555 1_555
C7_2 C2_2 1_555 1_555
H3_2 C7_2 1_555 1_555
C8_2 C4_2 1_555 1_555
C9_2 C5_2 1_555 1_555
C10_2 C11_2 1_555 1_555
C11_2 H4_2 1_555 1_555
C12_2 C11_2 1_555 1_555
C21_2 C9_2 1_555 1_555
H8_2 C21_2 1_555 1_555
C22_2 C12_2 1_555 1_555
C23_2 C22_2 1_555 1_555
H9_2 C23_2 1_555 1_555
C24_2 C23_2 1_555 1_555
C25_2 C24_2 1_555 1_555
C26_2 C25_2 1_555 1_555
H11_2 C26_2 1_555 1_555
C27_2 C22_2 1_555 1_555
C28_2 C27_2 1_555 1_555
C29_2 C25_2 1_555 1_555
N1_2 C9_2 1_555 1_555
H12_2 N1_2 1_555 1_555
O1_2 C1_2 1_555 1_555
O2_2 C1_2 1_555 1_555
O4_2 C8_2 1_555 1_555
O9_2 C28_2 1_555 1_555
O10_2 C28_2 1_555 1_555
O33 C29_2 1_555 1_555
O35 C29_2 1_555 1_555
Ho11 O1_2 1_555 1_555
Ho13_3 O9_2 1_555 1_555
C6_2 C7_2 1_555 1_555
C10_2 N1_2 1_555 1_555
C12_2 C21_2 1_555 1_555
C26_2 C27_2 1_555 1_555
O10_2 Ho13_3 1_555 1_555
C14_2 C13_2 1_555 1_555
H5_2 C14_2 1_555 1_555
C15_2 C14_2 1_555 1_555
H6_2 C15_2 1_555 1_555
C18_2 C13_2 1_555 1_555
C19_2 C18_2 1_555 1_555
O6_2 C19_2 1_555 1_555
C30_2 C31_2 1_555 1_555
C31_2 C32_2 1_555 1_555
C32_2 H13_2 1_555 1_555
C33_2 C32_2 1_555 1_555
C34_2 C33_2 1_555 1_555
C35_2 C34_2 1_555 1_555
H14_2 C35_2 1_555 1_555
C36_2 C31_2 1_555 1_555
H15_2 C36_2 1_555 1_555
C37_2 C33_2 1_555 1_555
C38_2 C34_2 1_555 1_555
C39_2 C40_2 1_555 1_555
C40_2 H16_2 1_555 1_555
C41_2 C40_2 1_555 1_555
C42_2 C39_2 1_555 1_555
C43_2 C42_2 1_555 1_555
H17_2 C43_2 1_555 1_555
C44_2 C43_2 1_555 1_555
H18_2 C44_2 1_555 1_555
C47_2 C42_2 1_555 1_555
C48_2 C47_2 1_555 1_555
C50_2 C38_2 1_555 1_555
H20_2 C50_2 1_555 1_555
C51_2 C41_2 1_555 1_555
C52_2 C51_2 1_555 1_555
H21_2 C52_2 1_555 1_555
C53_2 C52_2 1_555 1_555
H22_2 C53_2 1_555 1_555
C54_2 C53_2 1_555 1_555
C55_2 C54_2 1_555 1_555
H23_2 C55_2 1_555 1_555
C56_2 C51_2 1_555 1_555
C57_2 C56_2 1_555 1_555
C58_2 C54_2 1_555 1_555
N2_2 C38_2 1_555 1_555
H24_2 N2_2 1_555 1_555
O13_2 C30_2 1_555 1_555
O28_2 C30_2 1_555 1_555
O16_2 C37_2 1_555 1_555
O18_2 C48_2 1_555 1_555
O21_2 C57_2 1_555 1_555
O22_2 C57_2 1_555 1_555
O34 C58_2 1_555 1_555
O36 C58_2 1_555 1_555
Ho9 O36 1_555 1_555
Ho13_3 O21_2 1_555 1_555
C35_2 C36_2 1_555 1_555
C39_2 N2_2 1_555 1_555
C41_2 C50_2 1_555 1_555
C55_2 C56_2 1_555 1_555
O22_2 Ho13_3 1_555 1_555
Ho6 O3_2 1_555 1_555
Ho6 O5_2 1_555 1_555
C17_2 C16_2 1_555 1_555
H7_2 C17_2 1_555 1_555
C20_2 C16_2 1_555 1_555
Ho2_3 O7_2 1_555 1_555
O7_2 C20_2 1_555 1_555
O8_2 C20_2 1_555 1_555
C46_2 C45_2 1_555 1_555
H19_2 C46_2 1_555 1_555
C49_2 C45_2 1_555 1_555
Ho7 O15_2 1_555 1_555
O19_2 Ho2_3 1_555 1_555
O20_2 Ho2_3 1_555 1_555
O25_2 Ho7 1_555 1_555
O29_2 Ho2_3 1_555 1_555
O30_2 Ho2_3 1_555 1_555
O31_2 Ho2_3 1_555 1_555
O32_2 Ho2_3 1_555 1_555
Ho2_3 O8_2 1_555 1_555
C49_2 O19_2 1_555 1_555
C49_2 O20_2 1_555 1_555
Ho7 O17_2 1_555 1_555
C30_3 C31_3 1_555 1_555
C31_3 C32_3 1_555 1_555
C32_3 H13_3 1_555 1_555
C33_3 C32_3 1_555 1_555
C34_3 C33_3 1_555 1_555
C35_3 C34_3 1_555 1_555
H14_3 C35_3 1_555 1_555
C36_3 C31_3 1_555 1_555
H15_3 C36_3 1_555 1_555
C37_3 C33_3 1_555 1_555
C38_3 C34_3 1_555 1_555
C39_3 C40_3 1_555 1_555
C40_3 H16_3 1_555 1_555
C41_3 C40_3 1_555 1_555
C42_3 C39_3 1_555 1_555
C43_3 C42_3 1_555 1_555
H17_3 C43_3 1_555 1_555
C44_3 C43_3 1_555 1_555
C45_3 C44_3 1_555 1_555
C46_3 C45_3 1_555 1_555
H19_3 C46_3 1_555 1_555
C47_3 C42_3 1_555 1_555
C48_3 C47_3 1_555 1_555
C49_3 C45_3 1_555 1_555
C50_3 C38_3 1_555 1_555
H20_3 C50_3 1_555 1_555
C51_3 C41_3 1_555 1_555
C52_3 C51_3 1_555 1_555
H21_3 C52_3 1_555 1_555
C53_3 C52_3 1_555 1_555
H22_3 C53_3 1_555 1_555
C54_3 C53_3 1_555 1_555
C55_3 C54_3 1_555 1_555
H23_3 C55_3 1_555 1_555
C56_3 C51_3 1_555 1_555
C57_3 C56_3 1_555 1_555
C58_3 C54_3 1_555 1_555
Ho9 O15_3 1_555 1_555
N2_3 C38_3 1_555 1_555
H24_3 N2_3 1_555 1_555
O26 C30_3 1_555 1_555
O14 C30_3 1_555 1_555
O15_3 C37_3 1_555 1_555
O16_3 C37_3 1_555 1_555
O17_3 C48_3 1_555 1_555
O18_3 C48_3 1_555 1_555
O19_3 Ho13 1_555 1_555
O32 C57_3 1_555 1_555
O38_2 C58_3 1_555 1_555
Ho8 O14 1_555 1_555
O27 Ho9 1_555 1_555
O34_2 Ho9 1_555 1_555
O38 Ho9 1_555 1_555
Ho13 O8_3 1_555 1_555
C35_3 C36_3 1_555 1_555
C39_3 N2_3 1_555 1_555
C41_3 C50_3 1_555 1_555
C46_3 C47_3 1_555 1_555
C49_3 O19_3 1_555 1_555
C55_3 C56_3 1_555 1_555
Ho9 O16_3 1_555 1_555
Ho9 O17_3 1_555 1_555
Ho9 O18_3 1_555 1_555
Ho10 O11_2 1_555 1_555
C14_3 C13_3 1_555 1_555
H5_3 C14_3 1_555 1_555
C15_3 C14_3 1_555 1_555
C16_3 C15_3 1_555 1_555
C17_3 C16_3 1_555 1_555
H7_3 C17_3 1_555 1_555
C18_3 C13_3 1_555 1_555
C19_3 C18_3 1_555 1_555
C20_3 C16_3 1_555 1_555
Ho13_2 O7_3 1_555 1_555
O6_3 C19_3 1_555 1_555
O7_3 C20_3 1_555 1_555
O20_3 Ho13_2 1_555 1_555
Ho11 O23_2 1_555 1_555
C17_3 C18_3 1_555 1_555
C1_3 C2_3 1_555 1_555
C2_3 C3_3 1_555 1_555
C3_3 H1_3 1_555 1_555
C4_3 C3_3 1_555 1_555
C5_3 C4_3 1_555 1_555
C6_3 C5_3 1_555 1_555
H2_3 C6_3 1_555 1_555
C7_3 C2_3 1_555 1_555
H3_3 C7_3 1_555 1_555
C8_3 C4_3 1_555 1_555
C9_3 C5_3 1_555 1_555
C10_3 C11_3 1_555 1_555
C11_3 H4_3 1_555 1_555
C12_3 C11_3 1_555 1_555
C21_3 C9_3 1_555 1_555
H8_3 C21_3 1_555 1_555
C22_3 C12_3 1_555 1_555
C23_3 C22_3 1_555 1_555
H9_3 C23_3 1_555 1_555
C24_3 C23_3 1_555 1_555
C25_3 C24_3 1_555 1_555
C26_3 C25_3 1_555 1_555
H11_3 C26_3 1_555 1_555
C27_3 C22_3 1_555 1_555
C28_3 C27_3 1_555 1_555
C29_3 C25_3 1_555 1_555
Ho8 O3_3 1_555 1_555
N1_3 C9_3 1_555 1_555
H12_3 N1_3 1_555 1_555
O25 C1_3 1_555 1_555
O27 C1_3 1_555 1_555
O3_3 C8_3 1_555 1_555
O4_3 C8_3 1_555 1_555
O31 C28_3 1_555 1_555
O37_2 C29_3 1_555 1_555
O33_2 Ho8 1_555 1_555
O37 Ho8 1_555 1_555
C6_3 C7_3 1_555 1_555
C10_3 N1_3 1_555 1_555
C12_3 C21_3 1_555 1_555
C26_3 C27_3 1_555 1_555
Ho8 O4_3 1_555 1_555
Ho8 O5_3 1_555 1_555
C17_4 C16_4 1_555 1_555
H7_4 C17_4 1_555 1_555
C20_4 C16_4 1_555 1_555
Ho13_3 O7_4 1_555 1_555
O7_4 C20_4 1_555 1_555
O8_4 C20_4 1_555 1_555
C46_4 C45_4 1_555 1_555
H19_4 C46_4 1_555 1_555
C49_4 C45_4 1_555 1_555
Ho11 O15_4 1_555 1_555
O19_4 Ho13_3 1_555 1_555
O20_4 Ho13_3 1_555 1_555
Ho13_3 O8_4 1_555 1_555
C49_4 O19_4 1_555 1_555
C49_4 O20_4 1_555 1_555
Ho11 O17_4 1_555 1_555
Ho10 O3_4 1_555 1_555
Ho10 O5_4 1_555 1_555
C14_4 C13_4 1_555 1_555
H5_4 C14_4 1_555 1_555
C15_4 C14_4 1_555 1_555
H6_4 C15_4 1_555 1_555
C18_4 C13_4 1_555 1_555
C19_4 C18_4 1_555 1_555
O6_4 C19_4 1_555 1_555
C30_4 C31_4 1_555 1_555
C31_4 C32_4 1_555 1_555
C32_4 H13_4 1_555 1_555
C33_4 C32_4 1_555 1_555
C34_4 C33_4 1_555 1_555
C35_4 C34_4 1_555 1_555
H14_4 C35_4 1_555 1_555
C36_4 C31_4 1_555 1_555
H15_4 C36_4 1_555 1_555
C37_4 C33_4 1_555 1_555
C38_4 C34_4 1_555 1_555
C39_4 C40_4 1_555 1_555
C40_4 H16_4 1_555 1_555
C41_4 C40_4 1_555 1_555
C42_4 C39_4 1_555 1_555
C43_4 C42_4 1_555 1_555
H17_4 C43_4 1_555 1_555
C44_4 C43_4 1_555 1_555
H18_4 C44_4 1_555 1_555
C47_4 C42_4 1_555 1_555
C48_4 C47_4 1_555 1_555
C50_4 C38_4 1_555 1_555
H20_4 C50_4 1_555 1_555
C51_4 C41_4 1_555 1_555
C52_4 C51_4 1_555 1_555
H21_4 C52_4 1_555 1_555
C53_4 C52_4 1_555 1_555
H22_4 C53_4 1_555 1_555
C54_4 C53_4 1_555 1_555
C55_4 C54_4 1_555 1_555
H23_4 C55_4 1_555 1_555
C56_4 C51_4 1_555 1_555
C57_4 C56_4 1_555 1_555
C58_4 C54_4 1_555 1_555
N2_4 C38_4 1_555 1_555
H24_4 N2_4 1_555 1_555
O26_2 C30_4 1_555 1_555
O14_2 C30_4 1_555 1_555
O16_4 C37_4 1_555 1_555
O18_4 C48_4 1_555 1_555
O30_2 C57_4 1_555 1_555
O32_2 C57_4 1_555 1_555
O34_2 C58_4 1_555 1_555
O38 C58_4 1_555 1_555
C35_4 C36_4 1_555 1_555
C39_4 N2_4 1_555 1_555
C41_4 C50_4 1_555 1_555
C55_4 C56_4 1_555 1_555
C1_4 C2_4 1_555 1_555
C2_4 C3_4 1_555 1_555
C3_4 H1_4 1_555 1_555
C4_4 C3_4 1_555 1_555
C5_4 C4_4 1_555 1_555
C6_4 C5_4 1_555 1_555
H2_4 C6_4 1_555 1_555
C7_4 C2_4 1_555 1_555
H3_4 C7_4 1_555 1_555
C8_4 C4_4 1_555 1_555
C9_4 C5_4 1_555 1_555
C10_4 C11_4 1_555 1_555
C11_4 H4_4 1_555 1_555
C12_4 C11_4 1_555 1_555
C21_4 C9_4 1_555 1_555
H8_4 C21_4 1_555 1_555
C22_4 C12_4 1_555 1_555
C23_4 C22_4 1_555 1_555
H9_4 C23_4 1_555 1_555
C24_4 C23_4 1_555 1_555
C25_4 C24_4 1_555 1_555
C26_4 C25_4 1_555 1_555
H11_4 C26_4 1_555 1_555
C27_4 C22_4 1_555 1_555
C28_4 C27_4 1_555 1_555
C29_4 C25_4 1_555 1_555
N1_4 C9_4 1_555 1_555
H12_4 N1_4 1_555 1_555
O25_2 C1_4 1_555 1_555
O27_2 C1_4 1_555 1_555
O4_4 C8_4 1_555 1_555
O29_2 C28_4 1_555 1_555
O31_2 C28_4 1_555 1_555
O33_2 C29_4 1_555 1_555
O37 C29_4 1_555 1_555
C6_4 C7_4 1_555 1_555
C10_4 N1_4 1_555 1_555
C12_4 C21_4 1_555 1_555
C26_4 C27_4 1_555 1_555

#END
