
###############################################################################
#
# This file contains modified crystal structure data generated from the
# MOF subset of the Cambridge Structural Database (CSD) v543 
# hosted by the Cambridge Crystallographic Data Centre (CCDC).
#
# This work is licensed under the Creative Commons
# Attribution-NonCommercial-ShareAlike 4.0 International License.
# To view a copy of this license, visit
# http://creativecommons.org/licenses/by-nc-sa/4.0/
# or send a letter to
# Creative Commons, PO Box 1866, Mountain View, CA 94042, USA.
#
# CIF created using the CSD Python API on 29 September 2022
# The structure has been converted into the P1 space group
# The structure has a 3D framework
# The original CSD entry HUSFEJ is in the monoclinic crystal system
# The framework has been calculated to contain at least 10.0% void space
# The void calculation uses a probe of radius 1.32A, grid spacing 0.4
# The framework is charged, counterions have been retained in the structure
#
###############################################################################

data_HUSFEJ
_chemical_formula_moiety         '(C232 H96 Er14 N8 O86 7-)n'
_symmetry_cell_setting           triclinic
_symmetry_space_group_name_H-M   'P 1'
_symmetry_Int_Tables_number      1
_space_group_name_Hall           'P 1'
loop_
_symmetry_equiv_pos_site_id
_symmetry_equiv_pos_as_xyz
1 x,y,z
_cell_length_a                   19.0782(13)
_cell_length_b                   23.1744(15)
_cell_length_c                   21.3856(12)
_cell_angle_alpha                90
_cell_angle_beta                 101.989(2)
_cell_angle_gamma                90
_cell_volume                     9248.89
loop_
_atom_site_label
_atom_site_type_symbol
_atom_site_fract_x
_atom_site_fract_y
_atom_site_fract_z
H2 H 0.0052 0.5047 0.0987
O8 O 0.0082(4) 0.4241(5) 0.1801(5)
Er12 Er -0.0000 0.34755(2) 0.2500
Er2 Er -0.0000 0.65245(2) 0.7500
O10 O 0.0398(3) 0.9023(2) 0.9330(3)
O11 O 0.0146(7) 0.7198(6) 0.8298(6)
Er4 Er 0.084107(15) 0.995841(12) 0.958252(12)
O27 O 0.0982(4) 0.6103(3) 0.8221(4)
O30 O 0.0082(4) 0.5759(5) 0.6801(5)
O36 O 0.0941(5) 0.6906(6) 0.7060(5)
Er8 Er 0.915893(15) 0.004159(12) 0.041748(12)
Er9 Er 0.084107(15) 0.004159(12) 0.458252(12)
C1 C 0.7313(4) 0.4989(4) 0.0007(4)
C2 C 0.8120(5) 0.5006(4) 0.0268(4)
C3 C 0.8401(4) 0.4631(5) 0.0754(4)
H1 H 0.8103 0.4368 0.0899
C4 C 0.9122(5) 0.4644(5) 0.1027(5)
C5 C 0.9564(6) 0.5041(5) 0.0808(6)
C6 C 0.9287(5) 0.5421(5) 0.0333(5)
H3 H 0.9589 0.5685 0.0195
C7 C 0.8565(4) 0.5421(4) 0.0052(4)
C8 C 0.9425(5) 0.4240(5) 0.1568(5)
H7 H 0.8814 0.8513 0.0096
O5 O 0.6946(3) 0.5417(3) 0.0106(3)
O7 O 0.9018(4) 0.3897(3) 0.1779(4)
Er6 Er 0.415893(15) 0.504159(12) 0.041748(12)
Er12_2 Er 1.0000 0.34755(2) 0.2500
O26 O 0.6084(3) 0.4561(3) 0.0613(2)
O31 O 0.5360(3) 0.5646(2) 0.0108(2)
C9 C 0.8293(4) 0.5841(4) 0.9535(4)
C10 C 0.7593(4) 0.6081(4) 0.8518(3)
C11 C 0.7869(4) 0.6636(3) 0.8584(3)
H4 H 0.7723 0.6907 0.8262
C12 C 0.8353(4) 0.6783(3) 0.9123(4)
C13 C 0.8566(4) 0.6387(3) 0.9610(4)
H5 H 0.8888 0.6491 0.9982
C14 C 0.8698(4) 0.7358(3) 0.9205(4)
C15 C 0.8567(6) 0.7733(4) 0.9660(5)
H6 H 0.8229 0.7631 0.9898
C16 C 0.8921(5) 0.8267(4) 0.9785(5)
C17 C 0.9430(4) 0.8420(3) 0.9437(4)
C18 C 0.9566(6) 0.8043(4) 0.8982(5)
H8 H 0.9916 0.8141 0.8756
C19 C 0.9205(6) 0.7520(4) 0.8842(4)
C20 C 0.5825(4) 0.5368(3) 0.6099(3)
C21 C 0.9435(6) 0.7144(4) 0.8345(5)
C22 C 0.9846(4) 0.8963(3) 0.9560(3)
C23 C 0.7108(4) 0.5915(3) 0.7910(3)
C24 C 0.6492(4) 0.5572(3) 0.7889(3)
C25 C 0.6081(4) 0.5412(3) 0.7302(3)
H9 H 0.5667 0.5197 0.7289
C26 C 0.6274(4) 0.5564(3) 0.6729(3)
C27 C 0.6897(5) 0.5882(4) 0.6755(4)
H10 H 0.7041 0.5977 0.6379
C28 C 0.7305(5) 0.6061(4) 0.7339(4)
H11 H 0.7715 0.6281 0.7348
C29 C 0.6242(4) 0.5384(3) 0.8477(3)
Er1 Er 0.584107(15) 0.495841(12) 0.958252(12)
Er2_2 Er 1.0000 0.65245(2) 0.7500
N1 N 0.7813(4) 0.5680(3) 0.8997(3)
H12 H 0.7649 0.5334 0.8956
O1 O 0.6154(3) 0.5739(3) 0.8891(3)
O2 O 0.6111(3) 0.4849(3) 0.8532(3)
O3 O 0.6084(3) 0.5439(3) 0.5613(2)
O4 O 0.5228(3) 0.5154(3) 0.6125(2)
O6 O 0.7037(3) 0.4540(3) 0.9733(3)
O9 O 0.9640(3) 0.9354(2) 0.9892(2)
O12 O 0.9059(5) 0.6906(6) 0.7940(5)
C30 C 0.2687(4) 0.4989(4) 0.4993(4)
C31 C 0.1880(5) 0.5006(4) 0.4732(4)
C32 C 0.1599(4) 0.4631(5) 0.4246(4)
H13 H 0.1897 0.4368 0.4101
C33 C 0.0878(5) 0.4644(5) 0.3973(5)
C34 C 0.0436(6) 0.5041(5) 0.4192(6)
C35 C 0.0713(5) 0.5421(5) 0.4667(5)
H15 H 0.0411 0.5685 0.4805
C36 C 0.1435(4) 0.5421(4) 0.4948(4)
C37 C 0.0575(5) 0.4240(5) 0.3432(5)
C38 C 0.1707(4) 0.5841(4) 0.5465(4)
C39 C 0.2407(4) 0.6081(4) 0.6482(3)
C40 C 0.2131(4) 0.6636(3) 0.6416(3)
H16 H 0.2277 0.6907 0.6738
C41 C 0.1647(4) 0.6783(3) 0.5877(4)
C42 C 0.1434(4) 0.6387(3) 0.5390(4)
H17 H 0.1112 0.6491 0.5018
C43 C 0.1302(4) 0.7358(3) 0.5795(4)
C44 C 0.1433(6) 0.7733(4) 0.5340(5)
H18 H 0.1771 0.7631 0.5102
C45 C 0.1079(5) 0.8267(4) 0.5215(5)
H19 H 0.1186 0.8513 0.4904
C46 C 0.0570(4) 0.8420(3) 0.5563(4)
C47 C 0.0434(6) 0.8043(4) 0.6018(5)
H20 H 0.0084 0.8141 0.6244
C48 C 0.0795(6) 0.7520(4) 0.6158(4)
C49 C 0.4175(4) 0.5368(3) 0.8901(3)
C50 C 0.0565(6) 0.7144(4) 0.6655(5)
C51 C 0.0154(4) 0.8963(3) 0.5440(3)
C52 C 0.2892(4) 0.5915(3) 0.7090(3)
C53 C 0.3508(4) 0.5572(3) 0.7111(3)
C54 C 0.3919(4) 0.5412(3) 0.7698(3)
H21 H 0.4333 0.5197 0.7711
C55 C 0.3726(4) 0.5564(3) 0.8271(3)
C56 C 0.3103(5) 0.5882(4) 0.8245(4)
H22 H 0.2959 0.5977 0.8621
C57 C 0.2695(5) 0.6061(4) 0.7661(4)
H23 H 0.2285 0.6281 0.7652
C58 C 0.3758(4) 0.5384(3) 0.6523(3)
Er3 Er 0.415893(15) 0.495841(12) 0.541748(12)
N2 N 0.2187(4) 0.5680(3) 0.6003(3)
H24 H 0.2351 0.5334 0.6044
O13 O 0.3846(3) 0.5739(3) 0.6109(3)
O14 O 0.3889(3) 0.4849(3) 0.6468(3)
O15 O 0.3916(3) 0.5439(3) 0.9387(2)
O16 O 0.4772(3) 0.5154(3) 0.8875(2)
O17 O 0.3054(3) 0.5417(3) 0.4894(3)
O18 O 0.2963(3) 0.4540(3) 0.5267(3)
O19 O 0.0982(4) 0.3897(3) 0.3221(4)
O21 O 0.0360(3) 0.9354(2) 0.5108(2)
Er7 Er 0.584107(15) 0.504159(12) 0.458252(12)
O25 O 0.3916(3) 0.4561(3) 0.4387(2)
O28 O 0.9018(4) 0.6103(3) 0.6779(4)
O29 O 0.9918(4) 0.5759(5) 0.8199(5)
O32 O 0.4640(3) 0.5646(2) 0.4892(2)
O33 O 0.5398(3) 0.4023(2) 0.9330(3)
O34 O 0.4602(3) 0.4023(2) 0.5670(3)
O35 O 0.9854(7) 0.7198(6) 0.6702(6)
H14 H 0.9948 0.5047 0.4013
O20 O 0.9918(4) 0.4241(5) 0.3199(5)
O22 O 0.9602(3) 0.9023(2) 0.5670(3)
Er5 Er 0.915893(15) 0.995841(12) 0.541748(12)
C2_2 C 0.3120(5) 0.0006(4) 0.0268(4)
C5_2 C 0.4564(6) 0.0041(5) 0.0808(6)
H2_2 H 0.5052 0.0047 0.0987
C6_2 C 0.4287(5) 0.0421(5) 0.0333(5)
H3_2 H 0.4589 0.0685 0.0195
C7_2 C 0.3565(4) 0.0421(4) 0.0052(4)
H7_2 H 0.3814 0.3513 0.0096
O5_2 O 0.1946(3) 0.0417(3) 0.0106(3)
O31_2 O 0.0360(3) 0.0646(2) 0.0108(2)
C9_2 C 0.3293(4) 0.0841(4) 0.9535(4)
C10_2 C 0.2593(4) 0.1081(4) 0.8518(3)
C11_2 C 0.2869(4) 0.1636(3) 0.8584(3)
H4_2 H 0.2723 0.1907 0.8262
C12_2 C 0.3353(4) 0.1783(3) 0.9123(4)
C13_2 C 0.3566(4) 0.1387(3) 0.9610(4)
H5_2 H 0.3888 0.1491 0.9982
C14_2 C 0.3698(4) 0.2358(3) 0.9205(4)
C15_2 C 0.3567(6) 0.2733(4) 0.9660(5)
H6_2 H 0.3229 0.2631 0.9898
C16_2 C 0.3921(5) 0.3267(4) 0.9785(5)
C17_2 C 0.4430(4) 0.3420(3) 0.9437(4)
C18_2 C 0.4566(6) 0.3043(4) 0.8982(5)
H8_2 H 0.4916 0.3141 0.8756
C19_2 C 0.4205(6) 0.2520(4) 0.8842(4)
C20_2 C 0.0825(4) 0.0368(3) 0.6099(3)
C21_2 C 0.4435(6) 0.2144(4) 0.8345(5)
C22_2 C 0.4846(4) 0.3963(3) 0.9560(3)
C23_2 C 0.2108(4) 0.0915(3) 0.7910(3)
C24_2 C 0.1492(4) 0.0572(3) 0.7889(3)
C25_2 C 0.1081(4) 0.0412(3) 0.7302(3)
H9_2 H 0.0667 0.0197 0.7289
C26_2 C 0.1274(4) 0.0564(3) 0.6729(3)
C27_2 C 0.1897(5) 0.0882(4) 0.6755(4)
H10_2 H 0.2041 0.0977 0.6379
C28_2 C 0.2305(5) 0.1061(4) 0.7339(4)
H11_2 H 0.2715 0.1281 0.7348
C29_2 C 0.1242(4) 0.0384(3) 0.8477(3)
Er2_3 Er 0.5000 0.15245(2) 0.7500
N1_2 N 0.2813(4) 0.0680(3) 0.8997(3)
H12_2 H 0.2649 0.0334 0.8956
O1_2 O 0.1154(3) 0.0739(3) 0.8891(3)
O3_2 O 0.1084(3) 0.0439(3) 0.5613(2)
O4_2 O 0.0228(3) 0.0154(3) 0.6125(2)
O9_2 O 0.4640(3) 0.4354(2) 0.9892(2)
O11_2 O 0.5146(7) 0.2198(6) 0.8298(6)
O12_2 O 0.4059(5) 0.1906(6) 0.7940(5)
O27_2 O 0.5982(4) 0.1103(3) 0.8221(4)
O28_2 O 0.4018(4) 0.1103(3) 0.6779(4)
O29_2 O 0.4918(4) 0.0759(5) 0.8199(5)
O30_2 O 0.5082(4) 0.0759(5) 0.6801(5)
O35_2 O 0.4854(7) 0.2198(6) 0.6702(6)
O36_2 O 0.5941(5) 0.1906(6) 0.7060(5)
C1_2 C 0.2313(4) 0.9989(4) 0.0007(4)
C3_2 C 0.3401(4) 0.9631(5) 0.0754(4)
H1_2 H 0.3103 0.9368 0.0899
C4_2 C 0.4122(5) 0.9644(5) 0.1027(5)
C8_2 C 0.4425(5) 0.9240(5) 0.1568(5)
O7_2 O 0.4018(4) 0.8897(3) 0.1779(4)
O8_2 O 0.5082(4) 0.9241(5) 0.1801(5)
Er12_3 Er 0.5000 0.84755(2) 0.2500
O26_2 O 0.1084(3) 0.9561(3) 0.0613(2)
O2_2 O 0.1111(3) 0.9849(3) 0.8532(3)
O6_2 O 0.2037(3) 0.9540(3) 0.9733(3)
C31_2 C 0.6880(5) 0.0006(4) 0.4732(4)
C34_2 C 0.5436(6) 0.0041(5) 0.4192(6)
H14_2 H 0.4948 0.0047 0.4013
C35_2 C 0.5713(5) 0.0421(5) 0.4667(5)
H15_2 H 0.5411 0.0685 0.4805
C36_2 C 0.6435(4) 0.0421(4) 0.4948(4)
C38_2 C 0.6707(4) 0.0841(4) 0.5465(4)
C39_2 C 0.7407(4) 0.1081(4) 0.6482(3)
C40_2 C 0.7131(4) 0.1636(3) 0.6416(3)
H16_2 H 0.7277 0.1907 0.6738
C41_2 C 0.6647(4) 0.1783(3) 0.5877(4)
C42_2 C 0.6434(4) 0.1387(3) 0.5390(4)
H17_2 H 0.6112 0.1491 0.5018
C43_2 C 0.6302(4) 0.2358(3) 0.5795(4)
C44_2 C 0.6433(6) 0.2733(4) 0.5340(5)
H18_2 H 0.6771 0.2631 0.5102
C45_2 C 0.6079(5) 0.3267(4) 0.5215(5)
H19_2 H 0.6186 0.3513 0.4904
C46_2 C 0.5570(4) 0.3420(3) 0.5563(4)
C47_2 C 0.5434(6) 0.3043(4) 0.6018(5)
H20_2 H 0.5084 0.3141 0.6244
C48_2 C 0.5795(6) 0.2520(4) 0.6158(4)
C49_2 C 0.9175(4) 0.0368(3) 0.8901(3)
C50_2 C 0.5565(6) 0.2144(4) 0.6655(5)
C51_2 C 0.5154(4) 0.3963(3) 0.5440(3)
C52_2 C 0.7892(4) 0.0915(3) 0.7090(3)
C53_2 C 0.8508(4) 0.0572(3) 0.7111(3)
C54_2 C 0.8919(4) 0.0412(3) 0.7698(3)
H21_2 H 0.9333 0.0197 0.7711
C55_2 C 0.8726(4) 0.0564(3) 0.8271(3)
C56_2 C 0.8103(5) 0.0882(4) 0.8245(4)
H22_2 H 0.7959 0.0977 0.8621
C57_2 C 0.7695(5) 0.1061(4) 0.7661(4)
H23_2 H 0.7285 0.1281 0.7652
C58_2 C 0.8758(4) 0.0384(3) 0.6523(3)
N2_2 N 0.7187(4) 0.0680(3) 0.6003(3)
H24_2 H 0.7351 0.0334 0.6044
O13_2 O 0.8846(3) 0.0739(3) 0.6109(3)
O15_2 O 0.8916(3) 0.0439(3) 0.9387(2)
O16_2 O 0.9772(3) 0.0154(3) 0.8875(2)
O17_2 O 0.8054(3) 0.0417(3) 0.4894(3)
O21_2 O 0.5360(3) 0.4354(2) 0.5108(2)
O32_2 O 0.9640(3) 0.0646(2) 0.4892(2)
C30_2 C 0.7687(4) 0.9989(4) 0.4993(4)
C32_2 C 0.6599(4) 0.9631(5) 0.4246(4)
H13_2 H 0.6897 0.9368 0.4101
C33_2 C 0.5878(5) 0.9644(5) 0.3973(5)
C37_2 C 0.5575(5) 0.9240(5) 0.3432(5)
O14_2 O 0.8889(3) 0.9849(3) 0.6468(3)
O18_2 O 0.7963(3) 0.9540(3) 0.5267(3)
O19_2 O 0.5982(4) 0.8897(3) 0.3221(4)
O20_2 O 0.4918(4) 0.9241(5) 0.3199(5)
O25_2 O 0.8916(3) 0.9561(3) 0.4387(2)
H14_3 H 0.0052 0.4953 0.5987
O22_2 O 0.0398(3) 0.0977(2) 0.4330(3)
O23 O 0.0146(7) 0.2802(6) 0.3298(6)
C9_3 C 0.1707(4) 0.4159(4) 0.0465(4)
C10_3 C 0.2407(4) 0.3919(4) 0.1482(3)
C11_3 C 0.2131(4) 0.3364(3) 0.1416(3)
H4_3 H 0.2277 0.3093 0.1738
C12_3 C 0.1647(4) 0.3217(3) 0.0877(4)
C13_3 C 0.1434(4) 0.3613(3) 0.0390(4)
H5_3 H 0.1112 0.3509 0.0018
C14_3 C 0.1302(4) 0.2642(3) 0.0795(4)
C15_3 C 0.1433(6) 0.2267(4) 0.0340(5)
H6_3 H 0.1771 0.2369 0.0102
C16_3 C 0.1079(5) 0.1733(4) 0.0215(5)
C17_3 C 0.0570(4) 0.1580(3) 0.0563(4)
C18_3 C 0.0434(6) 0.1957(4) 0.1018(5)
H8_3 H 0.0084 0.1859 0.1244
C19_3 C 0.0795(6) 0.2480(4) 0.1158(4)
C20_3 C 0.4175(4) 0.4632(3) 0.3901(3)
C21_3 C 0.0565(6) 0.2856(4) 0.1655(5)
C22_3 C 0.0154(4) 0.1037(3) 0.0440(3)
C23_3 C 0.2892(4) 0.4085(3) 0.2090(3)
C24_3 C 0.3508(4) 0.4428(3) 0.2111(3)
C25_3 C 0.3919(4) 0.4588(3) 0.2698(3)
H9_3 H 0.4333 0.4803 0.2711
C26_3 C 0.3726(4) 0.4436(3) 0.3271(3)
C27_3 C 0.3103(5) 0.4118(4) 0.3245(4)
H10_3 H 0.2959 0.4023 0.3621
C28_3 C 0.2695(5) 0.3939(4) 0.2661(4)
H11_3 H 0.2285 0.3719 0.2652
C29_3 C 0.3758(4) 0.4616(3) 0.1523(3)
N1_3 N 0.2187(4) 0.4320(3) 0.1003(3)
H12_3 H 0.2351 0.4666 0.1044
O1_3 O 0.3846(3) 0.4261(3) 0.1109(3)
O2_3 O 0.3889(3) 0.5151(3) 0.1468(3)
O4_3 O 0.4772(3) 0.4846(3) 0.3875(2)
O6_3 O 0.2963(3) 0.5460(3) 0.0267(3)
O12_3 O 0.0941(5) 0.3094(6) 0.2060(5)
C30_3 C 0.7313(4) 0.5011(4) 0.5007(4)
C31_3 C 0.8120(5) 0.4994(4) 0.5268(4)
C32_3 C 0.8401(4) 0.5369(5) 0.5754(4)
H13_3 H 0.8103 0.5632 0.5899
C33_3 C 0.9122(5) 0.5356(5) 0.6027(5)
C34_3 C 0.9564(6) 0.4959(5) 0.5808(6)
C35_3 C 0.9287(5) 0.4579(5) 0.5333(5)
H15_3 H 0.9589 0.4315 0.5195
C36_3 C 0.8565(4) 0.4579(4) 0.5052(4)
C37_3 C 0.9425(5) 0.5760(5) 0.6568(5)
C38_3 C 0.8293(4) 0.4159(4) 0.4535(4)
C39_3 C 0.7593(4) 0.3919(4) 0.3518(3)
C40_3 C 0.7869(4) 0.3364(3) 0.3584(3)
H16_3 H 0.7723 0.3093 0.3262
C41_3 C 0.8353(4) 0.3217(3) 0.4123(4)
C42_3 C 0.8566(4) 0.3613(3) 0.4610(4)
H17_3 H 0.8888 0.3509 0.4982
C43_3 C 0.8698(4) 0.2642(3) 0.4205(4)
C44_3 C 0.8567(6) 0.2267(4) 0.4660(5)
H18_3 H 0.8229 0.2369 0.4898
C45_3 C 0.8921(5) 0.1733(4) 0.4785(5)
H19_3 H 0.8814 0.1487 0.5096
C46_3 C 0.9430(4) 0.1580(3) 0.4437(4)
C47_3 C 0.9566(6) 0.1957(4) 0.3982(5)
H20_3 H 0.9916 0.1859 0.3756
C48_3 C 0.9205(6) 0.2480(4) 0.3842(4)
C49_3 C 0.5825(4) 0.4632(3) 0.1099(3)
C50_3 C 0.9435(6) 0.2856(4) 0.3345(5)
C51_3 C 0.9846(4) 0.1037(3) 0.4560(3)
C52_3 C 0.7108(4) 0.4085(3) 0.2910(3)
C53_3 C 0.6492(4) 0.4428(3) 0.2889(3)
C54_3 C 0.6081(4) 0.4588(3) 0.2302(3)
H21_3 H 0.5667 0.4803 0.2289
C55_3 C 0.6274(4) 0.4436(3) 0.1729(3)
C56_3 C 0.6897(5) 0.4118(4) 0.1755(4)
H22_3 H 0.7041 0.4023 0.1379
C57_3 C 0.7305(5) 0.3939(4) 0.2339(4)
H23_3 H 0.7715 0.3719 0.2348
C58_3 C 0.6242(4) 0.4616(3) 0.3477(3)
N2_3 N 0.7813(4) 0.4320(3) 0.3997(3)
H24_3 H 0.7649 0.4666 0.3956
O13_3 O 0.6154(3) 0.4261(3) 0.3891(3)
O14_3 O 0.6111(3) 0.5151(3) 0.3532(3)
O16_3 O 0.5228(3) 0.4846(3) 0.1125(2)
O17_3 O 0.6946(3) 0.4583(3) 0.5106(3)
O18_3 O 0.7037(3) 0.5460(3) 0.4733(3)
O24 O 0.9059(5) 0.3094(6) 0.2940(5)
O33_2 O 0.4602(3) 0.5977(2) 0.0670(3)
O34_2 O 0.5398(3) 0.5977(2) 0.4330(3)
C1_3 C 0.2687(4) 0.5011(4) 0.9993(4)
C2_3 C 0.1880(5) 0.4994(4) 0.9732(4)
C3_3 C 0.1599(4) 0.5369(5) 0.9246(4)
H1_3 H 0.1897 0.5632 0.9101
C4_3 C 0.0878(5) 0.5356(5) 0.8973(5)
C5_3 C 0.0436(6) 0.4959(5) 0.9192(6)
C6_3 C 0.0713(5) 0.4579(5) 0.9667(5)
H3_3 H 0.0411 0.4315 0.9805
C7_3 C 0.1435(4) 0.4579(4) 0.9948(4)
C8_3 C 0.0575(5) 0.5760(5) 0.8432(5)
H7_3 H 0.1186 0.1487 0.9904
O5_3 O 0.3054(3) 0.4583(3) 0.9894(3)
O10_2 O 0.9602(3) 0.0977(2) 0.0670(3)
O11_3 O 0.9854(7) 0.2802(6) 0.1702(6)
H2_3 H 0.9948 0.4953 0.9013
C30_4 C 0.2313(4) 0.0011(4) 0.5007(4)
C32_4 C 0.3401(4) 0.0369(5) 0.5754(4)
H13_4 H 0.3103 0.0632 0.5899
C33_4 C 0.4122(5) 0.0356(5) 0.6027(5)
C37_4 C 0.4425(5) 0.0760(5) 0.6568(5)
O14_4 O 0.1111(3) 0.0151(3) 0.3532(3)
O18_4 O 0.2037(3) 0.0460(3) 0.4733(3)
C31_4 C 0.3120(5) 0.9994(4) 0.5268(4)
C34_4 C 0.4564(6) 0.9959(5) 0.5808(6)
H14_4 H 0.5052 0.9953 0.5987
C35_4 C 0.4287(5) 0.9579(5) 0.5333(5)
H15_4 H 0.4589 0.9315 0.5195
C36_4 C 0.3565(4) 0.9579(4) 0.5052(4)
C38_4 C 0.3293(4) 0.9159(4) 0.4535(4)
C39_4 C 0.2593(4) 0.8919(4) 0.3518(3)
C40_4 C 0.2869(4) 0.8364(3) 0.3584(3)
H16_4 H 0.2723 0.8093 0.3262
C41_4 C 0.3353(4) 0.8217(3) 0.4123(4)
C42_4 C 0.3566(4) 0.8613(3) 0.4610(4)
H17_4 H 0.3888 0.8509 0.4982
C43_4 C 0.3698(4) 0.7642(3) 0.4205(4)
C44_4 C 0.3567(6) 0.7267(4) 0.4660(5)
H18_4 H 0.3229 0.7369 0.4898
C45_4 C 0.3921(5) 0.6733(4) 0.4785(5)
H19_4 H 0.3814 0.6487 0.5096
C46_4 C 0.4430(4) 0.6580(3) 0.4437(4)
C47_4 C 0.4566(6) 0.6957(4) 0.3982(5)
H20_4 H 0.4916 0.6859 0.3756
C48_4 C 0.4205(6) 0.7480(4) 0.3842(4)
C49_4 C 0.0825(4) 0.9632(3) 0.1099(3)
C50_4 C 0.4435(6) 0.7856(4) 0.3345(5)
C51_4 C 0.4846(4) 0.6037(3) 0.4560(3)
C52_4 C 0.2108(4) 0.9085(3) 0.2910(3)
C53_4 C 0.1492(4) 0.9428(3) 0.2889(3)
C54_4 C 0.1081(4) 0.9588(3) 0.2302(3)
H21_4 H 0.0667 0.9803 0.2289
C55_4 C 0.1274(4) 0.9436(3) 0.1729(3)
C56_4 C 0.1897(5) 0.9118(4) 0.1755(4)
H22_4 H 0.2041 0.9023 0.1379
C57_4 C 0.2305(5) 0.8939(4) 0.2339(4)
H23_4 H 0.2715 0.8719 0.2348
C58_4 C 0.1242(4) 0.9616(3) 0.3477(3)
N2_4 N 0.2813(4) 0.9320(3) 0.3997(3)
H24_4 H 0.2649 0.9666 0.3956
O13_4 O 0.1154(3) 0.9261(3) 0.3891(3)
O16_4 O 0.0228(3) 0.9846(3) 0.1125(2)
O17_4 O 0.1946(3) 0.9583(3) 0.5106(3)
O23_2 O 0.5146(7) 0.7802(6) 0.3298(6)
O24_2 O 0.4059(5) 0.8094(6) 0.2940(5)
O2_4 O 0.8889(3) 0.0151(3) 0.1468(3)
O6_4 O 0.7963(3) 0.0460(3) 0.0267(3)
C1_4 C 0.7687(4) 0.0011(4) 0.9993(4)
C3_4 C 0.6599(4) 0.0369(5) 0.9246(4)
H1_4 H 0.6897 0.0632 0.9101
C4_4 C 0.5878(5) 0.0356(5) 0.8973(5)
C8_4 C 0.5575(5) 0.0760(5) 0.8432(5)
C9_4 C 0.6707(4) 0.9159(4) 0.0465(4)
C10_4 C 0.7407(4) 0.8919(4) 0.1482(3)
C11_4 C 0.7131(4) 0.8364(3) 0.1416(3)
H4_4 H 0.7277 0.8093 0.1738
C12_4 C 0.6647(4) 0.8217(3) 0.0877(4)
C13_4 C 0.6434(4) 0.8613(3) 0.0390(4)
H5_4 H 0.6112 0.8509 0.0018
C14_4 C 0.6302(4) 0.7642(3) 0.0795(4)
C15_4 C 0.6433(6) 0.7267(4) 0.0340(5)
H6_4 H 0.6771 0.7369 0.0102
C16_4 C 0.6079(5) 0.6733(4) 0.0215(5)
C17_4 C 0.5570(4) 0.6580(3) 0.0563(4)
C18_4 C 0.5434(6) 0.6957(4) 0.1018(5)
H8_4 H 0.5084 0.6859 0.1244
C19_4 C 0.5795(6) 0.7480(4) 0.1158(4)
C20_4 C 0.9175(4) 0.9632(3) 0.3901(3)
C21_4 C 0.5565(6) 0.7856(4) 0.1655(5)
C22_4 C 0.5154(4) 0.6037(3) 0.0440(3)
C23_4 C 0.7892(4) 0.9085(3) 0.2090(3)
C24_4 C 0.8508(4) 0.9428(3) 0.2111(3)
C25_4 C 0.8919(4) 0.9588(3) 0.2698(3)
H9_4 H 0.9333 0.9803 0.2711
C26_4 C 0.8726(4) 0.9436(3) 0.3271(3)
C27_4 C 0.8103(5) 0.9118(4) 0.3245(4)
H10_4 H 0.7959 0.9023 0.3621
C28_4 C 0.7695(5) 0.8939(4) 0.2661(4)
H11_4 H 0.7285 0.8719 0.2652
C29_4 C 0.8758(4) 0.9616(3) 0.1523(3)
N1_4 N 0.7187(4) 0.9320(3) 0.1003(3)
H12_4 H 0.7351 0.9666 0.1044
O1_4 O 0.8846(3) 0.9261(3) 0.1109(3)
O4_4 O 0.9772(3) 0.9846(3) 0.3875(2)
O11_4 O 0.4854(7) 0.7802(6) 0.1702(6)
O12_4 O 0.5941(5) 0.8094(6) 0.2060(5)
C2_4 C 0.6880(5) 0.9994(4) 0.9732(4)
C5_4 C 0.5436(6) 0.9959(5) 0.9192(6)
H2_4 H 0.4948 0.9953 0.9013
C6_4 C 0.5713(5) 0.9579(5) 0.9667(5)
H3_4 H 0.5411 0.9315 0.9805
C7_4 C 0.6435(4) 0.9579(4) 0.9948(4)
H7_4 H 0.6186 0.6487 0.9904
O5_4 O 0.8054(3) 0.9583(3) 0.9894(3)
loop_
_geom_bond_atom_site_label_1
_geom_bond_atom_site_label_2
_geom_bond_site_symmetry_1
_geom_bond_site_symmetry_2
O8 Er12 1_555 1_555
Er2 O11 1_555 1_555
Er4 O10 1_555 1_555
O27 Er2 1_555 1_555
O30 Er2 1_555 1_555
O36 Er2 1_555 1_555
C1 C2 1_555 1_555
C2 C3 1_555 1_555
C3 H1 1_555 1_555
C4 C3 1_555 1_555
C5 C4 1_555 1_555
C6 C5 1_555 1_555
H3 C6 1_555 1_555
C7 C2 1_555 1_555
C8 C4 1_555 1_555
O5 C1 1_555 1_555
O7 C8 1_555 1_555
Er12_2 O7 1_555 1_555
C6 C7 1_555 1_555
C10 C11 1_555 1_555
C11 H4 1_555 1_555
C12 C11 1_555 1_555
C13 C9 1_555 1_555
H5 C13 1_555 1_555
C14 C12 1_555 1_555
C15 C14 1_555 1_555
H6 C15 1_555 1_555
C16 C15 1_555 1_555
C17 C16 1_555 1_555
C18 C17 1_555 1_555
H8 C18 1_555 1_555
C19 C14 1_555 1_555
C20 C26 1_555 1_555
C21 C19 1_555 1_555
C22 C17 1_555 1_555
C23 C10 1_555 1_555
C24 C23 1_555 1_555
C25 C24 1_555 1_555
H9 C25 1_555 1_555
C26 C25 1_555 1_555
C27 C26 1_555 1_555
H10 C27 1_555 1_555
C28 C23 1_555 1_555
H11 C28 1_555 1_555
C29 C24 1_555 1_555
Er1 O1 1_555 1_555
N1 C9 1_555 1_555
H12 N1 1_555 1_555
O1 C29 1_555 1_555
O2 C29 1_555 1_555
O3 C20 1_555 1_555
O4 C20 1_555 1_555
O9 C22 1_555 1_555
O12 C21 1_555 1_555
C30 C31 1_555 1_555
C31 C32 1_555 1_555
C32 H13 1_555 1_555
C33 C32 1_555 1_555
C34 C33 1_555 1_555
C35 C34 1_555 1_555
H15 C35 1_555 1_555
C36 C31 1_555 1_555
C37 C33 1_555 1_555
C38 C36 1_555 1_555
C39 C40 1_555 1_555
C40 H16 1_555 1_555
C41 C40 1_555 1_555
C42 C38 1_555 1_555
H17 C42 1_555 1_555
C43 C41 1_555 1_555
C44 C43 1_555 1_555
H18 C44 1_555 1_555
C45 C44 1_555 1_555
H19 C45 1_555 1_555
C46 C45 1_555 1_555
C47 C46 1_555 1_555
H20 C47 1_555 1_555
C48 C43 1_555 1_555
C49 C55 1_555 1_555
C50 C48 1_555 1_555
C51 C46 1_555 1_555
C52 C39 1_555 1_555
C53 C52 1_555 1_555
C54 C53 1_555 1_555
H21 C54 1_555 1_555
C55 C54 1_555 1_555
C56 C55 1_555 1_555
H22 C56 1_555 1_555
C57 C52 1_555 1_555
H23 C57 1_555 1_555
C58 C53 1_555 1_555
Er3 O4 1_555 1_555
N2 C38 1_555 1_555
H24 N2 1_555 1_555
O13 C58 1_555 1_555
O14 C58 1_555 1_555
O15 C49 1_555 1_555
O16 Er1 1_555 1_555
O17 C30 1_555 1_555
O18 C30 1_555 1_555
O19 C37 1_555 1_555
O21 C51 1_555 1_555
O36 C50 1_555 1_555
Er7 O3 1_555 1_555
Er12 O19 1_555 1_555
O25 Er3 1_555 1_555
O28 Er2_2 1_555 1_555
O29 Er2_2 1_555 1_555
O32 Er3 1_555 1_555
O33 Er1 1_555 1_555
O34 Er3 1_555 1_555
O35 Er2_2 1_555 1_555
C10 N1 1_555 1_555
C12 C13 1_555 1_555
C18 C19 1_555 1_555
C27 C28 1_555 1_555
Er1 O2 1_555 1_555
Er1 O6 1_555 1_555
Er2_2 O12 1_555 1_555
C35 C36 1_555 1_555
C39 N2 1_555 1_555
C41 C42 1_555 1_555
C47 C48 1_555 1_555
C49 O16 1_555 1_555
C56 C57 1_555 1_555
Er3 O13 1_555 1_555
Er3 O14 1_555 1_555
Er3 O17 1_555 1_555
Er3 O18 1_555 1_555
Er5 O22 1_555 1_555
O20 Er12_2 1_555 1_555
H2_2 C5_2 1_555 1_555
C6_2 C5_2 1_555 1_555
H3_2 C6_2 1_555 1_555
C7_2 C2_2 1_555 1_555
C6_2 C7_2 1_555 1_555
C10_2 C11_2 1_555 1_555
C11_2 H4_2 1_555 1_555
C12_2 C11_2 1_555 1_555
C13_2 C9_2 1_555 1_555
H5_2 C13_2 1_555 1_555
C14_2 C12_2 1_555 1_555
C15_2 C14_2 1_555 1_555
H6_2 C15_2 1_555 1_555
C16_2 C15_2 1_555 1_555
C17_2 C16_2 1_555 1_555
C18_2 C17_2 1_555 1_555
H8_2 C18_2 1_555 1_555
C19_2 C14_2 1_555 1_555
C20_2 C26_2 1_555 1_555
C21_2 C19_2 1_555 1_555
C22_2 C17_2 1_555 1_555
C23_2 C10_2 1_555 1_555
C24_2 C23_2 1_555 1_555
C25_2 C24_2 1_555 1_555
H9_2 C25_2 1_555 1_555
C26_2 C25_2 1_555 1_555
C27_2 C26_2 1_555 1_555
H10_2 C27_2 1_555 1_555
C28_2 C23_2 1_555 1_555
H11_2 C28_2 1_555 1_555
C29_2 C24_2 1_555 1_555
Er2_3 O11_2 1_555 1_555
N1_2 C9_2 1_555 1_555
H12_2 N1_2 1_555 1_555
O1_2 C29_2 1_555 1_555
O3_2 C20_2 1_555 1_555
O4_2 C20_2 1_555 1_555
O9_2 C22_2 1_555 1_555
O33 C22_2 1_555 1_555
O11_2 C21_2 1_555 1_555
O12_2 C21_2 1_555 1_555
Er9 O3_2 1_555 1_555
O27_2 Er2_3 1_555 1_555
O28_2 Er2_3 1_555 1_555
O29_2 Er2_3 1_555 1_555
O30_2 Er2_3 1_555 1_555
O35_2 Er2_3 1_555 1_555
O36_2 Er2_3 1_555 1_555
C10_2 N1_2 1_555 1_555
C12_2 C13_2 1_555 1_555
C18_2 C19_2 1_555 1_555
C27_2 C28_2 1_555 1_555
Er2_3 O12_2 1_555 1_555
C3_2 H1_2 1_555 1_555
C4_2 C3_2 1_555 1_555
C8_2 C4_2 1_555 1_555
O7_2 C8_2 1_555 1_555
O8_2 C8_2 1_555 1_555
Er12_3 O7_2 1_555 1_555
O8_2 Er12_3 1_555 1_555
Er4 O2_2 1_555 1_555
Er4 O6_2 1_555 1_555
H14_2 C34_2 1_555 1_555
C35_2 C34_2 1_555 1_555
H15_2 C35_2 1_555 1_555
C36_2 C31_2 1_555 1_555
C38_2 C36_2 1_555 1_555
C39_2 C40_2 1_555 1_555
C40_2 H16_2 1_555 1_555
C41_2 C40_2 1_555 1_555
C42_2 C38_2 1_555 1_555
H17_2 C42_2 1_555 1_555
C43_2 C41_2 1_555 1_555
C44_2 C43_2 1_555 1_555
H18_2 C44_2 1_555 1_555
C45_2 C44_2 1_555 1_555
H19_2 C45_2 1_555 1_555
C46_2 C45_2 1_555 1_555
C47_2 C46_2 1_555 1_555
H20_2 C47_2 1_555 1_555
C48_2 C43_2 1_555 1_555
C49_2 C55_2 1_555 1_555
C50_2 C48_2 1_555 1_555
C51_2 C46_2 1_555 1_555
C52_2 C39_2 1_555 1_555
C53_2 C52_2 1_555 1_555
C54_2 C53_2 1_555 1_555
H21_2 C54_2 1_555 1_555
C55_2 C54_2 1_555 1_555
C56_2 C55_2 1_555 1_555
H22_2 C56_2 1_555 1_555
C57_2 C52_2 1_555 1_555
H23_2 C57_2 1_555 1_555
C58_2 C53_2 1_555 1_555
N2_2 C38_2 1_555 1_555
H24_2 N2_2 1_555 1_555
O13_2 C58_2 1_555 1_555
O15_2 C49_2 1_555 1_555
O21_2 C51_2 1_555 1_555
O34 C51_2 1_555 1_555
O35_2 C50_2 1_555 1_555
O36_2 C50_2 1_555 1_555
Er7 O21_2 1_555 1_555
C35_2 C36_2 1_555 1_555
C39_2 N2_2 1_555 1_555
C41_2 C42_2 1_555 1_555
C47_2 C48_2 1_555 1_555
C49_2 O16_2 1_555 1_555
C56_2 C57_2 1_555 1_555
C32_2 H13_2 1_555 1_555
C33_2 C32_2 1_555 1_555
C37_2 C33_2 1_555 1_555
O18_2 C30_2 1_555 1_555
O19_2 C37_2 1_555 1_555
O20_2 C37_2 1_555 1_555
Er12_3 O19_2 1_555 1_555
O25_2 Er5 1_555 1_555
Er5 O14_2 1_555 1_555
Er5 O18_2 1_555 1_555
O20_2 Er12_3 1_555 1_555
Er9 O22_2 1_555 1_555
Er12 O23 1_555 1_555
C10_3 C11_3 1_555 1_555
C11_3 H4_3 1_555 1_555
C12_3 C11_3 1_555 1_555
C13_3 C9_3 1_555 1_555
H5_3 C13_3 1_555 1_555
C14_3 C12_3 1_555 1_555
C15_3 C14_3 1_555 1_555
H6_3 C15_3 1_555 1_555
C16_3 C15_3 1_555 1_555
C17_3 C16_3 1_555 1_555
C18_3 C17_3 1_555 1_555
H8_3 C18_3 1_555 1_555
C19_3 C14_3 1_555 1_555
C20_3 C26_3 1_555 1_555
C21_3 C19_3 1_555 1_555
C22_3 C17_3 1_555 1_555
C23_3 C10_3 1_555 1_555
C24_3 C23_3 1_555 1_555
C25_3 C24_3 1_555 1_555
H9_3 C25_3 1_555 1_555
C26_3 C25_3 1_555 1_555
C27_3 C26_3 1_555 1_555
H10_3 C27_3 1_555 1_555
C28_3 C23_3 1_555 1_555
H11_3 C28_3 1_555 1_555
C29_3 C24_3 1_555 1_555
Er6 O1_3 1_555 1_555
N1_3 C9_3 1_555 1_555
H12_3 N1_3 1_555 1_555
O1_3 C29_3 1_555 1_555
O2_3 C29_3 1_555 1_555
O25 C20_3 1_555 1_555
O4_3 C20_3 1_555 1_555
O31_2 C22_3 1_555 1_555
O12_3 C21_3 1_555 1_555
C30_3 C31_3 1_555 1_555
C31_3 C32_3 1_555 1_555
C32_3 H13_3 1_555 1_555
C33_3 C32_3 1_555 1_555
C34_3 C33_3 1_555 1_555
C35_3 C34_3 1_555 1_555
H15_3 C35_3 1_555 1_555
C36_3 C31_3 1_555 1_555
C37_3 C33_3 1_555 1_555
C38_3 C36_3 1_555 1_555
C39_3 C40_3 1_555 1_555
C40_3 H16_3 1_555 1_555
C41_3 C40_3 1_555 1_555
C42_3 C38_3 1_555 1_555
H17_3 C42_3 1_555 1_555
C43_3 C41_3 1_555 1_555
C44_3 C43_3 1_555 1_555
H18_3 C44_3 1_555 1_555
C45_3 C44_3 1_555 1_555
H19_3 C45_3 1_555 1_555
C46_3 C45_3 1_555 1_555
C47_3 C46_3 1_555 1_555
H20_3 C47_3 1_555 1_555
C48_3 C43_3 1_555 1_555
C49_3 C55_3 1_555 1_555
C50_3 C48_3 1_555 1_555
C51_3 C46_3 1_555 1_555
C52_3 C39_3 1_555 1_555
C53_3 C52_3 1_555 1_555
C54_3 C53_3 1_555 1_555
H21_3 C54_3 1_555 1_555
C55_3 C54_3 1_555 1_555
C56_3 C55_3 1_555 1_555
H22_3 C56_3 1_555 1_555
C57_3 C52_3 1_555 1_555
H23_3 C57_3 1_555 1_555
C58_3 C53_3 1_555 1_555
Er7 O4_3 1_555 1_555
N2_3 C38_3 1_555 1_555
H24_3 N2_3 1_555 1_555
O13_3 C58_3 1_555 1_555
O14_3 C58_3 1_555 1_555
O26 C49_3 1_555 1_555
O16_3 Er6 1_555 1_555
O17_3 C30_3 1_555 1_555
O18_3 C30_3 1_555 1_555
O28 C37_3 1_555 1_555
O32_2 C51_3 1_555 1_555
O24 C50_3 1_555 1_555
O33_2 Er6 1_555 1_555
O34_2 Er7 1_555 1_555
C10_3 N1_3 1_555 1_555
C12_3 C13_3 1_555 1_555
C18_3 C19_3 1_555 1_555
C27_3 C28_3 1_555 1_555
Er6 O2_3 1_555 1_555
Er6 O6_3 1_555 1_555
Er12 O12_3 1_555 1_555
C35_3 C36_3 1_555 1_555
C39_3 N2_3 1_555 1_555
C41_3 C42_3 1_555 1_555
C47_3 C48_3 1_555 1_555
C49_3 O16_3 1_555 1_555
C56_3 C57_3 1_555 1_555
Er7 O13_3 1_555 1_555
Er7 O14_3 1_555 1_555
Er7 O17_3 1_555 1_555
Er7 O18_3 1_555 1_555
O24 Er12_2 1_555 1_555
C1_3 C2_3 1_555 1_555
C2_3 C3_3 1_555 1_555
C3_3 H1_3 1_555 1_555
C4_3 C3_3 1_555 1_555
C5_3 C4_3 1_555 1_555
C6_3 C5_3 1_555 1_555
H3_3 C6_3 1_555 1_555
C7_3 C2_3 1_555 1_555
C8_3 C4_3 1_555 1_555
O5_3 C1_3 1_555 1_555
O27 C8_3 1_555 1_555
C6_3 C7_3 1_555 1_555
Er12_2 O11_3 1_555 1_555
Er8 O10_2 1_555 1_555
C32_4 H13_4 1_555 1_555
C33_4 C32_4 1_555 1_555
C37_4 C33_4 1_555 1_555
O18_4 C30_4 1_555 1_555
O28_2 C37_4 1_555 1_555
O30_2 C37_4 1_555 1_555
Er9 O14_4 1_555 1_555
Er9 O18_4 1_555 1_555
H14_4 C34_4 1_555 1_555
C35_4 C34_4 1_555 1_555
H15_4 C35_4 1_555 1_555
C36_4 C31_4 1_555 1_555
C38_4 C36_4 1_555 1_555
C39_4 C40_4 1_555 1_555
C40_4 H16_4 1_555 1_555
C41_4 C40_4 1_555 1_555
C42_4 C38_4 1_555 1_555
H17_4 C42_4 1_555 1_555
C43_4 C41_4 1_555 1_555
C44_4 C43_4 1_555 1_555
H18_4 C44_4 1_555 1_555
C45_4 C44_4 1_555 1_555
H19_4 C45_4 1_555 1_555
C46_4 C45_4 1_555 1_555
C47_4 C46_4 1_555 1_555
H20_4 C47_4 1_555 1_555
C48_4 C43_4 1_555 1_555
C49_4 C55_4 1_555 1_555
C50_4 C48_4 1_555 1_555
C51_4 C46_4 1_555 1_555
C52_4 C39_4 1_555 1_555
C53_4 C52_4 1_555 1_555
C54_4 C53_4 1_555 1_555
H21_4 C54_4 1_555 1_555
C55_4 C54_4 1_555 1_555
C56_4 C55_4 1_555 1_555
H22_4 C56_4 1_555 1_555
C57_4 C52_4 1_555 1_555
H23_4 C57_4 1_555 1_555
C58_4 C53_4 1_555 1_555
N2_4 C38_4 1_555 1_555
H24_4 N2_4 1_555 1_555
O13_4 C58_4 1_555 1_555
O26_2 C49_4 1_555 1_555
O32 C51_4 1_555 1_555
O34_2 C51_4 1_555 1_555
O23_2 C50_4 1_555 1_555
O24_2 C50_4 1_555 1_555
Er12_3 O23_2 1_555 1_555
C35_4 C36_4 1_555 1_555
C39_4 N2_4 1_555 1_555
C41_4 C42_4 1_555 1_555
C47_4 C48_4 1_555 1_555
C49_4 O16_4 1_555 1_555
C56_4 C57_4 1_555 1_555
O24_2 Er12_3 1_555 1_555
Er8 O2_4 1_555 1_555
Er8 O6_4 1_555 1_555
C3_4 H1_4 1_555 1_555
C4_4 C3_4 1_555 1_555
C8_4 C4_4 1_555 1_555
O27_2 C8_4 1_555 1_555
O29_2 C8_4 1_555 1_555
C10_4 C11_4 1_555 1_555
C11_4 H4_4 1_555 1_555
C12_4 C11_4 1_555 1_555
C13_4 C9_4 1_555 1_555
H5_4 C13_4 1_555 1_555
C14_4 C12_4 1_555 1_555
C15_4 C14_4 1_555 1_555
H6_4 C15_4 1_555 1_555
C16_4 C15_4 1_555 1_555
C17_4 C16_4 1_555 1_555
C18_4 C17_4 1_555 1_555
H8_4 C18_4 1_555 1_555
C19_4 C14_4 1_555 1_555
C20_4 C26_4 1_555 1_555
C21_4 C19_4 1_555 1_555
C22_4 C17_4 1_555 1_555
C23_4 C10_4 1_555 1_555
C24_4 C23_4 1_555 1_555
C25_4 C24_4 1_555 1_555
H9_4 C25_4 1_555 1_555
C26_4 C25_4 1_555 1_555
C27_4 C26_4 1_555 1_555
H10_4 C27_4 1_555 1_555
C28_4 C23_4 1_555 1_555
H11_4 C28_4 1_555 1_555
C29_4 C24_4 1_555 1_555
Er12_3 O11_4 1_555 1_555
N1_4 C9_4 1_555 1_555
H12_4 N1_4 1_555 1_555
O1_4 C29_4 1_555 1_555
O25_2 C20_4 1_555 1_555
O4_4 C20_4 1_555 1_555
O31 C22_4 1_555 1_555
O33_2 C22_4 1_555 1_555
O11_4 C21_4 1_555 1_555
O12_4 C21_4 1_555 1_555
C10_4 N1_4 1_555 1_555
C12_4 C13_4 1_555 1_555
C18_4 C19_4 1_555 1_555
C27_4 C28_4 1_555 1_555
Er12_3 O12_4 1_555 1_555
H2_4 C5_4 1_555 1_555
C6_4 C5_4 1_555 1_555
H3_4 C6_4 1_555 1_555
C7_4 C2_4 1_555 1_555
C6_4 C7_4 1_555 1_555

#END
