
###############################################################################
#
# This file contains modified crystal structure data generated from the
# MOF subset of the Cambridge Structural Database (CSD) v543 
# hosted by the Cambridge Crystallographic Data Centre (CCDC).
#
# This work is licensed under the Creative Commons
# Attribution-NonCommercial-ShareAlike 4.0 International License.
# To view a copy of this license, visit
# http://creativecommons.org/licenses/by-nc-sa/4.0/
# or send a letter to
# Creative Commons, PO Box 1866, Mountain View, CA 94042, USA.
#
# CIF created using the CSD Python API on 29 September 2022
# The structure has been converted into the P1 space group
# The structure has a 3D framework
# The original CSD entry HUSFOT is in the monoclinic crystal system
# The framework has been calculated to contain at least 10.0% void space
# The void calculation uses a probe of radius 1.32A, grid spacing 0.4
# The framework is charged, counterions have been retained in the structure
#
###############################################################################

data_HUSFOT
_chemical_formula_moiety         '(C232 H96 Lu14 N8 O86 3-)n'
_symmetry_cell_setting           triclinic
_symmetry_space_group_name_H-M   'P 1'
_symmetry_Int_Tables_number      1
_space_group_name_Hall           'P 1'
loop_
_symmetry_equiv_pos_site_id
_symmetry_equiv_pos_as_xyz
1 x,y,z
_cell_length_a                   18.7467(11)
_cell_length_b                   23.2568(15)
_cell_length_c                   21.2745(13)
_cell_angle_alpha                90
_cell_angle_beta                 101.600(2)
_cell_angle_gamma                90
_cell_volume                     9085.98
loop_
_atom_site_label
_atom_site_type_symbol
_atom_site_fract_x
_atom_site_fract_y
_atom_site_fract_z
H2 H 0.0114 0.5048 0.0979
O8 O 0.0135(4) 0.4237(4) 0.1784(4)
Lu12 Lu -0.0000 0.35079(2) 0.2500
Lu2 Lu -0.0000 0.64921(2) 0.7500
O10 O 0.0419(3) 0.9043(2) 0.9336(3)
O11 O 0.0176(5) 0.7193(5) 0.8278(5)
Lu4 Lu 0.085469(16) 0.996952(12) 0.958033(13)
O27 O 0.0962(4) 0.6088(3) 0.8228(3)
O30 O 0.0135(4) 0.5763(4) 0.6784(4)
O36 O 0.0926(4) 0.6906(4) 0.7080(4)
Lu8 Lu 0.914531(16) 0.003048(12) 0.041967(13)
Lu9 Lu 0.085469(16) 0.003048(12) 0.458033(13)
C2 C 0.8159(5) 0.5008(4) 0.0248(5)
C3 C 0.8435(5) 0.4637(4) 0.0730(5)
H1 H 0.8129 0.4370 0.0867
C4 C 0.9168(5) 0.4651(5) 0.1021(5)
C5 C 0.9618(6) 0.5045(5) 0.0802(7)
C6 C 0.9342(5) 0.5430(5) 0.0331(5)
H3 H 0.9651 0.5700 0.0202
C7 C 0.8608(5) 0.5426(4) 0.0040(4)
C8 C 0.9466(6) 0.4246(5) 0.1557(5)
H7 H 0.8810 0.8508 0.0081
O5 O 0.6962(3) 0.5420(3) 0.0095(3)
O7 O 0.9038(4) 0.3912(3) 0.1772(3)
Lu6 Lu 0.414531(16) 0.503048(12) 0.041967(13)
Lu12_2 Lu 1.0000 0.35079(2) 0.2500
O26 O 0.6094(3) 0.4582(3) 0.0600(2)
O31 O 0.5374(3) 0.5650(2) 0.0102(3)
C1 C 0.7340(5) 0.4991(4) 0.9999(4)
C9 C 0.8336(4) 0.5846(4) 0.9522(4)
C10 C 0.7625(4) 0.6077(4) 0.8508(4)
C11 C 0.7889(4) 0.6633(3) 0.8564(4)
H4 H 0.7729 0.6901 0.8242
C12 C 0.8392(5) 0.6784(4) 0.9104(4)
C13 C 0.8611(4) 0.6391(3) 0.9588(4)
H5 H 0.8944 0.6496 0.9956
C14 C 0.8729(5) 0.7364(4) 0.9180(4)
C15 C 0.8582(6) 0.7723(5) 0.9644(5)
H6 H 0.8243 0.7611 0.9884
C16 C 0.8932(6) 0.8266(5) 0.9772(5)
C17 C 0.9451(4) 0.8427(3) 0.9438(4)
C18 C 0.9615(6) 0.8060(4) 0.8980(5)
H8 H 0.9979 0.8163 0.8763
C19 C 0.9251(6) 0.7532(4) 0.8829(4)
C20 C 0.5833(4) 0.5358(3) 0.6092(3)
C21 C 0.9502(6) 0.7171(4) 0.8321(5)
C22 C 0.9859(4) 0.8972(3) 0.9561(3)
C23 C 0.7133(4) 0.5908(4) 0.7898(3)
C24 C 0.6506(4) 0.5572(4) 0.7875(3)
C25 C 0.6089(4) 0.5413(4) 0.7296(3)
H9 H 0.5664 0.5204 0.7287
C26 C 0.6288(4) 0.5557(4) 0.6722(3)
C27 C 0.6918(5) 0.5876(4) 0.6738(4)
H10 H 0.7062 0.5971 0.6358
C28 C 0.7331(5) 0.6054(5) 0.7321(4)
H11 H 0.7747 0.6274 0.7327
C29 C 0.6251(4) 0.5385(4) 0.8472(3)
Lu1 Lu 0.585469(16) 0.496952(12) 0.958033(13)
Lu2_2 Lu 1.0000 0.64921(2) 0.7500
N1 N 0.7855(4) 0.5682(3) 0.8983(3)
H12 H 0.7697 0.5334 0.8942
O1 O 0.6167(4) 0.5740(3) 0.8886(3)
O2 O 0.6123(4) 0.4849(3) 0.8530(3)
O3 O 0.6094(3) 0.5418(3) 0.5600(2)
O4 O 0.5219(3) 0.5155(3) 0.6115(2)
O6 O 0.7059(3) 0.4549(3) 0.9719(3)
O9 O 0.9626(3) 0.9350(2) 0.9898(3)
O12 O 0.9074(4) 0.6906(4) 0.7920(4)
C30 C 0.2660(5) 0.4991(4) 0.5001(4)
C31 C 0.1841(5) 0.5008(4) 0.4752(5)
C32 C 0.1565(5) 0.4637(4) 0.4270(5)
H13 H 0.1871 0.4370 0.4133
C33 C 0.0832(5) 0.4651(5) 0.3979(5)
C34 C 0.0382(6) 0.5045(5) 0.4198(7)
C35 C 0.0658(5) 0.5430(5) 0.4669(5)
H15 H 0.0349 0.5700 0.4798
C36 C 0.1392(5) 0.5426(4) 0.4960(4)
C37 C 0.0534(6) 0.4246(5) 0.3443(5)
C38 C 0.1664(4) 0.5846(4) 0.5478(4)
C39 C 0.2375(4) 0.6077(4) 0.6492(4)
C40 C 0.2111(4) 0.6633(3) 0.6436(4)
H16 H 0.2271 0.6901 0.6758
C41 C 0.1608(5) 0.6784(4) 0.5896(4)
C42 C 0.1389(4) 0.6391(3) 0.5412(4)
H17 H 0.1056 0.6496 0.5044
C43 C 0.1271(5) 0.7364(4) 0.5820(4)
C44 C 0.1418(6) 0.7723(5) 0.5356(5)
H18 H 0.1757 0.7611 0.5116
C45 C 0.1068(6) 0.8266(5) 0.5228(5)
H19 H 0.1190 0.8508 0.4919
C46 C 0.0549(4) 0.8427(3) 0.5562(4)
C47 C 0.0385(6) 0.8060(4) 0.6020(5)
H20 H 0.0021 0.8163 0.6237
C48 C 0.0749(6) 0.7532(4) 0.6171(4)
C49 C 0.4167(4) 0.5358(3) 0.8908(3)
C50 C 0.0498(6) 0.7171(4) 0.6679(5)
C51 C 0.0141(4) 0.8972(3) 0.5439(3)
C52 C 0.2867(4) 0.5908(4) 0.7102(3)
C53 C 0.3494(4) 0.5572(4) 0.7125(3)
C54 C 0.3911(4) 0.5413(4) 0.7704(3)
H21 H 0.4336 0.5204 0.7713
C55 C 0.3712(4) 0.5557(4) 0.8278(3)
C56 C 0.3082(5) 0.5876(4) 0.8262(4)
H22 H 0.2938 0.5971 0.8642
C57 C 0.2669(5) 0.6054(5) 0.7679(4)
H23 H 0.2253 0.6274 0.7673
C58 C 0.3749(4) 0.5385(4) 0.6528(3)
Lu3 Lu 0.414531(16) 0.496952(12) 0.541967(13)
N2 N 0.2145(4) 0.5682(3) 0.6017(3)
H24 H 0.2303 0.5334 0.6058
O13 O 0.3833(4) 0.5740(3) 0.6114(3)
O14 O 0.3877(4) 0.4849(3) 0.6470(3)
O15 O 0.3906(3) 0.5418(3) 0.9400(2)
O16 O 0.4781(3) 0.5155(3) 0.8885(2)
O17 O 0.3038(3) 0.5420(3) 0.4905(3)
O18 O 0.2941(3) 0.4549(3) 0.5281(3)
O19 O 0.0962(4) 0.3912(3) 0.3228(3)
O21 O 0.0374(3) 0.9350(2) 0.5102(3)
Lu7 Lu 0.585469(16) 0.503048(12) 0.458033(13)
O25 O 0.3906(3) 0.4582(3) 0.4400(2)
O28 O 0.9038(4) 0.6088(3) 0.6772(3)
O29 O 0.9865(4) 0.5763(4) 0.8216(4)
O32 O 0.4626(3) 0.5650(2) 0.4898(3)
O33 O 0.5419(3) 0.4043(2) 0.9336(3)
O34 O 0.4581(3) 0.4043(2) 0.5664(3)
O35 O 0.9824(5) 0.7193(5) 0.6722(5)
H14 H 0.9886 0.5048 0.4021
O20 O 0.9865(4) 0.4237(4) 0.3216(4)
O22 O 0.9581(3) 0.9043(2) 0.5664(3)
Lu5 Lu 0.914531(16) 0.996952(12) 0.541967(13)
C2_2 C 0.3159(5) 0.0008(4) 0.0248(5)
C5_2 C 0.4618(6) 0.0045(5) 0.0802(7)
H2_2 H 0.5114 0.0048 0.0979
C6_2 C 0.4342(5) 0.0430(5) 0.0331(5)
H3_2 H 0.4651 0.0700 0.0202
C7_2 C 0.3608(5) 0.0426(4) 0.0040(4)
H7_2 H 0.3810 0.3508 0.0081
O5_2 O 0.1962(3) 0.0420(3) 0.0095(3)
O31_2 O 0.0374(3) 0.0650(2) 0.0102(3)
C9_2 C 0.3336(4) 0.0846(4) 0.9522(4)
C10_2 C 0.2625(4) 0.1077(4) 0.8508(4)
C11_2 C 0.2889(4) 0.1633(3) 0.8564(4)
H4_2 H 0.2729 0.1901 0.8242
C12_2 C 0.3392(5) 0.1784(4) 0.9104(4)
C13_2 C 0.3611(4) 0.1391(3) 0.9588(4)
H5_2 H 0.3944 0.1496 0.9956
C14_2 C 0.3729(5) 0.2364(4) 0.9180(4)
C15_2 C 0.3582(6) 0.2723(5) 0.9644(5)
H6_2 H 0.3243 0.2611 0.9884
C16_2 C 0.3932(6) 0.3266(5) 0.9772(5)
C17_2 C 0.4451(4) 0.3427(3) 0.9438(4)
C18_2 C 0.4615(6) 0.3060(4) 0.8980(5)
H8_2 H 0.4979 0.3163 0.8763
C19_2 C 0.4251(6) 0.2532(4) 0.8829(4)
C20_2 C 0.0833(4) 0.0358(3) 0.6092(3)
C21_2 C 0.4502(6) 0.2171(4) 0.8321(5)
C22_2 C 0.4859(4) 0.3972(3) 0.9561(3)
C23_2 C 0.2133(4) 0.0908(4) 0.7898(3)
C24_2 C 0.1506(4) 0.0572(4) 0.7875(3)
C25_2 C 0.1089(4) 0.0413(4) 0.7296(3)
H9_2 H 0.0664 0.0204 0.7287
C26_2 C 0.1288(4) 0.0557(4) 0.6722(3)
C27_2 C 0.1918(5) 0.0876(4) 0.6738(4)
H10_2 H 0.2062 0.0971 0.6358
C28_2 C 0.2331(5) 0.1054(5) 0.7321(4)
H11_2 H 0.2747 0.1274 0.7327
C29_2 C 0.1251(4) 0.0385(4) 0.8472(3)
Lu2_3 Lu 0.5000 0.14921(2) 0.7500
N1_2 N 0.2855(4) 0.0682(3) 0.8983(3)
H12_2 H 0.2697 0.0334 0.8942
O1_2 O 0.1167(4) 0.0740(3) 0.8886(3)
O3_2 O 0.1094(3) 0.0418(3) 0.5600(2)
O4_2 O 0.0219(3) 0.0155(3) 0.6115(2)
O9_2 O 0.4626(3) 0.4350(2) 0.9898(3)
O11_2 O 0.5176(5) 0.2193(5) 0.8278(5)
O12_2 O 0.4074(4) 0.1906(4) 0.7920(4)
O27_2 O 0.5962(4) 0.1088(3) 0.8228(3)
O28_2 O 0.4038(4) 0.1088(3) 0.6772(3)
O29_2 O 0.4865(4) 0.0763(4) 0.8216(4)
O30_2 O 0.5135(4) 0.0763(4) 0.6784(4)
O35_2 O 0.4824(5) 0.2193(5) 0.6722(5)
O36_2 O 0.5926(4) 0.1906(4) 0.7080(4)
C3_2 C 0.3435(5) 0.9637(4) 0.0730(5)
H1_2 H 0.3129 0.9370 0.0867
C4_2 C 0.4168(5) 0.9651(5) 0.1021(5)
C8_2 C 0.4466(6) 0.9246(5) 0.1557(5)
O7_2 O 0.4038(4) 0.8912(3) 0.1772(3)
O8_2 O 0.5135(4) 0.9237(4) 0.1784(4)
Lu12_3 Lu 0.5000 0.85079(2) 0.2500
O26_2 O 0.1094(3) 0.9582(3) 0.0600(2)
C1_2 C 0.2340(5) 0.9991(4) 0.9999(4)
O2_2 O 0.1123(4) 0.9849(3) 0.8530(3)
O6_2 O 0.2059(3) 0.9549(3) 0.9719(3)
C31_2 C 0.6841(5) 0.0008(4) 0.4752(5)
C34_2 C 0.5382(6) 0.0045(5) 0.4198(7)
H14_2 H 0.4886 0.0048 0.4021
C35_2 C 0.5658(5) 0.0430(5) 0.4669(5)
H15_2 H 0.5349 0.0700 0.4798
C36_2 C 0.6392(5) 0.0426(4) 0.4960(4)
C38_2 C 0.6664(4) 0.0846(4) 0.5478(4)
C39_2 C 0.7375(4) 0.1077(4) 0.6492(4)
C40_2 C 0.7111(4) 0.1633(3) 0.6436(4)
H16_2 H 0.7271 0.1901 0.6758
C41_2 C 0.6608(5) 0.1784(4) 0.5896(4)
C42_2 C 0.6389(4) 0.1391(3) 0.5412(4)
H17_2 H 0.6056 0.1496 0.5044
C43_2 C 0.6271(5) 0.2364(4) 0.5820(4)
C44_2 C 0.6418(6) 0.2723(5) 0.5356(5)
H18_2 H 0.6757 0.2611 0.5116
C45_2 C 0.6068(6) 0.3266(5) 0.5228(5)
H19_2 H 0.6190 0.3508 0.4919
C46_2 C 0.5549(4) 0.3427(3) 0.5562(4)
C47_2 C 0.5385(6) 0.3060(4) 0.6020(5)
H20_2 H 0.5021 0.3163 0.6237
C48_2 C 0.5749(6) 0.2532(4) 0.6171(4)
C49_2 C 0.9167(4) 0.0358(3) 0.8908(3)
C50_2 C 0.5498(6) 0.2171(4) 0.6679(5)
C51_2 C 0.5141(4) 0.3972(3) 0.5439(3)
C52_2 C 0.7867(4) 0.0908(4) 0.7102(3)
C53_2 C 0.8494(4) 0.0572(4) 0.7125(3)
C54_2 C 0.8911(4) 0.0413(4) 0.7704(3)
H21_2 H 0.9336 0.0204 0.7713
C55_2 C 0.8712(4) 0.0557(4) 0.8278(3)
C56_2 C 0.8082(5) 0.0876(4) 0.8262(4)
H22_2 H 0.7938 0.0971 0.8642
C57_2 C 0.7669(5) 0.1054(5) 0.7679(4)
H23_2 H 0.7253 0.1274 0.7673
C58_2 C 0.8749(4) 0.0385(4) 0.6528(3)
N2_2 N 0.7145(4) 0.0682(3) 0.6017(3)
H24_2 H 0.7303 0.0334 0.6058
O13_2 O 0.8833(4) 0.0740(3) 0.6114(3)
O15_2 O 0.8906(3) 0.0418(3) 0.9400(2)
O16_2 O 0.9781(3) 0.0155(3) 0.8885(2)
O17_2 O 0.8038(3) 0.0420(3) 0.4905(3)
O21_2 O 0.5374(3) 0.4350(2) 0.5102(3)
O32_2 O 0.9626(3) 0.0650(2) 0.4898(3)
C30_2 C 0.7660(5) 0.9991(4) 0.5001(4)
C32_2 C 0.6565(5) 0.9637(4) 0.4270(5)
H13_2 H 0.6871 0.9370 0.4133
C33_2 C 0.5832(5) 0.9651(5) 0.3979(5)
C37_2 C 0.5534(6) 0.9246(5) 0.3443(5)
O14_2 O 0.8877(4) 0.9849(3) 0.6470(3)
O18_2 O 0.7941(3) 0.9549(3) 0.5281(3)
O19_2 O 0.5962(4) 0.8912(3) 0.3228(3)
O20_2 O 0.4865(4) 0.9237(4) 0.3216(4)
O25_2 O 0.8906(3) 0.9582(3) 0.4400(2)
H14_3 H 0.0114 0.4952 0.5979
O22_2 O 0.0419(3) 0.0957(2) 0.4336(3)
O23 O 0.0176(5) 0.2807(5) 0.3278(5)
C1_3 C 0.2660(5) 0.5009(4) 0.0001(4)
C9_3 C 0.1664(4) 0.4154(4) 0.0478(4)
C10_3 C 0.2375(4) 0.3923(4) 0.1492(4)
C11_3 C 0.2111(4) 0.3367(3) 0.1436(4)
H4_3 H 0.2271 0.3099 0.1758
C12_3 C 0.1608(5) 0.3216(4) 0.0896(4)
C13_3 C 0.1389(4) 0.3609(3) 0.0412(4)
H5_3 H 0.1056 0.3504 0.0044
C14_3 C 0.1271(5) 0.2636(4) 0.0820(4)
C15_3 C 0.1418(6) 0.2277(5) 0.0356(5)
H6_3 H 0.1757 0.2389 0.0116
C16_3 C 0.1068(6) 0.1734(5) 0.0228(5)
C17_3 C 0.0549(4) 0.1573(3) 0.0562(4)
C18_3 C 0.0385(6) 0.1940(4) 0.1020(5)
H8_3 H 0.0021 0.1837 0.1237
C19_3 C 0.0749(6) 0.2468(4) 0.1171(4)
C20_3 C 0.4167(4) 0.4642(3) 0.3908(3)
C21_3 C 0.0498(6) 0.2829(4) 0.1679(5)
C22_3 C 0.0141(4) 0.1028(3) 0.0439(3)
C23_3 C 0.2867(4) 0.4092(4) 0.2102(3)
C24_3 C 0.3494(4) 0.4428(4) 0.2125(3)
C25_3 C 0.3911(4) 0.4587(4) 0.2704(3)
H9_3 H 0.4336 0.4796 0.2713
C26_3 C 0.3712(4) 0.4443(4) 0.3278(3)
C27_3 C 0.3082(5) 0.4124(4) 0.3262(4)
H10_3 H 0.2938 0.4029 0.3642
C28_3 C 0.2669(5) 0.3946(5) 0.2679(4)
H11_3 H 0.2253 0.3726 0.2673
C29_3 C 0.3749(4) 0.4615(4) 0.1528(3)
N1_3 N 0.2145(4) 0.4318(3) 0.1017(3)
H12_3 H 0.2303 0.4666 0.1058
O1_3 O 0.3833(4) 0.4260(3) 0.1114(3)
O2_3 O 0.3877(4) 0.5151(3) 0.1470(3)
O4_3 O 0.4781(3) 0.4845(3) 0.3885(2)
O6_3 O 0.2941(3) 0.5451(3) 0.0281(3)
O12_3 O 0.0926(4) 0.3094(4) 0.2080(4)
C30_3 C 0.7340(5) 0.5009(4) 0.4999(4)
C31_3 C 0.8159(5) 0.4992(4) 0.5248(5)
C32_3 C 0.8435(5) 0.5363(4) 0.5730(5)
H13_3 H 0.8129 0.5630 0.5867
C33_3 C 0.9168(5) 0.5349(5) 0.6021(5)
C34_3 C 0.9618(6) 0.4955(5) 0.5802(7)
C35_3 C 0.9342(5) 0.4570(5) 0.5331(5)
H15_3 H 0.9651 0.4300 0.5202
C36_3 C 0.8608(5) 0.4574(4) 0.5040(4)
C37_3 C 0.9466(6) 0.5754(5) 0.6557(5)
C38_3 C 0.8336(4) 0.4154(4) 0.4522(4)
C39_3 C 0.7625(4) 0.3923(4) 0.3508(4)
C40_3 C 0.7889(4) 0.3367(3) 0.3564(4)
H16_3 H 0.7729 0.3099 0.3242
C41_3 C 0.8392(5) 0.3216(4) 0.4104(4)
C42_3 C 0.8611(4) 0.3609(3) 0.4588(4)
H17_3 H 0.8944 0.3504 0.4956
C43_3 C 0.8729(5) 0.2636(4) 0.4180(4)
C44_3 C 0.8582(6) 0.2277(5) 0.4644(5)
H18_3 H 0.8243 0.2389 0.4884
C45_3 C 0.8932(6) 0.1734(5) 0.4772(5)
H19_3 H 0.8810 0.1492 0.5081
C46_3 C 0.9451(4) 0.1573(3) 0.4438(4)
C47_3 C 0.9615(6) 0.1940(4) 0.3980(5)
H20_3 H 0.9979 0.1837 0.3763
C48_3 C 0.9251(6) 0.2468(4) 0.3829(4)
C49_3 C 0.5833(4) 0.4642(3) 0.1092(3)
C50_3 C 0.9502(6) 0.2829(4) 0.3321(5)
C51_3 C 0.9859(4) 0.1028(3) 0.4561(3)
C52_3 C 0.7133(4) 0.4092(4) 0.2898(3)
C53_3 C 0.6506(4) 0.4428(4) 0.2875(3)
C54_3 C 0.6089(4) 0.4587(4) 0.2296(3)
H21_3 H 0.5664 0.4796 0.2287
C55_3 C 0.6288(4) 0.4443(4) 0.1722(3)
C56_3 C 0.6918(5) 0.4124(4) 0.1738(4)
H22_3 H 0.7062 0.4029 0.1358
C57_3 C 0.7331(5) 0.3946(5) 0.2321(4)
H23_3 H 0.7747 0.3726 0.2327
C58_3 C 0.6251(4) 0.4615(4) 0.3472(3)
N2_3 N 0.7855(4) 0.4318(3) 0.3983(3)
H24_3 H 0.7697 0.4666 0.3942
O13_3 O 0.6167(4) 0.4260(3) 0.3886(3)
O14_3 O 0.6123(4) 0.5151(3) 0.3530(3)
O16_3 O 0.5219(3) 0.4845(3) 0.1115(2)
O17_3 O 0.6962(3) 0.4580(3) 0.5095(3)
O18_3 O 0.7059(3) 0.5451(3) 0.4719(3)
O24 O 0.9074(4) 0.3094(4) 0.2920(4)
O33_2 O 0.4581(3) 0.5957(2) 0.0664(3)
O34_2 O 0.5419(3) 0.5957(2) 0.4336(3)
C2_3 C 0.1841(5) 0.4992(4) 0.9752(5)
C3_3 C 0.1565(5) 0.5363(4) 0.9270(5)
H1_3 H 0.1871 0.5630 0.9133
C4_3 C 0.0832(5) 0.5349(5) 0.8979(5)
C5_3 C 0.0382(6) 0.4955(5) 0.9198(7)
C6_3 C 0.0658(5) 0.4570(5) 0.9669(5)
H3_3 H 0.0349 0.4300 0.9798
C7_3 C 0.1392(5) 0.4574(4) 0.9960(4)
C8_3 C 0.0534(6) 0.5754(5) 0.8443(5)
H7_3 H 0.1190 0.1492 0.9919
O5_3 O 0.3038(3) 0.4580(3) 0.9905(3)
O10_2 O 0.9581(3) 0.0957(2) 0.0664(3)
O11_3 O 0.9824(5) 0.2807(5) 0.1722(5)
H2_3 H 0.9886 0.4952 0.9021
C30_4 C 0.2340(5) 0.0009(4) 0.4999(4)
C32_4 C 0.3435(5) 0.0363(4) 0.5730(5)
H13_4 H 0.3129 0.0630 0.5867
C33_4 C 0.4168(5) 0.0349(5) 0.6021(5)
C37_4 C 0.4466(6) 0.0754(5) 0.6557(5)
O14_4 O 0.1123(4) 0.0151(3) 0.3530(3)
O18_4 O 0.2059(3) 0.0451(3) 0.4719(3)
C31_4 C 0.3159(5) 0.9992(4) 0.5248(5)
C34_4 C 0.4618(6) 0.9955(5) 0.5802(7)
H14_4 H 0.5114 0.9952 0.5979
C35_4 C 0.4342(5) 0.9570(5) 0.5331(5)
H15_4 H 0.4651 0.9300 0.5202
C36_4 C 0.3608(5) 0.9574(4) 0.5040(4)
C38_4 C 0.3336(4) 0.9154(4) 0.4522(4)
C39_4 C 0.2625(4) 0.8923(4) 0.3508(4)
C40_4 C 0.2889(4) 0.8367(3) 0.3564(4)
H16_4 H 0.2729 0.8099 0.3242
C41_4 C 0.3392(5) 0.8216(4) 0.4104(4)
C42_4 C 0.3611(4) 0.8609(3) 0.4588(4)
H17_4 H 0.3944 0.8504 0.4956
C43_4 C 0.3729(5) 0.7636(4) 0.4180(4)
C44_4 C 0.3582(6) 0.7277(5) 0.4644(5)
H18_4 H 0.3243 0.7389 0.4884
C45_4 C 0.3932(6) 0.6734(5) 0.4772(5)
H19_4 H 0.3810 0.6492 0.5081
C46_4 C 0.4451(4) 0.6573(3) 0.4438(4)
C47_4 C 0.4615(6) 0.6940(4) 0.3980(5)
H20_4 H 0.4979 0.6837 0.3763
C48_4 C 0.4251(6) 0.7468(4) 0.3829(4)
C49_4 C 0.0833(4) 0.9642(3) 0.1092(3)
C50_4 C 0.4502(6) 0.7829(4) 0.3321(5)
C51_4 C 0.4859(4) 0.6028(3) 0.4561(3)
C52_4 C 0.2133(4) 0.9092(4) 0.2898(3)
C53_4 C 0.1506(4) 0.9428(4) 0.2875(3)
C54_4 C 0.1089(4) 0.9587(4) 0.2296(3)
H21_4 H 0.0664 0.9796 0.2287
C55_4 C 0.1288(4) 0.9443(4) 0.1722(3)
C56_4 C 0.1918(5) 0.9124(4) 0.1738(4)
H22_4 H 0.2062 0.9029 0.1358
C57_4 C 0.2331(5) 0.8946(5) 0.2321(4)
H23_4 H 0.2747 0.8726 0.2327
C58_4 C 0.1251(4) 0.9615(4) 0.3472(3)
N2_4 N 0.2855(4) 0.9318(3) 0.3983(3)
H24_4 H 0.2697 0.9666 0.3942
O13_4 O 0.1167(4) 0.9260(3) 0.3886(3)
O16_4 O 0.0219(3) 0.9845(3) 0.1115(2)
O17_4 O 0.1962(3) 0.9580(3) 0.5095(3)
O23_2 O 0.5176(5) 0.7807(5) 0.3278(5)
O24_2 O 0.4074(4) 0.8094(4) 0.2920(4)
C1_4 C 0.7660(5) 0.0009(4) 0.0001(4)
O2_4 O 0.8877(4) 0.0151(3) 0.1470(3)
O6_4 O 0.7941(3) 0.0451(3) 0.0281(3)
C3_4 C 0.6565(5) 0.0363(4) 0.9270(5)
H1_4 H 0.6871 0.0630 0.9133
C4_4 C 0.5832(5) 0.0349(5) 0.8979(5)
C8_4 C 0.5534(6) 0.0754(5) 0.8443(5)
C9_4 C 0.6664(4) 0.9154(4) 0.0478(4)
C10_4 C 0.7375(4) 0.8923(4) 0.1492(4)
C11_4 C 0.7111(4) 0.8367(3) 0.1436(4)
H4_4 H 0.7271 0.8099 0.1758
C12_4 C 0.6608(5) 0.8216(4) 0.0896(4)
C13_4 C 0.6389(4) 0.8609(3) 0.0412(4)
H5_4 H 0.6056 0.8504 0.0044
C14_4 C 0.6271(5) 0.7636(4) 0.0820(4)
C15_4 C 0.6418(6) 0.7277(5) 0.0356(5)
H6_4 H 0.6757 0.7389 0.0116
C16_4 C 0.6068(6) 0.6734(5) 0.0228(5)
C17_4 C 0.5549(4) 0.6573(3) 0.0562(4)
C18_4 C 0.5385(6) 0.6940(4) 0.1020(5)
H8_4 H 0.5021 0.6837 0.1237
C19_4 C 0.5749(6) 0.7468(4) 0.1171(4)
C20_4 C 0.9167(4) 0.9642(3) 0.3908(3)
C21_4 C 0.5498(6) 0.7829(4) 0.1679(5)
C22_4 C 0.5141(4) 0.6028(3) 0.0439(3)
C23_4 C 0.7867(4) 0.9092(4) 0.2102(3)
C24_4 C 0.8494(4) 0.9428(4) 0.2125(3)
C25_4 C 0.8911(4) 0.9587(4) 0.2704(3)
H9_4 H 0.9336 0.9796 0.2713
C26_4 C 0.8712(4) 0.9443(4) 0.3278(3)
C27_4 C 0.8082(5) 0.9124(4) 0.3262(4)
H10_4 H 0.7938 0.9029 0.3642
C28_4 C 0.7669(5) 0.8946(5) 0.2679(4)
H11_4 H 0.7253 0.8726 0.2673
C29_4 C 0.8749(4) 0.9615(4) 0.1528(3)
N1_4 N 0.7145(4) 0.9318(3) 0.1017(3)
H12_4 H 0.7303 0.9666 0.1058
O1_4 O 0.8833(4) 0.9260(3) 0.1114(3)
O4_4 O 0.9781(3) 0.9845(3) 0.3885(2)
O11_4 O 0.4824(5) 0.7807(5) 0.1722(5)
O12_4 O 0.5926(4) 0.8094(4) 0.2080(4)
C2_4 C 0.6841(5) 0.9992(4) 0.9752(5)
C5_4 C 0.5382(6) 0.9955(5) 0.9198(7)
H2_4 H 0.4886 0.9952 0.9021
C6_4 C 0.5658(5) 0.9570(5) 0.9669(5)
H3_4 H 0.5349 0.9300 0.9798
C7_4 C 0.6392(5) 0.9574(4) 0.9960(4)
H7_4 H 0.6190 0.6492 0.9919
O5_4 O 0.8038(3) 0.9580(3) 0.9905(3)
loop_
_geom_bond_atom_site_label_1
_geom_bond_atom_site_label_2
_geom_bond_site_symmetry_1
_geom_bond_site_symmetry_2
O8 Lu12 1_555 1_555
Lu2 O11 1_555 1_555
Lu4 O10 1_555 1_555
O27 Lu2 1_555 1_555
O30 Lu2 1_555 1_555
O36 Lu2 1_555 1_555
C2 C3 1_555 1_555
C3 H1 1_555 1_555
C4 C3 1_555 1_555
C5 C4 1_555 1_555
C6 C5 1_555 1_555
H3 C6 1_555 1_555
C7 C2 1_555 1_555
C8 C4 1_555 1_555
O7 C8 1_555 1_555
Lu12_2 O7 1_555 1_555
C6 C7 1_555 1_555
C10 C11 1_555 1_555
C11 H4 1_555 1_555
C12 C11 1_555 1_555
C13 C9 1_555 1_555
H5 C13 1_555 1_555
C14 C12 1_555 1_555
C15 C14 1_555 1_555
H6 C15 1_555 1_555
C16 C15 1_555 1_555
C17 C16 1_555 1_555
C18 C17 1_555 1_555
H8 C18 1_555 1_555
C19 C14 1_555 1_555
C20 C26 1_555 1_555
C21 C19 1_555 1_555
C22 C17 1_555 1_555
C23 C10 1_555 1_555
C24 C23 1_555 1_555
C25 C24 1_555 1_555
H9 C25 1_555 1_555
C26 C25 1_555 1_555
C27 C26 1_555 1_555
H10 C27 1_555 1_555
C28 C23 1_555 1_555
H11 C28 1_555 1_555
C29 C24 1_555 1_555
Lu1 O1 1_555 1_555
N1 C9 1_555 1_555
H12 N1 1_555 1_555
O1 C29 1_555 1_555
O2 C29 1_555 1_555
O3 C20 1_555 1_555
O4 C20 1_555 1_555
O6 C1 1_555 1_555
O9 C22 1_555 1_555
O12 C21 1_555 1_555
C30 C31 1_555 1_555
C31 C32 1_555 1_555
C32 H13 1_555 1_555
C33 C32 1_555 1_555
C34 C33 1_555 1_555
C35 C34 1_555 1_555
H15 C35 1_555 1_555
C36 C31 1_555 1_555
C37 C33 1_555 1_555
C38 C36 1_555 1_555
C39 C40 1_555 1_555
C40 H16 1_555 1_555
C41 C40 1_555 1_555
C42 C38 1_555 1_555
H17 C42 1_555 1_555
C43 C41 1_555 1_555
C44 C43 1_555 1_555
H18 C44 1_555 1_555
C45 C44 1_555 1_555
H19 C45 1_555 1_555
C46 C45 1_555 1_555
C47 C46 1_555 1_555
H20 C47 1_555 1_555
C48 C43 1_555 1_555
C49 C55 1_555 1_555
C50 C48 1_555 1_555
C51 C46 1_555 1_555
C52 C39 1_555 1_555
C53 C52 1_555 1_555
C54 C53 1_555 1_555
H21 C54 1_555 1_555
C55 C54 1_555 1_555
C56 C55 1_555 1_555
H22 C56 1_555 1_555
C57 C52 1_555 1_555
H23 C57 1_555 1_555
C58 C53 1_555 1_555
Lu3 O4 1_555 1_555
N2 C38 1_555 1_555
H24 N2 1_555 1_555
O13 C58 1_555 1_555
O14 C58 1_555 1_555
O15 C49 1_555 1_555
O16 Lu1 1_555 1_555
O17 C30 1_555 1_555
O18 C30 1_555 1_555
O19 C37 1_555 1_555
O21 C51 1_555 1_555
O36 C50 1_555 1_555
Lu7 O3 1_555 1_555
Lu12 O19 1_555 1_555
O25 Lu3 1_555 1_555
O28 Lu2_2 1_555 1_555
O29 Lu2_2 1_555 1_555
O32 Lu3 1_555 1_555
O33 Lu1 1_555 1_555
O34 Lu3 1_555 1_555
O35 Lu2_2 1_555 1_555
C10 N1 1_555 1_555
C12 C13 1_555 1_555
C18 C19 1_555 1_555
C27 C28 1_555 1_555
Lu1 O2 1_555 1_555
Lu1 O6 1_555 1_555
Lu2_2 O12 1_555 1_555
C35 C36 1_555 1_555
C39 N2 1_555 1_555
C41 C42 1_555 1_555
C47 C48 1_555 1_555
C49 O16 1_555 1_555
C56 C57 1_555 1_555
Lu3 O13 1_555 1_555
Lu3 O14 1_555 1_555
Lu3 O17 1_555 1_555
Lu3 O18 1_555 1_555
Lu5 O22 1_555 1_555
O20 Lu12_2 1_555 1_555
H2_2 C5_2 1_555 1_555
C6_2 C5_2 1_555 1_555
H3_2 C6_2 1_555 1_555
C7_2 C2_2 1_555 1_555
C6_2 C7_2 1_555 1_555
C10_2 C11_2 1_555 1_555
C11_2 H4_2 1_555 1_555
C12_2 C11_2 1_555 1_555
C13_2 C9_2 1_555 1_555
H5_2 C13_2 1_555 1_555
C14_2 C12_2 1_555 1_555
C15_2 C14_2 1_555 1_555
H6_2 C15_2 1_555 1_555
C16_2 C15_2 1_555 1_555
C17_2 C16_2 1_555 1_555
C18_2 C17_2 1_555 1_555
H8_2 C18_2 1_555 1_555
C19_2 C14_2 1_555 1_555
C20_2 C26_2 1_555 1_555
C21_2 C19_2 1_555 1_555
C22_2 C17_2 1_555 1_555
C23_2 C10_2 1_555 1_555
C24_2 C23_2 1_555 1_555
C25_2 C24_2 1_555 1_555
H9_2 C25_2 1_555 1_555
C26_2 C25_2 1_555 1_555
C27_2 C26_2 1_555 1_555
H10_2 C27_2 1_555 1_555
C28_2 C23_2 1_555 1_555
H11_2 C28_2 1_555 1_555
C29_2 C24_2 1_555 1_555
Lu2_3 O11_2 1_555 1_555
N1_2 C9_2 1_555 1_555
H12_2 N1_2 1_555 1_555
O1_2 C29_2 1_555 1_555
O3_2 C20_2 1_555 1_555
O4_2 C20_2 1_555 1_555
O9_2 C22_2 1_555 1_555
O33 C22_2 1_555 1_555
O11_2 C21_2 1_555 1_555
O12_2 C21_2 1_555 1_555
Lu9 O3_2 1_555 1_555
O27_2 Lu2_3 1_555 1_555
O28_2 Lu2_3 1_555 1_555
O29_2 Lu2_3 1_555 1_555
O30_2 Lu2_3 1_555 1_555
O35_2 Lu2_3 1_555 1_555
O36_2 Lu2_3 1_555 1_555
C10_2 N1_2 1_555 1_555
C12_2 C13_2 1_555 1_555
C18_2 C19_2 1_555 1_555
C27_2 C28_2 1_555 1_555
Lu2_3 O12_2 1_555 1_555
C3_2 H1_2 1_555 1_555
C4_2 C3_2 1_555 1_555
C8_2 C4_2 1_555 1_555
O7_2 C8_2 1_555 1_555
O8_2 C8_2 1_555 1_555
Lu12_3 O7_2 1_555 1_555
O8_2 Lu12_3 1_555 1_555
O6_2 C1_2 1_555 1_555
Lu4 O2_2 1_555 1_555
Lu4 O6_2 1_555 1_555
H14_2 C34_2 1_555 1_555
C35_2 C34_2 1_555 1_555
H15_2 C35_2 1_555 1_555
C36_2 C31_2 1_555 1_555
C38_2 C36_2 1_555 1_555
C39_2 C40_2 1_555 1_555
C40_2 H16_2 1_555 1_555
C41_2 C40_2 1_555 1_555
C42_2 C38_2 1_555 1_555
H17_2 C42_2 1_555 1_555
C43_2 C41_2 1_555 1_555
C44_2 C43_2 1_555 1_555
H18_2 C44_2 1_555 1_555
C45_2 C44_2 1_555 1_555
H19_2 C45_2 1_555 1_555
C46_2 C45_2 1_555 1_555
C47_2 C46_2 1_555 1_555
H20_2 C47_2 1_555 1_555
C48_2 C43_2 1_555 1_555
C49_2 C55_2 1_555 1_555
C50_2 C48_2 1_555 1_555
C51_2 C46_2 1_555 1_555
C52_2 C39_2 1_555 1_555
C53_2 C52_2 1_555 1_555
C54_2 C53_2 1_555 1_555
H21_2 C54_2 1_555 1_555
C55_2 C54_2 1_555 1_555
C56_2 C55_2 1_555 1_555
H22_2 C56_2 1_555 1_555
C57_2 C52_2 1_555 1_555
H23_2 C57_2 1_555 1_555
C58_2 C53_2 1_555 1_555
N2_2 C38_2 1_555 1_555
H24_2 N2_2 1_555 1_555
O13_2 C58_2 1_555 1_555
O15_2 C49_2 1_555 1_555
O21_2 C51_2 1_555 1_555
O34 C51_2 1_555 1_555
O35_2 C50_2 1_555 1_555
O36_2 C50_2 1_555 1_555
Lu7 O21_2 1_555 1_555
C35_2 C36_2 1_555 1_555
C39_2 N2_2 1_555 1_555
C41_2 C42_2 1_555 1_555
C47_2 C48_2 1_555 1_555
C49_2 O16_2 1_555 1_555
C56_2 C57_2 1_555 1_555
C32_2 H13_2 1_555 1_555
C33_2 C32_2 1_555 1_555
C37_2 C33_2 1_555 1_555
O18_2 C30_2 1_555 1_555
O19_2 C37_2 1_555 1_555
O20_2 C37_2 1_555 1_555
Lu12_3 O19_2 1_555 1_555
O25_2 Lu5 1_555 1_555
Lu5 O14_2 1_555 1_555
Lu5 O18_2 1_555 1_555
O20_2 Lu12_3 1_555 1_555
Lu9 O22_2 1_555 1_555
Lu12 O23 1_555 1_555
C10_3 C11_3 1_555 1_555
C11_3 H4_3 1_555 1_555
C12_3 C11_3 1_555 1_555
C13_3 C9_3 1_555 1_555
H5_3 C13_3 1_555 1_555
C14_3 C12_3 1_555 1_555
C15_3 C14_3 1_555 1_555
H6_3 C15_3 1_555 1_555
C16_3 C15_3 1_555 1_555
C17_3 C16_3 1_555 1_555
C18_3 C17_3 1_555 1_555
H8_3 C18_3 1_555 1_555
C19_3 C14_3 1_555 1_555
C20_3 C26_3 1_555 1_555
C21_3 C19_3 1_555 1_555
C22_3 C17_3 1_555 1_555
C23_3 C10_3 1_555 1_555
C24_3 C23_3 1_555 1_555
C25_3 C24_3 1_555 1_555
H9_3 C25_3 1_555 1_555
C26_3 C25_3 1_555 1_555
C27_3 C26_3 1_555 1_555
H10_3 C27_3 1_555 1_555
C28_3 C23_3 1_555 1_555
H11_3 C28_3 1_555 1_555
C29_3 C24_3 1_555 1_555
Lu6 O1_3 1_555 1_555
N1_3 C9_3 1_555 1_555
H12_3 N1_3 1_555 1_555
O1_3 C29_3 1_555 1_555
O2_3 C29_3 1_555 1_555
O25 C20_3 1_555 1_555
O4_3 C20_3 1_555 1_555
O6_3 C1_3 1_555 1_555
O31_2 C22_3 1_555 1_555
O12_3 C21_3 1_555 1_555
C30_3 C31_3 1_555 1_555
C31_3 C32_3 1_555 1_555
C32_3 H13_3 1_555 1_555
C33_3 C32_3 1_555 1_555
C34_3 C33_3 1_555 1_555
C35_3 C34_3 1_555 1_555
H15_3 C35_3 1_555 1_555
C36_3 C31_3 1_555 1_555
C37_3 C33_3 1_555 1_555
C38_3 C36_3 1_555 1_555
C39_3 C40_3 1_555 1_555
C40_3 H16_3 1_555 1_555
C41_3 C40_3 1_555 1_555
C42_3 C38_3 1_555 1_555
H17_3 C42_3 1_555 1_555
C43_3 C41_3 1_555 1_555
C44_3 C43_3 1_555 1_555
H18_3 C44_3 1_555 1_555
C45_3 C44_3 1_555 1_555
H19_3 C45_3 1_555 1_555
C46_3 C45_3 1_555 1_555
C47_3 C46_3 1_555 1_555
H20_3 C47_3 1_555 1_555
C48_3 C43_3 1_555 1_555
C49_3 C55_3 1_555 1_555
C50_3 C48_3 1_555 1_555
C51_3 C46_3 1_555 1_555
C52_3 C39_3 1_555 1_555
C53_3 C52_3 1_555 1_555
C54_3 C53_3 1_555 1_555
H21_3 C54_3 1_555 1_555
C55_3 C54_3 1_555 1_555
C56_3 C55_3 1_555 1_555
H22_3 C56_3 1_555 1_555
C57_3 C52_3 1_555 1_555
H23_3 C57_3 1_555 1_555
C58_3 C53_3 1_555 1_555
Lu7 O4_3 1_555 1_555
N2_3 C38_3 1_555 1_555
H24_3 N2_3 1_555 1_555
O13_3 C58_3 1_555 1_555
O14_3 C58_3 1_555 1_555
O26 C49_3 1_555 1_555
O16_3 Lu6 1_555 1_555
O17_3 C30_3 1_555 1_555
O18_3 C30_3 1_555 1_555
O28 C37_3 1_555 1_555
O32_2 C51_3 1_555 1_555
O24 C50_3 1_555 1_555
O33_2 Lu6 1_555 1_555
O34_2 Lu7 1_555 1_555
C10_3 N1_3 1_555 1_555
C12_3 C13_3 1_555 1_555
C18_3 C19_3 1_555 1_555
C27_3 C28_3 1_555 1_555
Lu6 O2_3 1_555 1_555
Lu6 O6_3 1_555 1_555
Lu12 O12_3 1_555 1_555
C35_3 C36_3 1_555 1_555
C39_3 N2_3 1_555 1_555
C41_3 C42_3 1_555 1_555
C47_3 C48_3 1_555 1_555
C49_3 O16_3 1_555 1_555
C56_3 C57_3 1_555 1_555
Lu7 O13_3 1_555 1_555
Lu7 O14_3 1_555 1_555
Lu7 O17_3 1_555 1_555
Lu7 O18_3 1_555 1_555
O24 Lu12_2 1_555 1_555
C2_3 C3_3 1_555 1_555
C3_3 H1_3 1_555 1_555
C4_3 C3_3 1_555 1_555
C5_3 C4_3 1_555 1_555
C6_3 C5_3 1_555 1_555
H3_3 C6_3 1_555 1_555
C7_3 C2_3 1_555 1_555
C8_3 C4_3 1_555 1_555
O27 C8_3 1_555 1_555
C6_3 C7_3 1_555 1_555
Lu12_2 O11_3 1_555 1_555
Lu8 O10_2 1_555 1_555
C32_4 H13_4 1_555 1_555
C33_4 C32_4 1_555 1_555
C37_4 C33_4 1_555 1_555
O18_4 C30_4 1_555 1_555
O28_2 C37_4 1_555 1_555
O30_2 C37_4 1_555 1_555
Lu9 O14_4 1_555 1_555
Lu9 O18_4 1_555 1_555
H14_4 C34_4 1_555 1_555
C35_4 C34_4 1_555 1_555
H15_4 C35_4 1_555 1_555
C36_4 C31_4 1_555 1_555
C38_4 C36_4 1_555 1_555
C39_4 C40_4 1_555 1_555
C40_4 H16_4 1_555 1_555
C41_4 C40_4 1_555 1_555
C42_4 C38_4 1_555 1_555
H17_4 C42_4 1_555 1_555
C43_4 C41_4 1_555 1_555
C44_4 C43_4 1_555 1_555
H18_4 C44_4 1_555 1_555
C45_4 C44_4 1_555 1_555
H19_4 C45_4 1_555 1_555
C46_4 C45_4 1_555 1_555
C47_4 C46_4 1_555 1_555
H20_4 C47_4 1_555 1_555
C48_4 C43_4 1_555 1_555
C49_4 C55_4 1_555 1_555
C50_4 C48_4 1_555 1_555
C51_4 C46_4 1_555 1_555
C52_4 C39_4 1_555 1_555
C53_4 C52_4 1_555 1_555
C54_4 C53_4 1_555 1_555
H21_4 C54_4 1_555 1_555
C55_4 C54_4 1_555 1_555
C56_4 C55_4 1_555 1_555
H22_4 C56_4 1_555 1_555
C57_4 C52_4 1_555 1_555
H23_4 C57_4 1_555 1_555
C58_4 C53_4 1_555 1_555
N2_4 C38_4 1_555 1_555
H24_4 N2_4 1_555 1_555
O13_4 C58_4 1_555 1_555
O26_2 C49_4 1_555 1_555
O32 C51_4 1_555 1_555
O34_2 C51_4 1_555 1_555
O23_2 C50_4 1_555 1_555
O24_2 C50_4 1_555 1_555
Lu12_3 O23_2 1_555 1_555
C35_4 C36_4 1_555 1_555
C39_4 N2_4 1_555 1_555
C41_4 C42_4 1_555 1_555
C47_4 C48_4 1_555 1_555
C49_4 O16_4 1_555 1_555
C56_4 C57_4 1_555 1_555
O24_2 Lu12_3 1_555 1_555
O6_4 C1_4 1_555 1_555
Lu8 O2_4 1_555 1_555
Lu8 O6_4 1_555 1_555
C3_4 H1_4 1_555 1_555
C4_4 C3_4 1_555 1_555
C8_4 C4_4 1_555 1_555
O27_2 C8_4 1_555 1_555
O29_2 C8_4 1_555 1_555
C10_4 C11_4 1_555 1_555
C11_4 H4_4 1_555 1_555
C12_4 C11_4 1_555 1_555
C13_4 C9_4 1_555 1_555
H5_4 C13_4 1_555 1_555
C14_4 C12_4 1_555 1_555
C15_4 C14_4 1_555 1_555
H6_4 C15_4 1_555 1_555
C16_4 C15_4 1_555 1_555
C17_4 C16_4 1_555 1_555
C18_4 C17_4 1_555 1_555
H8_4 C18_4 1_555 1_555
C19_4 C14_4 1_555 1_555
C20_4 C26_4 1_555 1_555
C21_4 C19_4 1_555 1_555
C22_4 C17_4 1_555 1_555
C23_4 C10_4 1_555 1_555
C24_4 C23_4 1_555 1_555
C25_4 C24_4 1_555 1_555
H9_4 C25_4 1_555 1_555
C26_4 C25_4 1_555 1_555
C27_4 C26_4 1_555 1_555
H10_4 C27_4 1_555 1_555
C28_4 C23_4 1_555 1_555
H11_4 C28_4 1_555 1_555
C29_4 C24_4 1_555 1_555
Lu12_3 O11_4 1_555 1_555
N1_4 C9_4 1_555 1_555
H12_4 N1_4 1_555 1_555
O1_4 C29_4 1_555 1_555
O25_2 C20_4 1_555 1_555
O4_4 C20_4 1_555 1_555
O31 C22_4 1_555 1_555
O33_2 C22_4 1_555 1_555
O11_4 C21_4 1_555 1_555
O12_4 C21_4 1_555 1_555
C10_4 N1_4 1_555 1_555
C12_4 C13_4 1_555 1_555
C18_4 C19_4 1_555 1_555
C27_4 C28_4 1_555 1_555
Lu12_3 O12_4 1_555 1_555
H2_4 C5_4 1_555 1_555
C6_4 C5_4 1_555 1_555
H3_4 C6_4 1_555 1_555
C7_4 C2_4 1_555 1_555
C6_4 C7_4 1_555 1_555

#END
