
###############################################################################
#
# This file contains modified crystal structure data generated from the
# MOF subset of the Cambridge Structural Database (CSD) v543 
# hosted by the Cambridge Crystallographic Data Centre (CCDC).
#
# This work is licensed under the Creative Commons
# Attribution-NonCommercial-ShareAlike 4.0 International License.
# To view a copy of this license, visit
# http://creativecommons.org/licenses/by-nc-sa/4.0/
# or send a letter to
# Creative Commons, PO Box 1866, Mountain View, CA 94042, USA.
#
# CIF created using the CSD Python API on 29 September 2022
# The structure has been converted into the P1 space group
# The structure has a 3D framework
# The original CSD entry HUSGEK is in the monoclinic crystal system
# The framework has been calculated to contain at least 10.0% void space
# The void calculation uses a probe of radius 1.32A, grid spacing 0.4
# The framework is charged, counterions have been retained in the structure
#
###############################################################################

data_HUSGEK
_chemical_formula_moiety         '(C232 H96 N8 O84 Tm14 6-)n'
_symmetry_cell_setting           triclinic
_symmetry_space_group_name_H-M   'P 1'
_symmetry_Int_Tables_number      1
_space_group_name_Hall           'P 1'
loop_
_symmetry_equiv_pos_site_id
_symmetry_equiv_pos_as_xyz
1 x,y,z
_cell_length_a                   18.8054(15)
_cell_length_b                   23.1956(18)
_cell_length_c                   21.1920(15)
_cell_angle_alpha                90
_cell_angle_beta                 101.201(2)
_cell_angle_gamma                90
_cell_volume                     9067.92
loop_
_atom_site_label
_atom_site_type_symbol
_atom_site_fract_x
_atom_site_fract_y
_atom_site_fract_z
Tm9 Tm 0.08532(2) 0.50275(2) 0.45769(2)
Tm1 Tm 0.5000 0.35280(2) 0.2500
Tm2 Tm 0.41468(2) 0.00275(2) 0.04231(2)
O1 O 0.5920(3) 0.3115(2) 0.2067(2)
O2 O 0.4811(4) 0.2811(3) 0.1726(3)
O3 O 0.4584(2) 0.09508(17) 0.06863(17)
O4 O 0.5368(2) 0.06437(16) 0.01169(15)
O5 O 0.8912(2) 0.45578(17) 0.44135(15)
O6 O 0.9784(2) 0.48276(18) 0.38879(16)
O7 O 0.8881(2) 0.51394(17) 0.14786(17)
O8 O 0.8832(2) 0.42526(18) 0.11072(16)
O9 O 0.7945(2) 0.54334(19) 0.03012(18)
N1 N 0.7151(3) 0.4309(2) 0.1028(2)
H1 H 0.7303 0.4659 0.1072
C1 C 0.5499(5) 0.2835(3) 0.1677(3)
C2 C 0.5760(4) 0.2456(3) 0.1183(3)
C3 C 0.5386(4) 0.1941(3) 0.1033(3)
H2 H 0.5010 0.1848 0.1243
C4 C 0.5557(3) 0.1567(2) 0.0583(3)
C5 C 0.6089(4) 0.1719(3) 0.0255(3)
C6 C 0.6436(4) 0.2253(3) 0.0376(3)
H4 H 0.6778 0.2360 0.0135
C7 C 0.6289(4) 0.2619(3) 0.0832(3)
C8 C 0.5142(3) 0.1025(2) 0.0458(2)
C9 C 0.6623(3) 0.3204(3) 0.0906(2)
C10 C 0.6416(3) 0.3594(2) 0.0428(2)
H5 H 0.6092 0.3485 0.0058
C11 C 0.6674(3) 0.4143(3) 0.0482(2)
C12 C 0.7383(3) 0.3909(3) 0.1504(2)
C13 C 0.7121(3) 0.3355(2) 0.1439(2)
H6 H 0.7282 0.3083 0.1758
C14 C 0.7877(3) 0.4080(3) 0.2112(2)
C15 C 0.7680(4) 0.3933(3) 0.2690(2)
H7 H 0.7263 0.3717 0.2687
C16 C 0.8100(4) 0.4105(3) 0.3275(2)
H8 H 0.7959 0.4005 0.3658
C17 C 0.8718(3) 0.4419(3) 0.3291(2)
C18 C 0.8917(3) 0.4573(3) 0.2714(2)
H9 H 0.9335 0.4789 0.2723
C19 C 0.8504(3) 0.4411(2) 0.2132(2)
C20 C 0.8753(3) 0.4605(3) 0.1525(2)
C21 C 0.9173(3) 0.4616(3) 0.3914(2)
C28 C 0.7663(3) 0.4992(3) 0.0006(3)
Tm3 Tm 0.58532(2) 0.00275(2) 0.45769(2)
O13 O 0.4080(3) 0.3115(2) 0.2933(2)
O14 O 0.5189(4) 0.2811(3) 0.3274(3)
O15 O 0.5416(2) 0.09508(17) 0.43137(17)
O16 O 0.4632(2) 0.06437(16) 0.48831(15)
O17 O 0.1088(2) 0.45578(17) 0.05865(15)
O18 O 0.0216(2) 0.48276(18) 0.11121(16)
O19 O 0.1119(2) 0.51394(17) 0.35214(17)
O20 O 0.1168(2) 0.42526(18) 0.38928(16)
O21 O 0.2055(2) 0.54334(19) 0.46988(18)
O22 O 0.1958(2) 0.4571(2) 0.5114(2)
O23 O 0.4038(3) 0.6062(2) 0.6783(2)
O24 O 0.5125(3) 0.5748(3) 0.6769(3)
N2 N 0.2849(3) 0.4309(2) 0.3972(2)
H13 H 0.2697 0.4659 0.3928
C30 C 0.4501(5) 0.2835(3) 0.3323(3)
C31 C 0.4240(4) 0.2456(3) 0.3817(3)
C32 C 0.4614(4) 0.1941(3) 0.3967(3)
H14 H 0.4990 0.1848 0.3757
C33 C 0.4443(3) 0.1567(2) 0.4417(3)
C34 C 0.3911(4) 0.1719(3) 0.4745(3)
H15 H 0.3782 0.1469 0.5046
C35 C 0.3564(4) 0.2253(3) 0.4624(3)
H16 H 0.3222 0.2360 0.4865
C36 C 0.3711(4) 0.2619(3) 0.4168(3)
C37 C 0.4858(3) 0.1025(2) 0.4542(2)
C38 C 0.3377(3) 0.3204(3) 0.4094(2)
C39 C 0.3584(3) 0.3594(2) 0.4572(2)
H17 H 0.3908 0.3485 0.4942
C40 C 0.3326(3) 0.4143(3) 0.4518(2)
C41 C 0.2617(3) 0.3909(3) 0.3496(2)
C42 C 0.2879(3) 0.3355(2) 0.3561(2)
H18 H 0.2718 0.3083 0.3242
C43 C 0.2123(3) 0.4080(3) 0.2888(2)
C44 C 0.2320(4) 0.3933(3) 0.2310(2)
H19 H 0.2737 0.3717 0.2313
C45 C 0.1900(4) 0.4105(3) 0.1725(2)
H20 H 0.2041 0.4005 0.1342
C46 C 0.1282(3) 0.4419(3) 0.1709(2)
C47 C 0.1083(3) 0.4573(3) 0.2286(2)
H21 H 0.0665 0.4789 0.2277
C48 C 0.1496(3) 0.4411(2) 0.2868(2)
C49 C 0.1247(3) 0.4605(3) 0.3475(2)
C50 C 0.0827(3) 0.4616(3) 0.1086(2)
C51 C 0.3592(4) 0.4569(3) 0.5030(3)
C52 C 0.4319(4) 0.4562(3) 0.5310(3)
H22 H 0.4623 0.4298 0.5164
C53 C 0.4607(4) 0.4935(3) 0.5796(4)
H23 H 0.5099 0.4923 0.5975
C54 C 0.4154(4) 0.5330(3) 0.6019(3)
C55 C 0.3430(4) 0.5347(3) 0.5736(3)
H24 H 0.3129 0.5614 0.5878
C56 C 0.3143(3) 0.4971(3) 0.5242(3)
C57 C 0.2337(3) 0.4992(3) 0.4994(3)
C58 C 0.4453(4) 0.5736(3) 0.6554(3)
Tm5 Tm 0.5000 0.64720(2) 0.7500
Tm7 Tm 0.91468(2) 0.50275(2) 0.04231(2)
Tm13 Tm 0.91468(2) 0.49725(2) 0.54231(2)
O27 O 0.6088(2) 0.04422(17) 0.55865(15)
O31 O 0.3881(2) 0.01394(17) 0.14786(17)
O32 O 0.6119(2) 0.01394(17) 0.35214(17)
O35 O 0.2945(2) 0.04334(19) 0.03012(18)
O36 O 0.7055(2) 0.04334(19) 0.46988(18)
O39 O 0.4038(3) 0.3938(2) 0.1783(2)
O40 O 0.5962(3) 0.3938(2) 0.3217(2)
O41 O 0.5125(3) 0.4252(3) 0.1769(3)
O42 O 0.4875(3) 0.4252(3) 0.3231(3)
O10 O 0.8042(2) 0.4571(2) 0.9886(2)
O11 O 0.5962(3) 0.6062(2) 0.8217(2)
O12 O 0.4875(3) 0.5748(3) 0.8231(3)
H3 H 0.6218 0.1469 0.9954
C22 C 0.6408(4) 0.4569(3) 0.9970(3)
C23 C 0.5681(4) 0.4562(3) 0.9690(3)
H10 H 0.5377 0.4298 0.9836
C24 C 0.5393(4) 0.4935(3) 0.9204(4)
H11 H 0.4901 0.4923 0.9025
C25 C 0.5846(4) 0.5330(3) 0.8981(3)
C26 C 0.6570(4) 0.5347(3) 0.9264(3)
H12 H 0.6871 0.5614 0.9122
C27 C 0.6857(3) 0.4971(3) 0.9758(3)
C29 C 0.5547(4) 0.5736(3) 0.8446(3)
Tm12 Tm 0.08532(2) 0.49725(2) 0.95769(2)
O28 O 0.3912(2) 0.04422(17) 0.94135(15)
Tm11 Tm 0.41468(2) 0.99725(2) 0.54231(2)
O26 O 0.5368(2) 0.93563(16) 0.51169(15)
O29 O 0.4784(2) 0.98276(18) 0.38879(16)
O30 O 0.5216(2) 0.98276(18) 0.11121(16)
O33 O 0.3832(2) 0.92526(18) 0.11072(16)
O34 O 0.6168(2) 0.92526(18) 0.38928(16)
O38 O 0.6958(2) 0.9571(2) 0.5114(2)
Tm10 Tm 0.58532(2) 0.99725(2) 0.95769(2)
O25 O 0.4632(2) 0.93563(16) 0.98831(15)
O37 O 0.3042(2) 0.9571(2) 0.9886(2)
O24_2 O 0.0125(3) 0.0748(3) 0.6769(3)
Tm5_2 Tm 0.0000 0.14720(2) 0.7500
O11_2 O 0.0962(3) 0.1062(2) 0.8217(2)
C25_2 C 0.0846(4) 0.0330(3) 0.8981(3)
C26_2 C 0.1570(4) 0.0347(3) 0.9264(3)
H12_2 H 0.1871 0.0614 0.9122
C29_2 C 0.0547(4) 0.0736(3) 0.8446(3)
Tm1_2 Tm 0.0000 0.85280(2) 0.2500
O1_2 O 0.0920(3) 0.8115(2) 0.2067(2)
O4_2 O 0.0368(2) 0.56437(16) 0.01169(15)
O5_2 O 0.3912(2) 0.95578(17) 0.44135(15)
N1_2 N 0.2151(3) 0.9309(2) 0.1028(2)
H1_2 H 0.2303 0.9659 0.1072
C1_2 C 0.0499(5) 0.7835(3) 0.1677(3)
C2_2 C 0.0760(4) 0.7456(3) 0.1183(3)
C3_2 C 0.0386(4) 0.6941(3) 0.1033(3)
H2_2 H 0.0010 0.6848 0.1243
C4_2 C 0.0557(3) 0.6567(2) 0.0583(3)
C5_2 C 0.1089(4) 0.6719(3) 0.0255(3)
C6_2 C 0.1436(4) 0.7253(3) 0.0376(3)
H4_2 H 0.1778 0.7360 0.0135
C7_2 C 0.1289(4) 0.7619(3) 0.0832(3)
C8_2 C 0.0142(3) 0.6025(2) 0.0458(2)
C9_2 C 0.1623(3) 0.8204(3) 0.0906(2)
C10_2 C 0.1416(3) 0.8594(2) 0.0428(2)
H5_2 H 0.1092 0.8485 0.0058
C11_2 C 0.1674(3) 0.9143(3) 0.0482(2)
C12_2 C 0.2383(3) 0.8909(3) 0.1504(2)
C13_2 C 0.2121(3) 0.8355(2) 0.1439(2)
H6_2 H 0.2282 0.8083 0.1758
C14_2 C 0.2877(3) 0.9080(3) 0.2112(2)
C15_2 C 0.2680(4) 0.8933(3) 0.2690(2)
H7_2 H 0.2263 0.8717 0.2687
C16_2 C 0.3100(4) 0.9105(3) 0.3275(2)
H8_2 H 0.2959 0.9005 0.3658
C17_2 C 0.3718(3) 0.9419(3) 0.3291(2)
C18_2 C 0.3917(3) 0.9573(3) 0.2714(2)
H9_2 H 0.4335 0.9789 0.2723
C19_2 C 0.3504(3) 0.9411(2) 0.2132(2)
C20_2 C 0.3753(3) 0.9605(3) 0.1525(2)
C21_2 C 0.4173(3) 0.9616(3) 0.3914(2)
C28_2 C 0.2663(3) 0.9992(3) 0.0006(3)
O14_2 O 0.0189(4) 0.7811(3) 0.3274(3)
O15_2 O 0.0416(2) 0.59508(17) 0.43137(17)
H23_2 H 0.0099 0.9923 0.5975
O26_2 O 0.0368(2) 0.43563(16) 0.51169(15)
O27_2 O 0.1088(2) 0.54422(17) 0.55865(15)
O40_2 O 0.0962(3) 0.8938(2) 0.3217(2)
O41_2 O 0.0125(3) 0.9252(3) 0.1769(3)
H3_2 H 0.1218 0.6469 0.9954
C22_2 C 0.1408(4) 0.9569(3) 0.9970(3)
C23_2 C 0.0681(4) 0.9562(3) 0.9690(3)
H10_2 H 0.0377 0.9298 0.9836
C24_2 C 0.0393(4) 0.9935(3) 0.9204(4)
C27_2 C 0.1857(3) 0.9971(3) 0.9758(3)
O23_2 O 0.9038(3) 0.1062(2) 0.6783(2)
C54_2 C 0.9154(4) 0.0330(3) 0.6019(3)
C55_2 C 0.8430(4) 0.0347(3) 0.5736(3)
H24_2 H 0.8129 0.0614 0.5878
C58_2 C 0.9453(4) 0.0736(3) 0.6554(3)
Tm5_3 Tm 1.0000 0.14720(2) 0.7500
O12_2 O 0.9875(3) 0.0748(3) 0.8231(3)
Tm1_3 Tm 1.0000 0.85280(2) 0.2500
O2_2 O 0.9811(4) 0.7811(3) 0.1726(3)
O3_2 O 0.9584(2) 0.59508(17) 0.06863(17)
O13_2 O 0.9080(3) 0.8115(2) 0.2933(2)
O16_2 O 0.9632(2) 0.56437(16) 0.48831(15)
O17_2 O 0.6088(2) 0.95578(17) 0.05865(15)
N2_2 N 0.7849(3) 0.9309(2) 0.3972(2)
H13_2 H 0.7697 0.9659 0.3928
C30_2 C 0.9501(5) 0.7835(3) 0.3323(3)
C31_2 C 0.9240(4) 0.7456(3) 0.3817(3)
C32_2 C 0.9614(4) 0.6941(3) 0.3967(3)
H14_2 H 0.9990 0.6848 0.3757
C33_2 C 0.9443(3) 0.6567(2) 0.4417(3)
C34_2 C 0.8911(4) 0.6719(3) 0.4745(3)
H15_2 H 0.8782 0.6469 0.5046
C35_2 C 0.8564(4) 0.7253(3) 0.4624(3)
H16_2 H 0.8222 0.7360 0.4865
C36_2 C 0.8711(4) 0.7619(3) 0.4168(3)
C37_2 C 0.9858(3) 0.6025(2) 0.4542(2)
C38_2 C 0.8377(3) 0.8204(3) 0.4094(2)
C39_2 C 0.8584(3) 0.8594(2) 0.4572(2)
H17_2 H 0.8908 0.8485 0.4942
C40_2 C 0.8326(3) 0.9143(3) 0.4518(2)
C41_2 C 0.7617(3) 0.8909(3) 0.3496(2)
C42_2 C 0.7879(3) 0.8355(2) 0.3561(2)
H18_2 H 0.7718 0.8083 0.3242
C43_2 C 0.7123(3) 0.9080(3) 0.2888(2)
C44_2 C 0.7320(4) 0.8933(3) 0.2310(2)
H19_2 H 0.7737 0.8717 0.2313
C45_2 C 0.6900(4) 0.9105(3) 0.1725(2)
H20_2 H 0.7041 0.9005 0.1342
C46_2 C 0.6282(3) 0.9419(3) 0.1709(2)
C47_2 C 0.6083(3) 0.9573(3) 0.2286(2)
H21_2 H 0.5665 0.9789 0.2277
C48_2 C 0.6496(3) 0.9411(2) 0.2868(2)
C49_2 C 0.6247(3) 0.9605(3) 0.3475(2)
C50_2 C 0.5827(3) 0.9616(3) 0.1086(2)
C51_2 C 0.8592(4) 0.9569(3) 0.5030(3)
C52_2 C 0.9319(4) 0.9562(3) 0.5310(3)
H22_2 H 0.9623 0.9298 0.5164
C53_2 C 0.9607(4) 0.9935(3) 0.5796(4)
C56_2 C 0.8143(3) 0.9971(3) 0.5242(3)
C57_2 C 0.7337(3) 0.9992(3) 0.4994(3)
O39_2 O 0.9038(3) 0.8938(2) 0.1783(2)
O42_2 O 0.9875(3) 0.9252(3) 0.3231(3)
H11_2 H 0.9901 0.9923 0.9025
O25_2 O 0.9632(2) 0.43563(16) 0.98831(15)
O28_2 O 0.8912(2) 0.54422(17) 0.94135(15)
O37_2 O 0.6958(2) 0.0429(2) 0.0114(2)
O29_2 O 0.5216(2) 0.01724(18) 0.61121(16)
O30_2 O 0.4784(2) 0.01724(18) 0.88879(16)
O33_2 O 0.6168(2) 0.07474(18) 0.88928(16)
O34_2 O 0.3832(2) 0.07474(18) 0.61072(16)
O38_2 O 0.3042(2) 0.0429(2) 0.4886(2)
O10_2 O 0.1958(2) 0.5429(2) 0.0114(2)
H3_3 H 0.3782 0.8531 0.0046
C22_3 C 0.3592(4) 0.5431(3) 0.0030(3)
C23_3 C 0.4319(4) 0.5438(3) 0.0310(3)
H10_3 H 0.4623 0.5702 0.0164
C24_3 C 0.4607(4) 0.5065(3) 0.0796(4)
H11_3 H 0.5099 0.5077 0.0975
C25_3 C 0.4154(4) 0.4670(3) 0.1019(3)
C26_3 C 0.3430(4) 0.4653(3) 0.0736(3)
H12_3 H 0.3129 0.4386 0.0878
C27_3 C 0.3143(3) 0.5029(3) 0.0242(3)
C29_3 C 0.4453(4) 0.4264(3) 0.1554(3)
O1_3 O 0.4080(3) 0.6885(2) 0.7933(2)
O2_3 O 0.5189(4) 0.7189(3) 0.8274(3)
O3_3 O 0.5416(2) 0.90492(17) 0.93137(17)
O6_2 O 0.0216(2) 0.51724(18) 0.61121(16)
O7_2 O 0.1119(2) 0.48606(17) 0.85214(17)
O8_2 O 0.1168(2) 0.57474(18) 0.88928(16)
O9_2 O 0.2055(2) 0.45666(19) 0.96988(18)
N1_3 N 0.2849(3) 0.5691(2) 0.8972(2)
H1_3 H 0.2697 0.5341 0.8928
C1_3 C 0.4501(5) 0.7165(3) 0.8323(3)
C2_3 C 0.4240(4) 0.7544(3) 0.8817(3)
C3_3 C 0.4614(4) 0.8059(3) 0.8967(3)
H2_3 H 0.4990 0.8152 0.8757
C4_3 C 0.4443(3) 0.8433(2) 0.9417(3)
C5_3 C 0.3911(4) 0.8281(3) 0.9745(3)
C6_3 C 0.3564(4) 0.7747(3) 0.9624(3)
H4_3 H 0.3222 0.7640 0.9865
C7_3 C 0.3711(4) 0.7381(3) 0.9168(3)
C8_3 C 0.4858(3) 0.8975(2) 0.9542(2)
C9_3 C 0.3377(3) 0.6796(3) 0.9094(2)
C10_3 C 0.3584(3) 0.6406(2) 0.9572(2)
H5_3 H 0.3908 0.6515 0.9942
C11_3 C 0.3326(3) 0.5857(3) 0.9518(2)
C12_3 C 0.2617(3) 0.6091(3) 0.8496(2)
C13_3 C 0.2879(3) 0.6645(2) 0.8561(2)
H6_3 H 0.2718 0.6917 0.8242
C14_3 C 0.2123(3) 0.5920(3) 0.7888(2)
C15_3 C 0.2320(4) 0.6067(3) 0.7310(2)
H7_3 H 0.2737 0.6283 0.7313
C16_3 C 0.1900(4) 0.5895(3) 0.6725(2)
H8_3 H 0.2041 0.5995 0.6342
C17_3 C 0.1282(3) 0.5581(3) 0.6709(2)
C18_3 C 0.1083(3) 0.5427(3) 0.7286(2)
H9_3 H 0.0665 0.5211 0.7277
C19_3 C 0.1496(3) 0.5589(2) 0.7868(2)
C20_3 C 0.1247(3) 0.5395(3) 0.8475(2)
C21_3 C 0.0827(3) 0.5384(3) 0.6086(2)
C28_3 C 0.2337(3) 0.5008(3) 0.9994(3)
O13_3 O 0.5920(3) 0.6885(2) 0.7067(2)
O14_3 O 0.4811(4) 0.7189(3) 0.6726(3)
O15_3 O 0.4584(2) 0.90492(17) 0.56863(17)
O18_2 O 0.9784(2) 0.51724(18) 0.88879(16)
O19_2 O 0.8881(2) 0.48606(17) 0.64786(17)
O20_2 O 0.8832(2) 0.57474(18) 0.61072(16)
O21_2 O 0.7945(2) 0.45666(19) 0.53012(18)
O22_2 O 0.8042(2) 0.5429(2) 0.4886(2)
N2_3 N 0.7151(3) 0.5691(2) 0.6028(2)
H13_3 H 0.7303 0.5341 0.6072
C30_3 C 0.5499(5) 0.7165(3) 0.6677(3)
C31_3 C 0.5760(4) 0.7544(3) 0.6183(3)
C32_3 C 0.5386(4) 0.8059(3) 0.6033(3)
H14_3 H 0.5010 0.8152 0.6243
C33_3 C 0.5557(3) 0.8433(2) 0.5583(3)
C34_3 C 0.6089(4) 0.8281(3) 0.5255(3)
H15_3 H 0.6218 0.8531 0.4954
C35_3 C 0.6436(4) 0.7747(3) 0.5376(3)
H16_3 H 0.6778 0.7640 0.5135
C36_3 C 0.6289(4) 0.7381(3) 0.5832(3)
C37_3 C 0.5142(3) 0.8975(2) 0.5458(2)
C38_3 C 0.6623(3) 0.6796(3) 0.5906(2)
C39_3 C 0.6416(3) 0.6406(2) 0.5428(2)
H17_3 H 0.6092 0.6515 0.5058
C40_3 C 0.6674(3) 0.5857(3) 0.5482(2)
C41_3 C 0.7383(3) 0.6091(3) 0.6504(2)
C42_3 C 0.7121(3) 0.6645(2) 0.6439(2)
H18_3 H 0.7282 0.6917 0.6758
C43_3 C 0.7877(3) 0.5920(3) 0.7112(2)
C44_3 C 0.7680(4) 0.6067(3) 0.7690(2)
H19_3 H 0.7263 0.6283 0.7687
C45_3 C 0.8100(4) 0.5895(3) 0.8275(2)
H20_3 H 0.7959 0.5995 0.8658
C46_3 C 0.8718(3) 0.5581(3) 0.8291(2)
C47_3 C 0.8917(3) 0.5427(3) 0.7714(2)
H21_3 H 0.9335 0.5211 0.7723
C48_3 C 0.8504(3) 0.5589(2) 0.7132(2)
C49_3 C 0.8753(3) 0.5395(3) 0.6525(2)
C50_3 C 0.9173(3) 0.5384(3) 0.8914(2)
C51_3 C 0.6408(4) 0.5431(3) 0.4970(3)
C52_3 C 0.5681(4) 0.5438(3) 0.4690(3)
H22_3 H 0.5377 0.5702 0.4836
C53_3 C 0.5393(4) 0.5065(3) 0.4204(4)
H23_3 H 0.4901 0.5077 0.4025
C54_3 C 0.5846(4) 0.4670(3) 0.3981(3)
C55_3 C 0.6570(4) 0.4653(3) 0.4264(3)
H24_3 H 0.6871 0.4386 0.4122
C56_3 C 0.6857(3) 0.5029(3) 0.4758(3)
C57_3 C 0.7663(3) 0.5008(3) 0.5006(3)
C58_3 C 0.5547(4) 0.4264(3) 0.3446(3)
O31_2 O 0.6119(2) 0.98606(17) 0.85214(17)
O32_2 O 0.3881(2) 0.98606(17) 0.64786(17)
O35_2 O 0.7055(2) 0.95666(19) 0.96988(18)
O36_2 O 0.2945(2) 0.95666(19) 0.53012(18)
H11_4 H 0.0099 0.0077 0.0975
O2_4 O 0.0189(4) 0.2189(3) 0.8274(3)
O3_4 O 0.0416(2) 0.40492(17) 0.93137(17)
O13_4 O 0.0920(3) 0.1885(2) 0.7067(2)
N2_4 N 0.2151(3) 0.0691(2) 0.6028(2)
H13_4 H 0.2303 0.0341 0.6072
C30_4 C 0.0499(5) 0.2165(3) 0.6677(3)
C31_4 C 0.0760(4) 0.2544(3) 0.6183(3)
C32_4 C 0.0386(4) 0.3059(3) 0.6033(3)
H14_4 H 0.0010 0.3152 0.6243
C33_4 C 0.0557(3) 0.3433(2) 0.5583(3)
C34_4 C 0.1089(4) 0.3281(3) 0.5255(3)
H15_4 H 0.1218 0.3531 0.4954
C35_4 C 0.1436(4) 0.2747(3) 0.5376(3)
H16_4 H 0.1778 0.2640 0.5135
C36_4 C 0.1289(4) 0.2381(3) 0.5832(3)
C37_4 C 0.0142(3) 0.3975(2) 0.5458(2)
C38_4 C 0.1623(3) 0.1796(3) 0.5906(2)
C39_4 C 0.1416(3) 0.1406(2) 0.5428(2)
H17_4 H 0.1092 0.1515 0.5058
C40_4 C 0.1674(3) 0.0857(3) 0.5482(2)
C41_4 C 0.2383(3) 0.1091(3) 0.6504(2)
C42_4 C 0.2121(3) 0.1645(2) 0.6439(2)
H18_4 H 0.2282 0.1917 0.6758
C43_4 C 0.2877(3) 0.0920(3) 0.7112(2)
C44_4 C 0.2680(4) 0.1067(3) 0.7690(2)
H19_4 H 0.2263 0.1283 0.7687
C45_4 C 0.3100(4) 0.0895(3) 0.8275(2)
H20_4 H 0.2959 0.0995 0.8658
C46_4 C 0.3718(3) 0.0581(3) 0.8291(2)
C47_4 C 0.3917(3) 0.0427(3) 0.7714(2)
H21_4 H 0.4335 0.0211 0.7723
C48_4 C 0.3504(3) 0.0589(2) 0.7132(2)
C49_4 C 0.3753(3) 0.0395(3) 0.6525(2)
C50_4 C 0.4173(3) 0.0384(3) 0.8914(2)
C51_4 C 0.1408(4) 0.0431(3) 0.4970(3)
C52_4 C 0.0681(4) 0.0438(3) 0.4690(3)
H22_4 H 0.0377 0.0702 0.4836
C53_4 C 0.0393(4) 0.0065(3) 0.4204(4)
C56_4 C 0.1857(3) 0.0029(3) 0.4758(3)
C57_4 C 0.2663(3) 0.0008(3) 0.5006(3)
C54_4 C 0.0846(4) 0.9670(3) 0.3981(3)
C55_4 C 0.1570(4) 0.9653(3) 0.4264(3)
H24_4 H 0.1871 0.9386 0.4122
C58_4 C 0.0547(4) 0.9264(3) 0.3446(3)
H3_4 H 0.8782 0.3531 0.0046
C22_4 C 0.8592(4) 0.0431(3) 0.0030(3)
C23_4 C 0.9319(4) 0.0438(3) 0.0310(3)
H10_4 H 0.9623 0.0702 0.0164
C24_4 C 0.9607(4) 0.0065(3) 0.0796(4)
C27_4 C 0.8143(3) 0.0029(3) 0.0242(3)
O1_4 O 0.9080(3) 0.1885(2) 0.7933(2)
N1_4 N 0.7849(3) 0.0691(2) 0.8972(2)
H1_4 H 0.7697 0.0341 0.8928
C1_4 C 0.9501(5) 0.2165(3) 0.8323(3)
C2_4 C 0.9240(4) 0.2544(3) 0.8817(3)
C3_4 C 0.9614(4) 0.3059(3) 0.8967(3)
H2_4 H 0.9990 0.3152 0.8757
C4_4 C 0.9443(3) 0.3433(2) 0.9417(3)
C5_4 C 0.8911(4) 0.3281(3) 0.9745(3)
C6_4 C 0.8564(4) 0.2747(3) 0.9624(3)
H4_4 H 0.8222 0.2640 0.9865
C7_4 C 0.8711(4) 0.2381(3) 0.9168(3)
C8_4 C 0.9858(3) 0.3975(2) 0.9542(2)
C9_4 C 0.8377(3) 0.1796(3) 0.9094(2)
C10_4 C 0.8584(3) 0.1406(2) 0.9572(2)
H5_4 H 0.8908 0.1515 0.9942
C11_4 C 0.8326(3) 0.0857(3) 0.9518(2)
C12_4 C 0.7617(3) 0.1091(3) 0.8496(2)
C13_4 C 0.7879(3) 0.1645(2) 0.8561(2)
H6_4 H 0.7718 0.1917 0.8242
C14_4 C 0.7123(3) 0.0920(3) 0.7888(2)
C15_4 C 0.7320(4) 0.1067(3) 0.7310(2)
H7_4 H 0.7737 0.1283 0.7313
C16_4 C 0.6900(4) 0.0895(3) 0.6725(2)
H8_4 H 0.7041 0.0995 0.6342
C17_4 C 0.6282(3) 0.0581(3) 0.6709(2)
C18_4 C 0.6083(3) 0.0427(3) 0.7286(2)
H9_4 H 0.5665 0.0211 0.7277
C19_4 C 0.6496(3) 0.0589(2) 0.7868(2)
C20_4 C 0.6247(3) 0.0395(3) 0.8475(2)
C21_4 C 0.5827(3) 0.0384(3) 0.6086(2)
C28_4 C 0.7337(3) 0.0008(3) 0.9994(3)
O14_4 O 0.9811(4) 0.2189(3) 0.6726(3)
O15_4 O 0.9584(2) 0.40492(17) 0.56863(17)
H23_4 H 0.9901 0.0077 0.4025
C25_4 C 0.9154(4) 0.9670(3) 0.1019(3)
C26_4 C 0.8430(4) 0.9653(3) 0.0736(3)
H12_4 H 0.8129 0.9386 0.0878
C29_4 C 0.9453(4) 0.9264(3) 0.1554(3)
loop_
_geom_bond_atom_site_label_1
_geom_bond_atom_site_label_2
_geom_bond_site_symmetry_1
_geom_bond_site_symmetry_2
Tm1 O1 1_555 1_555
Tm2 O3 1_555 1_555
O1 C1 1_555 1_555
O2 Tm1 1_555 1_555
O3 C8 1_555 1_555
O4 C8 1_555 1_555
O5 C21 1_555 1_555
O6 C21 1_555 1_555
O7 C20 1_555 1_555
O8 C20 1_555 1_555
O9 C28 1_555 1_555
N1 H1 1_555 1_555
C1 O2 1_555 1_555
C2 C1 1_555 1_555
C3 C2 1_555 1_555
H2 C3 1_555 1_555
C4 C3 1_555 1_555
C5 C4 1_555 1_555
C6 C5 1_555 1_555
H4 C6 1_555 1_555
C7 C2 1_555 1_555
C8 C4 1_555 1_555
C9 C7 1_555 1_555
C10 C9 1_555 1_555
H5 C10 1_555 1_555
C11 N1 1_555 1_555
C12 N1 1_555 1_555
C13 C9 1_555 1_555
H6 C13 1_555 1_555
C14 C12 1_555 1_555
C15 C14 1_555 1_555
H7 C15 1_555 1_555
C16 C15 1_555 1_555
H8 C16 1_555 1_555
C17 C16 1_555 1_555
C18 C17 1_555 1_555
H9 C18 1_555 1_555
C19 C14 1_555 1_555
C20 C19 1_555 1_555
C21 C17 1_555 1_555
Tm3 O15 1_555 1_555
O13 Tm1 1_555 1_555
O14 Tm1 1_555 1_555
O15 C37 1_555 1_555
O16 C37 1_555 1_555
O17 C50 1_555 1_555
O18 C50 1_555 1_555
O19 C49 1_555 1_555
O20 C49 1_555 1_555
O21 C57 1_555 1_555
O22 C57 1_555 1_555
O23 C58 1_555 1_555
O24 C58 1_555 1_555
N2 H13 1_555 1_555
C30 O13 1_555 1_555
C31 C30 1_555 1_555
C32 C31 1_555 1_555
H14 C32 1_555 1_555
C33 C32 1_555 1_555
C34 C33 1_555 1_555
H15 C34 1_555 1_555
C35 C34 1_555 1_555
H16 C35 1_555 1_555
C36 C31 1_555 1_555
C37 C33 1_555 1_555
C38 C36 1_555 1_555
C39 C38 1_555 1_555
H17 C39 1_555 1_555
C40 N2 1_555 1_555
C41 N2 1_555 1_555
C42 C38 1_555 1_555
H18 C42 1_555 1_555
C43 C41 1_555 1_555
C44 C43 1_555 1_555
H19 C44 1_555 1_555
C45 C44 1_555 1_555
H20 C45 1_555 1_555
C46 C45 1_555 1_555
C47 C46 1_555 1_555
H21 C47 1_555 1_555
C48 C43 1_555 1_555
C49 C48 1_555 1_555
C50 C46 1_555 1_555
C51 C40 1_555 1_555
C52 C51 1_555 1_555
H22 C52 1_555 1_555
C53 C52 1_555 1_555
H23 C53 1_555 1_555
C54 C53 1_555 1_555
C55 C54 1_555 1_555
H24 C55 1_555 1_555
C56 C51 1_555 1_555
C57 C56 1_555 1_555
C58 C54 1_555 1_555
Tm5 O23 1_555 1_555
Tm7 O7 1_555 1_555
Tm9 O19 1_555 1_555
Tm13 O5 1_555 1_555
O27 Tm3 1_555 1_555
O31 Tm2 1_555 1_555
O32 Tm3 1_555 1_555
O35 Tm2 1_555 1_555
O36 Tm3 1_555 1_555
O39 Tm1 1_555 1_555
O40 Tm1 1_555 1_555
O41 Tm1 1_555 1_555
O42 Tm1 1_555 1_555
O8 Tm7 1_555 1_555
O9 Tm7 1_555 1_555
C6 C7 1_555 1_555
C10 C11 1_555 1_555
C12 C13 1_555 1_555
C18 C19 1_555 1_555
O14 C30 1_555 1_555
O20 Tm9 1_555 1_555
O21 Tm9 1_555 1_555
O22 Tm9 1_555 1_555
O24 Tm5 1_555 1_555
C35 C36 1_555 1_555
C39 C40 1_555 1_555
C41 C42 1_555 1_555
C47 C48 1_555 1_555
C55 C56 1_555 1_555
O11 C29 1_555 1_555
O12 C29 1_555 1_555
C23 C22 1_555 1_555
H10 C23 1_555 1_555
C24 C23 1_555 1_555
H11 C24 1_555 1_555
C25 C24 1_555 1_555
C26 C25 1_555 1_555
H12 C26 1_555 1_555
C27 C22 1_555 1_555
C29 C25 1_555 1_555
Tm5 O11 1_555 1_555
O12 Tm5 1_555 1_555
C26 C27 1_555 1_555
O24_2 Tm5_2 1_555 1_555
O11_2 C29_2 1_555 1_555
C26_2 C25_2 1_555 1_555
H12_2 C26_2 1_555 1_555
C29_2 C25_2 1_555 1_555
Tm5_2 O11_2 1_555 1_555
Tm1_2 O1_2 1_555 1_555
O1_2 C1_2 1_555 1_555
O4_2 C8_2 1_555 1_555
O5_2 C21_2 1_555 1_555
O29 C21_2 1_555 1_555
O33 C20_2 1_555 1_555
N1_2 H1_2 1_555 1_555
C2_2 C1_2 1_555 1_555
C3_2 C2_2 1_555 1_555
H2_2 C3_2 1_555 1_555
C4_2 C3_2 1_555 1_555
C5_2 C4_2 1_555 1_555
C6_2 C5_2 1_555 1_555
H4_2 C6_2 1_555 1_555
C7_2 C2_2 1_555 1_555
C8_2 C4_2 1_555 1_555
C9_2 C7_2 1_555 1_555
C10_2 C9_2 1_555 1_555
H5_2 C10_2 1_555 1_555
C11_2 N1_2 1_555 1_555
C12_2 N1_2 1_555 1_555
C13_2 C9_2 1_555 1_555
H6_2 C13_2 1_555 1_555
C14_2 C12_2 1_555 1_555
C15_2 C14_2 1_555 1_555
H7_2 C15_2 1_555 1_555
C16_2 C15_2 1_555 1_555
H8_2 C16_2 1_555 1_555
C17_2 C16_2 1_555 1_555
C18_2 C17_2 1_555 1_555
H9_2 C18_2 1_555 1_555
C19_2 C14_2 1_555 1_555
C20_2 C19_2 1_555 1_555
C21_2 C17_2 1_555 1_555
Tm9 O15_2 1_555 1_555
O14_2 Tm1_2 1_555 1_555
Tm11 O5_2 1_555 1_555
O26_2 Tm9 1_555 1_555
O27_2 Tm9 1_555 1_555
O40_2 Tm1_2 1_555 1_555
O41_2 Tm1_2 1_555 1_555
C6_2 C7_2 1_555 1_555
C10_2 C11_2 1_555 1_555
C12_2 C13_2 1_555 1_555
C18_2 C19_2 1_555 1_555
C23_2 C22_2 1_555 1_555
H10_2 C23_2 1_555 1_555
C24_2 C23_2 1_555 1_555
C27_2 C22_2 1_555 1_555
O23_2 C58_2 1_555 1_555
C55_2 C54_2 1_555 1_555
H24_2 C55_2 1_555 1_555
C58_2 C54_2 1_555 1_555
Tm5_3 O23_2 1_555 1_555
O12_2 Tm5_3 1_555 1_555
Tm7 O3_2 1_555 1_555
O2_2 Tm1_3 1_555 1_555
O13_2 Tm1_3 1_555 1_555
O16_2 C37_2 1_555 1_555
O17_2 C50_2 1_555 1_555
O30 C50_2 1_555 1_555
O34 C49_2 1_555 1_555
O38 C57_2 1_555 1_555
N2_2 H13_2 1_555 1_555
C30_2 O13_2 1_555 1_555
C31_2 C30_2 1_555 1_555
C32_2 C31_2 1_555 1_555
H14_2 C32_2 1_555 1_555
C33_2 C32_2 1_555 1_555
C34_2 C33_2 1_555 1_555
H15_2 C34_2 1_555 1_555
C35_2 C34_2 1_555 1_555
H16_2 C35_2 1_555 1_555
C36_2 C31_2 1_555 1_555
C37_2 C33_2 1_555 1_555
C38_2 C36_2 1_555 1_555
C39_2 C38_2 1_555 1_555
H17_2 C39_2 1_555 1_555
C40_2 N2_2 1_555 1_555
C41_2 N2_2 1_555 1_555
C42_2 C38_2 1_555 1_555
H18_2 C42_2 1_555 1_555
C43_2 C41_2 1_555 1_555
C44_2 C43_2 1_555 1_555
H19_2 C44_2 1_555 1_555
C45_2 C44_2 1_555 1_555
H20_2 C45_2 1_555 1_555
C46_2 C45_2 1_555 1_555
C47_2 C46_2 1_555 1_555
H21_2 C47_2 1_555 1_555
C48_2 C43_2 1_555 1_555
C49_2 C48_2 1_555 1_555
C50_2 C46_2 1_555 1_555
C51_2 C40_2 1_555 1_555
C52_2 C51_2 1_555 1_555
H22_2 C52_2 1_555 1_555
C53_2 C52_2 1_555 1_555
C56_2 C51_2 1_555 1_555
C57_2 C56_2 1_555 1_555
Tm13 O16_2 1_555 1_555
O39_2 Tm1_3 1_555 1_555
O42_2 Tm1_3 1_555 1_555
C35_2 C36_2 1_555 1_555
C39_2 C40_2 1_555 1_555
C41_2 C42_2 1_555 1_555
C47_2 C48_2 1_555 1_555
O39 C29_3 1_555 1_555
O41 C29_3 1_555 1_555
C23_3 C22_3 1_555 1_555
H10_3 C23_3 1_555 1_555
C24_3 C23_3 1_555 1_555
H11_3 C24_3 1_555 1_555
C25_3 C24_3 1_555 1_555
C26_3 C25_3 1_555 1_555
H12_3 C26_3 1_555 1_555
C27_3 C22_3 1_555 1_555
C29_3 C25_3 1_555 1_555
C26_3 C27_3 1_555 1_555
Tm5 O1_3 1_555 1_555
Tm10 O3_3 1_555 1_555
O1_3 C1_3 1_555 1_555
O2_3 Tm5 1_555 1_555
O3_3 C8_3 1_555 1_555
O25 C8_3 1_555 1_555
O27_2 C21_3 1_555 1_555
O6_2 C21_3 1_555 1_555
O7_2 C20_3 1_555 1_555
O8_2 C20_3 1_555 1_555
O9_2 C28_3 1_555 1_555
N1_3 H1_3 1_555 1_555
C1_3 O2_3 1_555 1_555
C2_3 C1_3 1_555 1_555
C3_3 C2_3 1_555 1_555
H2_3 C3_3 1_555 1_555
C4_3 C3_3 1_555 1_555
C5_3 C4_3 1_555 1_555
C6_3 C5_3 1_555 1_555
H4_3 C6_3 1_555 1_555
C7_3 C2_3 1_555 1_555
C8_3 C4_3 1_555 1_555
C9_3 C7_3 1_555 1_555
C10_3 C9_3 1_555 1_555
H5_3 C10_3 1_555 1_555
C11_3 N1_3 1_555 1_555
C12_3 N1_3 1_555 1_555
C13_3 C9_3 1_555 1_555
H6_3 C13_3 1_555 1_555
C14_3 C12_3 1_555 1_555
C15_3 C14_3 1_555 1_555
H7_3 C15_3 1_555 1_555
C16_3 C15_3 1_555 1_555
H8_3 C16_3 1_555 1_555
C17_3 C16_3 1_555 1_555
C18_3 C17_3 1_555 1_555
H9_3 C18_3 1_555 1_555
C19_3 C14_3 1_555 1_555
C20_3 C19_3 1_555 1_555
C21_3 C17_3 1_555 1_555
Tm11 O15_3 1_555 1_555
O13_3 Tm5 1_555 1_555
O14_3 Tm5 1_555 1_555
O15_3 C37_3 1_555 1_555
O26 C37_3 1_555 1_555
O28_2 C50_3 1_555 1_555
O18_2 C50_3 1_555 1_555
O19_2 C49_3 1_555 1_555
O20_2 C49_3 1_555 1_555
O21_2 C57_3 1_555 1_555
O22_2 C57_3 1_555 1_555
O40 C58_3 1_555 1_555
O42 C58_3 1_555 1_555
N2_3 H13_3 1_555 1_555
C30_3 O13_3 1_555 1_555
C31_3 C30_3 1_555 1_555
C32_3 C31_3 1_555 1_555
H14_3 C32_3 1_555 1_555
C33_3 C32_3 1_555 1_555
C34_3 C33_3 1_555 1_555
H15_3 C34_3 1_555 1_555
C35_3 C34_3 1_555 1_555
H16_3 C35_3 1_555 1_555
C36_3 C31_3 1_555 1_555
C37_3 C33_3 1_555 1_555
C38_3 C36_3 1_555 1_555
C39_3 C38_3 1_555 1_555
H17_3 C39_3 1_555 1_555
C40_3 N2_3 1_555 1_555
C41_3 N2_3 1_555 1_555
C42_3 C38_3 1_555 1_555
H18_3 C42_3 1_555 1_555
C43_3 C41_3 1_555 1_555
C44_3 C43_3 1_555 1_555
H19_3 C44_3 1_555 1_555
C45_3 C44_3 1_555 1_555
H20_3 C45_3 1_555 1_555
C46_3 C45_3 1_555 1_555
C47_3 C46_3 1_555 1_555
H21_3 C47_3 1_555 1_555
C48_3 C43_3 1_555 1_555
C49_3 C48_3 1_555 1_555
C50_3 C46_3 1_555 1_555
C51_3 C40_3 1_555 1_555
C52_3 C51_3 1_555 1_555
H22_3 C52_3 1_555 1_555
C53_3 C52_3 1_555 1_555
H23_3 C53_3 1_555 1_555
C54_3 C53_3 1_555 1_555
C55_3 C54_3 1_555 1_555
H24_3 C55_3 1_555 1_555
C56_3 C51_3 1_555 1_555
C57_3 C56_3 1_555 1_555
C58_3 C54_3 1_555 1_555
Tm12 O7_2 1_555 1_555
Tm13 O19_2 1_555 1_555
O31_2 Tm10 1_555 1_555
O32_2 Tm11 1_555 1_555
O35_2 Tm10 1_555 1_555
O36_2 Tm11 1_555 1_555
O8_2 Tm12 1_555 1_555
O9_2 Tm12 1_555 1_555
C6_3 C7_3 1_555 1_555
C10_3 C11_3 1_555 1_555
C12_3 C13_3 1_555 1_555
C18_3 C19_3 1_555 1_555
O14_3 C30_3 1_555 1_555
O20_2 Tm13 1_555 1_555
O21_2 Tm13 1_555 1_555
O22_2 Tm13 1_555 1_555
C35_3 C36_3 1_555 1_555
C39_3 C40_3 1_555 1_555
C41_3 C42_3 1_555 1_555
C47_3 C48_3 1_555 1_555
C55_3 C56_3 1_555 1_555
Tm12 O3_4 1_555 1_555
O2_4 Tm5_2 1_555 1_555
O13_4 Tm5_2 1_555 1_555
O26_2 C37_4 1_555 1_555
O28 C50_4 1_555 1_555
O30_2 C50_4 1_555 1_555
O34_2 C49_4 1_555 1_555
O38_2 C57_4 1_555 1_555
N2_4 H13_4 1_555 1_555
C30_4 O13_4 1_555 1_555
C31_4 C30_4 1_555 1_555
C32_4 C31_4 1_555 1_555
H14_4 C32_4 1_555 1_555
C33_4 C32_4 1_555 1_555
C34_4 C33_4 1_555 1_555
H15_4 C34_4 1_555 1_555
C35_4 C34_4 1_555 1_555
H16_4 C35_4 1_555 1_555
C36_4 C31_4 1_555 1_555
C37_4 C33_4 1_555 1_555
C38_4 C36_4 1_555 1_555
C39_4 C38_4 1_555 1_555
H17_4 C39_4 1_555 1_555
C40_4 N2_4 1_555 1_555
C41_4 N2_4 1_555 1_555
C42_4 C38_4 1_555 1_555
H18_4 C42_4 1_555 1_555
C43_4 C41_4 1_555 1_555
C44_4 C43_4 1_555 1_555
H19_4 C44_4 1_555 1_555
C45_4 C44_4 1_555 1_555
H20_4 C45_4 1_555 1_555
C46_4 C45_4 1_555 1_555
C47_4 C46_4 1_555 1_555
H21_4 C47_4 1_555 1_555
C48_4 C43_4 1_555 1_555
C49_4 C48_4 1_555 1_555
C50_4 C46_4 1_555 1_555
C51_4 C40_4 1_555 1_555
C52_4 C51_4 1_555 1_555
H22_4 C52_4 1_555 1_555
C53_4 C52_4 1_555 1_555
C56_4 C51_4 1_555 1_555
C57_4 C56_4 1_555 1_555
C35_4 C36_4 1_555 1_555
C39_4 C40_4 1_555 1_555
C41_4 C42_4 1_555 1_555
C47_4 C48_4 1_555 1_555
O40_2 C58_4 1_555 1_555
C55_4 C54_4 1_555 1_555
H24_4 C55_4 1_555 1_555
C58_4 C54_4 1_555 1_555
C23_4 C22_4 1_555 1_555
H10_4 C23_4 1_555 1_555
C24_4 C23_4 1_555 1_555
C27_4 C22_4 1_555 1_555
Tm5_3 O1_4 1_555 1_555
O1_4 C1_4 1_555 1_555
O25_2 C8_4 1_555 1_555
O27 C21_4 1_555 1_555
O29_2 C21_4 1_555 1_555
O33_2 C20_4 1_555 1_555
N1_4 H1_4 1_555 1_555
C2_4 C1_4 1_555 1_555
C3_4 C2_4 1_555 1_555
H2_4 C3_4 1_555 1_555
C4_4 C3_4 1_555 1_555
C5_4 C4_4 1_555 1_555
C6_4 C5_4 1_555 1_555
H4_4 C6_4 1_555 1_555
C7_4 C2_4 1_555 1_555
C8_4 C4_4 1_555 1_555
C9_4 C7_4 1_555 1_555
C10_4 C9_4 1_555 1_555
H5_4 C10_4 1_555 1_555
C11_4 N1_4 1_555 1_555
C12_4 N1_4 1_555 1_555
C13_4 C9_4 1_555 1_555
H6_4 C13_4 1_555 1_555
C14_4 C12_4 1_555 1_555
C15_4 C14_4 1_555 1_555
H7_4 C15_4 1_555 1_555
C16_4 C15_4 1_555 1_555
H8_4 C16_4 1_555 1_555
C17_4 C16_4 1_555 1_555
C18_4 C17_4 1_555 1_555
H9_4 C18_4 1_555 1_555
C19_4 C14_4 1_555 1_555
C20_4 C19_4 1_555 1_555
C21_4 C17_4 1_555 1_555
Tm13 O15_4 1_555 1_555
O14_4 Tm5_3 1_555 1_555
C6_4 C7_4 1_555 1_555
C10_4 C11_4 1_555 1_555
C12_4 C13_4 1_555 1_555
C18_4 C19_4 1_555 1_555
O39_2 C29_4 1_555 1_555
C26_4 C25_4 1_555 1_555
H12_4 C26_4 1_555 1_555
C29_4 C25_4 1_555 1_555

#END
