
###############################################################################
#
# This file contains modified crystal structure data generated from the
# MOF subset of the Cambridge Structural Database (CSD) v543 
# hosted by the Cambridge Crystallographic Data Centre (CCDC).
#
# This work is licensed under the Creative Commons
# Attribution-NonCommercial-ShareAlike 4.0 International License.
# To view a copy of this license, visit
# http://creativecommons.org/licenses/by-nc-sa/4.0/
# or send a letter to
# Creative Commons, PO Box 1866, Mountain View, CA 94042, USA.
#
# CIF created using the CSD Python API on 29 September 2022
# The structure has been converted into the P1 space group
# The structure has a 3D framework
# The original CSD entry HUSGAG is in the monoclinic crystal system
# The framework has been calculated to contain at least 10.0% void space
# The void calculation uses a probe of radius 1.32A, grid spacing 0.4
# The framework is charged, counterions have been retained in the structure
#
###############################################################################

data_HUSGAG
_chemical_formula_moiety         '(C242 H96 N8 O88 Yb14 2-)n'
_symmetry_cell_setting           triclinic
_symmetry_space_group_name_H-M   'P 1'
_symmetry_Int_Tables_number      1
_space_group_name_Hall           'P 1'
loop_
_symmetry_equiv_pos_site_id
_symmetry_equiv_pos_as_xyz
1 x,y,z
_cell_length_a                   18.6003(5)
_cell_length_b                   23.2583(6)
_cell_length_c                   21.2376(4)
_cell_angle_alpha                90
_cell_angle_beta                 101.5490(10)
_cell_angle_gamma                90
_cell_volume                     9001.61
loop_
_atom_site_label
_atom_site_type_symbol
_atom_site_fract_x
_atom_site_fract_y
_atom_site_fract_z
Yb7 Yb 0.086267(19) 0.502826(13) 0.457766(14)
O26 O 0.0222(3) 0.4844(3) 0.1110(3)
Yb2 Yb 0.913733(19) 0.502826(13) 0.042234(14)
O1 O 0.8871(4) 0.5151(3) 0.1470(3)
O2 O 0.8824(4) 0.4261(3) 0.1116(3)
O4 O 0.7929(3) 0.5442(3) 0.0285(3)
C1 C 0.7646(6) 0.5000(4) 0.0000(5)
C3 C 0.8740(5) 0.4611(4) 0.1528(4)
C4 C 0.6379(5) 0.3608(4) 0.0413(4)
H1 H 0.6046 0.3501 0.0044
C5 C 0.6607(5) 0.3216(4) 0.0893(4)
N1 N 0.7118(5) 0.4321(4) 0.1014(4)
H2 H 0.7267 0.4671 0.1054
C6 C 0.7856(5) 0.4100(4) 0.2109(4)
C7 C 0.8489(5) 0.4429(4) 0.2129(4)
C8 C 0.7107(5) 0.3366(4) 0.1426(4)
H3 H 0.7273 0.3095 0.1744
C9 C 0.7364(5) 0.3920(4) 0.1495(4)
C10 C 0.8904(5) 0.4597(4) 0.2708(4)
H4 H 0.9324 0.4815 0.2717
C11 C 0.6272(5) 0.2632(4) 0.0819(4)
C12 C 0.6637(5) 0.4147(4) 0.0477(4)
C15 C 0.7653(5) 0.3947(5) 0.2680(4)
H6 H 0.7233 0.3728 0.2671
C18 C 0.6432(7) 0.2265(5) 0.0366(6)
H8 H 0.6786 0.2371 0.0135
C21 C 0.8699(5) 0.4442(4) 0.3288(4)
C22 C 0.8071(6) 0.4119(5) 0.3262(4)
H10 H 0.7928 0.4016 0.3642
C23 C 0.9163(5) 0.4643(4) 0.3916(3)
O7 O 0.9778(3) 0.4844(3) 0.3890(3)
O8 O 0.8898(3) 0.4578(3) 0.4410(2)
C24 C 0.5744(6) 0.2461(4) 0.1169(4)
C25 C 0.6079(6) 0.1728(5) 0.0236(5)
C26 C 0.5548(5) 0.1569(4) 0.0562(4)
C27 C 0.5381(6) 0.1935(4) 0.1019(5)
H12 H 0.5014 0.1831 0.1237
C28 C 0.5145(5) 0.1020(4) 0.0433(4)
O9 O 0.4579(4) 0.0950(2) 0.0663(3)
O10 O 0.5383(4) 0.0650(3) 0.0100(3)
C29 C 0.5487(6) 0.2815(5) 0.1674(5)
O11 O 0.5936(4) 0.3083(4) 0.2086(4)
O12 O 0.4812(5) 0.2805(4) 0.1722(5)
Yb5 Yb 0.5000 0.35011(3) 0.2500
Yb8 Yb 0.413733(19) 0.002826(13) 0.042234(14)
Yb11 Yb 0.913733(19) 0.497174(13) 0.542234(14)
O29 O 0.9579(4) 0.5950(2) 0.0663(3)
Yb1 Yb 0.5000 0.64989(3) 0.7500
O3 O 0.8022(4) 0.4573(3) 0.9901(4)
O5 O 0.5957(4) 0.6089(3) 0.8237(3)
C1_2 C 0.7646(6) 0.5000(4) 1.0000(5)
C2 C 0.6815(6) 0.4991(4) 0.9750(5)
O6 O 0.4835(4) 0.5769(4) 0.8207(4)
C13 C 0.6368(5) 0.4571(4) 0.9960(4)
C14 C 0.6538(5) 0.5364(4) 0.9266(5)
H5 H 0.6845 0.5634 0.9132
C16 C 0.5812(6) 0.5345(5) 0.8976(5)
C17 C 0.5622(6) 0.4570(5) 0.9662(5)
H7 H 0.5307 0.4308 0.9798
C19 C 0.5522(6) 0.5765(5) 0.8445(5)
C20 C 0.5353(6) 0.4941(5) 0.9183(6)
H9 H 0.4858 0.4928 0.8989
H11 H 0.6206 0.1484 0.9929
O13 O 0.1129(4) 0.5151(3) 0.3530(3)
O14 O 0.1176(4) 0.4261(3) 0.3884(3)
O15 O 0.1978(4) 0.4573(3) 0.5099(4)
O16 O 0.2071(3) 0.5442(3) 0.4715(3)
O17 O 0.4043(4) 0.6089(3) 0.6763(3)
C30 C 0.2354(6) 0.5000(4) 0.5000(5)
C31 C 0.3185(6) 0.4991(4) 0.5250(5)
C32 C 0.1260(5) 0.4611(4) 0.3472(4)
C33 C 0.3621(5) 0.3608(4) 0.4587(4)
H13 H 0.3954 0.3501 0.4956
C34 C 0.3393(5) 0.3216(4) 0.4107(4)
N2 N 0.2882(5) 0.4321(4) 0.3986(4)
H14 H 0.2733 0.4671 0.3946
C35 C 0.2144(5) 0.4100(4) 0.2891(4)
C36 C 0.1511(5) 0.4429(4) 0.2871(4)
C37 C 0.2893(5) 0.3366(4) 0.3574(4)
H15 H 0.2727 0.3095 0.3256
C38 C 0.2636(5) 0.3920(4) 0.3505(4)
O18 O 0.5165(4) 0.5769(4) 0.6793(4)
C39 C 0.1096(5) 0.4597(4) 0.2292(4)
H16 H 0.0676 0.4815 0.2283
C40 C 0.3728(5) 0.2632(4) 0.4181(4)
C41 C 0.3363(5) 0.4147(4) 0.4523(4)
C42 C 0.3632(5) 0.4571(4) 0.5040(4)
C43 C 0.3462(5) 0.5364(4) 0.5734(5)
H17 H 0.3155 0.5634 0.5868
C44 C 0.2347(5) 0.3947(5) 0.2320(4)
H18 H 0.2767 0.3728 0.2329
C45 C 0.4188(6) 0.5345(5) 0.6024(5)
C46 C 0.4378(6) 0.4570(5) 0.5338(5)
H19 H 0.4693 0.4308 0.5202
C47 C 0.3568(7) 0.2265(5) 0.4634(6)
H20 H 0.3214 0.2371 0.4865
C48 C 0.4478(6) 0.5765(5) 0.6555(5)
C49 C 0.4647(6) 0.4941(5) 0.5817(6)
H21 H 0.5142 0.4928 0.6011
C50 C 0.1301(5) 0.4442(4) 0.1712(4)
C51 C 0.1929(6) 0.4119(5) 0.1738(4)
H22 H 0.2072 0.4016 0.1358
C52 C 0.0837(5) 0.4643(4) 0.1084(3)
O20 O 0.1102(3) 0.4578(3) 0.0590(2)
C53 C 0.4256(6) 0.2461(4) 0.3831(4)
C54 C 0.3921(6) 0.1728(5) 0.4764(5)
H23 H 0.3794 0.1484 0.5071
C55 C 0.4452(5) 0.1569(4) 0.4438(4)
C56 C 0.4619(6) 0.1935(4) 0.3981(5)
H24 H 0.4986 0.1831 0.3763
C57 C 0.4855(5) 0.1020(4) 0.4567(4)
O21 O 0.5421(4) 0.0950(2) 0.4337(3)
O22 O 0.4617(4) 0.0650(3) 0.4900(3)
C58 C 0.4513(6) 0.2815(5) 0.3326(5)
O23 O 0.4064(4) 0.3083(4) 0.2914(4)
O24 O 0.5188(5) 0.2805(4) 0.3278(5)
Yb9 Yb 0.586267(19) 0.002826(13) 0.457766(14)
O27 O 0.1102(3) 0.5422(3) 0.5590(2)
O28 O 0.8898(3) 0.5422(3) 0.9410(2)
O30 O 0.0421(4) 0.5950(2) 0.4337(3)
O31 O 0.9617(4) 0.4350(3) 0.9900(3)
O32 O 0.0383(4) 0.4350(3) 0.5100(3)
O33 O 0.4064(4) 0.6917(4) 0.7914(4)
O34 O 0.5936(4) 0.6917(4) 0.7086(4)
O35 O 0.5188(5) 0.7195(4) 0.8278(5)
O36 O 0.4812(5) 0.7195(4) 0.6722(5)
Yb10 Yb 0.086267(19) 0.497174(13) 0.957766(14)
Yb12 Yb 0.586267(19) 0.997174(13) 0.957766(14)
Yb13 Yb 0.413733(19) 0.997174(13) 0.542234(14)
O1_2 O 0.3871(4) 0.0151(3) 0.1470(3)
O4_2 O 0.2929(3) 0.0442(3) 0.0285(3)
C1_3 C 0.2646(6) 0.0000(4) 0.0000(5)
Yb1_2 Yb 0.0000 0.14989(3) 0.7500
O5_2 O 0.0957(4) 0.1089(3) 0.8237(3)
C1_4 C 0.2646(6) 0.0000(4) 1.0000(5)
C14_2 C 0.1538(5) 0.0364(4) 0.9266(5)
H5_2 H 0.1845 0.0634 0.9132
C16_2 C 0.0812(6) 0.0345(5) 0.8976(5)
C19_2 C 0.0522(6) 0.0765(5) 0.8445(5)
O18_2 O 0.0165(4) 0.0769(4) 0.6793(4)
O28_2 O 0.3898(3) 0.0422(3) 0.9410(2)
O34_2 O 0.0936(4) 0.1917(4) 0.7086(4)
O35_2 O 0.0188(5) 0.2195(4) 0.8278(5)
O2_2 O 0.3824(4) 0.9261(3) 0.1116(3)
C1_5 C 0.2646(6) 1.0000(4) 0.0000(5)
C3_2 C 0.3740(5) 0.9611(4) 0.1528(4)
C4_2 C 0.1379(5) 0.8608(4) 0.0413(4)
H1_2 H 0.1046 0.8501 0.0044
C5_2 C 0.1607(5) 0.8216(4) 0.0893(4)
N1_2 N 0.2118(5) 0.9321(4) 0.1014(4)
H2_2 H 0.2267 0.9671 0.1054
C6_2 C 0.2856(5) 0.9100(4) 0.2109(4)
C7_2 C 0.3489(5) 0.9429(4) 0.2129(4)
C8_2 C 0.2107(5) 0.8366(4) 0.1426(4)
H3_2 H 0.2273 0.8095 0.1744
C9_2 C 0.2364(5) 0.8920(4) 0.1495(4)
C10_2 C 0.3904(5) 0.9597(4) 0.2708(4)
H4_2 H 0.4324 0.9815 0.2717
C11_2 C 0.1272(5) 0.7632(4) 0.0819(4)
C12_2 C 0.1637(5) 0.9147(4) 0.0477(4)
C15_2 C 0.2653(5) 0.8947(5) 0.2680(4)
H6_2 H 0.2233 0.8728 0.2671
C18_2 C 0.1432(7) 0.7265(5) 0.0366(6)
H8_2 H 0.1786 0.7371 0.0135
C21_2 C 0.3699(5) 0.9442(4) 0.3288(4)
C22_2 C 0.3071(6) 0.9119(5) 0.3262(4)
H10_2 H 0.2928 0.9016 0.3642
C23_2 C 0.4163(5) 0.9643(4) 0.3916(3)
O7_2 O 0.4778(3) 0.9844(3) 0.3890(3)
O8_2 O 0.3898(3) 0.9578(3) 0.4410(2)
C24_2 C 0.0744(6) 0.7461(4) 0.1169(4)
C25_2 C 0.1079(6) 0.6728(5) 0.0236(5)
C26_2 C 0.0548(5) 0.6569(4) 0.0562(4)
C27_2 C 0.0381(6) 0.6935(4) 0.1019(5)
H12_2 H 0.0014 0.6831 0.1237
C28_2 C 0.0145(5) 0.6020(4) 0.0433(4)
O10_2 O 0.0383(4) 0.5650(3) 0.0100(3)
C29_2 C 0.0487(6) 0.7815(5) 0.1674(5)
O11_2 O 0.0936(4) 0.8083(4) 0.2086(4)
Yb5_2 Yb 0.0000 0.85011(3) 0.2500
O26_2 O 0.5222(3) 0.9844(3) 0.1110(3)
O3_2 O 0.3022(4) 0.9573(3) 0.9901(4)
C1_6 C 0.2646(6) 1.0000(4) 1.0000(5)
C2_2 C 0.1815(6) 0.9991(4) 0.9750(5)
C13_2 C 0.1368(5) 0.9571(4) 0.9960(4)
C17_2 C 0.0622(6) 0.9570(5) 0.9662(5)
H7_2 H 0.0307 0.9308 0.9798
C20_2 C 0.0353(6) 0.9941(5) 0.9183(6)
H11_2 H 0.1206 0.6484 0.9929
H21_2 H 0.0142 0.9928 0.6011
O24_2 O 0.0188(5) 0.7805(4) 0.3278(5)
O31_2 O 0.4617(4) 0.9350(3) 0.9900(3)
Yb1_3 Yb 1.0000 0.14989(3) 0.7500
O6_2 O 0.9835(4) 0.0769(4) 0.8207(4)
O13_2 O 0.6129(4) 0.0151(3) 0.3530(3)
O16_2 O 0.7071(3) 0.0442(3) 0.4715(3)
O17_2 O 0.9043(4) 0.1089(3) 0.6763(3)
C30_2 C 0.7354(6) 0.0000(4) 0.5000(5)
C43_2 C 0.8462(5) 0.0364(4) 0.5734(5)
H17_2 H 0.8155 0.0634 0.5868
C45_2 C 0.9188(6) 0.0345(5) 0.6024(5)
C48_2 C 0.9478(6) 0.0765(5) 0.6555(5)
O27_2 O 0.6102(3) 0.0422(3) 0.5590(2)
O33_2 O 0.9064(4) 0.1917(4) 0.7914(4)
O36_2 O 0.9812(5) 0.2195(4) 0.6722(5)
O12_2 O 0.9812(5) 0.7805(4) 0.1722(5)
Yb5_3 Yb 1.0000 0.85011(3) 0.2500
H9_2 H 0.9858 0.9928 0.8989
O14_2 O 0.6176(4) 0.9261(3) 0.3884(3)
O15_2 O 0.6978(4) 0.9573(3) 0.5099(4)
C30_3 C 0.7354(6) 1.0000(4) 0.5000(5)
C31_2 C 0.8185(6) 0.9991(4) 0.5250(5)
C32_2 C 0.6260(5) 0.9611(4) 0.3472(4)
C33_2 C 0.8621(5) 0.8608(4) 0.4587(4)
H13_2 H 0.8954 0.8501 0.4956
C34_2 C 0.8393(5) 0.8216(4) 0.4107(4)
N2_2 N 0.7882(5) 0.9321(4) 0.3986(4)
H14_2 H 0.7733 0.9671 0.3946
C35_2 C 0.7144(5) 0.9100(4) 0.2891(4)
C36_2 C 0.6511(5) 0.9429(4) 0.2871(4)
C37_2 C 0.7893(5) 0.8366(4) 0.3574(4)
H15_2 H 0.7727 0.8095 0.3256
C38_2 C 0.7636(5) 0.8920(4) 0.3505(4)
C39_2 C 0.6096(5) 0.9597(4) 0.2292(4)
H16_2 H 0.5676 0.9815 0.2283
C40_2 C 0.8728(5) 0.7632(4) 0.4181(4)
C41_2 C 0.8363(5) 0.9147(4) 0.4523(4)
C42_2 C 0.8632(5) 0.9571(4) 0.5040(4)
C44_2 C 0.7347(5) 0.8947(5) 0.2320(4)
H18_2 H 0.7767 0.8728 0.2329
C46_2 C 0.9378(6) 0.9570(5) 0.5338(5)
H19_2 H 0.9693 0.9308 0.5202
C47_2 C 0.8568(7) 0.7265(5) 0.4634(6)
H20_2 H 0.8214 0.7371 0.4865
C49_2 C 0.9647(6) 0.9941(5) 0.5817(6)
C50_2 C 0.6301(5) 0.9442(4) 0.1712(4)
C51_2 C 0.6929(6) 0.9119(5) 0.1738(4)
H22_2 H 0.7072 0.9016 0.1358
C52_2 C 0.5837(5) 0.9643(4) 0.1084(3)
O20_2 O 0.6102(3) 0.9578(3) 0.0590(2)
C53_2 C 0.9256(6) 0.7461(4) 0.3831(4)
C54_2 C 0.8921(6) 0.6728(5) 0.4764(5)
H23_2 H 0.8794 0.6484 0.5071
C55_2 C 0.9452(5) 0.6569(4) 0.4438(4)
C56_2 C 0.9619(6) 0.6935(4) 0.3981(5)
H24_2 H 0.9986 0.6831 0.3763
C57_2 C 0.9855(5) 0.6020(4) 0.4567(4)
O22_2 O 0.9617(4) 0.5650(3) 0.4900(3)
C58_2 C 0.9513(6) 0.7815(5) 0.3326(5)
O23_2 O 0.9064(4) 0.8083(4) 0.2914(4)
O32_2 O 0.5383(4) 0.9350(3) 0.5100(3)
O25 O 0.0222(3) 0.5156(3) 0.6110(3)
O3_3 O 0.1978(4) 0.5427(3) 0.0099(4)
O5_3 O 0.4043(4) 0.3911(3) 0.1763(3)
C1_7 C 0.2354(6) 0.5000(4) 0.0000(5)
C2_3 C 0.3185(6) 0.5009(4) 0.0250(5)
O6_3 O 0.5165(4) 0.4231(4) 0.1793(4)
C13_3 C 0.3632(5) 0.5429(4) 0.0040(4)
C14_3 C 0.3462(5) 0.4636(4) 0.0734(5)
H5_3 H 0.3155 0.4366 0.0868
C16_3 C 0.4188(6) 0.4655(5) 0.1024(5)
C17_3 C 0.4378(6) 0.5430(5) 0.0338(5)
H7_3 H 0.4693 0.5692 0.0202
C19_3 C 0.4478(6) 0.4235(5) 0.1555(5)
C20_3 C 0.4647(6) 0.5059(5) 0.0817(6)
H9_3 H 0.5142 0.5072 0.1011
H11_3 H 0.3794 0.8516 0.0071
O13_3 O 0.8871(4) 0.4849(3) 0.6470(3)
O14_3 O 0.8824(4) 0.5739(3) 0.6116(3)
O15_3 O 0.8022(4) 0.5427(3) 0.4901(4)
O16_3 O 0.7929(3) 0.4558(3) 0.5285(3)
O17_3 O 0.5957(4) 0.3911(3) 0.3237(3)
C30_4 C 0.7646(6) 0.5000(4) 0.5000(5)
C31_3 C 0.6815(6) 0.5009(4) 0.4750(5)
C32_3 C 0.8740(5) 0.5389(4) 0.6528(4)
C33_3 C 0.6379(5) 0.6392(4) 0.5413(4)
H13_3 H 0.6046 0.6499 0.5044
C34_3 C 0.6607(5) 0.6784(4) 0.5893(4)
N2_3 N 0.7118(5) 0.5679(4) 0.6014(4)
H14_3 H 0.7267 0.5329 0.6054
C35_3 C 0.7856(5) 0.5900(4) 0.7109(4)
C36_3 C 0.8489(5) 0.5571(4) 0.7129(4)
C37_3 C 0.7107(5) 0.6634(4) 0.6426(4)
H15_3 H 0.7273 0.6905 0.6744
C38_3 C 0.7364(5) 0.6080(4) 0.6495(4)
O18_3 O 0.4835(4) 0.4231(4) 0.3207(4)
C39_3 C 0.8904(5) 0.5403(4) 0.7708(4)
H16_3 H 0.9324 0.5185 0.7717
C40_3 C 0.6272(5) 0.7368(4) 0.5819(4)
C41_3 C 0.6637(5) 0.5853(4) 0.5477(4)
C42_3 C 0.6368(5) 0.5429(4) 0.4960(4)
C43_3 C 0.6538(5) 0.4636(4) 0.4266(5)
H17_3 H 0.6845 0.4366 0.4132
C44_3 C 0.7653(5) 0.6053(5) 0.7680(4)
H18_3 H 0.7233 0.6272 0.7671
C45_3 C 0.5812(6) 0.4655(5) 0.3976(5)
C46_3 C 0.5622(6) 0.5430(5) 0.4662(5)
H19_3 H 0.5307 0.5692 0.4798
C47_3 C 0.6432(7) 0.7735(5) 0.5366(6)
H20_3 H 0.6786 0.7629 0.5135
C48_3 C 0.5522(6) 0.4235(5) 0.3445(5)
C49_3 C 0.5353(6) 0.5059(5) 0.4183(6)
H21_3 H 0.4858 0.5072 0.3989
C50_3 C 0.8699(5) 0.5558(4) 0.8288(4)
C51_3 C 0.8071(6) 0.5881(5) 0.8262(4)
H22_3 H 0.7928 0.5984 0.8642
C52_3 C 0.9163(5) 0.5357(4) 0.8916(3)
O19 O 0.9778(3) 0.5156(3) 0.8890(3)
C53_3 C 0.5744(6) 0.7539(4) 0.6169(4)
C54_3 C 0.6079(6) 0.8272(5) 0.5236(5)
H23_3 H 0.6206 0.8516 0.4929
C55_3 C 0.5548(5) 0.8431(4) 0.5562(4)
C56_3 C 0.5381(6) 0.8065(4) 0.6019(5)
H24_3 H 0.5014 0.8169 0.6237
C57_3 C 0.5145(5) 0.8980(4) 0.5433(4)
O21_2 O 0.4579(4) 0.9050(2) 0.5663(3)
C58_3 C 0.5487(6) 0.7185(5) 0.6674(5)
O30_2 O 0.9579(4) 0.4050(2) 0.5663(3)
O1_3 O 0.1129(4) 0.4849(3) 0.8530(3)
O2_3 O 0.1176(4) 0.5739(3) 0.8884(3)
O4_3 O 0.2071(3) 0.4558(3) 0.9715(3)
C1_8 C 0.2354(6) 0.5000(4) 1.0000(5)
C3_3 C 0.1260(5) 0.5389(4) 0.8472(4)
C4_3 C 0.3621(5) 0.6392(4) 0.9587(4)
H1_3 H 0.3954 0.6499 0.9956
C5_3 C 0.3393(5) 0.6784(4) 0.9107(4)
N1_3 N 0.2882(5) 0.5679(4) 0.8986(4)
H2_3 H 0.2733 0.5329 0.8946
C6_3 C 0.2144(5) 0.5900(4) 0.7891(4)
C7_3 C 0.1511(5) 0.5571(4) 0.7871(4)
C8_3 C 0.2893(5) 0.6634(4) 0.8574(4)
H3_3 H 0.2727 0.6905 0.8256
C9_3 C 0.2636(5) 0.6080(4) 0.8505(4)
C10_3 C 0.1096(5) 0.5403(4) 0.7292(4)
H4_3 H 0.0676 0.5185 0.7283
C11_3 C 0.3728(5) 0.7368(4) 0.9181(4)
C12_3 C 0.3363(5) 0.5853(4) 0.9523(4)
C15_3 C 0.2347(5) 0.6053(5) 0.7320(4)
H6_3 H 0.2767 0.6272 0.7329
C18_3 C 0.3568(7) 0.7735(5) 0.9634(6)
H8_3 H 0.3214 0.7629 0.9865
C21_3 C 0.1301(5) 0.5558(4) 0.6712(4)
C22_3 C 0.1929(6) 0.5881(5) 0.6738(4)
H10_3 H 0.2072 0.5984 0.6358
C23_3 C 0.0837(5) 0.5357(4) 0.6084(3)
C24_3 C 0.4256(6) 0.7539(4) 0.8831(4)
C25_3 C 0.3921(6) 0.8272(5) 0.9764(5)
C26_3 C 0.4452(5) 0.8431(4) 0.9438(4)
C27_3 C 0.4619(6) 0.8065(4) 0.8981(5)
H12_3 H 0.4986 0.8169 0.8763
C28_3 C 0.4855(5) 0.8980(4) 0.9567(4)
O9_2 O 0.5421(4) 0.9050(2) 0.9337(3)
C29_3 C 0.4513(6) 0.7185(5) 0.8326(5)
O29_2 O 0.0421(4) 0.4050(2) 0.9337(3)
H9_4 H 0.0142 0.0072 0.1011
O14_4 O 0.3824(4) 0.0739(3) 0.6116(3)
O15_4 O 0.3022(4) 0.0427(3) 0.4901(4)
C30_5 C 0.2646(6) -0.0000(4) 0.5000(5)
C31_4 C 0.1815(6) 0.0009(4) 0.4750(5)
C32_4 C 0.3740(5) 0.0389(4) 0.6528(4)
C33_4 C 0.1379(5) 0.1392(4) 0.5413(4)
H13_4 H 0.1046 0.1499 0.5044
C34_4 C 0.1607(5) 0.1784(4) 0.5893(4)
N2_4 N 0.2118(5) 0.0679(4) 0.6014(4)
H14_4 H 0.2267 0.0329 0.6054
C35_4 C 0.2856(5) 0.0900(4) 0.7109(4)
C36_4 C 0.3489(5) 0.0571(4) 0.7129(4)
C37_4 C 0.2107(5) 0.1634(4) 0.6426(4)
H15_4 H 0.2273 0.1905 0.6744
C38_4 C 0.2364(5) 0.1080(4) 0.6495(4)
C39_4 C 0.3904(5) 0.0403(4) 0.7708(4)
H16_4 H 0.4324 0.0185 0.7717
C40_4 C 0.1272(5) 0.2368(4) 0.5819(4)
C41_4 C 0.1637(5) 0.0853(4) 0.5477(4)
C42_4 C 0.1368(5) 0.0429(4) 0.4960(4)
C44_4 C 0.2653(5) 0.1053(5) 0.7680(4)
H18_4 H 0.2233 0.1272 0.7671
C46_4 C 0.0622(6) 0.0430(5) 0.4662(5)
H19_4 H 0.0307 0.0692 0.4798
C47_4 C 0.1432(7) 0.2735(5) 0.5366(6)
H20_4 H 0.1786 0.2629 0.5135
C49_4 C 0.0353(6) 0.0059(5) 0.4183(6)
C50_4 C 0.3699(5) 0.0558(4) 0.8288(4)
C51_4 C 0.3071(6) 0.0881(5) 0.8262(4)
H22_4 H 0.2928 0.0984 0.8642
C52_4 C 0.4163(5) 0.0357(4) 0.8916(3)
O19_2 O 0.4778(3) 0.0156(3) 0.8890(3)
C53_4 C 0.0744(6) 0.2539(4) 0.6169(4)
C54_4 C 0.1079(6) 0.3272(5) 0.5236(5)
H23_4 H 0.1206 0.3516 0.4929
C55_4 C 0.0548(5) 0.3431(4) 0.5562(4)
C56_4 C 0.0381(6) 0.3065(4) 0.6019(5)
H24_4 H 0.0014 0.3169 0.6237
C57_4 C 0.0145(5) 0.3980(4) 0.5433(4)
C58_4 C 0.0487(6) 0.2185(5) 0.6674(5)
O25_2 O 0.5222(3) 0.0156(3) 0.6110(3)
O6_4 O 0.0165(4) 0.9231(4) 0.1793(4)
O13_4 O 0.3871(4) 0.9849(3) 0.6470(3)
O16_4 O 0.2929(3) 0.9558(3) 0.5285(3)
O17_4 O 0.0957(4) 0.8911(3) 0.3237(3)
C30_6 C 0.2646(6) 1.0000(4) 0.5000(5)
C43_4 C 0.1538(5) 0.9636(4) 0.4266(5)
H17_4 H 0.1845 0.9366 0.4132
C45_4 C 0.0812(6) 0.9655(5) 0.3976(5)
C48_4 C 0.0522(6) 0.9235(5) 0.3445(5)
O3_4 O 0.6978(4) 0.0427(3) 0.0099(4)
C1_9 C 0.7354(6) -0.0000(4) 0.0000(5)
C2_4 C 0.8185(6) 0.0009(4) 0.0250(5)
C13_4 C 0.8632(5) 0.0429(4) 0.0040(4)
C17_4 C 0.9378(6) 0.0430(5) 0.0338(5)
H7_4 H 0.9693 0.0692 0.0202
C20_4 C 0.9647(6) 0.0059(5) 0.0817(6)
H11_4 H 0.8794 0.3516 0.0071
H21_4 H 0.9858 0.0072 0.3989
O2_4 O 0.6176(4) 0.0739(3) 0.8884(3)
C1_10 C 0.7354(6) -0.0000(4) 1.0000(5)
C3_4 C 0.6260(5) 0.0389(4) 0.8472(4)
C4_4 C 0.8621(5) 0.1392(4) 0.9587(4)
H1_4 H 0.8954 0.1499 0.9956
C5_4 C 0.8393(5) 0.1784(4) 0.9107(4)
N1_4 N 0.7882(5) 0.0679(4) 0.8986(4)
H2_4 H 0.7733 0.0329 0.8946
C6_4 C 0.7144(5) 0.0900(4) 0.7891(4)
C7_4 C 0.6511(5) 0.0571(4) 0.7871(4)
C8_4 C 0.7893(5) 0.1634(4) 0.8574(4)
H3_4 H 0.7727 0.1905 0.8256
C9_4 C 0.7636(5) 0.1080(4) 0.8505(4)
C10_4 C 0.6096(5) 0.0403(4) 0.7292(4)
H4_4 H 0.5676 0.0185 0.7283
C11_4 C 0.8728(5) 0.2368(4) 0.9181(4)
C12_4 C 0.8363(5) 0.0853(4) 0.9523(4)
C15_4 C 0.7347(5) 0.1053(5) 0.7320(4)
H6_4 H 0.7767 0.1272 0.7329
C18_4 C 0.8568(7) 0.2735(5) 0.9634(6)
H8_4 H 0.8214 0.2629 0.9865
C21_4 C 0.6301(5) 0.0558(4) 0.6712(4)
C22_4 C 0.6929(6) 0.0881(5) 0.6738(4)
H10_4 H 0.7072 0.0984 0.6358
C23_4 C 0.5837(5) 0.0357(4) 0.6084(3)
C24_4 C 0.9256(6) 0.2539(4) 0.8831(4)
C25_4 C 0.8921(6) 0.3272(5) 0.9764(5)
C26_4 C 0.9452(5) 0.3431(4) 0.9438(4)
C27_4 C 0.9619(6) 0.3065(4) 0.8981(5)
H12_4 H 0.9986 0.3169 0.8763
C28_4 C 0.9855(5) 0.3980(4) 0.9567(4)
C29_4 C 0.9513(6) 0.2185(5) 0.8326(5)
O5_4 O 0.9043(4) 0.8911(3) 0.1763(3)
C1_11 C 0.7354(6) 1.0000(4) 0.0000(5)
C14_4 C 0.8462(5) 0.9636(4) 0.0734(5)
H5_4 H 0.8155 0.9366 0.0868
C16_4 C 0.9188(6) 0.9655(5) 0.1024(5)
C19_4 C 0.9478(6) 0.9235(5) 0.1555(5)
O18_4 O 0.9835(4) 0.9231(4) 0.3207(4)
O1_4 O 0.6129(4) 0.9849(3) 0.8530(3)
O4_4 O 0.7071(3) 0.9558(3) 0.9715(3)
C1_12 C 0.7354(6) 1.0000(4) 1.0000(5)
loop_
_geom_bond_atom_site_label_1
_geom_bond_atom_site_label_2
_geom_bond_site_symmetry_1
_geom_bond_site_symmetry_2
Yb2 O1 1_555 1_555
O1 C3 1_555 1_555
O2 Yb2 1_555 1_555
O4 Yb2 1_555 1_555
C3 O2 1_555 1_555
C4 H1 1_555 1_555
C5 C4 1_555 1_555
N1 H2 1_555 1_555
C6 C7 1_555 1_555
C7 C3 1_555 1_555
C8 C5 1_555 1_555
H3 C8 1_555 1_555
C9 N1 1_555 1_555
C10 C7 1_555 1_555
H4 C10 1_555 1_555
C11 C5 1_555 1_555
C12 C4 1_555 1_555
C15 C6 1_555 1_555
H6 C15 1_555 1_555
C18 C11 1_555 1_555
H8 C18 1_555 1_555
C21 C10 1_555 1_555
C22 C15 1_555 1_555
H10 C22 1_555 1_555
C23 C21 1_555 1_555
O7 C23 1_555 1_555
O8 C23 1_555 1_555
C24 C11 1_555 1_555
C25 C18 1_555 1_555
C26 C25 1_555 1_555
C27 C24 1_555 1_555
H12 C27 1_555 1_555
C28 C26 1_555 1_555
O9 C28 1_555 1_555
O10 C28 1_555 1_555
C29 C24 1_555 1_555
O11 C29 1_555 1_555
O12 C29 1_555 1_555
Yb5 O11 1_555 1_555
Yb8 O9 1_555 1_555
Yb11 O8 1_555 1_555
O29 Yb2 1_555 1_555
O4 C1 1_555 1_555
N1 C12 1_555 1_555
C6 C9 1_555 1_555
C8 C9 1_555 1_555
C21 C22 1_555 1_555
C26 C27 1_555 1_555
O12 Yb5 1_555 1_555
Yb1 O5 1_555 1_555
O5 C19 1_555 1_555
C1_2 O3 1_555 1_555
C2 C1_2 1_555 1_555
O6 Yb1 1_555 1_555
C13 C2 1_555 1_555
C14 C2 1_555 1_555
H5 C14 1_555 1_555
C16 C14 1_555 1_555
C17 C13 1_555 1_555
H7 C17 1_555 1_555
C19 O6 1_555 1_555
C20 C16 1_555 1_555
H9 C20 1_555 1_555
Yb7 O13 1_555 1_555
O13 C32 1_555 1_555
O14 Yb7 1_555 1_555
O15 Yb7 1_555 1_555
O16 Yb7 1_555 1_555
O17 Yb1 1_555 1_555
C30 O15 1_555 1_555
C31 C30 1_555 1_555
C32 O14 1_555 1_555
C33 H13 1_555 1_555
C34 C33 1_555 1_555
N2 H14 1_555 1_555
C35 C36 1_555 1_555
C36 C32 1_555 1_555
C37 C34 1_555 1_555
H15 C37 1_555 1_555
C38 N2 1_555 1_555
O18 Yb1 1_555 1_555
C39 C36 1_555 1_555
H16 C39 1_555 1_555
C40 C34 1_555 1_555
C41 C33 1_555 1_555
C42 C31 1_555 1_555
C43 C31 1_555 1_555
H17 C43 1_555 1_555
C44 C35 1_555 1_555
H18 C44 1_555 1_555
C45 C43 1_555 1_555
C46 C42 1_555 1_555
H19 C46 1_555 1_555
C47 C40 1_555 1_555
H20 C47 1_555 1_555
C48 O17 1_555 1_555
C49 C45 1_555 1_555
H21 C49 1_555 1_555
C50 C39 1_555 1_555
C51 C44 1_555 1_555
H22 C51 1_555 1_555
C52 C50 1_555 1_555
O26 C52 1_555 1_555
O20 C52 1_555 1_555
C53 C40 1_555 1_555
C54 C47 1_555 1_555
H23 C54 1_555 1_555
C55 C54 1_555 1_555
C56 C53 1_555 1_555
H24 C56 1_555 1_555
C57 C55 1_555 1_555
O21 C57 1_555 1_555
O22 C57 1_555 1_555
C58 C53 1_555 1_555
O23 C58 1_555 1_555
O24 C58 1_555 1_555
Yb5 O23 1_555 1_555
Yb9 O21 1_555 1_555
O27 Yb7 1_555 1_555
O30 Yb7 1_555 1_555
O32 Yb7 1_555 1_555
O33 Yb1 1_555 1_555
O34 Yb1 1_555 1_555
O35 Yb1 1_555 1_555
O36 Yb1 1_555 1_555
C16 C19 1_555 1_555
C17 C20 1_555 1_555
O16 C30 1_555 1_555
N2 C41 1_555 1_555
C35 C38 1_555 1_555
C37 C38 1_555 1_555
O18 C48 1_555 1_555
C41 C42 1_555 1_555
C45 C48 1_555 1_555
C46 C49 1_555 1_555
C50 C51 1_555 1_555
C55 C56 1_555 1_555
O24 Yb5 1_555 1_555
Yb8 O1_2 1_555 1_555
O4_2 Yb8 1_555 1_555
O4_2 C1_3 1_555 1_555
Yb1_2 O5_2 1_555 1_555
O5_2 C19_2 1_555 1_555
H5_2 C14_2 1_555 1_555
C16_2 C14_2 1_555 1_555
O18_2 Yb1_2 1_555 1_555
O34_2 Yb1_2 1_555 1_555
O35_2 Yb1_2 1_555 1_555
C16_2 C19_2 1_555 1_555
C3_2 O2_2 1_555 1_555
C4_2 H1_2 1_555 1_555
C5_2 C4_2 1_555 1_555
N1_2 H2_2 1_555 1_555
C6_2 C7_2 1_555 1_555
C7_2 C3_2 1_555 1_555
C8_2 C5_2 1_555 1_555
H3_2 C8_2 1_555 1_555
C9_2 N1_2 1_555 1_555
C10_2 C7_2 1_555 1_555
H4_2 C10_2 1_555 1_555
C11_2 C5_2 1_555 1_555
C12_2 C4_2 1_555 1_555
C15_2 C6_2 1_555 1_555
H6_2 C15_2 1_555 1_555
C18_2 C11_2 1_555 1_555
H8_2 C18_2 1_555 1_555
C21_2 C10_2 1_555 1_555
C22_2 C15_2 1_555 1_555
H10_2 C22_2 1_555 1_555
C23_2 C21_2 1_555 1_555
O7_2 C23_2 1_555 1_555
O8_2 C23_2 1_555 1_555
C24_2 C11_2 1_555 1_555
C25_2 C18_2 1_555 1_555
C26_2 C25_2 1_555 1_555
C27_2 C24_2 1_555 1_555
H12_2 C27_2 1_555 1_555
C28_2 C26_2 1_555 1_555
O10_2 C28_2 1_555 1_555
C29_2 C24_2 1_555 1_555
O11_2 C29_2 1_555 1_555
Yb5_2 O11_2 1_555 1_555
Yb13 O8_2 1_555 1_555
N1_2 C12_2 1_555 1_555
C6_2 C9_2 1_555 1_555
C8_2 C9_2 1_555 1_555
C21_2 C22_2 1_555 1_555
C26_2 C27_2 1_555 1_555
C1_6 O3_2 1_555 1_555
C2_2 C1_6 1_555 1_555
C13_2 C2_2 1_555 1_555
C17_2 C13_2 1_555 1_555
H7_2 C17_2 1_555 1_555
C17_2 C20_2 1_555 1_555
O24_2 Yb5_2 1_555 1_555
O6_2 Yb1_3 1_555 1_555
Yb9 O13_2 1_555 1_555
O16_2 Yb9 1_555 1_555
O17_2 Yb1_3 1_555 1_555
H17_2 C43_2 1_555 1_555
C45_2 C43_2 1_555 1_555
C48_2 O17_2 1_555 1_555
O27_2 Yb9 1_555 1_555
O33_2 Yb1_3 1_555 1_555
O36_2 Yb1_3 1_555 1_555
O16_2 C30_2 1_555 1_555
C45_2 C48_2 1_555 1_555
O12_2 Yb5_3 1_555 1_555
C30_3 O15_2 1_555 1_555
C31_2 C30_3 1_555 1_555
C32_2 O14_2 1_555 1_555
C33_2 H13_2 1_555 1_555
C34_2 C33_2 1_555 1_555
N2_2 H14_2 1_555 1_555
C35_2 C36_2 1_555 1_555
C36_2 C32_2 1_555 1_555
C37_2 C34_2 1_555 1_555
H15_2 C37_2 1_555 1_555
C38_2 N2_2 1_555 1_555
C39_2 C36_2 1_555 1_555
H16_2 C39_2 1_555 1_555
C40_2 C34_2 1_555 1_555
C41_2 C33_2 1_555 1_555
C42_2 C31_2 1_555 1_555
C44_2 C35_2 1_555 1_555
H18_2 C44_2 1_555 1_555
C46_2 C42_2 1_555 1_555
H19_2 C46_2 1_555 1_555
C47_2 C40_2 1_555 1_555
H20_2 C47_2 1_555 1_555
C50_2 C39_2 1_555 1_555
C51_2 C44_2 1_555 1_555
H22_2 C51_2 1_555 1_555
C52_2 C50_2 1_555 1_555
O26_2 C52_2 1_555 1_555
O20_2 C52_2 1_555 1_555
C53_2 C40_2 1_555 1_555
C54_2 C47_2 1_555 1_555
H23_2 C54_2 1_555 1_555
C55_2 C54_2 1_555 1_555
C56_2 C53_2 1_555 1_555
H24_2 C56_2 1_555 1_555
C57_2 C55_2 1_555 1_555
O22_2 C57_2 1_555 1_555
C58_2 C53_2 1_555 1_555
O23_2 C58_2 1_555 1_555
Yb5_3 O23_2 1_555 1_555
Yb11 O22_2 1_555 1_555
N2_2 C41_2 1_555 1_555
C35_2 C38_2 1_555 1_555
C37_2 C38_2 1_555 1_555
C41_2 C42_2 1_555 1_555
C46_2 C49_2 1_555 1_555
C50_2 C51_2 1_555 1_555
C55_2 C56_2 1_555 1_555
Yb5 O5_3 1_555 1_555
O5_3 C19_3 1_555 1_555
C1_7 O3_3 1_555 1_555
C2_3 C1_7 1_555 1_555
O6_3 Yb5 1_555 1_555
C13_3 C2_3 1_555 1_555
C14_3 C2_3 1_555 1_555
H5_3 C14_3 1_555 1_555
C16_3 C14_3 1_555 1_555
C17_3 C13_3 1_555 1_555
H7_3 C17_3 1_555 1_555
C19_3 O6_3 1_555 1_555
C20_3 C16_3 1_555 1_555
H9_3 C20_3 1_555 1_555
Yb11 O13_3 1_555 1_555
O13_3 C32_3 1_555 1_555
O14_3 Yb11 1_555 1_555
O15_3 Yb11 1_555 1_555
O16_3 Yb11 1_555 1_555
O17_3 Yb5 1_555 1_555
C30_4 O15_3 1_555 1_555
C31_3 C30_4 1_555 1_555
C32_3 O14_3 1_555 1_555
C33_3 H13_3 1_555 1_555
C34_3 C33_3 1_555 1_555
N2_3 H14_3 1_555 1_555
C35_3 C36_3 1_555 1_555
C36_3 C32_3 1_555 1_555
C37_3 C34_3 1_555 1_555
H15_3 C37_3 1_555 1_555
C38_3 N2_3 1_555 1_555
O18_3 Yb5 1_555 1_555
C39_3 C36_3 1_555 1_555
H16_3 C39_3 1_555 1_555
C40_3 C34_3 1_555 1_555
C41_3 C33_3 1_555 1_555
C42_3 C31_3 1_555 1_555
C43_3 C31_3 1_555 1_555
H17_3 C43_3 1_555 1_555
C44_3 C35_3 1_555 1_555
H18_3 C44_3 1_555 1_555
C45_3 C43_3 1_555 1_555
C46_3 C42_3 1_555 1_555
H19_3 C46_3 1_555 1_555
C47_3 C40_3 1_555 1_555
H20_3 C47_3 1_555 1_555
C48_3 O17_3 1_555 1_555
C49_3 C45_3 1_555 1_555
H21_3 C49_3 1_555 1_555
C50_3 C39_3 1_555 1_555
C51_3 C44_3 1_555 1_555
H22_3 C51_3 1_555 1_555
C52_3 C50_3 1_555 1_555
O19 C52_3 1_555 1_555
O28 C52_3 1_555 1_555
C53_3 C40_3 1_555 1_555
C54_3 C47_3 1_555 1_555
H23_3 C54_3 1_555 1_555
C55_3 C54_3 1_555 1_555
C56_3 C53_3 1_555 1_555
H24_3 C56_3 1_555 1_555
C57_3 C55_3 1_555 1_555
O21_2 C57_3 1_555 1_555
O32_2 C57_3 1_555 1_555
C58_3 C53_3 1_555 1_555
O34 C58_3 1_555 1_555
O36 C58_3 1_555 1_555
Yb13 O21_2 1_555 1_555
O30_2 Yb11 1_555 1_555
C16_3 C19_3 1_555 1_555
C17_3 C20_3 1_555 1_555
O16_3 C30_4 1_555 1_555
N2_3 C41_3 1_555 1_555
C35_3 C38_3 1_555 1_555
C37_3 C38_3 1_555 1_555
O18_3 C48_3 1_555 1_555
C41_3 C42_3 1_555 1_555
C45_3 C48_3 1_555 1_555
C46_3 C49_3 1_555 1_555
C50_3 C51_3 1_555 1_555
C55_3 C56_3 1_555 1_555
Yb10 O1_3 1_555 1_555
O1_3 C3_3 1_555 1_555
O2_3 Yb10 1_555 1_555
O4_3 Yb10 1_555 1_555
C3_3 O2_3 1_555 1_555
C4_3 H1_3 1_555 1_555
C5_3 C4_3 1_555 1_555
N1_3 H2_3 1_555 1_555
C6_3 C7_3 1_555 1_555
C7_3 C3_3 1_555 1_555
C8_3 C5_3 1_555 1_555
H3_3 C8_3 1_555 1_555
C9_3 N1_3 1_555 1_555
C10_3 C7_3 1_555 1_555
H4_3 C10_3 1_555 1_555
C11_3 C5_3 1_555 1_555
C12_3 C4_3 1_555 1_555
C15_3 C6_3 1_555 1_555
H6_3 C15_3 1_555 1_555
C18_3 C11_3 1_555 1_555
H8_3 C18_3 1_555 1_555
C21_3 C10_3 1_555 1_555
C22_3 C15_3 1_555 1_555
H10_3 C22_3 1_555 1_555
C23_3 C21_3 1_555 1_555
O25 C23_3 1_555 1_555
O27 C23_3 1_555 1_555
C24_3 C11_3 1_555 1_555
C25_3 C18_3 1_555 1_555
C26_3 C25_3 1_555 1_555
C27_3 C24_3 1_555 1_555
H12_3 C27_3 1_555 1_555
C28_3 C26_3 1_555 1_555
O9_2 C28_3 1_555 1_555
O31_2 C28_3 1_555 1_555
C29_3 C24_3 1_555 1_555
O33 C29_3 1_555 1_555
O35 C29_3 1_555 1_555
Yb12 O9_2 1_555 1_555
O29_2 Yb10 1_555 1_555
O4_3 C1_8 1_555 1_555
N1_3 C12_3 1_555 1_555
C6_3 C9_3 1_555 1_555
C8_3 C9_3 1_555 1_555
C21_3 C22_3 1_555 1_555
C26_3 C27_3 1_555 1_555
C30_5 O15_4 1_555 1_555
C31_4 C30_5 1_555 1_555
C32_4 O14_4 1_555 1_555
C33_4 H13_4 1_555 1_555
C34_4 C33_4 1_555 1_555
N2_4 H14_4 1_555 1_555
C35_4 C36_4 1_555 1_555
C36_4 C32_4 1_555 1_555
C37_4 C34_4 1_555 1_555
H15_4 C37_4 1_555 1_555
C38_4 N2_4 1_555 1_555
C39_4 C36_4 1_555 1_555
H16_4 C39_4 1_555 1_555
C40_4 C34_4 1_555 1_555
C41_4 C33_4 1_555 1_555
C42_4 C31_4 1_555 1_555
C44_4 C35_4 1_555 1_555
H18_4 C44_4 1_555 1_555
C46_4 C42_4 1_555 1_555
H19_4 C46_4 1_555 1_555
C47_4 C40_4 1_555 1_555
H20_4 C47_4 1_555 1_555
C50_4 C39_4 1_555 1_555
C51_4 C44_4 1_555 1_555
H22_4 C51_4 1_555 1_555
C52_4 C50_4 1_555 1_555
O19_2 C52_4 1_555 1_555
O28_2 C52_4 1_555 1_555
C53_4 C40_4 1_555 1_555
C54_4 C47_4 1_555 1_555
H23_4 C54_4 1_555 1_555
C55_4 C54_4 1_555 1_555
C56_4 C53_4 1_555 1_555
H24_4 C56_4 1_555 1_555
C57_4 C55_4 1_555 1_555
O32 C57_4 1_555 1_555
C58_4 C53_4 1_555 1_555
O34_2 C58_4 1_555 1_555
N2_4 C41_4 1_555 1_555
C35_4 C38_4 1_555 1_555
C37_4 C38_4 1_555 1_555
C41_4 C42_4 1_555 1_555
C46_4 C49_4 1_555 1_555
C50_4 C51_4 1_555 1_555
C55_4 C56_4 1_555 1_555
O6_4 Yb5_2 1_555 1_555
Yb13 O13_4 1_555 1_555
O16_4 Yb13 1_555 1_555
O17_4 Yb5_2 1_555 1_555
H17_4 C43_4 1_555 1_555
C45_4 C43_4 1_555 1_555
C48_4 O17_4 1_555 1_555
O16_4 C30_6 1_555 1_555
C45_4 C48_4 1_555 1_555
C1_9 O3_4 1_555 1_555
C2_4 C1_9 1_555 1_555
C13_4 C2_4 1_555 1_555
C17_4 C13_4 1_555 1_555
H7_4 C17_4 1_555 1_555
C17_4 C20_4 1_555 1_555
C3_4 O2_4 1_555 1_555
C4_4 H1_4 1_555 1_555
C5_4 C4_4 1_555 1_555
N1_4 H2_4 1_555 1_555
C6_4 C7_4 1_555 1_555
C7_4 C3_4 1_555 1_555
C8_4 C5_4 1_555 1_555
H3_4 C8_4 1_555 1_555
C9_4 N1_4 1_555 1_555
C10_4 C7_4 1_555 1_555
H4_4 C10_4 1_555 1_555
C11_4 C5_4 1_555 1_555
C12_4 C4_4 1_555 1_555
C15_4 C6_4 1_555 1_555
H6_4 C15_4 1_555 1_555
C18_4 C11_4 1_555 1_555
H8_4 C18_4 1_555 1_555
C21_4 C10_4 1_555 1_555
C22_4 C15_4 1_555 1_555
H10_4 C22_4 1_555 1_555
C23_4 C21_4 1_555 1_555
O25_2 C23_4 1_555 1_555
O27_2 C23_4 1_555 1_555
C24_4 C11_4 1_555 1_555
C25_4 C18_4 1_555 1_555
C26_4 C25_4 1_555 1_555
C27_4 C24_4 1_555 1_555
H12_4 C27_4 1_555 1_555
C28_4 C26_4 1_555 1_555
O31 C28_4 1_555 1_555
C29_4 C24_4 1_555 1_555
O33_2 C29_4 1_555 1_555
N1_4 C12_4 1_555 1_555
C6_4 C9_4 1_555 1_555
C8_4 C9_4 1_555 1_555
C21_4 C22_4 1_555 1_555
C26_4 C27_4 1_555 1_555
Yb5_3 O5_4 1_555 1_555
O5_4 C19_4 1_555 1_555
H5_4 C14_4 1_555 1_555
C16_4 C14_4 1_555 1_555
O18_4 Yb5_3 1_555 1_555
C16_4 C19_4 1_555 1_555
Yb12 O1_4 1_555 1_555
O4_4 Yb12 1_555 1_555
O4_4 C1_12 1_555 1_555

#END
