
###############################################################################
#
# This file contains modified crystal structure data generated from the
# MOF subset of the Cambridge Structural Database (CSD) v543 
# hosted by the Cambridge Crystallographic Data Centre (CCDC).
#
# This work is licensed under the Creative Commons
# Attribution-NonCommercial-ShareAlike 4.0 International License.
# To view a copy of this license, visit
# http://creativecommons.org/licenses/by-nc-sa/4.0/
# or send a letter to
# Creative Commons, PO Box 1866, Mountain View, CA 94042, USA.
#
# CIF created using the CSD Python API on 29 September 2022
# The structure has been converted into the P1 space group
# The structure has a 3D framework
# The original CSD entry HUSJUC is in the monoclinic crystal system
# The framework has been calculated to contain at least 10.0% void space
# The void calculation uses a probe of radius 1.32A, grid spacing 0.4
#
###############################################################################

data_HUSJUC
_chemical_formula_moiety         '(C84 H44 La4 O24)n'
_symmetry_cell_setting           triclinic
_symmetry_space_group_name_H-M   'P 1'
_symmetry_Int_Tables_number      1
_space_group_name_Hall           'P 1'
loop_
_symmetry_equiv_pos_site_id
_symmetry_equiv_pos_as_xyz
1 x,y,z
_cell_length_a                   18.4394(5)
_cell_length_b                   13.7828(3)
_cell_length_c                   8.1160(2)
_cell_angle_alpha                90
_cell_angle_beta                 92.319(2)
_cell_angle_gamma                90
_cell_volume                     2060.96
loop_
_atom_site_label
_atom_site_type_symbol
_atom_site_fract_x
_atom_site_fract_y
_atom_site_fract_z
La4 La 0.00125(3) 0.01709(2) 0.25533(4)
O6 O 0.0419(3) 0.8334(4) 0.2080(6)
H7 H 0.0206 0.4953 0.0887
C14 C 0.0165(4) 0.6390(6) 0.0911(10)
H8 H 0.0581 0.6473 0.1582
La6 La 0.00125(3) 0.98291(2) 0.75533(4)
O5 O 0.9924(3) 0.1877(4) 0.1499(7)
O7 O 0.9630(3) 0.8930(4) 0.0206(6)
C9 C 0.9528(4) 0.1737(5) 0.0208(9)
H6 H 0.9785 0.3586 0.0535
C13 C 0.9938(4) 0.5482(6) 0.0495(11)
C15 C 0.9773(4) 0.7203(5) 0.0333(9)
C16 C 0.9960(4) 0.8204(5) 0.0914(9)
C1 C 0.6300(4) 0.5571(5) 0.4824(9)
La1 La 0.50125(3) 0.51709(2) 0.25533(4)
O1 O 0.5901(3) 0.4829(4) 0.5137(8)
O2 O 0.3636(3) 0.5503(5) 0.2506(7)
H1 H 0.3492 0.5426 0.3454
H2 H 0.3317 0.5349 0.1803
C2 C 0.6985(4) 0.5724(6) 0.5863(9)
O3 O 0.6136(3) 0.6134(4) 0.3671(6)
C3 C 0.7356(4) 0.4930(6) 0.6502(10)
H3 H 0.7172 0.4311 0.6298
O4 O 0.9427(3) 0.0895(4) 0.9624(7)
C4 C 0.8009(4) 0.5038(6) 0.7458(11)
C5 C 0.8412(4) 0.4202(6) 0.8083(10)
C6 C 0.8210(4) 0.3254(6) 0.7693(10)
H4 H 0.7810 0.3164 0.6972
C7 C 0.8560(4) 0.2445(6) 0.8302(10)
H5 H 0.8408 0.1825 0.7998
C8 C 0.9163(4) 0.2589(5) 0.9410(9)
C10 C 0.9388(4) 0.3505(6) 0.9802(9)
C11 C 0.9039(4) 0.4334(5) 0.9131(9)
C12 C 0.9313(4) 0.5315(5) 0.9492(11)
C17 C 0.9177(4) 0.7075(6) 0.9299(10)
H9 H 0.8930 0.7614 0.8876
C18 C 0.8932(4) 0.6130(6) 0.8865(9)
C19 C 0.8273(4) 0.6016(5) 0.7812(9)
C20 C 0.7892(5) 0.6789(6) 0.7094(10)
H10 H 0.8068 0.7415 0.7260
C21 C 0.7254(4) 0.6658(6) 0.6131(10)
H11 H 0.7010 0.7191 0.5674
La2 La 0.50125(3) 0.48291(2) 0.75533(4)
O8 O 0.5901(3) 0.5171(4) 0.0137(8)
O10 O 0.4427(3) 0.4105(4) 0.4624(7)
O11 O 0.4924(3) 0.6877(4) 0.1499(7)
O12 O 0.5419(3) 0.3334(4) 0.2080(6)
O13 O 0.4630(3) 0.3930(4) 0.0206(6)
O14 O 0.4630(3) 0.6070(4) 0.5206(6)
O9 O 0.4427(3) 0.5895(4) 0.9624(7)
O6_2 O 0.0419(3) 0.1666(4) 0.7080(6)
H7_2 H 0.0206 0.5047 0.5887
C14_2 C 0.0165(4) 0.3610(6) 0.5911(10)
H8_2 H 0.0581 0.3527 0.6582
C2_2 C 0.6985(4) 0.4276(6) 0.0863(9)
C3_2 C 0.7356(4) 0.5070(6) 0.1502(10)
H3_2 H 0.7172 0.5689 0.1298
O4_2 O 0.9427(3) 0.9105(4) 0.4624(7)
C4_2 C 0.8009(4) 0.4962(6) 0.2458(11)
O5_2 O 0.9924(3) 0.8123(4) 0.6499(7)
C5_2 C 0.8412(4) 0.5798(6) 0.3083(10)
C6_2 C 0.8210(4) 0.6746(6) 0.2693(10)
H4_2 H 0.7810 0.6836 0.1972
O7_2 O 0.9630(3) 0.1070(4) 0.5206(6)
C7_2 C 0.8560(4) 0.7555(6) 0.3302(10)
H5_2 H 0.8408 0.8175 0.2998
C8_2 C 0.9163(4) 0.7411(5) 0.4410(9)
C9_2 C 0.9528(4) 0.8263(5) 0.5208(9)
C10_2 C 0.9388(4) 0.6495(6) 0.4802(9)
H6_2 H 0.9785 0.6414 0.5535
C11_2 C 0.9039(4) 0.5666(5) 0.4131(9)
C12_2 C 0.9313(4) 0.4685(5) 0.4492(11)
C13_2 C 0.9938(4) 0.4518(6) 0.5495(11)
C15_2 C 0.9773(4) 0.2797(5) 0.5333(9)
C16_2 C 0.9960(4) 0.1796(5) 0.5914(9)
C17_2 C 0.9177(4) 0.2925(6) 0.4299(10)
H9_2 H 0.8930 0.2386 0.3876
C18_2 C 0.8932(4) 0.3870(6) 0.3865(9)
C19_2 C 0.8273(4) 0.3984(5) 0.2812(9)
C20_2 C 0.7892(5) 0.3211(6) 0.2094(10)
H10_2 H 0.8068 0.2585 0.2260
C21_2 C 0.7254(4) 0.3342(6) 0.1131(10)
H11_2 H 0.7010 0.2809 0.0674
C1_2 C 0.6300(4) 0.4429(5) 0.9824(9)
O2_2 O 0.3636(3) 0.4497(5) 0.7506(7)
H1_2 H 0.3492 0.4574 0.8454
H2_2 H 0.3317 0.4651 0.6803
O3_2 O 0.6136(3) 0.3866(4) 0.8671(6)
O11_2 O 0.4924(3) 0.3123(4) 0.6499(7)
O12_2 O 0.5419(3) 0.6666(4) 0.7080(6)
C13_3 C 0.4938(4) 0.0482(6) 0.0495(11)
C14_3 C 0.5165(4) 0.1390(6) 0.0911(10)
H8_3 H 0.5581 0.1473 0.1582
C15_3 C 0.4773(4) 0.2203(5) 0.0333(9)
C16_3 C 0.4960(4) 0.3204(5) 0.0914(9)
C1_3 C 0.1300(4) 0.0571(5) 0.4824(9)
C2_3 C 0.1985(4) 0.0724(6) 0.5863(9)
O3_3 O 0.1136(3) 0.1134(4) 0.3671(6)
C4_3 C 0.3009(4) 0.0038(6) 0.7458(11)
C12_3 C 0.4313(4) 0.0315(5) 0.9492(11)
C17_3 C 0.4177(4) 0.2075(6) 0.9299(10)
H9_3 H 0.3930 0.2614 0.8876
C18_3 C 0.3932(4) 0.1130(6) 0.8865(9)
C19_3 C 0.3273(4) 0.1016(5) 0.7812(9)
C20_3 C 0.2892(5) 0.1789(6) 0.7094(10)
H10_3 H 0.3068 0.2415 0.7260
C21_3 C 0.2254(4) 0.1658(6) 0.6131(10)
H11_3 H 0.2010 0.2191 0.5674
O8_2 O 0.0901(3) 0.0171(4) 0.0137(8)
C9_3 C 0.4528(4) 0.6737(5) 0.0208(9)
H6_3 H 0.4785 0.8586 0.0535
H7_3 H 0.5206 0.9953 0.0887
O1_2 O 0.0901(3) 0.9829(4) 0.5137(8)
C3_3 C 0.2356(4) 0.9930(6) 0.6502(10)
H3_3 H 0.2172 0.9311 0.6298
C5_3 C 0.3412(4) 0.9202(6) 0.8083(10)
C6_3 C 0.3210(4) 0.8254(6) 0.7693(10)
H4_3 H 0.2810 0.8164 0.6972
C7_3 C 0.3560(4) 0.7445(6) 0.8302(10)
H5_3 H 0.3408 0.6825 0.7998
C8_3 C 0.4163(4) 0.7589(5) 0.9410(9)
C10_3 C 0.4388(4) 0.8505(6) 0.9802(9)
C11_3 C 0.4039(4) 0.9334(5) 0.9131(9)
O2_3 O 0.8636(3) 0.0503(5) 0.2506(7)
H1_3 H 0.8492 0.0426 0.3454
H2_3 H 0.8317 0.0349 0.1803
C3_4 C 0.2356(4) 0.0070(6) 0.1502(10)
H3_4 H 0.2172 0.0689 0.1298
C5_4 C 0.3412(4) 0.0798(6) 0.3083(10)
C6_4 C 0.3210(4) 0.1746(6) 0.2693(10)
H4_4 H 0.2810 0.1836 0.1972
C7_4 C 0.3560(4) 0.2555(6) 0.3302(10)
H5_4 H 0.3408 0.3175 0.2998
C8_4 C 0.4163(4) 0.2411(5) 0.4410(9)
C9_4 C 0.4528(4) 0.3263(5) 0.5208(9)
C10_4 C 0.4388(4) 0.1495(6) 0.4802(9)
H6_4 H 0.4785 0.1414 0.5535
C11_4 C 0.4039(4) 0.0666(5) 0.4131(9)
H7_4 H 0.5206 0.0047 0.5887
C2_4 C 0.1985(4) 0.9276(6) 0.0863(9)
C4_4 C 0.3009(4) 0.9962(6) 0.2458(11)
C12_4 C 0.4313(4) 0.9685(5) 0.4492(11)
C13_4 C 0.4938(4) 0.9518(6) 0.5495(11)
C14_4 C 0.5165(4) 0.8610(6) 0.5911(10)
H8_4 H 0.5581 0.8527 0.6582
C15_4 C 0.4773(4) 0.7797(5) 0.5333(9)
C16_4 C 0.4960(4) 0.6796(5) 0.5914(9)
C17_4 C 0.4177(4) 0.7925(6) 0.4299(10)
H9_4 H 0.3930 0.7386 0.3876
C18_4 C 0.3932(4) 0.8870(6) 0.3865(9)
C19_4 C 0.3273(4) 0.8984(5) 0.2812(9)
C20_4 C 0.2892(5) 0.8211(6) 0.2094(10)
H10_4 H 0.3068 0.7585 0.2260
C21_4 C 0.2254(4) 0.8342(6) 0.1131(10)
H11_4 H 0.2010 0.7809 0.0674
C1_4 C 0.1300(4) 0.9429(5) 0.9824(9)
O3_4 O 0.1136(3) 0.8866(4) 0.8671(6)
O2_4 O 0.8636(3) 0.9497(5) 0.7506(7)
H1_4 H 0.8492 0.9574 0.8454
H2_4 H 0.8317 0.9651 0.6803
loop_
_geom_bond_atom_site_label_1
_geom_bond_atom_site_label_2
_geom_bond_site_symmetry_1
_geom_bond_site_symmetry_2
H8 C14 1_555 1_555
O5 C9 1_555 1_555
O7 C16 1_555 1_555
C16 C15 1_555 1_555
C1 O1 1_555 1_555
La1 O1 1_555 1_555
O1 La2 1_555 1_555
O2 La1 1_555 1_555
H1 O2 1_555 1_555
H2 O2 1_555 1_555
C2 C1 1_555 1_555
O3 C1 1_555 1_555
C3 C2 1_555 1_555
H3 C3 1_555 1_555
C4 C3 1_555 1_555
C5 C4 1_555 1_555
C6 C5 1_555 1_555
H4 C6 1_555 1_555
C7 C6 1_555 1_555
H5 C7 1_555 1_555
C8 C7 1_555 1_555
C10 C8 1_555 1_555
C11 C5 1_555 1_555
C12 C11 1_555 1_555
H9 C17 1_555 1_555
C18 C12 1_555 1_555
C19 C4 1_555 1_555
C20 C19 1_555 1_555
H10 C20 1_555 1_555
C21 C2 1_555 1_555
H11 C21 1_555 1_555
La2 O10 1_555 1_555
O8 La1 1_555 1_555
O10 La1 1_555 1_555
O11 La1 1_555 1_555
O12 La1 1_555 1_555
O13 La1 1_555 1_555
O14 La1 1_555 1_555
La1 O3 1_555 1_555
C10 C11 1_555 1_555
C17 C18 1_555 1_555
C18 C19 1_555 1_555
C20 C21 1_555 1_555
La2 O14 1_555 1_555
H8_2 C14_2 1_555 1_555
C3_2 C2_2 1_555 1_555
H3_2 C3_2 1_555 1_555
O4_2 C9_2 1_555 1_555
C4_2 C3_2 1_555 1_555
O5_2 C9_2 1_555 1_555
C5_2 C4_2 1_555 1_555
C6_2 C5_2 1_555 1_555
H4_2 C6_2 1_555 1_555
O7_2 C16_2 1_555 1_555
C7_2 C6_2 1_555 1_555
H5_2 C7_2 1_555 1_555
C8_2 C7_2 1_555 1_555
C9_2 C8_2 1_555 1_555
C10_2 C8_2 1_555 1_555
H6_2 C10_2 1_555 1_555
C11_2 C5_2 1_555 1_555
C12_2 C11_2 1_555 1_555
C13_2 C12_2 1_555 1_555
C16_2 C15_2 1_555 1_555
C17_2 C15_2 1_555 1_555
H9_2 C17_2 1_555 1_555
C18_2 C12_2 1_555 1_555
C19_2 C4_2 1_555 1_555
C20_2 C19_2 1_555 1_555
H10_2 C20_2 1_555 1_555
C21_2 C2_2 1_555 1_555
H11_2 C21_2 1_555 1_555
C10_2 C11_2 1_555 1_555
C17_2 C18_2 1_555 1_555
C18_2 C19_2 1_555 1_555
C20_2 C21_2 1_555 1_555
O2_2 La2 1_555 1_555
H1_2 O2_2 1_555 1_555
H2_2 O2_2 1_555 1_555
O3_2 C1_2 1_555 1_555
O9 La2 1_555 1_555
O11_2 La2 1_555 1_555
O12_2 La2 1_555 1_555
La2 O3_2 1_555 1_555
O12 C16_3 1_555 1_555
O13 C16_3 1_555 1_555
C14_3 C13_3 1_555 1_555
H8_3 C14_3 1_555 1_555
C15_3 C14_3 1_555 1_555
C16_3 C15_3 1_555 1_555
C2_3 C1_3 1_555 1_555
O3_3 C1_3 1_555 1_555
H9_3 C17_3 1_555 1_555
C18_3 C12_3 1_555 1_555
C19_3 C4_3 1_555 1_555
C20_3 C19_3 1_555 1_555
H10_3 C20_3 1_555 1_555
C21_3 C2_3 1_555 1_555
H11_3 C21_3 1_555 1_555
O8_2 La4 1_555 1_555
La4 O3_3 1_555 1_555
C17_3 C18_3 1_555 1_555
C18_3 C19_3 1_555 1_555
C20_3 C21_3 1_555 1_555
O11 C9_3 1_555 1_555
O1_2 La6 1_555 1_555
H3_3 C3_3 1_555 1_555
C6_3 C5_3 1_555 1_555
H4_3 C6_3 1_555 1_555
C7_3 C6_3 1_555 1_555
H5_3 C7_3 1_555 1_555
C8_3 C7_3 1_555 1_555
C10_3 C8_3 1_555 1_555
C11_3 C5_3 1_555 1_555
C10_3 C11_3 1_555 1_555
H1_3 O2_3 1_555 1_555
H2_3 O2_3 1_555 1_555
H3_4 C3_4 1_555 1_555
O10 C9_4 1_555 1_555
O11_2 C9_4 1_555 1_555
C6_4 C5_4 1_555 1_555
H4_4 C6_4 1_555 1_555
C7_4 C6_4 1_555 1_555
H5_4 C7_4 1_555 1_555
C8_4 C7_4 1_555 1_555
C9_4 C8_4 1_555 1_555
C10_4 C8_4 1_555 1_555
H6_4 C10_4 1_555 1_555
C11_4 C5_4 1_555 1_555
C10_4 C11_4 1_555 1_555
O12_2 C16_4 1_555 1_555
O14 C16_4 1_555 1_555
C13_4 C12_4 1_555 1_555
C14_4 C13_4 1_555 1_555
H8_4 C14_4 1_555 1_555
C15_4 C14_4 1_555 1_555
C16_4 C15_4 1_555 1_555
C17_4 C15_4 1_555 1_555
H9_4 C17_4 1_555 1_555
C18_4 C12_4 1_555 1_555
C19_4 C4_4 1_555 1_555
C20_4 C19_4 1_555 1_555
H10_4 C20_4 1_555 1_555
C21_4 C2_4 1_555 1_555
H11_4 C21_4 1_555 1_555
C17_4 C18_4 1_555 1_555
C18_4 C19_4 1_555 1_555
C20_4 C21_4 1_555 1_555
O3_4 C1_4 1_555 1_555
La6 O3_4 1_555 1_555
H1_4 O2_4 1_555 1_555
H2_4 O2_4 1_555 1_555

#END
