
###############################################################################
#
# This file contains modified crystal structure data generated from the
# MOF subset of the Cambridge Structural Database (CSD) v543 
# hosted by the Cambridge Crystallographic Data Centre (CCDC).
#
# This work is licensed under the Creative Commons
# Attribution-NonCommercial-ShareAlike 4.0 International License.
# To view a copy of this license, visit
# http://creativecommons.org/licenses/by-nc-sa/4.0/
# or send a letter to
# Creative Commons, PO Box 1866, Mountain View, CA 94042, USA.
#
# CIF created using the CSD Python API on 29 September 2022
# The structure has been converted into the P1 space group
# The structure has a 3D framework
# The original CSD entry HUSQES is in the orthorhombic crystal system
# The framework has been calculated to contain at least 10.0% void space
# The void calculation uses a probe of radius 1.32A, grid spacing 0.4
#
###############################################################################

data_HUSQES
_chemical_formula_moiety         '(C56 H72 Mo8 N24 O32)n'
_symmetry_cell_setting           triclinic
_symmetry_space_group_name_H-M   'P 1'
_symmetry_Int_Tables_number      1
_space_group_name_Hall           'P 1'
loop_
_symmetry_equiv_pos_site_id
_symmetry_equiv_pos_as_xyz
1 x,y,z
_cell_length_a                   15.1155(9)
_cell_length_b                   12.4471(7)
_cell_length_c                   12.4209(9)
_cell_angle_alpha                90
_cell_angle_beta                 90
_cell_angle_gamma                90
_cell_volume                     2336.92
loop_
_atom_site_label
_atom_site_type_symbol
_atom_site_fract_x
_atom_site_fract_y
_atom_site_fract_z
O3 O 0.0000 0.5000 0.0000
N1 N 0.21165(15) 0.2500 0.0395(2)
N2 N 0.07644(11) 0.30574(16) 0.06862(14)
C1 C 0.15825(14) 0.33677(19) 0.05091(19)
H1 H 0.1770 0.4087 0.0467
C3 C 0.30823(18) 0.2500 0.0145(2)
C7 C 0.44985(14) 0.1497(2) 0.03604(18)
H6 H 0.4780 0.0849 0.0670
C8 C 0.35027(14) 0.1487(2) 0.06282(17)
H7 H 0.3224 0.0844 0.0324
H8 H 0.3417 0.1478 0.1410
C9 C 0.4926(2) 0.2500 0.0848(3)
H9 H 0.5562 0.2500 0.0697
H10 H 0.4844 0.2500 0.1630
O6 O 0.0000 0.0000 0.0000
N5 N 0.07644(11) 0.19426(16) 0.06862(14)
C10 C 0.15825(14) 0.16323(19) 0.05091(19)
H11 H 0.1770 0.0913 0.0467
C13 C 0.44985(14) 0.3503(2) 0.03604(18)
H16 H 0.4780 0.4151 0.0670
C14 C 0.35027(14) 0.3513(2) 0.06282(17)
H17 H 0.3224 0.4156 0.0324
H18 H 0.3417 0.3522 0.1410
O3_2 O 0.0000 0.5000 1.0000
N3 N 0.42830(16) 0.2500 0.7470(2)
N4 N 0.43252(11) 0.30533(16) 0.58054(14)
C2 C 0.42996(15) 0.33648(19) 0.68136(17)
H2 H 0.4294 0.4084 0.7045
C4 C 0.3195(2) 0.2500 0.8921(2)
H3 H 0.2917 0.3130 0.8614
C5 C 0.4188(2) 0.2500 0.8665(2)
C6 C 0.46238(15) 0.1492(2) 0.91383(17)
H4 H 0.4352 0.0847 0.8829
H5 H 0.5256 0.1485 0.8963
Mo3 Mo 0.060694(11) 0.602843(14) 0.913933(13)
Mo4 Mo 0.439306(11) 0.397157(14) 0.413933(13)
Mo5 Mo 0.439306(11) 0.102843(14) 0.413933(13)
O6_2 O 0.0000 0.0000 1.0000
N6 N 0.43252(11) 0.19467(16) 0.58054(14)
C11 C 0.42996(15) 0.16352(19) 0.68136(17)
H12 H 0.4294 0.0916 0.7045
H13 H 0.2917 0.1870 0.8614
C12 C 0.46238(15) 0.3508(2) 0.91383(17)
H14 H 0.4352 0.4153 0.8829
H15 H 0.5256 0.3515 0.8963
O6_3 O 0.0000 1.0000 0.0000
O6_4 O 0.0000 1.0000 1.0000
Mo1 Mo 0.939306(11) 0.397157(14) 0.086067(13)
O1 O 0.91198(13) 0.2500 0.12276(17)
O2 O 0.96941(11) 0.44287(14) 0.21130(13)
O3_3 O 1.0000 0.5000 0.0000
O4 O 0.83423(10) 0.44338(14) 0.06935(14)
Mo2 Mo 0.939306(11) 0.102843(14) 0.086067(13)
O5 O 0.96941(11) 0.05713(14) 0.21130(13)
O6_5 O 1.0000 0.0000 0.0000
O7 O 0.83423(10) 0.05662(14) 0.06935(14)
O3_4 O 1.0000 0.5000 1.0000
O6_6 O 1.0000 0.0000 1.0000
N7 N 0.93252(11) 0.30533(16) 0.91946(14)
N8 N 0.93252(11) 0.19467(16) 0.91946(14)
O6_7 O 1.0000 1.0000 0.0000
O6_8 O 1.0000 1.0000 1.0000
O6_9 O 0.5000 0.0000 0.5000
Mo1_2 Mo 0.560694(11) 0.602843(14) 0.586067(13)
O1_2 O 0.58802(13) 0.7500 0.62276(17)
O2_2 O 0.53059(11) 0.55713(14) 0.71130(13)
O3_5 O 0.5000 0.5000 0.5000
O4_2 O 0.66577(10) 0.55662(14) 0.56935(14)
N1_2 N 0.28835(15) 0.7500 0.5395(2)
N2_2 N 0.42356(11) 0.69426(16) 0.56862(14)
N3_2 N 0.07170(16) 0.7500 0.2470(2)
N4_2 N 0.06748(11) 0.69467(16) 0.08054(14)
C1_2 C 0.34175(14) 0.66323(19) 0.55091(19)
H1_2 H 0.3230 0.5913 0.5467
C2_2 C 0.07004(15) 0.66352(19) 0.18136(17)
H2_2 H 0.0706 0.5916 0.2045
C3_2 C 0.19177(18) 0.7500 0.5145(2)
C4_2 C 0.1805(2) 0.7500 0.3921(2)
H3_2 H 0.2083 0.6870 0.3614
C5_2 C 0.0812(2) 0.7500 0.3665(2)
C6_2 C 0.03762(15) 0.8508(2) 0.41383(17)
H4_2 H 0.0648 0.9153 0.3829
C7_2 C 0.05015(14) 0.8503(2) 0.53604(18)
H6_2 H 0.0220 0.9151 0.5670
C8_2 C 0.14973(14) 0.8513(2) 0.56282(17)
H7_2 H 0.1776 0.9156 0.5324
H8_2 H 0.1583 0.8522 0.6410
C9_2 C 0.0074(2) 0.7500 0.5848(3)
H10_2 H 0.0156 0.7500 0.6630
Mo2_2 Mo 0.560694(11) 0.897157(14) 0.586067(13)
O5_2 O 0.53059(11) 0.94287(14) 0.71130(13)
O6_10 O 0.5000 1.0000 0.5000
O7_2 O 0.66577(10) 0.94338(14) 0.56935(14)
N5_2 N 0.42356(11) 0.80574(16) 0.56862(14)
N6_2 N 0.06748(11) 0.80533(16) 0.08054(14)
N7_2 N 0.56748(11) 0.69467(16) 0.41946(14)
N8_2 N 0.56748(11) 0.80533(16) 0.41946(14)
C10_2 C 0.34175(14) 0.83677(19) 0.55091(19)
H11_2 H 0.3230 0.9087 0.5467
C11_2 C 0.07004(15) 0.83648(19) 0.18136(17)
H12_2 H 0.0706 0.9084 0.2045
H13_2 H 0.2083 0.8130 0.3614
C12_2 C 0.03762(15) 0.6492(2) 0.41383(17)
H14_2 H 0.0648 0.5847 0.3829
C13_2 C 0.05015(14) 0.6497(2) 0.53604(18)
H16_2 H 0.0220 0.5849 0.5670
C14_2 C 0.14973(14) 0.6487(2) 0.56282(17)
H17_2 H 0.1776 0.5844 0.5324
H18_2 H 0.1583 0.6478 0.6410
Mo5_2 Mo 0.060694(11) 0.897157(14) 0.913933(13)
O1_3 O 0.41198(13) 0.2500 0.37724(17)
O2_3 O 0.46941(11) 0.05713(14) 0.28870(13)
O4_3 O 0.33423(10) 0.05662(14) 0.43065(14)
N1_3 N 0.71165(15) 0.2500 0.4605(2)
N2_3 N 0.57644(11) 0.19426(16) 0.43138(14)
N3_3 N 0.92830(16) 0.2500 0.7530(2)
C1_3 C 0.65825(14) 0.16323(19) 0.44909(19)
H1_3 H 0.6770 0.0913 0.4533
C2_3 C 0.92996(15) 0.16352(19) 0.81864(17)
H2_3 H 0.9294 0.0916 0.7955
C3_3 C 0.80823(18) 0.2500 0.4855(2)
C4_3 C 0.8195(2) 0.2500 0.6079(2)
H3_3 H 0.7917 0.1870 0.6386
C5_3 C 0.9188(2) 0.2500 0.6335(2)
C6_3 C 0.96238(15) 0.3508(2) 0.58617(17)
H4_3 H 0.9352 0.4153 0.6171
C7_3 C 0.94985(14) 0.3503(2) 0.46396(18)
H6_3 H 0.9780 0.4151 0.4330
C8_3 C 0.85027(14) 0.3513(2) 0.43718(17)
H7_3 H 0.8224 0.4156 0.4676
H8_3 H 0.8417 0.3522 0.3590
C9_3 C 0.9926(2) 0.2500 0.4152(3)
H10_3 H 0.9844 0.2500 0.3370
O5_3 O 0.46941(11) 0.44287(14) 0.28870(13)
O7_3 O 0.33423(10) 0.44338(14) 0.43065(14)
N5_3 N 0.57644(11) 0.30574(16) 0.43138(14)
C10_3 C 0.65825(14) 0.33677(19) 0.44909(19)
H11_3 H 0.6770 0.4087 0.4533
C11_3 C 0.92996(15) 0.33648(19) 0.81864(17)
H12_3 H 0.9294 0.4084 0.7955
H13_3 H 0.7917 0.3130 0.6386
C12_3 C 0.96238(15) 0.1492(2) 0.58617(17)
H14_3 H 0.9352 0.0847 0.6171
C13_3 C 0.94985(14) 0.1497(2) 0.46396(18)
H16_3 H 0.9780 0.0849 0.4330
C14_3 C 0.85027(14) 0.1487(2) 0.43718(17)
H17_3 H 0.8224 0.0844 0.4676
H18_3 H 0.8417 0.1478 0.3590
O1_4 O 0.08802(13) 0.7500 0.87724(17)
O2_4 O 0.03059(11) 0.94287(14) 0.78870(13)
O4_4 O 0.16577(10) 0.94338(14) 0.93065(14)
O5_4 O 0.03059(11) 0.55713(14) 0.78870(13)
O7_4 O 0.16577(10) 0.55662(14) 0.93065(14)
N3_4 N 0.57170(16) 0.7500 0.2530(2)
C2_4 C 0.57004(15) 0.83648(19) 0.31864(17)
H2_4 H 0.5706 0.9084 0.2955
C4_4 C 0.6805(2) 0.7500 0.1079(2)
H3_4 H 0.7083 0.8130 0.1386
C5_4 C 0.5812(2) 0.7500 0.1335(2)
C6_4 C 0.53762(15) 0.6492(2) 0.08617(17)
H4_4 H 0.5648 0.5847 0.1171
H5_2 H 0.4744 0.6485 0.1037
C11_4 C 0.57004(15) 0.66352(19) 0.31864(17)
H12_4 H 0.5706 0.5916 0.2955
H13_4 H 0.7083 0.6870 0.1386
C12_4 C 0.53762(15) 0.8508(2) 0.08617(17)
H14_4 H 0.5648 0.9153 0.1171
H15_2 H 0.4744 0.8515 0.1037
N1_4 N 0.78835(15) 0.7500 0.9605(2)
N2_4 N 0.92356(11) 0.80574(16) 0.93138(14)
C1_4 C 0.84175(14) 0.83677(19) 0.94909(19)
H1_4 H 0.8230 0.9087 0.9533
C3_4 C 0.69177(18) 0.7500 0.9855(2)
C7_4 C 0.55015(14) 0.6497(2) 0.96396(18)
H6_4 H 0.5220 0.5849 0.9330
C8_4 C 0.64973(14) 0.6487(2) 0.93718(17)
H7_4 H 0.6776 0.5844 0.9676
H8_4 H 0.6583 0.6478 0.8590
C9_4 C 0.5074(2) 0.7500 0.9152(3)
H9_2 H 0.4438 0.7500 0.9303
H10_4 H 0.5156 0.7500 0.8370
N5_4 N 0.92356(11) 0.69426(16) 0.93138(14)
C10_4 C 0.84175(14) 0.66323(19) 0.94909(19)
H11_4 H 0.8230 0.5913 0.9533
C13_4 C 0.55015(14) 0.8503(2) 0.96396(18)
H16_4 H 0.5220 0.9151 0.9330
C14_4 C 0.64973(14) 0.8513(2) 0.93718(17)
H17_4 H 0.6776 0.9156 0.9676
H18_4 H 0.6583 0.8522 0.8590
H5_3 H 0.9744 0.8515 0.3963
H9_3 H 0.9438 0.7500 0.5697
H15_3 H 0.9744 0.6485 0.3963
H5_4 H 0.0256 0.3515 0.6037
H9_4 H 0.0562 0.2500 0.4303
H15_4 H 0.0256 0.1485 0.6037
loop_
_geom_bond_atom_site_label_1
_geom_bond_atom_site_label_2
_geom_bond_site_symmetry_1
_geom_bond_site_symmetry_2
N1 C1 1_555 1_555
C1 N2 1_555 1_555
H1 C1 1_555 1_555
C3 N1 1_555 1_555
H6 C7 1_555 1_555
C8 C3 1_555 1_555
H7 C8 1_555 1_555
H8 C8 1_555 1_555
C9 C7 1_555 1_555
H9 C9 1_555 1_555
H10 C9 1_555 1_555
N5 N2 1_555 1_555
C10 N1 1_555 1_555
H11 C10 1_555 1_555
C13 C9 1_555 1_555
H16 C13 1_555 1_555
C14 C3 1_555 1_555
H17 C14 1_555 1_555
H18 C14 1_555 1_555
C7 C8 1_555 1_555
N5 C10 1_555 1_555
C13 C14 1_555 1_555
N3 C2 1_555 1_555
N4 C2 1_555 1_555
C2 H2 1_555 1_555
H3 C4 1_555 1_555
C5 N3 1_555 1_555
C6 C5 1_555 1_555
H4 C6 1_555 1_555
H5 C6 1_555 1_555
Mo3 O3_2 1_555 1_555
Mo4 N4 1_555 1_555
Mo5 N6 1_555 1_555
N6 N4 1_555 1_555
C11 N3 1_555 1_555
H12 C11 1_555 1_555
H13 C4 1_555 1_555
C12 C5 1_555 1_555
H14 C12 1_555 1_555
H15 C12 1_555 1_555
C4 C5 1_555 1_555
N6 C11 1_555 1_555
Mo1 O1 1_555 1_555
O1 Mo2 1_555 1_555
O2 Mo1 1_555 1_555
O3_3 Mo1 1_555 1_555
O4 Mo1 1_555 1_555
Mo2 O5 1_555 1_555
O6_5 Mo2 1_555 1_555
O7 Mo2 1_555 1_555
N7 N8 1_555 1_555
Mo1_2 O1_2 1_555 1_555
O1_2 Mo2_2 1_555 1_555
O2_2 Mo1_2 1_555 1_555
O3_5 Mo1_2 1_555 1_555
O4_2 Mo1_2 1_555 1_555
N1_2 C1_2 1_555 1_555
N2_2 Mo1_2 1_555 1_555
N3_2 C2_2 1_555 1_555
N4_2 C2_2 1_555 1_555
C1_2 N2_2 1_555 1_555
H1_2 C1_2 1_555 1_555
C2_2 H2_2 1_555 1_555
C3_2 N1_2 1_555 1_555
C4_2 C3_2 1_555 1_555
H3_2 C4_2 1_555 1_555
C5_2 N3_2 1_555 1_555
C6_2 C5_2 1_555 1_555
H4_2 C6_2 1_555 1_555
C7_2 C6_2 1_555 1_555
H6_2 C7_2 1_555 1_555
C8_2 C3_2 1_555 1_555
H7_2 C8_2 1_555 1_555
H8_2 C8_2 1_555 1_555
C9_2 C7_2 1_555 1_555
H10_2 C9_2 1_555 1_555
Mo2_2 O5_2 1_555 1_555
Mo4 O3_5 1_555 1_555
O6_10 Mo2_2 1_555 1_555
O7_2 Mo2_2 1_555 1_555
N5_2 N2_2 1_555 1_555
N6_2 N4_2 1_555 1_555
N7_2 Mo1_2 1_555 1_555
N8_2 Mo2_2 1_555 1_555
C10_2 N1_2 1_555 1_555
H11_2 C10_2 1_555 1_555
C11_2 N3_2 1_555 1_555
H12_2 C11_2 1_555 1_555
H13_2 C4_2 1_555 1_555
C12_2 C5_2 1_555 1_555
H14_2 C12_2 1_555 1_555
C13_2 C9_2 1_555 1_555
H16_2 C13_2 1_555 1_555
C14_2 C3_2 1_555 1_555
H17_2 C14_2 1_555 1_555
H18_2 C14_2 1_555 1_555
C4_2 C5_2 1_555 1_555
C7_2 C8_2 1_555 1_555
Mo2_2 N5_2 1_555 1_555
N5_2 C10_2 1_555 1_555
N6_2 C11_2 1_555 1_555
N7_2 N8_2 1_555 1_555
C12_2 C13_2 1_555 1_555
C13_2 C14_2 1_555 1_555
Mo5 O1_3 1_555 1_555
O1_3 Mo4 1_555 1_555
O2_3 Mo5 1_555 1_555
O6_9 Mo5 1_555 1_555
O4_3 Mo5 1_555 1_555
N1_3 C1_3 1_555 1_555
N2_3 Mo5 1_555 1_555
N3_3 C2_3 1_555 1_555
N8 C2_3 1_555 1_555
C1_3 N2_3 1_555 1_555
H1_3 C1_3 1_555 1_555
C2_3 H2_3 1_555 1_555
C3_3 N1_3 1_555 1_555
C4_3 C3_3 1_555 1_555
H3_3 C4_3 1_555 1_555
C5_3 N3_3 1_555 1_555
C6_3 C5_3 1_555 1_555
H4_3 C6_3 1_555 1_555
C7_3 C6_3 1_555 1_555
H6_3 C7_3 1_555 1_555
C8_3 C3_3 1_555 1_555
H7_3 C8_3 1_555 1_555
H8_3 C8_3 1_555 1_555
C9_3 C7_3 1_555 1_555
H10_3 C9_3 1_555 1_555
Mo4 O5_3 1_555 1_555
O7_3 Mo4 1_555 1_555
N5_3 N2_3 1_555 1_555
C10_3 N1_3 1_555 1_555
H11_3 C10_3 1_555 1_555
C11_3 N3_3 1_555 1_555
H12_3 C11_3 1_555 1_555
H13_3 C4_3 1_555 1_555
C12_3 C5_3 1_555 1_555
H14_3 C12_3 1_555 1_555
C13_3 C9_3 1_555 1_555
H16_3 C13_3 1_555 1_555
C14_3 C3_3 1_555 1_555
H17_3 C14_3 1_555 1_555
H18_3 C14_3 1_555 1_555
C4_3 C5_3 1_555 1_555
C7_3 C8_3 1_555 1_555
Mo4 N5_3 1_555 1_555
N5_3 C10_3 1_555 1_555
N7 C11_3 1_555 1_555
C12_3 C13_3 1_555 1_555
C13_3 C14_3 1_555 1_555
Mo5_2 O1_4 1_555 1_555
O1_4 Mo3 1_555 1_555
O2_4 Mo5_2 1_555 1_555
O6_4 Mo5_2 1_555 1_555
O4_4 Mo5_2 1_555 1_555
Mo3 O5_4 1_555 1_555
O7_4 Mo3 1_555 1_555
N3_4 C2_4 1_555 1_555
N8_2 C2_4 1_555 1_555
C2_4 H2_4 1_555 1_555
H3_4 C4_4 1_555 1_555
C5_4 N3_4 1_555 1_555
C6_4 C5_4 1_555 1_555
H4_4 C6_4 1_555 1_555
H5_2 C6_4 1_555 1_555
C11_4 N3_4 1_555 1_555
H12_4 C11_4 1_555 1_555
H13_4 C4_4 1_555 1_555
C12_4 C5_4 1_555 1_555
H14_4 C12_4 1_555 1_555
H15_2 C12_4 1_555 1_555
C4_4 C5_4 1_555 1_555
N7_2 C11_4 1_555 1_555
N1_4 C1_4 1_555 1_555
C1_4 N2_4 1_555 1_555
H1_4 C1_4 1_555 1_555
C3_4 N1_4 1_555 1_555
H6_4 C7_4 1_555 1_555
C8_4 C3_4 1_555 1_555
H7_4 C8_4 1_555 1_555
H8_4 C8_4 1_555 1_555
C9_4 C7_4 1_555 1_555
H9_2 C9_4 1_555 1_555
H10_4 C9_4 1_555 1_555
N5_4 N2_4 1_555 1_555
C10_4 N1_4 1_555 1_555
H11_4 C10_4 1_555 1_555
C13_4 C9_4 1_555 1_555
H16_4 C13_4 1_555 1_555
C14_4 C3_4 1_555 1_555
H17_4 C14_4 1_555 1_555
H18_4 C14_4 1_555 1_555
C7_4 C8_4 1_555 1_555
N5_4 C10_4 1_555 1_555
C13_4 C14_4 1_555 1_555

#END
