
###############################################################################
#
# This file contains modified crystal structure data generated from the
# MOF subset of the Cambridge Structural Database (CSD) v543 
# hosted by the Cambridge Crystallographic Data Centre (CCDC).
#
# This work is licensed under the Creative Commons
# Attribution-NonCommercial-ShareAlike 4.0 International License.
# To view a copy of this license, visit
# http://creativecommons.org/licenses/by-nc-sa/4.0/
# or send a letter to
# Creative Commons, PO Box 1866, Mountain View, CA 94042, USA.
#
# CIF created using the CSD Python API on 29 September 2022
# The structure has been converted into the P1 space group
# The structure has a 3D framework
# The original CSD entry HUTTIA is in the orthorhombic crystal system
# The framework has been calculated to contain at least 10.0% void space
# The void calculation uses a probe of radius 1.32A, grid spacing 0.4
#
###############################################################################

data_HUTTIA
_chemical_formula_moiety         '(C184 H104 F48 N16 O32 Zn8)n'
_symmetry_cell_setting           triclinic
_symmetry_space_group_name_H-M   'P 1'
_symmetry_Int_Tables_number      1
_space_group_name_Hall           'P 1'
loop_
_symmetry_equiv_pos_site_id
_symmetry_equiv_pos_as_xyz
1 x,y,z
_cell_length_a                   22.670(4)
_cell_length_b                   16.086(3)
_cell_length_c                   15.833(3)
_cell_angle_alpha                90
_cell_angle_beta                 90
_cell_angle_gamma                90
_cell_volume                     5773.81
loop_
_atom_site_label
_atom_site_type_symbol
_atom_site_fract_x
_atom_site_fract_y
_atom_site_fract_z
F4 F 0.09023(17) 0.1193(2) 0.0232(3)
F5 F 0.0134(2) 0.0943(2) 0.0982(3)
F6 F 0.06950(19) 0.1976(2) 0.1294(3)
C8 C 0.0099(3) 0.2136(3) 0.0057(5)
C10 C 0.0452(3) 0.1552(4) 0.0641(5)
C12 C 0.0822(3) 0.3330(4) 0.0033(5)
H5 H 0.0718 0.3424 0.0607
O3 O 0.2008(2) 0.4043(3) 0.7666(3)
O4 O 0.1988(2) 0.4915(2) 0.8763(3)
F3 F 0.00460(18) 0.0984(2) 0.9092(3)
C11 C 0.0556(3) 0.2679(4) 0.9596(4)
C13 C 0.1238(3) 0.3847(3) 0.9651(5)
H6 H 0.1410 0.4294 0.9957
C14 C 0.1397(3) 0.3703(3) 0.8821(4)
C15 C 0.1145(3) 0.3056(4) 0.8368(4)
H7 H 0.1256 0.2958 0.7798
C16 C 0.0728(3) 0.2553(4) 0.8758(4)
H8 H 0.0554 0.2112 0.8447
C17 C 0.1837(3) 0.4262(4) 0.8380(4)
Zn4 Zn 0.25923(3) 0.56107(4) 0.81233(4)
Zn6 Zn 0.25228(3) 0.44472(4) 0.66544(4)
Zn1 Zn 0.74077(3) 0.43893(4) 0.31233(4)
Zn2 Zn 0.74772(3) 0.55528(4) 0.16544(4)
O1 O 0.8090(2) 0.3959(3) 0.2371(3)
O2 O 0.8150(2) 0.4833(3) 0.1271(3)
O5 O 0.6774(2) 0.5983(3) 0.2335(3)
O6 O 0.6786(2) 0.5212(3) 0.3523(3)
O7 O 0.3065(2) 0.5234(2) 0.6031(3)
O8 O 0.3148(2) 0.6027(3) 0.7177(3)
N1 N 0.7312(2) 0.3329(3) 0.3815(3)
N2 N 0.7218(3) 0.0318(3) 0.4591(4)
F7 F 0.5492(2) 0.8233(3) 0.5790(3)
F8 F 0.5668(2) 0.9003(2) 0.4719(3)
F9 F 0.4907(2) 0.9255(2) 0.5495(3)
F10 F 0.4831(2) 0.9180(2) 0.3595(3)
F11 F 0.40593(19) 0.8972(2) 0.4348(3)
F12 F 0.42733(18) 0.8125(2) 0.3346(3)
C1 C 0.8303(3) 0.4203(3) 0.1662(5)
C2 C 0.8770(3) 0.3677(4) 0.1293(4)
C3 C 0.8979(3) 0.2968(4) 0.1683(5)
H1 H 0.8823 0.2814 0.2218
C4 C 0.9411(3) 0.2472(4) 0.1313(4)
H2 H 0.9543 0.1983 0.1592
C5 C 0.9648(3) 0.2692(4) 0.0537(4)
C6 C 0.9447(3) 0.3414(4) 0.0137(5)
C7 C 0.9016(3) 0.3887(4) 0.0505(5)
H4 H 0.8879 0.4370 0.0221
C18 C 0.6616(2) 0.5815(3) 0.3071(5)
C19 C 0.6155(3) 0.6393(4) 0.3462(4)
C20 C 0.5954(3) 0.7064(4) 0.2998(5)
H9 H 0.6106 0.7158 0.2447
C21 C 0.5530(3) 0.7604(4) 0.3329(4)
H10 H 0.5389 0.8058 0.3003
C22 C 0.5316(3) 0.7467(3) 0.4152(4)
C23 C 0.5539(3) 0.6795(3) 0.4621(4)
H11 H 0.5404 0.6706 0.5181
C24 C 0.5952(3) 0.6262(4) 0.4278(4)
H12 H 0.6096 0.5807 0.4599
C25 C 0.4864(3) 0.8044(3) 0.4584(4)
C26 C 0.5233(3) 0.8635(4) 0.5167(5)
C27 C 0.4511(3) 0.8576(4) 0.3956(5)
C28 C 0.4425(3) 0.7516(4) 0.5100(5)
C29 C 0.4160(3) 0.6845(3) 0.4681(4)
H13 H 0.4246 0.6749 0.4102
C30 C 0.3777(3) 0.6326(4) 0.5100(4)
H14 H 0.3599 0.5875 0.4808
C31 C 0.3648(3) 0.6457(3) 0.5951(5)
C32 C 0.3892(3) 0.7132(4) 0.6346(4)
H15 H 0.3796 0.7238 0.6920
C33 C 0.4275(3) 0.7664(4) 0.5934(5)
H16 H 0.4436 0.8130 0.6223
C34 C 0.3259(3) 0.5864(4) 0.6420(4)
C35 C 0.7259(4) 0.2630(4) 0.3369(5)
H17 H 0.7266 0.2665 0.2770
C36 C 0.7195(3) 0.1856(4) 0.3742(5)
H18 H 0.7136 0.1375 0.3405
C37 C 0.7218(3) 0.1797(4) 0.4616(5)
C38 C 0.7273(3) 0.2522(4) 0.5072(5)
H19 H 0.7281 0.2506 0.5672
C39 C 0.7317(3) 0.3288(4) 0.4647(4)
H20 H 0.7351 0.3785 0.4966
C40 C 0.7206(3) 0.0983(4) 0.5035(4)
H21 H 0.7191 0.0950 0.5633
O9 O 0.7992(2) 0.5957(3) 0.2666(3)
O10 O 0.8012(2) 0.5085(2) 0.3763(3)
O11 O 0.6935(2) 0.4766(2) 0.1031(3)
O12 O 0.6852(2) 0.3973(3) 0.2177(3)
N5 N 0.7577(2) 0.6613(3) 0.0964(4)
F7_2 F 0.4508(2) 0.1767(3) 0.0790(3)
F9_2 F 0.5093(2) 0.0745(2) 0.0495(3)
H11_2 H 0.4596 0.3294 0.0181
C26_2 C 0.4767(3) 0.1365(4) 0.0167(5)
C28_2 C 0.5575(3) 0.2484(4) 0.0100(5)
C30_2 C 0.6223(3) 0.3674(4) 0.0100(4)
C31_2 C 0.6352(3) 0.3543(3) 0.0951(5)
C32_2 C 0.6108(3) 0.2868(4) 0.1346(4)
H15_2 H 0.6204 0.2762 0.1920
C33_2 C 0.5725(3) 0.2336(4) 0.0934(5)
H16_2 H 0.5564 0.1870 0.1223
C34_2 C 0.6741(3) 0.4136(4) 0.1420(4)
C38_2 C 0.2727(3) 0.7478(4) 0.0072(5)
H19_2 H 0.2719 0.7494 0.0672
C40_2 C 0.2794(3) 0.9017(4) 0.0035(4)
H21_2 H 0.2809 0.9050 0.0633
O1_2 O 0.1910(2) 0.6041(3) 0.7371(3)
O2_2 O 0.1850(2) 0.5167(3) 0.6271(3)
O5_2 O 0.3226(2) 0.4017(3) 0.7335(3)
O6_2 O 0.3214(2) 0.4788(3) 0.8523(3)
N1_2 N 0.2688(2) 0.6671(3) 0.8815(3)
N2_2 N 0.2782(3) 0.9682(3) 0.9591(4)
F1 F 0.07110(18) 0.8781(3) 0.4855(3)
F2 F 0.05107(19) 0.7955(3) 0.3835(3)
F8_2 F 0.4332(2) 0.0997(2) 0.9719(3)
F10_2 F 0.5169(2) 0.0820(2) 0.8595(3)
F11_2 F 0.59407(19) 0.1028(2) 0.9348(3)
F12_2 F 0.57267(18) 0.1875(2) 0.8346(3)
C1_2 C 0.1697(3) 0.5797(3) 0.6662(5)
C2_2 C 0.1230(3) 0.6323(4) 0.6293(4)
C3_2 C 0.1021(3) 0.7032(4) 0.6683(5)
H1_2 H 0.1177 0.7186 0.7218
C4_2 C 0.0589(3) 0.7528(4) 0.6313(4)
H2_2 H 0.0457 0.8017 0.6592
C5_2 C 0.0352(3) 0.7308(4) 0.5537(4)
C6_2 C 0.0553(3) 0.6586(4) 0.5137(5)
H3 H 0.0390 0.6423 0.4610
C7_2 C 0.0984(3) 0.6113(4) 0.5505(5)
H4_2 H 0.1121 0.5630 0.5221
C9 C 0.0261(3) 0.8411(4) 0.4448(5)
C18_2 C 0.3384(2) 0.4185(3) 0.8071(5)
C19_2 C 0.3845(3) 0.3607(4) 0.8462(4)
C20_2 C 0.4046(3) 0.2936(4) 0.7998(5)
H9_2 H 0.3894 0.2842 0.7447
C21_2 C 0.4470(3) 0.2396(4) 0.8329(4)
H10_2 H 0.4611 0.1942 0.8003
C22_2 C 0.4684(3) 0.2533(3) 0.9152(4)
C23_2 C 0.4461(3) 0.3205(3) 0.9621(4)
C24_2 C 0.4048(3) 0.3738(4) 0.9278(4)
H12_2 H 0.3904 0.4193 0.9599
C25_2 C 0.5136(3) 0.1956(3) 0.9584(4)
C27_2 C 0.5489(3) 0.1424(4) 0.8956(5)
C29_2 C 0.5840(3) 0.3155(3) 0.9681(4)
H13_2 H 0.5754 0.3251 0.9102
H14_2 H 0.6401 0.4125 0.9808
C35_2 C 0.2741(4) 0.7370(4) 0.8369(5)
H17_2 H 0.2734 0.7335 0.7770
C36_2 C 0.2805(3) 0.8144(4) 0.8742(5)
H18_2 H 0.2864 0.8625 0.8405
C37_2 C 0.2782(3) 0.8203(4) 0.9616(5)
C39_2 C 0.2683(3) 0.6712(4) 0.9647(4)
H20_2 H 0.2649 0.6215 0.9966
N5_2 N 0.2423(2) 0.3387(3) 0.5964(4)
F3_2 F 0.99540(18) 0.9016(2) 0.4092(3)
F4_2 F 0.90977(17) 0.8807(2) 0.5232(3)
F5_2 F 0.9866(2) 0.9057(2) 0.5982(3)
F6_2 F 0.93050(19) 0.8024(2) 0.6294(3)
C8_2 C 0.9901(3) 0.7864(3) 0.5057(5)
C10_2 C 0.9548(3) 0.8448(4) 0.5641(5)
C11_2 C 0.9444(3) 0.7321(4) 0.4596(4)
C12_2 C 0.9178(3) 0.6670(4) 0.5033(5)
H5_2 H 0.9282 0.6576 0.5607
C13_2 C 0.8762(3) 0.6153(3) 0.4651(5)
H6_2 H 0.8590 0.5706 0.4957
C14_2 C 0.8603(3) 0.6297(3) 0.3821(4)
C15_2 C 0.8855(3) 0.6944(4) 0.3368(4)
H7_2 H 0.8744 0.7042 0.2798
C16_2 C 0.9272(3) 0.7447(4) 0.3758(4)
H8_2 H 0.9446 0.7888 0.3447
C17_2 C 0.8163(3) 0.5738(4) 0.3380(4)
N3 N 0.2234(3) 0.0388(3) 0.5126(4)
C41 C 0.2264(3) 0.1074(4) 0.4705(5)
H22 H 0.2254 0.1061 0.4105
C42 C 0.2314(3) 0.1875(4) 0.5147(5)
C43 C 0.2287(3) 0.2618(4) 0.4706(5)
H23 H 0.2234 0.2614 0.4111
C44 C 0.2337(3) 0.3356(4) 0.5125(5)
H24 H 0.2310 0.3860 0.4815
C45 C 0.2448(4) 0.2656(4) 0.6390(5)
H25 H 0.2506 0.2670 0.6984
C46 C 0.2394(4) 0.1906(4) 0.6007(5)
H26 H 0.2412 0.1408 0.6329
N3_2 N 0.7766(3) 0.9612(3) 0.0126(4)
C42_2 C 0.7686(3) 0.8125(4) 0.0147(5)
C44_2 C 0.7663(3) 0.6644(4) 0.0125(5)
C45_2 C 0.7552(4) 0.7344(4) 0.1390(5)
H25_2 H 0.7494 0.7330 0.1984
C46_2 C 0.7606(4) 0.8094(4) 0.1007(5)
H26_2 H 0.7588 0.8592 0.1329
F1_2 F 0.92890(18) 0.1219(3) 0.9855(3)
F2_2 F 0.94893(19) 0.2045(3) 0.8835(3)
H3_2 H 0.9610 0.3577 0.9610
C9_2 C 0.9739(3) 0.1589(4) 0.9448(5)
N3_3 N 0.7234(3) 0.9612(3) 0.5126(4)
N4 N 0.7423(2) 0.6613(3) 0.5964(4)
C41_2 C 0.7264(3) 0.8926(4) 0.4705(5)
H22_2 H 0.7254 0.8939 0.4105
C42_3 C 0.7314(3) 0.8125(4) 0.5147(5)
C43_2 C 0.7287(3) 0.7382(4) 0.4706(5)
H23_2 H 0.7234 0.7386 0.4111
C44_3 C 0.7337(3) 0.6644(4) 0.5125(5)
H24_2 H 0.7310 0.6140 0.4815
C45_3 C 0.7448(4) 0.7344(4) 0.6390(5)
H25_3 H 0.7506 0.7330 0.6984
C46_3 C 0.7394(4) 0.8094(4) 0.6007(5)
H26_3 H 0.7412 0.8592 0.6329
Zn7 Zn 0.75228(3) 0.55528(4) 0.66544(4)
N3_4 N 0.2766(3) 0.0388(3) 0.0126(4)
N4_2 N 0.2577(2) 0.3387(3) 0.0964(4)
C42_4 C 0.2686(3) 0.1875(4) 0.0147(5)
C44_4 C 0.2663(3) 0.3356(4) 0.0125(5)
C45_4 C 0.2552(4) 0.2656(4) 0.1390(5)
H25_4 H 0.2494 0.2670 0.1984
C46_4 C 0.2606(4) 0.1906(4) 0.1007(5)
H26_4 H 0.2588 0.1408 0.1329
Zn7_2 Zn 0.24772(3) 0.44472(4) 0.16544(4)
Zn1_2 Zn 0.24077(3) 0.56107(4) 0.31233(4)
O1_3 O 0.3090(2) 0.6041(3) 0.2371(3)
O2_3 O 0.3150(2) 0.5167(3) 0.1271(3)
O5_3 O 0.1774(2) 0.4017(3) 0.2335(3)
O6_3 O 0.1786(2) 0.4788(3) 0.3523(3)
N1_3 N 0.2312(2) 0.6671(3) 0.3815(3)
N2_3 N 0.2218(3) 0.9682(3) 0.4591(4)
F4_3 F 0.59023(17) 0.8807(2) 0.0232(3)
F5_3 F 0.5134(2) 0.9057(2) 0.0982(3)
F6_3 F 0.56950(19) 0.8024(2) 0.1294(3)
F7_3 F 0.0492(2) 0.1767(3) 0.5790(3)
F8_3 F 0.0668(2) 0.0997(2) 0.4719(3)
C1_3 C 0.3303(3) 0.5797(3) 0.1662(5)
C2_3 C 0.3770(3) 0.6323(4) 0.1293(4)
C3_3 C 0.3979(3) 0.7032(4) 0.1683(5)
H1_3 H 0.3823 0.7186 0.2218
C4_3 C 0.4411(3) 0.7528(4) 0.1313(4)
H2_3 H 0.4543 0.8017 0.1592
C5_3 C 0.4648(3) 0.7308(4) 0.0537(4)
C6_3 C 0.4447(3) 0.6586(4) 0.0137(5)
C7_3 C 0.4016(3) 0.6113(4) 0.0505(5)
H4_3 H 0.3879 0.5630 0.0221
C8_3 C 0.5099(3) 0.7864(3) 0.0057(5)
C10_3 C 0.5452(3) 0.8448(4) 0.0641(5)
C12_3 C 0.5822(3) 0.6670(4) 0.0033(5)
H5_3 H 0.5718 0.6576 0.0607
C18_3 C 0.1616(2) 0.4185(3) 0.3071(5)
C19_3 C 0.1155(3) 0.3607(4) 0.3462(4)
C20_3 C 0.0954(3) 0.2936(4) 0.2998(5)
H9_3 H 0.1106 0.2842 0.2447
C21_3 C 0.0530(3) 0.2396(4) 0.3329(4)
H10_3 H 0.0389 0.1942 0.3003
C22_3 C 0.0316(3) 0.2533(3) 0.4152(4)
C23_3 C 0.0539(3) 0.3205(3) 0.4621(4)
H11_3 H 0.0404 0.3294 0.5181
C24_3 C 0.0952(3) 0.3738(4) 0.4278(4)
H12_3 H 0.1096 0.4193 0.4599
C26_3 C 0.0233(3) 0.1365(4) 0.5167(5)
C35_3 C 0.2259(4) 0.7370(4) 0.3369(5)
H17_3 H 0.2266 0.7335 0.2770
C36_3 C 0.2195(3) 0.8144(4) 0.3742(5)
H18_3 H 0.2136 0.8625 0.3405
C37_3 C 0.2218(3) 0.8203(4) 0.4616(5)
C38_3 C 0.2273(3) 0.7478(4) 0.5072(5)
H19_3 H 0.2281 0.7494 0.5672
C39_3 C 0.2317(3) 0.6712(4) 0.4647(4)
H20_3 H 0.2351 0.6215 0.4966
C40_3 C 0.2206(3) 0.9017(4) 0.5035(4)
H21_3 H 0.2191 0.9050 0.5633
O9_2 O 0.2992(2) 0.4043(3) 0.2666(3)
O10_2 O 0.3012(2) 0.4915(2) 0.3763(3)
O11_2 O 0.1935(2) 0.5234(2) 0.1031(3)
O12_2 O 0.1852(2) 0.6027(3) 0.2177(3)
O3_2 O 0.7008(2) 0.5957(3) 0.7666(3)
O4_2 O 0.6988(2) 0.5085(2) 0.8763(3)
F1_3 F 0.42890(18) 0.8781(3) 0.9855(3)
F2_3 F 0.44893(19) 0.7955(3) 0.8835(3)
F3_3 F 0.50460(18) 0.9016(2) 0.9092(3)
H3_3 H 0.4610 0.6423 0.9610
C9_3 C 0.4739(3) 0.8411(4) 0.9448(5)
C11_3 C 0.5556(3) 0.7321(4) 0.9596(4)
C13_3 C 0.6238(3) 0.6153(3) 0.9651(5)
H6_3 H 0.6410 0.5706 0.9957
C14_3 C 0.6397(3) 0.6297(3) 0.8821(4)
C15_3 C 0.6145(3) 0.6944(4) 0.8368(4)
H7_3 H 0.6256 0.7042 0.7798
C16_3 C 0.5728(3) 0.7447(4) 0.8758(4)
H8_3 H 0.5554 0.7888 0.8447
C17_3 C 0.6837(3) 0.5738(4) 0.8380(4)
Zn4_2 Zn 0.75923(3) 0.43893(4) 0.81233(4)
O7_2 O 0.8065(2) 0.4766(2) 0.6031(3)
O8_2 O 0.8148(2) 0.3973(3) 0.7177(3)
F9_3 F 0.9907(2) 0.0745(2) 0.5495(3)
F10_3 F 0.9831(2) 0.0820(2) 0.3595(3)
F11_3 F 0.90593(19) 0.1028(2) 0.4348(3)
F12_3 F 0.92733(18) 0.1875(2) 0.3346(3)
C25_3 C 0.9864(3) 0.1956(3) 0.4584(4)
C27_3 C 0.9511(3) 0.1424(4) 0.3956(5)
C28_3 C 0.9425(3) 0.2484(4) 0.5100(5)
C29_3 C 0.9160(3) 0.3155(3) 0.4681(4)
H13_3 H 0.9246 0.3251 0.4102
C30_3 C 0.8777(3) 0.3674(4) 0.5100(4)
H14_3 H 0.8599 0.4125 0.4808
C31_3 C 0.8648(3) 0.3543(3) 0.5951(5)
C32_3 C 0.8892(3) 0.2868(4) 0.6346(4)
H15_3 H 0.8796 0.2762 0.6920
C33_3 C 0.9275(3) 0.2336(4) 0.5934(5)
H16_3 H 0.9436 0.1870 0.6223
C34_3 C 0.8259(3) 0.4136(4) 0.6420(4)
F9_4 F 0.0093(2) 0.9255(2) 0.0495(3)
C28_4 C 0.0575(3) 0.7516(4) 0.0100(5)
C30_4 C 0.1223(3) 0.6326(4) 0.0100(4)
C31_4 C 0.1352(3) 0.6457(3) 0.0951(5)
C32_4 C 0.1108(3) 0.7132(4) 0.1346(4)
H15_4 H 0.1204 0.7238 0.1920
C33_4 C 0.0725(3) 0.7664(4) 0.0934(5)
H16_4 H 0.0564 0.8130 0.1223
C34_4 C 0.1741(3) 0.5864(4) 0.1420(4)
O1_4 O 0.6910(2) 0.3959(3) 0.7371(3)
O2_4 O 0.6850(2) 0.4833(3) 0.6271(3)
O5_4 O 0.8226(2) 0.5983(3) 0.7335(3)
O6_4 O 0.8214(2) 0.5212(3) 0.8523(3)
N1_4 N 0.7688(2) 0.3329(3) 0.8815(3)
N2_4 N 0.7782(3) 0.0318(3) 0.9591(4)
F1_4 F 0.57110(18) 0.1219(3) 0.4855(3)
F2_4 F 0.55107(19) 0.2045(3) 0.3835(3)
F3_4 F 0.49540(18) 0.0984(2) 0.4092(3)
F4_4 F 0.40977(17) 0.1193(2) 0.5232(3)
F5_4 F 0.4866(2) 0.0943(2) 0.5982(3)
F6_4 F 0.43050(19) 0.1976(2) 0.6294(3)
F8_4 F 0.9332(2) 0.9003(2) 0.9719(3)
C1_4 C 0.6697(3) 0.4203(3) 0.6662(5)
C2_4 C 0.6230(3) 0.3677(4) 0.6293(4)
C3_4 C 0.6021(3) 0.2968(4) 0.6683(5)
H1_4 H 0.6177 0.2814 0.7218
C4_4 C 0.5589(3) 0.2472(4) 0.6313(4)
H2_4 H 0.5457 0.1983 0.6592
C5_4 C 0.5352(3) 0.2692(4) 0.5537(4)
C6_4 C 0.5553(3) 0.3414(4) 0.5137(5)
H3_4 H 0.5390 0.3577 0.4610
C7_4 C 0.5984(3) 0.3887(4) 0.5505(5)
H4_4 H 0.6121 0.4370 0.5221
C8_4 C 0.4901(3) 0.2136(3) 0.5057(5)
C9_4 C 0.5261(3) 0.1589(4) 0.4448(5)
C10_4 C 0.4548(3) 0.1552(4) 0.5641(5)
C11_4 C 0.4444(3) 0.2679(4) 0.4596(4)
C12_4 C 0.4178(3) 0.3330(4) 0.5033(5)
H5_4 H 0.4282 0.3424 0.5607
C13_4 C 0.3762(3) 0.3847(3) 0.4651(5)
H6_4 H 0.3590 0.4294 0.4957
C14_4 C 0.3603(3) 0.3703(3) 0.3821(4)
C15_4 C 0.3855(3) 0.3056(4) 0.3368(4)
H7_4 H 0.3744 0.2958 0.2798
C16_4 C 0.4272(3) 0.2553(4) 0.3758(4)
H8_4 H 0.4446 0.2112 0.3447
C17_4 C 0.3163(3) 0.4262(4) 0.3380(4)
C18_4 C 0.8384(2) 0.5815(3) 0.8071(5)
C19_4 C 0.8845(3) 0.6393(4) 0.8462(4)
C20_4 C 0.9046(3) 0.7064(4) 0.7998(5)
H9_4 H 0.8894 0.7158 0.7447
C21_4 C 0.9470(3) 0.7604(4) 0.8329(4)
H10_4 H 0.9611 0.8058 0.8003
C22_4 C 0.9684(3) 0.7467(3) 0.9152(4)
C23_4 C 0.9461(3) 0.6795(3) 0.9621(4)
C24_4 C 0.9048(3) 0.6262(4) 0.9278(4)
H12_4 H 0.8904 0.5807 0.9599
C35_4 C 0.7741(4) 0.2630(4) 0.8369(5)
H17_4 H 0.7734 0.2665 0.7770
C36_4 C 0.7805(3) 0.1856(4) 0.8742(5)
H18_4 H 0.7864 0.1375 0.8405
C37_4 C 0.7782(3) 0.1797(4) 0.9616(5)
C39_4 C 0.7683(3) 0.3288(4) 0.9647(4)
H20_4 H 0.7649 0.3785 0.9966
C41_3 C 0.2736(3) 0.1074(4) 0.9705(5)
H22_3 H 0.2746 0.1061 0.9105
C43_3 C 0.2713(3) 0.2618(4) 0.9706(5)
H23_3 H 0.2766 0.2614 0.9111
H24_3 H 0.2690 0.3860 0.9815
F10_4 F 0.0169(2) 0.9180(2) 0.8595(3)
F11_4 F 0.09407(19) 0.8972(2) 0.9348(3)
F12_4 F 0.07267(18) 0.8125(2) 0.8346(3)
C25_4 C 0.0136(3) 0.8044(3) 0.9584(4)
C27_4 C 0.0489(3) 0.8576(4) 0.8956(5)
C29_4 C 0.0840(3) 0.6845(3) 0.9681(4)
H13_4 H 0.0754 0.6749 0.9102
H14_4 H 0.1401 0.5875 0.9808
F7_4 F 0.9508(2) 0.8233(3) 0.0790(3)
H11_4 H 0.9596 0.6706 0.0181
C26_4 C 0.9767(3) 0.8635(4) 0.0167(5)
C38_4 C 0.7727(3) 0.2522(4) 0.0072(5)
H19_4 H 0.7719 0.2506 0.0672
C40_4 C 0.7794(3) 0.0983(4) 0.0035(4)
H21_4 H 0.7809 0.0950 0.0633
C41_4 C 0.7736(3) 0.8926(4) 0.9705(5)
H22_4 H 0.7746 0.8939 0.9105
C43_4 C 0.7713(3) 0.7382(4) 0.9706(5)
H23_4 H 0.7766 0.7386 0.9111
H24_4 H 0.7690 0.6140 0.9815
loop_
_geom_bond_atom_site_label_1
_geom_bond_atom_site_label_2
_geom_bond_site_symmetry_1
_geom_bond_site_symmetry_2
F4 C10 1_555 1_555
F5 C10 1_555 1_555
F6 C10 1_555 1_555
C10 C8 1_555 1_555
H5 C12 1_555 1_555
O3 C17 1_555 1_555
O4 C17 1_555 1_555
H6 C13 1_555 1_555
C14 C13 1_555 1_555
C15 C14 1_555 1_555
H7 C15 1_555 1_555
C16 C11 1_555 1_555
H8 C16 1_555 1_555
C17 C14 1_555 1_555
Zn4 O4 1_555 1_555
Zn6 O3 1_555 1_555
C15 C16 1_555 1_555
Zn1 O1 1_555 1_555
Zn2 O2 1_555 1_555
O1 C1 1_555 1_555
O2 C1 1_555 1_555
O5 Zn2 1_555 1_555
O6 Zn1 1_555 1_555
O7 C34 1_555 1_555
O8 C34 1_555 1_555
N1 Zn1 1_555 1_555
F7 C26 1_555 1_555
F8 C26 1_555 1_555
F9 C26 1_555 1_555
F10 C27 1_555 1_555
F11 C27 1_555 1_555
F12 C27 1_555 1_555
C1 C2 1_555 1_555
C2 C3 1_555 1_555
C3 H1 1_555 1_555
C4 C3 1_555 1_555
H2 C4 1_555 1_555
C5 C4 1_555 1_555
C6 C5 1_555 1_555
C7 C2 1_555 1_555
H4 C7 1_555 1_555
C18 O5 1_555 1_555
C19 C18 1_555 1_555
C20 C19 1_555 1_555
H9 C20 1_555 1_555
C21 C20 1_555 1_555
H10 C21 1_555 1_555
C22 C21 1_555 1_555
C23 C22 1_555 1_555
H11 C23 1_555 1_555
C24 C19 1_555 1_555
H12 C24 1_555 1_555
C25 C22 1_555 1_555
C26 C25 1_555 1_555
C27 C25 1_555 1_555
C28 C25 1_555 1_555
C29 C28 1_555 1_555
H13 C29 1_555 1_555
C30 C29 1_555 1_555
H14 C30 1_555 1_555
C31 C30 1_555 1_555
C32 C31 1_555 1_555
H15 C32 1_555 1_555
C33 C28 1_555 1_555
H16 C33 1_555 1_555
C34 C31 1_555 1_555
C35 N1 1_555 1_555
H17 C35 1_555 1_555
C36 C35 1_555 1_555
H18 C36 1_555 1_555
C37 C36 1_555 1_555
C38 C37 1_555 1_555
H19 C38 1_555 1_555
C39 N1 1_555 1_555
H20 C39 1_555 1_555
C40 N2 1_555 1_555
H21 C40 1_555 1_555
Zn4 O8 1_555 1_555
Zn6 O7 1_555 1_555
O9 Zn2 1_555 1_555
O10 Zn1 1_555 1_555
O11 Zn2 1_555 1_555
O12 Zn1 1_555 1_555
N5 Zn2 1_555 1_555
O6 C18 1_555 1_555
C6 C7 1_555 1_555
C23 C24 1_555 1_555
C32 C33 1_555 1_555
C37 C40 1_555 1_555
C38 C39 1_555 1_555
O11 C34_2 1_555 1_555
O12 C34_2 1_555 1_555
F7_2 C26_2 1_555 1_555
F9_2 C26_2 1_555 1_555
C31_2 C30_2 1_555 1_555
C32_2 C31_2 1_555 1_555
H15_2 C32_2 1_555 1_555
C33_2 C28_2 1_555 1_555
H16_2 C33_2 1_555 1_555
C34_2 C31_2 1_555 1_555
H19_2 C38_2 1_555 1_555
H21_2 C40_2 1_555 1_555
C32_2 C33_2 1_555 1_555
Zn4 O1_2 1_555 1_555
Zn6 O2_2 1_555 1_555
O1_2 C1_2 1_555 1_555
O2_2 C1_2 1_555 1_555
O5_2 Zn6 1_555 1_555
O6_2 Zn4 1_555 1_555
N1_2 Zn4 1_555 1_555
F1 C9 1_555 1_555
F2 C9 1_555 1_555
F10_2 C27_2 1_555 1_555
F11_2 C27_2 1_555 1_555
F12_2 C27_2 1_555 1_555
C1_2 C2_2 1_555 1_555
C2_2 C3_2 1_555 1_555
C3_2 H1_2 1_555 1_555
C4_2 C3_2 1_555 1_555
H2_2 C4_2 1_555 1_555
C5_2 C4_2 1_555 1_555
C6_2 C5_2 1_555 1_555
H3 C6_2 1_555 1_555
C7_2 C2_2 1_555 1_555
H4_2 C7_2 1_555 1_555
C18_2 O5_2 1_555 1_555
C19_2 C18_2 1_555 1_555
C20_2 C19_2 1_555 1_555
H9_2 C20_2 1_555 1_555
C21_2 C20_2 1_555 1_555
H10_2 C21_2 1_555 1_555
C22_2 C21_2 1_555 1_555
C23_2 C22_2 1_555 1_555
C24_2 C19_2 1_555 1_555
H12_2 C24_2 1_555 1_555
C25_2 C22_2 1_555 1_555
C27_2 C25_2 1_555 1_555
H13_2 C29_2 1_555 1_555
C35_2 N1_2 1_555 1_555
H17_2 C35_2 1_555 1_555
C36_2 C35_2 1_555 1_555
H18_2 C36_2 1_555 1_555
C37_2 C36_2 1_555 1_555
C39_2 N1_2 1_555 1_555
H20_2 C39_2 1_555 1_555
N5_2 Zn6 1_555 1_555
O6_2 C18_2 1_555 1_555
C6_2 C7_2 1_555 1_555
C23_2 C24_2 1_555 1_555
O9 C17_2 1_555 1_555
O10 C17_2 1_555 1_555
F4_2 C10_2 1_555 1_555
F5_2 C10_2 1_555 1_555
F6_2 C10_2 1_555 1_555
C10_2 C8_2 1_555 1_555
C11_2 C8_2 1_555 1_555
C12_2 C11_2 1_555 1_555
H5_2 C12_2 1_555 1_555
C13_2 C12_2 1_555 1_555
H6_2 C13_2 1_555 1_555
C14_2 C13_2 1_555 1_555
C15_2 C14_2 1_555 1_555
H7_2 C15_2 1_555 1_555
C16_2 C11_2 1_555 1_555
H8_2 C16_2 1_555 1_555
C17_2 C14_2 1_555 1_555
C15_2 C16_2 1_555 1_555
N3 C41 1_555 1_555
N5_2 C44 1_555 1_555
C41 H22 1_555 1_555
C42 C41 1_555 1_555
C43 C42 1_555 1_555
H23 C43 1_555 1_555
C44 C43 1_555 1_555
H24 C44 1_555 1_555
C45 N5_2 1_555 1_555
H25 C45 1_555 1_555
C46 C42 1_555 1_555
H26 C46 1_555 1_555
C45 C46 1_555 1_555
N5 C44_2 1_555 1_555
C45_2 N5 1_555 1_555
H25_2 C45_2 1_555 1_555
C46_2 C42_2 1_555 1_555
H26_2 C46_2 1_555 1_555
C45_2 C46_2 1_555 1_555
F1_2 C9_2 1_555 1_555
F2_2 C9_2 1_555 1_555
N3_3 C41_2 1_555 1_555
N4 C44_3 1_555 1_555
C41_2 H22_2 1_555 1_555
C42_3 C41_2 1_555 1_555
C43_2 C42_3 1_555 1_555
H23_2 C43_2 1_555 1_555
C44_3 C43_2 1_555 1_555
H24_2 C44_3 1_555 1_555
C45_3 N4 1_555 1_555
H25_3 C45_3 1_555 1_555
C46_3 C42_3 1_555 1_555
H26_3 C46_3 1_555 1_555
Zn7 N4 1_555 1_555
C45_3 C46_3 1_555 1_555
N4_2 C44_4 1_555 1_555
C45_4 N4_2 1_555 1_555
H25_4 C45_4 1_555 1_555
C46_4 C42_4 1_555 1_555
H26_4 C46_4 1_555 1_555
Zn7_2 N4_2 1_555 1_555
C45_4 C46_4 1_555 1_555
Zn1_2 O1_3 1_555 1_555
Zn7_2 O2_3 1_555 1_555
O1_3 C1_3 1_555 1_555
O2_3 C1_3 1_555 1_555
O5_3 Zn7_2 1_555 1_555
O6_3 Zn1_2 1_555 1_555
N1_3 Zn1_2 1_555 1_555
F4_3 C10_3 1_555 1_555
F5_3 C10_3 1_555 1_555
F6_3 C10_3 1_555 1_555
F7_3 C26_3 1_555 1_555
F8_3 C26_3 1_555 1_555
C1_3 C2_3 1_555 1_555
C2_3 C3_3 1_555 1_555
C3_3 H1_3 1_555 1_555
C4_3 C3_3 1_555 1_555
H2_3 C4_3 1_555 1_555
C5_3 C4_3 1_555 1_555
C6_3 C5_3 1_555 1_555
C7_3 C2_3 1_555 1_555
H4_3 C7_3 1_555 1_555
C8_3 C5_3 1_555 1_555
C10_3 C8_3 1_555 1_555
H5_3 C12_3 1_555 1_555
C18_3 O5_3 1_555 1_555
C19_3 C18_3 1_555 1_555
C20_3 C19_3 1_555 1_555
H9_3 C20_3 1_555 1_555
C21_3 C20_3 1_555 1_555
H10_3 C21_3 1_555 1_555
C22_3 C21_3 1_555 1_555
C23_3 C22_3 1_555 1_555
H11_3 C23_3 1_555 1_555
C24_3 C19_3 1_555 1_555
H12_3 C24_3 1_555 1_555
C35_3 N1_3 1_555 1_555
H17_3 C35_3 1_555 1_555
C36_3 C35_3 1_555 1_555
H18_3 C36_3 1_555 1_555
C37_3 C36_3 1_555 1_555
C38_3 C37_3 1_555 1_555
H19_3 C38_3 1_555 1_555
C39_3 N1_3 1_555 1_555
H20_3 C39_3 1_555 1_555
C40_3 N2_3 1_555 1_555
H21_3 C40_3 1_555 1_555
O9_2 Zn7_2 1_555 1_555
O10_2 Zn1_2 1_555 1_555
O11_2 Zn7_2 1_555 1_555
O12_2 Zn1_2 1_555 1_555
O6_3 C18_3 1_555 1_555
C6_3 C7_3 1_555 1_555
C23_3 C24_3 1_555 1_555
C37_3 C40_3 1_555 1_555
C38_3 C39_3 1_555 1_555
O3_2 C17_3 1_555 1_555
O4_2 C17_3 1_555 1_555
F1_3 C9_3 1_555 1_555
F2_3 C9_3 1_555 1_555
F3_3 C9_3 1_555 1_555
H6_3 C13_3 1_555 1_555
C14_3 C13_3 1_555 1_555
C15_3 C14_3 1_555 1_555
H7_3 C15_3 1_555 1_555
C16_3 C11_3 1_555 1_555
H8_3 C16_3 1_555 1_555
C17_3 C14_3 1_555 1_555
Zn4_2 O4_2 1_555 1_555
Zn7 O3_2 1_555 1_555
C15_3 C16_3 1_555 1_555
O7_2 C34_3 1_555 1_555
O8_2 C34_3 1_555 1_555
F10_3 C27_3 1_555 1_555
F11_3 C27_3 1_555 1_555
F12_3 C27_3 1_555 1_555
C27_3 C25_3 1_555 1_555
C28_3 C25_3 1_555 1_555
C29_3 C28_3 1_555 1_555
H13_3 C29_3 1_555 1_555
C30_3 C29_3 1_555 1_555
H14_3 C30_3 1_555 1_555
C31_3 C30_3 1_555 1_555
C32_3 C31_3 1_555 1_555
H15_3 C32_3 1_555 1_555
C33_3 C28_3 1_555 1_555
H16_3 C33_3 1_555 1_555
C34_3 C31_3 1_555 1_555
Zn4_2 O8_2 1_555 1_555
Zn7 O7_2 1_555 1_555
C32_3 C33_3 1_555 1_555
O11_2 C34_4 1_555 1_555
O12_2 C34_4 1_555 1_555
C31_4 C30_4 1_555 1_555
C32_4 C31_4 1_555 1_555
H15_4 C32_4 1_555 1_555
C33_4 C28_4 1_555 1_555
H16_4 C33_4 1_555 1_555
C34_4 C31_4 1_555 1_555
C32_4 C33_4 1_555 1_555
Zn4_2 O1_4 1_555 1_555
Zn7 O2_4 1_555 1_555
O1_4 C1_4 1_555 1_555
O2_4 C1_4 1_555 1_555
O9_2 C17_4 1_555 1_555
O10_2 C17_4 1_555 1_555
O5_4 Zn7 1_555 1_555
O6_4 Zn4_2 1_555 1_555
N1_4 Zn4_2 1_555 1_555
F1_4 C9_4 1_555 1_555
F2_4 C9_4 1_555 1_555
F3_4 C9_4 1_555 1_555
F4_4 C10_4 1_555 1_555
F5_4 C10_4 1_555 1_555
F6_4 C10_4 1_555 1_555
C1_4 C2_4 1_555 1_555
C2_4 C3_4 1_555 1_555
C3_4 H1_4 1_555 1_555
C4_4 C3_4 1_555 1_555
H2_4 C4_4 1_555 1_555
C5_4 C4_4 1_555 1_555
C6_4 C5_4 1_555 1_555
H3_4 C6_4 1_555 1_555
C7_4 C2_4 1_555 1_555
H4_4 C7_4 1_555 1_555
C8_4 C5_4 1_555 1_555
C9_4 C8_4 1_555 1_555
C10_4 C8_4 1_555 1_555
C11_4 C8_4 1_555 1_555
C12_4 C11_4 1_555 1_555
H5_4 C12_4 1_555 1_555
C13_4 C12_4 1_555 1_555
H6_4 C13_4 1_555 1_555
C14_4 C13_4 1_555 1_555
C15_4 C14_4 1_555 1_555
H7_4 C15_4 1_555 1_555
C16_4 C11_4 1_555 1_555
H8_4 C16_4 1_555 1_555
C17_4 C14_4 1_555 1_555
C18_4 O5_4 1_555 1_555
C19_4 C18_4 1_555 1_555
C20_4 C19_4 1_555 1_555
H9_4 C20_4 1_555 1_555
C21_4 C20_4 1_555 1_555
H10_4 C21_4 1_555 1_555
C22_4 C21_4 1_555 1_555
C23_4 C22_4 1_555 1_555
C24_4 C19_4 1_555 1_555
H12_4 C24_4 1_555 1_555
C35_4 N1_4 1_555 1_555
H17_4 C35_4 1_555 1_555
C36_4 C35_4 1_555 1_555
H18_4 C36_4 1_555 1_555
C37_4 C36_4 1_555 1_555
C39_4 N1_4 1_555 1_555
H20_4 C39_4 1_555 1_555
O6_4 C18_4 1_555 1_555
C6_4 C7_4 1_555 1_555
C15_4 C16_4 1_555 1_555
C23_4 C24_4 1_555 1_555
C41_3 H22_3 1_555 1_555
H23_3 C43_3 1_555 1_555
F10_4 C27_4 1_555 1_555
F11_4 C27_4 1_555 1_555
F12_4 C27_4 1_555 1_555
C27_4 C25_4 1_555 1_555
H13_4 C29_4 1_555 1_555
F7_4 C26_4 1_555 1_555
H19_4 C38_4 1_555 1_555
H21_4 C40_4 1_555 1_555
C41_4 H22_4 1_555 1_555
H23_4 C43_4 1_555 1_555

#END
