
###############################################################################
#
# This file contains modified crystal structure data generated from the
# MOF subset of the Cambridge Structural Database (CSD) v543 
# hosted by the Cambridge Crystallographic Data Centre (CCDC).
#
# This work is licensed under the Creative Commons
# Attribution-NonCommercial-ShareAlike 4.0 International License.
# To view a copy of this license, visit
# http://creativecommons.org/licenses/by-nc-sa/4.0/
# or send a letter to
# Creative Commons, PO Box 1866, Mountain View, CA 94042, USA.
#
# CIF created using the CSD Python API on 29 September 2022
# The structure has been converted into the P1 space group
# The structure has a 3D framework
# The original CSD entry HUTZAX01 is in the trigonal crystal system
# The original CSD entry HUTZAX01 is in a Sohncke space group
# The framework has been calculated to contain at least 10.0% void space
# The void calculation uses a probe of radius 1.32A, grid spacing 0.4
#
###############################################################################

data_HUTZAX01
_chemical_formula_moiety         '(C168 H96 O56 Zn8)n'
_symmetry_cell_setting           triclinic
_symmetry_space_group_name_H-M   'P 1'
_symmetry_Int_Tables_number      1
_space_group_name_Hall           'P 1'
loop_
_symmetry_equiv_pos_site_id
_symmetry_equiv_pos_as_xyz
1 x,y,z
_cell_length_a                   13.298(2)
_cell_length_b                   13.298(2)
_cell_length_c                   29.544(5)
_cell_angle_alpha                90
_cell_angle_beta                 90
_cell_angle_gamma                120
_cell_volume                     4524.52
loop_
_atom_site_label
_atom_site_type_symbol
_atom_site_fract_x
_atom_site_fract_y
_atom_site_fract_z
C8 C 0.8521(8) 0.1072(8) 0.2914(3)
C9 C 0.8416(11) 0.0609(8) 0.3348(4)
C10 C 0.8378(10) 0.1287(8) 0.3703(4)
H6 H 0.8308 0.1017 0.3998
C11 C 0.8439(6) 0.2328(6) 0.3631(2)
C12 C 0.8526(8) 0.2720(8) 0.3197(2)
H7 H 0.8575 0.3432 0.3143
C13 C 0.8541(9) 0.2062(8) 0.2842(3)
H8 H 0.8566 0.2318 0.2547
C14 C 0.8648(6) 0.3125(7) 0.4021(3)
O3 O 0.8710(7) 0.0488(6) 0.2554(3)
O4 O 0.9151(5) 0.4209(5) 0.39358(18)
O5 O 0.8388(6) 0.2732(6) 0.44181(19)
Zn3 Zn 0.99984(14) 0.53447(10) 0.43985(3)
Zn5 Zn 0.71824(8) 0.16819(12) 0.48212(3)
Zn1 Zn 0.46553(10) 0.46537(10) 0.10652(3)
Zn2 Zn 0.28176(8) 0.44995(9) 0.18455(3)
C1 C 0.5098(8) 0.6461(8) 0.1781(3)
C2 C 0.6010(8) 0.7531(8) 0.1983(3)
C3 C 0.7176(8) 0.7936(8) 0.1869(3)
H1 H 0.7360 0.7537 0.1657
C4 C 0.8037(9) 0.8908(9) 0.2069(3)
H2 H 0.8806 0.9164 0.1991
C5 C 0.7793(9) 0.9518(8) 0.2383(3)
C6 C 0.6664(9) 0.9136(9) 0.2504(4)
H3 H 0.6494 0.9537 0.2720
C7 C 0.5777(9) 0.8152(9) 0.2303(4)
H4 H 0.5012 0.7902 0.2383
H5 H 0.8375 0.9899 0.3398
C15 C 0.2539(10) 0.4724(8) 0.0879(3)
C16 C 0.1764(10) 0.4827(8) 0.0534(3)
C17 C 0.0743(10) 0.4731(9) 0.0664(3)
H9 H 0.0562 0.4665 0.0970
C21 C 0.2084(13) 0.5025(12) 0.0080(3)
O1 O 0.5343(6) 0.6066(7) 0.1454(2)
O2 O 0.4113(6) 0.6018(6) 0.1966(2)
O6 O 0.3510(8) 0.4925(6) 0.0755(2)
O7 O 0.2129(6) 0.4396(6) 0.12640(18)
O11 O 0.5791(5) 0.4942(7) 0.06025(18)
O12 O 0.1612(6) 0.4344(8) 0.22486(19)
O13 O 0.3245(10) 0.3350(7) 0.2002(2)
O14 O 0.4440(9) 0.3435(7) 0.1469(2)
C22 C 0.8908(11) 0.3846(12) 0.9326(4)
C23 C 0.8717(14) 0.2801(15) 0.9469(5)
H13 H 0.9045 0.2741 0.9738
C24 C 0.8029(13) 0.1818(14) 0.9214(4)
H14 H 0.7862 0.1095 0.9323
C25 C 0.7589(9) 0.1891(8) 0.8802(3)
C26 C 0.7793(11) 0.3007(11) 0.8663(4)
H15 H 0.7485 0.3089 0.8391
C27 C 0.8434(11) 0.3942(12) 0.8926(4)
H16 H 0.8557 0.4664 0.8836
C28 C 0.6875(9) 0.0860(8) 0.8515(3)
O8 O 0.9499(8) 0.4846(9) 0.9577(3)
O10 O 0.6565(7) 0.1005(6) 0.8136(2)
Zn4 Zn 0.53463(10) 0.00016(14) 0.77319(3)
O9 O 0.6650(7) 0.9895(7) 0.8669(2)
Zn6 Zn 0.55005(9) 0.83181(12) 0.85122(3)
O9_2 O 0.0105(7) 0.6755(10) 0.5336(2)
Zn6_2 Zn 0.16819(12) 0.71824(15) 0.51788(3)
O11_2 O 0.5058(7) 0.0849(9) 0.72691(18)
C1_2 C 0.3539(8) 0.8637(11) 0.8448(3)
C2_2 C 0.2469(8) 0.8479(11) 0.8650(3)
C3_2 C 0.2064(8) 0.9240(11) 0.8536(3)
H1_2 H 0.2463 0.9823 0.8324
C4_2 C 0.1092(9) 0.9129(13) 0.8736(3)
H2_2 H 0.0836 0.9642 0.8658
C5_2 C 0.0482(8) 0.8275(12) 0.9050(3)
C6_2 C 0.0864(9) 0.7528(13) 0.9171(4)
H3_2 H 0.0463 0.6957 0.9387
C7_2 C 0.1848(9) 0.7625(13) 0.8970(4)
H4_2 H 0.2098 0.7110 0.9050
C15_2 C 0.5276(8) 0.7815(13) 0.7546(3)
C16_2 C 0.5173(8) 0.6937(13) 0.7201(3)
C17_2 C 0.5269(9) 0.6012(13) 0.7331(3)
H9_2 H 0.5335 0.5897 0.7637
C18 C 0.5270(12) 0.5225(17) 0.7019(4)
H10 H 0.5338 0.4594 0.7112
C19 C 0.5169(13) 0.5413(18) 0.6579(4)
C20 C 0.4985(13) 0.6296(19) 0.6441(4)
H11 H 0.4867 0.6374 0.6136
C21_2 C 0.4975(12) 0.7059(18) 0.6747(3)
H12 H 0.4840 0.7649 0.6654
C22_2 C 0.6154(12) 0.5062(16) 0.5993(4)
C23_2 C 0.7199(15) 0.5916(21) 0.6136(5)
H13_2 H 0.7259 0.6304 0.6405
C24_2 C 0.8182(14) 0.6211(19) 0.5881(4)
H14_2 H 0.8905 0.6767 0.5990
C25_2 C 0.8109(8) 0.5698(12) 0.5469(3)
C26_2 C 0.6993(11) 0.4786(16) 0.5330(4)
H15_2 H 0.6911 0.4396 0.5058
C27_2 C 0.6058(12) 0.4492(16) 0.5593(4)
H16_2 H 0.5336 0.3893 0.5503
C28_2 C 0.9140(8) 0.6015(12) 0.5182(3)
O1_2 O 0.3934(7) 0.9277(9) 0.8121(2)
O2_2 O 0.3982(6) 0.8095(8) 0.8633(2)
O6_2 O 0.5075(6) 0.8585(10) 0.7422(2)
O7_2 O 0.5604(6) 0.7733(8) 0.79307(18)
O8_2 O 0.5154(9) 0.4653(12) 0.6244(3)
O10_2 O 0.8995(6) 0.5560(9) 0.4803(2)
O12_2 O 0.5656(8) 0.7268(10) 0.89152(19)
C9_2 C 0.9391(8) 0.7807(14) 0.0015(4)
C10_2 C 0.8713(8) 0.7091(13) 0.0370(4)
H6_2 H 0.8983 0.7291 0.0665
C11_2 C 0.7672(6) 0.6111(8) 0.0298(2)
C14_2 C 0.6875(7) 0.5523(9) 0.0688(3)
O5_2 O 0.7268(6) 0.5656(8) 0.10848(19)
Zn5_2 Zn 0.83181(12) 0.55005(14) 0.14878(3)
C18_2 C 0.4775(17) 0.0045(12) 0.3685(4)
H10_2 H 0.5406 0.0744 0.3778
C22_3 C 0.4938(16) 0.1092(11) 0.2659(4)
C23_3 C 0.4084(21) 0.1283(14) 0.2802(5)
H13_3 H 0.3696 0.0955 0.3071
C24_3 C 0.3789(19) 0.1971(13) 0.2547(4)
H14_3 H 0.3233 0.2138 0.2656
C25_3 C 0.4302(12) 0.2411(9) 0.2135(3)
C26_3 C 0.5214(16) 0.2207(11) 0.1996(4)
H15_3 H 0.5604 0.2515 0.1724
C27_3 C 0.5508(16) 0.1566(11) 0.2259(4)
H16_3 H 0.6107 0.1443 0.2169
C28_3 C 0.3985(12) 0.3125(9) 0.1848(3)
O8_3 O 0.5347(12) 0.0501(8) 0.2910(3)
C1_3 C 0.1363(11) 0.4902(8) 0.5114(3)
C2_3 C 0.1521(11) 0.3990(8) 0.5316(3)
C3_3 C 0.0760(11) 0.2824(8) 0.5202(3)
H1_3 H 0.0177 0.2640 0.4990
C4_3 C 0.0871(13) 0.1963(9) 0.5402(3)
H2_3 H 0.0358 0.1194 0.5324
C5_3 C 0.1725(12) 0.2207(9) 0.5716(3)
C6_3 C 0.2472(13) 0.3336(9) 0.5837(4)
H3_3 H 0.3043 0.3506 0.6053
C7_3 C 0.2375(13) 0.4223(9) 0.5636(4)
H4_3 H 0.2890 0.4988 0.5716
C8_2 C 0.2551(11) 0.1479(8) 0.6247(3)
C9_3 C 0.2193(14) 0.1584(11) 0.6681(4)
H5_2 H 0.1524 0.1625 0.6731
C10_3 C 0.2909(13) 0.1622(10) 0.7036(4)
H6_3 H 0.2709 0.1692 0.7331
C11_3 C 0.3889(8) 0.1561(6) 0.6964(2)
C12_2 C 0.4194(11) 0.1474(8) 0.6530(2)
H7_2 H 0.4857 0.1425 0.6476
C13_2 C 0.3521(12) 0.1459(9) 0.6175(3)
H8_2 H 0.3752 0.1434 0.5880
C14_3 C 0.4477(9) 0.1352(6) 0.7354(3)
C15_3 C 0.2185(13) 0.7461(10) 0.4212(3)
C16_3 C 0.3063(13) 0.8236(10) 0.3867(3)
C17_3 C 0.3988(13) 0.9257(10) 0.3997(3)
H9_3 H 0.4103 0.9438 0.4303
C19_2 C 0.4587(18) 0.9756(12) 0.3245(4)
C20_2 C 0.3704(19) 0.8689(14) 0.3107(4)
H11_2 H 0.3626 0.8493 0.2802
C21_3 C 0.2941(18) 0.7916(13) 0.3413(3)
H12_2 H 0.2351 0.7191 0.3320
O1_3 O 0.0723(9) 0.4657(6) 0.4787(2)
O2_3 O 0.1905(8) 0.5887(6) 0.5299(2)
O3_2 O 0.1778(9) 0.1290(7) 0.5887(3)
O5_3 O 0.4344(8) 0.1612(6) 0.77514(19)
O6_3 O 0.1415(10) 0.6490(8) 0.4088(2)
O7_3 O 0.2267(8) 0.7871(6) 0.45973(18)
Zn5_3 Zn 0.44995(14) 0.28176(8) 0.81545(3)
O12_3 O 0.2732(10) 0.8388(6) 0.55819(19)
C8_3 C 0.1072(8) 0.8521(8) 0.7086(3)
C9_4 C 0.0609(8) 0.8416(11) 0.6652(4)
C10_4 C 0.1287(8) 0.8378(10) 0.6297(4)
H6_4 H 0.1017 0.8308 0.6002
C11_4 C 0.2328(6) 0.8439(6) 0.6369(2)
C12_3 C 0.2720(8) 0.8526(8) 0.6803(2)
H7_3 H 0.3432 0.8575 0.6857
C13_3 C 0.2062(8) 0.8541(9) 0.7158(3)
H8_3 H 0.2318 0.8566 0.7453
C14_4 C 0.3125(7) 0.8648(6) 0.5979(3)
O3_3 O 0.0488(6) 0.8710(7) 0.7446(3)
O4_2 O 0.4209(5) 0.9151(5) 0.60642(18)
Zn3_2 Zn 0.53447(10) 0.99984(14) 0.56015(3)
Zn1_2 Zn 0.46537(10) 0.46553(10) 0.89348(3)
C1_4 C 0.6461(8) 0.5098(8) 0.8219(3)
C2_4 C 0.7531(8) 0.6010(8) 0.8017(3)
C3_4 C 0.7936(8) 0.7176(8) 0.8131(3)
H1_4 H 0.7537 0.7360 0.8343
C4_4 C 0.8908(9) 0.8037(9) 0.7931(3)
H2_4 H 0.9164 0.8806 0.8009
C5_4 C 0.9518(8) 0.7793(9) 0.7617(3)
C6_4 C 0.9136(9) 0.6664(9) 0.7496(4)
H3_4 H 0.9537 0.6494 0.7280
C7_4 C 0.8152(9) 0.5777(9) 0.7697(4)
H4_4 H 0.7902 0.5012 0.7617
H5_3 H 0.9899 0.8375 0.6602
C15_4 C 0.4724(8) 0.2539(10) 0.9121(3)
C16_4 C 0.4827(8) 0.1764(10) 0.9466(3)
C17_4 C 0.4731(9) 0.0743(10) 0.9336(3)
H9_4 H 0.4665 0.0562 0.9030
C21_4 C 0.5025(12) 0.2084(13) 0.9920(3)
O1_4 O 0.6066(7) 0.5343(6) 0.8546(2)
O2_4 O 0.6018(6) 0.4113(6) 0.8034(2)
O6_4 O 0.4925(6) 0.3510(8) 0.9245(2)
O7_4 O 0.4396(6) 0.2129(6) 0.87360(18)
O11_3 O 0.4942(7) 0.5791(5) 0.93975(18)
O13_2 O 0.3350(7) 0.3245(10) 0.7998(2)
O14_2 O 0.3435(7) 0.4440(9) 0.8531(2)
C22_4 C 0.3846(12) 0.8908(11) 0.0674(4)
C23_4 C 0.2801(15) 0.8717(14) 0.0531(5)
H13_4 H 0.2741 0.9045 0.0262
C24_4 C 0.1818(14) 0.8029(13) 0.0786(4)
H14_4 H 0.1095 0.7862 0.0677
C25_4 C 0.1891(8) 0.7589(9) 0.1198(3)
C26_4 C 0.3007(11) 0.7793(11) 0.1337(4)
H15_4 H 0.3089 0.7485 0.1609
C27_4 C 0.3942(12) 0.8434(11) 0.1074(4)
H16_4 H 0.4664 0.8557 0.1164
C28_4 C 0.0860(8) 0.6875(9) 0.1485(3)
O8_4 O 0.4846(9) 0.9499(8) 0.0423(3)
O10_3 O 0.1005(6) 0.6565(7) 0.1864(2)
Zn4_2 Zn 0.00016(14) 0.53463(10) 0.22681(3)
O9_3 O 0.9895(7) 0.6650(7) 0.1331(2)
O11_4 O 0.0849(9) 0.5058(7) 0.27309(18)
O9_4 O 0.6755(10) 0.0105(7) 0.4664(2)
C1_5 C 0.8637(11) 0.3539(8) 0.1552(3)
C2_5 C 0.8479(11) 0.2469(8) 0.1350(3)
C3_5 C 0.9240(11) 0.2064(8) 0.1464(3)
H1_5 H 0.9823 0.2463 0.1676
C4_5 C 0.9129(13) 0.1092(9) 0.1264(3)
H2_5 H 0.9642 0.0836 0.1342
C5_5 C 0.8275(12) 0.0482(8) 0.0950(3)
C6_5 C 0.7528(13) 0.0864(9) 0.0829(4)
H3_5 H 0.6957 0.0463 0.0613
C7_5 C 0.7625(13) 0.1848(9) 0.1030(4)
H4_5 H 0.7110 0.2098 0.0950
C15_5 C 0.7815(13) 0.5276(8) 0.2454(3)
C16_5 C 0.6937(13) 0.5173(8) 0.2799(3)
C17_5 C 0.6012(13) 0.5269(9) 0.2669(3)
H9_5 H 0.5897 0.5335 0.2363
C18_3 C 0.5225(17) 0.5270(12) 0.2981(4)
H10_3 H 0.4594 0.5338 0.2888
C19_3 C 0.5413(18) 0.5169(13) 0.3421(4)
C20_3 C 0.6296(19) 0.4985(13) 0.3559(4)
H11_3 H 0.6374 0.4867 0.3864
C21_5 C 0.7059(18) 0.4975(12) 0.3253(3)
H12_3 H 0.7649 0.4840 0.3346
C22_5 C 0.5062(16) 0.6154(12) 0.4007(4)
C23_5 C 0.5916(21) 0.7199(15) 0.3864(5)
H13_5 H 0.6304 0.7259 0.3595
C24_5 C 0.6211(19) 0.8182(14) 0.4119(4)
H14_5 H 0.6767 0.8905 0.4010
C25_5 C 0.5698(12) 0.8109(8) 0.4531(3)
C26_5 C 0.4786(16) 0.6993(11) 0.4670(4)
H15_5 H 0.4396 0.6911 0.4942
C27_5 C 0.4492(16) 0.6058(12) 0.4407(4)
H16_5 H 0.3893 0.5336 0.4497
C28_5 C 0.6015(12) 0.9140(8) 0.4818(3)
O1_5 O 0.9277(9) 0.3934(7) 0.1879(2)
O2_5 O 0.8095(8) 0.3982(6) 0.1367(2)
O6_5 O 0.8585(10) 0.5075(6) 0.2578(2)
O7_5 O 0.7733(8) 0.5604(6) 0.20693(18)
O8_5 O 0.4653(12) 0.5154(9) 0.3756(3)
O10_4 O 0.5560(9) 0.8995(6) 0.5197(2)
C9_5 C 0.7807(14) 0.9391(8) 0.9985(4)
C10_5 C 0.7091(13) 0.8713(8) 0.9630(4)
H6_5 H 0.7291 0.8983 0.9335
C11_5 C 0.6111(8) 0.7672(6) 0.9702(2)
C14_5 C 0.5523(9) 0.6875(7) 0.9312(3)
C18_4 C 0.0045(12) 0.4775(17) 0.6315(4)
H10_4 H 0.0744 0.5406 0.6222
C22_6 C 0.1092(11) 0.4938(16) 0.7341(4)
C23_6 C 0.1283(14) 0.4084(21) 0.7198(5)
H13_6 H 0.0955 0.3696 0.6929
C24_6 C 0.1971(13) 0.3789(19) 0.7453(4)
H14_6 H 0.2138 0.3233 0.7344
C25_6 C 0.2411(9) 0.4302(12) 0.7865(3)
C26_6 C 0.2207(11) 0.5214(16) 0.8004(4)
H15_6 H 0.2515 0.5604 0.8276
C27_6 C 0.1566(11) 0.5508(16) 0.7741(4)
H16_6 H 0.1443 0.6107 0.7831
C28_6 C 0.3125(9) 0.3985(12) 0.8152(3)
O8_6 O 0.0501(8) 0.5347(12) 0.7090(3)
C1_6 C 0.4902(8) 0.1363(11) 0.4886(3)
C2_6 C 0.3990(8) 0.1521(11) 0.4684(3)
C3_6 C 0.2824(8) 0.0760(11) 0.4798(3)
H1_6 H 0.2640 0.0177 0.5010
C4_6 C 0.1963(9) 0.0871(13) 0.4598(3)
H2_6 H 0.1194 0.0358 0.4676
C5_6 C 0.2207(9) 0.1725(12) 0.4284(3)
C6_6 C 0.3336(9) 0.2472(13) 0.4163(4)
H3_6 H 0.3506 0.3043 0.3947
C7_6 C 0.4223(9) 0.2375(13) 0.4364(4)
H4_6 H 0.4988 0.2890 0.4284
C8_4 C 0.1479(8) 0.2551(11) 0.3753(3)
C9_6 C 0.1584(11) 0.2193(14) 0.3319(4)
H5_4 H 0.1625 0.1524 0.3269
C10_6 C 0.1622(10) 0.2909(13) 0.2964(4)
H6_6 H 0.1692 0.2709 0.2669
C11_6 C 0.1561(6) 0.3889(8) 0.3036(2)
C12_4 C 0.1474(8) 0.4194(11) 0.3470(2)
H7_4 H 0.1425 0.4857 0.3524
C13_4 C 0.1459(9) 0.3521(12) 0.3825(3)
H8_4 H 0.1434 0.3752 0.4120
C14_6 C 0.1352(6) 0.4477(9) 0.2646(3)
C15_6 C 0.7461(10) 0.2185(13) 0.5788(3)
C16_6 C 0.8236(10) 0.3063(13) 0.6133(3)
C17_6 C 0.9257(10) 0.3988(13) 0.6003(3)
H9_6 H 0.9438 0.4103 0.5697
C19_4 C 0.9756(12) 0.4587(18) 0.6755(4)
C20_4 C 0.8689(14) 0.3704(19) 0.6893(4)
H11_4 H 0.8493 0.3626 0.7198
C21_6 C 0.7916(13) 0.2941(18) 0.6587(3)
H12_4 H 0.7191 0.2351 0.6680
O1_6 O 0.4657(6) 0.0723(9) 0.5213(2)
O2_6 O 0.5887(6) 0.1905(8) 0.4701(2)
O3_4 O 0.1290(7) 0.1778(9) 0.4113(3)
O6_6 O 0.6490(8) 0.1415(10) 0.5912(2)
O7_6 O 0.7871(6) 0.2267(8) 0.54027(18)
C19_5 C 0.0244(12) 0.4831(13) 0.9912(4)
C20_5 C 0.1311(14) 0.5015(13) 0.9774(4)
H11_5 H 0.1507 0.5133 0.9469
H12_5 H 0.2809 0.5160 0.9987
C18_5 C 0.9955(12) 0.4730(12) 0.0352(4)
H10_5 H 0.9256 0.4662 0.0445
H5_5 H 0.0101 0.8476 0.0065
C8_5 C 0.8928(8) 0.7449(11) 0.9581(3)
C12_5 C 0.7280(8) 0.5806(11) 0.9864(2)
H7_5 H 0.6568 0.5143 0.9810
C13_5 C 0.7938(8) 0.6479(12) 0.9509(3)
H8_5 H 0.7682 0.6248 0.9214
O3_5 O 0.9512(6) 0.8222(9) 0.9221(3)
C19_6 C 0.4831(13) 0.0244(12) 0.0088(4)
C20_6 C 0.5015(13) 0.1311(14) 0.0226(4)
H11_6 H 0.5133 0.1507 0.0531
H12_6 H 0.5160 0.2809 0.0013
C18_6 C 0.4730(12) 0.9955(12) 0.9648(4)
H10_6 H 0.4662 0.9256 0.9555
H5_6 H 0.8476 0.0101 0.9935
C8_6 C 0.7449(11) 0.8928(8) 0.0419(3)
C12_6 C 0.5806(11) 0.7280(8) 0.0136(2)
H7_6 H 0.5143 0.6568 0.0190
C13_6 C 0.6479(12) 0.7938(8) 0.0491(3)
H8_6 H 0.6248 0.7682 0.0786
O3_6 O 0.8222(9) 0.9512(6) 0.0779(3)
loop_
_geom_bond_atom_site_label_1
_geom_bond_atom_site_label_2
_geom_bond_site_symmetry_1
_geom_bond_site_symmetry_2
C8 C9 1_555 1_555
C10 C9 1_555 1_555
H6 C10 1_555 1_555
C11 C10 1_555 1_555
C12 C11 1_555 1_555
H7 C12 1_555 1_555
C13 C8 1_555 1_555
H8 C13 1_555 1_555
C14 C11 1_555 1_555
O4 C14 1_555 1_555
O5 C14 1_555 1_555
Zn3 O4 1_555 1_555
Zn5 O5 1_555 1_555
C8 O3 1_555 1_555
C12 C13 1_555 1_555
Zn1 O1 1_555 1_555
Zn2 O2 1_555 1_555
C1 C2 1_555 1_555
C2 C3 1_555 1_555
C3 H1 1_555 1_555
C4 C3 1_555 1_555
H2 C4 1_555 1_555
C5 C4 1_555 1_555
C6 C5 1_555 1_555
H3 C6 1_555 1_555
C7 C2 1_555 1_555
H4 C7 1_555 1_555
C15 C16 1_555 1_555
C16 C17 1_555 1_555
C17 H9 1_555 1_555
C21 C16 1_555 1_555
O1 C1 1_555 1_555
O2 C1 1_555 1_555
O6 Zn1 1_555 1_555
O7 Zn2 1_555 1_555
O11 Zn1 1_555 1_555
O12 Zn2 1_555 1_555
O13 Zn2 1_555 1_555
O14 Zn1 1_555 1_555
C6 C7 1_555 1_555
C15 O6 1_555 1_555
C15 O7 1_555 1_555
C22 C23 1_555 1_555
C23 H13 1_555 1_555
C24 C23 1_555 1_555
H14 C24 1_555 1_555
C25 C24 1_555 1_555
C26 C25 1_555 1_555
H15 C26 1_555 1_555
C27 C22 1_555 1_555
H16 C27 1_555 1_555
C28 C25 1_555 1_555
O10 C28 1_555 1_555
Zn4 O10 1_555 1_555
C22 O8 1_555 1_555
C26 C27 1_555 1_555
Zn6 O9 1_555 1_555
Zn6_2 O9_2 1_555 1_555
O11_2 Zn4 1_555 1_555
Zn6 O2_2 1_555 1_555
C1_2 C2_2 1_555 1_555
C2_2 C3_2 1_555 1_555
C3_2 H1_2 1_555 1_555
C4_2 C3_2 1_555 1_555
H2_2 C4_2 1_555 1_555
C5_2 C4_2 1_555 1_555
C6_2 C5_2 1_555 1_555
H3_2 C6_2 1_555 1_555
C7_2 C2_2 1_555 1_555
H4_2 C7_2 1_555 1_555
C15_2 C16_2 1_555 1_555
C16_2 C17_2 1_555 1_555
C17_2 H9_2 1_555 1_555
C18 C17_2 1_555 1_555
H10 C18 1_555 1_555
C19 C18 1_555 1_555
C20 C19 1_555 1_555
H11 C20 1_555 1_555
C21_2 C16_2 1_555 1_555
H12 C21_2 1_555 1_555
C22_2 C23_2 1_555 1_555
C23_2 H13_2 1_555 1_555
C24_2 C23_2 1_555 1_555
H14_2 C24_2 1_555 1_555
C25_2 C24_2 1_555 1_555
C26_2 C25_2 1_555 1_555
H15_2 C26_2 1_555 1_555
C27_2 C22_2 1_555 1_555
H16_2 C27_2 1_555 1_555
C28_2 C25_2 1_555 1_555
O1_2 C1_2 1_555 1_555
O2_2 C1_2 1_555 1_555
O7_2 Zn6 1_555 1_555
O8_2 C19 1_555 1_555
O10_2 C28_2 1_555 1_555
Zn3 O10_2 1_555 1_555
O12_2 Zn6 1_555 1_555
C6_2 C7_2 1_555 1_555
C15_2 O6_2 1_555 1_555
C15_2 O7_2 1_555 1_555
C20 C21_2 1_555 1_555
C22_2 O8_2 1_555 1_555
C26_2 C27_2 1_555 1_555
C10_2 C9_2 1_555 1_555
H6_2 C10_2 1_555 1_555
C11_2 C10_2 1_555 1_555
C14_2 C11_2 1_555 1_555
O11 C14_2 1_555 1_555
O5_2 C14_2 1_555 1_555
Zn5_2 O5_2 1_555 1_555
H10_2 C18_2 1_555 1_555
C22_3 C23_3 1_555 1_555
C23_3 H13_3 1_555 1_555
C24_3 C23_3 1_555 1_555
H14_3 C24_3 1_555 1_555
C25_3 C24_3 1_555 1_555
C26_3 C25_3 1_555 1_555
H15_3 C26_3 1_555 1_555
C27_3 C22_3 1_555 1_555
H16_3 C27_3 1_555 1_555
C28_3 C25_3 1_555 1_555
O13 C28_3 1_555 1_555
O14 C28_3 1_555 1_555
C22_3 O8_3 1_555 1_555
C26_3 C27_3 1_555 1_555
Zn6_2 O2_3 1_555 1_555
C1_3 C2_3 1_555 1_555
C2_3 C3_3 1_555 1_555
C3_3 H1_3 1_555 1_555
C4_3 C3_3 1_555 1_555
H2_3 C4_3 1_555 1_555
C5_3 C4_3 1_555 1_555
C6_3 C5_3 1_555 1_555
H3_3 C6_3 1_555 1_555
C7_3 C2_3 1_555 1_555
H4_3 C7_3 1_555 1_555
C8_2 C9_3 1_555 1_555
C9_3 H5_2 1_555 1_555
C10_3 C9_3 1_555 1_555
H6_3 C10_3 1_555 1_555
C11_3 C10_3 1_555 1_555
C12_2 C11_3 1_555 1_555
H7_2 C12_2 1_555 1_555
C13_2 C8_2 1_555 1_555
H8_2 C13_2 1_555 1_555
C14_3 C11_3 1_555 1_555
C15_3 C16_3 1_555 1_555
C16_3 C17_3 1_555 1_555
C17_3 H9_3 1_555 1_555
C20_2 C19_2 1_555 1_555
H11_2 C20_2 1_555 1_555
C21_3 C16_3 1_555 1_555
H12_2 C21_3 1_555 1_555
O1_3 C1_3 1_555 1_555
O2_3 C1_3 1_555 1_555
O3_2 C5_3 1_555 1_555
O11_2 C14_3 1_555 1_555
O5_3 C14_3 1_555 1_555
O7_3 Zn6_2 1_555 1_555
Zn5_3 O5_3 1_555 1_555
O12_3 Zn6_2 1_555 1_555
C6_3 C7_3 1_555 1_555
C8_2 O3_2 1_555 1_555
C12_2 C13_2 1_555 1_555
C15_3 O6_3 1_555 1_555
C15_3 O7_3 1_555 1_555
C20_2 C21_3 1_555 1_555
C8_3 C9_4 1_555 1_555
C10_4 C9_4 1_555 1_555
H6_4 C10_4 1_555 1_555
C11_4 C10_4 1_555 1_555
C12_3 C11_4 1_555 1_555
H7_3 C12_3 1_555 1_555
C13_3 C8_3 1_555 1_555
H8_3 C13_3 1_555 1_555
C14_4 C11_4 1_555 1_555
O4_2 C14_4 1_555 1_555
O12_3 C14_4 1_555 1_555
Zn3_2 O4_2 1_555 1_555
C8_3 O3_3 1_555 1_555
C12_3 C13_3 1_555 1_555
Zn1_2 O1_4 1_555 1_555
Zn5_3 O2_4 1_555 1_555
C1_4 C2_4 1_555 1_555
C2_4 C3_4 1_555 1_555
C3_4 H1_4 1_555 1_555
C4_4 C3_4 1_555 1_555
H2_4 C4_4 1_555 1_555
C5_4 C4_4 1_555 1_555
C6_4 C5_4 1_555 1_555
H3_4 C6_4 1_555 1_555
C7_4 C2_4 1_555 1_555
H4_4 C7_4 1_555 1_555
C15_4 C16_4 1_555 1_555
C16_4 C17_4 1_555 1_555
C17_4 H9_4 1_555 1_555
C21_4 C16_4 1_555 1_555
O1_4 C1_4 1_555 1_555
O2_4 C1_4 1_555 1_555
O6_4 Zn1_2 1_555 1_555
O7_4 Zn5_3 1_555 1_555
O11_3 Zn1_2 1_555 1_555
O13_2 Zn5_3 1_555 1_555
O14_2 Zn1_2 1_555 1_555
C6_4 C7_4 1_555 1_555
C15_4 O6_4 1_555 1_555
C15_4 O7_4 1_555 1_555
C22_4 C23_4 1_555 1_555
C23_4 H13_4 1_555 1_555
C24_4 C23_4 1_555 1_555
H14_4 C24_4 1_555 1_555
C25_4 C24_4 1_555 1_555
C26_4 C25_4 1_555 1_555
H15_4 C26_4 1_555 1_555
C27_4 C22_4 1_555 1_555
H16_4 C27_4 1_555 1_555
C28_4 C25_4 1_555 1_555
O10_3 C28_4 1_555 1_555
Zn4_2 O10_3 1_555 1_555
C22_4 O8_4 1_555 1_555
C26_4 C27_4 1_555 1_555
Zn5_2 O9_3 1_555 1_555
O11_4 Zn4_2 1_555 1_555
Zn5 O9_4 1_555 1_555
Zn5_2 O2_5 1_555 1_555
C1_5 C2_5 1_555 1_555
C2_5 C3_5 1_555 1_555
C3_5 H1_5 1_555 1_555
C4_5 C3_5 1_555 1_555
H2_5 C4_5 1_555 1_555
C5_5 C4_5 1_555 1_555
C6_5 C5_5 1_555 1_555
H3_5 C6_5 1_555 1_555
C7_5 C2_5 1_555 1_555
H4_5 C7_5 1_555 1_555
C15_5 C16_5 1_555 1_555
C16_5 C17_5 1_555 1_555
C17_5 H9_5 1_555 1_555
C18_3 C17_5 1_555 1_555
H10_3 C18_3 1_555 1_555
C19_3 C18_3 1_555 1_555
C20_3 C19_3 1_555 1_555
H11_3 C20_3 1_555 1_555
C21_5 C16_5 1_555 1_555
H12_3 C21_5 1_555 1_555
C22_5 C23_5 1_555 1_555
C23_5 H13_5 1_555 1_555
C24_5 C23_5 1_555 1_555
H14_5 C24_5 1_555 1_555
C25_5 C24_5 1_555 1_555
C26_5 C25_5 1_555 1_555
H15_5 C26_5 1_555 1_555
C27_5 C22_5 1_555 1_555
H16_5 C27_5 1_555 1_555
C28_5 C25_5 1_555 1_555
O1_5 C1_5 1_555 1_555
O2_5 C1_5 1_555 1_555
O7_5 Zn5_2 1_555 1_555
O8_5 C19_3 1_555 1_555
O10_4 C28_5 1_555 1_555
Zn3_2 O10_4 1_555 1_555
C6_5 C7_5 1_555 1_555
C15_5 O6_5 1_555 1_555
C15_5 O7_5 1_555 1_555
C20_3 C21_5 1_555 1_555
C22_5 O8_5 1_555 1_555
C26_5 C27_5 1_555 1_555
C10_5 C9_5 1_555 1_555
H6_5 C10_5 1_555 1_555
C11_5 C10_5 1_555 1_555
C14_5 C11_5 1_555 1_555
O11_3 C14_5 1_555 1_555
O12_2 C14_5 1_555 1_555
H10_4 C18_4 1_555 1_555
C22_6 C23_6 1_555 1_555
C23_6 H13_6 1_555 1_555
C24_6 C23_6 1_555 1_555
H14_6 C24_6 1_555 1_555
C25_6 C24_6 1_555 1_555
C26_6 C25_6 1_555 1_555
H15_6 C26_6 1_555 1_555
C27_6 C22_6 1_555 1_555
H16_6 C27_6 1_555 1_555
C28_6 C25_6 1_555 1_555
O13_2 C28_6 1_555 1_555
O14_2 C28_6 1_555 1_555
C22_6 O8_6 1_555 1_555
C26_6 C27_6 1_555 1_555
Zn5 O2_6 1_555 1_555
C1_6 C2_6 1_555 1_555
C2_6 C3_6 1_555 1_555
C3_6 H1_6 1_555 1_555
C4_6 C3_6 1_555 1_555
H2_6 C4_6 1_555 1_555
C5_6 C4_6 1_555 1_555
C6_6 C5_6 1_555 1_555
H3_6 C6_6 1_555 1_555
C7_6 C2_6 1_555 1_555
H4_6 C7_6 1_555 1_555
C8_4 C9_6 1_555 1_555
C9_6 H5_4 1_555 1_555
C10_6 C9_6 1_555 1_555
H6_6 C10_6 1_555 1_555
C11_6 C10_6 1_555 1_555
C12_4 C11_6 1_555 1_555
H7_4 C12_4 1_555 1_555
C13_4 C8_4 1_555 1_555
H8_4 C13_4 1_555 1_555
C14_6 C11_6 1_555 1_555
C15_6 C16_6 1_555 1_555
C16_6 C17_6 1_555 1_555
C17_6 H9_6 1_555 1_555
C20_4 C19_4 1_555 1_555
H11_4 C20_4 1_555 1_555
C21_6 C16_6 1_555 1_555
H12_4 C21_6 1_555 1_555
O1_6 C1_6 1_555 1_555
O2_6 C1_6 1_555 1_555
O3_4 C5_6 1_555 1_555
O11_4 C14_6 1_555 1_555
O12 C14_6 1_555 1_555
O7_6 Zn5 1_555 1_555
C6_6 C7_6 1_555 1_555
C8_4 O3_4 1_555 1_555
C12_4 C13_4 1_555 1_555
C15_6 O6_6 1_555 1_555
C15_6 O7_6 1_555 1_555
C20_4 C21_6 1_555 1_555
C20_5 C19_5 1_555 1_555
H11_5 C20_5 1_555 1_555
H10_5 C18_5 1_555 1_555
H7_5 C12_5 1_555 1_555
C13_5 C8_5 1_555 1_555
H8_5 C13_5 1_555 1_555
C8_5 O3_5 1_555 1_555
C12_5 C13_5 1_555 1_555
C20_6 C19_6 1_555 1_555
H11_6 C20_6 1_555 1_555
H10_6 C18_6 1_555 1_555
H7_6 C12_6 1_555 1_555
C13_6 C8_6 1_555 1_555
H8_6 C13_6 1_555 1_555
C8_6 O3_6 1_555 1_555
C12_6 C13_6 1_555 1_555

#END
