
###############################################################################
#
# This file contains modified crystal structure data generated from the
# MOF subset of the Cambridge Structural Database (CSD) v543 
# hosted by the Cambridge Crystallographic Data Centre (CCDC).
#
# This work is licensed under the Creative Commons
# Attribution-NonCommercial-ShareAlike 4.0 International License.
# To view a copy of this license, visit
# http://creativecommons.org/licenses/by-nc-sa/4.0/
# or send a letter to
# Creative Commons, PO Box 1866, Mountain View, CA 94042, USA.
#
# CIF created using the CSD Python API on 29 September 2022
# The structure has been converted into the P1 space group
# The structure has a 3D framework
# The original CSD entry HUVHIR is in the triclinic crystal system
# The framework has been calculated to contain at least 10.0% void space
# The void calculation uses a probe of radius 1.32A, grid spacing 0.4
# H atom positions have been added when not included in the experimental data
#
###############################################################################

data_HUVHIR
_chemical_formula_moiety         '(C34 H58 N16 O32 P6 Zn6)n'
_symmetry_cell_setting           triclinic
_symmetry_space_group_name_H-M   'P 1'
_symmetry_Int_Tables_number      1
_space_group_name_Hall           'P 1'
loop_
_symmetry_equiv_pos_site_id
_symmetry_equiv_pos_as_xyz
1 x,y,z
_cell_length_a                   10.137(6)
_cell_length_b                   11.802(7)
_cell_length_c                   13.768(8)
_cell_angle_alpha                86.899(12)
_cell_angle_beta                 89.523(9)
_cell_angle_gamma                88.343(11)
_cell_volume                     1644.02
loop_
_atom_site_label
_atom_site_type_symbol
_atom_site_fract_x
_atom_site_fract_y
_atom_site_fract_z
O14 O 0.1033(7) 0.3673(7) 0.0267(5)
H1 H 0.1462 0.3164 0.0018
H12 H 0.0055 0.4493 0.1793
C12 C 0.0112(9) 0.3234(9) 0.0817(7)
Zn4 Zn 0.15736(8) 0.51598(8) 0.39554(6)
Zn2 Zn 0.55467(9) 0.57495(9) 0.37833(7)
P1 P 0.3750(2) 0.3440(2) 0.42563(17)
P3 P 0.84407(18) 0.46155(19) 0.37929(15)
O1 O 0.2294(5) 0.3604(5) 0.4049(4)
O2 O 0.4443(8) 0.4517(7) 0.3927(8)
O3 O 0.4009(8) 0.3070(7) 0.5301(5)
O4 O 0.4079(8) 0.0364(6) 0.1730(6)
O5 O 0.1931(10) 0.0418(8) 0.1759(12)
O11 O 0.7301(5) 0.5343(6) 0.3370(5)
O12 O 0.9679(5) 0.5315(5) 0.3721(5)
O13 O 0.8182(6) 0.4131(5) 0.4816(4)
O15 O 0.9855(8) 0.2250(7) 0.0847(7)
O16 O 0.6846(19) 0.0682(12) 0.0212(10)
N1 N 0.4166(7) 0.2462(6) 0.2528(5)
N2 N 0.8394(7) 0.3630(7) 0.2032(5)
N4 N 0.4835(7) 0.2998(7) 0.0982(5)
N5 N 0.6297(7) 0.3031(6) 0.2310(5)
N6 N 0.7014(7) 0.3646(6) 0.0710(5)
C1 C 0.5143(8) 0.2831(8) 0.1930(6)
C2 C 0.5811(9) 0.3421(8) 0.0419(6)
C3 C 0.7191(8) 0.3432(7) 0.1675(6)
C4 C 0.4394(8) 0.2275(7) 0.3576(6)
H2 H 0.5334 0.2180 0.3691
H3 H 0.3976 0.1581 0.3808
C5 C 0.2941(8) 0.2068(8) 0.2148(7)
H4 H 0.2694 0.2555 0.1585
H5 H 0.2256 0.2153 0.2637
C6 C 0.2978(11) 0.0853(10) 0.1856(9)
C10 C 0.8688(8) 0.3403(8) 0.3061(6)
H10 H 0.9599 0.3136 0.3121
H11 H 0.8134 0.2798 0.3316
C11 C 0.9416(8) 0.4132(8) 0.1400(6)
H13 H 0.9017 0.4710 0.0959
Zn6 Zn 0.84264(8) 0.48402(8) 0.60446(6)
Zn8 Zn 0.44533(9) 0.42505(9) 0.62167(7)
O17 O 0.5991(8) 0.6930(7) 0.4699(5)
O19 O 0.2179(6) 0.6099(6) 0.2846(4)
O20 O 0.4552(6) 0.6751(6) 0.2845(5)
O22 O 0.1818(6) 0.5869(5) 0.5184(4)
H28 H 0.684233 0.136975 0.0596932
H29 H 0.62499 0.011557 0.0525417
Zn3 Zn 0.62257(11) 0.11009(10) 0.88746(9)
P2 P 0.6707(2) 0.3352(2) 0.77006(15)
O6 O 0.7821(6) 0.3901(6) 0.7154(4)
O7 O 0.7159(7) 0.2158(6) 0.8103(5)
O8 O 0.5448(6) 0.3249(6) 0.7155(5)
O9 O 0.4405(7) 0.1451(6) 0.9150(6)
O10 O 0.2432(7) 0.2162(7) 0.9455(7)
N3 N 0.5516(7) 0.3591(7) 0.9453(5)
C7 C 0.6405(9) 0.4165(8) 0.8758(7)
H6 H 0.7237 0.4288 0.9073
H7 H 0.6021 0.4901 0.8554
C8 C 0.4122(8) 0.3486(9) 0.9188(6)
H8 H 0.4004 0.3775 0.8521
H9 H 0.3581 0.3957 0.9599
C9 C 0.3637(9) 0.2293(9) 0.9284(7)
Zn9 Zn 0.37743(11) 0.88991(10) 0.11254(9)
O18 O 0.5921(8) 0.9636(6) 0.8270(6)
O21 O 0.0321(5) 0.4685(5) 0.6279(5)
P2_2 P 0.3293(2) 0.6648(2) 0.22994(15)
O7_2 O 0.2841(7) 0.7842(6) 0.1897(5)
O9_2 O 0.5595(7) 0.8549(6) 0.0850(6)
O10_2 O 0.7568(7) 0.7838(7) 0.0545(7)
N3_2 N 0.4484(7) 0.6409(7) 0.0547(5)
C7_2 C 0.3595(9) 0.5835(8) 0.1242(7)
H6_2 H 0.2763 0.5712 0.0927
H7_2 H 0.3979 0.5099 0.1446
C8_2 C 0.5878(8) 0.6514(9) 0.0812(6)
H8_2 H 0.5996 0.6225 0.1479
H9_2 H 0.6419 0.6043 0.0401
C9_2 C 0.6363(9) 0.7707(9) 0.0716(7)
P1_2 P 0.6250(2) 0.6560(2) 0.57437(17)
P3_2 P 0.15593(18) 0.53845(19) 0.62071(15)
O1_2 O 0.7706(5) 0.6396(5) 0.5951(4)
O2_2 O 0.5557(8) 0.5483(7) 0.6073(8)
O5_2 O 0.8069(10) 0.9582(8) 0.8241(12)
O11_2 O 0.2699(5) 0.4657(6) 0.6630(5)
O15_2 O 0.0145(8) 0.7750(7) 0.9153(7)
O16_2 O 0.3154(19) 0.9318(12) 0.9788(10)
N1_2 N 0.5834(7) 0.7538(6) 0.7472(5)
N2_2 N 0.1606(7) 0.6370(7) 0.7968(5)
N4_2 N 0.5165(7) 0.7002(7) 0.9018(5)
N5_2 N 0.3703(7) 0.6969(6) 0.7690(5)
N6_2 N 0.2986(7) 0.6354(6) 0.9290(5)
C1_2 C 0.4857(8) 0.7169(8) 0.8070(6)
C2_2 C 0.4189(9) 0.6579(8) 0.9581(6)
C3_2 C 0.2809(8) 0.6568(7) 0.8325(6)
C4_2 C 0.5606(8) 0.7725(7) 0.6424(6)
H2_2 H 0.4666 0.7820 0.6309
H3_2 H 0.6024 0.8419 0.6192
C5_2 C 0.7059(8) 0.7932(8) 0.7852(7)
H4_2 H 0.7306 0.7445 0.8415
H5_2 H 0.7744 0.7847 0.7363
C6_2 C 0.7022(11) 0.9147(10) 0.8144(9)
C10_2 C 0.1312(8) 0.6597(8) 0.6939(6)
H10_2 H 0.0401 0.6864 0.6879
H11_2 H 0.1866 0.7202 0.6684
C11_2 C 0.0584(8) 0.5868(8) 0.8600(6)
H13_2 H 0.0983 0.5290 0.9041
H28_2 H 0.315767 0.863025 0.940307
H29_2 H 0.37501 0.988443 0.947458
O14_2 O 0.8967(7) 0.6327(7) 0.9733(5)
H1_2 H 0.8538 0.6836 0.9982
H12_2 H 0.9945 0.5507 0.8207
C12_2 C 0.9888(9) 0.6766(9) 0.9183(7)
N8 N 0.1453(15) 0.2377(14) 0.6220(13)
H16 H 0.1324 0.3130 0.6106
H17 H 0.2226 0.2199 0.5932
C13 C 0.0422(16) 0.2110(19) 0.7781(14)
H18 H 0.0585 0.1832 0.8446
C14 C 0.1684(18) 0.2212(18) 0.7259(16)
H20 H 0.2154 0.2850 0.7486
H21 H 0.2224 0.1530 0.7389
C16 C 0.0505(18) 0.188(2) 0.569(2)
H24 H 0.0912 0.1132 0.5856
H25 H 0.0606 0.1540 0.4201
N7 N 0.9545(15) 0.1339(15) 0.732(2)
H14 H 0.8772 0.1355 0.7644
H15 H 0.9895 0.0632 0.7415
H19 H 0.9992 0.2854 0.7799
C15 C 0.923(5) 0.152(5) 0.623(3)
H22 H 0.8927 0.0817 0.5977
H23 H 0.8543 0.2098 0.6125
C17 C 0.996(11) 0.143(4) 0.471(3)
H26 H 0.9160 0.1846 0.4528
H27 H 0.9779 0.0638 0.4799
N7_2 N 0.0455(15) 0.8661(15) 0.268(2)
H14_2 H 0.1228 0.8645 0.2356
H15_2 H 0.0105 0.9368 0.2585
H19_2 H 0.0008 0.7146 0.2201
C15_2 C 0.077(5) 0.848(5) 0.377(3)
H22_2 H 0.1073 0.9183 0.4023
H23_2 H 0.1457 0.7902 0.3875
C17_2 C 0.004(11) 0.857(4) 0.529(3)
H26_2 H 0.0840 0.8154 0.5472
H27_2 H 0.0221 0.9362 0.5201
N8_2 N 0.8547(15) 0.7623(14) 0.3780(13)
H16_2 H 0.8676 0.6870 0.3894
H17_2 H 0.7774 0.7801 0.4068
C13_2 C 0.9578(16) 0.7890(19) 0.2219(14)
H18_2 H 0.9415 0.8168 0.1554
C14_2 C 0.8316(18) 0.7788(18) 0.2741(16)
H20_2 H 0.7846 0.7150 0.2514
H21_2 H 0.7776 0.8470 0.2611
C16_2 C 0.9495(18) 0.812(2) 0.431(2)
H24_2 H 0.9088 0.8868 0.4144
H25_2 H 0.9394 0.8460 0.5799
loop_
_geom_bond_atom_site_label_1
_geom_bond_atom_site_label_2
_geom_bond_site_symmetry_1
_geom_bond_site_symmetry_2
O14 H1 1_555 1_555
C12 O14 1_555 1_555
Zn4 O1 1_555 1_555
Zn2 O2 1_555 1_555
P1 O1 1_555 1_555
P3 O11 1_555 1_555
O2 P1 1_555 1_555
O3 P1 1_555 1_555
O4 C6 1_555 1_555
O5 C6 1_555 1_555
O11 Zn2 1_555 1_555
O12 P3 1_555 1_555
O13 P3 1_555 1_555
N1 C1 1_555 1_555
N2 C3 1_555 1_555
N4 C1 1_555 1_555
N5 C1 1_555 1_555
N6 C2 1_555 1_555
C2 N4 1_555 1_555
C3 N5 1_555 1_555
C4 P1 1_555 1_555
H2 C4 1_555 1_555
H3 C4 1_555 1_555
C5 N1 1_555 1_555
H4 C5 1_555 1_555
H5 C5 1_555 1_555
C6 C5 1_555 1_555
C10 P3 1_555 1_555
H10 C10 1_555 1_555
H11 C10 1_555 1_555
C11 N2 1_555 1_555
H13 C11 1_555 1_555
Zn6 O13 1_555 1_555
Zn8 O3 1_555 1_555
O17 Zn2 1_555 1_555
O19 Zn4 1_555 1_555
O20 Zn2 1_555 1_555
O22 Zn4 1_555 1_555
N1 C4 1_555 1_555
N2 C10 1_555 1_555
N6 C3 1_555 1_555
O16 H28 1_555 1_555
O16 H29 1_555 1_555
Zn3 O7 1_555 1_555
P2 O6 1_555 1_555
O6 Zn6 1_555 1_555
O7 P2 1_555 1_555
O8 P2 1_555 1_555
O9 Zn3 1_555 1_555
O10 C9 1_555 1_555
C7 P2 1_555 1_555
H6 C7 1_555 1_555
H7 C7 1_555 1_555
C8 N3 1_555 1_555
H8 C8 1_555 1_555
H9 C8 1_555 1_555
C9 O9 1_555 1_555
Zn8 O8 1_555 1_555
N3 C7 1_555 1_555
C8 C9 1_555 1_555
Zn9 O7_2 1_555 1_555
P2_2 O19 1_555 1_555
O7_2 P2_2 1_555 1_555
O20 P2_2 1_555 1_555
O9_2 Zn9 1_555 1_555
O10_2 C9_2 1_555 1_555
C7_2 P2_2 1_555 1_555
H6_2 C7_2 1_555 1_555
H7_2 C7_2 1_555 1_555
C8_2 N3_2 1_555 1_555
H8_2 C8_2 1_555 1_555
H9_2 C8_2 1_555 1_555
C9_2 O9_2 1_555 1_555
N3_2 C7_2 1_555 1_555
C8_2 C9_2 1_555 1_555
Zn6 O1_2 1_555 1_555
Zn8 O2_2 1_555 1_555
P1_2 O1_2 1_555 1_555
P3_2 O11_2 1_555 1_555
O2_2 P1_2 1_555 1_555
O17 P1_2 1_555 1_555
O18 C6_2 1_555 1_555
O5_2 C6_2 1_555 1_555
O11_2 Zn8 1_555 1_555
O21 P3_2 1_555 1_555
O22 P3_2 1_555 1_555
N1_2 C1_2 1_555 1_555
N2_2 C3_2 1_555 1_555
N4_2 C1_2 1_555 1_555
N5_2 C1_2 1_555 1_555
N6_2 C2_2 1_555 1_555
C2_2 N4_2 1_555 1_555
C3_2 N5_2 1_555 1_555
C4_2 P1_2 1_555 1_555
H2_2 C4_2 1_555 1_555
H3_2 C4_2 1_555 1_555
C5_2 N1_2 1_555 1_555
H4_2 C5_2 1_555 1_555
H5_2 C5_2 1_555 1_555
C6_2 C5_2 1_555 1_555
C10_2 P3_2 1_555 1_555
H10_2 C10_2 1_555 1_555
H11_2 C10_2 1_555 1_555
C11_2 N2_2 1_555 1_555
H13_2 C11_2 1_555 1_555
N1_2 C4_2 1_555 1_555
N2_2 C10_2 1_555 1_555
N6_2 C3_2 1_555 1_555
O16_2 H28_2 1_555 1_555
O16_2 H29_2 1_555 1_555
O14_2 H1_2 1_555 1_555
C12_2 O14_2 1_555 1_555
N8 H16 1_555 1_555
H17 N8 1_555 1_555
H18 C13 1_555 1_555
C14 N8 1_555 1_555
H20 C14 1_555 1_555
H21 C14 1_555 1_555
C16 N8 1_555 1_555
H24 C16 1_555 1_555
C13 C14 1_555 1_555
N7 H14 1_555 1_555
H15 N7 1_555 1_555
C15 N7 1_555 1_555
H22 C15 1_555 1_555
H23 C15 1_555 1_555
H26 C17 1_555 1_555
H27 C17 1_555 1_555
N7_2 H14_2 1_555 1_555
H15_2 N7_2 1_555 1_555
C15_2 N7_2 1_555 1_555
H22_2 C15_2 1_555 1_555
H23_2 C15_2 1_555 1_555
H26_2 C17_2 1_555 1_555
H27_2 C17_2 1_555 1_555
N8_2 H16_2 1_555 1_555
H17_2 N8_2 1_555 1_555
H18_2 C13_2 1_555 1_555
C14_2 N8_2 1_555 1_555
H20_2 C14_2 1_555 1_555
H21_2 C14_2 1_555 1_555
C16_2 N8_2 1_555 1_555
H24_2 C16_2 1_555 1_555
C13_2 C14_2 1_555 1_555

#END
