
###############################################################################
#
# This file contains modified crystal structure data generated from the
# MOF subset of the Cambridge Structural Database (CSD) v543 
# hosted by the Cambridge Crystallographic Data Centre (CCDC).
#
# This work is licensed under the Creative Commons
# Attribution-NonCommercial-ShareAlike 4.0 International License.
# To view a copy of this license, visit
# http://creativecommons.org/licenses/by-nc-sa/4.0/
# or send a letter to
# Creative Commons, PO Box 1866, Mountain View, CA 94042, USA.
#
# CIF created using the CSD Python API on 29 September 2022
# The structure has been converted into the P1 space group
# The structure has a 3D framework
# The original CSD entry HUVHOX is in the orthorhombic crystal system
# The framework has been calculated to contain at least 10.0% void space
# The void calculation uses a probe of radius 1.32A, grid spacing 0.4
# The framework is charged, counterions have been retained in the structure
# H atom positions have been added when not included in the experimental data
#
###############################################################################

data_HUVHOX
_chemical_formula_moiety         '(C36 H40 N20 O41 P8 Zn6 8-)n'
_symmetry_cell_setting           triclinic
_symmetry_space_group_name_H-M   'P 1'
_symmetry_Int_Tables_number      1
_space_group_name_Hall           'P 1'
loop_
_symmetry_equiv_pos_site_id
_symmetry_equiv_pos_as_xyz
1 x,y,z
_cell_length_a                   15.444(8)
_cell_length_b                   17.895(10)
_cell_length_c                   8.979(5)
_cell_angle_alpha                90
_cell_angle_beta                 90
_cell_angle_gamma                90
_cell_volume                     2481.53
loop_
_atom_site_label
_atom_site_type_symbol
_atom_site_fract_x
_atom_site_fract_y
_atom_site_fract_z
Zn1 Zn 0.08578(4) 0.39508(3) 0.05717(7)
O1 O 0.0738(2) 0.4800(2) 0.1954(5)
N2 N 0.0041(3) 0.3163(2) 0.1368(5)
C5 C 0.0366(5) 0.2500 0.0871(8)
O7 O 0.0738(2) 0.0200(2) 0.1954(5)
N5 N 0.0041(3) 0.1837(2) 0.1368(5)
Zn6 Zn 0.08578(4) 0.10492(3) 0.05717(7)
O15 O 0.2087(2) 0.3921(2) 0.0030(5)
H9 H 0.146448 0.27645 0.0368403
O6 O 0.0954(4) 0.2500 0.9951(6)
O13 O 0.0355(3) 0.4193(2) 0.8649(4)
P1 P 0.98674(9) 0.51468(7) 0.23076(14)
O2 O 0.9645(3) 0.5807(2) 0.1351(4)
O3 O 0.9809(3) 0.5375(2) 0.3934(4)
O4 O 0.7087(2) 0.3921(2) 0.4970(5)
O5 O 0.7282(3) 0.3595(3) 0.2627(6)
N1 N 0.9081(3) 0.3781(2) 0.2901(5)
N3 N 0.9152(4) 0.2500 0.3050(7)
C1 C 0.9051(3) 0.4440(3) 0.1932(6)
H1 H 0.8485 0.4669 0.2024
H2 H 0.9115 0.4276 0.0908
C2 C 0.8521(3) 0.3801(3) 0.4189(6)
H3 H 0.8635 0.4259 0.4733
H4 H 0.8672 0.3387 0.4836
C3 C 0.7566(4) 0.3760(3) 0.3860(7)
C4 C 0.9437(3) 0.3129(3) 0.2447(6)
O10 O 0.7087(2) 0.1079(2) 0.4970(5)
O11 O 0.7282(3) 0.1405(3) 0.2627(6)
N4 N 0.9081(3) 0.1219(2) 0.2901(5)
C6 C 0.9051(3) 0.0560(3) 0.1932(6)
H5 H 0.8485 0.0331 0.2024
H6 H 0.9115 0.0724 0.0908
C7 C 0.8521(3) 0.1199(3) 0.4189(6)
H7 H 0.8635 0.0741 0.4733
H8 H 0.8672 0.1613 0.4836
C8 C 0.7566(4) 0.1240(3) 0.3860(7)
C9 C 0.9437(3) 0.1871(3) 0.2447(6)
Zn4 Zn 0.58578(4) 0.10492(3) 0.44283(7)
Zn5 Zn 0.58578(4) 0.39508(3) 0.44283(7)
Zn2 Zn 0.91422(4) 0.60492(3) 0.94283(7)
O12 O 0.9262(2) 0.5200(2) 0.8046(5)
O14 O 0.7913(2) 0.6079(2) 0.9970(5)
N6 N 0.9959(3) 0.6837(2) 0.8632(5)
P2 P 0.98674(9) 0.98532(7) 0.23076(14)
O8 O 0.9645(3) 0.9193(2) 0.1351(4)
O9 O 0.9809(3) 0.9625(2) 0.3934(4)
Zn3 Zn 0.91422(4) 0.89508(3) 0.94283(7)
P2_2 P 0.51326(9) 0.01468(7) 0.73076(14)
O8_2 O 0.5355(3) 0.0807(2) 0.6351(4)
O9_2 O 0.5191(3) 0.0375(2) 0.8934(4)
Zn1_2 Zn 0.41422(4) 0.60492(3) 0.55717(7)
P1_2 P 0.51326(9) 0.48532(7) 0.73076(14)
O1_2 O 0.4262(2) 0.5200(2) 0.6954(5)
O2_2 O 0.5355(3) 0.4193(2) 0.6351(4)
O3_2 O 0.5191(3) 0.4625(2) 0.8934(4)
O5_2 O 0.7718(3) 0.6405(3) 0.7627(6)
O6_2 O 0.4046(4) 0.7500 0.4951(6)
N1_2 N 0.5919(3) 0.6219(2) 0.7901(5)
N2_2 N 0.4959(3) 0.6837(2) 0.6368(5)
N3_2 N 0.5848(4) 0.7500 0.8050(7)
C1_2 C 0.5949(3) 0.5560(3) 0.6932(6)
H1_2 H 0.6515 0.5331 0.7024
H2_2 H 0.5885 0.5724 0.5908
C2_2 C 0.6479(3) 0.6199(3) 0.9189(6)
H3_2 H 0.6365 0.5741 0.9733
H4_2 H 0.6328 0.6613 0.9836
C3_2 C 0.7434(4) 0.6240(3) 0.8860(7)
C4_2 C 0.5563(3) 0.6871(3) 0.7447(6)
C5_2 C 0.4634(5) 0.7500 0.5871(8)
O7_2 O 0.4262(2) 0.9800(2) 0.6954(5)
O10_2 O 0.7913(2) 0.8921(2) 0.9970(5)
O11_2 O 0.7718(3) 0.8595(3) 0.7627(6)
N4_2 N 0.5919(3) 0.8781(2) 0.7901(5)
N5_2 N 0.4959(3) 0.8163(2) 0.6368(5)
C6_2 C 0.5949(3) 0.9440(3) 0.6932(6)
H5_2 H 0.6515 0.9669 0.7024
H6_2 H 0.5885 0.9276 0.5908
C7_2 C 0.6479(3) 0.8801(3) 0.9189(6)
H7_2 H 0.6365 0.9259 0.9733
H8_2 H 0.6328 0.8387 0.9836
C8_2 C 0.7434(4) 0.8760(3) 0.8860(7)
C9_2 C 0.5563(3) 0.8129(3) 0.7447(6)
Zn6_2 Zn 0.41422(4) 0.89508(3) 0.55717(7)
O12_2 O 0.5738(2) 0.4800(2) 0.3046(5)
O13_2 O 0.4645(3) 0.5807(2) 0.3649(4)
O15_2 O 0.2913(2) 0.6079(2) 0.5030(5)
N6_2 N 0.5041(3) 0.3163(2) 0.3632(5)
H9_2 H 0.353552 0.72355 0.53684
O14_2 O 0.2087(2) 0.1079(2) 0.0030(5)
P1_3 P 0.01326(9) 0.01468(7) 0.76924(14)
O2_3 O 0.0355(3) 0.0807(2) 0.8649(4)
O3_3 O 0.0191(3) 0.0375(2) 0.6066(4)
O4_2 O 0.2913(2) 0.8921(2) 0.5030(5)
O5_3 O 0.2718(3) 0.8595(3) 0.7373(6)
N1_3 N 0.0919(3) 0.8781(2) 0.7099(5)
N3_3 N 0.0848(4) 0.7500 0.6950(7)
C1_3 C 0.0949(3) 0.9440(3) 0.8068(6)
H1_3 H 0.1515 0.9669 0.7976
H2_3 H 0.0885 0.9276 0.9092
C2_3 C 0.1479(3) 0.8801(3) 0.5811(6)
H3_3 H 0.1365 0.9259 0.5267
H4_3 H 0.1328 0.8387 0.5164
C3_3 C 0.2434(4) 0.8760(3) 0.6140(7)
C4_3 C 0.0563(3) 0.8129(3) 0.7553(6)
P2_3 P 0.01326(9) 0.48532(7) 0.76924(14)
O9_3 O 0.0191(3) 0.4625(2) 0.6066(4)
O11_3 O 0.2718(3) 0.6405(3) 0.7373(6)
N4_3 N 0.0919(3) 0.6219(2) 0.7099(5)
C6_3 C 0.0949(3) 0.5560(3) 0.8068(6)
H5_3 H 0.1515 0.5331 0.7976
H6_3 H 0.0885 0.5724 0.9092
C7_3 C 0.1479(3) 0.6199(3) 0.5811(6)
H7_3 H 0.1365 0.5741 0.5267
H8_3 H 0.1328 0.6613 0.5164
C8_3 C 0.2434(4) 0.6240(3) 0.6140(7)
C9_3 C 0.0563(3) 0.6871(3) 0.7553(6)
O6_3 O 0.9046(4) 0.7500 0.0049(6)
O1_3 O 0.9262(2) 0.9800(2) 0.8046(5)
N2_3 N 0.9959(3) 0.8163(2) 0.8632(5)
C5_3 C 0.9634(5) 0.7500 0.9129(8)
H9_3 H 0.853552 0.77645 0.96316
O1_4 O 0.5738(2) 0.0200(2) 0.3046(5)
O5_4 O 0.2282(3) 0.1405(3) 0.2373(6)
O6_4 O 0.5954(4) 0.2500 0.5049(6)
N1_4 N 0.4081(3) 0.1219(2) 0.2099(5)
N2_4 N 0.5041(3) 0.1837(2) 0.3632(5)
N3_4 N 0.4152(4) 0.2500 0.1950(7)
C1_4 C 0.4051(3) 0.0560(3) 0.3068(6)
H1_4 H 0.3485 0.0331 0.2976
H2_4 H 0.4115 0.0724 0.4092
C2_4 C 0.3521(3) 0.1199(3) 0.0811(6)
H3_4 H 0.3635 0.0741 0.0267
H4_4 H 0.3672 0.1613 0.0164
C3_4 C 0.2566(4) 0.1240(3) 0.1140(7)
C4_4 C 0.4437(3) 0.1871(3) 0.2553(6)
C5_4 C 0.5366(5) 0.2500 0.4129(8)
P2_4 P 0.48674(9) 0.51468(7) 0.26924(14)
O9_4 O 0.4809(3) 0.5375(2) 0.1066(4)
O11_4 O 0.2282(3) 0.3595(3) 0.2373(6)
N4_4 N 0.4081(3) 0.3781(2) 0.2099(5)
C6_4 C 0.4051(3) 0.4440(3) 0.3068(6)
H5_4 H 0.3485 0.4669 0.2976
H6_4 H 0.4115 0.4276 0.4092
C7_4 C 0.3521(3) 0.3801(3) 0.0811(6)
H7_4 H 0.3635 0.4259 0.0267
H8_4 H 0.3672 0.3387 0.0164
C8_4 C 0.2566(4) 0.3760(3) 0.1140(7)
C9_4 C 0.4437(3) 0.3129(3) 0.2553(6)
H9_4 H 0.646448 0.22355 0.46316
P1_4 P 0.48674(9) 0.98532(7) 0.26924(14)
O2_4 O 0.4645(3) 0.9193(2) 0.3649(4)
O3_4 O 0.4809(3) 0.9625(2) 0.1066(4)
H9_5 H 0.853552 0.72355 0.96316
H9_6 H 0.646448 0.27645 0.46316
H9_7 H 0.146448 0.22355 0.0368403
H9_8 H 0.353552 0.77645 0.53684
loop_
_geom_bond_atom_site_label_1
_geom_bond_atom_site_label_2
_geom_bond_site_symmetry_1
_geom_bond_site_symmetry_2
Zn1 O1 1_555 1_555
N2 Zn1 1_555 1_555
C5 N2 1_555 1_555
O7 Zn6 1_555 1_555
N5 C5 1_555 1_555
Zn6 N5 1_555 1_555
O15 Zn1 1_555 1_555
O2 P1 1_555 1_555
O3 P1 1_555 1_555
O4 C3 1_555 1_555
O5 C3 1_555 1_555
N1 C1 1_555 1_555
N3 C4 1_555 1_555
C1 P1 1_555 1_555
H1 C1 1_555 1_555
H2 C1 1_555 1_555
C2 N1 1_555 1_555
H3 C2 1_555 1_555
H4 C2 1_555 1_555
C3 C2 1_555 1_555
C4 N1 1_555 1_555
O10 C8 1_555 1_555
O11 C8 1_555 1_555
N4 C6 1_555 1_555
H5 C6 1_555 1_555
H6 C6 1_555 1_555
C7 N4 1_555 1_555
H7 C7 1_555 1_555
H8 C7 1_555 1_555
C8 C7 1_555 1_555
C9 N3 1_555 1_555
Zn4 O10 1_555 1_555
Zn5 O4 1_555 1_555
N4 C9 1_555 1_555
O12 Zn2 1_555 1_555
O14 Zn2 1_555 1_555
N6 Zn2 1_555 1_555
O8 P2 1_555 1_555
O9 P2 1_555 1_555
O8_2 P2_2 1_555 1_555
O9_2 P2_2 1_555 1_555
Zn4 O8_2 1_555 1_555
Zn1_2 O1_2 1_555 1_555
P1_2 O1_2 1_555 1_555
O2_2 P1_2 1_555 1_555
O3_2 P1_2 1_555 1_555
O14 C3_2 1_555 1_555
O5_2 C3_2 1_555 1_555
O6_2 C5_2 1_555 1_555
N1_2 C1_2 1_555 1_555
N2_2 Zn1_2 1_555 1_555
N3_2 C4_2 1_555 1_555
C1_2 P1_2 1_555 1_555
H1_2 C1_2 1_555 1_555
H2_2 C1_2 1_555 1_555
C2_2 N1_2 1_555 1_555
H3_2 C2_2 1_555 1_555
H4_2 C2_2 1_555 1_555
C3_2 C2_2 1_555 1_555
C4_2 N1_2 1_555 1_555
C5_2 N2_2 1_555 1_555
O7_2 Zn6_2 1_555 1_555
O10_2 C8_2 1_555 1_555
O11_2 C8_2 1_555 1_555
N4_2 C6_2 1_555 1_555
N5_2 C5_2 1_555 1_555
H5_2 C6_2 1_555 1_555
H6_2 C6_2 1_555 1_555
C7_2 N4_2 1_555 1_555
H7_2 C7_2 1_555 1_555
H8_2 C7_2 1_555 1_555
C8_2 C7_2 1_555 1_555
C9_2 N3_2 1_555 1_555
Zn5 O2_2 1_555 1_555
Zn3 O10_2 1_555 1_555
Zn6_2 N5_2 1_555 1_555
O12_2 Zn5 1_555 1_555
O13_2 Zn1_2 1_555 1_555
O15_2 Zn1_2 1_555 1_555
N6_2 Zn5 1_555 1_555
N2_2 C4_2 1_555 1_555
N4_2 C9_2 1_555 1_555
N5_2 C9_2 1_555 1_555
O6_2 H9_2 1_555 1_555
O14_2 Zn6 1_555 1_555
O2_3 P1_3 1_555 1_555
O3_3 P1_3 1_555 1_555
O4_2 C3_3 1_555 1_555
O5_3 C3_3 1_555 1_555
N1_3 C1_3 1_555 1_555
N3_3 C4_3 1_555 1_555
H1_3 C1_3 1_555 1_555
H2_3 C1_3 1_555 1_555
C2_3 N1_3 1_555 1_555
H3_3 C2_3 1_555 1_555
H4_3 C2_3 1_555 1_555
C3_3 C2_3 1_555 1_555
C4_3 N1_3 1_555 1_555
O13 P2_3 1_555 1_555
O9_3 P2_3 1_555 1_555
O15_2 C8_3 1_555 1_555
O11_3 C8_3 1_555 1_555
N4_3 C6_3 1_555 1_555
C6_3 P2_3 1_555 1_555
H5_3 C6_3 1_555 1_555
H6_3 C6_3 1_555 1_555
C7_3 N4_3 1_555 1_555
H7_3 C7_3 1_555 1_555
H8_3 C7_3 1_555 1_555
C8_3 C7_3 1_555 1_555
C9_3 N3_3 1_555 1_555
Zn6_2 O4_2 1_555 1_555
N4_3 C9_3 1_555 1_555
Zn3 O1_3 1_555 1_555
N2_3 Zn3 1_555 1_555
C5_3 N2_3 1_555 1_555
N6 C5_3 1_555 1_555
Zn4 O1_4 1_555 1_555
O14_2 C3_4 1_555 1_555
O5_4 C3_4 1_555 1_555
O6_4 C5_4 1_555 1_555
N1_4 C1_4 1_555 1_555
N2_4 Zn4 1_555 1_555
N3_4 C4_4 1_555 1_555
H1_4 C1_4 1_555 1_555
H2_4 C1_4 1_555 1_555
C2_4 N1_4 1_555 1_555
H3_4 C2_4 1_555 1_555
H4_4 C2_4 1_555 1_555
C3_4 C2_4 1_555 1_555
C4_4 N1_4 1_555 1_555
C5_4 N2_4 1_555 1_555
P2_4 O12_2 1_555 1_555
O13_2 P2_4 1_555 1_555
O9_4 P2_4 1_555 1_555
O15 C8_4 1_555 1_555
O11_4 C8_4 1_555 1_555
N4_4 C6_4 1_555 1_555
N6_2 C5_4 1_555 1_555
C6_4 P2_4 1_555 1_555
H5_4 C6_4 1_555 1_555
H6_4 C6_4 1_555 1_555
C7_4 N4_4 1_555 1_555
H7_4 C7_4 1_555 1_555
H8_4 C7_4 1_555 1_555
C8_4 C7_4 1_555 1_555
C9_4 N3_4 1_555 1_555
N2_4 C4_4 1_555 1_555
N4_4 C9_4 1_555 1_555
N6_2 C9_4 1_555 1_555
O6_4 H9_4 1_555 1_555
O2_4 P1_4 1_555 1_555
O3_4 P1_4 1_555 1_555
Zn6_2 O2_4 1_555 1_555
O6_4 H9_6 1_555 1_555
O6_2 H9_8 1_555 1_555

#END
