
###############################################################################
#
# This file contains modified crystal structure data generated from the
# MOF subset of the Cambridge Structural Database (CSD) v543 
# hosted by the Cambridge Crystallographic Data Centre (CCDC).
#
# This work is licensed under the Creative Commons
# Attribution-NonCommercial-ShareAlike 4.0 International License.
# To view a copy of this license, visit
# http://creativecommons.org/licenses/by-nc-sa/4.0/
# or send a letter to
# Creative Commons, PO Box 1866, Mountain View, CA 94042, USA.
#
# CIF created using the CSD Python API on 29 September 2022
# The structure has been converted into the P1 space group
# The structure has a 3D framework
# The original CSD entry HUVLUF01 is in the orthorhombic crystal system
# The framework has been calculated to contain at least 10.0% void space
# The void calculation uses a probe of radius 1.32A, grid spacing 0.4
# The framework is charged, counterions have been retained in the structure
#
###############################################################################

data_HUVLUF01
_chemical_formula_moiety         '(C12 Co17 O51 V16 9-)n'
_symmetry_cell_setting           triclinic
_symmetry_space_group_name_H-M   'P 1'
_symmetry_Int_Tables_number      1
_space_group_name_Hall           'P 1'
loop_
_symmetry_equiv_pos_site_id
_symmetry_equiv_pos_as_xyz
1 x,y,z
_cell_length_a                   11.624(2)
_cell_length_b                   9.968(2)
_cell_length_c                   14.900(3)
_cell_angle_alpha                90
_cell_angle_beta                 90
_cell_angle_gamma                90
_cell_volume                     1726.43
loop_
_atom_site_label
_atom_site_type_symbol
_atom_site_fract_x
_atom_site_fract_y
_atom_site_fract_z
Co1 Co 0.26381(5) 0.0000 0.5000
V1 V 0.14101(4) 0.23807(5) 0.36329(3)
O1 O 0.1703(3) 0.1931(3) 0.2500
O2 O -0.0000 0.3100(3) 0.36877(19)
O3 O 0.14104(18) 0.0995(2) 0.42525(14)
O4 O 0.26368(18) 0.15406(19) 0.59888(16)
O5 O 0.40430(17) 0.09845(19) 0.43744(13)
C1 C 0.5000 0.0556(4) 0.4635(3)
O6 O 0.59570(17) 0.09845(19) 0.43744(13)
Co2 Co 0.73619(5) 0.0000 0.5000
V3 V 0.35899(4) 0.26193(5) 0.63671(3)
O11 O 0.23632(18) 0.34594(19) 0.40112(16)
O12 O 0.85896(18) 0.0995(2) 0.42525(14)
O14 O 0.73632(18) 0.15406(19) 0.59888(16)
V5 V 0.14101(4) 0.23807(5) 0.13671(3)
O19 O 0.3297(3) 0.3069(3) 0.7500
O20 O 0.5000 0.1900(3) 0.63123(19)
O21 O 0.35896(18) 0.4005(2) 0.57475(14)
Co3 Co 0.23619(5) 0.5000 0.5000
V7 V 0.85899(4) 0.23807(5) 0.36329(3)
V9 V 0.64101(4) 0.26193(5) 0.63671(3)
Co1_2 Co 0.26381(5) 1.0000 0.5000
C2 C 0.5000 0.9444(4) 0.5365(3)
O7 O 0.59570(17) 0.90155(19) 0.56256(13)
O8 O 0.40430(17) 0.90155(19) 0.56256(13)
O9 O 0.14104(18) 0.9005(2) 0.57475(14)
O10 O 0.26368(18) 0.84594(19) 0.40112(16)
Co2_2 Co 0.73619(5) 1.0000 0.5000
V2 V 0.14101(4) 0.76193(5) 0.63671(3)
V4 V 0.35899(4) 0.73807(5) 0.36329(3)
O13 O 0.85896(18) 0.9005(2) 0.57475(14)
O15 O 0.1703(3) 0.8069(3) 0.7500
O16 O -0.0000 0.6900(3) 0.63123(19)
O17 O 0.73632(18) 0.84594(19) 0.40112(16)
O18 O 0.23632(18) 0.65406(19) 0.59888(16)
O22 O 0.3297(3) 0.6931(3) 0.2500
O23 O 0.5000 0.8100(3) 0.36877(19)
O24 O 0.35896(18) 0.5995(2) 0.42525(14)
V8 V 0.85899(4) 0.76193(5) 0.63671(3)
V10 V 0.14101(4) 0.76193(5) 0.86329(3)
O2_2 O 1.0000 0.3100(3) 0.36877(19)
O16_2 O 1.0000 0.6900(3) 0.63123(19)
C1_2 C -0.0000 0.5556(4) 0.4635(3)
O6_2 O 0.09570(17) 0.59845(19) 0.43744(13)
C2_2 C -0.0000 0.4444(4) 0.5365(3)
O7_2 O 0.09570(17) 0.40155(19) 0.56256(13)
Co1_3 Co 0.76381(5) 0.5000 0.5000
V1_2 V 0.64101(4) 0.73807(5) 0.36329(3)
O1_2 O 0.6703(3) 0.6931(3) 0.2500
O3_2 O 0.64104(18) 0.5995(2) 0.42525(14)
O4_2 O 0.76368(18) 0.65406(19) 0.59888(16)
O5_2 O 0.90430(17) 0.59845(19) 0.43744(13)
C1_3 C 1.0000 0.5556(4) 0.4635(3)
C2_3 C 1.0000 0.4444(4) 0.5365(3)
O8_2 O 0.90430(17) 0.40155(19) 0.56256(13)
O9_2 O 0.64104(18) 0.4005(2) 0.57475(14)
O10_2 O 0.76368(18) 0.34594(19) 0.40112(16)
O15_2 O 0.6703(3) 0.3069(3) 0.7500
V5_2 V 0.64101(4) 0.73807(5) 0.13671(3)
O19_2 O 0.8297(3) 0.8069(3) 0.7500
O22_2 O 0.8297(3) 0.1931(3) 0.2500
V10_2 V 0.64101(4) 0.26193(5) 0.86329(3)
Co1_4 Co 0.26381(5) 0.0000 0.0000
O2_3 O -0.0000 0.3100(3) 0.13123(19)
O3_3 O 0.14104(18) 0.0995(2) 0.07475(14)
O5_3 O 0.40430(17) 0.09845(19) 0.06256(13)
C1_4 C 0.5000 0.0556(4) 0.0365(3)
O6_3 O 0.59570(17) 0.09845(19) 0.06256(13)
Co2_3 Co 0.73619(5) 0.0000 0.0000
O11_2 O 0.23632(18) 0.34594(19) 0.09888(16)
O12_2 O 0.85896(18) 0.0995(2) 0.07475(14)
Co3_2 Co 0.23619(5) 0.5000 0.0000
V7_2 V 0.85899(4) 0.23807(5) 0.13671(3)
Co1_5 Co 0.26381(5) 0.0000 1.0000
O4_3 O 0.26368(18) 0.15406(19) 0.90112(16)
Co2_4 Co 0.73619(5) 0.0000 1.0000
V3_2 V 0.35899(4) 0.26193(5) 0.86329(3)
O14_2 O 0.73632(18) 0.15406(19) 0.90112(16)
O20_2 O 0.5000 0.1900(3) 0.86877(19)
O21_2 O 0.35896(18) 0.4005(2) 0.92525(14)
Co3_3 Co 0.23619(5) 0.5000 1.0000
Co1_6 Co 0.26381(5) 1.0000 0.0000
O10_3 O 0.26368(18) 0.84594(19) 0.09888(16)
Co2_5 Co 0.73619(5) 1.0000 0.0000
V4_2 V 0.35899(4) 0.73807(5) 0.13671(3)
O17_2 O 0.73632(18) 0.84594(19) 0.09888(16)
O23_2 O 0.5000 0.8100(3) 0.13123(19)
O24_2 O 0.35896(18) 0.5995(2) 0.07475(14)
Co1_7 Co 0.26381(5) 1.0000 1.0000
C2_4 C 0.5000 0.9444(4) 0.9635(3)
O7_3 O 0.59570(17) 0.90155(19) 0.93744(13)
O8_3 O 0.40430(17) 0.90155(19) 0.93744(13)
O9_3 O 0.14104(18) 0.9005(2) 0.92525(14)
Co2_6 Co 0.73619(5) 1.0000 1.0000
O13_2 O 0.85896(18) 0.9005(2) 0.92525(14)
O16_3 O -0.0000 0.6900(3) 0.86877(19)
O18_2 O 0.23632(18) 0.65406(19) 0.90112(16)
V8_2 V 0.85899(4) 0.76193(5) 0.86329(3)
O2_4 O 1.0000 0.3100(3) 0.13123(19)
O16_4 O 1.0000 0.6900(3) 0.86877(19)
C1_5 C -0.0000 0.5556(4) 0.0365(3)
O6_4 O 0.09570(17) 0.59845(19) 0.06256(13)
C2_5 C -0.0000 0.4444(4) 0.9635(3)
O7_4 O 0.09570(17) 0.40155(19) 0.93744(13)
Co1_8 Co 0.76381(5) 0.5000 0.0000
O3_4 O 0.64104(18) 0.5995(2) 0.07475(14)
O5_4 O 0.90430(17) 0.59845(19) 0.06256(13)
C1_6 C 1.0000 0.5556(4) 0.0365(3)
O10_4 O 0.76368(18) 0.34594(19) 0.09888(16)
Co1_9 Co 0.76381(5) 0.5000 1.0000
O4_4 O 0.76368(18) 0.65406(19) 0.90112(16)
C2_6 C 1.0000 0.4444(4) 0.9635(3)
O8_4 O 0.90430(17) 0.40155(19) 0.93744(13)
O9_4 O 0.64104(18) 0.4005(2) 0.92525(14)
loop_
_geom_bond_atom_site_label_1
_geom_bond_atom_site_label_2
_geom_bond_site_symmetry_1
_geom_bond_site_symmetry_2
Co1 O3 1_555 1_555
V1 O1 1_555 1_555
O1 V5 1_555 1_555
O2 V1 1_555 1_555
O3 V1 1_555 1_555
O4 Co1 1_555 1_555
O5 Co1 1_555 1_555
C1 O5 1_555 1_555
O6 C1 1_555 1_555
Co2 O6 1_555 1_555
V3 O4 1_555 1_555
O11 V1 1_555 1_555
O12 Co2 1_555 1_555
O14 Co2 1_555 1_555
O19 V3 1_555 1_555
O20 V3 1_555 1_555
O21 V3 1_555 1_555
Co3 O11 1_555 1_555
V7 O12 1_555 1_555
V9 O14 1_555 1_555
O20 V9 1_555 1_555
O21 Co3 1_555 1_555
O7 C2 1_555 1_555
O8 Co1_2 1_555 1_555
O9 Co1_2 1_555 1_555
O10 Co1_2 1_555 1_555
V2 O9 1_555 1_555
V4 O10 1_555 1_555
O13 Co2_2 1_555 1_555
O15 V2 1_555 1_555
O16 V2 1_555 1_555
O17 Co2_2 1_555 1_555
O18 V2 1_555 1_555
O22 V4 1_555 1_555
O23 V4 1_555 1_555
O24 V4 1_555 1_555
V8 O13 1_555 1_555
V10 O15 1_555 1_555
C2 O8 1_555 1_555
O7 Co2_2 1_555 1_555
V7 O2_2 1_555 1_555
V8 O16_2 1_555 1_555
O6_2 C1_2 1_555 1_555
C2_2 C1_2 1_555 1_555
O7_2 C2_2 1_555 1_555
Co3 O6_2 1_555 1_555
O24 Co3 1_555 1_555
O18 Co3 1_555 1_555
O7_2 Co3 1_555 1_555
Co1_3 O3_2 1_555 1_555
V1_2 O1_2 1_555 1_555
O1_2 V5_2 1_555 1_555
O23 V1_2 1_555 1_555
O3_2 V1_2 1_555 1_555
O4_2 Co1_3 1_555 1_555
O5_2 Co1_3 1_555 1_555
C1_3 O5_2 1_555 1_555
C2_3 C1_3 1_555 1_555
O8_2 Co1_3 1_555 1_555
O9_2 Co1_3 1_555 1_555
O10_2 Co1_3 1_555 1_555
V9 O9_2 1_555 1_555
V8 O4_2 1_555 1_555
V7 O10_2 1_555 1_555
O17 V1_2 1_555 1_555
O15_2 V9 1_555 1_555
O19_2 V8 1_555 1_555
O22_2 V7 1_555 1_555
V10_2 O15_2 1_555 1_555
C2_3 O8_2 1_555 1_555
Co1_4 O3_3 1_555 1_555
O2_3 V5 1_555 1_555
O3_3 V5 1_555 1_555
O5_3 Co1_4 1_555 1_555
C1_4 O5_3 1_555 1_555
O6_3 C1_4 1_555 1_555
Co2_3 O6_3 1_555 1_555
O11_2 V5 1_555 1_555
O12_2 Co2_3 1_555 1_555
Co3_2 O11_2 1_555 1_555
V7_2 O12_2 1_555 1_555
O4_3 Co1_5 1_555 1_555
V3_2 O4_3 1_555 1_555
O14_2 Co2_4 1_555 1_555
O19 V3_2 1_555 1_555
O20_2 V3_2 1_555 1_555
O21_2 V3_2 1_555 1_555
V10_2 O14_2 1_555 1_555
O20_2 V10_2 1_555 1_555
O21_2 Co3_3 1_555 1_555
O10_3 Co1_6 1_555 1_555
V4_2 O10_3 1_555 1_555
O17_2 Co2_5 1_555 1_555
O22 V4_2 1_555 1_555
O23_2 V4_2 1_555 1_555
O24_2 V4_2 1_555 1_555
O7_3 C2_4 1_555 1_555
O8_3 Co1_7 1_555 1_555
O9_3 Co1_7 1_555 1_555
V10 O9_3 1_555 1_555
O13_2 Co2_6 1_555 1_555
O16_3 V10 1_555 1_555
O18_2 V10 1_555 1_555
V8_2 O13_2 1_555 1_555
C2_4 O8_3 1_555 1_555
O7_3 Co2_6 1_555 1_555
V7_2 O2_4 1_555 1_555
V8_2 O16_4 1_555 1_555
V5_2 O17_2 1_555 1_555
O23_2 V5_2 1_555 1_555
O24_2 Co3_2 1_555 1_555
Co3_3 O18_2 1_555 1_555
O22_2 V7_2 1_555 1_555
V8_2 O19_2 1_555 1_555
O6_4 C1_5 1_555 1_555
Co3_2 O6_4 1_555 1_555
O7_4 C2_5 1_555 1_555
O7_4 Co3_3 1_555 1_555
Co1_8 O3_4 1_555 1_555
O3_4 V5_2 1_555 1_555
O5_4 Co1_8 1_555 1_555
C1_6 O5_4 1_555 1_555
O10_4 Co1_8 1_555 1_555
V7_2 O10_4 1_555 1_555
O4_4 Co1_9 1_555 1_555
O8_4 Co1_9 1_555 1_555
O9_4 Co1_9 1_555 1_555
V10_2 O9_4 1_555 1_555
V8_2 O4_4 1_555 1_555
C2_6 O8_4 1_555 1_555

#END
