
###############################################################################
#
# This file contains modified crystal structure data generated from the
# MOF subset of the Cambridge Structural Database (CSD) v543 
# hosted by the Cambridge Crystallographic Data Centre (CCDC).
#
# This work is licensed under the Creative Commons
# Attribution-NonCommercial-ShareAlike 4.0 International License.
# To view a copy of this license, visit
# http://creativecommons.org/licenses/by-nc-sa/4.0/
# or send a letter to
# Creative Commons, PO Box 1866, Mountain View, CA 94042, USA.
#
# CIF created using the CSD Python API on 29 September 2022
# The structure has been converted into the P1 space group
# The structure has a 3D framework
# The original CSD entry HUVLUF is in the orthorhombic crystal system
# The framework has been calculated to contain at least 10.0% void space
# The void calculation uses a probe of radius 1.32A, grid spacing 0.4
# The framework is charged, counterions have been retained in the structure
#
###############################################################################

data_HUVLUF
_chemical_formula_moiety         '(C12 Co17 O51 V16 8-)n'
_symmetry_cell_setting           triclinic
_symmetry_space_group_name_H-M   'P 1'
_symmetry_Int_Tables_number      1
_space_group_name_Hall           'P 1'
loop_
_symmetry_equiv_pos_site_id
_symmetry_equiv_pos_as_xyz
1 x,y,z
_cell_length_a                   11.527(2)
_cell_length_b                   9.9476(18)
_cell_length_c                   14.780(3)
_cell_angle_alpha                90
_cell_angle_beta                 90
_cell_angle_gamma                90
_cell_volume                     1694.76
loop_
_atom_site_label
_atom_site_type_symbol
_atom_site_fract_x
_atom_site_fract_y
_atom_site_fract_z
V1 V 0.35784(5) 0.23749(6) 0.36394(4)
Co1 Co 0.23440(6) -0.0000 0.5000
O1 O 0.3276(3) 0.1917(4) 0.2500
O3 O 0.3573(2) 0.0992(3) 0.42641(17)
O4 O 0.2369(2) 0.1529(3) 0.59781(18)
O5 O 0.0965(2) 0.0976(2) 0.43676(18)
C1 C 0.0000 0.0556(5) 0.4635(3)
V3 V 0.14216(5) 0.26251(6) 0.63606(4)
O11 O 0.2631(2) 0.3471(3) 0.40219(18)
O16 O 0.5000 0.3085(4) 0.3689(2)
V5 V 0.35784(5) 0.23749(6) 0.13606(4)
O19 O 0.1724(3) 0.3083(4) 0.7500
O20 O -0.0000 0.1915(4) 0.6311(2)
O21 O 0.1427(2) 0.4008(3) 0.57359(17)
Co3 Co 0.26560(6) 0.5000 0.5000
Co1_2 Co 0.23440(6) 1.0000 0.5000
O2 O 0.5000 0.6915(4) 0.6311(2)
C2 C 0.0000 0.9444(5) 0.5365(3)
O8 O 0.0965(2) 0.9024(2) 0.56324(18)
O9 O 0.3573(2) 0.9008(3) 0.57359(17)
O10 O 0.2369(2) 0.8471(3) 0.40219(18)
V2 V 0.35784(5) 0.76251(6) 0.63606(4)
V4 V 0.14216(5) 0.73749(6) 0.36394(4)
O15 O 0.3276(3) 0.8083(4) 0.7500
O18 O 0.2631(2) 0.6529(3) 0.59781(18)
O22 O 0.1724(3) 0.6917(4) 0.2500
O23 O 0.0000 0.8085(4) 0.3689(2)
O24 O 0.1427(2) 0.5992(3) 0.42641(17)
V9 V 0.35784(5) 0.76251(6) 0.86394(4)
V10 V 0.64216(5) 0.76251(6) 0.63606(4)
C1_2 C 1.0000 0.0556(5) 0.4635(3)
O6 O 0.9035(2) 0.0976(2) 0.43676(18)
Co2 Co 0.76560(6) -0.0000 0.5000
O12 O 0.6427(2) 0.0992(3) 0.42641(17)
O14 O 0.7631(2) 0.1529(3) 0.59781(18)
O20_2 O 1.0000 0.1915(4) 0.6311(2)
V6 V 0.64216(5) 0.23749(6) 0.36394(4)
V8 V 0.85784(5) 0.26251(6) 0.63606(4)
C2_2 C 1.0000 0.9444(5) 0.5365(3)
O7 O 0.9035(2) 0.9024(2) 0.56324(18)
Co2_2 Co 0.76560(6) 1.0000 0.5000
O13 O 0.6427(2) 0.9008(3) 0.57359(17)
O17 O 0.7631(2) 0.8471(3) 0.40219(18)
O23_2 O 1.0000 0.8085(4) 0.3689(2)
V1_2 V 0.85784(5) 0.73749(6) 0.36394(4)
Co1_3 Co 0.73440(6) 0.5000 0.5000
O1_2 O 0.8276(3) 0.6917(4) 0.2500
O3_2 O 0.8573(2) 0.5992(3) 0.42641(17)
O4_2 O 0.7369(2) 0.6529(3) 0.59781(18)
O5_2 O 0.5965(2) 0.5976(2) 0.43676(18)
C1_3 C 0.5000 0.5556(5) 0.4635(3)
O6_2 O 0.4035(2) 0.5976(2) 0.43676(18)
C2_3 C 0.5000 0.4444(5) 0.5365(3)
O7_2 O 0.4035(2) 0.4024(2) 0.56324(18)
O8_2 O 0.5965(2) 0.4024(2) 0.56324(18)
O9_2 O 0.8573(2) 0.4008(3) 0.57359(17)
O10_2 O 0.7369(2) 0.3471(3) 0.40219(18)
O15_2 O 0.8276(3) 0.3083(4) 0.7500
V5_2 V 0.85784(5) 0.73749(6) 0.13606(4)
O19_2 O 0.6724(3) 0.8083(4) 0.7500
O22_2 O 0.6724(3) 0.1917(4) 0.2500
V9_2 V 0.85784(5) 0.26251(6) 0.86394(4)
Co1_4 Co 0.23440(6) -0.0000 0.0000
O3_3 O 0.3573(2) 0.0992(3) 0.07359(17)
O5_3 O 0.0965(2) 0.0976(2) 0.06324(18)
C1_4 C 0.0000 0.0556(5) 0.0365(3)
O11_2 O 0.2631(2) 0.3471(3) 0.09781(18)
O16_2 O 0.5000 0.3085(4) 0.1311(2)
Co3_2 Co 0.26560(6) 0.5000 0.0000
Co1_5 Co 0.23440(6) -0.0000 1.0000
O4_3 O 0.2369(2) 0.1529(3) 0.90219(18)
V3_2 V 0.14216(5) 0.26251(6) 0.86394(4)
O20_3 O 0.0000 0.1915(4) 0.8689(2)
O21_2 O 0.1427(2) 0.4008(3) 0.92641(17)
Co3_3 Co 0.26560(6) 0.5000 1.0000
Co1_6 Co 0.23440(6) 1.0000 0.0000
O10_3 O 0.2369(2) 0.8471(3) 0.09781(18)
V4_2 V 0.14216(5) 0.73749(6) 0.13606(4)
O23_3 O 0.0000 0.8085(4) 0.1311(2)
O24_2 O 0.1427(2) 0.5992(3) 0.07359(17)
Co1_7 Co 0.23440(6) 1.0000 1.0000
O2_2 O 0.5000 0.6915(4) 0.8689(2)
C2_4 C 0.0000 0.9444(5) 0.9635(3)
O8_3 O 0.0965(2) 0.9024(2) 0.93676(18)
O9_3 O 0.3573(2) 0.9008(3) 0.92641(17)
O18_2 O 0.2631(2) 0.6529(3) 0.90219(18)
V10_2 V 0.64216(5) 0.76251(6) 0.86394(4)
C1_5 C 1.0000 0.0556(5) 0.0365(3)
O6_3 O 0.9035(2) 0.0976(2) 0.06324(18)
Co2_3 Co 0.76560(6) -0.0000 0.0000
O12_2 O 0.6427(2) 0.0992(3) 0.07359(17)
V6_2 V 0.64216(5) 0.23749(6) 0.13606(4)
Co2_4 Co 0.76560(6) -0.0000 1.0000
O14_2 O 0.7631(2) 0.1529(3) 0.90219(18)
O20_4 O 1.0000 0.1915(4) 0.8689(2)
Co2_5 Co 0.76560(6) 1.0000 0.0000
O17_2 O 0.7631(2) 0.8471(3) 0.09781(18)
O23_4 O 1.0000 0.8085(4) 0.1311(2)
C2_5 C 1.0000 0.9444(5) 0.9635(3)
O7_3 O 0.9035(2) 0.9024(2) 0.93676(18)
Co2_6 Co 0.76560(6) 1.0000 1.0000
O13_2 O 0.6427(2) 0.9008(3) 0.92641(17)
Co1_8 Co 0.73440(6) 0.5000 0.0000
O3_4 O 0.8573(2) 0.5992(3) 0.07359(17)
O5_4 O 0.5965(2) 0.5976(2) 0.06324(18)
C1_6 C 0.5000 0.5556(5) 0.0365(3)
O6_4 O 0.4035(2) 0.5976(2) 0.06324(18)
O10_4 O 0.7369(2) 0.3471(3) 0.09781(18)
Co1_9 Co 0.73440(6) 0.5000 1.0000
O4_4 O 0.7369(2) 0.6529(3) 0.90219(18)
C2_6 C 0.5000 0.4444(5) 0.9635(3)
O7_4 O 0.4035(2) 0.4024(2) 0.93676(18)
O8_4 O 0.5965(2) 0.4024(2) 0.93676(18)
O9_4 O 0.8573(2) 0.4008(3) 0.92641(17)
loop_
_geom_bond_atom_site_label_1
_geom_bond_atom_site_label_2
_geom_bond_site_symmetry_1
_geom_bond_site_symmetry_2
V1 O1 1_555 1_555
Co1 O3 1_555 1_555
O1 V5 1_555 1_555
O3 V1 1_555 1_555
O4 Co1 1_555 1_555
O5 Co1 1_555 1_555
C1 O5 1_555 1_555
V3 O4 1_555 1_555
O11 V1 1_555 1_555
O16 V1 1_555 1_555
O19 V3 1_555 1_555
O20 V3 1_555 1_555
O21 V3 1_555 1_555
Co3 O11 1_555 1_555
O21 Co3 1_555 1_555
O2 V2 1_555 1_555
O8 Co1_2 1_555 1_555
O9 Co1_2 1_555 1_555
O10 Co1_2 1_555 1_555
V2 O9 1_555 1_555
V4 O10 1_555 1_555
O15 V2 1_555 1_555
O18 V2 1_555 1_555
O22 V4 1_555 1_555
O23 V4 1_555 1_555
O24 V4 1_555 1_555
V9 O15 1_555 1_555
V10 O2 1_555 1_555
C2 O8 1_555 1_555
O6 C1_2 1_555 1_555
Co2 O6 1_555 1_555
O12 Co2 1_555 1_555
O14 Co2 1_555 1_555
V6 O12 1_555 1_555
V8 O14 1_555 1_555
O20_2 V8 1_555 1_555
O7 C2_2 1_555 1_555
O13 Co2_2 1_555 1_555
O17 Co2_2 1_555 1_555
V10 O13 1_555 1_555
O7 Co2_2 1_555 1_555
V1_2 O1_2 1_555 1_555
Co1_3 O3_2 1_555 1_555
O1_2 V5_2 1_555 1_555
O3_2 V1_2 1_555 1_555
O4_2 Co1_3 1_555 1_555
O5_2 Co1_3 1_555 1_555
C1_3 O5_2 1_555 1_555
O6_2 C1_3 1_555 1_555
C2_3 C1_3 1_555 1_555
O7_2 C2_3 1_555 1_555
O8_2 Co1_3 1_555 1_555
O9_2 Co1_3 1_555 1_555
O10_2 Co1_3 1_555 1_555
Co3 O6_2 1_555 1_555
V8 O9_2 1_555 1_555
V10 O4_2 1_555 1_555
V6 O10_2 1_555 1_555
O17 V1_2 1_555 1_555
O24 Co3 1_555 1_555
O18 Co3 1_555 1_555
O15_2 V8 1_555 1_555
O23_2 V1_2 1_555 1_555
O19_2 V10 1_555 1_555
O22_2 V6 1_555 1_555
O16 V6 1_555 1_555
V9_2 O15_2 1_555 1_555
C2_3 O8_2 1_555 1_555
O7_2 Co3 1_555 1_555
Co1_4 O3_3 1_555 1_555
O3_3 V5 1_555 1_555
O5_3 Co1_4 1_555 1_555
C1_4 O5_3 1_555 1_555
O11_2 V5 1_555 1_555
O16_2 V5 1_555 1_555
Co3_2 O11_2 1_555 1_555
O4_3 Co1_5 1_555 1_555
V3_2 O4_3 1_555 1_555
O19 V3_2 1_555 1_555
O20_3 V3_2 1_555 1_555
O21_2 V3_2 1_555 1_555
O21_2 Co3_3 1_555 1_555
O10_3 Co1_6 1_555 1_555
V4_2 O10_3 1_555 1_555
O22 V4_2 1_555 1_555
O23_3 V4_2 1_555 1_555
O24_2 V4_2 1_555 1_555
O2_2 V9 1_555 1_555
O8_3 Co1_7 1_555 1_555
O9_3 Co1_7 1_555 1_555
V9 O9_3 1_555 1_555
O18_2 V9 1_555 1_555
V10_2 O2_2 1_555 1_555
C2_4 O8_3 1_555 1_555
O6_3 C1_5 1_555 1_555
Co2_3 O6_3 1_555 1_555
O12_2 Co2_3 1_555 1_555
V6_2 O12_2 1_555 1_555
O14_2 Co2_4 1_555 1_555
V9_2 O14_2 1_555 1_555
O20_4 V9_2 1_555 1_555
O17_2 Co2_5 1_555 1_555
O7_3 C2_5 1_555 1_555
O13_2 Co2_6 1_555 1_555
V10_2 O13_2 1_555 1_555
O7_3 Co2_6 1_555 1_555
V6_2 O16_2 1_555 1_555
O24_2 Co3_2 1_555 1_555
Co3_3 O18_2 1_555 1_555
V5_2 O17_2 1_555 1_555
O23_4 V5_2 1_555 1_555
O22_2 V6_2 1_555 1_555
V10_2 O19_2 1_555 1_555
Co1_8 O3_4 1_555 1_555
O3_4 V5_2 1_555 1_555
O5_4 Co1_8 1_555 1_555
C1_6 O5_4 1_555 1_555
O6_4 C1_6 1_555 1_555
O10_4 Co1_8 1_555 1_555
Co3_2 O6_4 1_555 1_555
V6_2 O10_4 1_555 1_555
O4_4 Co1_9 1_555 1_555
O7_4 C2_6 1_555 1_555
O8_4 Co1_9 1_555 1_555
O9_4 Co1_9 1_555 1_555
V9_2 O9_4 1_555 1_555
V10_2 O4_4 1_555 1_555
C2_6 O8_4 1_555 1_555
O7_4 Co3_3 1_555 1_555

#END
