
###############################################################################
#
# This file contains modified crystal structure data generated from the
# MOF subset of the Cambridge Structural Database (CSD) v543 
# hosted by the Cambridge Crystallographic Data Centre (CCDC).
#
# This work is licensed under the Creative Commons
# Attribution-NonCommercial-ShareAlike 4.0 International License.
# To view a copy of this license, visit
# http://creativecommons.org/licenses/by-nc-sa/4.0/
# or send a letter to
# Creative Commons, PO Box 1866, Mountain View, CA 94042, USA.
#
# CIF created using the CSD Python API on 29 September 2022
# The structure has been converted into the P1 space group
# The structure has a 3D framework
# The original CSD entry HUWLUI is in the triclinic crystal system
# The framework has been calculated to contain at least 10.0% void space
# The void calculation uses a probe of radius 1.32A, grid spacing 0.4
# H atom positions have been added when not included in the experimental data
#
###############################################################################

data_HUWLUI
_chemical_formula_moiety         '(C42 H28 O17 P2 Th2)n'
_symmetry_cell_setting           triclinic
_symmetry_space_group_name_H-M   'P 1'
_symmetry_Int_Tables_number      1
_space_group_name_Hall           'P 1'
loop_
_symmetry_equiv_pos_site_id
_symmetry_equiv_pos_as_xyz
1 x,y,z
_cell_length_a                   11.797(2)
_cell_length_b                   12.889(2)
_cell_length_c                   14.037(3)
_cell_angle_alpha                66.065(4)
_cell_angle_beta                 78.731(4)
_cell_angle_gamma                69.924(4)
_cell_volume                     1828.35
loop_
_atom_site_label
_atom_site_type_symbol
_atom_site_fract_x
_atom_site_fract_y
_atom_site_fract_z
C14 C 0.0508(12) 0.5093(18) 0.6049(16)
H9 H 0.0803 0.4612 0.5657
C15 C 0.0840(12) 0.6135(17) 0.6950(14)
H10 H 0.1374 0.6343 0.7197
C16 C 0.1275(10) 0.5513(10) 0.6301(9)
C17 C 0.2569(10) 0.5269(10) 0.5880(9)
O6 O 0.3263(7) 0.5569(8) 0.6221(7)
O7 O 0.2825(8) 0.4870(10) 0.5174(7)
Th2 Th 0.53975(3) 0.55039(3) 0.60113(3)
Th6 Th 0.46025(3) 0.44961(3) 0.39887(3)
O4 O 0.4167(8) 0.2450(8) 0.5317(7)
O5 O 0.5920(9) 0.2418(8) 0.4425(8)
C10 C 0.5217(12) 0.1877(11) 0.5103(11)
H7 H 0.4209 0.0290 0.6569
C12 C 0.5712(11) 0.0558(11) 0.5650(9)
C13 C 0.6895(13) 0.0007(12) 0.5398(12)
H8 H 0.7364 0.0448 0.4895
O8 O 0.5705(8) 0.4023(8) 0.2342(7)
O9 O 0.5153(9) 0.5888(8) 0.2187(7)
C18 C 0.6160(10) 0.5425(11) 0.0699(9)
C19 C 0.5669(11) 0.5070(11) 0.1823(9)
C20 C 0.6473(12) 0.4620(12) 0.0196(10)
H11 H 0.6451 0.3843 0.0568
C21 C 0.6272(13) 0.6561(12) 0.0163(10)
H12 H 0.6102 0.7082 0.0511
P1 P 0.7234(2) 0.6557(3) 0.7215(2)
O1 O 0.5308(7) 0.3908(7) 0.5662(6)
O2 O 0.6658(8) 0.5981(8) 0.6786(6)
O3 O 0.7165(9) 0.3653(9) 0.6861(8)
C1 C 0.6671(11) 0.8141(10) 0.6641(9)
C2 C 0.8830(10) 0.6107(11) 0.6927(9)
C3 C 0.5466(11) 0.8704(10) 0.6877(9)
H1 H 0.4984 0.8261 0.7358
C4 C 0.6814(13) 0.4983(12) 0.9147(10)
H2 H 0.6992 0.4457 0.8804
C5 C 0.6897(10) 0.6132(11) 0.8592(9)
C6 C 0.7378(12) 0.8793(12) 0.5897(11)
H3 H 0.8174 0.8416 0.5732
C7 C 0.6642(13) 0.6921(12) 0.9099(10)
H4 H 0.6715 0.7682 0.8735
C8 C 0.9620(13) 0.6462(18) 0.7249(14)
H5 H 0.9333 0.6918 0.7664
C9 C 0.9280(12) 0.5379(17) 0.6375(15)
H6 H 0.8769 0.5070 0.6213
C11 C 0.5000(11) 0.9908(11) 0.6396(10)
O10 O 0.4692(7) 0.6092(7) 0.4338(6)
O11 O 0.5833(8) 0.7550(8) 0.4683(7)
O12 O 0.4080(9) 0.7582(8) 0.5575(8)
O14 O 0.7175(8) 0.5130(10) 0.4826(7)
O15 O 0.4295(8) 0.5977(8) 0.7658(7)
O16 O 0.4847(9) 0.4112(8) 0.7813(7)
H13 H 0.768847 0.337881 0.631165
H14 H 0.764855 0.386188 0.722311
P1_2 P 0.2766(2) 0.3443(3) 0.2785(2)
O2_2 O 0.3342(8) 0.4019(8) 0.3214(6)
O3_2 O 0.2835(9) 0.6347(9) 0.3139(8)
C1_2 C 0.3329(11) 0.1859(10) 0.3359(9)
C2_2 C 0.1170(10) 0.3893(11) 0.3073(9)
C3_2 C 0.4534(11) 0.1296(10) 0.3123(9)
H1_2 H 0.5016 0.1739 0.2642
C4_2 C 0.3186(13) 0.5017(12) 0.0853(10)
H2_2 H 0.3008 0.5543 0.1196
C5_2 C 0.3103(10) 0.3868(11) 0.1408(9)
C6_2 C 0.2622(12) 0.1207(12) 0.4103(11)
H3_2 H 0.1826 0.1584 0.4268
C7_2 C 0.3358(13) 0.3079(12) 0.0901(10)
H4_2 H 0.3285 0.2318 0.1265
C8_2 C 0.0380(13) 0.3538(18) 0.2751(14)
H5_2 H 0.0667 0.3082 0.2336
C9_2 C 0.0720(12) 0.4621(17) 0.3625(15)
H6_2 H 0.1231 0.4930 0.3787
C11_2 C 0.5000(11) 0.0092(11) 0.3604(10)
O13 O 0.6737(7) 0.4431(8) 0.3779(7)
H13_2 H 0.231153 0.662119 0.368835
H14_2 H 0.235145 0.613812 0.277689
C18_2 C 0.3840(10) 0.4575(11) 0.9301(9)
C19_2 C 0.4331(11) 0.4930(11) 0.8177(9)
C20_2 C 0.3527(12) 0.5380(12) 0.9804(10)
H11_2 H 0.3549 0.6157 0.9432
C21_2 C 0.3728(13) 0.3439(12) 0.9837(10)
H12_2 H 0.3898 0.2918 0.9489
C10_2 C 0.4783(12) 0.8123(11) 0.4897(11)
H7_2 H 0.5791 0.9710 0.3431
C12_2 C 0.4288(11) 0.9442(11) 0.4350(9)
C13_2 C 0.3105(13) 0.9993(12) 0.4602(12)
H8_2 H 0.2636 0.9552 0.5105
C14_2 C 0.9492(12) 0.4907(18) 0.3951(16)
H9_2 H 0.9197 0.5388 0.4343
C15_2 C 0.9160(12) 0.3865(17) 0.3050(14)
H10_2 H 0.8626 0.3657 0.2803
C16_2 C 0.8725(10) 0.4487(10) 0.3699(9)
C17_2 C 0.7431(10) 0.4731(10) 0.4120(9)
loop_
_geom_bond_atom_site_label_1
_geom_bond_atom_site_label_2
_geom_bond_site_symmetry_1
_geom_bond_site_symmetry_2
H9 C14 1_555 1_555
H10 C15 1_555 1_555
C16 C14 1_555 1_555
C17 C16 1_555 1_555
O6 C17 1_555 1_555
O7 C17 1_555 1_555
Th2 O6 1_555 1_555
Th6 O7 1_555 1_555
C15 C16 1_555 1_555
O4 C10 1_555 1_555
O5 C10 1_555 1_555
C10 C12 1_555 1_555
H8 C13 1_555 1_555
Th6 O4 1_555 1_555
O5 Th6 1_555 1_555
C12 C13 1_555 1_555
O8 C19 1_555 1_555
O9 C19 1_555 1_555
C18 C19 1_555 1_555
H11 C20 1_555 1_555
H12 C21 1_555 1_555
Th6 O8 1_555 1_555
O9 Th6 1_555 1_555
C18 C20 1_555 1_555
C18 C21 1_555 1_555
Th2 O1 1_555 1_555
P1 O2 1_555 1_555
O1 Th6 1_555 1_555
O2 Th2 1_555 1_555
O3 Th2 1_555 1_555
C1 P1 1_555 1_555
C2 P1 1_555 1_555
C3 C1 1_555 1_555
H1 C3 1_555 1_555
C4 H2 1_555 1_555
C5 P1 1_555 1_555
C6 C1 1_555 1_555
H3 C6 1_555 1_555
C7 C5 1_555 1_555
H4 C7 1_555 1_555
C8 C2 1_555 1_555
H5 C8 1_555 1_555
C9 C2 1_555 1_555
H6 C9 1_555 1_555
C11 C3 1_555 1_555
Th6 O10 1_555 1_555
O10 Th2 1_555 1_555
O11 Th2 1_555 1_555
O12 Th2 1_555 1_555
O14 Th2 1_555 1_555
O15 Th2 1_555 1_555
O16 Th2 1_555 1_555
C4 C5 1_555 1_555
O3 H13 1_555 1_555
O3 H14 1_555 1_555
P1_2 O2_2 1_555 1_555
O2_2 Th6 1_555 1_555
O3_2 Th6 1_555 1_555
C1_2 P1_2 1_555 1_555
C2_2 P1_2 1_555 1_555
C3_2 C1_2 1_555 1_555
H1_2 C3_2 1_555 1_555
C4_2 H2_2 1_555 1_555
C5_2 P1_2 1_555 1_555
C6_2 C1_2 1_555 1_555
H3_2 C6_2 1_555 1_555
C7_2 C5_2 1_555 1_555
H4_2 C7_2 1_555 1_555
C8_2 C2_2 1_555 1_555
H5_2 C8_2 1_555 1_555
C9_2 C2_2 1_555 1_555
H6_2 C9_2 1_555 1_555
C11_2 C3_2 1_555 1_555
O13 Th6 1_555 1_555
C4_2 C5_2 1_555 1_555
O3_2 H13_2 1_555 1_555
O3_2 H14_2 1_555 1_555
O15 C19_2 1_555 1_555
O16 C19_2 1_555 1_555
C18_2 C19_2 1_555 1_555
H11_2 C20_2 1_555 1_555
H12_2 C21_2 1_555 1_555
C18_2 C20_2 1_555 1_555
C18_2 C21_2 1_555 1_555
O11 C10_2 1_555 1_555
O12 C10_2 1_555 1_555
C10_2 C12_2 1_555 1_555
H8_2 C13_2 1_555 1_555
C12_2 C13_2 1_555 1_555
H9_2 C14_2 1_555 1_555
H10_2 C15_2 1_555 1_555
C16_2 C14_2 1_555 1_555
C17_2 C16_2 1_555 1_555
O13 C17_2 1_555 1_555
O14 C17_2 1_555 1_555
C15_2 C16_2 1_555 1_555

#END
