
###############################################################################
#
# This file contains modified crystal structure data generated from the
# MOF subset of the Cambridge Structural Database (CSD) v543 
# hosted by the Cambridge Crystallographic Data Centre (CCDC).
#
# This work is licensed under the Creative Commons
# Attribution-NonCommercial-ShareAlike 4.0 International License.
# To view a copy of this license, visit
# http://creativecommons.org/licenses/by-nc-sa/4.0/
# or send a letter to
# Creative Commons, PO Box 1866, Mountain View, CA 94042, USA.
#
# CIF created using the CSD Python API on 29 September 2022
# The structure has been converted into the P1 space group
# The structure has a 3D framework
# The original CSD entry HUWLUJ is in the hexagonal crystal system
# The framework has been calculated to contain at least 10.0% void space
# The void calculation uses a probe of radius 1.32A, grid spacing 0.4
# The framework is charged, counterions have been retained in the structure
#
###############################################################################

data_HUWLUJ
_chemical_formula_moiety         '(C48 H84 Fe9 N12 O88 V12 6+)n'
_symmetry_cell_setting           triclinic
_symmetry_space_group_name_H-M   'P 1'
_symmetry_Int_Tables_number      1
_space_group_name_Hall           'P 1'
loop_
_symmetry_equiv_pos_site_id
_symmetry_equiv_pos_as_xyz
1 x,y,z
_cell_length_a                   14.4915(4)
_cell_length_b                   14.4915(4)
_cell_length_c                   16.0927(4)
_cell_angle_alpha                90
_cell_angle_beta                 90
_cell_angle_gamma                120
_cell_volume                     2926.75
loop_
_atom_site_label
_atom_site_type_symbol
_atom_site_fract_x
_atom_site_fract_y
_atom_site_fract_z
N1 N 0.2693(4) 0.3307(4) 0.000000
H1 H 0.213(2) 0.271(2) 0.000000
H3 H 0.253(3) 0.380(3) 0.000000
H4 H 0.3071(16) 0.338(2) 0.0429(6)
N1_2 N 0.2693(4) 0.3307(4) 1.000000
H1_2 H 0.213(2) 0.271(2) 1.000000
H2 H 0.3071(16) 0.338(2) 0.9571(6)
H3_2 H 0.253(3) 0.380(3) 1.000000
N1_3 N 0.6693(4) 0.9386(6) 0.000000
H1_3 H 0.729(2) 0.942(3) 0.000000
H3_3 H 0.620(3) 0.873(4) 0.000000
H4_2 H 0.662(2) 0.9691(26) 0.0429(6)
N1_4 N 0.6693(4) 0.9386(6) 1.000000
H1_4 H 0.729(2) 0.942(3) 1.000000
H2_2 H 0.662(2) 0.9691(26) 0.9571(6)
H3_4 H 0.620(3) 0.873(4) 1.000000
N1_5 N 0.0614(6) 0.7307(4) 0.000000
H1_5 H 0.058(3) 0.787(2) 0.000000
H3_5 H 0.127(4) 0.747(3) 0.000000
H4_3 H 0.0309(26) 0.6929(16) 0.0429(6)
N1_6 N 0.0614(6) 0.7307(4) 1.000000
H1_6 H 0.058(3) 0.787(2) 1.000000
H2_3 H 0.0309(26) 0.6929(16) 0.9571(6)
H3_6 H 0.127(4) 0.747(3) 1.000000
N1_7 N 0.7307(4) 0.6693(4) 0.000000
H1_7 H 0.787(2) 0.729(2) 0.000000
H3_7 H 0.747(3) 0.620(3) 0.000000
H4_4 H 0.6929(16) 0.662(2) 0.0429(6)
N1_8 N 0.7307(4) 0.6693(4) 1.000000
H1_8 H 0.787(2) 0.729(2) 1.000000
H2_4 H 0.6929(16) 0.662(2) 0.9571(6)
H3_8 H 0.747(3) 0.620(3) 1.000000
N1_9 N 0.3307(4) 0.0614(6) 0.000000
H1_9 H 0.271(2) 0.058(3) 0.000000
H3_9 H 0.380(3) 0.127(4) 0.000000
H4_5 H 0.338(2) 0.0309(26) 0.0429(6)
N1_10 N 0.3307(4) 0.0614(6) 1.000000
H1_10 H 0.271(2) 0.058(3) 1.000000
H2_5 H 0.338(2) 0.0309(26) 0.9571(6)
H3_10 H 0.380(3) 0.127(4) 1.000000
N1_11 N 0.9386(6) 0.2693(4) 0.000000
H1_11 H 0.942(3) 0.213(2) 0.000000
H3_11 H 0.873(4) 0.253(3) 0.000000
H4_6 H 0.9691(26) 0.3071(16) 0.0429(6)
N1_12 N 0.9386(6) 0.2693(4) 1.000000
H1_12 H 0.942(3) 0.213(2) 1.000000
H2_6 H 0.9691(26) 0.3071(16) 0.9571(6)
H3_12 H 0.873(4) 0.253(3) 1.000000
Fe3 Fe -0.000000 0.500000 0.500000
O15 O 0.1442(4) 0.4926(6) 0.500000
H13 H 0.175(3) 0.532(4) 0.5427(6)
H14 H 0.175(3) 0.532(4) 0.4573(6)
O89 O 0.0557(3) 0.6172(4) 0.5941(2)
O91 O 0.0557(3) 0.6172(4) 0.4059(2)
O8 O 0.5082(2) 0.3038(3) 0.000000
O16 O 0.6962(3) 0.2044(4) 0.000000
O24 O 0.7956(4) 0.4918(2) 0.000000
V16 V 0.54365(4) 0.34854(4) 0.10644(3)
V17 V 0.65146(4) 0.19511(6) 0.10644(3)
V18 V 0.80489(6) 0.45635(4) 0.10644(3)
V1 V 0.54365(4) 0.34854(4) 0.89356(3)
Fe1 Fe 0.666667 0.333333 0.70873(5)
Fe2 Fe 0.500000 -0.000000 0.500000
O1 O 0.53748(16) 0.30140(18) 0.77508(13)
O2 O 0.38983(17) 0.2827(2) 0.87004(15)
O3 O 0.5721(2) 0.2127(2) 0.63096(15)
O4 O 0.2583(2) 0.1974(2) 0.77896(19)
O5 O 0.4385(3) 0.0557(3) 0.5941(2)
O7 O 0.666667 0.333333 0.8971(2)
O8_2 O 0.5082(2) 0.3038(3) 1.000000
O9 O 0.59529(19) 0.47525(18) 0.89387(15)
C1 C 0.4366(3) 0.2499(3) 0.7352(2)
H5 H 0.437919 0.291875 0.686974
C2 C 0.3528(3) 0.2415(3) 0.7974(2)
C3 C 0.4089(3) 0.1388(3) 0.7073(2)
H6 H 0.414100 0.100574 0.754838
H7 H 0.335368 0.101420 0.688721
C4 C 0.4771(3) 0.1354(3) 0.6393(2)
V2 V 0.65146(4) 0.19511(6) 0.89356(3)
Fe3_2 Fe 1.000000 0.500000 0.500000
O10 O 0.69860(18) 0.23608(24) 0.77508(13)
O11 O 0.7173(2) 0.10713(26) 0.87004(15)
O12 O 0.7873(2) 0.3594(3) 0.63096(15)
O13 O 0.8026(2) 0.0609(3) 0.77896(19)
O14 O 0.9443(3) 0.3828(4) 0.5941(2)
O16_2 O 0.6962(3) 0.2044(4) 1.000000
O17 O 0.52475(18) 0.12004(26) 0.89387(15)
C5 C 0.7501(3) 0.1867(4) 0.7352(2)
H10 H 0.708125 0.146044 0.686974
C6 C 0.7585(3) 0.1113(4) 0.7974(2)
C7 C 0.8612(3) 0.2701(4) 0.7073(2)
H11 H 0.899426 0.313526 0.754838
H12 H 0.898580 0.233948 0.688721
C8 C 0.8646(3) 0.3417(4) 0.6393(2)
V3 V 0.80489(6) 0.45635(4) 0.89356(3)
Fe4 Fe 0.500000 0.500000 0.500000
O18 O 0.76392(24) 0.46252(16) 0.77508(13)
O19 O 0.89287(26) 0.61017(17) 0.87004(15)
O20 O 0.6406(3) 0.4279(2) 0.63096(15)
O21 O 0.9391(3) 0.7417(2) 0.77896(19)
O22 O 0.6172(4) 0.5615(3) 0.5941(2)
O23 O 0.5074(6) 0.6516(5) 0.500000
O24_2 O 0.7956(4) 0.4918(2) 1.000000
O25 O 0.87996(26) 0.40471(19) 0.89387(15)
C9 C 0.8133(4) 0.5634(3) 0.7352(2)
H15 H 0.853956 0.562081 0.686974
C10 C 0.8887(4) 0.6472(3) 0.7974(2)
C11 C 0.7299(4) 0.5911(3) 0.7073(2)
H16 H 0.686474 0.585900 0.754838
H17 H 0.766052 0.664632 0.688721
C12 C 0.6583(4) 0.5229(3) 0.6393(2)
H18 H 0.468(4) 0.643(3) 0.5427(6)
H19 H 0.468(4) 0.643(3) 0.4573(6)
O31 O 0.6516(5) 0.1442(4) 0.500000
H23 H 0.643(3) 0.175(3) 0.5427(6)
H24 H 0.643(3) 0.175(3) 0.4573(6)
Fe7 Fe 0.666667 0.333333 0.29127(5)
O68 O 0.53748(16) 0.30140(18) 0.22492(13)
O69 O 0.38983(17) 0.2827(2) 0.12996(15)
O70 O 0.5721(2) 0.2127(2) 0.36904(15)
O71 O 0.2583(2) 0.1974(2) 0.22104(19)
O72 O 0.4385(3) 0.0557(3) 0.4059(2)
O73 O 0.666667 0.333333 0.1029(2)
O74 O 0.59529(19) 0.47525(18) 0.10613(15)
C37 C 0.4366(3) 0.2499(3) 0.2648(2)
H40 H 0.437919 0.291875 0.313026
C38 C 0.3528(3) 0.2415(3) 0.2026(2)
C39 C 0.4089(3) 0.1388(3) 0.2927(2)
H41 H 0.414100 0.100574 0.245162
H42 H 0.335368 0.101420 0.311279
C40 C 0.4771(3) 0.1354(3) 0.3607(2)
O75 O 0.69860(18) 0.23608(24) 0.22492(13)
O76 O 0.7173(2) 0.10713(26) 0.12996(15)
O77 O 0.7873(2) 0.3594(3) 0.36904(15)
O78 O 0.8026(2) 0.0609(3) 0.22104(19)
O79 O 0.9443(3) 0.3828(4) 0.4059(2)
O80 O 0.52475(18) 0.12004(26) 0.10613(15)
C41 C 0.7501(3) 0.1867(4) 0.2648(2)
H43 H 0.708125 0.146044 0.313026
C42 C 0.7585(3) 0.1113(4) 0.2026(2)
C43 C 0.8612(3) 0.2701(4) 0.2927(2)
H44 H 0.899426 0.313526 0.245162
H45 H 0.898580 0.233948 0.311279
C44 C 0.8646(3) 0.3417(4) 0.3607(2)
O81 O 0.76392(24) 0.46252(16) 0.22492(13)
O82 O 0.89287(26) 0.61017(17) 0.12996(15)
O83 O 0.6406(3) 0.4279(2) 0.36904(15)
O84 O 0.9391(3) 0.7417(2) 0.22104(19)
O85 O 0.6172(4) 0.5615(3) 0.4059(2)
O86 O 0.87996(26) 0.40471(19) 0.10613(15)
C45 C 0.8133(4) 0.5634(3) 0.2648(2)
H46 H 0.853956 0.562081 0.313026
C46 C 0.8887(4) 0.6472(3) 0.2026(2)
C47 C 0.7299(4) 0.5911(3) 0.2927(2)
H47 H 0.686474 0.585900 0.245162
H48 H 0.766052 0.664632 0.311279
C48 C 0.6583(4) 0.5229(3) 0.3607(2)
O87 O 0.8558(4) 0.5074(6) 0.500000
H49 H 0.825(3) 0.468(4) 0.5427(6)
H50 H 0.825(3) 0.468(4) 0.4573(6)
O88 O 0.4926(6) 0.3484(5) 0.500000
H51 H 0.532(4) 0.357(3) 0.5427(6)
H52 H 0.532(4) 0.357(3) 0.4573(6)
O90 O 0.3828(4) 0.4385(3) 0.5941(2)
O92 O 0.3828(4) 0.4385(3) 0.4059(2)
O33 O 0.4918(2) 0.6962(3) 0.000000
O40 O 0.3038(3) 0.7956(4) 0.000000
O47 O 0.2044(4) 0.5082(2) 0.000000
V13 V 0.45635(4) 0.65146(4) 0.10644(3)
V14 V 0.34854(4) 0.80489(6) 0.10644(3)
V15 V 0.19511(6) 0.54365(4) 0.10644(3)
Fe2_2 Fe 0.500000 1.000000 0.500000
O6 O 0.3484(5) 0.8558(4) 0.500000
H8 H 0.357(3) 0.825(3) 0.5427(6)
H9 H 0.357(3) 0.825(3) 0.4573(6)
V4 V 0.45635(4) 0.65146(4) 0.89356(3)
Fe5 Fe 0.333333 0.666667 0.70873(5)
O26 O 0.46252(16) 0.69860(18) 0.77508(13)
O27 O 0.61017(17) 0.7173(2) 0.87004(15)
O28 O 0.4279(2) 0.7873(2) 0.63096(15)
O29 O 0.7417(2) 0.8026(2) 0.77896(19)
O30 O 0.5615(3) 0.9443(3) 0.5941(2)
O32 O 0.333333 0.666667 0.8971(2)
O33_2 O 0.4918(2) 0.6962(3) 1.000000
O34 O 0.40471(19) 0.52475(18) 0.89387(15)
C13 C 0.5634(3) 0.7501(3) 0.7352(2)
H20 H 0.562081 0.708125 0.686974
C14 C 0.6472(3) 0.7585(3) 0.7974(2)
C15 C 0.5911(3) 0.8612(3) 0.7073(2)
H21 H 0.585900 0.899426 0.754838
H22 H 0.664632 0.898580 0.688721
C16 C 0.5229(3) 0.8646(3) 0.6393(2)
V5 V 0.34854(4) 0.80489(6) 0.89356(3)
O35 O 0.30140(18) 0.76392(24) 0.77508(13)
O36 O 0.2827(2) 0.89287(26) 0.87004(15)
O37 O 0.2127(2) 0.6406(3) 0.63096(15)
O38 O 0.1974(2) 0.9391(3) 0.77896(19)
O40_2 O 0.3038(3) 0.7956(4) 1.000000
O41 O 0.47525(18) 0.87996(26) 0.89387(15)
C17 C 0.2499(3) 0.8133(4) 0.7352(2)
H25 H 0.291875 0.853956 0.686974
C18 C 0.2415(3) 0.8887(4) 0.7974(2)
C19 C 0.1388(3) 0.7299(4) 0.7073(2)
H26 H 0.100574 0.686474 0.754838
H27 H 0.101420 0.766052 0.688721
C20 C 0.1354(3) 0.6583(4) 0.6393(2)
V6 V 0.19511(6) 0.54365(4) 0.89356(3)
O42 O 0.23608(24) 0.53748(16) 0.77508(13)
O43 O 0.10713(26) 0.38983(17) 0.87004(15)
O44 O 0.3594(3) 0.5721(2) 0.63096(15)
O45 O 0.0609(3) 0.2583(2) 0.77896(19)
O47_2 O 0.2044(4) 0.5082(2) 1.000000
O48 O 0.12004(26) 0.59529(19) 0.89387(15)
C21 C 0.1867(4) 0.4366(3) 0.7352(2)
H28 H 0.146044 0.437919 0.686974
C22 C 0.1113(4) 0.3528(3) 0.7974(2)
C23 C 0.2701(4) 0.4089(3) 0.7073(2)
H29 H 0.313526 0.414100 0.754838
H30 H 0.233948 0.335368 0.688721
C24 C 0.3417(4) 0.4771(3) 0.6393(2)
Fe6 Fe 0.333333 0.666667 0.29127(5)
O49 O 0.46252(16) 0.69860(18) 0.22492(13)
O50 O 0.61017(17) 0.7173(2) 0.12996(15)
O51 O 0.4279(2) 0.7873(2) 0.36904(15)
O52 O 0.7417(2) 0.8026(2) 0.22104(19)
O53 O 0.5615(3) 0.9443(3) 0.4059(2)
O54 O 0.333333 0.666667 0.1029(2)
O55 O 0.40471(19) 0.52475(18) 0.10613(15)
C25 C 0.5634(3) 0.7501(3) 0.2648(2)
H31 H 0.562081 0.708125 0.313026
C26 C 0.6472(3) 0.7585(3) 0.2026(2)
C27 C 0.5911(3) 0.8612(3) 0.2927(2)
H32 H 0.585900 0.899426 0.245162
H33 H 0.664632 0.898580 0.311279
C28 C 0.5229(3) 0.8646(3) 0.3607(2)
O56 O 0.30140(18) 0.76392(24) 0.22492(13)
O57 O 0.2827(2) 0.89287(26) 0.12996(15)
O58 O 0.2127(2) 0.6406(3) 0.36904(15)
O59 O 0.1974(2) 0.9391(3) 0.22104(19)
O61 O 0.47525(18) 0.87996(26) 0.10613(15)
C29 C 0.2499(3) 0.8133(4) 0.2648(2)
H34 H 0.291875 0.853956 0.313026
C30 C 0.2415(3) 0.8887(4) 0.2026(2)
C31 C 0.1388(3) 0.7299(4) 0.2927(2)
H35 H 0.100574 0.686474 0.245162
H36 H 0.101420 0.766052 0.311279
C32 C 0.1354(3) 0.6583(4) 0.3607(2)
O62 O 0.23608(24) 0.53748(16) 0.22492(13)
O63 O 0.10713(26) 0.38983(17) 0.12996(15)
O64 O 0.3594(3) 0.5721(2) 0.36904(15)
O65 O 0.0609(3) 0.2583(2) 0.22104(19)
O67 O 0.12004(26) 0.59529(19) 0.10613(15)
C33 C 0.1867(4) 0.4366(3) 0.2648(2)
H37 H 0.146044 0.437919 0.313026
C34 C 0.1113(4) 0.3528(3) 0.2026(2)
C35 C 0.2701(4) 0.4089(3) 0.2927(2)
H38 H 0.313526 0.414100 0.245162
H39 H 0.233948 0.335368 0.311279
C36 C 0.3417(4) 0.4771(3) 0.3607(2)
loop_
_geom_bond_atom_site_label_1
_geom_bond_atom_site_label_2
_geom_bond_site_symmetry_1
_geom_bond_site_symmetry_2
N1 H1 1_555 1_555
H3 N1 1_555 1_555
H4 N1 1_555 1_555
N1_2 H1_2 1_555 1_555
H2 N1_2 1_555 1_555
H3_2 N1_2 1_555 1_555
N1_3 H1_3 1_555 1_555
H3_3 N1_3 1_555 1_555
H4_2 N1_3 1_555 1_555
N1_4 H1_4 1_555 1_555
H2_2 N1_4 1_555 1_555
H3_4 N1_4 1_555 1_555
N1_5 H1_5 1_555 1_555
H3_5 N1_5 1_555 1_555
H4_3 N1_5 1_555 1_555
N1_6 H1_6 1_555 1_555
H2_3 N1_6 1_555 1_555
H3_6 N1_6 1_555 1_555
N1_7 H1_7 1_555 1_555
H3_7 N1_7 1_555 1_555
H4_4 N1_7 1_555 1_555
N1_8 H1_8 1_555 1_555
H2_4 N1_8 1_555 1_555
H3_8 N1_8 1_555 1_555
N1_9 H1_9 1_555 1_555
H3_9 N1_9 1_555 1_555
H4_5 N1_9 1_555 1_555
N1_10 H1_10 1_555 1_555
H2_5 N1_10 1_555 1_555
H3_10 N1_10 1_555 1_555
N1_11 H1_11 1_555 1_555
H3_11 N1_11 1_555 1_555
H4_6 N1_11 1_555 1_555
N1_12 H1_12 1_555 1_555
H2_6 N1_12 1_555 1_555
H3_12 N1_12 1_555 1_555
O15 Fe3 1_555 1_555
H13 O15 1_555 1_555
H14 O15 1_555 1_555
O89 Fe3 1_555 1_555
O91 Fe3 1_555 1_555
V16 O8 1_555 1_555
V17 O16 1_555 1_555
V18 O24 1_555 1_555
V1 O1 1_555 1_555
Fe1 O1 1_555 1_555
Fe2 O5 1_555 1_555
O1 C1 1_555 1_555
O2 V1 1_555 1_555
O3 Fe1 1_555 1_555
O4 C2 1_555 1_555
O5 C4 1_555 1_555
O7 V1 1_555 1_555
O8_2 V1 1_555 1_555
O9 V1 1_555 1_555
C1 H5 1_555 1_555
C2 O2 1_555 1_555
C3 C1 1_555 1_555
H6 C3 1_555 1_555
H7 C3 1_555 1_555
C4 O3 1_555 1_555
V2 O7 1_555 1_555
Fe3_2 O14 1_555 1_555
O10 Fe1 1_555 1_555
O11 V2 1_555 1_555
O12 Fe1 1_555 1_555
O13 C6 1_555 1_555
O14 C8 1_555 1_555
O16_2 V2 1_555 1_555
O17 V2 1_555 1_555
C5 O10 1_555 1_555
H10 C5 1_555 1_555
C6 O11 1_555 1_555
C7 C5 1_555 1_555
H11 C7 1_555 1_555
H12 C7 1_555 1_555
C8 O12 1_555 1_555
V3 O7 1_555 1_555
Fe4 O22 1_555 1_555
O18 Fe1 1_555 1_555
O19 V3 1_555 1_555
O20 Fe1 1_555 1_555
O21 C10 1_555 1_555
O22 C12 1_555 1_555
O23 Fe4 1_555 1_555
O24_2 V3 1_555 1_555
O25 V3 1_555 1_555
C9 O18 1_555 1_555
H15 C9 1_555 1_555
C10 O19 1_555 1_555
C11 C9 1_555 1_555
H16 C11 1_555 1_555
H17 C11 1_555 1_555
C12 O20 1_555 1_555
H18 O23 1_555 1_555
H19 O23 1_555 1_555
O31 Fe2 1_555 1_555
H23 O31 1_555 1_555
H24 O31 1_555 1_555
V16 O68 1_555 1_555
Fe7 O68 1_555 1_555
O68 C37 1_555 1_555
O69 V16 1_555 1_555
O70 Fe7 1_555 1_555
O71 C38 1_555 1_555
O72 Fe2 1_555 1_555
O73 V16 1_555 1_555
O74 V16 1_555 1_555
C37 H40 1_555 1_555
C38 O69 1_555 1_555
C39 C37 1_555 1_555
H41 C39 1_555 1_555
H42 C39 1_555 1_555
C40 O70 1_555 1_555
V17 O73 1_555 1_555
O75 Fe7 1_555 1_555
O76 V17 1_555 1_555
O77 Fe7 1_555 1_555
O78 C42 1_555 1_555
O79 Fe3_2 1_555 1_555
O80 V17 1_555 1_555
C41 O75 1_555 1_555
H43 C41 1_555 1_555
C42 O76 1_555 1_555
C43 C41 1_555 1_555
H44 C43 1_555 1_555
H45 C43 1_555 1_555
C44 O77 1_555 1_555
V18 O73 1_555 1_555
O81 Fe7 1_555 1_555
O82 V18 1_555 1_555
O83 Fe7 1_555 1_555
O84 C46 1_555 1_555
O85 Fe4 1_555 1_555
O86 V18 1_555 1_555
C45 O81 1_555 1_555
H46 C45 1_555 1_555
C46 O82 1_555 1_555
C47 C45 1_555 1_555
H47 C47 1_555 1_555
H48 C47 1_555 1_555
C48 O83 1_555 1_555
O87 Fe3_2 1_555 1_555
H49 O87 1_555 1_555
H50 O87 1_555 1_555
O88 Fe4 1_555 1_555
H51 O88 1_555 1_555
H52 O88 1_555 1_555
O90 Fe4 1_555 1_555
O92 Fe4 1_555 1_555
C1 C2 1_555 1_555
C3 C4 1_555 1_555
V2 O10 1_555 1_555
C5 C6 1_555 1_555
C7 C8 1_555 1_555
V3 O18 1_555 1_555
C9 C10 1_555 1_555
C11 C12 1_555 1_555
O72 C40 1_555 1_555
C37 C38 1_555 1_555
C39 C40 1_555 1_555
V17 O75 1_555 1_555
O79 C44 1_555 1_555
C41 C42 1_555 1_555
C43 C44 1_555 1_555
V18 O81 1_555 1_555
O85 C48 1_555 1_555
C45 C46 1_555 1_555
C47 C48 1_555 1_555
V13 O33 1_555 1_555
V14 O40 1_555 1_555
V15 O47 1_555 1_555
O6 Fe2_2 1_555 1_555
H8 O6 1_555 1_555
H9 O6 1_555 1_555
V4 O26 1_555 1_555
Fe5 O26 1_555 1_555
O26 C13 1_555 1_555
O27 V4 1_555 1_555
O28 Fe5 1_555 1_555
O29 C14 1_555 1_555
O30 Fe2_2 1_555 1_555
O32 V4 1_555 1_555
O33_2 V4 1_555 1_555
O34 V4 1_555 1_555
C13 H20 1_555 1_555
C14 O27 1_555 1_555
C15 C13 1_555 1_555
H21 C15 1_555 1_555
H22 C15 1_555 1_555
C16 O28 1_555 1_555
V5 O32 1_555 1_555
O35 Fe5 1_555 1_555
O36 V5 1_555 1_555
O37 Fe5 1_555 1_555
O38 C18 1_555 1_555
O89 C20 1_555 1_555
O40_2 V5 1_555 1_555
O41 V5 1_555 1_555
C17 O35 1_555 1_555
H25 C17 1_555 1_555
C18 O36 1_555 1_555
C19 C17 1_555 1_555
H26 C19 1_555 1_555
H27 C19 1_555 1_555
C20 O37 1_555 1_555
V6 O32 1_555 1_555
O42 Fe5 1_555 1_555
O43 V6 1_555 1_555
O44 Fe5 1_555 1_555
O45 C22 1_555 1_555
O90 C24 1_555 1_555
O47_2 V6 1_555 1_555
O48 V6 1_555 1_555
C21 O42 1_555 1_555
H28 C21 1_555 1_555
C22 O43 1_555 1_555
C23 C21 1_555 1_555
H29 C23 1_555 1_555
H30 C23 1_555 1_555
C24 O44 1_555 1_555
V13 O49 1_555 1_555
Fe6 O49 1_555 1_555
O49 C25 1_555 1_555
O50 V13 1_555 1_555
O51 Fe6 1_555 1_555
O52 C26 1_555 1_555
O53 Fe2_2 1_555 1_555
O54 V13 1_555 1_555
O55 V13 1_555 1_555
C25 H31 1_555 1_555
C26 O50 1_555 1_555
C27 C25 1_555 1_555
H32 C27 1_555 1_555
H33 C27 1_555 1_555
C28 O51 1_555 1_555
V14 O54 1_555 1_555
O56 Fe6 1_555 1_555
O57 V14 1_555 1_555
O58 Fe6 1_555 1_555
O59 C30 1_555 1_555
O91 C32 1_555 1_555
O61 V14 1_555 1_555
C29 O56 1_555 1_555
H34 C29 1_555 1_555
C30 O57 1_555 1_555
C31 C29 1_555 1_555
H35 C31 1_555 1_555
H36 C31 1_555 1_555
C32 O58 1_555 1_555
V15 O54 1_555 1_555
O62 Fe6 1_555 1_555
O63 V15 1_555 1_555
O64 Fe6 1_555 1_555
O65 C34 1_555 1_555
O92 C36 1_555 1_555
O67 V15 1_555 1_555
C33 O62 1_555 1_555
H37 C33 1_555 1_555
C34 O63 1_555 1_555
C35 C33 1_555 1_555
H38 C35 1_555 1_555
H39 C35 1_555 1_555
C36 O64 1_555 1_555
O30 C16 1_555 1_555
C13 C14 1_555 1_555
C15 C16 1_555 1_555
V5 O35 1_555 1_555
C17 C18 1_555 1_555
C19 C20 1_555 1_555
V6 O42 1_555 1_555
C21 C22 1_555 1_555
C23 C24 1_555 1_555
O53 C28 1_555 1_555
C25 C26 1_555 1_555
C27 C28 1_555 1_555
V14 O56 1_555 1_555
C29 C30 1_555 1_555
C31 C32 1_555 1_555
V15 O62 1_555 1_555
C33 C34 1_555 1_555
C35 C36 1_555 1_555

#END
