
###############################################################################
#
# This file contains modified crystal structure data generated from the
# MOF subset of the Cambridge Structural Database (CSD) v543 
# hosted by the Cambridge Crystallographic Data Centre (CCDC).
#
# This work is licensed under the Creative Commons
# Attribution-NonCommercial-ShareAlike 4.0 International License.
# To view a copy of this license, visit
# http://creativecommons.org/licenses/by-nc-sa/4.0/
# or send a letter to
# Creative Commons, PO Box 1866, Mountain View, CA 94042, USA.
#
# CIF created using the CSD Python API on 29 September 2022
# The structure has been converted into the P1 space group
# The structure has a 3D framework
# The original CSD entry HUWMAQ is in the hexagonal crystal system
# The framework has been calculated to contain at least 10.0% void space
# The void calculation uses a probe of radius 1.32A, grid spacing 0.4
# The framework is charged, counterions have been retained in the structure
#
###############################################################################

data_HUWMAQ
_chemical_formula_moiety         '(C48 H48 Cu10 Fe2 K6 O92 V12 1+)n'
_symmetry_cell_setting           triclinic
_symmetry_space_group_name_H-M   'P 1'
_symmetry_Int_Tables_number      1
_space_group_name_Hall           'P 1'
loop_
_symmetry_equiv_pos_site_id
_symmetry_equiv_pos_as_xyz
1 x,y,z
_cell_length_a                   14.3904(6)
_cell_length_b                   14.3904(6)
_cell_length_c                   15.9322(5)
_cell_angle_alpha                90
_cell_angle_beta                 90
_cell_angle_gamma                120
_cell_volume                     2857.28
loop_
_atom_site_label
_atom_site_type_symbol
_atom_site_fract_x
_atom_site_fract_y
_atom_site_fract_z
K1 K 0.3036(3) 0.3494(2) 0.500000
K1_2 K 0.6506(2) 0.9542(4) 0.500000
K1_3 K 0.0458(4) 0.6964(3) 0.500000
K1_4 K 0.6964(3) 0.6506(2) 0.500000
K1_5 K 0.3494(2) 0.0458(4) 0.500000
K1_6 K 0.9542(4) 0.3036(3) 0.500000
Cu1 Cu 0.500000 0.000000 0.000000
O2 O 0.6716(4) 0.1582(4) 0.000000
H5 H 0.683833 0.191397 0.048016
O26 O 0.4397(3) 0.0506(3) 0.0891(2)
C13 C 0.4784(3) 0.1312(3) 0.1354(3)
O28 O 0.5743(2) 0.2102(2) 0.12807(17)
C14 C 0.4077(4) 0.1322(4) 0.2034(3)
C15 C 0.4335(3) 0.2435(4) 0.2333(3)
H17 H 0.412570 0.092062 0.252054
H18 H 0.332596 0.093403 0.183237
O29 O 0.5353(2) 0.2976(2) 0.27281(17)
C16 C 0.3481(4) 0.2319(4) 0.2960(3)
H19 H 0.433313 0.286551 0.184075
V4 V 0.54033(6) 0.34461(7) 0.39243(4)
O30 O 0.2525(3) 0.1856(3) 0.2782(2)
O31 O 0.3861(3) 0.2770(3) 0.3686(2)
O32 O 0.666667 0.333333 0.3958(3)
O33 O 0.5056(4) 0.3002(5) 0.500000
O34 O 0.5896(3) 0.4716(3) 0.3926(2)
Fe2 Fe 0.666667 0.333333 0.20738(6)
O92 O 0.7898(2) 0.3641(3) 0.12807(17)
O94 O 0.6359(3) 0.4257(2) 0.12807(17)
O98 O 0.7024(2) 0.2377(3) 0.27281(17)
O100 O 0.7623(3) 0.4647(2) 0.27281(17)
V16 V 0.65539(7) 0.19572(9) 0.39243(4)
V18 V 0.80428(9) 0.45967(6) 0.39243(4)
V19 V 0.54033(6) 0.34461(7) 0.60757(4)
Cu1_2 Cu 0.500000 0.000000 1.000000
O2_2 O 0.6716(4) 0.1582(4) 1.000000
H1 H 0.683833 0.191397 0.951984
O53 O 0.4397(3) 0.0506(3) 0.9109(2)
C25 C 0.4784(3) 0.1312(3) 0.8646(3)
O54 O 0.5743(2) 0.2102(2) 0.87193(17)
C26 C 0.4077(4) 0.1322(4) 0.7966(3)
C27 C 0.4335(3) 0.2435(4) 0.7667(3)
H31 H 0.412570 0.092062 0.747946
H32 H 0.332596 0.093403 0.816763
O55 O 0.5353(2) 0.2976(2) 0.72719(17)
C28 C 0.3481(4) 0.2319(4) 0.7040(3)
H33 H 0.433313 0.286551 0.815925
O56 O 0.2525(3) 0.1856(3) 0.7218(2)
O57 O 0.3861(3) 0.2770(3) 0.6314(2)
O58 O 0.5896(3) 0.4716(3) 0.6074(2)
O103 O 0.666667 0.333333 0.6042(3)
Fe7 Fe 0.666667 0.333333 0.79262(6)
Cu1_3 Cu 0.500000 1.000000 0.000000
O1 O 0.5603(3) 0.9494(3) 0.0891(2)
C1 C 0.5216(3) 0.8688(3) 0.1354(3)
O3 O 0.4257(2) 0.7898(2) 0.12807(17)
C2 C 0.5923(4) 0.8678(4) 0.2034(3)
C3 C 0.5665(3) 0.7565(4) 0.2333(3)
H2 H 0.587430 0.907938 0.252054
H3 H 0.667404 0.906597 0.183237
O4 O 0.4647(2) 0.7024(2) 0.27281(17)
C4 C 0.6519(4) 0.7681(4) 0.2960(3)
H4 H 0.566687 0.713449 0.184075
V1 V 0.45967(6) 0.65539(7) 0.39243(4)
O5 O 0.7475(3) 0.8144(3) 0.2782(2)
O6 O 0.6139(3) 0.7230(3) 0.3686(2)
O7 O 0.333333 0.666667 0.3958(3)
O8 O 0.4944(4) 0.6998(5) 0.500000
O9 O 0.4104(3) 0.5284(3) 0.3926(2)
Fe1 Fe 0.333333 0.666667 0.20738(6)
Cu2 Cu 0.000000 0.500000 0.000000
O10 O 0.0506(3) 0.6109(4) 0.0891(2)
C5 C 0.1312(3) 0.6528(4) 0.1354(3)
O12 O 0.2102(2) 0.6359(3) 0.12807(17)
C6 C 0.1322(4) 0.7245(6) 0.2034(3)
C7 C 0.2435(4) 0.8100(5) 0.2333(3)
H7 H 0.092062 0.679492 0.252054
H8 H 0.093403 0.760807 0.183237
O13 O 0.2976(2) 0.7623(3) 0.27281(17)
C8 C 0.2319(4) 0.8838(6) 0.2960(3)
H9 H 0.286551 0.853238 0.184075
V2 V 0.34461(7) 0.80428(9) 0.39243(4)
O14 O 0.1856(3) 0.9331(4) 0.2782(2)
O15 O 0.2770(3) 0.8909(4) 0.3686(2)
O16 O 0.3002(5) 0.7946(6) 0.500000
O17 O 0.4716(3) 0.8820(4) 0.3926(2)
Cu3 Cu 0.500000 0.500000 0.000000
O18 O 0.3891(4) 0.4397(3) 0.0891(2)
O19 O 0.4866(6) 0.3284(4) 0.000000
C9 C 0.3472(4) 0.4784(3) 0.1354(3)
O20 O 0.3641(3) 0.5743(2) 0.12807(17)
C10 C 0.2755(6) 0.4077(4) 0.2034(3)
C11 C 0.1900(5) 0.4335(3) 0.2333(3)
H12 H 0.320508 0.412570 0.252054
H13 H 0.239193 0.332596 0.183237
O21 O 0.2377(3) 0.5353(2) 0.27281(17)
C12 C 0.1162(6) 0.3481(4) 0.2960(3)
H14 H 0.146762 0.433313 0.184075
V3 V 0.19572(9) 0.54033(6) 0.39243(4)
O22 O 0.0669(4) 0.2525(3) 0.2782(2)
O23 O 0.1091(4) 0.3861(3) 0.3686(2)
O24 O 0.2054(6) 0.5056(4) 0.500000
O25 O 0.1180(4) 0.5896(3) 0.3926(2)
H15 H 0.507564 0.316167 0.048016
O27 O 0.3284(4) 0.8418(4) 0.000000
H20 H 0.316167 0.808603 0.048016
O36 O 0.1582(4) 0.4866(6) 0.000000
H25 H 0.191397 0.507564 0.048016
O44 O 0.6109(4) 0.5603(3) 0.0891(2)
O45 O 0.5134(6) 0.6716(4) 0.000000
C21 C 0.6528(4) 0.5216(3) 0.1354(3)
C22 C 0.7245(6) 0.5923(4) 0.2034(3)
C23 C 0.8100(5) 0.5665(3) 0.2333(3)
H27 H 0.679492 0.587430 0.252054
H28 H 0.760807 0.667404 0.183237
C24 C 0.8838(6) 0.6519(4) 0.2960(3)
H29 H 0.853238 0.566687 0.184075
O48 O 0.9331(4) 0.7475(3) 0.2782(2)
O49 O 0.8909(4) 0.6139(3) 0.3686(2)
O51 O 0.7946(6) 0.4944(4) 0.500000
O52 O 0.8820(4) 0.4104(3) 0.3926(2)
H30 H 0.492436 0.683833 0.048016
V21 V 0.80428(9) 0.45967(6) 0.60757(4)
V22 V 0.45967(6) 0.65539(7) 0.60757(4)
V23 V 0.34461(7) 0.80428(9) 0.60757(4)
V24 V 0.19572(9) 0.54033(6) 0.60757(4)
Cu1_4 Cu 0.500000 1.000000 1.000000
Cu2_2 Cu 0.000000 0.500000 1.000000
Cu3_2 Cu 0.500000 0.500000 1.000000
O19_2 O 0.4866(6) 0.3284(4) 1.000000
H11 H 0.507564 0.316167 0.951984
O27_2 O 0.3284(4) 0.8418(4) 1.000000
H16 H 0.316167 0.808603 0.951984
O36_2 O 0.1582(4) 0.4866(6) 1.000000
H21 H 0.191397 0.507564 0.951984
O45_2 O 0.5134(6) 0.6716(4) 1.000000
H26 H 0.492436 0.683833 0.951984
O65 O 0.6109(4) 0.5603(3) 0.9109(2)
C33 C 0.6528(4) 0.5216(3) 0.8646(3)
O66 O 0.6359(3) 0.4257(2) 0.87193(17)
C34 C 0.7245(6) 0.5923(4) 0.7966(3)
C35 C 0.8100(5) 0.5665(3) 0.7667(3)
H37 H 0.679492 0.587430 0.747946
H38 H 0.760807 0.667404 0.816763
O67 O 0.7623(3) 0.4647(2) 0.72719(17)
C36 C 0.8838(6) 0.6519(4) 0.7040(3)
H39 H 0.853238 0.566687 0.815925
O68 O 0.9331(4) 0.7475(3) 0.7218(2)
O69 O 0.8909(4) 0.6139(3) 0.6314(2)
O70 O 0.8820(4) 0.4104(3) 0.6074(2)
O71 O 0.5603(3) 0.9494(3) 0.9109(2)
C37 C 0.5216(3) 0.8688(3) 0.8646(3)
O72 O 0.4257(2) 0.7898(2) 0.87193(17)
C38 C 0.5923(4) 0.8678(4) 0.7966(3)
C39 C 0.5665(3) 0.7565(4) 0.7667(3)
H40 H 0.587430 0.907938 0.747946
H41 H 0.667404 0.906597 0.816763
O73 O 0.4647(2) 0.7024(2) 0.72719(17)
C40 C 0.6519(4) 0.7681(4) 0.7040(3)
H42 H 0.566687 0.713449 0.815925
O74 O 0.7475(3) 0.8144(3) 0.7218(2)
O75 O 0.6139(3) 0.7230(3) 0.6314(2)
O76 O 0.4104(3) 0.5284(3) 0.6074(2)
O77 O 0.0506(3) 0.6109(4) 0.9109(2)
C41 C 0.1312(3) 0.6528(4) 0.8646(3)
O78 O 0.2102(2) 0.6359(3) 0.87193(17)
C42 C 0.1322(4) 0.7245(6) 0.7966(3)
C43 C 0.2435(4) 0.8100(5) 0.7667(3)
H43 H 0.092062 0.679492 0.747946
H44 H 0.093403 0.760807 0.816763
O79 O 0.2976(2) 0.7623(3) 0.72719(17)
C44 C 0.2319(4) 0.8838(6) 0.7040(3)
H45 H 0.286551 0.853238 0.815925
O80 O 0.1856(3) 0.9331(4) 0.7218(2)
O81 O 0.2770(3) 0.8909(4) 0.6314(2)
O82 O 0.4716(3) 0.8820(4) 0.6074(2)
O83 O 0.3891(4) 0.4397(3) 0.9109(2)
C45 C 0.3472(4) 0.4784(3) 0.8646(3)
O84 O 0.3641(3) 0.5743(2) 0.87193(17)
C46 C 0.2755(6) 0.4077(4) 0.7966(3)
C47 C 0.1900(5) 0.4335(3) 0.7667(3)
H46 H 0.320508 0.412570 0.747946
H47 H 0.239193 0.332596 0.816763
O85 O 0.2377(3) 0.5353(2) 0.72719(17)
C48 C 0.1162(6) 0.3481(4) 0.7040(3)
H48 H 0.146762 0.433313 0.815925
O86 O 0.0669(4) 0.2525(3) 0.7218(2)
O87 O 0.1091(4) 0.3861(3) 0.6314(2)
O88 O 0.1180(4) 0.5896(3) 0.6074(2)
O104 O 0.333333 0.666667 0.6042(3)
Fe8 Fe 0.333333 0.666667 0.79262(6)
Cu2_3 Cu 1.000000 0.500000 0.000000
O11 O 0.8418(4) 0.5134(6) 0.000000
H10 H 0.808603 0.492436 0.048016
O35 O 0.9494(3) 0.3891(4) 0.0891(2)
C17 C 0.8688(3) 0.3472(4) 0.1354(3)
C18 C 0.8678(4) 0.2755(6) 0.2034(3)
C19 C 0.7565(4) 0.1900(5) 0.2333(3)
H22 H 0.907938 0.320508 0.252054
H23 H 0.906597 0.239193 0.183237
C20 C 0.7681(4) 0.1162(6) 0.2960(3)
H24 H 0.713449 0.146762 0.184075
O39 O 0.8144(3) 0.0669(4) 0.2782(2)
O40 O 0.7230(3) 0.1091(4) 0.3686(2)
O42 O 0.6998(5) 0.2054(6) 0.500000
O43 O 0.5284(3) 0.1180(4) 0.3926(2)
V20 V 0.65539(7) 0.19572(9) 0.60757(4)
Cu2_4 Cu 1.000000 0.500000 1.000000
O11_2 O 0.8418(4) 0.5134(6) 1.000000
H6 H 0.808603 0.492436 0.951984
O59 O 0.9494(3) 0.3891(4) 0.9109(2)
C29 C 0.8688(3) 0.3472(4) 0.8646(3)
O60 O 0.7898(2) 0.3641(3) 0.87193(17)
C30 C 0.8678(4) 0.2755(6) 0.7966(3)
C31 C 0.7565(4) 0.1900(5) 0.7667(3)
H34 H 0.907938 0.320508 0.747946
H35 H 0.906597 0.239193 0.816763
O61 O 0.7024(2) 0.2377(3) 0.72719(17)
C32 C 0.7681(4) 0.1162(6) 0.7040(3)
H36 H 0.713449 0.146762 0.815925
O62 O 0.8144(3) 0.0669(4) 0.7218(2)
O63 O 0.7230(3) 0.1091(4) 0.6314(2)
O64 O 0.5284(3) 0.1180(4) 0.6074(2)
loop_
_geom_bond_atom_site_label_1
_geom_bond_atom_site_label_2
_geom_bond_site_symmetry_1
_geom_bond_site_symmetry_2
O2 Cu1 1_555 1_555
H5 O2 1_555 1_555
O26 Cu1 1_555 1_555
C13 O26 1_555 1_555
O28 C13 1_555 1_555
C14 C13 1_555 1_555
C15 C14 1_555 1_555
H17 C14 1_555 1_555
H18 C14 1_555 1_555
O29 C15 1_555 1_555
C16 C15 1_555 1_555
H19 C15 1_555 1_555
V4 O29 1_555 1_555
O30 C16 1_555 1_555
O31 C16 1_555 1_555
O32 V4 1_555 1_555
O33 V4 1_555 1_555
O34 V4 1_555 1_555
Fe2 O28 1_555 1_555
O92 Fe2 1_555 1_555
O94 Fe2 1_555 1_555
O98 Fe2 1_555 1_555
O100 Fe2 1_555 1_555
V16 O32 1_555 1_555
V18 O32 1_555 1_555
V19 O33 1_555 1_555
O29 Fe2 1_555 1_555
V4 O31 1_555 1_555
O98 V16 1_555 1_555
O100 V18 1_555 1_555
O2_2 Cu1_2 1_555 1_555
H1 O2_2 1_555 1_555
O53 Cu1_2 1_555 1_555
C25 O53 1_555 1_555
O54 C25 1_555 1_555
C26 C25 1_555 1_555
C27 C26 1_555 1_555
H31 C26 1_555 1_555
H32 C26 1_555 1_555
O55 C27 1_555 1_555
C28 C27 1_555 1_555
H33 C27 1_555 1_555
V19 O55 1_555 1_555
O56 C28 1_555 1_555
O57 C28 1_555 1_555
O58 V19 1_555 1_555
O103 V19 1_555 1_555
Fe7 O54 1_555 1_555
O55 Fe7 1_555 1_555
V19 O57 1_555 1_555
Cu1_3 O1 1_555 1_555
O1 C1 1_555 1_555
C1 O3 1_555 1_555
O3 Fe1 1_555 1_555
C2 C1 1_555 1_555
C3 C2 1_555 1_555
H2 C2 1_555 1_555
H3 C2 1_555 1_555
O4 C3 1_555 1_555
C4 C3 1_555 1_555
H4 C3 1_555 1_555
V1 O4 1_555 1_555
O5 C4 1_555 1_555
O6 C4 1_555 1_555
O7 V1 1_555 1_555
O8 V1 1_555 1_555
O9 V1 1_555 1_555
Fe1 O4 1_555 1_555
Cu2 O10 1_555 1_555
O10 C5 1_555 1_555
C5 O12 1_555 1_555
O12 Fe1 1_555 1_555
C6 C5 1_555 1_555
C7 C6 1_555 1_555
H7 C6 1_555 1_555
H8 C6 1_555 1_555
O13 Fe1 1_555 1_555
C8 C7 1_555 1_555
H9 C7 1_555 1_555
V2 O7 1_555 1_555
O14 C8 1_555 1_555
O15 C8 1_555 1_555
O16 V2 1_555 1_555
O17 V2 1_555 1_555
Cu3 O18 1_555 1_555
O18 C9 1_555 1_555
O19 Cu3 1_555 1_555
C9 O20 1_555 1_555
O20 Fe1 1_555 1_555
C10 C9 1_555 1_555
C11 C10 1_555 1_555
H12 C10 1_555 1_555
H13 C10 1_555 1_555
O21 Fe1 1_555 1_555
C12 C11 1_555 1_555
H14 C11 1_555 1_555
V3 O7 1_555 1_555
O22 C12 1_555 1_555
O23 C12 1_555 1_555
O24 V3 1_555 1_555
O25 V3 1_555 1_555
H15 O19 1_555 1_555
O27 Cu1_3 1_555 1_555
H20 O27 1_555 1_555
O36 Cu2 1_555 1_555
H25 O36 1_555 1_555
O44 Cu3 1_555 1_555
O45 Cu3 1_555 1_555
C21 O44 1_555 1_555
O94 C21 1_555 1_555
C22 C21 1_555 1_555
C23 C22 1_555 1_555
H27 C22 1_555 1_555
H28 C22 1_555 1_555
O100 C23 1_555 1_555
C24 C23 1_555 1_555
H29 C23 1_555 1_555
O48 C24 1_555 1_555
O49 C24 1_555 1_555
O51 V18 1_555 1_555
O52 V18 1_555 1_555
H30 O45 1_555 1_555
V21 O51 1_555 1_555
V22 O8 1_555 1_555
V23 O16 1_555 1_555
V24 O24 1_555 1_555
V1 O6 1_555 1_555
C7 O13 1_555 1_555
O13 V2 1_555 1_555
V2 O15 1_555 1_555
C11 O21 1_555 1_555
O21 V3 1_555 1_555
V3 O23 1_555 1_555
V18 O49 1_555 1_555
O19_2 Cu3_2 1_555 1_555
H11 O19_2 1_555 1_555
O27_2 Cu1_4 1_555 1_555
H16 O27_2 1_555 1_555
O36_2 Cu2_2 1_555 1_555
H21 O36_2 1_555 1_555
O45_2 Cu3_2 1_555 1_555
H26 O45_2 1_555 1_555
O65 Cu3_2 1_555 1_555
C33 O65 1_555 1_555
O66 C33 1_555 1_555
C34 C33 1_555 1_555
C35 C34 1_555 1_555
H37 C34 1_555 1_555
H38 C34 1_555 1_555
O67 C35 1_555 1_555
C36 C35 1_555 1_555
H39 C35 1_555 1_555
V21 O67 1_555 1_555
O68 C36 1_555 1_555
O69 C36 1_555 1_555
O70 V21 1_555 1_555
O71 Cu1_4 1_555 1_555
C37 O71 1_555 1_555
O72 C37 1_555 1_555
C38 C37 1_555 1_555
C39 C38 1_555 1_555
H40 C38 1_555 1_555
H41 C38 1_555 1_555
O73 C39 1_555 1_555
C40 C39 1_555 1_555
H42 C39 1_555 1_555
V22 O73 1_555 1_555
O74 C40 1_555 1_555
O75 C40 1_555 1_555
O76 V22 1_555 1_555
O77 Cu2_2 1_555 1_555
C41 O77 1_555 1_555
O78 C41 1_555 1_555
C42 C41 1_555 1_555
C43 C42 1_555 1_555
H43 C42 1_555 1_555
H44 C42 1_555 1_555
O79 C43 1_555 1_555
C44 C43 1_555 1_555
H45 C43 1_555 1_555
V23 O79 1_555 1_555
O80 C44 1_555 1_555
O81 C44 1_555 1_555
O82 V23 1_555 1_555
O83 Cu3_2 1_555 1_555
C45 O83 1_555 1_555
O84 C45 1_555 1_555
C46 C45 1_555 1_555
C47 C46 1_555 1_555
H46 C46 1_555 1_555
H47 C46 1_555 1_555
O85 C47 1_555 1_555
C48 C47 1_555 1_555
H48 C47 1_555 1_555
V24 O85 1_555 1_555
O86 C48 1_555 1_555
O87 C48 1_555 1_555
O88 V24 1_555 1_555
O103 V21 1_555 1_555
O104 V22 1_555 1_555
Fe7 O66 1_555 1_555
Fe8 O72 1_555 1_555
O67 Fe7 1_555 1_555
V21 O69 1_555 1_555
O73 Fe8 1_555 1_555
V22 O75 1_555 1_555
O78 Fe8 1_555 1_555
O79 Fe8 1_555 1_555
V23 O81 1_555 1_555
V23 O104 1_555 1_555
O84 Fe8 1_555 1_555
O85 Fe8 1_555 1_555
V24 O87 1_555 1_555
V24 O104 1_555 1_555
O11 Cu2_3 1_555 1_555
H10 O11 1_555 1_555
O35 Cu2_3 1_555 1_555
C17 O35 1_555 1_555
O92 C17 1_555 1_555
C18 C17 1_555 1_555
C19 C18 1_555 1_555
H22 C18 1_555 1_555
H23 C18 1_555 1_555
O98 C19 1_555 1_555
C20 C19 1_555 1_555
H24 C19 1_555 1_555
O39 C20 1_555 1_555
O40 C20 1_555 1_555
O42 V16 1_555 1_555
O43 V16 1_555 1_555
V20 O42 1_555 1_555
V16 O40 1_555 1_555
O11_2 Cu2_4 1_555 1_555
H6 O11_2 1_555 1_555
O59 Cu2_4 1_555 1_555
C29 O59 1_555 1_555
O60 C29 1_555 1_555
C30 C29 1_555 1_555
C31 C30 1_555 1_555
H34 C30 1_555 1_555
H35 C30 1_555 1_555
O61 C31 1_555 1_555
C32 C31 1_555 1_555
H36 C31 1_555 1_555
V20 O61 1_555 1_555
O62 C32 1_555 1_555
O63 C32 1_555 1_555
O64 V20 1_555 1_555
O103 V20 1_555 1_555
Fe7 O60 1_555 1_555
O61 Fe7 1_555 1_555
V20 O63 1_555 1_555

#END
