
###############################################################################
#
# This file contains modified crystal structure data generated from the
# MOF subset of the Cambridge Structural Database (CSD) v543 
# hosted by the Cambridge Crystallographic Data Centre (CCDC).
#
# This work is licensed under the Creative Commons
# Attribution-NonCommercial-ShareAlike 4.0 International License.
# To view a copy of this license, visit
# http://creativecommons.org/licenses/by-nc-sa/4.0/
# or send a letter to
# Creative Commons, PO Box 1866, Mountain View, CA 94042, USA.
#
# CIF created using the CSD Python API on 29 September 2022
# The structure has been converted into the P1 space group
# The structure has a 3D framework
# The original CSD entry HUWMAP is in the orthorhombic crystal system
# The original CSD entry HUWMAP is in a Sohncke space group
# The framework has been calculated to contain at least 10.0% void space
# The void calculation uses a probe of radius 1.32A, grid spacing 0.4
# The framework is charged, counterions have been retained in the structure
#
###############################################################################

data_HUWMAP
_chemical_formula_moiety         '(C84 H48 Cl8 O22 P4 Th2 4-)n'
_symmetry_cell_setting           triclinic
_symmetry_space_group_name_H-M   'P 1'
_symmetry_Int_Tables_number      1
_space_group_name_Hall           'P 1'
loop_
_symmetry_equiv_pos_site_id
_symmetry_equiv_pos_as_xyz
1 x,y,z
_cell_length_a                   21.735(2)
_cell_length_b                   23.205(2)
_cell_length_c                   10.5286(10)
_cell_angle_alpha                90
_cell_angle_beta                 90
_cell_angle_gamma                90
_cell_volume                     5310.21
loop_
_atom_site_label
_atom_site_type_symbol
_atom_site_fract_x
_atom_site_fract_y
_atom_site_fract_z
Th1 Th 0.031610(15) 0.282680(16) 0.01490(3)
O8 O 0.0508(3) 0.3871(3) 0.0625(8)
O11 O 0.0388(3) 0.2934(4) 0.2480(6)
O12 O 0.1455(3) 0.2899(4) 0.0427(8)
O13 O 0.1038(3) 0.2064(4) 0.1008(8)
H5 H 0.0150 0.3237 0.6806
C8 C 0.0046(5) 0.3207(8) 0.4936(12)
H6 H 0.0456 0.3123 0.4766
Cl1 Cl 0.0680(2) 0.2228(2) 0.8020(4)
O9 O 0.0735(3) 0.3584(4) 0.8684(7)
H1 H 0.9159 0.4116 0.0370
C5 C 0.9213(5) 0.4963(5) 0.0077(11)
H3 H 0.9248 0.5065 0.0929
O2 O 0.9492(3) 0.6129(3) 0.0625(8)
Cl2 Cl 0.95385(17) 0.19135(17) 0.0553(5)
Th3 Th 0.968390(15) 0.717320(16) 0.01490(3)
O10 O 0.9494(3) 0.3218(4) 0.1674(7)
P1 P 0.90593(11) 0.34976(12) 0.8066(2)
O1 O 0.9492(3) 0.3158(3) 0.8868(7)
C1 C 0.9639(5) 0.3255(5) 0.3936(9)
C2 C 0.9156(5) 0.4401(5) 0.9748(11)
C3 C 0.9257(5) 0.3411(5) 0.6416(9)
C4 C 0.9072(6) 0.3432(6) 0.4177(11)
H2 H 0.8811 0.3518 0.3503
C6 C 0.8851(5) 0.3492(6) 0.5436(10)
H4 H 0.8442 0.3583 0.5593
C7 C 0.9867(5) 0.3277(8) 0.6150(11)
C9 C 0.9092(4) 0.4251(5) 0.8460(10)
C10 C 0.9326(4) 0.6018(5) 0.9513(9)
C11 C 0.9220(4) 0.5395(5) 0.9131(10)
O3 O 0.9265(3) 0.6416(4) 0.8684(7)
C12 C 0.9842(5) 0.3129(5) 0.2641(10)
C13 C 0.9125(6) 0.5255(5) 0.7884(11)
H7 H 0.9097 0.5541 0.7269
C14 C 0.7783(5) 0.3576(5) 0.8037(12)
H8 H 0.7838 0.3940 0.7686
C15 C 0.9070(6) 0.4675(5) 0.7547(11)
H9 H 0.9017 0.4575 0.6698
C16 C 0.8292(4) 0.3246(5) 0.8325(10)
C17 C 0.7128(5) 0.2827(6) 0.8812(10)
C18 C 0.7190(5) 0.3375(5) 0.8259(11)
H10 H 0.6847 0.3595 0.8049
C19 C 0.6481(5) 0.2601(5) 0.9103(10)
C20 C 0.7633(5) 0.2519(6) 0.9183(16)
H11 H 0.7583 0.2176 0.9625
O6 O 0.6455(3) 0.2101(4) 0.9573(8)
O7 O 0.6038(3) 0.2936(4) 0.8992(8)
C21 C 0.8220(6) 0.2718(6) 0.8901(15)
H12 H 0.8563 0.2496 0.9101
Th4 Th 0.531610(15) 0.217320(16) 0.98510(3)
H1_2 H 0.0841 0.5884 0.0370
C5_2 C 0.0787(5) 0.5037(5) 0.0077(11)
H3_2 H 0.0752 0.4935 0.0929
Cl2_2 Cl 0.04615(17) 0.80865(17) 0.0553(5)
O10_2 O 0.0506(3) 0.6782(4) 0.1674(7)
P1_2 P 0.09407(11) 0.65024(12) 0.8066(2)
O1_2 O 0.0508(3) 0.6842(3) 0.8868(7)
C1_2 C 0.0361(5) 0.6745(5) 0.3936(9)
C2_2 C 0.0844(5) 0.5599(5) 0.9748(11)
C3_2 C 0.0743(5) 0.6589(5) 0.6416(9)
C4_2 C 0.0928(6) 0.6568(6) 0.4177(11)
H2_2 H 0.1189 0.6482 0.3503
C6_2 C 0.1149(5) 0.6508(6) 0.5436(10)
H4_2 H 0.1558 0.6417 0.5593
C7_2 C 0.0133(5) 0.6723(8) 0.6150(11)
C9_2 C 0.0908(4) 0.5749(5) 0.8460(10)
C10_2 C 0.0674(4) 0.3982(5) 0.9513(9)
C11_2 C 0.0780(4) 0.4605(5) 0.9131(10)
C12_2 C 0.0158(5) 0.6871(5) 0.2641(10)
C13_2 C 0.0875(6) 0.4745(5) 0.7884(11)
H7_2 H 0.0903 0.4459 0.7269
C14_2 C 0.2217(5) 0.6424(5) 0.8037(12)
H8_2 H 0.2162 0.6060 0.7686
C15_2 C 0.0930(6) 0.5325(5) 0.7547(11)
H9_2 H 0.0983 0.5425 0.6698
C16_2 C 0.1708(4) 0.6754(5) 0.8325(10)
C17_2 C 0.2872(5) 0.7173(6) 0.8812(10)
C18_2 C 0.2810(5) 0.6625(5) 0.8259(11)
H10_2 H 0.3153 0.6405 0.8049
C19_2 C 0.3519(5) 0.7399(5) 0.9103(10)
C20_2 C 0.2367(5) 0.7481(6) 0.9183(16)
H11_2 H 0.2417 0.7824 0.9625
O6_2 O 0.3545(3) 0.7899(4) 0.9573(8)
O7_2 O 0.3962(3) 0.7064(4) 0.8992(8)
C21_2 C 0.1780(6) 0.7282(6) 0.8901(15)
H12_2 H 0.1437 0.7504 0.9101
Th4_2 Th 0.468390(15) 0.782680(16) 0.98510(3)
O11_2 O 0.9612(3) 0.7066(4) 0.2480(6)
O12_2 O 0.8545(3) 0.7101(4) 0.0427(8)
O13_2 O 0.8962(3) 0.7936(4) 0.1008(8)
H5_2 H 0.9850 0.6763 0.6806
C8_2 C 0.9954(5) 0.6793(8) 0.4936(12)
H6_2 H 0.9544 0.6877 0.4766
Cl1_2 Cl 0.9320(2) 0.7772(2) 0.8020(4)
C10_3 C 0.5674(4) 0.1018(5) 0.0487(9)
C11_3 C 0.5780(4) 0.0395(5) 0.0869(10)
O3_2 O 0.5735(3) 0.1416(4) 0.1316(7)
C13_3 C 0.5875(6) 0.0255(5) 0.2116(11)
H7_3 H 0.5903 0.0541 0.2731
H3_3 H 0.5752 0.0065 0.9071
O2_2 O 0.5508(3) 0.1129(3) 0.9375(8)
P1_3 P 0.59407(11) 0.84976(12) 0.1934(2)
O1_3 O 0.5508(3) 0.8158(3) 0.1132(7)
C1_3 C 0.5361(5) 0.8255(5) 0.6064(9)
C2_3 C 0.5844(5) 0.9401(5) 0.0252(11)
C3_3 C 0.5743(5) 0.8411(5) 0.3584(9)
C4_3 C 0.5928(6) 0.8432(6) 0.5823(11)
H2_3 H 0.6189 0.8518 0.6497
C6_3 C 0.6149(5) 0.8492(6) 0.4564(10)
H4_3 H 0.6558 0.8583 0.4407
C7_3 C 0.5133(5) 0.8277(8) 0.3850(11)
H5_3 H 0.4850 0.8237 0.3194
C8_3 C 0.4954(5) 0.8207(8) 0.5064(12)
H6_3 H 0.4544 0.8123 0.5234
C9_3 C 0.5908(4) 0.9251(5) 0.1540(10)
Cl1_3 Cl 0.4320(2) 0.7228(2) 0.1980(4)
O4 O 0.5506(3) 0.8218(4) 0.8326(7)
C12_3 C 0.5158(5) 0.8129(5) 0.7359(10)
C14_3 C 0.7217(5) 0.8576(5) 0.1963(12)
H8_3 H 0.7162 0.8940 0.2314
C15_3 C 0.5930(6) 0.9675(5) 0.2453(11)
H9_3 H 0.5983 0.9575 0.3302
C16_3 C 0.6708(4) 0.8246(5) 0.1675(10)
O5 O 0.4612(3) 0.7934(4) 0.7520(6)
C17_3 C 0.7872(5) 0.7827(6) 0.1188(10)
C18_3 C 0.7810(5) 0.8375(5) 0.1741(11)
H10_3 H 0.8153 0.8595 0.1951
C19_3 C 0.8519(5) 0.7601(5) 0.0897(10)
C20_3 C 0.7367(5) 0.7519(6) 0.0817(16)
H11_3 H 0.7417 0.7176 0.0375
C21_3 C 0.6780(6) 0.7718(6) 0.1099(15)
H12_3 H 0.6437 0.7496 0.0899
O9_2 O 0.4265(3) 0.8584(4) 0.1316(7)
H1_3 H 0.5841 0.9116 0.9630
C5_3 C 0.5787(5) 0.9963(5) 0.9923(11)
Cl2_3 Cl 0.54615(17) 0.69135(17) 0.9447(5)
O8_2 O 0.4492(3) 0.8871(3) 0.9375(8)
P1_4 P 0.40593(11) 0.15024(12) 0.1934(2)
O1_4 O 0.4492(3) 0.1842(3) 0.1132(7)
C1_4 C 0.4639(5) 0.1745(5) 0.6064(9)
C2_4 C 0.4156(5) 0.0599(5) 0.0252(11)
C3_4 C 0.4257(5) 0.1589(5) 0.3584(9)
C4_4 C 0.4072(6) 0.1568(6) 0.5823(11)
H2_4 H 0.3811 0.1482 0.6497
C6_4 C 0.3851(5) 0.1508(6) 0.4564(10)
H4_4 H 0.3442 0.1417 0.4407
C7_4 C 0.4867(5) 0.1723(8) 0.3850(11)
H5_4 H 0.5150 0.1763 0.3194
C8_4 C 0.5046(5) 0.1793(8) 0.5064(12)
H6_4 H 0.5456 0.1877 0.5234
C9_4 C 0.4092(4) 0.0749(5) 0.1540(10)
Cl1_4 Cl 0.5680(2) 0.2772(2) 0.1980(4)
O4_2 O 0.4494(3) 0.1782(4) 0.8326(7)
C12_4 C 0.4842(5) 0.1871(5) 0.7359(10)
C14_4 C 0.2783(5) 0.1424(5) 0.1963(12)
H8_4 H 0.2838 0.1060 0.2314
C15_4 C 0.4070(6) 0.0325(5) 0.2453(11)
H9_4 H 0.4017 0.0425 0.3302
C16_4 C 0.3292(4) 0.1754(5) 0.1675(10)
O5_2 O 0.5388(3) 0.2066(4) 0.7520(6)
C17_4 C 0.2128(5) 0.2173(6) 0.1188(10)
C18_4 C 0.2190(5) 0.1625(5) 0.1741(11)
H10_4 H 0.1847 0.1405 0.1951
C19_4 C 0.1481(5) 0.2399(5) 0.0897(10)
C20_4 C 0.2633(5) 0.2481(6) 0.0817(16)
H11_4 H 0.2583 0.2824 0.0375
C21_4 C 0.3220(6) 0.2282(6) 0.1099(15)
H12_4 H 0.3563 0.2504 0.0899
H1_4 H 0.4159 0.0884 0.9630
C5_4 C 0.4213(5) 0.0037(5) 0.9923(11)
Cl2_4 Cl 0.45385(17) 0.30865(17) 0.9447(5)
C10_4 C 0.4326(4) 0.8982(5) 0.0487(9)
C11_4 C 0.4220(4) 0.9605(5) 0.0869(10)
C13_4 C 0.4125(6) 0.9745(5) 0.2116(11)
H7_4 H 0.4097 0.9459 0.2731
H3_4 H 0.4248 0.9935 0.9071
loop_
_geom_bond_atom_site_label_1
_geom_bond_atom_site_label_2
_geom_bond_site_symmetry_1
_geom_bond_site_symmetry_2
O8 Th1 1_555 1_555
O11 Th1 1_555 1_555
O12 Th1 1_555 1_555
O13 Th1 1_555 1_555
H6 C8 1_555 1_555
H3 C5 1_555 1_555
Th3 O2 1_555 1_555
P1 O1 1_555 1_555
C1 C4 1_555 1_555
C3 P1 1_555 1_555
C4 H2 1_555 1_555
C6 C3 1_555 1_555
H4 C6 1_555 1_555
C7 C3 1_555 1_555
C9 P1 1_555 1_555
C10 C11 1_555 1_555
O3 C10 1_555 1_555
O10 C12 1_555 1_555
C12 C1 1_555 1_555
C13 C11 1_555 1_555
H7 C13 1_555 1_555
C14 H8 1_555 1_555
C15 C9 1_555 1_555
H9 C15 1_555 1_555
C16 P1 1_555 1_555
C17 C18 1_555 1_555
C18 C14 1_555 1_555
H10 C18 1_555 1_555
C19 C17 1_555 1_555
C20 C17 1_555 1_555
H11 C20 1_555 1_555
O6 C19 1_555 1_555
O7 C19 1_555 1_555
C21 C16 1_555 1_555
H12 C21 1_555 1_555
Th4 O6 1_555 1_555
C2 C9 1_555 1_555
C4 C6 1_555 1_555
C13 C15 1_555 1_555
C14 C16 1_555 1_555
C20 C21 1_555 1_555
O7 Th4 1_555 1_555
H3_2 C5_2 1_555 1_555
P1_2 O1_2 1_555 1_555
C1_2 C4_2 1_555 1_555
C3_2 P1_2 1_555 1_555
C4_2 H2_2 1_555 1_555
C6_2 C3_2 1_555 1_555
H4_2 C6_2 1_555 1_555
C7_2 C3_2 1_555 1_555
C9_2 P1_2 1_555 1_555
C10_2 C11_2 1_555 1_555
O9 C10_2 1_555 1_555
O10_2 C12_2 1_555 1_555
C12_2 C1_2 1_555 1_555
C13_2 C11_2 1_555 1_555
H7_2 C13_2 1_555 1_555
C14_2 H8_2 1_555 1_555
C15_2 C9_2 1_555 1_555
H9_2 C15_2 1_555 1_555
C16_2 P1_2 1_555 1_555
C17_2 C18_2 1_555 1_555
C18_2 C14_2 1_555 1_555
H10_2 C18_2 1_555 1_555
C19_2 C17_2 1_555 1_555
C20_2 C17_2 1_555 1_555
H11_2 C20_2 1_555 1_555
O6_2 C19_2 1_555 1_555
O7_2 C19_2 1_555 1_555
C21_2 C16_2 1_555 1_555
H12_2 C21_2 1_555 1_555
Th4_2 O6_2 1_555 1_555
C2_2 C9_2 1_555 1_555
C4_2 C6_2 1_555 1_555
C13_2 C15_2 1_555 1_555
C14_2 C16_2 1_555 1_555
C20_2 C21_2 1_555 1_555
O7_2 Th4_2 1_555 1_555
O11_2 Th3 1_555 1_555
O12_2 Th3 1_555 1_555
O13_2 Th3 1_555 1_555
H6_2 C8_2 1_555 1_555
C10_3 C11_3 1_555 1_555
O3_2 C10_3 1_555 1_555
C13_3 C11_3 1_555 1_555
H7_3 C13_3 1_555 1_555
Th4 O2_2 1_555 1_555
P1_3 O1_3 1_555 1_555
C1_3 C4_3 1_555 1_555
C3_3 P1_3 1_555 1_555
C4_3 H2_3 1_555 1_555
C6_3 C3_3 1_555 1_555
H4_3 C6_3 1_555 1_555
C7_3 C3_3 1_555 1_555
H5_3 C7_3 1_555 1_555
C8_3 C1_3 1_555 1_555
H6_3 C8_3 1_555 1_555
C9_3 P1_3 1_555 1_555
O4 C12_3 1_555 1_555
C12_3 C1_3 1_555 1_555
C14_3 H8_3 1_555 1_555
C15_3 C9_3 1_555 1_555
H9_3 C15_3 1_555 1_555
C16_3 P1_3 1_555 1_555
O5 C12_3 1_555 1_555
C17_3 C18_3 1_555 1_555
C18_3 C14_3 1_555 1_555
H10_3 C18_3 1_555 1_555
C19_3 C17_3 1_555 1_555
C20_3 C17_3 1_555 1_555
H11_3 C20_3 1_555 1_555
O12_2 C19_3 1_555 1_555
O13_2 C19_3 1_555 1_555
C21_3 C16_3 1_555 1_555
H12_3 C21_3 1_555 1_555
Th4_2 O4 1_555 1_555
C2_3 C9_3 1_555 1_555
C4_3 C6_3 1_555 1_555
C7_3 C8_3 1_555 1_555
C14_3 C16_3 1_555 1_555
O5 Th4_2 1_555 1_555
C20_3 C21_3 1_555 1_555
Cl2_3 Th4_2 1_555 1_555
O8_2 Th4_2 1_555 1_555
P1_4 O1_4 1_555 1_555
C1_4 C4_4 1_555 1_555
C3_4 P1_4 1_555 1_555
C4_4 H2_4 1_555 1_555
C6_4 C3_4 1_555 1_555
H4_4 C6_4 1_555 1_555
C7_4 C3_4 1_555 1_555
H5_4 C7_4 1_555 1_555
C8_4 C1_4 1_555 1_555
H6_4 C8_4 1_555 1_555
C9_4 P1_4 1_555 1_555
O4_2 C12_4 1_555 1_555
C12_4 C1_4 1_555 1_555
C14_4 H8_4 1_555 1_555
C15_4 C9_4 1_555 1_555
H9_4 C15_4 1_555 1_555
C16_4 P1_4 1_555 1_555
O5_2 C12_4 1_555 1_555
C17_4 C18_4 1_555 1_555
C18_4 C14_4 1_555 1_555
H10_4 C18_4 1_555 1_555
C19_4 C17_4 1_555 1_555
C20_4 C17_4 1_555 1_555
H11_4 C20_4 1_555 1_555
O12 C19_4 1_555 1_555
O13 C19_4 1_555 1_555
C21_4 C16_4 1_555 1_555
H12_4 C21_4 1_555 1_555
Th4 O4_2 1_555 1_555
C2_4 C9_4 1_555 1_555
C4_4 C6_4 1_555 1_555
C7_4 C8_4 1_555 1_555
C14_4 C16_4 1_555 1_555
O5_2 Th4 1_555 1_555
C20_4 C21_4 1_555 1_555
Cl2_4 Th4 1_555 1_555
C10_4 C11_4 1_555 1_555
O9_2 C10_4 1_555 1_555
C13_4 C11_4 1_555 1_555
H7_4 C13_4 1_555 1_555

#END
