
###############################################################################
#
# This file contains modified crystal structure data generated from the
# MOF subset of the Cambridge Structural Database (CSD) v543 
# hosted by the Cambridge Crystallographic Data Centre (CCDC).
#
# This work is licensed under the Creative Commons
# Attribution-NonCommercial-ShareAlike 4.0 International License.
# To view a copy of this license, visit
# http://creativecommons.org/licenses/by-nc-sa/4.0/
# or send a letter to
# Creative Commons, PO Box 1866, Mountain View, CA 94042, USA.
#
# CIF created using the CSD Python API on 29 September 2022
# The structure has been converted into the P1 space group
# The structure has a 3D framework
# The original CSD entry HUWMEU is in the hexagonal crystal system
# The framework has been calculated to contain at least 10.0% void space
# The void calculation uses a probe of radius 1.32A, grid spacing 0.4
# The framework is charged, counterions have been retained in the structure
#
###############################################################################

data_HUWMEU
_chemical_formula_moiety         '(C48 H48 Fe4 K12 O88 V12 Zn5 6+)n'
_symmetry_cell_setting           triclinic
_symmetry_space_group_name_H-M   'P 1'
_symmetry_Int_Tables_number      1
_space_group_name_Hall           'P 1'
loop_
_symmetry_equiv_pos_site_id
_symmetry_equiv_pos_as_xyz
1 x,y,z
_cell_length_a                   14.4380(5)
_cell_length_b                   14.4380(5)
_cell_length_c                   16.1108(5)
_cell_angle_alpha                90
_cell_angle_beta                 90
_cell_angle_gamma                120
_cell_volume                     2908.45
loop_
_atom_site_label
_atom_site_type_symbol
_atom_site_fract_x
_atom_site_fract_y
_atom_site_fract_z
K1 K 0.0471(2) 0.7007(3) -0.000000
K1_2 K 0.0471(2) 0.7007(3) 1.000000
K1_3 K 0.2993(3) 0.3464(4) -0.000000
K1_4 K 0.2993(3) 0.3464(4) 1.000000
K1_5 K 0.6536(4) 0.9529(2) -0.000000
K1_6 K 0.6536(4) 0.9529(2) 1.000000
K1_7 K 0.9529(2) 0.2993(3) -0.000000
K1_8 K 0.9529(2) 0.2993(3) 1.000000
K1_9 K 0.7007(3) 0.6536(4) -0.000000
K1_10 K 0.7007(3) 0.6536(4) 1.000000
K1_11 K 0.3464(4) 0.0471(2) -0.000000
K1_12 K 0.3464(4) 0.0471(2) 1.000000
Zn3 Zn 0.500000 0.000000 0.500000
O20 O 0.6486(6) 0.1454(4) 0.500000
H14 H 0.6473(34) 0.1793(17) 0.4569(6)
H15 H 0.6473(34) 0.1793(17) 0.5431(6)
O96 O 0.4377(4) 0.0532(3) 0.5930(2)
O98 O 0.4377(4) 0.0532(3) 0.4070(2)
O5 O 0.3031(5) 0.7957(4) -0.000000
O13 O 0.2043(4) 0.5074(6) -0.000000
O21 O 0.4926(6) 0.6969(5) -0.000000
V16 V 0.34726(7) 0.80497(7) 0.10652(5)
V17 V 0.19503(7) 0.54229(10) 0.10652(5)
V18 V 0.45771(10) 0.65274(7) 0.10652(5)
Zn1 Zn 0.000000 0.500000 0.500000
Fe1 Fe 0.333333 0.666667 0.70890(6)
V1 V 0.34726(7) 0.80497(7) 0.89348(5)
O1 O 0.333333 0.666667 0.8968(3)
O2 O 0.3007(3) 0.7642(3) 0.77498(19)
O3 O 0.2118(3) 0.6395(3) 0.6307(2)
O5_2 O 0.3031(5) 0.7957(4) 1.000000
O6 O 0.2806(3) 0.8926(3) 0.8701(2)
O7 O 0.0532(3) 0.6155(3) 0.5930(2)
O8 O 0.1911(3) 0.9361(3) 0.7810(3)
O9 O 0.4737(3) 0.8810(3) 0.8941(2)
C1 C 0.2372(4) 0.8861(4) 0.7994(3)
C2 C 0.2468(4) 0.8115(4) 0.7355(3)
H1 H 0.289548 0.854500 0.686815
C3 C 0.1334(4) 0.6569(4) 0.6386(3)
C4 C 0.1358(4) 0.7278(5) 0.7068(3)
H2 H 0.096269 0.682647 0.754908
H3 H 0.097422 0.764770 0.687962
Zn2 Zn 0.500000 0.500000 0.500000
V2 V 0.19503(7) 0.54229(10) 0.89348(5)
O10 O 0.2358(3) 0.5365(4) 0.77498(19)
O11 O 0.3605(3) 0.5723(4) 0.6307(2)
O12 O 0.4968(5) 0.3514(6) 0.500000
O13_2 O 0.2043(4) 0.5074(6) 1.000000
O14 O 0.1074(3) 0.3880(4) 0.8701(2)
O15 O 0.3845(3) 0.4377(4) 0.5930(2)
O16 O 0.0639(3) 0.2550(4) 0.7810(3)
O17 O 0.1190(3) 0.5927(4) 0.8941(2)
C5 C 0.1139(4) 0.3511(6) 0.7994(3)
C6 C 0.1885(4) 0.4353(6) 0.7355(3)
H6 H 0.145500 0.435048 0.686815
C7 C 0.3431(4) 0.4765(6) 0.6386(3)
C8 C 0.2722(5) 0.4080(6) 0.7068(3)
H7 H 0.317353 0.413622 0.754908
H8 H 0.235230 0.332652 0.687962
H9 H 0.532(3) 0.3527(34) 0.4569(6)
H10 H 0.532(3) 0.3527(34) 0.5431(6)
Zn3_2 Zn 0.500000 1.000000 0.500000
V3 V 0.45771(10) 0.65274(7) 0.89348(5)
O18 O 0.4635(4) 0.6993(3) 0.77498(19)
O19 O 0.4277(4) 0.7882(3) 0.6307(2)
O21_2 O 0.4926(6) 0.6969(5) 1.000000
O22 O 0.6120(4) 0.7194(3) 0.8701(2)
O23 O 0.5623(4) 0.9468(3) 0.5930(2)
O24 O 0.7450(4) 0.8089(3) 0.7810(3)
O25 O 0.4073(4) 0.5263(3) 0.8941(2)
C9 C 0.6489(6) 0.7628(4) 0.7994(3)
C10 C 0.5647(6) 0.7532(4) 0.7355(3)
H11 H 0.564952 0.710452 0.686815
C11 C 0.5235(6) 0.8666(4) 0.6386(3)
C12 C 0.5920(6) 0.8642(4) 0.7068(3)
H12 H 0.586378 0.903731 0.754908
H13 H 0.667348 0.902578 0.687962
O29 O 0.1454(4) 0.4968(5) 0.500000
H19 H 0.1793(17) 0.532(3) 0.4569(6)
H20 H 0.1793(17) 0.532(3) 0.5431(6)
Fe4 Fe 0.333333 0.666667 0.29110(6)
O68 O 0.333333 0.666667 0.1032(3)
O69 O 0.3007(3) 0.7642(3) 0.22502(19)
O70 O 0.2118(3) 0.6395(3) 0.3693(2)
O71 O 0.2806(3) 0.8926(3) 0.1299(2)
O72 O 0.0532(3) 0.6155(3) 0.4070(2)
O73 O 0.1911(3) 0.9361(3) 0.2190(3)
O74 O 0.4737(3) 0.8810(3) 0.1059(2)
C37 C 0.2372(4) 0.8861(4) 0.2006(3)
C38 C 0.2468(4) 0.8115(4) 0.2645(3)
H36 H 0.289548 0.854500 0.313185
C39 C 0.1334(4) 0.6569(4) 0.3614(3)
C40 C 0.1358(4) 0.7278(5) 0.2932(3)
H37 H 0.096269 0.682647 0.245092
H38 H 0.097422 0.764770 0.312038
O75 O 0.2358(3) 0.5365(4) 0.22502(19)
O76 O 0.3605(3) 0.5723(4) 0.3693(2)
O77 O 0.1074(3) 0.3880(4) 0.1299(2)
O78 O 0.3845(3) 0.4377(4) 0.4070(2)
O79 O 0.0639(3) 0.2550(4) 0.2190(3)
O80 O 0.1190(3) 0.5927(4) 0.1059(2)
C41 C 0.1139(4) 0.3511(6) 0.2006(3)
C42 C 0.1885(4) 0.4353(6) 0.2645(3)
H39 H 0.145500 0.435048 0.313185
C43 C 0.3431(4) 0.4765(6) 0.3614(3)
C44 C 0.2722(5) 0.4080(6) 0.2932(3)
H40 H 0.317353 0.413622 0.245092
H41 H 0.235230 0.332652 0.312038
O81 O 0.4635(4) 0.6993(3) 0.22502(19)
O82 O 0.4277(4) 0.7882(3) 0.3693(2)
O83 O 0.6120(4) 0.7194(3) 0.1299(2)
O84 O 0.5623(4) 0.9468(3) 0.4070(2)
O85 O 0.7450(4) 0.8089(3) 0.2190(3)
O86 O 0.4073(4) 0.5263(3) 0.1059(2)
C45 C 0.6489(6) 0.7628(4) 0.2006(3)
C46 C 0.5647(6) 0.7532(4) 0.2645(3)
H42 H 0.564952 0.710452 0.313185
C47 C 0.5235(6) 0.8666(4) 0.3614(3)
C48 C 0.5920(6) 0.8642(4) 0.2932(3)
H43 H 0.586378 0.903731 0.245092
H44 H 0.667348 0.902578 0.312038
O87 O 0.5032(5) 0.6486(6) 0.500000
H45 H 0.468(3) 0.6473(34) 0.4569(6)
H46 H 0.468(3) 0.6473(34) 0.5431(6)
O88 O 0.3514(6) 0.8546(4) 0.500000
H47 H 0.3527(34) 0.8207(17) 0.4569(6)
H48 H 0.3527(34) 0.8207(17) 0.5431(6)
O95 O 0.6155(3) 0.5623(4) 0.5930(2)
O97 O 0.6155(3) 0.5623(4) 0.4070(2)
O30 O 0.6969(5) 0.2043(4) -0.000000
O37 O 0.7957(4) 0.4926(6) -0.000000
O44 O 0.5074(6) 0.3031(5) -0.000000
V13 V 0.65274(7) 0.19503(7) 0.10652(5)
V14 V 0.80497(7) 0.45771(10) 0.10652(5)
V15 V 0.54229(10) 0.34726(7) 0.10652(5)
Zn1_2 Zn 1.000000 0.500000 0.500000
O4 O 0.8546(4) 0.5032(5) 0.500000
H4 H 0.8207(17) 0.468(3) 0.4569(6)
H5 H 0.8207(17) 0.468(3) 0.5431(6)
Fe2 Fe 0.666667 0.333333 0.70890(6)
V4 V 0.65274(7) 0.19503(7) 0.89348(5)
O26 O 0.666667 0.333333 0.8968(3)
O27 O 0.6993(3) 0.2358(3) 0.77498(19)
O28 O 0.7882(3) 0.3605(3) 0.6307(2)
O30_2 O 0.6969(5) 0.2043(4) 1.000000
O31 O 0.7194(3) 0.1074(3) 0.8701(2)
O32 O 0.9468(3) 0.3845(3) 0.5930(2)
O33 O 0.8089(3) 0.0639(3) 0.7810(3)
O34 O 0.5263(3) 0.1190(3) 0.8941(2)
C13 C 0.7628(4) 0.1139(4) 0.7994(3)
C14 C 0.7532(4) 0.1885(4) 0.7355(3)
H16 H 0.710452 0.145500 0.686815
C15 C 0.8666(4) 0.3431(4) 0.6386(3)
C16 C 0.8642(4) 0.2722(5) 0.7068(3)
H17 H 0.903731 0.317353 0.754908
H18 H 0.902578 0.235230 0.687962
V5 V 0.80497(7) 0.45771(10) 0.89348(5)
O35 O 0.7642(3) 0.4635(4) 0.77498(19)
O36 O 0.6395(3) 0.4277(4) 0.6307(2)
O37_2 O 0.7957(4) 0.4926(6) 1.000000
O38 O 0.8926(3) 0.6120(4) 0.8701(2)
O40 O 0.9361(3) 0.7450(4) 0.7810(3)
O41 O 0.8810(3) 0.4073(4) 0.8941(2)
C17 C 0.8861(4) 0.6489(6) 0.7994(3)
C18 C 0.8115(4) 0.5647(6) 0.7355(3)
H21 H 0.854500 0.564952 0.686815
C19 C 0.6569(4) 0.5235(6) 0.6386(3)
C20 C 0.7278(5) 0.5920(6) 0.7068(3)
H22 H 0.682647 0.586378 0.754908
H23 H 0.764770 0.667348 0.687962
V6 V 0.54229(10) 0.34726(7) 0.89348(5)
O42 O 0.5365(4) 0.3007(3) 0.77498(19)
O43 O 0.5723(4) 0.2118(3) 0.6307(2)
O44_2 O 0.5074(6) 0.3031(5) 1.000000
O45 O 0.3880(4) 0.2806(3) 0.8701(2)
O47 O 0.2550(4) 0.1911(3) 0.7810(3)
O48 O 0.5927(4) 0.4737(3) 0.8941(2)
C21 C 0.3511(6) 0.2372(4) 0.7994(3)
C22 C 0.4353(6) 0.2468(4) 0.7355(3)
H24 H 0.435048 0.289548 0.686815
C23 C 0.4765(6) 0.1334(4) 0.6386(3)
C24 C 0.4080(6) 0.1358(4) 0.7068(3)
H25 H 0.413622 0.096269 0.754908
H26 H 0.332652 0.097422 0.687962
Fe3 Fe 0.666667 0.333333 0.29110(6)
O49 O 0.666667 0.333333 0.1032(3)
O50 O 0.6993(3) 0.2358(3) 0.22502(19)
O51 O 0.7882(3) 0.3605(3) 0.3693(2)
O52 O 0.7194(3) 0.1074(3) 0.1299(2)
O53 O 0.9468(3) 0.3845(3) 0.4070(2)
O54 O 0.8089(3) 0.0639(3) 0.2190(3)
O55 O 0.5263(3) 0.1190(3) 0.1059(2)
C25 C 0.7628(4) 0.1139(4) 0.2006(3)
C26 C 0.7532(4) 0.1885(4) 0.2645(3)
H27 H 0.710452 0.145500 0.313185
C27 C 0.8666(4) 0.3431(4) 0.3614(3)
C28 C 0.8642(4) 0.2722(5) 0.2932(3)
H28 H 0.903731 0.317353 0.245092
H29 H 0.902578 0.235230 0.312038
O56 O 0.7642(3) 0.4635(4) 0.22502(19)
O57 O 0.6395(3) 0.4277(4) 0.3693(2)
O58 O 0.8926(3) 0.6120(4) 0.1299(2)
O60 O 0.9361(3) 0.7450(4) 0.2190(3)
O61 O 0.8810(3) 0.4073(4) 0.1059(2)
C29 C 0.8861(4) 0.6489(6) 0.2006(3)
C30 C 0.8115(4) 0.5647(6) 0.2645(3)
H30 H 0.854500 0.564952 0.313185
C31 C 0.6569(4) 0.5235(6) 0.3614(3)
C32 C 0.7278(5) 0.5920(6) 0.2932(3)
H31 H 0.682647 0.586378 0.245092
H32 H 0.764770 0.667348 0.312038
O62 O 0.5365(4) 0.3007(3) 0.22502(19)
O63 O 0.5723(4) 0.2118(3) 0.3693(2)
O64 O 0.3880(4) 0.2806(3) 0.1299(2)
O66 O 0.2550(4) 0.1911(3) 0.2190(3)
O67 O 0.5927(4) 0.4737(3) 0.1059(2)
C33 C 0.3511(6) 0.2372(4) 0.2006(3)
C34 C 0.4353(6) 0.2468(4) 0.2645(3)
H33 H 0.435048 0.289548 0.313185
C35 C 0.4765(6) 0.1334(4) 0.3614(3)
C36 C 0.4080(6) 0.1358(4) 0.2932(3)
H34 H 0.413622 0.096269 0.245092
H35 H 0.332652 0.097422 0.312038
loop_
_geom_bond_atom_site_label_1
_geom_bond_atom_site_label_2
_geom_bond_site_symmetry_1
_geom_bond_site_symmetry_2
Zn3 O20 1_555 1_555
O20 H14 1_555 1_555
H15 O20 1_555 1_555
O96 Zn3 1_555 1_555
O98 Zn3 1_555 1_555
V16 O5 1_555 1_555
V17 O13 1_555 1_555
V18 O21 1_555 1_555
Fe1 O2 1_555 1_555
V1 O1 1_555 1_555
O1 V2 1_555 1_555
O2 V1 1_555 1_555
O3 Fe1 1_555 1_555
O5_2 V1 1_555 1_555
O6 V1 1_555 1_555
O7 Zn1 1_555 1_555
O8 C1 1_555 1_555
O9 V1 1_555 1_555
C1 O6 1_555 1_555
C2 O2 1_555 1_555
H1 C2 1_555 1_555
C3 O3 1_555 1_555
C4 C2 1_555 1_555
H2 C4 1_555 1_555
H3 C4 1_555 1_555
Zn2 O12 1_555 1_555
V2 O10 1_555 1_555
O10 Fe1 1_555 1_555
O11 Fe1 1_555 1_555
O12 H9 1_555 1_555
O13_2 V2 1_555 1_555
O14 V2 1_555 1_555
O15 Zn2 1_555 1_555
O16 C5 1_555 1_555
O17 V2 1_555 1_555
C5 O14 1_555 1_555
C6 O10 1_555 1_555
H6 C6 1_555 1_555
C7 O11 1_555 1_555
C8 C6 1_555 1_555
H7 C8 1_555 1_555
H8 C8 1_555 1_555
H10 O12 1_555 1_555
V3 O1 1_555 1_555
O18 Fe1 1_555 1_555
O19 Fe1 1_555 1_555
O21_2 V3 1_555 1_555
O22 V3 1_555 1_555
O23 Zn3_2 1_555 1_555
O24 C9 1_555 1_555
O25 V3 1_555 1_555
C9 O22 1_555 1_555
C10 O18 1_555 1_555
H11 C10 1_555 1_555
C11 O19 1_555 1_555
C12 C10 1_555 1_555
H12 C12 1_555 1_555
H13 C12 1_555 1_555
O29 Zn1 1_555 1_555
H19 O29 1_555 1_555
H20 O29 1_555 1_555
Fe4 O69 1_555 1_555
V16 O68 1_555 1_555
O68 V17 1_555 1_555
O69 V16 1_555 1_555
O70 Fe4 1_555 1_555
O71 V16 1_555 1_555
O72 Zn1 1_555 1_555
O73 C37 1_555 1_555
O74 V16 1_555 1_555
C37 O71 1_555 1_555
C38 O69 1_555 1_555
H36 C38 1_555 1_555
C39 O70 1_555 1_555
C40 C38 1_555 1_555
H37 C40 1_555 1_555
H38 C40 1_555 1_555
V17 O75 1_555 1_555
O75 Fe4 1_555 1_555
O76 Fe4 1_555 1_555
O77 V17 1_555 1_555
O78 Zn2 1_555 1_555
O79 C41 1_555 1_555
O80 V17 1_555 1_555
C41 O77 1_555 1_555
C42 O75 1_555 1_555
H39 C42 1_555 1_555
C43 O76 1_555 1_555
C44 C42 1_555 1_555
H40 C44 1_555 1_555
H41 C44 1_555 1_555
V18 O68 1_555 1_555
O81 Fe4 1_555 1_555
O82 Fe4 1_555 1_555
O83 V18 1_555 1_555
O84 Zn3_2 1_555 1_555
O85 C45 1_555 1_555
O86 V18 1_555 1_555
C45 O83 1_555 1_555
C46 O81 1_555 1_555
H42 C46 1_555 1_555
C47 O82 1_555 1_555
C48 C46 1_555 1_555
H43 C48 1_555 1_555
H44 C48 1_555 1_555
O87 Zn2 1_555 1_555
H45 O87 1_555 1_555
H46 O87 1_555 1_555
O88 Zn3_2 1_555 1_555
H47 O88 1_555 1_555
H48 O88 1_555 1_555
O95 Zn2 1_555 1_555
O97 Zn2 1_555 1_555
O7 C3 1_555 1_555
C1 C2 1_555 1_555
C3 C4 1_555 1_555
O15 C7 1_555 1_555
C5 C6 1_555 1_555
C7 C8 1_555 1_555
V3 O18 1_555 1_555
O23 C11 1_555 1_555
C9 C10 1_555 1_555
C11 C12 1_555 1_555
O72 C39 1_555 1_555
C37 C38 1_555 1_555
C39 C40 1_555 1_555
O78 C43 1_555 1_555
C41 C42 1_555 1_555
C43 C44 1_555 1_555
V18 O81 1_555 1_555
O84 C47 1_555 1_555
C45 C46 1_555 1_555
C47 C48 1_555 1_555
V13 O30 1_555 1_555
V14 O37 1_555 1_555
V15 O44 1_555 1_555
Zn1_2 O4 1_555 1_555
O4 H4 1_555 1_555
H5 O4 1_555 1_555
Fe2 O27 1_555 1_555
V4 O26 1_555 1_555
O26 V5 1_555 1_555
O27 V4 1_555 1_555
O28 Fe2 1_555 1_555
O30_2 V4 1_555 1_555
O31 V4 1_555 1_555
O32 Zn1_2 1_555 1_555
O33 C13 1_555 1_555
O34 V4 1_555 1_555
C13 O31 1_555 1_555
C14 O27 1_555 1_555
H16 C14 1_555 1_555
C15 O28 1_555 1_555
C16 C14 1_555 1_555
H17 C16 1_555 1_555
H18 C16 1_555 1_555
V5 O35 1_555 1_555
O35 Fe2 1_555 1_555
O36 Fe2 1_555 1_555
O37_2 V5 1_555 1_555
O38 V5 1_555 1_555
O95 C19 1_555 1_555
O40 C17 1_555 1_555
O41 V5 1_555 1_555
C17 O38 1_555 1_555
C18 O35 1_555 1_555
H21 C18 1_555 1_555
C19 O36 1_555 1_555
C20 C18 1_555 1_555
H22 C20 1_555 1_555
H23 C20 1_555 1_555
V6 O26 1_555 1_555
O42 Fe2 1_555 1_555
O43 Fe2 1_555 1_555
O44_2 V6 1_555 1_555
O45 V6 1_555 1_555
O96 C23 1_555 1_555
O47 C21 1_555 1_555
O48 V6 1_555 1_555
C21 O45 1_555 1_555
C22 O42 1_555 1_555
H24 C22 1_555 1_555
C23 O43 1_555 1_555
C24 C22 1_555 1_555
H25 C24 1_555 1_555
H26 C24 1_555 1_555
Fe3 O50 1_555 1_555
V13 O49 1_555 1_555
O49 V14 1_555 1_555
O50 V13 1_555 1_555
O51 Fe3 1_555 1_555
O52 V13 1_555 1_555
O53 Zn1_2 1_555 1_555
O54 C25 1_555 1_555
O55 V13 1_555 1_555
C25 O52 1_555 1_555
C26 O50 1_555 1_555
H27 C26 1_555 1_555
C27 O51 1_555 1_555
C28 C26 1_555 1_555
H28 C28 1_555 1_555
H29 C28 1_555 1_555
V14 O56 1_555 1_555
O56 Fe3 1_555 1_555
O57 Fe3 1_555 1_555
O58 V14 1_555 1_555
O97 C31 1_555 1_555
O60 C29 1_555 1_555
O61 V14 1_555 1_555
C29 O58 1_555 1_555
C30 O56 1_555 1_555
H30 C30 1_555 1_555
C31 O57 1_555 1_555
C32 C30 1_555 1_555
H31 C32 1_555 1_555
H32 C32 1_555 1_555
V15 O49 1_555 1_555
O62 Fe3 1_555 1_555
O63 Fe3 1_555 1_555
O64 V15 1_555 1_555
O98 C35 1_555 1_555
O66 C33 1_555 1_555
O67 V15 1_555 1_555
C33 O64 1_555 1_555
C34 O62 1_555 1_555
H33 C34 1_555 1_555
C35 O63 1_555 1_555
C36 C34 1_555 1_555
H34 C36 1_555 1_555
H35 C36 1_555 1_555
O32 C15 1_555 1_555
C13 C14 1_555 1_555
C15 C16 1_555 1_555
C17 C18 1_555 1_555
C19 C20 1_555 1_555
V6 O42 1_555 1_555
C21 C22 1_555 1_555
C23 C24 1_555 1_555
O53 C27 1_555 1_555
C25 C26 1_555 1_555
C27 C28 1_555 1_555
C29 C30 1_555 1_555
C31 C32 1_555 1_555
V15 O62 1_555 1_555
C33 C34 1_555 1_555
C35 C36 1_555 1_555

#END
