
###############################################################################
#
# This file contains modified crystal structure data generated from the
# MOF subset of the Cambridge Structural Database (CSD) v543 
# hosted by the Cambridge Crystallographic Data Centre (CCDC).
#
# This work is licensed under the Creative Commons
# Attribution-NonCommercial-ShareAlike 4.0 International License.
# To view a copy of this license, visit
# http://creativecommons.org/licenses/by-nc-sa/4.0/
# or send a letter to
# Creative Commons, PO Box 1866, Mountain View, CA 94042, USA.
#
# CIF created using the CSD Python API on 29 September 2022
# The structure has been converted into the P1 space group
# The structure has a 3D framework
# The original CSD entry HUWRAV is in the orthorhombic crystal system
# The original CSD entry HUWRAV is in a Sohncke space group
# The framework has been calculated to contain at least 10.0% void space
# The void calculation uses a probe of radius 1.32A, grid spacing 0.4
# The framework is charged, counterions have been retained in the structure
# H atom positions have been added when not included in the experimental data
#
###############################################################################

data_HUWRAV
_chemical_formula_moiety         '(C200 H244 Ag7 F24 N46 O36 P4 1-)n'
_symmetry_cell_setting           triclinic
_symmetry_space_group_name_H-M   'P 1'
_symmetry_Int_Tables_number      1
_space_group_name_Hall           'P 1'
loop_
_symmetry_equiv_pos_site_id
_symmetry_equiv_pos_as_xyz
1 x,y,z
_cell_length_a                   10.867(4)
_cell_length_b                   14.529(5)
_cell_length_c                   47.311(17)
_cell_angle_alpha                90
_cell_angle_beta                 90
_cell_angle_gamma                90
_cell_volume                     7469.77
loop_
_atom_site_label
_atom_site_type_symbol
_atom_site_fract_x
_atom_site_fract_y
_atom_site_fract_z
N1 N 0.0200(8) 0.4368(6) 0.07974(18)
H8 H 0.0379 0.5602 0.0977
Ag4 Ag 0.20870(7) 0.39316(7) 0.08527(2)
Ag1 Ag 0.01057(7) 0.04002(6) 0.79266(2)
C24 C 0.0188(10) 0.3203(8) 0.8261(2)
H31 H 0.0774 0.3687 0.8254
C25 C 0.0419(10) 0.2413(8) 0.8121(2)
H32 H 0.1161 0.2353 0.8017
O10 O 0.0888(6) 0.0930(5) 0.74111(16)
O11 O 0.2397(6) 0.1113(5) 0.79669(16)
Ag2 Ag 0.29130(7) 0.60684(7) 0.58527(2)
N7 N 0.0429(7) 0.9003(7) 0.77759(18)
N12 N 0.1036(8) 0.6436(7) 0.59523(17)
C28 C 0.0895(10) 0.7300(8) 0.7539(2)
H34 H 0.1058 0.6720 0.7454
C29 C 0.1669(10) 0.8032(8) 0.7488(2)
H35 H 0.2374 0.7957 0.7371
C30 C 0.1414(9) 0.8862(8) 0.7605(2)
H36 H 0.1947 0.9364 0.7566
C46 C 0.0342(10) 0.5846(8) 0.6099(2)
H57 H 0.0648 0.5240 0.6128
C50 C 0.0574(9) 0.7268(8) 0.5900(2)
H60 H 0.1041 0.7694 0.5791
N13 N 0.4800(8) 0.5632(6) 0.57974(18)
O9 O 0.3201(6) 0.7818(5) 0.57286(15)
N3 N 0.6719(7) 0.3599(7) 0.97865(18)
N4 N 0.5195(8) 0.3612(7) 0.90935(17)
N5 N 0.7111(8) 0.2632(6) 0.85501(17)
H2 H 0.6643 0.2141 0.8531
N6 N 0.9618(8) 0.1705(7) 0.81276(19)
O2 O 0.5257(6) 0.2544(6) 0.98175(15)
O3 O 0.6799(6) 0.2818(5) 0.92714(15)
O4 O 0.7159(8) 0.4078(5) 0.87503(16)
C9 C 0.7850(11) 0.1622(9) 0.9913(3)
H12 H 0.7345 0.1253 0.9784
H13 H 0.8409 0.2013 0.9804
C10 C 0.6273(9) 0.2826(9) 0.9894(2)
C11 C 0.7938(10) 0.4054(8) 0.9821(2)
H15 H 0.8604 0.3590 0.9831
H16 H 0.7956 0.4430 0.9995
C12 C 0.8083(11) 0.4652(10) 0.9563(2)
H17 H 0.8449 0.4305 0.9404
H18 H 0.8598 0.5198 0.9603
C13 C 0.6751(11) 0.4927(9) 0.9499(3)
H19 H 0.6483 0.5436 0.9624
H20 H 0.6660 0.5123 0.9300
C14 C 0.6005(10) 0.4055(8) 0.9557(2)
H21 H 0.5143 0.4199 0.9617
C15 C 0.6039(10) 0.3444(8) 0.9299(2)
C16 C 0.4253(11) 0.4340(9) 0.9087(2)
H22 H 0.3703 0.4303 0.9253
H23 H 0.4632 0.4959 0.9079
C17 C 0.359(2) 0.4129(17) 0.8826(4)
H24 H 0.2852 0.3761 0.8871
H25 H 0.3325 0.4709 0.8735
C18 C 0.4372(11) 0.3620(10) 0.8634(2)
H26 H 0.4767 0.4040 0.8496
H27 H 0.3886 0.3155 0.8529
C19 C 0.5346(9) 0.3152(8) 0.8821(2)
H28 H 0.5187 0.2476 0.8838
C20 C 0.6657(10) 0.3341(8) 0.8712(2)
C21 C 0.8562(10) 0.1796(8) 0.8267(2)
H29 H 0.7996 0.1298 0.8270
C22 C 0.8269(9) 0.2622(8) 0.8410(2)
C23 C 0.9090(11) 0.3324(8) 0.8415(2)
H30 H 0.8934 0.3873 0.8518
Ag5 Ag 0.70870(7) 0.10684(7) 0.91473(2)
N8 N 0.8139(8) 0.6674(6) 0.79456(18)
H3 H 0.8097 0.7171 0.8052
N9 N 0.6229(8) 0.6355(6) 0.75338(19)
N10 N 0.6384(8) 0.4938(6) 0.69179(18)
N11 N 0.8669(8) 0.5401(7) 0.63886(18)
H4 H 0.9133 0.4931 0.6438
O5 O 0.9112(6) 0.5930(5) 0.75889(16)
O6 O 0.6365(7) 0.4870(5) 0.76526(16)
O7 O 0.7603(6) 0.6113(5) 0.70331(16)
O8 O 0.6719(6) 0.5964(6) 0.64172(16)
C26 C 0.9694(9) 0.8278(8) 0.7828(2)
H33 H 0.9008 0.8360 0.7950
C27 C 0.9900(9) 0.7401(7) 0.7709(2)
C31 C 0.9034(10) 0.6614(8) 0.7744(2)
C32 C 0.7256(10) 0.5937(7) 0.7988(2)
C33 C 0.7912(12) 0.5080(8) 0.8107(2)
H37 H 0.7311 0.4586 0.8135
H38 H 0.8543 0.4876 0.7973
H39 H 0.8299 0.5233 0.8288
C34 C 0.6282(12) 0.6259(8) 0.8202(2)
H40 H 0.5681 0.5766 0.8233
H41 H 0.6683 0.6411 0.8382
H42 H 0.5862 0.6805 0.8128
C35 C 0.6596(9) 0.5690(8) 0.7709(2)
C36 C 0.6289(10) 0.7372(8) 0.7559(3)
H43 H 0.7049 0.7618 0.7472
H44 H 0.6250 0.7569 0.7759
C37 C 0.5145(11) 0.7675(8) 0.7396(2)
H45 H 0.5218 0.8320 0.7330
H46 H 0.4392 0.7610 0.7512
C38 C 0.5147(11) 0.6993(8) 0.7144(2)
H47 H 0.4303 0.6903 0.7071
H48 H 0.5677 0.7222 0.6990
C39 C 0.5646(10) 0.6110(8) 0.7263(2)
H49 H 0.4965 0.5658 0.7294
C40 C 0.6637(9) 0.5695(7) 0.7066(2)
C41 C 0.5372(10) 0.4270(8) 0.6968(2)
H50 H 0.4582 0.4503 0.6893
H51 H 0.5275 0.4140 0.7173
C42 C 0.5792(13) 0.3427(9) 0.6810(3)
H52 H 0.5085 0.3053 0.6745
H53 H 0.6339 0.3039 0.6928
C43 C 0.6486(12) 0.3851(9) 0.6562(2)
H54 H 0.7037 0.3394 0.6472
H55 H 0.5909 0.4094 0.6419
C44 C 0.7215(9) 0.4618(8) 0.6698(2)
H56 H 0.7991 0.4373 0.6782
C45 C 0.7502(9) 0.5409(8) 0.6493(2)
C47 C 0.9216(8) 0.6061(8) 0.62108(19)
C48 C 0.8726(9) 0.6923(8) 0.6157(2)
H58 H 0.7935 0.7094 0.6225
C49 C 0.9436(10) 0.7525(9) 0.6000(2)
H59 H 0.9132 0.8124 0.5960
Ag3 Ag 0.98943(7) 0.54002(6) 0.70734(2)
N7_2 N 0.4571(7) 0.0997(7) 0.27759(18)
N8_2 N 0.6861(8) 0.3326(6) 0.29456(18)
H3_2 H 0.6903 0.2829 0.3052
N9_2 N 0.8771(8) 0.3645(6) 0.25338(19)
N10_2 N 0.8616(8) 0.5062(6) 0.19179(18)
N11_2 N 0.6331(8) 0.4599(7) 0.13886(18)
H4_2 H 0.5867 0.5069 0.1438
N12_2 N 0.3964(8) 0.3564(7) 0.09523(17)
O5_2 O 0.5888(6) 0.4070(5) 0.25889(16)
O6_2 O 0.8635(7) 0.5130(5) 0.26526(16)
O7_2 O 0.7397(6) 0.3887(5) 0.20331(16)
O8_2 O 0.8281(6) 0.4036(6) 0.14172(16)
C26_2 C 0.5306(9) 0.1722(8) 0.2828(2)
H33_2 H 0.5992 0.1640 0.2950
C27_2 C 0.5100(9) 0.2599(7) 0.2709(2)
C28_2 C 0.4105(10) 0.2700(8) 0.2539(2)
H34_2 H 0.3942 0.3280 0.2454
C29_2 C 0.3331(10) 0.1968(8) 0.2488(2)
H35_2 H 0.2626 0.2043 0.2371
C30_2 C 0.3586(9) 0.1138(8) 0.2605(2)
H36_2 H 0.3053 0.0636 0.2566
C31_2 C 0.5966(10) 0.3386(8) 0.2744(2)
C32_2 C 0.7744(10) 0.4063(7) 0.2988(2)
C33_2 C 0.7088(12) 0.4920(8) 0.3107(2)
H37_2 H 0.7689 0.5414 0.3135
H38_2 H 0.6457 0.5124 0.2973
H39_2 H 0.6701 0.4767 0.3288
C34_2 C 0.8718(12) 0.3741(8) 0.3202(2)
H40_2 H 0.9319 0.4234 0.3233
H41_2 H 0.8317 0.3589 0.3382
H42_2 H 0.9138 0.3195 0.3128
C35_2 C 0.8404(9) 0.4310(8) 0.2709(2)
C36_2 C 0.8711(10) 0.2628(8) 0.2559(3)
H43_2 H 0.7951 0.2382 0.2472
H44_2 H 0.8750 0.2431 0.2759
C37_2 C 0.9855(11) 0.2325(8) 0.2396(2)
H45_2 H 0.9782 0.1680 0.2330
C38_2 C 0.9853(11) 0.3007(8) 0.2144(2)
H48_2 H 0.9323 0.2778 0.1990
C39_2 C 0.9354(10) 0.3890(8) 0.2263(2)
C40_2 C 0.8363(9) 0.4305(7) 0.2066(2)
C41_2 C 0.9628(10) 0.5730(8) 0.1968(2)
H51_2 H 0.9725 0.5860 0.2173
C42_2 C 0.9208(13) 0.6573(9) 0.1810(3)
H52_2 H 0.9915 0.6947 0.1745
H53_2 H 0.8661 0.6961 0.1928
C43_2 C 0.8514(12) 0.6149(9) 0.1562(2)
H54_2 H 0.7963 0.6606 0.1472
H55_2 H 0.9091 0.5906 0.1419
C44_2 C 0.7785(9) 0.5382(8) 0.1698(2)
H56_2 H 0.7009 0.5627 0.1782
C45_2 C 0.7498(9) 0.4591(8) 0.1493(2)
C46_2 C 0.4658(10) 0.4154(8) 0.1099(2)
H57_2 H 0.4352 0.4760 0.1128
C47_2 C 0.5784(8) 0.3939(8) 0.12108(19)
C48_2 C 0.6274(9) 0.3077(8) 0.1157(2)
H58_2 H 0.7065 0.2906 0.1225
C49_2 C 0.5564(10) 0.2475(9) 0.1000(2)
H59_2 H 0.5868 0.1876 0.0960
C50_2 C 0.4426(9) 0.2732(8) 0.0900(2)
H60_2 H 0.3959 0.2306 0.0791
Ag3_2 Ag 0.51057(7) 0.45998(6) 0.20734(2)
O9_2 O 0.1799(6) 0.2182(5) 0.07286(15)
Ag1_2 Ag 0.48943(7) 0.95998(6) 0.29266(2)
N2 N 0.7230(8) 0.7209(7) 0.52927(17)
H1 H 0.6448 0.7348 0.5314
N3_2 N 0.8281(7) 0.6401(7) 0.47865(18)
N4_2 N 0.9805(8) 0.6388(7) 0.40935(17)
N5_2 N 0.7889(8) 0.7368(6) 0.35501(17)
H2_2 H 0.8357 0.7859 0.3531
N6_2 N 0.5382(8) 0.8295(7) 0.31276(19)
O1 O 0.8791(6) 0.6268(6) 0.54249(15)
O2_2 O 0.9743(6) 0.7456(6) 0.48175(15)
O3_2 O 0.8201(6) 0.7182(5) 0.42714(15)
O4_2 O 0.7841(8) 0.5922(5) 0.37503(16)
C1 C 0.5619(9) 0.6189(8) 0.5660(2)
H5 H 0.5358 0.6782 0.5599
C2 C 0.6825(9) 0.5914(8) 0.5606(2)
C3 C 0.7196(11) 0.5071(9) 0.5702(2)
H6 H 0.8023 0.4879 0.5676
C4 C 0.6368(10) 0.4492(9) 0.5839(3)
H7 H 0.6617 0.3899 0.5901
C5 C 0.5186(10) 0.4792(8) 0.5883(2)
H8_2 H 0.4621 0.4398 0.5977
C6 C 0.7710(9) 0.6493(8) 0.5437(2)
C7 C 0.7997(9) 0.7764(7) 0.5099(2)
C8 C 0.8838(10) 0.8380(9) 0.5270(2)
H9 H 0.9349 0.8749 0.5143
H10 H 0.8342 0.8789 0.5389
H11 H 0.9369 0.8000 0.5391
C9_2 C 0.7150(11) 0.8378(9) 0.4913(3)
H12_2 H 0.7655 0.8747 0.4784
H13_2 H 0.6591 0.7987 0.4804
H14 H 0.6668 0.8787 0.5035
C10_2 C 0.8727(9) 0.7174(9) 0.4894(2)
C11_2 C 0.7062(10) 0.5946(8) 0.4821(2)
H15_2 H 0.6396 0.6410 0.4831
H16_2 H 0.7044 0.5570 0.4995
C12_2 C 0.6917(11) 0.5348(10) 0.4563(2)
H17_2 H 0.6551 0.5695 0.4404
H18_2 H 0.6402 0.4802 0.4603
C13_2 C 0.8249(11) 0.5073(9) 0.4499(3)
H19_2 H 0.8517 0.4564 0.4624
H20_2 H 0.8340 0.4877 0.4300
C14_2 C 0.8995(10) 0.5945(8) 0.4557(2)
H21_2 H 0.9857 0.5801 0.4617
C15_2 C 0.8961(10) 0.6556(8) 0.4299(2)
C19_2 C 0.9654(9) 0.6848(8) 0.3821(2)
H28_2 H 0.9813 0.7524 0.3838
C20_2 C 0.8343(10) 0.6659(8) 0.3712(2)
C21_2 C 0.6438(10) 0.8204(8) 0.3267(2)
H29_2 H 0.7004 0.8702 0.3270
C22_2 C 0.6731(9) 0.7378(8) 0.3410(2)
C23_2 C 0.5910(11) 0.6676(8) 0.3415(2)
H30_2 H 0.6066 0.6127 0.3518
C24_2 C 0.4812(10) 0.6797(8) 0.3261(2)
H31_2 H 0.4226 0.6313 0.3254
C25_2 C 0.4581(10) 0.7587(8) 0.3121(2)
H32_2 H 0.3839 0.7647 0.3017
Ag5_2 Ag 0.79130(7) 0.89316(7) 0.41473(2)
O10_2 O 0.4112(6) 0.9070(5) 0.24111(16)
O11_2 O 0.2603(6) 0.8887(5) 0.29669(16)
N2_2 N 0.2230(8) 0.7791(7) 0.47073(17)
H1_2 H 0.1448 0.7652 0.4686
N3_3 N 0.3281(7) 0.8599(7) 0.52135(18)
N4_3 N 0.4805(8) 0.8612(7) 0.59065(17)
N5_3 N 0.2889(8) 0.7632(6) 0.64499(17)
H2_3 H 0.3357 0.7141 0.6469
N6_3 N 0.0382(8) 0.6705(7) 0.68724(19)
N8_3 N 0.1861(8) 0.1674(6) 0.70544(18)
H3_3 H 0.1903 0.2171 0.6948
N9_3 N 0.3771(8) 0.1355(6) 0.74662(19)
N11_3 N 0.1331(8) 0.0401(7) 0.86114(18)
O1_2 O 0.3791(6) 0.8732(6) 0.45751(15)
O2_3 O 0.4743(6) 0.7544(6) 0.51825(15)
O4_3 O 0.2841(8) 0.9078(5) 0.62497(16)
O8_3 O 0.3281(6) 0.0964(6) 0.85828(16)
C1_2 C 0.0619(9) 0.8811(8) 0.4340(2)
H5_2 H 0.0358 0.8218 0.4401
C2_2 C 0.1825(9) 0.9086(8) 0.4394(2)
C3_2 C 0.2196(11) 0.9929(9) 0.4298(2)
C6_2 C 0.2710(9) 0.8507(8) 0.4563(2)
C7_2 C 0.2997(9) 0.7236(7) 0.4901(2)
C8_2 C 0.3838(10) 0.6620(9) 0.4730(2)
H9_2 H 0.4349 0.6251 0.4857
H10_2 H 0.3342 0.6211 0.4611
H11_2 H 0.4369 0.7000 0.4609
C9_3 C 0.2150(11) 0.6622(9) 0.5087(3)
H12_3 H 0.2655 0.6253 0.5216
H13_3 H 0.1591 0.7013 0.5196
H14_2 H 0.1668 0.6213 0.4965
C10_3 C 0.3727(9) 0.7826(9) 0.5106(2)
C11_3 C 0.2062(10) 0.9054(8) 0.5179(2)
H15_3 H 0.1396 0.8590 0.5169
H16_3 H 0.2044 0.9430 0.5005
C12_3 C 0.1917(11) 0.9652(10) 0.5437(2)
H17_3 H 0.1551 0.9305 0.5596
C13_3 C 0.3249(11) 0.9927(9) 0.5501(3)
C14_3 C 0.3995(10) 0.9055(8) 0.5443(2)
H21_3 H 0.4857 0.9199 0.5383
C15_3 C 0.3961(10) 0.8444(8) 0.5701(2)
C16_2 C 0.5747(11) 0.9340(9) 0.5913(2)
H22_2 H 0.6297 0.9303 0.5747
H23_2 H 0.5368 0.9959 0.5921
C17_2 C 0.641(2) 0.9129(17) 0.6174(4)
H24_2 H 0.7148 0.8761 0.6129
H25_2 H 0.6675 0.9709 0.6265
C18_2 C 0.5628(11) 0.8620(10) 0.6366(2)
H26_2 H 0.5233 0.9040 0.6504
H27_2 H 0.6114 0.8155 0.6471
C19_3 C 0.4654(9) 0.8152(8) 0.6179(2)
H28_3 H 0.4813 0.7476 0.6162
C20_3 C 0.3343(10) 0.8341(8) 0.6288(2)
C21_3 C 0.1438(10) 0.6796(8) 0.6733(2)
H29_3 H 0.2004 0.6298 0.6730
C22_3 C 0.1731(9) 0.7622(8) 0.6590(2)
C23_3 C 0.0910(11) 0.8324(8) 0.6585(2)
H30_3 H 0.1066 0.8873 0.6482
C26_3 C 0.0306(9) 0.3278(8) 0.7172(2)
H33_3 H 0.0992 0.3360 0.7050
C27_3 C 0.0100(9) 0.2401(7) 0.7291(2)
C31_3 C 0.0966(10) 0.1614(8) 0.7256(2)
C32_3 C 0.2744(10) 0.0937(7) 0.7012(2)
C33_3 C 0.2088(12) 0.0080(8) 0.6893(2)
H39_3 H 0.1701 0.0233 0.6712
C34_3 C 0.3718(12) 0.1259(8) 0.6798(2)
H40_3 H 0.4319 0.0766 0.6767
H41_3 H 0.3317 0.1411 0.6618
H42_3 H 0.4138 0.1805 0.6872
C35_3 C 0.3404(9) 0.0690(8) 0.7291(2)
C36_3 C 0.3711(10) 0.2372(8) 0.7441(3)
H43_3 H 0.2951 0.2618 0.7528
H44_3 H 0.3750 0.2569 0.7241
C37_3 C 0.4855(11) 0.2675(8) 0.7604(2)
H45_3 H 0.4782 0.3320 0.7670
H46_2 H 0.5608 0.2610 0.7488
C38_3 C 0.4853(11) 0.1993(8) 0.7856(2)
H47_2 H 0.5697 0.1903 0.7929
H48_3 H 0.4323 0.2222 0.8010
C39_3 C 0.4354(10) 0.1110(8) 0.7737(2)
H49_2 H 0.5035 0.0658 0.7706
C40_3 C 0.3363(9) 0.0695(7) 0.7934(2)
C45_3 C 0.2498(9) 0.0409(8) 0.8507(2)
C47_3 C 0.0784(8) 0.1061(8) 0.87892(19)
C48_3 C 0.1274(9) 0.1923(8) 0.8843(2)
H58_3 H 0.2065 0.2094 0.8775
C49_3 C 0.0564(10) 0.2525(9) 0.9000(2)
H59_3 H 0.0868 0.3124 0.9040
N1_2 N 0.9800(8) 0.9368(6) 0.42026(18)
N7_3 N 0.9571(7) 0.4003(7) 0.72241(18)
N12_3 N 0.8964(8) 0.1436(7) 0.90477(17)
C24_3 C 0.9812(10) 0.8203(8) 0.6739(2)
H31_3 H 0.9226 0.8687 0.6746
C25_3 C 0.9581(10) 0.7413(8) 0.6879(2)
H32_3 H 0.8839 0.7353 0.6983
C28_3 C 0.9105(10) 0.2300(8) 0.7461(2)
H34_3 H 0.8942 0.1720 0.7546
C29_3 C 0.8331(10) 0.3032(8) 0.7512(2)
H35_3 H 0.7626 0.2957 0.7629
C30_3 C 0.8586(9) 0.3862(8) 0.7395(2)
H36_3 H 0.8053 0.4364 0.7434
C46_3 C 0.9658(10) 0.0846(8) 0.8901(2)
H57_3 H 0.9352 0.0240 0.8872
C50_3 C 0.9426(9) 0.2268(8) 0.9100(2)
H60_3 H 0.8959 0.2694 0.9209
N13_2 N 0.5200(8) 0.0632(6) 0.92026(18)
N3_4 N 0.1719(7) 0.1401(7) 0.02135(18)
N4_4 N 0.0195(8) 0.1388(7) 0.09065(17)
N5_4 N 0.2111(8) 0.2368(6) 0.14499(17)
H2_4 H 0.1643 0.2859 0.1469
N6_4 N 0.4618(8) 0.3295(7) 0.18724(19)
N7_4 N 0.5429(7) 0.5997(7) 0.22241(18)
N8_4 N 0.3139(8) 0.8326(6) 0.20544(18)
H3_4 H 0.3097 0.7829 0.1948
N9_4 N 0.1229(8) 0.8645(6) 0.24662(19)
N11_4 N 0.3669(8) 0.9599(7) 0.36114(18)
N12_4 N 0.6036(8) 0.8564(7) 0.40477(17)
O2_4 O 0.0257(6) 0.2456(6) 0.01825(15)
O4_4 O 0.2159(8) 0.0922(5) 0.12497(16)
O8_4 O 0.1719(6) 0.9036(6) 0.35828(16)
C9_4 C 0.2850(11) 0.3378(9) 0.0087(3)
H12_4 H 0.2345 0.3747 0.0216
H13_4 H 0.3409 0.2987 0.0196
C10_4 C 0.1273(9) 0.2174(9) 0.0106(2)
C11_4 C 0.2938(10) 0.0946(8) 0.0179(2)
H15_4 H 0.3604 0.1410 0.0169
H16_4 H 0.2956 0.0570 0.0005
C12_4 C 0.3083(11) 0.0348(10) 0.0437(2)
H17_4 H 0.3449 0.0695 0.0596
C13_4 C 0.1751(11) 0.0073(9) 0.0501(3)
C14_4 C 0.1005(10) 0.0945(8) 0.0443(2)
H21_4 H 0.0143 0.0801 0.0383
C15_4 C 0.1039(10) 0.1556(8) 0.0701(2)
C19_4 C 0.0346(9) 0.1848(8) 0.1179(2)
H28_4 H 0.0187 0.2524 0.1162
C20_4 C 0.1657(10) 0.1659(8) 0.1288(2)
C21_4 C 0.3562(10) 0.3204(8) 0.1733(2)
H29_4 H 0.2996 0.3702 0.1730
C22_4 C 0.3269(9) 0.2378(8) 0.1590(2)
C23_4 C 0.4090(11) 0.1676(8) 0.1585(2)
H30_4 H 0.3934 0.1127 0.1482
C24_4 C 0.5188(10) 0.1797(8) 0.1739(2)
H31_4 H 0.5774 0.1313 0.1746
C25_4 C 0.5419(10) 0.2587(8) 0.1879(2)
H32_4 H 0.6161 0.2647 0.1983
C26_4 C 0.4694(9) 0.6722(8) 0.2172(2)
H33_4 H 0.4008 0.6640 0.2050
C27_4 C 0.4900(9) 0.7599(7) 0.2291(2)
C28_4 C 0.5895(10) 0.7700(8) 0.2461(2)
H34_4 H 0.6058 0.8280 0.2546
C29_4 C 0.6669(10) 0.6968(8) 0.2512(2)
H35_4 H 0.7374 0.7043 0.2629
C30_4 C 0.6414(9) 0.6138(8) 0.2395(2)
H36_4 H 0.6947 0.5636 0.2434
C31_4 C 0.4034(10) 0.8386(8) 0.2256(2)
C32_4 C 0.2256(10) 0.9063(7) 0.2012(2)
C33_4 C 0.2912(12) 0.9920(8) 0.1893(2)
H39_4 H 0.3299 0.9767 0.1712
C34_4 C 0.1282(12) 0.8741(8) 0.1798(2)
H40_4 H 0.0681 0.9234 0.1767
H41_4 H 0.1683 0.8589 0.1618
H42_4 H 0.0862 0.8195 0.1872
C35_4 C 0.1596(9) 0.9310(8) 0.2291(2)
C36_4 C 0.1289(10) 0.7628(8) 0.2441(3)
H43_4 H 0.2049 0.7382 0.2528
H44_4 H 0.1250 0.7431 0.2241
C37_4 C 0.0145(11) 0.7325(8) 0.2604(2)
H45_4 H 0.0218 0.6680 0.2670
C38_4 C 0.0147(11) 0.8007(8) 0.2856(2)
H48_4 H 0.0677 0.7778 0.3010
C39_4 C 0.0646(10) 0.8890(8) 0.2737(2)
C40_4 C 0.1637(9) 0.9305(7) 0.2934(2)
C45_4 C 0.2502(9) 0.9591(8) 0.3507(2)
C46_4 C 0.5342(10) 0.9154(8) 0.3901(2)
H57_4 H 0.5648 0.9760 0.3872
C47_4 C 0.4216(8) 0.8939(8) 0.37892(19)
C48_4 C 0.3726(9) 0.8077(8) 0.3843(2)
H58_4 H 0.2935 0.7906 0.3775
C49_4 C 0.4436(10) 0.7475(9) 0.4000(2)
H59_4 H 0.4132 0.6876 0.4040
C50_4 C 0.5574(9) 0.7732(8) 0.4100(2)
H60_4 H 0.6041 0.7306 0.4209
N2_3 N 0.2770(8) 0.2209(7) 0.97073(17)
H1_3 H 0.3552 0.2348 0.9686
O1_3 O 0.1209(6) 0.1268(6) 0.95751(15)
C1_3 C 0.4381(9) 0.1189(8) 0.9340(2)
H5_3 H 0.4642 0.1782 0.9401
C2_3 C 0.3175(9) 0.0914(8) 0.9394(2)
C3_3 C 0.2804(11) 0.0071(9) 0.9298(2)
C6_3 C 0.2290(9) 0.1493(8) 0.9563(2)
C7_3 C 0.2003(9) 0.2764(7) 0.9901(2)
C8_3 C 0.1162(10) 0.3380(9) 0.9730(2)
H9_3 H 0.0651 0.3749 0.9857
H10_3 H 0.1658 0.3789 0.9611
H11_3 H 0.0631 0.3000 0.9609
H14_3 H 0.3332 0.3787 0.9965
N2_4 N 0.7770(8) 0.2791(7) 0.02927(17)
H1_4 H 0.8552 0.2652 0.0314
O1_4 O 0.6209(6) 0.3732(6) 0.04249(15)
C1_4 C 0.9381(9) 0.3811(8) 0.0660(2)
H5_4 H 0.9642 0.3218 0.0599
C2_4 C 0.8175(9) 0.4086(8) 0.0606(2)
C3_4 C 0.7804(11) 0.4929(9) 0.0702(2)
H6_2 H 0.6977 0.5121 0.0676
C4_2 C 0.8632(10) 0.5508(9) 0.0839(3)
H7_2 H 0.8383 0.6101 0.0901
C5_2 C 0.9814(10) 0.5208(8) 0.0883(2)
C6_4 C 0.7290(9) 0.3507(8) 0.0437(2)
C7_4 C 0.7003(9) 0.2236(7) 0.0099(2)
C8_4 C 0.6162(10) 0.1620(9) 0.0270(2)
H9_4 H 0.5651 0.1251 0.0143
H10_4 H 0.6658 0.1211 0.0389
H11_4 H 0.5631 0.2000 0.0391
H14_4 H 0.8332 0.1213 0.0035
H46_3 H 0.0608 0.2390 0.2512
H47_3 H 0.0697 0.3097 0.2071
H49_3 H 0.0035 0.4342 0.2294
H50_2 H 0.0418 0.5497 0.1893
C16_3 C 0.0747(11) 0.5660(9) 0.4087(2)
H22_3 H 0.1297 0.5697 0.4253
H23_3 H 0.0368 0.5041 0.4079
C17_3 C 0.141(2) 0.5871(17) 0.3826(4)
H24_3 H 0.2148 0.6239 0.3871
H25_3 H 0.1675 0.5291 0.3735
C18_3 C 0.0628(11) 0.6380(10) 0.3634(2)
H26_3 H 0.0233 0.5960 0.3496
H27_3 H 0.1114 0.6845 0.3529
H6_3 H 0.3023 0.0121 0.4324
C4_3 C 0.1368(10) 0.0508(9) 0.4161(3)
H7_3 H 0.1617 0.1101 0.4099
C5_3 C 0.0186(10) 0.0208(8) 0.4117(2)
H18_3 H 0.1402 0.0198 0.5397
H19_3 H 0.3517 0.0436 0.5376
H20_3 H 0.3340 0.0123 0.5700
N10_3 N 0.3616(8) 0.9938(6) 0.80821(18)
H4_3 H 0.0867 0.9931 0.8562
O6_3 O 0.3635(7) 0.9870(5) 0.73474(16)
H37_3 H 0.2689 0.9586 0.6865
H38_3 H 0.1457 0.9876 0.7027
C41_3 C 0.4628(10) 0.9270(8) 0.8032(2)
H50_3 H 0.5418 0.9503 0.8107
H51_3 H 0.4725 0.9140 0.7827
C42_3 C 0.4208(13) 0.8427(9) 0.8190(3)
H52_3 H 0.4915 0.8053 0.8255
H53_3 H 0.3661 0.8039 0.8072
C43_3 C 0.3514(12) 0.8851(9) 0.8438(2)
H54_3 H 0.2963 0.8394 0.8528
H55_3 H 0.4091 0.9094 0.8581
C44_3 C 0.2785(9) 0.9618(8) 0.8302(2)
H56_3 H 0.2009 0.9373 0.8218
H8_3 H 0.9621 0.0602 0.4023
N10_4 N 0.1384(8) 0.0062(6) 0.30821(18)
H4_4 H 0.4133 0.0069 0.3562
O6_4 O 0.1365(7) 0.0130(5) 0.23474(16)
H37_4 H 0.2311 0.0414 0.1865
H38_4 H 0.3543 0.0124 0.2027
C41_4 C 0.0372(10) 0.0730(8) 0.3032(2)
H51_4 H 0.0275 0.0860 0.2827
C42_4 C 0.0792(13) 0.1573(9) 0.3190(3)
H52_4 H 0.0085 0.1947 0.3255
H53_4 H 0.1339 0.1961 0.3072
C43_4 C 0.1486(12) 0.1149(9) 0.3438(2)
H54_4 H 0.2037 0.1606 0.3528
H55_4 H 0.0909 0.0906 0.3581
C44_4 C 0.2215(9) 0.0382(8) 0.3302(2)
H56_4 H 0.2991 0.0627 0.3218
H18_4 H 0.3598 0.9802 0.0397
H19_4 H 0.1483 0.9564 0.0376
H20_4 H 0.1660 0.9877 0.0700
H6_4 H 0.1977 0.9879 0.9324
C4_4 C 0.3632(10) 0.9492(9) 0.9161(3)
H7_4 H 0.3383 0.8899 0.9099
C5_4 C 0.4814(10) 0.9792(8) 0.9117(2)
H8_4 H 0.5379 0.9398 0.9023
H50_4 H 0.9582 0.0497 0.3107
C16_4 C 0.9253(11) 0.0660(9) 0.0913(2)
H22_4 H 0.8703 0.0697 0.0747
H23_4 H 0.9632 0.0041 0.0921
C17_4 C 0.859(2) 0.0871(17) 0.1174(4)
H24_4 H 0.7852 0.1239 0.1129
H25_4 H 0.8325 0.0291 0.1265
C18_4 C 0.9372(11) 0.1380(10) 0.1366(2)
H26_4 H 0.9767 0.0960 0.1504
H27_4 H 0.8886 0.1845 0.1471
H46_4 H 0.9392 0.7390 0.2488
H47_4 H 0.9303 0.8097 0.2929
H49_4 H 0.9965 0.9342 0.2706
P1 P 0.7946(4) 0.8745(3) 0.85387(7)
F1 F 0.8510(8) 0.8616(6) 0.88737(16)
F2 F 0.9290(7) 0.9249(6) 0.84443(16)
F3 F 0.7395(7) 0.8879(10) 0.82074(16)
F4 F 0.6601(8) 0.8277(8) 0.86391(19)
F5 F 0.7398(7) 0.9767(7) 0.86356(17)
F6 F 0.8512(8) 0.7742(6) 0.84474(18)
P1_2 P 0.7054(4) 0.1255(3) 0.35387(7)
F1_2 F 0.6490(8) 0.1384(6) 0.38737(16)
F2_2 F 0.5710(7) 0.0751(6) 0.34443(16)
F3_2 F 0.7605(7) 0.1121(10) 0.32074(16)
F4_2 F 0.8399(8) 0.1723(8) 0.36391(19)
F5_2 F 0.7602(7) 0.0233(7) 0.36356(17)
F6_2 F 0.6488(8) 0.2258(6) 0.34474(18)
P1_3 P 0.2054(4) 0.3745(3) 0.64613(7)
F1_3 F 0.1490(8) 0.3616(6) 0.61263(16)
F2_3 F 0.0710(7) 0.4249(6) 0.65557(16)
F3_3 F 0.2605(7) 0.3879(10) 0.67926(16)
F4_3 F 0.3399(8) 0.3277(8) 0.63609(19)
F5_3 F 0.2602(7) 0.4767(7) 0.63644(17)
F6_3 F 0.1488(8) 0.2742(6) 0.65526(18)
P1_4 P 0.2946(4) 0.6255(3) 0.14613(7)
F1_4 F 0.3510(8) 0.6384(6) 0.11263(16)
F2_4 F 0.4290(7) 0.5751(6) 0.15557(16)
F3_4 F 0.2395(7) 0.6121(10) 0.17926(16)
F4_4 F 0.1601(8) 0.6723(8) 0.13609(19)
F5_4 F 0.2398(7) 0.5233(7) 0.13644(17)
F6_4 F 0.3512(8) 0.7258(6) 0.15526(18)
O12 O 0.1092(15) 0.5295(12) 0.9116(3)
H61 H 0.200578 0.5295 0.9116
O12_2 O 0.3908(15) 0.4705(12) 0.4116(3)
H61_2 H 0.299422 0.4705 0.4116
O12_3 O 0.8908(15) 0.0295(12) 0.5884(3)
H61_3 H 0.799422 0.0295 0.5884
O12_4 O 0.6092(15) 0.9705(12) 0.0884(3)
H61_4 H 0.700578 0.9705 0.0884
loop_
_geom_bond_atom_site_label_1
_geom_bond_atom_site_label_2
_geom_bond_site_symmetry_1
_geom_bond_site_symmetry_2
Ag4 N1 1_555 1_555
H31 C24 1_555 1_555
H32 C25 1_555 1_555
O10 Ag1 1_555 1_555
O11 Ag1 1_555 1_555
C24 C25 1_555 1_555
Ag2 N12 1_555 1_555
N12 C46 1_555 1_555
H34 C28 1_555 1_555
C29 C28 1_555 1_555
H35 C29 1_555 1_555
C30 N7 1_555 1_555
H36 C30 1_555 1_555
C46 H57 1_555 1_555
C50 N12 1_555 1_555
H60 C50 1_555 1_555
N13 Ag2 1_555 1_555
O9 Ag2 1_555 1_555
C29 C30 1_555 1_555
N3 C10 1_555 1_555
N4 C15 1_555 1_555
N5 H2 1_555 1_555
N6 C21 1_555 1_555
O2 C10 1_555 1_555
O3 C15 1_555 1_555
O4 C20 1_555 1_555
H12 C9 1_555 1_555
H13 C9 1_555 1_555
C11 N3 1_555 1_555
H15 C11 1_555 1_555
H16 C11 1_555 1_555
C12 C11 1_555 1_555
H17 C12 1_555 1_555
H18 C12 1_555 1_555
C13 C12 1_555 1_555
H19 C13 1_555 1_555
H20 C13 1_555 1_555
C14 N3 1_555 1_555
H21 C14 1_555 1_555
C15 C14 1_555 1_555
C16 N4 1_555 1_555
H22 C16 1_555 1_555
H23 C16 1_555 1_555
C17 C16 1_555 1_555
H24 C17 1_555 1_555
H25 C17 1_555 1_555
C18 C17 1_555 1_555
H26 C18 1_555 1_555
H27 C18 1_555 1_555
C19 N4 1_555 1_555
H28 C19 1_555 1_555
C20 N5 1_555 1_555
C21 H29 1_555 1_555
C22 N5 1_555 1_555
C23 C22 1_555 1_555
H30 C23 1_555 1_555
Ag5 O3 1_555 1_555
C13 C14 1_555 1_555
C18 C19 1_555 1_555
C19 C20 1_555 1_555
C21 C22 1_555 1_555
N8 H3 1_555 1_555
N9 C35 1_555 1_555
N10 C40 1_555 1_555
N11 H4 1_555 1_555
O5 C31 1_555 1_555
O6 C35 1_555 1_555
O7 C40 1_555 1_555
O8 C45 1_555 1_555
H33 C26 1_555 1_555
C27 C26 1_555 1_555
C31 N8 1_555 1_555
C32 N8 1_555 1_555
C33 C32 1_555 1_555
H37 C33 1_555 1_555
H38 C33 1_555 1_555
H39 C33 1_555 1_555
C34 C32 1_555 1_555
H40 C34 1_555 1_555
H41 C34 1_555 1_555
H42 C34 1_555 1_555
C35 C32 1_555 1_555
C36 N9 1_555 1_555
H43 C36 1_555 1_555
H44 C36 1_555 1_555
C37 C36 1_555 1_555
H45 C37 1_555 1_555
H46 C37 1_555 1_555
C38 C37 1_555 1_555
H47 C38 1_555 1_555
H48 C38 1_555 1_555
C39 N9 1_555 1_555
H49 C39 1_555 1_555
C40 C39 1_555 1_555
C41 N10 1_555 1_555
H50 C41 1_555 1_555
H51 C41 1_555 1_555
C42 C41 1_555 1_555
H52 C42 1_555 1_555
H53 C42 1_555 1_555
C43 C42 1_555 1_555
H54 C43 1_555 1_555
H55 C43 1_555 1_555
C44 N10 1_555 1_555
H56 C44 1_555 1_555
C45 N11 1_555 1_555
C47 N11 1_555 1_555
C48 C47 1_555 1_555
H58 C48 1_555 1_555
C49 C48 1_555 1_555
H59 C49 1_555 1_555
Ag3 O5 1_555 1_555
O7 Ag3 1_555 1_555
C27 C31 1_555 1_555
C38 C39 1_555 1_555
C43 C44 1_555 1_555
C44 C45 1_555 1_555
Ag4 N12_2 1_555 1_555
N8_2 H3_2 1_555 1_555
N9_2 C35_2 1_555 1_555
N10_2 C40_2 1_555 1_555
N11_2 H4_2 1_555 1_555
N12_2 C46_2 1_555 1_555
O5_2 C31_2 1_555 1_555
O6_2 C35_2 1_555 1_555
O7_2 C40_2 1_555 1_555
O8_2 C45_2 1_555 1_555
C26_2 N7_2 1_555 1_555
H33_2 C26_2 1_555 1_555
C27_2 C26_2 1_555 1_555
C28_2 C27_2 1_555 1_555
H34_2 C28_2 1_555 1_555
C29_2 C28_2 1_555 1_555
H35_2 C29_2 1_555 1_555
C30_2 N7_2 1_555 1_555
H36_2 C30_2 1_555 1_555
C31_2 N8_2 1_555 1_555
C32_2 N8_2 1_555 1_555
C33_2 C32_2 1_555 1_555
H37_2 C33_2 1_555 1_555
H38_2 C33_2 1_555 1_555
H39_2 C33_2 1_555 1_555
C34_2 C32_2 1_555 1_555
H40_2 C34_2 1_555 1_555
H41_2 C34_2 1_555 1_555
H42_2 C34_2 1_555 1_555
C35_2 C32_2 1_555 1_555
C36_2 N9_2 1_555 1_555
H43_2 C36_2 1_555 1_555
H44_2 C36_2 1_555 1_555
C37_2 C36_2 1_555 1_555
H45_2 C37_2 1_555 1_555
C38_2 C37_2 1_555 1_555
H48_2 C38_2 1_555 1_555
C39_2 N9_2 1_555 1_555
C40_2 C39_2 1_555 1_555
C41_2 N10_2 1_555 1_555
H51_2 C41_2 1_555 1_555
C42_2 C41_2 1_555 1_555
H52_2 C42_2 1_555 1_555
H53_2 C42_2 1_555 1_555
C43_2 C42_2 1_555 1_555
H54_2 C43_2 1_555 1_555
H55_2 C43_2 1_555 1_555
C44_2 N10_2 1_555 1_555
H56_2 C44_2 1_555 1_555
C45_2 N11_2 1_555 1_555
C46_2 H57_2 1_555 1_555
C47_2 N11_2 1_555 1_555
C48_2 C47_2 1_555 1_555
H58_2 C48_2 1_555 1_555
C49_2 C48_2 1_555 1_555
H59_2 C49_2 1_555 1_555
C50_2 N12_2 1_555 1_555
H60_2 C50_2 1_555 1_555
Ag3_2 O5_2 1_555 1_555
O9_2 Ag4 1_555 1_555
O7_2 Ag3_2 1_555 1_555
C27_2 C31_2 1_555 1_555
C29_2 C30_2 1_555 1_555
C38_2 C39_2 1_555 1_555
C43_2 C44_2 1_555 1_555
C44_2 C45_2 1_555 1_555
C46_2 C47_2 1_555 1_555
C49_2 C50_2 1_555 1_555
Ag1_2 N6_2 1_555 1_555
N13 C1 1_555 1_555
N2 H1 1_555 1_555
N3_2 C10_2 1_555 1_555
N4_2 C15_2 1_555 1_555
N5_2 H2_2 1_555 1_555
N6_2 C21_2 1_555 1_555
O1 C6 1_555 1_555
O2_2 C10_2 1_555 1_555
O3_2 C15_2 1_555 1_555
O4_2 C20_2 1_555 1_555
C1 H5 1_555 1_555
C2 C1 1_555 1_555
C3 C2 1_555 1_555
H6 C3 1_555 1_555
C4 C3 1_555 1_555
H7 C4 1_555 1_555
C5 N13 1_555 1_555
H8_2 C5 1_555 1_555
C6 N2 1_555 1_555
C7 N2 1_555 1_555
C8 C7 1_555 1_555
H9 C8 1_555 1_555
H10 C8 1_555 1_555
H11 C8 1_555 1_555
C9_2 C7 1_555 1_555
H12_2 C9_2 1_555 1_555
H13_2 C9_2 1_555 1_555
H14 C9_2 1_555 1_555
C10_2 C7 1_555 1_555
C11_2 N3_2 1_555 1_555
H15_2 C11_2 1_555 1_555
H16_2 C11_2 1_555 1_555
C12_2 C11_2 1_555 1_555
H17_2 C12_2 1_555 1_555
H18_2 C12_2 1_555 1_555
C13_2 C12_2 1_555 1_555
H19_2 C13_2 1_555 1_555
H20_2 C13_2 1_555 1_555
C14_2 N3_2 1_555 1_555
H21_2 C14_2 1_555 1_555
C15_2 C14_2 1_555 1_555
C19_2 N4_2 1_555 1_555
H28_2 C19_2 1_555 1_555
C20_2 N5_2 1_555 1_555
C21_2 H29_2 1_555 1_555
C22_2 N5_2 1_555 1_555
C23_2 C22_2 1_555 1_555
H30_2 C23_2 1_555 1_555
C24_2 C23_2 1_555 1_555
H31_2 C24_2 1_555 1_555
C25_2 N6_2 1_555 1_555
H32_2 C25_2 1_555 1_555
Ag5_2 O3_2 1_555 1_555
O10_2 Ag1_2 1_555 1_555
O11_2 Ag1_2 1_555 1_555
C2 C6 1_555 1_555
C4 C5 1_555 1_555
C13_2 C14_2 1_555 1_555
C19_2 C20_2 1_555 1_555
C21_2 C22_2 1_555 1_555
C24_2 C25_2 1_555 1_555
N2_2 H1_2 1_555 1_555
N3_3 C10_3 1_555 1_555
N4_3 C15_3 1_555 1_555
N5_3 H2_3 1_555 1_555
N6_3 C21_3 1_555 1_555
N8_3 H3_3 1_555 1_555
N9_3 C35_3 1_555 1_555
O1_2 C6_2 1_555 1_555
O2_3 C10_3 1_555 1_555
O9 C15_3 1_555 1_555
O4_3 C20_3 1_555 1_555
O10 C31_3 1_555 1_555
O11 C40_3 1_555 1_555
O8_3 C45_3 1_555 1_555
C1_2 H5_2 1_555 1_555
C2_2 C1_2 1_555 1_555
C3_2 C2_2 1_555 1_555
C6_2 N2_2 1_555 1_555
C7_2 N2_2 1_555 1_555
C8_2 C7_2 1_555 1_555
H9_2 C8_2 1_555 1_555
H10_2 C8_2 1_555 1_555
H11_2 C8_2 1_555 1_555
C9_3 C7_2 1_555 1_555
H12_3 C9_3 1_555 1_555
H13_3 C9_3 1_555 1_555
H14_2 C9_3 1_555 1_555
C10_3 C7_2 1_555 1_555
C11_3 N3_3 1_555 1_555
H15_3 C11_3 1_555 1_555
H16_3 C11_3 1_555 1_555
C12_3 C11_3 1_555 1_555
H17_3 C12_3 1_555 1_555
C13_3 C12_3 1_555 1_555
C14_3 N3_3 1_555 1_555
H21_3 C14_3 1_555 1_555
C15_3 C14_3 1_555 1_555
C16_2 N4_3 1_555 1_555
H22_2 C16_2 1_555 1_555
H23_2 C16_2 1_555 1_555
C17_2 C16_2 1_555 1_555
H24_2 C17_2 1_555 1_555
H25_2 C17_2 1_555 1_555
C18_2 C17_2 1_555 1_555
H26_2 C18_2 1_555 1_555
H27_2 C18_2 1_555 1_555
C19_3 N4_3 1_555 1_555
H28_3 C19_3 1_555 1_555
C20_3 N5_3 1_555 1_555
C21_3 H29_3 1_555 1_555
C22_3 N5_3 1_555 1_555
C23_3 C22_3 1_555 1_555
H30_3 C23_3 1_555 1_555
H33_3 C26_3 1_555 1_555
C27_3 C26_3 1_555 1_555
C31_3 N8_3 1_555 1_555
C32_3 N8_3 1_555 1_555
C33_3 C32_3 1_555 1_555
H39_3 C33_3 1_555 1_555
C34_3 C32_3 1_555 1_555
H40_3 C34_3 1_555 1_555
H41_3 C34_3 1_555 1_555
H42_3 C34_3 1_555 1_555
C35_3 C32_3 1_555 1_555
C36_3 N9_3 1_555 1_555
H43_3 C36_3 1_555 1_555
H44_3 C36_3 1_555 1_555
C37_3 C36_3 1_555 1_555
H45_3 C37_3 1_555 1_555
H46_2 C37_3 1_555 1_555
C38_3 C37_3 1_555 1_555
H47_2 C38_3 1_555 1_555
H48_3 C38_3 1_555 1_555
C39_3 N9_3 1_555 1_555
H49_2 C39_3 1_555 1_555
C40_3 C39_3 1_555 1_555
C45_3 N11_3 1_555 1_555
C47_3 N11_3 1_555 1_555
C48_3 C47_3 1_555 1_555
H58_3 C48_3 1_555 1_555
C49_3 C48_3 1_555 1_555
H59_3 C49_3 1_555 1_555
C2_2 C6_2 1_555 1_555
C13_3 C14_3 1_555 1_555
C18_2 C19_3 1_555 1_555
C19_3 C20_3 1_555 1_555
C21_3 C22_3 1_555 1_555
C27_3 C31_3 1_555 1_555
C38_3 C39_3 1_555 1_555
Ag5 N12_3 1_555 1_555
N7_3 Ag3 1_555 1_555
N12_3 C46_3 1_555 1_555
H31_3 C24_3 1_555 1_555
H32_3 C25_3 1_555 1_555
H34_3 C28_3 1_555 1_555
C29_3 C28_3 1_555 1_555
H35_3 C29_3 1_555 1_555
C30_3 N7_3 1_555 1_555
H36_3 C30_3 1_555 1_555
C46_3 H57_3 1_555 1_555
C50_3 N12_3 1_555 1_555
H60_3 C50_3 1_555 1_555
Ag5_2 N1_2 1_555 1_555
N13_2 Ag5 1_555 1_555
C24_3 C25_3 1_555 1_555
C29_3 C30_3 1_555 1_555
Ag3_2 N6_4 1_555 1_555
Ag5_2 N12_4 1_555 1_555
N3_4 C10_4 1_555 1_555
N4_4 C15_4 1_555 1_555
N5_4 H2_4 1_555 1_555
N6_4 C21_4 1_555 1_555
N7_4 Ag3_2 1_555 1_555
N8_4 H3_4 1_555 1_555
N9_4 C35_4 1_555 1_555
N12_4 C46_4 1_555 1_555
O2_4 C10_4 1_555 1_555
O9_2 C15_4 1_555 1_555
O4_4 C20_4 1_555 1_555
O10_2 C31_4 1_555 1_555
O11_2 C40_4 1_555 1_555
O8_4 C45_4 1_555 1_555
H12_4 C9_4 1_555 1_555
H13_4 C9_4 1_555 1_555
C11_4 N3_4 1_555 1_555
H15_4 C11_4 1_555 1_555
H16_4 C11_4 1_555 1_555
C12_4 C11_4 1_555 1_555
H17_4 C12_4 1_555 1_555
C13_4 C12_4 1_555 1_555
C14_4 N3_4 1_555 1_555
H21_4 C14_4 1_555 1_555
C15_4 C14_4 1_555 1_555
C19_4 N4_4 1_555 1_555
H28_4 C19_4 1_555 1_555
C20_4 N5_4 1_555 1_555
C21_4 H29_4 1_555 1_555
C22_4 N5_4 1_555 1_555
C23_4 C22_4 1_555 1_555
H30_4 C23_4 1_555 1_555
C24_4 C23_4 1_555 1_555
H31_4 C24_4 1_555 1_555
C25_4 N6_4 1_555 1_555
H32_4 C25_4 1_555 1_555
C26_4 N7_4 1_555 1_555
H33_4 C26_4 1_555 1_555
C27_4 C26_4 1_555 1_555
C28_4 C27_4 1_555 1_555
H34_4 C28_4 1_555 1_555
C29_4 C28_4 1_555 1_555
H35_4 C29_4 1_555 1_555
C30_4 N7_4 1_555 1_555
H36_4 C30_4 1_555 1_555
C31_4 N8_4 1_555 1_555
C32_4 N8_4 1_555 1_555
C33_4 C32_4 1_555 1_555
H39_4 C33_4 1_555 1_555
C34_4 C32_4 1_555 1_555
H40_4 C34_4 1_555 1_555
H41_4 C34_4 1_555 1_555
H42_4 C34_4 1_555 1_555
C35_4 C32_4 1_555 1_555
C36_4 N9_4 1_555 1_555
H43_4 C36_4 1_555 1_555
H44_4 C36_4 1_555 1_555
C37_4 C36_4 1_555 1_555
H45_4 C37_4 1_555 1_555
C38_4 C37_4 1_555 1_555
H48_4 C38_4 1_555 1_555
C39_4 N9_4 1_555 1_555
C40_4 C39_4 1_555 1_555
C45_4 N11_4 1_555 1_555
C46_4 H57_4 1_555 1_555
C47_4 N11_4 1_555 1_555
C48_4 C47_4 1_555 1_555
H58_4 C48_4 1_555 1_555
C49_4 C48_4 1_555 1_555
H59_4 C49_4 1_555 1_555
C50_4 N12_4 1_555 1_555
H60_4 C50_4 1_555 1_555
C13_4 C14_4 1_555 1_555
C19_4 C20_4 1_555 1_555
C21_4 C22_4 1_555 1_555
C24_4 C25_4 1_555 1_555
C27_4 C31_4 1_555 1_555
C29_4 C30_4 1_555 1_555
C38_4 C39_4 1_555 1_555
C46_4 C47_4 1_555 1_555
C49_4 C50_4 1_555 1_555
N13_2 C1_3 1_555 1_555
N2_3 H1_3 1_555 1_555
O1_3 C6_3 1_555 1_555
C1_3 H5_3 1_555 1_555
C2_3 C1_3 1_555 1_555
C3_3 C2_3 1_555 1_555
C6_3 N2_3 1_555 1_555
C7_3 N2_3 1_555 1_555
C8_3 C7_3 1_555 1_555
H9_3 C8_3 1_555 1_555
H10_3 C8_3 1_555 1_555
H11_3 C8_3 1_555 1_555
C2_3 C6_3 1_555 1_555
N2_4 H1_4 1_555 1_555
O1_4 C6_4 1_555 1_555
C1_4 H5_4 1_555 1_555
C2_4 C1_4 1_555 1_555
C3_4 C2_4 1_555 1_555
H6_2 C3_4 1_555 1_555
C4_2 C3_4 1_555 1_555
H7_2 C4_2 1_555 1_555
C6_4 N2_4 1_555 1_555
C7_4 N2_4 1_555 1_555
C8_4 C7_4 1_555 1_555
H9_4 C8_4 1_555 1_555
H10_4 C8_4 1_555 1_555
H11_4 C8_4 1_555 1_555
C2_4 C6_4 1_555 1_555
C4_2 C5_2 1_555 1_555
H22_3 C16_3 1_555 1_555
H23_3 C16_3 1_555 1_555
C17_3 C16_3 1_555 1_555
H24_3 C17_3 1_555 1_555
H25_3 C17_3 1_555 1_555
C18_3 C17_3 1_555 1_555
H26_3 C18_3 1_555 1_555
H27_3 C18_3 1_555 1_555
H7_3 C4_3 1_555 1_555
C4_3 C5_3 1_555 1_555
C41_3 N10_3 1_555 1_555
H50_3 C41_3 1_555 1_555
H51_3 C41_3 1_555 1_555
C42_3 C41_3 1_555 1_555
H52_3 C42_3 1_555 1_555
H53_3 C42_3 1_555 1_555
C43_3 C42_3 1_555 1_555
H54_3 C43_3 1_555 1_555
H55_3 C43_3 1_555 1_555
C44_3 N10_3 1_555 1_555
H56_3 C44_3 1_555 1_555
C43_3 C44_3 1_555 1_555
C41_4 N10_4 1_555 1_555
H51_4 C41_4 1_555 1_555
C42_4 C41_4 1_555 1_555
H52_4 C42_4 1_555 1_555
H53_4 C42_4 1_555 1_555
C43_4 C42_4 1_555 1_555
H54_4 C43_4 1_555 1_555
H55_4 C43_4 1_555 1_555
C44_4 N10_4 1_555 1_555
H56_4 C44_4 1_555 1_555
C43_4 C44_4 1_555 1_555
H7_4 C4_4 1_555 1_555
H8_4 C5_4 1_555 1_555
C4_4 C5_4 1_555 1_555
H22_4 C16_4 1_555 1_555
H23_4 C16_4 1_555 1_555
C17_4 C16_4 1_555 1_555
H24_4 C17_4 1_555 1_555
H25_4 C17_4 1_555 1_555
C18_4 C17_4 1_555 1_555
H26_4 C18_4 1_555 1_555
H27_4 C18_4 1_555 1_555
P1 F1 1_555 1_555
F2 P1 1_555 1_555
F3 P1 1_555 1_555
F4 P1 1_555 1_555
F5 P1 1_555 1_555
F6 P1 1_555 1_555
P1_2 F1_2 1_555 1_555
F2_2 P1_2 1_555 1_555
F3_2 P1_2 1_555 1_555
F4_2 P1_2 1_555 1_555
F5_2 P1_2 1_555 1_555
F6_2 P1_2 1_555 1_555
P1_3 F1_3 1_555 1_555
F2_3 P1_3 1_555 1_555
F3_3 P1_3 1_555 1_555
F4_3 P1_3 1_555 1_555
F5_3 P1_3 1_555 1_555
F6_3 P1_3 1_555 1_555
P1_4 F1_4 1_555 1_555
F2_4 P1_4 1_555 1_555
F3_4 P1_4 1_555 1_555
F4_4 P1_4 1_555 1_555
F5_4 P1_4 1_555 1_555
F6_4 P1_4 1_555 1_555
O12 H61 1_555 1_555
O12_2 H61_2 1_555 1_555
O12_3 H61_3 1_555 1_555
O12_4 H61_4 1_555 1_555

#END
