
###############################################################################
#
# This file contains modified crystal structure data generated from the
# MOF subset of the Cambridge Structural Database (CSD) v543 
# hosted by the Cambridge Crystallographic Data Centre (CCDC).
#
# This work is licensed under the Creative Commons
# Attribution-NonCommercial-ShareAlike 4.0 International License.
# To view a copy of this license, visit
# http://creativecommons.org/licenses/by-nc-sa/4.0/
# or send a letter to
# Creative Commons, PO Box 1866, Mountain View, CA 94042, USA.
#
# CIF created using the CSD Python API on 29 September 2022
# The structure has been converted into the P1 space group
# The structure has a 3D framework
# The original CSD entry HUWROJ is in the orthorhombic crystal system
# The original CSD entry HUWROJ is in a Sohncke space group
# The framework has been calculated to contain at least 10.0% void space
# The void calculation uses a probe of radius 1.32A, grid spacing 0.4
# The framework is charged, counterions have been retained in the structure
#
###############################################################################

data_HUWROJ
_chemical_formula_moiety         '(C200 H240 Ag6 F24 N48 O32 P4 2+)n'
_symmetry_cell_setting           triclinic
_symmetry_space_group_name_H-M   'P 1'
_symmetry_Int_Tables_number      1
_space_group_name_Hall           'P 1'
loop_
_symmetry_equiv_pos_site_id
_symmetry_equiv_pos_as_xyz
1 x,y,z
_cell_length_a                   10.9888(7)
_cell_length_b                   14.6990(9)
_cell_length_c                   47.773(3)
_cell_angle_alpha                90
_cell_angle_beta                 90
_cell_angle_gamma                90
_cell_volume                     7716.5
loop_
_atom_site_label
_atom_site_type_symbol
_atom_site_fract_x
_atom_site_fract_y
_atom_site_fract_z
F1 F 0.6684(14) 0.7067(8) 0.3396(2)
F2 F 0.7599(10) 0.5872(14) 0.3159(2)
F3 F 0.5768(9) 0.5630(8) 0.3403(2)
F4 F 0.8561(14) 0.6385(11) 0.3568(3)
F5 F 0.6659(13) 0.6229(9) 0.3817(2)
F6 F 0.7577(11) 0.4972(11) 0.3588(3)
P1 P 0.7159(5) 0.6015(4) 0.34862(10)
F1_2 F 0.8316(14) 0.2933(8) 0.8396(2)
F2_2 F 0.7401(10) 0.4128(14) 0.8159(2)
F3_2 F 0.9232(9) 0.4370(8) 0.8403(2)
F4_2 F 0.6439(14) 0.3615(11) 0.8568(3)
F5_2 F 0.8341(13) 0.3771(9) 0.8817(2)
F6_2 F 0.7423(11) 0.5028(11) 0.8588(3)
P1_2 P 0.7841(5) 0.3985(4) 0.84862(10)
F1_3 F 0.3316(14) 0.2067(8) 0.1604(2)
F2_3 F 0.2401(10) 0.0872(14) 0.1841(2)
F3_3 F 0.4232(9) 0.0630(8) 0.1597(2)
F4_3 F 0.1439(14) 0.1385(11) 0.1432(3)
F5_3 F 0.3341(13) 0.1229(9) 0.1183(2)
P1_3 P 0.2841(5) 0.1015(4) 0.15138(10)
F6_3 F 0.2423(11) 0.9972(11) 0.1412(3)
F6_4 F 0.2577(11) 0.0028(11) 0.6412(3)
F1_4 F 0.1684(14) 0.7933(8) 0.6604(2)
F2_4 F 0.2599(10) 0.9128(14) 0.6841(2)
F3_4 F 0.0768(9) 0.9370(8) 0.6597(2)
F4_4 F 0.3561(14) 0.8615(11) 0.6432(3)
F5_4 F 0.1659(13) 0.8771(9) 0.6183(2)
P1_4 P 0.2159(5) 0.8985(4) 0.65138(10)
C41 C 0.0768(17) 0.0735(14) 0.4109(4)
H46 H 0.1217 0.0734 0.4289
H47 H 0.0439 0.0118 0.4075
C42 C 0.157(3) 0.103(3) 0.3874(7)
H48 H 0.2037 0.0508 0.3798
H49 H 0.2150 0.1504 0.3937
C43 C 0.0670(17) 0.1420(16) 0.3647(4)
H50 H 0.1081 0.1868 0.3525
H51 H 0.0327 0.0927 0.3530
Ag1 Ag 0.00184(11) 0.55029(8) 0.79105(2)
Ag2 Ag 0.29287(11) 0.10990(10) 0.58718(3)
N1 N 0.0351(10) 0.4126(9) 0.7757(3)
C3 C 0.0929(13) 0.2413(10) 0.7534(3)
H2 H 0.1119 0.1840 0.7453
C4 C 0.1669(13) 0.3172(10) 0.7493(3)
H3 H 0.2408 0.3105 0.7392
C5 C 0.1364(13) 0.4003(11) 0.7594(3)
H4 H 0.1864 0.4512 0.7551
C21 C 0.0381(14) 0.0872(13) 0.6118(3)
H25 H 0.0683 0.0275 0.6149
C25 C 0.0602(15) 0.2259(12) 0.5906(4)
H28 H 0.1051 0.2662 0.5790
C26 C 0.5539(14) 0.1203(11) 0.5657(3)
H29 H 0.5248 0.1768 0.5587
C27 C 0.6764(14) 0.0958(11) 0.5604(3)
C28 C 0.716(2) 0.0187(14) 0.5714(3)
H30 H 0.8005 0.0044 0.5699
C31 C 0.7630(13) 0.1532(12) 0.5439(3)
C32 C 0.7919(13) 0.2782(12) 0.5107(3)
C33 C 0.8747(15) 0.3376(12) 0.5272(3)
H33 H 0.9232 0.3751 0.5145
H34 H 0.8265 0.3770 0.5395
H35 H 0.9290 0.2997 0.5386
C34 C 0.7112(14) 0.3362(11) 0.4927(4)
H36 H 0.7615 0.3746 0.4806
H37 H 0.6593 0.2971 0.4812
H38 H 0.6603 0.3748 0.5047
C35 C 0.8693(13) 0.2191(14) 0.4899(3)
C36 C 0.7030(15) 0.0988(14) 0.4816(4)
H39 H 0.7009 0.0600 0.4985
H40 H 0.6373 0.1446 0.4830
C37 C 0.688(2) 0.0437(15) 0.4565(5)
H41 H 0.6511 0.0795 0.4411
C38 C 0.826(3) 0.0156(13) 0.4493(5)
C39 C 0.8962(16) 0.1032(14) 0.4567(4)
H45 H 0.9805 0.0893 0.4633
C40 C 0.8978(13) 0.1607(10) 0.4306(3)
N2 N 0.9766(11) 0.1429(9) 0.4113(3)
C44 C 0.9664(14) 0.1881(11) 0.3828(3)
H52 H 0.9789 0.2554 0.3841
C45 C 0.8345(15) 0.1640(11) 0.3716(3)
C46 C 0.6520(13) 0.3133(10) 0.3258(3)
H53 H 0.7085 0.3622 0.3257
C47 C 0.6807(13) 0.2329(10) 0.3408(3)
C48 C 0.5985(14) 0.1615(8) 0.3407(3)
H54 H 0.6145 0.1069 0.3507
C49 C 0.4916(17) 0.1728(10) 0.3255(4)
H55 H 0.4343 0.1245 0.3249
C50 C 0.4675(14) 0.2492(11) 0.3117(3)
H56 H 0.3936 0.2538 0.3015
N7 N 0.1060(12) 0.1474(10) 0.5967(3)
N8 N 0.4777(12) 0.0677(9) 0.5801(3)
N9 N 0.7171(11) 0.2204(9) 0.5290(3)
H59 H 0.6384 0.2312 0.5300
N10 N 0.8238(11) 0.1441(11) 0.4788(3)
N11 N 0.7939(12) 0.2335(9) 0.3549(2)
H60 H 0.8412 0.2813 0.3528
N12 N 0.5467(11) 0.3220(8) 0.3118(3)
O5 O 0.8715(9) 0.1330(9) 0.5434(2)
O6 O 0.9685(8) 0.2470(8) 0.4832(2)
O7 O 0.8224(10) 0.2204(9) 0.4275(3)
O8 O 0.7872(12) 0.0933(7) 0.3763(3)
Ag3 Ag 0.49816(11) 0.44971(8) 0.29105(2)
Ag5 Ag 0.79287(11) 0.39010(10) 0.41282(3)
O9 O 0.0836(9) 0.6051(7) 0.7416(2)
O10 O 0.3224(10) 0.2796(9) 0.5725(3)
C1 C 0.9616(13) 0.3380(11) 0.7796(3)
H1 H 0.8875 0.3463 0.7895
C2 C 0.9887(12) 0.2535(9) 0.7702(3)
C6 C 0.9081(13) 0.1732(9) 0.7740(3)
C7 C 0.7290(15) 0.1065(11) 0.7980(3)
C8 C 0.7900(17) 0.0205(12) 0.8094(4)
H7 H 0.8301 0.0343 0.8272
C9 C 0.6340(17) 0.1375(10) 0.8193(4)
H8 H 0.5750 0.0885 0.8224
H9 H 0.6743 0.1524 0.8371
H10 H 0.5917 0.1914 0.8122
C10 C 0.6622(14) 0.0826(10) 0.7702(3)
C11 C 0.6301(15) 0.2463(12) 0.7558(4)
H11 H 0.7048 0.2731 0.7477
H12 H 0.6237 0.2645 0.7757
C12 C 0.5191(16) 0.2741(13) 0.7396(4)
H13 H 0.5242 0.3383 0.7334
H14 H 0.4439 0.2655 0.7507
C13 C 0.5248(16) 0.2075(12) 0.7144(3)
H15 H 0.4429 0.1987 0.7062
H16 H 0.5799 0.2311 0.6998
C14 C 0.5729(14) 0.1185(13) 0.7262(4)
H17 H 0.5054 0.0740 0.7294
C15 C 0.6721(12) 0.0780(12) 0.7066(4)
C20 C 0.7598(13) 0.0476(10) 0.6506(3)
C22 C 0.9266(13) 0.1116(11) 0.6227(3)
C23 C 0.8808(16) 0.1951(11) 0.6173(3)
H26 H 0.8046 0.2138 0.6248
C24 C 0.9493(16) 0.2528(13) 0.6004(4)
H27 H 0.9187 0.3113 0.5957
N3 N 0.8173(11) 0.1792(8) 0.7933(3)
H57 H 0.8114 0.2292 0.8033
N4 N 0.6289(11) 0.1464(10) 0.7527(3)
N5 N 0.6458(12) 0.0013(9) 0.6932(3)
N6 N 0.8748(11) 0.0445(10) 0.6409(3)
O1 O 0.9164(9) 0.1051(7) 0.7584(2)
O3 O 0.7664(9) 0.1189(8) 0.7035(2)
O4 O 0.6799(9) 0.0967(8) 0.6421(2)
Ag4 Ag 0.99816(11) 0.05029(8) 0.70895(2)
N13 N 0.9533(11) 0.6780(8) 0.8118(3)
Ag2_2 Ag 0.20713(11) 0.89010(10) 0.08718(3)
N1_2 N 0.4649(10) 0.5874(9) 0.2757(3)
C1_2 C 0.5384(13) 0.6620(11) 0.2796(3)
H1_2 H 0.6125 0.6537 0.2895
C2_2 C 0.5113(12) 0.7465(9) 0.2702(3)
C3_2 C 0.4071(13) 0.7587(10) 0.2534(3)
H2_2 H 0.3881 0.8160 0.2453
C4_2 C 0.3331(13) 0.6828(10) 0.2493(3)
H3_2 H 0.2592 0.6895 0.2392
C5_2 C 0.3636(13) 0.5997(11) 0.2594(3)
H4_2 H 0.3136 0.5488 0.2551
C6_2 C 0.5919(13) 0.8268(9) 0.2740(3)
C7_2 C 0.7710(15) 0.8935(11) 0.2980(3)
C8_2 C 0.7100(17) 0.9795(12) 0.3094(4)
H7_2 H 0.6699 0.9657 0.3272
C9_2 C 0.8660(17) 0.8625(10) 0.3193(4)
H8_2 H 0.9250 0.9115 0.3224
H9_2 H 0.8257 0.8476 0.3371
H10_2 H 0.9083 0.8086 0.3122
C10_2 C 0.8378(14) 0.9174(10) 0.2702(3)
C11_2 C 0.8699(15) 0.7537(12) 0.2558(4)
H11_2 H 0.7952 0.7269 0.2477
H12_2 H 0.8763 0.7355 0.2757
C12_2 C 0.9809(16) 0.7259(13) 0.2396(4)
H13_2 H 0.9758 0.6617 0.2334
C13_2 C 0.9752(16) 0.7925(12) 0.2144(3)
H16_2 H 0.9201 0.7689 0.1998
C14_2 C 0.9271(14) 0.8815(13) 0.2262(4)
H17_2 H 0.9946 0.9260 0.2294
C15_2 C 0.8279(12) 0.9220(12) 0.2066(4)
C20_2 C 0.7402(13) 0.9524(10) 0.1506(3)
C21_2 C 0.4619(14) 0.9128(13) 0.1118(3)
H25_2 H 0.4317 0.9725 0.1149
C22_2 C 0.5734(13) 0.8884(11) 0.1227(3)
C23_2 C 0.6192(16) 0.8049(11) 0.1173(3)
H26_2 H 0.6954 0.7862 0.1248
C24_2 C 0.5507(16) 0.7472(13) 0.1004(4)
H27_2 H 0.5813 0.6887 0.0957
C25_2 C 0.4398(15) 0.7741(12) 0.0906(4)
H28_2 H 0.3949 0.7338 0.0790
N3_2 N 0.6827(11) 0.8208(8) 0.2933(3)
H57_2 H 0.6886 0.7708 0.3033
N4_2 N 0.8711(11) 0.8536(10) 0.2527(3)
N5_2 N 0.8542(12) 0.9987(9) 0.1932(3)
N6_2 N 0.6252(11) 0.9555(10) 0.1409(3)
N7_2 N 0.3940(12) 0.8526(10) 0.0967(3)
N8_2 N 0.0223(12) 0.9323(9) 0.0801(3)
O1_2 O 0.5836(9) 0.8949(7) 0.2584(2)
O3_2 O 0.7336(9) 0.8811(8) 0.2035(2)
O4_2 O 0.8201(9) 0.9033(8) 0.1421(2)
Ag4_2 Ag 0.50184(11) 0.94971(8) 0.20895(2)
O9_2 O 0.4164(9) 0.3949(7) 0.2416(2)
O10_2 O 0.1776(10) 0.7204(9) 0.0725(3)
C49_2 C 0.0084(17) 0.8272(10) 0.8255(4)
H55_2 H 0.0657 0.8755 0.8249
C50_2 C 0.0325(14) 0.7508(11) 0.8117(3)
H56_2 H 0.1064 0.7462 0.8015
C34_2 C 0.7888(14) 0.6638(11) 0.9927(4)
H36_2 H 0.7385 0.6254 0.9806
H37_2 H 0.8407 0.7029 0.9812
C35_2 C 0.6307(13) 0.7809(14) 0.9899(3)
C36_2 C 0.7970(15) 0.9012(14) 0.9816(4)
H39_2 H 0.7991 0.9400 0.9985
H40_2 H 0.8627 0.8554 0.9830
C37_2 C 0.812(2) 0.9563(15) 0.9565(5)
H41_2 H 0.8489 0.9205 0.9411
C38_2 C 0.674(3) 0.9844(13) 0.9493(5)
C39_2 C 0.6038(16) 0.8968(14) 0.9567(4)
H45_2 H 0.5195 0.9107 0.9633
C40_2 C 0.6022(13) 0.8393(10) 0.9306(3)
N2_2 N 0.5234(11) 0.8571(9) 0.9113(3)
C41_2 C 0.4232(17) 0.9265(14) 0.9109(4)
H46_2 H 0.3783 0.9266 0.9289
H47_2 H 0.4561 0.9882 0.9075
C42_2 C 0.343(3) 0.897(3) 0.8874(7)
H48_2 H 0.2963 0.9492 0.8798
H49_2 H 0.2850 0.8496 0.8937
C43_2 C 0.4330(17) 0.8580(16) 0.8647(4)
H50_2 H 0.3919 0.8132 0.8525
H51_2 H 0.4673 0.9073 0.8530
C44_2 C 0.5336(14) 0.8119(11) 0.8828(3)
H52_2 H 0.5211 0.7446 0.8841
C45_2 C 0.6655(15) 0.8360(11) 0.8716(3)
C46_2 C 0.8480(13) 0.6867(10) 0.8258(3)
H53_2 H 0.7915 0.6378 0.8257
C47_2 C 0.8193(13) 0.7671(10) 0.8408(3)
C48_2 C 0.9015(14) 0.8385(8) 0.8407(3)
H54_2 H 0.8855 0.8931 0.8507
N10_2 N 0.6762(11) 0.8559(11) 0.9788(3)
N11_2 N 0.7061(12) 0.7665(9) 0.8549(2)
H60_2 H 0.6588 0.7187 0.8528
O6_2 O 0.5315(8) 0.7530(8) 0.9832(2)
O7_2 O 0.6776(10) 0.7796(9) 0.9275(3)
O8_2 O 0.7128(12) 0.9067(7) 0.8763(3)
Ag5_2 Ag 0.70713(11) 0.60990(10) 0.91282(3)
N13_2 N 0.0467(11) 0.1780(8) 0.6882(3)
C1_3 C 0.0384(13) 0.8380(11) 0.7204(3)
H1_3 H 0.1125 0.8463 0.7105
C2_3 C 0.0113(12) 0.7535(9) 0.7298(3)
C6_3 C 0.0919(13) 0.6732(9) 0.7260(3)
C7_3 C 0.2710(15) 0.6065(11) 0.7020(3)
C8_3 C 0.2100(17) 0.5205(12) 0.6906(4)
H5 H 0.2716 0.4732 0.6877
H6 H 0.1494 0.4988 0.7041
H7_3 H 0.1699 0.5343 0.6728
C9_3 C 0.3660(17) 0.6375(10) 0.6807(4)
H8_3 H 0.4250 0.5885 0.6776
H9_3 H 0.3257 0.6524 0.6629
H10_3 H 0.4083 0.6914 0.6878
C10_3 C 0.3378(14) 0.5826(10) 0.7298(3)
C11_3 C 0.3699(15) 0.7463(12) 0.7442(4)
H11_3 H 0.2952 0.7731 0.7523
H12_3 H 0.3763 0.7645 0.7243
C12_3 C 0.4809(16) 0.7741(13) 0.7604(4)
H13_3 H 0.4758 0.8383 0.7666
H14_2 H 0.5561 0.7655 0.7493
C13_3 C 0.4752(16) 0.7075(12) 0.7856(3)
H15_2 H 0.5571 0.6987 0.7938
H16_3 H 0.4201 0.7311 0.8002
C14_3 C 0.4271(14) 0.6185(13) 0.7738(4)
H17_3 H 0.4946 0.5740 0.7706
C15_3 C 0.3279(12) 0.5780(12) 0.7934(4)
C16 C 0.4537(14) 0.4340(9) 0.8012(3)
H18 H 0.5323 0.4549 0.8090
H19 H 0.4632 0.4228 0.7809
C17 C 0.4080(17) 0.3505(10) 0.8161(4)
H20 H 0.4768 0.3114 0.8220
H21 H 0.3536 0.3148 0.8038
C18 C 0.3386(17) 0.3854(11) 0.8417(3)
H22 H 0.3948 0.4034 0.8569
H23 H 0.2808 0.3392 0.8488
C19 C 0.2687(14) 0.4716(9) 0.8290(3)
H24 H 0.1913 0.4507 0.8201
C20_3 C 0.2402(13) 0.5476(10) 0.8494(3)
C22_3 C 0.0734(13) 0.6116(11) 0.8773(3)
C23_3 C 0.1192(16) 0.6951(11) 0.8827(3)
H26_3 H 0.1954 0.7138 0.8752
C24_3 C 0.0507(16) 0.7528(13) 0.8996(4)
H27_3 H 0.0813 0.8113 0.9043
N3_3 N 0.1827(11) 0.6792(8) 0.7067(3)
H57_3 H 0.1886 0.7292 0.6967
N4_3 N 0.3711(11) 0.6464(10) 0.7473(3)
N5_3 N 0.3542(12) 0.5013(9) 0.8068(3)
N6_3 N 0.1252(11) 0.5445(10) 0.8591(3)
H58 H 0.0790 0.4986 0.8538
O2 O 0.3567(9) 0.4979(7) 0.7345(2)
O3_3 O 0.2336(9) 0.6189(8) 0.7965(2)
O4_3 O 0.3201(9) 0.5967(8) 0.8579(2)
C34_3 C 0.2888(14) 0.8362(11) 0.0073(4)
H36_3 H 0.2385 0.8746 0.0194
H37_3 H 0.3407 0.7971 0.0188
C35_3 C 0.1307(13) 0.7191(14) 0.0101(3)
C36_3 C 0.2970(15) 0.5988(14) 0.0184(4)
H39_3 H 0.2991 0.5600 0.0015
H40_3 H 0.3627 0.6446 0.0170
C37_3 C 0.312(2) 0.5437(15) 0.0435(5)
H41_3 H 0.3489 0.5795 0.0589
H42 H 0.3632 0.4895 0.0398
C38_3 C 0.174(3) 0.5156(13) 0.0507(5)
H43 H 0.1470 0.4636 0.0390
H44 H 0.1646 0.4997 0.0707
C39_3 C 0.1038(16) 0.6032(14) 0.0433(4)
H45_3 H 0.0195 0.5893 0.0367
C40_3 C 0.1022(13) 0.6607(10) 0.0694(3)
N2_3 N 0.0234(11) 0.6429(9) 0.0887(3)
C44_3 C 0.0336(14) 0.6881(11) 0.1172(3)
H52_3 H 0.0211 0.7554 0.1159
C45_3 C 0.1655(15) 0.6640(11) 0.1284(3)
C46_3 C 0.3480(13) 0.8133(10) 0.1742(3)
H53_3 H 0.2915 0.8622 0.1743
C47_3 C 0.3193(13) 0.7329(10) 0.1592(3)
C48_3 C 0.4015(14) 0.6615(8) 0.1593(3)
H54_3 H 0.3855 0.6069 0.1493
C49_3 C 0.5084(17) 0.6728(10) 0.1745(4)
H55_3 H 0.5657 0.6245 0.1751
C50_3 C 0.5325(14) 0.7492(11) 0.1883(3)
H56_3 H 0.6064 0.7538 0.1985
N10_3 N 0.1762(11) 0.6441(11) 0.0212(3)
N11_3 N 0.2061(12) 0.7335(9) 0.1451(2)
H60_3 H 0.1588 0.7813 0.1472
N12_2 N 0.4533(11) 0.8220(8) 0.1882(3)
O6_3 O 0.0315(8) 0.7470(8) 0.0168(2)
O8_3 O 0.2128(12) 0.5933(7) 0.1237(3)
N1_3 N 0.9649(10) 0.9126(9) 0.7243(3)
C3_3 C 0.9071(13) 0.7413(10) 0.7466(3)
H2_3 H 0.8881 0.6840 0.7547
C4_3 C 0.8331(13) 0.8172(10) 0.7507(3)
H3_3 H 0.7592 0.8105 0.7608
C5_3 C 0.8636(13) 0.9003(11) 0.7406(3)
H4_3 H 0.8136 0.9512 0.7449
C21_3 C 0.9619(14) 0.5872(13) 0.8882(3)
H25_3 H 0.9317 0.5275 0.8851
C25_3 C 0.9398(15) 0.7259(12) 0.9094(4)
H28_3 H 0.8949 0.7662 0.9210
C26_2 C 0.4461(14) 0.6203(11) 0.9343(3)
H29_2 H 0.4752 0.6768 0.9413
C27_2 C 0.3236(14) 0.5958(11) 0.9396(3)
C28_2 C 0.284(2) 0.5187(14) 0.9286(3)
H30_2 H 0.1995 0.5044 0.9301
C29 C 0.362(2) 0.4561(15) 0.9143(4)
H31 H 0.3343 0.3986 0.9078
C30 C 0.4810(18) 0.4851(14) 0.9106(4)
H32 H 0.5363 0.4460 0.9012
C31_2 C 0.2370(13) 0.6532(12) 0.9561(3)
C32_2 C 0.2081(13) 0.7782(12) 0.9893(3)
C33_2 C 0.1253(15) 0.8376(12) 0.9728(3)
H33_2 H 0.0768 0.8751 0.9855
H34_2 H 0.1735 0.8770 0.9605
H35_2 H 0.0710 0.7997 0.9614
H38_2 H 0.3397 0.8748 0.9953
N7_3 N 0.8940(12) 0.6474(10) 0.9033(3)
N8_3 N 0.5223(12) 0.5677(9) 0.9199(3)
N9_2 N 0.2829(11) 0.7204(9) 0.9710(3)
H59_2 H 0.3616 0.7312 0.9700
O5_2 O 0.1285(9) 0.6330(9) 0.9566(2)
C26_3 C 0.0539(14) 0.3797(11) 0.4343(3)
H29_3 H 0.0248 0.3232 0.4413
C27_3 C 0.1764(14) 0.4042(11) 0.4396(3)
C28_3 C 0.216(2) 0.4813(14) 0.4286(3)
H30_3 H 0.3005 0.4956 0.4301
C29_2 C 0.138(2) 0.5439(15) 0.4143(4)
H31_2 H 0.1657 0.6014 0.4078
C30_2 C 0.0190(18) 0.5149(14) 0.4106(4)
C31_3 C 0.2630(13) 0.3468(12) 0.4561(3)
C32_3 C 0.2919(13) 0.2218(12) 0.4893(3)
C33_3 C 0.3747(15) 0.1624(12) 0.4728(3)
H33_3 H 0.4232 0.1249 0.4855
H34_3 H 0.3265 0.1230 0.4605
H35_3 H 0.4290 0.2003 0.4614
C34_4 C 0.2112(14) 0.1638(11) 0.5073(4)
H36_4 H 0.2615 0.1254 0.5194
H37_4 H 0.1593 0.2029 0.5188
H38_3 H 0.1603 0.1252 0.4953
C35_4 C 0.3693(13) 0.2809(14) 0.5101(3)
C36_4 C 0.2030(15) 0.4012(14) 0.5184(4)
H39_4 H 0.2009 0.4400 0.5015
H40_4 H 0.1373 0.3554 0.5170
C37_4 C 0.188(2) 0.4563(15) 0.5435(5)
H41_4 H 0.1511 0.4205 0.5589
H42_2 H 0.1368 0.5105 0.5398
C38_4 C 0.326(3) 0.4844(13) 0.5507(5)
H43_2 H 0.3530 0.5364 0.5390
H44_2 H 0.3354 0.5003 0.5707
C39_4 C 0.3962(16) 0.3968(14) 0.5433(4)
H45_4 H 0.4805 0.4107 0.5367
C40_4 C 0.3978(13) 0.3393(10) 0.5694(3)
N2_4 N 0.4766(11) 0.3571(9) 0.5887(3)
C41_3 C 0.5768(17) 0.4265(14) 0.5891(4)
H46_3 H 0.6217 0.4266 0.5711
H47_3 H 0.5439 0.4882 0.5925
C42_3 C 0.657(3) 0.397(3) 0.6126(7)
H48_3 H 0.7037 0.4492 0.6202
H49_3 H 0.7150 0.3496 0.6063
C43_3 C 0.5670(17) 0.3580(16) 0.6353(4)
H50_3 H 0.6081 0.3132 0.6475
H51_3 H 0.5327 0.4073 0.6470
C44_4 C 0.4664(14) 0.3119(11) 0.6172(3)
H52_4 H 0.4789 0.2446 0.6159
C45_4 C 0.3345(15) 0.3360(11) 0.6284(3)
C46_4 C 0.1520(13) 0.1867(10) 0.6742(3)
H53_4 H 0.2085 0.1378 0.6743
C47_4 C 0.1807(13) 0.2671(10) 0.6592(3)
C48_4 C 0.0985(14) 0.3385(8) 0.6593(3)
H54_4 H 0.1145 0.3931 0.6493
N9_3 N 0.2171(11) 0.2796(9) 0.4710(3)
H59_3 H 0.1384 0.2688 0.4700
N10_4 N 0.3238(11) 0.3559(11) 0.5212(3)
N11_4 N 0.2939(12) 0.2665(9) 0.6451(2)
H60_4 H 0.3412 0.2187 0.6472
O5_3 O 0.3715(9) 0.3670(9) 0.4566(2)
O6_4 O 0.4685(8) 0.2530(8) 0.5168(2)
O8_4 O 0.2872(12) 0.4067(7) 0.6237(3)
N1_4 N 0.5351(10) 0.0874(9) 0.2243(3)
C1_4 C 0.4616(13) 0.1620(11) 0.2204(3)
H1_4 H 0.3875 0.1537 0.2105
C2_4 C 0.4887(12) 0.2465(9) 0.2298(3)
C3_4 C 0.5929(13) 0.2587(10) 0.2466(3)
H2_4 H 0.6119 0.3160 0.2547
C4_4 C 0.6669(13) 0.1828(10) 0.2507(3)
H3_4 H 0.7408 0.1895 0.2608
C5_4 C 0.6364(13) 0.0997(11) 0.2406(3)
H4_4 H 0.6864 0.0488 0.2449
C6_4 C 0.4081(13) 0.3268(9) 0.2260(3)
C7_4 C 0.2290(15) 0.3935(11) 0.2020(3)
C8_4 C 0.2900(17) 0.4795(12) 0.1906(4)
H5_2 H 0.2284 0.5268 0.1877
H6_2 H 0.3506 0.5012 0.2041
H7_4 H 0.3301 0.4657 0.1728
C9_4 C 0.1340(17) 0.3625(10) 0.1807(4)
H8_4 H 0.0750 0.4115 0.1776
H9_4 H 0.1743 0.3476 0.1629
H10_4 H 0.0917 0.3086 0.1878
C10_4 C 0.1622(14) 0.4174(10) 0.2298(3)
C11_4 C 0.1301(15) 0.2537(12) 0.2442(4)
H11_4 H 0.2048 0.2269 0.2523
H12_4 H 0.1237 0.2355 0.2243
C12_4 C 0.0191(16) 0.2259(13) 0.2604(4)
H13_4 H 0.0242 0.1617 0.2666
C13_4 C 0.0248(16) 0.2925(12) 0.2856(3)
H16_4 H 0.0799 0.2689 0.3002
C14_4 C 0.0729(14) 0.3815(13) 0.2738(4)
H17_4 H 0.0054 0.4260 0.2706
C15_4 C 0.1721(12) 0.4220(12) 0.2934(4)
C16_2 C 0.0463(14) 0.5660(9) 0.3012(3)
H19_2 H 0.0368 0.5772 0.2809
C17_2 C 0.0920(17) 0.6495(10) 0.3161(4)
H20_2 H 0.0232 0.6886 0.3220
H21_2 H 0.1464 0.6852 0.3038
C18_2 C 0.1614(17) 0.6146(11) 0.3417(3)
H22_2 H 0.1052 0.5966 0.3569
H23_2 H 0.2192 0.6608 0.3488
C19_2 C 0.2313(14) 0.5284(9) 0.3290(3)
H24_2 H 0.3087 0.5493 0.3201
C20_4 C 0.2598(13) 0.4524(10) 0.3494(3)
C21_4 C 0.5381(14) 0.4128(13) 0.3882(3)
H25_4 H 0.5683 0.4725 0.3851
C22_4 C 0.4266(13) 0.3884(11) 0.3773(3)
C23_4 C 0.3808(16) 0.3049(11) 0.3827(3)
H26_4 H 0.3046 0.2862 0.3752
C24_4 C 0.4493(16) 0.2472(13) 0.3996(4)
H27_4 H 0.4187 0.1887 0.4043
C25_4 C 0.5602(15) 0.2741(12) 0.4094(4)
H28_4 H 0.6051 0.2338 0.4210
H32_2 H 0.9637 0.5540 0.4012
C49_4 C 0.9916(17) 0.3272(10) 0.6745(4)
H55_4 H 0.9343 0.3755 0.6751
C50_4 C 0.9675(14) 0.2508(11) 0.6883(3)
H56_4 H 0.8936 0.2462 0.6985
N3_4 N 0.3173(11) 0.3208(8) 0.2067(3)
H57_4 H 0.3114 0.2708 0.1967
N4_4 N 0.1289(11) 0.3536(10) 0.2473(3)
N5_4 N 0.1458(12) 0.4987(9) 0.3068(3)
N6_4 N 0.3748(11) 0.4555(10) 0.3591(3)
H58_2 H 0.4210 0.5014 0.3538
N7_4 N 0.6060(12) 0.3526(10) 0.4033(3)
N8_4 N 0.9777(12) 0.4323(9) 0.4199(3)
O2_2 O 0.1433(9) 0.5021(7) 0.2345(2)
O3_4 O 0.2664(9) 0.3811(8) 0.2965(2)
O4_4 O 0.1799(9) 0.4033(8) 0.3579(2)
C29_3 C 0.638(2) 0.9561(15) 0.5857(4)
H31_3 H 0.6657 0.8986 0.5922
C30_3 C 0.5190(18) 0.9851(14) 0.5894(4)
H32_3 H 0.4637 0.9460 0.5988
H42_3 H 0.6368 0.9895 0.4602
H43_3 H 0.8530 0.9636 0.4610
H44_3 H 0.8354 0.9997 0.4293
H5_3 H 0.7284 0.9732 0.8123
H6_3 H 0.8506 0.9988 0.7959
C16_3 C 0.5463(14) 0.9340(9) 0.6988(3)
H18_2 H 0.4677 0.9549 0.6910
H19_3 H 0.5368 0.9228 0.7191
C17_3 C 0.5920(17) 0.8505(10) 0.6839(4)
H20_3 H 0.5232 0.8114 0.6780
H21_3 H 0.6464 0.8148 0.6962
C18_3 C 0.6614(17) 0.8854(11) 0.6583(3)
H22_3 H 0.6052 0.9034 0.6431
H23_3 H 0.7192 0.8392 0.6512
C19_3 C 0.7313(14) 0.9716(9) 0.6710(3)
H24_3 H 0.8087 0.9507 0.6799
H58_3 H 0.9210 0.9986 0.6462
O2_3 O 0.6433(9) 0.9979(7) 0.7655(2)
H18_3 H 0.0323 0.0451 0.1910
H14_3 H 0.0561 0.7345 0.2507
H15_3 H 0.0571 0.8013 0.2062
H5_4 H 0.7716 0.0268 0.3123
H6_4 H 0.6494 0.0012 0.2959
C16_4 C 0.9537(14) 0.0660(9) 0.1988(3)
H19_4 H 0.9632 0.0772 0.2191
C17_4 C 0.9080(17) 0.1495(10) 0.1839(4)
H20_4 H 0.9768 0.1886 0.1780
H21_4 H 0.8536 0.1852 0.1962
C18_4 C 0.8386(17) 0.1146(11) 0.1583(3)
H22_4 H 0.8948 0.0966 0.1431
H23_4 H 0.7808 0.1608 0.1512
C19_4 C 0.7687(14) 0.0284(9) 0.1710(3)
H24_4 H 0.6913 0.0493 0.1799
H32_4 H 0.0363 0.0540 0.0988
H58_4 H 0.5790 0.0014 0.1462
O2_4 O 0.8567(9) 0.0021(7) 0.2655(2)
C29_4 C 0.862(2) 0.0439(15) 0.0857(4)
H31_4 H 0.8343 0.1014 0.0922
C30_4 C 0.9810(18) 0.0149(14) 0.0894(4)
H42_4 H 0.8632 0.0105 0.9602
H43_4 H 0.6470 0.0364 0.9610
H44_4 H 0.6646 0.0003 0.9293
C26_4 C 0.9461(14) 0.8797(11) 0.0657(3)
H29_4 H 0.9752 0.8232 0.0587
C27_4 C 0.8236(14) 0.9042(11) 0.0604(3)
C28_4 C 0.784(2) 0.9813(14) 0.0714(3)
H30_4 H 0.6995 0.9956 0.0699
C31_4 C 0.7370(13) 0.8468(12) 0.0439(3)
C32_4 C 0.7081(13) 0.7218(12) 0.0107(3)
C33_4 C 0.6253(15) 0.6624(12) 0.0272(3)
H33_4 H 0.5768 0.6249 0.0145
H34_4 H 0.6735 0.6230 0.0395
H35_4 H 0.5710 0.7003 0.0386
H38_4 H 0.8397 0.6252 0.0047
N9_4 N 0.7829(11) 0.7796(9) 0.0290(3)
H59_4 H 0.8616 0.7688 0.0300
O5_4 O 0.6285(9) 0.8670(9) 0.0434(2)
C41_4 C 0.9232(17) 0.5735(14) 0.0891(4)
H46_4 H 0.8783 0.5734 0.0711
H47_4 H 0.9561 0.5118 0.0925
C42_4 C 0.843(3) 0.603(3) 0.1126(7)
H48_4 H 0.7963 0.5508 0.1202
H49_4 H 0.7850 0.6504 0.1063
C43_4 C 0.9330(17) 0.6420(16) 0.1353(4)
H50_4 H 0.8919 0.6868 0.1475
H51_4 H 0.9673 0.5927 0.1470
H14_4 H 0.9439 0.2345 0.2493
H15_4 H 0.9429 0.3013 0.2938
H18_4 H 0.9677 0.5451 0.3090
loop_
_geom_bond_atom_site_label_1
_geom_bond_atom_site_label_2
_geom_bond_site_symmetry_1
_geom_bond_site_symmetry_2
F1 P1 1_555 1_555
F2 P1 1_555 1_555
F3 P1 1_555 1_555
F4 P1 1_555 1_555
F5 P1 1_555 1_555
F6 P1 1_555 1_555
F1_2 P1_2 1_555 1_555
F2_2 P1_2 1_555 1_555
F3_2 P1_2 1_555 1_555
F4_2 P1_2 1_555 1_555
F5_2 P1_2 1_555 1_555
F6_2 P1_2 1_555 1_555
F1_3 P1_3 1_555 1_555
F2_3 P1_3 1_555 1_555
F3_3 P1_3 1_555 1_555
F4_3 P1_3 1_555 1_555
F5_3 P1_3 1_555 1_555
F1_4 P1_4 1_555 1_555
F2_4 P1_4 1_555 1_555
F3_4 P1_4 1_555 1_555
F4_4 P1_4 1_555 1_555
F5_4 P1_4 1_555 1_555
H46 C41 1_555 1_555
H47 C41 1_555 1_555
C42 C41 1_555 1_555
H48 C42 1_555 1_555
H49 C42 1_555 1_555
C43 C42 1_555 1_555
H50 C43 1_555 1_555
H51 C43 1_555 1_555
Ag1 N1 1_555 1_555
Ag2 N7 1_555 1_555
H2 C3 1_555 1_555
C4 C3 1_555 1_555
H3 C4 1_555 1_555
C5 N1 1_555 1_555
H4 C5 1_555 1_555
C21 H25 1_555 1_555
H28 C25 1_555 1_555
C26 H29 1_555 1_555
C27 C26 1_555 1_555
C28 C27 1_555 1_555
H30 C28 1_555 1_555
C31 C27 1_555 1_555
C32 C33 1_555 1_555
C33 H33 1_555 1_555
H34 C33 1_555 1_555
H35 C33 1_555 1_555
C34 C32 1_555 1_555
H36 C34 1_555 1_555
H37 C34 1_555 1_555
H38 C34 1_555 1_555
C35 C32 1_555 1_555
C36 H39 1_555 1_555
H40 C36 1_555 1_555
C37 C36 1_555 1_555
H41 C37 1_555 1_555
C38 C37 1_555 1_555
C39 C38 1_555 1_555
H45 C39 1_555 1_555
C40 C39 1_555 1_555
N2 C40 1_555 1_555
C44 N2 1_555 1_555
H52 C44 1_555 1_555
C45 C44 1_555 1_555
C46 H53 1_555 1_555
C47 C46 1_555 1_555
C48 C47 1_555 1_555
H54 C48 1_555 1_555
C49 C48 1_555 1_555
H55 C49 1_555 1_555
C50 C49 1_555 1_555
H56 C50 1_555 1_555
N7 C21 1_555 1_555
N8 Ag2 1_555 1_555
N9 C31 1_555 1_555
H59 N9 1_555 1_555
N10 C35 1_555 1_555
N11 C45 1_555 1_555
H60 N11 1_555 1_555
N12 C46 1_555 1_555
O5 C31 1_555 1_555
O6 C35 1_555 1_555
O7 C40 1_555 1_555
O8 C45 1_555 1_555
Ag3 N12 1_555 1_555
Ag5 O7 1_555 1_555
O9 Ag1 1_555 1_555
O10 Ag2 1_555 1_555
C4 C5 1_555 1_555
C25 N7 1_555 1_555
C26 N8 1_555 1_555
C32 N9 1_555 1_555
C36 N10 1_555 1_555
C39 N10 1_555 1_555
C47 N11 1_555 1_555
C50 N12 1_555 1_555
C1 H1 1_555 1_555
C2 C1 1_555 1_555
C6 C2 1_555 1_555
C7 C8 1_555 1_555
H7 C8 1_555 1_555
C9 C7 1_555 1_555
H8 C9 1_555 1_555
H9 C9 1_555 1_555
H10 C9 1_555 1_555
C10 C7 1_555 1_555
C11 H11 1_555 1_555
H12 C11 1_555 1_555
C12 C11 1_555 1_555
H13 C12 1_555 1_555
H14 C12 1_555 1_555
C13 C12 1_555 1_555
H15 C13 1_555 1_555
H16 C13 1_555 1_555
C14 C13 1_555 1_555
H17 C14 1_555 1_555
C15 C14 1_555 1_555
C23 C22 1_555 1_555
H26 C23 1_555 1_555
C24 C23 1_555 1_555
H27 C24 1_555 1_555
N3 C6 1_555 1_555
H57 N3 1_555 1_555
N4 C10 1_555 1_555
N5 C15 1_555 1_555
N6 C20 1_555 1_555
O1 C6 1_555 1_555
O3 C15 1_555 1_555
O4 C20 1_555 1_555
Ag4 O1 1_555 1_555
C7 N3 1_555 1_555
C11 N4 1_555 1_555
C14 N4 1_555 1_555
C22 N6 1_555 1_555
Ag3 N1_2 1_555 1_555
Ag2_2 N7_2 1_555 1_555
N1_2 C1_2 1_555 1_555
C1_2 H1_2 1_555 1_555
C2_2 C1_2 1_555 1_555
C3_2 C2_2 1_555 1_555
H2_2 C3_2 1_555 1_555
C4_2 C3_2 1_555 1_555
H3_2 C4_2 1_555 1_555
C5_2 N1_2 1_555 1_555
H4_2 C5_2 1_555 1_555
C6_2 C2_2 1_555 1_555
C7_2 C8_2 1_555 1_555
H7_2 C8_2 1_555 1_555
C9_2 C7_2 1_555 1_555
H8_2 C9_2 1_555 1_555
H9_2 C9_2 1_555 1_555
H10_2 C9_2 1_555 1_555
C10_2 C7_2 1_555 1_555
C11_2 H11_2 1_555 1_555
H12_2 C11_2 1_555 1_555
C12_2 C11_2 1_555 1_555
H13_2 C12_2 1_555 1_555
C13_2 C12_2 1_555 1_555
H16_2 C13_2 1_555 1_555
C14_2 C13_2 1_555 1_555
H17_2 C14_2 1_555 1_555
C15_2 C14_2 1_555 1_555
C21_2 H25_2 1_555 1_555
C22_2 C21_2 1_555 1_555
C23_2 C22_2 1_555 1_555
H26_2 C23_2 1_555 1_555
C24_2 C23_2 1_555 1_555
H27_2 C24_2 1_555 1_555
C25_2 C24_2 1_555 1_555
H28_2 C25_2 1_555 1_555
N3_2 C6_2 1_555 1_555
H57_2 N3_2 1_555 1_555
N4_2 C10_2 1_555 1_555
N5_2 C15_2 1_555 1_555
N6_2 C20_2 1_555 1_555
N7_2 C21_2 1_555 1_555
N8_2 Ag2_2 1_555 1_555
O1_2 C6_2 1_555 1_555
O3_2 C15_2 1_555 1_555
O4_2 C20_2 1_555 1_555
Ag4_2 O1_2 1_555 1_555
O9_2 Ag3 1_555 1_555
O10_2 Ag2_2 1_555 1_555
C4_2 C5_2 1_555 1_555
C7_2 N3_2 1_555 1_555
C11_2 N4_2 1_555 1_555
C14_2 N4_2 1_555 1_555
C22_2 N6_2 1_555 1_555
C25_2 N7_2 1_555 1_555
H55_2 C49_2 1_555 1_555
C50_2 C49_2 1_555 1_555
H56_2 C50_2 1_555 1_555
H36_2 C34_2 1_555 1_555
H37_2 C34_2 1_555 1_555
C36_2 H39_2 1_555 1_555
H40_2 C36_2 1_555 1_555
C37_2 C36_2 1_555 1_555
H41_2 C37_2 1_555 1_555
C38_2 C37_2 1_555 1_555
C39_2 C38_2 1_555 1_555
H45_2 C39_2 1_555 1_555
C40_2 C39_2 1_555 1_555
N2_2 C40_2 1_555 1_555
C41_2 N2_2 1_555 1_555
H46_2 C41_2 1_555 1_555
H47_2 C41_2 1_555 1_555
C42_2 C41_2 1_555 1_555
H48_2 C42_2 1_555 1_555
H49_2 C42_2 1_555 1_555
C43_2 C42_2 1_555 1_555
H50_2 C43_2 1_555 1_555
H51_2 C43_2 1_555 1_555
C44_2 N2_2 1_555 1_555
H52_2 C44_2 1_555 1_555
C45_2 C44_2 1_555 1_555
C46_2 H53_2 1_555 1_555
C47_2 C46_2 1_555 1_555
C48_2 C47_2 1_555 1_555
H54_2 C48_2 1_555 1_555
N10_2 C35_2 1_555 1_555
N11_2 C45_2 1_555 1_555
H60_2 N11_2 1_555 1_555
N13 C46_2 1_555 1_555
O6_2 C35_2 1_555 1_555
O7_2 C40_2 1_555 1_555
O8_2 C45_2 1_555 1_555
Ag5_2 O7_2 1_555 1_555
C36_2 N10_2 1_555 1_555
C39_2 N10_2 1_555 1_555
C43_2 C44_2 1_555 1_555
C47_2 N11_2 1_555 1_555
C1_3 H1_3 1_555 1_555
C2_3 C1_3 1_555 1_555
C6_3 C2_3 1_555 1_555
C7_3 C8_3 1_555 1_555
C8_3 H5 1_555 1_555
H6 C8_3 1_555 1_555
H7_3 C8_3 1_555 1_555
C9_3 C7_3 1_555 1_555
H8_3 C9_3 1_555 1_555
H9_3 C9_3 1_555 1_555
H10_3 C9_3 1_555 1_555
C10_3 C7_3 1_555 1_555
C11_3 H11_3 1_555 1_555
H12_3 C11_3 1_555 1_555
C12_3 C11_3 1_555 1_555
H13_3 C12_3 1_555 1_555
H14_2 C12_3 1_555 1_555
C13_3 C12_3 1_555 1_555
H15_2 C13_3 1_555 1_555
H16_3 C13_3 1_555 1_555
C14_3 C13_3 1_555 1_555
H17_3 C14_3 1_555 1_555
C15_3 C14_3 1_555 1_555
C16 H18 1_555 1_555
H19 C16 1_555 1_555
C17 C16 1_555 1_555
H20 C17 1_555 1_555
H21 C17 1_555 1_555
C18 C17 1_555 1_555
H22 C18 1_555 1_555
H23 C18 1_555 1_555
C19 C18 1_555 1_555
H24 C19 1_555 1_555
C20_3 C19 1_555 1_555
C23_3 C22_3 1_555 1_555
H26_3 C23_3 1_555 1_555
C24_3 C23_3 1_555 1_555
H27_3 C24_3 1_555 1_555
N3_3 C6_3 1_555 1_555
H57_3 N3_3 1_555 1_555
N4_3 C10_3 1_555 1_555
N5_3 C15_3 1_555 1_555
N6_3 C20_3 1_555 1_555
H58 N6_3 1_555 1_555
O9 C6_3 1_555 1_555
O2 C10_3 1_555 1_555
O3_3 C15_3 1_555 1_555
O4_3 C20_3 1_555 1_555
C7_3 N3_3 1_555 1_555
C11_3 N4_3 1_555 1_555
C14_3 N4_3 1_555 1_555
C16 N5_3 1_555 1_555
C19 N5_3 1_555 1_555
C22_3 N6_3 1_555 1_555
H36_3 C34_3 1_555 1_555
H37_3 C34_3 1_555 1_555
C36_3 H39_3 1_555 1_555
H40_3 C36_3 1_555 1_555
C37_3 C36_3 1_555 1_555
H41_3 C37_3 1_555 1_555
H42 C37_3 1_555 1_555
C38_3 C37_3 1_555 1_555
H43 C38_3 1_555 1_555
H44 C38_3 1_555 1_555
C39_3 C38_3 1_555 1_555
H45_3 C39_3 1_555 1_555
C40_3 C39_3 1_555 1_555
N2_3 C40_3 1_555 1_555
C44_3 N2_3 1_555 1_555
H52_3 C44_3 1_555 1_555
C45_3 C44_3 1_555 1_555
C46_3 H53_3 1_555 1_555
C47_3 C46_3 1_555 1_555
C48_3 C47_3 1_555 1_555
H54_3 C48_3 1_555 1_555
C49_3 C48_3 1_555 1_555
H55_3 C49_3 1_555 1_555
C50_3 C49_3 1_555 1_555
H56_3 C50_3 1_555 1_555
N10_3 C35_3 1_555 1_555
N11_3 C45_3 1_555 1_555
H60_3 N11_3 1_555 1_555
N12_2 C46_3 1_555 1_555
O6_3 C35_3 1_555 1_555
O10_2 C40_3 1_555 1_555
O8_3 C45_3 1_555 1_555
Ag4_2 N12_2 1_555 1_555
C36_3 N10_3 1_555 1_555
C39_3 N10_3 1_555 1_555
C47_3 N11_3 1_555 1_555
C50_3 N12_2 1_555 1_555
Ag5_2 N7_3 1_555 1_555
H2_3 C3_3 1_555 1_555
C4_3 C3_3 1_555 1_555
H3_3 C4_3 1_555 1_555
C5_3 N1_3 1_555 1_555
H4_3 C5_3 1_555 1_555
C21_3 H25_3 1_555 1_555
H28_3 C25_3 1_555 1_555
C26_2 H29_2 1_555 1_555
C27_2 C26_2 1_555 1_555
C28_2 C27_2 1_555 1_555
H30_2 C28_2 1_555 1_555
C29 C28_2 1_555 1_555
H31 C29 1_555 1_555
C30 C29 1_555 1_555
H32 C30 1_555 1_555
C31_2 C27_2 1_555 1_555
C32_2 C33_2 1_555 1_555
C33_2 H33_2 1_555 1_555
H34_2 C33_2 1_555 1_555
H35_2 C33_2 1_555 1_555
N7_3 C21_3 1_555 1_555
N8_3 Ag5_2 1_555 1_555
N9_2 C31_2 1_555 1_555
H59_2 N9_2 1_555 1_555
O5_2 C31_2 1_555 1_555
C4_3 C5_3 1_555 1_555
C25_3 N7_3 1_555 1_555
C26_2 N8_3 1_555 1_555
C30 N8_3 1_555 1_555
C32_2 N9_2 1_555 1_555
C26_3 H29_3 1_555 1_555
C27_3 C26_3 1_555 1_555
C28_3 C27_3 1_555 1_555
H30_3 C28_3 1_555 1_555
C29_2 C28_3 1_555 1_555
H31_2 C29_2 1_555 1_555
C30_2 C29_2 1_555 1_555
C31_3 C27_3 1_555 1_555
C32_3 C33_3 1_555 1_555
C33_3 H33_3 1_555 1_555
H34_3 C33_3 1_555 1_555
H35_3 C33_3 1_555 1_555
C34_4 C32_3 1_555 1_555
H36_4 C34_4 1_555 1_555
H37_4 C34_4 1_555 1_555
H38_3 C34_4 1_555 1_555
C35_4 C32_3 1_555 1_555
C36_4 H39_4 1_555 1_555
H40_4 C36_4 1_555 1_555
C37_4 C36_4 1_555 1_555
H41_4 C37_4 1_555 1_555
H42_2 C37_4 1_555 1_555
C38_4 C37_4 1_555 1_555
H43_2 C38_4 1_555 1_555
H44_2 C38_4 1_555 1_555
C39_4 C38_4 1_555 1_555
H45_4 C39_4 1_555 1_555
C40_4 C39_4 1_555 1_555
N2_4 C40_4 1_555 1_555
C41_3 N2_4 1_555 1_555
H46_3 C41_3 1_555 1_555
H47_3 C41_3 1_555 1_555
C42_3 C41_3 1_555 1_555
H48_3 C42_3 1_555 1_555
H49_3 C42_3 1_555 1_555
C43_3 C42_3 1_555 1_555
H50_3 C43_3 1_555 1_555
H51_3 C43_3 1_555 1_555
C44_4 N2_4 1_555 1_555
H52_4 C44_4 1_555 1_555
C45_4 C44_4 1_555 1_555
C46_4 H53_4 1_555 1_555
C47_4 C46_4 1_555 1_555
C48_4 C47_4 1_555 1_555
H54_4 C48_4 1_555 1_555
N9_3 C31_3 1_555 1_555
H59_3 N9_3 1_555 1_555
N10_4 C35_4 1_555 1_555
N11_4 C45_4 1_555 1_555
H60_4 N11_4 1_555 1_555
N13_2 C46_4 1_555 1_555
O5_3 C31_3 1_555 1_555
O6_4 C35_4 1_555 1_555
O10 C40_4 1_555 1_555
O8_4 C45_4 1_555 1_555
C32_3 N9_3 1_555 1_555
C36_4 N10_4 1_555 1_555
C39_4 N10_4 1_555 1_555
C43_3 C44_4 1_555 1_555
C47_4 N11_4 1_555 1_555
Ag5 N7_4 1_555 1_555
N1_4 C1_4 1_555 1_555
C1_4 H1_4 1_555 1_555
C2_4 C1_4 1_555 1_555
C3_4 C2_4 1_555 1_555
H2_4 C3_4 1_555 1_555
C4_4 C3_4 1_555 1_555
H3_4 C4_4 1_555 1_555
C5_4 N1_4 1_555 1_555
H4_4 C5_4 1_555 1_555
C6_4 C2_4 1_555 1_555
C7_4 C8_4 1_555 1_555
C8_4 H5_2 1_555 1_555
H6_2 C8_4 1_555 1_555
H7_4 C8_4 1_555 1_555
C9_4 C7_4 1_555 1_555
H8_4 C9_4 1_555 1_555
H9_4 C9_4 1_555 1_555
H10_4 C9_4 1_555 1_555
C10_4 C7_4 1_555 1_555
C11_4 H11_4 1_555 1_555
H12_4 C11_4 1_555 1_555
C12_4 C11_4 1_555 1_555
H13_4 C12_4 1_555 1_555
C13_4 C12_4 1_555 1_555
H16_4 C13_4 1_555 1_555
C14_4 C13_4 1_555 1_555
H17_4 C14_4 1_555 1_555
C15_4 C14_4 1_555 1_555
H19_2 C16_2 1_555 1_555
C17_2 C16_2 1_555 1_555
H20_2 C17_2 1_555 1_555
H21_2 C17_2 1_555 1_555
C18_2 C17_2 1_555 1_555
H22_2 C18_2 1_555 1_555
H23_2 C18_2 1_555 1_555
C19_2 C18_2 1_555 1_555
H24_2 C19_2 1_555 1_555
C20_4 C19_2 1_555 1_555
C21_4 H25_4 1_555 1_555
C22_4 C21_4 1_555 1_555
C23_4 C22_4 1_555 1_555
H26_4 C23_4 1_555 1_555
C24_4 C23_4 1_555 1_555
H27_4 C24_4 1_555 1_555
C25_4 C24_4 1_555 1_555
H28_4 C25_4 1_555 1_555
H55_4 C49_4 1_555 1_555
C50_4 C49_4 1_555 1_555
H56_4 C50_4 1_555 1_555
N3_4 C6_4 1_555 1_555
H57_4 N3_4 1_555 1_555
N4_4 C10_4 1_555 1_555
N5_4 C15_4 1_555 1_555
N6_4 C20_4 1_555 1_555
H58_2 N6_4 1_555 1_555
N7_4 C21_4 1_555 1_555
N8_4 Ag5 1_555 1_555
O9_2 C6_4 1_555 1_555
O2_2 C10_4 1_555 1_555
O3_4 C15_4 1_555 1_555
O4_4 C20_4 1_555 1_555
C4_4 C5_4 1_555 1_555
C7_4 N3_4 1_555 1_555
C11_4 N4_4 1_555 1_555
C14_4 N4_4 1_555 1_555
C16_2 N5_4 1_555 1_555
C19_2 N5_4 1_555 1_555
C22_4 N6_4 1_555 1_555
C25_4 N7_4 1_555 1_555
H31_3 C29_3 1_555 1_555
C30_3 C29_3 1_555 1_555
H32_3 C30_3 1_555 1_555
C16_3 H18_2 1_555 1_555
H19_3 C16_3 1_555 1_555
C17_3 C16_3 1_555 1_555
H20_3 C17_3 1_555 1_555
H21_3 C17_3 1_555 1_555
C18_3 C17_3 1_555 1_555
H22_3 C18_3 1_555 1_555
H23_3 C18_3 1_555 1_555
C19_3 C18_3 1_555 1_555
H24_3 C19_3 1_555 1_555
H19_4 C16_4 1_555 1_555
C17_4 C16_4 1_555 1_555
H20_4 C17_4 1_555 1_555
H21_4 C17_4 1_555 1_555
C18_4 C17_4 1_555 1_555
H22_4 C18_4 1_555 1_555
H23_4 C18_4 1_555 1_555
C19_4 C18_4 1_555 1_555
H24_4 C19_4 1_555 1_555
H31_4 C29_4 1_555 1_555
C30_4 C29_4 1_555 1_555
C26_4 H29_4 1_555 1_555
C27_4 C26_4 1_555 1_555
C28_4 C27_4 1_555 1_555
H30_4 C28_4 1_555 1_555
C31_4 C27_4 1_555 1_555
C32_4 C33_4 1_555 1_555
C33_4 H33_4 1_555 1_555
H34_4 C33_4 1_555 1_555
H35_4 C33_4 1_555 1_555
N9_4 C31_4 1_555 1_555
H59_4 N9_4 1_555 1_555
O5_4 C31_4 1_555 1_555
C32_4 N9_4 1_555 1_555
H46_4 C41_4 1_555 1_555
H47_4 C41_4 1_555 1_555
C42_4 C41_4 1_555 1_555
H48_4 C42_4 1_555 1_555
H49_4 C42_4 1_555 1_555
C43_4 C42_4 1_555 1_555
H50_4 C43_4 1_555 1_555
H51_4 C43_4 1_555 1_555

#END
