
###############################################################################
#
# This file contains modified crystal structure data generated from the
# MOF subset of the Cambridge Structural Database (CSD) v543 
# hosted by the Cambridge Crystallographic Data Centre (CCDC).
#
# This work is licensed under the Creative Commons
# Attribution-NonCommercial-ShareAlike 4.0 International License.
# To view a copy of this license, visit
# http://creativecommons.org/licenses/by-nc-sa/4.0/
# or send a letter to
# Creative Commons, PO Box 1866, Mountain View, CA 94042, USA.
#
# CIF created using the CSD Python API on 29 September 2022
# The structure has been converted into the P1 space group
# The structure has a 3D framework
# The original CSD entry HUWRID is in the orthorhombic crystal system
# The original CSD entry HUWRID is in a Sohncke space group
# The framework has been calculated to contain at least 10.0% void space
# The void calculation uses a probe of radius 1.32A, grid spacing 0.4
# The framework is charged, counterions have been retained in the structure
# H atom positions have been added when not included in the experimental data
#
###############################################################################

data_HUWRID
_chemical_formula_moiety         '(C212 H276 Ag6 F24 N48 O44 P4 2-)n'
_symmetry_cell_setting           triclinic
_symmetry_space_group_name_H-M   'P 1'
_symmetry_Int_Tables_number      1
_space_group_name_Hall           'P 1'
loop_
_symmetry_equiv_pos_site_id
_symmetry_equiv_pos_as_xyz
1 x,y,z
_cell_length_a                   11.005(5)
_cell_length_b                   14.743(6)
_cell_length_c                   47.97(2)
_cell_angle_alpha                90
_cell_angle_beta                 90
_cell_angle_gamma                90
_cell_volume                     7782.97
loop_
_atom_site_label
_atom_site_type_symbol
_atom_site_fract_x
_atom_site_fract_y
_atom_site_fract_z
H18 H 0.037268 0.050739 0.191404
H14 H 0.059751 0.747459 0.250516
H15 H 0.066452 0.814637 0.206963
H8 H 0.766122 0.034793 0.312658
H9 H 0.643880 0.007571 0.296642
C16 C 0.9587(11) 0.0738(8) 0.1985(3)
H19 H 0.966441 0.087041 0.218703
C17 C 0.9167(12) 0.1558(8) 0.1825(3)
H20 H 0.986915 0.192941 0.176483
H21 H 0.862260 0.193780 0.194061
C18 C 0.8489(12) 0.1177(8) 0.1574(3)
H22 H 0.905641 0.095359 0.142890
H23 H 0.793546 0.163232 0.149088
C19 C 0.7785(10) 0.0397(8) 0.1710(2)
H24 H 0.701016 0.063120 0.179146
H32 H 0.044811 0.055419 0.099206
N4 N 0.8582(8) 0.0087(6) 0.1930(2)
H58 H 0.587101 0.007131 0.145846
O2 O 0.8583(7) 0.0094(5) 0.26567(16)
O9 O 0.413(5) 0.185(2) 0.0285(10)
H61 H 0.450733 0.194712 0.043515
C51 C 0.534(5) 0.071(3) 0.0110(10)
H62 H 0.543000 0.006933 0.006255
H64 H 0.595477 0.088304 0.024767
O10 O 0.303(2) 0.060(2) 0.0672(7)
H65 H 0.240608 0.058276 0.057070
C52 C 0.409(4) 0.087(2) 0.0229(8)
H66 H 0.341385 0.068502 0.010296
C53 C 0.411(3) 0.039(2) 0.0501(7)
H68 H 0.484887 0.055718 0.060543
H63 H 0.544290 0.108062 0.994135
Ag2 Ag 0.22111(8) 0.89754(7) 0.08546(2)
C1 C 0.5335(9) 0.6682(7) 0.2813(2)
H1 H 0.603155 0.659055 0.292649
C2 C 0.5096(9) 0.7562(7) 0.2702(2)
C3 C 0.4062(9) 0.7673(7) 0.2534(2)
H2 H 0.387499 0.824908 0.245615
C4 C 0.3315(10) 0.6932(7) 0.2481(2)
H3 H 0.260822 0.699118 0.236904
C5 C 0.3624(10) 0.6121(9) 0.2595(2)
H4 H 0.311615 0.561596 0.255630
C6 C 0.5922(10) 0.8350(7) 0.2738(2)
C7 C 0.7697(10) 0.9024(7) 0.2977(2)
C8 C 0.8640(12) 0.8702(8) 0.3194(3)
H5 H 0.922766 0.918846 0.322832
H6 H 0.822653 0.854549 0.336795
H7 H 0.906637 0.816697 0.312169
C9 C 0.7062(12) 0.9866(8) 0.3097(3)
H10 H 0.667987 0.971057 0.327571
C10 C 0.8370(10) 0.9281(7) 0.2704(2)
C11 C 0.8724(11) 0.7642(7) 0.2549(3)
H11 H 0.798754 0.738652 0.245993
H12 H 0.876549 0.743912 0.274503
C12 C 0.9861(12) 0.7387(8) 0.2390(3)
H13 H 0.982801 0.675013 0.232506
C13 C 0.9837(12) 0.8047(8) 0.2144(3)
H16 H 0.930904 0.781687 0.199301
C14 C 0.9325(10) 0.8917(8) 0.2267(2)
H17 H 0.998975 0.936466 0.230330
C15 C 0.8352(10) 0.9327(7) 0.2073(2)
C20 C 0.7508(9) 0.9607(8) 0.1504(2)
C21 C 0.4709(10) 0.9172(9) 0.1109(3)
H25 H 0.439935 0.976717 0.113515
C22 C 0.5801(9) 0.8960(8) 0.1232(2)
C23 C 0.6263(11) 0.8102(8) 0.1190(2)
H26 H 0.701275 0.792253 0.127102
C24 C 0.5592(11) 0.7505(9) 0.1024(3)
H27 H 0.589077 0.691243 0.098761
C25 C 0.4496(11) 0.7777(9) 0.0914(2)
H28 H 0.404174 0.736073 0.080481
N1 N 0.4593(8) 0.5983(6) 0.27593(18)
N2 N 0.6837(8) 0.8285(6) 0.29303(19)
H57 H 0.690942 0.778332 0.302832
N3 N 0.8751(8) 0.8641(6) 0.25273(19)
N5 N 0.6333(8) 0.9614(7) 0.14064(17)
N6 N 0.4058(8) 0.8600(7) 0.0956(2)
N7 N 0.0340(9) 0.9368(7) 0.0795(2)
O1 O 0.5825(7) 0.9040(5) 0.25925(16)
O3 O 0.7393(7) 0.8911(5) 0.20359(17)
O4 O 0.8275(7) 0.9080(6) 0.14319(17)
H67 H 0.413990 0.972381 0.046644
Ag3 Ag 0.49077(8) 0.46029(5) 0.29206(2)
Ag4 Ag 0.50923(8) 0.96029(5) 0.20794(2)
O12 O 0.1931(7) 0.7285(6) 0.07149(17)
Ag1 Ag 0.00923(8) 0.53971(5) 0.79206(2)
C49 C 0.0119(11) 0.8206(7) 0.8234(3)
H55 H 0.066932 0.869832 0.821472
C50 C 0.0355(10) 0.7397(8) 0.8106(2)
H56 H 0.107823 0.733642 0.799912
N13 N 0.0407(8) 0.4017(6) 0.77593(18)
O11 O 0.0825(7) 0.5960(5) 0.74075(16)
C34 C 0.8013(11) 0.6590(10) 0.9939(3)
H36 H 0.750593 0.622034 0.981525
H37 H 0.857439 0.695563 0.982714
C35 C 0.6449(11) 0.7761(8) 0.9915(2)
C36 C 0.8104(11) 0.8957(10) 0.9817(2)
H39 H 0.875579 0.849430 0.982300
H40 H 0.815211 0.933565 0.998665
C37 C 0.8212(14) 0.9531(13) 0.9559(3)
H41 H 0.855975 0.918035 0.940173
C38 C 0.6897(15) 0.9796(11) 0.9500(3)
H44 H 0.679180 0.996936 0.930234
C39 C 0.6154(12) 0.8963(10) 0.9568(3)
H45 H 0.531143 0.911566 0.963038
C40 C 0.6170(11) 0.8323(9) 0.9316(2)
C41 C 0.4345(11) 0.9189(9) 0.9114(3)
H46 H 0.466772 0.980291 0.907562
H47 H 0.388638 0.919490 0.929164
C42 C 0.3568(15) 0.8830(16) 0.8871(3)
H48 H 0.307668 0.932462 0.878854
H49 H 0.301566 0.834380 0.893539
C43 C 0.4450(12) 0.8473(12) 0.8665(3)
H50 H 0.477534 0.896968 0.854758
H51 H 0.405991 0.801761 0.854236
C44 C 0.5446(11) 0.8046(9) 0.8833(2)
H52 H 0.532242 0.737612 0.884864
C45 C 0.6734(11) 0.8264(9) 0.8721(2)
C46 C 0.8578(10) 0.6773(8) 0.8268(2)
H53 H 0.802316 0.628031 0.827377
C47 C 0.8296(10) 0.7568(8) 0.8409(2)
C48 C 0.9066(10) 0.8306(9) 0.8393(2)
H54 H 0.888587 0.885821 0.848636
N9 N 0.6884(9) 0.8521(8) 0.9791(2)
N10 N 0.5321(8) 0.8494(7) 0.91152(19)
N11 N 0.7163(8) 0.7582(6) 0.85584(18)
H60 H 0.669955 0.709801 0.854251
N12 N 0.9603(8) 0.6686(6) 0.8126(2)
O6 O 0.5422(7) 0.7486(7) 0.98430(17)
O7 O 0.6931(7) 0.7715(6) 0.92851(17)
O8 O 0.7235(8) 0.8984(6) 0.87661(18)
Ag5 Ag 0.72111(8) 0.60246(7) 0.91454(2)
Ag2_2 Ag 0.27889(8) 0.10246(7) 0.58546(2)
C3_2 C 0.0938(9) 0.2327(7) 0.7534(2)
H2_2 H 0.112501 0.175092 0.745615
C4_2 C 0.1685(10) 0.3068(7) 0.7481(2)
H3_2 H 0.239178 0.300882 0.736904
C5_2 C 0.1376(10) 0.3879(9) 0.7595(2)
H4_2 H 0.188385 0.438404 0.755630
C21_2 C 0.0291(10) 0.0828(9) 0.6109(3)
H25_2 H 0.060065 0.023283 0.613515
C25_2 C 0.0504(11) 0.2223(9) 0.5914(2)
H28_2 H 0.095826 0.263927 0.580481
C26 C 0.5439(10) 0.1154(9) 0.5649(2)
H29 H 0.513905 0.170029 0.556994
C27 C 0.6647(10) 0.0943(8) 0.5609(2)
C28 C 0.7064(13) 0.0159(10) 0.5712(2)
C31 C 0.7508(10) 0.1533(9) 0.5445(2)
C32 C 0.7798(11) 0.2783(9) 0.5113(2)
C33 C 0.8651(11) 0.3387(10) 0.5291(3)
H33 H 0.915748 0.375821 0.516809
H34 H 0.816231 0.378247 0.541124
H35 H 0.917158 0.300111 0.540716
C34_2 C 0.6987(11) 0.3410(10) 0.4939(3)
H36_2 H 0.749407 0.377966 0.481525
H37_2 H 0.642561 0.304437 0.482714
H38 H 0.652177 0.380814 0.506318
C35_2 C 0.8551(11) 0.2239(8) 0.4915(2)
C36_2 C 0.6896(11) 0.1043(10) 0.4817(2)
H39_2 H 0.624421 0.150570 0.482300
H40_2 H 0.684789 0.066435 0.498665
C37_2 C 0.6788(14) 0.0469(13) 0.4559(3)
H41_2 H 0.644025 0.081965 0.440173
C38_2 C 0.8103(15) 0.0204(11) 0.4500(3)
H44_2 H 0.820820 0.003064 0.430234
C39_2 C 0.8846(12) 0.1037(10) 0.4568(3)
H45_2 H 0.968857 0.088434 0.463038
C40_2 C 0.8830(11) 0.1677(9) 0.4316(2)
C44_2 C 0.9554(11) 0.1954(9) 0.3833(2)
H52_2 H 0.967758 0.262388 0.384864
C45_2 C 0.8266(11) 0.1736(9) 0.3721(2)
C46_2 C 0.6422(10) 0.3227(8) 0.3268(2)
H53_2 H 0.697684 0.371969 0.327377
C47_2 C 0.6704(10) 0.2432(8) 0.3409(2)
C48_2 C 0.5934(10) 0.1694(9) 0.3393(2)
H54_2 H 0.611413 0.114179 0.348636
C49_2 C 0.4881(11) 0.1794(7) 0.3234(3)
H55_2 H 0.433068 0.130168 0.321472
C50_2 C 0.4645(10) 0.2603(8) 0.3106(2)
H56_2 H 0.392177 0.266358 0.299912
N6_2 N 0.0942(8) 0.1400(7) 0.5956(2)
N7_2 N 0.4660(9) 0.0632(7) 0.5795(2)
N8 N 0.7043(8) 0.2229(7) 0.52990(18)
H59 H 0.626433 0.235528 0.531518
N9_2 N 0.8116(9) 0.1479(8) 0.4791(2)
N10_2 N 0.9679(8) 0.1506(7) 0.41152(19)
N11_2 N 0.7837(8) 0.2418(6) 0.35584(18)
H60_2 H 0.830045 0.290199 0.354251
N12_2 N 0.5397(8) 0.3314(6) 0.3126(2)
O5 O 0.8613(7) 0.1331(6) 0.54385(17)
O6_2 O 0.9578(7) 0.2514(7) 0.48430(17)
O7_2 O 0.8069(7) 0.2285(6) 0.42851(17)
O8_2 O 0.7765(8) 0.1016(6) 0.37661(18)
H67_2 H 0.086010 0.027619 0.546644
Ag5_2 Ag 0.77889(8) 0.39754(7) 0.41454(2)
O11_2 O 0.4175(7) 0.4040(5) 0.24075(16)
O12_2 O 0.3069(7) 0.2715(6) 0.57149(17)
C1_2 C 0.9665(9) 0.3318(7) 0.7813(2)
H1_2 H 0.896845 0.340945 0.792649
C2_2 C 0.9904(9) 0.2438(7) 0.7702(2)
C6_2 C 0.9078(10) 0.1650(7) 0.7738(2)
C7_2 C 0.7303(10) 0.0976(7) 0.7977(2)
C8_2 C 0.6360(12) 0.1298(8) 0.8194(3)
H5_2 H 0.577234 0.081154 0.822832
H6_2 H 0.677347 0.145451 0.836795
H7_2 H 0.593363 0.183303 0.812169
C9_2 C 0.7938(12) 0.0134(8) 0.8097(3)
H10_2 H 0.832013 0.028943 0.827571
C10_2 C 0.6630(10) 0.0719(7) 0.7704(2)
C11_2 C 0.6276(11) 0.2358(7) 0.7549(3)
H11_2 H 0.701246 0.261348 0.745993
H12_2 H 0.623451 0.256088 0.774503
C12_2 C 0.5139(12) 0.2613(8) 0.7390(3)
H13_2 H 0.517199 0.324987 0.732506
H14_2 H 0.440249 0.252541 0.750516
C13_2 C 0.5163(12) 0.1953(8) 0.7144(3)
H15_2 H 0.433548 0.185363 0.706963
H16_2 H 0.569096 0.218313 0.699301
C14_2 C 0.5675(10) 0.1083(8) 0.7267(2)
H17_2 H 0.501025 0.063534 0.730330
C15_2 C 0.6648(10) 0.0673(7) 0.7073(2)
C20_2 C 0.7492(9) 0.0393(8) 0.6504(2)
C22_2 C 0.9199(9) 0.1040(8) 0.6232(2)
C23_2 C 0.8737(11) 0.1898(8) 0.6190(2)
H26_2 H 0.798725 0.207747 0.627102
C24_2 C 0.9408(11) 0.2495(9) 0.6024(3)
H27_2 H 0.910923 0.308757 0.598761
N2_2 N 0.8163(8) 0.1715(6) 0.79303(19)
H57_2 H 0.809058 0.221668 0.802832
N3_2 N 0.6249(8) 0.1359(6) 0.75273(19)
N5_2 N 0.8667(8) 0.0386(7) 0.64064(17)
O1_2 O 0.9175(7) 0.0960(5) 0.75925(16)
O3_2 O 0.7607(7) 0.1089(5) 0.70359(17)
O4_2 O 0.6725(7) 0.0920(6) 0.64319(17)
Ag4_2 Ag 0.99077(8) 0.03971(5) 0.70794(2)
C26_2 C 0.0439(10) 0.3846(9) 0.4351(2)
H29_2 H 0.013905 0.329971 0.443006
C27_2 C 0.1647(10) 0.4057(8) 0.4391(2)
C28_2 C 0.2064(13) 0.4841(10) 0.4288(2)
H30 H 0.289046 0.500554 0.431532
C29 C 0.1305(13) 0.5412(11) 0.4141(3)
H31 H 0.160137 0.596592 0.406610
C30 C 0.0087(13) 0.5159(8) 0.4105(3)
C31_2 C 0.2508(10) 0.3467(9) 0.4555(2)
C32_2 C 0.2798(11) 0.2217(9) 0.4887(2)
C33_2 C 0.3651(11) 0.1613(10) 0.4709(3)
H33_2 H 0.415748 0.124179 0.483191
H34_2 H 0.316231 0.121753 0.458876
H35_2 H 0.417158 0.199889 0.459284
C34_3 C 0.1987(11) 0.1590(10) 0.5061(3)
H36_3 H 0.249407 0.122034 0.518475
H37_3 H 0.142561 0.195563 0.517286
H38_2 H 0.152177 0.119186 0.493682
C35_3 C 0.3551(11) 0.2761(8) 0.5085(2)
C36_3 C 0.1896(11) 0.3957(10) 0.5183(2)
H39_3 H 0.124421 0.349430 0.517700
H40_3 H 0.184789 0.433565 0.501335
C37_3 C 0.1788(14) 0.4531(13) 0.5441(3)
H41_3 H 0.144025 0.418035 0.559827
H42 H 0.127807 0.507266 0.540716
C38_3 C 0.3103(15) 0.4796(11) 0.5500(3)
H43 H 0.335052 0.531323 0.538082
H44_3 H 0.320820 0.496936 0.569766
C39_3 C 0.3846(12) 0.3963(10) 0.5432(3)
H45_3 H 0.468857 0.411566 0.536962
C40_3 C 0.3830(11) 0.3323(9) 0.5684(2)
C41_2 C 0.5655(11) 0.4189(9) 0.5886(3)
H46_2 H 0.533228 0.480291 0.592438
H47_2 H 0.611362 0.419490 0.570836
C42_2 C 0.6432(15) 0.3830(16) 0.6129(3)
H48_2 H 0.692332 0.432462 0.621146
H49_2 H 0.698434 0.334380 0.606461
C43_2 C 0.5550(12) 0.3473(12) 0.6335(3)
H50_2 H 0.522466 0.396968 0.645242
H51_2 H 0.594009 0.301761 0.645764
C44_3 C 0.4554(11) 0.3046(9) 0.6167(2)
H52_3 H 0.467758 0.237612 0.615136
C45_3 C 0.3266(11) 0.3264(9) 0.6279(2)
C46_3 C 0.1422(10) 0.1773(8) 0.6732(2)
H53_3 H 0.197684 0.128031 0.672623
C47_3 C 0.1704(10) 0.2568(8) 0.6591(2)
C48_3 C 0.0934(10) 0.3306(9) 0.6607(2)
H54_3 H 0.111413 0.385821 0.651364
N8_2 N 0.2043(8) 0.2771(7) 0.47010(18)
H59_2 H 0.126433 0.264472 0.468482
N9_3 N 0.3116(9) 0.3521(8) 0.5209(2)
N10_3 N 0.4679(8) 0.3494(7) 0.58848(19)
N11_3 N 0.2837(8) 0.2582(6) 0.64416(18)
H60_3 H 0.330045 0.209801 0.645749
N12_3 N 0.0397(8) 0.1686(6) 0.6874(2)
O5_2 O 0.3613(7) 0.3669(6) 0.45615(17)
O6_3 O 0.4578(7) 0.2486(7) 0.51570(17)
O8_3 O 0.2765(8) 0.3984(6) 0.62339(18)
C1_3 C 0.4665(9) 0.1682(7) 0.2187(2)
H1_3 H 0.396845 0.159055 0.207351
C2_3 C 0.4904(9) 0.2562(7) 0.2298(2)
C3_3 C 0.5938(9) 0.2673(7) 0.2466(2)
H2_3 H 0.612501 0.324908 0.254385
C4_3 C 0.6685(10) 0.1932(7) 0.2519(2)
H3_3 H 0.739178 0.199118 0.263096
C5_3 C 0.6376(10) 0.1121(9) 0.2405(2)
H4_3 H 0.688385 0.061596 0.244370
C6_3 C 0.4078(10) 0.3350(7) 0.2262(2)
C7_3 C 0.2303(10) 0.4024(7) 0.2023(2)
C8_3 C 0.1360(12) 0.3702(8) 0.1806(3)
H5_3 H 0.077234 0.418846 0.177168
H6_3 H 0.177347 0.354549 0.163205
H7_3 H 0.093363 0.316697 0.187831
C9_3 C 0.2938(12) 0.4866(8) 0.1903(3)
H8_2 H 0.233878 0.534793 0.187342
H9_2 H 0.356120 0.507571 0.203358
H10_3 H 0.332013 0.471057 0.172429
C10_3 C 0.1630(10) 0.4281(7) 0.2296(2)
C11_3 C 0.1276(11) 0.2642(7) 0.2451(3)
H11_3 H 0.201246 0.238652 0.254007
H12_3 H 0.123451 0.243912 0.225497
C12_3 C 0.0139(12) 0.2387(8) 0.2610(3)
H13_3 H 0.017199 0.175013 0.267494
C13_3 C 0.0163(12) 0.3047(8) 0.2856(3)
H16_3 H 0.069096 0.281687 0.300699
C14_3 C 0.0675(10) 0.3917(8) 0.2733(2)
H17_3 H 0.001025 0.436466 0.269670
C15_3 C 0.1648(10) 0.4327(7) 0.2927(2)
C16_2 C 0.0413(11) 0.5738(8) 0.3015(3)
H19_2 H 0.033559 0.587041 0.281297
C17_2 C 0.0833(12) 0.6558(8) 0.3175(3)
H20_2 H 0.013085 0.692941 0.323517
H21_2 H 0.137740 0.693780 0.305939
C18_2 C 0.1511(12) 0.6177(8) 0.3426(3)
H22_2 H 0.094359 0.595359 0.357110
H23_2 H 0.206454 0.663232 0.350912
C19_2 C 0.2215(10) 0.5397(8) 0.3290(2)
H24_2 H 0.298984 0.563120 0.320854
C20_3 C 0.2492(9) 0.4607(8) 0.3496(2)
C21_3 C 0.5291(10) 0.4172(9) 0.3891(3)
H25_3 H 0.560065 0.476717 0.386485
C22_3 C 0.4199(9) 0.3960(8) 0.3768(2)
C23_3 C 0.3737(11) 0.3102(8) 0.3810(2)
H26_3 H 0.298725 0.292253 0.372898
C24_3 C 0.4408(11) 0.2505(9) 0.3976(3)
H27_3 H 0.410923 0.191243 0.401239
C25_3 C 0.5504(11) 0.2777(9) 0.4086(2)
H28_3 H 0.595826 0.236073 0.419519
H32_2 H 0.955189 0.555419 0.400794
C49_3 C 0.9881(11) 0.3206(7) 0.6766(3)
H55_3 H 0.933068 0.369832 0.678528
C50_3 C 0.9645(10) 0.2397(8) 0.6894(2)
H56_3 H 0.892177 0.233642 0.700088
N1_2 N 0.5407(8) 0.0983(6) 0.22407(18)
N2_3 N 0.3163(8) 0.3285(6) 0.20697(19)
H57_3 H 0.309058 0.278332 0.197168
N3_3 N 0.1249(8) 0.3641(6) 0.24727(19)
N4_2 N 0.1418(8) 0.5087(6) 0.3070(2)
N5_3 N 0.3667(8) 0.4614(7) 0.35936(17)
H58_2 H 0.412899 0.507131 0.354154
N6_3 N 0.5942(8) 0.3600(7) 0.4044(2)
N7_3 N 0.9660(9) 0.4368(7) 0.4205(2)
O2_2 O 0.1417(7) 0.5094(5) 0.23433(16)
O3_3 O 0.2607(7) 0.3911(5) 0.29641(17)
O4_3 O 0.1725(7) 0.4080(6) 0.35681(17)
O9_2 O 0.587(5) 0.685(2) 0.4715(10)
H61_2 H 0.549267 0.694712 0.456485
C51_2 C 0.466(5) 0.571(3) 0.4890(10)
H62_2 H 0.457000 0.506933 0.493745
H63_2 H 0.455710 0.608062 0.505865
H64_2 H 0.404523 0.588304 0.475233
O10_2 O 0.697(2) 0.560(2) 0.4328(7)
H65_2 H 0.759392 0.558276 0.442930
C52_2 C 0.591(4) 0.587(2) 0.4771(8)
H66_2 H 0.658615 0.568502 0.489704
C53_2 C 0.589(3) 0.539(2) 0.4499(7)
H67_3 H 0.586010 0.472381 0.453356
H68_2 H 0.515113 0.555718 0.439457
N13_2 N 0.9593(8) 0.9017(6) 0.72407(18)
C1_4 C 0.0335(9) 0.8318(7) 0.7187(2)
H1_4 H 0.103155 0.840945 0.707351
C2_4 C 0.0096(9) 0.7438(7) 0.7298(2)
C6_4 C 0.0922(10) 0.6650(7) 0.7262(2)
C7_4 C 0.2697(10) 0.5976(7) 0.7023(2)
C8_4 C 0.3640(12) 0.6298(8) 0.6806(3)
H5_4 H 0.422766 0.581154 0.677168
H6_4 H 0.322653 0.645451 0.663205
H7_4 H 0.406637 0.683303 0.687831
C9_4 C 0.2062(12) 0.5134(8) 0.6903(3)
H8_3 H 0.266122 0.465207 0.687342
H9_3 H 0.143880 0.492429 0.703358
H10_4 H 0.167987 0.528943 0.672429
C10_4 C 0.3370(10) 0.5719(7) 0.7296(2)
C11_4 C 0.3724(11) 0.7358(7) 0.7451(3)
H11_4 H 0.298754 0.761348 0.754007
H12_4 H 0.376549 0.756088 0.725497
C12_4 C 0.4861(12) 0.7613(8) 0.7610(3)
H13_4 H 0.482801 0.824987 0.767494
H14_3 H 0.559751 0.752541 0.749484
C13_4 C 0.4837(12) 0.6953(8) 0.7856(3)
H15_3 H 0.566452 0.685363 0.793037
H16_4 H 0.430904 0.718313 0.800699
C14_4 C 0.4325(10) 0.6083(8) 0.7733(2)
H17_4 H 0.498975 0.563534 0.769670
C15_4 C 0.3352(10) 0.5673(7) 0.7927(2)
C16_3 C 0.4587(11) 0.4262(8) 0.8015(3)
H18_2 H 0.537268 0.449261 0.808596
H19_3 H 0.466441 0.412959 0.781297
C17_3 C 0.4167(12) 0.3442(8) 0.8175(3)
H20_3 H 0.486915 0.307059 0.823517
H21_3 H 0.362260 0.306220 0.805939
C18_3 C 0.3489(12) 0.3823(8) 0.8426(3)
H22_3 H 0.405641 0.404641 0.857110
H23_3 H 0.293546 0.336768 0.850912
C19_3 C 0.2785(10) 0.4603(8) 0.8290(2)
H24_3 H 0.201016 0.436880 0.820854
C20_4 C 0.2508(9) 0.5393(8) 0.8496(2)
C22_4 C 0.0801(9) 0.6040(8) 0.8768(2)
C23_4 C 0.1263(11) 0.6898(8) 0.8810(2)
H26_4 H 0.201275 0.707747 0.872898
C24_4 C 0.0592(11) 0.7495(9) 0.8976(3)
H27_4 H 0.089077 0.808757 0.901239
N2_4 N 0.1837(8) 0.6715(6) 0.70697(19)
H57_4 H 0.190942 0.721668 0.697168
N3_4 N 0.3751(8) 0.6359(6) 0.74727(19)
N4_3 N 0.3582(8) 0.4913(6) 0.8070(2)
N5_4 N 0.1333(8) 0.5386(7) 0.85936(17)
H58_3 H 0.087101 0.492869 0.854154
O2_3 O 0.3583(7) 0.4906(5) 0.73433(16)
O3_4 O 0.2393(7) 0.6089(5) 0.79641(17)
O4_4 O 0.3275(7) 0.5920(6) 0.85681(17)
C51_3 C 0.034(5) 0.429(3) 0.9890(10)
H62_3 H 0.043000 0.493067 0.993745
H64_3 H 0.095477 0.411696 0.975233
C34_4 C 0.3013(11) 0.8410(10) 0.0061(3)
H36_4 H 0.250593 0.877966 0.018475
H37_4 H 0.357439 0.804437 0.017286
C35_4 C 0.1449(11) 0.7239(8) 0.0085(2)
C36_4 C 0.3104(11) 0.6043(10) 0.0183(2)
H39_4 H 0.375579 0.650570 0.017700
H40_4 H 0.315211 0.566435 0.001335
C37_4 C 0.3212(14) 0.5469(13) 0.0441(3)
H41_4 H 0.355975 0.581965 0.059827
H42_2 H 0.372193 0.492734 0.040716
C38_4 C 0.1897(15) 0.5204(11) 0.0500(3)
H43_2 H 0.164948 0.468677 0.038082
H44_4 H 0.179180 0.503064 0.069766
C39_4 C 0.1154(12) 0.6037(10) 0.0432(3)
H45_4 H 0.031143 0.588434 0.036962
C40_4 C 0.1170(11) 0.6677(9) 0.0684(2)
C44_4 C 0.0446(11) 0.6954(9) 0.1167(2)
H52_4 H 0.032242 0.762388 0.115136
C45_4 C 0.1734(11) 0.6736(9) 0.1279(2)
C46_4 C 0.3578(10) 0.8227(8) 0.1732(2)
H53_4 H 0.302316 0.871969 0.172623
C47_4 C 0.3296(10) 0.7432(8) 0.1591(2)
C48_4 C 0.4066(10) 0.6694(9) 0.1607(2)
H54_4 H 0.388587 0.614179 0.151364
C49_4 C 0.5119(11) 0.6794(7) 0.1766(3)
H55_4 H 0.566932 0.630168 0.178528
C50_4 C 0.5355(10) 0.7603(8) 0.1894(2)
H56_4 H 0.607823 0.766358 0.200088
N9_4 N 0.1884(9) 0.6479(8) 0.0209(2)
N10_4 N 0.0321(8) 0.6506(7) 0.08848(19)
N11_4 N 0.2163(8) 0.7418(6) 0.14416(18)
H60_4 H 0.169955 0.790199 0.145749
N12_4 N 0.4603(8) 0.8314(6) 0.1874(2)
O6_4 O 0.0422(7) 0.7514(7) 0.01570(17)
O8_4 O 0.2235(8) 0.6016(6) 0.12339(18)
C3_4 C 0.9062(9) 0.7327(7) 0.7466(2)
H2_4 H 0.887499 0.675092 0.754385
C4_4 C 0.8315(10) 0.8068(7) 0.7519(2)
H3_4 H 0.760822 0.800882 0.763096
C5_4 C 0.8624(10) 0.8879(9) 0.7405(2)
H4_4 H 0.811615 0.938404 0.744370
C21_4 C 0.9709(10) 0.5828(9) 0.8891(3)
H25_4 H 0.939935 0.523283 0.886485
C25_4 C 0.9496(11) 0.7223(9) 0.9086(2)
H28_4 H 0.904174 0.763927 0.919519
C26_3 C 0.4561(10) 0.6154(9) 0.9351(2)
H29_3 H 0.486095 0.670029 0.943006
C27_3 C 0.3353(10) 0.5943(8) 0.9391(2)
C28_3 C 0.2936(13) 0.5159(10) 0.9288(2)
H30_2 H 0.210954 0.499446 0.931532
C29_2 C 0.3695(13) 0.4588(11) 0.9141(3)
H31_2 H 0.339863 0.403408 0.906610
C30_2 C 0.4913(13) 0.4841(8) 0.9105(3)
H32_3 H 0.544811 0.444581 0.900794
C31_3 C 0.2492(10) 0.6533(9) 0.9555(2)
C32_3 C 0.2202(11) 0.7783(9) 0.9887(2)
C33_3 C 0.1349(11) 0.8387(10) 0.9709(3)
H33_3 H 0.084252 0.875821 0.983191
H34_3 H 0.183769 0.878247 0.958876
H35_3 H 0.082842 0.800111 0.959284
H38_3 H 0.347823 0.880814 0.993682
N6_4 N 0.9058(8) 0.6400(7) 0.9044(2)
N7_4 N 0.5340(9) 0.5632(7) 0.9205(2)
N8_3 N 0.2957(8) 0.7229(7) 0.97010(18)
H59_3 H 0.373567 0.735528 0.968482
O5_3 O 0.1387(7) 0.6331(6) 0.95615(17)
O9_3 O 0.913(5) 0.315(2) 0.9715(10)
H61_3 H 0.950733 0.305288 0.956485
O10_3 O 0.803(2) 0.440(2) 0.9328(7)
H65_3 H 0.740608 0.441724 0.942930
C52_3 C 0.909(4) 0.413(2) 0.9771(8)
H66_3 H 0.841385 0.431498 0.989704
C53_3 C 0.911(3) 0.461(2) 0.9499(7)
H67_4 H 0.913990 0.527619 0.953356
H68_3 H 0.984887 0.444282 0.939457
H30_3 H 0.710954 0.000554 0.068468
C29_3 C 0.8695(13) 0.0412(11) 0.0859(3)
H31_3 H 0.839863 0.096592 0.093390
C30_3 C 0.9913(13) 0.0159(8) 0.0895(3)
H42_3 H 0.872193 0.007266 0.959284
H43_3 H 0.664948 0.031323 0.961918
C26_4 C 0.9561(10) 0.8846(9) 0.0649(2)
H29_4 H 0.986095 0.829971 0.056994
C27_4 C 0.8353(10) 0.9057(8) 0.0609(2)
C28_4 C 0.7936(13) 0.9841(10) 0.0712(2)
C31_4 C 0.7492(10) 0.8467(9) 0.0445(2)
C32_4 C 0.7202(11) 0.7217(9) 0.0113(2)
C33_4 C 0.6349(11) 0.6613(10) 0.0291(3)
H33_4 H 0.584252 0.624179 0.016809
H34_4 H 0.683769 0.621753 0.041124
H35_4 H 0.582842 0.699889 0.040716
H38_4 H 0.847823 0.619186 0.006318
N8_4 N 0.7957(8) 0.7771(7) 0.02990(18)
H59_4 H 0.873567 0.764472 0.031518
O5_4 O 0.6387(7) 0.8669(6) 0.04385(17)
C41_3 C 0.0655(11) 0.0811(9) 0.4114(3)
H46_3 H 0.033228 0.019709 0.407562
H47_3 H 0.111362 0.080510 0.429164
C42_3 C 0.1432(15) 0.1170(16) 0.3871(3)
H48_3 H 0.192332 0.067538 0.378854
H49_3 H 0.198434 0.165620 0.393539
C43_3 C 0.0550(12) 0.1527(12) 0.3665(3)
H50_3 H 0.022466 0.103032 0.354758
H51_3 H 0.094009 0.198239 0.354236
H30_4 H 0.789046 0.999446 0.568468
C29_4 C 0.6305(13) 0.9588(11) 0.5859(3)
H31_4 H 0.660137 0.903408 0.593390
C30_4 C 0.5087(13) 0.9841(8) 0.5895(3)
H32_4 H 0.455189 0.944581 0.599206
H42_4 H 0.627807 0.992734 0.459284
H43_4 H 0.835052 0.968677 0.461918
O9_4 O 0.087(5) 0.815(2) 0.5285(10)
H61_4 H 0.049267 0.805288 0.543515
O10_4 O 0.197(2) 0.940(2) 0.5672(7)
H65_4 H 0.259392 0.941724 0.557070
C52_4 C 0.091(4) 0.913(2) 0.5229(8)
H66_4 H 0.158615 0.931498 0.510296
C53_4 C 0.089(3) 0.961(2) 0.5501(7)
H68_4 H 0.015113 0.944282 0.560543
H8_4 H 0.733878 0.965207 0.812658
H9_4 H 0.856120 0.992429 0.796642
C16_4 C 0.5413(11) 0.9262(8) 0.6985(3)
H18_3 H 0.462732 0.949261 0.691404
H19_4 H 0.533559 0.912959 0.718703
C17_4 C 0.5833(12) 0.8442(8) 0.6825(3)
H20_4 H 0.513085 0.807059 0.676483
H21_4 H 0.637740 0.806220 0.694061
C18_4 C 0.6511(12) 0.8823(8) 0.6574(3)
H22_4 H 0.594359 0.904641 0.642890
H23_4 H 0.706454 0.836768 0.649088
C19_4 C 0.7215(10) 0.9603(8) 0.6710(2)
H24_4 H 0.798984 0.936880 0.679146
N4_4 N 0.6418(8) 0.9913(6) 0.6930(2)
H58_4 H 0.912899 0.992869 0.645846
O2_4 O 0.6417(7) 0.9906(5) 0.76567(16)
C51_4 C 0.966(5) 0.929(3) 0.5110(10)
H62_4 H 0.957000 0.993067 0.506255
H63_3 H 0.955710 0.891938 0.494135
H64_4 H 0.904523 0.911696 0.524767
H14_4 H 0.940249 0.247459 0.249484
H15_4 H 0.933548 0.314637 0.293037
H18_4 H 0.962732 0.550739 0.308596
H63_4 H 0.044290 0.391938 0.005865
C41_4 C 0.9345(11) 0.5811(9) 0.0886(3)
H46_4 H 0.966772 0.519709 0.092438
H47_4 H 0.888638 0.580510 0.070836
C42_4 C 0.8568(15) 0.6170(16) 0.1129(3)
H48_4 H 0.807668 0.567538 0.121146
H49_4 H 0.801566 0.665620 0.106461
C43_4 C 0.9450(12) 0.6527(12) 0.1335(3)
H50_4 H 0.977534 0.603032 0.145242
H51_4 H 0.905991 0.698239 0.145764
P1 P 0.7065(3) 0.6077(2) 0.34969(7)
F1 F 0.7519(6) 0.5814(6) 0.31720(15)
F2 F 0.6664(8) 0.7108(5) 0.33880(16)
F3 F 0.6581(8) 0.6329(5) 0.38236(15)
F4 F 0.8468(8) 0.6440(7) 0.35770(17)
F5 F 0.5676(6) 0.5705(5) 0.34178(16)
F6 F 0.7445(7) 0.5038(5) 0.36130(17)
P1_2 P 0.7935(3) 0.3923(2) 0.84969(7)
F1_2 F 0.7481(6) 0.4186(6) 0.81720(15)
F2_2 F 0.8336(8) 0.2892(5) 0.83880(16)
F3_2 F 0.8419(8) 0.3671(5) 0.88236(15)
F4_2 F 0.6532(8) 0.3560(7) 0.85770(17)
F5_2 F 0.9324(6) 0.4295(5) 0.84178(16)
F6_2 F 0.7555(7) 0.4962(5) 0.86130(17)
P1_3 P 0.2935(3) 0.1077(2) 0.15031(7)
F1_3 F 0.2481(6) 0.0814(6) 0.18280(15)
F2_3 F 0.3336(8) 0.2108(5) 0.16120(16)
F3_3 F 0.3419(8) 0.1329(5) 0.11764(15)
F4_3 F 0.1532(8) 0.1440(7) 0.14230(17)
F5_3 F 0.4324(6) 0.0705(5) 0.15822(16)
F6_3 F 0.2555(7) 0.0038(5) 0.13870(17)
P1_4 P 0.2065(3) 0.8923(2) 0.65031(7)
F1_4 F 0.2519(6) 0.9186(6) 0.68280(15)
F2_4 F 0.1664(8) 0.7892(5) 0.66120(16)
F3_4 F 0.1581(8) 0.8671(5) 0.61764(15)
F4_4 F 0.3468(8) 0.8560(7) 0.64230(17)
F5_4 F 0.0676(6) 0.9295(5) 0.65822(16)
F6_4 F 0.2445(7) 0.9962(5) 0.63870(17)
O13 O 0.5735(7) 0.6045(6) 0.84632(18)
H69 H 0.663732 0.6045 0.84632
O13_2 O 0.9265(7) 0.3955(6) 0.34632(18)
H69_2 H 0.836268 0.3955 0.34632
O13_3 O 0.4265(7) 0.1045(6) 0.65368(18)
H69_3 H 0.336268 0.1045 0.65368
O13_4 O 0.0735(7) 0.8955(6) 0.15368(18)
H69_4 H 0.163732 0.8955 0.15368
loop_
_geom_bond_atom_site_label_1
_geom_bond_atom_site_label_2
_geom_bond_site_symmetry_1
_geom_bond_site_symmetry_2
H19 C16 1_555 1_555
C17 C16 1_555 1_555
H20 C17 1_555 1_555
H21 C17 1_555 1_555
C18 C17 1_555 1_555
H22 C18 1_555 1_555
H23 C18 1_555 1_555
C19 C18 1_555 1_555
H24 C19 1_555 1_555
O9 H61 1_555 1_555
C51 H62 1_555 1_555
H64 C51 1_555 1_555
H65 O10 1_555 1_555
C52 O9 1_555 1_555
H66 C52 1_555 1_555
C53 O10 1_555 1_555
H68 C53 1_555 1_555
C16 N4 1_555 1_555
C19 N4 1_555 1_555
C51 C52 1_555 1_555
C52 C53 1_555 1_555
Ag2 N6 1_555 1_555
C1 H1 1_555 1_555
C2 C1 1_555 1_555
C3 C2 1_555 1_555
H2 C3 1_555 1_555
C4 C3 1_555 1_555
H3 C4 1_555 1_555
C5 C4 1_555 1_555
H4 C5 1_555 1_555
C6 C2 1_555 1_555
C7 C8 1_555 1_555
C8 H5 1_555 1_555
H6 C8 1_555 1_555
H7 C8 1_555 1_555
C9 C7 1_555 1_555
H10 C9 1_555 1_555
C10 C7 1_555 1_555
C11 H11 1_555 1_555
H12 C11 1_555 1_555
C12 C11 1_555 1_555
H13 C12 1_555 1_555
C13 C12 1_555 1_555
H16 C13 1_555 1_555
C14 C13 1_555 1_555
H17 C14 1_555 1_555
C15 C14 1_555 1_555
C21 H25 1_555 1_555
C22 C21 1_555 1_555
C23 C22 1_555 1_555
H26 C23 1_555 1_555
C24 C23 1_555 1_555
H27 C24 1_555 1_555
C25 C24 1_555 1_555
H28 C25 1_555 1_555
N1 C1 1_555 1_555
N2 C6 1_555 1_555
H57 N2 1_555 1_555
N3 C10 1_555 1_555
N5 C20 1_555 1_555
N6 C21 1_555 1_555
N7 Ag2 1_555 1_555
O1 C6 1_555 1_555
O3 C15 1_555 1_555
O4 C20 1_555 1_555
Ag3 N1 1_555 1_555
Ag4 O1 1_555 1_555
O12 Ag2 1_555 1_555
C5 N1 1_555 1_555
C7 N2 1_555 1_555
C11 N3 1_555 1_555
C14 N3 1_555 1_555
C22 N5 1_555 1_555
C25 N6 1_555 1_555
H55 C49 1_555 1_555
C50 C49 1_555 1_555
H56 C50 1_555 1_555
N13 Ag1 1_555 1_555
O11 Ag1 1_555 1_555
H36 C34 1_555 1_555
H37 C34 1_555 1_555
C36 H39 1_555 1_555
H40 C36 1_555 1_555
C37 C36 1_555 1_555
H41 C37 1_555 1_555
C38 C37 1_555 1_555
H44 C38 1_555 1_555
C39 C38 1_555 1_555
H45 C39 1_555 1_555
C40 C39 1_555 1_555
C41 H46 1_555 1_555
H47 C41 1_555 1_555
C42 C41 1_555 1_555
H48 C42 1_555 1_555
H49 C42 1_555 1_555
C43 C42 1_555 1_555
H50 C43 1_555 1_555
H51 C43 1_555 1_555
C44 C43 1_555 1_555
H52 C44 1_555 1_555
C45 C44 1_555 1_555
C46 H53 1_555 1_555
C47 C46 1_555 1_555
C48 C47 1_555 1_555
H54 C48 1_555 1_555
N9 C35 1_555 1_555
N10 C40 1_555 1_555
N11 C45 1_555 1_555
H60 N11 1_555 1_555
N12 C46 1_555 1_555
O6 C35 1_555 1_555
O7 C40 1_555 1_555
O8 C45 1_555 1_555
Ag5 O7 1_555 1_555
C36 N9 1_555 1_555
C39 N9 1_555 1_555
C41 N10 1_555 1_555
C44 N10 1_555 1_555
C47 N11 1_555 1_555
Ag3 N12_2 1_555 1_555
Ag2_2 N6_2 1_555 1_555
H2_2 C3_2 1_555 1_555
C4_2 C3_2 1_555 1_555
H3_2 C4_2 1_555 1_555
C5_2 C4_2 1_555 1_555
H4_2 C5_2 1_555 1_555
C21_2 H25_2 1_555 1_555
H28_2 C25_2 1_555 1_555
C26 H29 1_555 1_555
C27 C26 1_555 1_555
C28 C27 1_555 1_555
C31 C27 1_555 1_555
C32 C33 1_555 1_555
C33 H33 1_555 1_555
H34 C33 1_555 1_555
H35 C33 1_555 1_555
C34_2 C32 1_555 1_555
H36_2 C34_2 1_555 1_555
H37_2 C34_2 1_555 1_555
H38 C34_2 1_555 1_555
C35_2 C32 1_555 1_555
C36_2 H39_2 1_555 1_555
H40_2 C36_2 1_555 1_555
C37_2 C36_2 1_555 1_555
H41_2 C37_2 1_555 1_555
C38_2 C37_2 1_555 1_555
H44_2 C38_2 1_555 1_555
C39_2 C38_2 1_555 1_555
H45_2 C39_2 1_555 1_555
C40_2 C39_2 1_555 1_555
H52_2 C44_2 1_555 1_555
C45_2 C44_2 1_555 1_555
C46_2 H53_2 1_555 1_555
C47_2 C46_2 1_555 1_555
C48_2 C47_2 1_555 1_555
H54_2 C48_2 1_555 1_555
C49_2 C48_2 1_555 1_555
H55_2 C49_2 1_555 1_555
C50_2 C49_2 1_555 1_555
H56_2 C50_2 1_555 1_555
N6_2 C21_2 1_555 1_555
N7_2 Ag2_2 1_555 1_555
N8 C31 1_555 1_555
H59 N8 1_555 1_555
N9_2 C35_2 1_555 1_555
N10_2 C40_2 1_555 1_555
N11_2 C45_2 1_555 1_555
H60_2 N11_2 1_555 1_555
N12_2 C46_2 1_555 1_555
O5 C31 1_555 1_555
O6_2 C35_2 1_555 1_555
O7_2 C40_2 1_555 1_555
O8_2 C45_2 1_555 1_555
Ag5_2 O7_2 1_555 1_555
O11_2 Ag3 1_555 1_555
O12_2 Ag2_2 1_555 1_555
C5_2 N13 1_555 1_555
C25_2 N6_2 1_555 1_555
C26 N7_2 1_555 1_555
C32 N8 1_555 1_555
C36_2 N9_2 1_555 1_555
C39_2 N9_2 1_555 1_555
C44_2 N10_2 1_555 1_555
C47_2 N11_2 1_555 1_555
C50_2 N12_2 1_555 1_555
C1_2 H1_2 1_555 1_555
C2_2 C1_2 1_555 1_555
C6_2 C2_2 1_555 1_555
C7_2 C8_2 1_555 1_555
C8_2 H5_2 1_555 1_555
H6_2 C8_2 1_555 1_555
H7_2 C8_2 1_555 1_555
C9_2 C7_2 1_555 1_555
H10_2 C9_2 1_555 1_555
C10_2 C7_2 1_555 1_555
C11_2 H11_2 1_555 1_555
H12_2 C11_2 1_555 1_555
C12_2 C11_2 1_555 1_555
H13_2 C12_2 1_555 1_555
H14_2 C12_2 1_555 1_555
C13_2 C12_2 1_555 1_555
H15_2 C13_2 1_555 1_555
H16_2 C13_2 1_555 1_555
C14_2 C13_2 1_555 1_555
H17_2 C14_2 1_555 1_555
C15_2 C14_2 1_555 1_555
C23_2 C22_2 1_555 1_555
H26_2 C23_2 1_555 1_555
C24_2 C23_2 1_555 1_555
H27_2 C24_2 1_555 1_555
N2_2 C6_2 1_555 1_555
H57_2 N2_2 1_555 1_555
N3_2 C10_2 1_555 1_555
N5_2 C20_2 1_555 1_555
O1_2 C6_2 1_555 1_555
O3_2 C15_2 1_555 1_555
O4_2 C20_2 1_555 1_555
Ag4_2 O1_2 1_555 1_555
C7_2 N2_2 1_555 1_555
C11_2 N3_2 1_555 1_555
C14_2 N3_2 1_555 1_555
C22_2 N5_2 1_555 1_555
C26_2 H29_2 1_555 1_555
C27_2 C26_2 1_555 1_555
C28_2 C27_2 1_555 1_555
H30 C28_2 1_555 1_555
C29 C28_2 1_555 1_555
H31 C29 1_555 1_555
C30 C29 1_555 1_555
C31_2 C27_2 1_555 1_555
C32_2 C33_2 1_555 1_555
C33_2 H33_2 1_555 1_555
H34_2 C33_2 1_555 1_555
H35_2 C33_2 1_555 1_555
C34_3 C32_2 1_555 1_555
H36_3 C34_3 1_555 1_555
H37_3 C34_3 1_555 1_555
H38_2 C34_3 1_555 1_555
C35_3 C32_2 1_555 1_555
C36_3 H39_3 1_555 1_555
H40_3 C36_3 1_555 1_555
C37_3 C36_3 1_555 1_555
H41_3 C37_3 1_555 1_555
H42 C37_3 1_555 1_555
C38_3 C37_3 1_555 1_555
H43 C38_3 1_555 1_555
H44_3 C38_3 1_555 1_555
C39_3 C38_3 1_555 1_555
H45_3 C39_3 1_555 1_555
C40_3 C39_3 1_555 1_555
C41_2 H46_2 1_555 1_555
H47_2 C41_2 1_555 1_555
C42_2 C41_2 1_555 1_555
H48_2 C42_2 1_555 1_555
H49_2 C42_2 1_555 1_555
C43_2 C42_2 1_555 1_555
H50_2 C43_2 1_555 1_555
H51_2 C43_2 1_555 1_555
C44_3 C43_2 1_555 1_555
H52_3 C44_3 1_555 1_555
C45_3 C44_3 1_555 1_555
C46_3 H53_3 1_555 1_555
C47_3 C46_3 1_555 1_555
C48_3 C47_3 1_555 1_555
H54_3 C48_3 1_555 1_555
N8_2 C31_2 1_555 1_555
H59_2 N8_2 1_555 1_555
N9_3 C35_3 1_555 1_555
N10_3 C40_3 1_555 1_555
N11_3 C45_3 1_555 1_555
H60_3 N11_3 1_555 1_555
N12_3 C46_3 1_555 1_555
O5_2 C31_2 1_555 1_555
O6_3 C35_3 1_555 1_555
O12_2 C40_3 1_555 1_555
O8_3 C45_3 1_555 1_555
C32_2 N8_2 1_555 1_555
C36_3 N9_3 1_555 1_555
C39_3 N9_3 1_555 1_555
C41_2 N10_3 1_555 1_555
C44_3 N10_3 1_555 1_555
C47_3 N11_3 1_555 1_555
Ag5_2 N6_3 1_555 1_555
C1_3 H1_3 1_555 1_555
C2_3 C1_3 1_555 1_555
C3_3 C2_3 1_555 1_555
H2_3 C3_3 1_555 1_555
C4_3 C3_3 1_555 1_555
H3_3 C4_3 1_555 1_555
C5_3 C4_3 1_555 1_555
H4_3 C5_3 1_555 1_555
C6_3 C2_3 1_555 1_555
C7_3 C8_3 1_555 1_555
C8_3 H5_3 1_555 1_555
H6_3 C8_3 1_555 1_555
H7_3 C8_3 1_555 1_555
C9_3 C7_3 1_555 1_555
H8_2 C9_3 1_555 1_555
H9_2 C9_3 1_555 1_555
H10_3 C9_3 1_555 1_555
C10_3 C7_3 1_555 1_555
C11_3 H11_3 1_555 1_555
H12_3 C11_3 1_555 1_555
C12_3 C11_3 1_555 1_555
H13_3 C12_3 1_555 1_555
C13_3 C12_3 1_555 1_555
H16_3 C13_3 1_555 1_555
C14_3 C13_3 1_555 1_555
H17_3 C14_3 1_555 1_555
C15_3 C14_3 1_555 1_555
H19_2 C16_2 1_555 1_555
C17_2 C16_2 1_555 1_555
H20_2 C17_2 1_555 1_555
H21_2 C17_2 1_555 1_555
C18_2 C17_2 1_555 1_555
H22_2 C18_2 1_555 1_555
H23_2 C18_2 1_555 1_555
C19_2 C18_2 1_555 1_555
H24_2 C19_2 1_555 1_555
C20_3 C19_2 1_555 1_555
C21_3 H25_3 1_555 1_555
C22_3 C21_3 1_555 1_555
C23_3 C22_3 1_555 1_555
H26_3 C23_3 1_555 1_555
C24_3 C23_3 1_555 1_555
H27_3 C24_3 1_555 1_555
C25_3 C24_3 1_555 1_555
H28_3 C25_3 1_555 1_555
H55_3 C49_3 1_555 1_555
C50_3 C49_3 1_555 1_555
H56_3 C50_3 1_555 1_555
N1_2 C1_3 1_555 1_555
N2_3 C6_3 1_555 1_555
H57_3 N2_3 1_555 1_555
N3_3 C10_3 1_555 1_555
N4_2 C15_3 1_555 1_555
N5_3 C20_3 1_555 1_555
H58_2 N5_3 1_555 1_555
N6_3 C21_3 1_555 1_555
N7_3 Ag5_2 1_555 1_555
O11_2 C6_3 1_555 1_555
O2_2 C10_3 1_555 1_555
O3_3 C15_3 1_555 1_555
O4_3 C20_3 1_555 1_555
O9_2 H61_2 1_555 1_555
C51_2 H62_2 1_555 1_555
H63_2 C51_2 1_555 1_555
H64_2 C51_2 1_555 1_555
O10_2 Ag5_2 1_555 1_555
H65_2 O10_2 1_555 1_555
C52_2 O9_2 1_555 1_555
H66_2 C52_2 1_555 1_555
C53_2 O10_2 1_555 1_555
H67_3 C53_2 1_555 1_555
H68_2 C53_2 1_555 1_555
C5_3 N1_2 1_555 1_555
C7_3 N2_3 1_555 1_555
C11_3 N3_3 1_555 1_555
C14_3 N3_3 1_555 1_555
C16_2 N4_2 1_555 1_555
C19_2 N4_2 1_555 1_555
C22_3 N5_3 1_555 1_555
C25_3 N6_3 1_555 1_555
C51_2 C52_2 1_555 1_555
C52_2 C53_2 1_555 1_555
C1_4 H1_4 1_555 1_555
C2_4 C1_4 1_555 1_555
C6_4 C2_4 1_555 1_555
C7_4 C8_4 1_555 1_555
C8_4 H5_4 1_555 1_555
H6_4 C8_4 1_555 1_555
H7_4 C8_4 1_555 1_555
C9_4 C7_4 1_555 1_555
H8_3 C9_4 1_555 1_555
H9_3 C9_4 1_555 1_555
H10_4 C9_4 1_555 1_555
C10_4 C7_4 1_555 1_555
C11_4 H11_4 1_555 1_555
H12_4 C11_4 1_555 1_555
C12_4 C11_4 1_555 1_555
H13_4 C12_4 1_555 1_555
H14_3 C12_4 1_555 1_555
C13_4 C12_4 1_555 1_555
H15_3 C13_4 1_555 1_555
H16_4 C13_4 1_555 1_555
C14_4 C13_4 1_555 1_555
H17_4 C14_4 1_555 1_555
C15_4 C14_4 1_555 1_555
C16_3 H18_2 1_555 1_555
H19_3 C16_3 1_555 1_555
C17_3 C16_3 1_555 1_555
H20_3 C17_3 1_555 1_555
H21_3 C17_3 1_555 1_555
C18_3 C17_3 1_555 1_555
H22_3 C18_3 1_555 1_555
H23_3 C18_3 1_555 1_555
C19_3 C18_3 1_555 1_555
H24_3 C19_3 1_555 1_555
C20_4 C19_3 1_555 1_555
C23_4 C22_4 1_555 1_555
H26_4 C23_4 1_555 1_555
C24_4 C23_4 1_555 1_555
H27_4 C24_4 1_555 1_555
N2_4 C6_4 1_555 1_555
H57_4 N2_4 1_555 1_555
N3_4 C10_4 1_555 1_555
N4_3 C15_4 1_555 1_555
N5_4 C20_4 1_555 1_555
H58_3 N5_4 1_555 1_555
O11 C6_4 1_555 1_555
O2_3 C10_4 1_555 1_555
O3_4 C15_4 1_555 1_555
O4_4 C20_4 1_555 1_555
C51_3 H62_3 1_555 1_555
H64_3 C51_3 1_555 1_555
C7_4 N2_4 1_555 1_555
C11_4 N3_4 1_555 1_555
C14_4 N3_4 1_555 1_555
C16_3 N4_3 1_555 1_555
C19_3 N4_3 1_555 1_555
C22_4 N5_4 1_555 1_555
Ag4 N12_4 1_555 1_555
H36_4 C34_4 1_555 1_555
H37_4 C34_4 1_555 1_555
C36_4 H39_4 1_555 1_555
H40_4 C36_4 1_555 1_555
C37_4 C36_4 1_555 1_555
H41_4 C37_4 1_555 1_555
H42_2 C37_4 1_555 1_555
C38_4 C37_4 1_555 1_555
H43_2 C38_4 1_555 1_555
H44_4 C38_4 1_555 1_555
C39_4 C38_4 1_555 1_555
H45_4 C39_4 1_555 1_555
C40_4 C39_4 1_555 1_555
H52_4 C44_4 1_555 1_555
C45_4 C44_4 1_555 1_555
C46_4 H53_4 1_555 1_555
C47_4 C46_4 1_555 1_555
C48_4 C47_4 1_555 1_555
H54_4 C48_4 1_555 1_555
C49_4 C48_4 1_555 1_555
H55_4 C49_4 1_555 1_555
C50_4 C49_4 1_555 1_555
H56_4 C50_4 1_555 1_555
N9_4 C35_4 1_555 1_555
N10_4 C40_4 1_555 1_555
N11_4 C45_4 1_555 1_555
H60_4 N11_4 1_555 1_555
N12_4 C46_4 1_555 1_555
O6_4 C35_4 1_555 1_555
O12 C40_4 1_555 1_555
O8_4 C45_4 1_555 1_555
C36_4 N9_4 1_555 1_555
C39_4 N9_4 1_555 1_555
C44_4 N10_4 1_555 1_555
C47_4 N11_4 1_555 1_555
C50_4 N12_4 1_555 1_555
Ag5 N6_4 1_555 1_555
H2_4 C3_4 1_555 1_555
C4_4 C3_4 1_555 1_555
H3_4 C4_4 1_555 1_555
C5_4 C4_4 1_555 1_555
H4_4 C5_4 1_555 1_555
C21_4 H25_4 1_555 1_555
H28_4 C25_4 1_555 1_555
C26_3 H29_3 1_555 1_555
C27_3 C26_3 1_555 1_555
C28_3 C27_3 1_555 1_555
H30_2 C28_3 1_555 1_555
C29_2 C28_3 1_555 1_555
H31_2 C29_2 1_555 1_555
C30_2 C29_2 1_555 1_555
H32_3 C30_2 1_555 1_555
C31_3 C27_3 1_555 1_555
C32_3 C33_3 1_555 1_555
C33_3 H33_3 1_555 1_555
H34_3 C33_3 1_555 1_555
H35_3 C33_3 1_555 1_555
N6_4 C21_4 1_555 1_555
N7_4 Ag5 1_555 1_555
N8_3 C31_3 1_555 1_555
H59_3 N8_3 1_555 1_555
O5_3 C31_3 1_555 1_555
O9_3 H61_3 1_555 1_555
O10_3 Ag5 1_555 1_555
H65_3 O10_3 1_555 1_555
C52_3 O9_3 1_555 1_555
H66_3 C52_3 1_555 1_555
C53_3 O10_3 1_555 1_555
H67_4 C53_3 1_555 1_555
H68_3 C53_3 1_555 1_555
C5_4 N13_2 1_555 1_555
C25_4 N6_4 1_555 1_555
C26_3 N7_4 1_555 1_555
C30_2 N7_4 1_555 1_555
C32_3 N8_3 1_555 1_555
C52_3 C53_3 1_555 1_555
H31_3 C29_3 1_555 1_555
C30_3 C29_3 1_555 1_555
C26_4 H29_4 1_555 1_555
C27_4 C26_4 1_555 1_555
C28_4 C27_4 1_555 1_555
C31_4 C27_4 1_555 1_555
C32_4 C33_4 1_555 1_555
C33_4 H33_4 1_555 1_555
H34_4 C33_4 1_555 1_555
H35_4 C33_4 1_555 1_555
N8_4 C31_4 1_555 1_555
H59_4 N8_4 1_555 1_555
O5_4 C31_4 1_555 1_555
C32_4 N8_4 1_555 1_555
C41_3 H46_3 1_555 1_555
H47_3 C41_3 1_555 1_555
C42_3 C41_3 1_555 1_555
H48_3 C42_3 1_555 1_555
H49_3 C42_3 1_555 1_555
C43_3 C42_3 1_555 1_555
H50_3 C43_3 1_555 1_555
H51_3 C43_3 1_555 1_555
H31_4 C29_4 1_555 1_555
C30_4 C29_4 1_555 1_555
H32_4 C30_4 1_555 1_555
O9_4 H61_4 1_555 1_555
H65_4 O10_4 1_555 1_555
C52_4 O9_4 1_555 1_555
H66_4 C52_4 1_555 1_555
C53_4 O10_4 1_555 1_555
H68_4 C53_4 1_555 1_555
C52_4 C53_4 1_555 1_555
C16_4 H18_3 1_555 1_555
H19_4 C16_4 1_555 1_555
C17_4 C16_4 1_555 1_555
H20_4 C17_4 1_555 1_555
H21_4 C17_4 1_555 1_555
C18_4 C17_4 1_555 1_555
H22_4 C18_4 1_555 1_555
H23_4 C18_4 1_555 1_555
C19_4 C18_4 1_555 1_555
H24_4 C19_4 1_555 1_555
C51_4 H62_4 1_555 1_555
H63_3 C51_4 1_555 1_555
H64_4 C51_4 1_555 1_555
C16_4 N4_4 1_555 1_555
C19_4 N4_4 1_555 1_555
C41_4 H46_4 1_555 1_555
H47_4 C41_4 1_555 1_555
C42_4 C41_4 1_555 1_555
H48_4 C42_4 1_555 1_555
H49_4 C42_4 1_555 1_555
C43_4 C42_4 1_555 1_555
H50_4 C43_4 1_555 1_555
H51_4 C43_4 1_555 1_555
P1 F1 1_555 1_555
F2 P1 1_555 1_555
F3 P1 1_555 1_555
F4 P1 1_555 1_555
F5 P1 1_555 1_555
F6 P1 1_555 1_555
P1_2 F1_2 1_555 1_555
F2_2 P1_2 1_555 1_555
F3_2 P1_2 1_555 1_555
F4_2 P1_2 1_555 1_555
F5_2 P1_2 1_555 1_555
F6_2 P1_2 1_555 1_555
P1_3 F1_3 1_555 1_555
F2_3 P1_3 1_555 1_555
F3_3 P1_3 1_555 1_555
F4_3 P1_3 1_555 1_555
F5_3 P1_3 1_555 1_555
F6_3 P1_3 1_555 1_555
P1_4 F1_4 1_555 1_555
F2_4 P1_4 1_555 1_555
F3_4 P1_4 1_555 1_555
F4_4 P1_4 1_555 1_555
F5_4 P1_4 1_555 1_555
F6_4 P1_4 1_555 1_555
O13 H69 1_555 1_555
O13_2 H69_2 1_555 1_555
O13_3 H69_3 1_555 1_555
O13_4 H69_4 1_555 1_555

#END
