
###############################################################################
#
# This file contains modified crystal structure data generated from the
# MOF subset of the Cambridge Structural Database (CSD) v543 
# hosted by the Cambridge Crystallographic Data Centre (CCDC).
#
# This work is licensed under the Creative Commons
# Attribution-NonCommercial-ShareAlike 4.0 International License.
# To view a copy of this license, visit
# http://creativecommons.org/licenses/by-nc-sa/4.0/
# or send a letter to
# Creative Commons, PO Box 1866, Mountain View, CA 94042, USA.
#
# CIF created using the CSD Python API on 29 September 2022
# The structure has been converted into the P1 space group
# The structure has a 3D framework
# The original CSD entry HUWRUP is in the orthorhombic crystal system
# The original CSD entry HUWRUP is in a Sohncke space group
# The framework has been calculated to contain at least 10.0% void space
# The void calculation uses a probe of radius 1.32A, grid spacing 0.4
# The framework is charged, counterions have been retained in the structure
#
###############################################################################

data_HUWRUP
_chemical_formula_moiety         '(C200 H240 Ag8 F24 N48 O32 P4 4+)n'
_symmetry_cell_setting           triclinic
_symmetry_space_group_name_H-M   'P 1'
_symmetry_Int_Tables_number      1
_space_group_name_Hall           'P 1'
loop_
_symmetry_equiv_pos_site_id
_symmetry_equiv_pos_as_xyz
1 x,y,z
_cell_length_a                   10.92100(10)
_cell_length_b                   14.74190(10)
_cell_length_c                   47.7571(4)
_cell_angle_alpha                90
_cell_angle_beta                 90
_cell_angle_gamma                90
_cell_volume                     7688.72
loop_
_atom_site_label
_atom_site_type_symbol
_atom_site_fract_x
_atom_site_fract_y
_atom_site_fract_z
P1 P 0.2785(2) 0.57760(15) 0.64863(4)
F1 F 0.4159(4) 0.5341(4) 0.65804(10)
F2 F 0.3379(7) 0.6804(4) 0.65324(19)
F3 F 0.2347(5) 0.5809(6) 0.68179(10)
F4 F 0.2266(5) 0.4725(4) 0.64457(14)
F5 F 0.3222(7) 0.5760(5) 0.61514(11)
F6 F 0.1418(5) 0.6181(4) 0.63927(11)
P1_2 P 0.2215(2) 0.42240(15) 0.14863(4)
F1_2 F 0.0841(4) 0.4659(4) 0.15804(10)
F2_2 F 0.1621(7) 0.3196(4) 0.15324(19)
F3_2 F 0.2653(5) 0.4191(6) 0.18179(10)
F4_2 F 0.2734(5) 0.5275(4) 0.14457(14)
F5_2 F 0.1778(7) 0.4240(5) 0.11514(11)
F6_2 F 0.3582(5) 0.3819(4) 0.13927(11)
P1_3 P 0.7215(2) 0.07760(15) 0.85137(4)
F1_3 F 0.5841(4) 0.0341(4) 0.84196(10)
F2_3 F 0.6621(7) 0.1804(4) 0.84676(19)
F3_3 F 0.7653(5) 0.0809(6) 0.81821(10)
F5_3 F 0.6778(7) 0.0760(5) 0.88486(11)
F6_3 F 0.8582(5) 0.1181(4) 0.86073(11)
F4_3 F 0.7734(5) 0.9725(4) 0.85543(14)
F4_4 F 0.7266(5) 0.0275(4) 0.35543(14)
P1_4 P 0.7785(2) 0.92240(15) 0.35137(4)
F1_4 F 0.9159(4) 0.9659(4) 0.34196(10)
F2_4 F 0.8379(7) 0.8196(4) 0.34676(19)
F3_4 F 0.7347(5) 0.9191(6) 0.31821(10)
F5_4 F 0.8222(7) 0.9240(5) 0.38486(11)
F6_4 F 0.6418(5) 0.8819(4) 0.36073(11)
H42 H 0.052760 0.190731 0.749656
H43 H 0.051804 0.254453 0.705179
H46 H 0.032030 0.497061 0.691763
Ag2 Ag 0.19453(5) 0.36017(4) 0.58974(2)
H4 H 0.032844 0.529077 0.602060
C24 C 0.0005(8) 0.3691(5) 0.32930(16)
H27 H 0.056611 0.416600 0.329257
C25 C 0.0270(7) 0.2899(5) 0.31502(15)
H28 H 0.102298 0.283736 0.306126
C26 C 0.5370(6) 0.1129(4) 0.78059(13)
H29 H 0.606105 0.106680 0.791794
C27 C 0.5092(6) 0.1988(4) 0.76942(13)
C28 C 0.4051(6) 0.2064(5) 0.75309(14)
H30 H 0.382941 0.262403 0.745682
C29 C 0.3345(6) 0.1312(5) 0.74782(14)
H31 H 0.265517 0.135407 0.736474
C30 C 0.3670(7) 0.0499(5) 0.75950(15)
C31 C 0.5911(6) 0.2809(5) 0.77346(14)
C32 C 0.7649(6) 0.3498(4) 0.79779(14)
C33 C 0.6982(8) 0.4344(5) 0.80921(16)
H33 H 0.756231 0.482410 0.812043
H34 H 0.637229 0.453584 0.795987
H35 H 0.659518 0.419765 0.826688
C34 C 0.8596(8) 0.3206(5) 0.81916(15)
H36 H 0.917148 0.368884 0.822095
H37 H 0.819685 0.306349 0.836523
H38 H 0.902089 0.267893 0.812408
C35 C 0.8317(6) 0.3744(5) 0.77026(15)
C36 C 0.8649(7) 0.2076(5) 0.75573(16)
H39 H 0.791014 0.181527 0.747807
H40 H 0.871934 0.189593 0.775205
C37 C 0.9785(7) 0.1810(5) 0.73893(17)
H41 H 0.974846 0.118042 0.733061
C38 C 0.9716(8) 0.2459(6) 0.71351(16)
H44 H 0.916029 0.222739 0.699379
C39 C 0.9237(6) 0.3346(5) 0.72600(14)
H45 H 0.991094 0.377190 0.729288
C40 C 0.8276(6) 0.3767(4) 0.70658(14)
C41 C 0.9555(7) 0.5181(5) 0.69974(16)
H47 H 0.965572 0.526535 0.719751
C42 C 0.9122(8) 0.6043(5) 0.68572(16)
H48 H 0.981072 0.641365 0.679890
H49 H 0.860720 0.639501 0.698211
C43 C 0.8397(8) 0.5709(5) 0.66048(15)
H50 H 0.784393 0.617314 0.653626
H51 H 0.893725 0.552274 0.645416
C44 C 0.7695(6) 0.4904(5) 0.67231(14)
H52 H 0.694130 0.511572 0.681341
C45 C 0.7389(6) 0.4174(5) 0.65058(13)
C46 C 0.4497(6) 0.3788(5) 0.61346(15)
H53 H 0.416218 0.434143 0.618822
C47 C 0.5665(6) 0.3568(5) 0.62280(13)
C48 C 0.6153(7) 0.2747(5) 0.61484(16)
H54 H 0.692809 0.256986 0.620765
C49 C 0.5453(8) 0.2190(5) 0.59771(16)
H55 H 0.577066 0.163907 0.591636
C50 C 0.4316(7) 0.2441(5) 0.58976(16)
H56 H 0.385317 0.204656 0.578852
N1 N 0.0135(6) 0.4130(4) 0.58213(11)
N7 N 0.4679(5) 0.0402(4) 0.77570(12)
N8 N 0.6773(5) 0.2759(4) 0.79336(12)
H59 H 0.681278 0.228346 0.803752
N9 N 0.8673(5) 0.3074(4) 0.75256(12)
N10 N 0.8539(5) 0.4548(4) 0.69348(12)
N11 N 0.6215(5) 0.4189(4) 0.64132(12)
H60 H 0.576006 0.462244 0.647385
N12 N 0.3837(5) 0.3244(4) 0.59721(12)
O5 O 0.5773(5) 0.3469(3) 0.75792(10)
O6 O 0.8549(5) 0.4548(3) 0.76478(11)
O7 O 0.7296(4) 0.3369(3) 0.70272(10)
O8 O 0.8167(4) 0.3658(4) 0.64140(10)
Ag4 Ag 0.49571(5) 0.40326(3) 0.70804(2)
O9 O 0.1663(5) 0.1947(4) 0.57269(11)
O10 O 0.0773(5) 0.1531(3) 0.24208(10)
H32 H 0.317984 0.999470 0.756174
Ag3 Ag 0.50429(5) 0.90326(3) 0.79196(2)
N13 N 0.0321(5) 0.9598(4) 0.27570(12)
Ag1 Ag 0.99571(5) 0.09674(3) 0.29196(2)
C1 C 0.9322(6) 0.3633(6) 0.56759(13)
H1 H 0.956828 0.307110 0.560787
C2 C 0.8133(7) 0.3919(5) 0.56225(13)
C3 C 0.7767(8) 0.4744(6) 0.57318(15)
H2 H 0.696891 0.494790 0.570722
C4 C 0.8612(8) 0.5263(6) 0.58789(16)
H3 H 0.839003 0.582802 0.594886
C5 C 0.9773(8) 0.4939(5) 0.59205(16)
C6 C 0.7246(6) 0.3393(5) 0.54486(15)
C7 C 0.6978(6) 0.2272(6) 0.50702(15)
C8 C 0.6151(7) 0.1587(6) 0.52214(17)
H5 H 0.566011 0.126976 0.508643
H6 H 0.664807 0.116094 0.532219
H7 H 0.562663 0.190260 0.535013
C9 C 0.7824(7) 0.1775(6) 0.48647(18)
H8 H 0.733890 0.145881 0.472845
H9 H 0.834080 0.220740 0.477164
H10 H 0.832171 0.134884 0.496529
C10 C 0.6199(6) 0.2913(6) 0.48925(15)
C11 C 0.7843(7) 0.4135(7) 0.48450(19)
H11 H 0.848547 0.368077 0.484191
H12 H 0.787422 0.445768 0.502184
C12 C 0.7965(11) 0.4779(7) 0.4602(2)
H13 H 0.829897 0.447607 0.443839
H14 H 0.848031 0.529255 0.464911
C13 C 0.6642(10) 0.5072(7) 0.4553(2)
H15 H 0.653468 0.531224 0.436551
H16 H 0.639558 0.552959 0.468776
C14 C 0.5907(8) 0.4198(6) 0.45927(17)
H17 H 0.507636 0.432290 0.466009
C15 C 0.5889(7) 0.3656(6) 0.43206(15)
C16 C 0.4060(7) 0.4556(6) 0.41490(18)
H18 H 0.360433 0.448138 0.432175
H19 H 0.437999 0.516875 0.414003
C17 C 0.3287(9) 0.4350(9) 0.3902(2)
H20 H 0.283495 0.488237 0.384271
H21 H 0.271217 0.386640 0.394354
C18 C 0.4219(8) 0.4050(8) 0.3674(2)
H22 H 0.383110 0.366301 0.353540
H23 H 0.457257 0.457158 0.357995
C19 C 0.5197(7) 0.3526(6) 0.38395(15)
H24 H 0.503838 0.287252 0.383324
C20 C 0.6483(7) 0.3742(6) 0.37285(16)
C21 C 0.8379(7) 0.2308(5) 0.32739(15)
H25 H 0.781769 0.183490 0.326614
C22 C 0.8084(7) 0.3083(4) 0.34245(13)
C23 C 0.8913(7) 0.3783(5) 0.34365(15)
H26 H 0.874318 0.430529 0.353868
N2 N 0.7723(5) 0.2754(5) 0.52774(13)
H57 H 0.848923 0.262540 0.529068
N3 N 0.6625(6) 0.3716(5) 0.48009(13)
N4 N 0.5058(6) 0.3877(4) 0.41272(13)
N5 N 0.6933(6) 0.3078(4) 0.35569(12)
H58 H 0.647051 0.261562 0.352731
N6 N 0.9459(6) 0.2221(4) 0.31380(12)
O1 O 0.6144(4) 0.3574(4) 0.54498(11)
O2 O 0.5177(4) 0.2637(4) 0.48128(11)
O3 O 0.6663(5) 0.3053(4) 0.42731(11)
O4 O 0.6993(6) 0.4463(4) 0.37865(13)
Ag5 Ag 0.69453(5) 0.13983(4) 0.41026(2)
Ag2_2 Ag 0.30547(5) 0.63983(4) 0.08974(2)
C1_2 C 0.5678(6) 0.6367(6) 0.06759(13)
H1_2 H 0.543172 0.692890 0.060787
C2_2 C 0.6867(7) 0.6081(5) 0.06225(13)
C3_2 C 0.7233(8) 0.5256(6) 0.07318(15)
H2_2 H 0.803109 0.505210 0.070722
C4_2 C 0.6388(8) 0.4737(6) 0.08789(16)
H3_2 H 0.660997 0.417198 0.094886
C5_2 C 0.5227(8) 0.5061(5) 0.09205(16)
H4_2 H 0.467156 0.470923 0.102060
C6_2 C 0.7754(6) 0.6607(5) 0.04486(15)
C7_2 C 0.8022(6) 0.7728(6) 0.00702(15)
C8_2 C 0.8849(7) 0.8413(6) 0.02214(17)
H5_2 H 0.933989 0.873024 0.008643
H6_2 H 0.835193 0.883906 0.032219
H7_2 H 0.937337 0.809740 0.035013
H12_2 H 0.712578 0.554232 0.002184
C28_2 C 0.0949(6) 0.7936(5) 0.25309(14)
H30_2 H 0.117059 0.737597 0.245682
C29_2 C 0.1655(6) 0.8688(5) 0.24782(14)
H31_2 H 0.234483 0.864593 0.236474
C30_2 C 0.1330(7) 0.9501(5) 0.25950(15)
C46_2 C 0.0503(6) 0.6212(5) 0.11346(15)
H53_2 H 0.083782 0.565857 0.118822
C50_2 C 0.0684(7) 0.7559(5) 0.08976(16)
H56_2 H 0.114683 0.795344 0.078852
N1_2 N 0.4865(6) 0.5870(4) 0.08213(11)
N2_2 N 0.7277(5) 0.7246(5) 0.02774(13)
H57_2 H 0.651077 0.737460 0.029068
N12_2 N 0.1163(5) 0.6756(4) 0.09721(12)
O1_2 O 0.8856(4) 0.6426(4) 0.04498(11)
Ag4_2 Ag 0.00429(5) 0.59674(3) 0.20804(2)
O9_2 O 0.3337(5) 0.8053(4) 0.07269(11)
C9_2 C 0.7176(7) 0.8225(6) 0.98647(18)
H8_2 H 0.766110 0.854119 0.972845
H9_2 H 0.665920 0.779260 0.977164
H10_2 H 0.667829 0.865116 0.996529
C10_2 C 0.8801(6) 0.7087(6) 0.98925(15)
C11_2 C 0.7157(7) 0.5865(7) 0.98450(19)
H11_2 H 0.651453 0.631923 0.984191
C12_2 C 0.7035(11) 0.5221(7) 0.9602(2)
H13_2 H 0.670103 0.552393 0.943839
H14_2 H 0.651969 0.470745 0.964911
C13_2 C 0.8358(10) 0.4928(7) 0.9553(2)
H15_2 H 0.846532 0.468776 0.936551
H16_2 H 0.860442 0.447041 0.968776
C14_2 C 0.9093(8) 0.5802(6) 0.95927(17)
H17_2 H 0.992364 0.567710 0.966009
C15_2 C 0.9111(7) 0.6344(6) 0.93206(15)
C19_2 C 0.9803(7) 0.6474(6) 0.88395(15)
H24_2 H 0.996162 0.712748 0.883324
C20_2 C 0.8517(7) 0.6258(6) 0.87285(16)
C21_2 C 0.6621(7) 0.7692(5) 0.82739(15)
H25_2 H 0.718231 0.816510 0.826614
C22_2 C 0.6916(7) 0.6917(4) 0.84245(13)
C23_2 C 0.6087(7) 0.6217(5) 0.84365(15)
H26_2 H 0.625682 0.569471 0.853868
C24_2 C 0.4995(8) 0.6309(5) 0.82930(16)
H27_2 H 0.443389 0.583400 0.829257
C25_2 C 0.4730(7) 0.7101(5) 0.81502(15)
H28_2 H 0.397702 0.716264 0.806126
N3_2 N 0.8375(6) 0.6284(5) 0.98009(13)
N4_2 N 0.9942(6) 0.6123(4) 0.91272(13)
N5_2 N 0.8067(6) 0.6922(4) 0.85569(12)
H58_2 H 0.852949 0.738438 0.852731
N6_2 N 0.5541(6) 0.7779(4) 0.81380(12)
O2_2 O 0.9823(4) 0.7363(4) 0.98128(11)
O3_2 O 0.8337(5) 0.6947(4) 0.92731(11)
O4_2 O 0.8007(6) 0.5537(4) 0.87865(13)
Ag5_2 Ag 0.80547(5) 0.86017(4) 0.91026(2)
O10_2 O 0.4227(5) 0.8469(3) 0.74208(10)
C26_2 C 0.9630(6) 0.8871(4) 0.28059(13)
H29_2 H 0.893895 0.893320 0.291794
C27_2 C 0.9908(6) 0.8012(4) 0.26942(13)
C31_2 C 0.9089(6) 0.7191(5) 0.27346(14)
C32_2 C 0.7351(6) 0.6502(4) 0.29779(14)
C33_2 C 0.8018(8) 0.5656(5) 0.30921(16)
H33_2 H 0.743769 0.517590 0.312043
H34_2 H 0.862771 0.546416 0.295987
H35_2 H 0.840482 0.580235 0.326688
C34_2 C 0.6404(8) 0.6794(5) 0.31916(15)
H36_2 H 0.582852 0.631116 0.322095
H37_2 H 0.680315 0.693651 0.336523
H38_2 H 0.597911 0.732107 0.312408
C35_2 C 0.6683(6) 0.6256(5) 0.27026(15)
C36_2 C 0.6351(7) 0.7924(5) 0.25573(16)
H39_2 H 0.708986 0.818473 0.247807
H40_2 H 0.628066 0.810407 0.275205
C37_2 C 0.5215(7) 0.8190(5) 0.23893(17)
H41_2 H 0.525154 0.881958 0.233061
H42_2 H 0.447240 0.809269 0.249656
C38_2 C 0.5284(8) 0.7541(6) 0.21351(16)
H43_2 H 0.448196 0.745547 0.205179
H44_2 H 0.583971 0.777261 0.199379
C39_2 C 0.5763(6) 0.6654(5) 0.22600(14)
H45_2 H 0.508906 0.622810 0.229288
C40_2 C 0.6724(6) 0.6233(4) 0.20658(14)
C41_2 C 0.5445(7) 0.4819(5) 0.19974(16)
H46_2 H 0.467970 0.502939 0.191763
H47_2 H 0.534428 0.473465 0.219751
C42_2 C 0.5878(8) 0.3957(5) 0.18572(16)
H48_2 H 0.518928 0.358635 0.179890
H49_2 H 0.639280 0.360499 0.198211
C43_2 C 0.6603(8) 0.4291(5) 0.16048(15)
H50_2 H 0.715607 0.382686 0.153626
H51_2 H 0.606275 0.447726 0.145416
C44_2 C 0.7305(6) 0.5096(5) 0.17231(14)
H52_2 H 0.805870 0.488428 0.181341
C45_2 C 0.7611(6) 0.5826(5) 0.15058(13)
C47_2 C 0.9335(6) 0.6432(5) 0.12280(13)
C48_2 C 0.8847(7) 0.7253(5) 0.11484(16)
H54_2 H 0.807191 0.743014 0.120765
C49_2 C 0.9547(8) 0.7810(5) 0.09771(16)
H55_2 H 0.922934 0.836093 0.091636
N8_2 N 0.8227(5) 0.7241(4) 0.29336(12)
H59_2 H 0.818722 0.771654 0.303752
N9_2 N 0.6327(5) 0.6926(4) 0.25256(12)
N10_2 N 0.6461(5) 0.5452(4) 0.19348(12)
N11_2 N 0.8785(5) 0.5811(4) 0.14132(12)
H60_2 H 0.923994 0.537756 0.147385
O5_2 O 0.9227(5) 0.6531(3) 0.25792(10)
O6_2 O 0.6451(5) 0.5452(3) 0.26478(11)
O7_2 O 0.7704(4) 0.6631(3) 0.20272(10)
O8_2 O 0.6833(4) 0.6342(4) 0.14140(10)
C9_3 C 0.2176(7) 0.6775(6) 0.01353(18)
H8_3 H 0.266110 0.645881 0.027155
H9_3 H 0.165920 0.720740 0.022836
H10_3 H 0.167829 0.634884 0.003471
C10_3 C 0.3801(6) 0.7913(6) 0.01075(15)
C11_3 C 0.2157(7) 0.9135(7) 0.01550(19)
H11_3 H 0.151453 0.868077 0.015809
C12_3 C 0.2035(11) 0.9779(7) 0.0398(2)
H13_3 H 0.170103 0.947607 0.056161
C14_3 C 0.4093(8) 0.9198(6) 0.04073(17)
H17_3 H 0.492364 0.932290 0.033991
C15_3 C 0.4111(7) 0.8656(6) 0.06794(15)
C16_2 C 0.5940(7) 0.9556(6) 0.08510(18)
H18_2 H 0.639567 0.948138 0.067825
C17_2 C 0.6713(9) 0.9350(9) 0.1098(2)
H20_2 H 0.716505 0.988237 0.115729
H21_2 H 0.728783 0.886640 0.105646
C18_2 C 0.5781(8) 0.9050(8) 0.1326(2)
H22_2 H 0.616890 0.866301 0.146460
H23_2 H 0.542743 0.957158 0.142005
C19_3 C 0.4803(7) 0.8526(6) 0.11605(15)
H24_3 H 0.496162 0.787252 0.116676
C20_3 C 0.3517(7) 0.8742(6) 0.12715(16)
C21_3 C 0.1621(7) 0.7308(5) 0.17261(15)
H25_3 H 0.218231 0.683490 0.173386
C22_3 C 0.1916(7) 0.8083(4) 0.15755(13)
C23_3 C 0.1087(7) 0.8783(5) 0.15635(15)
H26_3 H 0.125682 0.930529 0.146132
N3_3 N 0.3375(6) 0.8716(5) 0.01991(13)
N4_3 N 0.4942(6) 0.8877(4) 0.08728(13)
N5_3 N 0.3067(6) 0.8078(4) 0.14431(12)
H58_3 H 0.352949 0.761562 0.147269
N6_3 N 0.0541(6) 0.7221(4) 0.18620(12)
O2_3 O 0.4823(4) 0.7637(4) 0.01872(11)
O4_3 O 0.3007(6) 0.9463(4) 0.12135(13)
C24_3 C 0.9995(8) 0.8691(5) 0.17070(16)
H27_3 H 0.943389 0.916600 0.170743
C25_3 C 0.9730(7) 0.7899(5) 0.18498(15)
H28_3 H 0.897702 0.783736 0.193874
N13_2 N 0.9679(5) 0.4598(4) 0.22430(12)
C26_3 C 0.4630(6) 0.6129(4) 0.71941(13)
H29_3 H 0.393895 0.606680 0.708206
C27_3 C 0.4908(6) 0.6988(4) 0.73058(13)
C28_3 C 0.5949(6) 0.7064(5) 0.74691(14)
H30_3 H 0.617059 0.762403 0.754318
C29_3 C 0.6655(6) 0.6312(5) 0.75218(14)
H31_3 H 0.734483 0.635407 0.763526
C30_3 C 0.6330(7) 0.5499(5) 0.74050(15)
H32_2 H 0.682016 0.499470 0.743826
C31_3 C 0.4089(6) 0.7809(5) 0.72654(14)
C32_3 C 0.2351(6) 0.8498(4) 0.70221(14)
C33_3 C 0.3018(8) 0.9344(5) 0.69079(16)
H33_3 H 0.243769 0.982410 0.687957
H34_3 H 0.362771 0.953584 0.704013
H35_3 H 0.340482 0.919765 0.673312
C34_3 C 0.1404(8) 0.8206(5) 0.68084(15)
H36_3 H 0.082852 0.868884 0.677905
H37_3 H 0.180315 0.806349 0.663477
H38_3 H 0.097911 0.767893 0.687592
C35_3 C 0.1683(6) 0.8744(5) 0.72974(15)
C36_3 C 0.1351(7) 0.7076(5) 0.74427(16)
H39_3 H 0.208986 0.681527 0.752193
H40_3 H 0.128066 0.689593 0.724795
C37_3 C 0.0215(7) 0.6810(5) 0.76107(17)
H41_3 H 0.025154 0.618042 0.766939
C38_3 C 0.0284(8) 0.7459(6) 0.78649(16)
H44_3 H 0.083971 0.722739 0.800621
C39_3 C 0.0763(6) 0.8346(5) 0.77400(14)
H45_3 H 0.008906 0.877190 0.770712
C40_3 C 0.1724(6) 0.8767(4) 0.79342(14)
C44_3 C 0.2305(6) 0.9904(5) 0.82769(14)
C45_3 C 0.2611(6) 0.9174(5) 0.84942(13)
C46_3 C 0.5503(6) 0.8788(5) 0.88654(15)
H53_3 H 0.583782 0.934143 0.881178
C47_3 C 0.4335(6) 0.8568(5) 0.87720(13)
C48_3 C 0.3847(7) 0.7747(5) 0.88516(16)
H54_3 H 0.307191 0.756986 0.879235
C49_3 C 0.4547(8) 0.7190(5) 0.90229(16)
H55_3 H 0.422934 0.663907 0.908364
C50_3 C 0.5684(7) 0.7441(5) 0.91024(16)
H56_3 H 0.614683 0.704656 0.921148
N1_3 N 0.9865(6) 0.9130(4) 0.91787(11)
N7_2 N 0.5321(5) 0.5402(4) 0.72430(12)
N8_3 N 0.3227(5) 0.7759(4) 0.70664(12)
H59_3 H 0.318722 0.728346 0.696248
N9_3 N 0.1327(5) 0.8074(4) 0.74744(12)
N10_3 N 0.1461(5) 0.9548(4) 0.80652(12)
N11_3 N 0.3785(5) 0.9189(4) 0.85868(12)
H60_3 H 0.423994 0.962244 0.852615
N12_3 N 0.6163(5) 0.8244(4) 0.90279(12)
O6_3 O 0.1451(5) 0.9548(3) 0.73522(11)
O7_3 O 0.2704(4) 0.8369(3) 0.79728(10)
O8_3 O 0.1833(4) 0.8658(4) 0.85860(10)
C26_4 C 0.0370(6) 0.3871(4) 0.21941(13)
H29_4 H 0.106105 0.393320 0.208206
C27_4 C 0.0092(6) 0.3012(4) 0.23058(13)
C31_4 C 0.0911(6) 0.2191(5) 0.22654(14)
C32_4 C 0.2649(6) 0.1502(4) 0.20221(14)
C33_4 C 0.1982(8) 0.0656(5) 0.19079(16)
H33_4 H 0.256231 0.017590 0.187957
H34_4 H 0.137229 0.046416 0.204013
H35_4 H 0.159518 0.080235 0.173312
C34_4 C 0.3596(8) 0.1794(5) 0.18084(15)
H36_4 H 0.417148 0.131116 0.177905
H37_4 H 0.319685 0.193651 0.163477
H38_4 H 0.402089 0.232107 0.187592
C35_4 C 0.3317(6) 0.1256(5) 0.22974(15)
C36_4 C 0.3649(7) 0.2924(5) 0.24427(16)
H39_4 H 0.291014 0.318473 0.252193
H40_4 H 0.371934 0.310407 0.224795
C37_4 C 0.4785(7) 0.3190(5) 0.26107(17)
H41_4 H 0.474846 0.381958 0.266939
H42_3 H 0.552760 0.309269 0.250344
C38_4 C 0.4716(8) 0.2541(6) 0.28649(16)
H43_3 H 0.551804 0.245547 0.294821
H44_4 H 0.416029 0.277261 0.300621
C39_4 C 0.4237(6) 0.1654(5) 0.27400(14)
H45_4 H 0.491094 0.122810 0.270712
C40_4 C 0.3276(6) 0.1233(4) 0.29342(14)
H46_3 H 0.532030 0.002939 0.308237
C44_4 C 0.2695(6) 0.0096(5) 0.32769(14)
C45_4 C 0.2389(6) 0.0826(5) 0.34942(13)
C47_4 C 0.0665(6) 0.1432(5) 0.37720(13)
C48_4 C 0.1153(7) 0.2253(5) 0.38516(16)
H54_4 H 0.192809 0.243014 0.379235
C49_4 C 0.0453(8) 0.2810(5) 0.40229(16)
H55_4 H 0.077066 0.336093 0.408364
N8_4 N 0.1773(5) 0.2241(4) 0.20664(12)
H59_4 H 0.181278 0.271654 0.196248
N9_4 N 0.3673(5) 0.1926(4) 0.24744(12)
N10_4 N 0.3539(5) 0.0452(4) 0.30652(12)
N11_4 N 0.1215(5) 0.0811(4) 0.35868(12)
H60_4 H 0.076006 0.037756 0.352615
O6_4 O 0.3549(5) 0.0452(3) 0.23522(11)
O7_4 O 0.2296(4) 0.1631(3) 0.29728(10)
O8_4 O 0.3167(4) 0.1342(4) 0.35860(10)
C1_3 C 0.4322(6) 0.1367(6) 0.43241(13)
H1_3 H 0.456828 0.192890 0.439213
C2_3 C 0.3133(7) 0.1081(5) 0.43775(13)
C3_3 C 0.2767(8) 0.0256(6) 0.42682(15)
H2_3 H 0.196891 0.005210 0.429278
C5_3 C 0.4773(8) 0.0061(5) 0.40795(16)
C6_3 C 0.2246(6) 0.1607(5) 0.45514(15)
C7_3 C 0.1978(6) 0.2728(6) 0.49298(15)
C8_3 C 0.1151(7) 0.3413(6) 0.47786(17)
H5_3 H 0.066011 0.373024 0.491357
H6_3 H 0.164807 0.383906 0.467781
H7_3 H 0.062663 0.309740 0.464987
C9_4 C 0.2824(7) 0.3225(6) 0.51353(18)
H8_4 H 0.233890 0.354119 0.527155
H9_4 H 0.334080 0.279260 0.522836
H10_4 H 0.332171 0.365116 0.503471
C10_4 C 0.1199(6) 0.2087(6) 0.51075(15)
C11_4 C 0.2843(7) 0.0865(7) 0.51550(19)
H11_4 H 0.348547 0.131923 0.515809
H12_3 H 0.287422 0.054232 0.497816
C12_4 C 0.2965(11) 0.0221(7) 0.5398(2)
H13_4 H 0.329897 0.052393 0.556161
C14_4 C 0.0907(8) 0.0802(6) 0.54073(17)
H17_4 H 0.007636 0.067710 0.533991
C15_4 C 0.0889(7) 0.1344(6) 0.56794(15)
C19_4 C 0.0197(7) 0.1474(6) 0.61605(15)
H24_4 H 0.003838 0.212748 0.616676
C20_4 C 0.1483(7) 0.1258(6) 0.62715(16)
C21_4 C 0.3379(7) 0.2692(5) 0.67261(15)
H25_4 H 0.281769 0.316510 0.673386
C22_4 C 0.3084(7) 0.1917(4) 0.65755(13)
C23_4 C 0.3913(7) 0.1217(5) 0.65635(15)
H26_4 H 0.374318 0.069471 0.646132
C24_4 C 0.5005(8) 0.1309(5) 0.67070(16)
H27_4 H 0.556611 0.083400 0.670743
C25_4 C 0.5270(7) 0.2101(5) 0.68498(15)
H28_4 H 0.602298 0.216264 0.693874
C28_4 C 0.9051(6) 0.2936(5) 0.24691(14)
H30_4 H 0.882941 0.237597 0.254318
C29_4 C 0.8345(6) 0.3688(5) 0.25218(14)
H31_4 H 0.765517 0.364593 0.263526
C30_4 C 0.8670(7) 0.4501(5) 0.24050(15)
H32_3 H 0.817984 0.500530 0.243826
C46_4 C 0.9497(6) 0.1212(5) 0.38654(15)
H53_4 H 0.916218 0.065857 0.381178
C50_4 C 0.9316(7) 0.2559(5) 0.41024(16)
H56_4 H 0.885317 0.295344 0.421148
N1_4 N 0.5135(6) 0.0870(4) 0.41787(11)
N2_3 N 0.2723(5) 0.2246(5) 0.47226(13)
H57_3 H 0.348923 0.237460 0.470932
N3_4 N 0.1625(6) 0.1284(5) 0.51991(13)
N4_4 N 0.0058(6) 0.1123(4) 0.58728(13)
N5_4 N 0.1933(6) 0.1922(4) 0.64431(12)
H58_4 H 0.147051 0.238438 0.647269
N6_4 N 0.4459(6) 0.2779(4) 0.68620(12)
N12_4 N 0.8837(5) 0.1756(4) 0.40279(12)
O1_3 O 0.1144(4) 0.1426(4) 0.45502(11)
O2_4 O 0.0177(4) 0.2363(4) 0.51872(11)
O4_4 O 0.1993(6) 0.0537(4) 0.62135(13)
C16_3 C 0.0940(7) 0.5444(6) 0.91490(18)
H18_3 H 0.139567 0.551862 0.932175
H19_2 H 0.062001 0.483125 0.914003
C17_3 C 0.1713(9) 0.5650(9) 0.8902(2)
H20_3 H 0.216505 0.511763 0.884271
H21_3 H 0.228783 0.613360 0.894354
C18_3 C 0.0781(8) 0.5950(8) 0.8674(2)
H22_3 H 0.116890 0.633699 0.853540
H23_3 H 0.042743 0.542842 0.857995
H32_4 H 0.182016 0.000530 0.256174
H14_3 H 0.151969 0.029255 0.035089
C13_3 C 0.3358(10) 0.0072(7) 0.0447(2)
H15_3 H 0.346532 0.031224 0.063449
H16_3 H 0.360442 0.052959 0.031224
H19_3 H 0.562001 0.016875 0.085997
C4_3 C 0.1388(8) 0.0263(6) 0.91211(16)
H3_3 H 0.160997 0.082802 0.905114
C1_4 C 0.0678(6) 0.8633(6) 0.93241(13)
H1_4 H 0.043172 0.807110 0.939213
C2_4 C 0.1867(7) 0.8919(5) 0.93775(13)
C3_4 C 0.2233(8) 0.9744(6) 0.92682(15)
H2_4 H 0.303109 0.994790 0.929278
C5_4 C 0.0227(8) 0.9939(5) 0.90795(16)
C6_4 C 0.2754(6) 0.8393(5) 0.95514(15)
C7_4 C 0.3022(6) 0.7272(6) 0.99298(15)
C8_4 C 0.3849(7) 0.6587(6) 0.97786(17)
H5_4 H 0.433989 0.626976 0.991357
H6_4 H 0.335193 0.616094 0.967781
H7_4 H 0.437337 0.690260 0.964987
H12_4 H 0.212578 0.945768 0.997816
N2_4 N 0.2277(5) 0.7754(5) 0.97226(13)
H57_4 H 0.151077 0.762540 0.970932
O1_4 O 0.3856(4) 0.8574(4) 0.95502(11)
H4_3 H 0.967156 0.029077 0.897940
C41_3 C 0.0445(7) 0.0181(5) 0.80026(16)
H47_3 H 0.034428 0.026535 0.780249
C42_3 C 0.0878(8) 0.1043(5) 0.81428(16)
H48_3 H 0.018928 0.141365 0.820110
H49_3 H 0.139280 0.139501 0.801789
C43_3 C 0.1603(8) 0.0709(5) 0.83952(15)
H50_3 H 0.215607 0.117314 0.846374
H51_3 H 0.106275 0.052274 0.854584
H52_3 H 0.305870 0.011572 0.818659
H42_4 H 0.947240 0.690731 0.750344
H43_4 H 0.948196 0.754453 0.794821
H46_4 H 0.967970 0.997061 0.808237
C41_4 C 0.4555(7) 0.9819(5) 0.30026(16)
H47_4 H 0.465572 0.973465 0.280249
C42_4 C 0.4122(8) 0.8957(5) 0.31428(16)
H48_4 H 0.481072 0.858635 0.320110
H49_4 H 0.360720 0.860499 0.301789
C43_4 C 0.3397(8) 0.9291(5) 0.33952(15)
H50_4 H 0.284393 0.882686 0.346374
H51_4 H 0.393725 0.947726 0.354584
H52_4 H 0.194130 0.988428 0.318659
C4_4 C 0.3612(8) 0.9737(6) 0.41211(16)
H3_4 H 0.339003 0.917198 0.405114
H4_4 H 0.532844 0.970923 0.397940
H14_4 H 0.348031 0.970745 0.535089
C13_4 C 0.1642(10) 0.9928(7) 0.5447(2)
H15_4 H 0.153468 0.968776 0.563449
H16_4 H 0.139558 0.947041 0.531224
C16_4 C 0.9060(7) 0.0444(6) 0.58510(18)
H18_4 H 0.860433 0.051862 0.567825
C17_4 C 0.8287(9) 0.0650(9) 0.6098(2)
H20_4 H 0.783495 0.011763 0.615729
H21_4 H 0.771217 0.113360 0.605646
C18_4 C 0.9219(8) 0.0950(8) 0.6326(2)
H22_4 H 0.883110 0.133699 0.646460
H23_4 H 0.957257 0.042842 0.642005
H19_4 H 0.937999 0.983125 0.585997
loop_
_geom_bond_atom_site_label_1
_geom_bond_atom_site_label_2
_geom_bond_site_symmetry_1
_geom_bond_site_symmetry_2
P1 F1 1_555 1_555
F2 P1 1_555 1_555
F3 P1 1_555 1_555
F4 P1 1_555 1_555
F5 P1 1_555 1_555
F6 P1 1_555 1_555
P1_2 F1_2 1_555 1_555
F2_2 P1_2 1_555 1_555
F3_2 P1_2 1_555 1_555
F4_2 P1_2 1_555 1_555
F5_2 P1_2 1_555 1_555
F6_2 P1_2 1_555 1_555
P1_3 F1_3 1_555 1_555
F2_3 P1_3 1_555 1_555
F3_3 P1_3 1_555 1_555
F5_3 P1_3 1_555 1_555
F6_3 P1_3 1_555 1_555
P1_4 F1_4 1_555 1_555
F2_4 P1_4 1_555 1_555
F3_4 P1_4 1_555 1_555
F5_4 P1_4 1_555 1_555
F6_4 P1_4 1_555 1_555
Ag2 N1 1_555 1_555
H27 C24 1_555 1_555
C25 C24 1_555 1_555
H28 C25 1_555 1_555
C26 H29 1_555 1_555
C27 C26 1_555 1_555
C28 C27 1_555 1_555
H30 C28 1_555 1_555
C29 C28 1_555 1_555
H31 C29 1_555 1_555
C30 C29 1_555 1_555
C31 C27 1_555 1_555
C32 C33 1_555 1_555
C33 H33 1_555 1_555
H34 C33 1_555 1_555
H35 C33 1_555 1_555
C34 C32 1_555 1_555
H36 C34 1_555 1_555
H37 C34 1_555 1_555
H38 C34 1_555 1_555
C35 C32 1_555 1_555
C36 H39 1_555 1_555
H40 C36 1_555 1_555
C37 C36 1_555 1_555
H41 C37 1_555 1_555
C38 C37 1_555 1_555
H44 C38 1_555 1_555
C39 C38 1_555 1_555
H45 C39 1_555 1_555
C40 C39 1_555 1_555
H47 C41 1_555 1_555
C42 C41 1_555 1_555
H48 C42 1_555 1_555
H49 C42 1_555 1_555
C43 C42 1_555 1_555
H50 C43 1_555 1_555
H51 C43 1_555 1_555
C44 C43 1_555 1_555
H52 C44 1_555 1_555
C45 C44 1_555 1_555
C46 H53 1_555 1_555
C47 C46 1_555 1_555
C48 C47 1_555 1_555
H54 C48 1_555 1_555
C49 C48 1_555 1_555
H55 C49 1_555 1_555
C50 C49 1_555 1_555
H56 C50 1_555 1_555
N7 C26 1_555 1_555
N8 C31 1_555 1_555
H59 N8 1_555 1_555
N9 C35 1_555 1_555
N10 C40 1_555 1_555
N11 C45 1_555 1_555
H60 N11 1_555 1_555
N12 Ag2 1_555 1_555
O5 C31 1_555 1_555
O6 C35 1_555 1_555
O7 C40 1_555 1_555
O8 C45 1_555 1_555
Ag4 O5 1_555 1_555
O9 Ag2 1_555 1_555
C30 N7 1_555 1_555
C32 N8 1_555 1_555
C36 N9 1_555 1_555
C39 N9 1_555 1_555
C41 N10 1_555 1_555
C44 N10 1_555 1_555
C46 N12 1_555 1_555
C47 N11 1_555 1_555
C50 N12 1_555 1_555
Ag1 N6 1_555 1_555
C1 H1 1_555 1_555
C2 C1 1_555 1_555
C3 C2 1_555 1_555
H2 C3 1_555 1_555
C4 C3 1_555 1_555
H3 C4 1_555 1_555
C5 C4 1_555 1_555
C6 C2 1_555 1_555
C7 C8 1_555 1_555
C8 H5 1_555 1_555
H6 C8 1_555 1_555
H7 C8 1_555 1_555
C9 C7 1_555 1_555
H8 C9 1_555 1_555
H9 C9 1_555 1_555
H10 C9 1_555 1_555
C10 C7 1_555 1_555
C11 H11 1_555 1_555
H12 C11 1_555 1_555
C12 C11 1_555 1_555
H13 C12 1_555 1_555
H14 C12 1_555 1_555
C13 C12 1_555 1_555
H15 C13 1_555 1_555
H16 C13 1_555 1_555
C14 C13 1_555 1_555
H17 C14 1_555 1_555
C15 C14 1_555 1_555
C16 H18 1_555 1_555
H19 C16 1_555 1_555
C17 C16 1_555 1_555
H20 C17 1_555 1_555
H21 C17 1_555 1_555
C18 C17 1_555 1_555
H22 C18 1_555 1_555
H23 C18 1_555 1_555
C19 C18 1_555 1_555
H24 C19 1_555 1_555
C20 C19 1_555 1_555
C21 H25 1_555 1_555
C22 C21 1_555 1_555
C23 C22 1_555 1_555
H26 C23 1_555 1_555
N2 C6 1_555 1_555
H57 N2 1_555 1_555
N3 C10 1_555 1_555
N4 C15 1_555 1_555
N5 C20 1_555 1_555
H58 N5 1_555 1_555
N6 C21 1_555 1_555
O1 C6 1_555 1_555
O2 C10 1_555 1_555
O3 C15 1_555 1_555
O4 C20 1_555 1_555
Ag5 O3 1_555 1_555
C7 N2 1_555 1_555
C11 N3 1_555 1_555
C14 N3 1_555 1_555
C16 N4 1_555 1_555
C19 N4 1_555 1_555
C22 N5 1_555 1_555
Ag2_2 N1_2 1_555 1_555
C1_2 H1_2 1_555 1_555
C2_2 C1_2 1_555 1_555
C3_2 C2_2 1_555 1_555
H2_2 C3_2 1_555 1_555
C4_2 C3_2 1_555 1_555
H3_2 C4_2 1_555 1_555
C5_2 C4_2 1_555 1_555
H4_2 C5_2 1_555 1_555
C6_2 C2_2 1_555 1_555
C7_2 C8_2 1_555 1_555
C8_2 H5_2 1_555 1_555
H6_2 C8_2 1_555 1_555
H7_2 C8_2 1_555 1_555
H30_2 C28_2 1_555 1_555
C29_2 C28_2 1_555 1_555
H31_2 C29_2 1_555 1_555
C30_2 C29_2 1_555 1_555
C46_2 H53_2 1_555 1_555
H56_2 C50_2 1_555 1_555
N1_2 C1_2 1_555 1_555
N2_2 C6_2 1_555 1_555
H57_2 N2_2 1_555 1_555
N12_2 Ag2_2 1_555 1_555
O1_2 C6_2 1_555 1_555
O9_2 Ag2_2 1_555 1_555
C5_2 N1_2 1_555 1_555
C7_2 N2_2 1_555 1_555
C30_2 N13 1_555 1_555
C46_2 N12_2 1_555 1_555
C50_2 N12_2 1_555 1_555
Ag3 N6_2 1_555 1_555
H8_2 C9_2 1_555 1_555
H9_2 C9_2 1_555 1_555
H10_2 C9_2 1_555 1_555
C11_2 H11_2 1_555 1_555
C12_2 C11_2 1_555 1_555
H13_2 C12_2 1_555 1_555
H14_2 C12_2 1_555 1_555
C13_2 C12_2 1_555 1_555
H15_2 C13_2 1_555 1_555
H16_2 C13_2 1_555 1_555
C14_2 C13_2 1_555 1_555
H17_2 C14_2 1_555 1_555
C15_2 C14_2 1_555 1_555
H24_2 C19_2 1_555 1_555
C20_2 C19_2 1_555 1_555
C21_2 H25_2 1_555 1_555
C22_2 C21_2 1_555 1_555
C23_2 C22_2 1_555 1_555
H26_2 C23_2 1_555 1_555
C24_2 C23_2 1_555 1_555
H27_2 C24_2 1_555 1_555
C25_2 C24_2 1_555 1_555
H28_2 C25_2 1_555 1_555
N3_2 C10_2 1_555 1_555
N4_2 C15_2 1_555 1_555
N5_2 C20_2 1_555 1_555
H58_2 N5_2 1_555 1_555
N6_2 C21_2 1_555 1_555
O2_2 C10_2 1_555 1_555
O3_2 C15_2 1_555 1_555
O4_2 C20_2 1_555 1_555
Ag5_2 O3_2 1_555 1_555
O10_2 Ag3 1_555 1_555
C11_2 N3_2 1_555 1_555
C14_2 N3_2 1_555 1_555
C19_2 N4_2 1_555 1_555
C22_2 N5_2 1_555 1_555
C25_2 N6_2 1_555 1_555
C26_2 H29_2 1_555 1_555
C27_2 C26_2 1_555 1_555
C31_2 C27_2 1_555 1_555
C32_2 C33_2 1_555 1_555
C33_2 H33_2 1_555 1_555
H34_2 C33_2 1_555 1_555
H35_2 C33_2 1_555 1_555
C34_2 C32_2 1_555 1_555
H36_2 C34_2 1_555 1_555
H37_2 C34_2 1_555 1_555
H38_2 C34_2 1_555 1_555
C35_2 C32_2 1_555 1_555
C36_2 H39_2 1_555 1_555
H40_2 C36_2 1_555 1_555
C37_2 C36_2 1_555 1_555
H41_2 C37_2 1_555 1_555
H42_2 C37_2 1_555 1_555
C38_2 C37_2 1_555 1_555
H43_2 C38_2 1_555 1_555
H44_2 C38_2 1_555 1_555
C39_2 C38_2 1_555 1_555
H45_2 C39_2 1_555 1_555
C40_2 C39_2 1_555 1_555
C41_2 H46_2 1_555 1_555
H47_2 C41_2 1_555 1_555
C42_2 C41_2 1_555 1_555
H48_2 C42_2 1_555 1_555
H49_2 C42_2 1_555 1_555
C43_2 C42_2 1_555 1_555
H50_2 C43_2 1_555 1_555
H51_2 C43_2 1_555 1_555
C44_2 C43_2 1_555 1_555
H52_2 C44_2 1_555 1_555
C45_2 C44_2 1_555 1_555
C48_2 C47_2 1_555 1_555
H54_2 C48_2 1_555 1_555
C49_2 C48_2 1_555 1_555
H55_2 C49_2 1_555 1_555
N8_2 C31_2 1_555 1_555
H59_2 N8_2 1_555 1_555
N9_2 C35_2 1_555 1_555
N10_2 C40_2 1_555 1_555
N11_2 C45_2 1_555 1_555
H60_2 N11_2 1_555 1_555
O5_2 C31_2 1_555 1_555
O6_2 C35_2 1_555 1_555
O7_2 C40_2 1_555 1_555
O8_2 C45_2 1_555 1_555
C32_2 N8_2 1_555 1_555
C36_2 N9_2 1_555 1_555
C39_2 N9_2 1_555 1_555
C41_2 N10_2 1_555 1_555
C44_2 N10_2 1_555 1_555
C47_2 N11_2 1_555 1_555
Ag4_2 N6_3 1_555 1_555
H8_3 C9_3 1_555 1_555
H9_3 C9_3 1_555 1_555
H10_3 C9_3 1_555 1_555
C11_3 H11_3 1_555 1_555
C12_3 C11_3 1_555 1_555
H13_3 C12_3 1_555 1_555
H17_3 C14_3 1_555 1_555
C15_3 C14_3 1_555 1_555
C16_2 H18_2 1_555 1_555
C17_2 C16_2 1_555 1_555
H20_2 C17_2 1_555 1_555
H21_2 C17_2 1_555 1_555
C18_2 C17_2 1_555 1_555
H22_2 C18_2 1_555 1_555
H23_2 C18_2 1_555 1_555
C19_3 C18_2 1_555 1_555
H24_3 C19_3 1_555 1_555
C20_3 C19_3 1_555 1_555
C21_3 H25_3 1_555 1_555
C22_3 C21_3 1_555 1_555
C23_3 C22_3 1_555 1_555
H26_3 C23_3 1_555 1_555
N3_3 C10_3 1_555 1_555
N4_3 C15_3 1_555 1_555
N5_3 C20_3 1_555 1_555
H58_3 N5_3 1_555 1_555
N6_3 C21_3 1_555 1_555
O2_3 C10_3 1_555 1_555
O9_2 C15_3 1_555 1_555
O4_3 C20_3 1_555 1_555
C11_3 N3_3 1_555 1_555
C14_3 N3_3 1_555 1_555
C16_2 N4_3 1_555 1_555
C19_3 N4_3 1_555 1_555
C22_3 N5_3 1_555 1_555
H27_3 C24_3 1_555 1_555
C25_3 C24_3 1_555 1_555
H28_3 C25_3 1_555 1_555
Ag5_2 N1_3 1_555 1_555
C26_3 H29_3 1_555 1_555
C27_3 C26_3 1_555 1_555
C28_3 C27_3 1_555 1_555
H30_3 C28_3 1_555 1_555
C29_3 C28_3 1_555 1_555
H31_3 C29_3 1_555 1_555
C30_3 C29_3 1_555 1_555
H32_2 C30_3 1_555 1_555
C31_3 C27_3 1_555 1_555
C32_3 C33_3 1_555 1_555
C33_3 H33_3 1_555 1_555
H34_3 C33_3 1_555 1_555
H35_3 C33_3 1_555 1_555
C34_3 C32_3 1_555 1_555
H36_3 C34_3 1_555 1_555
H37_3 C34_3 1_555 1_555
H38_3 C34_3 1_555 1_555
C35_3 C32_3 1_555 1_555
C36_3 H39_3 1_555 1_555
H40_3 C36_3 1_555 1_555
C37_3 C36_3 1_555 1_555
H41_3 C37_3 1_555 1_555
C38_3 C37_3 1_555 1_555
H44_3 C38_3 1_555 1_555
C39_3 C38_3 1_555 1_555
H45_3 C39_3 1_555 1_555
C40_3 C39_3 1_555 1_555
C45_3 C44_3 1_555 1_555
C46_3 H53_3 1_555 1_555
C47_3 C46_3 1_555 1_555
C48_3 C47_3 1_555 1_555
H54_3 C48_3 1_555 1_555
C49_3 C48_3 1_555 1_555
H55_3 C49_3 1_555 1_555
C50_3 C49_3 1_555 1_555
H56_3 C50_3 1_555 1_555
N7_2 C26_3 1_555 1_555
N8_3 C31_3 1_555 1_555
H59_3 N8_3 1_555 1_555
N9_3 C35_3 1_555 1_555
N10_3 C40_3 1_555 1_555
N11_3 C45_3 1_555 1_555
H60_3 N11_3 1_555 1_555
N12_3 Ag5_2 1_555 1_555
O10_2 C31_3 1_555 1_555
O6_3 C35_3 1_555 1_555
O7_3 C40_3 1_555 1_555
O8_3 C45_3 1_555 1_555
Ag4 N7_2 1_555 1_555
C30_3 N7_2 1_555 1_555
C32_3 N8_3 1_555 1_555
C36_3 N9_3 1_555 1_555
C39_3 N9_3 1_555 1_555
C44_3 N10_3 1_555 1_555
C46_3 N12_3 1_555 1_555
C47_3 N11_3 1_555 1_555
C50_3 N12_3 1_555 1_555
C26_4 H29_4 1_555 1_555
C27_4 C26_4 1_555 1_555
C31_4 C27_4 1_555 1_555
C32_4 C33_4 1_555 1_555
C33_4 H33_4 1_555 1_555
H34_4 C33_4 1_555 1_555
H35_4 C33_4 1_555 1_555
C34_4 C32_4 1_555 1_555
H36_4 C34_4 1_555 1_555
H37_4 C34_4 1_555 1_555
H38_4 C34_4 1_555 1_555
C35_4 C32_4 1_555 1_555
C36_4 H39_4 1_555 1_555
H40_4 C36_4 1_555 1_555
C37_4 C36_4 1_555 1_555
H41_4 C37_4 1_555 1_555
H42_3 C37_4 1_555 1_555
C38_4 C37_4 1_555 1_555
H43_3 C38_4 1_555 1_555
H44_4 C38_4 1_555 1_555
C39_4 C38_4 1_555 1_555
H45_4 C39_4 1_555 1_555
C40_4 C39_4 1_555 1_555
C45_4 C44_4 1_555 1_555
C48_4 C47_4 1_555 1_555
H54_4 C48_4 1_555 1_555
C49_4 C48_4 1_555 1_555
H55_4 C49_4 1_555 1_555
N8_4 C31_4 1_555 1_555
H59_4 N8_4 1_555 1_555
N9_4 C35_4 1_555 1_555
N10_4 C40_4 1_555 1_555
N11_4 C45_4 1_555 1_555
H60_4 N11_4 1_555 1_555
O10 C31_4 1_555 1_555
O6_4 C35_4 1_555 1_555
O7_4 C40_4 1_555 1_555
O8_4 C45_4 1_555 1_555
C32_4 N8_4 1_555 1_555
C36_4 N9_4 1_555 1_555
C39_4 N9_4 1_555 1_555
C44_4 N10_4 1_555 1_555
C47_4 N11_4 1_555 1_555
Ag4 N6_4 1_555 1_555
Ag5 N1_4 1_555 1_555
C1_3 H1_3 1_555 1_555
C2_3 C1_3 1_555 1_555
C3_3 C2_3 1_555 1_555
H2_3 C3_3 1_555 1_555
C6_3 C2_3 1_555 1_555
C7_3 C8_3 1_555 1_555
C8_3 H5_3 1_555 1_555
H6_3 C8_3 1_555 1_555
H7_3 C8_3 1_555 1_555
C9_4 C7_3 1_555 1_555
H8_4 C9_4 1_555 1_555
H9_4 C9_4 1_555 1_555
H10_4 C9_4 1_555 1_555
C10_4 C7_3 1_555 1_555
C11_4 H11_4 1_555 1_555
H12_3 C11_4 1_555 1_555
C12_4 C11_4 1_555 1_555
H13_4 C12_4 1_555 1_555
H17_4 C14_4 1_555 1_555
C15_4 C14_4 1_555 1_555
H24_4 C19_4 1_555 1_555
C20_4 C19_4 1_555 1_555
C21_4 H25_4 1_555 1_555
C22_4 C21_4 1_555 1_555
C23_4 C22_4 1_555 1_555
H26_4 C23_4 1_555 1_555
C24_4 C23_4 1_555 1_555
H27_4 C24_4 1_555 1_555
C25_4 C24_4 1_555 1_555
H28_4 C25_4 1_555 1_555
H30_4 C28_4 1_555 1_555
C29_4 C28_4 1_555 1_555
H31_4 C29_4 1_555 1_555
C30_4 C29_4 1_555 1_555
H32_3 C30_4 1_555 1_555
C46_4 H53_4 1_555 1_555
H56_4 C50_4 1_555 1_555
N1_4 C1_3 1_555 1_555
N2_3 C6_3 1_555 1_555
H57_3 N2_3 1_555 1_555
N3_4 C10_4 1_555 1_555
N4_4 C15_4 1_555 1_555
N5_4 C20_4 1_555 1_555
H58_4 N5_4 1_555 1_555
N6_4 C21_4 1_555 1_555
N12_4 Ag5 1_555 1_555
O1_3 C6_3 1_555 1_555
O2_4 C10_4 1_555 1_555
O9 C15_4 1_555 1_555
O4_4 C20_4 1_555 1_555
C5_3 N1_4 1_555 1_555
C7_3 N2_3 1_555 1_555
C11_4 N3_4 1_555 1_555
C14_4 N3_4 1_555 1_555
C19_4 N4_4 1_555 1_555
C22_4 N5_4 1_555 1_555
C25_4 N6_4 1_555 1_555
C30_4 N13_2 1_555 1_555
C46_4 N12_4 1_555 1_555
C50_4 N12_4 1_555 1_555
C16_3 H18_3 1_555 1_555
H19_2 C16_3 1_555 1_555
C17_3 C16_3 1_555 1_555
H20_3 C17_3 1_555 1_555
H21_3 C17_3 1_555 1_555
C18_3 C17_3 1_555 1_555
H22_3 C18_3 1_555 1_555
H23_3 C18_3 1_555 1_555
H15_3 C13_3 1_555 1_555
H16_3 C13_3 1_555 1_555
H3_3 C4_3 1_555 1_555
C1_4 H1_4 1_555 1_555
C2_4 C1_4 1_555 1_555
C3_4 C2_4 1_555 1_555
H2_4 C3_4 1_555 1_555
C6_4 C2_4 1_555 1_555
C7_4 C8_4 1_555 1_555
C8_4 H5_4 1_555 1_555
H6_4 C8_4 1_555 1_555
H7_4 C8_4 1_555 1_555
N2_4 C6_4 1_555 1_555
H57_4 N2_4 1_555 1_555
O1_4 C6_4 1_555 1_555
C7_4 N2_4 1_555 1_555
H47_3 C41_3 1_555 1_555
C42_3 C41_3 1_555 1_555
H48_3 C42_3 1_555 1_555
H49_3 C42_3 1_555 1_555
C43_3 C42_3 1_555 1_555
H50_3 C43_3 1_555 1_555
H51_3 C43_3 1_555 1_555
H47_4 C41_4 1_555 1_555
C42_4 C41_4 1_555 1_555
H48_4 C42_4 1_555 1_555
H49_4 C42_4 1_555 1_555
C43_4 C42_4 1_555 1_555
H50_4 C43_4 1_555 1_555
H51_4 C43_4 1_555 1_555
H3_4 C4_4 1_555 1_555
H15_4 C13_4 1_555 1_555
H16_4 C13_4 1_555 1_555
C16_4 H18_4 1_555 1_555
C17_4 C16_4 1_555 1_555
H20_4 C17_4 1_555 1_555
H21_4 C17_4 1_555 1_555
C18_4 C17_4 1_555 1_555
H22_4 C18_4 1_555 1_555
H23_4 C18_4 1_555 1_555

#END
