
###############################################################################
#
# This file contains modified crystal structure data generated from the
# MOF subset of the Cambridge Structural Database (CSD) v543 
# hosted by the Cambridge Crystallographic Data Centre (CCDC).
#
# This work is licensed under the Creative Commons
# Attribution-NonCommercial-ShareAlike 4.0 International License.
# To view a copy of this license, visit
# http://creativecommons.org/licenses/by-nc-sa/4.0/
# or send a letter to
# Creative Commons, PO Box 1866, Mountain View, CA 94042, USA.
#
# CIF created using the CSD Python API on 29 September 2022
# The structure has been converted into the P1 space group
# The structure has a 3D framework
# The original CSD entry HUWSUN is in the cubic crystal system
# The framework has been calculated to contain at least 10.0% void space
# The void calculation uses a probe of radius 1.32A, grid spacing 0.4
# The framework is charged, counterions have been retained in the structure
#
###############################################################################

data_HUWSUN
_chemical_formula_moiety         '(C168 H144 Co4 N24 O13 8+)n'
_symmetry_cell_setting           triclinic
_symmetry_space_group_name_H-M   'P 1'
_symmetry_Int_Tables_number      1
_space_group_name_Hall           'P 1'
loop_
_symmetry_equiv_pos_site_id
_symmetry_equiv_pos_as_xyz
1 x,y,z
_cell_length_a                   18.3520(9)
_cell_length_b                   18.3520(9)
_cell_length_c                   18.3520(9)
_cell_angle_alpha                90
_cell_angle_beta                 90
_cell_angle_gamma                90
_cell_volume                     6180.88
loop_
_atom_site_label
_atom_site_type_symbol
_atom_site_fract_x
_atom_site_fract_y
_atom_site_fract_z
Co2 Co -0.0000 0.5000 0.5000
Co6 Co 0.5000 -0.0000 0.5000
Co4 Co 0.5000 0.5000 -0.0000
N1 N 0.5642(2) 0.5077(2) 0.3062(2)
C1 C 0.5125(3) 0.4573(3) 0.2966(3)
H1 H 0.4975(3) 0.4298(3) 0.3364(3)
C2 C 0.4808(4) 0.4448(4) 0.2305(3)
H2 H 0.4444(4) 0.4098(4) 0.2263(3)
O1 O 0.4720(2) 0.4748(2) 0.1066(2)
C3 C 0.5028(3) 0.4846(2) 0.1681(3)
C4 C 0.5593(3) 0.5379(3) 0.1794(3)
H3 H 0.5766(3) 0.5656(3) 0.1407(3)
C5 C 0.5867(3) 0.5471(3) 0.2466(3)
H4 H 0.6229(3) 0.5820(3) 0.2531(3)
C6 C 0.6005(3) 0.5187(3) 0.3773(3)
H5 H 0.6211(3) 0.5673(3) 0.3789(3)
H6 H 0.6401(3) 0.4841(3) 0.3821(3)
C7 C 0.5476(3) 0.5091(3) 0.4418(3)
C8 C 0.5582(3) 0.4524(3) 0.4909(3)
C9 C 0.6227(3) 0.3995(3) 0.4813(3)
N2 N 0.6938(2) 0.4358(2) 0.4923(2)
C10 C 0.7034(3) 0.4875(3) 0.5427(3)
H7 H 0.6636(3) 0.5025(3) 0.5702(3)
C11 C 0.7695(3) 0.5192(4) 0.5552(4)
H8 H 0.7737(3) 0.5556(4) 0.5902(4)
C12 C 0.8319(3) 0.4972(3) 0.5154(2)
O2 O 0.8934(2) 0.5280(2) 0.5252(2)
C13 C 0.8206(3) 0.4407(3) 0.4621(3)
H9 H 0.8593(3) 0.4234(3) 0.4344(3)
C14 C 0.7534(3) 0.4133(3) 0.4529(3)
H10 H 0.7469(3) 0.3771(3) 0.4180(3)
H11 H 0.6211(3) 0.3789(3) 0.4327(3)
H12 H 0.6179(3) 0.3599(3) 0.5159(3)
C15 C 0.5091(3) 0.4418(3) 0.5476(3)
C16 C 0.5187(3) 0.3773(3) 0.6005(3)
N3 N 0.5077(2) 0.3062(2) 0.5642(2)
C17 C 0.4573(3) 0.2966(3) 0.5125(3)
H13 H 0.4298(3) 0.3364(3) 0.4975(3)
C18 C 0.4448(4) 0.2305(3) 0.4808(4)
H14 H 0.4098(4) 0.2263(3) 0.4444(4)
C19 C 0.4846(2) 0.1681(3) 0.5028(3)
O3 O 0.4748(2) 0.1066(2) 0.4720(2)
C20 C 0.5379(3) 0.1794(3) 0.5593(3)
H15 H 0.5656(3) 0.1407(3) 0.5766(3)
C21 C 0.5471(3) 0.2466(3) 0.5867(3)
H16 H 0.5820(3) 0.2531(3) 0.6229(3)
H17 H 0.5673(3) 0.3789(3) 0.6211(3)
H18 H 0.4841(3) 0.3821(3) 0.6401(3)
C22 C 0.4524(3) 0.4909(3) 0.5582(3)
C23 C 0.3995(3) 0.4813(3) 0.6227(3)
N4 N 0.4358(2) 0.4923(2) 0.6938(2)
C24 C 0.4875(3) 0.5427(3) 0.7034(3)
H19 H 0.5025(3) 0.5702(3) 0.6636(3)
C25 C 0.5192(4) 0.5552(4) 0.7695(3)
H20 H 0.5556(4) 0.5902(4) 0.7737(3)
C26 C 0.4972(3) 0.5154(2) 0.8319(3)
O4 O 0.5280(2) 0.5252(2) 0.8934(2)
C27 C 0.4407(3) 0.4621(3) 0.8206(3)
H21 H 0.4234(3) 0.4344(3) 0.8593(3)
C28 C 0.4133(3) 0.4529(3) 0.7534(3)
H22 H 0.3771(3) 0.4180(3) 0.7469(3)
H23 H 0.3789(3) 0.4327(3) 0.6211(3)
H24 H 0.3599(3) 0.5159(3) 0.6179(3)
C29 C 0.4418(3) 0.5476(3) 0.5091(3)
C30 C 0.3773(3) 0.6005(3) 0.5187(3)
N5 N 0.3062(2) 0.5642(2) 0.5077(2)
C31 C 0.2966(3) 0.5125(3) 0.4573(3)
H25 H 0.3364(3) 0.4975(3) 0.4298(3)
C32 C 0.2305(3) 0.4808(4) 0.4448(4)
H26 H 0.2263(3) 0.4444(4) 0.4098(4)
C33 C 0.1681(3) 0.5028(3) 0.4846(2)
O5 O 0.1066(2) 0.4720(2) 0.4748(2)
C34 C 0.1794(3) 0.5593(3) 0.5379(3)
H27 H 0.1407(3) 0.5766(3) 0.5656(3)
C35 C 0.2466(3) 0.5867(3) 0.5471(3)
H28 H 0.2531(3) 0.6229(3) 0.5820(3)
H29 H 0.3789(3) 0.6211(3) 0.5673(3)
H30 H 0.3821(3) 0.6401(3) 0.4841(3)
C36 C 0.4909(3) 0.5582(3) 0.4524(3)
C37 C 0.4813(3) 0.6227(3) 0.3995(3)
N6 N 0.4923(2) 0.6938(2) 0.4358(2)
C38 C 0.5427(3) 0.7034(3) 0.4875(3)
H31 H 0.5702(3) 0.6636(3) 0.5025(3)
C39 C 0.5552(4) 0.7695(3) 0.5192(4)
H32 H 0.5902(4) 0.7737(3) 0.5556(4)
C40 C 0.5154(2) 0.8319(3) 0.4972(3)
O6 O 0.5252(2) 0.8934(2) 0.5280(2)
C41 C 0.4621(3) 0.8206(3) 0.4407(3)
H33 H 0.4344(3) 0.8593(3) 0.4234(3)
C42 C 0.4529(3) 0.7534(3) 0.4133(3)
H34 H 0.4180(3) 0.7469(3) 0.3771(3)
H35 H 0.4327(3) 0.6211(3) 0.3789(3)
H36 H 0.5159(3) 0.6179(3) 0.3599(3)
O7 O 0.6066(2) 0.4720(2) 0.0252(2)
O11 O 0.5252(2) 0.6066(2) 0.0280(2)
Co2_2 Co 1.0000 0.5000 0.5000
Co4_2 Co 0.5000 0.5000 1.0000
Co6_2 Co 0.5000 1.0000 0.5000
O8 O 0.4748(2) 0.3934(2) 0.9720(2)
O10 O 0.3934(2) 0.5280(2) 0.9748(2)
O7_2 O 0.0252(2) 0.6066(2) 0.4720(2)
O11_2 O 0.0280(2) 0.5252(2) 0.6066(2)
O8_2 O 0.9720(2) 0.4748(2) 0.3934(2)
O10_2 O 0.9748(2) 0.3934(2) 0.5280(2)
O7_3 O 0.4720(2) 0.0252(2) 0.6066(2)
O11_3 O 0.6066(2) 0.0280(2) 0.5252(2)
O8_3 O 0.3934(2) 0.9720(2) 0.4748(2)
O10_3 O 0.5280(2) 0.9748(2) 0.3934(2)
Co3 Co 0.0000 0.0000 -0.0000
Co3_2 Co 0.0000 0.0000 1.0000
C17_2 C 0.0427(3) 0.7034(3) 0.0125(3)
C19_2 C 0.0154(2) 0.8319(3) 0.0028(3)
H18_2 H 0.0159(3) 0.6179(3) 0.1401(3)
C22_2 C 0.0476(3) 0.5091(3) 0.0582(3)
C23_2 C 0.1005(3) 0.5187(3) 0.1227(3)
N4_2 N 0.0642(2) 0.5077(2) 0.1938(2)
C24_2 C 0.0125(3) 0.4573(3) 0.2034(3)
C26_2 C 0.0028(3) 0.4846(2) 0.3319(3)
C27_2 C 0.0593(3) 0.5379(3) 0.3206(3)
H21_2 H 0.0766(3) 0.5656(3) 0.3593(3)
C28_2 C 0.0867(3) 0.5471(3) 0.2534(3)
H22_2 H 0.1229(3) 0.5820(3) 0.2469(3)
H23_2 H 0.1211(3) 0.5673(3) 0.1211(3)
H24_2 H 0.1401(3) 0.4841(3) 0.1179(3)
C29_2 C 0.0582(3) 0.4524(3) 0.0091(3)
C30_2 C 0.1227(3) 0.3995(3) 0.0187(3)
N5_2 N 0.1938(2) 0.4358(2) 0.0077(2)
C34_2 C 0.3206(3) 0.4407(3) 0.0379(3)
H27_2 H 0.3593(3) 0.4234(3) 0.0656(3)
C35_2 C 0.2534(3) 0.4133(3) 0.0471(3)
H28_2 H 0.2469(3) 0.3771(3) 0.0820(3)
H29_2 H 0.1211(3) 0.3789(3) 0.0673(3)
Co3_3 Co 0.0000 1.0000 -0.0000
H1_2 H 0.0025(3) 0.5702(3) 0.8364(3)
C2_2 C 0.0192(4) 0.5552(4) 0.7305(3)
H2_2 H 0.0556(4) 0.5902(4) 0.7263(3)
H13_2 H 0.0702(3) 0.6636(3) 0.9975(3)
C18_2 C 0.0552(4) 0.7695(3) 0.9808(4)
H14_2 H 0.0902(4) 0.7737(3) 0.9444(4)
O3_2 O 0.0252(2) 0.8934(2) 0.9720(2)
C31_2 C 0.2034(3) 0.4875(3) 0.9573(3)
H25_2 H 0.1636(3) 0.5025(3) 0.9298(3)
C32_2 C 0.2695(3) 0.5192(4) 0.9448(4)
H26_2 H 0.2737(3) 0.5556(4) 0.9098(4)
C33_2 C 0.3319(3) 0.4972(3) 0.9846(2)
H30_2 H 0.1179(3) 0.3599(3) 0.9841(3)
C36_2 C 0.0091(3) 0.4418(3) 0.9524(3)
C37_2 C 0.0187(3) 0.3773(3) 0.8995(3)
N6_2 N 0.0077(2) 0.3062(2) 0.9358(2)
C41_2 C 0.0379(3) 0.1794(3) 0.9407(3)
H33_2 H 0.0656(3) 0.1407(3) 0.9234(3)
C42_2 C 0.0471(3) 0.2466(3) 0.9133(3)
H34_2 H 0.0820(3) 0.2531(3) 0.8771(3)
H35_2 H 0.0673(3) 0.3789(3) 0.8789(3)
Co3_4 Co 0.0000 1.0000 1.0000
Co3_5 Co 1.0000 0.0000 -0.0000
Co3_6 Co 1.0000 0.0000 1.0000
C10_2 C 0.7966(3) 0.5125(3) 0.0427(3)
H7_2 H 0.8364(3) 0.4975(3) 0.0702(3)
C11_2 C 0.7305(3) 0.4808(4) 0.0552(4)
H8_2 H 0.7263(3) 0.4444(4) 0.0902(4)
C12_2 C 0.6681(3) 0.5028(3) 0.0154(2)
H12_2 H 0.8821(3) 0.6401(3) 0.0159(3)
C15_2 C 0.9909(3) 0.5582(3) 0.0476(3)
C16_2 C 0.9813(3) 0.6227(3) 0.1005(3)
N3_2 N 0.9923(2) 0.6938(2) 0.0642(2)
C20_2 C 0.9621(3) 0.8206(3) 0.0593(3)
H15_2 H 0.9344(3) 0.8593(3) 0.0766(3)
C21_2 C 0.9529(3) 0.7534(3) 0.0867(3)
H16_2 H 0.9180(3) 0.7469(3) 0.1229(3)
H17_2 H 0.9327(3) 0.6211(3) 0.1211(3)
H19_2 H 0.9975(3) 0.4298(3) 0.1636(3)
C25_2 C 0.9808(4) 0.4448(4) 0.2695(3)
H20_2 H 0.9444(4) 0.4098(4) 0.2737(3)
H31_2 H 0.9298(3) 0.3364(3) 0.0025(3)
C39_2 C 0.9448(4) 0.2305(3) 0.0192(4)
H32_2 H 0.9098(4) 0.2263(3) 0.0556(4)
O6_2 O 0.9748(2) 0.1066(2) 0.0280(2)
Co3_7 Co 1.0000 1.0000 -0.0000
N1_2 N 0.9358(2) 0.4923(2) 0.8062(2)
C1_2 C 0.9875(3) 0.5427(3) 0.7966(3)
C3_2 C 0.9972(3) 0.5154(2) 0.6681(3)
C4_2 C 0.9407(3) 0.4621(3) 0.6794(3)
H3_2 H 0.9234(3) 0.4344(3) 0.6407(3)
C5_2 C 0.9133(3) 0.4529(3) 0.7466(3)
H4_2 H 0.8771(3) 0.4180(3) 0.7531(3)
C6_2 C 0.8995(3) 0.4813(3) 0.8773(3)
H5_2 H 0.8789(3) 0.4327(3) 0.8789(3)
H6_2 H 0.8599(3) 0.5159(3) 0.8821(3)
C7_2 C 0.9524(3) 0.4909(3) 0.9418(3)
C8_2 C 0.9418(3) 0.5476(3) 0.9909(3)
C9_2 C 0.8773(3) 0.6005(3) 0.9813(3)
N2_2 N 0.8062(2) 0.5642(2) 0.9923(2)
C13_2 C 0.6794(3) 0.5593(3) 0.9621(3)
H9_2 H 0.6407(3) 0.5766(3) 0.9344(3)
C14_2 C 0.7466(3) 0.5867(3) 0.9529(3)
H10_2 H 0.7531(3) 0.6229(3) 0.9180(3)
H11_2 H 0.8789(3) 0.6211(3) 0.9327(3)
C38_2 C 0.9573(3) 0.2966(3) 0.9875(3)
C40_2 C 0.9846(2) 0.1681(3) 0.9972(3)
H36_2 H 0.9841(3) 0.3821(3) 0.8599(3)
Co3_8 Co 1.0000 1.0000 1.0000
N1_3 N 0.4358(2) 0.0077(2) 0.1938(2)
C4_3 C 0.4407(3) 0.0379(3) 0.3206(3)
H3_3 H 0.4234(3) 0.0656(3) 0.3593(3)
C5_3 C 0.4133(3) 0.0471(3) 0.2534(3)
H4_3 H 0.3771(3) 0.0820(3) 0.2469(3)
C6_3 C 0.3995(3) 0.0187(3) 0.1227(3)
H5_3 H 0.3789(3) 0.0673(3) 0.1211(3)
C7_3 C 0.4524(3) 0.0091(3) 0.0582(3)
C31_3 C 0.7034(3) 0.0125(3) 0.0427(3)
C33_3 C 0.8319(3) 0.0028(3) 0.0154(2)
H30_3 H 0.6179(3) 0.1401(3) 0.0159(3)
C36_3 C 0.5091(3) 0.0582(3) 0.0476(3)
C37_3 C 0.5187(3) 0.1227(3) 0.1005(3)
N6_3 N 0.5077(2) 0.1938(2) 0.0642(2)
C38_3 C 0.4573(3) 0.2034(3) 0.0125(3)
C40_3 C 0.4846(2) 0.3319(3) 0.0028(3)
C41_3 C 0.5379(3) 0.3206(3) 0.0593(3)
H33_3 H 0.5656(3) 0.3593(3) 0.0766(3)
C42_3 C 0.5471(3) 0.2534(3) 0.0867(3)
H34_3 H 0.5820(3) 0.2469(3) 0.1229(3)
H35_3 H 0.5673(3) 0.1211(3) 0.1211(3)
H36_3 H 0.4841(3) 0.1179(3) 0.1401(3)
H7_3 H 0.3364(3) 0.0025(3) 0.9298(3)
C11_3 C 0.2305(3) 0.0192(4) 0.9448(4)
H8_3 H 0.2263(3) 0.0556(4) 0.9098(4)
O2_2 O 0.1066(2) 0.0280(2) 0.9748(2)
C24_3 C 0.5125(3) 0.0427(3) 0.7966(3)
H19_3 H 0.4975(3) 0.0702(3) 0.8364(3)
C25_3 C 0.4808(4) 0.0552(4) 0.7305(3)
H20_3 H 0.4444(4) 0.0902(4) 0.7263(3)
C26_3 C 0.5028(3) 0.0154(2) 0.6681(3)
H24_3 H 0.6401(3) 0.0159(3) 0.8821(3)
C29_3 C 0.5582(3) 0.0476(3) 0.9909(3)
C30_3 C 0.6227(3) 0.1005(3) 0.9813(3)
N5_3 N 0.6938(2) 0.0642(2) 0.9923(2)
C34_3 C 0.8206(3) 0.0593(3) 0.9621(3)
H27_3 H 0.8593(3) 0.0766(3) 0.9344(3)
C35_3 C 0.7534(3) 0.0867(3) 0.9529(3)
H28_3 H 0.7469(3) 0.1229(3) 0.9180(3)
H29_3 H 0.6211(3) 0.1211(3) 0.9327(3)
H31_3 H 0.4298(3) 0.1636(3) 0.9975(3)
C39_3 C 0.4448(4) 0.2695(3) 0.9808(4)
H32_3 H 0.4098(4) 0.2737(3) 0.9444(4)
C1_3 C 0.4875(3) 0.9573(3) 0.2034(3)
H1_3 H 0.5025(3) 0.9298(3) 0.1636(3)
C2_3 C 0.5192(4) 0.9448(4) 0.2695(3)
H2_3 H 0.5556(4) 0.9098(4) 0.2737(3)
C3_3 C 0.4972(3) 0.9846(2) 0.3319(3)
H6_3 H 0.3599(3) 0.9841(3) 0.1179(3)
C8_3 C 0.4418(3) 0.9524(3) 0.0091(3)
C9_3 C 0.3773(3) 0.8995(3) 0.0187(3)
N2_3 N 0.3062(2) 0.9358(2) 0.0077(2)
C13_3 C 0.1794(3) 0.9407(3) 0.0379(3)
H9_3 H 0.1407(3) 0.9234(3) 0.0656(3)
C14_3 C 0.2466(3) 0.9133(3) 0.0471(3)
H10_3 H 0.2531(3) 0.8771(3) 0.0820(3)
H11_3 H 0.3789(3) 0.8789(3) 0.0673(3)
H13_3 H 0.5702(3) 0.8364(3) 0.0025(3)
C18_3 C 0.5552(4) 0.7305(3) 0.0192(4)
H14_3 H 0.5902(4) 0.7263(3) 0.0556(4)
H25_3 H 0.6636(3) 0.9975(3) 0.0702(3)
C32_3 C 0.7695(3) 0.9808(4) 0.0552(4)
H26_3 H 0.7737(3) 0.9444(4) 0.0902(4)
O5_2 O 0.8934(2) 0.9720(2) 0.0252(2)
C10_3 C 0.2966(3) 0.9875(3) 0.9573(3)
C12_3 C 0.1681(3) 0.9972(3) 0.9846(2)
H12_3 H 0.3821(3) 0.8599(3) 0.9841(3)
C15_3 C 0.4909(3) 0.9418(3) 0.9524(3)
C16_3 C 0.4813(3) 0.8773(3) 0.8995(3)
N3_3 N 0.4923(2) 0.8062(2) 0.9358(2)
C17_3 C 0.5427(3) 0.7966(3) 0.9875(3)
C19_3 C 0.5154(2) 0.6681(3) 0.9972(3)
C20_3 C 0.4621(3) 0.6794(3) 0.9407(3)
H15_3 H 0.4344(3) 0.6407(3) 0.9234(3)
C21_3 C 0.4529(3) 0.7466(3) 0.9133(3)
H16_3 H 0.4180(3) 0.7531(3) 0.8771(3)
H17_3 H 0.4327(3) 0.8789(3) 0.8789(3)
H18_3 H 0.5159(3) 0.8821(3) 0.8599(3)
C22_3 C 0.5476(3) 0.9909(3) 0.9418(3)
C23_3 C 0.6005(3) 0.9813(3) 0.8773(3)
N4_3 N 0.5642(2) 0.9923(2) 0.8062(2)
C27_3 C 0.5593(3) 0.9621(3) 0.6794(3)
H21_3 H 0.5766(3) 0.9344(3) 0.6407(3)
C28_3 C 0.5867(3) 0.9529(3) 0.7466(3)
H22_3 H 0.6229(3) 0.9180(3) 0.7531(3)
H23_3 H 0.6211(3) 0.9327(3) 0.8789(3)
C1_4 C 0.0125(3) 0.0427(3) 0.7034(3)
C3_4 C 0.0028(3) 0.0154(2) 0.8319(3)
H6_4 H 0.1401(3) 0.0159(3) 0.6179(3)
C8_4 C 0.0582(3) 0.0476(3) 0.5091(3)
C9_4 C 0.1227(3) 0.1005(3) 0.5187(3)
N2_4 N 0.1938(2) 0.0642(2) 0.5077(2)
C10_4 C 0.2034(3) 0.0125(3) 0.4573(3)
C12_4 C 0.3319(3) 0.0028(3) 0.4846(2)
C13_4 C 0.3206(3) 0.0593(3) 0.5379(3)
H9_4 H 0.3593(3) 0.0766(3) 0.5656(3)
C14_4 C 0.2534(3) 0.0867(3) 0.5471(3)
H10_4 H 0.2469(3) 0.1229(3) 0.5820(3)
H11_4 H 0.1211(3) 0.1211(3) 0.5673(3)
H12_4 H 0.1179(3) 0.1401(3) 0.4841(3)
C15_4 C 0.0091(3) 0.0582(3) 0.4524(3)
C16_4 C 0.0187(3) 0.1227(3) 0.3995(3)
N3_4 N 0.0077(2) 0.1938(2) 0.4358(2)
C20_4 C 0.0379(3) 0.3206(3) 0.4407(3)
H15_4 H 0.0656(3) 0.3593(3) 0.4234(3)
C21_4 C 0.0471(3) 0.2534(3) 0.4133(3)
H16_4 H 0.0820(3) 0.2469(3) 0.3771(3)
H17_4 H 0.0673(3) 0.1211(3) 0.3789(3)
O9 O 0.0280(2) 0.9748(2) 0.1066(2)
N1_4 N 0.0642(2) 0.9923(2) 0.6938(2)
C4_4 C 0.0593(3) 0.9621(3) 0.8206(3)
H3_4 H 0.0766(3) 0.9344(3) 0.8593(3)
C5_4 C 0.0867(3) 0.9529(3) 0.7534(3)
H4_4 H 0.1229(3) 0.9180(3) 0.7469(3)
C6_4 C 0.1005(3) 0.9813(3) 0.6227(3)
H5_4 H 0.1211(3) 0.9327(3) 0.6211(3)
C7_4 C 0.0476(3) 0.9909(3) 0.5582(3)
H7_4 H 0.1636(3) 0.9975(3) 0.4298(3)
C11_4 C 0.2695(3) 0.9808(4) 0.4448(4)
H8_4 H 0.2737(3) 0.9444(4) 0.4098(4)
H19_4 H 0.0025(3) 0.9298(3) 0.3364(3)
C25_4 C 0.0192(4) 0.9448(4) 0.2305(3)
H20_4 H 0.0556(4) 0.9098(4) 0.2263(3)
C38_4 C 0.0427(3) 0.7966(3) 0.5125(3)
H31_4 H 0.0702(3) 0.8364(3) 0.4975(3)
C39_4 C 0.0552(4) 0.7305(3) 0.4808(4)
H32_4 H 0.0902(4) 0.7263(3) 0.4444(4)
C40_4 C 0.0154(2) 0.6681(3) 0.5028(3)
H36_4 H 0.0159(3) 0.8821(3) 0.6401(3)
H1_4 H 0.9975(3) 0.0702(3) 0.6636(3)
C2_4 C 0.9808(4) 0.0552(4) 0.7695(3)
H2_4 H 0.9444(4) 0.0902(4) 0.7737(3)
O1_2 O 0.9720(2) 0.0252(2) 0.8934(2)
C17_4 C 0.9573(3) 0.2034(3) 0.4875(3)
H13_4 H 0.9298(3) 0.1636(3) 0.5025(3)
C18_4 C 0.9448(4) 0.2695(3) 0.5192(4)
H14_4 H 0.9098(4) 0.2737(3) 0.5556(4)
C19_4 C 0.9846(2) 0.3319(3) 0.4972(3)
H18_4 H 0.9841(3) 0.1179(3) 0.3599(3)
C22_4 C 0.9524(3) 0.0091(3) 0.4418(3)
C23_4 C 0.8995(3) 0.0187(3) 0.3773(3)
N4_4 N 0.9358(2) 0.0077(2) 0.3062(2)
C27_4 C 0.9407(3) 0.0379(3) 0.1794(3)
H21_4 H 0.9234(3) 0.0656(3) 0.1407(3)
C28_4 C 0.9133(3) 0.0471(3) 0.2466(3)
H22_4 H 0.8771(3) 0.0820(3) 0.2531(3)
H23_4 H 0.8789(3) 0.0673(3) 0.3789(3)
H25_4 H 0.8364(3) 0.0025(3) 0.5702(3)
C32_4 C 0.7305(3) 0.0192(4) 0.5552(4)
H26_4 H 0.7263(3) 0.0556(4) 0.5902(4)
C24_4 C 0.9875(3) 0.9573(3) 0.2966(3)
C26_4 C 0.9972(3) 0.9846(2) 0.1681(3)
H24_4 H 0.8599(3) 0.9841(3) 0.3821(3)
C29_4 C 0.9418(3) 0.9524(3) 0.4909(3)
C30_4 C 0.8773(3) 0.8995(3) 0.4813(3)
N5_4 N 0.8062(2) 0.9358(2) 0.4923(2)
C31_4 C 0.7966(3) 0.9875(3) 0.5427(3)
C33_4 C 0.6681(3) 0.9972(3) 0.5154(2)
C34_4 C 0.6794(3) 0.9407(3) 0.4621(3)
H27_4 H 0.6407(3) 0.9234(3) 0.4344(3)
C35_4 C 0.7466(3) 0.9133(3) 0.4529(3)
H28_4 H 0.7531(3) 0.8771(3) 0.4180(3)
H29_4 H 0.8789(3) 0.8789(3) 0.4327(3)
H30_4 H 0.8821(3) 0.8599(3) 0.5159(3)
C36_4 C 0.9909(3) 0.9418(3) 0.5476(3)
C37_4 C 0.9813(3) 0.8773(3) 0.6005(3)
N6_4 N 0.9923(2) 0.8062(2) 0.5642(2)
C41_4 C 0.9621(3) 0.6794(3) 0.5593(3)
H33_4 H 0.9344(3) 0.6407(3) 0.5766(3)
C42_4 C 0.9529(3) 0.7466(3) 0.5867(3)
H34_4 H 0.9180(3) 0.7531(3) 0.6229(3)
H35_4 H 0.9327(3) 0.8789(3) 0.6211(3)
loop_
_geom_bond_atom_site_label_1
_geom_bond_atom_site_label_2
_geom_bond_site_symmetry_1
_geom_bond_site_symmetry_2
Co4 O1 1_555 1_555
N1 C1 1_555 1_555
C1 H1 1_555 1_555
C2 C1 1_555 1_555
H2 C2 1_555 1_555
O1 C3 1_555 1_555
C3 C2 1_555 1_555
C4 C3 1_555 1_555
H3 C4 1_555 1_555
C5 N1 1_555 1_555
H4 C5 1_555 1_555
C6 N1 1_555 1_555
H5 C6 1_555 1_555
H6 C6 1_555 1_555
C7 C6 1_555 1_555
C8 C7 1_555 1_555
C9 C8 1_555 1_555
N2 C9 1_555 1_555
C10 N2 1_555 1_555
H7 C10 1_555 1_555
C11 C10 1_555 1_555
H8 C11 1_555 1_555
C12 C11 1_555 1_555
O2 C12 1_555 1_555
C13 C12 1_555 1_555
H9 C13 1_555 1_555
C14 N2 1_555 1_555
H10 C14 1_555 1_555
H11 C9 1_555 1_555
H12 C9 1_555 1_555
C15 C8 1_555 1_555
C16 C15 1_555 1_555
N3 C16 1_555 1_555
C17 N3 1_555 1_555
H13 C17 1_555 1_555
C18 C17 1_555 1_555
H14 C18 1_555 1_555
C19 C18 1_555 1_555
O3 C19 1_555 1_555
C20 C19 1_555 1_555
H15 C20 1_555 1_555
C21 N3 1_555 1_555
H16 C21 1_555 1_555
H17 C16 1_555 1_555
H18 C16 1_555 1_555
C22 C15 1_555 1_555
C23 C22 1_555 1_555
N4 C23 1_555 1_555
C24 N4 1_555 1_555
H19 C24 1_555 1_555
C25 C24 1_555 1_555
H20 C25 1_555 1_555
C26 C25 1_555 1_555
O4 C26 1_555 1_555
C27 C26 1_555 1_555
H21 C27 1_555 1_555
C28 N4 1_555 1_555
H22 C28 1_555 1_555
H23 C23 1_555 1_555
H24 C23 1_555 1_555
C29 C22 1_555 1_555
C30 C29 1_555 1_555
N5 C30 1_555 1_555
C31 N5 1_555 1_555
H25 C31 1_555 1_555
C32 C31 1_555 1_555
H26 C32 1_555 1_555
C33 C32 1_555 1_555
O5 C33 1_555 1_555
C34 C33 1_555 1_555
H27 C34 1_555 1_555
C35 N5 1_555 1_555
H28 C35 1_555 1_555
H29 C30 1_555 1_555
H30 C30 1_555 1_555
C36 C7 1_555 1_555
C37 C36 1_555 1_555
N6 C37 1_555 1_555
C38 N6 1_555 1_555
H31 C38 1_555 1_555
C39 C38 1_555 1_555
H32 C39 1_555 1_555
C40 C39 1_555 1_555
O6 C40 1_555 1_555
C41 C40 1_555 1_555
H33 C41 1_555 1_555
C42 N6 1_555 1_555
H34 C42 1_555 1_555
H35 C37 1_555 1_555
H36 C37 1_555 1_555
O7 Co4 1_555 1_555
O11 Co4 1_555 1_555
Co2_2 O2 1_555 1_555
Co6 O3 1_555 1_555
Co4_2 O4 1_555 1_555
Co2 O5 1_555 1_555
Co6_2 O6 1_555 1_555
C4 C5 1_555 1_555
C13 C14 1_555 1_555
C20 C21 1_555 1_555
C27 C28 1_555 1_555
C29 C36 1_555 1_555
C34 C35 1_555 1_555
C41 C42 1_555 1_555
O8 Co4_2 1_555 1_555
O10 Co4_2 1_555 1_555
O7_2 Co2 1_555 1_555
O11_2 Co2 1_555 1_555
O8_2 Co2_2 1_555 1_555
O10_2 Co2_2 1_555 1_555
O7_3 Co6 1_555 1_555
O11_3 Co6 1_555 1_555
O8_3 Co6_2 1_555 1_555
O10_3 Co6_2 1_555 1_555
C23_2 C22_2 1_555 1_555
N4_2 C23_2 1_555 1_555
C24_2 N4_2 1_555 1_555
C27_2 C26_2 1_555 1_555
H21_2 C27_2 1_555 1_555
C28_2 N4_2 1_555 1_555
H22_2 C28_2 1_555 1_555
H23_2 C23_2 1_555 1_555
H24_2 C23_2 1_555 1_555
C29_2 C22_2 1_555 1_555
C30_2 C29_2 1_555 1_555
N5_2 C30_2 1_555 1_555
H27_2 C34_2 1_555 1_555
C35_2 N5_2 1_555 1_555
H28_2 C35_2 1_555 1_555
H29_2 C30_2 1_555 1_555
C27_2 C28_2 1_555 1_555
C34_2 C35_2 1_555 1_555
H2_2 C2_2 1_555 1_555
H14_2 C18_2 1_555 1_555
H25_2 C31_2 1_555 1_555
C32_2 C31_2 1_555 1_555
H26_2 C32_2 1_555 1_555
C33_2 C32_2 1_555 1_555
O10 C33_2 1_555 1_555
C37_2 C36_2 1_555 1_555
N6_2 C37_2 1_555 1_555
H33_2 C41_2 1_555 1_555
C42_2 N6_2 1_555 1_555
H34_2 C42_2 1_555 1_555
H35_2 C37_2 1_555 1_555
Co3_4 O3_2 1_555 1_555
C41_2 C42_2 1_555 1_555
H7_2 C10_2 1_555 1_555
C11_2 C10_2 1_555 1_555
H8_2 C11_2 1_555 1_555
C12_2 C11_2 1_555 1_555
O7 C12_2 1_555 1_555
C16_2 C15_2 1_555 1_555
N3_2 C16_2 1_555 1_555
H15_2 C20_2 1_555 1_555
C21_2 N3_2 1_555 1_555
H16_2 C21_2 1_555 1_555
H17_2 C16_2 1_555 1_555
H20_2 C25_2 1_555 1_555
H32_2 C39_2 1_555 1_555
Co3_5 O6_2 1_555 1_555
C20_2 C21_2 1_555 1_555
N1_2 C1_2 1_555 1_555
C4_2 C3_2 1_555 1_555
H3_2 C4_2 1_555 1_555
C5_2 N1_2 1_555 1_555
H4_2 C5_2 1_555 1_555
C6_2 N1_2 1_555 1_555
H5_2 C6_2 1_555 1_555
H6_2 C6_2 1_555 1_555
C7_2 C6_2 1_555 1_555
C8_2 C7_2 1_555 1_555
C9_2 C8_2 1_555 1_555
N2_2 C9_2 1_555 1_555
H9_2 C13_2 1_555 1_555
C14_2 N2_2 1_555 1_555
H10_2 C14_2 1_555 1_555
H11_2 C9_2 1_555 1_555
C4_2 C5_2 1_555 1_555
C13_2 C14_2 1_555 1_555
H3_3 C4_3 1_555 1_555
C5_3 N1_3 1_555 1_555
H4_3 C5_3 1_555 1_555
C6_3 N1_3 1_555 1_555
H5_3 C6_3 1_555 1_555
C7_3 C6_3 1_555 1_555
C36_3 C7_3 1_555 1_555
C37_3 C36_3 1_555 1_555
N6_3 C37_3 1_555 1_555
C38_3 N6_3 1_555 1_555
C41_3 C40_3 1_555 1_555
H33_3 C41_3 1_555 1_555
C42_3 N6_3 1_555 1_555
H34_3 C42_3 1_555 1_555
H35_3 C37_3 1_555 1_555
H36_3 C37_3 1_555 1_555
C4_3 C5_3 1_555 1_555
C41_3 C42_3 1_555 1_555
H8_3 C11_3 1_555 1_555
H19_3 C24_3 1_555 1_555
C25_3 C24_3 1_555 1_555
H20_3 C25_3 1_555 1_555
C26_3 C25_3 1_555 1_555
O7_3 C26_3 1_555 1_555
C30_3 C29_3 1_555 1_555
N5_3 C30_3 1_555 1_555
H27_3 C34_3 1_555 1_555
C35_3 N5_3 1_555 1_555
H28_3 C35_3 1_555 1_555
H29_3 C30_3 1_555 1_555
H32_3 C39_3 1_555 1_555
Co3_2 O2_2 1_555 1_555
C34_3 C35_3 1_555 1_555
C1_3 H1_3 1_555 1_555
C2_3 C1_3 1_555 1_555
H2_3 C2_3 1_555 1_555
O10_3 C3_3 1_555 1_555
C3_3 C2_3 1_555 1_555
C9_3 C8_3 1_555 1_555
N2_3 C9_3 1_555 1_555
H9_3 C13_3 1_555 1_555
C14_3 N2_3 1_555 1_555
H10_3 C14_3 1_555 1_555
H11_3 C9_3 1_555 1_555
H14_3 C18_3 1_555 1_555
H26_3 C32_3 1_555 1_555
Co3_7 O5_2 1_555 1_555
C13_3 C14_3 1_555 1_555
C16_3 C15_3 1_555 1_555
N3_3 C16_3 1_555 1_555
C17_3 N3_3 1_555 1_555
C20_3 C19_3 1_555 1_555
H15_3 C20_3 1_555 1_555
C21_3 N3_3 1_555 1_555
H16_3 C21_3 1_555 1_555
H17_3 C16_3 1_555 1_555
H18_3 C16_3 1_555 1_555
C22_3 C15_3 1_555 1_555
C23_3 C22_3 1_555 1_555
N4_3 C23_3 1_555 1_555
H21_3 C27_3 1_555 1_555
C28_3 N4_3 1_555 1_555
H22_3 C28_3 1_555 1_555
H23_3 C23_3 1_555 1_555
C20_3 C21_3 1_555 1_555
C27_3 C28_3 1_555 1_555
C9_4 C8_4 1_555 1_555
N2_4 C9_4 1_555 1_555
C10_4 N2_4 1_555 1_555
C13_4 C12_4 1_555 1_555
H9_4 C13_4 1_555 1_555
C14_4 N2_4 1_555 1_555
H10_4 C14_4 1_555 1_555
H11_4 C9_4 1_555 1_555
H12_4 C9_4 1_555 1_555
C15_4 C8_4 1_555 1_555
C16_4 C15_4 1_555 1_555
N3_4 C16_4 1_555 1_555
H15_4 C20_4 1_555 1_555
C21_4 N3_4 1_555 1_555
H16_4 C21_4 1_555 1_555
H17_4 C16_4 1_555 1_555
C13_4 C14_4 1_555 1_555
C20_4 C21_4 1_555 1_555
O9 Co3_3 1_555 1_555
H3_4 C4_4 1_555 1_555
C5_4 N1_4 1_555 1_555
H4_4 C5_4 1_555 1_555
C6_4 N1_4 1_555 1_555
H5_4 C6_4 1_555 1_555
C7_4 C6_4 1_555 1_555
H8_4 C11_4 1_555 1_555
H20_4 C25_4 1_555 1_555
H31_4 C38_4 1_555 1_555
C39_4 C38_4 1_555 1_555
H32_4 C39_4 1_555 1_555
C40_4 C39_4 1_555 1_555
O7_2 C40_4 1_555 1_555
C4_4 C5_4 1_555 1_555
Co3_6 O1_2 1_555 1_555
H2_4 C2_4 1_555 1_555
H13_4 C17_4 1_555 1_555
C18_4 C17_4 1_555 1_555
H14_4 C18_4 1_555 1_555
C19_4 C18_4 1_555 1_555
O10_2 C19_4 1_555 1_555
C23_4 C22_4 1_555 1_555
N4_4 C23_4 1_555 1_555
H21_4 C27_4 1_555 1_555
C28_4 N4_4 1_555 1_555
H22_4 C28_4 1_555 1_555
H23_4 C23_4 1_555 1_555
H26_4 C32_4 1_555 1_555
C27_4 C28_4 1_555 1_555
C30_4 C29_4 1_555 1_555
N5_4 C30_4 1_555 1_555
C31_4 N5_4 1_555 1_555
C34_4 C33_4 1_555 1_555
H27_4 C34_4 1_555 1_555
C35_4 N5_4 1_555 1_555
H28_4 C35_4 1_555 1_555
H29_4 C30_4 1_555 1_555
H30_4 C30_4 1_555 1_555
C37_4 C36_4 1_555 1_555
N6_4 C37_4 1_555 1_555
H33_4 C41_4 1_555 1_555
C42_4 N6_4 1_555 1_555
H34_4 C42_4 1_555 1_555
H35_4 C37_4 1_555 1_555
C29_4 C36_4 1_555 1_555
C34_4 C35_4 1_555 1_555
C41_4 C42_4 1_555 1_555

#END
