
###############################################################################
#
# This file contains modified crystal structure data generated from the
# MOF subset of the Cambridge Structural Database (CSD) v543 
# hosted by the Cambridge Crystallographic Data Centre (CCDC).
#
# This work is licensed under the Creative Commons
# Attribution-NonCommercial-ShareAlike 4.0 International License.
# To view a copy of this license, visit
# http://creativecommons.org/licenses/by-nc-sa/4.0/
# or send a letter to
# Creative Commons, PO Box 1866, Mountain View, CA 94042, USA.
#
# CIF created using the CSD Python API on 29 September 2022
# The structure has been converted into the P1 space group
# The structure has a 3D framework
# The original CSD entry HUWSIE is in the orthorhombic crystal system
# The original CSD entry HUWSIE is in a Sohncke space group
# The framework has been calculated to contain at least 10.0% void space
# The void calculation uses a probe of radius 1.32A, grid spacing 0.4
# The framework is charged, counterions have been retained in the structure
# H atom positions have been added when not included in the experimental data
#
###############################################################################

data_HUWSIE
_chemical_formula_moiety         '(C200 H244 Ag6 F24 N48 O36 P4 2-)n'
_symmetry_cell_setting           triclinic
_symmetry_space_group_name_H-M   'P 1'
_symmetry_Int_Tables_number      1
_space_group_name_Hall           'P 1'
loop_
_symmetry_equiv_pos_site_id
_symmetry_equiv_pos_as_xyz
1 x,y,z
_cell_length_a                   14.029(6)
_cell_length_b                   14.929(6)
_cell_length_c                   38.195(16)
_cell_angle_alpha                90
_cell_angle_beta                 90
_cell_angle_gamma                90
_cell_volume                     7999.52
loop_
_atom_site_label
_atom_site_type_symbol
_atom_site_fract_x
_atom_site_fract_y
_atom_site_fract_z
Ag1 Ag 0.04755(7) 0.24158(5) 0.21227(2)
N1 N 0.0350(7) 0.3756(6) 0.2343(2)
C2 C 0.0092(8) 0.5326(6) 0.2259(2)
C3 C 0.0687(7) 0.5510(7) 0.2534(2)
H4 H 0.0821 0.6113 0.2596
C4 C 0.1100(9) 0.4801(8) 0.2723(3)
H5 H 0.1513 0.4918 0.2914
C5 C 0.0896(9) 0.3944(8) 0.2625(3)
H6 H 0.1145 0.3463 0.2760
H12 H 0.0056 0.6952 0.1294
O7 O 0.0254(6) 0.0204(5) 0.0239(2)
N12 N 0.0622(7) 0.1191(5) 0.1825(2)
C28 C 0.1669(9) 0.3063(8) 0.0037(3)
H34 H 0.1052 0.3059 0.0140
C29 C 0.2397(10) 0.3554(8) 0.0184(3)
H35 H 0.2285 0.3886 0.0392
C30 C 0.3295(9) 0.3566(8) 0.0030(3)
H36 H 0.3792 0.3908 0.0133
C46 C 0.0057(9) 0.0999(7) 0.1548(2)
C47 C 0.0119(9) 0.0174(7) 0.1368(3)
C50 C 0.1261(9) 0.0584(9) 0.1927(3)
H60 H 0.1685 0.0734 0.2112
Ag4 Ag 0.01053(6) 0.68013(6) 0.45142(2)
N13 N 0.1226(8) 0.1750(7) 0.0771(2)
O9 O 0.0366(6) 0.1848(5) 0.27944(18)
O10 O 0.2241(6) 0.2156(6) 0.2359(2)
O5 O 0.0322(6) 0.1939(5) 0.97517(19)
N7 N 0.3465(7) 0.3094(6) 0.9735(2)
N8 N 0.1193(7) 0.1635(6) 0.9270(2)
H31 H 0.1734 0.1710 0.9157
C26 C 0.2759(8) 0.2602(7) 0.9591(2)
H33 H 0.2891 0.2268 0.9384
C27 C 0.1861(7) 0.2565(7) 0.9730(2)
C31 C 0.1062(8) 0.2015(7) 0.9587(2)
C32 C 0.0437(9) 0.1104(7) 0.9115(2)
C34 C 0.0856(11) 0.0632(9) 0.8780(3)
H40 H 0.0360 0.0267 0.8669
H41 H 0.1078 0.1088 0.8614
H42 H 0.1392 0.0248 0.8848
C35 C 0.0081(9) 0.0363(8) 0.9363(3)
H43 H 0.1928 0.0300 0.9750
H44 H 0.2019 0.0064 0.9340
Ag5 Ag 0.48947(6) 0.31987(6) 0.95142(2)
Ag2 Ag 0.98947(6) 0.18013(6) 0.04858(2)
N2 N 0.9209(6) 0.5936(6) 0.1764(2)
H1 H 0.9184 0.5381 0.1688
N3 N 0.7374(7) 0.6725(7) 0.1955(3)
N4 N 0.6758(7) 0.8332(7) 0.2631(2)
N5 N 0.7625(8) 0.7861(7) 0.3498(2)
H2 H 0.8031 0.8310 0.3491
N6 N 0.8774(8) 0.6750(7) 0.4229(2)
O1 O 0.9634(6) 0.6848(5) 0.22056(18)
O2 O 0.7995(8) 0.7994(5) 0.1736(2)
O3 O 0.7759(6) 0.7156(6) 0.2641(2)
O4 O 0.6297(7) 0.7310(7) 0.3214(3)
C1 C 0.9919(8) 0.4420(6) 0.2180(2)
H3 H 0.9473 0.4281 0.2001
C6 C 0.9633(7) 0.6103(6) 0.2071(2)
C7 C 0.8784(8) 0.6652(7) 0.1552(3)
C8 C 0.8307(11) 0.6246(9) 0.1229(3)
H7 H 0.8023 0.6725 0.1087
H8 H 0.8784 0.5926 0.1089
H9 H 0.7807 0.5828 0.1303
C9 C 0.9591(11) 0.7288(11) 0.1434(3)
H10 H 0.9322 0.7772 0.1291
H11 H 0.9906 0.7542 0.1640
C10 C 0.8025(8) 0.7172(7) 0.1765(3)
C11 C 0.7254(9) 0.5752(9) 0.2019(4)
H13 H 0.7600 0.5556 0.2231
H14 H 0.7469 0.5392 0.1816
C12 C 0.6181(12) 0.5698(13) 0.2068(5)
H15 H 0.5856 0.5655 0.1838
H16 H 0.6010 0.5166 0.2209
C13 C 0.5899(10) 0.6522(13) 0.2249(5)
H17 H 0.5884 0.6427 0.2506
H18 H 0.5261 0.6722 0.2171
C14 C 0.6687(9) 0.7238(10) 0.2148(4)
H19 H 0.6414 0.7734 0.2004
C15 C 0.7119(8) 0.7591(9) 0.2492(3)
C16 C 0.6075(10) 0.8981(10) 0.2466(4)
H20 H 0.5413 0.8754 0.2473
H21 H 0.6252 0.9112 0.2220
C17 C 0.6199(12) 0.9807(10) 0.2699(3)
C18 C 0.6365(11) 0.9396(10) 0.3049(3)
H24 H 0.5760 0.9179 0.3151
H25 H 0.6657 0.9834 0.3211
C19 C 0.7037(8) 0.8625(8) 0.2981(3)
H26 H 0.7711 0.8842 0.2979
C20 C 0.6931(9) 0.7830(9) 0.3240(3)
C21 C 0.8561(8) 0.7300(8) 0.3963(3)
H27 H 0.9003 0.7760 0.3907
C22 C 0.7731(8) 0.7237(9) 0.3766(3)
C23 C 0.7104(10) 0.6593(12) 0.3858(5)
H28 H 0.6501 0.6557 0.3746
C24 C 0.7342(14) 0.5991(13) 0.4115(5)
H29 H 0.6936 0.5496 0.4164
C25 C 0.8130(12) 0.6103(11) 0.4294(4)
H30 H 0.8255 0.5701 0.4481
N11 N 0.9491(8) 0.0063(6) 0.1088(2)
H32 H 0.9018 0.0449 0.1074
H56 H 0.8446 0.0134 0.0555
H57 H 0.9606 0.1432 0.1473
Ag3 Ag 0.95245(7) 0.74158(5) 0.28773(2)
N14 N 0.8465(7) 0.1906(6) 0.0265(2)
Ag1_2 Ag 0.45245(7) 0.75842(5) 0.71227(2)
Ag2_2 Ag 0.51053(6) 0.81987(6) 0.54858(2)
N1_2 N 0.4650(7) 0.6244(6) 0.7343(2)
N2_2 N 0.5791(6) 0.4064(6) 0.6764(2)
H1_2 H 0.5816 0.4619 0.6688
N3_2 N 0.7626(7) 0.3275(7) 0.6955(3)
N4_2 N 0.8242(7) 0.1668(7) 0.7631(2)
N5_2 N 0.7375(8) 0.2139(7) 0.8498(2)
H2_2 H 0.6969 0.1690 0.8491
N6_2 N 0.6226(8) 0.3250(7) 0.9229(2)
O1_2 O 0.5366(6) 0.3152(5) 0.72056(18)
O2_2 O 0.7005(8) 0.2006(5) 0.6736(2)
O3_2 O 0.7241(6) 0.2844(6) 0.7641(2)
O4_2 O 0.8703(7) 0.2690(7) 0.8214(3)
C1_2 C 0.5081(8) 0.5580(6) 0.7180(2)
H3_2 H 0.5527 0.5719 0.7001
C2_2 C 0.4908(8) 0.4674(6) 0.7259(2)
C3_2 C 0.4313(7) 0.4490(7) 0.7534(2)
H4_2 H 0.4179 0.3887 0.7596
C4_2 C 0.3900(9) 0.5199(8) 0.7723(3)
H5_2 H 0.3487 0.5082 0.7914
C5_2 C 0.4104(9) 0.6056(8) 0.7625(3)
H6_2 H 0.3855 0.6537 0.7760
C6_2 C 0.5367(7) 0.3897(6) 0.7071(2)
C7_2 C 0.6216(8) 0.3348(7) 0.6552(3)
C8_2 C 0.6693(11) 0.3754(9) 0.6229(3)
H7_2 H 0.6977 0.3275 0.6087
H8_2 H 0.6216 0.4074 0.6089
H9_2 H 0.7193 0.4172 0.6303
C9_2 C 0.5409(11) 0.2712(11) 0.6434(3)
H10_2 H 0.5678 0.2228 0.6291
H11_2 H 0.5094 0.2458 0.6640
H12_2 H 0.4944 0.3048 0.6294
C10_2 C 0.6975(8) 0.2828(7) 0.6765(3)
C11_2 C 0.7746(9) 0.4248(9) 0.7019(4)
H13_2 H 0.7400 0.4444 0.7231
H14_2 H 0.7531 0.4608 0.6816
C12_2 C 0.8819(12) 0.4302(13) 0.7068(5)
H15_2 H 0.9144 0.4345 0.6838
H16_2 H 0.8990 0.4834 0.7209
C13_2 C 0.9101(10) 0.3478(13) 0.7249(5)
H17_2 H 0.9116 0.3573 0.7506
H18_2 H 0.9739 0.3278 0.7171
C14_2 C 0.8313(9) 0.2762(10) 0.7148(4)
H19_2 H 0.8586 0.2266 0.7004
C15_2 C 0.7881(8) 0.2409(9) 0.7492(3)
C16_2 C 0.8925(10) 0.1019(10) 0.7466(4)
H20_2 H 0.9587 0.1246 0.7473
H21_2 H 0.8748 0.0888 0.7220
C17_2 C 0.8801(12) 0.0193(10) 0.7699(3)
C18_2 C 0.8635(11) 0.0604(10) 0.8049(3)
H24_2 H 0.9240 0.0821 0.8151
H25_2 H 0.8343 0.0166 0.8211
C19_2 C 0.7963(8) 0.1375(8) 0.7981(3)
H26_2 H 0.7289 0.1158 0.7979
C20_2 C 0.8069(9) 0.2170(9) 0.8240(3)
C21_2 C 0.6439(8) 0.2700(8) 0.8963(3)
H27_2 H 0.5997 0.2240 0.8907
C22_2 C 0.7269(8) 0.2763(9) 0.8766(3)
C23_2 C 0.7896(10) 0.3407(12) 0.8858(5)
H28_2 H 0.8499 0.3443 0.8746
C24_2 C 0.7658(14) 0.4009(13) 0.9115(5)
H29_2 H 0.8064 0.4504 0.9164
C25_2 C 0.6870(12) 0.3897(11) 0.9294(4)
H30_2 H 0.6745 0.4299 0.9481
O5_2 O 0.4678(6) 0.8061(5) 0.47517(19)
O6 O 0.5781(7) 0.9803(6) 0.4380(2)
O7_2 O 0.4746(6) 0.9796(5) 0.5239(2)
N7_2 N 0.1535(7) 0.6906(6) 0.4735(2)
N8_2 N 0.3807(7) 0.8365(6) 0.4270(2)
H31_2 H 0.3266 0.8290 0.4157
N11_2 N 0.5509(8) 0.9937(6) 0.6088(2)
H32_2 H 0.5982 0.9551 0.6074
N12_2 N 0.4378(7) 0.8809(5) 0.6825(2)
C26_2 C 0.2241(8) 0.7398(7) 0.4591(2)
H33_2 H 0.2109 0.7732 0.4384
C27_2 C 0.3139(7) 0.7435(7) 0.4730(2)
C28_2 C 0.3331(9) 0.6937(8) 0.5037(3)
H34_2 H 0.3948 0.6941 0.5140
C29_2 C 0.2603(10) 0.6446(8) 0.5184(3)
H35_2 H 0.2715 0.6114 0.5392
C30_2 C 0.1705(9) 0.6434(8) 0.5030(3)
H36_2 H 0.1208 0.6092 0.5133
C31_2 C 0.3938(8) 0.7985(7) 0.4587(2)
C32_2 C 0.4563(9) 0.8896(7) 0.4115(2)
C33 C 0.5401(10) 0.8288(9) 0.4009(3)
H37 H 0.5908 0.8653 0.3905
H38 H 0.5648 0.7981 0.4217
H39 H 0.5181 0.7844 0.3838
C34_2 C 0.4144(11) 0.9368(9) 0.3780(3)
H40_2 H 0.4640 0.9733 0.3669
H41_2 H 0.3922 0.8912 0.3614
H42_2 H 0.3608 0.9752 0.3848
C35_2 C 0.4919(9) 0.9637(8) 0.4363(3)
H43_2 H 0.3072 0.9700 0.4750
H44_2 H 0.2981 0.9936 0.4340
H56_2 H 0.6554 0.9866 0.5555
C46_2 C 0.4943(9) 0.9001(7) 0.6548(2)
H57_2 H 0.5394 0.8568 0.6473
C47_2 C 0.4881(9) 0.9826(7) 0.6368(3)
C50_2 C 0.3739(9) 0.9416(9) 0.6927(3)
H60_2 H 0.3315 0.9266 0.7112
Ag3_2 Ag 0.54755(7) 0.25842(5) 0.78773(2)
N13_2 N 0.3774(8) 0.8250(7) 0.5771(2)
O9_2 O 0.4634(6) 0.8152(5) 0.77944(18)
O10_2 O 0.2759(6) 0.7844(6) 0.7359(2)
N14_2 N 0.6535(7) 0.8094(6) 0.5265(2)
N2_3 N 0.0791(6) 0.0936(6) 0.3236(2)
H1_3 H 0.0816 0.0381 0.3312
N3_3 N 0.2626(7) 0.1725(7) 0.3045(3)
N4_3 N 0.3242(7) 0.3332(7) 0.2369(2)
N5_3 N 0.2375(8) 0.2861(7) 0.1502(2)
H2_3 H 0.1969 0.3310 0.1509
O2_3 O 0.2005(8) 0.2994(5) 0.3264(2)
O4_3 O 0.3703(7) 0.2310(7) 0.1786(3)
C6_3 C 0.0367(7) 0.1103(6) 0.2929(2)
C7_3 C 0.1216(8) 0.1652(7) 0.3448(3)
C8_3 C 0.1693(11) 0.1246(9) 0.3771(3)
H7_3 H 0.1977 0.1725 0.3913
H8_3 H 0.1216 0.0926 0.3911
H9_3 H 0.2193 0.0828 0.3697
C9_3 C 0.0409(11) 0.2288(11) 0.3566(3)
H10_3 H 0.0678 0.2772 0.3709
H11_3 H 0.0094 0.2542 0.3360
C10_3 C 0.1975(8) 0.2172(7) 0.3235(3)
C11_3 C 0.2746(9) 0.0752(9) 0.2981(4)
H13_3 H 0.2400 0.0556 0.2769
H14_3 H 0.2531 0.0392 0.3184
C12_3 C 0.3819(12) 0.0698(13) 0.2932(5)
H15_3 H 0.4144 0.0655 0.3162
H16_3 H 0.3990 0.0166 0.2791
C13_3 C 0.4101(10) 0.1522(13) 0.2751(5)
H17_3 H 0.4116 0.1427 0.2494
H18_3 H 0.4739 0.1722 0.2829
C14_3 C 0.3313(9) 0.2238(10) 0.2852(4)
H19_3 H 0.3586 0.2734 0.2996
C15_3 C 0.2881(8) 0.2591(9) 0.2508(3)
C16_3 C 0.3925(10) 0.3981(10) 0.2534(4)
H20_3 H 0.4587 0.3754 0.2527
H21_3 H 0.3748 0.4112 0.2780
C17_3 C 0.3801(12) 0.4807(10) 0.2301(3)
H22 H 0.3250 0.5173 0.2376
H23 H 0.4382 0.5183 0.2301
C18_3 C 0.3635(11) 0.4396(10) 0.1951(3)
H24_3 H 0.4240 0.4179 0.1849
H25_3 H 0.3343 0.4834 0.1789
C19_3 C 0.2963(8) 0.3625(8) 0.2019(3)
H26_3 H 0.2289 0.3842 0.2021
C20_3 C 0.3069(9) 0.2830(9) 0.1760(3)
C21_3 C 0.1439(8) 0.2300(8) 0.1037(3)
H27_3 H 0.0997 0.2760 0.1093
C22_3 C 0.2269(8) 0.2237(9) 0.1234(3)
C23_3 C 0.2896(10) 0.1593(12) 0.1142(5)
H28_3 H 0.3499 0.1557 0.1254
C24_3 C 0.2658(14) 0.0991(13) 0.0885(5)
H29_3 H 0.3064 0.0496 0.0836
C25_3 C 0.1870(12) 0.1103(11) 0.0706(4)
H30_3 H 0.1745 0.0701 0.0519
C1_3 C 0.0081(8) 0.9420(6) 0.2820(2)
H3_3 H 0.0527 0.9281 0.2999
O6_2 O 0.0781(7) 0.5197(6) 0.5620(2)
N10 N 0.0931(9) 0.4219(7) 0.4784(2)
N11_3 N 0.0509(8) 0.5063(6) 0.3912(2)
H32_3 H 0.0982 0.5449 0.3926
C33_2 C 0.0401(10) 0.6712(9) 0.5991(3)
H37_2 H 0.0908 0.6347 0.6095
H38_2 H 0.0648 0.7019 0.5783
H39_2 H 0.0181 0.7156 0.6162
C37 C 0.2074(13) 0.3823(12) 0.4361(4)
H45 H 0.2559 0.4065 0.4198
H46 H 0.1806 0.3264 0.4262
H51 H 0.0130 0.3740 0.5355
C41 C 0.0155(9) 0.4578(7) 0.4911(3)
C42 C 0.1593(15) 0.3576(12) 0.4946(5)
H52 H 0.1338 0.2959 0.4930
H53 H 0.1701 0.3725 0.5195
C43 C 0.2506(15) 0.3661(14) 0.4739(4)
H54 H 0.2892 0.3107 0.4750
H55 H 0.2895 0.4176 0.4819
C44 C 0.1292(10) 0.4512(9) 0.4436(3)
H56_3 H 0.1554 0.5134 0.4445
C45 C 0.0473(10) 0.4430(8) 0.4165(3)
H57_3 H 0.0394 0.6432 0.3527
C2_3 C 0.9908(8) 0.0326(6) 0.2741(2)
C3_3 C 0.9313(7) 0.0510(7) 0.2466(2)
H4_3 H 0.9179 0.1113 0.2404
H12_3 H 0.9944 0.1952 0.3706
N1_3 N 0.9650(7) 0.8756(6) 0.2657(2)
C4_3 C 0.8900(9) 0.9801(8) 0.2277(3)
H5_3 H 0.8487 0.9918 0.2086
C5_3 C 0.9104(9) 0.8944(8) 0.2375(3)
H6_3 H 0.8855 0.8463 0.2240
O5_3 O 0.9678(6) 0.6939(5) 0.52483(19)
O7_3 O 0.9746(6) 0.5204(5) 0.4761(2)
O8 O 0.9872(8) 0.3830(5) 0.4175(2)
N8_3 N 0.8807(7) 0.6635(6) 0.5730(2)
H31_3 H 0.8266 0.6710 0.5843
N9 N 0.9311(8) 0.4859(7) 0.5465(2)
N12_3 N 0.9378(7) 0.6191(5) 0.3175(2)
C26_3 C 0.7241(8) 0.7602(7) 0.5409(2)
H33_3 H 0.7109 0.7268 0.5616
C27_3 C 0.8139(7) 0.7565(7) 0.5270(2)
C28_3 C 0.8331(9) 0.8063(8) 0.4963(3)
H34_3 H 0.8948 0.8059 0.4860
C29_3 C 0.7603(10) 0.8554(8) 0.4816(3)
H35_3 H 0.7715 0.8886 0.4608
C30_3 C 0.6705(9) 0.8566(8) 0.4970(3)
H36_3 H 0.6208 0.8908 0.4867
C31_3 C 0.8938(8) 0.7015(7) 0.5413(2)
C32_3 C 0.9563(9) 0.6104(7) 0.5885(2)
C34_3 C 0.9144(11) 0.5632(9) 0.6220(3)
H40_3 H 0.9640 0.5267 0.6331
H41_3 H 0.8922 0.6088 0.6386
H42_3 H 0.8608 0.5248 0.6152
C35_3 C 0.9919(9) 0.5363(8) 0.5637(3)
C36 C 0.8275(10) 0.4879(10) 0.5436(3)
H43_3 H 0.8072 0.5300 0.5250
H44_3 H 0.7981 0.5064 0.5660
C38 C 0.7995(15) 0.3931(11) 0.5344(5)
H47 H 0.7966 0.3548 0.5556
H48 H 0.7369 0.3914 0.5224
C39 C 0.8782(16) 0.3638(11) 0.5103(5)
H49 H 0.8630 0.3795 0.4858
H50 H 0.8881 0.2983 0.5119
C40 C 0.9681(12) 0.4148(8) 0.5229(3)
C46_3 C 0.9943(9) 0.5999(7) 0.3452(2)
C47_3 C 0.9881(9) 0.5174(7) 0.3632(3)
C48 C 0.9224(11) 0.4542(9) 0.3513(4)
H58 H 0.9161 0.3981 0.3628
C49 C 0.8665(12) 0.4747(9) 0.3225(4)
H59 H 0.8235 0.4316 0.3133
C50_3 C 0.8739(9) 0.5584(9) 0.3073(3)
H60_3 H 0.8315 0.5734 0.2888
O5_4 O 0.5322(6) 0.3061(5) 0.02483(19)
O6_3 O 0.4219(7) 0.4803(6) 0.0620(2)
N8_4 N 0.6193(7) 0.3365(6) 0.0730(2)
H31_4 H 0.6734 0.3290 0.0843
N9_2 N 0.5689(8) 0.5141(7) 0.0465(2)
C26_4 C 0.7759(8) 0.2398(7) 0.0409(2)
H33_4 H 0.7891 0.2732 0.0616
C27_4 C 0.6861(7) 0.2435(7) 0.0270(2)
C31_4 C 0.6062(8) 0.2985(7) 0.0413(2)
C32_4 C 0.5437(9) 0.3896(7) 0.0885(2)
C33_3 C 0.4599(10) 0.3288(9) 0.0991(3)
H37_3 H 0.4092 0.3653 0.1095
H38_3 H 0.4352 0.2981 0.0783
H39_3 H 0.4819 0.2844 0.1162
C34_4 C 0.5856(11) 0.4368(9) 0.1220(3)
H40_4 H 0.5360 0.4733 0.1331
H41_4 H 0.6078 0.3912 0.1386
H42_4 H 0.6392 0.4752 0.1152
C35_4 C 0.5081(9) 0.4637(8) 0.0637(3)
C36_2 C 0.6725(10) 0.5121(10) 0.0436(3)
H43_4 H 0.6928 0.4700 0.0250
H44_4 H 0.7019 0.4936 0.0660
C38_2 C 0.7005(15) 0.6069(11) 0.0344(5)
H47_2 H 0.7034 0.6452 0.0556
H48_2 H 0.7631 0.6086 0.0224
C39_2 C 0.6218(16) 0.6362(11) 0.0103(5)
H50_2 H 0.6119 0.7017 0.0119
C40_2 C 0.5319(12) 0.5852(8) 0.0229(3)
H51_2 H 0.4870 0.6260 0.0355
H53_2 H 0.3299 0.6275 0.0195
N1_4 N 0.5350(7) 0.1244(6) 0.7657(2)
C1_4 C 0.4919(8) 0.0580(6) 0.7820(2)
H3_4 H 0.4473 0.0719 0.7999
C4_4 C 0.6100(9) 0.0199(8) 0.7277(3)
H5_4 H 0.6513 0.0082 0.7086
C5_4 C 0.5896(9) 0.1056(8) 0.7375(3)
H6_4 H 0.6145 0.1537 0.7240
O7_4 O 0.5254(6) 0.4796(5) 0.9761(2)
O8_2 O 0.5128(8) 0.6170(5) 0.9175(2)
N10_2 N 0.4069(9) 0.5781(7) 0.9784(2)
N11_4 N 0.4491(8) 0.4937(6) 0.8912(2)
H32_4 H 0.4018 0.4551 0.8926
N12_4 N 0.5622(7) 0.3809(5) 0.8175(2)
C28_4 C 0.6669(9) 0.1937(8) 0.9963(3)
H34_4 H 0.6052 0.1941 0.9860
C29_4 C 0.7397(10) 0.1446(8) 0.9816(3)
H35_4 H 0.7285 0.1114 0.9608
C30_4 C 0.8295(9) 0.1434(8) 0.9970(3)
H36_4 H 0.8792 0.1092 0.9867
C37_2 C 0.2926(13) 0.6177(12) 0.9361(4)
H45_2 H 0.2441 0.5935 0.9198
H46_2 H 0.3194 0.6736 0.9262
H49_2 H 0.6370 0.6205 0.9858
C41_2 C 0.4845(9) 0.5422(7) 0.9911(3)
C42_2 C 0.3407(15) 0.6424(12) 0.9946(5)
H52_2 H 0.3662 0.7041 0.9930
C43_2 C 0.2494(15) 0.6339(14) 0.9739(4)
H54_2 H 0.2108 0.6893 0.9750
H55_2 H 0.2105 0.5824 0.9819
C44_2 C 0.3708(10) 0.5488(9) 0.9436(3)
H56_4 H 0.3446 0.4866 0.9445
C45_2 C 0.4527(10) 0.5570(8) 0.9165(3)
C46_4 C 0.5057(9) 0.4001(7) 0.8452(2)
H57_4 H 0.4606 0.3568 0.8527
C47_4 C 0.5119(9) 0.4826(7) 0.8632(3)
C48_2 C 0.5776(11) 0.5458(9) 0.8513(4)
H58_2 H 0.5839 0.6019 0.8628
C49_2 C 0.6335(12) 0.5253(9) 0.8225(4)
H59_2 H 0.6765 0.5684 0.8133
C50_4 C 0.6261(9) 0.4416(9) 0.8073(3)
H60_4 H 0.6685 0.4266 0.7888
N2_4 N 0.4209(6) 0.9064(6) 0.8236(2)
H1_4 H 0.4184 0.9619 0.8312
N3_4 N 0.2374(7) 0.8275(7) 0.8045(3)
N4_4 N 0.1758(7) 0.6668(7) 0.7369(2)
N5_4 N 0.2625(8) 0.7139(7) 0.6502(2)
H2_4 H 0.3031 0.6690 0.6509
O2_4 O 0.2995(8) 0.7006(5) 0.8264(2)
O4_4 O 0.1297(7) 0.7690(7) 0.6786(3)
C2_4 C 0.5092(8) 0.9674(6) 0.7741(2)
C3_4 C 0.5687(7) 0.9490(7) 0.7466(2)
H4_4 H 0.5821 0.8887 0.7404
C6_4 C 0.4633(7) 0.8897(6) 0.7929(2)
C7_4 C 0.3784(8) 0.8348(7) 0.8448(3)
C8_4 C 0.3307(11) 0.8754(9) 0.8771(3)
H7_4 H 0.3023 0.8275 0.8913
H8_4 H 0.3784 0.9074 0.8911
H9_4 H 0.2807 0.9172 0.8697
C9_4 C 0.4591(11) 0.7712(11) 0.8566(3)
H10_4 H 0.4322 0.7228 0.8709
H11_4 H 0.4906 0.7458 0.8360
H12_4 H 0.5056 0.8048 0.8706
C10_4 C 0.3025(8) 0.7828(7) 0.8235(3)
C11_4 C 0.2254(9) 0.9248(9) 0.7981(4)
H13_4 H 0.2600 0.9444 0.7769
H14_4 H 0.2469 0.9608 0.8184
C12_4 C 0.1181(12) 0.9302(13) 0.7932(5)
H15_4 H 0.0856 0.9345 0.8162
H16_4 H 0.1010 0.9834 0.7791
C13_4 C 0.0899(10) 0.8478(13) 0.7751(5)
H17_4 H 0.0884 0.8573 0.7494
H18_4 H 0.0261 0.8278 0.7829
C14_4 C 0.1687(9) 0.7762(10) 0.7852(4)
H19_4 H 0.1414 0.7266 0.7996
C15_4 C 0.2119(8) 0.7409(9) 0.7508(3)
C16_4 C 0.1075(10) 0.6019(10) 0.7534(4)
H20_4 H 0.0413 0.6246 0.7527
H21_4 H 0.1252 0.5888 0.7780
C17_4 C 0.1199(12) 0.5193(10) 0.7301(3)
H22_2 H 0.1750 0.4827 0.7376
H23_2 H 0.0618 0.4817 0.7301
C18_4 C 0.1365(11) 0.5604(10) 0.6951(3)
H24_4 H 0.0760 0.5821 0.6849
H25_4 H 0.1657 0.5166 0.6789
C19_4 C 0.2037(8) 0.6375(8) 0.7019(3)
H26_4 H 0.2711 0.6158 0.7021
C20_4 C 0.1931(9) 0.7170(9) 0.6760(3)
C21_4 C 0.3561(8) 0.7700(8) 0.6037(3)
H27_4 H 0.4003 0.7240 0.6093
C22_4 C 0.2731(8) 0.7763(9) 0.6234(3)
C23_4 C 0.2104(10) 0.8407(12) 0.6142(5)
H28_4 H 0.1501 0.8443 0.6254
C24_4 C 0.2342(14) 0.9009(13) 0.5885(5)
H29_4 H 0.1936 0.9504 0.5836
C25_4 C 0.3130(12) 0.8897(11) 0.5706(4)
H30_4 H 0.3255 0.9299 0.5519
O8_3 O 0.0128(8) 0.8830(5) 0.0825(2)
H49_3 H 0.1370 0.8795 0.0142
C48_3 C 0.0776(11) 0.9542(9) 0.1487(4)
H58_3 H 0.0839 0.8981 0.1372
C49_3 C 0.1335(12) 0.9747(9) 0.1775(4)
H59_3 H 0.1765 0.9316 0.1867
N9_3 N 0.0689(8) 0.9859(7) 0.9535(2)
C36_3 C 0.1725(10) 0.9879(10) 0.9564(3)
C38_3 C 0.2005(15) 0.8931(11) 0.9656(5)
H47_3 H 0.2034 0.8548 0.9444
H48_3 H 0.2631 0.8914 0.9776
C39_3 C 0.1218(16) 0.8638(11) 0.9897(5)
H50_3 H 0.1119 0.7983 0.9881
C40_3 C 0.0319(12) 0.9148(8) 0.9771(3)
H22_3 H 0.6750 0.0173 0.2624
H23_3 H 0.5618 0.0183 0.2699
O6_4 O 0.9219(7) 0.0197(6) 0.9380(2)
C33_4 C 0.9599(10) 0.1712(9) 0.9009(3)
H37_4 H 0.9092 0.1347 0.8905
H38_4 H 0.9352 0.2019 0.9217
H39_4 H 0.9819 0.2156 0.8838
N10_3 N 0.9069(9) 0.9219(7) 0.0216(2)
C37_3 C 0.7926(13) 0.8823(12) 0.0639(4)
H45_3 H 0.7441 0.9065 0.0802
H46_3 H 0.8194 0.8264 0.0738
C41_3 C 0.9845(9) 0.9578(7) 0.0089(3)
C42_3 C 0.8407(15) 0.8576(12) 0.0054(5)
H52_3 H 0.8662 0.7959 0.0070
C43_3 C 0.7494(15) 0.8661(14) 0.0261(4)
H54_3 H 0.7108 0.8107 0.0250
H55_3 H 0.7105 0.9176 0.0181
C44_3 C 0.8708(10) 0.9512(9) 0.0564(3)
C45_3 C 0.9527(10) 0.9430(8) 0.0835(3)
H51_3 H 0.9870 0.8740 0.9645
H53_3 H 0.8299 0.8725 0.9805
O8_4 O 0.4872(8) 0.1170(5) 0.5825(2)
N9_4 N 0.4311(8) 0.0141(7) 0.4535(2)
N10_4 N 0.5931(9) 0.0781(7) 0.5216(2)
C36_4 C 0.3275(10) 0.0121(10) 0.4564(3)
C37_4 C 0.7074(13) 0.1177(12) 0.5639(4)
H45_4 H 0.7559 0.0935 0.5802
H46_4 H 0.6806 0.1736 0.5738
C38_4 C 0.2995(15) 0.1069(11) 0.4656(5)
H47_4 H 0.2966 0.1452 0.4444
H48_4 H 0.2369 0.1086 0.4776
C39_4 C 0.3782(16) 0.1362(11) 0.4897(5)
H49_4 H 0.3630 0.1205 0.5142
H50_4 H 0.3881 0.2017 0.4881
C40_4 C 0.4681(12) 0.0852(8) 0.4771(3)
H51_4 H 0.5130 0.1260 0.4645
C41_4 C 0.5155(9) 0.0422(7) 0.5089(3)
C42_4 C 0.6593(15) 0.1424(12) 0.5054(5)
H52_4 H 0.6338 0.2041 0.5070
H53_4 H 0.6701 0.1275 0.4805
C43_4 C 0.7506(15) 0.1339(14) 0.5261(4)
H54_4 H 0.7892 0.1893 0.5250
H55_4 H 0.7895 0.0824 0.5181
C44_4 C 0.6292(10) 0.0488(9) 0.5564(3)
C45_4 C 0.5473(10) 0.0570(8) 0.5835(3)
C48_4 C 0.4224(11) 0.0458(9) 0.6487(4)
H58_4 H 0.4161 0.1019 0.6372
C49_4 C 0.3665(12) 0.0253(9) 0.6775(4)
H59_4 H 0.3235 0.0684 0.6867
H22_4 H 0.8250 0.9827 0.7624
H23_4 H 0.9382 0.9817 0.7699
P1 P 0.8627(3) 0.3512(3) 0.13051(10)
F1 F 0.8001(7) 0.4105(6) 0.1598(2)
F2 F 0.9494(7) 0.4286(7) 0.1340(3)
F3 F 0.9088(11) 0.2913(7) 0.1639(4)
F4 F 0.7710(8) 0.2780(5) 0.1271(2)
F5 F 0.8160(6) 0.4087(6) 0.09770(19)
F6 F 0.9262(8) 0.2935(10) 0.1014(3)
P1_2 P 0.6373(3) 0.6488(3) 0.63051(10)
F1_2 F 0.6999(7) 0.5895(6) 0.6598(2)
F2_2 F 0.5506(7) 0.5714(7) 0.6340(3)
F3_2 F 0.5912(11) 0.7087(7) 0.6639(4)
F4_2 F 0.7290(8) 0.7220(5) 0.6271(2)
F5_2 F 0.6840(6) 0.5913(6) 0.59770(19)
F6_2 F 0.5738(8) 0.7065(10) 0.6014(3)
P1_3 P 0.1373(3) 0.8512(3) 0.36949(10)
F1_3 F 0.1999(7) 0.9105(6) 0.3402(2)
F2_3 F 0.0506(7) 0.9286(7) 0.3660(3)
F3_3 F 0.0912(11) 0.7913(7) 0.3361(4)
F4_3 F 0.2290(8) 0.7780(5) 0.3729(2)
F5_3 F 0.1840(6) 0.9087(6) 0.40230(19)
F6_3 F 0.0738(8) 0.7935(10) 0.3986(3)
P1_4 P 0.3627(3) 0.1488(3) 0.86949(10)
F1_4 F 0.3001(7) 0.0895(6) 0.8402(2)
F2_4 F 0.4494(7) 0.0714(7) 0.8660(3)
F3_4 F 0.4088(11) 0.2087(7) 0.8361(4)
F4_4 F 0.2710(8) 0.2220(5) 0.8729(2)
F5_4 F 0.3160(6) 0.0913(6) 0.90230(19)
F6_4 F 0.4262(8) 0.2065(10) 0.8986(3)
O11 O 0.430(4) 0.785(3) 0.1826(14)
H61 H 0.500782 0.785 0.1826
O11_2 O 0.070(4) 0.215(3) 0.6826(14)
H61_2 H 0.999218 0.215 0.6826
O11_3 O 0.570(4) 0.285(3) 0.3174(14)
H61_3 H 0.499218 0.285 0.3174
H61_4 H 0.000781952 0.715 0.8174
O11_4 O 0.930(4) 0.715(3) 0.8174(14)
loop_
_geom_bond_atom_site_label_1
_geom_bond_atom_site_label_2
_geom_bond_site_symmetry_1
_geom_bond_site_symmetry_2
Ag1 N1 1_555 1_555
C3 C2 1_555 1_555
H4 C3 1_555 1_555
C4 C3 1_555 1_555
H5 C4 1_555 1_555
C5 N1 1_555 1_555
H6 C5 1_555 1_555
N12 Ag1 1_555 1_555
H34 C28 1_555 1_555
C29 C28 1_555 1_555
H35 C29 1_555 1_555
H36 C30 1_555 1_555
C46 N12 1_555 1_555
C50 N12 1_555 1_555
H60 C50 1_555 1_555
O9 Ag1 1_555 1_555
O10 Ag1 1_555 1_555
C4 C5 1_555 1_555
C29 C30 1_555 1_555
C46 C47 1_555 1_555
O5 C31 1_555 1_555
N7 C26 1_555 1_555
N8 H31 1_555 1_555
C26 H33 1_555 1_555
C27 C26 1_555 1_555
C31 N8 1_555 1_555
C32 N8 1_555 1_555
C34 C32 1_555 1_555
H40 C34 1_555 1_555
H41 C34 1_555 1_555
H42 C34 1_555 1_555
C35 C32 1_555 1_555
Ag5 N7 1_555 1_555
C27 C31 1_555 1_555
N2 H1 1_555 1_555
N3 C10 1_555 1_555
N4 C15 1_555 1_555
N5 H2 1_555 1_555
N6 C21 1_555 1_555
O1 C6 1_555 1_555
O2 C10 1_555 1_555
O3 C15 1_555 1_555
O4 C20 1_555 1_555
C1 H3 1_555 1_555
C6 N2 1_555 1_555
C7 N2 1_555 1_555
C8 C7 1_555 1_555
H7 C8 1_555 1_555
H8 C8 1_555 1_555
H9 C8 1_555 1_555
C9 C7 1_555 1_555
H10 C9 1_555 1_555
H11 C9 1_555 1_555
C10 C7 1_555 1_555
C11 N3 1_555 1_555
H13 C11 1_555 1_555
H14 C11 1_555 1_555
C12 C11 1_555 1_555
H15 C12 1_555 1_555
H16 C12 1_555 1_555
C13 C12 1_555 1_555
H17 C13 1_555 1_555
H18 C13 1_555 1_555
C14 N3 1_555 1_555
H19 C14 1_555 1_555
C15 C14 1_555 1_555
C16 N4 1_555 1_555
H20 C16 1_555 1_555
H21 C16 1_555 1_555
C17 C16 1_555 1_555
C18 C17 1_555 1_555
H24 C18 1_555 1_555
H25 C18 1_555 1_555
C19 N4 1_555 1_555
H26 C19 1_555 1_555
C20 N5 1_555 1_555
C21 H27 1_555 1_555
C22 N5 1_555 1_555
C23 C22 1_555 1_555
H28 C23 1_555 1_555
C24 C23 1_555 1_555
H29 C24 1_555 1_555
C25 N6 1_555 1_555
H30 C25 1_555 1_555
N11 H32 1_555 1_555
Ag3 O1 1_555 1_555
N14 Ag2 1_555 1_555
O3 Ag3 1_555 1_555
C13 C14 1_555 1_555
C18 C19 1_555 1_555
C19 C20 1_555 1_555
C21 C22 1_555 1_555
C24 C25 1_555 1_555
Ag1_2 N1_2 1_555 1_555
Ag2_2 O7_2 1_555 1_555
N1_2 C1_2 1_555 1_555
N2_2 H1_2 1_555 1_555
N3_2 C10_2 1_555 1_555
N4_2 C15_2 1_555 1_555
N5_2 H2_2 1_555 1_555
N6_2 C21_2 1_555 1_555
O1_2 C6_2 1_555 1_555
O2_2 C10_2 1_555 1_555
O3_2 C15_2 1_555 1_555
O4_2 C20_2 1_555 1_555
C1_2 H3_2 1_555 1_555
C2_2 C1_2 1_555 1_555
C3_2 C2_2 1_555 1_555
H4_2 C3_2 1_555 1_555
C4_2 C3_2 1_555 1_555
H5_2 C4_2 1_555 1_555
C5_2 N1_2 1_555 1_555
H6_2 C5_2 1_555 1_555
C6_2 N2_2 1_555 1_555
C7_2 N2_2 1_555 1_555
C8_2 C7_2 1_555 1_555
H7_2 C8_2 1_555 1_555
H8_2 C8_2 1_555 1_555
H9_2 C8_2 1_555 1_555
C9_2 C7_2 1_555 1_555
H10_2 C9_2 1_555 1_555
H11_2 C9_2 1_555 1_555
H12_2 C9_2 1_555 1_555
C10_2 C7_2 1_555 1_555
C11_2 N3_2 1_555 1_555
H13_2 C11_2 1_555 1_555
H14_2 C11_2 1_555 1_555
C12_2 C11_2 1_555 1_555
H15_2 C12_2 1_555 1_555
H16_2 C12_2 1_555 1_555
C13_2 C12_2 1_555 1_555
H17_2 C13_2 1_555 1_555
H18_2 C13_2 1_555 1_555
C14_2 N3_2 1_555 1_555
H19_2 C14_2 1_555 1_555
C15_2 C14_2 1_555 1_555
C16_2 N4_2 1_555 1_555
H20_2 C16_2 1_555 1_555
H21_2 C16_2 1_555 1_555
C17_2 C16_2 1_555 1_555
C18_2 C17_2 1_555 1_555
H24_2 C18_2 1_555 1_555
H25_2 C18_2 1_555 1_555
C19_2 N4_2 1_555 1_555
H26_2 C19_2 1_555 1_555
C20_2 N5_2 1_555 1_555
C21_2 H27_2 1_555 1_555
C22_2 N5_2 1_555 1_555
C23_2 C22_2 1_555 1_555
H28_2 C23_2 1_555 1_555
C24_2 C23_2 1_555 1_555
H29_2 C24_2 1_555 1_555
C25_2 N6_2 1_555 1_555
H30_2 C25_2 1_555 1_555
O5_2 C31_2 1_555 1_555
O6 C35_2 1_555 1_555
N7_2 C26_2 1_555 1_555
N8_2 H31_2 1_555 1_555
N11_2 H32_2 1_555 1_555
N12_2 Ag1_2 1_555 1_555
C26_2 H33_2 1_555 1_555
C27_2 C26_2 1_555 1_555
C28_2 C27_2 1_555 1_555
H34_2 C28_2 1_555 1_555
C29_2 C28_2 1_555 1_555
H35_2 C29_2 1_555 1_555
C30_2 N7_2 1_555 1_555
H36_2 C30_2 1_555 1_555
C31_2 N8_2 1_555 1_555
C32_2 N8_2 1_555 1_555
C33 C32_2 1_555 1_555
H37 C33 1_555 1_555
H38 C33 1_555 1_555
H39 C33 1_555 1_555
C34_2 C32_2 1_555 1_555
H40_2 C34_2 1_555 1_555
H41_2 C34_2 1_555 1_555
H42_2 C34_2 1_555 1_555
C35_2 C32_2 1_555 1_555
C46_2 N12_2 1_555 1_555
H57_2 C46_2 1_555 1_555
C47_2 N11_2 1_555 1_555
C50_2 N12_2 1_555 1_555
H60_2 C50_2 1_555 1_555
Ag3_2 O1_2 1_555 1_555
Ag5 N6_2 1_555 1_555
Ag4 N7_2 1_555 1_555
N13_2 Ag2_2 1_555 1_555
O9_2 Ag1_2 1_555 1_555
O10_2 Ag1_2 1_555 1_555
N14_2 Ag2_2 1_555 1_555
O3_2 Ag3_2 1_555 1_555
C2_2 C6_2 1_555 1_555
C4_2 C5_2 1_555 1_555
C13_2 C14_2 1_555 1_555
C18_2 C19_2 1_555 1_555
C19_2 C20_2 1_555 1_555
C21_2 C22_2 1_555 1_555
C24_2 C25_2 1_555 1_555
C27_2 C31_2 1_555 1_555
C29_2 C30_2 1_555 1_555
C46_2 C47_2 1_555 1_555
N2_3 H1_3 1_555 1_555
N3_3 C10_3 1_555 1_555
N4_3 C15_3 1_555 1_555
N5_3 H2_3 1_555 1_555
N13 C21_3 1_555 1_555
O9 C6_3 1_555 1_555
O2_3 C10_3 1_555 1_555
O10 C15_3 1_555 1_555
O4_3 C20_3 1_555 1_555
C6_3 N2_3 1_555 1_555
C7_3 N2_3 1_555 1_555
C8_3 C7_3 1_555 1_555
H7_3 C8_3 1_555 1_555
H8_3 C8_3 1_555 1_555
H9_3 C8_3 1_555 1_555
C9_3 C7_3 1_555 1_555
H10_3 C9_3 1_555 1_555
H11_3 C9_3 1_555 1_555
C10_3 C7_3 1_555 1_555
C11_3 N3_3 1_555 1_555
H13_3 C11_3 1_555 1_555
H14_3 C11_3 1_555 1_555
C12_3 C11_3 1_555 1_555
H15_3 C12_3 1_555 1_555
H16_3 C12_3 1_555 1_555
C13_3 C12_3 1_555 1_555
H17_3 C13_3 1_555 1_555
H18_3 C13_3 1_555 1_555
C14_3 N3_3 1_555 1_555
H19_3 C14_3 1_555 1_555
C15_3 C14_3 1_555 1_555
C16_3 N4_3 1_555 1_555
H20_3 C16_3 1_555 1_555
H21_3 C16_3 1_555 1_555
C17_3 C16_3 1_555 1_555
H22 C17_3 1_555 1_555
H23 C17_3 1_555 1_555
C18_3 C17_3 1_555 1_555
H24_3 C18_3 1_555 1_555
H25_3 C18_3 1_555 1_555
C19_3 N4_3 1_555 1_555
H26_3 C19_3 1_555 1_555
C20_3 N5_3 1_555 1_555
C21_3 H27_3 1_555 1_555
C22_3 N5_3 1_555 1_555
C23_3 C22_3 1_555 1_555
H28_3 C23_3 1_555 1_555
C24_3 C23_3 1_555 1_555
H29_3 C24_3 1_555 1_555
C25_3 N13 1_555 1_555
H30_3 C25_3 1_555 1_555
C13_3 C14_3 1_555 1_555
C18_3 C19_3 1_555 1_555
C19_3 C20_3 1_555 1_555
C21_3 C22_3 1_555 1_555
C24_3 C25_3 1_555 1_555
C1_3 H3_3 1_555 1_555
N10 C41 1_555 1_555
N11_3 H32_3 1_555 1_555
H37_2 C33_2 1_555 1_555
H38_2 C33_2 1_555 1_555
H39_2 C33_2 1_555 1_555
C37 H45 1_555 1_555
H46 C37 1_555 1_555
C42 N10 1_555 1_555
H52 C42 1_555 1_555
H53 C42 1_555 1_555
C43 C37 1_555 1_555
H54 C43 1_555 1_555
H55 C43 1_555 1_555
C44 N10 1_555 1_555
H56_3 C44 1_555 1_555
C45 N11_3 1_555 1_555
C37 C44 1_555 1_555
C42 C43 1_555 1_555
C44 C45 1_555 1_555
C3_3 C2_3 1_555 1_555
H4_3 C3_3 1_555 1_555
Ag3 N1_3 1_555 1_555
H5_3 C4_3 1_555 1_555
C5_3 N1_3 1_555 1_555
H6_3 C5_3 1_555 1_555
O5_3 C31_3 1_555 1_555
N14_2 C26_3 1_555 1_555
N8_3 H31_3 1_555 1_555
N9 C35_3 1_555 1_555
N12_3 Ag3 1_555 1_555
C26_3 H33_3 1_555 1_555
C27_3 C26_3 1_555 1_555
C28_3 C27_3 1_555 1_555
H34_3 C28_3 1_555 1_555
C29_3 C28_3 1_555 1_555
H35_3 C29_3 1_555 1_555
C30_3 N14_2 1_555 1_555
H36_3 C30_3 1_555 1_555
C31_3 N8_3 1_555 1_555
C32_3 N8_3 1_555 1_555
C34_3 C32_3 1_555 1_555
H40_3 C34_3 1_555 1_555
H41_3 C34_3 1_555 1_555
H42_3 C34_3 1_555 1_555
C35_3 C32_3 1_555 1_555
C36 N9 1_555 1_555
H43_3 C36 1_555 1_555
H44_3 C36 1_555 1_555
C38 C36 1_555 1_555
H47 C38 1_555 1_555
H48 C38 1_555 1_555
C39 C38 1_555 1_555
H49 C39 1_555 1_555
H50 C39 1_555 1_555
C40 N9 1_555 1_555
C46_3 N12_3 1_555 1_555
C48 C47_3 1_555 1_555
H58 C48 1_555 1_555
C49 C48 1_555 1_555
H59 C49 1_555 1_555
C50_3 N12_3 1_555 1_555
H60_3 C50_3 1_555 1_555
C4_3 C5_3 1_555 1_555
C27_3 C31_3 1_555 1_555
C29_3 C30_3 1_555 1_555
C39 C40 1_555 1_555
C46_3 C47_3 1_555 1_555
C49 C50_3 1_555 1_555
O5_4 C31_4 1_555 1_555
O6_3 C35_4 1_555 1_555
N14 C26_4 1_555 1_555
N8_4 H31_4 1_555 1_555
N9_2 C35_4 1_555 1_555
C26_4 H33_4 1_555 1_555
C27_4 C26_4 1_555 1_555
C31_4 N8_4 1_555 1_555
C32_4 N8_4 1_555 1_555
C33_3 C32_4 1_555 1_555
H37_3 C33_3 1_555 1_555
H38_3 C33_3 1_555 1_555
H39_3 C33_3 1_555 1_555
C34_4 C32_4 1_555 1_555
H40_4 C34_4 1_555 1_555
H41_4 C34_4 1_555 1_555
H42_4 C34_4 1_555 1_555
C35_4 C32_4 1_555 1_555
C36_2 N9_2 1_555 1_555
H43_4 C36_2 1_555 1_555
H44_4 C36_2 1_555 1_555
C38_2 C36_2 1_555 1_555
H47_2 C38_2 1_555 1_555
H48_2 C38_2 1_555 1_555
C39_2 C38_2 1_555 1_555
H50_2 C39_2 1_555 1_555
C40_2 N9_2 1_555 1_555
H51_2 C40_2 1_555 1_555
C27_4 C31_4 1_555 1_555
C39_2 C40_2 1_555 1_555
Ag3_2 N1_4 1_555 1_555
Ag5 O7_4 1_555 1_555
N1_4 C1_4 1_555 1_555
C1_4 H3_4 1_555 1_555
H5_4 C4_4 1_555 1_555
C5_4 N1_4 1_555 1_555
H6_4 C5_4 1_555 1_555
O7_4 C41_2 1_555 1_555
O8_2 C45_2 1_555 1_555
N10_2 C41_2 1_555 1_555
N11_4 H32_4 1_555 1_555
N12_4 Ag3_2 1_555 1_555
H34_4 C28_4 1_555 1_555
C29_4 C28_4 1_555 1_555
H35_4 C29_4 1_555 1_555
H36_4 C30_4 1_555 1_555
C37_2 H45_2 1_555 1_555
H46_2 C37_2 1_555 1_555
C42_2 N10_2 1_555 1_555
H52_2 C42_2 1_555 1_555
C43_2 C37_2 1_555 1_555
H54_2 C43_2 1_555 1_555
H55_2 C43_2 1_555 1_555
C44_2 N10_2 1_555 1_555
H56_4 C44_2 1_555 1_555
C45_2 N11_4 1_555 1_555
C46_4 N12_4 1_555 1_555
H57_4 C46_4 1_555 1_555
C47_4 N11_4 1_555 1_555
C48_2 C47_4 1_555 1_555
H58_2 C48_2 1_555 1_555
C49_2 C48_2 1_555 1_555
H59_2 C49_2 1_555 1_555
C50_4 N12_4 1_555 1_555
H60_4 C50_4 1_555 1_555
C4_4 C5_4 1_555 1_555
C29_4 C30_4 1_555 1_555
C37_2 C44_2 1_555 1_555
C42_2 C43_2 1_555 1_555
C44_2 C45_2 1_555 1_555
C46_4 C47_4 1_555 1_555
C49_2 C50_4 1_555 1_555
N2_4 H1_4 1_555 1_555
N3_4 C10_4 1_555 1_555
N4_4 C15_4 1_555 1_555
N5_4 H2_4 1_555 1_555
N13_2 C21_4 1_555 1_555
O9_2 C6_4 1_555 1_555
O2_4 C10_4 1_555 1_555
O10_2 C15_4 1_555 1_555
O4_4 C20_4 1_555 1_555
C3_4 C2_4 1_555 1_555
H4_4 C3_4 1_555 1_555
C6_4 N2_4 1_555 1_555
C7_4 N2_4 1_555 1_555
C8_4 C7_4 1_555 1_555
H7_4 C8_4 1_555 1_555
H8_4 C8_4 1_555 1_555
H9_4 C8_4 1_555 1_555
C9_4 C7_4 1_555 1_555
H10_4 C9_4 1_555 1_555
H11_4 C9_4 1_555 1_555
H12_4 C9_4 1_555 1_555
C10_4 C7_4 1_555 1_555
C11_4 N3_4 1_555 1_555
H13_4 C11_4 1_555 1_555
H14_4 C11_4 1_555 1_555
C12_4 C11_4 1_555 1_555
H15_4 C12_4 1_555 1_555
H16_4 C12_4 1_555 1_555
C13_4 C12_4 1_555 1_555
H17_4 C13_4 1_555 1_555
H18_4 C13_4 1_555 1_555
C14_4 N3_4 1_555 1_555
H19_4 C14_4 1_555 1_555
C15_4 C14_4 1_555 1_555
C16_4 N4_4 1_555 1_555
H20_4 C16_4 1_555 1_555
H21_4 C16_4 1_555 1_555
C17_4 C16_4 1_555 1_555
H22_2 C17_4 1_555 1_555
H23_2 C17_4 1_555 1_555
C18_4 C17_4 1_555 1_555
H24_4 C18_4 1_555 1_555
H25_4 C18_4 1_555 1_555
C19_4 N4_4 1_555 1_555
H26_4 C19_4 1_555 1_555
C20_4 N5_4 1_555 1_555
C21_4 H27_4 1_555 1_555
C22_4 N5_4 1_555 1_555
C23_4 C22_4 1_555 1_555
H28_4 C23_4 1_555 1_555
C24_4 C23_4 1_555 1_555
H29_4 C24_4 1_555 1_555
C25_4 N13_2 1_555 1_555
H30_4 C25_4 1_555 1_555
C2_4 C6_4 1_555 1_555
C13_4 C14_4 1_555 1_555
C18_4 C19_4 1_555 1_555
C19_4 C20_4 1_555 1_555
C21_4 C22_4 1_555 1_555
C24_4 C25_4 1_555 1_555
H58_3 C48_3 1_555 1_555
C49_3 C48_3 1_555 1_555
H59_3 C49_3 1_555 1_555
C36_3 N9_3 1_555 1_555
C38_3 C36_3 1_555 1_555
H47_3 C38_3 1_555 1_555
H48_3 C38_3 1_555 1_555
C39_3 C38_3 1_555 1_555
H50_3 C39_3 1_555 1_555
C40_3 N9_3 1_555 1_555
C39_3 C40_3 1_555 1_555
H37_4 C33_4 1_555 1_555
H38_4 C33_4 1_555 1_555
H39_4 C33_4 1_555 1_555
N10_3 C41_3 1_555 1_555
C37_3 H45_3 1_555 1_555
H46_3 C37_3 1_555 1_555
C42_3 N10_3 1_555 1_555
H52_3 C42_3 1_555 1_555
C43_3 C37_3 1_555 1_555
H54_3 C43_3 1_555 1_555
H55_3 C43_3 1_555 1_555
C44_3 N10_3 1_555 1_555
C37_3 C44_3 1_555 1_555
C42_3 C43_3 1_555 1_555
C44_3 C45_3 1_555 1_555
O8_4 C45_4 1_555 1_555
N10_4 C41_4 1_555 1_555
C36_4 N9_4 1_555 1_555
C37_4 H45_4 1_555 1_555
H46_4 C37_4 1_555 1_555
C38_4 C36_4 1_555 1_555
H47_4 C38_4 1_555 1_555
H48_4 C38_4 1_555 1_555
C39_4 C38_4 1_555 1_555
H49_4 C39_4 1_555 1_555
H50_4 C39_4 1_555 1_555
C40_4 N9_4 1_555 1_555
H51_4 C40_4 1_555 1_555
C41_4 C40_4 1_555 1_555
C42_4 N10_4 1_555 1_555
H52_4 C42_4 1_555 1_555
H53_4 C42_4 1_555 1_555
C43_4 C37_4 1_555 1_555
H54_4 C43_4 1_555 1_555
H55_4 C43_4 1_555 1_555
C44_4 N10_4 1_555 1_555
H58_4 C48_4 1_555 1_555
C49_4 C48_4 1_555 1_555
H59_4 C49_4 1_555 1_555
C37_4 C44_4 1_555 1_555
C39_4 C40_4 1_555 1_555
C42_4 C43_4 1_555 1_555
C44_4 C45_4 1_555 1_555
P1 F1 1_555 1_555
F2 P1 1_555 1_555
F3 P1 1_555 1_555
F4 P1 1_555 1_555
F5 P1 1_555 1_555
F6 P1 1_555 1_555
P1_2 F1_2 1_555 1_555
F2_2 P1_2 1_555 1_555
F3_2 P1_2 1_555 1_555
F4_2 P1_2 1_555 1_555
F5_2 P1_2 1_555 1_555
F6_2 P1_2 1_555 1_555
P1_3 F1_3 1_555 1_555
F2_3 P1_3 1_555 1_555
F3_3 P1_3 1_555 1_555
F4_3 P1_3 1_555 1_555
F5_3 P1_3 1_555 1_555
F6_3 P1_3 1_555 1_555
P1_4 F1_4 1_555 1_555
F2_4 P1_4 1_555 1_555
F3_4 P1_4 1_555 1_555
F4_4 P1_4 1_555 1_555
F5_4 P1_4 1_555 1_555
F6_4 P1_4 1_555 1_555
O11 H61 1_555 1_555
O11_3 H61_3 1_555 1_555

#END
