
###############################################################################
#
# This file contains modified crystal structure data generated from the
# MOF subset of the Cambridge Structural Database (CSD) v543 
# hosted by the Cambridge Crystallographic Data Centre (CCDC).
#
# This work is licensed under the Creative Commons
# Attribution-NonCommercial-ShareAlike 4.0 International License.
# To view a copy of this license, visit
# http://creativecommons.org/licenses/by-nc-sa/4.0/
# or send a letter to
# Creative Commons, PO Box 1866, Mountain View, CA 94042, USA.
#
# CIF created using the CSD Python API on 29 September 2022
# The structure has been converted into the P1 space group
# The structure has a 3D framework
# The original CSD entry HUWSOK is in the tetragonal crystal system
# The original CSD entry HUWSOK is in a Sohncke space group
# The framework has been calculated to contain at least 10.0% void space
# The void calculation uses a probe of radius 1.32A, grid spacing 0.4
# The framework is charged, counterions have been retained in the structure
#
###############################################################################

data_HUWSOK
_chemical_formula_moiety         '(C216 H240 Ag8 F48 N56 O58 S16)n'
_symmetry_cell_setting           triclinic
_symmetry_space_group_name_H-M   'P 1'
_symmetry_Int_Tables_number      1
_space_group_name_Hall           'P 1'
loop_
_symmetry_equiv_pos_site_id
_symmetry_equiv_pos_as_xyz
1 x,y,z
_cell_length_a                   23.25420(10)
_cell_length_b                   23.25420(10)
_cell_length_c                   15.61520(10)
_cell_angle_alpha                90
_cell_angle_beta                 90
_cell_angle_gamma                90
_cell_volume                     8444.04
loop_
_atom_site_label
_atom_site_type_symbol
_atom_site_fract_x
_atom_site_fract_y
_atom_site_fract_z
C6 C 0.5368(3) 0.1299(3) 0.0615(5)
C7 C 0.5538(3) 0.0853(3) 0.2009(5)
C8 C 0.5059(4) 0.0398(3) 0.1989(6)
H5 H 0.4943 0.0309 0.2564
H6 H 0.4736 0.0544 0.1675
H7 H 0.5200 0.0055 0.1716
C9 C 0.6053(4) 0.0597(4) 0.2499(5)
H8 H 0.5938 0.0506 0.3073
H9 H 0.6182 0.0255 0.2215
H10 H 0.6361 0.0873 0.2514
C10 C 0.5333(3) 0.1388(3) 0.2482(5)
C11 C 0.6137(5) 0.2034(4) 0.1896(7)
H11 H 0.6033 0.2152 0.1320
H12 H 0.6402 0.1713 0.1865
C12 C 0.6392(6) 0.2537(6) 0.2408(11)
H13 H 0.6621 0.2399 0.2885
H14 H 0.6629 0.2780 0.2047
C13 C 0.5869(7) 0.2853(5) 0.2716(11)
H15 H 0.5722 0.3105 0.2272
H16 H 0.5959 0.3082 0.3217
C14 C 0.5419(5) 0.2376(4) 0.2940(7)
H17 H 0.5437 0.2279 0.3550
C15 C 0.4813(5) 0.2543(3) 0.2687(6)
C16 C 0.4537(6) 0.2645(5) 0.4224(7)
H18 H 0.4771 0.2958 0.4441
H19 H 0.4714 0.2281 0.4378
C17 C 0.3908(8) 0.2683(5) 0.4555(10)
H20 H 0.3725 0.2309 0.4551
H21 H 0.3896 0.2838 0.5132
C18 C 0.3623(7) 0.3085(6) 0.3930(8)
H22 H 0.3706 0.3483 0.4069
H23 H 0.3209 0.3030 0.3927
C19 C 0.3891(5) 0.2916(4) 0.3042(7)
H24 H 0.3661 0.2613 0.2774
C20 C 0.3935(5) 0.3420(4) 0.2456(7)
C21 C 0.2974(4) 0.3797(4) 0.0670(5)
H25 H 0.2743 0.3474 0.0735
C22 C 0.3430(5) 0.3873(5) 0.1231(6)
C23 C 0.3766(7) 0.4339(8) 0.1140(10)
H26 H 0.4067 0.4406 0.1519
C24 C 0.3659(8) 0.4719(7) 0.0478(10)
H27 H 0.3904 0.5030 0.0394
N2 N 0.5719(3) 0.0991(3) 0.1134(4)
H29 H 0.6048 0.0877 0.0951
N3 N 0.5622(3) 0.1889(3) 0.2411(5)
N4 N 0.4446(4) 0.2692(3) 0.3283(6)
N5 N 0.3502(4) 0.3448(4) 0.1856(5)
H30 H 0.3251 0.3177 0.1866
N6 N 0.2852(4) 0.4165(4) 0.0044(5)
O1 O 0.4899(3) 0.1508(3) 0.0873(4)
O2 O 0.4915(3) 0.1360(2) 0.2979(4)
O3 O 0.4676(4) 0.2571(3) 0.1899(4)
O4 O 0.4280(5) 0.3788(4) 0.2550(7)
Ag2 Ag 0.40104(3) 0.21325(3) 0.07905(4)
Ag1 Ag 0.71325(3) 0.09896(3) 0.82905(4)
C1 C 0.6140(4) 0.1296(4) 0.9490(6)
H1 H 0.6390 0.1129 0.9882
C2 C 0.5582(5) 0.1423(4) 0.9752(6)
C3 C 0.5200(7) 0.1655(6) 0.9141(7)
H2 H 0.4818 0.1730 0.9275
C4 C 0.5424(10) 0.1767(10) 0.8315(10)
H3 H 0.5196 0.1946 0.7905
C5 C 0.5961(8) 0.1617(6) 0.8128(8)
H4 H 0.6087 0.1663 0.7567
C25 C 0.3188(6) 0.4641(7) 0.9932(10)
H28 H 0.3105 0.4907 0.9505
N1 N 0.6329(4) 0.1404(3) 0.8704(5)
Ag3 Ag 0.21325(3) 0.40104(3) 0.92095(4)
N7 N 0.7852(4) 0.0835(4) 0.7456(5)
O5 O 0.6508(3) 0.0101(3) 0.8373(4)
O6 O 0.7571(3) 0.0324(4) 0.9399(4)
Ag1_2 Ag 0.28675(3) 0.90104(3) 0.32905(4)
C1_2 C 0.3860(4) 0.8704(4) 0.4490(6)
H1_2 H 0.3610 0.8871 0.4882
C2_2 C 0.4418(5) 0.8577(4) 0.4752(6)
C3_2 C 0.4800(7) 0.8345(6) 0.4141(7)
H2_2 H 0.5182 0.8270 0.4275
C4_2 C 0.4576(10) 0.8233(10) 0.3315(10)
H3_2 H 0.4804 0.8054 0.2905
C5_2 C 0.4039(8) 0.8383(6) 0.3128(8)
H4_2 H 0.3913 0.8337 0.2567
C6_2 C 0.4632(3) 0.8701(3) 0.5615(5)
C7_2 C 0.4462(3) 0.9147(3) 0.7009(5)
C8_2 C 0.4941(4) 0.9602(3) 0.6989(6)
H5_2 H 0.5057 0.9691 0.7564
H6_2 H 0.5264 0.9456 0.6675
H7_2 H 0.4800 0.9945 0.6716
C9_2 C 0.3947(4) 0.9403(4) 0.7499(5)
H8_2 H 0.4062 0.9494 0.8073
H9_2 H 0.3818 0.9745 0.7215
H10_2 H 0.3639 0.9127 0.7514
C10_2 C 0.4667(3) 0.8612(3) 0.7482(5)
C11_2 C 0.3863(5) 0.7966(4) 0.6896(7)
H11_2 H 0.3967 0.7848 0.6320
H12_2 H 0.3598 0.8287 0.6865
C12_2 C 0.3608(6) 0.7463(6) 0.7408(11)
H13_2 H 0.3379 0.7601 0.7885
H14_2 H 0.3371 0.7220 0.7047
C13_2 C 0.4131(7) 0.7147(5) 0.7716(11)
H15_2 H 0.4278 0.6895 0.7272
H16_2 H 0.4041 0.6918 0.8217
C14_2 C 0.4581(5) 0.7624(4) 0.7940(7)
H17_2 H 0.4563 0.7721 0.8550
C15_2 C 0.5187(5) 0.7457(3) 0.7687(6)
C16_2 C 0.5463(6) 0.7355(5) 0.9224(7)
H18_2 H 0.5229 0.7042 0.9441
H19_2 H 0.5286 0.7719 0.9378
C17_2 C 0.6092(8) 0.7317(5) 0.9555(10)
H20_2 H 0.6275 0.7691 0.9551
C18_2 C 0.6377(7) 0.6915(6) 0.8930(8)
H22_2 H 0.6294 0.6517 0.9069
H23_2 H 0.6791 0.6970 0.8927
C19_2 C 0.6109(5) 0.7084(4) 0.8042(7)
H24_2 H 0.6339 0.7387 0.7774
C20_2 C 0.6065(5) 0.6580(4) 0.7456(7)
C21_2 C 0.7026(4) 0.6203(4) 0.5670(5)
H25_2 H 0.7257 0.6526 0.5735
C22_2 C 0.6570(5) 0.6127(5) 0.6231(6)
C23_2 C 0.6234(7) 0.5661(8) 0.6140(10)
H26_2 H 0.5933 0.5594 0.6519
C24_2 C 0.6341(8) 0.5281(7) 0.5478(10)
H27_2 H 0.6096 0.4970 0.5394
C25_2 C 0.6812(6) 0.5359(7) 0.4932(10)
H28_2 H 0.6895 0.5093 0.4505
N1_2 N 0.3671(4) 0.8596(3) 0.3704(5)
N2_2 N 0.4281(3) 0.9009(3) 0.6134(4)
H29_2 H 0.3952 0.9123 0.5951
N3_2 N 0.4378(3) 0.8111(3) 0.7411(5)
N4_2 N 0.5554(4) 0.7308(3) 0.8283(6)
N5_2 N 0.6498(4) 0.6552(4) 0.6856(5)
H30_2 H 0.6749 0.6823 0.6866
N6_2 N 0.7148(4) 0.5835(4) 0.5044(5)
O1_2 O 0.5101(3) 0.8492(3) 0.5873(4)
O2_2 O 0.5085(3) 0.8640(2) 0.7979(4)
O3_2 O 0.5324(4) 0.7429(3) 0.6899(4)
O4_2 O 0.5720(5) 0.6212(4) 0.7550(7)
Ag2_2 Ag 0.59896(3) 0.78675(3) 0.57905(4)
Ag3_2 Ag 0.78675(3) 0.59896(3) 0.42095(4)
N7_2 N 0.2148(4) 0.9165(4) 0.2456(5)
O5_2 O 0.3492(3) 0.9899(3) 0.3373(4)
O6_2 O 0.2429(3) 0.9676(4) 0.4399(4)
C1_3 C 0.3704(4) 0.1140(4) 0.1990(6)
H1_3 H 0.3871 0.1390 0.2382
C2_3 C 0.3577(4) 0.0582(5) 0.2252(6)
C3_3 C 0.3345(6) 0.0200(7) 0.1641(7)
C4_3 C 0.3233(10) 0.0424(10) 0.0815(10)
H3_3 H 0.3054 0.0196 0.0405
C5_3 C 0.3383(6) 0.0961(8) 0.0628(8)
H4_3 H 0.3337 0.1087 0.0067
C6_3 C 0.3701(3) 0.0368(3) 0.3115(5)
C7_3 C 0.4147(3) 0.0538(3) 0.4509(5)
C8_3 C 0.4602(3) 0.0059(4) 0.4489(6)
H7_3 H 0.4945 0.0200 0.4216
C9_3 C 0.4403(4) 0.1053(4) 0.4999(5)
H8_3 H 0.4494 0.0938 0.5573
H9_3 H 0.4745 0.1182 0.4715
H10_3 H 0.4127 0.1361 0.5014
C10_3 C 0.3612(3) 0.0333(3) 0.4982(5)
C11_3 C 0.2966(4) 0.1137(5) 0.4396(7)
H11_3 H 0.2848 0.1033 0.3820
H12_3 H 0.3287 0.1402 0.4365
C12_3 C 0.2463(6) 0.1392(6) 0.4908(11)
H13_3 H 0.2601 0.1621 0.5385
H14_3 H 0.2220 0.1629 0.4547
C13_3 C 0.2147(5) 0.0869(7) 0.5216(11)
H15_3 H 0.1895 0.0722 0.4772
H16_3 H 0.1918 0.0959 0.5717
C14_3 C 0.2624(4) 0.0419(5) 0.5440(7)
H17_3 H 0.2721 0.0437 0.6050
N1_3 N 0.3596(3) 0.1329(4) 0.1204(5)
N2_3 N 0.4009(3) 0.0719(3) 0.3634(4)
H29_3 H 0.4123 0.1048 0.3451
N3_3 N 0.3111(3) 0.0622(3) 0.4911(5)
N7_3 N 0.4165(4) 0.2852(4) 0.9956(5)
H2_3 H 0.3270 0.9818 0.1775
H5_3 H 0.4691 0.9943 0.5064
H6_3 H 0.4456 0.9736 0.4175
C15_3 C 0.2457(3) 0.9813(5) 0.5187(6)
C16_3 C 0.2355(5) 0.9537(6) 0.6724(7)
H18_3 H 0.2042 0.9771 0.6941
H19_3 H 0.2719 0.9714 0.6878
C17_3 C 0.2317(5) 0.8908(8) 0.7055(10)
H20_3 H 0.2691 0.8725 0.7051
H21_2 H 0.2162 0.8896 0.7632
C18_3 C 0.1915(6) 0.8623(7) 0.6430(8)
H22_3 H 0.1517 0.8706 0.6569
H23_3 H 0.1970 0.8209 0.6427
C19_3 C 0.2084(4) 0.8891(5) 0.5542(7)
H24_3 H 0.2387 0.8661 0.5274
C20_3 C 0.1580(4) 0.8935(5) 0.4956(7)
C21_3 C 0.1203(4) 0.7974(4) 0.3170(5)
H25_3 H 0.1526 0.7743 0.3235
C22_3 C 0.1127(5) 0.8430(5) 0.3731(6)
C23_3 C 0.0661(8) 0.8766(7) 0.3640(10)
H26_3 H 0.0594 0.9067 0.4019
C24_3 C 0.0281(7) 0.8659(8) 0.2978(10)
C25_3 C 0.0359(7) 0.8188(6) 0.2432(10)
H28_3 H 0.0093 0.8105 0.2005
N4_3 N 0.2308(3) 0.9446(4) 0.5783(6)
N5_3 N 0.1552(4) 0.8502(4) 0.4356(5)
H30_3 H 0.1823 0.8251 0.4366
N6_3 N 0.0835(4) 0.7852(4) 0.2544(5)
O2_3 O 0.3640(2) 0.9915(3) 0.5479(4)
O4_3 O 0.1212(4) 0.9280(5) 0.5050(7)
Ag3_3 Ag 0.09896(3) 0.71325(3) 0.17095(4)
H2_4 H 0.6730 0.0182 0.6775
H6_4 H 0.5544 0.0264 0.9175
C20_4 C 0.8420(4) 0.1065(5) 0.9956(7)
C21_4 C 0.8797(4) 0.2026(4) 0.8170(5)
H25_4 H 0.8474 0.2257 0.8235
C22_4 C 0.8873(5) 0.1570(5) 0.8731(6)
C23_4 C 0.9339(8) 0.1234(7) 0.8640(10)
H26_4 H 0.9406 0.0933 0.9019
C24_4 C 0.9719(7) 0.1341(8) 0.7978(10)
C25_4 C 0.9641(7) 0.1812(6) 0.7432(10)
H28_4 H 0.9907 0.1895 0.7005
N5_4 N 0.8448(4) 0.1498(4) 0.9356(5)
H30_4 H 0.8177 0.1749 0.9366
N6_4 N 0.9165(4) 0.2148(4) 0.7544(5)
Ag3_4 Ag 0.90104(3) 0.28675(3) 0.67095(4)
C1_4 C 0.6296(4) 0.8860(4) 0.6990(6)
H1_4 H 0.6129 0.8610 0.7382
C2_4 C 0.6423(4) 0.9418(5) 0.7252(6)
C3_4 C 0.6655(6) 0.9800(7) 0.6641(7)
C4_4 C 0.6767(10) 0.9576(10) 0.5815(10)
H3_4 H 0.6946 0.9804 0.5405
C5_4 C 0.6617(6) 0.9039(8) 0.5628(8)
H4_4 H 0.6663 0.8913 0.5067
C6_4 C 0.6299(3) 0.9632(3) 0.8115(5)
C7_4 C 0.5853(3) 0.9462(3) 0.9509(5)
C8_4 C 0.5398(3) 0.9941(4) 0.9489(6)
H7_4 H 0.5055 0.9800 0.9216
C9_4 C 0.5597(4) 0.8947(4) 0.9999(5)
H9_4 H 0.5255 0.8818 0.9715
C10_4 C 0.6388(3) 0.9667(3) 0.9982(5)
C11_4 C 0.7034(4) 0.8863(5) 0.9396(7)
H11_4 H 0.7152 0.8967 0.8820
H12_4 H 0.6713 0.8598 0.9365
C12_4 C 0.7537(6) 0.8608(6) 0.9908(11)
H14_4 H 0.7780 0.8371 0.9547
H15_4 H 0.8105 0.9278 0.9772
N1_4 N 0.6404(3) 0.8671(4) 0.6204(5)
N2_4 N 0.5991(3) 0.9281(3) 0.8634(4)
H29_4 H 0.5877 0.8952 0.8451
N3_4 N 0.6889(3) 0.9378(3) 0.9911(5)
N7_4 N 0.5835(4) 0.7148(4) 0.4956(5)
H2_5 H 0.0182 0.6730 0.3225
H6_5 H 0.0264 0.5544 0.0825
C20_5 C 0.1065(5) 0.8420(4) 0.0044(7)
C21_5 C 0.2026(4) 0.8797(4) 0.1830(5)
H25_5 H 0.2257 0.8474 0.1765
C22_5 C 0.1570(5) 0.8873(5) 0.1269(6)
C23_5 C 0.1234(7) 0.9339(8) 0.1360(10)
H26_5 H 0.0933 0.9406 0.0981
C24_5 C 0.1341(8) 0.9719(7) 0.2022(10)
C25_5 C 0.1812(6) 0.9641(7) 0.2568(10)
H28_5 H 0.1895 0.9907 0.2995
N5_5 N 0.1498(4) 0.8448(4) 0.0644(5)
H30_5 H 0.1749 0.8177 0.0634
O1_3 O 0.0101(3) 0.6508(3) 0.1627(4)
O3_3 O 0.0324(4) 0.7571(3) 0.0601(4)
C1_5 C 0.8860(4) 0.6296(4) 0.3010(6)
H1_5 H 0.8610 0.6129 0.2618
C2_5 C 0.9418(5) 0.6423(4) 0.2748(6)
C3_5 C 0.9800(7) 0.6655(6) 0.3359(7)
C4_5 C 0.9576(10) 0.6767(10) 0.4185(10)
H3_5 H 0.9804 0.6946 0.4595
C5_5 C 0.9039(8) 0.6617(6) 0.4372(8)
H4_5 H 0.8913 0.6663 0.4933
C6_5 C 0.9632(3) 0.6299(3) 0.1885(5)
C7_5 C 0.9462(3) 0.5853(3) 0.0491(5)
C8_5 C 0.9941(4) 0.5398(3) 0.0511(6)
H7_5 H 0.9800 0.5055 0.0784
C9_5 C 0.8947(4) 0.5597(4) 0.0001(5)
H9_5 H 0.8818 0.5255 0.0285
C10_5 C 0.9667(3) 0.6388(3) 0.0018(5)
C11_5 C 0.8863(5) 0.7034(4) 0.0604(7)
H11_5 H 0.8967 0.7152 0.1180
H12_5 H 0.8598 0.6713 0.0635
C12_5 C 0.8608(6) 0.7537(6) 0.0092(11)
H14_5 H 0.8371 0.7780 0.0453
H15_5 H 0.9278 0.8105 0.0228
N1_5 N 0.8671(4) 0.6404(3) 0.3796(5)
N2_5 N 0.9281(3) 0.5991(3) 0.1366(4)
H29_5 H 0.8952 0.5877 0.1549
N3_5 N 0.9378(3) 0.6889(3) 0.0089(5)
O5_3 O 0.8492(3) 0.5101(3) 0.4127(4)
O6_3 O 0.7429(3) 0.5324(4) 0.3101(4)
C1_6 C 0.1140(4) 0.3704(4) 0.8010(6)
H1_6 H 0.1390 0.3871 0.7618
C2_6 C 0.0582(5) 0.3577(4) 0.7748(6)
C3_6 C 0.0200(7) 0.3345(6) 0.8359(7)
C4_6 C 0.0424(10) 0.3233(10) 0.9185(10)
H3_6 H 0.0196 0.3054 0.9595
C5_6 C 0.0961(8) 0.3383(6) 0.9372(8)
H4_6 H 0.1087 0.3337 0.9933
C6_6 C 0.0368(3) 0.3701(3) 0.6885(5)
C7_6 C 0.0538(3) 0.4147(3) 0.5491(5)
C8_6 C 0.0059(4) 0.4602(3) 0.5511(6)
H7_6 H 0.0200 0.4945 0.5784
C9_6 C 0.1053(4) 0.4403(4) 0.5001(5)
H8_4 H 0.0938 0.4494 0.4427
H9_6 H 0.1182 0.4745 0.5285
H10_4 H 0.1361 0.4127 0.4986
C10_6 C 0.0333(3) 0.3612(3) 0.5018(5)
C11_6 C 0.1137(5) 0.2966(4) 0.5604(7)
H11_6 H 0.1033 0.2848 0.6180
H12_6 H 0.1402 0.3287 0.5635
C12_6 C 0.1392(6) 0.2463(6) 0.5092(11)
H13_4 H 0.1621 0.2601 0.4615
H14_6 H 0.1629 0.2220 0.5453
C13_4 C 0.0869(7) 0.2147(5) 0.4784(11)
H15_6 H 0.0722 0.1895 0.5228
H16_4 H 0.0959 0.1918 0.4283
C14_4 C 0.0419(5) 0.2624(4) 0.4560(7)
H17_4 H 0.0437 0.2721 0.3950
N1_6 N 0.1329(4) 0.3596(3) 0.8796(5)
N2_6 N 0.0719(3) 0.4009(3) 0.6366(4)
H29_6 H 0.1048 0.4123 0.6549
N3_6 N 0.0622(3) 0.3111(3) 0.5089(5)
O5_4 O 0.1508(3) 0.4899(3) 0.9127(4)
O6_4 O 0.2571(3) 0.4676(4) 0.8101(4)
H2_6 H 0.9818 0.3270 0.8225
H5_4 H 0.9943 0.4691 0.4936
H6_6 H 0.9736 0.4456 0.5825
C15_4 C 0.9813(5) 0.2457(3) 0.4813(6)
C16_4 C 0.9537(6) 0.2355(5) 0.3276(7)
H18_4 H 0.9771 0.2042 0.3059
H19_4 H 0.9714 0.2719 0.3122
C17_4 C 0.8908(8) 0.2317(5) 0.2945(10)
H20_4 H 0.8725 0.2691 0.2949
H21_3 H 0.8896 0.2162 0.2368
C18_4 C 0.8623(7) 0.1915(6) 0.3570(8)
H22_4 H 0.8706 0.1517 0.3431
H23_4 H 0.8209 0.1970 0.3573
C19_4 C 0.8891(5) 0.2084(4) 0.4458(7)
H24_4 H 0.8661 0.2387 0.4726
C20_6 C 0.8935(5) 0.1580(4) 0.5044(7)
C21_6 C 0.7974(4) 0.1203(4) 0.6830(5)
H25_6 H 0.7743 0.1526 0.6765
C22_6 C 0.8430(5) 0.1127(5) 0.6269(6)
C23_6 C 0.8766(7) 0.0661(8) 0.6360(10)
H26_6 H 0.9067 0.0594 0.5981
C24_6 C 0.8659(8) 0.0281(7) 0.7022(10)
C25_6 C 0.8188(6) 0.0359(7) 0.7568(10)
H28_6 H 0.8105 0.0093 0.7995
N4_4 N 0.9446(4) 0.2308(3) 0.4217(6)
N5_6 N 0.8502(4) 0.1552(4) 0.5644(5)
H30_6 H 0.8251 0.1823 0.5634
O1_4 O 0.9899(3) 0.3492(3) 0.6627(4)
O2_4 O 0.9915(3) 0.3640(2) 0.4521(4)
O3_4 O 0.9676(4) 0.2429(3) 0.5601(4)
O4_4 O 0.9280(5) 0.1212(4) 0.4950(7)
C1_7 C 0.1296(4) 0.6140(4) 0.0510(6)
H1_7 H 0.1129 0.6390 0.0118
C2_7 C 0.1423(4) 0.5582(5) 0.0248(6)
C3_7 C 0.1655(6) 0.5200(7) 0.0859(7)
H2_7 H 0.1730 0.4818 0.0725
C4_7 C 0.1767(10) 0.5424(10) 0.1685(10)
H3_7 H 0.1946 0.5196 0.2095
C5_7 C 0.1617(6) 0.5961(8) 0.1872(8)
H4_7 H 0.1663 0.6087 0.2433
C25_7 C 0.4641(7) 0.3188(6) 0.0068(10)
H28_7 H 0.4907 0.3105 0.0495
N1_7 N 0.1404(3) 0.6329(4) 0.1296(5)
C6_7 C 0.1299(3) 0.5368(3) 0.9385(5)
C7_7 C 0.0853(3) 0.5538(3) 0.7991(5)
C8_7 C 0.0398(3) 0.5059(4) 0.8011(6)
H5_5 H 0.0309 0.4943 0.7436
H6_7 H 0.0544 0.4736 0.8325
H7_7 H 0.0055 0.5200 0.8284
C9_7 C 0.0597(4) 0.6053(4) 0.7501(5)
H8_5 H 0.0506 0.5938 0.6927
H9_7 H 0.0255 0.6182 0.7785
H10_5 H 0.0873 0.6361 0.7486
C10_7 C 0.1388(3) 0.5333(3) 0.7518(5)
C11_7 C 0.2034(4) 0.6137(5) 0.8104(7)
H11_7 H 0.2152 0.6033 0.8680
H12_7 H 0.1713 0.6402 0.8135
C12_7 C 0.2537(6) 0.6392(6) 0.7592(11)
H13_5 H 0.2399 0.6621 0.7115
H14_7 H 0.2780 0.6629 0.7953
C13_5 C 0.2853(5) 0.5869(7) 0.7284(11)
H15_7 H 0.3105 0.5722 0.7728
H16_5 H 0.3082 0.5959 0.6783
C14_5 C 0.2376(4) 0.5419(5) 0.7060(7)
H17_5 H 0.2279 0.5437 0.6450
C15_5 C 0.2543(3) 0.4813(5) 0.7313(6)
C16_5 C 0.2645(5) 0.4537(6) 0.5776(7)
H18_5 H 0.2958 0.4771 0.5559
H19_5 H 0.2281 0.4714 0.5622
C17_5 C 0.2683(5) 0.3908(8) 0.5445(10)
H20_5 H 0.2309 0.3725 0.5449
H21_4 H 0.2838 0.3896 0.4868
C18_5 C 0.3085(6) 0.3623(7) 0.6070(8)
H22_5 H 0.3483 0.3706 0.5931
H23_5 H 0.3030 0.3209 0.6073
C19_5 C 0.2916(4) 0.3891(5) 0.6958(7)
H24_5 H 0.2613 0.3661 0.7226
C20_7 C 0.3420(4) 0.3935(5) 0.7544(7)
C21_7 C 0.3797(4) 0.2974(4) 0.9330(5)
H25_7 H 0.3474 0.2743 0.9265
C22_7 C 0.3873(5) 0.3430(5) 0.8769(6)
C23_7 C 0.4339(8) 0.3766(7) 0.8860(10)
H26_7 H 0.4406 0.4067 0.8481
C24_7 C 0.4719(7) 0.3659(8) 0.9522(10)
H27_3 H 0.5030 0.3904 0.9606
N2_7 N 0.0991(3) 0.5719(3) 0.8866(4)
H29_7 H 0.0877 0.6048 0.9049
N3_7 N 0.1889(3) 0.5622(3) 0.7589(5)
N4_5 N 0.2692(3) 0.4446(4) 0.6717(6)
N5_7 N 0.3448(4) 0.3502(4) 0.8144(5)
H30_7 H 0.3177 0.3251 0.8134
O2_5 O 0.1360(2) 0.4915(3) 0.7021(4)
O4_5 O 0.3788(4) 0.4280(5) 0.7450(7)
C1_8 C 0.8704(4) 0.3860(4) 0.5510(6)
H1_8 H 0.8871 0.3610 0.5118
C2_8 C 0.8577(4) 0.4418(5) 0.5248(6)
C3_8 C 0.8345(6) 0.4800(7) 0.5859(7)
H2_8 H 0.8270 0.5182 0.5725
C4_8 C 0.8233(10) 0.4576(10) 0.6685(10)
H3_8 H 0.8054 0.4804 0.7095
C5_8 C 0.8383(6) 0.4039(8) 0.6872(8)
H4_8 H 0.8337 0.3913 0.7433
C6_8 C 0.8701(3) 0.4632(3) 0.4385(5)
C7_8 C 0.9147(3) 0.4462(3) 0.2991(5)
C8_8 C 0.9602(3) 0.4941(4) 0.3011(6)
H5_6 H 0.9691 0.5057 0.2436
H6_8 H 0.9456 0.5264 0.3325
H7_8 H 0.9945 0.4800 0.3284
C9_8 C 0.9403(4) 0.3947(4) 0.2501(5)
H8_6 H 0.9494 0.4062 0.1927
H9_8 H 0.9745 0.3818 0.2785
H10_6 H 0.9127 0.3639 0.2486
C10_8 C 0.8612(3) 0.4667(3) 0.2518(5)
C11_8 C 0.7966(4) 0.3863(5) 0.3104(7)
H11_8 H 0.7848 0.3967 0.3680
H12_8 H 0.8287 0.3598 0.3135
C12_8 C 0.7463(6) 0.3608(6) 0.2592(11)
H13_6 H 0.7601 0.3379 0.2115
H14_8 H 0.7220 0.3371 0.2953
C13_6 C 0.7147(5) 0.4131(7) 0.2284(11)
H15_8 H 0.6895 0.4278 0.2728
H16_6 H 0.6918 0.4041 0.1783
C14_6 C 0.7624(4) 0.4581(5) 0.2060(7)
H17_6 H 0.7721 0.4563 0.1450
C15_6 C 0.7457(3) 0.5187(5) 0.2313(6)
C16_6 C 0.7355(5) 0.5463(6) 0.0776(7)
H18_6 H 0.7042 0.5229 0.0559
H19_6 H 0.7719 0.5286 0.0622
C17_6 C 0.7317(5) 0.6092(8) 0.0445(10)
H20_6 H 0.7691 0.6275 0.0449
C18_6 C 0.6915(6) 0.6377(7) 0.1070(8)
H22_6 H 0.6517 0.6294 0.0931
H23_6 H 0.6970 0.6791 0.1073
C19_6 C 0.7084(4) 0.6109(5) 0.1958(7)
H24_6 H 0.7387 0.6339 0.2226
C20_8 C 0.6580(4) 0.6065(5) 0.2544(7)
C21_8 C 0.6203(4) 0.7026(4) 0.4330(5)
H25_8 H 0.6526 0.7257 0.4265
C22_8 C 0.6127(5) 0.6570(5) 0.3769(6)
C23_8 C 0.5661(8) 0.6234(7) 0.3860(10)
H26_8 H 0.5594 0.5933 0.3481
C24_8 C 0.5281(7) 0.6341(8) 0.4522(10)
H27_4 H 0.4970 0.6096 0.4606
C25_8 C 0.5359(7) 0.6812(6) 0.5068(10)
H28_8 H 0.5093 0.6895 0.5495
N1_8 N 0.8596(3) 0.3671(4) 0.6296(5)
N2_8 N 0.9009(3) 0.4281(3) 0.3866(4)
H29_8 H 0.9123 0.3952 0.4049
N3_8 N 0.8111(3) 0.4378(3) 0.2589(5)
N4_6 N 0.7308(3) 0.5554(4) 0.1717(6)
N5_8 N 0.6552(4) 0.6498(4) 0.3144(5)
H30_8 H 0.6823 0.6749 0.3134
O2_6 O 0.8640(2) 0.5085(3) 0.2021(4)
O4_6 O 0.6212(4) 0.5720(5) 0.2450(7)
H21_5 H 0.6104 0.7162 0.0132
H27_5 H 0.9970 0.8904 0.2894
H27_6 H 0.0030 0.1096 0.7894
H5_7 H 0.5309 0.0057 0.0064
C15_7 C 0.7543(3) 0.0187(5) 0.0187(6)
C16_7 C 0.7645(5) 0.0463(6) 0.1724(7)
H18_7 H 0.7958 0.0229 0.1941
H19_7 H 0.7281 0.0286 0.1878
C17_7 C 0.7683(5) 0.1092(8) 0.2055(10)
H20_7 H 0.7309 0.1275 0.2051
H21_6 H 0.7838 0.1104 0.2632
C18_7 C 0.8085(6) 0.1377(7) 0.1430(8)
H22_7 H 0.8483 0.1294 0.1569
H23_7 H 0.8030 0.1791 0.1427
C19_7 C 0.7916(4) 0.1109(5) 0.0542(7)
H24_7 H 0.7613 0.1339 0.0274
N4_7 N 0.7692(3) 0.0554(4) 0.0783(6)
O2_7 O 0.6360(2) 0.0085(3) 0.0479(4)
O4_7 O 0.8788(4) 0.0720(5) 0.0050(7)
H8_7 H 0.5506 0.9062 0.0573
H10_7 H 0.5873 0.8639 0.0014
H13_7 H 0.7399 0.8379 0.0385
C13_7 C 0.7853(5) 0.9131(7) 0.0216(11)
H16_7 H 0.8082 0.9041 0.0717
C14_7 C 0.7376(4) 0.9581(5) 0.0440(7)
H17_7 H 0.7279 0.9563 0.1050
H27_7 H 0.1096 0.0030 0.2106
H5_8 H 0.0057 0.5309 0.9936
C15_8 C 0.0187(5) 0.7543(3) 0.9813(6)
C16_8 C 0.0463(6) 0.7645(5) 0.8276(7)
H18_8 H 0.0229 0.7958 0.8059
H19_8 H 0.0286 0.7281 0.8122
C17_8 C 0.1092(8) 0.7683(5) 0.7945(10)
H20_8 H 0.1275 0.7309 0.7949
H21_7 H 0.1104 0.7838 0.7368
C18_8 C 0.1377(7) 0.8085(6) 0.8570(8)
H22_8 H 0.1294 0.8483 0.8431
H23_8 H 0.1791 0.8030 0.8573
C19_8 C 0.1109(5) 0.7916(4) 0.9458(7)
H24_8 H 0.1339 0.7613 0.9726
N4_8 N 0.0554(4) 0.7692(3) 0.9217(6)
O2_8 O 0.0085(3) 0.6360(2) 0.9521(4)
O4_8 O 0.0720(5) 0.8788(4) 0.9950(7)
H8_8 H 0.9062 0.5506 0.9427
H10_8 H 0.8639 0.5873 0.9986
H13_8 H 0.8379 0.7399 0.9615
C13_8 C 0.9131(7) 0.7853(5) 0.9784(11)
H16_8 H 0.9041 0.8082 0.9283
C14_8 C 0.9581(5) 0.7376(4) 0.9560(7)
H17_8 H 0.9563 0.7279 0.8950
H27_8 H 0.8904 0.9970 0.7106
H21_8 H 0.7162 0.6104 0.9868
S1 S 0.6304(3) 0.1965(2) 0.5454(3)
F1 F 0.7305(6) 0.3765(7) 0.5606(15)
F2 F 0.6582(10) 0.3303(10) 0.6118(16)
N8 N 0.6601(9) 0.2419(10) 0.4840(15)
S2 S 0.7203(3) 0.2724(3) 0.5063(5)
O7 O 0.5726(13) 0.1988(13) 0.547(2)
O8 O 0.6616(10) 0.1845(13) 0.6298(13)
O9 O 0.7462(12) 0.2760(14) 0.4121(16)
O10 O 0.7670(8) 0.2492(8) 0.5732(13)
C26 C 0.6543(14) 0.1314(10) 0.4907(17)
C27 C 0.6904(11) 0.3403(10) 0.543(2)
F3 F 0.7120(10) 0.1358(13) 0.480(2)
F4 F 0.6349(16) 0.1311(12) 0.4096(14)
F5 F 0.6310(15) 0.0855(12) 0.529(2)
F6 F 0.6557(9) 0.3643(10) 0.487(2)
S1_2 S 0.3696(3) 0.8035(2) 0.0454(3)
F1_2 F 0.2695(6) 0.6235(7) 0.0606(15)
F2_2 F 0.3418(10) 0.6697(10) 0.1118(16)
S2_2 S 0.2797(3) 0.7276(3) 0.0063(5)
O7_2 O 0.4274(13) 0.8012(13) 0.047(2)
O8_2 O 0.3384(10) 0.8155(13) 0.1298(13)
O10_2 O 0.2330(8) 0.7508(8) 0.0732(13)
C27_2 C 0.3096(11) 0.6597(10) 0.043(2)
F5_2 F 0.3690(15) 0.9145(12) 0.029(2)
N8_2 N 0.3399(9) 0.7581(10) 0.9840(15)
O9_2 O 0.2538(12) 0.7240(14) 0.9121(16)
C26_2 C 0.3457(14) 0.8686(10) 0.9907(17)
F3_2 F 0.2880(10) 0.8642(13) 0.980(2)
F4_2 F 0.3651(16) 0.8689(12) 0.9096(14)
F6_2 F 0.3443(9) 0.6357(10) 0.987(2)
S1_3 S 0.3035(2) 0.1304(3) 0.7954(3)
F1_3 F 0.1235(7) 0.2305(6) 0.8106(15)
F2_3 F 0.1697(10) 0.1582(10) 0.8618(16)
N8_3 N 0.2581(10) 0.1601(9) 0.7340(15)
S2_3 S 0.2276(3) 0.2203(3) 0.7563(5)
O7_3 O 0.3012(13) 0.0726(13) 0.797(2)
O8_3 O 0.3155(13) 0.1616(10) 0.8798(13)
O9_3 O 0.2240(14) 0.2462(12) 0.6621(16)
O10_3 O 0.2508(8) 0.2670(8) 0.8232(13)
C26_3 C 0.3686(10) 0.1543(14) 0.7407(17)
C27_3 C 0.1597(10) 0.1904(11) 0.793(2)
F3_3 F 0.3642(13) 0.2120(10) 0.730(2)
F4_3 F 0.3689(12) 0.1349(16) 0.6596(14)
F5_3 F 0.4145(12) 0.1310(15) 0.779(2)
F6_3 F 0.1357(10) 0.1557(9) 0.737(2)
S1_4 S 0.6965(2) 0.8696(3) 0.2954(3)
F1_4 F 0.8765(7) 0.7695(6) 0.3106(15)
F2_4 F 0.8303(10) 0.8418(10) 0.3618(16)
N8_4 N 0.7419(10) 0.8399(9) 0.2340(15)
S2_4 S 0.7724(3) 0.7797(3) 0.2563(5)
O7_4 O 0.6988(13) 0.9274(13) 0.297(2)
O8_4 O 0.6845(13) 0.8384(10) 0.3798(13)
O9_4 O 0.7760(14) 0.7538(12) 0.1621(16)
O10_4 O 0.7492(8) 0.7330(8) 0.3232(13)
C26_4 C 0.6314(10) 0.8457(14) 0.2407(17)
C27_4 C 0.8403(10) 0.8096(11) 0.293(2)
F3_4 F 0.6358(13) 0.7880(10) 0.230(2)
F4_4 F 0.6311(12) 0.8651(16) 0.1596(14)
F5_4 F 0.5855(12) 0.8690(15) 0.279(2)
F6_4 F 0.8643(10) 0.8443(9) 0.237(2)
S1_5 S 0.8696(3) 0.6965(2) 0.7046(3)
F1_5 F 0.7695(6) 0.8765(7) 0.6894(15)
F2_5 F 0.8418(10) 0.8303(10) 0.6382(16)
N8_5 N 0.8399(9) 0.7419(10) 0.7660(15)
S2_5 S 0.7797(3) 0.7724(3) 0.7437(5)
O7_5 O 0.9274(13) 0.6988(13) 0.703(2)
O8_5 O 0.8384(10) 0.6845(13) 0.6202(13)
O9_5 O 0.7538(12) 0.7760(14) 0.8379(16)
O10_5 O 0.7330(8) 0.7492(8) 0.6768(13)
C26_5 C 0.8457(14) 0.6314(10) 0.7593(17)
C27_5 C 0.8096(11) 0.8403(10) 0.707(2)
F3_5 F 0.7880(10) 0.6358(13) 0.770(2)
F4_5 F 0.8651(16) 0.6311(12) 0.8404(14)
F5_5 F 0.8690(15) 0.5855(12) 0.721(2)
F6_5 F 0.8443(9) 0.8643(10) 0.763(2)
S1_6 S 0.1304(3) 0.3035(2) 0.2046(3)
F1_6 F 0.2305(6) 0.1235(7) 0.1894(15)
F2_6 F 0.1582(10) 0.1697(10) 0.1382(16)
N8_6 N 0.1601(9) 0.2581(10) 0.2660(15)
S2_6 S 0.2203(3) 0.2276(3) 0.2437(5)
O7_6 O 0.0726(13) 0.3012(13) 0.203(2)
O8_6 O 0.1616(10) 0.3155(13) 0.1202(13)
O9_6 O 0.2462(12) 0.2240(14) 0.3379(16)
O10_6 O 0.2670(8) 0.2508(8) 0.1768(13)
C26_6 C 0.1543(14) 0.3686(10) 0.2593(17)
C27_6 C 0.1904(11) 0.1597(10) 0.207(2)
F3_6 F 0.2120(10) 0.3642(13) 0.270(2)
F4_6 F 0.1349(16) 0.3689(12) 0.3404(14)
F5_6 F 0.1310(15) 0.4145(12) 0.221(2)
F6_6 F 0.1557(9) 0.1357(10) 0.263(2)
S1_7 S 0.1965(2) 0.6304(3) 0.4546(3)
F1_7 F 0.3765(7) 0.7305(6) 0.4394(15)
F2_7 F 0.3303(10) 0.6582(10) 0.3882(16)
N8_7 N 0.2419(10) 0.6601(9) 0.5160(15)
S2_7 S 0.2724(3) 0.7203(3) 0.4937(5)
O7_7 O 0.1988(13) 0.5726(13) 0.453(2)
O8_7 O 0.1845(13) 0.6616(10) 0.3702(13)
O9_7 O 0.2760(14) 0.7462(12) 0.5879(16)
O10_7 O 0.2492(8) 0.7670(8) 0.4268(13)
C26_7 C 0.1314(10) 0.6543(14) 0.5093(17)
C27_7 C 0.3403(10) 0.6904(11) 0.457(2)
F3_7 F 0.1358(13) 0.7120(10) 0.520(2)
F4_7 F 0.1311(12) 0.6349(16) 0.5904(14)
F5_7 F 0.0855(12) 0.6310(15) 0.471(2)
F6_7 F 0.3643(10) 0.6557(9) 0.513(2)
N8_8 N 0.7581(10) 0.3399(9) 0.0160(15)
O9_8 O 0.7240(14) 0.2538(12) 0.0879(16)
C26_8 C 0.8686(10) 0.3457(14) 0.0093(17)
F3_8 F 0.8642(13) 0.2880(10) 0.020(2)
F4_8 F 0.8689(12) 0.3651(16) 0.0904(14)
F6_8 F 0.6357(10) 0.3443(9) 0.013(2)
S1_8 S 0.8035(2) 0.3696(3) 0.9546(3)
F1_8 F 0.6235(7) 0.2695(6) 0.9394(15)
F2_8 F 0.6697(10) 0.3418(10) 0.8882(16)
S2_8 S 0.7276(3) 0.2797(3) 0.9937(5)
O7_8 O 0.8012(13) 0.4274(13) 0.953(2)
O8_8 O 0.8155(13) 0.3384(10) 0.8702(13)
O10_8 O 0.7508(8) 0.2330(8) 0.9268(13)
C27_8 C 0.6597(10) 0.3096(11) 0.957(2)
F5_8 F 0.9145(12) 0.3690(15) 0.971(2)
loop_
_geom_bond_atom_site_label_1
_geom_bond_atom_site_label_2
_geom_bond_site_symmetry_1
_geom_bond_site_symmetry_2
C7 C8 1_555 1_555
C8 H5 1_555 1_555
H6 C8 1_555 1_555
H7 C8 1_555 1_555
C9 C7 1_555 1_555
H8 C9 1_555 1_555
H9 C9 1_555 1_555
H10 C9 1_555 1_555
C10 C7 1_555 1_555
C11 H11 1_555 1_555
H12 C11 1_555 1_555
C12 C11 1_555 1_555
H13 C12 1_555 1_555
H14 C12 1_555 1_555
C13 C12 1_555 1_555
H15 C13 1_555 1_555
H16 C13 1_555 1_555
C14 C13 1_555 1_555
H17 C14 1_555 1_555
C15 C14 1_555 1_555
C16 H18 1_555 1_555
H19 C16 1_555 1_555
C17 C16 1_555 1_555
H20 C17 1_555 1_555
H21 C17 1_555 1_555
C18 C17 1_555 1_555
H22 C18 1_555 1_555
H23 C18 1_555 1_555
C19 C18 1_555 1_555
H24 C19 1_555 1_555
C20 C19 1_555 1_555
C21 H25 1_555 1_555
C22 C21 1_555 1_555
C23 C22 1_555 1_555
H26 C23 1_555 1_555
C24 C23 1_555 1_555
H27 C24 1_555 1_555
N2 C6 1_555 1_555
H29 N2 1_555 1_555
N3 C10 1_555 1_555
N4 C15 1_555 1_555
N5 C20 1_555 1_555
H30 N5 1_555 1_555
N6 C21 1_555 1_555
O1 C6 1_555 1_555
O2 C10 1_555 1_555
O3 C15 1_555 1_555
O4 C20 1_555 1_555
Ag2 O1 1_555 1_555
C7 N2 1_555 1_555
C11 N3 1_555 1_555
C14 N3 1_555 1_555
C16 N4 1_555 1_555
C19 N4 1_555 1_555
C22 N5 1_555 1_555
O3 Ag2 1_555 1_555
Ag1 N1 1_555 1_555
C1 H1 1_555 1_555
C2 C1 1_555 1_555
C3 C2 1_555 1_555
H2 C3 1_555 1_555
C4 C3 1_555 1_555
H3 C4 1_555 1_555
C5 C4 1_555 1_555
H4 C5 1_555 1_555
H28 C25 1_555 1_555
N1 C1 1_555 1_555
N7 Ag1 1_555 1_555
O5 Ag1 1_555 1_555
O6 Ag1 1_555 1_555
C5 N1 1_555 1_555
Ag1_2 N1_2 1_555 1_555
C1_2 H1_2 1_555 1_555
C2_2 C1_2 1_555 1_555
C3_2 C2_2 1_555 1_555
H2_2 C3_2 1_555 1_555
C4_2 C3_2 1_555 1_555
H3_2 C4_2 1_555 1_555
C5_2 C4_2 1_555 1_555
H4_2 C5_2 1_555 1_555
C6_2 C2_2 1_555 1_555
C7_2 C8_2 1_555 1_555
C8_2 H5_2 1_555 1_555
H6_2 C8_2 1_555 1_555
H7_2 C8_2 1_555 1_555
C9_2 C7_2 1_555 1_555
H8_2 C9_2 1_555 1_555
H9_2 C9_2 1_555 1_555
H10_2 C9_2 1_555 1_555
C10_2 C7_2 1_555 1_555
C11_2 H11_2 1_555 1_555
H12_2 C11_2 1_555 1_555
C12_2 C11_2 1_555 1_555
H13_2 C12_2 1_555 1_555
H14_2 C12_2 1_555 1_555
C13_2 C12_2 1_555 1_555
H15_2 C13_2 1_555 1_555
H16_2 C13_2 1_555 1_555
C14_2 C13_2 1_555 1_555
H17_2 C14_2 1_555 1_555
C15_2 C14_2 1_555 1_555
C16_2 H18_2 1_555 1_555
H19_2 C16_2 1_555 1_555
C17_2 C16_2 1_555 1_555
H20_2 C17_2 1_555 1_555
C18_2 C17_2 1_555 1_555
H22_2 C18_2 1_555 1_555
H23_2 C18_2 1_555 1_555
C19_2 C18_2 1_555 1_555
H24_2 C19_2 1_555 1_555
C20_2 C19_2 1_555 1_555
C21_2 H25_2 1_555 1_555
C22_2 C21_2 1_555 1_555
C23_2 C22_2 1_555 1_555
H26_2 C23_2 1_555 1_555
C24_2 C23_2 1_555 1_555
H27_2 C24_2 1_555 1_555
C25_2 C24_2 1_555 1_555
H28_2 C25_2 1_555 1_555
N1_2 C1_2 1_555 1_555
N2_2 C6_2 1_555 1_555
H29_2 N2_2 1_555 1_555
N3_2 C10_2 1_555 1_555
N4_2 C15_2 1_555 1_555
N5_2 C20_2 1_555 1_555
H30_2 N5_2 1_555 1_555
N6_2 C21_2 1_555 1_555
O1_2 C6_2 1_555 1_555
O2_2 C10_2 1_555 1_555
O3_2 C15_2 1_555 1_555
O4_2 C20_2 1_555 1_555
Ag2_2 O1_2 1_555 1_555
Ag3_2 N6_2 1_555 1_555
N7_2 Ag1_2 1_555 1_555
O5_2 Ag1_2 1_555 1_555
O6_2 Ag1_2 1_555 1_555
C5_2 N1_2 1_555 1_555
C7_2 N2_2 1_555 1_555
C11_2 N3_2 1_555 1_555
C14_2 N3_2 1_555 1_555
C16_2 N4_2 1_555 1_555
C19_2 N4_2 1_555 1_555
C22_2 N5_2 1_555 1_555
C25_2 N6_2 1_555 1_555
O3_2 Ag2_2 1_555 1_555
Ag2 N1_3 1_555 1_555
C1_3 H1_3 1_555 1_555
C2_3 C1_3 1_555 1_555
C3_3 C2_3 1_555 1_555
C4_3 C3_3 1_555 1_555
H3_3 C4_3 1_555 1_555
C5_3 C4_3 1_555 1_555
H4_3 C5_3 1_555 1_555
C6_3 C2_3 1_555 1_555
C7_3 C8_3 1_555 1_555
H7_3 C8_3 1_555 1_555
C9_3 C7_3 1_555 1_555
H8_3 C9_3 1_555 1_555
H9_3 C9_3 1_555 1_555
H10_3 C9_3 1_555 1_555
C10_3 C7_3 1_555 1_555
C11_3 H11_3 1_555 1_555
H12_3 C11_3 1_555 1_555
C12_3 C11_3 1_555 1_555
H13_3 C12_3 1_555 1_555
H14_3 C12_3 1_555 1_555
C13_3 C12_3 1_555 1_555
H15_3 C13_3 1_555 1_555
H16_3 C13_3 1_555 1_555
C14_3 C13_3 1_555 1_555
H17_3 C14_3 1_555 1_555
N1_3 C1_3 1_555 1_555
N2_3 C6_3 1_555 1_555
H29_3 N2_3 1_555 1_555
N3_3 C10_3 1_555 1_555
C5_3 N1_3 1_555 1_555
C7_3 N2_3 1_555 1_555
C11_3 N3_3 1_555 1_555
C14_3 N3_3 1_555 1_555
C16_3 H18_3 1_555 1_555
H19_3 C16_3 1_555 1_555
C17_3 C16_3 1_555 1_555
H20_3 C17_3 1_555 1_555
H21_2 C17_3 1_555 1_555
C18_3 C17_3 1_555 1_555
H22_3 C18_3 1_555 1_555
H23_3 C18_3 1_555 1_555
C19_3 C18_3 1_555 1_555
H24_3 C19_3 1_555 1_555
C20_3 C19_3 1_555 1_555
C21_3 H25_3 1_555 1_555
C22_3 C21_3 1_555 1_555
C23_3 C22_3 1_555 1_555
H26_3 C23_3 1_555 1_555
C24_3 C23_3 1_555 1_555
C25_3 C24_3 1_555 1_555
H28_3 C25_3 1_555 1_555
N4_3 C15_3 1_555 1_555
N5_3 C20_3 1_555 1_555
H30_3 N5_3 1_555 1_555
N6_3 C21_3 1_555 1_555
O6_2 C15_3 1_555 1_555
O4_3 C20_3 1_555 1_555
Ag3_3 N6_3 1_555 1_555
C16_3 N4_3 1_555 1_555
C19_3 N4_3 1_555 1_555
C22_3 N5_3 1_555 1_555
C25_3 N6_3 1_555 1_555
C21_4 H25_4 1_555 1_555
C22_4 C21_4 1_555 1_555
C23_4 C22_4 1_555 1_555
H26_4 C23_4 1_555 1_555
C24_4 C23_4 1_555 1_555
C25_4 C24_4 1_555 1_555
H28_4 C25_4 1_555 1_555
N5_4 C20_4 1_555 1_555
H30_4 N5_4 1_555 1_555
N6_4 C21_4 1_555 1_555
Ag3_4 N6_4 1_555 1_555
C22_4 N5_4 1_555 1_555
C25_4 N6_4 1_555 1_555
Ag2_2 N1_4 1_555 1_555
C1_4 H1_4 1_555 1_555
C2_4 C1_4 1_555 1_555
C3_4 C2_4 1_555 1_555
C4_4 C3_4 1_555 1_555
H3_4 C4_4 1_555 1_555
C5_4 C4_4 1_555 1_555
H4_4 C5_4 1_555 1_555
C6_4 C2_4 1_555 1_555
C7_4 C8_4 1_555 1_555
H7_4 C8_4 1_555 1_555
C9_4 C7_4 1_555 1_555
H9_4 C9_4 1_555 1_555
C10_4 C7_4 1_555 1_555
C11_4 H11_4 1_555 1_555
H12_4 C11_4 1_555 1_555
C12_4 C11_4 1_555 1_555
H14_4 C12_4 1_555 1_555
N1_4 C1_4 1_555 1_555
N2_4 C6_4 1_555 1_555
H29_4 N2_4 1_555 1_555
N3_4 C10_4 1_555 1_555
N7_4 Ag2_2 1_555 1_555
C5_4 N1_4 1_555 1_555
C7_4 N2_4 1_555 1_555
C11_4 N3_4 1_555 1_555
C21_5 H25_5 1_555 1_555
C22_5 C21_5 1_555 1_555
C23_5 C22_5 1_555 1_555
H26_5 C23_5 1_555 1_555
C24_5 C23_5 1_555 1_555
C25_5 C24_5 1_555 1_555
H28_5 C25_5 1_555 1_555
N5_5 C20_5 1_555 1_555
H30_5 N5_5 1_555 1_555
N7_2 C21_5 1_555 1_555
Ag3_3 O1_3 1_555 1_555
C22_5 N5_5 1_555 1_555
C25_5 N7_2 1_555 1_555
O3_3 Ag3_3 1_555 1_555
Ag3_2 N1_5 1_555 1_555
C1_5 H1_5 1_555 1_555
C2_5 C1_5 1_555 1_555
C3_5 C2_5 1_555 1_555
C4_5 C3_5 1_555 1_555
H3_5 C4_5 1_555 1_555
C5_5 C4_5 1_555 1_555
H4_5 C5_5 1_555 1_555
C6_5 C2_5 1_555 1_555
C7_5 C8_5 1_555 1_555
H7_5 C8_5 1_555 1_555
C9_5 C7_5 1_555 1_555
H9_5 C9_5 1_555 1_555
C10_5 C7_5 1_555 1_555
C11_5 H11_5 1_555 1_555
H12_5 C11_5 1_555 1_555
C12_5 C11_5 1_555 1_555
H14_5 C12_5 1_555 1_555
N1_5 C1_5 1_555 1_555
N2_5 C6_5 1_555 1_555
H29_5 N2_5 1_555 1_555
N3_5 C10_5 1_555 1_555
O5_3 Ag3_2 1_555 1_555
O6_3 Ag3_2 1_555 1_555
C5_5 N1_5 1_555 1_555
C7_5 N2_5 1_555 1_555
C11_5 N3_5 1_555 1_555
Ag3 N1_6 1_555 1_555
C1_6 H1_6 1_555 1_555
C2_6 C1_6 1_555 1_555
C3_6 C2_6 1_555 1_555
C4_6 C3_6 1_555 1_555
H3_6 C4_6 1_555 1_555
C5_6 C4_6 1_555 1_555
H4_6 C5_6 1_555 1_555
C6_6 C2_6 1_555 1_555
C7_6 C8_6 1_555 1_555
H7_6 C8_6 1_555 1_555
C9_6 C7_6 1_555 1_555
H8_4 C9_6 1_555 1_555
H9_6 C9_6 1_555 1_555
H10_4 C9_6 1_555 1_555
C10_6 C7_6 1_555 1_555
C11_6 H11_6 1_555 1_555
H12_6 C11_6 1_555 1_555
C12_6 C11_6 1_555 1_555
H13_4 C12_6 1_555 1_555
H14_6 C12_6 1_555 1_555
C13_4 C12_6 1_555 1_555
H15_6 C13_4 1_555 1_555
H16_4 C13_4 1_555 1_555
C14_4 C13_4 1_555 1_555
H17_4 C14_4 1_555 1_555
N1_6 C1_6 1_555 1_555
N2_6 C6_6 1_555 1_555
H29_6 N2_6 1_555 1_555
N3_6 C10_6 1_555 1_555
O5_4 Ag3 1_555 1_555
O6_4 Ag3 1_555 1_555
C5_6 N1_6 1_555 1_555
C7_6 N2_6 1_555 1_555
C11_6 N3_6 1_555 1_555
C14_4 N3_6 1_555 1_555
C16_4 H18_4 1_555 1_555
H19_4 C16_4 1_555 1_555
C17_4 C16_4 1_555 1_555
H20_4 C17_4 1_555 1_555
H21_3 C17_4 1_555 1_555
C18_4 C17_4 1_555 1_555
H22_4 C18_4 1_555 1_555
H23_4 C18_4 1_555 1_555
C19_4 C18_4 1_555 1_555
H24_4 C19_4 1_555 1_555
C20_6 C19_4 1_555 1_555
C21_6 H25_6 1_555 1_555
C22_6 C21_6 1_555 1_555
C23_6 C22_6 1_555 1_555
H26_6 C23_6 1_555 1_555
C24_6 C23_6 1_555 1_555
C25_6 C24_6 1_555 1_555
H28_6 C25_6 1_555 1_555
N4_4 C15_4 1_555 1_555
N5_6 C20_6 1_555 1_555
H30_6 N5_6 1_555 1_555
N7 C21_6 1_555 1_555
O3_4 C15_4 1_555 1_555
O4_4 C20_6 1_555 1_555
Ag3_4 O1_4 1_555 1_555
C16_4 N4_4 1_555 1_555
C19_4 N4_4 1_555 1_555
C22_6 N5_6 1_555 1_555
C25_6 N7 1_555 1_555
O3_4 Ag3_4 1_555 1_555
Ag3_3 N1_7 1_555 1_555
C1_7 H1_7 1_555 1_555
C2_7 C1_7 1_555 1_555
C3_7 C2_7 1_555 1_555
H2_7 C3_7 1_555 1_555
C4_7 C3_7 1_555 1_555
H3_7 C4_7 1_555 1_555
C5_7 C4_7 1_555 1_555
H4_7 C5_7 1_555 1_555
H28_7 C25_7 1_555 1_555
N1_7 C1_7 1_555 1_555
C5_7 N1_7 1_555 1_555
C7_7 C8_7 1_555 1_555
C8_7 H5_5 1_555 1_555
H6_7 C8_7 1_555 1_555
H7_7 C8_7 1_555 1_555
C9_7 C7_7 1_555 1_555
H8_5 C9_7 1_555 1_555
H9_7 C9_7 1_555 1_555
H10_5 C9_7 1_555 1_555
C10_7 C7_7 1_555 1_555
C11_7 H11_7 1_555 1_555
H12_7 C11_7 1_555 1_555
C12_7 C11_7 1_555 1_555
H13_5 C12_7 1_555 1_555
H14_7 C12_7 1_555 1_555
C13_5 C12_7 1_555 1_555
H15_7 C13_5 1_555 1_555
H16_5 C13_5 1_555 1_555
C14_5 C13_5 1_555 1_555
H17_5 C14_5 1_555 1_555
C15_5 C14_5 1_555 1_555
C16_5 H18_5 1_555 1_555
H19_5 C16_5 1_555 1_555
C17_5 C16_5 1_555 1_555
H20_5 C17_5 1_555 1_555
H21_4 C17_5 1_555 1_555
C18_5 C17_5 1_555 1_555
H22_5 C18_5 1_555 1_555
H23_5 C18_5 1_555 1_555
C19_5 C18_5 1_555 1_555
H24_5 C19_5 1_555 1_555
C20_7 C19_5 1_555 1_555
C21_7 H25_7 1_555 1_555
C22_7 C21_7 1_555 1_555
C23_7 C22_7 1_555 1_555
H26_7 C23_7 1_555 1_555
C24_7 C23_7 1_555 1_555
H27_3 C24_7 1_555 1_555
N2_7 C6_7 1_555 1_555
H29_7 N2_7 1_555 1_555
N3_7 C10_7 1_555 1_555
N4_5 C15_5 1_555 1_555
N5_7 C20_7 1_555 1_555
H30_7 N5_7 1_555 1_555
N7_3 C21_7 1_555 1_555
O5_4 C6_7 1_555 1_555
O2_5 C10_7 1_555 1_555
O6_4 C15_5 1_555 1_555
O4_5 C20_7 1_555 1_555
C7_7 N2_7 1_555 1_555
C11_7 N3_7 1_555 1_555
C14_5 N3_7 1_555 1_555
C16_5 N4_5 1_555 1_555
C19_5 N4_5 1_555 1_555
C22_7 N5_7 1_555 1_555
Ag3_4 N1_8 1_555 1_555
C1_8 H1_8 1_555 1_555
C2_8 C1_8 1_555 1_555
C3_8 C2_8 1_555 1_555
H2_8 C3_8 1_555 1_555
C4_8 C3_8 1_555 1_555
H3_8 C4_8 1_555 1_555
C5_8 C4_8 1_555 1_555
H4_8 C5_8 1_555 1_555
C6_8 C2_8 1_555 1_555
C7_8 C8_8 1_555 1_555
C8_8 H5_6 1_555 1_555
H6_8 C8_8 1_555 1_555
H7_8 C8_8 1_555 1_555
C9_8 C7_8 1_555 1_555
H8_6 C9_8 1_555 1_555
H9_8 C9_8 1_555 1_555
H10_6 C9_8 1_555 1_555
C10_8 C7_8 1_555 1_555
C11_8 H11_8 1_555 1_555
H12_8 C11_8 1_555 1_555
C12_8 C11_8 1_555 1_555
H13_6 C12_8 1_555 1_555
H14_8 C12_8 1_555 1_555
C13_6 C12_8 1_555 1_555
H15_8 C13_6 1_555 1_555
H16_6 C13_6 1_555 1_555
C14_6 C13_6 1_555 1_555
H17_6 C14_6 1_555 1_555
C15_6 C14_6 1_555 1_555
C16_6 H18_6 1_555 1_555
H19_6 C16_6 1_555 1_555
C17_6 C16_6 1_555 1_555
H20_6 C17_6 1_555 1_555
C18_6 C17_6 1_555 1_555
H22_6 C18_6 1_555 1_555
H23_6 C18_6 1_555 1_555
C19_6 C18_6 1_555 1_555
H24_6 C19_6 1_555 1_555
C20_8 C19_6 1_555 1_555
C21_8 H25_8 1_555 1_555
C22_8 C21_8 1_555 1_555
C23_8 C22_8 1_555 1_555
H26_8 C23_8 1_555 1_555
C24_8 C23_8 1_555 1_555
H27_4 C24_8 1_555 1_555
C25_8 C24_8 1_555 1_555
H28_8 C25_8 1_555 1_555
N1_8 C1_8 1_555 1_555
N2_8 C6_8 1_555 1_555
H29_8 N2_8 1_555 1_555
N3_8 C10_8 1_555 1_555
N4_6 C15_6 1_555 1_555
N5_8 C20_8 1_555 1_555
H30_8 N5_8 1_555 1_555
N7_4 C21_8 1_555 1_555
O5_3 C6_8 1_555 1_555
O2_6 C10_8 1_555 1_555
O6_3 C15_6 1_555 1_555
O4_6 C20_8 1_555 1_555
C5_8 N1_8 1_555 1_555
C7_8 N2_8 1_555 1_555
C11_8 N3_8 1_555 1_555
C14_6 N3_8 1_555 1_555
C16_6 N4_6 1_555 1_555
C19_6 N4_6 1_555 1_555
C22_8 N5_8 1_555 1_555
C25_8 N7_4 1_555 1_555
C16_7 H18_7 1_555 1_555
H19_7 C16_7 1_555 1_555
C17_7 C16_7 1_555 1_555
H20_7 C17_7 1_555 1_555
H21_6 C17_7 1_555 1_555
C18_7 C17_7 1_555 1_555
H22_7 C18_7 1_555 1_555
H23_7 C18_7 1_555 1_555
C19_7 C18_7 1_555 1_555
H24_7 C19_7 1_555 1_555
N4_7 C15_7 1_555 1_555
C16_7 N4_7 1_555 1_555
C19_7 N4_7 1_555 1_555
H16_7 C13_7 1_555 1_555
C14_7 C13_7 1_555 1_555
H17_7 C14_7 1_555 1_555
C16_8 H18_8 1_555 1_555
H19_8 C16_8 1_555 1_555
C17_8 C16_8 1_555 1_555
H20_8 C17_8 1_555 1_555
H21_7 C17_8 1_555 1_555
C18_8 C17_8 1_555 1_555
H22_8 C18_8 1_555 1_555
H23_8 C18_8 1_555 1_555
C19_8 C18_8 1_555 1_555
H24_8 C19_8 1_555 1_555
N4_8 C15_8 1_555 1_555
C16_8 N4_8 1_555 1_555
C19_8 N4_8 1_555 1_555
H16_8 C13_8 1_555 1_555
C14_8 C13_8 1_555 1_555
H17_8 C14_8 1_555 1_555
S1 N8 1_555 1_555
F1 C27 1_555 1_555
F2 C27 1_555 1_555
N8 S2 1_555 1_555
S2 O9 1_555 1_555
O7 S1 1_555 1_555
O8 S1 1_555 1_555
O10 S2 1_555 1_555
C26 S1 1_555 1_555
C27 S2 1_555 1_555
F3 C26 1_555 1_555
F4 C26 1_555 1_555
F5 C26 1_555 1_555
F6 C27 1_555 1_555
F1_2 C27_2 1_555 1_555
F2_2 C27_2 1_555 1_555
O7_2 S1_2 1_555 1_555
O8_2 S1_2 1_555 1_555
O10_2 S2_2 1_555 1_555
C27_2 S2_2 1_555 1_555
F3_2 C26_2 1_555 1_555
F4_2 C26_2 1_555 1_555
S1_3 N8_3 1_555 1_555
F1_3 C27_3 1_555 1_555
F2_3 C27_3 1_555 1_555
N8_3 S2_3 1_555 1_555
S2_3 O9_3 1_555 1_555
O7_3 S1_3 1_555 1_555
O8_3 S1_3 1_555 1_555
O10_3 S2_3 1_555 1_555
C26_3 S1_3 1_555 1_555
C27_3 S2_3 1_555 1_555
F3_3 C26_3 1_555 1_555
F4_3 C26_3 1_555 1_555
F5_3 C26_3 1_555 1_555
F6_3 C27_3 1_555 1_555
S1_4 N8_4 1_555 1_555
F1_4 C27_4 1_555 1_555
F2_4 C27_4 1_555 1_555
N8_4 S2_4 1_555 1_555
S2_4 O9_4 1_555 1_555
O7_4 S1_4 1_555 1_555
O8_4 S1_4 1_555 1_555
O10_4 S2_4 1_555 1_555
C26_4 S1_4 1_555 1_555
C27_4 S2_4 1_555 1_555
F3_4 C26_4 1_555 1_555
F4_4 C26_4 1_555 1_555
F5_4 C26_4 1_555 1_555
F6_4 C27_4 1_555 1_555
S1_5 N8_5 1_555 1_555
F1_5 C27_5 1_555 1_555
F2_5 C27_5 1_555 1_555
N8_5 S2_5 1_555 1_555
S2_5 O9_5 1_555 1_555
O7_5 S1_5 1_555 1_555
O8_5 S1_5 1_555 1_555
O10_5 S2_5 1_555 1_555
C26_5 S1_5 1_555 1_555
C27_5 S2_5 1_555 1_555
F3_5 C26_5 1_555 1_555
F4_5 C26_5 1_555 1_555
F5_5 C26_5 1_555 1_555
F6_5 C27_5 1_555 1_555
S1_6 N8_6 1_555 1_555
F1_6 C27_6 1_555 1_555
F2_6 C27_6 1_555 1_555
N8_6 S2_6 1_555 1_555
S2_6 O9_6 1_555 1_555
O7_6 S1_6 1_555 1_555
O8_6 S1_6 1_555 1_555
O10_6 S2_6 1_555 1_555
C26_6 S1_6 1_555 1_555
C27_6 S2_6 1_555 1_555
F3_6 C26_6 1_555 1_555
F4_6 C26_6 1_555 1_555
F5_6 C26_6 1_555 1_555
F6_6 C27_6 1_555 1_555
S1_7 N8_7 1_555 1_555
F1_7 C27_7 1_555 1_555
F2_7 C27_7 1_555 1_555
N8_7 S2_7 1_555 1_555
S2_7 O9_7 1_555 1_555
O7_7 S1_7 1_555 1_555
O8_7 S1_7 1_555 1_555
O10_7 S2_7 1_555 1_555
C26_7 S1_7 1_555 1_555
C27_7 S2_7 1_555 1_555
F3_7 C26_7 1_555 1_555
F4_7 C26_7 1_555 1_555
F5_7 C26_7 1_555 1_555
F6_7 C27_7 1_555 1_555
F3_8 C26_8 1_555 1_555
F4_8 C26_8 1_555 1_555
F1_8 C27_8 1_555 1_555
F2_8 C27_8 1_555 1_555
O7_8 S1_8 1_555 1_555
O8_8 S1_8 1_555 1_555
O10_8 S2_8 1_555 1_555
C27_8 S2_8 1_555 1_555

#END
