
###############################################################################
#
# This file contains modified crystal structure data generated from the
# MOF subset of the Cambridge Structural Database (CSD) v543 
# hosted by the Cambridge Crystallographic Data Centre (CCDC).
#
# This work is licensed under the Creative Commons
# Attribution-NonCommercial-ShareAlike 4.0 International License.
# To view a copy of this license, visit
# http://creativecommons.org/licenses/by-nc-sa/4.0/
# or send a letter to
# Creative Commons, PO Box 1866, Mountain View, CA 94042, USA.
#
# CIF created using the CSD Python API on 29 September 2022
# The structure has been converted into the P1 space group
# The structure has a 3D framework
# The original CSD entry HUYBIP is in the hexagonal crystal system
# The original CSD entry HUYBIP is in a Sohncke space group
# The framework has been calculated to contain at least 10.0% void space
# The void calculation uses a probe of radius 1.32A, grid spacing 0.4
#
###############################################################################

data_HUYBIP
_chemical_formula_moiety         '(C378 H258 Cd24 Cl12 N76 O77)n'
_symmetry_cell_setting           triclinic
_symmetry_space_group_name_H-M   'P 1'
_symmetry_Int_Tables_number      1
_space_group_name_Hall           'P 1'
loop_
_symmetry_equiv_pos_site_id
_symmetry_equiv_pos_as_xyz
1 x,y,z
_cell_length_a                   16.2489(13)
_cell_length_b                   16.2489(13)
_cell_length_c                   45.5303(17)
_cell_angle_alpha                90
_cell_angle_beta                 90
_cell_angle_gamma                120
_cell_volume                     10410.7
loop_
_atom_site_label
_atom_site_type_symbol
_atom_site_fract_x
_atom_site_fract_y
_atom_site_fract_z
H2 H 0.008751 0.295782 0.377012
C8 C 0.1337(6) 0.2237(5) 0.38369(17)
H5 H 0.166836 0.286241 0.377117
C9 C 0.1656(5) 0.1816(6) 0.40188(17)
H6 H 0.226654 0.211134 0.409690
C10 C 0.0217(5) 0.0740(6) 0.39217(17)
C21 C 0.1239(5) 0.1615(6) 0.50289(19)
C22 C 0.1444(5) 0.2581(6) 0.49412(17)
C23 C 0.1348(5) 0.2784(6) 0.46689(19)
H13 H 0.103591 0.228616 0.453656
C24 C 0.1680(5) 0.3676(5) 0.45721(17)
H14 H 0.160860 0.379784 0.437692
C25 C 0.2152(5) 0.4442(5) 0.47822(18)
C26 C 0.2246(6) 0.4261(6) 0.50599(18)
H15 H 0.255521 0.475595 0.519357
C27 C 0.1876(5) 0.3318(6) 0.51499(19)
H16 H 0.191510 0.317861 0.534570
C28 C 0.2526(5) 0.6137(5) 0.47995(18)
H17 H 0.218654 0.611925 0.496630
C29 C 0.3095(5) 0.6938(5) 0.46122(16)
H18 H 0.316786 0.754003 0.463336
C30 C 0.3208(5) 0.5758(5) 0.44444(16)
C31 C 0.3457(5) 0.5161(5) 0.42524(16)
C32 C 0.3540(5) 0.4358(5) 0.38920(16)
H19 H 0.347412 0.409829 0.370560
C33 C 0.3969(5) 0.4209(5) 0.41186(17)
H20 H 0.426323 0.384328 0.411966
C34 C 0.4315(5) 0.4750(6) 0.46305(16)
C35 C 0.4071(5) 0.3925(5) 0.47855(18)
H21 H 0.359810 0.333845 0.471656
C36 C 0.4549(6) 0.3990(5) 0.50469(17)
H22 H 0.437895 0.344071 0.515401
C37 C 0.5284(5) 0.4871(5) 0.51530(17)
C38 C 0.5499(5) 0.5684(5) 0.50016(17)
H23 H 0.595900 0.626622 0.507687
C39 C 0.5042(5) 0.5666(5) 0.47334(15)
H24 H 0.520510 0.621962 0.462943
C40 C 0.5826(5) 0.4830(5) 0.54066(15)
H32 H 0.424958 0.043508 0.702069
C57 C 0.5238(5) 0.0479(5) 0.59810(17)
C58 C 0.4508(5) 0.0608(5) 0.61133(17)
H35 H 0.435426 0.103084 0.602599
C59 C 0.4019(5) 0.0130(5) 0.63660(16)
H36 H 0.350466 0.018435 0.642981
C60 C 0.5799(5) 0.1048(6) 0.57245(18)
Cd1 Cd 0.12938(4) 0.01950(4) 0.44585(2)
Cd2 Cd 0.15619(4) 0.01396(4) 0.53025(2)
Cd3 Cd 0.69959(3) 0.47317(3) 0.58035(2)
Cl1 Cl 0.28757(18) 0.15223(17) 0.45847(6)
Cl2 Cl 0.3322(2) 0.0914(2) 0.52165(7)
N1 N 0.0403(4) 0.1548(4) 0.37644(14)
N2 N 0.1004(4) 0.0936(5) 0.40744(14)
N5 N 0.2598(4) 0.5418(4) 0.46768(13)
N6 N 0.3502(5) 0.6685(4) 0.44034(14)
N7 N 0.3201(4) 0.4969(4) 0.39775(12)
N8 N 0.3887(4) 0.4709(4) 0.43517(14)
O5 O 0.0818(4) 0.0933(4) 0.48327(14)
O6 O 0.1637(4) 0.1507(4) 0.52646(13)
O7 O 0.5591(3) 0.4076(3) 0.55438(12)
O8 O 0.6582(3) 0.5614(3) 0.54706(11)
O9 O 0.1816(4) 0.0192(4) 0.57930(14)
O11 O 0.5617(4) 0.1631(3) 0.56192(12)
O12 O 0.6478(3) 0.0947(3) 0.56544(12)
Cd5 Cd 0.10988(6) 0.12938(4) 0.61252(2)
Cd8 Cd 0.47317(3) 0.77358(4) 0.41368(2)
Cd11 Cd 0.69718(3) 0.23008(4) 0.53434(2)
Cd12 Cd 0.23008(4) 0.53290(3) 0.36768(2)
N15 N 0.6817(6) 0.3502(5) 0.60701(14)
N17 N 0.8247(4) 0.5126(6) 0.55020(14)
O14 O 0.8078(5) 0.6039(7) 0.60659(14)
O15 O 0.6686(3) 0.5285(5) 0.62496(11)
C41 C 0.1283(7) 0.9666(6) 0.6032(2)
C42 C 0.1530(5) 0.8920(6) 0.6117(2)
C43 C 0.2015(7) 0.8591(6) 0.5942(2)
H25 H 0.211811 0.876254 0.574527
C44 C 0.2337(5) 0.8030(5) 0.60515(15)
H26 H 0.264828 0.781863 0.592746
C45 C 0.2208(5) 0.7754(5) 0.63547(15)
C46 C 0.1647(5) 0.7983(5) 0.65321(16)
H27 H 0.147224 0.774099 0.672119
C47 C 0.1359(5) 0.8600(5) 0.64098(19)
H28 H 0.103711 0.880705 0.653050
C48 C 0.2481(5) 0.6387(5) 0.63609(16)
H29 H 0.211363 0.605301 0.619984
C49 C 0.3005(6) 0.6141(6) 0.65340(18)
H30 H 0.309153 0.562140 0.650727
C50 C 0.3154(5) 0.7462(5) 0.67120(16)
C51 C 0.3404(5) 0.8295(5) 0.68848(18)
C52 C 0.3480(5) 0.9175(5) 0.72623(16)
H31 H 0.342611 0.936894 0.745002
C53 C 0.3943(5) 0.9775(5) 0.70192(16)
C54 C 0.4288(5) 0.9580(5) 0.65220(18)
C55 C 0.4983(5) 0.9432(5) 0.64015(17)
H33 H 0.515414 0.903848 0.649994
C56 C 0.5449(6) 0.9857(6) 0.61331(18)
H34 H 0.589867 0.972048 0.605746
C61 C 0.1733(6) 0.8864(6) 0.49141(19)
H37 H 0.139770 0.841107 0.505777
C62 C 0.2331(7) 0.8716(7) 0.4391(2)
H38 H 0.168652 0.853108 0.434228
H39 H 0.245998 0.822405 0.433203
H40 H 0.275542 0.929452 0.429000
C63 C 0.3350(6) 0.9046(7) 0.4860(2)
H41 H 0.379763 0.911765 0.471026
H42 H 0.322712 0.852022 0.498421
H43 H 0.360680 0.961671 0.497496
Cd4 Cd 0.46710(3) 0.69718(3) 0.70101(2)
N9 N 0.2600(4) 0.7222(4) 0.64701(14)
N10 N 0.3384(4) 0.6801(4) 0.67556(14)
N11 N 0.3121(4) 0.8247(4) 0.71687(14)
N12 N 0.3867(4) 0.9233(4) 0.67860(13)
N13 N 0.2478(5) 0.8873(5) 0.47244(17)
O10 O 0.0732(5) 0.9761(4) 0.61711(14)
O13 O 0.1618(4) 0.9559(4) 0.48531(13)
Cd6 Cd 0.01396(4) 0.85777(6) 0.36358(2)
Cd7 Cd 0.22642(4) 0.69959(3) 0.74702(2)
N14 N 0.0063(6) 0.9151(5) 0.54379(13)
N16 N 0.5031(4) 0.8232(6) 0.73108(12)
O16 O 0.5189(6) 0.6671(4) 0.65512(12)
O17 O 0.5914(6) 0.8139(4) 0.67239(11)
O19 O 0.3986(5) 0.5617(4) 0.72859(12)
O20 O 0.5531(4) 0.6478(3) 0.73211(12)
C1 C 0.8442(5) 0.2500(5) 0.29228(16)
C2 C 0.8832(5) 0.2189(6) 0.31723(18)
C3 C 0.9342(5) 0.2803(5) 0.34008(17)
H1 H 0.938050 0.339239 0.341200
C4 C 0.9793(5) 0.2557(5) 0.36112(17)
C5 C 0.9806(5) 0.1731(5) 0.35864(17)
C6 C 0.9321(6) 0.1081(5) 0.33543(17)
H3 H 0.933622 0.051785 0.334116
C7 C 0.8843(6) 0.1284(5) 0.31544(16)
H4 H 0.851734 0.085513 0.300415
C14 C 0.8327(5) 0.0353(6) 0.42079(15)
C15 C 0.8958(5) 0.0842(5) 0.44438(16)
H9 H 0.952303 0.083571 0.446749
C16 C 0.8686(5) 0.1342(5) 0.46427(15)
H10 H 0.910334 0.169362 0.479251
C17 C 0.7856(5) 0.1329(5) 0.46236(17)
C18 C 0.7226(5) 0.0858(6) 0.43882(17)
H11 H 0.665023 0.084706 0.437097
C19 C 0.7518(6) 0.0398(6) 0.41770(17)
H12 H 0.713854 0.012060 0.401266
C20 C 0.7483(5) 0.1722(5) 0.48593(17)
O1 O 0.7961(5) 0.1922(5) 0.27326(14)
O2 O 0.8599(4) 0.3314(3) 0.29163(11)
O3 O 0.6671(4) 0.1482(4) 0.48845(12)
O4 O 0.8139(4) 0.2225(4) 0.50572(11)
Cd9 Cd 0.77358(4) 0.30041(3) 0.24702(2)
C11 C 0.9297(5) 0.9874(5) 0.39051(15)
C12 C 0.8223(6) 0.8444(5) 0.37963(16)
H7 H 0.792549 0.782777 0.372289
C13 C 0.7770(5) 0.8865(6) 0.39544(17)
H8 H 0.712747 0.857589 0.400143
N3 N 0.9151(5) 0.9088(4) 0.37712(13)
N4 N 0.8465(4) 0.9787(4) 0.40253(15)
O18 O 0.9761(4) 0.9029(6) 0.45044(14)
H6_2 H 0.015520 0.226654 0.576357
H20_2 H 0.041995 0.426323 0.578633
C35_2 C 0.0146(7) 0.4071(5) 0.64522(18)
H21_2 H 0.025965 0.359810 0.638323
C36_2 C 0.0559(8) 0.4549(6) 0.67136(17)
H22_2 H 0.093824 0.437895 0.682068
C37_2 C 0.0413(7) 0.5284(5) 0.68197(17)
C40_2 C 0.0996(7) 0.5826(5) 0.70733(15)
C41_2 C 0.1617(9) 0.1283(7) 0.7699(2)
C42_2 C 0.2610(8) 0.1530(5) 0.7784(2)
C43_2 C 0.3424(9) 0.2015(7) 0.7609(2)
H25_2 H 0.335557 0.211811 0.741194
C44_2 C 0.4307(7) 0.2337(5) 0.77182(15)
H26_2 H 0.482965 0.264828 0.759413
C45_2 C 0.4454(7) 0.2208(5) 0.80214(15)
C46_2 C 0.3664(7) 0.1647(5) 0.81988(16)
H27_2 H 0.373125 0.147224 0.838786
C47_2 C 0.2759(7) 0.1359(5) 0.80765(19)
H28_2 H 0.223006 0.103711 0.819717
C48_2 C 0.6094(7) 0.2481(5) 0.80276(16)
H29_2 H 0.606062 0.211363 0.786651
C49_2 C 0.6864(8) 0.3005(6) 0.82007(18)
H30_2 H 0.747013 0.309153 0.817394
C50_2 C 0.5692(7) 0.3154(5) 0.83787(16)
C51_2 C 0.5109(7) 0.3404(5) 0.85515(18)
C52_2 C 0.4305(7) 0.3480(5) 0.89290(16)
H31_2 H 0.405717 0.342611 0.911669
C53_2 C 0.4168(7) 0.3943(5) 0.86859(16)
H32_2 H 0.381450 0.424958 0.868736
C54_2 C 0.4708(7) 0.4288(5) 0.81887(18)
C55_2 C 0.5551(7) 0.4983(5) 0.80682(17)
H33_2 H 0.611566 0.515414 0.816661
C56_2 C 0.5592(8) 0.5449(6) 0.77998(18)
H34_2 H 0.617819 0.589867 0.772413
C57_2 C 0.4759(7) 0.5238(5) 0.76477(17)
C58_2 C 0.3900(7) 0.4508(5) 0.77800(17)
H35_2 H 0.332342 0.435426 0.769266
C59_2 C 0.3889(7) 0.4019(5) 0.80327(16)
H36_2 H 0.332031 0.350466 0.809648
C60_2 C 0.4751(8) 0.5799(5) 0.73912(18)
C61_2 C 0.2869(8) 0.1733(6) 0.65808(19)
H37_2 H 0.298663 0.139770 0.672444
C62_2 C 0.3615(10) 0.2331(7) 0.6058(2)
H38_2 H 0.315544 0.168652 0.600895
H39_2 H 0.423593 0.245998 0.599870
H40_2 H 0.346090 0.275542 0.595667
C63_2 C 0.4304(9) 0.3350(6) 0.6527(2)
H41_2 H 0.467998 0.379763 0.637693
H42_2 H 0.470690 0.322712 0.665088
H43_2 H 0.399009 0.360680 0.664163
Cd2_2 Cd 0.14223(6) 0.15619(4) 0.69692(2)
Cd4_2 Cd 0.76992(4) 0.46710(3) 0.86768(2)
Cl1_2 Cl 0.13534(25) 0.28757(18) 0.62514(6)
Cl2_2 Cl 0.2408(3) 0.3322(2) 0.68832(7)
N2_2 N 0.0068(6) 0.1004(4) 0.57411(14)
N9_2 N 0.5378(6) 0.2600(4) 0.81368(14)
N10_2 N 0.6583(6) 0.3384(4) 0.84223(14)
N11_2 N 0.4874(6) 0.3121(4) 0.88354(14)
N12_2 N 0.4634(6) 0.3867(4) 0.84527(13)
N13_2 N 0.3605(7) 0.2478(5) 0.63911(17)
O6_2 O 0.0130(6) 0.1637(4) 0.69313(13)
O7_2 O 0.1515(4) 0.5591(3) 0.72105(12)
O8_2 O 0.0968(4) 0.6582(3) 0.71373(11)
O9_2 O 0.1624(6) 0.1816(4) 0.74597(14)
O10_2 O 0.0971(6) 0.0732(5) 0.78378(14)
O13_2 O 0.2059(6) 0.1618(4) 0.65198(13)
Cd7_2 Cd 0.52683(5) 0.22642(4) 0.91368(2)
N14_2 N 0.0912(8) 0.0063(6) 0.71045(13)
N15_2 N 0.3315(8) 0.6817(6) 0.77367(14)
N16_2 N 0.6799(7) 0.5031(4) 0.89775(12)
O14_2 O 0.2039(9) 0.8078(5) 0.77326(14)
O15_2 O 0.1401(6) 0.6686(3) 0.79163(11)
O16_2 O 0.8518(7) 0.5189(6) 0.82178(12)
O17_2 O 0.7775(7) 0.5914(6) 0.83905(11)
O19_2 O 0.8369(6) 0.3986(5) 0.89525(12)
O20_2 O 0.9053(5) 0.5531(4) 0.89877(12)
H7_2 H 0.009772 0.792549 0.538956
H2_2 H 0.712969 0.008751 0.543679
C8_2 C 0.9100(8) 0.1337(6) 0.55036(17)
H5_2 H 0.880595 0.166836 0.543784
C9_2 C 0.9840(8) 0.1656(5) 0.56855(17)
C10_2 C 0.9477(8) 0.0217(5) 0.55884(17)
C21_2 C 0.9624(8) 0.1239(5) 0.66956(19)
C22_2 C 0.8863(8) 0.1444(5) 0.66079(17)
C23_2 C 0.8564(8) 0.1348(5) 0.63356(19)
H13_2 H 0.874975 0.103591 0.620323
C24_2 C 0.8004(7) 0.1680(5) 0.62388(17)
H14_2 H 0.781076 0.160860 0.604359
C25_2 C 0.7710(7) 0.2152(5) 0.64489(18)
C26_2 C 0.7985(8) 0.2246(6) 0.67266(18)
H15_2 H 0.779926 0.255521 0.686024
C27_2 C 0.8558(8) 0.1876(5) 0.68166(19)
H16_2 H 0.873649 0.191510 0.701237
C28_2 C 0.6389(7) 0.2526(5) 0.64662(18)
H17_2 H 0.606729 0.218654 0.663297
C29_2 C 0.6157(7) 0.3095(5) 0.62789(16)
H18_2 H 0.562783 0.316786 0.630003
C30_2 C 0.7450(7) 0.3208(5) 0.61111(16)
C31_2 C 0.8296(7) 0.3457(5) 0.59191(16)
C32_2 C 0.9182(7) 0.3540(5) 0.55587(16)
H19_2 H 0.937583 0.347412 0.537227
C33_2 C 0.9760(7) 0.3969(5) 0.57853(17)
C34_2 C 0.9565(8) 0.4315(5) 0.62972(16)
C38_2 C 0.9815(7) 0.5499(5) 0.66683(17)
H23_2 H 0.969278 0.595900 0.674354
C39_2 C 0.9376(7) 0.5042(5) 0.64001(15)
H24_2 H 0.898548 0.520510 0.629610
N1_2 N 0.8855(6) 0.0403(4) 0.54311(14)
N5_2 N 0.7180(6) 0.2598(4) 0.63435(13)
N7_2 N 0.8232(6) 0.3201(4) 0.56442(12)
N8_2 N 0.9178(6) 0.3887(4) 0.60184(14)
O5_2 O 0.9885(6) 0.0818(4) 0.64994(14)
Cd5_2 Cd 0.98050(7) 0.10988(6) 0.77918(2)
C1_2 C 0.5942(7) 0.8442(5) 0.45895(16)
C2_2 C 0.6643(8) 0.8832(5) 0.48390(18)
C3_2 C 0.6539(7) 0.9342(5) 0.50675(17)
H1_2 H 0.598811 0.938050 0.507867
C4_2 C 0.7236(7) 0.9793(5) 0.52779(17)
C5_2 C 0.8075(7) 0.9806(5) 0.52531(17)
C6_2 C 0.8240(8) 0.9321(6) 0.50210(17)
H3_2 H 0.881837 0.933622 0.500783
C7_2 C 0.7559(8) 0.8843(6) 0.48211(16)
H4_2 H 0.766221 0.851734 0.467082
C11_2 C 0.9423(7) 0.9297(5) 0.55718(15)
C12_2 C 0.9779(8) 0.8223(6) 0.54630(16)
C13_2 C 0.8905(8) 0.7770(5) 0.56211(17)
H8_2 H 0.855158 0.712747 0.566810
C14_2 C 0.7974(8) 0.8327(5) 0.58746(15)
C15_2 C 0.8116(7) 0.8958(5) 0.61105(16)
H9_2 H 0.868732 0.952303 0.613416
C16_2 C 0.7344(7) 0.8686(5) 0.63094(15)
H10_2 H 0.740972 0.910334 0.645918
C17_2 C 0.6527(7) 0.7856(5) 0.62903(17)
C18_2 C 0.6368(8) 0.7226(5) 0.60549(17)
H11_2 H 0.580317 0.665023 0.603764
C19_2 C 0.7120(8) 0.7518(6) 0.58437(17)
H12_2 H 0.701794 0.713854 0.567933
C20_2 C 0.5761(7) 0.7483(5) 0.65260(17)
N4_2 N 0.8678(6) 0.8465(4) 0.56920(15)
O1_2 O 0.6039(7) 0.7961(5) 0.43993(14)
O2_2 O 0.5285(5) 0.8599(4) 0.45830(11)
C1_3 C 0.2500(5) 0.4058(7) 0.12561(16)
C2_3 C 0.2189(6) 0.3357(8) 0.15056(18)
C3_3 C 0.2803(5) 0.3461(7) 0.17341(17)
H1_3 H 0.339239 0.401189 0.174533
C4_3 C 0.2557(5) 0.2764(7) 0.19445(17)
H2_3 H 0.295782 0.287031 0.210345
C5_3 C 0.1731(5) 0.1925(7) 0.19197(17)
C6_3 C 0.1081(5) 0.1760(8) 0.16876(17)
H3_3 H 0.051785 0.118163 0.167449
C7_3 C 0.1284(5) 0.2441(8) 0.14877(16)
H4_3 H 0.085513 0.233779 0.133748
C8_3 C 0.2237(5) 0.0900(8) 0.21702(17)
H5_3 H 0.286241 0.119405 0.210450
C9_3 C 0.1816(6) 0.0160(8) 0.23521(17)
C10_3 C 0.0740(6) 0.0523(8) 0.22550(17)
C14_3 C 0.0353(6) 0.2026(8) 0.25412(15)
C15_3 C 0.0842(5) 0.1884(7) 0.27771(16)
H9_3 H 0.083571 0.131268 0.280082
C16_3 C 0.1342(5) 0.2656(7) 0.29760(15)
H10_3 H 0.169362 0.259028 0.312584
C17_3 C 0.1329(5) 0.3473(7) 0.29569(17)
C18_3 C 0.0858(6) 0.3632(8) 0.27215(17)
H11_3 H 0.084706 0.419683 0.270430
C19_3 C 0.0398(6) 0.2880(8) 0.25103(17)
H12_3 H 0.012060 0.298206 0.234599
C20_3 C 0.1722(5) 0.4239(7) 0.31926(17)
C21_3 C 0.1615(6) 0.0376(8) 0.33622(19)
C22_3 C 0.2581(6) 0.1137(8) 0.32745(17)
C23_3 C 0.2784(6) 0.1436(8) 0.30022(19)
H13_3 H 0.228616 0.125025 0.286989
C24_3 C 0.3676(5) 0.1996(7) 0.29054(17)
H14_3 H 0.379784 0.218924 0.271025
C25_3 C 0.4442(5) 0.2290(7) 0.31155(18)
C26_3 C 0.4261(6) 0.2015(8) 0.33932(18)
H15_3 H 0.475595 0.220074 0.352690
C27_3 C 0.3318(6) 0.1442(8) 0.34832(19)
H16_3 H 0.317861 0.126351 0.367903
C28_3 C 0.6137(5) 0.3611(7) 0.31328(18)
H17_3 H 0.611925 0.393271 0.329963
C29_3 C 0.6938(5) 0.3843(7) 0.29455(16)
H18_3 H 0.754003 0.437217 0.296669
C30_3 C 0.5758(5) 0.2550(7) 0.27777(16)
C31_3 C 0.5161(5) 0.1704(7) 0.25857(16)
C32_3 C 0.4358(5) 0.0818(7) 0.22253(16)
H19_3 H 0.409829 0.062417 0.203893
C33_3 C 0.4209(5) 0.0240(7) 0.24519(17)
C34_3 C 0.4750(6) 0.0435(8) 0.29638(16)
C38_3 C 0.5684(5) 0.0185(7) 0.33349(17)
H23_3 H 0.626622 0.030722 0.341020
C39_3 C 0.5666(5) 0.0624(7) 0.30667(15)
H24_3 H 0.621962 0.101452 0.296276
N1_3 N 0.1548(4) 0.1145(6) 0.20977(14)
N5_3 N 0.5418(4) 0.2820(6) 0.30101(13)
N6_2 N 0.6685(4) 0.3183(6) 0.27367(14)
N7_3 N 0.4969(4) 0.1768(6) 0.23108(12)
N8_3 N 0.4709(4) 0.0822(6) 0.26850(14)
O1_3 O 0.1922(5) 0.3961(7) 0.10659(14)
O2_3 O 0.3314(3) 0.4715(5) 0.12496(11)
O3_2 O 0.1482(4) 0.4811(6) 0.32178(12)
O4_2 O 0.2225(4) 0.4086(6) 0.33905(11)
O5_3 O 0.0933(4) 0.0115(6) 0.31660(14)
Cd9_2 Cd 0.30041(3) 0.52683(5) 0.08035(2)
Cd12_2 Cd 0.53290(3) 0.30282(5) 0.20101(2)
H6_3 H 0.211134 0.984480 0.243023
H20_3 H 0.384328 0.958005 0.245299
C35_3 C 0.3925(5) 0.9854(7) 0.31188(18)
H21_3 H 0.333845 0.974035 0.304989
C36_3 C 0.3990(5) 0.9441(8) 0.33802(17)
H22_3 H 0.344071 0.906176 0.348734
C37_3 C 0.4871(5) 0.9587(7) 0.34863(17)
C40_3 C 0.4830(5) 0.9004(7) 0.37399(15)
H32_3 H 0.043508 0.618550 0.535402
C57_3 C 0.0479(5) 0.5241(7) 0.43143(17)
C58_3 C 0.0608(5) 0.6100(7) 0.44466(17)
H35_3 H 0.103084 0.667658 0.435932
C59_3 C 0.0130(5) 0.6111(7) 0.46993(16)
H36_3 H 0.018435 0.667969 0.476314
C60_3 C 0.1048(6) 0.5249(8) 0.40578(18)
Cd1_2 Cd 0.01950(4) 0.89012(6) 0.27918(2)
Cl1_3 Cl 0.15223(17) 0.86466(25) 0.29180(6)
Cl2_3 Cl 0.0914(2) 0.7592(3) 0.35498(7)
N2_3 N 0.0936(5) 0.9932(6) 0.24077(14)
O6_3 O 0.1507(4) 0.9870(6) 0.35979(13)
O7_3 O 0.4076(3) 0.8485(4) 0.38771(12)
O8_3 O 0.5614(3) 0.9032(4) 0.38039(11)
O9_3 O 0.0192(4) 0.8376(6) 0.41263(14)
O11_2 O 0.1631(3) 0.6014(5) 0.39525(12)
O12_2 O 0.0947(3) 0.4469(4) 0.39877(12)
N17_2 N 0.5126(6) 0.6879(7) 0.38354(14)
H7_3 H 0.782777 0.990228 0.205622
C41_3 C 0.9666(6) 0.8383(9) 0.4365(2)
C42_3 C 0.8920(6) 0.7390(8) 0.4450(2)
C43_3 C 0.8591(6) 0.6576(9) 0.4275(2)
H25_3 H 0.876254 0.664443 0.407860
C44_3 C 0.8030(5) 0.5693(7) 0.43848(15)
H26_3 H 0.781863 0.517035 0.426079
C45_3 C 0.7754(5) 0.5546(7) 0.46880(15)
C46_3 C 0.7983(5) 0.6336(7) 0.48654(16)
H27_3 H 0.774099 0.626875 0.505452
C47_3 C 0.8600(5) 0.7241(7) 0.47431(19)
H28_3 H 0.880705 0.776994 0.486383
C48_3 C 0.6387(5) 0.3906(7) 0.46942(16)
H29_3 H 0.605301 0.393938 0.453317
C49_3 C 0.6141(6) 0.3136(8) 0.48673(18)
H30_3 H 0.562140 0.252987 0.484060
C50_3 C 0.7462(5) 0.4308(7) 0.50453(16)
C51_3 C 0.8295(5) 0.4891(7) 0.52181(18)
C52_3 C 0.9175(5) 0.5695(7) 0.55956(16)
H31_3 H 0.936894 0.594283 0.578335
C53_3 C 0.9775(5) 0.5832(7) 0.53525(16)
C54_3 C 0.9580(5) 0.5292(7) 0.48553(18)
C55_3 C 0.9432(5) 0.4449(7) 0.47348(17)
H33_3 H 0.903848 0.388434 0.483327
C56_3 C 0.9857(6) 0.4408(8) 0.44664(18)
H34_3 H 0.972048 0.382181 0.439079
C61_3 C 0.8864(6) 0.7131(8) 0.32474(19)
H37_3 H 0.841107 0.701337 0.339110
C62_3 C 0.8716(7) 0.6385(10) 0.2724(2)
H38_3 H 0.853108 0.684456 0.267561
H39_3 H 0.822405 0.576407 0.266536
H40_3 H 0.929452 0.653910 0.262333
C63_3 C 0.9046(7) 0.5696(9) 0.3193(2)
H41_3 H 0.911765 0.532002 0.304359
H42_3 H 0.852022 0.529310 0.331754
H43_3 H 0.961671 0.600991 0.330829
N3_2 N 0.9088(4) 0.9937(6) 0.21045(13)
N9_3 N 0.7222(4) 0.4622(6) 0.48034(14)
N10_3 N 0.6801(4) 0.3417(6) 0.50889(14)
N12_3 N 0.9233(4) 0.5366(6) 0.51193(13)
N13_3 N 0.8873(5) 0.6395(7) 0.30577(17)
O13_3 O 0.9559(4) 0.7941(6) 0.31864(13)
Cd6_2 Cd 0.85777(6) 0.84381(7) 0.19692(2)
O18_2 O 0.9029(6) 0.9268(7) 0.28378(14)
H27_4 H 0.225901 0.373125 0.005452
C50_4 C 0.2538(5) 0.5692(7) 0.00453(16)
C51_4 C 0.1705(5) 0.5109(7) 0.02181(18)
C52_4 C 0.0825(5) 0.4305(7) 0.05956(16)
H31_4 H 0.063106 0.405717 0.078335
C53_4 C 0.0225(5) 0.4168(7) 0.03525(16)
Cd4_3 Cd 0.30282(3) 0.76992(4) 0.03434(2)
N10_4 N 0.3199(4) 0.6583(6) 0.00889(14)
N11_3 N 0.1753(4) 0.4874(6) 0.05020(14)
N12_4 N 0.0767(4) 0.4634(6) 0.01193(13)
N16_3 N 0.1768(6) 0.6799(7) 0.06442(12)
O17_3 O 0.1861(4) 0.7775(7) 0.00572(11)
O19_3 O 0.4383(4) 0.8369(6) 0.06192(12)
O20_3 O 0.3522(3) 0.9053(5) 0.06544(12)
H7_4 H 0.217223 0.009772 0.705622
C41_4 C 0.0334(6) 0.1617(9) 0.9365(2)
C42_4 C 0.1080(6) 0.2610(8) 0.9450(2)
C43_4 C 0.1409(6) 0.3424(9) 0.9275(2)
H25_4 H 0.123746 0.335557 0.907860
C44_4 C 0.1970(5) 0.4307(7) 0.93848(15)
H26_4 H 0.218137 0.482965 0.926079
C45_4 C 0.2246(5) 0.4454(7) 0.96880(15)
C46_4 C 0.2017(5) 0.3664(7) 0.98654(16)
C47_4 C 0.1400(5) 0.2759(7) 0.97431(19)
H28_4 H 0.119295 0.223006 0.986383
C48_4 C 0.3613(5) 0.6094(7) 0.96942(16)
H29_4 H 0.394699 0.606062 0.953317
C49_4 C 0.3859(6) 0.6864(8) 0.98673(18)
H30_4 H 0.437860 0.747013 0.984060
C54_4 C 0.0420(5) 0.4708(7) 0.98553(18)
C55_4 C 0.0568(5) 0.5551(7) 0.97348(17)
H33_4 H 0.096152 0.611566 0.983327
C56_4 C 0.0143(6) 0.5592(8) 0.94664(18)
H34_4 H 0.027952 0.617819 0.939079
C61_4 C 0.1136(6) 0.2869(8) 0.82474(19)
H37_4 H 0.158893 0.298663 0.839110
C62_4 C 0.1284(7) 0.3615(10) 0.7724(2)
H38_4 H 0.146892 0.315544 0.767561
H39_4 H 0.177595 0.423593 0.766536
H40_4 H 0.070548 0.346090 0.762333
C63_4 C 0.0954(7) 0.4304(9) 0.8193(2)
H41_4 H 0.088235 0.467998 0.804359
H42_4 H 0.147978 0.470690 0.831754
H43_4 H 0.038329 0.399009 0.830829
N9_4 N 0.2778(4) 0.5378(6) 0.98034(14)
N13_4 N 0.1127(5) 0.3605(7) 0.80577(17)
O10_3 O 0.0239(4) 0.0971(6) 0.95044(14)
O13_4 O 0.0441(4) 0.2059(6) 0.81864(13)
N14_3 N 0.0849(5) 0.0912(8) 0.87712(13)
O16_3 O 0.3329(4) 0.8518(7) 0.98845(12)
H6_4 H 0.788866 0.015520 0.743023
H20_4 H 0.615672 0.041995 0.745299
C35_4 C 0.6075(5) 0.0146(7) 0.81188(18)
H21_4 H 0.666155 0.025965 0.804989
C36_4 C 0.6010(5) 0.0559(8) 0.83802(17)
H22_4 H 0.655929 0.093824 0.848734
C37_4 C 0.5129(5) 0.0413(7) 0.84863(17)
C40_4 C 0.5170(5) 0.0996(7) 0.87399(15)
C57_4 C 0.9521(5) 0.4759(7) 0.93143(17)
C58_4 C 0.9392(5) 0.3900(7) 0.94466(17)
H35_4 H 0.896916 0.332342 0.935932
C59_4 C 0.9870(5) 0.3889(7) 0.96993(16)
H36_4 H 0.981565 0.332031 0.976314
C60_4 C 0.8952(6) 0.4751(8) 0.90578(18)
Cd2_3 Cd 0.98604(4) 0.14223(6) 0.86358(2)
Cl1_4 Cl 0.84777(17) 0.13534(25) 0.79180(6)
Cl2_4 Cl 0.9086(2) 0.2408(3) 0.85498(7)
N2_4 N 0.9064(5) 0.0068(6) 0.74077(14)
O6_4 O 0.8493(4) 0.0130(6) 0.85979(13)
O7_4 O 0.5924(3) 0.1515(4) 0.88771(12)
O8_4 O 0.4386(3) 0.0968(4) 0.88039(11)
O9_4 O 0.9808(4) 0.1624(6) 0.91263(14)
N15_3 N 0.6498(5) 0.3315(8) 0.94034(14)
O14_3 O 0.3961(7) 0.2039(9) 0.93993(14)
O15_3 O 0.4715(5) 0.1401(6) 0.95830(11)
C1_4 C 0.7500(5) 0.5942(7) 0.62561(16)
C2_4 C 0.7811(6) 0.6643(8) 0.65056(18)
C3_4 C 0.7197(5) 0.6539(7) 0.67341(17)
H1_4 H 0.660761 0.598811 0.674533
C4_4 C 0.7443(5) 0.7236(7) 0.69445(17)
H2_4 H 0.704218 0.712969 0.710345
C5_4 C 0.8269(5) 0.8075(7) 0.69197(17)
C6_4 C 0.8919(5) 0.8240(8) 0.66876(17)
H3_4 H 0.948215 0.881837 0.667449
C7_4 C 0.8716(5) 0.7559(8) 0.64877(16)
H4_4 H 0.914487 0.766221 0.633748
C8_4 C 0.7763(5) 0.9100(8) 0.71702(17)
H5_4 H 0.713759 0.880595 0.710450
C9_4 C 0.8184(6) 0.9840(8) 0.73521(17)
C10_4 C 0.9260(6) 0.9477(8) 0.72550(17)
C14_4 C 0.9647(6) 0.7974(8) 0.75412(15)
C15_4 C 0.9158(5) 0.8116(7) 0.77771(16)
H9_4 H 0.916429 0.868732 0.780082
C16_4 C 0.8658(5) 0.7344(7) 0.79760(15)
H10_4 H 0.830638 0.740972 0.812584
C17_4 C 0.8671(5) 0.6527(7) 0.79569(17)
C18_4 C 0.9142(6) 0.6368(8) 0.77215(17)
H11_4 H 0.915294 0.580317 0.770430
C19_4 C 0.9602(6) 0.7120(8) 0.75103(17)
H12_4 H 0.987940 0.701794 0.734599
C20_4 C 0.8278(5) 0.5761(7) 0.81926(17)
C21_4 C 0.8385(6) 0.9624(8) 0.83622(19)
C22_4 C 0.7419(6) 0.8863(8) 0.82745(17)
C23_4 C 0.7216(6) 0.8564(8) 0.80022(19)
H13_4 H 0.771384 0.874975 0.786989
C24_4 C 0.6324(5) 0.8004(7) 0.79054(17)
H14_4 H 0.620216 0.781076 0.771025
C25_4 C 0.5558(5) 0.7710(7) 0.81155(18)
C26_4 C 0.5739(6) 0.7985(8) 0.83932(18)
H15_4 H 0.524405 0.779926 0.852690
C27_4 C 0.6682(6) 0.8558(8) 0.84832(19)
H16_4 H 0.682139 0.873649 0.867903
C28_4 C 0.3863(5) 0.6389(7) 0.81328(18)
H17_4 H 0.388075 0.606729 0.829963
C29_4 C 0.3062(5) 0.6157(7) 0.79455(16)
H18_4 H 0.245997 0.562783 0.796669
C30_4 C 0.4242(5) 0.7450(7) 0.77777(16)
C31_4 C 0.4839(5) 0.8296(7) 0.75857(16)
C32_4 C 0.5642(5) 0.9182(7) 0.72253(16)
H19_4 H 0.590171 0.937583 0.703893
C33_4 C 0.5791(5) 0.9760(7) 0.74519(17)
C34_4 C 0.5250(6) 0.9565(8) 0.79638(16)
C38_4 C 0.4316(5) 0.9815(7) 0.83349(17)
H23_4 H 0.373378 0.969278 0.841020
C39_4 C 0.4334(5) 0.9376(7) 0.80667(15)
H24_4 H 0.378038 0.898548 0.796276
N1_4 N 0.8452(4) 0.8855(6) 0.70977(14)
N5_4 N 0.4582(4) 0.7180(6) 0.80101(13)
N8_4 N 0.5291(4) 0.9178(6) 0.76850(14)
O5_4 O 0.9067(4) 0.9885(6) 0.81660(14)
Cd5_3 Cd 0.87062(4) 0.98050(7) 0.94585(2)
C3_5 C 0.3461(7) 0.0658(5) 0.00675(17)
H1_5 H 0.401189 0.061950 0.007867
C4_5 C 0.2764(7) 0.0207(5) 0.02779(17)
C5_5 C 0.1925(7) 0.0194(5) 0.02531(17)
C6_5 C 0.1760(8) 0.0679(6) 0.00210(17)
H3_5 H 0.118163 0.066378 0.000783
C11_3 C 0.0577(7) 0.0703(5) 0.05718(15)
C12_3 C 0.0221(8) 0.1777(6) 0.04630(16)
C13_3 C 0.1095(8) 0.2230(5) 0.06211(17)
H8_3 H 0.144842 0.287253 0.066810
C14_5 C 0.2026(8) 0.1673(5) 0.08746(15)
C15_5 C 0.1884(7) 0.1042(5) 0.11105(16)
H9_5 H 0.131268 0.047697 0.113416
C16_5 C 0.2656(7) 0.1314(5) 0.13094(15)
H10_5 H 0.259028 0.089666 0.145918
C17_5 C 0.3473(7) 0.2144(5) 0.12903(17)
C18_5 C 0.3632(8) 0.2774(5) 0.10549(17)
H11_5 H 0.419683 0.334977 0.103764
C19_5 C 0.2880(8) 0.2482(6) 0.08437(17)
H12_5 H 0.298206 0.286146 0.067933
C20_5 C 0.4239(7) 0.2517(5) 0.15260(17)
N4_3 N 0.1322(6) 0.1535(4) 0.06920(15)
O3_3 O 0.4811(6) 0.3329(4) 0.15512(12)
O4_3 O 0.4086(6) 0.1861(4) 0.17239(11)
C1_5 C 0.4058(7) 0.1558(5) 0.95895(16)
C2_5 C 0.3357(8) 0.1168(5) 0.98390(18)
C7_5 C 0.2441(8) 0.1157(6) 0.98211(16)
H4_5 H 0.233779 0.148266 0.967082
H2_5 H 0.287031 0.991249 0.043679
C8_5 C 0.0900(8) 0.8663(6) 0.05036(17)
H5_5 H 0.119405 0.833164 0.043784
C9_5 C 0.0160(8) 0.8344(5) 0.06855(17)
C10_5 C 0.0523(8) 0.9783(5) 0.05884(17)
C21_5 C 0.0376(8) 0.8761(5) 0.16956(19)
C22_5 C 0.1137(8) 0.8556(5) 0.16079(17)
C23_5 C 0.1436(8) 0.8652(5) 0.13356(19)
H13_5 H 0.125025 0.896409 0.120323
C24_5 C 0.1996(7) 0.8320(5) 0.12388(17)
H14_5 H 0.218924 0.839140 0.104359
C25_5 C 0.2290(7) 0.7848(5) 0.14489(18)
C26_5 C 0.2015(8) 0.7754(6) 0.17266(18)
H15_5 H 0.220074 0.744479 0.186024
C27_5 C 0.1442(8) 0.8124(5) 0.18166(19)
H16_5 H 0.126351 0.808490 0.201237
C28_5 C 0.3611(7) 0.7474(5) 0.14662(18)
H17_5 H 0.393271 0.781346 0.163297
C29_5 C 0.3843(7) 0.6905(5) 0.12789(16)
H18_5 H 0.437217 0.683214 0.130003
C30_5 C 0.2550(7) 0.6792(5) 0.11111(16)
C31_5 C 0.1704(7) 0.6543(5) 0.09191(16)
C32_5 C 0.0818(7) 0.6460(5) 0.05587(16)
H19_5 H 0.062417 0.652588 0.037227
C33_5 C 0.0240(7) 0.6031(5) 0.07853(17)
C34_5 C 0.0435(8) 0.5685(5) 0.12972(16)
C38_5 C 0.0185(7) 0.4501(5) 0.16683(17)
H23_5 H 0.030722 0.404100 0.174354
C39_5 C 0.0624(7) 0.4958(5) 0.14001(15)
H24_5 H 0.101452 0.479490 0.129610
N1_5 N 0.1145(6) 0.9597(4) 0.04311(14)
N5_5 N 0.2820(6) 0.7402(4) 0.13435(13)
N6_3 N 0.3183(6) 0.6498(5) 0.10701(14)
N8_5 N 0.0822(6) 0.6113(4) 0.10184(14)
O5_5 O 0.0115(6) 0.9182(4) 0.14994(14)
H7_5 H 0.990228 0.207451 0.038956
N3_3 N 0.9937(6) 0.0849(5) 0.04379(13)
O18_3 O 0.9268(7) 0.0239(4) 0.11711(14)
H6_5 H 0.984480 0.773346 0.076357
H20_5 H 0.958005 0.573677 0.078633
C35_5 C 0.9854(7) 0.5929(5) 0.14522(18)
H21_5 H 0.974035 0.640190 0.138323
C36_5 C 0.9441(8) 0.5451(6) 0.17136(17)
H22_5 H 0.906176 0.562105 0.182068
C37_5 C 0.9587(7) 0.4716(5) 0.18197(17)
C40_5 C 0.9004(7) 0.4174(5) 0.20733(15)
C41_5 C 0.8383(9) 0.8717(7) 0.2699(2)
C42_5 C 0.7390(8) 0.8470(5) 0.2784(2)
C43_5 C 0.6576(9) 0.7985(7) 0.2609(2)
H25_5 H 0.664443 0.788189 0.241194
C44_5 C 0.5693(7) 0.7663(5) 0.27182(15)
H26_5 H 0.517035 0.735172 0.259413
C45_5 C 0.5546(7) 0.7792(5) 0.30214(15)
C46_5 C 0.6336(7) 0.8353(5) 0.31988(16)
H27_5 H 0.626875 0.852776 0.338786
C47_5 C 0.7241(7) 0.8641(5) 0.30765(19)
H28_5 H 0.776994 0.896289 0.319717
C48_5 C 0.3906(7) 0.7519(5) 0.30276(16)
H29_5 H 0.393938 0.788637 0.286651
C49_5 C 0.3136(8) 0.6995(6) 0.32007(18)
H30_5 H 0.252987 0.690847 0.317394
C50_5 C 0.4308(7) 0.6846(5) 0.33787(16)
C51_5 C 0.4891(7) 0.6596(5) 0.35515(18)
C52_5 C 0.5695(7) 0.6520(5) 0.39290(16)
H31_5 H 0.594283 0.657389 0.411669
C53_5 C 0.5832(7) 0.6057(5) 0.36859(16)
H32_4 H 0.618550 0.575042 0.368736
C54_5 C 0.5292(7) 0.5712(5) 0.31887(18)
C55_5 C 0.4449(7) 0.5017(5) 0.30682(17)
H33_5 H 0.388434 0.484586 0.316661
C56_5 C 0.4408(8) 0.4551(6) 0.27998(18)
H34_5 H 0.382181 0.410133 0.272413
C57_5 C 0.5241(7) 0.4762(5) 0.26477(17)
C58_5 C 0.6100(7) 0.5492(5) 0.27800(17)
H35_5 H 0.667658 0.564574 0.269266
C59_5 C 0.6111(7) 0.5981(5) 0.30327(16)
H36_5 H 0.667969 0.649534 0.309648
C60_5 C 0.5249(8) 0.4201(5) 0.23912(18)
C61_5 C 0.7131(8) 0.8267(6) 0.15808(19)
H37_5 H 0.701337 0.860230 0.172444
C62_5 C 0.6385(10) 0.7669(7) 0.1058(2)
H38_5 H 0.684456 0.831348 0.100895
H39_5 H 0.576407 0.754002 0.099870
H40_5 H 0.653910 0.724458 0.095667
C63_5 C 0.5696(9) 0.6650(6) 0.1527(2)
H41_5 H 0.532002 0.620237 0.137693
H42_5 H 0.529310 0.677288 0.165088
H43_5 H 0.600991 0.639320 0.164163
Cd1_3 Cd 0.89012(6) 0.87062(4) 0.11252(2)
Cl1_5 Cl 0.86466(25) 0.71243(18) 0.12514(6)
Cl2_5 Cl 0.7592(3) 0.6678(2) 0.18832(7)
N2_5 N 0.9932(6) 0.8996(4) 0.07411(14)
N9_5 N 0.4622(6) 0.7400(4) 0.31368(14)
N10_5 N 0.3417(6) 0.6616(4) 0.34223(14)
N12_5 N 0.5366(6) 0.6133(4) 0.34527(13)
N13_5 N 0.6395(7) 0.7522(5) 0.13911(17)
O6_5 O 0.9870(6) 0.8363(4) 0.19313(13)
O7_5 O 0.8485(4) 0.4409(3) 0.22105(12)
O8_5 O 0.9032(4) 0.3418(3) 0.21373(11)
O9_5 O 0.8376(6) 0.8184(4) 0.24597(14)
O11_3 O 0.6014(5) 0.4383(4) 0.22859(12)
O12_3 O 0.4469(4) 0.3522(3) 0.23211(12)
O13_5 O 0.7941(6) 0.8382(4) 0.15198(13)
Cd6_3 Cd 0.84381(7) 0.98604(4) 0.03025(2)
N17_3 N 0.6879(7) 0.1753(4) 0.21687(14)
C11_4 C 0.0703(5) 0.0126(5) 0.89051(15)
C12_4 C 0.1777(6) 0.1556(5) 0.87963(16)
H7_6 H 0.207451 0.217223 0.872289
C13_4 C 0.2230(5) 0.1135(6) 0.89544(17)
H8_4 H 0.287253 0.142411 0.900143
N4_4 N 0.1535(4) 0.0213(4) 0.90253(15)
C1_6 C 0.1558(5) 0.7500(5) 0.79228(16)
C2_6 C 0.1168(5) 0.7811(6) 0.81723(18)
C3_6 C 0.0658(5) 0.7197(5) 0.84008(17)
H1_6 H 0.061950 0.660761 0.841200
C4_6 C 0.0207(5) 0.7443(5) 0.86112(17)
C5_6 C 0.0194(5) 0.8269(5) 0.85864(17)
C6_6 C 0.0679(6) 0.8919(5) 0.83543(17)
H3_6 H 0.066378 0.948215 0.834116
C7_6 C 0.1157(6) 0.8716(5) 0.81544(16)
H4_6 H 0.148266 0.914487 0.800415
C14_6 C 0.1673(5) 0.9647(6) 0.92079(15)
C15_6 C 0.1042(5) 0.9158(5) 0.94438(16)
H9_6 H 0.047697 0.916429 0.946749
C16_6 C 0.1314(5) 0.8658(5) 0.96427(15)
H10_6 H 0.089666 0.830638 0.979251
C17_6 C 0.2144(5) 0.8671(5) 0.96236(17)
C18_6 C 0.2774(5) 0.9142(6) 0.93882(17)
H11_6 H 0.334977 0.915294 0.937097
C19_6 C 0.2482(6) 0.9602(6) 0.91770(17)
H12_6 H 0.286146 0.987940 0.901266
C20_6 C 0.2517(5) 0.8278(5) 0.98593(17)
C41_6 C 0.8717(7) 0.0334(6) 0.1032(2)
C42_6 C 0.8470(5) 0.1080(6) 0.1117(2)
C43_6 C 0.7985(7) 0.1409(6) 0.0942(2)
H25_6 H 0.788189 0.123746 0.074527
C44_6 C 0.7663(5) 0.1970(5) 0.10515(15)
H26_6 H 0.735172 0.218137 0.092746
C45_6 C 0.7792(5) 0.2246(5) 0.13547(15)
C46_6 C 0.8353(5) 0.2017(5) 0.15321(16)
H27_6 H 0.852776 0.225901 0.172119
C47_6 C 0.8641(5) 0.1400(5) 0.14098(19)
H28_6 H 0.896289 0.119295 0.153050
C48_6 C 0.7519(5) 0.3613(5) 0.13609(16)
H29_6 H 0.788637 0.394699 0.119984
C49_6 C 0.6995(6) 0.3859(6) 0.15340(18)
H30_6 H 0.690847 0.437860 0.150727
C50_6 C 0.6846(5) 0.2538(5) 0.17120(16)
C51_6 C 0.6596(5) 0.1705(5) 0.18848(18)
C52_6 C 0.6520(5) 0.0825(5) 0.22623(16)
H31_6 H 0.657389 0.063106 0.245002
C53_6 C 0.6057(5) 0.0225(5) 0.20192(16)
C54_6 C 0.5712(5) 0.0420(5) 0.15220(18)
C55_6 C 0.5017(5) 0.0568(5) 0.14015(17)
H33_6 H 0.484586 0.096152 0.149994
C56_6 C 0.4551(6) 0.0143(6) 0.11331(18)
H34_6 H 0.410133 0.027952 0.105746
H37_6 H 0.860230 0.158893 0.005777
N9_6 N 0.7400(4) 0.2778(4) 0.14701(14)
N10_6 N 0.6616(4) 0.3199(4) 0.17556(14)
N12_6 N 0.6133(4) 0.0767(4) 0.17860(13)
C61_6 C 0.8267(6) 0.1136(6) 0.99141(19)
C62_6 C 0.7669(7) 0.1284(7) 0.9391(2)
H38_6 H 0.831348 0.146892 0.934228
H39_6 H 0.754002 0.177595 0.933203
H40_6 H 0.724458 0.070548 0.929000
C63_6 C 0.6650(6) 0.0954(7) 0.9860(2)
H41_6 H 0.620237 0.088235 0.971026
H42_6 H 0.677288 0.147978 0.998421
H43_6 H 0.639320 0.038329 0.997496
N13_6 N 0.7522(5) 0.1127(5) 0.97244(17)
O13_6 O 0.8382(4) 0.0441(4) 0.98531(13)
C21_6 C 0.8761(5) 0.8385(6) 0.00289(19)
C26_6 C 0.7754(6) 0.5739(6) 0.00599(18)
H15_6 H 0.744479 0.524405 0.019357
C27_6 C 0.8124(5) 0.6682(6) 0.01499(19)
H16_6 H 0.808490 0.682139 0.034570
C36_6 C 0.5451(6) 0.6010(5) 0.00469(17)
H22_6 H 0.562105 0.655929 0.015401
C37_6 C 0.4716(5) 0.5129(5) 0.01530(17)
C38_6 C 0.4501(5) 0.4316(5) 0.00016(17)
H23_6 H 0.404100 0.373378 0.007687
C40_6 C 0.4174(5) 0.5170(5) 0.04066(15)
H32_5 H 0.575042 0.956492 0.202069
C57_6 C 0.4762(5) 0.9521(5) 0.09810(17)
C58_6 C 0.5492(5) 0.9392(5) 0.11133(17)
H35_6 H 0.564574 0.896916 0.102599
C59_6 C 0.5981(5) 0.9870(5) 0.13660(16)
H36_6 H 0.649534 0.981565 0.142981
C60_6 C 0.4201(5) 0.8952(6) 0.07245(18)
Cl2_6 Cl 0.6678(2) 0.9086(2) 0.02165(7)
O6_6 O 0.8363(4) 0.8493(4) 0.02646(13)
O7_6 O 0.4409(3) 0.5924(3) 0.05438(12)
O8_6 O 0.3418(3) 0.4386(3) 0.04706(11)
O9_6 O 0.8184(4) 0.9808(4) 0.07930(14)
H2_6 H 0.991249 0.704218 0.877012
C8_6 C 0.8663(6) 0.7763(5) 0.88369(17)
H5_6 H 0.833164 0.713759 0.877117
C9_6 C 0.8344(5) 0.8184(6) 0.90188(17)
H6_6 H 0.773346 0.788866 0.909690
C10_6 C 0.9783(5) 0.9260(6) 0.89217(17)
C22_6 C 0.8556(5) 0.7419(6) 0.99412(17)
C23_6 C 0.8652(5) 0.7216(6) 0.96689(19)
H13_6 H 0.896409 0.771384 0.953656
C24_6 C 0.8320(5) 0.6324(5) 0.95721(17)
H14_6 H 0.839140 0.620216 0.937692
C25_6 C 0.7848(5) 0.5558(5) 0.97822(18)
C28_6 C 0.7474(5) 0.3863(5) 0.97995(18)
H17_6 H 0.781346 0.388075 0.996630
C29_6 C 0.6905(5) 0.3062(5) 0.96122(16)
H18_6 H 0.683214 0.245997 0.963336
C30_6 C 0.6792(5) 0.4242(5) 0.94444(16)
C31_6 C 0.6543(5) 0.4839(5) 0.92524(16)
C32_6 C 0.6460(5) 0.5642(5) 0.88920(16)
H19_6 H 0.652588 0.590171 0.870560
C33_6 C 0.6031(5) 0.5791(5) 0.91186(17)
H20_6 H 0.573677 0.615672 0.911966
C34_6 C 0.5685(5) 0.5250(6) 0.96305(16)
C35_6 C 0.5929(5) 0.6075(5) 0.97855(18)
H21_6 H 0.640190 0.666155 0.971656
C39_6 C 0.4958(5) 0.4334(5) 0.97334(15)
H24_6 H 0.479490 0.378038 0.962943
Cl1_6 Cl 0.71243(18) 0.84777(17) 0.95847(6)
N1_6 N 0.9597(4) 0.8452(4) 0.87644(14)
N2_6 N 0.8996(4) 0.9064(5) 0.90744(14)
N5_6 N 0.7402(4) 0.4582(4) 0.96768(13)
N8_6 N 0.6113(4) 0.5291(4) 0.93517(14)
O5_6 O 0.9182(4) 0.9067(4) 0.98327(14)
C11_5 C 0.9874(5) 0.0577(7) 0.22384(15)
C12_5 C 0.8444(5) 0.0221(8) 0.21296(16)
C13_5 C 0.8865(6) 0.1095(8) 0.22877(17)
H8_5 H 0.857589 0.144842 0.233476
N4_5 N 0.9787(4) 0.1322(6) 0.23586(15)
C11_6 C 0.0126(5) 0.9423(7) 0.72384(15)
C12_6 C 0.1556(5) 0.9779(8) 0.71296(16)
C13_6 C 0.1135(6) 0.8905(8) 0.72877(17)
H8_6 H 0.142411 0.855158 0.733476
N4_6 N 0.0213(4) 0.8678(6) 0.73586(15)
H32_6 H 0.956492 0.381450 0.035402
loop_
_geom_bond_atom_site_label_1
_geom_bond_atom_site_label_2
_geom_bond_site_symmetry_1
_geom_bond_site_symmetry_2
C8 H5 1_555 1_555
C9 C8 1_555 1_555
H6 C9 1_555 1_555
C21 C22 1_555 1_555
C22 C23 1_555 1_555
C23 H13 1_555 1_555
C24 C23 1_555 1_555
H14 C24 1_555 1_555
C25 C24 1_555 1_555
C26 C25 1_555 1_555
H15 C26 1_555 1_555
C27 C22 1_555 1_555
H16 C27 1_555 1_555
C28 H17 1_555 1_555
C29 C28 1_555 1_555
H18 C29 1_555 1_555
C30 C31 1_555 1_555
C31 N7 1_555 1_555
C32 H19 1_555 1_555
C33 C32 1_555 1_555
H20 C33 1_555 1_555
C34 C35 1_555 1_555
C35 H21 1_555 1_555
C36 C35 1_555 1_555
H22 C36 1_555 1_555
C37 C36 1_555 1_555
C38 C37 1_555 1_555
H23 C38 1_555 1_555
C39 C34 1_555 1_555
H24 C39 1_555 1_555
C40 C37 1_555 1_555
C58 C57 1_555 1_555
H35 C58 1_555 1_555
H36 C59 1_555 1_555
C60 C57 1_555 1_555
Cd1 Cl1 1_555 1_555
Cd2 Cl2 1_555 1_555
Cd3 O7 1_555 1_555
N2 C9 1_555 1_555
N5 C25 1_555 1_555
N6 C29 1_555 1_555
N7 C32 1_555 1_555
N8 C31 1_555 1_555
O5 C21 1_555 1_555
O6 C21 1_555 1_555
O7 C40 1_555 1_555
O8 C40 1_555 1_555
O11 C60 1_555 1_555
O12 C60 1_555 1_555
Cd8 N6 1_555 1_555
Cd11 O11 1_555 1_555
Cd12 N7 1_555 1_555
N15 Cd3 1_555 1_555
N17 Cd3 1_555 1_555
O14 Cd3 1_555 1_555
O15 Cd3 1_555 1_555
C8 N1 1_555 1_555
C10 N1 1_555 1_555
C10 N2 1_555 1_555
C26 C27 1_555 1_555
C28 N5 1_555 1_555
C30 N5 1_555 1_555
C30 N6 1_555 1_555
C33 N8 1_555 1_555
C34 N8 1_555 1_555
C38 C39 1_555 1_555
C58 C59 1_555 1_555
Cd1 N2 1_555 1_555
Cd1 O5 1_555 1_555
Cd2 O6 1_555 1_555
Cd2 O9 1_555 1_555
Cd3 O8 1_555 1_555
O12 Cd11 1_555 1_555
C41 C42 1_555 1_555
C42 C43 1_555 1_555
C43 H25 1_555 1_555
C44 C43 1_555 1_555
H26 C44 1_555 1_555
C45 C44 1_555 1_555
C46 C45 1_555 1_555
H27 C46 1_555 1_555
C47 C42 1_555 1_555
H28 C47 1_555 1_555
C48 H29 1_555 1_555
C49 C48 1_555 1_555
H30 C49 1_555 1_555
C50 C51 1_555 1_555
C51 N11 1_555 1_555
C52 H31 1_555 1_555
C53 C52 1_555 1_555
C54 C55 1_555 1_555
C55 H33 1_555 1_555
C56 C55 1_555 1_555
H34 C56 1_555 1_555
C61 H37 1_555 1_555
C62 H38 1_555 1_555
H39 C62 1_555 1_555
H40 C62 1_555 1_555
C63 H41 1_555 1_555
H42 C63 1_555 1_555
H43 C63 1_555 1_555
Cd4 N10 1_555 1_555
N9 C45 1_555 1_555
N10 C49 1_555 1_555
N11 C52 1_555 1_555
N12 C51 1_555 1_555
N13 C61 1_555 1_555
O10 C41 1_555 1_555
O13 C61 1_555 1_555
Cd7 N11 1_555 1_555
N16 Cd4 1_555 1_555
O16 Cd4 1_555 1_555
O17 Cd4 1_555 1_555
O19 Cd4 1_555 1_555
O20 Cd4 1_555 1_555
C46 C47 1_555 1_555
C48 N9 1_555 1_555
C50 N9 1_555 1_555
C50 N10 1_555 1_555
C53 N12 1_555 1_555
C54 N12 1_555 1_555
C62 N13 1_555 1_555
C63 N13 1_555 1_555
C1 C2 1_555 1_555
C2 C3 1_555 1_555
C3 H1 1_555 1_555
C4 C3 1_555 1_555
C5 C4 1_555 1_555
C6 C5 1_555 1_555
H3 C6 1_555 1_555
C7 C2 1_555 1_555
H4 C7 1_555 1_555
C14 C15 1_555 1_555
C15 H9 1_555 1_555
C16 C15 1_555 1_555
H10 C16 1_555 1_555
C17 C16 1_555 1_555
C18 C17 1_555 1_555
H11 C18 1_555 1_555
C19 C14 1_555 1_555
H12 C19 1_555 1_555
C20 C17 1_555 1_555
O1 C1 1_555 1_555
O2 C1 1_555 1_555
O3 C20 1_555 1_555
O4 C20 1_555 1_555
Cd9 O1 1_555 1_555
Cd11 O3 1_555 1_555
C6 C7 1_555 1_555
C18 C19 1_555 1_555
O2 Cd9 1_555 1_555
O4 Cd11 1_555 1_555
C11 N3 1_555 1_555
C12 H7 1_555 1_555
C13 C12 1_555 1_555
H8 C13 1_555 1_555
N3 C12 1_555 1_555
N4 C11 1_555 1_555
C13 N4 1_555 1_555
C35_2 H21_2 1_555 1_555
C36_2 C35_2 1_555 1_555
H22_2 C36_2 1_555 1_555
C37_2 C36_2 1_555 1_555
C40_2 C37_2 1_555 1_555
C41_2 C42_2 1_555 1_555
C42_2 C43_2 1_555 1_555
C43_2 H25_2 1_555 1_555
C44_2 C43_2 1_555 1_555
H26_2 C44_2 1_555 1_555
C45_2 C44_2 1_555 1_555
C46_2 C45_2 1_555 1_555
H27_2 C46_2 1_555 1_555
C47_2 C42_2 1_555 1_555
H28_2 C47_2 1_555 1_555
C48_2 H29_2 1_555 1_555
C49_2 C48_2 1_555 1_555
H30_2 C49_2 1_555 1_555
C50_2 C51_2 1_555 1_555
C51_2 N11_2 1_555 1_555
C52_2 H31_2 1_555 1_555
C53_2 C52_2 1_555 1_555
H32_2 C53_2 1_555 1_555
C54_2 C55_2 1_555 1_555
C55_2 H33_2 1_555 1_555
C56_2 C55_2 1_555 1_555
H34_2 C56_2 1_555 1_555
C57_2 C56_2 1_555 1_555
C58_2 C57_2 1_555 1_555
H35_2 C58_2 1_555 1_555
C59_2 C54_2 1_555 1_555
H36_2 C59_2 1_555 1_555
C60_2 C57_2 1_555 1_555
C61_2 H37_2 1_555 1_555
C62_2 H38_2 1_555 1_555
H39_2 C62_2 1_555 1_555
H40_2 C62_2 1_555 1_555
C63_2 H41_2 1_555 1_555
H42_2 C63_2 1_555 1_555
H43_2 C63_2 1_555 1_555
Cd5 Cl1_2 1_555 1_555
Cd2_2 Cl2_2 1_555 1_555
Cd7 O7_2 1_555 1_555
Cd4_2 N10_2 1_555 1_555
N9_2 C45_2 1_555 1_555
N10_2 C49_2 1_555 1_555
N11_2 C52_2 1_555 1_555
N12_2 C51_2 1_555 1_555
N13_2 C61_2 1_555 1_555
O7_2 C40_2 1_555 1_555
O8_2 C40_2 1_555 1_555
O9_2 C41_2 1_555 1_555
O10_2 C41_2 1_555 1_555
O19 C60_2 1_555 1_555
O20 C60_2 1_555 1_555
O13_2 C61_2 1_555 1_555
Cd7_2 N11_2 1_555 1_555
N14_2 Cd2_2 1_555 1_555
N15_2 Cd7 1_555 1_555
N16_2 Cd4_2 1_555 1_555
O14_2 Cd7 1_555 1_555
O15_2 Cd7 1_555 1_555
O16_2 Cd4_2 1_555 1_555
O17_2 Cd4_2 1_555 1_555
O19_2 Cd4_2 1_555 1_555
O20_2 Cd4_2 1_555 1_555
C46_2 C47_2 1_555 1_555
C48_2 N9_2 1_555 1_555
C50_2 N9_2 1_555 1_555
C50_2 N10_2 1_555 1_555
C53_2 N12_2 1_555 1_555
C54_2 N12_2 1_555 1_555
C58_2 C59_2 1_555 1_555
C62_2 N13_2 1_555 1_555
C63_2 N13_2 1_555 1_555
Cd5 N2_2 1_555 1_555
Cd5 O13_2 1_555 1_555
Cd2_2 O6_2 1_555 1_555
Cd2_2 O9_2 1_555 1_555
Cd2_2 O13_2 1_555 1_555
Cd7 O8_2 1_555 1_555
C8_2 H5_2 1_555 1_555
C9_2 C8_2 1_555 1_555
C21_2 C22_2 1_555 1_555
C22_2 C23_2 1_555 1_555
C23_2 H13_2 1_555 1_555
C24_2 C23_2 1_555 1_555
H14_2 C24_2 1_555 1_555
C25_2 C24_2 1_555 1_555
C26_2 C25_2 1_555 1_555
H15_2 C26_2 1_555 1_555
C27_2 C22_2 1_555 1_555
H16_2 C27_2 1_555 1_555
C28_2 H17_2 1_555 1_555
C29_2 C28_2 1_555 1_555
H18_2 C29_2 1_555 1_555
C30_2 C31_2 1_555 1_555
C31_2 N7_2 1_555 1_555
C32_2 H19_2 1_555 1_555
C33_2 C32_2 1_555 1_555
H23_2 C38_2 1_555 1_555
C39_2 C34_2 1_555 1_555
H24_2 C39_2 1_555 1_555
N5_2 C25_2 1_555 1_555
N15 C29_2 1_555 1_555
N7_2 C32_2 1_555 1_555
N8_2 C31_2 1_555 1_555
O5_2 C21_2 1_555 1_555
Cd11 N7_2 1_555 1_555
C8_2 N1_2 1_555 1_555
C10_2 N1_2 1_555 1_555
C26_2 C27_2 1_555 1_555
C28_2 N5_2 1_555 1_555
C30_2 N5_2 1_555 1_555
C30_2 N15 1_555 1_555
C33_2 N8_2 1_555 1_555
C34_2 N8_2 1_555 1_555
C38_2 C39_2 1_555 1_555
C1_2 C2_2 1_555 1_555
C2_2 C3_2 1_555 1_555
C3_2 H1_2 1_555 1_555
C4_2 C3_2 1_555 1_555
C5_2 C4_2 1_555 1_555
C6_2 C5_2 1_555 1_555
H3_2 C6_2 1_555 1_555
C7_2 C2_2 1_555 1_555
H4_2 C7_2 1_555 1_555
C13_2 C12_2 1_555 1_555
H8_2 C13_2 1_555 1_555
C14_2 C15_2 1_555 1_555
C15_2 H9_2 1_555 1_555
C16_2 C15_2 1_555 1_555
H10_2 C16_2 1_555 1_555
C17_2 C16_2 1_555 1_555
C18_2 C17_2 1_555 1_555
H11_2 C18_2 1_555 1_555
C19_2 C14_2 1_555 1_555
H12_2 C19_2 1_555 1_555
C20_2 C17_2 1_555 1_555
N4_2 C11_2 1_555 1_555
O1_2 C1_2 1_555 1_555
O2_2 C1_2 1_555 1_555
O16 C20_2 1_555 1_555
O17 C20_2 1_555 1_555
Cd8 O1_2 1_555 1_555
C6_2 C7_2 1_555 1_555
C13_2 N4_2 1_555 1_555
C14_2 N4_2 1_555 1_555
C18_2 C19_2 1_555 1_555
O2_2 Cd8 1_555 1_555
C1_3 C2_3 1_555 1_555
C2_3 C3_3 1_555 1_555
C3_3 H1_3 1_555 1_555
C4_3 C3_3 1_555 1_555
H2_3 C4_3 1_555 1_555
C5_3 C4_3 1_555 1_555
C6_3 C5_3 1_555 1_555
H3_3 C6_3 1_555 1_555
C7_3 C2_3 1_555 1_555
H4_3 C7_3 1_555 1_555
C8_3 H5_3 1_555 1_555
C9_3 C8_3 1_555 1_555
C14_3 C15_3 1_555 1_555
C15_3 H9_3 1_555 1_555
C16_3 C15_3 1_555 1_555
H10_3 C16_3 1_555 1_555
C17_3 C16_3 1_555 1_555
C18_3 C17_3 1_555 1_555
H11_3 C18_3 1_555 1_555
C19_3 C14_3 1_555 1_555
H12_3 C19_3 1_555 1_555
C20_3 C17_3 1_555 1_555
C21_3 C22_3 1_555 1_555
C22_3 C23_3 1_555 1_555
C23_3 H13_3 1_555 1_555
C24_3 C23_3 1_555 1_555
H14_3 C24_3 1_555 1_555
C25_3 C24_3 1_555 1_555
C26_3 C25_3 1_555 1_555
H15_3 C26_3 1_555 1_555
C27_3 C22_3 1_555 1_555
H16_3 C27_3 1_555 1_555
C28_3 H17_3 1_555 1_555
C29_3 C28_3 1_555 1_555
H18_3 C29_3 1_555 1_555
C30_3 C31_3 1_555 1_555
C31_3 N7_3 1_555 1_555
C32_3 H19_3 1_555 1_555
C33_3 C32_3 1_555 1_555
H23_3 C38_3 1_555 1_555
C39_3 C34_3 1_555 1_555
H24_3 C39_3 1_555 1_555
N1_3 C5_3 1_555 1_555
N5_3 C25_3 1_555 1_555
N6_2 C29_3 1_555 1_555
N7_3 C32_3 1_555 1_555
N8_3 C31_3 1_555 1_555
O1_3 C1_3 1_555 1_555
O2_3 C1_3 1_555 1_555
O3_2 C20_3 1_555 1_555
O4_2 C20_3 1_555 1_555
O5_3 C21_3 1_555 1_555
Cd9 N6_2 1_555 1_555
Cd9_2 O1_3 1_555 1_555
Cd12 O3_2 1_555 1_555
Cd12_2 N7_3 1_555 1_555
C6_3 C7_3 1_555 1_555
C8_3 N1_3 1_555 1_555
C10_3 N1_3 1_555 1_555
C18_3 C19_3 1_555 1_555
C26_3 C27_3 1_555 1_555
C28_3 N5_3 1_555 1_555
C30_3 N5_3 1_555 1_555
C30_3 N6_2 1_555 1_555
C33_3 N8_3 1_555 1_555
C34_3 N8_3 1_555 1_555
C38_3 C39_3 1_555 1_555
O2_3 Cd9_2 1_555 1_555
O4_2 Cd12 1_555 1_555
C35_3 H21_3 1_555 1_555
C36_3 C35_3 1_555 1_555
H22_3 C36_3 1_555 1_555
C37_3 C36_3 1_555 1_555
C40_3 C37_3 1_555 1_555
C58_3 C57_3 1_555 1_555
H35_3 C58_3 1_555 1_555
H36_3 C59_3 1_555 1_555
C60_3 C57_3 1_555 1_555
Cd1_2 Cl1_3 1_555 1_555
Cd6 Cl2_3 1_555 1_555
Cd8 O7_3 1_555 1_555
O7_3 C40_3 1_555 1_555
O8_3 C40_3 1_555 1_555
O11_2 C60_3 1_555 1_555
O12_2 C60_3 1_555 1_555
Cd12 O11_2 1_555 1_555
N17_2 Cd8 1_555 1_555
C58_3 C59_3 1_555 1_555
Cd1_2 N2_3 1_555 1_555
Cd6 O6_3 1_555 1_555
Cd6 O9_3 1_555 1_555
Cd8 O8_3 1_555 1_555
O12_2 Cd12 1_555 1_555
C41_3 C42_3 1_555 1_555
C42_3 C43_3 1_555 1_555
C43_3 H25_3 1_555 1_555
C44_3 C43_3 1_555 1_555
H26_3 C44_3 1_555 1_555
C45_3 C44_3 1_555 1_555
C46_3 C45_3 1_555 1_555
H27_3 C46_3 1_555 1_555
C47_3 C42_3 1_555 1_555
H28_3 C47_3 1_555 1_555
C48_3 H29_3 1_555 1_555
C49_3 C48_3 1_555 1_555
H30_3 C49_3 1_555 1_555
C50_3 C51_3 1_555 1_555
C51_3 N17 1_555 1_555
C52_3 H31_3 1_555 1_555
C53_3 C52_3 1_555 1_555
C54_3 C55_3 1_555 1_555
C55_3 H33_3 1_555 1_555
C56_3 C55_3 1_555 1_555
H34_3 C56_3 1_555 1_555
C61_3 H37_3 1_555 1_555
C62_3 H38_3 1_555 1_555
H39_3 C62_3 1_555 1_555
H40_3 C62_3 1_555 1_555
C63_3 H41_3 1_555 1_555
H42_3 C63_3 1_555 1_555
H43_3 C63_3 1_555 1_555
Cd11 N10_3 1_555 1_555
N9_3 C45_3 1_555 1_555
N10_3 C49_3 1_555 1_555
N17 C52_3 1_555 1_555
N12_3 C51_3 1_555 1_555
N13_3 C61_3 1_555 1_555
O18 C41_3 1_555 1_555
O13_3 C61_3 1_555 1_555
Cd6_2 N3_2 1_555 1_555
C46_3 C47_3 1_555 1_555
C48_3 N9_3 1_555 1_555
C50_3 N9_3 1_555 1_555
C50_3 N10_3 1_555 1_555
C53_3 N12_3 1_555 1_555
C54_3 N12_3 1_555 1_555
C62_3 N13_3 1_555 1_555
C63_3 N13_3 1_555 1_555
C50_4 C51_4 1_555 1_555
C51_4 N11_3 1_555 1_555
C52_4 H31_4 1_555 1_555
C53_4 C52_4 1_555 1_555
Cd4_3 N10_4 1_555 1_555
N11_3 C52_4 1_555 1_555
N12_4 C51_4 1_555 1_555
Cd9_2 N11_3 1_555 1_555
N16_3 Cd4_3 1_555 1_555
O17_3 Cd4_3 1_555 1_555
O19_3 Cd4_3 1_555 1_555
O20_3 Cd4_3 1_555 1_555
C50_4 N10_4 1_555 1_555
C53_4 N12_4 1_555 1_555
C41_4 C42_4 1_555 1_555
C42_4 C43_4 1_555 1_555
C43_4 H25_4 1_555 1_555
C44_4 C43_4 1_555 1_555
H26_4 C44_4 1_555 1_555
C45_4 C44_4 1_555 1_555
C46_4 C45_4 1_555 1_555
C47_4 C42_4 1_555 1_555
H28_4 C47_4 1_555 1_555
C48_4 H29_4 1_555 1_555
C49_4 C48_4 1_555 1_555
H30_4 C49_4 1_555 1_555
C54_4 C55_4 1_555 1_555
C55_4 H33_4 1_555 1_555
C56_4 C55_4 1_555 1_555
H34_4 C56_4 1_555 1_555
C61_4 H37_4 1_555 1_555
C62_4 H38_4 1_555 1_555
H39_4 C62_4 1_555 1_555
H40_4 C62_4 1_555 1_555
C63_4 H41_4 1_555 1_555
H42_4 C63_4 1_555 1_555
H43_4 C63_4 1_555 1_555
N9_4 C45_4 1_555 1_555
N13_4 C61_4 1_555 1_555
O10_3 C41_4 1_555 1_555
O13_4 C61_4 1_555 1_555
C46_4 C47_4 1_555 1_555
C48_4 N9_4 1_555 1_555
C62_4 N13_4 1_555 1_555
C63_4 N13_4 1_555 1_555
C35_4 H21_4 1_555 1_555
C36_4 C35_4 1_555 1_555
H22_4 C36_4 1_555 1_555
C37_4 C36_4 1_555 1_555
C40_4 C37_4 1_555 1_555
C58_4 C57_4 1_555 1_555
H35_4 C58_4 1_555 1_555
H36_4 C59_4 1_555 1_555
C60_4 C57_4 1_555 1_555
Cd5_2 Cl1_4 1_555 1_555
Cd2_3 Cl2_4 1_555 1_555
Cd7_2 O7_4 1_555 1_555
O7_4 C40_4 1_555 1_555
O8_4 C40_4 1_555 1_555
O19_2 C60_4 1_555 1_555
O20_2 C60_4 1_555 1_555
N15_3 Cd7_2 1_555 1_555
O14_3 Cd7_2 1_555 1_555
O15_3 Cd7_2 1_555 1_555
C58_4 C59_4 1_555 1_555
Cd5_2 N2_4 1_555 1_555
Cd2_3 O6_4 1_555 1_555
Cd2_3 O9_4 1_555 1_555
Cd7_2 O8_4 1_555 1_555
C1_4 C2_4 1_555 1_555
C2_4 C3_4 1_555 1_555
C3_4 H1_4 1_555 1_555
C4_4 C3_4 1_555 1_555
H2_4 C4_4 1_555 1_555
C5_4 C4_4 1_555 1_555
C6_4 C5_4 1_555 1_555
H3_4 C6_4 1_555 1_555
C7_4 C2_4 1_555 1_555
H4_4 C7_4 1_555 1_555
C8_4 H5_4 1_555 1_555
C9_4 C8_4 1_555 1_555
C14_4 C15_4 1_555 1_555
C15_4 H9_4 1_555 1_555
C16_4 C15_4 1_555 1_555
H10_4 C16_4 1_555 1_555
C17_4 C16_4 1_555 1_555
C18_4 C17_4 1_555 1_555
H11_4 C18_4 1_555 1_555
C19_4 C14_4 1_555 1_555
H12_4 C19_4 1_555 1_555
C20_4 C17_4 1_555 1_555
C21_4 C22_4 1_555 1_555
C22_4 C23_4 1_555 1_555
C23_4 H13_4 1_555 1_555
C24_4 C23_4 1_555 1_555
H14_4 C24_4 1_555 1_555
C25_4 C24_4 1_555 1_555
C26_4 C25_4 1_555 1_555
H15_4 C26_4 1_555 1_555
C27_4 C22_4 1_555 1_555
H16_4 C27_4 1_555 1_555
C28_4 H17_4 1_555 1_555
C29_4 C28_4 1_555 1_555
H18_4 C29_4 1_555 1_555
C30_4 C31_4 1_555 1_555
C31_4 N16 1_555 1_555
C32_4 H19_4 1_555 1_555
C33_4 C32_4 1_555 1_555
H23_4 C38_4 1_555 1_555
C39_4 C34_4 1_555 1_555
H24_4 C39_4 1_555 1_555
N1_4 C5_4 1_555 1_555
N5_4 C25_4 1_555 1_555
N15_2 C29_4 1_555 1_555
N16 C32_4 1_555 1_555
N8_4 C31_4 1_555 1_555
O14 C1_4 1_555 1_555
O15 C1_4 1_555 1_555
O16_2 C20_4 1_555 1_555
O17_2 C20_4 1_555 1_555
O5_4 C21_4 1_555 1_555
C6_4 C7_4 1_555 1_555
C8_4 N1_4 1_555 1_555
C10_4 N1_4 1_555 1_555
C18_4 C19_4 1_555 1_555
C26_4 C27_4 1_555 1_555
C28_4 N5_4 1_555 1_555
C30_4 N5_4 1_555 1_555
C30_4 N15_2 1_555 1_555
C33_4 N8_4 1_555 1_555
C34_4 N8_4 1_555 1_555
C38_4 C39_4 1_555 1_555
C3_5 H1_5 1_555 1_555
C4_5 C3_5 1_555 1_555
C5_5 C4_5 1_555 1_555
C6_5 C5_5 1_555 1_555
H3_5 C6_5 1_555 1_555
C13_3 C12_3 1_555 1_555
H8_3 C13_3 1_555 1_555
C14_5 C15_5 1_555 1_555
C15_5 H9_5 1_555 1_555
C16_5 C15_5 1_555 1_555
H10_5 C16_5 1_555 1_555
C17_5 C16_5 1_555 1_555
C18_5 C17_5 1_555 1_555
H11_5 C18_5 1_555 1_555
C19_5 C14_5 1_555 1_555
H12_5 C19_5 1_555 1_555
C20_5 C17_5 1_555 1_555
N4_3 C11_3 1_555 1_555
O3_3 C20_5 1_555 1_555
O4_3 C20_5 1_555 1_555
Cd12_2 O3_3 1_555 1_555
C13_3 N4_3 1_555 1_555
C14_5 N4_3 1_555 1_555
C18_5 C19_5 1_555 1_555
O4_3 Cd12_2 1_555 1_555
C1_5 C2_5 1_555 1_555
C7_5 C2_5 1_555 1_555
H4_5 C7_5 1_555 1_555
O14_3 C1_5 1_555 1_555
O15_3 C1_5 1_555 1_555
C8_5 H5_5 1_555 1_555
C9_5 C8_5 1_555 1_555
C21_5 C22_5 1_555 1_555
C22_5 C23_5 1_555 1_555
C23_5 H13_5 1_555 1_555
C24_5 C23_5 1_555 1_555
H14_5 C24_5 1_555 1_555
C25_5 C24_5 1_555 1_555
C26_5 C25_5 1_555 1_555
H15_5 C26_5 1_555 1_555
C27_5 C22_5 1_555 1_555
H16_5 C27_5 1_555 1_555
C28_5 H17_5 1_555 1_555
C29_5 C28_5 1_555 1_555
H18_5 C29_5 1_555 1_555
C30_5 C31_5 1_555 1_555
C31_5 N16_3 1_555 1_555
C32_5 H19_5 1_555 1_555
C33_5 C32_5 1_555 1_555
H23_5 C38_5 1_555 1_555
C39_5 C34_5 1_555 1_555
H24_5 C39_5 1_555 1_555
N5_5 C25_5 1_555 1_555
N6_3 C29_5 1_555 1_555
N16_3 C32_5 1_555 1_555
N8_5 C31_5 1_555 1_555
O5_5 C21_5 1_555 1_555
Cd9_2 N6_3 1_555 1_555
C8_5 N1_5 1_555 1_555
C10_5 N1_5 1_555 1_555
C26_5 C27_5 1_555 1_555
C28_5 N5_5 1_555 1_555
C30_5 N5_5 1_555 1_555
C30_5 N6_3 1_555 1_555
C33_5 N8_5 1_555 1_555
C34_5 N8_5 1_555 1_555
C38_5 C39_5 1_555 1_555
C35_5 H21_5 1_555 1_555
C36_5 C35_5 1_555 1_555
H22_5 C36_5 1_555 1_555
C37_5 C36_5 1_555 1_555
C40_5 C37_5 1_555 1_555
C41_5 C42_5 1_555 1_555
C42_5 C43_5 1_555 1_555
C43_5 H25_5 1_555 1_555
C44_5 C43_5 1_555 1_555
H26_5 C44_5 1_555 1_555
C45_5 C44_5 1_555 1_555
C46_5 C45_5 1_555 1_555
H27_5 C46_5 1_555 1_555
C47_5 C42_5 1_555 1_555
H28_5 C47_5 1_555 1_555
C48_5 H29_5 1_555 1_555
C49_5 C48_5 1_555 1_555
H30_5 C49_5 1_555 1_555
C50_5 C51_5 1_555 1_555
C51_5 N17_2 1_555 1_555
C52_5 H31_5 1_555 1_555
C53_5 C52_5 1_555 1_555
H32_4 C53_5 1_555 1_555
C54_5 C55_5 1_555 1_555
C55_5 H33_5 1_555 1_555
C56_5 C55_5 1_555 1_555
H34_5 C56_5 1_555 1_555
C57_5 C56_5 1_555 1_555
C58_5 C57_5 1_555 1_555
H35_5 C58_5 1_555 1_555
C59_5 C54_5 1_555 1_555
H36_5 C59_5 1_555 1_555
C60_5 C57_5 1_555 1_555
C61_5 H37_5 1_555 1_555
C62_5 H38_5 1_555 1_555
H39_5 C62_5 1_555 1_555
H40_5 C62_5 1_555 1_555
C63_5 H41_5 1_555 1_555
H42_5 C63_5 1_555 1_555
H43_5 C63_5 1_555 1_555
Cd1_3 Cl1_5 1_555 1_555
Cd6_2 Cl2_5 1_555 1_555
Cd9 O7_5 1_555 1_555
Cd12 N10_5 1_555 1_555
N9_5 C45_5 1_555 1_555
N10_5 C49_5 1_555 1_555
N17_2 C52_5 1_555 1_555
N12_5 C51_5 1_555 1_555
N13_5 C61_5 1_555 1_555
O7_5 C40_5 1_555 1_555
O8_5 C40_5 1_555 1_555
O9_5 C41_5 1_555 1_555
O18_2 C41_5 1_555 1_555
O11_3 C60_5 1_555 1_555
O12_3 C60_5 1_555 1_555
O13_5 C61_5 1_555 1_555
Cd12_2 O11_3 1_555 1_555
N17_3 Cd9 1_555 1_555
C46_5 C47_5 1_555 1_555
C48_5 N9_5 1_555 1_555
C50_5 N9_5 1_555 1_555
C50_5 N10_5 1_555 1_555
C53_5 N12_5 1_555 1_555
C54_5 N12_5 1_555 1_555
C58_5 C59_5 1_555 1_555
C62_5 N13_5 1_555 1_555
C63_5 N13_5 1_555 1_555
Cd1_3 N2_5 1_555 1_555
Cd1_3 O13_5 1_555 1_555
Cd6_2 O6_5 1_555 1_555
Cd6_2 O9_5 1_555 1_555
Cd6_2 O13_5 1_555 1_555
Cd9 O8_5 1_555 1_555
O12_3 Cd12_2 1_555 1_555
C11_4 N14_3 1_555 1_555
C12_4 H7_6 1_555 1_555
C13_4 C12_4 1_555 1_555
H8_4 C13_4 1_555 1_555
N14_3 C12_4 1_555 1_555
N4_4 C11_4 1_555 1_555
C13_4 N4_4 1_555 1_555
C1_6 C2_6 1_555 1_555
C2_6 C3_6 1_555 1_555
C3_6 H1_6 1_555 1_555
C4_6 C3_6 1_555 1_555
C5_6 C4_6 1_555 1_555
C6_6 C5_6 1_555 1_555
H3_6 C6_6 1_555 1_555
C7_6 C2_6 1_555 1_555
H4_6 C7_6 1_555 1_555
C14_6 C15_6 1_555 1_555
C15_6 H9_6 1_555 1_555
C16_6 C15_6 1_555 1_555
H10_6 C16_6 1_555 1_555
C17_6 C16_6 1_555 1_555
C18_6 C17_6 1_555 1_555
H11_6 C18_6 1_555 1_555
C19_6 C14_6 1_555 1_555
H12_6 C19_6 1_555 1_555
C20_6 C17_6 1_555 1_555
O14_2 C1_6 1_555 1_555
O15_2 C1_6 1_555 1_555
O16_3 C20_6 1_555 1_555
C6_6 C7_6 1_555 1_555
C18_6 C19_6 1_555 1_555
C41_6 C42_6 1_555 1_555
C42_6 C43_6 1_555 1_555
C43_6 H25_6 1_555 1_555
C44_6 C43_6 1_555 1_555
H26_6 C44_6 1_555 1_555
C45_6 C44_6 1_555 1_555
C46_6 C45_6 1_555 1_555
H27_6 C46_6 1_555 1_555
C47_6 C42_6 1_555 1_555
H28_6 C47_6 1_555 1_555
C48_6 H29_6 1_555 1_555
C49_6 C48_6 1_555 1_555
H30_6 C49_6 1_555 1_555
C50_6 C51_6 1_555 1_555
C51_6 N17_3 1_555 1_555
C52_6 H31_6 1_555 1_555
C53_6 C52_6 1_555 1_555
C54_6 C55_6 1_555 1_555
C55_6 H33_6 1_555 1_555
C56_6 C55_6 1_555 1_555
H34_6 C56_6 1_555 1_555
Cd12_2 N10_6 1_555 1_555
N9_6 C45_6 1_555 1_555
N10_6 C49_6 1_555 1_555
N17_3 C52_6 1_555 1_555
N12_6 C51_6 1_555 1_555
O18_3 C41_6 1_555 1_555
C46_6 C47_6 1_555 1_555
C48_6 N9_6 1_555 1_555
C50_6 N9_6 1_555 1_555
C50_6 N10_6 1_555 1_555
C53_6 N12_6 1_555 1_555
C54_6 N12_6 1_555 1_555
C62_6 H38_6 1_555 1_555
H39_6 C62_6 1_555 1_555
H40_6 C62_6 1_555 1_555
C63_6 H41_6 1_555 1_555
H42_6 C63_6 1_555 1_555
H43_6 C63_6 1_555 1_555
N13_6 C61_6 1_555 1_555
O13_6 C61_6 1_555 1_555
C62_6 N13_6 1_555 1_555
C63_6 N13_6 1_555 1_555
H15_6 C26_6 1_555 1_555
H16_6 C27_6 1_555 1_555
H22_6 C36_6 1_555 1_555
C37_6 C36_6 1_555 1_555
C38_6 C37_6 1_555 1_555
H23_6 C38_6 1_555 1_555
C40_6 C37_6 1_555 1_555
C58_6 C57_6 1_555 1_555
H35_6 C58_6 1_555 1_555
H36_6 C59_6 1_555 1_555
C60_6 C57_6 1_555 1_555
Cd6_3 Cl2_6 1_555 1_555
Cd9_2 O7_6 1_555 1_555
O6_6 C21_6 1_555 1_555
O7_6 C40_6 1_555 1_555
O8_6 C40_6 1_555 1_555
O19_3 C60_6 1_555 1_555
O20_3 C60_6 1_555 1_555
C26_6 C27_6 1_555 1_555
C58_6 C59_6 1_555 1_555
Cd6_3 O6_6 1_555 1_555
Cd6_3 O9_6 1_555 1_555
Cd9_2 O8_6 1_555 1_555
C8_6 H5_6 1_555 1_555
C9_6 C8_6 1_555 1_555
H6_6 C9_6 1_555 1_555
C22_6 C23_6 1_555 1_555
C23_6 H13_6 1_555 1_555
C24_6 C23_6 1_555 1_555
H14_6 C24_6 1_555 1_555
C25_6 C24_6 1_555 1_555
C28_6 H17_6 1_555 1_555
C29_6 C28_6 1_555 1_555
H18_6 C29_6 1_555 1_555
C30_6 C31_6 1_555 1_555
C31_6 N16_2 1_555 1_555
C32_6 H19_6 1_555 1_555
C33_6 C32_6 1_555 1_555
H20_6 C33_6 1_555 1_555
C34_6 C35_6 1_555 1_555
C35_6 H21_6 1_555 1_555
C39_6 C34_6 1_555 1_555
H24_6 C39_6 1_555 1_555
Cd5_3 Cl1_6 1_555 1_555
N2_6 C9_6 1_555 1_555
N5_6 C25_6 1_555 1_555
N15_3 C29_6 1_555 1_555
N16_2 C32_6 1_555 1_555
N8_6 C31_6 1_555 1_555
C8_6 N1_6 1_555 1_555
C10_6 N1_6 1_555 1_555
C10_6 N2_6 1_555 1_555
C28_6 N5_6 1_555 1_555
C30_6 N5_6 1_555 1_555
C30_6 N15_3 1_555 1_555
C33_6 N8_6 1_555 1_555
C34_6 N8_6 1_555 1_555
Cd5_3 N2_6 1_555 1_555
Cd5_3 O5_6 1_555 1_555
C13_5 C12_5 1_555 1_555
H8_5 C13_5 1_555 1_555
N4_5 C11_5 1_555 1_555
C13_5 N4_5 1_555 1_555
C13_6 C12_6 1_555 1_555
H8_6 C13_6 1_555 1_555
N4_6 C11_6 1_555 1_555
C13_6 N4_6 1_555 1_555

#END
