
###############################################################################
#
# This file contains modified crystal structure data generated from the
# MOF subset of the Cambridge Structural Database (CSD) v543 
# hosted by the Cambridge Crystallographic Data Centre (CCDC).
#
# This work is licensed under the Creative Commons
# Attribution-NonCommercial-ShareAlike 4.0 International License.
# To view a copy of this license, visit
# http://creativecommons.org/licenses/by-nc-sa/4.0/
# or send a letter to
# Creative Commons, PO Box 1866, Mountain View, CA 94042, USA.
#
# CIF created using the CSD Python API on 29 September 2022
# The structure has been converted into the P1 space group
# The structure has a 3D framework
# The original CSD entry HUYJOA is in the tetragonal crystal system
# The original CSD entry HUYJOA is in a Sohncke space group
# The framework has been calculated to contain at least 10.0% void space
# The void calculation uses a probe of radius 1.32A, grid spacing 0.4
# H atom positions have been added when not included in the experimental data
#
###############################################################################

data_HUYJOA
_chemical_formula_moiety         '(C272 H352 N24 Ni10 O88)n'
_symmetry_cell_setting           triclinic
_symmetry_space_group_name_H-M   'P 1'
_symmetry_Int_Tables_number      1
_space_group_name_Hall           'P 1'
loop_
_symmetry_equiv_pos_site_id
_symmetry_equiv_pos_as_xyz
1 x,y,z
_cell_length_a                   16.3116(14)
_cell_length_b                   16.3116(14)
_cell_length_c                   30.060(3)
_cell_angle_alpha                90
_cell_angle_beta                 90
_cell_angle_gamma                90
_cell_volume                     7998.01
loop_
_atom_site_label
_atom_site_type_symbol
_atom_site_fract_x
_atom_site_fract_y
_atom_site_fract_z
H40 H 0.0099 0.0025 0.0725
H39 H 0.0284 0.8620 0.0780
H17 H 0.0025 0.0099 0.1775
Ni5 Ni 0.26347(7) 0.01022(7) 0.49411(4)
Ni3 Ni 0.73653(7) 0.98978(7) 0.99411(4)
H32 H 0.6013 0.8618 0.9934
O24 O 0.7312(4) 0.9006(4) 0.9480(2)
H82 H 0.54368 0.98023 0.822405
H86 H 0.451134 0.99174 0.886843
H87 H 0.592203 0.963691 0.918623
H88 H 0.514225 0.997582 0.955652
C15 C 0.8616(6) 0.6137(5) 0.2264(3)
H9 H 0.8618 0.6013 0.2566
C16 C 0.8078(6) 0.5709(6) 0.1999(4)
H10 H 0.7735 0.5311 0.2119
C17 C 0.8060(7) 0.5886(8) 0.1551(4)
H11 H 0.7711 0.5608 0.1358
C18 C 0.8583(9) 0.6493(9) 0.1399(4)
H12 H 0.8590 0.6642 0.1100
C19 C 0.9092(7) 0.6872(8) 0.1700(4)
H13 H 0.9440 0.7277 0.1593
C20 C 0.8614(8) 0.8605(8) 0.2254(4)
H14 H 0.8245 0.8233 0.2375
C21 C 0.8324(9) 0.9280(9) 0.2041(5)
H15 H 0.7761 0.9360 0.2019
C22 C 0.8830(9) 0.9826(13) 0.1865(4)
C23 C 0.9662(8) 0.9719(10) 0.1895(4)
C24 C 0.9938(6) 0.9029(7) 0.2111(4)
N2 N 0.9127(5) 0.6707(5) 0.2127(3)
N3 N 0.9446(5) 0.8459(5) 0.2296(3)
Ni2 Ni 0.98978(7) 0.73653(7) 0.25589(4)
O23 O 0.9006(4) 0.7312(4) 0.3020(2)
H52 H 0.963691 0.592203 0.331377
H53 H 0.997582 0.514225 0.294348
H54 H 0.98023 0.54368 0.427595
H59 H 0.99174 0.451134 0.363157
C29 C 0.4308(8) 0.0157(7) 0.0624(4)
C30 C 0.4548(9) 0.0833(8) 0.0955(4)
C31 C 0.5248(11) 0.0502(11) 0.1248(7)
C32 C 0.472(3) 0.042(2) 0.1668(11)
C33 C 0.2183(9) 0.1364(13) 0.0663(7)
C34 C 0.1615(17) 0.1752(15) 0.1005(2)
O8 O 0.3713(4) 0.0372(4) 0.0313(2)
H20 H 0.3781 0.0851 0.0237
O9 O 0.1889(4) 0.0622(4) 0.0487(2)
H21 H 0.1858 0.0280 0.0686
O11 O 0.548(2) 0.075(2) 0.1820(10)
C35 C 0.1752(15) 0.1615(17) 0.1495(2)
C36 C 0.1364(13) 0.2183(9) 0.1837(7)
O12 O 0.0622(4) 0.1889(4) 0.2013(2)
H22 H 0.0280 0.1858 0.1814
H25 H 0.7261 0.2888 0.0004
H46 H 0.277215 0.124727 0.08212
H47 H 0.226513 0.179542 0.0390137
H48 H 0.0999762 0.153106 0.0931416
H49 H 0.16415 0.241165 0.095108
H50 H 0.402317 0.0991367 0.116176
H51 H 0.475398 0.137475 0.0775187
H55 H 0.41814 0.081188 0.169266
H58 H 0.574983 0.093647 0.128683
H64 H 0.241165 0.16415 0.154892
H65 H 0.153106 0.0999762 0.156858
H66 H 0.124727 0.277215 0.16788
H67 H 0.179542 0.226513 0.210986
H69 H 0.558261 0.128393 0.167141
H71 H 0.237927 0.621739 0.0335076
H78 H 0.381259 0.535503 0.00301406
C1 C 0.3674(5) 0.3844(5) 0.8587(3)
C2 C 0.3156(5) 0.3134(5) 0.8703(3)
C3 C 0.3378(5) 0.2558(5) 0.9023(3)
H1 H 0.3876 0.2620 0.9170
C4 C 0.2888(5) 0.1902(5) 0.9130(3)
C5 C 0.3126(7) 0.1314(6) 0.9491(3)
C6 C 0.2142(5) 0.1827(5) 0.8918(3)
H2 H 0.1797 0.1395 0.8994
C7 C 0.1899(5) 0.2372(5) 0.8599(3)
C8 C 0.1078(6) 0.2272(6) 0.8370(4)
C9 C 0.2413(5) 0.3036(5) 0.8492(3)
H3 H 0.2250 0.3411 0.8276
C10 C 0.5813(8) 0.3218(7) 0.8258(4)
H4 H 0.5470 0.2970 0.8466
C11 C 0.6200(10) 0.2730(8) 0.7961(5)
H5 H 0.6060 0.2180 0.7937
C12 C 0.6812(9) 0.3062(9) 0.7692(4)
H6 H 0.7112 0.2739 0.7496
C13 C 0.6948(7) 0.3879(7) 0.7730(3)
H7 H 0.7360 0.4122 0.7561
C14 C 0.6486(6) 0.4353(6) 0.8015(3)
H8 H 0.6587 0.4913 0.8029
H18 H 0.1050 0.0502 0.9630
C25 C 0.4470(10) 0.6174(9) 0.8195(5)
C26 C 0.4197(9) 0.6353(8) 0.7723(4)
C27 C 0.4173(13) 0.7260(11) 0.7831(7)
C28 C 0.3608(14) 0.7699(18) 0.7512(9)
N1 N 0.5891(5) 0.4032(5) 0.8273(3)
O1 O 0.4375(3) 0.3872(3) 0.8781(2)
O2 O 0.3408(4) 0.4375(4) 0.8318(2)
O3 O 0.3848(4) 0.1377(4) 0.9662(2)
O4 O 0.2604(4) 0.0792(4) 0.9614(2)
O5 O 0.0994(4) 0.2688(4) 0.8020(2)
O6 O 0.0595(5) 0.1760(5) 0.8514(3)
O7 O 0.4617(4) 0.5364(4) 0.8261(2)
H19 H 0.415(3) 0.520(7) 0.819(4)
O10 O 0.3808(11) 0.8547(14) 0.7693(6)
Ni1 Ni 0.52634(7) 0.47366(7) 0.8750
C37 C 0.6782(7) 0.4187(8) 0.9242(4)
H23 H 0.7030 0.4530 0.9034
C38 C 0.7270(8) 0.3800(10) 0.9539(5)
H24 H 0.7820 0.3940 0.9563
C39 C 0.6938(9) 0.3188(9) 0.9808(4)
C40 C 0.6121(7) 0.3052(7) 0.9770(3)
H26 H 0.5878 0.2640 0.9939
C41 C 0.5647(6) 0.3514(6) 0.9485(3)
H27 H 0.5087 0.3413 0.9471
N4 N 0.5968(5) 0.4109(5) 0.9227(3)
C42 C 0.6156(5) 0.6326(5) 0.8913(3)
C43 C 0.6866(5) 0.6844(5) 0.8797(3)
C44 C 0.7442(5) 0.6622(5) 0.8477(3)
H28 H 0.7380 0.6124 0.8330
C45 C 0.8098(5) 0.7112(5) 0.8370(3)
C46 C 0.8686(6) 0.6874(7) 0.8009(3)
C47 C 0.8173(5) 0.7858(5) 0.8582(3)
H29 H 0.8605 0.8203 0.8506
C48 C 0.7628(5) 0.8101(5) 0.8901(3)
C49 C 0.7728(6) 0.8922(6) 0.9130(4)
C50 C 0.6964(5) 0.7587(5) 0.9008(3)
H30 H 0.6589 0.7750 0.9224
O13 O 0.6128(3) 0.5625(3) 0.8719(2)
O14 O 0.5625(4) 0.6592(4) 0.9182(2)
O15 O 0.8623(4) 0.6152(4) 0.7838(2)
O16 O 0.9208(4) 0.7396(4) 0.7886(2)
O18 O 0.8240(5) 0.9405(5) 0.8986(3)
C51 C 0.3826(9) 0.5530(10) 0.9305(5)
C52 C 0.3647(8) 0.5803(9) 0.9777(4)
C53 C 0.2740(11) 0.5827(13) 0.9669(7)
C54 C 0.2301(18) 0.6392(14) 0.9988(9)
O19 O 0.4636(4) 0.5383(4) 0.9239(2)
H31 H 0.480(7) 0.585(3) 0.931(4)
O20 O 0.1453(14) 0.6192(11) 0.9807(6)
H41 H 0.9498 0.8950 0.7870
C65 C 0.9843(7) 0.5692(8) 0.6876(4)
C66 C 0.9167(8) 0.5452(9) 0.6545(4)
C67 C 0.9498(11) 0.4752(11) 0.6252(7)
C68 C 0.958(2) 0.528(3) 0.5832(11)
O21 O 0.9628(4) 0.6287(4) 0.7187(2)
H42 H 0.9149 0.6219 0.7263
O22 O 0.925(2) 0.452(2) 0.5680(10)
Ni4 Ni 0.01022(7) 0.26347(7) 0.75589(4)
O25 O 0.9378(4) 0.8111(4) 0.7013(2)
H43 H 0.9720 0.8142 0.6814
H44 H 0.399085 0.637139 0.84234
H45 H 0.503004 0.651546 0.826251
H56 H 0.36033 0.609239 0.763665
H57 H 0.464497 0.618741 0.746986
H60 H 0.296654 0.753103 0.755418
H61 H 0.378261 0.762073 0.716492
H62 H 0.478802 0.751425 0.780217
H63 H 0.395081 0.734351 0.816961
H68 H 0.440364 0.865506 0.765811
H70 H 0.246897 0.703346 0.994582
H72 H 0.134494 0.559636 0.984189
H73 H 0.248575 0.521198 0.969783
H74 H 0.265649 0.604919 0.933039
H75 H 0.362861 0.600915 0.90766
H76 H 0.348454 0.496996 0.923749
H77 H 0.390761 0.63967 0.986335
H79 H 0.924422 0.865235 0.714553
H80 H 0.900863 0.597683 0.633824
H81 H 0.862525 0.524602 0.672481
H83 H 0.918812 0.58186 0.580734
H84 H 0.871607 0.441739 0.582859
H85 H 0.906353 0.425017 0.621317
C15_2 C 0.1384(6) 0.3863(5) 0.7264(3)
H9_2 H 0.1382 0.3987 0.7566
C16_2 C 0.1922(6) 0.4291(6) 0.6999(4)
H10_2 H 0.2265 0.4689 0.7119
C17_2 C 0.1940(7) 0.4114(8) 0.6551(4)
H11_2 H 0.2289 0.4392 0.6358
C18_2 C 0.1417(9) 0.3507(9) 0.6399(4)
H12_2 H 0.1410 0.3358 0.6100
C19_2 C 0.0908(7) 0.3128(8) 0.6700(4)
H13_2 H 0.0560 0.2723 0.6593
C20_2 C 0.1386(8) 0.1395(8) 0.7254(4)
H14_2 H 0.1755 0.1767 0.7375
C21_2 C 0.1676(9) 0.0720(9) 0.7041(5)
H15_2 H 0.2239 0.0640 0.7019
C22_2 C 0.1170(9) 0.0174(13) 0.6865(4)
C23_2 C 0.0338(8) 0.0281(10) 0.6895(4)
C24_2 C 0.0062(6) 0.0971(7) 0.7111(4)
N2_2 N 0.0873(5) 0.3293(5) 0.7127(3)
N3_2 N 0.0554(5) 0.1541(5) 0.7296(3)
H52_2 H 0.0363094 0.407797 0.831377
H53_2 H 0.00241792 0.485775 0.794348
H54_2 H 0.0197703 0.45632 0.927595
H59_2 H 0.00826043 0.548866 0.863157
C55 C 0.3863(5) 0.1384(6) 0.5236(3)
H32_2 H 0.3987 0.1382 0.4934
C56 C 0.4291(6) 0.1922(6) 0.5501(4)
H33 H 0.4689 0.2265 0.5381
C57 C 0.4114(8) 0.1940(7) 0.5949(4)
H34 H 0.4392 0.2289 0.6142
C58 C 0.3507(9) 0.1417(9) 0.6101(4)
H35 H 0.3358 0.1410 0.6400
C59 C 0.3128(8) 0.0908(7) 0.5800(4)
H36 H 0.2723 0.0560 0.5907
N5 N 0.3293(5) 0.0873(5) 0.5373(3)
C60 C 0.1395(8) 0.1386(8) 0.5246(4)
H37 H 0.1767 0.1755 0.5125
C61 C 0.0720(9) 0.1676(9) 0.5459(5)
H38 H 0.0640 0.2239 0.5481
C62 C 0.0174(13) 0.1170(9) 0.5635(4)
C63 C 0.0281(10) 0.0338(8) 0.5605(4)
C64 C 0.0971(7) 0.0062(6) 0.5389(4)
N6 N 0.1541(5) 0.0554(5) 0.5204(3)
O24_2 O 0.2688(4) 0.0994(4) 0.4480(2)
H82_2 H 0.45632 0.0197703 0.322405
H86_2 H 0.548866 0.00826043 0.386843
H87_2 H 0.407797 0.0363094 0.418623
H88_2 H 0.485775 0.00241792 0.455652
H17_2 H 0.9975 0.9901 0.6775
H40_2 H 0.9901 0.9975 0.5725
C1_2 C 0.6326(5) 0.6156(5) 0.3587(3)
C2_2 C 0.6844(5) 0.6866(5) 0.3703(3)
C3_2 C 0.6622(5) 0.7442(5) 0.4023(3)
H1_2 H 0.6124 0.7380 0.4170
C4_2 C 0.7112(5) 0.8098(5) 0.4130(3)
C5_2 C 0.6874(7) 0.8686(6) 0.4491(3)
C6_2 C 0.7858(5) 0.8173(5) 0.3918(3)
H2_2 H 0.8203 0.8605 0.3994
C7_2 C 0.8101(5) 0.7628(5) 0.3599(3)
C8_2 C 0.8922(6) 0.7728(6) 0.3370(4)
C9_2 C 0.7587(5) 0.6964(5) 0.3492(3)
H3_2 H 0.7750 0.6589 0.3276
C10_2 C 0.4187(8) 0.6782(7) 0.3258(4)
H4_2 H 0.4530 0.7030 0.3466
C11_2 C 0.3800(10) 0.7270(8) 0.2961(5)
H5_2 H 0.3940 0.7820 0.2937
C12_2 C 0.3188(9) 0.6938(9) 0.2692(4)
H6_2 H 0.2888 0.7261 0.2496
C13_2 C 0.3052(7) 0.6121(7) 0.2730(3)
H7_2 H 0.2640 0.5878 0.2561
C14_2 C 0.3514(6) 0.5647(6) 0.3015(3)
H8_2 H 0.3413 0.5087 0.3029
H18_2 H 0.8950 0.9498 0.4630
C25_2 C 0.5530(10) 0.3826(9) 0.3195(5)
C26_2 C 0.5803(9) 0.3647(8) 0.2723(4)
C27_2 C 0.5827(13) 0.2740(11) 0.2831(7)
C28_2 C 0.6392(14) 0.2301(18) 0.2512(9)
C29_2 C 0.5692(8) 0.9843(7) 0.5624(4)
C30_2 C 0.5452(9) 0.9167(8) 0.5955(4)
C31_2 C 0.4752(11) 0.9498(11) 0.6248(7)
C32_2 C 0.528(3) 0.958(2) 0.6668(11)
C33_2 C 0.7817(9) 0.8636(13) 0.5663(7)
C34_2 C 0.8385(17) 0.8248(15) 0.6005(2)
N1_2 N 0.4109(5) 0.5968(5) 0.3273(3)
O1_2 O 0.5625(3) 0.6128(3) 0.3781(2)
O2_2 O 0.6592(4) 0.5625(4) 0.3318(2)
O3_2 O 0.6152(4) 0.8623(4) 0.4662(2)
O4_2 O 0.7396(4) 0.9208(4) 0.4614(2)
O6_2 O 0.9405(5) 0.8240(5) 0.3514(3)
O7_2 O 0.5383(4) 0.4636(4) 0.3261(2)
H19_2 H 0.585(3) 0.480(7) 0.319(4)
O8_2 O 0.6287(4) 0.9628(4) 0.5313(2)
H20_2 H 0.6219 0.9149 0.5237
O9_2 O 0.8111(4) 0.9378(4) 0.5487(2)
H21_2 H 0.8142 0.9720 0.5686
O10_2 O 0.6192(11) 0.1453(14) 0.2693(6)
O11_2 O 0.452(2) 0.925(2) 0.6820(10)
Ni1_2 Ni 0.47366(7) 0.52634(7) 0.3750
C35_2 C 0.8248(15) 0.8385(17) 0.6495(2)
C36_2 C 0.8636(13) 0.7817(9) 0.6837(7)
C37_2 C 0.3218(7) 0.5813(8) 0.4242(4)
H23_2 H 0.2970 0.5470 0.4034
C38_2 C 0.2730(8) 0.6200(10) 0.4539(5)
H24_2 H 0.2180 0.6060 0.4563
C39_2 C 0.3062(9) 0.6812(9) 0.4808(4)
H25_2 H 0.2739 0.7112 0.5004
C40_2 C 0.3879(7) 0.6948(7) 0.4770(3)
H26_2 H 0.4122 0.7360 0.4939
C41_2 C 0.4353(6) 0.6486(6) 0.4485(3)
H27_2 H 0.4913 0.6587 0.4471
N4_2 N 0.4032(5) 0.5891(5) 0.4227(3)
C42_2 C 0.3844(5) 0.3674(5) 0.3913(3)
C43_2 C 0.3134(5) 0.3156(5) 0.3797(3)
C44_2 C 0.2558(5) 0.3378(5) 0.3477(3)
H28_2 H 0.2620 0.3876 0.3330
C45_2 C 0.1902(5) 0.2888(5) 0.3370(3)
C46_2 C 0.1314(6) 0.3126(7) 0.3009(3)
C47_2 C 0.1827(5) 0.2142(5) 0.3582(3)
H29_2 H 0.1395 0.1797 0.3506
C48_2 C 0.2372(5) 0.1899(5) 0.3901(3)
C49_2 C 0.2272(6) 0.1078(6) 0.4130(4)
C50_2 C 0.3036(5) 0.2413(5) 0.4008(3)
H30_2 H 0.3411 0.2250 0.4224
O13_2 O 0.3872(3) 0.4375(3) 0.3719(2)
O14_2 O 0.4375(4) 0.3408(4) 0.4182(2)
O15_2 O 0.1377(4) 0.3848(4) 0.2838(2)
O16_2 O 0.0792(4) 0.2604(4) 0.2886(2)
O18_2 O 0.1760(5) 0.0595(5) 0.3986(3)
C51_2 C 0.6174(9) 0.4470(10) 0.4305(5)
C52_2 C 0.6353(8) 0.4197(9) 0.4777(4)
C53_2 C 0.7260(11) 0.4173(13) 0.4669(7)
C54_2 C 0.7699(18) 0.3608(14) 0.4988(9)
O19_2 O 0.5364(4) 0.4617(4) 0.4239(2)
H31_2 H 0.520(7) 0.415(3) 0.431(4)
O20_2 O 0.8547(14) 0.3808(11) 0.4807(6)
H41_2 H 0.0502 0.1050 0.2870
C65_2 C 0.0157(7) 0.4308(8) 0.1876(4)
C66_2 C 0.0833(8) 0.4548(9) 0.1545(4)
C67_2 C 0.0502(11) 0.5248(11) 0.1252(7)
C68_2 C 0.042(2) 0.472(3) 0.0832(11)
O21_2 O 0.0372(4) 0.3713(4) 0.2187(2)
H42_2 H 0.0851 0.3781 0.2263
O22_2 O 0.075(2) 0.548(2) 0.0680(10)
H44_2 H 0.600915 0.362861 0.34234
H45_2 H 0.496996 0.348454 0.326251
H46_2 H 0.722785 0.875273 0.58212
H47_2 H 0.773487 0.820458 0.539014
H48_2 H 0.900024 0.846894 0.593142
H49_2 H 0.83585 0.758835 0.595108
H50_2 H 0.597683 0.900863 0.616176
H51_2 H 0.524602 0.862525 0.577519
H55_2 H 0.58186 0.918812 0.669266
H56_2 H 0.63967 0.390761 0.263665
H57_2 H 0.535503 0.381259 0.246986
H58_2 H 0.425017 0.906353 0.628683
H60_2 H 0.703346 0.246897 0.255418
H61_2 H 0.621739 0.237927 0.216492
H62_2 H 0.521198 0.248575 0.280217
H63_2 H 0.604919 0.265649 0.316961
H64_2 H 0.758835 0.83585 0.654892
H65_2 H 0.846894 0.900024 0.656858
H66_2 H 0.875273 0.722785 0.66788
H67_2 H 0.820458 0.773487 0.710986
H68_2 H 0.559636 0.134494 0.265811
H69_2 H 0.441739 0.871607 0.667141
H70_2 H 0.753103 0.296654 0.494582
H71_2 H 0.762073 0.378261 0.533508
H72_2 H 0.865506 0.440364 0.484189
H73_2 H 0.751425 0.478802 0.469783
H74_2 H 0.734351 0.395081 0.433039
H75_2 H 0.637139 0.399085 0.40766
H76_2 H 0.651546 0.503004 0.423749
H77_2 H 0.609239 0.36033 0.486335
H78_2 H 0.618741 0.464497 0.503014
H79_2 H 0.0755779 0.134765 0.214553
H80_2 H 0.0991367 0.402317 0.133824
H81_2 H 0.137475 0.475398 0.172481
H83_2 H 0.081188 0.41814 0.0807338
H84_2 H 0.128393 0.558261 0.0828591
H85_2 H 0.093647 0.574983 0.121317
H79_3 H 0.134765 0.0755779 0.0354474
H79_4 H 0.865235 0.924422 0.535447
C1_3 C 0.3844(5) 0.6326(5) 0.1087(3)
C2_3 C 0.3134(5) 0.6844(5) 0.1203(3)
C3_3 C 0.2558(5) 0.6622(5) 0.1523(3)
H1_3 H 0.2620 0.6124 0.1670
C4_3 C 0.1902(5) 0.7112(5) 0.1630(3)
C5_3 C 0.1314(6) 0.6874(7) 0.1991(3)
C6_3 C 0.1827(5) 0.7858(5) 0.1418(3)
H2_3 H 0.1395 0.8203 0.1494
C7_3 C 0.2372(5) 0.8101(5) 0.1099(3)
C8_3 C 0.2272(6) 0.8922(6) 0.0870(4)
C9_3 C 0.3036(5) 0.7587(5) 0.0992(3)
H3_3 H 0.3411 0.7750 0.0776
C10_3 C 0.3218(7) 0.4187(8) 0.0758(4)
H4_3 H 0.2970 0.4530 0.0966
C11_3 C 0.2730(8) 0.3800(10) 0.0461(5)
H5_3 H 0.2180 0.3940 0.0437
C12_3 C 0.3062(9) 0.3188(9) 0.0192(4)
C13_3 C 0.3879(7) 0.3052(7) 0.0230(3)
H7_3 H 0.4122 0.2640 0.0061
C14_3 C 0.4353(6) 0.3514(6) 0.0515(3)
H8_3 H 0.4913 0.3413 0.0529
H18_3 H 0.0502 0.8950 0.2130
C25_3 C 0.6174(9) 0.5530(10) 0.0695(5)
C26_3 C 0.6353(8) 0.5803(9) 0.0223(4)
C27_3 C 0.7260(11) 0.5827(13) 0.0331(7)
C28_3 C 0.7699(18) 0.6392(14) 0.0012(9)
C29_3 C 0.0157(7) 0.5692(8) 0.3124(4)
C30_3 C 0.0833(8) 0.5452(9) 0.3455(4)
C31_3 C 0.0502(11) 0.4752(11) 0.3748(7)
C32_3 C 0.042(2) 0.528(3) 0.4168(11)
C33_3 C 0.1364(13) 0.7817(9) 0.3163(7)
C34_3 C 0.1752(15) 0.8385(17) 0.3505(2)
N1_3 N 0.4032(5) 0.4109(5) 0.0773(3)
O1_3 O 0.3872(3) 0.5625(3) 0.1281(2)
O2_3 O 0.4375(4) 0.6592(4) 0.0818(2)
O3_3 O 0.1377(4) 0.6152(4) 0.2162(2)
O4_3 O 0.0792(4) 0.7396(4) 0.2114(2)
O5_2 O 0.2688(4) 0.9006(4) 0.0520(2)
O6_3 O 0.1760(5) 0.9405(5) 0.1014(3)
O7_3 O 0.5364(4) 0.5383(4) 0.0761(2)
H19_3 H 0.520(7) 0.585(3) 0.069(4)
O8_3 O 0.0372(4) 0.6287(4) 0.2813(2)
H20_3 H 0.0851 0.6219 0.2737
O9_3 O 0.0622(4) 0.8111(4) 0.2987(2)
H21_3 H 0.0280 0.8142 0.3186
O10_3 O 0.8547(14) 0.6192(11) 0.0193(6)
O11_3 O 0.075(2) 0.452(2) 0.4320(10)
Ni1_3 Ni 0.47366(7) 0.47366(7) 0.1250
C35_3 C 0.1615(17) 0.8248(15) 0.3995(2)
C36_3 C 0.2183(9) 0.8636(13) 0.4337(7)
O12_2 O 0.1889(4) 0.9378(4) 0.4513(2)
H22_2 H 0.1858 0.9720 0.4314
C37_3 C 0.4187(8) 0.3218(7) 0.1742(4)
H23_3 H 0.4530 0.2970 0.1534
C38_3 C 0.3800(10) 0.2730(8) 0.2039(5)
H24_3 H 0.3940 0.2180 0.2063
C39_3 C 0.3188(9) 0.3062(9) 0.2308(4)
H25_3 H 0.2888 0.2739 0.2504
C40_3 C 0.3052(7) 0.3879(7) 0.2270(3)
H26_3 H 0.2640 0.4122 0.2439
C41_3 C 0.3514(6) 0.4353(6) 0.1985(3)
H27_3 H 0.3413 0.4913 0.1971
N4_3 N 0.4109(5) 0.4032(5) 0.1727(3)
C42_3 C 0.6326(5) 0.3844(5) 0.1413(3)
C43_3 C 0.6844(5) 0.3134(5) 0.1297(3)
C44_3 C 0.6622(5) 0.2558(5) 0.0977(3)
H28_3 H 0.6124 0.2620 0.0830
C45_3 C 0.7112(5) 0.1902(5) 0.0870(3)
C46_3 C 0.6874(7) 0.1314(6) 0.0509(3)
C47_3 C 0.7858(5) 0.1827(5) 0.1082(3)
H29_3 H 0.8203 0.1395 0.1006
C48_3 C 0.8101(5) 0.2372(5) 0.1401(3)
C49_3 C 0.8922(6) 0.2272(6) 0.1630(4)
C50_3 C 0.7587(5) 0.3036(5) 0.1508(3)
H30_3 H 0.7750 0.3411 0.1724
O13_3 O 0.5625(3) 0.3872(3) 0.1219(2)
O14_3 O 0.6592(4) 0.4375(4) 0.1682(2)
O15_3 O 0.6152(4) 0.1377(4) 0.0338(2)
O16_3 O 0.7396(4) 0.0792(4) 0.0386(2)
O17 O 0.9006(4) 0.2688(4) 0.1980(2)
O18_3 O 0.9405(5) 0.1760(5) 0.1486(3)
C51_3 C 0.5530(10) 0.6174(9) 0.1805(5)
C52_3 C 0.5803(9) 0.6353(8) 0.2277(4)
C53_3 C 0.5827(13) 0.7260(11) 0.2169(7)
C54_3 C 0.6392(14) 0.7699(18) 0.2488(9)
O19_3 O 0.5383(4) 0.5364(4) 0.1739(2)
H31_3 H 0.585(3) 0.520(7) 0.181(4)
O20_3 O 0.6192(11) 0.8547(14) 0.2307(6)
H41_3 H 0.8950 0.0502 0.0370
Ni4_2 Ni 0.26347(7) 0.98978(7) 0.00589(4)
Ni6 Ni 0.98978(7) 0.26347(7) 0.24411(4)
H44_3 H 0.637139 0.600915 0.0923405
H45_3 H 0.651546 0.496996 0.076251
H46_3 H 0.124727 0.722785 0.33212
H47_3 H 0.179542 0.773487 0.289014
H48_3 H 0.153106 0.900024 0.343142
H49_3 H 0.241165 0.83585 0.345108
H50_3 H 0.0991367 0.597683 0.366176
H51_3 H 0.137475 0.524602 0.327519
H55_3 H 0.081188 0.58186 0.419266
H56_3 H 0.609239 0.63967 0.0136655
H58_3 H 0.093647 0.425017 0.378683
H60_3 H 0.753103 0.703346 0.00541769
H62_3 H 0.751425 0.521198 0.0302169
H63_3 H 0.734351 0.604919 0.0669606
H64_3 H 0.16415 0.758835 0.404892
H65_3 H 0.0999762 0.846894 0.406858
H66_3 H 0.277215 0.875273 0.41788
H67_3 H 0.226513 0.820458 0.460986
H68_3 H 0.865506 0.559636 0.0158106
H69_3 H 0.128393 0.441739 0.417141
H70_3 H 0.703346 0.753103 0.244582
H71_3 H 0.621739 0.762073 0.283508
H72_3 H 0.559636 0.865506 0.234189
H73_3 H 0.521198 0.751425 0.219783
H74_3 H 0.604919 0.734351 0.183039
H75_3 H 0.600915 0.637139 0.15766
H76_3 H 0.496996 0.651546 0.173749
H77_3 H 0.63967 0.609239 0.236335
H78_3 H 0.535503 0.618741 0.253014
H6_3 H 0.2739 0.2888 0.9996
C65_3 C 0.5692(8) 0.0157(7) 0.9376(4)
C66_3 C 0.5452(9) 0.0833(8) 0.9045(4)
C67_3 C 0.4752(11) 0.0502(11) 0.8752(7)
C68_3 C 0.528(3) 0.042(2) 0.8332(11)
O21_3 O 0.6287(4) 0.0372(4) 0.9687(2)
H42_3 H 0.6219 0.0851 0.9763
O22_3 O 0.452(2) 0.075(2) 0.8180(10)
O25_2 O 0.8111(4) 0.0622(4) 0.9513(2)
H43_2 H 0.8142 0.0280 0.9314
H57_3 H 0.618741 0.535503 0.996986
H61_3 H 0.762073 0.621739 0.966492
H79_5 H 0.865235 0.0755779 0.964553
H80_3 H 0.597683 0.0991367 0.883824
H81_3 H 0.524602 0.137475 0.922481
H83_3 H 0.58186 0.081188 0.830734
H84_3 H 0.441739 0.128393 0.832859
H85_3 H 0.425017 0.093647 0.871317
Ni3_2 Ni 0.01022(7) 0.73653(7) 0.74411(4)
C55_2 C 0.1384(6) 0.6137(5) 0.7736(3)
H32_3 H 0.1382 0.6013 0.7434
C56_2 C 0.1922(6) 0.5709(6) 0.8001(4)
H33_2 H 0.2265 0.5311 0.7881
C57_2 C 0.1940(7) 0.5886(8) 0.8449(4)
H34_2 H 0.2289 0.5608 0.8642
C58_2 C 0.1417(9) 0.6493(9) 0.8601(4)
H35_2 H 0.1410 0.6642 0.8900
C59_2 C 0.0908(7) 0.6872(8) 0.8300(4)
H36_2 H 0.0560 0.7277 0.8407
N5_2 N 0.0873(5) 0.6707(5) 0.7873(3)
C60_2 C 0.1386(8) 0.8605(8) 0.7746(4)
H37_2 H 0.1755 0.8233 0.7625
C61_2 C 0.1676(9) 0.9280(9) 0.7959(5)
H38_2 H 0.2239 0.9360 0.7981
C62_2 C 0.1170(9) 0.9826(13) 0.8135(4)
C63_2 C 0.0338(8) 0.9719(10) 0.8105(4)
C64_2 C 0.0062(6) 0.9029(7) 0.7889(4)
N6_2 N 0.0554(5) 0.8459(5) 0.7704(3)
O24_3 O 0.0994(4) 0.7312(4) 0.6980(2)
H82_3 H 0.0197703 0.54368 0.572405
H86_3 H 0.00826043 0.451134 0.636843
H87_3 H 0.0363094 0.592203 0.668623
H88_3 H 0.00241792 0.514225 0.705652
H40_3 H 0.9975 0.0099 0.8225
H9_3 H 0.3987 0.8618 0.0066
H52_3 H 0.407797 0.963691 0.0813773
H53_3 H 0.485775 0.997582 0.044348
H54_3 H 0.45632 0.98023 0.177595
H59_3 H 0.548866 0.99174 0.113157
C1_4 C 0.6156(5) 0.3674(5) 0.6087(3)
C2_4 C 0.6866(5) 0.3156(5) 0.6203(3)
C3_4 C 0.7442(5) 0.3378(5) 0.6523(3)
H1_4 H 0.7380 0.3876 0.6670
C4_4 C 0.8098(5) 0.2888(5) 0.6630(3)
C5_4 C 0.8686(6) 0.3126(7) 0.6991(3)
C6_4 C 0.8173(5) 0.2142(5) 0.6418(3)
H2_4 H 0.8605 0.1797 0.6494
C7_4 C 0.7628(5) 0.1899(5) 0.6099(3)
C8_4 C 0.7728(6) 0.1078(6) 0.5870(4)
C9_4 C 0.6964(5) 0.2413(5) 0.5992(3)
H3_4 H 0.6589 0.2250 0.5776
C10_4 C 0.6782(7) 0.5813(8) 0.5758(4)
H4_4 H 0.7030 0.5470 0.5966
C11_4 C 0.7270(8) 0.6200(10) 0.5461(5)
H5_4 H 0.7820 0.6060 0.5437
C12_4 C 0.6938(9) 0.6812(9) 0.5192(4)
H6_4 H 0.7261 0.7112 0.4996
C13_4 C 0.6121(7) 0.6948(7) 0.5230(3)
H7_4 H 0.5878 0.7360 0.5061
C14_4 C 0.5647(6) 0.6486(6) 0.5515(3)
H8_4 H 0.5087 0.6587 0.5529
H18_4 H 0.9498 0.1050 0.7130
C25_4 C 0.3826(9) 0.4470(10) 0.5695(5)
C26_4 C 0.3647(8) 0.4197(9) 0.5223(4)
C27_4 C 0.2740(11) 0.4173(13) 0.5331(7)
C28_4 C 0.2301(18) 0.3608(14) 0.5012(9)
C29_4 C 0.9843(7) 0.4308(8) 0.8124(4)
C30_4 C 0.9167(8) 0.4548(9) 0.8455(4)
C31_4 C 0.9498(11) 0.5248(11) 0.8748(7)
C32_4 C 0.958(2) 0.472(3) 0.9168(11)
C33_4 C 0.8636(13) 0.2183(9) 0.8163(7)
C34_4 C 0.8248(15) 0.1615(17) 0.8505(2)
N1_4 N 0.5968(5) 0.5891(5) 0.5773(3)
O1_4 O 0.6128(3) 0.4375(3) 0.6281(2)
O2_4 O 0.5625(4) 0.3408(4) 0.5818(2)
O3_4 O 0.8623(4) 0.3848(4) 0.7162(2)
O4_4 O 0.9208(4) 0.2604(4) 0.7114(2)
O5_3 O 0.7312(4) 0.0994(4) 0.5520(2)
O6_4 O 0.8240(5) 0.0595(5) 0.6014(3)
O7_4 O 0.4636(4) 0.4617(4) 0.5761(2)
H19_4 H 0.480(7) 0.415(3) 0.569(4)
O8_4 O 0.9628(4) 0.3713(4) 0.7813(2)
H20_4 H 0.9149 0.3781 0.7737
O9_4 O 0.9378(4) 0.1889(4) 0.7987(2)
H21_4 H 0.9720 0.1858 0.8186
O10_4 O 0.1453(14) 0.3808(11) 0.5193(6)
O11_4 O 0.925(2) 0.548(2) 0.9320(10)
Ni1_4 Ni 0.52634(7) 0.52634(7) 0.6250
C35_4 C 0.8385(17) 0.1752(15) 0.8995(2)
C36_4 C 0.7817(9) 0.1364(13) 0.9337(7)
C37_4 C 0.5813(8) 0.6782(7) 0.6742(4)
H23_4 H 0.5470 0.7030 0.6534
C38_4 C 0.6200(10) 0.7270(8) 0.7039(5)
H24_4 H 0.6060 0.7820 0.7063
C39_4 C 0.6812(9) 0.6938(9) 0.7308(4)
H25_4 H 0.7112 0.7261 0.7504
C40_4 C 0.6948(7) 0.6121(7) 0.7270(3)
H26_4 H 0.7360 0.5878 0.7439
C41_4 C 0.6486(6) 0.5647(6) 0.6985(3)
H27_4 H 0.6587 0.5087 0.6971
N4_4 N 0.5891(5) 0.5968(5) 0.6727(3)
C42_4 C 0.3674(5) 0.6156(5) 0.6413(3)
C43_4 C 0.3156(5) 0.6866(5) 0.6297(3)
C44_4 C 0.3378(5) 0.7442(5) 0.5977(3)
H28_4 H 0.3876 0.7380 0.5830
C45_4 C 0.2888(5) 0.8098(5) 0.5870(3)
C46_4 C 0.3126(7) 0.8686(6) 0.5509(3)
C47_4 C 0.2142(5) 0.8173(5) 0.6082(3)
H29_4 H 0.1797 0.8605 0.6006
C48_4 C 0.1899(5) 0.7628(5) 0.6401(3)
C49_4 C 0.1078(6) 0.7728(6) 0.6630(4)
C50_4 C 0.2413(5) 0.6964(5) 0.6508(3)
H30_4 H 0.2250 0.6589 0.6724
O13_4 O 0.4375(3) 0.6128(3) 0.6219(2)
O14_4 O 0.3408(4) 0.5625(4) 0.6682(2)
O15_4 O 0.3848(4) 0.8623(4) 0.5338(2)
O16_4 O 0.2604(4) 0.9208(4) 0.5386(2)
O18_4 O 0.0595(5) 0.8240(5) 0.6486(3)
C51_4 C 0.4470(10) 0.3826(9) 0.6805(5)
C52_4 C 0.4197(9) 0.3647(8) 0.7277(4)
C53_4 C 0.4173(13) 0.2740(11) 0.7169(7)
C54_4 C 0.3608(14) 0.2301(18) 0.7488(9)
O19_4 O 0.4617(4) 0.4636(4) 0.6739(2)
H31_4 H 0.415(3) 0.480(7) 0.681(4)
O20_4 O 0.3808(11) 0.1453(14) 0.7307(6)
H41_4 H 0.1050 0.9498 0.5370
C65_4 C 0.4308(8) 0.9843(7) 0.4376(4)
C66_4 C 0.4548(9) 0.9167(8) 0.4045(4)
C67_4 C 0.5248(11) 0.9498(11) 0.3752(7)
C68_4 C 0.472(3) 0.958(2) 0.3332(11)
O21_4 O 0.3713(4) 0.9628(4) 0.4687(2)
H42_4 H 0.3781 0.9149 0.4763
O22_4 O 0.548(2) 0.925(2) 0.3180(10)
Ni4_3 Ni 0.73653(7) 0.01022(7) 0.50589(4)
H44_4 H 0.362861 0.399085 0.59234
H45_4 H 0.348454 0.503004 0.576251
H46_4 H 0.875273 0.277215 0.83212
H47_4 H 0.820458 0.226513 0.789014
H48_4 H 0.846894 0.0999762 0.843142
H49_4 H 0.758835 0.16415 0.845108
H50_4 H 0.900863 0.402317 0.866176
H51_4 H 0.862525 0.475398 0.827519
H55_4 H 0.918812 0.41814 0.919266
H56_4 H 0.390761 0.36033 0.513665
H57_4 H 0.381259 0.464497 0.496986
H58_4 H 0.906353 0.574983 0.878683
H60_4 H 0.246897 0.296654 0.505418
H61_4 H 0.237927 0.378261 0.466492
H62_4 H 0.248575 0.478802 0.530217
H63_4 H 0.265649 0.395081 0.566961
H64_4 H 0.83585 0.241165 0.904892
H65_4 H 0.900024 0.153106 0.906858
H66_4 H 0.722785 0.124727 0.91788
H67_4 H 0.773487 0.179542 0.960986
H68_4 H 0.134494 0.440364 0.515811
H69_4 H 0.871607 0.558261 0.917141
H70_4 H 0.296654 0.246897 0.744582
H71_4 H 0.378261 0.237927 0.783508
H72_4 H 0.440364 0.134494 0.734189
H73_4 H 0.478802 0.248575 0.719783
H74_4 H 0.395081 0.265649 0.683039
H75_4 H 0.399085 0.362861 0.65766
H76_4 H 0.503004 0.348454 0.673749
H77_4 H 0.36033 0.390761 0.736335
H78_4 H 0.464497 0.381259 0.753014
H79_6 H 0.134765 0.924422 0.464553
H80_4 H 0.402317 0.900863 0.383824
H81_4 H 0.475398 0.862525 0.422481
H83_4 H 0.41814 0.918812 0.330734
H84_4 H 0.558261 0.871607 0.332859
H85_4 H 0.574983 0.906353 0.371317
H17_3 H 0.0099 0.9975 0.4275
C15_3 C 0.6137(5) 0.1384(6) 0.4764(3)
H9_4 H 0.6013 0.1382 0.5066
C16_3 C 0.5709(6) 0.1922(6) 0.4499(4)
H10_3 H 0.5311 0.2265 0.4619
C17_3 C 0.5886(8) 0.1940(7) 0.4051(4)
H11_3 H 0.5608 0.2289 0.3858
C18_3 C 0.6493(9) 0.1417(9) 0.3899(4)
H12_3 H 0.6642 0.1410 0.3600
C19_3 C 0.6872(8) 0.0908(7) 0.4200(4)
H13_3 H 0.7277 0.0560 0.4093
C20_3 C 0.8605(8) 0.1386(8) 0.4754(4)
H14_3 H 0.8233 0.1755 0.4875
C21_3 C 0.9280(9) 0.1676(9) 0.4541(5)
H15_3 H 0.9360 0.2239 0.4519
C22_3 C 0.9826(13) 0.1170(9) 0.4365(4)
C23_3 C 0.9719(10) 0.0338(8) 0.4395(4)
C24_3 C 0.9029(7) 0.0062(6) 0.4611(4)
N2_3 N 0.6707(5) 0.0873(5) 0.4627(3)
N3_3 N 0.8459(5) 0.0554(5) 0.4796(3)
H52_4 H 0.592203 0.0363094 0.581377
H53_4 H 0.514225 0.00241792 0.544348
H54_4 H 0.54368 0.0197703 0.677595
H59_4 H 0.451134 0.00826043 0.613157
H40_4 H 0.0025 0.9901 0.3225
C55_3 C 0.8616(6) 0.3863(5) 0.2736(3)
H32_4 H 0.8618 0.3987 0.2434
C56_3 C 0.8078(6) 0.4291(6) 0.3001(4)
H33_3 H 0.7735 0.4689 0.2881
C57_3 C 0.8060(7) 0.4114(8) 0.3449(4)
H34_3 H 0.7711 0.4392 0.3642
C58_3 C 0.8583(9) 0.3507(9) 0.3601(4)
H35_3 H 0.8590 0.3358 0.3900
C59_3 C 0.9092(7) 0.3128(8) 0.3300(4)
H36_3 H 0.9440 0.2723 0.3407
N5_3 N 0.9127(5) 0.3293(5) 0.2873(3)
C60_3 C 0.8614(8) 0.1395(8) 0.2746(4)
H37_3 H 0.8245 0.1767 0.2625
C61_3 C 0.8324(9) 0.0720(9) 0.2959(5)
H38_3 H 0.7761 0.0640 0.2981
C62_3 C 0.8830(9) 0.0174(13) 0.3135(4)
C63_3 C 0.9662(8) 0.0281(10) 0.3105(4)
C64_3 C 0.9938(6) 0.0971(7) 0.2889(4)
N6_3 N 0.9446(5) 0.1541(5) 0.2704(3)
H82_4 H 0.98023 0.45632 0.0724048
H86_4 H 0.99174 0.548866 0.136843
H87_4 H 0.963691 0.407797 0.168623
H88_4 H 0.997582 0.485775 0.205652
H79_7 H 0.0755779 0.865235 0.285447
H79_8 H 0.924422 0.134765 0.785447
C55_4 C 0.6137(5) 0.8616(6) 0.0236(3)
C56_4 C 0.5709(6) 0.8078(6) 0.0501(4)
H33_4 H 0.5311 0.7735 0.0381
C57_4 C 0.5886(8) 0.8060(7) 0.0949(4)
H34_4 H 0.5608 0.7711 0.1142
C58_4 C 0.6493(9) 0.8583(9) 0.1101(4)
H35_4 H 0.6642 0.8590 0.1400
C59_4 C 0.6872(8) 0.9092(7) 0.0800(4)
H36_4 H 0.7277 0.9440 0.0907
N5_4 N 0.6707(5) 0.9127(5) 0.0373(3)
C60_4 C 0.8605(8) 0.8614(8) 0.0246(4)
H37_4 H 0.8233 0.8245 0.0125
C61_4 C 0.9280(9) 0.8324(9) 0.0459(5)
H38_4 H 0.9360 0.7761 0.0481
C62_4 C 0.9826(13) 0.8830(9) 0.0635(4)
C63_4 C 0.9719(10) 0.9662(8) 0.0605(4)
C64_4 C 0.9029(7) 0.9938(6) 0.0389(4)
N6_4 N 0.8459(5) 0.9446(5) 0.0204(3)
H16 H 0.8620 0.0284 0.1720
H39_2 H 0.1380 0.0284 0.8280
C15_4 C 0.3863(5) 0.8616(6) 0.9764(3)
C16_4 C 0.4291(6) 0.8078(6) 0.9499(4)
H10_4 H 0.4689 0.7735 0.9619
C17_4 C 0.4114(8) 0.8060(7) 0.9051(4)
H11_4 H 0.4392 0.7711 0.8858
C18_4 C 0.3507(9) 0.8583(9) 0.8899(4)
H12_4 H 0.3358 0.8590 0.8600
C19_4 C 0.3128(8) 0.9092(7) 0.9200(4)
H13_4 H 0.2723 0.9440 0.9093
C20_4 C 0.1395(8) 0.8614(8) 0.9754(4)
H14_4 H 0.1767 0.8245 0.9875
C21_4 C 0.0720(9) 0.8324(9) 0.9541(5)
H15_4 H 0.0640 0.7761 0.9519
C22_4 C 0.0174(13) 0.8830(9) 0.9365(4)
C23_4 C 0.0281(10) 0.9662(8) 0.9395(4)
C24_4 C 0.0971(7) 0.9938(6) 0.9611(4)
N2_4 N 0.3293(5) 0.9127(5) 0.9627(3)
N3_4 N 0.1541(5) 0.9446(5) 0.9796(3)
H17_4 H 0.9901 0.0025 0.9275
H16_2 H 0.9716 0.8620 0.9220
H16_3 H 0.1380 0.9716 0.6720
H39_3 H 0.9716 0.1380 0.5780
H16_4 H 0.0284 0.1380 0.4220
H39_4 H 0.8620 0.9716 0.3280
loop_
_geom_bond_atom_site_label_1
_geom_bond_atom_site_label_2
_geom_bond_site_symmetry_1
_geom_bond_site_symmetry_2
O24 Ni3 1_555 1_555
C15 H9 1_555 1_555
C16 C15 1_555 1_555
H10 C16 1_555 1_555
C17 C16 1_555 1_555
H11 C17 1_555 1_555
C18 C17 1_555 1_555
H12 C18 1_555 1_555
C19 C18 1_555 1_555
H13 C19 1_555 1_555
C20 H14 1_555 1_555
C21 C20 1_555 1_555
H15 C21 1_555 1_555
C22 C21 1_555 1_555
C23 C22 1_555 1_555
C24 C23 1_555 1_555
N2 C15 1_555 1_555
N3 C20 1_555 1_555
Ni2 N2 1_555 1_555
O23 Ni2 1_555 1_555
C19 N2 1_555 1_555
C24 N3 1_555 1_555
N3 Ni2 1_555 1_555
C29 C30 1_555 1_555
C30 C31 1_555 1_555
C31 C32 1_555 1_555
C32 O11 1_555 1_555
C33 C34 1_555 1_555
C34 C35 1_555 1_555
O8 C29 1_555 1_555
H20 O8 1_555 1_555
O9 C33 1_555 1_555
H21 O9 1_555 1_555
C35 C36 1_555 1_555
C36 O12 1_555 1_555
O12 H22 1_555 1_555
C33 H46 1_555 1_555
C33 H47 1_555 1_555
C34 H48 1_555 1_555
C34 H49 1_555 1_555
C30 H50 1_555 1_555
C30 H51 1_555 1_555
C32 H55 1_555 1_555
C31 H58 1_555 1_555
C35 H64 1_555 1_555
C35 H65 1_555 1_555
C36 H66 1_555 1_555
C36 H67 1_555 1_555
O11 H69 1_555 1_555
C1 C2 1_555 1_555
C2 C3 1_555 1_555
C3 H1 1_555 1_555
C4 C3 1_555 1_555
C5 C4 1_555 1_555
C6 C4 1_555 1_555
H2 C6 1_555 1_555
C7 C6 1_555 1_555
C8 C7 1_555 1_555
C9 C2 1_555 1_555
H3 C9 1_555 1_555
C10 H4 1_555 1_555
C11 C10 1_555 1_555
H5 C11 1_555 1_555
C12 C11 1_555 1_555
H6 C12 1_555 1_555
C13 C12 1_555 1_555
H7 C13 1_555 1_555
C14 C13 1_555 1_555
H8 C14 1_555 1_555
C25 C26 1_555 1_555
C26 C27 1_555 1_555
C27 C28 1_555 1_555
C28 O10 1_555 1_555
N1 C10 1_555 1_555
O1 C1 1_555 1_555
O2 C1 1_555 1_555
O3 C5 1_555 1_555
O4 C5 1_555 1_555
O5 C8 1_555 1_555
O6 C8 1_555 1_555
O7 C25 1_555 1_555
H19 O7 1_555 1_555
Ni1 N1 1_555 1_555
C37 H23 1_555 1_555
C38 C37 1_555 1_555
H24 C38 1_555 1_555
C39 C38 1_555 1_555
C40 C39 1_555 1_555
H26 C40 1_555 1_555
C41 C40 1_555 1_555
H27 C41 1_555 1_555
N4 Ni1 1_555 1_555
C42 C43 1_555 1_555
C43 C44 1_555 1_555
C44 H28 1_555 1_555
C45 C44 1_555 1_555
C46 C45 1_555 1_555
C47 C45 1_555 1_555
H29 C47 1_555 1_555
C48 C47 1_555 1_555
C49 C48 1_555 1_555
C50 C43 1_555 1_555
H30 C50 1_555 1_555
O13 Ni1 1_555 1_555
O14 C42 1_555 1_555
O15 C46 1_555 1_555
O16 C46 1_555 1_555
O24 C49 1_555 1_555
O18 C49 1_555 1_555
C51 C52 1_555 1_555
C52 C53 1_555 1_555
C53 C54 1_555 1_555
C54 O20 1_555 1_555
O19 Ni1 1_555 1_555
H31 O19 1_555 1_555
C65 C66 1_555 1_555
C66 C67 1_555 1_555
C67 C68 1_555 1_555
C68 O22 1_555 1_555
H42 O21 1_555 1_555
Ni4 O5 1_555 1_555
H43 O25 1_555 1_555
C7 C9 1_555 1_555
C14 N1 1_555 1_555
O1 Ni1 1_555 1_555
O7 Ni1 1_555 1_555
C37 N4 1_555 1_555
C41 N4 1_555 1_555
C42 O13 1_555 1_555
C48 C50 1_555 1_555
C51 O19 1_555 1_555
C65 O21 1_555 1_555
C25 H44 1_555 1_555
C25 H45 1_555 1_555
C26 H56 1_555 1_555
C26 H57 1_555 1_555
C28 H60 1_555 1_555
C28 H61 1_555 1_555
C27 H62 1_555 1_555
C27 H63 1_555 1_555
O10 H68 1_555 1_555
C54 H70 1_555 1_555
O20 H72 1_555 1_555
C53 H73 1_555 1_555
C53 H74 1_555 1_555
C51 H75 1_555 1_555
C51 H76 1_555 1_555
C52 H77 1_555 1_555
O25 H79 1_555 1_555
C66 H80 1_555 1_555
C66 H81 1_555 1_555
C68 H83 1_555 1_555
O22 H84 1_555 1_555
C67 H85 1_555 1_555
C15_2 H9_2 1_555 1_555
C16_2 C15_2 1_555 1_555
H10_2 C16_2 1_555 1_555
C17_2 C16_2 1_555 1_555
H11_2 C17_2 1_555 1_555
C18_2 C17_2 1_555 1_555
H12_2 C18_2 1_555 1_555
C19_2 C18_2 1_555 1_555
H13_2 C19_2 1_555 1_555
C20_2 H14_2 1_555 1_555
C21_2 C20_2 1_555 1_555
H15_2 C21_2 1_555 1_555
C22_2 C21_2 1_555 1_555
C23_2 C22_2 1_555 1_555
C24_2 C23_2 1_555 1_555
N2_2 C15_2 1_555 1_555
N3_2 C20_2 1_555 1_555
Ni4 N2_2 1_555 1_555
C19_2 N2_2 1_555 1_555
C24_2 N3_2 1_555 1_555
N3_2 Ni4 1_555 1_555
C55 H32_2 1_555 1_555
C56 C55 1_555 1_555
H33 C56 1_555 1_555
C57 C56 1_555 1_555
H34 C57 1_555 1_555
C58 C57 1_555 1_555
H35 C58 1_555 1_555
C59 C58 1_555 1_555
H36 C59 1_555 1_555
N5 Ni5 1_555 1_555
C60 H37 1_555 1_555
C61 C60 1_555 1_555
H38 C61 1_555 1_555
C62 C61 1_555 1_555
C63 C62 1_555 1_555
C64 C63 1_555 1_555
N6 Ni5 1_555 1_555
O24_2 Ni5 1_555 1_555
C55 N5 1_555 1_555
C59 N5 1_555 1_555
C60 N6 1_555 1_555
C64 N6 1_555 1_555
C1_2 C2_2 1_555 1_555
C2_2 C3_2 1_555 1_555
C3_2 H1_2 1_555 1_555
C4_2 C3_2 1_555 1_555
C5_2 C4_2 1_555 1_555
C6_2 C4_2 1_555 1_555
H2_2 C6_2 1_555 1_555
C7_2 C6_2 1_555 1_555
C8_2 C7_2 1_555 1_555
C9_2 C2_2 1_555 1_555
H3_2 C9_2 1_555 1_555
C10_2 H4_2 1_555 1_555
C11_2 C10_2 1_555 1_555
H5_2 C11_2 1_555 1_555
C12_2 C11_2 1_555 1_555
H6_2 C12_2 1_555 1_555
C13_2 C12_2 1_555 1_555
H7_2 C13_2 1_555 1_555
C14_2 C13_2 1_555 1_555
H8_2 C14_2 1_555 1_555
C25_2 C26_2 1_555 1_555
C26_2 C27_2 1_555 1_555
C27_2 C28_2 1_555 1_555
C28_2 O10_2 1_555 1_555
C29_2 C30_2 1_555 1_555
C30_2 C31_2 1_555 1_555
C31_2 C32_2 1_555 1_555
C32_2 O11_2 1_555 1_555
C33_2 C34_2 1_555 1_555
C34_2 C35_2 1_555 1_555
N1_2 C10_2 1_555 1_555
O1_2 C1_2 1_555 1_555
O2_2 C1_2 1_555 1_555
O3_2 C5_2 1_555 1_555
O4_2 C5_2 1_555 1_555
O23 C8_2 1_555 1_555
O6_2 C8_2 1_555 1_555
O7_2 C25_2 1_555 1_555
H19_2 O7_2 1_555 1_555
O8_2 C29_2 1_555 1_555
H20_2 O8_2 1_555 1_555
O9_2 C33_2 1_555 1_555
H21_2 O9_2 1_555 1_555
Ni1_2 N1_2 1_555 1_555
C35_2 C36_2 1_555 1_555
C36_2 O25 1_555 1_555
C37_2 H23_2 1_555 1_555
C38_2 C37_2 1_555 1_555
H24_2 C38_2 1_555 1_555
C39_2 C38_2 1_555 1_555
H25_2 C39_2 1_555 1_555
C40_2 C39_2 1_555 1_555
H26_2 C40_2 1_555 1_555
C41_2 C40_2 1_555 1_555
H27_2 C41_2 1_555 1_555
N4_2 Ni1_2 1_555 1_555
C42_2 C43_2 1_555 1_555
C43_2 C44_2 1_555 1_555
C44_2 H28_2 1_555 1_555
C45_2 C44_2 1_555 1_555
C46_2 C45_2 1_555 1_555
C47_2 C45_2 1_555 1_555
H29_2 C47_2 1_555 1_555
C48_2 C47_2 1_555 1_555
C49_2 C48_2 1_555 1_555
C50_2 C43_2 1_555 1_555
H30_2 C50_2 1_555 1_555
O13_2 Ni1_2 1_555 1_555
O14_2 C42_2 1_555 1_555
O15_2 C46_2 1_555 1_555
O16_2 C46_2 1_555 1_555
O24_2 C49_2 1_555 1_555
O18_2 C49_2 1_555 1_555
C51_2 C52_2 1_555 1_555
C52_2 C53_2 1_555 1_555
C53_2 C54_2 1_555 1_555
C54_2 O20_2 1_555 1_555
O19_2 Ni1_2 1_555 1_555
H31_2 O19_2 1_555 1_555
C65_2 C66_2 1_555 1_555
C66_2 C67_2 1_555 1_555
C67_2 C68_2 1_555 1_555
C68_2 O22_2 1_555 1_555
H42_2 O21_2 1_555 1_555
C7_2 C9_2 1_555 1_555
C14_2 N1_2 1_555 1_555
O1_2 Ni1_2 1_555 1_555
O7_2 Ni1_2 1_555 1_555
C37_2 N4_2 1_555 1_555
C41_2 N4_2 1_555 1_555
C42_2 O13_2 1_555 1_555
C48_2 C50_2 1_555 1_555
C51_2 O19_2 1_555 1_555
C65_2 O21_2 1_555 1_555
C25_2 H44_2 1_555 1_555
C25_2 H45_2 1_555 1_555
C33_2 H46_2 1_555 1_555
C33_2 H47_2 1_555 1_555
C34_2 H48_2 1_555 1_555
C34_2 H49_2 1_555 1_555
C30_2 H50_2 1_555 1_555
C30_2 H51_2 1_555 1_555
C32_2 H55_2 1_555 1_555
C26_2 H56_2 1_555 1_555
C26_2 H57_2 1_555 1_555
C31_2 H58_2 1_555 1_555
C28_2 H60_2 1_555 1_555
C28_2 H61_2 1_555 1_555
C27_2 H62_2 1_555 1_555
C27_2 H63_2 1_555 1_555
C35_2 H64_2 1_555 1_555
C35_2 H65_2 1_555 1_555
C36_2 H66_2 1_555 1_555
C36_2 H67_2 1_555 1_555
O10_2 H68_2 1_555 1_555
O11_2 H69_2 1_555 1_555
C54_2 H70_2 1_555 1_555
C54_2 H71_2 1_555 1_555
O20_2 H72_2 1_555 1_555
C53_2 H73_2 1_555 1_555
C53_2 H74_2 1_555 1_555
C51_2 H75_2 1_555 1_555
C51_2 H76_2 1_555 1_555
C52_2 H77_2 1_555 1_555
C52_2 H78_2 1_555 1_555
O12 H79_2 1_555 1_555
C66_2 H80_2 1_555 1_555
C66_2 H81_2 1_555 1_555
C68_2 H83_2 1_555 1_555
O22_2 H84_2 1_555 1_555
C67_2 H85_2 1_555 1_555
O9 H79_3 1_555 1_555
O9_2 H79_4 1_555 1_555
C1_3 C2_3 1_555 1_555
C2_3 C3_3 1_555 1_555
C3_3 H1_3 1_555 1_555
C4_3 C3_3 1_555 1_555
C5_3 C4_3 1_555 1_555
C6_3 C4_3 1_555 1_555
H2_3 C6_3 1_555 1_555
C7_3 C6_3 1_555 1_555
C8_3 C7_3 1_555 1_555
C9_3 C2_3 1_555 1_555
H3_3 C9_3 1_555 1_555
C10_3 H4_3 1_555 1_555
C11_3 C10_3 1_555 1_555
H5_3 C11_3 1_555 1_555
C12_3 C11_3 1_555 1_555
C13_3 C12_3 1_555 1_555
H7_3 C13_3 1_555 1_555
C14_3 C13_3 1_555 1_555
H8_3 C14_3 1_555 1_555
C25_3 C26_3 1_555 1_555
C26_3 C27_3 1_555 1_555
C27_3 C28_3 1_555 1_555
C28_3 O10_3 1_555 1_555
C29_3 C30_3 1_555 1_555
C30_3 C31_3 1_555 1_555
C31_3 C32_3 1_555 1_555
C32_3 O11_3 1_555 1_555
C33_3 C34_3 1_555 1_555
C34_3 C35_3 1_555 1_555
N1_3 C10_3 1_555 1_555
O1_3 C1_3 1_555 1_555
O2_3 C1_3 1_555 1_555
O3_3 C5_3 1_555 1_555
O4_3 C5_3 1_555 1_555
O5_2 C8_3 1_555 1_555
O6_3 C8_3 1_555 1_555
O7_3 C25_3 1_555 1_555
H19_3 O7_3 1_555 1_555
O8_3 C29_3 1_555 1_555
H20_3 O8_3 1_555 1_555
O9_3 C33_3 1_555 1_555
H21_3 O9_3 1_555 1_555
Ni1_3 N1_3 1_555 1_555
C35_3 C36_3 1_555 1_555
C36_3 O12_2 1_555 1_555
O12_2 H22_2 1_555 1_555
C37_3 H23_3 1_555 1_555
C38_3 C37_3 1_555 1_555
H24_3 C38_3 1_555 1_555
C39_3 C38_3 1_555 1_555
H25_3 C39_3 1_555 1_555
C40_3 C39_3 1_555 1_555
H26_3 C40_3 1_555 1_555
C41_3 C40_3 1_555 1_555
H27_3 C41_3 1_555 1_555
N4_3 Ni1_3 1_555 1_555
C42_3 C43_3 1_555 1_555
C43_3 C44_3 1_555 1_555
C44_3 H28_3 1_555 1_555
C45_3 C44_3 1_555 1_555
C46_3 C45_3 1_555 1_555
C47_3 C45_3 1_555 1_555
H29_3 C47_3 1_555 1_555
C48_3 C47_3 1_555 1_555
C49_3 C48_3 1_555 1_555
C50_3 C43_3 1_555 1_555
H30_3 C50_3 1_555 1_555
O13_3 Ni1_3 1_555 1_555
O14_3 C42_3 1_555 1_555
O15_3 C46_3 1_555 1_555
O16_3 C46_3 1_555 1_555
O17 C49_3 1_555 1_555
O18_3 C49_3 1_555 1_555
C51_3 C52_3 1_555 1_555
C52_3 C53_3 1_555 1_555
C53_3 C54_3 1_555 1_555
C54_3 O20_3 1_555 1_555
O19_3 Ni1_3 1_555 1_555
H31_3 O19_3 1_555 1_555
Ni4_2 O5_2 1_555 1_555
Ni6 O17 1_555 1_555
C7_3 C9_3 1_555 1_555
C14_3 N1_3 1_555 1_555
O1_3 Ni1_3 1_555 1_555
O7_3 Ni1_3 1_555 1_555
C37_3 N4_3 1_555 1_555
C41_3 N4_3 1_555 1_555
C42_3 O13_3 1_555 1_555
C48_3 C50_3 1_555 1_555
C51_3 O19_3 1_555 1_555
C25_3 H44_3 1_555 1_555
C25_3 H45_3 1_555 1_555
C33_3 H46_3 1_555 1_555
C33_3 H47_3 1_555 1_555
C34_3 H48_3 1_555 1_555
C34_3 H49_3 1_555 1_555
C30_3 H50_3 1_555 1_555
C30_3 H51_3 1_555 1_555
C32_3 H55_3 1_555 1_555
C26_3 H56_3 1_555 1_555
C31_3 H58_3 1_555 1_555
C28_3 H60_3 1_555 1_555
C27_3 H62_3 1_555 1_555
C27_3 H63_3 1_555 1_555
C35_3 H64_3 1_555 1_555
C35_3 H65_3 1_555 1_555
C36_3 H66_3 1_555 1_555
C36_3 H67_3 1_555 1_555
O10_3 H68_3 1_555 1_555
O11_3 H69_3 1_555 1_555
C54_3 H70_3 1_555 1_555
C54_3 H71_3 1_555 1_555
O20_3 H72_3 1_555 1_555
C53_3 H73_3 1_555 1_555
C53_3 H74_3 1_555 1_555
C51_3 H75_3 1_555 1_555
C51_3 H76_3 1_555 1_555
C52_3 H77_3 1_555 1_555
C52_3 H78_3 1_555 1_555
C65_3 C66_3 1_555 1_555
C66_3 C67_3 1_555 1_555
C67_3 C68_3 1_555 1_555
C68_3 O22_3 1_555 1_555
H42_3 O21_3 1_555 1_555
H43_2 O25_2 1_555 1_555
C65_3 O21_3 1_555 1_555
O25_2 H79_5 1_555 1_555
C66_3 H80_3 1_555 1_555
C66_3 H81_3 1_555 1_555
C68_3 H83_3 1_555 1_555
O22_3 H84_3 1_555 1_555
C67_3 H85_3 1_555 1_555
C55_2 H32_3 1_555 1_555
C56_2 C55_2 1_555 1_555
H33_2 C56_2 1_555 1_555
C57_2 C56_2 1_555 1_555
H34_2 C57_2 1_555 1_555
C58_2 C57_2 1_555 1_555
H35_2 C58_2 1_555 1_555
C59_2 C58_2 1_555 1_555
H36_2 C59_2 1_555 1_555
N5_2 Ni3_2 1_555 1_555
C60_2 H37_2 1_555 1_555
C61_2 C60_2 1_555 1_555
H38_2 C61_2 1_555 1_555
C62_2 C61_2 1_555 1_555
C63_2 C62_2 1_555 1_555
C64_2 C63_2 1_555 1_555
N6_2 Ni3_2 1_555 1_555
O24_3 Ni3_2 1_555 1_555
C55_2 N5_2 1_555 1_555
C59_2 N5_2 1_555 1_555
C60_2 N6_2 1_555 1_555
C64_2 N6_2 1_555 1_555
C1_4 C2_4 1_555 1_555
C2_4 C3_4 1_555 1_555
C3_4 H1_4 1_555 1_555
C4_4 C3_4 1_555 1_555
C5_4 C4_4 1_555 1_555
C6_4 C4_4 1_555 1_555
H2_4 C6_4 1_555 1_555
C7_4 C6_4 1_555 1_555
C8_4 C7_4 1_555 1_555
C9_4 C2_4 1_555 1_555
H3_4 C9_4 1_555 1_555
C10_4 H4_4 1_555 1_555
C11_4 C10_4 1_555 1_555
H5_4 C11_4 1_555 1_555
C12_4 C11_4 1_555 1_555
H6_4 C12_4 1_555 1_555
C13_4 C12_4 1_555 1_555
H7_4 C13_4 1_555 1_555
C14_4 C13_4 1_555 1_555
H8_4 C14_4 1_555 1_555
C25_4 C26_4 1_555 1_555
C26_4 C27_4 1_555 1_555
C27_4 C28_4 1_555 1_555
C28_4 O10_4 1_555 1_555
C29_4 C30_4 1_555 1_555
C30_4 C31_4 1_555 1_555
C31_4 C32_4 1_555 1_555
C32_4 O11_4 1_555 1_555
C33_4 C34_4 1_555 1_555
C34_4 C35_4 1_555 1_555
N1_4 C10_4 1_555 1_555
O1_4 C1_4 1_555 1_555
O2_4 C1_4 1_555 1_555
O3_4 C5_4 1_555 1_555
O4_4 C5_4 1_555 1_555
O5_3 C8_4 1_555 1_555
O6_4 C8_4 1_555 1_555
O7_4 C25_4 1_555 1_555
H19_4 O7_4 1_555 1_555
O8_4 C29_4 1_555 1_555
H20_4 O8_4 1_555 1_555
O9_4 C33_4 1_555 1_555
H21_4 O9_4 1_555 1_555
Ni1_4 N1_4 1_555 1_555
C35_4 C36_4 1_555 1_555
C36_4 O25_2 1_555 1_555
C37_4 H23_4 1_555 1_555
C38_4 C37_4 1_555 1_555
H24_4 C38_4 1_555 1_555
C39_4 C38_4 1_555 1_555
H25_4 C39_4 1_555 1_555
C40_4 C39_4 1_555 1_555
H26_4 C40_4 1_555 1_555
C41_4 C40_4 1_555 1_555
H27_4 C41_4 1_555 1_555
N4_4 Ni1_4 1_555 1_555
C42_4 C43_4 1_555 1_555
C43_4 C44_4 1_555 1_555
C44_4 H28_4 1_555 1_555
C45_4 C44_4 1_555 1_555
C46_4 C45_4 1_555 1_555
C47_4 C45_4 1_555 1_555
H29_4 C47_4 1_555 1_555
C48_4 C47_4 1_555 1_555
C49_4 C48_4 1_555 1_555
C50_4 C43_4 1_555 1_555
H30_4 C50_4 1_555 1_555
O13_4 Ni1_4 1_555 1_555
O14_4 C42_4 1_555 1_555
O15_4 C46_4 1_555 1_555
O16_4 C46_4 1_555 1_555
O24_3 C49_4 1_555 1_555
O18_4 C49_4 1_555 1_555
C51_4 C52_4 1_555 1_555
C52_4 C53_4 1_555 1_555
C53_4 C54_4 1_555 1_555
C54_4 O20_4 1_555 1_555
O19_4 Ni1_4 1_555 1_555
H31_4 O19_4 1_555 1_555
C65_4 C66_4 1_555 1_555
C66_4 C67_4 1_555 1_555
C67_4 C68_4 1_555 1_555
C68_4 O22_4 1_555 1_555
H42_4 O21_4 1_555 1_555
Ni4_3 O5_3 1_555 1_555
C7_4 C9_4 1_555 1_555
C14_4 N1_4 1_555 1_555
O1_4 Ni1_4 1_555 1_555
O7_4 Ni1_4 1_555 1_555
C37_4 N4_4 1_555 1_555
C41_4 N4_4 1_555 1_555
C42_4 O13_4 1_555 1_555
C48_4 C50_4 1_555 1_555
C51_4 O19_4 1_555 1_555
C65_4 O21_4 1_555 1_555
C25_4 H44_4 1_555 1_555
C25_4 H45_4 1_555 1_555
C33_4 H46_4 1_555 1_555
C33_4 H47_4 1_555 1_555
C34_4 H48_4 1_555 1_555
C34_4 H49_4 1_555 1_555
C30_4 H50_4 1_555 1_555
C30_4 H51_4 1_555 1_555
C32_4 H55_4 1_555 1_555
C26_4 H56_4 1_555 1_555
C26_4 H57_4 1_555 1_555
C31_4 H58_4 1_555 1_555
C28_4 H60_4 1_555 1_555
C28_4 H61_4 1_555 1_555
C27_4 H62_4 1_555 1_555
C27_4 H63_4 1_555 1_555
C35_4 H64_4 1_555 1_555
C35_4 H65_4 1_555 1_555
C36_4 H66_4 1_555 1_555
C36_4 H67_4 1_555 1_555
O10_4 H68_4 1_555 1_555
O11_4 H69_4 1_555 1_555
C54_4 H70_4 1_555 1_555
C54_4 H71_4 1_555 1_555
O20_4 H72_4 1_555 1_555
C53_4 H73_4 1_555 1_555
C53_4 H74_4 1_555 1_555
C51_4 H75_4 1_555 1_555
C51_4 H76_4 1_555 1_555
C52_4 H77_4 1_555 1_555
C52_4 H78_4 1_555 1_555
O12_2 H79_6 1_555 1_555
C66_4 H80_4 1_555 1_555
C66_4 H81_4 1_555 1_555
C68_4 H83_4 1_555 1_555
O22_4 H84_4 1_555 1_555
C67_4 H85_4 1_555 1_555
C15_3 H9_4 1_555 1_555
C16_3 C15_3 1_555 1_555
H10_3 C16_3 1_555 1_555
C17_3 C16_3 1_555 1_555
H11_3 C17_3 1_555 1_555
C18_3 C17_3 1_555 1_555
H12_3 C18_3 1_555 1_555
C19_3 C18_3 1_555 1_555
H13_3 C19_3 1_555 1_555
C20_3 H14_3 1_555 1_555
C21_3 C20_3 1_555 1_555
H15_3 C21_3 1_555 1_555
C22_3 C21_3 1_555 1_555
C23_3 C22_3 1_555 1_555
C24_3 C23_3 1_555 1_555
N2_3 C15_3 1_555 1_555
N3_3 C20_3 1_555 1_555
Ni4_3 N2_3 1_555 1_555
C19_3 N2_3 1_555 1_555
C24_3 N3_3 1_555 1_555
N3_3 Ni4_3 1_555 1_555
C55_3 H32_4 1_555 1_555
C56_3 C55_3 1_555 1_555
H33_3 C56_3 1_555 1_555
C57_3 C56_3 1_555 1_555
H34_3 C57_3 1_555 1_555
C58_3 C57_3 1_555 1_555
H35_3 C58_3 1_555 1_555
C59_3 C58_3 1_555 1_555
H36_3 C59_3 1_555 1_555
N5_3 Ni6 1_555 1_555
C60_3 H37_3 1_555 1_555
C61_3 C60_3 1_555 1_555
H38_3 C61_3 1_555 1_555
C62_3 C61_3 1_555 1_555
C63_3 C62_3 1_555 1_555
C64_3 C63_3 1_555 1_555
N6_3 Ni6 1_555 1_555
C55_3 N5_3 1_555 1_555
C59_3 N5_3 1_555 1_555
C60_3 N6_3 1_555 1_555
C64_3 N6_3 1_555 1_555
O9_3 H79_7 1_555 1_555
O9_4 H79_8 1_555 1_555
C56_4 C55_4 1_555 1_555
H33_4 C56_4 1_555 1_555
C57_4 C56_4 1_555 1_555
H34_4 C57_4 1_555 1_555
C58_4 C57_4 1_555 1_555
H35_4 C58_4 1_555 1_555
C59_4 C58_4 1_555 1_555
H36_4 C59_4 1_555 1_555
C60_4 H37_4 1_555 1_555
C61_4 C60_4 1_555 1_555
H38_4 C61_4 1_555 1_555
C62_4 C61_4 1_555 1_555
C63_4 C62_4 1_555 1_555
C64_4 C63_4 1_555 1_555
C55_4 N5_4 1_555 1_555
C59_4 N5_4 1_555 1_555
C60_4 N6_4 1_555 1_555
C64_4 N6_4 1_555 1_555
C16_4 C15_4 1_555 1_555
H10_4 C16_4 1_555 1_555
C17_4 C16_4 1_555 1_555
H11_4 C17_4 1_555 1_555
C18_4 C17_4 1_555 1_555
H12_4 C18_4 1_555 1_555
C19_4 C18_4 1_555 1_555
H13_4 C19_4 1_555 1_555
C20_4 H14_4 1_555 1_555
C21_4 C20_4 1_555 1_555
H15_4 C21_4 1_555 1_555
C22_4 C21_4 1_555 1_555
C23_4 C22_4 1_555 1_555
C24_4 C23_4 1_555 1_555
N2_4 C15_4 1_555 1_555
N3_4 C20_4 1_555 1_555
C19_4 N2_4 1_555 1_555
C24_4 N3_4 1_555 1_555

#END
