
###############################################################################
#
# This file contains modified crystal structure data generated from the
# MOF subset of the Cambridge Structural Database (CSD) v543 
# hosted by the Cambridge Crystallographic Data Centre (CCDC).
#
# This work is licensed under the Creative Commons
# Attribution-NonCommercial-ShareAlike 4.0 International License.
# To view a copy of this license, visit
# http://creativecommons.org/licenses/by-nc-sa/4.0/
# or send a letter to
# Creative Commons, PO Box 1866, Mountain View, CA 94042, USA.
#
# CIF created using the CSD Python API on 29 September 2022
# The structure has been converted into the P1 space group
# The structure has a 3D framework
# The original CSD entry HUYJAP is in the rhombohedral crystal system
# The framework has been calculated to contain at least 10.0% void space
# The void calculation uses a probe of radius 1.32A, grid spacing 0.4
#
###############################################################################

data_HUYJAP
_chemical_formula_moiety         '(C360 H216 N72 O72 Zn14)n'
_symmetry_cell_setting           triclinic
_symmetry_space_group_name_H-M   'P 1'
_symmetry_Int_Tables_number      1
_space_group_name_Hall           'P 1'
loop_
_symmetry_equiv_pos_site_id
_symmetry_equiv_pos_as_xyz
1 x,y,z
_cell_length_a                   32.2321(19)
_cell_length_b                   32.2321(19)
_cell_length_c                   14.2264(11)
_cell_angle_alpha                90
_cell_angle_beta                 90
_cell_angle_gamma                120
_cell_volume                     12799.8
loop_
_atom_site_label
_atom_site_type_symbol
_atom_site_fract_x
_atom_site_fract_y
_atom_site_fract_z
C1 C 0.06054(8) 0.52657(9) 0.20812(17)
C2 C 0.09192(8) 0.50802(8) 0.24472(17)
C3 C 0.09146(8) 0.46945(8) 0.19970(16)
H1 H 0.072140 0.455755 0.147228
C4 C 0.11945(8) 0.45160(8) 0.23259(16)
H2 H 0.119427 0.426084 0.202043
C5 C 0.14775(8) 0.47172(8) 0.31144(16)
C6 C 0.14812(9) 0.51011(8) 0.35695(18)
H3 H 0.167087 0.523574 0.409929
C7 C 0.12035(9) 0.52796(8) 0.32319(18)
H4 H 0.120643 0.553705 0.353332
C8 C 0.22504(8) 0.48011(8) 0.36025(17)
H5 H 0.244910 0.512557 0.347895
C9 C 0.23784(8) 0.44924(8) 0.39555(16)
H6 H 0.268693 0.457365 0.413873
C10 C 0.16187(8) 0.40791(8) 0.37138(15)
C11 C 0.11230(7) 0.36971(8) 0.36300(15)
C12 C 0.04622(8) 0.31030(8) 0.30839(16)
H7 H 0.025171 0.284768 0.270828
C13 C 0.03360(8) 0.32800(8) 0.37816(16)
H8 H 0.002610 0.316980 0.399896
C14 C 0.07731(8) 0.39396(8) 0.49290(16)
C15 C 0.10345(9) 0.39489(8) 0.57073(16)
H9 H 0.122155 0.380396 0.568062
C16 C 0.10193(9) 0.41727(8) 0.65252(18)
H10 H 0.120195 0.418351 0.704064
C17 C 0.07350(9) 0.43800(9) 0.65826(17)
C18 C 0.04720(9) 0.43689(9) 0.5804(2)
H11 H 0.028136 0.450970 0.583673
C19 C 0.04889(9) 0.41489(9) 0.49689(19)
H12 H 0.031177 0.414329 0.444809
C20 C 0.07000(9) 0.45416(9) 0.75723(15)
N1 N 0.17639(7) 0.45337(7) 0.34646(13)
N2 N 0.19911(6) 0.40473(6) 0.40030(12)
N3 N 0.07521(6) 0.36631(6) 0.41363(12)
N4 N 0.09572(6) 0.33531(6) 0.29868(12)
O1 O 0.02722(5) 0.49916(6) 0.15366(10)
O2 O 0.06752(6) 0.56654(6) 0.23366(12)
O3 O 0.04308(6) 0.46352(6) 0.76818(12)
O4 O 0.09839(6) 0.45688(6) 0.82349(12)
N6 N 0.00198(6) 0.57292(8) 0.03465(12)
Zn2 Zn 0.20418(3) 0.35061(2) 0.46172(2)
Zn3 Zn 0.01728(2) 0.47977(2) 0.87161(2)
Zn4 Zn 0.12916(3) 0.31605(2) 0.20494(2)
Zn1 Zn 0.98272(2) 0.52023(2) 0.12839(2)
N5 N 0.92860(6) 0.46105(8) 0.06697(12)
O5 O 0.95692(6) 0.53648(6) 0.23182(12)
C1_2 C 0.47343(9) 0.53397(12) 0.20812(17)
C2_2 C 0.49198(8) 0.58390(11) 0.24472(17)
C3_2 C 0.53055(8) 0.62201(11) 0.19970(16)
H1_2 H 0.544245 0.616385 0.147228
C4_2 C 0.54840(8) 0.66785(11) 0.23259(16)
H2_2 H 0.573916 0.693343 0.202043
C5_2 C 0.52828(8) 0.67603(11) 0.31144(16)
C6_2 C 0.48989(8) 0.63801(12) 0.35695(18)
H3_2 H 0.476426 0.643513 0.409929
C7_2 C 0.47204(8) 0.59239(12) 0.32319(18)
H4_2 H 0.446295 0.566938 0.353332
C8_2 C 0.51989(8) 0.74493(11) 0.36025(17)
H5_2 H 0.487443 0.732353 0.347895
C9_2 C 0.55076(8) 0.78860(11) 0.39555(16)
H6_2 H 0.542635 0.811328 0.413873
C10_2 C 0.59209(8) 0.75396(11) 0.37138(15)
C11_2 C 0.63029(8) 0.74259(11) 0.36300(15)
C12_2 C 0.68970(8) 0.73592(11) 0.30839(16)
H7_2 H 0.715232 0.740403 0.270828
C13_2 C 0.67200(8) 0.70560(11) 0.37816(16)
H8_2 H 0.683020 0.685630 0.399896
C14_2 C 0.60604(8) 0.68335(11) 0.49290(16)
C15_2 C 0.60511(8) 0.70856(12) 0.57073(16)
H9_2 H 0.619604 0.741759 0.568062
C16_2 C 0.58273(8) 0.68466(12) 0.65252(18)
H10_2 H 0.581649 0.701844 0.704064
C17_2 C 0.56200(9) 0.63550(13) 0.65826(17)
C18_2 C 0.56311(9) 0.61031(13) 0.5804(2)
H11_2 H 0.549030 0.577166 0.583673
C19_2 C 0.58511(9) 0.63400(13) 0.49689(19)
H12_2 H 0.585671 0.616848 0.444809
C20_2 C 0.54584(9) 0.61584(13) 0.75723(15)
N1_2 N 0.54663(7) 0.72302(10) 0.34646(13)
N2_2 N 0.59527(6) 0.79438(8) 0.40030(12)
N3_2 N 0.63369(6) 0.70890(8) 0.41363(12)
N4_2 N 0.66469(6) 0.76041(8) 0.29868(12)
O1_2 O 0.50084(6) 0.52806(8) 0.15366(10)
O2_2 O 0.43346(6) 0.50098(8) 0.23366(12)
O3_2 O 0.53648(6) 0.57956(8) 0.76818(12)
O4_2 O 0.54312(6) 0.64151(8) 0.82349(12)
Zn1_2 Zn 0.47977(2) 0.46249(3) 0.12839(2)
N5_2 N 0.53895(8) 0.46756(10) 0.06697(12)
N6_2 N 0.42708(8) 0.42905(10) 0.03465(12)
O5_2 O 0.46352(6) 0.42044(8) 0.23182(12)
Zn2_2 Zn 0.64939(2) 0.85356(4) 0.46172(2)
Zn3_2 Zn 0.52023(2) 0.53751(3) 0.87161(2)
Zn4_2 Zn 0.68395(2) 0.81310(4) 0.20494(2)
Zn1_3 Zn 0.53751(3) 0.01728(2) 0.12839(2)
N5_3 N 0.53244(10) 0.07140(6) 0.06697(12)
O5_3 O 0.57956(8) 0.04308(6) 0.23182(12)
C1_3 C 0.46603(12) 0.93946(8) 0.20812(17)
C2_3 C 0.41610(11) 0.90808(8) 0.24472(17)
C3_3 C 0.37799(11) 0.90854(8) 0.19970(16)
H1_3 H 0.383615 0.927860 0.147228
C4_3 C 0.33215(11) 0.88055(8) 0.23259(16)
H2_3 H 0.306657 0.880573 0.202043
C5_3 C 0.32397(11) 0.85225(8) 0.31144(16)
C6_3 C 0.36199(12) 0.85188(9) 0.35695(18)
H3_3 H 0.356487 0.832913 0.409929
C7_3 C 0.40761(12) 0.87965(9) 0.32319(18)
H4_3 H 0.433062 0.879357 0.353332
C8_3 C 0.25507(11) 0.77496(8) 0.36025(17)
H5_3 H 0.267647 0.755090 0.347895
C9_3 C 0.21140(11) 0.76216(8) 0.39555(16)
H6_3 H 0.188672 0.731307 0.413873
C10_3 C 0.24604(11) 0.83813(8) 0.37138(15)
C11_3 C 0.25741(11) 0.88770(7) 0.36300(15)
C12_3 C 0.26408(11) 0.95378(8) 0.30839(16)
H7_3 H 0.259597 0.974829 0.270828
C13_3 C 0.29440(11) 0.96640(8) 0.37816(16)
H8_3 H 0.314370 0.997390 0.399896
C14_3 C 0.31665(11) 0.92269(8) 0.49290(16)
C15_3 C 0.29144(12) 0.89655(9) 0.57073(16)
H9_3 H 0.258241 0.877845 0.568062
C16_3 C 0.31534(12) 0.89807(9) 0.65252(18)
H10_3 H 0.298156 0.879805 0.704064
C17_3 C 0.36450(13) 0.92650(9) 0.65826(17)
C18_3 C 0.38969(13) 0.95280(9) 0.5804(2)
H11_3 H 0.422834 0.971864 0.583673
C19_3 C 0.36600(13) 0.95111(9) 0.49689(19)
H12_3 H 0.383152 0.968823 0.444809
C20_3 C 0.38416(13) 0.93000(9) 0.75723(15)
N1_3 N 0.27698(10) 0.82361(7) 0.34646(13)
N2_3 N 0.20562(8) 0.80089(6) 0.40030(12)
N3_3 N 0.29110(8) 0.92479(6) 0.41363(12)
N4_3 N 0.23959(8) 0.90428(6) 0.29868(12)
O1_3 O 0.47194(8) 0.97278(5) 0.15366(10)
O2_3 O 0.49902(8) 0.93248(6) 0.23366(12)
O3_3 O 0.42044(8) 0.95692(6) 0.76818(12)
O4_3 O 0.35849(8) 0.90161(6) 0.82349(12)
N6_3 N 0.57095(10) 0.99802(6) 0.03465(12)
Zn2_3 Zn 0.14644(4) 0.79582(3) 0.46172(2)
Zn3_3 Zn 0.46249(3) 0.98272(2) 0.87161(2)
Zn4_3 Zn 0.18690(4) 0.87084(3) 0.20494(2)
H10_4 H 0.786862 0.751684 0.037397
C20_4 C 0.73667(9) 0.78749(9) 0.09056(15)
O3_4 O 0.70975(6) 0.79685(6) 0.10151(12)
O4_4 O 0.76506(6) 0.79021(6) 0.15682(12)
C1_4 C 0.72721(8) 0.85990(9) 0.54145(17)
C2_4 C 0.75859(8) 0.84135(8) 0.57805(17)
C3_4 C 0.75813(8) 0.80278(8) 0.53303(16)
H1_4 H 0.738807 0.789088 0.480561
C4_4 C 0.78612(8) 0.78493(8) 0.56592(16)
H2_4 H 0.786094 0.759417 0.535376
C5_4 C 0.81442(8) 0.80505(8) 0.64477(16)
C6_4 C 0.81479(9) 0.84344(8) 0.69028(18)
H3_4 H 0.833754 0.856907 0.743262
C7_4 C 0.78702(9) 0.86129(8) 0.65652(18)
H4_4 H 0.787310 0.887038 0.686665
C8_4 C 0.89171(8) 0.81344(8) 0.69358(17)
H5_4 H 0.911577 0.845890 0.681228
C9_4 C 0.90451(8) 0.78257(8) 0.72888(16)
H6_4 H 0.935360 0.790698 0.747206
C10_4 C 0.82854(8) 0.74124(8) 0.70471(15)
C11_4 C 0.77897(7) 0.70304(8) 0.69633(15)
C12_4 C 0.71289(8) 0.64363(8) 0.64172(16)
H7_4 H 0.691838 0.618101 0.604161
C13_4 C 0.70027(8) 0.66133(8) 0.71149(16)
H8_4 H 0.669277 0.650313 0.733229
C14_4 C 0.74398(8) 0.72729(8) 0.82623(16)
C15_4 C 0.77012(9) 0.72822(8) 0.90406(16)
H9_4 H 0.788822 0.713729 0.901395
C16_4 C 0.76860(9) 0.75060(8) 0.98585(18)
C17_4 C 0.74017(9) 0.77133(9) 0.99159(17)
C18_4 C 0.71387(9) 0.77022(9) 0.9137(2)
H11_4 H 0.694803 0.784303 0.917006
C19_4 C 0.71556(9) 0.74822(9) 0.83022(19)
H12_4 H 0.697844 0.747662 0.778142
N1_4 N 0.84306(7) 0.78670(7) 0.67979(13)
N2_4 N 0.86578(6) 0.73806(6) 0.73363(12)
N3_4 N 0.74188(6) 0.69964(6) 0.74696(12)
N4_4 N 0.76239(6) 0.66864(6) 0.63201(12)
O1_4 O 0.69389(5) 0.83249(6) 0.48699(10)
O2_4 O 0.73419(6) 0.89987(6) 0.56699(12)
N6_4 N 0.66864(6) 0.90626(8) 0.36799(12)
O5_4 O 0.62359(6) 0.86981(6) 0.56515(12)
Zn2_4 Zn 0.87084(3) 0.68395(2) 0.79506(2)
Zn4_4 Zn 0.79582(3) 0.64939(2) 0.53828(2)
C4_5 C 0.21507(8) 0.00118(11) 0.56592(16)
H2_5 H 0.240583 0.026676 0.535376
C5_5 C 0.19495(8) 0.00936(11) 0.64477(16)
C8_5 C 0.18656(8) 0.07826(11) 0.69358(17)
H5_5 H 0.154110 0.065686 0.681228
C9_5 C 0.21743(8) 0.12193(11) 0.72888(16)
H6_5 H 0.209302 0.144661 0.747206
C10_5 C 0.25876(8) 0.08729(11) 0.70471(15)
C11_5 C 0.29696(8) 0.07592(11) 0.69633(15)
C12_5 C 0.35637(8) 0.06925(11) 0.64172(16)
H7_5 H 0.381899 0.073736 0.604161
C13_5 C 0.33867(8) 0.03893(11) 0.71149(16)
H8_5 H 0.349687 0.018963 0.733229
C14_5 C 0.27271(8) 0.01668(11) 0.82623(16)
C15_5 C 0.27178(8) 0.04189(12) 0.90406(16)
H9_5 H 0.286271 0.075092 0.901395
C16_5 C 0.24940(8) 0.01799(12) 0.98585(18)
N1_5 N 0.21330(7) 0.05635(10) 0.67979(13)
N2_5 N 0.26194(6) 0.12771(8) 0.73363(12)
N3_5 N 0.30036(6) 0.04223(8) 0.74696(12)
N4_5 N 0.33136(6) 0.09374(8) 0.63201(12)
Zn2_5 Zn 0.31605(2) 0.18690(4) 0.79506(2)
Zn4_5 Zn 0.35061(2) 0.14644(4) 0.53828(2)
C20_5 C 0.21251(9) 0.94917(13) 0.09056(15)
O3_5 O 0.20315(6) 0.91289(8) 0.10151(12)
O4_5 O 0.20979(6) 0.97484(8) 0.15682(12)
C1_5 C 0.14010(9) 0.86730(12) 0.54145(17)
C2_5 C 0.15865(8) 0.91723(11) 0.57805(17)
C3_5 C 0.19722(8) 0.95534(11) 0.53303(16)
H1_5 H 0.210912 0.949718 0.480561
C6_5 C 0.15656(8) 0.97134(12) 0.69028(18)
H3_5 H 0.143093 0.976846 0.743262
C7_5 C 0.13871(8) 0.92572(12) 0.65652(18)
H4_5 H 0.112962 0.900271 0.686665
C17_5 C 0.22867(9) 0.96883(13) 0.99159(17)
C18_5 C 0.22978(9) 0.94364(13) 0.9137(2)
H11_5 H 0.215697 0.910499 0.917006
C19_5 C 0.25178(9) 0.96733(13) 0.83022(19)
H12_5 H 0.252338 0.950181 0.778142
O1_5 O 0.16751(6) 0.86139(8) 0.48699(10)
O2_5 O 0.10013(6) 0.83431(8) 0.56699(12)
N6_5 N 0.09374(8) 0.76239(10) 0.36799(12)
O5_5 O 0.13019(6) 0.75377(8) 0.56515(12)
C20_6 C 0.05083(13) 0.26333(9) 0.09056(15)
O3_6 O 0.08711(8) 0.29025(6) 0.10151(12)
O4_6 O 0.02516(8) 0.23494(6) 0.15682(12)
C1_6 C 0.13270(12) 0.27279(8) 0.54145(17)
C2_6 C 0.08277(11) 0.24141(8) 0.57805(17)
C3_6 C 0.04466(11) 0.24187(8) 0.53303(16)
H1_6 H 0.050282 0.261193 0.480561
C6_6 C 0.02866(12) 0.18521(9) 0.69028(18)
H3_6 H 0.023154 0.166246 0.743262
C7_6 C 0.07428(12) 0.21298(9) 0.65652(18)
H4_6 H 0.099729 0.212690 0.686665
C17_6 C 0.03117(13) 0.25983(9) 0.99159(17)
C18_6 C 0.05636(13) 0.28613(9) 0.9137(2)
H11_6 H 0.089501 0.305197 0.917006
C19_6 C 0.03267(13) 0.28444(9) 0.83022(19)
H12_6 H 0.049819 0.302156 0.778142
O1_6 O 0.13861(8) 0.30611(5) 0.48699(10)
O2_6 O 0.16569(8) 0.26581(6) 0.56699(12)
N6_6 N 0.23761(10) 0.33136(6) 0.36799(12)
O5_6 O 0.24623(8) 0.37641(6) 0.56515(12)
C4_6 C 0.99882(11) 0.21388(8) 0.56592(16)
H2_6 H 0.973324 0.213906 0.535376
C5_6 C 0.99064(11) 0.18558(8) 0.64477(16)
C8_6 C 0.92174(11) 0.10829(8) 0.69358(17)
H5_6 H 0.934314 0.088423 0.681228
C9_6 C 0.87807(11) 0.09549(8) 0.72888(16)
H6_6 H 0.855339 0.064640 0.747206
C10_6 C 0.91271(11) 0.17146(8) 0.70471(15)
C11_6 C 0.92408(11) 0.22103(7) 0.69633(15)
C12_6 C 0.93075(11) 0.28711(8) 0.64172(16)
H7_6 H 0.926264 0.308162 0.604161
C13_6 C 0.96107(11) 0.29973(8) 0.71149(16)
H8_6 H 0.981037 0.330723 0.733229
C14_6 C 0.98332(11) 0.25602(8) 0.82623(16)
C15_6 C 0.95811(12) 0.22988(9) 0.90406(16)
H9_6 H 0.924908 0.211178 0.901395
C16_6 C 0.98201(12) 0.23140(9) 0.98585(18)
N1_6 N 0.94365(10) 0.15694(7) 0.67979(13)
N2_6 N 0.87229(8) 0.13422(6) 0.73363(12)
N3_6 N 0.95777(8) 0.25812(6) 0.74696(12)
N4_6 N 0.90626(8) 0.23761(6) 0.63201(12)
Zn2_6 Zn 0.81310(4) 0.12916(3) 0.79506(2)
Zn4_6 Zn 0.85356(4) 0.20418(3) 0.53828(2)
C6_7 C 0.48145(9) 0.17678(8) 0.02362(18)
H3_7 H 0.500420 0.190241 0.076596
H4_7 H 0.453976 0.220372 0.019999
C8_7 C 0.55837(8) 0.14678(8) 0.02692(17)
H5_7 H 0.578243 0.179224 0.014562
C9_7 C 0.57117(8) 0.11591(8) 0.06222(16)
H6_7 H 0.602026 0.124032 0.080540
C10_7 C 0.49520(8) 0.07458(8) 0.03805(15)
C11_7 C 0.44563(7) 0.03638(8) 0.02967(15)
C14_7 C 0.41064(8) 0.06063(8) 0.15957(16)
C15_7 C 0.43678(9) 0.06156(8) 0.23740(16)
H9_7 H 0.455488 0.047063 0.234729
C16_7 C 0.43526(9) 0.08394(8) 0.31919(18)
H10_5 H 0.453528 0.085018 0.370731
C17_7 C 0.40683(9) 0.10467(9) 0.32493(17)
C18_7 C 0.38053(9) 0.10356(9) 0.2471(2)
H11_7 H 0.361469 0.117637 0.250340
C19_7 C 0.38222(9) 0.08156(9) 0.16356(19)
H12_7 H 0.364510 0.080996 0.111476
C20_7 C 0.40333(9) 0.12083(9) 0.42390(15)
N1_7 N 0.50972(7) 0.12004(7) 0.01313(13)
N3_7 N 0.40854(6) 0.03298(6) 0.08030(12)
O3_7 O 0.37641(6) 0.13019(6) 0.43485(12)
O4_7 O 0.43172(6) 0.12355(6) 0.49016(12)
C1_7 C 0.39387(8) 0.19324(9) 0.87479(17)
C2_7 C 0.42525(8) 0.17469(8) 0.91139(17)
C3_7 C 0.42479(8) 0.13612(8) 0.86637(16)
H1_7 H 0.405473 0.122422 0.813895
C4_7 C 0.45278(8) 0.11827(8) 0.89926(16)
H2_7 H 0.452760 0.092751 0.868710
C5_7 C 0.48108(8) 0.13839(8) 0.97811(16)
C7_7 C 0.45368(9) 0.19463(8) 0.98986(18)
N4_7 N 0.42905(6) 0.00198(6) 0.96535(12)
O1_7 O 0.36055(5) 0.16583(6) 0.82033(10)
O2_7 O 0.40085(6) 0.23321(6) 0.90033(12)
N6_7 N 0.33531(6) 0.23959(8) 0.70132(12)
O5_7 O 0.29025(6) 0.20315(6) 0.89849(12)
C12_7 C 0.37955(8) 0.97697(8) 0.97506(16)
H7_7 H 0.358504 0.951435 0.937495
C12_8 C 0.02303(8) 0.40259(11) 0.97506(16)
H7_8 H 0.048565 0.407070 0.937495
C6_8 C 0.82322(8) 0.30468(12) 0.02362(18)
H3_8 H 0.809759 0.310180 0.076596
H4_8 H 0.779628 0.233605 0.019999
C8_8 C 0.85322(8) 0.41160(11) 0.02692(17)
H5_8 H 0.820776 0.399020 0.014562
C9_8 C 0.88409(8) 0.45527(11) 0.06222(16)
H6_8 H 0.875968 0.477995 0.080540
C10_8 C 0.92542(8) 0.42063(11) 0.03805(15)
C11_8 C 0.96362(8) 0.40926(11) 0.02967(15)
C14_8 C 0.93937(8) 0.35002(11) 0.15957(16)
C15_8 C 0.93844(8) 0.37523(12) 0.23740(16)
H9_8 H 0.952937 0.408426 0.234729
C16_8 C 0.91606(8) 0.35133(12) 0.31919(18)
H10_6 H 0.914982 0.368511 0.370731
C17_8 C 0.89533(9) 0.30217(13) 0.32493(17)
C18_8 C 0.89644(9) 0.27698(13) 0.2471(2)
H11_8 H 0.882363 0.243833 0.250340
C19_8 C 0.91844(9) 0.30067(13) 0.16356(19)
H12_8 H 0.919004 0.283515 0.111476
C20_8 C 0.87917(9) 0.28251(13) 0.42390(15)
N1_8 N 0.87996(7) 0.38969(10) 0.01313(13)
N3_8 N 0.96702(6) 0.37557(8) 0.08030(12)
O3_8 O 0.86981(6) 0.24623(8) 0.43485(12)
O4_8 O 0.87645(6) 0.30818(8) 0.49016(12)
C1_8 C 0.80676(9) 0.20064(12) 0.87479(17)
C2_8 C 0.82531(8) 0.25057(11) 0.91139(17)
C3_8 C 0.86388(8) 0.28868(11) 0.86637(16)
H1_8 H 0.877578 0.283052 0.813895
C4_8 C 0.88173(8) 0.33452(11) 0.89926(16)
H2_8 H 0.907249 0.360010 0.868710
C5_8 C 0.86161(8) 0.34270(11) 0.97811(16)
C7_8 C 0.80537(8) 0.25906(12) 0.98986(18)
N4_8 N 0.99802(6) 0.42708(8) 0.96535(12)
O1_8 O 0.83417(6) 0.19473(8) 0.82033(10)
O2_8 O 0.76679(6) 0.16765(8) 0.90033(12)
N6_8 N 0.76041(8) 0.09572(10) 0.70132(12)
O5_8 O 0.79685(6) 0.08711(8) 0.89849(12)
C6_9 C 0.69532(12) 0.51855(9) 0.02362(18)
H3_9 H 0.689820 0.499580 0.076596
H4_9 H 0.766395 0.546024 0.019999
C8_9 C 0.58840(11) 0.44163(8) 0.02692(17)
H5_9 H 0.600980 0.421757 0.014562
C9_9 C 0.54473(11) 0.42883(8) 0.06222(16)
H6_9 H 0.522005 0.397974 0.080540
C10_9 C 0.57937(11) 0.50480(8) 0.03805(15)
C11_9 C 0.59074(11) 0.55437(7) 0.02967(15)
C13_7 C 0.62773(11) 0.63307(8) 0.04483(16)
H8_7 H 0.647703 0.664057 0.066563
C14_9 C 0.64998(11) 0.58936(8) 0.15957(16)
C15_9 C 0.62477(12) 0.56322(9) 0.23740(16)
H9_9 H 0.591574 0.544512 0.234729
C16_9 C 0.64867(12) 0.56474(9) 0.31919(18)
H10_7 H 0.631489 0.546472 0.370731
C17_9 C 0.69783(13) 0.59317(9) 0.32493(17)
C18_9 C 0.72302(13) 0.61947(9) 0.2471(2)
H11_9 H 0.756167 0.638531 0.250340
C19_9 C 0.69933(13) 0.61778(9) 0.16356(19)
H12_9 H 0.716485 0.635490 0.111476
C20_9 C 0.71749(13) 0.59667(9) 0.42390(15)
N1_9 N 0.61031(10) 0.49028(7) 0.01313(13)
N3_9 N 0.62443(8) 0.59146(6) 0.08030(12)
O3_9 O 0.75377(8) 0.62359(6) 0.43485(12)
O4_9 O 0.69182(8) 0.56828(6) 0.49016(12)
C1_9 C 0.79936(12) 0.60613(8) 0.87479(17)
C2_9 C 0.74943(11) 0.57475(8) 0.91139(17)
C3_9 C 0.71132(11) 0.57521(8) 0.86637(16)
H1_9 H 0.716948 0.594527 0.813895
C4_9 C 0.66548(11) 0.54722(8) 0.89926(16)
H2_9 H 0.639990 0.547240 0.868710
C5_9 C 0.65730(11) 0.51892(8) 0.97811(16)
C7_9 C 0.74094(12) 0.54632(9) 0.98986(18)
C12_9 C 0.59741(11) 0.62045(8) 0.97506(16)
H7_9 H 0.592930 0.641496 0.937495
N4_9 N 0.57292(8) 0.57095(6) 0.96535(12)
O1_9 O 0.80527(8) 0.63945(5) 0.82033(10)
O2_9 O 0.83235(8) 0.59915(6) 0.90033(12)
N6_9 N 0.90428(10) 0.66469(6) 0.70132(12)
O5_9 O 0.91289(8) 0.70975(6) 0.89849(12)
N5_4 N 0.07140(6) 0.53895(8) 0.93303(12)
C1_10 C 0.93946(8) 0.47343(9) 0.79188(17)
C2_10 C 0.90808(8) 0.49198(8) 0.75528(17)
C3_10 C 0.90854(8) 0.53055(8) 0.80030(16)
H1_10 H 0.927860 0.544245 0.852772
C4_10 C 0.88055(8) 0.54840(8) 0.76741(16)
H2_10 H 0.880573 0.573916 0.797957
C5_10 C 0.85225(8) 0.52828(8) 0.68856(16)
C6_10 C 0.85188(9) 0.48989(8) 0.64305(18)
H3_10 H 0.832913 0.476426 0.590071
C7_10 C 0.87965(9) 0.47204(8) 0.67681(18)
H4_10 H 0.879357 0.446295 0.646668
C8_10 C 0.77496(8) 0.51989(8) 0.63975(17)
H5_10 H 0.755090 0.487443 0.652105
C9_10 C 0.76216(8) 0.55076(8) 0.60445(16)
H6_10 H 0.731307 0.542635 0.586127
C10_10 C 0.83813(8) 0.59209(8) 0.62862(15)
C11_10 C 0.88770(7) 0.63029(8) 0.63700(15)
C12_10 C 0.95378(8) 0.68970(8) 0.69161(16)
H7_10 H 0.974829 0.715232 0.729172
C13_8 C 0.96640(8) 0.67200(8) 0.62184(16)
H8_8 H 0.997390 0.683020 0.600104
C14_10 C 0.92269(8) 0.60604(8) 0.50710(16)
C15_10 C 0.89655(9) 0.60511(8) 0.42927(16)
H9_10 H 0.877845 0.619604 0.431938
C16_10 C 0.89807(9) 0.58273(8) 0.34748(18)
H10_8 H 0.879805 0.581649 0.295936
C17_10 C 0.92650(9) 0.56200(9) 0.34174(17)
C18_10 C 0.95280(9) 0.56311(9) 0.4196(2)
H11_10 H 0.971864 0.549030 0.416327
C19_10 C 0.95111(9) 0.58511(9) 0.50311(19)
H12_10 H 0.968823 0.585671 0.555191
C20_10 C 0.93000(9) 0.54584(9) 0.24277(15)
N1_10 N 0.82361(7) 0.54663(7) 0.65354(13)
N2_7 N 0.80089(6) 0.59527(6) 0.59970(12)
N3_10 N 0.92479(6) 0.63369(6) 0.58637(12)
O1_10 O 0.97278(5) 0.50084(6) 0.84634(10)
O2_10 O 0.93248(6) 0.43346(6) 0.76634(12)
O4_10 O 0.90161(6) 0.54312(6) 0.17651(12)
C1_11 C 0.52657(9) 0.46603(12) 0.79188(17)
C2_11 C 0.50802(8) 0.41610(11) 0.75528(17)
C3_11 C 0.46945(8) 0.37799(11) 0.80030(16)
H1_11 H 0.455755 0.383615 0.852772
C4_11 C 0.45160(8) 0.33215(11) 0.76741(16)
H2_11 H 0.426084 0.306657 0.797957
C5_11 C 0.47172(8) 0.32397(11) 0.68856(16)
C6_11 C 0.51011(8) 0.36199(12) 0.64305(18)
H3_11 H 0.523574 0.356487 0.590071
C7_11 C 0.52796(8) 0.40761(12) 0.67681(18)
H4_11 H 0.553705 0.433062 0.646668
C8_11 C 0.48011(8) 0.25507(11) 0.63975(17)
H5_11 H 0.512557 0.267647 0.652105
C9_11 C 0.44924(8) 0.21140(11) 0.60445(16)
H6_11 H 0.457365 0.188672 0.586127
C10_11 C 0.40791(8) 0.24604(11) 0.62862(15)
C11_11 C 0.36971(8) 0.25741(11) 0.63700(15)
C12_11 C 0.31030(8) 0.26408(11) 0.69161(16)
H7_11 H 0.284768 0.259597 0.729172
C13_9 C 0.32800(8) 0.29440(11) 0.62184(16)
H8_9 H 0.316980 0.314370 0.600104
C14_11 C 0.39396(8) 0.31665(11) 0.50710(16)
C15_11 C 0.39489(8) 0.29144(12) 0.42927(16)
H9_11 H 0.380396 0.258241 0.431938
C16_11 C 0.41727(8) 0.31534(12) 0.34748(18)
H10_9 H 0.418351 0.298156 0.295936
C17_11 C 0.43800(9) 0.36450(13) 0.34174(17)
C18_11 C 0.43689(9) 0.38969(13) 0.4196(2)
H11_11 H 0.450970 0.422834 0.416327
C19_11 C 0.41489(9) 0.36600(13) 0.50311(19)
H12_11 H 0.414329 0.383152 0.555191
C20_11 C 0.45416(9) 0.38416(13) 0.24277(15)
N1_11 N 0.45337(7) 0.27698(10) 0.65354(13)
N2_8 N 0.40473(6) 0.20562(8) 0.59970(12)
N3_11 N 0.36631(6) 0.29110(8) 0.58637(12)
O1_11 O 0.49916(6) 0.47194(8) 0.84634(10)
O2_11 O 0.56654(6) 0.49902(8) 0.76634(12)
O4_11 O 0.45688(6) 0.35849(8) 0.17651(12)
N5_5 N 0.46105(8) 0.53244(10) 0.93303(12)
C1_12 C 0.53397(12) 0.06054(8) 0.79188(17)
C2_12 C 0.58390(11) 0.09192(8) 0.75528(17)
C3_12 C 0.62201(11) 0.09146(8) 0.80030(16)
H1_12 H 0.616385 0.072140 0.852772
C4_12 C 0.66785(11) 0.11945(8) 0.76741(16)
H2_12 H 0.693343 0.119427 0.797957
C5_12 C 0.67603(11) 0.14775(8) 0.68856(16)
C6_12 C 0.63801(12) 0.14812(9) 0.64305(18)
H3_12 H 0.643513 0.167087 0.590071
C7_12 C 0.59239(12) 0.12035(9) 0.67681(18)
H4_12 H 0.566938 0.120643 0.646668
C8_12 C 0.74493(11) 0.22504(8) 0.63975(17)
H5_12 H 0.732353 0.244910 0.652105
C9_12 C 0.78860(11) 0.23784(8) 0.60445(16)
H6_12 H 0.811328 0.268693 0.586127
C10_12 C 0.75396(11) 0.16187(8) 0.62862(15)
C11_12 C 0.74259(11) 0.11230(7) 0.63700(15)
C12_12 C 0.73592(11) 0.04622(8) 0.69161(16)
H7_12 H 0.740403 0.025171 0.729172
C13_10 C 0.70560(11) 0.03360(8) 0.62184(16)
H8_10 H 0.685630 0.002610 0.600104
C14_12 C 0.68335(11) 0.07731(8) 0.50710(16)
C15_12 C 0.70856(12) 0.10345(9) 0.42927(16)
H9_12 H 0.741759 0.122155 0.431938
C16_12 C 0.68466(12) 0.10193(9) 0.34748(18)
H10_10 H 0.701844 0.120195 0.295936
C17_12 C 0.63550(13) 0.07350(9) 0.34174(17)
C18_12 C 0.61031(13) 0.04720(9) 0.4196(2)
H11_12 H 0.577166 0.028136 0.416327
C19_12 C 0.63400(13) 0.04889(9) 0.50311(19)
H12_12 H 0.616848 0.031177 0.555191
C20_12 C 0.61584(13) 0.07000(9) 0.24277(15)
N1_12 N 0.72302(10) 0.17639(7) 0.65354(13)
N2_9 N 0.79438(8) 0.19911(6) 0.59970(12)
N3_12 N 0.70890(8) 0.07521(6) 0.58637(12)
O1_12 O 0.52806(8) 0.02722(5) 0.84634(10)
O2_12 O 0.50098(8) 0.06752(6) 0.76634(12)
O4_12 O 0.64151(8) 0.09839(6) 0.17651(12)
N5_6 N 0.46756(10) 0.92860(6) 0.93303(12)
C1_13 C 0.27279(8) 0.14010(9) 0.45855(17)
C2_13 C 0.24141(8) 0.15865(8) 0.42195(17)
C3_13 C 0.24187(8) 0.19722(8) 0.46697(16)
H1_13 H 0.261193 0.210912 0.519439
C4_13 C 0.21388(8) 0.21507(8) 0.43408(16)
H2_13 H 0.213906 0.240583 0.464624
C5_13 C 0.18558(8) 0.19495(8) 0.35523(16)
C6_13 C 0.18521(9) 0.15656(8) 0.30972(18)
H3_13 H 0.166246 0.143093 0.256738
C7_13 C 0.21298(9) 0.13871(8) 0.34348(18)
H4_13 H 0.212690 0.112962 0.313335
C8_13 C 0.10829(8) 0.18656(8) 0.30642(17)
H5_13 H 0.088423 0.154110 0.318772
C9_13 C 0.09549(8) 0.21743(8) 0.27112(16)
H6_13 H 0.064640 0.209302 0.252794
C10_13 C 0.17146(8) 0.25876(8) 0.29529(15)
C11_13 C 0.22103(7) 0.29696(8) 0.30367(15)
C12_13 C 0.28711(8) 0.35637(8) 0.35828(16)
H7_13 H 0.308162 0.381899 0.395839
C13_11 C 0.29973(8) 0.33867(8) 0.28851(16)
H8_11 H 0.330723 0.349687 0.266771
C14_13 C 0.25602(8) 0.27271(8) 0.17377(16)
C15_13 C 0.22988(9) 0.27178(8) 0.09594(16)
H9_13 H 0.211178 0.286271 0.098605
C16_13 C 0.23140(9) 0.24940(8) 0.01415(18)
C17_13 C 0.25983(9) 0.22867(9) 0.00841(17)
C18_13 C 0.28613(9) 0.22978(9) 0.0863(2)
H11_13 H 0.305197 0.215697 0.082994
C19_13 C 0.28444(9) 0.25178(9) 0.16978(19)
H12_13 H 0.302156 0.252338 0.221858
N1_13 N 0.15694(7) 0.21330(7) 0.32021(13)
N2_10 N 0.13422(6) 0.26194(6) 0.26637(12)
N3_13 N 0.25812(6) 0.30036(6) 0.25304(12)
O1_13 O 0.30611(5) 0.16751(6) 0.51301(10)
O2_13 O 0.26581(6) 0.10013(6) 0.43301(12)
H10_11 H 0.213138 0.248316 0.962603
C20_13 C 0.26333(9) 0.21251(9) 0.90944(15)
O4_13 O 0.23494(6) 0.20979(6) 0.84318(12)
C1_14 C 0.85990(9) 0.13270(12) 0.45855(17)
C2_14 C 0.84135(8) 0.08277(11) 0.42195(17)
C3_14 C 0.80278(8) 0.04466(11) 0.46697(16)
H1_14 H 0.789088 0.050282 0.519439
C6_14 C 0.84344(8) 0.02866(12) 0.30972(18)
H3_14 H 0.856907 0.023154 0.256738
C7_14 C 0.86129(8) 0.07428(12) 0.34348(18)
H4_14 H 0.887038 0.099729 0.313335
C17_14 C 0.77133(9) 0.03117(13) 0.00841(17)
C18_14 C 0.77022(9) 0.05636(13) 0.0863(2)
H11_14 H 0.784303 0.089501 0.082994
C19_14 C 0.74822(9) 0.03267(13) 0.16978(19)
H12_14 H 0.747662 0.049819 0.221858
O1_14 O 0.83249(6) 0.13861(8) 0.51301(10)
O2_14 O 0.89987(6) 0.16569(8) 0.43301(12)
C20_14 C 0.78749(9) 0.05083(13) 0.90944(15)
O4_14 O 0.79021(6) 0.02516(8) 0.84318(12)
C4_14 C 0.78493(8) 0.99882(11) 0.43408(16)
H2_14 H 0.759417 0.973324 0.464624
C5_14 C 0.80505(8) 0.99064(11) 0.35523(16)
C8_14 C 0.81344(8) 0.92174(11) 0.30642(17)
H5_14 H 0.845890 0.934314 0.318772
C9_14 C 0.78257(8) 0.87807(11) 0.27112(16)
H6_14 H 0.790698 0.855339 0.252794
C10_14 C 0.74124(8) 0.91271(11) 0.29529(15)
C11_14 C 0.70304(8) 0.92408(11) 0.30367(15)
C12_14 C 0.64363(8) 0.93075(11) 0.35828(16)
H7_14 H 0.618101 0.926264 0.395839
C13_12 C 0.66133(8) 0.96107(11) 0.28851(16)
H8_12 H 0.650313 0.981037 0.266771
C14_14 C 0.72729(8) 0.98332(11) 0.17377(16)
C15_14 C 0.72822(8) 0.95811(12) 0.09594(16)
H9_14 H 0.713729 0.924908 0.098605
C16_14 C 0.75060(8) 0.98201(12) 0.01415(18)
N1_14 N 0.78670(7) 0.94365(10) 0.32021(13)
N2_11 N 0.73806(6) 0.87229(8) 0.26637(12)
N3_14 N 0.69964(6) 0.95777(8) 0.25304(12)
C4_15 C 0.00118(11) 0.78612(8) 0.43408(16)
H2_15 H 0.026676 0.786094 0.464624
C5_15 C 0.00936(11) 0.81442(8) 0.35523(16)
C8_15 C 0.07826(11) 0.89171(8) 0.30642(17)
H5_15 H 0.065686 0.911577 0.318772
C9_15 C 0.12193(11) 0.90451(8) 0.27112(16)
H6_15 H 0.144661 0.935360 0.252794
C10_15 C 0.08729(11) 0.82854(8) 0.29529(15)
C11_15 C 0.07592(11) 0.77897(7) 0.30367(15)
C12_15 C 0.06925(11) 0.71289(8) 0.35828(16)
H7_15 H 0.073736 0.691838 0.395839
C13_13 C 0.03893(11) 0.70027(8) 0.28851(16)
H8_13 H 0.018963 0.669277 0.266771
C14_15 C 0.01668(11) 0.74398(8) 0.17377(16)
C15_15 C 0.04189(12) 0.77012(9) 0.09594(16)
H9_15 H 0.075092 0.788822 0.098605
C16_15 C 0.01799(12) 0.76860(9) 0.01415(18)
N1_15 N 0.05635(10) 0.84306(7) 0.32021(13)
N2_12 N 0.12771(8) 0.86578(6) 0.26637(12)
N3_15 N 0.04223(8) 0.74188(6) 0.25304(12)
C1_15 C 0.86730(12) 0.72721(8) 0.45855(17)
C2_15 C 0.91723(11) 0.75859(8) 0.42195(17)
C3_15 C 0.95534(11) 0.75813(8) 0.46697(16)
H1_15 H 0.949718 0.738807 0.519439
C6_15 C 0.97134(12) 0.81479(9) 0.30972(18)
H3_15 H 0.976846 0.833754 0.256738
C7_15 C 0.92572(12) 0.78702(9) 0.34348(18)
H4_15 H 0.900271 0.787310 0.313335
C17_15 C 0.96883(13) 0.74017(9) 0.00841(17)
C18_15 C 0.94364(13) 0.71387(9) 0.0863(2)
H11_15 H 0.910499 0.694803 0.082994
C19_15 C 0.96733(13) 0.71556(9) 0.16978(19)
H12_15 H 0.950181 0.697844 0.221858
O1_15 O 0.86139(8) 0.69389(5) 0.51301(10)
O2_15 O 0.83431(8) 0.73419(6) 0.43301(12)
C20_15 C 0.94917(13) 0.73667(9) 0.90944(15)
O4_15 O 0.97484(8) 0.76506(6) 0.84318(12)
C12_16 C 0.62045(8) 0.02303(8) 0.02494(16)
H7_16 H 0.641496 0.048565 0.062505
C1_16 C 0.60613(8) 0.80676(9) 0.12521(17)
C2_16 C 0.57475(8) 0.82531(8) 0.08861(17)
C3_16 C 0.57521(8) 0.86388(8) 0.13363(16)
H1_16 H 0.594527 0.877578 0.186105
C4_16 C 0.54722(8) 0.88173(8) 0.10074(16)
H2_16 H 0.547240 0.907249 0.131290
C5_16 C 0.51892(8) 0.86161(8) 0.02189(16)
C7_16 C 0.54632(9) 0.80537(8) 0.01014(18)
O1_16 O 0.63945(5) 0.83417(6) 0.17967(10)
O2_16 O 0.59915(6) 0.76679(6) 0.09967(12)
C6_16 C 0.51855(9) 0.82322(8) 0.97638(18)
H3_16 H 0.499580 0.809759 0.923404
H4_16 H 0.546024 0.779628 0.980001
C8_16 C 0.44163(8) 0.85322(8) 0.97308(17)
H5_16 H 0.421757 0.820776 0.985438
C9_16 C 0.42883(8) 0.88409(8) 0.93778(16)
H6_16 H 0.397974 0.875968 0.919460
C10_16 C 0.50480(8) 0.92542(8) 0.96195(15)
C11_16 C 0.55437(7) 0.96362(8) 0.97033(15)
C14_16 C 0.58936(8) 0.93937(8) 0.84043(16)
C15_16 C 0.56322(9) 0.93844(8) 0.76260(16)
H9_16 H 0.544512 0.952937 0.765271
C16_16 C 0.56474(9) 0.91606(8) 0.68081(18)
H10_12 H 0.546472 0.914982 0.629269
C17_16 C 0.59317(9) 0.89533(9) 0.67507(17)
C18_16 C 0.61947(9) 0.89644(9) 0.7529(2)
H11_16 H 0.638531 0.882363 0.749660
C19_16 C 0.61778(9) 0.91844(9) 0.83644(19)
H12_16 H 0.635490 0.919004 0.888524
C20_16 C 0.59667(9) 0.87917(9) 0.57610(15)
N1_16 N 0.49028(7) 0.87996(7) 0.98687(13)
N3_16 N 0.59146(6) 0.96702(6) 0.91970(12)
O4_16 O 0.56828(6) 0.87645(6) 0.50984(12)
C1_17 C 0.19324(9) 0.79936(12) 0.12521(17)
C2_17 C 0.17469(8) 0.74943(11) 0.08861(17)
C3_17 C 0.13612(8) 0.71132(11) 0.13363(16)
H1_17 H 0.122422 0.716948 0.186105
C4_17 C 0.11827(8) 0.66548(11) 0.10074(16)
H2_17 H 0.092751 0.639990 0.131290
C5_17 C 0.13839(8) 0.65730(11) 0.02189(16)
C7_17 C 0.19463(8) 0.74094(12) 0.01014(18)
O1_17 O 0.16583(6) 0.80527(8) 0.17967(10)
O2_17 O 0.23321(6) 0.83235(8) 0.09967(12)
C6_17 C 0.17678(8) 0.69532(12) 0.97638(18)
H3_17 H 0.190241 0.689820 0.923404
H4_17 H 0.220372 0.766395 0.980001
C8_17 C 0.14678(8) 0.58840(11) 0.97308(17)
H5_17 H 0.179224 0.600980 0.985438
C9_17 C 0.11591(8) 0.54473(11) 0.93778(16)
H6_17 H 0.124032 0.522005 0.919460
C10_17 C 0.07458(8) 0.57937(11) 0.96195(15)
C11_17 C 0.03638(8) 0.59074(11) 0.97033(15)
C14_17 C 0.06063(8) 0.64998(11) 0.84043(16)
C15_17 C 0.06156(8) 0.62477(12) 0.76260(16)
H9_17 H 0.047063 0.591574 0.765271
C16_17 C 0.08394(8) 0.64867(12) 0.68081(18)
H10_13 H 0.085018 0.631489 0.629269
C17_17 C 0.10467(9) 0.69783(13) 0.67507(17)
C18_17 C 0.10356(9) 0.72302(13) 0.7529(2)
H11_17 H 0.117637 0.756167 0.749660
C19_17 C 0.08156(9) 0.69933(13) 0.83644(19)
H12_17 H 0.080996 0.716485 0.888524
C20_17 C 0.12083(9) 0.71749(13) 0.57610(15)
N1_17 N 0.12004(7) 0.61031(10) 0.98687(13)
N3_17 N 0.03298(6) 0.62443(8) 0.91970(12)
O4_17 O 0.12355(6) 0.69182(8) 0.50984(12)
C12_17 C 0.97697(8) 0.59741(11) 0.02494(16)
H7_17 H 0.951435 0.592930 0.062505
C1_18 C 0.20064(12) 0.39387(8) 0.12521(17)
C2_18 C 0.25057(11) 0.42525(8) 0.08861(17)
C3_18 C 0.28868(11) 0.42479(8) 0.13363(16)
H1_18 H 0.283052 0.405473 0.186105
C4_18 C 0.33452(11) 0.45278(8) 0.10074(16)
H2_18 H 0.360010 0.452760 0.131290
C5_18 C 0.34270(11) 0.48108(8) 0.02189(16)
C7_18 C 0.25906(12) 0.45368(9) 0.01014(18)
C12_18 C 0.40259(11) 0.37955(8) 0.02494(16)
H7_18 H 0.407070 0.358504 0.062505
O1_18 O 0.19473(8) 0.36055(5) 0.17967(10)
O2_18 O 0.16765(8) 0.40085(6) 0.09967(12)
C6_18 C 0.30468(12) 0.48145(9) 0.97638(18)
H3_18 H 0.310180 0.500420 0.923404
H4_18 H 0.233605 0.453976 0.980001
C8_18 C 0.41160(11) 0.55837(8) 0.97308(17)
H5_18 H 0.399020 0.578243 0.985438
C9_18 C 0.45527(11) 0.57117(8) 0.93778(16)
H6_18 H 0.477995 0.602026 0.919460
C10_18 C 0.42063(11) 0.49520(8) 0.96195(15)
C11_18 C 0.40926(11) 0.44563(7) 0.97033(15)
C13_14 C 0.37227(11) 0.36693(8) 0.95517(16)
H8_14 H 0.352297 0.335943 0.933437
C14_18 C 0.35002(11) 0.41064(8) 0.84043(16)
C15_18 C 0.37523(12) 0.43678(9) 0.76260(16)
H9_18 H 0.408426 0.455488 0.765271
C16_18 C 0.35133(12) 0.43526(9) 0.68081(18)
H10_14 H 0.368511 0.453528 0.629269
C17_18 C 0.30217(13) 0.40683(9) 0.67507(17)
C18_18 C 0.27698(13) 0.38053(9) 0.7529(2)
H11_18 H 0.243833 0.361469 0.749660
C19_18 C 0.30067(13) 0.38222(9) 0.83644(19)
H12_18 H 0.283515 0.364510 0.888524
C20_18 C 0.28251(13) 0.40333(9) 0.57610(15)
N1_18 N 0.38969(10) 0.50972(7) 0.98687(13)
N3_18 N 0.37557(8) 0.40854(6) 0.91970(12)
O4_18 O 0.30818(8) 0.43172(6) 0.50984(12)
H10_15 H 0.248316 0.035177 0.037397
H10_16 H 0.964823 0.213138 0.037397
C13_15 C 0.36693(8) 0.99467(8) 0.04483(16)
H8_15 H 0.335943 0.983647 0.066563
C13_16 C 0.00533(8) 0.37227(11) 0.04483(16)
H8_16 H 0.016353 0.352297 0.066563
H10_17 H 0.751684 0.964823 0.962603
H10_18 H 0.035177 0.786862 0.962603
C13_17 C 0.63307(8) 0.00533(8) 0.95517(16)
H8_17 H 0.664057 0.016353 0.933437
C13_18 C 0.99467(8) 0.62773(11) 0.95517(16)
H8_18 H 0.983647 0.647703 0.933437
loop_
_geom_bond_atom_site_label_1
_geom_bond_atom_site_label_2
_geom_bond_site_symmetry_1
_geom_bond_site_symmetry_2
C1 C2 1_555 1_555
C2 C3 1_555 1_555
C3 H1 1_555 1_555
C4 C3 1_555 1_555
H2 C4 1_555 1_555
C5 C4 1_555 1_555
C6 C5 1_555 1_555
H3 C6 1_555 1_555
C7 C2 1_555 1_555
H4 C7 1_555 1_555
C8 H5 1_555 1_555
C9 C8 1_555 1_555
H6 C9 1_555 1_555
C10 C11 1_555 1_555
C11 N3 1_555 1_555
C12 H7 1_555 1_555
C13 C12 1_555 1_555
H8 C13 1_555 1_555
C14 C15 1_555 1_555
C15 H9 1_555 1_555
C16 C15 1_555 1_555
H10 C16 1_555 1_555
C17 C16 1_555 1_555
C18 C17 1_555 1_555
H11 C18 1_555 1_555
C19 C14 1_555 1_555
H12 C19 1_555 1_555
C20 C17 1_555 1_555
N1 C5 1_555 1_555
N2 C9 1_555 1_555
N3 C13 1_555 1_555
N4 C11 1_555 1_555
O1 C1 1_555 1_555
O2 C1 1_555 1_555
O3 C20 1_555 1_555
O4 C20 1_555 1_555
Zn2 N2 1_555 1_555
Zn3 O3 1_555 1_555
Zn4 N4 1_555 1_555
C6 C7 1_555 1_555
C8 N1 1_555 1_555
C10 N1 1_555 1_555
C10 N2 1_555 1_555
C12 N4 1_555 1_555
C14 N3 1_555 1_555
C18 C19 1_555 1_555
N5 Zn1 1_555 1_555
O5 Zn1 1_555 1_555
C1_2 C2_2 1_555 1_555
C2_2 C3_2 1_555 1_555
C3_2 H1_2 1_555 1_555
C4_2 C3_2 1_555 1_555
H2_2 C4_2 1_555 1_555
C5_2 C4_2 1_555 1_555
C6_2 C5_2 1_555 1_555
H3_2 C6_2 1_555 1_555
C7_2 C2_2 1_555 1_555
H4_2 C7_2 1_555 1_555
C8_2 H5_2 1_555 1_555
C9_2 C8_2 1_555 1_555
H6_2 C9_2 1_555 1_555
C10_2 C11_2 1_555 1_555
C11_2 N3_2 1_555 1_555
C12_2 H7_2 1_555 1_555
C13_2 C12_2 1_555 1_555
H8_2 C13_2 1_555 1_555
C14_2 C15_2 1_555 1_555
C15_2 H9_2 1_555 1_555
C16_2 C15_2 1_555 1_555
H10_2 C16_2 1_555 1_555
C17_2 C16_2 1_555 1_555
C18_2 C17_2 1_555 1_555
H11_2 C18_2 1_555 1_555
C19_2 C14_2 1_555 1_555
H12_2 C19_2 1_555 1_555
C20_2 C17_2 1_555 1_555
N1_2 C5_2 1_555 1_555
N2_2 C9_2 1_555 1_555
N3_2 C13_2 1_555 1_555
N4_2 C11_2 1_555 1_555
O1_2 C1_2 1_555 1_555
O2_2 C1_2 1_555 1_555
O3_2 C20_2 1_555 1_555
O4_2 C20_2 1_555 1_555
Zn1_2 O1_2 1_555 1_555
N5_2 Zn1_2 1_555 1_555
N6_2 Zn1_2 1_555 1_555
O5_2 Zn1_2 1_555 1_555
Zn2_2 N2_2 1_555 1_555
Zn3_2 O3_2 1_555 1_555
Zn4_2 N4_2 1_555 1_555
C6_2 C7_2 1_555 1_555
C8_2 N1_2 1_555 1_555
C10_2 N1_2 1_555 1_555
C10_2 N2_2 1_555 1_555
C12_2 N4_2 1_555 1_555
C14_2 N3_2 1_555 1_555
C18_2 C19_2 1_555 1_555
N5_3 Zn1_3 1_555 1_555
O5_3 Zn1_3 1_555 1_555
C1_3 C2_3 1_555 1_555
C2_3 C3_3 1_555 1_555
C3_3 H1_3 1_555 1_555
C4_3 C3_3 1_555 1_555
H2_3 C4_3 1_555 1_555
C5_3 C4_3 1_555 1_555
C6_3 C5_3 1_555 1_555
H3_3 C6_3 1_555 1_555
C7_3 C2_3 1_555 1_555
H4_3 C7_3 1_555 1_555
C8_3 H5_3 1_555 1_555
C9_3 C8_3 1_555 1_555
H6_3 C9_3 1_555 1_555
C10_3 C11_3 1_555 1_555
C11_3 N3_3 1_555 1_555
C12_3 H7_3 1_555 1_555
C13_3 C12_3 1_555 1_555
H8_3 C13_3 1_555 1_555
C14_3 C15_3 1_555 1_555
C15_3 H9_3 1_555 1_555
C16_3 C15_3 1_555 1_555
H10_3 C16_3 1_555 1_555
C17_3 C16_3 1_555 1_555
C18_3 C17_3 1_555 1_555
H11_3 C18_3 1_555 1_555
C19_3 C14_3 1_555 1_555
H12_3 C19_3 1_555 1_555
C20_3 C17_3 1_555 1_555
N1_3 C5_3 1_555 1_555
N2_3 C9_3 1_555 1_555
N3_3 C13_3 1_555 1_555
N4_3 C11_3 1_555 1_555
O1_3 C1_3 1_555 1_555
O2_3 C1_3 1_555 1_555
O3_3 C20_3 1_555 1_555
O4_3 C20_3 1_555 1_555
Zn2_3 N2_3 1_555 1_555
Zn3_3 O3_3 1_555 1_555
Zn4_3 N4_3 1_555 1_555
C6_3 C7_3 1_555 1_555
C8_3 N1_3 1_555 1_555
C10_3 N1_3 1_555 1_555
C10_3 N2_3 1_555 1_555
C12_3 N4_3 1_555 1_555
C14_3 N3_3 1_555 1_555
C18_3 C19_3 1_555 1_555
O3_4 C20_4 1_555 1_555
O4_4 C20_4 1_555 1_555
Zn4_2 O3_4 1_555 1_555
C1_4 C2_4 1_555 1_555
C2_4 C3_4 1_555 1_555
C3_4 H1_4 1_555 1_555
C4_4 C3_4 1_555 1_555
H2_4 C4_4 1_555 1_555
C5_4 C4_4 1_555 1_555
C6_4 C5_4 1_555 1_555
H3_4 C6_4 1_555 1_555
C7_4 C2_4 1_555 1_555
H4_4 C7_4 1_555 1_555
C8_4 H5_4 1_555 1_555
C9_4 C8_4 1_555 1_555
H6_4 C9_4 1_555 1_555
C10_4 C11_4 1_555 1_555
C11_4 N3_4 1_555 1_555
C12_4 H7_4 1_555 1_555
C13_4 C12_4 1_555 1_555
H8_4 C13_4 1_555 1_555
C14_4 C15_4 1_555 1_555
C15_4 H9_4 1_555 1_555
C16_4 C15_4 1_555 1_555
C17_4 C16_4 1_555 1_555
C18_4 C17_4 1_555 1_555
H11_4 C18_4 1_555 1_555
C19_4 C14_4 1_555 1_555
H12_4 C19_4 1_555 1_555
N1_4 C5_4 1_555 1_555
N2_4 C9_4 1_555 1_555
N3_4 C13_4 1_555 1_555
N4_4 C11_4 1_555 1_555
O1_4 C1_4 1_555 1_555
O2_4 C1_4 1_555 1_555
Zn2_2 O1_4 1_555 1_555
N6_4 Zn2_2 1_555 1_555
O5_4 Zn2_2 1_555 1_555
Zn2_4 N2_4 1_555 1_555
Zn4_4 N4_4 1_555 1_555
C6_4 C7_4 1_555 1_555
C8_4 N1_4 1_555 1_555
C10_4 N1_4 1_555 1_555
C10_4 N2_4 1_555 1_555
C12_4 N4_4 1_555 1_555
C14_4 N3_4 1_555 1_555
C18_4 C19_4 1_555 1_555
H2_5 C4_5 1_555 1_555
C5_5 C4_5 1_555 1_555
C8_5 H5_5 1_555 1_555
C9_5 C8_5 1_555 1_555
H6_5 C9_5 1_555 1_555
C10_5 C11_5 1_555 1_555
C11_5 N3_5 1_555 1_555
C12_5 H7_5 1_555 1_555
C13_5 C12_5 1_555 1_555
H8_5 C13_5 1_555 1_555
C14_5 C15_5 1_555 1_555
C15_5 H9_5 1_555 1_555
C16_5 C15_5 1_555 1_555
N1_5 C5_5 1_555 1_555
N2_5 C9_5 1_555 1_555
N3_5 C13_5 1_555 1_555
N4_5 C11_5 1_555 1_555
Zn2_5 N2_5 1_555 1_555
Zn4_5 N4_5 1_555 1_555
C8_5 N1_5 1_555 1_555
C10_5 N1_5 1_555 1_555
C10_5 N2_5 1_555 1_555
C12_5 N4_5 1_555 1_555
C14_5 N3_5 1_555 1_555
O3_5 C20_5 1_555 1_555
O4_5 C20_5 1_555 1_555
Zn4_3 O3_5 1_555 1_555
C1_5 C2_5 1_555 1_555
C2_5 C3_5 1_555 1_555
C3_5 H1_5 1_555 1_555
H3_5 C6_5 1_555 1_555
C7_5 C2_5 1_555 1_555
H4_5 C7_5 1_555 1_555
C18_5 C17_5 1_555 1_555
H11_5 C18_5 1_555 1_555
H12_5 C19_5 1_555 1_555
O1_5 C1_5 1_555 1_555
O2_5 C1_5 1_555 1_555
Zn2_3 O1_5 1_555 1_555
N6_5 Zn2_3 1_555 1_555
O5_5 Zn2_3 1_555 1_555
C6_5 C7_5 1_555 1_555
C18_5 C19_5 1_555 1_555
O3_6 C20_6 1_555 1_555
O4_6 C20_6 1_555 1_555
Zn4 O3_6 1_555 1_555
C1_6 C2_6 1_555 1_555
C2_6 C3_6 1_555 1_555
C3_6 H1_6 1_555 1_555
H3_6 C6_6 1_555 1_555
C7_6 C2_6 1_555 1_555
H4_6 C7_6 1_555 1_555
C18_6 C17_6 1_555 1_555
H11_6 C18_6 1_555 1_555
H12_6 C19_6 1_555 1_555
O1_6 C1_6 1_555 1_555
O2_6 C1_6 1_555 1_555
Zn2 O1_6 1_555 1_555
N6_6 Zn2 1_555 1_555
O5_6 Zn2 1_555 1_555
C6_6 C7_6 1_555 1_555
C18_6 C19_6 1_555 1_555
H2_6 C4_6 1_555 1_555
C5_6 C4_6 1_555 1_555
C8_6 H5_6 1_555 1_555
C9_6 C8_6 1_555 1_555
H6_6 C9_6 1_555 1_555
C10_6 C11_6 1_555 1_555
C11_6 N3_6 1_555 1_555
C12_6 H7_6 1_555 1_555
C13_6 C12_6 1_555 1_555
H8_6 C13_6 1_555 1_555
C14_6 C15_6 1_555 1_555
C15_6 H9_6 1_555 1_555
C16_6 C15_6 1_555 1_555
N1_6 C5_6 1_555 1_555
N2_6 C9_6 1_555 1_555
N3_6 C13_6 1_555 1_555
N4_6 C11_6 1_555 1_555
Zn2_6 N2_6 1_555 1_555
Zn4_6 N4_6 1_555 1_555
C8_6 N1_6 1_555 1_555
C10_6 N1_6 1_555 1_555
C10_6 N2_6 1_555 1_555
C12_6 N4_6 1_555 1_555
C14_6 N3_6 1_555 1_555
H3_7 C6_7 1_555 1_555
C8_7 H5_7 1_555 1_555
C9_7 C8_7 1_555 1_555
H6_7 C9_7 1_555 1_555
C10_7 C11_7 1_555 1_555
C11_7 N3_7 1_555 1_555
C14_7 C15_7 1_555 1_555
C15_7 H9_7 1_555 1_555
C16_7 C15_7 1_555 1_555
H10_5 C16_7 1_555 1_555
C17_7 C16_7 1_555 1_555
C18_7 C17_7 1_555 1_555
H11_7 C18_7 1_555 1_555
C19_7 C14_7 1_555 1_555
H12_7 C19_7 1_555 1_555
C20_7 C17_7 1_555 1_555
N5_3 C9_7 1_555 1_555
O3_7 C20_7 1_555 1_555
O4_7 C20_7 1_555 1_555
Zn4_5 O3_7 1_555 1_555
C8_7 N1_7 1_555 1_555
C10_7 N1_7 1_555 1_555
C10_7 N5_3 1_555 1_555
C14_7 N3_7 1_555 1_555
C18_7 C19_7 1_555 1_555
C1_7 C2_7 1_555 1_555
C2_7 C3_7 1_555 1_555
C3_7 H1_7 1_555 1_555
C4_7 C3_7 1_555 1_555
H2_7 C4_7 1_555 1_555
C5_7 C4_7 1_555 1_555
C7_7 C2_7 1_555 1_555
O1_7 C1_7 1_555 1_555
O2_7 C1_7 1_555 1_555
Zn2_5 O1_7 1_555 1_555
N6_7 Zn2_5 1_555 1_555
O5_7 Zn2_5 1_555 1_555
C12_7 H7_7 1_555 1_555
C12_8 H7_8 1_555 1_555
H3_8 C6_8 1_555 1_555
C8_8 H5_8 1_555 1_555
C9_8 C8_8 1_555 1_555
H6_8 C9_8 1_555 1_555
C10_8 C11_8 1_555 1_555
C11_8 N3_8 1_555 1_555
C14_8 C15_8 1_555 1_555
C15_8 H9_8 1_555 1_555
C16_8 C15_8 1_555 1_555
H10_6 C16_8 1_555 1_555
C17_8 C16_8 1_555 1_555
C18_8 C17_8 1_555 1_555
H11_8 C18_8 1_555 1_555
C19_8 C14_8 1_555 1_555
H12_8 C19_8 1_555 1_555
C20_8 C17_8 1_555 1_555
N5 C9_8 1_555 1_555
O3_8 C20_8 1_555 1_555
O4_8 C20_8 1_555 1_555
Zn4_6 O3_8 1_555 1_555
C8_8 N1_8 1_555 1_555
C10_8 N1_8 1_555 1_555
C10_8 N5 1_555 1_555
C14_8 N3_8 1_555 1_555
C18_8 C19_8 1_555 1_555
C1_8 C2_8 1_555 1_555
C2_8 C3_8 1_555 1_555
C3_8 H1_8 1_555 1_555
C4_8 C3_8 1_555 1_555
H2_8 C4_8 1_555 1_555
C5_8 C4_8 1_555 1_555
C7_8 C2_8 1_555 1_555
O1_8 C1_8 1_555 1_555
O2_8 C1_8 1_555 1_555
Zn2_6 O1_8 1_555 1_555
N6_8 Zn2_6 1_555 1_555
O5_8 Zn2_6 1_555 1_555
H3_9 C6_9 1_555 1_555
C8_9 H5_9 1_555 1_555
C9_9 C8_9 1_555 1_555
H6_9 C9_9 1_555 1_555
C10_9 C11_9 1_555 1_555
C11_9 N3_9 1_555 1_555
H8_7 C13_7 1_555 1_555
C14_9 C15_9 1_555 1_555
C15_9 H9_9 1_555 1_555
C16_9 C15_9 1_555 1_555
H10_7 C16_9 1_555 1_555
C17_9 C16_9 1_555 1_555
C18_9 C17_9 1_555 1_555
H11_9 C18_9 1_555 1_555
C19_9 C14_9 1_555 1_555
H12_9 C19_9 1_555 1_555
C20_9 C17_9 1_555 1_555
N5_2 C9_9 1_555 1_555
N3_9 C13_7 1_555 1_555
O3_9 C20_9 1_555 1_555
O4_9 C20_9 1_555 1_555
Zn4_4 O3_9 1_555 1_555
C8_9 N1_9 1_555 1_555
C10_9 N1_9 1_555 1_555
C10_9 N5_2 1_555 1_555
C14_9 N3_9 1_555 1_555
C18_9 C19_9 1_555 1_555
C1_9 C2_9 1_555 1_555
C2_9 C3_9 1_555 1_555
C3_9 H1_9 1_555 1_555
C4_9 C3_9 1_555 1_555
H2_9 C4_9 1_555 1_555
C5_9 C4_9 1_555 1_555
C7_9 C2_9 1_555 1_555
C12_9 H7_9 1_555 1_555
O1_9 C1_9 1_555 1_555
O2_9 C1_9 1_555 1_555
Zn2_4 O1_9 1_555 1_555
N6_9 Zn2_4 1_555 1_555
O5_9 Zn2_4 1_555 1_555
Zn3_2 N4_9 1_555 1_555
C12_9 N4_9 1_555 1_555
N5_4 Zn3 1_555 1_555
C1_10 C2_10 1_555 1_555
C2_10 C3_10 1_555 1_555
C3_10 H1_10 1_555 1_555
C4_10 C3_10 1_555 1_555
H2_10 C4_10 1_555 1_555
C5_10 C4_10 1_555 1_555
C6_10 C5_10 1_555 1_555
H3_10 C6_10 1_555 1_555
C7_10 C2_10 1_555 1_555
H4_10 C7_10 1_555 1_555
C8_10 H5_10 1_555 1_555
C9_10 C8_10 1_555 1_555
H6_10 C9_10 1_555 1_555
C10_10 C11_10 1_555 1_555
C11_10 N3_10 1_555 1_555
C12_10 H7_10 1_555 1_555
C13_8 C12_10 1_555 1_555
H8_8 C13_8 1_555 1_555
C14_10 C15_10 1_555 1_555
C15_10 H9_10 1_555 1_555
C16_10 C15_10 1_555 1_555
H10_8 C16_10 1_555 1_555
C17_10 C16_10 1_555 1_555
C18_10 C17_10 1_555 1_555
H11_10 C18_10 1_555 1_555
C19_10 C14_10 1_555 1_555
H12_10 C19_10 1_555 1_555
C20_10 C17_10 1_555 1_555
N1_10 C5_10 1_555 1_555
N2_7 C9_10 1_555 1_555
N3_10 C13_8 1_555 1_555
N6_9 C11_10 1_555 1_555
O1_10 C1_10 1_555 1_555
O2_10 C1_10 1_555 1_555
O5 C20_10 1_555 1_555
O4_10 C20_10 1_555 1_555
Zn4_4 N2_7 1_555 1_555
C6_10 C7_10 1_555 1_555
C8_10 N1_10 1_555 1_555
C10_10 N1_10 1_555 1_555
C10_10 N2_7 1_555 1_555
C12_10 N6_9 1_555 1_555
C14_10 N3_10 1_555 1_555
C18_10 C19_10 1_555 1_555
C1_11 C2_11 1_555 1_555
C2_11 C3_11 1_555 1_555
C3_11 H1_11 1_555 1_555
C4_11 C3_11 1_555 1_555
H2_11 C4_11 1_555 1_555
C5_11 C4_11 1_555 1_555
C6_11 C5_11 1_555 1_555
H3_11 C6_11 1_555 1_555
C7_11 C2_11 1_555 1_555
H4_11 C7_11 1_555 1_555
C8_11 H5_11 1_555 1_555
C9_11 C8_11 1_555 1_555
H6_11 C9_11 1_555 1_555
C10_11 C11_11 1_555 1_555
C11_11 N3_11 1_555 1_555
C12_11 H7_11 1_555 1_555
C13_9 C12_11 1_555 1_555
H8_9 C13_9 1_555 1_555
C14_11 C15_11 1_555 1_555
C15_11 H9_11 1_555 1_555
C16_11 C15_11 1_555 1_555
H10_9 C16_11 1_555 1_555
C17_11 C16_11 1_555 1_555
C18_11 C17_11 1_555 1_555
H11_11 C18_11 1_555 1_555
C19_11 C14_11 1_555 1_555
H12_11 C19_11 1_555 1_555
C20_11 C17_11 1_555 1_555
N1_11 C5_11 1_555 1_555
N2_8 C9_11 1_555 1_555
N3_11 C13_9 1_555 1_555
N6_7 C11_11 1_555 1_555
O1_11 C1_11 1_555 1_555
O2_11 C1_11 1_555 1_555
O5_2 C20_11 1_555 1_555
O4_11 C20_11 1_555 1_555
Zn3_2 O1_11 1_555 1_555
N5_5 Zn3_2 1_555 1_555
Zn4_5 N2_8 1_555 1_555
C6_11 C7_11 1_555 1_555
C8_11 N1_11 1_555 1_555
C10_11 N1_11 1_555 1_555
C10_11 N2_8 1_555 1_555
C12_11 N6_7 1_555 1_555
C14_11 N3_11 1_555 1_555
C18_11 C19_11 1_555 1_555
C1_12 C2_12 1_555 1_555
C2_12 C3_12 1_555 1_555
C3_12 H1_12 1_555 1_555
C4_12 C3_12 1_555 1_555
H2_12 C4_12 1_555 1_555
C5_12 C4_12 1_555 1_555
C6_12 C5_12 1_555 1_555
H3_12 C6_12 1_555 1_555
C7_12 C2_12 1_555 1_555
H4_12 C7_12 1_555 1_555
C8_12 H5_12 1_555 1_555
C9_12 C8_12 1_555 1_555
H6_12 C9_12 1_555 1_555
C10_12 C11_12 1_555 1_555
C11_12 N3_12 1_555 1_555
C12_12 H7_12 1_555 1_555
C13_10 C12_12 1_555 1_555
H8_10 C13_10 1_555 1_555
C14_12 C15_12 1_555 1_555
C15_12 H9_12 1_555 1_555
C16_12 C15_12 1_555 1_555
H10_10 C16_12 1_555 1_555
C17_12 C16_12 1_555 1_555
C18_12 C17_12 1_555 1_555
H11_12 C18_12 1_555 1_555
C19_12 C14_12 1_555 1_555
H12_12 C19_12 1_555 1_555
C20_12 C17_12 1_555 1_555
N1_12 C5_12 1_555 1_555
N2_9 C9_12 1_555 1_555
N3_12 C13_10 1_555 1_555
N6_8 C11_12 1_555 1_555
O1_12 C1_12 1_555 1_555
O2_12 C1_12 1_555 1_555
O5_3 C20_12 1_555 1_555
O4_12 C20_12 1_555 1_555
Zn4_6 N2_9 1_555 1_555
C6_12 C7_12 1_555 1_555
C8_12 N1_12 1_555 1_555
C10_12 N1_12 1_555 1_555
C10_12 N2_9 1_555 1_555
C12_12 N6_8 1_555 1_555
C14_12 N3_12 1_555 1_555
C18_12 C19_12 1_555 1_555
N5_6 Zn3_3 1_555 1_555
C1_13 C2_13 1_555 1_555
C2_13 C3_13 1_555 1_555
C3_13 H1_13 1_555 1_555
C4_13 C3_13 1_555 1_555
H2_13 C4_13 1_555 1_555
C5_13 C4_13 1_555 1_555
C6_13 C5_13 1_555 1_555
H3_13 C6_13 1_555 1_555
C7_13 C2_13 1_555 1_555
H4_13 C7_13 1_555 1_555
C8_13 H5_13 1_555 1_555
C9_13 C8_13 1_555 1_555
H6_13 C9_13 1_555 1_555
C10_13 C11_13 1_555 1_555
C11_13 N3_13 1_555 1_555
C12_13 H7_13 1_555 1_555
C13_11 C12_13 1_555 1_555
H8_11 C13_11 1_555 1_555
C14_13 C15_13 1_555 1_555
C15_13 H9_13 1_555 1_555
C16_13 C15_13 1_555 1_555
C17_13 C16_13 1_555 1_555
C18_13 C17_13 1_555 1_555
H11_13 C18_13 1_555 1_555
C19_13 C14_13 1_555 1_555
H12_13 C19_13 1_555 1_555
N1_13 C5_13 1_555 1_555
N2_10 C9_13 1_555 1_555
N3_13 C13_11 1_555 1_555
N6_6 C11_13 1_555 1_555
O1_13 C1_13 1_555 1_555
O2_13 C1_13 1_555 1_555
Zn4_5 O1_13 1_555 1_555
Zn4 N2_10 1_555 1_555
C6_13 C7_13 1_555 1_555
C8_13 N1_13 1_555 1_555
C10_13 N1_13 1_555 1_555
C10_13 N2_10 1_555 1_555
C12_13 N6_6 1_555 1_555
C14_13 N3_13 1_555 1_555
C18_13 C19_13 1_555 1_555
O5_7 C20_13 1_555 1_555
O4_13 C20_13 1_555 1_555
C1_14 C2_14 1_555 1_555
C2_14 C3_14 1_555 1_555
C3_14 H1_14 1_555 1_555
H3_14 C6_14 1_555 1_555
C7_14 C2_14 1_555 1_555
H4_14 C7_14 1_555 1_555
C18_14 C17_14 1_555 1_555
H11_14 C18_14 1_555 1_555
H12_14 C19_14 1_555 1_555
O1_14 C1_14 1_555 1_555
O2_14 C1_14 1_555 1_555
Zn4_6 O1_14 1_555 1_555
C6_14 C7_14 1_555 1_555
C18_14 C19_14 1_555 1_555
O5_8 C20_14 1_555 1_555
O4_14 C20_14 1_555 1_555
H2_14 C4_14 1_555 1_555
C5_14 C4_14 1_555 1_555
C8_14 H5_14 1_555 1_555
C9_14 C8_14 1_555 1_555
H6_14 C9_14 1_555 1_555
C10_14 C11_14 1_555 1_555
C11_14 N3_14 1_555 1_555
C12_14 H7_14 1_555 1_555
C13_12 C12_14 1_555 1_555
H8_12 C13_12 1_555 1_555
C14_14 C15_14 1_555 1_555
C15_14 H9_14 1_555 1_555
C16_14 C15_14 1_555 1_555
N1_14 C5_14 1_555 1_555
N2_11 C9_14 1_555 1_555
N3_14 C13_12 1_555 1_555
N6_4 C11_14 1_555 1_555
Zn4_2 N2_11 1_555 1_555
C8_14 N1_14 1_555 1_555
C10_14 N1_14 1_555 1_555
C10_14 N2_11 1_555 1_555
C12_14 N6_4 1_555 1_555
C14_14 N3_14 1_555 1_555
H2_15 C4_15 1_555 1_555
C5_15 C4_15 1_555 1_555
C8_15 H5_15 1_555 1_555
C9_15 C8_15 1_555 1_555
H6_15 C9_15 1_555 1_555
C10_15 C11_15 1_555 1_555
C11_15 N3_15 1_555 1_555
C12_15 H7_15 1_555 1_555
C13_13 C12_15 1_555 1_555
H8_13 C13_13 1_555 1_555
C14_15 C15_15 1_555 1_555
C15_15 H9_15 1_555 1_555
C16_15 C15_15 1_555 1_555
N1_15 C5_15 1_555 1_555
N2_12 C9_15 1_555 1_555
N3_15 C13_13 1_555 1_555
N6_5 C11_15 1_555 1_555
Zn4_3 N2_12 1_555 1_555
C8_15 N1_15 1_555 1_555
C10_15 N1_15 1_555 1_555
C10_15 N2_12 1_555 1_555
C12_15 N6_5 1_555 1_555
C14_15 N3_15 1_555 1_555
C1_15 C2_15 1_555 1_555
C2_15 C3_15 1_555 1_555
C3_15 H1_15 1_555 1_555
H3_15 C6_15 1_555 1_555
C7_15 C2_15 1_555 1_555
H4_15 C7_15 1_555 1_555
C18_15 C17_15 1_555 1_555
H11_15 C18_15 1_555 1_555
H12_15 C19_15 1_555 1_555
O1_15 C1_15 1_555 1_555
O2_15 C1_15 1_555 1_555
Zn4_4 O1_15 1_555 1_555
C6_15 C7_15 1_555 1_555
C18_15 C19_15 1_555 1_555
O5_9 C20_15 1_555 1_555
O4_15 C20_15 1_555 1_555
C12_16 H7_16 1_555 1_555
C1_16 C2_16 1_555 1_555
C2_16 C3_16 1_555 1_555
C3_16 H1_16 1_555 1_555
C4_16 C3_16 1_555 1_555
H2_16 C4_16 1_555 1_555
C5_16 C4_16 1_555 1_555
C7_16 C2_16 1_555 1_555
O1_16 C1_16 1_555 1_555
O2_16 C1_16 1_555 1_555
Zn4_2 O1_16 1_555 1_555
H3_16 C6_16 1_555 1_555
C8_16 H5_16 1_555 1_555
C9_16 C8_16 1_555 1_555
H6_16 C9_16 1_555 1_555
C10_16 C11_16 1_555 1_555
C11_16 N3_16 1_555 1_555
C14_16 C15_16 1_555 1_555
C15_16 H9_16 1_555 1_555
C16_16 C15_16 1_555 1_555
H10_12 C16_16 1_555 1_555
C17_16 C16_16 1_555 1_555
C18_16 C17_16 1_555 1_555
H11_16 C18_16 1_555 1_555
C19_16 C14_16 1_555 1_555
H12_16 C19_16 1_555 1_555
C20_16 C17_16 1_555 1_555
N5_6 C9_16 1_555 1_555
O5_4 C20_16 1_555 1_555
O4_16 C20_16 1_555 1_555
C8_16 N1_16 1_555 1_555
C10_16 N1_16 1_555 1_555
C10_16 N5_6 1_555 1_555
C14_16 N3_16 1_555 1_555
C18_16 C19_16 1_555 1_555
C1_17 C2_17 1_555 1_555
C2_17 C3_17 1_555 1_555
C3_17 H1_17 1_555 1_555
C4_17 C3_17 1_555 1_555
H2_17 C4_17 1_555 1_555
C5_17 C4_17 1_555 1_555
C7_17 C2_17 1_555 1_555
O1_17 C1_17 1_555 1_555
O2_17 C1_17 1_555 1_555
Zn4_3 O1_17 1_555 1_555
H3_17 C6_17 1_555 1_555
C8_17 H5_17 1_555 1_555
C9_17 C8_17 1_555 1_555
H6_17 C9_17 1_555 1_555
C10_17 C11_17 1_555 1_555
C11_17 N3_17 1_555 1_555
C14_17 C15_17 1_555 1_555
C15_17 H9_17 1_555 1_555
C16_17 C15_17 1_555 1_555
H10_13 C16_17 1_555 1_555
C17_17 C16_17 1_555 1_555
C18_17 C17_17 1_555 1_555
H11_17 C18_17 1_555 1_555
C19_17 C14_17 1_555 1_555
H12_17 C19_17 1_555 1_555
C20_17 C17_17 1_555 1_555
N5_4 C9_17 1_555 1_555
O5_5 C20_17 1_555 1_555
O4_17 C20_17 1_555 1_555
C8_17 N1_17 1_555 1_555
C10_17 N1_17 1_555 1_555
C10_17 N5_4 1_555 1_555
C14_17 N3_17 1_555 1_555
C18_17 C19_17 1_555 1_555
C12_17 H7_17 1_555 1_555
C1_18 C2_18 1_555 1_555
C2_18 C3_18 1_555 1_555
C3_18 H1_18 1_555 1_555
C4_18 C3_18 1_555 1_555
H2_18 C4_18 1_555 1_555
C5_18 C4_18 1_555 1_555
C7_18 C2_18 1_555 1_555
C12_18 H7_18 1_555 1_555
O1_18 C1_18 1_555 1_555
O2_18 C1_18 1_555 1_555
Zn4 O1_18 1_555 1_555
C12_18 N6_2 1_555 1_555
H3_18 C6_18 1_555 1_555
C8_18 H5_18 1_555 1_555
C9_18 C8_18 1_555 1_555
H6_18 C9_18 1_555 1_555
C10_18 C11_18 1_555 1_555
C11_18 N3_18 1_555 1_555
H8_14 C13_14 1_555 1_555
C14_18 C15_18 1_555 1_555
C15_18 H9_18 1_555 1_555
C16_18 C15_18 1_555 1_555
H10_14 C16_18 1_555 1_555
C17_18 C16_18 1_555 1_555
C18_18 C17_18 1_555 1_555
H11_18 C18_18 1_555 1_555
C19_18 C14_18 1_555 1_555
H12_18 C19_18 1_555 1_555
C20_18 C17_18 1_555 1_555
N5_5 C9_18 1_555 1_555
N3_18 C13_14 1_555 1_555
O5_6 C20_18 1_555 1_555
O4_18 C20_18 1_555 1_555
C8_18 N1_18 1_555 1_555
C10_18 N1_18 1_555 1_555
C10_18 N5_5 1_555 1_555
C14_18 N3_18 1_555 1_555
C18_18 C19_18 1_555 1_555
H8_15 C13_15 1_555 1_555
H8_16 C13_16 1_555 1_555
H8_17 C13_17 1_555 1_555
H8_18 C13_18 1_555 1_555

#END
