
###############################################################################
#
# This file contains modified crystal structure data generated from the
# MOF subset of the Cambridge Structural Database (CSD) v543 
# hosted by the Cambridge Crystallographic Data Centre (CCDC).
#
# This work is licensed under the Creative Commons
# Attribution-NonCommercial-ShareAlike 4.0 International License.
# To view a copy of this license, visit
# http://creativecommons.org/licenses/by-nc-sa/4.0/
# or send a letter to
# Creative Commons, PO Box 1866, Mountain View, CA 94042, USA.
#
# CIF created using the CSD Python API on 29 September 2022
# The structure has been converted into the P1 space group
# The structure has a 3D framework
# The original CSD entry HUYKER is in the cubic crystal system
# The original CSD entry HUYKER is in a Sohncke space group
# The framework has been calculated to contain at least 10.0% void space
# The void calculation uses a probe of radius 1.32A, grid spacing 0.4
# H atom positions have been added when not included in the experimental data
#
###############################################################################

data_HUYKER
_chemical_formula_moiety         '(C480 H528 N48 Ni24 O144)n'
_symmetry_cell_setting           triclinic
_symmetry_space_group_name_H-M   'P 1'
_symmetry_Int_Tables_number      1
_space_group_name_Hall           'P 1'
loop_
_symmetry_equiv_pos_site_id
_symmetry_equiv_pos_as_xyz
1 x,y,z
_cell_length_a                   28.400(4)
_cell_length_b                   28.400(4)
_cell_length_c                   28.400(4)
_cell_angle_alpha                90
_cell_angle_beta                 90
_cell_angle_gamma                90
_cell_volume                     22906.3
loop_
_atom_site_label
_atom_site_type_symbol
_atom_site_fract_x
_atom_site_fract_y
_atom_site_fract_z
C15 C 0.5989(2) 0.0375(2) 0.0694(2)
O6 O 0.58802(16) 0.05662(15) 0.10804(15)
O7 O 0.63087(16) 0.05156(16) 0.04249(14)
H11 H 0.5224 0.0012 0.1090
Ni3 Ni 0.6250 0.10100(3) 0.14900(3)
C47 C 0.5894(4) 0.0780(3) 0.2469(3)
H43 H 0.6215 0.0822 0.2555
C48 C 0.5578(6) 0.0662(3) 0.2802(4)
H44 H 0.5689 0.0615 0.3114
C49 C 0.5148(7) 0.0609(3) 0.2725(5)
H45 H 0.4933 0.0535 0.2971
C50 C 0.5001(4) 0.0664(3) 0.2265(5)
H46 H 0.4677 0.0622 0.2189
C51 C 0.5315(3) 0.0779(3) 0.1913(3)
H47 H 0.5209 0.0814 0.1597
N5 N 0.5765(3) 0.08387(18) 0.20187(19)
C52 C 0.6606(4) 0.0031(3) 0.1720(3)
C55 C 0.7499(4) 0.0235(5) 0.1836(3)
H51 H 0.7823 0.0311 0.1878
C56 C 0.7185(3) 0.0587(3) 0.1721(3)
H52 H 0.7291 0.0903 0.1686
N6 N 0.6735(3) 0.04813(19) 0.16613(18)
C57 C 0.6522(5) 0.1665(4) 0.0755(4)
C58 C 0.6804(11) 0.2034(10) 0.0940(11)
H53 H 0.6717 0.2091 0.1269
H54 H 0.6753 0.2321 0.0756
H55 H 0.7136 0.1944 0.0923
O17 O 0.66664(19) 0.12153(17) 0.09124(16)
H56 H 0.6491 0.1008 0.0794
C59 C 0.5978(5) 0.1745(4) 0.0835(4)
C60 C 0.5696(11) 0.1560(11) 0.0466(10)
H57 H 0.5783 0.1231 0.0409
H58 H 0.5747 0.1744 0.0179
H59 H 0.5364 0.1577 0.0556
O18 O 0.58336(19) 0.15876(16) 0.12847(17)
H60 H 0.6009 0.1706 0.1492
O20 O 0.66198(16) 0.14196(15) 0.19338(15)
H65 H 0.65763 0.16684 0.0375429
H66 H 0.59237 0.212457 0.08316
H27 H 0.7971 0.0067 0.9465
H28 H 0.7189 0.0323 0.9378
C1 C 0.4625(2) 0.9306(2) 0.0989(2)
C2 C 0.5043(2) 0.9445(2) 0.06950(19)
C3 C 0.51678(19) 0.91789(19) 0.03078(19)
H1 H 0.4988 0.8910 0.0224
C4 C 0.3335(4) 0.9245(4) 0.1522(5)
C5 C 0.2966(10) 0.9060(11) 0.1804(11)
H2 H 0.2909 0.8731 0.1717
H3 H 0.2679 0.9244 0.1753
H4 H 0.3056 0.9077 0.2136
C6 C 0.4220(3) 0.7531(3) 0.0894(4)
H5 H 0.4178 0.7445 0.1215
C7 C 0.4338(3) 0.7198(4) 0.0578(6)
H6 H 0.4385 0.6886 0.0689
C8 C 0.4391(3) 0.7275(5) 0.0148(7)
C9 C 0.4336(3) 0.7735(5) 0.0001(4)
C10 C 0.4221(3) 0.8087(3) 0.0315(3)
H9 H 0.4186 0.8403 0.0209
N1 N 0.41613(18) 0.79813(19) 0.0765(3)
O1 O 0.44338(15) 0.89196(15) 0.08802(16)
O2 O 0.44844(16) 0.95751(14) 0.13087(16)
O3 O 0.37847(17) 0.90876(16) 0.16664(19)
H10 H 0.3992 0.9206 0.1491
Ni1 Ni 0.39900(3) 0.85100(3) 0.1250
C11 C 0.5555(2) 0.93050(19) 0.0043(2)
C13 C 0.58211(19) 0.96922(19) 0.01678(19)
C14 C 0.56950(19) 0.9957(2) 0.0555(2)
C16 C 0.53078(19) 0.98322(19) 0.08211(19)
C17 C 0.3255(4) 0.9165(4) 0.0978(5)
C18 C 0.3440(11) 0.9534(10) 0.0696(11)
H13 H 0.3769 0.9591 0.0783
H14 H 0.3256 0.9821 0.0747
H15 H 0.3423 0.9444 0.0364
O8 O 0.34124(16) 0.87153(17) 0.08336(19)
H16 H 0.3294 0.8508 0.1009
C19 C 0.4969(3) 0.8280(3) 0.1606(4)
H17 H 0.5055 0.8322 0.1285
C20 C 0.5302(4) 0.8162(3) 0.1922(6)
H18 H 0.5614 0.8115 0.1811
C21 C 0.5225(5) 0.8109(3) 0.2352(7)
H19 H 0.5471 0.8035 0.2567
C22 C 0.4765(5) 0.8164(3) 0.2499(4)
H20 H 0.4689 0.8122 0.2823
C23 C 0.4413(3) 0.8279(3) 0.2185(3)
H21 H 0.4097 0.8314 0.2291
N2 N 0.45187(19) 0.83387(18) 0.1735(3)
C24 C 0.3194(2) 0.7875(2) 0.1511(2)
C25 C 0.3055(2) 0.7457(2) 0.18050(19)
C26 C 0.33211(19) 0.73322(19) 0.21922(19)
H22 H 0.3590 0.7512 0.2276
O9 O 0.35804(15) 0.80662(15) 0.16198(16)
O10 O 0.29249(14) 0.80156(16) 0.11913(16)
C27 C 0.31950(19) 0.6945(2) 0.2457(2)
C28 C 0.3489(2) 0.6806(2) 0.2875(2)
O11 O 0.33802(16) 0.64196(15) 0.30662(15)
O12 O 0.38087(16) 0.70751(14) 0.30156(16)
C29 C 0.28078(19) 0.66789(19) 0.23322(19)
C30 C 0.2543(2) 0.68050(19) 0.1945(2)
C31 C 0.2125(2) 0.6511(2) 0.1806(2)
O13 O 0.19338(15) 0.66198(16) 0.14196(15)
O14 O 0.19844(16) 0.61913(16) 0.20751(14)
C32 C 0.26678(19) 0.71922(19) 0.16789(19)
H23 H 0.2488 0.7276 0.1410
H24 H 0.2724 0.6410 0.2512
H30 H 0.6678 0.8715 0.0055
C39 C 0.6838(3) 0.8078(6) 0.0302(4)
H31 H 0.6885 0.8189 0.0614
C40 C 0.6891(3) 0.7648(7) 0.0225(5)
H32 H 0.6965 0.7433 0.0471
H48 H 0.6285 0.9945 0.1678
C53 C 0.6922(6) 0.9698(4) 0.1838(3)
H49 H 0.6811 0.9386 0.1885
C54 C 0.7352(7) 0.9775(5) 0.1891(3)
H50 H 0.7567 0.9529 0.1965
Ni4 Ni 0.3750 0.60100(3) 0.35100(3)
Ni5 Ni 0.14900(3) 0.6250 0.10100(3)
H61 H 0.33316 0.962457 0.15763
H62 H 0.287543 0.91684 0.0923698
H7 H 0.4465 0.7029 0.9933
H8 H 0.4378 0.7811 0.9677
C12 C 0.5694(2) 0.9011(2) 0.9625(2)
O4 O 0.60804(15) 0.91198(16) 0.94338(15)
O5 O 0.54249(14) 0.86913(16) 0.94844(16)
H12 H 0.6090 0.9776 0.9988
Ni2 Ni 0.64900(3) 0.8750 0.89900(3)
C33 C 0.7469(3) 0.9106(4) 0.9220(3)
H25 H 0.7555 0.8785 0.9178
C34 C 0.7802(4) 0.9422(6) 0.9338(3)
H26 H 0.8114 0.9311 0.9385
C35 C 0.7725(5) 0.9852(7) 0.9391(3)
C36 C 0.7265(5) 0.9999(4) 0.9336(3)
C37 C 0.6913(3) 0.9685(3) 0.9221(3)
H29 H 0.6597 0.9791 0.9186
N3 N 0.70187(19) 0.9235(3) 0.91613(18)
C38 C 0.6720(3) 0.8394(4) 0.9969(3)
C41 C 0.6836(3) 0.7501(4) 0.9765(5)
H33 H 0.6878 0.7177 0.9689
C42 C 0.6721(3) 0.7815(3) 0.9413(3)
H34 H 0.6686 0.7709 0.9097
N4 N 0.66613(18) 0.8265(3) 0.95187(19)
C43 C 0.5755(4) 0.8478(5) 0.8335(4)
C44 C 0.5940(11) 0.8196(11) 0.7966(10)
H35 H 0.6269 0.8283 0.7909
H36 H 0.5756 0.8247 0.7679
H37 H 0.5923 0.7864 0.8056
O15 O 0.59124(16) 0.83336(19) 0.87847(17)
H38 H 0.5794 0.8509 0.8992
C45 C 0.5835(4) 0.9022(5) 0.8255(4)
C46 C 0.5466(10) 0.9304(11) 0.8440(11)
H39 H 0.5409 0.9217 0.8769
H40 H 0.5179 0.9253 0.8256
H41 H 0.5556 0.9636 0.8423
O16 O 0.62847(17) 0.91664(19) 0.84124(16)
H42 H 0.6492 0.8991 0.8294
O19 O 0.69338(15) 0.83802(16) 0.85804(15)
H63 H 0.58316 0.90763 0.787543
H64 H 0.537543 0.84237 0.83316
C15_2 C 0.0375(2) 0.0694(2) 0.5989(2)
O6_2 O 0.05662(15) 0.10804(15) 0.58802(16)
O7_2 O 0.05156(16) 0.04249(14) 0.63087(16)
H11_2 H 0.0012 0.1090 0.5224
Ni3_2 Ni 0.10100(3) 0.14900(3) 0.6250
C47_2 C 0.0780(3) 0.2469(3) 0.5894(4)
H43_2 H 0.0822 0.2555 0.6215
C48_2 C 0.0662(3) 0.2802(4) 0.5578(6)
H44_2 H 0.0615 0.3114 0.5689
C49_2 C 0.0609(3) 0.2725(5) 0.5148(7)
H45_2 H 0.0535 0.2971 0.4933
C50_2 C 0.0664(3) 0.2265(5) 0.5001(4)
H46_2 H 0.0622 0.2189 0.4677
C51_2 C 0.0779(3) 0.1913(3) 0.5315(3)
H47_2 H 0.0814 0.1597 0.5209
N5_2 N 0.08387(18) 0.20187(19) 0.5765(3)
C52_2 C 0.0031(3) 0.1720(3) 0.6606(4)
C55_2 C 0.0235(5) 0.1836(3) 0.7499(4)
H51_2 H 0.0311 0.1878 0.7823
C56_2 C 0.0587(3) 0.1721(3) 0.7185(3)
H52_2 H 0.0903 0.1686 0.7291
N6_2 N 0.04813(19) 0.16613(18) 0.6735(3)
C57_2 C 0.1665(4) 0.0755(4) 0.6522(5)
C58_2 C 0.2034(10) 0.0940(11) 0.6804(11)
H53_2 H 0.2091 0.1269 0.6717
H54_2 H 0.2321 0.0756 0.6753
H55_2 H 0.1944 0.0923 0.7136
O17_2 O 0.12153(17) 0.09124(16) 0.66664(19)
H56_2 H 0.1008 0.0794 0.6491
C59_2 C 0.1745(4) 0.0835(4) 0.5978(5)
C60_2 C 0.1560(11) 0.0466(10) 0.5696(11)
H57_2 H 0.1231 0.0409 0.5783
H58_2 H 0.1744 0.0179 0.5747
H59_2 H 0.1577 0.0556 0.5364
O18_2 O 0.15876(16) 0.12847(17) 0.58336(19)
H60_2 H 0.1706 0.1492 0.6009
O20_2 O 0.14196(15) 0.19338(15) 0.66198(16)
H65_2 H 0.16684 0.0375429 0.65763
H66_2 H 0.212457 0.08316 0.59237
H27_2 H 0.0067 0.9465 0.7971
H28_2 H 0.0323 0.9378 0.7189
C1_2 C 0.9306(2) 0.0989(2) 0.4625(2)
C2_2 C 0.9445(2) 0.06950(19) 0.5043(2)
C3_2 C 0.91789(19) 0.03078(19) 0.51678(19)
H1_2 H 0.8910 0.0224 0.4988
C4_2 C 0.9245(4) 0.1522(5) 0.3335(4)
C5_2 C 0.9060(11) 0.1804(11) 0.2966(10)
H2_2 H 0.8731 0.1717 0.2909
H3_2 H 0.9244 0.1753 0.2679
H4_2 H 0.9077 0.2136 0.3056
C6_2 C 0.7531(3) 0.0894(4) 0.4220(3)
H5_2 H 0.7445 0.1215 0.4178
C7_2 C 0.7198(4) 0.0578(6) 0.4338(3)
H6_2 H 0.6886 0.0689 0.4385
C8_2 C 0.7275(5) 0.0148(7) 0.4391(3)
C9_2 C 0.7735(5) 0.0001(4) 0.4336(3)
C10_2 C 0.8087(3) 0.0315(3) 0.4221(3)
H9_2 H 0.8403 0.0209 0.4186
N1_2 N 0.79813(19) 0.0765(3) 0.41613(18)
O1_2 O 0.89196(15) 0.08802(16) 0.44338(15)
O2_2 O 0.95751(14) 0.13087(16) 0.44844(16)
O3_2 O 0.90876(16) 0.16664(19) 0.37847(17)
H10_2 H 0.9206 0.1491 0.3992
Ni1_2 Ni 0.85100(3) 0.1250 0.39900(3)
C11_2 C 0.93050(19) 0.0043(2) 0.5555(2)
C13_2 C 0.96922(19) 0.01678(19) 0.58211(19)
C14_2 C 0.9957(2) 0.0555(2) 0.56950(19)
C16_2 C 0.98322(19) 0.08211(19) 0.53078(19)
C17_2 C 0.9165(4) 0.0978(5) 0.3255(4)
C18_2 C 0.9534(10) 0.0696(11) 0.3440(11)
H13_2 H 0.9591 0.0783 0.3769
H14_2 H 0.9821 0.0747 0.3256
H15_2 H 0.9444 0.0364 0.3423
O8_2 O 0.87153(17) 0.08336(19) 0.34124(16)
H16_2 H 0.8508 0.1009 0.3294
C19_2 C 0.8280(3) 0.1606(4) 0.4969(3)
H17_2 H 0.8322 0.1285 0.5055
C20_2 C 0.8162(3) 0.1922(6) 0.5302(4)
H18_2 H 0.8115 0.1811 0.5614
C21_2 C 0.8109(3) 0.2352(7) 0.5225(5)
H19_2 H 0.8035 0.2567 0.5471
C22_2 C 0.8164(3) 0.2499(4) 0.4765(5)
H20_2 H 0.8122 0.2823 0.4689
C23_2 C 0.8279(3) 0.2185(3) 0.4413(3)
H21_2 H 0.8314 0.2291 0.4097
N2_2 N 0.83387(18) 0.1735(3) 0.45187(19)
C24_2 C 0.7875(2) 0.1511(2) 0.3194(2)
C25_2 C 0.7457(2) 0.18050(19) 0.3055(2)
C26_2 C 0.73322(19) 0.21922(19) 0.33211(19)
H22_2 H 0.7512 0.2276 0.3590
O9_2 O 0.80662(15) 0.16198(16) 0.35804(15)
O10_2 O 0.80156(16) 0.11913(16) 0.29249(14)
C27_2 C 0.6945(2) 0.2457(2) 0.31950(19)
C28_2 C 0.6806(2) 0.2875(2) 0.3489(2)
O11_2 O 0.64196(15) 0.30662(15) 0.33802(16)
O12_2 O 0.70751(14) 0.30156(16) 0.38087(16)
C29_2 C 0.66789(19) 0.23322(19) 0.28078(19)
C30_2 C 0.68050(19) 0.1945(2) 0.2543(2)
C31_2 C 0.6511(2) 0.1806(2) 0.2125(2)
O14_2 O 0.61913(16) 0.20751(14) 0.19844(16)
C32_2 C 0.71922(19) 0.16789(19) 0.26678(19)
H23_2 H 0.7276 0.1410 0.2488
H24_2 H 0.6410 0.2512 0.2724
H30_2 H 0.8715 0.0055 0.6678
C39_2 C 0.8078(6) 0.0302(4) 0.6838(3)
H31_2 H 0.8189 0.0614 0.6885
C40_2 C 0.7648(7) 0.0225(5) 0.6891(3)
H32_2 H 0.7433 0.0471 0.6965
H48_2 H 0.9945 0.1678 0.6285
C53_2 C 0.9698(4) 0.1838(3) 0.6922(6)
H49_2 H 0.9386 0.1885 0.6811
C54_2 C 0.9775(5) 0.1891(3) 0.7352(7)
H50_2 H 0.9529 0.1965 0.7567
Ni4_2 Ni 0.60100(3) 0.35100(3) 0.3750
H61_2 H 0.962457 0.15763 0.33316
H62_2 H 0.91684 0.0923698 0.287543
H7_2 H 0.7029 0.9933 0.4465
H8_2 H 0.7811 0.9677 0.4378
C12_2 C 0.9011(2) 0.9625(2) 0.5694(2)
O4_2 O 0.91198(16) 0.94338(15) 0.60804(15)
O5_2 O 0.86913(16) 0.94844(16) 0.54249(14)
H12_2 H 0.9776 0.9988 0.6090
Ni2_2 Ni 0.8750 0.89900(3) 0.64900(3)
C33_2 C 0.9106(4) 0.9220(3) 0.7469(3)
H25_2 H 0.8785 0.9178 0.7555
C34_2 C 0.9422(6) 0.9338(3) 0.7802(4)
H26_2 H 0.9311 0.9385 0.8114
C35_2 C 0.9852(7) 0.9391(3) 0.7725(5)
C36_2 C 0.9999(4) 0.9336(3) 0.7265(5)
C37_2 C 0.9685(3) 0.9221(3) 0.6913(3)
H29_2 H 0.9791 0.9186 0.6597
N3_2 N 0.9235(3) 0.91613(18) 0.70187(19)
C38_2 C 0.8394(4) 0.9969(3) 0.6720(3)
C41_2 C 0.7501(4) 0.9765(5) 0.6836(3)
H33_2 H 0.7177 0.9689 0.6878
C42_2 C 0.7815(3) 0.9413(3) 0.6721(3)
H34_2 H 0.7709 0.9097 0.6686
N4_2 N 0.8265(3) 0.95187(19) 0.66613(18)
C43_2 C 0.8478(5) 0.8335(4) 0.5755(4)
C44_2 C 0.8196(11) 0.7966(10) 0.5940(11)
H35_2 H 0.8283 0.7909 0.6269
H36_2 H 0.8247 0.7679 0.5756
H37_2 H 0.7864 0.8056 0.5923
O15_2 O 0.83336(19) 0.87847(17) 0.59124(16)
H38_2 H 0.8509 0.8992 0.5794
C45_2 C 0.9022(5) 0.8255(4) 0.5835(4)
C46_2 C 0.9304(11) 0.8440(11) 0.5466(10)
H39_2 H 0.9217 0.8769 0.5409
H40_2 H 0.9253 0.8256 0.5179
H41_2 H 0.9636 0.8423 0.5556
O16_2 O 0.91664(19) 0.84124(16) 0.62847(17)
H42_2 H 0.8991 0.8294 0.6492
O19_2 O 0.83802(16) 0.85804(15) 0.69338(15)
H63_2 H 0.90763 0.787543 0.58316
H64_2 H 0.84237 0.83316 0.537543
C15_3 C 0.0694(2) 0.5989(2) 0.0375(2)
O6_3 O 0.10804(15) 0.58802(16) 0.05662(15)
O7_3 O 0.04249(14) 0.63087(16) 0.05156(16)
H11_3 H 0.1090 0.5224 0.0012
C47_3 C 0.2469(3) 0.5894(4) 0.0780(3)
H43_3 H 0.2555 0.6215 0.0822
C48_3 C 0.2802(4) 0.5578(6) 0.0662(3)
H44_3 H 0.3114 0.5689 0.0615
C49_3 C 0.2725(5) 0.5148(7) 0.0609(3)
H45_3 H 0.2971 0.4933 0.0535
C50_3 C 0.2265(5) 0.5001(4) 0.0664(3)
H46_3 H 0.2189 0.4677 0.0622
C51_3 C 0.1913(3) 0.5315(3) 0.0779(3)
H47_3 H 0.1597 0.5209 0.0814
N5_3 N 0.20187(19) 0.5765(3) 0.08387(18)
C52_3 C 0.1720(3) 0.6606(4) 0.0031(3)
C55_3 C 0.1836(3) 0.7499(4) 0.0235(5)
H51_3 H 0.1878 0.7823 0.0311
C56_3 C 0.1721(3) 0.7185(3) 0.0587(3)
H52_3 H 0.1686 0.7291 0.0903
N6_3 N 0.16613(18) 0.6735(3) 0.04813(19)
C57_3 C 0.0755(4) 0.6522(5) 0.1665(4)
C58_3 C 0.0940(11) 0.6804(11) 0.2034(10)
H53_3 H 0.1269 0.6717 0.2091
H54_3 H 0.0756 0.6753 0.2321
H55_3 H 0.0923 0.7136 0.1944
O17_3 O 0.09124(16) 0.66664(19) 0.12153(17)
H56_3 H 0.0794 0.6491 0.1008
C59_3 C 0.0835(4) 0.5978(5) 0.1745(4)
C60_3 C 0.0466(10) 0.5696(11) 0.1560(11)
H57_3 H 0.0409 0.5783 0.1231
H58_3 H 0.0179 0.5747 0.1744
H59_3 H 0.0556 0.5364 0.1577
O18_3 O 0.12847(17) 0.58336(19) 0.15876(16)
H60_3 H 0.1492 0.6009 0.1706
H65_3 H 0.0375429 0.65763 0.16684
H66_3 H 0.08316 0.59237 0.212457
C1_3 C 0.0989(2) 0.4625(2) 0.9306(2)
C2_3 C 0.06950(19) 0.5043(2) 0.9445(2)
C3_3 C 0.03078(19) 0.51678(19) 0.91789(19)
H1_3 H 0.0224 0.4988 0.8910
C4_3 C 0.1522(5) 0.3335(4) 0.9245(4)
C5_3 C 0.1804(11) 0.2966(10) 0.9060(11)
H2_3 H 0.1717 0.2909 0.8731
H3_3 H 0.1753 0.2679 0.9244
H4_3 H 0.2136 0.3056 0.9077
C6_3 C 0.0894(4) 0.4220(3) 0.7531(3)
H5_3 H 0.1215 0.4178 0.7445
C7_3 C 0.0578(6) 0.4338(3) 0.7198(4)
H6_3 H 0.0689 0.4385 0.6886
C8_3 C 0.0148(7) 0.4391(3) 0.7275(5)
C9_3 C 0.0001(4) 0.4336(3) 0.7735(5)
C10_3 C 0.0315(3) 0.4221(3) 0.8087(3)
H9_3 H 0.0209 0.4186 0.8403
N1_3 N 0.0765(3) 0.41613(18) 0.79813(19)
O1_3 O 0.08802(16) 0.44338(15) 0.89196(15)
O2_3 O 0.13087(16) 0.44844(16) 0.95751(14)
O3_3 O 0.16664(19) 0.37847(17) 0.90876(16)
H10_3 H 0.1491 0.3992 0.9206
Ni1_3 Ni 0.1250 0.39900(3) 0.85100(3)
C11_3 C 0.0043(2) 0.5555(2) 0.93050(19)
C13_3 C 0.01678(19) 0.58211(19) 0.96922(19)
C14_3 C 0.0555(2) 0.56950(19) 0.9957(2)
C16_3 C 0.08211(19) 0.53078(19) 0.98322(19)
C17_3 C 0.0978(5) 0.3255(4) 0.9165(4)
C18_3 C 0.0696(11) 0.3440(11) 0.9534(10)
H13_3 H 0.0783 0.3769 0.9591
H14_3 H 0.0747 0.3256 0.9821
H15_3 H 0.0364 0.3423 0.9444
O8_3 O 0.08336(19) 0.34124(16) 0.87153(17)
H16_3 H 0.1009 0.3294 0.8508
C19_3 C 0.1606(4) 0.4969(3) 0.8280(3)
H17_3 H 0.1285 0.5055 0.8322
C20_3 C 0.1922(6) 0.5302(4) 0.8162(3)
H18_3 H 0.1811 0.5614 0.8115
C21_3 C 0.2352(7) 0.5225(5) 0.8109(3)
H19_3 H 0.2567 0.5471 0.8035
C22_3 C 0.2499(4) 0.4765(5) 0.8164(3)
H20_3 H 0.2823 0.4689 0.8122
C23_3 C 0.2185(3) 0.4413(3) 0.8279(3)
H21_3 H 0.2291 0.4097 0.8314
N2_3 N 0.1735(3) 0.45187(19) 0.83387(18)
C24_3 C 0.1511(2) 0.3194(2) 0.7875(2)
C25_3 C 0.18050(19) 0.3055(2) 0.7457(2)
C26_3 C 0.21922(19) 0.33211(19) 0.73322(19)
H22_3 H 0.2276 0.3590 0.7512
O9_3 O 0.16198(16) 0.35804(15) 0.80662(15)
O10_3 O 0.11913(16) 0.29249(14) 0.80156(16)
C27_3 C 0.2457(2) 0.31950(19) 0.6945(2)
C28_3 C 0.2875(2) 0.3489(2) 0.6806(2)
O11_3 O 0.30662(15) 0.33802(16) 0.64196(15)
O12_3 O 0.30156(16) 0.38087(16) 0.70751(14)
C29_3 C 0.23322(19) 0.28078(19) 0.66789(19)
C30_3 C 0.1945(2) 0.2543(2) 0.68050(19)
C31_3 C 0.1806(2) 0.2125(2) 0.6511(2)
O14_3 O 0.20751(14) 0.19844(16) 0.61913(16)
C32_3 C 0.16789(19) 0.26678(19) 0.71922(19)
H23_3 H 0.1410 0.2488 0.7276
H24_3 H 0.2512 0.2724 0.6410
H30_3 H 0.0055 0.6678 0.8715
C39_3 C 0.0302(4) 0.6838(3) 0.8078(6)
H31_3 H 0.0614 0.6885 0.8189
C40_3 C 0.0225(5) 0.6891(3) 0.7648(7)
H32_3 H 0.0471 0.6965 0.7433
H48_3 H 0.1678 0.6285 0.9945
C53_3 C 0.1838(3) 0.6922(6) 0.9698(4)
H49_3 H 0.1885 0.6811 0.9386
C54_3 C 0.1891(3) 0.7352(7) 0.9775(5)
H50_3 H 0.1965 0.7567 0.9529
Ni4_3 Ni 0.35100(3) 0.3750 0.60100(3)
H61_3 H 0.15763 0.33316 0.962457
H62_3 H 0.0923698 0.287543 0.91684
H27_3 H 0.9465 0.7971 0.0067
H28_3 H 0.9378 0.7189 0.0323
H7_3 H 0.9933 0.4465 0.7029
H8_3 H 0.9677 0.4378 0.7811
C12_3 C 0.9625(2) 0.5694(2) 0.9011(2)
O4_3 O 0.94338(15) 0.60804(15) 0.91198(16)
O5_3 O 0.94844(16) 0.54249(14) 0.86913(16)
H12_3 H 0.9988 0.6090 0.9776
Ni2_3 Ni 0.89900(3) 0.64900(3) 0.8750
C33_3 C 0.9220(3) 0.7469(3) 0.9106(4)
H25_3 H 0.9178 0.7555 0.8785
C34_3 C 0.9338(3) 0.7802(4) 0.9422(6)
H26_3 H 0.9385 0.8114 0.9311
C35_3 C 0.9391(3) 0.7725(5) 0.9852(7)
C36_3 C 0.9336(3) 0.7265(5) 0.9999(4)
C37_3 C 0.9221(3) 0.6913(3) 0.9685(3)
H29_3 H 0.9186 0.6597 0.9791
N3_3 N 0.91613(18) 0.70187(19) 0.9235(3)
C38_3 C 0.9969(3) 0.6720(3) 0.8394(4)
C41_3 C 0.9765(5) 0.6836(3) 0.7501(4)
H33_3 H 0.9689 0.6878 0.7177
C42_3 C 0.9413(3) 0.6721(3) 0.7815(3)
H34_3 H 0.9097 0.6686 0.7709
N4_3 N 0.95187(19) 0.66613(18) 0.8265(3)
C43_3 C 0.8335(4) 0.5755(4) 0.8478(5)
C44_3 C 0.7966(10) 0.5940(11) 0.8196(11)
H35_3 H 0.7909 0.6269 0.8283
H36_3 H 0.7679 0.5756 0.8247
H37_3 H 0.8056 0.5923 0.7864
O15_3 O 0.87847(17) 0.59124(16) 0.83336(19)
H38_3 H 0.8992 0.5794 0.8509
C45_3 C 0.8255(4) 0.5835(4) 0.9022(5)
C46_3 C 0.8440(11) 0.5466(10) 0.9304(11)
H39_3 H 0.8769 0.5409 0.9217
H40_3 H 0.8256 0.5179 0.9253
H41_3 H 0.8423 0.5556 0.9636
O16_3 O 0.84124(16) 0.62847(17) 0.91664(19)
H42_3 H 0.8294 0.6492 0.8991
O19_3 O 0.85804(15) 0.69338(15) 0.83802(16)
H63_3 H 0.787543 0.58316 0.90763
H64_3 H 0.83316 0.537543 0.84237
C24_4 C 0.8489(2) 0.8194(2) 0.7125(2)
C25_4 C 0.81950(19) 0.8055(2) 0.7543(2)
C26_4 C 0.78078(19) 0.83211(19) 0.76678(19)
H22_4 H 0.7724 0.8590 0.7488
O10_4 O 0.88087(16) 0.79249(14) 0.69844(16)
C27_4 C 0.7543(2) 0.81950(19) 0.8055(2)
C28_4 C 0.7125(2) 0.8489(2) 0.8194(2)
O12_4 O 0.69844(16) 0.88087(16) 0.79249(14)
C29_4 C 0.76678(19) 0.78078(19) 0.83211(19)
C30_4 C 0.8055(2) 0.7543(2) 0.81950(19)
C31_4 C 0.8194(2) 0.7125(2) 0.8489(2)
O14_4 O 0.79249(14) 0.69844(16) 0.88087(16)
C32_4 C 0.83211(19) 0.76678(19) 0.78078(19)
H23_4 H 0.8590 0.7488 0.7724
H24_4 H 0.7488 0.7724 0.8590
C1_4 C 0.5375(2) 0.4306(2) 0.4011(2)
C2_4 C 0.4957(2) 0.4445(2) 0.43050(19)
C3_4 C 0.48322(19) 0.41789(19) 0.46922(19)
H1_4 H 0.5012 0.3910 0.4776
C4_4 C 0.6665(4) 0.4245(4) 0.3478(5)
C5_4 C 0.7034(10) 0.4060(11) 0.3196(11)
H2_4 H 0.7091 0.3731 0.3283
H3_4 H 0.7321 0.4244 0.3247
H4_4 H 0.6944 0.4077 0.2864
C6_4 C 0.5780(3) 0.2531(3) 0.4106(4)
H5_4 H 0.5822 0.2445 0.3785
C7_4 C 0.5662(3) 0.2198(4) 0.4422(6)
H6_4 H 0.5615 0.1886 0.4311
C8_4 C 0.5609(3) 0.2275(5) 0.4852(7)
H7_4 H 0.5535 0.2029 0.5067
C9_4 C 0.5664(3) 0.2735(5) 0.4999(4)
H8_4 H 0.5622 0.2811 0.5323
C10_4 C 0.5779(3) 0.3087(3) 0.4685(3)
H9_4 H 0.5814 0.3403 0.4791
N1_4 N 0.58387(18) 0.29813(19) 0.4235(3)
O1_4 O 0.55662(15) 0.39196(15) 0.41198(16)
O2_4 O 0.55156(16) 0.45751(14) 0.36913(16)
O3_4 O 0.62153(17) 0.40876(16) 0.33336(19)
H10_4 H 0.6008 0.4206 0.3509
C11_4 C 0.4445(2) 0.43050(19) 0.4957(2)
C12_4 C 0.4306(2) 0.4011(2) 0.5375(2)
O4_4 O 0.39196(15) 0.41198(16) 0.55662(15)
O5_4 O 0.45751(14) 0.36913(16) 0.55156(16)
C13_4 C 0.41789(19) 0.46922(19) 0.48322(19)
C14_4 C 0.43050(19) 0.4957(2) 0.4445(2)
C15_4 C 0.4011(2) 0.5375(2) 0.4306(2)
O6_4 O 0.41198(16) 0.55662(15) 0.39196(15)
O7_4 O 0.36913(16) 0.55156(16) 0.45751(14)
C16_4 C 0.46922(19) 0.48322(19) 0.41789(19)
H11_4 H 0.4776 0.5012 0.3910
H12_4 H 0.3910 0.4776 0.5012
C17_4 C 0.6745(4) 0.4165(4) 0.4022(5)
C18_4 C 0.6560(11) 0.4534(10) 0.4304(11)
H13_4 H 0.6231 0.4591 0.4217
H14_4 H 0.6744 0.4821 0.4253
H15_4 H 0.6577 0.4444 0.4636
O8_4 O 0.65876(16) 0.37153(17) 0.41664(19)
H16_4 H 0.6706 0.3508 0.3991
C19_4 C 0.5031(3) 0.3280(3) 0.3394(4)
H17_4 H 0.4945 0.3322 0.3715
C20_4 C 0.4698(4) 0.3162(3) 0.3078(6)
H18_4 H 0.4386 0.3115 0.3189
C21_4 C 0.4775(5) 0.3109(3) 0.2648(7)
H19_4 H 0.4529 0.3035 0.2433
C22_4 C 0.5235(5) 0.3164(3) 0.2501(4)
H20_4 H 0.5311 0.3122 0.2177
C23_4 C 0.5587(3) 0.3279(3) 0.2815(3)
H21_4 H 0.5903 0.3314 0.2709
N2_4 N 0.54813(19) 0.33387(18) 0.3265(3)
C33_4 C 0.2531(3) 0.4106(4) 0.5780(3)
H25_4 H 0.2445 0.3785 0.5822
C34_4 C 0.2198(4) 0.4422(6) 0.5662(3)
H26_4 H 0.1886 0.4311 0.5615
C35_4 C 0.2275(5) 0.4852(7) 0.5609(3)
H27_4 H 0.2029 0.5067 0.5535
C36_4 C 0.2735(5) 0.4999(4) 0.5664(3)
H28_4 H 0.2811 0.5323 0.5622
C37_4 C 0.3087(3) 0.4685(3) 0.5779(3)
H29_4 H 0.3403 0.4791 0.5814
N3_4 N 0.29813(19) 0.4235(3) 0.58387(18)
C38_4 C 0.3280(3) 0.3394(4) 0.5031(3)
H30_4 H 0.3322 0.3715 0.4945
C39_4 C 0.3162(3) 0.3078(6) 0.4698(4)
H31_4 H 0.3115 0.3189 0.4386
C40_4 C 0.3109(3) 0.2648(7) 0.4775(5)
H32_4 H 0.3035 0.2433 0.4529
C41_4 C 0.3164(3) 0.2501(4) 0.5235(5)
H33_4 H 0.3122 0.2177 0.5311
C42_4 C 0.3279(3) 0.2815(3) 0.5587(3)
H34_4 H 0.3314 0.2709 0.5903
N4_4 N 0.33387(18) 0.3265(3) 0.54813(19)
C43_4 C 0.4245(4) 0.3478(5) 0.6665(4)
C44_4 C 0.4060(11) 0.3196(11) 0.7034(10)
H35_4 H 0.3731 0.3283 0.7091
H36_4 H 0.4244 0.3247 0.7321
H37_4 H 0.4077 0.2864 0.6944
O15_4 O 0.40876(16) 0.33336(19) 0.62153(17)
H38_4 H 0.4206 0.3509 0.6008
C45_4 C 0.4165(4) 0.4022(5) 0.6745(4)
C46_4 C 0.4534(10) 0.4304(11) 0.6560(11)
H39_4 H 0.4591 0.4217 0.6231
H40_4 H 0.4821 0.4253 0.6744
H41_4 H 0.4444 0.4636 0.6577
O16_4 O 0.37153(17) 0.41664(19) 0.65876(16)
H42_4 H 0.3508 0.3991 0.6706
C47_4 C 0.4106(4) 0.5780(3) 0.2531(3)
H43_4 H 0.3785 0.5822 0.2445
C48_4 C 0.4422(6) 0.5662(3) 0.2198(4)
H44_4 H 0.4311 0.5615 0.1886
C49_4 C 0.4852(7) 0.5609(3) 0.2275(5)
H45_4 H 0.5067 0.5535 0.2029
C50_4 C 0.4999(4) 0.5664(3) 0.2735(5)
H46_4 H 0.5323 0.5622 0.2811
C51_4 C 0.4685(3) 0.5779(3) 0.3087(3)
H47_4 H 0.4791 0.5814 0.3403
N5_4 N 0.4235(3) 0.58387(18) 0.29813(19)
C52_4 C 0.3394(4) 0.5031(3) 0.3280(3)
H48_4 H 0.3715 0.4945 0.3322
C53_4 C 0.3078(6) 0.4698(4) 0.3162(3)
H49_4 H 0.3189 0.4386 0.3115
C54_4 C 0.2648(7) 0.4775(5) 0.3109(3)
H50_4 H 0.2433 0.4529 0.3035
C55_4 C 0.2501(4) 0.5235(5) 0.3164(3)
H51_4 H 0.2177 0.5311 0.3122
C56_4 C 0.2815(3) 0.5587(3) 0.3279(3)
H52_4 H 0.2709 0.5903 0.3314
N6_4 N 0.3265(3) 0.54813(19) 0.33387(18)
C57_4 C 0.3478(5) 0.6665(4) 0.4245(4)
C58_4 C 0.3196(11) 0.7034(10) 0.4060(11)
H53_4 H 0.3283 0.7091 0.3731
H54_4 H 0.3247 0.7321 0.4244
H55_4 H 0.2864 0.6944 0.4077
O17_4 O 0.33336(19) 0.62153(17) 0.40876(16)
H56_4 H 0.3509 0.6008 0.4206
C59_4 C 0.4022(5) 0.6745(4) 0.4165(4)
C60_4 C 0.4304(11) 0.6560(11) 0.4534(10)
H57_4 H 0.4217 0.6231 0.4591
H58_4 H 0.4253 0.6744 0.4821
H59_4 H 0.4636 0.6577 0.4444
O18_4 O 0.41664(19) 0.65876(16) 0.37153(17)
H60_4 H 0.3991 0.6706 0.3508
H61_4 H 0.66684 0.462457 0.34237
H62_4 H 0.712457 0.41684 0.40763
H63_4 H 0.41684 0.40763 0.712457
H64_4 H 0.462457 0.34237 0.66684
H65_4 H 0.34237 0.66684 0.462457
H66_4 H 0.40763 0.712457 0.41684
C1_5 C 0.3194(2) 0.2125(2) 0.3489(2)
C2_5 C 0.3055(2) 0.2543(2) 0.31950(19)
C3_5 C 0.33211(19) 0.26678(19) 0.28078(19)
H1_5 H 0.3590 0.2488 0.2724
C4_5 C 0.3255(4) 0.0835(4) 0.4022(5)
C5_5 C 0.3440(11) 0.0466(10) 0.4304(11)
H2_5 H 0.3769 0.0409 0.4217
H3_5 H 0.3256 0.0179 0.4253
H4_5 H 0.3423 0.0556 0.4636
C6_5 C 0.4969(3) 0.1720(3) 0.3394(4)
H5_5 H 0.5055 0.1678 0.3715
C7_5 C 0.5302(4) 0.1838(3) 0.3078(6)
H6_5 H 0.5614 0.1885 0.3189
C8_5 C 0.5225(5) 0.1891(3) 0.2648(7)
H7_5 H 0.5471 0.1965 0.2433
C9_5 C 0.4765(5) 0.1836(3) 0.2501(4)
H8_5 H 0.4689 0.1878 0.2177
C10_5 C 0.4413(3) 0.1721(3) 0.2815(3)
H9_5 H 0.4097 0.1686 0.2709
N1_5 N 0.45187(19) 0.16613(18) 0.3265(3)
O1_5 O 0.35804(15) 0.19338(15) 0.33802(16)
O2_5 O 0.29249(14) 0.19844(16) 0.38087(16)
O3_5 O 0.34124(16) 0.12847(17) 0.41664(19)
H10_5 H 0.3294 0.1492 0.3991
Ni1_4 Ni 0.39900(3) 0.14900(3) 0.3750
C11_5 C 0.31950(19) 0.3055(2) 0.2543(2)
C12_5 C 0.3489(2) 0.3194(2) 0.2125(2)
O4_5 O 0.33802(16) 0.35804(15) 0.19338(15)
O5_5 O 0.38087(16) 0.29249(14) 0.19844(16)
C13_5 C 0.28078(19) 0.33211(19) 0.26678(19)
C14_5 C 0.2543(2) 0.31950(19) 0.3055(2)
C15_5 C 0.2125(2) 0.3489(2) 0.3194(2)
O6_5 O 0.19338(15) 0.33802(16) 0.35804(15)
O7_5 O 0.19844(16) 0.38087(16) 0.29249(14)
C16_5 C 0.26678(19) 0.28078(19) 0.33211(19)
H11_5 H 0.2488 0.2724 0.3590
H12_5 H 0.2724 0.3590 0.2488
C17_5 C 0.3335(4) 0.0755(4) 0.3478(5)
C18_5 C 0.2966(10) 0.0940(11) 0.3196(11)
H13_5 H 0.2909 0.1269 0.3283
H14_5 H 0.2679 0.0756 0.3247
H15_5 H 0.3056 0.0923 0.2864
O8_5 O 0.37847(17) 0.09124(16) 0.33336(19)
H16_5 H 0.3992 0.0794 0.3509
C19_5 C 0.4220(3) 0.2469(3) 0.4106(4)
H17_5 H 0.4178 0.2555 0.3785
C20_5 C 0.4338(3) 0.2802(4) 0.4422(6)
H18_5 H 0.4385 0.3114 0.4311
C21_5 C 0.4391(3) 0.2725(5) 0.4852(7)
H19_5 H 0.4465 0.2971 0.5067
C22_5 C 0.4336(3) 0.2265(5) 0.4999(4)
H20_5 H 0.4378 0.2189 0.5323
C23_5 C 0.4221(3) 0.1913(3) 0.4685(3)
H21_5 H 0.4186 0.1597 0.4791
N2_5 N 0.41613(18) 0.20187(19) 0.4235(3)
C24_5 C 0.4625(2) 0.0694(2) 0.4011(2)
C25_5 C 0.5043(2) 0.0555(2) 0.43050(19)
C26_5 C 0.51678(19) 0.08211(19) 0.46922(19)
H22_5 H 0.4988 0.1090 0.4776
O9_4 O 0.44338(15) 0.10804(15) 0.41198(16)
O10_5 O 0.44844(16) 0.04249(14) 0.36913(16)
C27_5 C 0.5555(2) 0.06950(19) 0.4957(2)
C28_5 C 0.5694(2) 0.0989(2) 0.5375(2)
O11_4 O 0.60804(15) 0.08802(16) 0.55662(15)
O12_5 O 0.54249(14) 0.13087(16) 0.55156(16)
C29_5 C 0.58211(19) 0.03078(19) 0.48322(19)
C30_5 C 0.56950(19) 0.0043(2) 0.4445(2)
C32_5 C 0.53078(19) 0.01678(19) 0.41789(19)
H24_5 H 0.6090 0.0224 0.5012
Ni2_4 Ni 0.3750 0.39900(3) 0.14900(3)
Ni3_3 Ni 0.14900(3) 0.3750 0.39900(3)
C33_5 C 0.3394(4) 0.4969(3) 0.1720(3)
H25_5 H 0.3715 0.5055 0.1678
C34_5 C 0.3078(6) 0.5302(4) 0.1838(3)
H26_5 H 0.3189 0.5614 0.1885
C35_5 C 0.2648(7) 0.5225(5) 0.1891(3)
H27_5 H 0.2433 0.5471 0.1965
C36_5 C 0.2501(4) 0.4765(5) 0.1836(3)
H28_5 H 0.2177 0.4689 0.1878
C37_5 C 0.2815(3) 0.4413(3) 0.1721(3)
H29_5 H 0.2709 0.4097 0.1686
N3_5 N 0.3265(3) 0.45187(19) 0.16613(18)
C38_5 C 0.4106(4) 0.4220(3) 0.2469(3)
H30_5 H 0.3785 0.4178 0.2555
C39_5 C 0.4422(6) 0.4338(3) 0.2802(4)
H31_5 H 0.4311 0.4385 0.3114
C40_5 C 0.4852(7) 0.4391(3) 0.2725(5)
H32_5 H 0.5067 0.4465 0.2971
C41_5 C 0.4999(4) 0.4336(3) 0.2265(5)
H33_5 H 0.5323 0.4378 0.2189
C42_5 C 0.4685(3) 0.4221(3) 0.1913(3)
H34_5 H 0.4791 0.4186 0.1597
N4_5 N 0.4235(3) 0.41613(18) 0.20187(19)
C43_5 C 0.4022(5) 0.3255(4) 0.0835(4)
C44_5 C 0.4304(11) 0.3440(11) 0.0466(10)
H35_5 H 0.4217 0.3769 0.0409
H36_5 H 0.4253 0.3256 0.0179
H37_5 H 0.4636 0.3423 0.0556
O15_5 O 0.41664(19) 0.34124(16) 0.12847(17)
H38_5 H 0.3991 0.3294 0.1492
C45_5 C 0.3478(5) 0.3335(4) 0.0755(4)
C46_5 C 0.3196(11) 0.2966(10) 0.0940(11)
H39_5 H 0.3283 0.2909 0.1269
H40_5 H 0.3247 0.2679 0.0756
H41_5 H 0.2864 0.3056 0.0923
O16_5 O 0.33336(19) 0.37847(17) 0.09124(16)
H42_5 H 0.3509 0.3992 0.0794
C47_5 C 0.1720(3) 0.3394(4) 0.4969(3)
H43_5 H 0.1678 0.3715 0.5055
C48_5 C 0.1838(3) 0.3078(6) 0.5302(4)
H44_5 H 0.1885 0.3189 0.5614
C49_5 C 0.1891(3) 0.2648(7) 0.5225(5)
H45_5 H 0.1965 0.2433 0.5471
C50_5 C 0.1836(3) 0.2501(4) 0.4765(5)
H46_5 H 0.1878 0.2177 0.4689
C51_5 C 0.1721(3) 0.2815(3) 0.4413(3)
H47_5 H 0.1686 0.2709 0.4097
N5_5 N 0.16613(18) 0.3265(3) 0.45187(19)
C52_5 C 0.2469(3) 0.4106(4) 0.4220(3)
H48_5 H 0.2555 0.3785 0.4178
C53_5 C 0.2802(4) 0.4422(6) 0.4338(3)
H49_5 H 0.3114 0.4311 0.4385
C54_5 C 0.2725(5) 0.4852(7) 0.4391(3)
H50_5 H 0.2971 0.5067 0.4465
C55_5 C 0.2265(5) 0.4999(4) 0.4336(3)
H51_5 H 0.2189 0.5323 0.4378
C56_5 C 0.1913(3) 0.4685(3) 0.4221(3)
H52_5 H 0.1597 0.4791 0.4186
N6_5 N 0.20187(19) 0.4235(3) 0.41613(18)
C57_5 C 0.0835(4) 0.4022(5) 0.3255(4)
C58_5 C 0.0466(10) 0.4304(11) 0.3440(11)
H53_5 H 0.0409 0.4217 0.3769
H54_5 H 0.0179 0.4253 0.3256
H55_5 H 0.0556 0.4636 0.3423
O17_5 O 0.12847(17) 0.41664(19) 0.34124(16)
H56_5 H 0.1492 0.3991 0.3294
C59_5 C 0.0755(4) 0.3478(5) 0.3335(4)
C60_5 C 0.0940(11) 0.3196(11) 0.2966(10)
H57_5 H 0.1269 0.3283 0.2909
H58_5 H 0.0756 0.3247 0.2679
H59_5 H 0.0923 0.2864 0.3056
O18_5 O 0.09124(16) 0.33336(19) 0.37847(17)
H60_5 H 0.0794 0.3509 0.3992
Ni4_4 Ni 0.64900(3) 0.1250 0.60100(3)
O19_4 O 0.41198(16) 0.44338(15) 0.10804(15)
O20_3 O 0.10804(15) 0.41198(16) 0.44338(15)
H61_5 H 0.287543 0.08316 0.40763
H62_5 H 0.33316 0.0375429 0.34237
H63_5 H 0.34237 0.33316 0.0375429
H64_5 H 0.40763 0.287543 0.08316
H65_5 H 0.08316 0.40763 0.287543
H66_5 H 0.0375429 0.34237 0.33316
C31_5 C 0.5989(2) 0.9625(2) 0.4306(2)
O13_2 O 0.58802(16) 0.94338(15) 0.39196(15)
O14_5 O 0.63087(16) 0.94844(16) 0.45751(14)
H23_5 H 0.5224 0.9988 0.3910
Ni5_2 Ni 0.6250 0.89900(3) 0.35100(3)
H25_6 H 0.3322 0.6285 0.0055
C34_6 C 0.3162(3) 0.6922(6) 0.0302(4)
H26_6 H 0.3115 0.6811 0.0614
C35_6 C 0.3109(3) 0.7352(7) 0.0225(5)
H27_6 H 0.3035 0.7567 0.0471
H50_6 H 0.0535 0.7029 0.0067
H51_6 H 0.0622 0.7811 0.0323
C1_6 C 0.1511(2) 0.6806(2) 0.7125(2)
C2_6 C 0.18050(19) 0.6945(2) 0.7543(2)
C3_6 C 0.21922(19) 0.66789(19) 0.76678(19)
H1_6 H 0.2276 0.6410 0.7488
C4_6 C 0.0978(5) 0.6745(4) 0.5835(4)
C5_6 C 0.0696(11) 0.6560(11) 0.5466(10)
H2_6 H 0.0783 0.6231 0.5409
H3_6 H 0.0747 0.6744 0.5179
H4_6 H 0.0364 0.6577 0.5556
C6_6 C 0.1606(4) 0.5031(3) 0.6720(3)
H5_6 H 0.1285 0.4945 0.6678
C7_6 C 0.1922(6) 0.4698(4) 0.6838(3)
H6_6 H 0.1811 0.4386 0.6885
C8_6 C 0.2352(7) 0.4775(5) 0.6891(3)
H7_6 H 0.2567 0.4529 0.6965
C9_6 C 0.2499(4) 0.5235(5) 0.6836(3)
H8_6 H 0.2823 0.5311 0.6878
C10_6 C 0.2185(3) 0.5587(3) 0.6721(3)
H9_6 H 0.2291 0.5903 0.6686
N1_6 N 0.1735(3) 0.54813(19) 0.66613(18)
O1_6 O 0.16198(16) 0.64196(15) 0.69338(15)
O2_6 O 0.11913(16) 0.70751(14) 0.69844(16)
O3_6 O 0.08336(19) 0.65876(16) 0.62847(17)
H10_6 H 0.1009 0.6706 0.6492
Ni1_5 Ni 0.1250 0.60100(3) 0.64900(3)
C11_6 C 0.2457(2) 0.68050(19) 0.8055(2)
C12_6 C 0.2875(2) 0.6511(2) 0.8194(2)
O4_6 O 0.30662(15) 0.66198(16) 0.85804(15)
O5_6 O 0.30156(16) 0.61913(16) 0.79249(14)
C13_6 C 0.23322(19) 0.71922(19) 0.83211(19)
C14_6 C 0.1945(2) 0.7457(2) 0.81950(19)
C15_6 C 0.1806(2) 0.7875(2) 0.8489(2)
O6_6 O 0.14196(15) 0.80662(15) 0.83802(16)
O7_6 O 0.20751(14) 0.80156(16) 0.88087(16)
C16_6 C 0.16789(19) 0.73322(19) 0.78078(19)
H11_6 H 0.1410 0.7512 0.7724
H12_6 H 0.2512 0.7276 0.8590
C17_6 C 0.1522(5) 0.6665(4) 0.5755(4)
C18_6 C 0.1804(11) 0.7034(10) 0.5940(11)
H13_6 H 0.1717 0.7091 0.6269
H14_6 H 0.1753 0.7321 0.5756
H15_6 H 0.2136 0.6944 0.5923
O8_6 O 0.16664(19) 0.62153(17) 0.59124(16)
H16_6 H 0.1491 0.6008 0.5794
C19_6 C 0.0894(4) 0.5780(3) 0.7469(3)
H17_6 H 0.1215 0.5822 0.7555
C20_6 C 0.0578(6) 0.5662(3) 0.7802(4)
H18_6 H 0.0689 0.5615 0.8114
C21_6 C 0.0148(7) 0.5609(3) 0.7725(5)
C22_6 C 0.0001(4) 0.5664(3) 0.7265(5)
C23_6 C 0.0315(3) 0.5779(3) 0.6913(3)
H21_6 H 0.0209 0.5814 0.6597
N2_6 N 0.0765(3) 0.58387(18) 0.70187(19)
C24_6 C 0.0989(2) 0.5375(2) 0.5694(2)
C25_6 C 0.06950(19) 0.4957(2) 0.5555(2)
C26_6 C 0.03078(19) 0.48322(19) 0.58211(19)
H22_6 H 0.0224 0.5012 0.6090
O9_5 O 0.08802(16) 0.55662(15) 0.60804(15)
O10_6 O 0.13087(16) 0.55156(16) 0.54249(14)
C27_6 C 0.0043(2) 0.4445(2) 0.56950(19)
C29_6 C 0.01678(19) 0.41789(19) 0.53078(19)
C30_6 C 0.0555(2) 0.43050(19) 0.5043(2)
C31_6 C 0.0694(2) 0.4011(2) 0.4625(2)
O14_6 O 0.04249(14) 0.36913(16) 0.44844(16)
C32_6 C 0.08211(19) 0.46922(19) 0.51678(19)
H23_6 H 0.1090 0.4776 0.4988
Ni2_5 Ni 0.35100(3) 0.6250 0.89900(3)
Ni3_4 Ni 0.10100(3) 0.85100(3) 0.8750
C33_6 C 0.3280(3) 0.6606(4) 0.9969(3)
C36_6 C 0.3164(3) 0.7499(4) 0.9765(5)
H28_6 H 0.3122 0.7823 0.9689
C37_6 C 0.3279(3) 0.7185(3) 0.9413(3)
H29_6 H 0.3314 0.7291 0.9097
N3_6 N 0.33387(18) 0.6735(3) 0.95187(19)
C38_6 C 0.2531(3) 0.5894(4) 0.9220(3)
H30_6 H 0.2445 0.6215 0.9178
C39_6 C 0.2198(4) 0.5578(6) 0.9338(3)
H31_6 H 0.1886 0.5689 0.9385
C40_6 C 0.2275(5) 0.5148(7) 0.9391(3)
H32_6 H 0.2029 0.4933 0.9465
C41_6 C 0.2735(5) 0.5001(4) 0.9336(3)
H33_6 H 0.2811 0.4677 0.9378
C42_6 C 0.3087(3) 0.5315(3) 0.9221(3)
H34_6 H 0.3403 0.5209 0.9186
N4_6 N 0.29813(19) 0.5765(3) 0.91613(18)
C43_6 C 0.4165(4) 0.5978(5) 0.8255(4)
C44_6 C 0.4534(10) 0.5696(11) 0.8440(11)
H35_6 H 0.4591 0.5783 0.8769
H36_6 H 0.4821 0.5747 0.8256
H37_6 H 0.4444 0.5364 0.8423
O15_6 O 0.37153(17) 0.58336(19) 0.84124(16)
H38_6 H 0.3508 0.6009 0.8294
C45_6 C 0.4245(4) 0.6522(5) 0.8335(4)
C46_6 C 0.4060(11) 0.6804(11) 0.7966(10)
H39_6 H 0.3731 0.6717 0.7909
H40_6 H 0.4244 0.6753 0.7679
H41_6 H 0.4077 0.7136 0.8056
O16_6 O 0.40876(16) 0.66664(19) 0.87847(17)
H42_6 H 0.4206 0.6491 0.8992
C47_6 C 0.0031(3) 0.8280(3) 0.8394(4)
C50_6 C 0.0235(5) 0.8164(3) 0.7501(4)
H46_6 H 0.0311 0.8122 0.7177
C51_6 C 0.0587(3) 0.8279(3) 0.7815(3)
H47_6 H 0.0903 0.8314 0.7709
N5_6 N 0.04813(19) 0.83387(18) 0.8265(3)
C52_6 C 0.0780(3) 0.7531(3) 0.9106(4)
H48_6 H 0.0822 0.7445 0.8785
C53_6 C 0.0662(3) 0.7198(4) 0.9422(6)
H49_6 H 0.0615 0.6886 0.9311
C54_6 C 0.0609(3) 0.7275(5) 0.9852(7)
C55_6 C 0.0664(3) 0.7735(5) 0.9999(4)
C56_6 C 0.0779(3) 0.8087(3) 0.9685(3)
H52_6 H 0.0814 0.8403 0.9791
N6_6 N 0.08387(18) 0.79813(19) 0.9235(3)
C57_6 C 0.1745(4) 0.9165(4) 0.9022(5)
C58_6 C 0.1560(11) 0.9534(10) 0.9304(11)
H53_6 H 0.1231 0.9591 0.9217
H54_6 H 0.1744 0.9821 0.9253
H55_6 H 0.1577 0.9444 0.9636
O17_6 O 0.15876(16) 0.87153(17) 0.91664(19)
H56_6 H 0.1706 0.8508 0.8991
C59_6 C 0.1665(4) 0.9245(4) 0.8478(5)
C60_6 C 0.2034(10) 0.9060(11) 0.8196(11)
H57_6 H 0.2091 0.8731 0.8283
H58_6 H 0.2321 0.9244 0.8247
H59_6 H 0.1944 0.9077 0.7864
O18_6 O 0.12153(17) 0.90876(16) 0.83336(19)
H60_6 H 0.1008 0.9206 0.8509
O19_5 O 0.39196(15) 0.58802(16) 0.94338(15)
O20_4 O 0.05662(15) 0.89196(15) 0.91198(16)
H61_6 H 0.0923698 0.712457 0.58316
H62_6 H 0.15763 0.66684 0.537543
H63_6 H 0.462457 0.65763 0.83316
H64_6 H 0.41684 0.59237 0.787543
H65_6 H 0.212457 0.91684 0.90763
H66_6 H 0.16684 0.962457 0.84237
H19_6 H 0.9933 0.5535 0.7971
H20_6 H 0.9677 0.5622 0.7189
C28_6 C 0.9625(2) 0.4306(2) 0.5989(2)
O11_5 O 0.94338(15) 0.39196(15) 0.58802(16)
O12_6 O 0.94844(16) 0.45751(14) 0.63087(16)
H24_6 H 0.9988 0.3910 0.5224
H43_6 H 0.9945 0.8322 0.8715
C48_6 C 0.9698(4) 0.8162(3) 0.8078(6)
H44_6 H 0.9386 0.8115 0.8189
C49_6 C 0.9775(5) 0.8109(3) 0.7648(7)
H45_6 H 0.9529 0.8035 0.7433
Ni4_5 Ni 0.89900(3) 0.35100(3) 0.6250
C31_7 C 0.0375(2) 0.9306(2) 0.9011(2)
O14_7 O 0.05156(16) 0.95751(14) 0.86913(16)
H23_7 H 0.0012 0.8910 0.9776
H19_7 H 0.7029 0.0067 0.0535
H20_7 H 0.7811 0.0323 0.0622
H43_7 H 0.6285 0.0055 0.3322
C48_7 C 0.6922(6) 0.0302(4) 0.3162(3)
H44_7 H 0.6811 0.0614 0.3115
C49_7 C 0.7352(7) 0.0225(5) 0.3109(3)
H45_7 H 0.7567 0.0471 0.3035
C28_7 C 0.9011(2) 0.0375(2) 0.9306(2)
O11_6 O 0.91198(16) 0.05662(15) 0.89196(15)
O12_7 O 0.86913(16) 0.05156(16) 0.95751(14)
H24_7 H 0.9776 0.0012 0.8910
Ni4_6 Ni 0.8750 0.10100(3) 0.85100(3)
C1_7 C 0.7875(2) 0.8489(2) 0.1806(2)
C2_7 C 0.7457(2) 0.81950(19) 0.1945(2)
C3_7 C 0.73322(19) 0.78078(19) 0.16789(19)
H1_7 H 0.7512 0.7724 0.1410
C4_7 C 0.9165(4) 0.9022(5) 0.1745(4)
C5_7 C 0.9534(10) 0.9304(11) 0.1560(11)
H2_7 H 0.9591 0.9217 0.1231
H3_7 H 0.9821 0.9253 0.1744
H4_7 H 0.9444 0.9636 0.1577
C6_7 C 0.8280(3) 0.8394(4) 0.0031(3)
C9_7 C 0.8164(3) 0.7501(4) 0.0235(5)
H8_7 H 0.8122 0.7177 0.0311
C10_7 C 0.8279(3) 0.7815(3) 0.0587(3)
H9_7 H 0.8314 0.7709 0.0903
N1_7 N 0.83387(18) 0.8265(3) 0.04813(19)
O1_7 O 0.80662(15) 0.83802(16) 0.14196(15)
O2_7 O 0.80156(16) 0.88087(16) 0.20751(14)
O3_7 O 0.87153(17) 0.91664(19) 0.15876(16)
H10_7 H 0.8508 0.8991 0.1706
Ni1_6 Ni 0.85100(3) 0.8750 0.10100(3)
C11_7 C 0.6945(2) 0.7543(2) 0.18050(19)
C12_7 C 0.6806(2) 0.7125(2) 0.1511(2)
O4_7 O 0.64196(15) 0.69338(15) 0.16198(16)
O5_7 O 0.70751(14) 0.69844(16) 0.11913(16)
C13_7 C 0.66789(19) 0.76678(19) 0.21922(19)
C14_7 C 0.68050(19) 0.8055(2) 0.2457(2)
C15_7 C 0.6511(2) 0.8194(2) 0.2875(2)
O6_7 O 0.66198(16) 0.85804(15) 0.30662(15)
O7_7 O 0.61913(16) 0.79249(14) 0.30156(16)
C16_7 C 0.71922(19) 0.83211(19) 0.23322(19)
H11_7 H 0.7276 0.8590 0.2512
H12_7 H 0.6410 0.7488 0.2276
C17_7 C 0.9245(4) 0.8478(5) 0.1665(4)
C18_7 C 0.9060(11) 0.8196(11) 0.2034(10)
H13_7 H 0.8731 0.8283 0.2091
H14_7 H 0.9244 0.8247 0.2321
H15_7 H 0.9077 0.7864 0.1944
O8_7 O 0.90876(16) 0.83336(19) 0.12153(17)
H16_7 H 0.9206 0.8509 0.1008
C19_7 C 0.7531(3) 0.9106(4) 0.0780(3)
H17_7 H 0.7445 0.8785 0.0822
C20_7 C 0.7198(4) 0.9422(6) 0.0662(3)
H18_7 H 0.6886 0.9311 0.0615
C21_7 C 0.7275(5) 0.9852(7) 0.0609(3)
C22_7 C 0.7735(5) 0.9999(4) 0.0664(3)
C23_7 C 0.8087(3) 0.9685(3) 0.0779(3)
H21_7 H 0.8403 0.9791 0.0814
N2_7 N 0.79813(19) 0.9235(3) 0.08387(18)
C24_7 C 0.9306(2) 0.9011(2) 0.0375(2)
H22_7 H 0.8910 0.9776 0.0012
O9_6 O 0.89196(15) 0.91198(16) 0.05662(15)
O10_7 O 0.95751(14) 0.86913(16) 0.05156(16)
Ni2_6 Ni 0.60100(3) 0.64900(3) 0.1250
C33_7 C 0.5031(3) 0.6720(3) 0.1606(4)
H25_7 H 0.4945 0.6678 0.1285
C34_7 C 0.4698(4) 0.6838(3) 0.1922(6)
H26_7 H 0.4386 0.6885 0.1811
C35_7 C 0.4775(5) 0.6891(3) 0.2352(7)
H27_7 H 0.4529 0.6965 0.2567
C36_7 C 0.5235(5) 0.6836(3) 0.2499(4)
H28_7 H 0.5311 0.6878 0.2823
C37_7 C 0.5587(3) 0.6721(3) 0.2185(3)
H29_7 H 0.5903 0.6686 0.2291
N3_7 N 0.54813(19) 0.66613(18) 0.1735(3)
C38_7 C 0.5780(3) 0.7469(3) 0.0894(4)
H30_7 H 0.5822 0.7555 0.1215
C39_7 C 0.5662(3) 0.7802(4) 0.0578(6)
H31_7 H 0.5615 0.8114 0.0689
C40_7 C 0.5609(3) 0.7725(5) 0.0148(7)
C41_7 C 0.5664(3) 0.7265(5) 0.0001(4)
C42_7 C 0.5779(3) 0.6913(3) 0.0315(3)
H34_7 H 0.5814 0.6597 0.0209
N4_7 N 0.58387(18) 0.70187(19) 0.0765(3)
C43_7 C 0.6745(4) 0.5835(4) 0.0978(5)
C44_7 C 0.6560(11) 0.5466(10) 0.0696(11)
H35_7 H 0.6231 0.5409 0.0783
H36_7 H 0.6744 0.5179 0.0747
H37_7 H 0.6577 0.5556 0.0364
O15_7 O 0.65876(16) 0.62847(17) 0.08336(19)
H38_7 H 0.6706 0.6492 0.1009
C45_7 C 0.6665(4) 0.5755(4) 0.1522(5)
C46_7 C 0.7034(10) 0.5940(11) 0.1804(11)
H39_7 H 0.7091 0.6269 0.1717
H40_7 H 0.7321 0.5756 0.1753
H41_7 H 0.6944 0.5923 0.2136
O16_7 O 0.62153(17) 0.59124(16) 0.16664(19)
H42_7 H 0.6008 0.5794 0.1491
C47_7 C 0.6606(4) 0.9969(3) 0.3280(3)
C50_7 C 0.7499(4) 0.9765(5) 0.3164(3)
H46_7 H 0.7823 0.9689 0.3122
C51_7 C 0.7185(3) 0.9413(3) 0.3279(3)
H47_7 H 0.7291 0.9097 0.3314
N5_7 N 0.6735(3) 0.95187(19) 0.33387(18)
C52_7 C 0.5894(4) 0.9220(3) 0.2531(3)
H48_7 H 0.6215 0.9178 0.2445
C53_7 C 0.5578(6) 0.9338(3) 0.2198(4)
H49_7 H 0.5689 0.9385 0.1886
C54_7 C 0.5148(7) 0.9391(3) 0.2275(5)
H50_7 H 0.4933 0.9465 0.2029
C55_7 C 0.5001(4) 0.9336(3) 0.2735(5)
H51_7 H 0.4677 0.9378 0.2811
C56_7 C 0.5315(3) 0.9221(3) 0.3087(3)
H52_7 H 0.5209 0.9186 0.3403
N6_7 N 0.5765(3) 0.91613(18) 0.29813(19)
C57_7 C 0.5978(5) 0.8255(4) 0.4165(4)
C58_7 C 0.5696(11) 0.8440(11) 0.4534(10)
H53_7 H 0.5783 0.8769 0.4591
H54_7 H 0.5747 0.8256 0.4821
H55_7 H 0.5364 0.8423 0.4444
O17_7 O 0.58336(19) 0.84124(16) 0.37153(17)
H56_7 H 0.6009 0.8294 0.3508
C59_7 C 0.6522(5) 0.8335(4) 0.4245(4)
C60_7 C 0.6804(11) 0.7966(10) 0.4060(11)
H57_7 H 0.6717 0.7909 0.3731
H58_7 H 0.6753 0.7679 0.4244
H59_7 H 0.7136 0.8056 0.4077
O18_7 O 0.66664(19) 0.87847(17) 0.40876(16)
H60_7 H 0.6491 0.8992 0.4206
O19_6 O 0.55662(15) 0.60804(15) 0.08802(16)
H61_7 H 0.91684 0.90763 0.212457
H62_7 H 0.962457 0.84237 0.16684
H63_7 H 0.66684 0.537543 0.15763
H64_7 H 0.712457 0.58316 0.0923698
H65_7 H 0.59237 0.787543 0.41684
H66_7 H 0.65763 0.83316 0.462457
H5_7 H 0.8322 0.8715 0.9945
C7_7 C 0.8162(3) 0.8078(6) 0.9698(4)
H6_7 H 0.8115 0.8189 0.9386
C8_7 C 0.8109(3) 0.7648(7) 0.9775(5)
H7_7 H 0.8035 0.7433 0.9529
C25_7 C 0.9445(2) 0.93050(19) 0.9957(2)
C26_7 C 0.91789(19) 0.96922(19) 0.98322(19)
C27_7 C 0.93050(19) 0.9957(2) 0.9445(2)
C29_7 C 0.96922(19) 0.98322(19) 0.91789(19)
C30_7 C 0.9957(2) 0.9445(2) 0.93050(19)
C32_7 C 0.98322(19) 0.91789(19) 0.96922(19)
H32_7 H 0.5535 0.7971 0.9933
H33_7 H 0.5622 0.7189 0.9677
C24_8 C 0.4011(2) 0.4625(2) 0.0694(2)
C25_8 C 0.43050(19) 0.5043(2) 0.0555(2)
C26_8 C 0.46922(19) 0.51678(19) 0.08211(19)
H22_8 H 0.4776 0.4988 0.1090
O10_8 O 0.36913(16) 0.44844(16) 0.04249(14)
C27_8 C 0.4957(2) 0.5555(2) 0.06950(19)
C28_8 C 0.5375(2) 0.5694(2) 0.0989(2)
O12_8 O 0.55156(16) 0.54249(14) 0.13087(16)
C29_8 C 0.48322(19) 0.58211(19) 0.03078(19)
C30_8 C 0.4445(2) 0.56950(19) 0.0043(2)
C32_8 C 0.41789(19) 0.53078(19) 0.01678(19)
H24_8 H 0.5012 0.6090 0.0224
C31_8 C 0.4306(2) 0.5989(2) 0.9625(2)
O14_8 O 0.45751(14) 0.63087(16) 0.94844(16)
H23_8 H 0.3910 0.5224 0.9988
H25_8 H 0.0055 0.3322 0.6285
C34_8 C 0.0302(4) 0.3162(3) 0.6922(6)
H26_8 H 0.0614 0.3115 0.6811
C35_8 C 0.0225(5) 0.3109(3) 0.7352(7)
H27_8 H 0.0471 0.3035 0.7567
H50_8 H 0.0067 0.0535 0.7029
H51_8 H 0.0323 0.0622 0.7811
C1_8 C 0.7125(2) 0.1511(2) 0.6806(2)
C2_8 C 0.7543(2) 0.18050(19) 0.6945(2)
C3_8 C 0.76678(19) 0.21922(19) 0.66789(19)
H1_8 H 0.7488 0.2276 0.6410
C4_8 C 0.5835(4) 0.0978(5) 0.6745(4)
C5_8 C 0.5466(10) 0.0696(11) 0.6560(11)
H2_8 H 0.5409 0.0783 0.6231
H3_8 H 0.5179 0.0747 0.6744
H4_8 H 0.5556 0.0364 0.6577
C6_8 C 0.6720(3) 0.1606(4) 0.5031(3)
H5_8 H 0.6678 0.1285 0.4945
C7_8 C 0.6838(3) 0.1922(6) 0.4698(4)
H6_8 H 0.6885 0.1811 0.4386
C8_8 C 0.6891(3) 0.2352(7) 0.4775(5)
H7_8 H 0.6965 0.2567 0.4529
C9_8 C 0.6836(3) 0.2499(4) 0.5235(5)
H8_8 H 0.6878 0.2823 0.5311
C10_8 C 0.6721(3) 0.2185(3) 0.5587(3)
H9_8 H 0.6686 0.2291 0.5903
N1_8 N 0.66613(18) 0.1735(3) 0.54813(19)
O1_8 O 0.69338(15) 0.16198(16) 0.64196(15)
O2_8 O 0.69844(16) 0.11913(16) 0.70751(14)
O3_8 O 0.62847(17) 0.08336(19) 0.65876(16)
H10_8 H 0.6492 0.1009 0.6706
C11_8 C 0.8055(2) 0.2457(2) 0.68050(19)
C12_8 C 0.8194(2) 0.2875(2) 0.6511(2)
O4_8 O 0.85804(15) 0.30662(15) 0.66198(16)
O5_8 O 0.79249(14) 0.30156(16) 0.61913(16)
C13_8 C 0.83211(19) 0.23322(19) 0.71922(19)
C14_8 C 0.81950(19) 0.1945(2) 0.7457(2)
C15_8 C 0.8489(2) 0.1806(2) 0.7875(2)
O6_8 O 0.83802(16) 0.14196(15) 0.80662(15)
O7_8 O 0.88087(16) 0.20751(14) 0.80156(16)
C16_8 C 0.78078(19) 0.16789(19) 0.73322(19)
H11_8 H 0.7724 0.1410 0.7512
H12_8 H 0.8590 0.2512 0.7276
C17_8 C 0.5755(4) 0.1522(5) 0.6665(4)
C18_8 C 0.5940(11) 0.1804(11) 0.7034(10)
H13_8 H 0.6269 0.1717 0.7091
H14_8 H 0.5756 0.1753 0.7321
H15_8 H 0.5923 0.2136 0.6944
O8_8 O 0.59124(16) 0.16664(19) 0.62153(17)
H16_8 H 0.5794 0.1491 0.6008
C19_8 C 0.7469(3) 0.0894(4) 0.5780(3)
H17_8 H 0.7555 0.1215 0.5822
C20_8 C 0.7802(4) 0.0578(6) 0.5662(3)
H18_8 H 0.8114 0.0689 0.5615
C21_8 C 0.7725(5) 0.0148(7) 0.5609(3)
C22_8 C 0.7265(5) 0.0001(4) 0.5664(3)
C23_8 C 0.6913(3) 0.0315(3) 0.5779(3)
H21_8 H 0.6597 0.0209 0.5814
N2_8 N 0.70187(19) 0.0765(3) 0.58387(18)
C33_8 C 0.9969(3) 0.3280(3) 0.6606(4)
C36_8 C 0.9765(5) 0.3164(3) 0.7499(4)
H28_8 H 0.9689 0.3122 0.7823
C37_8 C 0.9413(3) 0.3279(3) 0.7185(3)
H29_8 H 0.9097 0.3314 0.7291
N3_8 N 0.95187(19) 0.33387(18) 0.6735(3)
C38_8 C 0.9220(3) 0.2531(3) 0.5894(4)
H30_8 H 0.9178 0.2445 0.6215
C39_8 C 0.9338(3) 0.2198(4) 0.5578(6)
H31_8 H 0.9385 0.1886 0.5689
C40_8 C 0.9391(3) 0.2275(5) 0.5148(7)
H32_8 H 0.9465 0.2029 0.4933
C41_8 C 0.9336(3) 0.2735(5) 0.5001(4)
H33_8 H 0.9378 0.2811 0.4677
C42_8 C 0.9221(3) 0.3087(3) 0.5315(3)
H34_8 H 0.9186 0.3403 0.5209
N4_8 N 0.91613(18) 0.29813(19) 0.5765(3)
C43_8 C 0.8255(4) 0.4165(4) 0.5978(5)
C44_8 C 0.8440(11) 0.4534(10) 0.5696(11)
H35_8 H 0.8769 0.4591 0.5783
H36_8 H 0.8256 0.4821 0.5747
H37_8 H 0.8423 0.4444 0.5364
O15_8 O 0.84124(16) 0.37153(17) 0.58336(19)
H38_8 H 0.8294 0.3508 0.6009
C45_8 C 0.8335(4) 0.4245(4) 0.6522(5)
C46_8 C 0.7966(10) 0.4060(11) 0.6804(11)
H39_8 H 0.7909 0.3731 0.6717
H40_8 H 0.7679 0.4244 0.6753
H41_8 H 0.8056 0.4077 0.7136
O16_8 O 0.87847(17) 0.40876(16) 0.66664(19)
H42_8 H 0.8992 0.4206 0.6491
C47_8 C 0.8394(4) 0.0031(3) 0.8280(3)
C50_8 C 0.7501(4) 0.0235(5) 0.8164(3)
H46_8 H 0.7177 0.0311 0.8122
C51_8 C 0.7815(3) 0.0587(3) 0.8279(3)
H47_8 H 0.7709 0.0903 0.8314
N5_8 N 0.8265(3) 0.04813(19) 0.83387(18)
C52_8 C 0.9106(4) 0.0780(3) 0.7531(3)
H48_8 H 0.8785 0.0822 0.7445
C53_8 C 0.9422(6) 0.0662(3) 0.7198(4)
H49_8 H 0.9311 0.0615 0.6886
C54_8 C 0.9852(7) 0.0609(3) 0.7275(5)
C55_8 C 0.9999(4) 0.0664(3) 0.7735(5)
C56_8 C 0.9685(3) 0.0779(3) 0.8087(3)
H52_8 H 0.9791 0.0814 0.8403
N6_8 N 0.9235(3) 0.08387(18) 0.79813(19)
C57_8 C 0.9022(5) 0.1745(4) 0.9165(4)
C58_8 C 0.9304(11) 0.1560(11) 0.9534(10)
H53_8 H 0.9217 0.1231 0.9591
H54_8 H 0.9253 0.1744 0.9821
H55_8 H 0.9636 0.1577 0.9444
O17_8 O 0.91664(19) 0.15876(16) 0.87153(17)
H56_8 H 0.8991 0.1706 0.8508
C59_8 C 0.8478(5) 0.1665(4) 0.9245(4)
C60_8 C 0.8196(11) 0.2034(10) 0.9060(11)
H57_8 H 0.8283 0.2091 0.8731
H58_8 H 0.8247 0.2321 0.9244
H59_8 H 0.7864 0.1944 0.9077
O18_8 O 0.83336(19) 0.12153(17) 0.90876(16)
H60_8 H 0.8509 0.1008 0.9206
H61_8 H 0.58316 0.0923698 0.712457
H62_8 H 0.537543 0.15763 0.66684
H63_8 H 0.83316 0.462457 0.65763
H64_8 H 0.787543 0.41684 0.59237
H65_8 H 0.90763 0.212457 0.91684
H66_8 H 0.84237 0.16684 0.962457
H19_8 H 0.7971 0.9933 0.5535
H20_8 H 0.7189 0.9677 0.5622
H43_8 H 0.8715 0.9945 0.8322
C48_8 C 0.8078(6) 0.9698(4) 0.8162(3)
H44_8 H 0.8189 0.9386 0.8115
C49_8 C 0.7648(7) 0.9775(5) 0.8109(3)
H45_8 H 0.7433 0.9529 0.8035
loop_
_geom_bond_atom_site_label_1
_geom_bond_atom_site_label_2
_geom_bond_site_symmetry_1
_geom_bond_site_symmetry_2
O6 C15 1_555 1_555
O7 C15 1_555 1_555
Ni3 O6 1_555 1_555
C47 H43 1_555 1_555
C48 C47 1_555 1_555
H44 C48 1_555 1_555
C49 C48 1_555 1_555
H45 C49 1_555 1_555
C50 C49 1_555 1_555
H46 C50 1_555 1_555
C51 C50 1_555 1_555
H47 C51 1_555 1_555
N5 Ni3 1_555 1_555
H51 C55 1_555 1_555
C56 C55 1_555 1_555
H52 C56 1_555 1_555
N6 Ni3 1_555 1_555
C57 C58 1_555 1_555
C58 H53 1_555 1_555
H54 C58 1_555 1_555
H55 C58 1_555 1_555
O17 Ni3 1_555 1_555
H56 O17 1_555 1_555
C59 C57 1_555 1_555
C60 C59 1_555 1_555
H57 C60 1_555 1_555
H58 C60 1_555 1_555
H59 C60 1_555 1_555
O18 Ni3 1_555 1_555
H60 O18 1_555 1_555
O20 Ni3 1_555 1_555
C47 N5 1_555 1_555
C51 N5 1_555 1_555
C52 N6 1_555 1_555
C56 N6 1_555 1_555
C57 O17 1_555 1_555
C59 O18 1_555 1_555
C57 H65 1_555 1_555
C59 H66 1_555 1_555
C1 C2 1_555 1_555
C2 C3 1_555 1_555
C3 H1 1_555 1_555
C4 C5 1_555 1_555
C5 H2 1_555 1_555
H3 C5 1_555 1_555
H4 C5 1_555 1_555
C6 H5 1_555 1_555
C7 C6 1_555 1_555
H6 C7 1_555 1_555
C8 C7 1_555 1_555
C9 C8 1_555 1_555
C10 C9 1_555 1_555
H9 C10 1_555 1_555
N1 C6 1_555 1_555
O1 C1 1_555 1_555
O2 C1 1_555 1_555
O3 C4 1_555 1_555
H10 O3 1_555 1_555
Ni1 N1 1_555 1_555
C11 C3 1_555 1_555
C13 C11 1_555 1_555
C14 C13 1_555 1_555
C16 C2 1_555 1_555
C17 C4 1_555 1_555
C18 C17 1_555 1_555
H13 C18 1_555 1_555
H14 C18 1_555 1_555
H15 C18 1_555 1_555
O8 Ni1 1_555 1_555
H16 O8 1_555 1_555
C19 H17 1_555 1_555
C20 C19 1_555 1_555
H18 C20 1_555 1_555
C21 C20 1_555 1_555
H19 C21 1_555 1_555
C22 C21 1_555 1_555
H20 C22 1_555 1_555
C23 C22 1_555 1_555
H21 C23 1_555 1_555
N2 Ni1 1_555 1_555
C24 C25 1_555 1_555
C25 C26 1_555 1_555
C26 H22 1_555 1_555
O9 Ni1 1_555 1_555
O10 C24 1_555 1_555
C27 C26 1_555 1_555
C28 C27 1_555 1_555
O11 C28 1_555 1_555
O12 C28 1_555 1_555
C29 C27 1_555 1_555
C30 C29 1_555 1_555
C31 C30 1_555 1_555
O13 C31 1_555 1_555
O14 C31 1_555 1_555
C32 C25 1_555 1_555
H23 C32 1_555 1_555
H24 C29 1_555 1_555
H31 C39 1_555 1_555
C40 C39 1_555 1_555
H32 C40 1_555 1_555
H49 C53 1_555 1_555
C54 C53 1_555 1_555
H50 C54 1_555 1_555
Ni4 O11 1_555 1_555
Ni5 O13 1_555 1_555
C10 N1 1_555 1_555
O1 Ni1 1_555 1_555
O3 Ni1 1_555 1_555
C14 C16 1_555 1_555
C17 O8 1_555 1_555
C19 N2 1_555 1_555
C23 N2 1_555 1_555
C24 O9 1_555 1_555
C30 C32 1_555 1_555
C4 H61 1_555 1_555
C17 H62 1_555 1_555
O4 C12 1_555 1_555
O5 C12 1_555 1_555
Ni2 O4 1_555 1_555
C33 H25 1_555 1_555
C34 C33 1_555 1_555
H26 C34 1_555 1_555
C35 C34 1_555 1_555
C36 C35 1_555 1_555
C37 C36 1_555 1_555
H29 C37 1_555 1_555
N3 Ni2 1_555 1_555
H33 C41 1_555 1_555
C42 C41 1_555 1_555
H34 C42 1_555 1_555
N4 Ni2 1_555 1_555
C43 C44 1_555 1_555
C44 H35 1_555 1_555
H36 C44 1_555 1_555
H37 C44 1_555 1_555
O15 Ni2 1_555 1_555
H38 O15 1_555 1_555
C45 C43 1_555 1_555
C46 C45 1_555 1_555
H39 C46 1_555 1_555
H40 C46 1_555 1_555
H41 C46 1_555 1_555
O16 Ni2 1_555 1_555
H42 O16 1_555 1_555
O19 Ni2 1_555 1_555
C33 N3 1_555 1_555
C37 N3 1_555 1_555
C38 N4 1_555 1_555
C42 N4 1_555 1_555
C43 O15 1_555 1_555
C45 O16 1_555 1_555
C45 H63 1_555 1_555
C43 H64 1_555 1_555
O6_2 C15_2 1_555 1_555
O7_2 C15_2 1_555 1_555
Ni3_2 O6_2 1_555 1_555
C47_2 H43_2 1_555 1_555
C48_2 C47_2 1_555 1_555
H44_2 C48_2 1_555 1_555
C49_2 C48_2 1_555 1_555
H45_2 C49_2 1_555 1_555
C50_2 C49_2 1_555 1_555
H46_2 C50_2 1_555 1_555
C51_2 C50_2 1_555 1_555
H47_2 C51_2 1_555 1_555
N5_2 Ni3_2 1_555 1_555
H51_2 C55_2 1_555 1_555
C56_2 C55_2 1_555 1_555
H52_2 C56_2 1_555 1_555
N6_2 Ni3_2 1_555 1_555
C57_2 C58_2 1_555 1_555
C58_2 H53_2 1_555 1_555
H54_2 C58_2 1_555 1_555
H55_2 C58_2 1_555 1_555
O17_2 Ni3_2 1_555 1_555
H56_2 O17_2 1_555 1_555
C59_2 C57_2 1_555 1_555
C60_2 C59_2 1_555 1_555
H57_2 C60_2 1_555 1_555
H58_2 C60_2 1_555 1_555
H59_2 C60_2 1_555 1_555
O18_2 Ni3_2 1_555 1_555
H60_2 O18_2 1_555 1_555
O20_2 Ni3_2 1_555 1_555
C47_2 N5_2 1_555 1_555
C51_2 N5_2 1_555 1_555
C52_2 N6_2 1_555 1_555
C56_2 N6_2 1_555 1_555
C57_2 O17_2 1_555 1_555
C59_2 O18_2 1_555 1_555
C57_2 H65_2 1_555 1_555
C59_2 H66_2 1_555 1_555
C1_2 C2_2 1_555 1_555
C2_2 C3_2 1_555 1_555
C3_2 H1_2 1_555 1_555
C4_2 C5_2 1_555 1_555
C5_2 H2_2 1_555 1_555
H3_2 C5_2 1_555 1_555
H4_2 C5_2 1_555 1_555
C6_2 H5_2 1_555 1_555
C7_2 C6_2 1_555 1_555
H6_2 C7_2 1_555 1_555
C8_2 C7_2 1_555 1_555
C9_2 C8_2 1_555 1_555
C10_2 C9_2 1_555 1_555
H9_2 C10_2 1_555 1_555
N1_2 C6_2 1_555 1_555
O1_2 C1_2 1_555 1_555
O2_2 C1_2 1_555 1_555
O3_2 C4_2 1_555 1_555
H10_2 O3_2 1_555 1_555
Ni1_2 N1_2 1_555 1_555
C11_2 C3_2 1_555 1_555
C13_2 C11_2 1_555 1_555
C14_2 C13_2 1_555 1_555
C16_2 C2_2 1_555 1_555
C17_2 C4_2 1_555 1_555
C18_2 C17_2 1_555 1_555
H13_2 C18_2 1_555 1_555
H14_2 C18_2 1_555 1_555
H15_2 C18_2 1_555 1_555
O8_2 Ni1_2 1_555 1_555
H16_2 O8_2 1_555 1_555
C19_2 H17_2 1_555 1_555
C20_2 C19_2 1_555 1_555
H18_2 C20_2 1_555 1_555
C21_2 C20_2 1_555 1_555
H19_2 C21_2 1_555 1_555
C22_2 C21_2 1_555 1_555
H20_2 C22_2 1_555 1_555
C23_2 C22_2 1_555 1_555
H21_2 C23_2 1_555 1_555
N2_2 Ni1_2 1_555 1_555
C24_2 C25_2 1_555 1_555
C25_2 C26_2 1_555 1_555
C26_2 H22_2 1_555 1_555
O9_2 Ni1_2 1_555 1_555
O10_2 C24_2 1_555 1_555
C27_2 C26_2 1_555 1_555
C28_2 C27_2 1_555 1_555
O11_2 C28_2 1_555 1_555
O12_2 C28_2 1_555 1_555
C29_2 C27_2 1_555 1_555
C30_2 C29_2 1_555 1_555
C31_2 C30_2 1_555 1_555
O20 C31_2 1_555 1_555
O14_2 C31_2 1_555 1_555
C32_2 C25_2 1_555 1_555
H23_2 C32_2 1_555 1_555
H24_2 C29_2 1_555 1_555
H31_2 C39_2 1_555 1_555
C40_2 C39_2 1_555 1_555
H32_2 C40_2 1_555 1_555
H49_2 C53_2 1_555 1_555
C54_2 C53_2 1_555 1_555
H50_2 C54_2 1_555 1_555
Ni4_2 O11_2 1_555 1_555
C10_2 N1_2 1_555 1_555
O1_2 Ni1_2 1_555 1_555
O3_2 Ni1_2 1_555 1_555
C14_2 C16_2 1_555 1_555
C17_2 O8_2 1_555 1_555
C19_2 N2_2 1_555 1_555
C23_2 N2_2 1_555 1_555
C24_2 O9_2 1_555 1_555
C30_2 C32_2 1_555 1_555
C4_2 H61_2 1_555 1_555
C17_2 H62_2 1_555 1_555
O4_2 C12_2 1_555 1_555
O5_2 C12_2 1_555 1_555
Ni2_2 O4_2 1_555 1_555
C33_2 H25_2 1_555 1_555
C34_2 C33_2 1_555 1_555
H26_2 C34_2 1_555 1_555
C35_2 C34_2 1_555 1_555
C36_2 C35_2 1_555 1_555
C37_2 C36_2 1_555 1_555
H29_2 C37_2 1_555 1_555
N3_2 Ni2_2 1_555 1_555
H33_2 C41_2 1_555 1_555
C42_2 C41_2 1_555 1_555
H34_2 C42_2 1_555 1_555
N4_2 Ni2_2 1_555 1_555
C43_2 C44_2 1_555 1_555
C44_2 H35_2 1_555 1_555
H36_2 C44_2 1_555 1_555
H37_2 C44_2 1_555 1_555
O15_2 Ni2_2 1_555 1_555
H38_2 O15_2 1_555 1_555
C45_2 C43_2 1_555 1_555
C46_2 C45_2 1_555 1_555
H39_2 C46_2 1_555 1_555
H40_2 C46_2 1_555 1_555
H41_2 C46_2 1_555 1_555
O16_2 Ni2_2 1_555 1_555
H42_2 O16_2 1_555 1_555
O19_2 Ni2_2 1_555 1_555
C33_2 N3_2 1_555 1_555
C37_2 N3_2 1_555 1_555
C38_2 N4_2 1_555 1_555
C42_2 N4_2 1_555 1_555
C43_2 O15_2 1_555 1_555
C45_2 O16_2 1_555 1_555
C45_2 H63_2 1_555 1_555
C43_2 H64_2 1_555 1_555
O6_3 C15_3 1_555 1_555
O7_3 C15_3 1_555 1_555
Ni5 O6_3 1_555 1_555
C47_3 H43_3 1_555 1_555
C48_3 C47_3 1_555 1_555
H44_3 C48_3 1_555 1_555
C49_3 C48_3 1_555 1_555
H45_3 C49_3 1_555 1_555
C50_3 C49_3 1_555 1_555
H46_3 C50_3 1_555 1_555
C51_3 C50_3 1_555 1_555
H47_3 C51_3 1_555 1_555
N5_3 Ni5 1_555 1_555
H51_3 C55_3 1_555 1_555
C56_3 C55_3 1_555 1_555
H52_3 C56_3 1_555 1_555
N6_3 Ni5 1_555 1_555
C57_3 C58_3 1_555 1_555
C58_3 H53_3 1_555 1_555
H54_3 C58_3 1_555 1_555
H55_3 C58_3 1_555 1_555
O17_3 Ni5 1_555 1_555
H56_3 O17_3 1_555 1_555
C59_3 C57_3 1_555 1_555
C60_3 C59_3 1_555 1_555
H57_3 C60_3 1_555 1_555
H58_3 C60_3 1_555 1_555
H59_3 C60_3 1_555 1_555
O18_3 Ni5 1_555 1_555
H60_3 O18_3 1_555 1_555
C47_3 N5_3 1_555 1_555
C51_3 N5_3 1_555 1_555
C52_3 N6_3 1_555 1_555
C56_3 N6_3 1_555 1_555
C57_3 O17_3 1_555 1_555
C59_3 O18_3 1_555 1_555
C57_3 H65_3 1_555 1_555
C59_3 H66_3 1_555 1_555
C1_3 C2_3 1_555 1_555
C2_3 C3_3 1_555 1_555
C3_3 H1_3 1_555 1_555
C4_3 C5_3 1_555 1_555
C5_3 H2_3 1_555 1_555
H3_3 C5_3 1_555 1_555
H4_3 C5_3 1_555 1_555
C6_3 H5_3 1_555 1_555
C7_3 C6_3 1_555 1_555
H6_3 C7_3 1_555 1_555
C8_3 C7_3 1_555 1_555
C9_3 C8_3 1_555 1_555
C10_3 C9_3 1_555 1_555
H9_3 C10_3 1_555 1_555
N1_3 C6_3 1_555 1_555
O1_3 C1_3 1_555 1_555
O2_3 C1_3 1_555 1_555
O3_3 C4_3 1_555 1_555
H10_3 O3_3 1_555 1_555
Ni1_3 N1_3 1_555 1_555
C11_3 C3_3 1_555 1_555
C13_3 C11_3 1_555 1_555
C14_3 C13_3 1_555 1_555
C16_3 C2_3 1_555 1_555
C17_3 C4_3 1_555 1_555
C18_3 C17_3 1_555 1_555
H13_3 C18_3 1_555 1_555
H14_3 C18_3 1_555 1_555
H15_3 C18_3 1_555 1_555
O8_3 Ni1_3 1_555 1_555
H16_3 O8_3 1_555 1_555
C19_3 H17_3 1_555 1_555
C20_3 C19_3 1_555 1_555
H18_3 C20_3 1_555 1_555
C21_3 C20_3 1_555 1_555
H19_3 C21_3 1_555 1_555
C22_3 C21_3 1_555 1_555
H20_3 C22_3 1_555 1_555
C23_3 C22_3 1_555 1_555
H21_3 C23_3 1_555 1_555
N2_3 Ni1_3 1_555 1_555
C24_3 C25_3 1_555 1_555
C25_3 C26_3 1_555 1_555
C26_3 H22_3 1_555 1_555
O9_3 Ni1_3 1_555 1_555
O10_3 C24_3 1_555 1_555
C27_3 C26_3 1_555 1_555
C28_3 C27_3 1_555 1_555
O11_3 C28_3 1_555 1_555
O12_3 C28_3 1_555 1_555
C29_3 C27_3 1_555 1_555
C30_3 C29_3 1_555 1_555
C31_3 C30_3 1_555 1_555
O20_2 C31_3 1_555 1_555
O14_3 C31_3 1_555 1_555
C32_3 C25_3 1_555 1_555
H23_3 C32_3 1_555 1_555
H24_3 C29_3 1_555 1_555
H31_3 C39_3 1_555 1_555
C40_3 C39_3 1_555 1_555
H32_3 C40_3 1_555 1_555
H49_3 C53_3 1_555 1_555
C54_3 C53_3 1_555 1_555
H50_3 C54_3 1_555 1_555
Ni4_3 O11_3 1_555 1_555
C10_3 N1_3 1_555 1_555
O1_3 Ni1_3 1_555 1_555
O3_3 Ni1_3 1_555 1_555
C14_3 C16_3 1_555 1_555
C17_3 O8_3 1_555 1_555
C19_3 N2_3 1_555 1_555
C23_3 N2_3 1_555 1_555
C24_3 O9_3 1_555 1_555
C30_3 C32_3 1_555 1_555
C4_3 H61_3 1_555 1_555
C17_3 H62_3 1_555 1_555
O4_3 C12_3 1_555 1_555
O5_3 C12_3 1_555 1_555
Ni2_3 O4_3 1_555 1_555
C33_3 H25_3 1_555 1_555
C34_3 C33_3 1_555 1_555
H26_3 C34_3 1_555 1_555
C35_3 C34_3 1_555 1_555
C36_3 C35_3 1_555 1_555
C37_3 C36_3 1_555 1_555
H29_3 C37_3 1_555 1_555
N3_3 Ni2_3 1_555 1_555
H33_3 C41_3 1_555 1_555
C42_3 C41_3 1_555 1_555
H34_3 C42_3 1_555 1_555
N4_3 Ni2_3 1_555 1_555
C43_3 C44_3 1_555 1_555
C44_3 H35_3 1_555 1_555
H36_3 C44_3 1_555 1_555
H37_3 C44_3 1_555 1_555
O15_3 Ni2_3 1_555 1_555
H38_3 O15_3 1_555 1_555
C45_3 C43_3 1_555 1_555
C46_3 C45_3 1_555 1_555
H39_3 C46_3 1_555 1_555
H40_3 C46_3 1_555 1_555
H41_3 C46_3 1_555 1_555
O16_3 Ni2_3 1_555 1_555
H42_3 O16_3 1_555 1_555
O19_3 Ni2_3 1_555 1_555
C33_3 N3_3 1_555 1_555
C37_3 N3_3 1_555 1_555
C38_3 N4_3 1_555 1_555
C42_3 N4_3 1_555 1_555
C43_3 O15_3 1_555 1_555
C45_3 O16_3 1_555 1_555
C45_3 H63_3 1_555 1_555
C43_3 H64_3 1_555 1_555
C24_4 C25_4 1_555 1_555
C25_4 C26_4 1_555 1_555
C26_4 H22_4 1_555 1_555
O10_4 C24_4 1_555 1_555
C27_4 C26_4 1_555 1_555
C28_4 C27_4 1_555 1_555
O19 C28_4 1_555 1_555
O12_4 C28_4 1_555 1_555
C29_4 C27_4 1_555 1_555
C30_4 C29_4 1_555 1_555
C31_4 C30_4 1_555 1_555
O19_3 C31_4 1_555 1_555
O14_4 C31_4 1_555 1_555
C32_4 C25_4 1_555 1_555
H23_4 C32_4 1_555 1_555
H24_4 C29_4 1_555 1_555
C24_4 O19_2 1_555 1_555
C30_4 C32_4 1_555 1_555
C1_4 C2_4 1_555 1_555
C2_4 C3_4 1_555 1_555
C3_4 H1_4 1_555 1_555
C4_4 C5_4 1_555 1_555
C5_4 H2_4 1_555 1_555
H3_4 C5_4 1_555 1_555
H4_4 C5_4 1_555 1_555
C6_4 H5_4 1_555 1_555
C7_4 C6_4 1_555 1_555
H6_4 C7_4 1_555 1_555
C8_4 C7_4 1_555 1_555
H7_4 C8_4 1_555 1_555
C9_4 C8_4 1_555 1_555
H8_4 C9_4 1_555 1_555
C10_4 C9_4 1_555 1_555
H9_4 C10_4 1_555 1_555
N1_4 C6_4 1_555 1_555
O1_4 C1_4 1_555 1_555
O2_4 C1_4 1_555 1_555
O3_4 C4_4 1_555 1_555
H10_4 O3_4 1_555 1_555
Ni4_2 N1_4 1_555 1_555
C11_4 C3_4 1_555 1_555
C12_4 C11_4 1_555 1_555
O4_4 C12_4 1_555 1_555
O5_4 C12_4 1_555 1_555
C13_4 C11_4 1_555 1_555
C14_4 C13_4 1_555 1_555
C15_4 C14_4 1_555 1_555
O6_4 C15_4 1_555 1_555
O7_4 C15_4 1_555 1_555
C16_4 C2_4 1_555 1_555
H11_4 C16_4 1_555 1_555
H12_4 C13_4 1_555 1_555
C17_4 C4_4 1_555 1_555
C18_4 C17_4 1_555 1_555
H13_4 C18_4 1_555 1_555
H14_4 C18_4 1_555 1_555
H15_4 C18_4 1_555 1_555
O8_4 Ni4_2 1_555 1_555
H16_4 O8_4 1_555 1_555
C19_4 H17_4 1_555 1_555
C20_4 C19_4 1_555 1_555
H18_4 C20_4 1_555 1_555
C21_4 C20_4 1_555 1_555
H19_4 C21_4 1_555 1_555
C22_4 C21_4 1_555 1_555
H20_4 C22_4 1_555 1_555
C23_4 C22_4 1_555 1_555
H21_4 C23_4 1_555 1_555
N2_4 Ni4_2 1_555 1_555
Ni4_3 O4_4 1_555 1_555
Ni4 O6_4 1_555 1_555
C33_4 H25_4 1_555 1_555
C34_4 C33_4 1_555 1_555
H26_4 C34_4 1_555 1_555
C35_4 C34_4 1_555 1_555
H27_4 C35_4 1_555 1_555
C36_4 C35_4 1_555 1_555
H28_4 C36_4 1_555 1_555
C37_4 C36_4 1_555 1_555
H29_4 C37_4 1_555 1_555
N3_4 Ni4_3 1_555 1_555
C38_4 H30_4 1_555 1_555
C39_4 C38_4 1_555 1_555
H31_4 C39_4 1_555 1_555
C40_4 C39_4 1_555 1_555
H32_4 C40_4 1_555 1_555
C41_4 C40_4 1_555 1_555
H33_4 C41_4 1_555 1_555
C42_4 C41_4 1_555 1_555
H34_4 C42_4 1_555 1_555
N4_4 Ni4_3 1_555 1_555
C43_4 C44_4 1_555 1_555
C44_4 H35_4 1_555 1_555
H36_4 C44_4 1_555 1_555
H37_4 C44_4 1_555 1_555
O15_4 Ni4_3 1_555 1_555
H38_4 O15_4 1_555 1_555
C45_4 C43_4 1_555 1_555
C46_4 C45_4 1_555 1_555
H39_4 C46_4 1_555 1_555
H40_4 C46_4 1_555 1_555
H41_4 C46_4 1_555 1_555
O16_4 Ni4_3 1_555 1_555
H42_4 O16_4 1_555 1_555
C47_4 H43_4 1_555 1_555
C48_4 C47_4 1_555 1_555
H44_4 C48_4 1_555 1_555
C49_4 C48_4 1_555 1_555
H45_4 C49_4 1_555 1_555
C50_4 C49_4 1_555 1_555
H46_4 C50_4 1_555 1_555
C51_4 C50_4 1_555 1_555
H47_4 C51_4 1_555 1_555
N5_4 Ni4 1_555 1_555
C52_4 H48_4 1_555 1_555
C53_4 C52_4 1_555 1_555
H49_4 C53_4 1_555 1_555
C54_4 C53_4 1_555 1_555
H50_4 C54_4 1_555 1_555
C55_4 C54_4 1_555 1_555
H51_4 C55_4 1_555 1_555
C56_4 C55_4 1_555 1_555
H52_4 C56_4 1_555 1_555
N6_4 Ni4 1_555 1_555
C57_4 C58_4 1_555 1_555
C58_4 H53_4 1_555 1_555
H54_4 C58_4 1_555 1_555
H55_4 C58_4 1_555 1_555
O17_4 Ni4 1_555 1_555
H56_4 O17_4 1_555 1_555
C59_4 C57_4 1_555 1_555
C60_4 C59_4 1_555 1_555
H57_4 C60_4 1_555 1_555
H58_4 C60_4 1_555 1_555
H59_4 C60_4 1_555 1_555
O18_4 Ni4 1_555 1_555
H60_4 O18_4 1_555 1_555
C10_4 N1_4 1_555 1_555
O1_4 Ni4_2 1_555 1_555
O3_4 Ni4_2 1_555 1_555
C14_4 C16_4 1_555 1_555
C17_4 O8_4 1_555 1_555
C19_4 N2_4 1_555 1_555
C23_4 N2_4 1_555 1_555
C33_4 N3_4 1_555 1_555
C37_4 N3_4 1_555 1_555
C38_4 N4_4 1_555 1_555
C42_4 N4_4 1_555 1_555
C43_4 O15_4 1_555 1_555
C45_4 O16_4 1_555 1_555
C47_4 N5_4 1_555 1_555
C51_4 N5_4 1_555 1_555
C52_4 N6_4 1_555 1_555
C56_4 N6_4 1_555 1_555
C57_4 O17_4 1_555 1_555
C59_4 O18_4 1_555 1_555
C4_4 H61_4 1_555 1_555
C17_4 H62_4 1_555 1_555
C45_4 H63_4 1_555 1_555
C43_4 H64_4 1_555 1_555
C57_4 H65_4 1_555 1_555
C59_4 H66_4 1_555 1_555
C1_5 C2_5 1_555 1_555
C2_5 C3_5 1_555 1_555
C3_5 H1_5 1_555 1_555
C4_5 C5_5 1_555 1_555
C5_5 H2_5 1_555 1_555
H3_5 C5_5 1_555 1_555
H4_5 C5_5 1_555 1_555
C6_5 H5_5 1_555 1_555
C7_5 C6_5 1_555 1_555
H6_5 C7_5 1_555 1_555
C8_5 C7_5 1_555 1_555
H7_5 C8_5 1_555 1_555
C9_5 C8_5 1_555 1_555
H8_5 C9_5 1_555 1_555
C10_5 C9_5 1_555 1_555
H9_5 C10_5 1_555 1_555
N1_5 C6_5 1_555 1_555
O1_5 C1_5 1_555 1_555
O2_5 C1_5 1_555 1_555
O3_5 C4_5 1_555 1_555
H10_5 O3_5 1_555 1_555
Ni1_4 N1_5 1_555 1_555
C11_5 C3_5 1_555 1_555
C12_5 C11_5 1_555 1_555
O4_5 C12_5 1_555 1_555
O5_5 C12_5 1_555 1_555
C13_5 C11_5 1_555 1_555
C14_5 C13_5 1_555 1_555
C15_5 C14_5 1_555 1_555
O6_5 C15_5 1_555 1_555
O7_5 C15_5 1_555 1_555
C16_5 C2_5 1_555 1_555
H11_5 C16_5 1_555 1_555
H12_5 C13_5 1_555 1_555
C17_5 C4_5 1_555 1_555
C18_5 C17_5 1_555 1_555
H13_5 C18_5 1_555 1_555
H14_5 C18_5 1_555 1_555
H15_5 C18_5 1_555 1_555
O8_5 Ni1_4 1_555 1_555
H16_5 O8_5 1_555 1_555
C19_5 H17_5 1_555 1_555
C20_5 C19_5 1_555 1_555
H18_5 C20_5 1_555 1_555
C21_5 C20_5 1_555 1_555
H19_5 C21_5 1_555 1_555
C22_5 C21_5 1_555 1_555
H20_5 C22_5 1_555 1_555
C23_5 C22_5 1_555 1_555
H21_5 C23_5 1_555 1_555
N2_5 Ni1_4 1_555 1_555
C24_5 C25_5 1_555 1_555
C25_5 C26_5 1_555 1_555
C26_5 H22_5 1_555 1_555
O9_4 Ni1_4 1_555 1_555
O10_5 C24_5 1_555 1_555
C27_5 C26_5 1_555 1_555
C28_5 C27_5 1_555 1_555
O11_4 C28_5 1_555 1_555
O12_5 C28_5 1_555 1_555
C29_5 C27_5 1_555 1_555
C30_5 C29_5 1_555 1_555
C32_5 C25_5 1_555 1_555
H24_5 C29_5 1_555 1_555
Ni2_4 O4_5 1_555 1_555
Ni3_3 O6_5 1_555 1_555
C33_5 H25_5 1_555 1_555
C34_5 C33_5 1_555 1_555
H26_5 C34_5 1_555 1_555
C35_5 C34_5 1_555 1_555
H27_5 C35_5 1_555 1_555
C36_5 C35_5 1_555 1_555
H28_5 C36_5 1_555 1_555
C37_5 C36_5 1_555 1_555
H29_5 C37_5 1_555 1_555
N3_5 Ni2_4 1_555 1_555
C38_5 H30_5 1_555 1_555
C39_5 C38_5 1_555 1_555
H31_5 C39_5 1_555 1_555
C40_5 C39_5 1_555 1_555
H32_5 C40_5 1_555 1_555
C41_5 C40_5 1_555 1_555
H33_5 C41_5 1_555 1_555
C42_5 C41_5 1_555 1_555
H34_5 C42_5 1_555 1_555
N4_5 Ni2_4 1_555 1_555
C43_5 C44_5 1_555 1_555
C44_5 H35_5 1_555 1_555
H36_5 C44_5 1_555 1_555
H37_5 C44_5 1_555 1_555
O15_5 Ni2_4 1_555 1_555
H38_5 O15_5 1_555 1_555
C45_5 C43_5 1_555 1_555
C46_5 C45_5 1_555 1_555
H39_5 C46_5 1_555 1_555
H40_5 C46_5 1_555 1_555
H41_5 C46_5 1_555 1_555
O16_5 Ni2_4 1_555 1_555
H42_5 O16_5 1_555 1_555
C47_5 H43_5 1_555 1_555
C48_5 C47_5 1_555 1_555
H44_5 C48_5 1_555 1_555
C49_5 C48_5 1_555 1_555
H45_5 C49_5 1_555 1_555
C50_5 C49_5 1_555 1_555
H46_5 C50_5 1_555 1_555
C51_5 C50_5 1_555 1_555
H47_5 C51_5 1_555 1_555
N5_5 Ni3_3 1_555 1_555
C52_5 H48_5 1_555 1_555
C53_5 C52_5 1_555 1_555
H49_5 C53_5 1_555 1_555
C54_5 C53_5 1_555 1_555
H50_5 C54_5 1_555 1_555
C55_5 C54_5 1_555 1_555
H51_5 C55_5 1_555 1_555
C56_5 C55_5 1_555 1_555
H52_5 C56_5 1_555 1_555
N6_5 Ni3_3 1_555 1_555
C57_5 C58_5 1_555 1_555
C58_5 H53_5 1_555 1_555
H54_5 C58_5 1_555 1_555
H55_5 C58_5 1_555 1_555
O17_5 Ni3_3 1_555 1_555
H56_5 O17_5 1_555 1_555
C59_5 C57_5 1_555 1_555
C60_5 C59_5 1_555 1_555
H57_5 C60_5 1_555 1_555
H58_5 C60_5 1_555 1_555
H59_5 C60_5 1_555 1_555
O18_5 Ni3_3 1_555 1_555
H60_5 O18_5 1_555 1_555
Ni4_4 O11_4 1_555 1_555
O19_4 Ni2_4 1_555 1_555
O20_3 Ni3_3 1_555 1_555
C10_5 N1_5 1_555 1_555
O1_5 Ni1_4 1_555 1_555
O3_5 Ni1_4 1_555 1_555
C14_5 C16_5 1_555 1_555
C17_5 O8_5 1_555 1_555
C19_5 N2_5 1_555 1_555
C23_5 N2_5 1_555 1_555
C24_5 O9_4 1_555 1_555
C30_5 C32_5 1_555 1_555
C33_5 N3_5 1_555 1_555
C37_5 N3_5 1_555 1_555
C38_5 N4_5 1_555 1_555
C42_5 N4_5 1_555 1_555
C43_5 O15_5 1_555 1_555
C45_5 O16_5 1_555 1_555
C47_5 N5_5 1_555 1_555
C51_5 N5_5 1_555 1_555
C52_5 N6_5 1_555 1_555
C56_5 N6_5 1_555 1_555
C57_5 O17_5 1_555 1_555
C59_5 O18_5 1_555 1_555
C4_5 H61_5 1_555 1_555
C17_5 H62_5 1_555 1_555
C45_5 H63_5 1_555 1_555
C43_5 H64_5 1_555 1_555
C57_5 H65_5 1_555 1_555
C59_5 H66_5 1_555 1_555
O13_2 C31_5 1_555 1_555
O14_5 C31_5 1_555 1_555
Ni5_2 O13_2 1_555 1_555
H26_6 C34_6 1_555 1_555
C35_6 C34_6 1_555 1_555
H27_6 C35_6 1_555 1_555
C1_6 C2_6 1_555 1_555
C2_6 C3_6 1_555 1_555
C3_6 H1_6 1_555 1_555
C4_6 C5_6 1_555 1_555
C5_6 H2_6 1_555 1_555
H3_6 C5_6 1_555 1_555
H4_6 C5_6 1_555 1_555
C6_6 H5_6 1_555 1_555
C7_6 C6_6 1_555 1_555
H6_6 C7_6 1_555 1_555
C8_6 C7_6 1_555 1_555
H7_6 C8_6 1_555 1_555
C9_6 C8_6 1_555 1_555
H8_6 C9_6 1_555 1_555
C10_6 C9_6 1_555 1_555
H9_6 C10_6 1_555 1_555
N1_6 C6_6 1_555 1_555
O1_6 C1_6 1_555 1_555
O2_6 C1_6 1_555 1_555
O3_6 C4_6 1_555 1_555
H10_6 O3_6 1_555 1_555
Ni1_5 N1_6 1_555 1_555
C11_6 C3_6 1_555 1_555
C12_6 C11_6 1_555 1_555
O4_6 C12_6 1_555 1_555
O5_6 C12_6 1_555 1_555
C13_6 C11_6 1_555 1_555
C14_6 C13_6 1_555 1_555
C15_6 C14_6 1_555 1_555
O6_6 C15_6 1_555 1_555
O7_6 C15_6 1_555 1_555
C16_6 C2_6 1_555 1_555
H11_6 C16_6 1_555 1_555
H12_6 C13_6 1_555 1_555
C17_6 C4_6 1_555 1_555
C18_6 C17_6 1_555 1_555
H13_6 C18_6 1_555 1_555
H14_6 C18_6 1_555 1_555
H15_6 C18_6 1_555 1_555
O8_6 Ni1_5 1_555 1_555
H16_6 O8_6 1_555 1_555
C19_6 H17_6 1_555 1_555
C20_6 C19_6 1_555 1_555
H18_6 C20_6 1_555 1_555
C21_6 C20_6 1_555 1_555
C22_6 C21_6 1_555 1_555
C23_6 C22_6 1_555 1_555
H21_6 C23_6 1_555 1_555
N2_6 Ni1_5 1_555 1_555
C24_6 C25_6 1_555 1_555
C25_6 C26_6 1_555 1_555
C26_6 H22_6 1_555 1_555
O9_5 Ni1_5 1_555 1_555
O10_6 C24_6 1_555 1_555
C27_6 C26_6 1_555 1_555
C29_6 C27_6 1_555 1_555
C30_6 C29_6 1_555 1_555
C31_6 C30_6 1_555 1_555
O20_3 C31_6 1_555 1_555
O14_6 C31_6 1_555 1_555
C32_6 C25_6 1_555 1_555
H23_6 C32_6 1_555 1_555
Ni2_5 O4_6 1_555 1_555
Ni3_4 O6_6 1_555 1_555
H28_6 C36_6 1_555 1_555
C37_6 C36_6 1_555 1_555
H29_6 C37_6 1_555 1_555
N3_6 Ni2_5 1_555 1_555
C38_6 H30_6 1_555 1_555
C39_6 C38_6 1_555 1_555
H31_6 C39_6 1_555 1_555
C40_6 C39_6 1_555 1_555
H32_6 C40_6 1_555 1_555
C41_6 C40_6 1_555 1_555
H33_6 C41_6 1_555 1_555
C42_6 C41_6 1_555 1_555
H34_6 C42_6 1_555 1_555
N4_6 Ni2_5 1_555 1_555
C43_6 C44_6 1_555 1_555
C44_6 H35_6 1_555 1_555
H36_6 C44_6 1_555 1_555
H37_6 C44_6 1_555 1_555
O15_6 Ni2_5 1_555 1_555
H38_6 O15_6 1_555 1_555
C45_6 C43_6 1_555 1_555
C46_6 C45_6 1_555 1_555
H39_6 C46_6 1_555 1_555
H40_6 C46_6 1_555 1_555
H41_6 C46_6 1_555 1_555
O16_6 Ni2_5 1_555 1_555
H42_6 O16_6 1_555 1_555
H46_6 C50_6 1_555 1_555
C51_6 C50_6 1_555 1_555
H47_6 C51_6 1_555 1_555
N5_6 Ni3_4 1_555 1_555
C52_6 H48_6 1_555 1_555
C53_6 C52_6 1_555 1_555
H49_6 C53_6 1_555 1_555
C54_6 C53_6 1_555 1_555
C55_6 C54_6 1_555 1_555
C56_6 C55_6 1_555 1_555
H52_6 C56_6 1_555 1_555
N6_6 Ni3_4 1_555 1_555
C57_6 C58_6 1_555 1_555
C58_6 H53_6 1_555 1_555
H54_6 C58_6 1_555 1_555
H55_6 C58_6 1_555 1_555
O17_6 Ni3_4 1_555 1_555
H56_6 O17_6 1_555 1_555
C59_6 C57_6 1_555 1_555
C60_6 C59_6 1_555 1_555
H57_6 C60_6 1_555 1_555
H58_6 C60_6 1_555 1_555
H59_6 C60_6 1_555 1_555
O18_6 Ni3_4 1_555 1_555
H60_6 O18_6 1_555 1_555
O19_5 Ni2_5 1_555 1_555
O20_4 Ni3_4 1_555 1_555
C10_6 N1_6 1_555 1_555
O1_6 Ni1_5 1_555 1_555
O3_6 Ni1_5 1_555 1_555
C14_6 C16_6 1_555 1_555
C17_6 O8_6 1_555 1_555
C19_6 N2_6 1_555 1_555
C23_6 N2_6 1_555 1_555
C24_6 O9_5 1_555 1_555
C30_6 C32_6 1_555 1_555
C33_6 N3_6 1_555 1_555
C37_6 N3_6 1_555 1_555
C38_6 N4_6 1_555 1_555
C42_6 N4_6 1_555 1_555
C43_6 O15_6 1_555 1_555
C45_6 O16_6 1_555 1_555
C47_6 N5_6 1_555 1_555
C51_6 N5_6 1_555 1_555
C52_6 N6_6 1_555 1_555
C56_6 N6_6 1_555 1_555
C57_6 O17_6 1_555 1_555
C59_6 O18_6 1_555 1_555
C4_6 H61_6 1_555 1_555
C17_6 H62_6 1_555 1_555
C45_6 H63_6 1_555 1_555
C43_6 H64_6 1_555 1_555
C57_6 H65_6 1_555 1_555
C59_6 H66_6 1_555 1_555
O11_5 C28_6 1_555 1_555
O12_6 C28_6 1_555 1_555
H44_6 C48_6 1_555 1_555
C49_6 C48_6 1_555 1_555
H45_6 C49_6 1_555 1_555
Ni4_5 O11_5 1_555 1_555
O20_4 C31_7 1_555 1_555
O14_7 C31_7 1_555 1_555
H44_7 C48_7 1_555 1_555
C49_7 C48_7 1_555 1_555
H45_7 C49_7 1_555 1_555
O11_6 C28_7 1_555 1_555
O12_7 C28_7 1_555 1_555
Ni4_6 O11_6 1_555 1_555
C1_7 C2_7 1_555 1_555
C2_7 C3_7 1_555 1_555
C3_7 H1_7 1_555 1_555
C4_7 C5_7 1_555 1_555
C5_7 H2_7 1_555 1_555
H3_7 C5_7 1_555 1_555
H4_7 C5_7 1_555 1_555
H8_7 C9_7 1_555 1_555
C10_7 C9_7 1_555 1_555
H9_7 C10_7 1_555 1_555
N1_7 C6_7 1_555 1_555
O1_7 C1_7 1_555 1_555
O2_7 C1_7 1_555 1_555
O3_7 C4_7 1_555 1_555
H10_7 O3_7 1_555 1_555
Ni1_6 N1_7 1_555 1_555
C11_7 C3_7 1_555 1_555
C12_7 C11_7 1_555 1_555
O4_7 C12_7 1_555 1_555
O5_7 C12_7 1_555 1_555
C13_7 C11_7 1_555 1_555
C14_7 C13_7 1_555 1_555
C15_7 C14_7 1_555 1_555
O6_7 C15_7 1_555 1_555
O7_7 C15_7 1_555 1_555
C16_7 C2_7 1_555 1_555
H11_7 C16_7 1_555 1_555
H12_7 C13_7 1_555 1_555
C17_7 C4_7 1_555 1_555
C18_7 C17_7 1_555 1_555
H13_7 C18_7 1_555 1_555
H14_7 C18_7 1_555 1_555
H15_7 C18_7 1_555 1_555
O8_7 Ni1_6 1_555 1_555
H16_7 O8_7 1_555 1_555
C19_7 H17_7 1_555 1_555
C20_7 C19_7 1_555 1_555
H18_7 C20_7 1_555 1_555
C21_7 C20_7 1_555 1_555
C22_7 C21_7 1_555 1_555
C23_7 C22_7 1_555 1_555
H21_7 C23_7 1_555 1_555
N2_7 Ni1_6 1_555 1_555
O9_6 Ni1_6 1_555 1_555
O10_7 C24_7 1_555 1_555
Ni2_6 O4_7 1_555 1_555
Ni5_2 O6_7 1_555 1_555
C33_7 H25_7 1_555 1_555
C34_7 C33_7 1_555 1_555
H26_7 C34_7 1_555 1_555
C35_7 C34_7 1_555 1_555
H27_7 C35_7 1_555 1_555
C36_7 C35_7 1_555 1_555
H28_7 C36_7 1_555 1_555
C37_7 C36_7 1_555 1_555
H29_7 C37_7 1_555 1_555
N3_7 Ni2_6 1_555 1_555
C38_7 H30_7 1_555 1_555
C39_7 C38_7 1_555 1_555
H31_7 C39_7 1_555 1_555
C40_7 C39_7 1_555 1_555
C41_7 C40_7 1_555 1_555
C42_7 C41_7 1_555 1_555
H34_7 C42_7 1_555 1_555
N4_7 Ni2_6 1_555 1_555
C43_7 C44_7 1_555 1_555
C44_7 H35_7 1_555 1_555
H36_7 C44_7 1_555 1_555
H37_7 C44_7 1_555 1_555
O15_7 Ni2_6 1_555 1_555
H38_7 O15_7 1_555 1_555
C45_7 C43_7 1_555 1_555
C46_7 C45_7 1_555 1_555
H39_7 C46_7 1_555 1_555
H40_7 C46_7 1_555 1_555
H41_7 C46_7 1_555 1_555
O16_7 Ni2_6 1_555 1_555
H42_7 O16_7 1_555 1_555
H46_7 C50_7 1_555 1_555
C51_7 C50_7 1_555 1_555
H47_7 C51_7 1_555 1_555
N5_7 Ni5_2 1_555 1_555
C52_7 H48_7 1_555 1_555
C53_7 C52_7 1_555 1_555
H49_7 C53_7 1_555 1_555
C54_7 C53_7 1_555 1_555
H50_7 C54_7 1_555 1_555
C55_7 C54_7 1_555 1_555
H51_7 C55_7 1_555 1_555
C56_7 C55_7 1_555 1_555
H52_7 C56_7 1_555 1_555
N6_7 Ni5_2 1_555 1_555
C57_7 C58_7 1_555 1_555
C58_7 H53_7 1_555 1_555
H54_7 C58_7 1_555 1_555
H55_7 C58_7 1_555 1_555
O17_7 Ni5_2 1_555 1_555
H56_7 O17_7 1_555 1_555
C59_7 C57_7 1_555 1_555
C60_7 C59_7 1_555 1_555
H57_7 C60_7 1_555 1_555
H58_7 C60_7 1_555 1_555
H59_7 C60_7 1_555 1_555
O18_7 Ni5_2 1_555 1_555
H60_7 O18_7 1_555 1_555
O19_6 Ni2_6 1_555 1_555
C10_7 N1_7 1_555 1_555
O1_7 Ni1_6 1_555 1_555
O3_7 Ni1_6 1_555 1_555
C14_7 C16_7 1_555 1_555
C17_7 O8_7 1_555 1_555
C19_7 N2_7 1_555 1_555
C23_7 N2_7 1_555 1_555
C24_7 O9_6 1_555 1_555
C33_7 N3_7 1_555 1_555
C37_7 N3_7 1_555 1_555
C38_7 N4_7 1_555 1_555
C42_7 N4_7 1_555 1_555
C43_7 O15_7 1_555 1_555
C45_7 O16_7 1_555 1_555
C47_7 N5_7 1_555 1_555
C51_7 N5_7 1_555 1_555
C52_7 N6_7 1_555 1_555
C56_7 N6_7 1_555 1_555
C57_7 O17_7 1_555 1_555
C59_7 O18_7 1_555 1_555
C4_7 H61_7 1_555 1_555
C17_7 H62_7 1_555 1_555
C45_7 H63_7 1_555 1_555
C43_7 H64_7 1_555 1_555
C57_7 H65_7 1_555 1_555
C59_7 H66_7 1_555 1_555
H6_7 C7_7 1_555 1_555
C8_7 C7_7 1_555 1_555
H7_7 C8_7 1_555 1_555
C25_7 C26_7 1_555 1_555
C27_7 C26_7 1_555 1_555
C29_7 C27_7 1_555 1_555
C30_7 C29_7 1_555 1_555
C32_7 C25_7 1_555 1_555
C30_7 C32_7 1_555 1_555
C24_8 C25_8 1_555 1_555
C25_8 C26_8 1_555 1_555
C26_8 H22_8 1_555 1_555
O10_8 C24_8 1_555 1_555
C27_8 C26_8 1_555 1_555
C28_8 C27_8 1_555 1_555
O19_6 C28_8 1_555 1_555
O12_8 C28_8 1_555 1_555
C29_8 C27_8 1_555 1_555
C30_8 C29_8 1_555 1_555
C32_8 C25_8 1_555 1_555
H24_8 C29_8 1_555 1_555
C24_8 O19_4 1_555 1_555
C30_8 C32_8 1_555 1_555
O19_5 C31_8 1_555 1_555
O14_8 C31_8 1_555 1_555
H26_8 C34_8 1_555 1_555
C35_8 C34_8 1_555 1_555
H27_8 C35_8 1_555 1_555
C1_8 C2_8 1_555 1_555
C2_8 C3_8 1_555 1_555
C3_8 H1_8 1_555 1_555
C4_8 C5_8 1_555 1_555
C5_8 H2_8 1_555 1_555
H3_8 C5_8 1_555 1_555
H4_8 C5_8 1_555 1_555
C6_8 H5_8 1_555 1_555
C7_8 C6_8 1_555 1_555
H6_8 C7_8 1_555 1_555
C8_8 C7_8 1_555 1_555
H7_8 C8_8 1_555 1_555
C9_8 C8_8 1_555 1_555
H8_8 C9_8 1_555 1_555
C10_8 C9_8 1_555 1_555
H9_8 C10_8 1_555 1_555
N1_8 C6_8 1_555 1_555
O1_8 C1_8 1_555 1_555
O2_8 C1_8 1_555 1_555
O3_8 C4_8 1_555 1_555
H10_8 O3_8 1_555 1_555
Ni4_4 N1_8 1_555 1_555
C11_8 C3_8 1_555 1_555
C12_8 C11_8 1_555 1_555
O4_8 C12_8 1_555 1_555
O5_8 C12_8 1_555 1_555
C13_8 C11_8 1_555 1_555
C14_8 C13_8 1_555 1_555
C15_8 C14_8 1_555 1_555
O6_8 C15_8 1_555 1_555
O7_8 C15_8 1_555 1_555
C16_8 C2_8 1_555 1_555
H11_8 C16_8 1_555 1_555
H12_8 C13_8 1_555 1_555
C17_8 C4_8 1_555 1_555
C18_8 C17_8 1_555 1_555
H13_8 C18_8 1_555 1_555
H14_8 C18_8 1_555 1_555
H15_8 C18_8 1_555 1_555
O8_8 Ni4_4 1_555 1_555
H16_8 O8_8 1_555 1_555
C19_8 H17_8 1_555 1_555
C20_8 C19_8 1_555 1_555
H18_8 C20_8 1_555 1_555
C21_8 C20_8 1_555 1_555
C22_8 C21_8 1_555 1_555
C23_8 C22_8 1_555 1_555
H21_8 C23_8 1_555 1_555
N2_8 Ni4_4 1_555 1_555
Ni4_5 O4_8 1_555 1_555
Ni4_6 O6_8 1_555 1_555
H28_8 C36_8 1_555 1_555
C37_8 C36_8 1_555 1_555
H29_8 C37_8 1_555 1_555
N3_8 Ni4_5 1_555 1_555
C38_8 H30_8 1_555 1_555
C39_8 C38_8 1_555 1_555
H31_8 C39_8 1_555 1_555
C40_8 C39_8 1_555 1_555
H32_8 C40_8 1_555 1_555
C41_8 C40_8 1_555 1_555
H33_8 C41_8 1_555 1_555
C42_8 C41_8 1_555 1_555
H34_8 C42_8 1_555 1_555
N4_8 Ni4_5 1_555 1_555
C43_8 C44_8 1_555 1_555
C44_8 H35_8 1_555 1_555
H36_8 C44_8 1_555 1_555
H37_8 C44_8 1_555 1_555
O15_8 Ni4_5 1_555 1_555
H38_8 O15_8 1_555 1_555
C45_8 C43_8 1_555 1_555
C46_8 C45_8 1_555 1_555
H39_8 C46_8 1_555 1_555
H40_8 C46_8 1_555 1_555
H41_8 C46_8 1_555 1_555
O16_8 Ni4_5 1_555 1_555
H42_8 O16_8 1_555 1_555
H46_8 C50_8 1_555 1_555
C51_8 C50_8 1_555 1_555
H47_8 C51_8 1_555 1_555
N5_8 Ni4_6 1_555 1_555
C52_8 H48_8 1_555 1_555
C53_8 C52_8 1_555 1_555
H49_8 C53_8 1_555 1_555
C54_8 C53_8 1_555 1_555
C55_8 C54_8 1_555 1_555
C56_8 C55_8 1_555 1_555
H52_8 C56_8 1_555 1_555
N6_8 Ni4_6 1_555 1_555
C57_8 C58_8 1_555 1_555
C58_8 H53_8 1_555 1_555
H54_8 C58_8 1_555 1_555
H55_8 C58_8 1_555 1_555
O17_8 Ni4_6 1_555 1_555
H56_8 O17_8 1_555 1_555
C59_8 C57_8 1_555 1_555
C60_8 C59_8 1_555 1_555
H57_8 C60_8 1_555 1_555
H58_8 C60_8 1_555 1_555
H59_8 C60_8 1_555 1_555
O18_8 Ni4_6 1_555 1_555
H60_8 O18_8 1_555 1_555
C10_8 N1_8 1_555 1_555
O1_8 Ni4_4 1_555 1_555
O3_8 Ni4_4 1_555 1_555
C14_8 C16_8 1_555 1_555
C17_8 O8_8 1_555 1_555
C19_8 N2_8 1_555 1_555
C23_8 N2_8 1_555 1_555
C33_8 N3_8 1_555 1_555
C37_8 N3_8 1_555 1_555
C38_8 N4_8 1_555 1_555
C42_8 N4_8 1_555 1_555
C43_8 O15_8 1_555 1_555
C45_8 O16_8 1_555 1_555
C47_8 N5_8 1_555 1_555
C51_8 N5_8 1_555 1_555
C52_8 N6_8 1_555 1_555
C56_8 N6_8 1_555 1_555
C57_8 O17_8 1_555 1_555
C59_8 O18_8 1_555 1_555
C4_8 H61_8 1_555 1_555
C17_8 H62_8 1_555 1_555
C45_8 H63_8 1_555 1_555
C43_8 H64_8 1_555 1_555
C57_8 H65_8 1_555 1_555
C59_8 H66_8 1_555 1_555
H44_8 C48_8 1_555 1_555
C49_8 C48_8 1_555 1_555
H45_8 C49_8 1_555 1_555

#END
