
###############################################################################
#
# This file contains modified crystal structure data generated from the
# MOF subset of the Cambridge Structural Database (CSD) v543 
# hosted by the Cambridge Crystallographic Data Centre (CCDC).
#
# This work is licensed under the Creative Commons
# Attribution-NonCommercial-ShareAlike 4.0 International License.
# To view a copy of this license, visit
# http://creativecommons.org/licenses/by-nc-sa/4.0/
# or send a letter to
# Creative Commons, PO Box 1866, Mountain View, CA 94042, USA.
#
# CIF created using the CSD Python API on 29 September 2022
# The structure has been converted into the P1 space group
# The structure has a 3D framework
# The original CSD entry HUZFIS is in the monoclinic crystal system
# The framework has been calculated to contain at least 10.0% void space
# The void calculation uses a probe of radius 1.32A, grid spacing 0.4
# The framework is charged, counterions have been retained in the structure
#
###############################################################################

data_HUZFIS
_chemical_formula_moiety         '(C240 H168 Cd6 Cl8 N45 O32 4+)n'
_symmetry_cell_setting           triclinic
_symmetry_space_group_name_H-M   'P 1'
_symmetry_Int_Tables_number      1
_space_group_name_Hall           'P 1'
loop_
_symmetry_equiv_pos_site_id
_symmetry_equiv_pos_as_xyz
1 x,y,z
_cell_length_a                   21.844(4)
_cell_length_b                   14.217(3)
_cell_length_c                   26.213(5)
_cell_angle_alpha                90
_cell_angle_beta                 113.38(3)
_cell_angle_gamma                90
_cell_volume                     7472.21
loop_
_atom_site_label
_atom_site_type_symbol
_atom_site_fract_x
_atom_site_fract_y
_atom_site_fract_z
C2 C 0.12419(17) 0.5175(3) 0.82956(14)
H1 H 0.1673 0.5071 0.8321
C5 C 0.09823(16) 0.6067(2) 0.81909(13)
H4 H 0.1231 0.6566 0.8144
C7 C 0.03332(16) 0.6203(2) 0.81564(13)
C27 C 0.02331(17) 0.4531(2) 0.83416(15)
C29 C 0.08725(18) 0.4417(3) 0.83651(16)
H20 H 0.1063 0.3821 0.8429
Cd2 Cd 0.0000 0.82960(2) 0.7500
C19 C 0.56408(17) 0.5082(2) 0.00058(13)
H13 H 0.6066 0.5137 0.0007
H19 H 0.7466 0.3746 0.0149
Cd3 Cd 0.5000 0.67040(2) 0.2500
C34 C 0.41737(17) 0.4345(2) 0.19876(14)
H24 H 0.4233 0.4542 0.2343
C36 C 0.55489(17) 0.5092(2) 0.04995(14)
H26 H 0.5914 0.5152 0.0837
C38 C 0.37467(18) 0.3621(2) 0.17284(15)
H27 H 0.3509 0.3328 0.1910
C40 C 0.36615(19) 0.3314(3) 0.11967(16)
H29 H 0.3370 0.2819 0.1035
C41 C 0.45156(16) 0.4776(2) 0.16983(13)
C43 C 0.44190(16) 0.4467(2) 0.11659(14)
C50 C 0.49126(17) 0.5010(2) 0.04907(13)
C54 C 0.51411(16) 0.5641(2) 0.14274(13)
H36 H 0.5443 0.6095 0.1418
C56 C 0.39977(19) 0.3725(3) 0.09050(15)
H38 H 0.3945 0.3516 0.0554
N8 N 0.49752(13) 0.55239(19) 0.18532(11)
N14 N 0.48307(13) 0.50397(19) 0.10039(11)
Cd1 Cd 0.5000 0.32960(2) 0.7500
C1 C 0.88280(16) 0.5337(2) 0.82569(14)
C3 C 0.93857(16) 0.6745(2) 0.80957(13)
H2 H 0.9033 0.7150 0.8051
C4 C 0.58263(17) 0.5655(2) 0.80124(14)
H3 H 0.5767 0.5458 0.7657
C6 C 0.44511(17) 0.4908(2) 0.95005(14)
H5 H 0.4086 0.4848 0.9163
C8 C 0.62533(18) 0.6379(2) 0.82716(15)
H6 H 0.6491 0.6672 0.8090
C9 C 0.61926(16) 0.3103(2) 0.90374(14)
H7 H 0.5780 0.2808 0.8925
C10 C 0.63385(19) 0.6686(3) 0.88033(16)
H8 H 0.6630 0.7181 0.8965
C11 C 0.54844(16) 0.5224(2) 0.83017(13)
C12 C 0.99761(16) 0.5438(2) 0.82359(13)
C13 C 0.55810(16) 0.5533(2) 0.88341(14)
C14 C 0.65833(17) 0.3245(3) 0.95925(14)
H9 H 0.6424 0.3055 0.9857
C15 C 0.85394(16) 0.5731(2) 0.85911(14)
H10 H 0.8718 0.6274 0.8793
C16 C 0.85821(17) 0.4523(2) 0.79587(14)
H11 H 0.8780 0.4273 0.7733
C17 C 0.66219(15) 0.3745(2) 0.79202(13)
H12 H 0.6572 0.3801 0.7552
C18 C 0.64389(16) 0.3417(2) 0.86501(14)
C20 C 0.50874(17) 0.4990(2) 0.95093(13)
C21 C 0.77398(16) 0.4484(2) 0.83258(14)
C22 C 0.74683(17) 0.3970(3) 0.93926(14)
H14 H 0.7888 0.4244 0.9507
C23 C 0.70640(16) 0.3844(2) 0.88333(14)
C24 C 0.48589(16) 0.4359(2) 0.85726(13)
H15 H 0.4557 0.3905 0.8582
C25 C 0.80370(16) 0.4082(2) 0.79981(14)
H16 H 0.7872 0.3524 0.7808
C26 C 0.60023(19) 0.6275(3) 0.90950(15)
H17 H 0.6055 0.6484 0.9446
H18 H 0.9990 0.4030 0.8394
C28 C 0.72142(18) 0.3668(3) 0.97705(15)
C30 C 0.79856(16) 0.5312(2) 0.86217(14)
H21 H 0.7779 0.5578 0.8837
N1 N 0.61660(13) 0.33649(19) 0.80680(11)
N2 N 0.50248(13) 0.44761(19) 0.81468(11)
N3 N 0.99433(13) 0.70232(19) 0.80624(11)
N4 N 0.93726(13) 0.58182(19) 0.82011(11)
N5 N 0.51693(13) 0.49603(19) 0.89961(11)
N6 N 0.71692(13) 0.4045(2) 0.83551(11)
Cd2_2 Cd 1.0000 0.82960(2) 0.7500
C31 C 0.11720(16) 0.5337(2) 0.67431(14)
C33 C 0.06143(16) 0.6745(2) 0.69043(13)
H23 H 0.0967 0.7150 0.6949
C39 C 0.38074(16) 0.3103(2) 0.59626(14)
H28 H 0.4220 0.2808 0.6075
C42 C 0.00239(16) 0.5438(2) 0.67641(13)
C44 C 0.34167(17) 0.3245(3) 0.54075(14)
H30 H 0.3576 0.3055 0.5143
C45 C 0.14606(16) 0.5731(2) 0.64089(14)
H31 H 0.1282 0.6274 0.6207
C46 C 0.14179(17) 0.4523(2) 0.70413(14)
H32 H 0.1220 0.4273 0.7267
C47 C 0.33781(15) 0.3745(2) 0.70798(13)
H33 H 0.3428 0.3801 0.7448
C48 C 0.35611(16) 0.3417(2) 0.63499(14)
C49 C 0.43592(17) 0.4918(2) 0.99942(13)
H34 H 0.3934 0.4863 0.9993
C51 C 0.22602(16) 0.4484(2) 0.66742(14)
C52 C 0.25317(17) 0.3970(3) 0.56074(14)
H35 H 0.2112 0.4244 0.5493
C53 C 0.29360(16) 0.3844(2) 0.61667(14)
C55 C 0.19630(16) 0.4082(2) 0.70019(14)
H37 H 0.2128 0.3524 0.7192
H39 H 0.0010 0.4030 0.6606
C58 C 0.27858(18) 0.3668(3) 0.52295(15)
H40 H 0.2534 0.3746 0.4851
C60 C 0.20144(16) 0.5312(2) 0.63783(14)
H42 H 0.2221 0.5578 0.6163
N7 N 0.38340(13) 0.33649(19) 0.69320(11)
N9 N 0.49752(13) 0.44761(19) 0.68532(11)
N10 N 0.00567(13) 0.70232(19) 0.69376(11)
N11 N 0.49433(13) 0.20232(19) 0.80624(11)
N12 N 0.50567(13) 0.20232(19) 0.69376(11)
N13 N 0.06274(13) 0.58182(19) 0.67989(11)
N15 N 0.28308(13) 0.4045(2) 0.66449(11)
C32 C 0.87581(17) 0.5175(3) 0.67044(14)
H22 H 0.8327 0.5071 0.6679
C35 C 0.90177(16) 0.6067(2) 0.68091(13)
H25 H 0.8769 0.6566 0.6856
C37 C 0.96668(16) 0.6203(2) 0.68436(13)
C57 C 0.97669(17) 0.4531(2) 0.66584(15)
C59 C 0.91275(18) 0.4417(3) 0.66349(16)
H41 H 0.8937 0.3821 0.6571
C4_2 C 0.41737(17) 0.5655(2) 0.69876(14)
H3_2 H 0.4233 0.5458 0.7343
C6_2 C 0.55489(17) 0.4908(2) 0.54995(14)
H5_2 H 0.5914 0.4848 0.5837
C8_2 C 0.37467(18) 0.6379(2) 0.67284(15)
H6_2 H 0.3509 0.6672 0.6910
C10_2 C 0.36615(19) 0.6686(3) 0.61967(16)
H8_2 H 0.3370 0.7181 0.6035
C11_2 C 0.45156(16) 0.5224(2) 0.66983(13)
C13_2 C 0.44190(16) 0.5533(2) 0.61659(14)
C19_2 C 0.43592(17) 0.5082(2) 0.49942(13)
H13_2 H 0.3934 0.5137 0.4993
C20_2 C 0.49126(17) 0.4990(2) 0.54907(13)
C24_2 C 0.51411(16) 0.4359(2) 0.64274(13)
H15_2 H 0.5443 0.3905 0.6418
C26_2 C 0.39977(19) 0.6275(3) 0.59050(15)
H17_2 H 0.3945 0.6484 0.5554
N5_2 N 0.48307(13) 0.49603(19) 0.60039(11)
C34_2 C 0.58263(17) 0.4345(2) 0.30124(14)
H24_2 H 0.5767 0.4542 0.2657
C36_2 C 0.44511(17) 0.5092(2) 0.45005(14)
H26_2 H 0.4086 0.5152 0.4163
C38_2 C 0.62533(18) 0.3621(2) 0.32716(15)
H27_2 H 0.6491 0.3328 0.3090
C40_2 C 0.63385(19) 0.3314(3) 0.38033(16)
H29_2 H 0.6630 0.2819 0.3965
C41_2 C 0.54844(16) 0.4776(2) 0.33017(13)
C43_2 C 0.55810(16) 0.4467(2) 0.38341(14)
C49_2 C 0.56408(17) 0.4918(2) 0.50058(13)
H34_2 H 0.6066 0.4863 0.5007
C50_2 C 0.50874(17) 0.5010(2) 0.45093(13)
C54_2 C 0.48589(16) 0.5641(2) 0.35726(13)
H36_2 H 0.4557 0.6095 0.3582
C56_2 C 0.60023(19) 0.3725(3) 0.40950(15)
H38_2 H 0.6055 0.3516 0.4446
N8_2 N 0.50248(13) 0.55239(19) 0.31468(11)
N14_2 N 0.51693(13) 0.50397(19) 0.39961(11)
C19_3 C 0.06408(17) 0.0082(2) 0.00058(13)
H13_3 H 0.1066 0.0137 0.0007
Cd3_2 Cd -0.0000 0.17040(2) 0.2500
C36_3 C 0.05489(17) 0.0092(2) 0.04995(14)
H26_3 H 0.0914 0.0152 0.0837
C54_3 C 0.01411(16) 0.0641(2) 0.14274(13)
H36_3 H 0.0443 0.1095 0.1418
C1_2 C 0.38280(16) 0.0337(2) 0.82569(14)
C2_2 C 0.62419(17) 0.0175(3) 0.82956(14)
H1_2 H 0.6673 0.0071 0.8321
C3_2 C 0.43857(16) 0.1745(2) 0.80957(13)
H2_2 H 0.4033 0.2150 0.8051
C4_3 C 0.08263(17) 0.0655(2) 0.80124(14)
H3_3 H 0.0767 0.0458 0.7657
C5_2 C 0.59823(16) 0.1067(2) 0.81909(13)
H4_2 H 0.6231 0.1566 0.8144
C7_2 C 0.53332(16) 0.1203(2) 0.81564(13)
C8_3 C 0.12533(18) 0.1379(2) 0.82716(15)
H6_3 H 0.1491 0.1672 0.8090
C10_3 C 0.13385(19) 0.1686(3) 0.88033(16)
H8_3 H 0.1630 0.2181 0.8965
C11_3 C 0.04844(16) 0.0224(2) 0.83017(13)
C12_2 C 0.49761(16) 0.0438(2) 0.82359(13)
C13_3 C 0.05810(16) 0.0533(2) 0.88341(14)
C15_2 C 0.35394(16) 0.0731(2) 0.85911(14)
H10_2 H 0.3718 0.1274 0.8793
C26_3 C 0.10023(19) 0.1275(3) 0.90950(15)
H17_3 H 0.1055 0.1484 0.9446
C30_2 C 0.29856(16) 0.0312(2) 0.86217(14)
H21_2 H 0.2779 0.0578 0.8837
N4_2 N 0.43726(13) 0.08182(19) 0.82011(11)
C9_2 C 0.11926(16) 0.8103(2) 0.90374(14)
H7_2 H 0.0780 0.7808 0.8925
C14_2 C 0.15833(17) 0.8245(3) 0.95925(14)
H9_2 H 0.1424 0.8055 0.9857
C16_2 C 0.35821(17) 0.9523(2) 0.79587(14)
H11_2 H 0.3780 0.9273 0.7733
C17_2 C 0.16219(15) 0.8745(2) 0.79202(13)
H12_2 H 0.1572 0.8801 0.7552
C18_2 C 0.14389(16) 0.8417(2) 0.86501(14)
C20_3 C 0.00874(17) 0.9990(2) 0.95093(13)
C21_2 C 0.27398(16) 0.9484(2) 0.83258(14)
C22_2 C 0.24683(17) 0.8970(3) 0.93926(14)
H14_2 H 0.2888 0.9244 0.9507
C23_2 C 0.20640(16) 0.8844(2) 0.88333(14)
C25_2 C 0.30370(16) 0.9082(2) 0.79981(14)
H16_2 H 0.2872 0.8524 0.7808
C27_2 C 0.52331(17) 0.9531(2) 0.83416(15)
H18_2 H 0.4990 0.9030 0.8394
C28_2 C 0.22142(18) 0.8668(3) 0.97705(15)
C29_2 C 0.58725(18) 0.9417(3) 0.83651(16)
H20_2 H 0.6063 0.8821 0.8429
N1_2 N 0.11660(13) 0.83649(19) 0.80680(11)
N2_2 N 0.00248(13) 0.94761(19) 0.81468(11)
N5_3 N 0.01693(13) 0.99603(19) 0.89961(11)
N6_2 N 0.21692(13) 0.9045(2) 0.83551(11)
Cd3_3 Cd 1.0000 0.17040(2) 0.2500
C50_3 C 0.99126(17) 0.0010(2) 0.04907(13)
N8_3 N 0.99752(13) 0.05239(19) 0.18532(11)
N14_3 N 0.98307(13) 0.00397(19) 0.10039(11)
C31_2 C 0.61720(16) 0.0337(2) 0.67431(14)
C32_2 C 0.37581(17) 0.0175(3) 0.67044(14)
H22_2 H 0.3327 0.0071 0.6679
C33_2 C 0.56143(16) 0.1745(2) 0.69043(13)
H23_2 H 0.5967 0.2150 0.6949
C35_2 C 0.40177(16) 0.1067(2) 0.68091(13)
H25_2 H 0.3769 0.1566 0.6856
C37_2 C 0.46668(16) 0.1203(2) 0.68436(13)
C42_2 C 0.50239(16) 0.0438(2) 0.67641(13)
C45_2 C 0.64606(16) 0.0731(2) 0.64089(14)
H31_2 H 0.6282 0.1274 0.6207
C60_2 C 0.70144(16) 0.0312(2) 0.63783(14)
H42_2 H 0.7221 0.0578 0.6163
N13_2 N 0.56274(13) 0.08182(19) 0.67989(11)
C34_3 C 0.91737(17) 0.9345(2) 0.19876(14)
H24_3 H 0.9233 0.9542 0.2343
C38_3 C 0.87467(18) 0.8621(2) 0.17284(15)
H27_3 H 0.8509 0.8328 0.1910
C40_3 C 0.86615(19) 0.8314(3) 0.11967(16)
H29_3 H 0.8370 0.7819 0.1035
C41_3 C 0.95156(16) 0.9776(2) 0.16983(13)
C43_3 C 0.94190(16) 0.9467(2) 0.11659(14)
C56_3 C 0.89977(19) 0.8725(3) 0.09050(15)
H38_3 H 0.8945 0.8516 0.0554
C6_3 C 0.94511(17) 0.9908(2) 0.95005(14)
H5_3 H 0.9086 0.9848 0.9163
C24_3 C 0.98589(16) 0.9359(2) 0.85726(13)
H15_3 H 0.9557 0.8905 0.8582
C39_2 C 0.88074(16) 0.8103(2) 0.59626(14)
H28_2 H 0.9220 0.7808 0.6075
C44_2 C 0.84167(17) 0.8245(3) 0.54075(14)
H30_2 H 0.8576 0.8055 0.5143
C46_2 C 0.64179(17) 0.9523(2) 0.70413(14)
H32_2 H 0.6220 0.9273 0.7267
C47_2 C 0.83781(15) 0.8745(2) 0.70798(13)
H33_2 H 0.8428 0.8801 0.7448
C48_2 C 0.85611(16) 0.8417(2) 0.63499(14)
C49_3 C 0.93592(17) 0.9918(2) 0.99942(13)
H34_3 H 0.8934 0.9863 0.9993
C51_2 C 0.72602(16) 0.9484(2) 0.66742(14)
C52_2 C 0.75317(17) 0.8970(3) 0.56074(14)
H35_2 H 0.7112 0.9244 0.5493
C53_2 C 0.79360(16) 0.8844(2) 0.61667(14)
C55_2 C 0.69630(16) 0.9082(2) 0.70019(14)
H37_2 H 0.7128 0.8524 0.7192
C57_2 C 0.47669(17) 0.9531(2) 0.66584(15)
H39_2 H 0.5010 0.9030 0.6606
C58_2 C 0.77858(18) 0.8668(3) 0.52295(15)
H40_2 H 0.7534 0.8746 0.4851
C59_2 C 0.41275(18) 0.9417(3) 0.66349(16)
H41_2 H 0.3937 0.8821 0.6571
N7_2 N 0.88340(13) 0.83649(19) 0.69320(11)
N9_2 N 0.99752(13) 0.94761(19) 0.68532(11)
N15_2 N 0.78308(13) 0.9045(2) 0.66449(11)
C50_4 C 0.00874(17) 0.0010(2) 0.45093(13)
N8_4 N 0.00248(13) 0.05239(19) 0.31468(11)
N14_4 N 0.01693(13) 0.00397(19) 0.39961(11)
C6_4 C 0.05489(17) 0.9908(2) 0.54995(14)
H5_4 H 0.0914 0.9848 0.5837
C24_4 C 0.01411(16) 0.9359(2) 0.64274(13)
H15_4 H 0.0443 0.8905 0.6418
C34_4 C 0.08263(17) 0.9345(2) 0.30124(14)
H24_4 H 0.0767 0.9542 0.2657
C38_4 C 0.12533(18) 0.8621(2) 0.32716(15)
H27_4 H 0.1491 0.8328 0.3090
C40_4 C 0.13385(19) 0.8314(3) 0.38033(16)
H29_4 H 0.1630 0.7819 0.3965
C41_4 C 0.04844(16) 0.9776(2) 0.33017(13)
C43_4 C 0.05810(16) 0.9467(2) 0.38341(14)
C49_4 C 0.06408(17) 0.9918(2) 0.50058(13)
H34_4 H 0.1066 0.9863 0.5007
C56_4 C 0.10023(19) 0.8725(3) 0.40950(15)
H38_4 H 0.1055 0.8516 0.4446
C4_4 C 0.91737(17) 0.0655(2) 0.69876(14)
H3_4 H 0.9233 0.0458 0.7343
C8_4 C 0.87467(18) 0.1379(2) 0.67284(15)
H6_4 H 0.8509 0.1672 0.6910
C10_4 C 0.86615(19) 0.1686(3) 0.61967(16)
H8_4 H 0.8370 0.2181 0.6035
C11_4 C 0.95156(16) 0.0224(2) 0.66983(13)
C13_4 C 0.94190(16) 0.0533(2) 0.61659(14)
C19_4 C 0.93592(17) 0.0082(2) 0.49942(13)
H13_4 H 0.8934 0.0137 0.4993
C26_4 C 0.89977(19) 0.1275(3) 0.59050(15)
H17_4 H 0.8945 0.1484 0.5554
C36_4 C 0.94511(17) 0.0092(2) 0.45005(14)
H26_4 H 0.9086 0.0152 0.4163
C54_4 C 0.98589(16) 0.0641(2) 0.35726(13)
H36_4 H 0.9557 0.1095 0.3582
C20_4 C 0.99126(17) 0.9990(2) 0.54907(13)
N5_4 N 0.98307(13) 0.99603(19) 0.60039(11)
C32_3 C 0.12419(17) 0.4825(3) 0.32956(14)
H22_3 H 0.1673 0.4929 0.3321
C35_3 C 0.09823(16) 0.3933(2) 0.31909(13)
H25_3 H 0.1231 0.3434 0.3144
C37_3 C 0.03332(16) 0.3797(2) 0.31564(13)
C57_3 C 0.02331(17) 0.5469(2) 0.33416(15)
C59_3 C 0.08725(18) 0.5583(3) 0.33651(16)
H41_3 H 0.1063 0.6179 0.3429
C1_3 C 0.11720(16) 0.4663(2) 0.17431(14)
C3_3 C 0.06143(16) 0.3255(2) 0.19043(13)
H2_3 H 0.0967 0.2850 0.1949
C9_3 C 0.38074(16) 0.6897(2) 0.09626(14)
H7_3 H 0.4220 0.7192 0.1075
C12_3 C 0.00239(16) 0.4562(2) 0.17641(13)
C14_3 C 0.34167(17) 0.6755(3) 0.04075(14)
H9_3 H 0.3576 0.6945 0.0143
C15_3 C 0.14606(16) 0.4269(2) 0.14089(14)
H10_3 H 0.1282 0.3726 0.1207
C16_3 C 0.14179(17) 0.5477(2) 0.20413(14)
H11_3 H 0.1220 0.5727 0.2267
C17_3 C 0.33781(15) 0.6255(2) 0.20798(13)
H12_3 H 0.3428 0.6199 0.2448
C18_3 C 0.35611(16) 0.6583(2) 0.13499(14)
C21_3 C 0.22602(16) 0.5516(2) 0.16742(14)
C22_3 C 0.25317(17) 0.6030(3) 0.06074(14)
H14_3 H 0.2112 0.5756 0.0493
C23_3 C 0.29360(16) 0.6156(2) 0.11667(14)
C25_3 C 0.19630(16) 0.5918(2) 0.20019(14)
H16_3 H 0.2128 0.6476 0.2192
H18_3 H 0.0010 0.5970 0.1606
C28_3 C 0.27858(18) 0.6332(3) 0.02295(15)
C30_3 C 0.20144(16) 0.4688(2) 0.13783(14)
H21_3 H 0.2221 0.4422 0.1163
N1_3 N 0.38340(13) 0.66351(19) 0.19320(11)
N3_2 N 0.00567(13) 0.29768(19) 0.19376(11)
N4_3 N 0.06274(13) 0.41818(19) 0.17989(11)
N6_3 N 0.28308(13) 0.5955(2) 0.16449(11)
C31_3 C 0.88280(16) 0.4663(2) 0.32569(14)
C33_3 C 0.93857(16) 0.3255(2) 0.30957(13)
H23_3 H 0.9033 0.2850 0.3051
C39_3 C 0.61926(16) 0.6897(2) 0.40374(14)
H28_3 H 0.5780 0.7192 0.3925
C42_3 C 0.99761(16) 0.4562(2) 0.32359(13)
C44_3 C 0.65833(17) 0.6755(3) 0.45925(14)
H30_3 H 0.6424 0.6945 0.4857
C45_3 C 0.85394(16) 0.4269(2) 0.35911(14)
H31_3 H 0.8718 0.3726 0.3793
C46_3 C 0.85821(17) 0.5477(2) 0.29587(14)
H32_3 H 0.8780 0.5727 0.2733
C47_3 C 0.66219(15) 0.6255(2) 0.29202(13)
H33_3 H 0.6572 0.6199 0.2552
C48_3 C 0.64389(16) 0.6583(2) 0.36501(14)
C51_3 C 0.77398(16) 0.5516(2) 0.33258(14)
C52_3 C 0.74683(17) 0.6030(3) 0.43926(14)
H35_3 H 0.7888 0.5756 0.4507
C53_3 C 0.70640(16) 0.6156(2) 0.38333(14)
C55_3 C 0.80370(16) 0.5918(2) 0.29981(14)
H37_3 H 0.7872 0.6476 0.2808
H39_3 H 0.9990 0.5970 0.3394
C58_3 C 0.72142(18) 0.6332(3) 0.47705(15)
H40_3 H 0.7466 0.6254 0.5149
C60_3 C 0.79856(16) 0.4688(2) 0.36217(14)
H42_3 H 0.7779 0.4422 0.3837
N7_3 N 0.61660(13) 0.66351(19) 0.30680(11)
N10_2 N 0.99433(13) 0.29768(19) 0.30624(11)
N11_2 N 0.50567(13) 0.79768(19) 0.19376(11)
N12_2 N 0.49433(13) 0.79768(19) 0.30624(11)
N13_3 N 0.93726(13) 0.41818(19) 0.32011(11)
N15_3 N 0.71692(13) 0.5955(2) 0.33551(11)
H19_2 H 0.2534 0.6254 0.9851
C2_3 C 0.87581(17) 0.4825(3) 0.17044(14)
H1_3 H 0.8327 0.4929 0.1679
C5_3 C 0.90177(16) 0.3933(2) 0.18091(13)
H4_3 H 0.8769 0.3434 0.1856
C7_3 C 0.96668(16) 0.3797(2) 0.18436(13)
C27_3 C 0.97669(17) 0.5469(2) 0.16584(15)
C29_3 C 0.91275(18) 0.5583(3) 0.16349(16)
H20_3 H 0.8937 0.6179 0.1571
C39_4 C 0.11926(16) 0.1897(2) 0.40374(14)
H28_4 H 0.0780 0.2192 0.3925
C44_4 C 0.15833(17) 0.1755(3) 0.45925(14)
H30_4 H 0.1424 0.1945 0.4857
C46_4 C 0.35821(17) 0.0477(2) 0.29587(14)
H32_4 H 0.3780 0.0727 0.2733
C47_4 C 0.16219(15) 0.1255(2) 0.29202(13)
H33_4 H 0.1572 0.1199 0.2552
C48_4 C 0.14389(16) 0.1583(2) 0.36501(14)
C51_4 C 0.27398(16) 0.0516(2) 0.33258(14)
C52_4 C 0.24683(17) 0.1030(3) 0.43926(14)
H35_4 H 0.2888 0.0756 0.4507
C53_4 C 0.20640(16) 0.1156(2) 0.38333(14)
C55_4 C 0.30370(16) 0.0918(2) 0.29981(14)
H37_4 H 0.2872 0.1476 0.2808
C57_4 C 0.52331(17) 0.0469(2) 0.33416(15)
H39_4 H 0.4990 0.0970 0.3394
C58_4 C 0.22142(18) 0.1332(3) 0.47705(15)
H40_4 H 0.2466 0.1254 0.5149
C59_4 C 0.58725(18) 0.0583(3) 0.33651(16)
H41_4 H 0.6063 0.1179 0.3429
N7_4 N 0.11660(13) 0.16351(19) 0.30680(11)
N15_4 N 0.21692(13) 0.0955(2) 0.33551(11)
C31_4 C 0.38280(16) 0.9663(2) 0.32569(14)
C32_4 C 0.62419(17) 0.9825(3) 0.32956(14)
H22_4 H 0.6673 0.9929 0.3321
C33_4 C 0.43857(16) 0.8255(2) 0.30957(13)
H23_4 H 0.4033 0.7850 0.3051
C35_4 C 0.59823(16) 0.8933(2) 0.31909(13)
H25_4 H 0.6231 0.8434 0.3144
C37_4 C 0.53332(16) 0.8797(2) 0.31564(13)
C42_4 C 0.49761(16) 0.9562(2) 0.32359(13)
C45_4 C 0.35394(16) 0.9269(2) 0.35911(14)
H31_4 H 0.3718 0.8726 0.3793
C60_4 C 0.29856(16) 0.9688(2) 0.36217(14)
H42_4 H 0.2779 0.9422 0.3837
N13_4 N 0.43726(13) 0.91818(19) 0.32011(11)
C9_4 C 0.88074(16) 0.1897(2) 0.09626(14)
H7_4 H 0.9220 0.2192 0.1075
C14_4 C 0.84167(17) 0.1755(3) 0.04075(14)
H9_4 H 0.8576 0.1945 0.0143
C16_4 C 0.64179(17) 0.0477(2) 0.20413(14)
H11_4 H 0.6220 0.0727 0.2267
C17_4 C 0.83781(15) 0.1255(2) 0.20798(13)
H12_4 H 0.8428 0.1199 0.2448
C18_4 C 0.85611(16) 0.1583(2) 0.13499(14)
C21_4 C 0.72602(16) 0.0516(2) 0.16742(14)
C22_4 C 0.75317(17) 0.1030(3) 0.06074(14)
H14_4 H 0.7112 0.0756 0.0493
C23_4 C 0.79360(16) 0.1156(2) 0.11667(14)
C25_4 C 0.69630(16) 0.0918(2) 0.20019(14)
H16_4 H 0.7128 0.1476 0.2192
C27_4 C 0.47669(17) 0.0469(2) 0.16584(15)
H18_4 H 0.5010 0.0970 0.1606
C28_4 C 0.77858(18) 0.1332(3) 0.02295(15)
C29_4 C 0.41275(18) 0.0583(3) 0.16349(16)
H20_4 H 0.3937 0.1179 0.1571
N1_4 N 0.88340(13) 0.16351(19) 0.19320(11)
N6_4 N 0.78308(13) 0.0955(2) 0.16449(11)
C1_4 C 0.61720(16) 0.9663(2) 0.17431(14)
C2_4 C 0.37581(17) 0.9825(3) 0.17044(14)
H1_4 H 0.3327 0.9929 0.1679
C3_4 C 0.56143(16) 0.8255(2) 0.19043(13)
H2_4 H 0.5967 0.7850 0.1949
C5_4 C 0.40177(16) 0.8933(2) 0.18091(13)
H4_4 H 0.3769 0.8434 0.1856
C7_4 C 0.46668(16) 0.8797(2) 0.18436(13)
C12_4 C 0.50239(16) 0.9562(2) 0.17641(13)
C15_4 C 0.64606(16) 0.9269(2) 0.14089(14)
H10_4 H 0.6282 0.8726 0.1207
C30_4 C 0.70144(16) 0.9688(2) 0.13783(14)
H21_4 H 0.7221 0.9422 0.1163
N4_4 N 0.56274(13) 0.91818(19) 0.17989(11)
H19_3 H 0.2466 0.8746 0.0149
H19_4 H 0.7534 0.1254 0.9851
O1 O 0.77728(15) 0.6801(2) 0.17793(13)
O2 O 0.66454(15) 0.6656(3) 0.16415(14)
O3 O 0.71040(15) 0.5687(2) 0.11586(16)
O4 O 0.6947(2) 0.7285(3) 0.09550(17)
Cl1 Cl 0.71142(4) 0.65984(6) 0.13845(4)
O1_2 O 0.22272(15) 0.6801(2) 0.32207(13)
O2_2 O 0.33546(15) 0.6656(3) 0.33585(14)
O3_2 O 0.28960(15) 0.5687(2) 0.38414(16)
O4_2 O 0.3053(2) 0.7285(3) 0.40450(17)
Cl1_2 Cl 0.28858(4) 0.65984(6) 0.36155(4)
O1_3 O 0.27728(15) 0.1801(2) 0.17793(13)
O2_3 O 0.16454(15) 0.1656(3) 0.16415(14)
O3_3 O 0.21040(15) 0.0687(2) 0.11586(16)
O4_3 O 0.1947(2) 0.2285(3) 0.09550(17)
Cl1_3 Cl 0.21142(4) 0.15984(6) 0.13845(4)
O1_4 O 0.72272(15) 0.1801(2) 0.32207(13)
O2_4 O 0.83546(15) 0.1656(3) 0.33585(14)
O3_4 O 0.78960(15) 0.0687(2) 0.38414(16)
O4_4 O 0.8053(2) 0.2285(3) 0.40450(17)
Cl1_4 Cl 0.78858(4) 0.15984(6) 0.36155(4)
O1_5 O 0.22272(15) 0.3199(2) 0.82207(13)
O2_5 O 0.33546(15) 0.3344(3) 0.83585(14)
O3_5 O 0.28960(15) 0.4313(2) 0.88414(16)
O4_5 O 0.3053(2) 0.2715(3) 0.90450(17)
Cl1_5 Cl 0.28858(4) 0.34016(6) 0.86155(4)
O1_6 O 0.77728(15) 0.3199(2) 0.67793(13)
O2_6 O 0.66454(15) 0.3344(3) 0.66415(14)
O3_6 O 0.71040(15) 0.4313(2) 0.61586(16)
O4_6 O 0.6947(2) 0.2715(3) 0.59550(17)
Cl1_6 Cl 0.71142(4) 0.34016(6) 0.63845(4)
O1_7 O 0.72272(15) 0.8199(2) 0.82207(13)
O2_7 O 0.83546(15) 0.8344(3) 0.83585(14)
O3_7 O 0.78960(15) 0.9313(2) 0.88414(16)
O4_7 O 0.8053(2) 0.7715(3) 0.90450(17)
Cl1_7 Cl 0.78858(4) 0.84016(6) 0.86155(4)
O1_8 O 0.27728(15) 0.8199(2) 0.67793(13)
O2_8 O 0.16454(15) 0.8344(3) 0.66415(14)
O3_8 O 0.21040(15) 0.9313(2) 0.61586(16)
O4_8 O 0.1947(2) 0.7715(3) 0.59550(17)
Cl1_8 Cl 0.21142(4) 0.84016(6) 0.63845(4)
loop_
_geom_bond_atom_site_label_1
_geom_bond_atom_site_label_2
_geom_bond_site_symmetry_1
_geom_bond_site_symmetry_2
C2 H1 1_555 1_555
C5 C2 1_555 1_555
H4 C5 1_555 1_555
C7 C5 1_555 1_555
C29 C2 1_555 1_555
H20 C29 1_555 1_555
C27 C29 1_555 1_555
C19 H13 1_555 1_555
Cd3 N8 1_555 1_555
C34 H24 1_555 1_555
C36 C19 1_555 1_555
H26 C36 1_555 1_555
C38 C34 1_555 1_555
H27 C38 1_555 1_555
C40 C38 1_555 1_555
H29 C40 1_555 1_555
C41 C34 1_555 1_555
C43 C41 1_555 1_555
C50 C36 1_555 1_555
C54 H36 1_555 1_555
C56 C40 1_555 1_555
H38 C56 1_555 1_555
N8 C41 1_555 1_555
N14 C43 1_555 1_555
C43 C56 1_555 1_555
C50 N14 1_555 1_555
C54 N8 1_555 1_555
C54 N14 1_555 1_555
Cd1 N1 1_555 1_555
C1 C15 1_555 1_555
C3 H2 1_555 1_555
C4 H3 1_555 1_555
C6 H5 1_555 1_555
C8 C4 1_555 1_555
H6 C8 1_555 1_555
C9 H7 1_555 1_555
C10 C8 1_555 1_555
H8 C10 1_555 1_555
C11 C4 1_555 1_555
C13 C11 1_555 1_555
C14 C9 1_555 1_555
H9 C14 1_555 1_555
C15 H10 1_555 1_555
C16 C1 1_555 1_555
H11 C16 1_555 1_555
C17 H12 1_555 1_555
C18 C9 1_555 1_555
C20 C6 1_555 1_555
C21 C25 1_555 1_555
C22 H14 1_555 1_555
C23 C18 1_555 1_555
C24 H15 1_555 1_555
C25 C16 1_555 1_555
H16 C25 1_555 1_555
C26 C10 1_555 1_555
H17 C26 1_555 1_555
C28 C14 1_555 1_555
C30 C15 1_555 1_555
H21 C30 1_555 1_555
N1 C17 1_555 1_555
N2 Cd1 1_555 1_555
N3 C3 1_555 1_555
N4 C1 1_555 1_555
N5 C13 1_555 1_555
N6 C17 1_555 1_555
Cd2_2 N3 1_555 1_555
Cd2 N10 1_555 1_555
C31 C45 1_555 1_555
C33 H23 1_555 1_555
C39 H28 1_555 1_555
C44 C39 1_555 1_555
H30 C44 1_555 1_555
C45 H31 1_555 1_555
C46 C31 1_555 1_555
H32 C46 1_555 1_555
C47 H33 1_555 1_555
C48 C39 1_555 1_555
C49 C6 1_555 1_555
H34 C49 1_555 1_555
C51 C55 1_555 1_555
C52 H35 1_555 1_555
C53 C48 1_555 1_555
C55 C46 1_555 1_555
H37 C55 1_555 1_555
C58 C44 1_555 1_555
H40 C58 1_555 1_555
C60 C45 1_555 1_555
H42 C60 1_555 1_555
N7 Cd1 1_555 1_555
N9 Cd1 1_555 1_555
N10 C33 1_555 1_555
N11 Cd1 1_555 1_555
N12 Cd1 1_555 1_555
N13 C31 1_555 1_555
N15 C47 1_555 1_555
C3 N4 1_555 1_555
C11 N2 1_555 1_555
C12 N4 1_555 1_555
C13 C26 1_555 1_555
C18 N1 1_555 1_555
C20 N5 1_555 1_555
C21 C30 1_555 1_555
C21 N6 1_555 1_555
C22 C23 1_555 1_555
C22 C28 1_555 1_555
C23 N6 1_555 1_555
C24 N2 1_555 1_555
C24 N5 1_555 1_555
C33 N13 1_555 1_555
C42 N13 1_555 1_555
C47 N7 1_555 1_555
C48 N7 1_555 1_555
C51 C60 1_555 1_555
C51 N15 1_555 1_555
C52 C53 1_555 1_555
C52 C58 1_555 1_555
C53 N15 1_555 1_555
C32 H22 1_555 1_555
C35 C32 1_555 1_555
H25 C35 1_555 1_555
C37 C35 1_555 1_555
C59 C32 1_555 1_555
H41 C59 1_555 1_555
C57 C59 1_555 1_555
C4_2 H3_2 1_555 1_555
C6_2 H5_2 1_555 1_555
C8_2 C4_2 1_555 1_555
H6_2 C8_2 1_555 1_555
C10_2 C8_2 1_555 1_555
H8_2 C10_2 1_555 1_555
C11_2 C4_2 1_555 1_555
C13_2 C11_2 1_555 1_555
C19_2 H13_2 1_555 1_555
C20_2 C6_2 1_555 1_555
C24_2 H15_2 1_555 1_555
C26_2 C10_2 1_555 1_555
H17_2 C26_2 1_555 1_555
N5_2 C13_2 1_555 1_555
Cd3 N8_2 1_555 1_555
C34_2 H24_2 1_555 1_555
C36_2 C19_2 1_555 1_555
H26_2 C36_2 1_555 1_555
C38_2 C34_2 1_555 1_555
H27_2 C38_2 1_555 1_555
C40_2 C38_2 1_555 1_555
H29_2 C40_2 1_555 1_555
C41_2 C34_2 1_555 1_555
C43_2 C41_2 1_555 1_555
C49_2 C6_2 1_555 1_555
H34_2 C49_2 1_555 1_555
C50_2 C36_2 1_555 1_555
C54_2 H36_2 1_555 1_555
C56_2 C40_2 1_555 1_555
H38_2 C56_2 1_555 1_555
N8_2 C41_2 1_555 1_555
N14_2 C43_2 1_555 1_555
C11_2 N9 1_555 1_555
C13_2 C26_2 1_555 1_555
C19_2 C20_2 1_555 1_555
C20_2 N5_2 1_555 1_555
C24_2 N9 1_555 1_555
C24_2 N5_2 1_555 1_555
C43_2 C56_2 1_555 1_555
C49_2 C50_2 1_555 1_555
C50_2 N14_2 1_555 1_555
C54_2 N8_2 1_555 1_555
C54_2 N14_2 1_555 1_555
C19_3 H13_3 1_555 1_555
C36_3 C19_3 1_555 1_555
H26_3 C36_3 1_555 1_555
C54_3 H36_3 1_555 1_555
C1_2 C15_2 1_555 1_555
C2_2 H1_2 1_555 1_555
C3_2 H2_2 1_555 1_555
C4_3 H3_3 1_555 1_555
C5_2 C2_2 1_555 1_555
H4_2 C5_2 1_555 1_555
C7_2 C5_2 1_555 1_555
C8_3 C4_3 1_555 1_555
H6_3 C8_3 1_555 1_555
C10_3 C8_3 1_555 1_555
H8_3 C10_3 1_555 1_555
C11_3 C4_3 1_555 1_555
C12_2 C7_2 1_555 1_555
C13_3 C11_3 1_555 1_555
C15_2 H10_2 1_555 1_555
C26_3 C10_3 1_555 1_555
H17_3 C26_3 1_555 1_555
C30_2 C15_2 1_555 1_555
H21_2 C30_2 1_555 1_555
N11 C3_2 1_555 1_555
N4_2 C1_2 1_555 1_555
C3_2 N4_2 1_555 1_555
C7_2 N11 1_555 1_555
C12_2 N4_2 1_555 1_555
C13_3 C26_3 1_555 1_555
Cd2 N1_2 1_555 1_555
C9_2 H7_2 1_555 1_555
C14_2 C9_2 1_555 1_555
H9_2 C14_2 1_555 1_555
H11_2 C16_2 1_555 1_555
C17_2 H12_2 1_555 1_555
C18_2 C9_2 1_555 1_555
C21_2 C25_2 1_555 1_555
C22_2 H14_2 1_555 1_555
C23_2 C18_2 1_555 1_555
C25_2 C16_2 1_555 1_555
H16_2 C25_2 1_555 1_555
H18_2 C27_2 1_555 1_555
C28_2 C14_2 1_555 1_555
H20_2 C29_2 1_555 1_555
N1_2 C17_2 1_555 1_555
N2_2 Cd2 1_555 1_555
N6_2 C17_2 1_555 1_555
C18_2 N1_2 1_555 1_555
C20_3 N5_3 1_555 1_555
C21_2 N6_2 1_555 1_555
C22_2 C23_2 1_555 1_555
C22_2 C28_2 1_555 1_555
C23_2 N6_2 1_555 1_555
C27_2 C29_2 1_555 1_555
Cd3_3 N8_3 1_555 1_555
C50_3 N14_3 1_555 1_555
C31_2 C45_2 1_555 1_555
C32_2 H22_2 1_555 1_555
C33_2 H23_2 1_555 1_555
C35_2 C32_2 1_555 1_555
H25_2 C35_2 1_555 1_555
C37_2 C35_2 1_555 1_555
C42_2 C37_2 1_555 1_555
C45_2 H31_2 1_555 1_555
C60_2 C45_2 1_555 1_555
H42_2 C60_2 1_555 1_555
N12 C33_2 1_555 1_555
N13_2 C31_2 1_555 1_555
C33_2 N13_2 1_555 1_555
C37_2 N12 1_555 1_555
C42_2 N13_2 1_555 1_555
C34_3 H24_3 1_555 1_555
C38_3 C34_3 1_555 1_555
H27_3 C38_3 1_555 1_555
C40_3 C38_3 1_555 1_555
H29_3 C40_3 1_555 1_555
C41_3 C34_3 1_555 1_555
C43_3 C41_3 1_555 1_555
C56_3 C40_3 1_555 1_555
H38_3 C56_3 1_555 1_555
C43_3 C56_3 1_555 1_555
C6_3 H5_3 1_555 1_555
C24_3 H15_3 1_555 1_555
C39_2 H28_2 1_555 1_555
C44_2 C39_2 1_555 1_555
H30_2 C44_2 1_555 1_555
H32_2 C46_2 1_555 1_555
C47_2 H33_2 1_555 1_555
C48_2 C39_2 1_555 1_555
C49_3 C6_3 1_555 1_555
H34_3 C49_3 1_555 1_555
C51_2 C55_2 1_555 1_555
C52_2 H35_2 1_555 1_555
C53_2 C48_2 1_555 1_555
C55_2 C46_2 1_555 1_555
H37_2 C55_2 1_555 1_555
H39_2 C57_2 1_555 1_555
C58_2 C44_2 1_555 1_555
H40_2 C58_2 1_555 1_555
H41_2 C59_2 1_555 1_555
N7_2 Cd2_2 1_555 1_555
N9_2 Cd2_2 1_555 1_555
N15_2 C47_2 1_555 1_555
C47_2 N7_2 1_555 1_555
C48_2 N7_2 1_555 1_555
C51_2 N15_2 1_555 1_555
C52_2 C53_2 1_555 1_555
C52_2 C58_2 1_555 1_555
C53_2 N15_2 1_555 1_555
C57_2 C59_2 1_555 1_555
Cd3_2 N8_4 1_555 1_555
C50_4 N14_4 1_555 1_555
C6_4 H5_4 1_555 1_555
C24_4 H15_4 1_555 1_555
C34_4 H24_4 1_555 1_555
C38_4 C34_4 1_555 1_555
H27_4 C38_4 1_555 1_555
C40_4 C38_4 1_555 1_555
H29_4 C40_4 1_555 1_555
C41_4 C34_4 1_555 1_555
C43_4 C41_4 1_555 1_555
C49_4 C6_4 1_555 1_555
H34_4 C49_4 1_555 1_555
C56_4 C40_4 1_555 1_555
H38_4 C56_4 1_555 1_555
C43_4 C56_4 1_555 1_555
C4_4 H3_4 1_555 1_555
C8_4 C4_4 1_555 1_555
H6_4 C8_4 1_555 1_555
C10_4 C8_4 1_555 1_555
H8_4 C10_4 1_555 1_555
C11_4 C4_4 1_555 1_555
C13_4 C11_4 1_555 1_555
C19_4 H13_4 1_555 1_555
C26_4 C10_4 1_555 1_555
H17_4 C26_4 1_555 1_555
C36_4 C19_4 1_555 1_555
H26_4 C36_4 1_555 1_555
C54_4 H36_4 1_555 1_555
C13_4 C26_4 1_555 1_555
C20_4 N5_4 1_555 1_555
C32_3 H22_3 1_555 1_555
C35_3 C32_3 1_555 1_555
H25_3 C35_3 1_555 1_555
C37_3 C35_3 1_555 1_555
C59_3 C32_3 1_555 1_555
H41_3 C59_3 1_555 1_555
C57_3 C59_3 1_555 1_555
Cd3 N1_3 1_555 1_555
C1_3 C15_3 1_555 1_555
C3_3 H2_3 1_555 1_555
C9_3 H7_3 1_555 1_555
C14_3 C9_3 1_555 1_555
H9_3 C14_3 1_555 1_555
C15_3 H10_3 1_555 1_555
C16_3 C1_3 1_555 1_555
H11_3 C16_3 1_555 1_555
C17_3 H12_3 1_555 1_555
C18_3 C9_3 1_555 1_555
C21_3 C25_3 1_555 1_555
C22_3 H14_3 1_555 1_555
C23_3 C18_3 1_555 1_555
C25_3 C16_3 1_555 1_555
H16_3 C25_3 1_555 1_555
C28_3 C14_3 1_555 1_555
C30_3 C15_3 1_555 1_555
H21_3 C30_3 1_555 1_555
N1_3 C17_3 1_555 1_555
N3_2 C3_3 1_555 1_555
N4_3 C1_3 1_555 1_555
N6_3 C17_3 1_555 1_555
Cd3_2 N3_2 1_555 1_555
Cd3_3 N10_2 1_555 1_555
C31_3 C45_3 1_555 1_555
C33_3 H23_3 1_555 1_555
C39_3 H28_3 1_555 1_555
C44_3 C39_3 1_555 1_555
H30_3 C44_3 1_555 1_555
C45_3 H31_3 1_555 1_555
C46_3 C31_3 1_555 1_555
H32_3 C46_3 1_555 1_555
C47_3 H33_3 1_555 1_555
C48_3 C39_3 1_555 1_555
C51_3 C55_3 1_555 1_555
C52_3 H35_3 1_555 1_555
C53_3 C48_3 1_555 1_555
C55_3 C46_3 1_555 1_555
H37_3 C55_3 1_555 1_555
C58_3 C44_3 1_555 1_555
H40_3 C58_3 1_555 1_555
C60_3 C45_3 1_555 1_555
H42_3 C60_3 1_555 1_555
N7_3 Cd3 1_555 1_555
N10_2 C33_3 1_555 1_555
N11_2 Cd3 1_555 1_555
N12_2 Cd3 1_555 1_555
N13_3 C31_3 1_555 1_555
N15_3 C47_3 1_555 1_555
C3_3 N4_3 1_555 1_555
C12_3 N4_3 1_555 1_555
C18_3 N1_3 1_555 1_555
C21_3 C30_3 1_555 1_555
C21_3 N6_3 1_555 1_555
C22_3 C23_3 1_555 1_555
C22_3 C28_3 1_555 1_555
C23_3 N6_3 1_555 1_555
C33_3 N13_3 1_555 1_555
C42_3 N13_3 1_555 1_555
C47_3 N7_3 1_555 1_555
C48_3 N7_3 1_555 1_555
C51_3 C60_3 1_555 1_555
C51_3 N15_3 1_555 1_555
C52_3 C53_3 1_555 1_555
C52_3 C58_3 1_555 1_555
C53_3 N15_3 1_555 1_555
C2_3 H1_3 1_555 1_555
C5_3 C2_3 1_555 1_555
H4_3 C5_3 1_555 1_555
C7_3 C5_3 1_555 1_555
C29_3 C2_3 1_555 1_555
H20_3 C29_3 1_555 1_555
C27_3 C29_3 1_555 1_555
C39_4 H28_4 1_555 1_555
C44_4 C39_4 1_555 1_555
H30_4 C44_4 1_555 1_555
H32_4 C46_4 1_555 1_555
C47_4 H33_4 1_555 1_555
C48_4 C39_4 1_555 1_555
C51_4 C55_4 1_555 1_555
C52_4 H35_4 1_555 1_555
C53_4 C48_4 1_555 1_555
C55_4 C46_4 1_555 1_555
H37_4 C55_4 1_555 1_555
H39_4 C57_4 1_555 1_555
C58_4 C44_4 1_555 1_555
H40_4 C58_4 1_555 1_555
H41_4 C59_4 1_555 1_555
N7_4 Cd3_2 1_555 1_555
N15_4 C47_4 1_555 1_555
C47_4 N7_4 1_555 1_555
C48_4 N7_4 1_555 1_555
C51_4 N15_4 1_555 1_555
C52_4 C53_4 1_555 1_555
C52_4 C58_4 1_555 1_555
C53_4 N15_4 1_555 1_555
C57_4 C59_4 1_555 1_555
C31_4 C45_4 1_555 1_555
C32_4 H22_4 1_555 1_555
C33_4 H23_4 1_555 1_555
C35_4 C32_4 1_555 1_555
H25_4 C35_4 1_555 1_555
C37_4 C35_4 1_555 1_555
C42_4 C37_4 1_555 1_555
C45_4 H31_4 1_555 1_555
C60_4 C45_4 1_555 1_555
H42_4 C60_4 1_555 1_555
N12_2 C33_4 1_555 1_555
N13_4 C31_4 1_555 1_555
C33_4 N13_4 1_555 1_555
C37_4 N12_2 1_555 1_555
C42_4 N13_4 1_555 1_555
Cd3_3 N1_4 1_555 1_555
C9_4 H7_4 1_555 1_555
C14_4 C9_4 1_555 1_555
H9_4 C14_4 1_555 1_555
H11_4 C16_4 1_555 1_555
C17_4 H12_4 1_555 1_555
C18_4 C9_4 1_555 1_555
C21_4 C25_4 1_555 1_555
C22_4 H14_4 1_555 1_555
C23_4 C18_4 1_555 1_555
C25_4 C16_4 1_555 1_555
H16_4 C25_4 1_555 1_555
H18_4 C27_4 1_555 1_555
C28_4 C14_4 1_555 1_555
H20_4 C29_4 1_555 1_555
N1_4 C17_4 1_555 1_555
N6_4 C17_4 1_555 1_555
C18_4 N1_4 1_555 1_555
C21_4 N6_4 1_555 1_555
C22_4 C23_4 1_555 1_555
C22_4 C28_4 1_555 1_555
C23_4 N6_4 1_555 1_555
C27_4 C29_4 1_555 1_555
C1_4 C15_4 1_555 1_555
C2_4 H1_4 1_555 1_555
C3_4 H2_4 1_555 1_555
C5_4 C2_4 1_555 1_555
H4_4 C5_4 1_555 1_555
C7_4 C5_4 1_555 1_555
C12_4 C7_4 1_555 1_555
C15_4 H10_4 1_555 1_555
C30_4 C15_4 1_555 1_555
H21_4 C30_4 1_555 1_555
N11_2 C3_4 1_555 1_555
N4_4 C1_4 1_555 1_555
C3_4 N4_4 1_555 1_555
C7_4 N11_2 1_555 1_555
C12_4 N4_4 1_555 1_555
O1 Cl1 1_555 1_555
O2 Cl1 1_555 1_555
O3 Cl1 1_555 1_555
O4 Cl1 1_555 1_555
O1_2 Cl1_2 1_555 1_555
O2_2 Cl1_2 1_555 1_555
O3_2 Cl1_2 1_555 1_555
O4_2 Cl1_2 1_555 1_555
O1_3 Cl1_3 1_555 1_555
O2_3 Cl1_3 1_555 1_555
O3_3 Cl1_3 1_555 1_555
O4_3 Cl1_3 1_555 1_555
O1_4 Cl1_4 1_555 1_555
O2_4 Cl1_4 1_555 1_555
O3_4 Cl1_4 1_555 1_555
O4_4 Cl1_4 1_555 1_555
O1_5 Cl1_5 1_555 1_555
O2_5 Cl1_5 1_555 1_555
O3_5 Cl1_5 1_555 1_555
O4_5 Cl1_5 1_555 1_555
O1_6 Cl1_6 1_555 1_555
O2_6 Cl1_6 1_555 1_555
O3_6 Cl1_6 1_555 1_555
O4_6 Cl1_6 1_555 1_555
O1_7 Cl1_7 1_555 1_555
O2_7 Cl1_7 1_555 1_555
O3_7 Cl1_7 1_555 1_555
O4_7 Cl1_7 1_555 1_555
O1_8 Cl1_8 1_555 1_555
O2_8 Cl1_8 1_555 1_555
O3_8 Cl1_8 1_555 1_555
O4_8 Cl1_8 1_555 1_555

#END
