
###############################################################################
#
# This file contains modified crystal structure data generated from the
# MOF subset of the Cambridge Structural Database (CSD) v543 
# hosted by the Cambridge Crystallographic Data Centre (CCDC).
#
# This work is licensed under the Creative Commons
# Attribution-NonCommercial-ShareAlike 4.0 International License.
# To view a copy of this license, visit
# http://creativecommons.org/licenses/by-nc-sa/4.0/
# or send a letter to
# Creative Commons, PO Box 1866, Mountain View, CA 94042, USA.
#
# CIF created using the CSD Python API on 29 September 2022
# The structure has been converted into the P1 space group
# The structure has a 3D framework
# The original CSD entry HUZFOY is in the rhombohedral crystal system
# The original CSD entry HUZFOY is in a Sohncke space group
# The framework has been calculated to contain at least 10.0% void space
# The void calculation uses a probe of radius 1.32A, grid spacing 0.4
# The framework is charged, counterions have been retained in the structure
#
###############################################################################

data_HUZFOY
_chemical_formula_moiety         '(C234 H162 Cd5 Cl12 N36 O30 4+)n'
_symmetry_cell_setting           triclinic
_symmetry_space_group_name_H-M   'P 1'
_symmetry_Int_Tables_number      1
_space_group_name_Hall           'P 1'
loop_
_symmetry_equiv_pos_site_id
_symmetry_equiv_pos_as_xyz
1 x,y,z
_cell_length_a                   21.545(2)
_cell_length_b                   21.545(2)
_cell_length_c                   19.137(3)
_cell_angle_alpha                90
_cell_angle_beta                 90
_cell_angle_gamma                120
_cell_volume                     7693.03
loop_
_atom_site_label
_atom_site_type_symbol
_atom_site_fract_x
_atom_site_fract_y
_atom_site_fract_z
C1 C 0.1081(4) 0.1026(4) 0.1251(3)
H1 H 0.0691 0.0898 0.1545
C2 C 0.1751(3) 0.1023(3) 0.0419(3)
C5 C 0.3183(4) 0.1913(5) 0.0117(5)
H4 H 0.3664 0.2205 0.0006
C6 C 0.2919(4) 0.2069(5) 0.0683(5)
H5 H 0.3211 0.2460 0.0965
C7 C 0.2187(4) 0.1623(4) 0.0838(4)
C8 C 0.1938(4) 0.2102(4) 0.1919(4)
C9 C 0.1700(4) 0.1859(5) 0.2600(4)
H6 H 0.1415 0.1371 0.2689
C10 C 0.1893(5) 0.2346(4) 0.3132(4)
H7 H 0.1717 0.2179 0.3577
C11 C 0.2336(4) 0.3071(4) 0.3039(4)
C12 C 0.2546(4) 0.3295(4) 0.2349(4)
H8 H 0.2831 0.3783 0.2262
C13 C 0.2350(4) 0.2831(4) 0.1798(4)
H9 H 0.2493 0.3003 0.1347
Cd1 Cd 0.0000 0.0000 0.0000
N1 N 0.1060(3) 0.0666(2) 0.0681(2)
N2 N 0.1752(3) 0.1614(3) 0.1356(3)
C14 C 0.3388(6) 0.5641(4) 0.5416(3)
H10 H 0.3126 0.5769 0.5122
C19 C 0.4061(4) 0.5644(3) 0.6248(3)
C24 C 0.4486(5) 0.5788(3) 0.6842(4)
H15 H 0.4581 0.6170 0.7135
C29 C 0.4763(7) 0.5343(6) 0.6982(4)
H20 H 0.5059 0.5435 0.7367
C34 C 0.4603(6) 0.4754(5) 0.6550(5)
H25 H 0.4792 0.4462 0.6661
C39 C 0.4183(6) 0.4598(5) 0.5984(5)
H30 H 0.4084 0.4207 0.5702
C44 C 0.3897(6) 0.5044(4) 0.5829(4)
C49 C 0.3169(6) 0.4565(4) 0.4748(4)
C54 C 0.3174(6) 0.4808(5) 0.4067(4)
H35 H 0.3377 0.5296 0.3978
C59 C 0.2880(6) 0.4321(4) 0.3535(4)
H40 H 0.2871 0.4488 0.3090
C64 C 0.2598(6) 0.3596(4) 0.3628(4)
C69 C 0.2584(6) 0.3372(4) 0.4318(4)
H45 H 0.2381 0.2884 0.4405
C74 C 0.2852(6) 0.3836(4) 0.4869(4)
H50 H 0.2823 0.3664 0.5320
Cd2 Cd 0.3333 0.6667 0.6667
N3 N 0.3727(4) 0.6001(2) 0.5986(2)
N11 N 0.3471(4) 0.5053(3) 0.5311(3)
Cd1_2 Cd -0.0000 1.0000 0.0000
C18 C 0.2252(4) 0.6612(6) 0.5416(3)
H13 H 0.0207 0.9309 0.1545
H14 H 0.2642 0.6874 0.5122
C23 C 0.1582(3) 0.5939(4) 0.6248(3)
C28 C 0.1301(4) 0.5514(5) 0.6842(4)
H19 H 0.1588 0.5419 0.7135
C33 C 0.0579(4) 0.5237(7) 0.6982(4)
H24 H 0.0375 0.4941 0.7367
C38 C 0.0150(4) 0.5397(6) 0.6550(5)
C43 C 0.0414(4) 0.5817(6) 0.5984(5)
H34 H 0.0122 0.5916 0.5702
C48 C 0.1146(4) 0.6103(6) 0.5829(4)
C52 C 0.0164(6) 0.8062(4) 0.1919(4)
C53 C 0.1395(4) 0.6831(6) 0.4748(4)
C57 C 0.0159(6) 0.8300(4) 0.2600(4)
C58 C 0.1633(4) 0.6826(6) 0.4067(4)
H39 H 0.1918 0.6623 0.3978
C62 C 0.0453(6) 0.8107(5) 0.3132(4)
C63 C 0.1440(5) 0.7120(6) 0.3535(4)
H43 H 0.0462 0.8283 0.3577
H44 H 0.1616 0.7129 0.3090
C67 C 0.0735(6) 0.7664(4) 0.3039(4)
C68 C 0.0997(4) 0.7402(6) 0.3628(4)
C72 C 0.0749(6) 0.7454(4) 0.2349(4)
C73 C 0.0787(4) 0.7416(6) 0.4318(4)
H48 H 0.0952 0.7169 0.2262
H49 H 0.0502 0.7619 0.4405
C77 C 0.0481(6) 0.7650(4) 0.1798(4)
C78 C 0.0983(4) 0.7148(6) 0.4869(4)
H53 H 0.0510 0.7507 0.1347
H54 H 0.0840 0.7177 0.5320
N7 N 0.2273(3) 0.6273(4) 0.5986(2)
N15 N 0.1581(3) 0.6529(4) 0.5311(3)
Cd1_3 Cd 1.0000 0.0000 0.0000
C15 C 0.8974(4) 0.0055(6) 0.1251(3)
C20 C 0.8977(3) 0.0728(4) 0.0419(3)
C35 C 0.8087(5) 0.1270(6) 0.0117(5)
H26 H 0.7795 0.1459 0.0006
H27 H 0.5538 0.0331 0.6661
C40 C 0.7931(5) 0.0850(6) 0.0683(5)
H31 H 0.7540 0.0751 0.0965
C45 C 0.8377(4) 0.0564(6) 0.0838(4)
H36 H 0.8629 0.0044 0.2689
N4 N 0.9334(2) 0.0394(4) 0.0681(2)
N12 N 0.8386(3) 0.0138(4) 0.1356(3)
Cd1_4 Cd 1.0000 1.0000 0.0000
C16 C 0.4359(4) 0.7748(4) 0.5416(3)
C17 C 0.9945(6) 0.8919(4) 0.1251(3)
H11 H 0.9102 0.9793 0.1545
H12 H 0.4231 0.7358 0.5122
C21 C 0.4356(3) 0.8418(3) 0.6248(3)
C22 C 0.9272(4) 0.8249(3) 0.0419(3)
C26 C 0.4212(3) 0.8699(4) 0.6842(4)
H17 H 0.3830 0.8412 0.7135
C31 C 0.4657(6) 0.9421(4) 0.6982(4)
H22 H 0.4565 0.9625 0.7367
C36 C 0.5246(5) 0.9850(4) 0.6550(5)
C37 C 0.8730(6) 0.6817(4) 0.0117(5)
H28 H 0.8541 0.6336 0.0006
H29 H 0.9669 0.5208 0.6661
C41 C 0.5402(5) 0.9586(4) 0.5984(5)
C42 C 0.9150(6) 0.7081(4) 0.0683(5)
H32 H 0.5793 0.9878 0.5702
H33 H 0.9249 0.6789 0.0965
C46 C 0.4956(4) 0.8854(4) 0.5829(4)
C47 C 0.9436(6) 0.7813(4) 0.0838(4)
C50 C 0.7898(4) 0.9836(6) 0.1919(4)
C51 C 0.5435(4) 0.8605(4) 0.4748(4)
C55 C 0.8141(5) 0.9841(6) 0.2600(4)
C56 C 0.5192(5) 0.8367(4) 0.4067(4)
H37 H 0.4704 0.8082 0.3978
H38 H 0.9956 0.8585 0.2689
C60 C 0.7654(4) 0.9547(6) 0.3132(4)
C61 C 0.5679(4) 0.8560(5) 0.3535(4)
H41 H 0.7821 0.9538 0.3577
H42 H 0.5512 0.8384 0.3090
C65 C 0.6929(4) 0.9265(6) 0.3039(4)
C66 C 0.6404(4) 0.9003(4) 0.3628(4)
C70 C 0.6705(4) 0.9251(6) 0.2349(4)
C71 C 0.6628(4) 0.9213(4) 0.4318(4)
H46 H 0.6217 0.9048 0.2262
H47 H 0.7116 0.9498 0.4405
C75 C 0.7169(4) 0.9519(6) 0.1798(4)
C76 C 0.6164(4) 0.9017(4) 0.4869(4)
H51 H 0.6997 0.9490 0.1347
H52 H 0.6336 0.9160 0.5320
N5 N 0.3999(2) 0.7727(3) 0.5986(2)
N6 N 0.9606(4) 0.8940(3) 0.0681(2)
N13 N 0.4947(3) 0.8419(3) 0.5311(3)
N14 N 0.9862(4) 0.8248(3) 0.1356(3)
C3 C 0.0879(3) 0.2032(4) 0.0175(4)
H2 H 0.0497 0.1745 0.0468
C4 C 0.1324(6) 0.2754(4) 0.0315(4)
H3 H 0.1232 0.2958 0.0700
C25 C 0.1153(5) 0.9121(3) 0.0175(4)
H16 H 0.1248 0.9503 0.0468
C30 C 0.1430(7) 0.8676(6) 0.0315(4)
H21 H 0.1726 0.8768 0.0700
C27 C 0.7968(4) 0.8847(5) 0.0175(4)
H18 H 0.8255 0.8752 0.0468
C32 C 0.7246(4) 0.8570(7) 0.0315(4)
H23 H 0.7042 0.8274 0.0700
C14_2 C 0.2307(4) 0.6722(6) 0.7918(3)
H10_2 H 0.2435 0.6460 0.8212
C19_2 C 0.2310(3) 0.7395(4) 0.7086(3)
C24_2 C 0.2454(3) 0.7820(5) 0.6492(4)
H15_2 H 0.2836 0.7915 0.6199
C29_2 C 0.2009(6) 0.8097(7) 0.6352(4)
H20_2 H 0.2101 0.8393 0.5967
C34_2 C 0.1420(5) 0.7937(6) 0.6784(5)
H25_2 H 0.1128 0.8126 0.6673
C39_2 C 0.1264(5) 0.7517(6) 0.7350(5)
H30_2 H 0.0873 0.7418 0.7632
C44_2 C 0.1710(4) 0.7231(6) 0.7505(4)
C49_2 C 0.1231(4) 0.6503(6) 0.8586(4)
C54_2 C 0.1474(5) 0.6508(6) 0.9267(4)
H35_2 H 0.1962 0.6711 0.9356
C59_2 C 0.0987(4) 0.6214(6) 0.9799(4)
C64_2 C 0.0262(4) 0.5932(6) 0.9706(4)
C69_2 C 0.0038(4) 0.5918(6) 0.9016(4)
C74_2 C 0.0502(4) 0.6186(6) 0.8465(4)
H50_2 H 0.0330 0.6157 0.8014
N3_2 N 0.2667(2) 0.7061(4) 0.7348(2)
N11_2 N 0.1719(3) 0.6805(4) 0.8023(3)
H7_2 H 0.8846 0.5050 0.9756
C18_2 C 0.3278(6) 0.5586(4) 0.7918(3)
H14_2 H 0.3540 0.5976 0.8212
C23_2 C 0.2605(4) 0.4916(3) 0.7086(3)
C28_2 C 0.2180(5) 0.4635(4) 0.6492(4)
H19_2 H 0.2085 0.4922 0.6199
C33_2 C 0.1903(7) 0.3913(4) 0.6352(4)
H24_2 H 0.1607 0.3709 0.5967
C38_2 C 0.2063(6) 0.3484(4) 0.6784(5)
H29_2 H 0.1874 0.3003 0.6673
C43_2 C 0.2483(6) 0.3748(4) 0.7350(5)
H34_2 H 0.2582 0.3456 0.7632
C48_2 C 0.2769(6) 0.4480(4) 0.7505(4)
C53_2 C 0.3497(6) 0.4729(4) 0.8586(4)
C58_2 C 0.3492(6) 0.4967(4) 0.9267(4)
H39_2 H 0.3289 0.5252 0.9356
C63_2 C 0.3786(6) 0.4774(5) 0.9799(4)
H41_2 H 0.6205 0.1154 0.9756
H43_2 H 0.4950 0.3795 0.9756
C68_2 C 0.4068(6) 0.4331(4) 0.9706(4)
C73_2 C 0.4082(6) 0.4121(4) 0.9016(4)
H45_2 H 0.9550 0.5715 0.8929
H47_2 H 0.6164 0.0450 0.8929
H49_2 H 0.4285 0.3836 0.8929
C78_2 C 0.3814(6) 0.4317(4) 0.8465(4)
H54_2 H 0.3843 0.4174 0.8014
N7_2 N 0.2939(4) 0.5607(3) 0.7348(2)
N15_2 N 0.3195(4) 0.4915(3) 0.8023(3)
C16_2 C 0.4414(4) 0.7693(4) 0.7918(3)
H12_2 H 0.4024 0.7565 0.8212
C21_2 C 0.5084(3) 0.7690(3) 0.7086(3)
C26_2 C 0.5365(4) 0.7546(3) 0.6492(4)
H17_2 H 0.5078 0.7164 0.6199
C31_2 C 0.6087(4) 0.7991(6) 0.6352(4)
H22_2 H 0.6291 0.7899 0.5967
C36_2 C 0.6516(4) 0.8580(5) 0.6784(5)
H27_2 H 0.6997 0.8872 0.6673
C41_2 C 0.6252(4) 0.8736(5) 0.7350(5)
H32_2 H 0.6544 0.9127 0.7632
C46_2 C 0.5520(4) 0.8290(4) 0.7505(4)
C51_2 C 0.5271(4) 0.8769(4) 0.8586(4)
C56_2 C 0.5033(4) 0.8526(5) 0.9267(4)
H37_2 H 0.4748 0.8038 0.9356
C61_2 C 0.5226(5) 0.9013(4) 0.9799(4)
C66_2 C 0.5669(4) 0.9738(4) 0.9706(4)
C71_2 C 0.5879(4) 0.9962(4) 0.9016(4)
C76_2 C 0.5683(4) 0.9498(4) 0.8465(4)
H52_2 H 0.5826 0.9670 0.8014
N5_2 N 0.4393(3) 0.7333(2) 0.7348(2)
N13_2 N 0.5085(3) 0.8281(3) 0.8023(3)
C3_2 C 0.2032(4) 0.0879(3) 0.9825(4)
H2_2 H 0.1745 0.0497 0.9532
C4_2 C 0.2754(4) 0.1324(6) 0.9685(4)
H3_2 H 0.2958 0.1232 0.9300
Cd1_5 Cd -0.0000 -0.0000 1.0000
N8 N 0.0666(2) 0.1060(3) 0.9319(2)
Cd1_6 Cd 0.0000 1.0000 1.0000
N10 N 0.0394(4) 0.9334(2) 0.9319(2)
Cd1_7 Cd 1.0000 -0.0000 1.0000
C25_2 C 0.9121(3) 0.1153(5) 0.9825(4)
H16_2 H 0.9503 0.1248 0.9532
C30_2 C 0.8676(6) 0.1430(7) 0.9685(4)
H21_2 H 0.8768 0.1726 0.9300
Cd1_8 Cd 1.0000 1.0000 1.0000
C27_2 C 0.8847(5) 0.7968(4) 0.9825(4)
H18_2 H 0.8752 0.8255 0.9532
C32_2 C 0.8570(7) 0.7246(4) 0.9685(4)
H23_2 H 0.8274 0.7042 0.9300
N9 N 0.8940(3) 0.9606(4) 0.9319(2)
C1_2 C 0.1026(4) 0.1081(4) 0.8749(3)
H1_2 H 0.0898 0.0691 0.8455
C2_2 C 0.1023(3) 0.1751(3) 0.9581(3)
C5_2 C 0.1913(5) 0.3183(4) 0.9883(5)
H4_2 H 0.2205 0.3664 0.9994
C6_2 C 0.2069(5) 0.2919(4) 0.9317(5)
H5_2 H 0.2460 0.3211 0.9035
C7_2 C 0.1623(4) 0.2187(4) 0.9162(4)
C8_2 C 0.2102(4) 0.1938(4) 0.8081(4)
C9_2 C 0.1859(5) 0.1700(4) 0.7400(4)
H6_2 H 0.1371 0.1415 0.7311
C10_2 C 0.2346(4) 0.1893(5) 0.6868(4)
H7_3 H 0.2179 0.1717 0.6423
C11_2 C 0.3071(4) 0.2336(4) 0.6961(4)
C12_2 C 0.3295(4) 0.2546(4) 0.7651(4)
H8_2 H 0.3783 0.2831 0.7738
C13_2 C 0.2831(4) 0.2350(4) 0.8202(4)
H9_2 H 0.3003 0.2493 0.8653
N2_2 N 0.1614(3) 0.1752(3) 0.8644(3)
C14_3 C 0.5641(4) 0.3388(6) 0.4584(3)
H10_3 H 0.5769 0.3126 0.4878
C19_3 C 0.5644(3) 0.4061(4) 0.3752(3)
C24_3 C 0.5788(3) 0.4486(5) 0.3158(4)
H15_3 H 0.6170 0.4581 0.2865
C29_3 C 0.5343(6) 0.4763(7) 0.3018(4)
H20_3 H 0.5435 0.5059 0.2633
C34_3 C 0.4754(5) 0.4603(6) 0.3450(5)
H25_3 H 0.4462 0.4792 0.3339
C39_3 C 0.4598(5) 0.4183(6) 0.4016(5)
H30_3 H 0.4207 0.4084 0.4298
C44_3 C 0.5044(4) 0.3897(6) 0.4171(4)
C49_3 C 0.4565(4) 0.3169(6) 0.5252(4)
C54_3 C 0.4808(5) 0.3174(6) 0.5933(4)
H35_3 H 0.5296 0.3377 0.6022
C59_3 C 0.4321(4) 0.2880(6) 0.6465(4)
H40_2 H 0.4488 0.2871 0.6910
C64_3 C 0.3596(4) 0.2598(6) 0.6372(4)
C69_3 C 0.3372(4) 0.2584(6) 0.5682(4)
H45_3 H 0.2884 0.2381 0.5595
C74_3 C 0.3836(4) 0.2852(6) 0.5131(4)
H50_3 H 0.3664 0.2823 0.4680
Cd2_2 Cd 0.6667 0.3333 0.3333
N3_3 N 0.6001(2) 0.3727(4) 0.4014(2)
N11_3 N 0.5053(3) 0.3471(4) 0.4689(3)
C15_2 C 0.0055(6) 0.8974(4) 0.8749(3)
C20_2 C 0.0728(4) 0.8977(3) 0.9581(3)
C35_2 C 0.1270(6) 0.8087(5) 0.9883(5)
H26_2 H 0.1459 0.7795 0.9994
H27_3 H 0.0331 0.5538 0.3339
C40_2 C 0.0850(6) 0.7931(5) 0.9317(5)
H31_2 H 0.0751 0.7540 0.9035
C45_2 C 0.0564(6) 0.8377(4) 0.9162(4)
H36_2 H 0.0044 0.8629 0.7311
N12_2 N 0.0138(4) 0.8386(3) 0.8644(3)
C18_3 C 0.6612(6) 0.2252(4) 0.4584(3)
H13_2 H 0.9309 0.0207 0.8455
H14_3 H 0.6874 0.2642 0.4878
C23_3 C 0.5939(4) 0.1582(3) 0.3752(3)
C28_3 C 0.5514(5) 0.1301(4) 0.3158(4)
H19_3 H 0.5419 0.1588 0.2865
C33_3 C 0.5237(7) 0.0579(4) 0.3018(4)
H24_3 H 0.4941 0.0375 0.2633
C38_3 C 0.5397(6) 0.0150(4) 0.3450(5)
C43_3 C 0.5817(6) 0.0414(4) 0.4016(5)
H34_3 H 0.5916 0.0122 0.4298
C48_3 C 0.6103(6) 0.1146(4) 0.4171(4)
C52_2 C 0.8062(4) 0.0164(6) 0.8081(4)
C53_3 C 0.6831(6) 0.1395(4) 0.5252(4)
C57_2 C 0.8300(4) 0.0159(6) 0.7400(4)
C58_3 C 0.6826(6) 0.1633(4) 0.5933(4)
H39_3 H 0.6623 0.1918 0.6022
C62_2 C 0.8107(5) 0.0453(6) 0.6868(4)
C63_3 C 0.7120(6) 0.1440(5) 0.6465(4)
H43_3 H 0.8283 0.0462 0.6423
H44_2 H 0.7129 0.1616 0.6910
C67_2 C 0.7664(4) 0.0735(6) 0.6961(4)
C68_3 C 0.7402(6) 0.0997(4) 0.6372(4)
C72_2 C 0.7454(4) 0.0749(6) 0.7651(4)
C73_3 C 0.7416(6) 0.0787(4) 0.5682(4)
H48_2 H 0.7169 0.0952 0.7738
H49_3 H 0.7619 0.0502 0.5595
C77_2 C 0.7650(4) 0.0481(6) 0.8202(4)
C78_3 C 0.7148(6) 0.0983(4) 0.5131(4)
H53_2 H 0.7507 0.0510 0.8653
H54_3 H 0.7177 0.0840 0.4680
N7_3 N 0.6273(4) 0.2273(3) 0.4014(2)
N15_3 N 0.6529(4) 0.1581(3) 0.4689(3)
C16_3 C 0.7748(4) 0.4359(4) 0.4584(3)
C17_2 C 0.8919(4) 0.9945(6) 0.8749(3)
H11_2 H 0.9793 0.9102 0.8455
H12_3 H 0.7358 0.4231 0.4878
C21_3 C 0.8418(3) 0.4356(3) 0.3752(3)
C22_2 C 0.8249(3) 0.9272(4) 0.9581(3)
C26_3 C 0.8699(4) 0.4212(3) 0.3158(4)
H17_3 H 0.8412 0.3830 0.2865
C31_3 C 0.9421(4) 0.4657(6) 0.3018(4)
H22_3 H 0.9625 0.4565 0.2633
C36_3 C 0.9850(4) 0.5246(5) 0.3450(5)
C37_2 C 0.6817(4) 0.8730(6) 0.9883(5)
H28_2 H 0.6336 0.8541 0.9994
H29_3 H 0.5208 0.9669 0.3339
C41_3 C 0.9586(4) 0.5402(5) 0.4016(5)
C42_2 C 0.7081(4) 0.9150(6) 0.9317(5)
H32_3 H 0.9878 0.5793 0.4298
H33_2 H 0.6789 0.9249 0.9035
C46_3 C 0.8854(4) 0.4956(4) 0.4171(4)
C47_2 C 0.7813(4) 0.9436(6) 0.9162(4)
C50_2 C 0.9836(6) 0.7898(4) 0.8081(4)
C51_3 C 0.8605(4) 0.5435(4) 0.5252(4)
C55_2 C 0.9841(6) 0.8141(5) 0.7400(4)
C56_3 C 0.8367(4) 0.5192(5) 0.5933(4)
H37_3 H 0.8082 0.4704 0.6022
H38_2 H 0.8585 0.9956 0.7311
C60_2 C 0.9547(6) 0.7654(4) 0.6868(4)
C61_3 C 0.8560(5) 0.5679(4) 0.6465(4)
H41_3 H 0.9538 0.7821 0.6423
H42_2 H 0.8384 0.5512 0.6910
C65_2 C 0.9265(6) 0.6929(4) 0.6961(4)
C66_3 C 0.9003(4) 0.6404(4) 0.6372(4)
C70_2 C 0.9251(6) 0.6705(4) 0.7651(4)
C71_3 C 0.9213(4) 0.6628(4) 0.5682(4)
H46_2 H 0.9048 0.6217 0.7738
H47_3 H 0.9498 0.7116 0.5595
C75_2 C 0.9519(6) 0.7169(4) 0.8202(4)
C76_3 C 0.9017(4) 0.6164(4) 0.5131(4)
H51_2 H 0.9490 0.6997 0.8653
H52_3 H 0.9160 0.6336 0.4680
N5_3 N 0.7727(3) 0.3999(2) 0.4014(2)
N13_3 N 0.8419(3) 0.4947(3) 0.4689(3)
N14_2 N 0.8248(3) 0.9862(4) 0.8644(3)
N8_2 N 0.7333(2) 0.4393(3) 0.2652(2)
N9_2 N 0.5607(3) 0.2939(4) 0.2652(2)
N10_2 N 0.7061(4) 0.2667(2) 0.2652(2)
H8_3 H 0.0450 0.6164 0.1071
H40_3 H 0.1154 0.6205 0.0244
C1_3 C 0.7693(4) 0.4414(4) 0.2082(3)
H1_3 H 0.7565 0.4024 0.1788
C2_3 C 0.7690(3) 0.5084(3) 0.2914(3)
C3_3 C 0.7546(3) 0.5365(4) 0.3508(4)
H2_3 H 0.7164 0.5078 0.3801
C4_3 C 0.7991(6) 0.6087(4) 0.3648(4)
H3_3 H 0.7899 0.6291 0.4033
C5_3 C 0.8580(5) 0.6516(4) 0.3216(5)
H4_3 H 0.8872 0.6997 0.3327
C6_3 C 0.8736(5) 0.6252(4) 0.2650(5)
H5_3 H 0.9127 0.6544 0.2368
C7_3 C 0.8290(4) 0.5520(4) 0.2495(4)
C8_3 C 0.8769(4) 0.5271(4) 0.1414(4)
C9_3 C 0.8526(5) 0.5033(4) 0.0733(4)
H6_3 H 0.8038 0.4748 0.0644
C10_3 C 0.9013(4) 0.5226(5) 0.0201(4)
C11_3 C 0.9738(4) 0.5669(4) 0.0294(4)
C12_3 C 0.9962(4) 0.5879(4) 0.0984(4)
C13_3 C 0.9498(4) 0.5683(4) 0.1535(4)
H9_3 H 0.9670 0.5826 0.1986
N2_3 N 0.8281(3) 0.5085(3) 0.1977(3)
C15_3 C 0.6722(6) 0.2307(4) 0.2082(3)
C17_3 C 0.5586(4) 0.3278(6) 0.2082(3)
H11_3 H 0.6460 0.2435 0.1788
H13_3 H 0.5976 0.3540 0.1788
C20_3 C 0.7395(4) 0.2310(3) 0.2914(3)
C22_3 C 0.4916(3) 0.2605(4) 0.2914(3)
C25_3 C 0.7820(5) 0.2454(3) 0.3508(4)
C27_3 C 0.4635(4) 0.2180(5) 0.3508(4)
H16_3 H 0.7915 0.2836 0.3801
H18_3 H 0.4922 0.2085 0.3801
C30_3 C 0.8097(7) 0.2009(6) 0.3648(4)
C32_3 C 0.3913(4) 0.1903(7) 0.3648(4)
H21_3 H 0.8393 0.2101 0.4033
H23_3 H 0.3709 0.1607 0.4033
C35_3 C 0.7937(6) 0.1420(5) 0.3216(5)
C37_3 C 0.3484(4) 0.2063(6) 0.3216(5)
H26_3 H 0.8126 0.1128 0.3327
H28_3 H 0.3003 0.1874 0.3327
C40_3 C 0.7517(6) 0.1264(5) 0.2650(5)
C42_3 C 0.3748(4) 0.2483(6) 0.2650(5)
H31_3 H 0.7418 0.0873 0.2368
H33_3 H 0.3456 0.2582 0.2368
C45_3 C 0.7231(6) 0.1710(4) 0.2495(4)
C47_3 C 0.4480(4) 0.2769(6) 0.2495(4)
C50_3 C 0.6503(6) 0.1231(4) 0.1414(4)
C52_3 C 0.4729(4) 0.3497(6) 0.1414(4)
C55_3 C 0.6508(6) 0.1474(5) 0.0733(4)
C57_3 C 0.4967(4) 0.3492(6) 0.0733(4)
H36_3 H 0.6711 0.1962 0.0644
H38_3 H 0.5252 0.3289 0.0644
C60_3 C 0.6214(6) 0.0987(4) 0.0201(4)
C62_3 C 0.4774(5) 0.3786(6) 0.0201(4)
H44_3 H 0.3795 0.4950 0.0244
C65_3 C 0.5932(6) 0.0262(4) 0.0294(4)
C67_3 C 0.4331(4) 0.4068(6) 0.0294(4)
C70_3 C 0.5918(6) 0.0038(4) 0.0984(4)
C72_3 C 0.4121(4) 0.4082(6) 0.0984(4)
H48_3 H 0.3836 0.4285 0.1071
C75_3 C 0.6186(6) 0.0502(4) 0.1535(4)
C77_3 C 0.4317(4) 0.3814(6) 0.1535(4)
H51_3 H 0.6157 0.0330 0.1986
H53_3 H 0.4174 0.3843 0.1986
N12_3 N 0.6805(4) 0.1719(3) 0.1977(3)
N14_3 N 0.4915(3) 0.3195(4) 0.1977(3)
H42_3 H 0.5050 0.8846 0.0244
H46_3 H 0.5715 0.9550 0.1071
Cl1 Cl -0.0000 0.0000 0.2972(6)
O1 O 0.0649(7) 0.0091(8) 0.2667(9)
O2 O -0.0000 -0.0000 0.3724(8)
Cl1_2 Cl -0.0000 1.0000 0.2972(6)
O2_2 O -0.0000 1.0000 0.3724(8)
Cl1_3 Cl 1.0000 0.0000 0.2972(6)
O2_3 O 1.0000 -0.0000 0.3724(8)
O3 O 0.9909(8) 0.0558(11) 0.2667(9)
Cl1_4 Cl 1.0000 1.0000 0.2972(6)
O2_4 O 1.0000 1.0000 0.3724(8)
O4 O 0.9442(11) 0.9351(7) 0.2667(9)
Cl1_5 Cl 0.0000 -0.0000 0.7028(6)
O1_2 O 0.0091(8) 0.0649(7) 0.7333(9)
O2_5 O -0.0000 -0.0000 0.6276(8)
Cl1_6 Cl -0.0000 1.0000 0.7028(6)
O2_6 O -0.0000 1.0000 0.6276(8)
O3_2 O 0.0558(11) 0.9909(8) 0.7333(9)
Cl1_7 Cl 1.0000 -0.0000 0.7028(6)
O2_7 O 1.0000 -0.0000 0.6276(8)
Cl1_8 Cl 1.0000 1.0000 0.7028(6)
O2_8 O 1.0000 1.0000 0.6276(8)
O4_2 O 0.9351(7) 0.9442(11) 0.7333(9)
Cl1_9 Cl 0.6667 0.3333 0.6305(6)
O1_3 O 0.7316(7) 0.3424(8) 0.6000(9)
O2_9 O 0.6667 0.3333 0.7057(8)
O3_3 O 0.6576(8) 0.3891(11) 0.6000(9)
O4_3 O 0.6109(11) 0.2684(7) 0.6000(9)
Cl1_10 Cl 0.6667 0.3333 0.0361(6)
O1_4 O 0.6758(8) 0.3982(7) 0.0666(9)
O3_4 O 0.7225(11) 0.3242(8) 0.0666(9)
O4_4 O 0.6018(7) 0.2775(11) 0.0666(9)
O2_10 O 0.6667 0.3333 0.9609(8)
O2_11 O 0.3333 0.6667 0.0391(8)
Cl1_11 Cl 0.3333 0.6667 0.9639(6)
O1_5 O 0.3982(7) 0.6758(8) 0.9334(9)
O3_5 O 0.3242(8) 0.7225(11) 0.9334(9)
O4_5 O 0.2775(11) 0.6018(7) 0.9334(9)
Cl1_12 Cl 0.3333 0.6667 0.3695(6)
O1_6 O 0.3424(8) 0.7316(7) 0.4000(9)
O2_12 O 0.3333 0.6667 0.2943(8)
O3_6 O 0.3891(11) 0.6576(8) 0.4000(9)
O4_6 O 0.2684(7) 0.6109(11) 0.4000(9)
loop_
_geom_bond_atom_site_label_1
_geom_bond_atom_site_label_2
_geom_bond_site_symmetry_1
_geom_bond_site_symmetry_2
C1 H1 1_555 1_555
H4 C5 1_555 1_555
C6 C5 1_555 1_555
H5 C6 1_555 1_555
C7 C2 1_555 1_555
C8 C9 1_555 1_555
C9 H6 1_555 1_555
C10 C9 1_555 1_555
H7 C10 1_555 1_555
C11 C10 1_555 1_555
C12 C11 1_555 1_555
H8 C12 1_555 1_555
C13 C8 1_555 1_555
H9 C13 1_555 1_555
Cd1 N1 1_555 1_555
N1 C1 1_555 1_555
N2 C1 1_555 1_555
C14 H10 1_555 1_555
C19 C24 1_555 1_555
C24 H15 1_555 1_555
C29 C24 1_555 1_555
H20 C29 1_555 1_555
C34 C29 1_555 1_555
H25 C34 1_555 1_555
C39 C34 1_555 1_555
H30 C39 1_555 1_555
C44 C19 1_555 1_555
C49 C54 1_555 1_555
C54 H35 1_555 1_555
C59 C54 1_555 1_555
H40 C59 1_555 1_555
C64 C11 1_555 1_555
C69 C64 1_555 1_555
H45 C69 1_555 1_555
C74 C49 1_555 1_555
H50 C74 1_555 1_555
Cd2 N3 1_555 1_555
N3 C14 1_555 1_555
N11 C14 1_555 1_555
C2 N1 1_555 1_555
C6 C7 1_555 1_555
C7 N2 1_555 1_555
C8 N2 1_555 1_555
C12 C13 1_555 1_555
C19 N3 1_555 1_555
C39 C44 1_555 1_555
C44 N11 1_555 1_555
C49 N11 1_555 1_555
C59 C64 1_555 1_555
C69 C74 1_555 1_555
C18 H14 1_555 1_555
C23 C28 1_555 1_555
C28 H19 1_555 1_555
C33 C28 1_555 1_555
H24 C33 1_555 1_555
C38 C33 1_555 1_555
C43 C38 1_555 1_555
H34 C43 1_555 1_555
C48 C23 1_555 1_555
C52 C57 1_555 1_555
C53 C58 1_555 1_555
C58 H39 1_555 1_555
C62 C57 1_555 1_555
C63 C58 1_555 1_555
H43 C62 1_555 1_555
H44 C63 1_555 1_555
C67 C62 1_555 1_555
C68 C63 1_555 1_555
C72 C67 1_555 1_555
C73 C68 1_555 1_555
H48 C72 1_555 1_555
H49 C73 1_555 1_555
C77 C52 1_555 1_555
C78 C53 1_555 1_555
H53 C77 1_555 1_555
H54 C78 1_555 1_555
Cd2 N7 1_555 1_555
N7 C18 1_555 1_555
N15 C18 1_555 1_555
C23 N7 1_555 1_555
C43 C48 1_555 1_555
C48 N15 1_555 1_555
C53 N15 1_555 1_555
C67 C68 1_555 1_555
C72 C77 1_555 1_555
C73 C78 1_555 1_555
H26 C35 1_555 1_555
C40 C35 1_555 1_555
H31 C40 1_555 1_555
C45 C20 1_555 1_555
N4 Cd1_3 1_555 1_555
N12 C15 1_555 1_555
C15 N4 1_555 1_555
C20 N4 1_555 1_555
C40 C45 1_555 1_555
C45 N12 1_555 1_555
C16 H12 1_555 1_555
C21 C26 1_555 1_555
C26 H17 1_555 1_555
C31 C26 1_555 1_555
H22 C31 1_555 1_555
C36 C31 1_555 1_555
H28 C37 1_555 1_555
C41 C36 1_555 1_555
C42 C37 1_555 1_555
H32 C41 1_555 1_555
H33 C42 1_555 1_555
C46 C21 1_555 1_555
C47 C22 1_555 1_555
C50 C55 1_555 1_555
C51 C56 1_555 1_555
C56 H37 1_555 1_555
C60 C55 1_555 1_555
C61 C56 1_555 1_555
H41 C60 1_555 1_555
H42 C61 1_555 1_555
C65 C60 1_555 1_555
C66 C61 1_555 1_555
C70 C65 1_555 1_555
C71 C66 1_555 1_555
H46 C70 1_555 1_555
H47 C71 1_555 1_555
C75 C50 1_555 1_555
C76 C51 1_555 1_555
H51 C75 1_555 1_555
H52 C76 1_555 1_555
Cd2 N5 1_555 1_555
N5 C16 1_555 1_555
N6 Cd1_4 1_555 1_555
N13 C16 1_555 1_555
N14 C17 1_555 1_555
C17 N6 1_555 1_555
C21 N5 1_555 1_555
C22 N6 1_555 1_555
C41 C46 1_555 1_555
C42 C47 1_555 1_555
C46 N13 1_555 1_555
C47 N14 1_555 1_555
C51 N13 1_555 1_555
C65 C66 1_555 1_555
C70 C75 1_555 1_555
C71 C76 1_555 1_555
C3 H2 1_555 1_555
C4 C3 1_555 1_555
H3 C4 1_555 1_555
C25 H16 1_555 1_555
C30 C25 1_555 1_555
H21 C30 1_555 1_555
C27 H18 1_555 1_555
C32 C27 1_555 1_555
H23 C32 1_555 1_555
C14_2 H10_2 1_555 1_555
C19_2 C24_2 1_555 1_555
C24_2 H15_2 1_555 1_555
C29_2 C24_2 1_555 1_555
H20_2 C29_2 1_555 1_555
C34_2 C29_2 1_555 1_555
H25_2 C34_2 1_555 1_555
C39_2 C34_2 1_555 1_555
H30_2 C39_2 1_555 1_555
C44_2 C19_2 1_555 1_555
C49_2 C54_2 1_555 1_555
C54_2 H35_2 1_555 1_555
C59_2 C54_2 1_555 1_555
C69_2 C64_2 1_555 1_555
C74_2 C49_2 1_555 1_555
H50_2 C74_2 1_555 1_555
Cd2 N3_2 1_555 1_555
N3_2 C14_2 1_555 1_555
N11_2 C14_2 1_555 1_555
C19_2 N3_2 1_555 1_555
C39_2 C44_2 1_555 1_555
C44_2 N11_2 1_555 1_555
C49_2 N11_2 1_555 1_555
C59_2 C64_2 1_555 1_555
C69_2 C74_2 1_555 1_555
C18_2 H14_2 1_555 1_555
C23_2 C28_2 1_555 1_555
C28_2 H19_2 1_555 1_555
C33_2 C28_2 1_555 1_555
H24_2 C33_2 1_555 1_555
C38_2 C33_2 1_555 1_555
H29_2 C38_2 1_555 1_555
C43_2 C38_2 1_555 1_555
H34_2 C43_2 1_555 1_555
C48_2 C23_2 1_555 1_555
C53_2 C58_2 1_555 1_555
C58_2 H39_2 1_555 1_555
C63_2 C58_2 1_555 1_555
C68_2 C63_2 1_555 1_555
C73_2 C68_2 1_555 1_555
H49_2 C73_2 1_555 1_555
C78_2 C53_2 1_555 1_555
H54_2 C78_2 1_555 1_555
Cd2 N7_2 1_555 1_555
N7_2 C18_2 1_555 1_555
N15_2 C18_2 1_555 1_555
C23_2 N7_2 1_555 1_555
C43_2 C48_2 1_555 1_555
C48_2 N15_2 1_555 1_555
C53_2 N15_2 1_555 1_555
C73_2 C78_2 1_555 1_555
C16_2 H12_2 1_555 1_555
C21_2 C26_2 1_555 1_555
C26_2 H17_2 1_555 1_555
C31_2 C26_2 1_555 1_555
H22_2 C31_2 1_555 1_555
C36_2 C31_2 1_555 1_555
H27_2 C36_2 1_555 1_555
C41_2 C36_2 1_555 1_555
H32_2 C41_2 1_555 1_555
C46_2 C21_2 1_555 1_555
C51_2 C56_2 1_555 1_555
C56_2 H37_2 1_555 1_555
C61_2 C56_2 1_555 1_555
C66_2 C61_2 1_555 1_555
C71_2 C66_2 1_555 1_555
C76_2 C51_2 1_555 1_555
H52_2 C76_2 1_555 1_555
Cd2 N5_2 1_555 1_555
N5_2 C16_2 1_555 1_555
N13_2 C16_2 1_555 1_555
C21_2 N5_2 1_555 1_555
C41_2 C46_2 1_555 1_555
C46_2 N13_2 1_555 1_555
C51_2 N13_2 1_555 1_555
C71_2 C76_2 1_555 1_555
C3_2 H2_2 1_555 1_555
C4_2 C3_2 1_555 1_555
H3_2 C4_2 1_555 1_555
N8 Cd1_5 1_555 1_555
N10 Cd1_6 1_555 1_555
C25_2 H16_2 1_555 1_555
C30_2 C25_2 1_555 1_555
H21_2 C30_2 1_555 1_555
C27_2 H18_2 1_555 1_555
C32_2 C27_2 1_555 1_555
H23_2 C32_2 1_555 1_555
N9 Cd1_8 1_555 1_555
C1_2 H1_2 1_555 1_555
H4_2 C5_2 1_555 1_555
C6_2 C5_2 1_555 1_555
H5_2 C6_2 1_555 1_555
C7_2 C2_2 1_555 1_555
C8_2 C9_2 1_555 1_555
C9_2 H6_2 1_555 1_555
C10_2 C9_2 1_555 1_555
H7_3 C10_2 1_555 1_555
C11_2 C10_2 1_555 1_555
C12_2 C11_2 1_555 1_555
H8_2 C12_2 1_555 1_555
C13_2 C8_2 1_555 1_555
H9_2 C13_2 1_555 1_555
N8 C1_2 1_555 1_555
N2_2 C1_2 1_555 1_555
C14_3 H10_3 1_555 1_555
C19_3 C24_3 1_555 1_555
C24_3 H15_3 1_555 1_555
C29_3 C24_3 1_555 1_555
H20_3 C29_3 1_555 1_555
C34_3 C29_3 1_555 1_555
H25_3 C34_3 1_555 1_555
C39_3 C34_3 1_555 1_555
H30_3 C39_3 1_555 1_555
C44_3 C19_3 1_555 1_555
C49_3 C54_3 1_555 1_555
C54_3 H35_3 1_555 1_555
C59_3 C54_3 1_555 1_555
H40_2 C59_3 1_555 1_555
C64_3 C11_2 1_555 1_555
C69_3 C64_3 1_555 1_555
H45_3 C69_3 1_555 1_555
C74_3 C49_3 1_555 1_555
H50_3 C74_3 1_555 1_555
Cd2_2 N3_3 1_555 1_555
N3_3 C14_3 1_555 1_555
N11_3 C14_3 1_555 1_555
C2_2 N8 1_555 1_555
C6_2 C7_2 1_555 1_555
C7_2 N2_2 1_555 1_555
C8_2 N2_2 1_555 1_555
C12_2 C13_2 1_555 1_555
C19_3 N3_3 1_555 1_555
C39_3 C44_3 1_555 1_555
C44_3 N11_3 1_555 1_555
C49_3 N11_3 1_555 1_555
C59_3 C64_3 1_555 1_555
C69_3 C74_3 1_555 1_555
H26_2 C35_2 1_555 1_555
C40_2 C35_2 1_555 1_555
H31_2 C40_2 1_555 1_555
C45_2 C20_2 1_555 1_555
N12_2 C15_2 1_555 1_555
C15_2 N10 1_555 1_555
C20_2 N10 1_555 1_555
C40_2 C45_2 1_555 1_555
C45_2 N12_2 1_555 1_555
C18_3 H14_3 1_555 1_555
C23_3 C28_3 1_555 1_555
C28_3 H19_3 1_555 1_555
C33_3 C28_3 1_555 1_555
H24_3 C33_3 1_555 1_555
C38_3 C33_3 1_555 1_555
C43_3 C38_3 1_555 1_555
H34_3 C43_3 1_555 1_555
C48_3 C23_3 1_555 1_555
C52_2 C57_2 1_555 1_555
C53_3 C58_3 1_555 1_555
C58_3 H39_3 1_555 1_555
C62_2 C57_2 1_555 1_555
C63_3 C58_3 1_555 1_555
H43_3 C62_2 1_555 1_555
H44_2 C63_3 1_555 1_555
C67_2 C62_2 1_555 1_555
C68_3 C63_3 1_555 1_555
C72_2 C67_2 1_555 1_555
C73_3 C68_3 1_555 1_555
H48_2 C72_2 1_555 1_555
H49_3 C73_3 1_555 1_555
C77_2 C52_2 1_555 1_555
C78_3 C53_3 1_555 1_555
H53_2 C77_2 1_555 1_555
H54_3 C78_3 1_555 1_555
Cd2_2 N7_3 1_555 1_555
N7_3 C18_3 1_555 1_555
N15_3 C18_3 1_555 1_555
C23_3 N7_3 1_555 1_555
C43_3 C48_3 1_555 1_555
C48_3 N15_3 1_555 1_555
C53_3 N15_3 1_555 1_555
C67_2 C68_3 1_555 1_555
C72_2 C77_2 1_555 1_555
C73_3 C78_3 1_555 1_555
C16_3 H12_3 1_555 1_555
C21_3 C26_3 1_555 1_555
C26_3 H17_3 1_555 1_555
C31_3 C26_3 1_555 1_555
H22_3 C31_3 1_555 1_555
C36_3 C31_3 1_555 1_555
H28_2 C37_2 1_555 1_555
C41_3 C36_3 1_555 1_555
C42_2 C37_2 1_555 1_555
H32_3 C41_3 1_555 1_555
H33_2 C42_2 1_555 1_555
C46_3 C21_3 1_555 1_555
C47_2 C22_2 1_555 1_555
C50_2 C55_2 1_555 1_555
C51_3 C56_3 1_555 1_555
C56_3 H37_3 1_555 1_555
C60_2 C55_2 1_555 1_555
C61_3 C56_3 1_555 1_555
H41_3 C60_2 1_555 1_555
H42_2 C61_3 1_555 1_555
C65_2 C60_2 1_555 1_555
C66_3 C61_3 1_555 1_555
C70_2 C65_2 1_555 1_555
C71_3 C66_3 1_555 1_555
H46_2 C70_2 1_555 1_555
H47_3 C71_3 1_555 1_555
C75_2 C50_2 1_555 1_555
C76_3 C51_3 1_555 1_555
H51_2 C75_2 1_555 1_555
H52_3 C76_3 1_555 1_555
Cd2_2 N5_3 1_555 1_555
N5_3 C16_3 1_555 1_555
N13_3 C16_3 1_555 1_555
N14_2 C17_2 1_555 1_555
C17_2 N9 1_555 1_555
C21_3 N5_3 1_555 1_555
C22_2 N9 1_555 1_555
C41_3 C46_3 1_555 1_555
C42_2 C47_2 1_555 1_555
C46_3 N13_3 1_555 1_555
C47_2 N14_2 1_555 1_555
C51_3 N13_3 1_555 1_555
C65_2 C66_3 1_555 1_555
C70_2 C75_2 1_555 1_555
C71_3 C76_3 1_555 1_555
N8_2 Cd2_2 1_555 1_555
N9_2 Cd2_2 1_555 1_555
N10_2 Cd2_2 1_555 1_555
C1_3 H1_3 1_555 1_555
C2_3 C3_3 1_555 1_555
C3_3 H2_3 1_555 1_555
C4_3 C3_3 1_555 1_555
H3_3 C4_3 1_555 1_555
C5_3 C4_3 1_555 1_555
H4_3 C5_3 1_555 1_555
C6_3 C5_3 1_555 1_555
H5_3 C6_3 1_555 1_555
C7_3 C2_3 1_555 1_555
C8_3 C9_3 1_555 1_555
C9_3 H6_3 1_555 1_555
C10_3 C9_3 1_555 1_555
C11_3 C10_3 1_555 1_555
C12_3 C11_3 1_555 1_555
C13_3 C8_3 1_555 1_555
H9_3 C13_3 1_555 1_555
N8_2 C1_3 1_555 1_555
N2_3 C1_3 1_555 1_555
C15_3 H11_3 1_555 1_555
C17_3 H13_3 1_555 1_555
C20_3 C25_3 1_555 1_555
C22_3 C27_3 1_555 1_555
C25_3 H16_3 1_555 1_555
C27_3 H18_3 1_555 1_555
C30_3 C25_3 1_555 1_555
C32_3 C27_3 1_555 1_555
H21_3 C30_3 1_555 1_555
H23_3 C32_3 1_555 1_555
C35_3 C30_3 1_555 1_555
C37_3 C32_3 1_555 1_555
H26_3 C35_3 1_555 1_555
H28_3 C37_3 1_555 1_555
C40_3 C35_3 1_555 1_555
C42_3 C37_3 1_555 1_555
H31_3 C40_3 1_555 1_555
H33_3 C42_3 1_555 1_555
C45_3 C20_3 1_555 1_555
C47_3 C22_3 1_555 1_555
C50_3 C55_3 1_555 1_555
C52_3 C57_3 1_555 1_555
C55_3 H36_3 1_555 1_555
C57_3 H38_3 1_555 1_555
C60_3 C55_3 1_555 1_555
C62_3 C57_3 1_555 1_555
C65_3 C60_3 1_555 1_555
C67_3 C62_3 1_555 1_555
C70_3 C65_3 1_555 1_555
C72_3 C67_3 1_555 1_555
H48_3 C72_3 1_555 1_555
C75_3 C50_3 1_555 1_555
C77_3 C52_3 1_555 1_555
H51_3 C75_3 1_555 1_555
H53_3 C77_3 1_555 1_555
N12_3 C15_3 1_555 1_555
N14_3 C17_3 1_555 1_555
C2_3 N8_2 1_555 1_555
C6_3 C7_3 1_555 1_555
C7_3 N2_3 1_555 1_555
C8_3 N2_3 1_555 1_555
C12_3 C13_3 1_555 1_555
C15_3 N10_2 1_555 1_555
C17_3 N9_2 1_555 1_555
C20_3 N10_2 1_555 1_555
C22_3 N9_2 1_555 1_555
C40_3 C45_3 1_555 1_555
C42_3 C47_3 1_555 1_555
C45_3 N12_3 1_555 1_555
C47_3 N14_3 1_555 1_555
C50_3 N12_3 1_555 1_555
C52_3 N14_3 1_555 1_555
C70_3 C75_3 1_555 1_555
C72_3 C77_3 1_555 1_555
Cl1 O1 1_555 1_555
O2 Cl1 1_555 1_555
O2_2 Cl1_2 1_555 1_555
O2_3 Cl1_3 1_555 1_555
O3 Cl1_3 1_555 1_555
O2_4 Cl1_4 1_555 1_555
O4 Cl1_4 1_555 1_555
Cl1_5 O1_2 1_555 1_555
O2_5 Cl1_5 1_555 1_555
O2_6 Cl1_6 1_555 1_555
O3_2 Cl1_6 1_555 1_555
O2_7 Cl1_7 1_555 1_555
O2_8 Cl1_8 1_555 1_555
O4_2 Cl1_8 1_555 1_555
Cl1_9 O1_3 1_555 1_555
O2_9 Cl1_9 1_555 1_555
O3_3 Cl1_9 1_555 1_555
O4_3 Cl1_9 1_555 1_555
Cl1_10 O1_4 1_555 1_555
O3_4 Cl1_10 1_555 1_555
O4_4 Cl1_10 1_555 1_555
Cl1_11 O1_5 1_555 1_555
O3_5 Cl1_11 1_555 1_555
O4_5 Cl1_11 1_555 1_555
Cl1_12 O1_6 1_555 1_555
O2_12 Cl1_12 1_555 1_555
O3_6 Cl1_12 1_555 1_555
O4_6 Cl1_12 1_555 1_555

#END
