
###############################################################################
#
# This file contains modified crystal structure data generated from the
# MOF subset of the Cambridge Structural Database (CSD) v543 
# hosted by the Cambridge Crystallographic Data Centre (CCDC).
#
# This work is licensed under the Creative Commons
# Attribution-NonCommercial-ShareAlike 4.0 International License.
# To view a copy of this license, visit
# http://creativecommons.org/licenses/by-nc-sa/4.0/
# or send a letter to
# Creative Commons, PO Box 1866, Mountain View, CA 94042, USA.
#
# CIF created using the CSD Python API on 29 September 2022
# The structure has been converted into the P1 space group
# The structure has a 3D framework
# The original CSD entry HUZGOZ is in the monoclinic crystal system
# The framework has been calculated to contain at least 10.0% void space
# The void calculation uses a probe of radius 1.32A, grid spacing 0.4
#
###############################################################################

data_HUZGOZ
_chemical_formula_moiety         '(C136 H112 Cd2 N16 O16)n'
_symmetry_cell_setting           triclinic
_symmetry_space_group_name_H-M   'P 1'
_symmetry_Int_Tables_number      1
_space_group_name_Hall           'P 1'
loop_
_symmetry_equiv_pos_site_id
_symmetry_equiv_pos_as_xyz
1 x,y,z
_cell_length_a                   16.8292(8)
_cell_length_b                   14.5542(8)
_cell_length_c                   16.0123(9)
_cell_angle_alpha                90
_cell_angle_beta                 114.432(1)
_cell_angle_gamma                90
_cell_volume                     3570.78
loop_
_atom_site_label
_atom_site_type_symbol
_atom_site_fract_x
_atom_site_fract_y
_atom_site_fract_z
C5 C 0.5795(3) 0.0076(4) 0.1715(4)
C6 C 0.6066(4) 0.0887(5) 0.1468(5)
H6 H 0.6656 0.1038 0.1740
C7 C 0.5498(5) 0.1474(5) 0.0838(5)
H7 H 0.5708 0.2021 0.0706
C8 C 0.4339(3) 0.0474(3) 0.0637(3)
C9 C 0.4616(4) 0.1275(4) 0.0392(4)
C11 C 0.2207(4) 0.0919(4) 0.0195(4)
C12 C 0.2607(4) 0.1529(5) 0.0909(4)
H11 H 0.3190 0.1681 0.1079
C13 C 0.2166(4) 0.1913(4) 0.1371(4)
H12 H 0.2449 0.2319 0.1851
C14 C 0.1287(4) 0.1693(4) 0.1120(4)
C15 C 0.0880(4) 0.1117(4) 0.0394(5)
H13 H 0.0289 0.0990 0.0204
C17 C 0.0803(4) 0.2113(4) 0.1617(5)
N2 N 0.3531(3) 0.0078(3) 0.0344(3)
O1 O 0.1204(3) 0.2684(3) 0.2250(3)
O2 O 0.0026(3) 0.1913(3) 0.1399(4)
Cd2 Cd 0.0000 0.30505(3) 0.2500
Cd1 Cd 0.5000 0.80505(3) 0.2500
C1 C 0.3615(3) 0.9283(3) 0.0818(3)
C2 C 0.2891(3) 0.8641(3) 0.0684(3)
H1 H 0.2343 0.8975 0.0432
H2 H 0.2964 0.8393 0.1273
C3 C 0.2852(3) 0.7851(3) 0.0039(4)
H4 H 0.3415 0.7546 0.0266
C4 C 0.4909(3) 0.9882(3) 0.1288(3)
H5 H 0.6185 0.9679 0.2145
N1 N 0.4438(2) 0.9133(2) 0.1392(3)
H17 H 0.2267 0.6905 0.0564
H22 H 0.0769 0.3335 0.0051
C27 C 0.2291(4) 0.4520(4) 0.0290(4)
H23 H 0.2648 0.4996 0.0697
H24 H 0.2173 0.4061 0.0662
C33 C 0.3669(4) 0.4277(5) 0.0063(5)
H28 H 0.3954 0.4678 0.0548
N4 N 0.5562(2) 0.9133(2) 0.3608(3)
O4 O 0.6204(3) 0.7684(3) 0.2250(3)
O5 O 0.3796(3) 0.7684(3) 0.2750(3)
O7 O 0.5026(3) 0.6913(3) 0.1399(4)
O8 O 0.4974(3) 0.6913(3) 0.3601(4)
H3 H 0.2733 0.8095 0.9436
Cd3 Cd 0.0000 0.69495(3) 0.7500
Cd4 Cd 0.5000 0.19495(3) 0.7500
C18 C 0.1385(3) 0.5717(3) 0.9182(3)
C19 C 0.2109(3) 0.6359(3) 0.9316(3)
H15 H 0.2657 0.6025 0.9568
H16 H 0.2036 0.6607 0.8727
C20 C 0.2148(3) 0.7149(3) 0.9961(4)
H18 H 0.1585 0.7454 0.9734
C21 C 0.0091(3) 0.5118(3) 0.8712(3)
C25 C 0.0661(3) 0.4526(3) 0.9363(3)
C26 C 0.0384(4) 0.3725(4) 0.9608(4)
C28 C 0.2793(4) 0.4081(4) 0.9805(4)
C29 C 0.2393(4) 0.3471(5) 0.9091(4)
H25 H 0.1810 0.3319 0.8921
C30 C 0.2834(4) 0.3087(4) 0.8629(4)
H26 H 0.2551 0.2681 0.8149
C31 C 0.3713(4) 0.3307(4) 0.8880(4)
C32 C 0.4120(4) 0.3883(4) 0.9606(5)
H27 H 0.4711 0.4010 0.9796
C34 C 0.4197(4) 0.2887(4) 0.8383(5)
N3 N 0.0562(2) 0.5867(2) 0.8608(3)
N5 N 0.1469(3) 0.4922(3) 0.9656(3)
O3 O 0.3796(3) 0.2316(3) 0.7750(3)
O6 O 0.4974(3) 0.3087(3) 0.8601(4)
Cd2_2 Cd 1.0000 0.30505(3) 0.2500
Cd3_2 Cd 1.0000 0.69495(3) 0.7500
C22 C 0.9205(3) 0.4924(4) 0.8285(4)
H19 H 0.8815 0.5321 0.7855
C23 C 0.8934(4) 0.4113(5) 0.8532(5)
H20 H 0.8344 0.3962 0.8260
C24 C 0.9502(5) 0.3526(5) 0.9162(5)
H21 H 0.9292 0.2979 0.9294
C22_2 C 0.0795(3) 0.4924(4) 0.6715(4)
H19_2 H 0.1185 0.5321 0.7145
C23_2 C 0.1066(4) 0.4113(5) 0.6468(5)
H20_2 H 0.1656 0.3962 0.6740
C24_2 C 0.0498(5) 0.3526(5) 0.5838(5)
H21_2 H 0.0708 0.2979 0.5706
C5_2 C 0.4205(3) 0.0076(4) 0.3285(4)
C6_2 C 0.3934(4) 0.0887(5) 0.3532(5)
H6_2 H 0.3344 0.1038 0.3260
C7_2 C 0.4502(5) 0.1474(5) 0.4162(5)
H7_2 H 0.4292 0.2021 0.4294
C8_2 C 0.5661(3) 0.0474(3) 0.4363(3)
C9_2 C 0.5384(4) 0.1275(4) 0.4608(4)
H8 H 0.5769 0.1665 0.5051
C10 C 0.7291(4) 0.0480(4) 0.5290(4)
H9 H 0.7648 0.0004 0.5697
H10 H 0.7173 0.0939 0.5662
C11_2 C 0.7793(4) 0.0919(4) 0.4805(4)
C12_2 C 0.7393(4) 0.1529(5) 0.4091(4)
H11_2 H 0.6810 0.1681 0.3921
C13_2 C 0.7834(4) 0.1913(4) 0.3629(4)
H12_2 H 0.7551 0.2319 0.3149
C14_2 C 0.8713(4) 0.1693(4) 0.3880(4)
C15_2 C 0.9120(4) 0.1117(4) 0.4606(5)
H13_2 H 0.9711 0.0990 0.4796
C16 C 0.8669(4) 0.0723(5) 0.5063(5)
H14 H 0.8954 0.0322 0.5548
C17_2 C 0.9197(4) 0.2113(4) 0.3383(5)
N2_2 N 0.6469(3) 0.0078(3) 0.4656(3)
O1_2 O 0.8796(3) 0.2684(3) 0.2750(3)
O2_2 O 0.9974(3) 0.1913(3) 0.3601(4)
C1_2 C 0.6385(3) 0.9283(3) 0.4182(3)
C2_2 C 0.7109(3) 0.8641(3) 0.4316(3)
H1_2 H 0.7657 0.8975 0.4568
H2_2 H 0.7036 0.8393 0.3727
C3_2 C 0.7148(3) 0.7851(3) 0.4961(4)
H3_2 H 0.7267 0.8095 0.5564
H4_2 H 0.6585 0.7546 0.4734
C4_2 C 0.5091(3) 0.9882(3) 0.3712(3)
H5_2 H 0.3815 0.9679 0.2855
C18_2 C 0.8615(3) 0.5717(3) 0.5818(3)
C19_2 C 0.7891(3) 0.6359(3) 0.5684(3)
H15_2 H 0.7343 0.6025 0.5432
H16_2 H 0.7964 0.6607 0.6273
C20_2 C 0.7852(3) 0.7149(3) 0.5039(4)
H17_2 H 0.7733 0.6905 0.4436
H18_2 H 0.8415 0.7454 0.5266
C21_2 C 0.9909(3) 0.5118(3) 0.6288(3)
C25_2 C 0.9339(3) 0.4526(3) 0.5637(3)
C26_2 C 0.9616(4) 0.3725(4) 0.5392(4)
H22_2 H 0.9231 0.3335 0.4949
C27_2 C 0.7709(4) 0.4520(4) 0.4710(4)
H23_2 H 0.7352 0.4996 0.4303
H24_2 H 0.7827 0.4061 0.4338
C28_2 C 0.7207(4) 0.4081(4) 0.5195(4)
C29_2 C 0.7607(4) 0.3471(5) 0.5909(4)
H25_2 H 0.8190 0.3319 0.6079
C30_2 C 0.7166(4) 0.3087(4) 0.6371(4)
H26_2 H 0.7449 0.2681 0.6851
C31_2 C 0.6287(4) 0.3307(4) 0.6120(4)
C32_2 C 0.5880(4) 0.3883(4) 0.5394(5)
H27_2 H 0.5289 0.4010 0.5204
C33_2 C 0.6331(4) 0.4277(5) 0.4937(5)
H28_2 H 0.6046 0.4678 0.4452
C34_2 C 0.5803(4) 0.2887(4) 0.6617(5)
N3_2 N 0.9438(2) 0.5867(2) 0.6392(3)
N5_2 N 0.8531(3) 0.4922(3) 0.5344(3)
O3_2 O 0.6204(3) 0.2316(3) 0.7250(3)
O6_2 O 0.5026(3) 0.3087(3) 0.6399(4)
C5_3 C 0.0795(3) 0.5076(4) 0.1715(4)
H5_3 H 0.1185 0.4679 0.2145
C6_3 C 0.1066(4) 0.5887(5) 0.1468(5)
H6_3 H 0.1656 0.6038 0.1740
C7_3 C 0.0498(5) 0.6474(5) 0.0838(5)
H7_3 H 0.0708 0.7021 0.0706
N4_2 N 0.0562(2) 0.4133(2) 0.3608(3)
C1_3 C 0.8615(3) 0.4283(3) 0.0818(3)
C2_3 C 0.7891(3) 0.3641(3) 0.0684(3)
H1_3 H 0.7343 0.3975 0.0432
H2_3 H 0.7964 0.3393 0.1273
C3_3 C 0.7852(3) 0.2851(3) 0.0039(4)
H4_3 H 0.8415 0.2546 0.0266
C4_3 C 0.9909(3) 0.4882(3) 0.1288(3)
C8_3 C 0.9339(3) 0.5474(3) 0.0637(3)
C9_3 C 0.9616(4) 0.6275(4) 0.0392(4)
C11_3 C 0.7207(4) 0.5919(4) 0.0195(4)
C12_3 C 0.7607(4) 0.6529(5) 0.0909(4)
H11_3 H 0.8190 0.6681 0.1079
C13_3 C 0.7166(4) 0.6913(4) 0.1371(4)
H12_3 H 0.7449 0.7319 0.1851
C14_3 C 0.6287(4) 0.6693(4) 0.1120(4)
C15_3 C 0.5880(4) 0.6117(4) 0.0394(5)
H13_3 H 0.5289 0.5990 0.0204
C17_3 C 0.5803(4) 0.7113(4) 0.1617(5)
N1_2 N 0.9438(2) 0.4133(2) 0.1392(3)
N2_3 N 0.8531(3) 0.5078(3) 0.0344(3)
H17_3 H 0.7267 0.1905 0.0564
H3_3 H 0.7733 0.3095 0.9436
H8_2 H 0.9231 0.6665 0.9949
C10_2 C 0.7709(4) 0.5480(4) 0.9710(4)
H9_2 H 0.7352 0.5004 0.9303
H10_2 H 0.7827 0.5939 0.9338
C16_2 C 0.6331(4) 0.5723(5) 0.9937(5)
H14_2 H 0.6046 0.5322 0.9452
C18_3 C 0.6385(3) 0.0717(3) 0.9182(3)
C19_3 C 0.7109(3) 0.1359(3) 0.9316(3)
H15_3 H 0.7657 0.1025 0.9568
H16_3 H 0.7036 0.1607 0.8727
C20_3 C 0.7148(3) 0.2149(3) 0.9961(4)
H18_3 H 0.6585 0.2454 0.9734
C21_3 C 0.5091(3) 0.0118(3) 0.8712(3)
H19_3 H 0.3815 0.0321 0.7855
N3_3 N 0.5562(2) 0.0867(2) 0.8608(3)
C22_3 C 0.4205(3) 0.9924(4) 0.8285(4)
C23_3 C 0.3934(4) 0.9113(5) 0.8532(5)
H20_3 H 0.3344 0.8962 0.8260
C24_3 C 0.4502(5) 0.8526(5) 0.9162(5)
H21_3 H 0.4292 0.7979 0.9294
C25_3 C 0.5661(3) 0.9526(3) 0.9363(3)
C26_3 C 0.5384(4) 0.8725(4) 0.9608(4)
C28_3 C 0.7793(4) 0.9081(4) 0.9805(4)
C29_3 C 0.7393(4) 0.8471(5) 0.9091(4)
H25_3 H 0.6810 0.8319 0.8921
C30_3 C 0.7834(4) 0.8087(4) 0.8629(4)
H26_3 H 0.7551 0.7681 0.8149
C31_3 C 0.8713(4) 0.8307(4) 0.8880(4)
C32_3 C 0.9120(4) 0.8883(4) 0.9606(5)
H27_3 H 0.9711 0.9010 0.9796
C34_3 C 0.9197(4) 0.7887(4) 0.8383(5)
N5_3 N 0.6469(3) 0.9922(3) 0.9656(3)
O3_3 O 0.8796(3) 0.7316(3) 0.7750(3)
O6_3 O 0.9974(3) 0.8087(3) 0.8601(4)
C1_4 C 0.1385(3) 0.4283(3) 0.4182(3)
C2_4 C 0.2109(3) 0.3641(3) 0.4316(3)
H1_4 H 0.2657 0.3975 0.4568
H2_4 H 0.2036 0.3393 0.3727
C3_4 C 0.2148(3) 0.2851(3) 0.4961(4)
H3_4 H 0.2267 0.3095 0.5564
H4_4 H 0.1585 0.2546 0.4734
C4_4 C 0.0091(3) 0.4882(3) 0.3712(3)
C8_4 C 0.0661(3) 0.5474(3) 0.4363(3)
C9_4 C 0.0384(4) 0.6275(4) 0.4608(4)
H8_3 H 0.0769 0.6665 0.5051
C10_3 C 0.2291(4) 0.5480(4) 0.5290(4)
H9_3 H 0.2648 0.5004 0.5697
H10_3 H 0.2173 0.5939 0.5662
C11_4 C 0.2793(4) 0.5919(4) 0.4805(4)
C12_4 C 0.2393(4) 0.6529(5) 0.4091(4)
H11_4 H 0.1810 0.6681 0.3921
C13_4 C 0.2834(4) 0.6913(4) 0.3629(4)
H12_4 H 0.2551 0.7319 0.3149
C14_4 C 0.3713(4) 0.6693(4) 0.3880(4)
C15_4 C 0.4120(4) 0.6117(4) 0.4606(5)
H13_4 H 0.4711 0.5990 0.4796
C16_3 C 0.3669(4) 0.5723(5) 0.5063(5)
H14_3 H 0.3954 0.5322 0.5548
C17_4 C 0.4197(4) 0.7113(4) 0.3383(5)
N2_4 N 0.1469(3) 0.5078(3) 0.4656(3)
C18_4 C 0.3615(3) 0.0717(3) 0.5818(3)
C19_4 C 0.2891(3) 0.1359(3) 0.5684(3)
H15_4 H 0.2343 0.1025 0.5432
H16_4 H 0.2964 0.1607 0.6273
C20_4 C 0.2852(3) 0.2149(3) 0.5039(4)
H17_4 H 0.2733 0.1905 0.4436
H18_4 H 0.3415 0.2454 0.5266
C21_4 C 0.4909(3) 0.0118(3) 0.6288(3)
H19_4 H 0.6185 0.0321 0.7145
N3_4 N 0.4438(2) 0.0867(2) 0.6392(3)
C22_4 C 0.5795(3) 0.9924(4) 0.6715(4)
C23_4 C 0.6066(4) 0.9113(5) 0.6468(5)
H20_4 H 0.6656 0.8962 0.6740
C24_4 C 0.5498(5) 0.8526(5) 0.5838(5)
H21_4 H 0.5708 0.7979 0.5706
C25_4 C 0.4339(3) 0.9526(3) 0.5637(3)
C26_4 C 0.4616(4) 0.8725(4) 0.5392(4)
H22_3 H 0.4231 0.8335 0.4949
C27_3 C 0.2709(4) 0.9520(4) 0.4710(4)
H23_3 H 0.2352 0.9996 0.4303
H24_3 H 0.2827 0.9061 0.4338
C28_4 C 0.2207(4) 0.9081(4) 0.5195(4)
C29_4 C 0.2607(4) 0.8471(5) 0.5909(4)
H25_4 H 0.3190 0.8319 0.6079
C30_4 C 0.2166(4) 0.8087(4) 0.6371(4)
H26_4 H 0.2449 0.7681 0.6851
C31_4 C 0.1287(4) 0.8307(4) 0.6120(4)
C32_4 C 0.0880(4) 0.8883(4) 0.5394(5)
H27_4 H 0.0289 0.9010 0.5204
C33_3 C 0.1331(4) 0.9277(5) 0.4937(5)
H28_3 H 0.1046 0.9678 0.4452
C34_4 C 0.0803(4) 0.7887(4) 0.6617(5)
N5_4 N 0.3531(3) 0.9922(3) 0.5344(3)
O3_4 O 0.1204(3) 0.7316(3) 0.7250(3)
O6_4 O 0.0026(3) 0.8087(3) 0.6399(4)
C5_4 C 0.9205(3) 0.5076(4) 0.3285(4)
H5_4 H 0.8815 0.4679 0.2855
C6_4 C 0.8934(4) 0.5887(5) 0.3532(5)
H6_4 H 0.8344 0.6038 0.3260
C7_4 C 0.9502(5) 0.6474(5) 0.4162(5)
H7_4 H 0.9292 0.7021 0.4294
H8_4 H 0.4231 0.1665 0.9949
C10_4 C 0.2709(4) 0.0480(4) 0.9710(4)
H9_4 H 0.2352 0.0004 0.9303
H10_4 H 0.2827 0.0939 0.9338
C16_4 C 0.1331(4) 0.0723(5) 0.9937(5)
H14_4 H 0.1046 0.0322 0.9452
H22_4 H 0.5769 0.8335 0.0051
C27_4 C 0.7291(4) 0.9520(4) 0.0290(4)
H23_4 H 0.7648 0.9996 0.0697
H24_4 H 0.7173 0.9061 0.0662
C33_4 C 0.8669(4) 0.9277(5) 0.0063(5)
H28_4 H 0.8954 0.9678 0.0548
loop_
_geom_bond_atom_site_label_1
_geom_bond_atom_site_label_2
_geom_bond_site_symmetry_1
_geom_bond_site_symmetry_2
C6 C5 1_555 1_555
H6 C6 1_555 1_555
C7 C6 1_555 1_555
H7 C7 1_555 1_555
C9 C7 1_555 1_555
C12 C11 1_555 1_555
H11 C12 1_555 1_555
C13 C12 1_555 1_555
H12 C13 1_555 1_555
C14 C13 1_555 1_555
C15 C14 1_555 1_555
H13 C15 1_555 1_555
C17 C14 1_555 1_555
O1 C17 1_555 1_555
O2 C17 1_555 1_555
Cd2 O1 1_555 1_555
C8 C9 1_555 1_555
C8 N2 1_555 1_555
O2 Cd2 1_555 1_555
Cd1 N1 1_555 1_555
C1 C2 1_555 1_555
C2 H1 1_555 1_555
H2 C2 1_555 1_555
C3 C2 1_555 1_555
H4 C3 1_555 1_555
N1 C1 1_555 1_555
C27 H23 1_555 1_555
H24 C27 1_555 1_555
H28 C33 1_555 1_555
N4 Cd1 1_555 1_555
O4 Cd1 1_555 1_555
O5 Cd1 1_555 1_555
O7 Cd1 1_555 1_555
O8 Cd1 1_555 1_555
C4 N1 1_555 1_555
Cd3 N3 1_555 1_555
Cd4 O3 1_555 1_555
C18 C19 1_555 1_555
C19 H15 1_555 1_555
H16 C19 1_555 1_555
H18 C20 1_555 1_555
C25 C21 1_555 1_555
C29 C28 1_555 1_555
H25 C29 1_555 1_555
C30 C29 1_555 1_555
H26 C30 1_555 1_555
C31 C30 1_555 1_555
C32 C31 1_555 1_555
H27 C32 1_555 1_555
C34 C31 1_555 1_555
N3 C18 1_555 1_555
N5 C18 1_555 1_555
O3 C34 1_555 1_555
O6 Cd4 1_555 1_555
C19 C20 1_555 1_555
C21 N3 1_555 1_555
C25 C26 1_555 1_555
C25 N5 1_555 1_555
C34 O6 1_555 1_555
C22 H19 1_555 1_555
C23 C22 1_555 1_555
H20 C23 1_555 1_555
C24 C23 1_555 1_555
H21 C24 1_555 1_555
C22_2 H19_2 1_555 1_555
C23_2 C22_2 1_555 1_555
H20_2 C23_2 1_555 1_555
C24_2 C23_2 1_555 1_555
H21_2 C24_2 1_555 1_555
C6_2 C5_2 1_555 1_555
H6_2 C6_2 1_555 1_555
C7_2 C6_2 1_555 1_555
H7_2 C7_2 1_555 1_555
C9_2 C7_2 1_555 1_555
H8 C9_2 1_555 1_555
C10 H9 1_555 1_555
H10 C10 1_555 1_555
C11_2 C10 1_555 1_555
C12_2 C11_2 1_555 1_555
H11_2 C12_2 1_555 1_555
C13_2 C12_2 1_555 1_555
H12_2 C13_2 1_555 1_555
C14_2 C13_2 1_555 1_555
C15_2 C14_2 1_555 1_555
H13_2 C15_2 1_555 1_555
C16 C11_2 1_555 1_555
H14 C16 1_555 1_555
C17_2 C14_2 1_555 1_555
O1_2 C17_2 1_555 1_555
O2_2 C17_2 1_555 1_555
Cd2_2 O1_2 1_555 1_555
C8_2 C9_2 1_555 1_555
C8_2 N2_2 1_555 1_555
C10 N2_2 1_555 1_555
C15_2 C16 1_555 1_555
O2_2 Cd2_2 1_555 1_555
C1_2 C2_2 1_555 1_555
C2_2 H1_2 1_555 1_555
H2_2 C2_2 1_555 1_555
C3_2 C2_2 1_555 1_555
H3_2 C3_2 1_555 1_555
H4_2 C3_2 1_555 1_555
N4 C1_2 1_555 1_555
Cd3_2 N3_2 1_555 1_555
Cd4 O3_2 1_555 1_555
C18_2 C19_2 1_555 1_555
C19_2 H15_2 1_555 1_555
H16_2 C19_2 1_555 1_555
C20_2 C3_2 1_555 1_555
H17_2 C20_2 1_555 1_555
H18_2 C20_2 1_555 1_555
C25_2 C21_2 1_555 1_555
H22_2 C26_2 1_555 1_555
C27_2 H23_2 1_555 1_555
H24_2 C27_2 1_555 1_555
C28_2 C27_2 1_555 1_555
C29_2 C28_2 1_555 1_555
H25_2 C29_2 1_555 1_555
C30_2 C29_2 1_555 1_555
H26_2 C30_2 1_555 1_555
C31_2 C30_2 1_555 1_555
C32_2 C31_2 1_555 1_555
H27_2 C32_2 1_555 1_555
C33_2 C28_2 1_555 1_555
H28_2 C33_2 1_555 1_555
C34_2 C31_2 1_555 1_555
N3_2 C18_2 1_555 1_555
N5_2 C18_2 1_555 1_555
O3_2 C34_2 1_555 1_555
O6_2 Cd4 1_555 1_555
C4_2 N4 1_555 1_555
C19_2 C20_2 1_555 1_555
C21_2 N3_2 1_555 1_555
C25_2 C26_2 1_555 1_555
C25_2 N5_2 1_555 1_555
C27_2 N5_2 1_555 1_555
C32_2 C33_2 1_555 1_555
C34_2 O6_2 1_555 1_555
C5_3 H5_3 1_555 1_555
C6_3 C5_3 1_555 1_555
H6_3 C6_3 1_555 1_555
C7_3 C6_3 1_555 1_555
H7_3 C7_3 1_555 1_555
N4_2 Cd2 1_555 1_555
Cd2_2 N1_2 1_555 1_555
C1_3 C2_3 1_555 1_555
C2_3 H1_3 1_555 1_555
H2_3 C2_3 1_555 1_555
C3_3 C2_3 1_555 1_555
H4_3 C3_3 1_555 1_555
C8_3 C4_3 1_555 1_555
C12_3 C11_3 1_555 1_555
H11_3 C12_3 1_555 1_555
C13_3 C12_3 1_555 1_555
H12_3 C13_3 1_555 1_555
C14_3 C13_3 1_555 1_555
C15_3 C14_3 1_555 1_555
H13_3 C15_3 1_555 1_555
C17_3 C14_3 1_555 1_555
N1_2 C1_3 1_555 1_555
N2_3 C1_3 1_555 1_555
O4 C17_3 1_555 1_555
O7 C17_3 1_555 1_555
C4_3 N1_2 1_555 1_555
C8_3 C9_3 1_555 1_555
C8_3 N2_3 1_555 1_555
C10_2 H9_2 1_555 1_555
H10_2 C10_2 1_555 1_555
H14_2 C16_2 1_555 1_555
Cd4 N3_3 1_555 1_555
C18_3 C19_3 1_555 1_555
C19_3 H15_3 1_555 1_555
H16_3 C19_3 1_555 1_555
H18_3 C20_3 1_555 1_555
N3_3 C18_3 1_555 1_555
C19_3 C20_3 1_555 1_555
C21_3 N3_3 1_555 1_555
Cd3_2 O3_3 1_555 1_555
C23_3 C22_3 1_555 1_555
H20_3 C23_3 1_555 1_555
C24_3 C23_3 1_555 1_555
H21_3 C24_3 1_555 1_555
C26_3 C24_3 1_555 1_555
C29_3 C28_3 1_555 1_555
H25_3 C29_3 1_555 1_555
C30_3 C29_3 1_555 1_555
H26_3 C30_3 1_555 1_555
C31_3 C30_3 1_555 1_555
C32_3 C31_3 1_555 1_555
H27_3 C32_3 1_555 1_555
C34_3 C31_3 1_555 1_555
O3_3 C34_3 1_555 1_555
O6_3 Cd3_2 1_555 1_555
C25_3 C26_3 1_555 1_555
C25_3 N5_3 1_555 1_555
C34_3 O6_3 1_555 1_555
C1_4 C2_4 1_555 1_555
C2_4 H1_4 1_555 1_555
H2_4 C2_4 1_555 1_555
C3_4 C2_4 1_555 1_555
H3_4 C3_4 1_555 1_555
H4_4 C3_4 1_555 1_555
C8_4 C4_4 1_555 1_555
H8_3 C9_4 1_555 1_555
C10_3 H9_3 1_555 1_555
H10_3 C10_3 1_555 1_555
C11_4 C10_3 1_555 1_555
C12_4 C11_4 1_555 1_555
H11_4 C12_4 1_555 1_555
C13_4 C12_4 1_555 1_555
H12_4 C13_4 1_555 1_555
C14_4 C13_4 1_555 1_555
C15_4 C14_4 1_555 1_555
H13_4 C15_4 1_555 1_555
C16_3 C11_4 1_555 1_555
H14_3 C16_3 1_555 1_555
C17_4 C14_4 1_555 1_555
N4_2 C1_4 1_555 1_555
N2_4 C1_4 1_555 1_555
O5 C17_4 1_555 1_555
O8 C17_4 1_555 1_555
Cd4 N3_4 1_555 1_555
C18_4 C19_4 1_555 1_555
C19_4 H15_4 1_555 1_555
H16_4 C19_4 1_555 1_555
C20_4 C3_4 1_555 1_555
H17_4 C20_4 1_555 1_555
H18_4 C20_4 1_555 1_555
N3_4 C18_4 1_555 1_555
C4_4 N4_2 1_555 1_555
C8_4 C9_4 1_555 1_555
C8_4 N2_4 1_555 1_555
C10_3 N2_4 1_555 1_555
C15_4 C16_3 1_555 1_555
C19_4 C20_4 1_555 1_555
C21_4 N3_4 1_555 1_555
Cd3 O3_4 1_555 1_555
C23_4 C22_4 1_555 1_555
H20_4 C23_4 1_555 1_555
C24_4 C23_4 1_555 1_555
H21_4 C24_4 1_555 1_555
C26_4 C24_4 1_555 1_555
H22_3 C26_4 1_555 1_555
C27_3 H23_3 1_555 1_555
H24_3 C27_3 1_555 1_555
C28_4 C27_3 1_555 1_555
C29_4 C28_4 1_555 1_555
H25_4 C29_4 1_555 1_555
C30_4 C29_4 1_555 1_555
H26_4 C30_4 1_555 1_555
C31_4 C30_4 1_555 1_555
C32_4 C31_4 1_555 1_555
H27_4 C32_4 1_555 1_555
C33_3 C28_4 1_555 1_555
H28_3 C33_3 1_555 1_555
C34_4 C31_4 1_555 1_555
O3_4 C34_4 1_555 1_555
O6_4 Cd3 1_555 1_555
C25_4 C26_4 1_555 1_555
C25_4 N5_4 1_555 1_555
C27_3 N5_4 1_555 1_555
C32_4 C33_3 1_555 1_555
C34_4 O6_4 1_555 1_555
C5_4 H5_4 1_555 1_555
C6_4 C5_4 1_555 1_555
H6_4 C6_4 1_555 1_555
C7_4 C6_4 1_555 1_555
H7_4 C7_4 1_555 1_555
C10_4 H9_4 1_555 1_555
H10_4 C10_4 1_555 1_555
H14_4 C16_4 1_555 1_555
C27_4 H23_4 1_555 1_555
H24_4 C27_4 1_555 1_555
H28_4 C33_4 1_555 1_555

#END
