
###############################################################################
#
# This file contains modified crystal structure data generated from the
# MOF subset of the Cambridge Structural Database (CSD) v543 
# hosted by the Cambridge Crystallographic Data Centre (CCDC).
#
# This work is licensed under the Creative Commons
# Attribution-NonCommercial-ShareAlike 4.0 International License.
# To view a copy of this license, visit
# http://creativecommons.org/licenses/by-nc-sa/4.0/
# or send a letter to
# Creative Commons, PO Box 1866, Mountain View, CA 94042, USA.
#
# CIF created using the CSD Python API on 29 September 2022
# The structure has been converted into the P1 space group
# The structure has a 3D framework
# The original CSD entry HUZHIW01 is in the monoclinic crystal system
# The framework has been calculated to contain at least 10.0% void space
# The void calculation uses a probe of radius 1.32A, grid spacing 0.4
#
###############################################################################

data_HUZHIW01
_chemical_formula_moiety         '(C268 H348 Co24 O50 P24 Se32 Zn10)n'
_symmetry_cell_setting           triclinic
_symmetry_space_group_name_H-M   'P 1'
_symmetry_Int_Tables_number      1
_space_group_name_Hall           'P 1'
loop_
_symmetry_equiv_pos_site_id
_symmetry_equiv_pos_as_xyz
1 x,y,z
_cell_length_a                   22.6974(10)
_cell_length_b                   17.9931(7)
_cell_length_c                   28.9694(14)
_cell_angle_alpha                90
_cell_angle_beta                 106.838(5)
_cell_angle_gamma                90
_cell_volume                     11323.8
loop_
_atom_site_label
_atom_site_type_symbol
_atom_site_fract_x
_atom_site_fract_y
_atom_site_fract_z
Zn1 Zn 0.6032(3) 0.2481(5) 0.0678(3)
Zn2 Zn 0.7288(3) 0.2507(5) 0.0128(3)
H21 H 0.404657 0.255628 0.006051
H23 H 0.359676 0.185537 0.000160
O13 O 0.5359(14) 0.259(2) 0.0925(9)
C67 C 0.5200(18) 0.237(3) 0.1350(10)
H85 H 0.478750 0.255202 0.133220
H86 H 0.520560 0.182507 0.137227
H87 H 0.549897 0.257658 0.163607
Zn6 Zn 0.2288(3) 0.7493(5) 0.0128(3)
O18 O 0.3678(6) 0.7258(13) 0.0356(8)
O19 O 0.6389(7) 0.1477(11) 0.0663(10)
O20 O 0.7332(7) 0.1520(10) 0.0494(8)
O21 O 0.7139(11) 0.3393(14) 0.0554(4)
O22 O 0.6644(7) 0.3137(12) 0.1127(7)
Se1 Se 0.2800(4) 0.3477(5) 0.8313(3)
Se2 Se 0.2605(3) 0.3878(4) 0.7194(2)
Se3 Se 0.3628(3) 0.2034(5) 0.8217(3)
Se4 Se 0.1585(2) 0.2437(5) 0.8019(2)
Se5 Se 0.2210(3) 0.1427(4) 0.6787(3)
Se6 Se 0.2409(3) 0.1009(4) 0.7929(2)
Se7 Se 0.1383(3) 0.2847(4) 0.6897(2)
Se8 Se 0.3416(2) 0.2440(5) 0.7079(2)
Co1 Co 0.1974(3) 0.3363(4) 0.7620(3)
P1 P 0.1425(4) 0.4324(5) 0.7636(4)
C1 C 0.1722(6) 0.4982(7) 0.8116(4)
C2 C 0.2258(6) 0.5374(8) 0.8144(5)
H1 H 0.247471 0.528903 0.791290
C3 C 0.2478(6) 0.5892(9) 0.8510(5)
H2 H 0.284492 0.616010 0.852859
C4 C 0.2162(7) 0.6016(8) 0.8847(5)
C5 C 0.1625(7) 0.5624(9) 0.8819(5)
H3 H 0.140852 0.570888 0.905026
C6 C 0.1405(6) 0.5106(8) 0.8454(5)
H4 H 0.103829 0.483782 0.843456
C7 C 0.2401(5) 0.6577(8) 0.9244(4)
O1 O 0.2896(7) 0.6909(11) 0.9241(9)
O2 O 0.2107(7) 0.6639(10) 0.9550(5)
C8 C 0.1465(9) 0.4939(10) 0.7134(6)
H5 H 0.185778 0.521831 0.722531
H6 H 0.144926 0.463753 0.684491
C9 C 0.0914(11) 0.5492(13) 0.7019(14)
H7 H 0.093394 0.581802 0.675322
H8 H 0.052639 0.521256 0.692596
H9 H 0.093387 0.579185 0.730539
C10 C 0.0605(6) 0.4285(9) 0.7542(13)
H10 H 0.050439 0.452292 0.781806
H11 H 0.039345 0.456698 0.724707
C11 C 0.0366(12) 0.3473(10) 0.749(2)
H13 H 0.045815 0.323936 0.721321
H14 H 0.056900 0.319533 0.778381
Co2 Co 0.2627(4) 0.2196(5) 0.8253(3)
P2 P 0.2781(5) 0.2007(6) 0.9011(3)
C12 C 0.2908(6) 0.1040(5) 0.9162(5)
C13 C 0.2509(8) 0.0656(6) 0.9361(8)
H15 H 0.217534 0.090949 0.942766
C17 C 0.3396(8) 0.0670(6) 0.9065(9)
H18 H 0.366950 0.093243 0.892908
C19 C 0.3545(7) 0.2364(15) 0.9338(5)
H19 H 0.386567 0.205068 0.926525
H20 H 0.359153 0.287638 0.922931
C20 C 0.3636(19) 0.236(3) 0.9893(5)
H22 H 0.332298 0.268000 0.996572
C21 C 0.2274(8) 0.2376(8) 0.9330(7)
H24 H 0.186610 0.213237 0.921267
H25 H 0.244283 0.226779 0.967824
C22 C 0.220(2) 0.3231(9) 0.9252(18)
H26 H 0.192089 0.342269 0.942794
H27 H 0.260100 0.347162 0.937222
H28 H 0.202518 0.333640 0.890738
Co3 Co 0.1734(4) 0.1788(5) 0.7368(3)
P3 P 0.0980(4) 0.1022(6) 0.7181(3)
C23 C 0.0428(5) 0.1257(10) 0.6616(3)
C27 C 0.0181(6) 0.1443(13) 0.5759(4)
H31 H 0.029346 0.141484 0.546772
C28 C 0.0593(6) 0.1215(13) 0.6191(4)
H32 H 0.098670 0.103181 0.619566
C30 C 0.1233(8) 0.0113(8) 0.7029(10)
H33 H 0.146855 0.017930 0.679261
C32 C 0.0531(7) 0.0814(13) 0.7590(5)
H38 H 0.042694 0.128057 0.773018
H39 H 0.014191 0.056574 0.741242
C33 C 0.0912(16) 0.0297(15) 0.7999(8)
H40 H 0.067093 0.018249 0.822131
H42 H 0.129412 0.054761 0.817476
Co4 Co 0.2380(4) 0.2709(5) 0.6843(3)
P4 P 0.2232(5) 0.2929(6) 0.6093(3)
C34 C 0.2131(6) 0.3902(5) 0.5940(6)
C35 C 0.2616(6) 0.4316(6) 0.5871(10)
H43 H 0.300016 0.408509 0.589738
C36 C 0.2537(7) 0.5069(6) 0.5764(10)
H44 H 0.286838 0.535279 0.571670
C37 C 0.1974(7) 0.5408(6) 0.5725(8)
C38 C 0.1490(6) 0.4993(6) 0.5794(10)
H45 H 0.110530 0.522451 0.576707
C39 C 0.1568(6) 0.4240(6) 0.5901(9)
H46 H 0.123706 0.395681 0.594774
C40 C 0.1891(5) 0.6226(7) 0.5617(6)
O7 O 0.1389(7) 0.6477(11) 0.5663(10)
O8 O 0.2332(7) 0.6520(10) 0.5494(8)
C41 C 0.2872(7) 0.2701(9) 0.5861(8)
H47 H 0.282136 0.295797 0.555006
H48 H 0.326189 0.287368 0.609095
C42 C 0.2903(18) 0.1844(9) 0.5788(17)
H49 H 0.324995 0.172814 0.566314
H50 H 0.295870 0.159147 0.609730
H51 H 0.251897 0.167561 0.555739
C43 C 0.1573(9) 0.2480(12) 0.5669(6)
H52 H 0.167059 0.195232 0.562794
H53 H 0.121335 0.249792 0.579645
C44 C 0.142(2) 0.2886(19) 0.5172(6)
H54 H 0.106296 0.264307 0.494517
H55 H 0.131603 0.340651 0.521311
H56 H 0.177224 0.286213 0.504498
Co5 Co 0.3276(4) 0.3091(5) 0.7736(3)
P5 P 0.4068(4) 0.3804(5) 0.7907(4)
C45 C 0.4675(5) 0.3472(9) 0.8415(4)
C46 C 0.5228(6) 0.3225(11) 0.8354(4)
H57 H 0.530713 0.328281 0.805152
C47 C 0.5666(6) 0.2894(13) 0.8737(5)
H58 H 0.604445 0.272527 0.869511
C48 C 0.5551(6) 0.2810(12) 0.9179(4)
C49 C 0.4998(6) 0.3057(12) 0.9240(4)
H59 H 0.491946 0.299895 0.954285
C50 C 0.4560(6) 0.3388(11) 0.8858(4)
H60 H 0.418213 0.355650 0.889928
C51 C 0.5993(5) 0.2395(10) 0.9587(4)
O9 O 0.6497(6) 0.2201(10) 0.9513(8)
O10 O 0.5803(9) 0.2309(16) 0.9954(5)
C52 C 0.4485(8) 0.3813(14) 0.7456(5)
H61 H 0.490061 0.402528 0.759850
H62 H 0.453365 0.329784 0.735284
C53 C 0.4131(18) 0.4285(13) 0.7011(6)
H63 H 0.435977 0.428490 0.677145
H64 H 0.372153 0.406990 0.686797
H65 H 0.408785 0.479608 0.711320
C54 C 0.3937(8) 0.4778(7) 0.8010(11)
H66 H 0.355453 0.494674 0.776927
H67 H 0.388214 0.483817 0.833451
C55 C 0.4485(10) 0.5264(11) 0.7970(9)
H68 H 0.440386 0.578563 0.802639
H69 H 0.486249 0.510185 0.821120
H70 H 0.453526 0.521030 0.764662
Co6 Co 0.3006(4) 0.1563(5) 0.7495(3)
P6 P 0.3564(4) 0.0625(5) 0.7431(4)
H74 H 0.360320 0.012119 0.650019
C63 C 0.3732(14) 0.0048(8) 0.7976(5)
H75 H 0.406744 0.027478 0.823542
H76 H 0.336209 0.000946 0.809019
C65 C 0.4310(6) 0.0770(17) 0.7342(6)
H80 H 0.445323 0.030746 0.722379
H81 H 0.428599 0.116618 0.710014
C66 C 0.4764(11) 0.100(3) 0.7837(8)
H82 H 0.517428 0.108275 0.779871
H83 H 0.461851 0.145907 0.794977
H84 H 0.478510 0.060367 0.807295
Zn3 Zn 0.3458(6) 0.7595(7) 0.9739(6)
Zn5 Zn 0.1032(3) 0.7481(5) 0.5678(3)
Zn8 Zn 0.2288(3) 0.7507(5) 0.5128(3)
O14 O 0.7107(7) 0.3361(10) 0.9550(5)
O15 O 0.3656(6) 0.8485(9) 0.9358(7)
O16 O 0.2793(7) 0.8441(9) 0.9658(7)
O17 O 0.4374(9) 0.6959(16) 0.9933(5)
C14 C 0.2597(9) 0.9902(6) 0.9461(9)
H16 H 0.232373 0.963999 0.959677
C15 C 0.3085(7) 0.9532(5) 0.9363(6)
C16 C 0.3484(8) 0.9916(6) 0.9165(9)
H17 H 0.381789 0.966292 0.909820
C18 C 0.3179(5) 0.8711(7) 0.9462(5)
H34 H 0.151050 0.988471 0.732276
C31 C 0.0679(11) 0.9584(12) 0.6813(18)
H35 H 0.083183 0.910444 0.673574
H36 H 0.044974 0.951071 0.704827
H37 H 0.040782 0.980514 0.651842
H41 H 0.100987 0.983474 0.785788
C56 C 0.3153(6) 0.9943(7) 0.7006(4)
C57 C 0.2678(7) 0.9546(9) 0.7103(4)
H71 H 0.259235 0.961038 0.740307
C58 C 0.2327(8) 0.9056(10) 0.6762(5)
H72 H 0.200231 0.878453 0.682921
C59 C 0.2452(8) 0.8962(9) 0.6324(5)
C60 C 0.2928(7) 0.9359(10) 0.6226(4)
H73 H 0.301315 0.929534 0.592633
C61 C 0.3278(7) 0.9850(9) 0.6567(4)
C62 C 0.2055(6) 0.8440(9) 0.5960(4)
O11 O 0.2139(11) 0.8393(14) 0.5554(4)
O12 O 0.1644(7) 0.8137(12) 0.6127(7)
C64 C 0.3929(19) 0.9259(9) 0.7851(13)
H77 H 0.402063 0.894328 0.813912
H78 H 0.359393 0.903650 0.759570
H79 H 0.429699 0.930097 0.774046
H12 H 0.992010 0.347224 0.743959
C24 C 0.9851(6) 0.1525(13) 0.6610(4)
H29 H 0.973837 0.155345 0.690031
C25 C 0.9439(6) 0.1753(15) 0.6177(4)
H30 H 0.904513 0.193648 0.617236
C26 C 0.9604(6) 0.1712(12) 0.5752(4)
C29 C 0.9168(6) 0.1992(10) 0.5290(4)
O5 O 0.9374(9) 0.1959(16) 0.4933(5)
O6 O 0.8678(6) 0.2258(13) 0.5356(8)
Zn10 Zn 0.8458(6) 0.2595(7) 0.4739(6)
Zn1_2 Zn 0.1032(3) 0.7519(5) 0.0678(3)
O13_2 O 0.0359(14) 0.741(2) 0.0925(9)
C67_2 C 0.0200(18) 0.763(3) 0.1350(10)
H86_2 H 0.020560 0.817493 0.137227
H87_2 H 0.049897 0.742342 0.163607
O19_2 O 0.1389(7) 0.8523(11) 0.0663(10)
O20_2 O 0.2332(7) 0.8480(10) 0.0494(8)
O21_2 O 0.2139(11) 0.6607(14) 0.0554(4)
O22_2 O 0.1644(7) 0.6863(12) 0.1127(7)
C46_2 C 0.0228(6) 0.6775(11) 0.8354(4)
H57_2 H 0.030713 0.671719 0.805152
C47_2 C 0.0666(6) 0.7106(13) 0.8737(5)
H58_2 H 0.104445 0.727473 0.869511
C48_2 C 0.0551(6) 0.7190(12) 0.9179(4)
C51_2 C 0.0993(5) 0.7605(10) 0.9587(4)
O9_2 O 0.1497(6) 0.7799(10) 0.9513(8)
O10_2 O 0.0803(9) 0.7691(16) 0.9954(5)
H82_2 H 0.017428 0.891725 0.779871
C14_2 C 0.7597(9) 0.0098(6) 0.9461(9)
H16_2 H 0.732373 0.036001 0.959677
C15_2 C 0.8085(7) 0.0468(5) 0.9363(6)
C16_2 C 0.8484(8) 0.0084(6) 0.9165(9)
H17_2 H 0.881789 0.033708 0.909820
C18_2 C 0.8179(5) 0.1289(7) 0.9462(5)
O3 O 0.8656(6) 0.1515(9) 0.9358(7)
O4 O 0.7793(7) 0.1559(9) 0.9658(7)
H34_2 H 0.651050 0.011529 0.732276
C31_2 C 0.5679(11) 0.0416(12) 0.6813(18)
H35_2 H 0.583183 0.089556 0.673574
H36_2 H 0.544974 0.048929 0.704827
H37_2 H 0.540782 0.019486 0.651842
H41_2 H 0.600987 0.016526 0.785788
C56_2 C 0.8153(6) 0.0057(7) 0.7006(4)
C57_2 C 0.7678(7) 0.0454(9) 0.7103(4)
H71_2 H 0.759235 0.038962 0.740307
C58_2 C 0.7327(8) 0.0944(10) 0.6762(5)
H72_2 H 0.700231 0.121547 0.682921
C59_2 C 0.7452(8) 0.1038(9) 0.6324(5)
C60_2 C 0.7928(7) 0.0641(10) 0.6226(4)
H73_2 H 0.801315 0.070466 0.592633
C61_2 C 0.8278(7) 0.0150(9) 0.6567(4)
C62_2 C 0.7055(6) 0.1560(9) 0.5960(4)
O11_2 O 0.7139(11) 0.1607(14) 0.5554(4)
O12_2 O 0.6644(7) 0.1863(12) 0.6127(7)
C64_2 C 0.8929(19) 0.0741(9) 0.7851(13)
H77_2 H 0.902063 0.105672 0.813912
H78_2 H 0.859393 0.096350 0.759570
H79_2 H 0.929699 0.069903 0.774046
Zn4 Zn 0.6032(3) 0.2519(5) 0.5678(3)
Zn7 Zn 0.7288(3) 0.2493(5) 0.5128(3)
Zn9 Zn 0.8458(6) 0.2405(7) 0.9739(6)
H21_2 H 0.904657 0.744372 0.006051
H23_2 H 0.859676 0.814463 0.000160
H85_2 H 0.978750 0.744798 0.133220
O18_2 O 0.8678(6) 0.2742(13) 0.0356(8)
Se1_2 Se 0.7800(4) 0.6523(5) 0.8313(3)
Se2_2 Se 0.7605(3) 0.6122(4) 0.7194(2)
Se3_2 Se 0.8628(3) 0.7966(5) 0.8217(3)
Se4_2 Se 0.6585(2) 0.7563(5) 0.8019(2)
Se5_2 Se 0.7210(3) 0.8573(4) 0.6787(3)
Se6_2 Se 0.7409(3) 0.8991(4) 0.7929(2)
Se7_2 Se 0.6383(3) 0.7153(4) 0.6897(2)
Se8_2 Se 0.8416(2) 0.7560(5) 0.7079(2)
Co1_2 Co 0.6974(3) 0.6637(4) 0.7620(3)
P1_2 P 0.6425(4) 0.5676(5) 0.7636(4)
C1_2 C 0.6722(6) 0.5018(7) 0.8116(4)
C2_2 C 0.7258(6) 0.4626(8) 0.8144(5)
H1_2 H 0.747471 0.471097 0.791290
C3_2 C 0.7478(6) 0.4108(9) 0.8510(5)
H2_2 H 0.784492 0.383990 0.852859
C4_2 C 0.7162(7) 0.3984(8) 0.8847(5)
C5_2 C 0.6625(7) 0.4376(9) 0.8819(5)
H3_2 H 0.640852 0.429112 0.905026
C6_2 C 0.6405(6) 0.4894(8) 0.8454(5)
H4_2 H 0.603829 0.516218 0.843456
C7_2 C 0.7401(5) 0.3423(8) 0.9244(4)
O1_2 O 0.7896(7) 0.3091(11) 0.9241(9)
C8_2 C 0.6465(9) 0.5061(10) 0.7134(6)
H5_2 H 0.685778 0.478169 0.722531
H6_2 H 0.644926 0.536247 0.684491
C9_2 C 0.5914(11) 0.4508(13) 0.7019(14)
H7_2 H 0.593394 0.418198 0.675322
H8_2 H 0.552639 0.478744 0.692596
H9_2 H 0.593387 0.420815 0.730539
C10_2 C 0.5605(6) 0.5715(9) 0.7542(13)
H10_2 H 0.550439 0.547708 0.781806
H11_2 H 0.539345 0.543302 0.724707
C11_2 C 0.5366(12) 0.6527(10) 0.749(2)
H12_2 H 0.492010 0.652776 0.743959
H13_2 H 0.545815 0.676064 0.721321
H14_2 H 0.556900 0.680467 0.778381
Co2_2 Co 0.7627(4) 0.7804(5) 0.8253(3)
P2_2 P 0.7781(5) 0.7993(6) 0.9011(3)
C12_2 C 0.7908(6) 0.8960(5) 0.9162(5)
C13_2 C 0.7509(8) 0.9344(6) 0.9361(8)
H15_2 H 0.717534 0.909051 0.942766
C17_2 C 0.8396(8) 0.9330(6) 0.9065(9)
H18_2 H 0.866950 0.906757 0.892908
C19_2 C 0.8545(7) 0.7636(15) 0.9338(5)
H19_2 H 0.886567 0.794932 0.926525
H20_2 H 0.859153 0.712362 0.922931
C20_2 C 0.8636(19) 0.764(3) 0.9893(5)
H22_2 H 0.832298 0.732000 0.996572
C21_2 C 0.7274(8) 0.7624(8) 0.9330(7)
H24_2 H 0.686610 0.786763 0.921267
H25_2 H 0.744283 0.773221 0.967824
C22_2 C 0.720(2) 0.6769(9) 0.9252(18)
H26_2 H 0.692089 0.657731 0.942794
H27_2 H 0.760100 0.652838 0.937222
H28_2 H 0.702518 0.666360 0.890738
Co3_2 Co 0.6734(4) 0.8212(5) 0.7368(3)
P3_2 P 0.5980(4) 0.8978(6) 0.7181(3)
C23_2 C 0.5428(5) 0.8743(10) 0.6616(3)
C24_2 C 0.4851(6) 0.8475(13) 0.6610(4)
H29_2 H 0.473837 0.844655 0.690031
C25_2 C 0.4439(6) 0.8247(15) 0.6177(4)
H30_2 H 0.404513 0.806352 0.617236
C26_2 C 0.4604(6) 0.8288(12) 0.5752(4)
C27_2 C 0.5181(6) 0.8557(13) 0.5759(4)
H31_2 H 0.529346 0.858516 0.546772
C28_2 C 0.5593(6) 0.8785(13) 0.6191(4)
H32_2 H 0.598670 0.896819 0.619566
C29_2 C 0.4168(6) 0.8008(10) 0.5290(4)
O5_2 O 0.4374(9) 0.8041(16) 0.4933(5)
O6_2 O 0.3678(6) 0.7742(13) 0.5356(8)
C30_2 C 0.6233(8) 0.9887(8) 0.7029(10)
H33_2 H 0.646855 0.982070 0.679261
C32_2 C 0.5531(7) 0.9186(13) 0.7590(5)
H38_2 H 0.542694 0.871943 0.773018
H39_2 H 0.514191 0.943426 0.741242
C33_2 C 0.5912(16) 0.9703(15) 0.7999(8)
H40_2 H 0.567093 0.981751 0.822131
H42_2 H 0.629412 0.945239 0.817476
Co4_2 Co 0.7380(4) 0.7291(5) 0.6843(3)
P4_2 P 0.7232(5) 0.7071(6) 0.6093(3)
C34_2 C 0.7131(6) 0.6098(5) 0.5940(6)
C35_2 C 0.7616(6) 0.5684(6) 0.5871(10)
H43_2 H 0.800016 0.591491 0.589738
C36_2 C 0.7537(7) 0.4931(6) 0.5764(10)
H44_2 H 0.786838 0.464721 0.571670
C37_2 C 0.6974(7) 0.4592(6) 0.5725(8)
C38_2 C 0.6490(6) 0.5007(6) 0.5794(10)
H45_2 H 0.610530 0.477549 0.576707
C39_2 C 0.6568(6) 0.5760(6) 0.5901(9)
H46_2 H 0.623706 0.604319 0.594774
C40_2 C 0.6891(5) 0.3774(7) 0.5617(6)
O7_2 O 0.6389(7) 0.3523(11) 0.5663(10)
O8_2 O 0.7332(7) 0.3480(10) 0.5494(8)
C41_2 C 0.7872(7) 0.7299(9) 0.5861(8)
H47_2 H 0.782136 0.704203 0.555006
H48_2 H 0.826189 0.712632 0.609095
C42_2 C 0.7903(18) 0.8156(9) 0.5788(17)
H49_2 H 0.824995 0.827186 0.566314
H50_2 H 0.795870 0.840853 0.609730
H51_2 H 0.751897 0.832439 0.555739
C43_2 C 0.6573(9) 0.7520(12) 0.5669(6)
H52_2 H 0.667059 0.804768 0.562794
H53_2 H 0.621335 0.750208 0.579645
C44_2 C 0.642(2) 0.7114(19) 0.5172(6)
H54_2 H 0.606296 0.735693 0.494517
H55_2 H 0.631603 0.659349 0.521311
H56_2 H 0.677224 0.713787 0.504498
Co5_2 Co 0.8276(4) 0.6909(5) 0.7736(3)
P5_2 P 0.9068(4) 0.6196(5) 0.7907(4)
C45_2 C 0.9675(5) 0.6528(9) 0.8415(4)
C49_2 C 0.9998(6) 0.6943(12) 0.9240(4)
H59_2 H 0.991946 0.700105 0.954285
C50_2 C 0.9560(6) 0.6612(11) 0.8858(4)
H60_2 H 0.918213 0.644350 0.889928
C52_2 C 0.9485(8) 0.6187(14) 0.7456(5)
H61_2 H 0.990061 0.597472 0.759850
H62_2 H 0.953365 0.670216 0.735284
C53_2 C 0.9131(18) 0.5715(13) 0.7011(6)
H63_2 H 0.935977 0.571510 0.677145
H64_2 H 0.872153 0.593010 0.686797
H65_2 H 0.908785 0.520392 0.711320
C54_2 C 0.8937(8) 0.5222(7) 0.8010(11)
H66_2 H 0.855453 0.505326 0.776927
H67_2 H 0.888214 0.516183 0.833451
C55_2 C 0.9485(10) 0.4736(11) 0.7970(9)
H68_2 H 0.940386 0.421437 0.802639
H69_2 H 0.986249 0.489815 0.821120
H70_2 H 0.953526 0.478970 0.764662
Co6_2 Co 0.8006(4) 0.8437(5) 0.7495(3)
P6_2 P 0.8564(4) 0.9375(5) 0.7431(4)
H74_2 H 0.860320 0.987881 0.650019
C63_2 C 0.8732(14) 0.9952(8) 0.7976(5)
H75_2 H 0.906744 0.972522 0.823542
H76_2 H 0.836209 0.999054 0.809019
C65_2 C 0.9310(6) 0.9230(17) 0.7342(6)
H80_2 H 0.945323 0.969254 0.722379
H81_2 H 0.928599 0.883382 0.710014
C66_2 C 0.9764(11) 0.900(3) 0.7837(8)
H83_2 H 0.961851 0.854093 0.794977
H84_2 H 0.978510 0.939633 0.807295
O17_2 O 0.9374(9) 0.3041(16) 0.9933(5)
Zn10_2 Zn 0.3458(6) 0.7405(7) 0.4739(6)
C46_3 C 0.0228(6) 0.8225(11) 0.3354(4)
H57_3 H 0.030713 0.828281 0.305152
C47_3 C 0.0666(6) 0.7894(13) 0.3737(5)
H58_3 H 0.104445 0.772527 0.369511
C48_3 C 0.0551(6) 0.7810(12) 0.4179(4)
C51_3 C 0.0993(5) 0.7395(10) 0.4587(4)
O9_3 O 0.1497(6) 0.7201(10) 0.4513(8)
O10_3 O 0.0803(9) 0.7309(16) 0.4954(5)
H82_3 H 0.017428 0.608275 0.279871
O13_3 O 0.0359(14) 0.759(2) 0.5925(9)
C67_3 C 0.0200(18) 0.737(3) 0.6350(10)
H86_3 H 0.020560 0.682507 0.637227
H87_3 H 0.049897 0.757658 0.663607
O14_2 O 0.2107(7) 0.8361(10) 0.4550(5)
C2_3 C 0.7258(6) 0.0374(8) 0.3144(5)
H1_3 H 0.747471 0.028903 0.291290
C3_3 C 0.7478(6) 0.0892(9) 0.3510(5)
H2_3 H 0.784492 0.116010 0.352859
C4_3 C 0.7162(7) 0.1016(8) 0.3847(5)
C5_3 C 0.6625(7) 0.0624(9) 0.3819(5)
H3_3 H 0.640852 0.070888 0.405026
C6_3 C 0.6405(6) 0.0106(8) 0.3454(5)
C7_3 C 0.7401(5) 0.1577(8) 0.4244(4)
O1_3 O 0.7896(7) 0.1909(11) 0.4241(9)
O2_2 O 0.7107(7) 0.1639(10) 0.4550(5)
H5_3 H 0.685778 0.021831 0.222531
C9_3 C 0.5914(11) 0.0492(13) 0.2019(14)
H7_3 H 0.593394 0.081802 0.175322
H8_3 H 0.552639 0.021256 0.192596
H9_3 H 0.593387 0.079185 0.230539
C36_3 C 0.7537(7) 0.0069(6) 0.0764(10)
H44_3 H 0.786838 0.035279 0.071670
C37_3 C 0.6974(7) 0.0408(6) 0.0725(8)
H45_3 H 0.610530 0.022451 0.076707
C40_3 C 0.6891(5) 0.1226(7) 0.0617(6)
C55_3 C 0.9485(10) 0.0264(11) 0.2970(9)
H68_3 H 0.940386 0.078563 0.302639
H69_3 H 0.986249 0.010185 0.321120
H70_3 H 0.953526 0.021030 0.264662
O15_2 O 0.8656(6) 0.3485(9) 0.4358(7)
O16_2 O 0.7793(7) 0.3441(9) 0.4658(7)
Se1_3 Se 0.7800(4) 0.8477(5) 0.3313(3)
Se2_3 Se 0.7605(3) 0.8878(4) 0.2194(2)
Se3_3 Se 0.8628(3) 0.7034(5) 0.3217(3)
Se4_3 Se 0.6585(2) 0.7437(5) 0.3019(2)
Se5_3 Se 0.7210(3) 0.6427(4) 0.1787(3)
Se6_3 Se 0.7409(3) 0.6009(4) 0.2929(2)
Se7_3 Se 0.6383(3) 0.7847(4) 0.1897(2)
Se8_3 Se 0.8416(2) 0.7440(5) 0.2079(2)
Co1_3 Co 0.6974(3) 0.8363(4) 0.2620(3)
P1_3 P 0.6425(4) 0.9324(5) 0.2636(4)
C1_3 C 0.6722(6) 0.9982(7) 0.3116(4)
H4_3 H 0.603829 0.983782 0.343456
C8_3 C 0.6465(9) 0.9939(10) 0.2134(6)
H6_3 H 0.644926 0.963753 0.184491
C10_3 C 0.5605(6) 0.9285(9) 0.2542(13)
H10_3 H 0.550439 0.952292 0.281806
H11_3 H 0.539345 0.956698 0.224707
C11_3 C 0.5366(12) 0.8473(10) 0.249(2)
H12_3 H 0.492010 0.847224 0.243959
H13_3 H 0.545815 0.823936 0.221321
H14_3 H 0.556900 0.819533 0.278381
Co2_3 Co 0.7627(4) 0.7196(5) 0.3253(3)
P2_3 P 0.7781(5) 0.7007(6) 0.4011(3)
C12_3 C 0.7908(6) 0.6040(5) 0.4162(5)
C13_3 C 0.7509(8) 0.5656(6) 0.4361(8)
H15_3 H 0.717534 0.590949 0.442766
C14_3 C 0.7597(9) 0.4902(6) 0.4461(9)
H16_3 H 0.732373 0.463999 0.459677
C15_3 C 0.8085(7) 0.4532(5) 0.4363(6)
C16_3 C 0.8484(8) 0.4916(6) 0.4165(9)
H17_3 H 0.881789 0.466292 0.409820
C17_3 C 0.8396(8) 0.5670(6) 0.4065(9)
H18_3 H 0.866950 0.593243 0.392908
C18_3 C 0.8179(5) 0.3711(7) 0.4462(5)
C19_3 C 0.8545(7) 0.7364(15) 0.4338(5)
H19_3 H 0.886567 0.705068 0.426525
H20_3 H 0.859153 0.787638 0.422931
C20_3 C 0.8636(19) 0.736(3) 0.4893(5)
H21_3 H 0.904657 0.755628 0.506051
H22_3 H 0.832298 0.768000 0.496572
H23_3 H 0.859676 0.685537 0.500160
C21_3 C 0.7274(8) 0.7376(8) 0.4330(7)
H24_3 H 0.686610 0.713237 0.421267
H25_3 H 0.744283 0.726779 0.467824
C22_3 C 0.720(2) 0.8231(9) 0.4252(18)
H26_3 H 0.692089 0.842269 0.442794
H27_3 H 0.760100 0.847162 0.437222
H28_3 H 0.702518 0.833640 0.390738
Co3_3 Co 0.6734(4) 0.6788(5) 0.2368(3)
P3_3 P 0.5980(4) 0.6022(6) 0.2181(3)
C23_3 C 0.5428(5) 0.6257(10) 0.1616(3)
C24_3 C 0.4851(6) 0.6525(13) 0.1610(4)
H29_3 H 0.473837 0.655345 0.190031
C25_3 C 0.4439(6) 0.6753(15) 0.1177(4)
H30_3 H 0.404513 0.693648 0.117236
C26_3 C 0.4604(6) 0.6712(12) 0.0752(4)
C27_3 C 0.5181(6) 0.6443(13) 0.0759(4)
H31_3 H 0.529346 0.641484 0.046772
C28_3 C 0.5593(6) 0.6215(13) 0.1191(4)
H32_3 H 0.598670 0.603181 0.119566
C29_3 C 0.4168(6) 0.6992(10) 0.0290(4)
C30_3 C 0.6233(8) 0.5113(8) 0.2029(10)
H33_3 H 0.646855 0.517930 0.179261
H34_3 H 0.651050 0.488471 0.232276
C31_3 C 0.5679(11) 0.4584(12) 0.1813(18)
H35_3 H 0.583183 0.410444 0.173574
H36_3 H 0.544974 0.451071 0.204827
H37_3 H 0.540782 0.480514 0.151842
C32_3 C 0.5531(7) 0.5814(13) 0.2590(5)
H38_3 H 0.542694 0.628057 0.273018
H39_3 H 0.514191 0.556574 0.241242
C33_3 C 0.5912(16) 0.5297(15) 0.2999(8)
H40_3 H 0.567093 0.518249 0.322131
H41_3 H 0.600987 0.483474 0.285788
H42_3 H 0.629412 0.554761 0.317476
Co4_3 Co 0.7380(4) 0.7709(5) 0.1843(3)
P4_3 P 0.7232(5) 0.7929(6) 0.1093(3)
C34_3 C 0.7131(6) 0.8902(5) 0.0940(6)
C35_3 C 0.7616(6) 0.9316(6) 0.0871(10)
H43_3 H 0.800016 0.908509 0.089738
C38_3 C 0.6490(6) 0.9993(6) 0.0794(10)
C39_3 C 0.6568(6) 0.9240(6) 0.0901(9)
H46_3 H 0.623706 0.895681 0.094774
C41_3 C 0.7872(7) 0.7701(9) 0.0861(8)
H47_3 H 0.782136 0.795797 0.055006
H48_3 H 0.826189 0.787368 0.109095
C42_3 C 0.7903(18) 0.6844(9) 0.0788(17)
H49_3 H 0.824995 0.672814 0.066314
H50_3 H 0.795870 0.659147 0.109730
H51_3 H 0.751897 0.667561 0.055739
C43_3 C 0.6573(9) 0.7480(12) 0.0669(6)
H52_3 H 0.667059 0.695232 0.062794
H53_3 H 0.621335 0.749792 0.079645
C44_3 C 0.642(2) 0.7886(19) 0.0172(6)
H55_3 H 0.631603 0.840651 0.021311
H56_3 H 0.677224 0.786213 0.004498
Co5_3 Co 0.8276(4) 0.8091(5) 0.2736(3)
P5_3 P 0.9068(4) 0.8804(5) 0.2907(4)
C45_3 C 0.9675(5) 0.8472(9) 0.3415(4)
C49_3 C 0.9998(6) 0.8057(12) 0.4240(4)
H59_3 H 0.991946 0.799895 0.454285
C50_3 C 0.9560(6) 0.8388(11) 0.3858(4)
H60_3 H 0.918213 0.855650 0.389928
C52_3 C 0.9485(8) 0.8813(14) 0.2456(5)
H61_3 H 0.990061 0.902528 0.259850
H62_3 H 0.953365 0.829784 0.235284
C53_3 C 0.9131(18) 0.9285(13) 0.2011(6)
H63_3 H 0.935977 0.928490 0.177145
H64_3 H 0.872153 0.906990 0.186797
H65_3 H 0.908785 0.979608 0.211320
C54_3 C 0.8937(8) 0.9778(7) 0.3010(11)
H66_3 H 0.855453 0.994674 0.276927
H67_3 H 0.888214 0.983817 0.333451
Co6_3 Co 0.8006(4) 0.6563(5) 0.2495(3)
P6_3 P 0.8564(4) 0.5625(5) 0.2431(4)
C56_3 C 0.8153(6) 0.4943(7) 0.2006(4)
C57_3 C 0.7678(7) 0.4546(9) 0.2103(4)
H71_3 H 0.759235 0.461038 0.240307
C58_3 C 0.7327(8) 0.4056(10) 0.1762(5)
H72_3 H 0.700231 0.378453 0.182921
C59_3 C 0.7452(8) 0.3962(9) 0.1324(5)
C60_3 C 0.7928(7) 0.4359(10) 0.1226(4)
H73_3 H 0.801315 0.429534 0.092633
C61_3 C 0.8278(7) 0.4850(9) 0.1567(4)
H74_3 H 0.860320 0.512119 0.150019
C62_3 C 0.7055(6) 0.3440(9) 0.0960(4)
C63_3 C 0.8732(14) 0.5048(8) 0.2976(5)
H75_3 H 0.906744 0.527478 0.323542
H76_3 H 0.836209 0.500946 0.309019
C64_3 C 0.8929(19) 0.4259(9) 0.2851(13)
H77_3 H 0.902063 0.394328 0.313912
H78_3 H 0.859393 0.403650 0.259570
H79_3 H 0.929699 0.430097 0.274046
C65_3 C 0.9310(6) 0.5770(17) 0.2342(6)
H80_3 H 0.945323 0.530746 0.222379
H81_3 H 0.928599 0.616618 0.210014
C66_3 C 0.9764(11) 0.600(3) 0.2837(8)
H83_3 H 0.961851 0.645907 0.294977
H84_3 H 0.978510 0.560367 0.307295
H85_3 H 0.978750 0.755202 0.633220
H54_3 H 0.606296 0.764307 0.994517
Se1_4 Se 0.2800(4) 0.1523(5) 0.3313(3)
Se2_4 Se 0.2605(3) 0.1122(4) 0.2194(2)
Se3_4 Se 0.3628(3) 0.2966(5) 0.3217(3)
Se4_4 Se 0.1585(2) 0.2563(5) 0.3019(2)
Se5_4 Se 0.2210(3) 0.3573(4) 0.1787(3)
Se6_4 Se 0.2409(3) 0.3991(4) 0.2929(2)
Se7_4 Se 0.1383(3) 0.2153(4) 0.1897(2)
Se8_4 Se 0.3416(2) 0.2560(5) 0.2079(2)
Co1_4 Co 0.1974(3) 0.1637(4) 0.2620(3)
P1_4 P 0.1425(4) 0.0676(5) 0.2636(4)
C1_4 C 0.1722(6) 0.0018(7) 0.3116(4)
H4_4 H 0.103829 0.016218 0.343456
C8_4 C 0.1465(9) 0.0061(10) 0.2134(6)
H6_4 H 0.144926 0.036247 0.184491
C10_4 C 0.0605(6) 0.0715(9) 0.2542(13)
H10_4 H 0.050439 0.047708 0.281806
H11_4 H 0.039345 0.043302 0.224707
C11_4 C 0.0366(12) 0.1527(10) 0.249(2)
H13_4 H 0.045815 0.176064 0.221321
H14_4 H 0.056900 0.180467 0.278381
Co2_4 Co 0.2627(4) 0.2804(5) 0.3253(3)
P2_4 P 0.2781(5) 0.2993(6) 0.4011(3)
C12_4 C 0.2908(6) 0.3960(5) 0.4162(5)
C13_4 C 0.2509(8) 0.4344(6) 0.4361(8)
H15_4 H 0.217534 0.409051 0.442766
C14_4 C 0.2597(9) 0.5098(6) 0.4461(9)
H16_4 H 0.232373 0.536001 0.459677
C15_4 C 0.3085(7) 0.5468(5) 0.4363(6)
C16_4 C 0.3484(8) 0.5084(6) 0.4165(9)
H17_4 H 0.381789 0.533708 0.409820
C17_4 C 0.3396(8) 0.4330(6) 0.4065(9)
H18_4 H 0.366950 0.406757 0.392908
C18_4 C 0.3179(5) 0.6289(7) 0.4462(5)
O3_2 O 0.3656(6) 0.6515(9) 0.4358(7)
O4_2 O 0.2793(7) 0.6559(9) 0.4658(7)
C19_4 C 0.3545(7) 0.2636(15) 0.4338(5)
H19_4 H 0.386567 0.294932 0.426525
H20_4 H 0.359153 0.212362 0.422931
C20_4 C 0.3636(19) 0.264(3) 0.4893(5)
H21_4 H 0.404657 0.244372 0.506051
H22_4 H 0.332298 0.232000 0.496572
H23_4 H 0.359676 0.314463 0.500160
C21_4 C 0.2274(8) 0.2624(8) 0.4330(7)
H24_4 H 0.186610 0.286763 0.421267
H25_4 H 0.244283 0.273221 0.467824
C22_4 C 0.220(2) 0.1769(9) 0.4252(18)
H26_4 H 0.192089 0.157731 0.442794
H27_4 H 0.260100 0.152838 0.437222
H28_4 H 0.202518 0.166360 0.390738
Co3_4 Co 0.1734(4) 0.3212(5) 0.2368(3)
P3_4 P 0.0980(4) 0.3978(6) 0.2181(3)
C23_4 C 0.0428(5) 0.3743(10) 0.1616(3)
C27_4 C 0.0181(6) 0.3557(13) 0.0759(4)
H31_4 H 0.029346 0.358516 0.046772
C28_4 C 0.0593(6) 0.3785(13) 0.1191(4)
H32_4 H 0.098670 0.396819 0.119566
C30_4 C 0.1233(8) 0.4887(8) 0.2029(10)
H33_4 H 0.146855 0.482070 0.179261
H34_4 H 0.151050 0.511529 0.232276
C31_4 C 0.0679(11) 0.5416(12) 0.1813(18)
H35_4 H 0.083183 0.589556 0.173574
H36_4 H 0.044974 0.548929 0.204827
H37_4 H 0.040782 0.519486 0.151842
C32_4 C 0.0531(7) 0.4186(13) 0.2590(5)
H38_4 H 0.042694 0.371943 0.273018
H39_4 H 0.014191 0.443426 0.241242
C33_4 C 0.0912(16) 0.4703(15) 0.2999(8)
H40_4 H 0.067093 0.481751 0.322131
H41_4 H 0.100987 0.516526 0.285788
H42_4 H 0.129412 0.445239 0.317476
Co4_4 Co 0.2380(4) 0.2291(5) 0.1843(3)
P4_4 P 0.2232(5) 0.2071(6) 0.1093(3)
C34_4 C 0.2131(6) 0.1098(5) 0.0940(6)
C35_4 C 0.2616(6) 0.0684(6) 0.0871(10)
H43_4 H 0.300016 0.091491 0.089738
C38_4 C 0.1490(6) 0.0007(6) 0.0794(10)
C39_4 C 0.1568(6) 0.0760(6) 0.0901(9)
H46_4 H 0.123706 0.104319 0.094774
C41_4 C 0.2872(7) 0.2299(9) 0.0861(8)
H47_4 H 0.282136 0.204203 0.055006
H48_4 H 0.326189 0.212632 0.109095
C42_4 C 0.2903(18) 0.3156(9) 0.0788(17)
H49_4 H 0.324995 0.327186 0.066314
H50_4 H 0.295870 0.340853 0.109730
H51_4 H 0.251897 0.332439 0.055739
C43_4 C 0.1573(9) 0.2520(12) 0.0669(6)
H52_4 H 0.167059 0.304768 0.062794
H53_4 H 0.121335 0.250208 0.079645
C44_4 C 0.142(2) 0.2114(19) 0.0172(6)
H55_4 H 0.131603 0.159349 0.021311
H56_4 H 0.177224 0.213787 0.004498
Co5_4 Co 0.3276(4) 0.1909(5) 0.2736(3)
P5_4 P 0.4068(4) 0.1196(5) 0.2907(4)
C45_4 C 0.4675(5) 0.1528(9) 0.3415(4)
C46_4 C 0.5228(6) 0.1775(11) 0.3354(4)
H57_4 H 0.530713 0.171719 0.305152
C47_4 C 0.5666(6) 0.2106(13) 0.3737(5)
H58_4 H 0.604445 0.227473 0.369511
C48_4 C 0.5551(6) 0.2190(12) 0.4179(4)
C49_4 C 0.4998(6) 0.1943(12) 0.4240(4)
H59_4 H 0.491946 0.200105 0.454285
C50_4 C 0.4560(6) 0.1612(11) 0.3858(4)
H60_4 H 0.418213 0.144350 0.389928
C51_4 C 0.5993(5) 0.2605(10) 0.4587(4)
O9_4 O 0.6497(6) 0.2799(10) 0.4513(8)
O10_4 O 0.5803(9) 0.2691(16) 0.4954(5)
C52_4 C 0.4485(8) 0.1187(14) 0.2456(5)
H61_4 H 0.490061 0.097472 0.259850
H62_4 H 0.453365 0.170216 0.235284
C53_4 C 0.4131(18) 0.0715(13) 0.2011(6)
H63_4 H 0.435977 0.071510 0.177145
H64_4 H 0.372153 0.093010 0.186797
H65_4 H 0.408785 0.020392 0.211320
C54_4 C 0.3937(8) 0.0222(7) 0.3010(11)
H66_4 H 0.355453 0.005326 0.276927
H67_4 H 0.388214 0.016183 0.333451
Co6_4 Co 0.3006(4) 0.3437(5) 0.2495(3)
P6_4 P 0.3564(4) 0.4375(5) 0.2431(4)
C56_4 C 0.3153(6) 0.5057(7) 0.2006(4)
C57_4 C 0.2678(7) 0.5454(9) 0.2103(4)
H71_4 H 0.259235 0.538962 0.240307
C58_4 C 0.2327(8) 0.5944(10) 0.1762(5)
H72_4 H 0.200231 0.621547 0.182921
C59_4 C 0.2452(8) 0.6038(9) 0.1324(5)
C60_4 C 0.2928(7) 0.5641(10) 0.1226(4)
H73_4 H 0.301315 0.570466 0.092633
C61_4 C 0.3278(7) 0.5150(9) 0.1567(4)
H74_4 H 0.360320 0.487881 0.150019
C62_4 C 0.2055(6) 0.6560(9) 0.0960(4)
C63_4 C 0.3732(14) 0.4952(8) 0.2976(5)
H75_4 H 0.406744 0.472522 0.323542
H76_4 H 0.336209 0.499054 0.309019
C64_4 C 0.3929(19) 0.5741(9) 0.2851(13)
H77_4 H 0.402063 0.605672 0.313912
H78_4 H 0.359393 0.596350 0.259570
H79_4 H 0.429699 0.569903 0.274046
C65_4 C 0.4310(6) 0.4230(17) 0.2342(6)
H80_4 H 0.445323 0.469254 0.222379
H81_4 H 0.428599 0.383382 0.210014
C66_4 C 0.4764(11) 0.400(3) 0.2837(8)
H82_4 H 0.517428 0.391725 0.279871
H83_4 H 0.461851 0.354093 0.294977
H84_4 H 0.478510 0.439633 0.307295
O13_4 O 0.5359(14) 0.241(2) 0.5925(9)
C67_4 C 0.5200(18) 0.263(3) 0.6350(10)
H85_4 H 0.478750 0.244798 0.633220
H86_4 H 0.520560 0.317493 0.637227
H87_4 H 0.549897 0.242342 0.663607
C2_4 C 0.2258(6) 0.9626(8) 0.3144(5)
H1_4 H 0.247471 0.971097 0.291290
C3_4 C 0.2478(6) 0.9108(9) 0.3510(5)
H2_4 H 0.284492 0.883990 0.352859
C4_4 C 0.2162(7) 0.8984(8) 0.3847(5)
C5_4 C 0.1625(7) 0.9376(9) 0.3819(5)
H3_4 H 0.140852 0.929112 0.405026
C6_4 C 0.1405(6) 0.9894(8) 0.3454(5)
C7_4 C 0.2401(5) 0.8423(8) 0.4244(4)
O1_4 O 0.2896(7) 0.8091(11) 0.4241(9)
H5_4 H 0.185778 0.978169 0.222531
C9_4 C 0.0914(11) 0.9508(13) 0.2019(14)
H7_4 H 0.093394 0.918198 0.175322
H8_4 H 0.052639 0.978744 0.192596
H9_4 H 0.093387 0.920815 0.230539
C36_4 C 0.2537(7) 0.9931(6) 0.0764(10)
H44_4 H 0.286838 0.964721 0.071670
C37_4 C 0.1974(7) 0.9592(6) 0.0725(8)
H45_4 H 0.110530 0.977549 0.076707
C40_4 C 0.1891(5) 0.8774(7) 0.0617(6)
C55_4 C 0.4485(10) 0.9736(11) 0.2970(9)
H68_4 H 0.440386 0.921437 0.302639
H69_4 H 0.486249 0.989815 0.321120
H70_4 H 0.453526 0.978970 0.264662
H12_4 H 0.992010 0.152776 0.243959
C24_4 C 0.9851(6) 0.3475(13) 0.1610(4)
H29_4 H 0.973837 0.344655 0.190031
C25_4 C 0.9439(6) 0.3247(15) 0.1177(4)
H30_4 H 0.904513 0.306352 0.117236
C26_4 C 0.9604(6) 0.3288(12) 0.0752(4)
C29_4 C 0.9168(6) 0.3008(10) 0.0290(4)
H54_4 H 0.106296 0.235693 0.994517
loop_
_geom_bond_atom_site_label_1
_geom_bond_atom_site_label_2
_geom_bond_site_symmetry_1
_geom_bond_site_symmetry_2
O13 Zn1 1_555 1_555
C67 O13 1_555 1_555
H85 C67 1_555 1_555
H86 C67 1_555 1_555
H87 C67 1_555 1_555
O19 Zn1 1_555 1_555
O20 Zn2 1_555 1_555
O21 Zn2 1_555 1_555
O22 Zn1 1_555 1_555
Se1 Co1 1_555 1_555
Se2 Co1 1_555 1_555
Se3 Co2 1_555 1_555
Se4 Co1 1_555 1_555
Se5 Co3 1_555 1_555
Se6 Co2 1_555 1_555
Se7 Co1 1_555 1_555
Se8 Co4 1_555 1_555
Co1 P1 1_555 1_555
P1 C1 1_555 1_555
C1 C2 1_555 1_555
C2 H1 1_555 1_555
C3 C2 1_555 1_555
H2 C3 1_555 1_555
C4 C3 1_555 1_555
C5 C4 1_555 1_555
H3 C5 1_555 1_555
C6 C1 1_555 1_555
H4 C6 1_555 1_555
C7 C4 1_555 1_555
O1 C7 1_555 1_555
O2 C7 1_555 1_555
C8 P1 1_555 1_555
H5 C8 1_555 1_555
H6 C8 1_555 1_555
C9 C8 1_555 1_555
H7 C9 1_555 1_555
H8 C9 1_555 1_555
H9 C9 1_555 1_555
C10 P1 1_555 1_555
H10 C10 1_555 1_555
H11 C10 1_555 1_555
C11 C10 1_555 1_555
H13 C11 1_555 1_555
H14 C11 1_555 1_555
Co2 Se1 1_555 1_555
P2 Co2 1_555 1_555
C12 P2 1_555 1_555
C13 C12 1_555 1_555
H15 C13 1_555 1_555
C17 C12 1_555 1_555
H18 C17 1_555 1_555
C19 P2 1_555 1_555
H19 C19 1_555 1_555
H20 C19 1_555 1_555
C20 C19 1_555 1_555
H22 C20 1_555 1_555
C21 P2 1_555 1_555
H24 C21 1_555 1_555
H25 C21 1_555 1_555
C22 C21 1_555 1_555
H26 C22 1_555 1_555
H27 C22 1_555 1_555
H28 C22 1_555 1_555
Co3 Se4 1_555 1_555
P3 Co3 1_555 1_555
C23 P3 1_555 1_555
H31 C27 1_555 1_555
C28 C23 1_555 1_555
H32 C28 1_555 1_555
C30 P3 1_555 1_555
H33 C30 1_555 1_555
C32 P3 1_555 1_555
H38 C32 1_555 1_555
H39 C32 1_555 1_555
C33 C32 1_555 1_555
H40 C33 1_555 1_555
H42 C33 1_555 1_555
Co4 Se2 1_555 1_555
P4 Co4 1_555 1_555
C34 P4 1_555 1_555
C35 C34 1_555 1_555
H43 C35 1_555 1_555
C36 C35 1_555 1_555
H44 C36 1_555 1_555
C37 C36 1_555 1_555
C38 C37 1_555 1_555
H45 C38 1_555 1_555
C39 C34 1_555 1_555
H46 C39 1_555 1_555
C40 C37 1_555 1_555
O7 C40 1_555 1_555
O8 C40 1_555 1_555
C41 P4 1_555 1_555
H47 C41 1_555 1_555
H48 C41 1_555 1_555
C42 C41 1_555 1_555
H49 C42 1_555 1_555
H50 C42 1_555 1_555
H51 C42 1_555 1_555
C43 P4 1_555 1_555
H52 C43 1_555 1_555
H53 C43 1_555 1_555
C44 C43 1_555 1_555
H54 C44 1_555 1_555
H55 C44 1_555 1_555
H56 C44 1_555 1_555
Co5 Se1 1_555 1_555
P5 Co5 1_555 1_555
C45 P5 1_555 1_555
C46 C45 1_555 1_555
H57 C46 1_555 1_555
C47 C46 1_555 1_555
H58 C47 1_555 1_555
C48 C47 1_555 1_555
C49 C48 1_555 1_555
H59 C49 1_555 1_555
C50 C45 1_555 1_555
H60 C50 1_555 1_555
C51 C48 1_555 1_555
O9 C51 1_555 1_555
O10 C51 1_555 1_555
C52 P5 1_555 1_555
H61 C52 1_555 1_555
H62 C52 1_555 1_555
C53 C52 1_555 1_555
H63 C53 1_555 1_555
H64 C53 1_555 1_555
H65 C53 1_555 1_555
C54 P5 1_555 1_555
H66 C54 1_555 1_555
H67 C54 1_555 1_555
C55 C54 1_555 1_555
H68 C55 1_555 1_555
H69 C55 1_555 1_555
H70 C55 1_555 1_555
Co6 Se3 1_555 1_555
P6 Co6 1_555 1_555
C63 P6 1_555 1_555
H75 C63 1_555 1_555
H76 C63 1_555 1_555
C65 P6 1_555 1_555
H80 C65 1_555 1_555
H81 C65 1_555 1_555
C66 C65 1_555 1_555
H82 C66 1_555 1_555
H83 C66 1_555 1_555
H84 C66 1_555 1_555
Zn3 O1 1_555 1_555
Zn5 O7 1_555 1_555
Zn8 O8 1_555 1_555
O15 Zn3 1_555 1_555
O16 Zn3 1_555 1_555
O17 Zn3 1_555 1_555
Se2 Co5 1_555 1_555
Se3 Co5 1_555 1_555
Se4 Co2 1_555 1_555
Se5 Co4 1_555 1_555
Se5 Co6 1_555 1_555
Se6 Co3 1_555 1_555
Se6 Co6 1_555 1_555
Se7 Co3 1_555 1_555
Se7 Co4 1_555 1_555
Se8 Co5 1_555 1_555
Se8 Co6 1_555 1_555
C5 C6 1_555 1_555
C27 C28 1_555 1_555
C38 C39 1_555 1_555
C49 C50 1_555 1_555
H16 C14 1_555 1_555
C15 C14 1_555 1_555
C16 C15 1_555 1_555
H17 C16 1_555 1_555
C18 C15 1_555 1_555
O15 C18 1_555 1_555
O16 C18 1_555 1_555
H35 C31 1_555 1_555
H36 C31 1_555 1_555
H37 C31 1_555 1_555
C57 C56 1_555 1_555
H71 C57 1_555 1_555
C58 C57 1_555 1_555
H72 C58 1_555 1_555
C59 C58 1_555 1_555
C60 C59 1_555 1_555
H73 C60 1_555 1_555
C61 C56 1_555 1_555
C62 C59 1_555 1_555
O11 C62 1_555 1_555
O12 C62 1_555 1_555
H77 C64 1_555 1_555
H78 C64 1_555 1_555
H79 C64 1_555 1_555
Zn5 O12 1_555 1_555
Zn8 O11 1_555 1_555
C60 C61 1_555 1_555
H29 C24 1_555 1_555
C25 C24 1_555 1_555
H30 C25 1_555 1_555
C26 C25 1_555 1_555
C29 C26 1_555 1_555
O5 C29 1_555 1_555
O6 C29 1_555 1_555
Zn10 O5 1_555 1_555
O6 Zn10 1_555 1_555
O13_2 Zn1_2 1_555 1_555
C67_2 O13_2 1_555 1_555
H86_2 C67_2 1_555 1_555
H87_2 C67_2 1_555 1_555
O19_2 Zn1_2 1_555 1_555
O20_2 Zn6 1_555 1_555
O21_2 Zn6 1_555 1_555
O22_2 Zn1_2 1_555 1_555
H57_2 C46_2 1_555 1_555
C47_2 C46_2 1_555 1_555
H58_2 C47_2 1_555 1_555
C48_2 C47_2 1_555 1_555
C51_2 C48_2 1_555 1_555
O9_2 C51_2 1_555 1_555
O10_2 C51_2 1_555 1_555
H16_2 C14_2 1_555 1_555
C15_2 C14_2 1_555 1_555
C16_2 C15_2 1_555 1_555
H17_2 C16_2 1_555 1_555
C18_2 C15_2 1_555 1_555
O3 C18_2 1_555 1_555
O4 C18_2 1_555 1_555
H35_2 C31_2 1_555 1_555
H36_2 C31_2 1_555 1_555
H37_2 C31_2 1_555 1_555
C57_2 C56_2 1_555 1_555
H71_2 C57_2 1_555 1_555
C58_2 C57_2 1_555 1_555
H72_2 C58_2 1_555 1_555
C59_2 C58_2 1_555 1_555
C60_2 C59_2 1_555 1_555
H73_2 C60_2 1_555 1_555
C61_2 C56_2 1_555 1_555
C62_2 C59_2 1_555 1_555
O11_2 C62_2 1_555 1_555
O12_2 C62_2 1_555 1_555
H77_2 C64_2 1_555 1_555
H78_2 C64_2 1_555 1_555
H79_2 C64_2 1_555 1_555
Zn4 O12_2 1_555 1_555
Zn7 O11_2 1_555 1_555
Zn9 O3 1_555 1_555
O4 Zn9 1_555 1_555
C60_2 C61_2 1_555 1_555
Se1_2 Co1_2 1_555 1_555
Se2_2 Co1_2 1_555 1_555
Se3_2 Co2_2 1_555 1_555
Se4_2 Co1_2 1_555 1_555
Se5_2 Co3_2 1_555 1_555
Se6_2 Co2_2 1_555 1_555
Se7_2 Co1_2 1_555 1_555
Se8_2 Co4_2 1_555 1_555
Co1_2 P1_2 1_555 1_555
P1_2 C1_2 1_555 1_555
C1_2 C2_2 1_555 1_555
C2_2 H1_2 1_555 1_555
C3_2 C2_2 1_555 1_555
H2_2 C3_2 1_555 1_555
C4_2 C3_2 1_555 1_555
C5_2 C4_2 1_555 1_555
H3_2 C5_2 1_555 1_555
C6_2 C1_2 1_555 1_555
H4_2 C6_2 1_555 1_555
C7_2 C4_2 1_555 1_555
O1_2 C7_2 1_555 1_555
O14 C7_2 1_555 1_555
C8_2 P1_2 1_555 1_555
H5_2 C8_2 1_555 1_555
H6_2 C8_2 1_555 1_555
C9_2 C8_2 1_555 1_555
H7_2 C9_2 1_555 1_555
H8_2 C9_2 1_555 1_555
H9_2 C9_2 1_555 1_555
C10_2 P1_2 1_555 1_555
H10_2 C10_2 1_555 1_555
H11_2 C10_2 1_555 1_555
C11_2 C10_2 1_555 1_555
H12_2 C11_2 1_555 1_555
H13_2 C11_2 1_555 1_555
H14_2 C11_2 1_555 1_555
Co2_2 Se1_2 1_555 1_555
P2_2 Co2_2 1_555 1_555
C12_2 P2_2 1_555 1_555
C13_2 C12_2 1_555 1_555
H15_2 C13_2 1_555 1_555
C17_2 C12_2 1_555 1_555
H18_2 C17_2 1_555 1_555
C19_2 P2_2 1_555 1_555
H19_2 C19_2 1_555 1_555
H20_2 C19_2 1_555 1_555
C20_2 C19_2 1_555 1_555
H22_2 C20_2 1_555 1_555
C21_2 P2_2 1_555 1_555
H24_2 C21_2 1_555 1_555
H25_2 C21_2 1_555 1_555
C22_2 C21_2 1_555 1_555
H26_2 C22_2 1_555 1_555
H27_2 C22_2 1_555 1_555
H28_2 C22_2 1_555 1_555
Co3_2 Se4_2 1_555 1_555
P3_2 Co3_2 1_555 1_555
C23_2 P3_2 1_555 1_555
C24_2 C23_2 1_555 1_555
H29_2 C24_2 1_555 1_555
C25_2 C24_2 1_555 1_555
H30_2 C25_2 1_555 1_555
C26_2 C25_2 1_555 1_555
C27_2 C26_2 1_555 1_555
H31_2 C27_2 1_555 1_555
C28_2 C23_2 1_555 1_555
H32_2 C28_2 1_555 1_555
C29_2 C26_2 1_555 1_555
O5_2 C29_2 1_555 1_555
O6_2 C29_2 1_555 1_555
C30_2 P3_2 1_555 1_555
H33_2 C30_2 1_555 1_555
C32_2 P3_2 1_555 1_555
H38_2 C32_2 1_555 1_555
H39_2 C32_2 1_555 1_555
C33_2 C32_2 1_555 1_555
H40_2 C33_2 1_555 1_555
H42_2 C33_2 1_555 1_555
Co4_2 Se2_2 1_555 1_555
P4_2 Co4_2 1_555 1_555
C34_2 P4_2 1_555 1_555
C35_2 C34_2 1_555 1_555
H43_2 C35_2 1_555 1_555
C36_2 C35_2 1_555 1_555
H44_2 C36_2 1_555 1_555
C37_2 C36_2 1_555 1_555
C38_2 C37_2 1_555 1_555
H45_2 C38_2 1_555 1_555
C39_2 C34_2 1_555 1_555
H46_2 C39_2 1_555 1_555
C40_2 C37_2 1_555 1_555
O7_2 C40_2 1_555 1_555
O8_2 C40_2 1_555 1_555
C41_2 P4_2 1_555 1_555
H47_2 C41_2 1_555 1_555
H48_2 C41_2 1_555 1_555
C42_2 C41_2 1_555 1_555
H49_2 C42_2 1_555 1_555
H50_2 C42_2 1_555 1_555
H51_2 C42_2 1_555 1_555
C43_2 P4_2 1_555 1_555
H52_2 C43_2 1_555 1_555
H53_2 C43_2 1_555 1_555
C44_2 C43_2 1_555 1_555
H54_2 C44_2 1_555 1_555
H55_2 C44_2 1_555 1_555
H56_2 C44_2 1_555 1_555
Co5_2 Se1_2 1_555 1_555
P5_2 Co5_2 1_555 1_555
C45_2 P5_2 1_555 1_555
H59_2 C49_2 1_555 1_555
C50_2 C45_2 1_555 1_555
H60_2 C50_2 1_555 1_555
C52_2 P5_2 1_555 1_555
H61_2 C52_2 1_555 1_555
H62_2 C52_2 1_555 1_555
C53_2 C52_2 1_555 1_555
H63_2 C53_2 1_555 1_555
H64_2 C53_2 1_555 1_555
H65_2 C53_2 1_555 1_555
C54_2 P5_2 1_555 1_555
H66_2 C54_2 1_555 1_555
H67_2 C54_2 1_555 1_555
C55_2 C54_2 1_555 1_555
H68_2 C55_2 1_555 1_555
H69_2 C55_2 1_555 1_555
H70_2 C55_2 1_555 1_555
Co6_2 Se3_2 1_555 1_555
P6_2 Co6_2 1_555 1_555
C63_2 P6_2 1_555 1_555
H75_2 C63_2 1_555 1_555
H76_2 C63_2 1_555 1_555
C65_2 P6_2 1_555 1_555
H80_2 C65_2 1_555 1_555
H81_2 C65_2 1_555 1_555
C66_2 C65_2 1_555 1_555
H83_2 C66_2 1_555 1_555
H84_2 C66_2 1_555 1_555
Zn9 O1_2 1_555 1_555
Zn4 O7_2 1_555 1_555
Zn7 O8_2 1_555 1_555
O17_2 Zn9 1_555 1_555
Zn10_2 O5_2 1_555 1_555
Se2_2 Co5_2 1_555 1_555
Se3_2 Co5_2 1_555 1_555
Se4_2 Co2_2 1_555 1_555
Se5_2 Co4_2 1_555 1_555
Se5_2 Co6_2 1_555 1_555
Se6_2 Co3_2 1_555 1_555
Se6_2 Co6_2 1_555 1_555
Se7_2 Co3_2 1_555 1_555
Se7_2 Co4_2 1_555 1_555
Se8_2 Co5_2 1_555 1_555
Se8_2 Co6_2 1_555 1_555
C5_2 C6_2 1_555 1_555
C27_2 C28_2 1_555 1_555
O6_2 Zn10_2 1_555 1_555
C38_2 C39_2 1_555 1_555
C49_2 C50_2 1_555 1_555
Zn5 O10_3 1_555 1_555
Zn8 O9_3 1_555 1_555
H57_3 C46_3 1_555 1_555
C47_3 C46_3 1_555 1_555
H58_3 C47_3 1_555 1_555
C48_3 C47_3 1_555 1_555
C51_3 C48_3 1_555 1_555
O9_3 C51_3 1_555 1_555
O10_3 C51_3 1_555 1_555
O13_3 Zn5 1_555 1_555
C67_3 O13_3 1_555 1_555
H86_3 C67_3 1_555 1_555
H87_3 C67_3 1_555 1_555
O14_2 Zn8 1_555 1_555
C2_3 H1_3 1_555 1_555
C3_3 C2_3 1_555 1_555
H2_3 C3_3 1_555 1_555
C4_3 C3_3 1_555 1_555
C5_3 C4_3 1_555 1_555
H3_3 C5_3 1_555 1_555
C7_3 C4_3 1_555 1_555
O1_3 C7_3 1_555 1_555
O2_2 C7_3 1_555 1_555
H7_3 C9_3 1_555 1_555
H8_3 C9_3 1_555 1_555
H9_3 C9_3 1_555 1_555
H44_3 C36_3 1_555 1_555
C37_3 C36_3 1_555 1_555
C40_3 C37_3 1_555 1_555
O19 C40_3 1_555 1_555
O20 C40_3 1_555 1_555
H68_3 C55_3 1_555 1_555
H69_3 C55_3 1_555 1_555
H70_3 C55_3 1_555 1_555
Zn10 O1_3 1_555 1_555
Zn7 O2_2 1_555 1_555
O15_2 Zn10 1_555 1_555
O16_2 Zn10 1_555 1_555
C5_3 C6_3 1_555 1_555
Se1_3 Co1_3 1_555 1_555
Se2_3 Co1_3 1_555 1_555
Se3_3 Co2_3 1_555 1_555
Se4_3 Co1_3 1_555 1_555
Se5_3 Co3_3 1_555 1_555
Se6_3 Co2_3 1_555 1_555
Se7_3 Co1_3 1_555 1_555
Se8_3 Co4_3 1_555 1_555
Co1_3 P1_3 1_555 1_555
P1_3 C1_3 1_555 1_555
C8_3 P1_3 1_555 1_555
H6_3 C8_3 1_555 1_555
C10_3 P1_3 1_555 1_555
H10_3 C10_3 1_555 1_555
H11_3 C10_3 1_555 1_555
C11_3 C10_3 1_555 1_555
H12_3 C11_3 1_555 1_555
H13_3 C11_3 1_555 1_555
H14_3 C11_3 1_555 1_555
Co2_3 Se1_3 1_555 1_555
P2_3 Co2_3 1_555 1_555
C12_3 P2_3 1_555 1_555
C13_3 C12_3 1_555 1_555
H15_3 C13_3 1_555 1_555
C14_3 C13_3 1_555 1_555
H16_3 C14_3 1_555 1_555
C15_3 C14_3 1_555 1_555
C16_3 C15_3 1_555 1_555
H17_3 C16_3 1_555 1_555
C17_3 C12_3 1_555 1_555
H18_3 C17_3 1_555 1_555
C18_3 C15_3 1_555 1_555
O15_2 C18_3 1_555 1_555
O16_2 C18_3 1_555 1_555
C19_3 P2_3 1_555 1_555
H19_3 C19_3 1_555 1_555
H20_3 C19_3 1_555 1_555
C20_3 C19_3 1_555 1_555
H21_3 C20_3 1_555 1_555
H22_3 C20_3 1_555 1_555
H23_3 C20_3 1_555 1_555
C21_3 P2_3 1_555 1_555
H24_3 C21_3 1_555 1_555
H25_3 C21_3 1_555 1_555
C22_3 C21_3 1_555 1_555
H26_3 C22_3 1_555 1_555
H27_3 C22_3 1_555 1_555
H28_3 C22_3 1_555 1_555
Co3_3 Se4_3 1_555 1_555
P3_3 Co3_3 1_555 1_555
C23_3 P3_3 1_555 1_555
C24_3 C23_3 1_555 1_555
H29_3 C24_3 1_555 1_555
C25_3 C24_3 1_555 1_555
H30_3 C25_3 1_555 1_555
C26_3 C25_3 1_555 1_555
C27_3 C26_3 1_555 1_555
H31_3 C27_3 1_555 1_555
C28_3 C23_3 1_555 1_555
H32_3 C28_3 1_555 1_555
C29_3 C26_3 1_555 1_555
O18 C29_3 1_555 1_555
C30_3 P3_3 1_555 1_555
H33_3 C30_3 1_555 1_555
H34_3 C30_3 1_555 1_555
C31_3 C30_3 1_555 1_555
H35_3 C31_3 1_555 1_555
H36_3 C31_3 1_555 1_555
H37_3 C31_3 1_555 1_555
C32_3 P3_3 1_555 1_555
H38_3 C32_3 1_555 1_555
H39_3 C32_3 1_555 1_555
C33_3 C32_3 1_555 1_555
H40_3 C33_3 1_555 1_555
H41_3 C33_3 1_555 1_555
H42_3 C33_3 1_555 1_555
Co4_3 Se2_3 1_555 1_555
P4_3 Co4_3 1_555 1_555
C34_3 P4_3 1_555 1_555
C35_3 C34_3 1_555 1_555
H43_3 C35_3 1_555 1_555
C39_3 C34_3 1_555 1_555
H46_3 C39_3 1_555 1_555
C41_3 P4_3 1_555 1_555
H47_3 C41_3 1_555 1_555
H48_3 C41_3 1_555 1_555
C42_3 C41_3 1_555 1_555
H49_3 C42_3 1_555 1_555
H50_3 C42_3 1_555 1_555
H51_3 C42_3 1_555 1_555
C43_3 P4_3 1_555 1_555
H52_3 C43_3 1_555 1_555
H53_3 C43_3 1_555 1_555
C44_3 C43_3 1_555 1_555
H55_3 C44_3 1_555 1_555
H56_3 C44_3 1_555 1_555
Co5_3 Se1_3 1_555 1_555
P5_3 Co5_3 1_555 1_555
C45_3 P5_3 1_555 1_555
H59_3 C49_3 1_555 1_555
C50_3 C45_3 1_555 1_555
H60_3 C50_3 1_555 1_555
C52_3 P5_3 1_555 1_555
H61_3 C52_3 1_555 1_555
H62_3 C52_3 1_555 1_555
C53_3 C52_3 1_555 1_555
H63_3 C53_3 1_555 1_555
H64_3 C53_3 1_555 1_555
H65_3 C53_3 1_555 1_555
C54_3 P5_3 1_555 1_555
H66_3 C54_3 1_555 1_555
H67_3 C54_3 1_555 1_555
Co6_3 Se3_3 1_555 1_555
P6_3 Co6_3 1_555 1_555
C56_3 P6_3 1_555 1_555
C57_3 C56_3 1_555 1_555
H71_3 C57_3 1_555 1_555
C58_3 C57_3 1_555 1_555
H72_3 C58_3 1_555 1_555
C59_3 C58_3 1_555 1_555
C60_3 C59_3 1_555 1_555
H73_3 C60_3 1_555 1_555
C61_3 C56_3 1_555 1_555
H74_3 C61_3 1_555 1_555
C62_3 C59_3 1_555 1_555
O21 C62_3 1_555 1_555
O22 C62_3 1_555 1_555
C63_3 P6_3 1_555 1_555
H75_3 C63_3 1_555 1_555
H76_3 C63_3 1_555 1_555
C64_3 C63_3 1_555 1_555
H77_3 C64_3 1_555 1_555
H78_3 C64_3 1_555 1_555
H79_3 C64_3 1_555 1_555
C65_3 P6_3 1_555 1_555
H80_3 C65_3 1_555 1_555
H81_3 C65_3 1_555 1_555
C66_3 C65_3 1_555 1_555
H83_3 C66_3 1_555 1_555
H84_3 C66_3 1_555 1_555
Se2_3 Co5_3 1_555 1_555
Se3_3 Co5_3 1_555 1_555
Se4_3 Co2_3 1_555 1_555
Se5_3 Co4_3 1_555 1_555
Se5_3 Co6_3 1_555 1_555
Se6_3 Co3_3 1_555 1_555
Se6_3 Co6_3 1_555 1_555
Se7_3 Co3_3 1_555 1_555
Se7_3 Co4_3 1_555 1_555
Se8_3 Co5_3 1_555 1_555
Se8_3 Co6_3 1_555 1_555
C16_3 C17_3 1_555 1_555
C27_3 C28_3 1_555 1_555
C38_3 C39_3 1_555 1_555
C49_3 C50_3 1_555 1_555
C60_3 C61_3 1_555 1_555
Se1_4 Co1_4 1_555 1_555
Se2_4 Co1_4 1_555 1_555
Se3_4 Co2_4 1_555 1_555
Se4_4 Co1_4 1_555 1_555
Se5_4 Co3_4 1_555 1_555
Se6_4 Co2_4 1_555 1_555
Se7_4 Co1_4 1_555 1_555
Se8_4 Co4_4 1_555 1_555
Zn4 O10_4 1_555 1_555
Zn7 O9_4 1_555 1_555
Co1_4 P1_4 1_555 1_555
P1_4 C1_4 1_555 1_555
C8_4 P1_4 1_555 1_555
H6_4 C8_4 1_555 1_555
C10_4 P1_4 1_555 1_555
H10_4 C10_4 1_555 1_555
H11_4 C10_4 1_555 1_555
C11_4 C10_4 1_555 1_555
H13_4 C11_4 1_555 1_555
H14_4 C11_4 1_555 1_555
Co2_4 Se1_4 1_555 1_555
P2_4 Co2_4 1_555 1_555
C12_4 P2_4 1_555 1_555
C13_4 C12_4 1_555 1_555
H15_4 C13_4 1_555 1_555
C14_4 C13_4 1_555 1_555
H16_4 C14_4 1_555 1_555
C15_4 C14_4 1_555 1_555
C16_4 C15_4 1_555 1_555
H17_4 C16_4 1_555 1_555
C17_4 C12_4 1_555 1_555
H18_4 C17_4 1_555 1_555
C18_4 C15_4 1_555 1_555
O3_2 C18_4 1_555 1_555
O4_2 C18_4 1_555 1_555
C19_4 P2_4 1_555 1_555
H19_4 C19_4 1_555 1_555
H20_4 C19_4 1_555 1_555
C20_4 C19_4 1_555 1_555
H21_4 C20_4 1_555 1_555
H22_4 C20_4 1_555 1_555
H23_4 C20_4 1_555 1_555
C21_4 P2_4 1_555 1_555
H24_4 C21_4 1_555 1_555
H25_4 C21_4 1_555 1_555
C22_4 C21_4 1_555 1_555
H26_4 C22_4 1_555 1_555
H27_4 C22_4 1_555 1_555
H28_4 C22_4 1_555 1_555
Co3_4 Se4_4 1_555 1_555
P3_4 Co3_4 1_555 1_555
C23_4 P3_4 1_555 1_555
H31_4 C27_4 1_555 1_555
C28_4 C23_4 1_555 1_555
H32_4 C28_4 1_555 1_555
C30_4 P3_4 1_555 1_555
H33_4 C30_4 1_555 1_555
H34_4 C30_4 1_555 1_555
C31_4 C30_4 1_555 1_555
H35_4 C31_4 1_555 1_555
H36_4 C31_4 1_555 1_555
H37_4 C31_4 1_555 1_555
C32_4 P3_4 1_555 1_555
H38_4 C32_4 1_555 1_555
H39_4 C32_4 1_555 1_555
C33_4 C32_4 1_555 1_555
H40_4 C33_4 1_555 1_555
H41_4 C33_4 1_555 1_555
H42_4 C33_4 1_555 1_555
Co4_4 Se2_4 1_555 1_555
P4_4 Co4_4 1_555 1_555
C34_4 P4_4 1_555 1_555
C35_4 C34_4 1_555 1_555
H43_4 C35_4 1_555 1_555
C39_4 C34_4 1_555 1_555
H46_4 C39_4 1_555 1_555
C41_4 P4_4 1_555 1_555
H47_4 C41_4 1_555 1_555
H48_4 C41_4 1_555 1_555
C42_4 C41_4 1_555 1_555
H49_4 C42_4 1_555 1_555
H50_4 C42_4 1_555 1_555
H51_4 C42_4 1_555 1_555
C43_4 P4_4 1_555 1_555
H52_4 C43_4 1_555 1_555
H53_4 C43_4 1_555 1_555
C44_4 C43_4 1_555 1_555
H55_4 C44_4 1_555 1_555
H56_4 C44_4 1_555 1_555
Co5_4 Se1_4 1_555 1_555
P5_4 Co5_4 1_555 1_555
C45_4 P5_4 1_555 1_555
C46_4 C45_4 1_555 1_555
H57_4 C46_4 1_555 1_555
C47_4 C46_4 1_555 1_555
H58_4 C47_4 1_555 1_555
C48_4 C47_4 1_555 1_555
C49_4 C48_4 1_555 1_555
H59_4 C49_4 1_555 1_555
C50_4 C45_4 1_555 1_555
H60_4 C50_4 1_555 1_555
C51_4 C48_4 1_555 1_555
O9_4 C51_4 1_555 1_555
O10_4 C51_4 1_555 1_555
C52_4 P5_4 1_555 1_555
H61_4 C52_4 1_555 1_555
H62_4 C52_4 1_555 1_555
C53_4 C52_4 1_555 1_555
H63_4 C53_4 1_555 1_555
H64_4 C53_4 1_555 1_555
H65_4 C53_4 1_555 1_555
C54_4 P5_4 1_555 1_555
H66_4 C54_4 1_555 1_555
H67_4 C54_4 1_555 1_555
Co6_4 Se3_4 1_555 1_555
P6_4 Co6_4 1_555 1_555
C56_4 P6_4 1_555 1_555
C57_4 C56_4 1_555 1_555
H71_4 C57_4 1_555 1_555
C58_4 C57_4 1_555 1_555
H72_4 C58_4 1_555 1_555
C59_4 C58_4 1_555 1_555
C60_4 C59_4 1_555 1_555
H73_4 C60_4 1_555 1_555
C61_4 C56_4 1_555 1_555
H74_4 C61_4 1_555 1_555
C62_4 C59_4 1_555 1_555
O21_2 C62_4 1_555 1_555
O22_2 C62_4 1_555 1_555
C63_4 P6_4 1_555 1_555
H75_4 C63_4 1_555 1_555
H76_4 C63_4 1_555 1_555
C64_4 C63_4 1_555 1_555
H77_4 C64_4 1_555 1_555
H78_4 C64_4 1_555 1_555
H79_4 C64_4 1_555 1_555
C65_4 P6_4 1_555 1_555
H80_4 C65_4 1_555 1_555
H81_4 C65_4 1_555 1_555
C66_4 C65_4 1_555 1_555
H82_4 C66_4 1_555 1_555
H83_4 C66_4 1_555 1_555
H84_4 C66_4 1_555 1_555
O13_4 Zn4 1_555 1_555
C67_4 O13_4 1_555 1_555
H85_4 C67_4 1_555 1_555
H86_4 C67_4 1_555 1_555
H87_4 C67_4 1_555 1_555
Zn10_2 O3_2 1_555 1_555
Se2_4 Co5_4 1_555 1_555
Se3_4 Co5_4 1_555 1_555
Se4_4 Co2_4 1_555 1_555
Se5_4 Co4_4 1_555 1_555
Se5_4 Co6_4 1_555 1_555
Se6_4 Co3_4 1_555 1_555
Se6_4 Co6_4 1_555 1_555
Se7_4 Co3_4 1_555 1_555
Se7_4 Co4_4 1_555 1_555
Se8_4 Co5_4 1_555 1_555
Se8_4 Co6_4 1_555 1_555
C16_4 C17_4 1_555 1_555
O4_2 Zn10_2 1_555 1_555
C27_4 C28_4 1_555 1_555
C38_4 C39_4 1_555 1_555
C49_4 C50_4 1_555 1_555
C60_4 C61_4 1_555 1_555
C2_4 H1_4 1_555 1_555
C3_4 C2_4 1_555 1_555
H2_4 C3_4 1_555 1_555
C4_4 C3_4 1_555 1_555
C5_4 C4_4 1_555 1_555
H3_4 C5_4 1_555 1_555
C7_4 C4_4 1_555 1_555
O1_4 C7_4 1_555 1_555
O14_2 C7_4 1_555 1_555
H7_4 C9_4 1_555 1_555
H8_4 C9_4 1_555 1_555
H9_4 C9_4 1_555 1_555
H44_4 C36_4 1_555 1_555
C37_4 C36_4 1_555 1_555
C40_4 C37_4 1_555 1_555
O19_2 C40_4 1_555 1_555
O20_2 C40_4 1_555 1_555
H68_4 C55_4 1_555 1_555
H69_4 C55_4 1_555 1_555
H70_4 C55_4 1_555 1_555
Zn10_2 O1_4 1_555 1_555
C5_4 C6_4 1_555 1_555
H29_4 C24_4 1_555 1_555
C25_4 C24_4 1_555 1_555
H30_4 C25_4 1_555 1_555
C26_4 C25_4 1_555 1_555
C29_4 C26_4 1_555 1_555
O18_2 C29_4 1_555 1_555

#END
