
###############################################################################
#
# This file contains modified crystal structure data generated from the
# MOF subset of the Cambridge Structural Database (CSD) v543 
# hosted by the Cambridge Crystallographic Data Centre (CCDC).
#
# This work is licensed under the Creative Commons
# Attribution-NonCommercial-ShareAlike 4.0 International License.
# To view a copy of this license, visit
# http://creativecommons.org/licenses/by-nc-sa/4.0/
# or send a letter to
# Creative Commons, PO Box 1866, Mountain View, CA 94042, USA.
#
# CIF created using the CSD Python API on 29 September 2022
# The structure has been converted into the P1 space group
# The structure has a 3D framework
# The original CSD entry HUZSOL is in the orthorhombic crystal system
# The framework has been calculated to contain at least 10.0% void space
# The void calculation uses a probe of radius 1.32A, grid spacing 0.4
#
###############################################################################

data_HUZSOL
_chemical_formula_moiety         '(C240 H176 N8 Na7 O60 Zn12)n'
_symmetry_cell_setting           triclinic
_symmetry_space_group_name_H-M   'P 1'
_symmetry_Int_Tables_number      1
_space_group_name_Hall           'P 1'
loop_
_symmetry_equiv_pos_site_id
_symmetry_equiv_pos_as_xyz
1 x,y,z
_cell_length_a                   17.108(4)
_cell_length_b                   21.644(5)
_cell_length_c                   25.258(6)
_cell_angle_alpha                90
_cell_angle_beta                 90
_cell_angle_gamma                90
_cell_volume                     9352.67
loop_
_atom_site_label
_atom_site_type_symbol
_atom_site_fract_x
_atom_site_fract_y
_atom_site_fract_z
C34 C 0.0178(6) 0.0983(6) 0.0022(4)
C35 C 0.0828(5) 0.0773(6) 0.0286(4)
C36 C 0.0723(5) 0.0451(5) 0.0762(4)
H25 H 0.1160 0.0340 0.0959
H29 H 0.0716 0.0288 0.1871
C49 C 0.1634(6) 0.0883(6) 0.0066(4)
C54 C 0.2197(6) 0.0417(7) 0.0109(5)
H37 H 0.2072 0.0059 0.0294
H39 H 0.1856 0.0308 0.3061
H40 H 0.2634 0.0112 0.3343
Zn8 Zn 0.50716(5) 0.16538(5) 0.88424(4)
H24 H 0.0240 0.1222 0.9719
C50 C 0.1850(6) 0.1412(5) 0.9819(4)
H34 H 0.1495 0.1736 0.9795
C51 C 0.2607(5) 0.1483(5) 0.9595(4)
H35 H 0.2735 0.1844 0.9416
C52 C 0.3139(6) 0.1028(6) 0.9642(5)
C53 C 0.2942(6) 0.0470(7) 0.9883(6)
H36 H 0.3294 0.0142 0.9892
C57 C 0.3954(6) 0.1107(7) 0.9390(5)
O11 O 0.4412(6) 0.0657(5) 0.9402(6)
O12 O 0.4078(4) 0.1595(4) 0.9190(3)
Na1 Na 0.1039(9) 0.7500 0.2894(6)
C4 C 0.0178(6) 0.4017(6) 0.0022(4)
C5 C 0.0828(5) 0.4227(6) 0.0286(4)
C6 C 0.0723(5) 0.4549(5) 0.0762(4)
H3 H 0.1160 0.4660 0.0959
C11 C 0.0280(5) 0.5421(5) 0.2293(4)
H6 H 0.0611 0.5377 0.2582
C12 C 0.0352(6) 0.5030(5) 0.1863(4)
H7 H 0.0716 0.4712 0.1871
C19 C 0.1634(6) 0.4117(6) 0.0066(4)
C24 C 0.2197(6) 0.4583(7) 0.0109(5)
H15 H 0.2072 0.4941 0.0294
C28 C 0.1908(15) 0.6201(18) 0.291(2)
H16 H 0.1480 0.6211 0.3141
C29 C 0.213(2) 0.503(2) 0.322(2)
H17 H 0.1856 0.4692 0.3061
H18 H 0.2634 0.4888 0.3343
H19 H 0.1837 0.5183 0.3517
C30 C 0.2593(15) 0.534(3) 0.2354(17)
H20 H 0.2837 0.5678 0.2173
H21 H 0.2980 0.5034 0.2440
H22 H 0.2202 0.5159 0.2129
N1 N 0.2246(10) 0.5550(9) 0.2814(10)
O8 O 0.209(2) 0.666(3) 0.276(3)
Na4 Na 0.2848(5) 0.7500 0.2349(3)
C41 C 0.0280(5) 0.9579(5) 0.2293(4)
H28 H 0.0611 0.9623 0.2582
C42 C 0.0352(6) 0.9970(5) 0.1863(4)
C58 C 0.1908(15) 0.8799(18) 0.291(2)
H38 H 0.1480 0.8789 0.3141
C59 C 0.213(2) 0.997(2) 0.322(2)
H41 H 0.1837 0.9817 0.3517
C60 C 0.2593(15) 0.966(3) 0.2354(17)
H42 H 0.2837 0.9322 0.2173
H43 H 0.2980 0.9966 0.2440
H44 H 0.2202 0.9841 0.2129
N2 N 0.2246(10) 0.9450(9) 0.2814(10)
O13 O 0.0922(4) 0.6595(4) 0.4190(3)
O14 O 0.0922(4) 0.8405(4) 0.4190(3)
O21 O 0.209(2) 0.834(3) 0.276(3)
H2 H 0.0240 0.3778 0.9719
C20 C 0.1850(6) 0.3588(5) 0.9819(4)
H12 H 0.1495 0.3264 0.9795
C21 C 0.2607(5) 0.3517(5) 0.9595(4)
H13 H 0.2735 0.3156 0.9416
C22 C 0.3139(6) 0.3972(6) 0.9642(5)
C23 C 0.2942(6) 0.4530(7) 0.9883(6)
H14 H 0.3294 0.4858 0.9892
C27 C 0.3954(6) 0.3893(7) 0.9390(5)
O3 O 0.4412(6) 0.4343(5) 0.9402(6)
O4 O 0.4078(4) 0.3405(4) 0.9190(3)
Zn6 Zn 0.50716(5) 0.33462(5) 0.88424(4)
Zn4 Zn 0.61922(7) 0.2500 0.81365(5)
C43 C 0.8727(6) 0.1072(6) 0.9908(5)
C45 C 0.7342(6) 0.1347(6) 0.9897(4)
C46 C 0.7381(6) 0.1435(5) 0.9343(4)
C47 C 0.8073(6) 0.1327(5) 0.9088(4)
H32 H 0.8096 0.1380 0.8723
C48 C 0.8738(6) 0.1144(6) 0.9355(5)
H33 H 0.9196 0.1067 0.9168
C56 C 0.6654(5) 0.1617(5) 0.9054(4)
O15 O 0.6754(4) 0.1827(4) 0.8597(3)
O18 O 0.6009(4) 0.1541(3) 0.9280(2)
Zn1 Zn 0.88078(7) 0.7500 0.31365(5)
Zn2 Zn 0.99284(5) 0.66538(5) 0.38424(4)
Na2 Na 0.7848(5) 0.7500 0.2651(3)
C1 C 0.9986(5) 0.4705(5) 0.0945(4)
C2 C 0.9334(5) 0.4501(6) 0.0654(4)
H1 H 0.8832 0.4600 0.0768
C3 C 0.9431(5) 0.4156(6) 0.0200(4)
C7 C 0.9879(5) 0.5112(5) 0.1413(4)
C8 C 0.9320(5) 0.5553(6) 0.1425(4)
H4 H 0.8981 0.5595 0.1140
C9 C 0.9245(5) 0.5940(6) 0.1849(4)
H5 H 0.8872 0.6253 0.1840
C10 C 0.9714(5) 0.5875(4) 0.2292(4)
C14 C 0.8011(6) 0.3818(7) 0.0163(5)
H8 H 0.7989 0.3858 0.0529
H9 H 0.6873 0.3601 0.0077
C25 C 0.9627(5) 0.6314(4) 0.2754(3)
O1 O 0.9946(4) 0.6157(3) 0.3190(3)
O2 O 0.9263(4) 0.6808(3) 0.2666(2)
O7 O 0.9853(4) 0.7500 0.3559(3)
Zn5 Zn 0.99284(5) 0.83462(5) 0.38424(4)
Na3 Na 0.6039(9) 0.7500 0.2106(6)
C37 C 0.9879(5) 0.9888(5) 0.1413(4)
C38 C 0.9320(5) 0.9447(6) 0.1425(4)
H26 H 0.8981 0.9405 0.1140
C39 C 0.9245(5) 0.9060(6) 0.1849(4)
H27 H 0.8872 0.8747 0.1840
C40 C 0.9714(5) 0.9125(4) 0.2292(4)
C55 C 0.9627(5) 0.8686(4) 0.2754(3)
O9 O 0.9946(4) 0.8843(3) 0.3190(3)
O10 O 0.9263(4) 0.8192(3) 0.2666(2)
O16 O 0.8246(4) 0.6827(4) 0.3597(3)
O17 O 0.8246(4) 0.8173(4) 0.3597(3)
O19 O 0.8991(4) 0.6541(3) 0.4280(2)
O20 O 0.8991(4) 0.8459(3) 0.4280(2)
O22 O 0.709(2) 0.834(3) 0.224(3)
O23 O 0.709(2) 0.666(3) 0.224(3)
C13 C 0.8727(6) 0.3928(6) 0.9908(5)
C15 C 0.7342(6) 0.3653(6) 0.9897(4)
C16 C 0.7381(6) 0.3565(5) 0.9343(4)
C17 C 0.8073(6) 0.3673(5) 0.9088(4)
H10 H 0.8096 0.3620 0.8723
C18 C 0.8738(6) 0.3856(6) 0.9355(5)
H11 H 0.9196 0.3933 0.9168
C26 C 0.6654(5) 0.3383(5) 0.9054(4)
O5 O 0.6754(4) 0.3173(4) 0.8597(3)
O6 O 0.6009(4) 0.3459(3) 0.9280(2)
Na1_2 Na 0.3961(9) 0.2500 0.7894(6)
Na2_2 Na 0.7152(5) 0.2500 0.7651(3)
C1_2 C 0.5014(5) 0.5295(5) 0.5945(4)
C2_2 C 0.5666(5) 0.5499(6) 0.5654(4)
H1_2 H 0.6168 0.5400 0.5768
C3_2 C 0.5569(5) 0.5844(6) 0.5200(4)
C4_2 C 0.4822(6) 0.5983(6) 0.5022(4)
H2_2 H 0.4760 0.6222 0.4719
C5_2 C 0.4172(5) 0.5773(6) 0.5286(4)
C6_2 C 0.4277(5) 0.5451(5) 0.5762(4)
H3_2 H 0.3840 0.5340 0.5959
C7_2 C 0.5121(5) 0.4888(5) 0.6413(4)
C8_2 C 0.5680(5) 0.4447(6) 0.6425(4)
H4_2 H 0.6019 0.4405 0.6140
C9_2 C 0.5755(5) 0.4060(6) 0.6849(4)
H5_2 H 0.6128 0.3747 0.6840
C10_2 C 0.5286(5) 0.4125(4) 0.7292(4)
C11_2 C 0.4720(5) 0.4579(5) 0.7293(4)
H6_2 H 0.4389 0.4623 0.7582
C12_2 C 0.4648(6) 0.4970(5) 0.6863(4)
H7_2 H 0.4284 0.5288 0.6871
C13_2 C 0.6273(6) 0.6072(6) 0.4908(5)
C14_2 C 0.6989(6) 0.6182(7) 0.5163(5)
H8_2 H 0.7011 0.6142 0.5529
C15_2 C 0.7658(6) 0.6347(6) 0.4897(4)
H9_2 H 0.8127 0.6399 0.5077
C16_2 C 0.7619(6) 0.6435(5) 0.4343(4)
C17_2 C 0.6927(6) 0.6327(5) 0.4088(4)
H10_2 H 0.6904 0.6380 0.3723
C18_2 C 0.6262(6) 0.6144(6) 0.4355(5)
H11_2 H 0.5804 0.6067 0.4168
C19_2 C 0.3366(6) 0.5883(6) 0.5066(4)
C20_2 C 0.3150(6) 0.6412(5) 0.4819(4)
H12_2 H 0.3505 0.6736 0.4795
C21_2 C 0.2393(5) 0.6483(5) 0.4595(4)
H13_2 H 0.2265 0.6844 0.4416
C22_2 C 0.1861(6) 0.6028(6) 0.4642(5)
C23_2 C 0.2058(6) 0.5470(7) 0.4883(6)
H14_2 H 0.1706 0.5142 0.4892
C24_2 C 0.2803(6) 0.5417(7) 0.5109(5)
H15_2 H 0.2928 0.5059 0.5294
C25_2 C 0.5373(5) 0.3686(4) 0.7754(3)
C26_2 C 0.8346(5) 0.6617(5) 0.4054(4)
C27_2 C 0.1046(6) 0.6107(7) 0.4390(5)
C28_2 C 0.3092(15) 0.3799(18) 0.791(2)
H16_2 H 0.3520 0.3789 0.8141
C29_2 C 0.287(2) 0.497(2) 0.822(2)
H17_2 H 0.3144 0.5308 0.8061
H18_2 H 0.2366 0.5112 0.8343
H19_2 H 0.3163 0.4817 0.8517
C30_2 C 0.2407(15) 0.466(3) 0.7354(17)
H20_2 H 0.2163 0.4322 0.7173
H21_2 H 0.2020 0.4966 0.7440
H22_2 H 0.2798 0.4841 0.7129
N1_2 N 0.2754(10) 0.4450(9) 0.7814(10)
O1_2 O 0.5054(4) 0.3843(3) 0.8190(3)
O2_2 O 0.5737(4) 0.3192(3) 0.7666(2)
O3_2 O 0.0588(6) 0.5657(5) 0.4402(6)
O7_2 O 0.5147(4) 0.2500 0.8559(3)
O8_2 O 0.291(2) 0.334(3) 0.776(3)
Na3_2 Na 0.8961(9) 0.2500 0.7106(6)
Na4_2 Na 0.2152(5) 0.2500 0.7349(3)
C37_2 C 0.5121(5) 0.0112(5) 0.6413(4)
C38_2 C 0.5680(5) 0.0553(6) 0.6425(4)
H26_2 H 0.6019 0.0595 0.6140
C39_2 C 0.5755(5) 0.0940(6) 0.6849(4)
H27_2 H 0.6128 0.1253 0.6840
C40_2 C 0.5286(5) 0.0875(4) 0.7292(4)
C41_2 C 0.4720(5) 0.0421(5) 0.7293(4)
H28_2 H 0.4389 0.0377 0.7582
C42_2 C 0.4648(6) 0.0030(5) 0.6863(4)
C55_2 C 0.5373(5) 0.1314(4) 0.7754(3)
C58_2 C 0.3092(15) 0.1201(18) 0.791(2)
H38_2 H 0.3520 0.1211 0.8141
C59_2 C 0.287(2) 0.003(2) 0.822(2)
H41_2 H 0.3163 0.0183 0.8517
C60_2 C 0.2407(15) 0.034(3) 0.7354(17)
H42_2 H 0.2163 0.0678 0.7173
H43_2 H 0.2020 0.0034 0.7440
H44_2 H 0.2798 0.0159 0.7129
N2_2 N 0.2754(10) 0.0550(9) 0.7814(10)
O9_2 O 0.5054(4) 0.1157(3) 0.8190(3)
O10_2 O 0.5737(4) 0.1808(3) 0.7666(2)
O21_2 O 0.291(2) 0.166(3) 0.776(3)
O22_2 O 0.791(2) 0.166(3) 0.724(3)
O23_2 O 0.791(2) 0.334(3) 0.724(3)
C31 C 0.5014(5) 0.9705(5) 0.5945(4)
C32 C 0.5666(5) 0.9501(6) 0.5654(4)
H23 H 0.6168 0.9600 0.5768
C33 C 0.5569(5) 0.9156(6) 0.5200(4)
C34_2 C 0.4822(6) 0.9017(6) 0.5022(4)
H24_2 H 0.4760 0.8778 0.4719
C35_2 C 0.4172(5) 0.9227(6) 0.5286(4)
C36_2 C 0.4277(5) 0.9549(5) 0.5762(4)
H25_2 H 0.3840 0.9660 0.5959
H29_2 H 0.4284 0.9712 0.6871
C43_2 C 0.6273(6) 0.8928(6) 0.4908(5)
C44 C 0.6989(6) 0.8818(7) 0.5163(5)
H30 H 0.7011 0.8858 0.5529
C45_2 C 0.7658(6) 0.8653(6) 0.4897(4)
H31 H 0.8127 0.8601 0.5077
C46_2 C 0.7619(6) 0.8565(5) 0.4343(4)
C47_2 C 0.6927(6) 0.8673(5) 0.4088(4)
H32_2 H 0.6904 0.8620 0.3723
C48_2 C 0.6262(6) 0.8856(6) 0.4355(5)
H33_2 H 0.5804 0.8933 0.4168
C49_2 C 0.3366(6) 0.9117(6) 0.5066(4)
C50_2 C 0.3150(6) 0.8588(5) 0.4819(4)
H34_2 H 0.3505 0.8264 0.4795
C51_2 C 0.2393(5) 0.8517(5) 0.4595(4)
H35_2 H 0.2265 0.8156 0.4416
C52_2 C 0.1861(6) 0.8972(6) 0.4642(5)
C53_2 C 0.2058(6) 0.9530(7) 0.4883(6)
H36_2 H 0.1706 0.9858 0.4892
C54_2 C 0.2803(6) 0.9583(7) 0.5109(5)
H37_2 H 0.2928 0.9941 0.5294
C56_2 C 0.8346(5) 0.8383(5) 0.4054(4)
C57_2 C 0.1046(6) 0.8893(7) 0.4390(5)
H39_2 H 0.3144 0.9692 0.8061
H40_2 H 0.2366 0.9888 0.8343
O11_2 O 0.0588(6) 0.9343(5) 0.4402(6)
Zn4_2 Zn 0.38078(7) 0.7500 0.18635(5)
Zn9 Zn 0.49284(5) 0.66538(5) 0.11576(4)
C43_3 C 0.1273(6) 0.6072(6) 0.0092(5)
C45_3 C 0.2658(6) 0.6347(6) 0.0103(4)
C46_3 C 0.2619(6) 0.6435(5) 0.0657(4)
C47_3 C 0.1927(6) 0.6327(5) 0.0912(4)
H32_3 H 0.1904 0.6380 0.1277
C48_3 C 0.1262(6) 0.6144(6) 0.0645(5)
H33_3 H 0.0804 0.6067 0.0832
C56_3 C 0.3346(5) 0.6617(5) 0.0946(4)
O15_2 O 0.3246(4) 0.6827(4) 0.1403(3)
O18_2 O 0.3991(4) 0.6541(3) 0.0720(2)
Zn1_2 Zn 0.11922(7) 0.2500 0.68635(5)
Zn2_2 Zn 0.00716(5) 0.16538(5) 0.61576(4)
C7_3 C 0.0121(5) 0.0112(5) 0.8587(4)
C8_3 C 0.0680(5) 0.0553(6) 0.8575(4)
H4_3 H 0.1019 0.0595 0.8860
C9_3 C 0.0755(5) 0.0940(6) 0.8151(4)
H5_3 H 0.1128 0.1253 0.8160
C10_3 C 0.0286(5) 0.0875(4) 0.7708(4)
C25_3 C 0.0373(5) 0.1314(4) 0.7246(3)
O1_3 O 0.0054(4) 0.1157(3) 0.6810(3)
O2_3 O 0.0737(4) 0.1808(3) 0.7334(2)
O7_3 O 0.0147(4) 0.2500 0.6441(3)
Zn5_2 Zn 0.00716(5) 0.33462(5) 0.61576(4)
C31_2 C 0.0014(5) 0.5295(5) 0.9055(4)
C32_2 C 0.0666(5) 0.5499(6) 0.9346(4)
H23_2 H 0.1168 0.5400 0.9232
C33_2 C 0.0569(5) 0.5844(6) 0.9800(4)
C37_3 C 0.0121(5) 0.4888(5) 0.8587(4)
C38_3 C 0.0680(5) 0.4447(6) 0.8575(4)
H26_3 H 0.1019 0.4405 0.8860
C39_3 C 0.0755(5) 0.4060(6) 0.8151(4)
H27_3 H 0.1128 0.3747 0.8160
C40_3 C 0.0286(5) 0.4125(4) 0.7708(4)
C44_2 C 0.1989(6) 0.6182(7) 0.9837(5)
H30_2 H 0.2011 0.6142 0.9471
H31_2 H 0.3127 0.6399 0.9923
C55_3 C 0.0373(5) 0.3686(4) 0.7246(3)
O9_3 O 0.0054(4) 0.3843(3) 0.6810(3)
O10_3 O 0.0737(4) 0.3192(3) 0.7334(2)
O16_2 O 0.1754(4) 0.1827(4) 0.6403(3)
O17_2 O 0.1754(4) 0.3173(4) 0.6403(3)
O19_2 O 0.1009(4) 0.1541(3) 0.5720(2)
O20_2 O 0.1009(4) 0.3459(3) 0.5720(2)
C13_3 C 0.1273(6) 0.8928(6) 0.0092(5)
C15_3 C 0.2658(6) 0.8653(6) 0.0103(4)
C16_3 C 0.2619(6) 0.8565(5) 0.0657(4)
C17_3 C 0.1927(6) 0.8673(5) 0.0912(4)
H10_3 H 0.1904 0.8620 0.1277
C18_3 C 0.1262(6) 0.8856(6) 0.0645(5)
H11_3 H 0.0804 0.8933 0.0832
C26_3 C 0.3346(5) 0.8383(5) 0.0946(4)
O5_2 O 0.3246(4) 0.8173(4) 0.1403(3)
O6_2 O 0.3991(4) 0.8459(3) 0.0720(2)
Zn7 Zn 0.49284(5) 0.83462(5) 0.11576(4)
H24_3 H 0.9760 0.6222 0.0281
C50_3 C 0.8150(6) 0.6412(5) 0.0181(4)
H34_3 H 0.8505 0.6736 0.0205
C51_3 C 0.7393(5) 0.6483(5) 0.0405(4)
H35_3 H 0.7265 0.6844 0.0584
C52_3 C 0.6861(6) 0.6028(6) 0.0358(5)
C53_3 C 0.7058(6) 0.5470(7) 0.0117(6)
H36_3 H 0.6706 0.5142 0.0108
C57_3 C 0.6046(6) 0.6107(7) 0.0610(5)
O11_3 O 0.5588(6) 0.5657(5) 0.0598(6)
O12_2 O 0.5922(4) 0.6595(4) 0.0810(3)
C11_3 C 0.9720(5) 0.0421(5) 0.7707(4)
H6_3 H 0.9389 0.0377 0.7418
C12_3 C 0.9648(6) 0.0030(5) 0.8137(4)
C28_3 C 0.8092(15) 0.1201(18) 0.709(2)
H16_3 H 0.8520 0.1211 0.6859
C29_3 C 0.787(2) 0.003(2) 0.678(2)
H19_3 H 0.8163 0.0183 0.6483
C30_3 C 0.7407(15) 0.034(3) 0.7646(17)
H20_3 H 0.7163 0.0678 0.7827
H21_3 H 0.7020 0.0034 0.7560
H22_3 H 0.7798 0.0159 0.7871
N1_3 N 0.7754(10) 0.0550(9) 0.7186(10)
C34_3 C 0.9822(6) 0.5983(6) 0.9978(4)
C35_3 C 0.9172(5) 0.5773(6) 0.9714(4)
C36_3 C 0.9277(5) 0.5451(5) 0.9238(4)
H25_3 H 0.8840 0.5340 0.9041
C41_3 C 0.9720(5) 0.4579(5) 0.7707(4)
H28_3 H 0.9389 0.4623 0.7418
C42_3 C 0.9648(6) 0.4970(5) 0.8137(4)
H29_3 H 0.9284 0.5288 0.8129
C49_3 C 0.8366(6) 0.5883(6) 0.9934(4)
C54_3 C 0.7803(6) 0.5417(7) 0.9891(5)
H37_3 H 0.7928 0.5059 0.9706
C58_3 C 0.8092(15) 0.3799(18) 0.709(2)
H38_3 H 0.8520 0.3789 0.6859
C59_3 C 0.787(2) 0.497(2) 0.678(2)
H39_3 H 0.8144 0.5308 0.6939
H40_3 H 0.7366 0.5112 0.6657
H41_3 H 0.8163 0.4817 0.6483
C60_3 C 0.7407(15) 0.466(3) 0.7646(17)
H42_3 H 0.7163 0.4322 0.7827
H43_3 H 0.7020 0.4966 0.7560
H44_3 H 0.7798 0.4841 0.7871
N2_3 N 0.7754(10) 0.4450(9) 0.7186(10)
O13_2 O 0.9078(4) 0.1595(4) 0.5810(3)
O14_2 O 0.9078(4) 0.3405(4) 0.5810(3)
H2_3 H 0.9760 0.8778 0.0281
C20_3 C 0.8150(6) 0.8588(5) 0.0181(4)
H12_3 H 0.8505 0.8264 0.0205
C21_3 C 0.7393(5) 0.8517(5) 0.0405(4)
H13_3 H 0.7265 0.8156 0.0584
C22_3 C 0.6861(6) 0.8972(6) 0.0358(5)
C23_3 C 0.7058(6) 0.9530(7) 0.0117(6)
H14_3 H 0.6706 0.9858 0.0108
C27_3 C 0.6046(6) 0.8893(7) 0.0610(5)
O3_3 O 0.5588(6) 0.9343(5) 0.0598(6)
O4_2 O 0.5922(4) 0.8405(4) 0.0810(3)
C1_3 C 0.4986(5) 0.0295(5) 0.4055(4)
C2_3 C 0.4334(5) 0.0499(6) 0.4346(4)
H1_3 H 0.3832 0.0400 0.4232
C3_3 C 0.4431(5) 0.0844(6) 0.4800(4)
C4_3 C 0.5178(6) 0.0983(6) 0.4978(4)
H2_4 H 0.5240 0.1222 0.5281
C5_3 C 0.5828(5) 0.0773(6) 0.4714(4)
C6_3 C 0.5723(5) 0.0451(5) 0.4238(4)
H3_3 H 0.6160 0.0340 0.4041
H7_3 H 0.5716 0.0288 0.3129
C13_4 C 0.3727(6) 0.1072(6) 0.5092(5)
C14_3 C 0.3011(6) 0.1182(7) 0.4837(5)
H8_3 H 0.2989 0.1142 0.4471
C15_4 C 0.2342(6) 0.1347(6) 0.5103(4)
H9_3 H 0.1873 0.1399 0.4923
C16_4 C 0.2381(6) 0.1435(5) 0.5657(4)
C17_4 C 0.3073(6) 0.1327(5) 0.5912(4)
H10_4 H 0.3096 0.1380 0.6277
C18_4 C 0.3738(6) 0.1144(6) 0.5645(5)
H11_4 H 0.4196 0.1067 0.5832
C19_3 C 0.6634(6) 0.0883(6) 0.4934(4)
C20_4 C 0.6850(6) 0.1412(5) 0.5181(4)
H12_4 H 0.6495 0.1736 0.5205
C21_4 C 0.7607(5) 0.1483(5) 0.5405(4)
H13_4 H 0.7735 0.1844 0.5584
C22_4 C 0.8139(6) 0.1028(6) 0.5358(5)
C23_4 C 0.7942(6) 0.0470(7) 0.5117(6)
H14_4 H 0.8294 0.0142 0.5108
C24_3 C 0.7197(6) 0.0417(7) 0.4891(5)
H15_3 H 0.7072 0.0059 0.4706
C26_4 C 0.1654(5) 0.1617(5) 0.5946(4)
C27_4 C 0.8954(6) 0.1107(7) 0.5610(5)
H17_3 H 0.6856 0.0308 0.1939
H18_3 H 0.7634 0.0112 0.1657
O3_4 O 0.9412(6) 0.0657(5) 0.5598(6)
C7_4 C 0.4879(5) 0.9888(5) 0.3587(4)
C8_4 C 0.4320(5) 0.9447(6) 0.3575(4)
H4_4 H 0.3981 0.9405 0.3860
C9_4 C 0.4245(5) 0.9060(6) 0.3151(4)
H5_4 H 0.3872 0.8747 0.3160
C10_4 C 0.4714(5) 0.9125(4) 0.2708(4)
C11_4 C 0.5280(5) 0.9579(5) 0.2707(4)
H6_4 H 0.5611 0.9623 0.2418
C12_4 C 0.5352(6) 0.9970(5) 0.3137(4)
C25_4 C 0.4627(5) 0.8686(4) 0.2246(3)
C28_4 C 0.6908(15) 0.8799(18) 0.209(2)
H16_4 H 0.6480 0.8789 0.1859
C29_4 C 0.713(2) 0.997(2) 0.178(2)
H19_4 H 0.6837 0.9817 0.1483
C30_4 C 0.7593(15) 0.966(3) 0.2646(17)
H20_4 H 0.7837 0.9322 0.2827
H21_4 H 0.7980 0.9966 0.2560
H22_4 H 0.7202 0.9841 0.2871
N1_4 N 0.7246(10) 0.9450(9) 0.2186(10)
O1_4 O 0.4946(4) 0.8843(3) 0.1810(3)
O2_4 O 0.4263(4) 0.8192(3) 0.2334(2)
O7_4 O 0.4853(4) 0.7500 0.1441(3)
C31_3 C 0.4986(5) 0.4705(5) 0.4055(4)
C32_3 C 0.4334(5) 0.4501(6) 0.4346(4)
H23_3 H 0.3832 0.4600 0.4232
C33_3 C 0.4431(5) 0.4156(6) 0.4800(4)
C34_4 C 0.5178(6) 0.4017(6) 0.4978(4)
H24_4 H 0.5240 0.3778 0.5281
C35_4 C 0.5828(5) 0.4227(6) 0.4714(4)
C36_4 C 0.5723(5) 0.4549(5) 0.4238(4)
H25_4 H 0.6160 0.4660 0.4041
C37_4 C 0.4879(5) 0.5112(5) 0.3587(4)
C38_4 C 0.4320(5) 0.5553(6) 0.3575(4)
H26_4 H 0.3981 0.5595 0.3860
C39_4 C 0.4245(5) 0.5940(6) 0.3151(4)
H27_4 H 0.3872 0.6253 0.3160
C40_4 C 0.4714(5) 0.5875(4) 0.2708(4)
C41_4 C 0.5280(5) 0.5421(5) 0.2707(4)
H28_4 H 0.5611 0.5377 0.2418
C42_4 C 0.5352(6) 0.5030(5) 0.3137(4)
H29_4 H 0.5716 0.4712 0.3129
C43_4 C 0.3727(6) 0.3928(6) 0.5092(5)
C44_3 C 0.3011(6) 0.3818(7) 0.4837(5)
H30_3 H 0.2989 0.3858 0.4471
C45_4 C 0.2342(6) 0.3653(6) 0.5103(4)
H31_3 H 0.1873 0.3601 0.4923
C46_4 C 0.2381(6) 0.3565(5) 0.5657(4)
C47_4 C 0.3073(6) 0.3673(5) 0.5912(4)
H32_4 H 0.3096 0.3620 0.6277
C48_4 C 0.3738(6) 0.3856(6) 0.5645(5)
H33_4 H 0.4196 0.3933 0.5832
C49_4 C 0.6634(6) 0.4117(6) 0.4934(4)
C50_4 C 0.6850(6) 0.3588(5) 0.5181(4)
H34_4 H 0.6495 0.3264 0.5205
C51_4 C 0.7607(5) 0.3517(5) 0.5405(4)
H35_4 H 0.7735 0.3156 0.5584
C52_4 C 0.8139(6) 0.3972(6) 0.5358(5)
C53_4 C 0.7942(6) 0.4530(7) 0.5117(6)
H36_4 H 0.8294 0.4858 0.5108
C54_4 C 0.7197(6) 0.4583(7) 0.4891(5)
H37_4 H 0.7072 0.4941 0.4706
C55_4 C 0.4627(5) 0.6314(4) 0.2246(3)
C56_4 C 0.1654(5) 0.3383(5) 0.5946(4)
C57_4 C 0.8954(6) 0.3893(7) 0.5610(5)
C58_4 C 0.6908(15) 0.6201(18) 0.209(2)
H38_4 H 0.6480 0.6211 0.1859
C59_4 C 0.713(2) 0.503(2) 0.178(2)
H39_4 H 0.6856 0.4692 0.1939
H40_4 H 0.7634 0.4888 0.1657
H41_4 H 0.6837 0.5183 0.1483
C60_4 C 0.7593(15) 0.534(3) 0.2646(17)
H42_4 H 0.7837 0.5678 0.2827
H43_4 H 0.7980 0.5034 0.2560
H44_4 H 0.7202 0.5159 0.2871
N2_4 N 0.7246(10) 0.5550(9) 0.2186(10)
O9_4 O 0.4946(4) 0.6157(3) 0.1810(3)
O10_4 O 0.4263(4) 0.6808(3) 0.2334(2)
O11_4 O 0.9412(6) 0.4343(5) 0.5598(6)
C31_4 C 0.9986(5) 0.0295(5) 0.0945(4)
C32_4 C 0.9334(5) 0.0499(6) 0.0654(4)
H23_4 H 0.8832 0.0400 0.0768
C33_4 C 0.9431(5) 0.0844(6) 0.0200(4)
C44_4 C 0.8011(6) 0.1182(7) 0.0163(5)
H30_4 H 0.7989 0.1142 0.0529
H31_4 H 0.6873 0.1399 0.0077
C1_4 C 0.0014(5) 0.9705(5) 0.9055(4)
C2_4 C 0.0666(5) 0.9501(6) 0.9346(4)
H1_4 H 0.1168 0.9600 0.9232
C3_4 C 0.0569(5) 0.9156(6) 0.9800(4)
C14_4 C 0.1989(6) 0.8818(7) 0.9837(5)
H8_4 H 0.2011 0.8858 0.9471
H9_4 H 0.3127 0.8601 0.9923
C4_4 C 0.9822(6) 0.9017(6) 0.9978(4)
C5_4 C 0.9172(5) 0.9227(6) 0.9714(4)
C6_4 C 0.9277(5) 0.9549(5) 0.9238(4)
H3_4 H 0.8840 0.9660 0.9041
H7_4 H 0.9284 0.9712 0.8129
C19_4 C 0.8366(6) 0.9117(6) 0.9934(4)
C24_4 C 0.7803(6) 0.9583(7) 0.9891(5)
H15_4 H 0.7928 0.9941 0.9706
H17_4 H 0.8144 0.9692 0.6939
H18_4 H 0.7366 0.9888 0.6657
loop_
_geom_bond_atom_site_label_1
_geom_bond_atom_site_label_2
_geom_bond_site_symmetry_1
_geom_bond_site_symmetry_2
C35 C34 1_555 1_555
H25 C36 1_555 1_555
C49 C35 1_555 1_555
C54 C49 1_555 1_555
H37 C54 1_555 1_555
C35 C36 1_555 1_555
Zn8 O12 1_555 1_555
H34 C50 1_555 1_555
C51 C50 1_555 1_555
H35 C51 1_555 1_555
C52 C51 1_555 1_555
C53 C52 1_555 1_555
H36 C53 1_555 1_555
C57 C52 1_555 1_555
O11 C57 1_555 1_555
O12 C57 1_555 1_555
C5 C4 1_555 1_555
H3 C6 1_555 1_555
H6 C11 1_555 1_555
H7 C12 1_555 1_555
C19 C5 1_555 1_555
C24 C19 1_555 1_555
H15 C24 1_555 1_555
C28 H16 1_555 1_555
C29 H17 1_555 1_555
H18 C29 1_555 1_555
H19 C29 1_555 1_555
C30 H20 1_555 1_555
H21 C30 1_555 1_555
H22 C30 1_555 1_555
N1 C28 1_555 1_555
O8 Na1 1_555 1_555
Na4 Na1 1_555 1_555
H28 C41 1_555 1_555
C58 H38 1_555 1_555
H41 C59 1_555 1_555
C60 H42 1_555 1_555
H43 C60 1_555 1_555
H44 C60 1_555 1_555
N2 C58 1_555 1_555
O21 Na1 1_555 1_555
C5 C6 1_555 1_555
C11 C12 1_555 1_555
C28 O8 1_555 1_555
C29 N1 1_555 1_555
C30 N1 1_555 1_555
O8 Na4 1_555 1_555
Na4 O21 1_555 1_555
C41 C42 1_555 1_555
C58 O21 1_555 1_555
C59 N2 1_555 1_555
C60 N2 1_555 1_555
H12 C20 1_555 1_555
C21 C20 1_555 1_555
H13 C21 1_555 1_555
C22 C21 1_555 1_555
C23 C22 1_555 1_555
H14 C23 1_555 1_555
C27 C22 1_555 1_555
O3 C27 1_555 1_555
O4 C27 1_555 1_555
Zn6 O4 1_555 1_555
Zn4 O15 1_555 1_555
Zn8 O18 1_555 1_555
C46 C45 1_555 1_555
C47 C46 1_555 1_555
H32 C47 1_555 1_555
C48 C43 1_555 1_555
H33 C48 1_555 1_555
C56 C46 1_555 1_555
O15 C56 1_555 1_555
O18 C56 1_555 1_555
C47 C48 1_555 1_555
Zn1 Na2 1_555 1_555
Zn2 O1 1_555 1_555
Na2 Na3 1_555 1_555
C1 C2 1_555 1_555
C2 H1 1_555 1_555
C3 C2 1_555 1_555
C7 C1 1_555 1_555
C8 C7 1_555 1_555
H4 C8 1_555 1_555
C9 C8 1_555 1_555
H5 C9 1_555 1_555
C10 C9 1_555 1_555
H8 C14 1_555 1_555
C25 C10 1_555 1_555
O1 C25 1_555 1_555
O2 Zn1 1_555 1_555
O7 Zn1 1_555 1_555
Zn5 O7 1_555 1_555
Na3 O22 1_555 1_555
C38 C37 1_555 1_555
H26 C38 1_555 1_555
C39 C38 1_555 1_555
H27 C39 1_555 1_555
C40 C39 1_555 1_555
C55 C40 1_555 1_555
O9 Zn5 1_555 1_555
O10 Zn1 1_555 1_555
O16 Zn1 1_555 1_555
O17 Zn1 1_555 1_555
O19 Zn2 1_555 1_555
O20 Zn5 1_555 1_555
O22 Na2 1_555 1_555
O23 Na2 1_555 1_555
Zn2 O7 1_555 1_555
C25 O2 1_555 1_555
Na3 O23 1_555 1_555
C55 O9 1_555 1_555
C55 O10 1_555 1_555
C16 C15 1_555 1_555
C17 C16 1_555 1_555
H10 C17 1_555 1_555
C18 C13 1_555 1_555
H11 C18 1_555 1_555
C26 C16 1_555 1_555
O5 C26 1_555 1_555
O6 C26 1_555 1_555
Zn4 O5 1_555 1_555
Zn6 O6 1_555 1_555
C17 C18 1_555 1_555
Zn4 Na2_2 1_555 1_555
Zn6 O1_2 1_555 1_555
Na1_2 O7_2 1_555 1_555
Na2_2 Na3_2 1_555 1_555
C1_2 C2_2 1_555 1_555
C2_2 H1_2 1_555 1_555
C3_2 C2_2 1_555 1_555
C4_2 C3_2 1_555 1_555
H2_2 C4_2 1_555 1_555
C5_2 C4_2 1_555 1_555
C6_2 C1_2 1_555 1_555
H3_2 C6_2 1_555 1_555
C7_2 C1_2 1_555 1_555
C8_2 C7_2 1_555 1_555
H4_2 C8_2 1_555 1_555
C9_2 C8_2 1_555 1_555
H5_2 C9_2 1_555 1_555
C10_2 C9_2 1_555 1_555
C11_2 C10_2 1_555 1_555
H6_2 C11_2 1_555 1_555
C12_2 C7_2 1_555 1_555
H7_2 C12_2 1_555 1_555
C13_2 C3_2 1_555 1_555
C14_2 C13_2 1_555 1_555
H8_2 C14_2 1_555 1_555
C15_2 C14_2 1_555 1_555
H9_2 C15_2 1_555 1_555
C16_2 C15_2 1_555 1_555
C17_2 C16_2 1_555 1_555
H10_2 C17_2 1_555 1_555
C18_2 C13_2 1_555 1_555
H11_2 C18_2 1_555 1_555
C19_2 C5_2 1_555 1_555
C20_2 C19_2 1_555 1_555
H12_2 C20_2 1_555 1_555
C21_2 C20_2 1_555 1_555
H13_2 C21_2 1_555 1_555
C22_2 C21_2 1_555 1_555
C23_2 C22_2 1_555 1_555
H14_2 C23_2 1_555 1_555
C24_2 C19_2 1_555 1_555
H15_2 C24_2 1_555 1_555
C25_2 C10_2 1_555 1_555
C26_2 C16_2 1_555 1_555
C27_2 C22_2 1_555 1_555
C28_2 H16_2 1_555 1_555
C29_2 H17_2 1_555 1_555
H18_2 C29_2 1_555 1_555
H19_2 C29_2 1_555 1_555
C30_2 H20_2 1_555 1_555
H21_2 C30_2 1_555 1_555
H22_2 C30_2 1_555 1_555
N1_2 C28_2 1_555 1_555
O1_2 C25_2 1_555 1_555
O2_2 Zn4 1_555 1_555
O3_2 C27_2 1_555 1_555
O13 C27_2 1_555 1_555
O16 C26_2 1_555 1_555
O19 C26_2 1_555 1_555
O7_2 Zn4 1_555 1_555
O8_2 Na1_2 1_555 1_555
Zn8 O7_2 1_555 1_555
Na3_2 O22_2 1_555 1_555
Na4_2 Na1_2 1_555 1_555
C38_2 C37_2 1_555 1_555
H26_2 C38_2 1_555 1_555
C39_2 C38_2 1_555 1_555
H27_2 C39_2 1_555 1_555
C40_2 C39_2 1_555 1_555
C41_2 C40_2 1_555 1_555
H28_2 C41_2 1_555 1_555
C42_2 C37_2 1_555 1_555
C55_2 C40_2 1_555 1_555
C58_2 H38_2 1_555 1_555
H41_2 C59_2 1_555 1_555
C60_2 H42_2 1_555 1_555
H43_2 C60_2 1_555 1_555
H44_2 C60_2 1_555 1_555
N2_2 C58_2 1_555 1_555
O9_2 Zn8 1_555 1_555
O10_2 Zn4 1_555 1_555
O21_2 Na1_2 1_555 1_555
O22_2 Na2_2 1_555 1_555
O23_2 Na2_2 1_555 1_555
Zn6 O7_2 1_555 1_555
C5_2 C6_2 1_555 1_555
C11_2 C12_2 1_555 1_555
C17_2 C18_2 1_555 1_555
C23_2 C24_2 1_555 1_555
C25_2 O2_2 1_555 1_555
C28_2 O8_2 1_555 1_555
C29_2 N1_2 1_555 1_555
C30_2 N1_2 1_555 1_555
O8_2 Na4_2 1_555 1_555
Na3_2 O23_2 1_555 1_555
Na4_2 O21_2 1_555 1_555
C41_2 C42_2 1_555 1_555
C55_2 O9_2 1_555 1_555
C55_2 O10_2 1_555 1_555
C58_2 O21_2 1_555 1_555
C59_2 N2_2 1_555 1_555
C60_2 N2_2 1_555 1_555
C31 C32 1_555 1_555
C32 H23 1_555 1_555
C33 C32 1_555 1_555
C34_2 C33 1_555 1_555
H24_2 C34_2 1_555 1_555
C35_2 C34_2 1_555 1_555
C36_2 C31 1_555 1_555
H25_2 C36_2 1_555 1_555
C43_2 C33 1_555 1_555
C44 C43_2 1_555 1_555
H30 C44 1_555 1_555
C45_2 C44 1_555 1_555
H31 C45_2 1_555 1_555
C46_2 C45_2 1_555 1_555
C47_2 C46_2 1_555 1_555
H32_2 C47_2 1_555 1_555
C48_2 C43_2 1_555 1_555
H33_2 C48_2 1_555 1_555
C49_2 C35_2 1_555 1_555
C50_2 C49_2 1_555 1_555
H34_2 C50_2 1_555 1_555
C51_2 C50_2 1_555 1_555
H35_2 C51_2 1_555 1_555
C52_2 C51_2 1_555 1_555
C53_2 C52_2 1_555 1_555
H36_2 C53_2 1_555 1_555
C54_2 C49_2 1_555 1_555
H37_2 C54_2 1_555 1_555
C56_2 C46_2 1_555 1_555
C57_2 C52_2 1_555 1_555
O11_2 C57_2 1_555 1_555
O14 C57_2 1_555 1_555
O17 C56_2 1_555 1_555
O20 C56_2 1_555 1_555
C35_2 C36_2 1_555 1_555
C47_2 C48_2 1_555 1_555
C53_2 C54_2 1_555 1_555
Zn4_2 O15_2 1_555 1_555
Zn9 O18_2 1_555 1_555
C46_3 C45_3 1_555 1_555
C47_3 C46_3 1_555 1_555
H32_3 C47_3 1_555 1_555
C48_3 C43_3 1_555 1_555
H33_3 C48_3 1_555 1_555
C56_3 C46_3 1_555 1_555
O15_2 C56_3 1_555 1_555
O18_2 C56_3 1_555 1_555
C47_3 C48_3 1_555 1_555
Zn1_2 Na4_2 1_555 1_555
Zn2_2 O1_3 1_555 1_555
C8_3 C7_3 1_555 1_555
H4_3 C8_3 1_555 1_555
C9_3 C8_3 1_555 1_555
H5_3 C9_3 1_555 1_555
C10_3 C9_3 1_555 1_555
C25_3 C10_3 1_555 1_555
O1_3 C25_3 1_555 1_555
O2_3 Zn1_2 1_555 1_555
O7_3 Zn1_2 1_555 1_555
Zn5_2 O7_3 1_555 1_555
C31_2 C32_2 1_555 1_555
C32_2 H23_2 1_555 1_555
C33_2 C32_2 1_555 1_555
C37_3 C31_2 1_555 1_555
C38_3 C37_3 1_555 1_555
H26_3 C38_3 1_555 1_555
C39_3 C38_3 1_555 1_555
H27_3 C39_3 1_555 1_555
C40_3 C39_3 1_555 1_555
H30_2 C44_2 1_555 1_555
C55_3 C40_3 1_555 1_555
O9_3 Zn5_2 1_555 1_555
O10_3 Zn1_2 1_555 1_555
O16_2 Zn1_2 1_555 1_555
O17_2 Zn1_2 1_555 1_555
O19_2 Zn2_2 1_555 1_555
O20_2 Zn5_2 1_555 1_555
Zn2_2 O7_3 1_555 1_555
C25_3 O2_3 1_555 1_555
C55_3 O9_3 1_555 1_555
C55_3 O10_3 1_555 1_555
C16_3 C15_3 1_555 1_555
C17_3 C16_3 1_555 1_555
H10_3 C17_3 1_555 1_555
C18_3 C13_3 1_555 1_555
H11_3 C18_3 1_555 1_555
C26_3 C16_3 1_555 1_555
O5_2 C26_3 1_555 1_555
O6_2 C26_3 1_555 1_555
Zn4_2 O5_2 1_555 1_555
Zn7 O6_2 1_555 1_555
C17_3 C18_3 1_555 1_555
Zn9 O12_2 1_555 1_555
H34_3 C50_3 1_555 1_555
C51_3 C50_3 1_555 1_555
H35_3 C51_3 1_555 1_555
C52_3 C51_3 1_555 1_555
C53_3 C52_3 1_555 1_555
H36_3 C53_3 1_555 1_555
C57_3 C52_3 1_555 1_555
O11_3 C57_3 1_555 1_555
O12_2 C57_3 1_555 1_555
H6_3 C11_3 1_555 1_555
C28_3 H16_3 1_555 1_555
H19_3 C29_3 1_555 1_555
C30_3 H20_3 1_555 1_555
H21_3 C30_3 1_555 1_555
H22_3 C30_3 1_555 1_555
N1_3 C28_3 1_555 1_555
C35_3 C34_3 1_555 1_555
H25_3 C36_3 1_555 1_555
H28_3 C41_3 1_555 1_555
H29_3 C42_3 1_555 1_555
C49_3 C35_3 1_555 1_555
C54_3 C49_3 1_555 1_555
H37_3 C54_3 1_555 1_555
C58_3 H38_3 1_555 1_555
C59_3 H39_3 1_555 1_555
H40_3 C59_3 1_555 1_555
H41_3 C59_3 1_555 1_555
C60_3 H42_3 1_555 1_555
H43_3 C60_3 1_555 1_555
H44_3 C60_3 1_555 1_555
N2_3 C58_3 1_555 1_555
C11_3 C12_3 1_555 1_555
C28_3 O22_2 1_555 1_555
C29_3 N1_3 1_555 1_555
C30_3 N1_3 1_555 1_555
C35_3 C36_3 1_555 1_555
C41_3 C42_3 1_555 1_555
C58_3 O23_2 1_555 1_555
C59_3 N2_3 1_555 1_555
C60_3 N2_3 1_555 1_555
H12_3 C20_3 1_555 1_555
C21_3 C20_3 1_555 1_555
H13_3 C21_3 1_555 1_555
C22_3 C21_3 1_555 1_555
C23_3 C22_3 1_555 1_555
H14_3 C23_3 1_555 1_555
C27_3 C22_3 1_555 1_555
O3_3 C27_3 1_555 1_555
O4_2 C27_3 1_555 1_555
Zn7 O4_2 1_555 1_555
C1_3 C2_3 1_555 1_555
C2_3 H1_3 1_555 1_555
C3_3 C2_3 1_555 1_555
C4_3 C3_3 1_555 1_555
H2_4 C4_3 1_555 1_555
C5_3 C4_3 1_555 1_555
C6_3 C1_3 1_555 1_555
H3_3 C6_3 1_555 1_555
C13_4 C3_3 1_555 1_555
C14_3 C13_4 1_555 1_555
H8_3 C14_3 1_555 1_555
C15_4 C14_3 1_555 1_555
H9_3 C15_4 1_555 1_555
C16_4 C15_4 1_555 1_555
C17_4 C16_4 1_555 1_555
H10_4 C17_4 1_555 1_555
C18_4 C13_4 1_555 1_555
H11_4 C18_4 1_555 1_555
C19_3 C5_3 1_555 1_555
C20_4 C19_3 1_555 1_555
H12_4 C20_4 1_555 1_555
C21_4 C20_4 1_555 1_555
H13_4 C21_4 1_555 1_555
C22_4 C21_4 1_555 1_555
C23_4 C22_4 1_555 1_555
H14_4 C23_4 1_555 1_555
C24_3 C19_3 1_555 1_555
H15_3 C24_3 1_555 1_555
C26_4 C16_4 1_555 1_555
C27_4 C22_4 1_555 1_555
O3_4 C27_4 1_555 1_555
O13_2 C27_4 1_555 1_555
O16_2 C26_4 1_555 1_555
O19_2 C26_4 1_555 1_555
C5_3 C6_3 1_555 1_555
C17_4 C18_4 1_555 1_555
C23_4 C24_3 1_555 1_555
Zn4_2 Na4 1_555 1_555
Zn7 O1_4 1_555 1_555
Na3 O7_4 1_555 1_555
C8_4 C7_4 1_555 1_555
H4_4 C8_4 1_555 1_555
C9_4 C8_4 1_555 1_555
H5_4 C9_4 1_555 1_555
C10_4 C9_4 1_555 1_555
C11_4 C10_4 1_555 1_555
H6_4 C11_4 1_555 1_555
C12_4 C7_4 1_555 1_555
C25_4 C10_4 1_555 1_555
C28_4 H16_4 1_555 1_555
H19_4 C29_4 1_555 1_555
C30_4 H20_4 1_555 1_555
H21_4 C30_4 1_555 1_555
H22_4 C30_4 1_555 1_555
N1_4 C28_4 1_555 1_555
O1_4 C25_4 1_555 1_555
O2_4 Zn4_2 1_555 1_555
O7_4 Zn4_2 1_555 1_555
Zn9 O7_4 1_555 1_555
C31_3 C32_3 1_555 1_555
C32_3 H23_3 1_555 1_555
C33_3 C32_3 1_555 1_555
C34_4 C33_3 1_555 1_555
H24_4 C34_4 1_555 1_555
C35_4 C34_4 1_555 1_555
C36_4 C31_3 1_555 1_555
H25_4 C36_4 1_555 1_555
C37_4 C31_3 1_555 1_555
C38_4 C37_4 1_555 1_555
H26_4 C38_4 1_555 1_555
C39_4 C38_4 1_555 1_555
H27_4 C39_4 1_555 1_555
C40_4 C39_4 1_555 1_555
C41_4 C40_4 1_555 1_555
H28_4 C41_4 1_555 1_555
C42_4 C37_4 1_555 1_555
H29_4 C42_4 1_555 1_555
C43_4 C33_3 1_555 1_555
C44_3 C43_4 1_555 1_555
H30_3 C44_3 1_555 1_555
C45_4 C44_3 1_555 1_555
H31_3 C45_4 1_555 1_555
C46_4 C45_4 1_555 1_555
C47_4 C46_4 1_555 1_555
H32_4 C47_4 1_555 1_555
C48_4 C43_4 1_555 1_555
H33_4 C48_4 1_555 1_555
C49_4 C35_4 1_555 1_555
C50_4 C49_4 1_555 1_555
H34_4 C50_4 1_555 1_555
C51_4 C50_4 1_555 1_555
H35_4 C51_4 1_555 1_555
C52_4 C51_4 1_555 1_555
C53_4 C52_4 1_555 1_555
H36_4 C53_4 1_555 1_555
C54_4 C49_4 1_555 1_555
H37_4 C54_4 1_555 1_555
C55_4 C40_4 1_555 1_555
C56_4 C46_4 1_555 1_555
C57_4 C52_4 1_555 1_555
C58_4 H38_4 1_555 1_555
C59_4 H39_4 1_555 1_555
H40_4 C59_4 1_555 1_555
H41_4 C59_4 1_555 1_555
C60_4 H42_4 1_555 1_555
H43_4 C60_4 1_555 1_555
H44_4 C60_4 1_555 1_555
N2_4 C58_4 1_555 1_555
O9_4 Zn9 1_555 1_555
O10_4 Zn4_2 1_555 1_555
O11_4 C57_4 1_555 1_555
O14_2 C57_4 1_555 1_555
O17_2 C56_4 1_555 1_555
O20_2 C56_4 1_555 1_555
Zn7 O7_4 1_555 1_555
C11_4 C12_4 1_555 1_555
C25_4 O2_4 1_555 1_555
C28_4 O22 1_555 1_555
C29_4 N1_4 1_555 1_555
C30_4 N1_4 1_555 1_555
C35_4 C36_4 1_555 1_555
C41_4 C42_4 1_555 1_555
C47_4 C48_4 1_555 1_555
C53_4 C54_4 1_555 1_555
C55_4 O9_4 1_555 1_555
C55_4 O10_4 1_555 1_555
C58_4 O23 1_555 1_555
C59_4 N2_4 1_555 1_555
C60_4 N2_4 1_555 1_555
C31_4 C32_4 1_555 1_555
C32_4 H23_4 1_555 1_555
C33_4 C32_4 1_555 1_555
H30_4 C44_4 1_555 1_555
C1_4 C2_4 1_555 1_555
C2_4 H1_4 1_555 1_555
C3_4 C2_4 1_555 1_555
H8_4 C14_4 1_555 1_555
C5_4 C4_4 1_555 1_555
H3_4 C6_4 1_555 1_555
C19_4 C5_4 1_555 1_555
C24_4 C19_4 1_555 1_555
H15_4 C24_4 1_555 1_555
C5_4 C6_4 1_555 1_555

#END
