
###############################################################################
#
# This file contains modified crystal structure data generated from the
# MOF subset of the Cambridge Structural Database (CSD) v543 
# hosted by the Cambridge Crystallographic Data Centre (CCDC).
#
# This work is licensed under the Creative Commons
# Attribution-NonCommercial-ShareAlike 4.0 International License.
# To view a copy of this license, visit
# http://creativecommons.org/licenses/by-nc-sa/4.0/
# or send a letter to
# Creative Commons, PO Box 1866, Mountain View, CA 94042, USA.
#
# CIF created using the CSD Python API on 29 September 2022
# The structure has been converted into the P1 space group
# The structure has a 3D framework
# The original CSD entry HUZSUR is in the triclinic crystal system
# The framework has been calculated to contain at least 10.0% void space
# The void calculation uses a probe of radius 1.32A, grid spacing 0.4
# H atom positions have been added when not included in the experimental data
#
###############################################################################

data_HUZSUR
_chemical_formula_moiety         '(C128 H104 K4 N6 O28 Zn4)n'
_symmetry_cell_setting           triclinic
_symmetry_space_group_name_H-M   'P 1'
_symmetry_Int_Tables_number      1
_space_group_name_Hall           'P 1'
loop_
_symmetry_equiv_pos_site_id
_symmetry_equiv_pos_as_xyz
1 x,y,z
_cell_length_a                   16.3656(18)
_cell_length_b                   17.979(2)
_cell_length_c                   19.232(2)
_cell_angle_alpha                65.452(2)
_cell_angle_beta                 66.275(2)
_cell_angle_gamma                69.154(2)
_cell_volume                     4589.7
loop_
_atom_site_label
_atom_site_type_symbol
_atom_site_fract_x
_atom_site_fract_y
_atom_site_fract_z
C28 C 0.0757(5) 0.1068(6) 0.4156(5)
C29 C 0.0266(5) 0.0954(6) 0.3783(5)
H16 H 0.0576 0.0825 0.3308
C33 C 0.0298(5) 0.1258(6) 0.4870(5)
H18 H 0.0624 0.1343 0.5119
C34 C 0.1773(5) 0.0923(6) 0.3836(5)
C35 C 0.2274(5) 0.0263(6) 0.3524(5)
C36 C 0.3225(5) 0.0073(5) 0.3267(4)
C37 C 0.3698(5) 0.0563(5) 0.3297(5)
C38 C 0.3202(5) 0.1248(6) 0.3581(6)
H21 H 0.3511 0.1591 0.3585
C39 C 0.2247(5) 0.1419(7) 0.3857(6)
H22 H 0.1924 0.1866 0.4057
C52 C 0.4721(5) 0.0394(5) 0.2997(5)
O8 O 0.5130(3) 0.0896(4) 0.2917(4)
K10 K 0.60370(11) 0.19414(11) 0.16970(10)
H19 H 0.1964 0.9943 0.3486
H20 H 0.3546 0.9620 0.3076
O7 O 0.5126(3) 0.9696(4) 0.2829(4)
Zn5 Zn 0.64495(5) 0.96427(5) 0.22754(5)
K3 K 0.0021(9) 0.0634(7) 0.0456(7)
C56 C 0.1514(9) 0.1174(8) 0.0641(8)
C57 C 0.2021(9) 0.1214(9) 0.1601(8)
C58 C 0.3153(11) 0.0786(10) 0.0429(15)
N1 N 0.2277(6) 0.1086(5) 0.0888(5)
O15 O 0.0730(5) 0.1381(5) 0.1032(5)
H35 H 0.164618 0.105173 0.00918086
H40 H 0.366104 0.0750421 0.0679362
H41 H 0.320129 0.0163605 0.0434808
H42 H 0.162724 0.0759947 0.206637
H43 H 0.262871 0.113781 0.174841
H44 H 0.160154 0.1847 0.156062
C1 C 0.0506(4) 0.3950(4) 0.1047(4)
C2 C 0.0120(4) 0.4673(5) 0.1263(4)
H1 H 0.0469 0.4876 0.1394
H3 H 0.0237 0.3141 0.0723
C7 C 0.1502(4) 0.3557(5) 0.0940(5)
C8 C 0.1935(5) 0.3509(5) 0.1457(5)
H4 H 0.1594 0.3681 0.1907
C9 C 0.2890(5) 0.3199(6) 0.1297(5)
H5 H 0.3172 0.3145 0.1655
C10 C 0.3410(4) 0.2976(5) 0.0620(4)
C11 C 0.2976(4) 0.3011(4) 0.0102(4)
C12 C 0.2036(4) 0.3290(4) 0.0263(4)
C26 C 0.4434(5) 0.2691(5) 0.0429(5)
C55 C 0.5793(5) 0.0467(5) 0.0895(6)
H31 H 0.5435 0.0071 0.1190
C59 C 0.580(3) 0.3892(11) 0.172(2)
C60 C 0.493(3) 0.430(2) 0.090(3)
C61 C 0.5403(16) 0.5365(9) 0.1166(14)
N2 N 0.5336(19) 0.4617(15) 0.125(2)
O1 O 0.4785(3) 0.2474(4) 0.0969(4)
O13 O 0.6334(3) 0.0481(3) 0.1198(3)
O14 O 0.5697(4) 0.0943(4) 0.0228(4)
O16 O 0.586(2) 0.3164(8) 0.2118(9)
K4 K 0.82123(10) 0.05261(10) 0.03302(10)
O18 O 0.6970(3) 0.2163(3) 0.0090(3)
O23 O 0.7531(4) 0.0621(4) 0.1868(4)
H32 H 0.611794 0.540707 0.0894246
H33 H 0.500009 0.585112 0.0783427
H34 H 0.514602 0.545136 0.175131
H46 H 0.646542 0.3892 0.172
H47 H 0.446617 0.391426 0.137819
H48 H 0.455141 0.48273 0.0520647
H49 H 0.547211 0.392397 0.0542274
Zn1 Zn 0.61534(5) 0.20141(6) 0.96531(5)
H6 H 0.3324 0.2846 0.9650
H7 H 0.1753 0.3302 0.9923
C30 C 0.9325(5) 0.1026(6) 0.4094(5)
C31 C 0.8869(5) 0.1221(6) 0.4812(5)
H17 H 0.8237 0.1286 0.5022
C32 C 0.9349(5) 0.1321(6) 0.5217(5)
C40 C 0.8825(5) 0.0856(6) 0.3705(5)
C41 C 0.9090(5) 0.1057(6) 0.2866(5)
H23 H 0.9558 0.1342 0.2546
C42 C 0.8669(5) 0.0838(5) 0.2517(5)
H24 H 0.8855 0.0973 0.1963
C43 C 0.7969(5) 0.0417(5) 0.2981(5)
C44 C 0.7698(5) 0.0200(6) 0.3820(5)
C45 C 0.8120(5) 0.0421(6) 0.4175(5)
H26 H 0.7936 0.0281 0.4730
C46 C 0.8869(5) 0.1414(6) 0.6026(5)
C47 C 0.7979(5) 0.1896(6) 0.6227(5)
H27 H 0.7686 0.2198 0.5833
C48 C 0.7531(5) 0.1936(6) 0.6982(5)
H28 H 0.6950 0.2283 0.7092
C49 C 0.7940(5) 0.1457(6) 0.7599(5)
C50 C 0.8825(5) 0.0973(6) 0.7412(5)
H29 H 0.9109 0.0652 0.7811
C51 C 0.9284(5) 0.0968(6) 0.6634(5)
H30 H 0.9885 0.0658 0.6513
C53 C 0.7500(5) 0.0211(6) 0.2582(6)
C54 C 0.7459(5) 0.1469(6) 0.8442(5)
O2 O 0.4887(3) 0.2667(4) 0.9719(3)
O11 O 0.7773(4) 0.0962(4) 0.8995(3)
O12 O 0.6708(3) 0.2049(4) 0.8529(3)
K5 K 0.17877(10) 0.94739(10) 0.96698(10)
H25 H 0.7234 0.9909 0.4134
O10 O 0.7070(4) 0.9622(4) 0.2995(4)
C63 C 0.9203(13) 0.2737(10) 0.7952(11)
N3 N 0.9899(10) 0.1986(8) 0.7953(8)
O17 O 0.9536(13) 0.1309(10) 0.9310(11)
H50 H 0.921514 0.300214 0.836327
H51 H 0.932462 0.31874 0.735004
H52 H 0.853668 0.25961 0.814192
C3 C 0.9220(4) 0.5102(4) 0.1288(4)
C4 C 0.8699(4) 0.4778(4) 0.1096(4)
H2 H 0.8094 0.5056 0.1116
C5 C 0.9072(4) 0.4049(4) 0.0878(4)
C6 C 0.9981(4) 0.3632(4) 0.0860(4)
C13 C 0.8819(4) 0.5923(4) 0.1434(4)
C14 C 0.7903(4) 0.6150(5) 0.1855(5)
H8 H 0.7533 0.5768 0.2081
C15 C 0.7533(4) 0.6946(5) 0.1943(5)
H9 H 0.6918 0.7088 0.2225
C16 C 0.8064(5) 0.7526(5) 0.1619(4)
C17 C 0.8984(5) 0.7301(5) 0.1196(5)
H10 H 0.9347 0.7691 0.0959
C18 C 0.9364(4) 0.6503(5) 0.1125(5)
H11 H 0.9987 0.6352 0.0869
C19 C 0.8537(4) 0.3751(4) 0.0620(4)
C20 C 0.8625(5) 0.2897(5) 0.0791(5)
H12 H 0.9019 0.2503 0.1081
C21 C 0.8136(4) 0.2632(5) 0.0537(5)
H13 H 0.8182 0.2061 0.0676
C22 C 0.7565(4) 0.3219(5) 0.0066(4)
C24 C 0.7956(4) 0.4327(4) 0.0167(5)
H15 H 0.7882 0.4899 0.0053
C25 C 0.7659(5) 0.8390(5) 0.1688(5)
O3 O 0.8107(4) 0.8938(3) 0.1295(4)
O4 O 0.6853(3) 0.8514(3) 0.2168(3)
C23 C 0.7490(5) 0.4062(5) 0.9884(5)
H14 H 0.7123 0.4456 0.9568
C27 C 0.7037(5) 0.2942(5) 0.9769(5)
O6 O 0.6671(4) 0.3455(4) 0.9255(4)
K12 K 0.9979(9) 0.9366(7) 0.9544(7)
C23_2 C 0.2510(5) 0.5938(5) 0.0116(5)
H14_2 H 0.2877 0.5544 0.0432
C27_2 C 0.2963(5) 0.7058(5) 0.0231(5)
O6_2 O 0.3329(4) 0.6545(4) 0.0745(4)
Zn3 Zn 0.38466(5) 0.79859(6) 0.03469(5)
Zn2 Zn 0.35505(5) 0.03573(5) 0.77246(5)
C3_2 C 0.0780(4) 0.4898(4) 0.8712(4)
C4_2 C 0.1301(4) 0.5222(4) 0.8904(4)
H2_2 H 0.1906 0.4944 0.8884
C5_2 C 0.0928(4) 0.5951(4) 0.9122(4)
C6_2 C 0.0019(4) 0.6368(4) 0.9140(4)
C13_2 C 0.1181(4) 0.4077(4) 0.8566(4)
C14_2 C 0.2097(4) 0.3850(5) 0.8145(5)
H8_2 H 0.2467 0.4232 0.7919
C15_2 C 0.2467(4) 0.3054(5) 0.8057(5)
H9_2 H 0.3082 0.2912 0.7775
C16_2 C 0.1936(5) 0.2474(5) 0.8381(4)
C17_2 C 0.1016(5) 0.2699(5) 0.8804(5)
H10_2 H 0.0653 0.2309 0.9041
C18_2 C 0.0636(4) 0.3497(5) 0.8875(5)
H11_2 H 0.0013 0.3648 0.9131
C19_2 C 0.1463(4) 0.6249(4) 0.9380(4)
C20_2 C 0.1375(5) 0.7103(5) 0.9209(5)
H12_2 H 0.0981 0.7497 0.8919
C21_2 C 0.1864(4) 0.7368(5) 0.9463(5)
H13_2 H 0.1818 0.7939 0.9324
C22_2 C 0.2435(4) 0.6781(5) 0.9934(4)
C24_2 C 0.2044(4) 0.5673(4) 0.9833(5)
H15_2 H 0.2118 0.5101 0.9947
C25_2 C 0.2341(5) 0.1610(5) 0.8312(5)
O3_2 O 0.1893(4) 0.1062(3) 0.8705(4)
O4_2 O 0.3147(3) 0.1486(3) 0.7832(3)
O5 O 0.3030(3) 0.7837(3) 0.9910(3)
K9 K 0.39630(11) 0.80586(11) 0.83030(10)
O20 O 0.4874(3) 0.0304(4) 0.7171(4)
O24 O 0.2930(4) 0.0378(4) 0.7005(4)
C63_2 C 0.0797(13) 0.7263(10) 0.2048(11)
N3_2 N 0.0101(10) 0.8014(8) 0.2047(8)
O17_2 O 0.0464(13) 0.8691(10) 0.0690(11)
O25 O 0.2227(4) 0.9038(4) 0.1005(3)
H50_2 H 0.0784862 0.699786 0.163673
H51_2 H 0.0675375 0.68126 0.264996
H52_2 H 0.146332 0.74039 0.185808
O22 O 0.2469(4) 0.9379(4) 0.8132(4)
O26 O 0.3666(3) 0.9519(3) 0.8802(3)
H25_2 H 0.2766 0.0091 0.5866
H6_2 H 0.6676 0.7154 0.0350
H7_2 H 0.8247 0.6698 0.0077
C30_2 C 0.0675(5) 0.8974(6) 0.5906(5)
C31_2 C 0.1131(5) 0.8779(6) 0.5188(5)
H17_2 H 0.1763 0.8714 0.4978
C32_2 C 0.0651(5) 0.8679(6) 0.4783(5)
C40_2 C 0.1175(5) 0.9144(6) 0.6295(5)
C41_2 C 0.0910(5) 0.8943(6) 0.7134(5)
H23_2 H 0.0442 0.8658 0.7454
C42_2 C 0.1331(5) 0.9162(5) 0.7483(5)
H24_2 H 0.1145 0.9027 0.8037
C43_2 C 0.2031(5) 0.9583(5) 0.7019(5)
C44_2 C 0.2302(5) 0.9800(6) 0.6180(5)
C45_2 C 0.1880(5) 0.9579(6) 0.5825(5)
H26_2 H 0.2064 0.9719 0.5270
C46_2 C 0.1131(5) 0.8586(6) 0.3974(5)
C47_2 C 0.2021(5) 0.8104(6) 0.3773(5)
H27_2 H 0.2314 0.7802 0.4167
C48_2 C 0.2469(5) 0.8064(6) 0.3018(5)
H28_2 H 0.3050 0.7717 0.2908
C49_2 C 0.2060(5) 0.8543(6) 0.2401(5)
C50_2 C 0.1175(5) 0.9027(6) 0.2588(5)
H29_2 H 0.0891 0.9348 0.2189
C51_2 C 0.0716(5) 0.9032(6) 0.3366(5)
H30_2 H 0.0115 0.9342 0.3487
C53_2 C 0.2500(5) 0.9789(6) 0.7418(6)
C54_2 C 0.2541(5) 0.8531(6) 0.1558(5)
O2_2 O 0.5113(3) 0.7333(4) 0.0281(3)
O12_2 O 0.3292(3) 0.7951(4) 0.1471(3)
C1_2 C 0.9494(4) 0.6050(4) 0.8953(4)
C2_2 C 0.9880(4) 0.5327(5) 0.8737(4)
H1_2 H 0.9531 0.5124 0.8606
H3_2 H 0.9763 0.6859 0.9277
C7_2 C 0.8498(4) 0.6443(5) 0.9060(5)
C8_2 C 0.8065(5) 0.6491(5) 0.8543(5)
H4_2 H 0.8406 0.6319 0.8093
C9_2 C 0.7110(5) 0.6801(6) 0.8703(5)
H5_2 H 0.6828 0.6855 0.8345
C10_2 C 0.6590(4) 0.7024(5) 0.9380(4)
C11_2 C 0.7024(4) 0.6989(4) 0.9898(4)
C12_2 C 0.7964(4) 0.6710(4) 0.9737(4)
C26_2 C 0.5566(5) 0.7309(5) 0.9571(5)
C55_2 C 0.4207(5) 0.9533(5) 0.9105(6)
H31_2 H 0.4565 0.9929 0.8810
C59_2 C 0.420(3) 0.6108(11) 0.828(2)
C60_2 C 0.507(3) 0.570(2) 0.910(3)
C61_2 C 0.4597(16) 0.4635(9) 0.8834(14)
N2_2 N 0.4664(19) 0.5383(15) 0.875(2)
O1_2 O 0.5215(3) 0.7526(4) 0.9031(4)
O14_2 O 0.4303(4) 0.9057(4) 0.9772(4)
O16_2 O 0.414(2) 0.6836(8) 0.7882(9)
O21 O 0.4870(3) 0.9104(4) 0.7083(4)
H32_2 H 0.388206 0.459293 0.910575
H33_2 H 0.499991 0.414888 0.921657
H34_2 H 0.485398 0.454864 0.824869
H46_2 H 0.353458 0.6108 0.828
H47_2 H 0.553383 0.608574 0.862181
H48_2 H 0.544859 0.51727 0.947935
H49_2 H 0.452789 0.607603 0.945773
C56_2 C 0.8486(9) 0.8826(8) 0.9359(8)
C57_2 C 0.7979(9) 0.8786(9) 0.8399(8)
C58_2 C 0.6847(11) 0.9214(10) 0.9571(15)
N1_2 N 0.7723(6) 0.8914(5) 0.9112(5)
O15_2 O 0.9270(5) 0.8619(5) 0.8968(5)
H35_2 H 0.835382 0.894827 0.990819
H40_2 H 0.633896 0.924958 0.932064
H41_2 H 0.679871 0.983639 0.956519
H42_2 H 0.837276 0.924005 0.793363
H43_2 H 0.737129 0.886219 0.825159
H44_2 H 0.839846 0.8153 0.843938
H19_2 H 0.8036 0.0057 0.6514
H20_2 H 0.6454 0.0380 0.6924
C28_2 C 0.9243(5) 0.8932(6) 0.5844(5)
C29_2 C 0.9734(5) 0.9046(6) 0.6217(5)
H16_2 H 0.9424 0.9175 0.6692
C33_2 C 0.9702(5) 0.8742(6) 0.5130(5)
H18_2 H 0.9376 0.8657 0.4881
C34_2 C 0.8227(5) 0.9077(6) 0.6164(5)
C35_2 C 0.7726(5) 0.9737(6) 0.6476(5)
C36_2 C 0.6775(5) 0.9927(5) 0.6733(4)
C37_2 C 0.6302(5) 0.9437(5) 0.6703(5)
C38_2 C 0.6798(5) 0.8752(6) 0.6419(6)
H21_2 H 0.6489 0.8409 0.6415
C39_2 C 0.7753(5) 0.8581(7) 0.6143(6)
H22_2 H 0.8076 0.8134 0.5943
C52_2 C 0.5279(5) 0.9606(5) 0.7003(5)
C62 C 0.0034(12) 0.1231(9) 0.8584(10)
C64 C 0.0568(14) 0.1957(15) 0.7223(12)
H36 H 0.0549256 0.144865 0.706534
H37 H 0.0434633 0.255081 0.675761
H38 H 0.124106 0.184896 0.72776
H39 H 0.32794 0.121016 0.98151
H45 H 0.0494001 0.0647294 0.849056
C62_2 C 0.9966(12) 0.8769(9) 0.1416(10)
C64_2 C 0.9432(14) 0.8043(15) 0.2777(12)
H36_2 H 0.945074 0.855135 0.293466
H37_2 H 0.956537 0.744919 0.324239
H38_2 H 0.875894 0.815104 0.27224
H39_2 H 0.67206 0.878984 0.0184904
H45_2 H 0.9506 0.935271 0.150944
loop_
_geom_bond_atom_site_label_1
_geom_bond_atom_site_label_2
_geom_bond_site_symmetry_1
_geom_bond_site_symmetry_2
C28 C29 1_555 1_555
C29 H16 1_555 1_555
C33 C28 1_555 1_555
H18 C33 1_555 1_555
C34 C28 1_555 1_555
C35 C34 1_555 1_555
C36 C35 1_555 1_555
C37 C36 1_555 1_555
C38 C37 1_555 1_555
H21 C38 1_555 1_555
C39 C34 1_555 1_555
H22 C39 1_555 1_555
C52 C37 1_555 1_555
O8 C52 1_555 1_555
K10 O8 1_555 1_555
C38 C39 1_555 1_555
Zn5 O7 1_555 1_555
K3 O15 1_555 1_555
C56 N1 1_555 1_555
C57 N1 1_555 1_555
C58 N1 1_555 1_555
O15 C56 1_555 1_555
C56 H35 1_555 1_555
C58 H40 1_555 1_555
C58 H41 1_555 1_555
C57 H42 1_555 1_555
C57 H43 1_555 1_555
C57 H44 1_555 1_555
K10 O1 1_555 1_555
C1 C2 1_555 1_555
C2 H1 1_555 1_555
C7 C1 1_555 1_555
C8 C7 1_555 1_555
H4 C8 1_555 1_555
C9 C8 1_555 1_555
H5 C9 1_555 1_555
C10 C9 1_555 1_555
C11 C10 1_555 1_555
C12 C7 1_555 1_555
C26 C10 1_555 1_555
C55 H31 1_555 1_555
C59 N2 1_555 1_555
C60 N2 1_555 1_555
C61 N2 1_555 1_555
O1 C26 1_555 1_555
O13 K10 1_555 1_555
O16 K10 1_555 1_555
K4 K10 1_555 1_555
O23 K10 1_555 1_555
K10 O18 1_555 1_555
C11 C12 1_555 1_555
C55 O13 1_555 1_555
C55 O14 1_555 1_555
C59 O16 1_555 1_555
O13 K4 1_555 1_555
K4 O18 1_555 1_555
K4 O23 1_555 1_555
C61 H32 1_555 1_555
C61 H33 1_555 1_555
C61 H34 1_555 1_555
C59 H46 1_555 1_555
C60 H47 1_555 1_555
C60 H48 1_555 1_555
C60 H49 1_555 1_555
Zn1 O2 1_555 1_555
C31 C30 1_555 1_555
H17 C31 1_555 1_555
C32 C31 1_555 1_555
C40 C30 1_555 1_555
C41 C40 1_555 1_555
H23 C41 1_555 1_555
C42 C41 1_555 1_555
H24 C42 1_555 1_555
C43 C42 1_555 1_555
C44 C43 1_555 1_555
C45 C40 1_555 1_555
H26 C45 1_555 1_555
C46 C32 1_555 1_555
C47 C46 1_555 1_555
H27 C47 1_555 1_555
C48 C47 1_555 1_555
H28 C48 1_555 1_555
C49 C48 1_555 1_555
C50 C49 1_555 1_555
H29 C50 1_555 1_555
C51 C46 1_555 1_555
H30 C51 1_555 1_555
C53 C43 1_555 1_555
C54 C49 1_555 1_555
O23 C53 1_555 1_555
O11 C54 1_555 1_555
O12 Zn1 1_555 1_555
C44 C45 1_555 1_555
C50 C51 1_555 1_555
C54 O12 1_555 1_555
O10 Zn5 1_555 1_555
C63 N3 1_555 1_555
C63 H50 1_555 1_555
C63 H51 1_555 1_555
C63 H52 1_555 1_555
Zn5 O4 1_555 1_555
C4 C3 1_555 1_555
H2 C4 1_555 1_555
C5 C4 1_555 1_555
C13 C3 1_555 1_555
C14 C13 1_555 1_555
H8 C14 1_555 1_555
C15 C14 1_555 1_555
H9 C15 1_555 1_555
C16 C15 1_555 1_555
C17 C16 1_555 1_555
H10 C17 1_555 1_555
C18 C13 1_555 1_555
H11 C18 1_555 1_555
C19 C5 1_555 1_555
C20 C19 1_555 1_555
H12 C20 1_555 1_555
C21 C20 1_555 1_555
H13 C21 1_555 1_555
C22 C21 1_555 1_555
C24 C19 1_555 1_555
H15 C24 1_555 1_555
C25 C16 1_555 1_555
O4 C25 1_555 1_555
C5 C6 1_555 1_555
C17 C18 1_555 1_555
C25 O3 1_555 1_555
H14 C23 1_555 1_555
O6 C27 1_555 1_555
H14_2 C23_2 1_555 1_555
O6_2 C27_2 1_555 1_555
Zn2 O4_2 1_555 1_555
C4_2 C3_2 1_555 1_555
H2_2 C4_2 1_555 1_555
C5_2 C4_2 1_555 1_555
C13_2 C3_2 1_555 1_555
C14_2 C13_2 1_555 1_555
H8_2 C14_2 1_555 1_555
C15_2 C14_2 1_555 1_555
H9_2 C15_2 1_555 1_555
C16_2 C15_2 1_555 1_555
C17_2 C16_2 1_555 1_555
H10_2 C17_2 1_555 1_555
C18_2 C13_2 1_555 1_555
H11_2 C18_2 1_555 1_555
C19_2 C5_2 1_555 1_555
C20_2 C19_2 1_555 1_555
H12_2 C20_2 1_555 1_555
C21_2 C20_2 1_555 1_555
H13_2 C21_2 1_555 1_555
C22_2 C21_2 1_555 1_555
C24_2 C19_2 1_555 1_555
H15_2 C24_2 1_555 1_555
C25_2 C16_2 1_555 1_555
O4_2 C25_2 1_555 1_555
K5 O5 1_555 1_555
K9 O5 1_555 1_555
O20 Zn2 1_555 1_555
O24 Zn2 1_555 1_555
C5_2 C6_2 1_555 1_555
C17_2 C18_2 1_555 1_555
C25_2 O3_2 1_555 1_555
K5 K9 1_555 1_555
C63_2 N3_2 1_555 1_555
C63_2 H50_2 1_555 1_555
C63_2 H51_2 1_555 1_555
C63_2 H52_2 1_555 1_555
K5 O22 1_555 1_555
K5 O26 1_555 1_555
K9 O22 1_555 1_555
K9 O26 1_555 1_555
Zn3 O2_2 1_555 1_555
C31_2 C30_2 1_555 1_555
H17_2 C31_2 1_555 1_555
C32_2 C31_2 1_555 1_555
C40_2 C30_2 1_555 1_555
C41_2 C40_2 1_555 1_555
H23_2 C41_2 1_555 1_555
C42_2 C41_2 1_555 1_555
H24_2 C42_2 1_555 1_555
C43_2 C42_2 1_555 1_555
C44_2 C43_2 1_555 1_555
C45_2 C40_2 1_555 1_555
H26_2 C45_2 1_555 1_555
C46_2 C32_2 1_555 1_555
C47_2 C46_2 1_555 1_555
H27_2 C47_2 1_555 1_555
C48_2 C47_2 1_555 1_555
H28_2 C48_2 1_555 1_555
C49_2 C48_2 1_555 1_555
C50_2 C49_2 1_555 1_555
H29_2 C50_2 1_555 1_555
C51_2 C46_2 1_555 1_555
H30_2 C51_2 1_555 1_555
C53_2 C43_2 1_555 1_555
C54_2 C49_2 1_555 1_555
O22 C53_2 1_555 1_555
O25 C54_2 1_555 1_555
O12_2 Zn3 1_555 1_555
C44_2 C45_2 1_555 1_555
C50_2 C51_2 1_555 1_555
C54_2 O12_2 1_555 1_555
K9 O1_2 1_555 1_555
C1_2 C2_2 1_555 1_555
C2_2 H1_2 1_555 1_555
C7_2 C1_2 1_555 1_555
C8_2 C7_2 1_555 1_555
H4_2 C8_2 1_555 1_555
C9_2 C8_2 1_555 1_555
H5_2 C9_2 1_555 1_555
C10_2 C9_2 1_555 1_555
C11_2 C10_2 1_555 1_555
C12_2 C7_2 1_555 1_555
C26_2 C10_2 1_555 1_555
C55_2 H31_2 1_555 1_555
C59_2 N2_2 1_555 1_555
C60_2 N2_2 1_555 1_555
C61_2 N2_2 1_555 1_555
O1_2 C26_2 1_555 1_555
O16_2 K9 1_555 1_555
O21 K9 1_555 1_555
C11_2 C12_2 1_555 1_555
C55_2 O26 1_555 1_555
C55_2 O14_2 1_555 1_555
C59_2 O16_2 1_555 1_555
C61_2 H32_2 1_555 1_555
C61_2 H33_2 1_555 1_555
C61_2 H34_2 1_555 1_555
C59_2 H46_2 1_555 1_555
C60_2 H47_2 1_555 1_555
C60_2 H48_2 1_555 1_555
C60_2 H49_2 1_555 1_555
K12 O15_2 1_555 1_555
C56_2 N1_2 1_555 1_555
C57_2 N1_2 1_555 1_555
C58_2 N1_2 1_555 1_555
O15_2 C56_2 1_555 1_555
C56_2 H35_2 1_555 1_555
C58_2 H40_2 1_555 1_555
C58_2 H41_2 1_555 1_555
C57_2 H42_2 1_555 1_555
C57_2 H43_2 1_555 1_555
C57_2 H44_2 1_555 1_555
C28_2 C29_2 1_555 1_555
C29_2 H16_2 1_555 1_555
C33_2 C28_2 1_555 1_555
H18_2 C33_2 1_555 1_555
C34_2 C28_2 1_555 1_555
C35_2 C34_2 1_555 1_555
C36_2 C35_2 1_555 1_555
C37_2 C36_2 1_555 1_555
C38_2 C37_2 1_555 1_555
H21_2 C38_2 1_555 1_555
C39_2 C34_2 1_555 1_555
H22_2 C39_2 1_555 1_555
C52_2 C37_2 1_555 1_555
O21 C52_2 1_555 1_555
C38_2 C39_2 1_555 1_555
C64 H36 1_555 1_555
C64 H37 1_555 1_555
C64 H38 1_555 1_555
C62 H45 1_555 1_555
C64_2 H36_2 1_555 1_555
C64_2 H37_2 1_555 1_555
C64_2 H38_2 1_555 1_555
C62_2 H45_2 1_555 1_555

#END
