
###############################################################################
#
# This file contains modified crystal structure data generated from the
# MOF subset of the Cambridge Structural Database (CSD) v543 
# hosted by the Cambridge Crystallographic Data Centre (CCDC).
#
# This work is licensed under the Creative Commons
# Attribution-NonCommercial-ShareAlike 4.0 International License.
# To view a copy of this license, visit
# http://creativecommons.org/licenses/by-nc-sa/4.0/
# or send a letter to
# Creative Commons, PO Box 1866, Mountain View, CA 94042, USA.
#
# CIF created using the CSD Python API on 29 September 2022
# The structure has been converted into the P1 space group
# The structure has a 3D framework
# The original CSD entry HUZVEG is in the tetragonal crystal system
# The framework has been calculated to contain at least 10.0% void space
# The void calculation uses a probe of radius 1.32A, grid spacing 0.4
#
###############################################################################

data_HUZVEG
_chemical_formula_moiety         '(C160 Ag16 F48 N96 O48 S16)n'
_symmetry_cell_setting           triclinic
_symmetry_space_group_name_H-M   'P 1'
_symmetry_Int_Tables_number      1
_space_group_name_Hall           'P 1'
loop_
_symmetry_equiv_pos_site_id
_symmetry_equiv_pos_as_xyz
1 x,y,z
_cell_length_a                   13.0490(6)
_cell_length_b                   13.0490(6)
_cell_length_c                   39.4798(18)
_cell_angle_alpha                90
_cell_angle_beta                 90
_cell_angle_gamma                90
_cell_volume                     6722.48
loop_
_atom_site_label
_atom_site_type_symbol
_atom_site_fract_x
_atom_site_fract_y
_atom_site_fract_z
Ag1 Ag 0.58027(4) 0.71495(4) 0.05407(2)
C1 C 0.3587(5) 0.5927(5) 0.03178(15)
C2 C 0.2501(4) 0.5689(5) 0.03170(15)
C3 C 0.2524(6) 0.5651(7) 0.09443(18)
C4 C 0.1976(5) 0.5551(5) 0.06249(15)
N1 N 0.1000(4) 0.5286(4) 0.06400(13)
C5 C 0.0541(5) 0.5168(5) 0.03397(15)
C6 C 0.1039(5) 0.5320(5) 0.00308(15)
N2 N 0.4438(5) 0.6094(5) 0.03324(14)
S1 S 0.82330(15) 0.73761(15) 0.03220(5)
N3 N 0.3005(5) 0.5712(7) 0.11829(15)
N4 N 0.2036(4) 0.5584(4) 0.00227(12)
O1 O 0.9158(5) 0.6984(4) 0.01867(15)
O2 O 0.7475(4) 0.6595(4) 0.03968(15)
O3 O 0.7812(5) 0.8271(5) 0.01612(17)
F1 F 0.8979(6) 0.7020(6) 0.09207(15)
F2 F 0.9239(6) 0.8552(6) 0.0737(2)
F3 F 0.7753(5) 0.8142(5) 0.09118(14)
C10 C 0.8581(7) 0.7799(8) 0.0744(2)
N15 N 0.5364(4) 0.8984(4) 0.05773(13)
N18 N 0.5568(5) 0.6419(5) 0.10697(14)
C11 C 0.6413(5) 0.4073(5) 0.03178(15)
C12 C 0.7499(4) 0.4311(5) 0.03170(15)
C13 C 0.7476(6) 0.4349(7) 0.09443(18)
C14 C 0.8024(5) 0.4449(5) 0.06249(15)
N7 N 0.9000(4) 0.4714(4) 0.06400(13)
C15 C 0.9459(5) 0.4832(5) 0.03397(15)
C16 C 0.8961(5) 0.4680(5) 0.00308(15)
N8 N 0.5562(5) 0.3906(5) 0.03324(14)
N9 N 0.6995(5) 0.4288(7) 0.11829(15)
N10 N 0.7964(4) 0.4416(4) 0.00227(12)
Ag2 Ag 0.41973(4) 0.28505(4) 0.05407(2)
S2 S 0.17670(15) 0.26239(15) 0.03220(5)
O4 O 0.0842(5) 0.3016(4) 0.01867(15)
O5 O 0.2525(4) 0.3405(4) 0.03968(15)
O6 O 0.2188(5) 0.1729(5) 0.01612(17)
F4 F 0.1021(6) 0.2980(6) 0.09207(15)
F5 F 0.0761(6) 0.1448(6) 0.0737(2)
F6 F 0.2247(5) 0.1858(5) 0.09118(14)
C20 C 0.1419(7) 0.2201(8) 0.0744(2)
N16 N 0.4636(4) 0.1016(4) 0.05773(13)
N17 N 0.4432(5) 0.3581(5) 0.10697(14)
C17 C 0.4819(5) 0.0519(5) 0.02907(15)
C18 C 0.4817(5) 0.0500(5) 0.08630(14)
C19 C 0.4601(5) 0.1027(5) 0.11786(16)
N12 N 0.4432(5) 0.1419(5) 0.14303(14)
Ag5 Ag 0.41973(4) 0.21495(4) 0.19593(2)
C7 C 0.5181(5) 0.9481(5) 0.02907(15)
C8 C 0.5183(5) 0.9500(5) 0.08630(14)
C9 C 0.5399(5) 0.8973(5) 0.11786(16)
N6 N 0.5568(5) 0.8581(5) 0.14303(14)
Ag6 Ag 0.58027(4) 0.78505(4) 0.19593(2)
C1_2 C 0.8587(5) 0.0927(5) 0.53178(15)
C2_2 C 0.7501(4) 0.0689(5) 0.53170(15)
C3_2 C 0.7524(6) 0.0651(7) 0.59443(18)
C4_2 C 0.6976(5) 0.0551(5) 0.56249(15)
N1_2 N 0.6000(4) 0.0286(4) 0.56400(13)
C5_2 C 0.5541(5) 0.0168(5) 0.53397(15)
C6_2 C 0.6039(5) 0.0320(5) 0.50308(15)
C7_2 C 0.5519(5) 0.0181(5) 0.47093(15)
C8_2 C 0.5500(5) 0.0183(5) 0.41370(14)
C9_2 C 0.6027(5) 0.0399(5) 0.38214(16)
N2_2 N 0.9438(5) 0.1094(5) 0.53324(14)
N3_2 N 0.8005(5) 0.0712(7) 0.61829(15)
N4_2 N 0.7036(4) 0.0584(4) 0.50227(12)
N5 N 0.6016(4) 0.0364(4) 0.44227(13)
N6_2 N 0.6419(5) 0.0568(5) 0.35697(14)
Ag4 Ag 0.78505(4) 0.08027(4) 0.44593(2)
Ag6_2 Ag 0.71495(4) 0.08027(4) 0.30407(2)
C11_2 C 0.1413(5) 0.9073(5) 0.53178(15)
C12_2 C 0.2499(4) 0.9311(5) 0.53170(15)
C13_2 C 0.2476(6) 0.9349(7) 0.59443(18)
C14_2 C 0.3024(5) 0.9449(5) 0.56249(15)
N7_2 N 0.4000(4) 0.9714(4) 0.56400(13)
C15_2 C 0.4459(5) 0.9832(5) 0.53397(15)
C16_2 C 0.3961(5) 0.9680(5) 0.50308(15)
C17_2 C 0.4481(5) 0.9819(5) 0.47093(15)
C18_2 C 0.4500(5) 0.9817(5) 0.41370(14)
C19_2 C 0.3973(5) 0.9601(5) 0.38214(16)
N8_2 N 0.0562(5) 0.8906(5) 0.53324(14)
N9_2 N 0.1995(5) 0.9288(7) 0.61829(15)
N10_2 N 0.2964(4) 0.9416(4) 0.50227(12)
N11 N 0.3984(4) 0.9636(4) 0.44227(13)
N12_2 N 0.3581(5) 0.9432(5) 0.35697(14)
Ag3 Ag 0.21495(4) 0.91973(4) 0.44593(2)
Ag5_2 Ag 0.28505(4) 0.91973(4) 0.30407(2)
S1_2 S 0.23761(15) 0.67670(15) 0.46780(5)
O1_2 O 0.1984(4) 0.5842(5) 0.48133(15)
O2_2 O 0.1595(4) 0.7525(4) 0.46032(15)
O3_2 O 0.3271(5) 0.7188(5) 0.48388(17)
F1_2 F 0.2020(6) 0.6021(6) 0.40793(15)
F2_2 F 0.3552(6) 0.5761(6) 0.4263(2)
F3_2 F 0.3142(5) 0.7247(5) 0.40882(14)
C10_2 C 0.2799(8) 0.6419(7) 0.4256(2)
N18_2 N 0.1419(5) 0.9432(5) 0.39303(14)
S2_2 S 0.76239(15) 0.32330(15) 0.46780(5)
O4_2 O 0.8016(4) 0.4158(5) 0.48133(15)
O5_2 O 0.8405(4) 0.2475(4) 0.46032(15)
O6_2 O 0.6729(5) 0.2812(5) 0.48388(17)
F4_2 F 0.7980(6) 0.3979(6) 0.40793(15)
F5_2 F 0.6448(6) 0.4239(6) 0.4263(2)
F6_2 F 0.6858(5) 0.2753(5) 0.40882(14)
C20_2 C 0.7201(8) 0.3581(7) 0.4256(2)
N17_2 N 0.8581(5) 0.0568(5) 0.39303(14)
C11_3 C 0.3587(5) 0.9073(5) 0.21822(15)
C12_3 C 0.2501(4) 0.9311(5) 0.21830(15)
C13_3 C 0.2524(6) 0.9349(7) 0.15557(18)
C14_3 C 0.1976(5) 0.9449(5) 0.18751(15)
N7_3 N 0.1000(4) 0.9714(4) 0.18600(13)
C15_3 C 0.0541(5) 0.9832(5) 0.21603(15)
C16_3 C 0.1039(5) 0.9680(5) 0.24692(15)
C17_3 C 0.0519(5) 0.9819(5) 0.27907(15)
C18_3 C 0.0500(5) 0.9817(5) 0.33630(14)
C19_3 C 0.1027(5) 0.9601(5) 0.36786(16)
N8_3 N 0.4438(5) 0.8906(5) 0.21676(14)
N9_3 N 0.3005(5) 0.9288(7) 0.13171(15)
N10_3 N 0.2036(4) 0.9416(4) 0.24773(12)
N11_2 N 0.1016(4) 0.9636(4) 0.30773(13)
S2_3 S 0.82330(15) 0.76239(15) 0.21780(5)
O4_3 O 0.9158(5) 0.8016(4) 0.23133(15)
O5_3 O 0.7475(4) 0.8405(4) 0.21032(15)
O6_3 O 0.7812(5) 0.6729(5) 0.23388(17)
F4_3 F 0.8979(6) 0.7980(6) 0.15793(15)
F5_3 F 0.9239(6) 0.6448(6) 0.1763(2)
F6_3 F 0.7753(5) 0.6858(5) 0.15882(14)
C20_3 C 0.8581(7) 0.7201(8) 0.1756(2)
N14 N 0.5584(4) 0.7036(4) 0.25227(12)
N16_2 N 0.5364(4) 0.6016(4) 0.19227(13)
C1_3 C 0.6413(5) 0.0927(5) 0.21822(15)
C2_3 C 0.7499(4) 0.0689(5) 0.21830(15)
C3_3 C 0.7476(6) 0.0651(7) 0.15557(18)
C4_3 C 0.8024(5) 0.0551(5) 0.18751(15)
N1_3 N 0.9000(4) 0.0286(4) 0.18600(13)
C5_3 C 0.9459(5) 0.0168(5) 0.21603(15)
C6_3 C 0.8961(5) 0.0320(5) 0.24692(15)
C7_3 C 0.9481(5) 0.0181(5) 0.27907(15)
C8_3 C 0.9500(5) 0.0183(5) 0.33630(14)
C9_3 C 0.8973(5) 0.0399(5) 0.36786(16)
N2_3 N 0.5562(5) 0.1094(5) 0.21676(14)
S1_3 S 0.17670(15) 0.23761(15) 0.21780(5)
N3_3 N 0.6995(5) 0.0712(7) 0.13171(15)
N4_3 N 0.7964(4) 0.0584(4) 0.24773(12)
N5_2 N 0.8984(4) 0.0364(4) 0.30773(13)
O1_3 O 0.0842(5) 0.1984(4) 0.23133(15)
O2_3 O 0.2525(4) 0.1595(4) 0.21032(15)
O3_3 O 0.2188(5) 0.3271(5) 0.23388(17)
F1_3 F 0.1021(6) 0.2020(6) 0.15793(15)
F2_3 F 0.0761(6) 0.3552(6) 0.1763(2)
F3_3 F 0.2247(5) 0.3142(5) 0.15882(14)
C10_3 C 0.1419(7) 0.2799(8) 0.1756(2)
N13 N 0.4416(4) 0.2964(4) 0.25227(12)
N15_2 N 0.4636(4) 0.3984(4) 0.19227(13)
S2_4 S 0.73761(15) 0.32330(15) 0.28220(5)
O4_4 O 0.6984(4) 0.4158(5) 0.26867(15)
O5_4 O 0.6595(4) 0.2475(4) 0.28968(15)
O6_4 O 0.8271(5) 0.2812(5) 0.26612(17)
F4_4 F 0.7020(6) 0.3979(6) 0.34207(15)
F5_4 F 0.8552(6) 0.4239(6) 0.3237(2)
F6_4 F 0.8142(5) 0.2753(5) 0.34118(14)
C20_4 C 0.7799(8) 0.3581(7) 0.3244(2)
C1_4 C 0.4073(5) 0.1413(5) 0.28178(15)
C2_4 C 0.4311(5) 0.2499(4) 0.28170(15)
C3_4 C 0.4349(7) 0.2476(6) 0.34443(18)
C4_4 C 0.4449(5) 0.3024(5) 0.31249(15)
N1_4 N 0.4714(4) 0.4000(4) 0.31400(13)
C5_4 C 0.4832(5) 0.4459(5) 0.28397(15)
C6_4 C 0.4680(5) 0.3961(5) 0.25308(15)
C7_4 C 0.4819(5) 0.4481(5) 0.22093(15)
C8_4 C 0.4817(5) 0.4500(5) 0.16370(14)
C9_4 C 0.4601(5) 0.3973(5) 0.13214(16)
N2_4 N 0.3906(5) 0.0562(5) 0.28324(14)
N3_4 N 0.4288(7) 0.1995(5) 0.36829(15)
C11_4 C 0.5927(5) 0.8587(5) 0.28178(15)
C12_4 C 0.5689(5) 0.7501(4) 0.28170(15)
C13_4 C 0.5651(7) 0.7524(6) 0.34443(18)
C14_4 C 0.5551(5) 0.6976(5) 0.31249(15)
N7_4 N 0.5286(4) 0.6000(4) 0.31400(13)
C15_4 C 0.5168(5) 0.5541(5) 0.28397(15)
C16_4 C 0.5320(5) 0.6039(5) 0.25308(15)
C17_4 C 0.5181(5) 0.5519(5) 0.22093(15)
C18_4 C 0.5183(5) 0.5500(5) 0.16370(14)
C19_4 C 0.5399(5) 0.6027(5) 0.13214(16)
N8_4 N 0.6094(5) 0.9438(5) 0.28324(14)
N9_4 N 0.5712(7) 0.8005(5) 0.36829(15)
S1_4 S 0.26239(15) 0.67670(15) 0.28220(5)
O1_4 O 0.3016(4) 0.5842(5) 0.26867(15)
O2_4 O 0.3405(4) 0.7525(4) 0.28968(15)
O3_4 O 0.1729(5) 0.7188(5) 0.26612(17)
F1_4 F 0.2980(6) 0.6021(6) 0.34207(15)
F2_4 F 0.1448(6) 0.5761(6) 0.3237(2)
F3_4 F 0.1858(5) 0.7247(5) 0.34118(14)
C10_4 C 0.2201(8) 0.6419(7) 0.3244(2)
C7_5 C 0.0519(5) 0.5181(5) 0.97093(15)
C8_5 C 0.0500(5) 0.5183(5) 0.91370(14)
C9_5 C 0.1027(5) 0.5399(5) 0.88214(16)
N5_3 N 0.1016(4) 0.5364(4) 0.94227(13)
N6_3 N 0.1419(5) 0.5568(5) 0.85697(14)
Ag4_2 Ag 0.28505(4) 0.58027(4) 0.94593(2)
Ag6_3 Ag 0.21495(4) 0.58027(4) 0.80407(2)
N13_2 N 0.5584(4) 0.7964(4) 0.99773(12)
C17_5 C 0.9481(5) 0.4819(5) 0.97093(15)
C18_5 C 0.9500(5) 0.4817(5) 0.91370(14)
C19_5 C 0.8973(5) 0.4601(5) 0.88214(16)
N11_3 N 0.8984(4) 0.4636(4) 0.94227(13)
N12_3 N 0.8581(5) 0.4432(5) 0.85697(14)
Ag3_2 Ag 0.71495(4) 0.41973(4) 0.94593(2)
Ag5_3 Ag 0.78505(4) 0.41973(4) 0.80407(2)
N14_2 N 0.4416(4) 0.2036(4) 0.99773(12)
C11_5 C 0.4073(5) 0.3587(5) 0.96822(15)
C12_5 C 0.4311(5) 0.2501(4) 0.96830(15)
C13_5 C 0.4349(7) 0.2524(6) 0.90557(18)
C14_5 C 0.4449(5) 0.1976(5) 0.93751(15)
N7_5 N 0.4714(4) 0.1000(4) 0.93600(13)
C15_5 C 0.4832(5) 0.0541(5) 0.96603(15)
C16_5 C 0.4680(5) 0.1039(5) 0.99692(15)
N8_5 N 0.3906(5) 0.4438(5) 0.96676(14)
N9_5 N 0.4288(7) 0.3005(5) 0.88171(15)
S2_5 S 0.26239(15) 0.82330(15) 0.96780(5)
O4_5 O 0.3016(4) 0.9158(5) 0.98133(15)
O5_5 O 0.3405(4) 0.7475(4) 0.96032(15)
O6_5 O 0.1729(5) 0.7812(5) 0.98388(17)
F4_5 F 0.2980(6) 0.8979(6) 0.90793(15)
F5_5 F 0.1448(6) 0.9239(6) 0.9263(2)
F6_5 F 0.1858(5) 0.7753(5) 0.90882(14)
C20_5 C 0.2201(8) 0.8581(7) 0.9256(2)
N17_3 N 0.3581(5) 0.5568(5) 0.89303(14)
C1_5 C 0.5927(5) 0.6413(5) 0.96822(15)
C2_5 C 0.5689(5) 0.7499(4) 0.96830(15)
C3_5 C 0.5651(7) 0.7476(6) 0.90557(18)
C4_5 C 0.5551(5) 0.8024(5) 0.93751(15)
N1_5 N 0.5286(4) 0.9000(4) 0.93600(13)
C5_5 C 0.5168(5) 0.9459(5) 0.96603(15)
C6_5 C 0.5320(5) 0.8961(5) 0.99692(15)
N2_5 N 0.6094(5) 0.5562(5) 0.96676(14)
S1_5 S 0.73761(15) 0.17670(15) 0.96780(5)
N3_5 N 0.5712(7) 0.6995(5) 0.88171(15)
O1_5 O 0.6984(4) 0.0842(5) 0.98133(15)
O2_5 O 0.6595(4) 0.2525(4) 0.96032(15)
O3_5 O 0.8271(5) 0.2188(5) 0.98388(17)
F1_5 F 0.7020(6) 0.1021(6) 0.90793(15)
F2_5 F 0.8552(6) 0.0761(6) 0.9263(2)
F3_5 F 0.8142(5) 0.2247(5) 0.90882(14)
C10_5 C 0.7799(8) 0.1419(7) 0.9256(2)
N18_3 N 0.6419(5) 0.4432(5) 0.89303(14)
Ag2_2 Ag 0.08027(4) 0.28505(4) 0.69593(2)
S2_6 S 0.32330(15) 0.26239(15) 0.71780(5)
O4_6 O 0.4158(5) 0.3016(4) 0.73133(15)
O5_6 O 0.2475(4) 0.3405(4) 0.71032(15)
O6_6 O 0.2812(5) 0.1729(5) 0.73388(17)
F4_6 F 0.3979(6) 0.2980(6) 0.65793(15)
F5_6 F 0.4239(6) 0.1448(6) 0.6763(2)
F6_6 F 0.2753(5) 0.1858(5) 0.65882(14)
C20_6 C 0.3581(7) 0.2201(8) 0.6756(2)
N14_3 N 0.0584(4) 0.2036(4) 0.75227(12)
N16_3 N 0.0364(4) 0.1016(4) 0.69227(13)
N17_4 N 0.0568(5) 0.3581(5) 0.64303(14)
C1_6 C 0.1413(5) 0.5927(5) 0.71822(15)
C2_6 C 0.2499(4) 0.5689(5) 0.71830(15)
C3_6 C 0.2476(6) 0.5651(7) 0.65557(18)
C4_6 C 0.3024(5) 0.5551(5) 0.68751(15)
N1_6 N 0.4000(4) 0.5286(4) 0.68600(13)
C5_6 C 0.4459(5) 0.5168(5) 0.71603(15)
C6_6 C 0.3961(5) 0.5320(5) 0.74692(15)
C7_6 C 0.4481(5) 0.5181(5) 0.77907(15)
C8_6 C 0.4500(5) 0.5183(5) 0.83630(14)
C9_6 C 0.3973(5) 0.5399(5) 0.86786(16)
N2_6 N 0.0562(5) 0.6094(5) 0.71676(14)
N3_6 N 0.1995(5) 0.5712(7) 0.63171(15)
N4_4 N 0.2964(4) 0.5584(4) 0.74773(12)
N5_4 N 0.3984(4) 0.5364(4) 0.80773(13)
C11_6 C 0.8587(5) 0.4073(5) 0.71822(15)
C12_6 C 0.7501(4) 0.4311(5) 0.71830(15)
C13_6 C 0.7524(6) 0.4349(7) 0.65557(18)
C14_6 C 0.6976(5) 0.4449(5) 0.68751(15)
N7_6 N 0.6000(4) 0.4714(4) 0.68600(13)
C15_6 C 0.5541(5) 0.4832(5) 0.71603(15)
C16_6 C 0.6039(5) 0.4680(5) 0.74692(15)
C17_6 C 0.5519(5) 0.4819(5) 0.77907(15)
C18_6 C 0.5500(5) 0.4817(5) 0.83630(14)
C19_6 C 0.6027(5) 0.4601(5) 0.86786(16)
N8_6 N 0.9438(5) 0.3906(5) 0.71676(14)
N9_6 N 0.8005(5) 0.4288(7) 0.63171(15)
N10_4 N 0.7036(4) 0.4416(4) 0.74773(12)
N11_4 N 0.6016(4) 0.4636(4) 0.80773(13)
Ag1_2 Ag 0.91973(4) 0.71495(4) 0.69593(2)
S1_6 S 0.67670(15) 0.73761(15) 0.71780(5)
O1_6 O 0.5842(5) 0.6984(4) 0.73133(15)
O2_6 O 0.7525(4) 0.6595(4) 0.71032(15)
O3_6 O 0.7188(5) 0.8271(5) 0.73388(17)
F1_6 F 0.6021(6) 0.7020(6) 0.65793(15)
F2_6 F 0.5761(6) 0.8552(6) 0.6763(2)
F3_6 F 0.7247(5) 0.8142(5) 0.65882(14)
C10_6 C 0.6419(7) 0.7799(8) 0.6756(2)
N13_3 N 0.9416(4) 0.7964(4) 0.75227(12)
N15_3 N 0.9636(4) 0.8984(4) 0.69227(13)
N18_4 N 0.9432(5) 0.6419(5) 0.64303(14)
C11_7 C 0.0927(5) 0.3587(5) 0.78178(15)
C12_7 C 0.0689(5) 0.2501(4) 0.78170(15)
C13_7 C 0.0651(7) 0.2524(6) 0.84443(18)
C14_7 C 0.0551(5) 0.1976(5) 0.81249(15)
N7_7 N 0.0286(4) 0.1000(4) 0.81400(13)
C15_7 C 0.0168(5) 0.0541(5) 0.78397(15)
C16_7 C 0.0320(5) 0.1039(5) 0.75308(15)
C17_7 C 0.0181(5) 0.0519(5) 0.72093(15)
C18_7 C 0.0183(5) 0.0500(5) 0.66370(14)
C19_7 C 0.0399(5) 0.1027(5) 0.63214(16)
N8_7 N 0.1094(5) 0.4438(5) 0.78324(14)
N9_7 N 0.0712(7) 0.3005(5) 0.86829(15)
N12_4 N 0.0568(5) 0.1419(5) 0.60697(14)
S2_7 S 0.23761(15) 0.82330(15) 0.78220(5)
O4_7 O 0.1984(4) 0.9158(5) 0.76867(15)
O5_7 O 0.1595(4) 0.7475(4) 0.78968(15)
O6_7 O 0.3271(5) 0.7812(5) 0.76612(17)
F4_7 F 0.2020(6) 0.8979(6) 0.84207(15)
F5_7 F 0.3552(6) 0.9239(6) 0.8237(2)
F6_7 F 0.3142(5) 0.7753(5) 0.84118(14)
C20_7 C 0.2799(8) 0.8581(7) 0.8244(2)
Ag5_4 Ag 0.08027(4) 0.21495(4) 0.55407(2)
C1_7 C 0.9073(5) 0.6413(5) 0.78178(15)
C2_7 C 0.9311(5) 0.7499(4) 0.78170(15)
C3_7 C 0.9349(7) 0.7476(6) 0.84443(18)
C4_7 C 0.9449(5) 0.8024(5) 0.81249(15)
N1_7 N 0.9714(4) 0.9000(4) 0.81400(13)
C5_7 C 0.9832(5) 0.9459(5) 0.78397(15)
C6_7 C 0.9680(5) 0.8961(5) 0.75308(15)
C7_7 C 0.9819(5) 0.9481(5) 0.72093(15)
C8_7 C 0.9817(5) 0.9500(5) 0.66370(14)
C9_7 C 0.9601(5) 0.8973(5) 0.63214(16)
N2_7 N 0.8906(5) 0.5562(5) 0.78324(14)
S1_7 S 0.76239(15) 0.17670(15) 0.78220(5)
N3_7 N 0.9288(7) 0.6995(5) 0.86829(15)
N6_4 N 0.9432(5) 0.8581(5) 0.60697(14)
O1_7 O 0.8016(4) 0.0842(5) 0.76867(15)
O2_7 O 0.8405(4) 0.2525(4) 0.78968(15)
O3_7 O 0.6729(5) 0.2188(5) 0.76612(17)
F1_7 F 0.7980(6) 0.1021(6) 0.84207(15)
F2_7 F 0.6448(6) 0.0761(6) 0.8237(2)
F3_7 F 0.6858(5) 0.2247(5) 0.84118(14)
C10_7 C 0.7201(8) 0.1419(7) 0.8244(2)
Ag6_4 Ag 0.91973(4) 0.78505(4) 0.55407(2)
S1_8 S 0.32330(15) 0.23761(15) 0.53220(5)
O1_8 O 0.4158(5) 0.1984(4) 0.51867(15)
O2_8 O 0.2475(4) 0.1595(4) 0.53968(15)
O3_8 O 0.2812(5) 0.3271(5) 0.51612(17)
F1_8 F 0.3979(6) 0.2020(6) 0.59207(15)
F2_8 F 0.4239(6) 0.3552(6) 0.5737(2)
F3_8 F 0.2753(5) 0.3142(5) 0.59118(14)
C10_8 C 0.3581(7) 0.2799(8) 0.5744(2)
N13_4 N 0.0584(4) 0.2964(4) 0.49773(12)
N15_4 N 0.0364(4) 0.3984(4) 0.55773(13)
S2_8 S 0.67670(15) 0.76239(15) 0.53220(5)
O4_8 O 0.5842(5) 0.8016(4) 0.51867(15)
O5_8 O 0.7525(4) 0.8405(4) 0.53968(15)
O6_8 O 0.7188(5) 0.6729(5) 0.51612(17)
F4_8 F 0.6021(6) 0.7980(6) 0.59207(15)
F5_8 F 0.5761(6) 0.6448(6) 0.5737(2)
F6_8 F 0.7247(5) 0.6858(5) 0.59118(14)
C20_8 C 0.6419(7) 0.7201(8) 0.5744(2)
N14_4 N 0.9416(4) 0.7036(4) 0.49773(12)
N16_4 N 0.9636(4) 0.6016(4) 0.55773(13)
C1_8 C 0.0927(5) 0.1413(5) 0.46822(15)
C2_8 C 0.0689(5) 0.2499(4) 0.46830(15)
C3_8 C 0.0651(7) 0.2476(6) 0.40557(18)
C4_8 C 0.0551(5) 0.3024(5) 0.43751(15)
N1_8 N 0.0286(4) 0.4000(4) 0.43600(13)
C5_8 C 0.0168(5) 0.4459(5) 0.46603(15)
C6_8 C 0.0320(5) 0.3961(5) 0.49692(15)
C7_8 C 0.0181(5) 0.4481(5) 0.52907(15)
C8_8 C 0.0183(5) 0.4500(5) 0.58630(14)
C9_8 C 0.0399(5) 0.3973(5) 0.61786(16)
N2_8 N 0.1094(5) 0.0562(5) 0.46676(14)
N3_8 N 0.0712(7) 0.1995(5) 0.38171(15)
C11_8 C 0.9073(5) 0.8587(5) 0.46822(15)
C12_8 C 0.9311(5) 0.7501(4) 0.46830(15)
C13_8 C 0.9349(7) 0.7524(6) 0.40557(18)
C14_8 C 0.9449(5) 0.6976(5) 0.43751(15)
N7_8 N 0.9714(4) 0.6000(4) 0.43600(13)
C15_8 C 0.9832(5) 0.5541(5) 0.46603(15)
C16_8 C 0.9680(5) 0.6039(5) 0.49692(15)
C17_8 C 0.9819(5) 0.5519(5) 0.52907(15)
C18_8 C 0.9817(5) 0.5500(5) 0.58630(14)
C19_8 C 0.9601(5) 0.6027(5) 0.61786(16)
N8_8 N 0.8906(5) 0.9438(5) 0.46676(14)
N9_8 N 0.9288(7) 0.8005(5) 0.38171(15)
loop_
_geom_bond_atom_site_label_1
_geom_bond_atom_site_label_2
_geom_bond_site_symmetry_1
_geom_bond_site_symmetry_2
Ag1 N2 1_555 1_555
C1 C2 1_555 1_555
C2 C4 1_555 1_555
C3 C4 1_555 1_555
C4 N1 1_555 1_555
N1 C5 1_555 1_555
C5 C6 1_555 1_555
N2 C1 1_555 1_555
S1 O1 1_555 1_555
N3 C3 1_555 1_555
N4 C2 1_555 1_555
O2 Ag1 1_555 1_555
O3 S1 1_555 1_555
F1 C10 1_555 1_555
F2 C10 1_555 1_555
F3 C10 1_555 1_555
C10 S1 1_555 1_555
N15 Ag1 1_555 1_555
N18 Ag1 1_555 1_555
C6 N4 1_555 1_555
S1 O2 1_555 1_555
C11 C12 1_555 1_555
C12 C14 1_555 1_555
C13 C14 1_555 1_555
C14 N7 1_555 1_555
N7 C15 1_555 1_555
C16 C15 1_555 1_555
N8 C11 1_555 1_555
N9 C13 1_555 1_555
N10 C12 1_555 1_555
Ag2 N8 1_555 1_555
S2 O4 1_555 1_555
O5 Ag2 1_555 1_555
O6 S2 1_555 1_555
F4 C20 1_555 1_555
F5 C20 1_555 1_555
F6 C20 1_555 1_555
C20 S2 1_555 1_555
N16 Ag2 1_555 1_555
N17 Ag2 1_555 1_555
C16 N10 1_555 1_555
S2 O5 1_555 1_555
C19 C18 1_555 1_555
N16 C17 1_555 1_555
N12 C19 1_555 1_555
Ag5 N12 1_555 1_555
C18 N16 1_555 1_555
C7 N15 1_555 1_555
C8 C9 1_555 1_555
C9 N6 1_555 1_555
N15 C8 1_555 1_555
N6 Ag6 1_555 1_555
C1_2 C2_2 1_555 1_555
C2_2 C4_2 1_555 1_555
C3_2 C4_2 1_555 1_555
C4_2 N1_2 1_555 1_555
N1_2 C5_2 1_555 1_555
C5_2 C6_2 1_555 1_555
C6_2 C7_2 1_555 1_555
C7_2 N5 1_555 1_555
C8_2 C9_2 1_555 1_555
C9_2 N6_2 1_555 1_555
N2_2 C1_2 1_555 1_555
N3_2 C3_2 1_555 1_555
N4_2 C2_2 1_555 1_555
N5 C8_2 1_555 1_555
N6_2 Ag6_2 1_555 1_555
Ag4 N4_2 1_555 1_555
C6_2 N4_2 1_555 1_555
N5 Ag4 1_555 1_555
C11_2 C12_2 1_555 1_555
C12_2 C14_2 1_555 1_555
C13_2 C14_2 1_555 1_555
C14_2 N7_2 1_555 1_555
N7_2 C15_2 1_555 1_555
C16_2 C15_2 1_555 1_555
C19_2 C18_2 1_555 1_555
N8_2 C11_2 1_555 1_555
N9_2 C13_2 1_555 1_555
N10_2 C12_2 1_555 1_555
N11 C17_2 1_555 1_555
N12_2 C19_2 1_555 1_555
Ag3 N10_2 1_555 1_555
Ag5_2 N12_2 1_555 1_555
C16_2 C17_2 1_555 1_555
C16_2 N10_2 1_555 1_555
C18_2 N11 1_555 1_555
N11 Ag3 1_555 1_555
S1_2 O1_2 1_555 1_555
O2_2 Ag3 1_555 1_555
O3_2 S1_2 1_555 1_555
F1_2 C10_2 1_555 1_555
F2_2 C10_2 1_555 1_555
F3_2 C10_2 1_555 1_555
C10_2 S1_2 1_555 1_555
N18_2 Ag3 1_555 1_555
S1_2 O2_2 1_555 1_555
S2_2 O4_2 1_555 1_555
O5_2 Ag4 1_555 1_555
O6_2 S2_2 1_555 1_555
F4_2 C20_2 1_555 1_555
F5_2 C20_2 1_555 1_555
F6_2 C20_2 1_555 1_555
C20_2 S2_2 1_555 1_555
N17_2 Ag4 1_555 1_555
S2_2 O5_2 1_555 1_555
C11_3 C12_3 1_555 1_555
C12_3 C14_3 1_555 1_555
C13_3 C14_3 1_555 1_555
C14_3 N7_3 1_555 1_555
N7_3 C15_3 1_555 1_555
C16_3 C15_3 1_555 1_555
C19_3 C18_3 1_555 1_555
N8_3 C11_3 1_555 1_555
N9_3 C13_3 1_555 1_555
N10_3 C12_3 1_555 1_555
N11_2 C17_3 1_555 1_555
N18_2 C19_3 1_555 1_555
Ag6 N8_3 1_555 1_555
S2_3 O4_3 1_555 1_555
O5_3 Ag6 1_555 1_555
O6_3 S2_3 1_555 1_555
F4_3 C20_3 1_555 1_555
F5_3 C20_3 1_555 1_555
F6_3 C20_3 1_555 1_555
C20_3 S2_3 1_555 1_555
Ag5_2 N10_3 1_555 1_555
N14 Ag6 1_555 1_555
N16_2 Ag6 1_555 1_555
C16_3 C17_3 1_555 1_555
C16_3 N10_3 1_555 1_555
C18_3 N11_2 1_555 1_555
N11_2 Ag5_2 1_555 1_555
S2_3 O5_3 1_555 1_555
Ag5 N2_3 1_555 1_555
C1_3 C2_3 1_555 1_555
C2_3 C4_3 1_555 1_555
C3_3 C4_3 1_555 1_555
C4_3 N1_3 1_555 1_555
N1_3 C5_3 1_555 1_555
C5_3 C6_3 1_555 1_555
C6_3 C7_3 1_555 1_555
C7_3 N5_2 1_555 1_555
C8_3 C9_3 1_555 1_555
C9_3 N17_2 1_555 1_555
N2_3 C1_3 1_555 1_555
S1_3 O1_3 1_555 1_555
N3_3 C3_3 1_555 1_555
N4_3 C2_3 1_555 1_555
N5_2 C8_3 1_555 1_555
O2_3 Ag5 1_555 1_555
O3_3 S1_3 1_555 1_555
F1_3 C10_3 1_555 1_555
F2_3 C10_3 1_555 1_555
F3_3 C10_3 1_555 1_555
C10_3 S1_3 1_555 1_555
Ag6_2 N4_3 1_555 1_555
N13 Ag5 1_555 1_555
N15_2 Ag5 1_555 1_555
C6_3 N4_3 1_555 1_555
S1_3 O2_3 1_555 1_555
N5_2 Ag6_2 1_555 1_555
S2_4 O4_4 1_555 1_555
O5_4 Ag6_2 1_555 1_555
O6_4 S2_4 1_555 1_555
F4_4 C20_4 1_555 1_555
F5_4 C20_4 1_555 1_555
F6_4 C20_4 1_555 1_555
C20_4 S2_4 1_555 1_555
S2_4 O5_4 1_555 1_555
C1_4 C2_4 1_555 1_555
C2_4 C4_4 1_555 1_555
C3_4 C4_4 1_555 1_555
C4_4 N1_4 1_555 1_555
N1_4 C5_4 1_555 1_555
C5_4 C6_4 1_555 1_555
C6_4 C7_4 1_555 1_555
C7_4 N15_2 1_555 1_555
C8_4 C9_4 1_555 1_555
C9_4 N17 1_555 1_555
N2_4 C1_4 1_555 1_555
N3_4 C3_4 1_555 1_555
N13 C2_4 1_555 1_555
N15_2 C8_4 1_555 1_555
C11_4 C12_4 1_555 1_555
C12_4 C14_4 1_555 1_555
C13_4 C14_4 1_555 1_555
C14_4 N7_4 1_555 1_555
N7_4 C15_4 1_555 1_555
C15_4 C5_4 1_555 1_555
C16_4 C15_4 1_555 1_555
C17_4 C7_4 1_555 1_555
C18_4 C8_4 1_555 1_555
C19_4 C18_4 1_555 1_555
N8_4 C11_4 1_555 1_555
N9_4 C13_4 1_555 1_555
N14 C12_4 1_555 1_555
N16_2 C17_4 1_555 1_555
N18 C19_4 1_555 1_555
C6_4 N13 1_555 1_555
C16_4 C17_4 1_555 1_555
C16_4 N14 1_555 1_555
C18_4 N16_2 1_555 1_555
S1_4 O1_4 1_555 1_555
O2_4 Ag5_2 1_555 1_555
O3_4 S1_4 1_555 1_555
F1_4 C10_4 1_555 1_555
F2_4 C10_4 1_555 1_555
F3_4 C10_4 1_555 1_555
C10_4 S1_4 1_555 1_555
S1_4 O2_4 1_555 1_555
C7_5 N5_3 1_555 1_555
C8_5 C9_5 1_555 1_555
C9_5 N6_3 1_555 1_555
N5_3 C8_5 1_555 1_555
N6_3 Ag6_3 1_555 1_555
N5_3 Ag4_2 1_555 1_555
C19_5 C18_5 1_555 1_555
N11_3 C17_5 1_555 1_555
N12_3 C19_5 1_555 1_555
Ag5_3 N12_3 1_555 1_555
C18_5 N11_3 1_555 1_555
N11_3 Ag3_2 1_555 1_555
C11_5 C12_5 1_555 1_555
C12_5 C14_5 1_555 1_555
C13_5 C14_5 1_555 1_555
C14_5 N7_5 1_555 1_555
N7_5 C15_5 1_555 1_555
C16_5 C15_5 1_555 1_555
N8_5 C11_5 1_555 1_555
N9_5 C13_5 1_555 1_555
N14_2 C12_5 1_555 1_555
Ag4_2 N8_5 1_555 1_555
S2_5 O4_5 1_555 1_555
O5_5 Ag4_2 1_555 1_555
O6_5 S2_5 1_555 1_555
F4_5 C20_5 1_555 1_555
F5_5 C20_5 1_555 1_555
F6_5 C20_5 1_555 1_555
C20_5 S2_5 1_555 1_555
N17_3 Ag4_2 1_555 1_555
C16_5 N14_2 1_555 1_555
S2_5 O5_5 1_555 1_555
Ag3_2 N2_5 1_555 1_555
C1_5 C2_5 1_555 1_555
C2_5 C4_5 1_555 1_555
C3_5 C4_5 1_555 1_555
C4_5 N1_5 1_555 1_555
N1_5 C5_5 1_555 1_555
C5_5 C6_5 1_555 1_555
N2_5 C1_5 1_555 1_555
S1_5 O1_5 1_555 1_555
N3_5 C3_5 1_555 1_555
N13_2 C2_5 1_555 1_555
O2_5 Ag3_2 1_555 1_555
O3_5 S1_5 1_555 1_555
F1_5 C10_5 1_555 1_555
F2_5 C10_5 1_555 1_555
F3_5 C10_5 1_555 1_555
C10_5 S1_5 1_555 1_555
N18_3 Ag3_2 1_555 1_555
C6_5 N13_2 1_555 1_555
S1_5 O2_5 1_555 1_555
S2_6 O4_6 1_555 1_555
O5_6 Ag2_2 1_555 1_555
O6_6 S2_6 1_555 1_555
F4_6 C20_6 1_555 1_555
F5_6 C20_6 1_555 1_555
F6_6 C20_6 1_555 1_555
C20_6 S2_6 1_555 1_555
N14_3 Ag2_2 1_555 1_555
N16_3 Ag2_2 1_555 1_555
N17_4 Ag2_2 1_555 1_555
S2_6 O5_6 1_555 1_555
C1_6 C2_6 1_555 1_555
C2_6 C4_6 1_555 1_555
C3_6 C4_6 1_555 1_555
C4_6 N1_6 1_555 1_555
N1_6 C5_6 1_555 1_555
C5_6 C6_6 1_555 1_555
C6_6 C7_6 1_555 1_555
C7_6 N5_4 1_555 1_555
C8_6 C9_6 1_555 1_555
C9_6 N17_3 1_555 1_555
N2_6 C1_6 1_555 1_555
N3_6 C3_6 1_555 1_555
N4_4 C2_6 1_555 1_555
N5_4 C8_6 1_555 1_555
C11_6 C12_6 1_555 1_555
C12_6 C14_6 1_555 1_555
C13_6 C14_6 1_555 1_555
C14_6 N7_6 1_555 1_555
N7_6 C15_6 1_555 1_555
C15_6 C5_6 1_555 1_555
C16_6 C15_6 1_555 1_555
C17_6 C7_6 1_555 1_555
C18_6 C8_6 1_555 1_555
C19_6 C18_6 1_555 1_555
N8_6 C11_6 1_555 1_555
N9_6 C13_6 1_555 1_555
N10_4 C12_6 1_555 1_555
N11_4 C17_6 1_555 1_555
N18_3 C19_6 1_555 1_555
Ag5_3 N10_4 1_555 1_555
Ag6_3 N4_4 1_555 1_555
C6_6 N4_4 1_555 1_555
N5_4 Ag6_3 1_555 1_555
C16_6 C17_6 1_555 1_555
C16_6 N10_4 1_555 1_555
C18_6 N11_4 1_555 1_555
N11_4 Ag5_3 1_555 1_555
S1_6 O1_6 1_555 1_555
O2_6 Ag1_2 1_555 1_555
O3_6 S1_6 1_555 1_555
F1_6 C10_6 1_555 1_555
F2_6 C10_6 1_555 1_555
F3_6 C10_6 1_555 1_555
C10_6 S1_6 1_555 1_555
N13_3 Ag1_2 1_555 1_555
N15_3 Ag1_2 1_555 1_555
N18_4 Ag1_2 1_555 1_555
S1_6 O2_6 1_555 1_555
C11_7 C12_7 1_555 1_555
C12_7 C14_7 1_555 1_555
C13_7 C14_7 1_555 1_555
C14_7 N7_7 1_555 1_555
N7_7 C15_7 1_555 1_555
C16_7 C15_7 1_555 1_555
C19_7 C18_7 1_555 1_555
N8_7 C11_7 1_555 1_555
N9_7 C13_7 1_555 1_555
N14_3 C12_7 1_555 1_555
N16_3 C17_7 1_555 1_555
N12_4 C19_7 1_555 1_555
Ag6_3 N8_7 1_555 1_555
S2_7 O4_7 1_555 1_555
O5_7 Ag6_3 1_555 1_555
O6_7 S2_7 1_555 1_555
F4_7 C20_7 1_555 1_555
F5_7 C20_7 1_555 1_555
F6_7 C20_7 1_555 1_555
C20_7 S2_7 1_555 1_555
Ag5_4 N12_4 1_555 1_555
C16_7 C17_7 1_555 1_555
C16_7 N14_3 1_555 1_555
C18_7 N16_3 1_555 1_555
S2_7 O5_7 1_555 1_555
Ag5_3 N2_7 1_555 1_555
C1_7 C2_7 1_555 1_555
C2_7 C4_7 1_555 1_555
C3_7 C4_7 1_555 1_555
C4_7 N1_7 1_555 1_555
N1_7 C5_7 1_555 1_555
C5_7 C6_7 1_555 1_555
C6_7 C7_7 1_555 1_555
C7_7 N15_3 1_555 1_555
C8_7 C9_7 1_555 1_555
C9_7 N6_4 1_555 1_555
N2_7 C1_7 1_555 1_555
S1_7 O1_7 1_555 1_555
N3_7 C3_7 1_555 1_555
N13_3 C2_7 1_555 1_555
N15_3 C8_7 1_555 1_555
N6_4 Ag6_4 1_555 1_555
O2_7 Ag5_3 1_555 1_555
O3_7 S1_7 1_555 1_555
F1_7 C10_7 1_555 1_555
F2_7 C10_7 1_555 1_555
F3_7 C10_7 1_555 1_555
C10_7 S1_7 1_555 1_555
C6_7 N13_3 1_555 1_555
S1_7 O2_7 1_555 1_555
S1_8 O1_8 1_555 1_555
O2_8 Ag5_4 1_555 1_555
O3_8 S1_8 1_555 1_555
F1_8 C10_8 1_555 1_555
F2_8 C10_8 1_555 1_555
F3_8 C10_8 1_555 1_555
C10_8 S1_8 1_555 1_555
N13_4 Ag5_4 1_555 1_555
N15_4 Ag5_4 1_555 1_555
S1_8 O2_8 1_555 1_555
S2_8 O4_8 1_555 1_555
O5_8 Ag6_4 1_555 1_555
O6_8 S2_8 1_555 1_555
F4_8 C20_8 1_555 1_555
F5_8 C20_8 1_555 1_555
F6_8 C20_8 1_555 1_555
C20_8 S2_8 1_555 1_555
N14_4 Ag6_4 1_555 1_555
N16_4 Ag6_4 1_555 1_555
S2_8 O5_8 1_555 1_555
C1_8 C2_8 1_555 1_555
C2_8 C4_8 1_555 1_555
C3_8 C4_8 1_555 1_555
C4_8 N1_8 1_555 1_555
N1_8 C5_8 1_555 1_555
C5_8 C6_8 1_555 1_555
C6_8 C7_8 1_555 1_555
C7_8 N15_4 1_555 1_555
C8_8 C9_8 1_555 1_555
C9_8 N17_4 1_555 1_555
N2_8 C1_8 1_555 1_555
N3_8 C3_8 1_555 1_555
N13_4 C2_8 1_555 1_555
N15_4 C8_8 1_555 1_555
C6_8 N13_4 1_555 1_555
C11_8 C12_8 1_555 1_555
C12_8 C14_8 1_555 1_555
C13_8 C14_8 1_555 1_555
C14_8 N7_8 1_555 1_555
N7_8 C15_8 1_555 1_555
C16_8 C15_8 1_555 1_555
C19_8 C18_8 1_555 1_555
N8_8 C11_8 1_555 1_555
N9_8 C13_8 1_555 1_555
N14_4 C12_8 1_555 1_555
N16_4 C17_8 1_555 1_555
N18_4 C19_8 1_555 1_555
C16_8 C17_8 1_555 1_555
C16_8 N14_4 1_555 1_555
C18_8 N16_4 1_555 1_555

#END
