
###############################################################################
#
# This file contains modified crystal structure data generated from the
# MOF subset of the Cambridge Structural Database (CSD) v543 
# hosted by the Cambridge Crystallographic Data Centre (CCDC).
#
# This work is licensed under the Creative Commons
# Attribution-NonCommercial-ShareAlike 4.0 International License.
# To view a copy of this license, visit
# http://creativecommons.org/licenses/by-nc-sa/4.0/
# or send a letter to
# Creative Commons, PO Box 1866, Mountain View, CA 94042, USA.
#
# CIF created using the CSD Python API on 29 September 2022
# The structure has been converted into the P1 space group
# The structure has a 3D framework
# The original CSD entry HUZXOR is in the monoclinic crystal system
# The framework has been calculated to contain at least 10.0% void space
# The void calculation uses a probe of radius 1.32A, grid spacing 0.4
#
###############################################################################

data_HUZXOR
_chemical_formula_moiety         '(C528 H512 N16 O96 Zn16)n'
_symmetry_cell_setting           triclinic
_symmetry_space_group_name_H-M   'P 1'
_symmetry_Int_Tables_number      1
_space_group_name_Hall           'P 1'
loop_
_symmetry_equiv_pos_site_id
_symmetry_equiv_pos_as_xyz
1 x,y,z
_cell_length_a                   38.9780(9)
_cell_length_b                   27.4330(7)
_cell_length_c                   27.3770(6)
_cell_angle_alpha                90
_cell_angle_beta                 133.8060(9)
_cell_angle_gamma                90
_cell_volume                     21126.5
loop_
_atom_site_label
_atom_site_type_symbol
_atom_site_fract_x
_atom_site_fract_y
_atom_site_fract_z
C27 C 0.1312 0.4814 0.0077
C31 C 0.1400 0.5200 0.0455
O9 O 0.1699 0.4504 0.0413
H19 H 0.1662 0.5182 0.0919
C35 C 0.1116 0.5636 0.0192
C36 C 0.2083 0.4490 0.1200
C39 C 0.1098(3) 0.6011(3) 0.0553(4)
H21 H 0.2000 0.4694 0.1394
H22 H 0.2147 0.4161 0.1374
C40 C 0.2492 0.4700 0.1309
C45 C 0.0680(3) 0.6189(4) 0.0313(4)
C46 C 0.1517(3) 0.6184(3) 0.1165(4)
H25 H 0.2723 0.4767 0.1791
H26 H 0.2367 0.5018 0.1097
C47 C 0.2819 0.4586 0.1189
C53 C 0.0661(2) 0.6503(3) 0.0700(3)
H34 H 0.1807 0.6091 0.1318
C54 C 0.1506(2) 0.6501(3) 0.1557(3)
H35 H 0.2749 0.4828 0.0872
H36 H 0.3143 0.4645 0.1615
C55 C 0.2818 0.4204 0.0992
H45 H 0.0369 0.6604 0.0536
C61 C 0.1079(2) 0.6661(2) 0.1326(3)
H46 H 0.1789 0.6604 0.1977
H47 H 0.3044 0.4207 0.0951
H48 H 0.2506 0.4139 0.0558
H49 H 0.2903 0.3955 0.1306
C65 C 0.1069(2) 0.6987(2) 0.1746(3)
O13 O 0.06745(13) 0.71225(15) 0.15098(18)
O14 O 0.14566(14) 0.71099(15) 0.2315(2)
Zn4 Zn 0.048556(18) 0.746865(19) 0.19540(3)
Zn5 Zn 0.152910(18) 0.753199(19) 0.29923(3)
Zn1 Zn 0.048556(18) 0.253135(19) 0.69540(3)
O1 O 0.06415(13) 0.31613(13) 0.74764(19)
O2 O 0.05517(13) 0.18872(14) 0.6652(2)
O3 O 0.06745(13) 0.28775(15) 0.65098(18)
O4 O 0.06005(13) 0.21599(14) 0.77010(17)
C3 C 0.1040(2) 0.32947(18) 0.8006(3)
C4 C 0.0935(2) 0.17146(19) 0.6884(3)
C7 C 0.10590(19) 0.3744(2) 0.8342(3)
O5 O 0.14289(13) 0.30846(14) 0.8303(2)
C8 C 0.0921(2) 0.1281(2) 0.6546(3)
O6 O 0.13448(13) 0.18847(14) 0.7392(2)
O7 O 0.14566(14) 0.28901(15) 0.7315(2)
O8 O 0.13898(12) 0.20734(14) 0.84734(18)
C10 C 0.0655(2) 0.3988(2) 0.8070(3)
C11 C 0.1485(2) 0.3904(2) 0.8961(3)
Zn2 Zn 0.152910(18) 0.246801(19) 0.79923(3)
C12 C 0.0487(2) 0.1047(2) 0.6017(3)
C13 C 0.1332(2) 0.1103(3) 0.6747(4)
H5 H 0.0367 0.3899 0.7646
C15 C 0.0667(2) 0.4370(3) 0.8418(4)
C16 C 0.1501(2) 0.4280(3) 0.9320(4)
H6 H 0.1767 0.3757 0.9141
N2 N 0.22547(15) 0.24242(16) 0.8718(2)
H7 H 0.0210 0.1147 0.5899
C17 C 0.0474(3) 0.0671(3) 0.5675(4)
C18 C 0.1311(3) 0.0703(3) 0.6397(4)
H8 H 0.1624 0.1245 0.7110
H9 H 0.0387 0.4530 0.8223
C21 C 0.1090(3) 0.4513(2) 0.9049(4)
H10 H 0.1789 0.4372 0.9741
H11 H 0.0182 0.0533 0.5307
C22 C 0.0894(3) 0.0486(3) 0.5870(4)
H12 H 0.1591 0.0588 0.6532
C25 C 0.1110 0.4922 0.9424
C26 C 0.0860 0.0092 0.5484
C28 C 0.0792 0.5289 0.9045
C30 C 0.0496 0.0049 0.4775
C32 C 0.0851 0.5659 0.9540
H17 H 0.0578 0.5317 0.8576
O10 O 0.0152 0.0385 0.4382
O11 O 0.0482 0.6095 0.9030
C41 C 0.0133 0.6116 0.8303
H27 H 0.0249 0.5996 0.8106
C48 C 0.0114 0.6698 0.8315
H33 H 0.0399 0.6101 0.9880
C56 C 0.0457 0.7200 0.8581
H50 H 0.0268 0.7488 0.8460
H51 H 0.0566 0.7217 0.8353
C62 C 0.0861 0.7195 0.9300
H57 H 0.0085 0.0977 0.3682
H59 H 0.1046 0.7484 0.9432
H60 H 0.0754 0.7185 0.9528
H61 H 0.1052 0.6913 0.9421
C29 C 0.1141 0.9708 0.5818
C33 C 0.1046 0.9287 0.5315
H18 H 0.1368 0.9682 0.6288
C34 C 0.0529 0.9735 0.4425
C37 C 0.0891 0.9356 0.4765
O12 O 0.1374 0.9080 0.5731
H20 H 0.0314 0.9763 0.3957
C42 C 0.0920(3) 0.8986(2) 0.4412(4)
C43 C 0.1832 0.8900 0.6618
C49 C 0.0509(2) 0.8757(2) 0.3818(3)
C50 C 0.1345(3) 0.8872(3) 0.4610(4)
H29 H 0.1945 0.8569 0.6686
H30 H 0.1747 0.8960 0.6872
C51 C 0.2107 0.9224 0.6706
C57 C 0.0519(2) 0.8433(2) 0.3446(3)
H39 H 0.0217 0.8829 0.3673
H40 H 0.1626 0.9006 0.5005
C58 C 0.1361(2) 0.8557(2) 0.4227(3)
H41 H 0.1929 0.9363 0.6261
H42 H 0.2126 0.9478 0.6971
C59 C 0.2558 0.9173 0.6980
C63 C 0.09649(19) 0.83424(19) 0.3664(3)
H52 H 0.0244 0.8280 0.3066
H53 H 0.1651 0.8494 0.4363
H54 H 0.2699 0.9493 0.7073
H55 H 0.2747 0.8999 0.7406
C64 C 0.2567 0.8874 0.6466
C66 C 0.09864(19) 0.80102(18) 0.3242(3)
H62 H 0.2889 0.8843 0.6672
H63 H 0.2433 0.8555 0.6379
H64 H 0.2384 0.9049 0.6047
O15 O 0.06005(13) 0.78401(14) 0.27010(17)
O16 O 0.13898(12) 0.79266(14) 0.34734(18)
N1 N 0.97671(15) 0.25864(16) 0.6214(2)
C1 C 0.95121(18) 0.2821(2) 0.6313(3)
C2 C 0.9513(2) 0.2372(3) 0.5617(3)
H1 H 0.9676 0.2977 0.6725
C5 C 0.90259(19) 0.2838(2) 0.5835(3)
C6 C 0.9026(2) 0.2376(3) 0.5119(3)
H2 H 0.9676 0.2209 0.5530
H3 H 0.8865 0.3009 0.5919
C9 C 0.87764(19) 0.2600(2) 0.5226(3)
H4 H 0.8869 0.2225 0.4707
C14 C 0.8246(2) 0.2590(2) 0.4708(3)
C19 C 0.7993(3) 0.2699(6) 0.4828(5)
C20 C 0.7989(3) 0.2502(6) 0.4052(6)
C23 C 0.7495(3) 0.2688(5) 0.4315(5)
H13 H 0.8141 0.2787 0.5264
H14 H 0.8146 0.2430 0.3917
C24 C 0.7498(3) 0.2515(5) 0.3570(5)
H15 H 0.7331 0.2774 0.4436
H16 H 0.7338 0.2477 0.3117
C38 C 0.9800 0.0400 0.3527
H23 H 0.9979 0.0611 0.3486
H24 H 0.9843 0.0075 0.3436
C44 C 0.9300 0.0512 0.2896
H28 H 0.9835 0.5961 0.8095
H31 H 0.9183 0.0302 0.2522
H32 H 0.9085 0.0503 0.2961
C52 C 0.9390 0.0988 0.2823
H37 H 0.9849 0.6771 0.7839
H38 H 0.9990 0.6747 0.8519
H43 H 0.9119 0.1194 0.2627
H44 H 0.9439 0.0988 0.2521
C60 C 0.9817 0.1180 0.3492
H56 H 0.9878 0.1506 0.3442
H58 H 0.9765 0.1183 0.3787
N3 N 0.72547(15) 0.25758(16) 0.3718(2)
Zn3 Zn 0.652910(18) 0.253199(19) 0.29923(3)
C31_2 C 0.6400 0.0200 0.0455
H19_2 H 0.6662 0.0182 0.0919
C35_2 C 0.6116 0.0636 0.0192
C39_2 C 0.6098(3) 0.1011(3) 0.0553(4)
C45_2 C 0.5680(3) 0.1189(4) 0.0313(4)
C46_2 C 0.6517(3) 0.1184(3) 0.1165(4)
H26_2 H 0.7367 0.0018 0.1097
C53_2 C 0.5661(2) 0.1503(3) 0.0700(3)
H34_2 H 0.6807 0.1091 0.1318
C54_2 C 0.6506(2) 0.1501(3) 0.1557(3)
H45_2 H 0.5369 0.1604 0.0536
C61_2 C 0.6079(2) 0.1661(2) 0.1326(3)
H46_2 H 0.6789 0.1604 0.1977
C65_2 C 0.6069(2) 0.1987(2) 0.1746(3)
O13_2 O 0.56745(13) 0.21225(15) 0.15098(18)
O14_2 O 0.64566(14) 0.21099(15) 0.2315(2)
Zn4_2 Zn 0.548556(18) 0.246865(19) 0.19540(3)
Zn1_2 Zn 0.548556(18) 0.753135(19) 0.69540(3)
N1_2 N 0.47671(15) 0.75864(16) 0.6214(2)
O1_2 O 0.56415(13) 0.81613(13) 0.74764(19)
O2_2 O 0.55517(13) 0.68872(14) 0.6652(2)
O3_2 O 0.56745(13) 0.78775(15) 0.65098(18)
O4_2 O 0.56005(13) 0.71599(14) 0.77010(17)
C1_2 C 0.45121(18) 0.7821(2) 0.6313(3)
C2_2 C 0.4513(2) 0.7372(3) 0.5617(3)
C3_2 C 0.6040(2) 0.82947(18) 0.8006(3)
C4_2 C 0.5935(2) 0.67146(19) 0.6884(3)
H1_2 H 0.4676 0.7977 0.6725
C5_2 C 0.40259(19) 0.7838(2) 0.5835(3)
C6_2 C 0.4026(2) 0.7376(3) 0.5119(3)
H2_2 H 0.4676 0.7209 0.5530
C7_2 C 0.60590(19) 0.8744(2) 0.8342(3)
O5_2 O 0.64289(13) 0.80846(14) 0.8303(2)
C8_2 C 0.5921(2) 0.6281(2) 0.6546(3)
O6_2 O 0.63448(13) 0.68847(14) 0.7392(2)
O7_2 O 0.64566(14) 0.78901(15) 0.7315(2)
O8_2 O 0.63898(12) 0.70734(14) 0.84734(18)
H3_2 H 0.3865 0.8009 0.5919
C9_2 C 0.37764(19) 0.7600(2) 0.5226(3)
H4_2 H 0.3869 0.7225 0.4707
C10_2 C 0.5655(2) 0.8988(2) 0.8070(3)
C11_2 C 0.6485(2) 0.8904(2) 0.8961(3)
Zn2_2 Zn 0.652910(18) 0.746801(19) 0.79923(3)
C12_2 C 0.5487(2) 0.6047(2) 0.6017(3)
C13_2 C 0.6332(2) 0.6103(3) 0.6747(4)
C14_2 C 0.3246(2) 0.7590(2) 0.4708(3)
H5_2 H 0.5367 0.8899 0.7646
C15_2 C 0.5667(2) 0.9370(3) 0.8418(4)
C16_2 C 0.6501(2) 0.9280(3) 0.9320(4)
H6_2 H 0.6767 0.8757 0.9141
N2_2 N 0.72547(15) 0.74242(16) 0.8718(2)
H7_2 H 0.5210 0.6147 0.5899
C17_2 C 0.5474(3) 0.5671(3) 0.5675(4)
C18_2 C 0.6311(3) 0.5703(3) 0.6397(4)
H8_2 H 0.6624 0.6245 0.7110
C19_2 C 0.2993(3) 0.7699(6) 0.4828(5)
C20_2 C 0.2989(3) 0.7502(6) 0.4052(6)
H9_2 H 0.5387 0.9530 0.8223
C21_2 C 0.6090(3) 0.9513(2) 0.9049(4)
H10_2 H 0.6789 0.9372 0.9741
H11_2 H 0.5182 0.5533 0.5307
C22_2 C 0.5894(3) 0.5486(3) 0.5870(4)
H12_2 H 0.6591 0.5588 0.6532
C23_2 C 0.2495(3) 0.7688(5) 0.4315(5)
H13_2 H 0.3141 0.7787 0.5264
H14_2 H 0.3146 0.7430 0.3917
C24_2 C 0.2498(3) 0.7515(5) 0.3570(5)
C25_2 C 0.6110 0.9922 0.9424
C26_2 C 0.5860 0.5092 0.5484
H15_2 H 0.2331 0.7774 0.4436
H16_2 H 0.2338 0.7477 0.3117
C29_2 C 0.6141 0.4708 0.5818
C30_2 C 0.5496 0.5049 0.4775
C33_2 C 0.6046 0.4287 0.5315
H18_2 H 0.6368 0.4682 0.6288
C34_2 C 0.5529 0.4735 0.4425
O10_2 O 0.5152 0.5385 0.4382
C37_2 C 0.5891 0.4356 0.4765
O12_2 O 0.6374 0.4080 0.5731
H20_2 H 0.5314 0.4763 0.3957
C38_2 C 0.4800 0.5400 0.3527
C42_2 C 0.5920(3) 0.3986(2) 0.4412(4)
C43_2 C 0.6832 0.3900 0.6618
H23_2 H 0.4979 0.5611 0.3486
H24_2 H 0.4843 0.5075 0.3436
C44_2 C 0.4300 0.5512 0.2896
C49_2 C 0.5509(2) 0.3757(2) 0.3818(3)
C50_2 C 0.6345(3) 0.3872(3) 0.4610(4)
H29_2 H 0.6945 0.3569 0.6686
H30_2 H 0.6747 0.3960 0.6872
C51_2 C 0.7107 0.4224 0.6706
H31_2 H 0.4183 0.5302 0.2522
H32_2 H 0.4085 0.5503 0.2961
C52_2 C 0.4390 0.5988 0.2823
C57_2 C 0.5519(2) 0.3433(2) 0.3446(3)
H39_2 H 0.5217 0.3829 0.3673
H40_2 H 0.6626 0.4006 0.5005
C58_2 C 0.6361(2) 0.3557(2) 0.4227(3)
H41_2 H 0.6929 0.4363 0.6261
H42_2 H 0.7126 0.4478 0.6971
C59_2 C 0.7558 0.4173 0.6980
H43_2 H 0.4119 0.6194 0.2627
H44_2 H 0.4439 0.5988 0.2521
C60_2 C 0.4817 0.6180 0.3492
C63_2 C 0.59649(19) 0.33424(19) 0.3664(3)
H52_2 H 0.5244 0.3280 0.3066
H53_2 H 0.6651 0.3494 0.4363
H54_2 H 0.7699 0.4493 0.7073
H55_2 H 0.7747 0.3999 0.7406
C64_2 C 0.7567 0.3874 0.6466
H56_2 H 0.4878 0.6506 0.3442
H57_2 H 0.5085 0.5977 0.3682
H58_2 H 0.4765 0.6183 0.3787
C66_2 C 0.59864(19) 0.30102(18) 0.3242(3)
H62_2 H 0.7889 0.3843 0.6672
H63_2 H 0.7433 0.3555 0.6379
H64_2 H 0.7384 0.4049 0.6047
N3_2 N 0.22547(15) 0.75758(16) 0.3718(2)
O15_2 O 0.56005(13) 0.28401(14) 0.27010(17)
O16_2 O 0.63898(12) 0.29266(14) 0.34734(18)
C34_3 C 0.0529 0.0265 0.9425
C37_3 C 0.0891 0.0644 0.9765
H20_3 H 0.0314 0.0237 0.8957
C42_3 C 0.0920(3) 0.1014(2) 0.9412(4)
C49_3 C 0.0509(2) 0.1243(2) 0.8818(3)
C50_3 C 0.1345(3) 0.1128(3) 0.9610(4)
C57_3 C 0.0519(2) 0.1567(2) 0.8446(3)
H39_3 H 0.0217 0.1171 0.8673
C58_3 C 0.1361(2) 0.1443(2) 0.9227(3)
C63_3 C 0.09649(19) 0.16576(19) 0.8664(3)
H52_3 H 0.0244 0.1720 0.8066
H53_3 H 0.1651 0.1506 0.9363
C66_3 C 0.09864(19) 0.19898(18) 0.8242(3)
O1_3 O 0.06415(13) 0.68387(13) 0.24764(19)
O2_3 O 0.05517(13) 0.81128(14) 0.1652(2)
C3_3 C 0.1040(2) 0.67053(18) 0.3006(3)
C4_3 C 0.0935(2) 0.82854(19) 0.1884(3)
C7_3 C 0.10590(19) 0.6256(2) 0.3342(3)
O5_3 O 0.14289(13) 0.69154(14) 0.3303(2)
C8_3 C 0.0921(2) 0.8719(2) 0.1546(3)
O6_3 O 0.13448(13) 0.81153(14) 0.2392(2)
C10_3 C 0.0655(2) 0.6012(2) 0.3070(3)
C11_3 C 0.1485(2) 0.6096(2) 0.3961(3)
C12_3 C 0.0487(2) 0.8953(2) 0.1017(3)
C13_3 C 0.1332(2) 0.8897(3) 0.1747(4)
H5_3 H 0.0367 0.6101 0.2646
C15_3 C 0.0667(2) 0.5630(3) 0.3418(4)
C16_3 C 0.1501(2) 0.5720(3) 0.4320(4)
H6_3 H 0.1767 0.6243 0.4141
H7_3 H 0.0210 0.8853 0.0899
C17_3 C 0.0474(3) 0.9329(3) 0.0675(4)
C18_3 C 0.1311(3) 0.9297(3) 0.1397(4)
H8_3 H 0.1624 0.8755 0.2110
H9_3 H 0.0387 0.5470 0.3223
C21_3 C 0.1090(3) 0.5487(2) 0.4049(4)
H10_3 H 0.1789 0.5628 0.4741
H11_3 H 0.0182 0.9467 0.0307
C22_3 C 0.0894(3) 0.9514(3) 0.0870(4)
H12_3 H 0.1591 0.9412 0.1532
C25_3 C 0.1110 0.5078 0.4424
C26_3 C 0.0860 0.9908 0.0484
C27_2 C 0.1312 0.5186 0.5077
C28_2 C 0.0792 0.4711 0.4045
C31_3 C 0.1400 0.4800 0.5455
O9_2 O 0.1699 0.5496 0.5413
C32_2 C 0.0851 0.4341 0.4540
H17_2 H 0.0578 0.4683 0.3576
H19_3 H 0.1662 0.4818 0.5919
C35_3 C 0.1116 0.4364 0.5192
C36_2 C 0.2083 0.5510 0.6200
O11_2 O 0.0482 0.3905 0.4030
C39_3 C 0.1098(3) 0.3989(3) 0.5553(4)
H21_2 H 0.2000 0.5306 0.6394
H22_2 H 0.2147 0.5839 0.6374
C40_2 C 0.2492 0.5300 0.6309
C41_2 C 0.0133 0.3884 0.3303
C45_3 C 0.0680(3) 0.3811(4) 0.5313(4)
C46_3 C 0.1517(3) 0.3816(3) 0.6165(4)
H25_2 H 0.2723 0.5233 0.6791
H26_3 H 0.2367 0.4982 0.6097
C47_2 C 0.2819 0.5414 0.6189
H27_2 H 0.0249 0.4004 0.3106
C48_2 C 0.0114 0.3302 0.3315
C53_3 C 0.0661(2) 0.3497(3) 0.5700(3)
H33_2 H 0.0399 0.3899 0.4880
H34_3 H 0.1807 0.3909 0.6318
C54_3 C 0.1506(2) 0.3499(3) 0.6557(3)
H35_2 H 0.2749 0.5172 0.5872
H36_2 H 0.3143 0.5355 0.6615
C55_2 C 0.2818 0.5796 0.5992
C56_2 C 0.0457 0.2800 0.3581
H45_3 H 0.0369 0.3396 0.5536
C61_3 C 0.1079(2) 0.3339(2) 0.6326(3)
H46_3 H 0.1789 0.3396 0.6977
H47_2 H 0.3044 0.5793 0.5951
H48_2 H 0.2506 0.5861 0.5558
H49_2 H 0.2903 0.6045 0.6306
H50_2 H 0.0268 0.2512 0.3460
H51_2 H 0.0566 0.2783 0.3353
C62_2 C 0.0861 0.2805 0.4300
C65_3 C 0.1069(2) 0.3013(2) 0.6746(3)
H59_2 H 0.1046 0.2516 0.4432
H60_2 H 0.0754 0.2815 0.4528
H61_2 H 0.1052 0.3087 0.4421
H4_3 H 0.8869 0.7775 0.9707
C14_3 C 0.8246(2) 0.7410(2) 0.9708(3)
C19_3 C 0.7993(3) 0.7301(6) 0.9828(5)
C20_3 C 0.7989(3) 0.7498(6) 0.9052(6)
C23_3 C 0.7495(3) 0.7312(5) 0.9315(5)
H14_3 H 0.8146 0.7570 0.8917
C24_3 C 0.7498(3) 0.7485(5) 0.8570(5)
H15_3 H 0.7331 0.7226 0.9436
H16_3 H 0.7338 0.7523 0.8117
C38_3 C 0.9800 0.9600 0.8527
H23_3 H 0.9979 0.9389 0.8486
H24_3 H 0.9843 0.9925 0.8436
C44_3 C 0.9300 0.9488 0.7896
H31_3 H 0.9183 0.9698 0.7522
H32_3 H 0.9085 0.9497 0.7961
C52_3 C 0.9390 0.9012 0.7823
H43_3 H 0.9119 0.8806 0.7627
H44_3 H 0.9439 0.9012 0.7521
C60_3 C 0.9817 0.8820 0.8492
H56_3 H 0.9878 0.8494 0.8442
H58_3 H 0.9765 0.8817 0.8787
N1_3 N 0.47671(15) 0.24136(16) 0.1214(2)
O1_4 O 0.56415(13) 0.18387(13) 0.24764(19)
O2_4 O 0.55517(13) 0.31128(14) 0.1652(2)
C1_3 C 0.45121(18) 0.2179(2) 0.1313(3)
C2_3 C 0.4513(2) 0.2628(3) 0.0617(3)
C3_4 C 0.6040(2) 0.17053(18) 0.3006(3)
C4_4 C 0.5935(2) 0.32854(19) 0.1884(3)
H1_3 H 0.4676 0.2023 0.1725
C5_3 C 0.40259(19) 0.2162(2) 0.0835(3)
C6_3 C 0.4026(2) 0.2624(3) 0.0119(3)
H2_3 H 0.4676 0.2791 0.0530
C7_4 C 0.60590(19) 0.1256(2) 0.3342(3)
O5_4 O 0.64289(13) 0.19154(14) 0.3303(2)
C8_4 C 0.5921(2) 0.3719(2) 0.1546(3)
O6_4 O 0.63448(13) 0.31153(14) 0.2392(2)
H3_3 H 0.3865 0.1991 0.0919
C9_3 C 0.37764(19) 0.2400(2) 0.0226(3)
C10_4 C 0.5655(2) 0.1012(2) 0.3070(3)
C11_4 C 0.6485(2) 0.1096(2) 0.3961(3)
C12_4 C 0.5487(2) 0.3953(2) 0.1017(3)
C13_4 C 0.6332(2) 0.3897(3) 0.1747(4)
H5_4 H 0.5367 0.1101 0.2646
C15_4 C 0.5667(2) 0.0630(3) 0.3418(4)
C16_4 C 0.6501(2) 0.0720(3) 0.4320(4)
H6_4 H 0.6767 0.1243 0.4141
H7_4 H 0.5210 0.3853 0.0899
C17_4 C 0.5474(3) 0.4329(3) 0.0675(4)
C18_4 C 0.6311(3) 0.4297(3) 0.1397(4)
H8_4 H 0.6624 0.3755 0.2110
H9_4 H 0.5387 0.0470 0.3223
C21_4 C 0.6090(3) 0.0487(2) 0.4049(4)
H10_4 H 0.6789 0.0628 0.4741
H11_4 H 0.5182 0.4467 0.0307
C22_4 C 0.5894(3) 0.4514(3) 0.0870(4)
H12_4 H 0.6591 0.4412 0.1532
H13_3 H 0.3141 0.2213 0.0264
C25_4 C 0.6110 0.0078 0.4424
C26_4 C 0.5860 0.4908 0.0484
C27_3 C 0.6312 0.0186 0.5077
C29_3 C 0.6141 0.5292 0.0818
O9_3 O 0.6699 0.0496 0.5413
C33_3 C 0.6046 0.5713 0.0315
H18_3 H 0.6368 0.5318 0.1288
C36_3 C 0.7083 0.0510 0.6200
O12_3 O 0.6374 0.5920 0.0731
H21_3 H 0.7000 0.0306 0.6394
H22_3 H 0.7147 0.0839 0.6374
C40_3 C 0.7492 0.0300 0.6309
C43_3 C 0.6832 0.6100 0.1618
H25_3 H 0.7723 0.0233 0.6791
C47_3 C 0.7819 0.0414 0.6189
H29_3 H 0.6945 0.6431 0.1686
H30_3 H 0.6747 0.6040 0.1872
C51_3 C 0.7107 0.5776 0.1706
H35_3 H 0.7749 0.0172 0.5872
H36_3 H 0.8143 0.0355 0.6615
C55_3 C 0.7818 0.0796 0.5992
H40_3 H 0.6626 0.5994 0.0005
H41_3 H 0.6929 0.5637 0.1261
H42_3 H 0.7126 0.5522 0.1971
C59_3 C 0.7558 0.5827 0.1980
H47_3 H 0.8044 0.0793 0.5951
H48_3 H 0.7506 0.0861 0.5558
H49_3 H 0.7903 0.1045 0.6306
H54_3 H 0.7699 0.5507 0.2073
H55_3 H 0.7747 0.6001 0.2406
C64_3 C 0.7567 0.6126 0.1466
H62_3 H 0.7889 0.6157 0.1672
H63_3 H 0.7433 0.6445 0.1379
H64_3 H 0.7384 0.5951 0.1047
H4_4 H 0.3869 0.2775 0.9707
C14_4 C 0.3246(2) 0.2410(2) 0.9708(3)
C19_4 C 0.2993(3) 0.2301(6) 0.9828(5)
C20_4 C 0.2989(3) 0.2498(6) 0.9052(6)
C23_4 C 0.2495(3) 0.2312(5) 0.9315(5)
H14_4 H 0.3146 0.2570 0.8917
C24_4 C 0.2498(3) 0.2485(5) 0.8570(5)
H15_4 H 0.2331 0.2226 0.9436
H16_4 H 0.2338 0.2523 0.8117
C30_3 C 0.5496 0.4951 0.9775
C34_4 C 0.5529 0.5265 0.9425
O10_3 O 0.5152 0.4615 0.9382
C37_4 C 0.5891 0.5644 0.9765
H20_4 H 0.5314 0.5237 0.8957
C38_4 C 0.4800 0.4600 0.8527
C42_4 C 0.5920(3) 0.6014(2) 0.9412(4)
H23_4 H 0.4979 0.4389 0.8486
H24_4 H 0.4843 0.4925 0.8436
C44_4 C 0.4300 0.4488 0.7896
C49_4 C 0.5509(2) 0.6243(2) 0.8818(3)
C50_4 C 0.6345(3) 0.6128(3) 0.9610(4)
H31_4 H 0.4183 0.4698 0.7522
H32_4 H 0.4085 0.4497 0.7961
C52_4 C 0.4390 0.4012 0.7823
C57_4 C 0.5519(2) 0.6567(2) 0.8446(3)
H39_4 H 0.5217 0.6171 0.8673
C58_4 C 0.6361(2) 0.6443(2) 0.9227(3)
H43_4 H 0.4119 0.3806 0.7627
H44_4 H 0.4439 0.4012 0.7521
C60_4 C 0.4817 0.3820 0.8492
C63_4 C 0.59649(19) 0.66576(19) 0.8664(3)
H52_4 H 0.5244 0.6720 0.8066
H53_4 H 0.6651 0.6506 0.9363
H56_4 H 0.4878 0.3494 0.8442
H57_3 H 0.5085 0.4023 0.8682
H58_4 H 0.4765 0.3817 0.8787
C66_4 C 0.59864(19) 0.69898(18) 0.8242(3)
C28_3 C 0.5792 0.9711 0.4045
C31_4 C 0.6400 0.9800 0.5455
C32_3 C 0.5851 0.9341 0.4540
H17_3 H 0.5578 0.9683 0.3576
H19_4 H 0.6662 0.9818 0.5919
C35_4 C 0.6116 0.9364 0.5192
O11_3 O 0.5482 0.8905 0.4030
C39_4 C 0.6098(3) 0.8989(3) 0.5553(4)
C41_3 C 0.5133 0.8884 0.3303
C45_4 C 0.5680(3) 0.8811(4) 0.5313(4)
C46_4 C 0.6517(3) 0.8816(3) 0.6165(4)
H26_4 H 0.7367 0.9982 0.6097
H27_3 H 0.5249 0.9004 0.3106
H28_2 H 0.4835 0.9039 0.3095
C48_3 C 0.5114 0.8302 0.3315
C53_4 C 0.5661(2) 0.8497(3) 0.5700(3)
H33_3 H 0.5399 0.8899 0.4880
H34_4 H 0.6807 0.8909 0.6318
C54_4 C 0.6506(2) 0.8499(3) 0.6557(3)
H37_2 H 0.4849 0.8229 0.2839
H38_2 H 0.4990 0.8253 0.3519
C56_3 C 0.5457 0.7800 0.3581
H45_4 H 0.5369 0.8396 0.5536
C61_4 C 0.6079(2) 0.8339(2) 0.6326(3)
H46_4 H 0.6789 0.8396 0.6977
H50_3 H 0.5268 0.7512 0.3460
H51_3 H 0.5566 0.7783 0.3353
C62_3 C 0.5861 0.7805 0.4300
C65_4 C 0.6069(2) 0.8013(2) 0.6746(3)
H59_3 H 0.6046 0.7516 0.4432
H60_3 H 0.5754 0.7815 0.4528
H61_3 H 0.6052 0.8087 0.4421
H4_5 H 0.1131 0.2225 0.0293
C14_5 C 0.1754(2) 0.2590(2) 0.0292(3)
C19_5 C 0.2007(3) 0.2699(6) 0.0172(5)
C20_5 C 0.2011(3) 0.2502(6) 0.0948(6)
C23_5 C 0.2505(3) 0.2688(5) 0.0685(5)
H14_5 H 0.1854 0.2430 0.1083
C24_5 C 0.2502(3) 0.2515(5) 0.1430(5)
H15_5 H 0.2669 0.2774 0.0564
H16_5 H 0.2662 0.2477 0.1883
C38_5 C 0.0200 0.0400 0.1473
H23_5 H 0.0021 0.0611 0.1514
H24_5 H 0.0157 0.0075 0.1564
C44_5 C 0.0700 0.0512 0.2104
H31_5 H 0.0817 0.0302 0.2478
H32_5 H 0.0915 0.0503 0.2039
C52_5 C 0.0610 0.0988 0.2177
H43_5 H 0.0881 0.1194 0.2373
H44_5 H 0.0561 0.0988 0.2479
C60_5 C 0.0183 0.1180 0.1508
H56_5 H 0.0122 0.1506 0.1558
H58_5 H 0.0235 0.1183 0.1213
N3_3 N 0.27453(15) 0.25758(16) 0.1282(2)
Zn3_2 Zn 0.347090(18) 0.253199(19) 0.20077(3)
Zn1_3 Zn 0.951444(18) 0.253135(19) 0.80460(3)
O1_5 O 0.93585(13) 0.31613(13) 0.75236(19)
O2_5 O 0.94483(13) 0.18872(14) 0.8348(2)
O3_3 O 0.93255(13) 0.28775(15) 0.84902(18)
O4_3 O 0.93995(13) 0.21599(14) 0.72990(17)
C3_5 C 0.8960(2) 0.32947(18) 0.6994(3)
C4_5 C 0.9065(2) 0.17146(19) 0.8116(3)
C7_5 C 0.89410(19) 0.3744(2) 0.6658(3)
O5_5 O 0.85711(13) 0.30846(14) 0.6697(2)
C8_5 C 0.9079(2) 0.1281(2) 0.8454(3)
O6_5 O 0.86552(13) 0.18847(14) 0.7608(2)
O7_3 O 0.85434(14) 0.28901(15) 0.7685(2)
O8_3 O 0.86102(12) 0.20734(14) 0.65266(18)
C10_5 C 0.9345(2) 0.3988(2) 0.6930(3)
C11_5 C 0.8515(2) 0.3904(2) 0.6039(3)
Zn2_3 Zn 0.847090(18) 0.246801(19) 0.70077(3)
C12_5 C 0.9513(2) 0.1047(2) 0.8983(3)
C13_5 C 0.8668(2) 0.1103(3) 0.8253(4)
H5_5 H 0.9633 0.3899 0.7354
C15_5 C 0.9333(2) 0.4370(3) 0.6582(4)
C16_5 C 0.8499(2) 0.4280(3) 0.5680(4)
H6_5 H 0.8233 0.3757 0.5859
N2_3 N 0.77453(15) 0.24242(16) 0.6282(2)
H7_5 H 0.9790 0.1147 0.9101
C17_5 C 0.9526(3) 0.0671(3) 0.9325(4)
C18_5 C 0.8689(3) 0.0703(3) 0.8603(4)
H8_5 H 0.8376 0.1245 0.7890
H9_5 H 0.9613 0.4530 0.6777
C21_5 C 0.8910(3) 0.4513(2) 0.5951(4)
H10_5 H 0.8211 0.4372 0.5259
H11_5 H 0.9818 0.0533 0.9693
C22_5 C 0.9106(3) 0.0486(3) 0.9130(4)
H12_5 H 0.8409 0.0588 0.8468
C25_5 C 0.8890 0.4922 0.5576
C26_5 C 0.9140 0.0092 0.9516
C27_4 C 0.8688 0.4814 0.4923
C28_4 C 0.9208 0.5289 0.5955
C31_5 C 0.8600 0.5200 0.4545
O9_4 O 0.8301 0.4504 0.4587
C32_4 C 0.9149 0.5659 0.5460
H17_4 H 0.9422 0.5317 0.6424
H19_5 H 0.8338 0.5182 0.4081
C35_5 C 0.8884 0.5636 0.4808
C36_4 C 0.7917 0.4490 0.3800
O11_4 O 0.9518 0.6095 0.5970
C39_5 C 0.8902(3) 0.6011(3) 0.4447(4)
H21_4 H 0.8000 0.4694 0.3606
H22_4 H 0.7853 0.4161 0.3626
C40_4 C 0.7508 0.4700 0.3691
C41_4 C 0.9867 0.6116 0.6697
C45_5 C 0.9320(3) 0.6189(4) 0.4687(4)
C46_5 C 0.8483(3) 0.6184(3) 0.3835(4)
H25_4 H 0.7277 0.4767 0.3209
H26_5 H 0.7633 0.5018 0.3903
C47_4 C 0.7181 0.4586 0.3811
H27_4 H 0.9751 0.5996 0.6894
C48_4 C 0.9886 0.6698 0.6685
C53_5 C 0.9339(2) 0.6503(3) 0.4300(3)
H33_4 H 0.9601 0.6101 0.5120
H34_5 H 0.8193 0.6091 0.3682
C54_5 C 0.8494(2) 0.6501(3) 0.3443(3)
H35_4 H 0.7251 0.4828 0.4128
H36_4 H 0.6857 0.4645 0.3385
C55_4 C 0.7182 0.4204 0.4008
C56_4 C 0.9543 0.7200 0.6419
H45_5 H 0.9631 0.6604 0.4464
C61_5 C 0.8921(2) 0.6661(2) 0.3674(3)
H46_5 H 0.8211 0.6604 0.3023
H47_4 H 0.6956 0.4207 0.4049
H48_4 H 0.7494 0.4139 0.4442
H49_4 H 0.7097 0.3955 0.3694
H50_4 H 0.9732 0.7488 0.6540
H51_4 H 0.9434 0.7217 0.6647
C62_4 C 0.9139 0.7195 0.5700
C65_5 C 0.8931(2) 0.6987(2) 0.3254(3)
H59_4 H 0.8954 0.7484 0.5568
H60_4 H 0.9246 0.7185 0.5472
H61_4 H 0.8948 0.6913 0.5579
O13_3 O 0.93255(13) 0.71225(15) 0.34902(18)
O14_3 O 0.85434(14) 0.71099(15) 0.2685(2)
Zn4_3 Zn 0.951444(18) 0.746865(19) 0.30460(3)
Zn5_2 Zn 0.847090(18) 0.753199(19) 0.20077(3)
C34_5 C 0.9471 0.9735 0.0575
C37_5 C 0.9109 0.9356 0.0235
H20_5 H 0.9686 0.9763 0.1043
C42_5 C 0.9080(3) 0.8986(2) 0.0588(4)
C49_5 C 0.9491(2) 0.8757(2) 0.1182(3)
C50_5 C 0.8655(3) 0.8872(3) 0.0390(4)
C57_5 C 0.9481(2) 0.8433(2) 0.1554(3)
H39_5 H 0.9783 0.8829 0.1327
C58_5 C 0.8639(2) 0.8557(2) 0.0773(3)
C63_5 C 0.90351(19) 0.83424(19) 0.1336(3)
H52_5 H 0.9756 0.8280 0.1934
H53_5 H 0.8349 0.8494 0.0637
C66_5 C 0.90136(19) 0.80102(18) 0.1758(3)
O15_3 O 0.93995(13) 0.78401(14) 0.22990(17)
O16_3 O 0.86102(12) 0.79266(14) 0.15266(18)
C28_5 C 0.4208 0.0289 0.5955
C31_6 C 0.3600 0.0200 0.4545
C32_5 C 0.4149 0.0659 0.5460
H17_5 H 0.4422 0.0317 0.6424
H19_6 H 0.3338 0.0182 0.4081
C35_6 C 0.3884 0.0636 0.4808
O11_5 O 0.4518 0.1095 0.5970
C39_6 C 0.3902(3) 0.1011(3) 0.4447(4)
C41_5 C 0.4867 0.1116 0.6697
C45_6 C 0.4320(3) 0.1189(4) 0.4687(4)
C46_6 C 0.3483(3) 0.1184(3) 0.3835(4)
H26_6 H 0.2633 0.0018 0.3903
H27_5 H 0.4751 0.0996 0.6894
H28_3 H 0.5165 0.0961 0.6905
C48_5 C 0.4886 0.1698 0.6685
C53_6 C 0.4339(2) 0.1503(3) 0.4300(3)
H33_5 H 0.4601 0.1101 0.5120
H34_6 H 0.3193 0.1091 0.3682
C54_6 C 0.3494(2) 0.1501(3) 0.3443(3)
H37_3 H 0.5151 0.1771 0.7161
H38_3 H 0.5010 0.1747 0.6481
C56_5 C 0.4543 0.2200 0.6419
H45_6 H 0.4631 0.1604 0.4464
C61_6 C 0.3921(2) 0.1661(2) 0.3674(3)
H46_6 H 0.3211 0.1604 0.3023
H50_5 H 0.4732 0.2488 0.6540
H51_5 H 0.4434 0.2217 0.6647
C62_5 C 0.4139 0.2195 0.5700
C65_6 C 0.3931(2) 0.1987(2) 0.3254(3)
H59_5 H 0.3954 0.2484 0.5568
H60_5 H 0.4246 0.2185 0.5472
H61_5 H 0.3948 0.1913 0.5579
O13_4 O 0.43255(13) 0.21225(15) 0.34902(18)
O14_4 O 0.35434(14) 0.21099(15) 0.2685(2)
Zn4_4 Zn 0.451444(18) 0.246865(19) 0.30460(3)
H4_6 H 0.6131 0.7225 0.0293
C14_6 C 0.6754(2) 0.7590(2) 0.0292(3)
C19_6 C 0.7007(3) 0.7699(6) 0.0172(5)
C20_6 C 0.7011(3) 0.7502(6) 0.0948(6)
C23_6 C 0.7505(3) 0.7688(5) 0.0685(5)
H14_6 H 0.6854 0.7430 0.1083
C24_6 C 0.7502(3) 0.7515(5) 0.1430(5)
H15_6 H 0.7669 0.7774 0.0564
H16_6 H 0.7662 0.7477 0.1883
C30_4 C 0.4504 0.5049 0.0225
C34_6 C 0.4471 0.4735 0.0575
O10_4 O 0.4848 0.5385 0.0618
C37_6 C 0.4109 0.4356 0.0235
H20_6 H 0.4686 0.4763 0.1043
C38_6 C 0.5200 0.5400 0.1473
C42_6 C 0.4080(3) 0.3986(2) 0.0588(4)
H23_6 H 0.5021 0.5611 0.1514
H24_6 H 0.5157 0.5075 0.1564
C44_6 C 0.5700 0.5512 0.2104
C49_6 C 0.4491(2) 0.3757(2) 0.1182(3)
C50_6 C 0.3655(3) 0.3872(3) 0.0390(4)
H31_6 H 0.5817 0.5302 0.2478
H32_6 H 0.5915 0.5503 0.2039
C52_6 C 0.5610 0.5988 0.2177
C57_6 C 0.4481(2) 0.3433(2) 0.1554(3)
H39_6 H 0.4783 0.3829 0.1327
C58_6 C 0.3639(2) 0.3557(2) 0.0773(3)
H43_6 H 0.5881 0.6194 0.2373
H44_6 H 0.5561 0.5988 0.2479
C60_6 C 0.5183 0.6180 0.1508
C63_6 C 0.40351(19) 0.33424(19) 0.1336(3)
H52_6 H 0.4756 0.3280 0.1934
H53_6 H 0.3349 0.3494 0.0637
H56_6 H 0.5122 0.6506 0.1558
H57_4 H 0.4915 0.5977 0.1318
H58_6 H 0.5235 0.6183 0.1213
C66_6 C 0.40136(19) 0.30102(18) 0.1758(3)
N3_4 N 0.77453(15) 0.75758(16) 0.1282(2)
O15_4 O 0.43995(13) 0.28401(14) 0.22990(17)
O16_4 O 0.36102(12) 0.29266(14) 0.15266(18)
Zn1_4 Zn 0.451444(18) 0.753135(19) 0.80460(3)
N1_4 N 0.52329(15) 0.75864(16) 0.8786(2)
O1_6 O 0.43585(13) 0.81613(13) 0.75236(19)
O2_6 O 0.44483(13) 0.68872(14) 0.8348(2)
O3_4 O 0.43255(13) 0.78775(15) 0.84902(18)
O4_4 O 0.43995(13) 0.71599(14) 0.72990(17)
C1_4 C 0.54879(18) 0.7821(2) 0.8687(3)
C2_4 C 0.5487(2) 0.7372(3) 0.9383(3)
C3_6 C 0.3960(2) 0.82947(18) 0.6994(3)
C4_6 C 0.4065(2) 0.67146(19) 0.8116(3)
H1_4 H 0.5324 0.7977 0.8275
C5_4 C 0.59741(19) 0.7838(2) 0.9165(3)
C6_4 C 0.5974(2) 0.7376(3) 0.9881(3)
H2_4 H 0.5324 0.7209 0.9470
C7_6 C 0.39410(19) 0.8744(2) 0.6658(3)
O5_6 O 0.35711(13) 0.80846(14) 0.6697(2)
C8_6 C 0.4079(2) 0.6281(2) 0.8454(3)
O6_6 O 0.36552(13) 0.68847(14) 0.7608(2)
O7_4 O 0.35434(14) 0.78901(15) 0.7685(2)
O8_4 O 0.36102(12) 0.70734(14) 0.65266(18)
H3_4 H 0.6135 0.8009 0.9081
C9_4 C 0.62236(19) 0.7600(2) 0.9774(3)
C10_6 C 0.4345(2) 0.8988(2) 0.6930(3)
C11_6 C 0.3515(2) 0.8904(2) 0.6039(3)
Zn2_4 Zn 0.347090(18) 0.746801(19) 0.70077(3)
C12_6 C 0.4513(2) 0.6047(2) 0.8983(3)
C13_6 C 0.3668(2) 0.6103(3) 0.8253(4)
H5_6 H 0.4633 0.8899 0.7354
C15_6 C 0.4333(2) 0.9370(3) 0.6582(4)
C16_6 C 0.3499(2) 0.9280(3) 0.5680(4)
H6_6 H 0.3233 0.8757 0.5859
N2_4 N 0.27453(15) 0.74242(16) 0.6282(2)
H7_6 H 0.4790 0.6147 0.9101
C17_6 C 0.4526(3) 0.5671(3) 0.9325(4)
C18_6 C 0.3689(3) 0.5703(3) 0.8603(4)
H8_6 H 0.3376 0.6245 0.7890
H9_6 H 0.4613 0.9530 0.6777
C21_6 C 0.3910(3) 0.9513(2) 0.5951(4)
H10_6 H 0.3211 0.9372 0.5259
H11_6 H 0.4818 0.5533 0.9693
C22_6 C 0.4106(3) 0.5486(3) 0.9130(4)
H12_6 H 0.3409 0.5588 0.8468
H13_4 H 0.6859 0.7787 0.9736
C25_6 C 0.3890 0.9922 0.5576
C26_6 C 0.4140 0.5092 0.9516
C27_5 C 0.3688 0.9814 0.4923
C29_4 C 0.3859 0.4708 0.9182
O9_5 O 0.3301 0.9504 0.4587
C33_4 C 0.3954 0.4287 0.9685
H18_4 H 0.3632 0.4682 0.8712
C36_5 C 0.2917 0.9490 0.3800
O12_4 O 0.3626 0.4080 0.9269
H21_5 H 0.3000 0.9694 0.3606
H22_5 H 0.2853 0.9161 0.3626
C40_5 C 0.2508 0.9700 0.3691
C43_4 C 0.3168 0.3900 0.8382
H25_5 H 0.2277 0.9767 0.3209
C47_5 C 0.2181 0.9586 0.3811
H29_4 H 0.3055 0.3569 0.8314
H30_4 H 0.3253 0.3960 0.8128
C51_4 C 0.2893 0.4224 0.8294
H35_5 H 0.2251 0.9828 0.4128
H36_5 H 0.1857 0.9645 0.3385
C55_5 C 0.2182 0.9204 0.4008
H40_4 H 0.3374 0.4006 0.9995
H41_4 H 0.3071 0.4363 0.8739
H42_4 H 0.2874 0.4478 0.8029
C59_4 C 0.2442 0.4173 0.8020
H47_5 H 0.1956 0.9207 0.4049
H48_5 H 0.2494 0.9139 0.4442
H49_5 H 0.2097 0.8955 0.3694
H54_4 H 0.2301 0.4493 0.7927
H55_4 H 0.2253 0.3999 0.7594
C64_4 C 0.2433 0.3874 0.8534
H62_4 H 0.2111 0.3843 0.8328
H63_4 H 0.2567 0.3555 0.8621
H64_4 H 0.2616 0.4049 0.8953
N1_5 N 0.02329(15) 0.74136(16) 0.3786(2)
C1_5 C 0.04879(18) 0.7179(2) 0.3687(3)
C2_5 C 0.0487(2) 0.7628(3) 0.4383(3)
H1_5 H 0.0324 0.7023 0.3275
C5_5 C 0.09741(19) 0.7162(2) 0.4165(3)
C6_5 C 0.0974(2) 0.7624(3) 0.4881(3)
H2_5 H 0.0324 0.7791 0.4470
H3_5 H 0.1135 0.6991 0.4081
C9_5 C 0.12236(19) 0.7400(2) 0.4774(3)
H4_7 H 0.1131 0.7775 0.5293
C14_7 C 0.1754(2) 0.7410(2) 0.5292(3)
C19_7 C 0.2007(3) 0.7301(6) 0.5172(5)
C20_7 C 0.2011(3) 0.7498(6) 0.5948(6)
C23_7 C 0.2505(3) 0.7312(5) 0.5685(5)
H13_5 H 0.1859 0.7213 0.4736
H14_7 H 0.1854 0.7570 0.6083
C24_7 C 0.2502(3) 0.7485(5) 0.6430(5)
H15_7 H 0.2669 0.7226 0.5564
H16_7 H 0.2662 0.7523 0.6883
C38_7 C 0.0200 0.9600 0.6473
H23_7 H 0.0021 0.9389 0.6514
H24_7 H 0.0157 0.9925 0.6564
C44_7 C 0.0700 0.9488 0.7104
H28_4 H 0.0165 0.4039 0.1905
H31_7 H 0.0817 0.9698 0.7478
H32_7 H 0.0915 0.9497 0.7039
C52_7 C 0.0610 0.9012 0.7177
H37_4 H 0.0151 0.3229 0.2161
H38_4 H 0.0010 0.3253 0.1481
H43_7 H 0.0881 0.8806 0.7373
H44_7 H 0.0561 0.9012 0.7479
C60_7 C 0.0183 0.8820 0.6508
H56_7 H 0.0122 0.8494 0.6558
H58_7 H 0.0235 0.8817 0.6213
C29_5 C 0.8859 0.0292 0.4182
C33_5 C 0.8954 0.0713 0.4685
H18_5 H 0.8632 0.0318 0.3712
C34_7 C 0.9471 0.0265 0.5575
C37_7 C 0.9109 0.0644 0.5235
O12_5 O 0.8626 0.0920 0.4269
H20_7 H 0.9686 0.0237 0.6043
C42_7 C 0.9080(3) 0.1014(2) 0.5588(4)
C43_5 C 0.8168 0.1100 0.3382
C49_7 C 0.9491(2) 0.1243(2) 0.6182(3)
C50_7 C 0.8655(3) 0.1128(3) 0.5390(4)
H29_5 H 0.8055 0.1431 0.3314
H30_5 H 0.8253 0.1040 0.3128
C51_5 C 0.7893 0.0776 0.3294
C57_7 C 0.9481(2) 0.1567(2) 0.6554(3)
H39_7 H 0.9783 0.1171 0.6327
H40_5 H 0.8374 0.0994 0.4995
C58_7 C 0.8639(2) 0.1443(2) 0.5773(3)
H41_5 H 0.8071 0.0637 0.3739
H42_5 H 0.7874 0.0522 0.3029
C59_5 C 0.7442 0.0827 0.3020
C63_7 C 0.90351(19) 0.16576(19) 0.6336(3)
H52_7 H 0.9756 0.1720 0.6934
H53_7 H 0.8349 0.1506 0.5637
H54_5 H 0.7301 0.0507 0.2927
H55_5 H 0.7253 0.1001 0.2594
C64_5 C 0.7433 0.1126 0.3534
C66_7 C 0.90136(19) 0.19898(18) 0.6758(3)
H62_5 H 0.7111 0.1157 0.3328
H63_5 H 0.7567 0.1445 0.3621
H64_5 H 0.7616 0.0951 0.3953
O1_7 O 0.93585(13) 0.68387(13) 0.25236(19)
O2_7 O 0.94483(13) 0.81128(14) 0.3348(2)
C3_7 C 0.8960(2) 0.67053(18) 0.1994(3)
C4_7 C 0.9065(2) 0.82854(19) 0.3116(3)
C7_7 C 0.89410(19) 0.6256(2) 0.1658(3)
O5_7 O 0.85711(13) 0.69154(14) 0.1697(2)
C8_7 C 0.9079(2) 0.8719(2) 0.3454(3)
O6_7 O 0.86552(13) 0.81153(14) 0.2608(2)
C10_7 C 0.9345(2) 0.6012(2) 0.1930(3)
C11_7 C 0.8515(2) 0.6096(2) 0.1039(3)
C12_7 C 0.9513(2) 0.8953(2) 0.3983(3)
C13_7 C 0.8668(2) 0.8897(3) 0.3253(4)
H5_7 H 0.9633 0.6101 0.2354
C15_7 C 0.9333(2) 0.5630(3) 0.1582(4)
C16_7 C 0.8499(2) 0.5720(3) 0.0680(4)
H6_7 H 0.8233 0.6243 0.0859
H7_7 H 0.9790 0.8853 0.4101
C17_7 C 0.9526(3) 0.9329(3) 0.4325(4)
C18_7 C 0.8689(3) 0.9297(3) 0.3603(4)
H8_7 H 0.8376 0.8755 0.2890
H9_7 H 0.9613 0.5470 0.1777
C21_7 C 0.8910(3) 0.5487(2) 0.0951(4)
H10_7 H 0.8211 0.5628 0.0259
H11_7 H 0.9818 0.9467 0.4693
C22_7 C 0.9106(3) 0.9514(3) 0.4130(4)
H12_7 H 0.8409 0.9412 0.3468
C25_7 C 0.8890 0.5078 0.0576
C26_7 C 0.9140 0.9908 0.4516
C28_6 C 0.9208 0.4711 0.0955
C30_5 C 0.9504 0.9951 0.5225
C32_6 C 0.9149 0.4341 0.0460
H17_6 H 0.9422 0.4683 0.1424
O10_5 O 0.9848 0.9615 0.5618
O11_6 O 0.9518 0.3905 0.0970
C41_6 C 0.9867 0.3884 0.1697
H27_6 H 0.9751 0.4004 0.1894
C48_6 C 0.9886 0.3302 0.1685
H33_6 H 0.9601 0.3899 0.0120
C56_6 C 0.9543 0.2800 0.1419
H50_6 H 0.9732 0.2512 0.1540
H51_6 H 0.9434 0.2783 0.1647
C62_6 C 0.9139 0.2805 0.0700
H57_5 H 0.9915 0.9023 0.6318
H59_6 H 0.8954 0.2516 0.0568
H60_6 H 0.9246 0.2815 0.0472
H61_6 H 0.8948 0.3087 0.0579
C27_6 C 0.8688 0.5186 0.9923
C31_7 C 0.8600 0.4800 0.9545
O9_6 O 0.8301 0.5496 0.9587
H19_7 H 0.8338 0.4818 0.9081
C35_7 C 0.8884 0.4364 0.9808
C36_6 C 0.7917 0.5510 0.8800
C39_7 C 0.8902(3) 0.3989(3) 0.9447(4)
H21_6 H 0.8000 0.5306 0.8606
H22_6 H 0.7853 0.5839 0.8626
C40_6 C 0.7508 0.5300 0.8691
C45_7 C 0.9320(3) 0.3811(4) 0.9687(4)
C46_7 C 0.8483(3) 0.3816(3) 0.8835(4)
H25_6 H 0.7277 0.5233 0.8209
H26_7 H 0.7633 0.4982 0.8903
C47_6 C 0.7181 0.5414 0.8811
C53_7 C 0.9339(2) 0.3497(3) 0.9300(3)
H34_7 H 0.8193 0.3909 0.8682
C54_7 C 0.8494(2) 0.3499(3) 0.8443(3)
H35_6 H 0.7251 0.5172 0.9128
H36_6 H 0.6857 0.5355 0.8385
C55_6 C 0.7182 0.5796 0.9008
H45_7 H 0.9631 0.3396 0.9464
C61_7 C 0.8921(2) 0.3339(2) 0.8674(3)
H46_7 H 0.8211 0.3396 0.8023
H47_6 H 0.6956 0.5793 0.9049
H48_6 H 0.7494 0.5861 0.9442
H49_6 H 0.7097 0.6045 0.8694
C65_7 C 0.8931(2) 0.3013(2) 0.8254(3)
N1_6 N 0.52329(15) 0.24136(16) 0.3786(2)
O1_8 O 0.43585(13) 0.18387(13) 0.25236(19)
O2_8 O 0.44483(13) 0.31128(14) 0.3348(2)
C1_6 C 0.54879(18) 0.2179(2) 0.3687(3)
C2_6 C 0.5487(2) 0.2628(3) 0.4383(3)
C3_8 C 0.3960(2) 0.17053(18) 0.1994(3)
C4_8 C 0.4065(2) 0.32854(19) 0.3116(3)
H1_6 H 0.5324 0.2023 0.3275
C5_6 C 0.59741(19) 0.2162(2) 0.4165(3)
C6_6 C 0.5974(2) 0.2624(3) 0.4881(3)
H2_6 H 0.5324 0.2791 0.4470
C7_8 C 0.39410(19) 0.1256(2) 0.1658(3)
O5_8 O 0.35711(13) 0.19154(14) 0.1697(2)
C8_8 C 0.4079(2) 0.3719(2) 0.3454(3)
O6_8 O 0.36552(13) 0.31153(14) 0.2608(2)
H3_6 H 0.6135 0.1991 0.4081
C9_6 C 0.62236(19) 0.2400(2) 0.4774(3)
H4_8 H 0.6131 0.2775 0.5293
C10_8 C 0.4345(2) 0.1012(2) 0.1930(3)
C11_8 C 0.3515(2) 0.1096(2) 0.1039(3)
C12_8 C 0.4513(2) 0.3953(2) 0.3983(3)
C13_8 C 0.3668(2) 0.3897(3) 0.3253(4)
C14_8 C 0.6754(2) 0.2410(2) 0.5292(3)
H5_8 H 0.4633 0.1101 0.2354
C15_8 C 0.4333(2) 0.0630(3) 0.1582(4)
C16_8 C 0.3499(2) 0.0720(3) 0.0680(4)
H6_8 H 0.3233 0.1243 0.0859
H7_8 H 0.4790 0.3853 0.4101
C17_8 C 0.4526(3) 0.4329(3) 0.4325(4)
C18_8 C 0.3689(3) 0.4297(3) 0.3603(4)
H8_8 H 0.3376 0.3755 0.2890
C19_8 C 0.7007(3) 0.2301(6) 0.5172(5)
C20_8 C 0.7011(3) 0.2498(6) 0.5948(6)
H9_8 H 0.4613 0.0470 0.1777
C21_8 C 0.3910(3) 0.0487(2) 0.0951(4)
H10_8 H 0.3211 0.0628 0.0259
H11_8 H 0.4818 0.4467 0.4693
C22_8 C 0.4106(3) 0.4514(3) 0.4130(4)
H12_8 H 0.3409 0.4412 0.3468
C23_8 C 0.7505(3) 0.2312(5) 0.5685(5)
H13_6 H 0.6859 0.2213 0.4736
H14_8 H 0.6854 0.2570 0.6083
C24_8 C 0.7502(3) 0.2485(5) 0.6430(5)
C25_8 C 0.3890 0.0078 0.0576
C26_8 C 0.4140 0.4908 0.4516
H15_8 H 0.7669 0.2226 0.5564
H16_8 H 0.7662 0.2523 0.6883
C29_6 C 0.3859 0.5292 0.4182
C30_6 C 0.4504 0.4951 0.5225
C33_6 C 0.3954 0.5713 0.4685
H18_6 H 0.3632 0.5318 0.3712
C34_8 C 0.4471 0.5265 0.5575
O10_6 O 0.4848 0.4615 0.5618
C37_8 C 0.4109 0.5644 0.5235
O12_6 O 0.3626 0.5920 0.4269
H20_8 H 0.4686 0.5237 0.6043
C38_8 C 0.5200 0.4600 0.6473
C42_8 C 0.4080(3) 0.6014(2) 0.5588(4)
C43_6 C 0.3168 0.6100 0.3382
H23_8 H 0.5021 0.4389 0.6514
H24_8 H 0.5157 0.4925 0.6564
C44_8 C 0.5700 0.4488 0.7104
C49_8 C 0.4491(2) 0.6243(2) 0.6182(3)
C50_8 C 0.3655(3) 0.6128(3) 0.5390(4)
H29_6 H 0.3055 0.6431 0.3314
H30_6 H 0.3253 0.6040 0.3128
C51_6 C 0.2893 0.5776 0.3294
H31_8 H 0.5817 0.4698 0.7478
H32_8 H 0.5915 0.4497 0.7039
C52_8 C 0.5610 0.4012 0.7177
C57_8 C 0.4481(2) 0.6567(2) 0.6554(3)
H39_8 H 0.4783 0.6171 0.6327
H40_6 H 0.3374 0.5994 0.4995
C58_8 C 0.3639(2) 0.6443(2) 0.5773(3)
H41_6 H 0.3071 0.5637 0.3739
H42_6 H 0.2874 0.5522 0.3029
C59_6 C 0.2442 0.5827 0.3020
H43_8 H 0.5881 0.3806 0.7373
H44_8 H 0.5561 0.4012 0.7479
C60_8 C 0.5183 0.3820 0.6508
C63_8 C 0.40351(19) 0.66576(19) 0.6336(3)
H52_8 H 0.4756 0.6720 0.6934
H53_8 H 0.3349 0.6506 0.5637
H54_6 H 0.2301 0.5507 0.2927
H55_6 H 0.2253 0.6001 0.2594
C64_6 C 0.2433 0.6126 0.3534
H56_8 H 0.5122 0.3494 0.6558
H57_6 H 0.4915 0.4023 0.6318
H58_8 H 0.5235 0.3817 0.6213
C66_8 C 0.40136(19) 0.69898(18) 0.6758(3)
H62_6 H 0.2111 0.6157 0.3328
H63_6 H 0.2567 0.6445 0.3621
H64_6 H 0.2616 0.5951 0.3953
C31_8 C 0.3600 0.9800 0.9545
H19_8 H 0.3338 0.9818 0.9081
C35_8 C 0.3884 0.9364 0.9808
C39_8 C 0.3902(3) 0.8989(3) 0.9447(4)
C45_8 C 0.4320(3) 0.8811(4) 0.9687(4)
C46_8 C 0.3483(3) 0.8816(3) 0.8835(4)
H26_8 H 0.2633 0.9982 0.8903
C53_8 C 0.4339(2) 0.8497(3) 0.9300(3)
H34_8 H 0.3193 0.8909 0.8682
C54_8 C 0.3494(2) 0.8499(3) 0.8443(3)
H45_8 H 0.4631 0.8396 0.9464
C61_8 C 0.3921(2) 0.8339(2) 0.8674(3)
H46_8 H 0.3211 0.8396 0.8023
C65_8 C 0.3931(2) 0.8013(2) 0.8254(3)
N1_7 N 0.02329(15) 0.25864(16) 0.8786(2)
C1_7 C 0.04879(18) 0.2821(2) 0.8687(3)
C2_7 C 0.0487(2) 0.2372(3) 0.9383(3)
H1_7 H 0.0324 0.2977 0.8275
C5_7 C 0.09741(19) 0.2838(2) 0.9165(3)
C6_7 C 0.0974(2) 0.2376(3) 0.9881(3)
H2_7 H 0.0324 0.2209 0.9470
H3_7 H 0.1135 0.3009 0.9081
C9_7 C 0.12236(19) 0.2600(2) 0.9774(3)
H13_7 H 0.1859 0.2787 0.9736
H28_5 H 0.0165 0.5961 0.6905
H37_5 H 0.0151 0.6771 0.7161
H38_5 H 0.0010 0.6747 0.6481
C30_7 C 0.9504 0.0049 0.0225
O10_7 O 0.9848 0.0385 0.0618
H57_7 H 0.9915 0.0977 0.1318
C29_7 C 0.8859 0.9708 0.9182
C33_7 C 0.8954 0.9287 0.9685
H18_7 H 0.8632 0.9682 0.8712
O12_7 O 0.8626 0.9080 0.9269
C43_7 C 0.8168 0.8900 0.8382
H29_7 H 0.8055 0.8569 0.8314
H30_7 H 0.8253 0.8960 0.8128
C51_7 C 0.7893 0.9224 0.8294
H40_7 H 0.8374 0.9006 0.9995
H41_7 H 0.8071 0.9363 0.8739
H42_7 H 0.7874 0.9478 0.8029
C59_7 C 0.7442 0.9173 0.8020
H54_7 H 0.7301 0.9493 0.7927
H55_7 H 0.7253 0.8999 0.7594
C64_7 C 0.7433 0.8874 0.8534
H62_7 H 0.7111 0.8843 0.8328
H63_7 H 0.7567 0.8555 0.8621
H64_7 H 0.7616 0.9049 0.8953
C28_7 C 0.5792 0.0289 0.9045
C32_7 C 0.5851 0.0659 0.9540
H17_7 H 0.5578 0.0317 0.8576
O11_7 O 0.5482 0.1095 0.9030
C41_7 C 0.5133 0.1116 0.8303
H27_7 H 0.5249 0.0996 0.8106
H28_6 H 0.4835 0.0961 0.8095
C48_7 C 0.5114 0.1698 0.8315
H33_7 H 0.5399 0.1101 0.9880
H37_6 H 0.4849 0.1771 0.7839
H38_6 H 0.4990 0.1747 0.8519
C56_7 C 0.5457 0.2200 0.8581
H50_7 H 0.5268 0.2488 0.8460
H51_7 H 0.5566 0.2217 0.8353
C62_7 C 0.5861 0.2195 0.9300
H59_7 H 0.6046 0.2484 0.9432
H60_7 H 0.5754 0.2185 0.9528
H61_7 H 0.6052 0.1913 0.9421
C27_7 C 0.6312 0.9814 0.0077
O9_7 O 0.6699 0.9504 0.0413
C36_7 C 0.7083 0.9490 0.1200
H21_7 H 0.7000 0.9694 0.1394
H22_7 H 0.7147 0.9161 0.1374
C40_7 C 0.7492 0.9700 0.1309
H25_7 H 0.7723 0.9767 0.1791
C47_7 C 0.7819 0.9586 0.1189
H35_7 H 0.7749 0.9828 0.0872
H36_7 H 0.8143 0.9645 0.1615
C55_7 C 0.7818 0.9204 0.0992
H47_7 H 0.8044 0.9207 0.0951
H48_7 H 0.7506 0.9139 0.0558
H49_7 H 0.7903 0.8955 0.1306
C29_8 C 0.1141 0.0292 0.0818
C33_8 C 0.1046 0.0713 0.0315
H18_8 H 0.1368 0.0318 0.1288
O12_8 O 0.1374 0.0920 0.0731
C43_8 C 0.1832 0.1100 0.1618
H29_8 H 0.1945 0.1431 0.1686
H30_8 H 0.1747 0.1040 0.1872
C51_8 C 0.2107 0.0776 0.1706
H40_8 H 0.1626 0.0994 0.0005
H41_8 H 0.1929 0.0637 0.1261
H42_8 H 0.2126 0.0522 0.1971
C59_8 C 0.2558 0.0827 0.1980
H54_8 H 0.2699 0.0507 0.2073
H55_8 H 0.2747 0.1001 0.2406
C64_8 C 0.2567 0.1126 0.1466
H62_8 H 0.2889 0.1157 0.1672
H63_8 H 0.2433 0.1445 0.1379
H64_8 H 0.2384 0.0951 0.1047
C30_8 C 0.0496 0.9951 0.9775
O10_8 O 0.0152 0.9615 0.9382
H57_8 H 0.0085 0.9023 0.8682
N1_8 N 0.97671(15) 0.74136(16) 0.1214(2)
C1_8 C 0.95121(18) 0.7179(2) 0.1313(3)
C2_8 C 0.9513(2) 0.7628(3) 0.0617(3)
H1_8 H 0.9676 0.7023 0.1725
C5_8 C 0.90259(19) 0.7162(2) 0.0835(3)
C6_8 C 0.9026(2) 0.7624(3) 0.0119(3)
H2_8 H 0.9676 0.7791 0.0530
H3_8 H 0.8865 0.6991 0.0919
C9_8 C 0.87764(19) 0.7400(2) 0.0226(3)
H13_8 H 0.8141 0.7213 0.0264
H28_7 H 0.9835 0.4039 0.3095
H37_7 H 0.9849 0.3229 0.2839
H38_7 H 0.9990 0.3253 0.3519
C27_8 C 0.3688 0.0186 0.9923
O9_8 O 0.3301 0.0496 0.9587
C36_8 C 0.2917 0.0510 0.8800
H21_8 H 0.3000 0.0306 0.8606
H22_8 H 0.2853 0.0839 0.8626
C40_8 C 0.2508 0.0300 0.8691
H25_8 H 0.2277 0.0233 0.8209
C47_8 C 0.2181 0.0414 0.8811
H35_8 H 0.2251 0.0172 0.9128
H36_8 H 0.1857 0.0355 0.8385
C55_8 C 0.2182 0.0796 0.9008
H47_8 H 0.1956 0.0793 0.9049
H48_8 H 0.2494 0.0861 0.9442
H49_8 H 0.2097 0.1045 0.8694
C28_8 C 0.4208 0.9711 0.0955
C32_8 C 0.4149 0.9341 0.0460
H17_8 H 0.4422 0.9683 0.1424
O11_8 O 0.4518 0.8905 0.0970
C41_8 C 0.4867 0.8884 0.1697
H27_8 H 0.4751 0.9004 0.1894
H28_8 H 0.5165 0.9039 0.1905
C48_8 C 0.4886 0.8302 0.1685
H33_8 H 0.4601 0.8899 0.0120
H37_8 H 0.5151 0.8229 0.2161
H38_8 H 0.5010 0.8253 0.1481
C56_8 C 0.4543 0.7800 0.1419
H50_8 H 0.4732 0.7512 0.1540
H51_8 H 0.4434 0.7783 0.1647
C62_8 C 0.4139 0.7805 0.0700
H59_8 H 0.3954 0.7516 0.0568
H60_8 H 0.4246 0.7815 0.0472
H61_8 H 0.3948 0.8087 0.0579
loop_
_geom_bond_atom_site_label_1
_geom_bond_atom_site_label_2
_geom_bond_site_symmetry_1
_geom_bond_site_symmetry_2
C31 C27 1_555 1_555
O9 C27 1_555 1_555
H19 C31 1_555 1_555
C35 C31 1_555 1_555
C36 O9 1_555 1_555
C39 C35 1_555 1_555
H21 C36 1_555 1_555
H22 C36 1_555 1_555
C40 C36 1_555 1_555
C45 C39 1_555 1_555
C46 C39 1_555 1_555
H25 C40 1_555 1_555
H26 C40 1_555 1_555
C47 C40 1_555 1_555
C53 C45 1_555 1_555
H34 C46 1_555 1_555
C54 C46 1_555 1_555
H35 C47 1_555 1_555
H36 C47 1_555 1_555
C55 C47 1_555 1_555
H45 C53 1_555 1_555
C61 C53 1_555 1_555
H46 C54 1_555 1_555
H47 C55 1_555 1_555
H48 C55 1_555 1_555
H49 C55 1_555 1_555
C65 C61 1_555 1_555
O13 C65 1_555 1_555
O14 C65 1_555 1_555
Zn4 O13 1_555 1_555
Zn5 O14 1_555 1_555
C54 C61 1_555 1_555
O1 Zn1 1_555 1_555
O2 Zn1 1_555 1_555
O3 Zn1 1_555 1_555
O4 Zn1 1_555 1_555
C3 O1 1_555 1_555
C4 O2 1_555 1_555
C7 C3 1_555 1_555
O5 C3 1_555 1_555
C8 C4 1_555 1_555
O6 C4 1_555 1_555
O7 Zn2 1_555 1_555
O8 Zn2 1_555 1_555
C10 C7 1_555 1_555
C11 C7 1_555 1_555
Zn2 O5 1_555 1_555
C12 C8 1_555 1_555
C13 C8 1_555 1_555
H5 C10 1_555 1_555
C15 C10 1_555 1_555
C16 C11 1_555 1_555
H6 C11 1_555 1_555
N2 Zn2 1_555 1_555
H7 C12 1_555 1_555
C17 C12 1_555 1_555
C18 C13 1_555 1_555
H8 C13 1_555 1_555
H9 C15 1_555 1_555
C21 C15 1_555 1_555
H10 C16 1_555 1_555
H11 C17 1_555 1_555
C22 C17 1_555 1_555
H12 C18 1_555 1_555
C25 C21 1_555 1_555
C26 C22 1_555 1_555
C28 C25 1_555 1_555
C30 C26 1_555 1_555
C32 C28 1_555 1_555
H17 C28 1_555 1_555
O10 C30 1_555 1_555
O11 C32 1_555 1_555
C41 O11 1_555 1_555
H27 C41 1_555 1_555
C48 C41 1_555 1_555
C56 C48 1_555 1_555
H50 C56 1_555 1_555
H51 C56 1_555 1_555
C62 C56 1_555 1_555
H59 C62 1_555 1_555
H60 C62 1_555 1_555
H61 C62 1_555 1_555
O6 Zn2 1_555 1_555
C16 C21 1_555 1_555
C18 C22 1_555 1_555
C33 C29 1_555 1_555
H18 C29 1_555 1_555
C37 C33 1_555 1_555
O12 C33 1_555 1_555
H20 C34 1_555 1_555
C42 C37 1_555 1_555
C43 O12 1_555 1_555
C49 C42 1_555 1_555
C50 C42 1_555 1_555
H29 C43 1_555 1_555
H30 C43 1_555 1_555
C51 C43 1_555 1_555
C57 C49 1_555 1_555
H39 C49 1_555 1_555
H40 C50 1_555 1_555
C58 C50 1_555 1_555
H41 C51 1_555 1_555
H42 C51 1_555 1_555
C59 C51 1_555 1_555
C63 C57 1_555 1_555
H52 C57 1_555 1_555
H53 C58 1_555 1_555
H54 C59 1_555 1_555
H55 C59 1_555 1_555
C64 C59 1_555 1_555
C66 C63 1_555 1_555
H62 C64 1_555 1_555
H63 C64 1_555 1_555
H64 C64 1_555 1_555
O15 C66 1_555 1_555
O16 C66 1_555 1_555
Zn4 O15 1_555 1_555
Zn5 O16 1_555 1_555
C34 C37 1_555 1_555
C58 C63 1_555 1_555
N1 C1 1_555 1_555
C1 H1 1_555 1_555
C2 N1 1_555 1_555
C5 C1 1_555 1_555
C6 C2 1_555 1_555
H2 C2 1_555 1_555
H3 C5 1_555 1_555
C9 C5 1_555 1_555
H4 C6 1_555 1_555
C14 C9 1_555 1_555
C19 C14 1_555 1_555
C20 C14 1_555 1_555
C23 C19 1_555 1_555
H13 C19 1_555 1_555
H14 C20 1_555 1_555
C24 C20 1_555 1_555
H15 C23 1_555 1_555
H16 C24 1_555 1_555
H23 C38 1_555 1_555
H24 C38 1_555 1_555
C44 C38 1_555 1_555
H31 C44 1_555 1_555
H32 C44 1_555 1_555
C52 C44 1_555 1_555
H43 C52 1_555 1_555
H44 C52 1_555 1_555
C60 C52 1_555 1_555
H56 C60 1_555 1_555
H58 C60 1_555 1_555
N3 C23 1_555 1_555
Zn3 N3 1_555 1_555
C6 C9 1_555 1_555
C24 N3 1_555 1_555
H19_2 C31_2 1_555 1_555
C35_2 C31_2 1_555 1_555
C39_2 C35_2 1_555 1_555
C45_2 C39_2 1_555 1_555
C46_2 C39_2 1_555 1_555
C53_2 C45_2 1_555 1_555
H34_2 C46_2 1_555 1_555
C54_2 C46_2 1_555 1_555
H45_2 C53_2 1_555 1_555
C61_2 C53_2 1_555 1_555
H46_2 C54_2 1_555 1_555
C65_2 C61_2 1_555 1_555
O13_2 C65_2 1_555 1_555
O14_2 C65_2 1_555 1_555
Zn4_2 O13_2 1_555 1_555
Zn3 O14_2 1_555 1_555
C54_2 C61_2 1_555 1_555
Zn1_2 N1_2 1_555 1_555
N1_2 C1_2 1_555 1_555
O1_2 Zn1_2 1_555 1_555
O2_2 Zn1_2 1_555 1_555
O3_2 Zn1_2 1_555 1_555
O4_2 Zn1_2 1_555 1_555
C1_2 H1_2 1_555 1_555
C2_2 N1_2 1_555 1_555
C3_2 O1_2 1_555 1_555
C4_2 O2_2 1_555 1_555
C5_2 C1_2 1_555 1_555
C6_2 C2_2 1_555 1_555
H2_2 C2_2 1_555 1_555
C7_2 C3_2 1_555 1_555
O5_2 C3_2 1_555 1_555
C8_2 C4_2 1_555 1_555
O6_2 C4_2 1_555 1_555
O7_2 Zn2_2 1_555 1_555
O8_2 Zn2_2 1_555 1_555
H3_2 C5_2 1_555 1_555
C9_2 C5_2 1_555 1_555
H4_2 C6_2 1_555 1_555
C10_2 C7_2 1_555 1_555
C11_2 C7_2 1_555 1_555
Zn2_2 O5_2 1_555 1_555
C12_2 C8_2 1_555 1_555
C13_2 C8_2 1_555 1_555
C14_2 C9_2 1_555 1_555
H5_2 C10_2 1_555 1_555
C15_2 C10_2 1_555 1_555
C16_2 C11_2 1_555 1_555
H6_2 C11_2 1_555 1_555
N2_2 Zn2_2 1_555 1_555
H7_2 C12_2 1_555 1_555
C17_2 C12_2 1_555 1_555
C18_2 C13_2 1_555 1_555
H8_2 C13_2 1_555 1_555
C19_2 C14_2 1_555 1_555
C20_2 C14_2 1_555 1_555
H9_2 C15_2 1_555 1_555
C21_2 C15_2 1_555 1_555
H10_2 C16_2 1_555 1_555
H11_2 C17_2 1_555 1_555
C22_2 C17_2 1_555 1_555
H12_2 C18_2 1_555 1_555
C23_2 C19_2 1_555 1_555
H13_2 C19_2 1_555 1_555
H14_2 C20_2 1_555 1_555
C24_2 C20_2 1_555 1_555
C25_2 C21_2 1_555 1_555
C26_2 C22_2 1_555 1_555
H15_2 C23_2 1_555 1_555
H16_2 C24_2 1_555 1_555
C29_2 C26_2 1_555 1_555
C30_2 C26_2 1_555 1_555
C33_2 C29_2 1_555 1_555
H18_2 C29_2 1_555 1_555
C34_2 C30_2 1_555 1_555
O10_2 C30_2 1_555 1_555
C37_2 C33_2 1_555 1_555
O12_2 C33_2 1_555 1_555
H20_2 C34_2 1_555 1_555
C38_2 O10_2 1_555 1_555
C42_2 C37_2 1_555 1_555
C43_2 O12_2 1_555 1_555
H23_2 C38_2 1_555 1_555
H24_2 C38_2 1_555 1_555
C44_2 C38_2 1_555 1_555
C49_2 C42_2 1_555 1_555
C50_2 C42_2 1_555 1_555
H29_2 C43_2 1_555 1_555
H30_2 C43_2 1_555 1_555
C51_2 C43_2 1_555 1_555
H31_2 C44_2 1_555 1_555
H32_2 C44_2 1_555 1_555
C52_2 C44_2 1_555 1_555
C57_2 C49_2 1_555 1_555
H39_2 C49_2 1_555 1_555
H40_2 C50_2 1_555 1_555
C58_2 C50_2 1_555 1_555
H41_2 C51_2 1_555 1_555
H42_2 C51_2 1_555 1_555
C59_2 C51_2 1_555 1_555
H43_2 C52_2 1_555 1_555
H44_2 C52_2 1_555 1_555
C60_2 C52_2 1_555 1_555
C63_2 C57_2 1_555 1_555
H52_2 C57_2 1_555 1_555
H53_2 C58_2 1_555 1_555
H54_2 C59_2 1_555 1_555
H55_2 C59_2 1_555 1_555
C64_2 C59_2 1_555 1_555
H56_2 C60_2 1_555 1_555
H57_2 C60_2 1_555 1_555
H58_2 C60_2 1_555 1_555
C66_2 C63_2 1_555 1_555
H62_2 C64_2 1_555 1_555
H63_2 C64_2 1_555 1_555
H64_2 C64_2 1_555 1_555
N3_2 C23_2 1_555 1_555
Zn5 N3_2 1_555 1_555
O15_2 C66_2 1_555 1_555
O16_2 C66_2 1_555 1_555
Zn4_2 O15_2 1_555 1_555
Zn3 O16_2 1_555 1_555
C6_2 C9_2 1_555 1_555
O6_2 Zn2_2 1_555 1_555
C16_2 C21_2 1_555 1_555
C18_2 C22_2 1_555 1_555
C24_2 N3_2 1_555 1_555
C34_2 C37_2 1_555 1_555
C58_2 C63_2 1_555 1_555
H20_3 C34_3 1_555 1_555
C42_3 C37_3 1_555 1_555
C49_3 C42_3 1_555 1_555
C50_3 C42_3 1_555 1_555
C57_3 C49_3 1_555 1_555
H39_3 C49_3 1_555 1_555
C58_3 C50_3 1_555 1_555
C63_3 C57_3 1_555 1_555
H52_3 C57_3 1_555 1_555
H53_3 C58_3 1_555 1_555
C66_3 C63_3 1_555 1_555
O4 C66_3 1_555 1_555
O8 C66_3 1_555 1_555
C34_3 C37_3 1_555 1_555
C58_3 C63_3 1_555 1_555
O1_3 Zn4 1_555 1_555
O2_3 Zn4 1_555 1_555
C3_3 O1_3 1_555 1_555
C4_3 O2_3 1_555 1_555
C7_3 C3_3 1_555 1_555
O5_3 C3_3 1_555 1_555
C8_3 C4_3 1_555 1_555
O6_3 C4_3 1_555 1_555
C10_3 C7_3 1_555 1_555
C11_3 C7_3 1_555 1_555
Zn5 O5_3 1_555 1_555
C12_3 C8_3 1_555 1_555
C13_3 C8_3 1_555 1_555
H5_3 C10_3 1_555 1_555
C15_3 C10_3 1_555 1_555
C16_3 C11_3 1_555 1_555
H6_3 C11_3 1_555 1_555
H7_3 C12_3 1_555 1_555
C17_3 C12_3 1_555 1_555
C18_3 C13_3 1_555 1_555
H8_3 C13_3 1_555 1_555
H9_3 C15_3 1_555 1_555
C21_3 C15_3 1_555 1_555
H10_3 C16_3 1_555 1_555
H11_3 C17_3 1_555 1_555
C22_3 C17_3 1_555 1_555
H12_3 C18_3 1_555 1_555
C25_3 C21_3 1_555 1_555
C26_3 C22_3 1_555 1_555
C27_2 C25_3 1_555 1_555
C28_2 C25_3 1_555 1_555
C31_3 C27_2 1_555 1_555
O9_2 C27_2 1_555 1_555
C32_2 C28_2 1_555 1_555
H17_2 C28_2 1_555 1_555
H19_3 C31_3 1_555 1_555
C35_3 C31_3 1_555 1_555
C36_2 O9_2 1_555 1_555
O11_2 C32_2 1_555 1_555
C39_3 C35_3 1_555 1_555
H21_2 C36_2 1_555 1_555
H22_2 C36_2 1_555 1_555
C40_2 C36_2 1_555 1_555
C41_2 O11_2 1_555 1_555
C45_3 C39_3 1_555 1_555
C46_3 C39_3 1_555 1_555
H25_2 C40_2 1_555 1_555
H26_3 C40_2 1_555 1_555
C47_2 C40_2 1_555 1_555
H27_2 C41_2 1_555 1_555
C48_2 C41_2 1_555 1_555
C53_3 C45_3 1_555 1_555
H33_2 C45_3 1_555 1_555
H34_3 C46_3 1_555 1_555
C54_3 C46_3 1_555 1_555
H35_2 C47_2 1_555 1_555
H36_2 C47_2 1_555 1_555
C55_2 C47_2 1_555 1_555
C56_2 C48_2 1_555 1_555
H45_3 C53_3 1_555 1_555
C61_3 C53_3 1_555 1_555
H46_3 C54_3 1_555 1_555
H47_2 C55_2 1_555 1_555
H48_2 C55_2 1_555 1_555
H49_2 C55_2 1_555 1_555
H50_2 C56_2 1_555 1_555
H51_2 C56_2 1_555 1_555
C62_2 C56_2 1_555 1_555
C65_3 C61_3 1_555 1_555
H59_2 C62_2 1_555 1_555
H60_2 C62_2 1_555 1_555
H61_2 C62_2 1_555 1_555
O3 C65_3 1_555 1_555
O7 C65_3 1_555 1_555
O6_3 Zn5 1_555 1_555
C16_3 C21_3 1_555 1_555
C18_3 C22_3 1_555 1_555
C32_2 C35_3 1_555 1_555
C54_3 C61_3 1_555 1_555
C19_3 C14_3 1_555 1_555
C20_3 C14_3 1_555 1_555
C23_3 C19_3 1_555 1_555
H14_3 C20_3 1_555 1_555
C24_3 C20_3 1_555 1_555
H15_3 C23_3 1_555 1_555
H16_3 C24_3 1_555 1_555
H23_3 C38_3 1_555 1_555
H24_3 C38_3 1_555 1_555
C44_3 C38_3 1_555 1_555
H31_3 C44_3 1_555 1_555
H32_3 C44_3 1_555 1_555
C52_3 C44_3 1_555 1_555
H43_3 C52_3 1_555 1_555
H44_3 C52_3 1_555 1_555
C60_3 C52_3 1_555 1_555
H56_3 C60_3 1_555 1_555
H58_3 C60_3 1_555 1_555
N2_2 C23_3 1_555 1_555
C24_3 N2_2 1_555 1_555
Zn4_2 N1_3 1_555 1_555
N1_3 C1_3 1_555 1_555
O1_4 Zn4_2 1_555 1_555
O2_4 Zn4_2 1_555 1_555
C1_3 H1_3 1_555 1_555
C2_3 N1_3 1_555 1_555
C3_4 O1_4 1_555 1_555
C4_4 O2_4 1_555 1_555
C5_3 C1_3 1_555 1_555
C6_3 C2_3 1_555 1_555
H2_3 C2_3 1_555 1_555
C7_4 C3_4 1_555 1_555
O5_4 C3_4 1_555 1_555
C8_4 C4_4 1_555 1_555
O6_4 C4_4 1_555 1_555
H3_3 C5_3 1_555 1_555
C9_3 C5_3 1_555 1_555
C10_4 C7_4 1_555 1_555
C11_4 C7_4 1_555 1_555
Zn3 O5_4 1_555 1_555
C12_4 C8_4 1_555 1_555
C13_4 C8_4 1_555 1_555
H5_4 C10_4 1_555 1_555
C15_4 C10_4 1_555 1_555
C16_4 C11_4 1_555 1_555
H6_4 C11_4 1_555 1_555
H7_4 C12_4 1_555 1_555
C17_4 C12_4 1_555 1_555
C18_4 C13_4 1_555 1_555
H8_4 C13_4 1_555 1_555
H9_4 C15_4 1_555 1_555
C21_4 C15_4 1_555 1_555
H10_4 C16_4 1_555 1_555
H11_4 C17_4 1_555 1_555
C22_4 C17_4 1_555 1_555
H12_4 C18_4 1_555 1_555
C25_4 C21_4 1_555 1_555
C26_4 C22_4 1_555 1_555
C27_3 C25_4 1_555 1_555
C29_3 C26_4 1_555 1_555
O9_3 C27_3 1_555 1_555
C33_3 C29_3 1_555 1_555
H18_3 C29_3 1_555 1_555
C36_3 O9_3 1_555 1_555
O12_3 C33_3 1_555 1_555
H21_3 C36_3 1_555 1_555
H22_3 C36_3 1_555 1_555
C40_3 C36_3 1_555 1_555
C43_3 O12_3 1_555 1_555
H25_3 C40_3 1_555 1_555
C47_3 C40_3 1_555 1_555
H29_3 C43_3 1_555 1_555
H30_3 C43_3 1_555 1_555
C51_3 C43_3 1_555 1_555
H35_3 C47_3 1_555 1_555
H36_3 C47_3 1_555 1_555
C55_3 C47_3 1_555 1_555
H41_3 C51_3 1_555 1_555
H42_3 C51_3 1_555 1_555
C59_3 C51_3 1_555 1_555
H47_3 C55_3 1_555 1_555
H48_3 C55_3 1_555 1_555
H49_3 C55_3 1_555 1_555
H54_3 C59_3 1_555 1_555
H55_3 C59_3 1_555 1_555
C64_3 C59_3 1_555 1_555
H62_3 C64_3 1_555 1_555
H63_3 C64_3 1_555 1_555
H64_3 C64_3 1_555 1_555
C6_3 C9_3 1_555 1_555
O6_4 Zn3 1_555 1_555
C16_4 C21_4 1_555 1_555
C18_4 C22_4 1_555 1_555
C19_4 C14_4 1_555 1_555
C20_4 C14_4 1_555 1_555
C23_4 C19_4 1_555 1_555
H14_4 C20_4 1_555 1_555
C24_4 C20_4 1_555 1_555
H15_4 C23_4 1_555 1_555
H16_4 C24_4 1_555 1_555
C34_4 C30_3 1_555 1_555
O10_3 C30_3 1_555 1_555
H20_4 C34_4 1_555 1_555
C38_4 O10_3 1_555 1_555
C42_4 C37_4 1_555 1_555
H23_4 C38_4 1_555 1_555
H24_4 C38_4 1_555 1_555
C44_4 C38_4 1_555 1_555
C49_4 C42_4 1_555 1_555
C50_4 C42_4 1_555 1_555
H31_4 C44_4 1_555 1_555
H32_4 C44_4 1_555 1_555
C52_4 C44_4 1_555 1_555
C57_4 C49_4 1_555 1_555
H39_4 C49_4 1_555 1_555
C58_4 C50_4 1_555 1_555
H43_4 C52_4 1_555 1_555
H44_4 C52_4 1_555 1_555
C60_4 C52_4 1_555 1_555
C63_4 C57_4 1_555 1_555
H52_4 C57_4 1_555 1_555
H53_4 C58_4 1_555 1_555
H56_4 C60_4 1_555 1_555
H57_3 C60_4 1_555 1_555
H58_4 C60_4 1_555 1_555
C66_4 C63_4 1_555 1_555
N2 C23_4 1_555 1_555
O4_2 C66_4 1_555 1_555
O8_2 C66_4 1_555 1_555
C24_4 N2 1_555 1_555
C34_4 C37_4 1_555 1_555
C58_4 C63_4 1_555 1_555
C32_3 C28_3 1_555 1_555
H17_3 C28_3 1_555 1_555
H19_4 C31_4 1_555 1_555
C35_4 C31_4 1_555 1_555
O11_3 C32_3 1_555 1_555
C39_4 C35_4 1_555 1_555
C41_3 O11_3 1_555 1_555
C45_4 C39_4 1_555 1_555
C46_4 C39_4 1_555 1_555
H27_3 C41_3 1_555 1_555
H28_2 C41_3 1_555 1_555
C48_3 C41_3 1_555 1_555
C53_4 C45_4 1_555 1_555
H33_3 C45_4 1_555 1_555
H34_4 C46_4 1_555 1_555
C54_4 C46_4 1_555 1_555
H37_2 C48_3 1_555 1_555
H38_2 C48_3 1_555 1_555
C56_3 C48_3 1_555 1_555
H45_4 C53_4 1_555 1_555
C61_4 C53_4 1_555 1_555
H46_4 C54_4 1_555 1_555
H50_3 C56_3 1_555 1_555
H51_3 C56_3 1_555 1_555
C62_3 C56_3 1_555 1_555
C65_4 C61_4 1_555 1_555
H59_3 C62_3 1_555 1_555
H60_3 C62_3 1_555 1_555
H61_3 C62_3 1_555 1_555
O3_2 C65_4 1_555 1_555
O7_2 C65_4 1_555 1_555
C32_3 C35_4 1_555 1_555
C54_4 C61_4 1_555 1_555
C19_5 C14_5 1_555 1_555
C20_5 C14_5 1_555 1_555
C23_5 C19_5 1_555 1_555
H14_5 C20_5 1_555 1_555
C24_5 C20_5 1_555 1_555
H15_5 C23_5 1_555 1_555
H16_5 C24_5 1_555 1_555
H23_5 C38_5 1_555 1_555
H24_5 C38_5 1_555 1_555
C44_5 C38_5 1_555 1_555
H31_5 C44_5 1_555 1_555
H32_5 C44_5 1_555 1_555
C52_5 C44_5 1_555 1_555
H43_5 C52_5 1_555 1_555
H44_5 C52_5 1_555 1_555
C60_5 C52_5 1_555 1_555
H56_5 C60_5 1_555 1_555
H58_5 C60_5 1_555 1_555
N3_3 C23_5 1_555 1_555
Zn3_2 N3_3 1_555 1_555
C24_5 N3_3 1_555 1_555
O1_5 Zn1_3 1_555 1_555
O2_5 Zn1_3 1_555 1_555
O3_3 Zn1_3 1_555 1_555
O4_3 Zn1_3 1_555 1_555
C3_5 O1_5 1_555 1_555
C4_5 O2_5 1_555 1_555
C7_5 C3_5 1_555 1_555
O5_5 C3_5 1_555 1_555
C8_5 C4_5 1_555 1_555
O6_5 C4_5 1_555 1_555
O7_3 Zn2_3 1_555 1_555
O8_3 Zn2_3 1_555 1_555
C10_5 C7_5 1_555 1_555
C11_5 C7_5 1_555 1_555
Zn2_3 O5_5 1_555 1_555
C12_5 C8_5 1_555 1_555
C13_5 C8_5 1_555 1_555
H5_5 C10_5 1_555 1_555
C15_5 C10_5 1_555 1_555
C16_5 C11_5 1_555 1_555
H6_5 C11_5 1_555 1_555
N2_3 Zn2_3 1_555 1_555
H7_5 C12_5 1_555 1_555
C17_5 C12_5 1_555 1_555
C18_5 C13_5 1_555 1_555
H8_5 C13_5 1_555 1_555
H9_5 C15_5 1_555 1_555
C21_5 C15_5 1_555 1_555
H10_5 C16_5 1_555 1_555
H11_5 C17_5 1_555 1_555
C22_5 C17_5 1_555 1_555
H12_5 C18_5 1_555 1_555
C25_5 C21_5 1_555 1_555
C26_5 C22_5 1_555 1_555
C27_4 C25_5 1_555 1_555
C28_4 C25_5 1_555 1_555
C31_5 C27_4 1_555 1_555
O9_4 C27_4 1_555 1_555
C32_4 C28_4 1_555 1_555
H17_4 C28_4 1_555 1_555
H19_5 C31_5 1_555 1_555
C35_5 C31_5 1_555 1_555
C36_4 O9_4 1_555 1_555
O11_4 C32_4 1_555 1_555
C39_5 C35_5 1_555 1_555
H21_4 C36_4 1_555 1_555
H22_4 C36_4 1_555 1_555
C40_4 C36_4 1_555 1_555
C41_4 O11_4 1_555 1_555
C45_5 C39_5 1_555 1_555
C46_5 C39_5 1_555 1_555
H25_4 C40_4 1_555 1_555
H26_5 C40_4 1_555 1_555
C47_4 C40_4 1_555 1_555
H27_4 C41_4 1_555 1_555
C48_4 C41_4 1_555 1_555
C53_5 C45_5 1_555 1_555
H33_4 C45_5 1_555 1_555
H34_5 C46_5 1_555 1_555
C54_5 C46_5 1_555 1_555
H35_4 C47_4 1_555 1_555
H36_4 C47_4 1_555 1_555
C55_4 C47_4 1_555 1_555
C56_4 C48_4 1_555 1_555
H45_5 C53_5 1_555 1_555
C61_5 C53_5 1_555 1_555
H46_5 C54_5 1_555 1_555
H47_4 C55_4 1_555 1_555
H48_4 C55_4 1_555 1_555
H49_4 C55_4 1_555 1_555
H50_4 C56_4 1_555 1_555
H51_4 C56_4 1_555 1_555
C62_4 C56_4 1_555 1_555
C65_5 C61_5 1_555 1_555
H59_4 C62_4 1_555 1_555
H60_4 C62_4 1_555 1_555
H61_4 C62_4 1_555 1_555
O13_3 C65_5 1_555 1_555
O14_3 C65_5 1_555 1_555
Zn4_3 O13_3 1_555 1_555
Zn5_2 O14_3 1_555 1_555
O6_5 Zn2_3 1_555 1_555
C16_5 C21_5 1_555 1_555
C18_5 C22_5 1_555 1_555
C32_4 C35_5 1_555 1_555
C54_5 C61_5 1_555 1_555
H20_5 C34_5 1_555 1_555
C42_5 C37_5 1_555 1_555
C49_5 C42_5 1_555 1_555
C50_5 C42_5 1_555 1_555
C57_5 C49_5 1_555 1_555
H39_5 C49_5 1_555 1_555
C58_5 C50_5 1_555 1_555
C63_5 C57_5 1_555 1_555
H52_5 C57_5 1_555 1_555
H53_5 C58_5 1_555 1_555
C66_5 C63_5 1_555 1_555
O15_3 C66_5 1_555 1_555
O16_3 C66_5 1_555 1_555
Zn4_3 O15_3 1_555 1_555
Zn5_2 O16_3 1_555 1_555
C34_5 C37_5 1_555 1_555
C58_5 C63_5 1_555 1_555
C32_5 C28_5 1_555 1_555
H17_5 C28_5 1_555 1_555
H19_6 C31_6 1_555 1_555
C35_6 C31_6 1_555 1_555
O11_5 C32_5 1_555 1_555
C39_6 C35_6 1_555 1_555
C41_5 O11_5 1_555 1_555
C45_6 C39_6 1_555 1_555
C46_6 C39_6 1_555 1_555
H27_5 C41_5 1_555 1_555
H28_3 C41_5 1_555 1_555
C48_5 C41_5 1_555 1_555
C53_6 C45_6 1_555 1_555
H33_5 C45_6 1_555 1_555
H34_6 C46_6 1_555 1_555
C54_6 C46_6 1_555 1_555
H37_3 C48_5 1_555 1_555
H38_3 C48_5 1_555 1_555
C56_5 C48_5 1_555 1_555
H45_6 C53_6 1_555 1_555
C61_6 C53_6 1_555 1_555
H46_6 C54_6 1_555 1_555
H50_5 C56_5 1_555 1_555
H51_5 C56_5 1_555 1_555
C62_5 C56_5 1_555 1_555
C65_6 C61_6 1_555 1_555
H59_5 C62_5 1_555 1_555
H60_5 C62_5 1_555 1_555
H61_5 C62_5 1_555 1_555
O13_4 C65_6 1_555 1_555
O14_4 C65_6 1_555 1_555
Zn4_4 O13_4 1_555 1_555
Zn3_2 O14_4 1_555 1_555
C32_5 C35_6 1_555 1_555
C54_6 C61_6 1_555 1_555
C19_6 C14_6 1_555 1_555
C20_6 C14_6 1_555 1_555
C23_6 C19_6 1_555 1_555
H14_6 C20_6 1_555 1_555
C24_6 C20_6 1_555 1_555
H15_6 C23_6 1_555 1_555
H16_6 C24_6 1_555 1_555
C34_6 C30_4 1_555 1_555
O10_4 C30_4 1_555 1_555
H20_6 C34_6 1_555 1_555
C38_6 O10_4 1_555 1_555
C42_6 C37_6 1_555 1_555
H23_6 C38_6 1_555 1_555
H24_6 C38_6 1_555 1_555
C44_6 C38_6 1_555 1_555
C49_6 C42_6 1_555 1_555
C50_6 C42_6 1_555 1_555
H31_6 C44_6 1_555 1_555
H32_6 C44_6 1_555 1_555
C52_6 C44_6 1_555 1_555
C57_6 C49_6 1_555 1_555
H39_6 C49_6 1_555 1_555
C58_6 C50_6 1_555 1_555
H43_6 C52_6 1_555 1_555
H44_6 C52_6 1_555 1_555
C60_6 C52_6 1_555 1_555
C63_6 C57_6 1_555 1_555
H52_6 C57_6 1_555 1_555
H53_6 C58_6 1_555 1_555
H56_6 C60_6 1_555 1_555
H57_4 C60_6 1_555 1_555
H58_6 C60_6 1_555 1_555
C66_6 C63_6 1_555 1_555
N3_4 C23_6 1_555 1_555
Zn5_2 N3_4 1_555 1_555
O15_4 C66_6 1_555 1_555
O16_4 C66_6 1_555 1_555
Zn4_4 O15_4 1_555 1_555
Zn3_2 O16_4 1_555 1_555
C24_6 N3_4 1_555 1_555
C34_6 C37_6 1_555 1_555
C58_6 C63_6 1_555 1_555
Zn1_4 N1_4 1_555 1_555
N1_4 C1_4 1_555 1_555
O1_6 Zn1_4 1_555 1_555
O2_6 Zn1_4 1_555 1_555
O3_4 Zn1_4 1_555 1_555
O4_4 Zn1_4 1_555 1_555
C1_4 H1_4 1_555 1_555
C2_4 N1_4 1_555 1_555
C3_6 O1_6 1_555 1_555
C4_6 O2_6 1_555 1_555
C5_4 C1_4 1_555 1_555
C6_4 C2_4 1_555 1_555
H2_4 C2_4 1_555 1_555
C7_6 C3_6 1_555 1_555
O5_6 C3_6 1_555 1_555
C8_6 C4_6 1_555 1_555
O6_6 C4_6 1_555 1_555
O7_4 Zn2_4 1_555 1_555
O8_4 Zn2_4 1_555 1_555
H3_4 C5_4 1_555 1_555
C9_4 C5_4 1_555 1_555
C10_6 C7_6 1_555 1_555
C11_6 C7_6 1_555 1_555
Zn2_4 O5_6 1_555 1_555
C12_6 C8_6 1_555 1_555
C13_6 C8_6 1_555 1_555
H5_6 C10_6 1_555 1_555
C15_6 C10_6 1_555 1_555
C16_6 C11_6 1_555 1_555
H6_6 C11_6 1_555 1_555
N2_4 Zn2_4 1_555 1_555
H7_6 C12_6 1_555 1_555
C17_6 C12_6 1_555 1_555
C18_6 C13_6 1_555 1_555
H8_6 C13_6 1_555 1_555
H9_6 C15_6 1_555 1_555
C21_6 C15_6 1_555 1_555
H10_6 C16_6 1_555 1_555
H11_6 C17_6 1_555 1_555
C22_6 C17_6 1_555 1_555
H12_6 C18_6 1_555 1_555
C25_6 C21_6 1_555 1_555
C26_6 C22_6 1_555 1_555
C27_5 C25_6 1_555 1_555
C29_4 C26_6 1_555 1_555
O9_5 C27_5 1_555 1_555
C33_4 C29_4 1_555 1_555
H18_4 C29_4 1_555 1_555
C36_5 O9_5 1_555 1_555
O12_4 C33_4 1_555 1_555
H21_5 C36_5 1_555 1_555
H22_5 C36_5 1_555 1_555
C40_5 C36_5 1_555 1_555
C43_4 O12_4 1_555 1_555
H25_5 C40_5 1_555 1_555
C47_5 C40_5 1_555 1_555
H29_4 C43_4 1_555 1_555
H30_4 C43_4 1_555 1_555
C51_4 C43_4 1_555 1_555
H35_5 C47_5 1_555 1_555
H36_5 C47_5 1_555 1_555
C55_5 C47_5 1_555 1_555
H41_4 C51_4 1_555 1_555
H42_4 C51_4 1_555 1_555
C59_4 C51_4 1_555 1_555
H47_5 C55_5 1_555 1_555
H48_5 C55_5 1_555 1_555
H49_5 C55_5 1_555 1_555
H54_4 C59_4 1_555 1_555
H55_4 C59_4 1_555 1_555
C64_4 C59_4 1_555 1_555
H62_4 C64_4 1_555 1_555
H63_4 C64_4 1_555 1_555
H64_4 C64_4 1_555 1_555
C6_4 C9_4 1_555 1_555
O6_6 Zn2_4 1_555 1_555
C16_6 C21_6 1_555 1_555
C18_6 C22_6 1_555 1_555
N1_5 C1_5 1_555 1_555
C1_5 H1_5 1_555 1_555
C2_5 N1_5 1_555 1_555
C5_5 C1_5 1_555 1_555
C6_5 C2_5 1_555 1_555
H2_5 C2_5 1_555 1_555
H3_5 C5_5 1_555 1_555
C9_5 C5_5 1_555 1_555
H4_7 C6_5 1_555 1_555
C14_7 C9_5 1_555 1_555
C19_7 C14_7 1_555 1_555
C20_7 C14_7 1_555 1_555
C23_7 C19_7 1_555 1_555
H13_5 C19_7 1_555 1_555
H14_7 C20_7 1_555 1_555
C24_7 C20_7 1_555 1_555
H15_7 C23_7 1_555 1_555
H16_7 C24_7 1_555 1_555
H23_7 C38_7 1_555 1_555
H24_7 C38_7 1_555 1_555
C44_7 C38_7 1_555 1_555
H31_7 C44_7 1_555 1_555
H32_7 C44_7 1_555 1_555
C52_7 C44_7 1_555 1_555
H43_7 C52_7 1_555 1_555
H44_7 C52_7 1_555 1_555
C60_7 C52_7 1_555 1_555
H56_7 C60_7 1_555 1_555
H58_7 C60_7 1_555 1_555
N2_4 C23_7 1_555 1_555
C6_5 C9_5 1_555 1_555
C24_7 N2_4 1_555 1_555
C33_5 C29_5 1_555 1_555
H18_5 C29_5 1_555 1_555
C37_7 C33_5 1_555 1_555
O12_5 C33_5 1_555 1_555
H20_7 C34_7 1_555 1_555
C42_7 C37_7 1_555 1_555
C43_5 O12_5 1_555 1_555
C49_7 C42_7 1_555 1_555
C50_7 C42_7 1_555 1_555
H29_5 C43_5 1_555 1_555
H30_5 C43_5 1_555 1_555
C51_5 C43_5 1_555 1_555
C57_7 C49_7 1_555 1_555
H39_7 C49_7 1_555 1_555
H40_5 C50_7 1_555 1_555
C58_7 C50_7 1_555 1_555
H41_5 C51_5 1_555 1_555
H42_5 C51_5 1_555 1_555
C59_5 C51_5 1_555 1_555
C63_7 C57_7 1_555 1_555
H52_7 C57_7 1_555 1_555
H53_7 C58_7 1_555 1_555
H54_5 C59_5 1_555 1_555
H55_5 C59_5 1_555 1_555
C64_5 C59_5 1_555 1_555
C66_7 C63_7 1_555 1_555
H62_5 C64_5 1_555 1_555
H63_5 C64_5 1_555 1_555
H64_5 C64_5 1_555 1_555
O4_3 C66_7 1_555 1_555
O8_3 C66_7 1_555 1_555
C34_7 C37_7 1_555 1_555
C58_7 C63_7 1_555 1_555
O1_7 Zn4_3 1_555 1_555
O2_7 Zn4_3 1_555 1_555
C3_7 O1_7 1_555 1_555
C4_7 O2_7 1_555 1_555
C7_7 C3_7 1_555 1_555
O5_7 C3_7 1_555 1_555
C8_7 C4_7 1_555 1_555
O6_7 C4_7 1_555 1_555
C10_7 C7_7 1_555 1_555
C11_7 C7_7 1_555 1_555
Zn5_2 O5_7 1_555 1_555
C12_7 C8_7 1_555 1_555
C13_7 C8_7 1_555 1_555
H5_7 C10_7 1_555 1_555
C15_7 C10_7 1_555 1_555
C16_7 C11_7 1_555 1_555
H6_7 C11_7 1_555 1_555
H7_7 C12_7 1_555 1_555
C17_7 C12_7 1_555 1_555
C18_7 C13_7 1_555 1_555
H8_7 C13_7 1_555 1_555
H9_7 C15_7 1_555 1_555
C21_7 C15_7 1_555 1_555
H10_7 C16_7 1_555 1_555
H11_7 C17_7 1_555 1_555
C22_7 C17_7 1_555 1_555
H12_7 C18_7 1_555 1_555
C25_7 C21_7 1_555 1_555
C26_7 C22_7 1_555 1_555
C28_6 C25_7 1_555 1_555
C30_5 C26_7 1_555 1_555
C32_6 C28_6 1_555 1_555
H17_6 C28_6 1_555 1_555
O10_5 C30_5 1_555 1_555
O11_6 C32_6 1_555 1_555
C41_6 O11_6 1_555 1_555
H27_6 C41_6 1_555 1_555
C48_6 C41_6 1_555 1_555
C56_6 C48_6 1_555 1_555
H50_6 C56_6 1_555 1_555
H51_6 C56_6 1_555 1_555
C62_6 C56_6 1_555 1_555
H59_6 C62_6 1_555 1_555
H60_6 C62_6 1_555 1_555
H61_6 C62_6 1_555 1_555
O6_7 Zn5_2 1_555 1_555
C16_7 C21_7 1_555 1_555
C18_7 C22_7 1_555 1_555
C31_7 C27_6 1_555 1_555
O9_6 C27_6 1_555 1_555
H19_7 C31_7 1_555 1_555
C35_7 C31_7 1_555 1_555
C36_6 O9_6 1_555 1_555
C39_7 C35_7 1_555 1_555
H21_6 C36_6 1_555 1_555
H22_6 C36_6 1_555 1_555
C40_6 C36_6 1_555 1_555
C45_7 C39_7 1_555 1_555
C46_7 C39_7 1_555 1_555
H25_6 C40_6 1_555 1_555
H26_7 C40_6 1_555 1_555
C47_6 C40_6 1_555 1_555
C53_7 C45_7 1_555 1_555
H34_7 C46_7 1_555 1_555
C54_7 C46_7 1_555 1_555
H35_6 C47_6 1_555 1_555
H36_6 C47_6 1_555 1_555
C55_6 C47_6 1_555 1_555
H45_7 C53_7 1_555 1_555
C61_7 C53_7 1_555 1_555
H46_7 C54_7 1_555 1_555
H47_6 C55_6 1_555 1_555
H48_6 C55_6 1_555 1_555
H49_6 C55_6 1_555 1_555
C65_7 C61_7 1_555 1_555
O3_3 C65_7 1_555 1_555
O7_3 C65_7 1_555 1_555
C54_7 C61_7 1_555 1_555
Zn4_4 N1_6 1_555 1_555
N1_6 C1_6 1_555 1_555
O1_8 Zn4_4 1_555 1_555
O2_8 Zn4_4 1_555 1_555
C1_6 H1_6 1_555 1_555
C2_6 N1_6 1_555 1_555
C3_8 O1_8 1_555 1_555
C4_8 O2_8 1_555 1_555
C5_6 C1_6 1_555 1_555
C6_6 C2_6 1_555 1_555
H2_6 C2_6 1_555 1_555
C7_8 C3_8 1_555 1_555
O5_8 C3_8 1_555 1_555
C8_8 C4_8 1_555 1_555
O6_8 C4_8 1_555 1_555
H3_6 C5_6 1_555 1_555
C9_6 C5_6 1_555 1_555
H4_8 C6_6 1_555 1_555
C10_8 C7_8 1_555 1_555
C11_8 C7_8 1_555 1_555
Zn3_2 O5_8 1_555 1_555
C12_8 C8_8 1_555 1_555
C13_8 C8_8 1_555 1_555
C14_8 C9_6 1_555 1_555
H5_8 C10_8 1_555 1_555
C15_8 C10_8 1_555 1_555
C16_8 C11_8 1_555 1_555
H6_8 C11_8 1_555 1_555
H7_8 C12_8 1_555 1_555
C17_8 C12_8 1_555 1_555
C18_8 C13_8 1_555 1_555
H8_8 C13_8 1_555 1_555
C19_8 C14_8 1_555 1_555
C20_8 C14_8 1_555 1_555
H9_8 C15_8 1_555 1_555
C21_8 C15_8 1_555 1_555
H10_8 C16_8 1_555 1_555
H11_8 C17_8 1_555 1_555
C22_8 C17_8 1_555 1_555
H12_8 C18_8 1_555 1_555
C23_8 C19_8 1_555 1_555
H13_6 C19_8 1_555 1_555
H14_8 C20_8 1_555 1_555
C24_8 C20_8 1_555 1_555
C25_8 C21_8 1_555 1_555
C26_8 C22_8 1_555 1_555
H15_8 C23_8 1_555 1_555
H16_8 C24_8 1_555 1_555
C29_6 C26_8 1_555 1_555
C30_6 C26_8 1_555 1_555
C33_6 C29_6 1_555 1_555
H18_6 C29_6 1_555 1_555
C34_8 C30_6 1_555 1_555
O10_6 C30_6 1_555 1_555
C37_8 C33_6 1_555 1_555
O12_6 C33_6 1_555 1_555
H20_8 C34_8 1_555 1_555
C38_8 O10_6 1_555 1_555
C42_8 C37_8 1_555 1_555
C43_6 O12_6 1_555 1_555
H23_8 C38_8 1_555 1_555
H24_8 C38_8 1_555 1_555
C44_8 C38_8 1_555 1_555
C49_8 C42_8 1_555 1_555
C50_8 C42_8 1_555 1_555
H29_6 C43_6 1_555 1_555
H30_6 C43_6 1_555 1_555
C51_6 C43_6 1_555 1_555
H31_8 C44_8 1_555 1_555
H32_8 C44_8 1_555 1_555
C52_8 C44_8 1_555 1_555
C57_8 C49_8 1_555 1_555
H39_8 C49_8 1_555 1_555
H40_6 C50_8 1_555 1_555
C58_8 C50_8 1_555 1_555
H41_6 C51_6 1_555 1_555
H42_6 C51_6 1_555 1_555
C59_6 C51_6 1_555 1_555
H43_8 C52_8 1_555 1_555
H44_8 C52_8 1_555 1_555
C60_8 C52_8 1_555 1_555
C63_8 C57_8 1_555 1_555
H52_8 C57_8 1_555 1_555
H53_8 C58_8 1_555 1_555
H54_6 C59_6 1_555 1_555
H55_6 C59_6 1_555 1_555
C64_6 C59_6 1_555 1_555
H56_8 C60_8 1_555 1_555
H57_6 C60_8 1_555 1_555
H58_8 C60_8 1_555 1_555
C66_8 C63_8 1_555 1_555
H62_6 C64_6 1_555 1_555
H63_6 C64_6 1_555 1_555
H64_6 C64_6 1_555 1_555
N2_3 C23_8 1_555 1_555
O4_4 C66_8 1_555 1_555
O8_4 C66_8 1_555 1_555
C6_6 C9_6 1_555 1_555
O6_8 Zn3_2 1_555 1_555
C16_8 C21_8 1_555 1_555
C18_8 C22_8 1_555 1_555
C24_8 N2_3 1_555 1_555
C34_8 C37_8 1_555 1_555
C58_8 C63_8 1_555 1_555
H19_8 C31_8 1_555 1_555
C35_8 C31_8 1_555 1_555
C39_8 C35_8 1_555 1_555
C45_8 C39_8 1_555 1_555
C46_8 C39_8 1_555 1_555
C53_8 C45_8 1_555 1_555
H34_8 C46_8 1_555 1_555
C54_8 C46_8 1_555 1_555
H45_8 C53_8 1_555 1_555
C61_8 C53_8 1_555 1_555
H46_8 C54_8 1_555 1_555
C65_8 C61_8 1_555 1_555
O3_4 C65_8 1_555 1_555
O7_4 C65_8 1_555 1_555
C54_8 C61_8 1_555 1_555
N1_7 C1_7 1_555 1_555
C1_7 H1_7 1_555 1_555
C2_7 N1_7 1_555 1_555
C5_7 C1_7 1_555 1_555
C6_7 C2_7 1_555 1_555
H2_7 C2_7 1_555 1_555
H3_7 C5_7 1_555 1_555
C9_7 C5_7 1_555 1_555
C6_7 C9_7 1_555 1_555
O10_7 C30_7 1_555 1_555
C33_7 C29_7 1_555 1_555
H18_7 C29_7 1_555 1_555
O12_7 C33_7 1_555 1_555
C43_7 O12_7 1_555 1_555
H29_7 C43_7 1_555 1_555
H30_7 C43_7 1_555 1_555
C51_7 C43_7 1_555 1_555
H41_7 C51_7 1_555 1_555
H42_7 C51_7 1_555 1_555
C59_7 C51_7 1_555 1_555
H54_7 C59_7 1_555 1_555
H55_7 C59_7 1_555 1_555
C64_7 C59_7 1_555 1_555
H62_7 C64_7 1_555 1_555
H63_7 C64_7 1_555 1_555
H64_7 C64_7 1_555 1_555
C32_7 C28_7 1_555 1_555
H17_7 C28_7 1_555 1_555
O11_7 C32_7 1_555 1_555
C41_7 O11_7 1_555 1_555
H27_7 C41_7 1_555 1_555
H28_6 C41_7 1_555 1_555
C48_7 C41_7 1_555 1_555
H37_6 C48_7 1_555 1_555
H38_6 C48_7 1_555 1_555
C56_7 C48_7 1_555 1_555
H50_7 C56_7 1_555 1_555
H51_7 C56_7 1_555 1_555
C62_7 C56_7 1_555 1_555
H59_7 C62_7 1_555 1_555
H60_7 C62_7 1_555 1_555
H61_7 C62_7 1_555 1_555
O9_7 C27_7 1_555 1_555
C36_7 O9_7 1_555 1_555
H21_7 C36_7 1_555 1_555
H22_7 C36_7 1_555 1_555
C40_7 C36_7 1_555 1_555
H25_7 C40_7 1_555 1_555
C47_7 C40_7 1_555 1_555
H35_7 C47_7 1_555 1_555
H36_7 C47_7 1_555 1_555
C55_7 C47_7 1_555 1_555
H47_7 C55_7 1_555 1_555
H48_7 C55_7 1_555 1_555
H49_7 C55_7 1_555 1_555
C33_8 C29_8 1_555 1_555
H18_8 C29_8 1_555 1_555
O12_8 C33_8 1_555 1_555
C43_8 O12_8 1_555 1_555
H29_8 C43_8 1_555 1_555
H30_8 C43_8 1_555 1_555
C51_8 C43_8 1_555 1_555
H41_8 C51_8 1_555 1_555
H42_8 C51_8 1_555 1_555
C59_8 C51_8 1_555 1_555
H54_8 C59_8 1_555 1_555
H55_8 C59_8 1_555 1_555
C64_8 C59_8 1_555 1_555
H62_8 C64_8 1_555 1_555
H63_8 C64_8 1_555 1_555
H64_8 C64_8 1_555 1_555
O10_8 C30_8 1_555 1_555
N1_8 C1_8 1_555 1_555
C1_8 H1_8 1_555 1_555
C2_8 N1_8 1_555 1_555
C5_8 C1_8 1_555 1_555
C6_8 C2_8 1_555 1_555
H2_8 C2_8 1_555 1_555
H3_8 C5_8 1_555 1_555
C9_8 C5_8 1_555 1_555
C6_8 C9_8 1_555 1_555
O9_8 C27_8 1_555 1_555
C36_8 O9_8 1_555 1_555
H21_8 C36_8 1_555 1_555
H22_8 C36_8 1_555 1_555
C40_8 C36_8 1_555 1_555
H25_8 C40_8 1_555 1_555
C47_8 C40_8 1_555 1_555
H35_8 C47_8 1_555 1_555
H36_8 C47_8 1_555 1_555
C55_8 C47_8 1_555 1_555
H47_8 C55_8 1_555 1_555
H48_8 C55_8 1_555 1_555
H49_8 C55_8 1_555 1_555
C32_8 C28_8 1_555 1_555
H17_8 C28_8 1_555 1_555
O11_8 C32_8 1_555 1_555
C41_8 O11_8 1_555 1_555
H27_8 C41_8 1_555 1_555
H28_8 C41_8 1_555 1_555
C48_8 C41_8 1_555 1_555
H37_8 C48_8 1_555 1_555
H38_8 C48_8 1_555 1_555
C56_8 C48_8 1_555 1_555
H50_8 C56_8 1_555 1_555
H51_8 C56_8 1_555 1_555
C62_8 C56_8 1_555 1_555
H59_8 C62_8 1_555 1_555
H60_8 C62_8 1_555 1_555
H61_8 C62_8 1_555 1_555

#END
