
###############################################################################
#
# This file contains modified crystal structure data generated from the
# MOF subset of the Cambridge Structural Database (CSD) v543 
# hosted by the Cambridge Crystallographic Data Centre (CCDC).
#
# This work is licensed under the Creative Commons
# Attribution-NonCommercial-ShareAlike 4.0 International License.
# To view a copy of this license, visit
# http://creativecommons.org/licenses/by-nc-sa/4.0/
# or send a letter to
# Creative Commons, PO Box 1866, Mountain View, CA 94042, USA.
#
# CIF created using the CSD Python API on 29 September 2022
# The structure has been converted into the P1 space group
# The structure has a 3D framework
# The original CSD entry HUZXAD is in the monoclinic crystal system
# The framework has been calculated to contain at least 10.0% void space
# The void calculation uses a probe of radius 1.32A, grid spacing 0.4
#
###############################################################################

data_HUZXAD
_chemical_formula_moiety         '(C432 H320 N12 O96 Zn16)n'
_symmetry_cell_setting           triclinic
_symmetry_space_group_name_H-M   'P 1'
_symmetry_Int_Tables_number      1
_space_group_name_Hall           'P 1'
loop_
_symmetry_equiv_pos_site_id
_symmetry_equiv_pos_as_xyz
1 x,y,z
_cell_length_a                   28.0682(7)
_cell_length_b                   27.1147(6)
_cell_length_c                   28.0603(5)
_cell_angle_alpha                90
_cell_angle_beta                 98.5580(10)
_cell_angle_gamma                90
_cell_volume                     21117.8
loop_
_atom_site_label
_atom_site_type_symbol
_atom_site_fract_x
_atom_site_fract_y
_atom_site_fract_z
C1 C 0.0465(2) 0.42039(19) 0.1364(2)
C2 C 0.0079(2) 0.38063(19) 0.13873(18)
H4 H 0.0162 0.3739 0.2123
C23 C 0.0425(2) 0.55533(19) 0.1348(2)
C24 C 0.0047(3) 0.5921(2) 0.1357(2)
H17 H 0.0154 0.6023 0.2073
C44 C 0.1334(3) 0.5309(3) 0.49532(19)
H30 H 0.1558 0.5500 0.5149
C45 C 0.1364(3) 0.5286(3) 0.4478(2)
H31 H 0.1609 0.5460 0.4363
C46 C 0.1057(2) 0.50229(17) 0.4163(2)
C47 C 0.0712(3) 0.4819(3) 0.4372(2)
H32 H 0.0472 0.4642 0.4180
C48 C 0.0688(2) 0.4857(2) 0.48681(18)
H33 H 0.0430 0.4716 0.4991
C49 C 0.1007(3) 0.4558(2) 0.2910(2)
H34 H 0.0927 0.4261 0.2752
C50 C 0.0980(4) 0.4593(3) 0.34012(19)
H35 H 0.0892 0.4315 0.3562
C51 C 0.10715(18) 0.49853(16) 0.36341(18)
C52 C 0.1222(3) 0.5364(3) 0.33905(18)
H36 H 0.1330 0.5659 0.3539
C53 C 0.1205(4) 0.5288(3) 0.2915(2)
H37 H 0.1255 0.5573 0.2746
N1 N 0.10110(14) 0.50798(14) 0.51491(13)
N2 N 0.11400(15) 0.49306(15) 0.26639(14)
O1 O 0.05305(14) 0.43641(12) 0.09746(12)
O2 O 0.06792(14) 0.43481(12) 0.17780(12)
O7 O 0.06386(14) 0.53973(13) 0.17411(12)
O8 O 0.05055(14) 0.54085(12) 0.09394(12)
Zn1 Zn 0.10206(2) 0.48991(2) 0.088166(15)
Zn2 Zn 0.11733(2) 0.48979(2) 0.194455(15)
N3 N 0.10110(14) 0.49202(14) 0.01491(13)
O13 O 0.15308(14) 0.54315(12) 0.10785(12)
O14 O 0.16634(14) 0.54469(12) 0.18807(13)
O15 O 0.16995(13) 0.44010(12) 0.18502(13)
O16 O 0.15593(14) 0.43912(13) 0.10451(13)
Zn5 Zn 0.10206(2) 0.51009(2) 0.588166(15)
C3 C 0.9833(2) 0.3618(2) 0.09686(18)
H1 H 0.9912 0.3718 0.0673
C4 C 0.9472(3) 0.3283(2) 0.0989(2)
H2 H 0.9292 0.3172 0.0704
C5 C 0.9369(3) 0.3105(2) 0.1431(2)
C6 C 0.9621(2) 0.3289(2) 0.1850(2)
H3 H 0.9546 0.3182 0.2145
C7 C 0.9983(2) 0.3628(2) 0.18385(18)
C8 C 0.8985(3) 0.2744(2) 0.1441(2)
C9 C 0.8934(3) 0.2352(3) 0.1135(3)
H5 H 0.9146 0.2322 0.0912
C10 C 0.8588(4) 0.2005(3) 0.1138(3)
C11 C 0.8242(3) 0.2024(3) 0.1429(2)
C12 C 0.8275(3) 0.2432(3) 0.1735(3)
H6 H 0.8042 0.2473 0.1936
C13 C 0.8636(3) 0.2776(3) 0.1754(3)
C14 C 0.7211(3) 0.1144(2) 0.1024(2)
H7 H 0.7023 0.1047 0.0738
C15 C 0.7575(3) 0.1479(2) 0.1017(2)
H8 H 0.7639 0.1598 0.0723
C16 C 0.7849(3) 0.1643(2) 0.1433(2)
C17 C 0.7756(3) 0.1438(2) 0.1861(2)
H9 H 0.7939 0.1538 0.2148
C18 C 0.7415(2) 0.1107(2) 0.1874(2)
H10 H 0.7366 0.0973 0.2169
C19 C 0.7127(2) 0.0954(2) 0.1453(2)
C20 C 0.6738(2) 0.05794(18) 0.14775(19)
C21 C 0.8898(6) 0.1579(4) 0.0422(5)
H11 H 0.8843 0.1277 0.0242
H12 H 0.9229 0.1595 0.0567
H13 H 0.8824 0.1854 0.0209
C22 C 0.8317(4) 0.3209(4) 0.2368(4)
H14 H 0.8362 0.3498 0.2566
H15 H 0.8350 0.2920 0.2569
H16 H 0.8001 0.3214 0.2182
C25 C 0.9963(2) 0.6123(2) 0.17899(19)
C26 C 0.9600(3) 0.6473(2) 0.1820(2)
H18 H 0.9537 0.6581 0.2118
C27 C 0.9333(3) 0.6661(2) 0.1393(3)
C28 C 0.9431(3) 0.6458(2) 0.0954(2)
H19 H 0.9251 0.6562 0.0666
C29 C 0.9786(3) 0.6113(2) 0.0942(2)
H20 H 0.9854 0.6004 0.0645
C30 C 0.8979(3) 0.7062(3) 0.1407(3)
C31 C 0.8921(5) 0.7410(5) 0.1124(3)
H21 H 0.9133 0.7437 0.0900
C32 C 0.8563(6) 0.7767(5) 0.1114(4)
C33 C 0.8278(3) 0.7822(3) 0.1419(2)
C34 C 0.8314(5) 0.7460(5) 0.1722(4)
H22 H 0.8107 0.7465 0.1952
C35 C 0.8642(4) 0.7049(4) 0.1741(3)
C36 C 0.7444(3) 0.8725(2) 0.1857(2)
H23 H 0.7380 0.8848 0.2150
C37 C 0.7802(3) 0.8388(2) 0.1847(2)
H24 H 0.7984 0.8293 0.2137
C38 C 0.7905(3) 0.8179(2) 0.1424(2)
C39 C 0.7659(3) 0.8357(2) 0.1012(2)
H25 H 0.7740 0.8252 0.0718
C40 C 0.7291(3) 0.8691(2) 0.1014(2)
H26 H 0.7113 0.8789 0.0723
C41 C 0.7180(2) 0.8882(2) 0.1436(2)
C42 C 0.6774(2) 0.9247(2) 0.1437(2)
C43 C 0.8306(7) 0.6679(6) 0.2424(6)
H27 H 0.8330 0.6395 0.2630
H28 H 0.7984 0.6705 0.2254
H29 H 0.8382 0.6970 0.2615
O3 O 0.65308(14) 0.04315(12) 0.10785(12)
O4 O 0.66634(14) 0.04469(12) 0.18807(13)
O5 O 0.8567(3) 0.1593(3) 0.0825(3)
O6 O 0.8670(3) 0.3198(2) 0.2053(2)
O9 O 0.66995(13) 0.94010(12) 0.18502(13)
O10 O 0.65593(14) 0.93912(13) 0.10451(13)
O11 O 0.8684(4) 0.8249(3) 0.0799(4)
O12 O 0.8632(4) 0.6632(3) 0.2091(3)
C54 C 0.8755(11) 0.8081(10) 0.0184(10)
H39 H 0.8513 0.7844 0.0062
H40 H 0.9069 0.7940 0.0182
Zn4 Zn 0.60206(2) 0.98991(2) 0.088166(15)
Zn7 Zn 0.61733(2) 0.98979(2) 0.194455(15)
C23_2 C 0.5425(2) 0.05533(19) 0.1348(2)
C24_2 C 0.5047(3) 0.0921(2) 0.1357(2)
C25_2 C 0.4963(2) 0.1123(2) 0.17899(19)
H17_2 H 0.5154 0.1023 0.2073
C26_2 C 0.4600(3) 0.1473(2) 0.1820(2)
H18_2 H 0.4537 0.1581 0.2118
C27_2 C 0.4333(3) 0.1661(2) 0.1393(3)
C28_2 C 0.4431(3) 0.1458(2) 0.0954(2)
H19_2 H 0.4251 0.1562 0.0666
C29_2 C 0.4786(3) 0.1113(2) 0.0942(2)
H20_2 H 0.4854 0.1004 0.0645
C30_2 C 0.3979(3) 0.2062(3) 0.1407(3)
C31_2 C 0.3921(5) 0.2410(5) 0.1124(3)
H21_2 H 0.4133 0.2437 0.0900
C32_2 C 0.3563(6) 0.2767(5) 0.1114(4)
C33_2 C 0.3278(3) 0.2822(3) 0.1419(2)
C34_2 C 0.3314(5) 0.2460(5) 0.1722(4)
H22_2 H 0.3107 0.2465 0.1952
C35_2 C 0.3642(4) 0.2049(4) 0.1741(3)
C36_2 C 0.2444(3) 0.3725(2) 0.1857(2)
H23_2 H 0.2380 0.3848 0.2150
C37_2 C 0.2802(3) 0.3388(2) 0.1847(2)
H24_2 H 0.2984 0.3293 0.2137
C38_2 C 0.2905(3) 0.3179(2) 0.1424(2)
C39_2 C 0.2659(3) 0.3357(2) 0.1012(2)
H25_2 H 0.2740 0.3252 0.0718
C40_2 C 0.2291(3) 0.3691(2) 0.1014(2)
H26_2 H 0.2113 0.3789 0.0723
C41_2 C 0.2180(2) 0.3882(2) 0.1436(2)
C42_2 C 0.1774(2) 0.4247(2) 0.1437(2)
C43_2 C 0.3306(7) 0.1679(6) 0.2424(6)
H27_2 H 0.3330 0.1395 0.2630
H28_2 H 0.2984 0.1705 0.2254
H29_2 H 0.3382 0.1970 0.2615
C44_2 C 0.6334(3) 0.0309(3) 0.49532(19)
H30_2 H 0.6558 0.0500 0.5149
C45_2 C 0.6364(3) 0.0286(3) 0.4478(2)
H31_2 H 0.6609 0.0460 0.4363
C46_2 C 0.6057(2) 0.00229(17) 0.4163(2)
C52_2 C 0.6222(3) 0.0364(3) 0.33905(18)
H36_2 H 0.6330 0.0659 0.3539
C53_2 C 0.6205(4) 0.0288(3) 0.2915(2)
H37_2 H 0.6255 0.0573 0.2746
N1_2 N 0.60110(14) 0.00798(14) 0.51491(13)
O7_2 O 0.56386(14) 0.03973(13) 0.17411(12)
O8_2 O 0.55055(14) 0.04085(12) 0.09394(12)
O11_2 O 0.3684(4) 0.3249(3) 0.0799(4)
O12_2 O 0.3632(4) 0.1632(3) 0.2091(3)
C54_2 C 0.3755(11) 0.3081(10) 0.0184(10)
H39_2 H 0.3513 0.2844 0.0062
H40_2 H 0.4069 0.2940 0.0182
Zn5_2 Zn 0.60206(2) 0.01009(2) 0.588166(15)
C1_2 C 0.5465(2) 0.92039(19) 0.1364(2)
C2_2 C 0.5079(2) 0.88063(19) 0.13873(18)
C3_2 C 0.4833(2) 0.8618(2) 0.09686(18)
H1_2 H 0.4912 0.8718 0.0673
C4_2 C 0.4472(3) 0.8283(2) 0.0989(2)
H2_2 H 0.4292 0.8172 0.0704
C5_2 C 0.4369(3) 0.8105(2) 0.1431(2)
C6_2 C 0.4621(2) 0.8289(2) 0.1850(2)
H3_2 H 0.4546 0.8182 0.2145
C7_2 C 0.4983(2) 0.8628(2) 0.18385(18)
H4_2 H 0.5162 0.8739 0.2123
C8_2 C 0.3985(3) 0.7744(2) 0.1441(2)
C9_2 C 0.3934(3) 0.7352(3) 0.1135(3)
H5_2 H 0.4146 0.7322 0.0912
C10_2 C 0.3588(4) 0.7005(3) 0.1138(3)
C11_2 C 0.3242(3) 0.7024(3) 0.1429(2)
C12_2 C 0.3275(3) 0.7432(3) 0.1735(3)
H6_2 H 0.3042 0.7473 0.1936
C13_2 C 0.3636(3) 0.7776(3) 0.1754(3)
C14_2 C 0.2211(3) 0.6144(2) 0.1024(2)
H7_2 H 0.2023 0.6047 0.0738
C15_2 C 0.2575(3) 0.6479(2) 0.1017(2)
H8_2 H 0.2639 0.6598 0.0723
C16_2 C 0.2849(3) 0.6643(2) 0.1433(2)
C17_2 C 0.2756(3) 0.6438(2) 0.1861(2)
H9_2 H 0.2939 0.6538 0.2148
C18_2 C 0.2415(2) 0.6107(2) 0.1874(2)
H10_2 H 0.2366 0.5973 0.2169
C19_2 C 0.2127(2) 0.5954(2) 0.1453(2)
C20_2 C 0.1738(2) 0.55794(18) 0.14775(19)
C21_2 C 0.3898(6) 0.6579(4) 0.0422(5)
H11_2 H 0.3843 0.6277 0.0242
H12_2 H 0.4229 0.6595 0.0567
H13_2 H 0.3824 0.6854 0.0209
C22_2 C 0.3317(4) 0.8209(4) 0.2368(4)
H14_2 H 0.3362 0.8498 0.2566
H15_2 H 0.3350 0.7920 0.2569
H16_2 H 0.3001 0.8214 0.2182
C47_2 C 0.5712(3) 0.9819(3) 0.4372(2)
H32_2 H 0.5472 0.9642 0.4180
C48_2 C 0.5688(2) 0.9857(2) 0.48681(18)
H33_2 H 0.5430 0.9716 0.4991
C49_2 C 0.6007(3) 0.9558(2) 0.2910(2)
H34_2 H 0.5927 0.9261 0.2752
C50_2 C 0.5980(4) 0.9593(3) 0.34012(19)
H35_2 H 0.5892 0.9315 0.3562
C51_2 C 0.60715(18) 0.99853(16) 0.36341(18)
N2_2 N 0.61400(15) 0.99306(15) 0.26639(14)
O1_2 O 0.55305(14) 0.93641(12) 0.09746(12)
O2_2 O 0.56792(14) 0.93481(12) 0.17780(12)
O5_2 O 0.3567(3) 0.6593(3) 0.0825(3)
O6_2 O 0.3670(3) 0.8198(2) 0.2053(2)
N3_2 N 0.60110(14) 0.99202(14) 0.01491(13)
H30_3 H 0.1558 0.4500 0.0149
C1_3 C 0.0465(2) 0.57961(19) 0.6364(2)
C2_3 C 0.0079(2) 0.61937(19) 0.63873(18)
H4_3 H 0.0162 0.6261 0.7123
C23_3 C 0.0425(2) 0.44467(19) 0.6348(2)
C24_3 C 0.0047(3) 0.4079(2) 0.6357(2)
H17_3 H 0.0154 0.3977 0.7073
C44_3 C 0.1334(3) 0.4691(3) 0.99532(19)
C45_3 C 0.1364(3) 0.4714(3) 0.9478(2)
H31_3 H 0.1609 0.4540 0.9363
C46_3 C 0.1057(2) 0.49771(17) 0.9163(2)
C47_3 C 0.0712(3) 0.5181(3) 0.9372(2)
H32_3 H 0.0472 0.5358 0.9180
C48_3 C 0.0688(2) 0.5143(2) 0.98681(18)
H33_3 H 0.0430 0.5284 0.9991
C49_3 C 0.1007(3) 0.5442(2) 0.7910(2)
H34_3 H 0.0927 0.5739 0.7752
C50_3 C 0.0980(4) 0.5407(3) 0.84012(19)
H35_3 H 0.0892 0.5685 0.8562
C51_3 C 0.10715(18) 0.50147(16) 0.86341(18)
C52_3 C 0.1222(3) 0.4636(3) 0.83905(18)
H36_3 H 0.1330 0.4341 0.8539
C53_3 C 0.1205(4) 0.4712(3) 0.7915(2)
H37_3 H 0.1255 0.4427 0.7746
N2_3 N 0.11400(15) 0.50694(15) 0.76639(14)
O1_3 O 0.05305(14) 0.56359(12) 0.59746(12)
O2_3 O 0.06792(14) 0.56519(12) 0.67780(12)
O7_3 O 0.06386(14) 0.46027(13) 0.67411(12)
O8_3 O 0.05055(14) 0.45915(12) 0.59394(12)
Zn2_2 Zn 0.11733(2) 0.51021(2) 0.694455(15)
O13_2 O 0.15308(14) 0.45685(12) 0.60785(12)
O14_2 O 0.16634(14) 0.45531(12) 0.68807(13)
O15_2 O 0.16995(13) 0.55990(12) 0.68502(13)
O16_2 O 0.15593(14) 0.56088(13) 0.60451(13)
Zn6 Zn 0.61733(2) 0.01021(2) 0.694455(15)
C3_3 C 0.9833(2) 0.6382(2) 0.59686(18)
H1_3 H 0.9912 0.6282 0.5673
C4_3 C 0.9472(3) 0.6717(2) 0.5989(2)
H2_3 H 0.9292 0.6828 0.5704
C5_3 C 0.9369(3) 0.6895(2) 0.6431(2)
C6_3 C 0.9621(2) 0.6711(2) 0.6850(2)
H3_3 H 0.9546 0.6818 0.7145
C7_3 C 0.9983(2) 0.6372(2) 0.68385(18)
C8_3 C 0.8985(3) 0.7256(2) 0.6441(2)
C9_3 C 0.8934(3) 0.7648(3) 0.6135(3)
H5_3 H 0.9146 0.7678 0.5912
C10_3 C 0.8588(4) 0.7995(3) 0.6138(3)
C11_3 C 0.8242(3) 0.7976(3) 0.6429(2)
C12_3 C 0.8275(3) 0.7568(3) 0.6735(3)
H6_3 H 0.8042 0.7527 0.6936
C13_3 C 0.8636(3) 0.7224(3) 0.6754(3)
C14_3 C 0.7211(3) 0.8856(2) 0.6024(2)
H7_3 H 0.7023 0.8953 0.5738
C15_3 C 0.7575(3) 0.8521(2) 0.6017(2)
H8_3 H 0.7639 0.8402 0.5723
C16_3 C 0.7849(3) 0.8357(2) 0.6433(2)
C17_3 C 0.7756(3) 0.8562(2) 0.6861(2)
H9_3 H 0.7939 0.8462 0.7148
C18_3 C 0.7415(2) 0.8893(2) 0.6874(2)
H10_3 H 0.7366 0.9027 0.7169
C19_3 C 0.7127(2) 0.9046(2) 0.6453(2)
C20_3 C 0.6738(2) 0.94206(18) 0.64775(19)
C21_3 C 0.8898(6) 0.8421(4) 0.5422(5)
H11_3 H 0.8843 0.8723 0.5242
H12_3 H 0.9229 0.8405 0.5567
H13_3 H 0.8824 0.8146 0.5209
C22_3 C 0.8317(4) 0.6791(4) 0.7368(4)
H14_3 H 0.8362 0.6502 0.7566
H15_3 H 0.8350 0.7080 0.7569
H16_3 H 0.8001 0.6786 0.7182
C25_3 C 0.9963(2) 0.3877(2) 0.67899(19)
C26_3 C 0.9600(3) 0.3527(2) 0.6820(2)
H18_3 H 0.9537 0.3419 0.7118
C27_3 C 0.9333(3) 0.3339(2) 0.6393(3)
C28_3 C 0.9431(3) 0.3542(2) 0.5954(2)
H19_3 H 0.9251 0.3438 0.5666
C29_3 C 0.9786(3) 0.3887(2) 0.5942(2)
H20_3 H 0.9854 0.3996 0.5645
C30_3 C 0.8979(3) 0.2938(3) 0.6407(3)
C31_3 C 0.8921(5) 0.2590(5) 0.6124(3)
H21_3 H 0.9133 0.2563 0.5900
C32_3 C 0.8563(6) 0.2233(5) 0.6114(4)
C33_3 C 0.8278(3) 0.2178(3) 0.6419(2)
C34_3 C 0.8314(5) 0.2540(5) 0.6722(4)
H22_3 H 0.8107 0.2535 0.6952
C35_3 C 0.8642(4) 0.2951(4) 0.6741(3)
C36_3 C 0.7444(3) 0.1275(2) 0.6857(2)
H23_3 H 0.7380 0.1152 0.7150
C37_3 C 0.7802(3) 0.1612(2) 0.6847(2)
H24_3 H 0.7984 0.1707 0.7137
C38_3 C 0.7905(3) 0.1821(2) 0.6424(2)
C39_3 C 0.7659(3) 0.1643(2) 0.6012(2)
H25_3 H 0.7740 0.1748 0.5718
C40_3 C 0.7291(3) 0.1309(2) 0.6014(2)
H26_3 H 0.7113 0.1211 0.5723
C41_3 C 0.7180(2) 0.1118(2) 0.6436(2)
C42_3 C 0.6774(2) 0.0753(2) 0.6437(2)
C43_3 C 0.8306(7) 0.3321(6) 0.7424(6)
H27_3 H 0.8330 0.3605 0.7630
H28_3 H 0.7984 0.3295 0.7254
H29_3 H 0.8382 0.3030 0.7615
O3_2 O 0.65308(14) 0.95685(12) 0.60785(12)
O4_2 O 0.66634(14) 0.95531(12) 0.68807(13)
O5_3 O 0.8567(3) 0.8407(3) 0.5825(3)
O6_3 O 0.8670(3) 0.6802(2) 0.7053(2)
O9_2 O 0.66995(13) 0.05990(12) 0.68502(13)
O10_2 O 0.65593(14) 0.06088(13) 0.60451(13)
O11_3 O 0.8684(4) 0.1751(3) 0.5799(4)
O12_3 O 0.8632(4) 0.3368(3) 0.7091(3)
C54_3 C 0.8755(11) 0.1919(10) 0.5184(10)
H38 H 0.8721 0.1630 0.4984
H39_3 H 0.8513 0.2156 0.5062
H40_3 H 0.9069 0.2060 0.5182
C1_4 C 0.5465(2) 0.07961(19) 0.6364(2)
C2_4 C 0.5079(2) 0.11937(19) 0.63873(18)
C3_4 C 0.4833(2) 0.1382(2) 0.59686(18)
H1_4 H 0.4912 0.1282 0.5673
C4_4 C 0.4472(3) 0.1717(2) 0.5989(2)
H2_4 H 0.4292 0.1828 0.5704
C5_4 C 0.4369(3) 0.1895(2) 0.6431(2)
C6_4 C 0.4621(2) 0.1711(2) 0.6850(2)
H3_4 H 0.4546 0.1818 0.7145
C7_4 C 0.4983(2) 0.1372(2) 0.68385(18)
H4_4 H 0.5162 0.1261 0.7123
C8_4 C 0.3985(3) 0.2256(2) 0.6441(2)
C9_4 C 0.3934(3) 0.2648(3) 0.6135(3)
H5_4 H 0.4146 0.2678 0.5912
C10_4 C 0.3588(4) 0.2995(3) 0.6138(3)
C11_4 C 0.3242(3) 0.2976(3) 0.6429(2)
C12_4 C 0.3275(3) 0.2568(3) 0.6735(3)
H6_4 H 0.3042 0.2527 0.6936
C13_4 C 0.3636(3) 0.2224(3) 0.6754(3)
C14_4 C 0.2211(3) 0.3856(2) 0.6024(2)
H7_4 H 0.2023 0.3953 0.5738
C15_4 C 0.2575(3) 0.3521(2) 0.6017(2)
H8_4 H 0.2639 0.3402 0.5723
C16_4 C 0.2849(3) 0.3357(2) 0.6433(2)
C17_4 C 0.2756(3) 0.3562(2) 0.6861(2)
H9_4 H 0.2939 0.3462 0.7148
C18_4 C 0.2415(2) 0.3893(2) 0.6874(2)
H10_4 H 0.2366 0.4027 0.7169
C19_4 C 0.2127(2) 0.4046(2) 0.6453(2)
C20_4 C 0.1738(2) 0.44206(18) 0.64775(19)
C21_4 C 0.3898(6) 0.3421(4) 0.5422(5)
H11_4 H 0.3843 0.3723 0.5242
H12_4 H 0.4229 0.3405 0.5567
H13_4 H 0.3824 0.3146 0.5209
C22_4 C 0.3317(4) 0.1791(4) 0.7368(4)
H14_4 H 0.3362 0.1502 0.7566
H15_4 H 0.3350 0.2080 0.7569
H16_4 H 0.3001 0.1786 0.7182
C47_4 C 0.5712(3) 0.0181(3) 0.9372(2)
H32_4 H 0.5472 0.0358 0.9180
C48_4 C 0.5688(2) 0.0143(2) 0.98681(18)
H33_4 H 0.5430 0.0284 0.9991
C49_4 C 0.6007(3) 0.0442(2) 0.7910(2)
H34_4 H 0.5927 0.0739 0.7752
C50_4 C 0.5980(4) 0.0407(3) 0.84012(19)
H35_4 H 0.5892 0.0685 0.8562
C51_4 C 0.60715(18) 0.00147(16) 0.86341(18)
N2_4 N 0.61400(15) 0.00694(15) 0.76639(14)
O1_4 O 0.55305(14) 0.06359(12) 0.59746(12)
O2_4 O 0.56792(14) 0.06519(12) 0.67780(12)
O5_4 O 0.3567(3) 0.3407(3) 0.5825(3)
O6_4 O 0.3670(3) 0.1802(2) 0.7053(2)
H30_4 H 0.6558 0.9500 0.0149
C23_4 C 0.5425(2) 0.94467(19) 0.6348(2)
C24_4 C 0.5047(3) 0.9079(2) 0.6357(2)
C25_4 C 0.4963(2) 0.8877(2) 0.67899(19)
H17_4 H 0.5154 0.8977 0.7073
C26_4 C 0.4600(3) 0.8527(2) 0.6820(2)
H18_4 H 0.4537 0.8419 0.7118
C27_4 C 0.4333(3) 0.8339(2) 0.6393(3)
C28_4 C 0.4431(3) 0.8542(2) 0.5954(2)
H19_4 H 0.4251 0.8438 0.5666
C29_4 C 0.4786(3) 0.8887(2) 0.5942(2)
H20_4 H 0.4854 0.8996 0.5645
C30_4 C 0.3979(3) 0.7938(3) 0.6407(3)
C31_4 C 0.3921(5) 0.7590(5) 0.6124(3)
H21_4 H 0.4133 0.7563 0.5900
C32_4 C 0.3563(6) 0.7233(5) 0.6114(4)
C33_4 C 0.3278(3) 0.7178(3) 0.6419(2)
C34_4 C 0.3314(5) 0.7540(5) 0.6722(4)
H22_4 H 0.3107 0.7535 0.6952
C35_4 C 0.3642(4) 0.7951(4) 0.6741(3)
C36_4 C 0.2444(3) 0.6275(2) 0.6857(2)
H23_4 H 0.2380 0.6152 0.7150
C37_4 C 0.2802(3) 0.6612(2) 0.6847(2)
H24_4 H 0.2984 0.6707 0.7137
C38_4 C 0.2905(3) 0.6821(2) 0.6424(2)
C39_4 C 0.2659(3) 0.6643(2) 0.6012(2)
H25_4 H 0.2740 0.6748 0.5718
C40_4 C 0.2291(3) 0.6309(2) 0.6014(2)
H26_4 H 0.2113 0.6211 0.5723
C41_4 C 0.2180(2) 0.6118(2) 0.6436(2)
C42_4 C 0.1774(2) 0.5753(2) 0.6437(2)
C43_4 C 0.3306(7) 0.8321(6) 0.7424(6)
H27_4 H 0.3330 0.8605 0.7630
H28_4 H 0.2984 0.8295 0.7254
H29_4 H 0.3382 0.8030 0.7615
C44_4 C 0.6334(3) 0.9691(3) 0.99532(19)
C45_4 C 0.6364(3) 0.9714(3) 0.9478(2)
H31_4 H 0.6609 0.9540 0.9363
C46_4 C 0.6057(2) 0.99771(17) 0.9163(2)
C52_4 C 0.6222(3) 0.9636(3) 0.83905(18)
H36_4 H 0.6330 0.9341 0.8539
C53_4 C 0.6205(4) 0.9712(3) 0.7915(2)
H37_4 H 0.6255 0.9427 0.7746
O7_4 O 0.56386(14) 0.96027(13) 0.67411(12)
O8_4 O 0.55055(14) 0.95915(12) 0.59394(12)
O11_4 O 0.3684(4) 0.6751(3) 0.5799(4)
O12_4 O 0.3632(4) 0.8368(3) 0.7091(3)
C54_4 C 0.3755(11) 0.6919(10) 0.5184(10)
H38_2 H 0.3721 0.6630 0.4984
H39_4 H 0.3513 0.7156 0.5062
H40_4 H 0.4069 0.7060 0.5182
H38_3 H 0.8721 0.8370 0.9984
C3_5 C 0.0167(2) 0.3618(2) 0.40314(18)
H1_5 H 0.0088 0.3718 0.4327
C4_5 C 0.0528(3) 0.3283(2) 0.4011(2)
H2_5 H 0.0708 0.3172 0.4296
C5_5 C 0.0631(3) 0.3105(2) 0.3569(2)
C6_5 C 0.0379(2) 0.3289(2) 0.3150(2)
H3_5 H 0.0454 0.3182 0.2855
C7_5 C 0.0017(2) 0.3628(2) 0.31615(18)
C8_5 C 0.1015(3) 0.2744(2) 0.3559(2)
C9_5 C 0.1066(3) 0.2352(3) 0.3865(3)
H5_5 H 0.0854 0.2322 0.4088
C10_5 C 0.1412(4) 0.2005(3) 0.3862(3)
C11_5 C 0.1758(3) 0.2024(3) 0.3571(2)
C12_5 C 0.1725(3) 0.2432(3) 0.3265(3)
H6_5 H 0.1958 0.2473 0.3064
C13_5 C 0.1364(3) 0.2776(3) 0.3246(3)
C14_5 C 0.2789(3) 0.1144(2) 0.3976(2)
H7_5 H 0.2977 0.1047 0.4262
C15_5 C 0.2425(3) 0.1479(2) 0.3983(2)
H8_5 H 0.2361 0.1598 0.4277
C16_5 C 0.2151(3) 0.1643(2) 0.3567(2)
C17_5 C 0.2244(3) 0.1438(2) 0.3139(2)
H9_5 H 0.2061 0.1538 0.2852
C18_5 C 0.2585(2) 0.1107(2) 0.3126(2)
H10_5 H 0.2634 0.0973 0.2831
C19_5 C 0.2873(2) 0.0954(2) 0.3547(2)
C20_5 C 0.3262(2) 0.05794(18) 0.35225(19)
C21_5 C 0.1102(6) 0.1579(4) 0.4578(5)
H11_5 H 0.1157 0.1277 0.4758
H12_5 H 0.0771 0.1595 0.4433
H13_5 H 0.1176 0.1854 0.4791
C22_5 C 0.1683(4) 0.3209(4) 0.2632(4)
H14_5 H 0.1638 0.3498 0.2434
H15_5 H 0.1650 0.2920 0.2431
H16_5 H 0.1999 0.3214 0.2818
C25_5 C 0.0037(2) 0.6123(2) 0.32101(19)
C26_5 C 0.0400(3) 0.6473(2) 0.3180(2)
H18_5 H 0.0463 0.6581 0.2882
C27_5 C 0.0667(3) 0.6661(2) 0.3607(3)
C28_5 C 0.0569(3) 0.6458(2) 0.4046(2)
H19_5 H 0.0749 0.6562 0.4334
C29_5 C 0.0214(3) 0.6113(2) 0.4058(2)
H20_5 H 0.0146 0.6004 0.4355
C30_5 C 0.1021(3) 0.7062(3) 0.3593(3)
C31_5 C 0.1079(5) 0.7410(5) 0.3876(3)
H21_5 H 0.0867 0.7437 0.4100
C32_5 C 0.1437(6) 0.7767(5) 0.3886(4)
C33_5 C 0.1722(3) 0.7822(3) 0.3581(2)
C34_5 C 0.1686(5) 0.7460(5) 0.3278(4)
H22_5 H 0.1893 0.7465 0.3048
C35_5 C 0.1358(4) 0.7049(4) 0.3259(3)
C36_5 C 0.2556(3) 0.8725(2) 0.3143(2)
H23_5 H 0.2620 0.8848 0.2850
C37_5 C 0.2198(3) 0.8388(2) 0.3153(2)
H24_5 H 0.2016 0.8293 0.2863
C38_5 C 0.2095(3) 0.8179(2) 0.3576(2)
C39_5 C 0.2341(3) 0.8357(2) 0.3988(2)
H25_5 H 0.2260 0.8252 0.4282
C40_5 C 0.2709(3) 0.8691(2) 0.3986(2)
H26_5 H 0.2887 0.8789 0.4277
C41_5 C 0.2820(2) 0.8882(2) 0.3564(2)
C42_5 C 0.3226(2) 0.9247(2) 0.3563(2)
C43_5 C 0.1694(7) 0.6679(6) 0.2576(6)
H27_5 H 0.1670 0.6395 0.2370
H28_5 H 0.2016 0.6705 0.2746
H29_5 H 0.1618 0.6970 0.2385
O3_3 O 0.34692(14) 0.04315(12) 0.39215(12)
O4_3 O 0.33366(14) 0.04469(12) 0.31193(13)
O5_5 O 0.1433(3) 0.1593(3) 0.4175(3)
O6_5 O 0.1330(3) 0.3198(2) 0.2947(2)
O9_3 O 0.33005(13) 0.94010(12) 0.31498(13)
O10_3 O 0.34407(14) 0.93912(13) 0.39549(13)
O11_5 O 0.1316(4) 0.8249(3) 0.4201(4)
O12_5 O 0.1368(4) 0.6632(3) 0.2909(3)
C54_5 C 0.1245(11) 0.8081(10) 0.4816(10)
H38_4 H 0.1279 0.8370 0.5016
H39_5 H 0.1487 0.7844 0.4938
H40_5 H 0.0931 0.7940 0.4818
Zn4_2 Zn 0.39794(2) 0.98991(2) 0.411834(15)
Zn7_2 Zn 0.38267(2) 0.98979(2) 0.305545(15)
C1_5 C 0.9535(2) 0.42039(19) 0.3636(2)
C2_5 C 0.9921(2) 0.38063(19) 0.36127(18)
H4_5 H 0.9838 0.3739 0.2877
C23_5 C 0.9575(2) 0.55533(19) 0.3652(2)
C24_5 C 0.9953(3) 0.5921(2) 0.3643(2)
H17_5 H 0.9846 0.6023 0.2927
C44_5 C 0.8666(3) 0.5309(3) 0.00468(19)
C45_5 C 0.8636(3) 0.5286(3) 0.0522(2)
H31_5 H 0.8391 0.5460 0.0637
C46_5 C 0.8943(2) 0.50229(17) 0.0837(2)
C47_5 C 0.9288(3) 0.4819(3) 0.0628(2)
H32_5 H 0.9528 0.4642 0.0820
C48_5 C 0.9312(2) 0.4857(2) 0.01319(18)
H33_5 H 0.9570 0.4716 0.0009
C49_5 C 0.8993(3) 0.4558(2) 0.2090(2)
H34_5 H 0.9073 0.4261 0.2248
C50_5 C 0.9020(4) 0.4593(3) 0.15988(19)
H35_5 H 0.9108 0.4315 0.1438
C51_5 C 0.89285(18) 0.49853(16) 0.13659(18)
C52_5 C 0.8778(3) 0.5364(3) 0.16095(18)
H36_5 H 0.8670 0.5659 0.1461
C53_5 C 0.8795(4) 0.5288(3) 0.2085(2)
H37_5 H 0.8745 0.5573 0.2254
N2_5 N 0.88600(15) 0.49306(15) 0.23361(14)
O1_5 O 0.94695(14) 0.43641(12) 0.40254(12)
O2_5 O 0.93208(14) 0.43481(12) 0.32220(12)
O7_5 O 0.93614(14) 0.53973(13) 0.32589(12)
O8_5 O 0.94945(14) 0.54085(12) 0.40606(12)
Zn1_2 Zn 0.89794(2) 0.48991(2) 0.411834(15)
Zn2_3 Zn 0.88267(2) 0.48979(2) 0.305545(15)
N3_3 N 0.89890(14) 0.49202(14) 0.48509(13)
O13_3 O 0.84692(14) 0.54315(12) 0.39215(12)
O14_3 O 0.83366(14) 0.54469(12) 0.31193(13)
O15_3 O 0.83005(13) 0.44010(12) 0.31498(13)
O16_3 O 0.84407(14) 0.43912(13) 0.39549(13)
H30_5 H 0.8442 0.5500 0.9851
N1_3 N 0.89890(14) 0.50798(14) 0.98509(13)
Zn5_3 Zn 0.89794(2) 0.51009(2) 0.911834(15)
C23_6 C 0.4575(2) 0.05533(19) 0.3652(2)
C24_6 C 0.4953(3) 0.0921(2) 0.3643(2)
C25_6 C 0.5037(2) 0.1123(2) 0.32101(19)
H17_6 H 0.4846 0.1023 0.2927
C26_6 C 0.5400(3) 0.1473(2) 0.3180(2)
H18_6 H 0.5463 0.1581 0.2882
C27_6 C 0.5667(3) 0.1661(2) 0.3607(3)
C28_6 C 0.5569(3) 0.1458(2) 0.4046(2)
H19_6 H 0.5749 0.1562 0.4334
C29_6 C 0.5214(3) 0.1113(2) 0.4058(2)
H20_6 H 0.5146 0.1004 0.4355
C30_6 C 0.6021(3) 0.2062(3) 0.3593(3)
C31_6 C 0.6079(5) 0.2410(5) 0.3876(3)
H21_6 H 0.5867 0.2437 0.4100
C32_6 C 0.6437(6) 0.2767(5) 0.3886(4)
C33_6 C 0.6722(3) 0.2822(3) 0.3581(2)
C34_6 C 0.6686(5) 0.2460(5) 0.3278(4)
H22_6 H 0.6893 0.2465 0.3048
C35_6 C 0.6358(4) 0.2049(4) 0.3259(3)
C36_6 C 0.7556(3) 0.3725(2) 0.3143(2)
H23_6 H 0.7620 0.3848 0.2850
C37_6 C 0.7198(3) 0.3388(2) 0.3153(2)
H24_6 H 0.7016 0.3293 0.2863
C38_6 C 0.7095(3) 0.3179(2) 0.3576(2)
C39_6 C 0.7341(3) 0.3357(2) 0.3988(2)
H25_6 H 0.7260 0.3252 0.4282
C40_6 C 0.7709(3) 0.3691(2) 0.3986(2)
H26_6 H 0.7887 0.3789 0.4277
C41_6 C 0.7820(2) 0.3882(2) 0.3564(2)
C42_6 C 0.8226(2) 0.4247(2) 0.3563(2)
C43_6 C 0.6694(7) 0.1679(6) 0.2576(6)
H27_6 H 0.6670 0.1395 0.2370
H28_6 H 0.7016 0.1705 0.2746
H29_6 H 0.6618 0.1970 0.2385
C44_6 C 0.3666(3) 0.0309(3) 0.00468(19)
C45_6 C 0.3636(3) 0.0286(3) 0.0522(2)
H31_6 H 0.3391 0.0460 0.0637
C46_6 C 0.3943(2) 0.00229(17) 0.0837(2)
C52_6 C 0.3778(3) 0.0364(3) 0.16095(18)
H36_6 H 0.3670 0.0659 0.1461
C53_6 C 0.3795(4) 0.0288(3) 0.2085(2)
H37_6 H 0.3745 0.0573 0.2254
O7_6 O 0.43614(14) 0.03973(13) 0.32589(12)
O8_6 O 0.44945(14) 0.04085(12) 0.40606(12)
O11_6 O 0.6316(4) 0.3249(3) 0.4201(4)
O12_6 O 0.6368(4) 0.1632(3) 0.2909(3)
C54_6 C 0.6245(11) 0.3081(10) 0.4816(10)
H38_5 H 0.6279 0.3370 0.5016
H39_6 H 0.6487 0.2844 0.4938
H40_6 H 0.5931 0.2940 0.4818
H30_6 H 0.3442 0.0500 0.9851
N1_4 N 0.39890(14) 0.00798(14) 0.98509(13)
Zn5_4 Zn 0.39794(2) 0.01009(2) 0.911834(15)
C1_6 C 0.4535(2) 0.92039(19) 0.3636(2)
C2_6 C 0.4921(2) 0.88063(19) 0.36127(18)
C3_6 C 0.5167(2) 0.8618(2) 0.40314(18)
H1_6 H 0.5088 0.8718 0.4327
C4_6 C 0.5528(3) 0.8283(2) 0.4011(2)
H2_6 H 0.5708 0.8172 0.4296
C5_6 C 0.5631(3) 0.8105(2) 0.3569(2)
C6_6 C 0.5379(2) 0.8289(2) 0.3150(2)
H3_6 H 0.5454 0.8182 0.2855
C7_6 C 0.5017(2) 0.8628(2) 0.31615(18)
H4_6 H 0.4838 0.8739 0.2877
C8_6 C 0.6015(3) 0.7744(2) 0.3559(2)
C9_6 C 0.6066(3) 0.7352(3) 0.3865(3)
H5_6 H 0.5854 0.7322 0.4088
C10_6 C 0.6412(4) 0.7005(3) 0.3862(3)
C11_6 C 0.6758(3) 0.7024(3) 0.3571(2)
C12_6 C 0.6725(3) 0.7432(3) 0.3265(3)
H6_6 H 0.6958 0.7473 0.3064
C13_6 C 0.6364(3) 0.7776(3) 0.3246(3)
C14_6 C 0.7789(3) 0.6144(2) 0.3976(2)
H7_6 H 0.7977 0.6047 0.4262
C15_6 C 0.7425(3) 0.6479(2) 0.3983(2)
H8_6 H 0.7361 0.6598 0.4277
C16_6 C 0.7151(3) 0.6643(2) 0.3567(2)
C17_6 C 0.7244(3) 0.6438(2) 0.3139(2)
H9_6 H 0.7061 0.6538 0.2852
C18_6 C 0.7585(2) 0.6107(2) 0.3126(2)
H10_6 H 0.7634 0.5973 0.2831
C19_6 C 0.7873(2) 0.5954(2) 0.3547(2)
C20_6 C 0.8262(2) 0.55794(18) 0.35225(19)
C21_6 C 0.6102(6) 0.6579(4) 0.4578(5)
H11_6 H 0.6157 0.6277 0.4758
H12_6 H 0.5771 0.6595 0.4433
H13_6 H 0.6176 0.6854 0.4791
C22_6 C 0.6683(4) 0.8209(4) 0.2632(4)
H14_6 H 0.6638 0.8498 0.2434
H15_6 H 0.6650 0.7920 0.2431
H16_6 H 0.6999 0.8214 0.2818
C47_6 C 0.4288(3) 0.9819(3) 0.0628(2)
H32_6 H 0.4528 0.9642 0.0820
C48_6 C 0.4312(2) 0.9857(2) 0.01319(18)
H33_6 H 0.4570 0.9716 0.0009
C49_6 C 0.3993(3) 0.9558(2) 0.2090(2)
H34_6 H 0.4073 0.9261 0.2248
C50_6 C 0.4020(4) 0.9593(3) 0.15988(19)
H35_6 H 0.4108 0.9315 0.1438
C51_6 C 0.39285(18) 0.99853(16) 0.13659(18)
N2_6 N 0.38600(15) 0.99306(15) 0.23361(14)
O1_6 O 0.44695(14) 0.93641(12) 0.40254(12)
O2_6 O 0.43208(14) 0.93481(12) 0.32220(12)
O5_6 O 0.6433(3) 0.6593(3) 0.4175(3)
O6_6 O 0.6330(3) 0.8198(2) 0.2947(2)
N3_4 N 0.39890(14) 0.99202(14) 0.48509(13)
Zn6_2 Zn 0.38267(2) 0.01021(2) 0.805545(15)
C3_7 C 0.0167(2) 0.6382(2) 0.90314(18)
H1_7 H 0.0088 0.6282 0.9327
C4_7 C 0.0528(3) 0.6717(2) 0.9011(2)
H2_7 H 0.0708 0.6828 0.9296
C5_7 C 0.0631(3) 0.6895(2) 0.8569(2)
C6_7 C 0.0379(2) 0.6711(2) 0.8150(2)
H3_7 H 0.0454 0.6818 0.7855
C7_7 C 0.0017(2) 0.6372(2) 0.81615(18)
C8_7 C 0.1015(3) 0.7256(2) 0.8559(2)
C9_7 C 0.1066(3) 0.7648(3) 0.8865(3)
H5_7 H 0.0854 0.7678 0.9088
C10_7 C 0.1412(4) 0.7995(3) 0.8862(3)
C11_7 C 0.1758(3) 0.7976(3) 0.8571(2)
C12_7 C 0.1725(3) 0.7568(3) 0.8265(3)
H6_7 H 0.1958 0.7527 0.8064
C13_7 C 0.1364(3) 0.7224(3) 0.8246(3)
C14_7 C 0.2789(3) 0.8856(2) 0.8976(2)
H7_7 H 0.2977 0.8953 0.9262
C15_7 C 0.2425(3) 0.8521(2) 0.8983(2)
H8_7 H 0.2361 0.8402 0.9277
C16_7 C 0.2151(3) 0.8357(2) 0.8567(2)
C17_7 C 0.2244(3) 0.8562(2) 0.8139(2)
H9_7 H 0.2061 0.8462 0.7852
C18_7 C 0.2585(2) 0.8893(2) 0.8126(2)
H10_7 H 0.2634 0.9027 0.7831
C19_7 C 0.2873(2) 0.9046(2) 0.8547(2)
C20_7 C 0.3262(2) 0.94206(18) 0.85225(19)
C21_7 C 0.1102(6) 0.8421(4) 0.9578(5)
H11_7 H 0.1157 0.8723 0.9758
H12_7 H 0.0771 0.8405 0.9433
H13_7 H 0.1176 0.8146 0.9791
C22_7 C 0.1683(4) 0.6791(4) 0.7632(4)
H14_7 H 0.1638 0.6502 0.7434
H15_7 H 0.1650 0.7080 0.7431
H16_7 H 0.1999 0.6786 0.7818
C25_7 C 0.0037(2) 0.3877(2) 0.82101(19)
C26_7 C 0.0400(3) 0.3527(2) 0.8180(2)
H18_7 H 0.0463 0.3419 0.7882
C27_7 C 0.0667(3) 0.3339(2) 0.8607(3)
C28_7 C 0.0569(3) 0.3542(2) 0.9046(2)
H19_7 H 0.0749 0.3438 0.9334
C29_7 C 0.0214(3) 0.3887(2) 0.9058(2)
H20_7 H 0.0146 0.3996 0.9355
C30_7 C 0.1021(3) 0.2938(3) 0.8593(3)
C31_7 C 0.1079(5) 0.2590(5) 0.8876(3)
H21_7 H 0.0867 0.2563 0.9100
C32_7 C 0.1437(6) 0.2233(5) 0.8886(4)
C33_7 C 0.1722(3) 0.2178(3) 0.8581(2)
C34_7 C 0.1686(5) 0.2540(5) 0.8278(4)
H22_7 H 0.1893 0.2535 0.8048
C35_7 C 0.1358(4) 0.2951(4) 0.8259(3)
C36_7 C 0.2556(3) 0.1275(2) 0.8143(2)
H23_7 H 0.2620 0.1152 0.7850
C37_7 C 0.2198(3) 0.1612(2) 0.8153(2)
H24_7 H 0.2016 0.1707 0.7863
C38_7 C 0.2095(3) 0.1821(2) 0.8576(2)
C39_7 C 0.2341(3) 0.1643(2) 0.8988(2)
H25_7 H 0.2260 0.1748 0.9282
C40_7 C 0.2709(3) 0.1309(2) 0.8986(2)
H26_7 H 0.2887 0.1211 0.9277
C41_7 C 0.2820(2) 0.1118(2) 0.8564(2)
C42_7 C 0.3226(2) 0.0753(2) 0.8563(2)
C43_7 C 0.1694(7) 0.3321(6) 0.7576(6)
H27_7 H 0.1670 0.3605 0.7370
H28_7 H 0.2016 0.3295 0.7746
H29_7 H 0.1618 0.3030 0.7385
O3_4 O 0.34692(14) 0.95685(12) 0.89215(12)
O4_4 O 0.33366(14) 0.95531(12) 0.81193(13)
O5_7 O 0.1433(3) 0.8407(3) 0.9175(3)
O6_7 O 0.1330(3) 0.6802(2) 0.7947(2)
O9_4 O 0.33005(13) 0.05990(12) 0.81498(13)
O10_4 O 0.34407(14) 0.06088(13) 0.89549(13)
O11_7 O 0.1316(4) 0.1751(3) 0.9201(4)
O12_7 O 0.1368(4) 0.3368(3) 0.7909(3)
C54_7 C 0.1245(11) 0.1919(10) 0.9816(10)
H39_7 H 0.1487 0.2156 0.9938
H40_7 H 0.0931 0.2060 0.9818
C1_7 C 0.9535(2) 0.57961(19) 0.8636(2)
C2_7 C 0.9921(2) 0.61937(19) 0.86127(18)
H4_7 H 0.9838 0.6261 0.7877
C23_7 C 0.9575(2) 0.44467(19) 0.8652(2)
C24_7 C 0.9953(3) 0.4079(2) 0.8643(2)
H17_7 H 0.9846 0.3977 0.7927
C44_7 C 0.8666(3) 0.4691(3) 0.50468(19)
H30_7 H 0.8442 0.4500 0.4851
C45_7 C 0.8636(3) 0.4714(3) 0.5522(2)
H31_7 H 0.8391 0.4540 0.5637
C46_7 C 0.8943(2) 0.49771(17) 0.5837(2)
C47_7 C 0.9288(3) 0.5181(3) 0.5628(2)
H32_7 H 0.9528 0.5358 0.5820
C48_7 C 0.9312(2) 0.5143(2) 0.51319(18)
H33_7 H 0.9570 0.5284 0.5009
C49_7 C 0.8993(3) 0.5442(2) 0.7090(2)
H34_7 H 0.9073 0.5739 0.7248
C50_7 C 0.9020(4) 0.5407(3) 0.65988(19)
H35_7 H 0.9108 0.5685 0.6438
C51_7 C 0.89285(18) 0.50147(16) 0.63659(18)
C52_7 C 0.8778(3) 0.4636(3) 0.66095(18)
H36_7 H 0.8670 0.4341 0.6461
C53_7 C 0.8795(4) 0.4712(3) 0.7085(2)
H37_7 H 0.8745 0.4427 0.7254
N2_7 N 0.88600(15) 0.50694(15) 0.73361(14)
O1_7 O 0.94695(14) 0.56359(12) 0.90254(12)
O2_7 O 0.93208(14) 0.56519(12) 0.82220(12)
O7_7 O 0.93614(14) 0.46027(13) 0.82589(12)
O8_7 O 0.94945(14) 0.45915(12) 0.90606(12)
Zn2_4 Zn 0.88267(2) 0.51021(2) 0.805545(15)
O13_4 O 0.84692(14) 0.45685(12) 0.89215(12)
O14_4 O 0.83366(14) 0.45531(12) 0.81193(13)
O15_4 O 0.83005(13) 0.55990(12) 0.81498(13)
O16_4 O 0.84407(14) 0.56088(13) 0.89549(13)
C1_8 C 0.4535(2) 0.07961(19) 0.8636(2)
C2_8 C 0.4921(2) 0.11937(19) 0.86127(18)
C3_8 C 0.5167(2) 0.1382(2) 0.90314(18)
H1_8 H 0.5088 0.1282 0.9327
C4_8 C 0.5528(3) 0.1717(2) 0.9011(2)
H2_8 H 0.5708 0.1828 0.9296
C5_8 C 0.5631(3) 0.1895(2) 0.8569(2)
C6_8 C 0.5379(2) 0.1711(2) 0.8150(2)
H3_8 H 0.5454 0.1818 0.7855
C7_8 C 0.5017(2) 0.1372(2) 0.81615(18)
H4_8 H 0.4838 0.1261 0.7877
C8_8 C 0.6015(3) 0.2256(2) 0.8559(2)
C9_8 C 0.6066(3) 0.2648(3) 0.8865(3)
H5_8 H 0.5854 0.2678 0.9088
C10_8 C 0.6412(4) 0.2995(3) 0.8862(3)
C11_8 C 0.6758(3) 0.2976(3) 0.8571(2)
C12_8 C 0.6725(3) 0.2568(3) 0.8265(3)
H6_8 H 0.6958 0.2527 0.8064
C13_8 C 0.6364(3) 0.2224(3) 0.8246(3)
C14_8 C 0.7789(3) 0.3856(2) 0.8976(2)
H7_8 H 0.7977 0.3953 0.9262
C15_8 C 0.7425(3) 0.3521(2) 0.8983(2)
H8_8 H 0.7361 0.3402 0.9277
C16_8 C 0.7151(3) 0.3357(2) 0.8567(2)
C17_8 C 0.7244(3) 0.3562(2) 0.8139(2)
H9_8 H 0.7061 0.3462 0.7852
C18_8 C 0.7585(2) 0.3893(2) 0.8126(2)
H10_8 H 0.7634 0.4027 0.7831
C19_8 C 0.7873(2) 0.4046(2) 0.8547(2)
C20_8 C 0.8262(2) 0.44206(18) 0.85225(19)
C21_8 C 0.6102(6) 0.3421(4) 0.9578(5)
H11_8 H 0.6157 0.3723 0.9758
H12_8 H 0.5771 0.3405 0.9433
H13_8 H 0.6176 0.3146 0.9791
C22_8 C 0.6683(4) 0.1791(4) 0.7632(4)
H14_8 H 0.6638 0.1502 0.7434
H15_8 H 0.6650 0.2080 0.7431
H16_8 H 0.6999 0.1786 0.7818
C47_8 C 0.4288(3) 0.0181(3) 0.5628(2)
H32_8 H 0.4528 0.0358 0.5820
C48_8 C 0.4312(2) 0.0143(2) 0.51319(18)
H33_8 H 0.4570 0.0284 0.5009
C49_8 C 0.3993(3) 0.0442(2) 0.7090(2)
H34_8 H 0.4073 0.0739 0.7248
C50_8 C 0.4020(4) 0.0407(3) 0.65988(19)
H35_8 H 0.4108 0.0685 0.6438
C51_8 C 0.39285(18) 0.00147(16) 0.63659(18)
N2_8 N 0.38600(15) 0.00694(15) 0.73361(14)
O1_8 O 0.44695(14) 0.06359(12) 0.90254(12)
O2_8 O 0.43208(14) 0.06519(12) 0.82220(12)
O5_8 O 0.6433(3) 0.3407(3) 0.9175(3)
O6_8 O 0.6330(3) 0.1802(2) 0.7947(2)
C23_8 C 0.4575(2) 0.94467(19) 0.8652(2)
C24_8 C 0.4953(3) 0.9079(2) 0.8643(2)
C25_8 C 0.5037(2) 0.8877(2) 0.82101(19)
H17_8 H 0.4846 0.8977 0.7927
C26_8 C 0.5400(3) 0.8527(2) 0.8180(2)
H18_8 H 0.5463 0.8419 0.7882
C27_8 C 0.5667(3) 0.8339(2) 0.8607(3)
C28_8 C 0.5569(3) 0.8542(2) 0.9046(2)
H19_8 H 0.5749 0.8438 0.9334
C29_8 C 0.5214(3) 0.8887(2) 0.9058(2)
H20_8 H 0.5146 0.8996 0.9355
C30_8 C 0.6021(3) 0.7938(3) 0.8593(3)
C31_8 C 0.6079(5) 0.7590(5) 0.8876(3)
H21_8 H 0.5867 0.7563 0.9100
C32_8 C 0.6437(6) 0.7233(5) 0.8886(4)
C33_8 C 0.6722(3) 0.7178(3) 0.8581(2)
C34_8 C 0.6686(5) 0.7540(5) 0.8278(4)
H22_8 H 0.6893 0.7535 0.8048
C35_8 C 0.6358(4) 0.7951(4) 0.8259(3)
C36_8 C 0.7556(3) 0.6275(2) 0.8143(2)
H23_8 H 0.7620 0.6152 0.7850
C37_8 C 0.7198(3) 0.6612(2) 0.8153(2)
H24_8 H 0.7016 0.6707 0.7863
C38_8 C 0.7095(3) 0.6821(2) 0.8576(2)
C39_8 C 0.7341(3) 0.6643(2) 0.8988(2)
H25_8 H 0.7260 0.6748 0.9282
C40_8 C 0.7709(3) 0.6309(2) 0.8986(2)
H26_8 H 0.7887 0.6211 0.9277
C41_8 C 0.7820(2) 0.6118(2) 0.8564(2)
C42_8 C 0.8226(2) 0.5753(2) 0.8563(2)
C43_8 C 0.6694(7) 0.8321(6) 0.7576(6)
H27_8 H 0.6670 0.8605 0.7370
H28_8 H 0.7016 0.8295 0.7746
H29_8 H 0.6618 0.8030 0.7385
C44_8 C 0.3666(3) 0.9691(3) 0.50468(19)
H30_8 H 0.3442 0.9500 0.4851
C45_8 C 0.3636(3) 0.9714(3) 0.5522(2)
H31_8 H 0.3391 0.9540 0.5637
C46_8 C 0.3943(2) 0.99771(17) 0.5837(2)
C52_8 C 0.3778(3) 0.9636(3) 0.66095(18)
H36_8 H 0.3670 0.9341 0.6461
C53_8 C 0.3795(4) 0.9712(3) 0.7085(2)
H37_8 H 0.3745 0.9427 0.7254
O7_8 O 0.43614(14) 0.96027(13) 0.82589(12)
O8_8 O 0.44945(14) 0.95915(12) 0.90606(12)
O11_8 O 0.6316(4) 0.6751(3) 0.9201(4)
O12_8 O 0.6368(4) 0.8368(3) 0.7909(3)
C54_8 C 0.6245(11) 0.6919(10) 0.9816(10)
H39_8 H 0.6487 0.7156 0.9938
H40_8 H 0.5931 0.7060 0.9818
H38_6 H 0.3721 0.3370 0.9984
H38_7 H 0.1279 0.1630 0.0016
H38_8 H 0.6279 0.6630 0.0016
loop_
_geom_bond_atom_site_label_1
_geom_bond_atom_site_label_2
_geom_bond_site_symmetry_1
_geom_bond_site_symmetry_2
C1 C2 1_555 1_555
C23 C24 1_555 1_555
C44 H30 1_555 1_555
C45 C44 1_555 1_555
H31 C45 1_555 1_555
C46 C45 1_555 1_555
C47 C46 1_555 1_555
H32 C47 1_555 1_555
C48 C47 1_555 1_555
H33 C48 1_555 1_555
C49 H34 1_555 1_555
C50 C49 1_555 1_555
H35 C50 1_555 1_555
C51 C46 1_555 1_555
C52 C51 1_555 1_555
H36 C52 1_555 1_555
C53 C52 1_555 1_555
H37 C53 1_555 1_555
N1 C44 1_555 1_555
N2 C49 1_555 1_555
O1 C1 1_555 1_555
O2 C1 1_555 1_555
O7 C23 1_555 1_555
O8 C23 1_555 1_555
Zn1 O1 1_555 1_555
Zn2 N2 1_555 1_555
N3 Zn1 1_555 1_555
O13 Zn1 1_555 1_555
O14 Zn2 1_555 1_555
O15 Zn2 1_555 1_555
O16 Zn1 1_555 1_555
Zn5 N1 1_555 1_555
C48 N1 1_555 1_555
C50 C51 1_555 1_555
C53 N2 1_555 1_555
O2 Zn2 1_555 1_555
O7 Zn2 1_555 1_555
O8 Zn1 1_555 1_555
C3 H1 1_555 1_555
C4 C3 1_555 1_555
H2 C4 1_555 1_555
C5 C4 1_555 1_555
C6 C5 1_555 1_555
H3 C6 1_555 1_555
C8 C5 1_555 1_555
C9 C8 1_555 1_555
H5 C9 1_555 1_555
C10 C9 1_555 1_555
C11 C10 1_555 1_555
C12 C11 1_555 1_555
H6 C12 1_555 1_555
C13 C8 1_555 1_555
C14 H7 1_555 1_555
C15 C14 1_555 1_555
H8 C15 1_555 1_555
C16 C11 1_555 1_555
C17 C16 1_555 1_555
H9 C17 1_555 1_555
C18 C17 1_555 1_555
H10 C18 1_555 1_555
C19 C14 1_555 1_555
C20 C19 1_555 1_555
C21 H11 1_555 1_555
H12 C21 1_555 1_555
H13 C21 1_555 1_555
C22 H14 1_555 1_555
H15 C22 1_555 1_555
H16 C22 1_555 1_555
C26 C25 1_555 1_555
H18 C26 1_555 1_555
C27 C26 1_555 1_555
C28 C27 1_555 1_555
H19 C28 1_555 1_555
H20 C29 1_555 1_555
C30 C27 1_555 1_555
C31 C30 1_555 1_555
H21 C31 1_555 1_555
C32 C31 1_555 1_555
C33 C32 1_555 1_555
C34 C33 1_555 1_555
H22 C34 1_555 1_555
C35 C30 1_555 1_555
C36 H23 1_555 1_555
C37 C36 1_555 1_555
H24 C37 1_555 1_555
C38 C33 1_555 1_555
C39 C38 1_555 1_555
H25 C39 1_555 1_555
C40 C39 1_555 1_555
H26 C40 1_555 1_555
C41 C36 1_555 1_555
C42 C41 1_555 1_555
C43 H27 1_555 1_555
H28 C43 1_555 1_555
H29 C43 1_555 1_555
O3 C20 1_555 1_555
O4 C20 1_555 1_555
O5 C10 1_555 1_555
O6 C13 1_555 1_555
O9 C42 1_555 1_555
O10 C42 1_555 1_555
O11 C32 1_555 1_555
O12 C35 1_555 1_555
C54 O11 1_555 1_555
H39 C54 1_555 1_555
H40 C54 1_555 1_555
Zn4 O10 1_555 1_555
Zn7 O9 1_555 1_555
C6 C7 1_555 1_555
C12 C13 1_555 1_555
C15 C16 1_555 1_555
C18 C19 1_555 1_555
C21 O5 1_555 1_555
C22 O6 1_555 1_555
C28 C29 1_555 1_555
C34 C35 1_555 1_555
C37 C38 1_555 1_555
C40 C41 1_555 1_555
C43 O12 1_555 1_555
C23_2 C24_2 1_555 1_555
C24_2 C25_2 1_555 1_555
C25_2 H17_2 1_555 1_555
C26_2 C25_2 1_555 1_555
H18_2 C26_2 1_555 1_555
C27_2 C26_2 1_555 1_555
C28_2 C27_2 1_555 1_555
H19_2 C28_2 1_555 1_555
C29_2 C24_2 1_555 1_555
H20_2 C29_2 1_555 1_555
C30_2 C27_2 1_555 1_555
C31_2 C30_2 1_555 1_555
H21_2 C31_2 1_555 1_555
C32_2 C31_2 1_555 1_555
C33_2 C32_2 1_555 1_555
C34_2 C33_2 1_555 1_555
H22_2 C34_2 1_555 1_555
C35_2 C30_2 1_555 1_555
C36_2 H23_2 1_555 1_555
C37_2 C36_2 1_555 1_555
H24_2 C37_2 1_555 1_555
C38_2 C33_2 1_555 1_555
C39_2 C38_2 1_555 1_555
H25_2 C39_2 1_555 1_555
C40_2 C39_2 1_555 1_555
H26_2 C40_2 1_555 1_555
C41_2 C36_2 1_555 1_555
C42_2 C41_2 1_555 1_555
C43_2 H27_2 1_555 1_555
H28_2 C43_2 1_555 1_555
H29_2 C43_2 1_555 1_555
C44_2 H30_2 1_555 1_555
C45_2 C44_2 1_555 1_555
H31_2 C45_2 1_555 1_555
C46_2 C45_2 1_555 1_555
H36_2 C52_2 1_555 1_555
C53_2 C52_2 1_555 1_555
H37_2 C53_2 1_555 1_555
N1_2 C44_2 1_555 1_555
O7_2 C23_2 1_555 1_555
O8_2 C23_2 1_555 1_555
O15 C42_2 1_555 1_555
O16 C42_2 1_555 1_555
O11_2 C32_2 1_555 1_555
O12_2 C35_2 1_555 1_555
C54_2 O11_2 1_555 1_555
H39_2 C54_2 1_555 1_555
H40_2 C54_2 1_555 1_555
Zn5_2 N1_2 1_555 1_555
C28_2 C29_2 1_555 1_555
C34_2 C35_2 1_555 1_555
C37_2 C38_2 1_555 1_555
C40_2 C41_2 1_555 1_555
C43_2 O12_2 1_555 1_555
C1_2 C2_2 1_555 1_555
C2_2 C3_2 1_555 1_555
C3_2 H1_2 1_555 1_555
C4_2 C3_2 1_555 1_555
H2_2 C4_2 1_555 1_555
C5_2 C4_2 1_555 1_555
C6_2 C5_2 1_555 1_555
H3_2 C6_2 1_555 1_555
C7_2 C2_2 1_555 1_555
H4_2 C7_2 1_555 1_555
C8_2 C5_2 1_555 1_555
C9_2 C8_2 1_555 1_555
H5_2 C9_2 1_555 1_555
C10_2 C9_2 1_555 1_555
C11_2 C10_2 1_555 1_555
C12_2 C11_2 1_555 1_555
H6_2 C12_2 1_555 1_555
C13_2 C8_2 1_555 1_555
C14_2 H7_2 1_555 1_555
C15_2 C14_2 1_555 1_555
H8_2 C15_2 1_555 1_555
C16_2 C11_2 1_555 1_555
C17_2 C16_2 1_555 1_555
H9_2 C17_2 1_555 1_555
C18_2 C17_2 1_555 1_555
H10_2 C18_2 1_555 1_555
C19_2 C14_2 1_555 1_555
C20_2 C19_2 1_555 1_555
C21_2 H11_2 1_555 1_555
H12_2 C21_2 1_555 1_555
H13_2 C21_2 1_555 1_555
C22_2 H14_2 1_555 1_555
H15_2 C22_2 1_555 1_555
H16_2 C22_2 1_555 1_555
H32_2 C47_2 1_555 1_555
C48_2 C47_2 1_555 1_555
H33_2 C48_2 1_555 1_555
C49_2 H34_2 1_555 1_555
C50_2 C49_2 1_555 1_555
H35_2 C50_2 1_555 1_555
N2_2 C49_2 1_555 1_555
O1_2 C1_2 1_555 1_555
O2_2 C1_2 1_555 1_555
O13 C20_2 1_555 1_555
O14 C20_2 1_555 1_555
O5_2 C10_2 1_555 1_555
O6_2 C13_2 1_555 1_555
Zn4 O1_2 1_555 1_555
Zn7 N2_2 1_555 1_555
N3_2 Zn4 1_555 1_555
C6_2 C7_2 1_555 1_555
C12_2 C13_2 1_555 1_555
C15_2 C16_2 1_555 1_555
C18_2 C19_2 1_555 1_555
C21_2 O5_2 1_555 1_555
C22_2 O6_2 1_555 1_555
C50_2 C51_2 1_555 1_555
O2_2 Zn7 1_555 1_555
C1_3 C2_3 1_555 1_555
C23_3 C24_3 1_555 1_555
C45_3 C44_3 1_555 1_555
H31_3 C45_3 1_555 1_555
C46_3 C45_3 1_555 1_555
C47_3 C46_3 1_555 1_555
H32_3 C47_3 1_555 1_555
C48_3 C47_3 1_555 1_555
H33_3 C48_3 1_555 1_555
C49_3 H34_3 1_555 1_555
C50_3 C49_3 1_555 1_555
H35_3 C50_3 1_555 1_555
C51_3 C46_3 1_555 1_555
C52_3 C51_3 1_555 1_555
H36_3 C52_3 1_555 1_555
C53_3 C52_3 1_555 1_555
H37_3 C53_3 1_555 1_555
N2_3 C49_3 1_555 1_555
O1_3 C1_3 1_555 1_555
O2_3 C1_3 1_555 1_555
O7_3 C23_3 1_555 1_555
O8_3 C23_3 1_555 1_555
Zn5 O1_3 1_555 1_555
Zn2_2 N2_3 1_555 1_555
O13_2 Zn5 1_555 1_555
O14_2 Zn2_2 1_555 1_555
O15_2 Zn2_2 1_555 1_555
O16_2 Zn5 1_555 1_555
C50_3 C51_3 1_555 1_555
C53_3 N2_3 1_555 1_555
O2_3 Zn2_2 1_555 1_555
O7_3 Zn2_2 1_555 1_555
O8_3 Zn5 1_555 1_555
C3_3 H1_3 1_555 1_555
C4_3 C3_3 1_555 1_555
H2_3 C4_3 1_555 1_555
C5_3 C4_3 1_555 1_555
C6_3 C5_3 1_555 1_555
H3_3 C6_3 1_555 1_555
C8_3 C5_3 1_555 1_555
C9_3 C8_3 1_555 1_555
H5_3 C9_3 1_555 1_555
C10_3 C9_3 1_555 1_555
C11_3 C10_3 1_555 1_555
C12_3 C11_3 1_555 1_555
H6_3 C12_3 1_555 1_555
C13_3 C8_3 1_555 1_555
C14_3 H7_3 1_555 1_555
C15_3 C14_3 1_555 1_555
H8_3 C15_3 1_555 1_555
C16_3 C11_3 1_555 1_555
C17_3 C16_3 1_555 1_555
H9_3 C17_3 1_555 1_555
C18_3 C17_3 1_555 1_555
H10_3 C18_3 1_555 1_555
C19_3 C14_3 1_555 1_555
C20_3 C19_3 1_555 1_555
C21_3 H11_3 1_555 1_555
H12_3 C21_3 1_555 1_555
H13_3 C21_3 1_555 1_555
C22_3 H14_3 1_555 1_555
H15_3 C22_3 1_555 1_555
H16_3 C22_3 1_555 1_555
C26_3 C25_3 1_555 1_555
H18_3 C26_3 1_555 1_555
C27_3 C26_3 1_555 1_555
C28_3 C27_3 1_555 1_555
H19_3 C28_3 1_555 1_555
H20_3 C29_3 1_555 1_555
C30_3 C27_3 1_555 1_555
C31_3 C30_3 1_555 1_555
H21_3 C31_3 1_555 1_555
C32_3 C31_3 1_555 1_555
C33_3 C32_3 1_555 1_555
C34_3 C33_3 1_555 1_555
H22_3 C34_3 1_555 1_555
C35_3 C30_3 1_555 1_555
C36_3 H23_3 1_555 1_555
C37_3 C36_3 1_555 1_555
H24_3 C37_3 1_555 1_555
C38_3 C33_3 1_555 1_555
C39_3 C38_3 1_555 1_555
H25_3 C39_3 1_555 1_555
C40_3 C39_3 1_555 1_555
H26_3 C40_3 1_555 1_555
C41_3 C36_3 1_555 1_555
C42_3 C41_3 1_555 1_555
C43_3 H27_3 1_555 1_555
H28_3 C43_3 1_555 1_555
H29_3 C43_3 1_555 1_555
O3_2 C20_3 1_555 1_555
O4_2 C20_3 1_555 1_555
O5_3 C10_3 1_555 1_555
O6_3 C13_3 1_555 1_555
O9_2 C42_3 1_555 1_555
O10_2 C42_3 1_555 1_555
O11_3 C32_3 1_555 1_555
O12_3 C35_3 1_555 1_555
C54_3 O11_3 1_555 1_555
H38 C54_3 1_555 1_555
H39_3 C54_3 1_555 1_555
H40_3 C54_3 1_555 1_555
Zn5_2 O10_2 1_555 1_555
Zn6 O9_2 1_555 1_555
C6_3 C7_3 1_555 1_555
C12_3 C13_3 1_555 1_555
C15_3 C16_3 1_555 1_555
C18_3 C19_3 1_555 1_555
C21_3 O5_3 1_555 1_555
C22_3 O6_3 1_555 1_555
C28_3 C29_3 1_555 1_555
C34_3 C35_3 1_555 1_555
C37_3 C38_3 1_555 1_555
C40_3 C41_3 1_555 1_555
C43_3 O12_3 1_555 1_555
C1_4 C2_4 1_555 1_555
C2_4 C3_4 1_555 1_555
C3_4 H1_4 1_555 1_555
C4_4 C3_4 1_555 1_555
H2_4 C4_4 1_555 1_555
C5_4 C4_4 1_555 1_555
C6_4 C5_4 1_555 1_555
H3_4 C6_4 1_555 1_555
C7_4 C2_4 1_555 1_555
H4_4 C7_4 1_555 1_555
C8_4 C5_4 1_555 1_555
C9_4 C8_4 1_555 1_555
H5_4 C9_4 1_555 1_555
C10_4 C9_4 1_555 1_555
C11_4 C10_4 1_555 1_555
C12_4 C11_4 1_555 1_555
H6_4 C12_4 1_555 1_555
C13_4 C8_4 1_555 1_555
C14_4 H7_4 1_555 1_555
C15_4 C14_4 1_555 1_555
H8_4 C15_4 1_555 1_555
C16_4 C11_4 1_555 1_555
C17_4 C16_4 1_555 1_555
H9_4 C17_4 1_555 1_555
C18_4 C17_4 1_555 1_555
H10_4 C18_4 1_555 1_555
C19_4 C14_4 1_555 1_555
C20_4 C19_4 1_555 1_555
C21_4 H11_4 1_555 1_555
H12_4 C21_4 1_555 1_555
H13_4 C21_4 1_555 1_555
C22_4 H14_4 1_555 1_555
H15_4 C22_4 1_555 1_555
H16_4 C22_4 1_555 1_555
H32_4 C47_4 1_555 1_555
C48_4 C47_4 1_555 1_555
H33_4 C48_4 1_555 1_555
C49_4 H34_4 1_555 1_555
C50_4 C49_4 1_555 1_555
H35_4 C50_4 1_555 1_555
N2_4 C49_4 1_555 1_555
O1_4 C1_4 1_555 1_555
O2_4 C1_4 1_555 1_555
O13_2 C20_4 1_555 1_555
O14_2 C20_4 1_555 1_555
O5_4 C10_4 1_555 1_555
O6_4 C13_4 1_555 1_555
Zn5_2 O1_4 1_555 1_555
Zn6 N2_4 1_555 1_555
C6_4 C7_4 1_555 1_555
C12_4 C13_4 1_555 1_555
C15_4 C16_4 1_555 1_555
C18_4 C19_4 1_555 1_555
C21_4 O5_4 1_555 1_555
C22_4 O6_4 1_555 1_555
C50_4 C51_4 1_555 1_555
O2_4 Zn6 1_555 1_555
C23_4 C24_4 1_555 1_555
C24_4 C25_4 1_555 1_555
C25_4 H17_4 1_555 1_555
C26_4 C25_4 1_555 1_555
H18_4 C26_4 1_555 1_555
C27_4 C26_4 1_555 1_555
C28_4 C27_4 1_555 1_555
H19_4 C28_4 1_555 1_555
C29_4 C24_4 1_555 1_555
H20_4 C29_4 1_555 1_555
C30_4 C27_4 1_555 1_555
C31_4 C30_4 1_555 1_555
H21_4 C31_4 1_555 1_555
C32_4 C31_4 1_555 1_555
C33_4 C32_4 1_555 1_555
C34_4 C33_4 1_555 1_555
H22_4 C34_4 1_555 1_555
C35_4 C30_4 1_555 1_555
C36_4 H23_4 1_555 1_555
C37_4 C36_4 1_555 1_555
H24_4 C37_4 1_555 1_555
C38_4 C33_4 1_555 1_555
C39_4 C38_4 1_555 1_555
H25_4 C39_4 1_555 1_555
C40_4 C39_4 1_555 1_555
H26_4 C40_4 1_555 1_555
C41_4 C36_4 1_555 1_555
C42_4 C41_4 1_555 1_555
C43_4 H27_4 1_555 1_555
H28_4 C43_4 1_555 1_555
H29_4 C43_4 1_555 1_555
C45_4 C44_4 1_555 1_555
H31_4 C45_4 1_555 1_555
C46_4 C45_4 1_555 1_555
H36_4 C52_4 1_555 1_555
C53_4 C52_4 1_555 1_555
H37_4 C53_4 1_555 1_555
O7_4 C23_4 1_555 1_555
O8_4 C23_4 1_555 1_555
O15_2 C42_4 1_555 1_555
O16_2 C42_4 1_555 1_555
O11_4 C32_4 1_555 1_555
O12_4 C35_4 1_555 1_555
C54_4 O11_4 1_555 1_555
H38_2 C54_4 1_555 1_555
H39_4 C54_4 1_555 1_555
H40_4 C54_4 1_555 1_555
C28_4 C29_4 1_555 1_555
C34_4 C35_4 1_555 1_555
C37_4 C38_4 1_555 1_555
C40_4 C41_4 1_555 1_555
C43_4 O12_4 1_555 1_555
C3_5 H1_5 1_555 1_555
C4_5 C3_5 1_555 1_555
H2_5 C4_5 1_555 1_555
C5_5 C4_5 1_555 1_555
C6_5 C5_5 1_555 1_555
H3_5 C6_5 1_555 1_555
C8_5 C5_5 1_555 1_555
C9_5 C8_5 1_555 1_555
H5_5 C9_5 1_555 1_555
C10_5 C9_5 1_555 1_555
C11_5 C10_5 1_555 1_555
C12_5 C11_5 1_555 1_555
H6_5 C12_5 1_555 1_555
C13_5 C8_5 1_555 1_555
C14_5 H7_5 1_555 1_555
C15_5 C14_5 1_555 1_555
H8_5 C15_5 1_555 1_555
C16_5 C11_5 1_555 1_555
C17_5 C16_5 1_555 1_555
H9_5 C17_5 1_555 1_555
C18_5 C17_5 1_555 1_555
H10_5 C18_5 1_555 1_555
C19_5 C14_5 1_555 1_555
C20_5 C19_5 1_555 1_555
C21_5 H11_5 1_555 1_555
H12_5 C21_5 1_555 1_555
H13_5 C21_5 1_555 1_555
C22_5 H14_5 1_555 1_555
H15_5 C22_5 1_555 1_555
H16_5 C22_5 1_555 1_555
C26_5 C25_5 1_555 1_555
H18_5 C26_5 1_555 1_555
C27_5 C26_5 1_555 1_555
C28_5 C27_5 1_555 1_555
H19_5 C28_5 1_555 1_555
H20_5 C29_5 1_555 1_555
C30_5 C27_5 1_555 1_555
C31_5 C30_5 1_555 1_555
H21_5 C31_5 1_555 1_555
C32_5 C31_5 1_555 1_555
C33_5 C32_5 1_555 1_555
C34_5 C33_5 1_555 1_555
H22_5 C34_5 1_555 1_555
C35_5 C30_5 1_555 1_555
C36_5 H23_5 1_555 1_555
C37_5 C36_5 1_555 1_555
H24_5 C37_5 1_555 1_555
C38_5 C33_5 1_555 1_555
C39_5 C38_5 1_555 1_555
H25_5 C39_5 1_555 1_555
C40_5 C39_5 1_555 1_555
H26_5 C40_5 1_555 1_555
C41_5 C36_5 1_555 1_555
C42_5 C41_5 1_555 1_555
C43_5 H27_5 1_555 1_555
H28_5 C43_5 1_555 1_555
H29_5 C43_5 1_555 1_555
O3_3 C20_5 1_555 1_555
O4_3 C20_5 1_555 1_555
O5_5 C10_5 1_555 1_555
O6_5 C13_5 1_555 1_555
O9_3 C42_5 1_555 1_555
O10_3 C42_5 1_555 1_555
O11_5 C32_5 1_555 1_555
O12_5 C35_5 1_555 1_555
C54_5 O11_5 1_555 1_555
H38_4 C54_5 1_555 1_555
H39_5 C54_5 1_555 1_555
H40_5 C54_5 1_555 1_555
Zn4_2 O10_3 1_555 1_555
Zn7_2 O9_3 1_555 1_555
C6_5 C7_5 1_555 1_555
C12_5 C13_5 1_555 1_555
C15_5 C16_5 1_555 1_555
C18_5 C19_5 1_555 1_555
C21_5 O5_5 1_555 1_555
C22_5 O6_5 1_555 1_555
C28_5 C29_5 1_555 1_555
C34_5 C35_5 1_555 1_555
C37_5 C38_5 1_555 1_555
C40_5 C41_5 1_555 1_555
C43_5 O12_5 1_555 1_555
C1_5 C2_5 1_555 1_555
C23_5 C24_5 1_555 1_555
C45_5 C44_5 1_555 1_555
H31_5 C45_5 1_555 1_555
C46_5 C45_5 1_555 1_555
C47_5 C46_5 1_555 1_555
H32_5 C47_5 1_555 1_555
C48_5 C47_5 1_555 1_555
H33_5 C48_5 1_555 1_555
C49_5 H34_5 1_555 1_555
C50_5 C49_5 1_555 1_555
H35_5 C50_5 1_555 1_555
C51_5 C46_5 1_555 1_555
C52_5 C51_5 1_555 1_555
H36_5 C52_5 1_555 1_555
C53_5 C52_5 1_555 1_555
H37_5 C53_5 1_555 1_555
N2_5 C49_5 1_555 1_555
O1_5 C1_5 1_555 1_555
O2_5 C1_5 1_555 1_555
O7_5 C23_5 1_555 1_555
O8_5 C23_5 1_555 1_555
Zn1_2 O1_5 1_555 1_555
Zn2_3 N2_5 1_555 1_555
N3_3 Zn1_2 1_555 1_555
O13_3 Zn1_2 1_555 1_555
O14_3 Zn2_3 1_555 1_555
O15_3 Zn2_3 1_555 1_555
O16_3 Zn1_2 1_555 1_555
C50_5 C51_5 1_555 1_555
C53_5 N2_5 1_555 1_555
O2_5 Zn2_3 1_555 1_555
O7_5 Zn2_3 1_555 1_555
O8_5 Zn1_2 1_555 1_555
Zn5_3 N1_3 1_555 1_555
C23_6 C24_6 1_555 1_555
C24_6 C25_6 1_555 1_555
C25_6 H17_6 1_555 1_555
C26_6 C25_6 1_555 1_555
H18_6 C26_6 1_555 1_555
C27_6 C26_6 1_555 1_555
C28_6 C27_6 1_555 1_555
H19_6 C28_6 1_555 1_555
C29_6 C24_6 1_555 1_555
H20_6 C29_6 1_555 1_555
C30_6 C27_6 1_555 1_555
C31_6 C30_6 1_555 1_555
H21_6 C31_6 1_555 1_555
C32_6 C31_6 1_555 1_555
C33_6 C32_6 1_555 1_555
C34_6 C33_6 1_555 1_555
H22_6 C34_6 1_555 1_555
C35_6 C30_6 1_555 1_555
C36_6 H23_6 1_555 1_555
C37_6 C36_6 1_555 1_555
H24_6 C37_6 1_555 1_555
C38_6 C33_6 1_555 1_555
C39_6 C38_6 1_555 1_555
H25_6 C39_6 1_555 1_555
C40_6 C39_6 1_555 1_555
H26_6 C40_6 1_555 1_555
C41_6 C36_6 1_555 1_555
C42_6 C41_6 1_555 1_555
C43_6 H27_6 1_555 1_555
H28_6 C43_6 1_555 1_555
H29_6 C43_6 1_555 1_555
C45_6 C44_6 1_555 1_555
H31_6 C45_6 1_555 1_555
C46_6 C45_6 1_555 1_555
H36_6 C52_6 1_555 1_555
C53_6 C52_6 1_555 1_555
H37_6 C53_6 1_555 1_555
O7_6 C23_6 1_555 1_555
O8_6 C23_6 1_555 1_555
O15_3 C42_6 1_555 1_555
O16_3 C42_6 1_555 1_555
O11_6 C32_6 1_555 1_555
O12_6 C35_6 1_555 1_555
C54_6 O11_6 1_555 1_555
H38_5 C54_6 1_555 1_555
H39_6 C54_6 1_555 1_555
H40_6 C54_6 1_555 1_555
C28_6 C29_6 1_555 1_555
C34_6 C35_6 1_555 1_555
C37_6 C38_6 1_555 1_555
C40_6 C41_6 1_555 1_555
C43_6 O12_6 1_555 1_555
Zn5_4 N1_4 1_555 1_555
C1_6 C2_6 1_555 1_555
C2_6 C3_6 1_555 1_555
C3_6 H1_6 1_555 1_555
C4_6 C3_6 1_555 1_555
H2_6 C4_6 1_555 1_555
C5_6 C4_6 1_555 1_555
C6_6 C5_6 1_555 1_555
H3_6 C6_6 1_555 1_555
C7_6 C2_6 1_555 1_555
H4_6 C7_6 1_555 1_555
C8_6 C5_6 1_555 1_555
C9_6 C8_6 1_555 1_555
H5_6 C9_6 1_555 1_555
C10_6 C9_6 1_555 1_555
C11_6 C10_6 1_555 1_555
C12_6 C11_6 1_555 1_555
H6_6 C12_6 1_555 1_555
C13_6 C8_6 1_555 1_555
C14_6 H7_6 1_555 1_555
C15_6 C14_6 1_555 1_555
H8_6 C15_6 1_555 1_555
C16_6 C11_6 1_555 1_555
C17_6 C16_6 1_555 1_555
H9_6 C17_6 1_555 1_555
C18_6 C17_6 1_555 1_555
H10_6 C18_6 1_555 1_555
C19_6 C14_6 1_555 1_555
C20_6 C19_6 1_555 1_555
C21_6 H11_6 1_555 1_555
H12_6 C21_6 1_555 1_555
H13_6 C21_6 1_555 1_555
C22_6 H14_6 1_555 1_555
H15_6 C22_6 1_555 1_555
H16_6 C22_6 1_555 1_555
H32_6 C47_6 1_555 1_555
C48_6 C47_6 1_555 1_555
H33_6 C48_6 1_555 1_555
C49_6 H34_6 1_555 1_555
C50_6 C49_6 1_555 1_555
H35_6 C50_6 1_555 1_555
N2_6 C49_6 1_555 1_555
O1_6 C1_6 1_555 1_555
O2_6 C1_6 1_555 1_555
O13_3 C20_6 1_555 1_555
O14_3 C20_6 1_555 1_555
O5_6 C10_6 1_555 1_555
O6_6 C13_6 1_555 1_555
Zn4_2 O1_6 1_555 1_555
Zn7_2 N2_6 1_555 1_555
N3_4 Zn4_2 1_555 1_555
C6_6 C7_6 1_555 1_555
C12_6 C13_6 1_555 1_555
C15_6 C16_6 1_555 1_555
C18_6 C19_6 1_555 1_555
C21_6 O5_6 1_555 1_555
C22_6 O6_6 1_555 1_555
C50_6 C51_6 1_555 1_555
O2_6 Zn7_2 1_555 1_555
C3_7 H1_7 1_555 1_555
C4_7 C3_7 1_555 1_555
H2_7 C4_7 1_555 1_555
C5_7 C4_7 1_555 1_555
C6_7 C5_7 1_555 1_555
H3_7 C6_7 1_555 1_555
C8_7 C5_7 1_555 1_555
C9_7 C8_7 1_555 1_555
H5_7 C9_7 1_555 1_555
C10_7 C9_7 1_555 1_555
C11_7 C10_7 1_555 1_555
C12_7 C11_7 1_555 1_555
H6_7 C12_7 1_555 1_555
C13_7 C8_7 1_555 1_555
C14_7 H7_7 1_555 1_555
C15_7 C14_7 1_555 1_555
H8_7 C15_7 1_555 1_555
C16_7 C11_7 1_555 1_555
C17_7 C16_7 1_555 1_555
H9_7 C17_7 1_555 1_555
C18_7 C17_7 1_555 1_555
H10_7 C18_7 1_555 1_555
C19_7 C14_7 1_555 1_555
C20_7 C19_7 1_555 1_555
C21_7 H11_7 1_555 1_555
H12_7 C21_7 1_555 1_555
H13_7 C21_7 1_555 1_555
C22_7 H14_7 1_555 1_555
H15_7 C22_7 1_555 1_555
H16_7 C22_7 1_555 1_555
C26_7 C25_7 1_555 1_555
H18_7 C26_7 1_555 1_555
C27_7 C26_7 1_555 1_555
C28_7 C27_7 1_555 1_555
H19_7 C28_7 1_555 1_555
H20_7 C29_7 1_555 1_555
C30_7 C27_7 1_555 1_555
C31_7 C30_7 1_555 1_555
H21_7 C31_7 1_555 1_555
C32_7 C31_7 1_555 1_555
C33_7 C32_7 1_555 1_555
C34_7 C33_7 1_555 1_555
H22_7 C34_7 1_555 1_555
C35_7 C30_7 1_555 1_555
C36_7 H23_7 1_555 1_555
C37_7 C36_7 1_555 1_555
H24_7 C37_7 1_555 1_555
C38_7 C33_7 1_555 1_555
C39_7 C38_7 1_555 1_555
H25_7 C39_7 1_555 1_555
C40_7 C39_7 1_555 1_555
H26_7 C40_7 1_555 1_555
C41_7 C36_7 1_555 1_555
C42_7 C41_7 1_555 1_555
C43_7 H27_7 1_555 1_555
H28_7 C43_7 1_555 1_555
H29_7 C43_7 1_555 1_555
O3_4 C20_7 1_555 1_555
O4_4 C20_7 1_555 1_555
O5_7 C10_7 1_555 1_555
O6_7 C13_7 1_555 1_555
O9_4 C42_7 1_555 1_555
O10_4 C42_7 1_555 1_555
O11_7 C32_7 1_555 1_555
O12_7 C35_7 1_555 1_555
C54_7 O11_7 1_555 1_555
H39_7 C54_7 1_555 1_555
H40_7 C54_7 1_555 1_555
Zn5_4 O10_4 1_555 1_555
Zn6_2 O9_4 1_555 1_555
C6_7 C7_7 1_555 1_555
C12_7 C13_7 1_555 1_555
C15_7 C16_7 1_555 1_555
C18_7 C19_7 1_555 1_555
C21_7 O5_7 1_555 1_555
C22_7 O6_7 1_555 1_555
C28_7 C29_7 1_555 1_555
C34_7 C35_7 1_555 1_555
C37_7 C38_7 1_555 1_555
C40_7 C41_7 1_555 1_555
C43_7 O12_7 1_555 1_555
C1_7 C2_7 1_555 1_555
C23_7 C24_7 1_555 1_555
C44_7 H30_7 1_555 1_555
C45_7 C44_7 1_555 1_555
H31_7 C45_7 1_555 1_555
C46_7 C45_7 1_555 1_555
C47_7 C46_7 1_555 1_555
H32_7 C47_7 1_555 1_555
C48_7 C47_7 1_555 1_555
H33_7 C48_7 1_555 1_555
C49_7 H34_7 1_555 1_555
C50_7 C49_7 1_555 1_555
H35_7 C50_7 1_555 1_555
C51_7 C46_7 1_555 1_555
C52_7 C51_7 1_555 1_555
H36_7 C52_7 1_555 1_555
C53_7 C52_7 1_555 1_555
H37_7 C53_7 1_555 1_555
N3_3 C44_7 1_555 1_555
N2_7 C49_7 1_555 1_555
O1_7 C1_7 1_555 1_555
O2_7 C1_7 1_555 1_555
O7_7 C23_7 1_555 1_555
O8_7 C23_7 1_555 1_555
Zn5_3 O1_7 1_555 1_555
Zn2_4 N2_7 1_555 1_555
O13_4 Zn5_3 1_555 1_555
O14_4 Zn2_4 1_555 1_555
O15_4 Zn2_4 1_555 1_555
O16_4 Zn5_3 1_555 1_555
C48_7 N3_3 1_555 1_555
C50_7 C51_7 1_555 1_555
C53_7 N2_7 1_555 1_555
O2_7 Zn2_4 1_555 1_555
O7_7 Zn2_4 1_555 1_555
O8_7 Zn5_3 1_555 1_555
C1_8 C2_8 1_555 1_555
C2_8 C3_8 1_555 1_555
C3_8 H1_8 1_555 1_555
C4_8 C3_8 1_555 1_555
H2_8 C4_8 1_555 1_555
C5_8 C4_8 1_555 1_555
C6_8 C5_8 1_555 1_555
H3_8 C6_8 1_555 1_555
C7_8 C2_8 1_555 1_555
H4_8 C7_8 1_555 1_555
C8_8 C5_8 1_555 1_555
C9_8 C8_8 1_555 1_555
H5_8 C9_8 1_555 1_555
C10_8 C9_8 1_555 1_555
C11_8 C10_8 1_555 1_555
C12_8 C11_8 1_555 1_555
H6_8 C12_8 1_555 1_555
C13_8 C8_8 1_555 1_555
C14_8 H7_8 1_555 1_555
C15_8 C14_8 1_555 1_555
H8_8 C15_8 1_555 1_555
C16_8 C11_8 1_555 1_555
C17_8 C16_8 1_555 1_555
H9_8 C17_8 1_555 1_555
C18_8 C17_8 1_555 1_555
H10_8 C18_8 1_555 1_555
C19_8 C14_8 1_555 1_555
C20_8 C19_8 1_555 1_555
C21_8 H11_8 1_555 1_555
H12_8 C21_8 1_555 1_555
H13_8 C21_8 1_555 1_555
C22_8 H14_8 1_555 1_555
H15_8 C22_8 1_555 1_555
H16_8 C22_8 1_555 1_555
H32_8 C47_8 1_555 1_555
C48_8 C47_8 1_555 1_555
H33_8 C48_8 1_555 1_555
C49_8 H34_8 1_555 1_555
C50_8 C49_8 1_555 1_555
H35_8 C50_8 1_555 1_555
N2_8 C49_8 1_555 1_555
O1_8 C1_8 1_555 1_555
O2_8 C1_8 1_555 1_555
O13_4 C20_8 1_555 1_555
O14_4 C20_8 1_555 1_555
O5_8 C10_8 1_555 1_555
O6_8 C13_8 1_555 1_555
Zn5_4 O1_8 1_555 1_555
Zn6_2 N2_8 1_555 1_555
C6_8 C7_8 1_555 1_555
C12_8 C13_8 1_555 1_555
C15_8 C16_8 1_555 1_555
C18_8 C19_8 1_555 1_555
C21_8 O5_8 1_555 1_555
C22_8 O6_8 1_555 1_555
C50_8 C51_8 1_555 1_555
O2_8 Zn6_2 1_555 1_555
C23_8 C24_8 1_555 1_555
C24_8 C25_8 1_555 1_555
C25_8 H17_8 1_555 1_555
C26_8 C25_8 1_555 1_555
H18_8 C26_8 1_555 1_555
C27_8 C26_8 1_555 1_555
C28_8 C27_8 1_555 1_555
H19_8 C28_8 1_555 1_555
C29_8 C24_8 1_555 1_555
H20_8 C29_8 1_555 1_555
C30_8 C27_8 1_555 1_555
C31_8 C30_8 1_555 1_555
H21_8 C31_8 1_555 1_555
C32_8 C31_8 1_555 1_555
C33_8 C32_8 1_555 1_555
C34_8 C33_8 1_555 1_555
H22_8 C34_8 1_555 1_555
C35_8 C30_8 1_555 1_555
C36_8 H23_8 1_555 1_555
C37_8 C36_8 1_555 1_555
H24_8 C37_8 1_555 1_555
C38_8 C33_8 1_555 1_555
C39_8 C38_8 1_555 1_555
H25_8 C39_8 1_555 1_555
C40_8 C39_8 1_555 1_555
H26_8 C40_8 1_555 1_555
C41_8 C36_8 1_555 1_555
C42_8 C41_8 1_555 1_555
C43_8 H27_8 1_555 1_555
H28_8 C43_8 1_555 1_555
H29_8 C43_8 1_555 1_555
C44_8 H30_8 1_555 1_555
C45_8 C44_8 1_555 1_555
H31_8 C45_8 1_555 1_555
C46_8 C45_8 1_555 1_555
H36_8 C52_8 1_555 1_555
C53_8 C52_8 1_555 1_555
H37_8 C53_8 1_555 1_555
N3_4 C44_8 1_555 1_555
O7_8 C23_8 1_555 1_555
O8_8 C23_8 1_555 1_555
O15_4 C42_8 1_555 1_555
O16_4 C42_8 1_555 1_555
O11_8 C32_8 1_555 1_555
O12_8 C35_8 1_555 1_555
C54_8 O11_8 1_555 1_555
H39_8 C54_8 1_555 1_555
H40_8 C54_8 1_555 1_555
C28_8 C29_8 1_555 1_555
C34_8 C35_8 1_555 1_555
C37_8 C38_8 1_555 1_555
C40_8 C41_8 1_555 1_555
C43_8 O12_8 1_555 1_555

#END
