
###############################################################################
#
# This file contains modified crystal structure data generated from the
# MOF subset of the Cambridge Structural Database (CSD) v543 
# hosted by the Cambridge Crystallographic Data Centre (CCDC).
#
# This work is licensed under the Creative Commons
# Attribution-NonCommercial-ShareAlike 4.0 International License.
# To view a copy of this license, visit
# http://creativecommons.org/licenses/by-nc-sa/4.0/
# or send a letter to
# Creative Commons, PO Box 1866, Mountain View, CA 94042, USA.
#
# CIF created using the CSD Python API on 29 September 2022
# The structure has been converted into the P1 space group
# The structure has a 3D framework
# The original CSD entry HUZXUX is in the monoclinic crystal system
# The framework has been calculated to contain at least 10.0% void space
# The void calculation uses a probe of radius 1.32A, grid spacing 0.4
#
###############################################################################

data_HUZXUX
_chemical_formula_moiety         '(C560 H580 N16 O92 Zn16)n'
_symmetry_cell_setting           triclinic
_symmetry_space_group_name_H-M   'P 1'
_symmetry_Int_Tables_number      1
_space_group_name_Hall           'P 1'
loop_
_symmetry_equiv_pos_site_id
_symmetry_equiv_pos_as_xyz
1 x,y,z
_cell_length_a                   39.0490(7)
_cell_length_b                   27.5730(6)
_cell_length_c                   27.2180(6)
_cell_angle_alpha                90
_cell_angle_beta                 133.8830(10)
_cell_angle_gamma                90
_cell_volume                     21122.2
loop_
_atom_site_label
_atom_site_type_symbol
_atom_site_fract_x
_atom_site_fract_y
_atom_site_fract_z
H55 H 0.3118 0.5226 0.0061
Zn4 Zn 0.152498(16) 0.752830(15) 0.00501(2)
C1 C 0.09870(16) 0.19864(15) 0.3722(2)
C2 C 0.09674(17) 0.16619(16) 0.3263(3)
C3 C 0.05349(18) 0.15604(18) 0.2602(3)
H1 H 0.0258 0.1705 0.2442
C4 C 0.0515(2) 0.12513(19) 0.2190(3)
H2 H 0.0226 0.1202 0.1744
C5 C 0.0925(2) 0.1004(2) 0.2429(4)
C6 C 0.1359(2) 0.1128(2) 0.3083(4)
H3 H 0.1639 0.0996 0.3240
C7 C 0.1377(2) 0.1443(2) 0.3499(3)
H4 H 0.1666 0.1507 0.3939
C8 C 0.0910 0.0655 0.1993
C9 C 0.0545 0.0293 0.1684
H5 H 0.0333 0.0302 0.1736
C12 C 0.1080 0.0316 0.1397
H6 H 0.1189 0.0382 0.1189
C13 C 0.1123 0.0692 0.1823
C21 C 0.1878 0.1025 0.2117
H11 H 0.2077 0.0743 0.2369
H12 H 0.1762 0.1023 0.1666
C22 C 0.2133 0.1483 0.2488
H13 H 0.1901 0.1681 0.2429
H14 H 0.2368 0.1393 0.2966
C23 C 0.2359 0.1789 0.2413
H15 H 0.2682 0.1668 0.2737
H16 H 0.2369 0.2087 0.2613
C24 C 0.2298 0.1972 0.1821
H17 H 0.1990 0.1867 0.1396
H18 H 0.2537 0.1818 0.1856
C25 C 0.2335 0.2528 0.1786
H19 H 0.2292 0.2605 0.1403
H20 H 0.2642 0.2637 0.2198
H21 H 0.2093 0.2686 0.1736
C31 C 0.10565(18) 0.30085(17) 0.5375(3)
C32 C 0.10595(18) 0.33299(19) 0.5821(3)
C33 C 0.1487(2) 0.3520(3) 0.6427(4)
H33 H 0.1774 0.3433 0.6568
C34 C 0.1482(2) 0.3832(3) 0.6811(4)
H34 H 0.1772 0.3935 0.7226
C35 C 0.1082(2) 0.3999(2) 0.6624(4)
C36 C 0.0669(3) 0.3824(3) 0.6037(4)
H35 H 0.0385 0.3927 0.5892
C37 C 0.0660(2) 0.3485(3) 0.5634(4)
H36 H 0.0369 0.3370 0.5232
C38 C 0.1077 0.4376 0.7011
C39 C 0.1335 0.4786 0.7199
H37 H 0.1499 0.4824 0.7068
C40 C 0.1366 0.5158 0.7584
C41 C 0.1110 0.5092 0.7777
C42 C 0.0856 0.4682 0.7575
H38 H 0.0684 0.4643 0.7693
C43 C 0.0831 0.4326 0.7217
C44 C 0.06496(19) 0.60189(18) 0.8235(3)
H39 H 0.0362 0.6111 0.8090
C45 C 0.0663(2) 0.5639(2) 0.7915(3)
H40 H 0.0382 0.5483 0.7550
C46 C 0.1080(2) 0.54905(19) 0.8126(3)
C47 C 0.1486(2) 0.5726(2) 0.8654(4)
H41 H 0.1772 0.5634 0.8797
C48 C 0.14790(19) 0.61073(18) 0.8987(3)
H42 H 0.1762 0.6256 0.9361
C49 C 0.10599(17) 0.62600(16) 0.8766(2)
C50 C 0.10429(18) 0.67124(15) 0.9066(3)
C51 C 0.0603 0.3689 0.7608
H43 H 0.0302 0.3575 0.7438
H44 H 0.0738 0.3924 0.7968
C52 C 0.1000 0.3200 0.7900
H45 H 0.1145 0.3281 0.7731
H46 H 0.0789 0.2930 0.7621
C53 C 0.1910 0.5606 0.7595
H47 H 0.1775 0.5429 0.7186
H48 H 0.1950 0.5941 0.7534
C54 C 0.2317 0.5426 0.8104
H49 H 0.2505 0.5369 0.7997
H50 H 0.2287 0.5126 0.8258
C55 C 0.2565 0.5899 0.8718
H51 H 0.2794 0.6076 0.8749
H52 H 0.2313 0.6123 0.8555
C56 C 0.2729 0.5786 0.9198
H53 H 0.2496 0.5839 0.9223
H54 H 0.2978 0.6023 0.9502
C57 C 0.2995 0.5215 0.9610
H56 H 0.3249 0.5150 0.9637
H57 H 0.2760 0.4963 0.9353
C58 C 0.2483(3) 0.2569(5) 0.6340(5)
H58 H 0.2324 0.2692 0.6454
C59 C 0.2984(3) 0.2555(5) 0.6862(5)
H59 H 0.3129 0.2656 0.7296
C60 C 0.32388(18) 0.24207(19) 0.6781(3)
C61 C 0.2991(3) 0.2277(5) 0.6157(5)
H60 H 0.3145 0.2158 0.6032
C62 C 0.2503(2) 0.2302(4) 0.5684(4)
H61 H 0.2345 0.2205 0.5243
C63 C 0.45141(16) 0.2187(2) 0.7722(3)
H62 H 0.4683 0.2029 0.7644
C64 C 0.40287(16) 0.2167(2) 0.7226(3)
H63 H 0.3874 0.1991 0.6828
C65 C 0.37711(17) 0.24103(18) 0.7324(3)
C66 C 0.40178(18) 0.2649(2) 0.7926(3)
H64 H 0.3856 0.2812 0.8013
C67 C 0.45050(17) 0.2647(2) 0.8402(3)
H65 H 0.4665 0.2813 0.8809
N1 N 0.22494(13) 0.24394(13) 0.5778(2)
N2 N 0.47598(13) 0.24239(13) 0.8316(2)
O1 O 0.13874(11) 0.20796(12) 0.42967(18)
O2 O 0.06052(11) 0.21577(12) 0.35016(17)
O5 O 0.1467 0.1054 0.2084
O7 O 0.14444(12) 0.28908(13) 0.55769(19)
O8 O 0.06575(12) 0.28742(13) 0.48310(19)
O9 O 0.14268(11) 0.69190(12) 0.95328(19)
O10 O 0.06403(12) 0.68473(11) 0.88081(19)
O11 O 0.0541 0.3911 0.7024
O12 O 0.1571 0.5585 0.7687
Zn1 Zn 0.152498(16) 0.247170(15) 0.50501(2)
Zn2 Zn 0.048127(16) 0.252653(15) 0.40171(2)
C68 C 0.1489 0.2916 0.8730
H66 H 0.1755 0.2961 0.8773
H67 H 0.1542 0.3149 0.9044
C69 C 0.1602 0.2498 0.9062
H68 H 0.1696 0.2281 0.8892
H69 H 0.1306 0.2371 0.8895
C70 C 0.1947 0.2425 0.9790
H70 H 0.1955 0.2088 0.9886
H71 H 0.1860 0.2615 0.9986
H72 H 0.2255 0.2523 0.9982
O13 O 0.13356(12) 0.18920(12) 0.52718(19)
O14 O 0.05561(11) 0.18815(12) 0.44592(18)
O15 O 0.14268(11) 0.30810(12) 0.45328(19)
O16 O 0.06403(12) 0.31527(11) 0.38081(19)
Zn6 Zn 0.048127(16) 0.747347(15) 0.90171(2)
Zn7 Zn 0.548127(16) 0.247347(15) 0.90171(2)
C10 C 0.0518 0.9920 0.1296
C11 C 0.0902 0.9912 0.1309
C14 C 0.1325(2) 0.8887(2) 0.0909(4)
H7 H 0.1613 0.8740 0.1121
C15 C 0.1321(3) 0.9275(3) 0.1235(4)
H8 H 0.1601 0.9369 0.1669
C16 C 0.0911(3) 0.9517(3) 0.0921(4)
C17 C 0.0492(3) 0.9348(3) 0.0296(4)
H9 H 0.0203 0.9496 0.0082
C19 C 0.09245(19) 0.87162(18) 0.0297(3)
H31 H 0.0190 0.8170 0.0754
O3 O 0.13356(12) 0.81080(12) 0.02718(19)
O6 O 0.0170 0.9551 0.0993
C18 C 0.0511(2) 0.8949(2) 0.9991(3)
H10 H 0.0232 0.8841 0.9567
C20 C 0.09321(18) 0.82842(17) 0.9964(3)
O4 O 0.05561(11) 0.81185(12) 0.94592(18)
N3 N 0.97598(13) 0.25761(13) 0.3316(2)
H55_2 H 0.8118 0.0226 0.0061
Zn4_2 Zn 0.652498(16) 0.252830(15) 0.00501(2)
C40_2 C 0.6366 0.0158 0.7584
C41_2 C 0.6110 0.0092 0.7777
C44_2 C 0.56496(19) 0.10189(18) 0.8235(3)
H39_2 H 0.5362 0.1111 0.8090
C45_2 C 0.5663(2) 0.0639(2) 0.7915(3)
H40_2 H 0.5382 0.0483 0.7550
C46_2 C 0.6080(2) 0.04905(19) 0.8126(3)
C47_2 C 0.6486(2) 0.0726(2) 0.8654(4)
H41_2 H 0.6772 0.0634 0.8797
C48_2 C 0.64790(19) 0.11073(18) 0.8987(3)
H42_2 H 0.6762 0.1256 0.9361
C49_2 C 0.60599(17) 0.12600(16) 0.8766(2)
C50_2 C 0.60429(18) 0.17124(15) 0.9066(3)
C53_2 C 0.6910 0.0606 0.7595
H47_2 H 0.6775 0.0429 0.7186
H48_2 H 0.6950 0.0941 0.7534
C54_2 C 0.7317 0.0426 0.8104
H49_2 H 0.7505 0.0369 0.7997
H50_2 H 0.7287 0.0126 0.8258
C55_2 C 0.7565 0.0899 0.8718
H51_2 H 0.7794 0.1076 0.8749
H52_2 H 0.7313 0.1123 0.8555
C56_2 C 0.7729 0.0786 0.9198
H53_2 H 0.7496 0.0839 0.9223
H54_2 H 0.7978 0.1023 0.9502
C57_2 C 0.7995 0.0215 0.9610
H56_2 H 0.8249 0.0150 0.9637
O9_2 O 0.64268(11) 0.19190(12) 0.95328(19)
O10_2 O 0.56403(12) 0.18473(11) 0.88081(19)
O12_2 O 0.6571 0.0585 0.7687
C1_2 C 0.59870(16) 0.69864(15) 0.3722(2)
C2_2 C 0.59674(17) 0.66619(16) 0.3263(3)
C3_2 C 0.55349(18) 0.65604(18) 0.2602(3)
H1_2 H 0.5258 0.6705 0.2442
C4_2 C 0.5515(2) 0.62513(19) 0.2190(3)
H2_2 H 0.5226 0.6202 0.1744
C5_2 C 0.5925(2) 0.6004(2) 0.2429(4)
C6_2 C 0.6359(2) 0.6128(2) 0.3083(4)
H3_2 H 0.6639 0.5996 0.3240
C7_2 C 0.6377(2) 0.6443(2) 0.3499(3)
H4_2 H 0.6666 0.6507 0.3939
C8_2 C 0.5910 0.5655 0.1993
C9_2 C 0.5545 0.5293 0.1684
H5_2 H 0.5333 0.5302 0.1736
C10_2 C 0.5518 0.4920 0.1296
C11_2 C 0.5902 0.4912 0.1309
C12_2 C 0.6080 0.5316 0.1397
H6_2 H 0.6189 0.5382 0.1189
C13_2 C 0.6123 0.5692 0.1823
C14_2 C 0.6325(2) 0.3887(2) 0.0909(4)
H7_2 H 0.6613 0.3740 0.1121
C15_2 C 0.6321(3) 0.4275(3) 0.1235(4)
H8_2 H 0.6601 0.4369 0.1669
C16_2 C 0.5911(3) 0.4517(3) 0.0921(4)
C17_2 C 0.5492(3) 0.4348(3) 0.0296(4)
H9_2 H 0.5203 0.4496 0.0082
C19_2 C 0.59245(19) 0.37162(18) 0.0297(3)
C21_2 C 0.6878 0.6025 0.2117
H11_2 H 0.7077 0.5743 0.2369
H12_2 H 0.6762 0.6023 0.1666
C22_2 C 0.7133 0.6483 0.2488
H13_2 H 0.6901 0.6681 0.2429
H14_2 H 0.7368 0.6393 0.2966
C23_2 C 0.7359 0.6789 0.2413
H15_2 H 0.7682 0.6668 0.2737
H16_2 H 0.7369 0.7087 0.2613
C24_2 C 0.7298 0.6972 0.1821
H17_2 H 0.6990 0.6867 0.1396
H18_2 H 0.7537 0.6818 0.1856
C25_2 C 0.7335 0.7528 0.1786
H19_2 H 0.7292 0.7605 0.1403
H20_2 H 0.7642 0.7637 0.2198
H21_2 H 0.7093 0.7686 0.1736
C26 C 0.4749 0.4594 0.0881
H22 H 0.4591 0.4902 0.0666
H23 H 0.4834 0.4574 0.1310
C27 C 0.4437 0.4190 0.0435
H24 H 0.4129 0.4348 0.0114
H25 H 0.4429 0.4003 0.0729
C29 C 0.4432 0.3277 0.0185
H29 H 0.4472 0.3278 0.0579
C30 C 0.4904 0.2996 0.0391
H30 H 0.4927 0.2670 0.0536
H31_2 H 0.5190 0.3170 0.0754
H32 H 0.4863 0.2989 0.0000
C31_2 C 0.60565(18) 0.80085(17) 0.5375(3)
C32_2 C 0.60595(18) 0.83299(19) 0.5821(3)
C33_2 C 0.6487(2) 0.8520(3) 0.6427(4)
H33_2 H 0.6774 0.8433 0.6568
C34_2 C 0.6482(2) 0.8832(3) 0.6811(4)
H34_2 H 0.6772 0.8935 0.7226
C35_2 C 0.6082(2) 0.8999(2) 0.6624(4)
C36_2 C 0.5669(3) 0.8824(3) 0.6037(4)
H35_2 H 0.5385 0.8927 0.5892
C37_2 C 0.5660(2) 0.8485(3) 0.5634(4)
H36_2 H 0.5369 0.8370 0.5232
C38_2 C 0.6077 0.9376 0.7011
C39_2 C 0.6335 0.9786 0.7199
H37_2 H 0.6499 0.9824 0.7068
C42_2 C 0.5856 0.9682 0.7575
H38_2 H 0.5684 0.9643 0.7693
C43_2 C 0.5831 0.9326 0.7217
C51_2 C 0.5603 0.8689 0.7608
H43_2 H 0.5302 0.8575 0.7438
H44_2 H 0.5738 0.8924 0.7968
C52_2 C 0.6000 0.8200 0.7900
H45_2 H 0.6145 0.8281 0.7731
H46_2 H 0.5789 0.7930 0.7621
H57_2 H 0.7760 0.9963 0.9353
C58_2 C 0.7483(3) 0.7569(5) 0.6340(5)
H58_2 H 0.7324 0.7692 0.6454
C59_2 C 0.7984(3) 0.7555(5) 0.6862(5)
H59_2 H 0.8129 0.7656 0.7296
C60_2 C 0.82388(18) 0.74207(19) 0.6781(3)
C61_2 C 0.7991(3) 0.7277(5) 0.6157(5)
H60_2 H 0.8145 0.7158 0.6032
C62_2 C 0.7503(2) 0.7302(4) 0.5684(4)
H61_2 H 0.7345 0.7205 0.5243
C63_2 C 0.95141(16) 0.7187(2) 0.7722(3)
H62_2 H 0.9683 0.7029 0.7644
C64_2 C 0.90287(16) 0.7167(2) 0.7226(3)
H63_2 H 0.8874 0.6991 0.6828
C65_2 C 0.87711(17) 0.74103(18) 0.7324(3)
C66_2 C 0.90178(18) 0.7649(2) 0.7926(3)
H64_2 H 0.8856 0.7812 0.8013
C67_2 C 0.95050(17) 0.7647(2) 0.8402(3)
H65_2 H 0.9665 0.7813 0.8809
N1_2 N 0.72494(13) 0.74394(13) 0.5778(2)
N2_2 N 0.97598(13) 0.74239(13) 0.8316(2)
O1_2 O 0.63874(11) 0.70796(12) 0.42967(18)
O2_2 O 0.56052(11) 0.71577(12) 0.35016(17)
O3_2 O 0.63356(12) 0.31080(12) 0.02718(19)
O5_2 O 0.6467 0.6054 0.2084
O6_2 O 0.5170 0.4551 0.0993
O7_2 O 0.64444(12) 0.78908(13) 0.55769(19)
O8_2 O 0.56575(12) 0.78742(13) 0.48310(19)
O11_2 O 0.5541 0.8911 0.7024
Zn1_2 Zn 0.652498(16) 0.747170(15) 0.50501(2)
Zn2_2 Zn 0.548127(16) 0.752653(15) 0.40171(2)
C68_2 C 0.6489 0.7916 0.8730
H66_2 H 0.6755 0.7961 0.8773
H67_2 H 0.6542 0.8149 0.9044
C69_2 C 0.6602 0.7498 0.9062
H68_2 H 0.6696 0.7281 0.8892
H69_2 H 0.6306 0.7371 0.8895
C70_2 C 0.6947 0.7425 0.9790
H70_2 H 0.6955 0.7088 0.9886
H71_2 H 0.6860 0.7615 0.9986
H72_2 H 0.7255 0.7523 0.9982
N3_2 N 0.47598(13) 0.75761(13) 0.3316(2)
O13_2 O 0.63356(12) 0.68920(12) 0.52718(19)
O14_2 O 0.55561(11) 0.68815(12) 0.44592(18)
O15_2 O 0.64268(11) 0.80810(12) 0.45328(19)
O16_2 O 0.56403(12) 0.81527(11) 0.38081(19)
C18_2 C 0.5511(2) 0.3949(2) 0.9991(3)
H10_2 H 0.5232 0.3841 0.9567
C20_2 C 0.59321(18) 0.32842(17) 0.9964(3)
C28 C 0.4380 0.3767 0.9964
H26 H 0.4069 0.3799 0.9505
H27 H 0.4614 0.3824 0.9941
H28 H 0.4145 0.3097 0.9824
H32_2 H 0.4863 0.2989 1.0000
O4_2 O 0.55561(11) 0.31185(12) 0.94592(18)
C10_3 C 0.0518 0.0080 0.6296
C11_3 C 0.0902 0.0088 0.6309
C14_3 C 0.1325(2) 0.1113(2) 0.5909(4)
H7_3 H 0.1613 0.1260 0.6121
C15_3 C 0.1321(3) 0.0725(3) 0.6235(4)
H8_3 H 0.1601 0.0631 0.6669
C16_3 C 0.0911(3) 0.0483(3) 0.5921(4)
C17_3 C 0.0492(3) 0.0652(3) 0.5296(4)
H9_3 H 0.0203 0.0504 0.5082
C18_3 C 0.0511(2) 0.1051(2) 0.4991(3)
H10_3 H 0.0232 0.1159 0.4567
C19_3 C 0.09245(19) 0.12838(18) 0.5297(3)
C20_3 C 0.09321(18) 0.17158(17) 0.4964(3)
H31_3 H 0.0190 0.1830 0.5754
O6_3 O 0.0170 0.0449 0.5993
C31_3 C 0.10565(18) 0.69915(17) 0.0375(3)
C32_3 C 0.10595(18) 0.66701(19) 0.0821(3)
C33_3 C 0.1487(2) 0.6480(3) 0.1427(4)
H33_3 H 0.1774 0.6567 0.1568
C34_3 C 0.1482(2) 0.6168(3) 0.1811(4)
H34_3 H 0.1772 0.6065 0.2226
C35_3 C 0.1082(2) 0.6001(2) 0.1624(4)
C36_3 C 0.0669(3) 0.6176(3) 0.1037(4)
H35_3 H 0.0385 0.6073 0.0892
C37_3 C 0.0660(2) 0.6515(3) 0.0634(4)
H36_3 H 0.0369 0.6630 0.0232
C38_3 C 0.1077 0.5624 0.2011
C39_3 C 0.1335 0.5214 0.2199
H37_3 H 0.1499 0.5176 0.2068
C40_3 C 0.1366 0.4842 0.2584
C41_3 C 0.1110 0.4908 0.2777
C42_3 C 0.0856 0.5318 0.2575
H38_3 H 0.0684 0.5357 0.2693
C43_3 C 0.0831 0.5674 0.2217
C44_3 C 0.06496(19) 0.39811(18) 0.3235(3)
H39_3 H 0.0362 0.3889 0.3090
C45_3 C 0.0663(2) 0.4361(2) 0.2915(3)
H40_3 H 0.0382 0.4517 0.2550
C46_3 C 0.1080(2) 0.45095(19) 0.3126(3)
C47_3 C 0.1486(2) 0.4274(2) 0.3654(4)
H41_3 H 0.1772 0.4366 0.3797
C48_3 C 0.14790(19) 0.38927(18) 0.3987(3)
H42_3 H 0.1762 0.3744 0.4361
C49_3 C 0.10599(17) 0.37400(16) 0.3766(2)
C50_3 C 0.10429(18) 0.32876(15) 0.4066(3)
C51_3 C 0.0603 0.6311 0.2608
H43_3 H 0.0302 0.6425 0.2438
H44_3 H 0.0738 0.6076 0.2968
C52_3 C 0.1000 0.6800 0.2900
H45_3 H 0.1145 0.6719 0.2731
H46_3 H 0.0789 0.7070 0.2621
C53_3 C 0.1910 0.4394 0.2595
H47_3 H 0.1775 0.4571 0.2186
H48_3 H 0.1950 0.4059 0.2534
C54_3 C 0.2317 0.4574 0.3104
H49_3 H 0.2505 0.4631 0.2997
H50_3 H 0.2287 0.4874 0.3258
C55_3 C 0.2565 0.4101 0.3718
H51_3 H 0.2794 0.3924 0.3749
H52_3 H 0.2313 0.3877 0.3555
C56_3 C 0.2729 0.4214 0.4198
H53_3 H 0.2496 0.4161 0.4223
H54_3 H 0.2978 0.3977 0.4502
C57_3 C 0.2995 0.4785 0.4610
H55_3 H 0.3118 0.4774 0.5061
H56_3 H 0.3249 0.4850 0.4637
H57_3 H 0.2760 0.5037 0.4353
C58_3 C 0.2483(3) 0.7431(5) 0.1340(5)
H58_3 H 0.2324 0.7308 0.1454
C59_3 C 0.2984(3) 0.7445(5) 0.1862(5)
H59_3 H 0.3129 0.7344 0.2296
C60_3 C 0.32388(18) 0.75793(19) 0.1781(3)
C61_3 C 0.2991(3) 0.7723(5) 0.1157(5)
H60_3 H 0.3145 0.7842 0.1032
C62_3 C 0.2503(2) 0.7698(4) 0.0684(4)
H61_3 H 0.2345 0.7795 0.0243
C63_3 C 0.45141(16) 0.7813(2) 0.2722(3)
H62_3 H 0.4683 0.7971 0.2644
C64_3 C 0.40287(16) 0.7833(2) 0.2226(3)
H63_3 H 0.3874 0.8009 0.1828
C65_3 C 0.37711(17) 0.75897(18) 0.2324(3)
C66_3 C 0.40178(18) 0.7351(2) 0.2926(3)
H64_3 H 0.3856 0.7188 0.3013
C67_3 C 0.45050(17) 0.7353(2) 0.3402(3)
H65_3 H 0.4665 0.7187 0.3809
N1_3 N 0.22494(13) 0.75606(13) 0.0778(2)
O7_3 O 0.14444(12) 0.71092(13) 0.05769(19)
O11_3 O 0.0541 0.6089 0.2024
O12_3 O 0.1571 0.4415 0.2687
C68_3 C 0.1489 0.7084 0.3730
H66_3 H 0.1755 0.7039 0.3773
H67_3 H 0.1542 0.6851 0.4044
C69_3 C 0.1602 0.7502 0.4062
H68_3 H 0.1696 0.7719 0.3892
H69_3 H 0.1306 0.7629 0.3895
C70_3 C 0.1947 0.7575 0.4790
H70_3 H 0.1955 0.7912 0.4886
H71_3 H 0.1860 0.7385 0.4986
H72_3 H 0.2255 0.7477 0.4982
C1_3 C 0.09870(16) 0.80136(15) 0.8722(2)
C2_3 C 0.09674(17) 0.83381(16) 0.8263(3)
C3_3 C 0.05349(18) 0.84396(18) 0.7602(3)
H1_3 H 0.0258 0.8295 0.7442
C4_3 C 0.0515(2) 0.87487(19) 0.7190(3)
H2_3 H 0.0226 0.8798 0.6744
C5_3 C 0.0925(2) 0.8996(2) 0.7429(4)
C6_3 C 0.1359(2) 0.8872(2) 0.8083(4)
H3_3 H 0.1639 0.9004 0.8240
C7_3 C 0.1377(2) 0.8557(2) 0.8499(3)
H4_3 H 0.1666 0.8493 0.8939
C8_3 C 0.0910 0.9345 0.6993
C9_3 C 0.0545 0.9707 0.6684
H5_3 H 0.0333 0.9698 0.6736
C12_3 C 0.1080 0.9684 0.6397
H6_3 H 0.1189 0.9618 0.6189
C13_3 C 0.1123 0.9308 0.6823
C21_3 C 0.1878 0.8975 0.7117
H11_3 H 0.2077 0.9257 0.7369
H12_3 H 0.1762 0.8977 0.6666
C22_3 C 0.2133 0.8517 0.7488
H13_3 H 0.1901 0.8319 0.7429
H14_3 H 0.2368 0.8607 0.7966
C23_3 C 0.2359 0.8211 0.7413
H15_3 H 0.2682 0.8332 0.7737
H16_3 H 0.2369 0.7913 0.7613
C24_3 C 0.2298 0.8028 0.6821
H17_3 H 0.1990 0.8133 0.6396
H18_3 H 0.2537 0.8182 0.6856
C25_3 C 0.2335 0.7472 0.6786
H19_3 H 0.2292 0.7395 0.6403
H20_3 H 0.2642 0.7363 0.7198
H21_3 H 0.2093 0.7314 0.6736
O1_3 O 0.13874(11) 0.79204(12) 0.92967(18)
O2_3 O 0.06052(11) 0.78423(12) 0.85016(17)
O5_3 O 0.1467 0.8946 0.7084
O8_3 O 0.06575(12) 0.71258(13) 0.98310(19)
C31_4 C 0.60565(18) 0.19915(17) 0.0375(3)
C32_4 C 0.60595(18) 0.16701(19) 0.0821(3)
C33_4 C 0.6487(2) 0.1480(3) 0.1427(4)
H33_4 H 0.6774 0.1567 0.1568
C34_4 C 0.6482(2) 0.1168(3) 0.1811(4)
H34_4 H 0.6772 0.1065 0.2226
C35_4 C 0.6082(2) 0.1001(2) 0.1624(4)
C36_4 C 0.5669(3) 0.1176(3) 0.1037(4)
H35_4 H 0.5385 0.1073 0.0892
C37_4 C 0.5660(2) 0.1515(3) 0.0634(4)
H36_4 H 0.5369 0.1630 0.0232
C38_4 C 0.6077 0.0624 0.2011
C39_4 C 0.6335 0.0214 0.2199
H37_4 H 0.6499 0.0176 0.2068
C42_4 C 0.5856 0.0318 0.2575
H38_4 H 0.5684 0.0357 0.2693
C43_4 C 0.5831 0.0674 0.2217
C51_4 C 0.5603 0.1311 0.2608
H43_4 H 0.5302 0.1425 0.2438
H44_4 H 0.5738 0.1076 0.2968
C52_4 C 0.6000 0.1800 0.2900
H45_4 H 0.6145 0.1719 0.2731
H46_4 H 0.5789 0.2070 0.2621
H57_4 H 0.7760 0.0037 0.4353
C58_4 C 0.7483(3) 0.2431(5) 0.1340(5)
H58_4 H 0.7324 0.2308 0.1454
C59_4 C 0.7984(3) 0.2445(5) 0.1862(5)
H59_4 H 0.8129 0.2344 0.2296
C60_4 C 0.82388(18) 0.25793(19) 0.1781(3)
C61_4 C 0.7991(3) 0.2723(5) 0.1157(5)
H60_4 H 0.8145 0.2842 0.1032
C62_4 C 0.7503(2) 0.2698(4) 0.0684(4)
H61_4 H 0.7345 0.2795 0.0243
C63_4 C 0.95141(16) 0.2813(2) 0.2722(3)
H62_4 H 0.9683 0.2971 0.2644
C64_4 C 0.90287(16) 0.2833(2) 0.2226(3)
H63_4 H 0.8874 0.3009 0.1828
C65_4 C 0.87711(17) 0.25897(18) 0.2324(3)
C66_4 C 0.90178(18) 0.2351(2) 0.2926(3)
H64_4 H 0.8856 0.2188 0.3013
C67_4 C 0.95050(17) 0.2353(2) 0.3402(3)
H65_4 H 0.9665 0.2187 0.3809
N1_4 N 0.72494(13) 0.25606(13) 0.0778(2)
O7_4 O 0.64444(12) 0.21092(13) 0.05769(19)
O11_4 O 0.5541 0.1089 0.2024
C68_4 C 0.6489 0.2084 0.3730
H66_4 H 0.6755 0.2039 0.3773
H67_4 H 0.6542 0.1851 0.4044
C69_4 C 0.6602 0.2502 0.4062
H68_4 H 0.6696 0.2719 0.3892
H69_4 H 0.6306 0.2629 0.3895
C70_4 C 0.6947 0.2575 0.4790
H70_4 H 0.6955 0.2912 0.4886
H71_4 H 0.6860 0.2385 0.4986
H72_4 H 0.7255 0.2477 0.4982
C1_4 C 0.59870(16) 0.30136(15) 0.8722(2)
C2_4 C 0.59674(17) 0.33381(16) 0.8263(3)
C3_4 C 0.55349(18) 0.34396(18) 0.7602(3)
H1_4 H 0.5258 0.3295 0.7442
C4_4 C 0.5515(2) 0.37487(19) 0.7190(3)
H2_4 H 0.5226 0.3798 0.6744
C5_4 C 0.5925(2) 0.3996(2) 0.7429(4)
C6_4 C 0.6359(2) 0.3872(2) 0.8083(4)
H3_4 H 0.6639 0.4004 0.8240
C7_4 C 0.6377(2) 0.3557(2) 0.8499(3)
H4_4 H 0.6666 0.3493 0.8939
C8_4 C 0.5910 0.4345 0.6993
C9_4 C 0.5545 0.4707 0.6684
H5_4 H 0.5333 0.4698 0.6736
C10_4 C 0.5518 0.5080 0.6296
C11_4 C 0.5902 0.5088 0.6309
C12_4 C 0.6080 0.4684 0.6397
H6_4 H 0.6189 0.4618 0.6189
C13_4 C 0.6123 0.4308 0.6823
C14_4 C 0.6325(2) 0.6113(2) 0.5909(4)
H7_4 H 0.6613 0.6260 0.6121
C15_4 C 0.6321(3) 0.5725(3) 0.6235(4)
H8_4 H 0.6601 0.5631 0.6669
C16_4 C 0.5911(3) 0.5483(3) 0.5921(4)
C17_4 C 0.5492(3) 0.5652(3) 0.5296(4)
H9_4 H 0.5203 0.5504 0.5082
C18_4 C 0.5511(2) 0.6051(2) 0.4991(3)
H10_4 H 0.5232 0.6159 0.4567
C19_4 C 0.59245(19) 0.62838(18) 0.5297(3)
C20_4 C 0.59321(18) 0.67158(17) 0.4964(3)
C21_4 C 0.6878 0.3975 0.7117
H11_4 H 0.7077 0.4257 0.7369
H12_4 H 0.6762 0.3977 0.6666
C22_4 C 0.7133 0.3517 0.7488
H13_4 H 0.6901 0.3319 0.7429
H14_4 H 0.7368 0.3607 0.7966
C23_4 C 0.7359 0.3211 0.7413
H15_4 H 0.7682 0.3332 0.7737
H16_4 H 0.7369 0.2913 0.7613
C24_4 C 0.7298 0.3028 0.6821
H17_4 H 0.6990 0.3133 0.6396
H18_4 H 0.7537 0.3182 0.6856
C25_4 C 0.7335 0.2472 0.6786
H19_4 H 0.7292 0.2395 0.6403
H20_4 H 0.7642 0.2363 0.7198
H21_4 H 0.7093 0.2314 0.6736
C26_2 C 0.4749 0.5406 0.5881
H22_2 H 0.4591 0.5098 0.5666
H23_2 H 0.4834 0.5426 0.6310
C27_2 C 0.4437 0.5810 0.5435
H24_2 H 0.4129 0.5652 0.5114
H25_2 H 0.4429 0.5997 0.5729
C28_2 C 0.4380 0.6233 0.4964
H26_2 H 0.4069 0.6201 0.4505
H27_2 H 0.4614 0.6176 0.4941
C29_2 C 0.4432 0.6723 0.5185
H28_2 H 0.4145 0.6903 0.4824
H29_2 H 0.4472 0.6722 0.5579
C30_2 C 0.4904 0.7004 0.5391
H30_2 H 0.4927 0.7330 0.5536
H31_4 H 0.5190 0.6830 0.5754
H32_3 H 0.4863 0.7011 0.5000
O1_4 O 0.63874(11) 0.29204(12) 0.92967(18)
O2_4 O 0.56052(11) 0.28423(12) 0.85016(17)
O5_4 O 0.6467 0.3946 0.7084
O6_4 O 0.5170 0.5449 0.5993
O8_4 O 0.56575(12) 0.21258(13) 0.98310(19)
C40_4 C 0.6366 0.9842 0.2584
C41_4 C 0.6110 0.9908 0.2777
C44_4 C 0.56496(19) 0.89811(18) 0.3235(3)
H39_4 H 0.5362 0.8889 0.3090
C45_4 C 0.5663(2) 0.9361(2) 0.2915(3)
H40_4 H 0.5382 0.9517 0.2550
C46_4 C 0.6080(2) 0.95095(19) 0.3126(3)
C47_4 C 0.6486(2) 0.9274(2) 0.3654(4)
H41_4 H 0.6772 0.9366 0.3797
C48_4 C 0.64790(19) 0.88927(18) 0.3987(3)
H42_4 H 0.6762 0.8744 0.4361
C49_4 C 0.60599(17) 0.87400(16) 0.3766(2)
C50_4 C 0.60429(18) 0.82876(15) 0.4066(3)
C53_4 C 0.6910 0.9394 0.2595
H47_4 H 0.6775 0.9571 0.2186
H48_4 H 0.6950 0.9059 0.2534
C54_4 C 0.7317 0.9574 0.3104
H49_4 H 0.7505 0.9631 0.2997
H50_4 H 0.7287 0.9874 0.3258
C55_4 C 0.7565 0.9101 0.3718
H51_4 H 0.7794 0.8924 0.3749
H52_4 H 0.7313 0.8877 0.3555
C56_4 C 0.7729 0.9214 0.4198
H53_4 H 0.7496 0.9161 0.4223
H54_4 H 0.7978 0.8977 0.4502
C57_4 C 0.7995 0.9785 0.4610
H55_4 H 0.8118 0.9774 0.5061
H56_4 H 0.8249 0.9850 0.4637
O12_4 O 0.6571 0.9415 0.2687
C26_3 C 0.9749 0.9594 0.0881
H22_3 H 0.9591 0.9902 0.0666
H23_3 H 0.9834 0.9574 0.1310
C27_3 C 0.9437 0.9190 0.0435
H24_3 H 0.9129 0.9348 0.0114
H25_3 H 0.9429 0.9003 0.0729
C29_3 C 0.9432 0.8277 0.0185
H29_3 H 0.9472 0.8278 0.0579
C30_3 C 0.9904 0.7996 0.0391
H30_3 H 0.9927 0.7670 0.0536
H32_4 H 0.9863 0.7989 0.0000
C28_3 C 0.9380 0.8767 0.9964
H26_3 H 0.9069 0.8799 0.9505
H27_3 H 0.9614 0.8824 0.9941
H28_3 H 0.9145 0.8097 0.9824
H32_5 H 0.9863 0.7989 1.0000
N3_3 N 0.02402(13) 0.25761(13) 0.1684(2)
C1_5 C 0.90130(16) 0.19864(15) 0.1278(2)
C2_5 C 0.90326(17) 0.16619(16) 0.1737(3)
C3_5 C 0.94651(18) 0.15604(18) 0.2398(3)
H1_5 H 0.9742 0.1705 0.2558
C4_5 C 0.9485(2) 0.12513(19) 0.2810(3)
H2_5 H 0.9774 0.1202 0.3256
C5_5 C 0.9075(2) 0.1004(2) 0.2571(4)
C6_5 C 0.8641(2) 0.1128(2) 0.1917(4)
H3_5 H 0.8361 0.0996 0.1760
C7_5 C 0.8623(2) 0.1443(2) 0.1501(3)
H4_5 H 0.8334 0.1507 0.1061
C8_5 C 0.9090 0.0655 0.3007
C9_5 C 0.9455 0.0293 0.3316
H5_5 H 0.9667 0.0302 0.3264
C12_5 C 0.8920 0.0316 0.3603
H6_5 H 0.8811 0.0382 0.3811
C13_5 C 0.8877 0.0692 0.3177
C21_5 C 0.8122 0.1025 0.2883
H11_5 H 0.7923 0.0743 0.2631
H12_5 H 0.8238 0.1023 0.3334
C22_5 C 0.7867 0.1483 0.2512
H13_5 H 0.8099 0.1681 0.2571
H14_5 H 0.7632 0.1393 0.2034
C23_5 C 0.7641 0.1789 0.2587
H15_5 H 0.7318 0.1668 0.2263
H16_5 H 0.7631 0.2087 0.2387
C24_5 C 0.7702 0.1972 0.3179
H17_5 H 0.8010 0.1867 0.3604
H18_5 H 0.7463 0.1818 0.3144
C25_5 C 0.7665 0.2528 0.3214
H19_5 H 0.7708 0.2605 0.3597
H20_5 H 0.7358 0.2637 0.2802
H21_5 H 0.7907 0.2686 0.3264
O1_5 O 0.86126(11) 0.20796(12) 0.07033(18)
O2_5 O 0.93948(11) 0.21577(12) 0.14984(17)
O5_5 O 0.8533 0.1054 0.2916
O8_5 O 0.93425(12) 0.28742(13) 0.01690(19)
Zn2_3 Zn 0.951873(16) 0.252653(15) 0.09829(2)
O14_3 O 0.94439(11) 0.18815(12) 0.05408(18)
O15_3 O 0.85732(11) 0.30810(12) 0.04672(19)
O16_3 O 0.93597(12) 0.31527(11) 0.11919(19)
C31_5 C 0.89435(18) 0.30085(17) 0.9625(3)
C32_5 C 0.89405(18) 0.33299(19) 0.9179(3)
C33_5 C 0.8513(2) 0.3520(3) 0.8573(4)
H33_5 H 0.8226 0.3433 0.8432
C34_5 C 0.8518(2) 0.3832(3) 0.8189(4)
H34_5 H 0.8228 0.3935 0.7774
C35_5 C 0.8918(2) 0.3999(2) 0.8376(4)
C36_5 C 0.9331(3) 0.3824(3) 0.8963(4)
H35_5 H 0.9615 0.3927 0.9108
C37_5 C 0.9340(2) 0.3485(3) 0.9366(4)
H36_5 H 0.9631 0.3370 0.9768
C38_5 C 0.8923 0.4376 0.7989
C39_5 C 0.8665 0.4786 0.7801
H37_5 H 0.8501 0.4824 0.7932
C40_5 C 0.8634 0.5158 0.7416
C41_5 C 0.8890 0.5092 0.7223
C42_5 C 0.9144 0.4682 0.7425
H38_5 H 0.9316 0.4643 0.7307
C43_5 C 0.9169 0.4326 0.7783
C44_5 C 0.93504(19) 0.60189(18) 0.6765(3)
H39_5 H 0.9638 0.6111 0.6910
C45_5 C 0.9337(2) 0.5639(2) 0.7085(3)
H40_5 H 0.9618 0.5483 0.7450
C46_5 C 0.8920(2) 0.54905(19) 0.6874(3)
C47_5 C 0.8514(2) 0.5726(2) 0.6346(4)
H41_5 H 0.8228 0.5634 0.6203
C48_5 C 0.85210(19) 0.61073(18) 0.6013(3)
H42_5 H 0.8238 0.6256 0.5639
C49_5 C 0.89401(17) 0.62600(16) 0.6234(2)
C50_5 C 0.89571(18) 0.67124(15) 0.5934(3)
C51_5 C 0.9397 0.3689 0.7392
H43_5 H 0.9698 0.3575 0.7562
H44_5 H 0.9262 0.3924 0.7032
C52_5 C 0.9000 0.3200 0.7100
H45_5 H 0.8855 0.3281 0.7269
H46_5 H 0.9211 0.2930 0.7379
C53_5 C 0.8090 0.5606 0.7405
H47_5 H 0.8225 0.5429 0.7814
H48_5 H 0.8050 0.5941 0.7466
C54_5 C 0.7683 0.5426 0.6896
H49_5 H 0.7495 0.5369 0.7003
H50_5 H 0.7713 0.5126 0.6742
C55_5 C 0.7435 0.5899 0.6282
H51_5 H 0.7206 0.6076 0.6251
H52_5 H 0.7687 0.6123 0.6445
C56_5 C 0.7271 0.5786 0.5802
H53_5 H 0.7504 0.5839 0.5777
H54_5 H 0.7022 0.6023 0.5498
C57_5 C 0.7005 0.5215 0.5390
H55_5 H 0.6882 0.5226 0.4939
H56_5 H 0.6751 0.5150 0.5363
H57_5 H 0.7240 0.4963 0.5647
C58_5 C 0.7517(3) 0.2569(5) 0.8660(5)
H58_5 H 0.7676 0.2692 0.8546
C59_5 C 0.7016(3) 0.2555(5) 0.8138(5)
H59_5 H 0.6871 0.2656 0.7704
C60_5 C 0.67612(18) 0.24207(19) 0.8219(3)
C61_5 C 0.7009(3) 0.2277(5) 0.8843(5)
H60_5 H 0.6855 0.2158 0.8968
C62_5 C 0.7497(2) 0.2302(4) 0.9316(4)
H61_5 H 0.7655 0.2205 0.9757
C63_5 C 0.54859(16) 0.2187(2) 0.7278(3)
H62_5 H 0.5317 0.2029 0.7356
C64_5 C 0.59713(16) 0.2167(2) 0.7774(3)
H63_5 H 0.6126 0.1991 0.8172
C65_5 C 0.62289(17) 0.24103(18) 0.7676(3)
C66_5 C 0.59822(18) 0.2649(2) 0.7074(3)
H64_5 H 0.6144 0.2812 0.6987
C67_5 C 0.54950(17) 0.2647(2) 0.6598(3)
H65_5 H 0.5335 0.2813 0.6191
N1_5 N 0.77506(13) 0.24394(13) 0.9222(2)
N2_3 N 0.52402(13) 0.24239(13) 0.6684(2)
O7_5 O 0.85556(12) 0.28908(13) 0.94231(19)
O9_3 O 0.85732(11) 0.69190(12) 0.54672(19)
O10_3 O 0.93597(12) 0.68473(11) 0.61919(19)
O11_5 O 0.9459 0.3911 0.7976
O12_5 O 0.8429 0.5585 0.7313
Zn1_3 Zn 0.847502(16) 0.247170(15) 0.99499(2)
C68_5 C 0.8511 0.2916 0.6270
H66_5 H 0.8245 0.2961 0.6227
H67_5 H 0.8458 0.3149 0.5956
C69_5 C 0.8398 0.2498 0.5938
H68_5 H 0.8304 0.2281 0.6108
H69_5 H 0.8694 0.2371 0.6105
C70_5 C 0.8053 0.2425 0.5210
H70_5 H 0.8045 0.2088 0.5114
H71_5 H 0.8140 0.2615 0.5014
H72_5 H 0.7745 0.2523 0.5018
O13_3 O 0.86644(12) 0.18920(12) 0.97282(19)
Zn4_3 Zn 0.847502(16) 0.752830(15) 0.49499(2)
Zn6_2 Zn 0.951873(16) 0.747347(15) 0.59829(2)
Zn7_2 Zn 0.451873(16) 0.247347(15) 0.59829(2)
C10_5 C 0.9482 0.9920 0.3704
C11_5 C 0.9098 0.9912 0.3691
C14_5 C 0.8675(2) 0.8887(2) 0.4091(4)
H7_5 H 0.8387 0.8740 0.3879
C15_5 C 0.8679(3) 0.9275(3) 0.3765(4)
H8_5 H 0.8399 0.9369 0.3331
C16_5 C 0.9089(3) 0.9517(3) 0.4079(4)
C17_5 C 0.9508(3) 0.9348(3) 0.4704(4)
H9_5 H 0.9797 0.9496 0.4918
C18_5 C 0.9489(2) 0.8949(2) 0.5009(3)
H10_5 H 0.9768 0.8841 0.5433
C19_5 C 0.90755(19) 0.87162(18) 0.4703(3)
C20_5 C 0.90679(18) 0.82842(17) 0.5036(3)
H31_5 H 0.9810 0.8170 0.4246
O3_3 O 0.86644(12) 0.81080(12) 0.47282(19)
O4_3 O 0.94439(11) 0.81185(12) 0.55408(18)
O6_5 O 0.9830 0.9551 0.4007
C40_6 C 0.3634 0.0158 0.7416
C41_6 C 0.3890 0.0092 0.7223
C44_6 C 0.43504(19) 0.10189(18) 0.6765(3)
H39_6 H 0.4638 0.1111 0.6910
C45_6 C 0.4337(2) 0.0639(2) 0.7085(3)
H40_6 H 0.4618 0.0483 0.7450
C46_6 C 0.3920(2) 0.04905(19) 0.6874(3)
C47_6 C 0.3514(2) 0.0726(2) 0.6346(4)
H41_6 H 0.3228 0.0634 0.6203
C48_6 C 0.35210(19) 0.11073(18) 0.6013(3)
H42_6 H 0.3238 0.1256 0.5639
C49_6 C 0.39401(17) 0.12600(16) 0.6234(2)
C50_6 C 0.39571(18) 0.17124(15) 0.5934(3)
C53_6 C 0.3090 0.0606 0.7405
H47_6 H 0.3225 0.0429 0.7814
H48_6 H 0.3050 0.0941 0.7466
C54_6 C 0.2683 0.0426 0.6896
H49_6 H 0.2495 0.0369 0.7003
H50_6 H 0.2713 0.0126 0.6742
C55_6 C 0.2435 0.0899 0.6282
H51_6 H 0.2206 0.1076 0.6251
H52_6 H 0.2687 0.1123 0.6445
C56_6 C 0.2271 0.0786 0.5802
H53_6 H 0.2504 0.0839 0.5777
H54_6 H 0.2022 0.1023 0.5498
C57_6 C 0.2005 0.0215 0.5390
H55_6 H 0.1882 0.0226 0.4939
H56_6 H 0.1751 0.0150 0.5363
O9_4 O 0.35732(11) 0.19190(12) 0.54672(19)
O10_4 O 0.43597(12) 0.18473(11) 0.61919(19)
O12_6 O 0.3429 0.0585 0.7313
Zn4_4 Zn 0.347502(16) 0.252830(15) 0.49499(2)
C1_6 C 0.40130(16) 0.69864(15) 0.1278(2)
C2_6 C 0.40326(17) 0.66619(16) 0.1737(3)
C3_6 C 0.44651(18) 0.65604(18) 0.2398(3)
H1_6 H 0.4742 0.6705 0.2558
C4_6 C 0.4485(2) 0.62513(19) 0.2810(3)
H2_6 H 0.4774 0.6202 0.3256
C5_6 C 0.4075(2) 0.6004(2) 0.2571(4)
C6_6 C 0.3641(2) 0.6128(2) 0.1917(4)
H3_6 H 0.3361 0.5996 0.1760
C7_6 C 0.3623(2) 0.6443(2) 0.1501(3)
H4_6 H 0.3334 0.6507 0.1061
C8_6 C 0.4090 0.5655 0.3007
C9_6 C 0.4455 0.5293 0.3316
H5_6 H 0.4667 0.5302 0.3264
C10_6 C 0.4482 0.4920 0.3704
C11_6 C 0.4098 0.4912 0.3691
C12_6 C 0.3920 0.5316 0.3603
H6_6 H 0.3811 0.5382 0.3811
C13_6 C 0.3877 0.5692 0.3177
C14_6 C 0.3675(2) 0.3887(2) 0.4091(4)
H7_6 H 0.3387 0.3740 0.3879
C15_6 C 0.3679(3) 0.4275(3) 0.3765(4)
H8_6 H 0.3399 0.4369 0.3331
C16_6 C 0.4089(3) 0.4517(3) 0.4079(4)
C17_6 C 0.4508(3) 0.4348(3) 0.4704(4)
H9_6 H 0.4797 0.4496 0.4918
C18_6 C 0.4489(2) 0.3949(2) 0.5009(3)
H10_6 H 0.4768 0.3841 0.5433
C19_6 C 0.40755(19) 0.37162(18) 0.4703(3)
C20_6 C 0.40679(18) 0.32842(17) 0.5036(3)
C21_6 C 0.3122 0.6025 0.2883
H11_6 H 0.2923 0.5743 0.2631
H12_6 H 0.3238 0.6023 0.3334
C22_6 C 0.2867 0.6483 0.2512
H13_6 H 0.3099 0.6681 0.2571
H14_6 H 0.2632 0.6393 0.2034
C23_6 C 0.2641 0.6789 0.2587
H15_6 H 0.2318 0.6668 0.2263
H16_6 H 0.2631 0.7087 0.2387
C24_6 C 0.2702 0.6972 0.3179
H17_6 H 0.3010 0.6867 0.3604
H18_6 H 0.2463 0.6818 0.3144
C25_6 C 0.2665 0.7528 0.3214
H19_6 H 0.2708 0.7605 0.3597
H20_6 H 0.2358 0.7637 0.2802
H21_6 H 0.2907 0.7686 0.3264
C26_4 C 0.5251 0.4594 0.4119
H22_4 H 0.5409 0.4902 0.4334
H23_4 H 0.5166 0.4574 0.3690
C27_4 C 0.5563 0.4190 0.4565
H24_4 H 0.5871 0.4348 0.4886
H25_4 H 0.5571 0.4003 0.4271
C28_4 C 0.5620 0.3767 0.5036
H26_4 H 0.5931 0.3799 0.5495
H27_4 H 0.5386 0.3824 0.5059
C29_4 C 0.5568 0.3277 0.4815
H28_4 H 0.5855 0.3097 0.5176
H29_4 H 0.5528 0.3278 0.4421
C30_4 C 0.5096 0.2996 0.4609
H30_4 H 0.5073 0.2670 0.4464
H31_6 H 0.4810 0.3170 0.4246
H32_6 H 0.5137 0.2989 0.5000
O1_6 O 0.36126(11) 0.70796(12) 0.07033(18)
O2_6 O 0.43948(11) 0.71577(12) 0.14984(17)
O3_4 O 0.36644(12) 0.31080(12) 0.47282(19)
O4_4 O 0.44439(11) 0.31185(12) 0.55408(18)
O5_6 O 0.3533 0.6054 0.2916
O6_6 O 0.4830 0.4551 0.4007
O8_6 O 0.43425(12) 0.78742(13) 0.01690(19)
Zn2_4 Zn 0.451873(16) 0.752653(15) 0.09829(2)
N3_4 N 0.52402(13) 0.75761(13) 0.1684(2)
O14_4 O 0.44439(11) 0.68815(12) 0.05408(18)
O15_4 O 0.35732(11) 0.80810(12) 0.04672(19)
O16_4 O 0.43597(12) 0.81527(11) 0.11919(19)
C31_6 C 0.39435(18) 0.80085(17) 0.9625(3)
C32_6 C 0.39405(18) 0.83299(19) 0.9179(3)
C33_6 C 0.3513(2) 0.8520(3) 0.8573(4)
H33_6 H 0.3226 0.8433 0.8432
C34_6 C 0.3518(2) 0.8832(3) 0.8189(4)
H34_6 H 0.3228 0.8935 0.7774
C35_6 C 0.3918(2) 0.8999(2) 0.8376(4)
C36_6 C 0.4331(3) 0.8824(3) 0.8963(4)
H35_6 H 0.4615 0.8927 0.9108
C37_6 C 0.4340(2) 0.8485(3) 0.9366(4)
H36_6 H 0.4631 0.8370 0.9768
C38_6 C 0.3923 0.9376 0.7989
C39_6 C 0.3665 0.9786 0.7801
H37_6 H 0.3501 0.9824 0.7932
C42_6 C 0.4144 0.9682 0.7425
H38_6 H 0.4316 0.9643 0.7307
C43_6 C 0.4169 0.9326 0.7783
C51_6 C 0.4397 0.8689 0.7392
H43_6 H 0.4698 0.8575 0.7562
H44_6 H 0.4262 0.8924 0.7032
C52_6 C 0.4000 0.8200 0.7100
H45_6 H 0.3855 0.8281 0.7269
H46_6 H 0.4211 0.7930 0.7379
H57_6 H 0.2240 0.9963 0.5647
C58_6 C 0.2517(3) 0.7569(5) 0.8660(5)
H58_6 H 0.2676 0.7692 0.8546
C59_6 C 0.2016(3) 0.7555(5) 0.8138(5)
H59_6 H 0.1871 0.7656 0.7704
C60_6 C 0.17612(18) 0.74207(19) 0.8219(3)
C61_6 C 0.2009(3) 0.7277(5) 0.8843(5)
H60_6 H 0.1855 0.7158 0.8968
C62_6 C 0.2497(2) 0.7302(4) 0.9316(4)
H61_6 H 0.2655 0.7205 0.9757
C63_6 C 0.04859(16) 0.7187(2) 0.7278(3)
H62_6 H 0.0317 0.7029 0.7356
C64_6 C 0.09713(16) 0.7167(2) 0.7774(3)
H63_6 H 0.1126 0.6991 0.8172
C65_6 C 0.12289(17) 0.74103(18) 0.7676(3)
C66_6 C 0.09822(18) 0.7649(2) 0.7074(3)
H64_6 H 0.1144 0.7812 0.6987
C67_6 C 0.04950(17) 0.7647(2) 0.6598(3)
H65_6 H 0.0335 0.7813 0.6191
N1_6 N 0.27506(13) 0.74394(13) 0.9222(2)
N2_4 N 0.02402(13) 0.74239(13) 0.6684(2)
O7_6 O 0.35556(12) 0.78908(13) 0.94231(19)
O11_6 O 0.4459 0.8911 0.7976
Zn1_4 Zn 0.347502(16) 0.747170(15) 0.99499(2)
C68_6 C 0.3511 0.7916 0.6270
H66_6 H 0.3245 0.7961 0.6227
H67_6 H 0.3458 0.8149 0.5956
C69_6 C 0.3398 0.7498 0.5938
H68_6 H 0.3304 0.7281 0.6108
H69_6 H 0.3694 0.7371 0.6105
C70_6 C 0.3053 0.7425 0.5210
H70_6 H 0.3045 0.7088 0.5114
H71_6 H 0.3140 0.7615 0.5014
H72_6 H 0.2745 0.7523 0.5018
O13_4 O 0.36644(12) 0.68920(12) 0.97282(19)
C18_7 C 0.9489(2) 0.1051(2) 0.0009(3)
H10_7 H 0.9768 0.1159 0.0433
C20_7 C 0.90679(18) 0.17158(17) 0.0036(3)
C10_7 C 0.9482 0.0080 0.8704
C11_7 C 0.9098 0.0088 0.8691
C14_7 C 0.8675(2) 0.1113(2) 0.9091(4)
H7_7 H 0.8387 0.1260 0.8879
C15_7 C 0.8679(3) 0.0725(3) 0.8765(4)
H8_7 H 0.8399 0.0631 0.8331
C16_7 C 0.9089(3) 0.0483(3) 0.9079(4)
C17_7 C 0.9508(3) 0.0652(3) 0.9704(4)
H9_7 H 0.9797 0.0504 0.9918
C19_7 C 0.90755(19) 0.12838(18) 0.9703(3)
H31_7 H 0.9810 0.1830 0.9246
O6_7 O 0.9830 0.0449 0.9007
C1_7 C 0.90130(16) 0.80136(15) 0.6278(2)
C2_7 C 0.90326(17) 0.83381(16) 0.6737(3)
C3_7 C 0.94651(18) 0.84396(18) 0.7398(3)
H1_7 H 0.9742 0.8295 0.7558
C4_7 C 0.9485(2) 0.87487(19) 0.7810(3)
H2_7 H 0.9774 0.8798 0.8256
C5_7 C 0.9075(2) 0.8996(2) 0.7571(4)
C6_7 C 0.8641(2) 0.8872(2) 0.6917(4)
H3_7 H 0.8361 0.9004 0.6760
C7_7 C 0.8623(2) 0.8557(2) 0.6501(3)
H4_7 H 0.8334 0.8493 0.6061
C8_7 C 0.9090 0.9345 0.8007
C9_7 C 0.9455 0.9707 0.8316
H5_7 H 0.9667 0.9698 0.8264
C12_7 C 0.8920 0.9684 0.8603
H6_7 H 0.8811 0.9618 0.8811
C13_7 C 0.8877 0.9308 0.8177
C21_7 C 0.8122 0.8975 0.7883
H11_7 H 0.7923 0.9257 0.7631
H12_7 H 0.8238 0.8977 0.8334
C22_7 C 0.7867 0.8517 0.7512
H13_7 H 0.8099 0.8319 0.7571
H14_7 H 0.7632 0.8607 0.7034
C23_7 C 0.7641 0.8211 0.7587
H15_7 H 0.7318 0.8332 0.7263
H16_7 H 0.7631 0.7913 0.7387
C24_7 C 0.7702 0.8028 0.8179
H17_7 H 0.8010 0.8133 0.8604
H18_7 H 0.7463 0.8182 0.8144
C25_7 C 0.7665 0.7472 0.8214
H19_7 H 0.7708 0.7395 0.8597
H20_7 H 0.7358 0.7363 0.7802
H21_7 H 0.7907 0.7314 0.8264
C31_7 C 0.89435(18) 0.69915(17) 0.4625(3)
C32_7 C 0.89405(18) 0.66701(19) 0.4179(3)
C33_7 C 0.8513(2) 0.6480(3) 0.3573(4)
H33_7 H 0.8226 0.6567 0.3432
C34_7 C 0.8518(2) 0.6168(3) 0.3189(4)
H34_7 H 0.8228 0.6065 0.2774
C35_7 C 0.8918(2) 0.6001(2) 0.3376(4)
C36_7 C 0.9331(3) 0.6176(3) 0.3963(4)
H35_7 H 0.9615 0.6073 0.4108
C37_7 C 0.9340(2) 0.6515(3) 0.4366(4)
H36_7 H 0.9631 0.6630 0.4768
C38_7 C 0.8923 0.5624 0.2989
C39_7 C 0.8665 0.5214 0.2801
H37_7 H 0.8501 0.5176 0.2932
C40_7 C 0.8634 0.4842 0.2416
C41_7 C 0.8890 0.4908 0.2223
C42_7 C 0.9144 0.5318 0.2425
H38_7 H 0.9316 0.5357 0.2307
C43_7 C 0.9169 0.5674 0.2783
C44_7 C 0.93504(19) 0.39811(18) 0.1765(3)
H39_7 H 0.9638 0.3889 0.1910
C45_7 C 0.9337(2) 0.4361(2) 0.2085(3)
H40_7 H 0.9618 0.4517 0.2450
C46_7 C 0.8920(2) 0.45095(19) 0.1874(3)
C47_7 C 0.8514(2) 0.4274(2) 0.1346(4)
H41_7 H 0.8228 0.4366 0.1203
C48_7 C 0.85210(19) 0.38927(18) 0.1013(3)
H42_7 H 0.8238 0.3744 0.0639
C49_7 C 0.89401(17) 0.37400(16) 0.1234(2)
C50_7 C 0.89571(18) 0.32876(15) 0.0934(3)
C51_7 C 0.9397 0.6311 0.2392
H43_7 H 0.9698 0.6425 0.2562
H44_7 H 0.9262 0.6076 0.2032
C52_7 C 0.9000 0.6800 0.2100
H45_7 H 0.8855 0.6719 0.2269
H46_7 H 0.9211 0.7070 0.2379
C53_7 C 0.8090 0.4394 0.2405
H47_7 H 0.8225 0.4571 0.2814
H48_7 H 0.8050 0.4059 0.2466
C54_7 C 0.7683 0.4574 0.1896
H49_7 H 0.7495 0.4631 0.2003
H50_7 H 0.7713 0.4874 0.1742
C55_7 C 0.7435 0.4101 0.1282
H51_7 H 0.7206 0.3924 0.1251
H52_7 H 0.7687 0.3877 0.1445
C56_7 C 0.7271 0.4214 0.0802
H53_7 H 0.7504 0.4161 0.0777
H54_7 H 0.7022 0.3977 0.0498
C57_7 C 0.7005 0.4785 0.0390
H56_7 H 0.6751 0.4850 0.0363
H57_7 H 0.7240 0.5037 0.0647
C58_7 C 0.7517(3) 0.7431(5) 0.3660(5)
H58_7 H 0.7676 0.7308 0.3546
C59_7 C 0.7016(3) 0.7445(5) 0.3138(5)
H59_7 H 0.6871 0.7344 0.2704
C60_7 C 0.67612(18) 0.75793(19) 0.3219(3)
C61_7 C 0.7009(3) 0.7723(5) 0.3843(5)
H60_7 H 0.6855 0.7842 0.3968
C62_7 C 0.7497(2) 0.7698(4) 0.4316(4)
H61_7 H 0.7655 0.7795 0.4757
C63_7 C 0.54859(16) 0.7813(2) 0.2278(3)
H62_7 H 0.5317 0.7971 0.2356
C64_7 C 0.59713(16) 0.7833(2) 0.2774(3)
H63_7 H 0.6126 0.8009 0.3172
C65_7 C 0.62289(17) 0.75897(18) 0.2676(3)
C66_7 C 0.59822(18) 0.7351(2) 0.2074(3)
H64_7 H 0.6144 0.7188 0.1987
C67_7 C 0.54950(17) 0.7353(2) 0.1598(3)
H65_7 H 0.5335 0.7187 0.1191
N1_7 N 0.77506(13) 0.75606(13) 0.4222(2)
O1_7 O 0.86126(11) 0.79204(12) 0.57033(18)
O2_7 O 0.93948(11) 0.78423(12) 0.64984(17)
O5_7 O 0.8533 0.8946 0.7916
O7_7 O 0.85556(12) 0.71092(13) 0.44231(19)
O8_7 O 0.93425(12) 0.71258(13) 0.51690(19)
O11_7 O 0.9459 0.6089 0.2976
O12_7 O 0.8429 0.4415 0.2313
C68_7 C 0.8511 0.7084 0.1270
H66_7 H 0.8245 0.7039 0.1227
H67_7 H 0.8458 0.6851 0.0956
C69_7 C 0.8398 0.7502 0.0938
H68_7 H 0.8304 0.7719 0.1108
H69_7 H 0.8694 0.7629 0.1105
C70_7 C 0.8053 0.7575 0.0210
H70_7 H 0.8045 0.7912 0.0114
H71_7 H 0.8140 0.7385 0.0014
H72_7 H 0.7745 0.7477 0.0018
H55_7 H 0.6882 0.4774 0.9939
C18_8 C 0.4489(2) 0.6051(2) 0.0009(3)
H10_8 H 0.4768 0.6159 0.0433
C20_8 C 0.40679(18) 0.67158(17) 0.0036(3)
C28_5 C 0.5620 0.6233 0.0036
H26_5 H 0.5931 0.6201 0.0495
H27_5 H 0.5386 0.6176 0.0059
H28_5 H 0.5855 0.6903 0.0176
H32_7 H 0.5137 0.7011 0.0000
C1_8 C 0.40130(16) 0.30136(15) 0.6278(2)
C2_8 C 0.40326(17) 0.33381(16) 0.6737(3)
C3_8 C 0.44651(18) 0.34396(18) 0.7398(3)
H1_8 H 0.4742 0.3295 0.7558
C4_8 C 0.4485(2) 0.37487(19) 0.7810(3)
H2_8 H 0.4774 0.3798 0.8256
C5_8 C 0.4075(2) 0.3996(2) 0.7571(4)
C6_8 C 0.3641(2) 0.3872(2) 0.6917(4)
H3_8 H 0.3361 0.4004 0.6760
C7_8 C 0.3623(2) 0.3557(2) 0.6501(3)
H4_8 H 0.3334 0.3493 0.6061
C8_8 C 0.4090 0.4345 0.8007
C9_8 C 0.4455 0.4707 0.8316
H5_8 H 0.4667 0.4698 0.8264
C10_8 C 0.4482 0.5080 0.8704
C11_8 C 0.4098 0.5088 0.8691
C12_8 C 0.3920 0.4684 0.8603
H6_8 H 0.3811 0.4618 0.8811
C13_8 C 0.3877 0.4308 0.8177
C14_8 C 0.3675(2) 0.6113(2) 0.9091(4)
H7_8 H 0.3387 0.6260 0.8879
C15_8 C 0.3679(3) 0.5725(3) 0.8765(4)
H8_8 H 0.3399 0.5631 0.8331
C16_8 C 0.4089(3) 0.5483(3) 0.9079(4)
C17_8 C 0.4508(3) 0.5652(3) 0.9704(4)
H9_8 H 0.4797 0.5504 0.9918
C19_8 C 0.40755(19) 0.62838(18) 0.9703(3)
C21_8 C 0.3122 0.3975 0.7883
H11_8 H 0.2923 0.4257 0.7631
H12_8 H 0.3238 0.3977 0.8334
C22_8 C 0.2867 0.3517 0.7512
H13_8 H 0.3099 0.3319 0.7571
H14_8 H 0.2632 0.3607 0.7034
C23_8 C 0.2641 0.3211 0.7587
H15_8 H 0.2318 0.3332 0.7263
H16_8 H 0.2631 0.2913 0.7387
C24_8 C 0.2702 0.3028 0.8179
H17_8 H 0.3010 0.3133 0.8604
H18_8 H 0.2463 0.3182 0.8144
C25_8 C 0.2665 0.2472 0.8214
H19_8 H 0.2708 0.2395 0.8597
H20_8 H 0.2358 0.2363 0.7802
H21_8 H 0.2907 0.2314 0.8264
C26_5 C 0.5251 0.5406 0.9119
H22_5 H 0.5409 0.5098 0.9334
H23_5 H 0.5166 0.5426 0.8690
C27_5 C 0.5563 0.5810 0.9565
H24_5 H 0.5871 0.5652 0.9886
H25_5 H 0.5571 0.5997 0.9271
C29_5 C 0.5568 0.6723 0.9815
H29_5 H 0.5528 0.6722 0.9421
C30_5 C 0.5096 0.7004 0.9609
H30_5 H 0.5073 0.7330 0.9464
H31_8 H 0.4810 0.6830 0.9246
H32_8 H 0.5137 0.7011 1.0000
C31_8 C 0.39435(18) 0.19915(17) 0.4625(3)
C32_8 C 0.39405(18) 0.16701(19) 0.4179(3)
C33_8 C 0.3513(2) 0.1480(3) 0.3573(4)
H33_8 H 0.3226 0.1567 0.3432
C34_8 C 0.3518(2) 0.1168(3) 0.3189(4)
H34_8 H 0.3228 0.1065 0.2774
C35_8 C 0.3918(2) 0.1001(2) 0.3376(4)
C36_8 C 0.4331(3) 0.1176(3) 0.3963(4)
H35_8 H 0.4615 0.1073 0.4108
C37_8 C 0.4340(2) 0.1515(3) 0.4366(4)
H36_8 H 0.4631 0.1630 0.4768
C38_8 C 0.3923 0.0624 0.2989
C39_8 C 0.3665 0.0214 0.2801
H37_8 H 0.3501 0.0176 0.2932
C42_8 C 0.4144 0.0318 0.2425
H38_8 H 0.4316 0.0357 0.2307
C43_8 C 0.4169 0.0674 0.2783
C51_8 C 0.4397 0.1311 0.2392
H43_8 H 0.4698 0.1425 0.2562
H44_8 H 0.4262 0.1076 0.2032
C52_8 C 0.4000 0.1800 0.2100
H45_8 H 0.3855 0.1719 0.2269
H46_8 H 0.4211 0.2070 0.2379
H57_8 H 0.2240 0.0037 0.0647
C58_8 C 0.2517(3) 0.2431(5) 0.3660(5)
H58_8 H 0.2676 0.2308 0.3546
C59_8 C 0.2016(3) 0.2445(5) 0.3138(5)
H59_8 H 0.1871 0.2344 0.2704
C60_8 C 0.17612(18) 0.25793(19) 0.3219(3)
C61_8 C 0.2009(3) 0.2723(5) 0.3843(5)
H60_8 H 0.1855 0.2842 0.3968
C62_8 C 0.2497(2) 0.2698(4) 0.4316(4)
H61_8 H 0.2655 0.2795 0.4757
C63_8 C 0.04859(16) 0.2813(2) 0.2278(3)
H62_8 H 0.0317 0.2971 0.2356
C64_8 C 0.09713(16) 0.2833(2) 0.2774(3)
H63_8 H 0.1126 0.3009 0.3172
C65_8 C 0.12289(17) 0.25897(18) 0.2676(3)
C66_8 C 0.09822(18) 0.2351(2) 0.2074(3)
H64_8 H 0.1144 0.2188 0.1987
C67_8 C 0.04950(17) 0.2353(2) 0.1598(3)
H65_8 H 0.0335 0.2187 0.1191
N1_8 N 0.27506(13) 0.25606(13) 0.4222(2)
O1_8 O 0.36126(11) 0.29204(12) 0.57033(18)
O2_8 O 0.43948(11) 0.28423(12) 0.64984(17)
O5_8 O 0.3533 0.3946 0.7916
O6_8 O 0.4830 0.5449 0.9007
O7_8 O 0.35556(12) 0.21092(13) 0.44231(19)
O8_8 O 0.43425(12) 0.21258(13) 0.51690(19)
O11_8 O 0.4459 0.1089 0.2976
C68_8 C 0.3511 0.2084 0.1270
H66_8 H 0.3245 0.2039 0.1227
H67_8 H 0.3458 0.1851 0.0956
C69_8 C 0.3398 0.2502 0.0938
H68_8 H 0.3304 0.2719 0.1108
H69_8 H 0.3694 0.2629 0.1105
C70_8 C 0.3053 0.2575 0.0210
H70_8 H 0.3045 0.2912 0.0114
H71_8 H 0.3140 0.2385 0.0014
H72_8 H 0.2745 0.2477 0.0018
C40_8 C 0.3634 0.9842 0.2416
C41_8 C 0.3890 0.9908 0.2223
C44_8 C 0.43504(19) 0.89811(18) 0.1765(3)
H39_8 H 0.4638 0.8889 0.1910
C45_8 C 0.4337(2) 0.9361(2) 0.2085(3)
H40_8 H 0.4618 0.9517 0.2450
C46_8 C 0.3920(2) 0.95095(19) 0.1874(3)
C47_8 C 0.3514(2) 0.9274(2) 0.1346(4)
H41_8 H 0.3228 0.9366 0.1203
C48_8 C 0.35210(19) 0.88927(18) 0.1013(3)
H42_8 H 0.3238 0.8744 0.0639
C49_8 C 0.39401(17) 0.87400(16) 0.1234(2)
C50_8 C 0.39571(18) 0.82876(15) 0.0934(3)
C53_8 C 0.3090 0.9394 0.2405
H47_8 H 0.3225 0.9571 0.2814
H48_8 H 0.3050 0.9059 0.2466
C54_8 C 0.2683 0.9574 0.1896
H49_8 H 0.2495 0.9631 0.2003
H50_8 H 0.2713 0.9874 0.1742
C55_8 C 0.2435 0.9101 0.1282
H51_8 H 0.2206 0.8924 0.1251
H52_8 H 0.2687 0.8877 0.1445
C56_8 C 0.2271 0.9214 0.0802
H53_8 H 0.2504 0.9161 0.0777
H54_8 H 0.2022 0.8977 0.0498
C57_8 C 0.2005 0.9785 0.0390
H56_8 H 0.1751 0.9850 0.0363
O12_8 O 0.3429 0.9415 0.2313
H55_8 H 0.1882 0.9774 0.9939
C26_6 C 0.0251 0.9594 0.4119
H22_6 H 0.0409 0.9902 0.4334
H23_6 H 0.0166 0.9574 0.3690
C27_6 C 0.0563 0.9190 0.4565
H24_6 H 0.0871 0.9348 0.4886
H25_6 H 0.0571 0.9003 0.4271
C28_6 C 0.0620 0.8767 0.5036
H26_6 H 0.0931 0.8799 0.5495
H27_6 H 0.0386 0.8824 0.5059
C29_6 C 0.0568 0.8277 0.4815
H28_6 H 0.0855 0.8097 0.5176
H29_6 H 0.0528 0.8278 0.4421
C30_6 C 0.0096 0.7996 0.4609
H30_6 H 0.0073 0.7670 0.4464
H32_9 H 0.0137 0.7989 0.5000
C28_7 C 0.0620 0.1233 0.0036
H26_7 H 0.0931 0.1201 0.0495
H27_7 H 0.0386 0.1176 0.0059
H28_7 H 0.0855 0.1903 0.0176
H32_10 H 0.0137 0.2011 0.0000
C26_7 C 0.0251 0.0406 0.9119
H22_7 H 0.0409 0.0098 0.9334
H23_7 H 0.0166 0.0426 0.8690
C27_7 C 0.0563 0.0810 0.9565
H24_7 H 0.0871 0.0652 0.9886
H25_7 H 0.0571 0.0997 0.9271
C29_7 C 0.0568 0.1723 0.9815
H29_7 H 0.0528 0.1722 0.9421
C30_7 C 0.0096 0.2004 0.9609
H30_7 H 0.0073 0.2330 0.9464
H32_11 H 0.0137 0.2011 1.0000
C26_8 C 0.9749 0.0406 0.5881
H22_8 H 0.9591 0.0098 0.5666
H23_8 H 0.9834 0.0426 0.6310
C27_8 C 0.9437 0.0810 0.5435
H24_8 H 0.9129 0.0652 0.5114
H25_8 H 0.9429 0.0997 0.5729
C28_8 C 0.9380 0.1233 0.4964
H26_8 H 0.9069 0.1201 0.4505
H27_8 H 0.9614 0.1176 0.4941
C29_8 C 0.9432 0.1723 0.5185
H28_8 H 0.9145 0.1903 0.4824
H29_8 H 0.9472 0.1722 0.5579
C30_8 C 0.9904 0.2004 0.5391
H30_8 H 0.9927 0.2330 0.5536
H32_12 H 0.9863 0.2011 0.5000
loop_
_geom_bond_atom_site_label_1
_geom_bond_atom_site_label_2
_geom_bond_site_symmetry_1
_geom_bond_site_symmetry_2
C1 C2 1_555 1_555
C2 C3 1_555 1_555
C3 H1 1_555 1_555
C4 C3 1_555 1_555
H2 C4 1_555 1_555
C5 C4 1_555 1_555
C6 C5 1_555 1_555
H3 C6 1_555 1_555
C7 C2 1_555 1_555
H4 C7 1_555 1_555
C8 C5 1_555 1_555
C9 C8 1_555 1_555
H5 C9 1_555 1_555
H6 C12 1_555 1_555
C13 C8 1_555 1_555
C21 H11 1_555 1_555
H12 C21 1_555 1_555
C22 C21 1_555 1_555
H13 C22 1_555 1_555
H14 C22 1_555 1_555
C23 C22 1_555 1_555
H15 C23 1_555 1_555
H16 C23 1_555 1_555
C24 C23 1_555 1_555
H17 C24 1_555 1_555
H18 C24 1_555 1_555
C25 C24 1_555 1_555
H19 C25 1_555 1_555
H20 C25 1_555 1_555
H21 C25 1_555 1_555
C31 C32 1_555 1_555
C32 C33 1_555 1_555
C33 H33 1_555 1_555
C34 C33 1_555 1_555
H34 C34 1_555 1_555
C35 C34 1_555 1_555
C36 C35 1_555 1_555
H35 C36 1_555 1_555
C37 C32 1_555 1_555
H36 C37 1_555 1_555
C38 C35 1_555 1_555
C39 C38 1_555 1_555
H37 C39 1_555 1_555
C40 C39 1_555 1_555
C41 C40 1_555 1_555
C42 C41 1_555 1_555
H38 C42 1_555 1_555
C43 C38 1_555 1_555
C44 H39 1_555 1_555
C45 C44 1_555 1_555
H40 C45 1_555 1_555
C46 C41 1_555 1_555
C47 C46 1_555 1_555
H41 C47 1_555 1_555
C48 C47 1_555 1_555
H42 C48 1_555 1_555
C49 C44 1_555 1_555
C50 C49 1_555 1_555
C51 H43 1_555 1_555
H44 C51 1_555 1_555
C52 C51 1_555 1_555
H45 C52 1_555 1_555
H46 C52 1_555 1_555
C53 H47 1_555 1_555
H48 C53 1_555 1_555
C54 C53 1_555 1_555
H49 C54 1_555 1_555
H50 C54 1_555 1_555
C55 C54 1_555 1_555
H51 C55 1_555 1_555
H52 C55 1_555 1_555
C56 C55 1_555 1_555
H53 C56 1_555 1_555
H54 C56 1_555 1_555
C57 C56 1_555 1_555
H56 C57 1_555 1_555
H57 C57 1_555 1_555
C58 H58 1_555 1_555
C59 C58 1_555 1_555
H59 C59 1_555 1_555
C60 C59 1_555 1_555
C61 C60 1_555 1_555
H60 C61 1_555 1_555
C62 C61 1_555 1_555
H61 C62 1_555 1_555
C63 H62 1_555 1_555
C64 C63 1_555 1_555
H63 C64 1_555 1_555
C65 C60 1_555 1_555
C66 C65 1_555 1_555
H64 C66 1_555 1_555
C67 C66 1_555 1_555
H65 C67 1_555 1_555
N1 C58 1_555 1_555
N2 C63 1_555 1_555
O1 C1 1_555 1_555
O2 C1 1_555 1_555
O5 C13 1_555 1_555
O7 C31 1_555 1_555
O8 C31 1_555 1_555
O9 C50 1_555 1_555
O10 C50 1_555 1_555
O11 C43 1_555 1_555
O12 C40 1_555 1_555
Zn1 N1 1_555 1_555
Zn2 O2 1_555 1_555
C68 C52 1_555 1_555
H66 C68 1_555 1_555
H67 C68 1_555 1_555
C69 C68 1_555 1_555
H68 C69 1_555 1_555
H69 C69 1_555 1_555
C70 C69 1_555 1_555
H70 C70 1_555 1_555
H71 C70 1_555 1_555
H72 C70 1_555 1_555
O13 Zn1 1_555 1_555
O14 Zn2 1_555 1_555
O15 Zn1 1_555 1_555
O16 Zn2 1_555 1_555
Zn6 O10 1_555 1_555
Zn7 N2 1_555 1_555
C6 C7 1_555 1_555
C12 C13 1_555 1_555
C21 O5 1_555 1_555
C36 C37 1_555 1_555
C42 C43 1_555 1_555
C45 C46 1_555 1_555
C48 C49 1_555 1_555
C51 O11 1_555 1_555
C53 O12 1_555 1_555
C62 N1 1_555 1_555
C64 C65 1_555 1_555
C67 N2 1_555 1_555
O1 Zn1 1_555 1_555
O7 Zn1 1_555 1_555
O8 Zn2 1_555 1_555
C11 C10 1_555 1_555
C14 H7 1_555 1_555
C15 C14 1_555 1_555
H8 C15 1_555 1_555
C16 C11 1_555 1_555
C17 C16 1_555 1_555
H9 C17 1_555 1_555
C19 C14 1_555 1_555
O6 C10 1_555 1_555
Zn4 O3 1_555 1_555
C15 C16 1_555 1_555
H10 C18 1_555 1_555
O4 C20 1_555 1_555
Zn6 O4 1_555 1_555
C41_2 C40_2 1_555 1_555
C44_2 H39_2 1_555 1_555
C45_2 C44_2 1_555 1_555
H40_2 C45_2 1_555 1_555
C46_2 C41_2 1_555 1_555
C47_2 C46_2 1_555 1_555
H41_2 C47_2 1_555 1_555
C48_2 C47_2 1_555 1_555
H42_2 C48_2 1_555 1_555
C49_2 C44_2 1_555 1_555
C50_2 C49_2 1_555 1_555
C53_2 H47_2 1_555 1_555
H48_2 C53_2 1_555 1_555
C54_2 C53_2 1_555 1_555
H49_2 C54_2 1_555 1_555
H50_2 C54_2 1_555 1_555
C55_2 C54_2 1_555 1_555
H51_2 C55_2 1_555 1_555
H52_2 C55_2 1_555 1_555
C56_2 C55_2 1_555 1_555
H53_2 C56_2 1_555 1_555
H54_2 C56_2 1_555 1_555
C57_2 C56_2 1_555 1_555
H56_2 C57_2 1_555 1_555
O9_2 C50_2 1_555 1_555
O10_2 C50_2 1_555 1_555
O12_2 C40_2 1_555 1_555
Zn7 O10_2 1_555 1_555
C45_2 C46_2 1_555 1_555
C48_2 C49_2 1_555 1_555
C53_2 O12_2 1_555 1_555
C1_2 C2_2 1_555 1_555
C2_2 C3_2 1_555 1_555
C3_2 H1_2 1_555 1_555
C4_2 C3_2 1_555 1_555
H2_2 C4_2 1_555 1_555
C5_2 C4_2 1_555 1_555
C6_2 C5_2 1_555 1_555
H3_2 C6_2 1_555 1_555
C7_2 C2_2 1_555 1_555
H4_2 C7_2 1_555 1_555
C8_2 C5_2 1_555 1_555
C9_2 C8_2 1_555 1_555
H5_2 C9_2 1_555 1_555
C10_2 C9_2 1_555 1_555
C11_2 C10_2 1_555 1_555
C12_2 C11_2 1_555 1_555
H6_2 C12_2 1_555 1_555
C13_2 C8_2 1_555 1_555
C14_2 H7_2 1_555 1_555
C15_2 C14_2 1_555 1_555
H8_2 C15_2 1_555 1_555
C16_2 C11_2 1_555 1_555
C17_2 C16_2 1_555 1_555
H9_2 C17_2 1_555 1_555
C19_2 C14_2 1_555 1_555
C21_2 H11_2 1_555 1_555
H12_2 C21_2 1_555 1_555
C22_2 C21_2 1_555 1_555
H13_2 C22_2 1_555 1_555
H14_2 C22_2 1_555 1_555
C23_2 C22_2 1_555 1_555
H15_2 C23_2 1_555 1_555
H16_2 C23_2 1_555 1_555
C24_2 C23_2 1_555 1_555
H17_2 C24_2 1_555 1_555
H18_2 C24_2 1_555 1_555
C25_2 C24_2 1_555 1_555
H19_2 C25_2 1_555 1_555
H20_2 C25_2 1_555 1_555
H21_2 C25_2 1_555 1_555
C26 H22 1_555 1_555
H23 C26 1_555 1_555
C27 C26 1_555 1_555
H24 C27 1_555 1_555
H25 C27 1_555 1_555
H29 C29 1_555 1_555
C30 C29 1_555 1_555
H30 C30 1_555 1_555
H31_2 C30 1_555 1_555
H32 C30 1_555 1_555
C31_2 C32_2 1_555 1_555
C32_2 C33_2 1_555 1_555
C33_2 H33_2 1_555 1_555
C34_2 C33_2 1_555 1_555
H34_2 C34_2 1_555 1_555
C35_2 C34_2 1_555 1_555
C36_2 C35_2 1_555 1_555
H35_2 C36_2 1_555 1_555
C37_2 C32_2 1_555 1_555
H36_2 C37_2 1_555 1_555
C38_2 C35_2 1_555 1_555
C39_2 C38_2 1_555 1_555
H37_2 C39_2 1_555 1_555
H38_2 C42_2 1_555 1_555
C43_2 C38_2 1_555 1_555
C51_2 H43_2 1_555 1_555
H44_2 C51_2 1_555 1_555
C52_2 C51_2 1_555 1_555
H45_2 C52_2 1_555 1_555
H46_2 C52_2 1_555 1_555
C58_2 H58_2 1_555 1_555
C59_2 C58_2 1_555 1_555
H59_2 C59_2 1_555 1_555
C60_2 C59_2 1_555 1_555
C61_2 C60_2 1_555 1_555
H60_2 C61_2 1_555 1_555
C62_2 C61_2 1_555 1_555
H61_2 C62_2 1_555 1_555
C63_2 H62_2 1_555 1_555
C64_2 C63_2 1_555 1_555
H63_2 C64_2 1_555 1_555
C65_2 C60_2 1_555 1_555
C66_2 C65_2 1_555 1_555
H64_2 C66_2 1_555 1_555
C67_2 C66_2 1_555 1_555
H65_2 C67_2 1_555 1_555
N1_2 C58_2 1_555 1_555
N2_2 C63_2 1_555 1_555
O1_2 C1_2 1_555 1_555
O2_2 C1_2 1_555 1_555
O5_2 C13_2 1_555 1_555
O6_2 C10_2 1_555 1_555
O7_2 C31_2 1_555 1_555
O8_2 C31_2 1_555 1_555
O11_2 C43_2 1_555 1_555
Zn1_2 N1_2 1_555 1_555
Zn2_2 O2_2 1_555 1_555
C68_2 C52_2 1_555 1_555
H66_2 C68_2 1_555 1_555
H67_2 C68_2 1_555 1_555
C69_2 C68_2 1_555 1_555
H68_2 C69_2 1_555 1_555
H69_2 C69_2 1_555 1_555
C70_2 C69_2 1_555 1_555
H70_2 C70_2 1_555 1_555
H71_2 C70_2 1_555 1_555
H72_2 C70_2 1_555 1_555
N3_2 Zn2_2 1_555 1_555
O13_2 Zn1_2 1_555 1_555
O14_2 Zn2_2 1_555 1_555
O15_2 Zn1_2 1_555 1_555
O16_2 Zn2_2 1_555 1_555
Zn4_2 O3_2 1_555 1_555
C6_2 C7_2 1_555 1_555
C12_2 C13_2 1_555 1_555
C15_2 C16_2 1_555 1_555
C21_2 O5_2 1_555 1_555
C26 O6_2 1_555 1_555
C36_2 C37_2 1_555 1_555
C42_2 C43_2 1_555 1_555
C51_2 O11_2 1_555 1_555
C62_2 N1_2 1_555 1_555
C64_2 C65_2 1_555 1_555
C67_2 N2_2 1_555 1_555
O1_2 Zn1_2 1_555 1_555
O7_2 Zn1_2 1_555 1_555
O8_2 Zn2_2 1_555 1_555
H10_2 C18_2 1_555 1_555
H26 C28 1_555 1_555
H27 C28 1_555 1_555
O4_2 C20_2 1_555 1_555
Zn7 O4_2 1_555 1_555
C11_3 C10_3 1_555 1_555
C14_3 H7_3 1_555 1_555
C15_3 C14_3 1_555 1_555
H8_3 C15_3 1_555 1_555
C16_3 C11_3 1_555 1_555
C17_3 C16_3 1_555 1_555
H9_3 C17_3 1_555 1_555
C18_3 C17_3 1_555 1_555
H10_3 C18_3 1_555 1_555
C19_3 C14_3 1_555 1_555
C20_3 C19_3 1_555 1_555
O13 C20_3 1_555 1_555
O14 C20_3 1_555 1_555
O6_3 C10_3 1_555 1_555
C15_3 C16_3 1_555 1_555
C18_3 C19_3 1_555 1_555
C31_3 C32_3 1_555 1_555
C32_3 C33_3 1_555 1_555
C33_3 H33_3 1_555 1_555
C34_3 C33_3 1_555 1_555
H34_3 C34_3 1_555 1_555
C35_3 C34_3 1_555 1_555
C36_3 C35_3 1_555 1_555
H35_3 C36_3 1_555 1_555
C37_3 C32_3 1_555 1_555
H36_3 C37_3 1_555 1_555
C38_3 C35_3 1_555 1_555
C39_3 C38_3 1_555 1_555
H37_3 C39_3 1_555 1_555
C40_3 C39_3 1_555 1_555
C41_3 C40_3 1_555 1_555
C42_3 C41_3 1_555 1_555
H38_3 C42_3 1_555 1_555
C43_3 C38_3 1_555 1_555
C44_3 H39_3 1_555 1_555
C45_3 C44_3 1_555 1_555
H40_3 C45_3 1_555 1_555
C46_3 C41_3 1_555 1_555
C47_3 C46_3 1_555 1_555
H41_3 C47_3 1_555 1_555
C48_3 C47_3 1_555 1_555
H42_3 C48_3 1_555 1_555
C49_3 C44_3 1_555 1_555
C50_3 C49_3 1_555 1_555
C51_3 H43_3 1_555 1_555
H44_3 C51_3 1_555 1_555
C52_3 C51_3 1_555 1_555
H45_3 C52_3 1_555 1_555
H46_3 C52_3 1_555 1_555
C53_3 H47_3 1_555 1_555
H48_3 C53_3 1_555 1_555
C54_3 C53_3 1_555 1_555
H49_3 C54_3 1_555 1_555
H50_3 C54_3 1_555 1_555
C55_3 C54_3 1_555 1_555
H51_3 C55_3 1_555 1_555
H52_3 C55_3 1_555 1_555
C56_3 C55_3 1_555 1_555
H53_3 C56_3 1_555 1_555
H54_3 C56_3 1_555 1_555
C57_3 C56_3 1_555 1_555
H55_3 C57_3 1_555 1_555
H56_3 C57_3 1_555 1_555
H57_3 C57_3 1_555 1_555
C58_3 H58_3 1_555 1_555
C59_3 C58_3 1_555 1_555
H59_3 C59_3 1_555 1_555
C60_3 C59_3 1_555 1_555
C61_3 C60_3 1_555 1_555
H60_3 C61_3 1_555 1_555
C62_3 C61_3 1_555 1_555
H61_3 C62_3 1_555 1_555
C63_3 H62_3 1_555 1_555
C64_3 C63_3 1_555 1_555
H63_3 C64_3 1_555 1_555
C65_3 C60_3 1_555 1_555
C66_3 C65_3 1_555 1_555
H64_3 C66_3 1_555 1_555
C67_3 C66_3 1_555 1_555
H65_3 C67_3 1_555 1_555
N1_3 C58_3 1_555 1_555
N3_2 C63_3 1_555 1_555
O7_3 C31_3 1_555 1_555
O15 C50_3 1_555 1_555
O16 C50_3 1_555 1_555
O11_3 C43_3 1_555 1_555
O12_3 C40_3 1_555 1_555
Zn4 N1_3 1_555 1_555
C68_3 C52_3 1_555 1_555
H66_3 C68_3 1_555 1_555
H67_3 C68_3 1_555 1_555
C69_3 C68_3 1_555 1_555
H68_3 C69_3 1_555 1_555
H69_3 C69_3 1_555 1_555
C70_3 C69_3 1_555 1_555
H70_3 C70_3 1_555 1_555
H71_3 C70_3 1_555 1_555
H72_3 C70_3 1_555 1_555
C36_3 C37_3 1_555 1_555
C42_3 C43_3 1_555 1_555
C45_3 C46_3 1_555 1_555
C48_3 C49_3 1_555 1_555
C51_3 O11_3 1_555 1_555
C53_3 O12_3 1_555 1_555
C62_3 N1_3 1_555 1_555
C64_3 C65_3 1_555 1_555
C67_3 N3_2 1_555 1_555
O7_3 Zn4 1_555 1_555
C1_3 C2_3 1_555 1_555
C2_3 C3_3 1_555 1_555
C3_3 H1_3 1_555 1_555
C4_3 C3_3 1_555 1_555
H2_3 C4_3 1_555 1_555
C5_3 C4_3 1_555 1_555
C6_3 C5_3 1_555 1_555
H3_3 C6_3 1_555 1_555
C7_3 C2_3 1_555 1_555
H4_3 C7_3 1_555 1_555
C8_3 C5_3 1_555 1_555
C9_3 C8_3 1_555 1_555
H5_3 C9_3 1_555 1_555
H6_3 C12_3 1_555 1_555
C13_3 C8_3 1_555 1_555
C21_3 H11_3 1_555 1_555
H12_3 C21_3 1_555 1_555
C22_3 C21_3 1_555 1_555
H13_3 C22_3 1_555 1_555
H14_3 C22_3 1_555 1_555
C23_3 C22_3 1_555 1_555
H15_3 C23_3 1_555 1_555
H16_3 C23_3 1_555 1_555
C24_3 C23_3 1_555 1_555
H17_3 C24_3 1_555 1_555
H18_3 C24_3 1_555 1_555
C25_3 C24_3 1_555 1_555
H19_3 C25_3 1_555 1_555
H20_3 C25_3 1_555 1_555
H21_3 C25_3 1_555 1_555
O1_3 C1_3 1_555 1_555
O2_3 C1_3 1_555 1_555
O5_3 C13_3 1_555 1_555
Zn6 O2_3 1_555 1_555
C6_3 C7_3 1_555 1_555
C12_3 C13_3 1_555 1_555
C21_3 O5_3 1_555 1_555
O8_3 Zn6 1_555 1_555
C31_4 C32_4 1_555 1_555
C32_4 C33_4 1_555 1_555
C33_4 H33_4 1_555 1_555
C34_4 C33_4 1_555 1_555
H34_4 C34_4 1_555 1_555
C35_4 C34_4 1_555 1_555
C36_4 C35_4 1_555 1_555
H35_4 C36_4 1_555 1_555
C37_4 C32_4 1_555 1_555
H36_4 C37_4 1_555 1_555
C38_4 C35_4 1_555 1_555
C39_4 C38_4 1_555 1_555
H37_4 C39_4 1_555 1_555
H38_4 C42_4 1_555 1_555
C43_4 C38_4 1_555 1_555
C51_4 H43_4 1_555 1_555
H44_4 C51_4 1_555 1_555
C52_4 C51_4 1_555 1_555
H45_4 C52_4 1_555 1_555
H46_4 C52_4 1_555 1_555
C58_4 H58_4 1_555 1_555
C59_4 C58_4 1_555 1_555
H59_4 C59_4 1_555 1_555
C60_4 C59_4 1_555 1_555
C61_4 C60_4 1_555 1_555
H60_4 C61_4 1_555 1_555
C62_4 C61_4 1_555 1_555
H61_4 C62_4 1_555 1_555
C63_4 H62_4 1_555 1_555
C64_4 C63_4 1_555 1_555
H63_4 C64_4 1_555 1_555
C65_4 C60_4 1_555 1_555
C66_4 C65_4 1_555 1_555
H64_4 C66_4 1_555 1_555
C67_4 C66_4 1_555 1_555
H65_4 C67_4 1_555 1_555
N1_4 C58_4 1_555 1_555
N3 C63_4 1_555 1_555
O7_4 C31_4 1_555 1_555
O11_4 C43_4 1_555 1_555
Zn4_2 N1_4 1_555 1_555
C68_4 C52_4 1_555 1_555
H66_4 C68_4 1_555 1_555
H67_4 C68_4 1_555 1_555
C69_4 C68_4 1_555 1_555
H68_4 C69_4 1_555 1_555
H69_4 C69_4 1_555 1_555
C70_4 C69_4 1_555 1_555
H70_4 C70_4 1_555 1_555
H71_4 C70_4 1_555 1_555
H72_4 C70_4 1_555 1_555
C36_4 C37_4 1_555 1_555
C42_4 C43_4 1_555 1_555
C51_4 O11_4 1_555 1_555
C62_4 N1_4 1_555 1_555
C64_4 C65_4 1_555 1_555
C67_4 N3 1_555 1_555
O7_4 Zn4_2 1_555 1_555
C1_4 C2_4 1_555 1_555
C2_4 C3_4 1_555 1_555
C3_4 H1_4 1_555 1_555
C4_4 C3_4 1_555 1_555
H2_4 C4_4 1_555 1_555
C5_4 C4_4 1_555 1_555
C6_4 C5_4 1_555 1_555
H3_4 C6_4 1_555 1_555
C7_4 C2_4 1_555 1_555
H4_4 C7_4 1_555 1_555
C8_4 C5_4 1_555 1_555
C9_4 C8_4 1_555 1_555
H5_4 C9_4 1_555 1_555
C10_4 C9_4 1_555 1_555
C11_4 C10_4 1_555 1_555
C12_4 C11_4 1_555 1_555
H6_4 C12_4 1_555 1_555
C13_4 C8_4 1_555 1_555
C14_4 H7_4 1_555 1_555
C15_4 C14_4 1_555 1_555
H8_4 C15_4 1_555 1_555
C16_4 C11_4 1_555 1_555
C17_4 C16_4 1_555 1_555
H9_4 C17_4 1_555 1_555
C18_4 C17_4 1_555 1_555
H10_4 C18_4 1_555 1_555
C19_4 C14_4 1_555 1_555
C20_4 C19_4 1_555 1_555
C21_4 H11_4 1_555 1_555
H12_4 C21_4 1_555 1_555
C22_4 C21_4 1_555 1_555
H13_4 C22_4 1_555 1_555
H14_4 C22_4 1_555 1_555
C23_4 C22_4 1_555 1_555
H15_4 C23_4 1_555 1_555
H16_4 C23_4 1_555 1_555
C24_4 C23_4 1_555 1_555
H17_4 C24_4 1_555 1_555
H18_4 C24_4 1_555 1_555
C25_4 C24_4 1_555 1_555
H19_4 C25_4 1_555 1_555
H20_4 C25_4 1_555 1_555
H21_4 C25_4 1_555 1_555
C26_2 H22_2 1_555 1_555
H23_2 C26_2 1_555 1_555
C27_2 C26_2 1_555 1_555
H24_2 C27_2 1_555 1_555
H25_2 C27_2 1_555 1_555
C28_2 C27_2 1_555 1_555
H26_2 C28_2 1_555 1_555
H27_2 C28_2 1_555 1_555
C29_2 C28_2 1_555 1_555
H28_2 C29_2 1_555 1_555
H29_2 C29_2 1_555 1_555
C30_2 C29_2 1_555 1_555
H30_2 C30_2 1_555 1_555
H31_4 C30_2 1_555 1_555
H32_3 C30_2 1_555 1_555
O1_4 C1_4 1_555 1_555
O2_4 C1_4 1_555 1_555
O13_2 C20_4 1_555 1_555
O14_2 C20_4 1_555 1_555
O5_4 C13_4 1_555 1_555
O6_4 C10_4 1_555 1_555
Zn7 O2_4 1_555 1_555
C6_4 C7_4 1_555 1_555
C12_4 C13_4 1_555 1_555
C15_4 C16_4 1_555 1_555
C18_4 C19_4 1_555 1_555
C21_4 O5_4 1_555 1_555
C26_2 O6_4 1_555 1_555
O8_4 Zn7 1_555 1_555
C41_4 C40_4 1_555 1_555
C44_4 H39_4 1_555 1_555
C45_4 C44_4 1_555 1_555
H40_4 C45_4 1_555 1_555
C46_4 C41_4 1_555 1_555
C47_4 C46_4 1_555 1_555
H41_4 C47_4 1_555 1_555
C48_4 C47_4 1_555 1_555
H42_4 C48_4 1_555 1_555
C49_4 C44_4 1_555 1_555
C50_4 C49_4 1_555 1_555
C53_4 H47_4 1_555 1_555
H48_4 C53_4 1_555 1_555
C54_4 C53_4 1_555 1_555
H49_4 C54_4 1_555 1_555
H50_4 C54_4 1_555 1_555
C55_4 C54_4 1_555 1_555
H51_4 C55_4 1_555 1_555
H52_4 C55_4 1_555 1_555
C56_4 C55_4 1_555 1_555
H53_4 C56_4 1_555 1_555
H54_4 C56_4 1_555 1_555
C57_4 C56_4 1_555 1_555
H55_4 C57_4 1_555 1_555
H56_4 C57_4 1_555 1_555
O15_2 C50_4 1_555 1_555
O16_2 C50_4 1_555 1_555
O12_4 C40_4 1_555 1_555
C45_4 C46_4 1_555 1_555
C48_4 C49_4 1_555 1_555
C53_4 O12_4 1_555 1_555
C26_3 H22_3 1_555 1_555
H23_3 C26_3 1_555 1_555
C27_3 C26_3 1_555 1_555
H24_3 C27_3 1_555 1_555
H25_3 C27_3 1_555 1_555
H29_3 C29_3 1_555 1_555
C30_3 C29_3 1_555 1_555
H30_3 C30_3 1_555 1_555
H32_4 C30_3 1_555 1_555
H26_3 C28_3 1_555 1_555
H27_3 C28_3 1_555 1_555
C1_5 C2_5 1_555 1_555
C2_5 C3_5 1_555 1_555
C3_5 H1_5 1_555 1_555
C4_5 C3_5 1_555 1_555
H2_5 C4_5 1_555 1_555
C5_5 C4_5 1_555 1_555
C6_5 C5_5 1_555 1_555
H3_5 C6_5 1_555 1_555
C7_5 C2_5 1_555 1_555
H4_5 C7_5 1_555 1_555
C8_5 C5_5 1_555 1_555
C9_5 C8_5 1_555 1_555
H5_5 C9_5 1_555 1_555
H6_5 C12_5 1_555 1_555
C13_5 C8_5 1_555 1_555
C21_5 H11_5 1_555 1_555
H12_5 C21_5 1_555 1_555
C22_5 C21_5 1_555 1_555
H13_5 C22_5 1_555 1_555
H14_5 C22_5 1_555 1_555
C23_5 C22_5 1_555 1_555
H15_5 C23_5 1_555 1_555
H16_5 C23_5 1_555 1_555
C24_5 C23_5 1_555 1_555
H17_5 C24_5 1_555 1_555
H18_5 C24_5 1_555 1_555
C25_5 C24_5 1_555 1_555
H19_5 C25_5 1_555 1_555
H20_5 C25_5 1_555 1_555
H21_5 C25_5 1_555 1_555
O1_5 C1_5 1_555 1_555
O2_5 C1_5 1_555 1_555
O5_5 C13_5 1_555 1_555
Zn2_3 O2_5 1_555 1_555
O14_3 Zn2_3 1_555 1_555
O16_3 Zn2_3 1_555 1_555
C6_5 C7_5 1_555 1_555
C12_5 C13_5 1_555 1_555
C21_5 O5_5 1_555 1_555
O8_5 Zn2_3 1_555 1_555
C31_5 C32_5 1_555 1_555
C32_5 C33_5 1_555 1_555
C33_5 H33_5 1_555 1_555
C34_5 C33_5 1_555 1_555
H34_5 C34_5 1_555 1_555
C35_5 C34_5 1_555 1_555
C36_5 C35_5 1_555 1_555
H35_5 C36_5 1_555 1_555
C37_5 C32_5 1_555 1_555
H36_5 C37_5 1_555 1_555
C38_5 C35_5 1_555 1_555
C39_5 C38_5 1_555 1_555
H37_5 C39_5 1_555 1_555
C40_5 C39_5 1_555 1_555
C41_5 C40_5 1_555 1_555
C42_5 C41_5 1_555 1_555
H38_5 C42_5 1_555 1_555
C43_5 C38_5 1_555 1_555
C44_5 H39_5 1_555 1_555
C45_5 C44_5 1_555 1_555
H40_5 C45_5 1_555 1_555
C46_5 C41_5 1_555 1_555
C47_5 C46_5 1_555 1_555
H41_5 C47_5 1_555 1_555
C48_5 C47_5 1_555 1_555
H42_5 C48_5 1_555 1_555
C49_5 C44_5 1_555 1_555
C50_5 C49_5 1_555 1_555
C51_5 H43_5 1_555 1_555
H44_5 C51_5 1_555 1_555
C52_5 C51_5 1_555 1_555
H45_5 C52_5 1_555 1_555
H46_5 C52_5 1_555 1_555
C53_5 H47_5 1_555 1_555
H48_5 C53_5 1_555 1_555
C54_5 C53_5 1_555 1_555
H49_5 C54_5 1_555 1_555
H50_5 C54_5 1_555 1_555
C55_5 C54_5 1_555 1_555
H51_5 C55_5 1_555 1_555
H52_5 C55_5 1_555 1_555
C56_5 C55_5 1_555 1_555
H53_5 C56_5 1_555 1_555
H54_5 C56_5 1_555 1_555
C57_5 C56_5 1_555 1_555
H55_5 C57_5 1_555 1_555
H56_5 C57_5 1_555 1_555
H57_5 C57_5 1_555 1_555
C58_5 H58_5 1_555 1_555
C59_5 C58_5 1_555 1_555
H59_5 C59_5 1_555 1_555
C60_5 C59_5 1_555 1_555
C61_5 C60_5 1_555 1_555
H60_5 C61_5 1_555 1_555
C62_5 C61_5 1_555 1_555
H61_5 C62_5 1_555 1_555
C63_5 H62_5 1_555 1_555
C64_5 C63_5 1_555 1_555
H63_5 C64_5 1_555 1_555
C65_5 C60_5 1_555 1_555
C66_5 C65_5 1_555 1_555
H64_5 C66_5 1_555 1_555
C67_5 C66_5 1_555 1_555
H65_5 C67_5 1_555 1_555
N1_5 C58_5 1_555 1_555
N2_3 C63_5 1_555 1_555
O7_5 C31_5 1_555 1_555
O9_3 C50_5 1_555 1_555
O10_3 C50_5 1_555 1_555
O11_5 C43_5 1_555 1_555
O12_5 C40_5 1_555 1_555
Zn1_3 N1_5 1_555 1_555
C68_5 C52_5 1_555 1_555
H66_5 C68_5 1_555 1_555
H67_5 C68_5 1_555 1_555
C69_5 C68_5 1_555 1_555
H68_5 C69_5 1_555 1_555
H69_5 C69_5 1_555 1_555
C70_5 C69_5 1_555 1_555
H70_5 C70_5 1_555 1_555
H71_5 C70_5 1_555 1_555
H72_5 C70_5 1_555 1_555
O13_3 Zn1_3 1_555 1_555
Zn4_3 O9_3 1_555 1_555
Zn6_2 O10_3 1_555 1_555
Zn7_2 N2_3 1_555 1_555
C36_5 C37_5 1_555 1_555
C42_5 C43_5 1_555 1_555
C45_5 C46_5 1_555 1_555
C48_5 C49_5 1_555 1_555
C51_5 O11_5 1_555 1_555
C53_5 O12_5 1_555 1_555
C62_5 N1_5 1_555 1_555
C64_5 C65_5 1_555 1_555
C67_5 N2_3 1_555 1_555
O7_5 Zn1_3 1_555 1_555
C11_5 C10_5 1_555 1_555
C14_5 H7_5 1_555 1_555
C15_5 C14_5 1_555 1_555
H8_5 C15_5 1_555 1_555
C16_5 C11_5 1_555 1_555
C17_5 C16_5 1_555 1_555
H9_5 C17_5 1_555 1_555
C18_5 C17_5 1_555 1_555
H10_5 C18_5 1_555 1_555
C19_5 C14_5 1_555 1_555
C20_5 C19_5 1_555 1_555
O3_3 C20_5 1_555 1_555
O4_3 C20_5 1_555 1_555
O6_5 C10_5 1_555 1_555
Zn4_3 O3_3 1_555 1_555
Zn6_2 O4_3 1_555 1_555
C15_5 C16_5 1_555 1_555
C18_5 C19_5 1_555 1_555
C41_6 C40_6 1_555 1_555
C44_6 H39_6 1_555 1_555
C45_6 C44_6 1_555 1_555
H40_6 C45_6 1_555 1_555
C46_6 C41_6 1_555 1_555
C47_6 C46_6 1_555 1_555
H41_6 C47_6 1_555 1_555
C48_6 C47_6 1_555 1_555
H42_6 C48_6 1_555 1_555
C49_6 C44_6 1_555 1_555
C50_6 C49_6 1_555 1_555
C53_6 H47_6 1_555 1_555
H48_6 C53_6 1_555 1_555
C54_6 C53_6 1_555 1_555
H49_6 C54_6 1_555 1_555
H50_6 C54_6 1_555 1_555
C55_6 C54_6 1_555 1_555
H51_6 C55_6 1_555 1_555
H52_6 C55_6 1_555 1_555
C56_6 C55_6 1_555 1_555
H53_6 C56_6 1_555 1_555
H54_6 C56_6 1_555 1_555
C57_6 C56_6 1_555 1_555
H55_6 C57_6 1_555 1_555
H56_6 C57_6 1_555 1_555
O9_4 C50_6 1_555 1_555
O10_4 C50_6 1_555 1_555
O12_6 C40_6 1_555 1_555
Zn4_4 O9_4 1_555 1_555
Zn7_2 O10_4 1_555 1_555
C45_6 C46_6 1_555 1_555
C48_6 C49_6 1_555 1_555
C53_6 O12_6 1_555 1_555
C1_6 C2_6 1_555 1_555
C2_6 C3_6 1_555 1_555
C3_6 H1_6 1_555 1_555
C4_6 C3_6 1_555 1_555
H2_6 C4_6 1_555 1_555
C5_6 C4_6 1_555 1_555
C6_6 C5_6 1_555 1_555
H3_6 C6_6 1_555 1_555
C7_6 C2_6 1_555 1_555
H4_6 C7_6 1_555 1_555
C8_6 C5_6 1_555 1_555
C9_6 C8_6 1_555 1_555
H5_6 C9_6 1_555 1_555
C10_6 C9_6 1_555 1_555
C11_6 C10_6 1_555 1_555
C12_6 C11_6 1_555 1_555
H6_6 C12_6 1_555 1_555
C13_6 C8_6 1_555 1_555
C14_6 H7_6 1_555 1_555
C15_6 C14_6 1_555 1_555
H8_6 C15_6 1_555 1_555
C16_6 C11_6 1_555 1_555
C17_6 C16_6 1_555 1_555
H9_6 C17_6 1_555 1_555
C18_6 C17_6 1_555 1_555
H10_6 C18_6 1_555 1_555
C19_6 C14_6 1_555 1_555
C20_6 C19_6 1_555 1_555
C21_6 H11_6 1_555 1_555
H12_6 C21_6 1_555 1_555
C22_6 C21_6 1_555 1_555
H13_6 C22_6 1_555 1_555
H14_6 C22_6 1_555 1_555
C23_6 C22_6 1_555 1_555
H15_6 C23_6 1_555 1_555
H16_6 C23_6 1_555 1_555
C24_6 C23_6 1_555 1_555
H17_6 C24_6 1_555 1_555
H18_6 C24_6 1_555 1_555
C25_6 C24_6 1_555 1_555
H19_6 C25_6 1_555 1_555
H20_6 C25_6 1_555 1_555
H21_6 C25_6 1_555 1_555
C26_4 H22_4 1_555 1_555
H23_4 C26_4 1_555 1_555
C27_4 C26_4 1_555 1_555
H24_4 C27_4 1_555 1_555
H25_4 C27_4 1_555 1_555
C28_4 C27_4 1_555 1_555
H26_4 C28_4 1_555 1_555
H27_4 C28_4 1_555 1_555
C29_4 C28_4 1_555 1_555
H28_4 C29_4 1_555 1_555
H29_4 C29_4 1_555 1_555
C30_4 C29_4 1_555 1_555
H30_4 C30_4 1_555 1_555
H31_6 C30_4 1_555 1_555
H32_6 C30_4 1_555 1_555
O1_6 C1_6 1_555 1_555
O2_6 C1_6 1_555 1_555
O3_4 C20_6 1_555 1_555
O4_4 C20_6 1_555 1_555
O5_6 C13_6 1_555 1_555
O6_6 C10_6 1_555 1_555
Zn2_4 O2_6 1_555 1_555
N3_4 Zn2_4 1_555 1_555
O14_4 Zn2_4 1_555 1_555
O16_4 Zn2_4 1_555 1_555
Zn4_4 O3_4 1_555 1_555
Zn7_2 O4_4 1_555 1_555
C6_6 C7_6 1_555 1_555
C12_6 C13_6 1_555 1_555
C15_6 C16_6 1_555 1_555
C18_6 C19_6 1_555 1_555
C21_6 O5_6 1_555 1_555
C26_4 O6_6 1_555 1_555
O8_6 Zn2_4 1_555 1_555
C31_6 C32_6 1_555 1_555
C32_6 C33_6 1_555 1_555
C33_6 H33_6 1_555 1_555
C34_6 C33_6 1_555 1_555
H34_6 C34_6 1_555 1_555
C35_6 C34_6 1_555 1_555
C36_6 C35_6 1_555 1_555
H35_6 C36_6 1_555 1_555
C37_6 C32_6 1_555 1_555
H36_6 C37_6 1_555 1_555
C38_6 C35_6 1_555 1_555
C39_6 C38_6 1_555 1_555
H37_6 C39_6 1_555 1_555
H38_6 C42_6 1_555 1_555
C43_6 C38_6 1_555 1_555
C51_6 H43_6 1_555 1_555
H44_6 C51_6 1_555 1_555
C52_6 C51_6 1_555 1_555
H45_6 C52_6 1_555 1_555
H46_6 C52_6 1_555 1_555
C58_6 H58_6 1_555 1_555
C59_6 C58_6 1_555 1_555
H59_6 C59_6 1_555 1_555
C60_6 C59_6 1_555 1_555
C61_6 C60_6 1_555 1_555
H60_6 C61_6 1_555 1_555
C62_6 C61_6 1_555 1_555
H61_6 C62_6 1_555 1_555
C63_6 H62_6 1_555 1_555
C64_6 C63_6 1_555 1_555
H63_6 C64_6 1_555 1_555
C65_6 C60_6 1_555 1_555
C66_6 C65_6 1_555 1_555
H64_6 C66_6 1_555 1_555
C67_6 C66_6 1_555 1_555
H65_6 C67_6 1_555 1_555
N1_6 C58_6 1_555 1_555
N2_4 C63_6 1_555 1_555
O7_6 C31_6 1_555 1_555
O11_6 C43_6 1_555 1_555
Zn1_4 N1_6 1_555 1_555
C68_6 C52_6 1_555 1_555
H66_6 C68_6 1_555 1_555
H67_6 C68_6 1_555 1_555
C69_6 C68_6 1_555 1_555
H68_6 C69_6 1_555 1_555
H69_6 C69_6 1_555 1_555
C70_6 C69_6 1_555 1_555
H70_6 C70_6 1_555 1_555
H71_6 C70_6 1_555 1_555
H72_6 C70_6 1_555 1_555
O13_4 Zn1_4 1_555 1_555
C36_6 C37_6 1_555 1_555
C42_6 C43_6 1_555 1_555
C51_6 O11_6 1_555 1_555
C62_6 N1_6 1_555 1_555
C64_6 C65_6 1_555 1_555
C67_6 N2_4 1_555 1_555
O7_6 Zn1_4 1_555 1_555
H10_7 C18_7 1_555 1_555
O14_3 C20_7 1_555 1_555
C11_7 C10_7 1_555 1_555
C14_7 H7_7 1_555 1_555
C15_7 C14_7 1_555 1_555
H8_7 C15_7 1_555 1_555
C16_7 C11_7 1_555 1_555
C17_7 C16_7 1_555 1_555
H9_7 C17_7 1_555 1_555
C19_7 C14_7 1_555 1_555
O6_7 C10_7 1_555 1_555
C15_7 C16_7 1_555 1_555
C1_7 C2_7 1_555 1_555
C2_7 C3_7 1_555 1_555
C3_7 H1_7 1_555 1_555
C4_7 C3_7 1_555 1_555
H2_7 C4_7 1_555 1_555
C5_7 C4_7 1_555 1_555
C6_7 C5_7 1_555 1_555
H3_7 C6_7 1_555 1_555
C7_7 C2_7 1_555 1_555
H4_7 C7_7 1_555 1_555
C8_7 C5_7 1_555 1_555
C9_7 C8_7 1_555 1_555
H5_7 C9_7 1_555 1_555
H6_7 C12_7 1_555 1_555
C13_7 C8_7 1_555 1_555
C21_7 H11_7 1_555 1_555
H12_7 C21_7 1_555 1_555
C22_7 C21_7 1_555 1_555
H13_7 C22_7 1_555 1_555
H14_7 C22_7 1_555 1_555
C23_7 C22_7 1_555 1_555
H15_7 C23_7 1_555 1_555
H16_7 C23_7 1_555 1_555
C24_7 C23_7 1_555 1_555
H17_7 C24_7 1_555 1_555
H18_7 C24_7 1_555 1_555
C25_7 C24_7 1_555 1_555
H19_7 C25_7 1_555 1_555
H20_7 C25_7 1_555 1_555
H21_7 C25_7 1_555 1_555
C31_7 C32_7 1_555 1_555
C32_7 C33_7 1_555 1_555
C33_7 H33_7 1_555 1_555
C34_7 C33_7 1_555 1_555
H34_7 C34_7 1_555 1_555
C35_7 C34_7 1_555 1_555
C36_7 C35_7 1_555 1_555
H35_7 C36_7 1_555 1_555
C37_7 C32_7 1_555 1_555
H36_7 C37_7 1_555 1_555
C38_7 C35_7 1_555 1_555
C39_7 C38_7 1_555 1_555
H37_7 C39_7 1_555 1_555
C40_7 C39_7 1_555 1_555
C41_7 C40_7 1_555 1_555
C42_7 C41_7 1_555 1_555
H38_7 C42_7 1_555 1_555
C43_7 C38_7 1_555 1_555
C44_7 H39_7 1_555 1_555
C45_7 C44_7 1_555 1_555
H40_7 C45_7 1_555 1_555
C46_7 C41_7 1_555 1_555
C47_7 C46_7 1_555 1_555
H41_7 C47_7 1_555 1_555
C48_7 C47_7 1_555 1_555
H42_7 C48_7 1_555 1_555
C49_7 C44_7 1_555 1_555
C50_7 C49_7 1_555 1_555
C51_7 H43_7 1_555 1_555
H44_7 C51_7 1_555 1_555
C52_7 C51_7 1_555 1_555
H45_7 C52_7 1_555 1_555
H46_7 C52_7 1_555 1_555
C53_7 H47_7 1_555 1_555
H48_7 C53_7 1_555 1_555
C54_7 C53_7 1_555 1_555
H49_7 C54_7 1_555 1_555
H50_7 C54_7 1_555 1_555
C55_7 C54_7 1_555 1_555
H51_7 C55_7 1_555 1_555
H52_7 C55_7 1_555 1_555
C56_7 C55_7 1_555 1_555
H53_7 C56_7 1_555 1_555
H54_7 C56_7 1_555 1_555
C57_7 C56_7 1_555 1_555
H56_7 C57_7 1_555 1_555
H57_7 C57_7 1_555 1_555
C58_7 H58_7 1_555 1_555
C59_7 C58_7 1_555 1_555
H59_7 C59_7 1_555 1_555
C60_7 C59_7 1_555 1_555
C61_7 C60_7 1_555 1_555
H60_7 C61_7 1_555 1_555
C62_7 C61_7 1_555 1_555
H61_7 C62_7 1_555 1_555
C63_7 H62_7 1_555 1_555
C64_7 C63_7 1_555 1_555
H63_7 C64_7 1_555 1_555
C65_7 C60_7 1_555 1_555
C66_7 C65_7 1_555 1_555
H64_7 C66_7 1_555 1_555
C67_7 C66_7 1_555 1_555
H65_7 C67_7 1_555 1_555
N1_7 C58_7 1_555 1_555
N3_4 C63_7 1_555 1_555
O1_7 C1_7 1_555 1_555
O2_7 C1_7 1_555 1_555
O5_7 C13_7 1_555 1_555
O7_7 C31_7 1_555 1_555
O8_7 C31_7 1_555 1_555
O15_3 C50_7 1_555 1_555
O16_3 C50_7 1_555 1_555
O11_7 C43_7 1_555 1_555
O12_7 C40_7 1_555 1_555
Zn4_3 N1_7 1_555 1_555
Zn6_2 O2_7 1_555 1_555
C68_7 C52_7 1_555 1_555
H66_7 C68_7 1_555 1_555
H67_7 C68_7 1_555 1_555
C69_7 C68_7 1_555 1_555
H68_7 C69_7 1_555 1_555
H69_7 C69_7 1_555 1_555
C70_7 C69_7 1_555 1_555
H70_7 C70_7 1_555 1_555
H71_7 C70_7 1_555 1_555
H72_7 C70_7 1_555 1_555
C6_7 C7_7 1_555 1_555
C12_7 C13_7 1_555 1_555
C21_7 O5_7 1_555 1_555
C36_7 C37_7 1_555 1_555
C42_7 C43_7 1_555 1_555
C45_7 C46_7 1_555 1_555
C48_7 C49_7 1_555 1_555
C51_7 O11_7 1_555 1_555
C53_7 O12_7 1_555 1_555
C62_7 N1_7 1_555 1_555
C64_7 C65_7 1_555 1_555
C67_7 N3_4 1_555 1_555
O1_7 Zn4_3 1_555 1_555
O7_7 Zn4_3 1_555 1_555
O8_7 Zn6_2 1_555 1_555
H10_8 C18_8 1_555 1_555
H26_5 C28_5 1_555 1_555
H27_5 C28_5 1_555 1_555
O14_4 C20_8 1_555 1_555
C1_8 C2_8 1_555 1_555
C2_8 C3_8 1_555 1_555
C3_8 H1_8 1_555 1_555
C4_8 C3_8 1_555 1_555
H2_8 C4_8 1_555 1_555
C5_8 C4_8 1_555 1_555
C6_8 C5_8 1_555 1_555
H3_8 C6_8 1_555 1_555
C7_8 C2_8 1_555 1_555
H4_8 C7_8 1_555 1_555
C8_8 C5_8 1_555 1_555
C9_8 C8_8 1_555 1_555
H5_8 C9_8 1_555 1_555
C10_8 C9_8 1_555 1_555
C11_8 C10_8 1_555 1_555
C12_8 C11_8 1_555 1_555
H6_8 C12_8 1_555 1_555
C13_8 C8_8 1_555 1_555
C14_8 H7_8 1_555 1_555
C15_8 C14_8 1_555 1_555
H8_8 C15_8 1_555 1_555
C16_8 C11_8 1_555 1_555
C17_8 C16_8 1_555 1_555
H9_8 C17_8 1_555 1_555
C19_8 C14_8 1_555 1_555
C21_8 H11_8 1_555 1_555
H12_8 C21_8 1_555 1_555
C22_8 C21_8 1_555 1_555
H13_8 C22_8 1_555 1_555
H14_8 C22_8 1_555 1_555
C23_8 C22_8 1_555 1_555
H15_8 C23_8 1_555 1_555
H16_8 C23_8 1_555 1_555
C24_8 C23_8 1_555 1_555
H17_8 C24_8 1_555 1_555
H18_8 C24_8 1_555 1_555
C25_8 C24_8 1_555 1_555
H19_8 C25_8 1_555 1_555
H20_8 C25_8 1_555 1_555
H21_8 C25_8 1_555 1_555
C26_5 H22_5 1_555 1_555
H23_5 C26_5 1_555 1_555
C27_5 C26_5 1_555 1_555
H24_5 C27_5 1_555 1_555
H25_5 C27_5 1_555 1_555
H29_5 C29_5 1_555 1_555
C30_5 C29_5 1_555 1_555
H30_5 C30_5 1_555 1_555
H31_8 C30_5 1_555 1_555
H32_8 C30_5 1_555 1_555
C31_8 C32_8 1_555 1_555
C32_8 C33_8 1_555 1_555
C33_8 H33_8 1_555 1_555
C34_8 C33_8 1_555 1_555
H34_8 C34_8 1_555 1_555
C35_8 C34_8 1_555 1_555
C36_8 C35_8 1_555 1_555
H35_8 C36_8 1_555 1_555
C37_8 C32_8 1_555 1_555
H36_8 C37_8 1_555 1_555
C38_8 C35_8 1_555 1_555
C39_8 C38_8 1_555 1_555
H37_8 C39_8 1_555 1_555
H38_8 C42_8 1_555 1_555
C43_8 C38_8 1_555 1_555
C51_8 H43_8 1_555 1_555
H44_8 C51_8 1_555 1_555
C52_8 C51_8 1_555 1_555
H45_8 C52_8 1_555 1_555
H46_8 C52_8 1_555 1_555
C58_8 H58_8 1_555 1_555
C59_8 C58_8 1_555 1_555
H59_8 C59_8 1_555 1_555
C60_8 C59_8 1_555 1_555
C61_8 C60_8 1_555 1_555
H60_8 C61_8 1_555 1_555
C62_8 C61_8 1_555 1_555
H61_8 C62_8 1_555 1_555
C63_8 H62_8 1_555 1_555
C64_8 C63_8 1_555 1_555
H63_8 C64_8 1_555 1_555
C65_8 C60_8 1_555 1_555
C66_8 C65_8 1_555 1_555
H64_8 C66_8 1_555 1_555
C67_8 C66_8 1_555 1_555
H65_8 C67_8 1_555 1_555
N1_8 C58_8 1_555 1_555
N3_3 C63_8 1_555 1_555
O1_8 C1_8 1_555 1_555
O2_8 C1_8 1_555 1_555
O5_8 C13_8 1_555 1_555
O6_8 C10_8 1_555 1_555
O7_8 C31_8 1_555 1_555
O8_8 C31_8 1_555 1_555
O11_8 C43_8 1_555 1_555
Zn4_4 N1_8 1_555 1_555
Zn7_2 O2_8 1_555 1_555
C68_8 C52_8 1_555 1_555
H66_8 C68_8 1_555 1_555
H67_8 C68_8 1_555 1_555
C69_8 C68_8 1_555 1_555
H68_8 C69_8 1_555 1_555
H69_8 C69_8 1_555 1_555
C70_8 C69_8 1_555 1_555
H70_8 C70_8 1_555 1_555
H71_8 C70_8 1_555 1_555
H72_8 C70_8 1_555 1_555
C6_8 C7_8 1_555 1_555
C12_8 C13_8 1_555 1_555
C15_8 C16_8 1_555 1_555
C21_8 O5_8 1_555 1_555
C26_5 O6_8 1_555 1_555
C36_8 C37_8 1_555 1_555
C42_8 C43_8 1_555 1_555
C51_8 O11_8 1_555 1_555
C62_8 N1_8 1_555 1_555
C64_8 C65_8 1_555 1_555
C67_8 N3_3 1_555 1_555
O1_8 Zn4_4 1_555 1_555
O7_8 Zn4_4 1_555 1_555
O8_8 Zn7_2 1_555 1_555
C41_8 C40_8 1_555 1_555
C44_8 H39_8 1_555 1_555
C45_8 C44_8 1_555 1_555
H40_8 C45_8 1_555 1_555
C46_8 C41_8 1_555 1_555
C47_8 C46_8 1_555 1_555
H41_8 C47_8 1_555 1_555
C48_8 C47_8 1_555 1_555
H42_8 C48_8 1_555 1_555
C49_8 C44_8 1_555 1_555
C50_8 C49_8 1_555 1_555
C53_8 H47_8 1_555 1_555
H48_8 C53_8 1_555 1_555
C54_8 C53_8 1_555 1_555
H49_8 C54_8 1_555 1_555
H50_8 C54_8 1_555 1_555
C55_8 C54_8 1_555 1_555
H51_8 C55_8 1_555 1_555
H52_8 C55_8 1_555 1_555
C56_8 C55_8 1_555 1_555
H53_8 C56_8 1_555 1_555
H54_8 C56_8 1_555 1_555
C57_8 C56_8 1_555 1_555
H56_8 C57_8 1_555 1_555
O15_4 C50_8 1_555 1_555
O16_4 C50_8 1_555 1_555
O12_8 C40_8 1_555 1_555
C45_8 C46_8 1_555 1_555
C48_8 C49_8 1_555 1_555
C53_8 O12_8 1_555 1_555
C26_6 H22_6 1_555 1_555
H23_6 C26_6 1_555 1_555
C27_6 C26_6 1_555 1_555
H24_6 C27_6 1_555 1_555
H25_6 C27_6 1_555 1_555
C28_6 C27_6 1_555 1_555
H26_6 C28_6 1_555 1_555
H27_6 C28_6 1_555 1_555
C29_6 C28_6 1_555 1_555
H28_6 C29_6 1_555 1_555
H29_6 C29_6 1_555 1_555
C30_6 C29_6 1_555 1_555
H30_6 C30_6 1_555 1_555
H32_9 C30_6 1_555 1_555
H26_7 C28_7 1_555 1_555
H27_7 C28_7 1_555 1_555
C26_7 H22_7 1_555 1_555
H23_7 C26_7 1_555 1_555
C27_7 C26_7 1_555 1_555
H24_7 C27_7 1_555 1_555
H25_7 C27_7 1_555 1_555
H29_7 C29_7 1_555 1_555
C30_7 C29_7 1_555 1_555
H30_7 C30_7 1_555 1_555
H32_11 C30_7 1_555 1_555
C26_8 H22_8 1_555 1_555
H23_8 C26_8 1_555 1_555
C27_8 C26_8 1_555 1_555
H24_8 C27_8 1_555 1_555
H25_8 C27_8 1_555 1_555
C28_8 C27_8 1_555 1_555
H26_8 C28_8 1_555 1_555
H27_8 C28_8 1_555 1_555
C29_8 C28_8 1_555 1_555
H28_8 C29_8 1_555 1_555
H29_8 C29_8 1_555 1_555
C30_8 C29_8 1_555 1_555
H30_8 C30_8 1_555 1_555
H32_12 C30_8 1_555 1_555

#END
