
###############################################################################
#
# This file contains modified crystal structure data generated from the
# MOF subset of the Cambridge Structural Database (CSD) v543 
# hosted by the Cambridge Crystallographic Data Centre (CCDC).
#
# This work is licensed under the Creative Commons
# Attribution-NonCommercial-ShareAlike 4.0 International License.
# To view a copy of this license, visit
# http://creativecommons.org/licenses/by-nc-sa/4.0/
# or send a letter to
# Creative Commons, PO Box 1866, Mountain View, CA 94042, USA.
#
# CIF created using the CSD Python API on 29 September 2022
# The structure has been converted into the P1 space group
# The structure has a 3D framework
# The original CSD entry HUZXEH is in the monoclinic crystal system
# The framework has been calculated to contain at least 10.0% void space
# The void calculation uses a probe of radius 1.32A, grid spacing 0.4
#
###############################################################################

data_HUZXEH
_chemical_formula_moiety         '(C464 H384 N16 O96 Zn16)n'
_symmetry_cell_setting           triclinic
_symmetry_space_group_name_H-M   'P 1'
_symmetry_Int_Tables_number      1
_space_group_name_Hall           'P 1'
loop_
_symmetry_equiv_pos_site_id
_symmetry_equiv_pos_as_xyz
1 x,y,z
_cell_length_a                   39.005
_cell_length_b                   27.431
_cell_length_c                   27.362
_cell_angle_alpha                90
_cell_angle_beta                 133.84
_cell_angle_gamma                90
_cell_volume                     21116
loop_
_atom_site_label
_atom_site_type_symbol
_atom_site_fract_x
_atom_site_fract_y
_atom_site_fract_z
C9 C 0.6108 0.4305 0.0383
C10 C 0.6131 0.4679 0.0818
H5 H 0.6304 0.4627 0.1273
C11 C 0.5882 0.5091 0.0493
C14 C 0.6326(7) 0.6097(7) 0.1740(10)
H7 H 0.6619 0.6234 0.2108
C15 C 0.6307(7) 0.5710(8) 0.1394(11)
H8 H 0.6587 0.5597 0.1529
C16 C 0.5887(8) 0.5490(7) 0.0862(12)
C17 C 0.5483(7) 0.5672(7) 0.0677(11)
H9 H 0.5192 0.5536 0.0306
C18 C 0.5494(6) 0.6048(6) 0.1020(9)
H10 H 0.5216 0.6146 0.0901
C19 C 0.5923(6) 0.6281(5) 0.1548(8)
C20 C 0.5934(5) 0.6716(5) 0.1892(8)
C23 C 0.6872 0.3941 0.1688
H16 H 0.7174 0.4105 0.1942
H17 H 0.6713 0.4077 0.1814
C24 C 0.6937 0.3390 0.1803
H18 H 0.7230 0.3324 0.2259
H19 H 0.6945 0.3244 0.1492
H20 H 0.6677 0.3256 0.1730
O3 O 0.5556(3) 0.6888(3) 0.1652(5)
O4 O 0.6339(4) 0.6882(3) 0.2391(5)
O6 O 0.6508 0.3986 0.0791
Zn4 Zn 0.54856(5) 0.75306(5) 0.19537(7)
Zn6 Zn 0.65287(5) 0.74684(5) 0.29921(7)
C1 C 0.5974(5) 0.3007(5) 0.8228(7)
C2 C 0.5968(5) 0.3344(5) 0.8667(8)
C3 C 0.6372(6) 0.3567(6) 0.9235(9)
H1 H 0.6663 0.3507 0.9373
C4 C 0.6343(7) 0.3879(6) 0.9598(10)
H2 H 0.6619 0.4023 0.9989
C5 C 0.5913(7) 0.3985(6) 0.9394(10)
C6 C 0.5507(6) 0.3759(5) 0.8821(9)
H3 H 0.5215 0.3827 0.8679
C7 C 0.5528(5) 0.3441(5) 0.8466(8)
H4 H 0.5253 0.3285 0.8089
C8 C 0.5887 0.4346 0.9776
C12 C 0.5524 0.5067 0.9782
C13 C 0.5511 0.4739 0.9384
H6 H 0.5290 0.4760 0.8914
C21 C 0.4742 0.5393 0.8581
H11 H 0.4834 0.5417 0.8331
H12 H 0.4563 0.5095 0.8454
C22 C 0.4458 0.5843 0.8465
H13 H 0.4172 0.5867 0.7993
H14 H 0.4647 0.6131 0.8604
H15 H 0.4378 0.5812 0.8726
C25 C 0.6063(6) 0.1993(5) 0.6737(8)
C26 C 0.6076(6) 0.1656(6) 0.6314(8)
C27 C 0.5665(6) 0.1514(7) 0.5691(9)
H21 H 0.5375 0.1635 0.5512
C28 C 0.5686(7) 0.1194(8) 0.5331(11)
H22 H 0.5402 0.1094 0.4908
C29 C 0.6109(8) 0.1007(7) 0.5564(11)
C30 C 0.6523(7) 0.1175(8) 0.6185(11)
H23 H 0.6815 0.1070 0.6354
C31 C 0.6510(6) 0.1494(7) 0.6556(10)
H24 H 0.6793 0.1604 0.6973
C32 C 0.6097 0.0628 0.5175
C33 C 0.5848 0.0686 0.4490
C34 C 0.5856 0.0329 0.4151
H25 H 0.5674 0.0383 0.3693
C37 C 0.6356 0.0219 0.5508
H26 H 0.6538 0.0183 0.5969
C45 C 0.5417 0.1327 0.3501
H31 H 0.5689 0.1343 0.3553
H32 H 0.5165 0.1144 0.3095
C46 C 0.5291 0.1710 0.3489
H33 H 0.5196 0.1888 0.3110
H34 H 0.5546 0.1879 0.3901
H35 H 0.5026 0.1682 0.3447
C49 C 0.4519(5) 0.2626(7) 0.5628(8)
H41 H 0.4684 0.2786 0.5545
C50 C 0.4027(5) 0.2626(7) 0.5123(8)
H42 H 0.3871 0.2775 0.4709
C51 C 0.3777(5) 0.2409(5) 0.5232(8)
C52 C 0.4029(5) 0.2167(6) 0.5834(8)
H43 H 0.3869 0.1995 0.5918
C53 C 0.4509(5) 0.2178(5) 0.6304(7)
H44 H 0.4674 0.2013 0.6711
C54 C 0.2507(7) 0.2489(13) 0.3580(13)
H45 H 0.2353 0.2548 0.3133
C55 C 0.2989(7) 0.2471(12) 0.4057(13)
H46 H 0.3149 0.2501 0.3918
C56 C 0.3239(5) 0.2415(5) 0.4699(7)
C57 C 0.2982(7) 0.2304(13) 0.4800(11)
H47 H 0.3125 0.2211 0.5233
C58 C 0.2494(6) 0.2315(12) 0.4288(12)
H48 H 0.2331 0.2222 0.4408
N1 N 0.4759(4) 0.2419(4) 0.6205(6)
N2 N 0.2254(4) 0.2428(4) 0.3714(6)
O1 O 0.5600(3) 0.2840(3) 0.7699(5)
O2 O 0.6388(3) 0.2931(3) 0.8467(5)
O5 O 0.5200 0.5419 0.9391
O7 O 0.5671(3) 0.2123(4) 0.6503(5)
O8 O 0.6454(4) 0.2109(4) 0.7316(5)
O11 O 0.5547 0.1110 0.4112
Zn1 Zn 0.54856(5) 0.24694(5) 0.69537(7)
Zn2 Zn 0.65287(5) 0.25316(5) 0.79921(7)
N3 N 0.7254(4) 0.2572(4) 0.8714(6)
O13 O 0.5556(3) 0.3112(3) 0.6652(5)
O14 O 0.6339(4) 0.3118(3) 0.7391(5)
O15 O 0.5640(4) 0.1838(3) 0.7472(5)
O16 O 0.6429(3) 0.1913(3) 0.8308(5)
Zn7 Zn 0.15287(5) 0.24684(5) 0.29921(7)
C35 C 0.6097 0.9910 0.4408
C36 C 0.6343 0.9812 0.5102
C38 C 0.5652(6) 0.8989(5) 0.3064(8)
H27 H 0.5366 0.8901 0.2636
C39 C 0.5657(6) 0.9366(6) 0.3408(10)
H28 H 0.5375 0.9520 0.3219
C40 C 0.6091(7) 0.9510(6) 0.4046(10)
C41 C 0.6494(6) 0.9281(6) 0.4301(9)
H29 H 0.6784 0.9378 0.4718
C42 C 0.6484(6) 0.8902(6) 0.3952(9)
H30 H 0.6767 0.8757 0.4134
C43 C 0.6067(5) 0.8743(5) 0.3351(7)
C44 C 0.6046(6) 0.8299(5) 0.3018(8)
C47 C 0.6916 0.9335 0.6318
H36 H 0.7189 0.9548 0.6619
H37 H 0.6705 0.9377 0.6387
C48 C 0.7056 0.8807 0.6379
H38 H 0.7229 0.8692 0.6829
H39 H 0.7253 0.8781 0.6288
H40 H 0.6775 0.8613 0.6058
O9 O 0.5640(4) 0.8162(3) 0.2472(5)
O10 O 0.6429(3) 0.8087(3) 0.3308(5)
O12 O 0.6628 0.9406 0.5483
C11_2 C 0.0882 0.0091 0.0493
C14_2 C 0.1326(7) 0.1097(7) 0.1740(10)
H7_2 H 0.1619 0.1234 0.2108
C15_2 C 0.1307(7) 0.0710(8) 0.1394(11)
H8_2 H 0.1587 0.0597 0.1529
C16_2 C 0.0887(8) 0.0490(7) 0.0862(12)
C17_2 C 0.0483(7) 0.0672(7) 0.0677(11)
H9_2 H 0.0192 0.0536 0.0306
C18_2 C 0.0494(6) 0.1048(6) 0.1020(9)
H10_2 H 0.0216 0.1146 0.0901
C19_2 C 0.0923(6) 0.1281(5) 0.1548(8)
C20_2 C 0.0934(5) 0.1716(5) 0.1892(8)
O3_2 O 0.0556(3) 0.1888(3) 0.1652(5)
O4_2 O 0.1339(4) 0.1882(3) 0.2391(5)
Zn4_2 Zn 0.04856(5) 0.25306(5) 0.19537(7)
C1_2 C 0.0974(5) 0.8007(5) 0.8228(7)
C2_2 C 0.0968(5) 0.8344(5) 0.8667(8)
C3_2 C 0.1372(6) 0.8567(6) 0.9235(9)
H1_2 H 0.1663 0.8507 0.9373
C4_2 C 0.1343(7) 0.8879(6) 0.9598(10)
H2_2 H 0.1619 0.9023 0.9989
C5_2 C 0.0913(7) 0.8985(6) 0.9394(10)
C6_2 C 0.0507(6) 0.8759(5) 0.8821(9)
H3_2 H 0.0215 0.8827 0.8679
C7_2 C 0.0528(5) 0.8441(5) 0.8466(8)
H4_2 H 0.0253 0.8285 0.8089
C8_2 C 0.0887 0.9346 0.9776
C13_2 C 0.0511 0.9739 0.9384
H6_2 H 0.0290 0.9760 0.8914
C25_2 C 0.1063(6) 0.6993(5) 0.6737(8)
C26_2 C 0.1076(6) 0.6656(6) 0.6314(8)
C27_2 C 0.0665(6) 0.6514(7) 0.5691(9)
H21_2 H 0.0375 0.6635 0.5512
C28_2 C 0.0686(7) 0.6194(8) 0.5331(11)
H22_2 H 0.0402 0.6094 0.4908
C29_2 C 0.1109(8) 0.6007(7) 0.5564(11)
C30_2 C 0.1523(7) 0.6175(8) 0.6185(11)
H23_2 H 0.1815 0.6070 0.6354
C31_2 C 0.1510(6) 0.6494(7) 0.6556(10)
H24_2 H 0.1793 0.6604 0.6973
C32_2 C 0.1097 0.5628 0.5175
C33_2 C 0.0848 0.5686 0.4490
C34_2 C 0.0856 0.5329 0.4151
H25_2 H 0.0674 0.5383 0.3693
C35_2 C 0.1097 0.4910 0.4408
C36_2 C 0.1343 0.4812 0.5102
C37_2 C 0.1356 0.5219 0.5508
H26_2 H 0.1538 0.5183 0.5969
C38_2 C 0.0652(6) 0.3989(5) 0.3064(8)
H27_2 H 0.0366 0.3901 0.2636
C39_2 C 0.0657(6) 0.4366(6) 0.3408(10)
H28_2 H 0.0375 0.4520 0.3219
C40_2 C 0.1091(7) 0.4510(6) 0.4046(10)
C41_2 C 0.1494(6) 0.4281(6) 0.4301(9)
H29_2 H 0.1784 0.4378 0.4718
C42_2 C 0.1484(6) 0.3902(6) 0.3952(9)
H30_2 H 0.1767 0.3757 0.4134
C43_2 C 0.1067(5) 0.3743(5) 0.3351(7)
C44_2 C 0.1046(6) 0.3299(5) 0.3018(8)
C45_2 C 0.0417 0.6327 0.3501
H31_2 H 0.0689 0.6343 0.3553
H32_2 H 0.0165 0.6144 0.3095
C46_2 C 0.0291 0.6710 0.3489
H33_2 H 0.0196 0.6888 0.3110
H34_2 H 0.0546 0.6879 0.3901
H35_2 H 0.0026 0.6682 0.3447
C47_2 C 0.1916 0.4335 0.6318
H36_2 H 0.2189 0.4548 0.6619
H37_2 H 0.1705 0.4377 0.6387
C48_2 C 0.2056 0.3807 0.6379
H38_2 H 0.2229 0.3692 0.6829
H39_2 H 0.2253 0.3781 0.6288
H40_2 H 0.1775 0.3613 0.6058
O1_2 O 0.0600(3) 0.7840(3) 0.7699(5)
O2_2 O 0.1388(3) 0.7931(3) 0.8467(5)
O7_2 O 0.0671(3) 0.7123(4) 0.6503(5)
O8_2 O 0.1454(4) 0.7109(4) 0.7316(5)
O9_2 O 0.0640(4) 0.3162(3) 0.2472(5)
O10_2 O 0.1429(3) 0.3087(3) 0.3308(5)
O11_2 O 0.0547 0.6110 0.4112
O12_2 O 0.1628 0.4406 0.5483
Zn1_2 Zn 0.04856(5) 0.74694(5) 0.69537(7)
Zn2_2 Zn 0.15287(5) 0.75316(5) 0.79921(7)
N3_2 N 0.2254(4) 0.7572(4) 0.8714(6)
O13_2 O 0.0556(3) 0.8112(3) 0.6652(5)
O14_2 O 0.1339(4) 0.8118(3) 0.7391(5)
O15_2 O 0.0640(4) 0.6838(3) 0.7472(5)
O16_2 O 0.1429(3) 0.6913(3) 0.8308(5)
C49_2 C 0.9519(5) 0.7626(7) 0.5628(8)
H41_2 H 0.9684 0.7786 0.5545
C50_2 C 0.9027(5) 0.7626(7) 0.5123(8)
H42_2 H 0.8871 0.7775 0.4709
C51_2 C 0.8777(5) 0.7409(5) 0.5232(8)
C52_2 C 0.9029(5) 0.7167(6) 0.5834(8)
H43_2 H 0.8869 0.6995 0.5918
C53_2 C 0.9509(5) 0.7178(5) 0.6304(7)
H44_2 H 0.9674 0.7013 0.6711
C54_2 C 0.7507(7) 0.7489(13) 0.3580(13)
H45_2 H 0.7353 0.7548 0.3133
C55_2 C 0.7989(7) 0.7471(12) 0.4057(13)
H46_2 H 0.8149 0.7501 0.3918
C56_2 C 0.8239(5) 0.7415(5) 0.4699(7)
C57_2 C 0.7982(7) 0.7304(13) 0.4800(11)
H47_2 H 0.8125 0.7211 0.5233
C58_2 C 0.7494(6) 0.7315(12) 0.4288(12)
H48_2 H 0.7331 0.7222 0.4408
N1_2 N 0.9759(4) 0.7419(4) 0.6205(6)
N2_2 N 0.7254(4) 0.7428(4) 0.3714(6)
C35_3 C 0.6097 0.0090 0.9408
C38_3 C 0.5652(6) 0.1011(5) 0.8064(8)
H27_3 H 0.5366 0.1099 0.7636
C39_3 C 0.5657(6) 0.0634(6) 0.8408(10)
H28_3 H 0.5375 0.0480 0.8219
C40_3 C 0.6091(7) 0.0490(6) 0.9046(10)
C41_3 C 0.6494(6) 0.0719(6) 0.9301(9)
H29_3 H 0.6784 0.0622 0.9718
C42_3 C 0.6484(6) 0.1098(6) 0.8952(9)
H30_3 H 0.6767 0.1243 0.9134
C43_3 C 0.6067(5) 0.1257(5) 0.8351(7)
C44_3 C 0.6046(6) 0.1701(5) 0.8018(8)
C1_3 C 0.5974(5) 0.6993(5) 0.3228(7)
C2_3 C 0.5968(5) 0.6656(5) 0.3667(8)
C3_3 C 0.6372(6) 0.6433(6) 0.4235(9)
H1_3 H 0.6663 0.6493 0.4373
C4_3 C 0.6343(7) 0.6121(6) 0.4598(10)
H2_3 H 0.6619 0.5977 0.4989
C5_3 C 0.5913(7) 0.6015(6) 0.4394(10)
C6_3 C 0.5507(6) 0.6241(5) 0.3821(9)
H3_3 H 0.5215 0.6173 0.3679
C7_3 C 0.5528(5) 0.6559(5) 0.3466(8)
H4_3 H 0.5253 0.6715 0.3089
C8_3 C 0.5887 0.5654 0.4776
C9_2 C 0.6108 0.5695 0.5383
C10_2 C 0.6131 0.5321 0.5818
H5_2 H 0.6304 0.5373 0.6273
C11_3 C 0.5882 0.4909 0.5493
C12_2 C 0.5524 0.4933 0.4782
C13_3 C 0.5511 0.5261 0.4384
H6_3 H 0.5290 0.5240 0.3914
C14_3 C 0.6326(7) 0.3903(7) 0.6740(10)
H7_3 H 0.6619 0.3766 0.7108
C15_3 C 0.6307(7) 0.4290(8) 0.6394(11)
H8_3 H 0.6587 0.4403 0.6529
C16_3 C 0.5887(8) 0.4510(7) 0.5862(12)
C17_3 C 0.5483(7) 0.4328(7) 0.5677(11)
H9_3 H 0.5192 0.4464 0.5306
C18_3 C 0.5494(6) 0.3952(6) 0.6020(9)
H10_3 H 0.5216 0.3854 0.5901
C19_3 C 0.5923(6) 0.3719(5) 0.6548(8)
C20_3 C 0.5934(5) 0.3284(5) 0.6892(8)
C21_2 C 0.4742 0.4607 0.3581
H11_2 H 0.4834 0.4583 0.3331
H12_2 H 0.4563 0.4905 0.3454
C22_2 C 0.4458 0.4157 0.3465
H13_2 H 0.4172 0.4133 0.2993
H14_2 H 0.4647 0.3869 0.3604
H15_2 H 0.4378 0.4188 0.3726
C23_2 C 0.6872 0.6059 0.6688
H16_2 H 0.7174 0.5895 0.6942
H17_2 H 0.6713 0.5923 0.6814
C24_2 C 0.6937 0.6610 0.6803
H18_2 H 0.7230 0.6676 0.7259
H19_2 H 0.6945 0.6756 0.6492
H20_2 H 0.6677 0.6744 0.6730
C25_3 C 0.6063(6) 0.8007(5) 0.1737(8)
C26_3 C 0.6076(6) 0.8344(6) 0.1314(8)
C27_3 C 0.5665(6) 0.8486(7) 0.0691(9)
H21_3 H 0.5375 0.8365 0.0512
C28_3 C 0.5686(7) 0.8806(8) 0.0331(11)
C29_3 C 0.6109(8) 0.8993(7) 0.0564(11)
C30_3 C 0.6523(7) 0.8825(8) 0.1185(11)
H23_3 H 0.6815 0.8930 0.1354
C31_3 C 0.6510(6) 0.8506(7) 0.1556(10)
H24_3 H 0.6793 0.8396 0.1973
C32_3 C 0.6097 0.9372 0.0175
C37_3 C 0.6356 0.9781 0.0508
H26_3 H 0.6538 0.9817 0.0969
C49_3 C 0.4519(5) 0.7374(7) 0.0628(8)
H41_3 H 0.4684 0.7214 0.0545
C50_3 C 0.4027(5) 0.7374(7) 0.0123(8)
C51_3 C 0.3777(5) 0.7591(5) 0.0232(8)
C52_3 C 0.4029(5) 0.7833(6) 0.0834(8)
H43_3 H 0.3869 0.8005 0.0918
C53_3 C 0.4509(5) 0.7822(5) 0.1304(7)
H44_3 H 0.4674 0.7987 0.1711
H47_3 H 0.3125 0.7789 0.0233
N1_3 N 0.4759(4) 0.7581(4) 0.1205(6)
O1_3 O 0.5600(3) 0.7160(3) 0.2699(5)
O2_3 O 0.6388(3) 0.7069(3) 0.3467(5)
O5_2 O 0.5200 0.4581 0.4391
O6_2 O 0.6508 0.6014 0.5791
O7_3 O 0.5671(3) 0.7877(4) 0.1503(5)
O8_3 O 0.6454(4) 0.7891(4) 0.2316(5)
H22_3 H 0.5402 0.8906 0.9908
C33_3 C 0.5848 0.9314 0.9490
C34_3 C 0.5856 0.9671 0.9151
H25_3 H 0.5674 0.9617 0.8693
C45_3 C 0.5417 0.8673 0.8501
H31_3 H 0.5689 0.8657 0.8553
H32_3 H 0.5165 0.8856 0.8095
C46_3 C 0.5291 0.8290 0.8489
H33_3 H 0.5196 0.8112 0.8110
H34_3 H 0.5546 0.8121 0.8901
H35_3 H 0.5026 0.8318 0.8447
H42_3 H 0.3871 0.7225 0.9709
C54_3 C 0.2507(7) 0.7511(13) 0.8580(13)
H45_3 H 0.2353 0.7452 0.8133
C55_3 C 0.2989(7) 0.7529(12) 0.9057(13)
H46_3 H 0.3149 0.7499 0.8918
C56_3 C 0.3239(5) 0.7585(5) 0.9699(7)
C57_3 C 0.2982(7) 0.7696(13) 0.9800(11)
C58_3 C 0.2494(6) 0.7685(12) 0.9288(12)
H48_3 H 0.2331 0.7778 0.9408
O11_3 O 0.5547 0.8890 0.9112
C1_4 C 0.0974(5) 0.1993(5) 0.3228(7)
C2_4 C 0.0968(5) 0.1656(5) 0.3667(8)
C3_4 C 0.1372(6) 0.1433(6) 0.4235(9)
H1_4 H 0.1663 0.1493 0.4373
C4_4 C 0.1343(7) 0.1121(6) 0.4598(10)
H2_4 H 0.1619 0.0977 0.4989
C5_4 C 0.0913(7) 0.1015(6) 0.4394(10)
C6_4 C 0.0507(6) 0.1241(5) 0.3821(9)
H3_4 H 0.0215 0.1173 0.3679
C7_4 C 0.0528(5) 0.1559(5) 0.3466(8)
H4_4 H 0.0253 0.1715 0.3089
C8_4 C 0.0887 0.0654 0.4776
C9_3 C 0.1108 0.0695 0.5383
C10_3 C 0.1131 0.0321 0.5818
H5_3 H 0.1304 0.0373 0.6273
C13_4 C 0.0511 0.0261 0.4384
H6_4 H 0.0290 0.0240 0.3914
C23_3 C 0.1872 0.1059 0.6688
H16_3 H 0.2174 0.0895 0.6942
H17_3 H 0.1713 0.0923 0.6814
C24_3 C 0.1937 0.1610 0.6803
H18_3 H 0.2230 0.1676 0.7259
H19_3 H 0.1945 0.1756 0.6492
H20_3 H 0.1677 0.1744 0.6730
C25_4 C 0.1063(6) 0.3007(5) 0.1737(8)
C26_4 C 0.1076(6) 0.3344(6) 0.1314(8)
C27_4 C 0.0665(6) 0.3486(7) 0.0691(9)
H21_4 H 0.0375 0.3365 0.0512
C28_4 C 0.0686(7) 0.3806(8) 0.0331(11)
C29_4 C 0.1109(8) 0.3993(7) 0.0564(11)
C30_4 C 0.1523(7) 0.3825(8) 0.1185(11)
H23_4 H 0.1815 0.3930 0.1354
C31_4 C 0.1510(6) 0.3506(7) 0.1556(10)
H24_4 H 0.1793 0.3396 0.1973
C32_4 C 0.1097 0.4372 0.0175
C36_3 C 0.1343 0.5188 0.0102
C37_4 C 0.1356 0.4781 0.0508
H26_4 H 0.1538 0.4817 0.0969
C47_3 C 0.1916 0.5665 0.1318
H36_3 H 0.2189 0.5452 0.1619
H37_3 H 0.1705 0.5623 0.1387
C48_3 C 0.2056 0.6193 0.1379
H38_3 H 0.2229 0.6308 0.1829
H39_3 H 0.2253 0.6219 0.1288
H40_3 H 0.1775 0.6387 0.1058
O1_4 O 0.0600(3) 0.2160(3) 0.2699(5)
O2_4 O 0.1388(3) 0.2069(3) 0.3467(5)
O6_3 O 0.1508 0.1014 0.5791
O7_4 O 0.0671(3) 0.2877(4) 0.1503(5)
O8_4 O 0.1454(4) 0.2891(4) 0.2316(5)
O12_3 O 0.1628 0.5594 0.0483
H22_4 H 0.0402 0.3906 0.9908
C33_4 C 0.0848 0.4314 0.9490
C34_4 C 0.0856 0.4671 0.9151
H25_4 H 0.0674 0.4617 0.8693
C35_4 C 0.1097 0.5090 0.9408
C38_4 C 0.0652(6) 0.6011(5) 0.8064(8)
H27_4 H 0.0366 0.6099 0.7636
C39_4 C 0.0657(6) 0.5634(6) 0.8408(10)
H28_4 H 0.0375 0.5480 0.8219
C40_4 C 0.1091(7) 0.5490(6) 0.9046(10)
C41_4 C 0.1494(6) 0.5719(6) 0.9301(9)
H29_4 H 0.1784 0.5622 0.9718
C42_4 C 0.1484(6) 0.6098(6) 0.8952(9)
H30_4 H 0.1767 0.6243 0.9134
C43_4 C 0.1067(5) 0.6257(5) 0.8351(7)
C44_4 C 0.1046(6) 0.6701(5) 0.8018(8)
C45_4 C 0.0417 0.3673 0.8501
H31_4 H 0.0689 0.3657 0.8553
H32_4 H 0.0165 0.3856 0.8095
C46_4 C 0.0291 0.3290 0.8489
H33_4 H 0.0196 0.3112 0.8110
H34_4 H 0.0546 0.3121 0.8901
H35_4 H 0.0026 0.3318 0.8447
O11_4 O 0.0547 0.3890 0.9112
C11_4 C 0.0882 0.9909 0.5493
C12_3 C 0.0524 0.9933 0.4782
C14_4 C 0.1326(7) 0.8903(7) 0.6740(10)
H7_4 H 0.1619 0.8766 0.7108
C15_4 C 0.1307(7) 0.9290(8) 0.6394(11)
H8_4 H 0.1587 0.9403 0.6529
C16_4 C 0.0887(8) 0.9510(7) 0.5862(12)
C17_4 C 0.0483(7) 0.9328(7) 0.5677(11)
H9_4 H 0.0192 0.9464 0.5306
C18_4 C 0.0494(6) 0.8952(6) 0.6020(9)
H10_4 H 0.0216 0.8854 0.5901
C19_4 C 0.0923(6) 0.8719(5) 0.6548(8)
C20_4 C 0.0934(5) 0.8284(5) 0.6892(8)
O5_3 O 0.0200 0.9581 0.4391
H42_4 H 0.8871 0.2225 0.9709
C54_4 C 0.7507(7) 0.2511(13) 0.8580(13)
H45_4 H 0.7353 0.2452 0.8133
C55_4 C 0.7989(7) 0.2529(12) 0.9057(13)
H46_4 H 0.8149 0.2499 0.8918
C56_4 C 0.8239(5) 0.2585(5) 0.9699(7)
C57_4 C 0.7982(7) 0.2696(13) 0.9800(11)
C58_4 C 0.7494(6) 0.2685(12) 0.9288(12)
H48_4 H 0.7331 0.2778 0.9408
H22_5 H 0.4598 0.1094 0.0092
C33_5 C 0.4152 0.0686 0.0510
C34_5 C 0.4144 0.0329 0.0849
H25_5 H 0.4326 0.0383 0.1307
C45_5 C 0.4583 0.1327 0.1499
H31_5 H 0.4311 0.1343 0.1447
H32_5 H 0.4835 0.1144 0.1905
C46_5 C 0.4709 0.1710 0.1511
H33_5 H 0.4804 0.1888 0.1890
H34_5 H 0.4454 0.1879 0.1099
H35_5 H 0.4974 0.1682 0.1553
H42_5 H 0.6129 0.2775 0.0291
C54_5 C 0.7493(7) 0.2489(13) 0.1420(13)
H45_5 H 0.7647 0.2548 0.1867
C55_5 C 0.7011(7) 0.2471(12) 0.0943(13)
H46_5 H 0.6851 0.2501 0.1082
C56_5 C 0.6761(5) 0.2415(5) 0.0301(7)
C57_5 C 0.7018(7) 0.2304(13) 0.0200(11)
C58_5 C 0.7506(6) 0.2315(12) 0.0712(12)
H48_5 H 0.7669 0.2222 0.0592
N2_3 N 0.7746(4) 0.2428(4) 0.1286(6)
O11_5 O 0.4453 0.1110 0.0888
Zn7_2 Zn 0.84713(5) 0.24684(5) 0.20079(7)
C1_5 C 0.4026(5) 0.3007(5) 0.6772(7)
C2_5 C 0.4032(5) 0.3344(5) 0.6333(8)
C3_5 C 0.3628(6) 0.3567(6) 0.5765(9)
H1_5 H 0.3337 0.3507 0.5627
C4_5 C 0.3657(7) 0.3879(6) 0.5402(10)
H2_5 H 0.3381 0.4023 0.5011
C5_5 C 0.4087(7) 0.3985(6) 0.5606(10)
C6_5 C 0.4493(6) 0.3759(5) 0.6179(9)
H3_5 H 0.4785 0.3827 0.6321
C7_5 C 0.4472(5) 0.3441(5) 0.6534(8)
H4_5 H 0.4747 0.3285 0.6911
C8_5 C 0.4113 0.4346 0.5224
C9_4 C 0.3892 0.4305 0.4617
C10_4 C 0.3869 0.4679 0.4182
H5_4 H 0.3696 0.4627 0.3727
C11_5 C 0.4118 0.5091 0.4507
C12_4 C 0.4476 0.5067 0.5218
C13_5 C 0.4489 0.4739 0.5616
H6_5 H 0.4710 0.4760 0.6086
C14_5 C 0.3674(7) 0.6097(7) 0.3260(10)
H7_5 H 0.3381 0.6234 0.2892
C15_5 C 0.3693(7) 0.5710(8) 0.3606(11)
H8_5 H 0.3413 0.5597 0.3471
C16_5 C 0.4113(8) 0.5490(7) 0.4138(12)
C17_5 C 0.4517(7) 0.5672(7) 0.4323(11)
H9_5 H 0.4808 0.5536 0.4694
C18_5 C 0.4506(6) 0.6048(6) 0.3980(9)
H10_5 H 0.4784 0.6146 0.4099
C19_5 C 0.4077(6) 0.6281(5) 0.3452(8)
C20_5 C 0.4066(5) 0.6716(5) 0.3108(8)
C21_3 C 0.5258 0.5393 0.6419
H11_3 H 0.5166 0.5417 0.6669
H12_3 H 0.5437 0.5095 0.6546
C22_3 C 0.5542 0.5843 0.6535
H13_3 H 0.5828 0.5867 0.7007
H14_3 H 0.5353 0.6131 0.6396
H15_3 H 0.5622 0.5812 0.6274
C23_4 C 0.3128 0.3941 0.3312
H16_4 H 0.2826 0.4105 0.3058
H17_4 H 0.3287 0.4077 0.3186
C24_4 C 0.3063 0.3390 0.3197
H18_4 H 0.2770 0.3324 0.2741
H19_4 H 0.3055 0.3244 0.3508
H20_4 H 0.3323 0.3256 0.3270
C25_5 C 0.3937(6) 0.1993(5) 0.8263(8)
C26_5 C 0.3924(6) 0.1656(6) 0.8686(8)
C27_5 C 0.4335(6) 0.1514(7) 0.9309(9)
H21_5 H 0.4625 0.1635 0.9488
C28_5 C 0.4314(7) 0.1194(8) 0.9669(11)
C29_5 C 0.3891(8) 0.1007(7) 0.9436(11)
C30_5 C 0.3477(7) 0.1175(8) 0.8815(11)
H23_5 H 0.3185 0.1070 0.8646
C31_5 C 0.3490(6) 0.1494(7) 0.8444(10)
H24_5 H 0.3207 0.1604 0.8027
C32_5 C 0.3903 0.0628 0.9825
C37_5 C 0.3644 0.0219 0.9492
H26_5 H 0.3462 0.0183 0.9031
C49_4 C 0.5481(5) 0.2626(7) 0.9372(8)
H41_4 H 0.5316 0.2786 0.9455
C50_4 C 0.5973(5) 0.2626(7) 0.9877(8)
C51_4 C 0.6223(5) 0.2409(5) 0.9768(8)
C52_4 C 0.5971(5) 0.2167(6) 0.9166(8)
H43_4 H 0.6131 0.1995 0.9082
C53_4 C 0.5491(5) 0.2178(5) 0.8696(7)
H44_4 H 0.5326 0.2013 0.8289
H47_4 H 0.6875 0.2211 0.9767
N1_4 N 0.5241(4) 0.2419(4) 0.8795(6)
O1_5 O 0.4400(3) 0.2840(3) 0.7301(5)
O2_5 O 0.3612(3) 0.2931(3) 0.6533(5)
O3_3 O 0.4444(3) 0.6888(3) 0.3348(5)
O4_3 O 0.3661(4) 0.6882(3) 0.2609(5)
O5_4 O 0.4800 0.5419 0.5609
O6_4 O 0.3492 0.3986 0.4209
O7_5 O 0.4329(3) 0.2123(4) 0.8497(5)
O8_5 O 0.3546(4) 0.2109(4) 0.7684(5)
Zn1_3 Zn 0.45144(5) 0.24694(5) 0.80463(7)
Zn2_3 Zn 0.34713(5) 0.25316(5) 0.70079(7)
N3_3 N 0.2746(4) 0.2572(4) 0.6286(6)
O13_3 O 0.4444(3) 0.3112(3) 0.8348(5)
O14_3 O 0.3661(4) 0.3118(3) 0.7609(5)
O15_3 O 0.4360(4) 0.1838(3) 0.7528(5)
O16_3 O 0.3571(3) 0.1913(3) 0.6692(5)
Zn4_3 Zn 0.45144(5) 0.75306(5) 0.30463(7)
Zn6_2 Zn 0.34713(5) 0.74684(5) 0.20079(7)
C35_5 C 0.3903 0.9910 0.0592
C38_5 C 0.4348(6) 0.8989(5) 0.1936(8)
H27_5 H 0.4634 0.8901 0.2364
C39_5 C 0.4343(6) 0.9366(6) 0.1592(10)
H28_5 H 0.4625 0.9520 0.1781
C40_5 C 0.3909(7) 0.9510(6) 0.0954(10)
C41_5 C 0.3506(6) 0.9281(6) 0.0699(9)
H29_5 H 0.3216 0.9378 0.0282
C42_5 C 0.3516(6) 0.8902(6) 0.1048(9)
H30_5 H 0.3233 0.8757 0.0866
C43_5 C 0.3933(5) 0.8743(5) 0.1649(7)
C44_5 C 0.3954(6) 0.8299(5) 0.1982(8)
O9_3 O 0.4360(4) 0.8162(3) 0.2528(5)
O10_3 O 0.3571(3) 0.8087(3) 0.1692(5)
H42_6 H 0.1129 0.7775 0.0291
C54_6 C 0.2493(7) 0.7489(13) 0.1420(13)
H45_6 H 0.2647 0.7548 0.1867
C55_6 C 0.2011(7) 0.7471(12) 0.0943(13)
H46_6 H 0.1851 0.7501 0.1082
C56_6 C 0.1761(5) 0.7415(5) 0.0301(7)
C57_6 C 0.2018(7) 0.7304(13) 0.0200(11)
C58_6 C 0.2506(6) 0.7315(12) 0.0712(12)
H48_6 H 0.2669 0.7222 0.0592
N2_4 N 0.2746(4) 0.7428(4) 0.1286(6)
C11_6 C 0.9118 0.0091 0.4507
C12_5 C 0.9476 0.0067 0.5218
C14_6 C 0.8674(7) 0.1097(7) 0.3260(10)
H7_6 H 0.8381 0.1234 0.2892
C15_6 C 0.8693(7) 0.0710(8) 0.3606(11)
H8_6 H 0.8413 0.0597 0.3471
C16_6 C 0.9113(8) 0.0490(7) 0.4138(12)
C17_6 C 0.9517(7) 0.0672(7) 0.4323(11)
H9_6 H 0.9808 0.0536 0.4694
C18_6 C 0.9506(6) 0.1048(6) 0.3980(9)
H10_6 H 0.9784 0.1146 0.4099
C19_6 C 0.9077(6) 0.1281(5) 0.3452(8)
C20_6 C 0.9066(5) 0.1716(5) 0.3108(8)
O3_4 O 0.9444(3) 0.1888(3) 0.3348(5)
O4_4 O 0.8661(4) 0.1882(3) 0.2609(5)
O5_5 O 0.9800 0.0419 0.5609
Zn4_4 Zn 0.95144(5) 0.25306(5) 0.30463(7)
H22_6 H 0.9598 0.6094 0.0092
C33_6 C 0.9152 0.5686 0.0510
C34_6 C 0.9144 0.5329 0.0849
H25_6 H 0.9326 0.5383 0.1307
C35_6 C 0.8903 0.4910 0.0592
C38_6 C 0.9348(6) 0.3989(5) 0.1936(8)
H27_6 H 0.9634 0.3901 0.2364
C39_6 C 0.9343(6) 0.4366(6) 0.1592(10)
H28_6 H 0.9625 0.4520 0.1781
C40_6 C 0.8909(7) 0.4510(6) 0.0954(10)
C41_6 C 0.8506(6) 0.4281(6) 0.0699(9)
H29_6 H 0.8216 0.4378 0.0282
C42_6 C 0.8516(6) 0.3902(6) 0.1048(9)
H30_6 H 0.8233 0.3757 0.0866
C43_6 C 0.8933(5) 0.3743(5) 0.1649(7)
C44_6 C 0.8954(6) 0.3299(5) 0.1982(8)
C45_6 C 0.9583 0.6327 0.1499
H31_6 H 0.9311 0.6343 0.1447
H32_6 H 0.9835 0.6144 0.1905
C46_6 C 0.9709 0.6710 0.1511
H33_6 H 0.9804 0.6888 0.1890
H34_6 H 0.9454 0.6879 0.1099
H35_6 H 0.9974 0.6682 0.1553
O9_4 O 0.9360(4) 0.3162(3) 0.2528(5)
O10_4 O 0.8571(3) 0.3087(3) 0.1692(5)
O11_6 O 0.9453 0.6110 0.0888
C1_6 C 0.9026(5) 0.8007(5) 0.6772(7)
C2_6 C 0.9032(5) 0.8344(5) 0.6333(8)
C3_6 C 0.8628(6) 0.8567(6) 0.5765(9)
H1_6 H 0.8337 0.8507 0.5627
C4_6 C 0.8657(7) 0.8879(6) 0.5402(10)
H2_6 H 0.8381 0.9023 0.5011
C5_6 C 0.9087(7) 0.8985(6) 0.5606(10)
C6_6 C 0.9493(6) 0.8759(5) 0.6179(9)
H3_6 H 0.9785 0.8827 0.6321
C7_6 C 0.9472(5) 0.8441(5) 0.6534(8)
H4_6 H 0.9747 0.8285 0.6911
C8_6 C 0.9113 0.9346 0.5224
C9_5 C 0.8892 0.9305 0.4617
C10_5 C 0.8869 0.9679 0.4182
H5_5 H 0.8696 0.9627 0.3727
C13_6 C 0.9489 0.9739 0.5616
H6_6 H 0.9710 0.9760 0.6086
C23_5 C 0.8128 0.8941 0.3312
H16_5 H 0.7826 0.9105 0.3058
H17_5 H 0.8287 0.9077 0.3186
C24_5 C 0.8063 0.8390 0.3197
H18_5 H 0.7770 0.8324 0.2741
H19_5 H 0.8055 0.8244 0.3508
H20_5 H 0.8323 0.8256 0.3270
C25_6 C 0.8937(6) 0.6993(5) 0.8263(8)
C26_6 C 0.8924(6) 0.6656(6) 0.8686(8)
C27_6 C 0.9335(6) 0.6514(7) 0.9309(9)
H21_6 H 0.9625 0.6635 0.9488
C28_6 C 0.9314(7) 0.6194(8) 0.9669(11)
C29_6 C 0.8891(8) 0.6007(7) 0.9436(11)
C30_6 C 0.8477(7) 0.6175(8) 0.8815(11)
H23_6 H 0.8185 0.6070 0.8646
C31_6 C 0.8490(6) 0.6494(7) 0.8444(10)
H24_6 H 0.8207 0.6604 0.8027
C32_6 C 0.8903 0.5628 0.9825
C36_4 C 0.8657 0.4812 0.9898
C37_6 C 0.8644 0.5219 0.9492
H26_6 H 0.8462 0.5183 0.9031
C47_4 C 0.8084 0.4335 0.8682
H36_4 H 0.7811 0.4548 0.8381
H37_4 H 0.8295 0.4377 0.8613
C48_4 C 0.7944 0.3807 0.8621
H38_4 H 0.7771 0.3692 0.8171
H39_4 H 0.7747 0.3781 0.8712
H40_4 H 0.8225 0.3613 0.8942
O1_6 O 0.9400(3) 0.7840(3) 0.7301(5)
O2_6 O 0.8612(3) 0.7931(3) 0.6533(5)
O6_5 O 0.8492 0.8986 0.4209
O7_6 O 0.9329(3) 0.7123(4) 0.8497(5)
O8_6 O 0.8546(4) 0.7109(4) 0.7684(5)
O12_4 O 0.8372 0.4406 0.9517
Zn1_4 Zn 0.95144(5) 0.74694(5) 0.80463(7)
Zn2_4 Zn 0.84713(5) 0.75316(5) 0.70079(7)
N3_4 N 0.7746(4) 0.7572(4) 0.6286(6)
O13_4 O 0.9444(3) 0.8112(3) 0.8348(5)
O14_4 O 0.8661(4) 0.8118(3) 0.7609(5)
O15_4 O 0.9360(4) 0.6838(3) 0.7528(5)
O16_4 O 0.8571(3) 0.6913(3) 0.6692(5)
C35_7 C 0.3903 0.0090 0.5592
C36_5 C 0.3657 0.0188 0.4898
C38_7 C 0.4348(6) 0.1011(5) 0.6936(8)
H27_7 H 0.4634 0.1099 0.7364
C39_7 C 0.4343(6) 0.0634(6) 0.6592(10)
H28_7 H 0.4625 0.0480 0.6781
C40_7 C 0.3909(7) 0.0490(6) 0.5954(10)
C41_7 C 0.3506(6) 0.0719(6) 0.5699(9)
H29_7 H 0.3216 0.0622 0.5282
C42_7 C 0.3516(6) 0.1098(6) 0.6048(9)
H30_7 H 0.3233 0.1243 0.5866
C43_7 C 0.3933(5) 0.1257(5) 0.6649(7)
C44_7 C 0.3954(6) 0.1701(5) 0.6982(8)
C47_5 C 0.3084 0.0665 0.3682
H36_5 H 0.2811 0.0452 0.3381
H37_5 H 0.3295 0.0623 0.3613
C48_5 C 0.2944 0.1193 0.3621
H38_5 H 0.2771 0.1308 0.3171
H39_5 H 0.2747 0.1219 0.3712
H40_5 H 0.3225 0.1387 0.3942
O12_5 O 0.3372 0.0594 0.4517
C1_7 C 0.4026(5) 0.6993(5) 0.1772(7)
C2_7 C 0.4032(5) 0.6656(5) 0.1333(8)
C3_7 C 0.3628(6) 0.6433(6) 0.0765(9)
H1_7 H 0.3337 0.6493 0.0627
C4_7 C 0.3657(7) 0.6121(6) 0.0402(10)
H2_7 H 0.3381 0.5977 0.0011
C5_7 C 0.4087(7) 0.6015(6) 0.0606(10)
C6_7 C 0.4493(6) 0.6241(5) 0.1179(9)
H3_7 H 0.4785 0.6173 0.1321
C7_7 C 0.4472(5) 0.6559(5) 0.1534(8)
H4_7 H 0.4747 0.6715 0.1911
C8_7 C 0.4113 0.5654 0.0224
C12_6 C 0.4476 0.4933 0.0218
C13_7 C 0.4489 0.5261 0.0616
H6_7 H 0.4710 0.5240 0.1086
C21_4 C 0.5258 0.4607 0.1419
H11_4 H 0.5166 0.4583 0.1669
H12_4 H 0.5437 0.4905 0.1546
C22_4 C 0.5542 0.4157 0.1535
H13_4 H 0.5828 0.4133 0.2007
H14_4 H 0.5353 0.3869 0.1396
H15_4 H 0.5622 0.4188 0.1274
C25_7 C 0.3937(6) 0.8007(5) 0.3263(8)
C26_7 C 0.3924(6) 0.8344(6) 0.3686(8)
C27_7 C 0.4335(6) 0.8486(7) 0.4309(9)
H21_7 H 0.4625 0.8365 0.4488
C28_7 C 0.4314(7) 0.8806(8) 0.4669(11)
H22_7 H 0.4598 0.8906 0.5092
C29_7 C 0.3891(8) 0.8993(7) 0.4436(11)
C30_7 C 0.3477(7) 0.8825(8) 0.3815(11)
H23_7 H 0.3185 0.8930 0.3646
C31_7 C 0.3490(6) 0.8506(7) 0.3444(10)
H24_7 H 0.3207 0.8396 0.3027
C32_7 C 0.3903 0.9372 0.4825
C33_7 C 0.4152 0.9314 0.5510
C34_7 C 0.4144 0.9671 0.5849
H25_7 H 0.4326 0.9617 0.6307
C37_7 C 0.3644 0.9781 0.4492
H26_7 H 0.3462 0.9817 0.4031
C45_7 C 0.4583 0.8673 0.6499
H31_7 H 0.4311 0.8657 0.6447
H32_7 H 0.4835 0.8856 0.6905
C46_7 C 0.4709 0.8290 0.6511
H33_7 H 0.4804 0.8112 0.6890
H34_7 H 0.4454 0.8121 0.6099
H35_7 H 0.4974 0.8318 0.6553
C49_5 C 0.5481(5) 0.7374(7) 0.4372(8)
H41_5 H 0.5316 0.7214 0.4455
C50_5 C 0.5973(5) 0.7374(7) 0.4877(8)
H42_7 H 0.6129 0.7225 0.5291
C51_5 C 0.6223(5) 0.7591(5) 0.4768(8)
C52_5 C 0.5971(5) 0.7833(6) 0.4166(8)
H43_5 H 0.6131 0.8005 0.4082
C53_5 C 0.5491(5) 0.7822(5) 0.3696(7)
H44_5 H 0.5326 0.7987 0.3289
C54_7 C 0.7493(7) 0.7511(13) 0.6420(13)
H45_7 H 0.7647 0.7452 0.6867
C55_7 C 0.7011(7) 0.7529(12) 0.5943(13)
H46_7 H 0.6851 0.7499 0.6082
C56_7 C 0.6761(5) 0.7585(5) 0.5301(7)
C57_7 C 0.7018(7) 0.7696(13) 0.5200(11)
H47_5 H 0.6875 0.7789 0.4767
C58_7 C 0.7506(6) 0.7685(12) 0.5712(12)
H48_7 H 0.7669 0.7778 0.5592
N1_5 N 0.5241(4) 0.7581(4) 0.3795(6)
O1_7 O 0.4400(3) 0.7160(3) 0.2301(5)
O2_7 O 0.3612(3) 0.7069(3) 0.1533(5)
O5_6 O 0.4800 0.4581 0.0609
O7_7 O 0.4329(3) 0.7877(4) 0.3497(5)
O8_7 O 0.3546(4) 0.7891(4) 0.2684(5)
O11_7 O 0.4453 0.8890 0.5888
C9_6 C 0.3892 0.5695 0.9617
C10_6 C 0.3869 0.5321 0.9182
H5_6 H 0.3696 0.5373 0.8727
C11_7 C 0.4118 0.4909 0.9507
C14_7 C 0.3674(7) 0.3903(7) 0.8260(10)
H7_7 H 0.3381 0.3766 0.7892
C15_7 C 0.3693(7) 0.4290(8) 0.8606(11)
H8_7 H 0.3413 0.4403 0.8471
C16_7 C 0.4113(8) 0.4510(7) 0.9138(12)
C17_7 C 0.4517(7) 0.4328(7) 0.9323(11)
H9_7 H 0.4808 0.4464 0.9694
C18_7 C 0.4506(6) 0.3952(6) 0.8980(9)
H10_7 H 0.4784 0.3854 0.9099
C19_7 C 0.4077(6) 0.3719(5) 0.8452(8)
C20_7 C 0.4066(5) 0.3284(5) 0.8108(8)
C23_6 C 0.3128 0.6059 0.8312
H16_6 H 0.2826 0.5895 0.8058
H17_6 H 0.3287 0.5923 0.8186
C24_6 C 0.3063 0.6610 0.8197
H18_6 H 0.2770 0.6676 0.7741
H19_6 H 0.3055 0.6756 0.8508
H20_6 H 0.3323 0.6744 0.8270
O6_6 O 0.3492 0.6014 0.9209
C49_6 C 0.0481(5) 0.2374(7) 0.4372(8)
H41_6 H 0.0316 0.2214 0.4455
C50_6 C 0.0973(5) 0.2374(7) 0.4877(8)
H42_8 H 0.1129 0.2225 0.5291
C51_6 C 0.1223(5) 0.2591(5) 0.4768(8)
C52_6 C 0.0971(5) 0.2833(6) 0.4166(8)
H43_6 H 0.1131 0.3005 0.4082
C53_6 C 0.0491(5) 0.2822(5) 0.3696(7)
H44_6 H 0.0326 0.2987 0.3289
C54_8 C 0.2493(7) 0.2511(13) 0.6420(13)
H45_8 H 0.2647 0.2452 0.6867
C55_8 C 0.2011(7) 0.2529(12) 0.5943(13)
H46_8 H 0.1851 0.2499 0.6082
C56_8 C 0.1761(5) 0.2585(5) 0.5301(7)
C57_8 C 0.2018(7) 0.2696(13) 0.5200(11)
H47_6 H 0.1875 0.2789 0.4767
C58_8 C 0.2506(6) 0.2685(12) 0.5712(12)
H48_8 H 0.2669 0.2778 0.5592
N1_6 N 0.0241(4) 0.2581(4) 0.3795(6)
C1_8 C 0.9026(5) 0.1993(5) 0.1772(7)
C2_8 C 0.9032(5) 0.1656(5) 0.1333(8)
C3_8 C 0.8628(6) 0.1433(6) 0.0765(9)
H1_8 H 0.8337 0.1493 0.0627
C4_8 C 0.8657(7) 0.1121(6) 0.0402(10)
H2_8 H 0.8381 0.0977 0.0011
C5_8 C 0.9087(7) 0.1015(6) 0.0606(10)
C6_8 C 0.9493(6) 0.1241(5) 0.1179(9)
H3_8 H 0.9785 0.1173 0.1321
C7_8 C 0.9472(5) 0.1559(5) 0.1534(8)
H4_8 H 0.9747 0.1715 0.1911
C8_8 C 0.9113 0.0654 0.0224
C13_8 C 0.9489 0.0261 0.0616
H6_8 H 0.9710 0.0240 0.1086
C25_8 C 0.8937(6) 0.3007(5) 0.3263(8)
C26_8 C 0.8924(6) 0.3344(6) 0.3686(8)
C27_8 C 0.9335(6) 0.3486(7) 0.4309(9)
H21_8 H 0.9625 0.3365 0.4488
C28_8 C 0.9314(7) 0.3806(8) 0.4669(11)
H22_8 H 0.9598 0.3906 0.5092
C29_8 C 0.8891(8) 0.3993(7) 0.4436(11)
C30_8 C 0.8477(7) 0.3825(8) 0.3815(11)
H23_8 H 0.8185 0.3930 0.3646
C31_8 C 0.8490(6) 0.3506(7) 0.3444(10)
H24_8 H 0.8207 0.3396 0.3027
C32_8 C 0.8903 0.4372 0.4825
C33_8 C 0.9152 0.4314 0.5510
C34_8 C 0.9144 0.4671 0.5849
H25_8 H 0.9326 0.4617 0.6307
C35_8 C 0.8903 0.5090 0.5592
C36_6 C 0.8657 0.5188 0.4898
C37_8 C 0.8644 0.4781 0.4492
H26_8 H 0.8462 0.4817 0.4031
C38_8 C 0.9348(6) 0.6011(5) 0.6936(8)
H27_8 H 0.9634 0.6099 0.7364
C39_8 C 0.9343(6) 0.5634(6) 0.6592(10)
H28_8 H 0.9625 0.5480 0.6781
C40_8 C 0.8909(7) 0.5490(6) 0.5954(10)
C41_8 C 0.8506(6) 0.5719(6) 0.5699(9)
H29_8 H 0.8216 0.5622 0.5282
C42_8 C 0.8516(6) 0.6098(6) 0.6048(9)
H30_8 H 0.8233 0.6243 0.5866
C43_8 C 0.8933(5) 0.6257(5) 0.6649(7)
C44_8 C 0.8954(6) 0.6701(5) 0.6982(8)
C45_8 C 0.9583 0.3673 0.6499
H31_8 H 0.9311 0.3657 0.6447
H32_8 H 0.9835 0.3856 0.6905
C46_8 C 0.9709 0.3290 0.6511
H33_8 H 0.9804 0.3112 0.6890
H34_8 H 0.9454 0.3121 0.6099
H35_8 H 0.9974 0.3318 0.6553
C47_6 C 0.8084 0.5665 0.3682
H36_6 H 0.7811 0.5452 0.3381
H37_6 H 0.8295 0.5623 0.3613
C48_6 C 0.7944 0.6193 0.3621
H38_6 H 0.7771 0.6308 0.3171
H39_6 H 0.7747 0.6219 0.3712
H40_6 H 0.8225 0.6387 0.3942
O1_8 O 0.9400(3) 0.2160(3) 0.2301(5)
O2_8 O 0.8612(3) 0.2069(3) 0.1533(5)
O7_8 O 0.9329(3) 0.2877(4) 0.3497(5)
O8_8 O 0.8546(4) 0.2891(4) 0.2684(5)
O11_8 O 0.9453 0.3890 0.5888
O12_6 O 0.8372 0.5594 0.4517
C11_8 C 0.9118 0.9909 0.9507
C14_8 C 0.8674(7) 0.8903(7) 0.8260(10)
H7_8 H 0.8381 0.8766 0.7892
C15_8 C 0.8693(7) 0.9290(8) 0.8606(11)
H8_8 H 0.8413 0.9403 0.8471
C16_8 C 0.9113(8) 0.9510(7) 0.9138(12)
C17_8 C 0.9517(7) 0.9328(7) 0.9323(11)
H9_8 H 0.9808 0.9464 0.9694
C18_8 C 0.9506(6) 0.8952(6) 0.8980(9)
H10_8 H 0.9784 0.8854 0.9099
C19_8 C 0.9077(6) 0.8719(5) 0.8452(8)
C20_8 C 0.9066(5) 0.8284(5) 0.8108(8)
C36_7 C 0.3657 0.9812 0.9898
C47_7 C 0.3084 0.9335 0.8682
H36_7 H 0.2811 0.9548 0.8381
H37_7 H 0.3295 0.9377 0.8613
C48_7 C 0.2944 0.8807 0.8621
H38_7 H 0.2771 0.8692 0.8171
H39_7 H 0.2747 0.8781 0.8712
H40_7 H 0.3225 0.8613 0.8942
O12_7 O 0.3372 0.9406 0.9517
C12_7 C 0.0524 0.0067 0.9782
O5_7 O 0.0200 0.0419 0.9391
C9_7 C 0.1108 0.9305 0.0383
C10_7 C 0.1131 0.9679 0.0818
H5_7 H 0.1304 0.9627 0.1273
C23_7 C 0.1872 0.8941 0.1688
H16_7 H 0.2174 0.9105 0.1942
H17_7 H 0.1713 0.9077 0.1814
C24_7 C 0.1937 0.8390 0.1803
H18_7 H 0.2230 0.8324 0.2259
H19_7 H 0.1945 0.8244 0.1492
H20_7 H 0.1677 0.8256 0.1730
O6_7 O 0.1508 0.8986 0.0791
C21_5 C 0.9742 0.0393 0.8581
H11_5 H 0.9834 0.0417 0.8331
H12_5 H 0.9563 0.0095 0.8454
C22_5 C 0.9458 0.0843 0.8465
H13_5 H 0.9172 0.0867 0.7993
H14_5 H 0.9647 0.1131 0.8604
H15_5 H 0.9378 0.0812 0.8726
C21_6 C 0.0258 0.0393 0.6419
H11_6 H 0.0166 0.0417 0.6669
H12_6 H 0.0437 0.0095 0.6546
C22_6 C 0.0542 0.0843 0.6535
H13_6 H 0.0828 0.0867 0.7007
H14_6 H 0.0353 0.1131 0.6396
H15_6 H 0.0622 0.0812 0.6274
C49_7 C 0.0481(5) 0.7626(7) 0.9372(8)
H41_7 H 0.0316 0.7786 0.9455
C50_7 C 0.0973(5) 0.7626(7) 0.9877(8)
C51_7 C 0.1223(5) 0.7409(5) 0.9768(8)
C52_7 C 0.0971(5) 0.7167(6) 0.9166(8)
H43_7 H 0.1131 0.6995 0.9082
C53_7 C 0.0491(5) 0.7178(5) 0.8696(7)
H44_7 H 0.0326 0.7013 0.8289
H47_7 H 0.1875 0.7211 0.9767
N1_7 N 0.0241(4) 0.7419(4) 0.8795(6)
C36_8 C 0.6343 0.0188 0.0102
C47_8 C 0.6916 0.0665 0.1318
H36_8 H 0.7189 0.0452 0.1619
H37_8 H 0.6705 0.0623 0.1387
C48_8 C 0.7056 0.1193 0.1379
H38_8 H 0.7229 0.1308 0.1829
H39_8 H 0.7253 0.1219 0.1288
H40_8 H 0.6775 0.1387 0.1058
O12_8 O 0.6628 0.0594 0.0483
C21_7 C 0.0258 0.9607 0.1419
H11_7 H 0.0166 0.9583 0.1669
H12_7 H 0.0437 0.9905 0.1546
C22_7 C 0.0542 0.9157 0.1535
H13_7 H 0.0828 0.9133 0.2007
H14_7 H 0.0353 0.8869 0.1396
H15_7 H 0.0622 0.9188 0.1274
C9_8 C 0.8892 0.0695 0.9617
C10_8 C 0.8869 0.0321 0.9182
H5_8 H 0.8696 0.0373 0.8727
C23_8 C 0.8128 0.1059 0.8312
H16_8 H 0.7826 0.0895 0.8058
H17_8 H 0.8287 0.0923 0.8186
C24_8 C 0.8063 0.1610 0.8197
H18_8 H 0.7770 0.1676 0.7741
H19_8 H 0.8055 0.1756 0.8508
H20_8 H 0.8323 0.1744 0.8270
O6_8 O 0.8492 0.1014 0.9209
C12_8 C 0.9476 0.9933 0.0218
O5_8 O 0.9800 0.9581 0.0609
C49_8 C 0.9519(5) 0.2374(7) 0.0628(8)
H41_8 H 0.9684 0.2214 0.0545
C50_8 C 0.9027(5) 0.2374(7) 0.0123(8)
C51_8 C 0.8777(5) 0.2591(5) 0.0232(8)
C52_8 C 0.9029(5) 0.2833(6) 0.0834(8)
H43_8 H 0.8869 0.3005 0.0918
C53_8 C 0.9509(5) 0.2822(5) 0.1304(7)
H44_8 H 0.9674 0.2987 0.1711
H47_8 H 0.8125 0.2789 0.0233
N1_8 N 0.9759(4) 0.2581(4) 0.1205(6)
C21_8 C 0.9742 0.9607 0.3581
H11_8 H 0.9834 0.9583 0.3331
H12_8 H 0.9563 0.9905 0.3454
C22_8 C 0.9458 0.9157 0.3465
H13_8 H 0.9172 0.9133 0.2993
H14_8 H 0.9647 0.8869 0.3604
H15_8 H 0.9378 0.9188 0.3726
loop_
_geom_bond_atom_site_label_1
_geom_bond_atom_site_label_2
_geom_bond_site_symmetry_1
_geom_bond_site_symmetry_2
C10 C9 1_555 1_555
H5 C10 1_555 1_555
C11 C10 1_555 1_555
C14 H7 1_555 1_555
C15 C14 1_555 1_555
H8 C15 1_555 1_555
C16 C11 1_555 1_555
C17 C16 1_555 1_555
H9 C17 1_555 1_555
C18 C17 1_555 1_555
H10 C18 1_555 1_555
C19 C14 1_555 1_555
C20 C19 1_555 1_555
C23 H16 1_555 1_555
H17 C23 1_555 1_555
C24 C23 1_555 1_555
H18 C24 1_555 1_555
H19 C24 1_555 1_555
H20 C24 1_555 1_555
O3 C20 1_555 1_555
O4 C20 1_555 1_555
O6 C9 1_555 1_555
Zn4 O3 1_555 1_555
Zn6 O4 1_555 1_555
C15 C16 1_555 1_555
C18 C19 1_555 1_555
C23 O6 1_555 1_555
C1 C2 1_555 1_555
C2 C3 1_555 1_555
C3 H1 1_555 1_555
C4 C3 1_555 1_555
H2 C4 1_555 1_555
C5 C4 1_555 1_555
C6 C5 1_555 1_555
H3 C6 1_555 1_555
C7 C2 1_555 1_555
H4 C7 1_555 1_555
C8 C5 1_555 1_555
C13 C8 1_555 1_555
H6 C13 1_555 1_555
C21 H11 1_555 1_555
H12 C21 1_555 1_555
C22 C21 1_555 1_555
H13 C22 1_555 1_555
H14 C22 1_555 1_555
H15 C22 1_555 1_555
C25 C26 1_555 1_555
C26 C27 1_555 1_555
C27 H21 1_555 1_555
C28 C27 1_555 1_555
H22 C28 1_555 1_555
C29 C28 1_555 1_555
C30 C29 1_555 1_555
H23 C30 1_555 1_555
C31 C26 1_555 1_555
H24 C31 1_555 1_555
C32 C29 1_555 1_555
C33 C32 1_555 1_555
C34 C33 1_555 1_555
H25 C34 1_555 1_555
C37 C32 1_555 1_555
H26 C37 1_555 1_555
C45 H31 1_555 1_555
H32 C45 1_555 1_555
C46 C45 1_555 1_555
H33 C46 1_555 1_555
H34 C46 1_555 1_555
H35 C46 1_555 1_555
C49 H41 1_555 1_555
C50 C49 1_555 1_555
H42 C50 1_555 1_555
C51 C50 1_555 1_555
C52 C51 1_555 1_555
H43 C52 1_555 1_555
C53 C52 1_555 1_555
H44 C53 1_555 1_555
C54 H45 1_555 1_555
C55 C54 1_555 1_555
H46 C55 1_555 1_555
C56 C51 1_555 1_555
C57 C56 1_555 1_555
H47 C57 1_555 1_555
C58 C57 1_555 1_555
H48 C58 1_555 1_555
N1 C49 1_555 1_555
N2 C54 1_555 1_555
O1 C1 1_555 1_555
O2 C1 1_555 1_555
O5 C12 1_555 1_555
O7 C25 1_555 1_555
O8 C25 1_555 1_555
O11 C33 1_555 1_555
Zn1 N1 1_555 1_555
Zn2 O2 1_555 1_555
N3 Zn2 1_555 1_555
O13 Zn1 1_555 1_555
O14 Zn2 1_555 1_555
O15 Zn1 1_555 1_555
O16 Zn2 1_555 1_555
Zn7 N2 1_555 1_555
C6 C7 1_555 1_555
C12 C13 1_555 1_555
C21 O5 1_555 1_555
C30 C31 1_555 1_555
C45 O11 1_555 1_555
C53 N1 1_555 1_555
C55 C56 1_555 1_555
C58 N2 1_555 1_555
O1 Zn1 1_555 1_555
O7 Zn1 1_555 1_555
O8 Zn2 1_555 1_555
C36 C35 1_555 1_555
C38 H27 1_555 1_555
C39 C38 1_555 1_555
H28 C39 1_555 1_555
C40 C35 1_555 1_555
C41 C40 1_555 1_555
H29 C41 1_555 1_555
C42 C41 1_555 1_555
H30 C42 1_555 1_555
C43 C38 1_555 1_555
C44 C43 1_555 1_555
C47 H36 1_555 1_555
H37 C47 1_555 1_555
C48 C47 1_555 1_555
H38 C48 1_555 1_555
H39 C48 1_555 1_555
H40 C48 1_555 1_555
O9 C44 1_555 1_555
O10 C44 1_555 1_555
O12 C36 1_555 1_555
Zn4 O9 1_555 1_555
Zn6 O10 1_555 1_555
C39 C40 1_555 1_555
C42 C43 1_555 1_555
C47 O12 1_555 1_555
C14_2 H7_2 1_555 1_555
C15_2 C14_2 1_555 1_555
H8_2 C15_2 1_555 1_555
C16_2 C11_2 1_555 1_555
C17_2 C16_2 1_555 1_555
H9_2 C17_2 1_555 1_555
C18_2 C17_2 1_555 1_555
H10_2 C18_2 1_555 1_555
C19_2 C14_2 1_555 1_555
C20_2 C19_2 1_555 1_555
O3_2 C20_2 1_555 1_555
O4_2 C20_2 1_555 1_555
Zn4_2 O3_2 1_555 1_555
Zn7 O4_2 1_555 1_555
C15_2 C16_2 1_555 1_555
C18_2 C19_2 1_555 1_555
C1_2 C2_2 1_555 1_555
C2_2 C3_2 1_555 1_555
C3_2 H1_2 1_555 1_555
C4_2 C3_2 1_555 1_555
H2_2 C4_2 1_555 1_555
C5_2 C4_2 1_555 1_555
C6_2 C5_2 1_555 1_555
H3_2 C6_2 1_555 1_555
C7_2 C2_2 1_555 1_555
H4_2 C7_2 1_555 1_555
C8_2 C5_2 1_555 1_555
C13_2 C8_2 1_555 1_555
H6_2 C13_2 1_555 1_555
C25_2 C26_2 1_555 1_555
C26_2 C27_2 1_555 1_555
C27_2 H21_2 1_555 1_555
C28_2 C27_2 1_555 1_555
H22_2 C28_2 1_555 1_555
C29_2 C28_2 1_555 1_555
C30_2 C29_2 1_555 1_555
H23_2 C30_2 1_555 1_555
C31_2 C26_2 1_555 1_555
H24_2 C31_2 1_555 1_555
C32_2 C29_2 1_555 1_555
C33_2 C32_2 1_555 1_555
C34_2 C33_2 1_555 1_555
H25_2 C34_2 1_555 1_555
C35_2 C34_2 1_555 1_555
C36_2 C35_2 1_555 1_555
C37_2 C32_2 1_555 1_555
H26_2 C37_2 1_555 1_555
C38_2 H27_2 1_555 1_555
C39_2 C38_2 1_555 1_555
H28_2 C39_2 1_555 1_555
C40_2 C35_2 1_555 1_555
C41_2 C40_2 1_555 1_555
H29_2 C41_2 1_555 1_555
C42_2 C41_2 1_555 1_555
H30_2 C42_2 1_555 1_555
C43_2 C38_2 1_555 1_555
C44_2 C43_2 1_555 1_555
C45_2 H31_2 1_555 1_555
H32_2 C45_2 1_555 1_555
C46_2 C45_2 1_555 1_555
H33_2 C46_2 1_555 1_555
H34_2 C46_2 1_555 1_555
H35_2 C46_2 1_555 1_555
C47_2 H36_2 1_555 1_555
H37_2 C47_2 1_555 1_555
C48_2 C47_2 1_555 1_555
H38_2 C48_2 1_555 1_555
H39_2 C48_2 1_555 1_555
H40_2 C48_2 1_555 1_555
O1_2 C1_2 1_555 1_555
O2_2 C1_2 1_555 1_555
O7_2 C25_2 1_555 1_555
O8_2 C25_2 1_555 1_555
O9_2 C44_2 1_555 1_555
O10_2 C44_2 1_555 1_555
O11_2 C33_2 1_555 1_555
O12_2 C36_2 1_555 1_555
Zn2_2 O2_2 1_555 1_555
N3_2 Zn2_2 1_555 1_555
O13_2 Zn1_2 1_555 1_555
O14_2 Zn2_2 1_555 1_555
O15_2 Zn1_2 1_555 1_555
O16_2 Zn2_2 1_555 1_555
Zn4_2 O9_2 1_555 1_555
Zn7 O10_2 1_555 1_555
C6_2 C7_2 1_555 1_555
C30_2 C31_2 1_555 1_555
C36_2 C37_2 1_555 1_555
C39_2 C40_2 1_555 1_555
C42_2 C43_2 1_555 1_555
C45_2 O11_2 1_555 1_555
C47_2 O12_2 1_555 1_555
O1_2 Zn1_2 1_555 1_555
O7_2 Zn1_2 1_555 1_555
O8_2 Zn2_2 1_555 1_555
C49_2 H41_2 1_555 1_555
C50_2 C49_2 1_555 1_555
H42_2 C50_2 1_555 1_555
C51_2 C50_2 1_555 1_555
C52_2 C51_2 1_555 1_555
H43_2 C52_2 1_555 1_555
C53_2 C52_2 1_555 1_555
H44_2 C53_2 1_555 1_555
C54_2 H45_2 1_555 1_555
C55_2 C54_2 1_555 1_555
H46_2 C55_2 1_555 1_555
C56_2 C51_2 1_555 1_555
C57_2 C56_2 1_555 1_555
H47_2 C57_2 1_555 1_555
C58_2 C57_2 1_555 1_555
H48_2 C58_2 1_555 1_555
N1_2 C49_2 1_555 1_555
N2_2 C54_2 1_555 1_555
Zn6 N2_2 1_555 1_555
C53_2 N1_2 1_555 1_555
C55_2 C56_2 1_555 1_555
C58_2 N2_2 1_555 1_555
C38_3 H27_3 1_555 1_555
C39_3 C38_3 1_555 1_555
H28_3 C39_3 1_555 1_555
C40_3 C35_3 1_555 1_555
C41_3 C40_3 1_555 1_555
H29_3 C41_3 1_555 1_555
C42_3 C41_3 1_555 1_555
H30_3 C42_3 1_555 1_555
C43_3 C38_3 1_555 1_555
C44_3 C43_3 1_555 1_555
O15 C44_3 1_555 1_555
O16 C44_3 1_555 1_555
C39_3 C40_3 1_555 1_555
C42_3 C43_3 1_555 1_555
C1_3 C2_3 1_555 1_555
C2_3 C3_3 1_555 1_555
C3_3 H1_3 1_555 1_555
C4_3 C3_3 1_555 1_555
H2_3 C4_3 1_555 1_555
C5_3 C4_3 1_555 1_555
C6_3 C5_3 1_555 1_555
H3_3 C6_3 1_555 1_555
C7_3 C2_3 1_555 1_555
H4_3 C7_3 1_555 1_555
C8_3 C5_3 1_555 1_555
C9_2 C8_3 1_555 1_555
C10_2 C9_2 1_555 1_555
H5_2 C10_2 1_555 1_555
C11_3 C10_2 1_555 1_555
C12_2 C11_3 1_555 1_555
C13_3 C8_3 1_555 1_555
H6_3 C13_3 1_555 1_555
C14_3 H7_3 1_555 1_555
C15_3 C14_3 1_555 1_555
H8_3 C15_3 1_555 1_555
C16_3 C11_3 1_555 1_555
C17_3 C16_3 1_555 1_555
H9_3 C17_3 1_555 1_555
C18_3 C17_3 1_555 1_555
H10_3 C18_3 1_555 1_555
C19_3 C14_3 1_555 1_555
C20_3 C19_3 1_555 1_555
C21_2 H11_2 1_555 1_555
H12_2 C21_2 1_555 1_555
C22_2 C21_2 1_555 1_555
H13_2 C22_2 1_555 1_555
H14_2 C22_2 1_555 1_555
H15_2 C22_2 1_555 1_555
C23_2 H16_2 1_555 1_555
H17_2 C23_2 1_555 1_555
C24_2 C23_2 1_555 1_555
H18_2 C24_2 1_555 1_555
H19_2 C24_2 1_555 1_555
H20_2 C24_2 1_555 1_555
C25_3 C26_3 1_555 1_555
C26_3 C27_3 1_555 1_555
C27_3 H21_3 1_555 1_555
C28_3 C27_3 1_555 1_555
C29_3 C28_3 1_555 1_555
C30_3 C29_3 1_555 1_555
H23_3 C30_3 1_555 1_555
C31_3 C26_3 1_555 1_555
H24_3 C31_3 1_555 1_555
C32_3 C29_3 1_555 1_555
C37_3 C32_3 1_555 1_555
H26_3 C37_3 1_555 1_555
C49_3 H41_3 1_555 1_555
C50_3 C49_3 1_555 1_555
C51_3 C50_3 1_555 1_555
C52_3 C51_3 1_555 1_555
H43_3 C52_3 1_555 1_555
C53_3 C52_3 1_555 1_555
H44_3 C53_3 1_555 1_555
N1_3 C49_3 1_555 1_555
O1_3 C1_3 1_555 1_555
O2_3 C1_3 1_555 1_555
O13 C20_3 1_555 1_555
O14 C20_3 1_555 1_555
O5_2 C12_2 1_555 1_555
O6_2 C9_2 1_555 1_555
O7_3 C25_3 1_555 1_555
O8_3 C25_3 1_555 1_555
Zn4 N1_3 1_555 1_555
Zn6 O2_3 1_555 1_555
C6_3 C7_3 1_555 1_555
C12_2 C13_3 1_555 1_555
C15_3 C16_3 1_555 1_555
C18_3 C19_3 1_555 1_555
C21_2 O5_2 1_555 1_555
C23_2 O6_2 1_555 1_555
C30_3 C31_3 1_555 1_555
C53_3 N1_3 1_555 1_555
O1_3 Zn4 1_555 1_555
O7_3 Zn4 1_555 1_555
O8_3 Zn6 1_555 1_555
C34_3 C33_3 1_555 1_555
H25_3 C34_3 1_555 1_555
C45_3 H31_3 1_555 1_555
H32_3 C45_3 1_555 1_555
C46_3 C45_3 1_555 1_555
H33_3 C46_3 1_555 1_555
H34_3 C46_3 1_555 1_555
H35_3 C46_3 1_555 1_555
C54_3 H45_3 1_555 1_555
C55_3 C54_3 1_555 1_555
H46_3 C55_3 1_555 1_555
C57_3 C56_3 1_555 1_555
C58_3 C57_3 1_555 1_555
H48_3 C58_3 1_555 1_555
N3_2 C54_3 1_555 1_555
O11_3 C33_3 1_555 1_555
C45_3 O11_3 1_555 1_555
C55_3 C56_3 1_555 1_555
C58_3 N3_2 1_555 1_555
C1_4 C2_4 1_555 1_555
C2_4 C3_4 1_555 1_555
C3_4 H1_4 1_555 1_555
C4_4 C3_4 1_555 1_555
H2_4 C4_4 1_555 1_555
C5_4 C4_4 1_555 1_555
C6_4 C5_4 1_555 1_555
H3_4 C6_4 1_555 1_555
C7_4 C2_4 1_555 1_555
H4_4 C7_4 1_555 1_555
C8_4 C5_4 1_555 1_555
C9_3 C8_4 1_555 1_555
C10_3 C9_3 1_555 1_555
H5_3 C10_3 1_555 1_555
C13_4 C8_4 1_555 1_555
H6_4 C13_4 1_555 1_555
C23_3 H16_3 1_555 1_555
H17_3 C23_3 1_555 1_555
C24_3 C23_3 1_555 1_555
H18_3 C24_3 1_555 1_555
H19_3 C24_3 1_555 1_555
H20_3 C24_3 1_555 1_555
C25_4 C26_4 1_555 1_555
C26_4 C27_4 1_555 1_555
C27_4 H21_4 1_555 1_555
C28_4 C27_4 1_555 1_555
C29_4 C28_4 1_555 1_555
C30_4 C29_4 1_555 1_555
H23_4 C30_4 1_555 1_555
C31_4 C26_4 1_555 1_555
H24_4 C31_4 1_555 1_555
C32_4 C29_4 1_555 1_555
C37_4 C32_4 1_555 1_555
H26_4 C37_4 1_555 1_555
C47_3 H36_3 1_555 1_555
H37_3 C47_3 1_555 1_555
C48_3 C47_3 1_555 1_555
H38_3 C48_3 1_555 1_555
H39_3 C48_3 1_555 1_555
H40_3 C48_3 1_555 1_555
O1_4 C1_4 1_555 1_555
O2_4 C1_4 1_555 1_555
O6_3 C9_3 1_555 1_555
O7_4 C25_4 1_555 1_555
O8_4 C25_4 1_555 1_555
O12_3 C36_3 1_555 1_555
Zn7 O2_4 1_555 1_555
C6_4 C7_4 1_555 1_555
C23_3 O6_3 1_555 1_555
C30_4 C31_4 1_555 1_555
C36_3 C37_4 1_555 1_555
C47_3 O12_3 1_555 1_555
O1_4 Zn4_2 1_555 1_555
O7_4 Zn4_2 1_555 1_555
O8_4 Zn7 1_555 1_555
C34_4 C33_4 1_555 1_555
H25_4 C34_4 1_555 1_555
C35_4 C34_4 1_555 1_555
C38_4 H27_4 1_555 1_555
C39_4 C38_4 1_555 1_555
H28_4 C39_4 1_555 1_555
C40_4 C35_4 1_555 1_555
C41_4 C40_4 1_555 1_555
H29_4 C41_4 1_555 1_555
C42_4 C41_4 1_555 1_555
H30_4 C42_4 1_555 1_555
C43_4 C38_4 1_555 1_555
C44_4 C43_4 1_555 1_555
C45_4 H31_4 1_555 1_555
H32_4 C45_4 1_555 1_555
C46_4 C45_4 1_555 1_555
H33_4 C46_4 1_555 1_555
H34_4 C46_4 1_555 1_555
H35_4 C46_4 1_555 1_555
O15_2 C44_4 1_555 1_555
O16_2 C44_4 1_555 1_555
O11_4 C33_4 1_555 1_555
C39_4 C40_4 1_555 1_555
C42_4 C43_4 1_555 1_555
C45_4 O11_4 1_555 1_555
C12_3 C11_4 1_555 1_555
C14_4 H7_4 1_555 1_555
C15_4 C14_4 1_555 1_555
H8_4 C15_4 1_555 1_555
C16_4 C11_4 1_555 1_555
C17_4 C16_4 1_555 1_555
H9_4 C17_4 1_555 1_555
C18_4 C17_4 1_555 1_555
H10_4 C18_4 1_555 1_555
C19_4 C14_4 1_555 1_555
C20_4 C19_4 1_555 1_555
O13_2 C20_4 1_555 1_555
O14_2 C20_4 1_555 1_555
O5_3 C12_3 1_555 1_555
C15_4 C16_4 1_555 1_555
C18_4 C19_4 1_555 1_555
C54_4 H45_4 1_555 1_555
C55_4 C54_4 1_555 1_555
H46_4 C55_4 1_555 1_555
C57_4 C56_4 1_555 1_555
C58_4 C57_4 1_555 1_555
H48_4 C58_4 1_555 1_555
N3 C54_4 1_555 1_555
C55_4 C56_4 1_555 1_555
C58_4 N3 1_555 1_555
C34_5 C33_5 1_555 1_555
H25_5 C34_5 1_555 1_555
C45_5 H31_5 1_555 1_555
H32_5 C45_5 1_555 1_555
C46_5 C45_5 1_555 1_555
H33_5 C46_5 1_555 1_555
H34_5 C46_5 1_555 1_555
H35_5 C46_5 1_555 1_555
C54_5 H45_5 1_555 1_555
C55_5 C54_5 1_555 1_555
H46_5 C55_5 1_555 1_555
C57_5 C56_5 1_555 1_555
C58_5 C57_5 1_555 1_555
H48_5 C58_5 1_555 1_555
N2_3 C54_5 1_555 1_555
O11_5 C33_5 1_555 1_555
Zn7_2 N2_3 1_555 1_555
C45_5 O11_5 1_555 1_555
C55_5 C56_5 1_555 1_555
C58_5 N2_3 1_555 1_555
C1_5 C2_5 1_555 1_555
C2_5 C3_5 1_555 1_555
C3_5 H1_5 1_555 1_555
C4_5 C3_5 1_555 1_555
H2_5 C4_5 1_555 1_555
C5_5 C4_5 1_555 1_555
C6_5 C5_5 1_555 1_555
H3_5 C6_5 1_555 1_555
C7_5 C2_5 1_555 1_555
H4_5 C7_5 1_555 1_555
C8_5 C5_5 1_555 1_555
C9_4 C8_5 1_555 1_555
C10_4 C9_4 1_555 1_555
H5_4 C10_4 1_555 1_555
C11_5 C10_4 1_555 1_555
C12_4 C11_5 1_555 1_555
C13_5 C8_5 1_555 1_555
H6_5 C13_5 1_555 1_555
C14_5 H7_5 1_555 1_555
C15_5 C14_5 1_555 1_555
H8_5 C15_5 1_555 1_555
C16_5 C11_5 1_555 1_555
C17_5 C16_5 1_555 1_555
H9_5 C17_5 1_555 1_555
C18_5 C17_5 1_555 1_555
H10_5 C18_5 1_555 1_555
C19_5 C14_5 1_555 1_555
C20_5 C19_5 1_555 1_555
C21_3 H11_3 1_555 1_555
H12_3 C21_3 1_555 1_555
C22_3 C21_3 1_555 1_555
H13_3 C22_3 1_555 1_555
H14_3 C22_3 1_555 1_555
H15_3 C22_3 1_555 1_555
C23_4 H16_4 1_555 1_555
H17_4 C23_4 1_555 1_555
C24_4 C23_4 1_555 1_555
H18_4 C24_4 1_555 1_555
H19_4 C24_4 1_555 1_555
H20_4 C24_4 1_555 1_555
C25_5 C26_5 1_555 1_555
C26_5 C27_5 1_555 1_555
C27_5 H21_5 1_555 1_555
C28_5 C27_5 1_555 1_555
C29_5 C28_5 1_555 1_555
C30_5 C29_5 1_555 1_555
H23_5 C30_5 1_555 1_555
C31_5 C26_5 1_555 1_555
H24_5 C31_5 1_555 1_555
C32_5 C29_5 1_555 1_555
C37_5 C32_5 1_555 1_555
H26_5 C37_5 1_555 1_555
C49_4 H41_4 1_555 1_555
C50_4 C49_4 1_555 1_555
C51_4 C50_4 1_555 1_555
C52_4 C51_4 1_555 1_555
H43_4 C52_4 1_555 1_555
C53_4 C52_4 1_555 1_555
H44_4 C53_4 1_555 1_555
N1_4 C49_4 1_555 1_555
O1_5 C1_5 1_555 1_555
O2_5 C1_5 1_555 1_555
O3_3 C20_5 1_555 1_555
O4_3 C20_5 1_555 1_555
O5_4 C12_4 1_555 1_555
O6_4 C9_4 1_555 1_555
O7_5 C25_5 1_555 1_555
O8_5 C25_5 1_555 1_555
Zn1_3 N1_4 1_555 1_555
Zn2_3 O2_5 1_555 1_555
N3_3 Zn2_3 1_555 1_555
O13_3 Zn1_3 1_555 1_555
O14_3 Zn2_3 1_555 1_555
O15_3 Zn1_3 1_555 1_555
O16_3 Zn2_3 1_555 1_555
Zn4_3 O3_3 1_555 1_555
Zn6_2 O4_3 1_555 1_555
C6_5 C7_5 1_555 1_555
C12_4 C13_5 1_555 1_555
C15_5 C16_5 1_555 1_555
C18_5 C19_5 1_555 1_555
C21_3 O5_4 1_555 1_555
C23_4 O6_4 1_555 1_555
C30_5 C31_5 1_555 1_555
C53_4 N1_4 1_555 1_555
O1_5 Zn1_3 1_555 1_555
O7_5 Zn1_3 1_555 1_555
O8_5 Zn2_3 1_555 1_555
C38_5 H27_5 1_555 1_555
C39_5 C38_5 1_555 1_555
H28_5 C39_5 1_555 1_555
C40_5 C35_5 1_555 1_555
C41_5 C40_5 1_555 1_555
H29_5 C41_5 1_555 1_555
C42_5 C41_5 1_555 1_555
H30_5 C42_5 1_555 1_555
C43_5 C38_5 1_555 1_555
C44_5 C43_5 1_555 1_555
O9_3 C44_5 1_555 1_555
O10_3 C44_5 1_555 1_555
Zn4_3 O9_3 1_555 1_555
Zn6_2 O10_3 1_555 1_555
C39_5 C40_5 1_555 1_555
C42_5 C43_5 1_555 1_555
C54_6 H45_6 1_555 1_555
C55_6 C54_6 1_555 1_555
H46_6 C55_6 1_555 1_555
C57_6 C56_6 1_555 1_555
C58_6 C57_6 1_555 1_555
H48_6 C58_6 1_555 1_555
N2_4 C54_6 1_555 1_555
Zn6_2 N2_4 1_555 1_555
C55_6 C56_6 1_555 1_555
C58_6 N2_4 1_555 1_555
C12_5 C11_6 1_555 1_555
C14_6 H7_6 1_555 1_555
C15_6 C14_6 1_555 1_555
H8_6 C15_6 1_555 1_555
C16_6 C11_6 1_555 1_555
C17_6 C16_6 1_555 1_555
H9_6 C17_6 1_555 1_555
C18_6 C17_6 1_555 1_555
H10_6 C18_6 1_555 1_555
C19_6 C14_6 1_555 1_555
C20_6 C19_6 1_555 1_555
O3_4 C20_6 1_555 1_555
O4_4 C20_6 1_555 1_555
O5_5 C12_5 1_555 1_555
Zn4_4 O3_4 1_555 1_555
Zn7_2 O4_4 1_555 1_555
C15_6 C16_6 1_555 1_555
C18_6 C19_6 1_555 1_555
C34_6 C33_6 1_555 1_555
H25_6 C34_6 1_555 1_555
C35_6 C34_6 1_555 1_555
C38_6 H27_6 1_555 1_555
C39_6 C38_6 1_555 1_555
H28_6 C39_6 1_555 1_555
C40_6 C35_6 1_555 1_555
C41_6 C40_6 1_555 1_555
H29_6 C41_6 1_555 1_555
C42_6 C41_6 1_555 1_555
H30_6 C42_6 1_555 1_555
C43_6 C38_6 1_555 1_555
C44_6 C43_6 1_555 1_555
C45_6 H31_6 1_555 1_555
H32_6 C45_6 1_555 1_555
C46_6 C45_6 1_555 1_555
H33_6 C46_6 1_555 1_555
H34_6 C46_6 1_555 1_555
H35_6 C46_6 1_555 1_555
O9_4 C44_6 1_555 1_555
O10_4 C44_6 1_555 1_555
O11_6 C33_6 1_555 1_555
Zn4_4 O9_4 1_555 1_555
Zn7_2 O10_4 1_555 1_555
C39_6 C40_6 1_555 1_555
C42_6 C43_6 1_555 1_555
C45_6 O11_6 1_555 1_555
C1_6 C2_6 1_555 1_555
C2_6 C3_6 1_555 1_555
C3_6 H1_6 1_555 1_555
C4_6 C3_6 1_555 1_555
H2_6 C4_6 1_555 1_555
C5_6 C4_6 1_555 1_555
C6_6 C5_6 1_555 1_555
H3_6 C6_6 1_555 1_555
C7_6 C2_6 1_555 1_555
H4_6 C7_6 1_555 1_555
C8_6 C5_6 1_555 1_555
C9_5 C8_6 1_555 1_555
C10_5 C9_5 1_555 1_555
H5_5 C10_5 1_555 1_555
C13_6 C8_6 1_555 1_555
H6_6 C13_6 1_555 1_555
C23_5 H16_5 1_555 1_555
H17_5 C23_5 1_555 1_555
C24_5 C23_5 1_555 1_555
H18_5 C24_5 1_555 1_555
H19_5 C24_5 1_555 1_555
H20_5 C24_5 1_555 1_555
C25_6 C26_6 1_555 1_555
C26_6 C27_6 1_555 1_555
C27_6 H21_6 1_555 1_555
C28_6 C27_6 1_555 1_555
C29_6 C28_6 1_555 1_555
C30_6 C29_6 1_555 1_555
H23_6 C30_6 1_555 1_555
C31_6 C26_6 1_555 1_555
H24_6 C31_6 1_555 1_555
C32_6 C29_6 1_555 1_555
C37_6 C32_6 1_555 1_555
H26_6 C37_6 1_555 1_555
C47_4 H36_4 1_555 1_555
H37_4 C47_4 1_555 1_555
C48_4 C47_4 1_555 1_555
H38_4 C48_4 1_555 1_555
H39_4 C48_4 1_555 1_555
H40_4 C48_4 1_555 1_555
O1_6 C1_6 1_555 1_555
O2_6 C1_6 1_555 1_555
O6_5 C9_5 1_555 1_555
O7_6 C25_6 1_555 1_555
O8_6 C25_6 1_555 1_555
O12_4 C36_4 1_555 1_555
Zn2_4 O2_6 1_555 1_555
N3_4 Zn2_4 1_555 1_555
O13_4 Zn1_4 1_555 1_555
O14_4 Zn2_4 1_555 1_555
O15_4 Zn1_4 1_555 1_555
O16_4 Zn2_4 1_555 1_555
C6_6 C7_6 1_555 1_555
C23_5 O6_5 1_555 1_555
C30_6 C31_6 1_555 1_555
C36_4 C37_6 1_555 1_555
C47_4 O12_4 1_555 1_555
O1_6 Zn1_4 1_555 1_555
O7_6 Zn1_4 1_555 1_555
O8_6 Zn2_4 1_555 1_555
C36_5 C35_7 1_555 1_555
C38_7 H27_7 1_555 1_555
C39_7 C38_7 1_555 1_555
H28_7 C39_7 1_555 1_555
C40_7 C35_7 1_555 1_555
C41_7 C40_7 1_555 1_555
H29_7 C41_7 1_555 1_555
C42_7 C41_7 1_555 1_555
H30_7 C42_7 1_555 1_555
C43_7 C38_7 1_555 1_555
C44_7 C43_7 1_555 1_555
C47_5 H36_5 1_555 1_555
H37_5 C47_5 1_555 1_555
C48_5 C47_5 1_555 1_555
H38_5 C48_5 1_555 1_555
H39_5 C48_5 1_555 1_555
H40_5 C48_5 1_555 1_555
O15_3 C44_7 1_555 1_555
O16_3 C44_7 1_555 1_555
O12_5 C36_5 1_555 1_555
C39_7 C40_7 1_555 1_555
C42_7 C43_7 1_555 1_555
C47_5 O12_5 1_555 1_555
C1_7 C2_7 1_555 1_555
C2_7 C3_7 1_555 1_555
C3_7 H1_7 1_555 1_555
C4_7 C3_7 1_555 1_555
H2_7 C4_7 1_555 1_555
C5_7 C4_7 1_555 1_555
C6_7 C5_7 1_555 1_555
H3_7 C6_7 1_555 1_555
C7_7 C2_7 1_555 1_555
H4_7 C7_7 1_555 1_555
C8_7 C5_7 1_555 1_555
C13_7 C8_7 1_555 1_555
H6_7 C13_7 1_555 1_555
C21_4 H11_4 1_555 1_555
H12_4 C21_4 1_555 1_555
C22_4 C21_4 1_555 1_555
H13_4 C22_4 1_555 1_555
H14_4 C22_4 1_555 1_555
H15_4 C22_4 1_555 1_555
C25_7 C26_7 1_555 1_555
C26_7 C27_7 1_555 1_555
C27_7 H21_7 1_555 1_555
C28_7 C27_7 1_555 1_555
H22_7 C28_7 1_555 1_555
C29_7 C28_7 1_555 1_555
C30_7 C29_7 1_555 1_555
H23_7 C30_7 1_555 1_555
C31_7 C26_7 1_555 1_555
H24_7 C31_7 1_555 1_555
C32_7 C29_7 1_555 1_555
C33_7 C32_7 1_555 1_555
C34_7 C33_7 1_555 1_555
H25_7 C34_7 1_555 1_555
C37_7 C32_7 1_555 1_555
H26_7 C37_7 1_555 1_555
C45_7 H31_7 1_555 1_555
H32_7 C45_7 1_555 1_555
C46_7 C45_7 1_555 1_555
H33_7 C46_7 1_555 1_555
H34_7 C46_7 1_555 1_555
H35_7 C46_7 1_555 1_555
C49_5 H41_5 1_555 1_555
C50_5 C49_5 1_555 1_555
H42_7 C50_5 1_555 1_555
C51_5 C50_5 1_555 1_555
C52_5 C51_5 1_555 1_555
H43_5 C52_5 1_555 1_555
C53_5 C52_5 1_555 1_555
H44_5 C53_5 1_555 1_555
C54_7 H45_7 1_555 1_555
C55_7 C54_7 1_555 1_555
H46_7 C55_7 1_555 1_555
C56_7 C51_5 1_555 1_555
C57_7 C56_7 1_555 1_555
H47_5 C57_7 1_555 1_555
C58_7 C57_7 1_555 1_555
H48_7 C58_7 1_555 1_555
N1_5 C49_5 1_555 1_555
N3_4 C54_7 1_555 1_555
O1_7 C1_7 1_555 1_555
O2_7 C1_7 1_555 1_555
O5_6 C12_6 1_555 1_555
O7_7 C25_7 1_555 1_555
O8_7 C25_7 1_555 1_555
O11_7 C33_7 1_555 1_555
Zn4_3 N1_5 1_555 1_555
Zn6_2 O2_7 1_555 1_555
C6_7 C7_7 1_555 1_555
C12_6 C13_7 1_555 1_555
C21_4 O5_6 1_555 1_555
C30_7 C31_7 1_555 1_555
C45_7 O11_7 1_555 1_555
C53_5 N1_5 1_555 1_555
C55_7 C56_7 1_555 1_555
C58_7 N3_4 1_555 1_555
O1_7 Zn4_3 1_555 1_555
O7_7 Zn4_3 1_555 1_555
O8_7 Zn6_2 1_555 1_555
C10_6 C9_6 1_555 1_555
H5_6 C10_6 1_555 1_555
C11_7 C10_6 1_555 1_555
C14_7 H7_7 1_555 1_555
C15_7 C14_7 1_555 1_555
H8_7 C15_7 1_555 1_555
C16_7 C11_7 1_555 1_555
C17_7 C16_7 1_555 1_555
H9_7 C17_7 1_555 1_555
C18_7 C17_7 1_555 1_555
H10_7 C18_7 1_555 1_555
C19_7 C14_7 1_555 1_555
C20_7 C19_7 1_555 1_555
C23_6 H16_6 1_555 1_555
H17_6 C23_6 1_555 1_555
C24_6 C23_6 1_555 1_555
H18_6 C24_6 1_555 1_555
H19_6 C24_6 1_555 1_555
H20_6 C24_6 1_555 1_555
O13_3 C20_7 1_555 1_555
O14_3 C20_7 1_555 1_555
O6_6 C9_6 1_555 1_555
C15_7 C16_7 1_555 1_555
C18_7 C19_7 1_555 1_555
C23_6 O6_6 1_555 1_555
C49_6 H41_6 1_555 1_555
C50_6 C49_6 1_555 1_555
H42_8 C50_6 1_555 1_555
C51_6 C50_6 1_555 1_555
C52_6 C51_6 1_555 1_555
H43_6 C52_6 1_555 1_555
C53_6 C52_6 1_555 1_555
H44_6 C53_6 1_555 1_555
C54_8 H45_8 1_555 1_555
C55_8 C54_8 1_555 1_555
H46_8 C55_8 1_555 1_555
C56_8 C51_6 1_555 1_555
C57_8 C56_8 1_555 1_555
H47_6 C57_8 1_555 1_555
C58_8 C57_8 1_555 1_555
H48_8 C58_8 1_555 1_555
N1_6 C49_6 1_555 1_555
N3_3 C54_8 1_555 1_555
C53_6 N1_6 1_555 1_555
C55_8 C56_8 1_555 1_555
C58_8 N3_3 1_555 1_555
C1_8 C2_8 1_555 1_555
C2_8 C3_8 1_555 1_555
C3_8 H1_8 1_555 1_555
C4_8 C3_8 1_555 1_555
H2_8 C4_8 1_555 1_555
C5_8 C4_8 1_555 1_555
C6_8 C5_8 1_555 1_555
H3_8 C6_8 1_555 1_555
C7_8 C2_8 1_555 1_555
H4_8 C7_8 1_555 1_555
C8_8 C5_8 1_555 1_555
C13_8 C8_8 1_555 1_555
H6_8 C13_8 1_555 1_555
C25_8 C26_8 1_555 1_555
C26_8 C27_8 1_555 1_555
C27_8 H21_8 1_555 1_555
C28_8 C27_8 1_555 1_555
H22_8 C28_8 1_555 1_555
C29_8 C28_8 1_555 1_555
C30_8 C29_8 1_555 1_555
H23_8 C30_8 1_555 1_555
C31_8 C26_8 1_555 1_555
H24_8 C31_8 1_555 1_555
C32_8 C29_8 1_555 1_555
C33_8 C32_8 1_555 1_555
C34_8 C33_8 1_555 1_555
H25_8 C34_8 1_555 1_555
C35_8 C34_8 1_555 1_555
C36_6 C35_8 1_555 1_555
C37_8 C32_8 1_555 1_555
H26_8 C37_8 1_555 1_555
C38_8 H27_8 1_555 1_555
C39_8 C38_8 1_555 1_555
H28_8 C39_8 1_555 1_555
C40_8 C35_8 1_555 1_555
C41_8 C40_8 1_555 1_555
H29_8 C41_8 1_555 1_555
C42_8 C41_8 1_555 1_555
H30_8 C42_8 1_555 1_555
C43_8 C38_8 1_555 1_555
C44_8 C43_8 1_555 1_555
C45_8 H31_8 1_555 1_555
H32_8 C45_8 1_555 1_555
C46_8 C45_8 1_555 1_555
H33_8 C46_8 1_555 1_555
H34_8 C46_8 1_555 1_555
H35_8 C46_8 1_555 1_555
C47_6 H36_6 1_555 1_555
H37_6 C47_6 1_555 1_555
C48_6 C47_6 1_555 1_555
H38_6 C48_6 1_555 1_555
H39_6 C48_6 1_555 1_555
H40_6 C48_6 1_555 1_555
O1_8 C1_8 1_555 1_555
O2_8 C1_8 1_555 1_555
O7_8 C25_8 1_555 1_555
O8_8 C25_8 1_555 1_555
O15_4 C44_8 1_555 1_555
O16_4 C44_8 1_555 1_555
O11_8 C33_8 1_555 1_555
O12_6 C36_6 1_555 1_555
Zn7_2 O2_8 1_555 1_555
C6_8 C7_8 1_555 1_555
C30_8 C31_8 1_555 1_555
C36_6 C37_8 1_555 1_555
C39_8 C40_8 1_555 1_555
C42_8 C43_8 1_555 1_555
C45_8 O11_8 1_555 1_555
C47_6 O12_6 1_555 1_555
O1_8 Zn4_4 1_555 1_555
O7_8 Zn4_4 1_555 1_555
O8_8 Zn7_2 1_555 1_555
C14_8 H7_8 1_555 1_555
C15_8 C14_8 1_555 1_555
H8_8 C15_8 1_555 1_555
C16_8 C11_8 1_555 1_555
C17_8 C16_8 1_555 1_555
H9_8 C17_8 1_555 1_555
C18_8 C17_8 1_555 1_555
H10_8 C18_8 1_555 1_555
C19_8 C14_8 1_555 1_555
C20_8 C19_8 1_555 1_555
O13_4 C20_8 1_555 1_555
O14_4 C20_8 1_555 1_555
C15_8 C16_8 1_555 1_555
C18_8 C19_8 1_555 1_555
C47_7 H36_7 1_555 1_555
H37_7 C47_7 1_555 1_555
C48_7 C47_7 1_555 1_555
H38_7 C48_7 1_555 1_555
H39_7 C48_7 1_555 1_555
H40_7 C48_7 1_555 1_555
O12_7 C36_7 1_555 1_555
C47_7 O12_7 1_555 1_555
O5_7 C12_7 1_555 1_555
C10_7 C9_7 1_555 1_555
H5_7 C10_7 1_555 1_555
C23_7 H16_7 1_555 1_555
H17_7 C23_7 1_555 1_555
C24_7 C23_7 1_555 1_555
H18_7 C24_7 1_555 1_555
H19_7 C24_7 1_555 1_555
H20_7 C24_7 1_555 1_555
O6_7 C9_7 1_555 1_555
C23_7 O6_7 1_555 1_555
C21_5 H11_5 1_555 1_555
H12_5 C21_5 1_555 1_555
C22_5 C21_5 1_555 1_555
H13_5 C22_5 1_555 1_555
H14_5 C22_5 1_555 1_555
H15_5 C22_5 1_555 1_555
C21_6 H11_6 1_555 1_555
H12_6 C21_6 1_555 1_555
C22_6 C21_6 1_555 1_555
H13_6 C22_6 1_555 1_555
H14_6 C22_6 1_555 1_555
H15_6 C22_6 1_555 1_555
C49_7 H41_7 1_555 1_555
C50_7 C49_7 1_555 1_555
C51_7 C50_7 1_555 1_555
C52_7 C51_7 1_555 1_555
H43_7 C52_7 1_555 1_555
C53_7 C52_7 1_555 1_555
H44_7 C53_7 1_555 1_555
N1_7 C49_7 1_555 1_555
C53_7 N1_7 1_555 1_555
C47_8 H36_8 1_555 1_555
H37_8 C47_8 1_555 1_555
C48_8 C47_8 1_555 1_555
H38_8 C48_8 1_555 1_555
H39_8 C48_8 1_555 1_555
H40_8 C48_8 1_555 1_555
O12_8 C36_8 1_555 1_555
C47_8 O12_8 1_555 1_555
C21_7 H11_7 1_555 1_555
H12_7 C21_7 1_555 1_555
C22_7 C21_7 1_555 1_555
H13_7 C22_7 1_555 1_555
H14_7 C22_7 1_555 1_555
H15_7 C22_7 1_555 1_555
C10_8 C9_8 1_555 1_555
H5_8 C10_8 1_555 1_555
C23_8 H16_8 1_555 1_555
H17_8 C23_8 1_555 1_555
C24_8 C23_8 1_555 1_555
H18_8 C24_8 1_555 1_555
H19_8 C24_8 1_555 1_555
H20_8 C24_8 1_555 1_555
O6_8 C9_8 1_555 1_555
C23_8 O6_8 1_555 1_555
O5_8 C12_8 1_555 1_555
C49_8 H41_8 1_555 1_555
C50_8 C49_8 1_555 1_555
C51_8 C50_8 1_555 1_555
C52_8 C51_8 1_555 1_555
H43_8 C52_8 1_555 1_555
C53_8 C52_8 1_555 1_555
H44_8 C53_8 1_555 1_555
N1_8 C49_8 1_555 1_555
C53_8 N1_8 1_555 1_555
C21_8 H11_8 1_555 1_555
H12_8 C21_8 1_555 1_555
C22_8 C21_8 1_555 1_555
H13_8 C22_8 1_555 1_555
H14_8 C22_8 1_555 1_555
H15_8 C22_8 1_555 1_555

#END
