
###############################################################################
#
# This file contains modified crystal structure data generated from the
# MOF subset of the Cambridge Structural Database (CSD) v543 
# hosted by the Cambridge Crystallographic Data Centre (CCDC).
#
# This work is licensed under the Creative Commons
# Attribution-NonCommercial-ShareAlike 4.0 International License.
# To view a copy of this license, visit
# http://creativecommons.org/licenses/by-nc-sa/4.0/
# or send a letter to
# Creative Commons, PO Box 1866, Mountain View, CA 94042, USA.
#
# CIF created using the CSD Python API on 29 September 2022
# The structure has been converted into the P1 space group
# The structure has a 3D framework
# The original CSD entry HUZYAE is in the monoclinic crystal system
# The framework has been calculated to contain at least 10.0% void space
# The void calculation uses a probe of radius 1.32A, grid spacing 0.4
# H atom positions have been added when not included in the experimental data
#
###############################################################################

data_HUZYAE
_chemical_formula_moiety         '(C592 H640 N16 O88 Zn12)n'
_symmetry_cell_setting           triclinic
_symmetry_space_group_name_H-M   'P 1'
_symmetry_Int_Tables_number      1
_space_group_name_Hall           'P 1'
loop_
_symmetry_equiv_pos_site_id
_symmetry_equiv_pos_as_xyz
1 x,y,z
_cell_length_a                   39.1332(8)
_cell_length_b                   27.4503(6)
_cell_length_c                   27.3497(6)
_cell_angle_alpha                90
_cell_angle_beta                 134.0220(10)
_cell_angle_gamma                90
_cell_volume                     21126
loop_
_atom_site_label
_atom_site_type_symbol
_atom_site_fract_x
_atom_site_fract_y
_atom_site_fract_z
C9 C 0.0804 0.0310 0.7525
H5 H 0.0598 0.0334 0.7585
C10 C 0.0837 0.0679 0.7205
C11 C 0.1103 0.0626 0.7025
C12 C 0.1337 0.0199 0.7184
H6 H 0.1517 0.0153 0.7082
C14 C 0.1071(3) 0.0989(2) 0.6594(3)
C15 C 0.0650(2) 0.1185(3) 0.6006(4)
H7 H 0.0365 0.1097 0.5870
C16 C 0.0647(2) 0.1516(2) 0.5611(3)
H8 H 0.0360 0.1641 0.5215
C17 C 0.10534(19) 0.16540(19) 0.5795(3)
C18 C 0.1487(2) 0.1490(2) 0.6424(3)
H9 H 0.1771 0.1615 0.6587
C19 C 0.1498(2) 0.1150(3) 0.6800(4)
H10 H 0.1787 0.1024 0.7193
C20 C 0.10553(18) 0.19911(17) 0.5365(2)
C27 C 0.0201 0.1194 0.7089
H24 H 0.0322 0.1089 0.7524
H25 H 0.0085 0.1526 0.6989
H27 H 0.0092 0.0655 0.6629
O3 O 0.14412(12) 0.20932(13) 0.55569(17)
O4 O 0.06580(12) 0.21261(13) 0.48213(17)
O6 O 0.0552 0.1102 0.7008
Zn4 Zn 0.048522(16) 0.247702(16) 0.40135(2)
Zn6 Zn 0.152757(16) 0.252479(16) 0.50449(2)
Zn2 Zn 0.152757(16) 0.747521(16) 0.00449(2)
N3 N 0.22511(13) 0.74422(12) 0.0770(2)
O13 O 0.14412(12) 0.79068(13) 0.05569(17)
O16 O 0.13479(12) 0.68953(12) 0.02865(18)
C1 C 0.10420(18) 0.82981(16) 0.9056(2)
C2 C 0.10493(17) 0.87344(16) 0.8747(2)
C3 C 0.06535(18) 0.89770(19) 0.8228(3)
H1 H 0.0368 0.8883 0.8088
C4 C 0.0646(2) 0.9365(2) 0.7885(3)
H2 H 0.0363 0.9522 0.7527
C5 C 0.1076(2) 0.95094(19) 0.8098(3)
C6 C 0.1484(2) 0.9275(2) 0.8636(3)
H3 H 0.1769 0.9373 0.8779
C7 C 0.14918(18) 0.88963(19) 0.8979(3)
H4 H 0.1777 0.8750 0.9352
C8 C 0.1093 0.9910 0.7746
C13 C 0.1305 0.9819 0.7511
C21 C 0.1847 0.9329 0.7498
H11 H 0.1645 0.9371 0.7013
H12 H 0.2112 0.9554 0.7738
C22 C 0.2018 0.8828 0.7698
H13 H 0.1760 0.8613 0.7533
H14 H 0.2265 0.8803 0.8190
C23 C 0.2219 0.8677 0.7389
H15 H 0.1958 0.8644 0.6900
H16 H 0.2427 0.8933 0.7476
C24 C 0.2495 0.8199 0.7683
H17 H 0.2362 0.8002 0.7812
H18 H 0.2821 0.8272 0.8095
C25 C 0.2500 0.7888 0.7213
H19 H 0.2579 0.8098 0.7019
H20 H 0.2749 0.7645 0.7488
C26 C 0.2150 0.7696 0.6782
H21 H 0.2181 0.7512 0.6516
H22 H 0.1903 0.7934 0.6499
H23 H 0.2072 0.7480 0.6969
C33 C 0.09906(17) 0.69774(16) 0.8722(2)
C34 C 0.09793(17) 0.66507(16) 0.8279(2)
C35 C 0.05464(19) 0.65506(18) 0.7620(3)
H37 H 0.0270 0.6703 0.7452
C36 C 0.0528(2) 0.6221(2) 0.7211(3)
H38 H 0.0237 0.6156 0.6774
C37 C 0.0924(3) 0.5996(2) 0.7439(4)
C38 C 0.1375(3) 0.6122(3) 0.8104(4)
H39 H 0.1655 0.5992 0.8258
C39 C 0.1386(2) 0.6443(2) 0.8518(3)
H40 H 0.1673 0.6513 0.8957
C40 C 0.0919(2) 0.5634(3) 0.7036(4)
C41 C 0.0818 0.5721 0.6473
H41 H 0.0741 0.6040 0.6314
C42 C 0.0816 0.5374 0.6085
C43 C 0.0937(2) 0.4921(3) 0.6319(4)
C44 C 0.1246 0.4804 0.7080
H42 H 0.1416 0.4517 0.7293
C45 C 0.1234 0.5206 0.7421
C46 C 0.0529(2) 0.3961(2) 0.4994(3)
H43 H 0.0246 0.3856 0.4573
C47 C 0.0529(3) 0.4365(2) 0.5311(4)
H44 H 0.0245 0.4529 0.5086
C48 C 0.0921(3) 0.4521(2) 0.5919(4)
C49 C 0.1348(3) 0.4272(3) 0.6242(4)
H45 H 0.1628 0.4377 0.6666
C50 C 0.1361(2) 0.3871(2) 0.5940(3)
H46 H 0.1645 0.3708 0.6161
C51 C 0.09416(19) 0.37244(18) 0.5304(3)
C52 C 0.09436(19) 0.32851(17) 0.4978(3)
C53 C 0.0531 0.6016 0.5212
H47 H 0.0234 0.6059 0.5091
H48 H 0.0744 0.6279 0.5513
C54 C 0.0460 0.6016 0.4692
H49 H 0.0184 0.6214 0.4341
H50 H 0.0402 0.5687 0.4521
C55 C 0.0891 0.6221 0.4882
H51 H 0.1054 0.5988 0.4836
H52 H 0.1112 0.6368 0.5330
C56 C 0.0599 0.6600 0.4300
H53 H 0.0849 0.6838 0.4496
H54 H 0.0418 0.6734 0.4389
C57 C 0.0232 0.6772 0.3469
H56 H 0.0335 0.7059 0.3394
C58 C 0.0394 0.6269 0.3395
H57 H 0.0241 0.6227 0.2932
H58 H 0.0306 0.6006 0.3521
H59 H 0.0732 0.6270 0.3687
C59 C 0.1554 0.4464 0.8270
H60 H 0.1308 0.4247 0.8147
H61 H 0.1727 0.4323 0.8170
C60 C 0.1830 0.4672 0.8895
H62 H 0.2036 0.4434 0.9253
H63 H 0.2023 0.4933 0.8953
C61 C 0.1506 0.4844 0.8889
H64 H 0.1550 0.5194 0.8919
H65 H 0.1628 0.4746 0.9327
C62 C 0.0871 0.4773 0.8320
H66 H 0.0695 0.4980 0.7922
H67 H 0.0770 0.4437 0.8183
C63 C 0.0847 0.4907 0.8700
H68 H 0.1142 0.4779 0.9124
H69 H 0.0605 0.4689 0.8585
C64 C 0.0765 0.5411 0.8999
H70 H 0.0779 0.5309 0.9348
H71 H 0.0460 0.5555 0.8631
H72 H 0.1010 0.5646 0.9182
O1 O 0.14242(11) 0.80817(12) 0.95135(17)
O2 O 0.06369(12) 0.81551(11) 0.88030(18)
O5 O 0.1568 0.9416 0.7686
O7 O 0.06082(11) 0.71564(12) 0.84999(16)
O8 O 0.13942(12) 0.70647(12) 0.93061(18)
O9 O 0.05563(12) 0.31213(12) 0.44580(17)
O10 O 0.13479(12) 0.31047(12) 0.52865(18)
O11 O 0.0775 0.5478 0.5596
O12 O 0.1381 0.5054 0.8017
Zn1 Zn 0.048522(16) 0.752298(16) 0.90135(2)
O14 O 0.06580(12) 0.78739(13) 0.98213(17)
O15 O 0.05563(12) 0.68787(12) 0.94580(17)
H55 H 0.9898 0.6789 0.3223
C65 C 0.95055(18) 0.7338(2) 0.8386(3)
H73 H 0.9667 0.7165 0.8787
C66 C 0.90215(19) 0.7336(2) 0.7922(3)
H74 H 0.8862 0.7170 0.8010
C67 C 0.87757(15) 0.75808(18) 0.7325(3)
C68 C 0.90345(17) 0.7821(2) 0.7230(3)
H75 H 0.8878 0.7995 0.6830
C69 C 0.95220(16) 0.7807(2) 0.7719(3)
H76 H 0.9691 0.7966 0.7642
C70 C 0.7491(2) 0.7424(5) 0.6374(5)
H77 H 0.7331 0.7300 0.6484
C71 C 0.7988(2) 0.7451(5) 0.6886(4)
H78 H 0.8138 0.7379 0.7330
C72 C 0.82423(17) 0.75660(18) 0.6782(3)
C73 C 0.7989(2) 0.7762(5) 0.6169(5)
H79 H 0.8145 0.7902 0.6060
C74 C 0.7499(2) 0.7761(5) 0.5692(4)
N1 N 0.97614(13) 0.75673(13) 0.8312(2)
N2 N 0.72511(13) 0.75578(12) 0.5770(2)
Zn7 Zn 0.652757(16) 0.752479(16) 0.50449(2)
H80 H 0.731317 0.794946 0.521361
Zn2_2 Zn 0.652757(16) 0.247521(16) 0.00449(2)
N3_2 N 0.72511(13) 0.24422(12) 0.0770(2)
O13_2 O 0.64412(12) 0.29068(13) 0.05569(17)
O16_2 O 0.63479(12) 0.18953(12) 0.02865(18)
C1_2 C 0.60420(18) 0.32981(16) 0.9056(2)
C2_2 C 0.60493(17) 0.37344(16) 0.8747(2)
C3_2 C 0.56535(18) 0.39770(19) 0.8228(3)
H1_2 H 0.5368 0.3883 0.8088
C4_2 C 0.5646(2) 0.4365(2) 0.7885(3)
H2_2 H 0.5363 0.4522 0.7527
C5_2 C 0.6076(2) 0.45094(19) 0.8098(3)
C6_2 C 0.6484(2) 0.4275(2) 0.8636(3)
H3_2 H 0.6769 0.4373 0.8779
C7_2 C 0.64918(18) 0.38963(19) 0.8979(3)
H4_2 H 0.6777 0.3750 0.9352
C8_2 C 0.6093 0.4910 0.7746
C9_2 C 0.5804 0.5310 0.7525
H5_2 H 0.5598 0.5334 0.7585
C10_2 C 0.5837 0.5679 0.7205
C11_2 C 0.6103 0.5626 0.7025
C12_2 C 0.6337 0.5199 0.7184
H6_2 H 0.6517 0.5153 0.7082
C13_2 C 0.6305 0.4819 0.7511
C14_2 C 0.6071(3) 0.5989(2) 0.6594(3)
C15_2 C 0.5650(2) 0.6185(3) 0.6006(4)
H7_2 H 0.5365 0.6097 0.5870
C16_2 C 0.5647(2) 0.6516(2) 0.5611(3)
H8_2 H 0.5360 0.6641 0.5215
C17_2 C 0.60534(19) 0.66540(19) 0.5795(3)
C18_2 C 0.6487(2) 0.6490(2) 0.6424(3)
H9_2 H 0.6771 0.6615 0.6587
C19_2 C 0.6498(2) 0.6150(3) 0.6800(4)
H10_2 H 0.6787 0.6024 0.7193
C20_2 C 0.60553(18) 0.69911(17) 0.5365(2)
C21_2 C 0.6847 0.4329 0.7498
H11_2 H 0.6645 0.4371 0.7013
H12_2 H 0.7112 0.4554 0.7738
C22_2 C 0.7018 0.3828 0.7698
H13_2 H 0.6760 0.3613 0.7533
H14_2 H 0.7265 0.3803 0.8190
C23_2 C 0.7219 0.3677 0.7389
H15_2 H 0.6958 0.3644 0.6900
H16_2 H 0.7427 0.3933 0.7476
C24_2 C 0.7495 0.3199 0.7683
H17_2 H 0.7362 0.3002 0.7812
H18_2 H 0.7821 0.3272 0.8095
C25_2 C 0.7500 0.2888 0.7213
H19_2 H 0.7579 0.3098 0.7019
H20_2 H 0.7749 0.2645 0.7488
C26_2 C 0.7150 0.2696 0.6782
H21_2 H 0.7181 0.2512 0.6516
H22_2 H 0.6903 0.2934 0.6499
H23_2 H 0.7072 0.2480 0.6969
C27_2 C 0.5201 0.6194 0.7089
H24_2 H 0.5322 0.6089 0.7524
H25_2 H 0.5085 0.6526 0.6989
C28 C 0.4921 0.5911 0.6629
H26 H 0.4730 0.5762 0.6693
H27_2 H 0.5092 0.5655 0.6629
C29 C 0.4576 0.6202 0.5900
H28 H 0.4502 0.6504 0.5995
H29 H 0.4790 0.6294 0.5850
C30 C 0.4193 0.6098 0.5300
H30 H 0.3935 0.6303 0.5159
H31 H 0.4108 0.5760 0.5271
C31 C 0.4300 0.6200 0.4800
H32 H 0.4024 0.6295 0.4336
H33 H 0.4573 0.6405 0.5003
C32 C 0.4394 0.5700 0.4900
H34 H 0.4481 0.5594 0.4665
H35 H 0.4115 0.5528 0.4727
H36 H 0.4650 0.5635 0.5377
C33_2 C 0.59906(17) 0.19774(16) 0.8722(2)
C34_2 C 0.59793(17) 0.16507(16) 0.8279(2)
C35_2 C 0.55464(19) 0.15506(18) 0.7620(3)
H37_2 H 0.5270 0.1703 0.7452
C36_2 C 0.5528(2) 0.1221(2) 0.7211(3)
H38_2 H 0.5237 0.1156 0.6774
C37_2 C 0.5924(3) 0.0996(2) 0.7439(4)
C38_2 C 0.6375(3) 0.1122(3) 0.8104(4)
H39_2 H 0.6655 0.0992 0.8258
C39_2 C 0.6386(2) 0.1443(2) 0.8518(3)
H40_2 H 0.6673 0.1513 0.8957
C40_2 C 0.5919(2) 0.0634(3) 0.7036(4)
C41_2 C 0.5818 0.0721 0.6473
H41_2 H 0.5741 0.1040 0.6314
C42_2 C 0.5816 0.0374 0.6085
C45_2 C 0.6234 0.0206 0.7421
C53_2 C 0.5531 0.1016 0.5212
H47_2 H 0.5234 0.1059 0.5091
H48_2 H 0.5744 0.1279 0.5513
C54_2 C 0.5460 0.1016 0.4692
H49_2 H 0.5184 0.1214 0.4341
H50_2 H 0.5402 0.0687 0.4521
C55_2 C 0.5891 0.1221 0.4882
H51_2 H 0.6054 0.0988 0.4836
H52_2 H 0.6112 0.1368 0.5330
C56_2 C 0.5599 0.1600 0.4300
H53_2 H 0.5849 0.1838 0.4496
H54_2 H 0.5418 0.1734 0.4389
C57_2 C 0.5232 0.1772 0.3469
H55_2 H 0.4898 0.1789 0.3223
H56_2 H 0.5335 0.2059 0.3394
C58_2 C 0.5394 0.1269 0.3395
H57_2 H 0.5241 0.1227 0.2932
H58_2 H 0.5306 0.1006 0.3521
H59_2 H 0.5732 0.1270 0.3687
H64_2 H 0.6550 0.0194 0.8919
C64_2 C 0.5765 0.0411 0.8999
H70_2 H 0.5779 0.0309 0.9348
H71_2 H 0.5460 0.0555 0.8631
H72_2 H 0.6010 0.0646 0.9182
C65_2 C 0.45055(18) 0.2338(2) 0.8386(3)
H73_2 H 0.4667 0.2165 0.8787
C66_2 C 0.40215(19) 0.2336(2) 0.7922(3)
H74_2 H 0.3862 0.2170 0.8010
C67_2 C 0.37757(15) 0.25808(18) 0.7325(3)
C68_2 C 0.40345(17) 0.2821(2) 0.7230(3)
H75_2 H 0.3878 0.2995 0.6830
C69_2 C 0.45220(16) 0.2807(2) 0.7719(3)
H76_2 H 0.4691 0.2966 0.7642
C70_2 C 0.2491(2) 0.2424(5) 0.6374(5)
H77_2 H 0.2331 0.2300 0.6484
C71_2 C 0.2988(2) 0.2451(5) 0.6886(4)
H78_2 H 0.3138 0.2379 0.7330
C72_2 C 0.32423(17) 0.25660(18) 0.6782(3)
C73_2 C 0.2989(2) 0.2762(5) 0.6169(5)
H79_2 H 0.3145 0.2902 0.6060
C74_2 C 0.2499(2) 0.2761(5) 0.5692(4)
N1_2 N 0.47614(13) 0.25673(13) 0.8312(2)
N2_2 N 0.22511(13) 0.25578(12) 0.5770(2)
O1_2 O 0.64242(11) 0.30817(12) 0.95135(17)
O2_2 O 0.56369(12) 0.31551(11) 0.88030(18)
O3_2 O 0.64412(12) 0.70932(13) 0.55569(17)
O4_2 O 0.56580(12) 0.71261(13) 0.48213(17)
O5_2 O 0.6568 0.4416 0.7686
O6_2 O 0.5552 0.6102 0.7008
O7_2 O 0.56082(11) 0.21564(12) 0.84999(16)
O8_2 O 0.63942(12) 0.20647(12) 0.93061(18)
O11_2 O 0.5775 0.0478 0.5596
O12_2 O 0.6381 0.0054 0.8017
Zn1_2 Zn 0.548522(16) 0.252298(16) 0.90135(2)
O14_2 O 0.56580(12) 0.28739(13) 0.98213(17)
O15_2 O 0.55563(12) 0.18787(12) 0.94580(17)
Zn4_2 Zn 0.548522(16) 0.747702(16) 0.40135(2)
H80_2 H 0.231317 0.294946 0.521361
C43_2 C 0.5937(2) 0.9921(3) 0.6319(4)
C44_2 C 0.6246 0.9804 0.7080
H42_2 H 0.6416 0.9517 0.7293
C46_2 C 0.5529(2) 0.8961(2) 0.4994(3)
H43_2 H 0.5246 0.8856 0.4573
C47_2 C 0.5529(3) 0.9365(2) 0.5311(4)
H44_2 H 0.5245 0.9529 0.5086
C48_2 C 0.5921(3) 0.9521(2) 0.5919(4)
C49_2 C 0.6348(3) 0.9272(3) 0.6242(4)
H45_2 H 0.6628 0.9377 0.6666
C50_2 C 0.6361(2) 0.8871(2) 0.5940(3)
H46_2 H 0.6645 0.8708 0.6161
C51_2 C 0.59416(19) 0.87244(18) 0.5304(3)
C52_2 C 0.59436(19) 0.82851(17) 0.4978(3)
C59_2 C 0.6554 0.9464 0.8270
H60_2 H 0.6308 0.9247 0.8147
H61_2 H 0.6727 0.9323 0.8170
C60_2 C 0.6830 0.9672 0.8895
H62_2 H 0.7036 0.9434 0.9253
H63_2 H 0.7023 0.9933 0.8953
C61_2 C 0.6506 0.9844 0.8889
H65_2 H 0.6628 0.9746 0.9327
C62_2 C 0.5871 0.9773 0.8320
H66_2 H 0.5695 0.9980 0.7922
H67_2 H 0.5770 0.9437 0.8183
C63_2 C 0.5847 0.9907 0.8700
H68_2 H 0.6142 0.9779 0.9124
H69_2 H 0.5605 0.9689 0.8585
O9_2 O 0.55563(12) 0.81213(12) 0.44580(17)
O10_2 O 0.63479(12) 0.81047(12) 0.52865(18)
C1_3 C 0.10420(18) 0.17019(16) 0.4056(2)
C2_3 C 0.10493(17) 0.12656(16) 0.3747(2)
C3_3 C 0.06535(18) 0.10230(19) 0.3228(3)
H1_3 H 0.0368 0.1117 0.3088
C4_3 C 0.0646(2) 0.0635(2) 0.2885(3)
H2_3 H 0.0363 0.0478 0.2527
C5_3 C 0.1076(2) 0.04906(19) 0.3098(3)
C6_3 C 0.1484(2) 0.0725(2) 0.3636(3)
H3_3 H 0.1769 0.0627 0.3779
C7_3 C 0.14918(18) 0.11037(19) 0.3979(3)
H4_3 H 0.1777 0.1250 0.4352
C8_3 C 0.1093 0.0090 0.2746
C13_3 C 0.1305 0.0181 0.2511
C21_3 C 0.1847 0.0671 0.2498
H11_3 H 0.1645 0.0629 0.2013
H12_3 H 0.2112 0.0446 0.2738
C22_3 C 0.2018 0.1172 0.2698
H13_3 H 0.1760 0.1387 0.2533
H14_3 H 0.2265 0.1197 0.3190
C23_3 C 0.2219 0.1323 0.2389
H15_3 H 0.1958 0.1356 0.1900
H16_3 H 0.2427 0.1067 0.2476
C24_3 C 0.2495 0.1801 0.2683
H17_3 H 0.2362 0.1998 0.2812
H18_3 H 0.2821 0.1728 0.3095
C25_3 C 0.2500 0.2112 0.2213
H19_3 H 0.2579 0.1902 0.2019
H20_3 H 0.2749 0.2355 0.2488
C26_3 C 0.2150 0.2304 0.1782
H21_3 H 0.2181 0.2488 0.1516
H22_3 H 0.1903 0.2066 0.1499
H23_3 H 0.2072 0.2520 0.1969
C33_3 C 0.09906(17) 0.30226(16) 0.3722(2)
C34_3 C 0.09793(17) 0.33493(16) 0.3279(2)
C35_3 C 0.05464(19) 0.34494(18) 0.2620(3)
H37_3 H 0.0270 0.3297 0.2452
C36_3 C 0.0528(2) 0.3779(2) 0.2211(3)
H38_3 H 0.0237 0.3844 0.1774
C37_3 C 0.0924(3) 0.4004(2) 0.2439(4)
C38_3 C 0.1375(3) 0.3878(3) 0.3104(4)
H39_3 H 0.1655 0.4008 0.3258
C39_3 C 0.1386(2) 0.3557(2) 0.3518(3)
H40_3 H 0.1673 0.3487 0.3957
C40_3 C 0.0919(2) 0.4366(3) 0.2036(4)
C41_3 C 0.0818 0.4279 0.1473
H41_3 H 0.0741 0.3960 0.1314
C42_3 C 0.0816 0.4626 0.1085
C43_3 C 0.0937(2) 0.5079(3) 0.1319(4)
C44_3 C 0.1246 0.5196 0.2080
H42_3 H 0.1416 0.5483 0.2293
C45_3 C 0.1234 0.4794 0.2421
C47_3 C 0.0529(3) 0.5635(2) 0.0311(4)
H44_3 H 0.0245 0.5471 0.0086
C48_3 C 0.0921(3) 0.5479(2) 0.0919(4)
C49_3 C 0.1348(3) 0.5728(3) 0.1242(4)
H45_3 H 0.1628 0.5623 0.1666
C50_3 C 0.1361(2) 0.6129(2) 0.0940(3)
H46_3 H 0.1645 0.6292 0.1161
C51_3 C 0.09416(19) 0.62756(18) 0.0304(3)
C53_3 C 0.0531 0.3984 0.0212
H47_3 H 0.0234 0.3941 0.0091
H48_3 H 0.0744 0.3721 0.0513
H52_3 H 0.1112 0.3632 0.0330
C59_3 C 0.1554 0.5536 0.3270
H60_3 H 0.1308 0.5753 0.3147
H61_3 H 0.1727 0.5677 0.3170
C60_3 C 0.1830 0.5328 0.3895
H62_3 H 0.2036 0.5566 0.4253
H63_3 H 0.2023 0.5067 0.3953
C61_3 C 0.1506 0.5156 0.3889
H64_3 H 0.1550 0.4806 0.3919
H65_3 H 0.1628 0.5254 0.4327
C62_3 C 0.0871 0.5227 0.3320
H66_3 H 0.0695 0.5020 0.2922
H67_3 H 0.0770 0.5563 0.3183
C63_3 C 0.0847 0.5093 0.3700
H68_3 H 0.1142 0.5221 0.4124
H69_3 H 0.0605 0.5311 0.3585
C64_3 C 0.0765 0.4589 0.3999
H70_3 H 0.0779 0.4691 0.4348
H71_3 H 0.0460 0.4445 0.3631
H72_3 H 0.1010 0.4354 0.4182
O1_3 O 0.14242(11) 0.19183(12) 0.45135(17)
O2_3 O 0.06369(12) 0.18449(11) 0.38030(18)
O5_3 O 0.1568 0.0584 0.2686
O7_3 O 0.06082(11) 0.28436(12) 0.34999(16)
O8_3 O 0.13942(12) 0.29353(12) 0.43061(18)
O11_3 O 0.0775 0.4522 0.0596
O12_3 O 0.1381 0.4946 0.3017
C46_3 C 0.0529(2) 0.6039(2) 0.9994(3)
H43_3 H 0.0246 0.6144 0.9573
C52_3 C 0.09436(19) 0.67149(17) 0.9978(3)
C54_3 C 0.0460 0.3984 0.9692
H49_3 H 0.0184 0.3786 0.9341
H50_3 H 0.0402 0.4313 0.9521
C55_3 C 0.0891 0.3779 0.9882
H51_3 H 0.1054 0.4012 0.9836
C56_3 C 0.0599 0.3400 0.9300
H53_3 H 0.0849 0.3162 0.9496
H54_3 H 0.0418 0.3266 0.9389
C57_3 C 0.0232 0.3228 0.8469
H56_3 H 0.0335 0.2941 0.8394
C58_3 C 0.0394 0.3731 0.8395
H57_3 H 0.0241 0.3773 0.7932
H58_3 H 0.0306 0.3994 0.8521
H59_3 H 0.0732 0.3730 0.8687
C9_3 C 0.0804 0.9690 0.2525
H5_3 H 0.0598 0.9666 0.2585
C10_3 C 0.0837 0.9321 0.2205
C11_3 C 0.1103 0.9374 0.2025
C12_3 C 0.1337 0.9801 0.2184
H6_3 H 0.1517 0.9847 0.2082
C14_3 C 0.1071(3) 0.9011(2) 0.1594(3)
C15_3 C 0.0650(2) 0.8815(3) 0.1006(4)
H7_3 H 0.0365 0.8903 0.0870
C16_3 C 0.0647(2) 0.8484(2) 0.0611(3)
H8_3 H 0.0360 0.8359 0.0215
C17_3 C 0.10534(19) 0.83460(19) 0.0795(3)
C18_3 C 0.1487(2) 0.8510(2) 0.1424(3)
H9_3 H 0.1771 0.8385 0.1587
C19_3 C 0.1498(2) 0.8850(3) 0.1800(4)
H10_3 H 0.1787 0.8976 0.2193
C20_3 C 0.10553(18) 0.80089(17) 0.0365(2)
C27_3 C 0.0201 0.8806 0.2089
H24_3 H 0.0322 0.8911 0.2524
H25_3 H 0.0085 0.8474 0.1989
H27_3 H 0.0092 0.9345 0.1629
O6_3 O 0.0552 0.8898 0.2008
C65_3 C 0.95055(18) 0.2662(2) 0.3386(3)
H73_3 H 0.9667 0.2835 0.3787
C66_3 C 0.90215(19) 0.2664(2) 0.2922(3)
H74_3 H 0.8862 0.2830 0.3010
C67_3 C 0.87757(15) 0.24192(18) 0.2325(3)
C68_3 C 0.90345(17) 0.2179(2) 0.2230(3)
H75_3 H 0.8878 0.2005 0.1830
C69_3 C 0.95220(16) 0.2193(2) 0.2719(3)
H76_3 H 0.9691 0.2034 0.2642
C70_3 C 0.7491(2) 0.2576(5) 0.1374(5)
H77_3 H 0.7331 0.2700 0.1484
C71_3 C 0.7988(2) 0.2549(5) 0.1886(4)
H78_3 H 0.8138 0.2621 0.2330
C72_3 C 0.82423(17) 0.24340(18) 0.1782(3)
C73_3 C 0.7989(2) 0.2238(5) 0.1169(5)
H79_3 H 0.8145 0.2098 0.1060
C74_3 C 0.7499(2) 0.2239(5) 0.0692(4)
N1_3 N 0.97614(13) 0.24327(13) 0.3312(2)
H80_3 H 0.731317 0.205054 0.0213608
C43_4 C 0.5937(2) 0.0079(3) 0.1319(4)
C44_4 C 0.6246 0.0196 0.2080
H42_4 H 0.6416 0.0483 0.2293
C47_4 C 0.5529(3) 0.0635(2) 0.0311(4)
H44_4 H 0.5245 0.0471 0.0086
C48_4 C 0.5921(3) 0.0479(2) 0.0919(4)
C49_4 C 0.6348(3) 0.0728(3) 0.1242(4)
H45_4 H 0.6628 0.0623 0.1666
C50_4 C 0.6361(2) 0.1129(2) 0.0940(3)
H46_4 H 0.6645 0.1292 0.1161
C51_4 C 0.59416(19) 0.12756(18) 0.0304(3)
C59_4 C 0.6554 0.0536 0.3270
H60_4 H 0.6308 0.0753 0.3147
H61_4 H 0.6727 0.0677 0.3170
C60_4 C 0.6830 0.0328 0.3895
H62_4 H 0.7036 0.0566 0.4253
H63_4 H 0.7023 0.0067 0.3953
C61_4 C 0.6506 0.0156 0.3889
H65_4 H 0.6628 0.0254 0.4327
C62_4 C 0.5871 0.0227 0.3320
H66_4 H 0.5695 0.0020 0.2922
H67_4 H 0.5770 0.0563 0.3183
C63_4 C 0.5847 0.0093 0.3700
H68_4 H 0.6142 0.0221 0.4124
H69_4 H 0.5605 0.0311 0.3585
C46_4 C 0.5529(2) 0.1039(2) 0.9994(3)
H43_4 H 0.5246 0.1144 0.9573
C52_4 C 0.59436(19) 0.17149(17) 0.9978(3)
C1_4 C 0.60420(18) 0.67019(16) 0.4056(2)
C2_4 C 0.60493(17) 0.62656(16) 0.3747(2)
C3_4 C 0.56535(18) 0.60230(19) 0.3228(3)
H1_4 H 0.5368 0.6117 0.3088
C4_4 C 0.5646(2) 0.5635(2) 0.2885(3)
H2_4 H 0.5363 0.5478 0.2527
C5_4 C 0.6076(2) 0.54906(19) 0.3098(3)
C6_4 C 0.6484(2) 0.5725(2) 0.3636(3)
H3_4 H 0.6769 0.5627 0.3779
C7_4 C 0.64918(18) 0.61037(19) 0.3979(3)
H4_4 H 0.6777 0.6250 0.4352
C8_4 C 0.6093 0.5090 0.2746
C9_4 C 0.5804 0.4690 0.2525
H5_4 H 0.5598 0.4666 0.2585
C10_4 C 0.5837 0.4321 0.2205
C11_4 C 0.6103 0.4374 0.2025
C12_4 C 0.6337 0.4801 0.2184
H6_4 H 0.6517 0.4847 0.2082
C13_4 C 0.6305 0.5181 0.2511
C14_4 C 0.6071(3) 0.4011(2) 0.1594(3)
C15_4 C 0.5650(2) 0.3815(3) 0.1006(4)
H7_4 H 0.5365 0.3903 0.0870
C16_4 C 0.5647(2) 0.3484(2) 0.0611(3)
H8_4 H 0.5360 0.3359 0.0215
C17_4 C 0.60534(19) 0.33460(19) 0.0795(3)
C18_4 C 0.6487(2) 0.3510(2) 0.1424(3)
H9_4 H 0.6771 0.3385 0.1587
C19_4 C 0.6498(2) 0.3850(3) 0.1800(4)
H10_4 H 0.6787 0.3976 0.2193
C20_4 C 0.60553(18) 0.30089(17) 0.0365(2)
C21_4 C 0.6847 0.5671 0.2498
H11_4 H 0.6645 0.5629 0.2013
H12_4 H 0.7112 0.5446 0.2738
C22_4 C 0.7018 0.6172 0.2698
H13_4 H 0.6760 0.6387 0.2533
H14_4 H 0.7265 0.6197 0.3190
C23_4 C 0.7219 0.6323 0.2389
H15_4 H 0.6958 0.6356 0.1900
H16_4 H 0.7427 0.6067 0.2476
C24_4 C 0.7495 0.6801 0.2683
H17_4 H 0.7362 0.6998 0.2812
H18_4 H 0.7821 0.6728 0.3095
C25_4 C 0.7500 0.7112 0.2213
H19_4 H 0.7579 0.6902 0.2019
H20_4 H 0.7749 0.7355 0.2488
C26_4 C 0.7150 0.7304 0.1782
H21_4 H 0.7181 0.7488 0.1516
H22_4 H 0.6903 0.7066 0.1499
H23_4 H 0.7072 0.7520 0.1969
C27_4 C 0.5201 0.3806 0.2089
H24_4 H 0.5322 0.3911 0.2524
H25_4 H 0.5085 0.3474 0.1989
C28_2 C 0.4921 0.4089 0.1629
H26_2 H 0.4730 0.4238 0.1693
H27_4 H 0.5092 0.4345 0.1629
C29_2 C 0.4576 0.3798 0.0900
H28_2 H 0.4502 0.3496 0.0995
H29_2 H 0.4790 0.3706 0.0850
C30_2 C 0.4193 0.3902 0.0300
H30_2 H 0.3935 0.3697 0.0159
H31_2 H 0.4108 0.4240 0.0271
H33_2 H 0.4573 0.3595 0.0003
H36_2 H 0.4650 0.4365 0.0377
C33_4 C 0.59906(17) 0.80226(16) 0.3722(2)
C34_4 C 0.59793(17) 0.83493(16) 0.3279(2)
C35_4 C 0.55464(19) 0.84494(18) 0.2620(3)
H37_4 H 0.5270 0.8297 0.2452
C36_4 C 0.5528(2) 0.8779(2) 0.2211(3)
H38_4 H 0.5237 0.8844 0.1774
C37_4 C 0.5924(3) 0.9004(2) 0.2439(4)
C38_4 C 0.6375(3) 0.8878(3) 0.3104(4)
H39_4 H 0.6655 0.9008 0.3258
C39_4 C 0.6386(2) 0.8557(2) 0.3518(3)
H40_4 H 0.6673 0.8487 0.3957
C40_4 C 0.5919(2) 0.9366(3) 0.2036(4)
C41_4 C 0.5818 0.9279 0.1473
H41_4 H 0.5741 0.8960 0.1314
C42_4 C 0.5816 0.9626 0.1085
C45_4 C 0.6234 0.9794 0.2421
C53_4 C 0.5531 0.8984 0.0212
H47_4 H 0.5234 0.8941 0.0091
H48_4 H 0.5744 0.8721 0.0513
H52_4 H 0.6112 0.8632 0.0330
H64_4 H 0.6550 0.9806 0.3919
C64_4 C 0.5765 0.9589 0.3999
H70_4 H 0.5779 0.9691 0.4348
H71_4 H 0.5460 0.9445 0.3631
H72_4 H 0.6010 0.9354 0.4182
C65_4 C 0.45055(18) 0.7662(2) 0.3386(3)
H73_4 H 0.4667 0.7835 0.3787
C66_4 C 0.40215(19) 0.7664(2) 0.2922(3)
H74_4 H 0.3862 0.7830 0.3010
C67_4 C 0.37757(15) 0.74192(18) 0.2325(3)
C68_4 C 0.40345(17) 0.7179(2) 0.2230(3)
H75_4 H 0.3878 0.7005 0.1830
C69_4 C 0.45220(16) 0.7193(2) 0.2719(3)
H76_4 H 0.4691 0.7034 0.2642
C70_4 C 0.2491(2) 0.7576(5) 0.1374(5)
H77_4 H 0.2331 0.7700 0.1484
C71_4 C 0.2988(2) 0.7549(5) 0.1886(4)
H78_4 H 0.3138 0.7621 0.2330
C72_4 C 0.32423(17) 0.74340(18) 0.1782(3)
C73_4 C 0.2989(2) 0.7238(5) 0.1169(5)
H79_4 H 0.3145 0.7098 0.1060
C74_4 C 0.2499(2) 0.7239(5) 0.0692(4)
N1_4 N 0.47614(13) 0.74327(13) 0.3312(2)
O1_4 O 0.64242(11) 0.69183(12) 0.45135(17)
O2_4 O 0.56369(12) 0.68449(11) 0.38030(18)
O5_4 O 0.6568 0.5584 0.2686
O6_4 O 0.5552 0.3898 0.2008
O7_4 O 0.56082(11) 0.78436(12) 0.34999(16)
O8_4 O 0.63942(12) 0.79353(12) 0.43061(18)
O11_4 O 0.5775 0.9522 0.0596
O12_4 O 0.6381 0.9946 0.3017
H80_4 H 0.231317 0.705054 0.0213608
C31_2 C 0.4300 0.3800 0.9800
H32_2 H 0.4024 0.3705 0.9336
C32_2 C 0.4394 0.4300 0.9900
H34_2 H 0.4481 0.4406 0.9665
H35_2 H 0.4115 0.4472 0.9727
C54_4 C 0.5460 0.8984 0.9692
H49_4 H 0.5184 0.8786 0.9341
H50_4 H 0.5402 0.9313 0.9521
C55_4 C 0.5891 0.8779 0.9882
H51_4 H 0.6054 0.9012 0.9836
C56_4 C 0.5599 0.8400 0.9300
H53_4 H 0.5849 0.8162 0.9496
H54_4 H 0.5418 0.8266 0.9389
C57_4 C 0.5232 0.8228 0.8469
H55_3 H 0.4898 0.8211 0.8223
H56_4 H 0.5335 0.7941 0.8394
C58_4 C 0.5394 0.8731 0.8395
H57_4 H 0.5241 0.8773 0.7932
H58_4 H 0.5306 0.8994 0.8521
H59_4 H 0.5732 0.8730 0.8687
C28_3 C 0.9921 0.0911 0.6629
H26_3 H 0.9730 0.0762 0.6693
C29_3 C 0.9576 0.1202 0.5900
H28_3 H 0.9502 0.1504 0.5995
H29_3 H 0.9790 0.1294 0.5850
C30_3 C 0.9193 0.1098 0.5300
H30_3 H 0.8935 0.1303 0.5159
H31_3 H 0.9108 0.0760 0.5271
C31_3 C 0.9300 0.1200 0.4800
H32_3 H 0.9024 0.1295 0.4336
H33_3 H 0.9573 0.1405 0.5003
C32_3 C 0.9394 0.0700 0.4900
H34_3 H 0.9481 0.0594 0.4665
H35_3 H 0.9115 0.0528 0.4727
H36_3 H 0.9650 0.0635 0.5377
C31_4 C 0.0700 0.1200 0.0200
H32_4 H 0.0976 0.1295 0.0664
C32_4 C 0.0606 0.0700 0.0100
H34_4 H 0.0519 0.0594 0.0335
H35_4 H 0.0885 0.0528 0.0273
C28_4 C 0.0079 0.0911 0.8371
H26_4 H 0.0270 0.0762 0.8307
C29_4 C 0.0424 0.1202 0.9100
H28_4 H 0.0498 0.1504 0.9005
H29_4 H 0.0210 0.1294 0.9150
C30_4 C 0.0807 0.1098 0.9700
H30_4 H 0.1065 0.1303 0.9841
H31_4 H 0.0892 0.0760 0.9729
H33_4 H 0.0427 0.1405 0.9997
H36_4 H 0.0350 0.0635 0.9623
H55_4 H 0.0102 0.6789 0.1777
C65_5 C 0.04945(18) 0.7338(2) 0.6614(3)
H73_5 H 0.0333 0.7165 0.6213
C66_5 C 0.09785(19) 0.7336(2) 0.7078(3)
H74_5 H 0.1138 0.7170 0.6990
C67_5 C 0.12243(15) 0.75808(18) 0.7675(3)
C68_5 C 0.09655(17) 0.7821(2) 0.7770(3)
H75_5 H 0.1122 0.7995 0.8170
C69_5 C 0.04780(16) 0.7807(2) 0.7281(3)
H76_5 H 0.0309 0.7966 0.7358
C70_5 C 0.2509(2) 0.7424(5) 0.8626(5)
H77_5 H 0.2669 0.7300 0.8516
C71_5 C 0.2012(2) 0.7451(5) 0.8114(4)
H78_5 H 0.1862 0.7379 0.7670
C72_5 C 0.17577(17) 0.75660(18) 0.8218(3)
C73_5 C 0.2011(2) 0.7762(5) 0.8831(5)
H79_5 H 0.1855 0.7902 0.8940
C74_5 C 0.2501(2) 0.7761(5) 0.9308(4)
N1_5 N 0.02386(13) 0.75673(13) 0.6688(2)
N2_3 N 0.27489(13) 0.75578(12) 0.9230(2)
Zn7_2 Zn 0.347243(16) 0.752479(16) 0.99551(2)
H80_5 H 0.268683 0.794946 0.978639
O4_3 O 0.93420(12) 0.21261(13) 0.01787(17)
Zn4_3 Zn 0.951478(16) 0.247702(16) 0.09865(2)
C9_5 C 0.9196 0.0310 0.7475
H5_5 H 0.9402 0.0334 0.7415
C10_5 C 0.9163 0.0679 0.7795
C11_5 C 0.8897 0.0626 0.7975
C12_5 C 0.8663 0.0199 0.7816
H6_5 H 0.8483 0.0153 0.7918
C14_5 C 0.8929(3) 0.0989(2) 0.8406(3)
C15_5 C 0.9350(2) 0.1185(3) 0.8994(4)
H7_5 H 0.9635 0.1097 0.9130
C16_5 C 0.9353(2) 0.1516(2) 0.9389(3)
H8_5 H 0.9640 0.1641 0.9785
C17_5 C 0.89466(19) 0.16540(19) 0.9205(3)
C18_5 C 0.8513(2) 0.1490(2) 0.8576(3)
H9_5 H 0.8229 0.1615 0.8413
C19_5 C 0.8502(2) 0.1150(3) 0.8200(4)
H10_5 H 0.8213 0.1024 0.7807
C20_5 C 0.89447(18) 0.19911(17) 0.9635(2)
C27_5 C 0.9799 0.1194 0.7911
H24_5 H 0.9678 0.1089 0.7476
H25_5 H 0.9915 0.1526 0.8011
H27_5 H 0.9908 0.0655 0.8371
O3_3 O 0.85588(12) 0.20932(13) 0.94431(17)
O6_5 O 0.9448 0.1102 0.7992
Zn6_2 Zn 0.847243(16) 0.252479(16) 0.99551(2)
C46_5 C 0.9471(2) 0.3961(2) 0.0006(3)
H43_5 H 0.9754 0.3856 0.0427
C52_5 C 0.90564(19) 0.32851(17) 0.0022(3)
C54_5 C 0.9540 0.6016 0.0308
H49_5 H 0.9816 0.6214 0.0659
H50_5 H 0.9598 0.5687 0.0479
C55_5 C 0.9109 0.6221 0.0118
H51_5 H 0.8946 0.5988 0.0164
C56_5 C 0.9401 0.6600 0.0700
H53_5 H 0.9151 0.6838 0.0504
H54_5 H 0.9582 0.6734 0.0611
C57_5 C 0.9768 0.6772 0.1531
H56_5 H 0.9665 0.7059 0.1606
C58_5 C 0.9606 0.6269 0.1605
H57_5 H 0.9759 0.6227 0.2068
H58_5 H 0.9694 0.6006 0.1479
H59_5 H 0.9268 0.6270 0.1313
O9_3 O 0.94437(12) 0.31213(12) 0.05420(17)
C1_5 C 0.89580(18) 0.82981(16) 0.5944(2)
C2_5 C 0.89507(17) 0.87344(16) 0.6253(2)
C3_5 C 0.93465(18) 0.89770(19) 0.6772(3)
H1_5 H 0.9632 0.8883 0.6912
C4_5 C 0.9354(2) 0.9365(2) 0.7115(3)
H2_5 H 0.9637 0.9522 0.7473
C5_5 C 0.8924(2) 0.95094(19) 0.6902(3)
C6_5 C 0.8516(2) 0.9275(2) 0.6364(3)
H3_5 H 0.8231 0.9373 0.6221
C7_5 C 0.85082(18) 0.88963(19) 0.6021(3)
H4_5 H 0.8223 0.8750 0.5648
C8_5 C 0.8907 0.9910 0.7254
C13_5 C 0.8695 0.9819 0.7489
C21_5 C 0.8153 0.9329 0.7502
H11_5 H 0.8355 0.9371 0.7987
H12_5 H 0.7888 0.9554 0.7262
C22_5 C 0.7982 0.8828 0.7302
H13_5 H 0.8240 0.8613 0.7467
H14_5 H 0.7735 0.8803 0.6810
C23_5 C 0.7781 0.8677 0.7611
H15_5 H 0.8042 0.8644 0.8100
H16_5 H 0.7573 0.8933 0.7524
C24_5 C 0.7505 0.8199 0.7317
H17_5 H 0.7638 0.8002 0.7188
H18_5 H 0.7179 0.8272 0.6905
C25_5 C 0.7500 0.7888 0.7787
H19_5 H 0.7421 0.8098 0.7981
H20_5 H 0.7251 0.7645 0.7512
C26_5 C 0.7850 0.7696 0.8218
H21_5 H 0.7819 0.7512 0.8484
H22_5 H 0.8097 0.7934 0.8501
H23_5 H 0.7928 0.7480 0.8031
C33_5 C 0.90094(17) 0.69774(16) 0.6278(2)
C34_5 C 0.90207(17) 0.66507(16) 0.6721(2)
C35_5 C 0.94536(19) 0.65506(18) 0.7380(3)
H37_5 H 0.9730 0.6703 0.7548
C36_5 C 0.9472(2) 0.6221(2) 0.7789(3)
H38_5 H 0.9763 0.6156 0.8226
C37_5 C 0.9076(3) 0.5996(2) 0.7561(4)
C38_5 C 0.8625(3) 0.6122(3) 0.6896(4)
H39_5 H 0.8345 0.5992 0.6742
C39_5 C 0.8614(2) 0.6443(2) 0.6482(3)
H40_5 H 0.8327 0.6513 0.6043
C40_5 C 0.9081(2) 0.5634(3) 0.7964(4)
C41_5 C 0.9182 0.5721 0.8527
H41_5 H 0.9259 0.6040 0.8686
C42_5 C 0.9184 0.5374 0.8915
C43_5 C 0.9063(2) 0.4921(3) 0.8681(4)
C44_5 C 0.8754 0.4804 0.7920
H42_5 H 0.8584 0.4517 0.7707
C45_5 C 0.8766 0.5206 0.7579
C47_5 C 0.9471(3) 0.4365(2) 0.9689(4)
H44_5 H 0.9755 0.4529 0.9914
C48_5 C 0.9079(3) 0.4521(2) 0.9081(4)
C49_5 C 0.8652(3) 0.4272(3) 0.8758(4)
H45_5 H 0.8372 0.4377 0.8334
C50_5 C 0.8639(2) 0.3871(2) 0.9060(3)
H46_5 H 0.8355 0.3708 0.8839
C51_5 C 0.90584(19) 0.37244(18) 0.9696(3)
C53_5 C 0.9469 0.6016 0.9788
H47_5 H 0.9766 0.6059 0.9909
H48_5 H 0.9256 0.6279 0.9487
H52_5 H 0.8888 0.6368 0.9670
C59_5 C 0.8446 0.4464 0.6730
H60_5 H 0.8692 0.4247 0.6853
H61_5 H 0.8273 0.4323 0.6830
C60_5 C 0.8170 0.4672 0.6105
H62_5 H 0.7964 0.4434 0.5747
H63_5 H 0.7977 0.4933 0.6047
C61_5 C 0.8494 0.4844 0.6111
H64_5 H 0.8450 0.5194 0.6081
H65_5 H 0.8372 0.4746 0.5673
C62_5 C 0.9129 0.4773 0.6680
H66_5 H 0.9305 0.4980 0.7078
H67_5 H 0.9230 0.4437 0.6817
C63_5 C 0.9153 0.4907 0.6300
H68_5 H 0.8858 0.4779 0.5876
H69_5 H 0.9395 0.4689 0.6415
C64_5 C 0.9235 0.5411 0.6001
H70_5 H 0.9221 0.5309 0.5652
H71_5 H 0.9540 0.5555 0.6369
H72_5 H 0.8990 0.5646 0.5818
O1_5 O 0.85758(11) 0.80817(12) 0.54865(17)
O2_5 O 0.93631(12) 0.81551(11) 0.61970(18)
O5_5 O 0.8432 0.9416 0.7314
O7_5 O 0.93918(11) 0.71564(12) 0.65001(16)
O8_5 O 0.86058(12) 0.70647(12) 0.56939(18)
O10_3 O 0.86521(12) 0.31047(12) 0.97135(18)
O11_5 O 0.9225 0.5478 0.9404
O12_5 O 0.8619 0.5054 0.6983
Zn1_3 Zn 0.951478(16) 0.752298(16) 0.59865(2)
Zn2_3 Zn 0.847243(16) 0.747521(16) 0.49551(2)
N3_3 N 0.77489(13) 0.74422(12) 0.4230(2)
O13_3 O 0.85588(12) 0.79068(13) 0.44431(17)
O14_3 O 0.93420(12) 0.78739(13) 0.51787(17)
O15_3 O 0.94437(12) 0.68787(12) 0.55420(17)
O16_3 O 0.86521(12) 0.68953(12) 0.47135(18)
C31_5 C 0.5700 0.6200 0.0200
H32_5 H 0.5976 0.6295 0.0664
C32_5 C 0.5606 0.5700 0.0100
H34_5 H 0.5519 0.5594 0.0335
H35_5 H 0.5885 0.5528 0.0273
C54_6 C 0.4540 0.1016 0.0308
H49_6 H 0.4816 0.1214 0.0659
H50_6 H 0.4598 0.0687 0.0479
C55_6 C 0.4109 0.1221 0.0118
H51_6 H 0.3946 0.0988 0.0164
C56_6 C 0.4401 0.1600 0.0700
H53_6 H 0.4151 0.1838 0.0504
H54_6 H 0.4582 0.1734 0.0611
C57_6 C 0.4768 0.1772 0.1531
H55_5 H 0.5102 0.1789 0.1777
H56_6 H 0.4665 0.2059 0.1606
C58_6 C 0.4606 0.1269 0.1605
H57_6 H 0.4759 0.1227 0.2068
H58_6 H 0.4694 0.1006 0.1479
H59_6 H 0.4268 0.1270 0.1313
O4_4 O 0.43420(12) 0.71261(13) 0.01787(17)
Zn4_4 Zn 0.451478(16) 0.747702(16) 0.09865(2)
C1_6 C 0.39580(18) 0.32981(16) 0.5944(2)
C2_6 C 0.39507(17) 0.37344(16) 0.6253(2)
C3_6 C 0.43465(18) 0.39770(19) 0.6772(3)
H1_6 H 0.4632 0.3883 0.6912
C4_6 C 0.4354(2) 0.4365(2) 0.7115(3)
H2_6 H 0.4637 0.4522 0.7473
C5_6 C 0.3924(2) 0.45094(19) 0.6902(3)
C6_6 C 0.3516(2) 0.4275(2) 0.6364(3)
H3_6 H 0.3231 0.4373 0.6221
C7_6 C 0.35082(18) 0.38963(19) 0.6021(3)
H4_6 H 0.3223 0.3750 0.5648
C8_6 C 0.3907 0.4910 0.7254
C9_6 C 0.4196 0.5310 0.7475
H5_6 H 0.4402 0.5334 0.7415
C10_6 C 0.4163 0.5679 0.7795
C11_6 C 0.3897 0.5626 0.7975
C12_6 C 0.3663 0.5199 0.7816
H6_6 H 0.3483 0.5153 0.7918
C13_6 C 0.3695 0.4819 0.7489
C14_6 C 0.3929(3) 0.5989(2) 0.8406(3)
C15_6 C 0.4350(2) 0.6185(3) 0.8994(4)
H7_6 H 0.4635 0.6097 0.9130
C16_6 C 0.4353(2) 0.6516(2) 0.9389(3)
H8_6 H 0.4640 0.6641 0.9785
C17_6 C 0.39466(19) 0.66540(19) 0.9205(3)
C18_6 C 0.3513(2) 0.6490(2) 0.8576(3)
H9_6 H 0.3229 0.6615 0.8413
C19_6 C 0.3502(2) 0.6150(3) 0.8200(4)
H10_6 H 0.3213 0.6024 0.7807
C20_6 C 0.39447(18) 0.69911(17) 0.9635(2)
C21_6 C 0.3153 0.4329 0.7502
H11_6 H 0.3355 0.4371 0.7987
H12_6 H 0.2888 0.4554 0.7262
C22_6 C 0.2982 0.3828 0.7302
H13_6 H 0.3240 0.3613 0.7467
H14_6 H 0.2735 0.3803 0.6810
C23_6 C 0.2781 0.3677 0.7611
H15_6 H 0.3042 0.3644 0.8100
H16_6 H 0.2573 0.3933 0.7524
C24_6 C 0.2505 0.3199 0.7317
H17_6 H 0.2638 0.3002 0.7188
H18_6 H 0.2179 0.3272 0.6905
C25_6 C 0.2500 0.2888 0.7787
H19_6 H 0.2421 0.3098 0.7981
H20_6 H 0.2251 0.2645 0.7512
C26_6 C 0.2850 0.2696 0.8218
H21_6 H 0.2819 0.2512 0.8484
H22_6 H 0.3097 0.2934 0.8501
H23_6 H 0.2928 0.2480 0.8031
C27_6 C 0.4799 0.6194 0.7911
H24_6 H 0.4678 0.6089 0.7476
H25_6 H 0.4915 0.6526 0.8011
C28_5 C 0.5079 0.5911 0.8371
H26_5 H 0.5270 0.5762 0.8307
H27_6 H 0.4908 0.5655 0.8371
C29_5 C 0.5424 0.6202 0.9100
H28_5 H 0.5498 0.6504 0.9005
H29_5 H 0.5210 0.6294 0.9150
C30_5 C 0.5807 0.6098 0.9700
H30_5 H 0.6065 0.6303 0.9841
H31_5 H 0.5892 0.5760 0.9729
H33_5 H 0.5427 0.6405 0.9997
H36_5 H 0.5350 0.5635 0.9623
C33_6 C 0.40094(17) 0.19774(16) 0.6278(2)
C34_6 C 0.40207(17) 0.16507(16) 0.6721(2)
C35_6 C 0.44536(19) 0.15506(18) 0.7380(3)
H37_6 H 0.4730 0.1703 0.7548
C36_6 C 0.4472(2) 0.1221(2) 0.7789(3)
H38_6 H 0.4763 0.1156 0.8226
C37_6 C 0.4076(3) 0.0996(2) 0.7561(4)
C38_6 C 0.3625(3) 0.1122(3) 0.6896(4)
H39_6 H 0.3345 0.0992 0.6742
C39_6 C 0.3614(2) 0.1443(2) 0.6482(3)
H40_6 H 0.3327 0.1513 0.6043
C40_6 C 0.4081(2) 0.0634(3) 0.7964(4)
C41_6 C 0.4182 0.0721 0.8527
H41_6 H 0.4259 0.1040 0.8686
C42_6 C 0.4184 0.0374 0.8915
C45_6 C 0.3766 0.0206 0.7579
C53_6 C 0.4469 0.1016 0.9788
H47_6 H 0.4766 0.1059 0.9909
H48_6 H 0.4256 0.1279 0.9487
H52_6 H 0.3888 0.1368 0.9670
H64_6 H 0.3450 0.0194 0.6081
C64_6 C 0.4235 0.0411 0.6001
H70_6 H 0.4221 0.0309 0.5652
H71_6 H 0.4540 0.0555 0.6369
H72_6 H 0.3990 0.0646 0.5818
C65_6 C 0.54945(18) 0.2338(2) 0.6614(3)
H73_6 H 0.5333 0.2165 0.6213
C66_6 C 0.59785(19) 0.2336(2) 0.7078(3)
H74_6 H 0.6138 0.2170 0.6990
C67_6 C 0.62243(15) 0.25808(18) 0.7675(3)
C68_6 C 0.59655(17) 0.2821(2) 0.7770(3)
H75_6 H 0.6122 0.2995 0.8170
C69_6 C 0.54780(16) 0.2807(2) 0.7281(3)
H76_6 H 0.5309 0.2966 0.7358
C70_6 C 0.7509(2) 0.2424(5) 0.8626(5)
H77_6 H 0.7669 0.2300 0.8516
C71_6 C 0.7012(2) 0.2451(5) 0.8114(4)
H78_6 H 0.6862 0.2379 0.7670
C72_6 C 0.67577(17) 0.25660(18) 0.8218(3)
C73_6 C 0.7011(2) 0.2762(5) 0.8831(5)
H79_6 H 0.6855 0.2902 0.8940
C74_6 C 0.7501(2) 0.2761(5) 0.9308(4)
N1_6 N 0.52386(13) 0.25673(13) 0.6688(2)
N2_4 N 0.77489(13) 0.25578(12) 0.9230(2)
O1_6 O 0.35758(11) 0.30817(12) 0.54865(17)
O2_6 O 0.43631(12) 0.31551(11) 0.61970(18)
O3_4 O 0.35588(12) 0.70932(13) 0.94431(17)
O5_6 O 0.3432 0.4416 0.7314
O6_6 O 0.4448 0.6102 0.7992
O7_6 O 0.43918(11) 0.21564(12) 0.65001(16)
O8_6 O 0.36058(12) 0.20647(12) 0.56939(18)
O11_6 O 0.4225 0.0478 0.9404
O12_6 O 0.3619 0.0054 0.6983
Zn1_4 Zn 0.451478(16) 0.252298(16) 0.59865(2)
Zn2_4 Zn 0.347243(16) 0.247521(16) 0.49551(2)
N3_4 N 0.27489(13) 0.24422(12) 0.4230(2)
O13_4 O 0.35588(12) 0.29068(13) 0.44431(17)
O14_4 O 0.43420(12) 0.28739(13) 0.51787(17)
O15_4 O 0.44437(12) 0.18787(12) 0.55420(17)
O16_4 O 0.36521(12) 0.18953(12) 0.47135(18)
H80_6 H 0.768683 0.294946 0.978639
C46_6 C 0.4471(2) 0.8961(2) 0.0006(3)
H43_6 H 0.4754 0.8856 0.0427
C52_6 C 0.40564(19) 0.82851(17) 0.0022(3)
O9_4 O 0.44437(12) 0.81213(12) 0.05420(17)
C43_6 C 0.4063(2) 0.9921(3) 0.8681(4)
C44_6 C 0.3754 0.9804 0.7920
H42_6 H 0.3584 0.9517 0.7707
C47_6 C 0.4471(3) 0.9365(2) 0.9689(4)
H44_6 H 0.4755 0.9529 0.9914
C48_6 C 0.4079(3) 0.9521(2) 0.9081(4)
C49_6 C 0.3652(3) 0.9272(3) 0.8758(4)
H45_6 H 0.3372 0.9377 0.8334
C50_6 C 0.3639(2) 0.8871(2) 0.9060(3)
H46_6 H 0.3355 0.8708 0.8839
C51_6 C 0.40584(19) 0.87244(18) 0.9696(3)
C59_6 C 0.3446 0.9464 0.6730
H60_6 H 0.3692 0.9247 0.6853
H61_6 H 0.3273 0.9323 0.6830
C60_6 C 0.3170 0.9672 0.6105
H62_6 H 0.2964 0.9434 0.5747
H63_6 H 0.2977 0.9933 0.6047
C61_6 C 0.3494 0.9844 0.6111
H65_6 H 0.3372 0.9746 0.5673
C62_6 C 0.4129 0.9773 0.6680
H66_6 H 0.4305 0.9980 0.7078
H67_6 H 0.4230 0.9437 0.6817
C63_6 C 0.4153 0.9907 0.6300
H68_6 H 0.3858 0.9779 0.5876
H69_6 H 0.4395 0.9689 0.6415
O10_4 O 0.36521(12) 0.81047(12) 0.97135(18)
H55_6 H 0.0102 0.3211 0.6777
C65_7 C 0.04945(18) 0.2662(2) 0.1614(3)
H73_7 H 0.0333 0.2835 0.1213
C66_7 C 0.09785(19) 0.2664(2) 0.2078(3)
H74_7 H 0.1138 0.2830 0.1990
C67_7 C 0.12243(15) 0.24192(18) 0.2675(3)
C68_7 C 0.09655(17) 0.2179(2) 0.2770(3)
H75_7 H 0.1122 0.2005 0.3170
C69_7 C 0.04780(16) 0.2193(2) 0.2281(3)
H76_7 H 0.0309 0.2034 0.2358
C70_7 C 0.2509(2) 0.2576(5) 0.3626(5)
H77_7 H 0.2669 0.2700 0.3516
C71_7 C 0.2012(2) 0.2549(5) 0.3114(4)
H78_7 H 0.1862 0.2621 0.2670
C72_7 C 0.17577(17) 0.24340(18) 0.3218(3)
C73_7 C 0.2011(2) 0.2238(5) 0.3831(5)
H79_7 H 0.1855 0.2098 0.3940
C74_7 C 0.2501(2) 0.2239(5) 0.4308(4)
N1_7 N 0.02386(13) 0.24327(13) 0.1688(2)
H80_7 H 0.268683 0.205054 0.478639
C1_7 C 0.89580(18) 0.17019(16) 0.0944(2)
C2_7 C 0.89507(17) 0.12656(16) 0.1253(2)
C3_7 C 0.93465(18) 0.10230(19) 0.1772(3)
H1_7 H 0.9632 0.1117 0.1912
C4_7 C 0.9354(2) 0.0635(2) 0.2115(3)
H2_7 H 0.9637 0.0478 0.2473
C5_7 C 0.8924(2) 0.04906(19) 0.1902(3)
C6_7 C 0.8516(2) 0.0725(2) 0.1364(3)
H3_7 H 0.8231 0.0627 0.1221
C7_7 C 0.85082(18) 0.11037(19) 0.1021(3)
H4_7 H 0.8223 0.1250 0.0648
C8_7 C 0.8907 0.0090 0.2254
C13_7 C 0.8695 0.0181 0.2489
C21_7 C 0.8153 0.0671 0.2502
H11_7 H 0.8355 0.0629 0.2987
H12_7 H 0.7888 0.0446 0.2262
C22_7 C 0.7982 0.1172 0.2302
H13_7 H 0.8240 0.1387 0.2467
H14_7 H 0.7735 0.1197 0.1810
C23_7 C 0.7781 0.1323 0.2611
H15_7 H 0.8042 0.1356 0.3100
H16_7 H 0.7573 0.1067 0.2524
C24_7 C 0.7505 0.1801 0.2317
H17_7 H 0.7638 0.1998 0.2188
H18_7 H 0.7179 0.1728 0.1905
C25_7 C 0.7500 0.2112 0.2787
H19_7 H 0.7421 0.1902 0.2981
H20_7 H 0.7251 0.2355 0.2512
C26_7 C 0.7850 0.2304 0.3218
H21_7 H 0.7819 0.2488 0.3484
H22_7 H 0.8097 0.2066 0.3501
H23_7 H 0.7928 0.2520 0.3031
C33_7 C 0.90094(17) 0.30226(16) 0.1278(2)
C34_7 C 0.90207(17) 0.33493(16) 0.1721(2)
C35_7 C 0.94536(19) 0.34494(18) 0.2380(3)
H37_7 H 0.9730 0.3297 0.2548
C36_7 C 0.9472(2) 0.3779(2) 0.2789(3)
H38_7 H 0.9763 0.3844 0.3226
C37_7 C 0.9076(3) 0.4004(2) 0.2561(4)
C38_7 C 0.8625(3) 0.3878(3) 0.1896(4)
H39_7 H 0.8345 0.4008 0.1742
C39_7 C 0.8614(2) 0.3557(2) 0.1482(3)
H40_7 H 0.8327 0.3487 0.1043
C40_7 C 0.9081(2) 0.4366(3) 0.2964(4)
C41_7 C 0.9182 0.4279 0.3527
H41_7 H 0.9259 0.3960 0.3686
C42_7 C 0.9184 0.4626 0.3915
C43_7 C 0.9063(2) 0.5079(3) 0.3681(4)
C44_7 C 0.8754 0.5196 0.2920
H42_7 H 0.8584 0.5483 0.2707
C45_7 C 0.8766 0.4794 0.2579
C46_7 C 0.9471(2) 0.6039(2) 0.5006(3)
H43_7 H 0.9754 0.6144 0.5427
C47_7 C 0.9471(3) 0.5635(2) 0.4689(4)
H44_7 H 0.9755 0.5471 0.4914
C48_7 C 0.9079(3) 0.5479(2) 0.4081(4)
C49_7 C 0.8652(3) 0.5728(3) 0.3758(4)
H45_7 H 0.8372 0.5623 0.3334
C50_7 C 0.8639(2) 0.6129(2) 0.4060(3)
H46_7 H 0.8355 0.6292 0.3839
C51_7 C 0.90584(19) 0.62756(18) 0.4696(3)
C52_7 C 0.90564(19) 0.67149(17) 0.5022(3)
C53_7 C 0.9469 0.3984 0.4788
H47_7 H 0.9766 0.3941 0.4909
H48_7 H 0.9256 0.3721 0.4487
C54_7 C 0.9540 0.3984 0.5308
H49_7 H 0.9816 0.3786 0.5659
H50_7 H 0.9598 0.4313 0.5479
C55_7 C 0.9109 0.3779 0.5118
H51_7 H 0.8946 0.4012 0.5164
H52_7 H 0.8888 0.3632 0.4670
C56_7 C 0.9401 0.3400 0.5700
H53_7 H 0.9151 0.3162 0.5504
H54_7 H 0.9582 0.3266 0.5611
C57_7 C 0.9768 0.3228 0.6531
H56_7 H 0.9665 0.2941 0.6606
C58_7 C 0.9606 0.3731 0.6605
H57_7 H 0.9759 0.3773 0.7068
H58_7 H 0.9694 0.3994 0.6479
H59_7 H 0.9268 0.3730 0.6313
C59_7 C 0.8446 0.5536 0.1730
H60_7 H 0.8692 0.5753 0.1853
H61_7 H 0.8273 0.5677 0.1830
C60_7 C 0.8170 0.5328 0.1105
H62_7 H 0.7964 0.5566 0.0747
H63_7 H 0.7977 0.5067 0.1047
C61_7 C 0.8494 0.5156 0.1111
H64_7 H 0.8450 0.4806 0.1081
H65_7 H 0.8372 0.5254 0.0673
C62_7 C 0.9129 0.5227 0.1680
H66_7 H 0.9305 0.5020 0.2078
H67_7 H 0.9230 0.5563 0.1817
C63_7 C 0.9153 0.5093 0.1300
H68_7 H 0.8858 0.5221 0.0876
H69_7 H 0.9395 0.5311 0.1415
C64_7 C 0.9235 0.4589 0.1001
H70_7 H 0.9221 0.4691 0.0652
H71_7 H 0.9540 0.4445 0.1369
H72_7 H 0.8990 0.4354 0.0818
O1_7 O 0.85758(11) 0.19183(12) 0.04865(17)
O2_7 O 0.93631(12) 0.18449(11) 0.11970(18)
O5_7 O 0.8432 0.0584 0.2314
O7_7 O 0.93918(11) 0.28436(12) 0.15001(16)
O8_7 O 0.86058(12) 0.29353(12) 0.06939(18)
O11_7 O 0.9225 0.4522 0.4404
O12_7 O 0.8619 0.4946 0.1983
C9_7 C 0.9196 0.9690 0.2475
H5_7 H 0.9402 0.9666 0.2415
C10_7 C 0.9163 0.9321 0.2795
C11_7 C 0.8897 0.9374 0.2975
C12_7 C 0.8663 0.9801 0.2816
H6_7 H 0.8483 0.9847 0.2918
C14_7 C 0.8929(3) 0.9011(2) 0.3406(3)
C15_7 C 0.9350(2) 0.8815(3) 0.3994(4)
H7_7 H 0.9635 0.8903 0.4130
C16_7 C 0.9353(2) 0.8484(2) 0.4389(3)
H8_7 H 0.9640 0.8359 0.4785
C17_7 C 0.89466(19) 0.83460(19) 0.4205(3)
C18_7 C 0.8513(2) 0.8510(2) 0.3576(3)
H9_7 H 0.8229 0.8385 0.3413
C19_7 C 0.8502(2) 0.8850(3) 0.3200(4)
H10_7 H 0.8213 0.8976 0.2807
C20_7 C 0.89447(18) 0.80089(17) 0.4635(2)
C27_7 C 0.9799 0.8806 0.2911
H24_7 H 0.9678 0.8911 0.2476
H25_7 H 0.9915 0.8474 0.3011
H27_7 H 0.9908 0.9345 0.3371
O6_7 O 0.9448 0.8898 0.2992
C43_8 C 0.4063(2) 0.0079(3) 0.3681(4)
C44_8 C 0.3754 0.0196 0.2920
H42_8 H 0.3584 0.0483 0.2707
C46_8 C 0.4471(2) 0.1039(2) 0.5006(3)
H43_8 H 0.4754 0.1144 0.5427
C47_8 C 0.4471(3) 0.0635(2) 0.4689(4)
H44_8 H 0.4755 0.0471 0.4914
C48_8 C 0.4079(3) 0.0479(2) 0.4081(4)
C49_8 C 0.3652(3) 0.0728(3) 0.3758(4)
H45_8 H 0.3372 0.0623 0.3334
C50_8 C 0.3639(2) 0.1129(2) 0.4060(3)
H46_8 H 0.3355 0.1292 0.3839
C51_8 C 0.40584(19) 0.12756(18) 0.4696(3)
C52_8 C 0.40564(19) 0.17149(17) 0.5022(3)
C59_8 C 0.3446 0.0536 0.1730
H60_8 H 0.3692 0.0753 0.1853
H61_8 H 0.3273 0.0677 0.1830
C60_8 C 0.3170 0.0328 0.1105
H62_8 H 0.2964 0.0566 0.0747
H63_8 H 0.2977 0.0067 0.1047
C61_8 C 0.3494 0.0156 0.1111
H65_8 H 0.3372 0.0254 0.0673
C62_8 C 0.4129 0.0227 0.1680
H66_8 H 0.4305 0.0020 0.2078
H67_8 H 0.4230 0.0563 0.1817
C63_8 C 0.4153 0.0093 0.1300
H68_8 H 0.3858 0.0221 0.0876
H69_8 H 0.4395 0.0311 0.1415
C1_8 C 0.39580(18) 0.67019(16) 0.0944(2)
C2_8 C 0.39507(17) 0.62656(16) 0.1253(2)
C3_8 C 0.43465(18) 0.60230(19) 0.1772(3)
H1_8 H 0.4632 0.6117 0.1912
C4_8 C 0.4354(2) 0.5635(2) 0.2115(3)
H2_8 H 0.4637 0.5478 0.2473
C5_8 C 0.3924(2) 0.54906(19) 0.1902(3)
C6_8 C 0.3516(2) 0.5725(2) 0.1364(3)
H3_8 H 0.3231 0.5627 0.1221
C7_8 C 0.35082(18) 0.61037(19) 0.1021(3)
H4_8 H 0.3223 0.6250 0.0648
C8_8 C 0.3907 0.5090 0.2254
C9_8 C 0.4196 0.4690 0.2475
H5_8 H 0.4402 0.4666 0.2415
C10_8 C 0.4163 0.4321 0.2795
C11_8 C 0.3897 0.4374 0.2975
C12_8 C 0.3663 0.4801 0.2816
H6_8 H 0.3483 0.4847 0.2918
C13_8 C 0.3695 0.5181 0.2489
C14_8 C 0.3929(3) 0.4011(2) 0.3406(3)
C15_8 C 0.4350(2) 0.3815(3) 0.3994(4)
H7_8 H 0.4635 0.3903 0.4130
C16_8 C 0.4353(2) 0.3484(2) 0.4389(3)
H8_8 H 0.4640 0.3359 0.4785
C17_8 C 0.39466(19) 0.33460(19) 0.4205(3)
C18_8 C 0.3513(2) 0.3510(2) 0.3576(3)
H9_8 H 0.3229 0.3385 0.3413
C19_8 C 0.3502(2) 0.3850(3) 0.3200(4)
H10_8 H 0.3213 0.3976 0.2807
C20_8 C 0.39447(18) 0.30089(17) 0.4635(2)
C21_8 C 0.3153 0.5671 0.2502
H11_8 H 0.3355 0.5629 0.2987
H12_8 H 0.2888 0.5446 0.2262
C22_8 C 0.2982 0.6172 0.2302
H13_8 H 0.3240 0.6387 0.2467
H14_8 H 0.2735 0.6197 0.1810
C23_8 C 0.2781 0.6323 0.2611
H15_8 H 0.3042 0.6356 0.3100
H16_8 H 0.2573 0.6067 0.2524
C24_8 C 0.2505 0.6801 0.2317
H17_8 H 0.2638 0.6998 0.2188
H18_8 H 0.2179 0.6728 0.1905
C25_8 C 0.2500 0.7112 0.2787
H19_8 H 0.2421 0.6902 0.2981
H20_8 H 0.2251 0.7355 0.2512
C26_8 C 0.2850 0.7304 0.3218
H21_8 H 0.2819 0.7488 0.3484
H22_8 H 0.3097 0.7066 0.3501
H23_8 H 0.2928 0.7520 0.3031
C27_8 C 0.4799 0.3806 0.2911
H24_8 H 0.4678 0.3911 0.2476
H25_8 H 0.4915 0.3474 0.3011
C28_6 C 0.5079 0.4089 0.3371
H26_6 H 0.5270 0.4238 0.3307
H27_8 H 0.4908 0.4345 0.3371
C29_6 C 0.5424 0.3798 0.4100
H28_6 H 0.5498 0.3496 0.4005
H29_6 H 0.5210 0.3706 0.4150
C30_6 C 0.5807 0.3902 0.4700
H30_6 H 0.6065 0.3697 0.4841
H31_6 H 0.5892 0.4240 0.4729
C31_6 C 0.5700 0.3800 0.5200
H32_6 H 0.5976 0.3705 0.5664
H33_6 H 0.5427 0.3595 0.4997
C32_6 C 0.5606 0.4300 0.5100
H34_6 H 0.5519 0.4406 0.5335
H35_6 H 0.5885 0.4472 0.5273
H36_6 H 0.5350 0.4365 0.4623
C33_8 C 0.40094(17) 0.80226(16) 0.1278(2)
C34_8 C 0.40207(17) 0.83493(16) 0.1721(2)
C35_8 C 0.44536(19) 0.84494(18) 0.2380(3)
H37_8 H 0.4730 0.8297 0.2548
C36_8 C 0.4472(2) 0.8779(2) 0.2789(3)
H38_8 H 0.4763 0.8844 0.3226
C37_8 C 0.4076(3) 0.9004(2) 0.2561(4)
C38_8 C 0.3625(3) 0.8878(3) 0.1896(4)
H39_8 H 0.3345 0.9008 0.1742
C39_8 C 0.3614(2) 0.8557(2) 0.1482(3)
H40_8 H 0.3327 0.8487 0.1043
C40_8 C 0.4081(2) 0.9366(3) 0.2964(4)
C41_8 C 0.4182 0.9279 0.3527
H41_8 H 0.4259 0.8960 0.3686
C42_8 C 0.4184 0.9626 0.3915
C45_8 C 0.3766 0.9794 0.2579
C53_8 C 0.4469 0.8984 0.4788
H47_8 H 0.4766 0.8941 0.4909
H48_8 H 0.4256 0.8721 0.4487
C54_8 C 0.4540 0.8984 0.5308
H49_8 H 0.4816 0.8786 0.5659
H50_8 H 0.4598 0.9313 0.5479
C55_8 C 0.4109 0.8779 0.5118
H51_8 H 0.3946 0.9012 0.5164
H52_8 H 0.3888 0.8632 0.4670
C56_8 C 0.4401 0.8400 0.5700
H53_8 H 0.4151 0.8162 0.5504
H54_8 H 0.4582 0.8266 0.5611
C57_8 C 0.4768 0.8228 0.6531
H55_7 H 0.5102 0.8211 0.6777
H56_8 H 0.4665 0.7941 0.6606
C58_8 C 0.4606 0.8731 0.6605
H57_8 H 0.4759 0.8773 0.7068
H58_8 H 0.4694 0.8994 0.6479
H59_8 H 0.4268 0.8730 0.6313
H64_8 H 0.3450 0.9806 0.1081
C64_8 C 0.4235 0.9589 0.1001
H70_8 H 0.4221 0.9691 0.0652
H71_8 H 0.4540 0.9445 0.1369
H72_8 H 0.3990 0.9354 0.0818
C65_8 C 0.54945(18) 0.7662(2) 0.1614(3)
H73_8 H 0.5333 0.7835 0.1213
C66_8 C 0.59785(19) 0.7664(2) 0.2078(3)
H74_8 H 0.6138 0.7830 0.1990
C67_8 C 0.62243(15) 0.74192(18) 0.2675(3)
C68_8 C 0.59655(17) 0.7179(2) 0.2770(3)
H75_8 H 0.6122 0.7005 0.3170
C69_8 C 0.54780(16) 0.7193(2) 0.2281(3)
H76_8 H 0.5309 0.7034 0.2358
C70_8 C 0.7509(2) 0.7576(5) 0.3626(5)
H77_8 H 0.7669 0.7700 0.3516
C71_8 C 0.7012(2) 0.7549(5) 0.3114(4)
H78_8 H 0.6862 0.7621 0.2670
C72_8 C 0.67577(17) 0.74340(18) 0.3218(3)
C73_8 C 0.7011(2) 0.7238(5) 0.3831(5)
H79_8 H 0.6855 0.7098 0.3940
C74_8 C 0.7501(2) 0.7239(5) 0.4308(4)
N1_8 N 0.52386(13) 0.74327(13) 0.1688(2)
O1_8 O 0.35758(11) 0.69183(12) 0.04865(17)
O2_8 O 0.43631(12) 0.68449(11) 0.11970(18)
O5_8 O 0.3432 0.5584 0.2314
O6_8 O 0.4448 0.3898 0.2992
O7_8 O 0.43918(11) 0.78436(12) 0.15001(16)
O8_8 O 0.36058(12) 0.79353(12) 0.06939(18)
O11_8 O 0.4225 0.9522 0.4404
O12_8 O 0.3619 0.9946 0.1983
H80_8 H 0.768683 0.705054 0.478639
C28_7 C 0.0079 0.9089 0.3371
H26_7 H 0.0270 0.9238 0.3307
C29_7 C 0.0424 0.8798 0.4100
H28_7 H 0.0498 0.8496 0.4005
H29_7 H 0.0210 0.8706 0.4150
C30_7 C 0.0807 0.8902 0.4700
H30_7 H 0.1065 0.8697 0.4841
H31_7 H 0.0892 0.9240 0.4729
C31_7 C 0.0700 0.8800 0.5200
H32_7 H 0.0976 0.8705 0.5664
H33_7 H 0.0427 0.8595 0.4997
C32_7 C 0.0606 0.9300 0.5100
H34_7 H 0.0519 0.9406 0.5335
H35_7 H 0.0885 0.9472 0.5273
H36_7 H 0.0350 0.9365 0.4623
H55_8 H 0.9898 0.3211 0.8223
C28_8 C 0.9921 0.9089 0.1629
H26_8 H 0.9730 0.9238 0.1693
C29_8 C 0.9576 0.8798 0.0900
H28_8 H 0.9502 0.8496 0.0995
H29_8 H 0.9790 0.8706 0.0850
C30_8 C 0.9193 0.8902 0.0300
H30_8 H 0.8935 0.8697 0.0159
H31_8 H 0.9108 0.9240 0.0271
H33_8 H 0.9573 0.8595 0.0003
H36_8 H 0.9650 0.9365 0.0377
C31_8 C 0.9300 0.8800 0.9800
H32_8 H 0.9024 0.8705 0.9336
C32_8 C 0.9394 0.9300 0.9900
H34_8 H 0.9481 0.9406 0.9665
H35_8 H 0.9115 0.9472 0.9727
loop_
_geom_bond_atom_site_label_1
_geom_bond_atom_site_label_2
_geom_bond_site_symmetry_1
_geom_bond_site_symmetry_2
H5 C9 1_555 1_555
C10 C9 1_555 1_555
C11 C10 1_555 1_555
C12 C11 1_555 1_555
H6 C12 1_555 1_555
C14 C11 1_555 1_555
C15 C14 1_555 1_555
H7 C15 1_555 1_555
C16 C15 1_555 1_555
H8 C16 1_555 1_555
C17 C16 1_555 1_555
C18 C17 1_555 1_555
H9 C18 1_555 1_555
C19 C14 1_555 1_555
H10 C19 1_555 1_555
C20 C17 1_555 1_555
C27 H24 1_555 1_555
H25 C27 1_555 1_555
O3 C20 1_555 1_555
O4 C20 1_555 1_555
O6 C10 1_555 1_555
Zn4 O4 1_555 1_555
Zn6 O3 1_555 1_555
C18 C19 1_555 1_555
C27 O6 1_555 1_555
N3 Zn2 1_555 1_555
O13 Zn2 1_555 1_555
O16 Zn2 1_555 1_555
C1 C2 1_555 1_555
C2 C3 1_555 1_555
C3 H1 1_555 1_555
C4 C3 1_555 1_555
H2 C4 1_555 1_555
C5 C4 1_555 1_555
C6 C5 1_555 1_555
H3 C6 1_555 1_555
C7 C2 1_555 1_555
H4 C7 1_555 1_555
C8 C5 1_555 1_555
C13 C8 1_555 1_555
C21 H11 1_555 1_555
H12 C21 1_555 1_555
C22 C21 1_555 1_555
H13 C22 1_555 1_555
H14 C22 1_555 1_555
C23 C22 1_555 1_555
H15 C23 1_555 1_555
H16 C23 1_555 1_555
C24 C23 1_555 1_555
H17 C24 1_555 1_555
H18 C24 1_555 1_555
C25 C24 1_555 1_555
H19 C25 1_555 1_555
H20 C25 1_555 1_555
C26 C25 1_555 1_555
H21 C26 1_555 1_555
H22 C26 1_555 1_555
H23 C26 1_555 1_555
C33 C34 1_555 1_555
C34 C35 1_555 1_555
C35 H37 1_555 1_555
C36 C35 1_555 1_555
H38 C36 1_555 1_555
C37 C36 1_555 1_555
C38 C37 1_555 1_555
H39 C38 1_555 1_555
C39 C34 1_555 1_555
H40 C39 1_555 1_555
C40 C37 1_555 1_555
C41 C40 1_555 1_555
H41 C41 1_555 1_555
C42 C41 1_555 1_555
C43 C42 1_555 1_555
C44 C43 1_555 1_555
H42 C44 1_555 1_555
C45 C40 1_555 1_555
C46 H43 1_555 1_555
C47 C46 1_555 1_555
H44 C47 1_555 1_555
C48 C43 1_555 1_555
C49 C48 1_555 1_555
H45 C49 1_555 1_555
C50 C49 1_555 1_555
H46 C50 1_555 1_555
C51 C46 1_555 1_555
C52 C51 1_555 1_555
C53 H47 1_555 1_555
H48 C53 1_555 1_555
C54 C53 1_555 1_555
H49 C54 1_555 1_555
H50 C54 1_555 1_555
C55 C54 1_555 1_555
H51 C55 1_555 1_555
H52 C55 1_555 1_555
C56 C55 1_555 1_555
H53 C56 1_555 1_555
H54 C56 1_555 1_555
C57 C56 1_555 1_555
H56 C57 1_555 1_555
C58 C57 1_555 1_555
H57 C58 1_555 1_555
H58 C58 1_555 1_555
H59 C58 1_555 1_555
C59 H60 1_555 1_555
H61 C59 1_555 1_555
C60 C59 1_555 1_555
H62 C60 1_555 1_555
H63 C60 1_555 1_555
C61 C60 1_555 1_555
H64 C61 1_555 1_555
H65 C61 1_555 1_555
C62 C61 1_555 1_555
H66 C62 1_555 1_555
H67 C62 1_555 1_555
C63 C62 1_555 1_555
H68 C63 1_555 1_555
H69 C63 1_555 1_555
C64 C63 1_555 1_555
H70 C64 1_555 1_555
H71 C64 1_555 1_555
H72 C64 1_555 1_555
O1 C1 1_555 1_555
O2 C1 1_555 1_555
O5 C13 1_555 1_555
O7 C33 1_555 1_555
O8 C33 1_555 1_555
O9 C52 1_555 1_555
O10 C52 1_555 1_555
O11 C42 1_555 1_555
O12 C45 1_555 1_555
O14 Zn1 1_555 1_555
O15 Zn1 1_555 1_555
Zn4 O9 1_555 1_555
Zn6 O10 1_555 1_555
C6 C7 1_555 1_555
C21 O5 1_555 1_555
C38 C39 1_555 1_555
C44 C45 1_555 1_555
C47 C48 1_555 1_555
C50 C51 1_555 1_555
C53 O11 1_555 1_555
C59 O12 1_555 1_555
O2 Zn1 1_555 1_555
O7 Zn1 1_555 1_555
C65 H73 1_555 1_555
C66 C65 1_555 1_555
H74 C66 1_555 1_555
C67 C66 1_555 1_555
C68 C67 1_555 1_555
H75 C68 1_555 1_555
C69 C68 1_555 1_555
H76 C69 1_555 1_555
C70 H77 1_555 1_555
C71 C70 1_555 1_555
H78 C71 1_555 1_555
C72 C67 1_555 1_555
C73 C72 1_555 1_555
H79 C73 1_555 1_555
C74 C73 1_555 1_555
N1 C65 1_555 1_555
N2 C70 1_555 1_555
Zn7 N2 1_555 1_555
C69 N1 1_555 1_555
C71 C72 1_555 1_555
C74 N2 1_555 1_555
C74 H80 1_555 1_555
N3_2 Zn2_2 1_555 1_555
O13_2 Zn2_2 1_555 1_555
O16_2 Zn2_2 1_555 1_555
C1_2 C2_2 1_555 1_555
C2_2 C3_2 1_555 1_555
C3_2 H1_2 1_555 1_555
C4_2 C3_2 1_555 1_555
H2_2 C4_2 1_555 1_555
C5_2 C4_2 1_555 1_555
C6_2 C5_2 1_555 1_555
H3_2 C6_2 1_555 1_555
C7_2 C2_2 1_555 1_555
H4_2 C7_2 1_555 1_555
C8_2 C5_2 1_555 1_555
C9_2 C8_2 1_555 1_555
H5_2 C9_2 1_555 1_555
C10_2 C9_2 1_555 1_555
C11_2 C10_2 1_555 1_555
C12_2 C11_2 1_555 1_555
H6_2 C12_2 1_555 1_555
C13_2 C8_2 1_555 1_555
C14_2 C11_2 1_555 1_555
C15_2 C14_2 1_555 1_555
H7_2 C15_2 1_555 1_555
C16_2 C15_2 1_555 1_555
H8_2 C16_2 1_555 1_555
C17_2 C16_2 1_555 1_555
C18_2 C17_2 1_555 1_555
H9_2 C18_2 1_555 1_555
C19_2 C14_2 1_555 1_555
H10_2 C19_2 1_555 1_555
C20_2 C17_2 1_555 1_555
C21_2 H11_2 1_555 1_555
H12_2 C21_2 1_555 1_555
C22_2 C21_2 1_555 1_555
H13_2 C22_2 1_555 1_555
H14_2 C22_2 1_555 1_555
C23_2 C22_2 1_555 1_555
H15_2 C23_2 1_555 1_555
H16_2 C23_2 1_555 1_555
C24_2 C23_2 1_555 1_555
H17_2 C24_2 1_555 1_555
H18_2 C24_2 1_555 1_555
C25_2 C24_2 1_555 1_555
H19_2 C25_2 1_555 1_555
H20_2 C25_2 1_555 1_555
C26_2 C25_2 1_555 1_555
H21_2 C26_2 1_555 1_555
H22_2 C26_2 1_555 1_555
H23_2 C26_2 1_555 1_555
C27_2 H24_2 1_555 1_555
H25_2 C27_2 1_555 1_555
C28 C27_2 1_555 1_555
H26 C28 1_555 1_555
H27_2 C28 1_555 1_555
C29 C28 1_555 1_555
H28 C29 1_555 1_555
H29 C29 1_555 1_555
C30 C29 1_555 1_555
H30 C30 1_555 1_555
H31 C30 1_555 1_555
C31 C30 1_555 1_555
H32 C31 1_555 1_555
H33 C31 1_555 1_555
C32 C31 1_555 1_555
H34 C32 1_555 1_555
H35 C32 1_555 1_555
H36 C32 1_555 1_555
C33_2 C34_2 1_555 1_555
C34_2 C35_2 1_555 1_555
C35_2 H37_2 1_555 1_555
C36_2 C35_2 1_555 1_555
H38_2 C36_2 1_555 1_555
C37_2 C36_2 1_555 1_555
C38_2 C37_2 1_555 1_555
H39_2 C38_2 1_555 1_555
C39_2 C34_2 1_555 1_555
H40_2 C39_2 1_555 1_555
C40_2 C37_2 1_555 1_555
C41_2 C40_2 1_555 1_555
H41_2 C41_2 1_555 1_555
C42_2 C41_2 1_555 1_555
C45_2 C40_2 1_555 1_555
C53_2 H47_2 1_555 1_555
H48_2 C53_2 1_555 1_555
C54_2 C53_2 1_555 1_555
H49_2 C54_2 1_555 1_555
H50_2 C54_2 1_555 1_555
C55_2 C54_2 1_555 1_555
H51_2 C55_2 1_555 1_555
H52_2 C55_2 1_555 1_555
C56_2 C55_2 1_555 1_555
H53_2 C56_2 1_555 1_555
H54_2 C56_2 1_555 1_555
C57_2 C56_2 1_555 1_555
H55_2 C57_2 1_555 1_555
H56_2 C57_2 1_555 1_555
C58_2 C57_2 1_555 1_555
H57_2 C58_2 1_555 1_555
H58_2 C58_2 1_555 1_555
H59_2 C58_2 1_555 1_555
H70_2 C64_2 1_555 1_555
H71_2 C64_2 1_555 1_555
H72_2 C64_2 1_555 1_555
C65_2 H73_2 1_555 1_555
C66_2 C65_2 1_555 1_555
H74_2 C66_2 1_555 1_555
C67_2 C66_2 1_555 1_555
C68_2 C67_2 1_555 1_555
H75_2 C68_2 1_555 1_555
C69_2 C68_2 1_555 1_555
H76_2 C69_2 1_555 1_555
C70_2 H77_2 1_555 1_555
C71_2 C70_2 1_555 1_555
H78_2 C71_2 1_555 1_555
C72_2 C67_2 1_555 1_555
C73_2 C72_2 1_555 1_555
H79_2 C73_2 1_555 1_555
C74_2 C73_2 1_555 1_555
N1_2 C65_2 1_555 1_555
N2_2 C70_2 1_555 1_555
O1_2 C1_2 1_555 1_555
O2_2 C1_2 1_555 1_555
O3_2 C20_2 1_555 1_555
O4_2 C20_2 1_555 1_555
O5_2 C13_2 1_555 1_555
O6_2 C10_2 1_555 1_555
O7_2 C33_2 1_555 1_555
O8_2 C33_2 1_555 1_555
O11_2 C42_2 1_555 1_555
O12_2 C45_2 1_555 1_555
Zn1_2 N1_2 1_555 1_555
O14_2 Zn1_2 1_555 1_555
O15_2 Zn1_2 1_555 1_555
Zn4_2 O4_2 1_555 1_555
Zn7 O3_2 1_555 1_555
Zn6 N2_2 1_555 1_555
C6_2 C7_2 1_555 1_555
C12_2 C13_2 1_555 1_555
C18_2 C19_2 1_555 1_555
C21_2 O5_2 1_555 1_555
C27_2 O6_2 1_555 1_555
C38_2 C39_2 1_555 1_555
C53_2 O11_2 1_555 1_555
C69_2 N1_2 1_555 1_555
C71_2 C72_2 1_555 1_555
C74_2 N2_2 1_555 1_555
O2_2 Zn1_2 1_555 1_555
O7_2 Zn1_2 1_555 1_555
C74_2 H80_2 1_555 1_555
C44_2 C43_2 1_555 1_555
H42_2 C44_2 1_555 1_555
C46_2 H43_2 1_555 1_555
C47_2 C46_2 1_555 1_555
H44_2 C47_2 1_555 1_555
C48_2 C43_2 1_555 1_555
C49_2 C48_2 1_555 1_555
H45_2 C49_2 1_555 1_555
C50_2 C49_2 1_555 1_555
H46_2 C50_2 1_555 1_555
C51_2 C46_2 1_555 1_555
C52_2 C51_2 1_555 1_555
C59_2 H60_2 1_555 1_555
H61_2 C59_2 1_555 1_555
C60_2 C59_2 1_555 1_555
H62_2 C60_2 1_555 1_555
H63_2 C60_2 1_555 1_555
C61_2 C60_2 1_555 1_555
H65_2 C61_2 1_555 1_555
C62_2 C61_2 1_555 1_555
H66_2 C62_2 1_555 1_555
H67_2 C62_2 1_555 1_555
C63_2 C62_2 1_555 1_555
H68_2 C63_2 1_555 1_555
H69_2 C63_2 1_555 1_555
O9_2 C52_2 1_555 1_555
O10_2 C52_2 1_555 1_555
Zn4_2 O9_2 1_555 1_555
Zn7 O10_2 1_555 1_555
C47_2 C48_2 1_555 1_555
C50_2 C51_2 1_555 1_555
C1_3 C2_3 1_555 1_555
C2_3 C3_3 1_555 1_555
C3_3 H1_3 1_555 1_555
C4_3 C3_3 1_555 1_555
H2_3 C4_3 1_555 1_555
C5_3 C4_3 1_555 1_555
C6_3 C5_3 1_555 1_555
H3_3 C6_3 1_555 1_555
C7_3 C2_3 1_555 1_555
H4_3 C7_3 1_555 1_555
C8_3 C5_3 1_555 1_555
C13_3 C8_3 1_555 1_555
C21_3 H11_3 1_555 1_555
H12_3 C21_3 1_555 1_555
C22_3 C21_3 1_555 1_555
H13_3 C22_3 1_555 1_555
H14_3 C22_3 1_555 1_555
C23_3 C22_3 1_555 1_555
H15_3 C23_3 1_555 1_555
H16_3 C23_3 1_555 1_555
C24_3 C23_3 1_555 1_555
H17_3 C24_3 1_555 1_555
H18_3 C24_3 1_555 1_555
C25_3 C24_3 1_555 1_555
H19_3 C25_3 1_555 1_555
H20_3 C25_3 1_555 1_555
C26_3 C25_3 1_555 1_555
H21_3 C26_3 1_555 1_555
H22_3 C26_3 1_555 1_555
H23_3 C26_3 1_555 1_555
C33_3 C34_3 1_555 1_555
C34_3 C35_3 1_555 1_555
C35_3 H37_3 1_555 1_555
C36_3 C35_3 1_555 1_555
H38_3 C36_3 1_555 1_555
C37_3 C36_3 1_555 1_555
C38_3 C37_3 1_555 1_555
H39_3 C38_3 1_555 1_555
C39_3 C34_3 1_555 1_555
H40_3 C39_3 1_555 1_555
C40_3 C37_3 1_555 1_555
C41_3 C40_3 1_555 1_555
H41_3 C41_3 1_555 1_555
C42_3 C41_3 1_555 1_555
C43_3 C42_3 1_555 1_555
C44_3 C43_3 1_555 1_555
H42_3 C44_3 1_555 1_555
C45_3 C40_3 1_555 1_555
H44_3 C47_3 1_555 1_555
C48_3 C43_3 1_555 1_555
C49_3 C48_3 1_555 1_555
H45_3 C49_3 1_555 1_555
C50_3 C49_3 1_555 1_555
H46_3 C50_3 1_555 1_555
C53_3 H47_3 1_555 1_555
H48_3 C53_3 1_555 1_555
C59_3 H60_3 1_555 1_555
H61_3 C59_3 1_555 1_555
C60_3 C59_3 1_555 1_555
H62_3 C60_3 1_555 1_555
H63_3 C60_3 1_555 1_555
C61_3 C60_3 1_555 1_555
H64_3 C61_3 1_555 1_555
H65_3 C61_3 1_555 1_555
C62_3 C61_3 1_555 1_555
H66_3 C62_3 1_555 1_555
H67_3 C62_3 1_555 1_555
C63_3 C62_3 1_555 1_555
H68_3 C63_3 1_555 1_555
H69_3 C63_3 1_555 1_555
C64_3 C63_3 1_555 1_555
H70_3 C64_3 1_555 1_555
H71_3 C64_3 1_555 1_555
H72_3 C64_3 1_555 1_555
O1_3 C1_3 1_555 1_555
O2_3 C1_3 1_555 1_555
O5_3 C13_3 1_555 1_555
O7_3 C33_3 1_555 1_555
O8_3 C33_3 1_555 1_555
O11_3 C42_3 1_555 1_555
O12_3 C45_3 1_555 1_555
Zn6 O1_3 1_555 1_555
C6_3 C7_3 1_555 1_555
C21_3 O5_3 1_555 1_555
C38_3 C39_3 1_555 1_555
C44_3 C45_3 1_555 1_555
C47_3 C48_3 1_555 1_555
C50_3 C51_3 1_555 1_555
C53_3 O11_3 1_555 1_555
C59_3 O12_3 1_555 1_555
O2_3 Zn4 1_555 1_555
O7_3 Zn4 1_555 1_555
O8_3 Zn6 1_555 1_555
C46_3 H43_3 1_555 1_555
H49_3 C54_3 1_555 1_555
H50_3 C54_3 1_555 1_555
C55_3 C54_3 1_555 1_555
H51_3 C55_3 1_555 1_555
C56_3 C55_3 1_555 1_555
H53_3 C56_3 1_555 1_555
H54_3 C56_3 1_555 1_555
C57_3 C56_3 1_555 1_555
H56_3 C57_3 1_555 1_555
C58_3 C57_3 1_555 1_555
H57_3 C58_3 1_555 1_555
H58_3 C58_3 1_555 1_555
H59_3 C58_3 1_555 1_555
O15 C52_3 1_555 1_555
H5_3 C9_3 1_555 1_555
C10_3 C9_3 1_555 1_555
C11_3 C10_3 1_555 1_555
C12_3 C11_3 1_555 1_555
H6_3 C12_3 1_555 1_555
C14_3 C11_3 1_555 1_555
C15_3 C14_3 1_555 1_555
H7_3 C15_3 1_555 1_555
C16_3 C15_3 1_555 1_555
H8_3 C16_3 1_555 1_555
C17_3 C16_3 1_555 1_555
C18_3 C17_3 1_555 1_555
H9_3 C18_3 1_555 1_555
C19_3 C14_3 1_555 1_555
H10_3 C19_3 1_555 1_555
C20_3 C17_3 1_555 1_555
C27_3 H24_3 1_555 1_555
H25_3 C27_3 1_555 1_555
O13 C20_3 1_555 1_555
O6_3 C10_3 1_555 1_555
C18_3 C19_3 1_555 1_555
C27_3 O6_3 1_555 1_555
C65_3 H73_3 1_555 1_555
C66_3 C65_3 1_555 1_555
H74_3 C66_3 1_555 1_555
C67_3 C66_3 1_555 1_555
C68_3 C67_3 1_555 1_555
H75_3 C68_3 1_555 1_555
C69_3 C68_3 1_555 1_555
H76_3 C69_3 1_555 1_555
C70_3 H77_3 1_555 1_555
C71_3 C70_3 1_555 1_555
H78_3 C71_3 1_555 1_555
C72_3 C67_3 1_555 1_555
C73_3 C72_3 1_555 1_555
H79_3 C73_3 1_555 1_555
C74_3 C73_3 1_555 1_555
N1_3 C65_3 1_555 1_555
N3_2 C70_3 1_555 1_555
C69_3 N1_3 1_555 1_555
C71_3 C72_3 1_555 1_555
C74_3 N3_2 1_555 1_555
C74_3 H80_3 1_555 1_555
C44_4 C43_4 1_555 1_555
H42_4 C44_4 1_555 1_555
H44_4 C47_4 1_555 1_555
C48_4 C43_4 1_555 1_555
C49_4 C48_4 1_555 1_555
H45_4 C49_4 1_555 1_555
C50_4 C49_4 1_555 1_555
H46_4 C50_4 1_555 1_555
C59_4 H60_4 1_555 1_555
H61_4 C59_4 1_555 1_555
C60_4 C59_4 1_555 1_555
H62_4 C60_4 1_555 1_555
H63_4 C60_4 1_555 1_555
C61_4 C60_4 1_555 1_555
H65_4 C61_4 1_555 1_555
C62_4 C61_4 1_555 1_555
H66_4 C62_4 1_555 1_555
H67_4 C62_4 1_555 1_555
C63_4 C62_4 1_555 1_555
H68_4 C63_4 1_555 1_555
H69_4 C63_4 1_555 1_555
C47_4 C48_4 1_555 1_555
C50_4 C51_4 1_555 1_555
C46_4 H43_4 1_555 1_555
O15_2 C52_4 1_555 1_555
C1_4 C2_4 1_555 1_555
C2_4 C3_4 1_555 1_555
C3_4 H1_4 1_555 1_555
C4_4 C3_4 1_555 1_555
H2_4 C4_4 1_555 1_555
C5_4 C4_4 1_555 1_555
C6_4 C5_4 1_555 1_555
H3_4 C6_4 1_555 1_555
C7_4 C2_4 1_555 1_555
H4_4 C7_4 1_555 1_555
C8_4 C5_4 1_555 1_555
C9_4 C8_4 1_555 1_555
H5_4 C9_4 1_555 1_555
C10_4 C9_4 1_555 1_555
C11_4 C10_4 1_555 1_555
C12_4 C11_4 1_555 1_555
H6_4 C12_4 1_555 1_555
C13_4 C8_4 1_555 1_555
C14_4 C11_4 1_555 1_555
C15_4 C14_4 1_555 1_555
H7_4 C15_4 1_555 1_555
C16_4 C15_4 1_555 1_555
H8_4 C16_4 1_555 1_555
C17_4 C16_4 1_555 1_555
C18_4 C17_4 1_555 1_555
H9_4 C18_4 1_555 1_555
C19_4 C14_4 1_555 1_555
H10_4 C19_4 1_555 1_555
C20_4 C17_4 1_555 1_555
C21_4 H11_4 1_555 1_555
H12_4 C21_4 1_555 1_555
C22_4 C21_4 1_555 1_555
H13_4 C22_4 1_555 1_555
H14_4 C22_4 1_555 1_555
C23_4 C22_4 1_555 1_555
H15_4 C23_4 1_555 1_555
H16_4 C23_4 1_555 1_555
C24_4 C23_4 1_555 1_555
H17_4 C24_4 1_555 1_555
H18_4 C24_4 1_555 1_555
C25_4 C24_4 1_555 1_555
H19_4 C25_4 1_555 1_555
H20_4 C25_4 1_555 1_555
C26_4 C25_4 1_555 1_555
H21_4 C26_4 1_555 1_555
H22_4 C26_4 1_555 1_555
H23_4 C26_4 1_555 1_555
C27_4 H24_4 1_555 1_555
H25_4 C27_4 1_555 1_555
C28_2 C27_4 1_555 1_555
H26_2 C28_2 1_555 1_555
H27_4 C28_2 1_555 1_555
C29_2 C28_2 1_555 1_555
H28_2 C29_2 1_555 1_555
H29_2 C29_2 1_555 1_555
C30_2 C29_2 1_555 1_555
H30_2 C30_2 1_555 1_555
H31_2 C30_2 1_555 1_555
C33_4 C34_4 1_555 1_555
C34_4 C35_4 1_555 1_555
C35_4 H37_4 1_555 1_555
C36_4 C35_4 1_555 1_555
H38_4 C36_4 1_555 1_555
C37_4 C36_4 1_555 1_555
C38_4 C37_4 1_555 1_555
H39_4 C38_4 1_555 1_555
C39_4 C34_4 1_555 1_555
H40_4 C39_4 1_555 1_555
C40_4 C37_4 1_555 1_555
C41_4 C40_4 1_555 1_555
H41_4 C41_4 1_555 1_555
C42_4 C41_4 1_555 1_555
C45_4 C40_4 1_555 1_555
C53_4 H47_4 1_555 1_555
H48_4 C53_4 1_555 1_555
H70_4 C64_4 1_555 1_555
H71_4 C64_4 1_555 1_555
H72_4 C64_4 1_555 1_555
C65_4 H73_4 1_555 1_555
C66_4 C65_4 1_555 1_555
H74_4 C66_4 1_555 1_555
C67_4 C66_4 1_555 1_555
C68_4 C67_4 1_555 1_555
H75_4 C68_4 1_555 1_555
C69_4 C68_4 1_555 1_555
H76_4 C69_4 1_555 1_555
C70_4 H77_4 1_555 1_555
C71_4 C70_4 1_555 1_555
H78_4 C71_4 1_555 1_555
C72_4 C67_4 1_555 1_555
C73_4 C72_4 1_555 1_555
H79_4 C73_4 1_555 1_555
C74_4 C73_4 1_555 1_555
N1_4 C65_4 1_555 1_555
N3 C70_4 1_555 1_555
O1_4 C1_4 1_555 1_555
O2_4 C1_4 1_555 1_555
O13_2 C20_4 1_555 1_555
O5_4 C13_4 1_555 1_555
O6_4 C10_4 1_555 1_555
O7_4 C33_4 1_555 1_555
O8_4 C33_4 1_555 1_555
O11_4 C42_4 1_555 1_555
O12_4 C45_4 1_555 1_555
Zn4_2 N1_4 1_555 1_555
Zn7 O1_4 1_555 1_555
C6_4 C7_4 1_555 1_555
C12_4 C13_4 1_555 1_555
C18_4 C19_4 1_555 1_555
C21_4 O5_4 1_555 1_555
C27_4 O6_4 1_555 1_555
C38_4 C39_4 1_555 1_555
C53_4 O11_4 1_555 1_555
C69_4 N1_4 1_555 1_555
C71_4 C72_4 1_555 1_555
C74_4 N3 1_555 1_555
O2_4 Zn4_2 1_555 1_555
O7_4 Zn4_2 1_555 1_555
O8_4 Zn7 1_555 1_555
C74_4 H80_4 1_555 1_555
H32_2 C31_2 1_555 1_555
C32_2 C31_2 1_555 1_555
H34_2 C32_2 1_555 1_555
H35_2 C32_2 1_555 1_555
H49_4 C54_4 1_555 1_555
H50_4 C54_4 1_555 1_555
C55_4 C54_4 1_555 1_555
H51_4 C55_4 1_555 1_555
C56_4 C55_4 1_555 1_555
H53_4 C56_4 1_555 1_555
H54_4 C56_4 1_555 1_555
C57_4 C56_4 1_555 1_555
H55_3 C57_4 1_555 1_555
H56_4 C57_4 1_555 1_555
C58_4 C57_4 1_555 1_555
H57_4 C58_4 1_555 1_555
H58_4 C58_4 1_555 1_555
H59_4 C58_4 1_555 1_555
H26_3 C28_3 1_555 1_555
C29_3 C28_3 1_555 1_555
H28_3 C29_3 1_555 1_555
H29_3 C29_3 1_555 1_555
C30_3 C29_3 1_555 1_555
H30_3 C30_3 1_555 1_555
H31_3 C30_3 1_555 1_555
C31_3 C30_3 1_555 1_555
H32_3 C31_3 1_555 1_555
H33_3 C31_3 1_555 1_555
C32_3 C31_3 1_555 1_555
H34_3 C32_3 1_555 1_555
H35_3 C32_3 1_555 1_555
H36_3 C32_3 1_555 1_555
H32_4 C31_4 1_555 1_555
C32_4 C31_4 1_555 1_555
H34_4 C32_4 1_555 1_555
H35_4 C32_4 1_555 1_555
H26_4 C28_4 1_555 1_555
C29_4 C28_4 1_555 1_555
H28_4 C29_4 1_555 1_555
H29_4 C29_4 1_555 1_555
C30_4 C29_4 1_555 1_555
H30_4 C30_4 1_555 1_555
H31_4 C30_4 1_555 1_555
C65_5 H73_5 1_555 1_555
C66_5 C65_5 1_555 1_555
H74_5 C66_5 1_555 1_555
C67_5 C66_5 1_555 1_555
C68_5 C67_5 1_555 1_555
H75_5 C68_5 1_555 1_555
C69_5 C68_5 1_555 1_555
H76_5 C69_5 1_555 1_555
C70_5 H77_5 1_555 1_555
C71_5 C70_5 1_555 1_555
H78_5 C71_5 1_555 1_555
C72_5 C67_5 1_555 1_555
C73_5 C72_5 1_555 1_555
H79_5 C73_5 1_555 1_555
C74_5 C73_5 1_555 1_555
N1_5 C65_5 1_555 1_555
N2_3 C70_5 1_555 1_555
Zn7_2 N2_3 1_555 1_555
C69_5 N1_5 1_555 1_555
C71_5 C72_5 1_555 1_555
C74_5 N2_3 1_555 1_555
C74_5 H80_5 1_555 1_555
Zn4_3 O4_3 1_555 1_555
H5_5 C9_5 1_555 1_555
C10_5 C9_5 1_555 1_555
C11_5 C10_5 1_555 1_555
C12_5 C11_5 1_555 1_555
H6_5 C12_5 1_555 1_555
C14_5 C11_5 1_555 1_555
C15_5 C14_5 1_555 1_555
H7_5 C15_5 1_555 1_555
C16_5 C15_5 1_555 1_555
H8_5 C16_5 1_555 1_555
C17_5 C16_5 1_555 1_555
C18_5 C17_5 1_555 1_555
H9_5 C18_5 1_555 1_555
C19_5 C14_5 1_555 1_555
H10_5 C19_5 1_555 1_555
C20_5 C17_5 1_555 1_555
C27_5 H24_5 1_555 1_555
H25_5 C27_5 1_555 1_555
O3_3 C20_5 1_555 1_555
O6_5 C10_5 1_555 1_555
Zn6_2 O3_3 1_555 1_555
C18_5 C19_5 1_555 1_555
C27_5 O6_5 1_555 1_555
C46_5 H43_5 1_555 1_555
H49_5 C54_5 1_555 1_555
H50_5 C54_5 1_555 1_555
C55_5 C54_5 1_555 1_555
H51_5 C55_5 1_555 1_555
C56_5 C55_5 1_555 1_555
H53_5 C56_5 1_555 1_555
H54_5 C56_5 1_555 1_555
C57_5 C56_5 1_555 1_555
H56_5 C57_5 1_555 1_555
C58_5 C57_5 1_555 1_555
H57_5 C58_5 1_555 1_555
H58_5 C58_5 1_555 1_555
H59_5 C58_5 1_555 1_555
O9_3 C52_5 1_555 1_555
Zn4_3 O9_3 1_555 1_555
C1_5 C2_5 1_555 1_555
C2_5 C3_5 1_555 1_555
C3_5 H1_5 1_555 1_555
C4_5 C3_5 1_555 1_555
H2_5 C4_5 1_555 1_555
C5_5 C4_5 1_555 1_555
C6_5 C5_5 1_555 1_555
H3_5 C6_5 1_555 1_555
C7_5 C2_5 1_555 1_555
H4_5 C7_5 1_555 1_555
C8_5 C5_5 1_555 1_555
C13_5 C8_5 1_555 1_555
C21_5 H11_5 1_555 1_555
H12_5 C21_5 1_555 1_555
C22_5 C21_5 1_555 1_555
H13_5 C22_5 1_555 1_555
H14_5 C22_5 1_555 1_555
C23_5 C22_5 1_555 1_555
H15_5 C23_5 1_555 1_555
H16_5 C23_5 1_555 1_555
C24_5 C23_5 1_555 1_555
H17_5 C24_5 1_555 1_555
H18_5 C24_5 1_555 1_555
C25_5 C24_5 1_555 1_555
H19_5 C25_5 1_555 1_555
H20_5 C25_5 1_555 1_555
C26_5 C25_5 1_555 1_555
H21_5 C26_5 1_555 1_555
H22_5 C26_5 1_555 1_555
H23_5 C26_5 1_555 1_555
C33_5 C34_5 1_555 1_555
C34_5 C35_5 1_555 1_555
C35_5 H37_5 1_555 1_555
C36_5 C35_5 1_555 1_555
H38_5 C36_5 1_555 1_555
C37_5 C36_5 1_555 1_555
C38_5 C37_5 1_555 1_555
H39_5 C38_5 1_555 1_555
C39_5 C34_5 1_555 1_555
H40_5 C39_5 1_555 1_555
C40_5 C37_5 1_555 1_555
C41_5 C40_5 1_555 1_555
H41_5 C41_5 1_555 1_555
C42_5 C41_5 1_555 1_555
C43_5 C42_5 1_555 1_555
C44_5 C43_5 1_555 1_555
H42_5 C44_5 1_555 1_555
C45_5 C40_5 1_555 1_555
H44_5 C47_5 1_555 1_555
C48_5 C43_5 1_555 1_555
C49_5 C48_5 1_555 1_555
H45_5 C49_5 1_555 1_555
C50_5 C49_5 1_555 1_555
H46_5 C50_5 1_555 1_555
C53_5 H47_5 1_555 1_555
H48_5 C53_5 1_555 1_555
C59_5 H60_5 1_555 1_555
H61_5 C59_5 1_555 1_555
C60_5 C59_5 1_555 1_555
H62_5 C60_5 1_555 1_555
H63_5 C60_5 1_555 1_555
C61_5 C60_5 1_555 1_555
H64_5 C61_5 1_555 1_555
H65_5 C61_5 1_555 1_555
C62_5 C61_5 1_555 1_555
H66_5 C62_5 1_555 1_555
H67_5 C62_5 1_555 1_555
C63_5 C62_5 1_555 1_555
H68_5 C63_5 1_555 1_555
H69_5 C63_5 1_555 1_555
C64_5 C63_5 1_555 1_555
H70_5 C64_5 1_555 1_555
H71_5 C64_5 1_555 1_555
H72_5 C64_5 1_555 1_555
O1_5 C1_5 1_555 1_555
O2_5 C1_5 1_555 1_555
O5_5 C13_5 1_555 1_555
O7_5 C33_5 1_555 1_555
O8_5 C33_5 1_555 1_555
O11_5 C42_5 1_555 1_555
O12_5 C45_5 1_555 1_555
Zn2_3 O1_5 1_555 1_555
N3_3 Zn2_3 1_555 1_555
O13_3 Zn2_3 1_555 1_555
O14_3 Zn1_3 1_555 1_555
O15_3 Zn1_3 1_555 1_555
O16_3 Zn2_3 1_555 1_555
Zn6_2 O10_3 1_555 1_555
C6_5 C7_5 1_555 1_555
C21_5 O5_5 1_555 1_555
C38_5 C39_5 1_555 1_555
C44_5 C45_5 1_555 1_555
C47_5 C48_5 1_555 1_555
C50_5 C51_5 1_555 1_555
C53_5 O11_5 1_555 1_555
C59_5 O12_5 1_555 1_555
O2_5 Zn1_3 1_555 1_555
O7_5 Zn1_3 1_555 1_555
O8_5 Zn2_3 1_555 1_555
H32_5 C31_5 1_555 1_555
C32_5 C31_5 1_555 1_555
H34_5 C32_5 1_555 1_555
H35_5 C32_5 1_555 1_555
H49_6 C54_6 1_555 1_555
H50_6 C54_6 1_555 1_555
C55_6 C54_6 1_555 1_555
H51_6 C55_6 1_555 1_555
C56_6 C55_6 1_555 1_555
H53_6 C56_6 1_555 1_555
H54_6 C56_6 1_555 1_555
C57_6 C56_6 1_555 1_555
H55_5 C57_6 1_555 1_555
H56_6 C57_6 1_555 1_555
C58_6 C57_6 1_555 1_555
H57_6 C58_6 1_555 1_555
H58_6 C58_6 1_555 1_555
H59_6 C58_6 1_555 1_555
Zn4_4 O4_4 1_555 1_555
C1_6 C2_6 1_555 1_555
C2_6 C3_6 1_555 1_555
C3_6 H1_6 1_555 1_555
C4_6 C3_6 1_555 1_555
H2_6 C4_6 1_555 1_555
C5_6 C4_6 1_555 1_555
C6_6 C5_6 1_555 1_555
H3_6 C6_6 1_555 1_555
C7_6 C2_6 1_555 1_555
H4_6 C7_6 1_555 1_555
C8_6 C5_6 1_555 1_555
C9_6 C8_6 1_555 1_555
H5_6 C9_6 1_555 1_555
C10_6 C9_6 1_555 1_555
C11_6 C10_6 1_555 1_555
C12_6 C11_6 1_555 1_555
H6_6 C12_6 1_555 1_555
C13_6 C8_6 1_555 1_555
C14_6 C11_6 1_555 1_555
C15_6 C14_6 1_555 1_555
H7_6 C15_6 1_555 1_555
C16_6 C15_6 1_555 1_555
H8_6 C16_6 1_555 1_555
C17_6 C16_6 1_555 1_555
C18_6 C17_6 1_555 1_555
H9_6 C18_6 1_555 1_555
C19_6 C14_6 1_555 1_555
H10_6 C19_6 1_555 1_555
C20_6 C17_6 1_555 1_555
C21_6 H11_6 1_555 1_555
H12_6 C21_6 1_555 1_555
C22_6 C21_6 1_555 1_555
H13_6 C22_6 1_555 1_555
H14_6 C22_6 1_555 1_555
C23_6 C22_6 1_555 1_555
H15_6 C23_6 1_555 1_555
H16_6 C23_6 1_555 1_555
C24_6 C23_6 1_555 1_555
H17_6 C24_6 1_555 1_555
H18_6 C24_6 1_555 1_555
C25_6 C24_6 1_555 1_555
H19_6 C25_6 1_555 1_555
H20_6 C25_6 1_555 1_555
C26_6 C25_6 1_555 1_555
H21_6 C26_6 1_555 1_555
H22_6 C26_6 1_555 1_555
H23_6 C26_6 1_555 1_555
C27_6 H24_6 1_555 1_555
H25_6 C27_6 1_555 1_555
C28_5 C27_6 1_555 1_555
H26_5 C28_5 1_555 1_555
H27_6 C28_5 1_555 1_555
C29_5 C28_5 1_555 1_555
H28_5 C29_5 1_555 1_555
H29_5 C29_5 1_555 1_555
C30_5 C29_5 1_555 1_555
H30_5 C30_5 1_555 1_555
H31_5 C30_5 1_555 1_555
C33_6 C34_6 1_555 1_555
C34_6 C35_6 1_555 1_555
C35_6 H37_6 1_555 1_555
C36_6 C35_6 1_555 1_555
H38_6 C36_6 1_555 1_555
C37_6 C36_6 1_555 1_555
C38_6 C37_6 1_555 1_555
H39_6 C38_6 1_555 1_555
C39_6 C34_6 1_555 1_555
H40_6 C39_6 1_555 1_555
C40_6 C37_6 1_555 1_555
C41_6 C40_6 1_555 1_555
H41_6 C41_6 1_555 1_555
C42_6 C41_6 1_555 1_555
C45_6 C40_6 1_555 1_555
C53_6 H47_6 1_555 1_555
H48_6 C53_6 1_555 1_555
H70_6 C64_6 1_555 1_555
H71_6 C64_6 1_555 1_555
H72_6 C64_6 1_555 1_555
C65_6 H73_6 1_555 1_555
C66_6 C65_6 1_555 1_555
H74_6 C66_6 1_555 1_555
C67_6 C66_6 1_555 1_555
C68_6 C67_6 1_555 1_555
H75_6 C68_6 1_555 1_555
C69_6 C68_6 1_555 1_555
H76_6 C69_6 1_555 1_555
C70_6 H77_6 1_555 1_555
C71_6 C70_6 1_555 1_555
H78_6 C71_6 1_555 1_555
C72_6 C67_6 1_555 1_555
C73_6 C72_6 1_555 1_555
H79_6 C73_6 1_555 1_555
C74_6 C73_6 1_555 1_555
N1_6 C65_6 1_555 1_555
N2_4 C70_6 1_555 1_555
O1_6 C1_6 1_555 1_555
O2_6 C1_6 1_555 1_555
O3_4 C20_6 1_555 1_555
O5_6 C13_6 1_555 1_555
O6_6 C10_6 1_555 1_555
O7_6 C33_6 1_555 1_555
O8_6 C33_6 1_555 1_555
O11_6 C42_6 1_555 1_555
O12_6 C45_6 1_555 1_555
Zn1_4 N1_6 1_555 1_555
Zn2_4 O1_6 1_555 1_555
N3_4 Zn2_4 1_555 1_555
O13_4 Zn2_4 1_555 1_555
O14_4 Zn1_4 1_555 1_555
O15_4 Zn1_4 1_555 1_555
O16_4 Zn2_4 1_555 1_555
Zn7_2 O3_4 1_555 1_555
Zn6_2 N2_4 1_555 1_555
C6_6 C7_6 1_555 1_555
C12_6 C13_6 1_555 1_555
C18_6 C19_6 1_555 1_555
C21_6 O5_6 1_555 1_555
C27_6 O6_6 1_555 1_555
C38_6 C39_6 1_555 1_555
C53_6 O11_6 1_555 1_555
C69_6 N1_6 1_555 1_555
C71_6 C72_6 1_555 1_555
C74_6 N2_4 1_555 1_555
O2_6 Zn1_4 1_555 1_555
O7_6 Zn1_4 1_555 1_555
O8_6 Zn2_4 1_555 1_555
C74_6 H80_6 1_555 1_555
C46_6 H43_6 1_555 1_555
O9_4 C52_6 1_555 1_555
Zn4_4 O9_4 1_555 1_555
C44_6 C43_6 1_555 1_555
H42_6 C44_6 1_555 1_555
H44_6 C47_6 1_555 1_555
C48_6 C43_6 1_555 1_555
C49_6 C48_6 1_555 1_555
H45_6 C49_6 1_555 1_555
C50_6 C49_6 1_555 1_555
H46_6 C50_6 1_555 1_555
C59_6 H60_6 1_555 1_555
H61_6 C59_6 1_555 1_555
C60_6 C59_6 1_555 1_555
H62_6 C60_6 1_555 1_555
H63_6 C60_6 1_555 1_555
C61_6 C60_6 1_555 1_555
H65_6 C61_6 1_555 1_555
C62_6 C61_6 1_555 1_555
H66_6 C62_6 1_555 1_555
H67_6 C62_6 1_555 1_555
C63_6 C62_6 1_555 1_555
H68_6 C63_6 1_555 1_555
H69_6 C63_6 1_555 1_555
Zn7_2 O10_4 1_555 1_555
C47_6 C48_6 1_555 1_555
C50_6 C51_6 1_555 1_555
C65_7 H73_7 1_555 1_555
C66_7 C65_7 1_555 1_555
H74_7 C66_7 1_555 1_555
C67_7 C66_7 1_555 1_555
C68_7 C67_7 1_555 1_555
H75_7 C68_7 1_555 1_555
C69_7 C68_7 1_555 1_555
H76_7 C69_7 1_555 1_555
C70_7 H77_7 1_555 1_555
C71_7 C70_7 1_555 1_555
H78_7 C71_7 1_555 1_555
C72_7 C67_7 1_555 1_555
C73_7 C72_7 1_555 1_555
H79_7 C73_7 1_555 1_555
C74_7 C73_7 1_555 1_555
N1_7 C65_7 1_555 1_555
N3_4 C70_7 1_555 1_555
C69_7 N1_7 1_555 1_555
C71_7 C72_7 1_555 1_555
C74_7 N3_4 1_555 1_555
C74_7 H80_7 1_555 1_555
C1_7 C2_7 1_555 1_555
C2_7 C3_7 1_555 1_555
C3_7 H1_7 1_555 1_555
C4_7 C3_7 1_555 1_555
H2_7 C4_7 1_555 1_555
C5_7 C4_7 1_555 1_555
C6_7 C5_7 1_555 1_555
H3_7 C6_7 1_555 1_555
C7_7 C2_7 1_555 1_555
H4_7 C7_7 1_555 1_555
C8_7 C5_7 1_555 1_555
C13_7 C8_7 1_555 1_555
C21_7 H11_7 1_555 1_555
H12_7 C21_7 1_555 1_555
C22_7 C21_7 1_555 1_555
H13_7 C22_7 1_555 1_555
H14_7 C22_7 1_555 1_555
C23_7 C22_7 1_555 1_555
H15_7 C23_7 1_555 1_555
H16_7 C23_7 1_555 1_555
C24_7 C23_7 1_555 1_555
H17_7 C24_7 1_555 1_555
H18_7 C24_7 1_555 1_555
C25_7 C24_7 1_555 1_555
H19_7 C25_7 1_555 1_555
H20_7 C25_7 1_555 1_555
C26_7 C25_7 1_555 1_555
H21_7 C26_7 1_555 1_555
H22_7 C26_7 1_555 1_555
H23_7 C26_7 1_555 1_555
C33_7 C34_7 1_555 1_555
C34_7 C35_7 1_555 1_555
C35_7 H37_7 1_555 1_555
C36_7 C35_7 1_555 1_555
H38_7 C36_7 1_555 1_555
C37_7 C36_7 1_555 1_555
C38_7 C37_7 1_555 1_555
H39_7 C38_7 1_555 1_555
C39_7 C34_7 1_555 1_555
H40_7 C39_7 1_555 1_555
C40_7 C37_7 1_555 1_555
C41_7 C40_7 1_555 1_555
H41_7 C41_7 1_555 1_555
C42_7 C41_7 1_555 1_555
C43_7 C42_7 1_555 1_555
C44_7 C43_7 1_555 1_555
H42_7 C44_7 1_555 1_555
C45_7 C40_7 1_555 1_555
C46_7 H43_7 1_555 1_555
C47_7 C46_7 1_555 1_555
H44_7 C47_7 1_555 1_555
C48_7 C43_7 1_555 1_555
C49_7 C48_7 1_555 1_555
H45_7 C49_7 1_555 1_555
C50_7 C49_7 1_555 1_555
H46_7 C50_7 1_555 1_555
C51_7 C46_7 1_555 1_555
C52_7 C51_7 1_555 1_555
C53_7 H47_7 1_555 1_555
H48_7 C53_7 1_555 1_555
C54_7 C53_7 1_555 1_555
H49_7 C54_7 1_555 1_555
H50_7 C54_7 1_555 1_555
C55_7 C54_7 1_555 1_555
H51_7 C55_7 1_555 1_555
H52_7 C55_7 1_555 1_555
C56_7 C55_7 1_555 1_555
H53_7 C56_7 1_555 1_555
H54_7 C56_7 1_555 1_555
C57_7 C56_7 1_555 1_555
H56_7 C57_7 1_555 1_555
C58_7 C57_7 1_555 1_555
H57_7 C58_7 1_555 1_555
H58_7 C58_7 1_555 1_555
H59_7 C58_7 1_555 1_555
C59_7 H60_7 1_555 1_555
H61_7 C59_7 1_555 1_555
C60_7 C59_7 1_555 1_555
H62_7 C60_7 1_555 1_555
H63_7 C60_7 1_555 1_555
C61_7 C60_7 1_555 1_555
H64_7 C61_7 1_555 1_555
H65_7 C61_7 1_555 1_555
C62_7 C61_7 1_555 1_555
H66_7 C62_7 1_555 1_555
H67_7 C62_7 1_555 1_555
C63_7 C62_7 1_555 1_555
H68_7 C63_7 1_555 1_555
H69_7 C63_7 1_555 1_555
C64_7 C63_7 1_555 1_555
H70_7 C64_7 1_555 1_555
H71_7 C64_7 1_555 1_555
H72_7 C64_7 1_555 1_555
O1_7 C1_7 1_555 1_555
O2_7 C1_7 1_555 1_555
O5_7 C13_7 1_555 1_555
O7_7 C33_7 1_555 1_555
O8_7 C33_7 1_555 1_555
O15_3 C52_7 1_555 1_555
O16_3 C52_7 1_555 1_555
O11_7 C42_7 1_555 1_555
O12_7 C45_7 1_555 1_555
C6_7 C7_7 1_555 1_555
C21_7 O5_7 1_555 1_555
C38_7 C39_7 1_555 1_555
C44_7 C45_7 1_555 1_555
C47_7 C48_7 1_555 1_555
C50_7 C51_7 1_555 1_555
C53_7 O11_7 1_555 1_555
C59_7 O12_7 1_555 1_555
O2_7 Zn4_3 1_555 1_555
O7_7 Zn4_3 1_555 1_555
H5_7 C9_7 1_555 1_555
C10_7 C9_7 1_555 1_555
C11_7 C10_7 1_555 1_555
C12_7 C11_7 1_555 1_555
H6_7 C12_7 1_555 1_555
C14_7 C11_7 1_555 1_555
C15_7 C14_7 1_555 1_555
H7_7 C15_7 1_555 1_555
C16_7 C15_7 1_555 1_555
H8_7 C16_7 1_555 1_555
C17_7 C16_7 1_555 1_555
C18_7 C17_7 1_555 1_555
H9_7 C18_7 1_555 1_555
C19_7 C14_7 1_555 1_555
H10_7 C19_7 1_555 1_555
C20_7 C17_7 1_555 1_555
C27_7 H24_7 1_555 1_555
H25_7 C27_7 1_555 1_555
O13_3 C20_7 1_555 1_555
O14_3 C20_7 1_555 1_555
O6_7 C10_7 1_555 1_555
C18_7 C19_7 1_555 1_555
C27_7 O6_7 1_555 1_555
C44_8 C43_8 1_555 1_555
H42_8 C44_8 1_555 1_555
C46_8 H43_8 1_555 1_555
C47_8 C46_8 1_555 1_555
H44_8 C47_8 1_555 1_555
C48_8 C43_8 1_555 1_555
C49_8 C48_8 1_555 1_555
H45_8 C49_8 1_555 1_555
C50_8 C49_8 1_555 1_555
H46_8 C50_8 1_555 1_555
C51_8 C46_8 1_555 1_555
C52_8 C51_8 1_555 1_555
C59_8 H60_8 1_555 1_555
H61_8 C59_8 1_555 1_555
C60_8 C59_8 1_555 1_555
H62_8 C60_8 1_555 1_555
H63_8 C60_8 1_555 1_555
C61_8 C60_8 1_555 1_555
H65_8 C61_8 1_555 1_555
C62_8 C61_8 1_555 1_555
H66_8 C62_8 1_555 1_555
H67_8 C62_8 1_555 1_555
C63_8 C62_8 1_555 1_555
H68_8 C63_8 1_555 1_555
H69_8 C63_8 1_555 1_555
O15_4 C52_8 1_555 1_555
O16_4 C52_8 1_555 1_555
C47_8 C48_8 1_555 1_555
C50_8 C51_8 1_555 1_555
C1_8 C2_8 1_555 1_555
C2_8 C3_8 1_555 1_555
C3_8 H1_8 1_555 1_555
C4_8 C3_8 1_555 1_555
H2_8 C4_8 1_555 1_555
C5_8 C4_8 1_555 1_555
C6_8 C5_8 1_555 1_555
H3_8 C6_8 1_555 1_555
C7_8 C2_8 1_555 1_555
H4_8 C7_8 1_555 1_555
C8_8 C5_8 1_555 1_555
C9_8 C8_8 1_555 1_555
H5_8 C9_8 1_555 1_555
C10_8 C9_8 1_555 1_555
C11_8 C10_8 1_555 1_555
C12_8 C11_8 1_555 1_555
H6_8 C12_8 1_555 1_555
C13_8 C8_8 1_555 1_555
C14_8 C11_8 1_555 1_555
C15_8 C14_8 1_555 1_555
H7_8 C15_8 1_555 1_555
C16_8 C15_8 1_555 1_555
H8_8 C16_8 1_555 1_555
C17_8 C16_8 1_555 1_555
C18_8 C17_8 1_555 1_555
H9_8 C18_8 1_555 1_555
C19_8 C14_8 1_555 1_555
H10_8 C19_8 1_555 1_555
C20_8 C17_8 1_555 1_555
C21_8 H11_8 1_555 1_555
H12_8 C21_8 1_555 1_555
C22_8 C21_8 1_555 1_555
H13_8 C22_8 1_555 1_555
H14_8 C22_8 1_555 1_555
C23_8 C22_8 1_555 1_555
H15_8 C23_8 1_555 1_555
H16_8 C23_8 1_555 1_555
C24_8 C23_8 1_555 1_555
H17_8 C24_8 1_555 1_555
H18_8 C24_8 1_555 1_555
C25_8 C24_8 1_555 1_555
H19_8 C25_8 1_555 1_555
H20_8 C25_8 1_555 1_555
C26_8 C25_8 1_555 1_555
H21_8 C26_8 1_555 1_555
H22_8 C26_8 1_555 1_555
H23_8 C26_8 1_555 1_555
C27_8 H24_8 1_555 1_555
H25_8 C27_8 1_555 1_555
C28_6 C27_8 1_555 1_555
H26_6 C28_6 1_555 1_555
H27_8 C28_6 1_555 1_555
C29_6 C28_6 1_555 1_555
H28_6 C29_6 1_555 1_555
H29_6 C29_6 1_555 1_555
C30_6 C29_6 1_555 1_555
H30_6 C30_6 1_555 1_555
H31_6 C30_6 1_555 1_555
C31_6 C30_6 1_555 1_555
H32_6 C31_6 1_555 1_555
H33_6 C31_6 1_555 1_555
C32_6 C31_6 1_555 1_555
H34_6 C32_6 1_555 1_555
H35_6 C32_6 1_555 1_555
H36_6 C32_6 1_555 1_555
C33_8 C34_8 1_555 1_555
C34_8 C35_8 1_555 1_555
C35_8 H37_8 1_555 1_555
C36_8 C35_8 1_555 1_555
H38_8 C36_8 1_555 1_555
C37_8 C36_8 1_555 1_555
C38_8 C37_8 1_555 1_555
H39_8 C38_8 1_555 1_555
C39_8 C34_8 1_555 1_555
H40_8 C39_8 1_555 1_555
C40_8 C37_8 1_555 1_555
C41_8 C40_8 1_555 1_555
H41_8 C41_8 1_555 1_555
C42_8 C41_8 1_555 1_555
C45_8 C40_8 1_555 1_555
C53_8 H47_8 1_555 1_555
H48_8 C53_8 1_555 1_555
C54_8 C53_8 1_555 1_555
H49_8 C54_8 1_555 1_555
H50_8 C54_8 1_555 1_555
C55_8 C54_8 1_555 1_555
H51_8 C55_8 1_555 1_555
H52_8 C55_8 1_555 1_555
C56_8 C55_8 1_555 1_555
H53_8 C56_8 1_555 1_555
H54_8 C56_8 1_555 1_555
C57_8 C56_8 1_555 1_555
H55_7 C57_8 1_555 1_555
H56_8 C57_8 1_555 1_555
C58_8 C57_8 1_555 1_555
H57_8 C58_8 1_555 1_555
H58_8 C58_8 1_555 1_555
H59_8 C58_8 1_555 1_555
H70_8 C64_8 1_555 1_555
H71_8 C64_8 1_555 1_555
H72_8 C64_8 1_555 1_555
C65_8 H73_8 1_555 1_555
C66_8 C65_8 1_555 1_555
H74_8 C66_8 1_555 1_555
C67_8 C66_8 1_555 1_555
C68_8 C67_8 1_555 1_555
H75_8 C68_8 1_555 1_555
C69_8 C68_8 1_555 1_555
H76_8 C69_8 1_555 1_555
C70_8 H77_8 1_555 1_555
C71_8 C70_8 1_555 1_555
H78_8 C71_8 1_555 1_555
C72_8 C67_8 1_555 1_555
C73_8 C72_8 1_555 1_555
H79_8 C73_8 1_555 1_555
C74_8 C73_8 1_555 1_555
N1_8 C65_8 1_555 1_555
N3_3 C70_8 1_555 1_555
O1_8 C1_8 1_555 1_555
O2_8 C1_8 1_555 1_555
O13_4 C20_8 1_555 1_555
O14_4 C20_8 1_555 1_555
O5_8 C13_8 1_555 1_555
O6_8 C10_8 1_555 1_555
O7_8 C33_8 1_555 1_555
O8_8 C33_8 1_555 1_555
O11_8 C42_8 1_555 1_555
O12_8 C45_8 1_555 1_555
Zn4_4 N1_8 1_555 1_555
C6_8 C7_8 1_555 1_555
C12_8 C13_8 1_555 1_555
C18_8 C19_8 1_555 1_555
C21_8 O5_8 1_555 1_555
C27_8 O6_8 1_555 1_555
C38_8 C39_8 1_555 1_555
C53_8 O11_8 1_555 1_555
C69_8 N1_8 1_555 1_555
C71_8 C72_8 1_555 1_555
C74_8 N3_3 1_555 1_555
O2_8 Zn4_4 1_555 1_555
O7_8 Zn4_4 1_555 1_555
C74_8 H80_8 1_555 1_555
H26_7 C28_7 1_555 1_555
C29_7 C28_7 1_555 1_555
H28_7 C29_7 1_555 1_555
H29_7 C29_7 1_555 1_555
C30_7 C29_7 1_555 1_555
H30_7 C30_7 1_555 1_555
H31_7 C30_7 1_555 1_555
C31_7 C30_7 1_555 1_555
H32_7 C31_7 1_555 1_555
H33_7 C31_7 1_555 1_555
C32_7 C31_7 1_555 1_555
H34_7 C32_7 1_555 1_555
H35_7 C32_7 1_555 1_555
H36_7 C32_7 1_555 1_555
H26_8 C28_8 1_555 1_555
C29_8 C28_8 1_555 1_555
H28_8 C29_8 1_555 1_555
H29_8 C29_8 1_555 1_555
C30_8 C29_8 1_555 1_555
H30_8 C30_8 1_555 1_555
H31_8 C30_8 1_555 1_555
H32_8 C31_8 1_555 1_555
C32_8 C31_8 1_555 1_555
H34_8 C32_8 1_555 1_555
H35_8 C32_8 1_555 1_555

#END
