
###############################################################################
#
# This file contains modified crystal structure data generated from the
# MOF subset of the Cambridge Structural Database (CSD) v543 
# hosted by the Cambridge Crystallographic Data Centre (CCDC).
#
# This work is licensed under the Creative Commons
# Attribution-NonCommercial-ShareAlike 4.0 International License.
# To view a copy of this license, visit
# http://creativecommons.org/licenses/by-nc-sa/4.0/
# or send a letter to
# Creative Commons, PO Box 1866, Mountain View, CA 94042, USA.
#
# CIF created using the CSD Python API on 29 September 2022
# The structure has been converted into the P1 space group
# The structure has a 3D framework
# The original CSD entry IBABOF01 is in the orthorhombic crystal system
# The framework has been calculated to contain at least 10.0% void space
# The void calculation uses a probe of radius 1.32A, grid spacing 0.4
# Generated hydrogen atom positions removed from atoms on special positions
#
###############################################################################

data_IBABOF01
_chemical_formula_moiety         '(C120 H92 Co8 N20 O50 S8)n'
_symmetry_cell_setting           triclinic
_symmetry_space_group_name_H-M   'P 1'
_symmetry_Int_Tables_number      1
_space_group_name_Hall           'P 1'
loop_
_symmetry_equiv_pos_site_id
_symmetry_equiv_pos_as_xyz
1 x,y,z
_cell_length_a                   17.9598(8)
_cell_length_b                   21.8386(9)
_cell_length_c                   12.6661(5)
_cell_angle_alpha                90
_cell_angle_beta                 90
_cell_angle_gamma                90
_cell_volume                     4967.86
loop_
_atom_site_label
_atom_site_type_symbol
_atom_site_fract_x
_atom_site_fract_y
_atom_site_fract_z
O4 O 0.1747(4) 0.1393(3) 0.5722(5)
O8 O 0.2986(4) 0.1314(3) 0.5837(5)
C25 C 0.2893(6) 0.0094(5) 0.6474(8)
C26 C 0.1588(6) 0.0136(5) 0.6090(10)
H19 H 0.3352 0.0287 0.6544
C28 C 0.2270(6) 0.0432(4) 0.6163(7)
H20 H 0.1168 0.0359 0.5900
C30 C 0.2341(6) 0.1095(5) 0.5883(8)
Co4 Co 0.16203(6) 0.22853(5) 0.53432(11)
Co6 Co 0.32535(6) 0.22006(5) 0.52574(11)
Co1 Co 0.33797(6) 0.72853(5) 0.03432(11)
Co2 Co 0.17465(6) 0.72006(5) 0.02574(11)
N1 N 0.4438(4) 0.7600(3) 0.0530(6)
O2 O 0.3164(4) 0.7507(3) 0.1954(5)
O6 O 0.1918(4) 0.7482(3) 0.1738(5)
N2 N 0.5618(4) 0.7929(3) 0.0404(7)
N3 N 0.4597(4) 0.7990(4) 0.1382(6)
C3 C 0.2512(6) 0.7555(4) 0.2271(8)
C4 C 0.5307(6) 0.8169(4) 0.1308(7)
C6 C 0.2385(5) 0.7738(4) 0.3419(7)
N5 N 0.5652(5) 0.8540(4) 0.1976(6)
C9 C 0.2986(6) 0.7793(5) 0.4083(8)
C10 C 0.1671(6) 0.7848(5) 0.3790(9)
H3 H 0.5416 0.8686 0.2511
H4 H 0.6111 0.8634 0.1876
H7 H 0.3463 0.7712 0.3833
C13 C 0.2884(6) 0.7970(5) 0.5131(8)
C14 C 0.1566(6) 0.8029(5) 0.4839(8)
H8 H 0.1263 0.7802 0.3344
H11 H 0.3289 0.8001 0.5585
C16 C 0.2181(6) 0.8099(4) 0.5481(8)
H12 H 0.1089 0.8100 0.5099
S2 S 0.20597(15) 0.83886(11) 0.67811(19)
O11 O 0.1306(4) 0.8255(3) 0.7109(5)
O12 O 0.2679(4) 0.8190(3) 0.7417(5)
C18 C 0.2144(6) 0.9191(5) 0.6583(8)
C21 C 0.2833(6) 0.9470(5) 0.6679(8)
C22 C 0.1522(7) 0.9526(5) 0.6290(11)
H15 H 0.3249 0.9244 0.6877
H16 H 0.1061 0.9335 0.6231
Co7 Co 0.67465(6) 0.77994(5) 0.02574(11)
O13 O 0.2866(4) 0.8076(3) 0.0020(5)
O14 O 0.3253(4) 0.6393(3) 0.0722(5)
N6 N 0.0618(4) 0.7071(3) 0.0404(7)
O16 O 0.2014(4) 0.6314(3) 0.0837(5)
O1 O 0.3455(4) 0.7032(3) 0.8780(5)
O3 O 0.2134(4) 0.3076(3) 0.5020(5)
O5 O 0.2221(4) 0.6934(3) 0.8920(5)
O7 O 0.3353(4) 0.3086(3) 0.4732(5)
C1 C 0.5056(5) 0.7595(4) 0.9977(7)
C2 C 0.2814(5) 0.6919(4) 0.8400(7)
N4 N 0.5129(5) 0.7311(4) 0.9034(6)
C5 C 0.2756(5) 0.6719(4) 0.7273(7)
H1 H 0.4757 0.7120 0.8763
H2 H 0.5548 0.7323 0.8705
C7 C 0.2055(6) 0.6669(5) 0.6821(8)
C8 C 0.3386(5) 0.6590(4) 0.6681(7)
H5 H 0.1635 0.6769 0.7212
C11 C 0.1981(6) 0.6471(5) 0.5795(8)
C12 C 0.3326(6) 0.6396(5) 0.5663(8)
H6 H 0.3855 0.6635 0.6983
H9 H 0.1512 0.6426 0.5493
C15 C 0.2611(5) 0.6341(4) 0.5226(9)
H10 H 0.3747 0.6302 0.5268
S1 S 0.25130(16) 0.60461(11) 0.3915(2)
O9 O 0.1778(4) 0.6192(3) 0.3544(5)
O10 O 0.3144(4) 0.6238(3) 0.3298(5)
C17 C 0.2573(6) 0.5245(4) 0.4120(7)
C19 C 0.1933(6) 0.4931(4) 0.4377(7)
C20 C 0.3259(6) 0.4960(5) 0.4043(8)
H13 H 0.1476 0.5130 0.4423
C23 C 0.1992(6) 0.4302(5) 0.4564(8)
C24 C 0.3307(6) 0.4339(4) 0.4246(7)
H14 H 0.3681 0.5182 0.3859
H17 H 0.1568 0.4078 0.4731
C27 C 0.2672(6) 0.4010(5) 0.4507(7)
H18 H 0.3765 0.4142 0.4208
C29 C 0.2719(6) 0.3350(4) 0.4758(8)
O15 O 0.1647(4) 0.8086(3) 0.9732(5)
Co1_2 Co 0.66203(6) 0.27147(5) 0.53432(11)
Co2_2 Co 0.82535(6) 0.27994(5) 0.52574(11)
N1_2 N 0.5562(4) 0.2400(3) 0.5530(6)
O1_2 O 0.6545(4) 0.2968(3) 0.3780(5)
O2_2 O 0.6836(4) 0.2493(3) 0.6954(5)
O3_2 O 0.7866(4) 0.6924(3) 0.0020(5)
O5_2 O 0.7779(4) 0.3066(3) 0.3920(5)
O6_2 O 0.8082(4) 0.2518(3) 0.6738(5)
N2_2 N 0.4382(4) 0.2071(3) 0.5404(7)
N3_2 N 0.5403(4) 0.2010(4) 0.6382(6)
C1_2 C 0.4944(5) 0.2405(4) 0.4977(7)
C2_2 C 0.7186(5) 0.3081(4) 0.3400(7)
C3_2 C 0.7488(6) 0.2445(4) 0.7271(8)
C4_2 C 0.4693(6) 0.1831(4) 0.6308(7)
N4_2 N 0.4871(5) 0.2689(4) 0.4034(6)
C5_2 C 0.7244(5) 0.3281(4) 0.2273(7)
C6_2 C 0.7615(5) 0.2262(4) 0.8419(7)
N5_2 N 0.4348(5) 0.1460(4) 0.6976(6)
H1_2 H 0.5243 0.2880 0.3763
H2_2 H 0.4452 0.2677 0.3705
C7_2 C 0.7945(6) 0.3331(5) 0.1821(8)
C8_2 C 0.6614(5) 0.3410(4) 0.1681(7)
C9_2 C 0.7014(6) 0.2207(5) 0.9083(8)
C10_2 C 0.8329(6) 0.2152(5) 0.8790(9)
H3_2 H 0.4584 0.1314 0.7511
H4_2 H 0.3889 0.1366 0.6876
H5_2 H 0.8365 0.3231 0.2212
C11_2 C 0.8019(6) 0.3529(5) 0.0795(8)
C12_2 C 0.6674(6) 0.3604(5) 0.0663(8)
H6_2 H 0.6145 0.3365 0.1983
H7_2 H 0.6537 0.2288 0.8833
C14_2 C 0.8434(6) 0.1971(5) 0.9839(8)
H8_2 H 0.8737 0.2198 0.8344
H9_2 H 0.8488 0.3574 0.0493
C15_2 C 0.7389(5) 0.3659(4) 0.0226(9)
H10_2 H 0.6253 0.3698 0.0268
Co3 Co 0.83797(6) 0.77147(5) 0.03432(11)
O13_2 O 0.7134(4) 0.1924(3) 0.5020(5)
O14_2 O 0.6747(4) 0.3607(3) 0.5722(5)
N6_2 N 0.9382(4) 0.2929(3) 0.5404(7)
O15_2 O 0.8353(4) 0.1914(3) 0.4732(5)
O16_2 O 0.7986(4) 0.3686(3) 0.5837(5)
O4_2 O 0.8253(4) 0.8607(3) 0.0722(5)
O8_2 O 0.7014(4) 0.8686(3) 0.0837(5)
C25_2 C 0.7107(6) 0.9906(5) 0.1474(8)
C26_2 C 0.8412(6) 0.9864(5) 0.1090(10)
H19_2 H 0.6648 0.9713 0.1544
C28_2 C 0.7730(6) 0.9568(4) 0.1163(7)
H20_2 H 0.8832 0.9641 0.0900
C30_2 C 0.7659(6) 0.8905(5) 0.0883(8)
C13_2 C 0.2116(6) 0.2970(5) 0.0131(8)
H11_2 H 0.1711 0.3001 0.0585
C16_2 C 0.2819(6) 0.3099(4) 0.0481(8)
H12_2 H 0.3911 0.3100 0.0099
S2_2 S 0.29403(15) 0.33886(11) 0.17811(19)
O11_2 O 0.3694(4) 0.3255(3) 0.2109(5)
O12_2 O 0.2321(4) 0.3190(3) 0.2417(5)
C18_2 C 0.2856(6) 0.4191(5) 0.1583(8)
C21_2 C 0.2167(6) 0.4470(5) 0.1679(8)
C22_2 C 0.3478(7) 0.4526(5) 0.1290(11)
H15_2 H 0.1751 0.4244 0.1877
C25_3 C 0.2107(6) 0.5094(5) 0.1474(8)
C26_3 C 0.3412(6) 0.5136(5) 0.1090(10)
H16_2 H 0.3939 0.4335 0.1231
H19_3 H 0.1648 0.5287 0.1544
C28_3 C 0.2730(6) 0.5432(4) 0.1163(7)
H20_3 H 0.3832 0.5359 0.0900
C30_3 C 0.2659(6) 0.6095(5) 0.0883(8)
N1_3 N 0.0562(4) 0.2600(3) 0.5530(6)
O1_3 O 0.1545(4) 0.2032(3) 0.3780(5)
O2_3 O 0.1836(4) 0.2507(3) 0.6954(5)
O5_3 O 0.2779(4) 0.1934(3) 0.3920(5)
O6_3 O 0.3082(4) 0.2482(3) 0.6738(5)
N3_3 N 0.0403(4) 0.2990(4) 0.6382(6)
C2_3 C 0.2186(5) 0.1919(4) 0.3400(7)
C3_3 C 0.2488(6) 0.2555(4) 0.7271(8)
C5_3 C 0.2244(5) 0.1719(4) 0.2273(7)
C6_3 C 0.2615(5) 0.2738(4) 0.8419(7)
H1_3 H 0.0243 0.2120 0.3763
C7_3 C 0.2945(6) 0.1669(5) 0.1821(8)
C8_3 C 0.1614(5) 0.1590(4) 0.1681(7)
C9_3 C 0.2014(6) 0.2793(5) 0.9083(8)
C10_3 C 0.3329(6) 0.2848(5) 0.8790(9)
H5_3 H 0.3365 0.1769 0.2212
C11_3 C 0.3019(6) 0.1471(5) 0.0795(8)
C12_3 C 0.1674(6) 0.1396(5) 0.0663(8)
H6_3 H 0.1145 0.1635 0.1983
H7_3 H 0.1537 0.2712 0.8833
C14_3 C 0.3434(6) 0.3029(5) 0.9839(8)
H8_3 H 0.3737 0.2802 0.8344
H9_3 H 0.3488 0.1426 0.0493
C15_3 C 0.2389(5) 0.1341(4) 0.0226(9)
H10_3 H 0.1253 0.1302 0.0268
C19_2 C 0.3067(6) 0.9931(4) 0.9377(7)
C20_2 C 0.1741(6) 0.9960(5) 0.9043(8)
C23_2 C 0.3008(6) 0.9302(5) 0.9564(8)
C24_2 C 0.1693(6) 0.9339(4) 0.9246(7)
H17_2 H 0.3432 0.9078 0.9731
C27_2 C 0.2328(6) 0.9010(5) 0.9507(7)
H18_2 H 0.1235 0.9142 0.9208
C29_2 C 0.2281(6) 0.8350(4) 0.9758(8)
C1_3 C 0.9944(5) 0.2595(4) 0.4977(7)
C4_3 C 0.9693(6) 0.3169(4) 0.6308(7)
N4_3 N 0.9871(5) 0.2311(4) 0.4034(6)
N5_3 N 0.9348(5) 0.3540(4) 0.6976(6)
H2_3 H 0.9452 0.2323 0.3705
H3_3 H 0.9584 0.3686 0.7511
H4_3 H 0.8889 0.3634 0.6876
C4_4 C 0.0307(6) 0.6831(4) 0.1308(7)
N5_4 N 0.0652(5) 0.6460(4) 0.1976(6)
H3_4 H 0.0416 0.6314 0.2511
H4_4 H 0.1111 0.6366 0.1876
C19_3 C 0.6933(6) 0.0069(4) 0.4377(7)
C20_3 C 0.8259(6) 0.0040(5) 0.4043(8)
C23_3 C 0.6992(6) 0.0698(5) 0.4564(8)
C24_3 C 0.8307(6) 0.0661(4) 0.4246(7)
H17_3 H 0.6568 0.0922 0.4731
C27_3 C 0.7672(6) 0.0990(5) 0.4507(7)
H18_3 H 0.8765 0.0858 0.4208
C29_3 C 0.7719(6) 0.1650(4) 0.4758(8)
N1_4 N 0.9438(4) 0.7400(3) 0.0530(6)
O2_4 O 0.8164(4) 0.7493(3) 0.1954(5)
O6_4 O 0.6918(4) 0.7518(3) 0.1738(5)
N3_4 N 0.9597(4) 0.7010(4) 0.1382(6)
C3_4 C 0.7512(6) 0.7445(4) 0.2271(8)
C6_4 C 0.7385(5) 0.7262(4) 0.3419(7)
C9_4 C 0.7986(6) 0.7207(5) 0.4083(8)
C10_4 C 0.6671(6) 0.7152(5) 0.3790(9)
H7_4 H 0.8463 0.7288 0.3833
C13_3 C 0.7884(6) 0.7030(5) 0.5131(8)
C14_4 C 0.6566(6) 0.6971(5) 0.4839(8)
H8_4 H 0.6263 0.7198 0.3344
H11_3 H 0.8289 0.6999 0.5585
C16_3 C 0.7181(6) 0.6901(4) 0.5481(8)
H12_3 H 0.6089 0.6900 0.5099
S2_3 S 0.70597(15) 0.66114(11) 0.67811(19)
O11_3 O 0.6306(4) 0.6745(3) 0.7109(5)
O12_3 O 0.7679(4) 0.6810(3) 0.7417(5)
C18_3 C 0.7144(6) 0.5809(5) 0.6583(8)
C21_3 C 0.7833(6) 0.5530(5) 0.6679(8)
C22_3 C 0.6522(7) 0.5474(5) 0.6290(11)
H15_3 H 0.8249 0.5756 0.6877
C25_4 C 0.7893(6) 0.4906(5) 0.6474(8)
C26_4 C 0.6588(6) 0.4864(5) 0.6090(10)
H16_3 H 0.6061 0.5665 0.6231
H19_4 H 0.8352 0.4713 0.6544
C28_4 C 0.7270(6) 0.4568(4) 0.6163(7)
H20_4 H 0.6168 0.4641 0.5900
C30_4 C 0.7341(6) 0.3905(5) 0.5883(8)
C13_4 C 0.7116(6) 0.2030(5) 0.0131(8)
H11_4 H 0.6711 0.1999 0.0585
C16_4 C 0.7819(6) 0.1901(4) 0.0481(8)
H12_4 H 0.8911 0.1900 0.0099
S2_4 S 0.79403(15) 0.16114(11) 0.17811(19)
O11_4 O 0.8694(4) 0.1745(3) 0.2109(5)
O12_4 O 0.7321(4) 0.1810(3) 0.2417(5)
C18_4 C 0.7856(6) 0.0809(5) 0.1583(8)
C21_4 C 0.7167(6) 0.0530(5) 0.1679(8)
C22_4 C 0.8478(7) 0.0474(5) 0.1290(11)
H15_4 H 0.6751 0.0756 0.1877
H16_4 H 0.8939 0.0665 0.1231
O7_2 O 0.6647(4) 0.6914(3) 0.9732(5)
S1_2 S 0.74870(16) 0.39539(11) 0.8915(2)
O9_2 O 0.8222(4) 0.3808(3) 0.8544(5)
O10_2 O 0.6856(4) 0.3762(3) 0.8298(5)
C17_2 C 0.7427(6) 0.4755(4) 0.9120(7)
C19_4 C 0.8067(6) 0.5069(4) 0.9377(7)
C20_4 C 0.6741(6) 0.5040(5) 0.9043(8)
H13_2 H 0.8524 0.4870 0.9423
C23_4 C 0.8008(6) 0.5698(5) 0.9564(8)
C24_4 C 0.6693(6) 0.5661(4) 0.9246(7)
H14_2 H 0.6319 0.4818 0.8859
H17_4 H 0.8432 0.5922 0.9731
C27_4 C 0.7328(6) 0.5990(5) 0.9507(7)
H18_4 H 0.6235 0.5858 0.9208
C29_4 C 0.7281(6) 0.6650(4) 0.9758(8)
O1_4 O 0.8455(4) 0.7968(3) 0.8780(5)
O5_4 O 0.7221(4) 0.8066(3) 0.8920(5)
C2_4 C 0.7814(5) 0.8081(4) 0.8400(7)
C5_4 C 0.7756(5) 0.8281(4) 0.7273(7)
H1_4 H 0.9757 0.7880 0.8763
C7_4 C 0.7055(6) 0.8331(5) 0.6821(8)
C8_4 C 0.8386(5) 0.8410(4) 0.6681(7)
H5_4 H 0.6635 0.8231 0.7212
C11_4 C 0.6981(6) 0.8529(5) 0.5795(8)
C12_4 C 0.8326(6) 0.8604(5) 0.5663(8)
H6_4 H 0.8855 0.8365 0.6983
H9_4 H 0.6512 0.8574 0.5493
C15_4 C 0.7611(5) 0.8659(4) 0.5226(9)
H10_4 H 0.8747 0.8698 0.5268
S1_3 S 0.75130(16) 0.89539(11) 0.3915(2)
O9_3 O 0.6778(4) 0.8808(3) 0.3544(5)
O10_3 O 0.8144(4) 0.8762(3) 0.3298(5)
C17_3 C 0.7573(6) 0.9755(4) 0.4120(7)
H13_3 H 0.6476 0.9870 0.4423
H14_3 H 0.8681 0.9818 0.3859
S1_4 S 0.24870(16) 0.10461(11) 0.8915(2)
O9_4 O 0.3222(4) 0.1192(3) 0.8544(5)
O10_4 O 0.1856(4) 0.1238(3) 0.8298(5)
C17_4 C 0.2427(6) 0.0245(4) 0.9120(7)
H13_4 H 0.3524 0.0130 0.9423
H14_4 H 0.1319 0.0182 0.8859
C1_4 C 0.0056(5) 0.7405(4) 0.9977(7)
N4_4 N 0.0129(5) 0.7689(4) 0.9034(6)
H2_4 H 0.0548 0.7677 0.8705
O17 O 0.5473(3) 0.6431(3) 0.1414(5)
O17_2 O 0.4527(3) 0.3569(3) 0.6414(5)
O17_3 O 0.9527(3) 0.1431(3) 0.6414(5)
O17_4 O 0.0473(3) 0.8569(3) 0.1414(5)
loop_
_geom_bond_atom_site_label_1
_geom_bond_atom_site_label_2
_geom_bond_site_symmetry_1
_geom_bond_site_symmetry_2
O4 C30 1_555 1_555
O8 C30 1_555 1_555
H19 C25 1_555 1_555
C28 C25 1_555 1_555
H20 C26 1_555 1_555
C30 C28 1_555 1_555
Co4 O4 1_555 1_555
Co6 O8 1_555 1_555
C26 C28 1_555 1_555
Co1 N1 1_555 1_555
N1 N3 1_555 1_555
O2 Co1 1_555 1_555
O6 Co2 1_555 1_555
N3 C4 1_555 1_555
C3 O2 1_555 1_555
C4 N2 1_555 1_555
C6 C3 1_555 1_555
N5 C4 1_555 1_555
C9 C6 1_555 1_555
C10 C6 1_555 1_555
H3 N5 1_555 1_555
H4 N5 1_555 1_555
H7 C9 1_555 1_555
C13 C9 1_555 1_555
C14 C10 1_555 1_555
H8 C10 1_555 1_555
H11 C13 1_555 1_555
C16 C13 1_555 1_555
H12 C14 1_555 1_555
S2 C16 1_555 1_555
O11 S2 1_555 1_555
O12 S2 1_555 1_555
C18 S2 1_555 1_555
C21 C18 1_555 1_555
C22 C18 1_555 1_555
H15 C21 1_555 1_555
H16 C22 1_555 1_555
Co7 N2 1_555 1_555
O13 Co1 1_555 1_555
O14 Co1 1_555 1_555
N6 Co2 1_555 1_555
O16 Co2 1_555 1_555
O6 C3 1_555 1_555
C14 C16 1_555 1_555
O3 C29 1_555 1_555
O5 C2 1_555 1_555
O7 C29 1_555 1_555
C2 O1 1_555 1_555
N4 C1 1_555 1_555
C5 C2 1_555 1_555
H1 N4 1_555 1_555
H2 N4 1_555 1_555
C7 C5 1_555 1_555
C8 C5 1_555 1_555
H5 C7 1_555 1_555
C11 C7 1_555 1_555
C12 C8 1_555 1_555
H6 C8 1_555 1_555
H9 C11 1_555 1_555
C15 C11 1_555 1_555
H10 C12 1_555 1_555
S1 C15 1_555 1_555
O9 S1 1_555 1_555
O10 S1 1_555 1_555
C17 S1 1_555 1_555
C19 C17 1_555 1_555
C20 C17 1_555 1_555
H13 C19 1_555 1_555
C23 C19 1_555 1_555
C24 C20 1_555 1_555
H14 C20 1_555 1_555
H17 C23 1_555 1_555
C27 C23 1_555 1_555
H18 C24 1_555 1_555
C29 C27 1_555 1_555
Co4 O3 1_555 1_555
Co6 O7 1_555 1_555
C12 C15 1_555 1_555
C24 C27 1_555 1_555
Co1_2 N1_2 1_555 1_555
Co2_2 O5_2 1_555 1_555
N1_2 N3_2 1_555 1_555
O1_2 Co1_2 1_555 1_555
O2_2 Co1_2 1_555 1_555
O5_2 C2_2 1_555 1_555
O6_2 Co2_2 1_555 1_555
N2_2 C1_2 1_555 1_555
N3_2 C4_2 1_555 1_555
C1_2 N1_2 1_555 1_555
C2_2 O1_2 1_555 1_555
C3_2 O2_2 1_555 1_555
C4_2 N2_2 1_555 1_555
N4_2 C1_2 1_555 1_555
C5_2 C2_2 1_555 1_555
C6_2 C3_2 1_555 1_555
N5_2 C4_2 1_555 1_555
H1_2 N4_2 1_555 1_555
H2_2 N4_2 1_555 1_555
C7_2 C5_2 1_555 1_555
C8_2 C5_2 1_555 1_555
C9_2 C6_2 1_555 1_555
C10_2 C6_2 1_555 1_555
H3_2 N5_2 1_555 1_555
H4_2 N5_2 1_555 1_555
H5_2 C7_2 1_555 1_555
C11_2 C7_2 1_555 1_555
C12_2 C8_2 1_555 1_555
H6_2 C8_2 1_555 1_555
H7_2 C9_2 1_555 1_555
C14_2 C10_2 1_555 1_555
H8_2 C10_2 1_555 1_555
H9_2 C11_2 1_555 1_555
C15_2 C11_2 1_555 1_555
H10_2 C12_2 1_555 1_555
Co3 O3_2 1_555 1_555
Co6 N2_2 1_555 1_555
O13_2 Co1_2 1_555 1_555
O14_2 Co1_2 1_555 1_555
N6_2 Co2_2 1_555 1_555
O15_2 Co2_2 1_555 1_555
O16_2 Co2_2 1_555 1_555
O6_2 C3_2 1_555 1_555
C12_2 C15_2 1_555 1_555
O4_2 C30_2 1_555 1_555
O8_2 C30_2 1_555 1_555
H19_2 C25_2 1_555 1_555
C28_2 C25_2 1_555 1_555
H20_2 C26_2 1_555 1_555
C30_2 C28_2 1_555 1_555
Co3 O4_2 1_555 1_555
Co7 O8_2 1_555 1_555
C26_2 C28_2 1_555 1_555
O14 C30_3 1_555 1_555
O16 C30_3 1_555 1_555
H11_2 C13_2 1_555 1_555
C16_2 C13_2 1_555 1_555
S2_2 C16_2 1_555 1_555
O11_2 S2_2 1_555 1_555
O12_2 S2_2 1_555 1_555
C18_2 S2_2 1_555 1_555
C21_2 C18_2 1_555 1_555
C22_2 C18_2 1_555 1_555
H15_2 C21_2 1_555 1_555
C25_3 C21_2 1_555 1_555
C26_3 C22_2 1_555 1_555
H16_2 C22_2 1_555 1_555
H19_3 C25_3 1_555 1_555
C28_3 C25_3 1_555 1_555
H20_3 C26_3 1_555 1_555
C30_3 C28_3 1_555 1_555
C26_3 C28_3 1_555 1_555
Co4 N1_3 1_555 1_555
Co6 O5_3 1_555 1_555
N1_3 N3_3 1_555 1_555
O1_3 Co4 1_555 1_555
O2_3 Co4 1_555 1_555
O5_3 C2_3 1_555 1_555
O6_3 Co6 1_555 1_555
C2_3 O1_3 1_555 1_555
C3_3 O2_3 1_555 1_555
C5_3 C2_3 1_555 1_555
C6_3 C3_3 1_555 1_555
C7_3 C5_3 1_555 1_555
C8_3 C5_3 1_555 1_555
C9_3 C6_3 1_555 1_555
C10_3 C6_3 1_555 1_555
H5_3 C7_3 1_555 1_555
C11_3 C7_3 1_555 1_555
C12_3 C8_3 1_555 1_555
H6_3 C8_3 1_555 1_555
H7_3 C9_3 1_555 1_555
C14_3 C10_3 1_555 1_555
H8_3 C10_3 1_555 1_555
H9_3 C11_3 1_555 1_555
C15_3 C11_3 1_555 1_555
H10_3 C12_3 1_555 1_555
O6_3 C3_3 1_555 1_555
C12_3 C15_3 1_555 1_555
O15 C29_2 1_555 1_555
C23_2 C19_2 1_555 1_555
C24_2 C20_2 1_555 1_555
H17_2 C23_2 1_555 1_555
C27_2 C23_2 1_555 1_555
H18_2 C24_2 1_555 1_555
C29_2 C27_2 1_555 1_555
C24_2 C27_2 1_555 1_555
N6_2 C1_3 1_555 1_555
C4_3 N6_2 1_555 1_555
N4_3 C1_3 1_555 1_555
N5_3 C4_3 1_555 1_555
H2_3 N4_3 1_555 1_555
H3_3 N5_3 1_555 1_555
H4_3 N5_3 1_555 1_555
C4_4 N6 1_555 1_555
N5_4 C4_4 1_555 1_555
H3_4 N5_4 1_555 1_555
H4_4 N5_4 1_555 1_555
O13_2 C29_3 1_555 1_555
O15_2 C29_3 1_555 1_555
C23_3 C19_3 1_555 1_555
C24_3 C20_3 1_555 1_555
H17_3 C23_3 1_555 1_555
C27_3 C23_3 1_555 1_555
H18_3 C24_3 1_555 1_555
C29_3 C27_3 1_555 1_555
C24_3 C27_3 1_555 1_555
Co3 N1_4 1_555 1_555
N1_4 N3_4 1_555 1_555
O2_4 Co3 1_555 1_555
O14_2 C30_4 1_555 1_555
O6_4 Co7 1_555 1_555
O16_2 C30_4 1_555 1_555
C3_4 O2_4 1_555 1_555
C6_4 C3_4 1_555 1_555
C9_4 C6_4 1_555 1_555
C10_4 C6_4 1_555 1_555
H7_4 C9_4 1_555 1_555
C13_3 C9_4 1_555 1_555
C14_4 C10_4 1_555 1_555
H8_4 C10_4 1_555 1_555
H11_3 C13_3 1_555 1_555
C16_3 C13_3 1_555 1_555
H12_3 C14_4 1_555 1_555
S2_3 C16_3 1_555 1_555
O11_3 S2_3 1_555 1_555
O12_3 S2_3 1_555 1_555
C18_3 S2_3 1_555 1_555
C21_3 C18_3 1_555 1_555
C22_3 C18_3 1_555 1_555
H15_3 C21_3 1_555 1_555
C25_4 C21_3 1_555 1_555
C26_4 C22_3 1_555 1_555
H16_3 C22_3 1_555 1_555
H19_4 C25_4 1_555 1_555
C28_4 C25_4 1_555 1_555
H20_4 C26_4 1_555 1_555
C30_4 C28_4 1_555 1_555
O6_4 C3_4 1_555 1_555
C14_4 C16_3 1_555 1_555
C26_4 C28_4 1_555 1_555
H11_4 C13_4 1_555 1_555
C16_4 C13_4 1_555 1_555
S2_4 C16_4 1_555 1_555
O11_4 S2_4 1_555 1_555
O12_4 S2_4 1_555 1_555
C18_4 S2_4 1_555 1_555
C21_4 C18_4 1_555 1_555
C22_4 C18_4 1_555 1_555
H15_4 C21_4 1_555 1_555
H16_4 C22_4 1_555 1_555
O7_2 C29_4 1_555 1_555
O9_2 S1_2 1_555 1_555
O10_2 S1_2 1_555 1_555
C17_2 S1_2 1_555 1_555
C19_4 C17_2 1_555 1_555
C20_4 C17_2 1_555 1_555
H13_2 C19_4 1_555 1_555
C23_4 C19_4 1_555 1_555
C24_4 C20_4 1_555 1_555
H14_2 C20_4 1_555 1_555
H17_4 C23_4 1_555 1_555
C27_4 C23_4 1_555 1_555
H18_4 C24_4 1_555 1_555
C29_4 C27_4 1_555 1_555
C24_4 C27_4 1_555 1_555
O5_4 C2_4 1_555 1_555
C2_4 O1_4 1_555 1_555
C5_4 C2_4 1_555 1_555
C7_4 C5_4 1_555 1_555
C8_4 C5_4 1_555 1_555
H5_4 C7_4 1_555 1_555
C11_4 C7_4 1_555 1_555
C12_4 C8_4 1_555 1_555
H6_4 C8_4 1_555 1_555
H9_4 C11_4 1_555 1_555
C15_4 C11_4 1_555 1_555
H10_4 C12_4 1_555 1_555
S1_3 C15_4 1_555 1_555
O9_3 S1_3 1_555 1_555
O10_3 S1_3 1_555 1_555
C17_3 S1_3 1_555 1_555
C12_4 C15_4 1_555 1_555
O9_4 S1_4 1_555 1_555
O10_4 S1_4 1_555 1_555
C17_4 S1_4 1_555 1_555
N4_4 C1_4 1_555 1_555
H2_4 N4_4 1_555 1_555

#END
