
###############################################################################
#
# This file contains modified crystal structure data generated from the
# MOF subset of the Cambridge Structural Database (CSD) v543 
# hosted by the Cambridge Crystallographic Data Centre (CCDC).
#
# This work is licensed under the Creative Commons
# Attribution-NonCommercial-ShareAlike 4.0 International License.
# To view a copy of this license, visit
# http://creativecommons.org/licenses/by-nc-sa/4.0/
# or send a letter to
# Creative Commons, PO Box 1866, Mountain View, CA 94042, USA.
#
# CIF created using the CSD Python API on 29 September 2022
# The structure has been converted into the P1 space group
# The structure has a 3D framework
# The original CSD entry IBABOF is in the orthorhombic crystal system
# The framework has been calculated to contain at least 10.0% void space
# The void calculation uses a probe of radius 1.32A, grid spacing 0.4
# Generated hydrogen atom positions removed from atoms on special positions
#
###############################################################################

data_IBABOF
_chemical_formula_moiety         '(C120 H92 Co8 N20 O50 S8)n'
_symmetry_cell_setting           triclinic
_symmetry_space_group_name_H-M   'P 1'
_symmetry_Int_Tables_number      1
_space_group_name_Hall           'P 1'
loop_
_symmetry_equiv_pos_site_id
_symmetry_equiv_pos_as_xyz
1 x,y,z
_cell_length_a                   17.9697(6)
_cell_length_b                   21.8405(7)
_cell_length_c                   12.6666(3)
_cell_angle_alpha                90
_cell_angle_beta                 90
_cell_angle_gamma                90
_cell_volume                     4971.23
loop_
_atom_site_label
_atom_site_type_symbol
_atom_site_fract_x
_atom_site_fract_y
_atom_site_fract_z
O2 O 0.1750(3) 0.1404(2) 0.5720(4)
O8 O 0.2982(3) 0.1331(2) 0.5830(4)
C24 C 0.2901(4) 0.0105(3) 0.6450(6)
H14 H 0.3363 0.0297 0.6497
C25 C 0.2277(4) 0.0441(3) 0.6166(6)
C26 C 0.1594(5) 0.0156(4) 0.6107(8)
H15 H 0.1174 0.0383 0.5928
C28 C 0.2345(4) 0.1114(3) 0.5889(5)
Co4 Co 0.16270(5) 0.22967(4) 0.53428(8)
Co6 Co 0.32582(5) 0.22165(4) 0.52627(8)
Co1 Co 0.33730(5) 0.72967(4) 0.03428(8)
Co2 Co 0.17418(5) 0.72165(4) 0.02627(8)
S2 S 0.20725(12) 0.84057(9) 0.67729(14)
N1 N 0.4430(3) 0.7603(3) 0.0526(4)
N2 N 0.5616(3) 0.7920(2) 0.0415(5)
N3 N 0.4598(3) 0.7995(3) 0.1376(5)
N5 N 0.5645(4) 0.8529(3) 0.1980(5)
O4 O 0.3158(3) 0.7524(2) 0.1947(4)
O6 O 0.1916(3) 0.7492(2) 0.1743(4)
O11 O 0.1318(3) 0.8271(2) 0.7110(4)
O12 O 0.2685(3) 0.8206(2) 0.7406(4)
C15 C 0.2500(4) 0.7573(3) 0.2273(6)
C16 C 0.2385(4) 0.7756(3) 0.3415(5)
C17 C 0.2990(5) 0.7828(4) 0.4069(6)
H9 H 0.3469 0.7764 0.3812
C18 C 0.2880(5) 0.7999(4) 0.5122(6)
H10 H 0.3284 0.8032 0.5578
C19 C 0.2186(4) 0.8115(3) 0.5472(6)
C20 C 0.1568(5) 0.8039(4) 0.4834(6)
H11 H 0.1091 0.8109 0.5094
C21 C 0.1674(4) 0.7855(4) 0.3798(6)
H12 H 0.1266 0.7798 0.3358
C22 C 0.2151(5) 0.9203(3) 0.6582(5)
C23 C 0.2838(5) 0.9484(4) 0.6664(6)
H13 H 0.3254 0.9259 0.6862
C27 C 0.1525(5) 0.9537(4) 0.6310(8)
H16 H 0.1063 0.9346 0.6264
C30 C 0.5306(4) 0.8162(3) 0.1300(6)
H19 H 0.549(6) 0.862(5) 0.265(8)
H20 H 0.6116(11) 0.857(5) 0.199(8)
Co7 Co 0.67418(5) 0.77835(4) 0.02627(8)
N6 N 0.0616(3) 0.7080(2) 0.0415(5)
O13 O 0.2866(3) 0.8091(2) 0.0009(4)
O14 O 0.3250(3) 0.6404(2) 0.0720(4)
O16 O 0.2018(3) 0.6331(2) 0.0830(4)
S1 S 0.25065(12) 0.60570(9) 0.39188(14)
N4 N 0.5130(4) 0.7311(3) 0.9027(5)
O1 O 0.2134(3) 0.3091(2) 0.5009(4)
O3 O 0.3445(3) 0.7041(2) 0.8779(4)
O5 O 0.2209(3) 0.6948(2) 0.8922(4)
O7 O 0.3359(3) 0.3100(2) 0.4734(4)
O9 O 0.1773(3) 0.6202(2) 0.3556(4)
O10 O 0.3133(3) 0.6249(2) 0.3311(4)
C1 C 0.2811(4) 0.6931(3) 0.8409(5)
C2 C 0.2744(4) 0.6730(3) 0.7275(5)
C3 C 0.2050(4) 0.6673(4) 0.6817(6)
H1 H 0.1627 0.6767 0.7208
C4 C 0.1976(4) 0.6479(4) 0.5791(6)
H2 H 0.1508 0.6437 0.5488
C5 C 0.2607(4) 0.6348(3) 0.5216(7)
C6 C 0.3314(4) 0.6408(4) 0.5656(6)
H3 H 0.3737 0.6316 0.5264
C7 C 0.3373(4) 0.6608(4) 0.6687(6)
H4 H 0.3840 0.6660 0.6989
C8 C 0.2572(5) 0.5251(3) 0.4115(6)
C9 C 0.1931(4) 0.4936(3) 0.4376(6)
H5 H 0.1476 0.5136 0.4428
C10 C 0.1987(4) 0.4310(3) 0.4558(6)
H6 H 0.1562 0.4085 0.4718
C11 C 0.2664(4) 0.4021(3) 0.4505(5)
C12 C 0.3307(4) 0.4354(3) 0.4241(6)
H7 H 0.3765 0.4156 0.4195
C13 C 0.3258(4) 0.4977(3) 0.4050(6)
H8 H 0.3680 0.5204 0.3882
C14 C 0.2725(4) 0.3354(3) 0.4760(5)
C29 C 0.5058(4) 0.7592(3) 0.9979(5)
H17 H 0.562(6) 0.719(5) 0.886(8)
H18 H 0.474(6) 0.711(5) 0.896(9)
O15 O 0.1641(3) 0.8100(2) 0.9734(4)
Co1_2 Co 0.66270(5) 0.27033(4) 0.53428(8)
Co2_2 Co 0.82582(5) 0.27835(4) 0.52627(8)
N1_2 N 0.5570(3) 0.2397(3) 0.5526(4)
N2_2 N 0.4384(3) 0.2080(2) 0.5415(5)
N3_2 N 0.5402(3) 0.2005(3) 0.6376(5)
N4_2 N 0.4870(4) 0.2689(3) 0.4027(5)
N5_2 N 0.4355(4) 0.1471(3) 0.6980(5)
O1_2 O 0.7866(3) 0.6909(2) 0.0009(4)
O3_2 O 0.6555(3) 0.2959(2) 0.3779(4)
O4_2 O 0.6842(3) 0.2476(2) 0.6947(4)
O5_2 O 0.7791(3) 0.3052(2) 0.3922(4)
O6_2 O 0.8084(3) 0.2508(2) 0.6743(4)
C1_2 C 0.7189(4) 0.3069(3) 0.3409(5)
C2_2 C 0.7256(4) 0.3270(3) 0.2275(5)
C3_2 C 0.7950(4) 0.3327(4) 0.1817(6)
H1_2 H 0.8373 0.3233 0.2208
C4_2 C 0.8024(4) 0.3521(4) 0.0791(6)
H2_2 H 0.8492 0.3563 0.0488
C5_2 C 0.7393(4) 0.3652(3) 0.0216(7)
C6_2 C 0.6686(4) 0.3592(4) 0.0656(6)
H3_2 H 0.6263 0.3684 0.0264
C7_2 C 0.6627(4) 0.3392(4) 0.1687(6)
H4_2 H 0.6160 0.3340 0.1989
C15_2 C 0.7500(4) 0.2427(3) 0.7273(6)
C16_2 C 0.7615(4) 0.2244(3) 0.8415(5)
C17_2 C 0.7010(5) 0.2172(4) 0.9069(6)
H9_2 H 0.6531 0.2236 0.8812
C20_2 C 0.8432(5) 0.1961(4) 0.9834(6)
C21_2 C 0.8326(4) 0.2145(4) 0.8798(6)
H12_2 H 0.8734 0.2202 0.8358
C29_2 C 0.4942(4) 0.2408(3) 0.4979(5)
C30_2 C 0.4694(4) 0.1838(3) 0.6300(6)
H17_2 H 0.438(6) 0.281(5) 0.386(8)
H18_2 H 0.526(6) 0.289(5) 0.396(9)
H19_2 H 0.451(6) 0.138(5) 0.765(8)
H20_2 H 0.3884(11) 0.143(5) 0.699(8)
Co3 Co 0.83730(5) 0.77033(4) 0.03428(8)
N6_2 N 0.9384(3) 0.2920(2) 0.5415(5)
O13_2 O 0.7134(3) 0.1909(2) 0.5009(4)
O14_2 O 0.6750(3) 0.3596(2) 0.5720(4)
O15_2 O 0.8359(3) 0.1900(2) 0.4734(4)
O16_2 O 0.7982(3) 0.3669(2) 0.5830(4)
O2_2 O 0.8250(3) 0.8596(2) 0.0720(4)
O8_2 O 0.7018(3) 0.8669(2) 0.0830(4)
C24_2 C 0.7099(4) 0.9895(3) 0.1450(6)
H14_2 H 0.6637 0.9703 0.1497
C25_2 C 0.7723(4) 0.9559(3) 0.1166(6)
C26_2 C 0.8406(5) 0.9844(4) 0.1107(8)
H15_2 H 0.8826 0.9617 0.0928
C28_2 C 0.7655(4) 0.8886(3) 0.0889(5)
S2_2 S 0.29275(12) 0.34057(9) 0.17729(14)
O11_2 O 0.3682(3) 0.3271(2) 0.2110(4)
O12_2 O 0.2315(3) 0.3206(2) 0.2406(4)
C18_2 C 0.2120(5) 0.2999(4) 0.0122(6)
H10_2 H 0.1716 0.3032 0.0578
C19_2 C 0.2814(4) 0.3115(3) 0.0472(6)
H11_2 H 0.3909 0.3109 0.0094
C22_2 C 0.2849(5) 0.4203(3) 0.1582(5)
C23_2 C 0.2162(5) 0.4484(4) 0.1664(6)
H13_2 H 0.1746 0.4259 0.1862
C24_3 C 0.2099(4) 0.5105(3) 0.1450(6)
H14_3 H 0.1637 0.5297 0.1497
C25_3 C 0.2723(4) 0.5441(3) 0.1166(6)
C26_3 C 0.3406(5) 0.5156(4) 0.1107(8)
H15_3 H 0.3826 0.5383 0.0928
C27_2 C 0.3475(5) 0.4537(4) 0.1310(8)
H16_2 H 0.3937 0.4346 0.1264
C28_3 C 0.2655(4) 0.6114(3) 0.0889(5)
N1_3 N 0.0570(3) 0.2603(3) 0.5526(4)
N3_3 N 0.0402(3) 0.2995(3) 0.6376(5)
O3_3 O 0.1555(3) 0.2041(2) 0.3779(4)
O4_3 O 0.1842(3) 0.2524(2) 0.6947(4)
O5_3 O 0.2791(3) 0.1948(2) 0.3922(4)
O6_3 O 0.3084(3) 0.2492(2) 0.6743(4)
C1_3 C 0.2189(4) 0.1931(3) 0.3409(5)
C2_3 C 0.2256(4) 0.1730(3) 0.2275(5)
C3_3 C 0.2950(4) 0.1673(4) 0.1817(6)
H1_3 H 0.3373 0.1767 0.2208
C4_3 C 0.3024(4) 0.1479(4) 0.0791(6)
H2_3 H 0.3492 0.1437 0.0488
C5_3 C 0.2393(4) 0.1348(3) 0.0216(7)
C6_3 C 0.1686(4) 0.1408(4) 0.0656(6)
H3_3 H 0.1263 0.1316 0.0264
C7_3 C 0.1627(4) 0.1608(4) 0.1687(6)
H4_3 H 0.1160 0.1660 0.1989
C15_3 C 0.2500(4) 0.2573(3) 0.7273(6)
C16_3 C 0.2615(4) 0.2756(3) 0.8415(5)
C17_3 C 0.2010(5) 0.2828(4) 0.9069(6)
H9_3 H 0.1531 0.2764 0.8812
C20_3 C 0.3432(5) 0.3039(4) 0.9834(6)
C21_3 C 0.3326(4) 0.2855(4) 0.8798(6)
H12_3 H 0.3734 0.2798 0.8358
H18_3 H 0.026(6) 0.211(5) 0.396(9)
C9_2 C 0.3069(4) 0.9936(3) 0.9376(6)
C10_2 C 0.3013(4) 0.9310(3) 0.9558(6)
H6_2 H 0.3438 0.9085 0.9718
C11_2 C 0.2336(4) 0.9021(3) 0.9505(5)
C12_2 C 0.1693(4) 0.9354(3) 0.9241(6)
H7_2 H 0.1235 0.9156 0.9195
C13_2 C 0.1742(4) 0.9977(3) 0.9050(6)
C14_2 C 0.2275(4) 0.8354(3) 0.9760(5)
N4_3 N 0.9870(4) 0.2311(3) 0.4027(5)
N5_3 N 0.9355(4) 0.3529(3) 0.6980(5)
C29_3 C 0.9942(4) 0.2592(3) 0.4979(5)
C30_3 C 0.9694(4) 0.3162(3) 0.6300(6)
H17_3 H 0.938(6) 0.219(5) 0.386(8)
H19_3 H 0.951(6) 0.362(5) 0.765(8)
H20_3 H 0.8884(11) 0.357(5) 0.699(8)
N5_4 N 0.0645(4) 0.6471(3) 0.1980(5)
C30_4 C 0.0306(4) 0.6838(3) 0.1300(6)
H19_4 H 0.049(6) 0.638(5) 0.265(8)
H20_4 H 0.1116(11) 0.643(5) 0.199(8)
C9_3 C 0.6931(4) 0.0064(3) 0.4376(6)
C10_3 C 0.6987(4) 0.0690(3) 0.4558(6)
H6_3 H 0.6562 0.0915 0.4718
C11_3 C 0.7664(4) 0.0979(3) 0.4505(5)
C12_3 C 0.8307(4) 0.0646(3) 0.4241(6)
H7_3 H 0.8765 0.0844 0.4195
C13_3 C 0.8258(4) 0.0023(3) 0.4050(6)
C14_3 C 0.7725(4) 0.1646(3) 0.4760(5)
S2_3 S 0.70725(12) 0.65943(9) 0.67729(14)
N1_4 N 0.9430(3) 0.7397(3) 0.0526(4)
N3_4 N 0.9598(3) 0.7005(3) 0.1376(5)
O4_4 O 0.8158(3) 0.7476(2) 0.1947(4)
O6_4 O 0.6916(3) 0.7508(2) 0.1743(4)
O11_3 O 0.6318(3) 0.6729(2) 0.7110(4)
O12_3 O 0.7685(3) 0.6794(2) 0.7406(4)
C15_4 C 0.7500(4) 0.7427(3) 0.2273(6)
C16_4 C 0.7385(4) 0.7244(3) 0.3415(5)
C17_4 C 0.7990(5) 0.7172(4) 0.4069(6)
H9_4 H 0.8469 0.7236 0.3812
C18_3 C 0.7880(5) 0.7001(4) 0.5122(6)
H10_3 H 0.8284 0.6968 0.5578
C19_3 C 0.7186(4) 0.6885(3) 0.5472(6)
C20_4 C 0.6568(5) 0.6961(4) 0.4834(6)
H11_3 H 0.6091 0.6891 0.5094
C21_4 C 0.6674(4) 0.7145(4) 0.3798(6)
H12_4 H 0.6266 0.7202 0.3358
C22_3 C 0.7151(5) 0.5797(3) 0.6582(5)
C23_3 C 0.7838(5) 0.5516(4) 0.6664(6)
H13_3 H 0.8254 0.5741 0.6862
C24_4 C 0.7901(4) 0.4895(3) 0.6450(6)
H14_4 H 0.8363 0.4703 0.6497
C25_4 C 0.7277(4) 0.4559(3) 0.6166(6)
C26_4 C 0.6594(5) 0.4844(4) 0.6107(8)
H15_4 H 0.6174 0.4617 0.5928
C27_3 C 0.6525(5) 0.5463(4) 0.6310(8)
H16_3 H 0.6063 0.5654 0.6264
C28_4 C 0.7345(4) 0.3886(3) 0.5889(5)
S2_4 S 0.79275(12) 0.15943(9) 0.17729(14)
O11_4 O 0.8682(3) 0.1729(2) 0.2110(4)
O12_4 O 0.7315(3) 0.1794(2) 0.2406(4)
C18_4 C 0.7120(5) 0.2001(4) 0.0122(6)
H10_4 H 0.6716 0.1968 0.0578
C19_4 C 0.7814(4) 0.1885(3) 0.0472(6)
H11_4 H 0.8909 0.1891 0.0094
C22_4 C 0.7849(5) 0.0797(3) 0.1582(5)
C23_4 C 0.7162(5) 0.0516(4) 0.1664(6)
H13_4 H 0.6746 0.0741 0.1862
C27_4 C 0.8475(5) 0.0463(4) 0.1310(8)
H16_4 H 0.8937 0.0654 0.1264
S1_2 S 0.74935(12) 0.39430(9) 0.89188(14)
O7_2 O 0.6641(3) 0.6900(2) 0.9734(4)
O9_2 O 0.8227(3) 0.3798(2) 0.8556(4)
O10_2 O 0.6867(3) 0.3751(2) 0.8311(4)
C8_2 C 0.7428(5) 0.4749(3) 0.9115(6)
C9_4 C 0.8069(4) 0.5064(3) 0.9376(6)
H5_2 H 0.8524 0.4864 0.9428
C10_4 C 0.8013(4) 0.5690(3) 0.9558(6)
H6_4 H 0.8438 0.5915 0.9718
C11_4 C 0.7336(4) 0.5979(3) 0.9505(5)
C12_4 C 0.6693(4) 0.5646(3) 0.9241(6)
H7_4 H 0.6235 0.5844 0.9195
C13_4 C 0.6742(4) 0.5023(3) 0.9050(6)
H8_2 H 0.6320 0.4796 0.8882
C14_4 C 0.7275(4) 0.6646(3) 0.9760(5)
S1_3 S 0.75065(12) 0.89430(9) 0.39188(14)
O3_4 O 0.8445(3) 0.7959(2) 0.8779(4)
O5_4 O 0.7209(3) 0.8052(2) 0.8922(4)
O9_3 O 0.6773(3) 0.8798(2) 0.3556(4)
O10_3 O 0.8133(3) 0.8751(2) 0.3311(4)
C1_4 C 0.7811(4) 0.8069(3) 0.8409(5)
C2_4 C 0.7744(4) 0.8270(3) 0.7275(5)
C3_4 C 0.7050(4) 0.8327(4) 0.6817(6)
H1_4 H 0.6627 0.8233 0.7208
C4_4 C 0.6976(4) 0.8521(4) 0.5791(6)
H2_4 H 0.6508 0.8563 0.5488
C5_4 C 0.7607(4) 0.8652(3) 0.5216(7)
C6_4 C 0.8314(4) 0.8592(4) 0.5656(6)
H3_4 H 0.8737 0.8684 0.5264
C7_4 C 0.8373(4) 0.8392(4) 0.6687(6)
H4_4 H 0.8840 0.8340 0.6989
C8_3 C 0.7572(5) 0.9749(3) 0.4115(6)
H5_3 H 0.6476 0.9864 0.4428
H8_3 H 0.8680 0.9796 0.3882
H18_4 H 0.974(6) 0.789(5) 0.896(9)
S1_4 S 0.24935(12) 0.10570(9) 0.89188(14)
O9_4 O 0.3227(3) 0.1202(2) 0.8556(4)
O10_4 O 0.1867(3) 0.1249(2) 0.8311(4)
C8_4 C 0.2428(5) 0.0251(3) 0.9115(6)
H5_4 H 0.3524 0.0136 0.9428
H8_4 H 0.1320 0.0204 0.8882
N4_4 N 0.0130(4) 0.7689(3) 0.9027(5)
C29_4 C 0.0058(4) 0.7408(3) 0.9979(5)
H17_4 H 0.062(6) 0.781(5) 0.886(8)
O17 O 0.5474(2) 0.6435(2) 0.1386(4)
O17_2 O 0.4526(2) 0.3565(2) 0.6386(4)
O17_3 O 0.9526(2) 0.1435(2) 0.6386(4)
O17_4 O 0.0474(2) 0.8565(2) 0.1386(4)
loop_
_geom_bond_atom_site_label_1
_geom_bond_atom_site_label_2
_geom_bond_site_symmetry_1
_geom_bond_site_symmetry_2
O2 C28 1_555 1_555
O8 C28 1_555 1_555
H14 C24 1_555 1_555
C25 C24 1_555 1_555
C26 C25 1_555 1_555
H15 C26 1_555 1_555
C28 C25 1_555 1_555
Co4 O2 1_555 1_555
Co6 O8 1_555 1_555
Co1 N1 1_555 1_555
S2 O11 1_555 1_555
N1 N3 1_555 1_555
N3 C30 1_555 1_555
N5 C30 1_555 1_555
O4 Co1 1_555 1_555
O6 Co2 1_555 1_555
O12 S2 1_555 1_555
C15 O4 1_555 1_555
C16 C15 1_555 1_555
C17 C16 1_555 1_555
H9 C17 1_555 1_555
C18 C17 1_555 1_555
H10 C18 1_555 1_555
C19 S2 1_555 1_555
C20 C19 1_555 1_555
H11 C20 1_555 1_555
C21 C16 1_555 1_555
H12 C21 1_555 1_555
C22 S2 1_555 1_555
C23 C22 1_555 1_555
H13 C23 1_555 1_555
C27 C22 1_555 1_555
H16 C27 1_555 1_555
C30 N2 1_555 1_555
H19 N5 1_555 1_555
H20 N5 1_555 1_555
Co7 N2 1_555 1_555
N6 Co2 1_555 1_555
O13 Co1 1_555 1_555
O14 Co1 1_555 1_555
O16 Co2 1_555 1_555
O6 C15 1_555 1_555
C18 C19 1_555 1_555
C20 C21 1_555 1_555
S1 O9 1_555 1_555
N4 C29 1_555 1_555
O1 C14 1_555 1_555
O5 C1 1_555 1_555
O7 C14 1_555 1_555
O10 S1 1_555 1_555
C1 O3 1_555 1_555
C2 C1 1_555 1_555
C3 C2 1_555 1_555
H1 C3 1_555 1_555
C4 C3 1_555 1_555
H2 C4 1_555 1_555
C5 S1 1_555 1_555
C6 C5 1_555 1_555
H3 C6 1_555 1_555
C7 C2 1_555 1_555
H4 C7 1_555 1_555
C8 S1 1_555 1_555
C9 C8 1_555 1_555
H5 C9 1_555 1_555
C10 C9 1_555 1_555
H6 C10 1_555 1_555
C11 C10 1_555 1_555
C12 C11 1_555 1_555
H7 C12 1_555 1_555
C13 C8 1_555 1_555
H8 C13 1_555 1_555
C14 C11 1_555 1_555
H17 N4 1_555 1_555
H18 N4 1_555 1_555
Co4 O1 1_555 1_555
Co6 O7 1_555 1_555
C4 C5 1_555 1_555
C6 C7 1_555 1_555
C12 C13 1_555 1_555
Co1_2 N1_2 1_555 1_555
Co2_2 O5_2 1_555 1_555
N1_2 N3_2 1_555 1_555
N2_2 C29_2 1_555 1_555
N3_2 C30_2 1_555 1_555
N4_2 C29_2 1_555 1_555
N5_2 C30_2 1_555 1_555
O3_2 Co1_2 1_555 1_555
O4_2 Co1_2 1_555 1_555
O5_2 C1_2 1_555 1_555
O6_2 Co2_2 1_555 1_555
C1_2 O3_2 1_555 1_555
C2_2 C1_2 1_555 1_555
C3_2 C2_2 1_555 1_555
H1_2 C3_2 1_555 1_555
C4_2 C3_2 1_555 1_555
H2_2 C4_2 1_555 1_555
C6_2 C5_2 1_555 1_555
H3_2 C6_2 1_555 1_555
C7_2 C2_2 1_555 1_555
H4_2 C7_2 1_555 1_555
C15_2 O4_2 1_555 1_555
C16_2 C15_2 1_555 1_555
C17_2 C16_2 1_555 1_555
H9_2 C17_2 1_555 1_555
C21_2 C16_2 1_555 1_555
H12_2 C21_2 1_555 1_555
C29_2 N1_2 1_555 1_555
C30_2 N2_2 1_555 1_555
H17_2 N4_2 1_555 1_555
H18_2 N4_2 1_555 1_555
H19_2 N5_2 1_555 1_555
H20_2 N5_2 1_555 1_555
Co3 O1_2 1_555 1_555
Co6 N2_2 1_555 1_555
N6_2 Co2_2 1_555 1_555
O13_2 Co1_2 1_555 1_555
O14_2 Co1_2 1_555 1_555
O15_2 Co2_2 1_555 1_555
O16_2 Co2_2 1_555 1_555
O6_2 C15_2 1_555 1_555
C4_2 C5_2 1_555 1_555
C6_2 C7_2 1_555 1_555
C20_2 C21_2 1_555 1_555
O2_2 C28_2 1_555 1_555
O8_2 C28_2 1_555 1_555
H14_2 C24_2 1_555 1_555
C25_2 C24_2 1_555 1_555
C26_2 C25_2 1_555 1_555
H15_2 C26_2 1_555 1_555
C28_2 C25_2 1_555 1_555
Co3 O2_2 1_555 1_555
Co7 O8_2 1_555 1_555
S2_2 O11_2 1_555 1_555
O14 C28_3 1_555 1_555
O16 C28_3 1_555 1_555
O12_2 S2_2 1_555 1_555
H10_2 C18_2 1_555 1_555
C19_2 S2_2 1_555 1_555
C22_2 S2_2 1_555 1_555
C23_2 C22_2 1_555 1_555
H13_2 C23_2 1_555 1_555
C24_3 C23_2 1_555 1_555
H14_3 C24_3 1_555 1_555
C25_3 C24_3 1_555 1_555
C26_3 C25_3 1_555 1_555
H15_3 C26_3 1_555 1_555
C27_2 C22_2 1_555 1_555
H16_2 C27_2 1_555 1_555
C28_3 C25_3 1_555 1_555
C18_2 C19_2 1_555 1_555
C26_3 C27_2 1_555 1_555
Co4 N1_3 1_555 1_555
Co6 O5_3 1_555 1_555
N1_3 N3_3 1_555 1_555
O3_3 Co4 1_555 1_555
O4_3 Co4 1_555 1_555
O5_3 C1_3 1_555 1_555
O6_3 Co6 1_555 1_555
C1_3 O3_3 1_555 1_555
C2_3 C1_3 1_555 1_555
C3_3 C2_3 1_555 1_555
H1_3 C3_3 1_555 1_555
C4_3 C3_3 1_555 1_555
H2_3 C4_3 1_555 1_555
C6_3 C5_3 1_555 1_555
H3_3 C6_3 1_555 1_555
C7_3 C2_3 1_555 1_555
H4_3 C7_3 1_555 1_555
C15_3 O4_3 1_555 1_555
C16_3 C15_3 1_555 1_555
C17_3 C16_3 1_555 1_555
H9_3 C17_3 1_555 1_555
C21_3 C16_3 1_555 1_555
H12_3 C21_3 1_555 1_555
O6_3 C15_3 1_555 1_555
C4_3 C5_3 1_555 1_555
C6_3 C7_3 1_555 1_555
C20_3 C21_3 1_555 1_555
O15 C14_2 1_555 1_555
C10_2 C9_2 1_555 1_555
H6_2 C10_2 1_555 1_555
C11_2 C10_2 1_555 1_555
C12_2 C11_2 1_555 1_555
H7_2 C12_2 1_555 1_555
C14_2 C11_2 1_555 1_555
C12_2 C13_2 1_555 1_555
N6_2 C29_3 1_555 1_555
N4_3 C29_3 1_555 1_555
N5_3 C30_3 1_555 1_555
C30_3 N6_2 1_555 1_555
H17_3 N4_3 1_555 1_555
H19_3 N5_3 1_555 1_555
H20_3 N5_3 1_555 1_555
N5_4 C30_4 1_555 1_555
C30_4 N6 1_555 1_555
H19_4 N5_4 1_555 1_555
H20_4 N5_4 1_555 1_555
O13_2 C14_3 1_555 1_555
O15_2 C14_3 1_555 1_555
C10_3 C9_3 1_555 1_555
H6_3 C10_3 1_555 1_555
C11_3 C10_3 1_555 1_555
C12_3 C11_3 1_555 1_555
H7_3 C12_3 1_555 1_555
C14_3 C11_3 1_555 1_555
C12_3 C13_3 1_555 1_555
Co3 N1_4 1_555 1_555
S2_3 O11_3 1_555 1_555
N1_4 N3_4 1_555 1_555
O14_2 C28_4 1_555 1_555
O4_4 Co3 1_555 1_555
O6_4 Co7 1_555 1_555
O16_2 C28_4 1_555 1_555
O12_3 S2_3 1_555 1_555
C15_4 O4_4 1_555 1_555
C16_4 C15_4 1_555 1_555
C17_4 C16_4 1_555 1_555
H9_4 C17_4 1_555 1_555
C18_3 C17_4 1_555 1_555
H10_3 C18_3 1_555 1_555
C19_3 S2_3 1_555 1_555
C20_4 C19_3 1_555 1_555
H11_3 C20_4 1_555 1_555
C21_4 C16_4 1_555 1_555
H12_4 C21_4 1_555 1_555
C22_3 S2_3 1_555 1_555
C23_3 C22_3 1_555 1_555
H13_3 C23_3 1_555 1_555
C24_4 C23_3 1_555 1_555
H14_4 C24_4 1_555 1_555
C25_4 C24_4 1_555 1_555
C26_4 C25_4 1_555 1_555
H15_4 C26_4 1_555 1_555
C27_3 C22_3 1_555 1_555
H16_3 C27_3 1_555 1_555
C28_4 C25_4 1_555 1_555
O6_4 C15_4 1_555 1_555
C18_3 C19_3 1_555 1_555
C20_4 C21_4 1_555 1_555
C26_4 C27_3 1_555 1_555
S2_4 O11_4 1_555 1_555
O12_4 S2_4 1_555 1_555
H10_4 C18_4 1_555 1_555
C19_4 S2_4 1_555 1_555
C22_4 S2_4 1_555 1_555
C23_4 C22_4 1_555 1_555
H13_4 C23_4 1_555 1_555
C27_4 C22_4 1_555 1_555
H16_4 C27_4 1_555 1_555
C18_4 C19_4 1_555 1_555
S1_2 O9_2 1_555 1_555
O7_2 C14_4 1_555 1_555
O10_2 S1_2 1_555 1_555
C8_2 S1_2 1_555 1_555
C9_4 C8_2 1_555 1_555
H5_2 C9_4 1_555 1_555
C10_4 C9_4 1_555 1_555
H6_4 C10_4 1_555 1_555
C11_4 C10_4 1_555 1_555
C12_4 C11_4 1_555 1_555
H7_4 C12_4 1_555 1_555
C13_4 C8_2 1_555 1_555
H8_2 C13_4 1_555 1_555
C14_4 C11_4 1_555 1_555
C12_4 C13_4 1_555 1_555
S1_3 O9_3 1_555 1_555
O5_4 C1_4 1_555 1_555
O10_3 S1_3 1_555 1_555
C1_4 O3_4 1_555 1_555
C2_4 C1_4 1_555 1_555
C3_4 C2_4 1_555 1_555
H1_4 C3_4 1_555 1_555
C4_4 C3_4 1_555 1_555
H2_4 C4_4 1_555 1_555
C5_4 S1_3 1_555 1_555
C6_4 C5_4 1_555 1_555
H3_4 C6_4 1_555 1_555
C7_4 C2_4 1_555 1_555
H4_4 C7_4 1_555 1_555
C8_3 S1_3 1_555 1_555
C4_4 C5_4 1_555 1_555
C6_4 C7_4 1_555 1_555
S1_4 O9_4 1_555 1_555
O10_4 S1_4 1_555 1_555
C8_4 S1_4 1_555 1_555
N4_4 C29_4 1_555 1_555
H17_4 N4_4 1_555 1_555

#END
