
###############################################################################
#
# This file contains modified crystal structure data generated from the
# MOF subset of the Cambridge Structural Database (CSD) v543 
# hosted by the Cambridge Crystallographic Data Centre (CCDC).
#
# This work is licensed under the Creative Commons
# Attribution-NonCommercial-ShareAlike 4.0 International License.
# To view a copy of this license, visit
# http://creativecommons.org/licenses/by-nc-sa/4.0/
# or send a letter to
# Creative Commons, PO Box 1866, Mountain View, CA 94042, USA.
#
# CIF created using the CSD Python API on 29 September 2022
# The structure has been converted into the P1 space group
# The structure has a 3D framework
# The original CSD entry IBABUL is in the orthorhombic crystal system
# The framework has been calculated to contain at least 10.0% void space
# The void calculation uses a probe of radius 1.32A, grid spacing 0.4
# Generated hydrogen atom positions removed from atoms on special positions
#
###############################################################################

data_IBABUL
_chemical_formula_moiety         '(C120 H92 Co8 N20 O50 S8)n'
_symmetry_cell_setting           triclinic
_symmetry_space_group_name_H-M   'P 1'
_symmetry_Int_Tables_number      1
_space_group_name_Hall           'P 1'
loop_
_symmetry_equiv_pos_site_id
_symmetry_equiv_pos_as_xyz
1 x,y,z
_cell_length_a                   18.072(2)
_cell_length_b                   21.785(2)
_cell_length_c                   12.6732(14)
_cell_angle_alpha                90
_cell_angle_beta                 90
_cell_angle_gamma                90
_cell_volume                     4989.42
loop_
_atom_site_label
_atom_site_type_symbol
_atom_site_fract_x
_atom_site_fract_y
_atom_site_fract_z
O2 O 0.1789(4) 0.1409(3) 0.5742(5)
O8 O 0.3026(4) 0.1321(3) 0.5796(6)
C24 C 0.2909(6) 0.0103(5) 0.6471(8)
H18 H 0.3365 0.0295 0.6551
C25 C 0.2311(6) 0.0437(4) 0.6150(8)
C26 C 0.1621(7) 0.0161(6) 0.6067(12)
H19 H 0.1205 0.0387 0.5880
C28 C 0.2377(6) 0.1118(5) 0.5889(8)
Co4 Co 0.16162(6) 0.22868(5) 0.53295(12)
Co6 Co 0.32531(6) 0.22211(6) 0.52650(12)
Co1 Co 0.33838(6) 0.72868(5) 0.03295(12)
Co2 Co 0.17469(6) 0.72211(6) 0.02650(12)
S2 S 0.20862(16) 0.83997(11) 0.6766(2)
N1 N 0.4438(4) 0.7581(4) 0.0529(6)
N2 N 0.5629(4) 0.7902(3) 0.0418(7)
N3 N 0.4604(5) 0.7984(4) 0.1357(7)
N5 N 0.5653(5) 0.8514(4) 0.1969(7)
H3 H 0.5417 0.8664 0.2499
H4 H 0.6113 0.8602 0.1878
O4 O 0.3193(4) 0.7520(3) 0.1937(5)
O6 O 0.1952(4) 0.7467(3) 0.1751(5)
O11 O 0.1334(5) 0.8265(3) 0.7088(6)
O12 O 0.2694(5) 0.8199(3) 0.7403(6)
C15 C 0.2534(6) 0.7557(4) 0.2276(8)
C16 C 0.2412(6) 0.7755(5) 0.3419(8)
C17 C 0.3011(6) 0.7918(6) 0.4034(8)
H13 H 0.3484 0.7914 0.3745
C18 C 0.2918(7) 0.8085(7) 0.5059(10)
H14 H 0.3325 0.8178 0.5478
C19 C 0.2211(6) 0.8116(4) 0.5470(8)
C20 C 0.1603(6) 0.7955(6) 0.4852(9)
H15 H 0.1127 0.7982 0.5127
C21 C 0.1709(7) 0.7754(6) 0.3830(9)
H16 H 0.1311 0.7621 0.3425
C22 C 0.2160(6) 0.9204(4) 0.6566(8)
C23 C 0.2843(7) 0.9481(5) 0.6680(9)
H17 H 0.3252 0.9253 0.6893
C27 C 0.1573(8) 0.9529(5) 0.6275(11)
H20 H 0.1118 0.9333 0.6207
C30 C 0.5308(5) 0.8147(5) 0.1290(8)
Co7 Co 0.67469(6) 0.77789(6) 0.02650(12)
N6 N 0.0629(4) 0.7098(3) 0.0418(7)
O13 O 0.2894(4) 0.8093(3) 0.0028(5)
O14 O 0.3211(4) 0.6409(3) 0.0742(5)
O16 O 0.1974(4) 0.6321(3) 0.0796(6)
S1 S 0.2453(2) 0.60635(12) 0.3934(2)
N4 N 0.5145(5) 0.7281(4) 0.9045(6)
H1 H 0.4779 0.7084 0.8773
H2 H 0.5563 0.7293 0.8723
O1 O 0.2106(4) 0.3093(3) 0.5028(5)
O3 O 0.3449(4) 0.7041(3) 0.8768(5)
O5 O 0.2227(4) 0.6950(3) 0.8937(5)
O7 O 0.3317(4) 0.3105(3) 0.4722(5)
O9 O 0.1718(6) 0.6212(4) 0.3598(7)
O10 O 0.3062(6) 0.6263(3) 0.3313(6)
C1 C 0.2808(6) 0.6926(5) 0.8412(8)
C2 C 0.2734(6) 0.6747(5) 0.7280(8)
C3 C 0.2039(6) 0.6607(5) 0.6888(9)
H5 H 0.1626 0.6643 0.7320
C4 C 0.1957(7) 0.6413(6) 0.5849(10)
H6 H 0.1492 0.6322 0.5579
C5 C 0.2564(6) 0.6359(4) 0.5243(10)
C6 C 0.3256(7) 0.6499(6) 0.5581(8)
H7 H 0.3661 0.6467 0.5131
C7 C 0.3343(6) 0.6697(5) 0.6636(9)
H8 H 0.3811 0.6792 0.6893
C8 C 0.2524(7) 0.5244(5) 0.4104(8)
C9 C 0.1906(7) 0.4936(5) 0.4385(9)
H9 H 0.1457 0.5141 0.4452
C10 C 0.1953(6) 0.4316(5) 0.4568(8)
H10 H 0.1531 0.4094 0.4745
C11 C 0.2629(6) 0.4021(5) 0.4491(8)
C12 C 0.3251(6) 0.4358(5) 0.4190(9)
H11 H 0.3704 0.4162 0.4113
C13 C 0.3199(7) 0.4977(5) 0.4006(10)
H12 H 0.3613 0.5206 0.3820
C14 C 0.2692(6) 0.3359(5) 0.4760(8)
C29 C 0.5061(5) 0.7574(4) 0.9980(7)
O15 O 0.1683(4) 0.8105(3) 0.9722(5)
Co1_2 Co 0.66162(6) 0.27132(5) 0.53295(12)
Co2_2 Co 0.82531(6) 0.27789(6) 0.52650(12)
N1_2 N 0.5562(4) 0.2419(4) 0.5529(6)
N2_2 N 0.4371(4) 0.2098(3) 0.5418(7)
N3_2 N 0.5396(5) 0.2016(4) 0.6357(7)
N4_2 N 0.4855(5) 0.2719(4) 0.4045(6)
H1_2 H 0.5221 0.2916 0.3773
H2_2 H 0.4437 0.2707 0.3723
N5_2 N 0.4347(5) 0.1486(4) 0.6969(7)
H3_2 H 0.4583 0.1336 0.7499
H4_2 H 0.3887 0.1398 0.6878
O1_2 O 0.7894(4) 0.6907(3) 0.0028(5)
O3_2 O 0.6551(4) 0.2959(3) 0.3768(5)
O4_2 O 0.6807(4) 0.2480(3) 0.6937(5)
O5_2 O 0.7773(4) 0.3050(3) 0.3937(5)
O6_2 O 0.8048(4) 0.2533(3) 0.6751(5)
C1_2 C 0.7192(6) 0.3074(5) 0.3412(8)
C2_2 C 0.7266(6) 0.3253(5) 0.2280(8)
C3_2 C 0.7961(6) 0.3393(5) 0.1888(9)
H5_2 H 0.8374 0.3357 0.2320
C4_2 C 0.8043(7) 0.3587(6) 0.0849(10)
H6_2 H 0.8508 0.3678 0.0579
C5_2 C 0.7436(6) 0.3641(4) 0.0243(10)
C6_2 C 0.6744(7) 0.3501(6) 0.0581(8)
H7_2 H 0.6339 0.3533 0.0131
C7_2 C 0.6657(6) 0.3303(5) 0.1636(9)
H8_2 H 0.6189 0.3208 0.1893
C15_2 C 0.7466(6) 0.2443(4) 0.7276(8)
C16_2 C 0.7588(6) 0.2245(5) 0.8419(8)
C17_2 C 0.6989(6) 0.2082(6) 0.9034(8)
H13_2 H 0.6516 0.2086 0.8745
C20_2 C 0.8397(6) 0.2045(6) 0.9852(9)
C21_2 C 0.8291(7) 0.2246(6) 0.8830(9)
H16_2 H 0.8689 0.2379 0.8425
C29_2 C 0.4939(5) 0.2426(4) 0.4980(7)
C30_2 C 0.4692(5) 0.1853(5) 0.6290(8)
Co3 Co 0.83838(6) 0.77132(5) 0.03295(12)
N6_2 N 0.9371(4) 0.2902(3) 0.5418(7)
O13_2 O 0.7106(4) 0.1907(3) 0.5028(5)
O14_2 O 0.6789(4) 0.3591(3) 0.5742(5)
O15_2 O 0.8317(4) 0.1895(3) 0.4722(5)
O16_2 O 0.8026(4) 0.3679(3) 0.5796(6)
O2_2 O 0.8211(4) 0.8591(3) 0.0742(5)
O8_2 O 0.6974(4) 0.8679(3) 0.0796(6)
C24_2 C 0.7091(6) 0.9897(5) 0.1471(8)
H18_2 H 0.6635 0.9705 0.1551
C25_2 C 0.7689(6) 0.9563(4) 0.1150(8)
C26_2 C 0.8379(7) 0.9839(6) 0.1067(12)
H19_2 H 0.8795 0.9613 0.0880
C28_2 C 0.7623(6) 0.8882(5) 0.0889(8)
S2_2 S 0.29138(16) 0.33997(11) 0.1766(2)
O11_2 O 0.3666(5) 0.3265(3) 0.2088(6)
O12_2 O 0.2306(5) 0.3199(3) 0.2403(6)
C18_2 C 0.2082(7) 0.3085(7) 0.0059(10)
H14_2 H 0.1675 0.3178 0.0478
C19_2 C 0.2789(6) 0.3116(4) 0.0470(8)
H15_2 H 0.3873 0.2982 0.0127
C22_2 C 0.2840(6) 0.4204(4) 0.1566(8)
C23_2 C 0.2157(7) 0.4481(5) 0.1680(9)
H17_2 H 0.1748 0.4253 0.1893
C24_3 C 0.2091(6) 0.5103(5) 0.1471(8)
H18_3 H 0.1635 0.5295 0.1551
C25_3 C 0.2689(6) 0.5437(4) 0.1150(8)
C26_3 C 0.3379(7) 0.5161(6) 0.1067(12)
H19_3 H 0.3795 0.5387 0.0880
C27_2 C 0.3427(8) 0.4529(5) 0.1275(11)
H20_2 H 0.3882 0.4333 0.1207
C28_3 C 0.2623(6) 0.6118(5) 0.0889(8)
N1_3 N 0.0562(4) 0.2581(4) 0.5529(6)
N3_3 N 0.0396(5) 0.2984(4) 0.6357(7)
H1_3 H 0.0221 0.2084 0.3773
O3_3 O 0.1551(4) 0.2041(3) 0.3768(5)
O4_3 O 0.1807(4) 0.2520(3) 0.6937(5)
O5_3 O 0.2773(4) 0.1950(3) 0.3937(5)
O6_3 O 0.3048(4) 0.2467(3) 0.6751(5)
C1_3 C 0.2192(6) 0.1926(5) 0.3412(8)
C2_3 C 0.2266(6) 0.1747(5) 0.2280(8)
C3_3 C 0.2961(6) 0.1607(5) 0.1888(9)
H5_3 H 0.3374 0.1643 0.2320
C4_3 C 0.3043(7) 0.1413(6) 0.0849(10)
H6_3 H 0.3508 0.1322 0.0579
C5_3 C 0.2436(6) 0.1359(4) 0.0243(10)
C6_3 C 0.1744(7) 0.1499(6) 0.0581(8)
H7_3 H 0.1339 0.1467 0.0131
C7_3 C 0.1657(6) 0.1697(5) 0.1636(9)
H8_3 H 0.1189 0.1792 0.1893
C15_3 C 0.2466(6) 0.2557(4) 0.7276(8)
C16_3 C 0.2588(6) 0.2755(5) 0.8419(8)
C17_3 C 0.1989(6) 0.2918(6) 0.9034(8)
H13_3 H 0.1516 0.2914 0.8745
C20_3 C 0.3397(6) 0.2955(6) 0.9852(9)
C21_3 C 0.3291(7) 0.2754(6) 0.8830(9)
H16_3 H 0.3689 0.2621 0.8425
C9_2 C 0.3094(7) 0.9936(5) 0.9385(9)
C10_2 C 0.3047(6) 0.9316(5) 0.9568(8)
H10_2 H 0.3469 0.9094 0.9745
C11_2 C 0.2371(6) 0.9021(5) 0.9491(8)
C12_2 C 0.1749(6) 0.9358(5) 0.9190(9)
H11_2 H 0.1296 0.9162 0.9113
C13_2 C 0.1801(7) 0.9977(5) 0.9006(10)
C14_2 C 0.2308(6) 0.8359(5) 0.9760(8)
N4_3 N 0.9855(5) 0.2281(4) 0.4045(6)
H2_3 H 0.9437 0.2293 0.3723
N5_3 N 0.9347(5) 0.3514(4) 0.6969(7)
H3_3 H 0.9583 0.3664 0.7499
H4_3 H 0.8887 0.3602 0.6878
C29_3 C 0.9939(5) 0.2574(4) 0.4980(7)
C30_3 C 0.9692(5) 0.3147(5) 0.6290(8)
N5_4 N 0.0653(5) 0.6486(4) 0.1969(7)
H3_4 H 0.0417 0.6336 0.2499
H4_4 H 0.1113 0.6398 0.1878
C30_4 C 0.0308(5) 0.6853(5) 0.1290(8)
C9_3 C 0.6906(7) 0.0064(5) 0.4385(9)
C10_3 C 0.6953(6) 0.0684(5) 0.4568(8)
H10_3 H 0.6531 0.0906 0.4745
C11_3 C 0.7629(6) 0.0979(5) 0.4491(8)
C12_3 C 0.8251(6) 0.0642(5) 0.4190(9)
H11_3 H 0.8704 0.0838 0.4113
C13_3 C 0.8199(7) 0.0023(5) 0.4006(10)
C14_3 C 0.7692(6) 0.1641(5) 0.4760(8)
S2_3 S 0.70862(16) 0.66003(11) 0.6766(2)
N1_4 N 0.9438(4) 0.7419(4) 0.0529(6)
N3_4 N 0.9604(5) 0.7016(4) 0.1357(7)
O4_4 O 0.8193(4) 0.7480(3) 0.1937(5)
O6_4 O 0.6952(4) 0.7533(3) 0.1751(5)
O11_3 O 0.6334(5) 0.6735(3) 0.7088(6)
O12_3 O 0.7694(5) 0.6801(3) 0.7403(6)
C15_4 C 0.7534(6) 0.7443(4) 0.2276(8)
C16_4 C 0.7412(6) 0.7245(5) 0.3419(8)
C17_4 C 0.8011(6) 0.7082(6) 0.4034(8)
H13_4 H 0.8484 0.7086 0.3745
C18_3 C 0.7918(7) 0.6915(7) 0.5059(10)
H14_3 H 0.8325 0.6822 0.5478
C19_3 C 0.7211(6) 0.6884(4) 0.5470(8)
C20_4 C 0.6603(6) 0.7045(6) 0.4852(9)
H15_3 H 0.6127 0.7018 0.5127
C21_4 C 0.6709(7) 0.7246(6) 0.3830(9)
H16_4 H 0.6311 0.7379 0.3425
C22_3 C 0.7160(6) 0.5796(4) 0.6566(8)
C23_3 C 0.7843(7) 0.5519(5) 0.6680(9)
H17_3 H 0.8252 0.5747 0.6893
C24_4 C 0.7909(6) 0.4897(5) 0.6471(8)
H18_4 H 0.8365 0.4705 0.6551
C25_4 C 0.7311(6) 0.4563(4) 0.6150(8)
C26_4 C 0.6621(7) 0.4839(6) 0.6067(12)
H19_4 H 0.6205 0.4613 0.5880
C27_3 C 0.6573(8) 0.5471(5) 0.6275(11)
H20_3 H 0.6118 0.5667 0.6207
C28_4 C 0.7377(6) 0.3882(5) 0.5889(8)
S2_4 S 0.79138(16) 0.16003(11) 0.1766(2)
O11_4 O 0.8666(5) 0.1735(3) 0.2088(6)
O12_4 O 0.7306(5) 0.1801(3) 0.2403(6)
C18_4 C 0.7082(7) 0.1915(7) 0.0059(10)
H14_4 H 0.6675 0.1822 0.0478
C19_4 C 0.7789(6) 0.1884(4) 0.0470(8)
H15_4 H 0.8873 0.2018 0.0127
C22_4 C 0.7840(6) 0.0796(4) 0.1566(8)
C23_4 C 0.7157(7) 0.0519(5) 0.1680(9)
H17_4 H 0.6748 0.0747 0.1893
C27_4 C 0.8427(8) 0.0471(5) 0.1275(11)
H20_4 H 0.8882 0.0667 0.1207
S1_2 S 0.7547(2) 0.39365(12) 0.8934(2)
O7_2 O 0.6683(4) 0.6895(3) 0.9722(5)
O9_2 O 0.8282(6) 0.3788(4) 0.8598(7)
O10_2 O 0.6938(6) 0.3737(3) 0.8313(6)
C8_2 C 0.7476(7) 0.4756(5) 0.9104(8)
C9_4 C 0.8094(7) 0.5064(5) 0.9385(9)
H9_2 H 0.8543 0.4859 0.9452
C10_4 C 0.8047(6) 0.5684(5) 0.9568(8)
H10_4 H 0.8469 0.5906 0.9745
C11_4 C 0.7371(6) 0.5979(5) 0.9491(8)
C12_4 C 0.6749(6) 0.5642(5) 0.9190(9)
H11_4 H 0.6296 0.5838 0.9113
C13_4 C 0.6801(7) 0.5023(5) 0.9006(10)
H12_2 H 0.6387 0.4794 0.8820
C14_4 C 0.7308(6) 0.6641(5) 0.9760(8)
S1_3 S 0.7453(2) 0.89365(12) 0.3934(2)
H1_4 H 0.9779 0.7916 0.8773
O3_4 O 0.8449(4) 0.7959(3) 0.8768(5)
O5_4 O 0.7227(4) 0.8050(3) 0.8937(5)
O9_3 O 0.6718(6) 0.8788(4) 0.3598(7)
O10_3 O 0.8062(6) 0.8737(3) 0.3313(6)
C1_4 C 0.7808(6) 0.8074(5) 0.8412(8)
C2_4 C 0.7734(6) 0.8253(5) 0.7280(8)
C3_4 C 0.7039(6) 0.8393(5) 0.6888(9)
H5_4 H 0.6626 0.8357 0.7320
C4_4 C 0.6957(7) 0.8587(6) 0.5849(10)
H6_4 H 0.6492 0.8678 0.5579
C5_4 C 0.7564(6) 0.8641(4) 0.5243(10)
C6_4 C 0.8256(7) 0.8501(6) 0.5581(8)
H7_4 H 0.8661 0.8533 0.5131
C7_4 C 0.8343(6) 0.8303(5) 0.6636(9)
H8_4 H 0.8811 0.8208 0.6893
C8_3 C 0.7524(7) 0.9756(5) 0.4104(8)
H9_3 H 0.6457 0.9859 0.4452
H12_3 H 0.8613 0.9794 0.3820
S1_4 S 0.2547(2) 0.10635(12) 0.8934(2)
O9_4 O 0.3282(6) 0.1212(4) 0.8598(7)
O10_4 O 0.1938(6) 0.1263(3) 0.8313(6)
C8_4 C 0.2476(7) 0.0244(5) 0.9104(8)
H9_4 H 0.3543 0.0141 0.9452
H12_4 H 0.1387 0.0206 0.8820
N4_4 N 0.0145(5) 0.7719(4) 0.9045(6)
H2_4 H 0.0563 0.7707 0.8723
C29_4 C 0.0061(5) 0.7426(4) 0.9980(7)
O17 O 0.0533(9) 0.1796(7) 0.8134(13)
O17_2 O 0.9467(9) 0.8204(7) 0.3134(13)
O17_3 O 0.4467(9) 0.6796(7) 0.3134(13)
O17_4 O 0.5533(9) 0.3204(7) 0.8134(13)
loop_
_geom_bond_atom_site_label_1
_geom_bond_atom_site_label_2
_geom_bond_site_symmetry_1
_geom_bond_site_symmetry_2
O2 C28 1_555 1_555
O8 C28 1_555 1_555
H18 C24 1_555 1_555
C25 C24 1_555 1_555
C26 C25 1_555 1_555
H19 C26 1_555 1_555
C28 C25 1_555 1_555
Co4 O2 1_555 1_555
Co6 O8 1_555 1_555
Co1 N1 1_555 1_555
S2 O11 1_555 1_555
N1 N3 1_555 1_555
N3 C30 1_555 1_555
N5 H3 1_555 1_555
H4 N5 1_555 1_555
O4 Co1 1_555 1_555
O6 Co2 1_555 1_555
O12 S2 1_555 1_555
C15 O4 1_555 1_555
C16 C15 1_555 1_555
C17 C16 1_555 1_555
H13 C17 1_555 1_555
C18 C17 1_555 1_555
H14 C18 1_555 1_555
C19 S2 1_555 1_555
C20 C19 1_555 1_555
H15 C20 1_555 1_555
C21 C16 1_555 1_555
H16 C21 1_555 1_555
C22 S2 1_555 1_555
C23 C22 1_555 1_555
H17 C23 1_555 1_555
C27 C22 1_555 1_555
H20 C27 1_555 1_555
C30 N2 1_555 1_555
Co7 N2 1_555 1_555
N6 Co2 1_555 1_555
O13 Co1 1_555 1_555
O14 Co1 1_555 1_555
O16 Co2 1_555 1_555
N5 C30 1_555 1_555
O6 C15 1_555 1_555
C18 C19 1_555 1_555
C20 C21 1_555 1_555
S1 O9 1_555 1_555
N4 H1 1_555 1_555
H2 N4 1_555 1_555
O1 C14 1_555 1_555
O5 C1 1_555 1_555
O7 C14 1_555 1_555
O10 S1 1_555 1_555
C1 O3 1_555 1_555
C2 C1 1_555 1_555
C3 C2 1_555 1_555
H5 C3 1_555 1_555
C4 C3 1_555 1_555
H6 C4 1_555 1_555
C5 S1 1_555 1_555
C6 C5 1_555 1_555
H7 C6 1_555 1_555
C7 C2 1_555 1_555
H8 C7 1_555 1_555
C8 S1 1_555 1_555
C9 C8 1_555 1_555
H9 C9 1_555 1_555
C10 C9 1_555 1_555
H10 C10 1_555 1_555
C11 C10 1_555 1_555
C12 C11 1_555 1_555
H11 C12 1_555 1_555
C13 C8 1_555 1_555
H12 C13 1_555 1_555
C14 C11 1_555 1_555
Co4 O1 1_555 1_555
Co6 O7 1_555 1_555
N4 C29 1_555 1_555
C4 C5 1_555 1_555
C6 C7 1_555 1_555
C12 C13 1_555 1_555
Co1_2 N1_2 1_555 1_555
Co2_2 O5_2 1_555 1_555
N1_2 N3_2 1_555 1_555
N2_2 C29_2 1_555 1_555
N3_2 C30_2 1_555 1_555
N4_2 H1_2 1_555 1_555
H2_2 N4_2 1_555 1_555
N5_2 H3_2 1_555 1_555
H4_2 N5_2 1_555 1_555
O3_2 Co1_2 1_555 1_555
O4_2 Co1_2 1_555 1_555
O5_2 C1_2 1_555 1_555
O6_2 Co2_2 1_555 1_555
C1_2 O3_2 1_555 1_555
C2_2 C1_2 1_555 1_555
C3_2 C2_2 1_555 1_555
H5_2 C3_2 1_555 1_555
C4_2 C3_2 1_555 1_555
H6_2 C4_2 1_555 1_555
C6_2 C5_2 1_555 1_555
H7_2 C6_2 1_555 1_555
C7_2 C2_2 1_555 1_555
H8_2 C7_2 1_555 1_555
C15_2 O4_2 1_555 1_555
C16_2 C15_2 1_555 1_555
C17_2 C16_2 1_555 1_555
H13_2 C17_2 1_555 1_555
C21_2 C16_2 1_555 1_555
H16_2 C21_2 1_555 1_555
C29_2 N1_2 1_555 1_555
C30_2 N2_2 1_555 1_555
Co3 O1_2 1_555 1_555
Co6 N2_2 1_555 1_555
N6_2 Co2_2 1_555 1_555
O13_2 Co1_2 1_555 1_555
O14_2 Co1_2 1_555 1_555
O15_2 Co2_2 1_555 1_555
O16_2 Co2_2 1_555 1_555
N4_2 C29_2 1_555 1_555
N5_2 C30_2 1_555 1_555
O6_2 C15_2 1_555 1_555
C4_2 C5_2 1_555 1_555
C6_2 C7_2 1_555 1_555
C20_2 C21_2 1_555 1_555
O2_2 C28_2 1_555 1_555
O8_2 C28_2 1_555 1_555
H18_2 C24_2 1_555 1_555
C25_2 C24_2 1_555 1_555
C26_2 C25_2 1_555 1_555
H19_2 C26_2 1_555 1_555
C28_2 C25_2 1_555 1_555
Co3 O2_2 1_555 1_555
Co7 O8_2 1_555 1_555
S2_2 O11_2 1_555 1_555
O14 C28_3 1_555 1_555
O16 C28_3 1_555 1_555
O12_2 S2_2 1_555 1_555
H14_2 C18_2 1_555 1_555
C19_2 S2_2 1_555 1_555
C22_2 S2_2 1_555 1_555
C23_2 C22_2 1_555 1_555
H17_2 C23_2 1_555 1_555
C24_3 C23_2 1_555 1_555
H18_3 C24_3 1_555 1_555
C25_3 C24_3 1_555 1_555
C26_3 C25_3 1_555 1_555
H19_3 C26_3 1_555 1_555
C27_2 C22_2 1_555 1_555
H20_2 C27_2 1_555 1_555
C28_3 C25_3 1_555 1_555
C18_2 C19_2 1_555 1_555
C26_3 C27_2 1_555 1_555
Co4 N1_3 1_555 1_555
Co6 O5_3 1_555 1_555
N1_3 N3_3 1_555 1_555
O3_3 Co4 1_555 1_555
O4_3 Co4 1_555 1_555
O5_3 C1_3 1_555 1_555
O6_3 Co6 1_555 1_555
C1_3 O3_3 1_555 1_555
C2_3 C1_3 1_555 1_555
C3_3 C2_3 1_555 1_555
H5_3 C3_3 1_555 1_555
C4_3 C3_3 1_555 1_555
H6_3 C4_3 1_555 1_555
C6_3 C5_3 1_555 1_555
H7_3 C6_3 1_555 1_555
C7_3 C2_3 1_555 1_555
H8_3 C7_3 1_555 1_555
C15_3 O4_3 1_555 1_555
C16_3 C15_3 1_555 1_555
C17_3 C16_3 1_555 1_555
H13_3 C17_3 1_555 1_555
C21_3 C16_3 1_555 1_555
H16_3 C21_3 1_555 1_555
O6_3 C15_3 1_555 1_555
C4_3 C5_3 1_555 1_555
C6_3 C7_3 1_555 1_555
C20_3 C21_3 1_555 1_555
O15 C14_2 1_555 1_555
C10_2 C9_2 1_555 1_555
H10_2 C10_2 1_555 1_555
C11_2 C10_2 1_555 1_555
C12_2 C11_2 1_555 1_555
H11_2 C12_2 1_555 1_555
C14_2 C11_2 1_555 1_555
C12_2 C13_2 1_555 1_555
N6_2 C29_3 1_555 1_555
H2_3 N4_3 1_555 1_555
N5_3 H3_3 1_555 1_555
H4_3 N5_3 1_555 1_555
C30_3 N6_2 1_555 1_555
N4_3 C29_3 1_555 1_555
N5_3 C30_3 1_555 1_555
N5_4 H3_4 1_555 1_555
H4_4 N5_4 1_555 1_555
C30_4 N6 1_555 1_555
N5_4 C30_4 1_555 1_555
O13_2 C14_3 1_555 1_555
O15_2 C14_3 1_555 1_555
C10_3 C9_3 1_555 1_555
H10_3 C10_3 1_555 1_555
C11_3 C10_3 1_555 1_555
C12_3 C11_3 1_555 1_555
H11_3 C12_3 1_555 1_555
C14_3 C11_3 1_555 1_555
C12_3 C13_3 1_555 1_555
Co3 N1_4 1_555 1_555
S2_3 O11_3 1_555 1_555
N1_4 N3_4 1_555 1_555
O14_2 C28_4 1_555 1_555
O4_4 Co3 1_555 1_555
O6_4 Co7 1_555 1_555
O16_2 C28_4 1_555 1_555
O12_3 S2_3 1_555 1_555
C15_4 O4_4 1_555 1_555
C16_4 C15_4 1_555 1_555
C17_4 C16_4 1_555 1_555
H13_4 C17_4 1_555 1_555
C18_3 C17_4 1_555 1_555
H14_3 C18_3 1_555 1_555
C19_3 S2_3 1_555 1_555
C20_4 C19_3 1_555 1_555
H15_3 C20_4 1_555 1_555
C21_4 C16_4 1_555 1_555
H16_4 C21_4 1_555 1_555
C22_3 S2_3 1_555 1_555
C23_3 C22_3 1_555 1_555
H17_3 C23_3 1_555 1_555
C24_4 C23_3 1_555 1_555
H18_4 C24_4 1_555 1_555
C25_4 C24_4 1_555 1_555
C26_4 C25_4 1_555 1_555
H19_4 C26_4 1_555 1_555
C27_3 C22_3 1_555 1_555
H20_3 C27_3 1_555 1_555
C28_4 C25_4 1_555 1_555
O6_4 C15_4 1_555 1_555
C18_3 C19_3 1_555 1_555
C20_4 C21_4 1_555 1_555
C26_4 C27_3 1_555 1_555
S2_4 O11_4 1_555 1_555
O12_4 S2_4 1_555 1_555
H14_4 C18_4 1_555 1_555
C19_4 S2_4 1_555 1_555
C22_4 S2_4 1_555 1_555
C23_4 C22_4 1_555 1_555
H17_4 C23_4 1_555 1_555
C27_4 C22_4 1_555 1_555
H20_4 C27_4 1_555 1_555
C18_4 C19_4 1_555 1_555
S1_2 O9_2 1_555 1_555
O7_2 C14_4 1_555 1_555
O10_2 S1_2 1_555 1_555
C8_2 S1_2 1_555 1_555
C9_4 C8_2 1_555 1_555
H9_2 C9_4 1_555 1_555
C10_4 C9_4 1_555 1_555
H10_4 C10_4 1_555 1_555
C11_4 C10_4 1_555 1_555
C12_4 C11_4 1_555 1_555
H11_4 C12_4 1_555 1_555
C13_4 C8_2 1_555 1_555
H12_2 C13_4 1_555 1_555
C14_4 C11_4 1_555 1_555
C12_4 C13_4 1_555 1_555
S1_3 O9_3 1_555 1_555
O5_4 C1_4 1_555 1_555
O10_3 S1_3 1_555 1_555
C1_4 O3_4 1_555 1_555
C2_4 C1_4 1_555 1_555
C3_4 C2_4 1_555 1_555
H5_4 C3_4 1_555 1_555
C4_4 C3_4 1_555 1_555
H6_4 C4_4 1_555 1_555
C5_4 S1_3 1_555 1_555
C6_4 C5_4 1_555 1_555
H7_4 C6_4 1_555 1_555
C7_4 C2_4 1_555 1_555
H8_4 C7_4 1_555 1_555
C8_3 S1_3 1_555 1_555
C4_4 C5_4 1_555 1_555
C6_4 C7_4 1_555 1_555
S1_4 O9_4 1_555 1_555
O10_4 S1_4 1_555 1_555
C8_4 S1_4 1_555 1_555
H2_4 N4_4 1_555 1_555
N4_4 C29_4 1_555 1_555

#END
