
###############################################################################
#
# This file contains modified crystal structure data generated from the
# MOF subset of the Cambridge Structural Database (CSD) v543 
# hosted by the Cambridge Crystallographic Data Centre (CCDC).
#
# This work is licensed under the Creative Commons
# Attribution-NonCommercial-ShareAlike 4.0 International License.
# To view a copy of this license, visit
# http://creativecommons.org/licenses/by-nc-sa/4.0/
# or send a letter to
# Creative Commons, PO Box 1866, Mountain View, CA 94042, USA.
#
# CIF created using the CSD Python API on 29 September 2022
# The structure has been converted into the P1 space group
# The structure has a 3D framework
# The original CSD entry IBACAS is in the orthorhombic crystal system
# The framework has been calculated to contain at least 10.0% void space
# The void calculation uses a probe of radius 1.32A, grid spacing 0.4
# H atom positions have been added when not included in the experimental data
# Generated hydrogen atom positions removed from atoms on special positions
#
###############################################################################

data_IBACAS
_chemical_formula_moiety         '(C120 H92 Co8 N20 O50 S8)n'
_symmetry_cell_setting           triclinic
_symmetry_space_group_name_H-M   'P 1'
_symmetry_Int_Tables_number      1
_space_group_name_Hall           'P 1'
loop_
_symmetry_equiv_pos_site_id
_symmetry_equiv_pos_as_xyz
1 x,y,z
_cell_length_a                   18.0156(15)
_cell_length_b                   21.7598(18)
_cell_length_c                   12.7070(11)
_cell_angle_alpha                90
_cell_angle_beta                 90
_cell_angle_gamma                90
_cell_volume                     4981.35
loop_
_atom_site_label
_atom_site_type_symbol
_atom_site_fract_x
_atom_site_fract_y
_atom_site_fract_z
O4 O 0.1752(5) 0.1483(4) 0.5815(7)
O8 O 0.2987(5) 0.1378(4) 0.5852(7)
C25 C 0.2833(8) 0.0159(7) 0.6531(11)
C26 C 0.1550(9) 0.0240(7) 0.6150(13)
H19 H 0.3295 0.0343 0.6606
C28 C 0.2253(8) 0.0511(6) 0.6233(11)
H20 H 0.1136 0.0471 0.5966
C30 C 0.2339(8) 0.1179(6) 0.5961(10)
Co4 Co 0.16515(9) 0.23629(7) 0.53861(16)
Co6 Co 0.32740(9) 0.22688(7) 0.53151(16)
Co1 Co 0.33485(9) 0.73629(7) 0.03861(16)
Co2 Co 0.17260(9) 0.72688(7) 0.03151(16)
N1 N 0.4404(6) 0.7665(5) 0.0524(9)
O2 O 0.3140(5) 0.7612(4) 0.1986(7)
O6 O 0.1900(5) 0.7517(4) 0.1809(8)
N2 N 0.5619(6) 0.7912(4) 0.0464(9)
N3 N 0.4584(6) 0.8054(5) 0.1374(9)
C1 C 0.5032(7) 0.7614(6) 0.0017(10)
C3 C 0.2497(8) 0.7631(6) 0.2329(10)
C4 C 0.5310(8) 0.8177(7) 0.1310(12)
C6 C 0.2355(8) 0.7823(6) 0.3451(10)
N5 N 0.5668(6) 0.8534(5) 0.1996(9)
C9 C 0.2948(9) 0.7987(10) 0.4102(13)
C10 C 0.1664(9) 0.7824(7) 0.3862(11)
H3 H 0.5430 0.8698 0.2511
H4 H 0.6135 0.8599 0.1923
H7 H 0.3428 0.7966 0.3837
C13 C 0.2846(10) 0.8174(7) 0.5106(11)
C14 C 0.1562(10) 0.8012(7) 0.4902(12)
H8 H 0.1261 0.7701 0.3457
H11 H 0.3246 0.8297 0.5518
C16 C 0.2133(9) 0.8178(7) 0.5504(12)
H12 H 0.1085 0.8022 0.5181
S2 S 0.1999(3) 0.84617(16) 0.6804(3)
O11 O 0.1242(7) 0.8324(4) 0.7115(8)
O12 O 0.2602(7) 0.8261(4) 0.7449(7)
C18 C 0.2078(9) 0.9264(6) 0.6624(11)
C21 C 0.2771(9) 0.9552(6) 0.6726(11)
C22 C 0.1495(10) 0.9606(7) 0.6354(14)
H15 H 0.3186 0.9325 0.6926
H16 H 0.1032 0.9418 0.6299
Co7 Co 0.67260(9) 0.77312(7) 0.03151(16)
O13 O 0.2803(5) 0.8133(4) 0.0046(7)
O14 O 0.3248(5) 0.6483(4) 0.0815(7)
N6 N 0.0619(6) 0.7088(4) 0.0464(9)
O16 O 0.2013(5) 0.6378(4) 0.0852(7)
O1 O 0.3403(5) 0.7097(4) 0.8833(7)
O3 O 0.2197(5) 0.3133(4) 0.5046(7)
O5 O 0.2172(5) 0.7009(4) 0.8960(7)
O7 O 0.3419(5) 0.3165(4) 0.4795(7)
C2 C 0.2764(8) 0.6988(6) 0.8444(10)
N4 N 0.5085(6) 0.7295(5) 0.9099(9)
C5 C 0.2694(8) 0.6795(6) 0.7309(10)
H1 H 0.4698 0.7121 0.8838
H2 H 0.5504 0.7268 0.8780
C7 C 0.2032(8) 0.6634(7) 0.6920(12)
C8 C 0.3309(10) 0.6749(9) 0.6685(13)
H5 H 0.1616 0.6642 0.7352
C11 C 0.1963(9) 0.6458(8) 0.5896(13)
C12 C 0.3258(9) 0.6568(7) 0.5650(10)
H6 H 0.3772 0.6843 0.6965
H9 H 0.1496 0.6364 0.5631
C15 C 0.2564(8) 0.6416(7) 0.5253(12)
H10 H 0.3678 0.6547 0.5227
S1 S 0.2476(3) 0.61212(15) 0.3978(3)
O9 O 0.1728(7) 0.6237(5) 0.3624(8)
O10 O 0.3091(7) 0.6343(5) 0.3369(8)
C17 C 0.2581(9) 0.5319(6) 0.4156(11)
C19 C 0.1941(8) 0.4982(6) 0.4386(11)
C20 C 0.3266(9) 0.5049(6) 0.4131(11)
H13 H 0.1480 0.5172 0.4413
C23 C 0.2011(8) 0.4344(6) 0.4577(11)
C24 C 0.3335(8) 0.4427(7) 0.4304(11)
H14 H 0.3686 0.5286 0.3997
H17 H 0.1596 0.4104 0.4721
C27 C 0.2713(8) 0.4085(7) 0.4546(11)
H18 H 0.3797 0.4238 0.4258
C29 C 0.2787(8) 0.3413(7) 0.4802(11)
O15 O 0.1581(5) 0.8165(4) 0.9795(7)
Co1_2 Co 0.66515(9) 0.26371(7) 0.53861(16)
Co2_2 Co 0.82740(9) 0.27312(7) 0.53151(16)
N1_2 N 0.5596(6) 0.2335(5) 0.5524(9)
O1_2 O 0.6597(5) 0.2903(4) 0.3833(7)
O2_2 O 0.6860(5) 0.2388(4) 0.6986(7)
O3_2 O 0.7803(5) 0.6867(4) 0.0046(7)
O5_2 O 0.7828(5) 0.2991(4) 0.3960(7)
O6_2 O 0.8100(5) 0.2483(4) 0.6809(8)
N2_2 N 0.4381(6) 0.2088(4) 0.5464(9)
N3_2 N 0.5416(6) 0.1946(5) 0.6374(9)
C1_2 C 0.4968(7) 0.2386(6) 0.5017(10)
C2_2 C 0.7236(8) 0.3012(6) 0.3444(10)
C3_2 C 0.7503(8) 0.2369(6) 0.7329(10)
C4_2 C 0.4690(8) 0.1823(7) 0.6310(12)
N4_2 N 0.4915(6) 0.2705(5) 0.4099(9)
C5_2 C 0.7306(8) 0.3205(6) 0.2309(10)
C6_2 C 0.7645(8) 0.2177(6) 0.8451(10)
N5_2 N 0.4332(6) 0.1466(5) 0.6996(9)
H1_2 H 0.5302 0.2879 0.3838
H2_2 H 0.4496 0.2732 0.3780
C7_2 C 0.7968(8) 0.3366(7) 0.1920(12)
C8_2 C 0.6691(10) 0.3251(9) 0.1685(13)
C9_2 C 0.7052(9) 0.2013(10) 0.9102(13)
C10_2 C 0.8336(9) 0.2176(7) 0.8862(11)
H3_2 H 0.4570 0.1302 0.7511
H4_2 H 0.3865 0.1401 0.6923
H5_2 H 0.8384 0.3358 0.2352
C11_2 C 0.8037(9) 0.3542(8) 0.0896(13)
C12_2 C 0.6742(9) 0.3432(7) 0.0650(10)
H6_2 H 0.6228 0.3157 0.1965
H7_2 H 0.6572 0.2034 0.8837
C14_2 C 0.8438(10) 0.1988(7) 0.9902(12)
H8_2 H 0.8739 0.2299 0.8457
H9_2 H 0.8504 0.3636 0.0631
C15_2 C 0.7436(8) 0.3584(7) 0.0253(12)
H10_2 H 0.6322 0.3453 0.0227
Co3 Co 0.83485(9) 0.76371(7) 0.03861(16)
O13_2 O 0.7197(5) 0.1867(4) 0.5046(7)
O14_2 O 0.6752(5) 0.3517(4) 0.5815(7)
N6_2 N 0.9381(6) 0.2912(4) 0.5464(9)
O15_2 O 0.8419(5) 0.1835(4) 0.4795(7)
O16_2 O 0.7987(5) 0.3622(4) 0.5852(7)
O4_2 O 0.8248(5) 0.8517(4) 0.0815(7)
O8_2 O 0.7013(5) 0.8622(4) 0.0852(7)
C25_2 C 0.7167(8) 0.9841(7) 0.1531(11)
C26_2 C 0.8450(9) 0.9760(7) 0.1150(13)
H19_2 H 0.6705 0.9657 0.1606
C28_2 C 0.7747(8) 0.9489(6) 0.1233(11)
H20_2 H 0.8864 0.9529 0.0966
C30_2 C 0.7661(8) 0.8821(6) 0.0961(10)
C13_2 C 0.2154(10) 0.3174(7) 0.0106(11)
H11_2 H 0.1754 0.3297 0.0518
C16_2 C 0.2867(9) 0.3178(7) 0.0504(12)
H12_2 H 0.3915 0.3022 0.0181
S2_2 S 0.3001(3) 0.34617(16) 0.1804(3)
O11_2 O 0.3758(7) 0.3324(4) 0.2115(8)
O12_2 O 0.2398(7) 0.3261(4) 0.2449(7)
C18_2 C 0.2922(9) 0.4264(6) 0.1624(11)
C21_2 C 0.2229(9) 0.4552(6) 0.1726(11)
C22_2 C 0.3505(10) 0.4606(7) 0.1354(14)
H15_2 H 0.1814 0.4325 0.1926
C25_3 C 0.2167(8) 0.5159(7) 0.1531(11)
C26_3 C 0.3450(9) 0.5240(7) 0.1150(13)
H16_2 H 0.3968 0.4418 0.1299
H19_3 H 0.1705 0.5343 0.1606
C28_3 C 0.2747(8) 0.5511(6) 0.1233(11)
H20_3 H 0.3864 0.5471 0.0966
C30_3 C 0.2661(8) 0.6179(6) 0.0961(10)
N1_3 N 0.0596(6) 0.2665(5) 0.5524(9)
O1_3 O 0.1597(5) 0.2097(4) 0.3833(7)
O2_3 O 0.1860(5) 0.2612(4) 0.6986(7)
O5_3 O 0.2828(5) 0.2009(4) 0.3960(7)
O6_3 O 0.3100(5) 0.2517(4) 0.6809(8)
N3_3 N 0.0416(6) 0.3054(5) 0.6374(9)
C2_3 C 0.2236(8) 0.1988(6) 0.3444(10)
C3_3 C 0.2503(8) 0.2631(6) 0.7329(10)
C5_3 C 0.2306(8) 0.1795(6) 0.2309(10)
C6_3 C 0.2645(8) 0.2823(6) 0.8451(10)
H1_3 H 0.0302 0.2121 0.3838
C7_3 C 0.2968(8) 0.1634(7) 0.1920(12)
C8_3 C 0.1691(10) 0.1749(9) 0.1685(13)
C9_3 C 0.2052(9) 0.2987(10) 0.9102(13)
C10_3 C 0.3336(9) 0.2824(7) 0.8862(11)
H5_3 H 0.3384 0.1642 0.2352
C11_3 C 0.3037(9) 0.1458(8) 0.0896(13)
C12_3 C 0.1742(9) 0.1568(7) 0.0650(10)
H6_3 H 0.1228 0.1843 0.1965
H7_3 H 0.1572 0.2966 0.8837
C14_3 C 0.3438(10) 0.3012(7) 0.9902(12)
H8_3 H 0.3739 0.2701 0.8457
H9_3 H 0.3504 0.1364 0.0631
C15_3 C 0.2436(8) 0.1416(7) 0.0253(12)
H10_3 H 0.1322 0.1547 0.0227
C19_2 C 0.3059(8) 0.9982(6) 0.9386(11)
C23_2 C 0.2989(8) 0.9344(6) 0.9577(11)
C24_2 C 0.1665(8) 0.9427(7) 0.9304(11)
H17_2 H 0.3404 0.9104 0.9721
C27_2 C 0.2287(8) 0.9085(7) 0.9546(11)
H18_2 H 0.1203 0.9238 0.9258
C29_2 C 0.2213(8) 0.8413(7) 0.9802(11)
C1_3 C 0.9968(7) 0.2614(6) 0.5017(10)
C4_3 C 0.9690(8) 0.3177(7) 0.6310(12)
N4_3 N 0.9915(6) 0.2295(5) 0.4099(9)
N5_3 N 0.9332(6) 0.3534(5) 0.6996(9)
H2_3 H 0.9496 0.2268 0.3780
H3_3 H 0.9570 0.3698 0.7511
H4_3 H 0.8865 0.3599 0.6923
C1_4 C 0.0032(7) 0.7386(6) 0.0017(10)
C4_4 C 0.0310(8) 0.6823(7) 0.1310(12)
N5_4 N 0.0668(6) 0.6466(5) 0.1996(9)
H3_4 H 0.0430 0.6302 0.2511
H4_4 H 0.1135 0.6401 0.1923
C19_3 C 0.6941(8) 0.0018(6) 0.4386(11)
C23_3 C 0.7011(8) 0.0656(6) 0.4577(11)
C24_3 C 0.8335(8) 0.0573(7) 0.4304(11)
H17_3 H 0.6596 0.0896 0.4721
C27_3 C 0.7713(8) 0.0915(7) 0.4546(11)
H18_3 H 0.8797 0.0762 0.4258
C29_3 C 0.7787(8) 0.1587(7) 0.4802(11)
N1_4 N 0.9404(6) 0.7335(5) 0.0524(9)
O2_4 O 0.8140(5) 0.7388(4) 0.1986(7)
O6_4 O 0.6900(5) 0.7483(4) 0.1809(8)
N3_4 N 0.9584(6) 0.6946(5) 0.1374(9)
C3_4 C 0.7497(8) 0.7369(6) 0.2329(10)
C6_4 C 0.7355(8) 0.7177(6) 0.3451(10)
C9_4 C 0.7948(9) 0.7013(10) 0.4102(13)
C10_4 C 0.6664(9) 0.7176(7) 0.3862(11)
H7_4 H 0.8428 0.7034 0.3837
C13_3 C 0.7846(10) 0.6826(7) 0.5106(11)
C14_4 C 0.6562(10) 0.6988(7) 0.4902(12)
H8_4 H 0.6261 0.7299 0.3457
H11_3 H 0.8246 0.6703 0.5518
C16_3 C 0.7133(9) 0.6822(7) 0.5504(12)
H12_3 H 0.6085 0.6978 0.5181
S2_3 S 0.6999(3) 0.65383(16) 0.6804(3)
O11_3 O 0.6242(7) 0.6676(4) 0.7115(8)
O12_3 O 0.7602(7) 0.6739(4) 0.7449(7)
C18_3 C 0.7078(9) 0.5736(6) 0.6624(11)
C21_3 C 0.7771(9) 0.5448(6) 0.6726(11)
C22_3 C 0.6495(10) 0.5394(7) 0.6354(14)
H15_3 H 0.8186 0.5675 0.6926
C25_4 C 0.7833(8) 0.4841(7) 0.6531(11)
C26_4 C 0.6550(9) 0.4760(7) 0.6150(13)
H16_3 H 0.6032 0.5582 0.6299
H19_4 H 0.8295 0.4657 0.6606
C28_4 C 0.7253(8) 0.4489(6) 0.6233(11)
H20_4 H 0.6136 0.4529 0.5966
C30_4 C 0.7339(8) 0.3821(6) 0.5961(10)
C13_4 C 0.7154(10) 0.1826(7) 0.0106(11)
H11_4 H 0.6754 0.1703 0.0518
C16_4 C 0.7867(9) 0.1822(7) 0.0504(12)
H12_4 H 0.8915 0.1978 0.0181
S2_4 S 0.8001(3) 0.15383(16) 0.1804(3)
O11_4 O 0.8758(7) 0.1676(4) 0.2115(8)
O12_4 O 0.7398(7) 0.1739(4) 0.2449(7)
C18_4 C 0.7922(9) 0.0736(6) 0.1624(11)
C21_4 C 0.7229(9) 0.0448(6) 0.1726(11)
C22_4 C 0.8505(10) 0.0394(7) 0.1354(14)
H15_4 H 0.6814 0.0675 0.1926
H16_4 H 0.8968 0.0582 0.1299
O7_2 O 0.6581(5) 0.6835(4) 0.9795(7)
S1_2 S 0.7524(3) 0.38788(15) 0.8978(3)
O9_2 O 0.8272(7) 0.3763(5) 0.8624(8)
O10_2 O 0.6909(7) 0.3657(5) 0.8369(8)
C17_2 C 0.7419(9) 0.4681(6) 0.9156(11)
C19_4 C 0.8059(8) 0.5018(6) 0.9386(11)
C20_2 C 0.6734(9) 0.4951(6) 0.9131(11)
H13_2 H 0.8520 0.4828 0.9413
C23_4 C 0.7989(8) 0.5656(6) 0.9577(11)
C24_4 C 0.6665(8) 0.5573(7) 0.9304(11)
H14_2 H 0.6314 0.4714 0.8997
H17_4 H 0.8404 0.5896 0.9721
C27_4 C 0.7287(8) 0.5915(7) 0.9546(11)
H18_4 H 0.6203 0.5762 0.9258
C29_4 C 0.7213(8) 0.6587(7) 0.9802(11)
O1_4 O 0.8403(5) 0.7903(4) 0.8833(7)
O5_4 O 0.7172(5) 0.7991(4) 0.8960(7)
C2_4 C 0.7764(8) 0.8012(6) 0.8444(10)
C5_4 C 0.7694(8) 0.8205(6) 0.7309(10)
H1_4 H 0.9698 0.7879 0.8838
C7_4 C 0.7032(8) 0.8366(7) 0.6920(12)
C8_4 C 0.8309(10) 0.8251(9) 0.6685(13)
H5_4 H 0.6616 0.8358 0.7352
C11_4 C 0.6963(9) 0.8542(8) 0.5896(13)
C12_4 C 0.8258(9) 0.8432(7) 0.5650(10)
H6_4 H 0.8772 0.8157 0.6965
H9_4 H 0.6496 0.8636 0.5631
C15_4 C 0.7564(8) 0.8584(7) 0.5253(12)
H10_4 H 0.8678 0.8453 0.5227
S1_3 S 0.7476(3) 0.88788(15) 0.3978(3)
O9_3 O 0.6728(7) 0.8763(5) 0.3624(8)
O10_3 O 0.8091(7) 0.8657(5) 0.3369(8)
C17_3 C 0.7581(9) 0.9681(6) 0.4156(11)
C20_3 C 0.8266(9) 0.9951(6) 0.4131(11)
H13_3 H 0.6480 0.9828 0.4413
H14_3 H 0.8686 0.9714 0.3997
S1_4 S 0.2524(3) 0.11212(15) 0.8978(3)
O9_4 O 0.3272(7) 0.1237(5) 0.8624(8)
O10_4 O 0.1909(7) 0.1343(5) 0.8369(8)
C17_4 C 0.2419(9) 0.0319(6) 0.9156(11)
C20_4 C 0.1734(9) 0.0049(6) 0.9131(11)
H13_4 H 0.3520 0.0172 0.9413
H14_4 H 0.1314 0.0286 0.8997
N4_4 N 0.0085(6) 0.7705(5) 0.9099(9)
H2_4 H 0.0504 0.7732 0.8780
O17 O 0.5446(10) 0.6352(8) 0.1315(14)
O17_2 O 0.4554(10) 0.3648(8) 0.6315(14)
O17_3 O 0.9554(10) 0.1352(8) 0.6315(14)
O17_4 O 0.0446(10) 0.8648(8) 0.1315(14)
loop_
_geom_bond_atom_site_label_1
_geom_bond_atom_site_label_2
_geom_bond_site_symmetry_1
_geom_bond_site_symmetry_2
O4 C30 1_555 1_555
O8 C30 1_555 1_555
H19 C25 1_555 1_555
C28 C25 1_555 1_555
H20 C26 1_555 1_555
C30 C28 1_555 1_555
Co4 O4 1_555 1_555
Co6 O8 1_555 1_555
C26 C28 1_555 1_555
Co1 N1 1_555 1_555
N1 N3 1_555 1_555
O2 Co1 1_555 1_555
O6 Co2 1_555 1_555
N2 C1 1_555 1_555
N3 C4 1_555 1_555
C1 N1 1_555 1_555
C3 O2 1_555 1_555
C4 N2 1_555 1_555
C6 C3 1_555 1_555
N5 C4 1_555 1_555
C9 C6 1_555 1_555
C10 C6 1_555 1_555
H3 N5 1_555 1_555
H4 N5 1_555 1_555
H7 C9 1_555 1_555
C13 C9 1_555 1_555
C14 C10 1_555 1_555
H8 C10 1_555 1_555
H11 C13 1_555 1_555
C16 C13 1_555 1_555
H12 C14 1_555 1_555
S2 C16 1_555 1_555
O11 S2 1_555 1_555
O12 S2 1_555 1_555
C18 S2 1_555 1_555
C21 C18 1_555 1_555
C22 C18 1_555 1_555
H15 C21 1_555 1_555
H16 C22 1_555 1_555
Co7 N2 1_555 1_555
O13 Co1 1_555 1_555
O14 Co1 1_555 1_555
N6 Co2 1_555 1_555
O16 Co2 1_555 1_555
O6 C3 1_555 1_555
C14 C16 1_555 1_555
O3 C29 1_555 1_555
O5 C2 1_555 1_555
O7 C29 1_555 1_555
C2 O1 1_555 1_555
C5 C2 1_555 1_555
H1 N4 1_555 1_555
H2 N4 1_555 1_555
C7 C5 1_555 1_555
C8 C5 1_555 1_555
H5 C7 1_555 1_555
C11 C7 1_555 1_555
C12 C8 1_555 1_555
H6 C8 1_555 1_555
H9 C11 1_555 1_555
C15 C11 1_555 1_555
H10 C12 1_555 1_555
S1 C15 1_555 1_555
O9 S1 1_555 1_555
O10 S1 1_555 1_555
C17 S1 1_555 1_555
C19 C17 1_555 1_555
C20 C17 1_555 1_555
H13 C19 1_555 1_555
C23 C19 1_555 1_555
C24 C20 1_555 1_555
H14 C20 1_555 1_555
H17 C23 1_555 1_555
C27 C23 1_555 1_555
H18 C24 1_555 1_555
C29 C27 1_555 1_555
Co4 O3 1_555 1_555
Co6 O7 1_555 1_555
C12 C15 1_555 1_555
C24 C27 1_555 1_555
Co1_2 N1_2 1_555 1_555
Co2_2 O5_2 1_555 1_555
N1_2 N3_2 1_555 1_555
O1_2 Co1_2 1_555 1_555
O2_2 Co1_2 1_555 1_555
O5_2 C2_2 1_555 1_555
O6_2 Co2_2 1_555 1_555
N2_2 C1_2 1_555 1_555
N3_2 C4_2 1_555 1_555
C1_2 N1_2 1_555 1_555
C2_2 O1_2 1_555 1_555
C3_2 O2_2 1_555 1_555
C4_2 N2_2 1_555 1_555
N4_2 C1_2 1_555 1_555
C5_2 C2_2 1_555 1_555
C6_2 C3_2 1_555 1_555
N5_2 C4_2 1_555 1_555
H1_2 N4_2 1_555 1_555
H2_2 N4_2 1_555 1_555
C7_2 C5_2 1_555 1_555
C8_2 C5_2 1_555 1_555
C9_2 C6_2 1_555 1_555
C10_2 C6_2 1_555 1_555
H3_2 N5_2 1_555 1_555
H4_2 N5_2 1_555 1_555
H5_2 C7_2 1_555 1_555
C11_2 C7_2 1_555 1_555
C12_2 C8_2 1_555 1_555
H6_2 C8_2 1_555 1_555
H7_2 C9_2 1_555 1_555
C14_2 C10_2 1_555 1_555
H8_2 C10_2 1_555 1_555
H9_2 C11_2 1_555 1_555
C15_2 C11_2 1_555 1_555
H10_2 C12_2 1_555 1_555
Co3 O3_2 1_555 1_555
Co6 N2_2 1_555 1_555
O13_2 Co1_2 1_555 1_555
O14_2 Co1_2 1_555 1_555
N6_2 Co2_2 1_555 1_555
O15_2 Co2_2 1_555 1_555
O16_2 Co2_2 1_555 1_555
O6_2 C3_2 1_555 1_555
C12_2 C15_2 1_555 1_555
O4_2 C30_2 1_555 1_555
O8_2 C30_2 1_555 1_555
H19_2 C25_2 1_555 1_555
C28_2 C25_2 1_555 1_555
H20_2 C26_2 1_555 1_555
C30_2 C28_2 1_555 1_555
Co3 O4_2 1_555 1_555
Co7 O8_2 1_555 1_555
C26_2 C28_2 1_555 1_555
O14 C30_3 1_555 1_555
O16 C30_3 1_555 1_555
H11_2 C13_2 1_555 1_555
C16_2 C13_2 1_555 1_555
S2_2 C16_2 1_555 1_555
O11_2 S2_2 1_555 1_555
O12_2 S2_2 1_555 1_555
C18_2 S2_2 1_555 1_555
C21_2 C18_2 1_555 1_555
C22_2 C18_2 1_555 1_555
H15_2 C21_2 1_555 1_555
C25_3 C21_2 1_555 1_555
C26_3 C22_2 1_555 1_555
H16_2 C22_2 1_555 1_555
H19_3 C25_3 1_555 1_555
C28_3 C25_3 1_555 1_555
H20_3 C26_3 1_555 1_555
C30_3 C28_3 1_555 1_555
C26_3 C28_3 1_555 1_555
Co4 N1_3 1_555 1_555
Co6 O5_3 1_555 1_555
N1_3 N3_3 1_555 1_555
O1_3 Co4 1_555 1_555
O2_3 Co4 1_555 1_555
O5_3 C2_3 1_555 1_555
O6_3 Co6 1_555 1_555
C2_3 O1_3 1_555 1_555
C3_3 O2_3 1_555 1_555
C5_3 C2_3 1_555 1_555
C6_3 C3_3 1_555 1_555
C7_3 C5_3 1_555 1_555
C8_3 C5_3 1_555 1_555
C9_3 C6_3 1_555 1_555
C10_3 C6_3 1_555 1_555
H5_3 C7_3 1_555 1_555
C11_3 C7_3 1_555 1_555
C12_3 C8_3 1_555 1_555
H6_3 C8_3 1_555 1_555
H7_3 C9_3 1_555 1_555
C14_3 C10_3 1_555 1_555
H8_3 C10_3 1_555 1_555
H9_3 C11_3 1_555 1_555
C15_3 C11_3 1_555 1_555
H10_3 C12_3 1_555 1_555
O6_3 C3_3 1_555 1_555
C12_3 C15_3 1_555 1_555
O15 C29_2 1_555 1_555
C23_2 C19_2 1_555 1_555
H17_2 C23_2 1_555 1_555
C27_2 C23_2 1_555 1_555
H18_2 C24_2 1_555 1_555
C29_2 C27_2 1_555 1_555
C24_2 C27_2 1_555 1_555
N6_2 C1_3 1_555 1_555
C4_3 N6_2 1_555 1_555
N4_3 C1_3 1_555 1_555
N5_3 C4_3 1_555 1_555
H2_3 N4_3 1_555 1_555
H3_3 N5_3 1_555 1_555
H4_3 N5_3 1_555 1_555
N6 C1_4 1_555 1_555
C4_4 N6 1_555 1_555
N5_4 C4_4 1_555 1_555
H3_4 N5_4 1_555 1_555
H4_4 N5_4 1_555 1_555
O13_2 C29_3 1_555 1_555
O15_2 C29_3 1_555 1_555
C23_3 C19_3 1_555 1_555
H17_3 C23_3 1_555 1_555
C27_3 C23_3 1_555 1_555
H18_3 C24_3 1_555 1_555
C29_3 C27_3 1_555 1_555
C24_3 C27_3 1_555 1_555
Co3 N1_4 1_555 1_555
N1_4 N3_4 1_555 1_555
O2_4 Co3 1_555 1_555
O14_2 C30_4 1_555 1_555
O6_4 Co7 1_555 1_555
O16_2 C30_4 1_555 1_555
C3_4 O2_4 1_555 1_555
C6_4 C3_4 1_555 1_555
C9_4 C6_4 1_555 1_555
C10_4 C6_4 1_555 1_555
H7_4 C9_4 1_555 1_555
C13_3 C9_4 1_555 1_555
C14_4 C10_4 1_555 1_555
H8_4 C10_4 1_555 1_555
H11_3 C13_3 1_555 1_555
C16_3 C13_3 1_555 1_555
H12_3 C14_4 1_555 1_555
S2_3 C16_3 1_555 1_555
O11_3 S2_3 1_555 1_555
O12_3 S2_3 1_555 1_555
C18_3 S2_3 1_555 1_555
C21_3 C18_3 1_555 1_555
C22_3 C18_3 1_555 1_555
H15_3 C21_3 1_555 1_555
C25_4 C21_3 1_555 1_555
C26_4 C22_3 1_555 1_555
H16_3 C22_3 1_555 1_555
H19_4 C25_4 1_555 1_555
C28_4 C25_4 1_555 1_555
H20_4 C26_4 1_555 1_555
C30_4 C28_4 1_555 1_555
O6_4 C3_4 1_555 1_555
C14_4 C16_3 1_555 1_555
C26_4 C28_4 1_555 1_555
H11_4 C13_4 1_555 1_555
C16_4 C13_4 1_555 1_555
S2_4 C16_4 1_555 1_555
O11_4 S2_4 1_555 1_555
O12_4 S2_4 1_555 1_555
C18_4 S2_4 1_555 1_555
C21_4 C18_4 1_555 1_555
C22_4 C18_4 1_555 1_555
H15_4 C21_4 1_555 1_555
H16_4 C22_4 1_555 1_555
O7_2 C29_4 1_555 1_555
O9_2 S1_2 1_555 1_555
O10_2 S1_2 1_555 1_555
C17_2 S1_2 1_555 1_555
C19_4 C17_2 1_555 1_555
C20_2 C17_2 1_555 1_555
H13_2 C19_4 1_555 1_555
C23_4 C19_4 1_555 1_555
C24_4 C20_2 1_555 1_555
H14_2 C20_2 1_555 1_555
H17_4 C23_4 1_555 1_555
C27_4 C23_4 1_555 1_555
H18_4 C24_4 1_555 1_555
C29_4 C27_4 1_555 1_555
C24_4 C27_4 1_555 1_555
O5_4 C2_4 1_555 1_555
C2_4 O1_4 1_555 1_555
C5_4 C2_4 1_555 1_555
C7_4 C5_4 1_555 1_555
C8_4 C5_4 1_555 1_555
H5_4 C7_4 1_555 1_555
C11_4 C7_4 1_555 1_555
C12_4 C8_4 1_555 1_555
H6_4 C8_4 1_555 1_555
H9_4 C11_4 1_555 1_555
C15_4 C11_4 1_555 1_555
H10_4 C12_4 1_555 1_555
S1_3 C15_4 1_555 1_555
O9_3 S1_3 1_555 1_555
O10_3 S1_3 1_555 1_555
C17_3 S1_3 1_555 1_555
C20_3 C17_3 1_555 1_555
H14_3 C20_3 1_555 1_555
C12_4 C15_4 1_555 1_555
O9_4 S1_4 1_555 1_555
O10_4 S1_4 1_555 1_555
C17_4 S1_4 1_555 1_555
C20_4 C17_4 1_555 1_555
H14_4 C20_4 1_555 1_555
H2_4 N4_4 1_555 1_555

#END
