
###############################################################################
#
# This file contains modified crystal structure data generated from the
# MOF subset of the Cambridge Structural Database (CSD) v543 
# hosted by the Cambridge Crystallographic Data Centre (CCDC).
#
# This work is licensed under the Creative Commons
# Attribution-NonCommercial-ShareAlike 4.0 International License.
# To view a copy of this license, visit
# http://creativecommons.org/licenses/by-nc-sa/4.0/
# or send a letter to
# Creative Commons, PO Box 1866, Mountain View, CA 94042, USA.
#
# CIF created using the CSD Python API on 29 September 2022
# The structure has been converted into the P1 space group
# The structure has a 3D framework
# The original CSD entry IBARUA is in the trigonal crystal system
# The framework has been calculated to contain at least 10.0% void space
# The void calculation uses a probe of radius 1.32A, grid spacing 0.4
# H atom positions have been added when not included in the experimental data
#
###############################################################################

data_IBARUA
_chemical_formula_moiety         '(C48 H84 Cu4 Er4 N12 O48)n'
_symmetry_cell_setting           triclinic
_symmetry_space_group_name_H-M   'P 1'
_symmetry_Int_Tables_number      1
_space_group_name_Hall           'P 1'
loop_
_symmetry_equiv_pos_site_id
_symmetry_equiv_pos_as_xyz
1 x,y,z
_cell_length_a                   13.3473(8)
_cell_length_b                   13.3473(8)
_cell_length_c                   14.2599(8)
_cell_angle_alpha                90
_cell_angle_beta                 90
_cell_angle_gamma                120
_cell_volume                     2200.06
loop_
_atom_site_label
_atom_site_type_symbol
_atom_site_fract_x
_atom_site_fract_y
_atom_site_fract_z
Cu2 Cu -0.0000 0.5000 0.0000
O24 O 0.0737(3) 0.4757(2) 0.10909(18)
N8 N 0.0431(3) 0.6527(2) 0.05913(19)
H38 H 0.0830355 0.716904 0.0111296
H39 H 0.0971869 0.667539 0.114027
Cu2_2 Cu -0.0000 0.5000 1.0000
Cu3 Cu -0.0000 0.5000 0.5000
O11 O 0.1903(3) 0.6402(2) 0.94074(19)
O12 O 0.1903(3) 0.5501(2) 0.44074(19)
O25 O 0.0737(3) 0.5980(2) 0.60909(18)
N9 N 0.0431(3) 0.3904(2) 0.55913(19)
H6 H 0.0226 0.3497 0.9203
H7 H 0.0226 0.6729 0.4203
H34 H 0.0971869 0.429648 0.614027
H35 H 0.0830355 0.366131 0.51113
Er2 Er 0.6666 0.3333 0.166955(16)
Cu2_3 Cu 1.0000 0.5000 0.0000
Cu5 Cu 0.5000 0.0000 0.0000
Cu6 Cu 0.5000 0.5000 0.0000
O5 O 0.8097(3) 0.3598(2) 0.05926(19)
O8 O 0.5501(2) 0.1903(3) 0.05926(19)
O9 O 0.6402(2) 0.4499(2) 0.05926(19)
O13 O 0.7526(3) 0.1927(2) 0.12798(19)
O16 O 0.4401(2) 0.2474(3) 0.12798(19)
O17 O 0.8073(2) 0.5599(2) 0.12798(19)
O31 O 0.6206(2) 0.4345(2) 0.26997(18)
O32 O 0.5655(2) 0.1861(3) 0.26997(18)
O33 O 0.8139(3) 0.3794(2) 0.26997(18)
C5 C 0.8145(4) 0.2678(3) 0.0698(2)
C8 C 0.4533(3) 0.1855(4) 0.0698(2)
C9 C 0.7322(3) 0.5467(3) 0.0698(2)
C10 C 0.9013(4) 0.2539(3) 0.0114(2)
C13 C 0.3526(3) 0.0987(4) 0.0114(2)
C14 C 0.7461(3) 0.6474(3) 0.0114(2)
H12 H 0.9774 0.6503 0.0797
H19 H 0.9601 0.2551 0.0521
H22 H 0.2950 0.0399 0.0521
H23 H 0.7449 0.7050 0.0521
Er1 Er 0.6667 0.3333 0.666955(16)
Cu1 Cu 0.5000 0.5000 0.5000
O1 O 0.5501(2) 0.3598(2) 0.55926(19)
O2 O 0.4401(2) 0.1927(2) 0.62798(19)
O3 O 0.5980(2) 0.5243(2) 0.39091(18)
N1 N 0.3904(2) 0.3473(2) 0.44087(19)
C1 C 0.4533(3) 0.2678(3) 0.5698(2)
C2 C 0.3526(3) 0.2539(3) 0.5114(2)
C3 C 0.4487(3) 0.3308(3) 0.3589(2)
C4 C 0.5634(2) 0.4367(3) 0.3383(2)
H1 H 0.3271 0.3497 0.4203
H2 H 0.3171 0.1796 0.4798
H3 H 0.2950 0.2551 0.5521
H4 H 0.3990 0.3123 0.3044
H5 H 0.4605 0.2660 0.3707
Cu2_4 Cu 1.0000 0.5000 1.0000
Cu3_2 Cu 1.0000 0.5000 0.5000
Cu4 Cu 0.5000 0.0000 0.5000
Cu5_2 Cu 0.5000 0.0000 1.0000
Cu6_2 Cu 0.5000 0.5000 1.0000
O6 O 0.8097(3) 0.4499(2) 0.55926(19)
O7 O 0.6402(2) 0.1903(3) 0.55926(19)
O10 O 0.4499(2) 0.6402(2) 0.44074(19)
O14 O 0.7526(3) 0.5599(2) 0.62798(19)
O15 O 0.8073(2) 0.2474(3) 0.62798(19)
O18 O 0.9263(3) 0.5243(2) 0.89091(18)
O19 O 0.9263(3) 0.4020(2) 0.39091(18)
O20 O 0.4757(2) 0.0737(3) 0.39091(18)
O21 O 0.5980(2) 0.0737(3) 0.89091(18)
O22 O 0.4757(2) 0.4020(2) 0.89091(18)
O23 O 0.4020(2) 0.4757(2) 0.60909(18)
O26 O 0.8139(3) 0.4345(2) 0.76997(18)
O29 O 0.6206(2) 0.1861(3) 0.76997(18)
O30 O 0.5655(2) 0.3794(2) 0.76997(18)
N2 N 0.9569(3) 0.3473(2) 0.94087(19)
N3 N 0.9569(3) 0.6096(2) 0.44087(19)
N4 N 0.6527(2) 0.0431(3) 0.44087(19)
N5 N 0.3904(2) 0.0431(3) 0.94087(19)
N6 N 0.6527(2) 0.6096(2) 0.94087(19)
N7 N 0.6096(2) 0.6527(2) 0.55913(19)
C6 C 0.8145(4) 0.5467(3) 0.5698(2)
C7 C 0.7322(3) 0.1855(4) 0.5698(2)
C11 C 0.9013(4) 0.6474(3) 0.5114(2)
C12 C 0.7461(3) 0.0987(4) 0.5114(2)
C15 C 0.8821(4) 0.3308(3) 0.8589(2)
C16 C 0.8821(4) 0.5513(3) 0.3589(2)
C17 C 0.6692(3) 0.1179(4) 0.3589(2)
C18 C 0.4487(3) 0.1179(4) 0.8589(2)
C19 C 0.6692(3) 0.5513(3) 0.8589(2)
C20 C 0.8733(4) 0.4367(3) 0.8383(2)
C21 C 0.8733(4) 0.4366(2) 0.3383(2)
C22 C 0.5633(3) 0.1267(4) 0.3383(2)
C23 C 0.5634(2) 0.1267(4) 0.8383(2)
C24 C 0.5633(3) 0.4366(2) 0.8383(2)
H10 H 0.6503 0.6729 0.9203
H11 H 0.6729 0.6503 0.5797
H13 H 0.9774 0.3271 0.5797
H14 H 0.8625 0.1796 0.9798
H15 H 0.8625 0.6829 0.4798
H16 H 0.8204 0.1375 0.4798
H17 H 0.3171 0.1375 0.9798
H18 H 0.8204 0.6829 0.9798
H20 H 0.9601 0.7050 0.5521
H21 H 0.7449 0.0399 0.5521
H24 H 0.9133 0.3123 0.8044
H25 H 0.9133 0.6010 0.3044
H26 H 0.6877 0.0867 0.3044
H27 H 0.3990 0.0867 0.8044
H28 H 0.6877 0.6010 0.8044
H29 H 0.8055 0.2660 0.8707
H30 H 0.8055 0.5395 0.3707
H31 H 0.7340 0.1945 0.3707
H32 H 0.4605 0.1945 0.8707
H33 H 0.7340 0.5395 0.8707
H36 H 0.570352 0.667539 0.614027
H37 H 0.633869 0.716904 0.51113
Cu5_3 Cu 0.5000 1.0000 0.0000
Cu4_2 Cu 0.5000 1.0000 0.5000
Cu5_4 Cu 0.5000 1.0000 1.0000
H8 H 0.6503 0.9774 0.4203
H9 H 0.3271 0.9774 0.9203
O24_2 O 0.5243(2) 0.5980(4) 0.10909(18)
N8_2 N 0.3473(2) 0.3904(4) 0.05913(19)
H12_2 H 0.3497 0.3271 0.0797
H38_2 H 0.283096 0.366131 0.0111296
H39_2 H 0.332461 0.429648 0.114027
O11_2 O 0.3598(2) 0.5501(4) 0.94074(19)
H11_2 H 0.3497 0.0226 0.5797
O10_2 O 0.3598(2) 0.8097(3) 0.44074(19)
O23_2 O 0.5243(2) 0.9263(3) 0.60909(18)
N7_2 N 0.3473(2) 0.9569(3) 0.55913(19)
H36_2 H 0.332461 0.902813 0.614027
H37_2 H 0.283096 0.916965 0.51113
H12_3 H 0.6729 0.0226 0.0797
O24_3 O 0.4020(4) 0.9263(3) 0.10909(18)
N8_3 N 0.6096(4) 0.9569(3) 0.05913(19)
H38_3 H 0.633869 0.916965 0.0111296
H39_3 H 0.570352 0.902813 0.114027
O11_3 O 0.4499(4) 0.8097(3) 0.94074(19)
O4 O 0.1861(3) 0.5655(2) 0.23003(18)
C3_2 C 0.1179(4) 0.6692(3) 0.1411(2)
C4_2 C 0.1267(4) 0.5633(3) 0.1617(2)
H2_2 H 0.1375 0.8204 0.0202
H4_2 H 0.0867 0.6877 0.1956
H5_2 H 0.1945 0.7340 0.1293
Er3 Er 0.3333 0.6667 0.333045(16)
O27 O 0.4345(4) 0.6206(2) 0.23003(18)
O28 O 0.3794(4) 0.8139(3) 0.23003(18)
C16_2 C 0.3308(5) 0.4487(3) 0.1411(2)
C17_2 C 0.5513(5) 0.8821(4) 0.1411(2)
C21_2 C 0.4367(4) 0.5634(2) 0.1617(2)
C22_2 C 0.4366(5) 0.8733(4) 0.1617(2)
H15_2 H 0.1796 0.3171 0.0202
H16_2 H 0.6829 0.8625 0.0202
H25_2 H 0.3123 0.3990 0.1956
H26_2 H 0.6010 0.9133 0.1956
H30_2 H 0.2660 0.4605 0.1293
H31_2 H 0.5395 0.8055 0.1293
Er1_2 Er 0.3334 0.6667 0.833045(16)
O2_2 O 0.2474(3) 0.8073(2) 0.87202(19)
C1_2 C 0.1855(4) 0.7322(3) 0.9302(2)
C2_2 C 0.0987(4) 0.7461(3) 0.9886(2)
H3_2 H 0.0399 0.7449 0.9479
O13_2 O 0.5599(4) 0.8073(2) 0.37202(19)
O14_2 O 0.1927(4) 0.4401(2) 0.87202(19)
O15_2 O 0.5599(4) 0.7526(3) 0.87202(19)
O16_2 O 0.1927(4) 0.7526(3) 0.37202(19)
O17_2 O 0.2474(3) 0.4401(2) 0.37202(19)
O26_2 O 0.3794(4) 0.5655(2) 0.73003(18)
O29_2 O 0.4345(4) 0.8139(3) 0.73003(18)
O30_2 O 0.1861(3) 0.6206(2) 0.73003(18)
C5_2 C 0.5467(5) 0.7322(3) 0.4302(2)
C6_2 C 0.2678(5) 0.4533(3) 0.9302(2)
C7_2 C 0.5467(5) 0.8145(4) 0.9302(2)
C8_2 C 0.2678(5) 0.8145(4) 0.4302(2)
C9_2 C 0.1855(4) 0.4533(3) 0.4302(2)
C10_2 C 0.6474(5) 0.7461(3) 0.4886(2)
C11_2 C 0.2539(5) 0.3526(3) 0.9886(2)
C12_2 C 0.6474(5) 0.9013(4) 0.9886(2)
C13_2 C 0.2539(5) 0.9013(4) 0.4886(2)
C14_2 C 0.0987(4) 0.3526(3) 0.4886(2)
C15_2 C 0.5513(5) 0.6692(3) 0.6411(2)
C18_2 C 0.3308(5) 0.8821(4) 0.6411(2)
C19_2 C 0.1179(4) 0.4487(3) 0.6411(2)
C20_2 C 0.4366(5) 0.5633(3) 0.6617(2)
C23_2 C 0.4367(4) 0.8733(4) 0.6617(2)
C24_2 C 0.1267(4) 0.5634(2) 0.6617(2)
H14_2 H 0.6829 0.8204 0.5202
H17_2 H 0.1796 0.8625 0.5202
H18_2 H 0.1375 0.3171 0.5202
H19_2 H 0.7050 0.7449 0.4479
H20_2 H 0.2551 0.2950 0.9479
H21_2 H 0.7050 0.9601 0.9479
H22_2 H 0.2551 0.9601 0.4479
H23_2 H 0.0399 0.2950 0.4479
H24_2 H 0.6010 0.6877 0.6956
H27_2 H 0.3123 0.9133 0.6956
H28_2 H 0.0867 0.3990 0.6956
H29_2 H 0.5395 0.7340 0.6293
H32_2 H 0.2660 0.8055 0.6293
H33_2 H 0.1945 0.4605 0.6293
H34_2 H 0.667539 0.570352 0.885973
H35_2 H 0.716904 0.633869 0.98887
H38_4 H 0.366131 0.283096 0.48887
H39_4 H 0.429648 0.332461 0.385973
H36_3 H 0.902813 0.332461 0.885973
H37_3 H 0.916965 0.283096 0.98887
H36_4 H 0.429648 0.0971869 0.885973
H37_4 H 0.366131 0.0830355 0.98887
H38_5 H 0.916965 0.633869 0.48887
H39_5 H 0.902813 0.570352 0.385973
H38_6 H 0.716904 0.0830355 0.48887
H39_6 H 0.667539 0.0971869 0.385973
loop_
_geom_bond_atom_site_label_1
_geom_bond_atom_site_label_2
_geom_bond_site_symmetry_1
_geom_bond_site_symmetry_2
O24 Cu2 1_555 1_555
N8 Cu2 1_555 1_555
N8 H38 1_555 1_555
N8 H39 1_555 1_555
O11 Cu2_2 1_555 1_555
O12 Cu3 1_555 1_555
O25 Cu3 1_555 1_555
N9 Cu3 1_555 1_555
N9 H34 1_555 1_555
N9 H35 1_555 1_555
Er2 O5 1_555 1_555
Cu2_3 O5 1_555 1_555
Cu5 O8 1_555 1_555
Cu6 O9 1_555 1_555
O5 C5 1_555 1_555
O8 Er2 1_555 1_555
O9 Er2 1_555 1_555
O13 Er2 1_555 1_555
O16 Er2 1_555 1_555
O17 Er2 1_555 1_555
O31 Er2 1_555 1_555
O32 Er2 1_555 1_555
O33 Er2 1_555 1_555
C5 O13 1_555 1_555
C8 O8 1_555 1_555
C9 O9 1_555 1_555
H19 C10 1_555 1_555
H22 C13 1_555 1_555
H23 C14 1_555 1_555
O16 C8 1_555 1_555
O17 C9 1_555 1_555
C5 C10 1_555 1_555
C8 C13 1_555 1_555
C9 C14 1_555 1_555
Er1 O1 1_555 1_555
Cu1 O1 1_555 1_555
O1 C1 1_555 1_555
O2 Er1 1_555 1_555
O3 Cu1 1_555 1_555
O31 C4 1_555 1_555
N1 Cu1 1_555 1_555
C1 O2 1_555 1_555
C2 N1 1_555 1_555
C3 N1 1_555 1_555
C4 O3 1_555 1_555
H1 N1 1_555 1_555
H2 C2 1_555 1_555
H3 C2 1_555 1_555
H4 C3 1_555 1_555
H5 C3 1_555 1_555
Cu3_2 O6 1_555 1_555
Cu4 O7 1_555 1_555
O6 Er1 1_555 1_555
O7 Er1 1_555 1_555
O10 Cu1 1_555 1_555
O14 Er1 1_555 1_555
O15 Er1 1_555 1_555
O18 Cu2_4 1_555 1_555
O19 Cu3_2 1_555 1_555
O20 Cu4 1_555 1_555
O21 Cu5_2 1_555 1_555
O22 Cu6_2 1_555 1_555
O23 Cu1 1_555 1_555
O26 Er1 1_555 1_555
O29 Er1 1_555 1_555
O30 Er1 1_555 1_555
N2 Cu2_4 1_555 1_555
N3 Cu3_2 1_555 1_555
N4 Cu4 1_555 1_555
N5 Cu5_2 1_555 1_555
N6 Cu6_2 1_555 1_555
N7 Cu1 1_555 1_555
C6 O6 1_555 1_555
C7 O7 1_555 1_555
C11 N3 1_555 1_555
C12 N4 1_555 1_555
C15 N2 1_555 1_555
C16 N3 1_555 1_555
C17 N4 1_555 1_555
C18 N5 1_555 1_555
C19 N6 1_555 1_555
C20 O18 1_555 1_555
C21 O19 1_555 1_555
C22 O20 1_555 1_555
C23 O21 1_555 1_555
C24 O22 1_555 1_555
H10 N6 1_555 1_555
H11 N7 1_555 1_555
H15 C11 1_555 1_555
H16 C12 1_555 1_555
H20 C11 1_555 1_555
H21 C12 1_555 1_555
H24 C15 1_555 1_555
H25 C16 1_555 1_555
H26 C17 1_555 1_555
H27 C18 1_555 1_555
H28 C19 1_555 1_555
H29 C15 1_555 1_555
H30 C16 1_555 1_555
H31 C17 1_555 1_555
H32 C18 1_555 1_555
H33 C19 1_555 1_555
C1 C2 1_555 1_555
C3 C4 1_555 1_555
O14 C6 1_555 1_555
O15 C7 1_555 1_555
O26 C20 1_555 1_555
O33 C21 1_555 1_555
O32 C22 1_555 1_555
O29 C23 1_555 1_555
O30 C24 1_555 1_555
C6 C11 1_555 1_555
C7 C12 1_555 1_555
C15 C20 1_555 1_555
C16 C21 1_555 1_555
C17 C22 1_555 1_555
C18 C23 1_555 1_555
C19 C24 1_555 1_555
N7 H36 1_555 1_555
N7 H37 1_555 1_555
O24_2 Cu6 1_555 1_555
N8_2 Cu6 1_555 1_555
H12_2 N8_2 1_555 1_555
N8_2 H38_2 1_555 1_555
N8_2 H39_2 1_555 1_555
O11_2 Cu6_2 1_555 1_555
O10_2 Cu4_2 1_555 1_555
O23_2 Cu4_2 1_555 1_555
N7_2 Cu4_2 1_555 1_555
N7_2 H36_2 1_555 1_555
N7_2 H37_2 1_555 1_555
O24_3 Cu5_3 1_555 1_555
N8_3 Cu5_3 1_555 1_555
N8_3 H38_3 1_555 1_555
N8_3 H39_3 1_555 1_555
O11_3 Cu5_4 1_555 1_555
O4 C4_2 1_555 1_555
C3_2 N8 1_555 1_555
C4_2 O24 1_555 1_555
H4_2 C3_2 1_555 1_555
H5_2 C3_2 1_555 1_555
Er3 O4 1_555 1_555
O27 Er3 1_555 1_555
O28 Er3 1_555 1_555
C16_2 N8_2 1_555 1_555
C17_2 N8_3 1_555 1_555
C21_2 O24_2 1_555 1_555
C22_2 O24_3 1_555 1_555
H25_2 C16_2 1_555 1_555
H26_2 C17_2 1_555 1_555
H30_2 C16_2 1_555 1_555
H31_2 C17_2 1_555 1_555
C3_2 C4_2 1_555 1_555
O27 C21_2 1_555 1_555
O28 C22_2 1_555 1_555
C16_2 C21_2 1_555 1_555
C17_2 C22_2 1_555 1_555
Er1_2 O11 1_555 1_555
O11 C1_2 1_555 1_555
O2_2 Er1_2 1_555 1_555
C1_2 O2_2 1_555 1_555
H3_2 C2_2 1_555 1_555
Er3 O10 1_555 1_555
O10 C5_2 1_555 1_555
O11_2 Er1_2 1_555 1_555
O11_3 Er1_2 1_555 1_555
O10_2 Er3 1_555 1_555
O12 Er3 1_555 1_555
O13_2 Er3 1_555 1_555
O14_2 Er1_2 1_555 1_555
O15_2 Er1_2 1_555 1_555
O16_2 Er3 1_555 1_555
O17_2 Er3 1_555 1_555
O26_2 Er1_2 1_555 1_555
O29_2 Er1_2 1_555 1_555
O30_2 Er1_2 1_555 1_555
C5_2 O13_2 1_555 1_555
C6_2 O11_2 1_555 1_555
C7_2 O11_3 1_555 1_555
C8_2 O10_2 1_555 1_555
C9_2 O12 1_555 1_555
C10_2 N7 1_555 1_555
C13_2 N7_2 1_555 1_555
C14_2 N9 1_555 1_555
C15_2 N7 1_555 1_555
C18_2 N7_2 1_555 1_555
C19_2 N9 1_555 1_555
C20_2 O23 1_555 1_555
C23_2 O23_2 1_555 1_555
C24_2 O25 1_555 1_555
H14_2 C10_2 1_555 1_555
H17_2 C13_2 1_555 1_555
H18_2 C14_2 1_555 1_555
H19_2 C10_2 1_555 1_555
H20_2 C11_2 1_555 1_555
H21_2 C12_2 1_555 1_555
H22_2 C13_2 1_555 1_555
H23_2 C14_2 1_555 1_555
H24_2 C15_2 1_555 1_555
H27_2 C18_2 1_555 1_555
H28_2 C19_2 1_555 1_555
H29_2 C15_2 1_555 1_555
H32_2 C18_2 1_555 1_555
H33_2 C19_2 1_555 1_555
C1_2 C2_2 1_555 1_555
O14_2 C6_2 1_555 1_555
O15_2 C7_2 1_555 1_555
O16_2 C8_2 1_555 1_555
O17_2 C9_2 1_555 1_555
O26_2 C20_2 1_555 1_555
O29_2 C23_2 1_555 1_555
O30_2 C24_2 1_555 1_555
C5_2 C10_2 1_555 1_555
C6_2 C11_2 1_555 1_555
C7_2 C12_2 1_555 1_555
C8_2 C13_2 1_555 1_555
C9_2 C14_2 1_555 1_555
C15_2 C20_2 1_555 1_555
C18_2 C23_2 1_555 1_555
C19_2 C24_2 1_555 1_555
N6 H34_2 1_555 1_555
N6 H35_2 1_555 1_555
N1 H38_4 1_555 1_555
N1 H39_4 1_555 1_555
N2 H36_3 1_555 1_555
N2 H37_3 1_555 1_555
N5 H36_4 1_555 1_555
N5 H37_4 1_555 1_555
N3 H38_5 1_555 1_555
N3 H39_5 1_555 1_555
N4 H38_6 1_555 1_555
N4 H39_6 1_555 1_555

#END
