
###############################################################################
#
# This file contains modified crystal structure data generated from the
# MOF subset of the Cambridge Structural Database (CSD) v543 
# hosted by the Cambridge Crystallographic Data Centre (CCDC).
#
# This work is licensed under the Creative Commons
# Attribution-NonCommercial-ShareAlike 4.0 International License.
# To view a copy of this license, visit
# http://creativecommons.org/licenses/by-nc-sa/4.0/
# or send a letter to
# Creative Commons, PO Box 1866, Mountain View, CA 94042, USA.
#
# CIF created using the CSD Python API on 29 September 2022
# The structure has been converted into the P1 space group
# The structure has a 3D framework
# The original CSD entry IBASOV is in the trigonal crystal system
# The framework has been calculated to contain at least 10.0% void space
# The void calculation uses a probe of radius 1.32A, grid spacing 0.4
# H atom positions have been added when not included in the experimental data
#
###############################################################################

data_IBASOV
_chemical_formula_moiety         '(C48 H84 Cu4 N12 Nd4 O48)n'
_symmetry_cell_setting           triclinic
_symmetry_space_group_name_H-M   'P 1'
_symmetry_Int_Tables_number      1
_space_group_name_Hall           'P 1'
loop_
_symmetry_equiv_pos_site_id
_symmetry_equiv_pos_as_xyz
1 x,y,z
_cell_length_a                   13.4567(16)
_cell_length_b                   13.4567(16)
_cell_length_c                   14.6982(19)
_cell_angle_alpha                90
_cell_angle_beta                 90
_cell_angle_gamma                120
_cell_volume                     2305.01
loop_
_atom_site_label
_atom_site_type_symbol
_atom_site_fract_x
_atom_site_fract_y
_atom_site_fract_z
Cu3 Cu -0.0000 0.5000 0.5000
Cu4 Cu -0.0000 0.5000 0.0000
O12 O 0.1855(2) 0.6366(3) 0.5565(2)
O25 O 0.0731(2) 0.4756(4) 0.3936(2)
N9 N 0.0409(2) 0.6510(4) 0.4419(2)
H7 H 0.0249 0.3521 0.5772
H8 H 0.0249 0.6728 0.0772
H34 H 0.0935208 0.665444 0.387956
H35 H 0.0811654 0.715247 0.487925
Cu4_2 Cu -0.0000 0.5000 1.0000
Nd1 Nd 0.6667 0.3333 0.33178(2)
Cu1 Cu 0.5000 0.0000 0.5000
O1 O 0.5489(2) 0.1855(2) 0.4435(2)
O2 O 0.4409(3) 0.2427(3) 0.3750(2)
O3 O 0.5975(3) 0.0731(2) 0.6064(2)
O4 O 0.6147(3) 0.1796(3) 0.7262(2)
N1 N 0.3899(3) 0.0409(2) 0.5581(2)
C1 C 0.4538(3) 0.1821(3) 0.4325(2)
C2 C 0.3526(3) 0.0974(3) 0.4904(3)
C3 C 0.4471(4) 0.1135(4) 0.6383(3)
C4 C 0.5617(3) 0.1232(4) 0.6585(2)
H2 H 0.3197 0.1376 0.5218
H3 H 0.2939 0.0397 0.4515
H4 H 0.3975 0.0813 0.6909
H5 H 0.4582 0.1896 0.6279
Nd3 Nd 0.6666 0.3333 0.83178(2)
Cu2 Cu 0.5000 0.0000 0.0000
Cu3_2 Cu 1.0000 0.5000 0.5000
Cu4_3 Cu 1.0000 0.5000 0.0000
Cu5 Cu 0.5000 0.5000 0.5000
Cu6 Cu 0.5000 0.5000 0.0000
O6 O 0.8145(2) 0.3634(3) 0.4435(2)
O8 O 0.6366(3) 0.4511(2) 0.4435(2)
O14 O 0.7573(3) 0.1982(4) 0.3750(2)
O16 O 0.8018(4) 0.5591(3) 0.3750(2)
O18 O 0.4756(4) 0.0731(2) 0.1064(2)
O19 O 0.9269(2) 0.5244(4) 0.6064(2)
O20 O 0.9269(2) 0.4025(3) 0.1064(2)
O21 O 0.4756(4) 0.4025(3) 0.6064(2)
O22 O 0.5975(3) 0.5244(4) 0.1064(2)
O26 O 0.5649(4) 0.1796(3) 0.2262(2)
O27 O 0.8204(3) 0.4351(4) 0.7262(2)
O28 O 0.8204(3) 0.3853(3) 0.2262(2)
O29 O 0.5649(4) 0.3853(3) 0.7262(2)
O30 O 0.6147(3) 0.4351(4) 0.2262(2)
N2 N 0.6510(4) 0.0409(2) 0.0581(2)
N3 N 0.9591(2) 0.3490(4) 0.5581(2)
N4 N 0.9591(2) 0.6101(3) 0.0581(2)
N5 N 0.6510(4) 0.6101(3) 0.5581(2)
N6 N 0.3899(3) 0.3490(4) 0.0581(2)
C6 C 0.8179(3) 0.2717(4) 0.4325(2)
C8 C 0.7283(4) 0.5462(3) 0.4325(2)
C11 C 0.9026(3) 0.2552(4) 0.4904(3)
C13 C 0.7448(4) 0.6474(3) 0.4904(3)
C15 C 0.6664(6) 0.1135(4) 0.1383(3)
C16 C 0.8865(4) 0.3336(6) 0.6383(3)
C17 C 0.8865(4) 0.5529(4) 0.1383(3)
C18 C 0.6664(6) 0.5529(4) 0.6383(3)
C19 C 0.4471(4) 0.3336(6) 0.1383(3)
C20 C 0.5615(5) 0.1232(4) 0.1585(2)
C21 C 0.8768(4) 0.4385(5) 0.6585(2)
C22 C 0.8768(4) 0.4383(3) 0.1585(2)
C23 C 0.5615(5) 0.4383(3) 0.6585(2)
C24 C 0.5617(3) 0.4385(5) 0.1585(2)
H9 H 0.6479 0.6728 0.5772
H10 H 0.3272 0.3521 0.0772
H11 H 0.6728 0.0249 0.4228
H13 H 0.9751 0.6479 0.4228
H14 H 0.8179 0.1376 0.0218
H15 H 0.8624 0.1821 0.5218
H16 H 0.8624 0.6803 0.0218
H17 H 0.8179 0.6803 0.5218
H18 H 0.3197 0.1821 0.0218
H20 H 0.9603 0.2542 0.4515
H22 H 0.7458 0.7061 0.4515
H24 H 0.6838 0.0813 0.1909
H25 H 0.9187 0.3162 0.6909
H26 H 0.9187 0.6025 0.1909
H27 H 0.6838 0.6025 0.6909
H28 H 0.3975 0.3162 0.1909
H29 H 0.7314 0.1896 0.1279
H30 H 0.8104 0.2686 0.6279
H31 H 0.8104 0.5418 0.1279
H32 H 0.7314 0.5418 0.6279
H33 H 0.4582 0.2686 0.1279
Cu2_2 Cu 0.5000 0.0000 1.0000
Cu4_4 Cu 1.0000 0.5000 1.0000
Cu6_2 Cu 0.5000 0.5000 1.0000
O5 O 0.6366(3) 0.1855(2) 0.9435(2)
O7 O 0.8145(2) 0.4511(2) 0.9435(2)
O9 O 0.5489(2) 0.3634(3) 0.9435(2)
O13 O 0.8018(4) 0.2427(3) 0.8750(2)
O15 O 0.7573(3) 0.5591(3) 0.8750(2)
O17 O 0.4409(3) 0.1982(4) 0.8750(2)
C5 C 0.7283(4) 0.1821(3) 0.9325(2)
C7 C 0.8179(3) 0.5462(3) 0.9325(2)
C9 C 0.4538(3) 0.2717(4) 0.9325(2)
C10 C 0.7448(4) 0.0974(3) 0.9904(3)
C12 C 0.9026(3) 0.6474(3) 0.9904(3)
C14 C 0.3526(3) 0.2552(4) 0.9904(3)
H12 H 0.3521 0.0249 0.9228
H19 H 0.7458 0.0397 0.9515
H21 H 0.9603 0.7061 0.9515
H23 H 0.2939 0.2542 0.9515
Cu1_2 Cu 0.5000 1.0000 0.5000
H1 H 0.3272 0.9751 0.5772
Cu2_3 Cu 0.5000 1.0000 0.0000
O10 O 0.4511(2) 0.8145(2) 0.5565(2)
O11 O 0.3634(3) 0.8145(2) 0.0565(2)
O23 O 0.4025(3) 0.9269(2) 0.3936(2)
N7 N 0.6101(3) 0.9591(2) 0.4419(2)
H6 H 0.6479 0.9751 0.0772
H38 H 0.571923 0.906479 0.387956
H39 H 0.634082 0.918835 0.487925
Cu2_4 Cu 0.5000 1.0000 1.0000
O24 O 0.5244(4) 0.9269(2) 0.8936(2)
N8 N 0.3490(4) 0.9591(2) 0.9419(2)
H36 H 0.284753 0.918835 0.987925
H37 H 0.334556 0.906479 0.887956
O11_2 O 0.1855(2) 0.5489(4) 0.0565(2)
O24_2 O 0.0731(2) 0.5975(4) 0.8936(2)
N8_2 N 0.0409(2) 0.3899(4) 0.9419(2)
H36_2 H 0.0811654 0.365918 0.987925
H37_2 H 0.0935208 0.428077 0.887956
O12_2 O 0.3634(3) 0.5489(4) 0.5565(2)
O25_2 O 0.5244(4) 0.5975(4) 0.3936(2)
N9_2 N 0.3490(4) 0.3899(4) 0.4419(2)
H13_2 H 0.3521 0.3272 0.4228
H34_2 H 0.334556 0.428077 0.387956
H35_2 H 0.284753 0.365918 0.487925
H12_2 H 0.9751 0.3272 0.9228
O11_3 O 0.4511(4) 0.6366(3) 0.0565(2)
O24_3 O 0.4025(4) 0.4756(4) 0.8936(2)
N8_3 N 0.6101(4) 0.6510(4) 0.9419(2)
H12_3 H 0.6728 0.6479 0.9228
H36_3 H 0.634082 0.715247 0.987925
H37_3 H 0.571923 0.665444 0.887956
H36_4 H 0.365918 0.0811654 0.512075
H37_4 H 0.428077 0.0935208 0.612044
H38_2 H 0.665444 0.0935208 0.112044
H39_2 H 0.715247 0.0811654 0.0120753
Nd1_2 Nd 0.3334 0.6667 0.16822(2)
O2_2 O 0.1982(4) 0.7573(3) 0.1250(2)
C1_2 C 0.2717(4) 0.8179(3) 0.0675(2)
C2_2 C 0.2552(4) 0.9026(3) 0.0096(3)
H3_2 H 0.2542 0.9603 0.0485
Nd2 Nd 0.3333 0.6667 0.66822(2)
O13_2 O 0.5591(5) 0.7573(3) 0.6250(2)
O14_2 O 0.5591(5) 0.8018(4) 0.1250(2)
O15_2 O 0.1982(4) 0.4409(3) 0.6250(2)
O16_2 O 0.2427(5) 0.4409(3) 0.1250(2)
O17_2 O 0.2427(5) 0.8018(4) 0.6250(2)
O26_2 O 0.3853(5) 0.8204(3) 0.2738(2)
O28_2 O 0.4351(4) 0.6147(3) 0.2738(2)
O30_2 O 0.1796(5) 0.5649(4) 0.2738(2)
O31 O 0.4351(4) 0.8204(3) 0.7738(2)
O32 O 0.1796(5) 0.6147(3) 0.7738(2)
O33 O 0.3853(5) 0.5649(4) 0.7738(2)
C5_2 C 0.5462(5) 0.8179(3) 0.5675(2)
C6_2 C 0.5462(5) 0.7283(4) 0.0675(2)
C7_2 C 0.2717(4) 0.4538(3) 0.5675(2)
C8_2 C 0.1821(5) 0.4538(3) 0.0675(2)
C9_2 C 0.1821(5) 0.7283(4) 0.5675(2)
C10_2 C 0.6474(5) 0.9026(3) 0.5096(3)
C11_2 C 0.6474(5) 0.7448(4) 0.0096(3)
C12_2 C 0.2552(4) 0.3526(3) 0.5096(3)
C13_2 C 0.0974(5) 0.3526(3) 0.0096(3)
C14_2 C 0.0974(5) 0.7448(4) 0.5096(3)
C15_2 C 0.5529(7) 0.8865(4) 0.3617(3)
C17_2 C 0.3336(6) 0.4471(4) 0.3617(3)
C19_2 C 0.1135(7) 0.6664(6) 0.3617(3)
C20_2 C 0.4383(6) 0.8768(4) 0.3415(2)
C22_2 C 0.4385(5) 0.5617(3) 0.3415(2)
C24_2 C 0.1232(6) 0.5615(5) 0.3415(2)
H14_2 H 0.6803 0.8624 0.4782
H16_2 H 0.1821 0.3197 0.4782
H18_2 H 0.1376 0.8179 0.4782
H19_2 H 0.7061 0.9603 0.5485
H20_2 H 0.7061 0.7458 0.0485
H21_2 H 0.2542 0.2939 0.5485
H22_2 H 0.0397 0.2939 0.0485
H23_2 H 0.0397 0.7458 0.5485
H24_2 H 0.6025 0.9187 0.3091
H26_2 H 0.3162 0.3975 0.3091
H28_2 H 0.0813 0.6838 0.3091
H29_2 H 0.5418 0.8104 0.3721
H31_2 H 0.2686 0.4582 0.3721
H33_2 H 0.1896 0.7314 0.3721
H34_3 H 0.428077 0.334556 0.112044
H35_3 H 0.365918 0.284753 0.0120753
C3_2 C 0.3336(6) 0.8865(4) 0.8617(3)
C4_2 C 0.4385(5) 0.8768(4) 0.8415(2)
H2_2 H 0.1821 0.8624 0.9782
H4_2 H 0.3162 0.9187 0.8091
H5_2 H 0.2686 0.8104 0.8721
C16_2 C 0.5529(7) 0.6664(6) 0.8617(3)
C18_2 C 0.1135(7) 0.4471(4) 0.8617(3)
C21_2 C 0.4383(6) 0.5615(5) 0.8415(2)
C23_2 C 0.1232(6) 0.5617(3) 0.8415(2)
H15_2 H 0.6803 0.8179 0.9782
H17_2 H 0.1376 0.3197 0.9782
H25_2 H 0.6025 0.6838 0.8091
H27_2 H 0.0813 0.3975 0.8091
H30_2 H 0.5418 0.7314 0.8721
H32_2 H 0.1896 0.4582 0.8721
H36_5 H 0.715247 0.634082 0.512075
H37_5 H 0.665444 0.571923 0.612044
H34_4 H 0.906479 0.571923 0.112044
H35_4 H 0.918835 0.634082 0.0120753
H36_6 H 0.918835 0.284753 0.512075
H37_6 H 0.906479 0.334556 0.612044
loop_
_geom_bond_atom_site_label_1
_geom_bond_atom_site_label_2
_geom_bond_site_symmetry_1
_geom_bond_site_symmetry_2
O12 Cu3 1_555 1_555
O25 Cu3 1_555 1_555
N9 Cu3 1_555 1_555
N9 H34 1_555 1_555
N9 H35 1_555 1_555
Nd1 O1 1_555 1_555
Cu1 O1 1_555 1_555
O1 C1 1_555 1_555
O2 Nd1 1_555 1_555
O3 Cu1 1_555 1_555
O4 C4 1_555 1_555
N1 Cu1 1_555 1_555
C1 O2 1_555 1_555
C2 N1 1_555 1_555
C3 N1 1_555 1_555
C4 O3 1_555 1_555
H2 C2 1_555 1_555
H3 C2 1_555 1_555
H4 C3 1_555 1_555
H5 C3 1_555 1_555
Nd3 O4 1_555 1_555
Cu3_2 O6 1_555 1_555
Cu5 O8 1_555 1_555
O6 Nd1 1_555 1_555
O8 Nd1 1_555 1_555
O14 Nd1 1_555 1_555
O16 Nd1 1_555 1_555
O18 Cu2 1_555 1_555
O19 Cu3_2 1_555 1_555
O20 Cu4_3 1_555 1_555
O21 Cu5 1_555 1_555
O22 Cu6 1_555 1_555
O26 Nd1 1_555 1_555
O27 Nd3 1_555 1_555
O28 Nd1 1_555 1_555
O29 Nd3 1_555 1_555
O30 Nd1 1_555 1_555
N2 Cu2 1_555 1_555
N3 Cu3_2 1_555 1_555
N4 Cu4_3 1_555 1_555
N5 Cu5 1_555 1_555
N6 Cu6 1_555 1_555
C6 O6 1_555 1_555
C8 O8 1_555 1_555
C11 N3 1_555 1_555
C13 N5 1_555 1_555
C15 N2 1_555 1_555
C16 N3 1_555 1_555
C17 N4 1_555 1_555
C18 N5 1_555 1_555
C19 N6 1_555 1_555
C20 O18 1_555 1_555
C21 O19 1_555 1_555
C22 O20 1_555 1_555
C23 O21 1_555 1_555
C24 O22 1_555 1_555
H9 N5 1_555 1_555
H10 N6 1_555 1_555
H15 C11 1_555 1_555
H17 C13 1_555 1_555
H20 C11 1_555 1_555
H22 C13 1_555 1_555
H24 C15 1_555 1_555
H25 C16 1_555 1_555
H26 C17 1_555 1_555
H27 C18 1_555 1_555
H28 C19 1_555 1_555
H29 C15 1_555 1_555
H30 C16 1_555 1_555
H31 C17 1_555 1_555
H32 C18 1_555 1_555
H33 C19 1_555 1_555
C1 C2 1_555 1_555
C3 C4 1_555 1_555
O14 C6 1_555 1_555
O16 C8 1_555 1_555
O26 C20 1_555 1_555
O27 C21 1_555 1_555
O28 C22 1_555 1_555
O29 C23 1_555 1_555
O30 C24 1_555 1_555
C6 C11 1_555 1_555
C8 C13 1_555 1_555
C15 C20 1_555 1_555
C16 C21 1_555 1_555
C17 C22 1_555 1_555
C18 C23 1_555 1_555
C19 C24 1_555 1_555
Nd3 O5 1_555 1_555
Cu2_2 O5 1_555 1_555
Cu4_4 O7 1_555 1_555
Cu6_2 O9 1_555 1_555
O5 C5 1_555 1_555
O7 Nd3 1_555 1_555
O9 Nd3 1_555 1_555
O13 Nd3 1_555 1_555
O15 Nd3 1_555 1_555
O17 Nd3 1_555 1_555
C5 O13 1_555 1_555
C7 O7 1_555 1_555
C9 O9 1_555 1_555
H19 C10 1_555 1_555
H21 C12 1_555 1_555
H23 C14 1_555 1_555
O15 C7 1_555 1_555
O17 C9 1_555 1_555
C5 C10 1_555 1_555
C7 C12 1_555 1_555
C9 C14 1_555 1_555
O10 Cu1_2 1_555 1_555
O11 Cu2_3 1_555 1_555
O23 Cu1_2 1_555 1_555
N7 Cu1_2 1_555 1_555
N7 H38 1_555 1_555
N7 H39 1_555 1_555
O24 Cu2_4 1_555 1_555
N8 Cu2_4 1_555 1_555
N8 H36 1_555 1_555
N8 H37 1_555 1_555
O11_2 Cu4 1_555 1_555
O24_2 Cu4_2 1_555 1_555
N8_2 Cu4_2 1_555 1_555
N8_2 H36_2 1_555 1_555
N8_2 H37_2 1_555 1_555
O12_2 Cu5 1_555 1_555
O25_2 Cu5 1_555 1_555
N9_2 Cu5 1_555 1_555
H13_2 N9_2 1_555 1_555
N9_2 H34_2 1_555 1_555
N9_2 H35_2 1_555 1_555
O11_3 Cu6 1_555 1_555
O24_3 Cu6_2 1_555 1_555
N8_3 Cu6_2 1_555 1_555
H12_3 N8_3 1_555 1_555
N8_3 H36_3 1_555 1_555
N8_3 H37_3 1_555 1_555
N1 H36_4 1_555 1_555
N1 H37_4 1_555 1_555
N2 H38_2 1_555 1_555
N2 H39_2 1_555 1_555
Nd1_2 O11 1_555 1_555
O11 C1_2 1_555 1_555
O2_2 Nd1_2 1_555 1_555
C1_2 O2_2 1_555 1_555
H3_2 C2_2 1_555 1_555
Nd2 O10 1_555 1_555
O10 C5_2 1_555 1_555
O11_3 Nd1_2 1_555 1_555
O12_2 Nd2 1_555 1_555
O11_2 Nd1_2 1_555 1_555
O12 Nd2 1_555 1_555
O13_2 Nd2 1_555 1_555
O14_2 Nd1_2 1_555 1_555
O15_2 Nd2 1_555 1_555
O16_2 Nd1_2 1_555 1_555
O17_2 Nd2 1_555 1_555
O26_2 Nd1_2 1_555 1_555
O28_2 Nd1_2 1_555 1_555
O30_2 Nd1_2 1_555 1_555
O31 Nd2 1_555 1_555
O32 Nd2 1_555 1_555
O33 Nd2 1_555 1_555
C5_2 O13_2 1_555 1_555
C6_2 O11_3 1_555 1_555
C7_2 O12_2 1_555 1_555
C8_2 O11_2 1_555 1_555
C9_2 O12 1_555 1_555
C10_2 N7 1_555 1_555
C12_2 N9_2 1_555 1_555
C14_2 N9 1_555 1_555
C15_2 N7 1_555 1_555
C17_2 N9_2 1_555 1_555
C19_2 N9 1_555 1_555
C20_2 O23 1_555 1_555
C22_2 O25_2 1_555 1_555
C24_2 O25 1_555 1_555
H14_2 C10_2 1_555 1_555
H16_2 C12_2 1_555 1_555
H18_2 C14_2 1_555 1_555
H19_2 C10_2 1_555 1_555
H20_2 C11_2 1_555 1_555
H21_2 C12_2 1_555 1_555
H22_2 C13_2 1_555 1_555
H23_2 C14_2 1_555 1_555
H24_2 C15_2 1_555 1_555
H26_2 C17_2 1_555 1_555
H28_2 C19_2 1_555 1_555
H29_2 C15_2 1_555 1_555
H31_2 C17_2 1_555 1_555
H33_2 C19_2 1_555 1_555
C1_2 C2_2 1_555 1_555
O14_2 C6_2 1_555 1_555
O15_2 C7_2 1_555 1_555
O16_2 C8_2 1_555 1_555
O17_2 C9_2 1_555 1_555
O26_2 C20_2 1_555 1_555
O28_2 C22_2 1_555 1_555
O30_2 C24_2 1_555 1_555
C5_2 C10_2 1_555 1_555
C6_2 C11_2 1_555 1_555
C7_2 C12_2 1_555 1_555
C8_2 C13_2 1_555 1_555
C9_2 C14_2 1_555 1_555
C15_2 C20_2 1_555 1_555
C17_2 C22_2 1_555 1_555
C19_2 C24_2 1_555 1_555
N6 H34_3 1_555 1_555
N6 H35_3 1_555 1_555
O31 C4_2 1_555 1_555
C3_2 N8 1_555 1_555
C4_2 O24 1_555 1_555
H4_2 C3_2 1_555 1_555
H5_2 C3_2 1_555 1_555
C16_2 N8_3 1_555 1_555
C18_2 N8_2 1_555 1_555
C21_2 O24_3 1_555 1_555
C23_2 O24_2 1_555 1_555
H25_2 C16_2 1_555 1_555
H27_2 C18_2 1_555 1_555
H30_2 C16_2 1_555 1_555
H32_2 C18_2 1_555 1_555
C3_2 C4_2 1_555 1_555
O33 C21_2 1_555 1_555
O32 C23_2 1_555 1_555
C16_2 C21_2 1_555 1_555
C18_2 C23_2 1_555 1_555
N5 H36_5 1_555 1_555
N5 H37_5 1_555 1_555
N4 H34_4 1_555 1_555
N4 H35_4 1_555 1_555
N3 H36_6 1_555 1_555
N3 H37_6 1_555 1_555

#END
