
###############################################################################
#
# This file contains modified crystal structure data generated from the
# MOF subset of the Cambridge Structural Database (CSD) v543 
# hosted by the Cambridge Crystallographic Data Centre (CCDC).
#
# This work is licensed under the Creative Commons
# Attribution-NonCommercial-ShareAlike 4.0 International License.
# To view a copy of this license, visit
# http://creativecommons.org/licenses/by-nc-sa/4.0/
# or send a letter to
# Creative Commons, PO Box 1866, Mountain View, CA 94042, USA.
#
# CIF created using the CSD Python API on 29 September 2022
# The structure has been converted into the P1 space group
# The structure has a 3D framework
# The original CSD entry IBASAH is in the trigonal crystal system
# The framework has been calculated to contain at least 10.0% void space
# The void calculation uses a probe of radius 1.32A, grid spacing 0.4
# H atom positions have been added when not included in the experimental data
#
###############################################################################

data_IBASAH
_chemical_formula_moiety         '(C48 H84 Cu4 Ho4 N12 O48)n'
_symmetry_cell_setting           triclinic
_symmetry_space_group_name_H-M   'P 1'
_symmetry_Int_Tables_number      1
_space_group_name_Hall           'P 1'
loop_
_symmetry_equiv_pos_site_id
_symmetry_equiv_pos_as_xyz
1 x,y,z
_cell_length_a                   13.388(2)
_cell_length_b                   13.388(2)
_cell_length_c                   14.306(2)
_cell_angle_alpha                90
_cell_angle_beta                 90
_cell_angle_gamma                120
_cell_volume                     2220.65
loop_
_atom_site_label
_atom_site_type_symbol
_atom_site_fract_x
_atom_site_fract_y
_atom_site_fract_z
Cu2 Cu -0.0000 0.5000 0.0000
Cu3 Cu -0.0000 0.5000 0.5000
O11 O 0.1900(4) 0.6397(3) 0.0590(3)
O12 O 0.1900(4) 0.5503(3) 0.5590(3)
O25 O 0.0735(4) 0.5979(3) 0.3908(3)
N9 N 0.0431(6) 0.3908(4) 0.4408(3)
H6 H 0.0223 0.3498 0.0795
H7 H 0.0223 0.6725 0.5795
H38 H 0.0833499 0.366939 0.4885
H39 H 0.0966867 0.429948 0.3859
Cu2_2 Cu -0.0000 0.5000 1.0000
O24 O 0.0735(4) 0.4756(3) 0.8908(3)
N8 N 0.0431(6) 0.6523(4) 0.9408(3)
H36 H 0.0966867 0.666739 0.8859
H37 H 0.0833499 0.716411 0.9885
Ho1 Ho 0.6667 0.3333 0.33309(3)
Cu1 Cu 0.5000 0.5000 0.5000
O1 O 0.5503(3) 0.3603(3) 0.4410(3)
O2 O 0.4410(4) 0.1940(3) 0.3724(3)
O3 O 0.5979(3) 0.5244(3) 0.6092(3)
O4 O 0.6203(3) 0.4344(3) 0.7299(2)
N1 N 0.3908(4) 0.3477(4) 0.5592(3)
C1 C 0.4543(5) 0.2691(5) 0.4304(3)
C2 C 0.3538(5) 0.2544(5) 0.4885(4)
C3 C 0.4491(5) 0.3316(5) 0.6407(3)
C4 C 0.5627(5) 0.4360(5) 0.6610(3)
H1 H 0.3275 0.3498 0.5795
H2 H 0.2961 0.2550 0.4479
H3 H 0.3190 0.1803 0.5199
H4 H 0.4609 0.2668 0.6290
H5 H 0.3997 0.3131 0.6951
Ho3 Ho 0.6666 0.3333 0.83309(3)
Cu2_3 Cu 1.0000 0.5000 0.0000
Cu3_2 Cu 1.0000 0.5000 0.5000
Cu4 Cu 0.5000 0.0000 0.5000
Cu5 Cu 0.5000 0.0000 0.0000
Cu6 Cu 0.5000 0.5000 0.0000
O6 O 0.8100(4) 0.4497(3) 0.4410(3)
O7 O 0.6397(3) 0.1900(4) 0.4410(3)
O10 O 0.4497(3) 0.6397(3) 0.5590(3)
O14 O 0.7530(5) 0.5590(4) 0.3724(3)
O15 O 0.8060(3) 0.2470(5) 0.3724(3)
O18 O 0.9265(4) 0.5244(3) 0.1092(3)
O19 O 0.9265(4) 0.4021(3) 0.6092(3)
O20 O 0.4756(3) 0.0735(4) 0.6092(3)
O21 O 0.5979(3) 0.0735(4) 0.1092(3)
O22 O 0.4756(3) 0.4021(3) 0.1092(3)
O23 O 0.4021(3) 0.4756(3) 0.3908(3)
O26 O 0.8141(4) 0.4344(3) 0.2299(2)
O27 O 0.8141(4) 0.3797(3) 0.7299(2)
O28 O 0.5656(3) 0.1859(4) 0.7299(2)
O29 O 0.6203(3) 0.1859(4) 0.2299(2)
O30 O 0.5656(3) 0.3797(3) 0.2299(2)
N2 N 0.9569(6) 0.3477(4) 0.0592(3)
N3 N 0.9569(6) 0.6092(4) 0.5592(3)
N4 N 0.6523(4) 0.0431(6) 0.5592(3)
N5 N 0.3908(4) 0.0431(6) 0.0592(3)
N6 N 0.6523(4) 0.6092(4) 0.0592(3)
N7 N 0.6092(4) 0.6523(4) 0.4408(3)
C6 C 0.8148(7) 0.5457(5) 0.4304(3)
C7 C 0.7309(5) 0.1852(7) 0.4304(3)
C11 C 0.9006(7) 0.6462(5) 0.4885(4)
C12 C 0.7456(5) 0.0994(7) 0.4885(4)
C15 C 0.8825(7) 0.3316(5) 0.1407(3)
C16 C 0.8825(7) 0.5509(5) 0.6407(3)
C17 C 0.6684(5) 0.1175(7) 0.6407(3)
C18 C 0.4491(5) 0.1175(7) 0.1407(3)
C19 C 0.6684(5) 0.5509(5) 0.1407(3)
C20 C 0.8733(7) 0.4360(5) 0.1610(3)
C21 C 0.8733(7) 0.4373(5) 0.6610(3)
C22 C 0.5640(5) 0.1267(7) 0.6610(3)
C23 C 0.5627(5) 0.1267(7) 0.1610(3)
C24 C 0.5640(5) 0.4373(5) 0.1610(3)
H10 H 0.6502 0.6725 0.0795
H11 H 0.6725 0.6502 0.4205
H13 H 0.9777 0.3275 0.4205
H15 H 0.9589 0.7039 0.4479
H16 H 0.7450 0.0411 0.4479
H19 H 0.8613 0.1803 0.0199
H20 H 0.8613 0.6810 0.5199
H21 H 0.8197 0.1387 0.5199
H22 H 0.3190 0.1387 0.0199
H23 H 0.8197 0.6810 0.0199
H24 H 0.8059 0.2668 0.1290
H25 H 0.8059 0.5391 0.6290
H26 H 0.7332 0.1941 0.6290
H27 H 0.4609 0.1941 0.1290
H28 H 0.7332 0.5391 0.1290
H29 H 0.9134 0.3131 0.1951
H30 H 0.9134 0.6003 0.6951
H31 H 0.6869 0.0866 0.6951
H32 H 0.3997 0.0866 0.1951
H33 H 0.6869 0.6003 0.1951
H34 H 0.633061 0.716411 0.4885
H35 H 0.570052 0.666739 0.3859
Cu2_4 Cu 1.0000 0.5000 1.0000
Cu5_2 Cu 0.5000 0.0000 1.0000
Cu6_2 Cu 0.5000 0.5000 1.0000
O5 O 0.8100(4) 0.3603(3) 0.9410(3)
O8 O 0.5503(3) 0.1900(4) 0.9410(3)
O9 O 0.6397(3) 0.4497(3) 0.9410(3)
O13 O 0.7530(5) 0.1940(3) 0.8724(3)
O16 O 0.4410(4) 0.2470(5) 0.8724(3)
O17 O 0.8060(3) 0.5590(4) 0.8724(3)
C5 C 0.8148(7) 0.2691(5) 0.9304(3)
C8 C 0.4543(5) 0.1852(7) 0.9304(3)
C9 C 0.7309(5) 0.5457(5) 0.9304(3)
C10 C 0.9006(7) 0.2544(5) 0.9885(4)
C13 C 0.3538(5) 0.0994(7) 0.9885(4)
C14 C 0.7456(5) 0.6462(5) 0.9885(4)
H12 H 0.9777 0.6502 0.9205
H14 H 0.9589 0.2550 0.9479
H17 H 0.2961 0.0411 0.9479
H18 H 0.7450 0.7039 0.9479
Cu4_2 Cu 0.5000 1.0000 0.5000
Cu5_3 Cu 0.5000 1.0000 0.0000
H8 H 0.6502 0.9777 0.5795
H9 H 0.3275 0.9777 0.0795
Cu5_4 Cu 0.5000 1.0000 1.0000
O11_2 O 0.3603(3) 0.5503(5) 0.0590(3)
H11_2 H 0.3498 0.0223 0.4205
O24_2 O 0.5244(3) 0.5979(5) 0.8908(3)
N8_2 N 0.3477(4) 0.3908(7) 0.9408(3)
H12_2 H 0.3498 0.3275 0.9205
H36_2 H 0.333261 0.429948 0.8859
H37_2 H 0.283589 0.366939 0.9885
O10_2 O 0.3603(3) 0.8100(4) 0.5590(3)
O23_2 O 0.5244(3) 0.9265(4) 0.3908(3)
N7_2 N 0.3477(4) 0.9569(6) 0.4408(3)
H34_2 H 0.283589 0.91665 0.4885
H35_2 H 0.333261 0.903313 0.3859
H12_3 H 0.6725 0.0223 0.9205
O11_3 O 0.4497(5) 0.8100(4) 0.0590(3)
O24_3 O 0.4021(5) 0.9265(4) 0.8908(3)
N8_3 N 0.6092(7) 0.9569(6) 0.9408(3)
H36_3 H 0.570052 0.903313 0.8859
H37_3 H 0.633061 0.91665 0.9885
Ho1_2 Ho 0.3334 0.6667 0.16691(3)
O2_2 O 0.2470(5) 0.8060(3) 0.1276(3)
C1_2 C 0.1852(7) 0.7309(5) 0.0696(3)
C2_2 C 0.0994(7) 0.7456(5) 0.0115(4)
H2_2 H 0.0411 0.7450 0.0521
Ho2 Ho 0.3333 0.6667 0.66691(3)
O13_2 O 0.5590(6) 0.8060(3) 0.6276(3)
O14_2 O 0.1940(6) 0.4410(4) 0.1276(3)
O15_2 O 0.5590(6) 0.7530(5) 0.1276(3)
O16_2 O 0.1940(6) 0.7530(5) 0.6276(3)
O17_2 O 0.2470(5) 0.4410(4) 0.6276(3)
O26_2 O 0.3797(5) 0.5656(3) 0.2701(2)
O29_2 O 0.4344(5) 0.8141(4) 0.2701(2)
O30_2 O 0.1859(4) 0.6203(3) 0.2701(2)
O31 O 0.1859(4) 0.5656(3) 0.7701(2)
O32 O 0.3797(5) 0.8141(4) 0.7701(2)
O33 O 0.4344(5) 0.6203(3) 0.7701(2)
C5_2 C 0.5457(9) 0.7309(5) 0.5696(3)
C6_2 C 0.2691(9) 0.4543(5) 0.0696(3)
C7_2 C 0.5457(9) 0.8148(7) 0.0696(3)
C8_2 C 0.2691(9) 0.8148(7) 0.5696(3)
C9_2 C 0.1852(7) 0.4543(5) 0.5696(3)
C10_2 C 0.6462(9) 0.7456(5) 0.5115(4)
C11_2 C 0.2544(9) 0.3538(5) 0.0115(4)
C12_2 C 0.6462(9) 0.9006(7) 0.0115(4)
C13_2 C 0.2544(9) 0.9006(7) 0.5115(4)
C14_2 C 0.0994(7) 0.3538(5) 0.5115(4)
C15_2 C 0.5509(9) 0.6684(5) 0.3593(3)
C18_2 C 0.3316(9) 0.8825(7) 0.3593(3)
C19_2 C 0.1175(7) 0.4491(5) 0.3593(3)
C20_2 C 0.4373(9) 0.5640(5) 0.3390(3)
C23_2 C 0.4360(9) 0.8733(7) 0.3390(3)
C24_2 C 0.1267(7) 0.5627(5) 0.3390(3)
H14_2 H 0.7039 0.7450 0.5521
H15_2 H 0.2550 0.2961 0.0521
H16_2 H 0.7039 0.9589 0.0521
H17_2 H 0.2550 0.9589 0.5521
H18_2 H 0.0411 0.2961 0.5521
H19_2 H 0.6810 0.8197 0.4801
H22_2 H 0.1803 0.8613 0.4801
H23_2 H 0.1387 0.3190 0.4801
H24_2 H 0.5391 0.7332 0.3710
H27_2 H 0.2668 0.8059 0.3710
H28_2 H 0.1941 0.4609 0.3710
H29_2 H 0.6003 0.6869 0.3049
H32_2 H 0.3131 0.9134 0.3049
H33_2 H 0.0866 0.3997 0.3049
H36_4 H 0.429948 0.333261 0.6141
H37_4 H 0.366939 0.283589 0.5115
H38_2 H 0.716411 0.633061 0.0115003
H39_2 H 0.666739 0.570052 0.1141
C3_2 C 0.1175(7) 0.6684(5) 0.8593(3)
C4_2 C 0.1267(7) 0.5640(5) 0.8390(3)
H3_2 H 0.1387 0.8197 0.9801
H4_2 H 0.1941 0.7332 0.8710
H5_2 H 0.0866 0.6869 0.8049
C16_2 C 0.3316(9) 0.4491(5) 0.8593(3)
C17_2 C 0.5509(9) 0.8825(7) 0.8593(3)
C21_2 C 0.4360(9) 0.5627(5) 0.8390(3)
C22_2 C 0.4373(9) 0.8733(7) 0.8390(3)
H20_2 H 0.1803 0.3190 0.9801
H21_2 H 0.6810 0.8613 0.9801
H25_2 H 0.2668 0.4609 0.8710
H26_2 H 0.5391 0.8059 0.8710
H30_2 H 0.3131 0.3997 0.8049
H31_2 H 0.6003 0.9134 0.8049
H34_3 H 0.91665 0.283589 0.0115003
H35_3 H 0.903313 0.333261 0.1141
H34_4 H 0.366939 0.0833499 0.0115003
H35_4 H 0.429948 0.0966867 0.1141
H36_5 H 0.903313 0.570052 0.6141
H37_5 H 0.91665 0.633061 0.5115
H36_6 H 0.666739 0.0966867 0.6141
H37_6 H 0.716411 0.0833499 0.5115
loop_
_geom_bond_atom_site_label_1
_geom_bond_atom_site_label_2
_geom_bond_site_symmetry_1
_geom_bond_site_symmetry_2
O11 Cu2 1_555 1_555
O12 Cu3 1_555 1_555
O25 Cu3 1_555 1_555
N9 Cu3 1_555 1_555
N9 H38 1_555 1_555
N9 H39 1_555 1_555
O24 Cu2_2 1_555 1_555
N8 Cu2_2 1_555 1_555
N8 H36 1_555 1_555
N8 H37 1_555 1_555
Ho1 O1 1_555 1_555
Cu1 O1 1_555 1_555
O1 C1 1_555 1_555
O2 Ho1 1_555 1_555
O3 Cu1 1_555 1_555
O4 C4 1_555 1_555
N1 Cu1 1_555 1_555
C1 O2 1_555 1_555
C2 N1 1_555 1_555
C3 N1 1_555 1_555
C4 O3 1_555 1_555
H1 N1 1_555 1_555
H2 C2 1_555 1_555
H3 C2 1_555 1_555
H4 C3 1_555 1_555
H5 C3 1_555 1_555
Ho3 O4 1_555 1_555
Cu3_2 O6 1_555 1_555
Cu4 O7 1_555 1_555
O6 Ho1 1_555 1_555
O7 Ho1 1_555 1_555
O10 Cu1 1_555 1_555
O14 Ho1 1_555 1_555
O15 Ho1 1_555 1_555
O18 Cu2_3 1_555 1_555
O19 Cu3_2 1_555 1_555
O20 Cu4 1_555 1_555
O21 Cu5 1_555 1_555
O22 Cu6 1_555 1_555
O23 Cu1 1_555 1_555
O26 Ho1 1_555 1_555
O27 Ho3 1_555 1_555
O28 Ho3 1_555 1_555
O29 Ho1 1_555 1_555
O30 Ho1 1_555 1_555
N2 Cu2_3 1_555 1_555
N3 Cu3_2 1_555 1_555
N4 Cu4 1_555 1_555
N5 Cu5 1_555 1_555
N6 Cu6 1_555 1_555
N7 Cu1 1_555 1_555
C6 O6 1_555 1_555
C7 O7 1_555 1_555
C11 N3 1_555 1_555
C12 N4 1_555 1_555
C15 N2 1_555 1_555
C16 N3 1_555 1_555
C17 N4 1_555 1_555
C18 N5 1_555 1_555
C19 N6 1_555 1_555
C20 O18 1_555 1_555
C21 O19 1_555 1_555
C22 O20 1_555 1_555
C23 O21 1_555 1_555
C24 O22 1_555 1_555
H10 N6 1_555 1_555
H11 N7 1_555 1_555
H15 C11 1_555 1_555
H16 C12 1_555 1_555
H20 C11 1_555 1_555
H21 C12 1_555 1_555
H24 C15 1_555 1_555
H25 C16 1_555 1_555
H26 C17 1_555 1_555
H27 C18 1_555 1_555
H28 C19 1_555 1_555
H29 C15 1_555 1_555
H30 C16 1_555 1_555
H31 C17 1_555 1_555
H32 C18 1_555 1_555
H33 C19 1_555 1_555
C1 C2 1_555 1_555
C3 C4 1_555 1_555
O14 C6 1_555 1_555
O15 C7 1_555 1_555
O26 C20 1_555 1_555
O27 C21 1_555 1_555
O28 C22 1_555 1_555
O29 C23 1_555 1_555
O30 C24 1_555 1_555
C6 C11 1_555 1_555
C7 C12 1_555 1_555
C15 C20 1_555 1_555
C16 C21 1_555 1_555
C17 C22 1_555 1_555
C18 C23 1_555 1_555
C19 C24 1_555 1_555
N7 H34 1_555 1_555
N7 H35 1_555 1_555
Ho3 O5 1_555 1_555
Cu2_4 O5 1_555 1_555
Cu5_2 O8 1_555 1_555
Cu6_2 O9 1_555 1_555
O5 C5 1_555 1_555
O8 Ho3 1_555 1_555
O9 Ho3 1_555 1_555
O13 Ho3 1_555 1_555
O16 Ho3 1_555 1_555
O17 Ho3 1_555 1_555
C5 O13 1_555 1_555
C8 O8 1_555 1_555
C9 O9 1_555 1_555
H14 C10 1_555 1_555
H17 C13 1_555 1_555
H18 C14 1_555 1_555
O16 C8 1_555 1_555
O17 C9 1_555 1_555
C5 C10 1_555 1_555
C8 C13 1_555 1_555
C9 C14 1_555 1_555
O11_2 Cu6 1_555 1_555
O24_2 Cu6_2 1_555 1_555
N8_2 Cu6_2 1_555 1_555
H12_2 N8_2 1_555 1_555
N8_2 H36_2 1_555 1_555
N8_2 H37_2 1_555 1_555
O10_2 Cu4_2 1_555 1_555
O23_2 Cu4_2 1_555 1_555
N7_2 Cu4_2 1_555 1_555
N7_2 H34_2 1_555 1_555
N7_2 H35_2 1_555 1_555
O11_3 Cu5_3 1_555 1_555
O24_3 Cu5_4 1_555 1_555
N8_3 Cu5_4 1_555 1_555
N8_3 H36_3 1_555 1_555
N8_3 H37_3 1_555 1_555
Ho1_2 O11 1_555 1_555
O11 C1_2 1_555 1_555
O2_2 Ho1_2 1_555 1_555
C1_2 O2_2 1_555 1_555
H2_2 C2_2 1_555 1_555
Ho2 O10 1_555 1_555
O10 C5_2 1_555 1_555
O11_2 Ho1_2 1_555 1_555
O11_3 Ho1_2 1_555 1_555
O10_2 Ho2 1_555 1_555
O12 Ho2 1_555 1_555
O13_2 Ho2 1_555 1_555
O14_2 Ho1_2 1_555 1_555
O15_2 Ho1_2 1_555 1_555
O16_2 Ho2 1_555 1_555
O17_2 Ho2 1_555 1_555
O26_2 Ho1_2 1_555 1_555
O29_2 Ho1_2 1_555 1_555
O30_2 Ho1_2 1_555 1_555
O31 Ho2 1_555 1_555
O32 Ho2 1_555 1_555
O33 Ho2 1_555 1_555
C5_2 O13_2 1_555 1_555
C6_2 O11_2 1_555 1_555
C7_2 O11_3 1_555 1_555
C8_2 O10_2 1_555 1_555
C9_2 O12 1_555 1_555
C10_2 N7 1_555 1_555
C13_2 N7_2 1_555 1_555
C14_2 N9 1_555 1_555
C15_2 N7 1_555 1_555
C18_2 N7_2 1_555 1_555
C19_2 N9 1_555 1_555
C20_2 O23 1_555 1_555
C23_2 O23_2 1_555 1_555
C24_2 O25 1_555 1_555
H14_2 C10_2 1_555 1_555
H15_2 C11_2 1_555 1_555
H16_2 C12_2 1_555 1_555
H17_2 C13_2 1_555 1_555
H18_2 C14_2 1_555 1_555
H19_2 C10_2 1_555 1_555
H22_2 C13_2 1_555 1_555
H23_2 C14_2 1_555 1_555
H24_2 C15_2 1_555 1_555
H27_2 C18_2 1_555 1_555
H28_2 C19_2 1_555 1_555
H29_2 C15_2 1_555 1_555
H32_2 C18_2 1_555 1_555
H33_2 C19_2 1_555 1_555
C1_2 C2_2 1_555 1_555
O14_2 C6_2 1_555 1_555
O15_2 C7_2 1_555 1_555
O16_2 C8_2 1_555 1_555
O17_2 C9_2 1_555 1_555
O26_2 C20_2 1_555 1_555
O29_2 C23_2 1_555 1_555
O30_2 C24_2 1_555 1_555
C5_2 C10_2 1_555 1_555
C6_2 C11_2 1_555 1_555
C7_2 C12_2 1_555 1_555
C8_2 C13_2 1_555 1_555
C9_2 C14_2 1_555 1_555
C15_2 C20_2 1_555 1_555
C18_2 C23_2 1_555 1_555
C19_2 C24_2 1_555 1_555
N1 H36_4 1_555 1_555
N1 H37_4 1_555 1_555
N6 H38_2 1_555 1_555
N6 H39_2 1_555 1_555
O31 C4_2 1_555 1_555
C3_2 N8 1_555 1_555
C4_2 O24 1_555 1_555
H4_2 C3_2 1_555 1_555
H5_2 C3_2 1_555 1_555
C16_2 N8_2 1_555 1_555
C17_2 N8_3 1_555 1_555
C21_2 O24_2 1_555 1_555
C22_2 O24_3 1_555 1_555
H25_2 C16_2 1_555 1_555
H26_2 C17_2 1_555 1_555
H30_2 C16_2 1_555 1_555
H31_2 C17_2 1_555 1_555
C3_2 C4_2 1_555 1_555
O33 C21_2 1_555 1_555
O32 C22_2 1_555 1_555
C16_2 C21_2 1_555 1_555
C17_2 C22_2 1_555 1_555
N2 H34_3 1_555 1_555
N2 H35_3 1_555 1_555
N5 H34_4 1_555 1_555
N5 H35_4 1_555 1_555
N3 H36_5 1_555 1_555
N3 H37_5 1_555 1_555
N4 H36_6 1_555 1_555
N4 H37_6 1_555 1_555

#END
