
###############################################################################
#
# This file contains modified crystal structure data generated from the
# MOF subset of the Cambridge Structural Database (CSD) v543 
# hosted by the Cambridge Crystallographic Data Centre (CCDC).
#
# This work is licensed under the Creative Commons
# Attribution-NonCommercial-ShareAlike 4.0 International License.
# To view a copy of this license, visit
# http://creativecommons.org/licenses/by-nc-sa/4.0/
# or send a letter to
# Creative Commons, PO Box 1866, Mountain View, CA 94042, USA.
#
# CIF created using the CSD Python API on 29 September 2022
# The structure has been converted into the P1 space group
# The structure has a 3D framework
# The original CSD entry IBASUB is in the trigonal crystal system
# The framework has been calculated to contain at least 10.0% void space
# The void calculation uses a probe of radius 1.32A, grid spacing 0.4
# H atom positions have been added when not included in the experimental data
#
###############################################################################

data_IBASUB
_chemical_formula_moiety         '(C48 H84 Cu4 N12 O48 Sm4)n'
_symmetry_cell_setting           triclinic
_symmetry_space_group_name_H-M   'P 1'
_symmetry_Int_Tables_number      1
_space_group_name_Hall           'P 1'
loop_
_symmetry_equiv_pos_site_id
_symmetry_equiv_pos_as_xyz
1 x,y,z
_cell_length_a                   13.4105(13)
_cell_length_b                   13.4105(13)
_cell_length_c                   14.5808(15)
_cell_angle_alpha                90
_cell_angle_beta                 90
_cell_angle_gamma                120
_cell_volume                     2270.92
loop_
_atom_site_label
_atom_site_type_symbol
_atom_site_fract_x
_atom_site_fract_y
_atom_site_fract_z
Cu2 Cu -0.0000 0.5000 0.0000
Cu4 Cu -0.0000 0.5000 0.5000
O11 O 0.1869(3) 0.5492(2) 0.0570(2)
H6 H 0.0237 0.6725 0.0778
H8 H 0.0237 0.3512 0.5778
Cu2_2 Cu -0.0000 0.5000 1.0000
O24 O 0.0735(3) 0.5979(2) 0.8929(2)
N8 N 0.0419(3) 0.3904(2) 0.9418(2)
H36 H 0.0820873 0.366358 0.98842
H37 H 0.0951241 0.429087 0.887714
Sm1 Sm 0.6667 0.3333 0.33214(2)
Cu1 Cu 0.5000 0.5000 0.5000
O1 O 0.6377(2) 0.4508(2) 0.4430(2)
O2 O 0.8035(3) 0.5588(3) 0.3739(2)
O3 O 0.4756(2) 0.4021(2) 0.6071(2)
O4 O 0.5646(3) 0.3832(3) 0.7271(2)
N1 N 0.6515(2) 0.6096(2) 0.5582(2)
C1 C 0.7291(3) 0.5459(3) 0.4319(2)
C2 C 0.7454(3) 0.6473(3) 0.4897(2)
C3 C 0.6673(4) 0.5521(3) 0.6389(2)
C4 C 0.5625(3) 0.4382(3) 0.6592(2)
H1 H 0.6488 0.6725 0.5778
H2 H 0.8190 0.6810 0.5209
H3 H 0.7456 0.7057 0.4502
H4 H 0.6852 0.6019 0.6920
H5 H 0.7321 0.5405 0.6281
Sm3 Sm 0.6666 0.3333 0.83214(2)
Cu2_3 Cu 1.0000 0.5000 0.0000
Cu3 Cu 0.5000 0.0000 0.5000
Cu4_2 Cu 1.0000 0.5000 0.5000
Cu5 Cu 0.5000 0.0000 0.0000
Cu6 Cu 0.5000 0.5000 0.0000
O6 O 0.5492(2) 0.1869(3) 0.4430(2)
O7 O 0.8131(3) 0.3623(2) 0.4430(2)
O10 O 0.3623(2) 0.5492(2) 0.5570(2)
O14 O 0.4412(3) 0.2447(4) 0.3739(2)
O15 O 0.7553(4) 0.1965(3) 0.3739(2)
O18 O 0.9265(3) 0.4021(2) 0.1071(2)
O19 O 0.5979(2) 0.0735(3) 0.6071(2)
O20 O 0.9265(3) 0.5244(2) 0.6071(2)
O21 O 0.4756(2) 0.0735(3) 0.1071(2)
O22 O 0.5979(2) 0.5244(2) 0.1071(2)
O23 O 0.5244(2) 0.5979(2) 0.3929(2)
O26 O 0.8186(4) 0.3832(3) 0.2271(2)
O27 O 0.6168(3) 0.1814(4) 0.7271(2)
O28 O 0.8186(4) 0.4354(3) 0.7271(2)
O29 O 0.5646(3) 0.1814(4) 0.2271(2)
O30 O 0.6168(3) 0.4354(3) 0.2271(2)
N2 N 0.9581(3) 0.6096(2) 0.0582(2)
N3 N 0.3904(2) 0.0419(3) 0.5582(2)
N4 N 0.9581(3) 0.3485(2) 0.5582(2)
N5 N 0.6515(2) 0.0419(3) 0.0582(2)
N6 N 0.3904(2) 0.3485(2) 0.0582(2)
N7 N 0.3485(2) 0.3904(2) 0.4418(2)
C6 C 0.4541(3) 0.1832(4) 0.4319(2)
C7 C 0.8168(4) 0.2709(3) 0.4319(2)
C11 C 0.3527(3) 0.0981(4) 0.4897(2)
C12 C 0.9019(4) 0.2546(3) 0.4897(2)
C15 C 0.8848(5) 0.5521(3) 0.1389(2)
C16 C 0.4479(3) 0.1152(5) 0.6389(2)
C17 C 0.8848(5) 0.3327(4) 0.6389(2)
C18 C 0.6673(4) 0.1152(5) 0.1389(2)
C19 C 0.4479(3) 0.3327(4) 0.1389(2)
C20 C 0.8757(4) 0.4382(3) 0.1592(2)
C21 C 0.5618(3) 0.1243(4) 0.6592(2)
C22 C 0.8757(4) 0.4375(3) 0.6592(2)
C23 C 0.5625(3) 0.1243(4) 0.1592(2)
C24 C 0.5618(3) 0.4375(3) 0.1592(2)
H10 H 0.3275 0.3512 0.0778
H11 H 0.3512 0.3275 0.4222
H13 H 0.6725 0.0237 0.4222
H14 H 0.8620 0.6810 0.0209
H15 H 0.3190 0.1380 0.5209
H16 H 0.8620 0.1810 0.5209
H17 H 0.8190 0.1380 0.0209
H18 H 0.3190 0.1810 0.0209
H20 H 0.2943 0.0399 0.4502
H21 H 0.9601 0.2544 0.4502
H24 H 0.9167 0.6019 0.1920
H25 H 0.3981 0.0833 0.6920
H26 H 0.9167 0.3148 0.6920
H27 H 0.6852 0.0833 0.1920
H28 H 0.3981 0.3148 0.1920
H29 H 0.8084 0.5405 0.1281
H30 H 0.4595 0.1916 0.6281
H31 H 0.8084 0.2679 0.6281
H32 H 0.7321 0.1916 0.1281
H33 H 0.4595 0.2679 0.1281
H34 H 0.333963 0.429087 0.387714
H35 H 0.284271 0.366358 0.48842
Cu2_4 Cu 1.0000 0.5000 1.0000
Cu5_2 Cu 0.5000 0.0000 1.0000
Cu6_2 Cu 0.5000 0.5000 1.0000
O5 O 0.8131(3) 0.4508(2) 0.9430(2)
O8 O 0.6377(2) 0.1869(3) 0.9430(2)
O9 O 0.5492(2) 0.3623(2) 0.9430(2)
O13 O 0.7553(4) 0.5588(3) 0.8739(2)
O16 O 0.8035(3) 0.2447(4) 0.8739(2)
O17 O 0.4412(3) 0.1965(3) 0.8739(2)
C5 C 0.8168(4) 0.5459(3) 0.9319(2)
C8 C 0.7291(3) 0.1832(4) 0.9319(2)
C9 C 0.4541(3) 0.2709(3) 0.9319(2)
C10 C 0.9019(4) 0.6473(3) 0.9897(2)
C13 C 0.7454(3) 0.0981(4) 0.9897(2)
C14 C 0.3527(3) 0.2546(3) 0.9897(2)
H12 H 0.9763 0.3275 0.9222
H19 H 0.9601 0.7057 0.9502
H22 H 0.7456 0.0399 0.9502
H23 H 0.2943 0.2544 0.9502
Cu3_2 Cu 0.5000 1.0000 0.5000
Cu5_3 Cu 0.5000 1.0000 0.0000
O12 O 0.4508(2) 0.8131(3) 0.5570(2)
O25 O 0.4021(2) 0.9265(3) 0.3929(2)
N9 N 0.6096(2) 0.9581(3) 0.4418(2)
H7 H 0.3275 0.9763 0.5778
H9 H 0.6488 0.9763 0.0778
H38 H 0.570913 0.904876 0.387714
H39 H 0.633642 0.917913 0.48842
Cu5_4 Cu 0.5000 1.0000 1.0000
O12_2 O 0.1869(3) 0.6377(4) 0.5570(2)
O25_2 O 0.0735(3) 0.4756(4) 0.3929(2)
N9_2 N 0.0419(3) 0.6515(4) 0.4418(2)
H38_2 H 0.0951241 0.666037 0.387714
H39_2 H 0.0820873 0.715729 0.48842
O11_2 O 0.4508(2) 0.6377(4) 0.0570(2)
H13_2 H 0.9763 0.6488 0.4222
O24_2 O 0.4021(2) 0.4756(4) 0.8929(2)
N8_2 N 0.6096(2) 0.6515(4) 0.9418(2)
H12_2 H 0.6725 0.6488 0.9222
H36_2 H 0.633642 0.715729 0.98842
H37_2 H 0.570913 0.666037 0.887714
H12_3 H 0.3512 0.0237 0.9222
O11_3 O 0.3623(4) 0.8131(3) 0.0570(2)
O24_3 O 0.5244(4) 0.9265(3) 0.8929(2)
N8_3 N 0.3485(4) 0.9581(3) 0.9418(2)
H36_3 H 0.284271 0.917913 0.98842
H37_3 H 0.333963 0.904876 0.887714
H38_3 H 0.666037 0.0951241 0.112286
H39_3 H 0.715729 0.0820873 0.0115802
Sm1_2 Sm 0.3334 0.6667 0.16786(2)
O2_2 O 0.2447(4) 0.4412(3) 0.1261(2)
C1_2 C 0.1832(4) 0.4541(3) 0.0681(2)
C2_2 C 0.0981(4) 0.3527(3) 0.0103(2)
H3_2 H 0.0399 0.2943 0.0498
Sm2 Sm 0.3333 0.6667 0.66786(2)
O13_2 O 0.1965(5) 0.4412(3) 0.6261(2)
O14_2 O 0.1965(5) 0.7553(4) 0.1261(2)
O15_2 O 0.5588(5) 0.8035(3) 0.1261(2)
O16_2 O 0.5588(5) 0.7553(4) 0.6261(2)
O17_2 O 0.2447(4) 0.8035(3) 0.6261(2)
O26_2 O 0.4354(5) 0.6168(3) 0.2729(2)
O29_2 O 0.3832(5) 0.8186(4) 0.2729(2)
O30_2 O 0.1814(4) 0.5646(3) 0.2729(2)
O31 O 0.1814(4) 0.6168(3) 0.7729(2)
O32 O 0.4354(5) 0.8186(4) 0.7729(2)
O33 O 0.3832(5) 0.5646(3) 0.7729(2)
C5_2 C 0.2709(5) 0.4541(3) 0.5681(2)
C6_2 C 0.2709(5) 0.8168(4) 0.0681(2)
C7_2 C 0.5459(5) 0.7291(3) 0.0681(2)
C8_2 C 0.5459(5) 0.8168(4) 0.5681(2)
C9_2 C 0.1832(4) 0.7291(3) 0.5681(2)
C10_2 C 0.2546(5) 0.3527(3) 0.5103(2)
C11_2 C 0.2546(5) 0.9019(4) 0.0103(2)
C12_2 C 0.6473(5) 0.7454(3) 0.0103(2)
C13_2 C 0.6473(5) 0.9019(4) 0.5103(2)
C14_2 C 0.0981(4) 0.7454(3) 0.5103(2)
C15_2 C 0.3327(6) 0.4479(3) 0.3611(2)
C18_2 C 0.5521(6) 0.8848(5) 0.3611(2)
C19_2 C 0.1152(5) 0.6673(4) 0.3611(2)
C20_2 C 0.4375(5) 0.5618(3) 0.3408(2)
C23_2 C 0.4382(5) 0.8757(4) 0.3408(2)
C24_2 C 0.1243(4) 0.5625(3) 0.3408(2)
H14_2 H 0.1810 0.3190 0.4791
H17_2 H 0.6810 0.8620 0.4791
H18_2 H 0.1380 0.8190 0.4791
H19_2 H 0.2544 0.2943 0.5498
H20_2 H 0.2544 0.9601 0.0498
H21_2 H 0.7057 0.7456 0.0498
H22_2 H 0.7057 0.9601 0.5498
H23_2 H 0.0399 0.7456 0.5498
H24_2 H 0.3148 0.3981 0.3080
H27_2 H 0.6019 0.9167 0.3080
H28_2 H 0.0833 0.6852 0.3080
H29_2 H 0.2679 0.4595 0.3719
H32_2 H 0.5405 0.8084 0.3719
H33_2 H 0.1916 0.7321 0.3719
H36_4 H 0.715729 0.633642 0.51158
H37_4 H 0.666037 0.570913 0.612286
C3_2 C 0.1152(5) 0.4479(3) 0.8611(2)
C4_2 C 0.1243(4) 0.5618(3) 0.8408(2)
H2_2 H 0.1380 0.3190 0.9791
H4_2 H 0.0833 0.3981 0.8080
H5_2 H 0.1916 0.4595 0.8719
C16_2 C 0.3327(6) 0.8848(5) 0.8611(2)
C17_2 C 0.5521(6) 0.6673(4) 0.8611(2)
C21_2 C 0.4375(5) 0.8757(4) 0.8408(2)
C22_2 C 0.4382(5) 0.5625(3) 0.8408(2)
H15_2 H 0.1810 0.8620 0.9791
H16_2 H 0.6810 0.8190 0.9791
H25_2 H 0.3148 0.9167 0.8080
H26_2 H 0.6019 0.6852 0.8080
H30_2 H 0.2679 0.8084 0.8719
H31_2 H 0.5405 0.7321 0.8719
H34_2 H 0.904876 0.570913 0.112286
H35_2 H 0.917913 0.633642 0.0115802
H38_4 H 0.429087 0.333963 0.112286
H39_4 H 0.366358 0.284271 0.0115802
H36_5 H 0.917913 0.284271 0.51158
H37_5 H 0.904876 0.333963 0.612286
H36_6 H 0.366358 0.0820873 0.51158
H37_6 H 0.429087 0.0951241 0.612286
loop_
_geom_bond_atom_site_label_1
_geom_bond_atom_site_label_2
_geom_bond_site_symmetry_1
_geom_bond_site_symmetry_2
O11 Cu2 1_555 1_555
O24 Cu2_2 1_555 1_555
N8 Cu2_2 1_555 1_555
N8 H36 1_555 1_555
N8 H37 1_555 1_555
Sm1 O1 1_555 1_555
Cu1 O1 1_555 1_555
O1 C1 1_555 1_555
O2 Sm1 1_555 1_555
O3 Cu1 1_555 1_555
O4 C4 1_555 1_555
N1 Cu1 1_555 1_555
C1 O2 1_555 1_555
C2 N1 1_555 1_555
C3 N1 1_555 1_555
C4 O3 1_555 1_555
H1 N1 1_555 1_555
H2 C2 1_555 1_555
H3 C2 1_555 1_555
H4 C3 1_555 1_555
H5 C3 1_555 1_555
Sm3 O4 1_555 1_555
Cu3 O6 1_555 1_555
Cu4_2 O7 1_555 1_555
O6 Sm1 1_555 1_555
O7 Sm1 1_555 1_555
O10 Cu1 1_555 1_555
O14 Sm1 1_555 1_555
O15 Sm1 1_555 1_555
O18 Cu2_3 1_555 1_555
O19 Cu3 1_555 1_555
O20 Cu4_2 1_555 1_555
O21 Cu5 1_555 1_555
O22 Cu6 1_555 1_555
O23 Cu1 1_555 1_555
O26 Sm1 1_555 1_555
O27 Sm3 1_555 1_555
O28 Sm3 1_555 1_555
O29 Sm1 1_555 1_555
O30 Sm1 1_555 1_555
N2 Cu2_3 1_555 1_555
N3 Cu3 1_555 1_555
N4 Cu4_2 1_555 1_555
N5 Cu5 1_555 1_555
N6 Cu6 1_555 1_555
N7 Cu1 1_555 1_555
C6 O6 1_555 1_555
C7 O7 1_555 1_555
C11 N3 1_555 1_555
C12 N4 1_555 1_555
C15 N2 1_555 1_555
C16 N3 1_555 1_555
C17 N4 1_555 1_555
C18 N5 1_555 1_555
C19 N6 1_555 1_555
C20 O18 1_555 1_555
C21 O19 1_555 1_555
C22 O20 1_555 1_555
C23 O21 1_555 1_555
C24 O22 1_555 1_555
H10 N6 1_555 1_555
H11 N7 1_555 1_555
H15 C11 1_555 1_555
H16 C12 1_555 1_555
H20 C11 1_555 1_555
H21 C12 1_555 1_555
H24 C15 1_555 1_555
H25 C16 1_555 1_555
H26 C17 1_555 1_555
H27 C18 1_555 1_555
H28 C19 1_555 1_555
H29 C15 1_555 1_555
H30 C16 1_555 1_555
H31 C17 1_555 1_555
H32 C18 1_555 1_555
H33 C19 1_555 1_555
C1 C2 1_555 1_555
C3 C4 1_555 1_555
O14 C6 1_555 1_555
O15 C7 1_555 1_555
O26 C20 1_555 1_555
O27 C21 1_555 1_555
O28 C22 1_555 1_555
O29 C23 1_555 1_555
O30 C24 1_555 1_555
C6 C11 1_555 1_555
C7 C12 1_555 1_555
C15 C20 1_555 1_555
C16 C21 1_555 1_555
C17 C22 1_555 1_555
C18 C23 1_555 1_555
C19 C24 1_555 1_555
N7 H34 1_555 1_555
N7 H35 1_555 1_555
Sm3 O5 1_555 1_555
Cu2_4 O5 1_555 1_555
Cu5_2 O8 1_555 1_555
Cu6_2 O9 1_555 1_555
O5 C5 1_555 1_555
O8 Sm3 1_555 1_555
O9 Sm3 1_555 1_555
O13 Sm3 1_555 1_555
O16 Sm3 1_555 1_555
O17 Sm3 1_555 1_555
C5 O13 1_555 1_555
C8 O8 1_555 1_555
C9 O9 1_555 1_555
H19 C10 1_555 1_555
H22 C13 1_555 1_555
H23 C14 1_555 1_555
O16 C8 1_555 1_555
O17 C9 1_555 1_555
C5 C10 1_555 1_555
C8 C13 1_555 1_555
C9 C14 1_555 1_555
O12 Cu3_2 1_555 1_555
O25 Cu3_2 1_555 1_555
N9 Cu3_2 1_555 1_555
N9 H38 1_555 1_555
N9 H39 1_555 1_555
O12_2 Cu4 1_555 1_555
O25_2 Cu4 1_555 1_555
N9_2 Cu4 1_555 1_555
N9_2 H38_2 1_555 1_555
N9_2 H39_2 1_555 1_555
O11_2 Cu6 1_555 1_555
O24_2 Cu6_2 1_555 1_555
N8_2 Cu6_2 1_555 1_555
H12_2 N8_2 1_555 1_555
N8_2 H36_2 1_555 1_555
N8_2 H37_2 1_555 1_555
O11_3 Cu5_3 1_555 1_555
O24_3 Cu5_4 1_555 1_555
N8_3 Cu5_4 1_555 1_555
N8_3 H36_3 1_555 1_555
N8_3 H37_3 1_555 1_555
N5 H38_3 1_555 1_555
N5 H39_3 1_555 1_555
Sm1_2 O11 1_555 1_555
O11 C1_2 1_555 1_555
O2_2 Sm1_2 1_555 1_555
C1_2 O2_2 1_555 1_555
H3_2 C2_2 1_555 1_555
Sm2 O10 1_555 1_555
O10 C5_2 1_555 1_555
O11_3 Sm1_2 1_555 1_555
O11_2 Sm1_2 1_555 1_555
O12 Sm2 1_555 1_555
O12_2 Sm2 1_555 1_555
O13_2 Sm2 1_555 1_555
O14_2 Sm1_2 1_555 1_555
O15_2 Sm1_2 1_555 1_555
O16_2 Sm2 1_555 1_555
O17_2 Sm2 1_555 1_555
O26_2 Sm1_2 1_555 1_555
O29_2 Sm1_2 1_555 1_555
O30_2 Sm1_2 1_555 1_555
O31 Sm2 1_555 1_555
O32 Sm2 1_555 1_555
O33 Sm2 1_555 1_555
C5_2 O13_2 1_555 1_555
C6_2 O11_3 1_555 1_555
C7_2 O11_2 1_555 1_555
C8_2 O12 1_555 1_555
C9_2 O12_2 1_555 1_555
C10_2 N7 1_555 1_555
C13_2 N9 1_555 1_555
C14_2 N9_2 1_555 1_555
C15_2 N7 1_555 1_555
C18_2 N9 1_555 1_555
C19_2 N9_2 1_555 1_555
C20_2 O23 1_555 1_555
C23_2 O25 1_555 1_555
C24_2 O25_2 1_555 1_555
H14_2 C10_2 1_555 1_555
H17_2 C13_2 1_555 1_555
H18_2 C14_2 1_555 1_555
H19_2 C10_2 1_555 1_555
H20_2 C11_2 1_555 1_555
H21_2 C12_2 1_555 1_555
H22_2 C13_2 1_555 1_555
H23_2 C14_2 1_555 1_555
H24_2 C15_2 1_555 1_555
H27_2 C18_2 1_555 1_555
H28_2 C19_2 1_555 1_555
H29_2 C15_2 1_555 1_555
H32_2 C18_2 1_555 1_555
H33_2 C19_2 1_555 1_555
C1_2 C2_2 1_555 1_555
O14_2 C6_2 1_555 1_555
O15_2 C7_2 1_555 1_555
O16_2 C8_2 1_555 1_555
O17_2 C9_2 1_555 1_555
O26_2 C20_2 1_555 1_555
O29_2 C23_2 1_555 1_555
O30_2 C24_2 1_555 1_555
C5_2 C10_2 1_555 1_555
C6_2 C11_2 1_555 1_555
C7_2 C12_2 1_555 1_555
C8_2 C13_2 1_555 1_555
C9_2 C14_2 1_555 1_555
C15_2 C20_2 1_555 1_555
C18_2 C23_2 1_555 1_555
C19_2 C24_2 1_555 1_555
N1 H36_4 1_555 1_555
N1 H37_4 1_555 1_555
O31 C4_2 1_555 1_555
C3_2 N8 1_555 1_555
C4_2 O24 1_555 1_555
H4_2 C3_2 1_555 1_555
H5_2 C3_2 1_555 1_555
C16_2 N8_3 1_555 1_555
C17_2 N8_2 1_555 1_555
C21_2 O24_3 1_555 1_555
C22_2 O24_2 1_555 1_555
H25_2 C16_2 1_555 1_555
H26_2 C17_2 1_555 1_555
H30_2 C16_2 1_555 1_555
H31_2 C17_2 1_555 1_555
C3_2 C4_2 1_555 1_555
O32 C21_2 1_555 1_555
O33 C22_2 1_555 1_555
C16_2 C21_2 1_555 1_555
C17_2 C22_2 1_555 1_555
N2 H34_2 1_555 1_555
N2 H35_2 1_555 1_555
N6 H38_4 1_555 1_555
N6 H39_4 1_555 1_555
N4 H36_5 1_555 1_555
N4 H37_5 1_555 1_555
N3 H36_6 1_555 1_555
N3 H37_6 1_555 1_555

#END
