
###############################################################################
#
# This file contains modified crystal structure data generated from the
# MOF subset of the Cambridge Structural Database (CSD) v543 
# hosted by the Cambridge Crystallographic Data Centre (CCDC).
#
# This work is licensed under the Creative Commons
# Attribution-NonCommercial-ShareAlike 4.0 International License.
# To view a copy of this license, visit
# http://creativecommons.org/licenses/by-nc-sa/4.0/
# or send a letter to
# Creative Commons, PO Box 1866, Mountain View, CA 94042, USA.
#
# CIF created using the CSD Python API on 29 September 2022
# The structure has been converted into the P1 space group
# The structure has a 3D framework
# The original CSD entry IBASOX is in the tetragonal crystal system
# The framework has been calculated to contain at least 10.0% void space
# The void calculation uses a probe of radius 1.32A, grid spacing 0.4
# H atom positions have been added when not included in the experimental data
# Generated hydrogen atom positions removed from atoms on special positions
#
###############################################################################

data_IBASOX
_chemical_formula_moiety         '(C252 H300 Cu26 O138)n'
_symmetry_cell_setting           triclinic
_symmetry_space_group_name_H-M   'P 1'
_symmetry_Int_Tables_number      1
_space_group_name_Hall           'P 1'
loop_
_symmetry_equiv_pos_site_id
_symmetry_equiv_pos_as_xyz
1 x,y,z
_cell_length_a                   18.8148(6)
_cell_length_b                   18.8148(6)
_cell_length_c                   29.2445(9)
_cell_angle_alpha                90
_cell_angle_beta                 90
_cell_angle_gamma                90
_cell_volume                     10352.5
loop_
_atom_site_label
_atom_site_type_symbol
_atom_site_fract_x
_atom_site_fract_y
_atom_site_fract_z
Cu1 Cu 0.28422(3) 0.28422(3) 0.21671(3)
Cu2 Cu 0.0000 0.0000 0.04538(5)
O1 O 0.1888(2) 0.29210(19) 0.18994(14)
O2 O 0.13102(17) 0.2342(2) 0.24590(13)
O3 O 0.0000 0.3648(2) 0.07846(17)
O4 O 0.0000 0.10238(19) 0.03811(16)
O5 O 0.3388(3) 0.3388(3) 0.1594(3)
O6 O -0.0000 -0.0000 0.1200(6)
C1 C 0.1346(3) 0.2685(3) 0.20942(19)
C2 C 0.0646(3) 0.2830(2) 0.1859(2)
C3 C 0.0000 0.2682(4) 0.2068(3)
H1 H 0.0000 0.2478 0.2358
C4 C 0.0656(3) 0.3163(3) 0.14320(17)
H2 H 0.1085 0.3282 0.1293
C5 C 0.0000 0.3317(3) 0.1215(3)
C6 C -0.0000 0.3238(3) 0.0404(2)
C7 C 0.0000 0.3597(4) 0.0000
H3 H -0.0000 0.4091 0.0000
C8 C 0.0000 0.2504(3) 0.0409(2)
H4 H 0.0000 0.2256 0.0684
C9 C -0.0000 0.2151(4) 0.0000
C10 C 0.0000 0.1349(4) 0.0000
Cu5 Cu 0.21578(3) 0.21578(3) 0.28329(3)
O29 O 0.1612(3) 0.1612(3) 0.3406(3)
O31 O 0.20790(19) 0.3112(2) 0.31006(14)
O32 O 0.29210(19) 0.1888(2) 0.18994(14)
O33 O 0.3112(2) 0.20790(19) 0.31006(14)
O36 O 0.2658(2) 0.36898(17) 0.25410(13)
O37 O 0.2342(2) 0.13102(17) 0.24590(13)
O38 O 0.36898(17) 0.2658(2) 0.25410(13)
O42 O 0.10238(19) 0.0000 0.03811(16)
C7_2 C 0.0000 0.3597(4) 1.0000
H3_2 H -0.0000 0.4091 1.0000
C9_2 C -0.0000 0.2151(4) 1.0000
C10_2 C -0.0000 0.1349(4) 1.0000
O9 O -0.0000 0.3648(2) 0.92154(17)
O10 O -0.0000 0.10238(19) 0.96189(16)
C13 C -0.0000 0.2682(4) 0.7932(3)
H5 H 0.0000 0.2478 0.7642
C15 C -0.0000 0.3317(3) 0.8785(3)
C16 C -0.0000 0.3238(3) 0.9596(2)
C17 C 0.0000 0.2504(3) 0.9591(2)
H7 H 0.0000 0.2256 0.9316
O11 O 0.1888(2) 0.29210(19) 0.81006(14)
O12 O 0.13102(17) 0.2342(2) 0.75410(13)
C18 C 0.1346(3) 0.2685(3) 0.79058(19)
C19 C 0.0646(3) 0.2830(2) 0.8141(2)
C20 C 0.0656(3) 0.3163(3) 0.85680(17)
H8 H 0.1085 0.3282 0.8707
Cu6 Cu 0.28422(3) 0.28422(3) 0.78329(3)
Cu10 Cu 0.21578(3) 0.21578(3) 0.71671(3)
Cu14 Cu 0.0000 0.0000 0.95462(5)
Cu2_2 Cu 0.0000 1.0000 0.04538(5)
O6_2 O -0.0000 1.0000 0.1200(6)
O41 O -0.0000 0.89762(19) 0.03811(16)
O42_2 O 0.10238(19) 1.0000 0.03811(16)
Cu14_2 Cu 0.0000 1.0000 0.95462(5)
Cu2_3 Cu 1.0000 0.0000 0.04538(5)
O3_2 O 1.0000 0.3648(2) 0.07846(17)
O4_2 O 1.0000 0.10238(19) 0.03811(16)
O6_3 O 1.0000 -0.0000 0.1200(6)
C3_2 C 1.0000 0.2682(4) 0.2068(3)
H1_2 H 1.0000 0.2478 0.2358
C5_2 C 1.0000 0.3317(3) 0.1215(3)
C6_2 C 1.0000 0.3238(3) 0.0404(2)
C7_3 C 1.0000 0.3597(4) 0.0000
H3_3 H 1.0000 0.4091 0.0000
C8_2 C 1.0000 0.2504(3) 0.0409(2)
H4_2 H 1.0000 0.2256 0.0684
C9_3 C 1.0000 0.2151(4) 0.0000
C10_3 C 1.0000 0.1349(4) 0.0000
O13 O 0.8112(2) 0.29210(19) 0.18994(14)
O14 O 0.86898(17) 0.2342(2) 0.24590(13)
C21 C 0.8654(3) 0.2685(3) 0.20942(19)
C22 C 0.9354(3) 0.2830(2) 0.1859(2)
C23 C 0.9344(3) 0.3163(3) 0.14320(17)
H9 H 0.8915 0.3282 0.1293
Cu3 Cu 0.71578(3) 0.28422(3) 0.21671(3)
O15 O 0.70790(19) 0.1888(2) 0.18994(14)
O16 O 0.7658(2) 0.13102(17) 0.24590(13)
O17 O 0.6352(2) 0.0000 0.07846(17)
O18 O 0.89762(19) 0.0000 0.03811(16)
O19 O 0.6612(3) 0.3388(3) 0.1594(3)
C24 C 0.7315(3) 0.1346(3) 0.20942(19)
C25 C 0.7170(2) 0.0646(3) 0.1859(2)
C26 C 0.7318(4) 0.0000 0.2068(3)
H10 H 0.7522 0.0000 0.2358
C27 C 0.6837(3) 0.0656(3) 0.14320(17)
H11 H 0.6718 0.1085 0.1293
C28 C 0.6683(3) 0.0000 0.1215(3)
C29 C 0.6762(3) 0.0000 0.0404(2)
C30 C 0.6403(4) 0.0000 0.0000
H12 H 0.5909 0.0000 0.0000
C31 C 0.7496(3) 0.0000 0.0409(2)
H13 H 0.7744 0.0000 0.0684
C32 C 0.7849(4) 0.0000 0.0000
C33 C 0.8651(4) 0.0000 0.0000
Cu12 Cu 0.78422(3) 0.21578(3) 0.28329(3)
O34 O 0.63102(17) 0.2658(2) 0.25410(13)
O39 O 0.7342(2) 0.36898(17) 0.25410(13)
C7_4 C 1.0000 0.3597(4) 1.0000
H3_4 H 1.0000 0.4091 1.0000
C9_4 C 1.0000 0.2151(4) 1.0000
C10_4 C 1.0000 0.1349(4) 1.0000
O7 O 0.8112(2) 0.29210(19) 0.81006(14)
O8 O 0.86898(17) 0.2342(2) 0.75410(13)
O9_2 O 1.0000 0.3648(2) 0.92154(17)
O10_2 O 1.0000 0.10238(19) 0.96189(16)
C11 C 0.8654(3) 0.2685(3) 0.79058(19)
C12 C 0.9354(3) 0.2830(2) 0.8141(2)
C13_2 C 1.0000 0.2682(4) 0.7932(3)
H5_2 H 1.0000 0.2478 0.7642
C14 C 0.9344(3) 0.3163(3) 0.85680(17)
H6 H 0.8915 0.3282 0.8707
C15_2 C 1.0000 0.3317(3) 0.8785(3)
C16_2 C 1.0000 0.3238(3) 0.9596(2)
C17_2 C 1.0000 0.2504(3) 0.9591(2)
H7_2 H 1.0000 0.2256 0.9316
C30_2 C 0.6403(4) 0.0000 1.0000
H12_2 H 0.5909 0.0000 1.0000
C32_2 C 0.7849(4) 0.0000 1.0000
C33_2 C 0.8651(4) 0.0000 1.0000
O22 O 0.6352(2) -0.0000 0.92154(17)
O23 O 0.89762(19) 0.0000 0.96189(16)
C36 C 0.7318(4) -0.0000 0.7932(3)
H14 H 0.7522 0.0000 0.7642
C38 C 0.6683(3) 0.0000 0.8785(3)
C39 C 0.6762(3) 0.0000 0.9596(2)
C40 C 0.7496(3) 0.0000 0.9591(2)
H16 H 0.7744 0.0000 0.9316
O24 O 0.70790(19) 0.1888(2) 0.81006(14)
O25 O 0.7658(2) 0.13102(17) 0.75410(13)
C41 C 0.7315(3) 0.1346(3) 0.79058(19)
C42 C 0.7170(2) 0.0646(3) 0.8141(2)
C43 C 0.6837(3) 0.0656(3) 0.85680(17)
H17 H 0.6718 0.1085 0.8707
Cu7 Cu 0.71578(3) 0.28422(3) 0.78329(3)
Cu11 Cu 0.78422(3) 0.21578(3) 0.71671(3)
Cu14_3 Cu 1.0000 0.0000 0.95462(5)
Cu2_4 Cu 1.0000 1.0000 0.04538(5)
O6_4 O 1.0000 1.0000 0.1200(6)
O17_2 O 0.6352(2) 1.0000 0.07846(17)
O18_2 O 0.89762(19) 1.0000 0.03811(16)
C26_2 C 0.7318(4) 1.0000 0.2068(3)
H10_2 H 0.7522 1.0000 0.2358
C28_2 C 0.6683(3) 1.0000 0.1215(3)
C29_2 C 0.6762(3) 1.0000 0.0404(2)
C30_3 C 0.6403(4) 1.0000 0.0000
H12_3 H 0.5909 1.0000 0.0000
C31_2 C 0.7496(3) 1.0000 0.0409(2)
H13_2 H 0.7744 1.0000 0.0684
C32_3 C 0.7849(4) 1.0000 0.0000
C33_3 C 0.8651(4) 1.0000 0.0000
O26 O 0.70790(19) 0.8112(2) 0.18994(14)
O27 O 0.7658(2) 0.86898(17) 0.24590(13)
C44 C 0.7315(3) 0.8654(3) 0.20942(19)
C45 C 0.7170(2) 0.9354(3) 0.1859(2)
C46 C 0.6837(3) 0.9344(3) 0.14320(17)
H18 H 0.6718 0.8915 0.1293
Cu4 Cu 0.71578(3) 0.71578(3) 0.21671(3)
O28 O 0.6612(3) 0.6612(3) 0.1594(3)
Cu13 Cu 0.78422(3) 0.78422(3) 0.28329(3)
O30 O 0.8112(2) 0.70790(19) 0.18994(14)
O35 O 0.7342(2) 0.63102(17) 0.25410(13)
O40 O 0.63102(17) 0.7342(2) 0.25410(13)
O41_2 O 1.0000 0.89762(19) 0.03811(16)
C30_4 C 0.6403(4) 1.0000 1.0000
H12_4 H 0.5909 1.0000 1.0000
C32_4 C 0.7849(4) 1.0000 1.0000
C33_4 C 0.8651(4) 1.0000 1.0000
O20 O 0.70790(19) 0.8112(2) 0.81006(14)
O21 O 0.7658(2) 0.86898(17) 0.75410(13)
O22_2 O 0.6352(2) 1.0000 0.92154(17)
O23_2 O 0.89762(19) 1.0000 0.96189(16)
C34 C 0.7315(3) 0.8654(3) 0.79058(19)
C35 C 0.7170(2) 0.9354(3) 0.8141(2)
C36_2 C 0.7318(4) 1.0000 0.7932(3)
H14_2 H 0.7522 1.0000 0.7642
C37 C 0.6837(3) 0.9344(3) 0.85680(17)
H15 H 0.6718 0.8915 0.8707
C38_2 C 0.6683(3) 1.0000 0.8785(3)
C39_2 C 0.6762(3) 1.0000 0.9596(2)
C40_2 C 0.7496(3) 1.0000 0.9591(2)
H16_2 H 0.7744 1.0000 0.9316
Cu8 Cu 0.71578(3) 0.71578(3) 0.78329(3)
Cu9 Cu 0.78422(3) 0.78422(3) 0.71671(3)
Cu14_4 Cu 1.0000 1.0000 0.95462(5)
O17_3 O 0.0000 0.6352(2) 0.07846(17)
C26_3 C 0.0000 0.7318(4) 0.2068(3)
H10_3 H 0.0000 0.7522 0.2358
C28_3 C 0.0000 0.6683(3) 0.1215(3)
C29_3 C -0.0000 0.6762(3) 0.0404(2)
C30_5 C 0.0000 0.6403(4) 0.0000
H12_5 H 0.0000 0.5909 0.0000
C31_3 C 0.0000 0.7496(3) 0.0409(2)
H13_3 H -0.0000 0.7744 0.0684
C32_5 C 0.0000 0.7849(4) 0.0000
C33_5 C -0.0000 0.8651(4) 0.0000
O26_2 O 0.1888(2) 0.70790(19) 0.18994(14)
O27_2 O 0.13102(17) 0.7658(2) 0.24590(13)
C44_2 C 0.1346(3) 0.7315(3) 0.20942(19)
C45_2 C 0.0646(3) 0.7170(2) 0.1859(2)
C46_2 C 0.0656(3) 0.6837(3) 0.14320(17)
H18_2 H 0.1085 0.6718 0.1293
Cu4_2 Cu 0.28422(3) 0.71578(3) 0.21671(3)
O28_2 O 0.3388(3) 0.6612(3) 0.1594(3)
Cu13_2 Cu 0.21578(3) 0.78422(3) 0.28329(3)
O30_2 O 0.29210(19) 0.8112(2) 0.18994(14)
O35_2 O 0.36898(17) 0.7342(2) 0.25410(13)
O40_2 O 0.2658(2) 0.63102(17) 0.25410(13)
C30_6 C -0.0000 0.6403(4) 1.0000
H12_6 H 0.0000 0.5909 1.0000
C32_6 C 0.0000 0.7849(4) 1.0000
C33_6 C 0.0000 0.8651(4) 1.0000
O20_2 O 0.1888(2) 0.70790(19) 0.81006(14)
O21_2 O 0.13102(17) 0.7658(2) 0.75410(13)
O22_3 O -0.0000 0.6352(2) 0.92154(17)
O23_3 O 0.0000 0.89762(19) 0.96189(16)
C34_2 C 0.1346(3) 0.7315(3) 0.79058(19)
C35_2 C 0.0646(3) 0.7170(2) 0.8141(2)
C36_3 C -0.0000 0.7318(4) 0.7932(3)
H14_3 H 0.0000 0.7522 0.7642
C37_2 C 0.0656(3) 0.6837(3) 0.85680(17)
H15_2 H 0.1085 0.6718 0.8707
C38_3 C 0.0000 0.6683(3) 0.8785(3)
C39_3 C -0.0000 0.6762(3) 0.9596(2)
C40_3 C -0.0000 0.7496(3) 0.9591(2)
H16_3 H 0.0000 0.7744 0.9316
Cu8_2 Cu 0.28422(3) 0.71578(3) 0.78329(3)
Cu9_2 Cu 0.21578(3) 0.78422(3) 0.71671(3)
O29_2 O 0.8388(3) 0.1612(3) 0.3406(3)
O31_2 O 0.6888(2) 0.20790(19) 0.31006(14)
O33_2 O 0.79210(19) 0.3112(2) 0.31006(14)
O16_2 O 0.86898(17) 0.7658(2) 0.24590(13)
O17_4 O 1.0000 0.6352(2) 0.07846(17)
C24_2 C 0.8654(3) 0.7315(3) 0.20942(19)
C25_2 C 0.9354(3) 0.7170(2) 0.1859(2)
C26_4 C 1.0000 0.7318(4) 0.2068(3)
H10_4 H 1.0000 0.7522 0.2358
C27_2 C 0.9344(3) 0.6837(3) 0.14320(17)
H11_2 H 0.8915 0.6718 0.1293
C28_4 C 1.0000 0.6683(3) 0.1215(3)
C29_4 C 1.0000 0.6762(3) 0.0404(2)
C30_7 C 1.0000 0.6403(4) 0.0000
H12_7 H 1.0000 0.5909 0.0000
C31_4 C 1.0000 0.7496(3) 0.0409(2)
H13_4 H 1.0000 0.7744 0.0684
C32_7 C 1.0000 0.7849(4) 0.0000
C33_7 C 1.0000 0.8651(4) 0.0000
C30_8 C 1.0000 0.6403(4) 1.0000
H12_8 H 1.0000 0.5909 1.0000
C32_8 C 1.0000 0.7849(4) 1.0000
C33_8 C 1.0000 0.8651(4) 1.0000
O22_4 O 1.0000 0.6352(2) 0.92154(17)
O23_4 O 1.0000 0.89762(19) 0.96189(16)
C36_4 C 1.0000 0.7318(4) 0.7932(3)
H14_4 H 1.0000 0.7522 0.7642
C38_4 C 1.0000 0.6683(3) 0.8785(3)
C39_4 C 1.0000 0.6762(3) 0.9596(2)
C40_4 C 1.0000 0.7496(3) 0.9591(2)
H16_4 H 1.0000 0.7744 0.9316
O24_2 O 0.8112(2) 0.70790(19) 0.81006(14)
O25_2 O 0.86898(17) 0.7658(2) 0.75410(13)
C41_2 C 0.8654(3) 0.7315(3) 0.79058(19)
C42_2 C 0.9354(3) 0.7170(2) 0.8141(2)
C43_2 C 0.9344(3) 0.6837(3) 0.85680(17)
H17_2 H 0.8915 0.6718 0.8707
O17_5 O 0.3648(2) 0.0000 0.07846(17)
C26_5 C 0.2682(4) 0.0000 0.2068(3)
H10_5 H 0.2478 0.0000 0.2358
C28_5 C 0.3317(3) 0.0000 0.1215(3)
C29_5 C 0.3238(3) -0.0000 0.0404(2)
C30_9 C 0.3597(4) 0.0000 0.0000
H12_9 H 0.4091 0.0000 0.0000
C31_5 C 0.2504(3) 0.0000 0.0409(2)
H13_5 H 0.2256 0.0000 0.0684
C32_9 C 0.2151(4) 0.0000 0.0000
C33_9 C 0.1349(4) 0.0000 0.0000
C44_3 C 0.2685(3) 0.1346(3) 0.20942(19)
C45_3 C 0.2830(2) 0.0646(3) 0.1859(2)
C46_3 C 0.3163(3) 0.0656(3) 0.14320(17)
H18_3 H 0.3282 0.1085 0.1293
C30_10 C 0.3597(4) 0.0000 1.0000
H12_10 H 0.4091 0.0000 1.0000
C32_10 C 0.2151(4) 0.0000 1.0000
C33_10 C 0.1349(4) 0.0000 1.0000
O20_3 O 0.29210(19) 0.1888(2) 0.81006(14)
O21_3 O 0.2342(2) 0.13102(17) 0.75410(13)
O22_5 O 0.3648(2) -0.0000 0.92154(17)
O23_5 O 0.10238(19) 0.0000 0.96189(16)
C34_3 C 0.2685(3) 0.1346(3) 0.79058(19)
C35_3 C 0.2830(2) 0.0646(3) 0.8141(2)
C36_5 C 0.2682(4) -0.0000 0.7932(3)
H14_5 H 0.2478 0.0000 0.7642
C37_3 C 0.3163(3) 0.0656(3) 0.85680(17)
H15_3 H 0.3282 0.1085 0.8707
C38_5 C 0.3317(3) 0.0000 0.8785(3)
C39_5 C 0.3238(3) 0.0000 0.9596(2)
C40_5 C 0.2504(3) 0.0000 0.9591(2)
H16_5 H 0.2256 0.0000 0.9316
O16_3 O 0.2342(2) 0.86898(17) 0.24590(13)
O17_6 O 0.3648(2) 1.0000 0.07846(17)
C24_3 C 0.2685(3) 0.8654(3) 0.20942(19)
C25_3 C 0.2830(2) 0.9354(3) 0.1859(2)
C26_6 C 0.2682(4) 1.0000 0.2068(3)
H10_6 H 0.2478 1.0000 0.2358
C27_3 C 0.3163(3) 0.9344(3) 0.14320(17)
H11_3 H 0.3282 0.8915 0.1293
C28_6 C 0.3317(3) 1.0000 0.1215(3)
C29_6 C 0.3238(3) 1.0000 0.0404(2)
C30_11 C 0.3597(4) 1.0000 0.0000
H12_11 H 0.4091 1.0000 0.0000
C31_6 C 0.2504(3) 1.0000 0.0409(2)
H13_6 H 0.2256 1.0000 0.0684
C32_11 C 0.2151(4) 1.0000 0.0000
C33_11 C 0.1349(4) 1.0000 0.0000
C30_12 C 0.3597(4) 1.0000 1.0000
H12_12 H 0.4091 1.0000 1.0000
C32_12 C 0.2151(4) 1.0000 1.0000
C33_12 C 0.1349(4) 1.0000 1.0000
O22_6 O 0.3648(2) 1.0000 0.92154(17)
O23_6 O 0.10238(19) 1.0000 0.96189(16)
C36_6 C 0.2682(4) 1.0000 0.7932(3)
H14_6 H 0.2478 1.0000 0.7642
C38_6 C 0.3317(3) 1.0000 0.8785(3)
C39_6 C 0.3238(3) 1.0000 0.9596(2)
C40_6 C 0.2504(3) 1.0000 0.9591(2)
H16_6 H 0.2256 1.0000 0.9316
O24_3 O 0.29210(19) 0.8112(2) 0.81006(14)
O25_3 O 0.2342(2) 0.86898(17) 0.75410(13)
C41_3 C 0.2685(3) 0.8654(3) 0.79058(19)
C42_3 C 0.2830(2) 0.9354(3) 0.8141(2)
C43_3 C 0.3163(3) 0.9344(3) 0.85680(17)
H17_3 H 0.3282 0.8915 0.8707
O29_3 O 0.8388(3) 0.8388(3) 0.3406(3)
O31_3 O 0.79210(19) 0.6888(2) 0.31006(14)
O33_3 O 0.6888(2) 0.79210(19) 0.31006(14)
O29_4 O 0.1612(3) 0.8388(3) 0.3406(3)
O31_4 O 0.3112(2) 0.79210(19) 0.31006(14)
O33_4 O 0.20790(19) 0.6888(2) 0.31006(14)
O6_5 O 0.0000 0.0000 0.8800(6)
O5_2 O 0.3388(3) 0.6612(3) 0.8406(3)
O6_6 O 0.0000 1.0000 0.8800(6)
O29_5 O 0.1612(3) 0.8388(3) 0.6594(3)
O31_5 O 0.20790(19) 0.6888(2) 0.68994(14)
O33_5 O 0.3112(2) 0.79210(19) 0.68994(14)
O36_2 O 0.2658(2) 0.63102(17) 0.74590(13)
O38_2 O 0.36898(17) 0.7342(2) 0.74590(13)
O6_7 O 1.0000 0.0000 0.8800(6)
O28_3 O 0.6612(3) 0.3388(3) 0.8406(3)
O35_3 O 0.7342(2) 0.36898(17) 0.74590(13)
O40_3 O 0.63102(17) 0.2658(2) 0.74590(13)
O6_8 O 1.0000 1.0000 0.8800(6)
O19_2 O 0.6612(3) 0.6612(3) 0.8406(3)
O34_2 O 0.63102(17) 0.7342(2) 0.74590(13)
O39_2 O 0.7342(2) 0.63102(17) 0.74590(13)
O5_3 O 0.3388(3) 0.3388(3) 0.8406(3)
O29_6 O 0.1612(3) 0.1612(3) 0.6594(3)
O31_6 O 0.3112(2) 0.20790(19) 0.68994(14)
O33_6 O 0.20790(19) 0.3112(2) 0.68994(14)
O36_3 O 0.36898(17) 0.2658(2) 0.74590(13)
O38_3 O 0.2658(2) 0.36898(17) 0.74590(13)
O29_7 O 0.8388(3) 0.1612(3) 0.6594(3)
O31_7 O 0.79210(19) 0.3112(2) 0.68994(14)
O33_7 O 0.6888(2) 0.20790(19) 0.68994(14)
O29_8 O 0.8388(3) 0.8388(3) 0.6594(3)
O31_8 O 0.6888(2) 0.79210(19) 0.68994(14)
O33_8 O 0.79210(19) 0.6888(2) 0.68994(14)
Cu2_5 Cu 0.5000 0.5000 0.54538(5)
O3_3 O 0.5000 0.8648(2) 0.57846(17)
O4_3 O 0.5000 0.60238(19) 0.53811(16)
O6_9 O 0.5000 0.5000 0.6200(6)
C1_2 C 0.6346(3) 0.7685(3) 0.70942(19)
C2_2 C 0.5646(3) 0.7830(2) 0.6859(2)
C3_3 C 0.5000 0.7682(4) 0.7068(3)
H1_3 H 0.5000 0.7478 0.7358
C4_2 C 0.5656(3) 0.8163(3) 0.64320(17)
H2_2 H 0.6085 0.8282 0.6293
C5_3 C 0.5000 0.8317(3) 0.6215(3)
C6_3 C 0.5000 0.8238(3) 0.5404(2)
C7_5 C 0.5000 0.8597(4) 0.5000
H3_5 H 0.5000 0.9091 0.5000
C8_3 C 0.5000 0.7504(3) 0.5409(2)
H4_3 H 0.5000 0.7256 0.5684
C9_5 C 0.5000 0.7151(4) 0.5000
C10_5 C 0.5000 0.6349(4) 0.5000
O9_3 O 0.5000 0.8648(2) 0.42154(17)
O10_3 O 0.5000 0.60238(19) 0.46189(16)
C11_2 C 0.3654(3) 0.7685(3) 0.29058(19)
C12_2 C 0.4354(3) 0.7830(2) 0.3141(2)
C13_3 C 0.5000 0.7682(4) 0.2932(3)
H5_3 H 0.5000 0.7478 0.2642
C14_2 C 0.4344(3) 0.8163(3) 0.35680(17)
H6_2 H 0.3915 0.8282 0.3707
C15_3 C 0.5000 0.8317(3) 0.3785(3)
C16_3 C 0.5000 0.8238(3) 0.4596(2)
C17_3 C 0.5000 0.7504(3) 0.4591(2)
H7_3 H 0.5000 0.7256 0.4316
C18_2 C 0.6346(3) 0.7685(3) 0.29058(19)
C19_2 C 0.5646(3) 0.7830(2) 0.3141(2)
C20_2 C 0.5656(3) 0.8163(3) 0.35680(17)
H8_2 H 0.6085 0.8282 0.3707
C21_2 C 0.3654(3) 0.7685(3) 0.70942(19)
C22_2 C 0.4354(3) 0.7830(2) 0.6859(2)
C23_2 C 0.4344(3) 0.8163(3) 0.64320(17)
H9_2 H 0.3915 0.8282 0.6293
O17_7 O 0.1352(2) 0.5000 0.57846(17)
O18_3 O 0.39762(19) 0.5000 0.53811(16)
C24_4 C 0.2315(3) 0.6346(3) 0.70942(19)
C25_4 C 0.2170(2) 0.5646(3) 0.6859(2)
C26_7 C 0.2318(4) 0.5000 0.7068(3)
H10_7 H 0.2522 0.5000 0.7358
C27_4 C 0.1837(3) 0.5656(3) 0.64320(17)
H11_4 H 0.1718 0.6085 0.6293
C28_7 C 0.1683(3) 0.5000 0.6215(3)
C29_7 C 0.1762(3) 0.5000 0.5404(2)
C30_13 C 0.1403(4) 0.5000 0.5000
H12_13 H 0.0909 0.5000 0.5000
C31_7 C 0.2496(3) 0.5000 0.5409(2)
H13_7 H 0.2744 0.5000 0.5684
C32_13 C 0.2849(4) 0.5000 0.5000
C33_13 C 0.3651(4) 0.5000 0.5000
O22_7 O 0.1352(2) 0.5000 0.42154(17)
O23_7 O 0.39762(19) 0.5000 0.46189(16)
C34_4 C 0.2315(3) 0.3654(3) 0.29058(19)
C35_4 C 0.2170(2) 0.4354(3) 0.3141(2)
C36_7 C 0.2318(4) 0.5000 0.2932(3)
H14_7 H 0.2522 0.5000 0.2642
C37_4 C 0.1837(3) 0.4344(3) 0.35680(17)
H15_4 H 0.1718 0.3915 0.3707
C38_7 C 0.1683(3) 0.5000 0.3785(3)
C39_7 C 0.1762(3) 0.5000 0.4596(2)
C40_7 C 0.2496(3) 0.5000 0.4591(2)
H16_7 H 0.2744 0.5000 0.4316
C41_4 C 0.2315(3) 0.6346(3) 0.29058(19)
C42_4 C 0.2170(2) 0.5646(3) 0.3141(2)
C43_4 C 0.1837(3) 0.5656(3) 0.35680(17)
H17_4 H 0.1718 0.6085 0.3707
C44_4 C 0.2315(3) 0.3654(3) 0.70942(19)
C45_4 C 0.2170(2) 0.4354(3) 0.6859(2)
C46_4 C 0.1837(3) 0.4344(3) 0.64320(17)
H18_4 H 0.1718 0.3915 0.6293
Cu14_5 Cu 0.5000 0.5000 0.45462(5)
O41_3 O 0.5000 0.39762(19) 0.53811(16)
O42_3 O 0.60238(19) 0.5000 0.53811(16)
O17_8 O 0.5000 0.1352(2) 0.57846(17)
C24_5 C 0.3654(3) 0.2315(3) 0.70942(19)
C25_5 C 0.4354(3) 0.2170(2) 0.6859(2)
C26_8 C 0.5000 0.2318(4) 0.7068(3)
H10_8 H 0.5000 0.2522 0.7358
C27_5 C 0.4344(3) 0.1837(3) 0.64320(17)
H11_5 H 0.3915 0.1718 0.6293
C28_8 C 0.5000 0.1683(3) 0.6215(3)
C29_8 C 0.5000 0.1762(3) 0.5404(2)
C30_14 C 0.5000 0.1403(4) 0.5000
H12_14 H 0.5000 0.0909 0.5000
C31_8 C 0.5000 0.2496(3) 0.5409(2)
H13_8 H 0.5000 0.2744 0.5684
C32_14 C 0.5000 0.2849(4) 0.5000
C33_14 C 0.5000 0.3651(4) 0.5000
O22_8 O 0.5000 0.1352(2) 0.42154(17)
O23_8 O 0.5000 0.39762(19) 0.46189(16)
C34_5 C 0.6346(3) 0.2315(3) 0.29058(19)
C35_5 C 0.5646(3) 0.2170(2) 0.3141(2)
C36_8 C 0.5000 0.2318(4) 0.2932(3)
H14_8 H 0.5000 0.2522 0.2642
C37_5 C 0.5656(3) 0.1837(3) 0.35680(17)
H15_5 H 0.6085 0.1718 0.3707
C38_8 C 0.5000 0.1683(3) 0.3785(3)
C39_8 C 0.5000 0.1762(3) 0.4596(2)
C40_8 C 0.5000 0.2496(3) 0.4591(2)
H16_8 H 0.5000 0.2744 0.4316
C41_5 C 0.3654(3) 0.2315(3) 0.29058(19)
C42_5 C 0.4354(3) 0.2170(2) 0.3141(2)
C43_5 C 0.4344(3) 0.1837(3) 0.35680(17)
H17_5 H 0.3915 0.1718 0.3707
C44_5 C 0.6346(3) 0.2315(3) 0.70942(19)
C45_5 C 0.5646(3) 0.2170(2) 0.6859(2)
C46_5 C 0.5656(3) 0.1837(3) 0.64320(17)
H18_5 H 0.6085 0.1718 0.6293
O17_9 O 0.8648(2) 0.5000 0.57846(17)
C24_6 C 0.7685(3) 0.3654(3) 0.70942(19)
C25_6 C 0.7830(2) 0.4354(3) 0.6859(2)
C26_9 C 0.7682(4) 0.5000 0.7068(3)
H10_9 H 0.7478 0.5000 0.7358
C27_6 C 0.8163(3) 0.4344(3) 0.64320(17)
H11_6 H 0.8282 0.3915 0.6293
C28_9 C 0.8317(3) 0.5000 0.6215(3)
C29_9 C 0.8238(3) 0.5000 0.5404(2)
C30_15 C 0.8597(4) 0.5000 0.5000
H12_15 H 0.9091 0.5000 0.5000
C31_9 C 0.7504(3) 0.5000 0.5409(2)
H13_9 H 0.7256 0.5000 0.5684
C32_15 C 0.7151(4) 0.5000 0.5000
C33_15 C 0.6349(4) 0.5000 0.5000
O22_9 O 0.8648(2) 0.5000 0.42154(17)
O23_9 O 0.60238(19) 0.5000 0.46189(16)
C34_6 C 0.7685(3) 0.6346(3) 0.29058(19)
C35_6 C 0.7830(2) 0.5646(3) 0.3141(2)
C36_9 C 0.7682(4) 0.5000 0.2932(3)
H14_9 H 0.7478 0.5000 0.2642
C37_6 C 0.8163(3) 0.5656(3) 0.35680(17)
H15_6 H 0.8282 0.6085 0.3707
C38_9 C 0.8317(3) 0.5000 0.3785(3)
C39_9 C 0.8238(3) 0.5000 0.4596(2)
C40_9 C 0.7504(3) 0.5000 0.4591(2)
H16_9 H 0.7256 0.5000 0.4316
C41_6 C 0.7685(3) 0.3654(3) 0.29058(19)
C42_6 C 0.7830(2) 0.4354(3) 0.3141(2)
C43_6 C 0.8163(3) 0.4344(3) 0.35680(17)
H17_6 H 0.8282 0.3915 0.3707
C44_6 C 0.7685(3) 0.6346(3) 0.70942(19)
C45_6 C 0.7830(2) 0.5646(3) 0.6859(2)
C46_6 C 0.8163(3) 0.5656(3) 0.64320(17)
H18_6 H 0.8282 0.6085 0.6293
O6_10 O 0.5000 0.5000 0.3800(6)
loop_
_geom_bond_atom_site_label_1
_geom_bond_atom_site_label_2
_geom_bond_site_symmetry_1
_geom_bond_site_symmetry_2
Cu1 O1 1_555 1_555
Cu2 O4 1_555 1_555
O1 C1 1_555 1_555
O2 C1 1_555 1_555
O3 C5 1_555 1_555
O4 C10 1_555 1_555
O5 Cu1 1_555 1_555
O6 Cu2 1_555 1_555
C1 C2 1_555 1_555
C2 C3 1_555 1_555
C3 H1 1_555 1_555
C4 C2 1_555 1_555
H2 C4 1_555 1_555
C5 C4 1_555 1_555
C6 O3 1_555 1_555
C7 C6 1_555 1_555
H3 C7 1_555 1_555
C8 C6 1_555 1_555
H4 C8 1_555 1_555
C9 C8 1_555 1_555
C10 C9 1_555 1_555
Cu5 Cu1 1_555 1_555
O29 Cu5 1_555 1_555
O31 Cu5 1_555 1_555
O32 Cu1 1_555 1_555
O33 Cu5 1_555 1_555
O36 Cu1 1_555 1_555
O37 Cu5 1_555 1_555
O38 Cu1 1_555 1_555
O42 Cu2 1_555 1_555
O2 Cu5 1_555 1_555
H3_2 C7_2 1_555 1_555
C10_2 C9_2 1_555 1_555
O9 C15 1_555 1_555
O10 C10_2 1_555 1_555
C13 H5 1_555 1_555
C16 C7_2 1_555 1_555
C17 C9_2 1_555 1_555
H7 C17 1_555 1_555
O11 C18 1_555 1_555
O12 C18 1_555 1_555
C18 C19 1_555 1_555
C19 C13 1_555 1_555
C20 C15 1_555 1_555
H8 C20 1_555 1_555
Cu6 O11 1_555 1_555
Cu10 O12 1_555 1_555
O9 C16 1_555 1_555
O10 Cu14 1_555 1_555
C16 C17 1_555 1_555
C19 C20 1_555 1_555
Cu6 Cu10 1_555 1_555
O6_2 Cu2_2 1_555 1_555
O41 Cu2_2 1_555 1_555
O42_2 Cu2_2 1_555 1_555
Cu2_3 O4_2 1_555 1_555
O3_2 C5_2 1_555 1_555
O4_2 C10_3 1_555 1_555
O6_3 Cu2_3 1_555 1_555
C3_2 H1_2 1_555 1_555
C6_2 O3_2 1_555 1_555
C7_3 C6_2 1_555 1_555
H3_3 C7_3 1_555 1_555
C8_2 C6_2 1_555 1_555
H4_2 C8_2 1_555 1_555
C9_3 C8_2 1_555 1_555
C10_3 C9_3 1_555 1_555
O13 C21 1_555 1_555
O14 C21 1_555 1_555
C21 C22 1_555 1_555
C22 C3_2 1_555 1_555
C23 C5_2 1_555 1_555
H9 C23 1_555 1_555
Cu3 O13 1_555 1_555
O15 Cu3 1_555 1_555
O16 C24 1_555 1_555
O17 C28 1_555 1_555
O18 Cu2_3 1_555 1_555
O19 Cu3 1_555 1_555
C24 O15 1_555 1_555
C25 C24 1_555 1_555
C26 C25 1_555 1_555
H10 C26 1_555 1_555
C27 C25 1_555 1_555
H11 C27 1_555 1_555
C28 C27 1_555 1_555
C29 O17 1_555 1_555
C30 C29 1_555 1_555
H12 C30 1_555 1_555
C31 C29 1_555 1_555
H13 C31 1_555 1_555
C32 C31 1_555 1_555
C33 O18 1_555 1_555
Cu12 O14 1_555 1_555
O34 Cu3 1_555 1_555
O39 Cu3 1_555 1_555
C22 C23 1_555 1_555
Cu3 Cu12 1_555 1_555
O16 Cu12 1_555 1_555
C32 C33 1_555 1_555
H3_4 C7_4 1_555 1_555
C10_4 C9_4 1_555 1_555
O7 C11 1_555 1_555
O8 C11 1_555 1_555
O9_2 C15_2 1_555 1_555
O10_2 C10_4 1_555 1_555
C11 C12 1_555 1_555
C12 C13_2 1_555 1_555
C13_2 H5_2 1_555 1_555
C14 C12 1_555 1_555
H6 C14 1_555 1_555
C15_2 C14 1_555 1_555
C16_2 C7_4 1_555 1_555
C17_2 C9_4 1_555 1_555
H7_2 C17_2 1_555 1_555
H12_2 C30_2 1_555 1_555
O22 C38 1_555 1_555
O23 C33_2 1_555 1_555
C36 H14 1_555 1_555
C39 C30_2 1_555 1_555
C40 C32_2 1_555 1_555
H16 C40 1_555 1_555
O24 C41 1_555 1_555
O25 C41 1_555 1_555
C41 C42 1_555 1_555
C42 C36 1_555 1_555
C43 C38 1_555 1_555
H17 C43 1_555 1_555
Cu7 O7 1_555 1_555
Cu11 O8 1_555 1_555
O9_2 C16_2 1_555 1_555
O10_2 Cu14_3 1_555 1_555
C16_2 C17_2 1_555 1_555
C32_2 C33_2 1_555 1_555
O22 C39 1_555 1_555
O23 Cu14_3 1_555 1_555
C39 C40 1_555 1_555
O24 Cu7 1_555 1_555
O25 Cu11 1_555 1_555
C42 C43 1_555 1_555
Cu7 Cu11 1_555 1_555
O6_4 Cu2_4 1_555 1_555
O17_2 C28_2 1_555 1_555
O18_2 Cu2_4 1_555 1_555
H10_2 C26_2 1_555 1_555
C29_2 O17_2 1_555 1_555
C30_3 C29_2 1_555 1_555
H12_3 C30_3 1_555 1_555
C31_2 C29_2 1_555 1_555
H13_2 C31_2 1_555 1_555
C32_3 C31_2 1_555 1_555
C33_3 O18_2 1_555 1_555
O26 C44 1_555 1_555
O27 C44 1_555 1_555
C44 C45 1_555 1_555
C45 C26_2 1_555 1_555
C46 C28_2 1_555 1_555
H18 C46 1_555 1_555
Cu4 O26 1_555 1_555
O28 Cu4 1_555 1_555
Cu13 O27 1_555 1_555
O30 Cu4 1_555 1_555
O35 Cu4 1_555 1_555
O40 Cu4 1_555 1_555
O41_2 Cu2_4 1_555 1_555
C32_3 C33_3 1_555 1_555
C45 C46 1_555 1_555
Cu4 Cu13 1_555 1_555
H12_4 C30_4 1_555 1_555
O20 C34 1_555 1_555
O21 C34 1_555 1_555
O22_2 C38_2 1_555 1_555
O23_2 C33_4 1_555 1_555
C34 C35 1_555 1_555
C35 C36_2 1_555 1_555
C36_2 H14_2 1_555 1_555
C37 C35 1_555 1_555
H15 C37 1_555 1_555
C38_2 C37 1_555 1_555
C39_2 C30_4 1_555 1_555
C40_2 C32_4 1_555 1_555
H16_2 C40_2 1_555 1_555
Cu8 O20 1_555 1_555
Cu9 O21 1_555 1_555
C32_4 C33_4 1_555 1_555
O22_2 C39_2 1_555 1_555
O23_2 Cu14_4 1_555 1_555
C39_2 C40_2 1_555 1_555
Cu8 Cu9 1_555 1_555
O17_3 C28_3 1_555 1_555
H10_3 C26_3 1_555 1_555
C29_3 O17_3 1_555 1_555
C30_5 C29_3 1_555 1_555
H12_5 C30_5 1_555 1_555
C31_3 C29_3 1_555 1_555
H13_3 C31_3 1_555 1_555
C32_5 C31_3 1_555 1_555
C33_5 O41 1_555 1_555
O26_2 C44_2 1_555 1_555
O27_2 C44_2 1_555 1_555
C44_2 C45_2 1_555 1_555
C45_2 C26_3 1_555 1_555
C46_2 C28_3 1_555 1_555
H18_2 C46_2 1_555 1_555
Cu4_2 O26_2 1_555 1_555
O28_2 Cu4_2 1_555 1_555
Cu13_2 O27_2 1_555 1_555
O30_2 Cu4_2 1_555 1_555
O35_2 Cu4_2 1_555 1_555
O40_2 Cu4_2 1_555 1_555
C32_5 C33_5 1_555 1_555
C45_2 C46_2 1_555 1_555
Cu4_2 Cu13_2 1_555 1_555
H12_6 C30_6 1_555 1_555
O20_2 C34_2 1_555 1_555
O21_2 C34_2 1_555 1_555
O22_3 C38_3 1_555 1_555
O23_3 C33_6 1_555 1_555
C34_2 C35_2 1_555 1_555
C35_2 C36_3 1_555 1_555
C36_3 H14_3 1_555 1_555
C37_2 C35_2 1_555 1_555
H15_2 C37_2 1_555 1_555
C38_3 C37_2 1_555 1_555
C39_3 C30_6 1_555 1_555
C40_3 C32_6 1_555 1_555
H16_3 C40_3 1_555 1_555
Cu8_2 O20_2 1_555 1_555
Cu9_2 O21_2 1_555 1_555
C32_6 C33_6 1_555 1_555
O22_3 C39_3 1_555 1_555
O23_3 Cu14_2 1_555 1_555
C39_3 C40_3 1_555 1_555
Cu8_2 Cu9_2 1_555 1_555
O29_2 Cu12 1_555 1_555
O31_2 Cu12 1_555 1_555
O33_2 Cu12 1_555 1_555
O16_2 C24_2 1_555 1_555
O17_4 C28_4 1_555 1_555
C24_2 O30 1_555 1_555
C25_2 C24_2 1_555 1_555
C26_4 C25_2 1_555 1_555
H10_4 C26_4 1_555 1_555
C27_2 C25_2 1_555 1_555
H11_2 C27_2 1_555 1_555
C28_4 C27_2 1_555 1_555
C29_4 O17_4 1_555 1_555
C30_7 C29_4 1_555 1_555
H12_7 C30_7 1_555 1_555
C31_4 C29_4 1_555 1_555
H13_4 C31_4 1_555 1_555
C32_7 C31_4 1_555 1_555
C33_7 O41_2 1_555 1_555
O16_2 Cu13 1_555 1_555
C32_7 C33_7 1_555 1_555
H12_8 C30_8 1_555 1_555
O22_4 C38_4 1_555 1_555
O23_4 C33_8 1_555 1_555
C36_4 H14_4 1_555 1_555
C39_4 C30_8 1_555 1_555
C40_4 C32_8 1_555 1_555
H16_4 C40_4 1_555 1_555
O24_2 C41_2 1_555 1_555
O25_2 C41_2 1_555 1_555
C41_2 C42_2 1_555 1_555
C42_2 C36_4 1_555 1_555
C43_2 C38_4 1_555 1_555
H17_2 C43_2 1_555 1_555
C32_8 C33_8 1_555 1_555
O22_4 C39_4 1_555 1_555
O23_4 Cu14_4 1_555 1_555
C39_4 C40_4 1_555 1_555
O24_2 Cu8 1_555 1_555
O25_2 Cu9 1_555 1_555
C42_2 C43_2 1_555 1_555
O17_5 C28_5 1_555 1_555
H10_5 C26_5 1_555 1_555
C29_5 O17_5 1_555 1_555
C30_9 C29_5 1_555 1_555
H12_9 C30_9 1_555 1_555
C31_5 C29_5 1_555 1_555
H13_5 C31_5 1_555 1_555
C32_9 C31_5 1_555 1_555
C33_9 O42 1_555 1_555
O32 C44_3 1_555 1_555
O37 C44_3 1_555 1_555
C44_3 C45_3 1_555 1_555
C45_3 C26_5 1_555 1_555
C46_3 C28_5 1_555 1_555
H18_3 C46_3 1_555 1_555
C32_9 C33_9 1_555 1_555
C45_3 C46_3 1_555 1_555
H12_10 C30_10 1_555 1_555
O20_3 C34_3 1_555 1_555
O21_3 C34_3 1_555 1_555
O22_5 C38_5 1_555 1_555
O23_5 C33_10 1_555 1_555
C34_3 C35_3 1_555 1_555
C35_3 C36_5 1_555 1_555
C36_5 H14_5 1_555 1_555
C37_3 C35_3 1_555 1_555
H15_3 C37_3 1_555 1_555
C38_5 C37_3 1_555 1_555
C39_5 C30_10 1_555 1_555
C40_5 C32_10 1_555 1_555
H16_5 C40_5 1_555 1_555
Cu6 O20_3 1_555 1_555
Cu10 O21_3 1_555 1_555
C32_10 C33_10 1_555 1_555
O22_5 C39_5 1_555 1_555
O23_5 Cu14 1_555 1_555
C39_5 C40_5 1_555 1_555
O16_3 C24_3 1_555 1_555
O17_6 C28_6 1_555 1_555
C24_3 O30_2 1_555 1_555
C25_3 C24_3 1_555 1_555
C26_6 C25_3 1_555 1_555
H10_6 C26_6 1_555 1_555
C27_3 C25_3 1_555 1_555
H11_3 C27_3 1_555 1_555
C28_6 C27_3 1_555 1_555
C29_6 O17_6 1_555 1_555
C30_11 C29_6 1_555 1_555
H12_11 C30_11 1_555 1_555
C31_6 C29_6 1_555 1_555
H13_6 C31_6 1_555 1_555
C32_11 C31_6 1_555 1_555
C33_11 O42_2 1_555 1_555
O16_3 Cu13_2 1_555 1_555
C32_11 C33_11 1_555 1_555
H12_12 C30_12 1_555 1_555
O22_6 C38_6 1_555 1_555
O23_6 C33_12 1_555 1_555
C36_6 H14_6 1_555 1_555
C39_6 C30_12 1_555 1_555
C40_6 C32_12 1_555 1_555
H16_6 C40_6 1_555 1_555
O24_3 C41_3 1_555 1_555
O25_3 C41_3 1_555 1_555
C41_3 C42_3 1_555 1_555
C42_3 C36_6 1_555 1_555
C43_3 C38_6 1_555 1_555
H17_3 C43_3 1_555 1_555
C32_12 C33_12 1_555 1_555
O22_6 C39_6 1_555 1_555
O23_6 Cu14_2 1_555 1_555
C39_6 C40_6 1_555 1_555
O24_3 Cu8_2 1_555 1_555
O25_3 Cu9_2 1_555 1_555
C42_3 C43_3 1_555 1_555
O29_3 Cu13 1_555 1_555
O31_3 Cu13 1_555 1_555
O33_3 Cu13 1_555 1_555
O29_4 Cu13_2 1_555 1_555
O31_4 Cu13_2 1_555 1_555
O33_4 Cu13_2 1_555 1_555
O6_5 Cu14 1_555 1_555
O5_2 Cu8_2 1_555 1_555
O6_6 Cu14_2 1_555 1_555
O29_5 Cu9_2 1_555 1_555
O31_5 Cu9_2 1_555 1_555
O33_5 Cu9_2 1_555 1_555
O36_2 Cu8_2 1_555 1_555
O38_2 Cu8_2 1_555 1_555
O6_7 Cu14_3 1_555 1_555
O28_3 Cu7 1_555 1_555
O35_3 Cu7 1_555 1_555
O40_3 Cu7 1_555 1_555
O6_8 Cu14_4 1_555 1_555
O19_2 Cu8 1_555 1_555
O34_2 Cu8 1_555 1_555
O39_2 Cu8 1_555 1_555
O5_3 Cu6 1_555 1_555
O29_6 Cu10 1_555 1_555
O31_6 Cu10 1_555 1_555
O33_6 Cu10 1_555 1_555
O36_3 Cu6 1_555 1_555
O38_3 Cu6 1_555 1_555
O29_7 Cu11 1_555 1_555
O31_7 Cu11 1_555 1_555
O33_7 Cu11 1_555 1_555
O29_8 Cu9 1_555 1_555
O31_8 Cu9 1_555 1_555
O33_8 Cu9 1_555 1_555
Cu2_5 O4_3 1_555 1_555
O31_8 C1_2 1_555 1_555
O34_2 C1_2 1_555 1_555
O3_3 C5_3 1_555 1_555
O4_3 C10_5 1_555 1_555
O6_9 Cu2_5 1_555 1_555
C1_2 C2_2 1_555 1_555
C2_2 C3_3 1_555 1_555
C3_3 H1_3 1_555 1_555
C4_2 C2_2 1_555 1_555
H2_2 C4_2 1_555 1_555
C5_3 C4_2 1_555 1_555
C6_3 O3_3 1_555 1_555
C7_5 C6_3 1_555 1_555
H3_5 C7_5 1_555 1_555
C8_3 C6_3 1_555 1_555
H4_3 C8_3 1_555 1_555
C9_5 C8_3 1_555 1_555
C10_5 C9_5 1_555 1_555
O31_4 C11_2 1_555 1_555
O35_2 C11_2 1_555 1_555
O9_3 C15_3 1_555 1_555
O10_3 C10_5 1_555 1_555
C11_2 C12_2 1_555 1_555
C12_2 C13_3 1_555 1_555
C13_3 H5_3 1_555 1_555
C14_2 C12_2 1_555 1_555
H6_2 C14_2 1_555 1_555
C15_3 C14_2 1_555 1_555
C16_3 C7_5 1_555 1_555
C17_3 C9_5 1_555 1_555
H7_3 C17_3 1_555 1_555
O33_3 C18_2 1_555 1_555
O40 C18_2 1_555 1_555
C18_2 C19_2 1_555 1_555
C19_2 C13_3 1_555 1_555
C20_2 C15_3 1_555 1_555
H8_2 C20_2 1_555 1_555
O33_5 C21_2 1_555 1_555
O38_2 C21_2 1_555 1_555
C21_2 C22_2 1_555 1_555
C22_2 C3_3 1_555 1_555
C23_2 C5_3 1_555 1_555
H9_2 C23_2 1_555 1_555
O36_2 C24_4 1_555 1_555
O17_7 C28_7 1_555 1_555
O18_3 Cu2_5 1_555 1_555
C24_4 O31_5 1_555 1_555
C25_4 C24_4 1_555 1_555
C26_7 C25_4 1_555 1_555
H10_7 C26_7 1_555 1_555
C27_4 C25_4 1_555 1_555
H11_4 C27_4 1_555 1_555
C28_7 C27_4 1_555 1_555
C29_7 O17_7 1_555 1_555
C30_13 C29_7 1_555 1_555
H12_13 C30_13 1_555 1_555
C31_7 C29_7 1_555 1_555
H13_7 C31_7 1_555 1_555
C32_13 C31_7 1_555 1_555
C33_13 O18_3 1_555 1_555
O31 C34_4 1_555 1_555
O36 C34_4 1_555 1_555
O22_7 C38_7 1_555 1_555
O23_7 C33_13 1_555 1_555
C34_4 C35_4 1_555 1_555
C35_4 C36_7 1_555 1_555
C36_7 H14_7 1_555 1_555
C37_4 C35_4 1_555 1_555
H15_4 C37_4 1_555 1_555
C38_7 C37_4 1_555 1_555
C39_7 C30_13 1_555 1_555
C40_7 C32_13 1_555 1_555
H16_7 C40_7 1_555 1_555
O33_4 C41_4 1_555 1_555
O40_2 C41_4 1_555 1_555
C41_4 C42_4 1_555 1_555
C42_4 C36_7 1_555 1_555
C43_4 C38_7 1_555 1_555
H17_4 C43_4 1_555 1_555
O33_6 C44_4 1_555 1_555
O38_3 C44_4 1_555 1_555
C44_4 C45_4 1_555 1_555
C45_4 C26_7 1_555 1_555
C46_4 C28_7 1_555 1_555
H18_4 C46_4 1_555 1_555
Cu14_5 Cu2_5 1_555 1_555
O41_3 Cu2_5 1_555 1_555
O42_3 Cu2_5 1_555 1_555
O9_3 C16_3 1_555 1_555
O10_3 Cu14_5 1_555 1_555
C16_3 C17_3 1_555 1_555
C19_2 C20_2 1_555 1_555
C22_2 C23_2 1_555 1_555
C32_13 C33_13 1_555 1_555
O22_7 C39_7 1_555 1_555
O23_7 Cu14_5 1_555 1_555
C39_7 C40_7 1_555 1_555
C42_4 C43_4 1_555 1_555
C45_4 C46_4 1_555 1_555
O36_3 C24_5 1_555 1_555
O17_8 C28_8 1_555 1_555
C24_5 O31_6 1_555 1_555
C25_5 C24_5 1_555 1_555
C26_8 C25_5 1_555 1_555
H10_8 C26_8 1_555 1_555
C27_5 C25_5 1_555 1_555
H11_5 C27_5 1_555 1_555
C28_8 C27_5 1_555 1_555
C29_8 O17_8 1_555 1_555
C30_14 C29_8 1_555 1_555
H12_14 C30_14 1_555 1_555
C31_8 C29_8 1_555 1_555
H13_8 C31_8 1_555 1_555
C32_14 C31_8 1_555 1_555
C33_14 O41_3 1_555 1_555
O31_2 C34_5 1_555 1_555
O34 C34_5 1_555 1_555
O22_8 C38_8 1_555 1_555
O23_8 C33_14 1_555 1_555
C34_5 C35_5 1_555 1_555
C35_5 C36_8 1_555 1_555
C36_8 H14_8 1_555 1_555
C37_5 C35_5 1_555 1_555
H15_5 C37_5 1_555 1_555
C38_8 C37_5 1_555 1_555
C39_8 C30_14 1_555 1_555
C40_8 C32_14 1_555 1_555
H16_8 C40_8 1_555 1_555
O33 C41_5 1_555 1_555
O38 C41_5 1_555 1_555
C41_5 C42_5 1_555 1_555
C42_5 C36_8 1_555 1_555
C43_5 C38_8 1_555 1_555
H17_5 C43_5 1_555 1_555
O33_7 C44_5 1_555 1_555
O40_3 C44_5 1_555 1_555
C44_5 C45_5 1_555 1_555
C45_5 C26_8 1_555 1_555
C46_5 C28_8 1_555 1_555
H18_5 C46_5 1_555 1_555
C32_14 C33_14 1_555 1_555
O22_8 C39_8 1_555 1_555
O23_8 Cu14_5 1_555 1_555
C39_8 C40_8 1_555 1_555
C42_5 C43_5 1_555 1_555
C45_5 C46_5 1_555 1_555
O35_3 C24_6 1_555 1_555
O17_9 C28_9 1_555 1_555
C24_6 O31_7 1_555 1_555
C25_6 C24_6 1_555 1_555
C26_9 C25_6 1_555 1_555
H10_9 C26_9 1_555 1_555
C27_6 C25_6 1_555 1_555
H11_6 C27_6 1_555 1_555
C28_9 C27_6 1_555 1_555
C29_9 O17_9 1_555 1_555
C30_15 C29_9 1_555 1_555
H12_15 C30_15 1_555 1_555
C31_9 C29_9 1_555 1_555
H13_9 C31_9 1_555 1_555
C32_15 C31_9 1_555 1_555
C33_15 O42_3 1_555 1_555
O31_3 C34_6 1_555 1_555
O35 C34_6 1_555 1_555
O22_9 C38_9 1_555 1_555
O23_9 C33_15 1_555 1_555
C34_6 C35_6 1_555 1_555
C35_6 C36_9 1_555 1_555
C36_9 H14_9 1_555 1_555
C37_6 C35_6 1_555 1_555
H15_6 C37_6 1_555 1_555
C38_9 C37_6 1_555 1_555
C39_9 C30_15 1_555 1_555
C40_9 C32_15 1_555 1_555
H16_9 C40_9 1_555 1_555
O33_2 C41_6 1_555 1_555
O39 C41_6 1_555 1_555
C41_6 C42_6 1_555 1_555
C42_6 C36_9 1_555 1_555
C43_6 C38_9 1_555 1_555
H17_6 C43_6 1_555 1_555
O33_8 C44_6 1_555 1_555
O39_2 C44_6 1_555 1_555
C44_6 C45_6 1_555 1_555
C45_6 C26_9 1_555 1_555
C46_6 C28_9 1_555 1_555
H18_6 C46_6 1_555 1_555
C32_15 C33_15 1_555 1_555
O22_9 C39_9 1_555 1_555
O23_9 Cu14_5 1_555 1_555
C39_9 C40_9 1_555 1_555
C42_6 C43_6 1_555 1_555
C45_6 C46_6 1_555 1_555
O6_10 Cu14_5 1_555 1_555

#END
