
###############################################################################
#
# This file contains modified crystal structure data generated from the
# MOF subset of the Cambridge Structural Database (CSD) v543 
# hosted by the Cambridge Crystallographic Data Centre (CCDC).
#
# This work is licensed under the Creative Commons
# Attribution-NonCommercial-ShareAlike 4.0 International License.
# To view a copy of this license, visit
# http://creativecommons.org/licenses/by-nc-sa/4.0/
# or send a letter to
# Creative Commons, PO Box 1866, Mountain View, CA 94042, USA.
#
# CIF created using the CSD Python API on 29 September 2022
# The structure has been converted into the P1 space group
# The structure has a 3D framework
# The original CSD entry IBATEM is in the trigonal crystal system
# The framework has been calculated to contain at least 10.0% void space
# The void calculation uses a probe of radius 1.32A, grid spacing 0.4
# H atom positions have been added when not included in the experimental data
#
###############################################################################

data_IBATEM
_chemical_formula_moiety         '(C48 H84 Cu4 Gd4 N12 O48)n'
_symmetry_cell_setting           triclinic
_symmetry_space_group_name_H-M   'P 1'
_symmetry_Int_Tables_number      1
_space_group_name_Hall           'P 1'
loop_
_symmetry_equiv_pos_site_id
_symmetry_equiv_pos_as_xyz
1 x,y,z
_cell_length_a                   13.4147(10)
_cell_length_b                   13.4147(10)
_cell_length_c                   14.4622(12)
_cell_angle_alpha                90
_cell_angle_beta                 90
_cell_angle_gamma                120
_cell_volume                     2253.86
loop_
_atom_site_label
_atom_site_type_symbol
_atom_site_fract_x
_atom_site_fract_y
_atom_site_fract_z
Cu2 Cu 0.0000 0.5000 0.0000
Cu3 Cu 0.0000 0.5000 0.5000
O11 O 0.1879(3) 0.6381(2) 0.0574(2)
O12 O 0.1879(3) 0.5498(2) 0.5574(2)
O25 O 0.0732(3) 0.5976(2) 0.3920(2)
N9 N 0.0424(4) 0.3903(3) 0.4411(2)
H26 H 0.0231 0.3504 0.0788
H27 H 0.0231 0.6727 0.5788
H38 H 0.0825697 0.366311 0.488143
H39 H 0.0957048 0.429145 0.386655
Cu2_2 Cu 0.0000 0.5000 1.0000
O24 O 0.0732(3) 0.4756(2) 0.8920(2)
N8 N 0.0424(4) 0.6521(3) 0.9411(2)
H36 H 0.0957048 0.66656 0.886655
H37 H 0.0825697 0.716259 0.988143
Gd1 Gd 0.6667 0.3333 0.332699(19)
Cu1 Cu 0.5000 0.5000 0.5000
O1 O 0.5498(2) 0.3619(2) 0.4426(2)
O2 O 0.4421(3) 0.1961(2) 0.3735(2)
O3 O 0.5976(2) 0.5244(2) 0.6080(2)
O4 O 0.6182(3) 0.4350(3) 0.7283(2)
N1 N 0.3903(3) 0.3479(3) 0.5589(2)
C1 C 0.4544(3) 0.2701(3) 0.4320(2)
C2 C 0.3530(3) 0.2545(3) 0.4892(2)
C3 C 0.4480(4) 0.3318(4) 0.6398(2)
C4 C 0.5622(3) 0.4375(3) 0.6603(2)
H1 H 0.2955 0.2551 0.4490
H2 H 0.3183 0.1806 0.5204
H3 H 0.4600 0.2673 0.6284
H4 H 0.3984 0.3133 0.6934
H5 H 0.3273 0.3504 0.5788
Gd3 Gd 0.6666 0.3333 0.832699(19)
Cu2_3 Cu 1.0000 0.5000 0.0000
Cu3_2 Cu 1.0000 0.5000 0.5000
Cu4 Cu 0.5000 0.0000 0.5000
Cu5 Cu 0.5000 0.0000 0.0000
Cu6 Cu 0.5000 0.5000 0.0000
O6 O 0.8121(3) 0.4502(2) 0.4426(2)
O7 O 0.6381(2) 0.1879(3) 0.4426(2)
O10 O 0.4502(2) 0.6381(2) 0.5574(2)
O14 O 0.7540(4) 0.5579(3) 0.3735(2)
O15 O 0.8039(2) 0.2460(4) 0.3735(2)
O18 O 0.9268(3) 0.5244(2) 0.1080(2)
O19 O 0.9268(3) 0.4024(2) 0.6080(2)
O20 O 0.4756(2) 0.0732(3) 0.6080(2)
O21 O 0.5976(2) 0.0732(3) 0.1080(2)
O22 O 0.4756(2) 0.4024(2) 0.1080(2)
O23 O 0.4024(2) 0.4756(2) 0.3920(2)
O26 O 0.8168(4) 0.4350(3) 0.2283(2)
O27 O 0.8168(4) 0.3818(3) 0.7283(2)
O28 O 0.5650(3) 0.1832(4) 0.7283(2)
O29 O 0.6182(3) 0.1832(4) 0.2283(2)
O30 O 0.5650(3) 0.3818(3) 0.2283(2)
N2 N 0.9576(4) 0.3479(3) 0.0589(2)
N3 N 0.9576(4) 0.6097(3) 0.5589(2)
N4 N 0.6521(3) 0.0424(4) 0.5589(2)
N5 N 0.3903(3) 0.0424(4) 0.0589(2)
N6 N 0.6521(3) 0.6097(3) 0.0589(2)
N7 N 0.6097(3) 0.6521(3) 0.4411(2)
C6 C 0.8157(4) 0.5456(3) 0.4320(2)
C7 C 0.7299(3) 0.1843(4) 0.4320(2)
C11 C 0.9015(4) 0.6470(3) 0.4892(2)
C12 C 0.7455(3) 0.0985(4) 0.4892(2)
C15 C 0.8838(6) 0.3318(4) 0.1398(2)
C16 C 0.8838(6) 0.5520(4) 0.6398(2)
C17 C 0.6682(4) 0.1162(6) 0.6398(2)
C18 C 0.4480(4) 0.1162(6) 0.1398(2)
C19 C 0.6682(4) 0.5520(4) 0.1398(2)
C20 C 0.8753(4) 0.4375(3) 0.1603(2)
C21 C 0.8753(4) 0.4378(3) 0.6603(2)
C22 C 0.5625(3) 0.1247(4) 0.6603(2)
C23 C 0.5622(3) 0.1247(4) 0.1603(2)
C24 C 0.5625(3) 0.4378(3) 0.1603(2)
H7 H 0.9596 0.7045 0.4490
H8 H 0.7449 0.0404 0.4490
H11 H 0.8623 0.1806 0.0204
H12 H 0.8623 0.6817 0.5204
H13 H 0.8194 0.1377 0.5204
H14 H 0.3183 0.1377 0.0204
H15 H 0.8194 0.6817 0.0204
H16 H 0.8073 0.2673 0.1284
H17 H 0.8073 0.5400 0.6284
H18 H 0.7327 0.1927 0.6284
H19 H 0.4600 0.1927 0.1284
H20 H 0.7327 0.5400 0.1284
H21 H 0.9149 0.3133 0.1934
H22 H 0.9149 0.6016 0.6934
H23 H 0.6867 0.0851 0.6934
H24 H 0.3984 0.0851 0.1934
H25 H 0.6867 0.6016 0.1934
H30 H 0.6496 0.6727 0.0788
H31 H 0.6727 0.6496 0.4212
H33 H 0.9769 0.3273 0.4212
H34 H 0.633689 0.716259 0.488143
H35 H 0.570855 0.66656 0.386655
Cu2_4 Cu 1.0000 0.5000 1.0000
Cu5_2 Cu 0.5000 0.0000 1.0000
Cu6_2 Cu 0.5000 0.5000 1.0000
O5 O 0.8121(3) 0.3619(2) 0.9426(2)
O8 O 0.5498(2) 0.1879(3) 0.9426(2)
O9 O 0.6381(2) 0.4502(2) 0.9426(2)
O13 O 0.7540(4) 0.1961(2) 0.8735(2)
O16 O 0.4421(3) 0.2460(4) 0.8735(2)
O17 O 0.8039(2) 0.5579(3) 0.8735(2)
C5 C 0.8157(4) 0.2701(3) 0.9320(2)
C8 C 0.4544(3) 0.1843(4) 0.9320(2)
C9 C 0.7299(3) 0.5456(3) 0.9320(2)
C10 C 0.9015(4) 0.2545(3) 0.9892(2)
C13 C 0.3530(3) 0.0985(4) 0.9892(2)
C14 C 0.7455(3) 0.6470(3) 0.9892(2)
H6 H 0.9596 0.2551 0.9490
H9 H 0.2955 0.0404 0.9490
H10 H 0.7449 0.7045 0.9490
H32 H 0.9769 0.6496 0.9212
Cu4_2 Cu 0.5000 1.0000 0.5000
Cu5_3 Cu 0.5000 1.0000 0.0000
H28 H 0.6496 0.9769 0.5788
H29 H 0.3273 0.9769 0.0788
Cu5_4 Cu 0.5000 1.0000 1.0000
O11_2 O 0.3619(2) 0.5498(4) 0.0574(2)
H31_2 H 0.3504 0.0231 0.4212
O24_2 O 0.5244(2) 0.5976(4) 0.8920(2)
N8_2 N 0.3479(3) 0.3903(5) 0.9411(2)
H32_2 H 0.3504 0.3273 0.9212
H36_2 H 0.33344 0.429145 0.886655
H37_2 H 0.283741 0.366311 0.988143
O10_2 O 0.3619(2) 0.8121(3) 0.5574(2)
O23_2 O 0.5244(2) 0.9268(3) 0.3920(2)
N7_2 N 0.3479(3) 0.9576(4) 0.4411(2)
H34_2 H 0.283741 0.91743 0.488143
H35_2 H 0.33344 0.904295 0.386655
H32_3 H 0.6727 0.0231 0.9212
O11_3 O 0.4502(4) 0.8121(3) 0.0574(2)
O24_3 O 0.4024(4) 0.9268(3) 0.8920(2)
N8_3 N 0.6097(5) 0.9576(4) 0.9411(2)
H36_3 H 0.570855 0.904295 0.886655
H37_3 H 0.633689 0.91743 0.988143
Gd1_2 Gd 0.3334 0.6667 0.167301(19)
O2_2 O 0.2460(4) 0.8039(2) 0.1265(2)
C1_2 C 0.1843(4) 0.7299(3) 0.0680(2)
C2_2 C 0.0985(4) 0.7455(3) 0.0108(2)
H1_2 H 0.0404 0.7449 0.0510
Gd2 Gd 0.3333 0.6667 0.667301(19)
O13_2 O 0.5579(4) 0.8039(2) 0.6265(2)
O14_2 O 0.1961(5) 0.4421(3) 0.1265(2)
O15_2 O 0.5579(4) 0.7540(4) 0.1265(2)
O16_2 O 0.1961(5) 0.7540(4) 0.6265(2)
O17_2 O 0.2460(4) 0.4421(3) 0.6265(2)
O26_2 O 0.3818(5) 0.5650(3) 0.2717(2)
O29_2 O 0.4350(5) 0.8168(4) 0.2717(2)
O30_2 O 0.1832(4) 0.6182(3) 0.2717(2)
O31 O 0.1832(4) 0.5650(3) 0.7717(2)
O32 O 0.3818(5) 0.8168(4) 0.7717(2)
O33 O 0.4350(5) 0.6182(3) 0.7717(2)
C5_2 C 0.5456(5) 0.7299(3) 0.5680(2)
C6_2 C 0.2701(5) 0.4544(3) 0.0680(2)
C7_2 C 0.5456(5) 0.8157(4) 0.0680(2)
C8_2 C 0.2701(5) 0.8157(4) 0.5680(2)
C9_2 C 0.1843(4) 0.4544(3) 0.5680(2)
C10_2 C 0.6470(5) 0.7455(3) 0.5108(2)
C11_2 C 0.2545(5) 0.3530(3) 0.0108(2)
C12_2 C 0.6470(5) 0.9015(4) 0.0108(2)
C13_2 C 0.2545(5) 0.9015(4) 0.5108(2)
C14_2 C 0.0985(4) 0.3530(3) 0.5108(2)
C15_2 C 0.5520(7) 0.6682(4) 0.3602(2)
C18_2 C 0.3318(7) 0.8838(6) 0.3602(2)
C19_2 C 0.1162(6) 0.4480(4) 0.3602(2)
C20_2 C 0.4378(5) 0.5625(3) 0.3397(2)
C23_2 C 0.4375(5) 0.8753(4) 0.3397(2)
C24_2 C 0.1247(4) 0.5622(3) 0.3397(2)
H6_2 H 0.7045 0.7449 0.5510
H7_2 H 0.2551 0.2955 0.0510
H8_2 H 0.7045 0.9596 0.0510
H9_2 H 0.2551 0.9596 0.5510
H10_2 H 0.0404 0.2955 0.5510
H11_2 H 0.6817 0.8194 0.4796
H14_2 H 0.1806 0.8623 0.4796
H15_2 H 0.1377 0.3183 0.4796
H16_2 H 0.5400 0.7327 0.3716
H19_2 H 0.2673 0.8073 0.3716
H20_2 H 0.1927 0.4600 0.3716
H21_2 H 0.6016 0.6867 0.3066
H24_2 H 0.3133 0.9149 0.3066
H25_2 H 0.0851 0.3984 0.3066
H36_4 H 0.429145 0.33344 0.613345
H37_4 H 0.366311 0.283741 0.511857
H38_2 H 0.716259 0.633689 0.0118568
H39_2 H 0.66656 0.570855 0.113345
C3_2 C 0.1162(6) 0.6682(4) 0.8602(2)
C4_2 C 0.1247(4) 0.5625(3) 0.8397(2)
H2_2 H 0.1377 0.8194 0.9796
H3_2 H 0.1927 0.7327 0.8716
H4_2 H 0.0851 0.6867 0.8066
C16_2 C 0.3318(7) 0.4480(4) 0.8602(2)
C17_2 C 0.5520(7) 0.8838(6) 0.8602(2)
C21_2 C 0.4375(5) 0.5622(3) 0.8397(2)
C22_2 C 0.4378(5) 0.8753(4) 0.8397(2)
H12_2 H 0.1806 0.3183 0.9796
H13_2 H 0.6817 0.8623 0.9796
H17_2 H 0.2673 0.4600 0.8716
H18_2 H 0.5400 0.8073 0.8716
H22_2 H 0.3133 0.3984 0.8066
H23_2 H 0.6016 0.9149 0.8066
H34_3 H 0.91743 0.283741 0.0118568
H35_3 H 0.904295 0.33344 0.113345
H34_4 H 0.366311 0.0825697 0.0118568
H35_4 H 0.429145 0.0957048 0.113345
H36_5 H 0.904295 0.570855 0.613345
H37_5 H 0.91743 0.633689 0.511857
H36_6 H 0.66656 0.0957048 0.613345
H37_6 H 0.716259 0.0825697 0.511857
loop_
_geom_bond_atom_site_label_1
_geom_bond_atom_site_label_2
_geom_bond_site_symmetry_1
_geom_bond_site_symmetry_2
O11 Cu2 1_555 1_555
O12 Cu3 1_555 1_555
O25 Cu3 1_555 1_555
N9 Cu3 1_555 1_555
N9 H38 1_555 1_555
N9 H39 1_555 1_555
O24 Cu2_2 1_555 1_555
N8 Cu2_2 1_555 1_555
N8 H36 1_555 1_555
N8 H37 1_555 1_555
Gd1 O1 1_555 1_555
Cu1 O1 1_555 1_555
O1 C1 1_555 1_555
O2 Gd1 1_555 1_555
O3 Cu1 1_555 1_555
O4 C4 1_555 1_555
N1 Cu1 1_555 1_555
C1 O2 1_555 1_555
C2 N1 1_555 1_555
C3 N1 1_555 1_555
C4 O3 1_555 1_555
H1 C2 1_555 1_555
H2 C2 1_555 1_555
H3 C3 1_555 1_555
H4 C3 1_555 1_555
H5 N1 1_555 1_555
Gd3 O4 1_555 1_555
Cu3_2 O6 1_555 1_555
Cu4 O7 1_555 1_555
O6 Gd1 1_555 1_555
O7 Gd1 1_555 1_555
O10 Cu1 1_555 1_555
O14 Gd1 1_555 1_555
O15 Gd1 1_555 1_555
O18 Cu2_3 1_555 1_555
O19 Cu3_2 1_555 1_555
O20 Cu4 1_555 1_555
O21 Cu5 1_555 1_555
O22 Cu6 1_555 1_555
O23 Cu1 1_555 1_555
O26 Gd1 1_555 1_555
O27 Gd3 1_555 1_555
O28 Gd3 1_555 1_555
O29 Gd1 1_555 1_555
O30 Gd1 1_555 1_555
N2 Cu2_3 1_555 1_555
N3 Cu3_2 1_555 1_555
N4 Cu4 1_555 1_555
N5 Cu5 1_555 1_555
N6 Cu6 1_555 1_555
N7 Cu1 1_555 1_555
C6 O6 1_555 1_555
C7 O7 1_555 1_555
C11 N3 1_555 1_555
C12 N4 1_555 1_555
C15 N2 1_555 1_555
C16 N3 1_555 1_555
C17 N4 1_555 1_555
C18 N5 1_555 1_555
C19 N6 1_555 1_555
C20 O18 1_555 1_555
C21 O19 1_555 1_555
C22 O20 1_555 1_555
C23 O21 1_555 1_555
C24 O22 1_555 1_555
H7 C11 1_555 1_555
H8 C12 1_555 1_555
H12 C11 1_555 1_555
H13 C12 1_555 1_555
H16 C15 1_555 1_555
H17 C16 1_555 1_555
H18 C17 1_555 1_555
H19 C18 1_555 1_555
H20 C19 1_555 1_555
H21 C15 1_555 1_555
H22 C16 1_555 1_555
H23 C17 1_555 1_555
H24 C18 1_555 1_555
H25 C19 1_555 1_555
H30 N6 1_555 1_555
H31 N7 1_555 1_555
C1 C2 1_555 1_555
C3 C4 1_555 1_555
O14 C6 1_555 1_555
O15 C7 1_555 1_555
O26 C20 1_555 1_555
O27 C21 1_555 1_555
O28 C22 1_555 1_555
O29 C23 1_555 1_555
O30 C24 1_555 1_555
C6 C11 1_555 1_555
C7 C12 1_555 1_555
C15 C20 1_555 1_555
C16 C21 1_555 1_555
C17 C22 1_555 1_555
C18 C23 1_555 1_555
C19 C24 1_555 1_555
N7 H34 1_555 1_555
N7 H35 1_555 1_555
Gd3 O5 1_555 1_555
Cu2_4 O5 1_555 1_555
Cu5_2 O8 1_555 1_555
Cu6_2 O9 1_555 1_555
O5 C5 1_555 1_555
O8 Gd3 1_555 1_555
O9 Gd3 1_555 1_555
O13 Gd3 1_555 1_555
O16 Gd3 1_555 1_555
O17 Gd3 1_555 1_555
C5 O13 1_555 1_555
C8 O8 1_555 1_555
C9 O9 1_555 1_555
H6 C10 1_555 1_555
H9 C13 1_555 1_555
H10 C14 1_555 1_555
O16 C8 1_555 1_555
O17 C9 1_555 1_555
C5 C10 1_555 1_555
C8 C13 1_555 1_555
C9 C14 1_555 1_555
O11_2 Cu6 1_555 1_555
O24_2 Cu6_2 1_555 1_555
N8_2 Cu6_2 1_555 1_555
H32_2 N8_2 1_555 1_555
N8_2 H36_2 1_555 1_555
N8_2 H37_2 1_555 1_555
O10_2 Cu4_2 1_555 1_555
O23_2 Cu4_2 1_555 1_555
N7_2 Cu4_2 1_555 1_555
N7_2 H34_2 1_555 1_555
N7_2 H35_2 1_555 1_555
O11_3 Cu5_3 1_555 1_555
O24_3 Cu5_4 1_555 1_555
N8_3 Cu5_4 1_555 1_555
N8_3 H36_3 1_555 1_555
N8_3 H37_3 1_555 1_555
Gd1_2 O11 1_555 1_555
O11 C1_2 1_555 1_555
O2_2 Gd1_2 1_555 1_555
C1_2 O2_2 1_555 1_555
H1_2 C2_2 1_555 1_555
Gd2 O10 1_555 1_555
O10 C5_2 1_555 1_555
O11_2 Gd1_2 1_555 1_555
O11_3 Gd1_2 1_555 1_555
O10_2 Gd2 1_555 1_555
O12 Gd2 1_555 1_555
O13_2 Gd2 1_555 1_555
O14_2 Gd1_2 1_555 1_555
O15_2 Gd1_2 1_555 1_555
O16_2 Gd2 1_555 1_555
O17_2 Gd2 1_555 1_555
O26_2 Gd1_2 1_555 1_555
O29_2 Gd1_2 1_555 1_555
O30_2 Gd1_2 1_555 1_555
O31 Gd2 1_555 1_555
O32 Gd2 1_555 1_555
O33 Gd2 1_555 1_555
C5_2 O13_2 1_555 1_555
C6_2 O11_2 1_555 1_555
C7_2 O11_3 1_555 1_555
C8_2 O10_2 1_555 1_555
C9_2 O12 1_555 1_555
C10_2 N7 1_555 1_555
C13_2 N7_2 1_555 1_555
C14_2 N9 1_555 1_555
C15_2 N7 1_555 1_555
C18_2 N7_2 1_555 1_555
C19_2 N9 1_555 1_555
C20_2 O23 1_555 1_555
C23_2 O23_2 1_555 1_555
C24_2 O25 1_555 1_555
H6_2 C10_2 1_555 1_555
H7_2 C11_2 1_555 1_555
H8_2 C12_2 1_555 1_555
H9_2 C13_2 1_555 1_555
H10_2 C14_2 1_555 1_555
H11_2 C10_2 1_555 1_555
H14_2 C13_2 1_555 1_555
H15_2 C14_2 1_555 1_555
H16_2 C15_2 1_555 1_555
H19_2 C18_2 1_555 1_555
H20_2 C19_2 1_555 1_555
H21_2 C15_2 1_555 1_555
H24_2 C18_2 1_555 1_555
H25_2 C19_2 1_555 1_555
C1_2 C2_2 1_555 1_555
O14_2 C6_2 1_555 1_555
O15_2 C7_2 1_555 1_555
O16_2 C8_2 1_555 1_555
O17_2 C9_2 1_555 1_555
O26_2 C20_2 1_555 1_555
O29_2 C23_2 1_555 1_555
O30_2 C24_2 1_555 1_555
C5_2 C10_2 1_555 1_555
C6_2 C11_2 1_555 1_555
C7_2 C12_2 1_555 1_555
C8_2 C13_2 1_555 1_555
C9_2 C14_2 1_555 1_555
C15_2 C20_2 1_555 1_555
C18_2 C23_2 1_555 1_555
C19_2 C24_2 1_555 1_555
N1 H36_4 1_555 1_555
N1 H37_4 1_555 1_555
N6 H38_2 1_555 1_555
N6 H39_2 1_555 1_555
O31 C4_2 1_555 1_555
C3_2 N8 1_555 1_555
C4_2 O24 1_555 1_555
H3_2 C3_2 1_555 1_555
H4_2 C3_2 1_555 1_555
C16_2 N8_2 1_555 1_555
C17_2 N8_3 1_555 1_555
C21_2 O24_2 1_555 1_555
C22_2 O24_3 1_555 1_555
H17_2 C16_2 1_555 1_555
H18_2 C17_2 1_555 1_555
H22_2 C16_2 1_555 1_555
H23_2 C17_2 1_555 1_555
C3_2 C4_2 1_555 1_555
O33 C21_2 1_555 1_555
O32 C22_2 1_555 1_555
C16_2 C21_2 1_555 1_555
C17_2 C22_2 1_555 1_555
N2 H34_3 1_555 1_555
N2 H35_3 1_555 1_555
N5 H34_4 1_555 1_555
N5 H35_4 1_555 1_555
N3 H36_5 1_555 1_555
N3 H37_5 1_555 1_555
N4 H36_6 1_555 1_555
N4 H37_6 1_555 1_555

#END
