
###############################################################################
#
# This file contains modified crystal structure data generated from the
# MOF subset of the Cambridge Structural Database (CSD) v543 
# hosted by the Cambridge Crystallographic Data Centre (CCDC).
#
# This work is licensed under the Creative Commons
# Attribution-NonCommercial-ShareAlike 4.0 International License.
# To view a copy of this license, visit
# http://creativecommons.org/licenses/by-nc-sa/4.0/
# or send a letter to
# Creative Commons, PO Box 1866, Mountain View, CA 94042, USA.
#
# CIF created using the CSD Python API on 29 September 2022
# The structure has been converted into the P1 space group
# The structure has a 3D framework
# The original CSD entry IBICAZ is in the hexagonal crystal system
# The original CSD entry IBICAZ is in a Sohncke space group
# The framework has been calculated to contain at least 10.0% void space
# The void calculation uses a probe of radius 1.32A, grid spacing 0.4
#
###############################################################################

data_IBICAZ
_chemical_formula_moiety         '(C66 H90 Cl6 N12 O11 Zn6)n'
_symmetry_cell_setting           triclinic
_symmetry_space_group_name_H-M   'P 1'
_symmetry_Int_Tables_number      1
_space_group_name_Hall           'P 1'
loop_
_symmetry_equiv_pos_site_id
_symmetry_equiv_pos_as_xyz
1 x,y,z
_cell_length_a                   17.691(2)
_cell_length_b                   17.691(2)
_cell_length_c                   10.5617(12)
_cell_angle_alpha                90
_cell_angle_beta                 90
_cell_angle_gamma                120
_cell_volume                     2862.66
loop_
_atom_site_label
_atom_site_type_symbol
_atom_site_fract_x
_atom_site_fract_y
_atom_site_fract_z
Zn1 Zn 0.45961(2) 0.53061(2) 0.11764(4)
Cl1 Cl 0.54491(9) 0.67598(7) 0.11882(12)
O1 O 0.48509(14) 0.51151(15) 0.3120(2)
O2 O 0.56639(18) 0.47247(19) 0.4235(2)
N2 N 0.49753(16) 0.43686(15) 0.0968(2)
H1 H 0.5311 0.4499 0.0260
C2 C 0.4413(2) 0.1506(2) 0.0946(3)
H3 H 0.4275 0.1048 0.1503
C3 C 0.4158(2) 0.2101(2) 0.1257(3)
H4 H 0.3855 0.2041 0.2005
C4 C 0.4356(2) 0.2791(2) 0.0446(3)
C6 C 0.4167(2) 0.3509(2) 0.0770(3)
H6 H 0.3829 0.3564 0.0092
H7 H 0.3816 0.3351 0.1534
C7 C 0.53190(18) 0.47780(19) 0.3231(3)
C8 C 0.54949(18) 0.4361(2) 0.2062(3)
H8 H 0.5294 0.3750 0.2269
C9 C 0.6474(2) 0.4804(3) 0.1800(3)
H9 H 0.6756 0.4810 0.2602
C10 C 0.6858(3) 0.5741(3) 0.1390(5)
H10 H 0.7458 0.5969 0.1155
H11 H 0.6824 0.6078 0.2076
H12 H 0.6538 0.5772 0.0677
C11 C 0.6707(3) 0.4297(4) 0.0845(4)
H13 H 0.6476 0.4310 0.0028
H14 H 0.6461 0.3702 0.1121
H15 H 0.7330 0.4561 0.0790
Zn2 Zn 0.54039(2) 0.46939(2) 0.61764(4)
N3 N 0.32990(27) 0.48480(18) 0.1558(2)
N1 N 0.48480(18) 0.1549(2) 0.9891(2)
C1 C 0.5029(2) 0.2207(3) 0.9075(3)
H2 H 0.5321 0.2243 0.8326
C5 C 0.4795(2) 0.2829(3) 0.9320(3)
H5 H 0.4928 0.3273 0.8739
Zn3 Zn 0.53061(2) 0.07100(3) 0.95097(4)
O3 O 0.43361(18) 0.52753(19) 0.9235(2)
O2_2 O 0.09392(26) 0.56639(18) 0.5902(2)
N2_2 N 0.06067(22) 0.49753(16) 0.2635(2)
H1_2 H 0.0812 0.5311 0.1927
C1_2 C 0.2822(4) 0.5029(2) 0.0742(3)
C2_2 C 0.2907(3) 0.4413(2) 0.2613(3)
H3_2 H 0.3227 0.4275 0.3170
C3_2 C 0.2057(3) 0.4158(2) 0.2924(3)
H4_2 H 0.1814 0.3855 0.3672
C4_2 C 0.1565(3) 0.4356(2) 0.2113(3)
C5_2 C 0.1966(4) 0.4795(2) 0.0987(3)
H5_2 H 0.1655 0.4928 0.0406
C6_2 C 0.0658(3) 0.4167(2) 0.2437(3)
H6_2 H 0.0265 0.3829 0.1759
H7_2 H 0.0465 0.3816 0.3201
C7_2 C 0.05410(26) 0.53190(18) 0.4898(3)
C8_2 C 0.11339(27) 0.54949(18) 0.3729(3)
H8_2 H 0.1544 0.5294 0.3936
C9_2 C 0.1670(4) 0.6474(2) 0.3467(3)
H9_2 H 0.1946 0.6756 0.4269
C10_2 C 0.1117(4) 0.6858(3) 0.3057(5)
H10_2 H 0.1489 0.7458 0.2822
H11_2 H 0.0746 0.6824 0.3743
H12_2 H 0.0766 0.6538 0.2344
C11_2 C 0.2410(5) 0.6707(3) 0.2512(4)
H13_2 H 0.2166 0.6476 0.1695
H14_2 H 0.2759 0.6461 0.2788
H15_2 H 0.2769 0.7330 0.2457
Zn2_2 Zn 0.07100(3) 0.54039(2) 0.78431(4)
Zn1_2 Zn 0.92900(3) 0.45961(2) 0.28431(4)
Cl1_2 Cl 0.86893(11) 0.54491(9) 0.28549(12)
O1_2 O 0.97358(21) 0.48509(14) 0.4787(2)
O3_2 O 0.90608(26) 0.43361(18) 0.0902(2)
N3_2 N 0.84510(32) 0.32990(27) 0.3224(2)
O2_3 O 0.52753(19) 0.09392(26) 0.7568(2)
N2_3 N 0.56314(15) 0.06067(22) 0.4301(2)
H1_3 H 0.5501 0.0812 0.3593
C1_3 C 0.7793(3) 0.2822(4) 0.2408(3)
H2_2 H 0.7757 0.3078 0.1659
C2_3 C 0.8494(2) 0.2907(3) 0.4279(3)
H3_3 H 0.8952 0.3227 0.4836
C3_3 C 0.7899(2) 0.2057(3) 0.4590(3)
H4_3 H 0.7959 0.1814 0.5338
C4_3 C 0.7209(2) 0.1565(3) 0.3779(3)
C5_3 C 0.7171(3) 0.1966(4) 0.2653(3)
H5_3 H 0.6727 0.1655 0.2072
C6_3 C 0.6491(2) 0.0658(3) 0.4103(3)
H6_3 H 0.6436 0.0265 0.3425
H7_3 H 0.6649 0.0465 0.4867
C7_3 C 0.52220(19) 0.05410(26) 0.6564(3)
C8_3 C 0.5639(2) 0.11339(27) 0.5395(3)
H8_3 H 0.6250 0.1544 0.5602
C9_3 C 0.5196(3) 0.1670(4) 0.5133(3)
H9_3 H 0.5190 0.1946 0.5935
C10_3 C 0.4259(3) 0.1117(4) 0.4723(5)
H10_3 H 0.4031 0.1489 0.4488
H11_3 H 0.3922 0.0746 0.5409
H12_3 H 0.4228 0.0766 0.4010
C11_3 C 0.5703(4) 0.2410(5) 0.4178(4)
H13_3 H 0.5690 0.2166 0.3361
H14_3 H 0.6298 0.2759 0.4454
H15_3 H 0.5439 0.2769 0.4123
Zn1_3 Zn 0.46939(2) 0.92900(3) 0.45097(4)
Cl1_3 Cl 0.32402(7) 0.86893(11) 0.45215(12)
O1_3 O 0.48849(15) 0.97358(21) 0.6453(2)
O3_3 O 0.47247(19) 0.90608(26) 0.2568(2)
N3_3 N 0.51520(18) 0.84510(32) 0.4891(2)
Cl1_4 Cl 0.45509(9) 0.32402(7) 0.61882(12)
O1_4 O 0.51491(14) 0.48849(15) 0.8120(2)
N2_4 N 0.50247(16) 0.56314(15) 0.5968(2)
H1_4 H 0.4689 0.5501 0.5260
C1_4 C 0.4971(2) 0.7793(3) 0.4075(3)
H2_3 H 0.4679 0.7757 0.3326
C2_4 C 0.5587(2) 0.8494(2) 0.5946(3)
H3_4 H 0.5725 0.8952 0.6503
C3_4 C 0.5842(2) 0.7899(2) 0.6257(3)
H4_4 H 0.6145 0.7959 0.7005
C4_4 C 0.5644(2) 0.7209(2) 0.5446(3)
C5_4 C 0.5205(2) 0.7171(3) 0.4320(3)
H5_4 H 0.5072 0.6727 0.3739
C6_4 C 0.5833(2) 0.6491(2) 0.5770(3)
H6_4 H 0.6171 0.6436 0.5092
H7_4 H 0.6184 0.6649 0.6534
C7_4 C 0.46810(18) 0.52220(19) 0.8231(3)
C8_4 C 0.45051(18) 0.5639(2) 0.7062(3)
H8_4 H 0.4706 0.6250 0.7269
C9_4 C 0.3526(2) 0.5196(3) 0.6800(3)
H9_4 H 0.3244 0.5190 0.7602
C10_4 C 0.3142(3) 0.4259(3) 0.6390(5)
H10_4 H 0.2542 0.4031 0.6155
H11_4 H 0.3176 0.3922 0.7076
H12_4 H 0.3462 0.4228 0.5677
C11_4 C 0.3293(3) 0.5703(4) 0.5845(4)
H13_4 H 0.3524 0.5690 0.5028
H14_4 H 0.3539 0.6298 0.6121
H15_4 H 0.2670 0.5439 0.5790
N3_4 N 0.67010(27) 0.51520(18) 0.6558(2)
Cl1_5 Cl 0.13107(11) 0.45509(9) 0.78549(12)
O1_5 O 0.02642(21) 0.51491(14) 0.9787(2)
N3_5 N 0.15490(32) 0.67010(27) 0.8224(2)
N2_5 N 0.93933(22) 0.50247(16) 0.7635(2)
H1_5 H 0.9188 0.4689 0.6927
C1_5 C 0.7178(4) 0.4971(2) 0.5742(3)
H2_4 H 0.6922 0.4679 0.4993
C2_5 C 0.7093(3) 0.5587(2) 0.7613(3)
H3_5 H 0.6773 0.5725 0.8170
C3_5 C 0.7943(3) 0.5842(2) 0.7924(3)
H4_5 H 0.8186 0.6145 0.8672
C4_5 C 0.8435(3) 0.5644(2) 0.7113(3)
C5_5 C 0.8034(4) 0.5205(2) 0.5987(3)
H5_5 H 0.8345 0.5072 0.5406
C6_5 C 0.9342(3) 0.5833(2) 0.7437(3)
H6_5 H 0.9735 0.6171 0.6759
H7_5 H 0.9535 0.6184 0.8201
C7_5 C 0.94590(26) 0.46810(18) 0.9898(3)
C8_5 C 0.88661(27) 0.45051(18) 0.8729(3)
H8_5 H 0.8456 0.4706 0.8936
C9_5 C 0.8330(4) 0.3526(2) 0.8467(3)
H9_5 H 0.8054 0.3244 0.9269
C10_5 C 0.8883(4) 0.3142(3) 0.8057(5)
H10_5 H 0.8511 0.2542 0.7822
H11_5 H 0.9254 0.3176 0.8743
H12_5 H 0.9234 0.3462 0.7344
C11_5 C 0.7590(5) 0.3293(3) 0.7512(4)
H13_5 H 0.7834 0.3524 0.6695
H14_5 H 0.7241 0.3539 0.7788
H15_5 H 0.7231 0.2670 0.7457
Cl1_6 Cl 0.67598(7) 0.13107(11) 0.95215(12)
H4_6 H 0.2041 0.8186 0.0338
C7_6 C 0.47780(19) 0.94590(26) 0.1564(3)
C8_6 C 0.4361(2) 0.88661(27) 0.0395(3)
H8_6 H 0.3750 0.8456 0.0602
C9_6 C 0.4804(3) 0.8330(4) 0.0133(3)
H9_6 H 0.4810 0.8054 0.0935
H11_6 H 0.6078 0.9254 0.0409
N2_6 N 0.43686(15) 0.93933(22) 0.9301(2)
H1_6 H 0.4499 0.9188 0.8593
C1_6 C 0.2207(3) 0.7178(4) 0.7408(3)
H2_5 H 0.2243 0.6922 0.6659
C2_6 C 0.1506(2) 0.7093(3) 0.9279(3)
H3_6 H 0.1048 0.6773 0.9836
C3_6 C 0.2101(2) 0.7943(3) 0.9590(3)
C4_6 C 0.2791(2) 0.8435(3) 0.8779(3)
C5_6 C 0.2829(3) 0.8034(4) 0.7653(3)
H5_6 H 0.3273 0.8345 0.7072
C6_6 C 0.3509(2) 0.9342(3) 0.9103(3)
H6_6 H 0.3564 0.9735 0.8425
H7_6 H 0.3351 0.9535 0.9867
C10_6 C 0.5741(3) 0.8883(4) 0.9723(5)
H10_6 H 0.5969 0.8511 0.9488
H12_6 H 0.5772 0.9234 0.9010
C11_6 C 0.4297(4) 0.7590(5) 0.9178(4)
H13_6 H 0.4310 0.7834 0.8361
H14_6 H 0.3702 0.7241 0.9454
H15_6 H 0.4561 0.7231 0.9123
H2_6 H 0.3078 0.5321 0.9993
O1_6 O 0.51151(15) 0.02642(21) 0.1453(2)
loop_
_geom_bond_atom_site_label_1
_geom_bond_atom_site_label_2
_geom_bond_site_symmetry_1
_geom_bond_site_symmetry_2
Zn1 Cl1 1_555 1_555
O1 Zn1 1_555 1_555
O2 C7 1_555 1_555
N2 Zn1 1_555 1_555
H1 N2 1_555 1_555
H3 C2 1_555 1_555
C3 C2 1_555 1_555
H4 C3 1_555 1_555
C4 C3 1_555 1_555
C6 N2 1_555 1_555
H6 C6 1_555 1_555
H7 C6 1_555 1_555
C7 O1 1_555 1_555
C8 N2 1_555 1_555
H8 C8 1_555 1_555
C9 C8 1_555 1_555
H9 C9 1_555 1_555
C10 C9 1_555 1_555
H10 C10 1_555 1_555
H11 C10 1_555 1_555
H12 C10 1_555 1_555
C11 C9 1_555 1_555
H13 C11 1_555 1_555
H14 C11 1_555 1_555
H15 C11 1_555 1_555
Zn2 O2 1_555 1_555
N3 Zn1 1_555 1_555
C4 C6 1_555 1_555
C7 C8 1_555 1_555
N1 C1 1_555 1_555
C1 H2 1_555 1_555
C5 C1 1_555 1_555
H5 C5 1_555 1_555
Zn3 N1 1_555 1_555
O2_2 C7_2 1_555 1_555
N3 C1_2 1_555 1_555
H1_2 N2_2 1_555 1_555
C2_2 N3 1_555 1_555
H3_2 C2_2 1_555 1_555
C3_2 C2_2 1_555 1_555
H4_2 C3_2 1_555 1_555
C4_2 C3_2 1_555 1_555
C5_2 C1_2 1_555 1_555
H5_2 C5_2 1_555 1_555
C6_2 N2_2 1_555 1_555
H6_2 C6_2 1_555 1_555
H7_2 C6_2 1_555 1_555
C8_2 N2_2 1_555 1_555
H8_2 C8_2 1_555 1_555
C9_2 C8_2 1_555 1_555
H9_2 C9_2 1_555 1_555
C10_2 C9_2 1_555 1_555
H10_2 C10_2 1_555 1_555
H11_2 C10_2 1_555 1_555
H12_2 C10_2 1_555 1_555
C11_2 C9_2 1_555 1_555
H13_2 C11_2 1_555 1_555
H14_2 C11_2 1_555 1_555
H15_2 C11_2 1_555 1_555
Zn2_2 O2_2 1_555 1_555
C4_2 C5_2 1_555 1_555
C4_2 C6_2 1_555 1_555
C7_2 C8_2 1_555 1_555
Zn1_2 Cl1_2 1_555 1_555
O1_2 Zn1_2 1_555 1_555
O3_2 Zn1_2 1_555 1_555
N3_2 Zn1_2 1_555 1_555
O2_3 C7_3 1_555 1_555
N3_2 C1_3 1_555 1_555
H1_3 N2_3 1_555 1_555
C1_3 H2_2 1_555 1_555
C2_3 N3_2 1_555 1_555
H3_3 C2_3 1_555 1_555
C3_3 C2_3 1_555 1_555
H4_3 C3_3 1_555 1_555
C4_3 C3_3 1_555 1_555
C5_3 C1_3 1_555 1_555
H5_3 C5_3 1_555 1_555
C6_3 N2_3 1_555 1_555
H6_3 C6_3 1_555 1_555
H7_3 C6_3 1_555 1_555
C8_3 N2_3 1_555 1_555
H8_3 C8_3 1_555 1_555
C9_3 C8_3 1_555 1_555
H9_3 C9_3 1_555 1_555
C10_3 C9_3 1_555 1_555
H10_3 C10_3 1_555 1_555
H11_3 C10_3 1_555 1_555
H12_3 C10_3 1_555 1_555
C11_3 C9_3 1_555 1_555
H13_3 C11_3 1_555 1_555
H14_3 C11_3 1_555 1_555
H15_3 C11_3 1_555 1_555
Zn3 O2_3 1_555 1_555
C4_3 C5_3 1_555 1_555
C4_3 C6_3 1_555 1_555
C7_3 C8_3 1_555 1_555
Zn1_3 Cl1_3 1_555 1_555
O1_3 Zn1_3 1_555 1_555
O3_3 Zn1_3 1_555 1_555
N3_3 Zn1_3 1_555 1_555
Zn2 Cl1_4 1_555 1_555
O1_4 Zn2 1_555 1_555
O3 C7_4 1_555 1_555
N3_3 C1_4 1_555 1_555
N2_4 Zn2 1_555 1_555
H1_4 N2_4 1_555 1_555
C1_4 H2_3 1_555 1_555
C2_4 N3_3 1_555 1_555
H3_4 C2_4 1_555 1_555
C3_4 C2_4 1_555 1_555
H4_4 C3_4 1_555 1_555
C4_4 C3_4 1_555 1_555
C5_4 C1_4 1_555 1_555
H5_4 C5_4 1_555 1_555
C6_4 N2_4 1_555 1_555
H6_4 C6_4 1_555 1_555
H7_4 C6_4 1_555 1_555
C7_4 O1_4 1_555 1_555
C8_4 N2_4 1_555 1_555
H8_4 C8_4 1_555 1_555
C9_4 C8_4 1_555 1_555
H9_4 C9_4 1_555 1_555
C10_4 C9_4 1_555 1_555
H10_4 C10_4 1_555 1_555
H11_4 C10_4 1_555 1_555
H12_4 C10_4 1_555 1_555
C11_4 C9_4 1_555 1_555
H13_4 C11_4 1_555 1_555
H14_4 C11_4 1_555 1_555
H15_4 C11_4 1_555 1_555
N3_4 Zn2 1_555 1_555
C4_4 C5_4 1_555 1_555
C4_4 C6_4 1_555 1_555
C7_4 C8_4 1_555 1_555
Zn2_2 Cl1_5 1_555 1_555
O1_5 Zn2_2 1_555 1_555
N3_5 Zn2_2 1_555 1_555
N3_4 C1_5 1_555 1_555
H1_5 N2_5 1_555 1_555
C1_5 H2_4 1_555 1_555
C2_5 N3_4 1_555 1_555
H3_5 C2_5 1_555 1_555
C3_5 C2_5 1_555 1_555
H4_5 C3_5 1_555 1_555
C4_5 C3_5 1_555 1_555
C5_5 C1_5 1_555 1_555
H5_5 C5_5 1_555 1_555
C6_5 N2_5 1_555 1_555
H6_5 C6_5 1_555 1_555
H7_5 C6_5 1_555 1_555
C8_5 N2_5 1_555 1_555
H8_5 C8_5 1_555 1_555
C9_5 C8_5 1_555 1_555
H9_5 C9_5 1_555 1_555
C10_5 C9_5 1_555 1_555
H10_5 C10_5 1_555 1_555
H11_5 C10_5 1_555 1_555
H12_5 C10_5 1_555 1_555
C11_5 C9_5 1_555 1_555
H13_5 C11_5 1_555 1_555
H14_5 C11_5 1_555 1_555
H15_5 C11_5 1_555 1_555
C4_5 C5_5 1_555 1_555
C4_5 C6_5 1_555 1_555
C7_5 C8_5 1_555 1_555
Zn3 Cl1_6 1_555 1_555
O3_3 C7_6 1_555 1_555
H8_6 C8_6 1_555 1_555
C9_6 C8_6 1_555 1_555
H9_6 C9_6 1_555 1_555
C7_6 C8_6 1_555 1_555
N3_5 C1_6 1_555 1_555
H1_6 N2_6 1_555 1_555
C1_6 H2_5 1_555 1_555
C2_6 N3_5 1_555 1_555
H3_6 C2_6 1_555 1_555
C3_6 C2_6 1_555 1_555
C4_6 C3_6 1_555 1_555
C5_6 C1_6 1_555 1_555
H5_6 C5_6 1_555 1_555
C6_6 N2_6 1_555 1_555
H6_6 C6_6 1_555 1_555
H7_6 C6_6 1_555 1_555
H10_6 C10_6 1_555 1_555
H12_6 C10_6 1_555 1_555
H13_6 C11_6 1_555 1_555
H14_6 C11_6 1_555 1_555
H15_6 C11_6 1_555 1_555
C4_6 C5_6 1_555 1_555
C4_6 C6_6 1_555 1_555

#END
