
###############################################################################
#
# This file contains modified crystal structure data generated from the
# MOF subset of the Cambridge Structural Database (CSD) v543 
# hosted by the Cambridge Crystallographic Data Centre (CCDC).
#
# This work is licensed under the Creative Commons
# Attribution-NonCommercial-ShareAlike 4.0 International License.
# To view a copy of this license, visit
# http://creativecommons.org/licenses/by-nc-sa/4.0/
# or send a letter to
# Creative Commons, PO Box 1866, Mountain View, CA 94042, USA.
#
# CIF created using the CSD Python API on 29 September 2022
# The structure has been converted into the P1 space group
# The structure has a 3D framework
# The original CSD entry IBICED is in the hexagonal crystal system
# The original CSD entry IBICED is in a Sohncke space group
# The framework has been calculated to contain at least 10.0% void space
# The void calculation uses a probe of radius 1.32A, grid spacing 0.4
#
###############################################################################

data_IBICED
_chemical_formula_moiety         '(C66 H90 Br6 N12 O11 Zn6)n'
_symmetry_cell_setting           triclinic
_symmetry_space_group_name_H-M   'P 1'
_symmetry_Int_Tables_number      1
_space_group_name_Hall           'P 1'
loop_
_symmetry_equiv_pos_site_id
_symmetry_equiv_pos_as_xyz
1 x,y,z
_cell_length_a                   17.768(2)
_cell_length_b                   17.768(2)
_cell_length_c                   10.4796(11)
_cell_angle_alpha                90
_cell_angle_beta                 90
_cell_angle_gamma                120
_cell_volume                     2865.18
loop_
_atom_site_label
_atom_site_type_symbol
_atom_site_fract_x
_atom_site_fract_y
_atom_site_fract_z
Br1 Br 0.67968(7) 0.13151(7) 0.25161(13)
Zn1 Zn 0.52779(5) 0.07072(4) 0.26285(6)
O1 O 0.5117(3) 0.0273(3) 0.4589(4)
O3 O 0.5207(4) 0.0927(3) 0.0677(4)
N3 N 0.4815(5) 0.1548(4) 0.3028(5)
O2 O 0.4793(4) 0.9073(3) 0.5677(4)
N1 N 0.4331(3) 0.9405(3) 0.2435(4)
H1 H 0.4451 0.9204 0.1708
N2 N 0.1548(4) 0.6733(3) 0.1361(5)
C1 C 0.4790(4) 0.9468(4) 0.4690(6)
C2 C 0.4356(5) 0.8867(4) 0.3529(6)
H2 H 0.3752 0.8461 0.3767
C3 C 0.4780(5) 0.8324(4) 0.3220(6)
H3 H 0.4792 0.8042 0.4018
C4 C 0.5713(6) 0.8881(5) 0.2800(10)
H4 H 0.5915 0.8520 0.2428
H5 H 0.6067 0.9183 0.3524
H6 H 0.5750 0.9296 0.2179
C5 C 0.4246(7) 0.7592(5) 0.2261(8)
H7 H 0.4318 0.7833 0.1421
H8 H 0.3643 0.7307 0.2495
H9 H 0.4444 0.7178 0.2270
C6 C 0.1488(5) 0.7087(4) 0.2432(7)
H10 H 0.1027 0.6759 0.2982
C7 C 0.2192(6) 0.7209(5) 0.0538(7)
C8 C 0.2103(5) 0.7950(4) 0.2767(7)
H12 H 0.2062 0.8183 0.3542
C9 C 0.2762(5) 0.8439(4) 0.1932(7)
C10 C 0.2793(6) 0.8060(5) 0.0786(7)
H13 H 0.3222 0.8385 0.0189
C11 C 0.3462(4) 0.9330(4) 0.2266(7)
H14 H 0.3306 0.9508 0.3051
H15 H 0.3503 0.9727 0.1599
Zn2 Zn 0.47221(5) 0.92928(4) 0.76285(6)
Zn3 Zn 0.07072(4) 0.54293(6) 0.09618(6)
Br1_2 Br 0.54817(10) 0.67968(7) 0.41828(13)
Zn1_2 Zn 0.45707(6) 0.52779(5) 0.42952(6)
O1_2 O 0.4844(4) 0.5117(3) 0.6256(4)
O2_2 O 0.5720(5) 0.4793(4) 0.7344(4)
N1_2 N 0.4926(4) 0.4331(3) 0.4102(4)
H1_2 H 0.5247 0.4451 0.3375
C1_2 C 0.5322(6) 0.4790(4) 0.6357(6)
C2_2 C 0.5489(6) 0.4356(5) 0.5196(6)
H2_2 H 0.5291 0.3752 0.5434
C3_2 C 0.6456(6) 0.4780(5) 0.4887(6)
H3_2 H 0.6750 0.4792 0.5685
C4_2 C 0.6832(8) 0.5713(6) 0.4467(10)
H4_2 H 0.7395 0.5915 0.4095
H5_2 H 0.6884 0.6067 0.5191
H6_2 H 0.6454 0.5750 0.3846
C5_2 C 0.6654(9) 0.4246(7) 0.3928(8)
H7_2 H 0.6485 0.4318 0.3088
H8_2 H 0.6336 0.3643 0.4162
H9_2 H 0.7266 0.4444 0.3937
C6_2 C 0.4401(6) 0.1488(5) 0.4099(7)
H10_2 H 0.4268 0.1027 0.4649
C7_2 C 0.4983(8) 0.2192(6) 0.2205(7)
H11 H 0.5276 0.2232 0.1450
C8_2 C 0.4153(6) 0.2103(5) 0.4434(7)
H12_2 H 0.3879 0.2062 0.5209
C9_2 C 0.4323(6) 0.2762(5) 0.3599(7)
C10_2 C 0.4733(8) 0.2793(6) 0.2453(7)
H13_2 H 0.4837 0.3222 0.1856
C11_2 C 0.4132(6) 0.3462(4) 0.3933(7)
H14_2 H 0.3798 0.3306 0.4718
H15_2 H 0.3776 0.3503 0.3266
Zn2_2 Zn 0.54293(6) 0.47221(5) 0.92952(6)
O3_2 O 0.4280(5) 0.5207(4) 0.2344(4)
N3_2 N 0.3267(6) 0.4815(5) 0.4694(5)
O2_3 O 0.0927(3) 0.5720(5) 0.9010(4)
N1_3 N 0.0595(3) 0.4926(4) 0.5768(4)
H1_3 H 0.0796 0.5247 0.5041
C1_3 C 0.0532(4) 0.5322(6) 0.8023(6)
C2_3 C 0.1133(4) 0.5489(6) 0.6862(6)
H2_3 H 0.1539 0.5291 0.7100
C3_3 C 0.1676(4) 0.6456(6) 0.6553(6)
H3_3 H 0.1958 0.6750 0.7351
C4_3 C 0.1119(5) 0.6832(8) 0.6133(10)
H4_3 H 0.1480 0.7395 0.5761
H5_3 H 0.0817 0.6884 0.6857
H6_3 H 0.0704 0.6454 0.5512
C5_3 C 0.2408(5) 0.6654(9) 0.5594(8)
H7_3 H 0.2167 0.6485 0.4754
H8_3 H 0.2693 0.6336 0.5828
H9_3 H 0.2822 0.7266 0.5603
C6_3 C 0.2913(4) 0.4401(6) 0.5765(7)
H10_3 H 0.3241 0.4268 0.6315
C7_3 C 0.2791(5) 0.4983(8) 0.3871(7)
H11_2 H 0.3044 0.5276 0.3116
C8_3 C 0.2050(4) 0.4153(6) 0.6100(7)
H12_3 H 0.1817 0.3879 0.6875
C9_3 C 0.1561(4) 0.4323(6) 0.5265(7)
C10_3 C 0.1940(5) 0.4733(8) 0.4119(7)
H13_3 H 0.1615 0.4837 0.3522
C11_3 C 0.0670(4) 0.4132(6) 0.5599(7)
H14_3 H 0.0492 0.3798 0.6384
H15_3 H 0.0273 0.3776 0.4932
Br1_3 Br 0.32032(7) 0.86849(7) 0.75161(13)
O1_3 O 0.4883(3) 0.9727(3) 0.9589(4)
N3_3 N 0.5185(5) 0.8452(4) 0.8028(5)
O1_4 O 0.5156(4) 0.4883(3) 0.1256(4)
C1_4 C 0.4678(6) 0.5210(4) 0.1357(6)
C2_4 C 0.4511(6) 0.5644(5) 0.0196(6)
H2_4 H 0.4709 0.6248 0.0434
H3_4 H 0.3250 0.5208 0.0685
H5_4 H 0.3116 0.3933 0.0191
H12_4 H 0.6121 0.7938 0.0209
Br1_4 Br 0.45183(10) 0.32032(7) 0.91828(13)
N1_4 N 0.5074(4) 0.5669(3) 0.9102(4)
H1_4 H 0.4753 0.5549 0.8375
C3_4 C 0.3544(6) 0.5220(5) 0.9887(6)
C4_4 C 0.3168(8) 0.4287(6) 0.9467(10)
H4_4 H 0.2605 0.4085 0.9095
H6_4 H 0.3546 0.4250 0.8846
C5_4 C 0.3346(9) 0.5754(7) 0.8928(8)
H7_4 H 0.3515 0.5682 0.8088
H8_4 H 0.3664 0.6357 0.9162
H9_4 H 0.2734 0.5556 0.8937
C6_4 C 0.5599(6) 0.8512(5) 0.9099(7)
H10_4 H 0.5732 0.8973 0.9649
C7_4 C 0.5017(8) 0.7808(6) 0.7205(7)
H11_3 H 0.4724 0.7768 0.6450
C8_4 C 0.5847(6) 0.7897(5) 0.9434(7)
C9_4 C 0.5677(6) 0.7238(5) 0.8599(7)
C10_4 C 0.5267(8) 0.7207(6) 0.7453(7)
H13_4 H 0.5163 0.6778 0.6856
C11_4 C 0.5868(6) 0.6538(4) 0.8933(7)
H14_4 H 0.6202 0.6694 0.9718
H15_4 H 0.6224 0.6497 0.8266
N3_4 N 0.6733(6) 0.5185(5) 0.9694(5)
Br1_5 Br 0.13151(7) 0.45183(10) 0.08494(13)
O1_5 O 0.0273(3) 0.5156(4) 0.2922(4)
H7_5 H 0.7833 0.3515 0.9754
C7_5 C 0.7209(5) 0.5017(8) 0.8871(7)
H11_4 H 0.6956 0.4724 0.8116
C10_5 C 0.8060(5) 0.5267(8) 0.9119(7)
H13_5 H 0.8385 0.5163 0.8522
H15_5 H 0.9727 0.6224 0.9932
H11_5 H 0.2232 0.6956 0.9783
Br1_6 Br 0.86849(7) 0.54817(10) 0.58494(13)
Zn1_3 Zn 0.92928(4) 0.45707(6) 0.59618(6)
O1_6 O 0.9727(3) 0.4844(4) 0.7922(4)
O3_3 O 0.9073(3) 0.4280(5) 0.4010(4)
N3_5 N 0.8452(4) 0.3267(6) 0.6361(5)
N1_5 N 0.5669(3) 0.0595(3) 0.7435(4)
H1_5 H 0.5549 0.0796 0.6708
C1_5 C 0.5210(4) 0.0532(4) 0.9690(6)
C2_5 C 0.5644(5) 0.1133(4) 0.8529(6)
H2_5 H 0.6248 0.1539 0.8767
C3_5 C 0.5220(5) 0.1676(4) 0.8220(6)
H3_5 H 0.5208 0.1958 0.9018
C4_5 C 0.4287(6) 0.1119(5) 0.7800(10)
H4_5 H 0.4085 0.1480 0.7428
H5_5 H 0.3933 0.0817 0.8524
H6_5 H 0.4250 0.0704 0.7179
C5_5 C 0.5754(7) 0.2408(5) 0.7261(8)
H7_6 H 0.5682 0.2167 0.6421
H8_5 H 0.6357 0.2693 0.7495
H9_5 H 0.5556 0.2822 0.7270
C6_5 C 0.8512(5) 0.2913(4) 0.7432(7)
H10_5 H 0.8973 0.3241 0.7982
C7_6 C 0.7808(6) 0.2791(5) 0.5538(7)
H11_6 H 0.7768 0.3044 0.4783
C8_5 C 0.7897(5) 0.2050(4) 0.7767(7)
H12_5 H 0.7938 0.1817 0.8542
C9_5 C 0.7238(5) 0.1561(4) 0.6932(7)
C10_6 C 0.7207(6) 0.1940(5) 0.5786(7)
H13_6 H 0.6778 0.1615 0.5189
C11_5 C 0.6538(4) 0.0670(4) 0.7266(7)
H14_5 H 0.6694 0.0492 0.8051
H15_6 H 0.6497 0.0273 0.6599
N1_6 N 0.9405(3) 0.5074(4) 0.0768(4)
H1_6 H 0.9204 0.4753 0.0041
C1_6 C 0.9468(4) 0.4678(6) 0.3023(6)
C2_6 C 0.8867(4) 0.4511(6) 0.1862(6)
H2_6 H 0.8461 0.4709 0.2100
C3_6 C 0.8324(4) 0.3544(6) 0.1553(6)
H3_6 H 0.8042 0.3250 0.2351
C4_6 C 0.8881(5) 0.3168(8) 0.1133(10)
H4_6 H 0.8520 0.2605 0.0761
H5_6 H 0.9183 0.3116 0.1857
H6_6 H 0.9296 0.3546 0.0512
C5_6 C 0.7592(5) 0.3346(9) 0.0594(8)
H8_6 H 0.7307 0.3664 0.0828
H9_6 H 0.7178 0.2734 0.0603
C6_6 C 0.7087(4) 0.5599(6) 0.0765(7)
H10_6 H 0.6759 0.5732 0.1315
C8_6 C 0.7950(4) 0.5847(6) 0.1100(7)
H12_6 H 0.8183 0.6121 0.1875
C9_6 C 0.8439(4) 0.5677(6) 0.0265(7)
C11_6 C 0.9330(4) 0.5868(6) 0.0599(7)
H14_6 H 0.9508 0.6202 0.1384
loop_
_geom_bond_atom_site_label_1
_geom_bond_atom_site_label_2
_geom_bond_site_symmetry_1
_geom_bond_site_symmetry_2
Br1 Zn1 1_555 1_555
Zn1 O1 1_555 1_555
O3 Zn1 1_555 1_555
N3 Zn1 1_555 1_555
O2 C1 1_555 1_555
H1 N1 1_555 1_555
N2 C6 1_555 1_555
C1 C2 1_555 1_555
C2 N1 1_555 1_555
H2 C2 1_555 1_555
C3 C2 1_555 1_555
H3 C3 1_555 1_555
C4 C3 1_555 1_555
H4 C4 1_555 1_555
H5 C4 1_555 1_555
H6 C4 1_555 1_555
C5 C3 1_555 1_555
H7 C5 1_555 1_555
H8 C5 1_555 1_555
H9 C5 1_555 1_555
C6 H10 1_555 1_555
C7 N2 1_555 1_555
C8 C6 1_555 1_555
H12 C8 1_555 1_555
C9 C8 1_555 1_555
C10 C7 1_555 1_555
H13 C10 1_555 1_555
C11 N1 1_555 1_555
H14 C11 1_555 1_555
H15 C11 1_555 1_555
Zn2 O2 1_555 1_555
Zn3 N2 1_555 1_555
C9 C10 1_555 1_555
C9 C11 1_555 1_555
Br1_2 Zn1_2 1_555 1_555
Zn1_2 O1_2 1_555 1_555
O1_2 C1_2 1_555 1_555
O2_2 C1_2 1_555 1_555
N1_2 Zn1_2 1_555 1_555
H1_2 N1_2 1_555 1_555
N3 C6_2 1_555 1_555
C1_2 C2_2 1_555 1_555
C2_2 N1_2 1_555 1_555
H2_2 C2_2 1_555 1_555
C3_2 C2_2 1_555 1_555
H3_2 C3_2 1_555 1_555
C4_2 C3_2 1_555 1_555
H4_2 C4_2 1_555 1_555
H5_2 C4_2 1_555 1_555
H6_2 C4_2 1_555 1_555
C5_2 C3_2 1_555 1_555
H7_2 C5_2 1_555 1_555
H8_2 C5_2 1_555 1_555
H9_2 C5_2 1_555 1_555
C6_2 H10_2 1_555 1_555
C7_2 N3 1_555 1_555
H11 C7_2 1_555 1_555
C8_2 C6_2 1_555 1_555
H12_2 C8_2 1_555 1_555
C9_2 C8_2 1_555 1_555
C10_2 C7_2 1_555 1_555
H13_2 C10_2 1_555 1_555
C11_2 N1_2 1_555 1_555
H14_2 C11_2 1_555 1_555
H15_2 C11_2 1_555 1_555
Zn2_2 O2_2 1_555 1_555
O3_2 Zn1_2 1_555 1_555
N3_2 Zn1_2 1_555 1_555
C9_2 C10_2 1_555 1_555
C9_2 C11_2 1_555 1_555
O2_3 C1_3 1_555 1_555
H1_3 N1_3 1_555 1_555
N3_2 C6_3 1_555 1_555
C1_3 C2_3 1_555 1_555
C2_3 N1_3 1_555 1_555
H2_3 C2_3 1_555 1_555
C3_3 C2_3 1_555 1_555
H3_3 C3_3 1_555 1_555
C4_3 C3_3 1_555 1_555
H4_3 C4_3 1_555 1_555
H5_3 C4_3 1_555 1_555
H6_3 C4_3 1_555 1_555
C5_3 C3_3 1_555 1_555
H7_3 C5_3 1_555 1_555
H8_3 C5_3 1_555 1_555
H9_3 C5_3 1_555 1_555
C6_3 H10_3 1_555 1_555
C7_3 N3_2 1_555 1_555
H11_2 C7_3 1_555 1_555
C8_3 C6_3 1_555 1_555
H12_3 C8_3 1_555 1_555
C9_3 C8_3 1_555 1_555
C10_3 C7_3 1_555 1_555
H13_3 C10_3 1_555 1_555
C11_3 N1_3 1_555 1_555
H14_3 C11_3 1_555 1_555
H15_3 C11_3 1_555 1_555
C9_3 C10_3 1_555 1_555
C9_3 C11_3 1_555 1_555
Br1_3 Zn2 1_555 1_555
Zn2 O1_3 1_555 1_555
N3_3 Zn2 1_555 1_555
O1_4 C1_4 1_555 1_555
O3_2 C1_4 1_555 1_555
C1_4 C2_4 1_555 1_555
H2_4 C2_4 1_555 1_555
Br1_4 Zn2_2 1_555 1_555
N1_4 Zn2_2 1_555 1_555
H1_4 N1_4 1_555 1_555
N3_3 C6_4 1_555 1_555
C4_4 C3_4 1_555 1_555
H4_4 C4_4 1_555 1_555
H6_4 C4_4 1_555 1_555
C5_4 C3_4 1_555 1_555
H7_4 C5_4 1_555 1_555
H8_4 C5_4 1_555 1_555
H9_4 C5_4 1_555 1_555
C6_4 H10_4 1_555 1_555
C7_4 N3_3 1_555 1_555
H11_3 C7_4 1_555 1_555
C8_4 C6_4 1_555 1_555
C9_4 C8_4 1_555 1_555
C10_4 C7_4 1_555 1_555
H13_4 C10_4 1_555 1_555
C11_4 N1_4 1_555 1_555
H14_4 C11_4 1_555 1_555
H15_4 C11_4 1_555 1_555
N3_4 Zn2_2 1_555 1_555
C9_4 C10_4 1_555 1_555
C9_4 C11_4 1_555 1_555
Br1_5 Zn3 1_555 1_555
Zn3 O1_5 1_555 1_555
C7_5 N3_4 1_555 1_555
H11_4 C7_5 1_555 1_555
C10_5 C7_5 1_555 1_555
H13_5 C10_5 1_555 1_555
Br1_6 Zn1_3 1_555 1_555
Zn1_3 O1_6 1_555 1_555
O3_3 Zn1_3 1_555 1_555
N3_5 Zn1_3 1_555 1_555
H1_5 N1_5 1_555 1_555
N3_5 C6_5 1_555 1_555
C1_5 C2_5 1_555 1_555
C2_5 N1_5 1_555 1_555
H2_5 C2_5 1_555 1_555
C3_5 C2_5 1_555 1_555
H3_5 C3_5 1_555 1_555
C4_5 C3_5 1_555 1_555
H4_5 C4_5 1_555 1_555
H5_5 C4_5 1_555 1_555
H6_5 C4_5 1_555 1_555
C5_5 C3_5 1_555 1_555
H7_6 C5_5 1_555 1_555
H8_5 C5_5 1_555 1_555
H9_5 C5_5 1_555 1_555
C6_5 H10_5 1_555 1_555
C7_6 N3_5 1_555 1_555
H11_6 C7_6 1_555 1_555
C8_5 C6_5 1_555 1_555
H12_5 C8_5 1_555 1_555
C9_5 C8_5 1_555 1_555
C10_6 C7_6 1_555 1_555
H13_6 C10_6 1_555 1_555
C11_5 N1_5 1_555 1_555
H14_5 C11_5 1_555 1_555
H15_6 C11_5 1_555 1_555
C9_5 C10_6 1_555 1_555
C9_5 C11_5 1_555 1_555
O3_3 C1_6 1_555 1_555
H1_6 N1_6 1_555 1_555
C1_6 C2_6 1_555 1_555
C2_6 N1_6 1_555 1_555
H2_6 C2_6 1_555 1_555
C3_6 C2_6 1_555 1_555
H3_6 C3_6 1_555 1_555
C4_6 C3_6 1_555 1_555
H4_6 C4_6 1_555 1_555
H5_6 C4_6 1_555 1_555
H6_6 C4_6 1_555 1_555
C5_6 C3_6 1_555 1_555
H8_6 C5_6 1_555 1_555
H9_6 C5_6 1_555 1_555
C6_6 H10_6 1_555 1_555
C8_6 C6_6 1_555 1_555
H12_6 C8_6 1_555 1_555
C9_6 C8_6 1_555 1_555
C11_6 N1_6 1_555 1_555
H14_6 C11_6 1_555 1_555
C9_6 C11_6 1_555 1_555

#END
