
###############################################################################
#
# This file contains modified crystal structure data generated from the
# MOF subset of the Cambridge Structural Database (CSD) v543 
# hosted by the Cambridge Crystallographic Data Centre (CCDC).
#
# This work is licensed under the Creative Commons
# Attribution-NonCommercial-ShareAlike 4.0 International License.
# To view a copy of this license, visit
# http://creativecommons.org/licenses/by-nc-sa/4.0/
# or send a letter to
# Creative Commons, PO Box 1866, Mountain View, CA 94042, USA.
#
# CIF created using the CSD Python API on 29 September 2022
# The structure has been converted into the P1 space group
# The structure has a 3D framework
# The original CSD entry IBICON is in the hexagonal crystal system
# The original CSD entry IBICON is in a Sohncke space group
# The framework has been calculated to contain at least 10.0% void space
# The void calculation uses a probe of radius 1.32A, grid spacing 0.4
#
###############################################################################

data_IBICON
_chemical_formula_moiety         '(C66 H90 Br6 N12 O11 Zn6)n'
_symmetry_cell_setting           triclinic
_symmetry_space_group_name_H-M   'P 1'
_symmetry_Int_Tables_number      1
_space_group_name_Hall           'P 1'
loop_
_symmetry_equiv_pos_site_id
_symmetry_equiv_pos_as_xyz
1 x,y,z
_cell_length_a                   17.7786(7)
_cell_length_b                   17.7786(7)
_cell_length_c                   10.4868(18)
_cell_angle_alpha                90
_cell_angle_beta                 90
_cell_angle_gamma                120
_cell_volume                     2870.57
loop_
_atom_site_label
_atom_site_type_symbol
_atom_site_fract_x
_atom_site_fract_y
_atom_site_fract_z
Br1 Br 0.13126(7) 0.45179(9) 0.08769(13)
Zn1 Zn 0.07043(4) 0.54262(5) 0.07724(6)
N3 N 0.1547(5) 0.6725(3) 0.0371(5)
O3 O 0.0921(3) 0.5701(4) 0.2720(4)
N1 N 0.6725(3) 0.5178(4) 0.2038(5)
N2 N 0.9406(3) 0.5066(4) 0.0969(4)
H1 H 0.9204 0.4741 0.1690
C1 C 0.7221(5) 0.5036(5) 0.2862(7)
H2 H 0.6980 0.4769 0.3637
C2 C 0.7088(5) 0.5595(5) 0.0980(7)
H3 H 0.6764 0.5730 0.0427
C3 C 0.7946(4) 0.5847(5) 0.0649(7)
C4 C 0.8433(5) 0.5674(5) 0.1484(7)
C5 C 0.8049(5) 0.5260(5) 0.2612(7)
H5 H 0.8364 0.5137 0.3201
C6 C 0.9337(4) 0.5868(5) 0.1151(7)
H6 H 0.9520 0.6208 0.0373
H7 H 0.9731 0.6217 0.1825
C9 C 0.8317(5) 0.3544(5) 0.0177(7)
C10 C 0.8889(6) 0.3176(6) 0.0587(9)
H10 H 0.9196 0.3463 0.1351
H12 H 0.8534 0.2565 0.0746
C11 C 0.7592(6) 0.3346(7) 0.1121(8)
H13 H 0.7260 0.2731 0.1265
H14 H 0.7220 0.3545 0.0782
H15 H 0.7838 0.3637 0.1912
Zn3 Zn 0.54262(5) 0.47219(6) 0.24391(6)
Br1_2 Br 0.67947(11) 0.13126(7) 0.92102(13)
Zn1_2 Zn 0.52781(6) 0.07043(4) 0.91057(6)
O1 O 0.5112(4) 0.0263(3) 0.7153(4)
N3_2 N 0.4822(6) 0.1547(5) 0.8705(5)
H1_2 H 0.4463 0.9204 0.0023
C1_2 C 0.2185(7) 0.7221(5) 0.1195(7)
H2_2 H 0.2211 0.6980 0.1970
C5_2 C 0.2789(7) 0.8049(5) 0.0945(7)
H5_2 H 0.3227 0.8364 0.1534
H7_2 H 0.3514 0.9731 0.0158
H15_2 H 0.4201 0.7838 0.0245
N2_2 N 0.4340(5) 0.9406(3) 0.9302(4)
C2_2 C 0.1493(7) 0.7088(5) 0.9313(7)
H3_2 H 0.1034 0.6764 0.8760
C3_2 C 0.2099(6) 0.7946(4) 0.8982(7)
H4 H 0.2054 0.8180 0.8211
C4_2 C 0.2759(7) 0.8433(5) 0.9817(7)
C6_2 C 0.3469(6) 0.9337(4) 0.9484(7)
H6_2 H 0.3312 0.9520 0.8706
C7 C 0.4782(6) 0.9473(4) 0.7045(6)
C8 C 0.4351(6) 0.8870(4) 0.8209(6)
H8 H 0.3744 0.8467 0.7979
C9_2 C 0.4773(7) 0.8317(5) 0.8510(7)
H9 H 0.4783 0.8037 0.7710
C10_2 C 0.5713(8) 0.8889(6) 0.8920(9)
H10_2 H 0.5733 0.9196 0.9684
H11 H 0.6030 0.9299 0.8256
H12_2 H 0.5969 0.8534 0.9079
C11_2 C 0.4246(9) 0.7592(6) 0.9454(8)
H13_2 H 0.4529 0.7260 0.9598
H14_2 H 0.3675 0.7220 0.9115
O2 O 0.4780(5) 0.9079(3) 0.6053(4)
Zn2 Zn 0.47219(6) 0.92957(4) 0.41057(6)
Br1_3 Br 0.54821(9) 0.67947(11) 0.75436(13)
Zn1_3 Zn 0.45738(5) 0.52781(6) 0.74391(6)
O1_2 O 0.4849(3) 0.5112(4) 0.5487(4)
N2_3 N 0.4934(4) 0.4340(5) 0.7636(4)
H1_3 H 0.5259 0.4463 0.8357
C1_3 C 0.4964(5) 0.2185(7) 0.9529(7)
C2_3 C 0.4405(5) 0.1493(7) 0.7647(7)
H3_3 H 0.4270 0.1034 0.7094
C3_3 C 0.4153(5) 0.2099(6) 0.7316(7)
H4_2 H 0.3874 0.2054 0.6545
C4_3 C 0.4326(5) 0.2759(7) 0.8151(7)
C5_3 C 0.4740(5) 0.2789(7) 0.9279(7)
H5_3 H 0.4863 0.3227 0.9868
C6_3 C 0.4132(5) 0.3469(6) 0.7818(7)
H6_3 H 0.3792 0.3312 0.7040
H7_3 H 0.3783 0.3514 0.8492
C7_2 C 0.5309(4) 0.4782(6) 0.5379(6)
C8_2 C 0.5481(4) 0.4351(6) 0.6543(6)
H8_2 H 0.5277 0.3744 0.6313
C9_3 C 0.6456(5) 0.4773(7) 0.6844(7)
H9_2 H 0.6746 0.4783 0.6044
C10_3 C 0.6824(6) 0.5713(8) 0.7254(9)
H10_3 H 0.6537 0.5733 0.8018
H11_2 H 0.6731 0.6030 0.6590
H12_3 H 0.7435 0.5969 0.7413
C11_3 C 0.6654(7) 0.4246(9) 0.7788(8)
H13_3 H 0.7269 0.4529 0.7932
H14_3 H 0.6455 0.3675 0.7449
H15_3 H 0.6363 0.4201 0.8579
O2_2 O 0.5701(4) 0.4780(5) 0.4387(4)
N3_3 N 0.3275(3) 0.4822(6) 0.7038(5)
O3_2 O 0.4299(4) 0.5220(5) 0.9387(4)
N2_4 N 0.0594(3) 0.4934(4) 0.5969(4)
H1_4 H 0.0796 0.5259 0.6690
C1_4 C 0.2779(5) 0.4964(5) 0.7862(7)
H2_3 H 0.3020 0.5231 0.8637
C2_4 C 0.2912(5) 0.4405(5) 0.5980(7)
H3_4 H 0.3236 0.4270 0.5427
C3_4 C 0.2054(4) 0.4153(5) 0.5649(7)
H4_3 H 0.1820 0.3874 0.4878
C4_4 C 0.1567(5) 0.4326(5) 0.6484(7)
C5_4 C 0.1951(5) 0.4740(5) 0.7612(7)
H5_4 H 0.1636 0.4863 0.8201
C6_4 C 0.0663(4) 0.4132(5) 0.6151(7)
H6_4 H 0.0480 0.3792 0.5373
H7_4 H 0.0269 0.3783 0.6825
C7_3 C 0.0527(4) 0.5309(4) 0.3712(6)
C8_3 C 0.1130(4) 0.5481(4) 0.4876(6)
H8_3 H 0.1533 0.5277 0.4646
C9_4 C 0.1683(5) 0.6456(5) 0.5177(7)
H9_3 H 0.1963 0.6746 0.4377
C10_4 C 0.1111(6) 0.6824(6) 0.5587(9)
H10_4 H 0.0804 0.6537 0.6351
H11_3 H 0.0701 0.6731 0.4923
H12_4 H 0.1466 0.7435 0.5746
C11_4 C 0.2408(6) 0.6654(7) 0.6121(8)
H13_4 H 0.2740 0.7269 0.6265
H14_4 H 0.2780 0.6455 0.5782
H15_4 H 0.2162 0.6363 0.6912
Br1_4 Br 0.32053(11) 0.86874(7) 0.42102(13)
O1_3 O 0.4888(4) 0.9737(3) 0.2153(4)
N3_4 N 0.5178(6) 0.8453(5) 0.3705(5)
Br1_5 Br 0.45179(9) 0.32053(11) 0.25436(13)
O1_4 O 0.5151(3) 0.4888(4) 0.0487(4)
N2_5 N 0.5066(4) 0.5660(5) 0.2636(4)
H1_5 H 0.4741 0.5537 0.3357
C1_5 C 0.5036(5) 0.7815(7) 0.4529(7)
H2_4 H 0.4769 0.7789 0.5304
C2_5 C 0.5595(5) 0.8507(7) 0.2647(7)
H3_5 H 0.5730 0.8966 0.2094
C3_5 C 0.5847(5) 0.7901(6) 0.2316(7)
H4_4 H 0.6126 0.7946 0.1545
C4_5 C 0.5674(5) 0.7241(7) 0.3151(7)
C5_5 C 0.5260(5) 0.7211(7) 0.4279(7)
H5_5 H 0.5137 0.6773 0.4868
C6_5 C 0.5868(5) 0.6531(6) 0.2818(7)
H6_5 H 0.6208 0.6688 0.2040
H7_5 H 0.6217 0.6486 0.3492
C7_4 C 0.4691(4) 0.5218(6) 0.0379(6)
C8_4 C 0.4519(4) 0.5649(6) 0.1543(6)
H8_4 H 0.4723 0.6256 0.1313
C9_5 C 0.3544(5) 0.5227(7) 0.1844(7)
H9_4 H 0.3254 0.5217 0.1044
C10_5 C 0.3176(6) 0.4287(8) 0.2254(9)
H10_5 H 0.3463 0.4267 0.3018
H11_4 H 0.3269 0.3970 0.1590
H12_5 H 0.2565 0.4031 0.2413
C11_5 C 0.3346(7) 0.5754(9) 0.2788(8)
H13_5 H 0.2731 0.5471 0.2932
H14_5 H 0.3545 0.6325 0.2449
H15_5 H 0.3637 0.5799 0.3579
O1_5 O 0.0263(3) 0.5151(3) 0.8820(4)
H4_5 H 0.8180 0.6126 0.9878
C7_5 C 0.9473(4) 0.4691(4) 0.8712(6)
C8_5 C 0.8870(4) 0.4519(4) 0.9876(6)
H8_5 H 0.8467 0.4723 0.9646
H9_5 H 0.8037 0.3254 0.9377
H11_5 H 0.9299 0.3269 0.9923
O2_3 O 0.9079(3) 0.4299(4) 0.7720(4)
Zn2_2 Zn 0.92957(4) 0.45738(5) 0.57724(6)
O3_3 O 0.5220(5) 0.0921(3) 0.1053(4)
Br1_6 Br 0.86874(7) 0.54821(9) 0.58769(13)
O1_6 O 0.9737(3) 0.4849(3) 0.3820(4)
N3_5 N 0.8453(5) 0.3275(3) 0.5371(5)
N2_6 N 0.5660(5) 0.0594(3) 0.4302(4)
H1_6 H 0.5537 0.0796 0.5023
C1_6 C 0.7815(7) 0.2779(5) 0.6195(7)
H2_5 H 0.7789 0.3020 0.6970
C2_6 C 0.8507(7) 0.2912(5) 0.4313(7)
H3_6 H 0.8966 0.3236 0.3760
C3_6 C 0.7901(6) 0.2054(4) 0.3982(7)
H4_6 H 0.7946 0.1820 0.3211
C4_6 C 0.7241(7) 0.1567(5) 0.4817(7)
C5_6 C 0.7211(7) 0.1951(5) 0.5945(7)
H5_6 H 0.6773 0.1636 0.6534
C6_6 C 0.6531(6) 0.0663(4) 0.4484(7)
H6_6 H 0.6688 0.0480 0.3706
H7_6 H 0.6486 0.0269 0.5158
C7_6 C 0.5218(6) 0.0527(4) 0.2045(6)
C8_6 C 0.5649(6) 0.1130(4) 0.3209(6)
H8_6 H 0.6256 0.1533 0.2979
C9_6 C 0.5227(7) 0.1683(5) 0.3510(7)
H9_6 H 0.5217 0.1963 0.2710
C10_6 C 0.4287(8) 0.1111(6) 0.3920(9)
H10_6 H 0.4267 0.0804 0.4684
H11_6 H 0.3970 0.0701 0.3256
H12_6 H 0.4031 0.1466 0.4079
C11_6 C 0.5754(9) 0.2408(6) 0.4454(8)
H13_6 H 0.5471 0.2740 0.4598
H14_6 H 0.6325 0.2780 0.4115
H15_6 H 0.5799 0.2162 0.5245
H2_6 H 0.5231 0.2211 0.0304
loop_
_geom_bond_atom_site_label_1
_geom_bond_atom_site_label_2
_geom_bond_site_symmetry_1
_geom_bond_site_symmetry_2
Br1 Zn1 1_555 1_555
N3 Zn1 1_555 1_555
O3 Zn1 1_555 1_555
N1 C1 1_555 1_555
H1 N2 1_555 1_555
C1 H2 1_555 1_555
C2 N1 1_555 1_555
H3 C2 1_555 1_555
C3 C2 1_555 1_555
C4 C3 1_555 1_555
C5 C1 1_555 1_555
H5 C5 1_555 1_555
C6 N2 1_555 1_555
H6 C6 1_555 1_555
H7 C6 1_555 1_555
C10 C9 1_555 1_555
H10 C10 1_555 1_555
H12 C10 1_555 1_555
C11 C9 1_555 1_555
H13 C11 1_555 1_555
H14 C11 1_555 1_555
H15 C11 1_555 1_555
Zn3 N1 1_555 1_555
C4 C5 1_555 1_555
C4 C6 1_555 1_555
Br1_2 Zn1_2 1_555 1_555
Zn1_2 O1 1_555 1_555
N3_2 Zn1_2 1_555 1_555
N3 C1_2 1_555 1_555
C1_2 H2_2 1_555 1_555
C5_2 C1_2 1_555 1_555
H5_2 C5_2 1_555 1_555
H3_2 C2_2 1_555 1_555
C3_2 C2_2 1_555 1_555
H4 C3_2 1_555 1_555
C4_2 C3_2 1_555 1_555
C6_2 N2_2 1_555 1_555
H6_2 C6_2 1_555 1_555
C7 C8 1_555 1_555
C8 N2_2 1_555 1_555
H8 C8 1_555 1_555
C9_2 C8 1_555 1_555
H9 C9_2 1_555 1_555
C10_2 C9_2 1_555 1_555
H10_2 C10_2 1_555 1_555
H11 C10_2 1_555 1_555
H12_2 C10_2 1_555 1_555
C11_2 C9_2 1_555 1_555
H13_2 C11_2 1_555 1_555
H14_2 C11_2 1_555 1_555
O2 C7 1_555 1_555
Zn2 O2 1_555 1_555
C4_2 C6_2 1_555 1_555
Br1_3 Zn1_3 1_555 1_555
Zn1_3 O1_2 1_555 1_555
O1_2 C7_2 1_555 1_555
N3_2 C1_3 1_555 1_555
N2_3 Zn1_3 1_555 1_555
H1_3 N2_3 1_555 1_555
C2_3 N3_2 1_555 1_555
H3_3 C2_3 1_555 1_555
C3_3 C2_3 1_555 1_555
H4_2 C3_3 1_555 1_555
C4_3 C3_3 1_555 1_555
C5_3 C1_3 1_555 1_555
H5_3 C5_3 1_555 1_555
C6_3 N2_3 1_555 1_555
H6_3 C6_3 1_555 1_555
H7_3 C6_3 1_555 1_555
C7_2 C8_2 1_555 1_555
C8_2 N2_3 1_555 1_555
H8_2 C8_2 1_555 1_555
C9_3 C8_2 1_555 1_555
H9_2 C9_3 1_555 1_555
C10_3 C9_3 1_555 1_555
H10_3 C10_3 1_555 1_555
H11_2 C10_3 1_555 1_555
H12_3 C10_3 1_555 1_555
C11_3 C9_3 1_555 1_555
H13_3 C11_3 1_555 1_555
H14_3 C11_3 1_555 1_555
H15_3 C11_3 1_555 1_555
O2_2 C7_2 1_555 1_555
Zn3 O2_2 1_555 1_555
N3_3 Zn1_3 1_555 1_555
O3_2 Zn1_3 1_555 1_555
C4_3 C5_3 1_555 1_555
C4_3 C6_3 1_555 1_555
N3_3 C1_4 1_555 1_555
H1_4 N2_4 1_555 1_555
C1_4 H2_3 1_555 1_555
C2_4 N3_3 1_555 1_555
H3_4 C2_4 1_555 1_555
C3_4 C2_4 1_555 1_555
H4_3 C3_4 1_555 1_555
C4_4 C3_4 1_555 1_555
C5_4 C1_4 1_555 1_555
H5_4 C5_4 1_555 1_555
C6_4 N2_4 1_555 1_555
H6_4 C6_4 1_555 1_555
H7_4 C6_4 1_555 1_555
C7_3 C8_3 1_555 1_555
C8_3 N2_4 1_555 1_555
H8_3 C8_3 1_555 1_555
C9_4 C8_3 1_555 1_555
H9_3 C9_4 1_555 1_555
C10_4 C9_4 1_555 1_555
H10_4 C10_4 1_555 1_555
H11_3 C10_4 1_555 1_555
H12_4 C10_4 1_555 1_555
C11_4 C9_4 1_555 1_555
H13_4 C11_4 1_555 1_555
H14_4 C11_4 1_555 1_555
H15_4 C11_4 1_555 1_555
O3 C7_3 1_555 1_555
C4_4 C5_4 1_555 1_555
C4_4 C6_4 1_555 1_555
Br1_4 Zn2 1_555 1_555
Zn2 O1_3 1_555 1_555
N3_4 Zn2 1_555 1_555
Br1_5 Zn3 1_555 1_555
Zn3 O1_4 1_555 1_555
O1_4 C7_4 1_555 1_555
N3_4 C1_5 1_555 1_555
N2_5 Zn3 1_555 1_555
H1_5 N2_5 1_555 1_555
C1_5 H2_4 1_555 1_555
C2_5 N3_4 1_555 1_555
H3_5 C2_5 1_555 1_555
C3_5 C2_5 1_555 1_555
H4_4 C3_5 1_555 1_555
C4_5 C3_5 1_555 1_555
C5_5 C1_5 1_555 1_555
H5_5 C5_5 1_555 1_555
C6_5 N2_5 1_555 1_555
H6_5 C6_5 1_555 1_555
H7_5 C6_5 1_555 1_555
C7_4 C8_4 1_555 1_555
C8_4 N2_5 1_555 1_555
H8_4 C8_4 1_555 1_555
C9_5 C8_4 1_555 1_555
H9_4 C9_5 1_555 1_555
C10_5 C9_5 1_555 1_555
H10_5 C10_5 1_555 1_555
H11_4 C10_5 1_555 1_555
H12_5 C10_5 1_555 1_555
C11_5 C9_5 1_555 1_555
H13_5 C11_5 1_555 1_555
H14_5 C11_5 1_555 1_555
H15_5 C11_5 1_555 1_555
C4_5 C5_5 1_555 1_555
C4_5 C6_5 1_555 1_555
C7_5 C8_5 1_555 1_555
H8_5 C8_5 1_555 1_555
O2_3 C7_5 1_555 1_555
Zn2_2 O2_3 1_555 1_555
Br1_6 Zn2_2 1_555 1_555
Zn2_2 O1_6 1_555 1_555
N3_5 Zn2_2 1_555 1_555
N3_5 C1_6 1_555 1_555
H1_6 N2_6 1_555 1_555
C1_6 H2_5 1_555 1_555
C2_6 N3_5 1_555 1_555
H3_6 C2_6 1_555 1_555
C3_6 C2_6 1_555 1_555
H4_6 C3_6 1_555 1_555
C4_6 C3_6 1_555 1_555
C5_6 C1_6 1_555 1_555
H5_6 C5_6 1_555 1_555
C6_6 N2_6 1_555 1_555
H6_6 C6_6 1_555 1_555
H7_6 C6_6 1_555 1_555
C7_6 C8_6 1_555 1_555
C8_6 N2_6 1_555 1_555
H8_6 C8_6 1_555 1_555
C9_6 C8_6 1_555 1_555
H9_6 C9_6 1_555 1_555
C10_6 C9_6 1_555 1_555
H10_6 C10_6 1_555 1_555
H11_6 C10_6 1_555 1_555
H12_6 C10_6 1_555 1_555
C11_6 C9_6 1_555 1_555
H13_6 C11_6 1_555 1_555
H14_6 C11_6 1_555 1_555
H15_6 C11_6 1_555 1_555
O3_3 C7_6 1_555 1_555
C4_6 C5_6 1_555 1_555
C4_6 C6_6 1_555 1_555

#END
