
###############################################################################
#
# This file contains modified crystal structure data generated from the
# MOF subset of the Cambridge Structural Database (CSD) v543 
# hosted by the Cambridge Crystallographic Data Centre (CCDC).
#
# This work is licensed under the Creative Commons
# Attribution-NonCommercial-ShareAlike 4.0 International License.
# To view a copy of this license, visit
# http://creativecommons.org/licenses/by-nc-sa/4.0/
# or send a letter to
# Creative Commons, PO Box 1866, Mountain View, CA 94042, USA.
#
# CIF created using the CSD Python API on 29 September 2022
# The structure has been converted into the P1 space group
# The structure has a 3D framework
# The original CSD entry IBICUT is in the hexagonal crystal system
# The original CSD entry IBICUT is in a Sohncke space group
# The framework has been calculated to contain at least 10.0% void space
# The void calculation uses a probe of radius 1.32A, grid spacing 0.4
#
###############################################################################

data_IBICUT
_chemical_formula_moiety         '(C66 H90 Cl6 N12 O11 Zn6)n'
_symmetry_cell_setting           triclinic
_symmetry_space_group_name_H-M   'P 1'
_symmetry_Int_Tables_number      1
_space_group_name_Hall           'P 1'
loop_
_symmetry_equiv_pos_site_id
_symmetry_equiv_pos_as_xyz
1 x,y,z
_cell_length_a                   17.7661(15)
_cell_length_b                   17.7661(15)
_cell_length_c                   10.5104(16)
_cell_angle_alpha                90
_cell_angle_beta                 90
_cell_angle_gamma                120
_cell_volume                     2872.99
loop_
_atom_site_label
_atom_site_type_symbol
_atom_site_fract_x
_atom_site_fract_y
_atom_site_fract_z
Zn1 Zn 0.54374(5) 0.47053(5) 0.36838(8)
Cl1 Cl 0.46003(19) 0.32803(15) 0.3602(3)
O1 O 0.4251(4) 0.5152(4) 0.6726(5)
O2 O 0.5168(3) 0.4891(3) 0.5651(4)
N1 N 0.5187(4) 0.8447(4) 0.2419(5)
N2 N 0.5064(3) 0.5652(3) 0.3497(5)
H1 H 0.4747 0.5539 0.2770
C1 C 0.5051(5) 0.7831(6) 0.1583(8)
H2 H 0.4792 0.7815 0.0807
C2 C 0.5561(4) 0.8478(5) 0.3510(7)
H3 H 0.5668 0.8921 0.4079
C3 C 0.5799(5) 0.7877(5) 0.3841(8)
H4 H 0.6051 0.7912 0.4630
C4 C 0.4501(4) 0.5612(5) 0.4591(7)
H5 H 0.4696 0.6214 0.4834
C5 C 0.4667(4) 0.5183(4) 0.5751(6)
C6 C 0.3547(5) 0.5202(5) 0.4263(7)
H6 H 0.3248 0.5182 0.5057
C7 C 0.3183(6) 0.4275(7) 0.3847(10)
H7 H 0.3474 0.4259 0.3087
H8 H 0.2573 0.4022 0.3680
H9 H 0.3271 0.3954 0.4507
C8 C 0.5665(5) 0.7214(5) 0.3000(7)
C9 C 0.5865(5) 0.6506(4) 0.3348(7)
H10 H 0.6225 0.6463 0.2689
H11 H 0.6191 0.6658 0.4138
C10 C 0.3353(6) 0.5752(7) 0.3323(9)
H12 H 0.3647 0.6347 0.3598
H13 H 0.2738 0.5536 0.3297
H14 H 0.3553 0.5716 0.2490
C11 C 0.5284(5) 0.7217(7) 0.1842(8)
H15 H 0.5186 0.6797 0.1235
Zn2 Zn 0.45626(5) 0.52947(5) 0.86838(8)
Zn3 Zn 0.47053(5) 0.92679(7) 0.20171(8)
O3 O 0.5749(4) 0.4848(4) 0.1726(5)
N3 N 0.6740(6) 0.5187(4) 0.4086(5)
Zn2_2 Zn 0.92679(7) 0.45626(5) 0.03505(8)
O1_2 O 0.9099(6) 0.4251(4) 0.8393(5)
N2_2 N 0.9412(4) 0.5064(3) 0.5164(5)
H1_2 H 0.9208 0.4747 0.4437
C1_2 C 0.7220(8) 0.5051(5) 0.3250(8)
H2_2 H 0.6977 0.4792 0.2474
C2_2 C 0.7083(6) 0.5561(4) 0.5177(7)
H3_2 H 0.6747 0.5668 0.5746
C3_2 C 0.7922(7) 0.5799(5) 0.5508(8)
H4_2 H 0.8139 0.6051 0.6297
C4_2 C 0.8889(6) 0.4501(4) 0.6258(7)
H5_2 H 0.8482 0.4696 0.6501
C5_2 C 0.9484(6) 0.4667(4) 0.7418(6)
C6_2 C 0.8345(7) 0.3547(5) 0.5930(7)
H6_2 H 0.8066 0.3248 0.6724
C7_2 C 0.8908(9) 0.3183(6) 0.5514(10)
H7_2 H 0.9215 0.3474 0.4754
H8_2 H 0.8551 0.2573 0.5347
H9_2 H 0.9317 0.3271 0.6174
C8_2 C 0.8451(7) 0.5665(5) 0.4667(7)
C9_2 C 0.9359(6) 0.5865(5) 0.5015(7)
H10_2 H 0.9762 0.6225 0.4356
H11_2 H 0.9533 0.6191 0.5805
C10_2 C 0.7601(9) 0.3353(6) 0.4990(9)
H12_2 H 0.7300 0.3647 0.5265
H13_2 H 0.7202 0.2738 0.4964
H14_2 H 0.7837 0.3553 0.4157
C11_2 C 0.8067(9) 0.5284(5) 0.3509(8)
H15_2 H 0.8389 0.5186 0.2902
Zn1_2 Zn 0.52947(5) 0.07321(7) 0.70171(8)
Cl1_2 Cl 0.67197(15) 0.13200(24) 0.6935(3)
O2_2 O 0.5109(3) 0.0277(4) 0.8984(4)
O3_2 O 0.5152(4) 0.0901(6) 0.5059(5)
N3_2 N 0.4813(4) 0.1553(7) 0.7419(5)
O1_3 O 0.4848(4) 0.9099(6) 0.0059(5)
O2_3 O 0.4832(3) 0.5109(3) 0.0651(4)
C5_3 C 0.5333(4) 0.4817(4) 0.0751(6)
H6_3 H 0.6752 0.4818 0.0057
Cl1_3 Cl 0.53997(19) 0.67197(15) 0.8602(3)
N2_3 N 0.4936(3) 0.4348(3) 0.8497(5)
H1_3 H 0.5253 0.4461 0.7770
C1_3 C 0.4949(5) 0.2169(6) 0.6583(8)
H2_3 H 0.5208 0.2185 0.5807
C2_3 C 0.4439(4) 0.1522(5) 0.8510(7)
H3_3 H 0.4332 0.1079 0.9079
C3_3 C 0.4201(5) 0.2123(5) 0.8841(8)
H4_3 H 0.3949 0.2088 0.9630
C4_3 C 0.5499(4) 0.4388(5) 0.9591(7)
H5_3 H 0.5304 0.3786 0.9834
C6_3 C 0.6453(5) 0.4798(5) 0.9263(7)
C7_3 C 0.6817(6) 0.5725(7) 0.8847(10)
H7_3 H 0.6526 0.5741 0.8087
H8_3 H 0.7427 0.5978 0.8680
H9_3 H 0.6729 0.6046 0.9507
C8_3 C 0.4335(5) 0.2786(5) 0.8000(7)
C9_3 C 0.4135(5) 0.3494(4) 0.8348(7)
H10_3 H 0.3775 0.3537 0.7689
H11_3 H 0.3809 0.3342 0.9138
C10_3 C 0.6647(6) 0.4248(7) 0.8323(9)
H12_3 H 0.6353 0.3653 0.8598
H13_3 H 0.7262 0.4464 0.8297
H14_3 H 0.6447 0.4284 0.7490
C11_3 C 0.4716(5) 0.2783(7) 0.6842(8)
H15_3 H 0.4814 0.3203 0.6235
N3_3 N 0.3260(6) 0.4813(4) 0.9086(5)
H1_4 H 0.0792 0.5253 0.9437
C1_4 C 0.2780(8) 0.4949(5) 0.8250(8)
H2_4 H 0.3023 0.5208 0.7474
H7_4 H 0.0785 0.6526 0.9754
C8_4 C 0.1549(7) 0.4335(5) 0.9667(7)
H10_4 H 0.0238 0.3775 0.9356
C10_4 C 0.2399(9) 0.6647(6) 0.9990(9)
H13_4 H 0.2798 0.7262 0.9964
H14_4 H 0.2163 0.6447 0.9157
C11_4 C 0.1933(9) 0.4716(5) 0.8509(8)
H15_4 H 0.1611 0.4814 0.7902
Cl1_4 Cl 0.86800(24) 0.53997(19) 0.0269(3)
O2_4 O 0.9723(4) 0.4832(3) 0.2318(4)
N3_4 N 0.8447(7) 0.3260(6) 0.0752(5)
N2_4 N 0.5652(3) 0.0588(4) 0.1830(5)
H1_5 H 0.5539 0.0792 0.1103
C2_4 C 0.8478(5) 0.2917(6) 0.1843(7)
H3_4 H 0.8921 0.3253 0.2412
C3_4 C 0.7877(5) 0.2078(7) 0.2174(8)
H4_4 H 0.7912 0.1861 0.2963
C4_4 C 0.5612(5) 0.1111(6) 0.2924(7)
H5_4 H 0.6214 0.1518 0.3167
C5_4 C 0.5183(4) 0.0516(6) 0.4084(6)
C6_4 C 0.5202(5) 0.1655(7) 0.2596(7)
H6_4 H 0.5182 0.1934 0.3390
C7_4 C 0.4275(7) 0.1092(9) 0.2180(10)
H7_5 H 0.4259 0.0785 0.1420
H8_4 H 0.4022 0.1449 0.2013
H9_4 H 0.3954 0.0683 0.2840
C8_5 C 0.7214(5) 0.1549(7) 0.1333(7)
C9_4 C 0.6506(4) 0.0641(6) 0.1681(7)
H10_5 H 0.6463 0.0238 0.1022
H11_4 H 0.6658 0.0467 0.2471
C10_5 C 0.5752(7) 0.2399(9) 0.1656(9)
H12_4 H 0.6347 0.2700 0.1931
H13_5 H 0.5536 0.2798 0.1630
H14_5 H 0.5716 0.2163 0.0823
C11_5 C 0.7217(7) 0.1933(9) 0.0175(8)
Cl1_5 Cl 0.32803(15) 0.86800(24) 0.1935(3)
O2_5 O 0.4891(3) 0.9723(4) 0.3984(4)
Zn1_3 Zn 0.07321(7) 0.54374(5) 0.53505(8)
Cl1_6 Cl 0.13200(24) 0.46003(19) 0.5269(3)
O2_6 O 0.0277(4) 0.5168(3) 0.7318(4)
O3_3 O 0.0901(6) 0.5749(4) 0.3393(5)
N3_5 N 0.1553(7) 0.6740(6) 0.5752(5)
N2_5 N 0.4348(3) 0.9412(4) 0.6830(5)
H1_6 H 0.4461 0.9208 0.6103
C1_5 C 0.2169(6) 0.7220(8) 0.4916(8)
H2_5 H 0.2185 0.6977 0.4140
C2_5 C 0.1522(5) 0.7083(6) 0.6843(7)
H3_5 H 0.1079 0.6747 0.7412
C3_5 C 0.2123(5) 0.7922(7) 0.7174(8)
H4_5 H 0.2088 0.8139 0.7963
C4_5 C 0.4388(5) 0.8889(6) 0.7924(7)
H5_5 H 0.3786 0.8482 0.8167
C5_5 C 0.4817(4) 0.9484(6) 0.9084(6)
C6_5 C 0.4798(5) 0.8345(7) 0.7596(7)
H6_5 H 0.4818 0.8066 0.8390
C7_5 C 0.5725(7) 0.8908(9) 0.7180(10)
H7_6 H 0.5741 0.9215 0.6420
H8_5 H 0.5978 0.8551 0.7013
H9_5 H 0.6046 0.9317 0.7840
C8_6 C 0.2786(5) 0.8451(7) 0.6333(7)
C9_5 C 0.3494(4) 0.9359(6) 0.6681(7)
H10_6 H 0.3537 0.9762 0.6022
H11_5 H 0.3342 0.9533 0.7471
C10_6 C 0.4248(7) 0.7601(9) 0.6656(9)
H12_5 H 0.3653 0.7300 0.6931
H13_6 H 0.4464 0.7202 0.6630
H14_6 H 0.4284 0.7837 0.5823
C11_6 C 0.2783(7) 0.8067(9) 0.5175(8)
H15_5 H 0.3203 0.8389 0.4568
N2_6 N 0.0588(4) 0.4936(3) 0.0164(5)
C2_6 C 0.2917(6) 0.4439(4) 0.0177(7)
H3_6 H 0.3253 0.4332 0.0746
C3_6 C 0.2078(7) 0.4201(5) 0.0508(8)
H4_6 H 0.1861 0.3949 0.1297
C4_6 C 0.1111(6) 0.5499(4) 0.1258(7)
H5_6 H 0.1518 0.5304 0.1501
C5_6 C 0.0516(6) 0.5333(4) 0.2418(6)
C6_6 C 0.1655(7) 0.6453(5) 0.0930(7)
H6_6 H 0.1934 0.6752 0.1724
C7_6 C 0.1092(9) 0.6817(6) 0.0514(10)
H8_6 H 0.1449 0.7427 0.0347
H9_6 H 0.0683 0.6729 0.1174
C9_6 C 0.0641(6) 0.4135(5) 0.0015(7)
H11_6 H 0.0467 0.3809 0.0805
H12_6 H 0.2700 0.6353 0.0265
C1_6 C 0.7831(6) 0.2780(8) 0.9916(8)
H2_6 H 0.7815 0.3023 0.9140
H15_6 H 0.6797 0.1611 0.9568
loop_
_geom_bond_atom_site_label_1
_geom_bond_atom_site_label_2
_geom_bond_site_symmetry_1
_geom_bond_site_symmetry_2
Zn1 Cl1 1_555 1_555
O1 C5 1_555 1_555
O2 Zn1 1_555 1_555
N1 C1 1_555 1_555
N2 Zn1 1_555 1_555
H1 N2 1_555 1_555
C1 H2 1_555 1_555
C2 N1 1_555 1_555
H3 C2 1_555 1_555
C3 C2 1_555 1_555
H4 C3 1_555 1_555
C4 N2 1_555 1_555
H5 C4 1_555 1_555
C5 O2 1_555 1_555
C6 C4 1_555 1_555
H6 C6 1_555 1_555
C7 C6 1_555 1_555
H7 C7 1_555 1_555
H8 C7 1_555 1_555
H9 C7 1_555 1_555
C8 C3 1_555 1_555
C9 N2 1_555 1_555
H10 C9 1_555 1_555
H11 C9 1_555 1_555
C10 C6 1_555 1_555
H12 C10 1_555 1_555
H13 C10 1_555 1_555
H14 C10 1_555 1_555
C11 C1 1_555 1_555
H15 C11 1_555 1_555
Zn2 O1 1_555 1_555
Zn3 N1 1_555 1_555
O3 Zn1 1_555 1_555
N3 Zn1 1_555 1_555
C4 C5 1_555 1_555
C8 C9 1_555 1_555
C8 C11 1_555 1_555
O1_2 C5_2 1_555 1_555
N3 C1_2 1_555 1_555
H1_2 N2_2 1_555 1_555
C1_2 H2_2 1_555 1_555
C2_2 N3 1_555 1_555
H3_2 C2_2 1_555 1_555
C3_2 C2_2 1_555 1_555
H4_2 C3_2 1_555 1_555
C4_2 N2_2 1_555 1_555
H5_2 C4_2 1_555 1_555
C6_2 C4_2 1_555 1_555
H6_2 C6_2 1_555 1_555
C7_2 C6_2 1_555 1_555
H7_2 C7_2 1_555 1_555
H8_2 C7_2 1_555 1_555
H9_2 C7_2 1_555 1_555
C8_2 C3_2 1_555 1_555
C9_2 N2_2 1_555 1_555
H10_2 C9_2 1_555 1_555
H11_2 C9_2 1_555 1_555
C10_2 C6_2 1_555 1_555
H12_2 C10_2 1_555 1_555
H13_2 C10_2 1_555 1_555
H14_2 C10_2 1_555 1_555
C11_2 C1_2 1_555 1_555
H15_2 C11_2 1_555 1_555
C4_2 C5_2 1_555 1_555
C8_2 C9_2 1_555 1_555
C8_2 C11_2 1_555 1_555
Zn1_2 Cl1_2 1_555 1_555
O2_2 Zn1_2 1_555 1_555
O3_2 Zn1_2 1_555 1_555
N3_2 Zn1_2 1_555 1_555
Zn3 O1_3 1_555 1_555
O3 C5_3 1_555 1_555
C5_3 O2_3 1_555 1_555
Zn2 Cl1_3 1_555 1_555
N3_2 C1_3 1_555 1_555
N2_3 Zn2 1_555 1_555
H1_3 N2_3 1_555 1_555
C1_3 H2_3 1_555 1_555
C2_3 N3_2 1_555 1_555
H3_3 C2_3 1_555 1_555
C3_3 C2_3 1_555 1_555
H4_3 C3_3 1_555 1_555
C4_3 N2_3 1_555 1_555
H5_3 C4_3 1_555 1_555
C6_3 C4_3 1_555 1_555
C7_3 C6_3 1_555 1_555
H7_3 C7_3 1_555 1_555
H8_3 C7_3 1_555 1_555
H9_3 C7_3 1_555 1_555
C8_3 C3_3 1_555 1_555
C9_3 N2_3 1_555 1_555
H10_3 C9_3 1_555 1_555
H11_3 C9_3 1_555 1_555
C10_3 C6_3 1_555 1_555
H12_3 C10_3 1_555 1_555
H13_3 C10_3 1_555 1_555
H14_3 C10_3 1_555 1_555
C11_3 C1_3 1_555 1_555
H15_3 C11_3 1_555 1_555
N3_3 Zn2 1_555 1_555
C8_3 C9_3 1_555 1_555
C8_3 C11_3 1_555 1_555
N3_3 C1_4 1_555 1_555
C1_4 H2_4 1_555 1_555
H13_4 C10_4 1_555 1_555
H14_4 C10_4 1_555 1_555
C11_4 C1_4 1_555 1_555
H15_4 C11_4 1_555 1_555
C8_4 C11_4 1_555 1_555
Zn2_2 Cl1_4 1_555 1_555
O2_4 Zn2_2 1_555 1_555
N3_4 Zn2_2 1_555 1_555
O3_2 C5_4 1_555 1_555
H1_5 N2_4 1_555 1_555
C2_4 N3_4 1_555 1_555
H3_4 C2_4 1_555 1_555
C3_4 C2_4 1_555 1_555
H4_4 C3_4 1_555 1_555
C4_4 N2_4 1_555 1_555
H5_4 C4_4 1_555 1_555
C6_4 C4_4 1_555 1_555
H6_4 C6_4 1_555 1_555
C7_4 C6_4 1_555 1_555
H7_5 C7_4 1_555 1_555
H8_4 C7_4 1_555 1_555
H9_4 C7_4 1_555 1_555
C8_5 C3_4 1_555 1_555
C9_4 N2_4 1_555 1_555
H10_5 C9_4 1_555 1_555
H11_4 C9_4 1_555 1_555
C10_5 C6_4 1_555 1_555
H12_4 C10_5 1_555 1_555
H13_5 C10_5 1_555 1_555
H14_5 C10_5 1_555 1_555
C4_4 C5_4 1_555 1_555
C8_5 C9_4 1_555 1_555
C8_5 C11_5 1_555 1_555
Zn3 Cl1_5 1_555 1_555
O2_5 Zn3 1_555 1_555
Zn1_3 Cl1_6 1_555 1_555
O2_6 Zn1_3 1_555 1_555
O3_3 Zn1_3 1_555 1_555
N3_5 Zn1_3 1_555 1_555
N3_5 C1_5 1_555 1_555
H1_6 N2_5 1_555 1_555
C1_5 H2_5 1_555 1_555
C2_5 N3_5 1_555 1_555
H3_5 C2_5 1_555 1_555
C3_5 C2_5 1_555 1_555
H4_5 C3_5 1_555 1_555
C4_5 N2_5 1_555 1_555
H5_5 C4_5 1_555 1_555
C6_5 C4_5 1_555 1_555
H6_5 C6_5 1_555 1_555
C7_5 C6_5 1_555 1_555
H7_6 C7_5 1_555 1_555
H8_5 C7_5 1_555 1_555
H9_5 C7_5 1_555 1_555
C8_6 C3_5 1_555 1_555
C9_5 N2_5 1_555 1_555
H10_6 C9_5 1_555 1_555
H11_5 C9_5 1_555 1_555
C10_6 C6_5 1_555 1_555
H12_5 C10_6 1_555 1_555
H13_6 C10_6 1_555 1_555
H14_6 C10_6 1_555 1_555
C11_6 C1_5 1_555 1_555
H15_5 C11_6 1_555 1_555
C4_5 C5_5 1_555 1_555
C8_6 C9_5 1_555 1_555
C8_6 C11_6 1_555 1_555
O3_3 C5_6 1_555 1_555
H3_6 C2_6 1_555 1_555
C3_6 C2_6 1_555 1_555
H4_6 C3_6 1_555 1_555
C4_6 N2_6 1_555 1_555
H5_6 C4_6 1_555 1_555
C6_6 C4_6 1_555 1_555
H6_6 C6_6 1_555 1_555
C7_6 C6_6 1_555 1_555
H8_6 C7_6 1_555 1_555
H9_6 C7_6 1_555 1_555
C9_6 N2_6 1_555 1_555
H11_6 C9_6 1_555 1_555
C4_6 C5_6 1_555 1_555
C1_6 H2_6 1_555 1_555

#END
