
###############################################################################
#
# This file contains modified crystal structure data generated from the
# MOF subset of the Cambridge Structural Database (CSD) v543 
# hosted by the Cambridge Crystallographic Data Centre (CCDC).
#
# This work is licensed under the Creative Commons
# Attribution-NonCommercial-ShareAlike 4.0 International License.
# To view a copy of this license, visit
# http://creativecommons.org/licenses/by-nc-sa/4.0/
# or send a letter to
# Creative Commons, PO Box 1866, Mountain View, CA 94042, USA.
#
# CIF created using the CSD Python API on 29 September 2022
# The structure has been converted into the P1 space group
# The structure has a 3D framework
# The original CSD entry IBICIH is in the hexagonal crystal system
# The original CSD entry IBICIH is in a Sohncke space group
# The framework has been calculated to contain at least 10.0% void space
# The void calculation uses a probe of radius 1.32A, grid spacing 0.4
#
###############################################################################

data_IBICIH
_chemical_formula_moiety         '(C66 H90 Cl6 N12 O12 Zn6)n'
_symmetry_cell_setting           triclinic
_symmetry_space_group_name_H-M   'P 1'
_symmetry_Int_Tables_number      1
_space_group_name_Hall           'P 1'
loop_
_symmetry_equiv_pos_site_id
_symmetry_equiv_pos_as_xyz
1 x,y,z
_cell_length_a                   17.703(2)
_cell_length_b                   17.703(2)
_cell_length_c                   10.585(5)
_cell_angle_alpha                90
_cell_angle_beta                 90
_cell_angle_gamma                120
_cell_volume                     2872.87
loop_
_atom_site_label
_atom_site_type_symbol
_atom_site_fract_x
_atom_site_fract_y
_atom_site_fract_z
N1 N 0.4848(2) 0.1545(3) 0.1090(3)
N2 N 0.4974(2) 0.4368(2) 0.0016(3)
H1 H 0.5310 0.4497 0.0723
C2 C 0.4170(3) 0.3515(3) 0.0213(4)
H3 H 0.3833 0.3571 0.0892
C3 C 0.4353(3) 0.2792(3) 0.0532(4)
C4 C 0.4802(5) 0.2837(3) 0.1669(4)
H4 H 0.4935 0.3281 0.2249
C6 C 0.4416(3) 0.1507(3) 0.0045(4)
C7 C 0.5038(4) 0.2218(4) 0.1903(4)
H7 H 0.5340 0.2260 0.2643
C10 C 0.6703(4) 0.4285(5) 0.0126(5)
H10 H 0.6430 0.4251 0.0924
H11 H 0.7324 0.4573 0.0236
H13 H 0.6537 0.5777 0.0292
Zn3 Zn 0.53095(3) 0.07109(4) 0.14721(5)
O3 O 0.4338(2) 0.5275(3) 0.1747(3)
Zn1 Zn 0.45986(3) 0.53095(3) 0.98054(5)
Cl1 Cl 0.54560(11) 0.67676(9) 0.97990(15)
O1 O 0.5662(2) 0.4725(3) 0.6747(3)
O2 O 0.4851(2) 0.5118(2) 0.7863(3)
C1 C 0.5319(3) 0.4781(3) 0.7752(4)
H2 H 0.3818 0.3359 0.9451
C5 C 0.4162(3) 0.2106(3) 0.9726(5)
H5 H 0.3865 0.2047 0.8975
H6 H 0.4275 0.1048 0.9490
C8 C 0.5499(3) 0.4363(3) 0.8915(4)
H8 H 0.5298 0.3752 0.8706
C9 C 0.6477(3) 0.4805(3) 0.9187(4)
H9 H 0.6759 0.4811 0.8387
H12 H 0.6496 0.3708 0.9804
C11 C 0.6855(4) 0.5744(4) 0.9580(6)
H14 H 0.6811 0.6073 0.8890
H15 H 0.7456 0.5981 0.9807
Zn2 Zn 0.54014(3) 0.46905(3) 0.48054(5)
N3 N 0.3303(4) 0.4848(2) 0.9423(3)
O1_2 O 0.0937(4) 0.5662(2) 0.5080(3)
N2_2 N 0.0606(3) 0.4974(2) 0.8349(3)
H1_2 H 0.0813 0.5310 0.9056
C1_2 C 0.0538(4) 0.5319(3) 0.6085(4)
C2_2 C 0.0655(4) 0.4170(3) 0.8546(4)
H2_2 H 0.0459 0.3818 0.7784
H3_2 H 0.0262 0.3833 0.9225
C3_2 C 0.1561(4) 0.4353(3) 0.8865(4)
C5_2 C 0.2056(4) 0.4162(3) 0.8059(5)
H5_2 H 0.1818 0.3865 0.7308
C6_2 C 0.2909(4) 0.4416(3) 0.8378(4)
H6_2 H 0.3227 0.4275 0.7823
C8_2 C 0.1136(4) 0.5499(3) 0.7248(4)
H8_2 H 0.1546 0.5298 0.7039
C9_2 C 0.1672(4) 0.6477(3) 0.7520(4)
H9_2 H 0.1948 0.6759 0.6720
C10_2 C 0.2418(6) 0.6703(4) 0.8459(5)
H10_2 H 0.2179 0.6430 0.9257
H11_2 H 0.2751 0.7324 0.8569
H12_2 H 0.2788 0.6496 0.8137
C11_2 C 0.1111(6) 0.6855(4) 0.7913(6)
H13_2 H 0.0760 0.6537 0.8625
H14_2 H 0.0738 0.6811 0.7223
H15_2 H 0.1475 0.7456 0.8140
Zn2_2 Zn 0.07109(4) 0.54014(3) 0.31387(5)
O3_2 O 0.9063(4) 0.4338(2) 0.0080(3)
Zn1_2 Zn 0.92891(4) 0.45986(3) 0.81387(5)
Cl1_2 Cl 0.86884(14) 0.54560(11) 0.81323(15)
O2_2 O 0.9733(3) 0.4851(2) 0.6196(3)
N3_2 N 0.8455(4) 0.3303(4) 0.7757(3)
O1_3 O 0.5275(3) 0.0937(4) 0.3414(3)
N2_3 N 0.5632(2) 0.0606(3) 0.6683(3)
H1_3 H 0.5503 0.0813 0.7390
C1_3 C 0.5219(3) 0.0538(4) 0.4419(4)
C2_3 C 0.6485(3) 0.0655(4) 0.6880(4)
H2_3 H 0.6641 0.0459 0.6118
H3_3 H 0.6429 0.0262 0.7559
C3_3 C 0.7208(3) 0.1561(4) 0.7199(4)
C4_2 C 0.7163(3) 0.1965(6) 0.8336(4)
H4_2 H 0.6719 0.1654 0.8916
C5_3 C 0.7894(3) 0.2056(4) 0.6393(5)
H5_3 H 0.7953 0.1818 0.5642
C6_3 C 0.8493(3) 0.2909(4) 0.6712(4)
H6_3 H 0.8952 0.3227 0.6157
C7_2 C 0.7782(4) 0.2820(6) 0.8570(4)
H7_2 H 0.7740 0.3080 0.9310
C8_3 C 0.5637(3) 0.1136(4) 0.5582(4)
H8_3 H 0.6248 0.1546 0.5373
C9_3 C 0.5195(3) 0.1672(4) 0.5854(4)
H9_3 H 0.5189 0.1948 0.5054
C10_3 C 0.5715(5) 0.2418(6) 0.6793(5)
H10_3 H 0.5749 0.2179 0.7591
H11_3 H 0.5427 0.2751 0.6903
H12_3 H 0.6292 0.2788 0.6471
C11_3 C 0.4256(4) 0.1111(6) 0.6247(6)
H13_3 H 0.4223 0.0760 0.6959
H14_3 H 0.3927 0.0738 0.5557
H15_3 H 0.4019 0.1475 0.6474
Zn1_3 Zn 0.46905(3) 0.92891(4) 0.64721(5)
Cl1_3 Cl 0.32324(9) 0.86884(14) 0.64657(15)
O2_3 O 0.4882(2) 0.9733(3) 0.4530(3)
O3_3 O 0.4725(3) 0.9063(4) 0.8414(3)
N3_3 N 0.5152(2) 0.8455(4) 0.6090(3)
Cl1_4 Cl 0.45440(11) 0.32324(9) 0.47990(15)
O2_4 O 0.5149(2) 0.4882(2) 0.2863(3)
N2_4 N 0.5026(2) 0.5632(2) 0.5016(3)
H1_4 H 0.4690 0.5503 0.5723
C1_4 C 0.4681(3) 0.5219(3) 0.2752(4)
C2_4 C 0.5830(3) 0.6485(3) 0.5213(4)
H2_4 H 0.6182 0.6641 0.4451
H3_4 H 0.6167 0.6429 0.5892
C3_4 C 0.5647(3) 0.7208(3) 0.5532(4)
C4_3 C 0.5198(5) 0.7163(3) 0.6669(4)
H4_3 H 0.5065 0.6719 0.7249
C5_4 C 0.5838(3) 0.7894(3) 0.4726(5)
H5_4 H 0.6135 0.7953 0.3975
C6_4 C 0.5584(3) 0.8493(3) 0.5045(4)
H6_4 H 0.5725 0.8952 0.4490
C7_3 C 0.4962(4) 0.7782(4) 0.6903(4)
H7_3 H 0.4660 0.7740 0.7643
C8_4 C 0.4501(3) 0.5637(3) 0.3915(4)
H8_4 H 0.4702 0.6248 0.3706
C9_4 C 0.3523(3) 0.5195(3) 0.4187(4)
H9_4 H 0.3241 0.5189 0.3387
C10_4 C 0.3297(4) 0.5715(5) 0.5126(5)
H10_4 H 0.3570 0.5749 0.5924
H11_4 H 0.2676 0.5427 0.5236
H12_4 H 0.3504 0.6292 0.4804
C11_4 C 0.3145(4) 0.4256(4) 0.4580(6)
H13_4 H 0.3463 0.4223 0.5292
H14_4 H 0.3189 0.3927 0.3890
H15_4 H 0.2544 0.4019 0.4807
N3_4 N 0.6697(4) 0.5152(2) 0.4423(3)
Cl1_5 Cl 0.13116(14) 0.45440(11) 0.31323(15)
O2_5 O 0.0267(3) 0.5149(2) 0.1196(3)
N3_5 N 0.1545(4) 0.6697(4) 0.2757(3)
N2_5 N 0.9394(3) 0.5026(2) 0.3349(3)
H1_5 H 0.9187 0.4690 0.4056
C1_5 C 0.9462(4) 0.4681(3) 0.1085(4)
C2_5 C 0.9345(4) 0.5830(3) 0.3546(4)
H2_5 H 0.9541 0.6182 0.2784
H3_5 H 0.9738 0.6167 0.4225
C3_5 C 0.8439(4) 0.5647(3) 0.3865(4)
C4_4 C 0.8035(6) 0.5198(5) 0.5002(4)
H4_4 H 0.8346 0.5065 0.5582
C5_5 C 0.7944(4) 0.5838(3) 0.3059(5)
H5_5 H 0.8182 0.6135 0.2308
C6_5 C 0.7091(4) 0.5584(3) 0.3378(4)
H6_5 H 0.6773 0.5725 0.2823
C7_4 C 0.7180(6) 0.4962(4) 0.5236(4)
H7_4 H 0.6920 0.4660 0.5976
C8_5 C 0.8864(4) 0.4501(3) 0.2248(4)
H8_5 H 0.8454 0.4702 0.2039
C9_5 C 0.8328(4) 0.3523(3) 0.2520(4)
H9_5 H 0.8052 0.3241 0.1720
C10_5 C 0.7582(6) 0.3297(4) 0.3459(5)
H10_5 H 0.7821 0.3570 0.4257
H11_5 H 0.7249 0.2676 0.3569
H12_5 H 0.7212 0.3504 0.3137
C11_5 C 0.8889(6) 0.3145(4) 0.2913(6)
H13_5 H 0.9240 0.3463 0.3625
H14_5 H 0.9262 0.3189 0.2223
H15_5 H 0.8525 0.2544 0.3140
Cl1_6 Cl 0.67676(9) 0.13116(14) 0.14657(15)
N2_6 N 0.4368(2) 0.9394(3) 0.1683(3)
H1_6 H 0.4497 0.9187 0.2390
C2_6 C 0.3515(3) 0.9345(4) 0.1880(4)
H2_6 H 0.3359 0.9541 0.1118
H3_6 H 0.3571 0.9738 0.2559
C3_6 C 0.2792(3) 0.8439(4) 0.2199(4)
C4_5 C 0.2837(3) 0.8035(6) 0.3336(4)
H4_5 H 0.3281 0.8346 0.3916
C5_6 C 0.2106(3) 0.7944(4) 0.1393(5)
H5_6 H 0.2047 0.8182 0.0642
C6_6 C 0.1507(3) 0.7091(4) 0.1712(4)
H6_6 H 0.1048 0.6773 0.1157
C7_5 C 0.2218(4) 0.7180(6) 0.3570(4)
H7_5 H 0.2260 0.6920 0.4310
C8_6 C 0.4363(3) 0.8864(4) 0.0582(4)
H8_6 H 0.3752 0.8454 0.0373
C9_6 C 0.4805(3) 0.8328(4) 0.0854(4)
H9_6 H 0.4811 0.8052 0.0054
C10_6 C 0.4285(5) 0.7582(6) 0.1793(5)
H10_6 H 0.4251 0.7821 0.2591
H11_6 H 0.4573 0.7249 0.1903
H12_6 H 0.3708 0.7212 0.1471
C11_6 C 0.5744(4) 0.8889(6) 0.1247(6)
H13_6 H 0.5777 0.9240 0.1959
H14_6 H 0.6073 0.9262 0.0557
H15_6 H 0.5981 0.8525 0.1474
C1_6 C 0.4781(3) 0.9462(4) 0.9419(4)
C4_6 C 0.1965(6) 0.4802(5) 0.0002(4)
H4_6 H 0.1654 0.4935 0.0582
C7_6 C 0.2820(6) 0.5038(4) 0.0236(4)
H7_6 H 0.3080 0.5340 0.0976
O2_6 O 0.5118(2) 0.0267(3) 0.9530(3)
loop_
_geom_bond_atom_site_label_1
_geom_bond_atom_site_label_2
_geom_bond_site_symmetry_1
_geom_bond_site_symmetry_2
N1 C6 1_555 1_555
H1 N2 1_555 1_555
C2 N2 1_555 1_555
H3 C2 1_555 1_555
C3 C2 1_555 1_555
C4 C3 1_555 1_555
H4 C4 1_555 1_555
C7 N1 1_555 1_555
H7 C7 1_555 1_555
H10 C10 1_555 1_555
H11 C10 1_555 1_555
Zn3 N1 1_555 1_555
C4 C7 1_555 1_555
Zn1 Cl1 1_555 1_555
O1 C1 1_555 1_555
O2 Zn1 1_555 1_555
C1 O2 1_555 1_555
H5 C5 1_555 1_555
H8 C8 1_555 1_555
C9 C8 1_555 1_555
H9 C9 1_555 1_555
C11 C9 1_555 1_555
H14 C11 1_555 1_555
H15 C11 1_555 1_555
Zn2 O1 1_555 1_555
N3 Zn1 1_555 1_555
C1 C8 1_555 1_555
O1_2 C1_2 1_555 1_555
N3 C6_2 1_555 1_555
H1_2 N2_2 1_555 1_555
C2_2 N2_2 1_555 1_555
H2_2 C2_2 1_555 1_555
H3_2 C2_2 1_555 1_555
C3_2 C2_2 1_555 1_555
C5_2 C3_2 1_555 1_555
H5_2 C5_2 1_555 1_555
C6_2 C5_2 1_555 1_555
H6_2 C6_2 1_555 1_555
C8_2 N2_2 1_555 1_555
H8_2 C8_2 1_555 1_555
C9_2 C8_2 1_555 1_555
H9_2 C9_2 1_555 1_555
C10_2 C9_2 1_555 1_555
H10_2 C10_2 1_555 1_555
H11_2 C10_2 1_555 1_555
H12_2 C10_2 1_555 1_555
C11_2 C9_2 1_555 1_555
H13_2 C11_2 1_555 1_555
H14_2 C11_2 1_555 1_555
H15_2 C11_2 1_555 1_555
Zn2_2 O1_2 1_555 1_555
C1_2 C8_2 1_555 1_555
Zn1_2 Cl1_2 1_555 1_555
O2_2 Zn1_2 1_555 1_555
N3_2 Zn1_2 1_555 1_555
O1_3 C1_3 1_555 1_555
N3_2 C6_3 1_555 1_555
H1_3 N2_3 1_555 1_555
C2_3 N2_3 1_555 1_555
H2_3 C2_3 1_555 1_555
H3_3 C2_3 1_555 1_555
C3_3 C2_3 1_555 1_555
C4_2 C3_3 1_555 1_555
H4_2 C4_2 1_555 1_555
C5_3 C3_3 1_555 1_555
H5_3 C5_3 1_555 1_555
C6_3 C5_3 1_555 1_555
H6_3 C6_3 1_555 1_555
C7_2 N3_2 1_555 1_555
H7_2 C7_2 1_555 1_555
C8_3 N2_3 1_555 1_555
H8_3 C8_3 1_555 1_555
C9_3 C8_3 1_555 1_555
H9_3 C9_3 1_555 1_555
C10_3 C9_3 1_555 1_555
H10_3 C10_3 1_555 1_555
H11_3 C10_3 1_555 1_555
H12_3 C10_3 1_555 1_555
C11_3 C9_3 1_555 1_555
H13_3 C11_3 1_555 1_555
H14_3 C11_3 1_555 1_555
H15_3 C11_3 1_555 1_555
Zn3 O1_3 1_555 1_555
C1_3 C8_3 1_555 1_555
C4_2 C7_2 1_555 1_555
Zn1_3 Cl1_3 1_555 1_555
O2_3 Zn1_3 1_555 1_555
O3_3 Zn1_3 1_555 1_555
N3_3 Zn1_3 1_555 1_555
Zn2 Cl1_4 1_555 1_555
O3 C1_4 1_555 1_555
O2_4 Zn2 1_555 1_555
N3_3 C6_4 1_555 1_555
N2_4 Zn2 1_555 1_555
H1_4 N2_4 1_555 1_555
C1_4 O2_4 1_555 1_555
C2_4 N2_4 1_555 1_555
H2_4 C2_4 1_555 1_555
H3_4 C2_4 1_555 1_555
C3_4 C2_4 1_555 1_555
C4_3 C3_4 1_555 1_555
H4_3 C4_3 1_555 1_555
C5_4 C3_4 1_555 1_555
H5_4 C5_4 1_555 1_555
C6_4 C5_4 1_555 1_555
H6_4 C6_4 1_555 1_555
C7_3 N3_3 1_555 1_555
H7_3 C7_3 1_555 1_555
C8_4 N2_4 1_555 1_555
H8_4 C8_4 1_555 1_555
C9_4 C8_4 1_555 1_555
H9_4 C9_4 1_555 1_555
C10_4 C9_4 1_555 1_555
H10_4 C10_4 1_555 1_555
H11_4 C10_4 1_555 1_555
H12_4 C10_4 1_555 1_555
C11_4 C9_4 1_555 1_555
H13_4 C11_4 1_555 1_555
H14_4 C11_4 1_555 1_555
H15_4 C11_4 1_555 1_555
N3_4 Zn2 1_555 1_555
C1_4 C8_4 1_555 1_555
C4_3 C7_3 1_555 1_555
Zn2_2 Cl1_5 1_555 1_555
O2_5 Zn2_2 1_555 1_555
N3_5 Zn2_2 1_555 1_555
O3_2 C1_5 1_555 1_555
N3_4 C6_5 1_555 1_555
H1_5 N2_5 1_555 1_555
C2_5 N2_5 1_555 1_555
H2_5 C2_5 1_555 1_555
H3_5 C2_5 1_555 1_555
C3_5 C2_5 1_555 1_555
C4_4 C3_5 1_555 1_555
H4_4 C4_4 1_555 1_555
C5_5 C3_5 1_555 1_555
H5_5 C5_5 1_555 1_555
C6_5 C5_5 1_555 1_555
H6_5 C6_5 1_555 1_555
C7_4 N3_4 1_555 1_555
H7_4 C7_4 1_555 1_555
C8_5 N2_5 1_555 1_555
H8_5 C8_5 1_555 1_555
C9_5 C8_5 1_555 1_555
H9_5 C9_5 1_555 1_555
C10_5 C9_5 1_555 1_555
H10_5 C10_5 1_555 1_555
H11_5 C10_5 1_555 1_555
H12_5 C10_5 1_555 1_555
C11_5 C9_5 1_555 1_555
H13_5 C11_5 1_555 1_555
H14_5 C11_5 1_555 1_555
H15_5 C11_5 1_555 1_555
C1_5 C8_5 1_555 1_555
C4_4 C7_4 1_555 1_555
Zn3 Cl1_6 1_555 1_555
N3_5 C6_6 1_555 1_555
H1_6 N2_6 1_555 1_555
C2_6 N2_6 1_555 1_555
H2_6 C2_6 1_555 1_555
H3_6 C2_6 1_555 1_555
C3_6 C2_6 1_555 1_555
C4_5 C3_6 1_555 1_555
H4_5 C4_5 1_555 1_555
C5_6 C3_6 1_555 1_555
H5_6 C5_6 1_555 1_555
C6_6 C5_6 1_555 1_555
H6_6 C6_6 1_555 1_555
C7_5 N3_5 1_555 1_555
H7_5 C7_5 1_555 1_555
C8_6 N2_6 1_555 1_555
H8_6 C8_6 1_555 1_555
C9_6 C8_6 1_555 1_555
H9_6 C9_6 1_555 1_555
C10_6 C9_6 1_555 1_555
H10_6 C10_6 1_555 1_555
H11_6 C10_6 1_555 1_555
H12_6 C10_6 1_555 1_555
C11_6 C9_6 1_555 1_555
H13_6 C11_6 1_555 1_555
H14_6 C11_6 1_555 1_555
H15_6 C11_6 1_555 1_555
C4_5 C7_5 1_555 1_555
O3_3 C1_6 1_555 1_555
H4_6 C4_6 1_555 1_555
H7_6 C7_6 1_555 1_555
C4_6 C7_6 1_555 1_555

#END
