
###############################################################################
#
# This file contains modified crystal structure data generated from the
# MOF subset of the Cambridge Structural Database (CSD) v543 
# hosted by the Cambridge Crystallographic Data Centre (CCDC).
#
# This work is licensed under the Creative Commons
# Attribution-NonCommercial-ShareAlike 4.0 International License.
# To view a copy of this license, visit
# http://creativecommons.org/licenses/by-nc-sa/4.0/
# or send a letter to
# Creative Commons, PO Box 1866, Mountain View, CA 94042, USA.
#
# CIF created using the CSD Python API on 29 September 2022
# The structure has been converted into the P1 space group
# The structure has a 3D framework
# The original CSD entry IBIRES is in the monoclinic crystal system
# The framework has been calculated to contain at least 10.0% void space
# The void calculation uses a probe of radius 1.32A, grid spacing 0.4
#
###############################################################################

data_IBIRES
_chemical_formula_moiety         '(C200 H160 Br8 Cu24 N40 O8 S14 W8)n'
_symmetry_cell_setting           triclinic
_symmetry_space_group_name_H-M   'P 1'
_symmetry_Int_Tables_number      1
_space_group_name_Hall           'P 1'
loop_
_symmetry_equiv_pos_site_id
_symmetry_equiv_pos_as_xyz
1 x,y,z
_cell_length_a                   21.3111(15)
_cell_length_b                   20.9858(15)
_cell_length_c                   17.9319(13)
_cell_angle_alpha                90
_cell_angle_beta                 96.387(1)
_cell_angle_gamma                90
_cell_volume                     7969.92
loop_
_atom_site_label
_atom_site_type_symbol
_atom_site_fract_x
_atom_site_fract_y
_atom_site_fract_z
C11 C 0.1802(4) 0.1033(4) 0.2291(5)
H9 H 0.2131 0.1337 0.2287
C12 C 0.1268(4) 0.1118(4) 0.1797(5)
H10 H 0.1233 0.1474 0.1469
C13 C 0.0780(4) 0.0679(4) 0.1782(5)
C14 C 0.0867(4) 0.0176(4) 0.2272(5)
C15 C 0.1404(4) 0.0125(4) 0.2757(5)
C16 C 0.0201(4) 0.0755(4) 0.1250(5)
H13 H 0.0184 0.1712 0.1173
N3 N 0.1890(3) 0.0540(3) 0.2783(4)
W3 W 0.284917(18) 0.019809(16) 0.503257(19)
Cu5 Cu 0.18131(5) 0.08978(5) 0.52638(6)
Cu6 Cu 0.26319(5) 0.04740(5) 0.35652(6)
S5 S 0.25987(11) 0.11735(10) 0.45430(12)
C42 C 0.0040(5) 0.1335(4) 0.3985(5)
C43 C 0.0601(5) 0.1381(4) 0.4444(5)
H34 H 0.0756 0.1793 0.4584
C44 C 0.0699(5) 0.0313(4) 0.4496(5)
C45 C 0.0129(5) 0.0226(4) 0.4022(5)
N9 N 0.0932(4) 0.0878(3) 0.4700(4)
N12 N 0.3469(3) 0.0618(3) 0.3073(4)
H11 H 0.0549 0.9859 0.2273
H12 H 0.1438 0.9777 0.3098
H16 H 0.0022 0.9810 0.1106
Cu11 Cu 0.21455(6) 0.91166(5) 0.48351(6)
S6 S 0.28647(12) 0.94878(10) 0.40893(12)
H35 H 0.0926 0.9945 0.4679
Cu2 Cu 0.73681(5) 0.04740(5) 0.14348(6)
S1 S 0.74013(11) 0.11735(10) 0.04570(12)
C17 C 0.9960(5) 0.1335(4) 0.1015(5)
C18 C 0.9399(5) 0.1381(4) 0.0556(5)
H14 H 0.9244 0.1793 0.0416
C19 C 0.9301(5) 0.0313(4) 0.0504(5)
C20 C 0.9871(5) 0.0226(4) 0.0978(5)
C21 C 0.6436(4) 0.0389(4) 0.2598(5)
H17 H 0.6786 0.0230 0.2917
C22 C 0.5839(4) 0.0376(4) 0.2848(5)
H18 H 0.5790 0.0231 0.3340
C23 C 0.5320(4) 0.0575(4) 0.2376(5)
C24 C 0.5419(4) 0.0791(4) 0.1670(5)
H19 H 0.5074 0.0921 0.1322
C25 C 0.6030(5) 0.0816(4) 0.1479(5)
H20 H 0.6095 0.0983 0.1001
N4 N 0.9068(4) 0.0878(3) 0.0300(4)
N5 N 0.6531(3) 0.0618(3) 0.1927(4)
C36 C 0.8198(4) 0.1033(4) 0.2709(5)
H29 H 0.7869 0.1337 0.2713
C37 C 0.8732(4) 0.1118(4) 0.3203(5)
H30 H 0.8767 0.1474 0.3531
C38 C 0.9220(4) 0.0679(4) 0.3218(5)
C39 C 0.9133(4) 0.0176(4) 0.2728(5)
C40 C 0.8596(4) 0.0125(4) 0.2243(5)
C41 C 0.9799(4) 0.0755(4) 0.3750(5)
H33 H 0.9816 0.1712 0.3827
C46 C 0.3564(4) 0.0389(4) 0.2402(5)
H37 H 0.3214 0.0230 0.2083
C47 C 0.4161(4) 0.0376(4) 0.2152(5)
H38 H 0.4210 0.0231 0.1660
C48 C 0.4680(4) 0.0575(4) 0.2624(5)
C49 C 0.4581(4) 0.0791(4) 0.3330(5)
H39 H 0.4926 0.0921 0.3678
C50 C 0.3970(5) 0.0816(4) 0.3521(5)
H40 H 0.3905 0.0983 0.3999
N8 N 0.8110(3) 0.0540(3) 0.2217(4)
Cu3 Cu 0.78545(6) 0.91166(5) 0.01649(6)
S2 S 0.71353(12) 0.94878(10) 0.09107(12)
Br1 Br 0.88303(5) 0.86398(4) 0.07607(5)
H15 H 0.9074 0.9945 0.0321
H31 H 0.9451 0.9859 0.2727
H32 H 0.8562 0.9777 0.1902
H36 H 0.9978 0.9810 0.3894
C1 C 0.1701(5) 0.2102(4) 0.6185(5)
H1 H 0.1559 0.2295 0.5718
C2 C 0.1784(5) 0.2476(4) 0.6815(5)
H2 H 0.1706 0.2921 0.6777
C3 C 0.1981(4) 0.2209(4) 0.7504(5)
C4 C 0.2085(5) 0.1567(4) 0.7524(5)
H3 H 0.2213 0.1363 0.7989
C5 C 0.2002(5) 0.1214(4) 0.6868(5)
H4 H 0.2083 0.0768 0.6894
C6 C 0.2114(5) 0.2596(4) 0.8192(5)
C7 C 0.1748(5) 0.3114(4) 0.8348(5)
H5 H 0.1373 0.3214 0.8032
C8 C 0.1938(5) 0.3485(4) 0.8972(5)
H6 H 0.1681 0.3838 0.9069
C9 C 0.2787(4) 0.2867(4) 0.9293(5)
H7 H 0.3154 0.2774 0.9626
C10 C 0.2641(5) 0.2468(4) 0.8701(5)
H8 H 0.2896 0.2105 0.8635
N1 N 0.1814(4) 0.1472(3) 0.6203(4)
N2 N 0.2447(4) 0.3383(3) 0.9437(4)
O1 O 0.3577(3) 0.0221(3) 0.5567(3)
S10 S 0.29084(11) 0.48982(10) 0.92639(12)
S3 S 0.20916(11) 0.98982(10) 0.57361(12)
Br1_2 Br 0.11697(5) 0.86398(4) 0.42393(5)
W2 W 0.215083(18) 0.519809(16) 0.996743(19)
Cu4 Cu 0.31869(5) 0.58978(5) 0.97362(6)
C26 C 0.3299(5) 0.7102(4) 0.8815(5)
H21 H 0.3441 0.7295 0.9282
C27 C 0.3216(5) 0.7476(4) 0.8185(5)
H22 H 0.3294 0.7921 0.8223
C28 C 0.3019(4) 0.7209(4) 0.7496(5)
C29 C 0.2915(5) 0.6567(4) 0.7476(5)
H23 H 0.2787 0.6363 0.7011
C30 C 0.2998(5) 0.6214(4) 0.8132(5)
H24 H 0.2917 0.5768 0.8106
C31 C 0.2886(5) 0.7596(4) 0.6808(5)
C32 C 0.3252(5) 0.8114(4) 0.6652(5)
H25 H 0.3627 0.8214 0.6968
C33 C 0.3062(5) 0.8485(4) 0.6028(5)
H26 H 0.3319 0.8838 0.5931
C34 C 0.2213(4) 0.7867(4) 0.5707(5)
H27 H 0.1846 0.7774 0.5374
C35 C 0.2359(5) 0.7468(4) 0.6299(5)
H28 H 0.2104 0.7105 0.6365
N6 N 0.3186(4) 0.6472(3) 0.8797(4)
N7 N 0.2553(4) 0.8383(3) 0.5563(4)
O2 O 0.1423(3) 0.5221(3) 0.9433(3)
W1 W 0.715083(18) 0.019809(16) 0.996743(19)
Cu1 Cu 0.81869(5) 0.08978(5) 0.97362(6)
C1_2 C 0.8299(5) 0.2102(4) 0.8815(5)
H1_2 H 0.8441 0.2295 0.9282
C2_2 C 0.8216(5) 0.2476(4) 0.8185(5)
H2_2 H 0.8294 0.2921 0.8223
C3_2 C 0.8019(4) 0.2209(4) 0.7496(5)
C4_2 C 0.7915(5) 0.1567(4) 0.7476(5)
H3_2 H 0.7787 0.1363 0.7011
C5_2 C 0.7998(5) 0.1214(4) 0.8132(5)
H4_2 H 0.7917 0.0768 0.8106
C6_2 C 0.7886(5) 0.2596(4) 0.6808(5)
C7_2 C 0.8252(5) 0.3114(4) 0.6652(5)
H5_2 H 0.8627 0.3214 0.6968
C8_2 C 0.8062(5) 0.3485(4) 0.6028(5)
H6_2 H 0.8319 0.3838 0.5931
C9_2 C 0.7213(4) 0.2867(4) 0.5707(5)
H7_2 H 0.6846 0.2774 0.5374
C10_2 C 0.7359(5) 0.2468(4) 0.6299(5)
H8_2 H 0.7104 0.2105 0.6365
N1_2 N 0.8186(4) 0.1472(3) 0.8797(4)
N2_2 N 0.7553(4) 0.3383(3) 0.5563(4)
O1_2 O 0.6423(3) 0.0221(3) 0.9433(3)
Cu9 Cu 0.71455(6) 0.41166(5) 0.48351(6)
S7 S 0.78647(12) 0.44878(10) 0.40893(12)
S10_2 S 0.70916(11) 0.48982(10) 0.57361(12)
Br2 Br 0.61697(5) 0.36398(4) 0.42393(5)
S3_2 S 0.79084(11) 0.98982(10) 0.92639(12)
W2_2 W 0.784917(18) 0.519809(16) 0.503257(19)
Cu4_2 Cu 0.68131(5) 0.58978(5) 0.52638(6)
Cu8 Cu 0.76319(5) 0.54740(5) 0.35652(6)
S4 S 0.75987(11) 0.61735(10) 0.45430(12)
C26_2 C 0.6701(5) 0.7102(4) 0.6185(5)
H21_2 H 0.6559 0.7295 0.5718
C27_2 C 0.6784(5) 0.7476(4) 0.6815(5)
H22_2 H 0.6706 0.7921 0.6777
C28_2 C 0.6981(4) 0.7209(4) 0.7504(5)
C29_2 C 0.7085(5) 0.6567(4) 0.7524(5)
H23_2 H 0.7213 0.6363 0.7989
C30_2 C 0.7002(5) 0.6214(4) 0.6868(5)
H24_2 H 0.7083 0.5768 0.6894
C31_2 C 0.7114(5) 0.7596(4) 0.8192(5)
C32_2 C 0.6748(5) 0.8114(4) 0.8348(5)
H25_2 H 0.6373 0.8214 0.8032
C33_2 C 0.6938(5) 0.8485(4) 0.8972(5)
H26_2 H 0.6681 0.8838 0.9069
C34_2 C 0.7787(4) 0.7867(4) 0.9293(5)
H27_2 H 0.8154 0.7774 0.9626
C35_2 C 0.7641(5) 0.7468(4) 0.8701(5)
H28_2 H 0.7896 0.7105 0.8635
N6_2 N 0.6814(4) 0.6472(3) 0.6203(4)
N7_2 N 0.7447(4) 0.8383(3) 0.9437(4)
N10 N 0.5932(4) 0.5878(3) 0.4700(4)
O2_2 O 0.8577(3) 0.5221(3) 0.5567(3)
Cu9_2 Cu 0.28545(6) 0.41166(5) 0.01649(6)
S7_2 S 0.21353(12) 0.44878(10) 0.09107(12)
Br2_2 Br 0.38303(5) 0.36398(4) 0.07607(5)
Cu8_2 Cu 0.23681(5) 0.54740(5) 0.14348(6)
S4_2 S 0.24013(11) 0.61735(10) 0.04570(12)
N10_2 N 0.4068(4) 0.5878(3) 0.0300(4)
C11_2 C 0.6802(4) 0.6033(4) 0.2291(5)
H9_2 H 0.7131 0.6337 0.2287
C12_2 C 0.6268(4) 0.6118(4) 0.1797(5)
H10_2 H 0.6233 0.6474 0.1469
C13_2 C 0.5780(4) 0.5679(4) 0.1782(5)
C14_2 C 0.5867(4) 0.5176(4) 0.2272(5)
H11_2 H 0.5549 0.4859 0.2273
C15_2 C 0.6404(4) 0.5125(4) 0.2757(5)
H12_2 H 0.6438 0.4777 0.3098
C16_2 C 0.5201(4) 0.5755(4) 0.1250(5)
C17_2 C 0.4960(5) 0.6335(4) 0.1015(5)
H13_2 H 0.5184 0.6712 0.1173
C18_2 C 0.4399(5) 0.6381(4) 0.0556(5)
H14_2 H 0.4244 0.6793 0.0416
C19_2 C 0.4301(5) 0.5313(4) 0.0504(5)
H15_2 H 0.4074 0.4945 0.0321
C20_2 C 0.4871(5) 0.5226(4) 0.0978(5)
H16_2 H 0.5022 0.4810 0.1106
C21_2 C 0.1436(4) 0.5389(4) 0.2598(5)
H17_2 H 0.1786 0.5230 0.2917
C22_2 C 0.0839(4) 0.5376(4) 0.2848(5)
H18_2 H 0.0790 0.5231 0.3340
C23_2 C 0.0320(4) 0.5575(4) 0.2376(5)
C24_2 C 0.0419(4) 0.5791(4) 0.1670(5)
H19_2 H 0.0074 0.5921 0.1322
C25_2 C 0.1030(5) 0.5816(4) 0.1479(5)
H20_2 H 0.1095 0.5983 0.1001
N3_2 N 0.6890(3) 0.5540(3) 0.2783(4)
N5_2 N 0.1531(3) 0.5618(3) 0.1927(4)
C36_2 C 0.3198(4) 0.6033(4) 0.2709(5)
H29_2 H 0.2869 0.6337 0.2713
C37_2 C 0.3732(4) 0.6118(4) 0.3203(5)
H30_2 H 0.3767 0.6474 0.3531
C38_2 C 0.4220(4) 0.5679(4) 0.3218(5)
C39_2 C 0.4133(4) 0.5176(4) 0.2728(5)
H31_2 H 0.4451 0.4859 0.2727
C40_2 C 0.3596(4) 0.5125(4) 0.2243(5)
H32_2 H 0.3562 0.4777 0.1902
C41_2 C 0.4799(4) 0.5755(4) 0.3750(5)
C42_2 C 0.5040(5) 0.6335(4) 0.3985(5)
H33_2 H 0.4816 0.6712 0.3827
C43_2 C 0.5601(5) 0.6381(4) 0.4444(5)
H34_2 H 0.5756 0.6793 0.4584
C44_2 C 0.5699(5) 0.5313(4) 0.4496(5)
H35_2 H 0.5926 0.4945 0.4679
C45_2 C 0.5129(5) 0.5226(4) 0.4022(5)
H36_2 H 0.4978 0.4810 0.3894
N8_2 N 0.3110(3) 0.5540(3) 0.2217(4)
N12_2 N 0.8469(3) 0.5618(3) 0.3073(4)
C46_2 C 0.8564(4) 0.5389(4) 0.2402(5)
H37_2 H 0.8214 0.5230 0.2083
C47_2 C 0.9161(4) 0.5376(4) 0.2152(5)
H38_2 H 0.9210 0.5231 0.1660
C48_2 C 0.9680(4) 0.5575(4) 0.2624(5)
C49_2 C 0.9581(4) 0.5791(4) 0.3330(5)
H39_2 H 0.9926 0.5921 0.3678
C50_2 C 0.8970(5) 0.5816(4) 0.3521(5)
H40_2 H 0.8905 0.5983 0.3999
S3_3 S 0.20916(11) 0.01018(10) 0.07361(12)
W2_3 W 0.215083(18) 0.480191(16) 0.496743(19)
Cu4_3 Cu 0.31869(5) 0.41022(5) 0.47362(6)
Cu8_3 Cu 0.23681(5) 0.45260(5) 0.64348(6)
Cu10 Cu 0.28545(6) 0.58834(5) 0.51649(6)
S4_3 S 0.24013(11) 0.38265(10) 0.54570(12)
S8 S 0.21353(12) 0.55122(10) 0.59107(12)
S9 S 0.29084(11) 0.51018(10) 0.42639(12)
C26_3 C 0.3299(5) 0.2898(4) 0.3815(5)
H21_3 H 0.3441 0.2705 0.4282
C27_3 C 0.3216(5) 0.2524(4) 0.3185(5)
H22_3 H 0.3294 0.2079 0.3223
C28_3 C 0.3019(4) 0.2791(4) 0.2496(5)
C29_3 C 0.2915(5) 0.3433(4) 0.2476(5)
H23_3 H 0.2787 0.3637 0.2011
C30_3 C 0.2998(5) 0.3786(4) 0.3132(5)
H24_3 H 0.2917 0.4232 0.3106
C31_3 C 0.2886(5) 0.2404(4) 0.1808(5)
C32_3 C 0.3252(5) 0.1886(4) 0.1652(5)
H25_3 H 0.3627 0.1786 0.1968
C33_3 C 0.3062(5) 0.1515(4) 0.1028(5)
H26_3 H 0.3319 0.1162 0.0931
C34_3 C 0.2213(4) 0.2133(4) 0.0707(5)
H27_3 H 0.1846 0.2226 0.0374
C35_3 C 0.2359(5) 0.2532(4) 0.1299(5)
H28_3 H 0.2104 0.2895 0.1365
N6_3 N 0.3186(4) 0.3528(3) 0.3797(4)
N7_3 N 0.2553(4) 0.1617(3) 0.0563(4)
N10_3 N 0.4068(4) 0.4122(3) 0.5300(4)
O2_3 O 0.1423(3) 0.4779(3) 0.4433(3)
W1_2 W 0.284917(18) 0.980191(16) 0.003257(19)
Cu1_2 Cu 0.18131(5) 0.91022(5) 0.02638(6)
C1_3 C 0.1701(5) 0.7898(4) 0.1185(5)
H1_3 H 0.1559 0.7705 0.0718
C2_3 C 0.1784(5) 0.7524(4) 0.1815(5)
H2_3 H 0.1706 0.7079 0.1777
C3_3 C 0.1981(4) 0.7791(4) 0.2504(5)
C4_3 C 0.2085(5) 0.8433(4) 0.2524(5)
H3_3 H 0.2213 0.8637 0.2989
C5_3 C 0.2002(5) 0.8786(4) 0.1868(5)
H4_3 H 0.2083 0.9232 0.1894
C6_3 C 0.2114(5) 0.7404(4) 0.3192(5)
C7_3 C 0.1748(5) 0.6886(4) 0.3348(5)
H5_3 H 0.1373 0.6786 0.3032
C8_3 C 0.1938(5) 0.6515(4) 0.3972(5)
H6_3 H 0.1681 0.6162 0.4069
C9_3 C 0.2787(4) 0.7133(4) 0.4293(5)
H7_3 H 0.3154 0.7226 0.4626
C10_3 C 0.2641(5) 0.7532(4) 0.3701(5)
H8_3 H 0.2896 0.7895 0.3635
N1_3 N 0.1814(4) 0.8528(3) 0.1203(4)
N2_3 N 0.2447(4) 0.6617(3) 0.4437(4)
O1_3 O 0.3577(3) 0.9779(3) 0.0567(3)
Br2_3 Br 0.38303(5) 0.63602(4) 0.57607(5)
Cu8_4 Cu 0.76319(5) 0.45260(5) 0.85652(6)
Cu10_2 Cu 0.71455(6) 0.58834(5) 0.98351(6)
S4_4 S 0.75987(11) 0.38265(10) 0.95430(12)
S8_2 S 0.78647(12) 0.55122(10) 0.90893(12)
N10_4 N 0.5932(4) 0.4122(3) 0.9700(4)
Br2_4 Br 0.61697(5) 0.63602(4) 0.92393(5)
C46_3 C 0.1436(4) 0.4611(4) 0.7598(5)
H37_3 H 0.1786 0.4770 0.7917
C47_3 C 0.0839(4) 0.4624(4) 0.7848(5)
H38_3 H 0.0790 0.4769 0.8340
C48_3 C 0.0320(4) 0.4425(4) 0.7376(5)
C49_3 C 0.0419(4) 0.4209(4) 0.6670(5)
H39_3 H 0.0074 0.4079 0.6322
C50_3 C 0.1030(5) 0.4184(4) 0.6479(5)
H40_3 H 0.1095 0.4017 0.6001
N11 N 0.1531(3) 0.4382(3) 0.6927(4)
C11_3 C 0.3198(4) 0.3967(4) 0.7709(5)
H9_3 H 0.2869 0.3663 0.7713
C12_3 C 0.3732(4) 0.3882(4) 0.8203(5)
H10_3 H 0.3767 0.3526 0.8531
C13_3 C 0.4220(4) 0.4321(4) 0.8218(5)
C14_3 C 0.4133(4) 0.4824(4) 0.7728(5)
H11_3 H 0.4451 0.5141 0.7727
C15_3 C 0.3596(4) 0.4875(4) 0.7243(5)
H12_3 H 0.3562 0.5223 0.6902
C16_3 C 0.4799(4) 0.4245(4) 0.8750(5)
C17_3 C 0.5040(5) 0.3665(4) 0.8985(5)
H13_3 H 0.4816 0.3288 0.8827
C18_3 C 0.5601(5) 0.3619(4) 0.9444(5)
H14_3 H 0.5756 0.3207 0.9584
C19_3 C 0.5699(5) 0.4687(4) 0.9496(5)
H15_3 H 0.5926 0.5055 0.9679
C20_3 C 0.5129(5) 0.4774(4) 0.9022(5)
H16_3 H 0.4978 0.5190 0.8894
C21_3 C 0.8564(4) 0.4611(4) 0.7402(5)
H17_3 H 0.8214 0.4770 0.7083
C22_3 C 0.9161(4) 0.4624(4) 0.7152(5)
H18_3 H 0.9210 0.4769 0.6660
C23_3 C 0.9680(4) 0.4425(4) 0.7624(5)
C24_3 C 0.9581(4) 0.4209(4) 0.8330(5)
H19_3 H 0.9926 0.4079 0.8678
C25_3 C 0.8970(5) 0.4184(4) 0.8521(5)
H20_3 H 0.8905 0.4017 0.8999
N3_3 N 0.3110(3) 0.4460(3) 0.7217(4)
N5_3 N 0.8469(3) 0.4382(3) 0.8073(4)
C36_3 C 0.6802(4) 0.3967(4) 0.7291(5)
H29_3 H 0.7131 0.3663 0.7287
C37_3 C 0.6268(4) 0.3882(4) 0.6797(5)
H30_3 H 0.6233 0.3526 0.6469
C38_3 C 0.5780(4) 0.4321(4) 0.6782(5)
C39_3 C 0.5867(4) 0.4824(4) 0.7272(5)
H31_3 H 0.5549 0.5141 0.7273
C40_3 C 0.6404(4) 0.4875(4) 0.7757(5)
H32_3 H 0.6438 0.5223 0.8098
C41_3 C 0.5201(4) 0.4245(4) 0.6250(5)
C42_3 C 0.4960(5) 0.3665(4) 0.6015(5)
H33_3 H 0.5184 0.3288 0.6173
C43_3 C 0.4399(5) 0.3619(4) 0.5556(5)
H34_3 H 0.4244 0.3207 0.5416
C44_3 C 0.4301(5) 0.4687(4) 0.5504(5)
H35_3 H 0.4074 0.5055 0.5321
C45_3 C 0.4871(5) 0.4774(4) 0.5978(5)
H36_3 H 0.5022 0.5190 0.6106
N8_3 N 0.6890(3) 0.4460(3) 0.7783(4)
Cu3_2 Cu 0.21455(6) 0.08834(5) 0.98351(6)
S2_2 S 0.28647(12) 0.05122(10) 0.90893(12)
Br1_3 Br 0.11697(5) 0.13602(4) 0.92393(5)
H15_4 H 0.0926 0.0055 0.9679
H31_4 H 0.0549 0.0141 0.7273
H32_4 H 0.1438 0.0223 0.8098
H36_4 H 0.0022 0.0190 0.6106
Cu2_2 Cu 0.26319(5) 0.95260(5) 0.85652(6)
S1_2 S 0.25987(11) 0.88265(10) 0.95430(12)
C17_4 C 0.0040(5) 0.8665(4) 0.8985(5)
C18_4 C 0.0601(5) 0.8619(4) 0.9444(5)
H14_4 H 0.0756 0.8207 0.9584
C19_4 C 0.0699(5) 0.9687(4) 0.9496(5)
C20_4 C 0.0129(5) 0.9774(4) 0.9022(5)
C21_4 C 0.3564(4) 0.9611(4) 0.7402(5)
H17_4 H 0.3214 0.9770 0.7083
C22_4 C 0.4161(4) 0.9624(4) 0.7152(5)
H18_4 H 0.4210 0.9769 0.6660
C23_4 C 0.4680(4) 0.9425(4) 0.7624(5)
C24_4 C 0.4581(4) 0.9209(4) 0.8330(5)
H19_4 H 0.4926 0.9079 0.8678
C25_4 C 0.3970(5) 0.9184(4) 0.8521(5)
H20_4 H 0.3905 0.9017 0.8999
N4_2 N 0.0932(4) 0.9122(3) 0.9700(4)
N5_4 N 0.3469(3) 0.9382(3) 0.8073(4)
Cu7 Cu 0.73681(5) 0.95260(5) 0.64348(6)
C36_4 C 0.1802(4) 0.8967(4) 0.7291(5)
H29_4 H 0.2131 0.8663 0.7287
C37_4 C 0.1268(4) 0.8882(4) 0.6797(5)
H30_4 H 0.1233 0.8526 0.6469
C38_4 C 0.0780(4) 0.9321(4) 0.6782(5)
C39_4 C 0.0867(4) 0.9824(4) 0.7272(5)
C40_4 C 0.1404(4) 0.9875(4) 0.7757(5)
C41_4 C 0.0201(4) 0.9245(4) 0.6250(5)
H33_4 H 0.0184 0.8288 0.6173
C46_4 C 0.6436(4) 0.9611(4) 0.7598(5)
H37_4 H 0.6786 0.9770 0.7917
C47_4 C 0.5839(4) 0.9624(4) 0.7848(5)
H38_4 H 0.5790 0.9769 0.8340
C48_4 C 0.5320(4) 0.9425(4) 0.7376(5)
C49_4 C 0.5419(4) 0.9209(4) 0.6670(5)
H39_4 H 0.5074 0.9079 0.6322
C50_4 C 0.6030(5) 0.9184(4) 0.6479(5)
H40_4 H 0.6095 0.9017 0.6001
N8_4 N 0.1890(3) 0.9460(3) 0.7783(4)
N11_2 N 0.6531(3) 0.9382(3) 0.6927(4)
H11_4 H 0.9451 0.0141 0.7727
H12_4 H 0.8562 0.0223 0.6902
H16_4 H 0.9978 0.0190 0.8894
Cu11_2 Cu 0.78545(6) 0.08834(5) 0.51649(6)
S6_2 S 0.71353(12) 0.05122(10) 0.59107(12)
H35_4 H 0.9074 0.0055 0.5321
C11_4 C 0.8198(4) 0.8967(4) 0.7709(5)
H9_4 H 0.7869 0.8663 0.7713
C12_4 C 0.8732(4) 0.8882(4) 0.8203(5)
H10_4 H 0.8767 0.8526 0.8531
C13_4 C 0.9220(4) 0.9321(4) 0.8218(5)
C14_4 C 0.9133(4) 0.9824(4) 0.7728(5)
C15_4 C 0.8596(4) 0.9875(4) 0.7243(5)
C16_4 C 0.9799(4) 0.9245(4) 0.8750(5)
H13_4 H 0.9816 0.8288 0.8827
N3_4 N 0.8110(3) 0.9460(3) 0.7217(4)
W3_2 W 0.715083(18) 0.980191(16) 0.496743(19)
Cu5_2 Cu 0.81869(5) 0.91022(5) 0.47362(6)
S5_2 S 0.74013(11) 0.88265(10) 0.54570(12)
C42_4 C 0.9960(5) 0.8665(4) 0.6015(5)
C43_4 C 0.9399(5) 0.8619(4) 0.5556(5)
H34_4 H 0.9244 0.8207 0.5416
C44_4 C 0.9301(5) 0.9687(4) 0.5504(5)
C45_4 C 0.9871(5) 0.9774(4) 0.5978(5)
N9_2 N 0.9068(4) 0.9122(3) 0.5300(4)
S3_4 S 0.79084(11) 0.01018(10) 0.42639(12)
Br1_4 Br 0.88303(5) 0.13602(4) 0.57607(5)
W2_4 W 0.784917(18) 0.480191(16) 0.003257(19)
Cu4_4 Cu 0.68131(5) 0.41022(5) 0.02638(6)
S9_2 S 0.70916(11) 0.51018(10) 0.07361(12)
C26_4 C 0.6701(5) 0.2898(4) 0.1185(5)
H21_4 H 0.6559 0.2705 0.0718
C27_4 C 0.6784(5) 0.2524(4) 0.1815(5)
H22_4 H 0.6706 0.2079 0.1777
C28_4 C 0.6981(4) 0.2791(4) 0.2504(5)
C29_4 C 0.7085(5) 0.3433(4) 0.2524(5)
H23_4 H 0.7213 0.3637 0.2989
C30_4 C 0.7002(5) 0.3786(4) 0.1868(5)
H24_4 H 0.7083 0.4232 0.1894
C31_4 C 0.7114(5) 0.2404(4) 0.3192(5)
C32_4 C 0.6748(5) 0.1886(4) 0.3348(5)
H25_4 H 0.6373 0.1786 0.3032
C33_4 C 0.6938(5) 0.1515(4) 0.3972(5)
H26_4 H 0.6681 0.1162 0.4069
C34_4 C 0.7787(4) 0.2133(4) 0.4293(5)
H27_4 H 0.8154 0.2226 0.4626
C35_4 C 0.7641(5) 0.2532(4) 0.3701(5)
H28_4 H 0.7896 0.2895 0.3635
N6_4 N 0.6814(4) 0.3528(3) 0.1203(4)
N7_4 N 0.7447(4) 0.1617(3) 0.4437(4)
O2_4 O 0.8577(3) 0.4779(3) 0.0567(3)
C1_4 C 0.8299(5) 0.7898(4) 0.3815(5)
H1_4 H 0.8441 0.7705 0.4282
C2_4 C 0.8216(5) 0.7524(4) 0.3185(5)
H2_4 H 0.8294 0.7079 0.3223
C3_4 C 0.8019(4) 0.7791(4) 0.2496(5)
C4_4 C 0.7915(5) 0.8433(4) 0.2476(5)
H3_4 H 0.7787 0.8637 0.2011
C5_4 C 0.7998(5) 0.8786(4) 0.3132(5)
H4_4 H 0.7917 0.9232 0.3106
C6_4 C 0.7886(5) 0.7404(4) 0.1808(5)
C7_4 C 0.8252(5) 0.6886(4) 0.1652(5)
H5_4 H 0.8627 0.6786 0.1968
C8_4 C 0.8062(5) 0.6515(4) 0.1028(5)
H6_4 H 0.8319 0.6162 0.0931
C9_4 C 0.7213(4) 0.7133(4) 0.0707(5)
H7_4 H 0.6846 0.7226 0.0374
C10_4 C 0.7359(5) 0.7532(4) 0.1299(5)
H8_4 H 0.7104 0.7895 0.1365
N1_4 N 0.8186(4) 0.8528(3) 0.3797(4)
N2_4 N 0.7553(4) 0.6617(3) 0.0563(4)
O1_4 O 0.6423(3) 0.9779(3) 0.4433(3)
loop_
_geom_bond_atom_site_label_1
_geom_bond_atom_site_label_2
_geom_bond_site_symmetry_1
_geom_bond_site_symmetry_2
C11 H9 1_555 1_555
C12 C11 1_555 1_555
H10 C12 1_555 1_555
C13 C12 1_555 1_555
C14 C13 1_555 1_555
C15 C14 1_555 1_555
C16 C13 1_555 1_555
N3 C11 1_555 1_555
W3 S5 1_555 1_555
Cu5 S5 1_555 1_555
Cu6 N3 1_555 1_555
S5 Cu6 1_555 1_555
C43 C42 1_555 1_555
H34 C43 1_555 1_555
N9 Cu5 1_555 1_555
N12 Cu6 1_555 1_555
C15 N3 1_555 1_555
C43 N9 1_555 1_555
C44 C45 1_555 1_555
C44 N9 1_555 1_555
Cu11 S6 1_555 1_555
Cu2 S1 1_555 1_555
C18 C17 1_555 1_555
H14 C18 1_555 1_555
C21 H17 1_555 1_555
C22 C21 1_555 1_555
H18 C22 1_555 1_555
C23 C22 1_555 1_555
C24 C23 1_555 1_555
H19 C24 1_555 1_555
C25 C24 1_555 1_555
H20 C25 1_555 1_555
N5 Cu2 1_555 1_555
C36 H29 1_555 1_555
C37 C36 1_555 1_555
H30 C37 1_555 1_555
C38 C37 1_555 1_555
C39 C38 1_555 1_555
C40 C39 1_555 1_555
C41 C38 1_555 1_555
C46 H37 1_555 1_555
C47 C46 1_555 1_555
H38 C47 1_555 1_555
C48 C23 1_555 1_555
C49 C48 1_555 1_555
H39 C49 1_555 1_555
C50 C49 1_555 1_555
H40 C50 1_555 1_555
N8 Cu2 1_555 1_555
N12 C46 1_555 1_555
C18 N4 1_555 1_555
C19 C20 1_555 1_555
C19 N4 1_555 1_555
C21 N5 1_555 1_555
C25 N5 1_555 1_555
C36 N8 1_555 1_555
C40 N8 1_555 1_555
C47 C48 1_555 1_555
C50 N12 1_555 1_555
Cu3 S2 1_555 1_555
Br1 Cu3 1_555 1_555
C1 H1 1_555 1_555
C2 C1 1_555 1_555
H2 C2 1_555 1_555
C3 C2 1_555 1_555
C4 C3 1_555 1_555
H3 C4 1_555 1_555
C5 C4 1_555 1_555
H4 C5 1_555 1_555
C6 C3 1_555 1_555
C7 C6 1_555 1_555
H5 C7 1_555 1_555
C8 C7 1_555 1_555
H6 C8 1_555 1_555
C9 H7 1_555 1_555
C10 C6 1_555 1_555
H8 C10 1_555 1_555
N1 Cu5 1_555 1_555
N2 C8 1_555 1_555
O1 W3 1_555 1_555
C1 N1 1_555 1_555
C5 N1 1_555 1_555
C9 C10 1_555 1_555
C9 N2 1_555 1_555
Br1_2 Cu11 1_555 1_555
S10 W2 1_555 1_555
C26 H21 1_555 1_555
C27 C26 1_555 1_555
H22 C27 1_555 1_555
C28 C27 1_555 1_555
C29 C28 1_555 1_555
H23 C29 1_555 1_555
C30 C29 1_555 1_555
H24 C30 1_555 1_555
C31 C28 1_555 1_555
C32 C31 1_555 1_555
H25 C32 1_555 1_555
C33 C32 1_555 1_555
H26 C33 1_555 1_555
C34 H27 1_555 1_555
C35 C31 1_555 1_555
H28 C35 1_555 1_555
N6 Cu4 1_555 1_555
N7 Cu11 1_555 1_555
O2 W2 1_555 1_555
Cu11 S3 1_555 1_555
Cu4 S10 1_555 1_555
C26 N6 1_555 1_555
C30 N6 1_555 1_555
C33 N7 1_555 1_555
C34 C35 1_555 1_555
C34 N7 1_555 1_555
C1_2 H1_2 1_555 1_555
C2_2 C1_2 1_555 1_555
H2_2 C2_2 1_555 1_555
C3_2 C2_2 1_555 1_555
C4_2 C3_2 1_555 1_555
H3_2 C4_2 1_555 1_555
C5_2 C4_2 1_555 1_555
H4_2 C5_2 1_555 1_555
C6_2 C3_2 1_555 1_555
C7_2 C6_2 1_555 1_555
H5_2 C7_2 1_555 1_555
C8_2 C7_2 1_555 1_555
H6_2 C8_2 1_555 1_555
C9_2 H7_2 1_555 1_555
C10_2 C6_2 1_555 1_555
H8_2 C10_2 1_555 1_555
N1_2 Cu1 1_555 1_555
N2_2 C8_2 1_555 1_555
O1_2 W1 1_555 1_555
Cu9 N2_2 1_555 1_555
S7 Cu9 1_555 1_555
S10_2 Cu9 1_555 1_555
Br2 Cu9 1_555 1_555
C1_2 N1_2 1_555 1_555
C5_2 N1_2 1_555 1_555
C9_2 C10_2 1_555 1_555
C9_2 N2_2 1_555 1_555
W2_2 S4 1_555 1_555
Cu4_2 S4 1_555 1_555
Cu8 S4 1_555 1_555
S7 W2_2 1_555 1_555
S10_2 W2_2 1_555 1_555
C26_2 H21_2 1_555 1_555
C27_2 C26_2 1_555 1_555
H22_2 C27_2 1_555 1_555
C28_2 C27_2 1_555 1_555
C29_2 C28_2 1_555 1_555
H23_2 C29_2 1_555 1_555
C30_2 C29_2 1_555 1_555
H24_2 C30_2 1_555 1_555
C31_2 C28_2 1_555 1_555
C32_2 C31_2 1_555 1_555
H25_2 C32_2 1_555 1_555
C33_2 C32_2 1_555 1_555
H26_2 C33_2 1_555 1_555
C34_2 H27_2 1_555 1_555
C35_2 C31_2 1_555 1_555
H28_2 C35_2 1_555 1_555
N6_2 Cu4_2 1_555 1_555
N10 Cu4_2 1_555 1_555
O2_2 W2_2 1_555 1_555
Cu4_2 S10_2 1_555 1_555
Cu8 S7 1_555 1_555
C26_2 N6_2 1_555 1_555
C30_2 N6_2 1_555 1_555
C33_2 N7_2 1_555 1_555
C34_2 C35_2 1_555 1_555
C34_2 N7_2 1_555 1_555
S7_2 Cu9_2 1_555 1_555
Br2_2 Cu9_2 1_555 1_555
Cu8_2 S4_2 1_555 1_555
Cu8_2 S7_2 1_555 1_555
C11_2 H9_2 1_555 1_555
C12_2 C11_2 1_555 1_555
H10_2 C12_2 1_555 1_555
C13_2 C12_2 1_555 1_555
C14_2 C13_2 1_555 1_555
H11_2 C14_2 1_555 1_555
C15_2 C14_2 1_555 1_555
H12_2 C15_2 1_555 1_555
C16_2 C13_2 1_555 1_555
C17_2 C16_2 1_555 1_555
H13_2 C17_2 1_555 1_555
C18_2 C17_2 1_555 1_555
H14_2 C18_2 1_555 1_555
C19_2 H15_2 1_555 1_555
C20_2 C16_2 1_555 1_555
H16_2 C20_2 1_555 1_555
C21_2 H17_2 1_555 1_555
C22_2 C21_2 1_555 1_555
H18_2 C22_2 1_555 1_555
C23_2 C22_2 1_555 1_555
C24_2 C23_2 1_555 1_555
H19_2 C24_2 1_555 1_555
C25_2 C24_2 1_555 1_555
H20_2 C25_2 1_555 1_555
N3_2 C11_2 1_555 1_555
N5_2 Cu8_2 1_555 1_555
Cu8 N3_2 1_555 1_555
C36_2 H29_2 1_555 1_555
C37_2 C36_2 1_555 1_555
H30_2 C37_2 1_555 1_555
C38_2 C37_2 1_555 1_555
C39_2 C38_2 1_555 1_555
H31_2 C39_2 1_555 1_555
C40_2 C39_2 1_555 1_555
H32_2 C40_2 1_555 1_555
C41_2 C38_2 1_555 1_555
C42_2 C41_2 1_555 1_555
H33_2 C42_2 1_555 1_555
C43_2 C42_2 1_555 1_555
H34_2 C43_2 1_555 1_555
C44_2 H35_2 1_555 1_555
C45_2 C41_2 1_555 1_555
H36_2 C45_2 1_555 1_555
N8_2 Cu8_2 1_555 1_555
N12_2 Cu8 1_555 1_555
C15_2 N3_2 1_555 1_555
C18_2 N10_2 1_555 1_555
C19_2 C20_2 1_555 1_555
C19_2 N10_2 1_555 1_555
C21_2 N5_2 1_555 1_555
C25_2 N5_2 1_555 1_555
C36_2 N8_2 1_555 1_555
C40_2 N8_2 1_555 1_555
C43_2 N10 1_555 1_555
C44_2 C45_2 1_555 1_555
C44_2 N10 1_555 1_555
C46_2 H37_2 1_555 1_555
C47_2 C46_2 1_555 1_555
H38_2 C47_2 1_555 1_555
C49_2 C48_2 1_555 1_555
H39_2 C49_2 1_555 1_555
C50_2 C49_2 1_555 1_555
H40_2 C50_2 1_555 1_555
N12_2 C46_2 1_555 1_555
C47_2 C48_2 1_555 1_555
C50_2 N12_2 1_555 1_555
W2_3 S4_3 1_555 1_555
Cu4_3 S4_3 1_555 1_555
Cu8_3 S4_3 1_555 1_555
Cu10 S8 1_555 1_555
S8 W2_3 1_555 1_555
S9 W2_3 1_555 1_555
C26_3 H21_3 1_555 1_555
C27_3 C26_3 1_555 1_555
H22_3 C27_3 1_555 1_555
C28_3 C27_3 1_555 1_555
C29_3 C28_3 1_555 1_555
H23_3 C29_3 1_555 1_555
C30_3 C29_3 1_555 1_555
H24_3 C30_3 1_555 1_555
C31_3 C28_3 1_555 1_555
C32_3 C31_3 1_555 1_555
H25_3 C32_3 1_555 1_555
C33_3 C32_3 1_555 1_555
H26_3 C33_3 1_555 1_555
C34_3 H27_3 1_555 1_555
C35_3 C31_3 1_555 1_555
H28_3 C35_3 1_555 1_555
N6_3 Cu4_3 1_555 1_555
N10_3 Cu4_3 1_555 1_555
O2_3 W2_3 1_555 1_555
Cu4_3 S9 1_555 1_555
Cu8_3 S8 1_555 1_555
Cu10 S9 1_555 1_555
C26_3 N6_3 1_555 1_555
C30_3 N6_3 1_555 1_555
C33_3 N7_3 1_555 1_555
C34_3 C35_3 1_555 1_555
C34_3 N7_3 1_555 1_555
C1_3 H1_3 1_555 1_555
C2_3 C1_3 1_555 1_555
H2_3 C2_3 1_555 1_555
C3_3 C2_3 1_555 1_555
C4_3 C3_3 1_555 1_555
H3_3 C4_3 1_555 1_555
C5_3 C4_3 1_555 1_555
H4_3 C5_3 1_555 1_555
C6_3 C3_3 1_555 1_555
C7_3 C6_3 1_555 1_555
H5_3 C7_3 1_555 1_555
C8_3 C7_3 1_555 1_555
H6_3 C8_3 1_555 1_555
C9_3 H7_3 1_555 1_555
C10_3 C6_3 1_555 1_555
H8_3 C10_3 1_555 1_555
N1_3 Cu1_2 1_555 1_555
N2_3 C8_3 1_555 1_555
O1_3 W1_2 1_555 1_555
Cu10 N2_3 1_555 1_555
Br2_3 Cu10 1_555 1_555
C1_3 N1_3 1_555 1_555
C5_3 N1_3 1_555 1_555
C9_3 C10_3 1_555 1_555
C9_3 N2_3 1_555 1_555
Cu8_4 S4_4 1_555 1_555
Cu10_2 S8_2 1_555 1_555
Cu8_4 S8_2 1_555 1_555
Br2_4 Cu10_2 1_555 1_555
Cu8_3 N11 1_555 1_555
C46_3 H37_3 1_555 1_555
C47_3 C46_3 1_555 1_555
H38_3 C47_3 1_555 1_555
C49_3 C48_3 1_555 1_555
H39_3 C49_3 1_555 1_555
C50_3 C49_3 1_555 1_555
H40_3 C50_3 1_555 1_555
N11 C46_3 1_555 1_555
C47_3 C48_3 1_555 1_555
C50_3 N11 1_555 1_555
C11_3 H9_3 1_555 1_555
C12_3 C11_3 1_555 1_555
H10_3 C12_3 1_555 1_555
C13_3 C12_3 1_555 1_555
C14_3 C13_3 1_555 1_555
H11_3 C14_3 1_555 1_555
C15_3 C14_3 1_555 1_555
H12_3 C15_3 1_555 1_555
C16_3 C13_3 1_555 1_555
C17_3 C16_3 1_555 1_555
H13_3 C17_3 1_555 1_555
C18_3 C17_3 1_555 1_555
H14_3 C18_3 1_555 1_555
C19_3 H15_3 1_555 1_555
C20_3 C16_3 1_555 1_555
H16_3 C20_3 1_555 1_555
C21_3 H17_3 1_555 1_555
C22_3 C21_3 1_555 1_555
H18_3 C22_3 1_555 1_555
C23_3 C22_3 1_555 1_555
C24_3 C23_3 1_555 1_555
H19_3 C24_3 1_555 1_555
C25_3 C24_3 1_555 1_555
H20_3 C25_3 1_555 1_555
N3_3 C11_3 1_555 1_555
N5_3 Cu8_4 1_555 1_555
Cu8_3 N3_3 1_555 1_555
C36_3 H29_3 1_555 1_555
C37_3 C36_3 1_555 1_555
H30_3 C37_3 1_555 1_555
C38_3 C37_3 1_555 1_555
C39_3 C38_3 1_555 1_555
H31_3 C39_3 1_555 1_555
C40_3 C39_3 1_555 1_555
H32_3 C40_3 1_555 1_555
C41_3 C38_3 1_555 1_555
C42_3 C41_3 1_555 1_555
H33_3 C42_3 1_555 1_555
C43_3 C42_3 1_555 1_555
H34_3 C43_3 1_555 1_555
C44_3 H35_3 1_555 1_555
C45_3 C41_3 1_555 1_555
H36_3 C45_3 1_555 1_555
N8_3 Cu8_4 1_555 1_555
C15_3 N3_3 1_555 1_555
C18_3 N10_4 1_555 1_555
C19_3 C20_3 1_555 1_555
C19_3 N10_4 1_555 1_555
C21_3 N5_3 1_555 1_555
C25_3 N5_3 1_555 1_555
C36_3 N8_3 1_555 1_555
C40_3 N8_3 1_555 1_555
C43_3 N10_3 1_555 1_555
C44_3 C45_3 1_555 1_555
C44_3 N10_3 1_555 1_555
Cu3_2 S2_2 1_555 1_555
Br1_3 Cu3_2 1_555 1_555
Cu2_2 S1_2 1_555 1_555
C18_4 C17_4 1_555 1_555
H14_4 C18_4 1_555 1_555
C21_4 H17_4 1_555 1_555
C22_4 C21_4 1_555 1_555
H18_4 C22_4 1_555 1_555
C23_4 C22_4 1_555 1_555
C24_4 C23_4 1_555 1_555
H19_4 C24_4 1_555 1_555
C25_4 C24_4 1_555 1_555
H20_4 C25_4 1_555 1_555
N5_4 Cu2_2 1_555 1_555
Cu7 N11_2 1_555 1_555
C36_4 H29_4 1_555 1_555
C37_4 C36_4 1_555 1_555
H30_4 C37_4 1_555 1_555
C38_4 C37_4 1_555 1_555
C39_4 C38_4 1_555 1_555
C40_4 C39_4 1_555 1_555
C41_4 C38_4 1_555 1_555
C46_4 H37_4 1_555 1_555
C47_4 C46_4 1_555 1_555
H38_4 C47_4 1_555 1_555
C48_4 C23_4 1_555 1_555
C49_4 C48_4 1_555 1_555
H39_4 C49_4 1_555 1_555
C50_4 C49_4 1_555 1_555
H40_4 C50_4 1_555 1_555
N8_4 Cu2_2 1_555 1_555
N11_2 C46_4 1_555 1_555
C18_4 N4_2 1_555 1_555
C19_4 C20_4 1_555 1_555
C19_4 N4_2 1_555 1_555
C21_4 N5_4 1_555 1_555
C25_4 N5_4 1_555 1_555
C36_4 N8_4 1_555 1_555
C40_4 N8_4 1_555 1_555
C47_4 C48_4 1_555 1_555
C50_4 N11_2 1_555 1_555
Cu11_2 S6_2 1_555 1_555
C11_4 H9_4 1_555 1_555
C12_4 C11_4 1_555 1_555
H10_4 C12_4 1_555 1_555
C13_4 C12_4 1_555 1_555
C14_4 C13_4 1_555 1_555
C15_4 C14_4 1_555 1_555
C16_4 C13_4 1_555 1_555
N3_4 C11_4 1_555 1_555
W3_2 S5_2 1_555 1_555
Cu5_2 S5_2 1_555 1_555
Cu7 N3_4 1_555 1_555
S5_2 Cu7 1_555 1_555
C43_4 C42_4 1_555 1_555
H34_4 C43_4 1_555 1_555
N9_2 Cu5_2 1_555 1_555
C15_4 N3_4 1_555 1_555
C43_4 N9_2 1_555 1_555
C44_4 C45_4 1_555 1_555
C44_4 N9_2 1_555 1_555
Br1_4 Cu11_2 1_555 1_555
S9_2 W2_4 1_555 1_555
C26_4 H21_4 1_555 1_555
C27_4 C26_4 1_555 1_555
H22_4 C27_4 1_555 1_555
C28_4 C27_4 1_555 1_555
C29_4 C28_4 1_555 1_555
H23_4 C29_4 1_555 1_555
C30_4 C29_4 1_555 1_555
H24_4 C30_4 1_555 1_555
C31_4 C28_4 1_555 1_555
C32_4 C31_4 1_555 1_555
H25_4 C32_4 1_555 1_555
C33_4 C32_4 1_555 1_555
H26_4 C33_4 1_555 1_555
C34_4 H27_4 1_555 1_555
C35_4 C31_4 1_555 1_555
H28_4 C35_4 1_555 1_555
N6_4 Cu4_4 1_555 1_555
N7_4 Cu11_2 1_555 1_555
O2_4 W2_4 1_555 1_555
Cu11_2 S3_4 1_555 1_555
Cu4_4 S9_2 1_555 1_555
C26_4 N6_4 1_555 1_555
C30_4 N6_4 1_555 1_555
C33_4 N7_4 1_555 1_555
C34_4 C35_4 1_555 1_555
C34_4 N7_4 1_555 1_555
C1_4 H1_4 1_555 1_555
C2_4 C1_4 1_555 1_555
H2_4 C2_4 1_555 1_555
C3_4 C2_4 1_555 1_555
C4_4 C3_4 1_555 1_555
H3_4 C4_4 1_555 1_555
C5_4 C4_4 1_555 1_555
H4_4 C5_4 1_555 1_555
C6_4 C3_4 1_555 1_555
C7_4 C6_4 1_555 1_555
H5_4 C7_4 1_555 1_555
C8_4 C7_4 1_555 1_555
H6_4 C8_4 1_555 1_555
C9_4 H7_4 1_555 1_555
C10_4 C6_4 1_555 1_555
H8_4 C10_4 1_555 1_555
N1_4 Cu5_2 1_555 1_555
N2_4 C8_4 1_555 1_555
O1_4 W3_2 1_555 1_555
C1_4 N1_4 1_555 1_555
C5_4 N1_4 1_555 1_555
C9_4 C10_4 1_555 1_555
C9_4 N2_4 1_555 1_555

#END
