
###############################################################################
#
# This file contains modified crystal structure data generated from the
# MOF subset of the Cambridge Structural Database (CSD) v543 
# hosted by the Cambridge Crystallographic Data Centre (CCDC).
#
# This work is licensed under the Creative Commons
# Attribution-NonCommercial-ShareAlike 4.0 International License.
# To view a copy of this license, visit
# http://creativecommons.org/licenses/by-nc-sa/4.0/
# or send a letter to
# Creative Commons, PO Box 1866, Mountain View, CA 94042, USA.
#
# CIF created using the CSD Python API on 29 September 2022
# The structure has been converted into the P1 space group
# The structure has a 3D framework
# The original CSD entry IBITUK is in the triclinic crystal system
# The framework has been calculated to contain at least 10.0% void space
# The void calculation uses a probe of radius 1.32A, grid spacing 0.4
# The framework is charged, counterions have been retained in the structure
# H atom positions have been added when not included in the experimental data
# Generated hydrogen atom positions removed from atoms on special positions
#
###############################################################################

data_IBITUK
_chemical_formula_moiety         '(C56 H72 Cu8 N18 O26 2+)n'
_symmetry_cell_setting           triclinic
_symmetry_space_group_name_H-M   'P 1'
_symmetry_Int_Tables_number      1
_space_group_name_Hall           'P 1'
loop_
_symmetry_equiv_pos_site_id
_symmetry_equiv_pos_as_xyz
1 x,y,z
_cell_length_a                   12.108(2)
_cell_length_b                   13.115(3)
_cell_length_c                   14.530(3)
_cell_angle_alpha                73.38(3)
_cell_angle_beta                 68.48(3)
_cell_angle_gamma                79.95(3)
_cell_volume                     2050.52
loop_
_atom_site_label
_atom_site_type_symbol
_atom_site_fract_x
_atom_site_fract_y
_atom_site_fract_z
Cu9 Cu 0.5000 0.0000 -0.0000
Cu9_2 Cu 0.5000 0.0000 1.0000
H54 H 0.0836 0.0015 0.7916
Cu6 Cu 0.211267(4) 0.270210(4) 0.289568(3)
Cu9_3 Cu 0.5000 1.0000 -0.0000
O14 O 0.14170(3) 0.36806(2) 0.19215(2)
N14 N 0.34723(3) 0.93035(3) 0.05294(3)
C29 C 0.30016(4) 0.89587(4) 0.00014(3)
N17 N 0.19867(3) 0.85424(4) 0.06071(3)
C36 C 0.06689(3) 0.42744(3) 0.05592(3)
O28 O 0.20029(4) 0.27310(4) 0.07636(3)
C42 C 0.14261(4) 0.35020(4) 0.11132(3)
N21 N 0.17584(4) 0.86105(5) 0.15792(3)
C50 C 0.11613(4) 0.80467(5) 0.03693(4)
H43 H 0.0447 0.8522 0.0388
H44 H 0.0932 0.7389 0.0882
C53 C 0.27567(5) 0.61614(5) 0.01551(4)
H47 H 0.3103 0.6571 0.0418
H49 H 0.2045 0.5881 0.0674
C54 C 0.26770(5) 0.90717(6) 0.14905(4)
H50 H 0.2778 0.9228 0.2039
Cu1 Cu 0.0000 0.5000 0.5000
O7 O 0.10522(3) 0.55400(3) 0.71854(2)
H4 H 0.1072 0.6066 0.7376
O8 O 0.13159(3) 0.53146(3) 0.53651(2)
O12 O 0.00533(3) 0.40911(3) 0.78366(2)
C3 C 0.01790(3) 0.49831(3) 0.89921(3)
C9 C 0.04318(4) 0.48842(4) 0.79119(3)
Cu8 Cu 0.788733(4) 0.729790(4) 0.710432(3)
Cu9_4 Cu 0.5000 1.0000 1.0000
O18 O 0.29660(2) 0.15865(2) 0.36830(2)
N10 N 0.66135(3) 0.63358(3) 0.75453(3)
N11 N 0.33865(3) 0.36642(3) 0.24547(3)
N13 N 0.09075(3) 0.16888(3) 0.32640(3)
O19 O 0.10488(3) 0.34549(3) 0.43475(2)
H30 H 0.3333 0.9001 0.9305
N16 N 0.06902(3) 0.89662(3) 0.65697(3)
O21 O 0.06907(3) 0.59292(3) 0.36332(2)
N18 N 0.49194(3) 0.56967(3) 0.79612(3)
N19 N 0.57444(4) 0.48455(4) 0.78957(4)
C35 C 0.08273(4) 0.42775(3) 0.95507(3)
H36 H 0.1390 0.3786 0.9246
C38 C 0.01660(4) 0.80769(4) 0.68231(3)
H37 H 0.0497 0.7393 0.7030
C40 C 0.67474(5) 0.52739(4) 0.76408(5)
H39 H 0.7482 0.4882 0.7536
C41 C 0.54532(4) 0.65717(4) 0.77497(3)
H40 H 0.5072 0.7252 0.7745
C44 C 0.18699(4) 0.90771(5) 0.65862(4)
H41 H 0.1918 0.9801 0.6605
H42 H 0.2481 0.8934 0.5973
C45 C 0.17202(4) 0.78101(4) 0.93330(3)
C46 C 0.29319(4) 0.66096(4) 0.82892(4)
C47 C 0.24521(4) 0.68731(4) 0.92393(4)
C48 C 0.20763(4) 0.82948(4) 0.75228(3)
C49 C 0.15403(4) 0.85331(4) 0.84744(3)
C51 C 0.27704(4) 0.73245(4) 0.74148(4)
C52 C 0.36606(4) 0.55594(4) 0.82153(5)
H45 H 0.3387 0.5038 0.8860
H46 H 0.3558 0.5296 0.7694
H48 H 0.3315 0.5583 0.9952
C55 C 0.33639(5) 0.70713(6) 0.63972(4)
H51 H 0.3461 0.6311 0.6483
H52 H 0.4130 0.7356 0.6080
H53 H 0.2882 0.7384 0.5974
C56 C 0.07582(6) 0.95593(5) 0.85808(5)
H55 H 0.1000 0.9915 0.8961
O11 O 0.40180(4) 0.13696(4) 0.09335(3)
O10 O 0.56032(3) 0.04958(3) 0.71064(2)
O16 O 0.45206(3) 0.09549(3) 0.88558(2)
N15 N 0.65277(3) 0.06965(3) 0.94706(3)
O20 O 0.52998(3) 0.10049(3) 0.22951(2)
O24 O 0.29986(3) 0.24242(3) 0.48062(3)
C30 C 0.48466(4) 0.02436(3) 0.29882(3)
C32 C 0.42103(3) 0.08227(3) 0.46721(3)
C33 C 0.48768(3) 0.01346(3) 0.40508(3)
C34 C 0.43562(4) 0.06758(3) 0.56083(3)
H35 H 0.3925 0.1137 0.6021
C43 C 0.33315(4) 0.16869(4) 0.43702(3)
O2 O 0.54794(3) 0.90451(3) 0.11442(2)
C7 C 0.91727(4) 0.57225(3) 0.04493(3)
H8 H 0.8610 0.6214 0.0754
O22 O 0.89478(3) 0.44600(3) 0.28146(2)
H32 H 0.8928 0.3934 0.2624
O27 O 0.99467(3) 0.59089(3) 0.21634(2)
C31 C 0.98210(3) 0.50169(3) 0.10079(3)
C37 C 0.95682(4) 0.51158(4) 0.20881(3)
Cu1_2 Cu 1.0000 0.5000 0.5000
O1 O 0.85830(3) 0.63194(2) 0.80785(2)
O3 O 0.70340(2) 0.84135(2) 0.63170(2)
O4 O 0.89512(3) 0.65451(3) 0.56525(2)
O5 O 0.47002(3) 0.89951(3) 0.77049(2)
O6 O 0.93093(3) 0.40708(3) 0.63668(2)
O9 O 0.70014(3) 0.75758(3) 0.51938(3)
C2 C 0.51534(4) 0.97564(3) 0.70118(3)
C4 C 0.57897(3) 0.91773(3) 0.53279(3)
C5 C 0.51232(3) 0.98654(3) 0.59492(3)
C6 C 0.56438(4) 0.93242(3) 0.43917(3)
H7 H 0.6075 0.8863 0.3979
C8 C 0.93311(3) 0.57256(3) 0.94408(3)
O13 O 0.79971(4) 0.72690(4) 0.92364(3)
C14 C 0.85739(4) 0.64980(4) 0.88868(3)
C15 C 0.66685(4) 0.83131(4) 0.56298(3)
N12 N 0.90925(3) 0.83112(3) 0.67360(3)
O23 O 0.86841(3) 0.46854(3) 0.46349(2)
O25 O 0.43968(3) 0.95042(3) 0.28936(2)
O26 O 0.59820(4) 0.86304(4) 0.90665(3)
N20 N 0.99491(4) 0.98221(3) 0.62996(3)
C39 C 0.90095(4) 0.93912(4) 0.64039(4)
H38 H 0.8346 0.9783 0.6265
H56 H 0.9943 0.9397 0.8933
N8 N 0.00509(4) 0.01779(3) 0.37004(3)
C11 C 0.09905(4) 0.06088(4) 0.35961(4)
H10 H 0.1654 0.0217 0.3735
H28 H 0.0057 0.0603 0.1067
H2 H 0.6667 0.0999 0.0695
N4 N 0.93098(3) 0.10338(3) 0.34303(3)
N6 N 0.50806(3) 0.43033(3) 0.20388(3)
N7 N 0.42556(4) 0.51545(4) 0.21043(4)
C10 C 0.98340(4) 0.19231(4) 0.31769(3)
H9 H 0.9503 0.2607 0.2970
C12 C 0.32526(5) 0.47261(4) 0.23592(5)
H11 H 0.2518 0.5118 0.2464
C13 C 0.45468(4) 0.34283(4) 0.22503(3)
H12 H 0.4928 0.2748 0.2255
C16 C 0.81301(4) 0.09229(5) 0.34138(4)
H13 H 0.8082 0.0199 0.3395
H14 H 0.7519 0.1066 0.4027
C17 C 0.82798(4) 0.21899(4) 0.06670(3)
C18 C 0.70681(4) 0.33904(4) 0.17108(4)
C19 C 0.75479(4) 0.31269(4) 0.07607(4)
C20 C 0.79237(4) 0.17052(4) 0.24772(3)
C21 C 0.84597(4) 0.14669(4) 0.15256(3)
C23 C 0.72296(4) 0.26755(4) 0.25852(4)
C24 C 0.63394(4) 0.44406(4) 0.17847(5)
H17 H 0.6613 0.4962 0.1140
H18 H 0.6442 0.4704 0.2306
H20 H 0.6685 0.4417 0.0048
C27 C 0.66361(5) 0.29287(6) 0.36028(4)
H23 H 0.6539 0.3689 0.3517
H24 H 0.5870 0.2644 0.3920
H25 H 0.7118 0.2616 0.4026
C28 C 0.92418(6) 0.04407(5) 0.14192(5)
H27 H 0.9000 0.0085 0.1039
C1 C 0.69984(4) 0.10413(4) 0.99986(3)
N5 N 0.80133(3) 0.14576(4) 0.93929(3)
N9 N 0.82416(4) 0.13895(5) 0.84208(3)
C22 C 0.88387(4) 0.19533(5) 0.96307(4)
H15 H 0.9553 0.1478 0.9612
H16 H 0.9068 0.2611 0.9118
C25 C 0.72433(5) 0.38386(5) 0.98449(4)
H19 H 0.6897 0.3429 0.9582
H21 H 0.7955 0.4119 0.9326
C26 C 0.73230(5) 0.09283(6) 0.85095(4)
H22 H 0.7222 0.0772 0.7961
H26 H 0.9164 0.9985 0.2084
loop_
_geom_bond_atom_site_label_1
_geom_bond_atom_site_label_2
_geom_bond_site_symmetry_1
_geom_bond_site_symmetry_2
Cu6 O14 1_555 1_555
Cu9_3 N14 1_555 1_555
O14 C42 1_555 1_555
N14 C29 1_555 1_555
N17 C29 1_555 1_555
O28 C42 1_555 1_555
C42 C36 1_555 1_555
N21 N17 1_555 1_555
C50 N17 1_555 1_555
H43 C50 1_555 1_555
H44 C50 1_555 1_555
C53 H47 1_555 1_555
H49 C53 1_555 1_555
C54 N14 1_555 1_555
H50 C54 1_555 1_555
N21 C54 1_555 1_555
O7 H4 1_555 1_555
O8 Cu1 1_555 1_555
O12 C9 1_555 1_555
C9 O7 1_555 1_555
Cu8 N10 1_555 1_555
O18 Cu6 1_555 1_555
N10 C40 1_555 1_555
N11 Cu6 1_555 1_555
N13 Cu6 1_555 1_555
O19 Cu1 1_555 1_555
O21 Cu1 1_555 1_555
N18 N19 1_555 1_555
N19 C40 1_555 1_555
C35 C3 1_555 1_555
H36 C35 1_555 1_555
H37 C38 1_555 1_555
C40 H39 1_555 1_555
C41 N10 1_555 1_555
H40 C41 1_555 1_555
C44 N16 1_555 1_555
H41 C44 1_555 1_555
H42 C44 1_555 1_555
C45 C47 1_555 1_555
C46 C47 1_555 1_555
C48 C44 1_555 1_555
C49 C45 1_555 1_555
C51 C46 1_555 1_555
C52 N18 1_555 1_555
H45 C52 1_555 1_555
H46 C52 1_555 1_555
C55 C51 1_555 1_555
H51 C55 1_555 1_555
H52 C55 1_555 1_555
H53 C55 1_555 1_555
C56 C49 1_555 1_555
H55 C56 1_555 1_555
C3 C9 1_555 1_555
Cu6 O19 1_555 1_555
N16 C38 1_555 1_555
N18 C41 1_555 1_555
C46 C52 1_555 1_555
C48 C49 1_555 1_555
C48 C51 1_555 1_555
O11 Cu9 1_555 1_555
O16 Cu9_2 1_555 1_555
O18 C43 1_555 1_555
N15 Cu9_2 1_555 1_555
O20 C30 1_555 1_555
O24 C43 1_555 1_555
C30 C33 1_555 1_555
C32 C33 1_555 1_555
C34 C32 1_555 1_555
H35 C34 1_555 1_555
C43 C32 1_555 1_555
Cu9_3 O2 1_555 1_555
C7 H8 1_555 1_555
O22 H32 1_555 1_555
O27 C37 1_555 1_555
C31 C7 1_555 1_555
C37 O22 1_555 1_555
C31 C37 1_555 1_555
Cu1_2 O4 1_555 1_555
Cu8 O1 1_555 1_555
O1 C14 1_555 1_555
O3 Cu8 1_555 1_555
O4 Cu8 1_555 1_555
O5 C2 1_555 1_555
O6 Cu1_2 1_555 1_555
O9 C15 1_555 1_555
C2 C5 1_555 1_555
C4 C5 1_555 1_555
C6 C4 1_555 1_555
H7 C6 1_555 1_555
O13 C14 1_555 1_555
C14 C8 1_555 1_555
C15 O3 1_555 1_555
N12 Cu8 1_555 1_555
O23 Cu1_2 1_555 1_555
O26 Cu9_4 1_555 1_555
N20 C39 1_555 1_555
C39 N12 1_555 1_555
H38 C39 1_555 1_555
C4 C15 1_555 1_555
N8 C11 1_555 1_555
C11 N13 1_555 1_555
H10 C11 1_555 1_555
N6 N7 1_555 1_555
N7 C12 1_555 1_555
C10 N4 1_555 1_555
H9 C10 1_555 1_555
C12 N11 1_555 1_555
H11 C12 1_555 1_555
C13 N11 1_555 1_555
H12 C13 1_555 1_555
C16 N4 1_555 1_555
H13 C16 1_555 1_555
H14 C16 1_555 1_555
C17 C19 1_555 1_555
C18 C19 1_555 1_555
C20 C16 1_555 1_555
C21 C17 1_555 1_555
C23 C18 1_555 1_555
C24 N6 1_555 1_555
H17 C24 1_555 1_555
H18 C24 1_555 1_555
C27 C23 1_555 1_555
H23 C27 1_555 1_555
H24 C27 1_555 1_555
H25 C27 1_555 1_555
C28 C21 1_555 1_555
H27 C28 1_555 1_555
N6 C13 1_555 1_555
C18 C24 1_555 1_555
C20 C21 1_555 1_555
C20 C23 1_555 1_555
C1 N15 1_555 1_555
N5 C1 1_555 1_555
N9 N5 1_555 1_555
C22 N5 1_555 1_555
H15 C22 1_555 1_555
H16 C22 1_555 1_555
C25 H19 1_555 1_555
H21 C25 1_555 1_555
C26 N15 1_555 1_555
H22 C26 1_555 1_555
N9 C26 1_555 1_555

#END
