
###############################################################################
#
# This file contains modified crystal structure data generated from the
# MOF subset of the Cambridge Structural Database (CSD) v543 
# hosted by the Cambridge Crystallographic Data Centre (CCDC).
#
# This work is licensed under the Creative Commons
# Attribution-NonCommercial-ShareAlike 4.0 International License.
# To view a copy of this license, visit
# http://creativecommons.org/licenses/by-nc-sa/4.0/
# or send a letter to
# Creative Commons, PO Box 1866, Mountain View, CA 94042, USA.
#
# CIF created using the CSD Python API on 29 September 2022
# The structure has been converted into the P1 space group
# The structure has a 3D framework
# The original CSD entry IBIXUO is in the monoclinic crystal system
# The framework has been calculated to contain at least 10.0% void space
# The void calculation uses a probe of radius 1.32A, grid spacing 0.4
#
###############################################################################

data_IBIXUO
_chemical_formula_moiety         '(C176 H168 Cu8 N40 O68)n'
_symmetry_cell_setting           triclinic
_symmetry_space_group_name_H-M   'P 1'
_symmetry_Int_Tables_number      1
_space_group_name_Hall           'P 1'
loop_
_symmetry_equiv_pos_site_id
_symmetry_equiv_pos_as_xyz
1 x,y,z
_cell_length_a                   19.352(3)
_cell_length_b                   10.6369(14)
_cell_length_c                   26.107(3)
_cell_angle_alpha                90
_cell_angle_beta                 102.614(3)
_cell_angle_gamma                90
_cell_volume                     5244.29
loop_
_atom_site_label
_atom_site_type_symbol
_atom_site_fract_x
_atom_site_fract_y
_atom_site_fract_z
C10 C 0.4002(6) 0.0500(9) 0.2808(3)
H9 H 0.4204 0.0731 0.3178
H10 H 0.4270 0.0960 0.2585
C11 C 0.3227(6) 0.0920(11) 0.2665(4)
H11 H 0.2949 0.0240 0.2783
H12 H 0.3091 0.0927 0.2277
C12 C 0.2954(7) 0.2154(10) 0.2848(4)
O8 O 0.3291(4) 0.2457(7) 0.3309(3)
H21 H 0.3058 0.2997 0.3435
O9 O 0.2468(5) 0.2772(8) 0.2619(3)
C18 C 0.6459(3) 0.0374(5) 0.93287(19)
H17 H 0.6480 0.0988 0.9068
N5 N 0.70409(19) 0.0150(4) 0.97004(16)
Cu2 Cu 0.78955(3) 0.12221(5) 0.97313(2)
Cu1 Cu 0.71045(3) 0.62221(5) 0.52687(2)
C1 C 0.5912(4) 0.8636(9) 0.2756(2)
C2 C 0.5924(3) 0.6522(8) 0.2400(2)
C3 C 0.5905(4) 0.8338(8) 0.1824(3)
C4 C 0.5937(3) 0.6775(9) 0.3332(2)
H1 H 0.5709 0.5937 0.3295
H2 H 0.5679 0.7316 0.3535
C5 C 0.6704(3) 0.6643(6) 0.3628(2)
H3 H 0.6951 0.6039 0.3441
H4 H 0.6945 0.7466 0.3636
C6 C 0.6753(3) 0.6189(5) 0.4186(2)
C7 C 0.5932(3) 0.6173(7) 0.1478(2)
H5 H 0.5730 0.6585 0.1138
H6 H 0.5654 0.5401 0.1502
C8 C 0.6699(3) 0.5826(6) 0.1503(2)
H7 H 0.6996 0.6593 0.1568
H8 H 0.6864 0.5239 0.1798
C9 C 0.6784(3) 0.5220(5) 0.0998(2)
C13 C 0.6169(2) 0.8193(5) 0.55016(19)
H13 H 0.6604 0.8579 0.5665
C14 C 0.5545(3) 0.8782(5) 0.5535(2)
H14 H 0.5555 0.9557 0.5718
C15 C 0.4903(2) 0.8232(4) 0.53000(18)
C16 C 0.4926(3) 0.7093(5) 0.5037(2)
H15 H 0.4499 0.6686 0.4871
C17 C 0.5568(3) 0.6565(5) 0.5019(2)
H16 H 0.5575 0.5793 0.4837
C19 C 0.4170(2) 0.9751(5) 0.56917(19)
H18 H 0.4571 0.9936 0.5963
C20 C 0.4218(2) 0.8853(4) 0.53158(19)
C21 C 0.3597(3) 0.8584(5) 0.4944(2)
H19 H 0.3596 0.7951 0.4687
C22 C 0.2983(3) 0.9249(5) 0.4952(2)
H20 H 0.2564 0.9051 0.4700
N1 N 0.5888(3) 0.7326(7) 0.28054(18)
N2 N 0.5878(3) 0.7042(6) 0.19180(17)
N3 N 0.5898(4) 0.9087(7) 0.2259(2)
N4 N 0.61886(19) 0.7104(4) 0.52499(15)
O1 O 0.5925(3) 0.9338(6) 0.31243(18)
O2 O 0.5953(3) 0.5394(7) 0.24682(18)
O3 O 0.5908(4) 0.8760(6) 0.14010(18)
O4 O 0.71505(16) 0.6827(3) 0.45542(11)
O5 O 0.6415(2) 0.5264(4) 0.42731(17)
O6 O 0.71266(17) 0.4177(3) 0.10304(14)
O7 O 0.6535(2) 0.5723(4) 0.05731(14)
Cu3 Cu 0.78955(3) 0.87779(5) 0.47313(2)
Cu4 Cu 0.71045(3) 0.37779(5) 0.02687(2)
N6 N 0.79591(19) 0.5150(4) 0.52996(16)
O10 O 0.78495(16) 0.8173(3) 0.54458(11)
O11 O 0.71266(17) 0.5823(3) 0.60304(14)
O12 O 0.6535(2) 0.4277(4) 0.55731(14)
C1_2 C 0.9088(4) 0.3636(9) 0.2244(2)
C2_2 C 0.9076(3) 0.1522(8) 0.2600(2)
C3_2 C 0.9095(4) 0.3338(8) 0.3176(3)
C4_2 C 0.9063(3) 0.1775(9) 0.1668(2)
H1_2 H 0.9291 0.0937 0.1705
H2_2 H 0.9321 0.2316 0.1465
C5_2 C 0.8296(3) 0.1643(6) 0.1372(2)
H3_2 H 0.8049 0.1039 0.1559
H4_2 H 0.8055 0.2466 0.1364
C6_2 C 0.8247(3) 0.1189(5) 0.0814(2)
C7_2 C 0.9068(3) 0.1173(7) 0.3522(2)
H5_2 H 0.9270 0.1585 0.3862
H6_2 H 0.9346 0.0401 0.3498
C8_2 C 0.8301(3) 0.0826(6) 0.3497(2)
H7_2 H 0.8004 0.1593 0.3432
H8_2 H 0.8136 0.0239 0.3202
C9_2 C 0.8216(3) 0.0220(5) 0.4002(2)
C10_2 C 0.9002(6) 0.5500(9) 0.2808(3)
H9_2 H 0.9204 0.5731 0.3178
H10_2 H 0.9270 0.5960 0.2585
C11_2 C 0.8227(6) 0.5920(11) 0.2665(4)
H11_2 H 0.7949 0.5240 0.2783
H12_2 H 0.8091 0.5927 0.2277
C12_2 C 0.7954(7) 0.7154(10) 0.2848(4)
H16_2 H 0.9425 0.0793 0.0163
N1_2 N 0.9112(3) 0.2326(7) 0.21946(18)
N2_2 N 0.9122(3) 0.2042(6) 0.30820(17)
N3_2 N 0.9102(4) 0.4087(7) 0.2741(2)
O1_2 O 0.9075(3) 0.4338(6) 0.18757(18)
O2_2 O 0.9047(3) 0.0394(7) 0.25318(18)
O3_2 O 0.9092(4) 0.3760(6) 0.35990(18)
O4_2 O 0.78495(16) 0.1827(3) 0.04458(11)
O5_2 O 0.8585(2) 0.0264(4) 0.07269(17)
O7_2 O 0.8465(2) 0.0723(4) 0.44269(14)
O8_2 O 0.8291(4) 0.7457(7) 0.3309(3)
H21_2 H 0.8058 0.7997 0.3435
O9_2 O 0.7468(5) 0.7772(8) 0.2619(3)
C13_2 C 0.8831(2) 0.3193(5) 0.94984(19)
H13_2 H 0.8396 0.3579 0.9335
C14_2 C 0.9455(3) 0.3782(5) 0.9465(2)
H14_2 H 0.9445 0.4557 0.9282
C17_2 C 0.9432(3) 0.1565(5) 0.9981(2)
N4_2 N 0.88114(19) 0.2104(4) 0.97501(15)
O10_2 O 0.71505(16) 0.3173(3) 0.95542(11)
O11_2 O 0.78734(17) 0.0823(3) 0.89696(14)
O6_2 O 0.78734(17) 0.9177(3) 0.39696(14)
O12_2 O 0.8465(2) 0.9277(4) 0.94269(14)
C15_2 C 0.9903(2) 0.3232(4) 0.53000(18)
C16_2 C 0.9926(3) 0.2093(5) 0.5037(2)
H15_2 H 0.9499 0.1686 0.4871
C18_2 C 0.8541(3) 0.5374(5) 0.56713(19)
H17_2 H 0.8520 0.5988 0.5932
C19_2 C 0.9170(2) 0.4751(5) 0.56917(19)
H18_2 H 0.9571 0.4936 0.5963
C20_2 C 0.9218(2) 0.3853(4) 0.53158(19)
C21_2 C 0.8597(3) 0.3584(5) 0.4944(2)
H19_2 H 0.8596 0.2951 0.4687
C22_2 C 0.7983(3) 0.4249(5) 0.4952(2)
H20_2 H 0.7564 0.4051 0.4700
C13_3 C 0.6169(2) 0.1807(5) 0.05016(19)
H13_3 H 0.6604 0.1421 0.0665
C14_3 C 0.5545(3) 0.1218(5) 0.0535(2)
H14_3 H 0.5555 0.0443 0.0718
C15_3 C 0.4903(2) 0.1768(4) 0.03000(18)
C16_3 C 0.4926(3) 0.2907(5) 0.0037(2)
C17_3 C 0.5568(3) 0.3435(5) 0.0019(2)
C19_3 C 0.4170(2) 0.0249(5) 0.06917(19)
H18_3 H 0.4571 0.0064 0.0963
C20_3 C 0.4218(2) 0.1147(4) 0.03158(19)
N4_3 N 0.61886(19) 0.2896(4) 0.02499(15)
N6_2 N 0.79591(19) 0.4850(4) 0.02996(16)
C1_3 C 0.5912(4) 0.1364(9) 0.7756(2)
C2_3 C 0.5924(3) 0.3478(8) 0.7400(2)
C3_3 C 0.5905(4) 0.1662(8) 0.6824(3)
C4_3 C 0.5937(3) 0.3225(9) 0.8332(2)
H1_3 H 0.5709 0.4063 0.8295
H2_3 H 0.5679 0.2684 0.8535
C5_3 C 0.6704(3) 0.3357(6) 0.8628(2)
H3_3 H 0.6951 0.3961 0.8441
H4_3 H 0.6945 0.2534 0.8636
C6_3 C 0.6753(3) 0.3811(5) 0.9186(2)
C7_3 C 0.5932(3) 0.3827(7) 0.6478(2)
H5_3 H 0.5730 0.3415 0.6138
H6_3 H 0.5654 0.4599 0.6502
C8_3 C 0.6699(3) 0.4174(6) 0.6503(2)
H7_3 H 0.6996 0.3407 0.6568
H8_3 H 0.6864 0.4761 0.6798
C9_3 C 0.6784(3) 0.4780(5) 0.5998(2)
H15_3 H 0.4499 0.3314 0.9871
H16_3 H 0.5575 0.4207 0.9837
C21_3 C 0.3597(3) 0.1416(5) 0.9944(2)
H19_3 H 0.3596 0.2049 0.9687
C22_3 C 0.2983(3) 0.0751(5) 0.9952(2)
H20_3 H 0.2564 0.0949 0.9700
N1_3 N 0.5888(3) 0.2674(7) 0.78054(18)
N2_3 N 0.5878(3) 0.2958(6) 0.69180(17)
N3_3 N 0.5898(4) 0.0913(7) 0.7259(2)
O1_3 O 0.5925(3) 0.0662(6) 0.81243(18)
O2_3 O 0.5953(3) 0.4606(7) 0.74682(18)
O3_3 O 0.5908(4) 0.1240(6) 0.64010(18)
O5_3 O 0.6415(2) 0.4736(4) 0.92731(17)
C10_3 C 0.4002(6) 0.9500(9) 0.7808(3)
H9_3 H 0.4204 0.9269 0.8178
H10_3 H 0.4270 0.9040 0.7585
C11_3 C 0.3227(6) 0.9080(11) 0.7665(4)
H11_3 H 0.2949 0.9760 0.7783
H12_3 H 0.3091 0.9073 0.7277
C12_3 C 0.2954(7) 0.7846(10) 0.7848(4)
C18_3 C 0.6459(3) 0.9626(5) 0.43287(19)
H17_3 H 0.6480 0.9012 0.4068
N5_2 N 0.70409(19) 0.9850(4) 0.47004(16)
O8_3 O 0.3291(4) 0.7543(7) 0.8309(3)
H21_3 H 0.3058 0.7003 0.8435
O9_3 O 0.2468(5) 0.7228(8) 0.7619(3)
C15_4 C 0.9903(2) 0.6768(4) 0.03000(18)
C16_4 C 0.9926(3) 0.7907(5) 0.0037(2)
C18_4 C 0.8541(3) 0.4626(5) 0.06713(19)
H17_4 H 0.8520 0.4012 0.0932
C19_4 C 0.9170(2) 0.5249(5) 0.06917(19)
H18_4 H 0.9571 0.5064 0.0963
C20_4 C 0.9218(2) 0.6147(4) 0.03158(19)
C1_4 C 0.9088(4) 0.6364(9) 0.7244(2)
C2_4 C 0.9076(3) 0.8478(8) 0.7600(2)
C3_4 C 0.9095(4) 0.6662(8) 0.8176(3)
C4_4 C 0.9063(3) 0.8225(9) 0.6668(2)
H1_4 H 0.9291 0.9063 0.6705
H2_4 H 0.9321 0.7684 0.6465
C5_4 C 0.8296(3) 0.8357(6) 0.6372(2)
H3_4 H 0.8049 0.8961 0.6559
H4_4 H 0.8055 0.7534 0.6364
C6_4 C 0.8247(3) 0.8811(5) 0.5814(2)
C7_4 C 0.9068(3) 0.8827(7) 0.8522(2)
H5_4 H 0.9270 0.8415 0.8862
H6_4 H 0.9346 0.9599 0.8498
C8_4 C 0.8301(3) 0.9174(6) 0.8497(2)
H7_4 H 0.8004 0.8407 0.8432
H8_4 H 0.8136 0.9761 0.8202
C9_4 C 0.8216(3) 0.9780(5) 0.9002(2)
C10_4 C 0.9002(6) 0.4500(9) 0.7808(3)
H9_4 H 0.9204 0.4269 0.8178
H10_4 H 0.9270 0.4040 0.7585
C11_4 C 0.8227(6) 0.4080(11) 0.7665(4)
H11_4 H 0.7949 0.4760 0.7783
H12_4 H 0.8091 0.4073 0.7277
C12_4 C 0.7954(7) 0.2846(10) 0.7848(4)
C13_4 C 0.8831(2) 0.6807(5) 0.44984(19)
H13_4 H 0.8396 0.6421 0.4335
C14_4 C 0.9455(3) 0.6218(5) 0.4465(2)
H14_4 H 0.9445 0.5443 0.4282
C17_4 C 0.9432(3) 0.8435(5) 0.4981(2)
H16_4 H 0.9425 0.9207 0.5163
N1_4 N 0.9112(3) 0.7674(7) 0.71946(18)
N2_4 N 0.9122(3) 0.7958(6) 0.80820(17)
N3_4 N 0.9102(4) 0.5913(7) 0.7741(2)
N4_4 N 0.88114(19) 0.7896(4) 0.47501(15)
O1_4 O 0.9075(3) 0.5662(6) 0.68757(18)
O2_4 O 0.9047(3) 0.9606(7) 0.75318(18)
O3_4 O 0.9092(4) 0.6240(6) 0.85990(18)
O5_4 O 0.8585(2) 0.9736(4) 0.57269(17)
O8_4 O 0.8291(4) 0.2543(7) 0.8309(3)
H21_4 H 0.8058 0.2003 0.8435
O9_4 O 0.7468(5) 0.2228(8) 0.7619(3)
C1_5 C 0.4088(4) 0.8636(9) 0.2244(2)
C2_5 C 0.4076(3) 0.6522(8) 0.2600(2)
C3_5 C 0.4095(4) 0.8338(8) 0.3176(3)
C4_5 C 0.4063(3) 0.6775(9) 0.1668(2)
H1_5 H 0.4291 0.5937 0.1705
H2_5 H 0.4321 0.7316 0.1465
C5_5 C 0.3296(3) 0.6643(6) 0.1372(2)
H3_5 H 0.3049 0.6039 0.1559
H4_5 H 0.3055 0.7466 0.1364
C6_5 C 0.3247(3) 0.6189(5) 0.0814(2)
C7_5 C 0.4068(3) 0.6173(7) 0.3522(2)
H5_5 H 0.4270 0.6585 0.3862
H6_5 H 0.4346 0.5401 0.3498
C8_5 C 0.3301(3) 0.5826(6) 0.3497(2)
H7_5 H 0.3004 0.6593 0.3432
H8_5 H 0.3136 0.5239 0.3202
C9_5 C 0.3216(3) 0.5220(5) 0.4002(2)
H15_4 H 0.5501 0.6686 0.0129
H16_5 H 0.4425 0.5793 0.0163
C21_4 C 0.6403(3) 0.8584(5) 0.0056(2)
H19_4 H 0.6404 0.7951 0.0313
C22_4 C 0.7017(3) 0.9249(5) 0.0048(2)
H20_4 H 0.7436 0.9051 0.0300
N1_5 N 0.4112(3) 0.7326(7) 0.21946(18)
N2_5 N 0.4122(3) 0.7042(6) 0.30820(17)
N3_5 N 0.4102(4) 0.9087(7) 0.2741(2)
O1_5 O 0.4075(3) 0.9338(6) 0.18757(18)
O2_5 O 0.4047(3) 0.5394(7) 0.25318(18)
O3_5 O 0.4092(4) 0.8760(6) 0.35990(18)
O4_3 O 0.28495(16) 0.6827(3) 0.04458(11)
O5_5 O 0.3585(2) 0.5264(4) 0.07269(17)
O6_3 O 0.28734(17) 0.4177(3) 0.39696(14)
O7_3 O 0.3465(2) 0.5723(4) 0.44269(14)
Cu3_2 Cu 0.21045(3) 0.87779(5) 0.02687(2)
Cu4_2 Cu 0.28955(3) 0.37779(5) 0.47313(2)
Cu1_2 Cu 0.28955(3) 0.62221(5) 0.97313(2)
C13_5 C 0.3831(2) 0.8193(5) 0.94984(19)
H13_5 H 0.3396 0.8579 0.9335
C14_5 C 0.4455(3) 0.8782(5) 0.9465(2)
H14_5 H 0.4445 0.9557 0.9282
C15_5 C 0.5097(2) 0.8232(4) 0.97000(18)
C16_5 C 0.5074(3) 0.7093(5) 0.9963(2)
C17_5 C 0.4432(3) 0.6565(5) 0.9981(2)
C19_5 C 0.5830(2) 0.9751(5) 0.93083(19)
H18_5 H 0.5429 0.9936 0.9037
C20_5 C 0.5782(2) 0.8853(4) 0.96842(19)
N4_5 N 0.38114(19) 0.7104(4) 0.97501(15)
N6_3 N 0.20409(19) 0.5150(4) 0.97004(16)
O10_3 O 0.21505(16) 0.8173(3) 0.95542(11)
O11_3 O 0.28734(17) 0.5823(3) 0.89696(14)
O12_3 O 0.3465(2) 0.4277(4) 0.94269(14)
C10_5 C 0.5998(6) 0.0500(9) 0.2192(3)
H9_5 H 0.5796 0.0731 0.1822
H10_5 H 0.5730 0.0960 0.2415
C11_5 C 0.6773(6) 0.0920(11) 0.2335(4)
H11_5 H 0.7051 0.0240 0.2217
H12_5 H 0.6909 0.0927 0.2723
C12_5 C 0.7046(7) 0.2154(10) 0.2152(4)
C18_5 C 0.3541(3) 0.0374(5) 0.56713(19)
H17_5 H 0.3520 0.0988 0.5932
N5_3 N 0.29591(19) 0.0150(4) 0.52996(16)
O8_5 O 0.6709(4) 0.2457(7) 0.1691(3)
H21_5 H 0.6942 0.2997 0.1565
O9_5 O 0.7532(5) 0.2772(8) 0.2381(3)
Cu2_2 Cu 0.21045(3) 0.12221(5) 0.52687(2)
C15_6 C 0.0097(2) 0.3232(4) 0.97000(18)
C16_6 C 0.0074(3) 0.2093(5) 0.9963(2)
C18_6 C 0.1459(3) 0.5374(5) 0.93287(19)
H17_6 H 0.1480 0.5988 0.9068
C19_6 C 0.0830(2) 0.4751(5) 0.93083(19)
H18_6 H 0.0429 0.4936 0.9037
C20_6 C 0.0782(2) 0.3853(4) 0.96842(19)
C1_6 C 0.0912(4) 0.3636(9) 0.2756(2)
C2_6 C 0.0924(3) 0.1522(8) 0.2400(2)
C3_6 C 0.0905(4) 0.3338(8) 0.1824(3)
C4_6 C 0.0937(3) 0.1775(9) 0.3332(2)
H1_6 H 0.0709 0.0937 0.3295
H2_6 H 0.0679 0.2316 0.3535
C5_6 C 0.1704(3) 0.1643(6) 0.3628(2)
H3_6 H 0.1951 0.1039 0.3441
H4_6 H 0.1945 0.2466 0.3636
C6_6 C 0.1753(3) 0.1189(5) 0.4186(2)
C7_6 C 0.0932(3) 0.1173(7) 0.1478(2)
H5_6 H 0.0730 0.1585 0.1138
H6_6 H 0.0654 0.0401 0.1502
C8_6 C 0.1699(3) 0.0826(6) 0.1503(2)
H7_6 H 0.1996 0.1593 0.1568
H8_6 H 0.1864 0.0239 0.1798
C9_6 C 0.1784(3) 0.0220(5) 0.0998(2)
C10_6 C 0.0998(6) 0.5500(9) 0.2192(3)
H9_6 H 0.0796 0.5731 0.1822
H10_6 H 0.0730 0.5960 0.2415
C11_6 C 0.1773(6) 0.5920(11) 0.2335(4)
H11_6 H 0.2051 0.5240 0.2217
H12_6 H 0.1909 0.5927 0.2723
C12_6 C 0.2046(7) 0.7154(10) 0.2152(4)
C13_6 C 0.1169(2) 0.3193(5) 0.55016(19)
H13_6 H 0.1604 0.3579 0.5665
C14_6 C 0.0545(3) 0.3782(5) 0.5535(2)
H14_6 H 0.0555 0.4557 0.5718
C17_6 C 0.0568(3) 0.1565(5) 0.5019(2)
H16_6 H 0.0575 0.0793 0.4837
N1_6 N 0.0888(3) 0.2326(7) 0.28054(18)
N2_6 N 0.0878(3) 0.2042(6) 0.19180(17)
N3_6 N 0.0898(4) 0.4087(7) 0.2259(2)
N4_6 N 0.11886(19) 0.2104(4) 0.52499(15)
O1_6 O 0.0925(3) 0.4338(6) 0.31243(18)
O2_6 O 0.0953(3) 0.0394(7) 0.24682(18)
O3_6 O 0.0908(4) 0.3760(6) 0.14010(18)
O4_4 O 0.21505(16) 0.1827(3) 0.45542(11)
O5_6 O 0.1415(2) 0.0264(4) 0.42731(17)
O7_4 O 0.1535(2) 0.0723(4) 0.05731(14)
O8_6 O 0.1709(4) 0.7457(7) 0.1691(3)
H21_6 H 0.1942 0.7997 0.1565
O9_6 O 0.2532(5) 0.7772(8) 0.2381(3)
O10_4 O 0.28495(16) 0.3173(3) 0.54458(11)
O11_4 O 0.21266(17) 0.0823(3) 0.60304(14)
O6_4 O 0.21266(17) 0.9177(3) 0.10304(14)
O12_4 O 0.1535(2) 0.9277(4) 0.55731(14)
C18_7 C 0.3541(3) 0.9626(5) 0.06713(19)
H17_7 H 0.3520 0.9012 0.0932
N5_4 N 0.29591(19) 0.9850(4) 0.02996(16)
C1_7 C 0.4088(4) 0.1364(9) 0.7244(2)
C2_7 C 0.4076(3) 0.3478(8) 0.7600(2)
C3_7 C 0.4095(4) 0.1662(8) 0.8176(3)
C4_7 C 0.4063(3) 0.3225(9) 0.6668(2)
H1_7 H 0.4291 0.4063 0.6705
H2_7 H 0.4321 0.2684 0.6465
C5_7 C 0.3296(3) 0.3357(6) 0.6372(2)
H3_7 H 0.3049 0.3961 0.6559
H4_7 H 0.3055 0.2534 0.6364
C6_7 C 0.3247(3) 0.3811(5) 0.5814(2)
C7_7 C 0.4068(3) 0.3827(7) 0.8522(2)
H5_7 H 0.4270 0.3415 0.8862
H6_7 H 0.4346 0.4599 0.8498
C8_7 C 0.3301(3) 0.4174(6) 0.8497(2)
H7_7 H 0.3004 0.3407 0.8432
H8_7 H 0.3136 0.4761 0.8202
C9_7 C 0.3216(3) 0.4780(5) 0.9002(2)
C13_7 C 0.3831(2) 0.1807(5) 0.44984(19)
H13_7 H 0.3396 0.1421 0.4335
C14_7 C 0.4455(3) 0.1218(5) 0.4465(2)
H14_7 H 0.4445 0.0443 0.4282
C15_7 C 0.5097(2) 0.1768(4) 0.47000(18)
C16_7 C 0.5074(3) 0.2907(5) 0.4963(2)
H15_5 H 0.5501 0.3314 0.5129
C17_7 C 0.4432(3) 0.3435(5) 0.4981(2)
H16_7 H 0.4425 0.4207 0.5163
C19_7 C 0.5830(2) 0.0249(5) 0.43083(19)
H18_7 H 0.5429 0.0064 0.4037
C20_7 C 0.5782(2) 0.1147(4) 0.46842(19)
C21_5 C 0.6403(3) 0.1416(5) 0.5056(2)
H19_5 H 0.6404 0.2049 0.5313
C22_5 C 0.7017(3) 0.0751(5) 0.5048(2)
H20_5 H 0.7436 0.0949 0.5300
N1_7 N 0.4112(3) 0.2674(7) 0.71946(18)
N2_7 N 0.4122(3) 0.2958(6) 0.80820(17)
N3_7 N 0.4102(4) 0.0913(7) 0.7741(2)
N4_7 N 0.38114(19) 0.2896(4) 0.47501(15)
O1_7 O 0.4075(3) 0.0662(6) 0.68757(18)
O2_7 O 0.4047(3) 0.4606(7) 0.75318(18)
O3_7 O 0.4092(4) 0.1240(6) 0.85990(18)
O5_7 O 0.3585(2) 0.4736(4) 0.57269(17)
N6_4 N 0.20409(19) 0.4850(4) 0.47004(16)
C13_8 C 0.1169(2) 0.6807(5) 0.05016(19)
H13_8 H 0.1604 0.6421 0.0665
C14_8 C 0.0545(3) 0.6218(5) 0.0535(2)
H14_8 H 0.0555 0.5443 0.0718
C17_8 C 0.0568(3) 0.8435(5) 0.0019(2)
N4_8 N 0.11886(19) 0.7896(4) 0.02499(15)
C1_8 C 0.0912(4) 0.6364(9) 0.7756(2)
C2_8 C 0.0924(3) 0.8478(8) 0.7400(2)
C3_8 C 0.0905(4) 0.6662(8) 0.6824(3)
C4_8 C 0.0937(3) 0.8225(9) 0.8332(2)
H1_8 H 0.0709 0.9063 0.8295
H2_8 H 0.0679 0.7684 0.8535
C5_8 C 0.1704(3) 0.8357(6) 0.8628(2)
H3_8 H 0.1951 0.8961 0.8441
H4_8 H 0.1945 0.7534 0.8636
C6_8 C 0.1753(3) 0.8811(5) 0.9186(2)
C7_8 C 0.0932(3) 0.8827(7) 0.6478(2)
H5_8 H 0.0730 0.8415 0.6138
H6_8 H 0.0654 0.9599 0.6502
C8_8 C 0.1699(3) 0.9174(6) 0.6503(2)
H7_8 H 0.1996 0.8407 0.6568
H8_8 H 0.1864 0.9761 0.6798
C9_8 C 0.1784(3) 0.9780(5) 0.5998(2)
C10_7 C 0.0998(6) 0.4500(9) 0.7192(3)
H9_7 H 0.0796 0.4269 0.6822
H10_7 H 0.0730 0.4040 0.7415
C11_7 C 0.1773(6) 0.4080(11) 0.7335(4)
H11_7 H 0.2051 0.4760 0.7217
H12_7 H 0.1909 0.4073 0.7723
C12_7 C 0.2046(7) 0.2846(10) 0.7152(4)
H16_8 H 0.0575 0.9207 0.9837
N1_8 N 0.0888(3) 0.7674(7) 0.78054(18)
N2_8 N 0.0878(3) 0.7958(6) 0.69180(17)
N3_8 N 0.0898(4) 0.5913(7) 0.7259(2)
O1_8 O 0.0925(3) 0.5662(6) 0.81243(18)
O2_8 O 0.0953(3) 0.9606(7) 0.74682(18)
O3_8 O 0.0908(4) 0.6240(6) 0.64010(18)
O5_8 O 0.1415(2) 0.9736(4) 0.92731(17)
O8_7 O 0.1709(4) 0.2543(7) 0.6691(3)
H21_7 H 0.1942 0.2003 0.6565
O9_7 O 0.2532(5) 0.2228(8) 0.7381(3)
C15_8 C 0.0097(2) 0.6768(4) 0.47000(18)
C16_8 C 0.0074(3) 0.7907(5) 0.4963(2)
H15_6 H 0.0501 0.8314 0.5129
C18_8 C 0.1459(3) 0.4626(5) 0.43287(19)
H17_8 H 0.1480 0.4012 0.4068
C19_8 C 0.0830(2) 0.5249(5) 0.43083(19)
H18_8 H 0.0429 0.5064 0.4037
C20_8 C 0.0782(2) 0.6147(4) 0.46842(19)
C21_6 C 0.1403(3) 0.6416(5) 0.5056(2)
H19_6 H 0.1404 0.7049 0.5313
C22_6 C 0.2017(3) 0.5751(5) 0.5048(2)
H20_6 H 0.2436 0.5949 0.5300
H15_7 H 0.0501 0.1686 0.0129
C21_7 C 0.1403(3) 0.3584(5) 0.0056(2)
H19_7 H 0.1404 0.2951 0.0313
C22_7 C 0.2017(3) 0.4249(5) 0.0048(2)
H20_7 H 0.2436 0.4051 0.0300
C10_8 C 0.5998(6) 0.9500(9) 0.7192(3)
H9_8 H 0.5796 0.9269 0.6822
H10_8 H 0.5730 0.9040 0.7415
C11_8 C 0.6773(6) 0.9080(11) 0.7335(4)
H11_8 H 0.7051 0.9760 0.7217
H12_8 H 0.6909 0.9073 0.7723
C12_8 C 0.7046(7) 0.7846(10) 0.7152(4)
O8_8 O 0.6709(4) 0.7543(7) 0.6691(3)
H21_8 H 0.6942 0.7003 0.6565
O9_8 O 0.7532(5) 0.7228(8) 0.7381(3)
H15_8 H 0.9499 0.8314 0.9871
C21_8 C 0.8597(3) 0.6416(5) 0.9944(2)
H19_8 H 0.8596 0.7049 0.9687
C22_8 C 0.7983(3) 0.5751(5) 0.9952(2)
H20_8 H 0.7564 0.5949 0.9700
loop_
_geom_bond_atom_site_label_1
_geom_bond_atom_site_label_2
_geom_bond_site_symmetry_1
_geom_bond_site_symmetry_2
C10 H9 1_555 1_555
H10 C10 1_555 1_555
C11 C10 1_555 1_555
H11 C11 1_555 1_555
H12 C11 1_555 1_555
C12 C11 1_555 1_555
O8 C12 1_555 1_555
H21 O8 1_555 1_555
O9 C12 1_555 1_555
C18 H17 1_555 1_555
N5 C18 1_555 1_555
Cu2 N5 1_555 1_555
Cu1 N4 1_555 1_555
C1 N1 1_555 1_555
C2 N1 1_555 1_555
C3 N2 1_555 1_555
C4 H1 1_555 1_555
H2 C4 1_555 1_555
C5 C4 1_555 1_555
H3 C5 1_555 1_555
H4 C5 1_555 1_555
C6 C5 1_555 1_555
C7 H5 1_555 1_555
H6 C7 1_555 1_555
C8 C7 1_555 1_555
H7 C8 1_555 1_555
H8 C8 1_555 1_555
C9 C8 1_555 1_555
C13 H13 1_555 1_555
C14 C13 1_555 1_555
H14 C14 1_555 1_555
C15 C14 1_555 1_555
C16 C15 1_555 1_555
H15 C16 1_555 1_555
C17 C16 1_555 1_555
H16 C17 1_555 1_555
H18 C19 1_555 1_555
C20 C15 1_555 1_555
C21 C20 1_555 1_555
H19 C21 1_555 1_555
C22 C21 1_555 1_555
H20 C22 1_555 1_555
N1 C4 1_555 1_555
N2 C2 1_555 1_555
N3 C1 1_555 1_555
N4 C13 1_555 1_555
O1 C1 1_555 1_555
O2 C2 1_555 1_555
O3 C3 1_555 1_555
O4 Cu1 1_555 1_555
O5 C6 1_555 1_555
O6 C9 1_555 1_555
O7 C9 1_555 1_555
Cu3 O4 1_555 1_555
Cu4 O6 1_555 1_555
N6 Cu1 1_555 1_555
O10 Cu1 1_555 1_555
O11 Cu1 1_555 1_555
O12 Cu1 1_555 1_555
C3 N3 1_555 1_555
C6 O4 1_555 1_555
C7 N2 1_555 1_555
C17 N4 1_555 1_555
C19 C20 1_555 1_555
O7 Cu4 1_555 1_555
Cu3 O10 1_555 1_555
C1_2 N1_2 1_555 1_555
C2_2 N1_2 1_555 1_555
C3_2 N2_2 1_555 1_555
C4_2 H1_2 1_555 1_555
H2_2 C4_2 1_555 1_555
C5_2 C4_2 1_555 1_555
H3_2 C5_2 1_555 1_555
H4_2 C5_2 1_555 1_555
C6_2 C5_2 1_555 1_555
C7_2 H5_2 1_555 1_555
H6_2 C7_2 1_555 1_555
C8_2 C7_2 1_555 1_555
H7_2 C8_2 1_555 1_555
H8_2 C8_2 1_555 1_555
C9_2 C8_2 1_555 1_555
C10_2 H9_2 1_555 1_555
H10_2 C10_2 1_555 1_555
C11_2 C10_2 1_555 1_555
H11_2 C11_2 1_555 1_555
H12_2 C11_2 1_555 1_555
C12_2 C11_2 1_555 1_555
N1_2 C4_2 1_555 1_555
N2_2 C2_2 1_555 1_555
N3_2 C1_2 1_555 1_555
O1_2 C1_2 1_555 1_555
O2_2 C2_2 1_555 1_555
O3_2 C3_2 1_555 1_555
O5_2 C6_2 1_555 1_555
O7_2 C9_2 1_555 1_555
O8_2 C12_2 1_555 1_555
H21_2 O8_2 1_555 1_555
O9_2 C12_2 1_555 1_555
Cu4 O4_2 1_555 1_555
C3_2 N3_2 1_555 1_555
C6_2 O4_2 1_555 1_555
C7_2 N2_2 1_555 1_555
C10_2 N3_2 1_555 1_555
Cu2 N4_2 1_555 1_555
C13_2 H13_2 1_555 1_555
C14_2 C13_2 1_555 1_555
H14_2 C14_2 1_555 1_555
N4_2 C13_2 1_555 1_555
O10_2 Cu2 1_555 1_555
O11_2 Cu2 1_555 1_555
C17_2 N4_2 1_555 1_555
Cu3 O6_2 1_555 1_555
C16_2 C15_2 1_555 1_555
H15_2 C16_2 1_555 1_555
C18_2 H17_2 1_555 1_555
C19_2 C18_2 1_555 1_555
H18_2 C19_2 1_555 1_555
C20_2 C15_2 1_555 1_555
C21_2 C20_2 1_555 1_555
H19_2 C21_2 1_555 1_555
C22_2 C21_2 1_555 1_555
H20_2 C22_2 1_555 1_555
N6 C18_2 1_555 1_555
C19_2 C20_2 1_555 1_555
C22_2 N6 1_555 1_555
Cu4 N4_3 1_555 1_555
C13_3 H13_3 1_555 1_555
C14_3 C13_3 1_555 1_555
H14_3 C14_3 1_555 1_555
C15_3 C14_3 1_555 1_555
C16_3 C15_3 1_555 1_555
C17_3 C16_3 1_555 1_555
H18_3 C19_3 1_555 1_555
C20_3 C15_3 1_555 1_555
N4_3 C13_3 1_555 1_555
N6_2 Cu4 1_555 1_555
C17_3 N4_3 1_555 1_555
C19_3 C20_3 1_555 1_555
C1_3 N1_3 1_555 1_555
C2_3 N1_3 1_555 1_555
C3_3 N2_3 1_555 1_555
C4_3 H1_3 1_555 1_555
H2_3 C4_3 1_555 1_555
C5_3 C4_3 1_555 1_555
H3_3 C5_3 1_555 1_555
H4_3 C5_3 1_555 1_555
C6_3 C5_3 1_555 1_555
C7_3 H5_3 1_555 1_555
H6_3 C7_3 1_555 1_555
C8_3 C7_3 1_555 1_555
H7_3 C8_3 1_555 1_555
H8_3 C8_3 1_555 1_555
C9_3 C8_3 1_555 1_555
H19_3 C21_3 1_555 1_555
C22_3 C21_3 1_555 1_555
H20_3 C22_3 1_555 1_555
N1_3 C4_3 1_555 1_555
N2_3 C2_3 1_555 1_555
N3_3 C1_3 1_555 1_555
O1_3 C1_3 1_555 1_555
O2_3 C2_3 1_555 1_555
O3_3 C3_3 1_555 1_555
O5_3 C6_3 1_555 1_555
O11 C9_3 1_555 1_555
O12 C9_3 1_555 1_555
C3_3 N3_3 1_555 1_555
C6_3 O10_2 1_555 1_555
C7_3 N2_3 1_555 1_555
C10_3 H9_3 1_555 1_555
H10_3 C10_3 1_555 1_555
C11_3 C10_3 1_555 1_555
H11_3 C11_3 1_555 1_555
H12_3 C11_3 1_555 1_555
C12_3 C11_3 1_555 1_555
C18_3 H17_3 1_555 1_555
N5_2 C18_3 1_555 1_555
O8_3 C12_3 1_555 1_555
H21_3 O8_3 1_555 1_555
O9_3 C12_3 1_555 1_555
Cu3 N5_2 1_555 1_555
C16_4 C15_4 1_555 1_555
C18_4 H17_4 1_555 1_555
C19_4 C18_4 1_555 1_555
H18_4 C19_4 1_555 1_555
C20_4 C15_4 1_555 1_555
N6_2 C18_4 1_555 1_555
C19_4 C20_4 1_555 1_555
Cu3 N4_4 1_555 1_555
C1_4 N1_4 1_555 1_555
C2_4 N1_4 1_555 1_555
C3_4 N2_4 1_555 1_555
C4_4 H1_4 1_555 1_555
H2_4 C4_4 1_555 1_555
C5_4 C4_4 1_555 1_555
H3_4 C5_4 1_555 1_555
H4_4 C5_4 1_555 1_555
C6_4 C5_4 1_555 1_555
C7_4 H5_4 1_555 1_555
H6_4 C7_4 1_555 1_555
C8_4 C7_4 1_555 1_555
H7_4 C8_4 1_555 1_555
H8_4 C8_4 1_555 1_555
C9_4 C8_4 1_555 1_555
C10_4 H9_4 1_555 1_555
H10_4 C10_4 1_555 1_555
C11_4 C10_4 1_555 1_555
H11_4 C11_4 1_555 1_555
H12_4 C11_4 1_555 1_555
C12_4 C11_4 1_555 1_555
C13_4 H13_4 1_555 1_555
C14_4 C13_4 1_555 1_555
H14_4 C14_4 1_555 1_555
H16_4 C17_4 1_555 1_555
N1_4 C4_4 1_555 1_555
N2_4 C2_4 1_555 1_555
N3_4 C1_4 1_555 1_555
N4_4 C13_4 1_555 1_555
O1_4 C1_4 1_555 1_555
O2_4 C2_4 1_555 1_555
O3_4 C3_4 1_555 1_555
O5_4 C6_4 1_555 1_555
O12_2 C9_4 1_555 1_555
O8_4 C12_4 1_555 1_555
H21_4 O8_4 1_555 1_555
O9_4 C12_4 1_555 1_555
C3_4 N3_4 1_555 1_555
C6_4 O10 1_555 1_555
C7_4 N2_4 1_555 1_555
C10_4 N3_4 1_555 1_555
C17_4 N4_4 1_555 1_555
C1_5 N1_5 1_555 1_555
C2_5 N1_5 1_555 1_555
C3_5 N2_5 1_555 1_555
C4_5 H1_5 1_555 1_555
H2_5 C4_5 1_555 1_555
C5_5 C4_5 1_555 1_555
H3_5 C5_5 1_555 1_555
H4_5 C5_5 1_555 1_555
C6_5 C5_5 1_555 1_555
C7_5 H5_5 1_555 1_555
H6_5 C7_5 1_555 1_555
C8_5 C7_5 1_555 1_555
H7_5 C8_5 1_555 1_555
H8_5 C8_5 1_555 1_555
C9_5 C8_5 1_555 1_555
H19_4 C21_4 1_555 1_555
C22_4 C21_4 1_555 1_555
H20_4 C22_4 1_555 1_555
N1_5 C4_5 1_555 1_555
N2_5 C2_5 1_555 1_555
N3_5 C1_5 1_555 1_555
O1_5 C1_5 1_555 1_555
O2_5 C2_5 1_555 1_555
O3_5 C3_5 1_555 1_555
O5_5 C6_5 1_555 1_555
O6_3 C9_5 1_555 1_555
O7_3 C9_5 1_555 1_555
Cu3_2 O4_3 1_555 1_555
Cu4_2 O6_3 1_555 1_555
C3_5 N3_5 1_555 1_555
C6_5 O4_3 1_555 1_555
C7_5 N2_5 1_555 1_555
O7_3 Cu4_2 1_555 1_555
Cu1_2 N4_5 1_555 1_555
C13_5 H13_5 1_555 1_555
C14_5 C13_5 1_555 1_555
H14_5 C14_5 1_555 1_555
C15_5 C14_5 1_555 1_555
C16_5 C15_5 1_555 1_555
C17_5 C16_5 1_555 1_555
H18_5 C19_5 1_555 1_555
C20_5 C15_5 1_555 1_555
N4_5 C13_5 1_555 1_555
N6_3 Cu1_2 1_555 1_555
O10_3 Cu1_2 1_555 1_555
O11_3 Cu1_2 1_555 1_555
O12_3 Cu1_2 1_555 1_555
C17_5 N4_5 1_555 1_555
C19_5 C20_5 1_555 1_555
C10_5 H9_5 1_555 1_555
H10_5 C10_5 1_555 1_555
C11_5 C10_5 1_555 1_555
H11_5 C11_5 1_555 1_555
H12_5 C11_5 1_555 1_555
C12_5 C11_5 1_555 1_555
C18_5 H17_5 1_555 1_555
N5_3 C18_5 1_555 1_555
O8_5 C12_5 1_555 1_555
H21_5 O8_5 1_555 1_555
O9_5 C12_5 1_555 1_555
Cu2_2 N5_3 1_555 1_555
C16_6 C15_6 1_555 1_555
C18_6 H17_6 1_555 1_555
C19_6 C18_6 1_555 1_555
H18_6 C19_6 1_555 1_555
C20_6 C15_6 1_555 1_555
N6_3 C18_6 1_555 1_555
C19_6 C20_6 1_555 1_555
Cu2_2 N4_6 1_555 1_555
C1_6 N1_6 1_555 1_555
C2_6 N1_6 1_555 1_555
C3_6 N2_6 1_555 1_555
C4_6 H1_6 1_555 1_555
H2_6 C4_6 1_555 1_555
C5_6 C4_6 1_555 1_555
H3_6 C5_6 1_555 1_555
H4_6 C5_6 1_555 1_555
C6_6 C5_6 1_555 1_555
C7_6 H5_6 1_555 1_555
H6_6 C7_6 1_555 1_555
C8_6 C7_6 1_555 1_555
H7_6 C8_6 1_555 1_555
H8_6 C8_6 1_555 1_555
C9_6 C8_6 1_555 1_555
C10_6 H9_6 1_555 1_555
H10_6 C10_6 1_555 1_555
C11_6 C10_6 1_555 1_555
H11_6 C11_6 1_555 1_555
H12_6 C11_6 1_555 1_555
C12_6 C11_6 1_555 1_555
C13_6 H13_6 1_555 1_555
C14_6 C13_6 1_555 1_555
H14_6 C14_6 1_555 1_555
H16_6 C17_6 1_555 1_555
N1_6 C4_6 1_555 1_555
N2_6 C2_6 1_555 1_555
N3_6 C1_6 1_555 1_555
N4_6 C13_6 1_555 1_555
O1_6 C1_6 1_555 1_555
O2_6 C2_6 1_555 1_555
O3_6 C3_6 1_555 1_555
O4_4 Cu2_2 1_555 1_555
O5_6 C6_6 1_555 1_555
O7_4 C9_6 1_555 1_555
O8_6 C12_6 1_555 1_555
H21_6 O8_6 1_555 1_555
O9_6 C12_6 1_555 1_555
Cu4_2 O4_4 1_555 1_555
O10_4 Cu2_2 1_555 1_555
O11_4 Cu2_2 1_555 1_555
C3_6 N3_6 1_555 1_555
C6_6 O4_4 1_555 1_555
C7_6 N2_6 1_555 1_555
C10_6 N3_6 1_555 1_555
C17_6 N4_6 1_555 1_555
Cu4_2 O10_4 1_555 1_555
Cu3_2 O6_4 1_555 1_555
C18_7 H17_7 1_555 1_555
N5_4 C18_7 1_555 1_555
Cu3_2 N5_4 1_555 1_555
Cu4_2 N4_7 1_555 1_555
C1_7 N1_7 1_555 1_555
C2_7 N1_7 1_555 1_555
C3_7 N2_7 1_555 1_555
C4_7 H1_7 1_555 1_555
H2_7 C4_7 1_555 1_555
C5_7 C4_7 1_555 1_555
H3_7 C5_7 1_555 1_555
H4_7 C5_7 1_555 1_555
C6_7 C5_7 1_555 1_555
C7_7 H5_7 1_555 1_555
H6_7 C7_7 1_555 1_555
C8_7 C7_7 1_555 1_555
H7_7 C8_7 1_555 1_555
H8_7 C8_7 1_555 1_555
C9_7 C8_7 1_555 1_555
C13_7 H13_7 1_555 1_555
C14_7 C13_7 1_555 1_555
H14_7 C14_7 1_555 1_555
C15_7 C14_7 1_555 1_555
C16_7 C15_7 1_555 1_555
H15_5 C16_7 1_555 1_555
C17_7 C16_7 1_555 1_555
H16_7 C17_7 1_555 1_555
H18_7 C19_7 1_555 1_555
C20_7 C15_7 1_555 1_555
C21_5 C20_7 1_555 1_555
H19_5 C21_5 1_555 1_555
C22_5 C21_5 1_555 1_555
H20_5 C22_5 1_555 1_555
N1_7 C4_7 1_555 1_555
N2_7 C2_7 1_555 1_555
N3_7 C1_7 1_555 1_555
N4_7 C13_7 1_555 1_555
O1_7 C1_7 1_555 1_555
O2_7 C2_7 1_555 1_555
O3_7 C3_7 1_555 1_555
O5_7 C6_7 1_555 1_555
O11_3 C9_7 1_555 1_555
O12_3 C9_7 1_555 1_555
N6_4 Cu4_2 1_555 1_555
C3_7 N3_7 1_555 1_555
C6_7 O10_4 1_555 1_555
C7_7 N2_7 1_555 1_555
C17_7 N4_7 1_555 1_555
C19_7 C20_7 1_555 1_555
Cu3_2 N4_8 1_555 1_555
C13_8 H13_8 1_555 1_555
C14_8 C13_8 1_555 1_555
H14_8 C14_8 1_555 1_555
N4_8 C13_8 1_555 1_555
C17_8 N4_8 1_555 1_555
C1_8 N1_8 1_555 1_555
C2_8 N1_8 1_555 1_555
C3_8 N2_8 1_555 1_555
C4_8 H1_8 1_555 1_555
H2_8 C4_8 1_555 1_555
C5_8 C4_8 1_555 1_555
H3_8 C5_8 1_555 1_555
H4_8 C5_8 1_555 1_555
C6_8 C5_8 1_555 1_555
C7_8 H5_8 1_555 1_555
H6_8 C7_8 1_555 1_555
C8_8 C7_8 1_555 1_555
H7_8 C8_8 1_555 1_555
H8_8 C8_8 1_555 1_555
C9_8 C8_8 1_555 1_555
C10_7 H9_7 1_555 1_555
H10_7 C10_7 1_555 1_555
C11_7 C10_7 1_555 1_555
H11_7 C11_7 1_555 1_555
H12_7 C11_7 1_555 1_555
C12_7 C11_7 1_555 1_555
N1_8 C4_8 1_555 1_555
N2_8 C2_8 1_555 1_555
N3_8 C1_8 1_555 1_555
O1_8 C1_8 1_555 1_555
O2_8 C2_8 1_555 1_555
O3_8 C3_8 1_555 1_555
O5_8 C6_8 1_555 1_555
O12_4 C9_8 1_555 1_555
O8_7 C12_7 1_555 1_555
H21_7 O8_7 1_555 1_555
O9_7 C12_7 1_555 1_555
C3_8 N3_8 1_555 1_555
C6_8 O10_3 1_555 1_555
C7_8 N2_8 1_555 1_555
C10_7 N3_8 1_555 1_555
C16_8 C15_8 1_555 1_555
H15_6 C16_8 1_555 1_555
C18_8 H17_8 1_555 1_555
C19_8 C18_8 1_555 1_555
H18_8 C19_8 1_555 1_555
C20_8 C15_8 1_555 1_555
C21_6 C20_8 1_555 1_555
H19_6 C21_6 1_555 1_555
C22_6 C21_6 1_555 1_555
H20_6 C22_6 1_555 1_555
N6_4 C18_8 1_555 1_555
C19_8 C20_8 1_555 1_555
C22_6 N6_4 1_555 1_555
H19_7 C21_7 1_555 1_555
C22_7 C21_7 1_555 1_555
H20_7 C22_7 1_555 1_555
C10_8 H9_8 1_555 1_555
H10_8 C10_8 1_555 1_555
C11_8 C10_8 1_555 1_555
H11_8 C11_8 1_555 1_555
H12_8 C11_8 1_555 1_555
C12_8 C11_8 1_555 1_555
O8_8 C12_8 1_555 1_555
H21_8 O8_8 1_555 1_555
O9_8 C12_8 1_555 1_555
H19_8 C21_8 1_555 1_555
C22_8 C21_8 1_555 1_555
H20_8 C22_8 1_555 1_555

#END
