
###############################################################################
#
# This file contains modified crystal structure data generated from the
# MOF subset of the Cambridge Structural Database (CSD) v543 
# hosted by the Cambridge Crystallographic Data Centre (CCDC).
#
# This work is licensed under the Creative Commons
# Attribution-NonCommercial-ShareAlike 4.0 International License.
# To view a copy of this license, visit
# http://creativecommons.org/licenses/by-nc-sa/4.0/
# or send a letter to
# Creative Commons, PO Box 1866, Mountain View, CA 94042, USA.
#
# CIF created using the CSD Python API on 29 September 2022
# The structure has been converted into the P1 space group
# The structure has a 3D framework
# The original CSD entry IBIYUO is in the tetragonal crystal system
# The framework has been calculated to contain at least 10.0% void space
# The void calculation uses a probe of radius 1.32A, grid spacing 0.4
# H atom positions have been added when not included in the experimental data
#
###############################################################################

data_IBIYUO
_chemical_formula_moiety         '(C480 H384 Cu64 I32 N96 S64 W24)n'
_symmetry_cell_setting           triclinic
_symmetry_space_group_name_H-M   'P 1'
_symmetry_Int_Tables_number      1
_space_group_name_Hall           'P 1'
loop_
_symmetry_equiv_pos_site_id
_symmetry_equiv_pos_as_xyz
1 x,y,z
_cell_length_a                   24.803(2)
_cell_length_b                   24.803(2)
_cell_length_c                   28.412(3)
_cell_angle_alpha                90
_cell_angle_beta                 90
_cell_angle_gamma                90
_cell_volume                     17478.7
loop_
_atom_site_label
_atom_site_type_symbol
_atom_site_fract_x
_atom_site_fract_y
_atom_site_fract_z
W1 W 0.0000 0.2500 0.1250
Cu1 Cu 0.07677(12) 0.32677(12) 0.1250
N1 N 0.1397(8) 0.3323(8) 0.0784(8)
C1 C 0.1342(11) 0.3167(10) 0.0338(10)
C2 C 0.1781(11) 0.3184(12) 0.0043(11)
C3 C 0.2268(10) 0.3340(9) 0.0156(11)
C4 C 0.2306(11) 0.3517(11) 0.0632(10)
C5 C 0.1878(10) 0.3495(11) 0.0906(12)
H1 H 0.1003(11) 0.3031(10) 0.0238(10)
H3 H 0.2643(11) 0.3647(11) 0.0743(10)
H4 H 0.1923(10) 0.3603(11) 0.1225(12)
H12 H 0.3280(11) 0.3076(12) 0.0273(11)
S2 S 0.0739(3) 0.2498(3) 0.1697(2)
S3 S 0.0002(3) 0.1761(3) 0.0803(2)
Cu4 Cu 0.07678(13) 0.17322(13) 0.1250
N5 N 0.0823(8) 0.3897(8) 0.1716(8)
C21 C 0.0667(10) 0.3842(11) 0.2162(10)
C22 C 0.0684(12) 0.4281(11) 0.2457(11)
C23 C 0.0840(9) 0.4768(10) 0.2344(11)
C24 C 0.1017(11) 0.4806(11) 0.1868(10)
C25 C 0.0995(11) 0.4378(10) 0.1594(12)
H17 H 0.0531(10) 0.3503(11) 0.2262(10)
H18 H 0.0576(12) 0.4220(11) 0.2773(11)
H19 H 0.1147(11) 0.5143(11) 0.1757(10)
H20 H 0.1103(11) 0.4423(10) 0.1275(12)
C26 C 0.0840(9) 0.5232(10) 0.2656(11)
C27 C 0.0684(12) 0.5719(11) 0.2543(11)
C28 C 0.0667(10) 0.6158(11) 0.2838(10)
N6 N 0.0823(8) 0.6103(8) 0.3284(8)
C29 C 0.0995(11) 0.5622(10) 0.3406(12)
C30 C 0.1017(11) 0.5194(11) 0.3132(10)
H21 H 0.1147(11) 0.4857(11) 0.3243(10)
H22 H 0.1103(11) 0.5577(10) 0.3725(12)
H23 H 0.0531(10) 0.6497(11) 0.2738(10)
H24 H 0.0576(12) 0.5780(11) 0.2227(11)
N11 N 0.1413(8) 0.1727(9) 0.0791(8)
N12 N 0.0773(9) 0.1087(8) 0.1709(8)
Cu7 Cu 0.07677(12) 0.67323(12) 0.3750
H2 H 0.1720(11) 0.3076(12) 0.9727(11)
C11 C 0.2732(10) 0.3340(9) 0.9844(11)
C12 C 0.3219(11) 0.3184(12) 0.9957(11)
C13 C 0.3658(11) 0.3167(10) 0.9662(10)
N3 N 0.3603(8) 0.3323(8) 0.9216(8)
C14 C 0.3122(10) 0.3495(11) 0.9094(12)
C15 C 0.2694(11) 0.3517(11) 0.9368(10)
H9 H 0.2357(11) 0.3647(11) 0.9257(10)
H10 H 0.3077(10) 0.3603(11) 0.8775(12)
H11 H 0.3997(11) 0.3031(10) 0.9762(10)
Cu5 Cu 0.42323(12) 0.32677(12) 0.8750
W1_2 W 1.0000 0.2500 0.1250
Cu2 Cu 0.92322(13) 0.32678(13) 0.1250
S1 S 0.9998(3) 0.3239(3) 0.0803(2)
N2 N 0.9227(9) 0.3913(8) 0.1709(8)
C6 C 0.9335(13) 0.4417(11) 0.1564(10)
C7 C 0.9367(13) 0.4836(10) 0.1844(10)
C8 C 0.9273(10) 0.4770(10) 0.2329(9)
C9 C 0.9172(12) 0.4242(10) 0.2463(11)
C10 C 0.9136(12) 0.3846(11) 0.2152(11)
H5 H 0.9386(13) 0.4470(11) 0.1236(10)
H6 H 0.9453(13) 0.5184(10) 0.1725(10)
H7 H 0.9121(12) 0.4168(10) 0.2788(11)
H8 H 0.9047(12) 0.3494(11) 0.2260(11)
C16 C 0.9273(10) 0.5230(10) 0.2671(9)
C17 C 0.9367(13) 0.5164(10) 0.3156(10)
C18 C 0.9335(13) 0.5583(11) 0.3436(10)
N4 N 0.9227(9) 0.6087(8) 0.3291(8)
C19 C 0.9136(12) 0.6154(11) 0.2848(11)
C20 C 0.9172(12) 0.5758(10) 0.2537(11)
H13 H 0.9121(12) 0.5832(10) 0.2212(11)
H14 H 0.9047(12) 0.6506(11) 0.2740(11)
H15 H 0.9386(13) 0.5530(11) 0.3764(10)
H16 H 0.9453(13) 0.4816(10) 0.3275(10)
S4 S 0.9261(3) 0.2502(3) 0.1697(2)
Cu3 Cu 0.92323(12) 0.17323(12) 0.1250
N7 N 0.8587(8) 0.3273(9) 0.0791(8)
C31 C 0.8083(11) 0.3165(13) 0.0936(10)
C32 C 0.7664(10) 0.3133(13) 0.0656(10)
C33 C 0.7730(10) 0.3227(10) 0.0171(9)
C34 C 0.8258(10) 0.3328(12) 0.0037(11)
C35 C 0.8654(11) 0.3364(12) 0.0348(11)
H25 H 0.8030(11) 0.3114(13) 0.1264(10)
H26 H 0.7316(10) 0.3047(13) 0.0775(10)
H28 H 0.9006(11) 0.3453(12) 0.0240(11)
H29 H 0.6668(10) 0.3379(12) 0.0288(11)
Cu6 Cu 0.92322(13) 0.67322(13) 0.3750
N9 N 0.8603(8) 0.1677(8) 0.0784(8)
N10 N 0.9177(8) 0.1103(8) 0.1716(8)
H27 H 0.8332(10) 0.3379(12) 0.9712(11)
C36 C 0.7270(10) 0.3227(10) 0.9829(9)
C37 C 0.7336(10) 0.3133(13) 0.9344(10)
C38 C 0.6917(11) 0.3165(13) 0.9064(10)
N8 N 0.6413(8) 0.3273(9) 0.9209(8)
C39 C 0.6346(11) 0.3364(12) 0.9652(11)
C40 C 0.6742(10) 0.3328(12) 0.9963(11)
H30 H 0.5994(11) 0.3453(12) 0.9760(11)
H31 H 0.6970(11) 0.3114(13) 0.8736(10)
H32 H 0.7684(10) 0.3047(13) 0.9225(10)
Cu8 Cu 0.57678(13) 0.32678(13) 0.8750
H6_2 H 0.4453(13) 0.0184(10) 0.6725(10)
C16_2 C 0.4273(10) 0.0230(10) 0.7671(9)
C17_2 C 0.4367(13) 0.0164(10) 0.8156(10)
C18_2 C 0.4335(13) 0.0583(11) 0.8436(10)
N4_2 N 0.4227(9) 0.1087(8) 0.8291(8)
C19_2 C 0.4136(12) 0.1154(11) 0.7848(11)
C20_2 C 0.4172(12) 0.0758(10) 0.7537(11)
H13_2 H 0.4121(12) 0.0832(10) 0.7212(11)
H14_2 H 0.4047(12) 0.1506(11) 0.7740(11)
H15_2 H 0.4386(13) 0.0530(11) 0.8764(10)
H19_2 H 0.6147(11) 0.0143(11) 0.6757(10)
C26_2 C 0.5840(9) 0.0232(10) 0.7656(11)
C27_2 C 0.5684(12) 0.0719(11) 0.7543(11)
C28_2 C 0.5667(10) 0.1158(11) 0.7838(10)
N6_2 N 0.5823(8) 0.1103(8) 0.8284(8)
C29_2 C 0.5995(11) 0.0622(10) 0.8406(12)
C30_2 C 0.6017(11) 0.0194(11) 0.8132(10)
H22_2 H 0.6103(11) 0.0577(10) 0.8725(12)
H23_2 H 0.5531(10) 0.1497(11) 0.7738(10)
H24_2 H 0.5576(12) 0.0780(11) 0.7227(11)
Cu6_2 Cu 0.42322(13) 0.17322(13) 0.8750
Cu7_2 Cu 0.57677(12) 0.17323(12) 0.8750
W1_3 W 0.5000 0.7500 0.6250
Cu1_2 Cu 0.57677(12) 0.82677(12) 0.6250
Cu2_2 Cu 0.42322(13) 0.82678(13) 0.6250
S1_2 S 0.4998(3) 0.8239(3) 0.5803(2)
N1_2 N 0.6397(8) 0.8323(8) 0.5784(8)
N2_2 N 0.4227(9) 0.8913(8) 0.6709(8)
C1_2 C 0.6342(11) 0.8167(10) 0.5338(10)
C2_2 C 0.6781(11) 0.8184(12) 0.5043(11)
C3_2 C 0.7268(10) 0.8340(9) 0.5156(11)
C4_2 C 0.7306(11) 0.8517(11) 0.5632(10)
C5_2 C 0.6878(10) 0.8495(11) 0.5906(12)
C6_2 C 0.4335(13) 0.9417(11) 0.6564(10)
C7_2 C 0.4367(13) 0.9836(10) 0.6844(10)
C8_2 C 0.4273(10) 0.9770(10) 0.7329(9)
C9_2 C 0.4172(12) 0.9242(10) 0.7463(11)
C10_2 C 0.4136(12) 0.8846(11) 0.7152(11)
H1_2 H 0.6003(11) 0.8031(10) 0.5238(10)
H2_2 H 0.6720(11) 0.8076(12) 0.4727(11)
H3_2 H 0.7643(11) 0.8647(11) 0.5743(10)
H4_2 H 0.6923(10) 0.8603(11) 0.6225(12)
H5_2 H 0.4386(13) 0.9470(11) 0.6236(10)
H7_2 H 0.4121(12) 0.9168(10) 0.7788(11)
H8_2 H 0.4047(12) 0.8494(11) 0.7260(11)
C11_2 C 0.7732(10) 0.8340(9) 0.4844(11)
C12_2 C 0.8219(11) 0.8184(12) 0.4957(11)
C13_2 C 0.8658(11) 0.8167(10) 0.4662(10)
N3_2 N 0.8603(8) 0.8323(8) 0.4216(8)
C14_2 C 0.8122(10) 0.8495(11) 0.4094(12)
C15_2 C 0.7694(11) 0.8517(11) 0.4368(10)
H9_2 H 0.7357(11) 0.8647(11) 0.4257(10)
H10_2 H 0.8077(10) 0.8603(11) 0.3775(12)
H11_2 H 0.8997(11) 0.8031(10) 0.4762(10)
H12_2 H 0.8280(11) 0.8076(12) 0.5273(11)
H16_2 H 0.4453(13) 0.9816(10) 0.8275(10)
S2_2 S 0.5739(3) 0.7498(3) 0.6697(2)
S3_2 S 0.5002(3) 0.6761(3) 0.5803(2)
S4_2 S 0.4261(3) 0.7502(3) 0.6697(2)
Cu3_2 Cu 0.42323(12) 0.67323(12) 0.6250
Cu4_2 Cu 0.57678(13) 0.67322(13) 0.6250
N5_2 N 0.5823(8) 0.8897(8) 0.6716(8)
C21_2 C 0.5667(10) 0.8842(11) 0.7162(10)
C22_2 C 0.5684(12) 0.9281(11) 0.7457(11)
C23_2 C 0.5840(9) 0.9768(10) 0.7344(11)
C24_2 C 0.6017(11) 0.9806(11) 0.6868(10)
C25_2 C 0.5995(11) 0.9378(10) 0.6594(12)
H17_2 H 0.5531(10) 0.8503(11) 0.7262(10)
H18_2 H 0.5576(12) 0.9220(11) 0.7773(11)
H20_2 H 0.6103(11) 0.9423(10) 0.6275(12)
H21_2 H 0.6147(11) 0.9857(11) 0.8243(10)
N7_2 N 0.3587(8) 0.8273(9) 0.5791(8)
C31_2 C 0.3083(11) 0.8165(13) 0.5936(10)
C32_2 C 0.2664(10) 0.8133(13) 0.5656(10)
C33_2 C 0.2730(10) 0.8227(10) 0.5171(9)
C34_2 C 0.3258(10) 0.8328(12) 0.5037(11)
C35_2 C 0.3654(11) 0.8364(12) 0.5348(11)
H25_2 H 0.3030(11) 0.8114(13) 0.6264(10)
H26_2 H 0.2316(10) 0.8047(13) 0.5775(10)
H27_2 H 0.3332(10) 0.8379(12) 0.4712(11)
H28_2 H 0.4006(11) 0.8453(12) 0.5240(11)
C36_2 C 0.2270(10) 0.8227(10) 0.4829(9)
C37_2 C 0.2336(10) 0.8133(13) 0.4344(10)
C38_2 C 0.1917(11) 0.8165(13) 0.4064(10)
N8_2 N 0.1413(8) 0.8273(9) 0.4209(8)
C39_2 C 0.1346(11) 0.8364(12) 0.4652(11)
C40_2 C 0.1742(10) 0.8328(12) 0.4963(11)
H29_2 H 0.1668(10) 0.8379(12) 0.5288(11)
H30_2 H 0.0994(11) 0.8453(12) 0.4760(11)
H31_2 H 0.1970(11) 0.8114(13) 0.3736(10)
H32_2 H 0.2684(10) 0.8047(13) 0.4225(10)
Cu5_2 Cu 0.92323(12) 0.82677(12) 0.3750
N9_2 N 0.3603(8) 0.6677(8) 0.5784(8)
N10_2 N 0.4177(8) 0.6103(8) 0.6716(8)
N11_2 N 0.6413(8) 0.6727(9) 0.5791(8)
N12_2 N 0.5773(9) 0.6087(8) 0.6709(8)
Cu8_2 Cu 0.07678(13) 0.82678(13) 0.3750
W1_4 W 0.0000 0.7500 0.3750
S2_3 S 0.0002(3) 0.8239(3) 0.4197(2)
S3_3 S 0.0739(3) 0.7502(3) 0.3303(2)
N10_3 N 0.1397(8) 0.6677(8) 0.4216(8)
N11_3 N 0.0773(9) 0.8913(8) 0.3291(8)
H3_3 H 0.8853(11) 0.0143(11) 0.3243(10)
C11_3 C 0.9160(9) 0.0232(10) 0.2344(11)
C12_3 C 0.9316(12) 0.0719(11) 0.2457(11)
C13_3 C 0.9333(10) 0.1158(11) 0.2162(10)
C14_3 C 0.9005(11) 0.0622(10) 0.1594(12)
C15_3 C 0.8983(11) 0.0194(11) 0.1868(10)
H10_3 H 0.8897(11) 0.0577(10) 0.1275(12)
H11_3 H 0.9469(10) 0.1497(11) 0.2262(10)
H12_3 H 0.9424(12) 0.0780(11) 0.2773(11)
W1_5 W 1.0000 0.7500 0.3750
S1_3 S 0.9261(3) 0.7498(3) 0.3303(2)
N1_3 N 0.9177(8) 0.8897(8) 0.3284(8)
N2_3 N 0.8587(8) 0.6727(9) 0.4209(8)
C1_3 C 0.9333(10) 0.8842(11) 0.2838(10)
C2_3 C 0.9316(12) 0.9281(11) 0.2543(11)
C3_3 C 0.9160(9) 0.9768(10) 0.2656(11)
C4_3 C 0.8983(11) 0.9806(11) 0.3132(10)
C5_3 C 0.9005(11) 0.9378(10) 0.3406(12)
C6_3 C 0.8083(11) 0.6835(13) 0.4064(10)
C7_3 C 0.7664(10) 0.6867(13) 0.4344(10)
C8_3 C 0.7730(10) 0.6773(10) 0.4829(9)
C9_3 C 0.8258(10) 0.6672(12) 0.4963(11)
C10_3 C 0.8654(11) 0.6636(12) 0.4652(11)
H1_3 H 0.9469(10) 0.8503(11) 0.2738(10)
H2_3 H 0.9424(12) 0.9220(11) 0.2227(11)
H4_3 H 0.8897(11) 0.9423(10) 0.3725(12)
H5_3 H 0.8030(11) 0.6886(13) 0.3736(10)
H6_3 H 0.7316(10) 0.6953(13) 0.4225(10)
H7_3 H 0.8332(10) 0.6621(12) 0.5288(11)
H8_3 H 0.9006(11) 0.6547(12) 0.4760(11)
H9_3 H 0.8853(11) 0.9857(11) 0.1757(10)
C16_3 C 0.7270(10) 0.6773(10) 0.5171(9)
C17_3 C 0.7336(10) 0.6867(13) 0.5656(10)
C18_3 C 0.6917(11) 0.6835(13) 0.5936(10)
C19_3 C 0.6346(11) 0.6636(12) 0.5348(11)
C20_3 C 0.6742(10) 0.6672(12) 0.5037(11)
H13_3 H 0.6668(10) 0.6621(12) 0.4712(11)
H14_3 H 0.5994(11) 0.6547(12) 0.5240(11)
H15_3 H 0.6970(11) 0.6886(13) 0.6264(10)
H16_3 H 0.7684(10) 0.6953(13) 0.5775(10)
S4_3 S 0.9998(3) 0.6761(3) 0.4197(2)
H18_3 H 0.6720(11) 0.1924(12) 0.0273(11)
C26_3 C 0.7732(10) 0.1660(9) 0.0156(11)
C27_3 C 0.8219(11) 0.1816(12) 0.0043(11)
C28_3 C 0.8658(11) 0.1833(10) 0.0338(10)
C29_3 C 0.8122(10) 0.1505(11) 0.0906(12)
C30_3 C 0.7694(11) 0.1483(11) 0.0632(10)
H21_3 H 0.7357(11) 0.1353(11) 0.0743(10)
H22_3 H 0.8077(10) 0.1397(11) 0.1225(12)
H23_3 H 0.8997(11) 0.1969(10) 0.0238(10)
W1_6 W 0.5000 0.2500 0.8750
S1_4 S 0.5739(3) 0.2502(3) 0.8303(2)
S2_4 S 0.4998(3) 0.1761(3) 0.9197(2)
S3_4 S 0.4261(3) 0.2498(3) 0.8303(2)
S4_4 S 0.5002(3) 0.3239(3) 0.9197(2)
N5_3 N 0.6397(8) 0.1677(8) 0.9216(8)
C21_3 C 0.6342(11) 0.1833(10) 0.9662(10)
C22_3 C 0.6781(11) 0.1816(12) 0.9957(11)
C23_3 C 0.7268(10) 0.1660(9) 0.9844(11)
C24_3 C 0.7306(11) 0.1483(11) 0.9368(10)
C25_3 C 0.6878(10) 0.1505(11) 0.9094(12)
H17_3 H 0.6003(11) 0.1969(10) 0.9762(10)
H19_3 H 0.7643(11) 0.1353(11) 0.9257(10)
H20_3 H 0.6923(10) 0.1397(11) 0.8775(12)
H24_3 H 0.8280(11) 0.1924(12) 0.9727(11)
N7_3 N 0.5773(9) 0.3913(8) 0.8291(8)
C31_3 C 0.5665(13) 0.4417(11) 0.8436(10)
C32_3 C 0.5633(13) 0.4836(10) 0.8156(10)
C33_3 C 0.5727(10) 0.4770(10) 0.7671(9)
C34_3 C 0.5828(12) 0.4242(10) 0.7537(11)
C35_3 C 0.5864(12) 0.3846(11) 0.7848(11)
H25_3 H 0.5614(13) 0.4470(11) 0.8764(10)
H26_3 H 0.5547(13) 0.5184(10) 0.8275(10)
H27_3 H 0.5879(12) 0.4168(10) 0.7212(11)
H28_3 H 0.5953(12) 0.3494(11) 0.7740(11)
C36_3 C 0.5727(10) 0.5230(10) 0.7329(9)
C37_3 C 0.5633(13) 0.5164(10) 0.6844(10)
C38_3 C 0.5665(13) 0.5583(11) 0.6564(10)
C39_3 C 0.5864(12) 0.6154(11) 0.7152(11)
C40_3 C 0.5828(12) 0.5758(10) 0.7463(11)
H29_3 H 0.5879(12) 0.5832(10) 0.7788(11)
H30_3 H 0.5953(12) 0.6506(11) 0.7260(11)
H31_3 H 0.5614(13) 0.5530(11) 0.6236(10)
H32_3 H 0.5547(13) 0.4816(10) 0.6725(10)
N9_3 N 0.4177(8) 0.3897(8) 0.8284(8)
N12_3 N 0.3587(8) 0.1727(9) 0.9209(8)
C6_4 C 0.1917(11) 0.1835(13) 0.0936(10)
C7_4 C 0.2336(10) 0.1867(13) 0.0656(10)
C8_4 C 0.2270(10) 0.1773(10) 0.0171(9)
C9_4 C 0.1742(10) 0.1672(12) 0.0037(11)
C10_4 C 0.1346(11) 0.1636(12) 0.0348(11)
H5_4 H 0.1970(11) 0.1886(13) 0.1264(10)
H6_4 H 0.2684(10) 0.1953(13) 0.0775(10)
H8_4 H 0.0994(11) 0.1547(12) 0.0240(11)
H13_4 H 0.3332(10) 0.1621(12) 0.0288(11)
C31_4 C 0.0665(13) 0.0583(11) 0.1564(10)
C32_4 C 0.0633(13) 0.0164(10) 0.1844(10)
C33_4 C 0.0727(10) 0.0230(10) 0.2329(9)
C34_4 C 0.0828(12) 0.0758(10) 0.2463(11)
C35_4 C 0.0864(12) 0.1154(11) 0.2152(11)
H25_4 H 0.0614(13) 0.0530(11) 0.1236(10)
H27_4 H 0.0879(12) 0.0832(10) 0.2788(11)
H28_4 H 0.0953(12) 0.1506(11) 0.2260(11)
H32_4 H 0.0547(13) 0.0184(10) 0.3275(10)
H7_4 H 0.1668(10) 0.1621(12) 0.9712(11)
C16_4 C 0.2730(10) 0.1773(10) 0.9829(9)
C17_4 C 0.2664(10) 0.1867(13) 0.9344(10)
C18_4 C 0.3083(11) 0.1835(13) 0.9064(10)
C19_4 C 0.3654(11) 0.1636(12) 0.9652(11)
C20_4 C 0.3258(10) 0.1672(12) 0.9963(11)
H14_4 H 0.4006(11) 0.1547(12) 0.9760(11)
H15_4 H 0.3030(11) 0.1886(13) 0.8736(10)
H16_4 H 0.2316(10) 0.1953(13) 0.9225(10)
H26_4 H 0.0547(13) 0.9816(10) 0.1725(10)
C36_4 C 0.0727(10) 0.9770(10) 0.2671(9)
C37_4 C 0.0633(13) 0.9836(10) 0.3156(10)
C38_4 C 0.0665(13) 0.9417(11) 0.3436(10)
C39_4 C 0.0864(12) 0.8846(11) 0.2848(11)
C40_4 C 0.0828(12) 0.9242(10) 0.2537(11)
H29_4 H 0.0879(12) 0.9168(10) 0.2212(11)
H30_4 H 0.0953(12) 0.8494(11) 0.2740(11)
H31_4 H 0.0614(13) 0.9470(11) 0.3764(10)
C1_4 C 0.4333(10) 0.3842(11) 0.7838(10)
C2_4 C 0.4316(12) 0.4281(11) 0.7543(11)
C3_4 C 0.4160(9) 0.4768(10) 0.7656(11)
C4_4 C 0.3983(11) 0.4806(11) 0.8132(10)
C5_4 C 0.4005(11) 0.4378(10) 0.8406(12)
H1_4 H 0.4469(10) 0.3503(11) 0.7738(10)
H2_4 H 0.4424(12) 0.4220(11) 0.7227(11)
H3_4 H 0.3853(11) 0.5143(11) 0.8243(10)
H4_4 H 0.3897(11) 0.4423(10) 0.8725(12)
C11_4 C 0.4160(9) 0.5232(10) 0.7344(11)
C12_4 C 0.4316(12) 0.5719(11) 0.7457(11)
C13_4 C 0.4333(10) 0.6158(11) 0.7162(10)
C14_4 C 0.4005(11) 0.5622(10) 0.6594(12)
C15_4 C 0.3983(11) 0.5194(11) 0.6868(10)
H9_4 H 0.3853(11) 0.4857(11) 0.6757(10)
H10_4 H 0.3897(11) 0.5577(10) 0.6275(12)
H11_4 H 0.4469(10) 0.6497(11) 0.7262(10)
H12_4 H 0.4424(12) 0.5780(11) 0.7773(11)
C1_5 C 0.3658(11) 0.6833(10) 0.5338(10)
C2_5 C 0.3219(11) 0.6816(12) 0.5043(11)
C3_5 C 0.2732(10) 0.6660(9) 0.5156(11)
C4_5 C 0.2694(11) 0.6483(11) 0.5632(10)
C5_5 C 0.3122(10) 0.6505(11) 0.5906(12)
H1_5 H 0.3997(11) 0.6969(10) 0.5238(10)
H2_5 H 0.3280(11) 0.6924(12) 0.4727(11)
H3_5 H 0.2357(11) 0.6353(11) 0.5743(10)
H4_5 H 0.3077(10) 0.6397(11) 0.6225(12)
C11_5 C 0.2268(10) 0.6660(9) 0.4844(11)
C12_5 C 0.1781(11) 0.6816(12) 0.4957(11)
C13_5 C 0.1342(11) 0.6833(10) 0.4662(10)
C14_5 C 0.1878(10) 0.6505(11) 0.4094(12)
C15_5 C 0.2306(11) 0.6483(11) 0.4368(10)
H9_5 H 0.2643(11) 0.6353(11) 0.4257(10)
H10_5 H 0.1923(10) 0.6397(11) 0.3775(12)
H11_5 H 0.1003(11) 0.6969(10) 0.4762(10)
H12_5 H 0.1720(11) 0.6924(12) 0.5273(11)
H27_5 H 0.1668(10) 0.6621(12) 0.0288(11)
C36_5 C 0.2730(10) 0.6773(10) 0.0171(9)
C37_5 C 0.2664(10) 0.6867(13) 0.0656(10)
C38_5 C 0.3083(11) 0.6835(13) 0.0936(10)
N8_3 N 0.3587(8) 0.6727(9) 0.0791(8)
C39_5 C 0.3654(11) 0.6636(12) 0.0348(11)
C40_5 C 0.3258(10) 0.6672(12) 0.0037(11)
H30_5 H 0.4006(11) 0.6547(12) 0.0240(11)
H31_5 H 0.3030(11) 0.6886(13) 0.1264(10)
H32_5 H 0.2316(10) 0.6953(13) 0.0775(10)
Cu8_3 Cu 0.42322(13) 0.67322(13) 0.1250
W1_7 W 0.0000 0.7500 0.8750
Cu2_3 Cu 0.07678(13) 0.67322(13) 0.8750
S1_5 S 0.0002(3) 0.6761(3) 0.9197(2)
N2_4 N 0.0773(9) 0.6087(8) 0.8291(8)
C6_5 C 0.0665(13) 0.5583(11) 0.8436(10)
C7_5 C 0.0633(13) 0.5164(10) 0.8156(10)
C8_5 C 0.0727(10) 0.5230(10) 0.7671(9)
C9_5 C 0.0828(12) 0.5758(10) 0.7537(11)
C10_5 C 0.0864(12) 0.6154(11) 0.7848(11)
H5_5 H 0.0614(13) 0.5530(11) 0.8764(10)
H6_5 H 0.0547(13) 0.4816(10) 0.8275(10)
H7_5 H 0.0879(12) 0.5832(10) 0.7212(11)
H8_5 H 0.0953(12) 0.6506(11) 0.7740(11)
C16_5 C 0.0727(10) 0.4770(10) 0.7329(9)
C17_5 C 0.0633(13) 0.4836(10) 0.6844(10)
C18_5 C 0.0665(13) 0.4417(11) 0.6564(10)
N4_3 N 0.0773(9) 0.3913(8) 0.6709(8)
C19_5 C 0.0864(12) 0.3846(11) 0.7152(11)
C20_5 C 0.0828(12) 0.4242(10) 0.7463(11)
H13_5 H 0.0879(12) 0.4168(10) 0.7788(11)
H14_5 H 0.0953(12) 0.3494(11) 0.7260(11)
H15_5 H 0.0614(13) 0.4470(11) 0.6236(10)
H16_5 H 0.0547(13) 0.5184(10) 0.6725(10)
S4_5 S 0.0739(3) 0.7498(3) 0.8303(2)
Cu3_3 Cu 0.07677(12) 0.82677(12) 0.8750
N7_4 N 0.1413(8) 0.6727(9) 0.9209(8)
C31_5 C 0.1917(11) 0.6835(13) 0.9064(10)
C32_5 C 0.2336(10) 0.6867(13) 0.9344(10)
C33_5 C 0.2270(10) 0.6773(10) 0.9829(9)
C34_5 C 0.1742(10) 0.6672(12) 0.9963(11)
C35_5 C 0.1346(11) 0.6636(12) 0.9652(11)
H25_5 H 0.1970(11) 0.6886(13) 0.8736(10)
H26_5 H 0.2684(10) 0.6953(13) 0.9225(10)
H28_5 H 0.0994(11) 0.6547(12) 0.9760(11)
H29_5 H 0.3332(10) 0.6621(12) 0.9712(11)
Cu6_3 Cu 0.07678(13) 0.32678(13) 0.6250
N9_4 N 0.1397(8) 0.8323(8) 0.9216(8)
N10_4 N 0.0823(8) 0.8897(8) 0.8284(8)
H2_6 H 0.8280(11) 0.6924(12) 0.0273(11)
C11_6 C 0.7268(10) 0.6660(9) 0.0156(11)
C12_6 C 0.6781(11) 0.6816(12) 0.0043(11)
C13_6 C 0.6342(11) 0.6833(10) 0.0338(10)
N3_3 N 0.6397(8) 0.6677(8) 0.0784(8)
C14_6 C 0.6878(10) 0.6505(11) 0.0906(12)
C15_6 C 0.7306(11) 0.6483(11) 0.0632(10)
H9_6 H 0.7643(11) 0.6353(11) 0.0743(10)
H10_6 H 0.6923(10) 0.6397(11) 0.1225(12)
H11_6 H 0.6003(11) 0.6969(10) 0.0238(10)
Cu5_3 Cu 0.57677(12) 0.67323(12) 0.1250
W1_8 W 1.0000 0.7500 0.8750
Cu1_3 Cu 0.92323(12) 0.67323(12) 0.8750
N1_4 N 0.8603(8) 0.6677(8) 0.9216(8)
C1_6 C 0.8658(11) 0.6833(10) 0.9662(10)
C2_6 C 0.8219(11) 0.6816(12) 0.9957(11)
C3_6 C 0.7732(10) 0.6660(9) 0.9844(11)
C4_6 C 0.7694(11) 0.6483(11) 0.9368(10)
C5_6 C 0.8122(10) 0.6505(11) 0.9094(12)
H1_6 H 0.8997(11) 0.6969(10) 0.9762(10)
H3_6 H 0.7357(11) 0.6353(11) 0.9257(10)
H4_6 H 0.8077(10) 0.6397(11) 0.8775(12)
H12_6 H 0.6720(11) 0.6924(12) 0.9727(11)
S2_5 S 0.9261(3) 0.7502(3) 0.8303(2)
S3_5 S 0.9998(3) 0.8239(3) 0.9197(2)
Cu4_3 Cu 0.92322(13) 0.82678(13) 0.8750
N5_4 N 0.9177(8) 0.6103(8) 0.8284(8)
C21_4 C 0.9333(10) 0.6158(11) 0.7838(10)
C22_4 C 0.9316(12) 0.5719(11) 0.7543(11)
C23_4 C 0.9160(9) 0.5232(10) 0.7656(11)
C24_4 C 0.8983(11) 0.5194(11) 0.8132(10)
C25_4 C 0.9005(11) 0.5622(10) 0.8406(12)
H17_4 H 0.9469(10) 0.6497(11) 0.7738(10)
H18_4 H 0.9424(12) 0.5780(11) 0.7227(11)
H19_4 H 0.8853(11) 0.4857(11) 0.8243(10)
H20_4 H 0.8897(11) 0.5577(10) 0.8725(12)
C26_4 C 0.9160(9) 0.4768(10) 0.7344(11)
C27_4 C 0.9316(12) 0.4281(11) 0.7457(11)
C28_4 C 0.9333(10) 0.3842(11) 0.7162(10)
N6_3 N 0.9177(8) 0.3897(8) 0.6716(8)
C29_4 C 0.9005(11) 0.4378(10) 0.6594(12)
C30_4 C 0.8983(11) 0.4806(11) 0.6868(10)
H21_4 H 0.8853(11) 0.5143(11) 0.6757(10)
H22_4 H 0.8897(11) 0.4423(10) 0.6275(12)
H23_4 H 0.9469(10) 0.3503(11) 0.7262(10)
H24_4 H 0.9424(12) 0.4220(11) 0.7773(11)
N11_4 N 0.8587(8) 0.8273(9) 0.9209(8)
N12_4 N 0.9227(9) 0.8913(8) 0.8291(8)
Cu7_3 Cu 0.92323(12) 0.32677(12) 0.6250
W1_9 W 0.5000 0.2500 0.3750
Cu1_4 Cu 0.42323(12) 0.17323(12) 0.3750
Cu2_4 Cu 0.57678(13) 0.17322(13) 0.3750
S1_6 S 0.5002(3) 0.1761(3) 0.4197(2)
N1_5 N 0.3603(8) 0.1677(8) 0.4216(8)
N2_5 N 0.5773(9) 0.1087(8) 0.3291(8)
C1_7 C 0.3658(11) 0.1833(10) 0.4662(10)
C2_7 C 0.3219(11) 0.1816(12) 0.4957(11)
C3_7 C 0.2732(10) 0.1660(9) 0.4844(11)
C4_7 C 0.2694(11) 0.1483(11) 0.4368(10)
C5_7 C 0.3122(10) 0.1505(11) 0.4094(12)
C6_6 C 0.5665(13) 0.0583(11) 0.3436(10)
C7_6 C 0.5633(13) 0.0164(10) 0.3156(10)
C8_6 C 0.5727(10) 0.0230(10) 0.2671(9)
C9_6 C 0.5828(12) 0.0758(10) 0.2537(11)
C10_6 C 0.5864(12) 0.1154(11) 0.2848(11)
H1_7 H 0.3997(11) 0.1969(10) 0.4762(10)
H2_7 H 0.3280(11) 0.1924(12) 0.5273(11)
H3_7 H 0.2357(11) 0.1353(11) 0.4257(10)
H4_7 H 0.3077(10) 0.1397(11) 0.3775(12)
H5_6 H 0.5614(13) 0.0530(11) 0.3764(10)
H7_6 H 0.5879(12) 0.0832(10) 0.2212(11)
H8_6 H 0.5953(12) 0.1506(11) 0.2740(11)
C11_7 C 0.2268(10) 0.1660(9) 0.5156(11)
C12_7 C 0.1781(11) 0.1816(12) 0.5043(11)
C13_7 C 0.1342(11) 0.1833(10) 0.5338(10)
N3_4 N 0.1397(8) 0.1677(8) 0.5784(8)
C14_7 C 0.1878(10) 0.1505(11) 0.5906(12)
C15_7 C 0.2306(11) 0.1483(11) 0.5632(10)
H9_7 H 0.2643(11) 0.1353(11) 0.5743(10)
H10_7 H 0.1923(10) 0.1397(11) 0.6225(12)
H11_7 H 0.1003(11) 0.1969(10) 0.5238(10)
H12_7 H 0.1720(11) 0.1924(12) 0.4727(11)
H16_6 H 0.5547(13) 0.0184(10) 0.1725(10)
S2_6 S 0.4261(3) 0.2502(3) 0.3303(2)
S3_6 S 0.4998(3) 0.3239(3) 0.4197(2)
S4_6 S 0.5739(3) 0.2498(3) 0.3303(2)
Cu3_4 Cu 0.57677(12) 0.32677(12) 0.3750
Cu4_4 Cu 0.42322(13) 0.32678(13) 0.3750
N5_5 N 0.4177(8) 0.1103(8) 0.3284(8)
C21_5 C 0.4333(10) 0.1158(11) 0.2838(10)
C22_5 C 0.4316(12) 0.0719(11) 0.2543(11)
C23_5 C 0.4160(9) 0.0232(10) 0.2656(11)
C24_5 C 0.3983(11) 0.0194(11) 0.3132(10)
C25_5 C 0.4005(11) 0.0622(10) 0.3406(12)
H17_5 H 0.4469(10) 0.1497(11) 0.2738(10)
H18_5 H 0.4424(12) 0.0780(11) 0.2227(11)
H20_5 H 0.3897(11) 0.0577(10) 0.3725(12)
H21_5 H 0.3853(11) 0.0143(11) 0.1757(10)
N7_5 N 0.6413(8) 0.1727(9) 0.4209(8)
C31_6 C 0.6917(11) 0.1835(13) 0.4064(10)
C32_6 C 0.7336(10) 0.1867(13) 0.4344(10)
C33_6 C 0.7270(10) 0.1773(10) 0.4829(9)
C34_6 C 0.6742(10) 0.1672(12) 0.4963(11)
C35_6 C 0.6346(11) 0.1636(12) 0.4652(11)
H25_6 H 0.6970(11) 0.1886(13) 0.3736(10)
H26_6 H 0.7684(10) 0.1953(13) 0.4225(10)
H27_6 H 0.6668(10) 0.1621(12) 0.5288(11)
H28_6 H 0.5994(11) 0.1547(12) 0.4760(11)
C36_6 C 0.7730(10) 0.1773(10) 0.5171(9)
C37_6 C 0.7664(10) 0.1867(13) 0.5656(10)
C38_6 C 0.8083(11) 0.1835(13) 0.5936(10)
N8_4 N 0.8587(8) 0.1727(9) 0.5791(8)
C39_6 C 0.8654(11) 0.1636(12) 0.5348(11)
C40_6 C 0.8258(10) 0.1672(12) 0.5037(11)
H29_6 H 0.8332(10) 0.1621(12) 0.4712(11)
H30_6 H 0.9006(11) 0.1547(12) 0.5240(11)
H31_6 H 0.8030(11) 0.1886(13) 0.6264(10)
H32_6 H 0.7316(10) 0.1953(13) 0.5775(10)
Cu5_4 Cu 0.07677(12) 0.17323(12) 0.6250
N9_5 N 0.6397(8) 0.3323(8) 0.4216(8)
N10_5 N 0.5823(8) 0.3897(8) 0.3284(8)
N11_5 N 0.3587(8) 0.3273(9) 0.4209(8)
N12_5 N 0.4227(9) 0.3913(8) 0.3291(8)
Cu8_4 Cu 0.92322(13) 0.17322(13) 0.6250
H6_6 H 0.5547(13) 0.9816(10) 0.3275(10)
C16_6 C 0.5727(10) 0.9770(10) 0.2329(9)
C17_6 C 0.5633(13) 0.9836(10) 0.1844(10)
C18_6 C 0.5665(13) 0.9417(11) 0.1564(10)
N4_4 N 0.5773(9) 0.8913(8) 0.1709(8)
C19_6 C 0.5864(12) 0.8846(11) 0.2152(11)
C20_6 C 0.5828(12) 0.9242(10) 0.2463(11)
H13_6 H 0.5879(12) 0.9168(10) 0.2788(11)
H14_6 H 0.5953(12) 0.8494(11) 0.2260(11)
H15_6 H 0.5614(13) 0.9470(11) 0.1236(10)
H19_5 H 0.3853(11) 0.9857(11) 0.3243(10)
C26_5 C 0.4160(9) 0.9768(10) 0.2344(11)
C27_5 C 0.4316(12) 0.9281(11) 0.2457(11)
C28_5 C 0.4333(10) 0.8842(11) 0.2162(10)
N6_4 N 0.4177(8) 0.8897(8) 0.1716(8)
C29_5 C 0.4005(11) 0.9378(10) 0.1594(12)
C30_5 C 0.3983(11) 0.9806(11) 0.1868(10)
H22_5 H 0.3897(11) 0.9423(10) 0.1275(12)
H23_5 H 0.4469(10) 0.8503(11) 0.2262(10)
H24_5 H 0.4424(12) 0.9220(11) 0.2773(11)
Cu6_4 Cu 0.57678(13) 0.82678(13) 0.1250
Cu7_4 Cu 0.42323(12) 0.82677(12) 0.1250
W1_10 W -0.0000 0.2500 0.6250
S1_7 S 0.0739(3) 0.2502(3) 0.6697(2)
N1_6 N 0.0823(8) 0.1103(8) 0.6716(8)
N2_6 N 0.1413(8) 0.3273(9) 0.5791(8)
C1_8 C 0.0667(10) 0.1158(11) 0.7162(10)
C2_8 C 0.0684(12) 0.0719(11) 0.7457(11)
C3_8 C 0.0840(9) 0.0232(10) 0.7344(11)
C4_8 C 0.1017(11) 0.0194(11) 0.6868(10)
C5_8 C 0.0995(11) 0.0622(10) 0.6594(12)
C6_7 C 0.1917(11) 0.3165(13) 0.5936(10)
C7_7 C 0.2336(10) 0.3133(13) 0.5656(10)
C8_7 C 0.2270(10) 0.3227(10) 0.5171(9)
C9_7 C 0.1742(10) 0.3328(12) 0.5037(11)
C10_7 C 0.1346(11) 0.3364(12) 0.5348(11)
H1_8 H 0.0531(10) 0.1497(11) 0.7262(10)
H2_8 H 0.0576(12) 0.0780(11) 0.7773(11)
H4_8 H 0.1103(11) 0.0577(10) 0.6275(12)
H5_7 H 0.1970(11) 0.3114(13) 0.6264(10)
H6_7 H 0.2684(10) 0.3047(13) 0.5775(10)
H7_7 H 0.1668(10) 0.3379(12) 0.4712(11)
H8_7 H 0.0994(11) 0.3453(12) 0.5240(11)
H9_8 H 0.1147(11) 0.0143(11) 0.8243(10)
C16_7 C 0.2730(10) 0.3227(10) 0.4829(9)
C17_7 C 0.2664(10) 0.3133(13) 0.4344(10)
C18_7 C 0.3083(11) 0.3165(13) 0.4064(10)
C19_7 C 0.3654(11) 0.3364(12) 0.4652(11)
C20_7 C 0.3258(10) 0.3328(12) 0.4963(11)
H13_7 H 0.3332(10) 0.3379(12) 0.5288(11)
H14_7 H 0.4006(11) 0.3453(12) 0.4760(11)
H15_7 H 0.3030(11) 0.3114(13) 0.3736(10)
H16_7 H 0.2316(10) 0.3047(13) 0.4225(10)
S4_7 S 0.0002(3) 0.3239(3) 0.5803(2)
H3_8 H 0.1147(11) 0.9857(11) 0.6757(10)
C11_8 C 0.0840(9) 0.9768(10) 0.7656(11)
C12_8 C 0.0684(12) 0.9281(11) 0.7543(11)
C13_8 C 0.0667(10) 0.8842(11) 0.7838(10)
C14_8 C 0.0995(11) 0.9378(10) 0.8406(12)
C15_8 C 0.1017(11) 0.9806(11) 0.8132(10)
H10_8 H 0.1103(11) 0.9423(10) 0.8725(12)
H11_8 H 0.0531(10) 0.8503(11) 0.7738(10)
H12_8 H 0.0576(12) 0.9220(11) 0.7227(11)
W1_11 W 1.0000 0.2500 0.6250
S2_7 S 0.9998(3) 0.1761(3) 0.5803(2)
S3_7 S 0.9261(3) 0.2498(3) 0.6697(2)
N10_6 N 0.8603(8) 0.3323(8) 0.5784(8)
N11_6 N 0.9227(9) 0.1087(8) 0.6709(8)
W1_12 W 0.5000 0.7500 0.1250
S1_8 S 0.4261(3) 0.7498(3) 0.1697(2)
S2_8 S 0.5002(3) 0.8239(3) 0.0803(2)
S3_8 S 0.5739(3) 0.7502(3) 0.1697(2)
S4_8 S 0.4998(3) 0.6761(3) 0.0803(2)
N5_6 N 0.3603(8) 0.8323(8) 0.0784(8)
C21_6 C 0.3658(11) 0.8167(10) 0.0338(10)
C22_6 C 0.3219(11) 0.8184(12) 0.0043(11)
C23_6 C 0.2732(10) 0.8340(9) 0.0156(11)
C24_6 C 0.2694(11) 0.8517(11) 0.0632(10)
C25_6 C 0.3122(10) 0.8495(11) 0.0906(12)
H17_6 H 0.3997(11) 0.8031(10) 0.0238(10)
H19_6 H 0.2357(11) 0.8647(11) 0.0743(10)
H20_6 H 0.3077(10) 0.8603(11) 0.1225(12)
H24_6 H 0.1720(11) 0.8076(12) 0.0273(11)
N7_6 N 0.4227(9) 0.6087(8) 0.1709(8)
C31_7 C 0.4335(13) 0.5583(11) 0.1564(10)
C32_7 C 0.4367(13) 0.5164(10) 0.1844(10)
C33_7 C 0.4273(10) 0.5230(10) 0.2329(9)
C34_7 C 0.4172(12) 0.5758(10) 0.2463(11)
C35_7 C 0.4136(12) 0.6154(11) 0.2152(11)
H25_7 H 0.4386(13) 0.5530(11) 0.1236(10)
H26_7 H 0.4453(13) 0.4816(10) 0.1725(10)
H27_7 H 0.4121(12) 0.5832(10) 0.2788(11)
H28_7 H 0.4047(12) 0.6506(11) 0.2260(11)
C36_7 C 0.4273(10) 0.4770(10) 0.2671(9)
C37_7 C 0.4367(13) 0.4836(10) 0.3156(10)
C38_7 C 0.4335(13) 0.4417(11) 0.3436(10)
C39_7 C 0.4136(12) 0.3846(11) 0.2848(11)
C40_7 C 0.4172(12) 0.4242(10) 0.2537(11)
H29_7 H 0.4121(12) 0.4168(10) 0.2212(11)
H30_7 H 0.4047(12) 0.3494(11) 0.2740(11)
H31_7 H 0.4386(13) 0.4470(11) 0.3764(10)
H32_7 H 0.4453(13) 0.5184(10) 0.3275(10)
N9_6 N 0.5823(8) 0.6103(8) 0.1716(8)
N12_6 N 0.6413(8) 0.8273(9) 0.0791(8)
H18_6 H 0.3280(11) 0.8076(12) 0.9727(11)
C26_6 C 0.2268(10) 0.8340(9) 0.9844(11)
C27_6 C 0.1781(11) 0.8184(12) 0.9957(11)
C28_6 C 0.1342(11) 0.8167(10) 0.9662(10)
C29_6 C 0.1878(10) 0.8495(11) 0.9094(12)
C30_6 C 0.2306(11) 0.8517(11) 0.9368(10)
H21_6 H 0.2643(11) 0.8647(11) 0.9257(10)
H22_6 H 0.1923(10) 0.8603(11) 0.8775(12)
H23_6 H 0.1003(11) 0.8031(10) 0.9762(10)
H26_8 H 0.9453(13) 0.0184(10) 0.8275(10)
C36_8 C 0.9273(10) 0.0230(10) 0.7329(9)
C37_8 C 0.9367(13) 0.0164(10) 0.6844(10)
C38_8 C 0.9335(13) 0.0583(11) 0.6564(10)
C39_8 C 0.9136(12) 0.1154(11) 0.7152(11)
C40_8 C 0.9172(12) 0.0758(10) 0.7463(11)
H29_8 H 0.9121(12) 0.0832(10) 0.7788(11)
H30_8 H 0.9047(12) 0.1506(11) 0.7260(11)
H31_8 H 0.9386(13) 0.0530(11) 0.6236(10)
H7_8 H 0.8332(10) 0.8379(12) 0.0288(11)
C16_8 C 0.7270(10) 0.8227(10) 0.0171(9)
C17_8 C 0.7336(10) 0.8133(13) 0.0656(10)
C18_8 C 0.6917(11) 0.8165(13) 0.0936(10)
C19_8 C 0.6346(11) 0.8364(12) 0.0348(11)
C20_8 C 0.6742(10) 0.8328(12) 0.0037(11)
H14_8 H 0.5994(11) 0.8453(12) 0.0240(11)
H15_8 H 0.6970(11) 0.8114(13) 0.1264(10)
H16_8 H 0.7684(10) 0.8047(13) 0.0775(10)
C6_8 C 0.8083(11) 0.8165(13) 0.9064(10)
C7_8 C 0.7664(10) 0.8133(13) 0.9344(10)
C8_8 C 0.7730(10) 0.8227(10) 0.9829(9)
C9_8 C 0.8258(10) 0.8328(12) 0.9963(11)
C10_8 C 0.8654(11) 0.8364(12) 0.9652(11)
H5_8 H 0.8030(11) 0.8114(13) 0.8736(10)
H6_8 H 0.7316(10) 0.8047(13) 0.9225(10)
H8_8 H 0.9006(11) 0.8453(12) 0.9760(11)
H13_8 H 0.6668(10) 0.8379(12) 0.9712(11)
C31_8 C 0.9335(13) 0.9417(11) 0.8436(10)
C32_8 C 0.9367(13) 0.9836(10) 0.8156(10)
C33_8 C 0.9273(10) 0.9770(10) 0.7671(9)
C34_8 C 0.9172(12) 0.9242(10) 0.7537(11)
C35_8 C 0.9136(12) 0.8846(11) 0.7848(11)
H25_8 H 0.9386(13) 0.9470(11) 0.8764(10)
H27_8 H 0.9121(12) 0.9168(10) 0.7212(11)
H28_8 H 0.9047(12) 0.8494(11) 0.7740(11)
H32_8 H 0.9453(13) 0.9816(10) 0.6725(10)
C1_9 C 0.5667(10) 0.6158(11) 0.2162(10)
C2_9 C 0.5684(12) 0.5719(11) 0.2457(11)
C3_9 C 0.5840(9) 0.5232(10) 0.2344(11)
C4_9 C 0.6017(11) 0.5194(11) 0.1868(10)
C5_9 C 0.5995(11) 0.5622(10) 0.1594(12)
H1_9 H 0.5531(10) 0.6497(11) 0.2262(10)
H2_9 H 0.5576(12) 0.5780(11) 0.2773(11)
H3_9 H 0.6147(11) 0.4857(11) 0.1757(10)
H4_9 H 0.6103(11) 0.5577(10) 0.1275(12)
C11_9 C 0.5840(9) 0.4768(10) 0.2656(11)
C12_9 C 0.5684(12) 0.4281(11) 0.2543(11)
C13_9 C 0.5667(10) 0.3842(11) 0.2838(10)
C14_9 C 0.5995(11) 0.4378(10) 0.3406(12)
C15_9 C 0.6017(11) 0.4806(11) 0.3132(10)
H9_9 H 0.6147(11) 0.5143(11) 0.3243(10)
H10_9 H 0.6103(11) 0.4423(10) 0.3725(12)
H11_9 H 0.5531(10) 0.3503(11) 0.2738(10)
H12_9 H 0.5576(12) 0.4220(11) 0.2227(11)
C1_10 C 0.6342(11) 0.3167(10) 0.4662(10)
C2_10 C 0.6781(11) 0.3184(12) 0.4957(11)
C3_10 C 0.7268(10) 0.3340(9) 0.4844(11)
C4_10 C 0.7306(11) 0.3517(11) 0.4368(10)
C5_10 C 0.6878(10) 0.3495(11) 0.4094(12)
H1_10 H 0.6003(11) 0.3031(10) 0.4762(10)
H2_10 H 0.6720(11) 0.3076(12) 0.5273(11)
H3_10 H 0.7643(11) 0.3647(11) 0.4257(10)
H4_10 H 0.6923(10) 0.3603(11) 0.3775(12)
C11_10 C 0.7732(10) 0.3340(9) 0.5156(11)
C12_10 C 0.8219(11) 0.3184(12) 0.5043(11)
C13_10 C 0.8658(11) 0.3167(10) 0.5338(10)
C14_10 C 0.8122(10) 0.3495(11) 0.5906(12)
C15_10 C 0.7694(11) 0.3517(11) 0.5632(10)
H9_10 H 0.7357(11) 0.3647(11) 0.5743(10)
H10_10 H 0.8077(10) 0.3603(11) 0.6225(12)
H11_10 H 0.8997(11) 0.3031(10) 0.5238(10)
H12_10 H 0.8280(11) 0.3076(12) 0.4727(11)
W2 W 0.5000 0.2500 0.1250
I1 I 0.33892(7) 0.13411(7) 0.15176(7)
Cu9 Cu 0.42986(13) 0.16700(12) 0.11801(12)
S5 S 0.4269(3) 0.2489(3) 0.0791(2)
N13 N 0.4517(9) 0.1054(8) 0.0718(8)
C41 C 0.4862(10) 0.1159(11) 0.0366(9)
C42 C 0.5053(12) 0.0740(9) 0.0086(7)
C43 C 0.491(1) 0.0214(11) 0.0145(11)
C44 C 0.473(2) 0.009(2) 0.066(2)
C45 C 0.457(2) 0.057(2) 0.091(2)
S6 S 0.4989(3) 0.3231(3) 0.1709(2)
S7 S 0.5731(3) 0.2511(3) 0.0791(2)
S8 S 0.5011(3) 0.1769(3) 0.1709(2)
Cu10 Cu 0.41700(12) 0.32014(13) 0.13199(12)
Cu11 Cu 0.57014(13) 0.33300(12) 0.11801(12)
Cu12 Cu 0.58300(12) 0.17986(13) 0.13199(12)
I2 I 0.38411(7) 0.41108(7) 0.09824(7)
N15 N 0.3554(8) 0.2983(9) 0.1782(8)
C51 C 0.3659(11) 0.2638(10) 0.2134(9)
C52 C 0.3240(9) 0.2447(12) 0.2414(7)
C53 C 0.2714(11) 0.259(1) 0.2355(11)
C54 C 0.259(2) 0.277(2) 0.184(2)
C55 C 0.307(2) 0.293(2) 0.159(2)
C56 C 0.2286(11) 0.241(1) 0.2645(11)
C57 C 0.1760(9) 0.2553(12) 0.2586(7)
C58 C 0.1341(11) 0.2362(10) 0.2866(9)
N16 N 0.1446(8) 0.2017(9) 0.3218(8)
C59 C 0.193(2) 0.207(2) 0.341(2)
C60 C 0.241(2) 0.223(2) 0.316(2)
I3 I 0.66108(7) 0.36589(7) 0.15176(7)
I4 I 0.61589(7) 0.08892(7) 0.09824(7)
N17 N 0.5483(9) 0.3946(8) 0.0718(8)
N18 N 0.6446(8) 0.2017(9) 0.1782(8)
Cu14 Cu 0.08300(12) 0.17986(13) 0.36801(12)
H33 H 0.499234 0.157129 0.0299497
H36 H 0.407129 0.250766 0.22005
H38 H 0.303187 0.301357 0.121519
H39 H 0.218744 0.277429 0.168704
H40 H 0.0928711 0.249234 0.27995
H41 H 0.196813 0.198643 0.378481
H42 H 0.448643 0.0531868 0.128481
H43 H 0.333832 0.216709 0.269655
H45 H 0.166168 0.283291 0.230345
H48 H 0.281256 0.222571 0.331296
C46 C 0.509(1) 0.9786(11) 0.9855(11)
C47 C 0.4947(12) 0.9260(9) 0.9914(7)
C48 C 0.5138(10) 0.8841(11) 0.9634(9)
N14 N 0.5483(9) 0.8946(8) 0.9282(8)
C49 C 0.543(2) 0.943(2) 0.909(2)
C50 C 0.527(2) 0.991(2) 0.934(2)
Cu13 Cu 0.57014(13) 0.83300(12) 0.88199(12)
H37 H 0.551357 0.946813 0.871519
H47 H 0.500766 0.842871 0.97005
W2_2 W -0.0000 0.7500 0.6250
C42_2 C 0.0053(12) 0.5740(9) 0.5086(7)
C46_2 C 0.009(1) 0.4786(11) 0.4855(11)
C48_2 C 0.0138(10) 0.3841(11) 0.4634(9)
N14_2 N 0.0483(9) 0.3946(8) 0.4282(8)
C49_2 C 0.043(2) 0.443(2) 0.409(2)
C50_2 C 0.027(2) 0.491(2) 0.434(2)
S7_2 S 0.0731(3) 0.7511(3) 0.5791(2)
S8_2 S 0.0011(3) 0.6769(3) 0.6709(2)
Cu11_2 Cu 0.07014(13) 0.83300(12) 0.61801(12)
Cu12_2 Cu 0.08300(12) 0.67986(13) 0.63199(12)
I3_2 I 0.16108(7) 0.86589(7) 0.65176(7)
I4_2 I 0.11589(7) 0.58892(7) 0.59824(7)
Cu13_2 Cu 0.07014(13) 0.33300(12) 0.38199(12)
N17_2 N 0.0483(9) 0.8946(8) 0.5718(8)
N18_2 N 0.1446(8) 0.7017(9) 0.6782(8)
H34 H 0.033291 0.583832 0.480345
H37_2 H 0.0513568 0.446813 0.371519
H44 H 0.0274293 0.531256 0.418704
H47_2 H 0.000766218 0.342871 0.47005
W2_3 W 1.0000 0.7500 0.6250
I1_2 I 0.83892(7) 0.63411(7) 0.65176(7)
Cu9_2 Cu 0.92986(13) 0.66700(12) 0.61801(12)
S5_2 S 0.9269(3) 0.7489(3) 0.5791(2)
N13_2 N 0.9517(9) 0.6054(8) 0.5718(8)
C41_2 C 0.9862(10) 0.6159(11) 0.5366(9)
C43_2 C 0.991(1) 0.5214(11) 0.5145(11)
C44_2 C 0.973(2) 0.509(2) 0.566(2)
C45_2 C 0.957(2) 0.557(2) 0.591(2)
C47_2 C 0.9947(12) 0.4260(9) 0.4914(7)
S6_2 S 0.9989(3) 0.8231(3) 0.6709(2)
Cu10_2 Cu 0.91700(12) 0.82014(13) 0.63199(12)
I2_2 I 0.88411(7) 0.91108(7) 0.59824(7)
N15_2 N 0.8554(8) 0.7983(9) 0.6782(8)
C51_2 C 0.8659(11) 0.7638(10) 0.7134(9)
C52_2 C 0.8240(9) 0.7447(12) 0.7414(7)
C53_2 C 0.7714(11) 0.759(1) 0.7355(11)
C54_2 C 0.759(2) 0.777(2) 0.684(2)
C55_2 C 0.807(2) 0.793(2) 0.659(2)
C56_2 C 0.7286(11) 0.741(1) 0.7645(11)
C57_2 C 0.6760(9) 0.7553(12) 0.7586(7)
C58_2 C 0.6341(11) 0.7362(10) 0.7866(9)
N16_2 N 0.6446(8) 0.7017(9) 0.8218(8)
C59_2 C 0.693(2) 0.707(2) 0.841(2)
C60_2 C 0.741(2) 0.723(2) 0.816(2)
Cu14_2 Cu 0.58300(12) 0.67986(13) 0.86801(12)
H33_2 H 0.999234 0.657129 0.52995
H35 H 0.972571 0.468744 0.581296
H36_2 H 0.907129 0.750766 0.72005
H38_2 H 0.803187 0.801357 0.621519
H39_2 H 0.718744 0.777429 0.668704
H40_2 H 0.592871 0.749234 0.77995
H41_2 H 0.696813 0.698643 0.878481
H42_2 H 0.948643 0.553187 0.628481
H43_2 H 0.833832 0.716709 0.769655
H45_2 H 0.666168 0.783291 0.730345
H46 H 0.966709 0.416168 0.519655
H48_2 H 0.781256 0.722571 0.831296
W2_4 W -0.0000 0.2500 0.3750
I1_3 I 0.11589(7) 0.08892(7) 0.40176(7)
S5_3 S 0.0011(3) 0.1769(3) 0.3291(2)
S8_3 S 0.0731(3) 0.2511(3) 0.4209(2)
C52_3 C 0.0053(12) 0.0740(9) 0.4914(7)
I4_3 I 0.16108(7) 0.36589(7) 0.34824(7)
H43_3 H 0.033291 0.0838317 0.519655
H48_3 H 0.0274293 0.0312561 0.581296
C56_3 C 0.009(1) 0.9786(11) 0.5145(11)
C58_3 C 0.0138(10) 0.8841(11) 0.5366(9)
C59_3 C 0.043(2) 0.943(2) 0.591(2)
C60_3 C 0.027(2) 0.991(2) 0.566(2)
H40_3 H 0.000766218 0.842871 0.52995
H41_3 H 0.0513568 0.946813 0.628481
W2_5 W 1.0000 0.2500 0.3750
S6_3 S 0.9269(3) 0.2489(3) 0.4209(2)
S7_3 S 0.9989(3) 0.3231(3) 0.3291(2)
Cu10_3 Cu 0.92986(13) 0.16700(12) 0.38199(12)
Cu11_3 Cu 0.91700(12) 0.32014(13) 0.36801(12)
I2_3 I 0.83892(7) 0.13411(7) 0.34824(7)
N15_3 N 0.9517(9) 0.1054(8) 0.4282(8)
C51_3 C 0.9862(10) 0.1159(11) 0.4634(9)
C53_3 C 0.991(1) 0.0214(11) 0.4855(11)
C54_3 C 0.973(2) 0.009(2) 0.434(2)
C55_3 C 0.957(2) 0.057(2) 0.409(2)
I3_3 I 0.88411(7) 0.41108(7) 0.40176(7)
N17_3 N 0.8554(8) 0.2983(9) 0.3218(8)
H36_3 H 0.999234 0.157129 0.47005
H38_3 H 0.948643 0.0531868 0.371519
C57_3 C 0.9947(12) 0.9260(9) 0.5086(7)
H39_3 H 0.972571 0.968744 0.418704
H45_3 H 0.966709 0.916168 0.480345
W2_6 W 0.5000 0.7500 0.8750
I1_4 I 0.38411(7) 0.91108(7) 0.90176(7)
Cu9_3 Cu 0.41700(12) 0.82014(13) 0.86801(12)
S5_4 S 0.4989(3) 0.8231(3) 0.8291(2)
N13_3 N 0.3554(8) 0.7983(9) 0.8218(8)
C41_3 C 0.3659(11) 0.7638(10) 0.7866(9)
C42_3 C 0.3240(9) 0.7447(12) 0.7586(7)
C43_3 C 0.2714(11) 0.759(1) 0.7645(11)
C44_3 C 0.259(2) 0.777(2) 0.816(2)
C45_3 C 0.307(2) 0.793(2) 0.841(2)
C46_3 C 0.2286(11) 0.741(1) 0.7355(11)
C47_3 C 0.1760(9) 0.7553(12) 0.7414(7)
C48_3 C 0.1341(11) 0.7362(10) 0.7134(9)
C49_3 C 0.193(2) 0.707(2) 0.659(2)
C50_3 C 0.241(2) 0.723(2) 0.684(2)
S6_4 S 0.5731(3) 0.7511(3) 0.9209(2)
S7_4 S 0.5011(3) 0.6769(3) 0.8291(2)
S8_4 S 0.4269(3) 0.7489(3) 0.9209(2)
Cu12_3 Cu 0.42986(13) 0.66700(12) 0.88199(12)
I2_4 I 0.66108(7) 0.86589(7) 0.84824(7)
I3_4 I 0.61589(7) 0.58892(7) 0.90176(7)
I4_4 I 0.33892(7) 0.63411(7) 0.84824(7)
N18_3 N 0.4517(9) 0.6054(8) 0.9282(8)
H33_3 H 0.407129 0.750766 0.77995
H34_2 H 0.333832 0.716709 0.730345
H35_2 H 0.218744 0.777429 0.831296
H37_3 H 0.196813 0.698643 0.621519
H42_3 H 0.303187 0.801357 0.878481
H44_2 H 0.281256 0.722571 0.668704
H46_2 H 0.166168 0.783291 0.769655
H47_3 H 0.0928711 0.749234 0.72005
C56_4 C 0.509(1) 0.4786(11) 0.0145(11)
C57_4 C 0.4947(12) 0.4260(9) 0.0086(7)
C58_4 C 0.5138(10) 0.3841(11) 0.0366(9)
C59_4 C 0.543(2) 0.443(2) 0.091(2)
C60_4 C 0.527(2) 0.491(2) 0.066(2)
H40_4 H 0.500766 0.342871 0.0299497
H41_4 H 0.551357 0.446813 0.128481
H43_4 H 0.533291 0.583832 0.019655
H48_4 H 0.527429 0.531256 0.0812957
C51_4 C 0.4862(10) 0.6159(11) 0.9634(9)
C52_4 C 0.5053(12) 0.5740(9) 0.9914(7)
C53_4 C 0.491(1) 0.5214(11) 0.9855(11)
C54_4 C 0.473(2) 0.509(2) 0.934(2)
C55_4 C 0.457(2) 0.557(2) 0.909(2)
H36_4 H 0.499234 0.657129 0.97005
H38_4 H 0.448643 0.553187 0.871519
H39_4 H 0.472571 0.468744 0.918704
H45_4 H 0.466709 0.416168 0.980345
C51_5 C 0.6341(11) 0.2362(10) 0.2134(9)
C52_5 C 0.6760(9) 0.2553(12) 0.2414(7)
C53_5 C 0.7286(11) 0.241(1) 0.2355(11)
C54_5 C 0.741(2) 0.223(2) 0.184(2)
C55_5 C 0.693(2) 0.207(2) 0.159(2)
C56_5 C 0.7714(11) 0.259(1) 0.2645(11)
C57_5 C 0.8240(9) 0.2447(12) 0.2586(7)
C58_5 C 0.8659(11) 0.2638(10) 0.2866(9)
C59_5 C 0.807(2) 0.293(2) 0.341(2)
C60_5 C 0.759(2) 0.277(2) 0.316(2)
H36_5 H 0.592871 0.249234 0.22005
H38_5 H 0.696813 0.198643 0.121519
H39_5 H 0.781256 0.222571 0.168704
H40_5 H 0.907129 0.250766 0.27995
H41_5 H 0.803187 0.301357 0.378481
H43_5 H 0.666168 0.283291 0.269655
H45_5 H 0.833832 0.216709 0.230345
H48_5 H 0.718744 0.277429 0.331296
H34_3 H 0.533291 0.0838317 0.980345
H44_3 H 0.527429 0.0312561 0.918704
H35_3 H 0.472571 0.968744 0.0812957
H46_3 H 0.466709 0.916168 0.019655
W2_7 W -0.0000 0.7500 0.1250
S6_5 S 0.0731(3) 0.7489(3) 0.0791(2)
S7_5 S 0.0011(3) 0.8231(3) 0.1709(2)
Cu10_4 Cu 0.07014(13) 0.66700(12) 0.11801(12)
Cu11_4 Cu 0.08300(12) 0.82014(13) 0.13199(12)
I2_5 I 0.16108(7) 0.63411(7) 0.15176(7)
N15_4 N 0.0483(9) 0.6054(8) 0.0718(8)
C51_6 C 0.0138(10) 0.6159(11) 0.0366(9)
C53_6 C 0.009(1) 0.5214(11) 0.0145(11)
C54_6 C 0.027(2) 0.509(2) 0.066(2)
C55_6 C 0.043(2) 0.557(2) 0.091(2)
I3_5 I 0.11589(7) 0.91108(7) 0.09824(7)
N17_4 N 0.1446(8) 0.7983(9) 0.1782(8)
H36_6 H 0.000766218 0.657129 0.0299497
H38_6 H 0.0513568 0.553187 0.128481
H39_6 H 0.0274293 0.468744 0.0812957
H45_6 H 0.033291 0.416168 0.019655
C57_6 C 0.0053(12) 0.4260(9) 0.9914(7)
W2_8 W 1.0000 0.7500 0.1250
I1_5 I 0.88411(7) 0.58892(7) 0.09824(7)
Cu9_4 Cu 0.91700(12) 0.67986(13) 0.13199(12)
S5_5 S 0.9989(3) 0.6769(3) 0.1709(2)
N13_4 N 0.8554(8) 0.7017(9) 0.1782(8)
C41_4 C 0.8659(11) 0.7362(10) 0.2134(9)
C42_4 C 0.8240(9) 0.7553(12) 0.2414(7)
C43_4 C 0.7714(11) 0.741(1) 0.2355(11)
C44_4 C 0.759(2) 0.723(2) 0.184(2)
C45_4 C 0.807(2) 0.707(2) 0.159(2)
C46_4 C 0.7286(11) 0.759(1) 0.2645(11)
C47_4 C 0.6760(9) 0.7447(12) 0.2586(7)
C48_4 C 0.6341(11) 0.7638(10) 0.2866(9)
N14_3 N 0.6446(8) 0.7983(9) 0.3218(8)
C49_4 C 0.693(2) 0.793(2) 0.341(2)
C50_4 C 0.741(2) 0.777(2) 0.316(2)
S8_5 S 0.9269(3) 0.7511(3) 0.0791(2)
Cu12_4 Cu 0.92986(13) 0.83300(12) 0.11801(12)
C52_6 C 0.9947(12) 0.5740(9) 0.0086(7)
I4_5 I 0.83892(7) 0.86589(7) 0.15176(7)
Cu13_3 Cu 0.58300(12) 0.82014(13) 0.36801(12)
N18_4 N 0.9517(9) 0.8946(8) 0.0718(8)
H33_4 H 0.907129 0.749234 0.22005
H34_4 H 0.833832 0.783291 0.269655
H35_4 H 0.718744 0.722571 0.168704
H37_4 H 0.696813 0.801357 0.378481
H42_4 H 0.803187 0.698643 0.121519
H44_4 H 0.781256 0.777429 0.331296
H46_4 H 0.666168 0.716709 0.230345
H47_4 H 0.592871 0.750766 0.27995
C56_6 C 0.991(1) 0.4786(11) 0.9855(11)
C58_6 C 0.9862(10) 0.3841(11) 0.9634(9)
N16_3 N 0.9517(9) 0.3946(8) 0.9282(8)
C59_6 C 0.957(2) 0.443(2) 0.909(2)
C60_6 C 0.973(2) 0.491(2) 0.934(2)
Cu14_3 Cu 0.92986(13) 0.33300(12) 0.88199(12)
H40_6 H 0.999234 0.342871 0.97005
H41_6 H 0.948643 0.446813 0.871519
H43_6 H 0.966709 0.583832 0.980345
H48_6 H 0.972571 0.531256 0.918704
C46_5 C 0.509(1) 0.0214(11) 0.5145(11)
C47_5 C 0.4947(12) 0.0740(9) 0.5086(7)
C48_5 C 0.5138(10) 0.1159(11) 0.5366(9)
N14_4 N 0.5483(9) 0.1054(8) 0.5718(8)
C49_5 C 0.543(2) 0.057(2) 0.591(2)
C50_5 C 0.527(2) 0.009(2) 0.566(2)
Cu13_4 Cu 0.57014(13) 0.16700(12) 0.61801(12)
H35_5 H 0.472571 0.0312561 0.418704
H37_5 H 0.551357 0.0531868 0.628481
H46_5 H 0.466709 0.0838317 0.480345
H47_5 H 0.500766 0.157129 0.52995
W2_9 W 0.5000 0.7500 0.3750
I1_6 I 0.33892(7) 0.86589(7) 0.34824(7)
Cu9_5 Cu 0.42986(13) 0.83300(12) 0.38199(12)
S5_6 S 0.4269(3) 0.7511(3) 0.4209(2)
N13_5 N 0.4517(9) 0.8946(8) 0.4282(8)
C41_5 C 0.4862(10) 0.8841(11) 0.4634(9)
C42_5 C 0.5053(12) 0.9260(9) 0.4914(7)
C43_5 C 0.491(1) 0.9786(11) 0.4855(11)
C44_5 C 0.473(2) 0.991(2) 0.434(2)
C45_5 C 0.457(2) 0.943(2) 0.409(2)
S6_6 S 0.4989(3) 0.6769(3) 0.3291(2)
S7_6 S 0.5731(3) 0.7489(3) 0.4209(2)
S8_6 S 0.5011(3) 0.8231(3) 0.3291(2)
Cu10_5 Cu 0.41700(12) 0.67986(13) 0.36801(12)
Cu11_5 Cu 0.57014(13) 0.66700(12) 0.38199(12)
I2_6 I 0.38411(7) 0.58892(7) 0.40176(7)
N15_5 N 0.3554(8) 0.7017(9) 0.3218(8)
C51_7 C 0.3659(11) 0.7362(10) 0.2866(9)
C52_7 C 0.3240(9) 0.7553(12) 0.2586(7)
C53_7 C 0.2714(11) 0.741(1) 0.2645(11)
C54_7 C 0.259(2) 0.723(2) 0.316(2)
C55_7 C 0.307(2) 0.707(2) 0.341(2)
C56_7 C 0.2286(11) 0.759(1) 0.2355(11)
C57_7 C 0.1760(9) 0.7447(12) 0.2414(7)
C58_7 C 0.1341(11) 0.7638(10) 0.2134(9)
C59_7 C 0.193(2) 0.793(2) 0.159(2)
C60_7 C 0.241(2) 0.777(2) 0.184(2)
I3_6 I 0.66108(7) 0.63411(7) 0.34824(7)
I4_6 I 0.61589(7) 0.91108(7) 0.40176(7)
N17_5 N 0.5483(9) 0.6054(8) 0.4282(8)
H33_5 H 0.499234 0.842871 0.47005
H34_5 H 0.533291 0.916168 0.519655
H36_7 H 0.407129 0.749234 0.27995
H38_7 H 0.303187 0.698643 0.378481
H39_7 H 0.218744 0.722571 0.331296
H40_7 H 0.0928711 0.750766 0.22005
H41_7 H 0.196813 0.801357 0.121519
H42_5 H 0.448643 0.946813 0.371519
H43_7 H 0.333832 0.783291 0.230345
H44_5 H 0.527429 0.968744 0.581296
H45_7 H 0.166168 0.716709 0.269655
H48_7 H 0.281256 0.777429 0.168704
W2_10 W 0.0000 0.2500 0.8750
S7_7 S 0.0731(3) 0.2489(3) 0.9209(2)
S8_7 S 0.0011(3) 0.3231(3) 0.8291(2)
Cu11_6 Cu 0.07014(13) 0.16700(12) 0.88199(12)
Cu12_5 Cu 0.08300(12) 0.32014(13) 0.86801(12)
I3_7 I 0.16108(7) 0.13411(7) 0.84824(7)
I4_7 I 0.11589(7) 0.41108(7) 0.90176(7)
N17_6 N 0.0483(9) 0.1054(8) 0.9282(8)
N18_5 N 0.1446(8) 0.2983(9) 0.8218(8)
W2_11 W 1.0000 0.2500 0.8750
I1_7 I 0.83892(7) 0.36589(7) 0.84824(7)
S5_7 S 0.9269(3) 0.2511(3) 0.9209(2)
S6_7 S 0.9989(3) 0.1769(3) 0.8291(2)
Cu10_6 Cu 0.91700(12) 0.17986(13) 0.86801(12)
I2_7 I 0.88411(7) 0.08892(7) 0.90176(7)
N15_6 N 0.8554(8) 0.2017(9) 0.8218(8)
C51_8 C 0.8659(11) 0.2362(10) 0.7866(9)
C52_8 C 0.8240(9) 0.2553(12) 0.7586(7)
C53_8 C 0.7714(11) 0.241(1) 0.7645(11)
C54_8 C 0.759(2) 0.223(2) 0.816(2)
C55_8 C 0.807(2) 0.207(2) 0.841(2)
C56_8 C 0.7286(11) 0.259(1) 0.7355(11)
C57_8 C 0.6760(9) 0.2447(12) 0.7414(7)
C58_8 C 0.6341(11) 0.2638(10) 0.7134(9)
N16_4 N 0.6446(8) 0.2983(9) 0.6782(8)
C59_8 C 0.693(2) 0.293(2) 0.659(2)
C60_8 C 0.741(2) 0.277(2) 0.684(2)
Cu14_4 Cu 0.58300(12) 0.32014(13) 0.63199(12)
H36_8 H 0.907129 0.249234 0.77995
H38_8 H 0.803187 0.198643 0.878481
H39_8 H 0.718744 0.222571 0.831296
H40_8 H 0.592871 0.250766 0.72005
H41_8 H 0.696813 0.301357 0.621519
H43_8 H 0.833832 0.283291 0.730345
H45_8 H 0.666168 0.216709 0.769655
H48_8 H 0.781256 0.277429 0.668704
C56_9 C 0.009(1) 0.0214(11) 0.9855(11)
C58_9 C 0.0138(10) 0.1159(11) 0.9634(9)
C59_9 C 0.043(2) 0.057(2) 0.909(2)
C60_9 C 0.027(2) 0.009(2) 0.934(2)
H40_9 H 0.000766218 0.157129 0.97005
H41_9 H 0.0513568 0.0531868 0.871519
C52_9 C 0.0053(12) 0.9260(9) 0.0086(7)
C57_9 C 0.9947(12) 0.0740(9) 0.9914(7)
C51_9 C 0.9862(10) 0.8841(11) 0.0366(9)
C53_9 C 0.991(1) 0.9786(11) 0.0145(11)
C54_9 C 0.973(2) 0.991(2) 0.066(2)
C55_9 C 0.957(2) 0.943(2) 0.091(2)
H36_9 H 0.999234 0.842871 0.0299497
H38_9 H 0.948643 0.946813 0.128481
W2_12 W 0.5000 0.2500 0.6250
I1_8 I 0.61589(7) 0.41108(7) 0.59824(7)
S5_8 S 0.5011(3) 0.3231(3) 0.6709(2)
S6_8 S 0.4269(3) 0.2511(3) 0.5791(2)
S7_8 S 0.4989(3) 0.1769(3) 0.6709(2)
S8_8 S 0.5731(3) 0.2489(3) 0.5791(2)
Cu10_7 Cu 0.42986(13) 0.33300(12) 0.61801(12)
Cu11_7 Cu 0.41700(12) 0.17986(13) 0.63199(12)
I2_8 I 0.33892(7) 0.36589(7) 0.65176(7)
N15_7 N 0.4517(9) 0.3946(8) 0.5718(8)
C51_10 C 0.4862(10) 0.3841(11) 0.5366(9)
C52_10 C 0.5053(12) 0.4260(9) 0.5086(7)
C53_10 C 0.491(1) 0.4786(11) 0.5145(11)
C54_10 C 0.473(2) 0.491(2) 0.566(2)
C55_10 C 0.457(2) 0.443(2) 0.591(2)
C56_10 C 0.509(1) 0.5214(11) 0.4855(11)
C57_10 C 0.4947(12) 0.5740(9) 0.4914(7)
C58_10 C 0.5138(10) 0.6159(11) 0.4634(9)
C59_10 C 0.543(2) 0.557(2) 0.409(2)
C60_10 C 0.527(2) 0.509(2) 0.434(2)
I3_8 I 0.38411(7) 0.08892(7) 0.59824(7)
I4_8 I 0.66108(7) 0.13411(7) 0.65176(7)
N17_7 N 0.3554(8) 0.2017(9) 0.6782(8)
H36_10 H 0.499234 0.342871 0.52995
H38_10 H 0.448643 0.446813 0.628481
H39_9 H 0.472571 0.531256 0.581296
H40_10 H 0.500766 0.657129 0.47005
H41_10 H 0.551357 0.553187 0.371519
H43_9 H 0.533291 0.416168 0.480345
H45_9 H 0.466709 0.583832 0.519655
H48_9 H 0.527429 0.468744 0.418704
C51_11 C 0.1341(11) 0.2638(10) 0.7866(9)
C52_11 C 0.1760(9) 0.2447(12) 0.7586(7)
C53_11 C 0.2286(11) 0.259(1) 0.7645(11)
C54_11 C 0.241(2) 0.277(2) 0.816(2)
C55_11 C 0.193(2) 0.293(2) 0.841(2)
C56_11 C 0.2714(11) 0.241(1) 0.7355(11)
C57_11 C 0.3240(9) 0.2553(12) 0.7414(7)
C58_11 C 0.3659(11) 0.2362(10) 0.7134(9)
C59_11 C 0.307(2) 0.207(2) 0.659(2)
C60_11 C 0.259(2) 0.223(2) 0.684(2)
H36_11 H 0.0928711 0.250766 0.77995
H38_11 H 0.196813 0.301357 0.878481
H39_10 H 0.281256 0.277429 0.831296
H40_11 H 0.407129 0.249234 0.72005
H41_11 H 0.303187 0.198643 0.621519
H43_10 H 0.166168 0.216709 0.730345
H45_10 H 0.333832 0.283291 0.769655
H48_10 H 0.218744 0.222571 0.668704
H43_11 H 0.033291 0.916168 0.980345
H48_11 H 0.0274293 0.968744 0.918704
H39_11 H 0.972571 0.0312561 0.0812957
H45_11 H 0.966709 0.0838317 0.019655
loop_
_geom_bond_atom_site_label_1
_geom_bond_atom_site_label_2
_geom_bond_site_symmetry_1
_geom_bond_site_symmetry_2
N1 Cu1 1_555 1_555
C1 N1 1_555 1_555
C2 C1 1_555 1_555
C3 C2 1_555 1_555
C4 C3 1_555 1_555
C5 N1 1_555 1_555
H1 C1 1_555 1_555
H3 C4 1_555 1_555
H4 C5 1_555 1_555
S2 W1 1_555 1_555
S3 W1 1_555 1_555
Cu4 S2 1_555 1_555
N5 Cu1 1_555 1_555
C21 N5 1_555 1_555
C22 C21 1_555 1_555
C23 C22 1_555 1_555
C24 C23 1_555 1_555
C25 N5 1_555 1_555
H17 C21 1_555 1_555
H18 C22 1_555 1_555
H19 C24 1_555 1_555
H20 C25 1_555 1_555
C26 C23 1_555 1_555
C27 C26 1_555 1_555
C28 C27 1_555 1_555
N6 C28 1_555 1_555
C29 N6 1_555 1_555
C30 C26 1_555 1_555
H21 C30 1_555 1_555
H22 C29 1_555 1_555
H23 C28 1_555 1_555
H24 C27 1_555 1_555
N11 Cu4 1_555 1_555
N12 Cu4 1_555 1_555
Cu7 N6 1_555 1_555
Cu1 S2 1_555 1_555
C4 C5 1_555 1_555
S3 Cu4 1_555 1_555
C24 C25 1_555 1_555
C29 C30 1_555 1_555
C12 C11 1_555 1_555
C13 C12 1_555 1_555
N3 C13 1_555 1_555
C14 N3 1_555 1_555
C15 C11 1_555 1_555
H9 C15 1_555 1_555
H10 C14 1_555 1_555
H11 C13 1_555 1_555
Cu5 N3 1_555 1_555
C14 C15 1_555 1_555
W1_2 S1 1_555 1_555
Cu2 S1 1_555 1_555
N2 Cu2 1_555 1_555
C6 N2 1_555 1_555
C7 C6 1_555 1_555
C8 C7 1_555 1_555
C9 C8 1_555 1_555
C10 N2 1_555 1_555
H5 C6 1_555 1_555
H6 C7 1_555 1_555
H7 C9 1_555 1_555
H8 C10 1_555 1_555
C16 C8 1_555 1_555
C17 C16 1_555 1_555
C18 C17 1_555 1_555
N4 C18 1_555 1_555
C19 N4 1_555 1_555
C20 C16 1_555 1_555
H13 C20 1_555 1_555
H14 C19 1_555 1_555
H15 C18 1_555 1_555
H16 C17 1_555 1_555
S4 W1_2 1_555 1_555
N7 Cu2 1_555 1_555
C31 N7 1_555 1_555
C32 C31 1_555 1_555
C33 C32 1_555 1_555
C34 C33 1_555 1_555
C35 N7 1_555 1_555
H25 C31 1_555 1_555
H26 C32 1_555 1_555
H28 C35 1_555 1_555
Cu6 N4 1_555 1_555
N9 Cu3 1_555 1_555
N10 Cu3 1_555 1_555
Cu2 S4 1_555 1_555
C9 C10 1_555 1_555
C19 C20 1_555 1_555
S4 Cu3 1_555 1_555
C34 C35 1_555 1_555
C37 C36 1_555 1_555
C38 C37 1_555 1_555
N8 C38 1_555 1_555
C39 N8 1_555 1_555
C40 C36 1_555 1_555
H30 C39 1_555 1_555
H31 C38 1_555 1_555
H32 C37 1_555 1_555
Cu8 N8 1_555 1_555
C39 C40 1_555 1_555
C17_2 C16_2 1_555 1_555
C18_2 C17_2 1_555 1_555
N4_2 C18_2 1_555 1_555
C19_2 N4_2 1_555 1_555
C20_2 C16_2 1_555 1_555
H13_2 C20_2 1_555 1_555
H14_2 C19_2 1_555 1_555
H15_2 C18_2 1_555 1_555
C27_2 C26_2 1_555 1_555
C28_2 C27_2 1_555 1_555
N6_2 C28_2 1_555 1_555
C29_2 N6_2 1_555 1_555
C30_2 C26_2 1_555 1_555
H22_2 C29_2 1_555 1_555
H23_2 C28_2 1_555 1_555
H24_2 C27_2 1_555 1_555
Cu6_2 N4_2 1_555 1_555
Cu7_2 N6_2 1_555 1_555
C19_2 C20_2 1_555 1_555
C29_2 C30_2 1_555 1_555
W1_3 S1_2 1_555 1_555
Cu1_2 S1_2 1_555 1_555
Cu2_2 S1_2 1_555 1_555
N1_2 Cu1_2 1_555 1_555
N2_2 Cu2_2 1_555 1_555
C1_2 N1_2 1_555 1_555
C2_2 C1_2 1_555 1_555
C3_2 C2_2 1_555 1_555
C4_2 C3_2 1_555 1_555
C5_2 N1_2 1_555 1_555
C6_2 N2_2 1_555 1_555
C7_2 C6_2 1_555 1_555
C8_2 C7_2 1_555 1_555
C9_2 C8_2 1_555 1_555
C10_2 N2_2 1_555 1_555
H1_2 C1_2 1_555 1_555
H2_2 C2_2 1_555 1_555
H3_2 C4_2 1_555 1_555
H4_2 C5_2 1_555 1_555
H5_2 C6_2 1_555 1_555
H7_2 C9_2 1_555 1_555
H8_2 C10_2 1_555 1_555
C11_2 C3_2 1_555 1_555
C12_2 C11_2 1_555 1_555
C13_2 C12_2 1_555 1_555
N3_2 C13_2 1_555 1_555
C14_2 N3_2 1_555 1_555
C15_2 C11_2 1_555 1_555
H9_2 C15_2 1_555 1_555
H10_2 C14_2 1_555 1_555
H11_2 C13_2 1_555 1_555
H12_2 C12_2 1_555 1_555
S2_2 W1_3 1_555 1_555
S3_2 W1_3 1_555 1_555
S4_2 W1_3 1_555 1_555
Cu3_2 S3_2 1_555 1_555
Cu4_2 S2_2 1_555 1_555
N5_2 Cu1_2 1_555 1_555
C21_2 N5_2 1_555 1_555
C22_2 C21_2 1_555 1_555
C23_2 C22_2 1_555 1_555
C24_2 C23_2 1_555 1_555
C25_2 N5_2 1_555 1_555
H17_2 C21_2 1_555 1_555
H18_2 C22_2 1_555 1_555
H20_2 C25_2 1_555 1_555
N7_2 Cu2_2 1_555 1_555
C31_2 N7_2 1_555 1_555
C32_2 C31_2 1_555 1_555
C33_2 C32_2 1_555 1_555
C34_2 C33_2 1_555 1_555
C35_2 N7_2 1_555 1_555
H25_2 C31_2 1_555 1_555
H26_2 C32_2 1_555 1_555
H27_2 C34_2 1_555 1_555
H28_2 C35_2 1_555 1_555
C36_2 C33_2 1_555 1_555
C37_2 C36_2 1_555 1_555
C38_2 C37_2 1_555 1_555
N8_2 C38_2 1_555 1_555
C39_2 N8_2 1_555 1_555
C40_2 C36_2 1_555 1_555
H29_2 C40_2 1_555 1_555
H30_2 C39_2 1_555 1_555
H31_2 C38_2 1_555 1_555
H32_2 C37_2 1_555 1_555
Cu5_2 N3_2 1_555 1_555
N9_2 Cu3_2 1_555 1_555
N10_2 Cu3_2 1_555 1_555
N11_2 Cu4_2 1_555 1_555
N12_2 Cu4_2 1_555 1_555
Cu8_2 N8_2 1_555 1_555
Cu1_2 S2_2 1_555 1_555
Cu2_2 S4_2 1_555 1_555
C4_2 C5_2 1_555 1_555
C9_2 C10_2 1_555 1_555
C14_2 C15_2 1_555 1_555
S3_2 Cu4_2 1_555 1_555
S4_2 Cu3_2 1_555 1_555
C24_2 C25_2 1_555 1_555
C34_2 C35_2 1_555 1_555
C39_2 C40_2 1_555 1_555
S2_3 W1_4 1_555 1_555
S3_3 W1_4 1_555 1_555
Cu7 S3_3 1_555 1_555
Cu8_2 S2_3 1_555 1_555
N10_3 Cu7 1_555 1_555
N11_3 Cu8_2 1_555 1_555
S3_3 Cu8_2 1_555 1_555
C12_3 C11_3 1_555 1_555
C13_3 C12_3 1_555 1_555
N10 C13_3 1_555 1_555
C14_3 N10 1_555 1_555
C15_3 C11_3 1_555 1_555
H10_3 C14_3 1_555 1_555
H11_3 C13_3 1_555 1_555
H12_3 C12_3 1_555 1_555
C14_3 C15_3 1_555 1_555
W1_5 S1_3 1_555 1_555
Cu5_2 S1_3 1_555 1_555
Cu6 S1_3 1_555 1_555
N1_3 Cu5_2 1_555 1_555
N2_3 Cu6 1_555 1_555
C1_3 N1_3 1_555 1_555
C2_3 C1_3 1_555 1_555
C3_3 C2_3 1_555 1_555
C4_3 C3_3 1_555 1_555
C5_3 N1_3 1_555 1_555
C6_3 N2_3 1_555 1_555
C7_3 C6_3 1_555 1_555
C8_3 C7_3 1_555 1_555
C9_3 C8_3 1_555 1_555
C10_3 N2_3 1_555 1_555
H1_3 C1_3 1_555 1_555
H2_3 C2_3 1_555 1_555
H4_3 C5_3 1_555 1_555
H5_3 C6_3 1_555 1_555
H6_3 C7_3 1_555 1_555
H7_3 C9_3 1_555 1_555
H8_3 C10_3 1_555 1_555
C16_3 C8_3 1_555 1_555
C17_3 C16_3 1_555 1_555
C18_3 C17_3 1_555 1_555
N11_2 C18_3 1_555 1_555
C19_3 N11_2 1_555 1_555
C20_3 C16_3 1_555 1_555
H13_3 C20_3 1_555 1_555
H14_3 C19_3 1_555 1_555
H15_3 C18_3 1_555 1_555
H16_3 C17_3 1_555 1_555
S4_3 W1_5 1_555 1_555
Cu6 S4_3 1_555 1_555
C4_3 C5_3 1_555 1_555
C9_3 C10_3 1_555 1_555
C19_3 C20_3 1_555 1_555
C27_3 C26_3 1_555 1_555
C28_3 C27_3 1_555 1_555
N9 C28_3 1_555 1_555
C29_3 N9 1_555 1_555
C30_3 C26_3 1_555 1_555
H21_3 C30_3 1_555 1_555
H22_3 C29_3 1_555 1_555
H23_3 C28_3 1_555 1_555
C29_3 C30_3 1_555 1_555
W1_6 S1_4 1_555 1_555
Cu7_2 S1_4 1_555 1_555
Cu8 S1_4 1_555 1_555
S2_4 W1_6 1_555 1_555
S3_4 W1_6 1_555 1_555
S4_4 W1_6 1_555 1_555
Cu5 S3_4 1_555 1_555
Cu6_2 S2_4 1_555 1_555
N5_3 Cu7_2 1_555 1_555
C21_3 N5_3 1_555 1_555
C22_3 C21_3 1_555 1_555
C23_3 C22_3 1_555 1_555
C24_3 C23_3 1_555 1_555
C25_3 N5_3 1_555 1_555
H17_3 C21_3 1_555 1_555
H19_3 C24_3 1_555 1_555
H20_3 C25_3 1_555 1_555
N7_3 Cu8 1_555 1_555
C31_3 N7_3 1_555 1_555
C32_3 C31_3 1_555 1_555
C33_3 C32_3 1_555 1_555
C34_3 C33_3 1_555 1_555
C35_3 N7_3 1_555 1_555
H25_3 C31_3 1_555 1_555
H26_3 C32_3 1_555 1_555
H27_3 C34_3 1_555 1_555
H28_3 C35_3 1_555 1_555
C36_3 C33_3 1_555 1_555
C37_3 C36_3 1_555 1_555
C38_3 C37_3 1_555 1_555
N12_2 C38_3 1_555 1_555
C39_3 N12_2 1_555 1_555
C40_3 C36_3 1_555 1_555
H29_3 C40_3 1_555 1_555
H30_3 C39_3 1_555 1_555
H31_3 C38_3 1_555 1_555
H32_3 C37_3 1_555 1_555
N9_3 Cu5 1_555 1_555
N12_3 Cu6_2 1_555 1_555
Cu7_2 S2_4 1_555 1_555
Cu8 S4_4 1_555 1_555
S3_4 Cu6_2 1_555 1_555
S4_4 Cu5 1_555 1_555
C24_3 C25_3 1_555 1_555
C34_3 C35_3 1_555 1_555
C39_3 C40_3 1_555 1_555
C6_4 N11 1_555 1_555
C7_4 C6_4 1_555 1_555
C8_4 C7_4 1_555 1_555
C9_4 C8_4 1_555 1_555
C10_4 N11 1_555 1_555
H5_4 C6_4 1_555 1_555
H6_4 C7_4 1_555 1_555
H8_4 C10_4 1_555 1_555
C31_4 N12 1_555 1_555
C32_4 C31_4 1_555 1_555
C33_4 C32_4 1_555 1_555
C34_4 C33_4 1_555 1_555
C35_4 N12 1_555 1_555
H25_4 C31_4 1_555 1_555
H27_4 C34_4 1_555 1_555
H28_4 C35_4 1_555 1_555
C9_4 C10_4 1_555 1_555
C34_4 C35_4 1_555 1_555
C17_4 C16_4 1_555 1_555
C18_4 C17_4 1_555 1_555
N12_3 C18_4 1_555 1_555
C19_4 N12_3 1_555 1_555
C20_4 C16_4 1_555 1_555
H14_4 C19_4 1_555 1_555
H15_4 C18_4 1_555 1_555
H16_4 C17_4 1_555 1_555
C19_4 C20_4 1_555 1_555
C37_4 C36_4 1_555 1_555
C38_4 C37_4 1_555 1_555
N11_3 C38_4 1_555 1_555
C39_4 N11_3 1_555 1_555
C40_4 C36_4 1_555 1_555
H29_4 C40_4 1_555 1_555
H30_4 C39_4 1_555 1_555
H31_4 C38_4 1_555 1_555
C39_4 C40_4 1_555 1_555
C1_4 N9_3 1_555 1_555
C2_4 C1_4 1_555 1_555
C3_4 C2_4 1_555 1_555
C4_4 C3_4 1_555 1_555
C5_4 N9_3 1_555 1_555
H1_4 C1_4 1_555 1_555
H2_4 C2_4 1_555 1_555
H3_4 C4_4 1_555 1_555
H4_4 C5_4 1_555 1_555
C11_4 C3_4 1_555 1_555
C12_4 C11_4 1_555 1_555
C13_4 C12_4 1_555 1_555
N10_2 C13_4 1_555 1_555
C14_4 N10_2 1_555 1_555
C15_4 C11_4 1_555 1_555
H9_4 C15_4 1_555 1_555
H10_4 C14_4 1_555 1_555
H11_4 C13_4 1_555 1_555
H12_4 C12_4 1_555 1_555
C4_4 C5_4 1_555 1_555
C14_4 C15_4 1_555 1_555
C1_5 N9_2 1_555 1_555
C2_5 C1_5 1_555 1_555
C3_5 C2_5 1_555 1_555
C4_5 C3_5 1_555 1_555
C5_5 N9_2 1_555 1_555
H1_5 C1_5 1_555 1_555
H2_5 C2_5 1_555 1_555
H3_5 C4_5 1_555 1_555
H4_5 C5_5 1_555 1_555
C11_5 C3_5 1_555 1_555
C12_5 C11_5 1_555 1_555
C13_5 C12_5 1_555 1_555
N10_3 C13_5 1_555 1_555
C14_5 N10_3 1_555 1_555
C15_5 C11_5 1_555 1_555
H9_5 C15_5 1_555 1_555
H10_5 C14_5 1_555 1_555
H11_5 C13_5 1_555 1_555
H12_5 C12_5 1_555 1_555
C4_5 C5_5 1_555 1_555
C14_5 C15_5 1_555 1_555
C37_5 C36_5 1_555 1_555
C38_5 C37_5 1_555 1_555
N8_3 C38_5 1_555 1_555
C39_5 N8_3 1_555 1_555
C40_5 C36_5 1_555 1_555
H30_5 C39_5 1_555 1_555
H31_5 C38_5 1_555 1_555
H32_5 C37_5 1_555 1_555
Cu8_3 N8_3 1_555 1_555
C39_5 C40_5 1_555 1_555
W1_7 S1_5 1_555 1_555
Cu2_3 S1_5 1_555 1_555
N2_4 Cu2_3 1_555 1_555
C6_5 N2_4 1_555 1_555
C7_5 C6_5 1_555 1_555
C8_5 C7_5 1_555 1_555
C9_5 C8_5 1_555 1_555
C10_5 N2_4 1_555 1_555
H5_5 C6_5 1_555 1_555
H6_5 C7_5 1_555 1_555
H7_5 C9_5 1_555 1_555
H8_5 C10_5 1_555 1_555
C16_5 C8_5 1_555 1_555
C17_5 C16_5 1_555 1_555
C18_5 C17_5 1_555 1_555
N4_3 C18_5 1_555 1_555
C19_5 N4_3 1_555 1_555
C20_5 C16_5 1_555 1_555
H13_5 C20_5 1_555 1_555
H14_5 C19_5 1_555 1_555
H15_5 C18_5 1_555 1_555
H16_5 C17_5 1_555 1_555
S4_5 W1_7 1_555 1_555
N7_4 Cu2_3 1_555 1_555
C31_5 N7_4 1_555 1_555
C32_5 C31_5 1_555 1_555
C33_5 C32_5 1_555 1_555
C34_5 C33_5 1_555 1_555
C35_5 N7_4 1_555 1_555
H25_5 C31_5 1_555 1_555
H26_5 C32_5 1_555 1_555
H28_5 C35_5 1_555 1_555
Cu6_3 N4_3 1_555 1_555
N9_4 Cu3_3 1_555 1_555
N10_4 Cu3_3 1_555 1_555
Cu2_3 S4_5 1_555 1_555
C9_5 C10_5 1_555 1_555
C19_5 C20_5 1_555 1_555
S4_5 Cu3_3 1_555 1_555
C34_5 C35_5 1_555 1_555
C12_6 C11_6 1_555 1_555
C13_6 C12_6 1_555 1_555
N3_3 C13_6 1_555 1_555
C14_6 N3_3 1_555 1_555
C15_6 C11_6 1_555 1_555
H9_6 C15_6 1_555 1_555
H10_6 C14_6 1_555 1_555
H11_6 C13_6 1_555 1_555
Cu5_3 N3_3 1_555 1_555
C14_6 C15_6 1_555 1_555
N1_4 Cu1_3 1_555 1_555
C1_6 N1_4 1_555 1_555
C2_6 C1_6 1_555 1_555
C3_6 C2_6 1_555 1_555
C4_6 C3_6 1_555 1_555
C5_6 N1_4 1_555 1_555
H1_6 C1_6 1_555 1_555
H3_6 C4_6 1_555 1_555
H4_6 C5_6 1_555 1_555
S2_5 W1_8 1_555 1_555
S3_5 W1_8 1_555 1_555
Cu4_3 S2_5 1_555 1_555
N5_4 Cu1_3 1_555 1_555
C21_4 N5_4 1_555 1_555
C22_4 C21_4 1_555 1_555
C23_4 C22_4 1_555 1_555
C24_4 C23_4 1_555 1_555
C25_4 N5_4 1_555 1_555
H17_4 C21_4 1_555 1_555
H18_4 C22_4 1_555 1_555
H19_4 C24_4 1_555 1_555
H20_4 C25_4 1_555 1_555
C26_4 C23_4 1_555 1_555
C27_4 C26_4 1_555 1_555
C28_4 C27_4 1_555 1_555
N6_3 C28_4 1_555 1_555
C29_4 N6_3 1_555 1_555
C30_4 C26_4 1_555 1_555
H21_4 C30_4 1_555 1_555
H22_4 C29_4 1_555 1_555
H23_4 C28_4 1_555 1_555
H24_4 C27_4 1_555 1_555
N11_4 Cu4_3 1_555 1_555
N12_4 Cu4_3 1_555 1_555
Cu7_3 N6_3 1_555 1_555
Cu1_3 S2_5 1_555 1_555
C4_6 C5_6 1_555 1_555
S3_5 Cu4_3 1_555 1_555
C24_4 C25_4 1_555 1_555
C29_4 C30_4 1_555 1_555
W1_9 S1_6 1_555 1_555
Cu1_4 S1_6 1_555 1_555
Cu2_4 S1_6 1_555 1_555
N1_5 Cu1_4 1_555 1_555
N2_5 Cu2_4 1_555 1_555
C1_7 N1_5 1_555 1_555
C2_7 C1_7 1_555 1_555
C3_7 C2_7 1_555 1_555
C4_7 C3_7 1_555 1_555
C5_7 N1_5 1_555 1_555
C6_6 N2_5 1_555 1_555
C7_6 C6_6 1_555 1_555
C8_6 C7_6 1_555 1_555
C9_6 C8_6 1_555 1_555
C10_6 N2_5 1_555 1_555
H1_7 C1_7 1_555 1_555
H2_7 C2_7 1_555 1_555
H3_7 C4_7 1_555 1_555
H4_7 C5_7 1_555 1_555
H5_6 C6_6 1_555 1_555
H7_6 C9_6 1_555 1_555
H8_6 C10_6 1_555 1_555
C11_7 C3_7 1_555 1_555
C12_7 C11_7 1_555 1_555
C13_7 C12_7 1_555 1_555
N3_4 C13_7 1_555 1_555
C14_7 N3_4 1_555 1_555
C15_7 C11_7 1_555 1_555
H9_7 C15_7 1_555 1_555
H10_7 C14_7 1_555 1_555
H11_7 C13_7 1_555 1_555
H12_7 C12_7 1_555 1_555
S2_6 W1_9 1_555 1_555
S3_6 W1_9 1_555 1_555
S4_6 W1_9 1_555 1_555
Cu3_4 S3_6 1_555 1_555
Cu4_4 S2_6 1_555 1_555
N5_5 Cu1_4 1_555 1_555
C21_5 N5_5 1_555 1_555
C22_5 C21_5 1_555 1_555
C23_5 C22_5 1_555 1_555
C24_5 C23_5 1_555 1_555
C25_5 N5_5 1_555 1_555
H17_5 C21_5 1_555 1_555
H18_5 C22_5 1_555 1_555
H20_5 C25_5 1_555 1_555
N7_5 Cu2_4 1_555 1_555
C31_6 N7_5 1_555 1_555
C32_6 C31_6 1_555 1_555
C33_6 C32_6 1_555 1_555
C34_6 C33_6 1_555 1_555
C35_6 N7_5 1_555 1_555
H25_6 C31_6 1_555 1_555
H26_6 C32_6 1_555 1_555
H27_6 C34_6 1_555 1_555
H28_6 C35_6 1_555 1_555
C36_6 C33_6 1_555 1_555
C37_6 C36_6 1_555 1_555
C38_6 C37_6 1_555 1_555
N8_4 C38_6 1_555 1_555
C39_6 N8_4 1_555 1_555
C40_6 C36_6 1_555 1_555
H29_6 C40_6 1_555 1_555
H30_6 C39_6 1_555 1_555
H31_6 C38_6 1_555 1_555
H32_6 C37_6 1_555 1_555
Cu5_4 N3_4 1_555 1_555
N9_5 Cu3_4 1_555 1_555
N10_5 Cu3_4 1_555 1_555
N11_5 Cu4_4 1_555 1_555
N12_5 Cu4_4 1_555 1_555
Cu8_4 N8_4 1_555 1_555
Cu1_4 S2_6 1_555 1_555
Cu2_4 S4_6 1_555 1_555
C4_7 C5_7 1_555 1_555
C9_6 C10_6 1_555 1_555
C14_7 C15_7 1_555 1_555
S3_6 Cu4_4 1_555 1_555
S4_6 Cu3_4 1_555 1_555
C24_5 C25_5 1_555 1_555
C34_6 C35_6 1_555 1_555
C39_6 C40_6 1_555 1_555
C17_6 C16_6 1_555 1_555
C18_6 C17_6 1_555 1_555
N4_4 C18_6 1_555 1_555
C19_6 N4_4 1_555 1_555
C20_6 C16_6 1_555 1_555
H13_6 C20_6 1_555 1_555
H14_6 C19_6 1_555 1_555
H15_6 C18_6 1_555 1_555
C27_5 C26_5 1_555 1_555
C28_5 C27_5 1_555 1_555
N6_4 C28_5 1_555 1_555
C29_5 N6_4 1_555 1_555
C30_5 C26_5 1_555 1_555
H22_5 C29_5 1_555 1_555
H23_5 C28_5 1_555 1_555
H24_5 C27_5 1_555 1_555
Cu6_4 N4_4 1_555 1_555
Cu7_4 N6_4 1_555 1_555
C19_6 C20_6 1_555 1_555
C29_5 C30_5 1_555 1_555
W1_10 S1_7 1_555 1_555
Cu5_4 S1_7 1_555 1_555
Cu6_3 S1_7 1_555 1_555
N1_6 Cu5_4 1_555 1_555
N2_6 Cu6_3 1_555 1_555
C1_8 N1_6 1_555 1_555
C2_8 C1_8 1_555 1_555
C3_8 C2_8 1_555 1_555
C4_8 C3_8 1_555 1_555
C5_8 N1_6 1_555 1_555
C6_7 N2_6 1_555 1_555
C7_7 C6_7 1_555 1_555
C8_7 C7_7 1_555 1_555
C9_7 C8_7 1_555 1_555
C10_7 N2_6 1_555 1_555
H1_8 C1_8 1_555 1_555
H2_8 C2_8 1_555 1_555
H4_8 C5_8 1_555 1_555
H5_7 C6_7 1_555 1_555
H6_7 C7_7 1_555 1_555
H7_7 C9_7 1_555 1_555
H8_7 C10_7 1_555 1_555
C16_7 C8_7 1_555 1_555
C17_7 C16_7 1_555 1_555
C18_7 C17_7 1_555 1_555
N11_5 C18_7 1_555 1_555
C19_7 N11_5 1_555 1_555
C20_7 C16_7 1_555 1_555
H13_7 C20_7 1_555 1_555
H14_7 C19_7 1_555 1_555
H15_7 C18_7 1_555 1_555
H16_7 C17_7 1_555 1_555
S4_7 W1_10 1_555 1_555
Cu6_3 S4_7 1_555 1_555
C4_8 C5_8 1_555 1_555
C9_7 C10_7 1_555 1_555
C19_7 C20_7 1_555 1_555
C12_8 C11_8 1_555 1_555
C13_8 C12_8 1_555 1_555
N10_4 C13_8 1_555 1_555
C14_8 N10_4 1_555 1_555
C15_8 C11_8 1_555 1_555
H10_8 C14_8 1_555 1_555
H11_8 C13_8 1_555 1_555
H12_8 C12_8 1_555 1_555
C14_8 C15_8 1_555 1_555
S2_7 W1_11 1_555 1_555
S3_7 W1_11 1_555 1_555
Cu7_3 S3_7 1_555 1_555
Cu8_4 S2_7 1_555 1_555
N10_6 Cu7_3 1_555 1_555
N11_6 Cu8_4 1_555 1_555
S3_7 Cu8_4 1_555 1_555
W1_12 S1_8 1_555 1_555
Cu7_4 S1_8 1_555 1_555
Cu8_3 S1_8 1_555 1_555
S2_8 W1_12 1_555 1_555
S3_8 W1_12 1_555 1_555
S4_8 W1_12 1_555 1_555
Cu5_3 S3_8 1_555 1_555
Cu6_4 S2_8 1_555 1_555
N5_6 Cu7_4 1_555 1_555
C21_6 N5_6 1_555 1_555
C22_6 C21_6 1_555 1_555
C23_6 C22_6 1_555 1_555
C24_6 C23_6 1_555 1_555
C25_6 N5_6 1_555 1_555
H17_6 C21_6 1_555 1_555
H19_6 C24_6 1_555 1_555
H20_6 C25_6 1_555 1_555
N7_6 Cu8_3 1_555 1_555
C31_7 N7_6 1_555 1_555
C32_7 C31_7 1_555 1_555
C33_7 C32_7 1_555 1_555
C34_7 C33_7 1_555 1_555
C35_7 N7_6 1_555 1_555
H25_7 C31_7 1_555 1_555
H26_7 C32_7 1_555 1_555
H27_7 C34_7 1_555 1_555
H28_7 C35_7 1_555 1_555
C36_7 C33_7 1_555 1_555
C37_7 C36_7 1_555 1_555
C38_7 C37_7 1_555 1_555
N12_5 C38_7 1_555 1_555
C39_7 N12_5 1_555 1_555
C40_7 C36_7 1_555 1_555
H29_7 C40_7 1_555 1_555
H30_7 C39_7 1_555 1_555
H31_7 C38_7 1_555 1_555
H32_7 C37_7 1_555 1_555
N9_6 Cu5_3 1_555 1_555
N12_6 Cu6_4 1_555 1_555
Cu7_4 S2_8 1_555 1_555
Cu8_3 S4_8 1_555 1_555
S3_8 Cu6_4 1_555 1_555
S4_8 Cu5_3 1_555 1_555
C24_6 C25_6 1_555 1_555
C34_7 C35_7 1_555 1_555
C39_7 C40_7 1_555 1_555
C27_6 C26_6 1_555 1_555
C28_6 C27_6 1_555 1_555
N9_4 C28_6 1_555 1_555
C29_6 N9_4 1_555 1_555
C30_6 C26_6 1_555 1_555
H21_6 C30_6 1_555 1_555
H22_6 C29_6 1_555 1_555
H23_6 C28_6 1_555 1_555
C29_6 C30_6 1_555 1_555
C37_8 C36_8 1_555 1_555
C38_8 C37_8 1_555 1_555
N11_6 C38_8 1_555 1_555
C39_8 N11_6 1_555 1_555
C40_8 C36_8 1_555 1_555
H29_8 C40_8 1_555 1_555
H30_8 C39_8 1_555 1_555
H31_8 C38_8 1_555 1_555
C39_8 C40_8 1_555 1_555
C17_8 C16_8 1_555 1_555
C18_8 C17_8 1_555 1_555
N12_6 C18_8 1_555 1_555
C19_8 N12_6 1_555 1_555
C20_8 C16_8 1_555 1_555
H14_8 C19_8 1_555 1_555
H15_8 C18_8 1_555 1_555
H16_8 C17_8 1_555 1_555
C19_8 C20_8 1_555 1_555
C6_8 N11_4 1_555 1_555
C7_8 C6_8 1_555 1_555
C8_8 C7_8 1_555 1_555
C9_8 C8_8 1_555 1_555
C10_8 N11_4 1_555 1_555
H5_8 C6_8 1_555 1_555
H6_8 C7_8 1_555 1_555
H8_8 C10_8 1_555 1_555
C31_8 N12_4 1_555 1_555
C32_8 C31_8 1_555 1_555
C33_8 C32_8 1_555 1_555
C34_8 C33_8 1_555 1_555
C35_8 N12_4 1_555 1_555
H25_8 C31_8 1_555 1_555
H27_8 C34_8 1_555 1_555
H28_8 C35_8 1_555 1_555
C9_8 C10_8 1_555 1_555
C34_8 C35_8 1_555 1_555
C1_9 N9_6 1_555 1_555
C2_9 C1_9 1_555 1_555
C3_9 C2_9 1_555 1_555
C4_9 C3_9 1_555 1_555
C5_9 N9_6 1_555 1_555
H1_9 C1_9 1_555 1_555
H2_9 C2_9 1_555 1_555
H3_9 C4_9 1_555 1_555
H4_9 C5_9 1_555 1_555
C11_9 C3_9 1_555 1_555
C12_9 C11_9 1_555 1_555
C13_9 C12_9 1_555 1_555
N10_5 C13_9 1_555 1_555
C14_9 N10_5 1_555 1_555
C15_9 C11_9 1_555 1_555
H9_9 C15_9 1_555 1_555
H10_9 C14_9 1_555 1_555
H11_9 C13_9 1_555 1_555
H12_9 C12_9 1_555 1_555
C4_9 C5_9 1_555 1_555
C14_9 C15_9 1_555 1_555
C1_10 N9_5 1_555 1_555
C2_10 C1_10 1_555 1_555
C3_10 C2_10 1_555 1_555
C4_10 C3_10 1_555 1_555
C5_10 N9_5 1_555 1_555
H1_10 C1_10 1_555 1_555
H2_10 C2_10 1_555 1_555
H3_10 C4_10 1_555 1_555
H4_10 C5_10 1_555 1_555
C11_10 C3_10 1_555 1_555
C12_10 C11_10 1_555 1_555
C13_10 C12_10 1_555 1_555
N10_6 C13_10 1_555 1_555
C14_10 N10_6 1_555 1_555
C15_10 C11_10 1_555 1_555
H9_10 C15_10 1_555 1_555
H10_10 C14_10 1_555 1_555
H11_10 C13_10 1_555 1_555
H12_10 C12_10 1_555 1_555
C4_10 C5_10 1_555 1_555
C14_10 C15_10 1_555 1_555
W2 S5 1_555 1_555
I1 Cu9 1_555 1_555
Cu9 S5 1_555 1_555
S5 Cu10 1_555 1_555
N13 Cu9 1_555 1_555
C41 N13 1_555 1_555
C42 C41 1_555 1_555
C43 C42 1_555 1_555
C44 C43 1_555 1_555
C45 N13 1_555 1_555
S6 W2 1_555 1_555
S7 W2 1_555 1_555
S8 W2 1_555 1_555
Cu10 S6 1_555 1_555
Cu11 S6 1_555 1_555
Cu12 S7 1_555 1_555
I2 Cu10 1_555 1_555
N15 Cu10 1_555 1_555
C51 N15 1_555 1_555
C52 C51 1_555 1_555
C53 C52 1_555 1_555
C54 C53 1_555 1_555
C55 N15 1_555 1_555
C56 C53 1_555 1_555
C57 C56 1_555 1_555
C58 C57 1_555 1_555
N16 C58 1_555 1_555
C59 N16 1_555 1_555
C60 C56 1_555 1_555
I3 Cu11 1_555 1_555
I4 Cu12 1_555 1_555
N17 Cu11 1_555 1_555
N18 Cu12 1_555 1_555
Cu14 N16 1_555 1_555
Cu9 S8 1_555 1_555
C44 C45 1_555 1_555
S7 Cu11 1_555 1_555
S8 Cu12 1_555 1_555
C54 C55 1_555 1_555
C59 C60 1_555 1_555
C41 H33 1_555 1_555
C51 H36 1_555 1_555
C55 H38 1_555 1_555
C54 H39 1_555 1_555
C58 H40 1_555 1_555
C59 H41 1_555 1_555
C45 H42 1_555 1_555
C52 H43 1_555 1_555
C57 H45 1_555 1_555
C60 H48 1_555 1_555
C47 C46 1_555 1_555
C48 C47 1_555 1_555
N14 C48 1_555 1_555
C49 N14 1_555 1_555
C50 C46 1_555 1_555
Cu13 N14 1_555 1_555
C49 C50 1_555 1_555
C49 H37 1_555 1_555
C48 H47 1_555 1_555
N14_2 C48_2 1_555 1_555
C49_2 N14_2 1_555 1_555
C50_2 C46_2 1_555 1_555
S7_2 W2_2 1_555 1_555
S8_2 W2_2 1_555 1_555
Cu12_2 S7_2 1_555 1_555
I3_2 Cu11_2 1_555 1_555
I4_2 Cu12_2 1_555 1_555
Cu13_2 N14_2 1_555 1_555
N17_2 Cu11_2 1_555 1_555
N18_2 Cu12_2 1_555 1_555
C49_2 C50_2 1_555 1_555
S7_2 Cu11_2 1_555 1_555
S8_2 Cu12_2 1_555 1_555
C42_2 H34 1_555 1_555
C49_2 H37_2 1_555 1_555
C50_2 H44 1_555 1_555
C48_2 H47_2 1_555 1_555
W2_3 S5_2 1_555 1_555
I1_2 Cu9_2 1_555 1_555
Cu9_2 S5_2 1_555 1_555
S5_2 Cu10_2 1_555 1_555
N13_2 Cu9_2 1_555 1_555
C41_2 N13_2 1_555 1_555
C44_2 C43_2 1_555 1_555
C45_2 N13_2 1_555 1_555
S6_2 W2_3 1_555 1_555
Cu10_2 S6_2 1_555 1_555
I2_2 Cu10_2 1_555 1_555
N15_2 Cu10_2 1_555 1_555
C51_2 N15_2 1_555 1_555
C52_2 C51_2 1_555 1_555
C53_2 C52_2 1_555 1_555
C54_2 C53_2 1_555 1_555
C55_2 N15_2 1_555 1_555
C56_2 C53_2 1_555 1_555
C57_2 C56_2 1_555 1_555
C58_2 C57_2 1_555 1_555
N16_2 C58_2 1_555 1_555
C59_2 N16_2 1_555 1_555
C60_2 C56_2 1_555 1_555
Cu14_2 N16_2 1_555 1_555
C44_2 C45_2 1_555 1_555
C54_2 C55_2 1_555 1_555
C59_2 C60_2 1_555 1_555
C41_2 H33_2 1_555 1_555
C44_2 H35 1_555 1_555
C51_2 H36_2 1_555 1_555
C55_2 H38_2 1_555 1_555
C54_2 H39_2 1_555 1_555
C58_2 H40_2 1_555 1_555
C59_2 H41_2 1_555 1_555
C45_2 H42_2 1_555 1_555
C52_2 H43_2 1_555 1_555
C57_2 H45_2 1_555 1_555
C47_2 H46 1_555 1_555
C60_2 H48_2 1_555 1_555
W2_4 S5_3 1_555 1_555
I1_3 Cu14 1_555 1_555
Cu14 S5_3 1_555 1_555
S8_3 W2_4 1_555 1_555
I4_3 Cu13_2 1_555 1_555
Cu14 S8_3 1_555 1_555
S8_3 Cu13_2 1_555 1_555
C52_3 H43_3 1_555 1_555
N17_2 C58_3 1_555 1_555
C59_3 N17_2 1_555 1_555
C60_3 C56_3 1_555 1_555
C59_3 C60_3 1_555 1_555
C58_3 H40_3 1_555 1_555
C59_3 H41_3 1_555 1_555
S6_3 W2_5 1_555 1_555
S7_3 W2_5 1_555 1_555
Cu10_3 S6_3 1_555 1_555
Cu11_3 S6_3 1_555 1_555
I2_3 Cu10_3 1_555 1_555
N15_3 Cu10_3 1_555 1_555
C51_3 N15_3 1_555 1_555
C54_3 C53_3 1_555 1_555
C55_3 N15_3 1_555 1_555
I3_3 Cu11_3 1_555 1_555
N17_3 Cu11_3 1_555 1_555
S7_3 Cu11_3 1_555 1_555
C54_3 C55_3 1_555 1_555
C51_3 H36_3 1_555 1_555
C55_3 H38_3 1_555 1_555
C57_3 H45_3 1_555 1_555
W2_6 S5_4 1_555 1_555
I1_4 Cu9_3 1_555 1_555
Cu9_3 S5_4 1_555 1_555
S5_4 Cu13 1_555 1_555
N13_3 Cu9_3 1_555 1_555
C41_3 N13_3 1_555 1_555
C42_3 C41_3 1_555 1_555
C43_3 C42_3 1_555 1_555
C44_3 C43_3 1_555 1_555
C45_3 N13_3 1_555 1_555
C46_3 C43_3 1_555 1_555
C47_3 C46_3 1_555 1_555
C48_3 C47_3 1_555 1_555
N18_2 C48_3 1_555 1_555
C49_3 N18_2 1_555 1_555
C50_3 C46_3 1_555 1_555
S6_4 W2_6 1_555 1_555
S7_4 W2_6 1_555 1_555
S8_4 W2_6 1_555 1_555
Cu13 S6_4 1_555 1_555
Cu14_2 S6_4 1_555 1_555
Cu12_3 S7_4 1_555 1_555
I2_4 Cu13 1_555 1_555
I3_4 Cu14_2 1_555 1_555
I4_4 Cu12_3 1_555 1_555
N18_3 Cu12_3 1_555 1_555
Cu9_3 S8_4 1_555 1_555
C44_3 C45_3 1_555 1_555
C49_3 C50_3 1_555 1_555
S7_4 Cu14_2 1_555 1_555
S8_4 Cu12_3 1_555 1_555
C41_3 H33_3 1_555 1_555
C42_3 H34_2 1_555 1_555
C44_3 H35_2 1_555 1_555
C49_3 H37_3 1_555 1_555
C45_3 H42_3 1_555 1_555
C50_3 H44_2 1_555 1_555
C47_3 H46_2 1_555 1_555
C48_3 H47_3 1_555 1_555
C57_4 C56_4 1_555 1_555
C58_4 C57_4 1_555 1_555
N17 C58_4 1_555 1_555
C59_4 N17 1_555 1_555
C60_4 C56_4 1_555 1_555
C59_4 C60_4 1_555 1_555
C58_4 H40_4 1_555 1_555
C59_4 H41_4 1_555 1_555
C60_4 H48_4 1_555 1_555
C51_4 N18_3 1_555 1_555
C52_4 C51_4 1_555 1_555
C53_4 C52_4 1_555 1_555
C54_4 C53_4 1_555 1_555
C55_4 N18_3 1_555 1_555
C54_4 C55_4 1_555 1_555
C51_4 H36_4 1_555 1_555
C55_4 H38_4 1_555 1_555
C54_4 H39_4 1_555 1_555
C51_5 N18 1_555 1_555
C52_5 C51_5 1_555 1_555
C53_5 C52_5 1_555 1_555
C54_5 C53_5 1_555 1_555
C55_5 N18 1_555 1_555
C56_5 C53_5 1_555 1_555
C57_5 C56_5 1_555 1_555
C58_5 C57_5 1_555 1_555
N17_3 C58_5 1_555 1_555
C59_5 N17_3 1_555 1_555
C60_5 C56_5 1_555 1_555
C54_5 C55_5 1_555 1_555
C59_5 C60_5 1_555 1_555
C51_5 H36_5 1_555 1_555
C55_5 H38_5 1_555 1_555
C54_5 H39_5 1_555 1_555
C58_5 H40_5 1_555 1_555
C59_5 H41_5 1_555 1_555
C52_5 H43_5 1_555 1_555
C57_5 H45_5 1_555 1_555
C60_5 H48_5 1_555 1_555
S6_5 W2_7 1_555 1_555
S7_5 W2_7 1_555 1_555
Cu10_4 S6_5 1_555 1_555
Cu11_4 S6_5 1_555 1_555
I2_5 Cu10_4 1_555 1_555
N15_4 Cu10_4 1_555 1_555
C51_6 N15_4 1_555 1_555
C54_6 C53_6 1_555 1_555
C55_6 N15_4 1_555 1_555
I3_5 Cu11_4 1_555 1_555
N17_4 Cu11_4 1_555 1_555
S7_5 Cu11_4 1_555 1_555
C54_6 C55_6 1_555 1_555
C51_6 H36_6 1_555 1_555
C55_6 H38_6 1_555 1_555
C54_6 H39_6 1_555 1_555
W2_8 S5_5 1_555 1_555
I1_5 Cu9_4 1_555 1_555
Cu9_4 S5_5 1_555 1_555
N13_4 Cu9_4 1_555 1_555
C41_4 N13_4 1_555 1_555
C42_4 C41_4 1_555 1_555
C43_4 C42_4 1_555 1_555
C44_4 C43_4 1_555 1_555
C45_4 N13_4 1_555 1_555
C46_4 C43_4 1_555 1_555
C47_4 C46_4 1_555 1_555
C48_4 C47_4 1_555 1_555
N14_3 C48_4 1_555 1_555
C49_4 N14_3 1_555 1_555
C50_4 C46_4 1_555 1_555
S8_5 W2_8 1_555 1_555
I4_5 Cu12_4 1_555 1_555
Cu13_3 N14_3 1_555 1_555
N18_4 Cu12_4 1_555 1_555
Cu9_4 S8_5 1_555 1_555
C44_4 C45_4 1_555 1_555
C49_4 C50_4 1_555 1_555
S8_5 Cu12_4 1_555 1_555
C41_4 H33_4 1_555 1_555
C42_4 H34_4 1_555 1_555
C44_4 H35_4 1_555 1_555
C49_4 H37_4 1_555 1_555
C45_4 H42_4 1_555 1_555
C50_4 H44_4 1_555 1_555
C47_4 H46_4 1_555 1_555
C48_4 H47_4 1_555 1_555
N16_3 C58_6 1_555 1_555
C59_6 N16_3 1_555 1_555
C60_6 C56_6 1_555 1_555
Cu14_3 N16_3 1_555 1_555
C59_6 C60_6 1_555 1_555
C58_6 H40_6 1_555 1_555
C59_6 H41_6 1_555 1_555
C60_6 H48_6 1_555 1_555
C47_5 C46_5 1_555 1_555
C48_5 C47_5 1_555 1_555
N14_4 C48_5 1_555 1_555
C49_5 N14_4 1_555 1_555
C50_5 C46_5 1_555 1_555
Cu13_4 N14_4 1_555 1_555
C49_5 C50_5 1_555 1_555
C49_5 H37_5 1_555 1_555
C47_5 H46_5 1_555 1_555
C48_5 H47_5 1_555 1_555
W2_9 S5_6 1_555 1_555
I1_6 Cu9_5 1_555 1_555
Cu9_5 S5_6 1_555 1_555
S5_6 Cu10_5 1_555 1_555
N13_5 Cu9_5 1_555 1_555
C41_5 N13_5 1_555 1_555
C42_5 C41_5 1_555 1_555
C43_5 C42_5 1_555 1_555
C44_5 C43_5 1_555 1_555
C45_5 N13_5 1_555 1_555
S6_6 W2_9 1_555 1_555
S7_6 W2_9 1_555 1_555
S8_6 W2_9 1_555 1_555
Cu10_5 S6_6 1_555 1_555
Cu11_5 S6_6 1_555 1_555
Cu13_3 S7_6 1_555 1_555
I2_6 Cu10_5 1_555 1_555
N15_5 Cu10_5 1_555 1_555
C51_7 N15_5 1_555 1_555
C52_7 C51_7 1_555 1_555
C53_7 C52_7 1_555 1_555
C54_7 C53_7 1_555 1_555
C55_7 N15_5 1_555 1_555
C56_7 C53_7 1_555 1_555
C57_7 C56_7 1_555 1_555
C58_7 C57_7 1_555 1_555
N17_4 C58_7 1_555 1_555
C59_7 N17_4 1_555 1_555
C60_7 C56_7 1_555 1_555
I3_6 Cu11_5 1_555 1_555
I4_6 Cu13_3 1_555 1_555
N17_5 Cu11_5 1_555 1_555
Cu9_5 S8_6 1_555 1_555
C44_5 C45_5 1_555 1_555
S7_6 Cu11_5 1_555 1_555
S8_6 Cu13_3 1_555 1_555
C54_7 C55_7 1_555 1_555
C59_7 C60_7 1_555 1_555
C41_5 H33_5 1_555 1_555
C42_5 H34_5 1_555 1_555
C51_7 H36_7 1_555 1_555
C55_7 H38_7 1_555 1_555
C54_7 H39_7 1_555 1_555
C58_7 H40_7 1_555 1_555
C59_7 H41_7 1_555 1_555
C45_5 H42_5 1_555 1_555
C52_7 H43_7 1_555 1_555
C57_7 H45_7 1_555 1_555
C60_7 H48_7 1_555 1_555
S7_7 W2_10 1_555 1_555
S8_7 W2_10 1_555 1_555
Cu12_5 S7_7 1_555 1_555
I3_7 Cu11_6 1_555 1_555
I4_7 Cu12_5 1_555 1_555
N17_6 Cu11_6 1_555 1_555
N18_5 Cu12_5 1_555 1_555
S7_7 Cu11_6 1_555 1_555
S8_7 Cu12_5 1_555 1_555
W2_11 S5_7 1_555 1_555
I1_7 Cu14_3 1_555 1_555
Cu14_3 S5_7 1_555 1_555
S5_7 Cu10_6 1_555 1_555
S6_7 W2_11 1_555 1_555
Cu10_6 S6_7 1_555 1_555
I2_7 Cu10_6 1_555 1_555
N15_6 Cu10_6 1_555 1_555
C51_8 N15_6 1_555 1_555
C52_8 C51_8 1_555 1_555
C53_8 C52_8 1_555 1_555
C54_8 C53_8 1_555 1_555
C55_8 N15_6 1_555 1_555
C56_8 C53_8 1_555 1_555
C57_8 C56_8 1_555 1_555
C58_8 C57_8 1_555 1_555
N16_4 C58_8 1_555 1_555
C59_8 N16_4 1_555 1_555
C60_8 C56_8 1_555 1_555
Cu14_4 N16_4 1_555 1_555
C54_8 C55_8 1_555 1_555
C59_8 C60_8 1_555 1_555
C51_8 H36_8 1_555 1_555
C55_8 H38_8 1_555 1_555
C54_8 H39_8 1_555 1_555
C58_8 H40_8 1_555 1_555
C59_8 H41_8 1_555 1_555
C52_8 H43_8 1_555 1_555
C57_8 H45_8 1_555 1_555
C60_8 H48_8 1_555 1_555
N17_6 C58_9 1_555 1_555
C59_9 N17_6 1_555 1_555
C60_9 C56_9 1_555 1_555
C59_9 C60_9 1_555 1_555
C58_9 H40_9 1_555 1_555
C59_9 H41_9 1_555 1_555
C51_9 N18_4 1_555 1_555
C54_9 C53_9 1_555 1_555
C55_9 N18_4 1_555 1_555
C54_9 C55_9 1_555 1_555
C51_9 H36_9 1_555 1_555
C55_9 H38_9 1_555 1_555
W2_12 S5_8 1_555 1_555
I1_8 Cu14_4 1_555 1_555
Cu14_4 S5_8 1_555 1_555
S5_8 Cu10_7 1_555 1_555
S6_8 W2_12 1_555 1_555
S7_8 W2_12 1_555 1_555
S8_8 W2_12 1_555 1_555
Cu10_7 S6_8 1_555 1_555
Cu11_7 S6_8 1_555 1_555
Cu13_4 S7_8 1_555 1_555
I2_8 Cu10_7 1_555 1_555
N15_7 Cu10_7 1_555 1_555
C51_10 N15_7 1_555 1_555
C52_10 C51_10 1_555 1_555
C53_10 C52_10 1_555 1_555
C54_10 C53_10 1_555 1_555
C55_10 N15_7 1_555 1_555
C56_10 C53_10 1_555 1_555
C57_10 C56_10 1_555 1_555
C58_10 C57_10 1_555 1_555
N17_5 C58_10 1_555 1_555
C59_10 N17_5 1_555 1_555
C60_10 C56_10 1_555 1_555
I3_8 Cu11_7 1_555 1_555
I4_8 Cu13_4 1_555 1_555
N17_7 Cu11_7 1_555 1_555
Cu14_4 S8_8 1_555 1_555
S7_8 Cu11_7 1_555 1_555
S8_8 Cu13_4 1_555 1_555
C54_10 C55_10 1_555 1_555
C59_10 C60_10 1_555 1_555
C51_10 H36_10 1_555 1_555
C55_10 H38_10 1_555 1_555
C54_10 H39_9 1_555 1_555
C58_10 H40_10 1_555 1_555
C59_10 H41_10 1_555 1_555
C52_10 H43_9 1_555 1_555
C57_10 H45_9 1_555 1_555
C60_10 H48_9 1_555 1_555
C51_11 N18_5 1_555 1_555
C52_11 C51_11 1_555 1_555
C53_11 C52_11 1_555 1_555
C54_11 C53_11 1_555 1_555
C55_11 N18_5 1_555 1_555
C56_11 C53_11 1_555 1_555
C57_11 C56_11 1_555 1_555
C58_11 C57_11 1_555 1_555
N17_7 C58_11 1_555 1_555
C59_11 N17_7 1_555 1_555
C60_11 C56_11 1_555 1_555
C54_11 C55_11 1_555 1_555
C59_11 C60_11 1_555 1_555
C51_11 H36_11 1_555 1_555
C55_11 H38_11 1_555 1_555
C54_11 H39_10 1_555 1_555
C58_11 H40_11 1_555 1_555
C59_11 H41_11 1_555 1_555
C52_11 H43_10 1_555 1_555
C57_11 H45_10 1_555 1_555
C60_11 H48_10 1_555 1_555

#END
