
###############################################################################
#
# This file contains modified crystal structure data generated from the
# MOF subset of the Cambridge Structural Database (CSD) v543 
# hosted by the Cambridge Crystallographic Data Centre (CCDC).
#
# This work is licensed under the Creative Commons
# Attribution-NonCommercial-ShareAlike 4.0 International License.
# To view a copy of this license, visit
# http://creativecommons.org/licenses/by-nc-sa/4.0/
# or send a letter to
# Creative Commons, PO Box 1866, Mountain View, CA 94042, USA.
#
# CIF created using the CSD Python API on 29 September 2022
# The structure has been converted into the P1 space group
# The structure has a 3D framework
# The original CSD entry IBIYOI is in the tetragonal crystal system
# The framework has been calculated to contain at least 10.0% void space
# The void calculation uses a probe of radius 1.32A, grid spacing 0.4
# The framework is charged, counterions have been retained in the structure
# H atom positions have been added when not included in the experimental data
#
###############################################################################

data_IBIYOI
_chemical_formula_moiety         '(C480 H384 Cu64 I32 N96 S64 W24)n'
_symmetry_cell_setting           triclinic
_symmetry_space_group_name_H-M   'P 1'
_symmetry_Int_Tables_number      1
_space_group_name_Hall           'P 1'
loop_
_symmetry_equiv_pos_site_id
_symmetry_equiv_pos_as_xyz
1 x,y,z
_cell_length_a                   24.803(1)
_cell_length_b                   24.803(1)
_cell_length_c                   28.170(2)
_cell_angle_alpha                90
_cell_angle_beta                 90
_cell_angle_gamma                90
_cell_volume                     17329.9
loop_
_atom_site_label
_atom_site_type_symbol
_atom_site_fract_x
_atom_site_fract_y
_atom_site_fract_z
W1 W 0.0000 0.2500 0.6250
Cu1 Cu 0.07656(7) 0.32656(7) 0.6250
Cu2 Cu 0.07610(7) 0.17390(7) 0.6250
S1 S 0.0736(1) 0.2501(1) 0.67050(11)
N1 N 0.0817(5) 0.3887(5) 0.6719(4)
N2 N 0.0766(5) 0.1092(5) 0.6702(4)
C1 C 0.0995(9) 0.4369(8) 0.6584(6)
C2 C 0.0990(9) 0.4821(7) 0.6871(6)
C3 C 0.0821(6) 0.4765(6) 0.7332(5)
C4 C 0.0664(7) 0.4263(6) 0.7472(5)
C5 C 0.0656(6) 0.3845(6) 0.7167(5)
C6 C 0.0870(8) 0.1174(7) 0.7167(6)
C7 C 0.0847(7) 0.0755(6) 0.7478(6)
C8 C 0.0743(6) 0.0239(5) 0.7341(5)
C9 C 0.0597(8) 0.0167(6) 0.6859(5)
C10 C 0.0644(8) 0.0596(6) 0.6562(5)
H1 H 0.1141(9) 0.4404(8) 0.6274(6)
H2 H 0.1099(9) 0.5162(7) 0.6751(6)
H3 H 0.0558(7) 0.4207(6) 0.7793(5)
H4 H 0.0537(6) 0.3504(6) 0.7279(5)
H5 H 0.0950(8) 0.1526(7) 0.7279(6)
H6 H 0.0913(7) 0.0824(6) 0.7804(6)
H8 H 0.0580(8) 0.0536(6) 0.6234(5)
C11 C 0.0821(6) 0.5235(6) 0.7668(5)
C12 C 0.0990(9) 0.5179(7) 0.8129(6)
C13 C 0.0995(9) 0.5631(8) 0.8416(6)
N3 N 0.0817(5) 0.6113(5) 0.8281(4)
C14 C 0.0656(6) 0.6155(6) 0.7833(5)
C15 C 0.0664(7) 0.5737(6) 0.7528(5)
H9 H 0.0558(7) 0.5793(6) 0.7207(5)
H10 H 0.0537(6) 0.6496(6) 0.7721(5)
H11 H 0.1141(9) 0.5596(8) 0.8726(6)
H12 H 0.1099(9) 0.4838(7) 0.8249(6)
H13 H 0.0472(8) 0.0173(6) 0.8252(5)
S2 S 0.0001(1) 0.3236(1) 0.57950(11)
N5 N 0.1387(5) 0.3317(5) 0.5781(4)
C21 C 0.1869(8) 0.3495(9) 0.5916(6)
C22 C 0.2321(7) 0.3490(9) 0.5629(6)
C23 C 0.2265(6) 0.3321(6) 0.5168(5)
C24 C 0.1763(6) 0.3164(7) 0.5028(5)
C25 C 0.1345(6) 0.3156(6) 0.5333(5)
H17 H 0.1904(8) 0.3641(9) 0.6226(6)
H18 H 0.2662(7) 0.3599(9) 0.5749(6)
H19 H 0.1707(6) 0.3058(7) 0.4707(5)
H20 H 0.1004(6) 0.3037(6) 0.5221(5)
C26 C 0.2735(6) 0.3321(6) 0.4832(5)
C27 C 0.2679(7) 0.3490(9) 0.4371(6)
C28 C 0.3131(8) 0.3495(9) 0.4084(6)
N6 N 0.3613(5) 0.3317(5) 0.4219(4)
C29 C 0.3655(6) 0.3156(6) 0.4667(5)
C30 C 0.3237(6) 0.3164(7) 0.4972(5)
H21 H 0.3293(6) 0.3058(7) 0.5293(5)
H22 H 0.3996(6) 0.3037(6) 0.4779(5)
H23 H 0.3096(8) 0.3641(9) 0.3774(6)
H24 H 0.2338(7) 0.3599(9) 0.4251(6)
N7 N 0.1408(5) 0.1734(5) 0.5798(4)
C31 C 0.1326(7) 0.1630(8) 0.5333(6)
C32 C 0.1745(6) 0.1653(7) 0.5022(6)
C33 C 0.2261(5) 0.1757(6) 0.5159(5)
C34 C 0.2333(6) 0.1903(8) 0.5641(5)
C35 C 0.1904(6) 0.1856(8) 0.5938(5)
H25 H 0.0974(7) 0.1550(8) 0.5221(6)
H26 H 0.1676(6) 0.1587(7) 0.4696(6)
H27 H 0.2673(6) 0.2028(8) 0.5752(5)
H28 H 0.1964(6) 0.1920(8) 0.6266(5)
C36 C 0.2739(5) 0.1757(6) 0.4841(5)
C37 C 0.3255(6) 0.1653(7) 0.4978(6)
C38 C 0.3674(7) 0.1630(8) 0.4667(6)
N8 N 0.3592(5) 0.1734(5) 0.4202(4)
C39 C 0.3096(6) 0.1856(8) 0.4062(5)
C40 C 0.2667(6) 0.1903(8) 0.4359(5)
H29 H 0.2327(6) 0.2028(8) 0.4248(5)
H30 H 0.3036(6) 0.1920(8) 0.3734(5)
H31 H 0.4026(7) 0.1550(8) 0.4779(6)
H32 H 0.3324(6) 0.1587(7) 0.5304(6)
Cu5 Cu 0.07656(7) 0.67344(7) 0.8750
Cu7 Cu 0.42344(7) 0.32656(7) 0.3750
Cu8 Cu 0.42390(7) 0.17390(7) 0.3750
H7 H 0.0472(8) 0.9827(6) 0.6748(5)
C16 C 0.0743(6) 0.9761(5) 0.7659(5)
C17 C 0.0847(7) 0.9245(6) 0.7522(6)
C18 C 0.0870(8) 0.8826(7) 0.7833(6)
N4 N 0.0766(5) 0.8908(5) 0.8298(4)
C19 C 0.0644(8) 0.9404(6) 0.8438(5)
C20 C 0.0597(8) 0.9833(6) 0.8141(5)
H14 H 0.0580(8) 0.9464(6) 0.8766(5)
H15 H 0.0950(8) 0.8474(7) 0.7721(6)
H16 H 0.0913(7) 0.9176(6) 0.7196(6)
Cu6 Cu 0.07610(7) 0.82610(7) 0.8750
W1_2 W 1.0000 0.2500 0.6250
S3 S 0.9264(1) 0.2499(1) 0.67050(11)
S4 S 0.9999(1) 0.1764(1) 0.57950(11)
Cu3 Cu 0.92344(7) 0.17344(7) 0.6250
Cu4 Cu 0.92390(7) 0.32610(7) 0.6250
N9 N 0.9183(5) 0.1113(5) 0.6719(4)
N10 N 0.8613(5) 0.1683(5) 0.5781(4)
N11 N 0.8592(5) 0.3266(5) 0.5798(4)
N12 N 0.9234(5) 0.3908(5) 0.6702(4)
H2_2 H 0.6099(9) 0.0162(7) 0.1751(6)
C11_2 C 0.5821(6) 0.0235(6) 0.2668(5)
C12_2 C 0.5990(9) 0.0179(7) 0.3129(6)
C13_2 C 0.5995(9) 0.0631(8) 0.3416(6)
N3_2 N 0.5817(5) 0.1113(5) 0.3281(4)
C14_2 C 0.5656(6) 0.1155(6) 0.2833(5)
C15_2 C 0.5664(7) 0.0737(6) 0.2528(5)
H9_2 H 0.5558(7) 0.0793(6) 0.2207(5)
H10_2 H 0.5537(6) 0.1496(6) 0.2721(5)
H11_2 H 0.6141(9) 0.0596(8) 0.3726(6)
Cu5_2 Cu 0.57656(7) 0.17344(7) 0.3750
W1_3 W 0.5000 0.7500 0.1250
Cu1_2 Cu 0.57656(7) 0.82656(7) 0.1250
Cu2_2 Cu 0.57610(7) 0.67390(7) 0.1250
S1_2 S 0.5736(1) 0.7501(1) 0.17050(11)
N1_2 N 0.5817(5) 0.8887(5) 0.1719(4)
N2_2 N 0.5766(5) 0.6092(5) 0.1702(4)
C1_2 C 0.5995(9) 0.9369(8) 0.1584(6)
C2_2 C 0.5990(9) 0.9821(7) 0.1871(6)
C3_2 C 0.5821(6) 0.9765(6) 0.2332(5)
C4_2 C 0.5664(7) 0.9263(6) 0.2472(5)
C5_2 C 0.5656(6) 0.8845(6) 0.2167(5)
C6_2 C 0.5870(8) 0.6174(7) 0.2167(6)
C7_2 C 0.5847(7) 0.5755(6) 0.2478(6)
C8_2 C 0.5743(6) 0.5239(5) 0.2341(5)
C9_2 C 0.5597(8) 0.5167(6) 0.1859(5)
C10_2 C 0.5644(8) 0.5596(6) 0.1562(5)
H1_2 H 0.6141(9) 0.9404(8) 0.1274(6)
H3_2 H 0.5558(7) 0.9207(6) 0.2793(5)
H4_2 H 0.5537(6) 0.8504(6) 0.2279(5)
H5_2 H 0.5950(8) 0.6526(7) 0.2279(6)
H6_2 H 0.5913(7) 0.5824(6) 0.2804(6)
H7_2 H 0.5472(8) 0.4827(6) 0.1748(5)
H8_2 H 0.5580(8) 0.5536(6) 0.1234(5)
H12_2 H 0.6099(9) 0.9838(7) 0.3249(6)
C16_2 C 0.5743(6) 0.4761(5) 0.2659(5)
C17_2 C 0.5847(7) 0.4245(6) 0.2522(6)
C18_2 C 0.5870(8) 0.3826(7) 0.2833(6)
N4_2 N 0.5766(5) 0.3908(5) 0.3298(4)
C19_2 C 0.5644(8) 0.4404(6) 0.3438(5)
C20_2 C 0.5597(8) 0.4833(6) 0.3141(5)
H13_2 H 0.5472(8) 0.5173(6) 0.3252(5)
H14_2 H 0.5580(8) 0.4464(6) 0.3766(5)
H15_2 H 0.5950(8) 0.3474(7) 0.2721(6)
H16_2 H 0.5913(7) 0.4176(6) 0.2196(6)
S2_2 S 0.5001(1) 0.8236(1) 0.07950(11)
S3_2 S 0.4264(1) 0.7499(1) 0.17050(11)
S4_2 S 0.4999(1) 0.6764(1) 0.07950(11)
Cu3_2 Cu 0.42344(7) 0.67344(7) 0.1250
Cu4_2 Cu 0.42390(7) 0.82610(7) 0.1250
N5_2 N 0.6387(5) 0.8317(5) 0.0781(4)
C21_2 C 0.6869(8) 0.8495(9) 0.0916(6)
C22_2 C 0.7321(7) 0.8490(9) 0.0629(6)
C23_2 C 0.7265(6) 0.8321(6) 0.0168(5)
C24_2 C 0.6763(6) 0.8164(7) 0.0028(5)
C25_2 C 0.6345(6) 0.8156(6) 0.0333(5)
H17_2 H 0.6904(8) 0.8641(9) 0.1226(6)
H18_2 H 0.7662(7) 0.8599(9) 0.0749(6)
H20_2 H 0.6004(6) 0.8037(6) 0.0221(5)
H21_2 H 0.8293(6) 0.8058(7) 0.0293(5)
N7_2 N 0.6408(5) 0.6734(5) 0.0798(4)
C31_2 C 0.6326(7) 0.6630(8) 0.0333(6)
C32_2 C 0.6745(6) 0.6653(7) 0.0022(6)
C33_2 C 0.7261(5) 0.6757(6) 0.0159(5)
C34_2 C 0.7333(6) 0.6903(8) 0.0641(5)
C35_2 C 0.6904(6) 0.6856(8) 0.0938(5)
H25_2 H 0.5974(7) 0.6550(8) 0.0221(6)
H27_2 H 0.7673(6) 0.7028(8) 0.0752(5)
H28_2 H 0.6964(6) 0.6920(8) 0.1266(5)
H32_2 H 0.8324(6) 0.6587(7) 0.0304(6)
Cu6_2 Cu 0.57610(7) 0.32610(7) 0.3750
N9_2 N 0.4183(5) 0.6113(5) 0.1719(4)
N10_2 N 0.3613(5) 0.6683(5) 0.0781(4)
N11_2 N 0.3592(5) 0.8266(5) 0.0798(4)
N12_2 N 0.4234(5) 0.8908(5) 0.1702(4)
H19_2 H 0.6707(6) 0.8058(7) 0.9707(5)
C26_2 C 0.7735(6) 0.8321(6) 0.9832(5)
C27_2 C 0.7679(7) 0.8490(9) 0.9371(6)
C28_2 C 0.8131(8) 0.8495(9) 0.9084(6)
N6_2 N 0.8613(5) 0.8317(5) 0.9219(4)
C29_2 C 0.8655(6) 0.8156(6) 0.9667(5)
C30_2 C 0.8237(6) 0.8164(7) 0.9972(5)
H22_2 H 0.8996(6) 0.8037(6) 0.9779(5)
H23_2 H 0.8096(8) 0.8641(9) 0.8774(6)
H24_2 H 0.7338(7) 0.8599(9) 0.9251(6)
H26_2 H 0.6676(6) 0.6587(7) 0.9696(6)
C36_2 C 0.7739(5) 0.6757(6) 0.9841(5)
C37_2 C 0.8255(6) 0.6653(7) 0.9978(6)
C38_2 C 0.8674(7) 0.6630(8) 0.9667(6)
N8_2 N 0.8592(5) 0.6734(5) 0.9202(4)
C39_2 C 0.8096(6) 0.6856(8) 0.9062(5)
C40_2 C 0.7667(6) 0.6903(8) 0.9359(5)
H29_2 H 0.7327(6) 0.7028(8) 0.9248(5)
H30_2 H 0.8036(6) 0.6920(8) 0.8734(5)
H31_2 H 0.9026(7) 0.6550(8) 0.9779(6)
Cu7_2 Cu 0.92344(7) 0.82656(7) 0.8750
Cu8_2 Cu 0.92390(7) 0.67390(7) 0.8750
H6_3 H 0.1676(6) 0.8413(7) 0.0304(6)
C16_3 C 0.2739(5) 0.8243(6) 0.0159(5)
C17_3 C 0.3255(6) 0.8347(7) 0.0022(6)
C18_3 C 0.3674(7) 0.8370(8) 0.0333(6)
C19_3 C 0.3096(6) 0.8144(8) 0.0938(5)
C20_3 C 0.2667(6) 0.8097(8) 0.0641(5)
H13_3 H 0.2327(6) 0.7972(8) 0.0752(5)
H14_3 H 0.3036(6) 0.8080(8) 0.1266(5)
H15_3 H 0.4026(7) 0.8450(8) 0.0221(6)
W1_4 W 0.0000 0.7500 0.8750
N2_3 N 0.1408(5) 0.8266(5) 0.9202(4)
C6_3 C 0.1326(7) 0.8370(8) 0.9667(6)
C7_3 C 0.1745(6) 0.8347(7) 0.9978(6)
C8_3 C 0.2261(5) 0.8243(6) 0.9841(5)
C9_3 C 0.2333(6) 0.8097(8) 0.9359(5)
C10_3 C 0.1904(6) 0.8144(8) 0.9062(5)
H5_3 H 0.0974(7) 0.8450(8) 0.9779(6)
H7_3 H 0.2673(6) 0.7972(8) 0.9248(5)
H8_3 H 0.1964(6) 0.8080(8) 0.8734(5)
H16_3 H 0.3324(6) 0.8413(7) 0.9696(6)
S3_3 S 0.0001(1) 0.6764(1) 0.92050(11)
S4_3 S 0.0736(1) 0.7499(1) 0.82950(11)
N9_3 N 0.1387(5) 0.6683(5) 0.9219(4)
H18_3 H 0.8901(9) 0.0162(7) 0.8249(6)
C26_3 C 0.9179(6) 0.0235(6) 0.7332(5)
C27_3 C 0.9010(9) 0.0179(7) 0.6871(6)
C28_3 C 0.9005(9) 0.0631(8) 0.6584(6)
C29_3 C 0.9344(6) 0.1155(6) 0.7167(5)
C30_3 C 0.9336(7) 0.0737(6) 0.7472(5)
H21_3 H 0.9442(7) 0.0793(6) 0.7793(5)
H22_3 H 0.9463(6) 0.1496(6) 0.7279(5)
H23_3 H 0.8859(9) 0.0596(8) 0.6274(6)
W1_5 W 1.0000 0.7500 0.8750
S1_3 S 0.9999(1) 0.8236(1) 0.92050(11)
S2_3 S 0.9264(1) 0.7501(1) 0.82950(11)
N5_3 N 0.9183(5) 0.8887(5) 0.8281(4)
C21_3 C 0.9005(9) 0.9369(8) 0.8416(6)
C22_3 C 0.9010(9) 0.9821(7) 0.8129(6)
C23_3 C 0.9179(6) 0.9765(6) 0.7668(5)
C24_3 C 0.9336(7) 0.9263(6) 0.7528(5)
C25_3 C 0.9344(6) 0.8845(6) 0.7833(5)
H17_3 H 0.8859(9) 0.9404(8) 0.8726(6)
H19_3 H 0.9442(7) 0.9207(6) 0.7207(5)
H20_3 H 0.9463(6) 0.8504(6) 0.7721(5)
H24_3 H 0.8901(9) 0.9838(7) 0.6751(6)
N11_3 N 0.9234(5) 0.6092(5) 0.8298(4)
W1_6 W 0.5000 0.2500 0.3750
S1_4 S 0.5001(1) 0.1764(1) 0.42050(11)
N1_3 N 0.6387(5) 0.1683(5) 0.4219(4)
C1_3 C 0.6869(8) 0.1505(9) 0.4084(6)
C2_3 C 0.7321(7) 0.1510(9) 0.4371(6)
C3_3 C 0.7265(6) 0.1679(6) 0.4832(5)
C4_3 C 0.6763(6) 0.1836(7) 0.4972(5)
C5_3 C 0.6345(6) 0.1844(6) 0.4667(5)
H1_3 H 0.6904(8) 0.1359(9) 0.3774(6)
H2_3 H 0.7662(7) 0.1401(9) 0.4251(6)
H3_3 H 0.6707(6) 0.1942(7) 0.5293(5)
H4_3 H 0.6004(6) 0.1963(6) 0.4779(5)
C11_3 C 0.7735(6) 0.1679(6) 0.5168(5)
C12_3 C 0.7679(7) 0.1510(9) 0.5629(6)
C13_3 C 0.8131(8) 0.1505(9) 0.5916(6)
C14_3 C 0.8655(6) 0.1844(6) 0.5333(5)
C15_3 C 0.8237(6) 0.1836(7) 0.5028(5)
H9_3 H 0.8293(6) 0.1942(7) 0.4707(5)
H10_3 H 0.8996(6) 0.1963(6) 0.5221(5)
H11_3 H 0.8096(8) 0.1359(9) 0.6226(6)
H12_3 H 0.7338(7) 0.1401(9) 0.5749(6)
S2_4 S 0.5736(1) 0.2499(1) 0.32950(11)
S3_4 S 0.4999(1) 0.3236(1) 0.42050(11)
S4_4 S 0.4264(1) 0.2501(1) 0.32950(11)
N7_3 N 0.4234(5) 0.1092(5) 0.3298(4)
C31_3 C 0.4130(8) 0.1174(7) 0.2833(6)
C32_3 C 0.4153(7) 0.0755(6) 0.2522(6)
C33_3 C 0.4257(6) 0.0239(5) 0.2659(5)
C34_3 C 0.4403(8) 0.0167(6) 0.3141(5)
C35_3 C 0.4356(8) 0.0596(6) 0.3438(5)
H25_3 H 0.4050(8) 0.1526(7) 0.2721(6)
H26_3 H 0.4087(7) 0.0824(6) 0.2196(6)
H28_3 H 0.4420(8) 0.0536(6) 0.3766(5)
H29_3 H 0.4528(8) 0.0173(6) 0.1748(5)
N10_3 N 0.4183(5) 0.3887(5) 0.3281(4)
N12_3 N 0.6408(5) 0.3266(5) 0.4202(4)
H27_3 H 0.4528(8) 0.9827(6) 0.3252(5)
C36_3 C 0.4257(6) 0.9761(5) 0.2341(5)
C37_3 C 0.4153(7) 0.9245(6) 0.2478(6)
C38_3 C 0.4130(8) 0.8826(7) 0.2167(6)
C39_3 C 0.4356(8) 0.9404(6) 0.1562(5)
C40_3 C 0.4403(8) 0.9833(6) 0.1859(5)
H30_3 H 0.4420(8) 0.9464(6) 0.1234(5)
H31_3 H 0.4050(8) 0.8474(7) 0.2279(6)
H32_3 H 0.4087(7) 0.9176(6) 0.2804(6)
C6_4 C 0.8674(7) 0.3370(8) 0.5333(6)
C7_4 C 0.8255(6) 0.3347(7) 0.5022(6)
C8_4 C 0.7739(5) 0.3243(6) 0.5159(5)
C9_4 C 0.7667(6) 0.3097(8) 0.5641(5)
C10_4 C 0.8096(6) 0.3144(8) 0.5938(5)
H5_4 H 0.9026(7) 0.3450(8) 0.5221(6)
H6_4 H 0.8324(6) 0.3413(7) 0.4696(6)
H7_4 H 0.7327(6) 0.2972(8) 0.5752(5)
H8_4 H 0.8036(6) 0.3080(8) 0.6266(5)
C16_4 C 0.7261(5) 0.3243(6) 0.4841(5)
C17_4 C 0.6745(6) 0.3347(7) 0.4978(6)
C18_4 C 0.6326(7) 0.3370(8) 0.4667(6)
C19_4 C 0.6904(6) 0.3144(8) 0.4062(5)
C20_4 C 0.7333(6) 0.3097(8) 0.4359(5)
H13_4 H 0.7673(6) 0.2972(8) 0.4248(5)
H14_4 H 0.6964(6) 0.3080(8) 0.3734(5)
H15_4 H 0.5974(7) 0.3450(8) 0.4779(6)
H16_4 H 0.6676(6) 0.3413(7) 0.5304(6)
C31_4 C 0.9130(8) 0.3826(7) 0.7167(6)
C32_4 C 0.9153(7) 0.4245(6) 0.7478(6)
C33_4 C 0.9257(6) 0.4761(5) 0.7341(5)
C34_4 C 0.9403(8) 0.4833(6) 0.6859(5)
C35_4 C 0.9356(8) 0.4404(6) 0.6562(5)
H25_4 H 0.9050(8) 0.3474(7) 0.7279(6)
H26_4 H 0.9087(7) 0.4176(6) 0.7804(6)
H27_4 H 0.9528(8) 0.5173(6) 0.6748(5)
H28_4 H 0.9420(8) 0.4464(6) 0.6234(5)
C36_4 C 0.9257(6) 0.5239(5) 0.7659(5)
C37_4 C 0.9153(7) 0.5755(6) 0.7522(6)
C38_4 C 0.9130(8) 0.6174(7) 0.7833(6)
C39_4 C 0.9356(8) 0.5596(6) 0.8438(5)
C40_4 C 0.9403(8) 0.5167(6) 0.8141(5)
H29_4 H 0.9528(8) 0.4827(6) 0.8252(5)
H30_4 H 0.9420(8) 0.5536(6) 0.8766(5)
H31_4 H 0.9050(8) 0.6526(7) 0.7721(6)
H32_4 H 0.9087(7) 0.5824(6) 0.7196(6)
C21_4 C 0.4005(9) 0.4369(8) 0.3416(6)
C22_4 C 0.4010(9) 0.4821(7) 0.3129(6)
C23_4 C 0.4179(6) 0.4765(6) 0.2668(5)
C24_4 C 0.4336(7) 0.4263(6) 0.2528(5)
C25_4 C 0.4344(6) 0.3845(6) 0.2833(5)
H17_4 H 0.3859(9) 0.4404(8) 0.3726(6)
H18_4 H 0.3901(9) 0.5162(7) 0.3249(6)
H19_4 H 0.4442(7) 0.4207(6) 0.2207(5)
H20_4 H 0.4463(6) 0.3504(6) 0.2721(5)
C26_4 C 0.4179(6) 0.5235(6) 0.2332(5)
C27_4 C 0.4010(9) 0.5179(7) 0.1871(6)
C28_4 C 0.4005(9) 0.5631(8) 0.1584(6)
C29_4 C 0.4344(6) 0.6155(6) 0.2167(5)
C30_4 C 0.4336(7) 0.5737(6) 0.2472(5)
H21_4 H 0.4442(7) 0.5793(6) 0.2793(5)
H22_4 H 0.4463(6) 0.6496(6) 0.2279(5)
H23_4 H 0.3859(9) 0.5596(8) 0.1274(6)
H24_4 H 0.3901(9) 0.4838(7) 0.1751(6)
C21_5 C 0.3131(8) 0.6505(9) 0.0916(6)
C22_5 C 0.2679(7) 0.6510(9) 0.0629(6)
C23_5 C 0.2735(6) 0.6679(6) 0.0168(5)
C24_5 C 0.3237(6) 0.6836(7) 0.0028(5)
C25_5 C 0.3655(6) 0.6844(6) 0.0333(5)
H17_5 H 0.3096(8) 0.6359(9) 0.1226(6)
H18_5 H 0.2338(7) 0.6401(9) 0.0749(6)
H20_5 H 0.3996(6) 0.6963(6) 0.0221(5)
H21_5 H 0.1707(6) 0.6942(7) 0.0293(5)
H19_5 H 0.3293(6) 0.6942(7) 0.9707(5)
C26_5 C 0.2265(6) 0.6679(6) 0.9832(5)
C27_5 C 0.2321(7) 0.6510(9) 0.9371(6)
C28_5 C 0.1869(8) 0.6505(9) 0.9084(6)
C29_5 C 0.1345(6) 0.6844(6) 0.9667(5)
C30_5 C 0.1763(6) 0.6836(7) 0.9972(5)
H22_5 H 0.1004(6) 0.6963(6) 0.9779(5)
H23_5 H 0.1904(8) 0.6359(9) 0.8774(6)
H24_5 H 0.2662(7) 0.6401(9) 0.9251(6)
W1_7 W 0.0000 0.7500 0.3750
S3_5 S 0.0736(1) 0.7501(1) 0.32950(11)
S4_5 S 0.0001(1) 0.8236(1) 0.42050(11)
Cu3_3 Cu 0.07656(7) 0.82656(7) 0.3750
Cu4_3 Cu 0.07610(7) 0.67390(7) 0.3750
N9_4 N 0.0817(5) 0.8887(5) 0.3281(4)
N10_4 N 0.1387(5) 0.8317(5) 0.4219(4)
N11_4 N 0.1408(5) 0.6734(5) 0.4202(4)
N12_4 N 0.0766(5) 0.6092(5) 0.3298(4)
H7_5 H 0.9528(8) 0.0173(6) 0.3252(5)
C16_5 C 0.9257(6) 0.0239(5) 0.2341(5)
C17_5 C 0.9153(7) 0.0755(6) 0.2478(6)
C18_5 C 0.9130(8) 0.1174(7) 0.2167(6)
N4_3 N 0.9234(5) 0.1092(5) 0.1702(4)
C19_5 C 0.9356(8) 0.0596(6) 0.1562(5)
C20_5 C 0.9403(8) 0.0167(6) 0.1859(5)
H14_5 H 0.9420(8) 0.0536(6) 0.1234(5)
H15_5 H 0.9050(8) 0.1526(7) 0.2279(6)
H16_5 H 0.9087(7) 0.0824(6) 0.2804(6)
Cu6_3 Cu 0.92390(7) 0.17390(7) 0.1250
W1_8 W 1.0000 0.7500 0.3750
Cu1_3 Cu 0.92344(7) 0.67344(7) 0.3750
Cu2_3 Cu 0.92390(7) 0.82610(7) 0.3750
S1_5 S 0.9264(1) 0.7499(1) 0.32950(11)
N1_4 N 0.9183(5) 0.6113(5) 0.3281(4)
N2_4 N 0.9234(5) 0.8908(5) 0.3298(4)
C1_4 C 0.9005(9) 0.5631(8) 0.3416(6)
C2_4 C 0.9010(9) 0.5179(7) 0.3129(6)
C3_4 C 0.9179(6) 0.5235(6) 0.2668(5)
C4_4 C 0.9336(7) 0.5737(6) 0.2528(5)
C5_4 C 0.9344(6) 0.6155(6) 0.2833(5)
C6_5 C 0.9130(8) 0.8826(7) 0.2833(6)
C7_5 C 0.9153(7) 0.9245(6) 0.2522(6)
C8_5 C 0.9257(6) 0.9761(5) 0.2659(5)
C9_5 C 0.9403(8) 0.9833(6) 0.3141(5)
C10_5 C 0.9356(8) 0.9404(6) 0.3438(5)
H1_4 H 0.8859(9) 0.5596(8) 0.3726(6)
H2_4 H 0.8901(9) 0.4838(7) 0.3249(6)
H3_4 H 0.9442(7) 0.5793(6) 0.2207(5)
H4_4 H 0.9463(6) 0.6496(6) 0.2721(5)
H5_5 H 0.9050(8) 0.8474(7) 0.2721(6)
H6_5 H 0.9087(7) 0.9176(6) 0.2196(6)
H8_5 H 0.9420(8) 0.9464(6) 0.3766(5)
C11_4 C 0.9179(6) 0.4765(6) 0.2332(5)
C12_4 C 0.9010(9) 0.4821(7) 0.1871(6)
C13_4 C 0.9005(9) 0.4369(8) 0.1584(6)
N3_3 N 0.9183(5) 0.3887(5) 0.1719(4)
C14_4 C 0.9344(6) 0.3845(6) 0.2167(5)
C15_4 C 0.9336(7) 0.4263(6) 0.2472(5)
H9_4 H 0.9442(7) 0.4207(6) 0.2793(5)
H10_4 H 0.9463(6) 0.3504(6) 0.2279(5)
H11_4 H 0.8859(9) 0.4404(8) 0.1274(6)
H12_4 H 0.8901(9) 0.5162(7) 0.1751(6)
H13_5 H 0.9528(8) 0.9827(6) 0.1748(5)
S2_5 S 0.9999(1) 0.6764(1) 0.42050(11)
N5_4 N 0.8613(5) 0.6683(5) 0.4219(4)
C21_6 C 0.8131(8) 0.6505(9) 0.4084(6)
C22_6 C 0.7679(7) 0.6510(9) 0.4371(6)
C23_6 C 0.7735(6) 0.6679(6) 0.4832(5)
C24_6 C 0.8237(6) 0.6836(7) 0.4972(5)
C25_6 C 0.8655(6) 0.6844(6) 0.4667(5)
H17_6 H 0.8096(8) 0.6359(9) 0.3774(6)
H18_6 H 0.7338(7) 0.6401(9) 0.4251(6)
H19_6 H 0.8293(6) 0.6942(7) 0.5293(5)
H20_6 H 0.8996(6) 0.6963(6) 0.4779(5)
C26_6 C 0.7265(6) 0.6679(6) 0.5168(5)
C27_6 C 0.7321(7) 0.6510(9) 0.5629(6)
C28_6 C 0.6869(8) 0.6505(9) 0.5916(6)
N6_3 N 0.6387(5) 0.6683(5) 0.5781(4)
C29_6 C 0.6345(6) 0.6844(6) 0.5333(5)
C30_6 C 0.6763(6) 0.6836(7) 0.5028(5)
H21_6 H 0.6707(6) 0.6942(7) 0.4707(5)
H22_6 H 0.6004(6) 0.6963(6) 0.5221(5)
H23_6 H 0.6904(8) 0.6359(9) 0.6226(6)
H24_6 H 0.7662(7) 0.6401(9) 0.5749(6)
N7_4 N 0.8592(5) 0.8266(5) 0.4202(4)
C31_5 C 0.8674(7) 0.8370(8) 0.4667(6)
C32_5 C 0.8255(6) 0.8347(7) 0.4978(6)
C33_5 C 0.7739(5) 0.8243(6) 0.4841(5)
C34_5 C 0.7667(6) 0.8097(8) 0.4359(5)
C35_5 C 0.8096(6) 0.8144(8) 0.4062(5)
H25_5 H 0.9026(7) 0.8450(8) 0.4779(6)
H26_5 H 0.8324(6) 0.8413(7) 0.5304(6)
H27_5 H 0.7327(6) 0.7972(8) 0.4248(5)
H28_5 H 0.8036(6) 0.8080(8) 0.3734(5)
C36_5 C 0.7261(5) 0.8243(6) 0.5159(5)
C37_5 C 0.6745(6) 0.8347(7) 0.5022(6)
C38_5 C 0.6326(7) 0.8370(8) 0.5333(6)
N8_3 N 0.6408(5) 0.8266(5) 0.5798(4)
C39_5 C 0.6904(6) 0.8144(8) 0.5938(5)
C40_5 C 0.7333(6) 0.8097(8) 0.5641(5)
H29_5 H 0.7673(6) 0.7972(8) 0.5752(5)
H30_5 H 0.6964(6) 0.8080(8) 0.6266(5)
H31_5 H 0.5974(7) 0.8450(8) 0.5221(6)
H32_5 H 0.6676(6) 0.8413(7) 0.4696(6)
Cu5_3 Cu 0.92344(7) 0.32656(7) 0.1250
Cu7_3 Cu 0.57656(7) 0.67344(7) 0.6250
Cu8_3 Cu 0.57610(7) 0.82610(7) 0.6250
H19_7 H 0.3293(6) 0.1942(7) 0.0293(5)
C26_7 C 0.2265(6) 0.1679(6) 0.0168(5)
C27_7 C 0.2321(7) 0.1510(9) 0.0629(6)
C28_7 C 0.1869(8) 0.1505(9) 0.0916(6)
N6_4 N 0.1387(5) 0.1683(5) 0.0781(4)
C29_7 C 0.1345(6) 0.1844(6) 0.0333(5)
C30_7 C 0.1763(6) 0.1836(7) 0.0028(5)
H22_7 H 0.1004(6) 0.1963(6) 0.0221(5)
H23_7 H 0.1904(8) 0.1359(9) 0.1226(6)
H24_7 H 0.2662(7) 0.1401(9) 0.0749(6)
H26_6 H 0.3324(6) 0.3413(7) 0.0304(6)
C36_6 C 0.2261(5) 0.3243(6) 0.0159(5)
C37_6 C 0.1745(6) 0.3347(7) 0.0022(6)
C38_6 C 0.1326(7) 0.3370(8) 0.0333(6)
N8_4 N 0.1408(5) 0.3266(5) 0.0798(4)
C39_6 C 0.1904(6) 0.3144(8) 0.0938(5)
C40_6 C 0.2333(6) 0.3097(8) 0.0641(5)
H29_6 H 0.2673(6) 0.2972(8) 0.0752(5)
H30_6 H 0.1964(6) 0.3080(8) 0.1266(5)
H31_6 H 0.0974(7) 0.3450(8) 0.0221(6)
Cu7_4 Cu 0.07656(7) 0.17344(7) 0.1250
Cu8_4 Cu 0.07610(7) 0.32610(7) 0.1250
W1_9 W 0.5000 0.2500 0.8750
Cu1_4 Cu 0.42344(7) 0.17344(7) 0.8750
Cu2_4 Cu 0.42390(7) 0.32610(7) 0.8750
S1_6 S 0.4264(1) 0.2499(1) 0.82950(11)
N1_5 N 0.4183(5) 0.1113(5) 0.8281(4)
N2_5 N 0.4234(5) 0.3908(5) 0.8298(4)
C1_5 C 0.4005(9) 0.0631(8) 0.8416(6)
C2_5 C 0.4010(9) 0.0179(7) 0.8129(6)
C3_5 C 0.4179(6) 0.0235(6) 0.7668(5)
C4_5 C 0.4336(7) 0.0737(6) 0.7528(5)
C5_5 C 0.4344(6) 0.1155(6) 0.7833(5)
C6_6 C 0.4130(8) 0.3826(7) 0.7833(6)
C7_6 C 0.4153(7) 0.4245(6) 0.7522(6)
C8_6 C 0.4257(6) 0.4761(5) 0.7659(5)
C9_6 C 0.4403(8) 0.4833(6) 0.8141(5)
C10_6 C 0.4356(8) 0.4404(6) 0.8438(5)
H1_5 H 0.3859(9) 0.0596(8) 0.8726(6)
H3_5 H 0.4442(7) 0.0793(6) 0.7207(5)
H4_5 H 0.4463(6) 0.1496(6) 0.7721(5)
H5_6 H 0.4050(8) 0.3474(7) 0.7721(6)
H6_6 H 0.4087(7) 0.4176(6) 0.7196(6)
H7_6 H 0.4528(8) 0.5173(6) 0.8252(5)
H8_6 H 0.4420(8) 0.4464(6) 0.8766(5)
H12_5 H 0.3901(9) 0.0162(7) 0.6751(6)
C16_6 C 0.4257(6) 0.5239(5) 0.7341(5)
C17_6 C 0.4153(7) 0.5755(6) 0.7478(6)
C18_6 C 0.4130(8) 0.6174(7) 0.7167(6)
N4_4 N 0.4234(5) 0.6092(5) 0.6702(4)
C19_6 C 0.4356(8) 0.5596(6) 0.6562(5)
C20_6 C 0.4403(8) 0.5167(6) 0.6859(5)
H13_6 H 0.4528(8) 0.4827(6) 0.6748(5)
H14_6 H 0.4420(8) 0.5536(6) 0.6234(5)
H15_6 H 0.4050(8) 0.6526(7) 0.7279(6)
H16_6 H 0.4087(7) 0.5824(6) 0.7804(6)
S2_6 S 0.4999(1) 0.1764(1) 0.92050(11)
S3_6 S 0.5736(1) 0.2501(1) 0.82950(11)
S4_6 S 0.5001(1) 0.3236(1) 0.92050(11)
Cu3_4 Cu 0.57656(7) 0.32656(7) 0.8750
Cu4_4 Cu 0.57610(7) 0.17390(7) 0.8750
N5_5 N 0.3613(5) 0.1683(5) 0.9219(4)
C21_7 C 0.3131(8) 0.1505(9) 0.9084(6)
C22_7 C 0.2679(7) 0.1510(9) 0.9371(6)
C23_7 C 0.2735(6) 0.1679(6) 0.9832(5)
C24_7 C 0.3237(6) 0.1836(7) 0.9972(5)
C25_7 C 0.3655(6) 0.1844(6) 0.9667(5)
H17_7 H 0.3096(8) 0.1359(9) 0.8774(6)
H18_7 H 0.2338(7) 0.1401(9) 0.9251(6)
H20_7 H 0.3996(6) 0.1963(6) 0.9779(5)
H21_7 H 0.1707(6) 0.1942(7) 0.9707(5)
N7_5 N 0.3592(5) 0.3266(5) 0.9202(4)
C31_6 C 0.3674(7) 0.3370(8) 0.9667(6)
C32_6 C 0.3255(6) 0.3347(7) 0.9978(6)
C33_6 C 0.2739(5) 0.3243(6) 0.9841(5)
C34_6 C 0.2667(6) 0.3097(8) 0.9359(5)
C35_6 C 0.3096(6) 0.3144(8) 0.9062(5)
H25_6 H 0.4026(7) 0.3450(8) 0.9779(6)
H27_6 H 0.2327(6) 0.2972(8) 0.9248(5)
H28_6 H 0.3036(6) 0.3080(8) 0.8734(5)
H32_6 H 0.1676(6) 0.3413(7) 0.9696(6)
Cu6_4 Cu 0.42390(7) 0.67390(7) 0.6250
N9_5 N 0.5817(5) 0.3887(5) 0.8281(4)
N10_5 N 0.6387(5) 0.3317(5) 0.9219(4)
N11_5 N 0.6408(5) 0.1734(5) 0.9202(4)
N12_5 N 0.5766(5) 0.1092(5) 0.8298(4)
H2_5 H 0.3901(9) 0.9838(7) 0.8249(6)
C11_5 C 0.4179(6) 0.9765(6) 0.7332(5)
C12_5 C 0.4010(9) 0.9821(7) 0.6871(6)
C13_5 C 0.4005(9) 0.9369(8) 0.6584(6)
N3_4 N 0.4183(5) 0.8887(5) 0.6719(4)
C14_5 C 0.4344(6) 0.8845(6) 0.7167(5)
C15_5 C 0.4336(7) 0.9263(6) 0.7472(5)
H9_5 H 0.4442(7) 0.9207(6) 0.7793(5)
H10_5 H 0.4463(6) 0.8504(6) 0.7279(5)
H11_5 H 0.3859(9) 0.9404(8) 0.6274(6)
Cu5_4 Cu 0.42344(7) 0.82656(7) 0.6250
W1_10 W 0.0000 0.2500 0.1250
S1_7 S 0.0001(1) 0.1764(1) 0.07950(11)
S2_7 S 0.0736(1) 0.2499(1) 0.17050(11)
N5_6 N 0.0817(5) 0.1113(5) 0.1719(4)
C21_8 C 0.0995(9) 0.0631(8) 0.1584(6)
C22_8 C 0.0990(9) 0.0179(7) 0.1871(6)
C23_8 C 0.0821(6) 0.0235(6) 0.2332(5)
C24_8 C 0.0664(7) 0.0737(6) 0.2472(5)
C25_8 C 0.0656(6) 0.1155(6) 0.2167(5)
H17_8 H 0.1141(9) 0.0596(8) 0.1274(6)
H19_8 H 0.0558(7) 0.0793(6) 0.2793(5)
H20_8 H 0.0537(6) 0.1496(6) 0.2279(5)
H24_8 H 0.1099(9) 0.0162(7) 0.3249(6)
N11_6 N 0.0766(5) 0.3908(5) 0.1702(4)
H18_8 H 0.1099(9) 0.9838(7) 0.1751(6)
C26_8 C 0.0821(6) 0.9765(6) 0.2668(5)
C27_8 C 0.0990(9) 0.9821(7) 0.3129(6)
C28_8 C 0.0995(9) 0.9369(8) 0.3416(6)
C29_8 C 0.0656(6) 0.8845(6) 0.2833(5)
C30_8 C 0.0664(7) 0.9263(6) 0.2528(5)
H21_8 H 0.0558(7) 0.9207(6) 0.2207(5)
H22_8 H 0.0537(6) 0.8504(6) 0.2721(5)
H23_8 H 0.1141(9) 0.9404(8) 0.3726(6)
W1_11 W 1.0000 0.2500 0.1250
N2_6 N 0.8592(5) 0.1734(5) 0.0798(4)
C6_7 C 0.8674(7) 0.1630(8) 0.0333(6)
C7_7 C 0.8255(6) 0.1653(7) 0.0022(6)
C8_7 C 0.7739(5) 0.1757(6) 0.0159(5)
C9_7 C 0.7667(6) 0.1903(8) 0.0641(5)
C10_7 C 0.8096(6) 0.1856(8) 0.0938(5)
H5_7 H 0.9026(7) 0.1550(8) 0.0221(6)
H7_7 H 0.7327(6) 0.2028(8) 0.0752(5)
H8_7 H 0.8036(6) 0.1920(8) 0.1266(5)
H16_7 H 0.6676(6) 0.1587(7) 0.0304(6)
S3_7 S 0.9999(1) 0.3236(1) 0.07950(11)
S4_7 S 0.9264(1) 0.2501(1) 0.17050(11)
N9_6 N 0.8613(5) 0.3317(5) 0.0781(4)
H6_7 H 0.8324(6) 0.1587(7) 0.9696(6)
C16_7 C 0.7261(5) 0.1757(6) 0.9841(5)
C17_7 C 0.6745(6) 0.1653(7) 0.9978(6)
C18_7 C 0.6326(7) 0.1630(8) 0.9667(6)
C19_7 C 0.6904(6) 0.1856(8) 0.9062(5)
C20_7 C 0.7333(6) 0.1903(8) 0.9359(5)
H13_7 H 0.7673(6) 0.2028(8) 0.9248(5)
H14_7 H 0.6964(6) 0.1920(8) 0.8734(5)
H15_7 H 0.5974(7) 0.1550(8) 0.9779(6)
H27_7 H 0.5472(8) 0.0173(6) 0.6748(5)
C36_7 C 0.5743(6) 0.0239(5) 0.7659(5)
C37_7 C 0.5847(7) 0.0755(6) 0.7522(6)
C38_7 C 0.5870(8) 0.1174(7) 0.7833(6)
C39_7 C 0.5644(8) 0.0596(6) 0.8438(5)
C40_7 C 0.5597(8) 0.0167(6) 0.8141(5)
H30_7 H 0.5580(8) 0.0536(6) 0.8766(5)
H31_7 H 0.5950(8) 0.1526(7) 0.7721(6)
H32_7 H 0.5913(7) 0.0824(6) 0.7196(6)
W1_12 W 0.5000 0.7500 0.6250
S1_8 S 0.4999(1) 0.8236(1) 0.57950(11)
N1_6 N 0.3613(5) 0.8317(5) 0.5781(4)
C1_6 C 0.3131(8) 0.8495(9) 0.5916(6)
C2_6 C 0.2679(7) 0.8490(9) 0.5629(6)
C3_6 C 0.2735(6) 0.8321(6) 0.5168(5)
C4_6 C 0.3237(6) 0.8164(7) 0.5028(5)
C5_6 C 0.3655(6) 0.8156(6) 0.5333(5)
H1_6 H 0.3096(8) 0.8641(9) 0.6226(6)
H2_6 H 0.2338(7) 0.8599(9) 0.5749(6)
H3_6 H 0.3293(6) 0.8058(7) 0.4707(5)
H4_6 H 0.3996(6) 0.8037(6) 0.5221(5)
C11_6 C 0.2265(6) 0.8321(6) 0.4832(5)
C12_6 C 0.2321(7) 0.8490(9) 0.4371(6)
C13_6 C 0.1869(8) 0.8495(9) 0.4084(6)
C14_6 C 0.1345(6) 0.8156(6) 0.4667(5)
C15_6 C 0.1763(6) 0.8164(7) 0.4972(5)
H9_6 H 0.1707(6) 0.8058(7) 0.5293(5)
H10_6 H 0.1004(6) 0.8037(6) 0.4779(5)
H11_6 H 0.1904(8) 0.8641(9) 0.3774(6)
H12_6 H 0.2662(7) 0.8599(9) 0.4251(6)
S2_8 S 0.4264(1) 0.7501(1) 0.67050(11)
S3_8 S 0.5001(1) 0.6764(1) 0.57950(11)
S4_8 S 0.5736(1) 0.7499(1) 0.67050(11)
N7_6 N 0.5766(5) 0.8908(5) 0.6702(4)
C31_7 C 0.5870(8) 0.8826(7) 0.7167(6)
C32_7 C 0.5847(7) 0.9245(6) 0.7478(6)
C33_7 C 0.5743(6) 0.9761(5) 0.7341(5)
C34_7 C 0.5597(8) 0.9833(6) 0.6859(5)
C35_7 C 0.5644(8) 0.9404(6) 0.6562(5)
H25_7 H 0.5950(8) 0.8474(7) 0.7279(6)
H26_7 H 0.5913(7) 0.9176(6) 0.7804(6)
H28_7 H 0.5580(8) 0.9464(6) 0.6234(5)
H29_7 H 0.5472(8) 0.9827(6) 0.8252(5)
N10_6 N 0.5817(5) 0.6113(5) 0.6719(4)
N12_6 N 0.3592(5) 0.6734(5) 0.5798(4)
C6_8 C 0.1326(7) 0.6630(8) 0.4667(6)
C7_8 C 0.1745(6) 0.6653(7) 0.4978(6)
C8_8 C 0.2261(5) 0.6757(6) 0.4841(5)
C9_8 C 0.2333(6) 0.6903(8) 0.4359(5)
C10_8 C 0.1904(6) 0.6856(8) 0.4062(5)
H5_8 H 0.0974(7) 0.6550(8) 0.4779(6)
H6_8 H 0.1676(6) 0.6587(7) 0.5304(6)
H7_8 H 0.2673(6) 0.7028(8) 0.4248(5)
H8_8 H 0.1964(6) 0.6920(8) 0.3734(5)
C16_8 C 0.2739(5) 0.6757(6) 0.5159(5)
C17_8 C 0.3255(6) 0.6653(7) 0.5022(6)
C18_8 C 0.3674(7) 0.6630(8) 0.5333(6)
C19_8 C 0.3096(6) 0.6856(8) 0.5938(5)
C20_8 C 0.2667(6) 0.6903(8) 0.5641(5)
H13_8 H 0.2327(6) 0.7028(8) 0.5752(5)
H14_8 H 0.3036(6) 0.6920(8) 0.6266(5)
H15_8 H 0.4026(7) 0.6550(8) 0.5221(6)
H16_8 H 0.3324(6) 0.6587(7) 0.4696(6)
C31_8 C 0.0870(8) 0.6174(7) 0.2833(6)
C32_8 C 0.0847(7) 0.5755(6) 0.2522(6)
C33_8 C 0.0743(6) 0.5239(5) 0.2659(5)
C34_8 C 0.0597(8) 0.5167(6) 0.3141(5)
C35_8 C 0.0644(8) 0.5596(6) 0.3438(5)
H25_8 H 0.0950(8) 0.6526(7) 0.2721(6)
H26_8 H 0.0913(7) 0.5824(6) 0.2196(6)
H27_8 H 0.0472(8) 0.4827(6) 0.3252(5)
H28_8 H 0.0580(8) 0.5536(6) 0.3766(5)
C36_8 C 0.0743(6) 0.4761(5) 0.2341(5)
C37_8 C 0.0847(7) 0.4245(6) 0.2478(6)
C38_8 C 0.0870(8) 0.3826(7) 0.2167(6)
C39_8 C 0.0644(8) 0.4404(6) 0.1562(5)
C40_8 C 0.0597(8) 0.4833(6) 0.1859(5)
H29_8 H 0.0472(8) 0.5173(6) 0.1748(5)
H30_8 H 0.0580(8) 0.4464(6) 0.1234(5)
H31_8 H 0.0950(8) 0.3474(7) 0.2279(6)
H32_8 H 0.0913(7) 0.4176(6) 0.2804(6)
C21_9 C 0.5995(9) 0.5631(8) 0.6584(6)
C22_9 C 0.5990(9) 0.5179(7) 0.6871(6)
C23_9 C 0.5821(6) 0.5235(6) 0.7332(5)
C24_9 C 0.5664(7) 0.5737(6) 0.7472(5)
C25_9 C 0.5656(6) 0.6155(6) 0.7167(5)
H17_9 H 0.6141(9) 0.5596(8) 0.6274(6)
H18_9 H 0.6099(9) 0.4838(7) 0.6751(6)
H19_9 H 0.5558(7) 0.5793(6) 0.7793(5)
H20_9 H 0.5537(6) 0.6496(6) 0.7279(5)
C26_9 C 0.5821(6) 0.4765(6) 0.7668(5)
C27_9 C 0.5990(9) 0.4821(7) 0.8129(6)
C28_9 C 0.5995(9) 0.4369(8) 0.8416(6)
C29_9 C 0.5656(6) 0.3845(6) 0.7833(5)
C30_9 C 0.5664(7) 0.4263(6) 0.7528(5)
H21_9 H 0.5558(7) 0.4207(6) 0.7207(5)
H22_9 H 0.5537(6) 0.3504(6) 0.7721(5)
H23_9 H 0.6141(9) 0.4404(8) 0.8726(6)
H24_9 H 0.6099(9) 0.5162(7) 0.8249(6)
H19_10 H 0.6707(6) 0.3058(7) 0.0293(5)
C26_10 C 0.7735(6) 0.3321(6) 0.0168(5)
C27_10 C 0.7679(7) 0.3490(9) 0.0629(6)
C28_10 C 0.8131(8) 0.3495(9) 0.0916(6)
C29_10 C 0.8655(6) 0.3156(6) 0.0333(5)
C30_10 C 0.8237(6) 0.3164(7) 0.0028(5)
H22_10 H 0.8996(6) 0.3037(6) 0.0221(5)
H23_10 H 0.8096(8) 0.3641(9) 0.1226(6)
H24_10 H 0.7338(7) 0.3599(9) 0.0749(6)
C21_10 C 0.6869(8) 0.3495(9) 0.9084(6)
C22_10 C 0.7321(7) 0.3490(9) 0.9371(6)
C23_10 C 0.7265(6) 0.3321(6) 0.9832(5)
C24_10 C 0.6763(6) 0.3164(7) 0.9972(5)
C25_10 C 0.6345(6) 0.3156(6) 0.9667(5)
H17_10 H 0.6904(8) 0.3641(9) 0.8774(6)
H18_10 H 0.7662(7) 0.3599(9) 0.9251(6)
H20_10 H 0.6004(6) 0.3037(6) 0.9779(5)
H21_10 H 0.8293(6) 0.3058(7) 0.9707(5)
W2 W 0.5000 0.2500 0.1250
I1 I 0.38231(4) 0.08823(4) 0.09786(4)
Cu9 Cu 0.41806(6) 0.17784(6) 0.13127(6)
S5 S 0.42618(13) 0.25045(13) 0.07932(11)
N13 N 0.3585(4) 0.1986(5) 0.1809(5)
C41 C 0.3652(5) 0.2371(5) 0.2122(5)
C42 C 0.3242(5) 0.2578(6) 0.2405(4)
C43 C 0.2723(7) 0.2398(9) 0.2357(6)
C44 C 0.2676(12) 0.185(1) 0.2182(13)
C45 C 0.3117(11) 0.1632(13) 0.1885(9)
C46 C 0.2277(7) 0.2602(9) 0.2643(6)
C47 C 0.1758(5) 0.2422(6) 0.2595(4)
C48 C 0.1348(5) 0.2629(5) 0.2878(5)
N14 N 0.1415(4) 0.3014(5) 0.3191(5)
C49 C 0.1883(11) 0.3368(13) 0.3115(9)
C50 C 0.2324(12) 0.315(1) 0.2818(13)
S6 S 0.50045(13) 0.32382(13) 0.17068(11)
S7 S 0.57382(13) 0.24955(13) 0.07932(11)
S8 S 0.49955(13) 0.17618(13) 0.17068(11)
Cu10 Cu 0.42784(6) 0.33194(6) 0.11873(6)
Cu11 Cu 0.58194(6) 0.32216(6) 0.13127(6)
Cu12 Cu 0.57216(6) 0.16806(6) 0.11873(6)
I2 I 0.33823(4) 0.36769(4) 0.15214(4)
N15 N 0.4486(5) 0.3915(4) 0.0691(5)
C51 C 0.4871(5) 0.3848(5) 0.0378(5)
C52 C 0.5078(6) 0.4258(5) 0.0095(4)
C53 C 0.4898(9) 0.4777(7) 0.0143(6)
C54 C 0.435(1) 0.4824(12) 0.0318(13)
C55 C 0.4132(13) 0.4383(11) 0.0615(9)
I3 I 0.61769(4) 0.41177(4) 0.09786(4)
I4 I 0.66177(4) 0.13231(4) 0.15214(4)
Cu13 Cu 0.08194(6) 0.32216(6) 0.36873(6)
N17 N 0.6415(4) 0.3014(5) 0.1809(5)
N18 N 0.5514(5) 0.1085(4) 0.0691(5)
H33 H 0.410504 0.517531 0.0232848
H35 H 0.461342 0.583466 0.0167624
H36 H 0.267531 0.339496 0.273285
H38 H 0.373004 0.440376 0.0769457
H39 H 0.405466 0.253968 0.216313
H40 H 0.0945337 0.246032 0.283687
H41 H 0.309624 0.123004 0.173054
H42 H 0.190376 0.376996 0.326946
H43 H 0.333466 0.288658 0.266762
H44 H 0.166534 0.211342 0.233238
H47 H 0.232469 0.160504 0.226715
H48 H 0.503968 0.344534 0.0336873
C56 C 0.5102(9) 0.5223(7) 0.9857(6)
C57 C 0.4922(6) 0.5742(5) 0.9905(4)
C58 C 0.5129(5) 0.6152(5) 0.9622(5)
N16 N 0.5514(5) 0.6085(4) 0.9309(5)
C59 C 0.5868(13) 0.5617(11) 0.9385(9)
C60 C 0.565(1) 0.5176(12) 0.9682(13)
Cu14 Cu 0.57216(6) 0.66806(6) 0.88127(6)
H34 H 0.626996 0.559624 0.923054
H37 H 0.496032 0.655466 0.966313
H45 H 0.589496 0.482469 0.976715
H46 H 0.538658 0.416534 0.983238
C56_2 C 0.0102(9) 0.0223(7) 0.4857(6)
C58_2 C 0.0129(5) 0.1152(5) 0.4622(5)
N16_2 N 0.0514(5) 0.1085(4) 0.4309(5)
C59_2 C 0.0868(13) 0.0617(11) 0.4385(9)
C60_2 C 0.065(1) 0.0176(12) 0.4682(13)
Cu14_2 Cu 0.07216(6) 0.16806(6) 0.38127(6)
H34_2 H 0.126996 0.0596236 0.423054
W2_2 W 0.0000 0.7500 0.6250
S6_2 S 0.00045(13) 0.82382(13) 0.67068(11)
S7_2 S 0.07382(13) 0.74955(13) 0.57932(11)
Cu11_2 Cu 0.08194(6) 0.82216(6) 0.63127(6)
Cu12_2 Cu 0.07216(6) 0.66806(6) 0.61873(6)
C52_2 C 0.0078(6) 0.9258(5) 0.5095(4)
I3_2 I 0.11769(4) 0.91177(4) 0.59786(4)
I4_2 I 0.16177(4) 0.63231(4) 0.65214(4)
N17_2 N 0.1415(4) 0.8014(5) 0.6809(5)
N18_2 N 0.0514(5) 0.6085(4) 0.5691(5)
H45_2 H 0.0894957 0.982469 0.476715
H46_2 H 0.0386577 0.916534 0.483238
H48_2 H 0.00396827 0.844534 0.533687
C57_2 C 0.9922(6) 0.0742(5) 0.4905(4)
H33_2 H 0.910504 0.0175307 0.523285
H35_2 H 0.961342 0.0834661 0.516762
H37_2 H 0.996032 0.155466 0.466313
W2_3 W 1.0000 0.7500 0.6250
I1_2 I 0.88231(4) 0.58823(4) 0.59786(4)
Cu9_2 Cu 0.91806(6) 0.67784(6) 0.63127(6)
S5_2 S 0.92618(13) 0.75045(13) 0.57932(11)
N13_2 N 0.8585(4) 0.6986(5) 0.6809(5)
C41_2 C 0.8652(5) 0.7371(5) 0.7122(5)
C42_2 C 0.8242(5) 0.7578(6) 0.7405(4)
C43_2 C 0.7723(7) 0.7398(9) 0.7357(6)
C44_2 C 0.7676(12) 0.685(1) 0.7182(13)
C45_2 C 0.8117(11) 0.6632(13) 0.6885(9)
C46_2 C 0.7277(7) 0.7602(9) 0.7643(6)
C47_2 C 0.6758(5) 0.7422(6) 0.7595(4)
C48_2 C 0.6348(5) 0.7629(5) 0.7878(5)
N14_2 N 0.6415(4) 0.8014(5) 0.8191(5)
C49_2 C 0.6883(11) 0.8368(13) 0.8115(9)
C50_2 C 0.7324(12) 0.815(1) 0.7818(13)
S8_2 S 0.99955(13) 0.67618(13) 0.67068(11)
Cu10_2 Cu 0.92784(6) 0.83194(6) 0.61873(6)
I2_2 I 0.83823(4) 0.86769(4) 0.65214(4)
N15_2 N 0.9486(5) 0.8915(4) 0.5691(5)
C51_2 C 0.9871(5) 0.8848(5) 0.5378(5)
C53_2 C 0.9898(9) 0.9777(7) 0.5143(6)
C54_2 C 0.935(1) 0.9824(12) 0.5318(13)
C55_2 C 0.9132(13) 0.9383(11) 0.5615(9)
Cu13_2 Cu 0.58194(6) 0.82216(6) 0.86873(6)
H36_2 H 0.767531 0.839496 0.773285
H38_2 H 0.873004 0.940376 0.576946
H39_2 H 0.905466 0.753968 0.716313
H40_2 H 0.594534 0.746032 0.783687
H41_2 H 0.809624 0.623004 0.673054
H42_2 H 0.690376 0.876996 0.826946
H43_2 H 0.833466 0.788658 0.766762
H44_2 H 0.666534 0.711342 0.733238
H47_2 H 0.732469 0.660504 0.726715
W2_4 W 0.0000 0.2500 0.3750
I1_3 I 0.16177(4) 0.13231(4) 0.34786(4)
S7_3 S 0.00045(13) 0.32382(13) 0.32932(11)
S8_3 S 0.07382(13) 0.24955(13) 0.42068(11)
I4_3 I 0.11769(4) 0.41177(4) 0.40214(4)
W2_5 W 1.0000 0.2500 0.3750
S5_3 S 0.99955(13) 0.17618(13) 0.32932(11)
S6_3 S 0.92618(13) 0.25045(13) 0.42068(11)
Cu10_3 Cu 0.91806(6) 0.17784(6) 0.36873(6)
Cu11_3 Cu 0.92784(6) 0.33194(6) 0.38127(6)
I2_3 I 0.88231(4) 0.08823(4) 0.40214(4)
N15_3 N 0.8585(4) 0.1986(5) 0.3191(5)
C51_3 C 0.8652(5) 0.2371(5) 0.2878(5)
C52_3 C 0.8242(5) 0.2578(6) 0.2595(4)
C53_3 C 0.7723(7) 0.2398(9) 0.2643(6)
C54_3 C 0.7676(12) 0.185(1) 0.2818(13)
C55_3 C 0.8117(11) 0.1632(13) 0.3115(9)
C56_3 C 0.7277(7) 0.2602(9) 0.2357(6)
C57_3 C 0.6758(5) 0.2422(6) 0.2405(4)
C58_3 C 0.6348(5) 0.2629(5) 0.2122(5)
C59_3 C 0.6883(11) 0.3368(13) 0.1885(9)
C60_3 C 0.7324(12) 0.315(1) 0.2182(13)
I3_3 I 0.83823(4) 0.36769(4) 0.34786(4)
N17_3 N 0.9486(5) 0.3915(4) 0.4309(5)
H33_3 H 0.732469 0.160504 0.273285
H34_3 H 0.690376 0.376996 0.173054
H35_3 H 0.666534 0.211342 0.266762
H37_3 H 0.594534 0.246032 0.216313
H38_3 H 0.809624 0.123004 0.326946
H45_3 H 0.767531 0.339496 0.226715
H46_3 H 0.833466 0.288658 0.233238
H48_3 H 0.905466 0.253968 0.283687
C46_3 C 0.5102(9) 0.0223(7) 0.0143(6)
C47_3 C 0.4922(6) 0.0742(5) 0.0095(4)
C48_3 C 0.5129(5) 0.1152(5) 0.0378(5)
C49_3 C 0.5868(13) 0.0617(11) 0.0615(9)
C50_3 C 0.565(1) 0.0176(12) 0.0318(13)
H40_3 H 0.496032 0.155466 0.0336873
H42_3 H 0.626996 0.0596236 0.0769457
W2_6 W 0.5000 0.7500 0.8750
I1_4 I 0.33823(4) 0.86769(4) 0.84786(4)
Cu9_3 Cu 0.42784(6) 0.83194(6) 0.88127(6)
S5_4 S 0.50045(13) 0.82382(13) 0.82932(11)
N13_3 N 0.4486(5) 0.8915(4) 0.9309(5)
C41_3 C 0.4871(5) 0.8848(5) 0.9622(5)
C42_3 C 0.5078(6) 0.9258(5) 0.9905(4)
C43_3 C 0.4898(9) 0.9777(7) 0.9857(6)
C44_3 C 0.435(1) 0.9824(12) 0.9682(13)
C45_3 C 0.4132(13) 0.9383(11) 0.9385(9)
S6_4 S 0.57382(13) 0.74955(13) 0.92068(11)
S7_4 S 0.49955(13) 0.67618(13) 0.82932(11)
S8_4 S 0.42618(13) 0.75045(13) 0.92068(11)
Cu12_3 Cu 0.41806(6) 0.67784(6) 0.86873(6)
I2_4 I 0.61769(4) 0.91177(4) 0.90214(4)
I3_4 I 0.66177(4) 0.63231(4) 0.84786(4)
I4_4 I 0.38231(4) 0.58823(4) 0.90214(4)
N18_3 N 0.3585(4) 0.6986(5) 0.8191(5)
H39_3 H 0.503968 0.844534 0.966313
H41_3 H 0.373004 0.940376 0.923054
C51_4 C 0.3652(5) 0.7371(5) 0.7878(5)
C52_4 C 0.3242(5) 0.7578(6) 0.7595(4)
C53_4 C 0.2723(7) 0.7398(9) 0.7643(6)
C54_4 C 0.2676(12) 0.685(1) 0.7818(13)
C55_4 C 0.3117(11) 0.6632(13) 0.8115(9)
C56_4 C 0.2277(7) 0.7602(9) 0.7357(6)
C57_4 C 0.1758(5) 0.7422(6) 0.7405(4)
C58_4 C 0.1348(5) 0.7629(5) 0.7122(5)
C59_4 C 0.1883(11) 0.8368(13) 0.6885(9)
C60_4 C 0.2324(12) 0.815(1) 0.7182(13)
H33_4 H 0.232469 0.660504 0.773285
H34_4 H 0.190376 0.876996 0.673054
H35_4 H 0.166534 0.711342 0.766762
H37_4 H 0.0945337 0.746032 0.716313
H38_4 H 0.309624 0.623004 0.826946
H45_4 H 0.267531 0.839496 0.726715
H46_4 H 0.333466 0.788658 0.733238
H48_4 H 0.405466 0.753968 0.783687
C51_5 C 0.0129(5) 0.6152(5) 0.5378(5)
C53_5 C 0.0102(9) 0.5223(7) 0.5143(6)
C54_5 C 0.065(1) 0.5176(12) 0.5318(13)
C55_5 C 0.0868(13) 0.5617(11) 0.5615(9)
C57_5 C 0.0078(6) 0.4258(5) 0.4905(4)
H33_5 H 0.0894957 0.482469 0.523285
H35_5 H 0.0386577 0.416534 0.516762
H37_5 H 0.00396827 0.344534 0.466313
H38_5 H 0.126996 0.559624 0.576946
C52_5 C 0.9922(6) 0.5742(5) 0.5095(4)
C56_5 C 0.9898(9) 0.4777(7) 0.4857(6)
C58_5 C 0.9871(5) 0.3848(5) 0.4622(5)
C59_5 C 0.9132(13) 0.4383(11) 0.4385(9)
C60_5 C 0.935(1) 0.4824(12) 0.4682(13)
H34_5 H 0.873004 0.440376 0.423054
H45_5 H 0.910504 0.517531 0.476715
H46_5 H 0.961342 0.583466 0.483238
H48_5 H 0.996032 0.655466 0.533687
H44_3 H 0.461342 0.0834661 0.983238
H47_3 H 0.410504 0.0175307 0.976715
H36_3 H 0.589496 0.982469 0.0232848
H43_3 H 0.538658 0.916534 0.0167624
W2_7 W 0.0000 0.7500 0.1250
S5_5 S 0.00045(13) 0.67618(13) 0.17068(11)
C42_4 C 0.0078(6) 0.5742(5) 0.0095(4)
S6_5 S 0.07382(13) 0.75045(13) 0.07932(11)
Cu10_4 Cu 0.08194(6) 0.67784(6) 0.13127(6)
Cu11_4 Cu 0.07216(6) 0.83194(6) 0.11873(6)
I2_5 I 0.11769(4) 0.58823(4) 0.09786(4)
N15_4 N 0.1415(4) 0.6986(5) 0.1809(5)
C51_6 C 0.1348(5) 0.7371(5) 0.2122(5)
C52_6 C 0.1758(5) 0.7578(6) 0.2405(4)
C53_6 C 0.2277(7) 0.7398(9) 0.2357(6)
C54_6 C 0.2324(12) 0.685(1) 0.2182(13)
C55_6 C 0.1883(11) 0.6632(13) 0.1885(9)
C56_6 C 0.2723(7) 0.7602(9) 0.2643(6)
C57_6 C 0.3242(5) 0.7422(6) 0.2595(4)
C58_6 C 0.3652(5) 0.7629(5) 0.2878(5)
N16_3 N 0.3585(4) 0.8014(5) 0.3191(5)
C59_6 C 0.3117(11) 0.8368(13) 0.3115(9)
C60_6 C 0.2676(12) 0.815(1) 0.2818(13)
I3_5 I 0.16177(4) 0.86769(4) 0.15214(4)
N17_4 N 0.0514(5) 0.8915(4) 0.0691(5)
Cu14_3 Cu 0.41806(6) 0.82216(6) 0.36873(6)
H33_6 H 0.267531 0.660504 0.226715
H34_6 H 0.309624 0.876996 0.326946
H35_6 H 0.333466 0.711342 0.233238
H37_6 H 0.405466 0.746032 0.283687
H38_6 H 0.190376 0.623004 0.173054
H39_4 H 0.00396827 0.655466 0.0336873
H45_6 H 0.232469 0.839496 0.273285
H46_6 H 0.166534 0.788658 0.266762
H48_6 H 0.0945337 0.753968 0.216313
C46_4 C 0.0102(9) 0.4777(7) 0.9857(6)
C48_4 C 0.0129(5) 0.3848(5) 0.9622(5)
N14_3 N 0.0514(5) 0.3915(4) 0.9309(5)
C49_4 C 0.0868(13) 0.4383(11) 0.9385(9)
C50_4 C 0.065(1) 0.4824(12) 0.9682(13)
Cu13_3 Cu 0.07216(6) 0.33194(6) 0.88127(6)
H36_4 H 0.0894957 0.517531 0.976715
H42_4 H 0.126996 0.440376 0.923054
H43_4 H 0.0386577 0.583466 0.983238
W2_8 W 1.0000 0.7500 0.1250
I1_5 I 0.83823(4) 0.63231(4) 0.15214(4)
Cu9_4 Cu 0.92784(6) 0.66806(6) 0.11873(6)
N13_4 N 0.9486(5) 0.6085(4) 0.0691(5)
C41_4 C 0.9871(5) 0.6152(5) 0.0378(5)
C43_4 C 0.9898(9) 0.5223(7) 0.0143(6)
C44_4 C 0.935(1) 0.5176(12) 0.0318(13)
C45_4 C 0.9132(13) 0.5617(11) 0.0615(9)
S7_5 S 0.99955(13) 0.82382(13) 0.17068(11)
S8_5 S 0.92618(13) 0.74955(13) 0.07932(11)
Cu12_4 Cu 0.91806(6) 0.82216(6) 0.13127(6)
I4_5 I 0.88231(4) 0.91177(4) 0.09786(4)
N18_4 N 0.8585(4) 0.8014(5) 0.1809(5)
H41_4 H 0.873004 0.559624 0.0769457
H44_4 H 0.961342 0.416534 0.0167624
H47_4 H 0.910504 0.482469 0.0232848
C47_4 C 0.9922(6) 0.4258(5) 0.9905(4)
H40_4 H 0.996032 0.344534 0.966313
W2_9 W 0.5000 0.7500 0.3750
I1_6 I 0.38231(4) 0.91177(4) 0.40214(4)
S5_6 S 0.42618(13) 0.74955(13) 0.42068(11)
S6_6 S 0.50045(13) 0.67618(13) 0.32932(11)
S7_6 S 0.57382(13) 0.75045(13) 0.42068(11)
S8_6 S 0.49955(13) 0.82382(13) 0.32932(11)
Cu10_5 Cu 0.42784(6) 0.66806(6) 0.38127(6)
Cu11_5 Cu 0.58194(6) 0.67784(6) 0.36873(6)
Cu12_5 Cu 0.57216(6) 0.83194(6) 0.38127(6)
I2_6 I 0.33823(4) 0.63231(4) 0.34786(4)
N15_5 N 0.4486(5) 0.6085(4) 0.4309(5)
C51_7 C 0.4871(5) 0.6152(5) 0.4622(5)
C52_7 C 0.5078(6) 0.5742(5) 0.4905(4)
C53_7 C 0.4898(9) 0.5223(7) 0.4857(6)
C54_7 C 0.435(1) 0.5176(12) 0.4682(13)
C55_7 C 0.4132(13) 0.5617(11) 0.4385(9)
C56_7 C 0.5102(9) 0.4777(7) 0.5143(6)
C57_7 C 0.4922(6) 0.4258(5) 0.5095(4)
C58_7 C 0.5129(5) 0.3848(5) 0.5378(5)
N16_4 N 0.5514(5) 0.3915(4) 0.5691(5)
C59_7 C 0.5868(13) 0.4383(11) 0.5615(9)
C60_7 C 0.565(1) 0.4824(12) 0.5318(13)
I3_6 I 0.61769(4) 0.58823(4) 0.40214(4)
I4_6 I 0.66177(4) 0.86769(4) 0.34786(4)
N17_5 N 0.6415(4) 0.6986(5) 0.3191(5)
N18_5 N 0.5514(5) 0.8915(4) 0.4309(5)
Cu14_4 Cu 0.57216(6) 0.33194(6) 0.61873(6)
H33_7 H 0.410504 0.482469 0.476715
H34_7 H 0.626996 0.440376 0.576946
H35_7 H 0.461342 0.416534 0.483238
H37_7 H 0.496032 0.344534 0.533687
H38_7 H 0.373004 0.559624 0.423054
H45_7 H 0.589496 0.517531 0.523285
H46_7 H 0.538658 0.583466 0.516762
H48_7 H 0.503968 0.655466 0.466313
W2_10 W 0.0000 0.2500 0.8750
S6_7 S 0.00045(13) 0.17618(13) 0.82932(11)
S7_7 S 0.07382(13) 0.25045(13) 0.92068(11)
Cu11_6 Cu 0.08194(6) 0.17784(6) 0.86873(6)
C52_8 C 0.0078(6) 0.0742(5) 0.9905(4)
I3_7 I 0.11769(4) 0.08823(4) 0.90214(4)
I4_7 I 0.16177(4) 0.36769(4) 0.84786(4)
N17_6 N 0.1415(4) 0.1986(5) 0.8191(5)
H48_8 H 0.00396827 0.155466 0.966313
C56_8 C 0.0102(9) 0.9777(7) 0.0143(6)
C58_8 C 0.0129(5) 0.8848(5) 0.0378(5)
C59_8 C 0.0868(13) 0.9383(11) 0.0615(9)
C60_8 C 0.065(1) 0.9824(12) 0.0318(13)
H34_8 H 0.126996 0.940376 0.0769457
W2_11 W 1.0000 0.2500 0.8750
I1_7 I 0.88231(4) 0.41177(4) 0.90214(4)
Cu9_5 Cu 0.91806(6) 0.32216(6) 0.86873(6)
S5_7 S 0.92618(13) 0.24955(13) 0.92068(11)
N13_5 N 0.8585(4) 0.3014(5) 0.8191(5)
C41_5 C 0.8652(5) 0.2629(5) 0.7878(5)
C42_5 C 0.8242(5) 0.2422(6) 0.7595(4)
C43_5 C 0.7723(7) 0.2602(9) 0.7643(6)
C44_5 C 0.7676(12) 0.315(1) 0.7818(13)
C45_5 C 0.8117(11) 0.3368(13) 0.8115(9)
C46_5 C 0.7277(7) 0.2398(9) 0.7357(6)
C47_5 C 0.6758(5) 0.2578(6) 0.7405(4)
C48_5 C 0.6348(5) 0.2371(5) 0.7122(5)
N14_4 N 0.6415(4) 0.1986(5) 0.6809(5)
C49_5 C 0.6883(11) 0.1632(13) 0.6885(9)
C50_5 C 0.7324(12) 0.185(1) 0.7182(13)
S8_7 S 0.99955(13) 0.32382(13) 0.82932(11)
Cu10_6 Cu 0.92784(6) 0.16806(6) 0.88127(6)
I2_7 I 0.83823(4) 0.13231(4) 0.84786(4)
N15_6 N 0.9486(5) 0.1085(4) 0.9309(5)
C51_8 C 0.9871(5) 0.1152(5) 0.9622(5)
C53_8 C 0.9898(9) 0.0223(7) 0.9857(6)
C54_8 C 0.935(1) 0.0176(12) 0.9682(13)
C55_8 C 0.9132(13) 0.0617(11) 0.9385(9)
Cu13_4 Cu 0.58194(6) 0.17784(6) 0.63127(6)
H36_5 H 0.767531 0.160504 0.726715
H38_8 H 0.873004 0.0596236 0.923054
H39_5 H 0.905466 0.246032 0.783687
H40_5 H 0.594534 0.253968 0.716313
H41_5 H 0.809624 0.376996 0.826946
H42_5 H 0.690376 0.123004 0.673054
H43_5 H 0.833466 0.211342 0.733238
H44_5 H 0.666534 0.288658 0.766762
H47_5 H 0.732469 0.339496 0.773285
C57_8 C 0.9922(6) 0.9258(5) 0.0095(4)
H37_8 H 0.996032 0.844534 0.0336873
C51_9 C 0.8652(5) 0.7629(5) 0.2122(5)
C52_9 C 0.8242(5) 0.7422(6) 0.2405(4)
C53_9 C 0.7723(7) 0.7602(9) 0.2357(6)
C54_9 C 0.7676(12) 0.815(1) 0.2182(13)
C55_9 C 0.8117(11) 0.8368(13) 0.1885(9)
C56_9 C 0.7277(7) 0.7398(9) 0.2643(6)
C57_9 C 0.6758(5) 0.7578(6) 0.2595(4)
C58_9 C 0.6348(5) 0.7371(5) 0.2878(5)
C59_9 C 0.6883(11) 0.6632(13) 0.3115(9)
C60_9 C 0.7324(12) 0.685(1) 0.2818(13)
H33_8 H 0.732469 0.839496 0.226715
H34_9 H 0.690376 0.623004 0.326946
H35_8 H 0.666534 0.788658 0.233238
H37_9 H 0.594534 0.753968 0.283687
H38_9 H 0.809624 0.876996 0.173054
H45_8 H 0.767531 0.660504 0.273285
H46_8 H 0.833466 0.711342 0.266762
H48_9 H 0.905466 0.746032 0.216313
W2_12 W 0.5000 0.2500 0.6250
I1_8 I 0.66177(4) 0.36769(4) 0.65214(4)
S5_8 S 0.49955(13) 0.32382(13) 0.67068(11)
S6_8 S 0.42618(13) 0.24955(13) 0.57932(11)
S7_8 S 0.50045(13) 0.17618(13) 0.67068(11)
S8_8 S 0.57382(13) 0.25045(13) 0.57932(11)
Cu10_7 Cu 0.41806(6) 0.32216(6) 0.63127(6)
Cu11_7 Cu 0.42784(6) 0.16806(6) 0.61873(6)
I2_8 I 0.38231(4) 0.41177(4) 0.59786(4)
N15_7 N 0.3585(4) 0.3014(5) 0.6809(5)
C51_10 C 0.3652(5) 0.2629(5) 0.7122(5)
C52_10 C 0.3242(5) 0.2422(6) 0.7405(4)
C53_10 C 0.2723(7) 0.2602(9) 0.7357(6)
C54_10 C 0.2676(12) 0.315(1) 0.7182(13)
C55_10 C 0.3117(11) 0.3368(13) 0.6885(9)
C56_10 C 0.2277(7) 0.2398(9) 0.7643(6)
C57_10 C 0.1758(5) 0.2578(6) 0.7595(4)
C58_10 C 0.1348(5) 0.2371(5) 0.7878(5)
C59_10 C 0.1883(11) 0.1632(13) 0.8115(9)
C60_10 C 0.2324(12) 0.185(1) 0.7818(13)
I3_8 I 0.33823(4) 0.13231(4) 0.65214(4)
I4_8 I 0.61769(4) 0.08823(4) 0.59786(4)
N17_7 N 0.4486(5) 0.1085(4) 0.5691(5)
H33_9 H 0.232469 0.339496 0.726715
H34_10 H 0.190376 0.123004 0.826946
H35_9 H 0.166534 0.288658 0.733238
H37_10 H 0.0945337 0.253968 0.783687
H38_10 H 0.309624 0.376996 0.673054
H45_9 H 0.267531 0.160504 0.773285
H46_9 H 0.333466 0.211342 0.766762
H48_10 H 0.405466 0.246032 0.716313
C56_11 C 0.4898(9) 0.0223(7) 0.5143(6)
C57_11 C 0.5078(6) 0.0742(5) 0.5095(4)
C58_11 C 0.4871(5) 0.1152(5) 0.5378(5)
C59_11 C 0.4132(13) 0.0617(11) 0.5615(9)
C60_11 C 0.435(1) 0.0176(12) 0.5318(13)
H33_10 H 0.589496 0.0175307 0.476715
H34_11 H 0.373004 0.0596236 0.576946
H35_10 H 0.538658 0.0834661 0.483238
H37_11 H 0.503968 0.155466 0.533687
C51_11 C 0.5129(5) 0.8848(5) 0.4622(5)
C52_11 C 0.4922(6) 0.9258(5) 0.4905(4)
C53_11 C 0.5102(9) 0.9777(7) 0.4857(6)
C54_11 C 0.565(1) 0.9824(12) 0.4682(13)
C55_11 C 0.5868(13) 0.9383(11) 0.4385(9)
H38_11 H 0.626996 0.940376 0.423054
H45_10 H 0.410504 0.982469 0.523285
H46_10 H 0.461342 0.916534 0.516762
H48_11 H 0.496032 0.844534 0.466313
H45_11 H 0.0894957 0.0175307 0.0232848
H46_11 H 0.0386577 0.0834661 0.0167624
H33_11 H 0.910504 0.982469 0.976715
H35_11 H 0.961342 0.916534 0.983238
loop_
_geom_bond_atom_site_label_1
_geom_bond_atom_site_label_2
_geom_bond_site_symmetry_1
_geom_bond_site_symmetry_2
W1 S1 1_555 1_555
Cu1 S1 1_555 1_555
Cu2 S1 1_555 1_555
N1 Cu1 1_555 1_555
N2 Cu2 1_555 1_555
C1 N1 1_555 1_555
C2 C1 1_555 1_555
C3 C2 1_555 1_555
C4 C3 1_555 1_555
C5 N1 1_555 1_555
C6 N2 1_555 1_555
C7 C6 1_555 1_555
C8 C7 1_555 1_555
C9 C8 1_555 1_555
C10 N2 1_555 1_555
H1 C1 1_555 1_555
H2 C2 1_555 1_555
H3 C4 1_555 1_555
H4 C5 1_555 1_555
H5 C6 1_555 1_555
H6 C7 1_555 1_555
H8 C10 1_555 1_555
C11 C3 1_555 1_555
C12 C11 1_555 1_555
C13 C12 1_555 1_555
N3 C13 1_555 1_555
C14 N3 1_555 1_555
C15 C11 1_555 1_555
H9 C15 1_555 1_555
H10 C14 1_555 1_555
H11 C13 1_555 1_555
H12 C12 1_555 1_555
S2 W1 1_555 1_555
N5 Cu1 1_555 1_555
C21 N5 1_555 1_555
C22 C21 1_555 1_555
C23 C22 1_555 1_555
C24 C23 1_555 1_555
C25 N5 1_555 1_555
H17 C21 1_555 1_555
H18 C22 1_555 1_555
H19 C24 1_555 1_555
H20 C25 1_555 1_555
C26 C23 1_555 1_555
C27 C26 1_555 1_555
C28 C27 1_555 1_555
N6 C28 1_555 1_555
C29 N6 1_555 1_555
C30 C26 1_555 1_555
H21 C30 1_555 1_555
H22 C29 1_555 1_555
H23 C28 1_555 1_555
H24 C27 1_555 1_555
N7 Cu2 1_555 1_555
C31 N7 1_555 1_555
C32 C31 1_555 1_555
C33 C32 1_555 1_555
C34 C33 1_555 1_555
C35 N7 1_555 1_555
H25 C31 1_555 1_555
H26 C32 1_555 1_555
H27 C34 1_555 1_555
H28 C35 1_555 1_555
C36 C33 1_555 1_555
C37 C36 1_555 1_555
C38 C37 1_555 1_555
N8 C38 1_555 1_555
C39 N8 1_555 1_555
C40 C36 1_555 1_555
H29 C40 1_555 1_555
H30 C39 1_555 1_555
H31 C38 1_555 1_555
H32 C37 1_555 1_555
Cu5 N3 1_555 1_555
Cu7 N6 1_555 1_555
Cu8 N8 1_555 1_555
Cu1 S2 1_555 1_555
C4 C5 1_555 1_555
C9 C10 1_555 1_555
C14 C15 1_555 1_555
C24 C25 1_555 1_555
C29 C30 1_555 1_555
C34 C35 1_555 1_555
C39 C40 1_555 1_555
C17 C16 1_555 1_555
C18 C17 1_555 1_555
N4 C18 1_555 1_555
C19 N4 1_555 1_555
C20 C16 1_555 1_555
H14 C19 1_555 1_555
H15 C18 1_555 1_555
H16 C17 1_555 1_555
Cu6 N4 1_555 1_555
C19 C20 1_555 1_555
S3 W1_2 1_555 1_555
S4 W1_2 1_555 1_555
Cu3 S3 1_555 1_555
N9 Cu3 1_555 1_555
N10 Cu3 1_555 1_555
N11 Cu4 1_555 1_555
N12 Cu4 1_555 1_555
S3 Cu4 1_555 1_555
S4 Cu3 1_555 1_555
C12_2 C11_2 1_555 1_555
C13_2 C12_2 1_555 1_555
N3_2 C13_2 1_555 1_555
C14_2 N3_2 1_555 1_555
C15_2 C11_2 1_555 1_555
H9_2 C15_2 1_555 1_555
H10_2 C14_2 1_555 1_555
H11_2 C13_2 1_555 1_555
Cu5_2 N3_2 1_555 1_555
C14_2 C15_2 1_555 1_555
W1_3 S1_2 1_555 1_555
Cu1_2 S1_2 1_555 1_555
Cu2_2 S1_2 1_555 1_555
N1_2 Cu1_2 1_555 1_555
N2_2 Cu2_2 1_555 1_555
C1_2 N1_2 1_555 1_555
C2_2 C1_2 1_555 1_555
C3_2 C2_2 1_555 1_555
C4_2 C3_2 1_555 1_555
C5_2 N1_2 1_555 1_555
C6_2 N2_2 1_555 1_555
C7_2 C6_2 1_555 1_555
C8_2 C7_2 1_555 1_555
C9_2 C8_2 1_555 1_555
C10_2 N2_2 1_555 1_555
H1_2 C1_2 1_555 1_555
H3_2 C4_2 1_555 1_555
H4_2 C5_2 1_555 1_555
H5_2 C6_2 1_555 1_555
H6_2 C7_2 1_555 1_555
H7_2 C9_2 1_555 1_555
H8_2 C10_2 1_555 1_555
C16_2 C8_2 1_555 1_555
C17_2 C16_2 1_555 1_555
C18_2 C17_2 1_555 1_555
N4_2 C18_2 1_555 1_555
C19_2 N4_2 1_555 1_555
C20_2 C16_2 1_555 1_555
H13_2 C20_2 1_555 1_555
H14_2 C19_2 1_555 1_555
H15_2 C18_2 1_555 1_555
H16_2 C17_2 1_555 1_555
S2_2 W1_3 1_555 1_555
S3_2 W1_3 1_555 1_555
S4_2 W1_3 1_555 1_555
Cu3_2 S3_2 1_555 1_555
Cu4_2 S2_2 1_555 1_555
N5_2 Cu1_2 1_555 1_555
C21_2 N5_2 1_555 1_555
C22_2 C21_2 1_555 1_555
C23_2 C22_2 1_555 1_555
C24_2 C23_2 1_555 1_555
C25_2 N5_2 1_555 1_555
H17_2 C21_2 1_555 1_555
H18_2 C22_2 1_555 1_555
H20_2 C25_2 1_555 1_555
N7_2 Cu2_2 1_555 1_555
C31_2 N7_2 1_555 1_555
C32_2 C31_2 1_555 1_555
C33_2 C32_2 1_555 1_555
C34_2 C33_2 1_555 1_555
C35_2 N7_2 1_555 1_555
H25_2 C31_2 1_555 1_555
H27_2 C34_2 1_555 1_555
H28_2 C35_2 1_555 1_555
Cu6_2 N4_2 1_555 1_555
N9_2 Cu3_2 1_555 1_555
N10_2 Cu3_2 1_555 1_555
N11_2 Cu4_2 1_555 1_555
N12_2 Cu4_2 1_555 1_555
Cu1_2 S2_2 1_555 1_555
Cu2_2 S4_2 1_555 1_555
C4_2 C5_2 1_555 1_555
C9_2 C10_2 1_555 1_555
C19_2 C20_2 1_555 1_555
S3_2 Cu4_2 1_555 1_555
S4_2 Cu3_2 1_555 1_555
C24_2 C25_2 1_555 1_555
C34_2 C35_2 1_555 1_555
C27_2 C26_2 1_555 1_555
C28_2 C27_2 1_555 1_555
N6_2 C28_2 1_555 1_555
C29_2 N6_2 1_555 1_555
C30_2 C26_2 1_555 1_555
H22_2 C29_2 1_555 1_555
H23_2 C28_2 1_555 1_555
H24_2 C27_2 1_555 1_555
C37_2 C36_2 1_555 1_555
C38_2 C37_2 1_555 1_555
N8_2 C38_2 1_555 1_555
C39_2 N8_2 1_555 1_555
C40_2 C36_2 1_555 1_555
H29_2 C40_2 1_555 1_555
H30_2 C39_2 1_555 1_555
H31_2 C38_2 1_555 1_555
Cu7_2 N6_2 1_555 1_555
Cu8_2 N8_2 1_555 1_555
C29_2 C30_2 1_555 1_555
C39_2 C40_2 1_555 1_555
C17_3 C16_3 1_555 1_555
C18_3 C17_3 1_555 1_555
N11_2 C18_3 1_555 1_555
C19_3 N11_2 1_555 1_555
C20_3 C16_3 1_555 1_555
H13_3 C20_3 1_555 1_555
H14_3 C19_3 1_555 1_555
H15_3 C18_3 1_555 1_555
C19_3 C20_3 1_555 1_555
N2_3 Cu6 1_555 1_555
C6_3 N2_3 1_555 1_555
C7_3 C6_3 1_555 1_555
C8_3 C7_3 1_555 1_555
C9_3 C8_3 1_555 1_555
C10_3 N2_3 1_555 1_555
H5_3 C6_3 1_555 1_555
H7_3 C9_3 1_555 1_555
H8_3 C10_3 1_555 1_555
S3_3 W1_4 1_555 1_555
S4_3 W1_4 1_555 1_555
Cu5 S3_3 1_555 1_555
N9_3 Cu5 1_555 1_555
Cu6 S4_3 1_555 1_555
C9_3 C10_3 1_555 1_555
S4_3 Cu5 1_555 1_555
C27_3 C26_3 1_555 1_555
C28_3 C27_3 1_555 1_555
N9 C28_3 1_555 1_555
C29_3 N9 1_555 1_555
C30_3 C26_3 1_555 1_555
H21_3 C30_3 1_555 1_555
H22_3 C29_3 1_555 1_555
H23_3 C28_3 1_555 1_555
C29_3 C30_3 1_555 1_555
W1_5 S1_3 1_555 1_555
Cu7_2 S1_3 1_555 1_555
S2_3 W1_5 1_555 1_555
Cu8_2 S2_3 1_555 1_555
N5_3 Cu7_2 1_555 1_555
C21_3 N5_3 1_555 1_555
C22_3 C21_3 1_555 1_555
C23_3 C22_3 1_555 1_555
C24_3 C23_3 1_555 1_555
C25_3 N5_3 1_555 1_555
H17_3 C21_3 1_555 1_555
H19_3 C24_3 1_555 1_555
H20_3 C25_3 1_555 1_555
N11_3 Cu8_2 1_555 1_555
Cu7_2 S2_3 1_555 1_555
C24_3 C25_3 1_555 1_555
W1_6 S1_4 1_555 1_555
Cu5_2 S1_4 1_555 1_555
Cu8 S1_4 1_555 1_555
N1_3 Cu5_2 1_555 1_555
C1_3 N1_3 1_555 1_555
C2_3 C1_3 1_555 1_555
C3_3 C2_3 1_555 1_555
C4_3 C3_3 1_555 1_555
C5_3 N1_3 1_555 1_555
H1_3 C1_3 1_555 1_555
H2_3 C2_3 1_555 1_555
H3_3 C4_3 1_555 1_555
H4_3 C5_3 1_555 1_555
C11_3 C3_3 1_555 1_555
C12_3 C11_3 1_555 1_555
C13_3 C12_3 1_555 1_555
N10 C13_3 1_555 1_555
C14_3 N10 1_555 1_555
C15_3 C11_3 1_555 1_555
H9_3 C15_3 1_555 1_555
H10_3 C14_3 1_555 1_555
H11_3 C13_3 1_555 1_555
H12_3 C12_3 1_555 1_555
S2_4 W1_6 1_555 1_555
S3_4 W1_6 1_555 1_555
S4_4 W1_6 1_555 1_555
Cu7 S3_4 1_555 1_555
Cu6_2 S2_4 1_555 1_555
N7_3 Cu8 1_555 1_555
C31_3 N7_3 1_555 1_555
C32_3 C31_3 1_555 1_555
C33_3 C32_3 1_555 1_555
C34_3 C33_3 1_555 1_555
C35_3 N7_3 1_555 1_555
H25_3 C31_3 1_555 1_555
H26_3 C32_3 1_555 1_555
H28_3 C35_3 1_555 1_555
N10_3 Cu7 1_555 1_555
N12_3 Cu6_2 1_555 1_555
Cu5_2 S2_4 1_555 1_555
Cu8 S4_4 1_555 1_555
C4_3 C5_3 1_555 1_555
C14_3 C15_3 1_555 1_555
S3_4 Cu6_2 1_555 1_555
S4_4 Cu7 1_555 1_555
C34_3 C35_3 1_555 1_555
C37_3 C36_3 1_555 1_555
C38_3 C37_3 1_555 1_555
N12_2 C38_3 1_555 1_555
C39_3 N12_2 1_555 1_555
C40_3 C36_3 1_555 1_555
H30_3 C39_3 1_555 1_555
H31_3 C38_3 1_555 1_555
H32_3 C37_3 1_555 1_555
C39_3 C40_3 1_555 1_555
C6_4 N11 1_555 1_555
C7_4 C6_4 1_555 1_555
C8_4 C7_4 1_555 1_555
C9_4 C8_4 1_555 1_555
C10_4 N11 1_555 1_555
H5_4 C6_4 1_555 1_555
H6_4 C7_4 1_555 1_555
H7_4 C9_4 1_555 1_555
H8_4 C10_4 1_555 1_555
C16_4 C8_4 1_555 1_555
C17_4 C16_4 1_555 1_555
C18_4 C17_4 1_555 1_555
N12_3 C18_4 1_555 1_555
C19_4 N12_3 1_555 1_555
C20_4 C16_4 1_555 1_555
H13_4 C20_4 1_555 1_555
H14_4 C19_4 1_555 1_555
H15_4 C18_4 1_555 1_555
H16_4 C17_4 1_555 1_555
C31_4 N12 1_555 1_555
C32_4 C31_4 1_555 1_555
C33_4 C32_4 1_555 1_555
C34_4 C33_4 1_555 1_555
C35_4 N12 1_555 1_555
H25_4 C31_4 1_555 1_555
H26_4 C32_4 1_555 1_555
H27_4 C34_4 1_555 1_555
H28_4 C35_4 1_555 1_555
C36_4 C33_4 1_555 1_555
C37_4 C36_4 1_555 1_555
C38_4 C37_4 1_555 1_555
N11_3 C38_4 1_555 1_555
C39_4 N11_3 1_555 1_555
C40_4 C36_4 1_555 1_555
H29_4 C40_4 1_555 1_555
H30_4 C39_4 1_555 1_555
H31_4 C38_4 1_555 1_555
H32_4 C37_4 1_555 1_555
C9_4 C10_4 1_555 1_555
C19_4 C20_4 1_555 1_555
C34_4 C35_4 1_555 1_555
C39_4 C40_4 1_555 1_555
C21_4 N10_3 1_555 1_555
C22_4 C21_4 1_555 1_555
C23_4 C22_4 1_555 1_555
C24_4 C23_4 1_555 1_555
C25_4 N10_3 1_555 1_555
H17_4 C21_4 1_555 1_555
H18_4 C22_4 1_555 1_555
H19_4 C24_4 1_555 1_555
H20_4 C25_4 1_555 1_555
C26_4 C23_4 1_555 1_555
C27_4 C26_4 1_555 1_555
C28_4 C27_4 1_555 1_555
N9_2 C28_4 1_555 1_555
C29_4 N9_2 1_555 1_555
C30_4 C26_4 1_555 1_555
H21_4 C30_4 1_555 1_555
H22_4 C29_4 1_555 1_555
H23_4 C28_4 1_555 1_555
H24_4 C27_4 1_555 1_555
C24_4 C25_4 1_555 1_555
C29_4 C30_4 1_555 1_555
C21_5 N10_2 1_555 1_555
C22_5 C21_5 1_555 1_555
C23_5 C22_5 1_555 1_555
C24_5 C23_5 1_555 1_555
C25_5 N10_2 1_555 1_555
H17_5 C21_5 1_555 1_555
H18_5 C22_5 1_555 1_555
H20_5 C25_5 1_555 1_555
C24_5 C25_5 1_555 1_555
C27_5 C26_5 1_555 1_555
C28_5 C27_5 1_555 1_555
N9_3 C28_5 1_555 1_555
C29_5 N9_3 1_555 1_555
C30_5 C26_5 1_555 1_555
H22_5 C29_5 1_555 1_555
H23_5 C28_5 1_555 1_555
H24_5 C27_5 1_555 1_555
C29_5 C30_5 1_555 1_555
S3_5 W1_7 1_555 1_555
S4_5 W1_7 1_555 1_555
Cu3_3 S3_5 1_555 1_555
N9_4 Cu3_3 1_555 1_555
N10_4 Cu3_3 1_555 1_555
N11_4 Cu4_3 1_555 1_555
N12_4 Cu4_3 1_555 1_555
S3_5 Cu4_3 1_555 1_555
S4_5 Cu3_3 1_555 1_555
C17_5 C16_5 1_555 1_555
C18_5 C17_5 1_555 1_555
N4_3 C18_5 1_555 1_555
C19_5 N4_3 1_555 1_555
C20_5 C16_5 1_555 1_555
H14_5 C19_5 1_555 1_555
H15_5 C18_5 1_555 1_555
H16_5 C17_5 1_555 1_555
Cu6_3 N4_3 1_555 1_555
C19_5 C20_5 1_555 1_555
W1_8 S1_5 1_555 1_555
Cu1_3 S1_5 1_555 1_555
Cu2_3 S1_5 1_555 1_555
N1_4 Cu1_3 1_555 1_555
N2_4 Cu2_3 1_555 1_555
C1_4 N1_4 1_555 1_555
C2_4 C1_4 1_555 1_555
C3_4 C2_4 1_555 1_555
C4_4 C3_4 1_555 1_555
C5_4 N1_4 1_555 1_555
C6_5 N2_4 1_555 1_555
C7_5 C6_5 1_555 1_555
C8_5 C7_5 1_555 1_555
C9_5 C8_5 1_555 1_555
C10_5 N2_4 1_555 1_555
H1_4 C1_4 1_555 1_555
H2_4 C2_4 1_555 1_555
H3_4 C4_4 1_555 1_555
H4_4 C5_4 1_555 1_555
H5_5 C6_5 1_555 1_555
H6_5 C7_5 1_555 1_555
H8_5 C10_5 1_555 1_555
C11_4 C3_4 1_555 1_555
C12_4 C11_4 1_555 1_555
C13_4 C12_4 1_555 1_555
N3_3 C13_4 1_555 1_555
C14_4 N3_3 1_555 1_555
C15_4 C11_4 1_555 1_555
H9_4 C15_4 1_555 1_555
H10_4 C14_4 1_555 1_555
H11_4 C13_4 1_555 1_555
H12_4 C12_4 1_555 1_555
S2_5 W1_8 1_555 1_555
N5_4 Cu1_3 1_555 1_555
C21_6 N5_4 1_555 1_555
C22_6 C21_6 1_555 1_555
C23_6 C22_6 1_555 1_555
C24_6 C23_6 1_555 1_555
C25_6 N5_4 1_555 1_555
H17_6 C21_6 1_555 1_555
H18_6 C22_6 1_555 1_555
H19_6 C24_6 1_555 1_555
H20_6 C25_6 1_555 1_555
C26_6 C23_6 1_555 1_555
C27_6 C26_6 1_555 1_555
C28_6 C27_6 1_555 1_555
N6_3 C28_6 1_555 1_555
C29_6 N6_3 1_555 1_555
C30_6 C26_6 1_555 1_555
H21_6 C30_6 1_555 1_555
H22_6 C29_6 1_555 1_555
H23_6 C28_6 1_555 1_555
H24_6 C27_6 1_555 1_555
N7_4 Cu2_3 1_555 1_555
C31_5 N7_4 1_555 1_555
C32_5 C31_5 1_555 1_555
C33_5 C32_5 1_555 1_555
C34_5 C33_5 1_555 1_555
C35_5 N7_4 1_555 1_555
H25_5 C31_5 1_555 1_555
H26_5 C32_5 1_555 1_555
H27_5 C34_5 1_555 1_555
H28_5 C35_5 1_555 1_555
C36_5 C33_5 1_555 1_555
C37_5 C36_5 1_555 1_555
C38_5 C37_5 1_555 1_555
N8_3 C38_5 1_555 1_555
C39_5 N8_3 1_555 1_555
C40_5 C36_5 1_555 1_555
H29_5 C40_5 1_555 1_555
H30_5 C39_5 1_555 1_555
H31_5 C38_5 1_555 1_555
H32_5 C37_5 1_555 1_555
Cu5_3 N3_3 1_555 1_555
Cu7_3 N6_3 1_555 1_555
Cu8_3 N8_3 1_555 1_555
Cu1_3 S2_5 1_555 1_555
C4_4 C5_4 1_555 1_555
C9_5 C10_5 1_555 1_555
C14_4 C15_4 1_555 1_555
C24_6 C25_6 1_555 1_555
C29_6 C30_6 1_555 1_555
C34_5 C35_5 1_555 1_555
C39_5 C40_5 1_555 1_555
C27_7 C26_7 1_555 1_555
C28_7 C27_7 1_555 1_555
N6_4 C28_7 1_555 1_555
C29_7 N6_4 1_555 1_555
C30_7 C26_7 1_555 1_555
H22_7 C29_7 1_555 1_555
H23_7 C28_7 1_555 1_555
H24_7 C27_7 1_555 1_555
C37_6 C36_6 1_555 1_555
C38_6 C37_6 1_555 1_555
N8_4 C38_6 1_555 1_555
C39_6 N8_4 1_555 1_555
C40_6 C36_6 1_555 1_555
H29_6 C40_6 1_555 1_555
H30_6 C39_6 1_555 1_555
H31_6 C38_6 1_555 1_555
Cu7_4 N6_4 1_555 1_555
Cu8_4 N8_4 1_555 1_555
C29_7 C30_7 1_555 1_555
C39_6 C40_6 1_555 1_555
W1_9 S1_6 1_555 1_555
Cu1_4 S1_6 1_555 1_555
Cu2_4 S1_6 1_555 1_555
N1_5 Cu1_4 1_555 1_555
N2_5 Cu2_4 1_555 1_555
C1_5 N1_5 1_555 1_555
C2_5 C1_5 1_555 1_555
C3_5 C2_5 1_555 1_555
C4_5 C3_5 1_555 1_555
C5_5 N1_5 1_555 1_555
C6_6 N2_5 1_555 1_555
C7_6 C6_6 1_555 1_555
C8_6 C7_6 1_555 1_555
C9_6 C8_6 1_555 1_555
C10_6 N2_5 1_555 1_555
H1_5 C1_5 1_555 1_555
H3_5 C4_5 1_555 1_555
H4_5 C5_5 1_555 1_555
H5_6 C6_6 1_555 1_555
H6_6 C7_6 1_555 1_555
H7_6 C9_6 1_555 1_555
H8_6 C10_6 1_555 1_555
C16_6 C8_6 1_555 1_555
C17_6 C16_6 1_555 1_555
C18_6 C17_6 1_555 1_555
N4_4 C18_6 1_555 1_555
C19_6 N4_4 1_555 1_555
C20_6 C16_6 1_555 1_555
H13_6 C20_6 1_555 1_555
H14_6 C19_6 1_555 1_555
H15_6 C18_6 1_555 1_555
H16_6 C17_6 1_555 1_555
S2_6 W1_9 1_555 1_555
S3_6 W1_9 1_555 1_555
S4_6 W1_9 1_555 1_555
Cu3_4 S3_6 1_555 1_555
Cu4_4 S2_6 1_555 1_555
N5_5 Cu1_4 1_555 1_555
C21_7 N5_5 1_555 1_555
C22_7 C21_7 1_555 1_555
C23_7 C22_7 1_555 1_555
C24_7 C23_7 1_555 1_555
C25_7 N5_5 1_555 1_555
H17_7 C21_7 1_555 1_555
H18_7 C22_7 1_555 1_555
H20_7 C25_7 1_555 1_555
N7_5 Cu2_4 1_555 1_555
C31_6 N7_5 1_555 1_555
C32_6 C31_6 1_555 1_555
C33_6 C32_6 1_555 1_555
C34_6 C33_6 1_555 1_555
C35_6 N7_5 1_555 1_555
H25_6 C31_6 1_555 1_555
H27_6 C34_6 1_555 1_555
H28_6 C35_6 1_555 1_555
Cu6_4 N4_4 1_555 1_555
N9_5 Cu3_4 1_555 1_555
N10_5 Cu3_4 1_555 1_555
N11_5 Cu4_4 1_555 1_555
N12_5 Cu4_4 1_555 1_555
Cu1_4 S2_6 1_555 1_555
Cu2_4 S4_6 1_555 1_555
C4_5 C5_5 1_555 1_555
C9_6 C10_6 1_555 1_555
C19_6 C20_6 1_555 1_555
S3_6 Cu4_4 1_555 1_555
S4_6 Cu3_4 1_555 1_555
C24_7 C25_7 1_555 1_555
C34_6 C35_6 1_555 1_555
C12_5 C11_5 1_555 1_555
C13_5 C12_5 1_555 1_555
N3_4 C13_5 1_555 1_555
C14_5 N3_4 1_555 1_555
C15_5 C11_5 1_555 1_555
H9_5 C15_5 1_555 1_555
H10_5 C14_5 1_555 1_555
H11_5 C13_5 1_555 1_555
Cu5_4 N3_4 1_555 1_555
C14_5 C15_5 1_555 1_555
W1_10 S1_7 1_555 1_555
Cu7_4 S1_7 1_555 1_555
S2_7 W1_10 1_555 1_555
Cu8_4 S2_7 1_555 1_555
N5_6 Cu7_4 1_555 1_555
C21_8 N5_6 1_555 1_555
C22_8 C21_8 1_555 1_555
C23_8 C22_8 1_555 1_555
C24_8 C23_8 1_555 1_555
C25_8 N5_6 1_555 1_555
H17_8 C21_8 1_555 1_555
H19_8 C24_8 1_555 1_555
H20_8 C25_8 1_555 1_555
N11_6 Cu8_4 1_555 1_555
Cu7_4 S2_7 1_555 1_555
C24_8 C25_8 1_555 1_555
C27_8 C26_8 1_555 1_555
C28_8 C27_8 1_555 1_555
N9_4 C28_8 1_555 1_555
C29_8 N9_4 1_555 1_555
C30_8 C26_8 1_555 1_555
H21_8 C30_8 1_555 1_555
H22_8 C29_8 1_555 1_555
H23_8 C28_8 1_555 1_555
C29_8 C30_8 1_555 1_555
N2_6 Cu6_3 1_555 1_555
C6_7 N2_6 1_555 1_555
C7_7 C6_7 1_555 1_555
C8_7 C7_7 1_555 1_555
C9_7 C8_7 1_555 1_555
C10_7 N2_6 1_555 1_555
H5_7 C6_7 1_555 1_555
H7_7 C9_7 1_555 1_555
H8_7 C10_7 1_555 1_555
S3_7 W1_11 1_555 1_555
S4_7 W1_11 1_555 1_555
Cu5_3 S3_7 1_555 1_555
N9_6 Cu5_3 1_555 1_555
Cu6_3 S4_7 1_555 1_555
C9_7 C10_7 1_555 1_555
S4_7 Cu5_3 1_555 1_555
C17_7 C16_7 1_555 1_555
C18_7 C17_7 1_555 1_555
N11_5 C18_7 1_555 1_555
C19_7 N11_5 1_555 1_555
C20_7 C16_7 1_555 1_555
H13_7 C20_7 1_555 1_555
H14_7 C19_7 1_555 1_555
H15_7 C18_7 1_555 1_555
C19_7 C20_7 1_555 1_555
C37_7 C36_7 1_555 1_555
C38_7 C37_7 1_555 1_555
N12_5 C38_7 1_555 1_555
C39_7 N12_5 1_555 1_555
C40_7 C36_7 1_555 1_555
H30_7 C39_7 1_555 1_555
H31_7 C38_7 1_555 1_555
H32_7 C37_7 1_555 1_555
C39_7 C40_7 1_555 1_555
W1_12 S1_8 1_555 1_555
Cu5_4 S1_8 1_555 1_555
Cu8_3 S1_8 1_555 1_555
N1_6 Cu5_4 1_555 1_555
C1_6 N1_6 1_555 1_555
C2_6 C1_6 1_555 1_555
C3_6 C2_6 1_555 1_555
C4_6 C3_6 1_555 1_555
C5_6 N1_6 1_555 1_555
H1_6 C1_6 1_555 1_555
H2_6 C2_6 1_555 1_555
H3_6 C4_6 1_555 1_555
H4_6 C5_6 1_555 1_555
C11_6 C3_6 1_555 1_555
C12_6 C11_6 1_555 1_555
C13_6 C12_6 1_555 1_555
N10_4 C13_6 1_555 1_555
C14_6 N10_4 1_555 1_555
C15_6 C11_6 1_555 1_555
H9_6 C15_6 1_555 1_555
H10_6 C14_6 1_555 1_555
H11_6 C13_6 1_555 1_555
H12_6 C12_6 1_555 1_555
S2_8 W1_12 1_555 1_555
S3_8 W1_12 1_555 1_555
S4_8 W1_12 1_555 1_555
Cu7_3 S3_8 1_555 1_555
Cu6_4 S2_8 1_555 1_555
N7_6 Cu8_3 1_555 1_555
C31_7 N7_6 1_555 1_555
C32_7 C31_7 1_555 1_555
C33_7 C32_7 1_555 1_555
C34_7 C33_7 1_555 1_555
C35_7 N7_6 1_555 1_555
H25_7 C31_7 1_555 1_555
H26_7 C32_7 1_555 1_555
H28_7 C35_7 1_555 1_555
N10_6 Cu7_3 1_555 1_555
N12_6 Cu6_4 1_555 1_555
Cu5_4 S2_8 1_555 1_555
Cu8_3 S4_8 1_555 1_555
C4_6 C5_6 1_555 1_555
C14_6 C15_6 1_555 1_555
S3_8 Cu6_4 1_555 1_555
S4_8 Cu7_3 1_555 1_555
C34_7 C35_7 1_555 1_555
C6_8 N11_4 1_555 1_555
C7_8 C6_8 1_555 1_555
C8_8 C7_8 1_555 1_555
C9_8 C8_8 1_555 1_555
C10_8 N11_4 1_555 1_555
H5_8 C6_8 1_555 1_555
H6_8 C7_8 1_555 1_555
H7_8 C9_8 1_555 1_555
H8_8 C10_8 1_555 1_555
C16_8 C8_8 1_555 1_555
C17_8 C16_8 1_555 1_555
C18_8 C17_8 1_555 1_555
N12_6 C18_8 1_555 1_555
C19_8 N12_6 1_555 1_555
C20_8 C16_8 1_555 1_555
H13_8 C20_8 1_555 1_555
H14_8 C19_8 1_555 1_555
H15_8 C18_8 1_555 1_555
H16_8 C17_8 1_555 1_555
C31_8 N12_4 1_555 1_555
C32_8 C31_8 1_555 1_555
C33_8 C32_8 1_555 1_555
C34_8 C33_8 1_555 1_555
C35_8 N12_4 1_555 1_555
H25_8 C31_8 1_555 1_555
H26_8 C32_8 1_555 1_555
H27_8 C34_8 1_555 1_555
H28_8 C35_8 1_555 1_555
C36_8 C33_8 1_555 1_555
C37_8 C36_8 1_555 1_555
C38_8 C37_8 1_555 1_555
N11_6 C38_8 1_555 1_555
C39_8 N11_6 1_555 1_555
C40_8 C36_8 1_555 1_555
H29_8 C40_8 1_555 1_555
H30_8 C39_8 1_555 1_555
H31_8 C38_8 1_555 1_555
H32_8 C37_8 1_555 1_555
C9_8 C10_8 1_555 1_555
C19_8 C20_8 1_555 1_555
C34_8 C35_8 1_555 1_555
C39_8 C40_8 1_555 1_555
C21_9 N10_6 1_555 1_555
C22_9 C21_9 1_555 1_555
C23_9 C22_9 1_555 1_555
C24_9 C23_9 1_555 1_555
C25_9 N10_6 1_555 1_555
H17_9 C21_9 1_555 1_555
H18_9 C22_9 1_555 1_555
H19_9 C24_9 1_555 1_555
H20_9 C25_9 1_555 1_555
C26_9 C23_9 1_555 1_555
C27_9 C26_9 1_555 1_555
C28_9 C27_9 1_555 1_555
N9_5 C28_9 1_555 1_555
C29_9 N9_5 1_555 1_555
C30_9 C26_9 1_555 1_555
H21_9 C30_9 1_555 1_555
H22_9 C29_9 1_555 1_555
H23_9 C28_9 1_555 1_555
H24_9 C27_9 1_555 1_555
C24_9 C25_9 1_555 1_555
C29_9 C30_9 1_555 1_555
C27_10 C26_10 1_555 1_555
C28_10 C27_10 1_555 1_555
N9_6 C28_10 1_555 1_555
C29_10 N9_6 1_555 1_555
C30_10 C26_10 1_555 1_555
H22_10 C29_10 1_555 1_555
H23_10 C28_10 1_555 1_555
H24_10 C27_10 1_555 1_555
C29_10 C30_10 1_555 1_555
C21_10 N10_5 1_555 1_555
C22_10 C21_10 1_555 1_555
C23_10 C22_10 1_555 1_555
C24_10 C23_10 1_555 1_555
C25_10 N10_5 1_555 1_555
H17_10 C21_10 1_555 1_555
H18_10 C22_10 1_555 1_555
H20_10 C25_10 1_555 1_555
C24_10 C25_10 1_555 1_555
W2 S5 1_555 1_555
I1 Cu9 1_555 1_555
Cu9 S5 1_555 1_555
S5 Cu10 1_555 1_555
N13 Cu9 1_555 1_555
C41 N13 1_555 1_555
C42 C41 1_555 1_555
C43 C42 1_555 1_555
C44 C43 1_555 1_555
C45 N13 1_555 1_555
C46 C43 1_555 1_555
C47 C46 1_555 1_555
C48 C47 1_555 1_555
N14 C48 1_555 1_555
C49 N14 1_555 1_555
C50 C46 1_555 1_555
S6 W2 1_555 1_555
S7 W2 1_555 1_555
S8 W2 1_555 1_555
Cu10 S6 1_555 1_555
Cu11 S6 1_555 1_555
Cu12 S7 1_555 1_555
I2 Cu10 1_555 1_555
N15 Cu10 1_555 1_555
C51 N15 1_555 1_555
C52 C51 1_555 1_555
C53 C52 1_555 1_555
C54 C53 1_555 1_555
C55 N15 1_555 1_555
I3 Cu11 1_555 1_555
I4 Cu12 1_555 1_555
Cu13 N14 1_555 1_555
N17 Cu11 1_555 1_555
N18 Cu12 1_555 1_555
Cu9 S8 1_555 1_555
C44 C45 1_555 1_555
C49 C50 1_555 1_555
S7 Cu11 1_555 1_555
S8 Cu12 1_555 1_555
C54 C55 1_555 1_555
C54 H33 1_555 1_555
C50 H36 1_555 1_555
C55 H38 1_555 1_555
C41 H39 1_555 1_555
C48 H40 1_555 1_555
C45 H41 1_555 1_555
C49 H42 1_555 1_555
C42 H43 1_555 1_555
C47 H44 1_555 1_555
C44 H47 1_555 1_555
C51 H48 1_555 1_555
C57 C56 1_555 1_555
C58 C57 1_555 1_555
N16 C58 1_555 1_555
C59 N16 1_555 1_555
C60 C56 1_555 1_555
Cu14 N16 1_555 1_555
C59 C60 1_555 1_555
C59 H34 1_555 1_555
C58 H37 1_555 1_555
C60 H45 1_555 1_555
N16_2 C58_2 1_555 1_555
C59_2 N16_2 1_555 1_555
C60_2 C56_2 1_555 1_555
Cu14_2 N16_2 1_555 1_555
C59_2 C60_2 1_555 1_555
C59_2 H34_2 1_555 1_555
S6_2 W2_2 1_555 1_555
S7_2 W2_2 1_555 1_555
Cu11_2 S6_2 1_555 1_555
Cu12_2 S7_2 1_555 1_555
I3_2 Cu11_2 1_555 1_555
I4_2 Cu12_2 1_555 1_555
N17_2 Cu11_2 1_555 1_555
N18_2 Cu12_2 1_555 1_555
S7_2 Cu11_2 1_555 1_555
C52_2 H46_2 1_555 1_555
C57_2 H35_2 1_555 1_555
W2_3 S5_2 1_555 1_555
I1_2 Cu9_2 1_555 1_555
Cu9_2 S5_2 1_555 1_555
S5_2 Cu10_2 1_555 1_555
N13_2 Cu9_2 1_555 1_555
C41_2 N13_2 1_555 1_555
C42_2 C41_2 1_555 1_555
C43_2 C42_2 1_555 1_555
C44_2 C43_2 1_555 1_555
C45_2 N13_2 1_555 1_555
C46_2 C43_2 1_555 1_555
C47_2 C46_2 1_555 1_555
C48_2 C47_2 1_555 1_555
N14_2 C48_2 1_555 1_555
C49_2 N14_2 1_555 1_555
C50_2 C46_2 1_555 1_555
S8_2 W2_3 1_555 1_555
I2_2 Cu10_2 1_555 1_555
N15_2 Cu10_2 1_555 1_555
C51_2 N15_2 1_555 1_555
C54_2 C53_2 1_555 1_555
C55_2 N15_2 1_555 1_555
Cu13_2 N14_2 1_555 1_555
Cu9_2 S8_2 1_555 1_555
C44_2 C45_2 1_555 1_555
C49_2 C50_2 1_555 1_555
C54_2 C55_2 1_555 1_555
C50_2 H36_2 1_555 1_555
C55_2 H38_2 1_555 1_555
C41_2 H39_2 1_555 1_555
C48_2 H40_2 1_555 1_555
C45_2 H41_2 1_555 1_555
C49_2 H42_2 1_555 1_555
C42_2 H43_2 1_555 1_555
C47_2 H44_2 1_555 1_555
C44_2 H47_2 1_555 1_555
I1_3 Cu14_2 1_555 1_555
S7_3 W2_4 1_555 1_555
S8_3 W2_4 1_555 1_555
Cu13 S7_3 1_555 1_555
I4_3 Cu13 1_555 1_555
Cu14_2 S8_3 1_555 1_555
S8_3 Cu13 1_555 1_555
W2_5 S5_3 1_555 1_555
S5_3 Cu10_3 1_555 1_555
S6_3 W2_5 1_555 1_555
Cu10_3 S6_3 1_555 1_555
Cu11_3 S6_3 1_555 1_555
I2_3 Cu10_3 1_555 1_555
N15_3 Cu10_3 1_555 1_555
C51_3 N15_3 1_555 1_555
C52_3 C51_3 1_555 1_555
C53_3 C52_3 1_555 1_555
C54_3 C53_3 1_555 1_555
C55_3 N15_3 1_555 1_555
C56_3 C53_3 1_555 1_555
C57_3 C56_3 1_555 1_555
C58_3 C57_3 1_555 1_555
N17 C58_3 1_555 1_555
C59_3 N17 1_555 1_555
C60_3 C56_3 1_555 1_555
I3_3 Cu11_3 1_555 1_555
N17_3 Cu11_3 1_555 1_555
C54_3 C55_3 1_555 1_555
C59_3 C60_3 1_555 1_555
C54_3 H33_3 1_555 1_555
C59_3 H34_3 1_555 1_555
C57_3 H35_3 1_555 1_555
C58_3 H37_3 1_555 1_555
C55_3 H38_3 1_555 1_555
C60_3 H45_3 1_555 1_555
C52_3 H46_3 1_555 1_555
C51_3 H48_3 1_555 1_555
C47_3 C46_3 1_555 1_555
C48_3 C47_3 1_555 1_555
N18 C48_3 1_555 1_555
C49_3 N18 1_555 1_555
C50_3 C46_3 1_555 1_555
C49_3 C50_3 1_555 1_555
C48_3 H40_3 1_555 1_555
C49_3 H42_3 1_555 1_555
W2_6 S5_4 1_555 1_555
I1_4 Cu9_3 1_555 1_555
Cu9_3 S5_4 1_555 1_555
S5_4 Cu13_2 1_555 1_555
N13_3 Cu9_3 1_555 1_555
C41_3 N13_3 1_555 1_555
C42_3 C41_3 1_555 1_555
C43_3 C42_3 1_555 1_555
C44_3 C43_3 1_555 1_555
C45_3 N13_3 1_555 1_555
S6_4 W2_6 1_555 1_555
S7_4 W2_6 1_555 1_555
S8_4 W2_6 1_555 1_555
Cu13_2 S6_4 1_555 1_555
Cu14 S6_4 1_555 1_555
Cu12_3 S7_4 1_555 1_555
I2_4 Cu13_2 1_555 1_555
I3_4 Cu14 1_555 1_555
I4_4 Cu12_3 1_555 1_555
N18_3 Cu12_3 1_555 1_555
Cu9_3 S8_4 1_555 1_555
C44_3 C45_3 1_555 1_555
S7_4 Cu14 1_555 1_555
S8_4 Cu12_3 1_555 1_555
C41_3 H39_3 1_555 1_555
C45_3 H41_3 1_555 1_555
C51_4 N18_3 1_555 1_555
C52_4 C51_4 1_555 1_555
C53_4 C52_4 1_555 1_555
C54_4 C53_4 1_555 1_555
C55_4 N18_3 1_555 1_555
C56_4 C53_4 1_555 1_555
C57_4 C56_4 1_555 1_555
C58_4 C57_4 1_555 1_555
N17_2 C58_4 1_555 1_555
C59_4 N17_2 1_555 1_555
C60_4 C56_4 1_555 1_555
C54_4 C55_4 1_555 1_555
C59_4 C60_4 1_555 1_555
C54_4 H33_4 1_555 1_555
C59_4 H34_4 1_555 1_555
C57_4 H35_4 1_555 1_555
C58_4 H37_4 1_555 1_555
C55_4 H38_4 1_555 1_555
C60_4 H45_4 1_555 1_555
C52_4 H46_4 1_555 1_555
C51_4 H48_4 1_555 1_555
C51_5 N18_2 1_555 1_555
C54_5 C53_5 1_555 1_555
C55_5 N18_2 1_555 1_555
C54_5 C55_5 1_555 1_555
C54_5 H33_5 1_555 1_555
C57_5 H35_5 1_555 1_555
C55_5 H38_5 1_555 1_555
N17_3 C58_5 1_555 1_555
C59_5 N17_3 1_555 1_555
C60_5 C56_5 1_555 1_555
C59_5 C60_5 1_555 1_555
C59_5 H34_5 1_555 1_555
C60_5 H45_5 1_555 1_555
C52_5 H46_5 1_555 1_555
W2_7 S5_5 1_555 1_555
S5_5 Cu10_4 1_555 1_555
S6_5 W2_7 1_555 1_555
Cu10_4 S6_5 1_555 1_555
Cu11_4 S6_5 1_555 1_555
I2_5 Cu10_4 1_555 1_555
N15_4 Cu10_4 1_555 1_555
C51_6 N15_4 1_555 1_555
C52_6 C51_6 1_555 1_555
C53_6 C52_6 1_555 1_555
C54_6 C53_6 1_555 1_555
C55_6 N15_4 1_555 1_555
C56_6 C53_6 1_555 1_555
C57_6 C56_6 1_555 1_555
C58_6 C57_6 1_555 1_555
N16_3 C58_6 1_555 1_555
C59_6 N16_3 1_555 1_555
C60_6 C56_6 1_555 1_555
I3_5 Cu11_4 1_555 1_555
N17_4 Cu11_4 1_555 1_555
Cu14_3 N16_3 1_555 1_555
C54_6 C55_6 1_555 1_555
C59_6 C60_6 1_555 1_555
C54_6 H33_6 1_555 1_555
C59_6 H34_6 1_555 1_555
C57_6 H35_6 1_555 1_555
C58_6 H37_6 1_555 1_555
C55_6 H38_6 1_555 1_555
C60_6 H45_6 1_555 1_555
C52_6 H46_6 1_555 1_555
C51_6 H48_6 1_555 1_555
N14_3 C48_4 1_555 1_555
C49_4 N14_3 1_555 1_555
C50_4 C46_4 1_555 1_555
Cu13_3 N14_3 1_555 1_555
C49_4 C50_4 1_555 1_555
C50_4 H36_4 1_555 1_555
C49_4 H42_4 1_555 1_555
I1_5 Cu9_4 1_555 1_555
N13_4 Cu9_4 1_555 1_555
C41_4 N13_4 1_555 1_555
C44_4 C43_4 1_555 1_555
C45_4 N13_4 1_555 1_555
S7_5 W2_8 1_555 1_555
S8_5 W2_8 1_555 1_555
Cu12_4 S7_5 1_555 1_555
I4_5 Cu12_4 1_555 1_555
N18_4 Cu12_4 1_555 1_555
Cu9_4 S8_5 1_555 1_555
C44_4 C45_4 1_555 1_555
S8_5 Cu12_4 1_555 1_555
C45_4 H41_4 1_555 1_555
C44_4 H47_4 1_555 1_555
W2_9 S5_6 1_555 1_555
I1_6 Cu14_3 1_555 1_555
Cu14_3 S5_6 1_555 1_555
S5_6 Cu10_5 1_555 1_555
S6_6 W2_9 1_555 1_555
S7_6 W2_9 1_555 1_555
S8_6 W2_9 1_555 1_555
Cu10_5 S6_6 1_555 1_555
Cu11_5 S6_6 1_555 1_555
Cu12_5 S7_6 1_555 1_555
I2_6 Cu10_5 1_555 1_555
N15_5 Cu10_5 1_555 1_555
C51_7 N15_5 1_555 1_555
C52_7 C51_7 1_555 1_555
C53_7 C52_7 1_555 1_555
C54_7 C53_7 1_555 1_555
C55_7 N15_5 1_555 1_555
C56_7 C53_7 1_555 1_555
C57_7 C56_7 1_555 1_555
C58_7 C57_7 1_555 1_555
N16_4 C58_7 1_555 1_555
C59_7 N16_4 1_555 1_555
C60_7 C56_7 1_555 1_555
I3_6 Cu11_5 1_555 1_555
I4_6 Cu12_5 1_555 1_555
N17_5 Cu11_5 1_555 1_555
N18_5 Cu12_5 1_555 1_555
Cu14_4 N16_4 1_555 1_555
Cu14_3 S8_6 1_555 1_555
S7_6 Cu11_5 1_555 1_555
S8_6 Cu12_5 1_555 1_555
C54_7 C55_7 1_555 1_555
C59_7 C60_7 1_555 1_555
C54_7 H33_7 1_555 1_555
C59_7 H34_7 1_555 1_555
C57_7 H35_7 1_555 1_555
C58_7 H37_7 1_555 1_555
C55_7 H38_7 1_555 1_555
C60_7 H45_7 1_555 1_555
C52_7 H46_7 1_555 1_555
C51_7 H48_7 1_555 1_555
S6_7 W2_10 1_555 1_555
S7_7 W2_10 1_555 1_555
Cu11_6 S6_7 1_555 1_555
Cu13_3 S7_7 1_555 1_555
I3_7 Cu11_6 1_555 1_555
I4_7 Cu13_3 1_555 1_555
N17_6 Cu11_6 1_555 1_555
S7_7 Cu11_6 1_555 1_555
N17_4 C58_8 1_555 1_555
C59_8 N17_4 1_555 1_555
C60_8 C56_8 1_555 1_555
C59_8 C60_8 1_555 1_555
C59_8 H34_8 1_555 1_555
W2_11 S5_7 1_555 1_555
I1_7 Cu9_5 1_555 1_555
Cu9_5 S5_7 1_555 1_555
S5_7 Cu10_6 1_555 1_555
N13_5 Cu9_5 1_555 1_555
C41_5 N13_5 1_555 1_555
C42_5 C41_5 1_555 1_555
C43_5 C42_5 1_555 1_555
C44_5 C43_5 1_555 1_555
C45_5 N13_5 1_555 1_555
C46_5 C43_5 1_555 1_555
C47_5 C46_5 1_555 1_555
C48_5 C47_5 1_555 1_555
N14_4 C48_5 1_555 1_555
C49_5 N14_4 1_555 1_555
C50_5 C46_5 1_555 1_555
S8_7 W2_11 1_555 1_555
I2_7 Cu10_6 1_555 1_555
N15_6 Cu10_6 1_555 1_555
C51_8 N15_6 1_555 1_555
C54_8 C53_8 1_555 1_555
C55_8 N15_6 1_555 1_555
Cu13_4 N14_4 1_555 1_555
Cu9_5 S8_7 1_555 1_555
C44_5 C45_5 1_555 1_555
C49_5 C50_5 1_555 1_555
C54_8 C55_8 1_555 1_555
C50_5 H36_5 1_555 1_555
C55_8 H38_8 1_555 1_555
C41_5 H39_5 1_555 1_555
C48_5 H40_5 1_555 1_555
C45_5 H41_5 1_555 1_555
C49_5 H42_5 1_555 1_555
C42_5 H43_5 1_555 1_555
C47_5 H44_5 1_555 1_555
C44_5 H47_5 1_555 1_555
C51_9 N18_4 1_555 1_555
C52_9 C51_9 1_555 1_555
C53_9 C52_9 1_555 1_555
C54_9 C53_9 1_555 1_555
C55_9 N18_4 1_555 1_555
C56_9 C53_9 1_555 1_555
C57_9 C56_9 1_555 1_555
C58_9 C57_9 1_555 1_555
N17_5 C58_9 1_555 1_555
C59_9 N17_5 1_555 1_555
C60_9 C56_9 1_555 1_555
C54_9 C55_9 1_555 1_555
C59_9 C60_9 1_555 1_555
C54_9 H33_8 1_555 1_555
C59_9 H34_9 1_555 1_555
C57_9 H35_8 1_555 1_555
C58_9 H37_9 1_555 1_555
C55_9 H38_9 1_555 1_555
C60_9 H45_8 1_555 1_555
C52_9 H46_8 1_555 1_555
C51_9 H48_9 1_555 1_555
W2_12 S5_8 1_555 1_555
I1_8 Cu14_4 1_555 1_555
Cu14_4 S5_8 1_555 1_555
S5_8 Cu10_7 1_555 1_555
S6_8 W2_12 1_555 1_555
S7_8 W2_12 1_555 1_555
S8_8 W2_12 1_555 1_555
Cu10_7 S6_8 1_555 1_555
Cu11_7 S6_8 1_555 1_555
Cu13_4 S7_8 1_555 1_555
I2_8 Cu10_7 1_555 1_555
N15_7 Cu10_7 1_555 1_555
C51_10 N15_7 1_555 1_555
C52_10 C51_10 1_555 1_555
C53_10 C52_10 1_555 1_555
C54_10 C53_10 1_555 1_555
C55_10 N15_7 1_555 1_555
C56_10 C53_10 1_555 1_555
C57_10 C56_10 1_555 1_555
C58_10 C57_10 1_555 1_555
N17_6 C58_10 1_555 1_555
C59_10 N17_6 1_555 1_555
C60_10 C56_10 1_555 1_555
I3_8 Cu11_7 1_555 1_555
I4_8 Cu13_4 1_555 1_555
N17_7 Cu11_7 1_555 1_555
Cu14_4 S8_8 1_555 1_555
S7_8 Cu11_7 1_555 1_555
S8_8 Cu13_4 1_555 1_555
C54_10 C55_10 1_555 1_555
C59_10 C60_10 1_555 1_555
C54_10 H33_9 1_555 1_555
C59_10 H34_10 1_555 1_555
C57_10 H35_9 1_555 1_555
C58_10 H37_10 1_555 1_555
C55_10 H38_10 1_555 1_555
C60_10 H45_9 1_555 1_555
C52_10 H46_9 1_555 1_555
C51_10 H48_10 1_555 1_555
C57_11 C56_11 1_555 1_555
C58_11 C57_11 1_555 1_555
N17_7 C58_11 1_555 1_555
C59_11 N17_7 1_555 1_555
C60_11 C56_11 1_555 1_555
C59_11 C60_11 1_555 1_555
C59_11 H34_11 1_555 1_555
C57_11 H35_10 1_555 1_555
C58_11 H37_11 1_555 1_555
C51_11 N18_5 1_555 1_555
C52_11 C51_11 1_555 1_555
C53_11 C52_11 1_555 1_555
C54_11 C53_11 1_555 1_555
C55_11 N18_5 1_555 1_555
C54_11 C55_11 1_555 1_555
C55_11 H38_11 1_555 1_555
C52_11 H46_10 1_555 1_555
C51_11 H48_11 1_555 1_555

#END
