
###############################################################################
#
# This file contains modified crystal structure data generated from the
# MOF subset of the Cambridge Structural Database (CSD) v543 
# hosted by the Cambridge Crystallographic Data Centre (CCDC).
#
# This work is licensed under the Creative Commons
# Attribution-NonCommercial-ShareAlike 4.0 International License.
# To view a copy of this license, visit
# http://creativecommons.org/licenses/by-nc-sa/4.0/
# or send a letter to
# Creative Commons, PO Box 1866, Mountain View, CA 94042, USA.
#
# CIF created using the CSD Python API on 29 September 2022
# The structure has been converted into the P1 space group
# The structure has a 3D framework
# The original CSD entry IBOCIO is in the triclinic crystal system
# The framework has been calculated to contain at least 10.0% void space
# The void calculation uses a probe of radius 1.32A, grid spacing 0.4
#
###############################################################################

data_IBOCIO
_chemical_formula_moiety         '(C36 H36 N14 O18 P6 Zn6)n'
_symmetry_cell_setting           triclinic
_symmetry_space_group_name_H-M   'P 1'
_symmetry_Int_Tables_number      1
_space_group_name_Hall           'P 1'
loop_
_symmetry_equiv_pos_site_id
_symmetry_equiv_pos_as_xyz
1 x,y,z
_cell_length_a                   8.621(5)
_cell_length_b                   15.529(8)
_cell_length_c                   16.001(7)
_cell_angle_alpha                62.121(12)
_cell_angle_beta                 76.294(19)
_cell_angle_gamma                88.84(2)
_cell_volume                     1829.34
loop_
_atom_site_label
_atom_site_type_symbol
_atom_site_fract_x
_atom_site_fract_y
_atom_site_fract_z
H11 H 0.2418 0.5006 0.0053
C18 C 0.0270(4) 0.6354(3) 0.0316(2)
H18 H 0.0562 0.5765 0.0753
O11 O 0.0300(2) 0.14143(17) 0.46329(15)
O12 O 0.0364(2) 0.47052(17) 0.41235(15)
C7 C 0.4092(5) 0.5432(3) 0.8736(3)
H10 H 0.4651 0.4887 0.8844
C8 C 0.2856(5) 0.5491(3) 0.9413(3)
C9 C 0.3339(4) 0.6851(3) 0.8046(2)
H12 H 0.3261 0.7487 0.7582
C13 C 0.1096(3) 0.6831(3) 0.9330(2)
C14 C 0.0674(4) 0.7719(3) 0.8673(2)
H16 H 0.1258 0.8044 0.8022
N2 N 0.4390(3) 0.6291(2) 0.78736(18)
N5 N 0.2394(3) 0.6412(2) 0.89574(18)
Zn6 Zn 0.57146(3) 0.68186(3) 0.64478(2)
C10 C 0.7906(6) 0.0353(4) 0.7593(3)
H13 H 0.7428 0.0926 0.7480
N3 N 0.8424(3) 0.0035(2) 0.69108(19)
Zn8 Zn 0.82266(4) 0.07120(2) 0.55355(2)
C1 C 0.4109(3) 0.2669(2) 0.5693(2)
H1 H 0.3818 0.2188 0.6381
H2 H 0.4038 0.3315 0.5644
C2 C 0.1526(3) 0.3015(2) 0.5271(2)
H3 H 0.1211 0.2985 0.5908
H4 H 0.0650 0.2693 0.5201
C3 C 0.2566(3) 0.1445(2) 0.5585(2)
H5 H 0.1667 0.1199 0.6161
H6 H 0.3477 0.1097 0.5773
C4 C 0.6233(3) 0.5780(3) 0.2994(2)
H7 H 0.5245 0.5664 0.3439
C5 C 0.6541(3) 0.6363(3) 0.2016(2)
H8 H 0.5825 0.6727 0.1667
C6 C 0.8732(3) 0.5724(3) 0.2397(2)
H9 H 0.9791 0.5578 0.2343
H17 H 0.7672 0.7942 0.0210
C17 C 0.8990(4) 0.6792(3) 0.0624(2)
N1 N 0.7612(3) 0.5384(2) 0.32264(17)
N4 N 0.8141(3) 0.6310(2) 0.16388(18)
N7 N 0.2968(2) 0.25070(18) 0.52008(17)
O1 O 0.6494(2) 0.15043(16) 0.55953(17)
O2 O 0.7266(2) 0.31723(16) 0.53357(15)
O3 O 0.6266(2) 0.30056(18) 0.40482(15)
O4 O 0.2327(3) 0.01661(18) 0.49253(19)
O6 O 0.3214(2) 0.19515(18) 0.36873(16)
O8 O 0.2832(2) 0.48604(16) 0.46433(15)
O9 O 0.2983(2) 0.42767(16) 0.34012(14)
P1 P 0.61696(8) 0.25692(6) 0.51338(5)
P2 P 0.20503(8) 0.12303(6) 0.46496(6)
P3 P 0.19245(8) 0.42996(5) 0.43104(5)
Zn1 Zn 0.80531(3) 0.45544(2) 0.45335(2)
Zn2 Zn 0.42854(3) 0.31814(3) 0.35522(2)
N8 N 0.5610(3) 0.3709(2) 0.21264(18)
O13 O 0.7168(2) 0.51396(16) 0.53567(15)
Zn5 Zn 0.19469(3) 0.54456(2) 0.54665(2)
O10 O 0.7673(3) 0.98339(18) 0.50747(19)
Zn9 Zn 0.17734(4) 0.92880(2) 0.44645(2)
C1_2 C 0.5891(3) 0.7331(2) 0.4307(2)
H1_2 H 0.6182 0.7812 0.3619
H2_2 H 0.5962 0.6685 0.4356
C2_2 C 0.8474(3) 0.6985(2) 0.4729(2)
H3_2 H 0.8789 0.7015 0.4092
H4_2 H 0.9350 0.7307 0.4799
C3_2 C 0.7434(3) 0.8555(2) 0.4415(2)
H5_2 H 0.8333 0.8801 0.3839
H6_2 H 0.6523 0.8903 0.4227
C4_2 C 0.3767(3) 0.4220(3) 0.7006(2)
H7_2 H 0.4755 0.4336 0.6561
C5_2 C 0.3459(3) 0.3637(3) 0.7984(2)
H8_2 H 0.4175 0.3273 0.8333
C6_2 C 0.1268(3) 0.4276(3) 0.7603(2)
H9_2 H 0.0209 0.4422 0.7657
H17_2 H 0.2328 0.2058 0.9790
C17_2 C 0.1010(4) 0.3208(3) 0.9376(2)
N1_2 N 0.2388(3) 0.4616(2) 0.67736(17)
N4_2 N 0.1859(3) 0.3690(2) 0.83612(18)
N7_2 N 0.7032(2) 0.74930(18) 0.47992(17)
O1_2 O 0.3506(2) 0.84957(16) 0.44047(17)
O2_2 O 0.2734(2) 0.68277(16) 0.46643(15)
O3_2 O 0.3734(2) 0.69944(18) 0.59518(15)
O5 O 0.9700(2) 0.85857(17) 0.53671(15)
O6_2 O 0.6786(2) 0.80485(18) 0.63127(16)
O7 O 0.9636(2) 0.52948(17) 0.58765(15)
O9_2 O 0.7017(2) 0.57233(16) 0.65988(14)
P1_2 P 0.38304(8) 0.74308(6) 0.48662(5)
P2_2 P 0.79497(8) 0.87697(6) 0.53504(6)
P3_2 P 0.80755(8) 0.57004(5) 0.56896(5)
N9 N 0.1576(3) 0.9965(2) 0.30892(19)
C10_2 C 0.2094(6) 0.9647(4) 0.2407(3)
H13_2 H 0.2572 0.9074 0.2520
C7_2 C 0.5908(5) 0.4568(3) 0.1264(3)
H10_2 H 0.5349 0.5113 0.1156
C8_2 C 0.7144(5) 0.4509(3) 0.0587(3)
C9_2 C 0.6661(4) 0.3149(3) 0.1954(2)
H12_2 H 0.6739 0.2513 0.2418
C13_2 C 0.8904(3) 0.3169(3) 0.0670(2)
C14_2 C 0.9326(4) 0.2281(3) 0.1327(2)
H16_2 H 0.8742 0.1956 0.1978
N5_2 N 0.7606(3) 0.3588(2) 0.10426(18)
H11_2 H 0.7582 0.4994 0.9947
C18_2 C 0.9730(4) 0.3646(3) 0.9684(2)
H18_2 H 0.9438 0.4235 0.9247
C11 C 0.8197(6) 0.9706(4) 0.8448(3)
H14 H 0.7960 0.9752 0.9023
C12 C 0.9028(4) 0.9211(3) 0.7377(2)
H15 H 0.9491 0.8835 0.7091
C15 C 0.9380(4) 0.8103(3) 0.9009(2)
C16 C 0.8526(4) 0.7660(3) 0.9990(2)
N6 N 0.8897(3) 0.8977(2) 0.83164(19)
C11_2 C 0.1803(6) 0.0294(4) 0.1552(3)
H14_2 H 0.2040 0.0248 0.0977
C12_2 C 0.0972(4) 0.0789(3) 0.2623(2)
H15_2 H 0.0509 0.1165 0.2909
C15_2 C 0.0620(4) 0.1897(3) 0.0991(2)
C16_2 C 0.1474(4) 0.2340(3) 0.0010(2)
N6_2 N 0.1103(3) 0.1023(2) 0.16836(19)
loop_
_geom_bond_atom_site_label_1
_geom_bond_atom_site_label_2
_geom_bond_site_symmetry_1
_geom_bond_site_symmetry_2
H18 C18 1_555 1_555
C7 H10 1_555 1_555
C8 C7 1_555 1_555
C9 H12 1_555 1_555
C13 C14 1_555 1_555
C14 H16 1_555 1_555
N2 C7 1_555 1_555
N5 C8 1_555 1_555
Zn6 N2 1_555 1_555
C9 N2 1_555 1_555
C9 N5 1_555 1_555
C13 N5 1_555 1_555
C10 H13 1_555 1_555
N3 C10 1_555 1_555
Zn8 N3 1_555 1_555
C1 H1 1_555 1_555
H2 C1 1_555 1_555
C2 H3 1_555 1_555
H4 C2 1_555 1_555
C3 H5 1_555 1_555
H6 C3 1_555 1_555
C4 H7 1_555 1_555
C5 C4 1_555 1_555
H8 C5 1_555 1_555
C6 H9 1_555 1_555
N1 C4 1_555 1_555
N4 C5 1_555 1_555
N7 C1 1_555 1_555
O1 P1 1_555 1_555
O2 P1 1_555 1_555
O3 P1 1_555 1_555
O4 P2 1_555 1_555
O11 P2 1_555 1_555
O6 P2 1_555 1_555
O12 P3 1_555 1_555
O8 P3 1_555 1_555
O9 P3 1_555 1_555
P1 C1 1_555 1_555
P2 C3 1_555 1_555
P3 C2 1_555 1_555
Zn1 N1 1_555 1_555
Zn2 N7 1_555 1_555
Zn8 O1 1_555 1_555
N8 Zn2 1_555 1_555
O13 Zn1 1_555 1_555
Zn5 O8 1_555 1_555
C2 N7 1_555 1_555
C3 N7 1_555 1_555
C6 N1 1_555 1_555
C6 N4 1_555 1_555
C17 N4 1_555 1_555
O2 Zn1 1_555 1_555
O3 Zn2 1_555 1_555
O6 Zn2 1_555 1_555
O9 Zn2 1_555 1_555
C1_2 H1_2 1_555 1_555
H2_2 C1_2 1_555 1_555
C2_2 H3_2 1_555 1_555
H4_2 C2_2 1_555 1_555
C3_2 H5_2 1_555 1_555
H6_2 C3_2 1_555 1_555
C4_2 H7_2 1_555 1_555
C5_2 C4_2 1_555 1_555
H8_2 C5_2 1_555 1_555
C6_2 H9_2 1_555 1_555
N1_2 C4_2 1_555 1_555
N4_2 C5_2 1_555 1_555
N7_2 C1_2 1_555 1_555
O1_2 P1_2 1_555 1_555
O2_2 P1_2 1_555 1_555
O3_2 P1_2 1_555 1_555
O10 P2_2 1_555 1_555
O5 P2_2 1_555 1_555
O6_2 P2_2 1_555 1_555
O7 P3_2 1_555 1_555
O13 P3_2 1_555 1_555
O9_2 P3_2 1_555 1_555
P1_2 C1_2 1_555 1_555
P2_2 C3_2 1_555 1_555
P3_2 C2_2 1_555 1_555
Zn5 N1_2 1_555 1_555
Zn6 N7_2 1_555 1_555
Zn9 O1_2 1_555 1_555
N9 Zn9 1_555 1_555
C2_2 N7_2 1_555 1_555
C3_2 N7_2 1_555 1_555
C6_2 N1_2 1_555 1_555
C6_2 N4_2 1_555 1_555
C17_2 N4_2 1_555 1_555
O2_2 Zn5 1_555 1_555
O3_2 Zn6 1_555 1_555
O6_2 Zn6 1_555 1_555
O9_2 Zn6 1_555 1_555
C10_2 H13_2 1_555 1_555
N9 C10_2 1_555 1_555
C7_2 H10_2 1_555 1_555
C8_2 C7_2 1_555 1_555
C9_2 H12_2 1_555 1_555
C13_2 C14_2 1_555 1_555
C14_2 H16_2 1_555 1_555
N8 C7_2 1_555 1_555
N5_2 C8_2 1_555 1_555
C9_2 N8 1_555 1_555
C9_2 N5_2 1_555 1_555
C13_2 N5_2 1_555 1_555
H18_2 C18_2 1_555 1_555
H14 C11 1_555 1_555
C12 H15 1_555 1_555
C16 C15 1_555 1_555
N6 C11 1_555 1_555
C12 N6 1_555 1_555
C15 N6 1_555 1_555
H14_2 C11_2 1_555 1_555
C12_2 H15_2 1_555 1_555
C16_2 C15_2 1_555 1_555
N6_2 C11_2 1_555 1_555
C12_2 N6_2 1_555 1_555
C15_2 N6_2 1_555 1_555

#END
