
###############################################################################
#
# This file contains modified crystal structure data generated from the
# MOF subset of the Cambridge Structural Database (CSD) v543 
# hosted by the Cambridge Crystallographic Data Centre (CCDC).
#
# This work is licensed under the Creative Commons
# Attribution-NonCommercial-ShareAlike 4.0 International License.
# To view a copy of this license, visit
# http://creativecommons.org/licenses/by-nc-sa/4.0/
# or send a letter to
# Creative Commons, PO Box 1866, Mountain View, CA 94042, USA.
#
# CIF created using the CSD Python API on 29 September 2022
# The structure has been converted into the P1 space group
# The structure has a 3D framework
# The original CSD entry IBOTIC is in the monoclinic crystal system
# The framework has been calculated to contain at least 10.0% void space
# The void calculation uses a probe of radius 1.32A, grid spacing 0.4
# The framework is charged, counterions have been retained in the structure
#
###############################################################################

data_IBOTIC
_chemical_formula_moiety         '(C256 H208 B4 Cl8 La4 N32 O62)n'
_symmetry_cell_setting           triclinic
_symmetry_space_group_name_H-M   'P 1'
_symmetry_Int_Tables_number      1
_space_group_name_Hall           'P 1'
loop_
_symmetry_equiv_pos_site_id
_symmetry_equiv_pos_as_xyz
1 x,y,z
_cell_length_a                   13.2242(11)
_cell_length_b                   38.366(3)
_cell_length_c                   13.2515(11)
_cell_angle_alpha                90
_cell_angle_beta                 99.752(1)
_cell_angle_gamma                90
_cell_volume                     6626.13
loop_
_atom_site_label
_atom_site_type_symbol
_atom_site_fract_x
_atom_site_fract_y
_atom_site_fract_z
O4 O 0.5578(3) 0.13942(11) 0.1565(3)
N4 N 0.5140(4) 0.16290(13) 0.0888(4)
C16 C 0.5529(5) 0.16918(17) 0.0037(5)
C19 C 0.3809(5) 0.20290(17) 0.0377(5)
H15 H 0.3201 0.2140 0.0503
C20 C 0.4304(5) 0.17956(17) 0.1071(5)
H16 H 0.4050 0.1752 0.1688
La3 La 0.74087(3) 0.125050(12) 0.22859(3)
O3 O 0.6906(3) 0.09557(11) 0.0591(3)
N3 N 0.6076(4) 0.07953(14) 0.0112(4)
C11 C 0.5422(5) 0.06407(17) 0.0643(5)
H9 H 0.5526 0.0664 0.1367
C12 C 0.4610(5) 0.04507(16) 0.0157(5)
H10 H 0.4155 0.0346 0.0550
O1 O 0.8149(3) 0.06467(11) 0.2677(3)
O2 O 0.7282(3) 0.18770(11) 0.1819(3)
O5 O 0.8792(3) 0.13218(11) 0.1229(3)
O8 O 0.6188(3) 0.08938(11) 0.3108(3)
N1 N 0.7630(4) 0.03623(14) 0.2310(5)
N2 N 0.7741(5) 0.21271(15) 0.2439(4)
N5 N 0.8645(4) 0.13530(14) 0.0217(4)
N6 N 0.0032(4) 0.12902(15) 0.3375(4)
N8 N 0.5220(4) 0.09599(14) 0.3233(4)
C1 C 0.7007(5) 0.02030(17) 0.2848(5)
H1 H 0.6997 0.0274 0.3533
C5 C 0.7725(5) 0.02461(17) 0.1366(5)
H4 H 0.8224 0.0344 0.1012
C6 C 0.7164(6) 0.23226(19) 0.2964(5)
H5 H 0.6444 0.2286 0.2875
C7 C 0.7612(5) 0.25764(17) 0.3628(5)
H6 H 0.7205 0.2711 0.4009
C8 C 0.8672(5) 0.26347(17) 0.3738(5)
C9 C 0.9223(5) 0.24314(16) 0.3176(5)
H7 H 0.9941 0.2467 0.3232
C10 C 0.8757(5) 0.21771(17) 0.2534(5)
H8 H 0.9152 0.2037 0.2157
C18 C 0.9195(5) 0.28958(16) 0.4484(5)
C19_2 C 0.8809(5) 0.29710(17) 0.5377(5)
H15_2 H 0.8201 0.2860 0.5503
C20_2 C 0.9304(5) 0.32044(17) 0.6071(5)
H16_2 H 0.9050 0.3248 0.6688
H17 H 0.8189 0.1848 0.0210
C26 C 0.0739(5) 0.15221(17) 0.3803(5)
H21 H 0.0529 0.1730 0.4099
C27 C 0.1772(5) 0.14598(17) 0.3812(5)
H22 H 0.2266 0.1625 0.4117
C28 C 0.2091(5) 0.11608(15) 0.3385(5)
C29 C 0.1332(5) 0.09296(17) 0.2939(5)
H23 H 0.1522 0.0721 0.2632
C30 C 0.0318(5) 0.09983(18) 0.2936(5)
C36 C 0.4953(5) 0.12734(19) 0.3541(4)
H29 H 0.5459 0.1449 0.3717
C37 C 0.3925(5) 0.13425(16) 0.3603(5)
H30 H 0.3736 0.1567 0.3812
C38 C 0.3184(5) 0.10883(17) 0.3363(5)
C39 C 0.3524(5) 0.07657(17) 0.3091(5)
H31 H 0.3044 0.0580 0.2950
C40 C 0.4526(5) 0.07057(17) 0.3020(5)
H32 H 0.4732 0.0482 0.2819
O9 O 0.7193(3) 0.15661(11) 0.3863(3)
O11 O 0.9046(3) 0.13536(11) 0.3402(3)
N7 N 0.7465(4) 0.15218(14) 0.4871(4)
C21 C 0.8299(5) 0.16557(18) 0.9789(5)
C22 C 0.8100(6) 0.16905(18) 0.8733(5)
H18 H 0.7857 0.1907 0.8437
C23 C 0.8251(5) 0.14142(17) 0.8104(5)
C24 C 0.8633(6) 0.11107(18) 0.8581(5)
H19 H 0.8767 0.0917 0.8179
C25 C 0.8822(5) 0.10842(19) 0.9634(6)
H20 H 0.9081 0.0872 0.9946
C31 C 0.7960(5) 0.12297(19) 0.5274(5)
H25 H 0.8124 0.1051 0.4831
C32 C 0.8224(5) 0.11908(17) 0.6310(5)
H26 H 0.8568 0.0985 0.6581
C33 C 0.7995(5) 0.14487(17) 0.6973(5)
C34 C 0.7488(6) 0.17425(18) 0.6526(5)
H27 H 0.7317 0.1925 0.6950
C35 C 0.7232(6) 0.17724(18) 0.5486(5)
H28 H 0.6882 0.1975 0.5198
H24 H 0.9811 0.0839 0.2622
La1 La 0.24087(3) 0.374950(12) 0.72859(3)
O1_2 O 0.3149(3) 0.43533(11) 0.7677(3)
O2_2 O 0.2282(3) 0.31230(11) 0.6819(3)
O5_2 O 0.3792(3) 0.36782(11) 0.6229(3)
O8_2 O 0.1188(3) 0.41062(11) 0.8108(3)
N1_2 N 0.2630(4) 0.46377(14) 0.7310(5)
N2_2 N 0.2741(5) 0.28729(15) 0.7439(4)
N5_2 N 0.3645(4) 0.36470(14) 0.5217(4)
N8_2 N 0.0220(4) 0.40401(14) 0.8233(4)
C1_2 C 0.2007(5) 0.47970(17) 0.7848(5)
H1_2 H 0.1997 0.4726 0.8533
C2 C 0.1380(5) 0.50622(16) 0.7434(5)
H2 H 0.0945 0.5173 0.7838
C3 C 0.1367(5) 0.51704(17) 0.6440(5)
C4 C 0.2084(5) 0.50184(17) 0.5925(5)
H3 H 0.2136 0.5097 0.5256
C5_2 C 0.2725(5) 0.47539(17) 0.6366(5)
H4_2 H 0.3224 0.4656 0.6012
C6_2 C 0.2164(6) 0.26774(19) 0.7964(5)
H5_2 H 0.1444 0.2714 0.7875
C7_2 C 0.2612(5) 0.24236(17) 0.8628(5)
H6_2 H 0.2205 0.2289 0.9009
C8_2 C 0.3672(5) 0.23653(17) 0.8738(5)
C9_2 C 0.4223(5) 0.25686(16) 0.8176(5)
H7_2 H 0.4941 0.2533 0.8232
C10_2 C 0.3757(5) 0.28229(17) 0.7534(5)
H8_2 H 0.4152 0.2963 0.7157
C12_2 C 0.0390(5) 0.54507(16) 0.4843(5)
H10_2 H 0.0845 0.5346 0.4450
C13 C 0.0566(5) 0.54075(17) 0.5899(5)
H11 H 0.0008 0.5577 0.7158
H13 H 0.6129 0.1572 0.9924
C17 C 0.5069(5) 0.19265(17) 0.9328(5)
H14 H 0.5350 0.1968 0.8725
C18_2 C 0.4195(5) 0.21042(16) 0.9484(5)
C21_2 C 0.3299(5) 0.33443(18) 0.4789(5)
H17_2 H 0.3189 0.3152 0.5210
C22_2 C 0.3100(6) 0.33095(18) 0.3733(5)
H18_2 H 0.2857 0.3093 0.3437
C23_2 C 0.3251(5) 0.35858(17) 0.3104(5)
C24_2 C 0.3633(6) 0.38893(18) 0.3581(5)
H19_2 H 0.3767 0.4083 0.3179
C25_2 C 0.3822(5) 0.39158(19) 0.4634(6)
H20_2 H 0.4081 0.4128 0.4946
C31_2 C 0.2960(5) 0.37703(19) 0.0274(5)
C32_2 C 0.3224(5) 0.38092(17) 0.1310(5)
H26_2 H 0.3568 0.4015 0.1581
C33_2 C 0.2995(5) 0.35513(17) 0.1973(5)
C34_2 C 0.2488(6) 0.32575(18) 0.1526(5)
H27_2 H 0.2317 0.3075 0.1950
C35_2 C 0.2232(6) 0.32276(18) 0.0486(5)
H28_2 H 0.1882 0.3025 0.0198
H29_2 H 0.0459 0.3551 0.8717
O9_2 O 0.2193(3) 0.34339(11) 0.8863(3)
O10 O 0.0578(3) 0.36058(11) 0.6565(3)
O11_2 O 0.4046(3) 0.36464(11) 0.8402(3)
O12 O 0.1906(3) 0.40443(11) 0.5591(3)
N7_2 N 0.2465(4) 0.34782(14) 0.9871(4)
H25_2 H 0.3124 0.3949 0.9831
O3_2 O 0.8094(3) 0.59557(11) 0.4409(3)
N3_2 N 0.8924(4) 0.57953(14) 0.4888(4)
N6_2 N 0.5032(4) 0.37098(15) 0.8375(4)
C11_2 C 0.9578(5) 0.56407(17) 0.4357(5)
H9_2 H 0.9474 0.5664 0.3633
C14 C 0.9900(5) 0.55859(17) 0.6431(5)
C15 C 0.9089(5) 0.57736(17) 0.5915(5)
H12 H 0.8637 0.5890 0.6289
C26_2 C 0.5739(5) 0.34779(17) 0.8803(5)
H21_2 H 0.5529 0.3270 0.9099
C27_2 C 0.6772(5) 0.35402(17) 0.8812(5)
H22_2 H 0.7266 0.3375 0.9117
C28_2 C 0.7091(5) 0.38392(15) 0.8385(5)
C29_2 C 0.6332(5) 0.40704(17) 0.7939(5)
H23_2 H 0.6522 0.4279 0.7632
C30_2 C 0.5318(5) 0.40017(18) 0.7936(5)
H24_2 H 0.4811 0.4161 0.7622
C36_2 C 0.9953(5) 0.37266(19) 0.8541(4)
C37_2 C 0.8925(5) 0.36575(16) 0.8603(5)
H30_2 H 0.8736 0.3433 0.8812
C38_2 C 0.8184(5) 0.39117(17) 0.8363(5)
C39_2 C 0.8524(5) 0.42343(17) 0.8091(5)
H31_2 H 0.8044 0.4420 0.7950
C40_2 C 0.9526(5) 0.42943(17) 0.8020(5)
H32_2 H 0.9732 0.4518 0.7819
La5 La 0.75913(3) 0.625050(12) 0.27141(3)
O4_2 O 0.9422(3) 0.63942(11) 0.3435(3)
N4_2 N 0.9860(4) 0.66290(13) 0.4112(4)
C16_2 C 0.9471(5) 0.66918(17) 0.4963(5)
H13_2 H 0.8871 0.6572 0.5076
C17_2 C 0.9931(5) 0.69265(17) 0.5672(5)
H14_2 H 0.9650 0.6968 0.6275
O6 O 0.5954(3) 0.63536(11) 0.1598(3)
N3_3 N 0.1076(4) 0.42047(14) 0.5112(4)
N6_3 N 0.4968(4) 0.62902(15) 0.1625(4)
C11_3 C 0.0422(5) 0.43593(17) 0.5643(5)
H9_3 H 0.0526 0.4336 0.6367
C14_2 C 0.0100(5) 0.44141(17) 0.3569(5)
C15_2 C 0.0911(5) 0.42264(17) 0.4085(5)
H12_2 H 0.1363 0.4110 0.3711
C26_3 C 0.4261(5) 0.65221(17) 0.1197(5)
H21_3 H 0.4471 0.6730 0.0901
C27_3 C 0.3228(5) 0.64598(17) 0.1188(5)
H22_3 H 0.2734 0.6625 0.0883
C28_3 C 0.2909(5) 0.61608(15) 0.1615(5)
C29_3 C 0.3668(5) 0.59296(17) 0.2061(5)
H23_3 H 0.3478 0.5721 0.2368
C30_3 C 0.4682(5) 0.59983(18) 0.2064(5)
H24_3 H 0.5189 0.5839 0.2378
C36_3 C 0.0047(5) 0.62734(19) 0.1459(4)
C37_3 C 0.1075(5) 0.63425(16) 0.1397(5)
H30_3 H 0.1264 0.6567 0.1188
C38_3 C 0.1816(5) 0.60883(17) 0.1637(5)
C39_3 C 0.1476(5) 0.57657(17) 0.1909(5)
H31_3 H 0.1956 0.5580 0.2050
C40_3 C 0.0474(5) 0.57057(17) 0.1980(5)
H32_3 H 0.0268 0.5482 0.2181
O7 O 0.7807(3) 0.65661(11) 0.1137(3)
N7_3 N 0.7535(4) 0.65218(14) 0.0129(4)
H25_3 H 0.6876 0.6051 0.0169
O1_3 O 0.6851(3) 0.56467(11) 0.2323(3)
O2_3 O 0.7718(3) 0.68770(11) 0.3181(3)
O5_3 O 0.6208(3) 0.63218(11) 0.3771(3)
O8_3 O 0.8812(3) 0.58938(11) 0.1892(3)
N1_3 N 0.7370(4) 0.53623(14) 0.2690(5)
N2_3 N 0.7259(5) 0.71271(15) 0.2561(4)
N5_3 N 0.6355(4) 0.63530(14) 0.4783(4)
N8_3 N 0.9780(4) 0.59599(14) 0.1767(4)
C1_3 C 0.7993(5) 0.52030(17) 0.2152(5)
H1_3 H 0.8003 0.5274 0.1467
C2_2 C 0.8620(5) 0.49378(16) 0.2566(5)
H2_2 H 0.9055 0.4827 0.2162
C3_2 C 0.8633(5) 0.48296(17) 0.3560(5)
C4_2 C 0.7916(5) 0.49816(17) 0.4075(5)
H3_2 H 0.7864 0.4903 0.4744
C5_3 C 0.7275(5) 0.52461(17) 0.3634(5)
H4_3 H 0.6776 0.5344 0.3988
C6_3 C 0.7836(6) 0.73226(19) 0.2036(5)
H5_3 H 0.8556 0.7286 0.2125
C7_3 C 0.7388(5) 0.75764(17) 0.1372(5)
H6_3 H 0.7795 0.7711 0.0991
C8_3 C 0.6328(5) 0.76347(17) 0.1262(5)
C9_3 C 0.5777(5) 0.74314(16) 0.1824(5)
H7_3 H 0.5059 0.7467 0.1768
C10_3 C 0.6243(5) 0.71771(17) 0.2466(5)
H8_3 H 0.5848 0.7037 0.2843
C12_3 C 0.9610(5) 0.45493(16) 0.5157(5)
H10_3 H 0.9155 0.4654 0.5550
C13_2 C 0.9434(5) 0.45925(17) 0.4101(5)
H11_2 H 0.9992 0.4423 0.2842
H13_3 H 0.3871 0.8428 0.0076
C17_3 C 0.4931(5) 0.80735(17) 0.0672(5)
H14_3 H 0.4650 0.8032 0.1275
C18_3 C 0.5805(5) 0.78958(16) 0.0516(5)
C21_3 C 0.6701(5) 0.66557(18) 0.5211(5)
H17_3 H 0.6811 0.6848 0.4790
C22_3 C 0.6900(6) 0.66905(18) 0.6267(5)
H18_3 H 0.7143 0.6907 0.6563
C23_3 C 0.6749(5) 0.64142(17) 0.6896(5)
C24_3 C 0.6367(6) 0.61107(18) 0.6419(5)
H19_3 H 0.6233 0.5917 0.6821
C25_3 C 0.6178(5) 0.60842(19) 0.5366(6)
H20_3 H 0.5919 0.5872 0.5054
C31_3 C 0.7040(5) 0.62297(19) 0.9726(5)
C32_3 C 0.6776(5) 0.61908(17) 0.8690(5)
H26_3 H 0.6432 0.5985 0.8419
C33_3 C 0.7005(5) 0.64487(17) 0.8027(5)
C34_3 C 0.7512(6) 0.67425(18) 0.8474(5)
H27_3 H 0.7683 0.6925 0.8050
C35_3 C 0.7768(6) 0.67724(18) 0.9514(5)
H28_3 H 0.8118 0.6975 0.9802
H29_3 H 0.9541 0.6449 0.1283
N4_3 N 0.0140(4) 0.33710(13) 0.5888(4)
C16_3 C 0.0529(5) 0.33082(17) 0.5037(5)
H13_4 H 0.1129 0.3428 0.4924
C17_4 C 0.0069(5) 0.30735(17) 0.4328(5)
H14_4 H 0.0350 0.3032 0.3725
O6_2 O 0.0954(3) 0.86464(11) 0.6598(3)
H24_4 H 0.0189 0.9161 0.7378
La4 La 0.25913(3) 0.874950(12) 0.77141(3)
O7_2 O 0.2807(3) 0.84339(11) 0.6137(3)
N7_4 N 0.2535(4) 0.84782(14) 0.5129(4)
C21_4 C 0.1701(5) 0.83443(18) 0.0211(5)
C22_4 C 0.1900(6) 0.83095(18) 0.1267(5)
H18_4 H 0.2143 0.8093 0.1563
C23_4 C 0.1749(5) 0.85858(17) 0.1896(5)
C24_4 C 0.1367(6) 0.88893(18) 0.1419(5)
H19_4 H 0.1233 0.9083 0.1821
C25_4 C 0.1178(5) 0.89158(19) 0.0366(6)
H20_4 H 0.0919 0.9128 0.0054
C31_4 C 0.2040(5) 0.87703(19) 0.4726(5)
H25_4 H 0.1876 0.8949 0.5169
C32_4 C 0.1776(5) 0.88092(17) 0.3690(5)
H26_4 H 0.1432 0.9015 0.3419
C33_4 C 0.2005(5) 0.85513(17) 0.3027(5)
C34_4 C 0.2512(6) 0.82575(18) 0.3474(5)
H27_4 H 0.2683 0.8075 0.3050
C35_4 C 0.2768(6) 0.82276(18) 0.4514(5)
H28_4 H 0.3118 0.8025 0.4802
O1_4 O 0.1851(3) 0.93533(11) 0.7323(3)
O2_4 O 0.2718(3) 0.81230(11) 0.8181(3)
O5_4 O 0.1208(3) 0.86782(11) 0.8771(3)
O8_4 O 0.3812(3) 0.91062(11) 0.6892(3)
N1_4 N 0.2370(4) 0.96377(14) 0.7690(5)
N2_4 N 0.2259(5) 0.78729(15) 0.7561(4)
N5_4 N 0.1355(4) 0.86470(14) 0.9783(4)
N6_4 N 0.9968(4) 0.87098(15) 0.6625(4)
N8_4 N 0.4780(4) 0.90401(14) 0.6767(4)
C1_4 C 0.2993(5) 0.97970(17) 0.7152(5)
H1_4 H 0.3003 0.9726 0.6467
C5_4 C 0.2275(5) 0.97539(17) 0.8634(5)
H4_4 H 0.1776 0.9656 0.8988
C6_4 C 0.2836(6) 0.76774(19) 0.7036(5)
H5_4 H 0.3556 0.7714 0.7125
C7_4 C 0.2388(5) 0.74236(17) 0.6372(5)
H6_4 H 0.2795 0.7289 0.5991
C8_4 C 0.1328(5) 0.73653(17) 0.6262(5)
C9_4 C 0.0777(5) 0.75686(16) 0.6824(5)
H7_4 H 0.0059 0.7533 0.6768
C10_4 C 0.1243(5) 0.78229(17) 0.7466(5)
H8_4 H 0.0848 0.7963 0.7843
C18_4 C 0.0805(5) 0.71042(16) 0.5516(5)
C19_3 C 0.1191(5) 0.70290(17) 0.4623(5)
H15_3 H 0.1799 0.7140 0.4497
C20_3 C 0.0696(5) 0.67956(17) 0.3929(5)
H16_3 H 0.0950 0.6752 0.3312
H17_4 H 0.1811 0.8152 0.9790
C26_4 C 0.9261(5) 0.84779(17) 0.6197(5)
H21_4 H 0.9471 0.8270 0.5901
C27_4 C 0.8228(5) 0.85402(17) 0.6188(5)
H22_4 H 0.7734 0.8375 0.5883
C28_4 C 0.7909(5) 0.88392(15) 0.6615(5)
C29_4 C 0.8668(5) 0.90704(17) 0.7061(5)
H23_4 H 0.8478 0.9279 0.7368
C30_4 C 0.9682(5) 0.90017(18) 0.7064(5)
C36_4 C 0.5047(5) 0.87266(19) 0.6459(4)
H29_4 H 0.4541 0.8551 0.6283
C37_4 C 0.6075(5) 0.86575(16) 0.6397(5)
H30_4 H 0.6264 0.8433 0.6188
C38_4 C 0.6816(5) 0.89117(17) 0.6637(5)
C39_4 C 0.6476(5) 0.92343(17) 0.6909(5)
H31_4 H 0.6956 0.9420 0.7050
C40_4 C 0.5474(5) 0.92943(17) 0.6980(5)
H32_4 H 0.5268 0.9518 0.7181
O10_2 O 0.4422(3) 0.86058(11) 0.8435(3)
O12_2 O 0.3094(3) 0.90443(11) 0.9409(3)
N4_4 N 0.4860(4) 0.83710(13) 0.9112(4)
C16_4 C 0.4471(5) 0.83082(17) 0.9963(5)
C19_4 C 0.6191(5) 0.79710(17) 0.9623(5)
H15_4 H 0.6799 0.7860 0.9497
C20_4 C 0.5696(5) 0.82044(17) 0.8929(5)
H16_4 H 0.5950 0.8248 0.8312
N3_4 N 0.3924(4) 0.92047(14) 0.9888(4)
C11_4 C 0.4578(5) 0.93593(17) 0.9357(5)
H9_4 H 0.4474 0.9336 0.8633
C12_4 C 0.5390(5) 0.95493(16) 0.9843(5)
H10_4 H 0.5845 0.9654 0.9450
C2_3 C 0.3620(5) 0.00622(16) 0.7566(5)
H2_3 H 0.4055 0.0173 0.7162
C3_3 C 0.3633(5) 0.01704(17) 0.8560(5)
C4_3 C 0.2916(5) 0.00184(17) 0.9075(5)
H3_3 H 0.2864 0.0097 0.9744
C13_3 C 0.4434(5) 0.04075(17) 0.9101(5)
C14_3 C 0.5100(5) 0.05859(17) 0.8569(5)
H11_3 H 0.4992 0.0577 0.7842
C15_3 C 0.5911(5) 0.07736(17) 0.9085(5)
H12_3 H 0.6363 0.0890 0.8711
C2_4 C 0.6380(5) 0.99378(16) 0.2434(5)
H2_4 H 0.5945 0.9827 0.2838
C3_4 C 0.6367(5) 0.98296(17) 0.1440(5)
C4_4 C 0.7084(5) 0.99816(17) 0.0925(5)
H3_4 H 0.7136 0.9903 0.0256
C13_4 C 0.5566(5) 0.95925(17) 0.0899(5)
C14_4 C 0.4900(5) 0.94141(17) 0.1431(5)
H11_4 H 0.5008 0.9423 0.2158
C15_4 C 0.4089(5) 0.92264(17) 0.0915(5)
H12_4 H 0.3637 0.9110 0.1289
Cl1 Cl 0.75024(16) 0.51640(5) 0.70061(15)
O13 O 0.6832(4) 0.49239(13) 0.7428(5)
O14 O 0.6996(4) 0.52975(13) 0.6041(4)
O15 O 0.7760(4) 0.54521(12) 0.7690(4)
O16 O 0.8424(4) 0.49777(13) 0.6882(4)
Cl1_2 Cl 0.74976(16) 0.01640(5) 0.79939(15)
O14_2 O 0.8004(4) 0.02975(13) 0.8959(4)
O15_2 O 0.7240(4) 0.04521(12) 0.7310(4)
O13_2 O 0.8168(4) 0.99239(13) 0.7572(5)
O16_2 O 0.6576(4) 0.99777(13) 0.8118(4)
Cl1_3 Cl 0.24976(16) 0.48360(5) 0.29939(15)
O13_3 O 0.3168(4) 0.50761(13) 0.2572(5)
O14_3 O 0.3004(4) 0.47025(13) 0.3959(4)
O15_3 O 0.2240(4) 0.45479(12) 0.2310(4)
O16_3 O 0.1576(4) 0.50223(13) 0.3118(4)
O13_4 O 0.1832(4) 0.00761(13) 0.2428(5)
O16_4 O 0.3424(4) 0.00223(13) 0.1882(4)
Cl1_4 Cl 0.25024(16) 0.98360(5) 0.20061(15)
O14_4 O 0.1996(4) 0.97025(13) 0.1041(4)
O15_4 O 0.2760(4) 0.95479(12) 0.2690(4)
Cl2 Cl 0.18737(16) 0.22989(5) 0.22076(15)
O17 O 0.0968(4) 0.20858(13) 0.2073(4)
O18 O 0.1990(4) 0.24597(12) 0.1246(4)
O19 O 0.2759(4) 0.20812(13) 0.2558(4)
O20 O 0.1782(4) 0.25693(13) 0.2953(4)
Cl2_2 Cl 0.31263(16) 0.72989(5) 0.27924(15)
O17_2 O 0.4032(4) 0.70858(13) 0.2927(4)
O18_2 O 0.3010(4) 0.74597(12) 0.3754(4)
O19_2 O 0.2241(4) 0.70812(13) 0.2442(4)
O20_2 O 0.3218(4) 0.75693(13) 0.2047(4)
Cl2_3 Cl 0.81263(16) 0.77011(5) 0.77924(15)
O17_3 O 0.9032(4) 0.79142(13) 0.7927(4)
O18_3 O 0.8010(4) 0.75403(12) 0.8754(4)
O19_3 O 0.7241(4) 0.79188(13) 0.7442(4)
O20_3 O 0.8218(4) 0.74307(13) 0.7047(4)
Cl2_4 Cl 0.68737(16) 0.27011(5) 0.72076(15)
O17_4 O 0.5968(4) 0.29142(13) 0.7073(4)
O18_4 O 0.6990(4) 0.25403(12) 0.6246(4)
O19_4 O 0.7759(4) 0.29188(13) 0.7558(4)
O20_4 O 0.6782(4) 0.24307(13) 0.7953(4)
H49 H 0.0895 0.1728 0.0141
C62 C 0.2039(6) 0.13765(19) 0.0584(6)
H50 H 0.2016 0.1387 0.1296
C63 C 0.2733(6) 0.1165(2) 0.0231(6)
H51 H 0.3196 0.1030 0.0701
B1 B 0.2045(6) 0.1268(2) 0.7217(6)
C41 C 0.1249(5) 0.09450(17) 0.6873(5)
C42 C 0.1034(6) 0.06869(19) 0.7540(6)
H33 H 0.1329 0.0705 0.8244
C43 C 0.0401(7) 0.0401(2) 0.7219(7)
H34 H 0.0275 0.0232 0.7708
C45 C 0.0156(7) 0.0611(2) 0.5522(6)
C46 C 0.0781(6) 0.08933(19) 0.5851(6)
H37 H 0.0899 0.1061 0.5357
C47 C 0.1641(6) 0.16314(17) 0.6598(5)
C48 C 0.0610(6) 0.17282(19) 0.6448(6)
H38 H 0.0127 0.1571 0.6651
C49 C 0.0262(7) 0.2043(2) 0.6016(6)
C50 C 0.0915(8) 0.2268(2) 0.5681(7)
H40 H 0.0671 0.2484 0.5387
C51 C 0.1936(8) 0.2182(2) 0.5766(6)
H41 H 0.2396 0.2338 0.5519
C52 C 0.2304(6) 0.18631(18) 0.6221(5)
H42 H 0.3009 0.1805 0.6270
C53 C 0.3187(5) 0.11766(18) 0.6964(5)
C54 C 0.3363(6) 0.09240(19) 0.6231(5)
H43 H 0.2810 0.0781 0.5923
C55 C 0.4331(6) 0.0880(2) 0.5947(6)
H44 H 0.4421 0.0711 0.5446
C56 C 0.5157(6) 0.1082(2) 0.6392(6)
H45 H 0.5812 0.1052 0.6200
C57 C 0.5016(6) 0.13251(18) 0.7118(6)
H46 H 0.5575 0.1466 0.7427
C58 C 0.4060(6) 0.13651(18) 0.7396(6)
H47 H 0.3993 0.1531 0.7912
C59 C 0.2095(6) 0.13337(17) 0.8462(5)
C60 C 0.1405(6) 0.15499(19) 0.8857(6)
H48 H 0.0937 0.1686 0.8393
C61 C 0.1371(6) 0.15757(19) 0.9903(6)
C64 C 0.2766(6) 0.11461(16) 0.9200(6)
H52 H 0.3264 0.1000 0.8979
C44 C 0.9955(7) 0.0360(2) 0.6199(7)
H35 H 0.9529 0.0165 0.5978
H36 H 0.9862 0.0592 0.4819
H39 H 0.9556 0.2101 0.5955
H36_2 H 0.5138 0.5592 0.0181
B1_2 B 0.2955(6) 0.6268(2) 0.7783(6)
C41_2 C 0.3751(5) 0.59450(17) 0.8127(5)
C42_2 C 0.3966(6) 0.56869(19) 0.7460(6)
H33_2 H 0.3671 0.5705 0.6756
C43_2 C 0.4599(7) 0.5401(2) 0.7781(7)
H34_2 H 0.4725 0.5232 0.7292
C44_2 C 0.5045(7) 0.5360(2) 0.8801(7)
H35_2 H 0.5471 0.5165 0.9022
C45_2 C 0.4844(7) 0.5611(2) 0.9478(6)
C46_2 C 0.4219(6) 0.58933(19) 0.9149(6)
H37_2 H 0.4101 0.6061 0.9643
C47_2 C 0.3359(6) 0.66314(17) 0.8402(5)
C48_2 C 0.4390(6) 0.67282(19) 0.8552(6)
H38_2 H 0.4873 0.6571 0.8349
C49_2 C 0.4738(7) 0.7043(2) 0.8984(6)
H39_2 H 0.5444 0.7101 0.9045
C50_2 C 0.4085(8) 0.7268(2) 0.9319(7)
H40_2 H 0.4329 0.7484 0.9613
C51_2 C 0.3064(8) 0.7182(2) 0.9234(6)
H41_2 H 0.2604 0.7338 0.9481
C52_2 C 0.2696(6) 0.68631(18) 0.8779(5)
H42_2 H 0.1991 0.6805 0.8730
C53_2 C 0.1813(5) 0.61766(18) 0.8036(5)
C54_2 C 0.1637(6) 0.59240(19) 0.8769(5)
H43_2 H 0.2190 0.5781 0.9077
C55_2 C 0.0669(6) 0.5880(2) 0.9053(6)
H44_2 H 0.0579 0.5711 0.9554
C58_2 C 0.0940(6) 0.63651(18) 0.7604(6)
H47_2 H 0.1007 0.6531 0.7088
C59_2 C 0.2905(6) 0.63337(17) 0.6538(5)
C60_2 C 0.3595(6) 0.65499(19) 0.6143(6)
H48_2 H 0.4063 0.6686 0.6607
C61_2 C 0.3629(6) 0.65757(19) 0.5097(6)
H49_2 H 0.4105 0.6728 0.4859
C62_2 C 0.2961(6) 0.63765(19) 0.4416(6)
H50_2 H 0.2984 0.6387 0.3704
C63_2 C 0.2267(6) 0.6165(2) 0.4769(6)
H51_2 H 0.1804 0.6030 0.4299
C64_2 C 0.2234(6) 0.61461(16) 0.5800(6)
H52_2 H 0.1736 0.6000 0.6021
C56_2 C 0.9843(6) 0.6082(2) 0.8608(6)
H45_2 H 0.9188 0.6052 0.8800
C57_2 C 0.9984(6) 0.63251(18) 0.7882(6)
H46_2 H 0.9425 0.6466 0.7573
C44_3 C 0.0045(7) 0.9640(2) 0.3801(7)
H35_3 H 0.0471 0.9835 0.4022
H36_3 H 0.0138 0.9408 0.5181
H39_3 H 0.0444 0.7899 0.4045
B1_3 B 0.7955(6) 0.8732(2) 0.2783(6)
C41_3 C 0.8751(5) 0.90550(17) 0.3127(5)
C42_3 C 0.8966(6) 0.93131(19) 0.2460(6)
H33_3 H 0.8671 0.9295 0.1756
C43_3 C 0.9599(7) 0.9599(2) 0.2781(7)
H34_3 H 0.9725 0.9768 0.2292
C45_3 C 0.9844(7) 0.9389(2) 0.4478(6)
C46_3 C 0.9219(6) 0.91067(19) 0.4149(6)
H37_3 H 0.9101 0.8939 0.4643
C47_3 C 0.8359(6) 0.83686(17) 0.3402(5)
C48_3 C 0.9390(6) 0.82718(19) 0.3552(6)
H38_3 H 0.9873 0.8429 0.3349
C49_3 C 0.9738(7) 0.7957(2) 0.3984(6)
C50_3 C 0.9085(8) 0.7732(2) 0.4319(7)
H40_3 H 0.9329 0.7516 0.4613
C51_3 C 0.8064(8) 0.7818(2) 0.4234(6)
H41_3 H 0.7604 0.7662 0.4481
C52_3 C 0.7696(6) 0.81369(18) 0.3779(5)
H42_3 H 0.6991 0.8195 0.3730
C53_3 C 0.6813(5) 0.88234(18) 0.3036(5)
C54_3 C 0.6637(6) 0.90760(19) 0.3769(5)
H43_3 H 0.7190 0.9219 0.4077
C55_3 C 0.5669(6) 0.9120(2) 0.4053(6)
H44_3 H 0.5579 0.9289 0.4554
C56_3 C 0.4843(6) 0.8918(2) 0.3608(6)
H45_3 H 0.4188 0.8948 0.3800
C57_3 C 0.4984(6) 0.86749(18) 0.2882(6)
H46_3 H 0.4425 0.8534 0.2573
C58_3 C 0.5940(6) 0.86349(18) 0.2604(6)
H47_3 H 0.6007 0.8469 0.2088
C59_3 C 0.7905(6) 0.86663(17) 0.1538(5)
C60_3 C 0.8595(6) 0.84501(19) 0.1143(6)
H48_3 H 0.9063 0.8314 0.1607
C61_3 C 0.8629(6) 0.84243(19) 0.0097(6)
C64_3 C 0.7234(6) 0.88539(16) 0.0800(6)
H52_3 H 0.6736 0.9000 0.1021
H49_3 H 0.9105 0.8272 0.9859
C62_3 C 0.7961(6) 0.86235(19) 0.9416(6)
H50_3 H 0.7984 0.8613 0.8704
C63_3 C 0.7267(6) 0.8835(2) 0.9769(6)
H51_3 H 0.6804 0.8970 0.9299
C56_4 C 0.0157(6) 0.3918(2) 0.1392(6)
H45_4 H 0.0812 0.3948 0.1200
C57_4 C 0.0016(6) 0.36749(18) 0.2118(6)
H46_4 H 0.0575 0.3534 0.2427
B1_4 B 0.7045(6) 0.3732(2) 0.2217(6)
C41_4 C 0.6249(5) 0.40550(17) 0.1873(5)
C42_4 C 0.6034(6) 0.43131(19) 0.2540(6)
H33_4 H 0.6329 0.4295 0.3244
C43_4 C 0.5401(7) 0.4599(2) 0.2219(7)
H34_4 H 0.5275 0.4768 0.2708
C44_4 C 0.4955(7) 0.4640(2) 0.1199(7)
H35_4 H 0.4529 0.4835 0.0978
C45_4 C 0.5156(7) 0.4389(2) 0.0522(6)
C46_4 C 0.5781(6) 0.41067(19) 0.0851(6)
H37_4 H 0.5899 0.3939 0.0357
C47_4 C 0.6641(6) 0.33686(17) 0.1598(5)
C48_4 C 0.5610(6) 0.32718(19) 0.1448(6)
H38_4 H 0.5127 0.3429 0.1651
C49_4 C 0.5262(7) 0.2957(2) 0.1016(6)
H39_4 H 0.4556 0.2899 0.0955
C50_4 C 0.5915(8) 0.2732(2) 0.0681(7)
H40_4 H 0.5671 0.2516 0.0387
C51_4 C 0.6936(8) 0.2818(2) 0.0766(6)
H41_4 H 0.7396 0.2662 0.0519
C52_4 C 0.7304(6) 0.31369(18) 0.1221(5)
H42_4 H 0.8009 0.3195 0.1270
C53_4 C 0.8187(5) 0.38234(18) 0.1964(5)
C54_4 C 0.8363(6) 0.40760(19) 0.1231(5)
H43_4 H 0.7810 0.4219 0.0923
C55_4 C 0.9331(6) 0.4120(2) 0.0947(6)
H44_4 H 0.9421 0.4289 0.0446
C58_4 C 0.9060(6) 0.36349(18) 0.2396(6)
H47_4 H 0.8993 0.3469 0.2912
C59_4 C 0.7095(6) 0.36663(17) 0.3462(5)
C60_4 C 0.6405(6) 0.34501(19) 0.3857(6)
H48_4 H 0.5937 0.3314 0.3393
C61_4 C 0.6371(6) 0.34243(19) 0.4903(6)
H49_4 H 0.5895 0.3272 0.5141
C62_4 C 0.7039(6) 0.36235(19) 0.5584(6)
H50_4 H 0.7016 0.3613 0.6296
C63_4 C 0.7733(6) 0.3835(2) 0.5231(6)
H51_4 H 0.8196 0.3970 0.5701
C64_4 C 0.7766(6) 0.38539(16) 0.4200(6)
H52_4 H 0.8264 0.4000 0.3979
H36_4 H 0.4862 0.4408 0.9819
loop_
_geom_bond_atom_site_label_1
_geom_bond_atom_site_label_2
_geom_bond_site_symmetry_1
_geom_bond_site_symmetry_2
O4 N4 1_555 1_555
N4 C16 1_555 1_555
H15 C19 1_555 1_555
C20 N4 1_555 1_555
H16 C20 1_555 1_555
La3 O4 1_555 1_555
C19 C20 1_555 1_555
O3 N3 1_555 1_555
N3 C11 1_555 1_555
C11 H9 1_555 1_555
C12 C11 1_555 1_555
H10 C12 1_555 1_555
La3 O3 1_555 1_555
La3 O1 1_555 1_555
O1 N1 1_555 1_555
O2 La3 1_555 1_555
O5 La3 1_555 1_555
O8 La3 1_555 1_555
N1 C1 1_555 1_555
N2 O2 1_555 1_555
N5 O5 1_555 1_555
N6 C26 1_555 1_555
N8 O8 1_555 1_555
C1 H1 1_555 1_555
C5 N1 1_555 1_555
H4 C5 1_555 1_555
C6 N2 1_555 1_555
H5 C6 1_555 1_555
C7 C6 1_555 1_555
H6 C7 1_555 1_555
C8 C7 1_555 1_555
C9 C8 1_555 1_555
H7 C9 1_555 1_555
C10 N2 1_555 1_555
H8 C10 1_555 1_555
C18 C8 1_555 1_555
C19_2 C18 1_555 1_555
H15_2 C19_2 1_555 1_555
H16_2 C20_2 1_555 1_555
C26 H21 1_555 1_555
C27 C26 1_555 1_555
H22 C27 1_555 1_555
C28 C27 1_555 1_555
C29 C28 1_555 1_555
H23 C29 1_555 1_555
C30 N6 1_555 1_555
C36 N8 1_555 1_555
H29 C36 1_555 1_555
C37 C36 1_555 1_555
H30 C37 1_555 1_555
C38 C28 1_555 1_555
C39 C38 1_555 1_555
H31 C39 1_555 1_555
C40 N8 1_555 1_555
H32 C40 1_555 1_555
O9 La3 1_555 1_555
O11 La3 1_555 1_555
C9 C10 1_555 1_555
C19_2 C20_2 1_555 1_555
C29 C30 1_555 1_555
C37 C38 1_555 1_555
C39 C40 1_555 1_555
O9 N7 1_555 1_555
N7 C31 1_555 1_555
C22 C21 1_555 1_555
H18 C22 1_555 1_555
C23 C22 1_555 1_555
C24 C23 1_555 1_555
H19 C24 1_555 1_555
H20 C25 1_555 1_555
C31 H25 1_555 1_555
C32 C31 1_555 1_555
H26 C32 1_555 1_555
C33 C23 1_555 1_555
C34 C33 1_555 1_555
H27 C34 1_555 1_555
C35 N7 1_555 1_555
H28 C35 1_555 1_555
C24 C25 1_555 1_555
C32 C33 1_555 1_555
C34 C35 1_555 1_555
La1 O1_2 1_555 1_555
O1_2 N1_2 1_555 1_555
O2_2 La1 1_555 1_555
O5_2 La1 1_555 1_555
O8_2 La1 1_555 1_555
N1_2 C1_2 1_555 1_555
N2_2 O2_2 1_555 1_555
N5_2 O5_2 1_555 1_555
N8_2 O8_2 1_555 1_555
C1_2 H1_2 1_555 1_555
C2 C1_2 1_555 1_555
H2 C2 1_555 1_555
C3 C2 1_555 1_555
C4 C3 1_555 1_555
H3 C4 1_555 1_555
C5_2 N1_2 1_555 1_555
H4_2 C5_2 1_555 1_555
C6_2 N2_2 1_555 1_555
H5_2 C6_2 1_555 1_555
C7_2 C6_2 1_555 1_555
H6_2 C7_2 1_555 1_555
C8_2 C7_2 1_555 1_555
C9_2 C8_2 1_555 1_555
H7_2 C9_2 1_555 1_555
C10_2 N2_2 1_555 1_555
H8_2 C10_2 1_555 1_555
H10_2 C12_2 1_555 1_555
C13 C3 1_555 1_555
H14 C17 1_555 1_555
C18_2 C8_2 1_555 1_555
C21_2 N5_2 1_555 1_555
H17_2 C21_2 1_555 1_555
C22_2 C21_2 1_555 1_555
H18_2 C22_2 1_555 1_555
C23_2 C22_2 1_555 1_555
C24_2 C23_2 1_555 1_555
H19_2 C24_2 1_555 1_555
C25_2 N5_2 1_555 1_555
H20_2 C25_2 1_555 1_555
C32_2 C31_2 1_555 1_555
H26_2 C32_2 1_555 1_555
C33_2 C23_2 1_555 1_555
C34_2 C33_2 1_555 1_555
H27_2 C34_2 1_555 1_555
H28_2 C35_2 1_555 1_555
O9_2 La1 1_555 1_555
O10 La1 1_555 1_555
O11_2 La1 1_555 1_555
O12 La1 1_555 1_555
C4 C5_2 1_555 1_555
C9_2 C10_2 1_555 1_555
C12_2 C13 1_555 1_555
C17 C18_2 1_555 1_555
C24_2 C25_2 1_555 1_555
C32_2 C33_2 1_555 1_555
C34_2 C35_2 1_555 1_555
O9_2 N7_2 1_555 1_555
O3_2 N3_2 1_555 1_555
O11_2 N6_2 1_555 1_555
N3_2 C11_2 1_555 1_555
N6_2 C26_2 1_555 1_555
C11_2 H9_2 1_555 1_555
C15 N3_2 1_555 1_555
H12 C15 1_555 1_555
C26_2 H21_2 1_555 1_555
C27_2 C26_2 1_555 1_555
H22_2 C27_2 1_555 1_555
C28_2 C27_2 1_555 1_555
C29_2 C28_2 1_555 1_555
H23_2 C29_2 1_555 1_555
C30_2 N6_2 1_555 1_555
H24_2 C30_2 1_555 1_555
C37_2 C36_2 1_555 1_555
H30_2 C37_2 1_555 1_555
C38_2 C28_2 1_555 1_555
C39_2 C38_2 1_555 1_555
H31_2 C39_2 1_555 1_555
H32_2 C40_2 1_555 1_555
La5 O3_2 1_555 1_555
C14 C15 1_555 1_555
C29_2 C30_2 1_555 1_555
C37_2 C38_2 1_555 1_555
C39_2 C40_2 1_555 1_555
O4_2 N4_2 1_555 1_555
N4_2 C16_2 1_555 1_555
C16_2 H13_2 1_555 1_555
C17_2 C16_2 1_555 1_555
H14_2 C17_2 1_555 1_555
La5 O4_2 1_555 1_555
O12 N3_3 1_555 1_555
O6 N6_3 1_555 1_555
N3_3 C11_3 1_555 1_555
N6_3 C26_3 1_555 1_555
C11_3 H9_3 1_555 1_555
C15_2 N3_3 1_555 1_555
H12_2 C15_2 1_555 1_555
C26_3 H21_3 1_555 1_555
C27_3 C26_3 1_555 1_555
H22_3 C27_3 1_555 1_555
C28_3 C27_3 1_555 1_555
C29_3 C28_3 1_555 1_555
H23_3 C29_3 1_555 1_555
C30_3 N6_3 1_555 1_555
H24_3 C30_3 1_555 1_555
C37_3 C36_3 1_555 1_555
H30_3 C37_3 1_555 1_555
C38_3 C28_3 1_555 1_555
C39_3 C38_3 1_555 1_555
H31_3 C39_3 1_555 1_555
H32_3 C40_3 1_555 1_555
La5 O6 1_555 1_555
C14_2 C15_2 1_555 1_555
C29_3 C30_3 1_555 1_555
C37_3 C38_3 1_555 1_555
C39_3 C40_3 1_555 1_555
O7 N7_3 1_555 1_555
La5 O7 1_555 1_555
La5 O1_3 1_555 1_555
O1_3 N1_3 1_555 1_555
O2_3 La5 1_555 1_555
O5_3 La5 1_555 1_555
O8_3 La5 1_555 1_555
N1_3 C1_3 1_555 1_555
N2_3 O2_3 1_555 1_555
N5_3 O5_3 1_555 1_555
N8_3 O8_3 1_555 1_555
C1_3 H1_3 1_555 1_555
C2_2 C1_3 1_555 1_555
H2_2 C2_2 1_555 1_555
C3_2 C2_2 1_555 1_555
C4_2 C3_2 1_555 1_555
H3_2 C4_2 1_555 1_555
C5_3 N1_3 1_555 1_555
H4_3 C5_3 1_555 1_555
C6_3 N2_3 1_555 1_555
H5_3 C6_3 1_555 1_555
C7_3 C6_3 1_555 1_555
H6_3 C7_3 1_555 1_555
C8_3 C7_3 1_555 1_555
C9_3 C8_3 1_555 1_555
H7_3 C9_3 1_555 1_555
C10_3 N2_3 1_555 1_555
H8_3 C10_3 1_555 1_555
H10_3 C12_3 1_555 1_555
C13_2 C3_2 1_555 1_555
H14_3 C17_3 1_555 1_555
C18_3 C8_3 1_555 1_555
C21_3 N5_3 1_555 1_555
H17_3 C21_3 1_555 1_555
C22_3 C21_3 1_555 1_555
H18_3 C22_3 1_555 1_555
C23_3 C22_3 1_555 1_555
C24_3 C23_3 1_555 1_555
H19_3 C24_3 1_555 1_555
C25_3 N5_3 1_555 1_555
H20_3 C25_3 1_555 1_555
C32_3 C31_3 1_555 1_555
H26_3 C32_3 1_555 1_555
C33_3 C23_3 1_555 1_555
C34_3 C33_3 1_555 1_555
H27_3 C34_3 1_555 1_555
H28_3 C35_3 1_555 1_555
C4_2 C5_3 1_555 1_555
C9_3 C10_3 1_555 1_555
C12_3 C13_2 1_555 1_555
C17_3 C18_3 1_555 1_555
C24_3 C25_3 1_555 1_555
C32_3 C33_3 1_555 1_555
C34_3 C35_3 1_555 1_555
O10 N4_3 1_555 1_555
N4_3 C16_3 1_555 1_555
C16_3 H13_4 1_555 1_555
C17_4 C16_3 1_555 1_555
H14_4 C17_4 1_555 1_555
La4 O6_2 1_555 1_555
O7_2 N7_4 1_555 1_555
N7_4 C31_4 1_555 1_555
C22_4 C21_4 1_555 1_555
H18_4 C22_4 1_555 1_555
C23_4 C22_4 1_555 1_555
C24_4 C23_4 1_555 1_555
H19_4 C24_4 1_555 1_555
H20_4 C25_4 1_555 1_555
C31_4 H25_4 1_555 1_555
C32_4 C31_4 1_555 1_555
H26_4 C32_4 1_555 1_555
C33_4 C23_4 1_555 1_555
C34_4 C33_4 1_555 1_555
H27_4 C34_4 1_555 1_555
C35_4 N7_4 1_555 1_555
H28_4 C35_4 1_555 1_555
La4 O7_2 1_555 1_555
C24_4 C25_4 1_555 1_555
C32_4 C33_4 1_555 1_555
C34_4 C35_4 1_555 1_555
La4 O1_4 1_555 1_555
O1_4 N1_4 1_555 1_555
O2_4 La4 1_555 1_555
O5_4 La4 1_555 1_555
O8_4 La4 1_555 1_555
N1_4 C1_4 1_555 1_555
N2_4 O2_4 1_555 1_555
N5_4 O5_4 1_555 1_555
N6_4 C26_4 1_555 1_555
N8_4 O8_4 1_555 1_555
C1_4 H1_4 1_555 1_555
C5_4 N1_4 1_555 1_555
H4_4 C5_4 1_555 1_555
C6_4 N2_4 1_555 1_555
H5_4 C6_4 1_555 1_555
C7_4 C6_4 1_555 1_555
H6_4 C7_4 1_555 1_555
C8_4 C7_4 1_555 1_555
C9_4 C8_4 1_555 1_555
H7_4 C9_4 1_555 1_555
C10_4 N2_4 1_555 1_555
H8_4 C10_4 1_555 1_555
C18_4 C8_4 1_555 1_555
C19_3 C18_4 1_555 1_555
H15_3 C19_3 1_555 1_555
H16_3 C20_3 1_555 1_555
C26_4 H21_4 1_555 1_555
C27_4 C26_4 1_555 1_555
H22_4 C27_4 1_555 1_555
C28_4 C27_4 1_555 1_555
C29_4 C28_4 1_555 1_555
H23_4 C29_4 1_555 1_555
C30_4 N6_4 1_555 1_555
C36_4 N8_4 1_555 1_555
H29_4 C36_4 1_555 1_555
C37_4 C36_4 1_555 1_555
H30_4 C37_4 1_555 1_555
C38_4 C28_4 1_555 1_555
C39_4 C38_4 1_555 1_555
H31_4 C39_4 1_555 1_555
C40_4 N8_4 1_555 1_555
H32_4 C40_4 1_555 1_555
O10_2 La4 1_555 1_555
O12_2 La4 1_555 1_555
C9_4 C10_4 1_555 1_555
C19_3 C20_3 1_555 1_555
C29_4 C30_4 1_555 1_555
C37_4 C38_4 1_555 1_555
C39_4 C40_4 1_555 1_555
O10_2 N4_4 1_555 1_555
N4_4 C16_4 1_555 1_555
H15_4 C19_4 1_555 1_555
C20_4 N4_4 1_555 1_555
H16_4 C20_4 1_555 1_555
C19_4 C20_4 1_555 1_555
O12_2 N3_4 1_555 1_555
N3_4 C11_4 1_555 1_555
C11_4 H9_4 1_555 1_555
C12_4 C11_4 1_555 1_555
H10_4 C12_4 1_555 1_555
H2_3 C2_3 1_555 1_555
C3_3 C2_3 1_555 1_555
C4_3 C3_3 1_555 1_555
H3_3 C4_3 1_555 1_555
C13_3 C3_3 1_555 1_555
C14_3 C13_3 1_555 1_555
H11_3 C14_3 1_555 1_555
H12_3 C15_3 1_555 1_555
C14_3 C15_3 1_555 1_555
H2_4 C2_4 1_555 1_555
C3_4 C2_4 1_555 1_555
C4_4 C3_4 1_555 1_555
H3_4 C4_4 1_555 1_555
C13_4 C3_4 1_555 1_555
C14_4 C13_4 1_555 1_555
H11_4 C14_4 1_555 1_555
H12_4 C15_4 1_555 1_555
C14_4 C15_4 1_555 1_555
Cl1 O13 1_555 1_555
O14 Cl1 1_555 1_555
O15 Cl1 1_555 1_555
O16 Cl1 1_555 1_555
O14_2 Cl1_2 1_555 1_555
O15_2 Cl1_2 1_555 1_555
Cl1_3 O13_3 1_555 1_555
O14_3 Cl1_3 1_555 1_555
O15_3 Cl1_3 1_555 1_555
O16_3 Cl1_3 1_555 1_555
O14_4 Cl1_4 1_555 1_555
O15_4 Cl1_4 1_555 1_555
Cl2 O17 1_555 1_555
O18 Cl2 1_555 1_555
O19 Cl2 1_555 1_555
O20 Cl2 1_555 1_555
Cl2_2 O17_2 1_555 1_555
O18_2 Cl2_2 1_555 1_555
O19_2 Cl2_2 1_555 1_555
O20_2 Cl2_2 1_555 1_555
Cl2_3 O17_3 1_555 1_555
O18_3 Cl2_3 1_555 1_555
O19_3 Cl2_3 1_555 1_555
O20_3 Cl2_3 1_555 1_555
Cl2_4 O17_4 1_555 1_555
O18_4 Cl2_4 1_555 1_555
O19_4 Cl2_4 1_555 1_555
O20_4 Cl2_4 1_555 1_555
H50 C62 1_555 1_555
C63 C62 1_555 1_555
H51 C63 1_555 1_555
B1 C41 1_555 1_555
C41 C42 1_555 1_555
C42 H33 1_555 1_555
C43 C42 1_555 1_555
H34 C43 1_555 1_555
C46 C41 1_555 1_555
H37 C46 1_555 1_555
C47 B1 1_555 1_555
C48 C47 1_555 1_555
H38 C48 1_555 1_555
C49 C48 1_555 1_555
C50 C49 1_555 1_555
H40 C50 1_555 1_555
C51 C50 1_555 1_555
H41 C51 1_555 1_555
C52 C47 1_555 1_555
H42 C52 1_555 1_555
C53 B1 1_555 1_555
C54 C53 1_555 1_555
H43 C54 1_555 1_555
C55 C54 1_555 1_555
H44 C55 1_555 1_555
C56 C55 1_555 1_555
H45 C56 1_555 1_555
C57 C56 1_555 1_555
H46 C57 1_555 1_555
C58 C53 1_555 1_555
H47 C58 1_555 1_555
C59 B1 1_555 1_555
C60 C59 1_555 1_555
H48 C60 1_555 1_555
C61 C60 1_555 1_555
C64 C59 1_555 1_555
H52 C64 1_555 1_555
C45 C46 1_555 1_555
C51 C52 1_555 1_555
C57 C58 1_555 1_555
H35 C44 1_555 1_555
B1_2 C41_2 1_555 1_555
C41_2 C42_2 1_555 1_555
C42_2 H33_2 1_555 1_555
C43_2 C42_2 1_555 1_555
H34_2 C43_2 1_555 1_555
C44_2 C43_2 1_555 1_555
H35_2 C44_2 1_555 1_555
C45_2 C44_2 1_555 1_555
C46_2 C41_2 1_555 1_555
H37_2 C46_2 1_555 1_555
C47_2 B1_2 1_555 1_555
C48_2 C47_2 1_555 1_555
H38_2 C48_2 1_555 1_555
C49_2 C48_2 1_555 1_555
H39_2 C49_2 1_555 1_555
C50_2 C49_2 1_555 1_555
H40_2 C50_2 1_555 1_555
C51_2 C50_2 1_555 1_555
H41_2 C51_2 1_555 1_555
C52_2 C47_2 1_555 1_555
H42_2 C52_2 1_555 1_555
C53_2 B1_2 1_555 1_555
C54_2 C53_2 1_555 1_555
H43_2 C54_2 1_555 1_555
C55_2 C54_2 1_555 1_555
H44_2 C55_2 1_555 1_555
C58_2 C53_2 1_555 1_555
H47_2 C58_2 1_555 1_555
C59_2 B1_2 1_555 1_555
C60_2 C59_2 1_555 1_555
H48_2 C60_2 1_555 1_555
C61_2 C60_2 1_555 1_555
H49_2 C61_2 1_555 1_555
C62_2 C61_2 1_555 1_555
H50_2 C62_2 1_555 1_555
C63_2 C62_2 1_555 1_555
H51_2 C63_2 1_555 1_555
C64_2 C59_2 1_555 1_555
H52_2 C64_2 1_555 1_555
C45_2 C46_2 1_555 1_555
C51_2 C52_2 1_555 1_555
C63_2 C64_2 1_555 1_555
H45_2 C56_2 1_555 1_555
C57_2 C56_2 1_555 1_555
H46_2 C57_2 1_555 1_555
H35_3 C44_3 1_555 1_555
B1_3 C41_3 1_555 1_555
C41_3 C42_3 1_555 1_555
C42_3 H33_3 1_555 1_555
C43_3 C42_3 1_555 1_555
H34_3 C43_3 1_555 1_555
C46_3 C41_3 1_555 1_555
H37_3 C46_3 1_555 1_555
C47_3 B1_3 1_555 1_555
C48_3 C47_3 1_555 1_555
H38_3 C48_3 1_555 1_555
C49_3 C48_3 1_555 1_555
C50_3 C49_3 1_555 1_555
H40_3 C50_3 1_555 1_555
C51_3 C50_3 1_555 1_555
H41_3 C51_3 1_555 1_555
C52_3 C47_3 1_555 1_555
H42_3 C52_3 1_555 1_555
C53_3 B1_3 1_555 1_555
C54_3 C53_3 1_555 1_555
H43_3 C54_3 1_555 1_555
C55_3 C54_3 1_555 1_555
H44_3 C55_3 1_555 1_555
C56_3 C55_3 1_555 1_555
H45_3 C56_3 1_555 1_555
C57_3 C56_3 1_555 1_555
H46_3 C57_3 1_555 1_555
C58_3 C53_3 1_555 1_555
H47_3 C58_3 1_555 1_555
C59_3 B1_3 1_555 1_555
C60_3 C59_3 1_555 1_555
H48_3 C60_3 1_555 1_555
C61_3 C60_3 1_555 1_555
C64_3 C59_3 1_555 1_555
H52_3 C64_3 1_555 1_555
C45_3 C46_3 1_555 1_555
C51_3 C52_3 1_555 1_555
C57_3 C58_3 1_555 1_555
H50_3 C62_3 1_555 1_555
C63_3 C62_3 1_555 1_555
H51_3 C63_3 1_555 1_555
H45_4 C56_4 1_555 1_555
C57_4 C56_4 1_555 1_555
H46_4 C57_4 1_555 1_555
B1_4 C41_4 1_555 1_555
C41_4 C42_4 1_555 1_555
C42_4 H33_4 1_555 1_555
C43_4 C42_4 1_555 1_555
H34_4 C43_4 1_555 1_555
C44_4 C43_4 1_555 1_555
H35_4 C44_4 1_555 1_555
C45_4 C44_4 1_555 1_555
C46_4 C41_4 1_555 1_555
H37_4 C46_4 1_555 1_555
C47_4 B1_4 1_555 1_555
C48_4 C47_4 1_555 1_555
H38_4 C48_4 1_555 1_555
C49_4 C48_4 1_555 1_555
H39_4 C49_4 1_555 1_555
C50_4 C49_4 1_555 1_555
H40_4 C50_4 1_555 1_555
C51_4 C50_4 1_555 1_555
H41_4 C51_4 1_555 1_555
C52_4 C47_4 1_555 1_555
H42_4 C52_4 1_555 1_555
C53_4 B1_4 1_555 1_555
C54_4 C53_4 1_555 1_555
H43_4 C54_4 1_555 1_555
C55_4 C54_4 1_555 1_555
H44_4 C55_4 1_555 1_555
C58_4 C53_4 1_555 1_555
H47_4 C58_4 1_555 1_555
C59_4 B1_4 1_555 1_555
C60_4 C59_4 1_555 1_555
H48_4 C60_4 1_555 1_555
C61_4 C60_4 1_555 1_555
H49_4 C61_4 1_555 1_555
C62_4 C61_4 1_555 1_555
H50_4 C62_4 1_555 1_555
C63_4 C62_4 1_555 1_555
H51_4 C63_4 1_555 1_555
C64_4 C59_4 1_555 1_555
H52_4 C64_4 1_555 1_555
C45_4 C46_4 1_555 1_555
C51_4 C52_4 1_555 1_555
C63_4 C64_4 1_555 1_555

#END
